data_crystal

_cell_length_a 38.22600
_cell_length_b 13.45600
_cell_length_c 33.94500
_cell_angle_alpha 90.00000
_cell_angle_beta  110.13200
_cell_angle_gamma 90.00000

_symmetry_space_group_name_	'P 1'
_symmetry_space_group_name_H-M	'P 1'

loop_
_symmetry_equiv_pos_as_xyz
  x,y,z

loop_
_atom_site_label
_atom_site_type_symbol
_atom_site_fract_x
_atom_site_fract_y
_atom_site_fract_z
_atom_site_charge
Co	Co	0.00961 0.31545 0.04214 1.15300
Co	Co	0.28975 0.38202 0.46733 1.15600
O 	O 	0.26213 0.36890 0.40031 -0.43300
O 	O 	0.21829 0.33570 0.98424 -0.18100
O 	O 	0.11850 0.28590 0.04194 -0.45200
H 	H 	0.09820 0.29880 0.04400 0.28000
O 	O 	0.22392 0.38050 0.32096 -0.44500
H 	H 	0.24050 0.39340 0.34320 0.28400
O 	O 	0.02423 0.37610 0.09889 -0.47900
O 	O 	0.04867 0.32150 0.01738 -0.47700
N 	N 	0.95600 0.41940 0.96868 -0.24900
H 	H 	0.97090 0.41320 0.95480 0.13600
O 	O 	0.01632 0.34530 0.94995 -0.33300
O 	O 	0.06344 0.25830 0.10729 -0.40400
O 	O 	0.23739 0.29820 0.44170 -0.38300
C 	C 	0.20679 0.27420 0.36923 -0.19300
N 	N 	0.96571 0.39830 0.00986 -0.26700
O 	O 	0.12198 0.24730 0.17259 -0.45500
H 	H 	0.10730 0.23280 0.14930 0.27700
C 	C 	0.93528 0.41900 0.01960 0.34000
C 	C 	0.18163 0.23210 0.02820 -0.09700
H 	H 	0.19740 0.18890 0.01870 0.08100
H 	H 	0.17620 0.19790 0.05060 0.07800
C 	C 	0.22082 0.37390 0.02170 0.14100
C 	C 	0.23677 0.31730 0.40486 0.34700
C 	C 	0.16667 0.31650 0.25040 -0.07600
H 	H 	0.17070 0.26400 0.23290 0.07600
H 	H 	0.18570 0.36650 0.25330 0.07700
N 	N 	0.98970 0.17680 0.04049 -0.26600
C 	C 	0.14530 0.24750 0.99210 -0.07500
C 	C 	0.04568 0.32400 0.97860 0.37800
C 	C 	0.07974 0.29630 0.96900 -0.20200
C 	C 	0.11463 0.27670 0.00120 0.24800
C 	C 	0.05190 0.32940 0.12150 0.40200
C 	C 	0.93292 0.95270 0.99950 0.16400
H 	H 	0.94300 0.92770 0.97880 -0.02100
H 	H 	0.93320 0.89830 0.01840 -0.01800
C 	C 	0.95828 0.03370 0.02430 -0.29100
C 	C 	0.20161 0.30860 0.32730 0.23300
C 	C 	0.14134 0.22720 0.94990 0.04700
C 	C 	0.20357 0.32680 0.04630 -0.02100
C 	C 	0.22706 0.45700 0.09900 0.01800
N 	N 	0.99661 0.11840 0.07430 -0.22900
H 	H 	0.01150 0.13450 0.09890 0.11100
C 	C 	0.15010 0.19460 0.29930 0.07000
C 	C 	0.96667 0.12370 0.00950 0.30100
C 	C 	0.20718 0.36790 0.08620 0.01600
C 	C 	0.24482 0.50180 0.07370 -0.03500
H 	H 	0.25850 0.55960 0.08280 0.05900
C 	C 	0.07356 0.36700 0.16410 -0.23200
C 	C 	0.12920 0.36300 0.22740 -0.09600
C 	C 	0.17271 0.27330 0.29326 -0.08500
C 	C 	0.10680 0.24920 0.91620 -0.04100
C 	C 	0.92140 0.45040 0.95200 0.36100
C 	C 	0.19001 0.32420 0.11310 -0.05700
H 	H 	0.17630 0.26600 0.10500 0.06300
C 	C 	0.17010 0.18260 0.93730 -0.09800
H 	H 	0.19280 0.16600 0.95770 0.08300
C 	C 	0.10813 0.32640 0.18830 0.24400
C 	C 	0.89342 0.98320 0.97740 -0.32900
C 	C 	0.24231 0.46190 0.03590 -0.10000
C 	C 	0.90380 0.47680 0.90680 -0.91800
H 	H 	0.92140 0.46670 0.89270 0.30100
H 	H 	0.89620 0.54520 0.90440 0.30800
H 	H 	0.88240 0.43540 0.89420 0.28800
C 	C 	0.10140 0.23030 0.87380 -0.04400
H 	H 	0.07890 0.24450 0.85260 0.03100
C 	C 	0.07717 0.28520 0.92810 0.01900
H 	H 	0.05490 0.30220 0.90720 0.02100
C 	C 	0.15570 0.15880 0.33980 -0.04400
C 	C 	0.13320 0.08420 0.34740 -0.02400
H 	H 	0.13730 0.06160 0.37450 0.02500
C 	C 	0.90676 0.45280 0.98440 -0.29300
C 	C 	0.95240 0.16070 0.96430 -0.79000
H 	H 	0.96280 0.22500 0.96290 0.23600
H 	H 	0.92570 0.16540 0.95480 0.24500
H 	H 	0.95970 0.11510 0.94680 0.25100
C 	C 	0.23110 0.49840 0.13830 -0.08200
H 	H 	0.24500 0.55610 0.14710 0.05700
C 	C 	0.97810 0.03330 0.06600 0.32500
C 	C 	0.13110 0.18960 0.86490 -0.06600
H 	H 	0.12870 0.17860 0.83700 0.04800
C 	C 	0.12120 0.15200 0.26600 -0.12500
H 	H 	0.11690 0.17350 0.23870 0.08900
C 	C 	0.19370 0.36790 0.15100 -0.04700
H 	H 	0.18190 0.33920 0.16800 0.05400
C 	C 	0.18320 0.20170 0.37390 0.02700
H 	H 	0.18570 0.18060 0.40080 0.03000
C 	C 	0.16470 0.16440 0.89650 -0.00400
H 	H 	0.18350 0.13470 0.88920 0.03600
C 	C 	0.09930 0.07960 0.27320 0.02000
H 	H 	0.08020 0.05270 0.25070 0.01200
C 	C 	0.93480 0.40700 0.06310 -0.88500
H 	H 	0.95850 0.38240 0.08100 0.27300
H 	H 	0.91560 0.36070 0.06290 0.27500
H 	H 	0.92990 0.47000 0.07340 0.29200
C 	C 	0.07940 0.48110 0.22160 -0.06000
C 	C 	0.05950 0.44260 0.18050 0.05100
H 	H 	0.03660 0.47010 0.16480 0.01600
C 	C 	0.21420 0.45280 0.16410 -0.02600
H 	H 	0.21690 0.47990 0.19020 0.03600
C 	C 	0.11510 0.44340 0.24370 0.08000
C 	C 	0.06470 0.56050 0.23860 -0.00600
H 	H 	0.04110 0.58500 0.22390 0.02400
C 	C 	0.98100 0.96040 0.10080 -0.82700
H 	H 	0.99810 0.98550 0.12680 0.25700
H 	H 	0.98990 0.89770 0.09450 0.26200
H 	H 	0.95690 0.95150 0.10320 0.26100
C 	C 	0.10460 0.04460 0.31350 -0.08300
H 	H 	0.08930 0.99530 0.31770 0.04600
C 	C 	0.13450 0.48760 0.28310 -0.13400
H 	H 	0.15800 0.46450 0.29910 0.09200
C 	C 	0.11880 0.56370 0.29760 0.03200
H 	H 	0.13190 0.59130 0.32370 0.01500
C 	C 	0.08470 0.60040 0.27550 -0.09800
H 	H 	0.07520 0.65370 0.28600 0.05500
C 	C 	0.86909 0.02500 0.99550 0.38000
C 	C 	0.87331 0.97270 0.93610 0.37100
N 	N 	0.83849 0.00750 0.92972 -0.23600
H 	H 	0.82090 0.00880 0.90570 0.11500
N 	N 	0.83500 0.04010 0.96607 -0.26900
C 	C 	0.87526 0.05470 0.03860 -0.95700
H 	H 	0.85260 0.08110 0.04060 0.29000
H 	H 	0.89430 0.10460 0.04700 0.30000
H 	H 	0.88290 0.99800 0.05670 0.30800
C 	C 	0.88300 0.93000 0.90040 -0.91100
H 	H 	0.86190 0.93550 0.87490 0.29600
H 	H 	0.88970 0.86130 0.90590 0.31600
H 	H 	0.90370 0.96590 0.89740 0.28800
C 	C 	0.26144 0.51360 0.00900 0.30200
O 	O 	0.28146 0.58910 0.02358 -0.40400
O 	O 	0.25726 0.47930 0.97330 -0.35500
C 	C 	0.86751 0.48100 0.98160 0.14800
H 	H 	0.86890 0.53450 0.00120 -0.00800
H 	H 	0.85410 0.50570 0.95360 -0.00300
C 	C 	0.84646 0.39740 0.99070 -0.29900
C 	C 	0.83318 0.38960 0.02350 0.37300
C 	C 	0.83437 0.31080 0.96670 0.32100
N 	N 	0.81483 0.30080 0.01855 -0.23600
H 	H 	0.80420 0.27870 0.03540 0.15200
N 	N 	0.81531 0.25220 0.98428 -0.25100
C 	C 	0.83652 0.45560 0.06000 -0.95400
H 	H 	0.85010 0.51440 0.05830 0.31800
H 	H 	0.84950 0.42100 0.08560 0.30400
H 	H 	0.81210 0.47380 0.05950 0.33400
C 	C 	0.84120 0.28180 0.92730 -0.83400
H 	H 	0.82960 0.21900 0.91760 0.25500
H 	H 	0.86760 0.27640 0.93300 0.25500
H 	H 	0.83100 0.33140 0.90620 0.27000
Co	Co	0.50961 0.81545 0.04214 1.15200
Co	Co	0.78975 0.88202 0.46733 1.15500
O 	O 	0.76213 0.86890 0.40031 -0.43400
O 	O 	0.71829 0.83570 0.98424 -0.18200
O 	O 	0.61850 0.78590 0.04194 -0.45200
H 	H 	0.59820 0.79880 0.04400 0.27900
O 	O 	0.72392 0.88050 0.32096 -0.44700
H 	H 	0.74050 0.89340 0.34320 0.28300
O 	O 	0.52423 0.87610 0.09889 -0.48000
O 	O 	0.54867 0.82150 0.01738 -0.47800
N 	N 	0.45600 0.91940 0.96868 -0.25000
H 	H 	0.47090 0.91320 0.95480 0.13500
O 	O 	0.51632 0.84530 0.94995 -0.33400
O 	O 	0.56344 0.75830 0.10729 -0.40600
O 	O 	0.73739 0.79820 0.44170 -0.38400
C 	C 	0.70679 0.77420 0.36923 -0.19400
N 	N 	0.46571 0.89830 0.00986 -0.26800
O 	O 	0.62198 0.74730 0.17259 -0.45600
H 	H 	0.60730 0.73280 0.14930 0.27600
C 	C 	0.43528 0.91900 0.01960 0.33700
C 	C 	0.68163 0.73210 0.02820 -0.09800
H 	H 	0.69740 0.68890 0.01870 0.08100
H 	H 	0.67620 0.69790 0.05060 0.07800
C 	C 	0.72082 0.87390 0.02170 0.14200
C 	C 	0.73677 0.81730 0.40486 0.34700
C 	C 	0.66667 0.81650 0.25040 -0.07500
H 	H 	0.67070 0.76400 0.23290 0.07600
H 	H 	0.68570 0.86650 0.25330 0.07700
N 	N 	0.48970 0.67680 0.04049 -0.26600
C 	C 	0.64530 0.74750 0.99210 -0.07400
C 	C 	0.54568 0.82400 0.97860 0.37800
C 	C 	0.57974 0.79630 0.96900 -0.20100
C 	C 	0.61463 0.77670 0.00120 0.24700
C 	C 	0.55190 0.82940 0.12150 0.40200
C 	C 	0.43292 0.45270 0.99950 0.16500
H 	H 	0.44300 0.42770 0.97880 -0.02100
H 	H 	0.43320 0.39830 0.01840 -0.01800
C 	C 	0.45828 0.53370 0.02430 -0.29100
C 	C 	0.70161 0.80860 0.32730 0.23300
C 	C 	0.64134 0.72720 0.94990 0.04600
C 	C 	0.70357 0.82680 0.04630 -0.02100
C 	C 	0.72706 0.95700 0.09900 0.01700
N 	N 	0.49661 0.61840 0.07430 -0.22900
H 	H 	0.51150 0.63450 0.09890 0.11100
C 	C 	0.65010 0.69460 0.29930 0.07100
C 	C 	0.46667 0.62370 0.00950 0.30000
C 	C 	0.70718 0.86790 0.08620 0.01700
C 	C 	0.74482 0.00180 0.07370 -0.03300
H 	H 	0.75850 0.05960 0.08280 0.05800
C 	C 	0.57356 0.86700 0.16410 -0.23300
C 	C 	0.62920 0.86300 0.22740 -0.09600
C 	C 	0.67271 0.77330 0.29326 -0.08500
C 	C 	0.60680 0.74920 0.91620 -0.04000
C 	C 	0.42140 0.95040 0.95200 0.36100
C 	C 	0.69001 0.82420 0.11310 -0.05700
H 	H 	0.67630 0.76600 0.10500 0.06300
C 	C 	0.67010 0.68260 0.93730 -0.09700
H 	H 	0.69280 0.66600 0.95770 0.08300
C 	C 	0.60813 0.82640 0.18830 0.24500
C 	C 	0.39342 0.48320 0.97740 -0.33100
C 	C 	0.74231 0.96190 0.03590 -0.10100
C 	C 	0.40380 0.97680 0.90680 -0.91600
H 	H 	0.42140 0.96670 0.89270 0.30000
H 	H 	0.39620 0.04520 0.90440 0.30700
H 	H 	0.38240 0.93540 0.89420 0.28800
C 	C 	0.60140 0.73030 0.87380 -0.04500
H 	H 	0.57890 0.74450 0.85260 0.03100
C 	C 	0.57717 0.78520 0.92810 0.01900
H 	H 	0.55490 0.80220 0.90720 0.02100
C 	C 	0.65570 0.65880 0.33980 -0.04500
C 	C 	0.63320 0.58420 0.34740 -0.02300
H 	H 	0.63730 0.56160 0.37450 0.02500
C 	C 	0.40676 0.95280 0.98440 -0.29200
C 	C 	0.45240 0.66070 0.96430 -0.78900
H 	H 	0.46280 0.72500 0.96290 0.23600
H 	H 	0.42570 0.66540 0.95480 0.24400
H 	H 	0.45970 0.61510 0.94680 0.25000
C 	C 	0.73110 0.99840 0.13830 -0.08300
H 	H 	0.74500 0.05610 0.14710 0.05700
C 	C 	0.47810 0.53330 0.06600 0.32400
C 	C 	0.63110 0.68960 0.86490 -0.06500
H 	H 	0.62870 0.67860 0.83700 0.04800
C 	C 	0.62120 0.65200 0.26600 -0.12500
H 	H 	0.61690 0.67350 0.23870 0.08900
C 	C 	0.69370 0.86790 0.15100 -0.04700
H 	H 	0.68190 0.83920 0.16800 0.05400
C 	C 	0.68320 0.70170 0.37390 0.02800
H 	H 	0.68570 0.68060 0.40080 0.03000
C 	C 	0.66470 0.66440 0.89650 -0.00400
H 	H 	0.68350 0.63470 0.88920 0.03600
C 	C 	0.59930 0.57960 0.27320 0.02100
H 	H 	0.58020 0.55270 0.25070 0.01200
C 	C 	0.43480 0.90700 0.06310 -0.88300
H 	H 	0.45850 0.88240 0.08100 0.27200
H 	H 	0.41560 0.86070 0.06290 0.27500
H 	H 	0.42990 0.97000 0.07340 0.29100
C 	C 	0.57940 0.98110 0.22160 -0.06100
C 	C 	0.55950 0.94260 0.18050 0.05100
H 	H 	0.53660 0.97010 0.16480 0.01600
C 	C 	0.71420 0.95280 0.16410 -0.02600
H 	H 	0.71690 0.97990 0.19020 0.03600
C 	C 	0.61510 0.94340 0.24370 0.08100
C 	C 	0.56470 0.06050 0.23860 -0.00400
H 	H 	0.54110 0.08500 0.22390 0.02300
C 	C 	0.48100 0.46040 0.10080 -0.82500
H 	H 	0.49810 0.48550 0.12680 0.25700
H 	H 	0.48990 0.39770 0.09450 0.26200
H 	H 	0.45690 0.45150 0.10320 0.26100
C 	C 	0.60460 0.54460 0.31350 -0.08500
H 	H 	0.58930 0.49530 0.31770 0.04600
C 	C 	0.63450 0.98760 0.28310 -0.13600
H 	H 	0.65800 0.96450 0.29910 0.09300
C 	C 	0.61880 0.06370 0.29760 0.03400
H 	H 	0.63190 0.09130 0.32370 0.01500
C 	C 	0.58470 0.10040 0.27550 -0.10000
H 	H 	0.57520 0.15370 0.28600 0.05500
C 	C 	0.36909 0.52500 0.99550 0.38300
C 	C 	0.37331 0.47270 0.93610 0.37100
N 	N 	0.33849 0.50750 0.92972 -0.23600
H 	H 	0.32090 0.50880 0.90570 0.11500
N 	N 	0.33500 0.54010 0.96607 -0.27000
C 	C 	0.37526 0.55470 0.03860 -0.96400
H 	H 	0.35260 0.58110 0.04060 0.29100
H 	H 	0.39430 0.60460 0.04700 0.30200
H 	H 	0.38290 0.49800 0.05670 0.31100
C 	C 	0.38300 0.43000 0.90040 -0.91100
H 	H 	0.36190 0.43550 0.87490 0.29600
H 	H 	0.38970 0.36130 0.90590 0.31600
H 	H 	0.40370 0.46590 0.89740 0.28800
C 	C 	0.76144 0.01360 0.00900 0.30300
O 	O 	0.78146 0.08910 0.02358 -0.40400
O 	O 	0.75726 0.97930 0.97330 -0.35600
C 	C 	0.36751 0.98100 0.98160 0.14900
H 	H 	0.36890 0.03450 0.00120 -0.00900
H 	H 	0.35410 0.00570 0.95360 -0.00300
C 	C 	0.34646 0.89740 0.99070 -0.29800
C 	C 	0.33318 0.88960 0.02350 0.37200
C 	C 	0.33437 0.81080 0.96670 0.32100
N 	N 	0.31483 0.80080 0.01855 -0.23700
H 	H 	0.30420 0.77870 0.03540 0.15200
N 	N 	0.31531 0.75220 0.98428 -0.25000
C 	C 	0.33652 0.95560 0.06000 -0.95500
H 	H 	0.35010 0.01440 0.05830 0.31900
H 	H 	0.34950 0.92100 0.08560 0.30400
H 	H 	0.31210 0.97380 0.05950 0.33400
C 	C 	0.34120 0.78180 0.92730 -0.83400
H 	H 	0.32960 0.71900 0.91760 0.25500
H 	H 	0.36760 0.77640 0.93300 0.25500
H 	H 	0.33100 0.83140 0.90620 0.27000
Co	Co	0.00961 0.68455 0.54214 1.15200
Co	Co	0.28975 0.61798 0.96733 1.15500
O 	O 	0.26213 0.63110 0.90031 -0.43400
O 	O 	0.21829 0.66430 0.48424 -0.18200
O 	O 	0.11850 0.71410 0.54194 -0.45200
H 	H 	0.09820 0.70120 0.54400 0.27900
O 	O 	0.22392 0.61950 0.82096 -0.44600
H 	H 	0.24050 0.60660 0.84320 0.28300
O 	O 	0.02423 0.62390 0.59889 -0.48000
O 	O 	0.04867 0.67850 0.51738 -0.47800
N 	N 	0.95600 0.58060 0.46868 -0.25000
H 	H 	0.97090 0.58680 0.45480 0.13500
O 	O 	0.01632 0.65470 0.44995 -0.33400
O 	O 	0.06344 0.74170 0.60729 -0.40500
O 	O 	0.23739 0.70180 0.94170 -0.38400
C 	C 	0.20679 0.72580 0.86923 -0.19400
N 	N 	0.96571 0.60170 0.50986 -0.26800
O 	O 	0.12198 0.75270 0.67259 -0.45600
H 	H 	0.10730 0.76720 0.64930 0.27600
C 	C 	0.93528 0.58100 0.51960 0.33800
C 	C 	0.18163 0.76790 0.52820 -0.09800
H 	H 	0.19740 0.81110 0.51870 0.08100
H 	H 	0.17620 0.80210 0.55060 0.07800
C 	C 	0.22082 0.62610 0.52170 0.14100
C 	C 	0.23677 0.68270 0.90486 0.34700
C 	C 	0.16667 0.68350 0.75040 -0.07600
H 	H 	0.17070 0.73600 0.73290 0.07600
H 	H 	0.18570 0.63350 0.75330 0.07700
N 	N 	0.98970 0.82320 0.54049 -0.26600
C 	C 	0.14530 0.75250 0.49210 -0.07500
C 	C 	0.04568 0.67600 0.47860 0.37800
C 	C 	0.07974 0.70370 0.46900 -0.20200
C 	C 	0.11463 0.72330 0.50120 0.24800
C 	C 	0.05190 0.67060 0.62150 0.40200
C 	C 	0.93292 0.04730 0.49950 0.16500
H 	H 	0.94300 0.07230 0.47880 -0.02100
H 	H 	0.93320 0.10170 0.51840 -0.01800
C 	C 	0.95828 0.96630 0.52430 -0.29100
C 	C 	0.20161 0.69140 0.82730 0.23300
C 	C 	0.14134 0.77280 0.44990 0.04700
C 	C 	0.20357 0.67320 0.54630 -0.02100
C 	C 	0.22706 0.54300 0.59900 0.01800
N 	N 	0.99661 0.88160 0.57430 -0.22900
H 	H 	0.01150 0.86550 0.59890 0.11100
C 	C 	0.15010 0.80540 0.79930 0.07000
C 	C 	0.96667 0.87630 0.50950 0.30000
C 	C 	0.20718 0.63210 0.58620 0.01600
C 	C 	0.24482 0.49820 0.57370 -0.03500
H 	H 	0.25850 0.44040 0.58280 0.05900
C 	C 	0.07356 0.63300 0.66410 -0.23200
C 	C 	0.12920 0.63700 0.72740 -0.09600
C 	C 	0.17271 0.72670 0.79326 -0.08500
C 	C 	0.10680 0.75080 0.41620 -0.04100
C 	C 	0.92140 0.54960 0.45200 0.36100
C 	C 	0.19001 0.67580 0.61310 -0.05700
H 	H 	0.17630 0.73400 0.60500 0.06300
C 	C 	0.17010 0.81740 0.43730 -0.09800
H 	H 	0.19280 0.83400 0.45770 0.08300
C 	C 	0.10813 0.67360 0.68830 0.24400
C 	C 	0.89342 0.01680 0.47740 -0.33100
C 	C 	0.24231 0.53810 0.53590 -0.10000
C 	C 	0.90380 0.52320 0.40680 -0.91800
H 	H 	0.92140 0.53330 0.39270 0.30100
H 	H 	0.89620 0.45480 0.40440 0.30800
H 	H 	0.88240 0.56460 0.39420 0.28800
C 	C 	0.10140 0.76970 0.37380 -0.04400
H 	H 	0.07890 0.75550 0.35260 0.03100
C 	C 	0.07717 0.71480 0.42810 0.01900
H 	H 	0.05490 0.69780 0.40720 0.02100
C 	C 	0.15570 0.84120 0.83980 -0.04400
C 	C 	0.13320 0.91580 0.84740 -0.02400
H 	H 	0.13730 0.93840 0.87450 0.02600
C 	C 	0.90676 0.54720 0.48440 -0.29300
C 	C 	0.95240 0.83930 0.46430 -0.78900
H 	H 	0.96280 0.77500 0.46290 0.23600
H 	H 	0.92570 0.83460 0.45480 0.24400
H 	H 	0.95970 0.88490 0.44680 0.25000
C 	C 	0.23110 0.50160 0.63830 -0.08200
H 	H 	0.24500 0.44390 0.64710 0.05700
C 	C 	0.97810 0.96670 0.56600 0.32400
C 	C 	0.13110 0.81040 0.36490 -0.06600
H 	H 	0.12870 0.82140 0.33700 0.04800
C 	C 	0.12120 0.84800 0.76600 -0.12400
H 	H 	0.11690 0.82650 0.73870 0.08900
C 	C 	0.19370 0.63210 0.65100 -0.04700
H 	H 	0.18190 0.66080 0.66800 0.05400
C 	C 	0.18320 0.79830 0.87390 0.02700
H 	H 	0.18570 0.81940 0.90080 0.03000
C 	C 	0.16470 0.83560 0.39650 -0.00400
H 	H 	0.18350 0.86530 0.38920 0.03600
C 	C 	0.09930 0.92040 0.77320 0.01900
H 	H 	0.08020 0.94730 0.75070 0.01200
C 	C 	0.93480 0.59300 0.56310 -0.88400
H 	H 	0.95850 0.61760 0.58100 0.27300
H 	H 	0.91560 0.63930 0.56290 0.27500
H 	H 	0.92990 0.53000 0.57340 0.29200
C 	C 	0.07940 0.51890 0.72160 -0.06000
C 	C 	0.05950 0.55740 0.68050 0.05100
H 	H 	0.03660 0.52990 0.66480 0.01600
C 	C 	0.21420 0.54720 0.66410 -0.02600
H 	H 	0.21690 0.52010 0.69020 0.03600
C 	C 	0.11510 0.55660 0.74370 0.08000
C 	C 	0.06470 0.43950 0.73860 -0.00600
H 	H 	0.04110 0.41500 0.72390 0.02400
C 	C 	0.98100 0.03960 0.60080 -0.82600
H 	H 	0.99810 0.01450 0.62680 0.25700
H 	H 	0.98990 0.10230 0.59450 0.26200
H 	H 	0.95690 0.04850 0.60320 0.26100
C 	C 	0.10460 0.95540 0.81350 -0.08300
H 	H 	0.08930 0.00470 0.81770 0.04500
C 	C 	0.13450 0.51240 0.78310 -0.13400
H 	H 	0.15800 0.53550 0.79910 0.09200
C 	C 	0.11880 0.43630 0.79760 0.03200
H 	H 	0.13190 0.40870 0.82370 0.01500
C 	C 	0.08470 0.39960 0.77550 -0.09800
H 	H 	0.07520 0.34630 0.78600 0.05500
C 	C 	0.86909 0.97500 0.49550 0.38300
C 	C 	0.87331 0.02730 0.43610 0.37100
N 	N 	0.83849 0.99250 0.42972 -0.23600
H 	H 	0.82090 0.99120 0.40570 0.11500
N 	N 	0.83500 0.95990 0.46607 -0.27000
C 	C 	0.87526 0.94530 0.53860 -0.96300
H 	H 	0.85260 0.91890 0.54060 0.29100
H 	H 	0.89430 0.89540 0.54700 0.30200
H 	H 	0.88290 0.00200 0.55670 0.31100
C 	C 	0.88300 0.07000 0.40040 -0.91100
H 	H 	0.86190 0.06450 0.37490 0.29600
H 	H 	0.88970 0.13870 0.40590 0.31600
H 	H 	0.90370 0.03410 0.39740 0.28900
C 	C 	0.26144 0.48640 0.50900 0.30200
O 	O 	0.28146 0.41090 0.52358 -0.40400
O 	O 	0.25726 0.52070 0.47330 -0.35500
C 	C 	0.86751 0.51900 0.48160 0.14800
H 	H 	0.86890 0.46550 0.50120 -0.00800
H 	H 	0.85410 0.49430 0.45360 -0.00300
C 	C 	0.84646 0.60260 0.49070 -0.29800
C 	C 	0.83318 0.61040 0.52350 0.37200
C 	C 	0.83437 0.68920 0.46670 0.32100
N 	N 	0.81483 0.69920 0.51855 -0.23700
H 	H 	0.80420 0.72130 0.53540 0.15200
N 	N 	0.81531 0.74780 0.48428 -0.25000
C 	C 	0.83652 0.54440 0.56000 -0.95400
H 	H 	0.85010 0.48560 0.55830 0.31800
H 	H 	0.84950 0.57900 0.58560 0.30400
H 	H 	0.81210 0.52620 0.55950 0.33400
C 	C 	0.84120 0.71820 0.42730 -0.83400
H 	H 	0.82960 0.78100 0.41760 0.25500
H 	H 	0.86760 0.72360 0.43300 0.25500
H 	H 	0.83100 0.66860 0.40620 0.27000
Co	Co	0.50961 0.18455 0.54214 1.15200
Co	Co	0.78975 0.11798 0.96733 1.15400
O 	O 	0.76213 0.13110 0.90031 -0.43400
O 	O 	0.71829 0.16430 0.48424 -0.18200
O 	O 	0.61850 0.21410 0.54194 -0.45200
H 	H 	0.59820 0.20120 0.54400 0.27900
O 	O 	0.72392 0.11950 0.82096 -0.44700
H 	H 	0.74050 0.10660 0.84320 0.28300
O 	O 	0.52423 0.12390 0.59889 -0.48000
O 	O 	0.54867 0.17850 0.51738 -0.47800
N 	N 	0.45600 0.08060 0.46868 -0.25000
H 	H 	0.47090 0.08680 0.45480 0.13500
O 	O 	0.51632 0.15470 0.44995 -0.33400
O 	O 	0.56344 0.24170 0.60729 -0.40600
O 	O 	0.73739 0.20180 0.94170 -0.38400
C 	C 	0.70679 0.22580 0.86923 -0.19400
N 	N 	0.46571 0.10170 0.50986 -0.26800
O 	O 	0.62198 0.25270 0.67259 -0.45600
H 	H 	0.60730 0.26720 0.64930 0.27600
C 	C 	0.43528 0.08100 0.51960 0.33800
C 	C 	0.68163 0.26790 0.52820 -0.09700
H 	H 	0.69740 0.31110 0.51870 0.08100
H 	H 	0.67620 0.30210 0.55060 0.07800
C 	C 	0.72082 0.12610 0.52170 0.14100
C 	C 	0.73677 0.18270 0.90486 0.34700
C 	C 	0.66667 0.18350 0.75040 -0.07500
H 	H 	0.67070 0.23600 0.73290 0.07600
H 	H 	0.68570 0.13350 0.75330 0.07700
N 	N 	0.48970 0.32320 0.54049 -0.26600
C 	C 	0.64530 0.25250 0.49210 -0.07500
C 	C 	0.54568 0.17600 0.47860 0.37800
C 	C 	0.57974 0.20370 0.46900 -0.20200
C 	C 	0.61463 0.22330 0.50120 0.24800
C 	C 	0.55190 0.17060 0.62150 0.40200
C 	C 	0.43292 0.54730 0.49950 0.16500
H 	H 	0.44300 0.57230 0.47880 -0.02100
H 	H 	0.43320 0.60170 0.51840 -0.01800
C 	C 	0.45828 0.46630 0.52430 -0.29100
C 	C 	0.70161 0.19140 0.82730 0.23300
C 	C 	0.64134 0.27280 0.44990 0.04700
C 	C 	0.70357 0.17320 0.54630 -0.02100
C 	C 	0.72706 0.04300 0.59900 0.01800
N 	N 	0.49661 0.38160 0.57430 -0.22900
H 	H 	0.51150 0.36550 0.59890 0.11100
C 	C 	0.65010 0.30540 0.79930 0.07100
C 	C 	0.46667 0.37630 0.50950 0.30000
C 	C 	0.70718 0.13210 0.58620 0.01600
C 	C 	0.74482 0.99820 0.57370 -0.03400
H 	H 	0.75850 0.94040 0.58280 0.05900
C 	C 	0.57356 0.13300 0.66410 -0.23300
C 	C 	0.62920 0.13700 0.72740 -0.09600
C 	C 	0.67271 0.22670 0.79326 -0.08500
C 	C 	0.60680 0.25080 0.41620 -0.04100
C 	C 	0.42140 0.04960 0.45200 0.36100
C 	C 	0.69001 0.17580 0.61310 -0.05700
H 	H 	0.67630 0.23400 0.60500 0.06300
C 	C 	0.67010 0.31740 0.43730 -0.09800
H 	H 	0.69280 0.33400 0.45770 0.08300
C 	C 	0.60813 0.17360 0.68830 0.24500
C 	C 	0.39342 0.51680 0.47740 -0.33100
C 	C 	0.74231 0.03810 0.53590 -0.10000
C 	C 	0.40380 0.02320 0.40680 -0.91800
H 	H 	0.42140 0.03330 0.39270 0.30100
H 	H 	0.39620 0.95480 0.40440 0.30800
H 	H 	0.38240 0.06460 0.39420 0.28800
C 	C 	0.60140 0.26970 0.37380 -0.04400
H 	H 	0.57890 0.25550 0.35260 0.03100
C 	C 	0.57717 0.21480 0.42810 0.01900
H 	H 	0.55490 0.19780 0.40720 0.02100
C 	C 	0.65570 0.34120 0.83980 -0.04500
C 	C 	0.63320 0.41580 0.84740 -0.02300
H 	H 	0.63730 0.43840 0.87450 0.02500
C 	C 	0.40676 0.04720 0.48440 -0.29300
C 	C 	0.45240 0.33930 0.46430 -0.78900
H 	H 	0.46280 0.27500 0.46290 0.23600
H 	H 	0.42570 0.33460 0.45480 0.24400
H 	H 	0.45970 0.38490 0.44680 0.25000
C 	C 	0.73110 0.00160 0.63830 -0.08300
H 	H 	0.74500 0.94390 0.64710 0.05700
C 	C 	0.47810 0.46670 0.56600 0.32400
C 	C 	0.63110 0.31040 0.36490 -0.06600
H 	H 	0.62870 0.32140 0.33700 0.04800
C 	C 	0.62120 0.34800 0.76600 -0.12500
H 	H 	0.61690 0.32650 0.73870 0.08900
C 	C 	0.69370 0.13210 0.65100 -0.04700
H 	H 	0.68190 0.16080 0.66800 0.05400
C 	C 	0.68320 0.29830 0.87390 0.02800
H 	H 	0.68570 0.31940 0.90080 0.03000
C 	C 	0.66470 0.33560 0.39650 -0.00400
H 	H 	0.68350 0.36530 0.38920 0.03600
C 	C 	0.59930 0.42040 0.77320 0.02100
H 	H 	0.58020 0.44730 0.75070 0.01200
C 	C 	0.43480 0.09300 0.56310 -0.88400
H 	H 	0.45850 0.11760 0.58100 0.27300
H 	H 	0.41560 0.13930 0.56290 0.27500
H 	H 	0.42990 0.03000 0.57340 0.29200
C 	C 	0.57940 0.01890 0.72160 -0.06100
C 	C 	0.55950 0.05740 0.68050 0.05200
H 	H 	0.53660 0.02990 0.66480 0.01600
C 	C 	0.71420 0.04720 0.66410 -0.02500
H 	H 	0.71690 0.02010 0.69020 0.03600
C 	C 	0.61510 0.05660 0.74370 0.08100
C 	C 	0.56470 0.93950 0.73860 -0.00400
H 	H 	0.54110 0.91500 0.72390 0.02300
C 	C 	0.48100 0.53960 0.60080 -0.82500
H 	H 	0.49810 0.51450 0.62680 0.25700
H 	H 	0.48990 0.60230 0.59450 0.26200
H 	H 	0.45690 0.54850 0.60320 0.26100
C 	C 	0.60460 0.45540 0.81350 -0.08500
H 	H 	0.58930 0.50470 0.81770 0.04600
C 	C 	0.63450 0.01240 0.78310 -0.13600
H 	H 	0.65800 0.03550 0.79910 0.09300
C 	C 	0.61880 0.93630 0.79760 0.03400
H 	H 	0.63190 0.90870 0.82370 0.01500
C 	C 	0.58470 0.89960 0.77550 -0.10000
H 	H 	0.57520 0.84630 0.78600 0.05500
C 	C 	0.36909 0.47500 0.49550 0.38300
C 	C 	0.37331 0.52730 0.43610 0.37100
N 	N 	0.33849 0.49250 0.42972 -0.23600
H 	H 	0.32090 0.49120 0.40570 0.11500
N 	N 	0.33500 0.45990 0.46607 -0.27000
C 	C 	0.37526 0.44530 0.53860 -0.96400
H 	H 	0.35260 0.41890 0.54060 0.29100
H 	H 	0.39430 0.39540 0.54700 0.30200
H 	H 	0.38290 0.50200 0.55670 0.31100
C 	C 	0.38300 0.57000 0.40040 -0.91100
H 	H 	0.36190 0.56450 0.37490 0.29600
H 	H 	0.38970 0.63870 0.40590 0.31600
H 	H 	0.40370 0.53410 0.39740 0.28800
C 	C 	0.76144 0.98640 0.50900 0.30200
O 	O 	0.78146 0.91090 0.52358 -0.40400
O 	O 	0.75726 0.02070 0.47330 -0.35500
C 	C 	0.36751 0.01900 0.48160 0.14900
H 	H 	0.36890 0.96550 0.50120 -0.00900
H 	H 	0.35410 0.99430 0.45360 -0.00300
C 	C 	0.34646 0.10260 0.49070 -0.29800
C 	C 	0.33318 0.11040 0.52350 0.37300
C 	C 	0.33437 0.18920 0.46670 0.32100
N 	N 	0.31483 0.19920 0.51855 -0.23700
H 	H 	0.30420 0.22130 0.53540 0.15200
N 	N 	0.31531 0.24780 0.48428 -0.25000
C 	C 	0.33652 0.04440 0.56000 -0.95400
H 	H 	0.35010 0.98560 0.55830 0.31800
H 	H 	0.34950 0.07900 0.58560 0.30400
H 	H 	0.31210 0.02620 0.55950 0.33400
C 	C 	0.34120 0.21820 0.42730 -0.83400
H 	H 	0.32960 0.28100 0.41760 0.25500
H 	H 	0.36760 0.22360 0.43300 0.25500
H 	H 	0.33100 0.16860 0.40620 0.27000
Co	Co	0.99039 0.31545 0.45786 1.15200
Co	Co	0.71025 0.38202 0.03267 1.15500
O 	O 	0.73787 0.36890 0.09969 -0.43400
O 	O 	0.78171 0.33570 0.51576 -0.18200
O 	O 	0.88150 0.28590 0.45806 -0.45200
H 	H 	0.90180 0.29880 0.45600 0.27900
O 	O 	0.77608 0.38050 0.17904 -0.44600
H 	H 	0.75950 0.39340 0.15680 0.28300
O 	O 	0.97577 0.37610 0.40111 -0.48000
O 	O 	0.95133 0.32150 0.48262 -0.47800
N 	N 	0.04400 0.41940 0.53132 -0.25000
H 	H 	0.02910 0.41320 0.54520 0.13500
O 	O 	0.98368 0.34530 0.55005 -0.33400
O 	O 	0.93656 0.25830 0.39271 -0.40500
O 	O 	0.76261 0.29820 0.05830 -0.38400
C 	C 	0.79321 0.27420 0.13077 -0.19400
N 	N 	0.03429 0.39830 0.49014 -0.26800
O 	O 	0.87802 0.24730 0.32741 -0.45600
H 	H 	0.89270 0.23280 0.35070 0.27600
C 	C 	0.06472 0.41900 0.48040 0.33800
C 	C 	0.81837 0.23210 0.47180 -0.09800
H 	H 	0.80260 0.18890 0.48130 0.08100
H 	H 	0.82380 0.19790 0.44940 0.07800
C 	C 	0.77918 0.37390 0.47830 0.14100
C 	C 	0.76323 0.31730 0.09514 0.34700
C 	C 	0.83333 0.31650 0.24960 -0.07600
H 	H 	0.82930 0.26400 0.26710 0.07600
H 	H 	0.81430 0.36650 0.24670 0.07700
N 	N 	0.01030 0.17680 0.45951 -0.26600
C 	C 	0.85470 0.24750 0.50790 -0.07500
C 	C 	0.95432 0.32400 0.52140 0.37800
C 	C 	0.92026 0.29630 0.53100 -0.20200
C 	C 	0.88537 0.27670 0.49880 0.24800
C 	C 	0.94810 0.32940 0.37850 0.40200
C 	C 	0.06708 0.95270 0.50050 0.16500
H 	H 	0.05700 0.92770 0.52120 -0.02100
H 	H 	0.06680 0.89830 0.48160 -0.01800
C 	C 	0.04172 0.03370 0.47570 -0.29100
C 	C 	0.79839 0.30860 0.17270 0.23300
C 	C 	0.85866 0.22720 0.55010 0.04700
C 	C 	0.79643 0.32680 0.45370 -0.02100
C 	C 	0.77294 0.45700 0.40100 0.01800
N 	N 	0.00339 0.11840 0.42570 -0.22900
H 	H 	0.98850 0.13450 0.40110 0.11100
C 	C 	0.84990 0.19460 0.20070 0.07000
C 	C 	0.03333 0.12370 0.49050 0.30000
C 	C 	0.79282 0.36790 0.41380 0.01600
C 	C 	0.75518 0.50180 0.42630 -0.03500
H 	H 	0.74150 0.55960 0.41720 0.05900
C 	C 	0.92644 0.36700 0.33590 -0.23200
C 	C 	0.87080 0.36300 0.27260 -0.09600
C 	C 	0.82729 0.27330 0.20674 -0.08500
C 	C 	0.89320 0.24920 0.58380 -0.04100
C 	C 	0.07860 0.45040 0.54800 0.36100
C 	C 	0.80999 0.32420 0.38690 -0.05700
H 	H 	0.82370 0.26600 0.39500 0.06300
C 	C 	0.82990 0.18260 0.56270 -0.09800
H 	H 	0.80720 0.16600 0.54230 0.08300
C 	C 	0.89187 0.32640 0.31170 0.24400
C 	C 	0.10658 0.98320 0.52260 -0.33100
C 	C 	0.75769 0.46190 0.46410 -0.10000
C 	C 	0.09620 0.47680 0.59320 -0.91800
H 	H 	0.07860 0.46670 0.60730 0.30100
H 	H 	0.10380 0.54520 0.59560 0.30800
H 	H 	0.11760 0.43540 0.60580 0.28800
C 	C 	0.89860 0.23030 0.62620 -0.04400
H 	H 	0.92110 0.24450 0.64740 0.03100
C 	C 	0.92283 0.28520 0.57190 0.01900
H 	H 	0.94510 0.30220 0.59280 0.02100
C 	C 	0.84430 0.15880 0.16020 -0.04400
C 	C 	0.86680 0.08420 0.15260 -0.02400
H 	H 	0.86270 0.06160 0.12550 0.02600
C 	C 	0.09324 0.45280 0.51560 -0.29300
C 	C 	0.04760 0.16070 0.53570 -0.78900
H 	H 	0.03720 0.22500 0.53710 0.23600
H 	H 	0.07430 0.16540 0.54520 0.24400
H 	H 	0.04030 0.11510 0.55320 0.25000
C 	C 	0.76890 0.49840 0.36170 -0.08200
H 	H 	0.75500 0.55610 0.35290 0.05700
C 	C 	0.02190 0.03330 0.43400 0.32400
C 	C 	0.86890 0.18960 0.63510 -0.06600
H 	H 	0.87130 0.17860 0.66300 0.04800
C 	C 	0.87880 0.15200 0.23400 -0.12400
H 	H 	0.88310 0.17350 0.26130 0.08900
C 	C 	0.80630 0.36790 0.34900 -0.04700
H 	H 	0.81810 0.33920 0.33200 0.05400
C 	C 	0.81680 0.20170 0.12610 0.02700
H 	H 	0.81430 0.18060 0.09920 0.03000
C 	C 	0.83530 0.16440 0.60350 -0.00400
H 	H 	0.81650 0.13470 0.61080 0.03600
C 	C 	0.90070 0.07960 0.22680 0.01900
H 	H 	0.91980 0.05270 0.24930 0.01200
C 	C 	0.06520 0.40700 0.43690 -0.88400
H 	H 	0.04150 0.38240 0.41900 0.27300
H 	H 	0.08440 0.36070 0.43710 0.27500
H 	H 	0.07010 0.47000 0.42660 0.29200
C 	C 	0.92060 0.48110 0.27840 -0.06000
C 	C 	0.94050 0.44260 0.31950 0.05100
H 	H 	0.96340 0.47010 0.33520 0.01600
C 	C 	0.78580 0.45280 0.33590 -0.02600
H 	H 	0.78310 0.47990 0.30980 0.03600
C 	C 	0.88490 0.44340 0.25630 0.08000
C 	C 	0.93530 0.56050 0.26140 -0.00600
H 	H 	0.95890 0.58500 0.27610 0.02400
C 	C 	0.01900 0.96040 0.39920 -0.82600
H 	H 	0.00190 0.98550 0.37320 0.25700
H 	H 	0.01010 0.89770 0.40550 0.26200
H 	H 	0.04310 0.95150 0.39680 0.26100
C 	C 	0.89540 0.04460 0.18650 -0.08300
H 	H 	0.91070 0.99530 0.18230 0.04500
C 	C 	0.86550 0.48760 0.21690 -0.13400
H 	H 	0.84200 0.46450 0.20090 0.09200
C 	C 	0.88120 0.56370 0.20240 0.03200
H 	H 	0.86810 0.59130 0.17630 0.01500
C 	C 	0.91530 0.60040 0.22450 -0.09800
H 	H 	0.92480 0.65370 0.21400 0.05500
C 	C 	0.13091 0.02500 0.50450 0.38300
C 	C 	0.12669 0.97270 0.56390 0.37100
N 	N 	0.16151 0.00750 0.57028 -0.23600
H 	H 	0.17910 0.00880 0.59430 0.11500
N 	N 	0.16500 0.04010 0.53393 -0.27000
C 	C 	0.12474 0.05470 0.46140 -0.96300
H 	H 	0.14740 0.08110 0.45940 0.29100
H 	H 	0.10570 0.10460 0.45300 0.30200
H 	H 	0.11710 0.99800 0.44330 0.31100
C 	C 	0.11700 0.93000 0.59960 -0.91100
H 	H 	0.13810 0.93550 0.62510 0.29600
H 	H 	0.11030 0.86130 0.59410 0.31600
H 	H 	0.09630 0.96590 0.60260 0.28900
C 	C 	0.73856 0.51360 0.49100 0.30200
O 	O 	0.71854 0.58910 0.47642 -0.40400
O 	O 	0.74274 0.47930 0.52670 -0.35500
C 	C 	0.13249 0.48100 0.51840 0.14800
H 	H 	0.13110 0.53450 0.49880 -0.00800
H 	H 	0.14590 0.50570 0.54640 -0.00300
C 	C 	0.15354 0.39740 0.50930 -0.29800
C 	C 	0.16682 0.38960 0.47650 0.37200
C 	C 	0.16563 0.31080 0.53330 0.32100
N 	N 	0.18517 0.30080 0.48145 -0.23700
H 	H 	0.19580 0.27870 0.46460 0.15200
N 	N 	0.18469 0.25220 0.51572 -0.25000
C 	C 	0.16348 0.45560 0.44000 -0.95400
H 	H 	0.14990 0.51440 0.44170 0.31800
H 	H 	0.15050 0.42100 0.41440 0.30400
H 	H 	0.18790 0.47380 0.44050 0.33400
C 	C 	0.15880 0.28180 0.57270 -0.83400
H 	H 	0.17040 0.21900 0.58240 0.25500
H 	H 	0.13240 0.27640 0.56700 0.25500
H 	H 	0.16900 0.33140 0.59380 0.27000
Co	Co	0.49039 0.81545 0.45786 1.15200
Co	Co	0.21025 0.88202 0.03267 1.15400
O 	O 	0.23787 0.86890 0.09969 -0.43400
O 	O 	0.28171 0.83570 0.51576 -0.18200
O 	O 	0.38150 0.78590 0.45806 -0.45200
H 	H 	0.40180 0.79880 0.45600 0.27900
O 	O 	0.27608 0.88050 0.17904 -0.44700
H 	H 	0.25950 0.89340 0.15680 0.28300
O 	O 	0.47577 0.87610 0.40111 -0.48000
O 	O 	0.45133 0.82150 0.48262 -0.47800
N 	N 	0.54400 0.91940 0.53132 -0.25000
H 	H 	0.52910 0.91320 0.54520 0.13500
O 	O 	0.48368 0.84530 0.55005 -0.33400
O 	O 	0.43656 0.75830 0.39271 -0.40600
O 	O 	0.26261 0.79820 0.05830 -0.38400
C 	C 	0.29321 0.77420 0.13077 -0.19400
N 	N 	0.53429 0.89830 0.49014 -0.26800
O 	O 	0.37802 0.74730 0.32741 -0.45600
H 	H 	0.39270 0.73280 0.35070 0.27600
C 	C 	0.56472 0.91900 0.48040 0.33800
C 	C 	0.31837 0.73210 0.47180 -0.09700
H 	H 	0.30260 0.68890 0.48130 0.08100
H 	H 	0.32380 0.69790 0.44940 0.07800
C 	C 	0.27918 0.87390 0.47830 0.14100
C 	C 	0.26323 0.81730 0.09514 0.34700
C 	C 	0.33333 0.81650 0.24960 -0.07500
H 	H 	0.32930 0.76400 0.26710 0.07600
H 	H 	0.31430 0.86650 0.24670 0.07700
N 	N 	0.51030 0.67680 0.45951 -0.26600
C 	C 	0.35470 0.74750 0.50790 -0.07500
C 	C 	0.45432 0.82400 0.52140 0.37800
C 	C 	0.42026 0.79630 0.53100 -0.20200
C 	C 	0.38537 0.77670 0.49880 0.24800
C 	C 	0.44810 0.82940 0.37850 0.40200
C 	C 	0.56708 0.45270 0.50050 0.16500
H 	H 	0.55700 0.42770 0.52120 -0.02100
H 	H 	0.56680 0.39830 0.48160 -0.01800
C 	C 	0.54172 0.53370 0.47570 -0.29100
C 	C 	0.29839 0.80860 0.17270 0.23300
C 	C 	0.35866 0.72720 0.55010 0.04700
C 	C 	0.29643 0.82680 0.45370 -0.02100
C 	C 	0.27294 0.95700 0.40100 0.01800
N 	N 	0.50339 0.61840 0.42570 -0.22900
H 	H 	0.48850 0.63450 0.40110 0.11100
C 	C 	0.34990 0.69460 0.20070 0.07100
C 	C 	0.53333 0.62370 0.49050 0.30000
C 	C 	0.29282 0.86790 0.41380 0.01600
C 	C 	0.25518 0.00180 0.42630 -0.03400
H 	H 	0.24150 0.05960 0.41720 0.05900
C 	C 	0.42644 0.86700 0.33590 -0.23300
C 	C 	0.37080 0.86300 0.27260 -0.09600
C 	C 	0.32729 0.77330 0.20674 -0.08500
C 	C 	0.39320 0.74920 0.58380 -0.04100
C 	C 	0.57860 0.95040 0.54800 0.36100
C 	C 	0.30999 0.82420 0.38690 -0.05700
H 	H 	0.32370 0.76600 0.39500 0.06300
C 	C 	0.32990 0.68260 0.56270 -0.09800
H 	H 	0.30720 0.66600 0.54230 0.08300
C 	C 	0.39187 0.82640 0.31170 0.24500
C 	C 	0.60658 0.48320 0.52260 -0.33100
C 	C 	0.25769 0.96190 0.46410 -0.10000
C 	C 	0.59620 0.97680 0.59320 -0.91800
H 	H 	0.57860 0.96670 0.60730 0.30100
H 	H 	0.60380 0.04520 0.59560 0.30800
H 	H 	0.61760 0.93540 0.60580 0.28800
C 	C 	0.39860 0.73030 0.62620 -0.04400
H 	H 	0.42110 0.74450 0.64740 0.03100
C 	C 	0.42283 0.78520 0.57190 0.01900
H 	H 	0.44510 0.80220 0.59280 0.02100
C 	C 	0.34430 0.65880 0.16020 -0.04500
C 	C 	0.36680 0.58420 0.15260 -0.02300
H 	H 	0.36270 0.56160 0.12550 0.02500
C 	C 	0.59324 0.95280 0.51560 -0.29300
C 	C 	0.54760 0.66070 0.53570 -0.78900
H 	H 	0.53720 0.72500 0.53710 0.23600
H 	H 	0.57430 0.66540 0.54520 0.24400
H 	H 	0.54030 0.61510 0.55320 0.25000
C 	C 	0.26890 0.99840 0.36170 -0.08300
H 	H 	0.25500 0.05610 0.35290 0.05700
C 	C 	0.52190 0.53330 0.43400 0.32400
C 	C 	0.36890 0.68960 0.63510 -0.06600
H 	H 	0.37130 0.67860 0.66300 0.04800
C 	C 	0.37880 0.65200 0.23400 -0.12500
H 	H 	0.38310 0.67350 0.26130 0.08900
C 	C 	0.30630 0.86790 0.34900 -0.04700
H 	H 	0.31810 0.83920 0.33200 0.05400
C 	C 	0.31680 0.70170 0.12610 0.02800
H 	H 	0.31430 0.68060 0.09920 0.03000
C 	C 	0.33530 0.66440 0.60350 -0.00400
H 	H 	0.31650 0.63470 0.61080 0.03600
C 	C 	0.40070 0.57960 0.22680 0.02100
H 	H 	0.41980 0.55270 0.24930 0.01200
C 	C 	0.56520 0.90700 0.43690 -0.88400
H 	H 	0.54150 0.88240 0.41900 0.27300
H 	H 	0.58440 0.86070 0.43710 0.27500
H 	H 	0.57010 0.97000 0.42660 0.29200
C 	C 	0.42060 0.98110 0.27840 -0.06100
C 	C 	0.44050 0.94260 0.31950 0.05200
H 	H 	0.46340 0.97010 0.33520 0.01600
C 	C 	0.28580 0.95280 0.33590 -0.02500
H 	H 	0.28310 0.97990 0.30980 0.03600
C 	C 	0.38490 0.94340 0.25630 0.08100
C 	C 	0.43530 0.06050 0.26140 -0.00400
H 	H 	0.45890 0.08500 0.27610 0.02300
C 	C 	0.51900 0.46040 0.39920 -0.82500
H 	H 	0.50190 0.48550 0.37320 0.25700
H 	H 	0.51010 0.39770 0.40550 0.26200
H 	H 	0.54310 0.45150 0.39680 0.26100
C 	C 	0.39540 0.54460 0.18650 -0.08500
H 	H 	0.41070 0.49530 0.18230 0.04600
C 	C 	0.36550 0.98760 0.21690 -0.13600
H 	H 	0.34200 0.96450 0.20090 0.09300
C 	C 	0.38120 0.06370 0.20240 0.03400
H 	H 	0.36810 0.09130 0.17630 0.01500
C 	C 	0.41530 0.10040 0.22450 -0.10000
H 	H 	0.42480 0.15370 0.21400 0.05500
C 	C 	0.63091 0.52500 0.50450 0.38300
C 	C 	0.62669 0.47270 0.56390 0.37100
N 	N 	0.66151 0.50750 0.57028 -0.23600
H 	H 	0.67910 0.50880 0.59430 0.11500
N 	N 	0.66500 0.54010 0.53393 -0.27000
C 	C 	0.62474 0.55470 0.46140 -0.96400
H 	H 	0.64740 0.58110 0.45940 0.29100
H 	H 	0.60570 0.60460 0.45300 0.30200
H 	H 	0.61710 0.49800 0.44330 0.31100
C 	C 	0.61700 0.43000 0.59960 -0.91100
H 	H 	0.63810 0.43550 0.62510 0.29600
H 	H 	0.61030 0.36130 0.59410 0.31600
H 	H 	0.59630 0.46590 0.60260 0.28800
C 	C 	0.23856 0.01360 0.49100 0.30200
O 	O 	0.21854 0.08910 0.47642 -0.40400
O 	O 	0.24274 0.97930 0.52670 -0.35500
C 	C 	0.63249 0.98100 0.51840 0.14900
H 	H 	0.63110 0.03450 0.49880 -0.00900
H 	H 	0.64590 0.00570 0.54640 -0.00300
C 	C 	0.65354 0.89740 0.50930 -0.29800
C 	C 	0.66682 0.88960 0.47650 0.37300
C 	C 	0.66563 0.81080 0.53330 0.32100
N 	N 	0.68517 0.80080 0.48145 -0.23700
H 	H 	0.69580 0.77870 0.46460 0.15200
N 	N 	0.68469 0.75220 0.51572 -0.25000
C 	C 	0.66348 0.95560 0.44000 -0.95400
H 	H 	0.64990 0.01440 0.44170 0.31800
H 	H 	0.65050 0.92100 0.41440 0.30400
H 	H 	0.68790 0.97380 0.44050 0.33400
C 	C 	0.65880 0.78180 0.57270 -0.83400
H 	H 	0.67040 0.71900 0.58240 0.25500
H 	H 	0.63240 0.77640 0.56700 0.25500
H 	H 	0.66900 0.83140 0.59380 0.27000
Co	Co	0.99039 0.68455 0.95786 1.15200
Co	Co	0.71025 0.61798 0.53267 1.15500
O 	O 	0.73787 0.63110 0.59969 -0.43400
O 	O 	0.78171 0.66430 0.01576 -0.18200
O 	O 	0.88150 0.71410 0.95806 -0.45300
H 	H 	0.90180 0.70120 0.95600 0.27900
O 	O 	0.77608 0.61950 0.67904 -0.44600
H 	H 	0.75950 0.60660 0.65680 0.28300
O 	O 	0.97577 0.62390 0.90111 -0.48000
O 	O 	0.95133 0.67850 0.98262 -0.47800
N 	N 	0.04400 0.58060 0.03132 -0.25000
H 	H 	0.02910 0.58680 0.04520 0.13500
O 	O 	0.98368 0.65470 0.05005 -0.33400
O 	O 	0.93656 0.74170 0.89271 -0.40500
O 	O 	0.76261 0.70180 0.55830 -0.38400
C 	C 	0.79321 0.72580 0.63077 -0.19400
N 	N 	0.03429 0.60170 0.99014 -0.26800
O 	O 	0.87802 0.75270 0.82741 -0.45600
H 	H 	0.89270 0.76720 0.85070 0.27600
C 	C 	0.06472 0.58100 0.98040 0.33900
C 	C 	0.81837 0.76790 0.97180 -0.09700
H 	H 	0.80260 0.81110 0.98130 0.08100
H 	H 	0.82380 0.80210 0.94940 0.07800
C 	C 	0.77918 0.62610 0.97830 0.14100
C 	C 	0.76323 0.68270 0.59514 0.34700
C 	C 	0.83333 0.68350 0.74960 -0.07600
H 	H 	0.82930 0.73600 0.76710 0.07600
H 	H 	0.81430 0.63350 0.74670 0.07700
N 	N 	0.01030 0.82320 0.95951 -0.26600
C 	C 	0.85470 0.75250 0.00790 -0.07500
C 	C 	0.95432 0.67600 0.02140 0.37800
C 	C 	0.92026 0.70370 0.03100 -0.20200
C 	C 	0.88537 0.72330 0.99880 0.24800
C 	C 	0.94810 0.67060 0.87850 0.40200
C 	C 	0.06708 0.04730 0.00050 0.16400
H 	H 	0.05700 0.07230 0.02120 -0.02100
H 	H 	0.06680 0.10170 0.98160 -0.01800
C 	C 	0.04172 0.96630 0.97570 -0.29100
C 	C 	0.79839 0.69140 0.67270 0.23300
C 	C 	0.85866 0.77280 0.05010 0.04700
C 	C 	0.79643 0.67320 0.95370 -0.02100
C 	C 	0.77294 0.54300 0.90100 0.01800
N 	N 	0.00339 0.88160 0.92570 -0.22900
H 	H 	0.98850 0.86550 0.90110 0.11100
C 	C 	0.84990 0.80540 0.70070 0.07000
C 	C 	0.03333 0.87630 0.99050 0.30100
C 	C 	0.79282 0.63210 0.91380 0.01600
C 	C 	0.75518 0.49820 0.92630 -0.03500
H 	H 	0.74150 0.44040 0.91720 0.05900
C 	C 	0.92644 0.63300 0.83590 -0.23200
C 	C 	0.87080 0.63700 0.77260 -0.09600
C 	C 	0.82729 0.72670 0.70674 -0.08500
C 	C 	0.89320 0.75080 0.08380 -0.04100
C 	C 	0.07860 0.54960 0.04800 0.36100
C 	C 	0.80999 0.67580 0.88690 -0.05700
H 	H 	0.82370 0.73400 0.89500 0.06300
C 	C 	0.82990 0.81740 0.06270 -0.09800
H 	H 	0.80720 0.83400 0.04230 0.08300
C 	C 	0.89187 0.67360 0.81170 0.24400
C 	C 	0.10658 0.01680 0.02260 -0.32900
C 	C 	0.75769 0.53810 0.96410 -0.10000
C 	C 	0.09620 0.52320 0.09320 -0.91800
H 	H 	0.07860 0.53330 0.10730 0.30100
H 	H 	0.10380 0.45480 0.09560 0.30800
H 	H 	0.11760 0.56460 0.10580 0.28800
C 	C 	0.89860 0.76970 0.12620 -0.04400
H 	H 	0.92110 0.75550 0.14740 0.03100
C 	C 	0.92283 0.71480 0.07190 0.01900
H 	H 	0.94510 0.69780 0.09280 0.02100
C 	C 	0.84430 0.84120 0.66020 -0.04400
C 	C 	0.86680 0.91580 0.65260 -0.02400
H 	H 	0.86270 0.93840 0.62550 0.02500
C 	C 	0.09324 0.54720 0.01560 -0.29300
C 	C 	0.04760 0.83930 0.03570 -0.79000
H 	H 	0.03720 0.77500 0.03710 0.23600
H 	H 	0.07430 0.83460 0.04520 0.24500
H 	H 	0.04030 0.88490 0.05320 0.25100
C 	C 	0.76890 0.50160 0.86170 -0.08200
H 	H 	0.75500 0.44390 0.85290 0.05700
C 	C 	0.02190 0.96670 0.93400 0.32500
C 	C 	0.86890 0.81040 0.13510 -0.06600
H 	H 	0.87130 0.82140 0.16300 0.04800
C 	C 	0.87880 0.84800 0.73400 -0.12500
H 	H 	0.88310 0.82650 0.76130 0.08900
C 	C 	0.80630 0.63210 0.84900 -0.04700
H 	H 	0.81810 0.66080 0.83200 0.05400
C 	C 	0.81680 0.79830 0.62610 0.02700
H 	H 	0.81430 0.81940 0.59920 0.03000
C 	C 	0.83530 0.83560 0.10350 -0.00400
H 	H 	0.81650 0.86530 0.11080 0.03600
C 	C 	0.90070 0.92040 0.72680 0.02000
H 	H 	0.91980 0.94730 0.74930 0.01200
C 	C 	0.06520 0.59300 0.93690 -0.88500
H 	H 	0.04150 0.61760 0.91900 0.27300
H 	H 	0.08440 0.63930 0.93710 0.27500
H 	H 	0.07010 0.53000 0.92660 0.29200
C 	C 	0.92060 0.51890 0.77840 -0.06000
C 	C 	0.94050 0.55740 0.81950 0.05100
H 	H 	0.96340 0.52990 0.83520 0.01600
C 	C 	0.78580 0.54720 0.83590 -0.02600
H 	H 	0.78310 0.52010 0.80980 0.03600
C 	C 	0.88490 0.55660 0.75630 0.08000
C 	C 	0.93530 0.43950 0.76140 -0.00600
H 	H 	0.95890 0.41500 0.77610 0.02400
C 	C 	0.01900 0.03960 0.89920 -0.82700
H 	H 	0.00190 0.01450 0.87320 0.25700
H 	H 	0.01010 0.10230 0.90550 0.26200
H 	H 	0.04310 0.04850 0.89680 0.26100
C 	C 	0.89540 0.95540 0.68650 -0.08300
H 	H 	0.91070 0.00470 0.68230 0.04600
C 	C 	0.86550 0.51240 0.71690 -0.13400
H 	H 	0.84200 0.53550 0.70090 0.09200
C 	C 	0.88120 0.43630 0.70240 0.03200
H 	H 	0.86810 0.40870 0.67630 0.01500
C 	C 	0.91530 0.39960 0.72450 -0.09800
H 	H 	0.92480 0.34630 0.71400 0.05500
C 	C 	0.13091 0.97500 0.00450 0.38000
C 	C 	0.12669 0.02730 0.06390 0.37100
N 	N 	0.16151 0.99250 0.07028 -0.23600
H 	H 	0.17910 0.99120 0.09430 0.11500
N 	N 	0.16500 0.95990 0.03393 -0.26900
C 	C 	0.12474 0.94530 0.96140 -0.95700
H 	H 	0.14740 0.91890 0.95940 0.29000
H 	H 	0.10570 0.89540 0.95300 0.30000
H 	H 	0.11710 0.00200 0.94330 0.30800
C 	C 	0.11700 0.07000 0.09960 -0.91100
H 	H 	0.13810 0.06450 0.12510 0.29600
H 	H 	0.11030 0.13870 0.09410 0.31600
H 	H 	0.09630 0.03410 0.10260 0.28800
C 	C 	0.73856 0.48640 0.99100 0.30200
O 	O 	0.71854 0.41090 0.97642 -0.40400
O 	O 	0.74274 0.52070 0.02670 -0.35500
C 	C 	0.13249 0.51900 0.01840 0.14800
H 	H 	0.13110 0.46550 0.99880 -0.00800
H 	H 	0.14590 0.49430 0.04640 -0.00300
C 	C 	0.15354 0.60260 0.00930 -0.29900
C 	C 	0.16682 0.61040 0.97650 0.37300
C 	C 	0.16563 0.68920 0.03330 0.32100
N 	N 	0.18517 0.69920 0.98145 -0.23600
H 	H 	0.19580 0.72130 0.96460 0.15200
N 	N 	0.18469 0.74780 0.01572 -0.25100
C 	C 	0.16348 0.54440 0.94000 -0.95400
H 	H 	0.14990 0.48560 0.94170 0.31800
H 	H 	0.15050 0.57900 0.91440 0.30400
H 	H 	0.18790 0.52620 0.94050 0.33400
C 	C 	0.15880 0.71820 0.07270 -0.83400
H 	H 	0.17040 0.78100 0.08240 0.25500
H 	H 	0.13240 0.72360 0.06700 0.25500
H 	H 	0.16900 0.66860 0.09380 0.27000
Co	Co	0.49039 0.18455 0.95786 1.15200
Co	Co	0.21025 0.11798 0.53267 1.15500
O 	O 	0.23787 0.13110 0.59969 -0.43400
O 	O 	0.28171 0.16430 0.01576 -0.18200
O 	O 	0.38150 0.21410 0.95806 -0.45200
H 	H 	0.40180 0.20120 0.95600 0.27900
O 	O 	0.27608 0.11950 0.67904 -0.44700
H 	H 	0.25950 0.10660 0.65680 0.28300
O 	O 	0.47577 0.12390 0.90111 -0.48000
O 	O 	0.45133 0.17850 0.98262 -0.47800
N 	N 	0.54400 0.08060 0.03132 -0.25000
H 	H 	0.52910 0.08680 0.04520 0.13500
O 	O 	0.48368 0.15470 0.05005 -0.33400
O 	O 	0.43656 0.24170 0.89271 -0.40600
O 	O 	0.26261 0.20180 0.55830 -0.38400
C 	C 	0.29321 0.22580 0.63077 -0.19400
N 	N 	0.53429 0.10170 0.99014 -0.26800
O 	O 	0.37802 0.25270 0.82741 -0.45600
H 	H 	0.39270 0.26720 0.85070 0.27600
C 	C 	0.56472 0.08100 0.98040 0.33700
C 	C 	0.31837 0.26790 0.97180 -0.09800
H 	H 	0.30260 0.31110 0.98130 0.08100
H 	H 	0.32380 0.30210 0.94940 0.07800
C 	C 	0.27918 0.12610 0.97830 0.14200
C 	C 	0.26323 0.18270 0.59514 0.34700
C 	C 	0.33333 0.18350 0.74960 -0.07500
H 	H 	0.32930 0.23600 0.76710 0.07600
H 	H 	0.31430 0.13350 0.74670 0.07700
N 	N 	0.51030 0.32320 0.95951 -0.26600
C 	C 	0.35470 0.25250 0.00790 -0.07400
C 	C 	0.45432 0.17600 0.02140 0.37800
C 	C 	0.42026 0.20370 0.03100 -0.20100
C 	C 	0.38537 0.22330 0.99880 0.24700
C 	C 	0.44810 0.17060 0.87850 0.40200
C 	C 	0.56708 0.54730 0.00050 0.16500
H 	H 	0.55700 0.57230 0.02120 -0.02100
H 	H 	0.56680 0.60170 0.98160 -0.01800
C 	C 	0.54172 0.46630 0.97570 -0.29100
C 	C 	0.29839 0.19140 0.67270 0.23300
C 	C 	0.35866 0.27280 0.05010 0.04600
C 	C 	0.29643 0.17320 0.95370 -0.02100
C 	C 	0.27294 0.04300 0.90100 0.01700
N 	N 	0.50339 0.38160 0.92570 -0.22900
H 	H 	0.48850 0.36550 0.90110 0.11100
C 	C 	0.34990 0.30540 0.70070 0.07100
C 	C 	0.53333 0.37630 0.99050 0.30000
C 	C 	0.29282 0.13210 0.91380 0.01700
C 	C 	0.25518 0.99820 0.92630 -0.03300
H 	H 	0.24150 0.94040 0.91720 0.05800
C 	C 	0.42644 0.13300 0.83590 -0.23300
C 	C 	0.37080 0.13700 0.77260 -0.09600
C 	C 	0.32729 0.22670 0.70674 -0.08500
C 	C 	0.39320 0.25080 0.08380 -0.04000
C 	C 	0.57860 0.04960 0.04800 0.36100
C 	C 	0.30999 0.17580 0.88690 -0.05700
H 	H 	0.32370 0.23400 0.89500 0.06300
C 	C 	0.32990 0.31740 0.06270 -0.09700
H 	H 	0.30720 0.33400 0.04230 0.08300
C 	C 	0.39187 0.17360 0.81170 0.24500
C 	C 	0.60658 0.51680 0.02260 -0.33100
C 	C 	0.25769 0.03810 0.96410 -0.10100
C 	C 	0.59620 0.02320 0.09320 -0.91600
H 	H 	0.57860 0.03330 0.10730 0.30000
H 	H 	0.60380 0.95480 0.09560 0.30700
H 	H 	0.61760 0.06460 0.10580 0.28800
C 	C 	0.39860 0.26970 0.12620 -0.04500
H 	H 	0.42110 0.25550 0.14740 0.03100
C 	C 	0.42283 0.21480 0.07190 0.01900
H 	H 	0.44510 0.19780 0.09280 0.02100
C 	C 	0.34430 0.34120 0.66020 -0.04500
C 	C 	0.36680 0.41580 0.65260 -0.02300
H 	H 	0.36270 0.43840 0.62550 0.02500
C 	C 	0.59324 0.04720 0.01560 -0.29200
C 	C 	0.54760 0.33930 0.03570 -0.78900
H 	H 	0.53720 0.27500 0.03710 0.23600
H 	H 	0.57430 0.33460 0.04520 0.24400
H 	H 	0.54030 0.38490 0.05320 0.25000
C 	C 	0.26890 0.00160 0.86170 -0.08300
H 	H 	0.25500 0.94390 0.85290 0.05700
C 	C 	0.52190 0.46670 0.93400 0.32400
C 	C 	0.36890 0.31040 0.13510 -0.06500
H 	H 	0.37130 0.32140 0.16300 0.04800
C 	C 	0.37880 0.34800 0.73400 -0.12500
H 	H 	0.38310 0.32650 0.76130 0.08900
C 	C 	0.30630 0.13210 0.84900 -0.04700
H 	H 	0.31810 0.16080 0.83200 0.05400
C 	C 	0.31680 0.29830 0.62610 0.02800
H 	H 	0.31430 0.31940 0.59920 0.03000
C 	C 	0.33530 0.33560 0.10350 -0.00400
H 	H 	0.31650 0.36530 0.11080 0.03600
C 	C 	0.40070 0.42040 0.72680 0.02100
H 	H 	0.41980 0.44730 0.74930 0.01200
C 	C 	0.56520 0.09300 0.93690 -0.88300
H 	H 	0.54150 0.11760 0.91900 0.27200
H 	H 	0.58440 0.13930 0.93710 0.27500
H 	H 	0.57010 0.03000 0.92660 0.29100
C 	C 	0.42060 0.01890 0.77840 -0.06100
C 	C 	0.44050 0.05740 0.81950 0.05100
H 	H 	0.46340 0.02990 0.83520 0.01600
C 	C 	0.28580 0.04720 0.83590 -0.02600
H 	H 	0.28310 0.02010 0.80980 0.03600
C 	C 	0.38490 0.05660 0.75630 0.08100
C 	C 	0.43530 0.93950 0.76140 -0.00400
H 	H 	0.45890 0.91500 0.77610 0.02300
C 	C 	0.51900 0.53960 0.89920 -0.82500
H 	H 	0.50190 0.51450 0.87320 0.25700
H 	H 	0.51010 0.60230 0.90550 0.26200
H 	H 	0.54310 0.54850 0.89680 0.26100
C 	C 	0.39540 0.45540 0.68650 -0.08500
H 	H 	0.41070 0.50470 0.68230 0.04600
C 	C 	0.36550 0.01240 0.71690 -0.13600
H 	H 	0.34200 0.03550 0.70090 0.09300
C 	C 	0.38120 0.93630 0.70240 0.03400
H 	H 	0.36810 0.90870 0.67630 0.01500
C 	C 	0.41530 0.89960 0.72450 -0.10000
H 	H 	0.42480 0.84630 0.71400 0.05500
C 	C 	0.63091 0.47500 0.00450 0.38300
C 	C 	0.62669 0.52730 0.06390 0.37100
N 	N 	0.66151 0.49250 0.07028 -0.23600
H 	H 	0.67910 0.49120 0.09430 0.11500
N 	N 	0.66500 0.45990 0.03393 -0.27000
C 	C 	0.62474 0.44530 0.96140 -0.96400
H 	H 	0.64740 0.41890 0.95940 0.29100
H 	H 	0.60570 0.39540 0.95300 0.30200
H 	H 	0.61710 0.50200 0.94330 0.31100
C 	C 	0.61700 0.57000 0.09960 -0.91100
H 	H 	0.63810 0.56450 0.12510 0.29600
H 	H 	0.61030 0.63870 0.09410 0.31600
H 	H 	0.59630 0.53410 0.10260 0.28800
C 	C 	0.23856 0.98640 0.99100 0.30300
O 	O 	0.21854 0.91090 0.97642 -0.40400
O 	O 	0.24274 0.02070 0.02670 -0.35600
C 	C 	0.63249 0.01900 0.01840 0.14900
H 	H 	0.63110 0.96550 0.99880 -0.00900
H 	H 	0.64590 0.99430 0.04640 -0.00300
C 	C 	0.65354 0.10260 0.00930 -0.29800
C 	C 	0.66682 0.11040 0.97650 0.37200
C 	C 	0.66563 0.18920 0.03330 0.32100
N 	N 	0.68517 0.19920 0.98145 -0.23700
H 	H 	0.69580 0.22130 0.96460 0.15200
N 	N 	0.68469 0.24780 0.01572 -0.25000
C 	C 	0.66348 0.04440 0.94000 -0.95500
H 	H 	0.64990 0.98560 0.94170 0.31900
H 	H 	0.65050 0.07900 0.91440 0.30400
H 	H 	0.68790 0.02620 0.94050 0.33400
C 	C 	0.65880 0.21820 0.07270 -0.83400
H 	H 	0.67040 0.28100 0.08240 0.25500
H 	H 	0.63240 0.22360 0.06700 0.25500
H 	H 	0.66900 0.16860 0.09380 0.27000
