data_crystal

_cell_length_a 24.94200
_cell_length_b 24.94200
_cell_length_c 24.94200
_cell_angle_alpha 90.00000
_cell_angle_beta  90.00000
_cell_angle_gamma 90.00000

_symmetry_space_group_name_	'P 1'
_symmetry_space_group_name_H-M	'P 1'

loop_
_symmetry_equiv_pos_as_xyz
  x,y,z

loop_
_atom_site_label
_atom_site_type_symbol
_atom_site_fract_x
_atom_site_fract_y
_atom_site_fract_z
_atom_site_charge
O 	O 	0.00958 0.10986 0.09296 -0.55200
O 	O 	0.96895 0.03320 0.07079 -0.52000
O 	O 	0.79179 0.19374 0.23711 -0.43500
O 	O 	0.73898 0.13203 0.19993 -0.26300
O 	O 	0.78047 0.06184 0.13716 -0.11900
C 	C 	0.96908 0.07813 0.09209 0.52800
C 	C 	0.92052 0.09769 0.12063 -0.46100
C 	C 	0.92378 0.14352 0.15205 0.23300
H 	H 	0.95640 0.16310 0.15400 -0.02700
C 	C 	0.87942 0.16036 0.18028 -0.22200
H 	H 	0.88200 0.19090 0.20280 0.12500
C 	C 	0.83141 0.13353 0.17627 0.07700
C 	C 	0.78372 0.15425 0.20609 0.27900
C 	C 	0.82816 0.08835 0.14449 -0.20100
C 	C 	0.87229 0.07005 0.11694 0.70400
H 	H 	0.86980 0.03870 0.09550 -1.03400
C 	C 	0.10875 0.12173 0.18271 -0.04900
H 	H 	0.11640 0.08530 0.19640 0.03900
H 	H 	0.06970 0.12810 0.18540 0.03000
C 	C 	0.13910 0.16360 0.21661 -0.07300
H 	H 	0.11470 0.19330 0.22650 0.05200
H 	H 	0.15250 0.14680 0.25000 0.04800
O 	O 	0.86850 0.02140 0.09200 0.88800
O 	O 	0.49042 0.89014 0.59296 -0.51400
O 	O 	0.53105 0.96680 0.57079 -0.49200
O 	O 	0.70821 0.80626 0.73711 -0.43300
O 	O 	0.76102 0.86797 0.69993 -0.25500
O 	O 	0.71953 0.93816 0.63716 -0.10200
C 	C 	0.53092 0.92187 0.59209 0.48700
C 	C 	0.57948 0.90231 0.62063 -0.42800
C 	C 	0.57622 0.85648 0.65205 0.21500
H 	H 	0.54360 0.83690 0.65400 -0.02600
C 	C 	0.62058 0.83964 0.68028 -0.20500
H 	H 	0.61800 0.80910 0.70280 0.11900
C 	C 	0.66859 0.86647 0.67627 0.06900
C 	C 	0.71628 0.84575 0.70609 0.28300
C 	C 	0.67184 0.91165 0.64449 -0.17900
C 	C 	0.62771 0.92995 0.61694 0.67000
H 	H 	0.63020 0.96130 0.59550 -0.97900
C 	C 	0.39125 0.87827 0.68271 -0.05600
H 	H 	0.38360 0.91470 0.69640 0.05100
H 	H 	0.43030 0.87190 0.68540 0.04000
C 	C 	0.36090 0.83640 0.71661 -0.07200
H 	H 	0.38530 0.80670 0.72650 0.05600
H 	H 	0.34750 0.85320 0.75000 0.05300
O 	O 	0.63150 0.97860 0.59200 0.85900
O 	O 	0.99042 0.60986 0.40704 -0.48700
O 	O 	0.03105 0.53320 0.42921 -0.50600
O 	O 	0.20821 0.69374 0.26289 -0.43600
O 	O 	0.26102 0.63203 0.30007 -0.25900
O 	O 	0.21953 0.56184 0.36284 -0.11000
C 	C 	0.03092 0.57813 0.40791 0.45800
C 	C 	0.07948 0.59769 0.37937 -0.43400
C 	C 	0.07622 0.64352 0.34795 0.21400
H 	H 	0.04360 0.66310 0.34600 -0.03500
C 	C 	0.12058 0.66036 0.31972 -0.21000
H 	H 	0.11800 0.69090 0.29720 0.11700
C 	C 	0.16859 0.63353 0.32373 0.06900
C 	C 	0.21628 0.65425 0.29391 0.28200
C 	C 	0.17184 0.58835 0.35551 -0.18900
C 	C 	0.12771 0.57005 0.38306 0.68300
H 	H 	0.13020 0.53870 0.40450 -1.01100
C 	C 	0.89125 0.62173 0.31729 -0.05600
H 	H 	0.88360 0.58530 0.30360 0.04800
H 	H 	0.93030 0.62810 0.31460 0.04200
C 	C 	0.86090 0.66360 0.28339 -0.07200
H 	H 	0.88530 0.69330 0.27350 0.05700
H 	H 	0.84750 0.64680 0.25000 0.05100
O 	O 	0.13150 0.52140 0.40800 0.88100
O 	O 	0.50958 0.39014 0.90704 -0.51200
O 	O 	0.46895 0.46680 0.92921 -0.49700
O 	O 	0.29179 0.30626 0.76289 -0.43400
O 	O 	0.23898 0.36797 0.80007 -0.25800
O 	O 	0.28047 0.43816 0.86284 -0.10700
C 	C 	0.46908 0.42187 0.90791 0.49100
C 	C 	0.42052 0.40231 0.87937 -0.43300
C 	C 	0.42378 0.35648 0.84795 0.21900
H 	H 	0.45640 0.33690 0.84600 -0.02700
C 	C 	0.37942 0.33964 0.81972 -0.20800
H 	H 	0.38200 0.30910 0.79720 0.12000
C 	C 	0.33141 0.36647 0.82373 0.07000
C 	C 	0.28372 0.34575 0.79391 0.28300
C 	C 	0.32816 0.41165 0.85551 -0.18500
C 	C 	0.37229 0.42995 0.88306 0.68000
H 	H 	0.36980 0.46130 0.90450 -0.99600
C 	C 	0.60875 0.37827 0.81729 -0.05400
H 	H 	0.61640 0.41470 0.80360 0.04600
H 	H 	0.56970 0.37190 0.81460 0.03700
C 	C 	0.63910 0.33640 0.78339 -0.07200
H 	H 	0.61470 0.30670 0.77350 0.05500
H 	H 	0.65250 0.35320 0.75000 0.05100
O 	O 	0.36850 0.47860 0.90800 0.87000
O 	O 	0.09296 0.00958 0.10986 -0.55100
O 	O 	0.07079 0.96895 0.03320 -0.51900
O 	O 	0.23711 0.79179 0.19374 -0.43400
O 	O 	0.19993 0.73898 0.13203 -0.26200
O 	O 	0.13716 0.78047 0.06184 -0.11800
C 	C 	0.09209 0.96908 0.07813 0.52900
C 	C 	0.12063 0.92052 0.09769 -0.46000
C 	C 	0.15205 0.92378 0.14352 0.23400
H 	H 	0.15400 0.95640 0.16310 -0.02600
C 	C 	0.18028 0.87942 0.16036 -0.22100
H 	H 	0.20280 0.88200 0.19090 0.12500
C 	C 	0.17627 0.83141 0.13353 0.07700
C 	C 	0.20609 0.78372 0.15425 0.27900
C 	C 	0.14449 0.82816 0.08835 -0.20100
C 	C 	0.11694 0.87229 0.07005 0.70400
H 	H 	0.09550 0.86980 0.03870 -1.03400
C 	C 	0.18271 0.10875 0.12173 -0.04900
H 	H 	0.19640 0.11640 0.08530 0.03900
H 	H 	0.18540 0.06970 0.12810 0.03000
C 	C 	0.21661 0.13910 0.16360 -0.07300
H 	H 	0.22650 0.11470 0.19330 0.05200
H 	H 	0.25000 0.15250 0.14680 0.04800
O 	O 	0.09200 0.86850 0.02140 0.88800
O 	O 	0.59296 0.49042 0.89014 -0.51400
O 	O 	0.57079 0.53105 0.96680 -0.49200
O 	O 	0.73711 0.70821 0.80626 -0.43300
O 	O 	0.69993 0.76102 0.86797 -0.25500
O 	O 	0.63716 0.71953 0.93816 -0.10200
C 	C 	0.59209 0.53092 0.92187 0.48700
C 	C 	0.62063 0.57948 0.90231 -0.42800
C 	C 	0.65205 0.57622 0.85648 0.21500
H 	H 	0.65400 0.54360 0.83690 -0.02600
C 	C 	0.68028 0.62058 0.83964 -0.20500
H 	H 	0.70280 0.61800 0.80910 0.11900
C 	C 	0.67627 0.66859 0.86647 0.06900
C 	C 	0.70609 0.71628 0.84575 0.28300
C 	C 	0.64449 0.67184 0.91165 -0.17900
C 	C 	0.61694 0.62771 0.92995 0.67000
H 	H 	0.59550 0.63020 0.96130 -0.97900
C 	C 	0.68271 0.39125 0.87827 -0.05600
H 	H 	0.69640 0.38360 0.91470 0.05100
H 	H 	0.68540 0.43030 0.87190 0.04000
C 	C 	0.71661 0.36090 0.83640 -0.07200
H 	H 	0.72650 0.38530 0.80670 0.05600
H 	H 	0.75000 0.34750 0.85320 0.05300
O 	O 	0.59200 0.63150 0.97860 0.85900
O 	O 	0.40704 0.99042 0.60986 -0.48700
O 	O 	0.42921 0.03105 0.53320 -0.50600
O 	O 	0.26289 0.20821 0.69374 -0.43600
O 	O 	0.30007 0.26102 0.63203 -0.25900
O 	O 	0.36284 0.21953 0.56184 -0.11000
C 	C 	0.40791 0.03092 0.57813 0.45800
C 	C 	0.37937 0.07948 0.59769 -0.43400
C 	C 	0.34795 0.07622 0.64352 0.21400
H 	H 	0.34600 0.04360 0.66310 -0.03500
C 	C 	0.31972 0.12058 0.66036 -0.21000
H 	H 	0.29720 0.11800 0.69090 0.11700
C 	C 	0.32373 0.16859 0.63353 0.06900
C 	C 	0.29391 0.21628 0.65425 0.28200
C 	C 	0.35551 0.17184 0.58835 -0.18900
C 	C 	0.38306 0.12771 0.57005 0.68300
H 	H 	0.40450 0.13020 0.53870 -1.01100
C 	C 	0.31729 0.89125 0.62173 -0.05600
H 	H 	0.30360 0.88360 0.58530 0.04800
H 	H 	0.31460 0.93030 0.62810 0.04200
C 	C 	0.28339 0.86090 0.66360 -0.07200
H 	H 	0.27350 0.88530 0.69330 0.05700
H 	H 	0.25000 0.84750 0.64680 0.05100
O 	O 	0.40800 0.13150 0.52140 0.88100
O 	O 	0.90704 0.50958 0.39014 -0.51200
O 	O 	0.92921 0.46895 0.46680 -0.49700
O 	O 	0.76289 0.29179 0.30626 -0.43400
O 	O 	0.80007 0.23898 0.36797 -0.25800
O 	O 	0.86284 0.28047 0.43816 -0.10700
C 	C 	0.90791 0.46908 0.42187 0.49100
C 	C 	0.87937 0.42052 0.40231 -0.43300
C 	C 	0.84795 0.42378 0.35648 0.21900
H 	H 	0.84600 0.45640 0.33690 -0.02700
C 	C 	0.81972 0.37942 0.33964 -0.20800
H 	H 	0.79720 0.38200 0.30910 0.12000
C 	C 	0.82373 0.33141 0.36647 0.07000
C 	C 	0.79391 0.28372 0.34575 0.28300
C 	C 	0.85551 0.32816 0.41165 -0.18500
C 	C 	0.88306 0.37229 0.42995 0.68000
H 	H 	0.90450 0.36980 0.46130 -0.99600
C 	C 	0.81729 0.60875 0.37827 -0.05400
H 	H 	0.80360 0.61640 0.41470 0.04600
H 	H 	0.81460 0.56970 0.37190 0.03700
C 	C 	0.78339 0.63910 0.33640 -0.07200
H 	H 	0.77350 0.61470 0.30670 0.05500
H 	H 	0.75000 0.65250 0.35320 0.05100
O 	O 	0.90800 0.36850 0.47860 0.87000
O 	O 	0.10986 0.09296 0.00958 -0.55100
O 	O 	0.03320 0.07079 0.96895 -0.51900
O 	O 	0.19374 0.23711 0.79179 -0.43400
O 	O 	0.13203 0.19993 0.73898 -0.26200
O 	O 	0.06184 0.13716 0.78047 -0.11800
C 	C 	0.07813 0.09209 0.96908 0.52900
C 	C 	0.09769 0.12063 0.92052 -0.46000
C 	C 	0.14352 0.15205 0.92378 0.23400
H 	H 	0.16310 0.15400 0.95640 -0.02600
C 	C 	0.16036 0.18028 0.87942 -0.22100
H 	H 	0.19090 0.20280 0.88200 0.12500
C 	C 	0.13353 0.17627 0.83141 0.07700
C 	C 	0.15425 0.20609 0.78372 0.27900
C 	C 	0.08835 0.14449 0.82816 -0.20100
C 	C 	0.07005 0.11694 0.87229 0.70400
H 	H 	0.03870 0.09550 0.86980 -1.03400
C 	C 	0.12173 0.18271 0.10875 -0.04900
H 	H 	0.08530 0.19640 0.11640 0.03900
H 	H 	0.12810 0.18540 0.06970 0.03000
C 	C 	0.16360 0.21661 0.13910 -0.07300
H 	H 	0.19330 0.22650 0.11470 0.05200
H 	H 	0.14680 0.25000 0.15250 0.04800
O 	O 	0.02140 0.09200 0.86850 0.88800
O 	O 	0.89014 0.59296 0.49042 -0.51400
O 	O 	0.96680 0.57079 0.53105 -0.49200
O 	O 	0.80626 0.73711 0.70821 -0.43300
O 	O 	0.86797 0.69993 0.76102 -0.25500
O 	O 	0.93816 0.63716 0.71953 -0.10200
C 	C 	0.92187 0.59209 0.53092 0.48700
C 	C 	0.90231 0.62063 0.57948 -0.42800
C 	C 	0.85648 0.65205 0.57622 0.21500
H 	H 	0.83690 0.65400 0.54360 -0.02600
C 	C 	0.83964 0.68028 0.62058 -0.20500
H 	H 	0.80910 0.70280 0.61800 0.11900
C 	C 	0.86647 0.67627 0.66859 0.06900
C 	C 	0.84575 0.70609 0.71628 0.28300
C 	C 	0.91165 0.64449 0.67184 -0.17900
C 	C 	0.92995 0.61694 0.62771 0.67000
H 	H 	0.96130 0.59550 0.63020 -0.97900
C 	C 	0.87827 0.68271 0.39125 -0.05600
H 	H 	0.91470 0.69640 0.38360 0.05100
H 	H 	0.87190 0.68540 0.43030 0.04000
C 	C 	0.83640 0.71661 0.36090 -0.07200
H 	H 	0.80670 0.72650 0.38530 0.05600
H 	H 	0.85320 0.75000 0.34750 0.05300
O 	O 	0.97860 0.59200 0.63150 0.85900
O 	O 	0.60986 0.40704 0.99042 -0.48700
O 	O 	0.53320 0.42921 0.03105 -0.50600
O 	O 	0.69374 0.26289 0.20821 -0.43600
O 	O 	0.63203 0.30007 0.26102 -0.25900
O 	O 	0.56184 0.36284 0.21953 -0.11000
C 	C 	0.57813 0.40791 0.03092 0.45800
C 	C 	0.59769 0.37937 0.07948 -0.43400
C 	C 	0.64352 0.34795 0.07622 0.21400
H 	H 	0.66310 0.34600 0.04360 -0.03500
C 	C 	0.66036 0.31972 0.12058 -0.21000
H 	H 	0.69090 0.29720 0.11800 0.11700
C 	C 	0.63353 0.32373 0.16859 0.06900
C 	C 	0.65425 0.29391 0.21628 0.28200
C 	C 	0.58835 0.35551 0.17184 -0.18900
C 	C 	0.57005 0.38306 0.12771 0.68300
H 	H 	0.53870 0.40450 0.13020 -1.01100
C 	C 	0.62173 0.31729 0.89125 -0.05600
H 	H 	0.58530 0.30360 0.88360 0.04800
H 	H 	0.62810 0.31460 0.93030 0.04200
C 	C 	0.66360 0.28339 0.86090 -0.07200
H 	H 	0.69330 0.27350 0.88530 0.05700
H 	H 	0.64680 0.25000 0.84750 0.05100
O 	O 	0.52140 0.40800 0.13150 0.88100
O 	O 	0.39014 0.90704 0.50958 -0.51200
O 	O 	0.46680 0.92921 0.46895 -0.49700
O 	O 	0.30626 0.76289 0.29179 -0.43400
O 	O 	0.36797 0.80007 0.23898 -0.25800
O 	O 	0.43816 0.86284 0.28047 -0.10700
C 	C 	0.42187 0.90791 0.46908 0.49100
C 	C 	0.40231 0.87937 0.42052 -0.43300
C 	C 	0.35648 0.84795 0.42378 0.21900
H 	H 	0.33690 0.84600 0.45640 -0.02700
C 	C 	0.33964 0.81972 0.37942 -0.20800
H 	H 	0.30910 0.79720 0.38200 0.12000
C 	C 	0.36647 0.82373 0.33141 0.07000
C 	C 	0.34575 0.79391 0.28372 0.28300
C 	C 	0.41165 0.85551 0.32816 -0.18500
C 	C 	0.42995 0.88306 0.37229 0.68000
H 	H 	0.46130 0.90450 0.36980 -0.99600
C 	C 	0.37827 0.81729 0.60875 -0.05400
H 	H 	0.41470 0.80360 0.61640 0.04600
H 	H 	0.37190 0.81460 0.56970 0.03700
C 	C 	0.33640 0.78339 0.63910 -0.07200
H 	H 	0.30670 0.77350 0.61470 0.05500
H 	H 	0.35320 0.75000 0.65250 0.05100
O 	O 	0.47860 0.90800 0.36850 0.87000
O 	O 	0.99042 0.89014 0.90704 -0.48100
O 	O 	0.03105 0.96680 0.92921 -0.48400
O 	O 	0.20821 0.80626 0.76289 -0.43500
O 	O 	0.26102 0.86797 0.80007 -0.25500
O 	O 	0.21953 0.93816 0.86284 -0.10100
C 	C 	0.03092 0.92187 0.90791 0.45400
C 	C 	0.07948 0.90231 0.87937 -0.41700
C 	C 	0.07622 0.85648 0.84795 0.20600
H 	H 	0.04360 0.83690 0.84600 -0.03100
C 	C 	0.12058 0.83964 0.81972 -0.20100
H 	H 	0.11800 0.80910 0.79720 0.11500
C 	C 	0.16859 0.86647 0.82373 0.06600
C 	C 	0.21628 0.84575 0.79391 0.28400
C 	C 	0.17184 0.91165 0.85551 -0.17600
C 	C 	0.12771 0.92995 0.88306 0.66400
H 	H 	0.13020 0.96130 0.90450 -0.97600
C 	C 	0.89125 0.87827 0.81729 -0.05800
H 	H 	0.88360 0.91470 0.80360 0.05300
H 	H 	0.93030 0.87190 0.81460 0.04500
C 	C 	0.86090 0.83640 0.78339 -0.07100
H 	H 	0.88530 0.80670 0.77350 0.05800
H 	H 	0.84750 0.85320 0.75000 0.05400
O 	O 	0.13150 0.97860 0.90800 0.86100
O 	O 	0.50958 0.10986 0.40704 -0.51900
O 	O 	0.46895 0.03320 0.42921 -0.51600
O 	O 	0.29179 0.19374 0.26289 -0.43600
O 	O 	0.23898 0.13203 0.30007 -0.26200
O 	O 	0.28047 0.06184 0.36284 -0.11700
C 	C 	0.46908 0.07813 0.40791 0.49600
C 	C 	0.42052 0.09769 0.37937 -0.45000
C 	C 	0.42378 0.14352 0.34795 0.22600
H 	H 	0.45640 0.16310 0.34600 -0.03200
C 	C 	0.37942 0.16036 0.31972 -0.21700
H 	H 	0.38200 0.19090 0.29720 0.12100
C 	C 	0.33141 0.13353 0.32373 0.07400
C 	C 	0.28372 0.15425 0.29391 0.28000
C 	C 	0.32816 0.08835 0.35551 -0.19800
C 	C 	0.37229 0.07005 0.38306 0.69900
H 	H 	0.36980 0.03870 0.40450 -1.03100
C 	C 	0.60875 0.12173 0.31729 -0.05200
H 	H 	0.61640 0.08530 0.30360 0.04100
H 	H 	0.56970 0.12810 0.31460 0.03500
C 	C 	0.63910 0.16360 0.28339 -0.07300
H 	H 	0.61470 0.19330 0.27350 0.05300
H 	H 	0.65250 0.14680 0.25000 0.04800
O 	O 	0.36850 0.02140 0.40800 0.89000
O 	O 	0.00958 0.39014 0.59296 -0.54500
O 	O 	0.96895 0.46680 0.57079 -0.50200
O 	O 	0.79179 0.30626 0.73711 -0.43300
O 	O 	0.73898 0.36797 0.69993 -0.25800
O 	O 	0.78047 0.43816 0.63716 -0.10900
C 	C 	0.96908 0.42187 0.59209 0.52500
C 	C 	0.92052 0.40231 0.62063 -0.44400
C 	C 	0.92378 0.35648 0.65205 0.22700
H 	H 	0.95640 0.33690 0.65400 -0.02200
C 	C 	0.87942 0.33964 0.68028 -0.21200
H 	H 	0.88200 0.30910 0.70280 0.12400
C 	C 	0.83141 0.36647 0.67627 0.07400
C 	C 	0.78372 0.34575 0.70609 0.28100
C 	C 	0.82816 0.41165 0.64449 -0.18800
C 	C 	0.87229 0.42995 0.61694 0.68600
H 	H 	0.86980 0.46130 0.59550 -0.99900
C 	C 	0.10875 0.37827 0.68271 -0.05100
H 	H 	0.11640 0.41470 0.69640 0.04400
H 	H 	0.06970 0.37190 0.68540 0.03200
C 	C 	0.13910 0.33640 0.71661 -0.07300
H 	H 	0.11470 0.30670 0.72650 0.05300
H 	H 	0.15250 0.35320 0.75000 0.05000
O 	O 	0.86850 0.47860 0.59200 0.86800
O 	O 	0.49042 0.60986 0.09296 -0.52100
O 	O 	0.53105 0.53320 0.07079 -0.51100
O 	O 	0.70821 0.69374 0.23711 -0.43400
O 	O 	0.76102 0.63203 0.19993 -0.25900
O 	O 	0.71953 0.56184 0.13716 -0.11200
C 	C 	0.53092 0.57813 0.09209 0.49200
C 	C 	0.57948 0.59769 0.12063 -0.44400
C 	C 	0.57622 0.64352 0.15205 0.22300
H 	H 	0.54360 0.66310 0.15400 -0.03000
C 	C 	0.62058 0.66036 0.18028 -0.21400
H 	H 	0.61800 0.69090 0.20280 0.12100
C 	C 	0.66859 0.63353 0.17627 0.07300
C 	C 	0.71628 0.65425 0.20609 0.28000
C 	C 	0.67184 0.58835 0.14449 -0.19200
C 	C 	0.62771 0.57005 0.11694 0.68900
H 	H 	0.63020 0.53870 0.09550 -1.01500
C 	C 	0.39125 0.62173 0.18271 -0.05300
H 	H 	0.38360 0.58530 0.19640 0.04600
H 	H 	0.43030 0.62810 0.18540 0.03700
C 	C 	0.36090 0.66360 0.21661 -0.07200
H 	H 	0.38530 0.69330 0.22650 0.05500
H 	H 	0.34750 0.64680 0.25000 0.05100
O 	O 	0.63150 0.52140 0.09200 0.87900
O 	O 	0.90704 0.99042 0.89014 -0.48100
O 	O 	0.92921 0.03105 0.96680 -0.48400
O 	O 	0.76289 0.20821 0.80626 -0.43500
O 	O 	0.80007 0.26102 0.86797 -0.25500
O 	O 	0.86284 0.21953 0.93816 -0.10100
C 	C 	0.90791 0.03092 0.92187 0.45400
C 	C 	0.87937 0.07948 0.90231 -0.41700
C 	C 	0.84795 0.07622 0.85648 0.20600
H 	H 	0.84600 0.04360 0.83690 -0.03100
C 	C 	0.81972 0.12058 0.83964 -0.20100
H 	H 	0.79720 0.11800 0.80910 0.11500
C 	C 	0.82373 0.16859 0.86647 0.06600
C 	C 	0.79391 0.21628 0.84575 0.28400
C 	C 	0.85551 0.17184 0.91165 -0.17600
C 	C 	0.88306 0.12771 0.92995 0.66400
H 	H 	0.90450 0.13020 0.96130 -0.97600
C 	C 	0.81729 0.89125 0.87827 -0.05800
H 	H 	0.80360 0.88360 0.91470 0.05300
H 	H 	0.81460 0.93030 0.87190 0.04500
C 	C 	0.78339 0.86090 0.83640 -0.07100
H 	H 	0.77350 0.88530 0.80670 0.05800
H 	H 	0.75000 0.84750 0.85320 0.05400
O 	O 	0.90800 0.13150 0.97860 0.86100
O 	O 	0.40704 0.50958 0.10986 -0.51900
O 	O 	0.42921 0.46895 0.03320 -0.51600
O 	O 	0.26289 0.29179 0.19374 -0.43600
O 	O 	0.30007 0.23898 0.13203 -0.26200
O 	O 	0.36284 0.28047 0.06184 -0.11700
C 	C 	0.40791 0.46908 0.07813 0.49600
C 	C 	0.37937 0.42052 0.09769 -0.45000
C 	C 	0.34795 0.42378 0.14352 0.22600
H 	H 	0.34600 0.45640 0.16310 -0.03200
C 	C 	0.31972 0.37942 0.16036 -0.21700
H 	H 	0.29720 0.38200 0.19090 0.12100
C 	C 	0.32373 0.33141 0.13353 0.07400
C 	C 	0.29391 0.28372 0.15425 0.28000
C 	C 	0.35551 0.32816 0.08835 -0.19800
C 	C 	0.38306 0.37229 0.07005 0.69900
H 	H 	0.40450 0.36980 0.03870 -1.03100
C 	C 	0.31729 0.60875 0.12173 -0.05200
H 	H 	0.30360 0.61640 0.08530 0.04100
H 	H 	0.31460 0.56970 0.12810 0.03500
C 	C 	0.28339 0.63910 0.16360 -0.07300
H 	H 	0.27350 0.61470 0.19330 0.05300
H 	H 	0.25000 0.65250 0.14680 0.04800
O 	O 	0.40800 0.36850 0.02140 0.89000
O 	O 	0.59296 0.00958 0.39014 -0.54500
O 	O 	0.57079 0.96895 0.46680 -0.50200
O 	O 	0.73711 0.79179 0.30626 -0.43300
O 	O 	0.69993 0.73898 0.36797 -0.25800
O 	O 	0.63716 0.78047 0.43816 -0.10900
C 	C 	0.59209 0.96908 0.42187 0.52500
C 	C 	0.62063 0.92052 0.40231 -0.44400
C 	C 	0.65205 0.92378 0.35648 0.22700
H 	H 	0.65400 0.95640 0.33690 -0.02200
C 	C 	0.68028 0.87942 0.33964 -0.21200
H 	H 	0.70280 0.88200 0.30910 0.12400
C 	C 	0.67627 0.83141 0.36647 0.07400
C 	C 	0.70609 0.78372 0.34575 0.28100
C 	C 	0.64449 0.82816 0.41165 -0.18800
C 	C 	0.61694 0.87229 0.42995 0.68600
H 	H 	0.59550 0.86980 0.46130 -0.99900
C 	C 	0.68271 0.10875 0.37827 -0.05100
H 	H 	0.69640 0.11640 0.41470 0.04400
H 	H 	0.68540 0.06970 0.37190 0.03200
C 	C 	0.71661 0.13910 0.33640 -0.07300
H 	H 	0.72650 0.11470 0.30670 0.05300
H 	H 	0.75000 0.15250 0.35320 0.05000
O 	O 	0.59200 0.86850 0.47860 0.86800
O 	O 	0.09296 0.49042 0.60986 -0.52100
O 	O 	0.07079 0.53105 0.53320 -0.51100
O 	O 	0.23711 0.70821 0.69374 -0.43400
O 	O 	0.19993 0.76102 0.63203 -0.25900
O 	O 	0.13716 0.71953 0.56184 -0.11200
C 	C 	0.09209 0.53092 0.57813 0.49200
C 	C 	0.12063 0.57948 0.59769 -0.44400
C 	C 	0.15205 0.57622 0.64352 0.22300
H 	H 	0.15400 0.54360 0.66310 -0.03000
C 	C 	0.18028 0.62058 0.66036 -0.21400
H 	H 	0.20280 0.61800 0.69090 0.12100
C 	C 	0.17627 0.66859 0.63353 0.07300
C 	C 	0.20609 0.71628 0.65425 0.28000
C 	C 	0.14449 0.67184 0.58835 -0.19200
C 	C 	0.11694 0.62771 0.57005 0.68900
H 	H 	0.09550 0.63020 0.53870 -1.01500
C 	C 	0.18271 0.39125 0.62173 -0.05300
H 	H 	0.19640 0.38360 0.58530 0.04600
H 	H 	0.18540 0.43030 0.62810 0.03700
C 	C 	0.21661 0.36090 0.66360 -0.07200
H 	H 	0.22650 0.38530 0.69330 0.05500
H 	H 	0.25000 0.34750 0.64680 0.05100
O 	O 	0.09200 0.63150 0.52140 0.87900
O 	O 	0.89014 0.90704 0.99042 -0.48100
O 	O 	0.96680 0.92921 0.03105 -0.48400
O 	O 	0.80626 0.76289 0.20821 -0.43500
O 	O 	0.86797 0.80007 0.26102 -0.25500
O 	O 	0.93816 0.86284 0.21953 -0.10100
C 	C 	0.92187 0.90791 0.03092 0.45400
C 	C 	0.90231 0.87937 0.07948 -0.41700
C 	C 	0.85648 0.84795 0.07622 0.20600
H 	H 	0.83690 0.84600 0.04360 -0.03100
C 	C 	0.83964 0.81972 0.12058 -0.20100
H 	H 	0.80910 0.79720 0.11800 0.11500
C 	C 	0.86647 0.82373 0.16859 0.06600
C 	C 	0.84575 0.79391 0.21628 0.28400
C 	C 	0.91165 0.85551 0.17184 -0.17600
C 	C 	0.92995 0.88306 0.12771 0.66400
H 	H 	0.96130 0.90450 0.13020 -0.97600
C 	C 	0.87827 0.81729 0.89125 -0.05800
H 	H 	0.91470 0.80360 0.88360 0.05300
H 	H 	0.87190 0.81460 0.93030 0.04500
C 	C 	0.83640 0.78339 0.86090 -0.07100
H 	H 	0.80670 0.77350 0.88530 0.05800
H 	H 	0.85320 0.75000 0.84750 0.05400
O 	O 	0.97860 0.90800 0.13150 0.86100
O 	O 	0.10986 0.40704 0.50958 -0.51900
O 	O 	0.03320 0.42921 0.46895 -0.51600
O 	O 	0.19374 0.26289 0.29179 -0.43600
O 	O 	0.13203 0.30007 0.23898 -0.26200
O 	O 	0.06184 0.36284 0.28047 -0.11700
C 	C 	0.07813 0.40791 0.46908 0.49600
C 	C 	0.09769 0.37937 0.42052 -0.45000
C 	C 	0.14352 0.34795 0.42378 0.22600
H 	H 	0.16310 0.34600 0.45640 -0.03200
C 	C 	0.16036 0.31972 0.37942 -0.21700
H 	H 	0.19090 0.29720 0.38200 0.12100
C 	C 	0.13353 0.32373 0.33141 0.07400
C 	C 	0.15425 0.29391 0.28372 0.28000
C 	C 	0.08835 0.35551 0.32816 -0.19800
C 	C 	0.07005 0.38306 0.37229 0.69900
H 	H 	0.03870 0.40450 0.36980 -1.03100
C 	C 	0.12173 0.31729 0.60875 -0.05200
H 	H 	0.08530 0.30360 0.61640 0.04100
H 	H 	0.12810 0.31460 0.56970 0.03500
C 	C 	0.16360 0.28339 0.63910 -0.07300
H 	H 	0.19330 0.27350 0.61470 0.05300
H 	H 	0.14680 0.25000 0.65250 0.04800
O 	O 	0.02140 0.40800 0.36850 0.89000
O 	O 	0.39014 0.59296 0.00958 -0.54500
O 	O 	0.46680 0.57079 0.96895 -0.50200
O 	O 	0.30626 0.73711 0.79179 -0.43300
O 	O 	0.36797 0.69993 0.73898 -0.25800
O 	O 	0.43816 0.63716 0.78047 -0.10900
C 	C 	0.42187 0.59209 0.96908 0.52500
C 	C 	0.40231 0.62063 0.92052 -0.44400
C 	C 	0.35648 0.65205 0.92378 0.22700
H 	H 	0.33690 0.65400 0.95640 -0.02200
C 	C 	0.33964 0.68028 0.87942 -0.21200
H 	H 	0.30910 0.70280 0.88200 0.12400
C 	C 	0.36647 0.67627 0.83141 0.07400
C 	C 	0.34575 0.70609 0.78372 0.28100
C 	C 	0.41165 0.64449 0.82816 -0.18800
C 	C 	0.42995 0.61694 0.87229 0.68600
H 	H 	0.46130 0.59550 0.86980 -0.99900
C 	C 	0.37827 0.68271 0.10875 -0.05100
H 	H 	0.41470 0.69640 0.11640 0.04400
H 	H 	0.37190 0.68540 0.06970 0.03200
C 	C 	0.33640 0.71661 0.13910 -0.07300
H 	H 	0.30670 0.72650 0.11470 0.05300
H 	H 	0.35320 0.75000 0.15250 0.05000
O 	O 	0.47860 0.59200 0.86850 0.86800
O 	O 	0.60986 0.09296 0.49042 -0.52100
O 	O 	0.53320 0.07079 0.53105 -0.51100
O 	O 	0.69374 0.23711 0.70821 -0.43400
O 	O 	0.63203 0.19993 0.76102 -0.25900
O 	O 	0.56184 0.13716 0.71953 -0.11200
C 	C 	0.57813 0.09209 0.53092 0.49200
C 	C 	0.59769 0.12063 0.57948 -0.44400
C 	C 	0.64352 0.15205 0.57622 0.22300
H 	H 	0.66310 0.15400 0.54360 -0.03000
C 	C 	0.66036 0.18028 0.62058 -0.21400
H 	H 	0.69090 0.20280 0.61800 0.12100
C 	C 	0.63353 0.17627 0.66859 0.07300
C 	C 	0.65425 0.20609 0.71628 0.28000
C 	C 	0.58835 0.14449 0.67184 -0.19200
C 	C 	0.57005 0.11694 0.62771 0.68900
H 	H 	0.53870 0.09550 0.63020 -1.01500
C 	C 	0.62173 0.18271 0.39125 -0.05300
H 	H 	0.58530 0.19640 0.38360 0.04600
H 	H 	0.62810 0.18540 0.43030 0.03700
C 	C 	0.66360 0.21661 0.36090 -0.07200
H 	H 	0.69330 0.22650 0.38530 0.05500
H 	H 	0.64680 0.25000 0.34750 0.05100
O 	O 	0.52140 0.09200 0.63150 0.87900
Zn	Zn	0.07886 0.07886 0.07886 1.21800
Zn	Zn	0.23183 0.23183 0.23183 1.22700
N 	N 	0.12591 0.12591 0.12591 -0.20200
N 	N 	0.18471 0.18471 0.18471 -0.19800
Zn	Zn	0.42114 0.92114 0.57886 1.22100
Zn	Zn	0.26817 0.76817 0.73183 1.22700
N 	N 	0.37409 0.87409 0.62591 -0.19900
N 	N 	0.31529 0.81529 0.68471 -0.19800
Zn	Zn	0.92114 0.57886 0.42114 1.22100
Zn	Zn	0.76817 0.73183 0.26817 1.22700
N 	N 	0.87409 0.62591 0.37409 -0.19900
N 	N 	0.81529 0.68471 0.31529 -0.19800
Zn	Zn	0.57886 0.42114 0.92114 1.22100
Zn	Zn	0.73183 0.26817 0.76817 1.22700
N 	N 	0.62591 0.37409 0.87409 -0.19900
N 	N 	0.68471 0.31529 0.81529 -0.19800
Zn	Zn	0.92114 0.92114 0.92114 1.22300
Zn	Zn	0.76817 0.76817 0.76817 1.22700
N 	N 	0.87409 0.87409 0.87409 -0.19700
N 	N 	0.81529 0.81529 0.81529 -0.19800
Zn	Zn	0.57886 0.07886 0.42114 1.22000
Zn	Zn	0.73183 0.23183 0.26817 1.22700
N 	N 	0.62591 0.12591 0.37409 -0.20000
N 	N 	0.68471 0.18471 0.31529 -0.19800
Zn	Zn	0.07886 0.42114 0.57886 1.22000
Zn	Zn	0.23183 0.26817 0.73183 1.22700
N 	N 	0.12591 0.37409 0.62591 -0.20000
N 	N 	0.18471 0.31529 0.68471 -0.19800
Zn	Zn	0.42114 0.57886 0.07886 1.22000
Zn	Zn	0.26817 0.73183 0.23183 1.22700
N 	N 	0.37409 0.62591 0.12591 -0.20000
N 	N 	0.31529 0.68471 0.18471 -0.19800
Zn	Zn	-0.00000 0.00000 -0.00000 1.21100
Zn	Zn	0.50000 0.00000 0.50000 1.22800
Zn	Zn	0.00000 0.50000 0.50000 1.22800
Zn	Zn	0.50000 0.50000 -0.00000 1.22800
