data_crystal

_cell_length_a 33.84300
_cell_length_b 9.95400
_cell_length_c 35.81700
_cell_angle_alpha 90.00000
_cell_angle_beta  106.56200
_cell_angle_gamma 90.00000

_symmetry_space_group_name_	'P 1'
_symmetry_space_group_name_H-M	'P 1'

loop_
_symmetry_equiv_pos_as_xyz
  x,y,z

loop_
_atom_site_label
_atom_site_type_symbol
_atom_site_fract_x
_atom_site_fract_y
_atom_site_fract_z
_atom_site_charge
Zn	Zn	0.87268 0.43594 0.14406 1.24600
Zn	Zn	0.86110 0.67895 0.07371 1.23700
Zn	Zn	0.09273 0.99573 0.12875 1.23200
Zn	Zn	0.16658 0.75199 0.15989 1.24900
O 	O 	0.87480 0.23250 0.14550 -0.27100
O 	O 	0.80000 0.82250 0.04340 -0.31400
O 	O 	0.85740 0.78380 0.02760 -0.41900
O 	O 	0.92050 0.43510 0.12240 -0.47000
O 	O 	0.91920 0.62280 0.08750 -0.46700
O 	O 	0.85860 0.75120 0.12360 -0.47600
O 	O 	0.88090 0.60670 0.17410 -0.44400
O 	O 	0.67750 0.97460 0.93820 -0.48100
O 	O 	0.68510 0.05140 0.88320 -0.46600
O 	O 	0.06040 0.82660 0.11940 -0.45200
O 	O 	0.11410 0.69030 0.12340 -0.46100
O 	O 	0.88800 0.00400 0.31330 -0.44600
O 	O 	0.86230 0.79830 0.29910 -0.47400
O 	O 	0.82180 0.07940 0.86410 -0.48900
O 	O 	0.87710 0.01240 0.91140 -0.45000
O 	O 	0.03890 0.11870 0.11170 -0.37500
O 	O 	0.09870 0.21420 0.12730 -0.36600
C 	C 	0.87650 0.22200 0.17310 -0.11600
O 	O 	0.87990 0.31440 0.19450 -0.35900
C 	C 	0.87190 0.07930 0.19460 -0.17800
C 	C 	0.87430 0.05770 0.23420 0.10300
H 	H 	0.87670 0.13110 0.25070 0.03500
C 	C 	0.87310 0.92770 0.24910 -0.15400
C 	C 	0.87360 0.81480 0.22470 0.09400
H 	H 	0.87500 0.72760 0.23430 0.03700
C 	C 	0.87200 0.83860 0.18620 -0.15500
C 	C 	0.87150 0.96680 0.17180 0.11900
H 	H 	0.87090 0.97830 0.14580 0.02800
C 	C 	0.82070 0.83240 0.02000 0.31200
C 	C 	0.80330 0.90590 0.98250 -0.10200
C 	C 	0.76330 0.93090 0.96990 0.06600
H 	H 	0.74670 0.90930 0.98570 0.04100
C 	C 	0.74480 0.98980 0.93270 -0.12400
C 	C 	0.76990 0.02880 0.91050 0.05800
H 	H 	0.75900 0.07280 0.88690 0.05200
C 	C 	0.81240 0.00120 0.92390 -0.10600
C 	C 	0.93660 0.51820 0.10560 0.41400
C 	C 	0.82860 0.94000 0.95970 0.05500
H 	H 	0.85660 0.92150 0.96850 0.05400
C 	C 	0.98090 0.49990 0.10790 -0.13500
C 	C 	0.99810 0.37010 0.10960 0.06800
H 	H 	0.98140 0.29480 0.10790 0.04600
C 	C 	0.03940 0.35540 0.11390 -0.10100
C 	C 	0.06360 0.46540 0.11570 0.06100
H 	H 	0.09150 0.45440 0.11820 0.04800
C 	C 	0.04750 0.59320 0.11390 -0.12400
C 	C 	0.00590 0.60870 0.10950 0.08100
H 	H 	0.99470 0.69470 0.10760 0.03900
C 	C 	0.07660 0.71360 0.11960 0.40100
C 	C 	0.87250 0.90820 0.28980 0.40700
C 	C 	0.83940 0.03660 0.89700 0.38900
C 	C 	0.06100 0.21930 0.11750 0.33700
C 	C 	0.69980 0.00850 0.91730 0.40300
C 	C 	0.87080 0.72230 0.15990 0.40300
O 	O 	0.19990 0.68900 0.12390 -0.38600
N 	N 	0.23160 0.52600 0.08700 -0.22200
C 	C 	0.19420 0.58700 0.10040 -0.19000
C 	C 	0.16250 0.48500 0.08820 0.06000
C 	C 	0.18020 0.38700 0.07060 -0.01600
C 	C 	0.21890 0.43100 0.05840 0.10000
C 	C 	0.27440 0.62100 0.09720 -0.35100
C 	C 	0.86340 0.21900 0.18580 0.54600
O 	O 	0.84300 0.31000 0.19940 -0.21000
O 	O 	0.19190 0.58500 0.16690 -0.42300
N 	N 	0.19690 0.64100 0.10000 0.14500
C 	C 	0.21130 0.56200 0.14060 0.38400
C 	C 	0.25610 0.55700 0.14650 -0.22200
C 	C 	0.26200 0.58100 0.11060 0.50100
C 	C 	0.22490 0.63500 0.07810 0.12700
C 	C 	0.14540 0.62900 0.07840 0.03100
Zn	Zn	0.37268 0.93594 0.14406 1.24400
Zn	Zn	0.36110 0.17895 0.07371 1.23600
Zn	Zn	0.59273 0.49573 0.12875 1.23300
Zn	Zn	0.66658 0.25199 0.15989 1.24800
O 	O 	0.37480 0.73250 0.14550 -0.27600
O 	O 	0.30000 0.32250 0.04340 -0.31400
O 	O 	0.35740 0.28380 0.02760 -0.41900
O 	O 	0.42050 0.93510 0.12240 -0.47800
O 	O 	0.41920 0.12280 0.08750 -0.47000
O 	O 	0.35860 0.25120 0.12360 -0.47600
O 	O 	0.38090 0.10670 0.17410 -0.44200
O 	O 	0.17750 0.47460 0.93820 -0.48700
O 	O 	0.18510 0.55140 0.88320 -0.46800
O 	O 	0.56040 0.32660 0.11940 -0.45200
O 	O 	0.61410 0.19030 0.12340 -0.46100
O 	O 	0.38800 0.50400 0.31330 -0.45600
O 	O 	0.36230 0.29830 0.29910 -0.47500
O 	O 	0.32180 0.57940 0.86410 -0.48700
O 	O 	0.37710 0.51240 0.91140 -0.44900
O 	O 	0.53890 0.61870 0.11170 -0.37700
O 	O 	0.59870 0.71420 0.12730 -0.36900
C 	C 	0.37650 0.72200 0.17310 -0.11100
O 	O 	0.37990 0.81440 0.19450 -0.36100
C 	C 	0.37190 0.57930 0.19460 -0.18500
C 	C 	0.37430 0.55770 0.23420 0.09500
H 	H 	0.37670 0.63110 0.25070 0.03600
C 	C 	0.37310 0.42770 0.24910 -0.14700
C 	C 	0.37360 0.31480 0.22470 0.09400
H 	H 	0.37500 0.22760 0.23430 0.03800
C 	C 	0.37200 0.33860 0.18620 -0.15700
C 	C 	0.37150 0.46680 0.17180 0.13000
H 	H 	0.37090 0.47830 0.14580 0.02600
C 	C 	0.32070 0.33240 0.02000 0.31300
C 	C 	0.30330 0.40590 0.98250 -0.10500
C 	C 	0.26330 0.43090 0.96990 0.07100
H 	H 	0.24670 0.40930 0.98570 0.03900
C 	C 	0.24480 0.48980 0.93270 -0.13600
C 	C 	0.26990 0.52880 0.91050 0.06700
H 	H 	0.25900 0.57280 0.88690 0.05000
C 	C 	0.31240 0.50120 0.92390 -0.10600
C 	C 	0.43660 0.01820 0.10560 0.42600
C 	C 	0.32860 0.44000 0.95970 0.05300
H 	H 	0.35660 0.42150 0.96850 0.05400
C 	C 	0.48090 0.99990 0.10790 -0.14900
C 	C 	0.49810 0.87010 0.10960 0.07400
H 	H 	0.48140 0.79480 0.10790 0.04400
C 	C 	0.53940 0.85540 0.11390 -0.10400
C 	C 	0.56360 0.96540 0.11570 0.05700
H 	H 	0.59150 0.95440 0.11820 0.04800
C 	C 	0.54750 0.09320 0.11390 -0.12200
C 	C 	0.50590 0.10870 0.10950 0.09100
H 	H 	0.49470 0.19470 0.10760 0.03700
C 	C 	0.57660 0.21360 0.11960 0.40100
C 	C 	0.37250 0.40820 0.28980 0.41400
C 	C 	0.33940 0.53660 0.89700 0.38900
C 	C 	0.56100 0.71930 0.11750 0.33800
C 	C 	0.19980 0.50850 0.91730 0.41200
C 	C 	0.37080 0.22230 0.15990 0.40400
O 	O 	0.69990 0.18900 0.12390 -0.38800
N 	N 	0.73160 0.02600 0.08700 -0.21800
C 	C 	0.69420 0.08700 0.10040 -0.19800
C 	C 	0.66250 0.98500 0.08820 0.05600
C 	C 	0.68020 0.88700 0.07060 -0.01600
C 	C 	0.71890 0.93100 0.05840 0.09600
C 	C 	0.77440 0.12100 0.09720 -0.34500
C 	C 	0.36340 0.71900 0.18580 0.54400
O 	O 	0.34300 0.81000 0.19940 -0.21100
O 	O 	0.69190 0.08500 0.16690 -0.42200
N 	N 	0.69690 0.14100 0.10000 0.15200
C 	C 	0.71130 0.06200 0.14060 0.38800
C 	C 	0.75610 0.05700 0.14650 -0.21800
C 	C 	0.76200 0.08100 0.11060 0.49400
C 	C 	0.72490 0.13500 0.07810 0.12600
C 	C 	0.64540 0.12900 0.07840 0.03400
Zn	Zn	0.12732 0.43594 0.35594 1.24500
Zn	Zn	0.13890 0.67895 0.42629 1.23600
Zn	Zn	0.90727 0.99573 0.37125 1.23100
Zn	Zn	0.83342 0.75199 0.34011 1.24800
O 	O 	0.12520 0.23250 0.35450 -0.27200
O 	O 	0.20000 0.82250 0.45660 -0.31500
O 	O 	0.14260 0.78380 0.47240 -0.42000
O 	O 	0.07950 0.43510 0.37760 -0.47100
O 	O 	0.08080 0.62280 0.41250 -0.46800
O 	O 	0.14140 0.75120 0.37640 -0.47700
O 	O 	0.11910 0.60670 0.32590 -0.44500
O 	O 	0.32250 0.97460 0.56180 -0.48200
O 	O 	0.31490 0.05140 0.61680 -0.46700
O 	O 	0.93960 0.82660 0.38060 -0.45300
O 	O 	0.88590 0.69030 0.37660 -0.46200
O 	O 	0.11200 0.00400 0.18670 -0.44700
O 	O 	0.13770 0.79830 0.20090 -0.47400
O 	O 	0.17820 0.07940 0.63590 -0.48900
O 	O 	0.12290 0.01240 0.58860 -0.45000
O 	O 	0.96110 0.11870 0.38830 -0.37500
O 	O 	0.90130 0.21420 0.37270 -0.36700
C 	C 	0.12350 0.22200 0.32690 -0.11600
O 	O 	0.12010 0.31440 0.30550 -0.35900
C 	C 	0.12810 0.07930 0.30540 -0.17800
C 	C 	0.12570 0.05770 0.26580 0.10300
H 	H 	0.12330 0.13110 0.24930 0.03500
C 	C 	0.12690 0.92770 0.25090 -0.15400
C 	C 	0.12640 0.81480 0.27530 0.09400
H 	H 	0.12500 0.72760 0.26570 0.03700
C 	C 	0.12800 0.83860 0.31380 -0.15500
C 	C 	0.12850 0.96680 0.32820 0.11900
H 	H 	0.12910 0.97830 0.35420 0.02800
C 	C 	0.17930 0.83240 0.48000 0.31300
C 	C 	0.19670 0.90590 0.51750 -0.10300
C 	C 	0.23670 0.93090 0.53010 0.06600
H 	H 	0.25330 0.90930 0.51430 0.04100
C 	C 	0.25520 0.98980 0.56730 -0.12500
C 	C 	0.23010 0.02880 0.58950 0.05900
H 	H 	0.24100 0.07280 0.61310 0.05200
C 	C 	0.18760 0.00120 0.57610 -0.10600
C 	C 	0.06340 0.51820 0.39440 0.41400
C 	C 	0.17140 0.94000 0.54030 0.05500
H 	H 	0.14340 0.92150 0.53150 0.05400
C 	C 	0.01910 0.49990 0.39210 -0.13500
C 	C 	0.00190 0.37010 0.39040 0.06800
H 	H 	0.01860 0.29480 0.39210 0.04600
C 	C 	0.96060 0.35540 0.38610 -0.10100
C 	C 	0.93640 0.46540 0.38430 0.06100
H 	H 	0.90850 0.45440 0.38180 0.04800
C 	C 	0.95250 0.59320 0.38610 -0.12400
C 	C 	0.99410 0.60870 0.39050 0.08100
H 	H 	0.00530 0.69470 0.39240 0.04000
C 	C 	0.92340 0.71360 0.38040 0.40100
C 	C 	0.12750 0.90820 0.21020 0.40700
C 	C 	0.16060 0.03660 0.60300 0.38900
C 	C 	0.93900 0.21930 0.38250 0.33700
C 	C 	0.30020 0.00850 0.58270 0.40400
C 	C 	0.12920 0.72230 0.34010 0.40300
O 	O 	0.80010 0.68900 0.37610 -0.38600
N 	N 	0.76840 0.52600 0.41300 -0.22200
C 	C 	0.80580 0.58700 0.39960 -0.19000
C 	C 	0.83750 0.48500 0.41180 0.06000
C 	C 	0.81980 0.38700 0.42940 -0.01600
C 	C 	0.78110 0.43100 0.44160 0.10000
C 	C 	0.72560 0.62100 0.40280 -0.35100
C 	C 	0.13660 0.21900 0.31420 0.54600
O 	O 	0.15700 0.31000 0.30060 -0.21000
O 	O 	0.80810 0.58500 0.33310 -0.42300
N 	N 	0.80310 0.64100 0.40000 0.14500
C 	C 	0.78870 0.56200 0.35940 0.38400
C 	C 	0.74390 0.55700 0.35350 -0.22200
C 	C 	0.73800 0.58100 0.38940 0.50100
C 	C 	0.77510 0.63500 0.42190 0.12700
C 	C 	0.85460 0.62900 0.42160 0.03100
Zn	Zn	0.62732 0.93594 0.35594 1.24400
Zn	Zn	0.63890 0.17895 0.42629 1.23600
Zn	Zn	0.40727 0.49573 0.37125 1.23300
Zn	Zn	0.33342 0.25199 0.34011 1.24800
O 	O 	0.62520 0.73250 0.35450 -0.27600
O 	O 	0.70000 0.32250 0.45660 -0.31400
O 	O 	0.64260 0.28380 0.47240 -0.41900
O 	O 	0.57950 0.93510 0.37760 -0.47800
O 	O 	0.58080 0.12280 0.41250 -0.47000
O 	O 	0.64140 0.25120 0.37640 -0.47600
O 	O 	0.61910 0.10670 0.32590 -0.44200
O 	O 	0.82250 0.47460 0.56180 -0.48700
O 	O 	0.81490 0.55140 0.61680 -0.46800
O 	O 	0.43960 0.32660 0.38060 -0.45200
O 	O 	0.38590 0.19030 0.37660 -0.46100
O 	O 	0.61200 0.50400 0.18670 -0.45600
O 	O 	0.63770 0.29830 0.20090 -0.47500
O 	O 	0.67820 0.57940 0.63590 -0.48700
O 	O 	0.62290 0.51240 0.58860 -0.44900
O 	O 	0.46110 0.61870 0.38830 -0.37700
O 	O 	0.40130 0.71420 0.37270 -0.36900
C 	C 	0.62350 0.72200 0.32690 -0.11100
O 	O 	0.62010 0.81440 0.30550 -0.36100
C 	C 	0.62810 0.57930 0.30540 -0.18500
C 	C 	0.62570 0.55770 0.26580 0.09500
H 	H 	0.62330 0.63110 0.24930 0.03600
C 	C 	0.62690 0.42770 0.25090 -0.14700
C 	C 	0.62640 0.31480 0.27530 0.09400
H 	H 	0.62500 0.22760 0.26570 0.03800
C 	C 	0.62800 0.33860 0.31380 -0.15700
C 	C 	0.62850 0.46680 0.32820 0.13000
H 	H 	0.62910 0.47830 0.35420 0.02600
C 	C 	0.67930 0.33240 0.48000 0.31300
C 	C 	0.69670 0.40590 0.51750 -0.10400
C 	C 	0.73670 0.43090 0.53010 0.07100
H 	H 	0.75330 0.40930 0.51430 0.03900
C 	C 	0.75520 0.48980 0.56730 -0.13600
C 	C 	0.73010 0.52880 0.58950 0.06700
H 	H 	0.74100 0.57280 0.61310 0.05000
C 	C 	0.68760 0.50120 0.57610 -0.10600
C 	C 	0.56340 0.01820 0.39440 0.42600
C 	C 	0.67140 0.44000 0.54030 0.05300
H 	H 	0.64340 0.42150 0.53150 0.05400
C 	C 	0.51910 0.99990 0.39210 -0.14800
C 	C 	0.50190 0.87010 0.39040 0.07300
H 	H 	0.51860 0.79480 0.39210 0.04400
C 	C 	0.46060 0.85540 0.38610 -0.10400
C 	C 	0.43640 0.96540 0.38430 0.05700
H 	H 	0.40850 0.95440 0.38180 0.04800
C 	C 	0.45250 0.09320 0.38610 -0.12200
C 	C 	0.49410 0.10870 0.39050 0.09000
H 	H 	0.50530 0.19470 0.39240 0.03700
C 	C 	0.42340 0.21360 0.38040 0.40100
C 	C 	0.62750 0.40820 0.21020 0.41400
C 	C 	0.66060 0.53660 0.60300 0.38900
C 	C 	0.43900 0.71930 0.38250 0.33800
C 	C 	0.80020 0.50850 0.58270 0.41200
C 	C 	0.62920 0.22230 0.34010 0.40400
O 	O 	0.30010 0.18900 0.37610 -0.38800
N 	N 	0.26840 0.02600 0.41300 -0.21800
C 	C 	0.30580 0.08700 0.39960 -0.19700
C 	C 	0.33750 0.98500 0.41180 0.05600
C 	C 	0.31980 0.88700 0.42940 -0.01600
C 	C 	0.28110 0.93100 0.44160 0.09700
C 	C 	0.22560 0.12100 0.40280 -0.34500
C 	C 	0.63660 0.71900 0.31420 0.54400
O 	O 	0.65700 0.81000 0.30060 -0.21100
O 	O 	0.30810 0.08500 0.33310 -0.42200
N 	N 	0.30310 0.14100 0.40000 0.15100
C 	C 	0.28870 0.06200 0.35940 0.38700
C 	C 	0.24390 0.05700 0.35350 -0.21800
C 	C 	0.23800 0.08100 0.38940 0.49500
C 	C 	0.27510 0.13500 0.42190 0.12600
C 	C 	0.35460 0.12900 0.42160 0.03400
Zn	Zn	0.12732 0.56406 0.85594 1.24500
Zn	Zn	0.13890 0.32105 0.92629 1.23600
Zn	Zn	0.90727 0.00427 0.87125 1.23100
Zn	Zn	0.83342 0.24801 0.84011 1.24800
O 	O 	0.12520 0.76750 0.85450 -0.27200
O 	O 	0.20000 0.17750 0.95660 -0.31500
O 	O 	0.14260 0.21620 0.97240 -0.42000
O 	O 	0.07950 0.56490 0.87760 -0.47100
O 	O 	0.08080 0.37720 0.91250 -0.46800
O 	O 	0.14140 0.24880 0.87640 -0.47700
O 	O 	0.11910 0.39330 0.82590 -0.44500
O 	O 	0.32250 0.02540 0.06180 -0.48200
O 	O 	0.31490 0.94860 0.11680 -0.46700
O 	O 	0.93960 0.17340 0.88060 -0.45300
O 	O 	0.88590 0.30970 0.87660 -0.46200
O 	O 	0.11200 0.99600 0.68670 -0.44700
O 	O 	0.13770 0.20170 0.70090 -0.47400
O 	O 	0.17820 0.92060 0.13590 -0.48900
O 	O 	0.12290 0.98760 0.08860 -0.45000
O 	O 	0.96110 0.88130 0.88830 -0.37500
O 	O 	0.90130 0.78580 0.87270 -0.36600
C 	C 	0.12350 0.77800 0.82690 -0.11600
O 	O 	0.12010 0.68560 0.80550 -0.35900
C 	C 	0.12810 0.92070 0.80540 -0.17800
C 	C 	0.12570 0.94230 0.76580 0.10300
H 	H 	0.12330 0.86890 0.74930 0.03500
C 	C 	0.12690 0.07230 0.75090 -0.15400
C 	C 	0.12640 0.18520 0.77530 0.09400
H 	H 	0.12500 0.27240 0.76570 0.03700
C 	C 	0.12800 0.16140 0.81380 -0.15500
C 	C 	0.12850 0.03320 0.82820 0.11900
H 	H 	0.12910 0.02170 0.85420 0.02800
C 	C 	0.17930 0.16760 0.98000 0.31200
C 	C 	0.19670 0.09410 0.01750 -0.10200
C 	C 	0.23670 0.06910 0.03010 0.06600
H 	H 	0.25330 0.09070 0.01430 0.04100
C 	C 	0.25520 0.01020 0.06730 -0.12400
C 	C 	0.23010 0.97120 0.08950 0.05800
H 	H 	0.24100 0.92720 0.11310 0.05200
C 	C 	0.18760 0.99880 0.07610 -0.10600
C 	C 	0.06340 0.48180 0.89440 0.41400
C 	C 	0.17140 0.06000 0.04030 0.05500
H 	H 	0.14340 0.07850 0.03150 0.05400
C 	C 	0.01910 0.50010 0.89210 -0.13500
C 	C 	0.00190 0.62990 0.89040 0.06800
H 	H 	0.01860 0.70520 0.89210 0.04600
C 	C 	0.96060 0.64460 0.88610 -0.10100
C 	C 	0.93640 0.53460 0.88430 0.06100
H 	H 	0.90850 0.54560 0.88180 0.04800
C 	C 	0.95250 0.40680 0.88610 -0.12400
C 	C 	0.99410 0.39130 0.89050 0.08100
H 	H 	0.00530 0.30530 0.89240 0.03900
C 	C 	0.92340 0.28640 0.88040 0.40100
C 	C 	0.12750 0.09180 0.71020 0.40700
C 	C 	0.16060 0.96340 0.10300 0.38900
C 	C 	0.93900 0.78070 0.88250 0.33700
C 	C 	0.30020 0.99150 0.08270 0.40300
C 	C 	0.12920 0.27770 0.84010 0.40300
O 	O 	0.80010 0.31100 0.87610 -0.38600
N 	N 	0.76840 0.47400 0.91300 -0.22200
C 	C 	0.80580 0.41300 0.89960 -0.19000
C 	C 	0.83750 0.51500 0.91180 0.06000
C 	C 	0.81980 0.61300 0.92940 -0.01600
C 	C 	0.78110 0.56900 0.94160 0.10000
C 	C 	0.72560 0.37900 0.90280 -0.35100
C 	C 	0.13660 0.78100 0.81420 0.54600
O 	O 	0.15700 0.69000 0.80060 -0.21000
O 	O 	0.80810 0.41500 0.83310 -0.42300
N 	N 	0.80310 0.35900 0.90000 0.14500
C 	C 	0.78870 0.43800 0.85940 0.38400
C 	C 	0.74390 0.44300 0.85350 -0.22200
C 	C 	0.73800 0.41900 0.88940 0.50100
C 	C 	0.77510 0.36500 0.92190 0.12700
C 	C 	0.85460 0.37100 0.92160 0.03100
Zn	Zn	0.62732 0.06406 0.85594 1.24400
Zn	Zn	0.63890 0.82105 0.92629 1.23600
Zn	Zn	0.40727 0.50427 0.87125 1.23300
Zn	Zn	0.33342 0.74801 0.84011 1.24800
O 	O 	0.62520 0.26750 0.85450 -0.27600
O 	O 	0.70000 0.67750 0.95660 -0.31400
O 	O 	0.64260 0.71620 0.97240 -0.41900
O 	O 	0.57950 0.06490 0.87760 -0.47800
O 	O 	0.58080 0.87720 0.91250 -0.47000
O 	O 	0.64140 0.74880 0.87640 -0.47600
O 	O 	0.61910 0.89330 0.82590 -0.44200
O 	O 	0.82250 0.52540 0.06180 -0.48700
O 	O 	0.81490 0.44860 0.11680 -0.46800
O 	O 	0.43960 0.67340 0.88060 -0.45200
O 	O 	0.38590 0.80970 0.87660 -0.46100
O 	O 	0.61200 0.49600 0.68670 -0.45600
O 	O 	0.63770 0.70170 0.70090 -0.47500
O 	O 	0.67820 0.42060 0.13590 -0.48700
O 	O 	0.62290 0.48760 0.08860 -0.44900
O 	O 	0.46110 0.38130 0.88830 -0.37700
O 	O 	0.40130 0.28580 0.87270 -0.36900
C 	C 	0.62350 0.27800 0.82690 -0.11100
O 	O 	0.62010 0.18560 0.80550 -0.36100
C 	C 	0.62810 0.42070 0.80540 -0.18500
C 	C 	0.62570 0.44230 0.76580 0.09500
H 	H 	0.62330 0.36890 0.74930 0.03600
C 	C 	0.62690 0.57230 0.75090 -0.14700
C 	C 	0.62640 0.68520 0.77530 0.09400
H 	H 	0.62500 0.77240 0.76570 0.03800
C 	C 	0.62800 0.66140 0.81380 -0.15700
C 	C 	0.62850 0.53320 0.82820 0.13000
H 	H 	0.62910 0.52170 0.85420 0.02600
C 	C 	0.67930 0.66760 0.98000 0.31300
C 	C 	0.69670 0.59410 0.01750 -0.10500
C 	C 	0.73670 0.56910 0.03010 0.07100
H 	H 	0.75330 0.59070 0.01430 0.03900
C 	C 	0.75520 0.51020 0.06730 -0.13600
C 	C 	0.73010 0.47120 0.08950 0.06700
H 	H 	0.74100 0.42720 0.11310 0.05000
C 	C 	0.68760 0.49880 0.07610 -0.10600
C 	C 	0.56340 0.98180 0.89440 0.42600
C 	C 	0.67140 0.56000 0.04030 0.05300
H 	H 	0.64340 0.57850 0.03150 0.05400
C 	C 	0.51910 0.00010 0.89210 -0.14900
C 	C 	0.50190 0.12990 0.89040 0.07400
H 	H 	0.51860 0.20520 0.89210 0.04400
C 	C 	0.46060 0.14460 0.88610 -0.10400
C 	C 	0.43640 0.03460 0.88430 0.05700
H 	H 	0.40850 0.04560 0.88180 0.04800
C 	C 	0.45250 0.90680 0.88610 -0.12200
C 	C 	0.49410 0.89130 0.89050 0.09100
H 	H 	0.50530 0.80530 0.89240 0.03700
C 	C 	0.42340 0.78640 0.88040 0.40100
C 	C 	0.62750 0.59180 0.71020 0.41400
C 	C 	0.66060 0.46340 0.10300 0.38900
C 	C 	0.43900 0.28070 0.88250 0.33800
C 	C 	0.80020 0.49150 0.08270 0.41200
C 	C 	0.62920 0.77770 0.84010 0.40400
O 	O 	0.30010 0.81100 0.87610 -0.38800
N 	N 	0.26840 0.97400 0.91300 -0.21800
C 	C 	0.30580 0.91300 0.89960 -0.19800
C 	C 	0.33750 0.01500 0.91180 0.05600
C 	C 	0.31980 0.11300 0.92940 -0.01600
C 	C 	0.28110 0.06900 0.94160 0.09600
C 	C 	0.22560 0.87900 0.90280 -0.34500
C 	C 	0.63660 0.28100 0.81420 0.54400
O 	O 	0.65700 0.19000 0.80060 -0.21100
O 	O 	0.30810 0.91500 0.83310 -0.42200
N 	N 	0.30310 0.85900 0.90000 0.15200
C 	C 	0.28870 0.93800 0.85940 0.38800
C 	C 	0.24390 0.94300 0.85350 -0.21800
C 	C 	0.23800 0.91900 0.88940 0.49400
C 	C 	0.27510 0.86500 0.92190 0.12600
C 	C 	0.35460 0.87100 0.92160 0.03400
Zn	Zn	0.87268 0.56406 0.64406 1.24500
Zn	Zn	0.86110 0.32105 0.57371 1.23600
Zn	Zn	0.09273 0.00427 0.62875 1.23100
Zn	Zn	0.16658 0.24801 0.65989 1.24800
O 	O 	0.87480 0.76750 0.64550 -0.27200
O 	O 	0.80000 0.17750 0.54340 -0.31500
O 	O 	0.85740 0.21620 0.52760 -0.42000
O 	O 	0.92050 0.56490 0.62240 -0.47100
O 	O 	0.91920 0.37720 0.58750 -0.46800
O 	O 	0.85860 0.24880 0.62360 -0.47700
O 	O 	0.88090 0.39330 0.67410 -0.44500
O 	O 	0.67750 0.02540 0.43820 -0.48200
O 	O 	0.68510 0.94860 0.38320 -0.46700
O 	O 	0.06040 0.17340 0.61940 -0.45300
O 	O 	0.11410 0.30970 0.62340 -0.46200
O 	O 	0.88800 0.99600 0.81330 -0.44700
O 	O 	0.86230 0.20170 0.79910 -0.47400
O 	O 	0.82180 0.92060 0.36410 -0.48900
O 	O 	0.87710 0.98760 0.41140 -0.45000
O 	O 	0.03890 0.88130 0.61170 -0.37500
O 	O 	0.09870 0.78580 0.62730 -0.36700
C 	C 	0.87650 0.77800 0.67310 -0.11600
O 	O 	0.87990 0.68560 0.69450 -0.35900
C 	C 	0.87190 0.92070 0.69460 -0.17800
C 	C 	0.87430 0.94230 0.73420 0.10300
H 	H 	0.87670 0.86890 0.75070 0.03500
C 	C 	0.87310 0.07230 0.74910 -0.15400
C 	C 	0.87360 0.18520 0.72470 0.09400
H 	H 	0.87500 0.27240 0.73430 0.03700
C 	C 	0.87200 0.16140 0.68620 -0.15500
C 	C 	0.87150 0.03320 0.67180 0.11900
H 	H 	0.87090 0.02170 0.64580 0.02800
C 	C 	0.82070 0.16760 0.52000 0.31300
C 	C 	0.80330 0.09410 0.48250 -0.10300
C 	C 	0.76330 0.06910 0.46990 0.06600
H 	H 	0.74670 0.09070 0.48570 0.04100
C 	C 	0.74480 0.01020 0.43270 -0.12500
C 	C 	0.76990 0.97120 0.41050 0.05900
H 	H 	0.75900 0.92720 0.38690 0.05200
C 	C 	0.81240 0.99880 0.42390 -0.10600
C 	C 	0.93660 0.48180 0.60560 0.41400
C 	C 	0.82860 0.06000 0.45970 0.05500
H 	H 	0.85660 0.07850 0.46850 0.05400
C 	C 	0.98090 0.50010 0.60790 -0.13500
C 	C 	0.99810 0.62990 0.60960 0.06800
H 	H 	0.98140 0.70520 0.60790 0.04600
C 	C 	0.03940 0.64460 0.61390 -0.10100
C 	C 	0.06360 0.53460 0.61570 0.06100
H 	H 	0.09150 0.54560 0.61820 0.04800
C 	C 	0.04750 0.40680 0.61390 -0.12400
C 	C 	0.00590 0.39130 0.60950 0.08100
H 	H 	0.99470 0.30530 0.60760 0.04000
C 	C 	0.07660 0.28640 0.61960 0.40100
C 	C 	0.87250 0.09180 0.78980 0.40700
C 	C 	0.83940 0.96340 0.39700 0.38900
C 	C 	0.06100 0.78070 0.61750 0.33700
C 	C 	0.69980 0.99150 0.41730 0.40400
C 	C 	0.87080 0.27770 0.65990 0.40300
O 	O 	0.19990 0.31100 0.62390 -0.38600
N 	N 	0.23160 0.47400 0.58700 -0.22200
C 	C 	0.19420 0.41300 0.60040 -0.19000
C 	C 	0.16250 0.51500 0.58820 0.06000
C 	C 	0.18020 0.61300 0.57060 -0.01600
C 	C 	0.21890 0.56900 0.55840 0.10000
C 	C 	0.27440 0.37900 0.59720 -0.35100
C 	C 	0.86340 0.78100 0.68580 0.54600
O 	O 	0.84300 0.69000 0.69940 -0.21000
O 	O 	0.19190 0.41500 0.66690 -0.42300
N 	N 	0.19690 0.35900 0.60000 0.14500
C 	C 	0.21130 0.43800 0.64060 0.38400
C 	C 	0.25610 0.44300 0.64650 -0.22200
C 	C 	0.26200 0.41900 0.61060 0.50100
C 	C 	0.22490 0.36500 0.57810 0.12700
C 	C 	0.14540 0.37100 0.57840 0.03100
Zn	Zn	0.37268 0.06406 0.64406 1.24400
Zn	Zn	0.36110 0.82105 0.57371 1.23600
Zn	Zn	0.59273 0.50427 0.62875 1.23300
Zn	Zn	0.66658 0.74801 0.65989 1.24800
O 	O 	0.37480 0.26750 0.64550 -0.27600
O 	O 	0.30000 0.67750 0.54340 -0.31400
O 	O 	0.35740 0.71620 0.52760 -0.41900
O 	O 	0.42050 0.06490 0.62240 -0.47800
O 	O 	0.41920 0.87720 0.58750 -0.47000
O 	O 	0.35860 0.74880 0.62360 -0.47600
O 	O 	0.38090 0.89330 0.67410 -0.44200
O 	O 	0.17750 0.52540 0.43820 -0.48700
O 	O 	0.18510 0.44860 0.38320 -0.46800
O 	O 	0.56040 0.67340 0.61940 -0.45200
O 	O 	0.61410 0.80970 0.62340 -0.46100
O 	O 	0.38800 0.49600 0.81330 -0.45600
O 	O 	0.36230 0.70170 0.79910 -0.47500
O 	O 	0.32180 0.42060 0.36410 -0.48700
O 	O 	0.37710 0.48760 0.41140 -0.44900
O 	O 	0.53890 0.38130 0.61170 -0.37700
O 	O 	0.59870 0.28580 0.62730 -0.36900
C 	C 	0.37650 0.27800 0.67310 -0.11100
O 	O 	0.37990 0.18560 0.69450 -0.36100
C 	C 	0.37190 0.42070 0.69460 -0.18500
C 	C 	0.37430 0.44230 0.73420 0.09500
H 	H 	0.37670 0.36890 0.75070 0.03600
C 	C 	0.37310 0.57230 0.74910 -0.14700
C 	C 	0.37360 0.68520 0.72470 0.09400
H 	H 	0.37500 0.77240 0.73430 0.03800
C 	C 	0.37200 0.66140 0.68620 -0.15700
C 	C 	0.37150 0.53320 0.67180 0.13000
H 	H 	0.37090 0.52170 0.64580 0.02600
C 	C 	0.32070 0.66760 0.52000 0.31300
C 	C 	0.30330 0.59410 0.48250 -0.10400
C 	C 	0.26330 0.56910 0.46990 0.07100
H 	H 	0.24670 0.59070 0.48570 0.03900
C 	C 	0.24480 0.51020 0.43270 -0.13600
C 	C 	0.26990 0.47120 0.41050 0.06700
H 	H 	0.25900 0.42720 0.38690 0.05000
C 	C 	0.31240 0.49880 0.42390 -0.10600
C 	C 	0.43660 0.98180 0.60560 0.42600
C 	C 	0.32860 0.56000 0.45970 0.05300
H 	H 	0.35660 0.57850 0.46850 0.05400
C 	C 	0.48090 0.00010 0.60790 -0.14800
C 	C 	0.49810 0.12990 0.60960 0.07300
H 	H 	0.48140 0.20520 0.60790 0.04400
C 	C 	0.53940 0.14460 0.61390 -0.10400
C 	C 	0.56360 0.03460 0.61570 0.05700
H 	H 	0.59150 0.04560 0.61820 0.04800
C 	C 	0.54750 0.90680 0.61390 -0.12200
C 	C 	0.50590 0.89130 0.60950 0.09000
H 	H 	0.49470 0.80530 0.60760 0.03700
C 	C 	0.57660 0.78640 0.61960 0.40100
C 	C 	0.37250 0.59180 0.78980 0.41400
C 	C 	0.33940 0.46340 0.39700 0.38900
C 	C 	0.56100 0.28070 0.61750 0.33800
C 	C 	0.19980 0.49150 0.41730 0.41200
C 	C 	0.37080 0.77770 0.65990 0.40400
O 	O 	0.69990 0.81100 0.62390 -0.38800
N 	N 	0.73160 0.97400 0.58700 -0.21800
C 	C 	0.69420 0.91300 0.60040 -0.19700
C 	C 	0.66250 0.01500 0.58820 0.05600
C 	C 	0.68020 0.11300 0.57060 -0.01600
C 	C 	0.71890 0.06900 0.55840 0.09700
C 	C 	0.77440 0.87900 0.59720 -0.34500
C 	C 	0.36340 0.28100 0.68580 0.54400
O 	O 	0.34300 0.19000 0.69940 -0.21100
O 	O 	0.69190 0.91500 0.66690 -0.42200
N 	N 	0.69690 0.85900 0.60000 0.15100
C 	C 	0.71130 0.93800 0.64060 0.38700
C 	C 	0.75610 0.94300 0.64650 -0.21800
C 	C 	0.76200 0.91900 0.61060 0.49500
C 	C 	0.72490 0.86500 0.57810 0.12600
C 	C 	0.64540 0.87100 0.57840 0.03400
