data_crystal

_cell_length_a 10.57700
_cell_length_b 10.57700
_cell_length_c 14.76810
_cell_angle_alpha 90.59750
_cell_angle_beta  90.59750
_cell_angle_gamma 105.75400

_symmetry_space_group_name_	'P 1'
_symmetry_space_group_name_H-M	'P 1'

loop_
_symmetry_equiv_pos_as_xyz
  x,y,z

loop_
_atom_site_label
_atom_site_type_symbol
_atom_site_fract_x
_atom_site_fract_y
_atom_site_fract_z
_atom_site_charge
Gd	Gd	0.32477 0.42739 0.94254 1.49800
Gd	Gd	0.07261 0.17523 0.55746 1.50000
Gd	Gd	0.67523 0.57261 0.05746 1.49800
Gd	Gd	0.92739 0.82477 0.44254 1.50000
H 	H 	0.03910 0.67490 0.15940 0.10200
H 	H 	0.15540 0.80280 0.16950 0.10900
H 	H 	0.38550 0.67650 0.25290 0.14000
H 	H 	0.35940 0.79360 0.19900 0.13100
H 	H 	0.43820 0.21040 0.21250 0.12500
H 	H 	0.44680 0.35440 0.24460 0.13300
H 	H 	0.82510 0.46090 0.34060 0.10100
H 	H 	0.69720 0.34460 0.33050 0.10900
H 	H 	0.82350 0.11450 0.24710 0.13900
H 	H 	0.70640 0.14060 0.30100 0.13100
H 	H 	0.28960 0.06180 0.28750 0.12500
H 	H 	0.14560 0.05320 0.25540 0.13400
H 	H 	0.96090 0.32510 0.84060 0.10200
H 	H 	0.84460 0.19720 0.83050 0.10900
H 	H 	0.61450 0.32350 0.74710 0.14000
H 	H 	0.64060 0.20640 0.80100 0.13100
H 	H 	0.56180 0.78960 0.78750 0.12500
H 	H 	0.55320 0.64560 0.75540 0.13300
H 	H 	0.17490 0.53910 0.65940 0.10100
H 	H 	0.30280 0.65540 0.66950 0.10900
H 	H 	0.17650 0.88550 0.75290 0.13900
H 	H 	0.29360 0.85940 0.69900 0.13100
H 	H 	0.71040 0.93820 0.71250 0.12500
H 	H 	0.85440 0.94680 0.74460 0.13400
C 	C 	0.15430 0.51410 0.23070 0.16300
C 	C 	0.11070 0.72170 0.19910 -0.25400
C 	C 	0.05340 0.75560 0.28620 0.36200
C 	C 	0.34130 0.69870 0.20000 -0.31200
C 	C 	0.40000 0.65360 0.11540 0.46900
C 	C 	0.39430 0.27970 0.21000 -0.30100
C 	C 	0.38370 0.31950 0.11160 0.44300
C 	C 	0.98590 0.34570 0.26930 0.16000
C 	C 	0.77830 0.38930 0.30090 -0.25300
C 	C 	0.74440 0.44660 0.21380 0.36000
C 	C 	0.80130 0.15870 0.30000 -0.31300
C 	C 	0.84640 0.10000 0.38460 0.46900
C 	C 	0.22030 0.10570 0.29000 -0.30100
C 	C 	0.18050 0.11630 0.38840 0.44300
C 	C 	0.84570 0.48590 0.76930 0.16300
C 	C 	0.88930 0.27830 0.80090 -0.25400
C 	C 	0.94660 0.24440 0.71380 0.36200
C 	C 	0.65870 0.30130 0.80000 -0.31200
C 	C 	0.60000 0.34640 0.88460 0.46900
C 	C 	0.60570 0.72030 0.79000 -0.30100
C 	C 	0.61630 0.68050 0.88840 0.44300
C 	C 	0.01410 0.65430 0.73070 0.16000
C 	C 	0.22170 0.61070 0.69910 -0.25300
C 	C 	0.25560 0.55340 0.78620 0.36000
C 	C 	0.19870 0.84130 0.70000 -0.31300
C 	C 	0.15360 0.90000 0.61540 0.46900
C 	C 	0.77970 0.89430 0.71000 -0.30100
C 	C 	0.81950 0.88370 0.61160 0.44300
C 	C 	0.18580 0.31420 0.25000 0.16800
C 	C 	0.81420 0.68580 0.75000 0.16800
N 	N 	0.24090 0.44090 0.23120 -0.16000
N 	N 	0.20140 0.64300 0.20960 -0.05100
N 	N 	0.05910 0.25910 0.26880 -0.15900
N 	N 	0.85700 0.29860 0.29040 -0.05100
N 	N 	0.75910 0.55910 0.76880 -0.16000
N 	N 	0.79860 0.35700 0.79040 -0.05100
N 	N 	0.94090 0.74090 0.73120 -0.15900
N 	N 	0.14300 0.70140 0.70960 -0.05100
N 	N 	0.02670 0.47330 0.25000 -0.16100
N 	N 	0.26560 0.23440 0.25000 -0.04900
N 	N 	0.97330 0.52670 0.75000 -0.16100
N 	N 	0.73440 0.76560 0.75000 -0.04900
O 	O 	0.95050 0.79570 0.28010 -0.40800
O 	O 	0.10510 0.75090 0.36150 -0.36900
O 	O 	0.32420 0.59260 0.05420 -0.43200
O 	O 	0.52450 0.68230 0.11510 -0.44300
O 	O 	0.28610 0.26370 0.06400 -0.42200
O 	O 	0.47600 0.40980 0.07900 -0.50000
O 	O 	0.70430 0.54950 0.21990 -0.40600
O 	O 	0.74910 0.39490 0.13850 -0.36900
O 	O 	0.90740 0.17580 0.44580 -0.43300
O 	O 	0.81770 0.97550 0.38490 -0.44400
O 	O 	0.23630 0.21390 0.43600 -0.42300
O 	O 	0.09020 0.02400 0.42100 -0.50000
O 	O 	0.04950 0.20430 0.71990 -0.40800
O 	O 	0.89490 0.24910 0.63850 -0.36900
O 	O 	0.67580 0.40740 0.94580 -0.43200
O 	O 	0.47550 0.31770 0.88490 -0.44300
O 	O 	0.71390 0.73630 0.93600 -0.42200
O 	O 	0.52400 0.59020 0.92100 -0.50000
O 	O 	0.29570 0.45050 0.78010 -0.40600
O 	O 	0.25090 0.60510 0.86150 -0.36900
O 	O 	0.09260 0.82420 0.55420 -0.43300
O 	O 	0.18230 0.02450 0.61510 -0.44400
O 	O 	0.76370 0.78610 0.56400 -0.42300
O 	O 	0.90980 0.97600 0.57900 -0.50000
