data_crystal

_cell_length_a 14.04400
_cell_length_b 20.29700
_cell_length_c 23.63500
_cell_angle_alpha 90.00000
_cell_angle_beta  90.00000
_cell_angle_gamma 90.00000

_symmetry_space_group_name_	'P 1'
_symmetry_space_group_name_H-M	'P 1'

loop_
_symmetry_equiv_pos_as_xyz
  x,y,z

loop_
_atom_site_label
_atom_site_type_symbol
_atom_site_fract_x
_atom_site_fract_y
_atom_site_fract_z
_atom_site_charge
N 	N 	0.47960 0.70400 0.08320 -0.25900
C 	C 	0.56460 0.68320 0.08050 0.10500
H 	H 	0.59230 0.67080 0.11470 -0.03100
C 	C 	0.44100 0.72060 0.03330 0.08500
H 	H 	0.37930 0.73720 0.03280 -0.01100
Cd	Cd	0.89999 0.73070 0.83136 1.17500
N 	N 	0.88700 0.84270 0.85650 -0.16300
N 	N 	0.88140 0.86390 0.90710 -0.05900
N 	N 	0.87490 0.92870 0.90410 -0.08800
N 	N 	0.88460 0.89100 0.81810 -0.12300
N 	N 	0.85530 0.14330 0.78860 -0.24300
N 	N 	0.75040 0.70230 0.87190 -0.17400
N 	N 	0.66750 0.70720 0.84320 -0.16800
N 	N 	0.59380 0.70390 0.87820 -0.10300
N 	N 	0.72940 0.69380 0.92630 -0.10100
N 	N 	0.03920 0.75250 0.77930 -0.18100
N 	N 	0.12750 0.74940 0.79730 -0.10300
C 	C 	0.88110 0.94480 0.84990 0.09600
C 	C 	0.87420 0.01290 0.82870 0.04600
C 	C 	0.86540 0.06530 0.86580 -0.11800
H 	H 	0.86550 0.05810 0.90460 0.08500
C 	C 	0.87120 0.02850 0.77000 -0.12900
H 	H 	0.87320 0.99540 0.74280 0.06300
C 	C 	0.85640 0.12950 0.84430 0.06600
H 	H 	0.85090 0.16420 0.86980 -0.00000
C 	C 	0.86540 0.09160 0.75470 0.07300
H 	H 	0.86880 0.10040 0.71620 -0.02000
C 	C 	0.63400 0.69640 0.93050 0.07500
C 	C 	0.58070 0.69470 0.98210 0.07600
C 	C 	0.48790 0.71430 0.98350 -0.15200
H 	H 	0.45640 0.72340 0.94980 0.08800
C 	C 	0.62210 0.67660 0.03190 -0.16000
H 	H 	0.68420 0.66090 0.03370 0.08900
C 	C 	0.43700 0.76440 0.79690 0.07300
H 	H 	0.47010 0.77470 0.82980 -0.00800
C 	C 	0.34060 0.76440 0.79800 -0.12500
H 	H 	0.31010 0.77430 0.83190 0.07800
N 	N 	0.02040 0.29600 0.08320 -0.25800
C 	C 	0.93540 0.31680 0.08050 0.10600
H 	H 	0.90770 0.32920 0.11470 -0.03000
C 	C 	0.05900 0.27940 0.03330 0.08100
H 	H 	0.12070 0.26280 0.03280 -0.00900
Cd	Cd	0.60001 0.26930 0.83136 1.17600
N 	N 	0.61300 0.15730 0.85650 -0.16200
N 	N 	0.61860 0.13610 0.90710 -0.05800
N 	N 	0.62510 0.07130 0.90410 -0.08700
N 	N 	0.61540 0.10900 0.81810 -0.12200
N 	N 	0.64470 0.85670 0.78860 -0.24200
N 	N 	0.74960 0.29770 0.87190 -0.17300
N 	N 	0.83250 0.29280 0.84320 -0.16700
N 	N 	0.90620 0.29610 0.87820 -0.10200
N 	N 	0.77060 0.30620 0.92630 -0.10000
N 	N 	0.46080 0.24750 0.77930 -0.18000
N 	N 	0.37250 0.25060 0.79730 -0.10200
C 	C 	0.61890 0.05520 0.84990 0.09800
C 	C 	0.62580 0.98710 0.82870 0.04600
C 	C 	0.63460 0.93470 0.86580 -0.11600
H 	H 	0.63450 0.94190 0.90460 0.08600
C 	C 	0.62880 0.97150 0.77000 -0.12900
H 	H 	0.62680 0.00460 0.74280 0.06400
C 	C 	0.64360 0.87050 0.84430 0.06600
H 	H 	0.64910 0.83580 0.86980 -0.00000
C 	C 	0.63460 0.90840 0.75470 0.07400
H 	H 	0.63120 0.89960 0.71620 -0.02000
C 	C 	0.86600 0.30360 0.93050 0.07600
C 	C 	0.91930 0.30530 0.98210 0.07100
C 	C 	0.01210 0.28570 0.98350 -0.14600
H 	H 	0.04360 0.27660 0.94980 0.08600
C 	C 	0.87790 0.32340 0.03190 -0.15700
H 	H 	0.81580 0.33910 0.03370 0.08700
C 	C 	0.06300 0.23560 0.79690 0.07300
H 	H 	0.02990 0.22530 0.82980 -0.00800
C 	C 	0.15940 0.23560 0.79800 -0.12500
H 	H 	0.18990 0.22570 0.83190 0.07800
N 	N 	0.02040 0.20400 0.41680 -0.25900
C 	C 	0.93540 0.18320 0.41950 0.10700
H 	H 	0.90770 0.17080 0.38530 -0.03100
C 	C 	0.05900 0.22060 0.46670 0.08700
H 	H 	0.12070 0.23720 0.46720 -0.01100
Cd	Cd	0.60001 0.23070 0.66864 1.17600
N 	N 	0.61300 0.34270 0.64350 -0.16200
N 	N 	0.61860 0.36390 0.59290 -0.05700
N 	N 	0.62510 0.42870 0.59590 -0.08700
N 	N 	0.61540 0.39100 0.68190 -0.12200
N 	N 	0.64470 0.64330 0.71140 -0.24200
N 	N 	0.74960 0.20230 0.62810 -0.17300
N 	N 	0.83250 0.20720 0.65680 -0.16700
N 	N 	0.90620 0.20390 0.62180 -0.10200
N 	N 	0.77060 0.19380 0.57370 -0.10000
N 	N 	0.46080 0.25250 0.72070 -0.18000
N 	N 	0.37250 0.24940 0.70270 -0.10200
C 	C 	0.61890 0.44480 0.65010 0.09800
C 	C 	0.62580 0.51290 0.67130 0.04700
C 	C 	0.63460 0.56530 0.63420 -0.11700
H 	H 	0.63450 0.55810 0.59540 0.08600
C 	C 	0.62880 0.52850 0.73000 -0.12900
H 	H 	0.62680 0.49540 0.75720 0.06300
C 	C 	0.64360 0.62950 0.65570 0.06600
H 	H 	0.64910 0.66420 0.63020 -0.00000
C 	C 	0.63460 0.59160 0.74530 0.07400
H 	H 	0.63120 0.60040 0.78380 -0.02000
C 	C 	0.86600 0.19640 0.56950 0.07400
C 	C 	0.91930 0.19470 0.51790 0.07800
C 	C 	0.01210 0.21430 0.51650 -0.15400
H 	H 	0.04360 0.22340 0.55020 0.08800
C 	C 	0.87790 0.17660 0.46810 -0.16200
H 	H 	0.81580 0.16090 0.46630 0.08900
C 	C 	0.06300 0.26440 0.70310 0.07300
H 	H 	0.02990 0.27470 0.67020 -0.00800
C 	C 	0.15940 0.26440 0.70200 -0.12500
H 	H 	0.18990 0.27430 0.66810 0.07800
N 	N 	0.47960 0.79600 0.41680 -0.25800
C 	C 	0.56460 0.81680 0.41950 0.10600
H 	H 	0.59230 0.82920 0.38530 -0.03000
C 	C 	0.44100 0.77940 0.46670 0.08600
H 	H 	0.37930 0.76280 0.46720 -0.01000
Cd	Cd	0.89999 0.76930 0.66864 1.17600
N 	N 	0.88700 0.65730 0.64350 -0.16200
N 	N 	0.88140 0.63610 0.59290 -0.05800
N 	N 	0.87490 0.57130 0.59590 -0.08700
N 	N 	0.88460 0.60900 0.68190 -0.12200
N 	N 	0.85530 0.35670 0.71140 -0.24200
N 	N 	0.75040 0.79770 0.62810 -0.17300
N 	N 	0.66750 0.79280 0.65680 -0.16700
N 	N 	0.59380 0.79610 0.62180 -0.10200
N 	N 	0.72940 0.80620 0.57370 -0.10000
N 	N 	0.03920 0.74750 0.72070 -0.18000
N 	N 	0.12750 0.75060 0.70270 -0.10200
C 	C 	0.88110 0.55520 0.65010 0.09800
C 	C 	0.87420 0.48710 0.67130 0.04700
C 	C 	0.86540 0.43470 0.63420 -0.11700
H 	H 	0.86550 0.44190 0.59540 0.08600
C 	C 	0.87120 0.47150 0.73000 -0.12900
H 	H 	0.87320 0.50460 0.75720 0.06300
C 	C 	0.85640 0.37050 0.65570 0.06600
H 	H 	0.85090 0.33580 0.63020 -0.00000
C 	C 	0.86540 0.40840 0.74530 0.07400
H 	H 	0.86880 0.39960 0.78380 -0.02000
C 	C 	0.63400 0.80360 0.56950 0.07500
C 	C 	0.58070 0.80530 0.51790 0.07700
C 	C 	0.48790 0.78570 0.51650 -0.15300
H 	H 	0.45640 0.77660 0.55020 0.08800
C 	C 	0.62210 0.82340 0.46810 -0.16100
H 	H 	0.68420 0.83910 0.46630 0.08900
C 	C 	0.43700 0.73560 0.70310 0.07300
H 	H 	0.47010 0.72530 0.67020 -0.00800
C 	C 	0.34060 0.73560 0.70200 -0.12500
H 	H 	0.31010 0.72570 0.66810 0.07800
N 	N 	0.52040 0.29600 0.91680 -0.25800
C 	C 	0.43540 0.31680 0.91950 0.10600
H 	H 	0.40770 0.32920 0.88530 -0.03000
C 	C 	0.55900 0.27940 0.96670 0.08600
H 	H 	0.62070 0.26280 0.96720 -0.01000
Cd	Cd	0.10001 0.26930 0.16864 1.17600
N 	N 	0.11300 0.15730 0.14350 -0.16200
N 	N 	0.11860 0.13610 0.09290 -0.05800
N 	N 	0.12510 0.07130 0.09590 -0.08700
N 	N 	0.11540 0.10900 0.18190 -0.12200
N 	N 	0.14470 0.85670 0.21140 -0.24200
N 	N 	0.24960 0.29770 0.12810 -0.17300
N 	N 	0.33250 0.29280 0.15680 -0.16700
N 	N 	0.40620 0.29610 0.12180 -0.10200
N 	N 	0.27060 0.30620 0.07370 -0.10000
N 	N 	0.96080 0.24750 0.22070 -0.18000
N 	N 	0.87250 0.25060 0.20270 -0.10200
C 	C 	0.11890 0.05520 0.15010 0.09700
C 	C 	0.12580 0.98710 0.17130 0.04700
C 	C 	0.13460 0.93470 0.13420 -0.11700
H 	H 	0.13450 0.94190 0.09540 0.08600
C 	C 	0.12880 0.97150 0.23000 -0.12800
H 	H 	0.12680 0.00460 0.25720 0.06300
C 	C 	0.14360 0.87050 0.15570 0.06600
H 	H 	0.14910 0.83580 0.13020 -0.00000
C 	C 	0.13460 0.90840 0.24530 0.07300
H 	H 	0.13120 0.89960 0.28380 -0.02000
C 	C 	0.36600 0.30360 0.06950 0.07500
C 	C 	0.41930 0.30530 0.01790 0.07600
C 	C 	0.51210 0.28570 0.01650 -0.15200
H 	H 	0.54360 0.27660 0.05020 0.08800
C 	C 	0.37790 0.32340 0.96810 -0.16000
H 	H 	0.31580 0.33910 0.96630 0.08900
C 	C 	0.56300 0.23560 0.20310 0.07300
H 	H 	0.52990 0.22530 0.17020 -0.00800
C 	C 	0.65940 0.23560 0.20200 -0.12500
H 	H 	0.68990 0.22570 0.16810 0.07800
N 	N 	0.97960 0.70400 0.91680 -0.25800
C 	C 	0.06460 0.68320 0.91950 0.10600
H 	H 	0.09230 0.67080 0.88530 -0.03000
C 	C 	0.94100 0.72060 0.96670 0.08100
H 	H 	0.87930 0.73720 0.96720 -0.00900
Cd	Cd	0.39999 0.73070 0.16864 1.17600
N 	N 	0.38700 0.84270 0.14350 -0.16200
N 	N 	0.38140 0.86390 0.09290 -0.05800
N 	N 	0.37490 0.92870 0.09590 -0.08700
N 	N 	0.38460 0.89100 0.18190 -0.12200
N 	N 	0.35530 0.14330 0.21140 -0.24200
N 	N 	0.25040 0.70230 0.12810 -0.17300
N 	N 	0.16750 0.70720 0.15680 -0.16700
N 	N 	0.09380 0.70390 0.12180 -0.10200
N 	N 	0.22940 0.69380 0.07370 -0.10000
N 	N 	0.53920 0.75250 0.22070 -0.18000
N 	N 	0.62750 0.74940 0.20270 -0.10200
C 	C 	0.38110 0.94480 0.15010 0.09800
C 	C 	0.37420 0.01290 0.17130 0.04600
C 	C 	0.36540 0.06530 0.13420 -0.11600
H 	H 	0.36550 0.05810 0.09540 0.08600
C 	C 	0.37120 0.02850 0.23000 -0.12900
H 	H 	0.37320 0.99540 0.25720 0.06400
C 	C 	0.35640 0.12950 0.15570 0.06600
H 	H 	0.35090 0.16420 0.13020 -0.00000
C 	C 	0.36540 0.09160 0.24530 0.07400
H 	H 	0.36880 0.10040 0.28380 -0.02000
C 	C 	0.13400 0.69640 0.06950 0.07600
C 	C 	0.08070 0.69470 0.01790 0.07100
C 	C 	0.98790 0.71430 0.01650 -0.14600
H 	H 	0.95640 0.72340 0.05020 0.08600
C 	C 	0.12210 0.67660 0.96810 -0.15700
H 	H 	0.18420 0.66090 0.96630 0.08700
C 	C 	0.93700 0.76440 0.20310 0.07300
H 	H 	0.97010 0.77470 0.17020 -0.00800
C 	C 	0.84060 0.76440 0.20200 -0.12500
H 	H 	0.81010 0.77430 0.16810 0.07800
N 	N 	0.97960 0.79600 0.58320 -0.25900
C 	C 	0.06460 0.81680 0.58050 0.10700
H 	H 	0.09230 0.82920 0.61470 -0.03100
C 	C 	0.94100 0.77940 0.53330 0.08700
H 	H 	0.87930 0.76280 0.53280 -0.01100
Cd	Cd	0.39999 0.76930 0.33136 1.17600
N 	N 	0.38700 0.65730 0.35650 -0.16200
N 	N 	0.38140 0.63610 0.40710 -0.05700
N 	N 	0.37490 0.57130 0.40410 -0.08700
N 	N 	0.38460 0.60900 0.31810 -0.12200
N 	N 	0.35530 0.35670 0.28860 -0.24200
N 	N 	0.25040 0.79770 0.37190 -0.17300
N 	N 	0.16750 0.79280 0.34320 -0.16700
N 	N 	0.09380 0.79610 0.37820 -0.10200
N 	N 	0.22940 0.80620 0.42630 -0.10000
N 	N 	0.53920 0.74750 0.27930 -0.18000
N 	N 	0.62750 0.75060 0.29730 -0.10200
C 	C 	0.38110 0.55520 0.34990 0.09800
C 	C 	0.37420 0.48710 0.32870 0.04700
C 	C 	0.36540 0.43470 0.36580 -0.11700
H 	H 	0.36550 0.44190 0.40460 0.08600
C 	C 	0.37120 0.47150 0.27000 -0.12900
H 	H 	0.37320 0.50460 0.24280 0.06300
C 	C 	0.35640 0.37050 0.34430 0.06600
H 	H 	0.35090 0.33580 0.36980 -0.00000
C 	C 	0.36540 0.40840 0.25470 0.07400
H 	H 	0.36880 0.39960 0.21620 -0.02000
C 	C 	0.13400 0.80360 0.43050 0.07400
C 	C 	0.08070 0.80530 0.48210 0.07800
C 	C 	0.98790 0.78570 0.48350 -0.15400
H 	H 	0.95640 0.77660 0.44980 0.08800
C 	C 	0.12210 0.82340 0.53190 -0.16200
H 	H 	0.18420 0.83910 0.53370 0.08900
C 	C 	0.93700 0.73560 0.29690 0.07300
H 	H 	0.97010 0.72530 0.32980 -0.00800
C 	C 	0.84060 0.73560 0.29800 -0.12500
H 	H 	0.81010 0.72570 0.33190 0.07800
N 	N 	0.52040 0.20400 0.58320 -0.25800
C 	C 	0.43540 0.18320 0.58050 0.10600
H 	H 	0.40770 0.17080 0.61470 -0.03000
C 	C 	0.55900 0.22060 0.53330 0.08600
H 	H 	0.62070 0.23720 0.53280 -0.01000
Cd	Cd	0.10001 0.23070 0.33136 1.17600
N 	N 	0.11300 0.34270 0.35650 -0.16200
N 	N 	0.11860 0.36390 0.40710 -0.05800
N 	N 	0.12510 0.42870 0.40410 -0.08700
N 	N 	0.11540 0.39100 0.31810 -0.12200
N 	N 	0.14470 0.64330 0.28860 -0.24200
N 	N 	0.24960 0.20230 0.37190 -0.17300
N 	N 	0.33250 0.20720 0.34320 -0.16700
N 	N 	0.40620 0.20390 0.37820 -0.10200
N 	N 	0.27060 0.19380 0.42630 -0.10000
N 	N 	0.96080 0.25250 0.27930 -0.18000
N 	N 	0.87250 0.24940 0.29730 -0.10200
C 	C 	0.11890 0.44480 0.34990 0.09800
C 	C 	0.12580 0.51290 0.32870 0.04700
C 	C 	0.13460 0.56530 0.36580 -0.11700
H 	H 	0.13450 0.55810 0.40460 0.08600
C 	C 	0.12880 0.52850 0.27000 -0.12900
H 	H 	0.12680 0.49540 0.24280 0.06300
C 	C 	0.14360 0.62950 0.34430 0.06600
H 	H 	0.14910 0.66420 0.36980 -0.00000
C 	C 	0.13460 0.59160 0.25470 0.07400
H 	H 	0.13120 0.60040 0.21620 -0.02000
C 	C 	0.36600 0.19640 0.43050 0.07500
C 	C 	0.41930 0.19470 0.48210 0.07700
C 	C 	0.51210 0.21430 0.48350 -0.15300
H 	H 	0.54360 0.22340 0.44980 0.08800
C 	C 	0.37790 0.17660 0.53190 -0.16100
H 	H 	0.31580 0.16090 0.53370 0.08900
C 	C 	0.56300 0.26440 0.29690 0.07300
H 	H 	0.52990 0.27470 0.32980 -0.00800
C 	C 	0.65940 0.26440 0.29800 -0.12500
H 	H 	0.68990 0.27430 0.33190 0.07800
Cd	Cd	0.65567 0.75000 0.75000 1.19200
O 	O 	0.81550 0.75000 0.75000 -0.63600
N 	N 	0.48610 0.75000 0.75000 -0.23400
C 	C 	0.18040 0.75000 0.75000 0.08800
C 	C 	0.28390 0.75000 0.75000 0.04500
Cd	Cd	0.84433 0.25000 0.75000 1.19200
O 	O 	0.68450 0.25000 0.75000 -0.63600
N 	N 	0.01390 0.25000 0.75000 -0.23400
C 	C 	0.31960 0.25000 0.75000 0.08800
C 	C 	0.21610 0.25000 0.75000 0.04500
Cd	Cd	0.34433 0.25000 0.25000 1.19200
O 	O 	0.18450 0.25000 0.25000 -0.63600
N 	N 	0.51390 0.25000 0.25000 -0.23400
C 	C 	0.81960 0.25000 0.25000 0.08800
C 	C 	0.71610 0.25000 0.25000 0.04500
Cd	Cd	0.15567 0.75000 0.25000 1.19200
O 	O 	0.31550 0.75000 0.25000 -0.63600
N 	N 	0.98610 0.75000 0.25000 -0.23400
C 	C 	0.68040 0.75000 0.25000 0.08800
C 	C 	0.78390 0.75000 0.25000 0.04500
