data_crystal

_cell_length_a 27.05530
_cell_length_b 27.05530
_cell_length_c 63.15900
_cell_angle_alpha 90.00000
_cell_angle_beta  90.00000
_cell_angle_gamma 120.00000

_symmetry_space_group_name_	'P 1'
_symmetry_space_group_name_H-M	'P 1'

loop_
_symmetry_equiv_pos_as_xyz
  x,y,z

loop_
_atom_site_label
_atom_site_type_symbol
_atom_site_fract_x
_atom_site_fract_y
_atom_site_fract_z
_atom_site_charge
Cu	Cu	0.85702 0.08898 0.15174 0.80100
Cu	Cu	0.95630 0.42344 0.02299 0.80600
Cu	Cu	0.89884 0.49097 0.99414 0.80200
S 	S 	0.80103 0.15666 0.07562 -0.07000
S 	S 	0.84480 0.28038 0.02911 -0.07200
S 	S 	0.05290 0.53107 0.92619 -0.09900
S 	S 	0.12651 0.41712 0.97147 -0.08500
S 	S 	0.01790 0.27151 0.20423 -0.10000
S 	S 	0.93421 0.38230 0.17185 -0.09900
N 	N 	0.85510 0.10020 0.08863 -0.06300
N 	N 	0.86590 0.07980 0.10603 -0.07700
N 	N 	0.84480 0.09480 0.12151 -0.19400
N 	N 	0.78910 0.33030 0.00988 -0.06800
N 	N 	0.80030 0.38030 0.00159 -0.07800
N 	N 	0.85390 0.41490 0.00591 -0.19600
N 	N 	0.87670 0.38770 0.01601 -0.24100
N 	N 	0.01820 0.20820 0.16968 -0.06300
N 	N 	0.98090 0.16860 0.15678 -0.07900
N 	N 	0.93080 0.15940 0.16194 -0.18700
N 	N 	0.80460 0.05790 0.17593 -0.24600
N 	N 	0.93960 0.46240 0.93427 -0.07100
N 	N 	0.90150 0.45090 0.94988 -0.07200
N 	N 	0.93050 0.48080 0.96550 -0.18100
N 	N 	0.01260 0.48700 0.03916 -0.25500
N 	N 	0.02300 0.34260 0.98911 -0.06500
N 	N 	0.98300 0.34310 0.00127 -0.07200
N 	N 	0.00120 0.39570 0.00614 -0.18500
N 	N 	0.94770 0.57020 0.00268 -0.24200
C 	C 	0.82560 0.12690 0.09360 0.09100
C 	C 	0.86440 0.22480 0.07120 -0.13000
H 	H 	0.89360 0.23080 0.08190 0.05900
H 	H 	0.88020 0.22500 0.05700 0.06500
C 	C 	0.85160 0.27150 0.07240 -0.02200
H 	H 	0.83320 0.26870 0.08630 0.02000
H 	H 	0.88820 0.30800 0.07230 0.01900
C 	C 	0.81550 0.27410 0.05610 -0.13000
H 	H 	0.81040 0.30740 0.05880 0.05300
H 	H 	0.77740 0.23930 0.05680 0.06400
C 	C 	0.83600 0.33460 0.01822 0.09500
C 	C 	0.87380 0.09280 0.06810 -0.25900
H 	H 	0.89440 0.07180 0.06960 0.10000
H 	H 	0.89910 0.13030 0.06180 0.09800
H 	H 	0.84050 0.07140 0.05890 0.09800
C 	C 	0.73130 0.28030 0.00780 -0.25900
H 	H 	0.73000 0.24740 0.01490 0.09300
H 	H 	0.72210 0.27150 0.99280 0.09400
H 	H 	0.70350 0.28870 0.01440 0.10100
C 	C 	0.98950 0.22460 0.18350 0.08200
C 	C 	0.05220 0.33980 0.19370 -0.08000
H 	H 	0.06290 0.36690 0.20560 0.03800
H 	H 	0.08830 0.34610 0.18720 0.04200
C 	C 	0.99820 0.31720 0.19850 -0.00900
H 	H 	0.95610 0.29580 0.19710 -0.01400
H 	H 	0.00750 0.34300 0.21080 0.01900
C 	C 	0.02310 0.35630 0.17780 -0.08200
H 	H 	0.00710 0.32720 0.16640 0.05500
H 	H 	0.05080 0.39330 0.17130 0.04600
C 	C 	0.97320 0.36160 0.18890 -0.03600
H 	H 	0.94620 0.32430 0.19530 0.01200
H 	H 	0.98980 0.38990 0.20050 0.02100
C 	C 	0.66010 0.93470 0.15730 -0.08000
H 	H 	0.64700 0.91170 0.14410 0.03800
H 	H 	0.63730 0.90900 0.16890 0.03300
C 	C 	0.07680 0.22340 0.16970 -0.25900
H 	H 	0.08420 0.20470 0.15780 0.09700
H 	H 	0.08570 0.21100 0.18310 0.09500
H 	H 	0.10070 0.26490 0.16840 0.10200
C 	C 	0.99000 0.49820 0.94120 0.09900
C 	C 	0.06330 0.47130 0.92240 -0.10500
H 	H 	0.10030 0.48670 0.91500 0.05000
H 	H 	0.03370 0.44640 0.91210 0.05300
C 	C 	0.06370 0.43030 0.93970 -0.00200
H 	H 	0.03220 0.42130 0.94970 0.02400
H 	H 	0.05520 0.39420 0.93270 0.02300
C 	C 	0.08070 0.47160 0.94580 -0.06200
H 	H 	0.10190 0.51190 0.95060 -0.00100
H 	H 	0.04520 0.45230 0.95430 0.01600
C 	C 	0.11050 0.44880 0.95040 -0.10200
H 	H 	0.11890 0.48650 0.95590 0.04300
H 	H 	0.14030 0.45690 0.93970 0.05000
C 	C 	0.06550 0.39610 0.98628 0.08700
C 	C 	0.91950 0.43410 0.91410 -0.25700
H 	H 	0.95190 0.44650 0.90440 0.09700
H 	H 	0.90080 0.39270 0.91610 0.10000
H 	H 	0.89210 0.44390 0.90810 0.09800
C 	C 	0.01540 0.28860 0.98080 -0.26500
H 	H 	0.04840 0.29610 0.97210 0.10400
H 	H 	0.98060 0.27000 0.97220 0.10400
H 	H 	0.01190 0.26360 0.99270 0.10100
Cu	Cu	0.52369 0.42231 0.48507 0.80000
Cu	Cu	0.62297 0.75677 0.35632 0.80500
Cu	Cu	0.56551 0.82430 0.32747 0.80100
S 	S 	0.46770 0.48999 0.40895 -0.07000
S 	S 	0.51147 0.61371 0.36244 -0.07300
S 	S 	0.71957 0.86440 0.25952 -0.10000
S 	S 	0.79318 0.75045 0.30480 -0.08500
S 	S 	0.68457 0.60484 0.53756 -0.10000
S 	S 	0.60088 0.71563 0.50518 -0.09900
N 	N 	0.52177 0.43353 0.42196 -0.06300
N 	N 	0.53257 0.41313 0.43936 -0.07600
N 	N 	0.51147 0.42813 0.45484 -0.19400
N 	N 	0.45577 0.66363 0.34321 -0.06800
N 	N 	0.46697 0.71363 0.33492 -0.07800
N 	N 	0.52057 0.74823 0.33924 -0.19600
N 	N 	0.54337 0.72103 0.34934 -0.24100
N 	N 	0.68487 0.54153 0.50301 -0.06300
N 	N 	0.64757 0.50193 0.49011 -0.07900
N 	N 	0.59747 0.49273 0.49527 -0.18700
N 	N 	0.47127 0.39123 0.50926 -0.24600
N 	N 	0.60627 0.79573 0.26760 -0.07100
N 	N 	0.56817 0.78423 0.28321 -0.07200
N 	N 	0.59717 0.81413 0.29883 -0.18100
N 	N 	0.67927 0.82033 0.37249 -0.25500
N 	N 	0.68967 0.67593 0.32244 -0.06500
N 	N 	0.64967 0.67643 0.33460 -0.07200
N 	N 	0.66787 0.72903 0.33947 -0.18500
N 	N 	0.61437 0.90353 0.33601 -0.24200
C 	C 	0.49227 0.46023 0.42693 0.09100
C 	C 	0.53107 0.55813 0.40453 -0.13000
H 	H 	0.56027 0.56413 0.41523 0.05900
H 	H 	0.54687 0.55833 0.39033 0.06500
C 	C 	0.51827 0.60483 0.40573 -0.02200
H 	H 	0.49987 0.60203 0.41963 0.02000
H 	H 	0.55487 0.64133 0.40563 0.01900
C 	C 	0.48217 0.60743 0.38943 -0.13000
H 	H 	0.47707 0.64073 0.39213 0.05300
H 	H 	0.44407 0.57263 0.39013 0.06400
C 	C 	0.50267 0.66793 0.35155 0.09500
C 	C 	0.54047 0.42613 0.40143 -0.25900
H 	H 	0.56107 0.40513 0.40293 0.10000
H 	H 	0.56577 0.46363 0.39513 0.09800
H 	H 	0.50717 0.40473 0.39223 0.09800
C 	C 	0.39797 0.61363 0.34113 -0.25900
H 	H 	0.39667 0.58073 0.34823 0.09300
H 	H 	0.38877 0.60483 0.32613 0.09400
H 	H 	0.37017 0.62203 0.34773 0.10100
C 	C 	0.65617 0.55793 0.51683 0.08200
C 	C 	0.71887 0.67313 0.52703 -0.08000
H 	H 	0.72957 0.70023 0.53893 0.03900
H 	H 	0.75497 0.67943 0.52053 0.04200
C 	C 	0.66487 0.65053 0.53183 -0.00800
H 	H 	0.62277 0.62913 0.53043 -0.01400
H 	H 	0.67417 0.67633 0.54413 0.01800
C 	C 	0.68977 0.68963 0.51113 -0.08200
H 	H 	0.67377 0.66053 0.49973 0.05500
H 	H 	0.71747 0.72663 0.50463 0.04600
C 	C 	0.63987 0.69493 0.52223 -0.03600
H 	H 	0.61287 0.65763 0.52863 0.01200
H 	H 	0.65647 0.72323 0.53383 0.02100
C 	C 	0.32677 0.26803 0.49063 -0.07800
H 	H 	0.31367 0.24503 0.47743 0.03800
H 	H 	0.30397 0.24233 0.50223 0.03300
C 	C 	0.74347 0.55673 0.50303 -0.25900
H 	H 	0.75087 0.53803 0.49113 0.09700
H 	H 	0.75237 0.54433 0.51643 0.09500
H 	H 	0.76737 0.59823 0.50173 0.10200
C 	C 	0.65667 0.83153 0.27453 0.09900
C 	C 	0.72997 0.80463 0.25573 -0.10500
H 	H 	0.76697 0.82003 0.24833 0.05000
H 	H 	0.70037 0.77973 0.24543 0.05300
C 	C 	0.73037 0.76363 0.27303 -0.00200
H 	H 	0.69887 0.75463 0.28303 0.02400
H 	H 	0.72187 0.72753 0.26603 0.02300
C 	C 	0.74737 0.80493 0.27913 -0.06200
H 	H 	0.76857 0.84523 0.28393 -0.00100
H 	H 	0.71187 0.78563 0.28763 0.01600
C 	C 	0.77717 0.78213 0.28373 -0.10200
H 	H 	0.78557 0.81983 0.28923 0.04300
H 	H 	0.80697 0.79023 0.27303 0.05000
C 	C 	0.73217 0.72943 0.31961 0.08700
C 	C 	0.58617 0.76743 0.24743 -0.25700
H 	H 	0.61857 0.77983 0.23773 0.09700
H 	H 	0.56747 0.72603 0.24943 0.10000
H 	H 	0.55877 0.77723 0.24143 0.09800
C 	C 	0.68207 0.62193 0.31413 -0.26500
H 	H 	0.71507 0.62943 0.30543 0.10400
H 	H 	0.64727 0.60333 0.30553 0.10400
H 	H 	0.67857 0.59693 0.32603 0.10100
Cu	Cu	0.19035 0.75565 0.81841 0.80000
Cu	Cu	0.28963 0.09011 0.68966 0.80500
Cu	Cu	0.23217 0.15764 0.66081 0.80100
S 	S 	0.13436 0.82333 0.74229 -0.07100
S 	S 	0.17813 0.94705 0.69578 -0.07300
S 	S 	0.38623 0.19774 0.59286 -0.10000
S 	S 	0.45984 0.08379 0.63814 -0.08500
S 	S 	0.35123 0.93818 0.87090 -0.10000
S 	S 	0.26754 0.04897 0.83852 -0.09900
N 	N 	0.18843 0.76687 0.75530 -0.06300
N 	N 	0.19923 0.74647 0.77270 -0.07600
N 	N 	0.17813 0.76147 0.78818 -0.19400
N 	N 	0.12243 0.99697 0.67655 -0.06800
N 	N 	0.13363 0.04697 0.66826 -0.07800
N 	N 	0.18723 0.08157 0.67258 -0.19600
N 	N 	0.21003 0.05437 0.68268 -0.24100
N 	N 	0.35153 0.87487 0.83635 -0.06300
N 	N 	0.31423 0.83527 0.82345 -0.07900
N 	N 	0.26413 0.82607 0.82861 -0.18700
N 	N 	0.13793 0.72457 0.84260 -0.24600
N 	N 	0.27293 0.12907 0.60094 -0.07100
N 	N 	0.23483 0.11757 0.61655 -0.07200
N 	N 	0.26383 0.14747 0.63217 -0.18100
N 	N 	0.34593 0.15367 0.70583 -0.25500
N 	N 	0.35633 0.00927 0.65578 -0.06500
N 	N 	0.31633 0.00977 0.66794 -0.07200
N 	N 	0.33453 0.06237 0.67281 -0.18500
N 	N 	0.28103 0.23687 0.66935 -0.24200
C 	C 	0.15893 0.79357 0.76027 0.09100
C 	C 	0.19773 0.89147 0.73787 -0.13000
H 	H 	0.22693 0.89747 0.74857 0.05900
H 	H 	0.21353 0.89167 0.72367 0.06500
C 	C 	0.18493 0.93817 0.73907 -0.02200
H 	H 	0.16653 0.93537 0.75297 0.02000
H 	H 	0.22153 0.97467 0.73897 0.01900
C 	C 	0.14883 0.94077 0.72277 -0.13000
H 	H 	0.14373 0.97407 0.72547 0.05300
H 	H 	0.11073 0.90597 0.72347 0.06400
C 	C 	0.16933 0.00127 0.68489 0.09600
C 	C 	0.20713 0.75947 0.73477 -0.25900
H 	H 	0.22773 0.73847 0.73627 0.10000
H 	H 	0.23243 0.79697 0.72847 0.09800
H 	H 	0.17383 0.73807 0.72557 0.09800
C 	C 	0.06463 0.94697 0.67447 -0.25900
H 	H 	0.06333 0.91407 0.68157 0.09300
H 	H 	0.05543 0.93817 0.65947 0.09400
H 	H 	0.03683 0.95537 0.68107 0.10100
C 	C 	0.32283 0.89127 0.85017 0.08200
C 	C 	0.38553 0.00647 0.86037 -0.08000
H 	H 	0.39623 0.03357 0.87227 0.03800
H 	H 	0.42163 0.01277 0.85387 0.04200
C 	C 	0.33153 0.98387 0.86517 -0.00900
H 	H 	0.28943 0.96247 0.86377 -0.01400
H 	H 	0.34083 0.00967 0.87747 0.01900
C 	C 	0.35643 0.02297 0.84447 -0.08200
H 	H 	0.34043 0.99387 0.83307 0.05400
H 	H 	0.38413 0.05997 0.83797 0.04600
C 	C 	0.30653 0.02827 0.85557 -0.03500
H 	H 	0.27953 0.99097 0.86197 0.01100
H 	H 	0.32313 0.05657 0.86717 0.02100
C 	C 	0.99343 0.60137 0.82397 -0.07900
H 	H 	0.98033 0.57837 0.81077 0.03800
H 	H 	0.97063 0.57567 0.83557 0.03300
C 	C 	0.41013 0.89007 0.83637 -0.25900
H 	H 	0.41753 0.87137 0.82447 0.09700
H 	H 	0.41903 0.87767 0.84977 0.09500
H 	H 	0.43403 0.93157 0.83507 0.10200
C 	C 	0.32333 0.16487 0.60787 0.09900
C 	C 	0.39663 0.13797 0.58907 -0.10500
H 	H 	0.43363 0.15337 0.58167 0.05000
H 	H 	0.36703 0.11307 0.57877 0.05300
C 	C 	0.39703 0.09697 0.60637 -0.00200
H 	H 	0.36553 0.08797 0.61637 0.02400
H 	H 	0.38853 0.06087 0.59937 0.02300
C 	C 	0.41403 0.13827 0.61247 -0.06200
H 	H 	0.43523 0.17857 0.61727 -0.00100
H 	H 	0.37853 0.11897 0.62097 0.01600
C 	C 	0.44383 0.11547 0.61707 -0.10200
H 	H 	0.45223 0.15317 0.62257 0.04300
H 	H 	0.47363 0.12357 0.60637 0.05000
C 	C 	0.39883 0.06277 0.65295 0.08700
C 	C 	0.25283 0.10077 0.58077 -0.25700
H 	H 	0.28523 0.11317 0.57107 0.09700
H 	H 	0.23413 0.05937 0.58277 0.10000
H 	H 	0.22543 0.11057 0.57477 0.09800
C 	C 	0.34873 0.95527 0.64747 -0.26600
H 	H 	0.38173 0.96277 0.63877 0.10400
H 	H 	0.31393 0.93667 0.63887 0.10400
H 	H 	0.34523 0.93027 0.65937 0.10100
Cu	Cu	0.87337 0.17116 0.19968 0.80000
N 	N 	0.84680 0.20920 0.21902 -0.23600
N 	N 	0.93550 0.19400 0.17846 -0.23600
N 	N 	0.73950 0.00740 0.19865 -0.06900
N 	N 	0.77230 0.05750 0.20755 -0.07300
N 	N 	0.81140 0.08800 0.19426 -0.18900
C 	C 	0.75940 0.00700 0.17970 0.09400
C 	C 	0.69050 0.96180 0.20990 -0.25900
H 	H 	0.68630 0.97590 0.22370 0.10100
H 	H 	0.69650 0.92930 0.21200 0.10000
H 	H 	0.65570 0.94970 0.20150 0.09700
Cu	Cu	0.54004 0.50449 0.53301 0.80000
N 	N 	0.51347 0.54253 0.55235 -0.23600
N 	N 	0.60217 0.52733 0.51179 -0.23600
N 	N 	0.40617 0.34073 0.53198 -0.06900
N 	N 	0.43897 0.39083 0.54088 -0.07300
N 	N 	0.47807 0.42133 0.52759 -0.18900
C 	C 	0.42607 0.34033 0.51303 0.09400
C 	C 	0.35717 0.29513 0.54323 -0.25900
H 	H 	0.35297 0.30923 0.55703 0.10100
H 	H 	0.36317 0.26263 0.54533 0.10000
H 	H 	0.32237 0.28303 0.53483 0.09700
Cu	Cu	0.20670 0.83783 0.86635 0.80000
N 	N 	0.18013 0.87587 0.88569 -0.23600
N 	N 	0.26883 0.86067 0.84513 -0.23600
N 	N 	0.07283 0.67407 0.86532 -0.06900
N 	N 	0.10563 0.72417 0.87422 -0.07300
N 	N 	0.14473 0.75467 0.86093 -0.18900
C 	C 	0.09273 0.67367 0.84637 0.09400
C 	C 	0.02383 0.62847 0.87657 -0.26000
H 	H 	0.01963 0.64257 0.89037 0.10100
H 	H 	0.02983 0.59597 0.87867 0.10000
H 	H 	0.98903 0.61637 0.86817 0.09800
Cu	Cu	0.14298 0.91102 0.84826 0.80000
Cu	Cu	0.04370 0.57656 0.97701 0.80500
Cu	Cu	0.10116 0.50903 0.00586 0.80100
S 	S 	0.19897 0.84334 0.92438 -0.07100
S 	S 	0.15520 0.71962 0.97089 -0.07300
S 	S 	0.94710 0.46893 0.07381 -0.10000
S 	S 	0.87349 0.58288 0.02853 -0.08500
S 	S 	0.98210 0.72849 0.79577 -0.10000
S 	S 	0.06579 0.61770 0.82815 -0.09900
N 	N 	0.14490 0.89980 0.91137 -0.06300
N 	N 	0.13410 0.92020 0.89397 -0.07700
N 	N 	0.15520 0.90520 0.87849 -0.19400
N 	N 	0.21090 0.66970 0.99012 -0.06800
N 	N 	0.19970 0.61970 0.99841 -0.07800
N 	N 	0.14610 0.58510 0.99409 -0.19600
N 	N 	0.12330 0.61230 0.98399 -0.24100
N 	N 	0.98180 0.79180 0.83032 -0.06300
N 	N 	0.01910 0.83140 0.84322 -0.07900
N 	N 	0.06920 0.84060 0.83806 -0.18700
N 	N 	0.19540 0.94210 0.82407 -0.24600
N 	N 	0.06040 0.53760 0.06573 -0.07100
N 	N 	0.09850 0.54910 0.05012 -0.07200
N 	N 	0.06950 0.51920 0.03450 -0.18100
N 	N 	0.98740 0.51300 0.96084 -0.25500
N 	N 	0.97700 0.65740 0.01089 -0.06500
N 	N 	0.01700 0.65690 0.99873 -0.07200
N 	N 	0.99880 0.60430 0.99386 -0.18500
N 	N 	0.05230 0.42980 0.99732 -0.24200
C 	C 	0.17440 0.87310 0.90640 0.09100
C 	C 	0.13560 0.77520 0.92880 -0.13000
H 	H 	0.10640 0.76920 0.91810 0.05900
H 	H 	0.11980 0.77500 0.94300 0.06500
C 	C 	0.14840 0.72850 0.92760 -0.02200
H 	H 	0.16680 0.73130 0.91370 0.02000
H 	H 	0.11180 0.69200 0.92770 0.01900
C 	C 	0.18450 0.72590 0.94390 -0.13000
H 	H 	0.18960 0.69260 0.94120 0.05300
H 	H 	0.22260 0.76070 0.94320 0.06400
C 	C 	0.16400 0.66540 0.98178 0.09500
C 	C 	0.12620 0.90720 0.93190 -0.25900
H 	H 	0.10560 0.92820 0.93040 0.10000
H 	H 	0.10090 0.86970 0.93820 0.09800
H 	H 	0.15950 0.92860 0.94110 0.09800
C 	C 	0.26870 0.71970 0.99220 -0.25900
H 	H 	0.27000 0.75260 0.98510 0.09300
H 	H 	0.27790 0.72850 0.00720 0.09400
H 	H 	0.29650 0.71130 0.98560 0.10100
C 	C 	0.01050 0.77540 0.81650 0.08200
C 	C 	0.94780 0.66020 0.80630 -0.08000
H 	H 	0.93710 0.63310 0.79440 0.03800
H 	H 	0.91170 0.65390 0.81280 0.04200
C 	C 	0.00180 0.68280 0.80150 -0.00900
H 	H 	0.04390 0.70420 0.80290 -0.01400
H 	H 	0.99250 0.65700 0.78920 0.01900
C 	C 	0.97690 0.64370 0.82220 -0.08200
H 	H 	0.99290 0.67280 0.83360 0.05500
H 	H 	0.94920 0.60670 0.82870 0.04600
C 	C 	0.02680 0.63840 0.81110 -0.03600
H 	H 	0.05380 0.67570 0.80470 0.01200
H 	H 	0.01020 0.61010 0.79950 0.02100
C 	C 	0.33990 0.06530 0.84270 -0.08000
H 	H 	0.35300 0.08830 0.85590 0.03800
H 	H 	0.36270 0.09100 0.83110 0.03300
C 	C 	0.92320 0.77660 0.83030 -0.25900
H 	H 	0.91580 0.79530 0.84220 0.09700
H 	H 	0.91430 0.78900 0.81690 0.09500
H 	H 	0.89930 0.73510 0.83160 0.10200
C 	C 	0.01000 0.50180 0.05880 0.09900
C 	C 	0.93670 0.52870 0.07760 -0.10500
H 	H 	0.89970 0.51330 0.08500 0.05000
H 	H 	0.96630 0.55360 0.08790 0.05300
C 	C 	0.93630 0.56970 0.06030 -0.00200
H 	H 	0.96780 0.57870 0.05030 0.02400
H 	H 	0.94480 0.60580 0.06730 0.02300
C 	C 	0.91930 0.52840 0.05420 -0.06200
H 	H 	0.89810 0.48810 0.04940 -0.00100
H 	H 	0.95480 0.54770 0.04570 0.01600
C 	C 	0.88950 0.55120 0.04960 -0.10200
H 	H 	0.88110 0.51350 0.04410 0.04300
H 	H 	0.85970 0.54310 0.06030 0.05000
C 	C 	0.93450 0.60390 0.01372 0.08700
C 	C 	0.08050 0.56590 0.08590 -0.25700
H 	H 	0.04810 0.55350 0.09560 0.09700
H 	H 	0.09920 0.60730 0.08390 0.10000
H 	H 	0.10790 0.55610 0.09190 0.09800
C 	C 	0.98460 0.71140 0.01920 -0.26500
H 	H 	0.95160 0.70390 0.02790 0.10400
H 	H 	0.01940 0.73000 0.02780 0.10400
H 	H 	0.98810 0.73640 0.00730 0.10100
Cu	Cu	0.80965 0.24435 0.18159 0.80000
Cu	Cu	0.71037 0.90989 0.31034 0.80500
Cu	Cu	0.76783 0.84236 0.33919 0.80100
S 	S 	0.86564 0.17667 0.25771 -0.07100
S 	S 	0.82187 0.05295 0.30422 -0.07300
S 	S 	0.61377 0.80226 0.40714 -0.10000
S 	S 	0.54016 0.91621 0.36186 -0.08500
S 	S 	0.64877 0.06182 0.12910 -0.10000
S 	S 	0.73246 0.95103 0.16148 -0.09900
N 	N 	0.81157 0.23313 0.24470 -0.06300
N 	N 	0.80077 0.25353 0.22730 -0.07600
N 	N 	0.82187 0.23853 0.21182 -0.19400
N 	N 	0.87757 0.00303 0.32345 -0.06800
N 	N 	0.86637 0.95303 0.33174 -0.07800
N 	N 	0.81277 0.91843 0.32742 -0.19600
N 	N 	0.78997 0.94563 0.31732 -0.24100
N 	N 	0.64847 0.12513 0.16365 -0.06300
N 	N 	0.68577 0.16473 0.17655 -0.07900
N 	N 	0.73587 0.17393 0.17139 -0.18700
N 	N 	0.86207 0.27543 0.15740 -0.24600
N 	N 	0.72707 0.87093 0.39906 -0.07100
N 	N 	0.76517 0.88243 0.38345 -0.07200
N 	N 	0.73617 0.85253 0.36783 -0.18100
N 	N 	0.65407 0.84633 0.29417 -0.25500
N 	N 	0.64367 0.99073 0.34422 -0.06500
N 	N 	0.68367 0.99023 0.33206 -0.07200
N 	N 	0.66547 0.93763 0.32719 -0.18500
N 	N 	0.71897 0.76313 0.33065 -0.24200
C 	C 	0.84107 0.20643 0.23973 0.09100
C 	C 	0.80227 0.10853 0.26213 -0.13000
H 	H 	0.77307 0.10253 0.25143 0.05900
H 	H 	0.78647 0.10833 0.27633 0.06500
C 	C 	0.81507 0.06183 0.26093 -0.02200
H 	H 	0.83347 0.06463 0.24703 0.02000
H 	H 	0.77847 0.02533 0.26103 0.01900
C 	C 	0.85117 0.05923 0.27723 -0.13000
H 	H 	0.85627 0.02593 0.27453 0.05300
H 	H 	0.88927 0.09403 0.27653 0.06400
C 	C 	0.83067 0.99873 0.31511 0.09600
C 	C 	0.79287 0.24053 0.26523 -0.25900
H 	H 	0.77227 0.26153 0.26373 0.10000
H 	H 	0.76757 0.20303 0.27153 0.09800
H 	H 	0.82617 0.26193 0.27443 0.09800
C 	C 	0.93537 0.05303 0.32553 -0.25900
H 	H 	0.93667 0.08593 0.31843 0.09300
H 	H 	0.94457 0.06183 0.34053 0.09400
H 	H 	0.96317 0.04463 0.31893 0.10100
C 	C 	0.67717 0.10873 0.14983 0.08200
C 	C 	0.61447 0.99353 0.13963 -0.08000
H 	H 	0.60377 0.96643 0.12773 0.03800
H 	H 	0.57837 0.98723 0.14613 0.04200
C 	C 	0.66847 0.01613 0.13483 -0.00900
H 	H 	0.71057 0.03753 0.13623 -0.01400
H 	H 	0.65917 0.99033 0.12253 0.01900
C 	C 	0.64357 0.97703 0.15553 -0.08200
H 	H 	0.65957 0.00613 0.16693 0.05400
H 	H 	0.61587 0.94003 0.16203 0.04600
C 	C 	0.69347 0.97173 0.14443 -0.03500
H 	H 	0.72047 0.00903 0.13803 0.01100
H 	H 	0.67687 0.94343 0.13283 0.02100
C 	C 	0.00657 0.39863 0.17603 -0.07900
H 	H 	0.01967 0.42163 0.18923 0.03800
H 	H 	0.02937 0.42433 0.16443 0.03300
C 	C 	0.58987 0.10993 0.16363 -0.25900
H 	H 	0.58247 0.12863 0.17553 0.09700
H 	H 	0.58097 0.12233 0.15023 0.09500
H 	H 	0.56597 0.06843 0.16493 0.10200
C 	C 	0.67667 0.83513 0.39213 0.09900
C 	C 	0.60337 0.86203 0.41093 -0.10500
H 	H 	0.56637 0.84663 0.41833 0.05000
H 	H 	0.63297 0.88693 0.42123 0.05300
C 	C 	0.60297 0.90303 0.39363 -0.00200
H 	H 	0.63447 0.91203 0.38363 0.02400
H 	H 	0.61147 0.93913 0.40063 0.02300
C 	C 	0.58597 0.86173 0.38753 -0.06200
H 	H 	0.56477 0.82143 0.38273 -0.00100
H 	H 	0.62147 0.88103 0.37903 0.01600
C 	C 	0.55617 0.88453 0.38293 -0.10200
H 	H 	0.54777 0.84683 0.37743 0.04300
H 	H 	0.52637 0.87643 0.39363 0.05000
C 	C 	0.60117 0.93723 0.34705 0.08700
C 	C 	0.74717 0.89923 0.41923 -0.25700
H 	H 	0.71477 0.88683 0.42893 0.09700
H 	H 	0.76587 0.94063 0.41723 0.10000
H 	H 	0.77457 0.88943 0.42523 0.09800
C 	C 	0.65127 0.04473 0.35253 -0.26600
H 	H 	0.61827 0.03723 0.36123 0.10400
H 	H 	0.68607 0.06333 0.36113 0.10400
H 	H 	0.65477 0.06973 0.34063 0.10100
Cu	Cu	0.47631 0.57769 0.51493 0.80000
Cu	Cu	0.37703 0.24323 0.64368 0.80500
Cu	Cu	0.43449 0.17570 0.67253 0.80100
S 	S 	0.53230 0.51001 0.59105 -0.07000
S 	S 	0.48853 0.38629 0.63756 -0.07300
S 	S 	0.28043 0.13560 0.74048 -0.10000
S 	S 	0.20682 0.24955 0.69520 -0.08500
S 	S 	0.31543 0.39516 0.46244 -0.10000
S 	S 	0.39912 0.28437 0.49482 -0.09900
N 	N 	0.47823 0.56647 0.57804 -0.06300
N 	N 	0.46743 0.58687 0.56064 -0.07600
N 	N 	0.48853 0.57187 0.54516 -0.19400
N 	N 	0.54423 0.33637 0.65679 -0.06800
N 	N 	0.53303 0.28637 0.66508 -0.07800
N 	N 	0.47943 0.25177 0.66076 -0.19600
N 	N 	0.45663 0.27897 0.65066 -0.24100
N 	N 	0.31513 0.45847 0.49699 -0.06300
N 	N 	0.35243 0.49807 0.50989 -0.07900
N 	N 	0.40253 0.50727 0.50473 -0.18700
N 	N 	0.52873 0.60877 0.49074 -0.24600
N 	N 	0.39373 0.20427 0.73240 -0.07100
N 	N 	0.43183 0.21577 0.71679 -0.07200
N 	N 	0.40283 0.18587 0.70117 -0.18100
N 	N 	0.32073 0.17967 0.62751 -0.25500
N 	N 	0.31033 0.32407 0.67756 -0.06500
N 	N 	0.35033 0.32357 0.66540 -0.07200
N 	N 	0.33213 0.27097 0.66053 -0.18500
N 	N 	0.38563 0.09647 0.66399 -0.24200
C 	C 	0.50773 0.53977 0.57307 0.09100
C 	C 	0.46893 0.44187 0.59547 -0.13000
H 	H 	0.43973 0.43587 0.58477 0.05900
H 	H 	0.45313 0.44167 0.60967 0.06500
C 	C 	0.48173 0.39517 0.59427 -0.02200
H 	H 	0.50013 0.39797 0.58037 0.02000
H 	H 	0.44513 0.35867 0.59437 0.01900
C 	C 	0.51783 0.39257 0.61057 -0.13000
H 	H 	0.52293 0.35927 0.60787 0.05300
H 	H 	0.55593 0.42737 0.60987 0.06400
C 	C 	0.49733 0.33207 0.64845 0.09500
C 	C 	0.45953 0.57387 0.59857 -0.25900
H 	H 	0.43893 0.59487 0.59707 0.10000
H 	H 	0.43423 0.53637 0.60487 0.09800
H 	H 	0.49283 0.59527 0.60777 0.09800
C 	C 	0.60203 0.38637 0.65887 -0.25900
H 	H 	0.60333 0.41927 0.65177 0.09300
H 	H 	0.61123 0.39517 0.67387 0.09400
H 	H 	0.62983 0.37797 0.65227 0.10100
C 	C 	0.34383 0.44207 0.48317 0.08200
C 	C 	0.28113 0.32687 0.47297 -0.08000
H 	H 	0.27043 0.29977 0.46107 0.03900
H 	H 	0.24503 0.32057 0.47947 0.04200
C 	C 	0.33513 0.34947 0.46817 -0.00800
H 	H 	0.37723 0.37087 0.46957 -0.01400
H 	H 	0.32583 0.32367 0.45587 0.01800
C 	C 	0.31023 0.31037 0.48887 -0.08200
H 	H 	0.32623 0.33947 0.50027 0.05500
H 	H 	0.28253 0.27337 0.49537 0.04600
C 	C 	0.36013 0.30507 0.47777 -0.03600
H 	H 	0.38713 0.34237 0.47137 0.01200
H 	H 	0.34353 0.27677 0.46617 0.02100
C 	C 	0.67323 0.73197 0.50937 -0.07800
H 	H 	0.68633 0.75497 0.52257 0.03800
H 	H 	0.69603 0.75767 0.49777 0.03300
C 	C 	0.25653 0.44327 0.49697 -0.25900
H 	H 	0.24913 0.46197 0.50887 0.09700
H 	H 	0.24763 0.45567 0.48357 0.09500
H 	H 	0.23263 0.40177 0.49827 0.10200
C 	C 	0.34333 0.16847 0.72547 0.09900
C 	C 	0.27003 0.19537 0.74427 -0.10500
H 	H 	0.23303 0.17997 0.75167 0.05000
H 	H 	0.29963 0.22027 0.75457 0.05300
C 	C 	0.26963 0.23637 0.72697 -0.00200
H 	H 	0.30113 0.24537 0.71697 0.02400
H 	H 	0.27813 0.27247 0.73397 0.02300
C 	C 	0.25263 0.19507 0.72087 -0.06200
H 	H 	0.23143 0.15477 0.71607 -0.00100
H 	H 	0.28813 0.21437 0.71237 0.01600
C 	C 	0.22283 0.21787 0.71627 -0.10200
H 	H 	0.21443 0.18017 0.71077 0.04300
H 	H 	0.19303 0.20977 0.72697 0.05000
C 	C 	0.26783 0.27057 0.68039 0.08700
C 	C 	0.41383 0.23257 0.75257 -0.25700
H 	H 	0.38143 0.22017 0.76227 0.09700
H 	H 	0.43253 0.27397 0.75057 0.10000
H 	H 	0.44123 0.22277 0.75857 0.09800
C 	C 	0.31793 0.37807 0.68587 -0.26500
H 	H 	0.28493 0.37057 0.69457 0.10400
H 	H 	0.35273 0.39667 0.69447 0.10400
H 	H 	0.32143 0.40307 0.67397 0.10100
Cu	Cu	0.12663 0.82884 0.80032 0.80000
N 	N 	0.15320 0.79080 0.78098 -0.23600
N 	N 	0.06450 0.80600 0.82154 -0.23600
N 	N 	0.26050 0.99260 0.80135 -0.06900
N 	N 	0.22770 0.94250 0.79245 -0.07300
N 	N 	0.18860 0.91200 0.80574 -0.18900
C 	C 	0.24060 0.99300 0.82030 0.09400
C 	C 	0.30950 0.03820 0.79010 -0.25900
H 	H 	0.31370 0.02410 0.77630 0.10100
H 	H 	0.30350 0.07070 0.78800 0.10000
H 	H 	0.34430 0.05030 0.79850 0.09700
Cu	Cu	0.79330 0.16217 0.13365 0.80000
N 	N 	0.81987 0.12413 0.11431 -0.23600
N 	N 	0.73117 0.13933 0.15487 -0.23600
N 	N 	0.92717 0.32593 0.13468 -0.06900
N 	N 	0.89437 0.27583 0.12578 -0.07300
N 	N 	0.85527 0.24533 0.13907 -0.18900
C 	C 	0.90727 0.32633 0.15363 0.09400
C 	C 	0.97617 0.37153 0.12343 -0.26000
H 	H 	0.98037 0.35743 0.10963 0.10100
H 	H 	0.97017 0.40403 0.12133 0.10000
H 	H 	0.01097 0.38363 0.13183 0.09800
Cu	Cu	0.45996 0.49551 0.46699 0.80000
N 	N 	0.48653 0.45747 0.44765 -0.23600
N 	N 	0.39783 0.47267 0.48821 -0.23600
N 	N 	0.59383 0.65927 0.46802 -0.06900
N 	N 	0.56103 0.60917 0.45912 -0.07300
N 	N 	0.52193 0.57867 0.47241 -0.18900
C 	C 	0.57393 0.65967 0.48697 0.09400
C 	C 	0.64283 0.70487 0.45677 -0.25900
H 	H 	0.64703 0.69077 0.44297 0.10100
H 	H 	0.63683 0.73737 0.45467 0.10000
H 	H 	0.67763 0.71697 0.46517 0.09700
Cu	Cu	0.82884 0.70221 0.19968 0.80000
N 	N 	0.79080 0.63760 0.21902 -0.23600
N 	N 	0.80600 0.74150 0.17846 -0.23600
N 	N 	0.99260 0.73210 0.19865 -0.06900
N 	N 	0.94250 0.71480 0.20755 -0.07300
N 	N 	0.91200 0.72340 0.19426 -0.18900
C 	C 	0.99300 0.75240 0.17970 0.09400
C 	C 	0.03820 0.72870 0.20990 -0.25900
H 	H 	0.02410 0.71040 0.22370 0.10100
H 	H 	0.07070 0.76720 0.21200 0.10000
H 	H 	0.05030 0.70600 0.20150 0.09700
Cu	Cu	0.49551 0.03554 0.53301 0.80000
N 	N 	0.45747 0.97093 0.55235 -0.23600
N 	N 	0.47267 0.07483 0.51179 -0.23600
N 	N 	0.65927 0.06543 0.53198 -0.06900
N 	N 	0.60917 0.04813 0.54088 -0.07300
N 	N 	0.57867 0.05673 0.52759 -0.18900
C 	C 	0.65967 0.08573 0.51303 0.09400
C 	C 	0.70487 0.06203 0.54323 -0.25900
H 	H 	0.69077 0.04373 0.55703 0.10100
H 	H 	0.73737 0.10053 0.54533 0.10000
H 	H 	0.71697 0.03933 0.53483 0.09700
Cu	Cu	0.16217 0.36888 0.86635 0.80000
N 	N 	0.12413 0.30427 0.88569 -0.23600
N 	N 	0.13933 0.40817 0.84513 -0.23600
N 	N 	0.32593 0.39877 0.86532 -0.06900
N 	N 	0.27583 0.38147 0.87422 -0.07300
N 	N 	0.24533 0.39007 0.86093 -0.18900
C 	C 	0.32633 0.41907 0.84637 0.09400
C 	C 	0.37153 0.39537 0.87657 -0.25900
H 	H 	0.35743 0.37707 0.89037 0.10100
H 	H 	0.40403 0.43387 0.87867 0.10000
H 	H 	0.38363 0.37267 0.86817 0.09700
Cu	Cu	0.91102 0.76804 0.15174 0.80000
Cu	Cu	0.57656 0.53286 0.02299 0.80500
Cu	Cu	0.50903 0.40787 0.99414 0.80100
S 	S 	0.84334 0.64437 0.07562 -0.07100
S 	S 	0.71962 0.56442 0.02911 -0.07300
S 	S 	0.46893 0.52183 0.92619 -0.10000
S 	S 	0.58288 0.70939 0.97147 -0.08500
S 	S 	0.72849 0.74639 0.20423 -0.10000
S 	S 	0.61770 0.55191 0.17185 -0.09900
N 	N 	0.89980 0.75490 0.08863 -0.06300
N 	N 	0.92020 0.78610 0.10603 -0.07700
N 	N 	0.90520 0.75000 0.12151 -0.19400
N 	N 	0.66970 0.45880 0.00988 -0.06800
N 	N 	0.61970 0.42000 0.00159 -0.07800
N 	N 	0.58510 0.43900 0.00591 -0.19600
N 	N 	0.61230 0.48900 0.01601 -0.24100
N 	N 	0.79180 0.81000 0.16968 -0.06300
N 	N 	0.83140 0.81230 0.15678 -0.07900
N 	N 	0.84060 0.77140 0.16194 -0.18700
N 	N 	0.94210 0.74670 0.17593 -0.24600
N 	N 	0.53760 0.47720 0.93427 -0.07100
N 	N 	0.54910 0.45060 0.94988 -0.07200
N 	N 	0.51920 0.44970 0.96550 -0.18100
N 	N 	0.51300 0.52560 0.03916 -0.25500
N 	N 	0.65740 0.68040 0.98911 -0.06500
N 	N 	0.65690 0.63990 0.00127 -0.07200
N 	N 	0.60430 0.60550 0.00614 -0.18500
N 	N 	0.42980 0.37750 0.00268 -0.24200
C 	C 	0.87310 0.69870 0.09360 0.09100
C 	C 	0.77520 0.63960 0.07120 -0.13000
H 	H 	0.76920 0.66280 0.08190 0.05900
H 	H 	0.77500 0.65520 0.05700 0.06500
C 	C 	0.72850 0.58010 0.07240 -0.02200
H 	H 	0.73130 0.56450 0.08630 0.02000
H 	H 	0.69200 0.58020 0.07230 0.01900
C 	C 	0.72590 0.54140 0.05610 -0.13000
H 	H 	0.69260 0.50300 0.05880 0.05300
H 	H 	0.76070 0.53810 0.05680 0.06400
C 	C 	0.66540 0.50140 0.01822 0.09500
C 	C 	0.90720 0.78100 0.06810 -0.25900
H 	H 	0.92820 0.82260 0.06960 0.10000
H 	H 	0.86970 0.76880 0.06180 0.09800
H 	H 	0.92860 0.76910 0.05890 0.09800
C 	C 	0.71970 0.45100 0.00780 -0.25900
H 	H 	0.75260 0.48260 0.01490 0.09300
H 	H 	0.72850 0.45060 0.99280 0.09400
H 	H 	0.71130 0.41480 0.01440 0.10100
C 	C 	0.77540 0.76490 0.18350 0.08200
C 	C 	0.66020 0.71240 0.19370 -0.08000
H 	H 	0.63310 0.69600 0.20560 0.03900
H 	H 	0.65390 0.74220 0.18720 0.04200
C 	C 	0.68280 0.68100 0.19850 -0.00800
H 	H 	0.70420 0.66030 0.19710 -0.01400
H 	H 	0.65700 0.66450 0.21080 0.01800
C 	C 	0.64370 0.66680 0.17780 -0.08200
H 	H 	0.67280 0.67990 0.16640 0.05500
H 	H 	0.60670 0.65750 0.17130 0.04600
C 	C 	0.63840 0.61160 0.18890 -0.03600
H 	H 	0.67570 0.62190 0.19530 0.01200
H 	H 	0.61010 0.59990 0.20050 0.02100
C 	C 	0.06530 0.72540 0.15730 -0.07900
H 	H 	0.08830 0.73530 0.14410 0.03800
H 	H 	0.09100 0.72830 0.16890 0.03300
C 	C 	0.77660 0.85340 0.16970 -0.25900
H 	H 	0.79530 0.87950 0.15780 0.09700
H 	H 	0.78900 0.87470 0.18310 0.09500
H 	H 	0.73510 0.83580 0.16840 0.10200
C 	C 	0.50180 0.49180 0.94120 0.09900
C 	C 	0.52870 0.59200 0.92240 -0.10500
H 	H 	0.51330 0.61360 0.91500 0.05000
H 	H 	0.55360 0.58730 0.91210 0.05300
C 	C 	0.56970 0.63340 0.93970 -0.00200
H 	H 	0.57870 0.61090 0.94970 0.02400
H 	H 	0.60580 0.66100 0.93270 0.02300
C 	C 	0.52840 0.60910 0.94580 -0.06200
H 	H 	0.48810 0.59000 0.95060 -0.00100
H 	H 	0.54770 0.59290 0.95430 0.01600
C 	C 	0.55120 0.66170 0.95040 -0.10200
H 	H 	0.51350 0.63240 0.95590 0.04300
H 	H 	0.54310 0.68340 0.93970 0.05000
C 	C 	0.60390 0.66940 0.98628 0.08700
C 	C 	0.56590 0.48540 0.91410 -0.25700
H 	H 	0.55350 0.50540 0.90440 0.09700
H 	H 	0.60730 0.50810 0.91610 0.10000
H 	H 	0.55610 0.44820 0.90810 0.09800
C 	C 	0.71140 0.72680 0.98080 -0.26500
H 	H 	0.70390 0.75230 0.97210 0.10400
H 	H 	0.73000 0.71060 0.97220 0.10400
H 	H 	0.73640 0.74830 0.99270 0.10100
Cu	Cu	0.57769 0.10137 0.48507 0.80000
Cu	Cu	0.24323 0.86619 0.35632 0.80500
Cu	Cu	0.17570 0.74120 0.32747 0.80100
S 	S 	0.51001 0.97770 0.40895 -0.07000
S 	S 	0.38629 0.89775 0.36244 -0.07300
S 	S 	0.13560 0.85516 0.25952 -0.10000
S 	S 	0.24955 0.04272 0.30480 -0.08500
S 	S 	0.39516 0.07972 0.53756 -0.10000
S 	S 	0.28437 0.88524 0.50518 -0.09900
N 	N 	0.56647 0.08823 0.42196 -0.06300
N 	N 	0.58687 0.11943 0.43936 -0.07600
N 	N 	0.57187 0.08333 0.45484 -0.19400
N 	N 	0.33637 0.79213 0.34321 -0.06800
N 	N 	0.28637 0.75333 0.33492 -0.07800
N 	N 	0.25177 0.77233 0.33924 -0.19600
N 	N 	0.27897 0.82233 0.34934 -0.24100
N 	N 	0.45847 0.14333 0.50301 -0.06300
N 	N 	0.49807 0.14563 0.49011 -0.07900
N 	N 	0.50727 0.10473 0.49527 -0.18700
N 	N 	0.60877 0.08003 0.50926 -0.24600
N 	N 	0.20427 0.81053 0.26760 -0.07100
N 	N 	0.21577 0.78393 0.28321 -0.07200
N 	N 	0.18587 0.78303 0.29883 -0.18100
N 	N 	0.17967 0.85893 0.37249 -0.25500
N 	N 	0.32407 0.01373 0.32244 -0.06500
N 	N 	0.32357 0.97323 0.33460 -0.07200
N 	N 	0.27097 0.93883 0.33947 -0.18500
N 	N 	0.09647 0.71083 0.33601 -0.24200
C 	C 	0.53977 0.03203 0.42693 0.09000
C 	C 	0.44187 0.97293 0.40453 -0.13000
H 	H 	0.43587 0.99613 0.41523 0.05900
H 	H 	0.44167 0.98853 0.39033 0.06500
C 	C 	0.39517 0.91343 0.40573 -0.02200
H 	H 	0.39797 0.89783 0.41963 0.02000
H 	H 	0.35867 0.91353 0.40563 0.01900
C 	C 	0.39257 0.87473 0.38943 -0.13000
H 	H 	0.35927 0.83633 0.39213 0.05300
H 	H 	0.42737 0.87143 0.39013 0.06400
C 	C 	0.33207 0.83473 0.35155 0.09500
C 	C 	0.57387 0.11433 0.40143 -0.25900
H 	H 	0.59487 0.15593 0.40293 0.10000
H 	H 	0.53637 0.10213 0.39513 0.09800
H 	H 	0.59527 0.10243 0.39223 0.09800
C 	C 	0.38637 0.78433 0.34113 -0.25900
H 	H 	0.41927 0.81593 0.34823 0.09300
H 	H 	0.39517 0.78393 0.32613 0.09400
H 	H 	0.37797 0.74813 0.34773 0.10100
C 	C 	0.44207 0.09823 0.51683 0.08200
C 	C 	0.32687 0.04573 0.52703 -0.08100
H 	H 	0.29977 0.02933 0.53893 0.03900
H 	H 	0.32057 0.07553 0.52053 0.04200
C 	C 	0.34947 0.01433 0.53183 -0.00800
H 	H 	0.37087 0.99363 0.53043 -0.01500
H 	H 	0.32367 0.99783 0.54413 0.01800
C 	C 	0.31037 0.00013 0.51113 -0.08200
H 	H 	0.33947 0.01323 0.49973 0.05500
H 	H 	0.27337 0.99083 0.50463 0.04600
C 	C 	0.30507 0.94493 0.52223 -0.03700
H 	H 	0.34237 0.95523 0.52863 0.01200
H 	H 	0.27677 0.93323 0.53383 0.02200
C 	C 	0.73197 0.05873 0.49063 -0.07800
H 	H 	0.75497 0.06863 0.47743 0.03800
H 	H 	0.75767 0.06163 0.50223 0.03200
C 	C 	0.44327 0.18673 0.50303 -0.25900
H 	H 	0.46197 0.21283 0.49113 0.09700
H 	H 	0.45567 0.20803 0.51643 0.09500
H 	H 	0.40177 0.16913 0.50173 0.10200
C 	C 	0.16847 0.82513 0.27453 0.09900
C 	C 	0.19537 0.92533 0.25573 -0.10500
H 	H 	0.17997 0.94693 0.24833 0.05000
H 	H 	0.22027 0.92063 0.24543 0.05300
C 	C 	0.23637 0.96673 0.27303 -0.00200
H 	H 	0.24537 0.94423 0.28303 0.02400
H 	H 	0.27247 0.99433 0.26603 0.02300
C 	C 	0.19507 0.94243 0.27913 -0.06200
H 	H 	0.15477 0.92333 0.28393 -0.00100
H 	H 	0.21437 0.92623 0.28763 0.01600
C 	C 	0.21787 0.99503 0.28373 -0.10200
H 	H 	0.18017 0.96573 0.28923 0.04300
H 	H 	0.20977 0.01673 0.27303 0.05000
C 	C 	0.27057 0.00273 0.31961 0.08700
C 	C 	0.23257 0.81873 0.24743 -0.25700
H 	H 	0.22017 0.83873 0.23773 0.09700
H 	H 	0.27397 0.84143 0.24943 0.10000
H 	H 	0.22277 0.78153 0.24143 0.09800
C 	C 	0.37807 0.06013 0.31413 -0.26500
H 	H 	0.37057 0.08563 0.30543 0.10400
H 	H 	0.39667 0.04393 0.30553 0.10400
H 	H 	0.40307 0.08163 0.32603 0.10100
Cu	Cu	0.24435 0.43471 0.81841 0.80000
Cu	Cu	0.90989 0.19953 0.68966 0.80500
Cu	Cu	0.84236 0.07454 0.66081 0.80100
S 	S 	0.17667 0.31104 0.74229 -0.07100
S 	S 	0.05295 0.23109 0.69578 -0.07300
S 	S 	0.80226 0.18850 0.59286 -0.10000
S 	S 	0.91621 0.37606 0.63814 -0.08500
S 	S 	0.06182 0.41306 0.87090 -0.10000
S 	S 	0.95103 0.21858 0.83852 -0.09900
N 	N 	0.23313 0.42157 0.75530 -0.06300
N 	N 	0.25353 0.45277 0.77270 -0.07600
N 	N 	0.23853 0.41667 0.78818 -0.19400
N 	N 	0.00303 0.12547 0.67655 -0.06800
N 	N 	0.95303 0.08667 0.66826 -0.07800
N 	N 	0.91843 0.10567 0.67258 -0.19600
N 	N 	0.94563 0.15567 0.68268 -0.24100
N 	N 	0.12513 0.47667 0.83635 -0.06300
N 	N 	0.16473 0.47897 0.82345 -0.07900
N 	N 	0.17393 0.43807 0.82861 -0.18700
N 	N 	0.27543 0.41337 0.84260 -0.24600
N 	N 	0.87093 0.14387 0.60094 -0.07100
N 	N 	0.88243 0.11727 0.61655 -0.07200
N 	N 	0.85253 0.11637 0.63217 -0.18100
N 	N 	0.84633 0.19227 0.70583 -0.25500
N 	N 	0.99073 0.34707 0.65578 -0.06500
N 	N 	0.99023 0.30657 0.66794 -0.07200
N 	N 	0.93763 0.27217 0.67281 -0.18500
N 	N 	0.76313 0.04417 0.66935 -0.24200
C 	C 	0.20643 0.36537 0.76027 0.09100
C 	C 	0.10853 0.30627 0.73787 -0.13000
H 	H 	0.10253 0.32947 0.74857 0.05900
H 	H 	0.10833 0.32187 0.72367 0.06500
C 	C 	0.06183 0.24677 0.73907 -0.02200
H 	H 	0.06463 0.23117 0.75297 0.02000
H 	H 	0.02533 0.24687 0.73897 0.01900
C 	C 	0.05923 0.20807 0.72277 -0.13000
H 	H 	0.02593 0.16967 0.72547 0.05300
H 	H 	0.09403 0.20477 0.72347 0.06400
C 	C 	0.99873 0.16807 0.68489 0.09500
C 	C 	0.24053 0.44767 0.73477 -0.25900
H 	H 	0.26153 0.48927 0.73627 0.10000
H 	H 	0.20303 0.43547 0.72847 0.09800
H 	H 	0.26193 0.43577 0.72557 0.09800
C 	C 	0.05303 0.11767 0.67447 -0.25900
H 	H 	0.08593 0.14927 0.68157 0.09300
H 	H 	0.06183 0.11727 0.65947 0.09400
H 	H 	0.04463 0.08147 0.68107 0.10100
C 	C 	0.10873 0.43157 0.85017 0.08200
C 	C 	0.99353 0.37907 0.86037 -0.08000
H 	H 	0.96643 0.36267 0.87227 0.03800
H 	H 	0.98723 0.40887 0.85387 0.04200
C 	C 	0.01613 0.34767 0.86517 -0.00900
H 	H 	0.03753 0.32697 0.86377 -0.01400
H 	H 	0.99033 0.33117 0.87747 0.01900
C 	C 	0.97703 0.33347 0.84447 -0.08200
H 	H 	0.00613 0.34657 0.83307 0.05400
H 	H 	0.94003 0.32417 0.83797 0.04600
C 	C 	0.97173 0.27827 0.85557 -0.03600
H 	H 	0.00903 0.28857 0.86197 0.01200
H 	H 	0.94343 0.26657 0.86717 0.02100
C 	C 	0.39863 0.39207 0.82397 -0.07800
H 	H 	0.42163 0.40197 0.81077 0.03800
H 	H 	0.42433 0.39497 0.83557 0.03200
C 	C 	0.10993 0.52007 0.83637 -0.25900
H 	H 	0.12863 0.54617 0.82447 0.09700
H 	H 	0.12233 0.54137 0.84977 0.09500
H 	H 	0.06843 0.50247 0.83507 0.10200
C 	C 	0.83513 0.15847 0.60787 0.09900
C 	C 	0.86203 0.25867 0.58907 -0.10500
H 	H 	0.84663 0.28027 0.58167 0.05000
H 	H 	0.88693 0.25397 0.57877 0.05300
C 	C 	0.90303 0.30007 0.60637 -0.00200
H 	H 	0.91203 0.27757 0.61637 0.02400
H 	H 	0.93913 0.32767 0.59937 0.02300
C 	C 	0.86173 0.27577 0.61247 -0.06200
H 	H 	0.82143 0.25667 0.61727 -0.00100
H 	H 	0.88103 0.25957 0.62097 0.01600
C 	C 	0.88453 0.32837 0.61707 -0.10200
H 	H 	0.84683 0.29907 0.62257 0.04300
H 	H 	0.87643 0.35007 0.60637 0.05000
C 	C 	0.93723 0.33607 0.65295 0.08700
C 	C 	0.89923 0.15207 0.58077 -0.25700
H 	H 	0.88683 0.17207 0.57107 0.09700
H 	H 	0.94063 0.17477 0.58277 0.10000
H 	H 	0.88943 0.11487 0.57477 0.09800
C 	C 	0.04473 0.39347 0.64747 -0.26500
H 	H 	0.03723 0.41897 0.63877 0.10400
H 	H 	0.06333 0.37727 0.63887 0.10400
H 	H 	0.06973 0.41497 0.65937 0.10100
Cu	Cu	0.17116 0.29779 0.80032 0.80000
N 	N 	0.20920 0.36240 0.78098 -0.23600
N 	N 	0.19400 0.25850 0.82154 -0.23600
N 	N 	0.00740 0.26790 0.80135 -0.06900
N 	N 	0.05750 0.28520 0.79245 -0.07300
N 	N 	0.08800 0.27660 0.80574 -0.18900
C 	C 	0.00700 0.24760 0.82030 0.09400
C 	C 	0.96180 0.27130 0.79010 -0.25900
H 	H 	0.97590 0.28960 0.77630 0.10100
H 	H 	0.92930 0.23280 0.78800 0.10000
H 	H 	0.94970 0.29400 0.79850 0.09700
Cu	Cu	0.83783 0.63112 0.13365 0.80000
N 	N 	0.87587 0.69573 0.11431 -0.23600
N 	N 	0.86067 0.59183 0.15487 -0.23600
N 	N 	0.67407 0.60123 0.13468 -0.06900
N 	N 	0.72417 0.61853 0.12578 -0.07300
N 	N 	0.75467 0.60993 0.13907 -0.18900
C 	C 	0.67367 0.58093 0.15363 0.09400
C 	C 	0.62847 0.60463 0.12343 -0.25900
H 	H 	0.64257 0.62293 0.10963 0.10100
H 	H 	0.59597 0.56613 0.12133 0.10000
H 	H 	0.61637 0.62733 0.13183 0.09700
Cu	Cu	0.50449 0.96446 0.46699 0.80000
N 	N 	0.54253 0.02907 0.44765 -0.23600
N 	N 	0.52733 0.92517 0.48821 -0.23600
N 	N 	0.34073 0.93457 0.46802 -0.06900
N 	N 	0.39083 0.95187 0.45912 -0.07300
N 	N 	0.42133 0.94327 0.47241 -0.18900
C 	C 	0.34033 0.91427 0.48697 0.09400
C 	C 	0.29513 0.93797 0.45677 -0.25900
H 	H 	0.30923 0.95627 0.44297 0.10100
H 	H 	0.26263 0.89947 0.45467 0.10000
H 	H 	0.28303 0.96067 0.46517 0.09700
Cu	Cu	0.08898 0.23196 0.84826 0.80000
Cu	Cu	0.42344 0.46714 0.97701 0.80500
Cu	Cu	0.49097 0.59213 0.00586 0.80100
S 	S 	0.15666 0.35563 0.92438 -0.07100
S 	S 	0.28038 0.43558 0.97089 -0.07300
S 	S 	0.53107 0.47817 0.07381 -0.10000
S 	S 	0.41712 0.29061 0.02853 -0.08500
S 	S 	0.27151 0.25361 0.79577 -0.10000
S 	S 	0.38230 0.44809 0.82815 -0.09900
N 	N 	0.10020 0.24510 0.91137 -0.06300
N 	N 	0.07980 0.21390 0.89397 -0.07700
N 	N 	0.09480 0.25000 0.87849 -0.19400
N 	N 	0.33030 0.54120 0.99012 -0.06800
N 	N 	0.38030 0.58000 0.99841 -0.07800
N 	N 	0.41490 0.56100 0.99409 -0.19600
N 	N 	0.38770 0.51100 0.98399 -0.24100
N 	N 	0.20820 0.19000 0.83032 -0.06300
N 	N 	0.16860 0.18770 0.84322 -0.07900
N 	N 	0.15940 0.22860 0.83806 -0.18700
N 	N 	0.05790 0.25330 0.82407 -0.24600
N 	N 	0.46240 0.52280 0.06573 -0.07100
N 	N 	0.45090 0.54940 0.05012 -0.07200
N 	N 	0.48080 0.55030 0.03450 -0.18100
N 	N 	0.48700 0.47440 0.96084 -0.25500
N 	N 	0.34260 0.31960 0.01089 -0.06500
N 	N 	0.34310 0.36010 0.99873 -0.07200
N 	N 	0.39570 0.39450 0.99386 -0.18500
N 	N 	0.57020 0.62250 0.99732 -0.24200
C 	C 	0.12690 0.30130 0.90640 0.09100
C 	C 	0.22480 0.36040 0.92880 -0.13000
H 	H 	0.23080 0.33720 0.91810 0.05900
H 	H 	0.22500 0.34480 0.94300 0.06500
C 	C 	0.27150 0.41990 0.92760 -0.02200
H 	H 	0.26870 0.43550 0.91370 0.02000
H 	H 	0.30800 0.41980 0.92770 0.01900
C 	C 	0.27410 0.45860 0.94390 -0.13000
H 	H 	0.30740 0.49700 0.94120 0.05300
H 	H 	0.23930 0.46190 0.94320 0.06400
C 	C 	0.33460 0.49860 0.98178 0.09500
C 	C 	0.09280 0.21900 0.93190 -0.25900
H 	H 	0.07180 0.17740 0.93040 0.10000
H 	H 	0.13030 0.23120 0.93820 0.09800
H 	H 	0.07140 0.23090 0.94110 0.09800
C 	C 	0.28030 0.54900 0.99220 -0.25900
H 	H 	0.24740 0.51740 0.98510 0.09300
H 	H 	0.27150 0.54940 0.00720 0.09400
H 	H 	0.28870 0.58520 0.98560 0.10100
C 	C 	0.22460 0.23510 0.81650 0.08200
C 	C 	0.33980 0.28760 0.80630 -0.08000
H 	H 	0.36690 0.30400 0.79440 0.03900
H 	H 	0.34610 0.25780 0.81280 0.04200
C 	C 	0.31720 0.31900 0.80150 -0.00800
H 	H 	0.29580 0.33970 0.80290 -0.01400
H 	H 	0.34300 0.33550 0.78920 0.01800
C 	C 	0.35630 0.33320 0.82220 -0.08200
H 	H 	0.32720 0.32010 0.83360 0.05500
H 	H 	0.39330 0.34250 0.82870 0.04600
C 	C 	0.36160 0.38840 0.81110 -0.03600
H 	H 	0.32430 0.37810 0.80470 0.01200
H 	H 	0.38990 0.40010 0.79950 0.02100
C 	C 	0.93470 0.27460 0.84270 -0.07900
H 	H 	0.91170 0.26470 0.85590 0.03800
H 	H 	0.90900 0.27170 0.83110 0.03300
C 	C 	0.22340 0.14660 0.83030 -0.25900
H 	H 	0.20470 0.12050 0.84220 0.09700
H 	H 	0.21100 0.12530 0.81690 0.09500
H 	H 	0.26490 0.16420 0.83160 0.10200
C 	C 	0.49820 0.50820 0.05880 0.09900
C 	C 	0.47130 0.40800 0.07760 -0.10500
H 	H 	0.48670 0.38640 0.08500 0.05000
H 	H 	0.44640 0.41270 0.08790 0.05300
C 	C 	0.43030 0.36660 0.06030 -0.00200
H 	H 	0.42130 0.38910 0.05030 0.02400
H 	H 	0.39420 0.33900 0.06730 0.02300
C 	C 	0.47160 0.39090 0.05420 -0.06200
H 	H 	0.51190 0.41000 0.04940 -0.00100
H 	H 	0.45230 0.40710 0.04570 0.01600
C 	C 	0.44880 0.33830 0.04960 -0.10200
H 	H 	0.48650 0.36760 0.04410 0.04300
H 	H 	0.45690 0.31660 0.06030 0.05000
C 	C 	0.39610 0.33060 0.01372 0.08700
C 	C 	0.43410 0.51460 0.08590 -0.25700
H 	H 	0.44650 0.49460 0.09560 0.09700
H 	H 	0.39270 0.49190 0.08390 0.10000
H 	H 	0.44390 0.55180 0.09190 0.09800
C 	C 	0.28860 0.27320 0.01920 -0.26500
H 	H 	0.29610 0.24770 0.02790 0.10400
H 	H 	0.27000 0.28940 0.02780 0.10400
H 	H 	0.26360 0.25170 0.00730 0.10100
Cu	Cu	0.75565 0.56529 0.18159 0.80000
Cu	Cu	0.09011 0.80047 0.31034 0.80500
Cu	Cu	0.15764 0.92546 0.33919 0.80100
S 	S 	0.82333 0.68896 0.25771 -0.07100
S 	S 	0.94705 0.76891 0.30422 -0.07300
S 	S 	0.19774 0.81150 0.40714 -0.10000
S 	S 	0.08379 0.62394 0.36186 -0.08500
S 	S 	0.93818 0.58694 0.12910 -0.10000
S 	S 	0.04897 0.78142 0.16148 -0.09900
N 	N 	0.76687 0.57843 0.24470 -0.06300
N 	N 	0.74647 0.54723 0.22730 -0.07600
N 	N 	0.76147 0.58333 0.21182 -0.19400
N 	N 	0.99697 0.87453 0.32345 -0.06800
N 	N 	0.04697 0.91333 0.33174 -0.07800
N 	N 	0.08157 0.89433 0.32742 -0.19600
N 	N 	0.05437 0.84433 0.31732 -0.24100
N 	N 	0.87487 0.52333 0.16365 -0.06300
N 	N 	0.83527 0.52103 0.17655 -0.07900
N 	N 	0.82607 0.56193 0.17139 -0.18700
N 	N 	0.72457 0.58663 0.15740 -0.24600
N 	N 	0.12907 0.85613 0.39906 -0.07100
N 	N 	0.11757 0.88273 0.38345 -0.07200
N 	N 	0.14747 0.88363 0.36783 -0.18100
N 	N 	0.15367 0.80773 0.29417 -0.25500
N 	N 	0.00927 0.65293 0.34422 -0.06500
N 	N 	0.00977 0.69343 0.33206 -0.07200
N 	N 	0.06237 0.72783 0.32719 -0.18500
N 	N 	0.23687 0.95583 0.33065 -0.24200
C 	C 	0.79357 0.63463 0.23973 0.09100
C 	C 	0.89147 0.69373 0.26213 -0.13000
H 	H 	0.89747 0.67053 0.25143 0.05900
H 	H 	0.89167 0.67813 0.27633 0.06500
C 	C 	0.93817 0.75323 0.26093 -0.02200
H 	H 	0.93537 0.76883 0.24703 0.02000
H 	H 	0.97467 0.75313 0.26103 0.01900
C 	C 	0.94077 0.79193 0.27723 -0.13000
H 	H 	0.97407 0.83033 0.27453 0.05300
H 	H 	0.90597 0.79523 0.27653 0.06400
C 	C 	0.00127 0.83193 0.31511 0.09500
C 	C 	0.75947 0.55233 0.26523 -0.25900
H 	H 	0.73847 0.51073 0.26373 0.10000
H 	H 	0.79697 0.56453 0.27153 0.09800
H 	H 	0.73807 0.56423 0.27443 0.09800
C 	C 	0.94697 0.88233 0.32553 -0.25900
H 	H 	0.91407 0.85073 0.31843 0.09300
H 	H 	0.93817 0.88273 0.34053 0.09400
H 	H 	0.95537 0.91853 0.31893 0.10100
C 	C 	0.89127 0.56843 0.14983 0.08200
C 	C 	0.00647 0.62093 0.13963 -0.08000
H 	H 	0.03357 0.63733 0.12773 0.03800
H 	H 	0.01277 0.59113 0.14613 0.04200
C 	C 	0.98387 0.65233 0.13483 -0.00900
H 	H 	0.96247 0.67303 0.13623 -0.01400
H 	H 	0.00967 0.66883 0.12253 0.01900
C 	C 	0.02297 0.66653 0.15553 -0.08200
H 	H 	0.99387 0.65343 0.16693 0.05400
H 	H 	0.05997 0.67583 0.16203 0.04600
C 	C 	0.02827 0.72173 0.14443 -0.03600
H 	H 	0.99097 0.71143 0.13803 0.01200
H 	H 	0.05657 0.73343 0.13283 0.02100
C 	C 	0.60137 0.60793 0.17603 -0.07800
H 	H 	0.57837 0.59803 0.18923 0.03800
H 	H 	0.57567 0.60503 0.16443 0.03200
C 	C 	0.89007 0.47993 0.16363 -0.25900
H 	H 	0.87137 0.45383 0.17553 0.09700
H 	H 	0.87767 0.45863 0.15023 0.09500
H 	H 	0.93157 0.49753 0.16493 0.10200
C 	C 	0.16487 0.84153 0.39213 0.09900
C 	C 	0.13797 0.74133 0.41093 -0.10500
H 	H 	0.15337 0.71973 0.41833 0.05000
H 	H 	0.11307 0.74603 0.42123 0.05300
C 	C 	0.09697 0.69993 0.39363 -0.00200
H 	H 	0.08797 0.72243 0.38363 0.02400
H 	H 	0.06087 0.67233 0.40063 0.02300
C 	C 	0.13827 0.72423 0.38753 -0.06200
H 	H 	0.17857 0.74333 0.38273 -0.00100
H 	H 	0.11897 0.74043 0.37903 0.01600
C 	C 	0.11547 0.67163 0.38293 -0.10200
H 	H 	0.15317 0.70093 0.37743 0.04300
H 	H 	0.12357 0.64993 0.39363 0.05000
C 	C 	0.06277 0.66393 0.34705 0.08700
C 	C 	0.10077 0.84793 0.41923 -0.25700
H 	H 	0.11317 0.82793 0.42893 0.09700
H 	H 	0.05937 0.82523 0.41723 0.10000
H 	H 	0.11057 0.88513 0.42523 0.09800
C 	C 	0.95527 0.60653 0.35253 -0.26500
H 	H 	0.96277 0.58103 0.36123 0.10400
H 	H 	0.93667 0.62273 0.36113 0.10400
H 	H 	0.93027 0.58503 0.34063 0.10100
Cu	Cu	0.42231 0.89863 0.51493 0.80000
Cu	Cu	0.75677 0.13381 0.64368 0.80500
Cu	Cu	0.82430 0.25880 0.67253 0.80100
S 	S 	0.48999 0.02230 0.59105 -0.07000
S 	S 	0.61371 0.10225 0.63756 -0.07300
S 	S 	0.86440 0.14484 0.74048 -0.10000
S 	S 	0.75045 0.95728 0.69520 -0.08500
S 	S 	0.60484 0.92028 0.46244 -0.10000
S 	S 	0.71563 0.11476 0.49482 -0.09900
N 	N 	0.43353 0.91177 0.57804 -0.06300
N 	N 	0.41313 0.88057 0.56064 -0.07600
N 	N 	0.42813 0.91667 0.54516 -0.19400
N 	N 	0.66363 0.20787 0.65679 -0.06800
N 	N 	0.71363 0.24667 0.66508 -0.07800
N 	N 	0.74823 0.22767 0.66076 -0.19600
N 	N 	0.72103 0.17767 0.65066 -0.24100
N 	N 	0.54153 0.85667 0.49699 -0.06300
N 	N 	0.50193 0.85437 0.50989 -0.07900
N 	N 	0.49273 0.89527 0.50473 -0.18700
N 	N 	0.39123 0.91997 0.49074 -0.24600
N 	N 	0.79573 0.18947 0.73240 -0.07100
N 	N 	0.78423 0.21607 0.71679 -0.07200
N 	N 	0.81413 0.21697 0.70117 -0.18100
N 	N 	0.82033 0.14107 0.62751 -0.25500
N 	N 	0.67593 0.98627 0.67756 -0.06500
N 	N 	0.67643 0.02677 0.66540 -0.07200
N 	N 	0.72903 0.06117 0.66053 -0.18500
N 	N 	0.90353 0.28917 0.66399 -0.24200
C 	C 	0.46023 0.96797 0.57307 0.09000
C 	C 	0.55813 0.02707 0.59547 -0.13000
H 	H 	0.56413 0.00387 0.58477 0.05900
H 	H 	0.55833 0.01147 0.60967 0.06500
C 	C 	0.60483 0.08657 0.59427 -0.02200
H 	H 	0.60203 0.10217 0.58037 0.02000
H 	H 	0.64133 0.08647 0.59437 0.01900
C 	C 	0.60743 0.12527 0.61057 -0.13000
H 	H 	0.64073 0.16367 0.60787 0.05300
H 	H 	0.57263 0.12857 0.60987 0.06400
C 	C 	0.66793 0.16527 0.64845 0.09500
C 	C 	0.42613 0.88567 0.59857 -0.25900
H 	H 	0.40513 0.84407 0.59707 0.10000
H 	H 	0.46363 0.89787 0.60487 0.09800
H 	H 	0.40473 0.89757 0.60777 0.09800
C 	C 	0.61363 0.21567 0.65887 -0.25900
H 	H 	0.58073 0.18407 0.65177 0.09300
H 	H 	0.60483 0.21607 0.67387 0.09400
H 	H 	0.62203 0.25187 0.65227 0.10100
C 	C 	0.55793 0.90177 0.48317 0.08200
C 	C 	0.67313 0.95427 0.47297 -0.08100
H 	H 	0.70023 0.97067 0.46107 0.03900
H 	H 	0.67943 0.92447 0.47947 0.04200
C 	C 	0.65053 0.98567 0.46817 -0.00800
H 	H 	0.62913 0.00637 0.46957 -0.01500
H 	H 	0.67633 0.00217 0.45587 0.01800
C 	C 	0.68963 0.99987 0.48887 -0.08200
H 	H 	0.66053 0.98677 0.50027 0.05500
H 	H 	0.72663 0.00917 0.49537 0.04600
C 	C 	0.69493 0.05507 0.47777 -0.03700
H 	H 	0.65763 0.04477 0.47137 0.01200
H 	H 	0.72323 0.06677 0.46617 0.02200
C 	C 	0.26803 0.94127 0.50937 -0.07800
H 	H 	0.24503 0.93137 0.52257 0.03800
H 	H 	0.24233 0.93837 0.49777 0.03200
C 	C 	0.55673 0.81327 0.49697 -0.25900
H 	H 	0.53803 0.78717 0.50887 0.09700
H 	H 	0.54433 0.79197 0.48357 0.09500
H 	H 	0.59823 0.83087 0.49827 0.10200
C 	C 	0.83153 0.17487 0.72547 0.09900
C 	C 	0.80463 0.07467 0.74427 -0.10500
H 	H 	0.82003 0.05307 0.75167 0.05000
H 	H 	0.77973 0.07937 0.75457 0.05300
C 	C 	0.76363 0.03327 0.72697 -0.00200
H 	H 	0.75463 0.05577 0.71697 0.02400
H 	H 	0.72753 0.00567 0.73397 0.02300
C 	C 	0.80493 0.05757 0.72087 -0.06200
H 	H 	0.84523 0.07667 0.71607 -0.00100
H 	H 	0.78563 0.07377 0.71237 0.01600
C 	C 	0.78213 0.00497 0.71627 -0.10200
H 	H 	0.81983 0.03427 0.71077 0.04300
H 	H 	0.79023 0.98327 0.72697 0.05000
C 	C 	0.72943 0.99727 0.68039 0.08700
C 	C 	0.76743 0.18127 0.75257 -0.25700
H 	H 	0.77983 0.16127 0.76227 0.09700
H 	H 	0.72603 0.15857 0.75057 0.10000
H 	H 	0.77723 0.21847 0.75857 0.09800
C 	C 	0.62193 0.93987 0.68587 -0.26500
H 	H 	0.62943 0.91437 0.69457 0.10400
H 	H 	0.60333 0.95607 0.69447 0.10400
H 	H 	0.59693 0.91837 0.67397 0.10100
Cu	Cu	0.29779 0.12663 0.19968 0.80000
N 	N 	0.36240 0.15320 0.21902 -0.23600
N 	N 	0.25850 0.06450 0.17846 -0.23600
N 	N 	0.26790 0.26050 0.19865 -0.06900
N 	N 	0.28520 0.22770 0.20755 -0.07300
N 	N 	0.27660 0.18860 0.19426 -0.18900
C 	C 	0.24760 0.24060 0.17970 0.09400
C 	C 	0.27130 0.30950 0.20990 -0.25900
H 	H 	0.28960 0.31370 0.22370 0.10100
H 	H 	0.23280 0.30350 0.21200 0.10000
H 	H 	0.29400 0.34430 0.20150 0.09700
Cu	Cu	0.96446 0.45996 0.53301 0.80000
N 	N 	0.02907 0.48653 0.55235 -0.23600
N 	N 	0.92517 0.39783 0.51179 -0.23600
N 	N 	0.93457 0.59383 0.53198 -0.06900
N 	N 	0.95187 0.56103 0.54088 -0.07300
N 	N 	0.94327 0.52193 0.52759 -0.18900
C 	C 	0.91427 0.57393 0.51303 0.09400
C 	C 	0.93797 0.64283 0.54323 -0.25900
H 	H 	0.95627 0.64703 0.55703 0.10100
H 	H 	0.89947 0.63683 0.54533 0.10000
H 	H 	0.96067 0.67763 0.53483 0.09700
Cu	Cu	0.63112 0.79330 0.86635 0.80000
N 	N 	0.69573 0.81987 0.88569 -0.23600
N 	N 	0.59183 0.73117 0.84513 -0.23600
N 	N 	0.60123 0.92717 0.86532 -0.06900
N 	N 	0.61853 0.89437 0.87422 -0.07300
N 	N 	0.60993 0.85527 0.86093 -0.18900
C 	C 	0.58093 0.90727 0.84637 0.09400
C 	C 	0.60463 0.97617 0.87657 -0.26000
H 	H 	0.62293 0.98037 0.89037 0.10100
H 	H 	0.56613 0.97017 0.87867 0.10000
H 	H 	0.62733 0.01097 0.86817 0.09700
Cu	Cu	0.23196 0.14298 0.15174 0.80000
Cu	Cu	0.46714 0.04370 0.02299 0.80500
Cu	Cu	0.59213 0.10116 0.99414 0.80100
S 	S 	0.35563 0.19897 0.07562 -0.07100
S 	S 	0.43558 0.15520 0.02911 -0.07300
S 	S 	0.47817 0.94710 0.92619 -0.10000
S 	S 	0.29061 0.87349 0.97147 -0.08500
S 	S 	0.25361 0.98210 0.20423 -0.10000
S 	S 	0.44809 0.06579 0.17185 -0.09900
N 	N 	0.24510 0.14490 0.08863 -0.06300
N 	N 	0.21390 0.13410 0.10603 -0.07600
N 	N 	0.25000 0.15520 0.12151 -0.19400
N 	N 	0.54120 0.21090 0.00988 -0.06800
N 	N 	0.58000 0.19970 0.00159 -0.07800
N 	N 	0.56100 0.14610 0.00591 -0.19600
N 	N 	0.51100 0.12330 0.01601 -0.24100
N 	N 	0.19000 0.98180 0.16968 -0.06300
N 	N 	0.18770 0.01910 0.15678 -0.07900
N 	N 	0.22860 0.06920 0.16194 -0.18700
N 	N 	0.25330 0.19540 0.17593 -0.24600
N 	N 	0.52280 0.06040 0.93427 -0.07100
N 	N 	0.54940 0.09850 0.94988 -0.07200
N 	N 	0.55030 0.06950 0.96550 -0.18100
N 	N 	0.47440 0.98740 0.03916 -0.25500
N 	N 	0.31960 0.97700 0.98911 -0.06500
N 	N 	0.36010 0.01700 0.00127 -0.07200
N 	N 	0.39450 0.99880 0.00614 -0.18500
N 	N 	0.62250 0.05230 0.00268 -0.24200
C 	C 	0.30130 0.17440 0.09360 0.09100
C 	C 	0.36040 0.13560 0.07120 -0.13000
H 	H 	0.33720 0.10640 0.08190 0.05900
H 	H 	0.34480 0.11980 0.05700 0.06500
C 	C 	0.41990 0.14840 0.07240 -0.02200
H 	H 	0.43550 0.16680 0.08630 0.02000
H 	H 	0.41980 0.11180 0.07230 0.01900
C 	C 	0.45860 0.18450 0.05610 -0.13000
H 	H 	0.49700 0.18960 0.05880 0.05300
H 	H 	0.46190 0.22260 0.05680 0.06400
C 	C 	0.49860 0.16400 0.01822 0.09500
C 	C 	0.21900 0.12620 0.06810 -0.25900
H 	H 	0.17740 0.10560 0.06960 0.10000
H 	H 	0.23120 0.10090 0.06180 0.09800
H 	H 	0.23090 0.15950 0.05890 0.09800
C 	C 	0.54900 0.26870 0.00780 -0.25900
H 	H 	0.51740 0.27000 0.01490 0.09300
H 	H 	0.54940 0.27790 0.99280 0.09400
H 	H 	0.58520 0.29650 0.01440 0.10100
C 	C 	0.23510 0.01050 0.18350 0.08200
C 	C 	0.28760 0.94780 0.19370 -0.08000
H 	H 	0.30400 0.93710 0.20560 0.03800
H 	H 	0.25780 0.91170 0.18720 0.04200
C 	C 	0.31900 0.00180 0.19850 -0.00900
H 	H 	0.33970 0.04390 0.19710 -0.01400
H 	H 	0.33550 0.99250 0.21080 0.01900
C 	C 	0.33320 0.97690 0.17780 -0.08200
H 	H 	0.32010 0.99290 0.16640 0.05500
H 	H 	0.34250 0.94920 0.17130 0.04600
C 	C 	0.38840 0.02680 0.18890 -0.03600
H 	H 	0.37810 0.05380 0.19530 0.01200
H 	H 	0.40010 0.01020 0.20050 0.02100
C 	C 	0.27460 0.33990 0.15730 -0.07800
H 	H 	0.26470 0.35300 0.14410 0.03800
H 	H 	0.27170 0.36270 0.16890 0.03300
C 	C 	0.14660 0.92320 0.16970 -0.25900
H 	H 	0.12050 0.91580 0.15780 0.09700
H 	H 	0.12530 0.91430 0.18310 0.09500
H 	H 	0.16420 0.89930 0.16840 0.10200
C 	C 	0.50820 0.01000 0.94120 0.09900
C 	C 	0.40800 0.93670 0.92240 -0.10500
H 	H 	0.38640 0.89970 0.91500 0.05000
H 	H 	0.41270 0.96630 0.91210 0.05300
C 	C 	0.36660 0.93630 0.93970 -0.00200
H 	H 	0.38910 0.96780 0.94970 0.02400
H 	H 	0.33900 0.94480 0.93270 0.02300
C 	C 	0.39090 0.91930 0.94580 -0.06200
H 	H 	0.41000 0.89810 0.95060 -0.00100
H 	H 	0.40710 0.95480 0.95430 0.01600
C 	C 	0.33830 0.88950 0.95040 -0.10200
H 	H 	0.36760 0.88110 0.95590 0.04300
H 	H 	0.31660 0.85970 0.93970 0.05000
C 	C 	0.33060 0.93450 0.98628 0.08700
C 	C 	0.51460 0.08050 0.91410 -0.25700
H 	H 	0.49460 0.04810 0.90440 0.09700
H 	H 	0.49190 0.09920 0.91610 0.10000
H 	H 	0.55180 0.10790 0.90810 0.09800
C 	C 	0.27320 0.98460 0.98080 -0.26600
H 	H 	0.24770 0.95160 0.97210 0.10400
H 	H 	0.28940 0.01940 0.97220 0.10400
H 	H 	0.25170 0.98810 0.99270 0.10100
Cu	Cu	0.89863 0.47631 0.48507 0.80000
Cu	Cu	0.13381 0.37703 0.35632 0.80500
Cu	Cu	0.25880 0.43449 0.32747 0.80100
S 	S 	0.02230 0.53230 0.40895 -0.07000
S 	S 	0.10225 0.48853 0.36244 -0.07300
S 	S 	0.14484 0.28043 0.25952 -0.10000
S 	S 	0.95728 0.20682 0.30480 -0.08500
S 	S 	0.92028 0.31543 0.53756 -0.10000
S 	S 	0.11476 0.39912 0.50518 -0.09900
N 	N 	0.91177 0.47823 0.42196 -0.06300
N 	N 	0.88057 0.46743 0.43936 -0.07600
N 	N 	0.91667 0.48853 0.45484 -0.19400
N 	N 	0.20787 0.54423 0.34321 -0.06800
N 	N 	0.24667 0.53303 0.33492 -0.07800
N 	N 	0.22767 0.47943 0.33924 -0.19600
N 	N 	0.17767 0.45663 0.34934 -0.24100
N 	N 	0.85667 0.31513 0.50301 -0.06300
N 	N 	0.85437 0.35243 0.49011 -0.07900
N 	N 	0.89527 0.40253 0.49527 -0.18700
N 	N 	0.91997 0.52873 0.50926 -0.24600
N 	N 	0.18947 0.39373 0.26760 -0.07100
N 	N 	0.21607 0.43183 0.28321 -0.07200
N 	N 	0.21697 0.40283 0.29883 -0.18100
N 	N 	0.14107 0.32073 0.37249 -0.25500
N 	N 	0.98627 0.31033 0.32244 -0.06500
N 	N 	0.02677 0.35033 0.33460 -0.07200
N 	N 	0.06117 0.33213 0.33947 -0.18500
N 	N 	0.28917 0.38563 0.33601 -0.24200
C 	C 	0.96797 0.50773 0.42693 0.09000
C 	C 	0.02707 0.46893 0.40453 -0.13000
H 	H 	0.00387 0.43973 0.41523 0.05900
H 	H 	0.01147 0.45313 0.39033 0.06500
C 	C 	0.08657 0.48173 0.40573 -0.02200
H 	H 	0.10217 0.50013 0.41963 0.02000
H 	H 	0.08647 0.44513 0.40563 0.01900
C 	C 	0.12527 0.51783 0.38943 -0.13000
H 	H 	0.16367 0.52293 0.39213 0.05300
H 	H 	0.12857 0.55593 0.39013 0.06400
C 	C 	0.16527 0.49733 0.35155 0.09500
C 	C 	0.88567 0.45953 0.40143 -0.25900
H 	H 	0.84407 0.43893 0.40293 0.10000
H 	H 	0.89787 0.43423 0.39513 0.09800
H 	H 	0.89757 0.49283 0.39223 0.09800
C 	C 	0.21567 0.60203 0.34113 -0.25900
H 	H 	0.18407 0.60333 0.34823 0.09300
H 	H 	0.21607 0.61123 0.32613 0.09400
H 	H 	0.25187 0.62983 0.34773 0.10100
C 	C 	0.90177 0.34383 0.51683 0.08200
C 	C 	0.95427 0.28113 0.52703 -0.08000
H 	H 	0.97067 0.27043 0.53893 0.03900
H 	H 	0.92447 0.24503 0.52053 0.04200
C 	C 	0.98567 0.33513 0.53183 -0.00800
H 	H 	0.00637 0.37723 0.53043 -0.01400
H 	H 	0.00217 0.32583 0.54413 0.01800
C 	C 	0.99987 0.31023 0.51113 -0.08300
H 	H 	0.98677 0.32623 0.49973 0.05500
H 	H 	0.00917 0.28253 0.50463 0.04600
C 	C 	0.05507 0.36013 0.52223 -0.03600
H 	H 	0.04477 0.38713 0.52863 0.01200
H 	H 	0.06677 0.34353 0.53383 0.02100
C 	C 	0.94127 0.67323 0.49063 -0.07800
H 	H 	0.93137 0.68633 0.47743 0.03800
H 	H 	0.93837 0.69603 0.50223 0.03200
C 	C 	0.81327 0.25653 0.50303 -0.25900
H 	H 	0.78717 0.24913 0.49113 0.09700
H 	H 	0.79197 0.24763 0.51643 0.09500
H 	H 	0.83087 0.23263 0.50173 0.10200
C 	C 	0.17487 0.34333 0.27453 0.09900
C 	C 	0.07467 0.27003 0.25573 -0.10500
H 	H 	0.05307 0.23303 0.24833 0.05000
H 	H 	0.07937 0.29963 0.24543 0.05300
C 	C 	0.03327 0.26963 0.27303 -0.00200
H 	H 	0.05577 0.30113 0.28303 0.02400
H 	H 	0.00567 0.27813 0.26603 0.02300
C 	C 	0.05757 0.25263 0.27913 -0.06300
H 	H 	0.07667 0.23143 0.28393 -0.00100
H 	H 	0.07377 0.28813 0.28763 0.01600
C 	C 	0.00497 0.22283 0.28373 -0.10200
H 	H 	0.03427 0.21443 0.28923 0.04300
H 	H 	0.98327 0.19303 0.27303 0.05000
C 	C 	0.99727 0.26783 0.31961 0.08700
C 	C 	0.18127 0.41383 0.24743 -0.25700
H 	H 	0.16127 0.38143 0.23773 0.09700
H 	H 	0.15857 0.43253 0.24943 0.10000
H 	H 	0.21847 0.44123 0.24143 0.09800
C 	C 	0.93987 0.31793 0.31413 -0.26500
H 	H 	0.91437 0.28493 0.30543 0.10400
H 	H 	0.95607 0.35273 0.30553 0.10400
H 	H 	0.91837 0.32143 0.32603 0.10100
Cu	Cu	0.56529 0.80965 0.81841 0.80000
Cu	Cu	0.80047 0.71037 0.68966 0.80500
Cu	Cu	0.92546 0.76783 0.66081 0.80100
S 	S 	0.68896 0.86564 0.74229 -0.07100
S 	S 	0.76891 0.82187 0.69578 -0.07300
S 	S 	0.81150 0.61377 0.59286 -0.10000
S 	S 	0.62394 0.54016 0.63814 -0.08500
S 	S 	0.58694 0.64877 0.87090 -0.10000
S 	S 	0.78142 0.73246 0.83852 -0.09900
N 	N 	0.57843 0.81157 0.75530 -0.06300
N 	N 	0.54723 0.80077 0.77270 -0.07600
N 	N 	0.58333 0.82187 0.78818 -0.19400
N 	N 	0.87453 0.87757 0.67655 -0.06800
N 	N 	0.91333 0.86637 0.66826 -0.07800
N 	N 	0.89433 0.81277 0.67258 -0.19600
N 	N 	0.84433 0.78997 0.68268 -0.24100
N 	N 	0.52333 0.64847 0.83635 -0.06300
N 	N 	0.52103 0.68577 0.82345 -0.07900
N 	N 	0.56193 0.73587 0.82861 -0.18700
N 	N 	0.58663 0.86207 0.84260 -0.24600
N 	N 	0.85613 0.72707 0.60094 -0.07100
N 	N 	0.88273 0.76517 0.61655 -0.07200
N 	N 	0.88363 0.73617 0.63217 -0.18100
N 	N 	0.80773 0.65407 0.70583 -0.25500
N 	N 	0.65293 0.64367 0.65578 -0.06500
N 	N 	0.69343 0.68367 0.66794 -0.07200
N 	N 	0.72783 0.66547 0.67281 -0.18500
N 	N 	0.95583 0.71897 0.66935 -0.24200
C 	C 	0.63463 0.84107 0.76027 0.09100
C 	C 	0.69373 0.80227 0.73787 -0.13000
H 	H 	0.67053 0.77307 0.74857 0.05900
H 	H 	0.67813 0.78647 0.72367 0.06500
C 	C 	0.75323 0.81507 0.73907 -0.02200
H 	H 	0.76883 0.83347 0.75297 0.02000
H 	H 	0.75313 0.77847 0.73897 0.01900
C 	C 	0.79193 0.85117 0.72277 -0.13000
H 	H 	0.83033 0.85627 0.72547 0.05300
H 	H 	0.79523 0.88927 0.72347 0.06400
C 	C 	0.83193 0.83067 0.68489 0.09500
C 	C 	0.55233 0.79287 0.73477 -0.25900
H 	H 	0.51073 0.77227 0.73627 0.10000
H 	H 	0.56453 0.76757 0.72847 0.09800
H 	H 	0.56423 0.82617 0.72557 0.09800
C 	C 	0.88233 0.93537 0.67447 -0.25900
H 	H 	0.85073 0.93667 0.68157 0.09300
H 	H 	0.88273 0.94457 0.65947 0.09400
H 	H 	0.91853 0.96317 0.68107 0.10100
C 	C 	0.56843 0.67717 0.85017 0.08200
C 	C 	0.62093 0.61447 0.86037 -0.08000
H 	H 	0.63733 0.60377 0.87227 0.03900
H 	H 	0.59113 0.57837 0.85387 0.04200
C 	C 	0.65233 0.66847 0.86517 -0.00800
H 	H 	0.67303 0.71057 0.86377 -0.01400
H 	H 	0.66883 0.65917 0.87747 0.01800
C 	C 	0.66653 0.64357 0.84447 -0.08200
H 	H 	0.65343 0.65957 0.83307 0.05500
H 	H 	0.67583 0.61587 0.83797 0.04600
C 	C 	0.72173 0.69347 0.85557 -0.03600
H 	H 	0.71143 0.72047 0.86197 0.01200
H 	H 	0.73343 0.67687 0.86717 0.02100
C 	C 	0.60793 0.00657 0.82397 -0.07900
H 	H 	0.59803 0.01967 0.81077 0.03800
H 	H 	0.60503 0.02937 0.83557 0.03300
C 	C 	0.47993 0.58987 0.83637 -0.25900
H 	H 	0.45383 0.58247 0.82447 0.09700
H 	H 	0.45863 0.58097 0.84977 0.09500
H 	H 	0.49753 0.56597 0.83507 0.10200
C 	C 	0.84153 0.67667 0.60787 0.09900
C 	C 	0.74133 0.60337 0.58907 -0.10500
H 	H 	0.71973 0.56637 0.58167 0.05000
H 	H 	0.74603 0.63297 0.57877 0.05300
C 	C 	0.69993 0.60297 0.60637 -0.00200
H 	H 	0.72243 0.63447 0.61637 0.02400
H 	H 	0.67233 0.61147 0.59937 0.02300
C 	C 	0.72423 0.58597 0.61247 -0.06200
H 	H 	0.74333 0.56477 0.61727 -0.00100
H 	H 	0.74043 0.62147 0.62097 0.01600
C 	C 	0.67163 0.55617 0.61707 -0.10200
H 	H 	0.70093 0.54777 0.62257 0.04300
H 	H 	0.64993 0.52637 0.60637 0.05000
C 	C 	0.66393 0.60117 0.65295 0.08700
C 	C 	0.84793 0.74717 0.58077 -0.25700
H 	H 	0.82793 0.71477 0.57107 0.09700
H 	H 	0.82523 0.76587 0.58277 0.10000
H 	H 	0.88513 0.77457 0.57477 0.09800
C 	C 	0.60653 0.65127 0.64747 -0.26500
H 	H 	0.58103 0.61827 0.63877 0.10400
H 	H 	0.62273 0.68607 0.63887 0.10400
H 	H 	0.58503 0.65477 0.65937 0.10100
Cu	Cu	0.70221 0.87337 0.80032 0.80000
N 	N 	0.63760 0.84680 0.78098 -0.23600
N 	N 	0.74150 0.93550 0.82154 -0.23600
N 	N 	0.73210 0.73950 0.80135 -0.06900
N 	N 	0.71480 0.77230 0.79245 -0.07300
N 	N 	0.72340 0.81140 0.80574 -0.18900
C 	C 	0.75240 0.75940 0.82030 0.09400
C 	C 	0.72870 0.69050 0.79010 -0.25900
H 	H 	0.71040 0.68630 0.77630 0.10100
H 	H 	0.76720 0.69650 0.78800 0.10000
H 	H 	0.70600 0.65570 0.79850 0.09700
Cu	Cu	0.36888 0.20670 0.13365 0.80000
N 	N 	0.30427 0.18013 0.11431 -0.23600
N 	N 	0.40817 0.26883 0.15487 -0.23600
N 	N 	0.39877 0.07283 0.13468 -0.06900
N 	N 	0.38147 0.10563 0.12578 -0.07300
N 	N 	0.39007 0.14473 0.13907 -0.18900
C 	C 	0.41907 0.09273 0.15363 0.09400
C 	C 	0.39537 0.02383 0.12343 -0.26000
H 	H 	0.37707 0.01963 0.10963 0.10100
H 	H 	0.43387 0.02983 0.12133 0.10000
H 	H 	0.37267 0.98903 0.13183 0.09700
Cu	Cu	0.03554 0.54004 0.46699 0.80000
N 	N 	0.97093 0.51347 0.44765 -0.23600
N 	N 	0.07483 0.60217 0.48821 -0.23600
N 	N 	0.06543 0.40617 0.46802 -0.06900
N 	N 	0.04813 0.43897 0.45912 -0.07300
N 	N 	0.05673 0.47807 0.47241 -0.18900
C 	C 	0.08573 0.42607 0.48697 0.09400
C 	C 	0.06203 0.35717 0.45677 -0.25900
H 	H 	0.04373 0.35297 0.44297 0.10100
H 	H 	0.10053 0.36317 0.45467 0.10000
H 	H 	0.03933 0.32237 0.46517 0.09700
Cu	Cu	0.76804 0.85702 0.84826 0.80000
Cu	Cu	0.53286 0.95630 0.97701 0.80500
Cu	Cu	0.40787 0.89884 0.00586 0.80100
S 	S 	0.64437 0.80103 0.92438 -0.07100
S 	S 	0.56442 0.84480 0.97089 -0.07300
S 	S 	0.52183 0.05290 0.07381 -0.10000
S 	S 	0.70939 0.12651 0.02853 -0.08500
S 	S 	0.74639 0.01790 0.79577 -0.10000
S 	S 	0.55191 0.93421 0.82815 -0.09900
N 	N 	0.75490 0.85510 0.91137 -0.06300
N 	N 	0.78610 0.86590 0.89397 -0.07600
N 	N 	0.75000 0.84480 0.87849 -0.19400
N 	N 	0.45880 0.78910 0.99012 -0.06800
N 	N 	0.42000 0.80030 0.99841 -0.07800
N 	N 	0.43900 0.85390 0.99409 -0.19600
N 	N 	0.48900 0.87670 0.98399 -0.24100
N 	N 	0.81000 0.01820 0.83032 -0.06300
N 	N 	0.81230 0.98090 0.84322 -0.07900
N 	N 	0.77140 0.93080 0.83806 -0.18700
N 	N 	0.74670 0.80460 0.82407 -0.24600
N 	N 	0.47720 0.93960 0.06573 -0.07100
N 	N 	0.45060 0.90150 0.05012 -0.07200
N 	N 	0.44970 0.93050 0.03450 -0.18100
N 	N 	0.52560 0.01260 0.96084 -0.25500
N 	N 	0.68040 0.02300 0.01089 -0.06500
N 	N 	0.63990 0.98300 0.99873 -0.07200
N 	N 	0.60550 0.00120 0.99386 -0.18500
N 	N 	0.37750 0.94770 0.99732 -0.24200
C 	C 	0.69870 0.82560 0.90640 0.09100
C 	C 	0.63960 0.86440 0.92880 -0.13000
H 	H 	0.66280 0.89360 0.91810 0.05900
H 	H 	0.65520 0.88020 0.94300 0.06500
C 	C 	0.58010 0.85160 0.92760 -0.02200
H 	H 	0.56450 0.83320 0.91370 0.02000
H 	H 	0.58020 0.88820 0.92770 0.01900
C 	C 	0.54140 0.81550 0.94390 -0.13000
H 	H 	0.50300 0.81040 0.94120 0.05300
H 	H 	0.53810 0.77740 0.94320 0.06400
C 	C 	0.50140 0.83600 0.98178 0.09500
C 	C 	0.78100 0.87380 0.93190 -0.25900
H 	H 	0.82260 0.89440 0.93040 0.10000
H 	H 	0.76880 0.89910 0.93820 0.09800
H 	H 	0.76910 0.84050 0.94110 0.09800
C 	C 	0.45100 0.73130 0.99220 -0.25900
H 	H 	0.48260 0.73000 0.98510 0.09300
H 	H 	0.45060 0.72210 0.00720 0.09400
H 	H 	0.41480 0.70350 0.98560 0.10100
C 	C 	0.76490 0.98950 0.81650 0.08200
C 	C 	0.71240 0.05220 0.80630 -0.08000
H 	H 	0.69600 0.06290 0.79440 0.03800
H 	H 	0.74220 0.08830 0.81280 0.04200
C 	C 	0.68100 0.99820 0.80150 -0.00900
H 	H 	0.66030 0.95610 0.80290 -0.01400
H 	H 	0.66450 0.00750 0.78920 0.01900
C 	C 	0.66680 0.02310 0.82220 -0.08200
H 	H 	0.67990 0.00710 0.83360 0.05500
H 	H 	0.65750 0.05080 0.82870 0.04600
C 	C 	0.61160 0.97320 0.81110 -0.03600
H 	H 	0.62190 0.94620 0.80470 0.01200
H 	H 	0.59990 0.98980 0.79950 0.02100
C 	C 	0.72540 0.66010 0.84270 -0.07800
H 	H 	0.73530 0.64700 0.85590 0.03800
H 	H 	0.72830 0.63730 0.83110 0.03300
C 	C 	0.85340 0.07680 0.83030 -0.25900
H 	H 	0.87950 0.08420 0.84220 0.09700
H 	H 	0.87470 0.08570 0.81690 0.09500
H 	H 	0.83580 0.10070 0.83160 0.10200
C 	C 	0.49180 0.99000 0.05880 0.09900
C 	C 	0.59200 0.06330 0.07760 -0.10500
H 	H 	0.61360 0.10030 0.08500 0.05000
H 	H 	0.58730 0.03370 0.08790 0.05300
C 	C 	0.63340 0.06370 0.06030 -0.00200
H 	H 	0.61090 0.03220 0.05030 0.02400
H 	H 	0.66100 0.05520 0.06730 0.02300
C 	C 	0.60910 0.08070 0.05420 -0.06200
H 	H 	0.59000 0.10190 0.04940 -0.00100
H 	H 	0.59290 0.04520 0.04570 0.01600
C 	C 	0.66170 0.11050 0.04960 -0.10200
H 	H 	0.63240 0.11890 0.04410 0.04300
H 	H 	0.68340 0.14030 0.06030 0.05000
C 	C 	0.66940 0.06550 0.01372 0.08700
C 	C 	0.48540 0.91950 0.08590 -0.25700
H 	H 	0.50540 0.95190 0.09560 0.09700
H 	H 	0.50810 0.90080 0.08390 0.10000
H 	H 	0.44820 0.89210 0.09190 0.09800
C 	C 	0.72680 0.01540 0.01920 -0.26600
H 	H 	0.75230 0.04840 0.02790 0.10400
H 	H 	0.71060 0.98060 0.02780 0.10400
H 	H 	0.74830 0.01190 0.00730 0.10100
Cu	Cu	0.43471 0.19035 0.18159 0.80000
Cu	Cu	0.19953 0.28963 0.31034 0.80500
Cu	Cu	0.07454 0.23217 0.33919 0.80100
S 	S 	0.31104 0.13436 0.25771 -0.07100
S 	S 	0.23109 0.17813 0.30422 -0.07300
S 	S 	0.18850 0.38623 0.40714 -0.10000
S 	S 	0.37606 0.45984 0.36186 -0.08500
S 	S 	0.41306 0.35123 0.12910 -0.10000
S 	S 	0.21858 0.26754 0.16148 -0.09900
N 	N 	0.42157 0.18843 0.24470 -0.06300
N 	N 	0.45277 0.19923 0.22730 -0.07600
N 	N 	0.41667 0.17813 0.21182 -0.19400
N 	N 	0.12547 0.12243 0.32345 -0.06800
N 	N 	0.08667 0.13363 0.33174 -0.07800
N 	N 	0.10567 0.18723 0.32742 -0.19600
N 	N 	0.15567 0.21003 0.31732 -0.24100
N 	N 	0.47667 0.35153 0.16365 -0.06300
N 	N 	0.47897 0.31423 0.17655 -0.07900
N 	N 	0.43807 0.26413 0.17139 -0.18700
N 	N 	0.41337 0.13793 0.15740 -0.24600
N 	N 	0.14387 0.27293 0.39906 -0.07100
N 	N 	0.11727 0.23483 0.38345 -0.07200
N 	N 	0.11637 0.26383 0.36783 -0.18100
N 	N 	0.19227 0.34593 0.29417 -0.25500
N 	N 	0.34707 0.35633 0.34422 -0.06500
N 	N 	0.30657 0.31633 0.33206 -0.07200
N 	N 	0.27217 0.33453 0.32719 -0.18500
N 	N 	0.04417 0.28103 0.33065 -0.24200
C 	C 	0.36537 0.15893 0.23973 0.09100
C 	C 	0.30627 0.19773 0.26213 -0.13000
H 	H 	0.32947 0.22693 0.25143 0.05900
H 	H 	0.32187 0.21353 0.27633 0.06500
C 	C 	0.24677 0.18493 0.26093 -0.02200
H 	H 	0.23117 0.16653 0.24703 0.02000
H 	H 	0.24687 0.22153 0.26103 0.01900
C 	C 	0.20807 0.14883 0.27723 -0.13000
H 	H 	0.16967 0.14373 0.27453 0.05300
H 	H 	0.20477 0.11073 0.27653 0.06400
C 	C 	0.16807 0.16933 0.31511 0.09500
C 	C 	0.44767 0.20713 0.26523 -0.25900
H 	H 	0.48927 0.22773 0.26373 0.10000
H 	H 	0.43547 0.23243 0.27153 0.09800
H 	H 	0.43577 0.17383 0.27443 0.09800
C 	C 	0.11767 0.06463 0.32553 -0.25900
H 	H 	0.14927 0.06333 0.31843 0.09300
H 	H 	0.11727 0.05543 0.34053 0.09400
H 	H 	0.08147 0.03683 0.31893 0.10100
C 	C 	0.43157 0.32283 0.14983 0.08200
C 	C 	0.37907 0.38553 0.13963 -0.08000
H 	H 	0.36267 0.39623 0.12773 0.03900
H 	H 	0.40887 0.42163 0.14613 0.04200
C 	C 	0.34767 0.33153 0.13483 -0.00800
H 	H 	0.32697 0.28943 0.13623 -0.01400
H 	H 	0.33117 0.34083 0.12253 0.01800
C 	C 	0.33347 0.35643 0.15553 -0.08200
H 	H 	0.34657 0.34043 0.16693 0.05500
H 	H 	0.32417 0.38413 0.16203 0.04600
C 	C 	0.27827 0.30653 0.14443 -0.03600
H 	H 	0.28857 0.27953 0.13803 0.01200
H 	H 	0.26657 0.32313 0.13283 0.02100
C 	C 	0.39207 0.99343 0.17603 -0.07900
H 	H 	0.40197 0.98033 0.18923 0.03800
H 	H 	0.39497 0.97063 0.16443 0.03300
C 	C 	0.52007 0.41013 0.16363 -0.25900
H 	H 	0.54617 0.41753 0.17553 0.09700
H 	H 	0.54137 0.41903 0.15023 0.09500
H 	H 	0.50247 0.43403 0.16493 0.10200
C 	C 	0.15847 0.32333 0.39213 0.09900
C 	C 	0.25867 0.39663 0.41093 -0.10500
H 	H 	0.28027 0.43363 0.41833 0.05000
H 	H 	0.25397 0.36703 0.42123 0.05300
C 	C 	0.30007 0.39703 0.39363 -0.00200
H 	H 	0.27757 0.36553 0.38363 0.02400
H 	H 	0.32767 0.38853 0.40063 0.02300
C 	C 	0.27577 0.41403 0.38753 -0.06200
H 	H 	0.25667 0.43523 0.38273 -0.00100
H 	H 	0.25957 0.37853 0.37903 0.01600
C 	C 	0.32837 0.44383 0.38293 -0.10200
H 	H 	0.29907 0.45223 0.37743 0.04300
H 	H 	0.35007 0.47363 0.39363 0.05000
C 	C 	0.33607 0.39883 0.34705 0.08700
C 	C 	0.15207 0.25283 0.41923 -0.25700
H 	H 	0.17207 0.28523 0.42893 0.09700
H 	H 	0.17477 0.23413 0.41723 0.10000
H 	H 	0.11487 0.22543 0.42523 0.09800
C 	C 	0.39347 0.34873 0.35253 -0.26500
H 	H 	0.41897 0.38173 0.36123 0.10400
H 	H 	0.37727 0.31393 0.36113 0.10400
H 	H 	0.41497 0.34523 0.34063 0.10100
Cu	Cu	0.10137 0.52369 0.51493 0.80000
Cu	Cu	0.86619 0.62297 0.64368 0.80500
Cu	Cu	0.74120 0.56551 0.67253 0.80100
S 	S 	0.97770 0.46770 0.59105 -0.07000
S 	S 	0.89775 0.51147 0.63756 -0.07300
S 	S 	0.85516 0.71957 0.74048 -0.10000
S 	S 	0.04272 0.79318 0.69520 -0.08500
S 	S 	0.07972 0.68457 0.46244 -0.10000
S 	S 	0.88524 0.60088 0.49482 -0.09900
N 	N 	0.08823 0.52177 0.57804 -0.06300
N 	N 	0.11943 0.53257 0.56064 -0.07600
N 	N 	0.08333 0.51147 0.54516 -0.19400
N 	N 	0.79213 0.45577 0.65679 -0.06800
N 	N 	0.75333 0.46697 0.66508 -0.07800
N 	N 	0.77233 0.52057 0.66076 -0.19600
N 	N 	0.82233 0.54337 0.65066 -0.24100
N 	N 	0.14333 0.68487 0.49699 -0.06300
N 	N 	0.14563 0.64757 0.50989 -0.07900
N 	N 	0.10473 0.59747 0.50473 -0.18700
N 	N 	0.08003 0.47127 0.49074 -0.24600
N 	N 	0.81053 0.60627 0.73240 -0.07100
N 	N 	0.78393 0.56817 0.71679 -0.07200
N 	N 	0.78303 0.59717 0.70117 -0.18100
N 	N 	0.85893 0.67927 0.62751 -0.25500
N 	N 	0.01373 0.68967 0.67756 -0.06500
N 	N 	0.97323 0.64967 0.66540 -0.07200
N 	N 	0.93883 0.66787 0.66053 -0.18500
N 	N 	0.71083 0.61437 0.66399 -0.24200
C 	C 	0.03203 0.49227 0.57307 0.09000
C 	C 	0.97293 0.53107 0.59547 -0.13000
H 	H 	0.99613 0.56027 0.58477 0.05900
H 	H 	0.98853 0.54687 0.60967 0.06500
C 	C 	0.91343 0.51827 0.59427 -0.02200
H 	H 	0.89783 0.49987 0.58037 0.02000
H 	H 	0.91353 0.55487 0.59437 0.01900
C 	C 	0.87473 0.48217 0.61057 -0.13000
H 	H 	0.83633 0.47707 0.60787 0.05300
H 	H 	0.87143 0.44407 0.60987 0.06400
C 	C 	0.83473 0.50267 0.64845 0.09500
C 	C 	0.11433 0.54047 0.59857 -0.25900
H 	H 	0.15593 0.56107 0.59707 0.10000
H 	H 	0.10213 0.56577 0.60487 0.09800
H 	H 	0.10243 0.50717 0.60777 0.09800
C 	C 	0.78433 0.39797 0.65887 -0.25900
H 	H 	0.81593 0.39667 0.65177 0.09300
H 	H 	0.78393 0.38877 0.67387 0.09400
H 	H 	0.74813 0.37017 0.65227 0.10100
C 	C 	0.09823 0.65617 0.48317 0.08200
C 	C 	0.04573 0.71887 0.47297 -0.08000
H 	H 	0.02933 0.72957 0.46107 0.03900
H 	H 	0.07553 0.75497 0.47947 0.04200
C 	C 	0.01433 0.66487 0.46817 -0.00800
H 	H 	0.99363 0.62277 0.46957 -0.01400
H 	H 	0.99783 0.67417 0.45587 0.01800
C 	C 	0.00013 0.68977 0.48887 -0.08300
H 	H 	0.01323 0.67377 0.50027 0.05500
H 	H 	0.99083 0.71747 0.49537 0.04600
C 	C 	0.94493 0.63987 0.47777 -0.03600
H 	H 	0.95523 0.61287 0.47137 0.01200
H 	H 	0.93323 0.65647 0.46617 0.02100
C 	C 	0.05873 0.32677 0.50937 -0.07800
H 	H 	0.06863 0.31367 0.52257 0.03800
H 	H 	0.06163 0.30397 0.49777 0.03200
C 	C 	0.18673 0.74347 0.49697 -0.25900
H 	H 	0.21283 0.75087 0.50887 0.09700
H 	H 	0.20803 0.75237 0.48357 0.09500
H 	H 	0.16913 0.76737 0.49827 0.10200
C 	C 	0.82513 0.65667 0.72547 0.09900
C 	C 	0.92533 0.72997 0.74427 -0.10500
H 	H 	0.94693 0.76697 0.75167 0.05000
H 	H 	0.92063 0.70037 0.75457 0.05300
C 	C 	0.96673 0.73037 0.72697 -0.00200
H 	H 	0.94423 0.69887 0.71697 0.02400
H 	H 	0.99433 0.72187 0.73397 0.02300
C 	C 	0.94243 0.74737 0.72087 -0.06300
H 	H 	0.92333 0.76857 0.71607 -0.00100
H 	H 	0.92623 0.71187 0.71237 0.01600
C 	C 	0.99503 0.77717 0.71627 -0.10200
H 	H 	0.96573 0.78557 0.71077 0.04300
H 	H 	0.01673 0.80697 0.72697 0.05000
C 	C 	0.00273 0.73217 0.68039 0.08700
C 	C 	0.81873 0.58617 0.75257 -0.25700
H 	H 	0.83873 0.61857 0.76227 0.09700
H 	H 	0.84143 0.56747 0.75057 0.10000
H 	H 	0.78153 0.55877 0.75857 0.09800
C 	C 	0.06013 0.68207 0.68587 -0.26500
H 	H 	0.08563 0.71507 0.69457 0.10400
H 	H 	0.04393 0.64727 0.69447 0.10400
H 	H 	0.08163 0.67857 0.67397 0.10100
