data_crystal

_cell_length_a 12.77310
_cell_length_b 29.87200
_cell_length_c 33.79200
_cell_angle_alpha 90.00000
_cell_angle_beta  90.00000
_cell_angle_gamma 90.00000

_symmetry_space_group_name_	'P 1'
_symmetry_space_group_name_H-M	'P 1'

loop_
_symmetry_equiv_pos_as_xyz
  x,y,z

loop_
_atom_site_label
_atom_site_type_symbol
_atom_site_fract_x
_atom_site_fract_y
_atom_site_fract_z
_atom_site_charge
S 	S 	0.74993 0.19766 0.04497 -0.01900
S 	S 	0.49117 0.29184 0.03681 -0.02300
S 	S 	0.25420 0.29208 0.94419 -0.02100
N 	N 	0.99920 0.17016 0.09691 -0.18300
N 	N 	0.99720 0.34037 0.91368 -0.18500
C 	C 	0.92600 0.19080 0.09009 0.08900
C 	C 	0.83550 0.21600 0.08080 -0.03700
C 	C 	0.80470 0.25560 0.09674 -0.02900
H 	H 	0.84190 0.27080 0.11710 0.03900
C 	C 	0.71190 0.27170 0.07973 -0.06600
H 	H 	0.67940 0.29890 0.08740 0.05100
C 	C 	0.67280 0.24420 0.05101 0.00800
C 	C 	0.58120 0.25019 0.02631 0.00600
C 	C 	0.55210 0.22620 0.99320 -0.05000
H 	H 	0.59060 0.20140 0.98320 0.04900
C 	C 	0.45880 0.24230 0.97566 -0.04900
H 	H 	0.42860 0.22980 0.95250 0.04900
C 	C 	0.41620 0.27810 0.99587 0.00600
C 	C 	0.31960 0.30226 0.98789 0.00900
C 	C 	0.26840 0.33280 0.01055 -0.06500
H 	H 	0.29400 0.34310 0.03530 0.05200
C 	C 	0.17450 0.34750 0.99396 -0.02700
H 	H 	0.12820 0.36790 0.00640 0.03900
C 	C 	0.15730 0.32900 0.95780 -0.03600
C 	C 	0.06810 0.33512 0.93331 0.09100
S 	S 	0.74993 0.69766 0.54497 -0.01900
S 	S 	0.49117 0.79184 0.53681 -0.02300
S 	S 	0.25420 0.79208 0.44419 -0.02100
N 	N 	0.99920 0.67016 0.59691 -0.18300
N 	N 	0.99720 0.84037 0.41368 -0.18500
C 	C 	0.92600 0.69080 0.59009 0.08900
C 	C 	0.83550 0.71600 0.58080 -0.03700
C 	C 	0.80470 0.75560 0.59674 -0.02900
H 	H 	0.84190 0.77080 0.61710 0.03900
C 	C 	0.71190 0.77170 0.57973 -0.06600
H 	H 	0.67940 0.79890 0.58740 0.05100
C 	C 	0.67280 0.74420 0.55101 0.00800
C 	C 	0.58120 0.75019 0.52631 0.00600
C 	C 	0.55210 0.72620 0.49320 -0.05000
H 	H 	0.59060 0.70140 0.48320 0.04900
C 	C 	0.45880 0.74230 0.47566 -0.04900
H 	H 	0.42860 0.72980 0.45250 0.04900
C 	C 	0.41620 0.77810 0.49587 0.00600
C 	C 	0.31960 0.80226 0.48789 0.00900
C 	C 	0.26840 0.83280 0.51055 -0.06500
H 	H 	0.29400 0.84310 0.53530 0.05200
C 	C 	0.17450 0.84750 0.49396 -0.02800
H 	H 	0.12820 0.86790 0.50640 0.04000
C 	C 	0.15730 0.82900 0.45780 -0.03500
C 	C 	0.06810 0.83512 0.43331 0.09100
S 	S 	0.24993 0.19766 0.54497 -0.01900
S 	S 	0.99117 0.29184 0.53681 -0.02300
S 	S 	0.75420 0.29208 0.44419 -0.02100
N 	N 	0.49920 0.17016 0.59691 -0.18300
N 	N 	0.49720 0.34037 0.41368 -0.18500
C 	C 	0.42600 0.19080 0.59009 0.08900
C 	C 	0.33550 0.21600 0.58080 -0.03700
C 	C 	0.30470 0.25560 0.59674 -0.02900
H 	H 	0.34190 0.27080 0.61710 0.03900
C 	C 	0.21190 0.27170 0.57973 -0.06600
H 	H 	0.17940 0.29890 0.58740 0.05100
C 	C 	0.17280 0.24420 0.55101 0.00800
C 	C 	0.08120 0.25019 0.52631 0.00600
C 	C 	0.05210 0.22620 0.49320 -0.05000
H 	H 	0.09060 0.20140 0.48320 0.04900
C 	C 	0.95880 0.24230 0.47566 -0.05000
H 	H 	0.92860 0.22980 0.45250 0.04900
C 	C 	0.91620 0.27810 0.49587 0.00600
C 	C 	0.81960 0.30226 0.48789 0.00900
C 	C 	0.76840 0.33280 0.51055 -0.06500
H 	H 	0.79400 0.34310 0.53530 0.05200
C 	C 	0.67450 0.34750 0.49396 -0.02800
H 	H 	0.62820 0.36790 0.50640 0.04000
C 	C 	0.65730 0.32900 0.45780 -0.03500
C 	C 	0.56810 0.33512 0.43331 0.09200
S 	S 	0.24993 0.69766 0.04497 -0.01800
S 	S 	0.99117 0.79184 0.03681 -0.02200
S 	S 	0.75420 0.79208 0.94419 -0.02000
N 	N 	0.49920 0.67016 0.09691 -0.18200
N 	N 	0.49720 0.84037 0.91368 -0.18400
C 	C 	0.42600 0.69080 0.09009 0.09000
C 	C 	0.33550 0.71600 0.08080 -0.03600
C 	C 	0.30470 0.75560 0.09674 -0.02800
H 	H 	0.34190 0.77080 0.11710 0.04000
C 	C 	0.21190 0.77170 0.07973 -0.06500
H 	H 	0.17940 0.79890 0.08740 0.05200
C 	C 	0.17280 0.74420 0.05101 0.00900
C 	C 	0.08120 0.75019 0.02631 0.00700
C 	C 	0.05210 0.72620 0.99320 -0.04800
H 	H 	0.09060 0.70140 0.98320 0.05000
C 	C 	0.95880 0.74230 0.97566 -0.04900
H 	H 	0.92860 0.72980 0.95250 0.05000
C 	C 	0.91620 0.77810 0.99587 0.00700
C 	C 	0.81960 0.80226 0.98789 0.01000
C 	C 	0.76840 0.83280 0.01055 -0.06400
H 	H 	0.79400 0.84310 0.03530 0.05200
C 	C 	0.67450 0.84750 0.99396 -0.02700
H 	H 	0.62820 0.86790 0.00640 0.04100
C 	C 	0.65730 0.82900 0.95780 -0.03400
C 	C 	0.56810 0.83512 0.93331 0.09200
S 	S 	0.00007 0.55234 0.04497 -0.01800
S 	S 	0.25883 0.45816 0.03681 -0.02200
S 	S 	0.49580 0.45792 0.94419 -0.02000
N 	N 	0.75080 0.57984 0.09691 -0.18200
N 	N 	0.75280 0.40963 0.91368 -0.18400
C 	C 	0.82400 0.55920 0.09009 0.09000
C 	C 	0.91450 0.53400 0.08080 -0.03600
C 	C 	0.94530 0.49440 0.09674 -0.02800
H 	H 	0.90810 0.47920 0.11710 0.04000
C 	C 	0.03810 0.47830 0.07973 -0.06500
H 	H 	0.07060 0.45110 0.08740 0.05200
C 	C 	0.07720 0.50580 0.05101 0.00900
C 	C 	0.16880 0.49981 0.02631 0.00700
C 	C 	0.19790 0.52380 0.99320 -0.04900
H 	H 	0.15940 0.54860 0.98320 0.05000
C 	C 	0.29120 0.50770 0.97566 -0.04800
H 	H 	0.32140 0.52020 0.95250 0.05000
C 	C 	0.33380 0.47190 0.99587 0.00700
C 	C 	0.43040 0.44774 0.98789 0.01000
C 	C 	0.48160 0.41720 0.01055 -0.06400
H 	H 	0.45600 0.40690 0.03530 0.05300
C 	C 	0.57550 0.40250 0.99396 -0.02700
H 	H 	0.62180 0.38210 0.00640 0.04100
C 	C 	0.59270 0.42100 0.95780 -0.03400
C 	C 	0.68190 0.41488 0.93331 0.09200
S 	S 	0.00007 0.05234 0.54497 -0.01800
S 	S 	0.25883 0.95816 0.53681 -0.02200
S 	S 	0.49580 0.95792 0.44419 -0.02000
N 	N 	0.75080 0.07984 0.59691 -0.18200
N 	N 	0.75280 0.90963 0.41368 -0.18400
C 	C 	0.82400 0.05920 0.59009 0.09000
C 	C 	0.91450 0.03400 0.58080 -0.03500
C 	C 	0.94530 0.99440 0.59674 -0.02800
H 	H 	0.90810 0.97920 0.61710 0.04000
C 	C 	0.03810 0.97830 0.57973 -0.06500
H 	H 	0.07060 0.95110 0.58740 0.05200
C 	C 	0.07720 0.00580 0.55101 0.00900
C 	C 	0.16880 0.99981 0.52631 0.00700
C 	C 	0.19790 0.02380 0.49320 -0.04900
H 	H 	0.15940 0.04860 0.48320 0.05000
C 	C 	0.29120 0.00770 0.47566 -0.04800
H 	H 	0.32140 0.02020 0.45250 0.05000
C 	C 	0.33380 0.97190 0.49587 0.00700
C 	C 	0.43040 0.94774 0.48789 0.01000
C 	C 	0.48160 0.91720 0.51055 -0.06400
H 	H 	0.45600 0.90690 0.53530 0.05300
C 	C 	0.57550 0.90250 0.49396 -0.02700
H 	H 	0.62180 0.88210 0.50640 0.04100
C 	C 	0.59270 0.92100 0.45780 -0.03400
C 	C 	0.68190 0.91488 0.43331 0.09200
S 	S 	0.50007 0.55234 0.54497 -0.01800
S 	S 	0.75883 0.45816 0.53681 -0.02200
S 	S 	0.99580 0.45792 0.44419 -0.02000
N 	N 	0.25080 0.57984 0.59691 -0.18200
N 	N 	0.25280 0.40963 0.41368 -0.18400
C 	C 	0.32400 0.55920 0.59009 0.09000
C 	C 	0.41450 0.53400 0.58080 -0.03600
C 	C 	0.44530 0.49440 0.59674 -0.02800
H 	H 	0.40810 0.47920 0.61710 0.04000
C 	C 	0.53810 0.47830 0.57973 -0.06500
H 	H 	0.57060 0.45110 0.58740 0.05200
C 	C 	0.57720 0.50580 0.55101 0.00900
C 	C 	0.66880 0.49981 0.52631 0.00700
C 	C 	0.69790 0.52380 0.49320 -0.04900
H 	H 	0.65940 0.54860 0.48320 0.05000
C 	C 	0.79120 0.50770 0.47566 -0.04800
H 	H 	0.82140 0.52020 0.45250 0.05000
C 	C 	0.83380 0.47190 0.49587 0.00700
C 	C 	0.93040 0.44774 0.48789 0.01000
C 	C 	0.98160 0.41720 0.51055 -0.06400
H 	H 	0.95600 0.40690 0.53530 0.05300
C 	C 	0.07550 0.40250 0.49396 -0.02700
H 	H 	0.12180 0.38210 0.50640 0.04100
C 	C 	0.09270 0.42100 0.45780 -0.03400
C 	C 	0.18190 0.41488 0.43331 0.09200
S 	S 	0.50007 0.05234 0.04497 -0.01800
S 	S 	0.75883 0.95816 0.03681 -0.02200
S 	S 	0.99580 0.95792 0.94419 -0.02000
N 	N 	0.25080 0.07984 0.09691 -0.18200
N 	N 	0.25280 0.90963 0.91368 -0.18400
C 	C 	0.32400 0.05920 0.09009 0.09000
C 	C 	0.41450 0.03400 0.08080 -0.03600
C 	C 	0.44530 0.99440 0.09674 -0.02800
H 	H 	0.40810 0.97920 0.11710 0.04000
C 	C 	0.53810 0.97830 0.07973 -0.06500
H 	H 	0.57060 0.95110 0.08740 0.05200
C 	C 	0.57720 0.00580 0.05101 0.00900
C 	C 	0.66880 0.99981 0.02631 0.00700
C 	C 	0.69790 0.02380 0.99320 -0.04900
H 	H 	0.65940 0.04860 0.98320 0.05000
C 	C 	0.79120 0.00770 0.97566 -0.04800
H 	H 	0.82140 0.02020 0.95250 0.05000
C 	C 	0.83380 0.97190 0.99587 0.00700
C 	C 	0.93040 0.94774 0.98789 0.01000
C 	C 	0.98160 0.91720 0.01055 -0.06400
H 	H 	0.95600 0.90690 0.03530 0.05300
C 	C 	0.07550 0.90250 0.99396 -0.02600
H 	H 	0.12180 0.88210 0.00640 0.04000
C 	C 	0.09270 0.92100 0.95780 -0.03400
C 	C 	0.18190 0.91488 0.93331 0.09200
S 	S 	0.00007 0.19766 0.70503 -0.01800
S 	S 	0.25883 0.29184 0.71319 -0.02200
S 	S 	0.49580 0.29208 0.80581 -0.02000
N 	N 	0.75080 0.17016 0.65309 -0.18200
N 	N 	0.75280 0.34037 0.83632 -0.18400
C 	C 	0.82400 0.19080 0.65991 0.09000
C 	C 	0.91450 0.21600 0.66920 -0.03600
C 	C 	0.94530 0.25560 0.65326 -0.02800
H 	H 	0.90810 0.27080 0.63290 0.04000
C 	C 	0.03810 0.27170 0.67027 -0.06500
H 	H 	0.07060 0.29890 0.66260 0.05200
C 	C 	0.07720 0.24420 0.69899 0.00900
C 	C 	0.16880 0.25019 0.72369 0.00700
C 	C 	0.19790 0.22620 0.75680 -0.04900
H 	H 	0.15940 0.20140 0.76680 0.05000
C 	C 	0.29120 0.24230 0.77434 -0.04800
H 	H 	0.32140 0.22980 0.79750 0.05000
C 	C 	0.33380 0.27810 0.75413 0.00700
C 	C 	0.43040 0.30226 0.76211 0.01000
C 	C 	0.48160 0.33280 0.73945 -0.06400
H 	H 	0.45600 0.34310 0.71470 0.05300
C 	C 	0.57550 0.34750 0.75604 -0.02700
H 	H 	0.62180 0.36790 0.74360 0.04100
C 	C 	0.59270 0.32900 0.79220 -0.03400
C 	C 	0.68190 0.33512 0.81669 0.09200
S 	S 	0.00007 0.69766 0.20503 -0.01800
S 	S 	0.25883 0.79184 0.21319 -0.02200
S 	S 	0.49580 0.79208 0.30581 -0.02000
N 	N 	0.75080 0.67016 0.15309 -0.18200
N 	N 	0.75280 0.84037 0.33632 -0.18400
C 	C 	0.82400 0.69080 0.15991 0.09000
C 	C 	0.91450 0.71600 0.16920 -0.03600
C 	C 	0.94530 0.75560 0.15326 -0.02800
H 	H 	0.90810 0.77080 0.13290 0.04000
C 	C 	0.03810 0.77170 0.17027 -0.06500
H 	H 	0.07060 0.79890 0.16260 0.05200
C 	C 	0.07720 0.74420 0.19899 0.00900
C 	C 	0.16880 0.75019 0.22369 0.00700
C 	C 	0.19790 0.72620 0.25680 -0.04900
H 	H 	0.15940 0.70140 0.26680 0.05000
C 	C 	0.29120 0.74230 0.27434 -0.04800
H 	H 	0.32140 0.72980 0.29750 0.05000
C 	C 	0.33380 0.77810 0.25413 0.00700
C 	C 	0.43040 0.80226 0.26211 0.01000
C 	C 	0.48160 0.83280 0.23945 -0.06400
H 	H 	0.45600 0.84310 0.21470 0.05300
C 	C 	0.57550 0.84750 0.25604 -0.02700
H 	H 	0.62180 0.86790 0.24360 0.04100
C 	C 	0.59270 0.82900 0.29220 -0.03400
C 	C 	0.68190 0.83512 0.31669 0.09200
S 	S 	0.50007 0.19766 0.20503 -0.01800
S 	S 	0.75883 0.29184 0.21319 -0.02200
S 	S 	0.99580 0.29208 0.30581 -0.02000
N 	N 	0.25080 0.17016 0.15309 -0.18200
N 	N 	0.25280 0.34037 0.33632 -0.18400
C 	C 	0.32400 0.19080 0.15991 0.09000
C 	C 	0.41450 0.21600 0.16920 -0.03600
C 	C 	0.44530 0.25560 0.15326 -0.02800
H 	H 	0.40810 0.27080 0.13290 0.04000
C 	C 	0.53810 0.27170 0.17027 -0.06500
H 	H 	0.57060 0.29890 0.16260 0.05200
C 	C 	0.57720 0.24420 0.19899 0.00900
C 	C 	0.66880 0.25019 0.22369 0.00700
C 	C 	0.69790 0.22620 0.25680 -0.04900
H 	H 	0.65940 0.20140 0.26680 0.05000
C 	C 	0.79120 0.24230 0.27434 -0.04800
H 	H 	0.82140 0.22980 0.29750 0.05000
C 	C 	0.83380 0.27810 0.25413 0.00700
C 	C 	0.93040 0.30226 0.26211 0.01000
C 	C 	0.98160 0.33280 0.23945 -0.06400
H 	H 	0.95600 0.34310 0.21470 0.05300
C 	C 	0.07550 0.34750 0.25604 -0.02700
H 	H 	0.12180 0.36790 0.24360 0.04100
C 	C 	0.09270 0.32900 0.29220 -0.03400
C 	C 	0.18190 0.33512 0.31669 0.09200
S 	S 	0.50007 0.69766 0.70503 -0.01800
S 	S 	0.75883 0.79184 0.71319 -0.02200
S 	S 	0.99580 0.79208 0.80581 -0.02000
N 	N 	0.25080 0.67016 0.65309 -0.18200
N 	N 	0.25280 0.84037 0.83632 -0.18400
C 	C 	0.32400 0.69080 0.65991 0.09000
C 	C 	0.41450 0.71600 0.66920 -0.03600
C 	C 	0.44530 0.75560 0.65326 -0.02800
H 	H 	0.40810 0.77080 0.63290 0.04000
C 	C 	0.53810 0.77170 0.67027 -0.06500
H 	H 	0.57060 0.79890 0.66260 0.05200
C 	C 	0.57720 0.74420 0.69899 0.00900
C 	C 	0.66880 0.75019 0.72369 0.00700
C 	C 	0.69790 0.72620 0.75680 -0.04900
H 	H 	0.65940 0.70140 0.76680 0.05000
C 	C 	0.79120 0.74230 0.77434 -0.04800
H 	H 	0.82140 0.72980 0.79750 0.05000
C 	C 	0.83380 0.77810 0.75413 0.00700
C 	C 	0.93040 0.80226 0.76211 0.01000
C 	C 	0.98160 0.83280 0.73945 -0.06400
H 	H 	0.95600 0.84310 0.71470 0.05300
C 	C 	0.07550 0.84750 0.75604 -0.02600
H 	H 	0.12180 0.86790 0.74360 0.04100
C 	C 	0.09270 0.82900 0.79220 -0.03400
C 	C 	0.18190 0.83512 0.81669 0.09200
S 	S 	0.74993 0.55234 0.70503 -0.01800
S 	S 	0.49117 0.45816 0.71319 -0.02200
S 	S 	0.25420 0.45792 0.80581 -0.02000
N 	N 	0.99920 0.57984 0.65309 -0.18200
N 	N 	0.99720 0.40963 0.83632 -0.18400
C 	C 	0.92600 0.55920 0.65991 0.09000
C 	C 	0.83550 0.53400 0.66920 -0.03600
C 	C 	0.80470 0.49440 0.65326 -0.02800
H 	H 	0.84190 0.47920 0.63290 0.04000
C 	C 	0.71190 0.47830 0.67027 -0.06500
H 	H 	0.67940 0.45110 0.66260 0.05200
C 	C 	0.67280 0.50580 0.69899 0.00900
C 	C 	0.58120 0.49981 0.72369 0.00700
C 	C 	0.55210 0.52380 0.75680 -0.04900
H 	H 	0.59060 0.54860 0.76680 0.05000
C 	C 	0.45880 0.50770 0.77434 -0.04800
H 	H 	0.42860 0.52020 0.79750 0.05000
C 	C 	0.41620 0.47190 0.75413 0.00700
C 	C 	0.31960 0.44774 0.76211 0.01000
C 	C 	0.26840 0.41720 0.73945 -0.06400
H 	H 	0.29400 0.40690 0.71470 0.05300
C 	C 	0.17450 0.40250 0.75604 -0.02700
H 	H 	0.12820 0.38210 0.74360 0.04100
C 	C 	0.15730 0.42100 0.79220 -0.03400
C 	C 	0.06810 0.41488 0.81669 0.09200
S 	S 	0.74993 0.05234 0.20503 -0.01800
S 	S 	0.49117 0.95816 0.21319 -0.02200
S 	S 	0.25420 0.95792 0.30581 -0.02000
N 	N 	0.99920 0.07984 0.15309 -0.18200
N 	N 	0.99720 0.90963 0.33632 -0.18400
C 	C 	0.92600 0.05920 0.15991 0.09000
C 	C 	0.83550 0.03400 0.16920 -0.03600
C 	C 	0.80470 0.99440 0.15326 -0.02800
H 	H 	0.84190 0.97920 0.13290 0.04000
C 	C 	0.71190 0.97830 0.17027 -0.06500
H 	H 	0.67940 0.95110 0.16260 0.05200
C 	C 	0.67280 0.00580 0.19899 0.00900
C 	C 	0.58120 0.99981 0.22369 0.00700
C 	C 	0.55210 0.02380 0.25680 -0.04900
H 	H 	0.59060 0.04860 0.26680 0.05000
C 	C 	0.45880 0.00770 0.27434 -0.04900
H 	H 	0.42860 0.02020 0.29750 0.05000
C 	C 	0.41620 0.97190 0.25413 0.00700
C 	C 	0.31960 0.94774 0.26211 0.01000
C 	C 	0.26840 0.91720 0.23945 -0.06400
H 	H 	0.29400 0.90690 0.21470 0.05300
C 	C 	0.17450 0.90250 0.25604 -0.02700
H 	H 	0.12820 0.88210 0.24360 0.04100
C 	C 	0.15730 0.92100 0.29220 -0.03400
C 	C 	0.06810 0.91488 0.31669 0.09200
S 	S 	0.24993 0.55234 0.20503 -0.01800
S 	S 	0.99117 0.45816 0.21319 -0.02200
S 	S 	0.75420 0.45792 0.30581 -0.02000
N 	N 	0.49920 0.57984 0.15309 -0.18200
N 	N 	0.49720 0.40963 0.33632 -0.18400
C 	C 	0.42600 0.55920 0.15991 0.09000
C 	C 	0.33550 0.53400 0.16920 -0.03600
C 	C 	0.30470 0.49440 0.15326 -0.02800
H 	H 	0.34190 0.47920 0.13290 0.04000
C 	C 	0.21190 0.47830 0.17027 -0.06500
H 	H 	0.17940 0.45110 0.16260 0.05200
C 	C 	0.17280 0.50580 0.19899 0.00900
C 	C 	0.08120 0.49981 0.22369 0.00700
C 	C 	0.05210 0.52380 0.25680 -0.04900
H 	H 	0.09060 0.54860 0.26680 0.05000
C 	C 	0.95880 0.50770 0.27434 -0.04900
H 	H 	0.92860 0.52020 0.29750 0.05000
C 	C 	0.91620 0.47190 0.25413 0.00700
C 	C 	0.81960 0.44774 0.26211 0.01000
C 	C 	0.76840 0.41720 0.23945 -0.06400
H 	H 	0.79400 0.40690 0.21470 0.05300
C 	C 	0.67450 0.40250 0.25604 -0.02700
H 	H 	0.62820 0.38210 0.24360 0.04100
C 	C 	0.65730 0.42100 0.29220 -0.03400
C 	C 	0.56810 0.41488 0.31669 0.09200
S 	S 	0.24993 0.05234 0.70503 -0.01800
S 	S 	0.99117 0.95816 0.71319 -0.02200
S 	S 	0.75420 0.95792 0.80581 -0.02000
N 	N 	0.49920 0.07984 0.65309 -0.18200
N 	N 	0.49720 0.90963 0.83632 -0.18400
C 	C 	0.42600 0.05920 0.65991 0.09000
C 	C 	0.33550 0.03400 0.66920 -0.03600
C 	C 	0.30470 0.99440 0.65326 -0.02800
H 	H 	0.34190 0.97920 0.63290 0.04000
C 	C 	0.21190 0.97830 0.67027 -0.06500
H 	H 	0.17940 0.95110 0.66260 0.05200
C 	C 	0.17280 0.00580 0.69899 0.00900
C 	C 	0.08120 0.99981 0.72369 0.00700
C 	C 	0.05210 0.02380 0.75680 -0.04900
H 	H 	0.09060 0.04860 0.76680 0.05000
C 	C 	0.95880 0.00770 0.77434 -0.04800
H 	H 	0.92860 0.02020 0.79750 0.05000
C 	C 	0.91620 0.97190 0.75413 0.00700
C 	C 	0.81960 0.94774 0.76211 0.01000
C 	C 	0.76840 0.91720 0.73945 -0.06400
H 	H 	0.79400 0.90690 0.71470 0.05300
C 	C 	0.67450 0.90250 0.75604 -0.02700
H 	H 	0.62820 0.88210 0.74360 0.04100
C 	C 	0.65730 0.92100 0.79220 -0.03400
C 	C 	0.56810 0.91488 0.81669 0.09200
Ag	Ag	0.12500 0.12500 0.12500 0.55600
Ag	Ag	0.12500 0.62500 0.62500 0.55600
Ag	Ag	0.62500 0.62500 0.12500 0.55600
Ag	Ag	0.62500 0.12500 0.62500 0.55600
Ag	Ag	0.87500 0.37500 0.87500 0.55800
Ag	Ag	0.87500 0.87500 0.37500 0.55800
Ag	Ag	0.37500 0.37500 0.37500 0.55800
Ag	Ag	0.37500 0.87500 0.87500 0.55800
S 	S 	0.25007 0.80234 0.95503 -0.01800
S 	S 	0.50883 0.70816 0.96319 -0.02200
S 	S 	0.74580 0.70792 0.05581 -0.02000
N 	N 	0.00080 0.82984 0.90309 -0.18200
N 	N 	0.00280 0.65963 0.08632 -0.18400
C 	C 	0.07400 0.80920 0.90991 0.09000
C 	C 	0.16450 0.78400 0.91920 -0.03600
C 	C 	0.19530 0.74440 0.90326 -0.02800
H 	H 	0.15810 0.72920 0.88290 0.04000
C 	C 	0.28810 0.72830 0.92027 -0.06500
H 	H 	0.32060 0.70110 0.91260 0.05200
C 	C 	0.32720 0.75580 0.94899 0.00900
C 	C 	0.41880 0.74981 0.97369 0.00700
C 	C 	0.44790 0.77380 0.00680 -0.04900
H 	H 	0.40940 0.79860 0.01680 0.05000
C 	C 	0.54120 0.75770 0.02434 -0.04800
H 	H 	0.57140 0.77020 0.04750 0.05000
C 	C 	0.58380 0.72190 0.00413 0.00700
C 	C 	0.68040 0.69774 0.01211 0.01000
C 	C 	0.73160 0.66720 0.98945 -0.06400
H 	H 	0.70600 0.65690 0.96470 0.05300
C 	C 	0.82550 0.65250 0.00604 -0.02600
H 	H 	0.87180 0.63210 0.99360 0.04000
C 	C 	0.84270 0.67100 0.04220 -0.03500
C 	C 	0.93190 0.66488 0.06669 0.09200
S 	S 	0.25007 0.30234 0.45503 -0.01800
S 	S 	0.50883 0.20816 0.46319 -0.02200
S 	S 	0.74580 0.20792 0.55581 -0.02000
N 	N 	0.00080 0.32984 0.40309 -0.18200
N 	N 	0.00280 0.15963 0.58632 -0.18400
C 	C 	0.07400 0.30920 0.40991 0.09000
C 	C 	0.16450 0.28400 0.41920 -0.03600
C 	C 	0.19530 0.24440 0.40326 -0.02800
H 	H 	0.15810 0.22920 0.38290 0.04000
C 	C 	0.28810 0.22830 0.42027 -0.06500
H 	H 	0.32060 0.20110 0.41260 0.05200
C 	C 	0.32720 0.25580 0.44899 0.00900
C 	C 	0.41880 0.24981 0.47369 0.00700
C 	C 	0.44790 0.27380 0.50680 -0.04900
H 	H 	0.40940 0.29860 0.51680 0.05000
C 	C 	0.54120 0.25770 0.52434 -0.04800
H 	H 	0.57140 0.27020 0.54750 0.05000
C 	C 	0.58380 0.22190 0.50413 0.00700
C 	C 	0.68040 0.19774 0.51211 0.01000
C 	C 	0.73160 0.16720 0.48945 -0.06400
H 	H 	0.70600 0.15690 0.46470 0.05300
C 	C 	0.82550 0.15250 0.50604 -0.02700
H 	H 	0.87180 0.13210 0.49360 0.04100
C 	C 	0.84270 0.17100 0.54220 -0.03400
C 	C 	0.93190 0.16488 0.56669 0.09200
S 	S 	0.75007 0.80234 0.45503 -0.01800
S 	S 	0.00883 0.70816 0.46319 -0.02200
S 	S 	0.24580 0.70792 0.55581 -0.02000
N 	N 	0.50080 0.82984 0.40309 -0.18200
N 	N 	0.50280 0.65963 0.58632 -0.18400
C 	C 	0.57400 0.80920 0.40991 0.09000
C 	C 	0.66450 0.78400 0.41920 -0.03600
C 	C 	0.69530 0.74440 0.40326 -0.02800
H 	H 	0.65810 0.72920 0.38290 0.04000
C 	C 	0.78810 0.72830 0.42027 -0.06500
H 	H 	0.82060 0.70110 0.41260 0.05200
C 	C 	0.82720 0.75580 0.44899 0.00900
C 	C 	0.91880 0.74981 0.47369 0.00700
C 	C 	0.94790 0.77380 0.50680 -0.04900
H 	H 	0.90940 0.79860 0.51680 0.05000
C 	C 	0.04120 0.75770 0.52434 -0.04900
H 	H 	0.07140 0.77020 0.54750 0.05000
C 	C 	0.08380 0.72190 0.50413 0.00700
C 	C 	0.18040 0.69774 0.51211 0.01000
C 	C 	0.23160 0.66720 0.48945 -0.06400
H 	H 	0.20600 0.65690 0.46470 0.05300
C 	C 	0.32550 0.65250 0.50604 -0.02700
H 	H 	0.37180 0.63210 0.49360 0.04100
C 	C 	0.34270 0.67100 0.54220 -0.03400
C 	C 	0.43190 0.66488 0.56669 0.09200
S 	S 	0.75007 0.30234 0.95503 -0.01800
S 	S 	0.00883 0.20816 0.96319 -0.02200
S 	S 	0.24580 0.20792 0.05581 -0.02000
N 	N 	0.50080 0.32984 0.90309 -0.18200
N 	N 	0.50280 0.15963 0.08632 -0.18400
C 	C 	0.57400 0.30920 0.90991 0.09000
C 	C 	0.66450 0.28400 0.91920 -0.03600
C 	C 	0.69530 0.24440 0.90326 -0.02800
H 	H 	0.65810 0.22920 0.88290 0.04000
C 	C 	0.78810 0.22830 0.92027 -0.06500
H 	H 	0.82060 0.20110 0.91260 0.05200
C 	C 	0.82720 0.25580 0.94899 0.00900
C 	C 	0.91880 0.24981 0.97369 0.00700
C 	C 	0.94790 0.27380 0.00680 -0.04800
H 	H 	0.90940 0.29860 0.01680 0.05000
C 	C 	0.04120 0.25770 0.02434 -0.04900
H 	H 	0.07140 0.27020 0.04750 0.05000
C 	C 	0.08380 0.22190 0.00413 0.00700
C 	C 	0.18040 0.19774 0.01211 0.01000
C 	C 	0.23160 0.16720 0.98945 -0.06400
H 	H 	0.20600 0.15690 0.96470 0.05200
C 	C 	0.32550 0.15250 0.00604 -0.02700
H 	H 	0.37180 0.13210 0.99360 0.04100
C 	C 	0.34270 0.17100 0.04220 -0.03400
C 	C 	0.43190 0.16488 0.06669 0.09200
S 	S 	0.99993 0.44766 0.95503 -0.01800
S 	S 	0.74117 0.54184 0.96319 -0.02200
S 	S 	0.50420 0.54208 0.05581 -0.02000
N 	N 	0.24920 0.42016 0.90309 -0.18200
N 	N 	0.24720 0.59037 0.08632 -0.18400
C 	C 	0.17600 0.44080 0.90991 0.09000
C 	C 	0.08550 0.46600 0.91920 -0.03600
C 	C 	0.05470 0.50560 0.90326 -0.02800
H 	H 	0.09190 0.52080 0.88290 0.04000
C 	C 	0.96190 0.52170 0.92027 -0.06500
H 	H 	0.92940 0.54890 0.91260 0.05200
C 	C 	0.92280 0.49420 0.94899 0.00900
C 	C 	0.83120 0.50019 0.97369 0.00700
C 	C 	0.80210 0.47620 0.00680 -0.04900
H 	H 	0.84060 0.45140 0.01680 0.05000
C 	C 	0.70880 0.49230 0.02434 -0.04800
H 	H 	0.67860 0.47980 0.04750 0.05000
C 	C 	0.66620 0.52810 0.00413 0.00700
C 	C 	0.56960 0.55226 0.01211 0.01000
C 	C 	0.51840 0.58280 0.98945 -0.06400
H 	H 	0.54400 0.59310 0.96470 0.05300
C 	C 	0.42450 0.59750 0.00604 -0.02700
H 	H 	0.37820 0.61790 0.99360 0.04100
C 	C 	0.40730 0.57900 0.04220 -0.03400
C 	C 	0.31810 0.58512 0.06669 0.09200
S 	S 	0.99993 0.94766 0.45503 -0.01800
S 	S 	0.74117 0.04184 0.46319 -0.02200
S 	S 	0.50420 0.04208 0.55581 -0.02000
N 	N 	0.24920 0.92016 0.40309 -0.18200
N 	N 	0.24720 0.09037 0.58632 -0.18400
C 	C 	0.17600 0.94080 0.40991 0.09000
C 	C 	0.08550 0.96600 0.41920 -0.03500
C 	C 	0.05470 0.00560 0.40326 -0.02800
H 	H 	0.09190 0.02080 0.38290 0.04000
C 	C 	0.96190 0.02170 0.42027 -0.06500
H 	H 	0.92940 0.04890 0.41260 0.05200
C 	C 	0.92280 0.99420 0.44899 0.00900
C 	C 	0.83120 0.00019 0.47369 0.00700
C 	C 	0.80210 0.97620 0.50680 -0.04900
H 	H 	0.84060 0.95140 0.51680 0.05000
C 	C 	0.70880 0.99230 0.52434 -0.04800
H 	H 	0.67860 0.97980 0.54750 0.05000
C 	C 	0.66620 0.02810 0.50413 0.00700
C 	C 	0.56960 0.05226 0.51211 0.01000
C 	C 	0.51840 0.08280 0.48945 -0.06400
H 	H 	0.54400 0.09310 0.46470 0.05300
C 	C 	0.42450 0.09750 0.50604 -0.02700
H 	H 	0.37820 0.11790 0.49360 0.04100
C 	C 	0.40730 0.07900 0.54220 -0.03400
C 	C 	0.31810 0.08512 0.56669 0.09200
S 	S 	0.49993 0.44766 0.45503 -0.01800
S 	S 	0.24117 0.54184 0.46319 -0.02200
S 	S 	0.00420 0.54208 0.55581 -0.02000
N 	N 	0.74920 0.42016 0.40309 -0.18200
N 	N 	0.74720 0.59037 0.58632 -0.18400
C 	C 	0.67600 0.44080 0.40991 0.09000
C 	C 	0.58550 0.46600 0.41920 -0.03600
C 	C 	0.55470 0.50560 0.40326 -0.02800
H 	H 	0.59190 0.52080 0.38290 0.04000
C 	C 	0.46190 0.52170 0.42027 -0.06500
H 	H 	0.42940 0.54890 0.41260 0.05200
C 	C 	0.42280 0.49420 0.44899 0.00900
C 	C 	0.33120 0.50019 0.47369 0.00700
C 	C 	0.30210 0.47620 0.50680 -0.04900
H 	H 	0.34060 0.45140 0.51680 0.05000
C 	C 	0.20880 0.49230 0.52434 -0.04800
H 	H 	0.17860 0.47980 0.54750 0.05000
C 	C 	0.16620 0.52810 0.50413 0.00700
C 	C 	0.06960 0.55226 0.51211 0.01000
C 	C 	0.01840 0.58280 0.48945 -0.06400
H 	H 	0.04400 0.59310 0.46470 0.05300
C 	C 	0.92450 0.59750 0.50604 -0.02700
H 	H 	0.87820 0.61790 0.49360 0.04100
C 	C 	0.90730 0.57900 0.54220 -0.03400
C 	C 	0.81810 0.58512 0.56669 0.09200
S 	S 	0.49993 0.94766 0.95503 -0.01800
S 	S 	0.24117 0.04184 0.96319 -0.02200
S 	S 	0.00420 0.04208 0.05581 -0.02000
N 	N 	0.74920 0.92016 0.90309 -0.18200
N 	N 	0.74720 0.09037 0.08632 -0.18400
C 	C 	0.67600 0.94080 0.90991 0.09000
C 	C 	0.58550 0.96600 0.91920 -0.03600
C 	C 	0.55470 0.00560 0.90326 -0.02800
H 	H 	0.59190 0.02080 0.88290 0.04000
C 	C 	0.46190 0.02170 0.92027 -0.06500
H 	H 	0.42940 0.04890 0.91260 0.05200
C 	C 	0.42280 0.99420 0.94899 0.00900
C 	C 	0.33120 0.00019 0.97369 0.00700
C 	C 	0.30210 0.97620 0.00680 -0.04900
H 	H 	0.34060 0.95140 0.01680 0.05000
C 	C 	0.20880 0.99230 0.02434 -0.04800
H 	H 	0.17860 0.97980 0.04750 0.05000
C 	C 	0.16620 0.02810 0.00413 0.00700
C 	C 	0.06960 0.05226 0.01211 0.01000
C 	C 	0.01840 0.08280 0.98945 -0.06400
H 	H 	0.04400 0.09310 0.96470 0.05300
C 	C 	0.92450 0.09750 0.00604 -0.02600
H 	H 	0.87820 0.11790 0.99360 0.04000
C 	C 	0.90730 0.07900 0.04220 -0.03400
C 	C 	0.81810 0.08512 0.06669 0.09200
S 	S 	0.99993 0.80234 0.29497 -0.01800
S 	S 	0.74117 0.70816 0.28681 -0.02200
S 	S 	0.50420 0.70792 0.19419 -0.02000
N 	N 	0.24920 0.82984 0.34691 -0.18200
N 	N 	0.24720 0.65963 0.16368 -0.18400
C 	C 	0.17600 0.80920 0.34009 0.09000
C 	C 	0.08550 0.78400 0.33080 -0.03600
C 	C 	0.05470 0.74440 0.34674 -0.02800
H 	H 	0.09190 0.72920 0.36710 0.04000
C 	C 	0.96190 0.72830 0.32973 -0.06500
H 	H 	0.92940 0.70110 0.33740 0.05200
C 	C 	0.92280 0.75580 0.30101 0.00900
C 	C 	0.83120 0.74981 0.27631 0.00700
C 	C 	0.80210 0.77380 0.24320 -0.04900
H 	H 	0.84060 0.79860 0.23320 0.05000
C 	C 	0.70880 0.75770 0.22566 -0.04800
H 	H 	0.67860 0.77020 0.20250 0.05000
C 	C 	0.66620 0.72190 0.24587 0.00700
C 	C 	0.56960 0.69774 0.23789 0.01000
C 	C 	0.51840 0.66720 0.26055 -0.06400
H 	H 	0.54400 0.65690 0.28530 0.05300
C 	C 	0.42450 0.65250 0.24396 -0.02700
H 	H 	0.37820 0.63210 0.25640 0.04100
C 	C 	0.40730 0.67100 0.20780 -0.03400
C 	C 	0.31810 0.66488 0.18331 0.09200
S 	S 	0.99993 0.30234 0.79497 -0.01800
S 	S 	0.74117 0.20816 0.78681 -0.02200
S 	S 	0.50420 0.20792 0.69419 -0.02000
N 	N 	0.24920 0.32984 0.84691 -0.18200
N 	N 	0.24720 0.15963 0.66368 -0.18400
C 	C 	0.17600 0.30920 0.84009 0.09000
C 	C 	0.08550 0.28400 0.83080 -0.03600
C 	C 	0.05470 0.24440 0.84674 -0.02800
H 	H 	0.09190 0.22920 0.86710 0.04000
C 	C 	0.96190 0.22830 0.82973 -0.06500
H 	H 	0.92940 0.20110 0.83740 0.05200
C 	C 	0.92280 0.25580 0.80101 0.00900
C 	C 	0.83120 0.24981 0.77631 0.00700
C 	C 	0.80210 0.27380 0.74320 -0.04900
H 	H 	0.84060 0.29860 0.73320 0.05000
C 	C 	0.70880 0.25770 0.72566 -0.04800
H 	H 	0.67860 0.27020 0.70250 0.05000
C 	C 	0.66620 0.22190 0.74587 0.00700
C 	C 	0.56960 0.19774 0.73789 0.01000
C 	C 	0.51840 0.16720 0.76055 -0.06400
H 	H 	0.54400 0.15690 0.78530 0.05300
C 	C 	0.42450 0.15250 0.74396 -0.02700
H 	H 	0.37820 0.13210 0.75640 0.04100
C 	C 	0.40730 0.17100 0.70780 -0.03400
C 	C 	0.31810 0.16488 0.68331 0.09200
S 	S 	0.49993 0.80234 0.79497 -0.01800
S 	S 	0.24117 0.70816 0.78681 -0.02200
S 	S 	0.00420 0.70792 0.69419 -0.02000
N 	N 	0.74920 0.82984 0.84691 -0.18200
N 	N 	0.74720 0.65963 0.66368 -0.18400
C 	C 	0.67600 0.80920 0.84009 0.09000
C 	C 	0.58550 0.78400 0.83080 -0.03600
C 	C 	0.55470 0.74440 0.84674 -0.02800
H 	H 	0.59190 0.72920 0.86710 0.04000
C 	C 	0.46190 0.72830 0.82973 -0.06500
H 	H 	0.42940 0.70110 0.83740 0.05200
C 	C 	0.42280 0.75580 0.80101 0.00900
C 	C 	0.33120 0.74981 0.77631 0.00700
C 	C 	0.30210 0.77380 0.74320 -0.04900
H 	H 	0.34060 0.79860 0.73320 0.05000
C 	C 	0.20880 0.75770 0.72566 -0.04800
H 	H 	0.17860 0.77020 0.70250 0.05000
C 	C 	0.16620 0.72190 0.74587 0.00700
C 	C 	0.06960 0.69774 0.73789 0.01000
C 	C 	0.01840 0.66720 0.76055 -0.06400
H 	H 	0.04400 0.65690 0.78530 0.05300
C 	C 	0.92450 0.65250 0.74396 -0.02700
H 	H 	0.87820 0.63210 0.75640 0.04100
C 	C 	0.90730 0.67100 0.70780 -0.03400
C 	C 	0.81810 0.66488 0.68331 0.09200
S 	S 	0.49993 0.30234 0.29497 -0.01800
S 	S 	0.24117 0.20816 0.28681 -0.02200
S 	S 	0.00420 0.20792 0.19419 -0.02000
N 	N 	0.74920 0.32984 0.34691 -0.18200
N 	N 	0.74720 0.15963 0.16368 -0.18400
C 	C 	0.67600 0.30920 0.34009 0.09000
C 	C 	0.58550 0.28400 0.33080 -0.03600
C 	C 	0.55470 0.24440 0.34674 -0.02800
H 	H 	0.59190 0.22920 0.36710 0.04000
C 	C 	0.46190 0.22830 0.32973 -0.06500
H 	H 	0.42940 0.20110 0.33740 0.05200
C 	C 	0.42280 0.25580 0.30101 0.00900
C 	C 	0.33120 0.24981 0.27631 0.00700
C 	C 	0.30210 0.27380 0.24320 -0.04900
H 	H 	0.34060 0.29860 0.23320 0.05000
C 	C 	0.20880 0.25770 0.22566 -0.04800
H 	H 	0.17860 0.27020 0.20250 0.05000
C 	C 	0.16620 0.22190 0.24587 0.00700
C 	C 	0.06960 0.19774 0.23789 0.01000
C 	C 	0.01840 0.16720 0.26055 -0.06400
H 	H 	0.04400 0.15690 0.28530 0.05300
C 	C 	0.92450 0.15250 0.24396 -0.02600
H 	H 	0.87820 0.13210 0.25640 0.04100
C 	C 	0.90730 0.17100 0.20780 -0.03400
C 	C 	0.81810 0.16488 0.18331 0.09200
S 	S 	0.25007 0.44766 0.29497 -0.01800
S 	S 	0.50883 0.54184 0.28681 -0.02200
S 	S 	0.74580 0.54208 0.19419 -0.02000
N 	N 	0.00080 0.42016 0.34691 -0.18200
N 	N 	0.00280 0.59037 0.16368 -0.18400
C 	C 	0.07400 0.44080 0.34009 0.09000
C 	C 	0.16450 0.46600 0.33080 -0.03600
C 	C 	0.19530 0.50560 0.34674 -0.02800
H 	H 	0.15810 0.52080 0.36710 0.04000
C 	C 	0.28810 0.52170 0.32973 -0.06500
H 	H 	0.32060 0.54890 0.33740 0.05200
C 	C 	0.32720 0.49420 0.30101 0.00900
C 	C 	0.41880 0.50019 0.27631 0.00700
C 	C 	0.44790 0.47620 0.24320 -0.04900
H 	H 	0.40940 0.45140 0.23320 0.05000
C 	C 	0.54120 0.49230 0.22566 -0.04800
H 	H 	0.57140 0.47980 0.20250 0.05000
C 	C 	0.58380 0.52810 0.24587 0.00700
C 	C 	0.68040 0.55226 0.23789 0.01000
C 	C 	0.73160 0.58280 0.26055 -0.06400
H 	H 	0.70600 0.59310 0.28530 0.05300
C 	C 	0.82550 0.59750 0.24396 -0.02700
H 	H 	0.87180 0.61790 0.25640 0.04100
C 	C 	0.84270 0.57900 0.20780 -0.03400
C 	C 	0.93190 0.58512 0.18331 0.09200
S 	S 	0.25007 0.94766 0.79497 -0.01800
S 	S 	0.50883 0.04184 0.78681 -0.02200
S 	S 	0.74580 0.04208 0.69419 -0.02000
N 	N 	0.00080 0.92016 0.84691 -0.18200
N 	N 	0.00280 0.09037 0.66368 -0.18400
C 	C 	0.07400 0.94080 0.84009 0.09000
C 	C 	0.16450 0.96600 0.83080 -0.03600
C 	C 	0.19530 0.00560 0.84674 -0.02800
H 	H 	0.15810 0.02080 0.86710 0.04000
C 	C 	0.28810 0.02170 0.82973 -0.06500
H 	H 	0.32060 0.04890 0.83740 0.05200
C 	C 	0.32720 0.99420 0.80101 0.00900
C 	C 	0.41880 0.00019 0.77631 0.00700
C 	C 	0.44790 0.97620 0.74320 -0.04900
H 	H 	0.40940 0.95140 0.73320 0.05000
C 	C 	0.54120 0.99230 0.72566 -0.04900
H 	H 	0.57140 0.97980 0.70250 0.05000
C 	C 	0.58380 0.02810 0.74587 0.00700
C 	C 	0.68040 0.05226 0.73789 0.01000
C 	C 	0.73160 0.08280 0.76055 -0.06400
H 	H 	0.70600 0.09310 0.78530 0.05300
C 	C 	0.82550 0.09750 0.74396 -0.02700
H 	H 	0.87180 0.11790 0.75640 0.04100
C 	C 	0.84270 0.07900 0.70780 -0.03400
C 	C 	0.93190 0.08512 0.68331 0.09200
S 	S 	0.75007 0.44766 0.79497 -0.01800
S 	S 	0.00883 0.54184 0.78681 -0.02200
S 	S 	0.24580 0.54208 0.69419 -0.02000
N 	N 	0.50080 0.42016 0.84691 -0.18200
N 	N 	0.50280 0.59037 0.66368 -0.18400
C 	C 	0.57400 0.44080 0.84009 0.09000
C 	C 	0.66450 0.46600 0.83080 -0.03600
C 	C 	0.69530 0.50560 0.84674 -0.02800
H 	H 	0.65810 0.52080 0.86710 0.04000
C 	C 	0.78810 0.52170 0.82973 -0.06500
H 	H 	0.82060 0.54890 0.83740 0.05200
C 	C 	0.82720 0.49420 0.80101 0.00900
C 	C 	0.91880 0.50019 0.77631 0.00700
C 	C 	0.94790 0.47620 0.74320 -0.04900
H 	H 	0.90940 0.45140 0.73320 0.05000
C 	C 	0.04120 0.49230 0.72566 -0.04900
H 	H 	0.07140 0.47980 0.70250 0.05000
C 	C 	0.08380 0.52810 0.74587 0.00700
C 	C 	0.18040 0.55226 0.73789 0.01000
C 	C 	0.23160 0.58280 0.76055 -0.06400
H 	H 	0.20600 0.59310 0.78530 0.05300
C 	C 	0.32550 0.59750 0.74396 -0.02700
H 	H 	0.37180 0.61790 0.75640 0.04100
C 	C 	0.34270 0.57900 0.70780 -0.03400
C 	C 	0.43190 0.58512 0.68331 0.09200
S 	S 	0.75007 0.94766 0.29497 -0.01800
S 	S 	0.00883 0.04184 0.28681 -0.02200
S 	S 	0.24580 0.04208 0.19419 -0.02000
N 	N 	0.50080 0.92016 0.34691 -0.18200
N 	N 	0.50280 0.09037 0.16368 -0.18400
C 	C 	0.57400 0.94080 0.34009 0.09000
C 	C 	0.66450 0.96600 0.33080 -0.03600
C 	C 	0.69530 0.00560 0.34674 -0.02800
H 	H 	0.65810 0.02080 0.36710 0.04000
C 	C 	0.78810 0.02170 0.32973 -0.06500
H 	H 	0.82060 0.04890 0.33740 0.05200
C 	C 	0.82720 0.99420 0.30101 0.00900
C 	C 	0.91880 0.00019 0.27631 0.00700
C 	C 	0.94790 0.97620 0.24320 -0.04900
H 	H 	0.90940 0.95140 0.23320 0.05000
C 	C 	0.04120 0.99230 0.22566 -0.04800
H 	H 	0.07140 0.97980 0.20250 0.05000
C 	C 	0.08380 0.02810 0.24587 0.00700
C 	C 	0.18040 0.05226 0.23789 0.01000
C 	C 	0.23160 0.08280 0.26055 -0.06400
H 	H 	0.20600 0.09310 0.28530 0.05300
C 	C 	0.32550 0.09750 0.24396 -0.02700
H 	H 	0.37180 0.11790 0.25640 0.04100
C 	C 	0.34270 0.07900 0.20780 -0.03400
C 	C 	0.43190 0.08512 0.18331 0.09200
Ag	Ag	0.87500 0.87500 0.87500 0.55600
Ag	Ag	0.87500 0.37500 0.37500 0.55600
Ag	Ag	0.37500 0.37500 0.87500 0.55600
Ag	Ag	0.37500 0.87500 0.37500 0.55600
Ag	Ag	0.12500 0.62500 0.12500 0.55800
Ag	Ag	0.12500 0.12500 0.62500 0.55800
Ag	Ag	0.62500 0.62500 0.62500 0.55800
Ag	Ag	0.62500 0.12500 0.12500 0.55800
