data_crystal

_cell_length_a 31.60900
_cell_length_b 9.87160
_cell_length_c 24.73800
_cell_angle_alpha 90.00000
_cell_angle_beta  104.66900
_cell_angle_gamma 90.00000

_symmetry_space_group_name_	'P 1'
_symmetry_space_group_name_H-M	'P 1'

loop_
_symmetry_equiv_pos_as_xyz
  x,y,z

loop_
_atom_site_label
_atom_site_type_symbol
_atom_site_fract_x
_atom_site_fract_y
_atom_site_fract_z
_atom_site_charge
O 	O 	0.90154 0.61550 0.18492 -0.47700
O 	O 	0.85002 0.52020 0.22045 -0.45800
O 	O 	0.36216 0.09830 0.60421 -0.48000
O 	O 	0.29482 0.14480 0.60964 -0.46200
Mn	Mn	0.12003 0.60878 0.40290 1.25700
Mn	Mn	0.21126 0.52708 0.34083 1.27800
Cl	Cl	0.19351 0.71309 0.40111 -0.65700
N 	N 	0.14964 0.57350 0.49917 -0.20300
N 	N 	0.18427 0.46380 0.60588 -0.10200
N 	N 	0.06407 0.51060 0.43894 -0.23400
N 	N 	0.05513 0.38090 0.51059 -0.08800
N 	N 	0.01857 0.38160 0.46806 -0.17100
H 	H 	0.99510 0.33760 0.46810 0.11700
N 	N 	0.23109 0.67790 0.27730 -0.19200
N 	N 	0.26108 0.86800 0.21180 -0.19300
N 	N 	0.28431 0.58940 0.37888 -0.22300
N 	N 	0.34059 0.71630 0.36539 -0.08500
N 	N 	0.35286 0.64480 0.41359 -0.17000
H 	H 	0.37860 0.64690 0.43600 0.11000
C 	C 	0.19045 0.60160 0.52924 0.00500
H 	H 	0.20770 0.65980 0.51440 0.04800
C 	C 	0.20738 0.54640 0.58148 0.00800
H 	H 	0.23600 0.56750 0.60040 0.05700
C 	C 	0.14374 0.43640 0.57677 0.01000
H 	H 	0.12650 0.37930 0.59220 0.04100
C 	C 	0.12615 0.49120 0.52335 0.00900
C 	C 	0.08135 0.46070 0.49125 0.07700
C 	C 	0.02360 0.46010 0.42548 0.12000
C 	C 	0.98881 0.48660 0.37486 -0.00800
C 	C 	0.94849 0.42130 0.36569 -0.07100
H 	H 	0.94350 0.35990 0.39190 0.05600
C 	C 	0.91577 0.44750 0.31770 0.02300
H 	H 	0.88900 0.40370 0.31230 0.03900
C 	C 	0.92239 0.53790 0.27766 -0.11500
C 	C 	0.96200 0.60560 0.28829 0.02200
H 	H 	0.96660 0.66940 0.26270 0.03000
C 	C 	0.99499 0.58070 0.33616 -0.06900
H 	H 	0.02130 0.62740 0.34220 0.02800
C 	C 	0.88859 0.55980 0.22352 0.40000
C 	C 	0.20654 0.71610 0.22734 0.01100
H 	H 	0.17880 0.67920 0.21410 0.03400
C 	C 	0.22172 0.80990 0.19484 0.01500
H 	H 	0.20390 0.83320 0.16010 0.02400
C 	C 	0.28569 0.82850 0.26157 0.00700
H 	H 	0.31320 0.86660 0.27510 0.03700
C 	C 	0.27116 0.73200 0.29348 0.01800
C 	C 	0.29923 0.68090 0.34609 0.08500
C 	C 	0.31939 0.56990 0.42166 0.11800
C 	C 	0.32282 0.47860 0.46969 -0.00300
C 	C 	0.36212 0.41620 0.49442 -0.07900
H 	H 	0.38720 0.43860 0.48320 0.05300
C 	C 	0.36416 0.32070 0.53586 0.01600
H 	H 	0.39060 0.27840 0.55200 0.03700
C 	C 	0.32698 0.28680 0.55376 -0.10300
C 	C 	0.28842 0.35730 0.53164 0.02200
H 	H 	0.26390 0.34080 0.54500 0.04300
C 	C 	0.28629 0.45250 0.48941 -0.07100
H 	H 	0.26030 0.49870 0.47440 0.05600
C 	C 	0.32834 0.16480 0.59347 0.40700
O 	O 	0.40154 0.11550 0.18492 -0.47800
O 	O 	0.35002 0.02020 0.22045 -0.45900
O 	O 	0.86216 0.59830 0.60421 -0.48100
O 	O 	0.79482 0.64480 0.60964 -0.46300
Mn	Mn	0.62003 0.10878 0.40290 1.25700
Mn	Mn	0.71126 0.02708 0.34083 1.27800
Cl	Cl	0.69351 0.21309 0.40111 -0.65800
N 	N 	0.64964 0.07350 0.49917 -0.20300
N 	N 	0.68427 0.96380 0.60588 -0.10200
N 	N 	0.56407 0.01060 0.43894 -0.23400
N 	N 	0.55513 0.88090 0.51059 -0.08800
N 	N 	0.51857 0.88160 0.46806 -0.17100
H 	H 	0.49510 0.83760 0.46810 0.11700
N 	N 	0.73109 0.17790 0.27730 -0.19200
N 	N 	0.76108 0.36800 0.21180 -0.19300
N 	N 	0.78431 0.08940 0.37888 -0.22300
N 	N 	0.84059 0.21630 0.36539 -0.08500
N 	N 	0.85286 0.14480 0.41359 -0.17000
H 	H 	0.87860 0.14690 0.43600 0.11000
C 	C 	0.69045 0.10160 0.52924 0.00500
H 	H 	0.70770 0.15980 0.51440 0.04800
C 	C 	0.70738 0.04640 0.58148 0.00800
H 	H 	0.73600 0.06750 0.60040 0.05700
C 	C 	0.64374 0.93640 0.57677 0.01000
H 	H 	0.62650 0.87930 0.59220 0.04100
C 	C 	0.62615 0.99120 0.52335 0.00900
C 	C 	0.58135 0.96070 0.49125 0.07800
C 	C 	0.52360 0.96010 0.42548 0.11900
C 	C 	0.48881 0.98660 0.37486 -0.00400
C 	C 	0.44849 0.92130 0.36569 -0.07500
H 	H 	0.44350 0.85990 0.39190 0.05700
C 	C 	0.41577 0.94750 0.31770 0.02800
H 	H 	0.38900 0.90370 0.31230 0.03700
C 	C 	0.42239 0.03790 0.27766 -0.11900
C 	C 	0.46200 0.10560 0.28829 0.02600
H 	H 	0.46660 0.16940 0.26270 0.02800
C 	C 	0.49499 0.08070 0.33616 -0.07400
H 	H 	0.52130 0.12740 0.34220 0.03000
C 	C 	0.38859 0.05980 0.22352 0.40100
C 	C 	0.70654 0.21610 0.22734 0.01100
H 	H 	0.67880 0.17920 0.21410 0.03400
C 	C 	0.72172 0.30990 0.19484 0.01400
H 	H 	0.70390 0.33320 0.16010 0.02300
C 	C 	0.78569 0.32850 0.26157 0.00700
H 	H 	0.81320 0.36660 0.27510 0.03600
C 	C 	0.77116 0.23200 0.29348 0.01800
C 	C 	0.79923 0.18090 0.34609 0.08500
C 	C 	0.81939 0.06990 0.42166 0.11700
C 	C 	0.82282 0.97860 0.46969 -0.00200
C 	C 	0.86212 0.91620 0.49442 -0.08100
H 	H 	0.88720 0.93860 0.48320 0.05300
C 	C 	0.86416 0.82070 0.53586 0.01700
H 	H 	0.89060 0.77840 0.55200 0.03700
C 	C 	0.82698 0.78680 0.55376 -0.10300
C 	C 	0.78842 0.85730 0.53164 0.02300
H 	H 	0.76390 0.84080 0.54500 0.04200
C 	C 	0.78629 0.95250 0.48941 -0.07200
H 	H 	0.76030 0.99870 0.47440 0.05700
C 	C 	0.82834 0.66480 0.59347 0.40700
O 	O 	0.09846 0.61550 0.31508 -0.47700
O 	O 	0.14998 0.52020 0.27955 -0.45800
O 	O 	0.63784 0.09830 0.89579 -0.48000
O 	O 	0.70518 0.14480 0.89036 -0.46200
Mn	Mn	0.87997 0.60878 0.09710 1.25700
Mn	Mn	0.78874 0.52708 0.15917 1.27800
Cl	Cl	0.80649 0.71309 0.09889 -0.65700
N 	N 	0.85036 0.57350 0.00083 -0.20300
N 	N 	0.81573 0.46380 0.89412 -0.10200
N 	N 	0.93593 0.51060 0.06106 -0.23400
N 	N 	0.94487 0.38090 0.98941 -0.08800
N 	N 	0.98143 0.38160 0.03194 -0.17100
H 	H 	0.00490 0.33760 0.03190 0.11700
N 	N 	0.76891 0.67790 0.22270 -0.19200
N 	N 	0.73892 0.86800 0.28820 -0.19300
N 	N 	0.71569 0.58940 0.12112 -0.22300
N 	N 	0.65941 0.71630 0.13461 -0.08500
N 	N 	0.64714 0.64480 0.08641 -0.17000
H 	H 	0.62140 0.64690 0.06400 0.11000
C 	C 	0.80955 0.60160 0.97076 0.00500
H 	H 	0.79230 0.65980 0.98560 0.04800
C 	C 	0.79262 0.54640 0.91852 0.00800
H 	H 	0.76400 0.56750 0.89960 0.05700
C 	C 	0.85626 0.43640 0.92323 0.01000
H 	H 	0.87350 0.37930 0.90780 0.04100
C 	C 	0.87385 0.49120 0.97665 0.00900
C 	C 	0.91865 0.46070 0.00875 0.07700
C 	C 	0.97640 0.46010 0.07452 0.11900
C 	C 	0.01119 0.48660 0.12514 -0.00800
C 	C 	0.05151 0.42130 0.13431 -0.07100
H 	H 	0.05650 0.35990 0.10810 0.05600
C 	C 	0.08423 0.44750 0.18230 0.02300
H 	H 	0.11100 0.40370 0.18770 0.03900
C 	C 	0.07761 0.53790 0.22234 -0.11500
C 	C 	0.03800 0.60560 0.21171 0.02200
H 	H 	0.03340 0.66940 0.23730 0.03000
C 	C 	0.00501 0.58070 0.16384 -0.06900
H 	H 	0.97870 0.62740 0.15780 0.02800
C 	C 	0.11141 0.55980 0.27648 0.40000
C 	C 	0.79346 0.71610 0.27266 0.01100
H 	H 	0.82120 0.67920 0.28590 0.03400
C 	C 	0.77828 0.80990 0.30516 0.01500
H 	H 	0.79610 0.83320 0.33990 0.02400
C 	C 	0.71431 0.82850 0.23843 0.00700
H 	H 	0.68680 0.86660 0.22490 0.03700
C 	C 	0.72884 0.73200 0.20652 0.01800
C 	C 	0.70077 0.68090 0.15391 0.08500
C 	C 	0.68061 0.56990 0.07834 0.11800
C 	C 	0.67718 0.47860 0.03031 -0.00300
C 	C 	0.63788 0.41620 0.00558 -0.08000
H 	H 	0.61280 0.43860 0.01680 0.05300
C 	C 	0.63584 0.32070 0.96414 0.01700
H 	H 	0.60940 0.27840 0.94800 0.03700
C 	C 	0.67302 0.28680 0.94624 -0.10300
C 	C 	0.71158 0.35730 0.96836 0.02300
H 	H 	0.73610 0.34080 0.95500 0.04300
C 	C 	0.71371 0.45250 0.01059 -0.07100
H 	H 	0.73970 0.49870 0.02560 0.05700
C 	C 	0.67166 0.16480 0.90653 0.40700
O 	O 	0.59846 0.11550 0.31508 -0.47800
O 	O 	0.64998 0.02020 0.27955 -0.45900
O 	O 	0.13784 0.59830 0.89579 -0.48100
O 	O 	0.20518 0.64480 0.89036 -0.46300
Mn	Mn	0.37997 0.10878 0.09710 1.25700
Mn	Mn	0.28874 0.02708 0.15917 1.27700
Cl	Cl	0.30649 0.21309 0.09889 -0.65800
N 	N 	0.35036 0.07350 0.00083 -0.20300
N 	N 	0.31573 0.96380 0.89412 -0.10200
N 	N 	0.43593 0.01060 0.06106 -0.23500
N 	N 	0.44487 0.88090 0.98941 -0.08900
N 	N 	0.48143 0.88160 0.03194 -0.17000
H 	H 	0.50490 0.83760 0.03190 0.11700
N 	N 	0.26891 0.17790 0.22270 -0.19200
N 	N 	0.23892 0.36800 0.28820 -0.19300
N 	N 	0.21569 0.08940 0.12112 -0.22300
N 	N 	0.15941 0.21630 0.13461 -0.08500
N 	N 	0.14714 0.14480 0.08641 -0.17000
H 	H 	0.12140 0.14690 0.06400 0.10900
C 	C 	0.30955 0.10160 0.97076 0.00500
H 	H 	0.29230 0.15980 0.98560 0.04800
C 	C 	0.29262 0.04640 0.91852 0.00900
H 	H 	0.26400 0.06750 0.89960 0.05700
C 	C 	0.35626 0.93640 0.92323 0.01000
H 	H 	0.37350 0.87930 0.90780 0.04100
C 	C 	0.37385 0.99120 0.97665 0.00800
C 	C 	0.41865 0.96070 0.00875 0.08000
C 	C 	0.47640 0.96010 0.07452 0.11900
C 	C 	0.51119 0.98660 0.12514 -0.00300
C 	C 	0.55151 0.92130 0.13431 -0.07500
H 	H 	0.55650 0.85990 0.10810 0.05700
C 	C 	0.58423 0.94750 0.18230 0.02900
H 	H 	0.61100 0.90370 0.18770 0.03700
C 	C 	0.57761 0.03790 0.22234 -0.12000
C 	C 	0.53800 0.10560 0.21171 0.02600
H 	H 	0.53340 0.16940 0.23730 0.02800
C 	C 	0.50501 0.08070 0.16384 -0.07500
H 	H 	0.47870 0.12740 0.15780 0.03000
C 	C 	0.61141 0.05980 0.27648 0.40200
C 	C 	0.29346 0.21610 0.27266 0.01100
H 	H 	0.32120 0.17920 0.28590 0.03400
C 	C 	0.27828 0.30990 0.30516 0.01400
H 	H 	0.29610 0.33320 0.33990 0.02300
C 	C 	0.21431 0.32850 0.23843 0.00700
H 	H 	0.18680 0.36660 0.22490 0.03600
C 	C 	0.22884 0.23200 0.20652 0.01800
C 	C 	0.20077 0.18090 0.15391 0.08500
C 	C 	0.18061 0.06990 0.07834 0.11600
C 	C 	0.17718 0.97860 0.03031 -0.00200
C 	C 	0.13788 0.91620 0.00558 -0.07900
H 	H 	0.11280 0.93860 0.01680 0.05300
C 	C 	0.13584 0.82070 0.96414 0.01500
H 	H 	0.10940 0.77840 0.94800 0.03800
C 	C 	0.17302 0.78680 0.94624 -0.10200
C 	C 	0.21158 0.85730 0.96836 0.02100
H 	H 	0.23610 0.84080 0.95500 0.04300
C 	C 	0.21371 0.95250 0.01059 -0.07000
H 	H 	0.23970 0.99870 0.02560 0.05700
C 	C 	0.17166 0.66480 0.90653 0.40600
O 	O 	0.09846 0.38450 0.81508 -0.47700
O 	O 	0.14998 0.47980 0.77955 -0.45800
O 	O 	0.63784 0.90170 0.39579 -0.48000
O 	O 	0.70518 0.85520 0.39036 -0.46200
Mn	Mn	0.87997 0.39122 0.59710 1.25700
Mn	Mn	0.78874 0.47292 0.65917 1.27800
Cl	Cl	0.80649 0.28691 0.59889 -0.65700
N 	N 	0.85036 0.42650 0.50083 -0.20300
N 	N 	0.81573 0.53620 0.39412 -0.10200
N 	N 	0.93593 0.48940 0.56106 -0.23400
N 	N 	0.94487 0.61910 0.48941 -0.08800
N 	N 	0.98143 0.61840 0.53194 -0.17100
H 	H 	0.00490 0.66240 0.53190 0.11700
N 	N 	0.76891 0.32210 0.72270 -0.19200
N 	N 	0.73892 0.13200 0.78820 -0.19300
N 	N 	0.71569 0.41060 0.62112 -0.22300
N 	N 	0.65941 0.28370 0.63461 -0.08500
N 	N 	0.64714 0.35520 0.58641 -0.17000
H 	H 	0.62140 0.35310 0.56400 0.11000
C 	C 	0.80955 0.39840 0.47076 0.00500
H 	H 	0.79230 0.34020 0.48560 0.04800
C 	C 	0.79262 0.45360 0.41852 0.00800
H 	H 	0.76400 0.43250 0.39960 0.05700
C 	C 	0.85626 0.56360 0.42323 0.01000
H 	H 	0.87350 0.62070 0.40780 0.04100
C 	C 	0.87385 0.50880 0.47665 0.00900
C 	C 	0.91865 0.53930 0.50875 0.07700
C 	C 	0.97640 0.53990 0.57452 0.12000
C 	C 	0.01119 0.51340 0.62514 -0.00800
C 	C 	0.05151 0.57870 0.63431 -0.07100
H 	H 	0.05650 0.64010 0.60810 0.05600
C 	C 	0.08423 0.55250 0.68230 0.02300
H 	H 	0.11100 0.59630 0.68770 0.03900
C 	C 	0.07761 0.46210 0.72234 -0.11500
C 	C 	0.03800 0.39440 0.71171 0.02200
H 	H 	0.03340 0.33060 0.73730 0.03000
C 	C 	0.00501 0.41930 0.66384 -0.06900
H 	H 	0.97870 0.37260 0.65780 0.02800
C 	C 	0.11141 0.44020 0.77648 0.40000
C 	C 	0.79346 0.28390 0.77266 0.01100
H 	H 	0.82120 0.32080 0.78590 0.03400
C 	C 	0.77828 0.19010 0.80516 0.01500
H 	H 	0.79610 0.16680 0.83990 0.02400
C 	C 	0.71431 0.17150 0.73843 0.00700
H 	H 	0.68680 0.13340 0.72490 0.03700
C 	C 	0.72884 0.26800 0.70652 0.01800
C 	C 	0.70077 0.31910 0.65391 0.08500
C 	C 	0.68061 0.43010 0.57834 0.11800
C 	C 	0.67718 0.52140 0.53031 -0.00300
C 	C 	0.63788 0.58380 0.50558 -0.07900
H 	H 	0.61280 0.56140 0.51680 0.05300
C 	C 	0.63584 0.67930 0.46414 0.01600
H 	H 	0.60940 0.72160 0.44800 0.03700
C 	C 	0.67302 0.71320 0.44624 -0.10300
C 	C 	0.71158 0.64270 0.46836 0.02200
H 	H 	0.73610 0.65920 0.45500 0.04300
C 	C 	0.71371 0.54750 0.51059 -0.07100
H 	H 	0.73970 0.50130 0.52560 0.05600
C 	C 	0.67166 0.83520 0.40653 0.40700
O 	O 	0.59846 0.88450 0.81508 -0.47800
O 	O 	0.64998 0.97980 0.77955 -0.45900
O 	O 	0.13784 0.40170 0.39579 -0.48100
O 	O 	0.20518 0.35520 0.39036 -0.46300
Mn	Mn	0.37997 0.89122 0.59710 1.25700
Mn	Mn	0.28874 0.97292 0.65917 1.27800
Cl	Cl	0.30649 0.78691 0.59889 -0.65800
N 	N 	0.35036 0.92650 0.50083 -0.20300
N 	N 	0.31573 0.03620 0.39412 -0.10200
N 	N 	0.43593 0.98940 0.56106 -0.23400
N 	N 	0.44487 0.11910 0.48941 -0.08800
N 	N 	0.48143 0.11840 0.53194 -0.17100
H 	H 	0.50490 0.16240 0.53190 0.11700
N 	N 	0.26891 0.82210 0.72270 -0.19200
N 	N 	0.23892 0.63200 0.78820 -0.19300
N 	N 	0.21569 0.91060 0.62112 -0.22300
N 	N 	0.15941 0.78370 0.63461 -0.08500
N 	N 	0.14714 0.85520 0.58641 -0.17000
H 	H 	0.12140 0.85310 0.56400 0.11000
C 	C 	0.30955 0.89840 0.47076 0.00500
H 	H 	0.29230 0.84020 0.48560 0.04800
C 	C 	0.29262 0.95360 0.41852 0.00800
H 	H 	0.26400 0.93250 0.39960 0.05700
C 	C 	0.35626 0.06360 0.42323 0.01000
H 	H 	0.37350 0.12070 0.40780 0.04100
C 	C 	0.37385 0.00880 0.47665 0.00900
C 	C 	0.41865 0.03930 0.50875 0.07800
C 	C 	0.47640 0.03990 0.57452 0.11900
C 	C 	0.51119 0.01340 0.62514 -0.00400
C 	C 	0.55151 0.07870 0.63431 -0.07500
H 	H 	0.55650 0.14010 0.60810 0.05700
C 	C 	0.58423 0.05250 0.68230 0.02800
H 	H 	0.61100 0.09630 0.68770 0.03700
C 	C 	0.57761 0.96210 0.72234 -0.11900
C 	C 	0.53800 0.89440 0.71171 0.02600
H 	H 	0.53340 0.83060 0.73730 0.02800
C 	C 	0.50501 0.91930 0.66384 -0.07400
H 	H 	0.47870 0.87260 0.65780 0.03000
C 	C 	0.61141 0.94020 0.77648 0.40100
C 	C 	0.29346 0.78390 0.77266 0.01100
H 	H 	0.32120 0.82080 0.78590 0.03400
C 	C 	0.27828 0.69010 0.80516 0.01400
H 	H 	0.29610 0.66680 0.83990 0.02300
C 	C 	0.21431 0.67150 0.73843 0.00700
H 	H 	0.18680 0.63340 0.72490 0.03600
C 	C 	0.22884 0.76800 0.70652 0.01800
C 	C 	0.20077 0.81910 0.65391 0.08500
C 	C 	0.18061 0.93010 0.57834 0.11700
C 	C 	0.17718 0.02140 0.53031 -0.00200
C 	C 	0.13788 0.08380 0.50558 -0.08100
H 	H 	0.11280 0.06140 0.51680 0.05300
C 	C 	0.13584 0.17930 0.46414 0.01700
H 	H 	0.10940 0.22160 0.44800 0.03700
C 	C 	0.17302 0.21320 0.44624 -0.10300
C 	C 	0.21158 0.14270 0.46836 0.02300
H 	H 	0.23610 0.15920 0.45500 0.04200
C 	C 	0.21371 0.04750 0.51059 -0.07200
H 	H 	0.23970 0.00130 0.52560 0.05700
C 	C 	0.17166 0.33520 0.40653 0.40700
O 	O 	0.90154 0.38450 0.68492 -0.47700
O 	O 	0.85002 0.47980 0.72045 -0.45800
O 	O 	0.36216 0.90170 0.10421 -0.48000
O 	O 	0.29482 0.85520 0.10964 -0.46200
Mn	Mn	0.12003 0.39122 0.90290 1.25700
Mn	Mn	0.21126 0.47292 0.84083 1.27800
Cl	Cl	0.19351 0.28691 0.90111 -0.65700
N 	N 	0.14964 0.42650 0.99917 -0.20300
N 	N 	0.18427 0.53620 0.10588 -0.10200
N 	N 	0.06407 0.48940 0.93894 -0.23400
N 	N 	0.05513 0.61910 0.01059 -0.08800
N 	N 	0.01857 0.61840 0.96806 -0.17100
H 	H 	0.99510 0.66240 0.96810 0.11700
N 	N 	0.23109 0.32210 0.77730 -0.19200
N 	N 	0.26108 0.13200 0.71180 -0.19300
N 	N 	0.28431 0.41060 0.87888 -0.22300
N 	N 	0.34059 0.28370 0.86539 -0.08500
N 	N 	0.35286 0.35520 0.91359 -0.17000
H 	H 	0.37860 0.35310 0.93600 0.11000
C 	C 	0.19045 0.39840 0.02924 0.00500
H 	H 	0.20770 0.34020 0.01440 0.04800
C 	C 	0.20738 0.45360 0.08148 0.00800
H 	H 	0.23600 0.43250 0.10040 0.05700
C 	C 	0.14374 0.56360 0.07677 0.01000
H 	H 	0.12650 0.62070 0.09220 0.04100
C 	C 	0.12615 0.50880 0.02335 0.00900
C 	C 	0.08135 0.53930 0.99125 0.07700
C 	C 	0.02360 0.53990 0.92548 0.11900
C 	C 	0.98881 0.51340 0.87486 -0.00800
C 	C 	0.94849 0.57870 0.86569 -0.07100
H 	H 	0.94350 0.64010 0.89190 0.05600
C 	C 	0.91577 0.55250 0.81770 0.02300
H 	H 	0.88900 0.59630 0.81230 0.03900
C 	C 	0.92239 0.46210 0.77766 -0.11500
C 	C 	0.96200 0.39440 0.78829 0.02200
H 	H 	0.96660 0.33060 0.76270 0.03000
C 	C 	0.99499 0.41930 0.83616 -0.06900
H 	H 	0.02130 0.37260 0.84220 0.02800
C 	C 	0.88859 0.44020 0.72352 0.40000
C 	C 	0.20654 0.28390 0.72734 0.01100
H 	H 	0.17880 0.32080 0.71410 0.03400
C 	C 	0.22172 0.19010 0.69484 0.01500
H 	H 	0.20390 0.16680 0.66010 0.02400
C 	C 	0.28569 0.17150 0.76157 0.00700
H 	H 	0.31320 0.13340 0.77510 0.03700
C 	C 	0.27116 0.26800 0.79348 0.01800
C 	C 	0.29923 0.31910 0.84609 0.08500
C 	C 	0.31939 0.43010 0.92166 0.11800
C 	C 	0.32282 0.52140 0.96969 -0.00300
C 	C 	0.36212 0.58380 0.99442 -0.08000
H 	H 	0.38720 0.56140 0.98320 0.05300
C 	C 	0.36416 0.67930 0.03586 0.01700
H 	H 	0.39060 0.72160 0.05200 0.03700
C 	C 	0.32698 0.71320 0.05376 -0.10300
C 	C 	0.28842 0.64270 0.03164 0.02300
H 	H 	0.26390 0.65920 0.04500 0.04300
C 	C 	0.28629 0.54750 0.98941 -0.07100
H 	H 	0.26030 0.50130 0.97440 0.05700
C 	C 	0.32834 0.83520 0.09347 0.40700
O 	O 	0.40154 0.88450 0.68492 -0.47800
O 	O 	0.35002 0.97980 0.72045 -0.45900
O 	O 	0.86216 0.40170 0.10421 -0.48100
O 	O 	0.79482 0.35520 0.10964 -0.46300
Mn	Mn	0.62003 0.89122 0.90290 1.25700
Mn	Mn	0.71126 0.97292 0.84083 1.27700
Cl	Cl	0.69351 0.78691 0.90111 -0.65800
N 	N 	0.64964 0.92650 0.99917 -0.20300
N 	N 	0.68427 0.03620 0.10588 -0.10200
N 	N 	0.56407 0.98940 0.93894 -0.23500
N 	N 	0.55513 0.11910 0.01059 -0.08900
N 	N 	0.51857 0.11840 0.96806 -0.17000
H 	H 	0.49510 0.16240 0.96810 0.11700
N 	N 	0.73109 0.82210 0.77730 -0.19200
N 	N 	0.76108 0.63200 0.71180 -0.19300
N 	N 	0.78431 0.91060 0.87888 -0.22300
N 	N 	0.84059 0.78370 0.86539 -0.08500
N 	N 	0.85286 0.85520 0.91359 -0.17000
H 	H 	0.87860 0.85310 0.93600 0.10900
C 	C 	0.69045 0.89840 0.02924 0.00500
H 	H 	0.70770 0.84020 0.01440 0.04800
C 	C 	0.70738 0.95360 0.08148 0.00900
H 	H 	0.73600 0.93250 0.10040 0.05700
C 	C 	0.64374 0.06360 0.07677 0.01000
H 	H 	0.62650 0.12070 0.09220 0.04100
C 	C 	0.62615 0.00880 0.02335 0.00800
C 	C 	0.58135 0.03930 0.99125 0.08000
C 	C 	0.52360 0.03990 0.92548 0.11900
C 	C 	0.48881 0.01340 0.87486 -0.00300
C 	C 	0.44849 0.07870 0.86569 -0.07500
H 	H 	0.44350 0.14010 0.89190 0.05700
C 	C 	0.41577 0.05250 0.81770 0.02900
H 	H 	0.38900 0.09630 0.81230 0.03700
C 	C 	0.42239 0.96210 0.77766 -0.12000
C 	C 	0.46200 0.89440 0.78829 0.02600
H 	H 	0.46660 0.83060 0.76270 0.02800
C 	C 	0.49499 0.91930 0.83616 -0.07500
H 	H 	0.52130 0.87260 0.84220 0.03000
C 	C 	0.38859 0.94020 0.72352 0.40200
C 	C 	0.70654 0.78390 0.72734 0.01100
H 	H 	0.67880 0.82080 0.71410 0.03400
C 	C 	0.72172 0.69010 0.69484 0.01400
H 	H 	0.70390 0.66680 0.66010 0.02300
C 	C 	0.78569 0.67150 0.76157 0.00700
H 	H 	0.81320 0.63340 0.77510 0.03600
C 	C 	0.77116 0.76800 0.79348 0.01800
C 	C 	0.79923 0.81910 0.84609 0.08500
C 	C 	0.81939 0.93010 0.92166 0.11600
C 	C 	0.82282 0.02140 0.96969 -0.00200
C 	C 	0.86212 0.08380 0.99442 -0.07900
H 	H 	0.88720 0.06140 0.98320 0.05300
C 	C 	0.86416 0.17930 0.03586 0.01500
H 	H 	0.89060 0.22160 0.05200 0.03800
C 	C 	0.82698 0.21320 0.05376 -0.10200
C 	C 	0.78842 0.14270 0.03164 0.02100
H 	H 	0.76390 0.15920 0.04500 0.04300
C 	C 	0.78629 0.04750 0.98941 -0.07000
H 	H 	0.76030 0.00130 0.97440 0.05700
C 	C 	0.82834 0.33520 0.09347 0.40600
