data_crystal

_cell_length_a 30.88510
_cell_length_b 17.46650
_cell_length_c 20.32720
_cell_angle_alpha 90.00000
_cell_angle_beta  127.70500
_cell_angle_gamma 90.00000

_symmetry_space_group_name_	'P 1'
_symmetry_space_group_name_H-M	'P 1'

loop_
_symmetry_equiv_pos_as_xyz
  x,y,z

loop_
_atom_site_label
_atom_site_type_symbol
_atom_site_fract_x
_atom_site_fract_y
_atom_site_fract_z
_atom_site_charge
C 	C 	0.33000 0.92610 0.58640 0.36500
C 	C 	0.30410 0.00200 0.55820 -0.14300
C 	C 	0.26300 0.01720 0.47450 0.09400
H 	H 	0.24990 0.97820 0.43550 0.02200
C 	C 	0.24150 0.09060 0.44930 -0.17700
H 	H 	0.21410 0.10080 0.39340 0.10600
C 	C 	0.26120 0.14880 0.50770 0.16200
C 	C 	0.30220 0.13370 0.59140 -0.17100
H 	H 	0.31530 0.17260 0.63040 0.11000
C 	C 	0.32370 0.06020 0.61660 0.08900
H 	H 	0.35120 0.05010 0.67250 0.02500
C 	C 	0.39490 0.70620 0.70220 0.33000
C 	C 	0.41820 0.65370 0.77410 -0.14400
C 	C 	0.47200 0.62880 0.82290 0.09700
H 	H 	0.49480 0.64500 0.81030 0.02100
C 	C 	0.49230 0.58120 0.88880 -0.19400
H 	H 	0.52830 0.56440 0.91980 0.11200
C 	C 	0.45950 0.55760 0.90990 0.17600
C 	C 	0.40510 0.57910 0.86210 -0.19500
H 	H 	0.38250 0.56290 0.87520 0.12600
C 	C 	0.38510 0.62620 0.79340 0.09700
H 	H 	0.34830 0.63960 0.75940 0.01700
C 	C 	0.55820 0.06160 0.61530 0.21600
C 	C 	0.42050 0.92110 0.54980 0.14600
H 	H 	0.38420 0.93630 0.51170 -0.02500
C 	C 	0.45920 0.96750 0.55990 -0.24600
H 	H 	0.44940 0.01240 0.52920 0.14200
C 	C 	0.51400 0.94660 0.61740 0.23900
C 	C 	0.52540 0.87610 0.65900 -0.23500
H 	H 	0.56120 0.85870 0.69600 0.12400
C 	C 	0.48320 0.83380 0.64420 0.12900
H 	H 	0.49150 0.78790 0.67300 -0.00800
C 	C 	0.75380 0.02270 0.80460 0.20500
C 	C 	0.61480 0.09060 0.65100 0.02600
C 	C 	0.62040 0.16330 0.62960 -0.07700
H 	H 	0.59010 0.19300 0.59080 0.07000
C 	C 	0.67420 0.19030 0.66960 -0.00600
H 	H 	0.68030 0.23990 0.66040 0.03600
C 	C 	0.71790 0.14140 0.72290 -0.06800
H 	H 	0.75340 0.15590 0.74480 0.06900
C 	C 	0.70820 0.07140 0.74310 0.01800
C 	C 	0.85530 0.84110 0.98870 0.16000
H 	H 	0.89310 0.84500 0.02880 -0.04000
C 	C 	0.82920 0.89930 0.93080 -0.26000
H 	H 	0.84900 0.93950 0.93120 0.14500
C 	C 	0.77270 0.89630 0.87220 0.24300
C 	C 	0.74660 0.83310 0.87460 -0.24900
H 	H 	0.70880 0.82850 0.83590 0.13100
C 	C 	0.77580 0.77770 0.93350 0.13400
H 	H 	0.75710 0.73610 0.93380 -0.00800
N 	N 	0.43023 0.85440 0.59050 -0.27900
N 	N 	0.55860 0.98780 0.63710 -0.26200
N 	N 	0.73980 0.95100 0.81110 -0.26300
N 	N 	0.83130 0.78070 0.99190 -0.28900
N 	N 	0.65680 0.04490 0.70470 -0.11500
N 	N 	0.23870 0.22530 0.47990 -0.08800
N 	N 	0.47520 0.50630 0.97760 -0.09800
O 	O 	0.42607 0.72600 0.68460 -0.42000
O 	O 	0.34580 0.72520 0.65790 -0.36600
O 	O 	0.36730 0.91390 0.66130 -0.34900
O 	O 	0.31340 0.87820 0.53120 -0.45600
O 	O 	0.51820 0.10260 0.57270 -0.23000
O 	O 	0.80140 0.04920 0.85510 -0.22900
Zn	Zn	0.37006 0.79669 0.58608 1.21000
H 	H 	0.70750 0.93550 0.77300 0.15100
H 	H 	0.58320 0.95760 0.64600 0.15200
C 	C 	0.83000 0.42610 0.58640 0.36300
C 	C 	0.80410 0.50200 0.55820 -0.14400
C 	C 	0.76300 0.51720 0.47450 0.09200
H 	H 	0.74990 0.47820 0.43550 0.02100
C 	C 	0.74150 0.59060 0.44930 -0.17700
H 	H 	0.71410 0.60080 0.39340 0.10500
C 	C 	0.76120 0.64880 0.50770 0.16200
C 	C 	0.80220 0.63370 0.59140 -0.17100
H 	H 	0.81530 0.67260 0.63040 0.11000
C 	C 	0.82370 0.56020 0.61660 0.08900
H 	H 	0.85120 0.55010 0.67250 0.02500
C 	C 	0.89490 0.20620 0.70220 0.33000
C 	C 	0.91820 0.15370 0.77410 -0.14300
C 	C 	0.97200 0.12880 0.82290 0.09600
H 	H 	0.99480 0.14500 0.81030 0.02200
C 	C 	0.99230 0.08120 0.88880 -0.19100
H 	H 	0.02830 0.06440 0.91980 0.11100
C 	C 	0.95950 0.05760 0.90990 0.17500
C 	C 	0.90510 0.07910 0.86210 -0.19400
H 	H 	0.88250 0.06290 0.87520 0.12600
C 	C 	0.88510 0.12620 0.79340 0.09600
H 	H 	0.84830 0.13960 0.75940 0.01700
C 	C 	0.05820 0.56160 0.61530 0.21600
C 	C 	0.92050 0.42110 0.54980 0.14600
H 	H 	0.88420 0.43630 0.51170 -0.02500
C 	C 	0.95920 0.46750 0.55990 -0.24600
H 	H 	0.94940 0.51240 0.52920 0.14200
C 	C 	0.01400 0.44660 0.61740 0.23900
C 	C 	0.02540 0.37610 0.65900 -0.23500
H 	H 	0.06120 0.35870 0.69600 0.12400
C 	C 	0.98320 0.33380 0.64420 0.12900
H 	H 	0.99150 0.28790 0.67300 -0.00800
C 	C 	0.25380 0.52270 0.80460 0.20600
C 	C 	0.11480 0.59060 0.65100 0.02600
C 	C 	0.12040 0.66330 0.62960 -0.07700
H 	H 	0.09010 0.69300 0.59080 0.07000
C 	C 	0.17420 0.69030 0.66960 -0.00600
H 	H 	0.18030 0.73990 0.66040 0.03600
C 	C 	0.21790 0.64140 0.72290 -0.06800
H 	H 	0.25340 0.65590 0.74480 0.06900
C 	C 	0.20820 0.57140 0.74310 0.01800
C 	C 	0.35530 0.34110 0.98870 0.15800
H 	H 	0.39310 0.34500 0.02880 -0.03800
C 	C 	0.32920 0.39930 0.93080 -0.25800
H 	H 	0.34900 0.43950 0.93120 0.14400
C 	C 	0.27270 0.39630 0.87220 0.24300
C 	C 	0.24660 0.33310 0.87460 -0.24900
H 	H 	0.20880 0.32850 0.83590 0.13100
C 	C 	0.27580 0.27770 0.93350 0.13300
H 	H 	0.25710 0.23610 0.93380 -0.00900
N 	N 	0.93023 0.35440 0.59050 -0.27900
N 	N 	0.05860 0.48780 0.63710 -0.26300
N 	N 	0.23980 0.45100 0.81110 -0.26300
N 	N 	0.33130 0.28070 0.99190 -0.28800
N 	N 	0.15680 0.54490 0.70470 -0.11500
N 	N 	0.73870 0.72530 0.47990 -0.08800
N 	N 	0.97520 0.00630 0.97760 -0.09800
O 	O 	0.92607 0.22600 0.68460 -0.42000
O 	O 	0.84580 0.22520 0.65790 -0.36600
O 	O 	0.86730 0.41390 0.66130 -0.34900
O 	O 	0.81340 0.37820 0.53120 -0.45600
O 	O 	0.01820 0.60260 0.57270 -0.23000
O 	O 	0.30140 0.54920 0.85510 -0.22900
Zn	Zn	0.87006 0.29669 0.58608 1.21000
H 	H 	0.20750 0.43550 0.77300 0.15100
H 	H 	0.08320 0.45760 0.64600 0.15200
C 	C 	0.67000 0.92610 0.91360 0.36400
C 	C 	0.69590 0.00200 0.94180 -0.14500
C 	C 	0.73700 0.01720 0.02550 0.09500
H 	H 	0.75010 0.97820 0.06450 0.02000
C 	C 	0.75850 0.09060 0.05070 -0.17900
H 	H 	0.78590 0.10080 0.10660 0.10500
C 	C 	0.73880 0.14880 0.99230 0.16200
C 	C 	0.69780 0.13370 0.90860 -0.17200
H 	H 	0.68470 0.17260 0.86960 0.11000
C 	C 	0.67630 0.06020 0.88340 0.09000
H 	H 	0.64880 0.05010 0.82750 0.02500
C 	C 	0.60510 0.70620 0.79780 0.33000
C 	C 	0.58180 0.65370 0.72590 -0.14400
C 	C 	0.52800 0.62880 0.67710 0.09700
H 	H 	0.50520 0.64500 0.68970 0.02100
C 	C 	0.50770 0.58120 0.61120 -0.19400
H 	H 	0.47170 0.56440 0.58020 0.11200
C 	C 	0.54050 0.55760 0.59010 0.17600
C 	C 	0.59490 0.57910 0.63790 -0.19500
H 	H 	0.61750 0.56290 0.62480 0.12600
C 	C 	0.61490 0.62620 0.70660 0.09700
H 	H 	0.65170 0.63960 0.74060 0.01700
C 	C 	0.44180 0.06160 0.88470 0.21500
C 	C 	0.57950 0.92110 0.95020 0.14600
H 	H 	0.61580 0.93630 0.98830 -0.02400
C 	C 	0.54080 0.96750 0.94010 -0.24500
H 	H 	0.55060 0.01240 0.97080 0.14100
C 	C 	0.48600 0.94660 0.88260 0.23900
C 	C 	0.47460 0.87610 0.84100 -0.23500
H 	H 	0.43880 0.85870 0.80400 0.12400
C 	C 	0.51680 0.83380 0.85580 0.12900
H 	H 	0.50850 0.78790 0.82700 -0.00800
C 	C 	0.24620 0.02270 0.69540 0.20500
C 	C 	0.38520 0.09060 0.84900 0.02600
C 	C 	0.37960 0.16330 0.87040 -0.07700
H 	H 	0.40990 0.19300 0.90920 0.07000
C 	C 	0.32580 0.19030 0.83040 -0.00600
H 	H 	0.31970 0.23990 0.83960 0.03600
C 	C 	0.28210 0.14140 0.77710 -0.06800
H 	H 	0.24660 0.15590 0.75520 0.06900
C 	C 	0.29180 0.07140 0.75690 0.01800
C 	C 	0.14470 0.84110 0.51130 0.15800
H 	H 	0.10690 0.84500 0.47120 -0.03900
C 	C 	0.17080 0.89930 0.56920 -0.25900
H 	H 	0.15100 0.93950 0.56880 0.14400
C 	C 	0.22730 0.89630 0.62780 0.24300
C 	C 	0.25340 0.83310 0.62540 -0.24900
H 	H 	0.29120 0.82850 0.66410 0.13100
C 	C 	0.22420 0.77770 0.56650 0.13400
H 	H 	0.24290 0.73610 0.56620 -0.00800
N 	N 	0.56977 0.85440 0.90950 -0.27800
N 	N 	0.44140 0.98780 0.86290 -0.26200
N 	N 	0.26020 0.95100 0.68890 -0.26300
N 	N 	0.16870 0.78070 0.50810 -0.28800
N 	N 	0.34320 0.04490 0.79530 -0.11500
N 	N 	0.76130 0.22530 0.02010 -0.08800
N 	N 	0.52480 0.50630 0.52240 -0.09800
O 	O 	0.57393 0.72600 0.81540 -0.42000
O 	O 	0.65420 0.72520 0.84210 -0.36600
O 	O 	0.63270 0.91390 0.83870 -0.34900
O 	O 	0.68660 0.87820 0.96880 -0.45600
O 	O 	0.48180 0.10260 0.92730 -0.23000
O 	O 	0.19860 0.04920 0.64490 -0.22900
Zn	Zn	0.62994 0.79669 0.91392 1.21000
H 	H 	0.29250 0.93550 0.72700 0.15100
H 	H 	0.41680 0.95760 0.85400 0.15200
C 	C 	0.17000 0.42610 0.91360 0.36400
C 	C 	0.19590 0.50200 0.94180 -0.14400
C 	C 	0.23700 0.51720 0.02550 0.09300
H 	H 	0.25010 0.47820 0.06450 0.02100
C 	C 	0.25850 0.59060 0.05070 -0.17700
H 	H 	0.28590 0.60080 0.10660 0.10500
C 	C 	0.23880 0.64880 0.99230 0.16100
C 	C 	0.19780 0.63370 0.90860 -0.17100
H 	H 	0.18470 0.67260 0.86960 0.11000
C 	C 	0.17630 0.56020 0.88340 0.08900
H 	H 	0.14880 0.55010 0.82750 0.02500
C 	C 	0.10510 0.20620 0.79780 0.33000
C 	C 	0.08180 0.15370 0.72590 -0.14400
C 	C 	0.02800 0.12880 0.67710 0.09700
H 	H 	0.00520 0.14500 0.68970 0.02100
C 	C 	0.00770 0.08120 0.61120 -0.19400
H 	H 	0.97170 0.06440 0.58020 0.11200
C 	C 	0.04050 0.05760 0.59010 0.17600
C 	C 	0.09490 0.07910 0.63790 -0.19500
H 	H 	0.11750 0.06290 0.62480 0.12700
C 	C 	0.11490 0.12620 0.70660 0.09700
H 	H 	0.15170 0.13960 0.74060 0.01700
C 	C 	0.94180 0.56160 0.88470 0.21600
C 	C 	0.07950 0.42110 0.95020 0.14700
H 	H 	0.11580 0.43630 0.98830 -0.02500
C 	C 	0.04080 0.46750 0.94010 -0.24700
H 	H 	0.05060 0.51240 0.97080 0.14200
C 	C 	0.98600 0.44660 0.88260 0.24000
C 	C 	0.97460 0.37610 0.84100 -0.23400
H 	H 	0.93880 0.35870 0.80400 0.12400
C 	C 	0.01680 0.33380 0.85580 0.12800
H 	H 	0.00850 0.28790 0.82700 -0.00800
C 	C 	0.74620 0.52270 0.69540 0.20600
C 	C 	0.88520 0.59060 0.84900 0.02600
C 	C 	0.87960 0.66330 0.87040 -0.07700
H 	H 	0.90990 0.69300 0.90920 0.07000
C 	C 	0.82580 0.69030 0.83040 -0.00600
H 	H 	0.81970 0.73990 0.83960 0.03600
C 	C 	0.78210 0.64140 0.77710 -0.06800
H 	H 	0.74660 0.65590 0.75520 0.06900
C 	C 	0.79180 0.57140 0.75690 0.01800
C 	C 	0.64470 0.34110 0.51130 0.15800
H 	H 	0.60690 0.34500 0.47120 -0.03900
C 	C 	0.67080 0.39930 0.56920 -0.25900
H 	H 	0.65100 0.43950 0.56880 0.14400
C 	C 	0.72730 0.39630 0.62780 0.24300
C 	C 	0.75340 0.33310 0.62540 -0.24900
H 	H 	0.79120 0.32850 0.66410 0.13100
C 	C 	0.72420 0.27770 0.56650 0.13400
H 	H 	0.74290 0.23610 0.56620 -0.00900
N 	N 	0.06977 0.35440 0.90950 -0.27900
N 	N 	0.94140 0.48780 0.86290 -0.26300
N 	N 	0.76020 0.45100 0.68890 -0.26300
N 	N 	0.66870 0.28070 0.50810 -0.28800
N 	N 	0.84320 0.54490 0.79530 -0.11500
N 	N 	0.26130 0.72530 0.02010 -0.08800
N 	N 	0.02480 0.00630 0.52240 -0.09800
O 	O 	0.07393 0.22600 0.81540 -0.42000
O 	O 	0.15420 0.22520 0.84210 -0.36700
O 	O 	0.13270 0.41390 0.83870 -0.34900
O 	O 	0.18660 0.37820 0.96880 -0.45600
O 	O 	0.98180 0.60260 0.92730 -0.23000
O 	O 	0.69860 0.54920 0.64490 -0.22900
Zn	Zn	0.12994 0.29669 0.91392 1.21000
H 	H 	0.79250 0.43550 0.72700 0.15100
H 	H 	0.91680 0.45760 0.85400 0.15200
C 	C 	0.67000 0.07390 0.41360 0.36400
C 	C 	0.69590 0.99800 0.44180 -0.14400
C 	C 	0.73700 0.98280 0.52550 0.09300
H 	H 	0.75010 0.02180 0.56450 0.02100
C 	C 	0.75850 0.90940 0.55070 -0.17800
H 	H 	0.78590 0.89920 0.60660 0.10500
C 	C 	0.73880 0.85120 0.49230 0.16200
C 	C 	0.69780 0.86630 0.40860 -0.17100
H 	H 	0.68470 0.82740 0.36960 0.11000
C 	C 	0.67630 0.93980 0.38340 0.08900
H 	H 	0.64880 0.94990 0.32750 0.02500
C 	C 	0.60510 0.29380 0.29780 0.33000
C 	C 	0.58180 0.34630 0.22590 -0.14400
C 	C 	0.52800 0.37120 0.17710 0.09700
H 	H 	0.50520 0.35500 0.18970 0.02100
C 	C 	0.50770 0.41880 0.11120 -0.19400
H 	H 	0.47170 0.43560 0.08020 0.11200
C 	C 	0.54050 0.44240 0.09010 0.17600
C 	C 	0.59490 0.42090 0.13790 -0.19500
H 	H 	0.61750 0.43710 0.12480 0.12600
C 	C 	0.61490 0.37380 0.20660 0.09700
H 	H 	0.65170 0.36040 0.24060 0.01700
C 	C 	0.44180 0.93840 0.38470 0.21600
C 	C 	0.57950 0.07890 0.45020 0.14600
H 	H 	0.61580 0.06370 0.48830 -0.02500
C 	C 	0.54080 0.03250 0.44010 -0.24600
H 	H 	0.55060 0.98760 0.47080 0.14200
C 	C 	0.48600 0.05340 0.38260 0.23900
C 	C 	0.47460 0.12390 0.34100 -0.23500
H 	H 	0.43880 0.14130 0.30400 0.12400
C 	C 	0.51680 0.16620 0.35580 0.12900
H 	H 	0.50850 0.21210 0.32700 -0.00800
C 	C 	0.24620 0.97730 0.19540 0.20500
C 	C 	0.38520 0.90940 0.34900 0.02600
C 	C 	0.37960 0.83670 0.37040 -0.07700
H 	H 	0.40990 0.80700 0.40920 0.07000
C 	C 	0.32580 0.80970 0.33040 -0.00600
H 	H 	0.31970 0.76010 0.33960 0.03600
C 	C 	0.28210 0.85860 0.27710 -0.06800
H 	H 	0.24660 0.84410 0.25520 0.06900
C 	C 	0.29180 0.92860 0.25690 0.01800
C 	C 	0.14470 0.15890 0.01130 0.16000
H 	H 	0.10690 0.15500 0.97120 -0.04000
C 	C 	0.17080 0.10070 0.06920 -0.26000
H 	H 	0.15100 0.06050 0.06880 0.14500
C 	C 	0.22730 0.10370 0.12780 0.24300
C 	C 	0.25340 0.16690 0.12540 -0.24900
H 	H 	0.29120 0.17150 0.16410 0.13100
C 	C 	0.22420 0.22230 0.06650 0.13400
H 	H 	0.24290 0.26390 0.06620 -0.00800
N 	N 	0.56977 0.14560 0.40950 -0.27900
N 	N 	0.44140 0.01220 0.36290 -0.26200
N 	N 	0.26020 0.04900 0.18890 -0.26300
N 	N 	0.16870 0.21930 0.00810 -0.28900
N 	N 	0.34320 0.95510 0.29530 -0.11500
N 	N 	0.76130 0.77470 0.52010 -0.08800
N 	N 	0.52480 0.49370 0.02240 -0.09800
O 	O 	0.57393 0.27400 0.31540 -0.42000
O 	O 	0.65420 0.27480 0.34210 -0.36600
O 	O 	0.63270 0.08610 0.33870 -0.34900
O 	O 	0.68660 0.12180 0.46880 -0.45600
O 	O 	0.48180 0.89740 0.42730 -0.23000
O 	O 	0.19860 0.95080 0.14490 -0.22900
Zn	Zn	0.62994 0.20331 0.41392 1.21000
H 	H 	0.29250 0.06450 0.22700 0.15100
H 	H 	0.41680 0.04240 0.35400 0.15200
C 	C 	0.17000 0.57390 0.41360 0.36300
C 	C 	0.19590 0.49800 0.44180 -0.14400
C 	C 	0.23700 0.48280 0.52550 0.09200
H 	H 	0.25010 0.52180 0.56450 0.02100
C 	C 	0.25850 0.40940 0.55070 -0.17700
H 	H 	0.28590 0.39920 0.60660 0.10500
C 	C 	0.23880 0.35120 0.49230 0.16200
C 	C 	0.19780 0.36630 0.40860 -0.17100
H 	H 	0.18470 0.32740 0.36960 0.11000
C 	C 	0.17630 0.43980 0.38340 0.08900
H 	H 	0.14880 0.44990 0.32750 0.02500
C 	C 	0.10510 0.79380 0.29780 0.33000
C 	C 	0.08180 0.84630 0.22590 -0.14300
C 	C 	0.02800 0.87120 0.17710 0.09600
H 	H 	0.00520 0.85500 0.18970 0.02200
C 	C 	0.00770 0.91880 0.11120 -0.19100
H 	H 	0.97170 0.93560 0.08020 0.11100
C 	C 	0.04050 0.94240 0.09010 0.17500
C 	C 	0.09490 0.92090 0.13790 -0.19400
H 	H 	0.11750 0.93710 0.12480 0.12600
C 	C 	0.11490 0.87380 0.20660 0.09600
H 	H 	0.15170 0.86040 0.24060 0.01700
C 	C 	0.94180 0.43840 0.38470 0.21600
C 	C 	0.07950 0.57890 0.45020 0.14600
H 	H 	0.11580 0.56370 0.48830 -0.02500
C 	C 	0.04080 0.53250 0.44010 -0.24600
H 	H 	0.05060 0.48760 0.47080 0.14200
C 	C 	0.98600 0.55340 0.38260 0.23900
C 	C 	0.97460 0.62390 0.34100 -0.23500
H 	H 	0.93880 0.64130 0.30400 0.12400
C 	C 	0.01680 0.66620 0.35580 0.12900
H 	H 	0.00850 0.71210 0.32700 -0.00800
C 	C 	0.74620 0.47730 0.19540 0.20600
C 	C 	0.88520 0.40940 0.34900 0.02600
C 	C 	0.87960 0.33670 0.37040 -0.07700
H 	H 	0.90990 0.30700 0.40920 0.07000
C 	C 	0.82580 0.30970 0.33040 -0.00600
H 	H 	0.81970 0.26010 0.33960 0.03600
C 	C 	0.78210 0.35860 0.27710 -0.06800
H 	H 	0.74660 0.34410 0.25520 0.06900
C 	C 	0.79180 0.42860 0.25690 0.01800
C 	C 	0.64470 0.65890 0.01130 0.15800
H 	H 	0.60690 0.65500 0.97120 -0.03800
C 	C 	0.67080 0.60070 0.06920 -0.25800
H 	H 	0.65100 0.56050 0.06880 0.14400
C 	C 	0.72730 0.60370 0.12780 0.24300
C 	C 	0.75340 0.66690 0.12540 -0.24900
H 	H 	0.79120 0.67150 0.16410 0.13100
C 	C 	0.72420 0.72230 0.06650 0.13300
H 	H 	0.74290 0.76390 0.06620 -0.00900
N 	N 	0.06977 0.64560 0.40950 -0.27900
N 	N 	0.94140 0.51220 0.36290 -0.26300
N 	N 	0.76020 0.54900 0.18890 -0.26300
N 	N 	0.66870 0.71930 0.00810 -0.28800
N 	N 	0.84320 0.45510 0.29530 -0.11500
N 	N 	0.26130 0.27470 0.52010 -0.08800
N 	N 	0.02480 0.99370 0.02240 -0.09800
O 	O 	0.07393 0.77400 0.31540 -0.42000
O 	O 	0.15420 0.77480 0.34210 -0.36600
O 	O 	0.13270 0.58610 0.33870 -0.34900
O 	O 	0.18660 0.62180 0.46880 -0.45600
O 	O 	0.98180 0.39740 0.42730 -0.23000
O 	O 	0.69860 0.45080 0.14490 -0.22900
Zn	Zn	0.12994 0.70331 0.41392 1.21000
H 	H 	0.79250 0.56450 0.22700 0.15100
H 	H 	0.91680 0.54240 0.35400 0.15200
C 	C 	0.33000 0.07390 0.08640 0.36400
C 	C 	0.30410 0.99800 0.05820 -0.14500
C 	C 	0.26300 0.98280 0.97450 0.09500
H 	H 	0.24990 0.02180 0.93550 0.02000
C 	C 	0.24150 0.90940 0.94930 -0.17900
H 	H 	0.21410 0.89920 0.89340 0.10500
C 	C 	0.26120 0.85120 0.00770 0.16200
C 	C 	0.30220 0.86630 0.09140 -0.17200
H 	H 	0.31530 0.82740 0.13040 0.11000
C 	C 	0.32370 0.93980 0.11660 0.09000
H 	H 	0.35120 0.94990 0.17250 0.02500
C 	C 	0.39490 0.29380 0.20220 0.33000
C 	C 	0.41820 0.34630 0.27410 -0.14400
C 	C 	0.47200 0.37120 0.32290 0.09700
H 	H 	0.49480 0.35500 0.31030 0.02100
C 	C 	0.49230 0.41880 0.38880 -0.19400
H 	H 	0.52830 0.43560 0.41980 0.11200
C 	C 	0.45950 0.44240 0.40990 0.17600
C 	C 	0.40510 0.42090 0.36210 -0.19500
H 	H 	0.38250 0.43710 0.37520 0.12600
C 	C 	0.38510 0.37380 0.29340 0.09700
H 	H 	0.34830 0.36040 0.25940 0.01700
C 	C 	0.55820 0.93840 0.11530 0.21500
C 	C 	0.42050 0.07890 0.04980 0.14600
H 	H 	0.38420 0.06370 0.01170 -0.02400
C 	C 	0.45920 0.03250 0.05990 -0.24500
H 	H 	0.44940 0.98760 0.02920 0.14100
C 	C 	0.51400 0.05340 0.11740 0.23900
C 	C 	0.52540 0.12390 0.15900 -0.23500
H 	H 	0.56120 0.14130 0.19600 0.12400
C 	C 	0.48320 0.16620 0.14420 0.12900
H 	H 	0.49150 0.21210 0.17300 -0.00800
C 	C 	0.75380 0.97730 0.30460 0.20500
C 	C 	0.61480 0.90940 0.15100 0.02600
C 	C 	0.62040 0.83670 0.12960 -0.07700
H 	H 	0.59010 0.80700 0.09080 0.07000
C 	C 	0.67420 0.80970 0.16960 -0.00600
H 	H 	0.68030 0.76010 0.16040 0.03600
C 	C 	0.71790 0.85860 0.22290 -0.06800
H 	H 	0.75340 0.84410 0.24480 0.06900
C 	C 	0.70820 0.92860 0.24310 0.01800
C 	C 	0.85530 0.15890 0.48870 0.15800
H 	H 	0.89310 0.15500 0.52880 -0.03900
C 	C 	0.82920 0.10070 0.43080 -0.25900
H 	H 	0.84900 0.06050 0.43120 0.14400
C 	C 	0.77270 0.10370 0.37220 0.24300
C 	C 	0.74660 0.16690 0.37460 -0.24900
H 	H 	0.70880 0.17150 0.33590 0.13100
C 	C 	0.77580 0.22230 0.43350 0.13400
H 	H 	0.75710 0.26390 0.43380 -0.00800
N 	N 	0.43023 0.14560 0.09050 -0.27800
N 	N 	0.55860 0.01220 0.13710 -0.26200
N 	N 	0.73980 0.04900 0.31110 -0.26300
N 	N 	0.83130 0.21930 0.49190 -0.28800
N 	N 	0.65680 0.95510 0.20470 -0.11500
N 	N 	0.23870 0.77470 0.97990 -0.08800
N 	N 	0.47520 0.49370 0.47760 -0.09800
O 	O 	0.42607 0.27400 0.18460 -0.42000
O 	O 	0.34580 0.27480 0.15790 -0.36600
O 	O 	0.36730 0.08610 0.16130 -0.34900
O 	O 	0.31340 0.12180 0.03120 -0.45600
O 	O 	0.51820 0.89740 0.07270 -0.23000
O 	O 	0.80140 0.95080 0.35510 -0.22900
Zn	Zn	0.37006 0.20331 0.08608 1.21000
H 	H 	0.70750 0.06450 0.27300 0.15100
H 	H 	0.58320 0.04240 0.14600 0.15200
C 	C 	0.83000 0.57390 0.08640 0.36400
C 	C 	0.80410 0.49800 0.05820 -0.14400
C 	C 	0.76300 0.48280 0.97450 0.09300
H 	H 	0.74990 0.52180 0.93550 0.02100
C 	C 	0.74150 0.40940 0.94930 -0.17700
H 	H 	0.71410 0.39920 0.89340 0.10500
C 	C 	0.76120 0.35120 0.00770 0.16100
C 	C 	0.80220 0.36630 0.09140 -0.17100
H 	H 	0.81530 0.32740 0.13040 0.11000
C 	C 	0.82370 0.43980 0.11660 0.08900
H 	H 	0.85120 0.44990 0.17250 0.02500
C 	C 	0.89490 0.79380 0.20220 0.33000
C 	C 	0.91820 0.84630 0.27410 -0.14400
C 	C 	0.97200 0.87120 0.32290 0.09700
H 	H 	0.99480 0.85500 0.31030 0.02100
C 	C 	0.99230 0.91880 0.38880 -0.19400
H 	H 	0.02830 0.93560 0.41980 0.11200
C 	C 	0.95950 0.94240 0.40990 0.17600
C 	C 	0.90510 0.92090 0.36210 -0.19500
H 	H 	0.88250 0.93710 0.37520 0.12700
C 	C 	0.88510 0.87380 0.29340 0.09700
H 	H 	0.84830 0.86040 0.25940 0.01700
C 	C 	0.05820 0.43840 0.11530 0.21600
C 	C 	0.92050 0.57890 0.04980 0.14700
H 	H 	0.88420 0.56370 0.01170 -0.02500
C 	C 	0.95920 0.53250 0.05990 -0.24700
H 	H 	0.94940 0.48760 0.02920 0.14200
C 	C 	0.01400 0.55340 0.11740 0.24000
C 	C 	0.02540 0.62390 0.15900 -0.23400
H 	H 	0.06120 0.64130 0.19600 0.12400
C 	C 	0.98320 0.66620 0.14420 0.12800
H 	H 	0.99150 0.71210 0.17300 -0.00800
C 	C 	0.25380 0.47730 0.30460 0.20600
C 	C 	0.11480 0.40940 0.15100 0.02600
C 	C 	0.12040 0.33670 0.12960 -0.07700
H 	H 	0.09010 0.30700 0.09080 0.07000
C 	C 	0.17420 0.30970 0.16960 -0.00600
H 	H 	0.18030 0.26010 0.16040 0.03600
C 	C 	0.21790 0.35860 0.22290 -0.06800
H 	H 	0.25340 0.34410 0.24480 0.06900
C 	C 	0.20820 0.42860 0.24310 0.01800
C 	C 	0.35530 0.65890 0.48870 0.15800
H 	H 	0.39310 0.65500 0.52880 -0.03900
C 	C 	0.32920 0.60070 0.43080 -0.25900
H 	H 	0.34900 0.56050 0.43120 0.14400
C 	C 	0.27270 0.60370 0.37220 0.24300
C 	C 	0.24660 0.66690 0.37460 -0.24900
H 	H 	0.20880 0.67150 0.33590 0.13100
C 	C 	0.27580 0.72230 0.43350 0.13400
H 	H 	0.25710 0.76390 0.43380 -0.00900
N 	N 	0.93023 0.64560 0.09050 -0.27900
N 	N 	0.05860 0.51220 0.13710 -0.26300
N 	N 	0.23980 0.54900 0.31110 -0.26300
N 	N 	0.33130 0.71930 0.49190 -0.28800
N 	N 	0.15680 0.45510 0.20470 -0.11500
N 	N 	0.73870 0.27470 0.97990 -0.08800
N 	N 	0.97520 0.99370 0.47760 -0.09800
O 	O 	0.92607 0.77400 0.18460 -0.42000
O 	O 	0.84580 0.77480 0.15790 -0.36700
O 	O 	0.86730 0.58610 0.16130 -0.34900
O 	O 	0.81340 0.62180 0.03120 -0.45600
O 	O 	0.01820 0.39740 0.07270 -0.23000
O 	O 	0.30140 0.45080 0.35510 -0.22900
Zn	Zn	0.87006 0.70331 0.08608 1.21000
H 	H 	0.20750 0.56450 0.27300 0.15100
H 	H 	0.08320 0.54240 0.14600 0.15200
