data_crystal

_cell_length_a 14.51020
_cell_length_b 14.51020
_cell_length_c 15.83200
_cell_angle_alpha 90.00000
_cell_angle_beta  90.00000
_cell_angle_gamma 120.00000

_symmetry_space_group_name_	'P 1'
_symmetry_space_group_name_H-M	'P 1'

loop_
_symmetry_equiv_pos_as_xyz
  x,y,z

loop_
_atom_site_label
_atom_site_type_symbol
_atom_site_fract_x
_atom_site_fract_y
_atom_site_fract_z
_atom_site_charge
O 	O 	0.94420 0.38300 0.09070 -0.47100
C 	C 	0.86800 0.35020 0.13900 0.43300
O 	O 	0.80450 0.38530 0.14580 -0.44600
C 	C 	0.85030 0.25950 0.19440 -0.20900
H 	H 	0.83370 0.19660 0.15920 0.07100
H 	H 	0.91570 0.27900 0.22700 0.11400
O 	O 	0.61700 0.56120 0.09070 -0.51100
C 	C 	0.64980 0.51780 0.13900 0.44400
O 	O 	0.61470 0.41920 0.14580 -0.46000
C 	C 	0.74050 0.59080 0.19440 -0.22500
H 	H 	0.80340 0.63710 0.15920 0.10200
H 	H 	0.72100 0.63670 0.22700 0.10300
O 	O 	0.43880 0.05580 0.09070 -0.55200
C 	C 	0.48220 0.13200 0.13900 0.42200
O 	O 	0.58080 0.19550 0.14580 -0.46600
C 	C 	0.40920 0.14970 0.19440 -0.18300
H 	H 	0.36290 0.16630 0.15920 0.05200
H 	H 	0.36330 0.08430 0.22700 0.05000
O 	O 	0.05580 0.61700 0.09070 -0.54700
C 	C 	0.13200 0.64980 0.13900 0.43200
O 	O 	0.19550 0.61470 0.14580 -0.46800
C 	C 	0.14970 0.74050 0.19440 -0.20200
H 	H 	0.16630 0.80340 0.15920 0.08000
H 	H 	0.08430 0.72100 0.22700 0.06400
O 	O 	0.38300 0.43880 0.09070 -0.52000
C 	C 	0.35020 0.48220 0.13900 0.42500
O 	O 	0.38530 0.58080 0.14580 -0.45600
C 	C 	0.25950 0.40920 0.19440 -0.18700
H 	H 	0.19660 0.36290 0.15920 0.04800
H 	H 	0.27900 0.36330 0.22700 0.07500
O 	O 	0.56120 0.94420 0.09070 -0.46600
C 	C 	0.51780 0.86800 0.13900 0.44300
O 	O 	0.41920 0.80450 0.14580 -0.44700
C 	C 	0.59080 0.85030 0.19440 -0.22600
H 	H 	0.63710 0.83370 0.15920 0.09700
H 	H 	0.63670 0.91570 0.22700 0.12800
O 	O 	0.38300 0.94420 0.40930 -0.42500
C 	C 	0.35020 0.86800 0.36100 0.43600
O 	O 	0.38530 0.80450 0.35420 -0.42100
C 	C 	0.25950 0.85030 0.30560 -0.20800
H 	H 	0.19660 0.83370 0.34080 0.08900
H 	H 	0.27900 0.91570 0.27300 0.11500
O 	O 	0.56120 0.61700 0.40930 -0.46500
C 	C 	0.51780 0.64980 0.36100 0.44600
O 	O 	0.41920 0.61470 0.35420 -0.43600
C 	C 	0.59080 0.74050 0.30560 -0.22500
H 	H 	0.63710 0.80340 0.34080 0.12100
H 	H 	0.63670 0.72100 0.27300 0.10400
O 	O 	0.05580 0.43880 0.40930 -0.50500
C 	C 	0.13200 0.48220 0.36100 0.42400
O 	O 	0.19550 0.58080 0.35420 -0.44200
C 	C 	0.14970 0.40920 0.30560 -0.18400
H 	H 	0.16630 0.36290 0.34080 0.07200
H 	H 	0.08430 0.36330 0.27300 0.05100
O 	O 	0.61700 0.05580 0.40930 -0.50100
C 	C 	0.64980 0.13200 0.36100 0.43400
O 	O 	0.61470 0.19550 0.35420 -0.44400
C 	C 	0.74050 0.14970 0.30560 -0.20200
H 	H 	0.80340 0.16630 0.34080 0.09900
H 	H 	0.72100 0.08430 0.27300 0.06500
O 	O 	0.43880 0.38300 0.40930 -0.47400
C 	C 	0.48220 0.35020 0.36100 0.42700
O 	O 	0.58080 0.38530 0.35420 -0.43200
C 	C 	0.40920 0.25950 0.30560 -0.18700
H 	H 	0.36290 0.19660 0.34080 0.06800
H 	H 	0.36330 0.27900 0.27300 0.07600
O 	O 	0.94420 0.56120 0.40930 -0.42100
C 	C 	0.86800 0.51780 0.36100 0.44500
O 	O 	0.80450 0.41920 0.35420 -0.42300
C 	C 	0.85030 0.59080 0.30560 -0.22700
H 	H 	0.83370 0.63710 0.34080 0.11600
H 	H 	0.91570 0.63670 0.27300 0.12800
O 	O 	0.05580 0.61700 0.90930 -0.43200
C 	C 	0.13200 0.64980 0.86100 0.43400
O 	O 	0.19550 0.61470 0.85420 -0.41500
C 	C 	0.14970 0.74050 0.80560 -0.20700
H 	H 	0.16630 0.80340 0.84080 0.12300
H 	H 	0.08430 0.72100 0.77300 0.07500
O 	O 	0.38300 0.43880 0.90930 -0.40400
C 	C 	0.35020 0.48220 0.86100 0.42700
O 	O 	0.38530 0.58080 0.85420 -0.40400
C 	C 	0.25950 0.40920 0.80560 -0.19300
H 	H 	0.19660 0.36290 0.84080 0.09300
H 	H 	0.27900 0.36330 0.77300 0.08600
O 	O 	0.56120 0.94420 0.90930 -0.35500
C 	C 	0.51780 0.86800 0.86100 0.44600
O 	O 	0.41920 0.80450 0.85420 -0.39600
C 	C 	0.59080 0.85030 0.80560 -0.23200
H 	H 	0.63710 0.83370 0.84080 0.14000
H 	H 	0.63670 0.91570 0.77300 0.13800
O 	O 	0.94420 0.38300 0.90930 -0.35900
C 	C 	0.86800 0.35020 0.86100 0.43600
O 	O 	0.80450 0.38530 0.85420 -0.39400
C 	C 	0.85030 0.25950 0.80560 -0.21300
H 	H 	0.83370 0.19660 0.84080 0.11400
H 	H 	0.91570 0.27900 0.77300 0.12400
O 	O 	0.61700 0.56120 0.90930 -0.39600
C 	C 	0.64980 0.51780 0.86100 0.44600
O 	O 	0.61470 0.41920 0.85420 -0.40800
C 	C 	0.74050 0.59080 0.80560 -0.23000
H 	H 	0.80340 0.63710 0.84080 0.14500
H 	H 	0.72100 0.63670 0.77300 0.11400
O 	O 	0.43880 0.05580 0.90930 -0.43600
C 	C 	0.48220 0.13200 0.86100 0.42400
O 	O 	0.58080 0.19550 0.85420 -0.41400
C 	C 	0.40920 0.14970 0.80560 -0.18900
H 	H 	0.36290 0.16630 0.84080 0.09800
H 	H 	0.36330 0.08430 0.77300 0.06200
O 	O 	0.61700 0.05580 0.59070 -0.50200
C 	C 	0.64980 0.13200 0.63900 0.43700
O 	O 	0.61470 0.19550 0.64580 -0.44600
C 	C 	0.74050 0.14970 0.69440 -0.21000
H 	H 	0.80340 0.16630 0.65920 0.10400
H 	H 	0.72100 0.08430 0.72700 0.07600
O 	O 	0.43880 0.38300 0.59070 -0.47400
C 	C 	0.48220 0.35020 0.63900 0.43100
O 	O 	0.58080 0.38530 0.64580 -0.43500
C 	C 	0.40920 0.25950 0.69440 -0.19600
H 	H 	0.36290 0.19660 0.65920 0.07300
H 	H 	0.36330 0.27900 0.72700 0.08700
O 	O 	0.94420 0.56120 0.59070 -0.42200
C 	C 	0.86800 0.51780 0.63900 0.44900
O 	O 	0.80450 0.41920 0.64580 -0.42600
C 	C 	0.85030 0.59080 0.69440 -0.23400
H 	H 	0.83370 0.63710 0.65920 0.12100
H 	H 	0.91570 0.63670 0.72700 0.13800
O 	O 	0.38300 0.94420 0.59070 -0.42600
C 	C 	0.35020 0.86800 0.63900 0.43900
O 	O 	0.38530 0.80450 0.64580 -0.42400
C 	C 	0.25950 0.85030 0.69440 -0.21600
H 	H 	0.19660 0.83370 0.65920 0.09400
H 	H 	0.27900 0.91570 0.72700 0.12400
O 	O 	0.56120 0.61700 0.59070 -0.46600
C 	C 	0.51780 0.64980 0.63900 0.45000
O 	O 	0.41920 0.61470 0.64580 -0.43900
C 	C 	0.59080 0.74050 0.69440 -0.23300
H 	H 	0.63710 0.80340 0.65920 0.12600
H 	H 	0.63670 0.72100 0.72700 0.11400
O 	O 	0.05580 0.43880 0.59070 -0.50600
C 	C 	0.13200 0.48220 0.63900 0.42800
O 	O 	0.19550 0.58080 0.64580 -0.44400
C 	C 	0.14970 0.40920 0.69440 -0.19200
H 	H 	0.16630 0.36290 0.65920 0.07700
H 	H 	0.08430 0.36330 0.72700 0.06200
Gd	Gd	0.66667 0.33333 0.25000 1.69500
Gd	Gd	0.33333 0.66667 0.25000 1.69500
Gd	Gd	0.33333 0.66667 0.75000 1.70800
Gd	Gd	0.66667 0.33333 0.75000 1.70800
Zn	Zn	-0.00000 0.50000 -0.00000 1.13900
Zn	Zn	0.50000 0.50000 -0.00000 1.17000
Zn	Zn	0.50000 0.00000 -0.00000 1.13900
Zn	Zn	0.50000 0.00000 0.50000 1.19200
Zn	Zn	0.50000 0.50000 0.50000 1.22400
Zn	Zn	-0.00000 0.50000 0.50000 1.19200
O 	O 	0.76530 0.23470 0.25000 -0.21100
O 	O 	0.76530 0.53060 0.25000 -0.19600
O 	O 	0.46940 0.23470 0.25000 -0.22500
O 	O 	0.23470 0.76530 0.25000 -0.21100
O 	O 	0.23470 0.46940 0.25000 -0.22500
O 	O 	0.53060 0.76530 0.25000 -0.19700
O 	O 	0.23470 0.76530 0.75000 -0.20400
O 	O 	0.23470 0.46940 0.75000 -0.21700
O 	O 	0.53060 0.76530 0.75000 -0.18900
O 	O 	0.76530 0.23470 0.75000 -0.20300
O 	O 	0.76530 0.53060 0.75000 -0.18900
O 	O 	0.46940 0.23470 0.75000 -0.21700
