data_crystal

_cell_length_a 26.95600
_cell_length_b 26.95600
_cell_length_c 39.14500
_cell_angle_alpha 90.00000
_cell_angle_beta  90.00000
_cell_angle_gamma 90.00000

_symmetry_space_group_name_	'P 1'
_symmetry_space_group_name_H-M	'P 1'

loop_
_symmetry_equiv_pos_as_xyz
  x,y,z

loop_
_atom_site_label
_atom_site_type_symbol
_atom_site_fract_x
_atom_site_fract_y
_atom_site_fract_z
_atom_site_charge
Cu	Cu	0.75177 0.12243 0.19589 0.91000
Cu	Cu	0.81488 0.09169 0.14767 0.91800
O 	O 	0.83170 0.34640 0.03565 -0.40700
O 	O 	0.85800 0.26710 0.03554 -0.42700
O 	O 	0.75110 0.18248 0.16689 -0.40200
O 	O 	0.80030 0.15430 0.12483 -0.42200
O 	O 	0.73620 0.56080 0.28135 -0.40500
O 	O 	0.68030 0.53560 0.32146 -0.40000
O 	O 	0.64590 0.31290 0.28407 -0.42100
O 	O 	0.62460 0.36480 0.32577 -0.43000
O 	O 	0.92610 0.37680 0.03561 -0.39100
O 	O 	0.95190 0.29540 0.03617 -0.40100
O 	O 	0.09030 0.29720 0.16668 -0.41100
O 	O 	0.06240 0.24220 0.12828 -0.43400
N 	N 	0.76010 0.41620 0.14340 -0.08900
N 	N 	0.74280 0.44290 0.17250 -0.18200
H 	H 	0.74220 0.47450 0.17530 0.13300
N 	N 	0.73460 0.36490 0.18310 -0.15900
N 	N 	0.00300 0.47520 0.16450 -0.17000
C 	C 	0.75100 0.36890 0.15340 0.14400
C 	C 	0.72760 0.40820 0.19460 0.15900
C 	C 	0.76420 0.32840 0.13220 -0.03300
C 	C 	0.78550 0.33400 0.09850 -0.00500
H 	H 	0.78630 0.36530 0.08840 0.06200
C 	C 	0.80550 0.29180 0.08030 -0.07200
C 	C 	0.79970 0.24540 0.09420 0.03300
H 	H 	0.81120 0.21830 0.08190 0.05400
C 	C 	0.77820 0.23700 0.12460 -0.08800
C 	C 	0.75930 0.27990 0.14390 0.00200
H 	H 	0.74340 0.27440 0.16460 0.05900
C 	C 	0.83580 0.30200 0.04690 0.36900
C 	C 	0.77720 0.18550 0.13940 0.37900
C 	C 	0.71080 0.42490 0.22810 -0.05000
C 	C 	0.71770 0.47190 0.24400 -0.00200
H 	H 	0.73540 0.49690 0.23310 0.04800
C 	C 	0.69830 0.47960 0.27530 -0.05900
C 	C 	0.67260 0.44050 0.29280 0.01600
H 	H 	0.65920 0.44600 0.31440 0.05900
C 	C 	0.66780 0.39490 0.27750 -0.08700
C 	C 	0.68800 0.38910 0.24560 0.01400
H 	H 	0.68570 0.35800 0.23540 0.05300
C 	C 	0.70650 0.53110 0.29490 0.34000
C 	C 	0.64320 0.35400 0.29870 0.39300
C 	C 	0.00380 0.46100 0.13240 0.14800
C 	C 	0.00640 0.41160 0.12000 -0.04800
C 	C 	0.98430 0.40070 0.09150 0.00500
H 	H 	0.96830 0.42610 0.07970 0.05600
C 	C 	0.98300 0.35280 0.07720 -0.07900
C 	C 	0.01140 0.31660 0.09280 0.02800
H 	H 	0.01310 0.28540 0.08280 0.05500
C 	C 	0.03810 0.32510 0.12370 -0.08600
C 	C 	0.03430 0.37630 0.13680 0.00700
H 	H 	0.05100 0.38490 0.15670 0.04500
C 	C 	0.95120 0.33910 0.04670 0.33100
C 	C 	0.06610 0.28320 0.14060 0.38300
H 	H 	0.00560 0.45640 0.18210 0.12300
Cu	Cu	0.24823 0.87757 0.19589 0.90900
Cu	Cu	0.18512 0.90831 0.14767 0.91700
O 	O 	0.16830 0.65360 0.03565 -0.40800
O 	O 	0.14200 0.73290 0.03554 -0.42800
O 	O 	0.24890 0.81752 0.16689 -0.40300
O 	O 	0.19970 0.84570 0.12483 -0.42300
O 	O 	0.26380 0.43920 0.28135 -0.40500
O 	O 	0.31970 0.46440 0.32146 -0.40100
O 	O 	0.35410 0.68710 0.28407 -0.42200
O 	O 	0.37540 0.63520 0.32577 -0.43100
O 	O 	0.07390 0.62320 0.03561 -0.39200
O 	O 	0.04810 0.70460 0.03617 -0.40000
O 	O 	0.90970 0.70280 0.16668 -0.41200
O 	O 	0.93760 0.75780 0.12828 -0.43600
N 	N 	0.23990 0.58380 0.14340 -0.09000
N 	N 	0.25720 0.55710 0.17250 -0.18300
H 	H 	0.25780 0.52550 0.17530 0.13300
N 	N 	0.26540 0.63510 0.18310 -0.16000
N 	N 	0.99700 0.52480 0.16450 -0.17400
C 	C 	0.24900 0.63110 0.15340 0.14300
C 	C 	0.27240 0.59180 0.19460 0.15800
C 	C 	0.23580 0.67160 0.13220 -0.03300
C 	C 	0.21450 0.66600 0.09850 -0.00600
H 	H 	0.21370 0.63470 0.08840 0.06100
C 	C 	0.19450 0.70820 0.08030 -0.07300
C 	C 	0.20030 0.75460 0.09420 0.03200
H 	H 	0.18880 0.78170 0.08190 0.05300
C 	C 	0.22180 0.76300 0.12460 -0.08900
C 	C 	0.24070 0.72010 0.14390 0.00100
H 	H 	0.25660 0.72560 0.16460 0.05800
C 	C 	0.16420 0.69800 0.04690 0.36800
C 	C 	0.22280 0.81450 0.13940 0.37800
C 	C 	0.28920 0.57510 0.22810 -0.05000
C 	C 	0.28230 0.52810 0.24400 -0.00200
H 	H 	0.26460 0.50310 0.23310 0.04800
C 	C 	0.30170 0.52040 0.27530 -0.05900
C 	C 	0.32740 0.55950 0.29280 0.01600
H 	H 	0.34080 0.55400 0.31440 0.05900
C 	C 	0.33220 0.60510 0.27750 -0.08700
C 	C 	0.31200 0.61090 0.24560 0.01400
H 	H 	0.31430 0.64200 0.23540 0.05300
C 	C 	0.29350 0.46890 0.29490 0.34000
C 	C 	0.35680 0.64600 0.29870 0.39300
C 	C 	0.99620 0.53900 0.13240 0.14700
C 	C 	0.99360 0.58840 0.12000 -0.05800
C 	C 	0.01570 0.59930 0.09150 0.01600
H 	H 	0.03170 0.57390 0.07970 0.05500
C 	C 	0.01700 0.64720 0.07720 -0.07400
C 	C 	0.98860 0.68340 0.09280 0.02000
H 	H 	0.98690 0.71460 0.08280 0.05600
C 	C 	0.96190 0.67490 0.12370 -0.08700
C 	C 	0.96570 0.62370 0.13680 0.01000
H 	H 	0.94900 0.61510 0.15670 0.04300
C 	C 	0.04880 0.66090 0.04670 0.33100
C 	C 	0.93390 0.71680 0.14060 0.38300
H 	H 	0.99440 0.54360 0.18210 0.12200
Cu	Cu	0.87757 0.75177 0.19589 0.90900
Cu	Cu	0.90831 0.81488 0.14767 0.91700
O 	O 	0.65360 0.83170 0.03565 -0.40800
O 	O 	0.73290 0.85800 0.03554 -0.42900
O 	O 	0.81752 0.75110 0.16689 -0.40300
O 	O 	0.84570 0.80030 0.12483 -0.42300
O 	O 	0.43920 0.73620 0.28135 -0.40600
O 	O 	0.46440 0.68030 0.32146 -0.40100
O 	O 	0.68710 0.64590 0.28407 -0.42200
O 	O 	0.63520 0.62460 0.32577 -0.43100
O 	O 	0.62320 0.92610 0.03561 -0.39200
O 	O 	0.70460 0.95190 0.03617 -0.40200
O 	O 	0.70280 0.09030 0.16668 -0.41200
O 	O 	0.75780 0.06240 0.12828 -0.43500
N 	N 	0.58380 0.76010 0.14340 -0.09000
N 	N 	0.55710 0.74280 0.17250 -0.18300
H 	H 	0.52550 0.74220 0.17530 0.13200
N 	N 	0.63510 0.73460 0.18310 -0.16000
N 	N 	0.52480 0.00300 0.16450 -0.17100
C 	C 	0.63110 0.75100 0.15340 0.14300
C 	C 	0.59180 0.72760 0.19460 0.15800
C 	C 	0.67160 0.76420 0.13220 -0.03400
C 	C 	0.66600 0.78550 0.09850 -0.00600
H 	H 	0.63470 0.78630 0.08840 0.06100
C 	C 	0.70820 0.80550 0.08030 -0.07400
C 	C 	0.75460 0.79970 0.09420 0.03200
H 	H 	0.78170 0.81120 0.08190 0.05300
C 	C 	0.76300 0.77820 0.12460 -0.08900
C 	C 	0.72010 0.75930 0.14390 0.00100
H 	H 	0.72560 0.74340 0.16460 0.05700
C 	C 	0.69800 0.83580 0.04690 0.36800
C 	C 	0.81450 0.77720 0.13940 0.37800
C 	C 	0.57510 0.71080 0.22810 -0.05000
C 	C 	0.52810 0.71770 0.24400 -0.00200
H 	H 	0.50310 0.73540 0.23310 0.04800
C 	C 	0.52040 0.69830 0.27530 -0.05900
C 	C 	0.55950 0.67260 0.29280 0.01600
H 	H 	0.55400 0.65920 0.31440 0.05900
C 	C 	0.60510 0.66780 0.27750 -0.08700
C 	C 	0.61090 0.68800 0.24560 0.01400
H 	H 	0.64200 0.68570 0.23540 0.05300
C 	C 	0.46890 0.70650 0.29490 0.34000
C 	C 	0.64600 0.64320 0.29870 0.39300
C 	C 	0.53900 0.00380 0.13240 0.14800
C 	C 	0.58840 0.00640 0.12000 -0.04800
C 	C 	0.59930 0.98430 0.09150 0.00600
H 	H 	0.57390 0.96830 0.07970 0.05600
C 	C 	0.64720 0.98300 0.07720 -0.07900
C 	C 	0.68340 0.01140 0.09280 0.02800
H 	H 	0.71460 0.01310 0.08280 0.05500
C 	C 	0.67490 0.03810 0.12370 -0.08600
C 	C 	0.62370 0.03430 0.13680 0.00700
H 	H 	0.61510 0.05100 0.15670 0.04500
C 	C 	0.66090 0.95120 0.04670 0.33200
C 	C 	0.71680 0.06610 0.14060 0.38300
H 	H 	0.54360 0.00560 0.18210 0.12300
Cu	Cu	0.12243 0.24823 0.19589 0.90900
Cu	Cu	0.09169 0.18512 0.14767 0.91700
O 	O 	0.34640 0.16830 0.03565 -0.40800
O 	O 	0.26710 0.14200 0.03554 -0.42800
O 	O 	0.18248 0.24890 0.16689 -0.40300
O 	O 	0.15430 0.19970 0.12483 -0.42200
O 	O 	0.56080 0.26380 0.28135 -0.40500
O 	O 	0.53560 0.31970 0.32146 -0.40100
O 	O 	0.31290 0.35410 0.28407 -0.42200
O 	O 	0.36480 0.37540 0.32577 -0.43100
O 	O 	0.37680 0.07390 0.03561 -0.39200
O 	O 	0.29540 0.04810 0.03617 -0.40000
O 	O 	0.29720 0.90970 0.16668 -0.41200
O 	O 	0.24220 0.93760 0.12828 -0.43600
N 	N 	0.41620 0.23990 0.14340 -0.09000
N 	N 	0.44290 0.25720 0.17250 -0.18300
H 	H 	0.47450 0.25780 0.17530 0.13300
N 	N 	0.36490 0.26540 0.18310 -0.16000
N 	N 	0.47520 0.99700 0.16450 -0.17400
C 	C 	0.36890 0.24900 0.15340 0.14300
C 	C 	0.40820 0.27240 0.19460 0.15800
C 	C 	0.32840 0.23580 0.13220 -0.03300
C 	C 	0.33400 0.21450 0.09850 -0.00600
H 	H 	0.36530 0.21370 0.08840 0.06100
C 	C 	0.29180 0.19450 0.08030 -0.07300
C 	C 	0.24540 0.20030 0.09420 0.03200
H 	H 	0.21830 0.18880 0.08190 0.05300
C 	C 	0.23700 0.22180 0.12460 -0.08800
C 	C 	0.27990 0.24070 0.14390 0.00100
H 	H 	0.27440 0.25660 0.16460 0.05800
C 	C 	0.30200 0.16420 0.04690 0.36800
C 	C 	0.18550 0.22280 0.13940 0.37800
C 	C 	0.42490 0.28920 0.22810 -0.05000
C 	C 	0.47190 0.28230 0.24400 -0.00200
H 	H 	0.49690 0.26460 0.23310 0.04800
C 	C 	0.47960 0.30170 0.27530 -0.05900
C 	C 	0.44050 0.32740 0.29280 0.01600
H 	H 	0.44600 0.34080 0.31440 0.05900
C 	C 	0.39490 0.33220 0.27750 -0.08700
C 	C 	0.38910 0.31200 0.24560 0.01400
H 	H 	0.35800 0.31430 0.23540 0.05300
C 	C 	0.53110 0.29350 0.29490 0.34000
C 	C 	0.35400 0.35680 0.29870 0.39300
C 	C 	0.46100 0.99620 0.13240 0.14700
C 	C 	0.41160 0.99360 0.12000 -0.05800
C 	C 	0.40070 0.01570 0.09150 0.01600
H 	H 	0.42610 0.03170 0.07970 0.05500
C 	C 	0.35280 0.01700 0.07720 -0.07400
C 	C 	0.31660 0.98860 0.09280 0.02000
H 	H 	0.28540 0.98690 0.08280 0.05600
C 	C 	0.32510 0.96190 0.12370 -0.08600
C 	C 	0.37630 0.96570 0.13680 0.01000
H 	H 	0.38490 0.94900 0.15670 0.04300
C 	C 	0.33910 0.04880 0.04670 0.33100
C 	C 	0.28320 0.93390 0.14060 0.38300
H 	H 	0.45640 0.99440 0.18210 0.12200
Cu	Cu	0.74823 0.62243 0.30411 0.90900
Cu	Cu	0.68512 0.59169 0.35233 0.91700
O 	O 	0.66830 0.84640 0.46435 -0.40500
O 	O 	0.64200 0.76710 0.46446 -0.42500
O 	O 	0.74890 0.68248 0.33311 -0.40300
O 	O 	0.69970 0.65430 0.37517 -0.42200
O 	O 	0.76380 0.06080 0.21865 -0.40500
O 	O 	0.81970 0.03560 0.17854 -0.40100
O 	O 	0.85410 0.81290 0.21593 -0.42200
O 	O 	0.87540 0.86480 0.17423 -0.43200
O 	O 	0.57390 0.87680 0.46439 -0.38900
O 	O 	0.54810 0.79540 0.46383 -0.39800
O 	O 	0.40970 0.79720 0.33332 -0.41200
O 	O 	0.43760 0.74220 0.37172 -0.43400
N 	N 	0.73990 0.91620 0.35660 -0.09000
N 	N 	0.75720 0.94290 0.32750 -0.18300
H 	H 	0.75780 0.97450 0.32470 0.13200
N 	N 	0.76540 0.86490 0.31690 -0.16000
N 	N 	0.49700 0.97520 0.33550 -0.17400
C 	C 	0.74900 0.86890 0.34660 0.14300
C 	C 	0.77240 0.90820 0.30540 0.15800
C 	C 	0.73580 0.82840 0.36780 -0.03300
C 	C 	0.71450 0.83400 0.40150 -0.00700
H 	H 	0.71370 0.86530 0.41160 0.06200
C 	C 	0.69450 0.79180 0.41970 -0.07200
C 	C 	0.70030 0.74540 0.40580 0.03100
H 	H 	0.68880 0.71830 0.41810 0.05400
C 	C 	0.72180 0.73700 0.37540 -0.08800
C 	C 	0.74070 0.77990 0.35610 0.00100
H 	H 	0.75660 0.77440 0.33540 0.05800
C 	C 	0.66420 0.80200 0.45310 0.36800
C 	C 	0.72280 0.68550 0.36060 0.37700
C 	C 	0.78920 0.92490 0.27190 -0.05200
C 	C 	0.78230 0.97190 0.25600 0.00100
H 	H 	0.76460 0.99690 0.26690 0.04600
C 	C 	0.80170 0.97960 0.22470 -0.06400
C 	C 	0.82740 0.94050 0.20720 0.01800
H 	H 	0.84080 0.94600 0.18560 0.05700
C 	C 	0.83220 0.89490 0.22250 -0.08900
C 	C 	0.81200 0.88910 0.25440 0.01600
H 	H 	0.81430 0.85800 0.26460 0.05200
C 	C 	0.79350 0.03110 0.20510 0.34300
C 	C 	0.85680 0.85400 0.20130 0.39400
C 	C 	0.49620 0.96100 0.36760 0.14600
C 	C 	0.49360 0.91160 0.38000 -0.05200
C 	C 	0.51570 0.90070 0.40850 0.00900
H 	H 	0.53170 0.92610 0.42030 0.05600
C 	C 	0.51700 0.85280 0.42280 -0.07400
C 	C 	0.48860 0.81660 0.40720 0.02300
H 	H 	0.48690 0.78540 0.41720 0.05700
C 	C 	0.46190 0.82510 0.37630 -0.08500
C 	C 	0.46570 0.87630 0.36320 0.00800
H 	H 	0.44900 0.88490 0.34330 0.04400
C 	C 	0.54880 0.83910 0.45330 0.33100
C 	C 	0.43390 0.78320 0.35940 0.38300
H 	H 	0.49440 0.95640 0.31790 0.12200
Cu	Cu	0.25177 0.37757 0.30411 0.90900
Cu	Cu	0.31488 0.40831 0.35233 0.91700
O 	O 	0.33170 0.15360 0.46435 -0.40400
O 	O 	0.35800 0.23290 0.46446 -0.42500
O 	O 	0.25110 0.31752 0.33311 -0.40200
O 	O 	0.30030 0.34570 0.37517 -0.42200
O 	O 	0.23620 0.93920 0.21865 -0.40500
O 	O 	0.18030 0.96440 0.17854 -0.40100
O 	O 	0.14590 0.18710 0.21593 -0.42100
O 	O 	0.12460 0.13520 0.17423 -0.43000
O 	O 	0.42610 0.12320 0.46439 -0.38800
O 	O 	0.45190 0.20460 0.46383 -0.39800
O 	O 	0.59030 0.20280 0.33332 -0.41100
O 	O 	0.56240 0.25780 0.37172 -0.43400
N 	N 	0.26010 0.08380 0.35660 -0.08900
N 	N 	0.24280 0.05710 0.32750 -0.18200
H 	H 	0.24220 0.02550 0.32470 0.13400
N 	N 	0.23460 0.13510 0.31690 -0.16000
N 	N 	0.50300 0.02480 0.33550 -0.17200
C 	C 	0.25100 0.13110 0.34660 0.14300
C 	C 	0.22760 0.09180 0.30540 0.15800
C 	C 	0.26420 0.17160 0.36780 -0.03200
C 	C 	0.28550 0.16600 0.40150 -0.00700
H 	H 	0.28630 0.13470 0.41160 0.06200
C 	C 	0.30550 0.20820 0.41970 -0.07100
C 	C 	0.29970 0.25460 0.40580 0.03100
H 	H 	0.31120 0.28170 0.41810 0.05500
C 	C 	0.27820 0.26300 0.37540 -0.08700
C 	C 	0.25930 0.22010 0.35610 0.00100
H 	H 	0.24340 0.22560 0.33540 0.05800
C 	C 	0.33580 0.19800 0.45310 0.36800
C 	C 	0.27720 0.31450 0.36060 0.37700
C 	C 	0.21080 0.07510 0.27190 -0.04800
C 	C 	0.21770 0.02810 0.25600 -0.00400
H 	H 	0.23540 0.00310 0.26690 0.05000
C 	C 	0.19830 0.02040 0.22470 -0.05500
C 	C 	0.17260 0.05950 0.20720 0.01400
H 	H 	0.15920 0.05400 0.18560 0.06100
C 	C 	0.16780 0.10510 0.22250 -0.08500
C 	C 	0.18800 0.11090 0.25440 0.01300
H 	H 	0.18570 0.14200 0.26460 0.05400
C 	C 	0.20650 0.96890 0.20510 0.33700
C 	C 	0.14320 0.14600 0.20130 0.39300
C 	C 	0.50380 0.03900 0.36760 0.15000
C 	C 	0.50640 0.08840 0.38000 -0.05200
C 	C 	0.48430 0.09930 0.40850 0.01000
H 	H 	0.46830 0.07390 0.42030 0.05700
C 	C 	0.48300 0.14720 0.42280 -0.07400
C 	C 	0.51140 0.18340 0.40720 0.02300
H 	H 	0.51310 0.21460 0.41720 0.05700
C 	C 	0.53810 0.17490 0.37630 -0.08500
C 	C 	0.53430 0.12370 0.36320 0.00800
H 	H 	0.55100 0.11510 0.34330 0.04500
C 	C 	0.45120 0.16090 0.45330 0.33100
C 	C 	0.56610 0.21680 0.35940 0.38300
H 	H 	0.50560 0.04360 0.31790 0.12300
Cu	Cu	0.62243 0.25177 0.30411 0.90900
Cu	Cu	0.59169 0.31488 0.35233 0.91700
O 	O 	0.84640 0.33170 0.46435 -0.40500
O 	O 	0.76710 0.35800 0.46446 -0.42500
O 	O 	0.68248 0.25110 0.33311 -0.40200
O 	O 	0.65430 0.30030 0.37517 -0.42200
O 	O 	0.06080 0.23620 0.21865 -0.40500
O 	O 	0.03560 0.18030 0.17854 -0.40000
O 	O 	0.81290 0.14590 0.21593 -0.42200
O 	O 	0.86480 0.12460 0.17423 -0.43100
O 	O 	0.87680 0.42610 0.46439 -0.38900
O 	O 	0.79540 0.45190 0.46383 -0.39800
O 	O 	0.79720 0.59030 0.33332 -0.41200
O 	O 	0.74220 0.56240 0.37172 -0.43400
N 	N 	0.91620 0.26010 0.35660 -0.09000
N 	N 	0.94290 0.24280 0.32750 -0.18300
H 	H 	0.97450 0.24220 0.32470 0.13200
N 	N 	0.86490 0.23460 0.31690 -0.16000
N 	N 	0.97520 0.50300 0.33550 -0.17400
C 	C 	0.86890 0.25100 0.34660 0.14300
C 	C 	0.90820 0.22760 0.30540 0.15800
C 	C 	0.82840 0.26420 0.36780 -0.03300
C 	C 	0.83400 0.28550 0.40150 -0.00700
H 	H 	0.86530 0.28630 0.41160 0.06200
C 	C 	0.79180 0.30550 0.41970 -0.07100
C 	C 	0.74540 0.29970 0.40580 0.03100
H 	H 	0.71830 0.31120 0.41810 0.05500
C 	C 	0.73700 0.27820 0.37540 -0.08700
C 	C 	0.77990 0.25930 0.35610 0.00100
H 	H 	0.77440 0.24340 0.33540 0.05800
C 	C 	0.80200 0.33580 0.45310 0.36800
C 	C 	0.68550 0.27720 0.36060 0.37700
C 	C 	0.92490 0.21080 0.27190 -0.05100
C 	C 	0.97190 0.21770 0.25600 0.00100
H 	H 	0.99690 0.23540 0.26690 0.04600
C 	C 	0.97960 0.19830 0.22470 -0.06300
C 	C 	0.94050 0.17260 0.20720 0.01800
H 	H 	0.94600 0.15920 0.18560 0.05800
C 	C 	0.89490 0.16780 0.22250 -0.08800
C 	C 	0.88910 0.18800 0.25440 0.01600
H 	H 	0.85800 0.18570 0.26460 0.05300
C 	C 	0.03110 0.20650 0.20510 0.34300
C 	C 	0.85400 0.14320 0.20130 0.39300
C 	C 	0.96100 0.50380 0.36760 0.14600
C 	C 	0.91160 0.50640 0.38000 -0.05200
C 	C 	0.90070 0.48430 0.40850 0.00900
H 	H 	0.92610 0.46830 0.42030 0.05600
C 	C 	0.85280 0.48300 0.42280 -0.07400
C 	C 	0.81660 0.51140 0.40720 0.02300
H 	H 	0.78540 0.51310 0.41720 0.05700
C 	C 	0.82510 0.53810 0.37630 -0.08500
C 	C 	0.87630 0.53430 0.36320 0.00800
H 	H 	0.88490 0.55100 0.34330 0.04400
C 	C 	0.83910 0.45120 0.45330 0.33100
C 	C 	0.78320 0.56610 0.35940 0.38300
H 	H 	0.95640 0.50560 0.31790 0.12200
Cu	Cu	0.37757 0.74823 0.30411 0.90900
Cu	Cu	0.40831 0.68512 0.35233 0.91700
O 	O 	0.15360 0.66830 0.46435 -0.40400
O 	O 	0.23290 0.64200 0.46446 -0.42500
O 	O 	0.31752 0.74890 0.33311 -0.40300
O 	O 	0.34570 0.69970 0.37517 -0.42200
O 	O 	0.93920 0.76380 0.21865 -0.40600
O 	O 	0.96440 0.81970 0.17854 -0.40100
O 	O 	0.18710 0.85410 0.21593 -0.42200
O 	O 	0.13520 0.87540 0.17423 -0.43100
O 	O 	0.12320 0.57390 0.46439 -0.38800
O 	O 	0.20460 0.54810 0.46383 -0.39800
O 	O 	0.20280 0.40970 0.33332 -0.41100
O 	O 	0.25780 0.43760 0.37172 -0.43400
N 	N 	0.08380 0.73990 0.35660 -0.08900
N 	N 	0.05710 0.75720 0.32750 -0.18200
H 	H 	0.02550 0.75780 0.32470 0.13300
N 	N 	0.13510 0.76540 0.31690 -0.16000
N 	N 	0.02480 0.49700 0.33550 -0.17200
C 	C 	0.13110 0.74900 0.34660 0.14300
C 	C 	0.09180 0.77240 0.30540 0.15800
C 	C 	0.17160 0.73580 0.36780 -0.03300
C 	C 	0.16600 0.71450 0.40150 -0.00700
H 	H 	0.13470 0.71370 0.41160 0.06200
C 	C 	0.20820 0.69450 0.41970 -0.07100
C 	C 	0.25460 0.70030 0.40580 0.03100
H 	H 	0.28170 0.68880 0.41810 0.05500
C 	C 	0.26300 0.72180 0.37540 -0.08700
C 	C 	0.22010 0.74070 0.35610 0.00100
H 	H 	0.22560 0.75660 0.33540 0.05800
C 	C 	0.19800 0.66420 0.45310 0.36800
C 	C 	0.31450 0.72280 0.36060 0.37700
C 	C 	0.07510 0.78920 0.27190 -0.04900
C 	C 	0.02810 0.78230 0.25600 -0.00400
H 	H 	0.00310 0.76460 0.26690 0.05000
C 	C 	0.02040 0.80170 0.22470 -0.05500
C 	C 	0.05950 0.82740 0.20720 0.01400
H 	H 	0.05400 0.84080 0.18560 0.06000
C 	C 	0.10510 0.83220 0.22250 -0.08600
C 	C 	0.11090 0.81200 0.25440 0.01300
H 	H 	0.14200 0.81430 0.26460 0.05300
C 	C 	0.96890 0.79350 0.20510 0.33700
C 	C 	0.14600 0.85680 0.20130 0.39300
C 	C 	0.03900 0.49620 0.36760 0.15000
C 	C 	0.08840 0.49360 0.38000 -0.05200
C 	C 	0.09930 0.51570 0.40850 0.01000
H 	H 	0.07390 0.53170 0.42030 0.05700
C 	C 	0.14720 0.51700 0.42280 -0.07400
C 	C 	0.18340 0.48860 0.40720 0.02300
H 	H 	0.21460 0.48690 0.41720 0.05700
C 	C 	0.17490 0.46190 0.37630 -0.08500
C 	C 	0.12370 0.46570 0.36320 0.00800
H 	H 	0.11510 0.44900 0.34330 0.04500
C 	C 	0.16090 0.54880 0.45330 0.33100
C 	C 	0.21680 0.43390 0.35940 0.38300
H 	H 	0.04360 0.49440 0.31790 0.12300
Cu	Cu	0.24823 0.87757 0.80411 0.90900
Cu	Cu	0.18512 0.90831 0.85233 0.91800
O 	O 	0.16830 0.65360 0.96435 -0.39800
O 	O 	0.14200 0.73290 0.96446 -0.41800
O 	O 	0.24890 0.81752 0.83311 -0.40200
O 	O 	0.19970 0.84570 0.87517 -0.42100
O 	O 	0.26380 0.43920 0.71865 -0.40500
O 	O 	0.31970 0.46440 0.67854 -0.40100
O 	O 	0.35410 0.68710 0.71593 -0.42200
O 	O 	0.37540 0.63520 0.67423 -0.43100
O 	O 	0.07390 0.62320 0.96439 -0.38200
O 	O 	0.04810 0.70460 0.96383 -0.39100
O 	O 	0.90970 0.70280 0.83332 -0.41200
O 	O 	0.93760 0.75780 0.87172 -0.43400
N 	N 	0.23990 0.58380 0.85660 -0.08900
N 	N 	0.25720 0.55710 0.82750 -0.18200
H 	H 	0.25780 0.52550 0.82470 0.13400
N 	N 	0.26540 0.63510 0.81690 -0.16000
N 	N 	0.99700 0.52480 0.83550 -0.17400
C 	C 	0.24900 0.63110 0.84660 0.14300
C 	C 	0.27240 0.59180 0.80540 0.15800
C 	C 	0.23580 0.67160 0.86780 -0.03100
C 	C 	0.21450 0.66600 0.90150 -0.00700
H 	H 	0.21370 0.63470 0.91160 0.06300
C 	C 	0.19450 0.70820 0.91970 -0.06900
C 	C 	0.20030 0.75460 0.90580 0.03000
H 	H 	0.18880 0.78170 0.91810 0.05600
C 	C 	0.22180 0.76300 0.87540 -0.08600
C 	C 	0.24070 0.72010 0.85610 0.00000
H 	H 	0.25660 0.72560 0.83540 0.05800
C 	C 	0.16420 0.69800 0.95310 0.36600
C 	C 	0.22280 0.81450 0.86060 0.37700
C 	C 	0.28920 0.57510 0.77190 -0.05000
C 	C 	0.28230 0.52810 0.75600 -0.00200
H 	H 	0.26460 0.50310 0.76690 0.04800
C 	C 	0.30170 0.52040 0.72470 -0.05900
C 	C 	0.32740 0.55950 0.70720 0.01600
H 	H 	0.34080 0.55400 0.68560 0.06000
C 	C 	0.33220 0.60510 0.72250 -0.08700
C 	C 	0.31200 0.61090 0.75440 0.01400
H 	H 	0.31430 0.64200 0.76460 0.05300
C 	C 	0.29350 0.46890 0.70510 0.34000
C 	C 	0.35680 0.64600 0.70130 0.39300
C 	C 	0.99620 0.53900 0.86760 0.14700
C 	C 	0.99360 0.58840 0.88000 -0.05500
C 	C 	0.01570 0.59930 0.90850 0.01400
H 	H 	0.03170 0.57390 0.92030 0.05800
C 	C 	0.01700 0.64720 0.92280 -0.06900
C 	C 	0.98860 0.68340 0.90720 0.01800
H 	H 	0.98690 0.71460 0.91720 0.05800
C 	C 	0.96190 0.67490 0.87630 -0.08400
C 	C 	0.96570 0.62370 0.86320 0.00900
H 	H 	0.94900 0.61510 0.84330 0.04400
C 	C 	0.04880 0.66090 0.95330 0.33000
C 	C 	0.93390 0.71680 0.85940 0.38200
H 	H 	0.99440 0.54360 0.81790 0.12200
Cu	Cu	0.75177 0.12243 0.80411 0.90900
Cu	Cu	0.81488 0.09169 0.85233 0.91800
O 	O 	0.83170 0.34640 0.96435 -0.39800
O 	O 	0.85800 0.26710 0.96446 -0.41900
O 	O 	0.75110 0.18248 0.83311 -0.40200
O 	O 	0.80030 0.15430 0.87517 -0.42100
O 	O 	0.73620 0.56080 0.71865 -0.40500
O 	O 	0.68030 0.53560 0.67854 -0.40100
O 	O 	0.64590 0.31290 0.71593 -0.42200
O 	O 	0.62460 0.36480 0.67423 -0.43100
O 	O 	0.92610 0.37680 0.96439 -0.38300
O 	O 	0.95190 0.29540 0.96383 -0.39300
O 	O 	0.09030 0.29720 0.83332 -0.41100
O 	O 	0.06240 0.24220 0.87172 -0.43300
N 	N 	0.76010 0.41620 0.85660 -0.08900
N 	N 	0.74280 0.44290 0.82750 -0.18300
H 	H 	0.74220 0.47450 0.82470 0.13300
N 	N 	0.73460 0.36490 0.81690 -0.16000
N 	N 	0.00300 0.47520 0.83550 -0.17100
C 	C 	0.75100 0.36890 0.84660 0.14300
C 	C 	0.72760 0.40820 0.80540 0.15800
C 	C 	0.76420 0.32840 0.86780 -0.03200
C 	C 	0.78550 0.33400 0.90150 -0.00800
H 	H 	0.78630 0.36530 0.91160 0.06300
C 	C 	0.80550 0.29180 0.91970 -0.06900
C 	C 	0.79970 0.24540 0.90580 0.03000
H 	H 	0.81120 0.21830 0.91810 0.05600
C 	C 	0.77820 0.23700 0.87540 -0.08600
C 	C 	0.75930 0.27990 0.85610 0.00000
H 	H 	0.74340 0.27440 0.83540 0.05800
C 	C 	0.83580 0.30200 0.95310 0.36600
C 	C 	0.77720 0.18550 0.86060 0.37700
C 	C 	0.71080 0.42490 0.77190 -0.05000
C 	C 	0.71770 0.47190 0.75600 -0.00200
H 	H 	0.73540 0.49690 0.76690 0.04800
C 	C 	0.69830 0.47960 0.72470 -0.05900
C 	C 	0.67260 0.44050 0.70720 0.01600
H 	H 	0.65920 0.44600 0.68560 0.05900
C 	C 	0.66780 0.39490 0.72250 -0.08700
C 	C 	0.68800 0.38910 0.75440 0.01400
H 	H 	0.68570 0.35800 0.76460 0.05300
C 	C 	0.70650 0.53110 0.70510 0.34000
C 	C 	0.64320 0.35400 0.70130 0.39300
C 	C 	0.00380 0.46100 0.86760 0.14800
C 	C 	0.00640 0.41160 0.88000 -0.04600
C 	C 	0.98430 0.40070 0.90850 0.00300
H 	H 	0.96830 0.42610 0.92030 0.05900
C 	C 	0.98300 0.35280 0.92280 -0.07400
C 	C 	0.01140 0.31660 0.90720 0.02600
H 	H 	0.01310 0.28540 0.91720 0.05800
C 	C 	0.03810 0.32510 0.87630 -0.08400
C 	C 	0.03430 0.37630 0.86320 0.00600
H 	H 	0.05100 0.38490 0.84330 0.04600
C 	C 	0.95120 0.33910 0.95330 0.33000
C 	C 	0.06610 0.28320 0.85940 0.38200
H 	H 	0.00560 0.45640 0.81790 0.12300
Cu	Cu	0.12243 0.24823 0.80411 0.90900
Cu	Cu	0.09169 0.18512 0.85233 0.91800
O 	O 	0.34640 0.16830 0.96435 -0.39800
O 	O 	0.26710 0.14200 0.96446 -0.41800
O 	O 	0.18248 0.24890 0.83311 -0.40200
O 	O 	0.15430 0.19970 0.87517 -0.42000
O 	O 	0.56080 0.26380 0.71865 -0.40500
O 	O 	0.53560 0.31970 0.67854 -0.40100
O 	O 	0.31290 0.35410 0.71593 -0.42200
O 	O 	0.36480 0.37540 0.67423 -0.43100
O 	O 	0.37680 0.07390 0.96439 -0.38200
O 	O 	0.29540 0.04810 0.96383 -0.39100
O 	O 	0.29720 0.90970 0.83332 -0.41200
O 	O 	0.24220 0.93760 0.87172 -0.43400
N 	N 	0.41620 0.23990 0.85660 -0.08900
N 	N 	0.44290 0.25720 0.82750 -0.18200
H 	H 	0.47450 0.25780 0.82470 0.13400
N 	N 	0.36490 0.26540 0.81690 -0.16000
N 	N 	0.47520 0.99700 0.83550 -0.17400
C 	C 	0.36890 0.24900 0.84660 0.14300
C 	C 	0.40820 0.27240 0.80540 0.15800
C 	C 	0.32840 0.23580 0.86780 -0.03100
C 	C 	0.33400 0.21450 0.90150 -0.00800
H 	H 	0.36530 0.21370 0.91160 0.06300
C 	C 	0.29180 0.19450 0.91970 -0.06900
C 	C 	0.24540 0.20030 0.90580 0.03000
H 	H 	0.21830 0.18880 0.91810 0.05700
C 	C 	0.23700 0.22180 0.87540 -0.08600
C 	C 	0.27990 0.24070 0.85610 0.00000
H 	H 	0.27440 0.25660 0.83540 0.05800
C 	C 	0.30200 0.16420 0.95310 0.36600
C 	C 	0.18550 0.22280 0.86060 0.37700
C 	C 	0.42490 0.28920 0.77190 -0.05000
C 	C 	0.47190 0.28230 0.75600 -0.00200
H 	H 	0.49690 0.26460 0.76690 0.04800
C 	C 	0.47960 0.30170 0.72470 -0.05900
C 	C 	0.44050 0.32740 0.70720 0.01600
H 	H 	0.44600 0.34080 0.68560 0.06000
C 	C 	0.39490 0.33220 0.72250 -0.08700
C 	C 	0.38910 0.31200 0.75440 0.01400
H 	H 	0.35800 0.31430 0.76460 0.05300
C 	C 	0.53110 0.29350 0.70510 0.34000
C 	C 	0.35400 0.35680 0.70130 0.39300
C 	C 	0.46100 0.99620 0.86760 0.14700
C 	C 	0.41160 0.99360 0.88000 -0.05500
C 	C 	0.40070 0.01570 0.90850 0.01400
H 	H 	0.42610 0.03170 0.92030 0.05800
C 	C 	0.35280 0.01700 0.92280 -0.06900
C 	C 	0.31660 0.98860 0.90720 0.01800
H 	H 	0.28540 0.98690 0.91720 0.05900
C 	C 	0.32510 0.96190 0.87630 -0.08400
C 	C 	0.37630 0.96570 0.86320 0.00800
H 	H 	0.38490 0.94900 0.84330 0.04400
C 	C 	0.33910 0.04880 0.95330 0.33000
C 	C 	0.28320 0.93390 0.85940 0.38200
H 	H 	0.45640 0.99440 0.81790 0.12200
Cu	Cu	0.87757 0.75177 0.80411 0.90900
Cu	Cu	0.90831 0.81488 0.85233 0.91700
O 	O 	0.65360 0.83170 0.96435 -0.39800
O 	O 	0.73290 0.85800 0.96446 -0.41900
O 	O 	0.81752 0.75110 0.83311 -0.40200
O 	O 	0.84570 0.80030 0.87517 -0.42100
O 	O 	0.43920 0.73620 0.71865 -0.40500
O 	O 	0.46440 0.68030 0.67854 -0.40100
O 	O 	0.68710 0.64590 0.71593 -0.42200
O 	O 	0.63520 0.62460 0.67423 -0.43100
O 	O 	0.62320 0.92610 0.96439 -0.38300
O 	O 	0.70460 0.95190 0.96383 -0.39300
O 	O 	0.70280 0.09030 0.83332 -0.41100
O 	O 	0.75780 0.06240 0.87172 -0.43300
N 	N 	0.58380 0.76010 0.85660 -0.08900
N 	N 	0.55710 0.74280 0.82750 -0.18300
H 	H 	0.52550 0.74220 0.82470 0.13300
N 	N 	0.63510 0.73460 0.81690 -0.16000
N 	N 	0.52480 0.00300 0.83550 -0.17100
C 	C 	0.63110 0.75100 0.84660 0.14300
C 	C 	0.59180 0.72760 0.80540 0.15800
C 	C 	0.67160 0.76420 0.86780 -0.03200
C 	C 	0.66600 0.78550 0.90150 -0.00700
H 	H 	0.63470 0.78630 0.91160 0.06300
C 	C 	0.70820 0.80550 0.91970 -0.06900
C 	C 	0.75460 0.79970 0.90580 0.03000
H 	H 	0.78170 0.81120 0.91810 0.05600
C 	C 	0.76300 0.77820 0.87540 -0.08600
C 	C 	0.72010 0.75930 0.85610 0.00000
H 	H 	0.72560 0.74340 0.83540 0.05800
C 	C 	0.69800 0.83580 0.95310 0.36700
C 	C 	0.81450 0.77720 0.86060 0.37700
C 	C 	0.57510 0.71080 0.77190 -0.05000
C 	C 	0.52810 0.71770 0.75600 -0.00200
H 	H 	0.50310 0.73540 0.76690 0.04800
C 	C 	0.52040 0.69830 0.72470 -0.05900
C 	C 	0.55950 0.67260 0.70720 0.01600
H 	H 	0.55400 0.65920 0.68560 0.05900
C 	C 	0.60510 0.66780 0.72250 -0.08700
C 	C 	0.61090 0.68800 0.75440 0.01400
H 	H 	0.64200 0.68570 0.76460 0.05300
C 	C 	0.46890 0.70650 0.70510 0.34000
C 	C 	0.64600 0.64320 0.70130 0.39300
C 	C 	0.53900 0.00380 0.86760 0.14800
C 	C 	0.58840 0.00640 0.88000 -0.04600
C 	C 	0.59930 0.98430 0.90850 0.00400
H 	H 	0.57390 0.96830 0.92030 0.05900
C 	C 	0.64720 0.98300 0.92280 -0.07400
C 	C 	0.68340 0.01140 0.90720 0.02600
H 	H 	0.71460 0.01310 0.91720 0.05800
C 	C 	0.67490 0.03810 0.87630 -0.08400
C 	C 	0.62370 0.03430 0.86320 0.00600
H 	H 	0.61510 0.05100 0.84330 0.04600
C 	C 	0.66090 0.95120 0.95330 0.33000
C 	C 	0.71680 0.06610 0.85940 0.38300
H 	H 	0.54360 0.00560 0.81790 0.12300
Cu	Cu	0.25177 0.37757 0.69589 0.90900
Cu	Cu	0.31488 0.40831 0.64767 0.91700
O 	O 	0.33170 0.15360 0.53565 -0.40400
O 	O 	0.35800 0.23290 0.53554 -0.42500
O 	O 	0.25110 0.31752 0.66689 -0.40200
O 	O 	0.30030 0.34570 0.62483 -0.42200
O 	O 	0.23620 0.93920 0.78135 -0.40500
O 	O 	0.18030 0.96440 0.82146 -0.40000
O 	O 	0.14590 0.18710 0.78407 -0.42100
O 	O 	0.12460 0.13520 0.82577 -0.42900
O 	O 	0.42610 0.12320 0.53561 -0.38800
O 	O 	0.45190 0.20460 0.53617 -0.39800
O 	O 	0.59030 0.20280 0.66668 -0.41100
O 	O 	0.56240 0.25780 0.62828 -0.43400
N 	N 	0.26010 0.08380 0.64340 -0.08900
N 	N 	0.24280 0.05710 0.67250 -0.18200
H 	H 	0.24220 0.02550 0.67530 0.13400
N 	N 	0.23460 0.13510 0.68310 -0.16000
N 	N 	0.50300 0.02480 0.66450 -0.17200
C 	C 	0.25100 0.13110 0.65340 0.14300
C 	C 	0.22760 0.09180 0.69460 0.15800
C 	C 	0.26420 0.17160 0.63220 -0.03200
C 	C 	0.28550 0.16600 0.59850 -0.00700
H 	H 	0.28630 0.13470 0.58840 0.06200
C 	C 	0.30550 0.20820 0.58030 -0.07100
C 	C 	0.29970 0.25460 0.59420 0.03100
H 	H 	0.31120 0.28170 0.58190 0.05500
C 	C 	0.27820 0.26300 0.62460 -0.08700
C 	C 	0.25930 0.22010 0.64390 0.00100
H 	H 	0.24340 0.22560 0.66460 0.05800
C 	C 	0.33580 0.19800 0.54690 0.36800
C 	C 	0.27720 0.31450 0.63940 0.37700
C 	C 	0.21080 0.07510 0.72810 -0.04800
C 	C 	0.21770 0.02810 0.74400 -0.00400
H 	H 	0.23540 0.00310 0.73310 0.05000
C 	C 	0.19830 0.02040 0.77530 -0.05400
C 	C 	0.17260 0.05950 0.79280 0.01400
H 	H 	0.15920 0.05400 0.81440 0.06100
C 	C 	0.16780 0.10510 0.77750 -0.08500
C 	C 	0.18800 0.11090 0.74560 0.01300
H 	H 	0.18570 0.14200 0.73540 0.05400
C 	C 	0.20650 0.96890 0.79490 0.33700
C 	C 	0.14320 0.14600 0.79870 0.39200
C 	C 	0.50380 0.03900 0.63240 0.15000
C 	C 	0.50640 0.08840 0.62000 -0.05200
C 	C 	0.48430 0.09930 0.59150 0.01000
H 	H 	0.46830 0.07390 0.57970 0.05700
C 	C 	0.48300 0.14720 0.57720 -0.07400
C 	C 	0.51140 0.18340 0.59280 0.02300
H 	H 	0.51310 0.21460 0.58280 0.05700
C 	C 	0.53810 0.17490 0.62370 -0.08500
C 	C 	0.53430 0.12370 0.63680 0.00800
H 	H 	0.55100 0.11510 0.65670 0.04500
C 	C 	0.45120 0.16090 0.54670 0.33100
C 	C 	0.56610 0.21680 0.64060 0.38300
H 	H 	0.50560 0.04360 0.68210 0.12300
Cu	Cu	0.74823 0.62243 0.69589 0.90900
Cu	Cu	0.68512 0.59169 0.64767 0.91700
O 	O 	0.66830 0.84640 0.53565 -0.40500
O 	O 	0.64200 0.76710 0.53554 -0.42500
O 	O 	0.74890 0.68248 0.66689 -0.40300
O 	O 	0.69970 0.65430 0.62483 -0.42200
O 	O 	0.76380 0.06080 0.78135 -0.40500
O 	O 	0.81970 0.03560 0.82146 -0.40000
O 	O 	0.85410 0.81290 0.78407 -0.42200
O 	O 	0.87540 0.86480 0.82577 -0.43100
O 	O 	0.57390 0.87680 0.53561 -0.38900
O 	O 	0.54810 0.79540 0.53617 -0.39800
O 	O 	0.40970 0.79720 0.66668 -0.41200
O 	O 	0.43760 0.74220 0.62828 -0.43400
N 	N 	0.73990 0.91620 0.64340 -0.09000
N 	N 	0.75720 0.94290 0.67250 -0.18300
H 	H 	0.75780 0.97450 0.67530 0.13200
N 	N 	0.76540 0.86490 0.68310 -0.16000
N 	N 	0.49700 0.97520 0.66450 -0.17400
C 	C 	0.74900 0.86890 0.65340 0.14300
C 	C 	0.77240 0.90820 0.69460 0.15800
C 	C 	0.73580 0.82840 0.63220 -0.03300
C 	C 	0.71450 0.83400 0.59850 -0.00700
H 	H 	0.71370 0.86530 0.58840 0.06100
C 	C 	0.69450 0.79180 0.58030 -0.07200
C 	C 	0.70030 0.74540 0.59420 0.03100
H 	H 	0.68880 0.71830 0.58190 0.05400
C 	C 	0.72180 0.73700 0.62460 -0.08800
C 	C 	0.74070 0.77990 0.64390 0.00100
H 	H 	0.75660 0.77440 0.66460 0.05800
C 	C 	0.66420 0.80200 0.54690 0.36800
C 	C 	0.72280 0.68550 0.63940 0.37700
C 	C 	0.78920 0.92490 0.72810 -0.05200
C 	C 	0.78230 0.97190 0.74400 0.00000
H 	H 	0.76460 0.99690 0.73310 0.04600
C 	C 	0.80170 0.97960 0.77530 -0.06300
C 	C 	0.82740 0.94050 0.79280 0.01800
H 	H 	0.84080 0.94600 0.81440 0.05800
C 	C 	0.83220 0.89490 0.77750 -0.08900
C 	C 	0.81200 0.88910 0.74560 0.01600
H 	H 	0.81430 0.85800 0.73540 0.05200
C 	C 	0.79350 0.03110 0.79490 0.34300
C 	C 	0.85680 0.85400 0.79870 0.39300
C 	C 	0.49620 0.96100 0.63240 0.14600
C 	C 	0.49360 0.91160 0.62000 -0.05200
C 	C 	0.51570 0.90070 0.59150 0.00900
H 	H 	0.53170 0.92610 0.57970 0.05600
C 	C 	0.51700 0.85280 0.57720 -0.07400
C 	C 	0.48860 0.81660 0.59280 0.02300
H 	H 	0.48690 0.78540 0.58280 0.05700
C 	C 	0.46190 0.82510 0.62370 -0.08500
C 	C 	0.46570 0.87630 0.63680 0.00800
H 	H 	0.44900 0.88490 0.65670 0.04400
C 	C 	0.54880 0.83910 0.54670 0.33100
C 	C 	0.43390 0.78320 0.64060 0.38300
H 	H 	0.49440 0.95640 0.68210 0.12200
Cu	Cu	0.37757 0.74823 0.69589 0.90900
Cu	Cu	0.40831 0.68512 0.64767 0.91700
O 	O 	0.15360 0.66830 0.53565 -0.40400
O 	O 	0.23290 0.64200 0.53554 -0.42500
O 	O 	0.31752 0.74890 0.66689 -0.40300
O 	O 	0.34570 0.69970 0.62483 -0.42200
O 	O 	0.93920 0.76380 0.78135 -0.40600
O 	O 	0.96440 0.81970 0.82146 -0.40100
O 	O 	0.18710 0.85410 0.78407 -0.42200
O 	O 	0.13520 0.87540 0.82577 -0.43000
O 	O 	0.12320 0.57390 0.53561 -0.38800
O 	O 	0.20460 0.54810 0.53617 -0.39800
O 	O 	0.20280 0.40970 0.66668 -0.41100
O 	O 	0.25780 0.43760 0.62828 -0.43400
N 	N 	0.08380 0.73990 0.64340 -0.08900
N 	N 	0.05710 0.75720 0.67250 -0.18200
H 	H 	0.02550 0.75780 0.67530 0.13300
N 	N 	0.13510 0.76540 0.68310 -0.16000
N 	N 	0.02480 0.49700 0.66450 -0.17200
C 	C 	0.13110 0.74900 0.65340 0.14300
C 	C 	0.09180 0.77240 0.69460 0.15700
C 	C 	0.17160 0.73580 0.63220 -0.03300
C 	C 	0.16600 0.71450 0.59850 -0.00700
H 	H 	0.13470 0.71370 0.58840 0.06200
C 	C 	0.20820 0.69450 0.58030 -0.07100
C 	C 	0.25460 0.70030 0.59420 0.03100
H 	H 	0.28170 0.68880 0.58190 0.05400
C 	C 	0.26300 0.72180 0.62460 -0.08700
C 	C 	0.22010 0.74070 0.64390 0.00100
H 	H 	0.22560 0.75660 0.66460 0.05800
C 	C 	0.19800 0.66420 0.54690 0.36800
C 	C 	0.31450 0.72280 0.63940 0.37700
C 	C 	0.07510 0.78920 0.72810 -0.04800
C 	C 	0.02810 0.78230 0.74400 -0.00400
H 	H 	0.00310 0.76460 0.73310 0.05000
C 	C 	0.02040 0.80170 0.77530 -0.05500
C 	C 	0.05950 0.82740 0.79280 0.01400
H 	H 	0.05400 0.84080 0.81440 0.06100
C 	C 	0.10510 0.83220 0.77750 -0.08600
C 	C 	0.11090 0.81200 0.74560 0.01300
H 	H 	0.14200 0.81430 0.73540 0.05300
C 	C 	0.96890 0.79350 0.79490 0.33700
C 	C 	0.14600 0.85680 0.79870 0.39200
C 	C 	0.03900 0.49620 0.63240 0.15000
C 	C 	0.08840 0.49360 0.62000 -0.05200
C 	C 	0.09930 0.51570 0.59150 0.01000
H 	H 	0.07390 0.53170 0.57970 0.05700
C 	C 	0.14720 0.51700 0.57720 -0.07400
C 	C 	0.18340 0.48860 0.59280 0.02300
H 	H 	0.21460 0.48690 0.58280 0.05700
C 	C 	0.17490 0.46190 0.62370 -0.08500
C 	C 	0.12370 0.46570 0.63680 0.00800
H 	H 	0.11510 0.44900 0.65670 0.04500
C 	C 	0.16090 0.54880 0.54670 0.33100
C 	C 	0.21680 0.43390 0.64060 0.38300
H 	H 	0.04360 0.49440 0.68210 0.12300
Cu	Cu	0.62243 0.25177 0.69589 0.90900
Cu	Cu	0.59169 0.31488 0.64767 0.91700
O 	O 	0.84640 0.33170 0.53565 -0.40500
O 	O 	0.76710 0.35800 0.53554 -0.42500
O 	O 	0.68248 0.25110 0.66689 -0.40200
O 	O 	0.65430 0.30030 0.62483 -0.42200
O 	O 	0.06080 0.23620 0.78135 -0.40500
O 	O 	0.03560 0.18030 0.82146 -0.40000
O 	O 	0.81290 0.14590 0.78407 -0.42200
O 	O 	0.86480 0.12460 0.82577 -0.43000
O 	O 	0.87680 0.42610 0.53561 -0.38900
O 	O 	0.79540 0.45190 0.53617 -0.39800
O 	O 	0.79720 0.59030 0.66668 -0.41200
O 	O 	0.74220 0.56240 0.62828 -0.43400
N 	N 	0.91620 0.26010 0.64340 -0.09000
N 	N 	0.94290 0.24280 0.67250 -0.18300
H 	H 	0.97450 0.24220 0.67530 0.13200
N 	N 	0.86490 0.23460 0.68310 -0.16000
N 	N 	0.97520 0.50300 0.66450 -0.17400
C 	C 	0.86890 0.25100 0.65340 0.14300
C 	C 	0.90820 0.22760 0.69460 0.15800
C 	C 	0.82840 0.26420 0.63220 -0.03300
C 	C 	0.83400 0.28550 0.59850 -0.00700
H 	H 	0.86530 0.28630 0.58840 0.06200
C 	C 	0.79180 0.30550 0.58030 -0.07100
C 	C 	0.74540 0.29970 0.59420 0.03100
H 	H 	0.71830 0.31120 0.58190 0.05500
C 	C 	0.73700 0.27820 0.62460 -0.08700
C 	C 	0.77990 0.25930 0.64390 0.00100
H 	H 	0.77440 0.24340 0.66460 0.05800
C 	C 	0.80200 0.33580 0.54690 0.36800
C 	C 	0.68550 0.27720 0.63940 0.37700
C 	C 	0.92490 0.21080 0.72810 -0.05100
C 	C 	0.97190 0.21770 0.74400 0.00000
H 	H 	0.99690 0.23540 0.73310 0.04600
C 	C 	0.97960 0.19830 0.77530 -0.06300
C 	C 	0.94050 0.17260 0.79280 0.01700
H 	H 	0.94600 0.15920 0.81440 0.05900
C 	C 	0.89490 0.16780 0.77750 -0.08800
C 	C 	0.88910 0.18800 0.74560 0.01500
H 	H 	0.85800 0.18570 0.73540 0.05300
C 	C 	0.03110 0.20650 0.79490 0.34300
C 	C 	0.85400 0.14320 0.79870 0.39300
C 	C 	0.96100 0.50380 0.63240 0.14600
C 	C 	0.91160 0.50640 0.62000 -0.05200
C 	C 	0.90070 0.48430 0.59150 0.00900
H 	H 	0.92610 0.46830 0.57970 0.05600
C 	C 	0.85280 0.48300 0.57720 -0.07400
C 	C 	0.81660 0.51140 0.59280 0.02300
H 	H 	0.78540 0.51310 0.58280 0.05700
C 	C 	0.82510 0.53810 0.62370 -0.08500
C 	C 	0.87630 0.53430 0.63680 0.00800
H 	H 	0.88490 0.55100 0.65670 0.04400
C 	C 	0.83910 0.45120 0.54670 0.33100
C 	C 	0.78320 0.56610 0.64060 0.38300
H 	H 	0.95640 0.50560 0.68210 0.12200
Cu	Cu	0.87604 0.36836 -0.00000 0.90200
Cu	Cu	0.90669 0.27444 -0.00000 0.90500
Cu	Cu	0.12396 0.63164 -0.00000 0.90200
Cu	Cu	0.09331 0.72556 -0.00000 0.90500
Cu	Cu	0.63164 0.87604 -0.00000 0.90200
Cu	Cu	0.72556 0.90669 -0.00000 0.90500
Cu	Cu	0.36836 0.12396 -0.00000 0.90200
Cu	Cu	0.27444 0.09331 -0.00000 0.90500
Cu	Cu	0.62396 0.86836 0.50000 0.90800
Cu	Cu	0.59331 0.77444 0.50000 0.91100
Cu	Cu	0.37604 0.13164 0.50000 0.90800
Cu	Cu	0.40669 0.22556 0.50000 0.91100
Cu	Cu	0.86836 0.37604 0.50000 0.90800
Cu	Cu	0.77444 0.40669 0.50000 0.91100
Cu	Cu	0.13164 0.62396 0.50000 0.90800
Cu	Cu	0.22556 0.59331 0.50000 0.91100
N 	N 	-0.00000 0.50000 0.11170 -0.14500
N 	N 	0.50000 0.00000 0.11170 -0.14500
N 	N 	0.50000 0.00000 0.38830 -0.14400
N 	N 	-0.00000 0.50000 0.38830 -0.14400
N 	N 	0.00000 0.50000 0.88830 -0.14300
N 	N 	0.50000 0.00000 0.88830 -0.14300
N 	N 	0.50000 0.00000 0.61170 -0.14400
N 	N 	-0.00000 0.50000 0.61170 -0.14400
