data_crystal

_cell_length_a 16.75810
_cell_length_b 18.82680
_cell_length_c 38.99980
_cell_angle_alpha 90.00000
_cell_angle_beta  90.00000
_cell_angle_gamma 90.00000

_symmetry_space_group_name_	'P 1'
_symmetry_space_group_name_H-M	'P 1'

loop_
_symmetry_equiv_pos_as_xyz
  x,y,z

loop_
_atom_site_label
_atom_site_type_symbol
_atom_site_fract_x
_atom_site_fract_y
_atom_site_fract_z
_atom_site_charge
C 	C 	0.61530 0.11090 0.18930 -0.08800
C 	C 	0.61940 0.04010 0.17470 0.11000
H 	H 	0.62490 0.99990 0.18930 0.11100
C 	C 	0.61530 0.03130 0.14000 -0.14400
C 	C 	0.61320 0.15950 0.13171 -0.00500
C 	C 	0.61290 0.16740 0.16870 0.08700
H 	H 	0.61090 0.21360 0.17840 -0.08800
C 	C 	0.42350 0.10670 0.15932 -0.00700
H 	H 	0.42460 0.09390 0.18290 0.06200
S 	S 	0.56956 0.39589 0.20846 0.73900
O 	O 	0.60037 0.17851 0.24403 -0.47800
O 	O 	0.48723 0.42304 0.20864 -0.41700
O 	O 	0.40760 0.29728 0.16945 -0.38700
O 	O 	0.44410 0.21393 0.20721 -0.41500
O 	O 	0.57243 0.32575 0.22430 -0.42300
C 	C 	0.42560 0.23450 0.17740 0.36500
O 	O 	0.59460 0.38780 0.17277 -0.25600
C 	C 	0.42320 0.17850 0.15001 -0.06800
C 	C 	0.42230 0.19570 0.11555 -0.00300
H 	H 	0.42080 0.24420 0.10880 0.06700
O 	O 	0.62200 0.44370 0.22550 -0.24600
C 	C 	0.61530 0.61090 0.68930 -0.09700
C 	C 	0.61940 0.54010 0.67470 0.11700
H 	H 	0.62490 0.49990 0.68930 0.05800
C 	C 	0.61530 0.53130 0.64000 -0.08400
C 	C 	0.61320 0.65950 0.63171 0.01000
C 	C 	0.61290 0.66740 0.66870 0.06500
H 	H 	0.61090 0.71360 0.67840 -0.08500
C 	C 	0.42350 0.60670 0.65932 -0.01300
H 	H 	0.42460 0.59390 0.68290 0.07100
S 	S 	0.56956 0.89589 0.70846 0.73500
O 	O 	0.60037 0.67851 0.74403 -0.47500
O 	O 	0.48723 0.92304 0.70864 -0.40600
O 	O 	0.40760 0.79728 0.66945 -0.38400
O 	O 	0.44410 0.71393 0.70721 -0.41300
O 	O 	0.57243 0.82575 0.72430 -0.42100
C 	C 	0.42560 0.73450 0.67740 0.36300
O 	O 	0.59460 0.88780 0.67277 -0.24700
C 	C 	0.42320 0.67850 0.65001 -0.06000
C 	C 	0.42230 0.69570 0.61555 -0.01000
H 	H 	0.42080 0.74420 0.60880 0.07300
O 	O 	0.62200 0.94370 0.72550 -0.23000
C 	C 	0.11530 0.11090 0.68930 -0.00100
C 	C 	0.11940 0.04010 0.67470 0.13900
H 	H 	0.12490 0.99990 0.68930 0.10200
C 	C 	0.11530 0.03130 0.64000 -0.15100
C 	C 	0.11320 0.15950 0.63171 0.07900
C 	C 	0.11290 0.16740 0.66870 0.08200
H 	H 	0.11090 0.21360 0.67840 -0.06400
C 	C 	0.92350 0.10670 0.65932 -0.00200
H 	H 	0.92460 0.09390 0.68290 0.07100
S 	S 	0.06956 0.39589 0.70846 0.65500
O 	O 	0.10037 0.17851 0.74403 -0.48500
O 	O 	0.98723 0.42304 0.70864 -0.35600
O 	O 	0.90760 0.29728 0.66945 -0.37400
O 	O 	0.94410 0.21393 0.70721 -0.38800
O 	O 	0.07243 0.32575 0.72430 -0.42100
C 	C 	0.92560 0.23450 0.67740 0.36700
O 	O 	0.09460 0.38780 0.67277 -0.25900
C 	C 	0.92320 0.17850 0.65001 -0.05800
C 	C 	0.92230 0.19570 0.61555 0.00300
H 	H 	0.92080 0.24420 0.60880 0.07700
O 	O 	0.12200 0.44370 0.72550 -0.24400
C 	C 	0.11530 0.61090 0.18930 -0.00700
C 	C 	0.11940 0.54010 0.17470 0.14700
H 	H 	0.12490 0.49990 0.18930 0.04900
C 	C 	0.11530 0.53130 0.14000 -0.09100
C 	C 	0.11320 0.65950 0.13171 0.09400
C 	C 	0.11290 0.66740 0.16870 0.06000
H 	H 	0.11090 0.71360 0.17840 -0.06000
C 	C 	0.92350 0.60670 0.15932 -0.00900
H 	H 	0.92460 0.59390 0.18290 0.08000
S 	S 	0.06956 0.89589 0.20846 0.65200
O 	O 	0.10037 0.67851 0.24403 -0.48100
O 	O 	0.98723 0.92304 0.20864 -0.34600
O 	O 	0.90760 0.79728 0.16945 -0.37200
O 	O 	0.94410 0.71393 0.20721 -0.38600
O 	O 	0.07243 0.82575 0.22430 -0.41900
C 	C 	0.92560 0.73450 0.17740 0.36400
O 	O 	0.09460 0.88780 0.17277 -0.25000
C 	C 	0.92320 0.67850 0.15001 -0.04900
C 	C 	0.92230 0.69570 0.11555 -0.00600
H 	H 	0.92080 0.74420 0.10880 0.08200
O 	O 	0.12200 0.94370 0.22550 -0.22800
C 	C 	0.13470 0.63910 0.18930 -0.19100
C 	C 	0.13060 0.70990 0.17470 0.08900
H 	H 	0.12510 0.75010 0.18930 0.05600
C 	C 	0.13470 0.71870 0.14000 -0.08900
C 	C 	0.13680 0.59050 0.13171 -0.07800
C 	C 	0.13710 0.58260 0.16870 0.05000
H 	H 	0.13910 0.53640 0.17840 -0.11100
C 	C 	0.32650 0.64330 0.15932 -0.00800
H 	H 	0.32540 0.65610 0.18290 0.07400
S 	S 	0.18044 0.35411 0.20846 0.74400
O 	O 	0.14963 0.57149 0.24403 -0.47900
O 	O 	0.26277 0.32696 0.20864 -0.42200
O 	O 	0.34240 0.45272 0.16945 -0.38600
O 	O 	0.30590 0.53607 0.20721 -0.41000
O 	O 	0.17757 0.42425 0.22430 -0.43000
C 	C 	0.32440 0.51550 0.17740 0.36600
O 	O 	0.15540 0.36220 0.17277 -0.27000
C 	C 	0.32680 0.57150 0.15001 -0.05700
C 	C 	0.32770 0.55430 0.11555 -0.00600
H 	H 	0.32920 0.50580 0.10880 0.07000
O 	O 	0.12800 0.30630 0.22550 -0.27100
C 	C 	0.13470 0.13910 0.68930 -0.23300
C 	C 	0.13060 0.20990 0.67470 0.08500
H 	H 	0.12510 0.25010 0.68930 0.05800
C 	C 	0.13470 0.21870 0.64000 -0.08400
C 	C 	0.13680 0.09050 0.63171 -0.06100
C 	C 	0.13710 0.08260 0.66870 0.09300
H 	H 	0.13910 0.03640 0.67840 -0.15700
C 	C 	0.32650 0.14330 0.65932 -0.02300
H 	H 	0.32540 0.15610 0.68290 0.07600
S 	S 	0.18044 0.85411 0.70846 0.73900
O 	O 	0.14963 0.07149 0.74403 -0.49500
O 	O 	0.26277 0.82696 0.70864 -0.41800
O 	O 	0.34240 0.95272 0.66945 -0.33600
O 	O 	0.30590 0.03607 0.70721 -0.40800
O 	O 	0.17757 0.92425 0.72430 -0.41200
C 	C 	0.32440 0.01550 0.67740 0.30100
O 	O 	0.15540 0.86220 0.67277 -0.26100
C 	C 	0.32680 0.07150 0.65001 -0.04200
C 	C 	0.32770 0.05430 0.61555 -0.02200
H 	H 	0.32920 0.00580 0.60880 0.06100
O 	O 	0.12800 0.80630 0.72550 -0.26200
C 	C 	0.63470 0.63910 0.68930 -0.09900
C 	C 	0.63060 0.70990 0.67470 0.11500
H 	H 	0.62510 0.75010 0.68930 0.06100
C 	C 	0.63470 0.71870 0.64000 -0.08300
C 	C 	0.63680 0.59050 0.63171 0.01000
C 	C 	0.63710 0.58260 0.66870 0.06200
H 	H 	0.63910 0.53640 0.67840 -0.08500
C 	C 	0.82650 0.64330 0.65932 -0.00700
H 	H 	0.82540 0.65610 0.68290 0.07600
S 	S 	0.68044 0.35411 0.70846 0.74000
O 	O 	0.64963 0.57149 0.74403 -0.47600
O 	O 	0.76277 0.32696 0.70864 -0.42000
O 	O 	0.84240 0.45272 0.66945 -0.38100
O 	O 	0.80590 0.53607 0.70721 -0.40900
O 	O 	0.67757 0.42425 0.72430 -0.42500
C 	C 	0.82440 0.51550 0.67740 0.36600
O 	O 	0.65540 0.36220 0.67277 -0.25800
C 	C 	0.82680 0.57150 0.65001 -0.05600
C 	C 	0.82770 0.55430 0.61555 -0.00500
H 	H 	0.82920 0.50580 0.60880 0.07500
O 	O 	0.62800 0.30630 0.72550 -0.25300
C 	C 	0.63470 0.13910 0.18930 -0.14200
C 	C 	0.63060 0.20990 0.17470 0.11200
H 	H 	0.62510 0.25010 0.18930 0.06300
C 	C 	0.63470 0.21870 0.14000 -0.07700
C 	C 	0.63680 0.09050 0.13171 0.02600
C 	C 	0.63710 0.08260 0.16870 0.10600
H 	H 	0.63910 0.03640 0.17840 -0.13200
C 	C 	0.82650 0.14330 0.15932 -0.02200
H 	H 	0.82540 0.15610 0.18290 0.07900
S 	S 	0.68044 0.85411 0.20846 0.73500
O 	O 	0.64963 0.07149 0.24403 -0.49200
O 	O 	0.76277 0.82696 0.20864 -0.41600
O 	O 	0.84240 0.95272 0.16945 -0.33100
O 	O 	0.80590 0.03607 0.20721 -0.40700
O 	O 	0.67757 0.92425 0.22430 -0.40700
C 	C 	0.82440 0.01550 0.17740 0.30200
O 	O 	0.65540 0.86220 0.17277 -0.24900
C 	C 	0.82680 0.07150 0.15001 -0.04000
C 	C 	0.82770 0.05430 0.11555 -0.02300
H 	H 	0.82920 0.00580 0.10880 0.06400
O 	O 	0.62800 0.80630 0.22550 -0.24500
C 	C 	0.13470 0.11090 0.56070 -0.18200
C 	C 	0.13060 0.04010 0.57530 0.08200
H 	H 	0.12510 0.99990 0.56070 0.10800
C 	C 	0.13470 0.03130 0.61000 -0.15000
C 	C 	0.13680 0.15950 0.61829 -0.09200
C 	C 	0.13710 0.16740 0.58130 0.07400
H 	H 	0.13910 0.21360 0.57160 -0.11400
C 	C 	0.32650 0.10670 0.59068 -0.00300
H 	H 	0.32540 0.09390 0.56710 0.06500
S 	S 	0.18044 0.39589 0.54154 0.74300
O 	O 	0.14963 0.17851 0.50597 -0.48200
O 	O 	0.26277 0.42304 0.54136 -0.42000
O 	O 	0.34240 0.29728 0.58055 -0.38600
O 	O 	0.30590 0.21393 0.54279 -0.41300
O 	O 	0.17757 0.32575 0.52570 -0.43000
C 	C 	0.32440 0.23450 0.57260 0.36700
O 	O 	0.15540 0.38780 0.57723 -0.26900
C 	C 	0.32680 0.17850 0.59999 -0.06500
C 	C 	0.32770 0.19570 0.63445 0.00200
H 	H 	0.32920 0.24420 0.64120 0.06800
O 	O 	0.12800 0.44370 0.52450 -0.26700
C 	C 	0.13470 0.61090 0.06070 -0.19100
C 	C 	0.13060 0.54010 0.07530 0.09000
H 	H 	0.12510 0.49990 0.06070 0.05400
C 	C 	0.13470 0.53130 0.11000 -0.09100
C 	C 	0.13680 0.65950 0.11829 -0.07800
C 	C 	0.13710 0.66740 0.08130 0.05200
H 	H 	0.13910 0.71360 0.07160 -0.11100
C 	C 	0.32650 0.60670 0.09068 -0.00900
H 	H 	0.32540 0.59390 0.06710 0.07100
S 	S 	0.18044 0.89589 0.04154 0.74000
O 	O 	0.14963 0.67851 0.00597 -0.48600
O 	O 	0.26277 0.92304 0.04136 -0.41300
O 	O 	0.34240 0.79728 0.08055 -0.38400
O 	O 	0.30590 0.71393 0.04279 -0.41400
O 	O 	0.17757 0.82575 0.02570 -0.43200
C 	C 	0.32440 0.73450 0.07260 0.36600
O 	O 	0.15540 0.88780 0.07723 -0.26000
C 	C 	0.32680 0.67850 0.09999 -0.05700
C 	C 	0.32770 0.69570 0.13445 -0.00600
H 	H 	0.32920 0.74420 0.14120 0.07400
O 	O 	0.12800 0.94370 0.02450 -0.25600
C 	C 	0.63470 0.11090 0.06070 -0.09200
C 	C 	0.63060 0.04010 0.07530 0.10900
H 	H 	0.62510 0.99990 0.06070 0.11200
C 	C 	0.63470 0.03130 0.11000 -0.14500
C 	C 	0.63680 0.15950 0.11829 -0.00500
C 	C 	0.63710 0.16740 0.08130 0.08700
H 	H 	0.63910 0.21360 0.07160 -0.08900
C 	C 	0.82650 0.10670 0.09068 -0.00200
H 	H 	0.82540 0.09390 0.06710 0.06500
S 	S 	0.68044 0.39589 0.04154 0.74000
O 	O 	0.64963 0.17851 0.00597 -0.48700
O 	O 	0.76277 0.42304 0.04136 -0.42200
O 	O 	0.84240 0.29728 0.08055 -0.38200
O 	O 	0.80590 0.21393 0.04279 -0.41500
O 	O 	0.67757 0.32575 0.02570 -0.42900
C 	C 	0.82440 0.23450 0.07260 0.36800
O 	O 	0.65540 0.38780 0.07723 -0.25700
C 	C 	0.82680 0.17850 0.09999 -0.06400
C 	C 	0.82770 0.19570 0.13445 0.00200
H 	H 	0.82920 0.24420 0.14120 0.07200
O 	O 	0.62800 0.44370 0.02450 -0.25600
C 	C 	0.63470 0.61090 0.56070 -0.09800
C 	C 	0.63060 0.54010 0.57530 0.11600
H 	H 	0.62510 0.49990 0.56070 0.05900
C 	C 	0.63470 0.53130 0.61000 -0.08400
C 	C 	0.63680 0.65950 0.61829 0.00900
C 	C 	0.63710 0.66740 0.58130 0.06400
H 	H 	0.63910 0.71360 0.57160 -0.08500
C 	C 	0.82650 0.60670 0.59068 -0.00900
H 	H 	0.82540 0.59390 0.56710 0.07500
S 	S 	0.68044 0.89589 0.54154 0.73500
O 	O 	0.64963 0.67851 0.50597 -0.47500
O 	O 	0.76277 0.92304 0.54136 -0.40700
O 	O 	0.84240 0.79728 0.58055 -0.37900
O 	O 	0.80590 0.71393 0.54279 -0.40900
O 	O 	0.67757 0.82575 0.52570 -0.42200
C 	C 	0.82440 0.73450 0.57260 0.36500
O 	O 	0.65540 0.88780 0.57723 -0.24700
C 	C 	0.82680 0.67850 0.59999 -0.05400
C 	C 	0.82770 0.69570 0.63445 -0.00700
H 	H 	0.82920 0.74420 0.64120 0.07800
O 	O 	0.62800 0.94370 0.52450 -0.23300
C 	C 	0.61530 0.63910 0.56070 -0.09800
C 	C 	0.61940 0.70990 0.57530 0.11600
H 	H 	0.62490 0.75010 0.56070 0.06000
C 	C 	0.61530 0.71870 0.61000 -0.08400
C 	C 	0.61320 0.59050 0.61829 0.01100
C 	C 	0.61290 0.58260 0.58130 0.06300
H 	H 	0.61090 0.53640 0.57160 -0.08500
C 	C 	0.42350 0.64330 0.59068 -0.01100
H 	H 	0.42460 0.65610 0.56710 0.07100
S 	S 	0.56956 0.35411 0.54154 0.74000
O 	O 	0.60037 0.57149 0.50597 -0.47500
O 	O 	0.48723 0.32696 0.54136 -0.41900
O 	O 	0.40760 0.45272 0.58055 -0.38600
O 	O 	0.44410 0.53607 0.54279 -0.41300
O 	O 	0.57243 0.42425 0.52570 -0.42300
C 	C 	0.42560 0.51550 0.57260 0.36400
O 	O 	0.59460 0.36220 0.57723 -0.25700
C 	C 	0.42320 0.57150 0.59999 -0.06200
C 	C 	0.42230 0.55430 0.63445 -0.00900
H 	H 	0.42080 0.50580 0.64120 0.07000
O 	O 	0.62200 0.30630 0.52450 -0.25000
C 	C 	0.61530 0.13910 0.06070 -0.14200
C 	C 	0.61940 0.20990 0.07530 0.11300
H 	H 	0.62490 0.25010 0.06070 0.06100
C 	C 	0.61530 0.21870 0.11000 -0.07900
C 	C 	0.61320 0.09050 0.11829 0.02700
C 	C 	0.61290 0.08260 0.08130 0.10700
H 	H 	0.61090 0.03640 0.07160 -0.13200
C 	C 	0.42350 0.14330 0.09068 -0.02500
H 	H 	0.42460 0.15610 0.06710 0.07200
S 	S 	0.56956 0.85411 0.04154 0.73600
O 	O 	0.60037 0.07149 0.00597 -0.49900
O 	O 	0.48723 0.82696 0.04136 -0.41900
O 	O 	0.40760 0.95272 0.08055 -0.33700
O 	O 	0.44410 0.03607 0.04279 -0.41400
O 	O 	0.57243 0.92425 0.02570 -0.41000
C 	C 	0.42560 0.01550 0.07260 0.30000
O 	O 	0.59460 0.86220 0.07723 -0.24900
C 	C 	0.42320 0.07150 0.09999 -0.04700
C 	C 	0.42230 0.05430 0.13445 -0.02500
H 	H 	0.42080 0.00580 0.14120 0.05900
O 	O 	0.62200 0.80630 0.02450 -0.24800
C 	C 	0.11530 0.63910 0.06070 -0.01000
C 	C 	0.11940 0.70990 0.07530 0.14600
H 	H 	0.12490 0.75010 0.06070 0.05000
C 	C 	0.11530 0.71870 0.11000 -0.09100
C 	C 	0.11320 0.59050 0.11829 0.09500
C 	C 	0.11290 0.58260 0.08130 0.05900
H 	H 	0.11090 0.53640 0.07160 -0.06000
C 	C 	0.92350 0.64330 0.09068 -0.00500
H 	H 	0.92460 0.65610 0.06710 0.07700
S 	S 	0.06956 0.35411 0.04154 0.65700
O 	O 	0.10037 0.57149 0.00597 -0.49000
O 	O 	0.98723 0.32696 0.04136 -0.36200
O 	O 	0.90760 0.45272 0.08055 -0.37400
O 	O 	0.94410 0.53607 0.04279 -0.39000
O 	O 	0.07243 0.42425 0.02570 -0.42600
C 	C 	0.92560 0.51550 0.07260 0.36600
O 	O 	0.09460 0.36220 0.07723 -0.26100
C 	C 	0.92320 0.57150 0.09999 -0.05300
C 	C 	0.92230 0.55430 0.13445 -0.00300
H 	H 	0.92080 0.50580 0.14120 0.08000
O 	O 	0.12200 0.30630 0.02450 -0.25400
C 	C 	0.11530 0.13910 0.56070 -0.05200
C 	C 	0.11940 0.20990 0.57530 0.14200
H 	H 	0.12490 0.25010 0.56070 0.05300
C 	C 	0.11530 0.21870 0.61000 -0.08500
C 	C 	0.11320 0.09050 0.61829 0.11000
C 	C 	0.11290 0.08260 0.58130 0.10200
H 	H 	0.11090 0.03640 0.57160 -0.10700
C 	C 	0.92350 0.14330 0.59068 -0.02100
H 	H 	0.92460 0.15610 0.56710 0.08300
S 	S 	0.06956 0.85411 0.54154 0.65100
O 	O 	0.10037 0.07149 0.50597 -0.49800
O 	O 	0.98723 0.82696 0.54136 -0.35400
O 	O 	0.90760 0.95272 0.58055 -0.32400
O 	O 	0.94410 0.03607 0.54279 -0.38400
O 	O 	0.07243 0.92425 0.52570 -0.40400
C 	C 	0.92560 0.01550 0.57260 0.30200
O 	O 	0.09460 0.86220 0.57723 -0.25200
C 	C 	0.92320 0.07150 0.59999 -0.03600
C 	C 	0.92230 0.05430 0.63445 -0.02100
H 	H 	0.92080 0.00580 0.64120 0.06900
O 	O 	0.12200 0.80630 0.52450 -0.24000
C 	C 	0.38470 0.88910 0.81070 -0.10500
C 	C 	0.38060 0.95990 0.82530 0.12500
H 	H 	0.37510 0.00010 0.81070 0.00700
C 	C 	0.38470 0.96870 0.86000 -0.02400
C 	C 	0.38680 0.84050 0.86829 0.02600
C 	C 	0.38710 0.83260 0.83130 0.03800
H 	H 	0.38910 0.78640 0.82160 -0.08100
C 	C 	0.57650 0.89330 0.84068 -0.01400
H 	H 	0.57540 0.90610 0.81710 0.07900
S 	S 	0.43044 0.60411 0.79154 0.74000
O 	O 	0.39963 0.82149 0.75597 -0.47300
O 	O 	0.51277 0.57696 0.79136 -0.41700
O 	O 	0.59240 0.70272 0.83055 -0.38300
O 	O 	0.55590 0.78607 0.79279 -0.41000
O 	O 	0.42757 0.67425 0.77570 -0.42500
C 	C 	0.57440 0.76550 0.82260 0.36400
O 	O 	0.40540 0.61220 0.82723 -0.25800
C 	C 	0.57680 0.82150 0.84999 -0.05200
C 	C 	0.57770 0.80430 0.88445 -0.01300
H 	H 	0.57920 0.75580 0.89120 0.07500
O 	O 	0.37800 0.55630 0.77450 -0.25200
C 	C 	0.38470 0.38910 0.31070 -0.09900
C 	C 	0.38060 0.45990 0.32530 0.11700
H 	H 	0.37510 0.50010 0.31070 0.05900
C 	C 	0.38470 0.46870 0.36000 -0.08400
C 	C 	0.38680 0.34050 0.36829 0.01000
C 	C 	0.38710 0.33260 0.33130 0.06200
H 	H 	0.38910 0.28640 0.32160 -0.08500
C 	C 	0.57650 0.39330 0.34068 -0.01000
H 	H 	0.57540 0.40610 0.31710 0.07200
S 	S 	0.43044 0.10411 0.29154 0.74400
O 	O 	0.39963 0.32149 0.25597 -0.47700
O 	O 	0.51277 0.07696 0.29136 -0.42800
O 	O 	0.59240 0.20272 0.33055 -0.38600
O 	O 	0.55590 0.28607 0.29279 -0.41200
O 	O 	0.42757 0.17425 0.27570 -0.42800
C 	C 	0.57440 0.26550 0.32260 0.36500
O 	O 	0.40540 0.11220 0.32723 -0.26700
C 	C 	0.57680 0.32150 0.34999 -0.06000
C 	C 	0.57770 0.30430 0.38445 -0.00700
H 	H 	0.57920 0.25580 0.39120 0.06900
O 	O 	0.37800 0.05630 0.27450 -0.26800
C 	C 	0.88470 0.88910 0.31070 -0.19300
C 	C 	0.88060 0.95990 0.32530 0.09500
H 	H 	0.87510 0.00010 0.31070 0.01600
C 	C 	0.88470 0.96870 0.36000 -0.01800
C 	C 	0.88680 0.84050 0.36829 -0.06000
C 	C 	0.88710 0.83260 0.33130 0.04200
H 	H 	0.88910 0.78640 0.32160 -0.10600
C 	C 	0.07650 0.89330 0.34068 -0.02000
H 	H 	0.07540 0.90610 0.31710 0.07100
S 	S 	0.93044 0.60411 0.29154 0.82100
O 	O 	0.89963 0.82149 0.25597 -0.45600
O 	O 	0.01277 0.57696 0.29136 -0.47700
O 	O 	0.09240 0.70272 0.33055 -0.39500
O 	O 	0.05590 0.78607 0.29279 -0.42400
O 	O 	0.92757 0.67425 0.27570 -0.41700
C 	C 	0.07440 0.76550 0.32260 0.35900
O 	O 	0.90540 0.61220 0.32723 -0.25400
C 	C 	0.07680 0.82150 0.34999 -0.06100
C 	C 	0.07770 0.80430 0.38445 -0.02000
H 	H 	0.07920 0.75580 0.39120 0.06500
O 	O 	0.87800 0.55630 0.27450 -0.25300
C 	C 	0.88470 0.38910 0.81070 -0.18900
C 	C 	0.88060 0.45990 0.82530 0.08600
H 	H 	0.87510 0.50010 0.81070 0.06700
C 	C 	0.88470 0.46870 0.86000 -0.07800
C 	C 	0.88680 0.34050 0.86829 -0.07500
C 	C 	0.88710 0.33260 0.83130 0.06500
H 	H 	0.88910 0.28640 0.82160 -0.11000
C 	C 	0.07650 0.39330 0.84068 -0.01400
H 	H 	0.07540 0.40610 0.81710 0.06300
S 	S 	0.93044 0.10411 0.79154 0.82400
O 	O 	0.89963 0.32149 0.75597 -0.46000
O 	O 	0.01277 0.07696 0.79136 -0.48700
O 	O 	0.09240 0.20272 0.83055 -0.39700
O 	O 	0.05590 0.28607 0.79279 -0.42600
O 	O 	0.92757 0.17425 0.77570 -0.41900
C 	C 	0.07440 0.26550 0.82260 0.36100
O 	O 	0.90540 0.11220 0.82723 -0.26300
C 	C 	0.07680 0.32150 0.84999 -0.07000
C 	C 	0.07770 0.30430 0.88445 -0.01100
H 	H 	0.07920 0.25580 0.89120 0.06000
O 	O 	0.87800 0.05630 0.77450 -0.26900
C 	C 	0.86530 0.36090 0.81070 -0.00200
C 	C 	0.86940 0.29010 0.82530 0.14600
H 	H 	0.87490 0.24990 0.81070 0.06200
C 	C 	0.86530 0.28130 0.86000 -0.07900
C 	C 	0.86320 0.40950 0.86829 0.10000
C 	C 	0.86290 0.41740 0.83130 0.07500
H 	H 	0.86090 0.46360 0.82160 -0.05800
C 	C 	0.67350 0.35670 0.84068 -0.01400
H 	H 	0.67460 0.34390 0.81710 0.06800
S 	S 	0.81956 0.64589 0.79154 0.73500
O 	O 	0.85037 0.42851 0.75597 -0.47100
O 	O 	0.73723 0.67304 0.79136 -0.41200
O 	O 	0.65760 0.54728 0.83055 -0.38500
O 	O 	0.69410 0.46393 0.79279 -0.41400
O 	O 	0.82243 0.57575 0.77570 -0.41800
C 	C 	0.67560 0.48450 0.82260 0.36300
O 	O 	0.84460 0.63780 0.82723 -0.24300
C 	C 	0.67320 0.42850 0.84999 -0.06300
C 	C 	0.67230 0.44570 0.88445 -0.01100
H 	H 	0.67080 0.49420 0.89120 0.07100
O 	O 	0.87200 0.69370 0.77450 -0.22800
C 	C 	0.86530 0.86090 0.31070 0.04000
C 	C 	0.86940 0.79010 0.32530 0.14900
H 	H 	0.87490 0.74990 0.31070 0.06000
C 	C 	0.86530 0.78130 0.36000 -0.08400
C 	C 	0.86320 0.90950 0.36829 0.08200
C 	C 	0.86290 0.91740 0.33130 0.03100
H 	H 	0.86090 0.96360 0.32160 -0.01200
C 	C 	0.67350 0.85670 0.34068 -0.00100
H 	H 	0.67460 0.84390 0.31710 0.06600
S 	S 	0.81956 0.14589 0.29154 0.73800
O 	O 	0.85037 0.92851 0.25597 -0.44800
O 	O 	0.73723 0.17304 0.29136 -0.41600
O 	O 	0.65760 0.04728 0.33055 -0.43300
O 	O 	0.69410 0.96393 0.29279 -0.40700
O 	O 	0.82243 0.07575 0.27570 -0.42900
C 	C 	0.67560 0.98450 0.32260 0.42500
O 	O 	0.84460 0.13780 0.32723 -0.25100
C 	C 	0.67320 0.92850 0.34999 -0.07700
C 	C 	0.67230 0.94570 0.38445 0.00400
H 	H 	0.67080 0.99420 0.39120 0.08200
O 	O 	0.87200 0.19370 0.27450 -0.23500
C 	C 	0.36530 0.36090 0.31070 -0.09700
C 	C 	0.36940 0.29010 0.32530 0.11800
H 	H 	0.37490 0.24990 0.31070 0.05700
C 	C 	0.36530 0.28130 0.36000 -0.08500
C 	C 	0.36320 0.40950 0.36829 0.01000
C 	C 	0.36290 0.41740 0.33130 0.06400
H 	H 	0.36090 0.46360 0.32160 -0.08500
C 	C 	0.17350 0.35670 0.34068 -0.01600
H 	H 	0.17460 0.34390 0.31710 0.06600
S 	S 	0.31956 0.64589 0.29154 0.73900
O 	O 	0.35037 0.42851 0.25597 -0.47600
O 	O 	0.23723 0.67304 0.29136 -0.41400
O 	O 	0.15760 0.54728 0.33055 -0.39000
O 	O 	0.19410 0.46393 0.29279 -0.41500
O 	O 	0.32243 0.57575 0.27570 -0.42300
C 	C 	0.17560 0.48450 0.32260 0.36300
O 	O 	0.34460 0.63780 0.32723 -0.25500
C 	C 	0.17320 0.42850 0.34999 -0.06400
C 	C 	0.17230 0.44570 0.38445 -0.01200
H 	H 	0.17080 0.49420 0.39120 0.06600
O 	O 	0.37200 0.69370 0.27450 -0.24500
C 	C 	0.36530 0.86090 0.81070 -0.05300
C 	C 	0.36940 0.79010 0.82530 0.12100
H 	H 	0.37490 0.74990 0.81070 0.05400
C 	C 	0.36530 0.78130 0.86000 -0.09100
C 	C 	0.36320 0.90950 0.86829 -0.00500
C 	C 	0.36290 0.91740 0.83130 0.02000
H 	H 	0.36090 0.96360 0.82160 -0.03800
C 	C 	0.17350 0.85670 0.84068 -0.00100
H 	H 	0.17460 0.84390 0.81710 0.06400
S 	S 	0.31956 0.14589 0.79154 0.74200
O 	O 	0.35037 0.92851 0.75597 -0.45200
O 	O 	0.23723 0.17304 0.79136 -0.41700
O 	O 	0.15760 0.04728 0.83055 -0.43800
O 	O 	0.19410 0.96393 0.79279 -0.40900
O 	O 	0.32243 0.07575 0.77570 -0.43400
C 	C 	0.17560 0.98450 0.82260 0.42500
O 	O 	0.34460 0.13780 0.82723 -0.26300
C 	C 	0.17320 0.92850 0.84999 -0.07900
C 	C 	0.17230 0.94570 0.88445 0.00500
H 	H 	0.17080 0.99420 0.89120 0.07800
O 	O 	0.37200 0.19370 0.77450 -0.25300
C 	C 	0.86530 0.88910 0.43930 -0.00900
C 	C 	0.86940 0.95990 0.42470 0.15300
H 	H 	0.87490 0.00010 0.43930 0.01100
C 	C 	0.86530 0.96870 0.39000 -0.01900
C 	C 	0.86320 0.84050 0.38171 0.11400
C 	C 	0.86290 0.83260 0.41870 0.05100
H 	H 	0.86090 0.78640 0.42840 -0.05500
C 	C 	0.67350 0.89330 0.40932 -0.01900
H 	H 	0.67460 0.90610 0.43290 0.07700
S 	S 	0.81956 0.60411 0.45846 0.73600
O 	O 	0.85037 0.82149 0.49403 -0.46800
O 	O 	0.73723 0.57696 0.45864 -0.41400
O 	O 	0.65760 0.70272 0.41945 -0.38400
O 	O 	0.69410 0.78607 0.45721 -0.41200
O 	O 	0.82243 0.67425 0.47430 -0.41800
C 	C 	0.67560 0.76550 0.42740 0.36200
O 	O 	0.84460 0.61220 0.42277 -0.24500
C 	C 	0.67320 0.82150 0.40001 -0.05600
C 	C 	0.67230 0.80430 0.36555 -0.01800
H 	H 	0.67080 0.75580 0.35880 0.07300
O 	O 	0.87200 0.55630 0.47550 -0.23100
C 	C 	0.86530 0.38910 0.93930 -0.00100
C 	C 	0.86940 0.45990 0.92470 0.14500
H 	H 	0.87490 0.50010 0.93930 0.06400
C 	C 	0.86530 0.46870 0.89000 -0.07700
C 	C 	0.86320 0.34050 0.88171 0.09900
C 	C 	0.86290 0.33260 0.91870 0.07300
H 	H 	0.86090 0.28640 0.92840 -0.05800
C 	C 	0.67350 0.39330 0.90932 -0.01400
H 	H 	0.67460 0.40610 0.93290 0.07200
S 	S 	0.81956 0.10411 0.95846 0.73700
O 	O 	0.85037 0.32149 0.99403 -0.46200
O 	O 	0.73723 0.07696 0.95864 -0.42100
O 	O 	0.65760 0.20272 0.91945 -0.38600
O 	O 	0.69410 0.28607 0.95721 -0.40700
O 	O 	0.82243 0.17425 0.97430 -0.41400
C 	C 	0.67560 0.26550 0.92740 0.36200
O 	O 	0.84460 0.11220 0.92277 -0.25300
C 	C 	0.67320 0.32150 0.90001 -0.06200
C 	C 	0.67230 0.30430 0.86555 -0.01100
H 	H 	0.67080 0.25580 0.85880 0.06800
O 	O 	0.87200 0.05630 0.97550 -0.24100
C 	C 	0.36530 0.88910 0.93930 -0.10200
C 	C 	0.36940 0.95990 0.92470 0.12500
H 	H 	0.37490 0.00010 0.93930 0.00700
C 	C 	0.36530 0.96870 0.89000 -0.02300
C 	C 	0.36320 0.84050 0.88171 0.02500
C 	C 	0.36290 0.83260 0.91870 0.03900
H 	H 	0.36090 0.78640 0.92840 -0.08100
C 	C 	0.17350 0.89330 0.90932 -0.02100
H 	H 	0.17460 0.90610 0.93290 0.07800
S 	S 	0.31956 0.60411 0.95846 0.73800
O 	O 	0.35037 0.82149 0.99403 -0.46200
O 	O 	0.23723 0.57696 0.95864 -0.41200
O 	O 	0.15760 0.70272 0.91945 -0.38800
O 	O 	0.19410 0.78607 0.95721 -0.40600
O 	O 	0.32243 0.67425 0.97430 -0.41700
C 	C 	0.17560 0.76550 0.92740 0.36000
O 	O 	0.34460 0.61220 0.92277 -0.25600
C 	C 	0.17320 0.82150 0.90001 -0.05600
C 	C 	0.17230 0.80430 0.86555 -0.01900
H 	H 	0.17080 0.75580 0.85880 0.06900
O 	O 	0.37200 0.55630 0.97550 -0.24200
C 	C 	0.36530 0.38910 0.43930 -0.09800
C 	C 	0.36940 0.45990 0.42470 0.11700
H 	H 	0.37490 0.50010 0.43930 0.05800
C 	C 	0.36530 0.46870 0.39000 -0.08400
C 	C 	0.36320 0.34050 0.38171 0.01100
C 	C 	0.36290 0.33260 0.41870 0.06300
H 	H 	0.36090 0.28640 0.42840 -0.08500
C 	C 	0.17350 0.39330 0.40932 -0.01400
H 	H 	0.17460 0.40610 0.43290 0.06700
S 	S 	0.31956 0.10411 0.45846 0.74300
O 	O 	0.35037 0.32149 0.49403 -0.47600
O 	O 	0.23723 0.07696 0.45864 -0.42700
O 	O 	0.15760 0.20272 0.41945 -0.39200
O 	O 	0.19410 0.28607 0.45721 -0.41500
O 	O 	0.32243 0.17425 0.47430 -0.42600
C 	C 	0.17560 0.26550 0.42740 0.36400
O 	O 	0.34460 0.11220 0.42277 -0.26600
C 	C 	0.17320 0.32150 0.40001 -0.06600
C 	C 	0.17230 0.30430 0.36555 -0.01000
H 	H 	0.17080 0.25580 0.35880 0.06300
O 	O 	0.37200 0.05630 0.47550 -0.26500
C 	C 	0.38470 0.36090 0.43930 -0.09800
C 	C 	0.38060 0.29010 0.42470 0.11800
H 	H 	0.37510 0.24990 0.43930 0.05800
C 	C 	0.38470 0.28130 0.39000 -0.08500
C 	C 	0.38680 0.40950 0.38171 0.01000
C 	C 	0.38710 0.41740 0.41870 0.06300
H 	H 	0.38910 0.46360 0.42840 -0.08500
C 	C 	0.57650 0.35670 0.40932 -0.01200
H 	H 	0.57540 0.34390 0.43290 0.07100
S 	S 	0.43044 0.64589 0.45846 0.73900
O 	O 	0.39963 0.42851 0.49403 -0.47600
O 	O 	0.51277 0.67304 0.45864 -0.41500
O 	O 	0.59240 0.54728 0.41945 -0.38400
O 	O 	0.55590 0.46393 0.45721 -0.41200
O 	O 	0.42757 0.57575 0.47430 -0.42500
C 	C 	0.57440 0.48450 0.42740 0.36500
O 	O 	0.40540 0.63780 0.42277 -0.25600
C 	C 	0.57680 0.42850 0.40001 -0.05900
C 	C 	0.57770 0.44570 0.36555 -0.00800
H 	H 	0.57920 0.49420 0.35880 0.07200
O 	O 	0.37800 0.69370 0.47550 -0.24800
C 	C 	0.38470 0.86090 0.93930 -0.05300
C 	C 	0.38060 0.79010 0.92470 0.12100
H 	H 	0.37510 0.74990 0.93930 0.05600
C 	C 	0.38470 0.78130 0.89000 -0.08900
C 	C 	0.38680 0.90950 0.88171 -0.00700
C 	C 	0.38710 0.91740 0.91870 0.01800
H 	H 	0.38910 0.96360 0.92840 -0.03800
C 	C 	0.57650 0.85670 0.90932 0.00100
H 	H 	0.57540 0.84390 0.93290 0.07100
S 	S 	0.43044 0.14589 0.95846 0.74000
O 	O 	0.39963 0.92851 0.99403 -0.44300
O 	O 	0.51277 0.17304 0.95864 -0.41400
O 	O 	0.59240 0.04728 0.91945 -0.43200
O 	O 	0.55590 0.96393 0.95721 -0.39800
O 	O 	0.42757 0.07575 0.97430 -0.42800
C 	C 	0.57440 0.98450 0.92740 0.42500
O 	O 	0.40540 0.13780 0.92277 -0.26300
C 	C 	0.57680 0.92850 0.90001 -0.07100
C 	C 	0.57770 0.94570 0.86555 0.00700
H 	H 	0.57920 0.99420 0.85880 0.08300
O 	O 	0.37800 0.19370 0.97550 -0.24900
C 	C 	0.88470 0.36090 0.93930 -0.18600
C 	C 	0.88060 0.29010 0.92470 0.08700
H 	H 	0.87510 0.24990 0.93930 0.06700
C 	C 	0.88470 0.28130 0.89000 -0.07700
C 	C 	0.88680 0.40950 0.88171 -0.07600
C 	C 	0.88710 0.41740 0.91870 0.06600
H 	H 	0.88910 0.46360 0.92840 -0.10900
C 	C 	0.07650 0.35670 0.90932 -0.01800
H 	H 	0.07540 0.34390 0.93290 0.06500
S 	S 	0.93044 0.64589 0.95846 0.81800
O 	O 	0.89963 0.42851 0.99403 -0.44900
O 	O 	0.01277 0.67304 0.95864 -0.47000
O 	O 	0.09240 0.54728 0.91945 -0.39400
O 	O 	0.05590 0.46393 0.95721 -0.41900
O 	O 	0.92757 0.57575 0.97430 -0.40900
C 	C 	0.07440 0.48450 0.92740 0.35900
O 	O 	0.90540 0.63780 0.92277 -0.25100
C 	C 	0.07680 0.42850 0.90001 -0.06600
C 	C 	0.07770 0.44570 0.86555 -0.01500
H 	H 	0.07920 0.49420 0.85880 0.06200
O 	O 	0.87800 0.69370 0.97550 -0.24300
C 	C 	0.88470 0.86090 0.43930 -0.14400
C 	C 	0.88060 0.79010 0.42470 0.09100
H 	H 	0.87510 0.74990 0.43930 0.06400
C 	C 	0.88470 0.78130 0.39000 -0.08300
C 	C 	0.88680 0.90950 0.38171 -0.09000
C 	C 	0.88710 0.91740 0.41870 0.02300
H 	H 	0.88910 0.96360 0.42840 -0.06300
C 	C 	0.07650 0.85670 0.40932 -0.00300
H 	H 	0.07540 0.84390 0.43290 0.06000
S 	S 	0.93044 0.14589 0.45846 0.82300
O 	O 	0.89963 0.92851 0.49403 -0.43700
O 	O 	0.01277 0.17304 0.45864 -0.47800
O 	O 	0.09240 0.04728 0.41945 -0.44300
O 	O 	0.05590 0.96393 0.45721 -0.42000
O 	O 	0.92757 0.07575 0.47430 -0.42700
C 	C 	0.07440 0.98450 0.42740 0.42200
O 	O 	0.90540 0.13780 0.42277 -0.26100
C 	C 	0.07680 0.92850 0.40001 -0.08200
C 	C 	0.07770 0.94570 0.36555 0.00300
H 	H 	0.07920 0.99420 0.35880 0.07300
O 	O 	0.87800 0.19370 0.47550 -0.25700
Fe	Fe	0.37500 0.37500 0.20508 1.21000
Fe	Fe	0.37500 0.87500 0.70508 1.21100
Fe	Fe	0.87500 0.37500 0.70508 1.21200
Fe	Fe	0.87500 0.87500 0.20508 1.21400
Fe	Fe	0.37500 0.37500 0.54492 1.21000
Fe	Fe	0.37500 0.87500 0.04492 1.20700
Fe	Fe	0.87500 0.37500 0.04492 1.20800
Fe	Fe	0.87500 0.87500 0.54492 1.21300
Fe	Fe	0.62500 0.62500 0.79492 1.21000
Fe	Fe	0.62500 0.12500 0.29492 1.20900
Fe	Fe	0.12500 0.62500 0.29492 1.20800
Fe	Fe	0.12500 0.12500 0.79492 1.20700
Fe	Fe	0.62500 0.62500 0.45508 1.21000
Fe	Fe	0.62500 0.12500 0.95508 1.21300
Fe	Fe	0.12500 0.62500 0.95508 1.21200
Fe	Fe	0.12500 0.12500 0.45508 1.20700
Fe	Fe	0.50000 0.25000 0.25000 1.22500
Fe	Fe	0.00000 0.25000 0.75000 1.19100
Fe	Fe	0.25000 0.50000 0.25000 1.22500
Fe	Fe	0.25000 -0.00000 0.75000 1.20000
Fe	Fe	0.75000 -0.00000 0.25000 1.20000
Fe	Fe	0.25000 0.25000 0.50000 1.22500
Fe	Fe	0.25000 0.75000 -0.00000 1.21700
Fe	Fe	0.75000 0.25000 -0.00000 1.21600
Fe	Fe	0.50000 0.50000 0.50000 1.22500
Fe	Fe	0.50000 0.00000 -0.00000 1.19200
Fe	Fe	-0.00000 0.50000 -0.00000 1.18200
Fe	Fe	-0.00000 -0.00000 0.50000 1.16700
Fe	Fe	0.50000 0.75000 0.75000 1.22500
Fe	Fe	0.00000 0.75000 0.25000 1.19100
Fe	Fe	0.75000 0.50000 0.75000 1.22500
Fe	Fe	0.75000 0.75000 0.50000 1.22500
C 	C 	0.62500 0.12500 0.22704 0.41000
C 	C 	0.62500 0.62500 0.72704 0.39800
C 	C 	0.12500 0.62500 0.22704 0.39100
C 	C 	0.12500 0.12500 0.72704 0.40300
C 	C 	0.12500 0.12500 0.52296 0.40300
C 	C 	0.12500 0.62500 0.02296 0.39200
C 	C 	0.62500 0.62500 0.52296 0.39800
C 	C 	0.62500 0.12500 0.02296 0.41100
C 	C 	0.37500 0.87500 0.77296 0.38300
C 	C 	0.37500 0.37500 0.27296 0.39700
C 	C 	0.87500 0.37500 0.77296 0.40100
C 	C 	0.87500 0.87500 0.27296 0.38700
C 	C 	0.87500 0.87500 0.47704 0.38700
C 	C 	0.87500 0.37500 0.97704 0.39800
C 	C 	0.37500 0.37500 0.47704 0.39700
C 	C 	0.37500 0.87500 0.97704 0.38100
H 	H 	0.62500 0.98500 0.12500 0.18000
H 	H 	0.62500 0.48500 0.62500 0.11300
H 	H 	0.12500 0.76500 0.12500 0.11000
H 	H 	0.12500 0.26500 0.62500 0.10500
H 	H 	0.62500 0.76500 0.62500 0.11400
H 	H 	0.12500 0.98500 0.62500 0.17500
H 	H 	0.12500 0.48500 0.12500 0.10900
H 	H 	0.62500 0.26500 0.12500 0.11000
H 	H 	0.37500 0.01500 0.87500 0.04600
H 	H 	0.37500 0.51500 0.37500 0.11300
H 	H 	0.87500 0.23500 0.87500 0.11600
H 	H 	0.87500 0.73500 0.37500 0.12100
H 	H 	0.87500 0.01500 0.37500 0.05100
H 	H 	0.87500 0.51500 0.87500 0.11700
H 	H 	0.37500 0.23500 0.37500 0.11200
H 	H 	0.37500 0.73500 0.87500 0.11600
