data_crystal

_cell_length_a 18.46800
_cell_length_b 18.46800
_cell_length_c 24.16000
_cell_angle_alpha 90.00000
_cell_angle_beta  90.00000
_cell_angle_gamma 120.00000

_symmetry_space_group_name_	'P 1'
_symmetry_space_group_name_H-M	'P 1'

loop_
_symmetry_equiv_pos_as_xyz
  x,y,z

loop_
_atom_site_label
_atom_site_type_symbol
_atom_site_fract_x
_atom_site_fract_y
_atom_site_fract_z
_atom_site_charge
C 	C 	0.55200 0.64270 0.54560 0.40700
O 	O 	0.52030 0.62970 0.49838 -0.48800
O 	O 	0.56290 0.59080 0.57360 -0.48000
C 	C 	0.57940 0.72410 0.57218 -0.12200
C 	C 	0.62220 0.74700 0.62082 0.00000
H 	H 	0.63610 0.71040 0.63780 0.04200
C 	C 	0.35730 0.90930 0.54560 0.40600
O 	O 	0.37030 0.89060 0.49838 -0.48900
O 	O 	0.40920 0.97210 0.57360 -0.48000
C 	C 	0.27590 0.85530 0.57218 -0.12200
C 	C 	0.25300 0.87520 0.62082 -0.00000
H 	H 	0.28960 0.92570 0.63780 0.04200
C 	C 	0.09070 0.44800 0.54560 0.40600
O 	O 	0.10940 0.47970 0.49838 -0.48900
O 	O 	0.02790 0.43710 0.57360 -0.48000
C 	C 	0.14470 0.42060 0.57218 -0.12200
C 	C 	0.12480 0.37780 0.62082 -0.00000
H 	H 	0.07430 0.36390 0.63780 0.04200
C 	C 	0.44800 0.35730 0.04560 0.40600
O 	O 	0.47970 0.37030 0.99838 -0.49000
O 	O 	0.43710 0.40920 0.07360 -0.48000
C 	C 	0.42060 0.27590 0.07218 -0.12200
C 	C 	0.37780 0.25300 0.12082 0.00000
H 	H 	0.36390 0.28960 0.13780 0.04200
C 	C 	0.64270 0.09070 0.04560 0.40800
O 	O 	0.62970 0.10940 0.99838 -0.49100
O 	O 	0.59080 0.02790 0.07360 -0.48000
C 	C 	0.72410 0.14470 0.07218 -0.12200
C 	C 	0.74700 0.12480 0.12082 0.00100
H 	H 	0.71040 0.07430 0.13780 0.04200
C 	C 	0.90930 0.55200 0.04560 0.40700
O 	O 	0.89060 0.52030 0.99838 -0.49100
O 	O 	0.97210 0.56290 0.07360 -0.48000
C 	C 	0.85530 0.57940 0.07218 -0.12200
C 	C 	0.87520 0.62220 0.12082 0.00000
H 	H 	0.92570 0.63610 0.13780 0.04200
C 	C 	0.64270 0.55200 0.45440 0.40600
O 	O 	0.62970 0.52030 0.50162 -0.48900
O 	O 	0.59080 0.56290 0.42640 -0.48000
C 	C 	0.72410 0.57940 0.42782 -0.12200
C 	C 	0.74700 0.62220 0.37918 0.00000
H 	H 	0.71040 0.63610 0.36220 0.04200
C 	C 	0.90930 0.35730 0.45440 0.40600
O 	O 	0.89060 0.37030 0.50162 -0.48900
O 	O 	0.97210 0.40920 0.42640 -0.48000
C 	C 	0.85530 0.27590 0.42782 -0.12200
C 	C 	0.87520 0.25300 0.37918 -0.00000
H 	H 	0.92570 0.28960 0.36220 0.04200
C 	C 	0.44800 0.09070 0.45440 0.40600
O 	O 	0.47970 0.10940 0.50162 -0.48900
O 	O 	0.43710 0.02790 0.42640 -0.48000
C 	C 	0.42060 0.14470 0.42782 -0.12200
C 	C 	0.37780 0.12480 0.37918 -0.00000
H 	H 	0.36390 0.07430 0.36220 0.04200
C 	C 	0.35730 0.44800 0.95440 0.40600
O 	O 	0.37030 0.47970 0.00162 -0.49000
O 	O 	0.40920 0.43710 0.92640 -0.48000
C 	C 	0.27590 0.42060 0.92782 -0.12200
C 	C 	0.25300 0.37780 0.87918 0.00000
H 	H 	0.28960 0.36390 0.86220 0.04200
C 	C 	0.09070 0.64270 0.95440 0.40800
O 	O 	0.10940 0.62970 0.00162 -0.49100
O 	O 	0.02790 0.59080 0.92640 -0.48000
C 	C 	0.14470 0.72410 0.92782 -0.12200
C 	C 	0.12480 0.74700 0.87918 0.00100
H 	H 	0.07430 0.71040 0.86220 0.04200
C 	C 	0.55200 0.90930 0.95440 0.40700
O 	O 	0.52030 0.89060 0.00162 -0.49100
O 	O 	0.56290 0.97210 0.92640 -0.48000
C 	C 	0.57940 0.85530 0.92782 -0.12200
C 	C 	0.62220 0.87520 0.87918 0.00000
H 	H 	0.63610 0.92570 0.86220 0.04200
C 	C 	0.44800 0.35730 0.45440 0.40600
O 	O 	0.47970 0.37030 0.50162 -0.48900
O 	O 	0.43710 0.40920 0.42640 -0.48000
C 	C 	0.42060 0.27590 0.42782 -0.12200
C 	C 	0.37780 0.25300 0.37918 0.00000
H 	H 	0.36390 0.28960 0.36220 0.04200
C 	C 	0.64270 0.09070 0.45440 0.40600
O 	O 	0.62970 0.10940 0.50162 -0.48900
O 	O 	0.59080 0.02790 0.42640 -0.48000
C 	C 	0.72410 0.14470 0.42782 -0.12200
C 	C 	0.74700 0.12480 0.37918 -0.00000
H 	H 	0.71040 0.07430 0.36220 0.04200
C 	C 	0.90930 0.55200 0.45440 0.40600
O 	O 	0.89060 0.52030 0.50162 -0.48900
O 	O 	0.97210 0.56290 0.42640 -0.48000
C 	C 	0.85530 0.57940 0.42782 -0.12200
C 	C 	0.87520 0.62220 0.37918 -0.00000
H 	H 	0.92570 0.63610 0.36220 0.04200
C 	C 	0.55200 0.64270 0.95440 0.40600
O 	O 	0.52030 0.62970 0.00162 -0.49000
O 	O 	0.56290 0.59080 0.92640 -0.48000
C 	C 	0.57940 0.72410 0.92782 -0.12200
C 	C 	0.62220 0.74700 0.87918 0.00000
H 	H 	0.63610 0.71040 0.86220 0.04200
C 	C 	0.35730 0.90930 0.95440 0.40800
O 	O 	0.37030 0.89060 0.00162 -0.49100
O 	O 	0.40920 0.97210 0.92640 -0.48000
C 	C 	0.27590 0.85530 0.92782 -0.12200
C 	C 	0.25300 0.87520 0.87918 0.00100
H 	H 	0.28960 0.92570 0.86220 0.04200
C 	C 	0.09070 0.44800 0.95440 0.40700
O 	O 	0.10940 0.47970 0.00162 -0.49100
O 	O 	0.02790 0.43710 0.92640 -0.48000
C 	C 	0.14470 0.42060 0.92782 -0.12200
C 	C 	0.12480 0.37780 0.87918 0.00000
H 	H 	0.07430 0.36390 0.86220 0.04200
C 	C 	0.35730 0.44800 0.54560 0.40600
O 	O 	0.37030 0.47970 0.49838 -0.48900
O 	O 	0.40920 0.43710 0.57360 -0.48000
C 	C 	0.27590 0.42060 0.57218 -0.12200
C 	C 	0.25300 0.37780 0.62082 0.00000
H 	H 	0.28960 0.36390 0.63780 0.04200
C 	C 	0.09070 0.64270 0.54560 0.40600
O 	O 	0.10940 0.62970 0.49838 -0.48900
O 	O 	0.02790 0.59080 0.57360 -0.48000
C 	C 	0.14470 0.72410 0.57218 -0.12200
C 	C 	0.12480 0.74700 0.62082 -0.00000
H 	H 	0.07430 0.71040 0.63780 0.04200
C 	C 	0.55200 0.90930 0.54560 0.40600
O 	O 	0.52030 0.89060 0.49838 -0.48900
O 	O 	0.56290 0.97210 0.57360 -0.48000
C 	C 	0.57940 0.85530 0.57218 -0.12200
C 	C 	0.62220 0.87520 0.62082 -0.00000
H 	H 	0.63610 0.92570 0.63780 0.04200
C 	C 	0.64270 0.55200 0.04560 0.40600
O 	O 	0.62970 0.52030 0.99838 -0.49000
O 	O 	0.59080 0.56290 0.07360 -0.48000
C 	C 	0.72410 0.57940 0.07218 -0.12200
C 	C 	0.74700 0.62220 0.12082 0.00000
H 	H 	0.71040 0.63610 0.13780 0.04200
C 	C 	0.90930 0.35730 0.04560 0.40800
O 	O 	0.89060 0.37030 0.99838 -0.49100
O 	O 	0.97210 0.40920 0.07360 -0.48000
C 	C 	0.85530 0.27590 0.07218 -0.12200
C 	C 	0.87520 0.25300 0.12082 0.00100
H 	H 	0.92570 0.28960 0.13780 0.04200
C 	C 	0.44800 0.09070 0.04560 0.40700
O 	O 	0.47970 0.10940 0.99838 -0.49100
O 	O 	0.43710 0.02790 0.07360 -0.48000
C 	C 	0.42060 0.14470 0.07218 -0.12200
C 	C 	0.37780 0.12480 0.12082 0.00000
H 	H 	0.36390 0.07430 0.13780 0.04200
Zn	Zn	0.47293 0.52707 0.44989 1.20000
Zn	Zn	0.47293 0.94585 0.44989 1.20000
Zn	Zn	0.05415 0.52707 0.44989 1.20000
Zn	Zn	0.52707 0.47293 0.94989 1.20000
Zn	Zn	0.52707 0.05415 0.94989 1.20000
Zn	Zn	0.94585 0.47293 0.94989 1.20000
Zn	Zn	0.52707 0.47293 0.55011 1.20000
Zn	Zn	0.94585 0.47293 0.55011 1.20000
Zn	Zn	0.52707 0.05415 0.55011 1.20000
Zn	Zn	0.47293 0.52707 0.05011 1.20000
Zn	Zn	0.05415 0.52707 0.05011 1.20000
Zn	Zn	0.47293 0.94585 0.05011 1.20000
C 	C 	0.55650 0.77825 0.54600 0.05000
H 	H 	0.52750 0.76375 0.51260 0.03300
C 	C 	0.64560 0.82280 0.64570 -0.01200
C 	C 	0.69280 0.84640 0.69980 -0.02200
H 	H 	0.53660 0.76830 0.78080 0.15000
C 	C 	0.77530 0.88765 0.70060 -0.05700
H 	H 	0.80450 0.90225 0.66740 0.05200
C 	C 	0.22175 0.77825 0.54600 0.05000
H 	H 	0.23625 0.76375 0.51260 0.03300
C 	C 	0.17720 0.82280 0.64570 -0.01200
C 	C 	0.15360 0.84640 0.69980 -0.02200
H 	H 	0.23170 0.76830 0.78080 0.15000
C 	C 	0.11235 0.88765 0.70060 -0.05700
H 	H 	0.09775 0.90225 0.66740 0.05200
C 	C 	0.22175 0.44350 0.54600 0.05000
H 	H 	0.23625 0.47250 0.51260 0.03300
C 	C 	0.17720 0.35440 0.64570 -0.01200
C 	C 	0.15360 0.30720 0.69980 -0.02200
H 	H 	0.23170 0.46340 0.78080 0.15000
C 	C 	0.11235 0.22470 0.70060 -0.05700
H 	H 	0.09775 0.19550 0.66740 0.05200
C 	C 	0.44350 0.22175 0.04600 0.05000
H 	H 	0.47250 0.23625 0.01260 0.03300
C 	C 	0.35440 0.17720 0.14570 -0.01200
C 	C 	0.30720 0.15360 0.19980 -0.02200
H 	H 	0.46340 0.23170 0.28080 0.15000
C 	C 	0.22470 0.11235 0.20060 -0.05700
H 	H 	0.19550 0.09775 0.16740 0.05200
C 	C 	0.77825 0.22175 0.04600 0.05000
H 	H 	0.76375 0.23625 0.01260 0.03300
C 	C 	0.82280 0.17720 0.14570 -0.01200
C 	C 	0.84640 0.15360 0.19980 -0.02200
H 	H 	0.76830 0.23170 0.28080 0.15000
C 	C 	0.88765 0.11235 0.20060 -0.05700
H 	H 	0.90225 0.09775 0.16740 0.05200
C 	C 	0.77825 0.55650 0.04600 0.05000
H 	H 	0.76375 0.52750 0.01260 0.03300
C 	C 	0.82280 0.64560 0.14570 -0.01200
C 	C 	0.84640 0.69280 0.19980 -0.02200
H 	H 	0.76830 0.53660 0.28080 0.15000
C 	C 	0.88765 0.77530 0.20060 -0.05700
H 	H 	0.90225 0.80450 0.16740 0.05200
C 	C 	0.77825 0.55650 0.45400 0.05000
H 	H 	0.76375 0.52750 0.48740 0.03300
C 	C 	0.82280 0.64560 0.35430 -0.01200
C 	C 	0.84640 0.69280 0.30020 -0.02200
H 	H 	0.76830 0.53660 0.21920 0.15000
C 	C 	0.88765 0.77530 0.29940 -0.05700
H 	H 	0.90225 0.80450 0.33260 0.05200
C 	C 	0.77825 0.22175 0.45400 0.05000
H 	H 	0.76375 0.23625 0.48740 0.03300
C 	C 	0.82280 0.17720 0.35430 -0.01200
C 	C 	0.84640 0.15360 0.30020 -0.02200
H 	H 	0.76830 0.23170 0.21920 0.15000
C 	C 	0.88765 0.11235 0.29940 -0.05700
H 	H 	0.90225 0.09775 0.33260 0.05200
C 	C 	0.44350 0.22175 0.45400 0.05000
H 	H 	0.47250 0.23625 0.48740 0.03300
C 	C 	0.35440 0.17720 0.35430 -0.01200
C 	C 	0.30720 0.15360 0.30020 -0.02200
H 	H 	0.46340 0.23170 0.21920 0.15000
C 	C 	0.22470 0.11235 0.29940 -0.05700
H 	H 	0.19550 0.09775 0.33260 0.05200
C 	C 	0.22175 0.44350 0.95400 0.05000
H 	H 	0.23625 0.47250 0.98740 0.03300
C 	C 	0.17720 0.35440 0.85430 -0.01200
C 	C 	0.15360 0.30720 0.80020 -0.02200
H 	H 	0.23170 0.46340 0.71920 0.15000
C 	C 	0.11235 0.22470 0.79940 -0.05700
H 	H 	0.09775 0.19550 0.83260 0.05200
C 	C 	0.22175 0.77825 0.95400 0.05000
H 	H 	0.23625 0.76375 0.98740 0.03300
C 	C 	0.17720 0.82280 0.85430 -0.01200
C 	C 	0.15360 0.84640 0.80020 -0.02200
H 	H 	0.23170 0.76830 0.71920 0.15000
C 	C 	0.11235 0.88765 0.79940 -0.05700
H 	H 	0.09775 0.90225 0.83260 0.05200
C 	C 	0.55650 0.77825 0.95400 0.05000
H 	H 	0.52750 0.76375 0.98740 0.03300
C 	C 	0.64560 0.82280 0.85430 -0.01200
C 	C 	0.69280 0.84640 0.80020 -0.02200
H 	H 	0.53660 0.76830 0.71920 0.15000
C 	C 	0.77530 0.88765 0.79940 -0.05700
H 	H 	0.80450 0.90225 0.83260 0.05200
C 	C 	0.65090 0.82545 0.75000 0.07900
N 	N 	0.56340 0.78170 0.75000 -0.30100
C 	C 	0.81920 0.90960 0.75000 -0.02900
H 	H 	0.87740 0.93870 0.75000 0.03500
C 	C 	0.17455 0.82545 0.75000 0.07900
N 	N 	0.21830 0.78170 0.75000 -0.30100
C 	C 	0.09040 0.90960 0.75000 -0.02900
H 	H 	0.06130 0.93870 0.75000 0.03600
C 	C 	0.17455 0.34910 0.75000 0.07900
N 	N 	0.21830 0.43660 0.75000 -0.30100
C 	C 	0.09040 0.18080 0.75000 -0.02900
H 	H 	0.06130 0.12260 0.75000 0.03500
C 	C 	0.34910 0.17455 0.25000 0.07900
N 	N 	0.43660 0.21830 0.25000 -0.30100
C 	C 	0.18080 0.09040 0.25000 -0.02900
H 	H 	0.12260 0.06130 0.25000 0.03500
C 	C 	0.82545 0.17455 0.25000 0.07900
N 	N 	0.78170 0.21830 0.25000 -0.30100
C 	C 	0.90960 0.09040 0.25000 -0.02900
H 	H 	0.93870 0.06130 0.25000 0.03600
C 	C 	0.82545 0.65090 0.25000 0.07900
N 	N 	0.78170 0.56340 0.25000 -0.30100
C 	C 	0.90960 0.81920 0.25000 -0.02900
H 	H 	0.93870 0.87740 0.25000 0.03500
