data_crystal

_cell_length_a 42.33590
_cell_length_b 42.33590
_cell_length_c 42.33590
_cell_angle_alpha 60.00000
_cell_angle_beta  60.00000
_cell_angle_gamma 60.00000

_symmetry_space_group_name_	'P 1'
_symmetry_space_group_name_H-M	'P 1'

loop_
_symmetry_equiv_pos_as_xyz
  x,y,z

loop_
_atom_site_label
_atom_site_type_symbol
_atom_site_fract_x
_atom_site_fract_y
_atom_site_fract_z
_atom_site_charge
Cu	Cu	0.81073 0.00000 -0.00000 0.88500
Cu	Cu	0.74811 0.00000 -0.00000 0.88400
Cu	Cu	-0.00000 0.81073 0.18927 0.89600
Cu	Cu	1.00000 0.74811 0.25189 0.90500
Cu	Cu	-0.00000 0.18927 0.81073 0.89600
Cu	Cu	-0.00000 0.25189 0.74811 0.89500
Cu	Cu	0.18927 0.00000 -0.00000 0.88500
Cu	Cu	0.25189 0.00000 -0.00000 0.88400
Cu	Cu	0.81073 -0.00000 0.18927 0.89400
Cu	Cu	0.74811 -0.00000 0.25189 0.89300
Cu	Cu	-0.00000 0.18927 -0.00000 0.88800
Cu	Cu	-0.00000 0.25189 -0.00000 0.88800
Cu	Cu	1.00000 0.81073 -0.00000 0.89900
Cu	Cu	1.00000 0.74811 -0.00000 0.89700
Cu	Cu	0.18927 -0.00000 0.81073 0.89500
Cu	Cu	0.25189 -0.00000 0.74811 0.89400
Cu	Cu	0.81073 0.18927 -0.00000 0.89300
Cu	Cu	0.74811 0.25189 -0.00000 0.89200
Cu	Cu	-0.00000 -0.00000 0.81073 0.89000
Cu	Cu	-0.00000 -0.00000 0.74811 0.88900
Cu	Cu	-0.00000 -0.00000 0.18927 0.88900
Cu	Cu	-0.00000 1.00000 0.25189 0.90400
Cu	Cu	0.18927 0.81073 -0.00000 0.89400
Cu	Cu	0.25189 0.74811 -0.00000 0.89200
H 	H 	0.68170 0.98010 0.12110 0.04600
H 	H 	0.56140 0.97420 0.18540 0.06500
H 	H 	0.49830 0.96890 0.21930 0.04300
H 	H 	0.98010 0.68170 0.21710 0.04600
H 	H 	0.97420 0.56140 0.27900 0.06500
H 	H 	0.96890 0.49830 0.31350 0.04400
H 	H 	0.12110 0.21710 0.68170 0.04300
H 	H 	0.18540 0.27900 0.56140 0.06300
H 	H 	0.21930 0.31350 0.49830 0.04200
H 	H 	0.21710 0.12110 0.98010 0.04600
H 	H 	0.27900 0.18540 0.97420 0.06500
H 	H 	0.31350 0.21930 0.96890 0.04400
H 	H 	0.68170 0.12110 0.21710 0.04300
H 	H 	0.56140 0.18540 0.27900 0.06300
H 	H 	0.49830 0.21930 0.31350 0.04200
H 	H 	0.98010 0.21710 0.12110 0.04400
H 	H 	0.97420 0.27900 0.18540 0.06400
H 	H 	0.96890 0.31350 0.21930 0.04300
H 	H 	0.12110 0.68170 0.98010 0.04700
H 	H 	0.18540 0.56140 0.97420 0.06600
H 	H 	0.21930 0.49830 0.96890 0.04400
H 	H 	0.21710 0.98010 0.68170 0.04700
H 	H 	0.27900 0.97420 0.56140 0.06600
H 	H 	0.31350 0.96890 0.49830 0.04400
H 	H 	0.68170 0.21710 0.98010 0.04800
H 	H 	0.56140 0.27900 0.97420 0.06600
H 	H 	0.49830 0.31350 0.96890 0.04400
H 	H 	0.98010 0.12110 0.68170 0.04500
H 	H 	0.97420 0.18540 0.56140 0.06400
H 	H 	0.96890 0.21930 0.49830 0.04300
H 	H 	0.12110 0.98010 0.21710 0.04600
H 	H 	0.18540 0.97420 0.27900 0.06500
H 	H 	0.21930 0.96890 0.31350 0.04400
H 	H 	0.21710 0.68170 0.12110 0.04200
H 	H 	0.27900 0.56140 0.18540 0.06300
H 	H 	0.31350 0.49830 0.21930 0.04100
H 	H 	0.01990 0.31830 0.87890 0.04600
H 	H 	0.02580 0.43860 0.81460 0.06500
H 	H 	0.03110 0.50170 0.78070 0.04300
H 	H 	0.31830 0.01990 0.78290 0.04300
H 	H 	0.43860 0.02580 0.72100 0.06300
H 	H 	0.50170 0.03110 0.68650 0.04200
H 	H 	0.78290 0.87890 0.31830 0.04700
H 	H 	0.72100 0.81460 0.43860 0.06600
H 	H 	0.68650 0.78070 0.50170 0.04400
H 	H 	0.87890 0.78290 0.01990 0.04400
H 	H 	0.81460 0.72100 0.02580 0.06300
H 	H 	0.78070 0.68650 0.03110 0.04200
H 	H 	0.87890 0.31830 0.78290 0.04700
H 	H 	0.81460 0.43860 0.72100 0.06600
H 	H 	0.78070 0.50170 0.68650 0.04400
H 	H 	0.78290 0.01990 0.87890 0.04500
H 	H 	0.72100 0.02580 0.81460 0.06400
H 	H 	0.68650 0.03110 0.78070 0.04300
H 	H 	0.31830 0.87890 0.01990 0.04400
H 	H 	0.43860 0.81460 0.02580 0.06400
H 	H 	0.50170 0.78070 0.03110 0.04200
H 	H 	0.01990 0.78290 0.31830 0.04400
H 	H 	0.02580 0.72100 0.43860 0.06400
H 	H 	0.03110 0.68650 0.50170 0.04200
H 	H 	0.78290 0.31830 0.01990 0.04200
H 	H 	0.72100 0.43860 0.02580 0.06200
H 	H 	0.68650 0.50170 0.03110 0.04100
H 	H 	0.87890 0.01990 0.31830 0.04400
H 	H 	0.81460 0.02580 0.43860 0.06400
H 	H 	0.78070 0.03110 0.50170 0.04200
H 	H 	0.01990 0.87890 0.78290 0.04600
H 	H 	0.02580 0.81460 0.72100 0.06500
H 	H 	0.03110 0.78070 0.68650 0.04300
H 	H 	0.31830 0.78290 0.87890 0.04800
H 	H 	0.43860 0.72100 0.81460 0.06600
H 	H 	0.50170 0.68650 0.78070 0.04400
H 	H 	0.31830 0.01990 0.87890 0.04500
H 	H 	0.43860 0.02580 0.81460 0.06400
H 	H 	0.50170 0.03110 0.78070 0.04300
H 	H 	0.01990 0.31830 0.78290 0.04400
H 	H 	0.02580 0.43860 0.72100 0.06400
H 	H 	0.03110 0.50170 0.68650 0.04200
H 	H 	0.87890 0.78290 0.31830 0.04700
H 	H 	0.81460 0.72100 0.43860 0.06600
H 	H 	0.78070 0.68650 0.50170 0.04400
H 	H 	0.78290 0.87890 0.01990 0.04500
H 	H 	0.72100 0.81460 0.02580 0.06400
H 	H 	0.68650 0.78070 0.03110 0.04200
H 	H 	0.31830 0.87890 0.78290 0.04800
H 	H 	0.43860 0.81460 0.72100 0.06600
H 	H 	0.50170 0.78070 0.68650 0.04400
H 	H 	0.01990 0.78290 0.87890 0.04600
H 	H 	0.02580 0.72100 0.81460 0.06500
H 	H 	0.03110 0.68650 0.78070 0.04300
H 	H 	0.87890 0.31830 0.01990 0.04300
H 	H 	0.81460 0.43860 0.02580 0.06300
H 	H 	0.78070 0.50170 0.03110 0.04200
H 	H 	0.78290 0.01990 0.31830 0.04300
H 	H 	0.72100 0.02580 0.43860 0.06300
H 	H 	0.68650 0.03110 0.50170 0.04200
H 	H 	0.31830 0.78290 0.01990 0.04300
H 	H 	0.43860 0.72100 0.02580 0.06300
H 	H 	0.50170 0.68650 0.03110 0.04100
H 	H 	0.01990 0.87890 0.31830 0.04500
H 	H 	0.02580 0.81460 0.43860 0.06500
H 	H 	0.03110 0.78070 0.50170 0.04300
H 	H 	0.87890 0.01990 0.78290 0.04500
H 	H 	0.81460 0.02580 0.72100 0.06400
H 	H 	0.78070 0.03110 0.68650 0.04200
H 	H 	0.78290 0.31830 0.87890 0.04800
H 	H 	0.72100 0.43860 0.81460 0.06600
H 	H 	0.68650 0.50170 0.78070 0.04400
H 	H 	0.98010 0.68170 0.12110 0.04400
H 	H 	0.97420 0.56140 0.18540 0.06400
H 	H 	0.96890 0.49830 0.21930 0.04300
H 	H 	0.68170 0.98010 0.21710 0.04700
H 	H 	0.56140 0.97420 0.27900 0.06600
H 	H 	0.49830 0.96890 0.31350 0.04400
H 	H 	0.21710 0.12110 0.68170 0.04300
H 	H 	0.27900 0.18540 0.56140 0.06300
H 	H 	0.31350 0.21930 0.49830 0.04200
H 	H 	0.12110 0.21710 0.98010 0.04600
H 	H 	0.18540 0.27900 0.97420 0.06600
H 	H 	0.21930 0.31350 0.96890 0.04400
H 	H 	0.12110 0.68170 0.21710 0.04300
H 	H 	0.18540 0.56140 0.27900 0.06300
H 	H 	0.21930 0.49830 0.31350 0.04200
H 	H 	0.21710 0.98010 0.12110 0.04500
H 	H 	0.27900 0.97420 0.18540 0.06500
H 	H 	0.31350 0.96890 0.21930 0.04300
H 	H 	0.68170 0.12110 0.98010 0.04600
H 	H 	0.56140 0.18540 0.97420 0.06500
H 	H 	0.49830 0.21930 0.96890 0.04400
H 	H 	0.98010 0.21710 0.68170 0.04600
H 	H 	0.97420 0.27900 0.56140 0.06500
H 	H 	0.96890 0.31350 0.49830 0.04400
H 	H 	0.21710 0.68170 0.98010 0.04800
H 	H 	0.27900 0.56140 0.97420 0.06600
H 	H 	0.31350 0.49830 0.96890 0.04500
H 	H 	0.12110 0.98010 0.68170 0.04700
H 	H 	0.18540 0.97420 0.56140 0.06500
H 	H 	0.21930 0.96890 0.49830 0.04400
H 	H 	0.98010 0.12110 0.21710 0.04400
H 	H 	0.97420 0.18540 0.27900 0.06400
H 	H 	0.96890 0.21930 0.31350 0.04300
H 	H 	0.68170 0.21710 0.12110 0.04200
H 	H 	0.56140 0.27900 0.18540 0.06200
H 	H 	0.49830 0.31350 0.21930 0.04100
H 	H 	0.77360 0.98840 0.11900 0.03700
H 	H 	0.98840 0.77360 0.11900 0.03600
H 	H 	0.11900 0.11900 0.77360 0.03300
H 	H 	0.11900 0.11900 0.98840 0.03700
H 	H 	0.77360 0.11900 0.11900 0.03200
H 	H 	0.98840 0.11900 0.11900 0.03400
H 	H 	0.11900 0.77360 0.98840 0.03900
H 	H 	0.11900 0.98840 0.77360 0.03800
H 	H 	0.77360 0.11900 0.98840 0.03800
H 	H 	0.98840 0.11900 0.77360 0.03600
H 	H 	0.11900 0.98840 0.11900 0.03600
H 	H 	0.11900 0.77360 0.11900 0.03200
H 	H 	0.01160 0.22640 0.88100 0.03500
H 	H 	0.22640 0.01160 0.88100 0.03400
H 	H 	0.88100 0.88100 0.22640 0.03800
H 	H 	0.88100 0.88100 0.01160 0.03500
H 	H 	0.88100 0.22640 0.88100 0.03800
H 	H 	0.88100 0.01160 0.88100 0.03600
H 	H 	0.22640 0.88100 0.01160 0.03300
H 	H 	0.01160 0.88100 0.22640 0.03500
H 	H 	0.88100 0.22640 0.01160 0.03200
H 	H 	0.88100 0.01160 0.22640 0.03300
H 	H 	0.01160 0.88100 0.88100 0.03700
H 	H 	0.22640 0.88100 0.88100 0.03900
H 	H 	0.37600 0.96680 0.28120 0.11500
H 	H 	0.96680 0.37600 0.37600 0.11500
H 	H 	0.28120 0.37600 0.37600 0.11300
H 	H 	0.37600 0.28120 0.96680 0.11500
H 	H 	0.37600 0.28120 0.37600 0.11300
H 	H 	0.96680 0.37600 0.28120 0.11400
H 	H 	0.28120 0.37600 0.96680 0.11500
H 	H 	0.37600 0.96680 0.37600 0.11500
H 	H 	0.37600 0.37600 0.96680 0.11600
H 	H 	0.96680 0.28120 0.37600 0.11400
H 	H 	0.28120 0.96680 0.37600 0.11500
H 	H 	0.37600 0.37600 0.28120 0.11300
H 	H 	0.03320 0.62400 0.71880 0.11400
H 	H 	0.62400 0.03320 0.62400 0.11300
H 	H 	0.62400 0.71880 0.62400 0.11500
H 	H 	0.71880 0.62400 0.03320 0.11300
H 	H 	0.71880 0.62400 0.62400 0.11500
H 	H 	0.62400 0.03320 0.71880 0.11400
H 	H 	0.62400 0.71880 0.03320 0.11300
H 	H 	0.03320 0.62400 0.62400 0.11400
H 	H 	0.62400 0.62400 0.03320 0.11300
H 	H 	0.71880 0.03320 0.62400 0.11400
H 	H 	0.03320 0.71880 0.62400 0.11400
H 	H 	0.62400 0.62400 0.71880 0.11600
C 	C 	0.74794 0.98598 0.07538 0.35700
C 	C 	0.73076 0.98540 0.11330 -0.13000
C 	C 	0.69442 0.98082 0.13384 0.01000
C 	C 	0.54900 0.97160 0.21200 -0.08900
C 	C 	0.51160 0.96860 0.23220 -0.02900
C 	C 	0.98598 0.74794 0.19070 0.35800
C 	C 	0.98540 0.73076 0.17054 -0.13100
C 	C 	0.98082 0.69442 0.19092 0.01000
C 	C 	0.97160 0.54900 0.26740 -0.08900
C 	C 	0.96860 0.51160 0.28760 -0.02900
C 	C 	0.07538 0.19070 0.74794 0.36000
C 	C 	0.11330 0.17054 0.73076 -0.13600
C 	C 	0.13384 0.19092 0.69442 0.01200
C 	C 	0.21200 0.26740 0.54900 -0.08900
C 	C 	0.23220 0.28760 0.51160 -0.03000
C 	C 	0.19070 0.07538 0.98598 0.35700
C 	C 	0.17054 0.11330 0.98540 -0.13000
C 	C 	0.19092 0.13384 0.98082 0.01000
C 	C 	0.26740 0.21200 0.97160 -0.08900
C 	C 	0.28760 0.23220 0.96860 -0.02800
C 	C 	0.74794 0.07538 0.19070 0.36100
C 	C 	0.73076 0.11330 0.17054 -0.13800
C 	C 	0.69442 0.13384 0.19092 0.01200
C 	C 	0.54900 0.21200 0.26740 -0.09000
C 	C 	0.51160 0.23220 0.28760 -0.03000
C 	C 	0.98598 0.19070 0.07538 0.35900
C 	C 	0.98540 0.17054 0.11330 -0.13400
C 	C 	0.98082 0.19092 0.13384 0.01100
C 	C 	0.97160 0.26740 0.21200 -0.08900
C 	C 	0.96860 0.28760 0.23220 -0.02900
C 	C 	0.07538 0.74794 0.98598 0.35700
C 	C 	0.11330 0.73076 0.98540 -0.12800
C 	C 	0.13384 0.69442 0.98082 0.00900
C 	C 	0.21200 0.54900 0.97160 -0.08800
C 	C 	0.23220 0.51160 0.96860 -0.02800
C 	C 	0.19070 0.98598 0.74794 0.35600
C 	C 	0.17054 0.98540 0.73076 -0.12800
C 	C 	0.19092 0.98082 0.69442 0.00900
C 	C 	0.26740 0.97160 0.54900 -0.08800
C 	C 	0.28760 0.96860 0.51160 -0.02800
C 	C 	0.74794 0.19070 0.98598 0.35600
C 	C 	0.73076 0.17054 0.98540 -0.12700
C 	C 	0.69442 0.19092 0.98082 0.00900
C 	C 	0.54900 0.26740 0.97160 -0.08800
C 	C 	0.51160 0.28760 0.96860 -0.02800
C 	C 	0.98598 0.07538 0.74794 0.35800
C 	C 	0.98540 0.11330 0.73076 -0.13200
C 	C 	0.98082 0.13384 0.69442 0.01000
C 	C 	0.97160 0.21200 0.54900 -0.08900
C 	C 	0.96860 0.23220 0.51160 -0.02900
C 	C 	0.07538 0.98598 0.19070 0.35800
C 	C 	0.11330 0.98540 0.17054 -0.13100
C 	C 	0.13384 0.98082 0.19092 0.01000
C 	C 	0.21200 0.97160 0.26740 -0.08900
C 	C 	0.23220 0.96860 0.28760 -0.02900
C 	C 	0.19070 0.74794 0.07538 0.36000
C 	C 	0.17054 0.73076 0.11330 -0.13700
C 	C 	0.19092 0.69442 0.13384 0.01200
C 	C 	0.26740 0.54900 0.21200 -0.09000
C 	C 	0.28760 0.51160 0.23220 -0.03000
C 	C 	0.01402 0.25206 0.92462 0.35700
C 	C 	0.01460 0.26924 0.88670 -0.13100
C 	C 	0.01918 0.30558 0.86616 0.01000
C 	C 	0.02840 0.45100 0.78800 -0.08900
C 	C 	0.03140 0.48840 0.76780 -0.02900
C 	C 	0.25206 0.01402 0.80930 0.36000
C 	C 	0.26924 0.01460 0.82946 -0.13500
C 	C 	0.30558 0.01918 0.80908 0.01100
C 	C 	0.45100 0.02840 0.73260 -0.08900
C 	C 	0.48840 0.03140 0.71240 -0.03000
C 	C 	0.80930 0.92462 0.25206 0.35600
C 	C 	0.82946 0.88670 0.26924 -0.12800
C 	C 	0.80908 0.86616 0.30558 0.00900
C 	C 	0.73260 0.78800 0.45100 -0.08800
C 	C 	0.71240 0.76780 0.48840 -0.02800
C 	C 	0.92462 0.80930 0.01402 0.35900
C 	C 	0.88670 0.82946 0.01460 -0.13400
C 	C 	0.86616 0.80908 0.01918 0.01100
C 	C 	0.78800 0.73260 0.02840 -0.08900
C 	C 	0.76780 0.71240 0.03140 -0.02900
C 	C 	0.92462 0.25206 0.80930 0.35700
C 	C 	0.88670 0.26924 0.82946 -0.12800
C 	C 	0.86616 0.30558 0.80908 0.00900
C 	C 	0.78800 0.45100 0.73260 -0.08900
C 	C 	0.76780 0.48840 0.71240 -0.02800
C 	C 	0.80930 0.01402 0.92462 0.35700
C 	C 	0.82946 0.01460 0.88670 -0.13100
C 	C 	0.80908 0.01918 0.86616 0.01000
C 	C 	0.73260 0.02840 0.78800 -0.08900
C 	C 	0.71240 0.03140 0.76780 -0.02900
C 	C 	0.25206 0.92462 0.01402 0.35800
C 	C 	0.26924 0.88670 0.01460 -0.13400
C 	C 	0.30558 0.86616 0.01918 0.01100
C 	C 	0.45100 0.78800 0.02840 -0.08900
C 	C 	0.48840 0.76780 0.03140 -0.03000
C 	C 	0.01402 0.80930 0.25206 0.36000
C 	C 	0.01460 0.82946 0.26924 -0.13500
C 	C 	0.01918 0.80908 0.30558 0.01100
C 	C 	0.02840 0.73260 0.45100 -0.08900
C 	C 	0.03140 0.71240 0.48840 -0.02900
C 	C 	0.80930 0.25206 0.01402 0.36000
C 	C 	0.82946 0.26924 0.01460 -0.13700
C 	C 	0.80908 0.30558 0.01918 0.01200
C 	C 	0.73260 0.45100 0.02840 -0.09000
C 	C 	0.71240 0.48840 0.03140 -0.03000
C 	C 	0.92462 0.01402 0.25206 0.36000
C 	C 	0.88670 0.01460 0.26924 -0.13600
C 	C 	0.86616 0.01918 0.30558 0.01200
C 	C 	0.78800 0.02840 0.45100 -0.08900
C 	C 	0.76780 0.03140 0.48840 -0.03000
C 	C 	0.01402 0.92462 0.80930 0.35700
C 	C 	0.01460 0.88670 0.82946 -0.13000
C 	C 	0.01918 0.86616 0.80908 0.00900
C 	C 	0.02840 0.78800 0.73260 -0.08900
C 	C 	0.03140 0.76780 0.71240 -0.02900
C 	C 	0.25206 0.80930 0.92462 0.35600
C 	C 	0.26924 0.82946 0.88670 -0.12600
C 	C 	0.30558 0.80908 0.86616 0.00800
C 	C 	0.45100 0.73260 0.78800 -0.08800
C 	C 	0.48840 0.71240 0.76780 -0.02800
C 	C 	0.25206 0.01402 0.92462 0.35700
C 	C 	0.26924 0.01460 0.88670 -0.13300
C 	C 	0.30558 0.01918 0.86616 0.01100
C 	C 	0.45100 0.02840 0.78800 -0.08900
C 	C 	0.48840 0.03140 0.76780 -0.02900
C 	C 	0.01402 0.25206 0.80930 0.35900
C 	C 	0.01460 0.26924 0.82946 -0.13400
C 	C 	0.01918 0.30558 0.80908 0.01100
C 	C 	0.02840 0.45100 0.73260 -0.08900
C 	C 	0.03140 0.48840 0.71240 -0.02900
C 	C 	0.92462 0.80930 0.25206 0.35800
C 	C 	0.88670 0.82946 0.26924 -0.12900
C 	C 	0.86616 0.80908 0.30558 0.00900
C 	C 	0.78800 0.73260 0.45100 -0.08900
C 	C 	0.76780 0.71240 0.48840 -0.02800
C 	C 	0.80930 0.92462 0.01402 0.35800
C 	C 	0.82946 0.88670 0.01460 -0.13300
C 	C 	0.80908 0.86616 0.01918 0.01100
C 	C 	0.73260 0.78800 0.02840 -0.08900
C 	C 	0.71240 0.76780 0.03140 -0.02900
C 	C 	0.25206 0.92462 0.80930 0.35600
C 	C 	0.26924 0.88670 0.82946 -0.12700
C 	C 	0.30558 0.86616 0.80908 0.00800
C 	C 	0.45100 0.78800 0.73260 -0.08800
C 	C 	0.48840 0.76780 0.71240 -0.02800
C 	C 	0.01402 0.80930 0.92462 0.35700
C 	C 	0.01460 0.82946 0.88670 -0.13000
C 	C 	0.01918 0.80908 0.86616 0.00900
C 	C 	0.02840 0.73260 0.78800 -0.08900
C 	C 	0.03140 0.71240 0.76780 -0.02900
C 	C 	0.92462 0.25206 0.01402 0.35900
C 	C 	0.88670 0.26924 0.01460 -0.13600
C 	C 	0.86616 0.30558 0.01918 0.01200
C 	C 	0.78800 0.45100 0.02840 -0.09000
C 	C 	0.76780 0.48840 0.03140 -0.03000
C 	C 	0.80930 0.01402 0.25206 0.36000
C 	C 	0.82946 0.01460 0.26924 -0.13600
C 	C 	0.80908 0.01918 0.30558 0.01200
C 	C 	0.73260 0.02840 0.45100 -0.09000
C 	C 	0.71240 0.03140 0.48840 -0.03000
C 	C 	0.25206 0.80930 0.01402 0.36000
C 	C 	0.26924 0.82946 0.01460 -0.13600
C 	C 	0.30558 0.80908 0.01918 0.01200
C 	C 	0.45100 0.73260 0.02840 -0.09000
C 	C 	0.48840 0.71240 0.03140 -0.03000
C 	C 	0.01402 0.92462 0.25206 0.35800
C 	C 	0.01460 0.88670 0.26924 -0.13300
C 	C 	0.01918 0.86616 0.30558 0.01100
C 	C 	0.02840 0.78800 0.45100 -0.08900
C 	C 	0.03140 0.76780 0.48840 -0.02900
C 	C 	0.92462 0.01402 0.80930 0.35800
C 	C 	0.88670 0.01460 0.82946 -0.13200
C 	C 	0.86616 0.01918 0.80908 0.01000
C 	C 	0.78800 0.02840 0.73260 -0.08900
C 	C 	0.76780 0.03140 0.71240 -0.02900
C 	C 	0.80930 0.25206 0.92462 0.35600
C 	C 	0.82946 0.26924 0.88670 -0.12700
C 	C 	0.80908 0.30558 0.86616 0.00900
C 	C 	0.73260 0.45100 0.78800 -0.08800
C 	C 	0.71240 0.48840 0.76780 -0.02800
C 	C 	0.98598 0.74794 0.07538 0.35900
C 	C 	0.98540 0.73076 0.11330 -0.13300
C 	C 	0.98082 0.69442 0.13384 0.01100
C 	C 	0.97160 0.54900 0.21200 -0.08900
C 	C 	0.96860 0.51160 0.23220 -0.02900
C 	C 	0.74794 0.98598 0.19070 0.35700
C 	C 	0.73076 0.98540 0.17054 -0.12900
C 	C 	0.69442 0.98082 0.19092 0.00900
C 	C 	0.54900 0.97160 0.26740 -0.08800
C 	C 	0.51160 0.96860 0.28760 -0.02800
C 	C 	0.19070 0.07538 0.74794 0.36000
C 	C 	0.17054 0.11330 0.73076 -0.13700
C 	C 	0.19092 0.13384 0.69442 0.01200
C 	C 	0.26740 0.21200 0.54900 -0.09000
C 	C 	0.28760 0.23220 0.51160 -0.03000
C 	C 	0.07538 0.19070 0.98598 0.35700
C 	C 	0.11330 0.17054 0.98540 -0.12900
C 	C 	0.13384 0.19092 0.98082 0.00900
C 	C 	0.21200 0.26740 0.97160 -0.08800
C 	C 	0.23220 0.28760 0.96860 -0.02800
C 	C 	0.07538 0.74794 0.19070 0.36100
C 	C 	0.11330 0.73076 0.17054 -0.13700
C 	C 	0.13384 0.69442 0.19092 0.01200
C 	C 	0.21200 0.54900 0.26740 -0.09000
C 	C 	0.23220 0.51160 0.28760 -0.03000
C 	C 	0.19070 0.98598 0.07538 0.35800
C 	C 	0.17054 0.98540 0.11330 -0.13100
C 	C 	0.19092 0.98082 0.13384 0.01000
C 	C 	0.26740 0.97160 0.21200 -0.08900
C 	C 	0.28760 0.96860 0.23220 -0.02900
C 	C 	0.74794 0.07538 0.98598 0.35600
C 	C 	0.73076 0.11330 0.98540 -0.12900
C 	C 	0.69442 0.13384 0.98082 0.00900
C 	C 	0.54900 0.21200 0.97160 -0.08800
C 	C 	0.51160 0.23220 0.96860 -0.02800
C 	C 	0.98598 0.19070 0.74794 0.35700
C 	C 	0.98540 0.17054 0.73076 -0.13000
C 	C 	0.98082 0.19092 0.69442 0.01000
C 	C 	0.97160 0.26740 0.54900 -0.08900
C 	C 	0.96860 0.28760 0.51160 -0.02900
C 	C 	0.19070 0.74794 0.98598 0.35600
C 	C 	0.17054 0.73076 0.98540 -0.12700
C 	C 	0.19092 0.69442 0.98082 0.00900
C 	C 	0.26740 0.54900 0.97160 -0.08800
C 	C 	0.28760 0.51160 0.96860 -0.02800
C 	C 	0.07538 0.98598 0.74794 0.35600
C 	C 	0.11330 0.98540 0.73076 -0.12900
C 	C 	0.13384 0.98082 0.69442 0.00900
C 	C 	0.21200 0.97160 0.54900 -0.08800
C 	C 	0.23220 0.96860 0.51160 -0.02800
C 	C 	0.98598 0.07538 0.19070 0.35900
C 	C 	0.98540 0.11330 0.17054 -0.13400
C 	C 	0.98082 0.13384 0.19092 0.01100
C 	C 	0.97160 0.21200 0.26740 -0.08900
C 	C 	0.96860 0.23220 0.28760 -0.02900
C 	C 	0.74794 0.19070 0.07538 0.36100
C 	C 	0.73076 0.17054 0.11330 -0.13800
C 	C 	0.69442 0.19092 0.13384 0.01200
C 	C 	0.54900 0.26740 0.21200 -0.09000
C 	C 	0.51160 0.28760 0.23220 -0.03000
C 	C 	0.74833 0.98661 0.13253 0.07600
C 	C 	0.67655 0.97739 0.17303 -0.01300
C 	C 	0.63784 0.97496 0.19360 0.00900
C 	C 	0.60738 0.97302 0.20980 -0.03800
C 	C 	0.56606 0.97034 0.23180 0.06600
C 	C 	0.49452 0.96548 0.27000 0.00200
C 	C 	0.45456 0.96424 0.29060 0.01700
C 	C 	0.42058 0.96322 0.30810 -0.08200
C 	C 	0.38300 0.96200 0.32750 0.17700
C 	C 	0.98661 0.74833 0.13253 0.07800
C 	C 	0.97739 0.67655 0.17303 -0.01500
C 	C 	0.97496 0.63784 0.19360 0.00800
C 	C 	0.97302 0.60738 0.20980 -0.03900
C 	C 	0.97034 0.56606 0.23180 0.06500
C 	C 	0.96548 0.49452 0.27000 0.00200
C 	C 	0.96424 0.45456 0.29060 0.01700
C 	C 	0.96322 0.42058 0.30810 -0.08300
C 	C 	0.96200 0.38300 0.32750 0.17700
C 	C 	0.13253 0.13253 0.74833 0.08000
C 	C 	0.17303 0.17303 0.67655 -0.01800
C 	C 	0.19360 0.19360 0.63784 0.00800
C 	C 	0.20980 0.20980 0.60738 -0.04100
C 	C 	0.23180 0.23180 0.56606 0.06400
C 	C 	0.27000 0.27000 0.49452 0.00100
C 	C 	0.29060 0.29060 0.45456 0.01500
C 	C 	0.30810 0.30810 0.42058 -0.08400
C 	C 	0.32750 0.32750 0.38300 0.17600
C 	C 	0.13253 0.13253 0.98661 0.07600
C 	C 	0.17303 0.17303 0.97739 -0.01300
C 	C 	0.19360 0.19360 0.97496 0.00900
C 	C 	0.20980 0.20980 0.97302 -0.03800
C 	C 	0.23180 0.23180 0.97034 0.06600
C 	C 	0.27000 0.27000 0.96548 0.00200
C 	C 	0.29060 0.29060 0.96424 0.01800
C 	C 	0.30810 0.30810 0.96322 -0.08200
C 	C 	0.32750 0.32750 0.96200 0.17700
C 	C 	0.74833 0.13253 0.13253 0.08000
C 	C 	0.67655 0.17303 0.17303 -0.01800
C 	C 	0.63784 0.19360 0.19360 0.00700
C 	C 	0.60738 0.20980 0.20980 -0.04100
C 	C 	0.56606 0.23180 0.23180 0.06400
C 	C 	0.49452 0.27000 0.27000 0.00100
C 	C 	0.45456 0.29060 0.29060 0.01500
C 	C 	0.42058 0.30810 0.30810 -0.08400
C 	C 	0.38300 0.32750 0.32750 0.17600
C 	C 	0.98661 0.13253 0.13253 0.07900
C 	C 	0.97739 0.17303 0.17303 -0.01600
C 	C 	0.97496 0.19360 0.19360 0.00800
C 	C 	0.97302 0.20980 0.20980 -0.04000
C 	C 	0.97034 0.23180 0.23180 0.06500
C 	C 	0.96548 0.27000 0.27000 0.00200
C 	C 	0.96424 0.29060 0.29060 0.01600
C 	C 	0.96322 0.30810 0.30810 -0.08300
C 	C 	0.96200 0.32750 0.32750 0.17700
C 	C 	0.13253 0.74833 0.98661 0.07500
C 	C 	0.17303 0.67655 0.97739 -0.01200
C 	C 	0.19360 0.63784 0.97496 0.00900
C 	C 	0.20980 0.60738 0.97302 -0.03700
C 	C 	0.23180 0.56606 0.97034 0.06600
C 	C 	0.27000 0.49452 0.96548 0.00200
C 	C 	0.29060 0.45456 0.96424 0.01800
C 	C 	0.30810 0.42058 0.96322 -0.08200
C 	C 	0.32750 0.38300 0.96200 0.17800
C 	C 	0.13253 0.98661 0.74833 0.07500
C 	C 	0.17303 0.97739 0.67655 -0.01200
C 	C 	0.19360 0.97496 0.63784 0.00900
C 	C 	0.20980 0.97302 0.60738 -0.03700
C 	C 	0.23180 0.97034 0.56606 0.06600
C 	C 	0.27000 0.96548 0.49452 0.00200
C 	C 	0.29060 0.96424 0.45456 0.01800
C 	C 	0.30810 0.96322 0.42058 -0.08200
C 	C 	0.32750 0.96200 0.38300 0.17700
C 	C 	0.74833 0.13253 0.98661 0.07500
C 	C 	0.67655 0.17303 0.97739 -0.01200
C 	C 	0.63784 0.19360 0.97496 0.00900
C 	C 	0.60738 0.20980 0.97302 -0.03700
C 	C 	0.56606 0.23180 0.97034 0.06600
C 	C 	0.49452 0.27000 0.96548 0.00200
C 	C 	0.45456 0.29060 0.96424 0.01800
C 	C 	0.42058 0.30810 0.96322 -0.08200
C 	C 	0.38300 0.32750 0.96200 0.17800
C 	C 	0.98661 0.13253 0.74833 0.07700
C 	C 	0.97739 0.17303 0.67655 -0.01400
C 	C 	0.97496 0.19360 0.63784 0.00800
C 	C 	0.97302 0.20980 0.60738 -0.03900
C 	C 	0.97034 0.23180 0.56606 0.06500
C 	C 	0.96548 0.27000 0.49452 0.00200
C 	C 	0.96424 0.29060 0.45456 0.01700
C 	C 	0.96322 0.30810 0.42058 -0.08300
C 	C 	0.96200 0.32750 0.38300 0.17700
C 	C 	0.13253 0.98661 0.13253 0.07700
C 	C 	0.17303 0.97739 0.17303 -0.01400
C 	C 	0.19360 0.97496 0.19360 0.00900
C 	C 	0.20980 0.97302 0.20980 -0.03800
C 	C 	0.23180 0.97034 0.23180 0.06500
C 	C 	0.27000 0.96548 0.27000 0.00200
C 	C 	0.29060 0.96424 0.29060 0.01700
C 	C 	0.30810 0.96322 0.30810 -0.08300
C 	C 	0.32750 0.96200 0.32750 0.17700
C 	C 	0.13253 0.74833 0.13253 0.08000
C 	C 	0.17303 0.67655 0.17303 -0.01800
C 	C 	0.19360 0.63784 0.19360 0.00800
C 	C 	0.20980 0.60738 0.20980 -0.04100
C 	C 	0.23180 0.56606 0.23180 0.06400
C 	C 	0.27000 0.49452 0.27000 0.00100
C 	C 	0.29060 0.45456 0.29060 0.01500
C 	C 	0.30810 0.42058 0.30810 -0.08400
C 	C 	0.32750 0.38300 0.32750 0.17600
C 	C 	0.01339 0.25167 0.86747 0.07800
C 	C 	0.02261 0.32345 0.82697 -0.01500
C 	C 	0.02504 0.36216 0.80640 0.00800
C 	C 	0.02698 0.39262 0.79020 -0.03900
C 	C 	0.02966 0.43394 0.76820 0.06500
C 	C 	0.03452 0.50548 0.73000 0.00200
C 	C 	0.03576 0.54544 0.70940 0.01600
C 	C 	0.03678 0.57942 0.69190 -0.08300
C 	C 	0.03800 0.61700 0.67250 0.17700
C 	C 	0.25167 0.01339 0.86747 0.07800
C 	C 	0.32345 0.02261 0.82697 -0.01600
C 	C 	0.36216 0.02504 0.80640 0.00800
C 	C 	0.39262 0.02698 0.79020 -0.04000
C 	C 	0.43394 0.02966 0.76820 0.06500
C 	C 	0.50548 0.03452 0.73000 0.00100
C 	C 	0.54544 0.03576 0.70940 0.01600
C 	C 	0.57942 0.03678 0.69190 -0.08400
C 	C 	0.61700 0.03800 0.67250 0.17600
C 	C 	0.86747 0.86747 0.25167 0.07600
C 	C 	0.82697 0.82697 0.32345 -0.01300
C 	C 	0.80640 0.80640 0.36216 0.00900
C 	C 	0.79020 0.79020 0.39262 -0.03700
C 	C 	0.76820 0.76820 0.43394 0.06600
C 	C 	0.73000 0.73000 0.50548 0.00200
C 	C 	0.70940 0.70940 0.54544 0.01800
C 	C 	0.69190 0.69190 0.57942 -0.08200
C 	C 	0.67250 0.67250 0.61700 0.17800
C 	C 	0.86747 0.86747 0.01339 0.07800
C 	C 	0.82697 0.82697 0.02261 -0.01600
C 	C 	0.80640 0.80640 0.02504 0.00800
C 	C 	0.79020 0.79020 0.02698 -0.04000
C 	C 	0.76820 0.76820 0.02966 0.06500
C 	C 	0.73000 0.73000 0.03452 0.00100
C 	C 	0.70940 0.70940 0.03576 0.01600
C 	C 	0.69190 0.69190 0.03678 -0.08400
C 	C 	0.67250 0.67250 0.03800 0.17600
C 	C 	0.86747 0.25167 0.86747 0.07500
C 	C 	0.82697 0.32345 0.82697 -0.01200
C 	C 	0.80640 0.36216 0.80640 0.00900
C 	C 	0.79020 0.39262 0.79020 -0.03700
C 	C 	0.76820 0.43394 0.76820 0.06600
C 	C 	0.73000 0.50548 0.73000 0.00200
C 	C 	0.70940 0.54544 0.70940 0.01800
C 	C 	0.69190 0.57942 0.69190 -0.08200
C 	C 	0.67250 0.61700 0.67250 0.17800
C 	C 	0.86747 0.01339 0.86747 0.07700
C 	C 	0.82697 0.02261 0.82697 -0.01500
C 	C 	0.80640 0.02504 0.80640 0.00800
C 	C 	0.79020 0.02698 0.79020 -0.03900
C 	C 	0.76820 0.02966 0.76820 0.06500
C 	C 	0.73000 0.03452 0.73000 0.00100
C 	C 	0.70940 0.03576 0.70940 0.01600
C 	C 	0.69190 0.03678 0.69190 -0.08300
C 	C 	0.67250 0.03800 0.67250 0.17600
C 	C 	0.25167 0.86747 0.01339 0.07900
C 	C 	0.32345 0.82697 0.02261 -0.01700
C 	C 	0.36216 0.80640 0.02504 0.00800
C 	C 	0.39262 0.79020 0.02698 -0.04100
C 	C 	0.43394 0.76820 0.02966 0.06400
C 	C 	0.50548 0.73000 0.03452 0.00100
C 	C 	0.54544 0.70940 0.03576 0.01500
C 	C 	0.57942 0.69190 0.03678 -0.08400
C 	C 	0.61700 0.67250 0.03800 0.17600
C 	C 	0.01339 0.86747 0.25167 0.07900
C 	C 	0.02261 0.82697 0.32345 -0.01600
C 	C 	0.02504 0.80640 0.36216 0.00800
C 	C 	0.02698 0.79020 0.39262 -0.04000
C 	C 	0.02966 0.76820 0.43394 0.06500
C 	C 	0.03452 0.73000 0.50548 0.00200
C 	C 	0.03576 0.70940 0.54544 0.01600
C 	C 	0.03678 0.69190 0.57942 -0.08300
C 	C 	0.03800 0.67250 0.61700 0.17700
C 	C 	0.86747 0.25167 0.01339 0.08000
C 	C 	0.82697 0.32345 0.02261 -0.01800
C 	C 	0.80640 0.36216 0.02504 0.00700
C 	C 	0.79020 0.39262 0.02698 -0.04100
C 	C 	0.76820 0.43394 0.02966 0.06400
C 	C 	0.73000 0.50548 0.03452 0.00100
C 	C 	0.70940 0.54544 0.03576 0.01500
C 	C 	0.69190 0.57942 0.03678 -0.08400
C 	C 	0.67250 0.61700 0.03800 0.17600
C 	C 	0.86747 0.01339 0.25167 0.08000
C 	C 	0.82697 0.02261 0.32345 -0.01700
C 	C 	0.80640 0.02504 0.36216 0.00800
C 	C 	0.79020 0.02698 0.39262 -0.04100
C 	C 	0.76820 0.02966 0.43394 0.06400
C 	C 	0.73000 0.03452 0.50548 0.00100
C 	C 	0.70940 0.03576 0.54544 0.01500
C 	C 	0.69190 0.03678 0.57942 -0.08400
C 	C 	0.67250 0.03800 0.61700 0.17600
C 	C 	0.01339 0.86747 0.86747 0.07600
C 	C 	0.02261 0.82697 0.82697 -0.01300
C 	C 	0.02504 0.80640 0.80640 0.00800
C 	C 	0.02698 0.79020 0.79020 -0.03800
C 	C 	0.02966 0.76820 0.76820 0.06500
C 	C 	0.03452 0.73000 0.73000 0.00200
C 	C 	0.03576 0.70940 0.70940 0.01700
C 	C 	0.03678 0.69190 0.69190 -0.08300
C 	C 	0.03800 0.67250 0.67250 0.17700
C 	C 	0.25167 0.86747 0.86747 0.07500
C 	C 	0.32345 0.82697 0.82697 -0.01200
C 	C 	0.36216 0.80640 0.80640 0.00900
C 	C 	0.39262 0.79020 0.79020 -0.03700
C 	C 	0.43394 0.76820 0.76820 0.06600
C 	C 	0.50548 0.73000 0.73000 0.00200
C 	C 	0.54544 0.70940 0.70940 0.01800
C 	C 	0.57942 0.69190 0.69190 -0.08200
C 	C 	0.61700 0.67250 0.67250 0.17800
C 	C 	0.36400 0.96404 0.30796 -0.23200
C 	C 	0.96404 0.36400 0.36400 -0.23200
C 	C 	0.30796 0.36400 0.36400 -0.23200
C 	C 	0.36400 0.30796 0.96404 -0.23200
C 	C 	0.36400 0.30796 0.36400 -0.23200
C 	C 	0.96404 0.36400 0.30796 -0.23200
C 	C 	0.30796 0.36400 0.96404 -0.23200
C 	C 	0.36400 0.96404 0.36400 -0.23200
C 	C 	0.36400 0.36400 0.96404 -0.23200
C 	C 	0.96404 0.30796 0.36400 -0.23200
C 	C 	0.30796 0.96404 0.36400 -0.23200
C 	C 	0.36400 0.36400 0.30796 -0.23200
C 	C 	0.03596 0.63600 0.69204 -0.23200
C 	C 	0.63600 0.03596 0.63600 -0.23200
C 	C 	0.63600 0.69204 0.63600 -0.23200
C 	C 	0.69204 0.63600 0.03596 -0.23200
C 	C 	0.69204 0.63600 0.63600 -0.23200
C 	C 	0.63600 0.03596 0.69204 -0.23200
C 	C 	0.63600 0.69204 0.03596 -0.23200
C 	C 	0.03596 0.63600 0.63600 -0.23200
C 	C 	0.63600 0.63600 0.03596 -0.23200
C 	C 	0.69204 0.03596 0.63600 -0.23200
C 	C 	0.03596 0.69204 0.63600 -0.23200
C 	C 	0.63600 0.63600 0.69204 -0.23200
O 	O 	0.78219 0.99109 0.05563 -0.38100
O 	O 	0.73006 0.99042 0.05622 -0.39600
O 	O 	0.99109 0.78219 0.17109 -0.38100
O 	O 	0.99042 0.73006 0.22330 -0.39700
O 	O 	0.05563 0.17109 0.78219 -0.38900
O 	O 	0.05622 0.22330 0.73006 -0.40300
O 	O 	0.17109 0.05563 0.99109 -0.38000
O 	O 	0.22330 0.05622 0.99042 -0.39400
O 	O 	0.78219 0.05563 0.17109 -0.39100
O 	O 	0.73006 0.05622 0.22330 -0.40400
O 	O 	0.99109 0.17109 0.05563 -0.38600
O 	O 	0.99042 0.22330 0.05622 -0.39900
O 	O 	0.05563 0.78219 0.99109 -0.38000
O 	O 	0.05622 0.73006 0.99042 -0.39500
O 	O 	0.17109 0.99109 0.78219 -0.37700
O 	O 	0.22330 0.99042 0.73006 -0.39100
O 	O 	0.78219 0.17109 0.99109 -0.37600
O 	O 	0.73006 0.22330 0.99042 -0.39000
O 	O 	0.99109 0.05563 0.78219 -0.38300
O 	O 	0.99042 0.05622 0.73006 -0.39800
O 	O 	0.05563 0.99109 0.17109 -0.38100
O 	O 	0.05622 0.99042 0.22330 -0.39700
O 	O 	0.17109 0.78219 0.05563 -0.39100
O 	O 	0.22330 0.73006 0.05622 -0.40500
O 	O 	0.00891 0.21781 0.94437 -0.38000
O 	O 	0.00958 0.26994 0.94378 -0.39300
O 	O 	0.21781 0.00891 0.82891 -0.38900
O 	O 	0.26994 0.00958 0.77670 -0.40400
O 	O 	0.82891 0.94437 0.21781 -0.37800
O 	O 	0.77670 0.94378 0.26994 -0.39200
O 	O 	0.94437 0.82891 0.00891 -0.38700
O 	O 	0.94378 0.77670 0.00958 -0.40200
O 	O 	0.94437 0.21781 0.82891 -0.38000
O 	O 	0.94378 0.26994 0.77670 -0.39400
O 	O 	0.82891 0.00891 0.94437 -0.38000
O 	O 	0.77670 0.00958 0.94378 -0.39500
O 	O 	0.21781 0.94437 0.00891 -0.38400
O 	O 	0.26994 0.94378 0.00958 -0.39700
O 	O 	0.00891 0.82891 0.21781 -0.38800
O 	O 	0.00958 0.77670 0.26994 -0.40400
O 	O 	0.82891 0.21781 0.00891 -0.39100
O 	O 	0.77670 0.26994 0.00958 -0.40500
O 	O 	0.94437 0.00891 0.21781 -0.38600
O 	O 	0.94378 0.00958 0.26994 -0.40200
O 	O 	0.00891 0.94437 0.82891 -0.38000
O 	O 	0.00958 0.94378 0.77670 -0.39400
O 	O 	0.21781 0.82891 0.94437 -0.37600
O 	O 	0.26994 0.77670 0.94378 -0.39000
O 	O 	0.21781 0.00891 0.94437 -0.38100
O 	O 	0.26994 0.00958 0.94378 -0.39500
O 	O 	0.00891 0.21781 0.82891 -0.38800
O 	O 	0.00958 0.26994 0.77670 -0.40200
O 	O 	0.94437 0.82891 0.21781 -0.38000
O 	O 	0.94378 0.77670 0.26994 -0.39600
O 	O 	0.82891 0.94437 0.00891 -0.38300
O 	O 	0.77670 0.94378 0.00958 -0.39700
O 	O 	0.21781 0.94437 0.82891 -0.37700
O 	O 	0.26994 0.94378 0.77670 -0.39100
O 	O 	0.00891 0.82891 0.94437 -0.38100
O 	O 	0.00958 0.77670 0.94378 -0.39500
O 	O 	0.94437 0.21781 0.00891 -0.38600
O 	O 	0.94378 0.26994 0.00958 -0.40000
O 	O 	0.82891 0.00891 0.21781 -0.39000
O 	O 	0.77670 0.00958 0.26994 -0.40400
O 	O 	0.21781 0.82891 0.00891 -0.39000
O 	O 	0.26994 0.77670 0.00958 -0.40500
O 	O 	0.00891 0.94437 0.21781 -0.38200
O 	O 	0.00958 0.94378 0.26994 -0.39800
O 	O 	0.94437 0.00891 0.82891 -0.38400
O 	O 	0.94378 0.00958 0.77670 -0.39900
O 	O 	0.82891 0.21781 0.94437 -0.37600
O 	O 	0.77670 0.26994 0.94378 -0.39000
O 	O 	0.99109 0.78219 0.05563 -0.38700
O 	O 	0.99042 0.73006 0.05622 -0.40100
O 	O 	0.78219 0.99109 0.17109 -0.37800
O 	O 	0.73006 0.99042 0.22330 -0.39200
O 	O 	0.17109 0.05563 0.78219 -0.39000
O 	O 	0.22330 0.05622 0.73006 -0.40400
O 	O 	0.05563 0.17109 0.99109 -0.37900
O 	O 	0.05622 0.22330 0.99042 -0.39300
O 	O 	0.05563 0.78219 0.17109 -0.38900
O 	O 	0.05622 0.73006 0.22330 -0.40500
O 	O 	0.17109 0.99109 0.05563 -0.38200
O 	O 	0.22330 0.99042 0.05622 -0.39600
O 	O 	0.78219 0.05563 0.99109 -0.37900
O 	O 	0.73006 0.05622 0.99042 -0.39400
O 	O 	0.99109 0.17109 0.78219 -0.38000
O 	O 	0.99042 0.22330 0.73006 -0.39400
O 	O 	0.17109 0.78219 0.99109 -0.37600
O 	O 	0.22330 0.73006 0.99042 -0.39000
O 	O 	0.05563 0.99109 0.78219 -0.37900
O 	O 	0.05622 0.99042 0.73006 -0.39400
O 	O 	0.99109 0.05563 0.17109 -0.38600
O 	O 	0.99042 0.05622 0.22330 -0.40200
O 	O 	0.78219 0.17109 0.05563 -0.39100
O 	O 	0.73006 0.22330 0.05622 -0.40500
