data_crystal

_cell_length_a 27.03300
_cell_length_b 36.13000
_cell_length_c 34.29100
_cell_angle_alpha 108.81000
_cell_angle_beta  90.00000
_cell_angle_gamma 90.00000

_symmetry_space_group_name_	'P 1'
_symmetry_space_group_name_H-M	'P 1'

loop_
_symmetry_equiv_pos_as_xyz
  x,y,z

loop_
_atom_site_label
_atom_site_type_symbol
_atom_site_fract_x
_atom_site_fract_y
_atom_site_fract_z
_atom_site_charge
Zn	Zn	0.53312 0.59917 0.80317 1.22100
Zn	Zn	0.50176 0.60486 0.71691 1.22300
Zn	Zn	0.98690 0.68119 0.29105 1.22300
Zn	Zn	0.42368 0.62349 0.78972 1.20400
Zn	Zn	0.99568 0.12726 0.36434 1.21500
Zn	Zn	0.01122 0.04985 0.29092 1.17700
Zn	Zn	0.46836 0.13388 0.77991 1.22300
Zn	Zn	0.92285 0.10575 0.28838 1.21000
Zn	Zn	0.96688 0.59917 0.30317 1.22100
Zn	Zn	0.99824 0.60486 0.21691 1.22300
Zn	Zn	0.51310 0.68119 0.79105 1.22300
Zn	Zn	0.07632 0.62349 0.28972 1.20400
Zn	Zn	0.50432 0.12726 0.86434 1.21500
Zn	Zn	0.48878 0.04985 0.79092 1.17700
Zn	Zn	0.03164 0.13388 0.27991 1.22300
Zn	Zn	0.57715 0.10575 0.78838 1.21000
H 	H 	0.64400 0.37630 0.65520 0.12800
H 	H 	0.71850 0.22130 0.48290 0.13900
H 	H 	0.59930 0.26560 0.63910 0.12900
H 	H 	0.86970 0.77810 0.11930 0.12800
H 	H 	0.74000 0.73340 0.97820 0.13200
H 	H 	0.89430 0.87950 0.09600 0.13100
H 	H 	0.12450 0.85570 0.47020 0.13100
H 	H 	0.15480 0.95920 0.45120 0.13100
H 	H 	0.29110 0.99380 0.58370 0.13100
H 	H 	0.40410 0.47530 0.95200 0.13200
H 	H 	0.35510 0.35450 0.92680 0.12900
H 	H 	0.21750 0.48720 0.05740 0.13500
H 	H 	0.57810 0.50880 0.64850 -0.01500
H 	H 	0.59920 0.44730 0.61110 0.14700
H 	H 	0.63330 0.42630 0.71660 0.11700
H 	H 	0.60790 0.48940 0.75290 -0.00600
H 	H 	0.70220 0.33900 0.53960 0.05700
H 	H 	0.71390 0.23240 0.55450 0.05500
H 	H 	0.62680 0.31530 0.63010 0.01900
H 	H 	0.84360 0.24280 0.48280 0.12900
H 	H 	0.89960 0.20650 0.43750 -0.00000
H 	H 	0.79340 0.13930 0.36930 0.00400
H 	H 	0.73360 0.17410 0.41420 0.11700
H 	H 	0.67240 0.21150 0.68280 0.13300
H 	H 	0.64090 0.17350 0.72310 -0.00200
H 	H 	0.50730 0.19910 0.70440 -0.00300
H 	H 	0.52960 0.23770 0.66370 0.12100
H 	H 	0.94410 0.65040 0.12490 -0.01300
H 	H 	0.91340 0.68180 0.08260 0.15200
H 	H 	0.88660 0.77600 0.18080 0.11100
H 	H 	0.92640 0.74560 0.22380 -0.00800
H 	H 	0.81120 0.73750 0.00130 0.03600
H 	H 	0.77850 0.85020 0.01500 0.04900
H 	H 	0.86760 0.82500 0.09690 0.01500
H 	H 	0.70350 0.76200 0.89340 0.13100
H 	H 	0.64710 0.72560 0.84220 0.00500
H 	H 	0.62930 0.65060 0.90620 0.01100
H 	H 	0.67850 0.68720 0.95700 0.12600
H 	H 	0.95260 0.91930 0.12890 0.11200
H 	H 	0.97920 0.97820 0.17970 -0.00800
H 	H 	0.83950 0.01390 0.19510 -0.00900
H 	H 	0.81450 0.95720 0.14300 0.14600
H 	H 	0.03040 0.77470 0.37650 -0.00700
H 	H 	0.06610 0.82870 0.42780 0.10900
H 	H 	0.18990 0.76590 0.43040 0.14500
H 	H 	0.15210 0.71360 0.38300 -0.01100
H 	H 	0.15160 0.91160 0.47020 0.01500
H 	H 	0.21700 0.99260 0.56550 0.03000
H 	H 	0.24940 0.87850 0.54160 0.04500
H 	H 	0.12240 0.96560 0.39090 0.10900
H 	H 	0.10630 0.01260 0.35770 -0.00900
H 	H 	0.05690 0.08530 0.46210 -0.00100
H 	H 	0.10110 0.04940 0.49760 0.14100
H 	H 	0.32860 0.05150 0.61680 0.10900
H 	H 	0.37600 0.08850 0.67320 0.00400
H 	H 	0.38200 0.99770 0.71740 -0.00600
H 	H 	0.32790 0.96200 0.66560 0.12800
H 	H 	0.49880 0.53520 0.88580 -0.02100
H 	H 	0.46920 0.50110 0.92580 0.13900
H 	H 	0.33120 0.53080 0.91020 0.16400
H 	H 	0.36070 0.56300 0.86690 -0.02000
H 	H 	0.37150 0.41900 0.95060 0.02300
H 	H 	0.30710 0.39560 0.04780 0.04800
H 	H 	0.28690 0.50100 0.03280 0.04100
H 	H 	0.35180 0.29910 0.86980 0.10900
H 	H 	0.38310 0.23760 0.83340 0.00300
H 	H 	0.46020 0.23740 0.93320 0.00900
H 	H 	0.42470 0.29910 0.97130 0.13500
H 	H 	0.15280 0.52670 0.07410 0.11700
H 	H 	0.08890 0.55110 0.12220 0.00400
H 	H 	0.17160 0.53110 0.21200 -0.01100
H 	H 	0.22440 0.49380 0.15890 0.15000
H 	H 	0.85600 0.37630 0.15520 0.12900
H 	H 	0.78150 0.22130 0.98290 0.14000
H 	H 	0.90070 0.26560 0.13910 0.13000
H 	H 	0.63030 0.77810 0.61930 0.12900
H 	H 	0.76000 0.73340 0.47820 0.13300
H 	H 	0.60570 0.87950 0.59600 0.13200
H 	H 	0.37550 0.85570 0.97020 0.13100
H 	H 	0.34520 0.95920 0.95120 0.13200
H 	H 	0.20890 0.99380 0.08370 0.13200
H 	H 	0.09590 0.47530 0.45200 0.13300
H 	H 	0.14490 0.35450 0.42680 0.13000
H 	H 	0.28250 0.48720 0.55740 0.13600
H 	H 	0.92190 0.50880 0.14850 -0.01400
H 	H 	0.90080 0.44730 0.11110 0.14800
H 	H 	0.86670 0.42630 0.21660 0.11700
H 	H 	0.89210 0.48940 0.25290 -0.00600
H 	H 	0.79780 0.33900 0.03960 0.05700
H 	H 	0.78610 0.23240 0.05450 0.05500
H 	H 	0.87320 0.31530 0.13010 0.01900
H 	H 	0.65640 0.24280 0.98280 0.12900
H 	H 	0.60040 0.20650 0.93750 -0.00000
H 	H 	0.70660 0.13930 0.86930 0.00400
H 	H 	0.76640 0.17410 0.91420 0.11700
H 	H 	0.82760 0.21150 0.18280 0.13300
H 	H 	0.85910 0.17350 0.22310 -0.00200
H 	H 	0.99270 0.19910 0.20440 -0.00200
H 	H 	0.97040 0.23770 0.16370 0.12100
H 	H 	0.55590 0.65040 0.62490 -0.01300
H 	H 	0.58660 0.68180 0.58260 0.15200
H 	H 	0.61340 0.77600 0.68080 0.11100
H 	H 	0.57360 0.74560 0.72380 -0.00800
H 	H 	0.68880 0.73750 0.50130 0.03600
H 	H 	0.72150 0.85020 0.51500 0.04900
H 	H 	0.63240 0.82500 0.59690 0.01500
H 	H 	0.79650 0.76200 0.39340 0.13100
H 	H 	0.85290 0.72560 0.34220 0.00500
H 	H 	0.87070 0.65060 0.40620 0.01100
H 	H 	0.82150 0.68720 0.45700 0.12600
H 	H 	0.54740 0.91930 0.62890 0.11200
H 	H 	0.52080 0.97820 0.67970 -0.00800
H 	H 	0.66050 0.01390 0.69510 -0.01000
H 	H 	0.68550 0.95720 0.64300 0.14600
H 	H 	0.46960 0.77470 0.87650 -0.00700
H 	H 	0.43390 0.82870 0.92780 0.10800
H 	H 	0.31010 0.76590 0.93040 0.14500
H 	H 	0.34790 0.71360 0.88300 -0.01100
H 	H 	0.34840 0.91160 0.97020 0.01500
H 	H 	0.28300 0.99260 0.06550 0.03000
H 	H 	0.25060 0.87850 0.04160 0.04500
H 	H 	0.37760 0.96560 0.89090 0.10900
H 	H 	0.39370 0.01260 0.85770 -0.00900
H 	H 	0.44310 0.08530 0.96210 -0.00100
H 	H 	0.39890 0.04940 0.99760 0.14100
H 	H 	0.17140 0.05150 0.11680 0.10900
H 	H 	0.12400 0.08850 0.17320 0.00400
H 	H 	0.11800 0.99770 0.21740 -0.00600
H 	H 	0.17210 0.96200 0.16560 0.12800
H 	H 	0.00120 0.53520 0.38580 -0.02100
H 	H 	0.03080 0.50110 0.42580 0.13900
H 	H 	0.16880 0.53080 0.41020 0.16400
H 	H 	0.13930 0.56300 0.36690 -0.02000
H 	H 	0.12850 0.41900 0.45060 0.02300
H 	H 	0.19290 0.39560 0.54780 0.04800
H 	H 	0.21310 0.50100 0.53280 0.04100
H 	H 	0.14820 0.29910 0.36980 0.10900
H 	H 	0.11690 0.23760 0.33340 0.00300
H 	H 	0.03980 0.23740 0.43320 0.00900
H 	H 	0.07530 0.29910 0.47130 0.13500
H 	H 	0.34720 0.52670 0.57410 0.11700
H 	H 	0.41110 0.55110 0.62220 0.00300
H 	H 	0.32840 0.53110 0.71200 -0.01100
H 	H 	0.27560 0.49380 0.65890 0.15000
C 	C 	0.56740 0.54290 0.72700 0.40700
C 	C 	0.58750 0.50443 0.70410 -0.23700
C 	C 	0.58810 0.49130 0.66260 0.19500
C 	C 	0.60150 0.45550 0.64030 -0.26900
C 	C 	0.61920 0.42998 0.66010 0.23600
C 	C 	0.62130 0.44293 0.70220 -0.25400
C 	C 	0.60570 0.48040 0.72370 0.17000
C 	C 	0.64440 0.37414 0.59860 0.24000
C 	C 	0.66180 0.33256 0.58660 -0.07100
C 	C 	0.69320 0.32117 0.55350 0.01100
C 	C 	0.71220 0.28221 0.54010 -0.07500
C 	C 	0.70040 0.25800 0.56210 0.00500
C 	C 	0.66890 0.27073 0.59529 -0.07200
C 	C 	0.64910 0.30738 0.60746 0.00800
C 	C 	0.74790 0.27120 0.50690 0.24200
C 	C 	0.78070 0.21375 0.45280 0.22000
C 	C 	0.83280 0.22197 0.45950 -0.22000
C 	C 	0.86540 0.20050 0.43317 0.14700
C 	C 	0.85100 0.16911 0.39910 -0.19900
C 	C 	0.80300 0.16050 0.39270 0.15000
C 	C 	0.76740 0.18144 0.41900 -0.22800
C 	C 	0.88950 0.14660 0.37060 0.39800
C 	C 	0.65910 0.24314 0.61950 0.24600
C 	C 	0.60170 0.22511 0.66640 0.23000
C 	C 	0.63790 0.20860 0.68620 -0.22600
C 	C 	0.61810 0.18717 0.71170 0.16700
C 	C 	0.57220 0.18517 0.72010 -0.24700
C 	C 	0.54160 0.20220 0.70050 0.16800
C 	C 	0.55370 0.22440 0.67450 -0.25700
C 	C 	0.55360 0.16231 0.74464 0.42800
C 	C 	0.95940 0.67430 0.20472 0.42500
C 	C 	0.93990 0.69480 0.17751 -0.23100
C 	C 	0.93420 0.67690 0.13640 0.19500
C 	C 	0.91510 0.69510 0.11140 -0.28400
C 	C 	0.89830 0.73240 0.12700 0.25500
C 	C 	0.90050 0.75060 0.16920 -0.24800
C 	C 	0.92300 0.73240 0.19510 0.15600
C 	C 	0.86730 0.74580 0.06520 0.23700
C 	C 	0.84540 0.77600 0.04890 -0.07800
C 	C 	0.81510 0.76461 0.01590 0.02000
C 	C 	0.78950 0.79159 0.00280 -0.08300
C 	C 	0.79580 0.83151 0.02400 0.03500
C 	C 	0.82590 0.84390 0.05690 -0.10100
C 	C 	0.84940 0.81660 0.07190 0.01600
C 	C 	0.75820 0.78080 0.96520 0.24000
C 	C 	0.69940 0.72676 0.92910 0.22200
C 	C 	0.68820 0.73920 0.89590 -0.21400
C 	C 	0.65380 0.71793 0.86570 0.12200
C 	C 	0.63050 0.68615 0.87090 -0.18900
C 	C 	0.64310 0.67410 0.90410 0.15400
C 	C 	0.67380 0.69458 0.93300 -0.23800
C 	C 	0.59470 0.66390 0.83780 0.41200
C 	C 	0.83160 0.88370 0.08130 0.26700
C 	C 	0.88100 0.93350 0.13170 0.25700
C 	C 	0.92910 0.93880 0.14240 -0.25000
C 	C 	0.94500 0.97330 0.17370 0.14000
C 	C 	0.90940 0.99950 0.19530 -0.22600
C 	C 	0.86330 0.99434 0.18250 0.17700
C 	C 	0.84840 0.96060 0.15080 -0.27300
C 	C 	0.92770 0.03450 0.22770 0.39900
C 	C 	0.07090 0.70910 0.34070 0.39600
C 	C 	0.09230 0.73930 0.37430 -0.23400
C 	C 	0.06240 0.77330 0.38740 0.14100
C 	C 	0.08410 0.80490 0.41810 -0.23800
C 	C 	0.12980 0.80350 0.43490 0.24300
C 	C 	0.15760 0.76818 0.42050 -0.25500
C 	C 	0.13510 0.73794 0.39150 0.18900
C 	C 	0.19080 0.84678 0.47810 0.24700
C 	C 	0.19730 0.88888 0.50303 -0.08400
C 	C 	0.17320 0.91793 0.49329 0.02000
C 	C 	0.18030 0.95772 0.51770 -0.09600
C 	C 	0.21240 0.96604 0.54933 0.02900
C 	C 	0.23870 0.93804 0.55921 -0.09000
C 	C 	0.23130 0.89849 0.53552 0.02300
C 	C 	0.15530 0.99010 0.50880 0.25400
C 	C 	0.12060 0.00500 0.44850 0.24500
C 	C 	0.11500 0.99200 0.40620 -0.24200
C 	C 	0.09850 0.01760 0.38590 0.14700
C 	C 	0.07180 0.04900 0.40600 -0.21000
C 	C 	0.07310 0.06160 0.44710 0.15200
C 	C 	0.09910 0.03946 0.46840 -0.24600
C 	C 	0.04440 0.07040 0.38040 0.42500
C 	C 	0.27170 0.94694 0.59390 0.23100
C 	C 	0.32380 0.00300 0.63570 0.21300
C 	C 	0.33820 0.04090 0.63770 -0.22200
C 	C 	0.36690 0.06250 0.67110 0.14100
C 	C 	0.38180 0.04790 0.70020 -0.20200
C 	C 	0.36940 0.00870 0.69780 0.12900
C 	C 	0.33880 0.98730 0.66640 -0.21600
C 	C 	0.41160 0.07240 0.73510 0.43500
C 	C 	0.45220 0.57505 0.84403 0.45400
C 	C 	0.43180 0.55249 0.86997 -0.25400
C 	C 	0.46420 0.53403 0.88970 0.21300
C 	C 	0.44650 0.51465 0.91407 -0.32500
C 	C 	0.39900 0.51347 0.92260 0.30000
C 	C 	0.36560 0.53140 0.90490 -0.30700
C 	C 	0.38380 0.55040 0.87920 0.21500
C 	C 	0.33990 0.49478 0.96719 0.25800
C 	C 	0.33210 0.46451 0.98788 -0.07600
C 	C 	0.35150 0.42743 0.97464 0.00300
C 	C 	0.34080 0.40151 0.99790 -0.06800
C 	C 	0.31250 0.41273 0.03222 0.01400
C 	C 	0.29190 0.44890 0.04401 -0.07100
C 	C 	0.30110 0.47560 0.02330 0.00700
C 	C 	0.36440 0.36171 0.98400 0.22800
C 	C 	0.38640 0.30509 0.92400 0.22900
C 	C 	0.37360 0.28640 0.88310 -0.23000
C 	C 	0.39170 0.24988 0.86150 0.13600
C 	C 	0.42180 0.23193 0.88100 -0.18000
C 	C 	0.43680 0.24969 0.92069 0.12500
C 	C 	0.41670 0.28708 0.94307 -0.22900
C 	C 	0.44170 0.19110 0.85820 0.40600
C 	C 	0.26250 0.46070 0.08350 0.24100
C 	C 	0.19280 0.50590 0.11390 0.26200
C 	C 	0.15470 0.52580 0.10150 -0.24400
C 	C 	0.12010 0.54400 0.13040 0.14000
C 	C 	0.13160 0.55230 0.17410 -0.21900
C 	C 	0.16740 0.53090 0.18450 0.17000
C 	C 	0.19820 0.50820 0.15210 -0.27700
C 	C 	0.09550 0.57660 0.20320 0.46300
C 	C 	0.93260 0.54290 0.22700 0.40700
C 	C 	0.91250 0.50443 0.20410 -0.23700
C 	C 	0.91190 0.49130 0.16260 0.19500
C 	C 	0.89850 0.45550 0.14030 -0.26900
C 	C 	0.88080 0.42998 0.16010 0.23600
C 	C 	0.87870 0.44293 0.20220 -0.25400
C 	C 	0.89430 0.48040 0.22370 0.17000
C 	C 	0.85560 0.37414 0.09860 0.24000
C 	C 	0.83820 0.33256 0.08660 -0.07100
C 	C 	0.80680 0.32117 0.05350 0.01100
C 	C 	0.78780 0.28221 0.04010 -0.07500
C 	C 	0.79960 0.25800 0.06210 0.00500
C 	C 	0.83110 0.27073 0.09529 -0.07200
C 	C 	0.85090 0.30738 0.10746 0.00800
C 	C 	0.75210 0.27120 0.00690 0.24200
C 	C 	0.71930 0.21375 0.95280 0.22000
C 	C 	0.66720 0.22197 0.95950 -0.22000
C 	C 	0.63460 0.20050 0.93317 0.14700
C 	C 	0.64900 0.16911 0.89910 -0.19900
C 	C 	0.69700 0.16050 0.89270 0.15000
C 	C 	0.73260 0.18144 0.91900 -0.22800
C 	C 	0.61050 0.14660 0.87060 0.39800
C 	C 	0.84090 0.24314 0.11950 0.24600
C 	C 	0.89830 0.22511 0.16640 0.23000
C 	C 	0.86210 0.20860 0.18620 -0.22600
C 	C 	0.88190 0.18717 0.21170 0.16700
C 	C 	0.92780 0.18517 0.22010 -0.24700
C 	C 	0.95840 0.20220 0.20050 0.16800
C 	C 	0.94630 0.22440 0.17450 -0.25700
C 	C 	0.94640 0.16231 0.24464 0.42800
C 	C 	0.54060 0.67430 0.70472 0.42500
C 	C 	0.56010 0.69480 0.67751 -0.23100
C 	C 	0.56580 0.67690 0.63640 0.19500
C 	C 	0.58490 0.69510 0.61140 -0.28400
C 	C 	0.60170 0.73240 0.62700 0.25500
C 	C 	0.59950 0.75060 0.66920 -0.24800
C 	C 	0.57700 0.73240 0.69510 0.15600
C 	C 	0.63270 0.74580 0.56520 0.23700
C 	C 	0.65460 0.77600 0.54890 -0.07800
C 	C 	0.68490 0.76461 0.51590 0.02000
C 	C 	0.71050 0.79159 0.50280 -0.08200
C 	C 	0.70420 0.83151 0.52400 0.03400
C 	C 	0.67410 0.84390 0.55690 -0.10100
C 	C 	0.65060 0.81660 0.57190 0.01600
C 	C 	0.74180 0.78080 0.46520 0.24000
C 	C 	0.80060 0.72676 0.42910 0.22200
C 	C 	0.81180 0.73920 0.39590 -0.21400
C 	C 	0.84620 0.71793 0.36570 0.12200
C 	C 	0.86950 0.68615 0.37090 -0.18900
C 	C 	0.85690 0.67410 0.40410 0.15400
C 	C 	0.82620 0.69458 0.43300 -0.23800
C 	C 	0.90530 0.66390 0.33780 0.41200
C 	C 	0.66840 0.88370 0.58130 0.26700
C 	C 	0.61900 0.93350 0.63170 0.25700
C 	C 	0.57090 0.93880 0.64240 -0.25000
C 	C 	0.55500 0.97330 0.67370 0.14000
C 	C 	0.59060 0.99950 0.69530 -0.22600
C 	C 	0.63670 0.99434 0.68250 0.17800
C 	C 	0.65160 0.96060 0.65080 -0.27300
C 	C 	0.57230 0.03450 0.72770 0.39800
C 	C 	0.42910 0.70910 0.84070 0.39600
C 	C 	0.40770 0.73930 0.87430 -0.23400
C 	C 	0.43760 0.77330 0.88740 0.14100
C 	C 	0.41590 0.80490 0.91810 -0.23800
C 	C 	0.37020 0.80350 0.93490 0.24300
C 	C 	0.34240 0.76818 0.92050 -0.25500
C 	C 	0.36490 0.73794 0.89150 0.18900
C 	C 	0.30920 0.84678 0.97810 0.24700
C 	C 	0.30270 0.88888 0.00303 -0.08400
C 	C 	0.32680 0.91793 0.99329 0.02000
C 	C 	0.31970 0.95772 0.01770 -0.09600
C 	C 	0.28760 0.96604 0.04933 0.02900
C 	C 	0.26130 0.93804 0.05921 -0.09000
C 	C 	0.26870 0.89849 0.03552 0.02300
C 	C 	0.34470 0.99010 0.00880 0.25400
C 	C 	0.37940 0.00500 0.94850 0.24500
C 	C 	0.38500 0.99200 0.90620 -0.24300
C 	C 	0.40150 0.01760 0.88590 0.14700
C 	C 	0.42820 0.04900 0.90600 -0.21000
C 	C 	0.42690 0.06160 0.94710 0.15200
C 	C 	0.40090 0.03946 0.96840 -0.24600
C 	C 	0.45560 0.07040 0.88040 0.42500
C 	C 	0.22830 0.94694 0.09390 0.23100
C 	C 	0.17620 0.00300 0.13570 0.21300
C 	C 	0.16180 0.04090 0.13770 -0.22200
C 	C 	0.13310 0.06250 0.17110 0.14100
C 	C 	0.11820 0.04790 0.20020 -0.20200
C 	C 	0.13060 0.00870 0.19780 0.12900
C 	C 	0.16120 0.98730 0.16640 -0.21600
C 	C 	0.08840 0.07240 0.23510 0.43500
C 	C 	0.04780 0.57505 0.34403 0.45400
C 	C 	0.06820 0.55249 0.36997 -0.25400
C 	C 	0.03580 0.53403 0.38970 0.21300
C 	C 	0.05350 0.51465 0.41407 -0.32500
C 	C 	0.10100 0.51347 0.42260 0.30000
C 	C 	0.13440 0.53140 0.40490 -0.30700
C 	C 	0.11620 0.55040 0.37920 0.21500
C 	C 	0.16010 0.49478 0.46719 0.25800
C 	C 	0.16790 0.46451 0.48788 -0.07600
C 	C 	0.14850 0.42743 0.47464 0.00300
C 	C 	0.15920 0.40151 0.49790 -0.06800
C 	C 	0.18750 0.41273 0.53222 0.01300
C 	C 	0.20810 0.44890 0.54401 -0.07000
C 	C 	0.19890 0.47560 0.52330 0.00700
C 	C 	0.13560 0.36171 0.48400 0.22800
C 	C 	0.11360 0.30509 0.42400 0.22900
C 	C 	0.12640 0.28640 0.38310 -0.23000
C 	C 	0.10830 0.24988 0.36150 0.13600
C 	C 	0.07820 0.23193 0.38100 -0.18000
C 	C 	0.06320 0.24969 0.42069 0.12500
C 	C 	0.08330 0.28708 0.44307 -0.22900
C 	C 	0.05830 0.19110 0.35820 0.40600
C 	C 	0.23750 0.46070 0.58350 0.24100
C 	C 	0.30720 0.50590 0.61390 0.26200
C 	C 	0.34530 0.52580 0.60150 -0.24400
C 	C 	0.37990 0.54400 0.63040 0.14000
C 	C 	0.36840 0.55230 0.67410 -0.21900
C 	C 	0.33260 0.53090 0.68450 0.17000
C 	C 	0.30180 0.50820 0.65210 -0.27700
C 	C 	0.40450 0.57660 0.70320 0.46300
N 	N 	0.63710 0.39073 0.63951 -0.25400
N 	N 	0.74560 0.23423 0.48138 -0.25500
N 	N 	0.61910 0.24678 0.64066 -0.26200
N 	N 	0.87750 0.75409 0.10441 -0.26800
N 	N 	0.73340 0.74524 0.96006 -0.24900
N 	N 	0.86970 0.89634 0.10130 -0.27800
N 	N 	0.14680 0.83704 0.46190 -0.27100
N 	N 	0.14470 0.98209 0.46752 -0.26300
N 	N 	0.29510 0.98232 0.60250 -0.25200
N 	N 	0.38290 0.49234 0.94815 -0.27700
N 	N 	0.36698 0.34232 0.94320 -0.25800
N 	N 	0.22360 0.48480 0.08165 -0.26200
N 	N 	0.86290 0.39073 0.13951 -0.25400
N 	N 	0.75440 0.23423 0.98138 -0.25500
N 	N 	0.88090 0.24678 0.14066 -0.26200
N 	N 	0.62250 0.75409 0.60441 -0.26800
N 	N 	0.76660 0.74524 0.46006 -0.24900
N 	N 	0.63030 0.89634 0.60130 -0.27800
N 	N 	0.35320 0.83704 0.96190 -0.27100
N 	N 	0.35530 0.98209 0.96752 -0.26300
N 	N 	0.20490 0.98232 0.10250 -0.25200
N 	N 	0.11710 0.49234 0.44815 -0.27700
N 	N 	0.13302 0.34232 0.44320 -0.25800
N 	N 	0.27640 0.48480 0.58165 -0.26200
O 	O 	0.56716 0.55431 0.76662 -0.48600
O 	O 	0.54910 0.56363 0.70585 -0.50100
O 	O 	0.93190 0.14879 0.38554 -0.51200
O 	O 	0.87593 0.12518 0.33356 -0.48800
O 	O 	0.50613 0.16176 0.75065 -0.48600
O 	O 	0.58480 0.14534 0.76013 -0.49200
O 	O 	0.63950 0.39024 0.57297 -0.23400
O 	O 	0.77950 0.29366 0.50244 -0.22800
O 	O 	0.69100 0.21918 0.62008 -0.23100
O 	O 	0.96945 0.69461 0.24246 -0.50400
O 	O 	0.97113 0.63906 0.18891 -0.49800
O 	O 	0.57935 0.67920 0.81244 -0.52100
O 	O 	0.57919 0.63180 0.84127 -0.49300
O 	O 	0.89630 0.05926 0.24688 -0.49400
O 	O 	0.97400 0.03667 0.23559 -0.51800
O 	O 	0.87770 0.71331 0.03980 -0.23000
O 	O 	0.75070 0.80061 0.94389 -0.23800
O 	O 	0.79530 0.90607 0.08250 -0.23200
O 	O 	0.03320 0.71223 0.32100 -0.56400
O 	O 	0.09650 0.67299 0.32832 -0.47900
O 	O 	0.02218 0.10063 0.40009 -0.50500
O 	O 	0.05270 0.05860 0.34330 -0.54400
O 	O 	0.42420 0.05611 0.76201 -0.48600
O 	O 	0.42487 0.10528 0.73736 -0.50700
O 	O 	0.22528 0.82298 0.47261 -0.23500
O 	O 	0.14370 0.01994 0.53399 -0.25100
O 	O 	0.28055 0.92448 0.61411 -0.23400
O 	O 	0.49756 0.57583 0.83840 -0.50600
O 	O 	0.42000 0.59032 0.82728 -0.49200
O 	O 	0.43407 0.17826 0.82010 -0.48800
O 	O 	0.46494 0.17466 0.88006 -0.49300
O 	O 	0.05520 0.58620 0.18890 -0.54000
O 	O 	0.10510 0.58430 0.23920 -0.53800
O 	O 	0.30833 0.51747 0.96612 -0.24600
O 	O 	0.38118 0.34850 0.01018 -0.23900
O 	O 	0.27160 0.45095 0.11278 -0.24000
O 	O 	0.49343 0.62654 0.77569 -0.95800
O 	O 	0.98961 0.10632 0.30592 -0.95900
O 	O 	0.93284 0.55431 0.26662 -0.48600
O 	O 	0.95090 0.56363 0.20585 -0.50100
O 	O 	0.56810 0.14879 0.88554 -0.51200
O 	O 	0.62407 0.12518 0.83356 -0.48800
O 	O 	0.99387 0.16176 0.25065 -0.48600
O 	O 	0.91520 0.14534 0.26013 -0.49200
O 	O 	0.86050 0.39024 0.07297 -0.23400
O 	O 	0.72050 0.29366 0.00244 -0.22800
O 	O 	0.80900 0.21918 0.12008 -0.23100
O 	O 	0.53055 0.69461 0.74246 -0.50400
O 	O 	0.52887 0.63906 0.68891 -0.49800
O 	O 	0.92065 0.67920 0.31244 -0.52100
O 	O 	0.92081 0.63180 0.34127 -0.49300
O 	O 	0.60370 0.05926 0.74688 -0.49400
O 	O 	0.52600 0.03667 0.73559 -0.51900
O 	O 	0.62230 0.71331 0.53980 -0.23000
O 	O 	0.74930 0.80061 0.44389 -0.23800
O 	O 	0.70470 0.90607 0.58250 -0.23200
O 	O 	0.46680 0.71223 0.82100 -0.56400
O 	O 	0.40350 0.67299 0.82832 -0.47900
O 	O 	0.47782 0.10063 0.90009 -0.50500
O 	O 	0.44730 0.05860 0.84330 -0.54400
O 	O 	0.07580 0.05611 0.26201 -0.48600
O 	O 	0.07513 0.10528 0.23736 -0.50700
O 	O 	0.27472 0.82298 0.97261 -0.23500
O 	O 	0.35630 0.01994 0.03399 -0.25100
O 	O 	0.21945 0.92448 0.11411 -0.23400
O 	O 	0.00244 0.57583 0.33840 -0.50600
O 	O 	0.08000 0.59032 0.32728 -0.49200
O 	O 	0.06593 0.17826 0.32010 -0.48800
O 	O 	0.03506 0.17466 0.38006 -0.49300
O 	O 	0.44480 0.58620 0.68890 -0.54100
O 	O 	0.39490 0.58430 0.73920 -0.53800
O 	O 	0.19167 0.51747 0.46612 -0.24600
O 	O 	0.11882 0.34850 0.51018 -0.23900
O 	O 	0.22840 0.45095 0.61278 -0.24000
O 	O 	0.00657 0.62654 0.27569 -0.95800
O 	O 	0.51039 0.10632 0.80592 -0.96000
Zn	Zn	0.03312 0.40083 0.69683 1.22200
Zn	Zn	0.00176 0.39514 0.78309 1.22400
Zn	Zn	0.48690 0.31881 0.20895 1.22400
Zn	Zn	0.92368 0.37651 0.71028 1.20500
Zn	Zn	0.49568 0.87274 0.13566 1.21600
Zn	Zn	0.51122 0.95015 0.20908 1.17800
Zn	Zn	0.96836 0.86612 0.72009 1.22400
Zn	Zn	0.42285 0.89425 0.21162 1.21100
Zn	Zn	0.46688 0.40083 0.19683 1.22200
Zn	Zn	0.49824 0.39514 0.28309 1.22400
Zn	Zn	0.01310 0.31881 0.70895 1.22400
Zn	Zn	0.57632 0.37651 0.21028 1.20500
Zn	Zn	0.00432 0.87274 0.63566 1.21600
Zn	Zn	0.98878 0.95015 0.70908 1.17800
Zn	Zn	0.53164 0.86612 0.22009 1.22400
Zn	Zn	0.07715 0.89425 0.71162 1.21100
H 	H 	0.14400 0.62370 0.84480 0.12900
H 	H 	0.21850 0.77870 0.01710 0.14000
H 	H 	0.09930 0.73440 0.86090 0.13000
H 	H 	0.36970 0.22190 0.38070 0.12900
H 	H 	0.24000 0.26660 0.52180 0.13300
H 	H 	0.39430 0.12050 0.40400 0.13200
H 	H 	0.62450 0.14430 0.02980 0.13100
H 	H 	0.65480 0.04080 0.04880 0.13200
H 	H 	0.79110 0.00620 0.91630 0.13200
H 	H 	0.90410 0.52470 0.54800 0.13300
H 	H 	0.85510 0.64550 0.57320 0.13000
H 	H 	0.71750 0.51280 0.44260 0.13600
H 	H 	0.07810 0.49120 0.85150 -0.01400
H 	H 	0.09920 0.55270 0.88890 0.14800
H 	H 	0.13330 0.57370 0.78340 0.11700
H 	H 	0.10790 0.51060 0.74710 -0.00600
H 	H 	0.20220 0.66100 0.96040 0.05700
H 	H 	0.21390 0.76760 0.94550 0.05500
H 	H 	0.12680 0.68470 0.86990 0.01900
H 	H 	0.34360 0.75720 0.01720 0.12900
H 	H 	0.39960 0.79350 0.06250 -0.00000
H 	H 	0.29340 0.86070 0.13070 0.00400
H 	H 	0.23360 0.82590 0.08580 0.11700
H 	H 	0.17240 0.78850 0.81720 0.13300
H 	H 	0.14090 0.82650 0.77690 -0.00200
H 	H 	0.00730 0.80090 0.79560 -0.00200
H 	H 	0.02960 0.76230 0.83630 0.12100
H 	H 	0.44410 0.34960 0.37510 -0.01300
H 	H 	0.41340 0.31820 0.41740 0.15200
H 	H 	0.38660 0.22400 0.31920 0.11100
H 	H 	0.42640 0.25440 0.27620 -0.00800
H 	H 	0.31120 0.26250 0.49870 0.03600
H 	H 	0.27850 0.14980 0.48500 0.04900
H 	H 	0.36760 0.17500 0.40310 0.01500
H 	H 	0.20350 0.23800 0.60660 0.13100
H 	H 	0.14710 0.27440 0.65780 0.00500
H 	H 	0.12930 0.34940 0.59380 0.01100
H 	H 	0.17850 0.31280 0.54300 0.12600
H 	H 	0.45260 0.08070 0.37110 0.11200
H 	H 	0.47920 0.02180 0.32030 -0.00800
H 	H 	0.33950 0.98610 0.30490 -0.01000
H 	H 	0.31450 0.04280 0.35700 0.14600
H 	H 	0.53040 0.22530 0.12350 -0.00700
H 	H 	0.56610 0.17130 0.07220 0.10800
H 	H 	0.68990 0.23410 0.06960 0.14500
H 	H 	0.65210 0.28640 0.11700 -0.01100
H 	H 	0.65160 0.08840 0.02980 0.01500
H 	H 	0.71700 0.00740 0.93450 0.03000
H 	H 	0.74940 0.12150 0.95840 0.04500
H 	H 	0.62240 0.03440 0.10910 0.10900
H 	H 	0.60630 0.98740 0.14230 -0.00900
H 	H 	0.55690 0.91470 0.03790 -0.00100
H 	H 	0.60110 0.95060 0.00240 0.14100
H 	H 	0.82860 0.94850 0.88320 0.10900
H 	H 	0.87600 0.91150 0.82680 0.00400
H 	H 	0.88200 0.00230 0.78260 -0.00600
H 	H 	0.82790 0.03800 0.83440 0.12800
H 	H 	0.99880 0.46480 0.61420 -0.02100
H 	H 	0.96920 0.49890 0.57420 0.13900
H 	H 	0.83120 0.46920 0.58980 0.16400
H 	H 	0.86070 0.43700 0.63310 -0.02000
H 	H 	0.87150 0.58100 0.54940 0.02300
H 	H 	0.80710 0.60440 0.45220 0.04800
H 	H 	0.78690 0.49900 0.46720 0.04100
H 	H 	0.85180 0.70090 0.63020 0.10900
H 	H 	0.88310 0.76240 0.66660 0.00300
H 	H 	0.96020 0.76260 0.56680 0.00900
H 	H 	0.92470 0.70090 0.52870 0.13500
H 	H 	0.65280 0.47330 0.42590 0.11700
H 	H 	0.58890 0.44890 0.37780 0.00300
H 	H 	0.67160 0.46890 0.28800 -0.01100
H 	H 	0.72440 0.50620 0.34110 0.15000
H 	H 	0.35600 0.62370 0.34480 0.12900
H 	H 	0.28150 0.77870 0.51710 0.14000
H 	H 	0.40070 0.73440 0.36090 0.13000
H 	H 	0.13030 0.22190 0.88070 0.12900
H 	H 	0.26000 0.26660 0.02180 0.13300
H 	H 	0.10570 0.12050 0.90400 0.13200
H 	H 	0.87550 0.14430 0.52980 0.13200
H 	H 	0.84520 0.04080 0.54880 0.13200
H 	H 	0.70890 0.00620 0.41630 0.13200
H 	H 	0.59590 0.52470 0.04800 0.13300
H 	H 	0.64490 0.64550 0.07320 0.13000
H 	H 	0.78250 0.51280 0.94260 0.13600
H 	H 	0.42190 0.49120 0.35150 -0.01400
H 	H 	0.40080 0.55270 0.38890 0.14800
H 	H 	0.36670 0.57370 0.28340 0.11700
H 	H 	0.39210 0.51060 0.24710 -0.00600
H 	H 	0.29780 0.66100 0.46040 0.05700
H 	H 	0.28610 0.76760 0.44550 0.05500
H 	H 	0.37320 0.68470 0.36990 0.01900
H 	H 	0.15640 0.75720 0.51720 0.12900
H 	H 	0.10040 0.79350 0.56250 -0.00000
H 	H 	0.20660 0.86070 0.63070 0.00400
H 	H 	0.26640 0.82590 0.58580 0.11700
H 	H 	0.32760 0.78850 0.31720 0.13300
H 	H 	0.35910 0.82650 0.27690 -0.00200
H 	H 	0.49270 0.80090 0.29560 -0.00300
H 	H 	0.47040 0.76230 0.33630 0.12100
H 	H 	0.05590 0.34960 0.87510 -0.01300
H 	H 	0.08660 0.31820 0.91740 0.15200
H 	H 	0.11340 0.22400 0.81920 0.11100
H 	H 	0.07360 0.25440 0.77620 -0.00800
H 	H 	0.18880 0.26250 0.99870 0.03600
H 	H 	0.22150 0.14980 0.98500 0.04900
H 	H 	0.13240 0.17500 0.90310 0.01500
H 	H 	0.29650 0.23800 0.10660 0.13100
H 	H 	0.35290 0.27440 0.15780 0.00500
H 	H 	0.37070 0.34940 0.09380 0.01100
H 	H 	0.32150 0.31280 0.04300 0.12600
H 	H 	0.04740 0.08070 0.87110 0.11200
H 	H 	0.02080 0.02180 0.82030 -0.00800
H 	H 	0.16050 0.98610 0.80490 -0.00900
H 	H 	0.18550 0.04280 0.85700 0.14600
H 	H 	0.96960 0.22530 0.62350 -0.00700
H 	H 	0.93390 0.17130 0.57220 0.10900
H 	H 	0.81010 0.23410 0.56960 0.14500
H 	H 	0.84790 0.28640 0.61700 -0.01100
H 	H 	0.84840 0.08840 0.52980 0.01500
H 	H 	0.78300 0.00740 0.43450 0.03000
H 	H 	0.75060 0.12150 0.45840 0.04500
H 	H 	0.87760 0.03440 0.60910 0.10900
H 	H 	0.89370 0.98740 0.64230 -0.00900
H 	H 	0.94310 0.91470 0.53790 -0.00100
H 	H 	0.89890 0.95060 0.50240 0.14100
H 	H 	0.67140 0.94850 0.38320 0.10900
H 	H 	0.62400 0.91150 0.32680 0.00400
H 	H 	0.61800 0.00230 0.28260 -0.00600
H 	H 	0.67210 0.03800 0.33440 0.12800
H 	H 	0.50120 0.46480 0.11420 -0.02100
H 	H 	0.53080 0.49890 0.07420 0.13900
H 	H 	0.66880 0.46920 0.08980 0.16400
H 	H 	0.63930 0.43700 0.13310 -0.02000
H 	H 	0.62850 0.58100 0.04940 0.02300
H 	H 	0.69290 0.60440 0.95220 0.04800
H 	H 	0.71310 0.49900 0.96720 0.04100
H 	H 	0.64820 0.70090 0.13020 0.10900
H 	H 	0.61690 0.76240 0.16660 0.00300
H 	H 	0.53980 0.76260 0.06680 0.00900
H 	H 	0.57530 0.70090 0.02870 0.13500
H 	H 	0.84720 0.47330 0.92590 0.11700
H 	H 	0.91110 0.44890 0.87780 0.00400
H 	H 	0.82840 0.46890 0.78800 -0.01100
H 	H 	0.77560 0.50620 0.84110 0.15000
C 	C 	0.06740 0.45710 0.77300 0.40700
C 	C 	0.08750 0.49557 0.79590 -0.23700
C 	C 	0.08810 0.50870 0.83740 0.19500
C 	C 	0.10150 0.54450 0.85970 -0.26900
C 	C 	0.11920 0.57002 0.83990 0.23600
C 	C 	0.12130 0.55707 0.79780 -0.25400
C 	C 	0.10570 0.51960 0.77630 0.17000
C 	C 	0.14440 0.62586 0.90140 0.24000
C 	C 	0.16180 0.66744 0.91340 -0.07100
C 	C 	0.19320 0.67883 0.94650 0.01100
C 	C 	0.21220 0.71779 0.95990 -0.07500
C 	C 	0.20040 0.74200 0.93790 0.00500
C 	C 	0.16890 0.72927 0.90471 -0.07200
C 	C 	0.14910 0.69262 0.89254 0.00800
C 	C 	0.24790 0.72880 0.99310 0.24200
C 	C 	0.28070 0.78625 0.04720 0.22000
C 	C 	0.33280 0.77803 0.04050 -0.22000
C 	C 	0.36540 0.79950 0.06683 0.14700
C 	C 	0.35100 0.83089 0.10090 -0.19900
C 	C 	0.30300 0.83950 0.10730 0.15000
C 	C 	0.26740 0.81856 0.08100 -0.22800
C 	C 	0.38950 0.85340 0.12940 0.39800
C 	C 	0.15910 0.75686 0.88050 0.24600
C 	C 	0.10170 0.77489 0.83360 0.23000
C 	C 	0.13790 0.79140 0.81380 -0.22600
C 	C 	0.11810 0.81283 0.78830 0.16700
C 	C 	0.07220 0.81483 0.77990 -0.24700
C 	C 	0.04160 0.79780 0.79950 0.16800
C 	C 	0.05370 0.77560 0.82550 -0.25700
C 	C 	0.05360 0.83769 0.75536 0.42800
C 	C 	0.45940 0.32570 0.29528 0.42500
C 	C 	0.43990 0.30520 0.32249 -0.23100
C 	C 	0.43420 0.32310 0.36360 0.19500
C 	C 	0.41510 0.30490 0.38860 -0.28400
C 	C 	0.39830 0.26760 0.37300 0.25500
C 	C 	0.40050 0.24940 0.33080 -0.24800
C 	C 	0.42300 0.26760 0.30490 0.15600
C 	C 	0.36730 0.25420 0.43480 0.23700
C 	C 	0.34540 0.22400 0.45110 -0.07800
C 	C 	0.31510 0.23539 0.48410 0.02000
C 	C 	0.28950 0.20841 0.49720 -0.08200
C 	C 	0.29580 0.16849 0.47600 0.03400
C 	C 	0.32590 0.15610 0.44310 -0.10100
C 	C 	0.34940 0.18340 0.42810 0.01600
C 	C 	0.25820 0.21920 0.53480 0.24000
C 	C 	0.19940 0.27324 0.57090 0.22200
C 	C 	0.18820 0.26080 0.60410 -0.21400
C 	C 	0.15380 0.28207 0.63430 0.12200
C 	C 	0.13050 0.31385 0.62910 -0.18900
C 	C 	0.14310 0.32590 0.59590 0.15400
C 	C 	0.17380 0.30542 0.56700 -0.23800
C 	C 	0.09470 0.33610 0.66220 0.41200
C 	C 	0.33160 0.11630 0.41870 0.26700
C 	C 	0.38100 0.06650 0.36830 0.25700
C 	C 	0.42910 0.06120 0.35760 -0.25000
C 	C 	0.44500 0.02670 0.32630 0.14000
C 	C 	0.40940 0.00050 0.30470 -0.22600
C 	C 	0.36330 0.00566 0.31750 0.17800
C 	C 	0.34840 0.03940 0.34920 -0.27300
C 	C 	0.42770 0.96550 0.27230 0.39800
C 	C 	0.57090 0.29090 0.15930 0.39600
C 	C 	0.59230 0.26070 0.12570 -0.23400
C 	C 	0.56240 0.22670 0.11260 0.14100
C 	C 	0.58410 0.19510 0.08190 -0.23800
C 	C 	0.62980 0.19650 0.06510 0.24300
C 	C 	0.65760 0.23182 0.07950 -0.25500
C 	C 	0.63510 0.26206 0.10850 0.18900
C 	C 	0.69080 0.15322 0.02190 0.24700
C 	C 	0.69730 0.11112 0.99697 -0.08400
C 	C 	0.67320 0.08207 0.00671 0.02000
C 	C 	0.68030 0.04228 0.98230 -0.09600
C 	C 	0.71240 0.03396 0.95067 0.02900
C 	C 	0.73870 0.06196 0.94079 -0.09000
C 	C 	0.73130 0.10151 0.96448 0.02300
C 	C 	0.65530 0.00990 0.99120 0.25400
C 	C 	0.62060 0.99500 0.05150 0.24500
C 	C 	0.61500 0.00800 0.09380 -0.24300
C 	C 	0.59850 0.98240 0.11410 0.14700
C 	C 	0.57180 0.95100 0.09400 -0.21000
C 	C 	0.57310 0.93840 0.05290 0.15200
C 	C 	0.59910 0.96054 0.03160 -0.24600
C 	C 	0.54440 0.92960 0.11960 0.42500
C 	C 	0.77170 0.05306 0.90610 0.23100
C 	C 	0.82380 0.99700 0.86430 0.21300
C 	C 	0.83820 0.95910 0.86230 -0.22200
C 	C 	0.86690 0.93750 0.82890 0.14100
C 	C 	0.88180 0.95210 0.79980 -0.20200
C 	C 	0.86940 0.99130 0.80220 0.12900
C 	C 	0.83880 0.01270 0.83360 -0.21600
C 	C 	0.91160 0.92760 0.76490 0.43500
C 	C 	0.95220 0.42495 0.65597 0.45400
C 	C 	0.93180 0.44751 0.63003 -0.25400
C 	C 	0.96420 0.46597 0.61030 0.21300
C 	C 	0.94650 0.48535 0.58593 -0.32500
C 	C 	0.89900 0.48653 0.57740 0.30000
C 	C 	0.86560 0.46860 0.59510 -0.30700
C 	C 	0.88380 0.44960 0.62080 0.21500
C 	C 	0.83990 0.50522 0.53281 0.25800
C 	C 	0.83210 0.53549 0.51212 -0.07600
C 	C 	0.85150 0.57257 0.52536 0.00300
C 	C 	0.84080 0.59849 0.50210 -0.06800
C 	C 	0.81250 0.58727 0.46778 0.01300
C 	C 	0.79190 0.55110 0.45599 -0.07000
C 	C 	0.80110 0.52440 0.47670 0.00700
C 	C 	0.86440 0.63829 0.51600 0.22800
C 	C 	0.88640 0.69491 0.57600 0.22900
C 	C 	0.87360 0.71360 0.61690 -0.23000
C 	C 	0.89170 0.75012 0.63850 0.13600
C 	C 	0.92180 0.76807 0.61900 -0.18000
C 	C 	0.93680 0.75031 0.57931 0.12500
C 	C 	0.91670 0.71292 0.55693 -0.22900
C 	C 	0.94170 0.80890 0.64180 0.40600
C 	C 	0.76250 0.53930 0.41650 0.24100
C 	C 	0.69280 0.49410 0.38610 0.26200
C 	C 	0.65470 0.47420 0.39850 -0.24400
C 	C 	0.62010 0.45600 0.36960 0.14000
C 	C 	0.63160 0.44770 0.32590 -0.21900
C 	C 	0.66740 0.46910 0.31550 0.17000
C 	C 	0.69820 0.49180 0.34790 -0.27700
C 	C 	0.59550 0.42340 0.29680 0.46300
C 	C 	0.43260 0.45710 0.27300 0.40700
C 	C 	0.41250 0.49557 0.29590 -0.23700
C 	C 	0.41190 0.50870 0.33740 0.19500
C 	C 	0.39850 0.54450 0.35970 -0.26900
C 	C 	0.38080 0.57002 0.33990 0.23600
C 	C 	0.37870 0.55707 0.29780 -0.25400
C 	C 	0.39430 0.51960 0.27630 0.17000
C 	C 	0.35560 0.62586 0.40140 0.24000
C 	C 	0.33820 0.66744 0.41340 -0.07100
C 	C 	0.30680 0.67883 0.44650 0.01100
C 	C 	0.28780 0.71779 0.45990 -0.07500
C 	C 	0.29960 0.74200 0.43790 0.00500
C 	C 	0.33110 0.72927 0.40471 -0.07200
C 	C 	0.35090 0.69262 0.39254 0.00800
C 	C 	0.25210 0.72880 0.49310 0.24200
C 	C 	0.21930 0.78625 0.54720 0.22000
C 	C 	0.16720 0.77803 0.54050 -0.22000
C 	C 	0.13460 0.79950 0.56683 0.14700
C 	C 	0.14900 0.83089 0.60090 -0.19900
C 	C 	0.19700 0.83950 0.60730 0.15000
C 	C 	0.23260 0.81856 0.58100 -0.22800
C 	C 	0.11050 0.85340 0.62940 0.39800
C 	C 	0.34090 0.75686 0.38050 0.24600
C 	C 	0.39830 0.77489 0.33360 0.23000
C 	C 	0.36210 0.79140 0.31380 -0.22600
C 	C 	0.38190 0.81283 0.28830 0.16700
C 	C 	0.42780 0.81483 0.27990 -0.24700
C 	C 	0.45840 0.79780 0.29950 0.16800
C 	C 	0.44630 0.77560 0.32550 -0.25700
C 	C 	0.44640 0.83769 0.25536 0.42800
C 	C 	0.04060 0.32570 0.79528 0.42500
C 	C 	0.06010 0.30520 0.82249 -0.23100
C 	C 	0.06580 0.32310 0.86360 0.19500
C 	C 	0.08490 0.30490 0.88860 -0.28400
C 	C 	0.10170 0.26760 0.87300 0.25500
C 	C 	0.09950 0.24940 0.83080 -0.24800
C 	C 	0.07700 0.26760 0.80490 0.15600
C 	C 	0.13270 0.25420 0.93480 0.23700
C 	C 	0.15460 0.22400 0.95110 -0.07800
C 	C 	0.18490 0.23539 0.98410 0.02000
C 	C 	0.21050 0.20841 0.99720 -0.08300
C 	C 	0.20420 0.16849 0.97600 0.03500
C 	C 	0.17410 0.15610 0.94310 -0.10100
C 	C 	0.15060 0.18340 0.92810 0.01600
C 	C 	0.24180 0.21920 0.03480 0.24000
C 	C 	0.30060 0.27324 0.07090 0.22200
C 	C 	0.31180 0.26080 0.10410 -0.21400
C 	C 	0.34620 0.28207 0.13430 0.12200
C 	C 	0.36950 0.31385 0.12910 -0.18900
C 	C 	0.35690 0.32590 0.09590 0.15400
C 	C 	0.32620 0.30542 0.06700 -0.23800
C 	C 	0.40530 0.33610 0.16220 0.41200
C 	C 	0.16840 0.11630 0.91870 0.26700
C 	C 	0.11900 0.06650 0.86830 0.25700
C 	C 	0.07090 0.06120 0.85760 -0.25000
C 	C 	0.05500 0.02670 0.82630 0.14000
C 	C 	0.09060 0.00050 0.80470 -0.22600
C 	C 	0.13670 0.00566 0.81750 0.17700
C 	C 	0.15160 0.03940 0.84920 -0.27300
C 	C 	0.07230 0.96550 0.77230 0.39900
C 	C 	0.92910 0.29090 0.65930 0.39600
C 	C 	0.90770 0.26070 0.62570 -0.23400
C 	C 	0.93760 0.22670 0.61260 0.14100
C 	C 	0.91590 0.19510 0.58190 -0.23800
C 	C 	0.87020 0.19650 0.56510 0.24300
C 	C 	0.84240 0.23182 0.57950 -0.25500
C 	C 	0.86490 0.26206 0.60850 0.18900
C 	C 	0.80920 0.15322 0.52190 0.24700
C 	C 	0.80270 0.11112 0.49697 -0.08400
C 	C 	0.82680 0.08207 0.50671 0.02000
C 	C 	0.81970 0.04228 0.48230 -0.09600
C 	C 	0.78760 0.03396 0.45067 0.02900
C 	C 	0.76130 0.06196 0.44079 -0.09000
C 	C 	0.76870 0.10151 0.46448 0.02300
C 	C 	0.84470 0.00990 0.49120 0.25400
C 	C 	0.87940 0.99500 0.55150 0.24500
C 	C 	0.88500 0.00800 0.59380 -0.24200
C 	C 	0.90150 0.98240 0.61410 0.14700
C 	C 	0.92820 0.95100 0.59400 -0.21000
C 	C 	0.92690 0.93840 0.55290 0.15200
C 	C 	0.90090 0.96054 0.53160 -0.24600
C 	C 	0.95560 0.92960 0.61960 0.42500
C 	C 	0.72830 0.05306 0.40610 0.23100
C 	C 	0.67620 0.99700 0.36430 0.21300
C 	C 	0.66180 0.95910 0.36230 -0.22200
C 	C 	0.63310 0.93750 0.32890 0.14100
C 	C 	0.61820 0.95210 0.29980 -0.20200
C 	C 	0.63060 0.99130 0.30220 0.12900
C 	C 	0.66120 0.01270 0.33360 -0.21600
C 	C 	0.58840 0.92760 0.26490 0.43500
C 	C 	0.54780 0.42495 0.15597 0.45400
C 	C 	0.56820 0.44751 0.13003 -0.25400
C 	C 	0.53580 0.46597 0.11030 0.21300
C 	C 	0.55350 0.48535 0.08593 -0.32500
C 	C 	0.60100 0.48653 0.07740 0.30000
C 	C 	0.63440 0.46860 0.09510 -0.30700
C 	C 	0.61620 0.44960 0.12080 0.21500
C 	C 	0.66010 0.50522 0.03281 0.25800
C 	C 	0.66790 0.53549 0.01212 -0.07600
C 	C 	0.64850 0.57257 0.02536 0.00300
C 	C 	0.65920 0.59849 0.00210 -0.06800
C 	C 	0.68750 0.58727 0.96778 0.01400
C 	C 	0.70810 0.55110 0.95599 -0.07100
C 	C 	0.69890 0.52440 0.97670 0.00700
C 	C 	0.63560 0.63829 0.01600 0.22800
C 	C 	0.61360 0.69491 0.07600 0.22900
C 	C 	0.62640 0.71360 0.11690 -0.23000
C 	C 	0.60830 0.75012 0.13850 0.13600
C 	C 	0.57820 0.76807 0.11900 -0.18000
C 	C 	0.56320 0.75031 0.07931 0.12500
C 	C 	0.58330 0.71292 0.05693 -0.22900
C 	C 	0.55830 0.80890 0.14180 0.40600
C 	C 	0.73750 0.53930 0.91650 0.24100
C 	C 	0.80720 0.49410 0.88610 0.26200
C 	C 	0.84530 0.47420 0.89850 -0.24400
C 	C 	0.87990 0.45600 0.86960 0.14000
C 	C 	0.86840 0.44770 0.82590 -0.21900
C 	C 	0.83260 0.46910 0.81550 0.17000
C 	C 	0.80180 0.49180 0.84790 -0.27700
C 	C 	0.90450 0.42340 0.79680 0.46300
N 	N 	0.13710 0.60927 0.86049 -0.25400
N 	N 	0.24560 0.76577 0.01862 -0.25500
N 	N 	0.11910 0.75322 0.85934 -0.26200
N 	N 	0.37750 0.24591 0.39559 -0.26800
N 	N 	0.23340 0.25476 0.53994 -0.24900
N 	N 	0.36970 0.10366 0.39870 -0.27800
N 	N 	0.64680 0.16296 0.03810 -0.27100
N 	N 	0.64470 0.01791 0.03248 -0.26300
N 	N 	0.79510 0.01768 0.89750 -0.25200
N 	N 	0.88290 0.50766 0.55185 -0.27700
N 	N 	0.86698 0.65768 0.55680 -0.25800
N 	N 	0.72360 0.51520 0.41835 -0.26200
N 	N 	0.36290 0.60927 0.36049 -0.25400
N 	N 	0.25440 0.76577 0.51862 -0.25500
N 	N 	0.38090 0.75322 0.35934 -0.26200
N 	N 	0.12250 0.24591 0.89559 -0.26800
N 	N 	0.26660 0.25476 0.03994 -0.24900
N 	N 	0.13030 0.10366 0.89870 -0.27800
N 	N 	0.85320 0.16296 0.53810 -0.27100
N 	N 	0.85530 0.01791 0.53248 -0.26300
N 	N 	0.70490 0.01768 0.39750 -0.25200
N 	N 	0.61710 0.50766 0.05185 -0.27700
N 	N 	0.63302 0.65768 0.05680 -0.25800
N 	N 	0.77640 0.51520 0.91835 -0.26200
O 	O 	0.06716 0.44569 0.73338 -0.48600
O 	O 	0.04910 0.43637 0.79415 -0.50100
O 	O 	0.43190 0.85121 0.11446 -0.51200
O 	O 	0.37593 0.87482 0.16644 -0.48800
O 	O 	0.00613 0.83824 0.74935 -0.48600
O 	O 	0.08480 0.85466 0.73987 -0.49200
O 	O 	0.13950 0.60976 0.92703 -0.23400
O 	O 	0.27950 0.70634 0.99756 -0.22800
O 	O 	0.19100 0.78082 0.87992 -0.23100
O 	O 	0.46945 0.30539 0.25754 -0.50400
O 	O 	0.47113 0.36094 0.31109 -0.49800
O 	O 	0.07935 0.32080 0.68756 -0.52100
O 	O 	0.07919 0.36820 0.65873 -0.49300
O 	O 	0.39630 0.94074 0.25312 -0.49400
O 	O 	0.47400 0.96333 0.26441 -0.51900
O 	O 	0.37770 0.28669 0.46020 -0.23000
O 	O 	0.25070 0.19939 0.55611 -0.23800
O 	O 	0.29530 0.09393 0.41750 -0.23200
O 	O 	0.53320 0.28777 0.17900 -0.56400
O 	O 	0.59650 0.32701 0.17168 -0.47900
O 	O 	0.52218 0.89937 0.09991 -0.50500
O 	O 	0.55270 0.94140 0.15670 -0.54400
O 	O 	0.92420 0.94389 0.73799 -0.48600
O 	O 	0.92487 0.89472 0.76264 -0.50700
O 	O 	0.72528 0.17702 0.02739 -0.23500
O 	O 	0.64370 0.98006 0.96601 -0.25100
O 	O 	0.78055 0.07552 0.88589 -0.23400
O 	O 	0.99756 0.42417 0.66160 -0.50600
O 	O 	0.92000 0.40968 0.67272 -0.49200
O 	O 	0.93407 0.82174 0.67990 -0.48800
O 	O 	0.96494 0.82534 0.61994 -0.49300
O 	O 	0.55520 0.41380 0.31110 -0.54100
O 	O 	0.60510 0.41570 0.26080 -0.53800
O 	O 	0.80833 0.48253 0.53388 -0.24600
O 	O 	0.88118 0.65150 0.48982 -0.23900
O 	O 	0.77160 0.54905 0.38722 -0.24000
O 	O 	0.99343 0.37346 0.72431 -0.95800
O 	O 	0.48961 0.89368 0.19408 -0.96000
O 	O 	0.43284 0.44569 0.23338 -0.48600
O 	O 	0.45090 0.43637 0.29415 -0.50100
O 	O 	0.06810 0.85121 0.61446 -0.51200
O 	O 	0.12407 0.87482 0.66644 -0.48800
O 	O 	0.49387 0.83824 0.24935 -0.48600
O 	O 	0.41520 0.85466 0.23987 -0.49200
O 	O 	0.36050 0.60976 0.42703 -0.23400
O 	O 	0.22050 0.70634 0.49756 -0.22800
O 	O 	0.30900 0.78082 0.37992 -0.23100
O 	O 	0.03055 0.30539 0.75754 -0.50400
O 	O 	0.02887 0.36094 0.81109 -0.49800
O 	O 	0.42065 0.32080 0.18756 -0.52100
O 	O 	0.42081 0.36820 0.15873 -0.49300
O 	O 	0.10370 0.94074 0.75312 -0.49400
O 	O 	0.02600 0.96333 0.76441 -0.51800
O 	O 	0.12230 0.28669 0.96020 -0.23000
O 	O 	0.24930 0.19939 0.05611 -0.23800
O 	O 	0.20470 0.09393 0.91750 -0.23200
O 	O 	0.96680 0.28777 0.67900 -0.56400
O 	O 	0.90350 0.32701 0.67168 -0.47900
O 	O 	0.97782 0.89937 0.59991 -0.50500
O 	O 	0.94730 0.94140 0.65670 -0.54400
O 	O 	0.57580 0.94389 0.23799 -0.48600
O 	O 	0.57513 0.89472 0.26264 -0.50700
O 	O 	0.77472 0.17702 0.52739 -0.23500
O 	O 	0.85630 0.98006 0.46601 -0.25100
O 	O 	0.71945 0.07552 0.38589 -0.23400
O 	O 	0.50244 0.42417 0.16160 -0.50600
O 	O 	0.58000 0.40968 0.17272 -0.49200
O 	O 	0.56593 0.82174 0.17990 -0.48800
O 	O 	0.53506 0.82534 0.11994 -0.49300
O 	O 	0.94480 0.41380 0.81110 -0.54000
O 	O 	0.89490 0.41570 0.76080 -0.53800
O 	O 	0.69167 0.48253 0.03388 -0.24600
O 	O 	0.61882 0.65150 0.98982 -0.23900
O 	O 	0.72840 0.54905 0.88722 -0.24000
O 	O 	0.50657 0.37346 0.22431 -0.95800
O 	O 	0.01039 0.89368 0.69408 -0.95900
