data_crystal

_cell_length_a 12.83990
_cell_length_b 12.83990
_cell_length_c 34.87250
_cell_angle_alpha 82.40350
_cell_angle_beta  82.40350
_cell_angle_gamma 63.71650

_symmetry_space_group_name_	'P 1'
_symmetry_space_group_name_H-M	'P 1'

loop_
_symmetry_equiv_pos_as_xyz
  x,y,z

loop_
_atom_site_label
_atom_site_type_symbol
_atom_site_fract_x
_atom_site_fract_y
_atom_site_fract_z
_atom_site_charge
Tb	Tb	0.79635 0.63792 0.44116 1.81600
Tb	Tb	0.86978 0.65054 0.31586 1.77300
Tb	Tb	0.63792 0.79635 0.94116 1.81600
Tb	Tb	0.65054 0.86978 0.81586 1.77300
H 	H 	0.87320 0.95280 0.43610 -0.01700
H 	H 	0.93840 0.09800 0.43130 0.10400
H 	H 	0.99650 0.89850 0.32630 -0.00700
H 	H 	0.38490 0.04650 0.29020 0.07600
H 	H 	0.55960 0.90100 0.30860 -0.03000
H 	H 	0.41060 0.88960 0.41580 0.00600
H 	H 	0.44990 0.67350 0.71260 0.01800
H 	H 	0.52010 0.49510 0.68680 0.09700
H 	H 	0.75490 0.56630 0.75700 -0.00400
H 	H 	0.51080 0.38780 0.59470 0.09800
H 	H 	0.54560 0.47880 0.53550 0.02200
H 	H 	0.86770 0.38570 0.56260 0.01000
H 	H 	0.23880 0.39400 0.33590 -0.01200
H 	H 	0.41890 0.24330 0.34800 0.11300
H 	H 	0.14080 0.36600 0.44860 -0.02800
H 	H 	0.60780 0.24320 0.43020 0.10800
H 	H 	0.67270 0.38390 0.42990 -0.00400
H 	H 	0.79800 0.33600 0.32010 0.01900
H 	H 	0.95280 0.87320 0.93610 -0.01800
H 	H 	0.09800 0.93840 0.93130 0.10300
H 	H 	0.89850 0.99650 0.82630 -0.00800
H 	H 	0.04650 0.38490 0.79020 0.07500
H 	H 	0.90100 0.55960 0.80860 -0.03000
H 	H 	0.88960 0.41060 0.91580 0.00600
H 	H 	0.67350 0.44990 0.21260 0.01800
H 	H 	0.49510 0.52010 0.18680 0.09700
H 	H 	0.56630 0.75490 0.25700 -0.00400
H 	H 	0.38780 0.51080 0.09470 0.09800
H 	H 	0.47880 0.54560 0.03550 0.02200
H 	H 	0.38570 0.86770 0.06260 0.01000
H 	H 	0.39400 0.23880 0.83590 -0.01200
H 	H 	0.24330 0.41890 0.84800 0.11300
H 	H 	0.36600 0.14080 0.94860 -0.02800
H 	H 	0.24320 0.60780 0.93020 0.10800
H 	H 	0.38390 0.67270 0.92990 -0.00400
H 	H 	0.33600 0.79800 0.82010 0.01900
C 	C 	0.88600 0.81800 0.38027 0.53400
C 	C 	0.92750 0.91070 0.38080 -0.23100
C 	C 	0.91030 0.96990 0.41307 0.14200
C 	C 	0.94980 0.05540 0.41029 -0.19400
C 	C 	0.00550 0.07570 0.37628 0.13100
C 	C 	0.98420 0.93900 0.34794 0.14500
C 	C 	0.29840 0.04940 0.34296 0.12100
C 	C 	0.39190 0.01310 0.31562 -0.19200
C 	C 	0.49520 0.92720 0.32661 0.14300
C 	C 	0.50420 0.87860 0.36471 -0.22700
C 	C 	0.40530 0.92130 0.39013 0.13100
C 	C 	0.61580 0.78460 0.37806 0.51200
C 	C 	0.55770 0.75730 0.75264 0.40700
C 	C 	0.59610 0.64170 0.73731 -0.17100
C 	C 	0.52530 0.61750 0.71636 0.08900
C 	C 	0.56620 0.51140 0.70125 -0.16400
C 	C 	0.67800 0.42960 0.70829 0.11400
C 	C 	0.70660 0.55280 0.74263 0.10500
C 	C 	0.66850 0.34290 0.61232 0.11800
C 	C 	0.58220 0.39060 0.58794 -0.16400
C 	C 	0.60370 0.44350 0.55258 0.08300
C 	C 	0.71070 0.44410 0.54265 -0.14300
C 	C 	0.79390 0.38870 0.56914 0.09000
C 	C 	0.73730 0.50450 0.50555 0.34300
C 	C 	0.05030 0.49130 0.38518 0.53500
C 	C 	0.16830 0.39630 0.39153 -0.24100
C 	C 	0.25400 0.35900 0.36096 0.15400
C 	C 	0.36080 0.27040 0.36805 -0.20700
C 	C 	0.38060 0.22180 0.40586 0.13600
C 	C 	0.19730 0.34170 0.42789 0.15300
C 	C 	0.66910 0.20670 0.37571 0.12600
C 	C 	0.64740 0.26180 0.40817 -0.20400
C 	C 	0.68560 0.34560 0.40770 0.13900
C 	C 	0.74250 0.37450 0.37507 -0.21500
C 	C 	0.78380 0.46740 0.37503 0.51000
C 	C 	0.76070 0.31630 0.34261 0.11700
C 	C 	0.81800 0.88600 0.88027 0.53400
C 	C 	0.91070 0.92750 0.88080 -0.23100
C 	C 	0.96990 0.91030 0.91307 0.14200
C 	C 	0.05540 0.94980 0.91029 -0.19300
C 	C 	0.07570 0.00550 0.87628 0.13000
C 	C 	0.93900 0.98420 0.84794 0.14500
C 	C 	0.04940 0.29840 0.84296 0.12100
C 	C 	0.01310 0.39190 0.81562 -0.19200
C 	C 	0.92720 0.49520 0.82661 0.14300
C 	C 	0.87860 0.50420 0.86471 -0.22700
C 	C 	0.92130 0.40530 0.89013 0.13100
C 	C 	0.78460 0.61580 0.87806 0.51200
C 	C 	0.75730 0.55770 0.25264 0.40700
C 	C 	0.64170 0.59610 0.23731 -0.17100
C 	C 	0.61750 0.52530 0.21636 0.08900
C 	C 	0.51140 0.56620 0.20125 -0.16400
C 	C 	0.42960 0.67800 0.20829 0.11400
C 	C 	0.55280 0.70660 0.24263 0.10500
C 	C 	0.34290 0.66850 0.11232 0.11800
C 	C 	0.39060 0.58220 0.08794 -0.16400
C 	C 	0.44350 0.60370 0.05258 0.08300
C 	C 	0.44410 0.71070 0.04265 -0.14300
C 	C 	0.38870 0.79390 0.06914 0.09000
C 	C 	0.50450 0.73730 0.00555 0.34300
C 	C 	0.49130 0.05030 0.88518 0.53500
C 	C 	0.39630 0.16830 0.89153 -0.24100
C 	C 	0.35900 0.25400 0.86096 0.15400
C 	C 	0.27040 0.36080 0.86805 -0.20700
C 	C 	0.22180 0.38060 0.90586 0.13600
C 	C 	0.34170 0.19730 0.92789 0.15300
C 	C 	0.20670 0.66910 0.87571 0.12600
C 	C 	0.26180 0.64740 0.90817 -0.20400
C 	C 	0.34560 0.68560 0.90770 0.13900
C 	C 	0.37450 0.74250 0.87507 -0.21500
C 	C 	0.46740 0.78380 0.87503 0.51000
C 	C 	0.31630 0.76070 0.84261 0.11700
S 	S 	0.05136 0.19034 0.37393 -0.01500
S 	S 	0.16625 0.16259 0.32675 -0.04100
S 	S 	0.51375 0.10499 0.41972 -0.04500
S 	S 	0.62721 0.09251 0.37250 -0.02600
S 	S 	0.74785 0.28603 0.69277 -0.02400
S 	S 	0.63574 0.27844 0.65864 -0.02600
S 	S 	0.19034 0.05136 0.87393 -0.01500
S 	S 	0.16259 0.16625 0.82675 -0.04100
S 	S 	0.10499 0.51375 0.91972 -0.04500
S 	S 	0.09251 0.62721 0.87250 -0.02600
S 	S 	0.28603 0.74785 0.19277 -0.02400
S 	S 	0.27844 0.63574 0.15864 -0.02600
N 	N 	0.74749 0.44929 0.72842 -0.15700
N 	N 	0.77320 0.33860 0.60412 -0.13900
N 	N 	0.02310 0.02110 0.34477 -0.15000
N 	N 	0.30230 0.00570 0.38009 -0.14400
N 	N 	0.30100 0.25660 0.43522 -0.17300
N 	N 	0.72550 0.23010 0.34257 -0.13900
N 	N 	0.44929 0.74749 0.22842 -0.15700
N 	N 	0.33860 0.77320 0.10412 -0.13900
N 	N 	0.02110 0.02310 0.84477 -0.15000
N 	N 	0.00570 0.30230 0.88009 -0.14400
N 	N 	0.25660 0.30100 0.93522 -0.17300
N 	N 	0.23010 0.72550 0.84257 -0.13900
O 	O 	0.89641 0.78021 0.34830 -0.54700
O 	O 	0.84243 0.78703 0.41145 -0.54000
O 	O 	0.69721 0.73701 0.35320 -0.53700
O 	O 	0.62193 0.75833 0.41378 -0.50600
O 	O 	0.02838 0.53018 0.35087 -0.52600
O 	O 	0.98133 0.52653 0.41445 -0.53400
O 	O 	0.82503 0.49703 0.34352 -0.49500
O 	O 	0.77329 0.50789 0.40666 -0.50200
O 	O 	0.63531 0.77291 0.76676 -0.49500
O 	O 	0.45511 0.83151 0.74998 -0.29800
O 	O 	0.84059 0.48699 0.49466 -0.43600
O 	O 	0.65590 0.57370 0.48556 -0.38400
O 	O 	0.78021 0.89641 0.84830 -0.54700
O 	O 	0.78703 0.84243 0.91145 -0.54000
O 	O 	0.73701 0.69721 0.85320 -0.53700
O 	O 	0.75833 0.62193 0.91378 -0.50600
O 	O 	0.53018 0.02838 0.85087 -0.52600
O 	O 	0.52653 0.98133 0.91445 -0.53400
O 	O 	0.49703 0.82503 0.84352 -0.49500
O 	O 	0.50789 0.77329 0.90666 -0.50200
O 	O 	0.77291 0.63531 0.26676 -0.49500
O 	O 	0.83151 0.45511 0.24998 -0.29800
O 	O 	0.48699 0.84059 0.99466 -0.43600
O 	O 	0.57370 0.65590 0.98556 -0.38400
Tb	Tb	0.36208 0.20365 0.05884 1.81500
Tb	Tb	0.34946 0.13022 0.18414 1.77200
Tb	Tb	0.20365 0.36208 0.55884 1.81500
Tb	Tb	0.13022 0.34946 0.68414 1.77200
H 	H 	0.04720 0.12680 0.06390 -0.01800
H 	H 	0.90200 0.06160 0.06870 0.10300
H 	H 	0.10150 0.00350 0.17370 -0.00800
H 	H 	0.95350 0.61510 0.20980 0.07500
H 	H 	0.09900 0.44040 0.19140 -0.03000
H 	H 	0.11040 0.58940 0.08420 0.00600
H 	H 	0.32650 0.55010 0.78740 0.01800
H 	H 	0.50490 0.47990 0.81320 0.09700
H 	H 	0.43370 0.24510 0.74300 -0.00400
H 	H 	0.61220 0.48920 0.90530 0.09800
H 	H 	0.52120 0.45440 0.96450 0.02200
H 	H 	0.61430 0.13230 0.93740 0.01000
H 	H 	0.60600 0.76120 0.16410 -0.01200
H 	H 	0.75670 0.58110 0.15200 0.11300
H 	H 	0.63400 0.85920 0.05140 -0.02800
H 	H 	0.75680 0.39220 0.06980 0.10800
H 	H 	0.61610 0.32730 0.07010 -0.00400
H 	H 	0.66400 0.20200 0.17990 0.01900
H 	H 	0.12680 0.04720 0.56390 -0.01800
H 	H 	0.06160 0.90200 0.56870 0.10300
H 	H 	0.00350 0.10150 0.67370 -0.00800
H 	H 	0.61510 0.95350 0.70980 0.07500
H 	H 	0.44040 0.09900 0.69140 -0.03000
H 	H 	0.58940 0.11040 0.58420 0.00600
H 	H 	0.55010 0.32650 0.28740 0.01800
H 	H 	0.47990 0.50490 0.31320 0.09700
H 	H 	0.24510 0.43370 0.24300 -0.00400
H 	H 	0.48920 0.61220 0.40530 0.09800
H 	H 	0.45440 0.52120 0.46450 0.02200
H 	H 	0.13230 0.61430 0.43740 0.01000
H 	H 	0.76120 0.60600 0.66410 -0.01200
H 	H 	0.58110 0.75670 0.65200 0.11300
H 	H 	0.85920 0.63400 0.55140 -0.02800
H 	H 	0.39220 0.75680 0.56980 0.10800
H 	H 	0.32730 0.61610 0.57010 -0.00400
H 	H 	0.20200 0.66400 0.67990 0.01900
C 	C 	0.18200 0.11400 0.11973 0.53400
C 	C 	0.08930 0.07250 0.11920 -0.23100
C 	C 	0.03010 0.08970 0.08693 0.14200
C 	C 	0.94460 0.05020 0.08971 -0.19300
C 	C 	0.92430 0.99450 0.12372 0.13000
C 	C 	0.06100 0.01580 0.15206 0.14500
C 	C 	0.95060 0.70160 0.15704 0.12100
C 	C 	0.98690 0.60810 0.18438 -0.19200
C 	C 	0.07280 0.50480 0.17339 0.14300
C 	C 	0.12140 0.49580 0.13529 -0.22700
C 	C 	0.07870 0.59470 0.10987 0.13100
C 	C 	0.21540 0.38420 0.12194 0.51200
C 	C 	0.24270 0.44230 0.74736 0.40700
C 	C 	0.35830 0.40390 0.76269 -0.17100
C 	C 	0.38250 0.47470 0.78364 0.08900
C 	C 	0.48860 0.43380 0.79875 -0.16400
C 	C 	0.57040 0.32200 0.79171 0.11400
C 	C 	0.44720 0.29340 0.75737 0.10500
C 	C 	0.65710 0.33150 0.88768 0.11800
C 	C 	0.60940 0.41780 0.91206 -0.16400
C 	C 	0.55650 0.39630 0.94742 0.08300
C 	C 	0.55590 0.28930 0.95735 -0.14300
C 	C 	0.61130 0.20610 0.93086 0.09000
C 	C 	0.49550 0.26270 0.99445 0.34300
C 	C 	0.50870 0.94970 0.11482 0.53500
C 	C 	0.60370 0.83170 0.10847 -0.24100
C 	C 	0.64100 0.74600 0.13904 0.15400
C 	C 	0.72960 0.63920 0.13195 -0.20700
C 	C 	0.77820 0.61940 0.09414 0.13600
C 	C 	0.65830 0.80270 0.07211 0.15300
C 	C 	0.79330 0.33090 0.12429 0.12600
C 	C 	0.73820 0.35260 0.09183 -0.20400
C 	C 	0.65440 0.31440 0.09230 0.13900
C 	C 	0.62550 0.25750 0.12493 -0.21500
C 	C 	0.53260 0.21620 0.12497 0.51000
C 	C 	0.68370 0.23930 0.15739 0.11700
C 	C 	0.11400 0.18200 0.61973 0.53400
C 	C 	0.07250 0.08930 0.61920 -0.23100
C 	C 	0.08970 0.03010 0.58693 0.14200
C 	C 	0.05020 0.94460 0.58971 -0.19400
C 	C 	0.99450 0.92430 0.62372 0.13100
C 	C 	0.01580 0.06100 0.65206 0.14500
C 	C 	0.70160 0.95060 0.65704 0.12100
C 	C 	0.60810 0.98690 0.68438 -0.19200
C 	C 	0.50480 0.07280 0.67339 0.14300
C 	C 	0.49580 0.12140 0.63529 -0.22700
C 	C 	0.59470 0.07870 0.60987 0.13100
C 	C 	0.38420 0.21540 0.62194 0.51200
C 	C 	0.44230 0.24270 0.24736 0.40700
C 	C 	0.40390 0.35830 0.26269 -0.17100
C 	C 	0.47470 0.38250 0.28364 0.08900
C 	C 	0.43380 0.48860 0.29875 -0.16400
C 	C 	0.32200 0.57040 0.29171 0.11400
C 	C 	0.29340 0.44720 0.25737 0.10500
C 	C 	0.33150 0.65710 0.38768 0.11800
C 	C 	0.41780 0.60940 0.41206 -0.16400
C 	C 	0.39630 0.55650 0.44742 0.08300
C 	C 	0.28930 0.55590 0.45735 -0.14300
C 	C 	0.20610 0.61130 0.43086 0.09000
C 	C 	0.26270 0.49550 0.49445 0.34300
C 	C 	0.94970 0.50870 0.61482 0.53500
C 	C 	0.83170 0.60370 0.60847 -0.24100
C 	C 	0.74600 0.64100 0.63904 0.15400
C 	C 	0.63920 0.72960 0.63195 -0.20700
C 	C 	0.61940 0.77820 0.59414 0.13600
C 	C 	0.80270 0.65830 0.57211 0.15300
C 	C 	0.33090 0.79330 0.62429 0.12600
C 	C 	0.35260 0.73820 0.59183 -0.20400
C 	C 	0.31440 0.65440 0.59230 0.13900
C 	C 	0.25750 0.62550 0.62493 -0.21500
C 	C 	0.21620 0.53260 0.62497 0.51000
C 	C 	0.23930 0.68370 0.65739 0.11700
S 	S 	0.80966 0.94864 0.12607 -0.01500
S 	S 	0.83741 0.83375 0.17325 -0.04100
S 	S 	0.89501 0.48625 0.08028 -0.04500
S 	S 	0.90749 0.37279 0.12750 -0.02600
S 	S 	0.71397 0.25215 0.80723 -0.02400
S 	S 	0.72156 0.36426 0.84136 -0.02600
S 	S 	0.94864 0.80966 0.62607 -0.01500
S 	S 	0.83375 0.83741 0.67325 -0.04100
S 	S 	0.48625 0.89501 0.58028 -0.04500
S 	S 	0.37279 0.90749 0.62750 -0.02600
S 	S 	0.25215 0.71397 0.30723 -0.02400
S 	S 	0.36426 0.72156 0.34136 -0.02600
N 	N 	0.55071 0.25251 0.77158 -0.15700
N 	N 	0.66140 0.22680 0.89588 -0.13900
N 	N 	0.97890 0.97690 0.15523 -0.15000
N 	N 	0.99430 0.69770 0.11991 -0.14400
N 	N 	0.74340 0.69900 0.06478 -0.17300
N 	N 	0.76990 0.27450 0.15743 -0.13900
N 	N 	0.25251 0.55071 0.27158 -0.15700
N 	N 	0.22680 0.66140 0.39588 -0.13900
N 	N 	0.97690 0.97890 0.65523 -0.15000
N 	N 	0.69770 0.99430 0.61991 -0.14400
N 	N 	0.69900 0.74340 0.56478 -0.17300
N 	N 	0.27450 0.76990 0.65743 -0.13900
O 	O 	0.21979 0.10359 0.15170 -0.54700
O 	O 	0.21297 0.15757 0.08855 -0.54000
O 	O 	0.26299 0.30279 0.14680 -0.53700
O 	O 	0.24167 0.37807 0.08622 -0.50600
O 	O 	0.46982 0.97162 0.14913 -0.52600
O 	O 	0.47347 0.01867 0.08555 -0.53400
O 	O 	0.50297 0.17497 0.15648 -0.49500
O 	O 	0.49211 0.22671 0.09334 -0.50200
O 	O 	0.22709 0.36469 0.73324 -0.49500
O 	O 	0.16849 0.54489 0.75002 -0.29800
O 	O 	0.51301 0.15941 0.00534 -0.43600
O 	O 	0.42630 0.34410 0.01444 -0.38400
O 	O 	0.10359 0.21979 0.65170 -0.54700
O 	O 	0.15757 0.21297 0.58855 -0.54000
O 	O 	0.30279 0.26299 0.64680 -0.53700
O 	O 	0.37807 0.24167 0.58622 -0.50600
O 	O 	0.97162 0.46982 0.64913 -0.52600
O 	O 	0.01867 0.47347 0.58555 -0.53400
O 	O 	0.17497 0.50297 0.65648 -0.49500
O 	O 	0.22671 0.49211 0.59334 -0.50200
O 	O 	0.36469 0.22709 0.23324 -0.49500
O 	O 	0.54489 0.16849 0.25002 -0.29800
O 	O 	0.15941 0.51301 0.50534 -0.43600
O 	O 	0.34410 0.42630 0.51444 -0.38400
