data_crystal

_cell_length_a 5.60680
_cell_length_b 13.38200
_cell_length_c 21.19200
_cell_angle_alpha 90.00000
_cell_angle_beta  95.89200
_cell_angle_gamma 90.00000

_symmetry_space_group_name_	'P 1'
_symmetry_space_group_name_H-M	'P 1'

loop_
_symmetry_equiv_pos_as_xyz
  x,y,z

loop_
_atom_site_label
_atom_site_type_symbol
_atom_site_fract_x
_atom_site_fract_y
_atom_site_fract_z
_atom_site_charge
Pr	Pr	0.62969 0.13596 0.97105 2.00900
Pr	Pr	0.37031 0.63596 0.52895 2.00900
Pr	Pr	0.37031 0.86404 0.02895 2.01000
Pr	Pr	0.62969 0.36404 0.47105 2.01000
P 	P 	0.91040 0.02303 0.08661 0.46400
P 	P 	0.08960 0.52303 0.41339 0.46200
P 	P 	0.08960 0.97697 0.91339 0.46400
P 	P 	0.91040 0.47697 0.58661 0.46200
H 	H 	0.75690 0.97600 0.17960 0.10600
H 	H 	0.67270 0.08440 0.16100 0.07800
H 	H 	0.75800 0.10440 0.27960 0.05100
H 	H 	0.88030 0.99900 0.28580 0.04500
H 	H 	0.02630 0.10060 0.37060 0.01100
H 	H 	0.23570 0.07020 0.33070 0.02800
H 	H 	0.99480 0.25680 0.32140 0.07300
H 	H 	0.24250 0.30220 0.24570 0.03700
H 	H 	0.37040 0.19790 0.25140 0.04400
H 	H 	0.08550 0.19770 0.16130 0.04300
H 	H 	0.88090 0.22550 0.20350 0.04100
H 	H 	0.24310 0.47600 0.32040 0.10700
H 	H 	0.32730 0.58440 0.33900 0.07800
H 	H 	0.24200 0.60440 0.22040 0.05100
H 	H 	0.11970 0.49900 0.21420 0.04500
H 	H 	0.97370 0.60060 0.12940 0.01200
H 	H 	0.76430 0.57020 0.16930 0.02800
H 	H 	0.00520 0.75680 0.17860 0.07100
H 	H 	0.75750 0.80220 0.25430 0.03800
H 	H 	0.62960 0.69790 0.24860 0.04400
H 	H 	0.91450 0.69770 0.33870 0.04200
H 	H 	0.11910 0.72550 0.29650 0.03900
H 	H 	0.24310 0.02400 0.82040 0.10600
H 	H 	0.32730 0.91560 0.83900 0.07800
H 	H 	0.24200 0.89560 0.72040 0.05100
H 	H 	0.11970 0.00100 0.71420 0.04500
H 	H 	0.97370 0.89940 0.62940 0.01100
H 	H 	0.76430 0.92980 0.66930 0.02800
H 	H 	0.00520 0.74320 0.67860 0.07300
H 	H 	0.75750 0.69780 0.75430 0.03700
H 	H 	0.62960 0.80210 0.74860 0.04400
H 	H 	0.91450 0.80230 0.83870 0.04300
H 	H 	0.11910 0.77450 0.79650 0.04100
H 	H 	0.75690 0.52400 0.67960 0.10700
H 	H 	0.67270 0.41560 0.66100 0.07800
H 	H 	0.75800 0.39560 0.77960 0.05100
H 	H 	0.88030 0.50100 0.78580 0.04500
H 	H 	0.02630 0.39940 0.87060 0.01200
H 	H 	0.23570 0.42980 0.83070 0.02800
H 	H 	0.99480 0.24320 0.82140 0.07100
H 	H 	0.24250 0.19780 0.74570 0.03800
H 	H 	0.37040 0.30210 0.75140 0.04400
H 	H 	0.08550 0.30230 0.66130 0.04200
H 	H 	0.88090 0.27450 0.70350 0.03900
C 	C 	0.81050 0.04020 0.16510 -0.23900
C 	C 	0.90860 0.06930 0.27820 -0.08900
C 	C 	0.08880 0.10870 0.32990 -0.03100
C 	C 	0.14450 0.21950 0.31970 -0.15700
C 	C 	0.21900 0.23180 0.25390 -0.04500
C 	C 	0.03000 0.18920 0.20280 -0.07900
C 	C 	0.32570 0.26170 0.37040 0.33400
C 	C 	0.18950 0.54020 0.33490 -0.23900
C 	C 	0.09140 0.56930 0.22180 -0.08900
C 	C 	0.91120 0.60870 0.17010 -0.03200
C 	C 	0.85550 0.71950 0.18030 -0.15400
C 	C 	0.78100 0.73180 0.24610 -0.04800
C 	C 	0.97000 0.68920 0.29720 -0.07500
C 	C 	0.67430 0.76170 0.12960 0.33300
C 	C 	0.18950 0.95980 0.83490 -0.23900
C 	C 	0.09140 0.93070 0.72180 -0.08900
C 	C 	0.91120 0.89130 0.67010 -0.03100
C 	C 	0.85550 0.78050 0.68030 -0.15700
C 	C 	0.78100 0.76820 0.74610 -0.04500
C 	C 	0.97000 0.81080 0.79720 -0.07900
C 	C 	0.67430 0.73830 0.62960 0.33400
C 	C 	0.81050 0.45980 0.66510 -0.23900
C 	C 	0.90860 0.43070 0.77820 -0.08900
C 	C 	0.08880 0.39130 0.82990 -0.03200
C 	C 	0.14450 0.28050 0.81970 -0.15400
C 	C 	0.21900 0.26820 0.75390 -0.04800
C 	C 	0.03000 0.31080 0.70280 -0.07500
C 	C 	0.32570 0.23830 0.87040 0.33300
N 	N 	0.98970 0.08130 0.21470 -0.06100
N 	N 	0.01030 0.58130 0.28530 -0.06100
N 	N 	0.01030 0.91870 0.78530 -0.06100
N 	N 	0.98970 0.41870 0.71470 -0.06100
O 	O 	0.68570 0.98260 0.04700 -0.66000
O 	O 	0.96160 0.12310 0.05740 -0.52500
O 	O 	0.12010 0.95250 0.09260 -0.50500
O 	O 	0.30190 0.24300 0.42820 -0.51700
O 	O 	0.49490 0.31480 0.35680 -0.45600
O 	O 	0.31430 0.48260 0.45300 -0.66000
O 	O 	0.03840 0.62310 0.44260 -0.52600
O 	O 	0.87990 0.45250 0.40740 -0.50300
O 	O 	0.69810 0.74300 0.07180 -0.51700
O 	O 	0.50510 0.81480 0.14320 -0.45600
O 	O 	0.31430 0.01740 0.95300 -0.66000
O 	O 	0.03840 0.87690 0.94260 -0.52500
O 	O 	0.87990 0.04750 0.90740 -0.50500
O 	O 	0.69810 0.75700 0.57180 -0.51700
O 	O 	0.50510 0.68520 0.64320 -0.45600
O 	O 	0.68570 0.51740 0.54700 -0.66000
O 	O 	0.96160 0.37690 0.55740 -0.52600
O 	O 	0.12010 0.54750 0.59260 -0.50300
O 	O 	0.30190 0.25700 0.92820 -0.51700
O 	O 	0.49490 0.18520 0.85680 -0.45600
