data_crystal

_cell_length_a 5.54620
_cell_length_b 13.34300
_cell_length_c 21.16400
_cell_angle_alpha 90.00000
_cell_angle_beta  96.51600
_cell_angle_gamma 90.00000

_symmetry_space_group_name_	'P 1'
_symmetry_space_group_name_H-M	'P 1'

loop_
_symmetry_equiv_pos_as_xyz
  x,y,z

loop_
_atom_site_label
_atom_site_type_symbol
_atom_site_fract_x
_atom_site_fract_y
_atom_site_fract_z
_atom_site_charge
Sm	Sm	0.62667 0.13256 0.97225 1.79800
Sm	Sm	0.37333 0.63256 0.52775 1.79800
Sm	Sm	0.37333 0.86744 0.02775 1.79800
Sm	Sm	0.62667 0.36744 0.47225 1.79800
P 	P 	0.91590 0.02330 0.08711 0.50000
P 	P 	0.08410 0.52330 0.41289 0.49900
P 	P 	0.08410 0.97670 0.91289 0.50100
P 	P 	0.91590 0.47670 0.58711 0.50000
H 	H 	0.77180 0.97210 0.18030 0.09800
H 	H 	0.67770 0.08000 0.16260 0.07400
H 	H 	0.76460 0.09300 0.28020 0.05000
H 	H 	0.90650 0.99130 0.28550 0.04400
H 	H 	0.02800 0.09320 0.36980 0.01700
H 	H 	0.24470 0.06810 0.33110 0.03100
H 	H 	0.98880 0.25120 0.32570 0.06900
H 	H 	0.21000 0.30780 0.24790 0.04000
H 	H 	0.37160 0.21110 0.25240 0.04800
H 	H 	0.09030 0.19400 0.16260 0.04000
H 	H 	0.87420 0.21890 0.20170 0.03700
H 	H 	0.22820 0.47210 0.31970 0.09800
H 	H 	0.32230 0.58000 0.33740 0.07400
H 	H 	0.23540 0.59300 0.21980 0.05000
H 	H 	0.09350 0.49130 0.21450 0.04300
H 	H 	0.97200 0.59320 0.13020 0.01800
H 	H 	0.75530 0.56810 0.16890 0.03100
H 	H 	0.01120 0.75120 0.17430 0.06700
H 	H 	0.79000 0.80780 0.25210 0.04000
H 	H 	0.62840 0.71110 0.24760 0.04900
H 	H 	0.90970 0.69400 0.33740 0.03900
H 	H 	0.12580 0.71890 0.29830 0.03600
H 	H 	0.22820 0.02790 0.81970 0.09800
H 	H 	0.32230 0.92000 0.83740 0.07400
H 	H 	0.23540 0.90700 0.71980 0.05000
H 	H 	0.09350 0.00870 0.71450 0.04400
H 	H 	0.97200 0.90680 0.63020 0.01700
H 	H 	0.75530 0.93190 0.66890 0.03100
H 	H 	0.01120 0.74880 0.67430 0.06900
H 	H 	0.79000 0.69220 0.75210 0.04000
H 	H 	0.62840 0.78890 0.74760 0.04800
H 	H 	0.90970 0.80600 0.83740 0.04000
H 	H 	0.12580 0.78110 0.79830 0.03700
H 	H 	0.77180 0.52790 0.68030 0.09800
H 	H 	0.67770 0.42000 0.66260 0.07400
H 	H 	0.76460 0.40700 0.78020 0.05000
H 	H 	0.90650 0.50870 0.78550 0.04300
H 	H 	0.02800 0.40680 0.86980 0.01800
H 	H 	0.24470 0.43190 0.83110 0.03100
H 	H 	0.98880 0.24880 0.82570 0.06700
H 	H 	0.21000 0.19220 0.74790 0.04000
H 	H 	0.37160 0.28890 0.75240 0.04900
H 	H 	0.09030 0.30600 0.66260 0.03900
H 	H 	0.87420 0.28110 0.70170 0.03600
C 	C 	0.82000 0.03740 0.16610 -0.22600
C 	C 	0.92300 0.06270 0.27850 -0.08300
C 	C 	0.09200 0.10430 0.32960 -0.03600
C 	C 	0.14300 0.21680 0.32280 -0.14200
C 	C 	0.20900 0.23610 0.25550 -0.06100
C 	C 	0.03000 0.18550 0.20360 -0.06500
C 	C 	0.32300 0.26180 0.37380 0.32800
C 	C 	0.18000 0.53740 0.33390 -0.22600
C 	C 	0.07700 0.56270 0.22150 -0.08200
C 	C 	0.90800 0.60430 0.17040 -0.03700
C 	C 	0.85700 0.71680 0.17720 -0.14000
C 	C 	0.79100 0.73610 0.24450 -0.06300
C 	C 	0.97000 0.68550 0.29640 -0.06300
C 	C 	0.67700 0.76180 0.12620 0.32800
C 	C 	0.18000 0.96260 0.83390 -0.22600
C 	C 	0.07700 0.93730 0.72150 -0.08300
C 	C 	0.90800 0.89570 0.67040 -0.03600
C 	C 	0.85700 0.78320 0.67720 -0.14200
C 	C 	0.79100 0.76390 0.74450 -0.06100
C 	C 	0.97000 0.81450 0.79640 -0.06500
C 	C 	0.67700 0.73820 0.62620 0.32800
C 	C 	0.82000 0.46260 0.66610 -0.22600
C 	C 	0.92300 0.43730 0.77850 -0.08200
C 	C 	0.09200 0.39570 0.82960 -0.03700
C 	C 	0.14300 0.28320 0.82280 -0.14000
C 	C 	0.20900 0.26390 0.75550 -0.06300
C 	C 	0.03000 0.31450 0.70360 -0.06300
C 	C 	0.32300 0.23820 0.87380 0.32800
N 	N 	0.99600 0.07860 0.21480 -0.06600
N 	N 	0.00400 0.57860 0.28520 -0.06700
N 	N 	0.00400 0.92140 0.78520 -0.06600
N 	N 	0.99600 0.42140 0.71480 -0.06700
O 	O 	0.68650 0.98290 0.04490 -0.61600
O 	O 	0.96260 0.12390 0.05810 -0.49000
O 	O 	0.12820 0.95390 0.08980 -0.49100
O 	O 	0.29600 0.24350 0.43100 -0.47000
O 	O 	0.49800 0.31450 0.36030 -0.42800
O 	O 	0.31350 0.48290 0.45510 -0.61600
O 	O 	0.03740 0.62390 0.44190 -0.49100
O 	O 	0.87180 0.45390 0.41020 -0.48900
O 	O 	0.70400 0.74350 0.06900 -0.46900
O 	O 	0.50200 0.81450 0.13970 -0.42800
O 	O 	0.31350 0.01710 0.95510 -0.61600
O 	O 	0.03740 0.87610 0.94190 -0.49000
O 	O 	0.87180 0.04610 0.91020 -0.49100
O 	O 	0.70400 0.75650 0.56900 -0.47000
O 	O 	0.50200 0.68550 0.63970 -0.42800
O 	O 	0.68650 0.51710 0.54490 -0.61600
O 	O 	0.96260 0.37610 0.55810 -0.49100
O 	O 	0.12820 0.54610 0.58980 -0.48900
O 	O 	0.29600 0.25650 0.93100 -0.46900
O 	O 	0.49800 0.18550 0.86030 -0.42800
