data_crystal

_cell_length_a 28.26700
_cell_length_b 23.52500
_cell_length_c 22.97530
_cell_angle_alpha 74.86350
_cell_angle_beta  53.45310
_cell_angle_gamma 51.68350

_symmetry_space_group_name_	'P 1'
_symmetry_space_group_name_H-M	'P 1'

loop_
_symmetry_equiv_pos_as_xyz
  x,y,z

loop_
_atom_site_label
_atom_site_type_symbol
_atom_site_fract_x
_atom_site_fract_y
_atom_site_fract_z
_atom_site_charge
O 	O 	0.40711 0.76944 0.50586 -0.49300
O 	O 	0.51462 0.68948 0.42610 -0.46400
O 	O 	0.32097 0.49933 0.23398 -0.48100
O 	O 	0.21327 0.57232 0.31864 -0.47200
C 	C 	0.44867 0.71788 0.45449 0.35300
C 	C 	0.42295 0.69352 0.43092 -0.09600
C 	C 	0.34762 0.72986 0.46482 0.01200
H 	H 	0.30675 0.77672 0.50839 0.03300
C 	C 	0.32376 0.70690 0.44275 -0.06300
H 	H 	0.26527 0.73816 0.46967 0.04000
C 	C 	0.37422 0.64617 0.38605 0.01800
C 	C 	0.44983 0.60971 0.35267 -0.05500
H 	H 	0.49150 0.56205 0.30995 0.05000
C 	C 	0.47344 0.63309 0.37460 0.02400
H 	H 	0.53164 0.60341 0.34779 0.05300
C 	C 	0.34863 0.62145 0.36154 0.02200
C 	C 	0.39366 0.58371 0.28964 -0.06100
H 	H 	0.44557 0.57517 0.24948 0.04700
C 	C 	0.37164 0.55893 0.26687 0.02000
H 	H 	0.40858 0.53012 0.21113 0.03900
C 	C 	0.30216 0.57323 0.31414 -0.09500
C 	C 	0.25576 0.61284 0.38529 0.01900
H 	H 	0.20180 0.62523 0.42343 0.03300
C 	C 	0.27876 0.63568 0.40885 -0.06300
H 	H 	0.24158 0.66383 0.46481 0.04200
C 	C 	0.27838 0.54778 0.28881 0.35200
O 	O 	0.69860 0.52051 0.09552 -0.46900
O 	O 	0.62065 0.56936 0.20394 -0.48900
O 	O 	0.80910 -0.00700 0.39568 -0.46700
O 	O 	0.89427 0.93866 0.28896 -0.48500
C 	C 	0.67215 0.50899 0.16068 0.34600
C 	C 	0.69785 0.43407 0.18401 -0.10100
C 	C 	0.75228 0.36862 0.13247 0.01600
H 	H 	0.77658 0.37135 0.07446 0.03400
C 	C 	0.77515 0.29895 0.15487 -0.06400
H 	H 	0.81530 0.25135 0.11253 0.03900
C 	C 	0.74560 0.29131 0.23000 0.02100
C 	C 	0.69160 0.35761 0.28111 -0.06300
H 	H 	0.66751 0.35683 0.33920 0.04500
C 	C 	0.66788 0.42707 0.25866 0.01500
H 	H 	0.62624 0.47562 0.30030 0.03300
C 	C 	0.77032 0.21580 0.25494 0.01600
C 	C 	0.83721 0.14896 0.20602 -0.06300
H 	H 	0.87368 0.14934 0.14929 0.03900
C 	C 	0.85965 0.07975 0.22947 0.01100
H 	H 	0.91118 0.03044 0.18987 0.03400
C 	C 	0.81684 0.07407 0.30302 -0.09400
C 	C 	0.75081 0.13990 0.35192 0.01500
H 	H 	0.71688 0.13751 0.40874 0.06300
C 	C 	0.72756 0.20898 0.32860 -0.05400
H 	H 	0.67511 0.25681 0.36910 0.05500
C 	C 	0.84047 0.00073 0.32946 0.34500
N 	N 	0.88816 0.47636 0.97478 -0.15500
C 	C 	0.88607 0.43301 0.94193 -0.09600
C 	C 	0.88150 0.53964 0.93823 -0.09100
N 	N 	0.70252 0.54432 0.29310 -0.16000
C 	C 	0.69029 0.50944 0.35862 -0.09100
C 	C 	0.77559 0.49270 0.22771 -0.09200
O 	O 	0.76152 0.41023 0.81982 -0.49400
O 	O 	0.69197 0.51628 0.87226 -0.46200
O 	O 	0.49359 0.32291 0.44811 -0.48200
O 	O 	0.57470 0.21446 0.39899 -0.46600
C 	C 	0.71550 0.45084 0.88119 0.35300
C 	C 	0.69191 0.42474 0.95458 -0.09600
C 	C 	0.71186 0.35285 0.96057 0.01400
H 	H 	0.74484 0.31486 0.91172 0.03300
C 	C 	0.68915 0.32895 0.02949 -0.06400
H 	H 	0.70505 0.27367 0.03021 0.04100
C 	C 	0.64617 0.37564 0.09567 0.01700
C 	C 	0.62656 0.44787 0.08866 -0.05400
H 	H 	0.59483 0.48674 0.13598 0.05300
C 	C 	0.64870 0.47168 0.01985 0.01800
H 	H 	0.63258 0.52709 0.01728 0.06200
C 	C 	0.62171 0.34983 0.17074 0.02200
C 	C 	0.56254 0.40053 0.23757 -0.05900
H 	H 	0.53353 0.45845 0.23726 0.04400
C 	C 	0.53869 0.37794 0.30679 0.01900
H 	H 	0.49281 0.41961 0.35583 0.04200
C 	C 	0.57314 0.30309 0.31297 -0.09400
C 	C 	0.63307 0.25166 0.24700 0.01900
H 	H 	0.66215 0.19345 0.24901 0.03500
C 	C 	0.65689 0.27441 0.17747 -0.06200
H 	H 	0.70411 0.23212 0.12924 0.04000
C 	C 	0.54679 0.27967 0.38771 0.35100
O 	O 	0.51692 0.70196 0.19559 -0.46500
O 	O 	0.56488 0.62798 0.11301 -0.49300
O 	O 	-0.00918 0.81217 0.30987 -0.46800
O 	O 	0.93655 0.89528 0.38788 -0.49000
C 	C 	0.50490 0.67811 0.16650 0.35000
C 	C 	0.42997 0.70505 0.19151 -0.10100
C 	C 	0.36499 0.75522 0.25718 0.01600
H 	H 	0.36803 0.77607 0.29077 0.03600
C 	C 	0.29557 0.77732 0.28172 -0.06300
H 	H 	0.24828 0.81352 0.33405 0.04000
C 	C 	0.28781 0.75151 0.24074 0.02100
C 	C 	0.35338 0.70267 0.17378 -0.06400
H 	H 	0.35191 0.68190 0.13855 0.04500
C 	C 	0.42276 0.67929 0.15038 0.01300
H 	H 	0.47126 0.64032 0.09978 0.03500
C 	C 	0.21281 0.77467 0.26728 0.01800
C 	C 	0.14562 0.84008 0.31809 -0.06300
H 	H 	0.14558 0.87620 0.33911 0.04000
C 	C 	0.07673 0.86148 0.34171 0.01400
H 	H 	0.02710 0.91197 0.38048 0.03100
C 	C 	0.07180 0.81918 0.31487 -0.09700
C 	C 	0.13810 0.75417 0.26471 0.01700
H 	H 	0.13634 0.72024 0.24339 0.05900
C 	C 	0.20694 0.73189 0.24189 -0.05600
H 	H 	0.25544 0.68027 0.20466 0.05500
C 	C 	-0.00140 0.84249 0.33807 0.35000
N 	N 	0.48420 0.89582 0.15220 -0.15500
C 	C 	0.43711 0.89350 0.22929 -0.09700
C 	C 	0.54778 0.88431 0.13771 -0.09200
N 	N 	0.55004 0.69297 0.95266 -0.10700
C 	C 	0.51179 0.68008 0.94062 -0.09500
C 	C 	0.50084 0.76799 0.99134 -0.09700
O 	O 	0.49909 0.81690 0.41251 -0.48800
O 	O 	0.42071 0.86913 0.51998 -0.46500
O 	O 	0.22878 0.44538 0.32638 -0.48100
O 	O 	0.31207 0.39563 0.21853 -0.46900
C 	C 	0.44821 0.87828 0.45401 0.35300
C 	C 	0.42434 0.95191 0.42829 -0.09600
C 	C 	0.45374 0.95750 0.35329 0.01300
H 	H 	0.49361 0.90836 0.31273 0.03300
C 	C 	0.43163 0.02645 0.32950 -0.06300
H 	H 	0.45464 0.02734 0.27155 0.03900
C 	C 	0.37980 0.09292 0.37955 0.01900
C 	C 	0.35081 0.08651 0.45474 -0.05500
H 	H 	0.31204 0.13448 0.49604 0.04900
C 	C 	0.37229 0.01772 0.47845 0.02500
H 	H 	0.34868 0.01580 0.53642 0.04900
C 	C 	0.35555 0.16788 0.35407 0.02200
C 	C 	0.28657 0.23365 0.40191 -0.05900
H 	H 	0.24852 0.23149 0.45643 0.04600
C 	C 	0.26377 0.30310 0.37958 0.02000
H 	H 	0.21025 0.35153 0.41871 0.03900
C 	C 	0.30813 0.31005 0.30744 -0.09400
C 	C 	0.37639 0.24472 0.25864 0.01900
H 	H 	0.41226 0.24731 0.20260 0.03400
C 	C 	0.39994 0.17525 0.28156 -0.06200
H 	H 	0.45367 0.12745 0.24206 0.04200
C 	C 	0.28283 0.38471 0.28367 0.35200
O 	O 	0.08700 0.19358 0.69925 -0.46900
O 	O 	0.19559 0.10998 0.62612 -0.48700
O 	O 	0.38755 0.30683 0.81243 -0.46800
O 	O 	0.28074 0.38514 0.89531 -0.49000
C 	C 	0.15200 0.16413 0.67562 0.34700
C 	C 	0.17490 0.18940 0.70248 -0.10000
C 	C 	0.12375 0.25442 0.75364 0.01700
H 	H 	0.06619 0.28759 0.77502 0.03400
C 	C 	0.14619 0.27894 0.77629 -0.06300
H 	H 	0.10444 0.33086 0.81326 0.04000
C 	C 	0.22080 0.23842 0.75021 0.02100
C 	C 	0.27128 0.17197 0.70047 -0.06400
H 	H 	0.32876 0.13667 0.67955 0.04500
C 	C 	0.24894 0.14871 0.67658 0.01400
H 	H 	0.29015 0.09816 0.63766 0.03300
C 	C 	0.24592 0.26469 0.77407 0.01800
C 	C 	0.19628 0.31741 0.83826 -0.06300
H 	H 	0.13871 0.34031 0.87310 0.03900
C 	C 	0.22004 0.34084 0.86007 0.01400
H 	H 	0.17989 0.38126 0.90946 0.03000
C 	C 	0.29457 0.31187 0.81953 -0.09800
C 	C 	0.34407 0.25957 0.75606 0.01700
H 	H 	0.40153 0.23622 0.72385 0.05900
C 	C 	0.32052 0.23706 0.73320 -0.05600
H 	H 	0.36165 0.19824 0.68259 0.05500
C 	C 	0.32124 0.33512 0.84277 0.35000
N 	N 	0.93768 0.25082 0.88165 -0.15600
C 	C 	0.90468 0.31479 0.85035 -0.09800
C 	C 	0.88831 0.23007 0.93107 -0.09200
N 	N 	0.28809 0.95977 0.70635 -0.16000
C 	C 	0.35329 0.94240 0.69395 -0.09100
C 	C 	0.22248 1.00407 0.77920 -0.09300
O 	O 	0.81404 0.50113 0.77396 -0.48700
O 	O 	0.86574 0.42287 0.69284 -0.46500
O 	O 	0.44259 0.23185 0.50069 -0.47600
O 	O 	0.39220 0.31358 0.57732 -0.46900
C 	C 	0.87523 0.45017 0.72193 0.35200
C 	C 	0.94895 0.42633 0.69757 -0.09600
C 	C 	0.95467 0.45531 0.73779 0.01200
H 	H 	0.90563 0.49467 0.78802 0.03400
C 	C 	0.02360 0.43353 0.71442 -0.06200
H 	H 	0.02458 0.45619 0.74864 0.03800
C 	C 	0.08994 0.38239 0.64919 0.01900
C 	C 	0.08338 0.35390 0.60912 -0.05500
H 	H 	0.13122 0.31575 0.55819 0.04900
C 	C 	0.01459 0.37510 0.63304 0.02500
H 	H 	0.01250 0.35200 0.60036 0.05000
C 	C 	0.16495 0.35820 0.62379 0.02200
C 	C 	0.23083 0.28960 0.57837 -0.05900
H 	H 	0.22877 0.25187 0.56335 0.04600
C 	C 	0.30030 0.26669 0.55419 0.01900
H 	H 	0.34879 0.21344 0.51961 0.04100
C 	C 	0.30714 0.31054 0.57594 -0.09300
C 	C 	0.24172 0.37847 0.62244 0.01900
H 	H 	0.24420 0.41399 0.64067 0.03300
C 	C 	0.17226 0.40214 0.64528 -0.06200
H 	H 	0.12441 0.45559 0.67940 0.04100
C 	C 	0.38170 0.28511 0.55088 0.35000
O 	O 	0.18901 0.09304 0.51984 -0.46900
O 	O 	0.10428 0.20134 0.56829 -0.48700
O 	O 	0.30222 0.39341 -0.00728 -0.46800
O 	O 	0.37921 0.28649 0.93862 -0.48700
C 	C 	0.15909 0.15807 0.50814 0.34700
C 	C 	0.18458 0.18123 0.43319 -0.10100
C 	C 	0.24998 0.13025 0.36816 0.01600
H 	H 	0.28343 0.07274 0.37113 0.03400
C 	C 	0.27444 0.15280 0.29860 -0.06300
H 	H 	0.32655 0.11120 0.25143 0.04000
C 	C 	0.23359 0.22734 0.29064 0.02100
C 	C 	0.16701 0.27772 0.35634 -0.06400
H 	H 	0.13163 0.33516 0.35499 0.04500
C 	C 	0.14370 0.25528 0.42579 0.01400
H 	H 	0.09296 0.29640 0.47404 0.03300
C 	C 	0.25965 0.25244 0.21536 0.01700
C 	C 	0.31155 0.20283 0.14826 -0.06300
H 	H 	0.33387 0.14539 0.14834 0.03900
C 	C 	0.33482 0.22646 0.07918 0.01300
H 	H 	0.37452 0.18633 0.02961 0.03200
C 	C 	0.30655 0.30082 0.07394 -0.09700
C 	C 	0.25488 0.35040 0.14009 0.01500
H 	H 	0.23182 0.40788 0.13806 0.06100
C 	C 	0.23253 0.32690 0.20909 -0.05500
H 	H 	0.19421 0.36789 0.25737 0.05600
C 	C 	0.32987 0.32718 0.00060 0.34600
N 	N 	0.25186 0.95044 0.41615 -0.15600
C 	C 	0.31343 0.91198 0.42242 -0.09900
C 	C 	0.21656 0.91384 0.44739 -0.09200
N 	N 	0.95523 0.29412 0.54593 -0.16000
C 	C 	0.93681 0.36001 0.51158 -0.09100
C 	C 	0.99922 0.22914 0.49377 -0.09300
O 	O 	0.58615 0.22875 0.50245 -0.48800
O 	O 	0.47863 0.31195 0.57829 -0.46500
O 	O 	0.67195 0.50291 0.77081 -0.48000
O 	O 	0.77987 0.42804 0.68734 -0.47000
C 	C 	0.54443 0.28205 0.55198 0.35500
C 	C 	0.56990 0.30666 0.57562 -0.09500
C 	C 	0.64474 0.26625 0.54705 0.01400
H 	H 	0.68529 0.21577 0.50802 0.03400
C 	C 	0.66842 0.28986 0.56870 -0.06300
H 	H 	0.72625 0.25558 0.54630 0.03900
C 	C 	0.61837 0.35541 0.61939 0.01900
C 	C 	0.54336 0.39562 0.64750 -0.05500
H 	H 	0.50218 0.44678 0.68529 0.04900
C 	C 	0.51977 0.37155 0.62636 0.02500
H 	H 	0.46194 0.40437 0.64919 0.04900
C 	C 	0.64370 0.38096 0.64349 0.02200
C 	C 	0.59559 0.42635 0.71209 -0.05900
H 	H 	0.54079 0.44132 0.74984 0.04600
C 	C 	0.61797 0.45060 0.73490 0.01900
H 	H 	0.57870 0.48504 0.78821 0.04000
C 	C 	0.69034 0.42910 0.69085 -0.09400
C 	C 	0.73928 0.38275 0.62285 0.01900
H 	H 	0.79548 0.36467 0.58722 0.03300
C 	C 	0.71637 0.35972 0.59935 -0.06200
H 	H 	0.75603 0.32564 0.54587 0.04100
C 	C 	0.71446 0.45392 0.71642 0.35000
O 	O 	0.29750 0.48306 0.90996 -0.46600
O 	O 	0.37148 0.43474 0.80137 -0.48700
O 	O 	0.18497 1.00963 0.60971 -0.46700
O 	O 	0.10143 0.06417 0.71660 -0.48400
C 	C 	0.32175 0.49484 0.84490 0.34600
C 	C 	0.29537 0.56981 0.82193 -0.10000
C 	C 	0.24520 0.63462 0.87300 0.01600
H 	H 	0.22450 0.63130 0.93041 0.03600
C 	C 	0.22267 0.70424 0.85058 -0.06300
H 	H 	0.18628 0.75145 0.89201 0.04000
C 	C 	0.24811 0.71234 0.77616 0.02100
C 	C 	0.29724 0.64688 0.72567 -0.06400
H 	H 	0.31765 0.64855 0.66830 0.04500
C 	C 	0.32088 0.57738 0.74795 0.01300
H 	H 	0.35922 0.52926 0.70680 0.03300
C 	C 	0.22407 0.78757 0.75125 0.01700
C 	C 	0.15834 0.85454 0.80052 -0.06200
H 	H 	0.12262 0.85423 0.85763 0.04000
C 	C 	0.13616 0.92361 0.77684 0.01300
H 	H 	0.08537 0.97311 0.81661 0.03400
C 	C 	0.17805 0.92885 0.70275 -0.09500
C 	C 	0.24320 0.86276 0.65366 0.01700
H 	H 	0.27663 0.86482 0.59658 0.05900
C 	C 	0.26623 0.79382 0.67721 -0.05600
H 	H 	0.31794 0.74551 0.63669 0.05600
C 	C 	0.15444 1.00205 0.67608 0.34700
N 	N 	0.10594 0.52760 0.02967 -0.15500
C 	C 	0.11081 0.56913 0.06099 -0.09700
C 	C 	0.11160 0.46475 0.06659 -0.09200
N 	N 	0.29096 0.45690 0.71087 -0.16000
C 	C 	0.30301 0.49129 0.64505 -0.09100
C 	C 	0.21814 0.50891 0.77626 -0.09200
O 	O 	0.22720 0.59037 0.18584 -0.49100
O 	O 	0.30707 0.48284 0.13349 -0.46400
O 	O 	0.49867 0.67582 0.55699 -0.48100
O 	O 	0.42391 0.78376 0.60696 -0.47000
C 	C 	0.27868 0.54882 0.12443 0.35400
C 	C 	0.30310 0.57447 0.05081 -0.09600
C 	C 	0.26598 0.64973 0.04550 0.01400
H 	H 	0.21850 0.69065 0.09492 0.03300
C 	C 	0.28898 0.67347 0.97655 -0.06300
H 	H 	0.25686 0.73187 0.97622 0.04000
C 	C 	0.35095 0.62297 0.90968 0.01900
C 	C 	0.38819 0.54747 0.91588 -0.05500
H 	H 	0.43671 0.50564 0.86770 0.05000
C 	C 	0.36453 0.52392 0.98474 0.02500
H 	H 	0.39498 0.46568 0.98643 0.05100
C 	C 	0.37611 0.64832 0.83460 0.02200
C 	C 	0.41857 0.60119 0.76919 -0.06000
H 	H 	0.43120 0.54740 0.77164 0.04600
C 	C 	0.44291 0.62335 0.69966 0.02000
H 	H 	0.47523 0.58481 0.65153 0.03900
C 	C 	0.42409 0.69472 0.69231 -0.09500
C 	C 	0.38036 0.74289 0.75724 0.01900
H 	H 	0.36446 0.79831 0.75429 0.03300
C 	C 	0.35757 0.72003 0.82672 -0.06300
H 	H 	0.32592 0.75896 0.87406 0.04200
C 	C 	0.44937 0.71851 0.61770 0.35200
O 	O 	0.47727 0.30448 0.80782 -0.46800
O 	O 	0.42945 0.37635 0.89225 -0.48700
O 	O 	1.00427 0.19017 0.69447 -0.46800
O 	O 	0.05951 0.10604 0.61680 -0.48200
C 	C 	0.48940 0.32756 0.83748 0.34700
C 	C 	0.56458 0.30071 0.81176 -0.10100
C 	C 	0.62944 0.24943 0.74669 0.01600
H 	H 	0.62610 0.22830 0.71370 0.03400
C 	C 	0.69929 0.22623 0.72200 -0.06300
H 	H 	0.74650 0.18890 0.67024 0.04000
C 	C 	0.70757 0.25224 0.76217 0.02100
C 	C 	0.64211 0.30235 0.82846 -0.06400
H 	H 	0.64397 0.32315 0.86326 0.04500
C 	C 	0.57240 0.32651 0.85211 0.01400
H 	H 	0.52429 0.36558 0.90264 0.03300
C 	C 	0.78291 0.22806 0.73564 0.01700
C 	C 	0.84982 0.16151 0.68640 -0.06200
H 	H 	0.84937 0.12514 0.66645 0.03900
C 	C 	0.91892 0.13945 0.66312 0.01300
H 	H 	0.96839 0.08799 0.62572 0.03400
C 	C 	0.92415 0.18240 0.68870 -0.09500
C 	C 	0.85812 0.24848 0.73714 0.01700
H 	H 	0.86021 0.28298 0.75714 0.05900
C 	C 	0.78925 0.27123 0.75967 -0.05600
H 	H 	0.74099 0.32361 0.79556 0.05800
C 	C 	0.99716 0.15914 0.66612 0.34600
N 	N 	0.54731 0.12320 0.79179 -0.15600
C 	C 	0.56272 0.13812 0.71865 -0.09700
C 	C 	0.50183 0.09741 0.82792 -0.09000
N 	N 	0.45235 0.29461 0.04079 -0.16000
C 	C 	0.48769 0.30646 0.05883 -0.09200
C 	C 	0.50413 0.22231 -0.00462 -0.09200
O 	O 	0.49458 0.18283 0.59356 -0.49000
O 	O 	0.57096 0.13049 0.48612 -0.46000
O 	O 	0.76700 0.55477 0.67992 -0.48100
O 	O 	0.67885 0.60429 0.78695 -0.46200
C 	C 	0.54423 0.12148 0.55212 0.35400
C 	C 	0.56788 0.04796 0.57789 -0.09400
C 	C 	0.53444 0.04275 0.65318 0.01300
H 	H 	0.49096 0.09223 0.69413 0.03300
C 	C 	0.55673 0.97381 0.67690 -0.06300
H 	H 	0.52997 0.97353 0.73533 0.03900
C 	C 	0.61300 0.90688 0.62635 0.01900
C 	C 	0.64587 0.91297 0.55081 -0.05500
H 	H 	0.68819 0.86473 0.50890 0.04900
C 	C 	0.62399 0.98185 0.52731 0.02400
H 	H 	0.65082 0.98358 0.46906 0.05500
C 	C 	0.63752 0.83189 0.65177 0.02100
C 	C 	0.70799 0.76657 0.60505 -0.05900
H 	H 	0.74698 0.76893 0.55140 0.04600
C 	C 	0.73094 0.69716 0.62743 0.01800
H 	H 	0.78558 0.64909 0.58922 0.04000
C 	C 	0.68515 0.68982 0.69846 -0.09200
C 	C 	0.61534 0.75464 0.74616 0.01900
H 	H 	0.57837 0.75167 0.80134 0.03900
C 	C 	0.59169 0.82402 0.72315 -0.06200
H 	H 	0.53673 0.87126 0.76170 0.04100
C 	C 	0.71052 0.61525 0.72223 0.35100
O 	O 	0.90726 0.80843 0.30767 -0.47000
O 	O 	0.79901 0.89334 0.37946 -0.48600
O 	O 	0.60660 0.69613 0.19383 -0.46700
O 	O 	0.71345 0.61900 0.11004 -0.49100
C 	C 	0.84223 0.83837 0.33108 0.34600
C 	C 	0.81903 0.81290 0.30489 -0.10100
C 	C 	0.87009 0.74804 0.25357 0.01600
H 	H 	0.92770 0.71493 0.23192 0.03300
C 	C 	0.84754 0.72371 0.23091 -0.06400
H 	H 	0.88934 0.67195 0.19370 0.04000
C 	C 	0.77286 0.76422 0.25721 0.02100
C 	C 	0.72243 0.83036 0.30736 -0.06400
H 	H 	0.66488 0.86565 0.32861 0.04600
C 	C 	0.74490 0.85341 0.33126 0.01400
H 	H 	0.70368 0.90371 0.37049 0.03500
C 	C 	0.74767 0.73829 0.23305 0.01700
C 	C 	0.79755 0.68493 0.16929 -0.06300
H 	H 	0.85529 0.66132 0.13497 0.03900
C 	C 	0.77390 0.66168 0.14717 0.01300
H 	H 	0.81426 0.62070 0.09818 0.03000
C 	C 	0.69925 0.69149 0.18689 -0.09800
C 	C 	0.64941 0.74465 0.24974 0.01600
H 	H 	0.59172 0.76907 0.28094 0.06100
C 	C 	0.67285 0.76688 0.27304 -0.05500
H 	H 	0.63138 0.80635 0.32322 0.05400
C 	C 	0.67283 0.66832 0.16327 0.34800
N 	N 	0.04179 0.75733 0.12637 -0.15600
C 	C 	0.08114 0.69641 0.15547 -0.09900
C 	C 	0.08465 0.78431 0.07368 -0.09200
N 	N 	0.76918 0.02200 0.20925 -0.15400
C 	C 	0.71244 0.03044 0.28610 -0.10600
C 	C 	0.83378 -0.05512 0.17953 -0.09600
O 	O 	0.17970 0.49842 0.23192 -0.48900
O 	O 	0.12778 0.57677 0.31311 -0.46500
O 	O 	0.55127 0.76839 0.50402 -0.48100
O 	O 	0.60158 0.68531 0.42903 -0.47000
C 	C 	0.11843 0.54941 0.28393 0.35300
C 	C 	0.04469 0.57352 0.30812 -0.09600
C 	C 	0.03887 0.54503 0.26761 0.01300
H 	H 	0.08789 0.50583 0.21727 0.03300
C 	C 	0.96990 0.56707 0.29087 -0.06400
H 	H 	0.96891 0.54473 0.25640 0.03800
C 	C 	0.90360 0.61794 0.35631 0.01900
C 	C 	0.91025 0.64609 0.39656 -0.05500
H 	H 	0.86247 0.68409 0.44760 0.04900
C 	C 	0.97908 0.62472 0.37270 0.02400
H 	H 	0.98117 0.64767 0.40554 0.04900
C 	C 	0.82860 0.64208 0.38172 0.02200
C 	C 	0.76248 0.71009 0.42824 -0.05900
H 	H 	0.76413 0.74742 0.44459 0.04600
C 	C 	0.69314 0.73286 0.45218 0.01900
H 	H 	0.64446 0.78564 0.48761 0.04000
C 	C 	0.68659 0.68938 0.42940 -0.09400
C 	C 	0.75218 0.62203 0.38201 0.01900
H 	H 	0.74991 0.58681 0.36300 0.03300
C 	C 	0.82154 0.59855 0.35920 -0.06200
H 	H 	0.86952 0.54550 0.32433 0.04100
C 	C 	0.61211 0.71456 0.45455 0.35200
O 	O 	0.80735 0.91025 0.48580 -0.46600
O 	O 	0.88948 0.80160 0.43725 -0.48700
O 	O 	0.69134 0.60956 1.01231 -0.46700
O 	O 	0.61757 0.71634 0.06555 -0.49100
C 	C 	0.83578 0.84510 0.49740 0.34600
C 	C 	0.80980 0.82186 0.57217 -0.10000
C 	C 	0.74408 0.87274 0.63714 0.01600
H 	H 	0.71066 0.93033 0.63424 0.03600
C 	C 	0.71945 0.84994 0.70653 -0.06300
H 	H 	0.66726 0.89133 0.75385 0.04000
C 	C 	0.76038 0.77532 0.71423 0.02100
C 	C 	0.82694 0.72500 0.64860 -0.06400
H 	H 	0.86208 0.66748 0.65002 0.04500
C 	C 	0.85044 0.74766 0.57933 0.01300
H 	H 	0.90120 0.70665 0.53099 0.03300
C 	C 	0.73453 0.75010 0.78929 0.01800
C 	C 	0.68480 0.79920 0.85611 -0.06300
H 	H 	0.66407 0.85621 0.85574 0.03900
C 	C 	0.66190 0.77553 0.92509 0.01400
H 	H 	0.62382 0.81527 0.97445 0.03000
C 	C 	0.68838 0.70159 0.93047 -0.09600
C 	C 	0.73774 0.65249 0.86454 0.01900
H 	H 	0.75919 0.59538 0.86669 0.06200
C 	C 	0.75983 0.67610 0.79558 -0.05500
H 	H 	0.79648 0.63569 0.74733 0.05600
C 	C 	0.66531 0.67549 1.00389 0.35000
N 	N 	0.83027 0.02978 0.53297 -0.15500
C 	C 	0.75167 0.06439 0.57514 -0.09700
C 	C 	0.85223 0.06565 0.46969 -0.09200
N 	N 	0.03911 0.70875 0.45907 -0.16000
C 	C 	0.05585 0.64344 0.49436 -0.09100
C 	C 	-0.00525 0.77410 0.51099 -0.09200
In	In	0.48970 0.75722 0.49521 2.06600
In	In	0.75377 0.49264 0.76050 2.06600
In	In	0.50403 0.24223 0.51070 2.06600
In	In	0.23965 0.50753 0.24533 2.06600
In	In	0.62874 0.63245 0.12384 2.06600
In	In	0.11580 0.12112 0.63132 2.06600
In	In	0.36577 0.37140 0.88122 2.06600
In	In	0.87920 0.88153 0.37412 2.06600
H 	H 	0.84484 0.49483 1.03059 0.09300
H 	H 	0.88788 0.38730 0.97258 0.04800
H 	H 	0.93432 0.40891 0.88369 0.04500
H 	H 	0.83457 0.46753 0.94457 0.07400
H 	H 	0.92784 0.52117 0.87905 0.04300
H 	H 	0.88295 0.57186 0.96413 0.04700
H 	H 	0.82860 0.57633 0.94345 0.06500
H 	H 	0.66252 0.56209 0.28556 0.10100
H 	H 	0.69424 0.46112 0.35225 0.04900
H 	H 	0.63444 0.54922 0.40745 0.07600
H 	H 	0.73119 0.49150 0.36883 0.05200
H 	H 	0.78311 0.51955 0.17842 0.05300
H 	H 	0.78213 0.44337 0.21877 0.05000
H 	H 	0.81911 0.47537 0.23334 0.04400
H 	H 	0.50244 0.85481 0.11851 0.09100
H 	H 	0.46891 0.84097 0.24483 0.07500
H 	H 	0.39198 0.89759 0.23788 0.04800
H 	H 	0.41224 0.94046 0.26578 0.04600
H 	H 	0.58221 0.88722 0.07925 0.04600
H 	H 	0.58221 0.82933 0.14826 0.06600
H 	H 	0.52972 0.92750 0.17271 0.04400
H 	H 	0.56452 0.65674 0.98638 0.09900
H 	H 	0.54881 0.62228 0.91360 0.07900
H 	H 	0.49649 0.71668 0.90389 0.05900
H 	H 	0.46156 0.68957 0.99351 0.04800
H 	H 	0.45068 0.77822 1.04495 0.05000
H 	H 	0.48498 0.80841 0.95684 0.05100
H 	H 	0.52967 0.77626 1.00226 0.05900
H 	H 	0.98711 0.20648 0.83913 0.09900
H 	H 	0.85201 0.36280 0.89454 0.05700
H 	H 	0.89435 0.30221 0.81747 0.07900
H 	H 	0.94280 0.32981 0.81342 0.06400
H 	H 	0.91449 0.18130 0.95390 0.04300
H 	H 	0.87657 0.21571 0.90096 0.05400
H 	H 	0.83587 0.27568 0.97773 0.04800
H 	H 	0.28047 0.98893 0.66613 0.10100
H 	H 	0.40224 0.90964 0.63814 0.07600
H 	H 	0.36372 0.90961 0.73489 0.05200
H 	H 	0.34635 0.99354 0.69777 0.04800
H 	H 	0.22827 0.97294 0.82297 0.04500
H 	H 	0.17348 1.01800 0.78691 0.05600
H 	H 	0.21296 1.05632 0.78516 0.05100
H 	H 	0.21302 1.00449 0.44422 0.09700
H 	H 	0.33740 0.94233 0.40117 0.06100
H 	H 	0.35716 0.85549 0.38972 0.05900
H 	H 	0.29467 0.90881 0.48074 0.08100
H 	H 	0.25600 0.85704 0.41684 0.04500
H 	H 	0.16942 0.94455 0.44302 0.04400
H 	H 	0.19542 0.91210 0.50649 0.05700
H 	H 	0.98492 0.28614 0.56406 0.10100
H 	H 	0.90316 0.37098 0.49393 0.05200
H 	H 	0.98751 0.35362 0.46313 0.04800
H 	H 	0.90450 0.40841 0.55163 0.07500
H 	H 	0.96757 0.23534 0.47584 0.04500
H 	H 	1.01381 0.17964 0.52039 0.05600
H 	H 	1.05111 0.22015 0.44483 0.05000
H 	H 	0.05548 0.56221 0.03591 0.06800
H 	H 	0.11033 0.61410 0.02961 0.04900
H 	H 	0.16271 0.53308 0.05774 0.07600
H 	H 	0.06310 0.59402 0.11934 0.04600
H 	H 	0.16526 0.42640 0.05984 0.06600
H 	H 	0.10750 0.43423 0.04219 0.04600
H 	H 	0.06624 0.48357 0.12611 0.04300
H 	H 	0.29497 0.41146 0.70418 0.10100
H 	H 	0.29932 0.53967 0.65065 0.04800
H 	H 	0.26184 0.50908 0.63535 0.05100
H 	H 	0.35870 0.45124 0.59622 0.07500
H 	H 	0.21073 0.48241 0.82572 0.05400
H 	H 	0.17430 0.52627 0.77116 0.04400
H 	H 	0.21199 0.55819 0.78451 0.05000
H 	H 	0.59700 0.08296 0.78664 0.07100
H 	H 	0.51101 0.17746 0.72169 0.08000
H 	H 	0.59792 0.08628 0.68139 0.05300
H 	H 	0.59212 0.16308 0.69477 0.06000
H 	H 	0.48947 0.08812 0.88387 0.04500
H 	H 	0.53139 0.04459 0.79617 0.04300
H 	H 	0.44876 0.13905 0.83361 0.05800
H 	H 	0.40766 0.29787 0.08944 0.10000
H 	H 	0.53540 0.30341 0.00799 0.04800
H 	H 	0.50667 0.26478 0.09098 0.05200
H 	H 	0.44786 0.36184 0.09249 0.07600
H 	H 	0.47689 0.21508 -0.01919 0.05500
H 	H 	0.52282 0.17786 0.02587 0.04400
H 	H 	0.55263 0.21699 -0.05655 0.05000
H 	H 	0.03186 0.73939 0.10031 0.07000
H 	H 	0.13446 0.64949 0.11047 0.05700
H 	H 	0.04755 0.67708 0.19563 0.06700
H 	H 	0.09153 0.71440 0.18418 0.08000
H 	H 	0.05388 0.83031 0.05224 0.04100
H 	H 	0.13808 0.73993 0.02648 0.04500
H 	H 	0.09475 0.80499 0.10054 0.05200
H 	H 	0.78482 0.05364 0.20594 0.07900
H 	H 	0.73360 0.01141 0.32063 0.07700
H 	H 	0.69325 -0.00087 0.29071 0.05700
H 	H 	0.66438 0.08923 0.30774 0.07700
H 	H 	0.87603 -0.06028 0.12124 0.04300
H 	H 	0.81878 -0.08991 0.18161 0.05000
H 	H 	0.85839 -0.07575 0.21086 0.06000
H 	H 	0.84145 0.03401 0.56700 0.06900
H 	H 	0.73659 0.03534 0.62188 0.04800
H 	H 	0.73792 0.06142 0.54016 0.07600
H 	H 	0.71860 0.12286 0.59772 0.04700
H 	H 	0.84176 0.06127 0.43206 0.06600
H 	H 	0.91191 0.03868 0.43856 0.04700
H 	H 	0.82179 0.12457 0.48809 0.04300
H 	H 	0.08827 0.70068 0.41461 0.10000
H 	H 	0.08860 0.59472 0.45444 0.07600
H 	H 	0.00448 0.65060 0.54198 0.04800
H 	H 	0.08836 0.63248 0.51357 0.05100
H 	H 	-0.05779 0.78387 0.55921 0.05000
H 	H 	-0.01865 0.82319 0.48369 0.05400
H 	H 	0.02558 0.76780 0.53013 0.04500
H 	H 	0.43337 0.33547 0.01221 0.10100
H 	H 	0.74774 0.04053 0.17809 0.07200
H 	H 	0.86031 -0.02582 0.51460 0.09300
H 	H 	0.69812 0.58980 0.30051 0.10100
H 	H 	0.51958 0.17126 0.82417 0.09900
H 	H 	0.33127 0.43915 0.71792 0.10100
H 	H 	0.01025 0.71680 0.43976 0.10100
H 	H 	-0.00846 0.80043 0.16961 0.09600
H 	H 	0.45370 0.94715 0.14022 0.06900
H 	H 	0.90672 0.30139 0.59111 0.10100
H 	H 	0.94842 0.26341 0.91100 0.07200
H 	H 	0.93804 0.44311 0.96961 0.06900
H 	H 	0.14854 0.50878 -0.02637 0.09200
H 	H 	0.29595 0.91086 0.70251 0.10100
H 	H 	0.27124 0.95135 0.36066 0.07100
