data_crystal

_cell_length_a 12.25100
_cell_length_b 18.63100
_cell_length_c 20.97600
_cell_angle_alpha 90.00000
_cell_angle_beta  90.00000
_cell_angle_gamma 90.00000

_symmetry_space_group_name_	'P 1'
_symmetry_space_group_name_H-M	'P 1'

loop_
_symmetry_equiv_pos_as_xyz
  x,y,z

loop_
_atom_site_label
_atom_site_type_symbol
_atom_site_fract_x
_atom_site_fract_y
_atom_site_fract_z
_atom_site_charge
O 	O 	0.88720 0.04705 0.43260 -0.50200
O 	O 	0.72250 0.08140 0.45590 -0.47400
O 	O 	0.10600 0.45780 0.81440 -0.44100
O 	O 	0.26650 0.42000 0.78880 -0.43400
C 	C 	0.82390 0.08450 0.46560 0.33800
C 	C 	0.87110 0.13230 0.51510 -0.13500
C 	C 	0.97750 0.12550 0.54030 0.06300
H 	H 	0.01970 0.08710 0.52650 0.02600
C 	C 	0.02280 0.17160 0.58390 -0.13700
H 	H 	0.09250 0.16370 0.60000 0.08100
C 	C 	0.96570 0.22650 0.60200 0.07300
C 	C 	0.85930 0.23360 0.57640 -0.13200
H 	H 	0.81830 0.27310 0.58900 0.07900
C 	C 	0.81210 0.18650 0.53440 0.06600
H 	H 	0.74090 0.19290 0.52020 0.02200
C 	C 	0.01610 0.27670 0.64760 0.02400
C 	C 	0.12980 0.28570 0.64760 -0.08700
H 	H 	0.17260 0.26110 0.61820 0.06300
C 	C 	0.17750 0.33100 0.69110 0.02400
H 	H 	0.25320 0.33510 0.69260 0.04300
C 	C 	0.11460 0.37030 0.73260 -0.08700
C 	C 	0.00340 0.36300 0.73250 0.02200
H 	H 	0.96140 0.38950 0.76090 0.04800
C 	C 	0.95300 0.31640 0.69020 -0.08600
H 	H 	0.87740 0.31160 0.69020 0.06300
C 	C 	0.16520 0.41930 0.78080 0.32900
O 	O 	0.61280 0.95295 0.43260 -0.36900
O 	O 	0.77750 0.91860 0.45590 -0.39200
O 	O 	0.39400 0.54220 0.81440 -0.44100
O 	O 	0.23350 0.58000 0.78880 -0.43200
C 	C 	0.67610 0.91550 0.46560 0.31000
C 	C 	0.62890 0.86770 0.51510 -0.05100
C 	C 	0.52250 0.87450 0.54030 0.00800
H 	H 	0.48030 0.91290 0.52650 0.09400
C 	C 	0.47720 0.82840 0.58390 -0.06900
H 	H 	0.40750 0.83630 0.60000 0.06300
C 	C 	0.53430 0.77350 0.60200 0.03000
C 	C 	0.64070 0.76640 0.57640 -0.07500
H 	H 	0.68170 0.72690 0.58900 0.06400
C 	C 	0.68790 0.81350 0.53440 0.01000
H 	H 	0.75910 0.80710 0.52020 0.05000
C 	C 	0.48390 0.72330 0.64760 0.04900
C 	C 	0.37020 0.71430 0.64760 -0.10400
H 	H 	0.32740 0.73890 0.61820 0.07100
C 	C 	0.32250 0.66900 0.69110 0.03600
H 	H 	0.24680 0.66490 0.69260 0.04200
C 	C 	0.38540 0.62970 0.73260 -0.09600
C 	C 	0.49660 0.63700 0.73250 0.03200
H 	H 	0.53860 0.61050 0.76090 0.04500
C 	C 	0.54700 0.68360 0.69020 -0.10300
H 	H 	0.62260 0.68840 0.69020 0.07400
C 	C 	0.33480 0.58070 0.78080 0.33100
O 	O 	0.38720 0.45295 0.93260 -0.44000
O 	O 	0.22250 0.41860 0.95590 -0.43700
O 	O 	0.60600 0.04220 0.31440 -0.49500
O 	O 	0.76650 0.08000 0.28880 -0.47500
C 	C 	0.32390 0.41550 0.96560 0.32100
C 	C 	0.37110 0.36770 0.01510 -0.08800
C 	C 	0.47750 0.37450 0.04030 0.02600
H 	H 	0.51970 0.41290 0.02650 0.06200
C 	C 	0.52280 0.32840 0.08390 -0.09400
H 	H 	0.59250 0.33630 0.10000 0.06800
C 	C 	0.46570 0.27350 0.10200 0.03700
C 	C 	0.35930 0.26640 0.07640 -0.09600
H 	H 	0.31830 0.22690 0.08900 0.05700
C 	C 	0.31210 0.31350 0.03440 0.02700
H 	H 	0.24090 0.30710 0.02020 0.03500
C 	C 	0.51610 0.22330 0.14760 0.04500
C 	C 	0.62980 0.21430 0.14760 -0.11600
H 	H 	0.67260 0.23890 0.11820 0.06800
C 	C 	0.67750 0.16900 0.19110 0.04300
H 	H 	0.75320 0.16490 0.19260 0.02500
C 	C 	0.61460 0.12970 0.23260 -0.12200
C 	C 	0.50340 0.13700 0.23250 0.04000
H 	H 	0.46140 0.11050 0.26090 0.02500
C 	C 	0.45300 0.18360 0.19020 -0.11500
H 	H 	0.37740 0.18840 0.19020 0.06500
C 	C 	0.66520 0.08070 0.28080 0.34200
O 	O 	0.11280 0.54705 0.93260 -0.44000
O 	O 	0.27750 0.58140 0.95590 -0.43700
O 	O 	0.89400 0.95780 0.31440 -0.37700
O 	O 	0.73350 0.92000 0.28880 -0.38200
C 	C 	0.17610 0.58450 0.96560 0.32800
C 	C 	0.12890 0.63230 0.01510 -0.10100
C 	C 	0.02250 0.62550 0.04030 0.04700
H 	H 	0.98030 0.58710 0.02650 0.05600
C 	C 	0.97720 0.67160 0.08390 -0.11700
H 	H 	0.90750 0.66370 0.10000 0.07800
C 	C 	0.03430 0.72650 0.10200 0.07000
C 	C 	0.14070 0.73360 0.07640 -0.11500
H 	H 	0.18170 0.77310 0.08900 0.08700
C 	C 	0.18790 0.68650 0.03440 0.05300
H 	H 	0.25910 0.69290 0.02020 0.03500
C 	C 	0.98390 0.77670 0.14760 0.02400
C 	C 	0.87020 0.78570 0.14760 -0.07100
H 	H 	0.82740 0.76110 0.11820 0.06500
C 	C 	0.82250 0.83100 0.19110 0.01300
H 	H 	0.74680 0.83510 0.19260 0.06100
C 	C 	0.88540 0.87030 0.23260 -0.05700
C 	C 	0.99660 0.86300 0.23250 0.00900
H 	H 	0.03860 0.88950 0.26090 0.07000
C 	C 	0.04700 0.81640 0.19020 -0.06900
H 	H 	0.12260 0.81160 0.19020 0.07000
C 	C 	0.83480 0.91930 0.28080 0.31600
In	In	0.75000 0.00000 0.37340 1.95700
In	In	0.25000 0.50000 0.87340 1.99100
O 	O 	0.61280 0.54705 0.06740 -0.44000
O 	O 	0.77750 0.58140 0.04410 -0.43700
O 	O 	0.39400 0.95780 0.68560 -0.37700
O 	O 	0.23350 0.92000 0.71120 -0.38200
C 	C 	0.67610 0.58450 0.03440 0.32900
C 	C 	0.62890 0.63230 0.98490 -0.10200
C 	C 	0.52250 0.62550 0.95970 0.04900
H 	H 	0.48030 0.58710 0.97350 0.05500
C 	C 	0.47720 0.67160 0.91610 -0.11800
H 	H 	0.40750 0.66370 0.90000 0.07800
C 	C 	0.53430 0.72650 0.89800 0.07200
C 	C 	0.64070 0.73360 0.92360 -0.11600
H 	H 	0.68170 0.77310 0.91100 0.08700
C 	C 	0.68790 0.68650 0.96560 0.05400
H 	H 	0.75910 0.69290 0.97980 0.03500
C 	C 	0.48390 0.77670 0.85240 0.02400
C 	C 	0.37020 0.78570 0.85240 -0.07100
H 	H 	0.32740 0.76110 0.88180 0.06500
C 	C 	0.32250 0.83100 0.80890 0.01300
H 	H 	0.24680 0.83510 0.80740 0.06100
C 	C 	0.38540 0.87030 0.76740 -0.05700
C 	C 	0.49660 0.86300 0.76750 0.01000
H 	H 	0.53860 0.88950 0.73910 0.07000
C 	C 	0.54700 0.81640 0.80980 -0.06900
H 	H 	0.62260 0.81160 0.80980 0.07000
C 	C 	0.33480 0.91930 0.71920 0.31600
O 	O 	0.88720 0.45295 0.06740 -0.44000
O 	O 	0.72250 0.41860 0.04410 -0.43700
O 	O 	0.10600 0.04220 0.68560 -0.49400
O 	O 	0.26650 0.08000 0.71120 -0.47600
C 	C 	0.82390 0.41550 0.03440 0.32000
C 	C 	0.87110 0.36770 0.98490 -0.08500
C 	C 	0.97750 0.37450 0.95970 0.02000
H 	H 	0.01970 0.41290 0.97350 0.06400
C 	C 	0.02280 0.32840 0.91610 -0.08700
H 	H 	0.09250 0.33630 0.90000 0.06500
C 	C 	0.96570 0.27350 0.89800 0.03100
C 	C 	0.85930 0.26640 0.92360 -0.09100
H 	H 	0.81830 0.22690 0.91100 0.05600
C 	C 	0.81210 0.31350 0.96560 0.02300
H 	H 	0.74090 0.30710 0.97980 0.03600
C 	C 	0.01610 0.22330 0.85240 0.05000
C 	C 	0.12980 0.21430 0.85240 -0.12000
H 	H 	0.17260 0.23890 0.88180 0.07000
C 	C 	0.17750 0.16900 0.80890 0.04700
H 	H 	0.25320 0.16490 0.80740 0.02400
C 	C 	0.11460 0.12970 0.76740 -0.12500
C 	C 	0.00340 0.13700 0.76750 0.04500
H 	H 	0.96140 0.11050 0.73910 0.02300
C 	C 	0.95300 0.18360 0.80980 -0.12100
H 	H 	0.87740 0.18840 0.80980 0.06700
C 	C 	0.16520 0.08070 0.71920 0.34300
O 	O 	0.11280 0.95295 0.56740 -0.37000
O 	O 	0.27750 0.91860 0.54410 -0.39200
O 	O 	0.89400 0.54220 0.18560 -0.44100
O 	O 	0.73350 0.58000 0.21120 -0.43200
C 	C 	0.17610 0.91550 0.53440 0.31000
C 	C 	0.12890 0.86770 0.48490 -0.05200
C 	C 	0.02250 0.87450 0.45970 0.00800
H 	H 	0.98030 0.91290 0.47350 0.09300
C 	C 	0.97720 0.82840 0.41610 -0.07100
H 	H 	0.90750 0.83630 0.40000 0.06400
C 	C 	0.03430 0.77350 0.39800 0.03200
C 	C 	0.14070 0.76640 0.42360 -0.07600
H 	H 	0.18170 0.72690 0.41100 0.06400
C 	C 	0.18790 0.81350 0.46560 0.01100
H 	H 	0.25910 0.80710 0.47980 0.04900
C 	C 	0.98390 0.72330 0.35240 0.04800
C 	C 	0.87020 0.71430 0.35240 -0.10300
H 	H 	0.82740 0.73890 0.38180 0.07100
C 	C 	0.82250 0.66900 0.30890 0.03500
H 	H 	0.74680 0.66490 0.30740 0.04300
C 	C 	0.88540 0.62970 0.26740 -0.09500
C 	C 	0.99660 0.63700 0.26750 0.03100
H 	H 	0.03860 0.61050 0.23910 0.04500
C 	C 	0.04700 0.68360 0.30980 -0.10200
H 	H 	0.12260 0.68840 0.30980 0.07400
C 	C 	0.83480 0.58070 0.21920 0.33100
O 	O 	0.38720 0.04705 0.56740 -0.50200
O 	O 	0.22250 0.08140 0.54410 -0.47300
O 	O 	0.60600 0.45780 0.18560 -0.43900
O 	O 	0.76650 0.42000 0.21120 -0.43400
C 	C 	0.32390 0.08450 0.53440 0.33900
C 	C 	0.37110 0.13230 0.48490 -0.13700
C 	C 	0.47750 0.12550 0.45970 0.06700
H 	H 	0.51970 0.08710 0.47350 0.02400
C 	C 	0.52280 0.17160 0.41610 -0.14200
H 	H 	0.59250 0.16370 0.40000 0.08300
C 	C 	0.46570 0.22650 0.39800 0.07800
C 	C 	0.35930 0.23360 0.42360 -0.13600
H 	H 	0.31830 0.27310 0.41100 0.08000
C 	C 	0.31210 0.18650 0.46560 0.07000
H 	H 	0.24090 0.19290 0.47980 0.02100
C 	C 	0.51610 0.27670 0.35240 0.02000
C 	C 	0.62980 0.28570 0.35240 -0.08400
H 	H 	0.67260 0.26110 0.38180 0.06200
C 	C 	0.67750 0.33100 0.30890 0.02100
H 	H 	0.75320 0.33510 0.30740 0.04400
C 	C 	0.61460 0.37030 0.26740 -0.08500
C 	C 	0.50340 0.36300 0.26750 0.01800
H 	H 	0.46140 0.38950 0.23910 0.05000
C 	C 	0.45300 0.31640 0.30980 -0.08200
H 	H 	0.37740 0.31160 0.30980 0.06100
C 	C 	0.66520 0.41930 0.21920 0.32800
In	In	0.75000 0.50000 0.12660 1.99100
In	In	0.25000 0.00000 0.62660 1.95700
