data_crystal

_cell_length_a 17.32450
_cell_length_b 17.32450
_cell_length_c 33.93960
_cell_angle_alpha 90.00000
_cell_angle_beta  90.00000
_cell_angle_gamma 90.00000

_symmetry_space_group_name_	'P 1'
_symmetry_space_group_name_H-M	'P 1'

loop_
_symmetry_equiv_pos_as_xyz
  x,y,z

loop_
_atom_site_label
_atom_site_type_symbol
_atom_site_fract_x
_atom_site_fract_y
_atom_site_fract_z
_atom_site_charge
Cu	Cu	0.08513 0.50757 0.61521 0.72900
Cu	Cu	0.15839 0.36418 0.56711 0.77500
Cu	Cu	0.08297 0.51218 0.52200 0.72300
N 	N 	0.12690 0.42450 0.64167 -0.31800
N 	N 	0.16040 0.36450 0.62230 -0.29800
N 	N 	0.37090 0.06670 0.99340 -0.31300
N 	N 	0.05070 0.59850 0.54945 -0.35100
N 	N 	0.05470 0.59720 0.59042 -0.34900
N 	N 	0.33770 0.12780 0.01240 -0.30200
N 	N 	0.29570 0.17090 0.91070 -0.14800
O 	O 	0.07080 0.28120 0.73421 -0.26200
O 	O 	0.89170 0.78490 0.56620 -0.34200
N 	N 	0.02220 0.79860 0.57230 -0.15000
O 	O 	0.15050 0.81280 0.58240 -0.24600
O 	O 	0.42140 0.18890 0.89630 -0.25900
O 	O 	0.16870 0.15500 0.92510 -0.26700
C 	C 	0.03640 0.67140 0.53780 0.23300
C 	C 	0.00450 0.95920 0.57200 0.02600
C 	C 	0.13550 0.41190 0.68060 0.27200
N 	N 	0.19560 0.31120 0.72280 -0.14000
O 	O 	0.32230 0.34380 0.71210 -0.23500
C 	C 	0.35820 0.07330 0.95480 0.23100
C 	C 	0.08920 0.84280 0.57660 0.20100
C 	C 	0.19210 0.31600 0.64870 0.28100
C 	C 	0.94660 0.82680 0.57000 0.23200
C 	C 	0.27410 0.31710 0.73380 0.19700
C 	C 	0.26160 0.24480 0.99660 -0.77700
H 	H 	0.20720 0.23520 0.99400 0.23800
H 	H 	0.27610 0.28680 0.97970 0.27200
H 	H 	0.27320 0.25780 0.02340 0.22000
C 	C 	0.10400 0.46440 0.71050 -0.78700
H 	H 	0.09420 0.51390 0.69890 0.19800
H 	H 	0.14050 0.47000 0.73160 0.26700
H 	H 	0.05660 0.44360 0.72070 0.22800
C 	C 	0.30570 0.17360 0.98500 0.26500
C 	C 	0.03210 0.71670 0.57130 -0.15000
C 	C 	0.08040 0.92850 0.57370 -0.05000
C 	C 	0.31690 0.14120 0.94900 -0.12700
C 	C 	0.25510 0.23020 0.83620 0.03000
C 	C 	0.29360 0.28550 0.77400 -0.05200
C 	C 	0.21780 0.17520 0.90190 0.21500
C 	C 	0.04600 0.68750 0.64690 -0.79300
H 	H 	0.99440 0.69670 0.65600 0.26000
H 	H 	0.07680 0.73280 0.65130 0.27700
H 	H 	0.06780 0.64490 0.66110 0.20800
C 	C 	0.93750 0.91280 0.57150 -0.07800
C 	C 	0.09980 0.23420 0.81240 -0.05500
H 	H 	0.04840 0.23500 0.80460 0.05000
C 	C 	0.11940 0.20810 0.85050 -0.03300
H 	H 	0.08090 0.19330 0.86800 0.02500
C 	C 	0.19680 0.20440 0.86190 -0.07100
C 	C 	0.04460 0.66910 0.60390 0.24600
C 	C 	0.35440 0.19450 0.88650 0.22200
C 	C 	0.33310 0.22980 0.84760 -0.06000
C 	C 	0.37000 0.28280 0.78530 -0.03900
H 	H 	0.40870 0.29860 0.76810 0.05600
C 	C 	0.23640 0.24500 0.63720 -0.81100
H 	H 	0.21860 0.22700 0.61210 0.24500
H 	H 	0.22850 0.20550 0.65660 0.27600
H 	H 	0.29040 0.25710 0.63560 0.25500
C 	C 	0.14220 0.97510 0.57280 -0.05300
H 	H 	0.19140 0.95360 0.57280 0.06600
C 	C 	0.02760 0.69390 0.49630 -0.78100
H 	H 	0.05380 0.65730 0.47980 0.20000
H 	H 	0.04940 0.74430 0.49240 0.25800
H 	H 	0.97380 0.69490 0.48960 0.24700
C 	C 	0.17530 0.34440 0.68540 -0.15000
C 	C 	0.23480 0.25730 0.79800 0.01300
C 	C 	0.13570 0.28380 0.74660 0.20200
C 	C 	0.15620 0.25850 0.78690 -0.06300
C 	C 	0.38870 0.25590 0.82350 -0.02200
H 	H 	0.43980 0.25620 0.83190 0.04800
C 	C 	0.86560 0.94430 0.57180 -0.01000
H 	H 	0.82210 0.91280 0.57130 0.02200
C 	C 	0.38900 0.01630 0.92560 -0.71400
H 	H 	0.42740 0.04080 0.90950 0.23200
H 	H 	0.34770 0.99800 0.90930 0.23000
H 	H 	0.41190 0.97360 0.93940 0.16800
Cu	Cu	0.58513 0.00757 0.11521 0.73000
Cu	Cu	0.65839 0.86418 0.06711 0.77600
Cu	Cu	0.58297 0.01218 0.02200 0.72400
N 	N 	0.62690 0.92450 0.14167 -0.31700
N 	N 	0.66040 0.86450 0.12230 -0.29700
N 	N 	0.87090 0.56670 0.49340 -0.31200
N 	N 	0.55070 0.09850 0.04945 -0.35000
N 	N 	0.55470 0.09720 0.09042 -0.34800
N 	N 	0.83770 0.62780 0.51240 -0.30100
N 	N 	0.79570 0.67090 0.41070 -0.14700
O 	O 	0.57080 0.78120 0.23421 -0.26100
O 	O 	0.39170 0.28490 0.06620 -0.34100
N 	N 	0.52220 0.29860 0.07230 -0.14900
O 	O 	0.65050 0.31280 0.08240 -0.24500
O 	O 	0.92140 0.68890 0.39630 -0.25800
O 	O 	0.66870 0.65500 0.42510 -0.26600
C 	C 	0.53640 0.17140 0.03780 0.23400
C 	C 	0.50450 0.45920 0.07200 0.02700
C 	C 	0.63550 0.91190 0.18060 0.27300
N 	N 	0.69560 0.81120 0.22280 -0.13900
O 	O 	0.82230 0.84380 0.21210 -0.23500
C 	C 	0.85820 0.57330 0.45480 0.23100
C 	C 	0.58920 0.34280 0.07660 0.20100
C 	C 	0.69210 0.81600 0.14870 0.28100
C 	C 	0.44660 0.32680 0.07000 0.23200
C 	C 	0.77410 0.81710 0.23380 0.19700
C 	C 	0.76160 0.74480 0.49660 -0.77700
H 	H 	0.70720 0.73520 0.49400 0.23800
H 	H 	0.77610 0.78680 0.47970 0.27200
H 	H 	0.77320 0.75780 0.52340 0.22000
C 	C 	0.60400 0.96440 0.21050 -0.78700
H 	H 	0.59420 0.01390 0.19890 0.19800
H 	H 	0.64050 0.97000 0.23160 0.26700
H 	H 	0.55660 0.94360 0.22070 0.22800
C 	C 	0.80570 0.67360 0.48500 0.26500
C 	C 	0.53210 0.21670 0.07130 -0.15000
C 	C 	0.58040 0.42850 0.07370 -0.05000
C 	C 	0.81690 0.64120 0.44900 -0.12700
C 	C 	0.75510 0.73020 0.33620 0.03000
C 	C 	0.79360 0.78550 0.27400 -0.05200
C 	C 	0.71780 0.67520 0.40190 0.21500
C 	C 	0.54600 0.18750 0.14690 -0.79300
H 	H 	0.49440 0.19670 0.15600 0.26000
H 	H 	0.57680 0.23280 0.15130 0.27700
H 	H 	0.56780 0.14490 0.16110 0.20800
C 	C 	0.43750 0.41280 0.07150 -0.07800
C 	C 	0.59980 0.73420 0.31240 -0.05500
H 	H 	0.54840 0.73500 0.30460 0.05000
C 	C 	0.61940 0.70810 0.35050 -0.03300
H 	H 	0.58090 0.69330 0.36800 0.02500
C 	C 	0.69680 0.70440 0.36190 -0.07100
C 	C 	0.54460 0.16910 0.10390 0.24600
C 	C 	0.85440 0.69450 0.38650 0.22200
C 	C 	0.83310 0.72980 0.34760 -0.06000
C 	C 	0.87000 0.78280 0.28530 -0.03900
H 	H 	0.90870 0.79860 0.26810 0.05600
C 	C 	0.73640 0.74500 0.13720 -0.81100
H 	H 	0.71860 0.72700 0.11210 0.24500
H 	H 	0.72850 0.70550 0.15660 0.27600
H 	H 	0.79040 0.75710 0.13560 0.25500
C 	C 	0.64220 0.47510 0.07280 -0.05300
H 	H 	0.69140 0.45360 0.07280 0.06600
C 	C 	0.52760 0.19390 0.99630 -0.78100
H 	H 	0.55380 0.15730 0.97980 0.20000
H 	H 	0.54940 0.24430 0.99240 0.25800
H 	H 	0.47380 0.19490 0.98960 0.24700
C 	C 	0.67530 0.84440 0.18540 -0.15000
C 	C 	0.73480 0.75730 0.29800 0.01300
C 	C 	0.63570 0.78380 0.24660 0.20200
C 	C 	0.65620 0.75850 0.28690 -0.06300
C 	C 	0.88870 0.75590 0.32350 -0.02200
H 	H 	0.93980 0.75620 0.33190 0.04800
C 	C 	0.36560 0.44430 0.07180 -0.01000
H 	H 	0.32210 0.41280 0.07130 0.02200
C 	C 	0.88900 0.51630 0.42560 -0.71400
H 	H 	0.92740 0.54080 0.40950 0.23200
H 	H 	0.84770 0.49800 0.40930 0.22900
H 	H 	0.91190 0.47360 0.43940 0.16800
Cu	Cu	0.91487 0.49243 0.61521 0.73000
Cu	Cu	0.84161 0.63582 0.56711 0.77600
Cu	Cu	0.91703 0.48782 0.52200 0.72400
N 	N 	0.87310 0.57550 0.64167 -0.31700
N 	N 	0.83960 0.63550 0.62230 -0.29700
N 	N 	0.62910 0.93330 0.99340 -0.31200
N 	N 	0.94930 0.40150 0.54945 -0.35000
N 	N 	0.94530 0.40280 0.59042 -0.34800
N 	N 	0.66230 0.87220 0.01240 -0.30100
N 	N 	0.70430 0.82910 0.91070 -0.14700
O 	O 	0.92920 0.71880 0.73421 -0.26100
O 	O 	0.10830 0.21510 0.56620 -0.34100
N 	N 	0.97780 0.20140 0.57230 -0.14900
O 	O 	0.84950 0.18720 0.58240 -0.24500
O 	O 	0.57860 0.81110 0.89630 -0.25800
O 	O 	0.83130 0.84500 0.92510 -0.26600
C 	C 	0.96360 0.32860 0.53780 0.23400
C 	C 	0.99550 0.04080 0.57200 0.02700
C 	C 	0.86450 0.58810 0.68060 0.27300
N 	N 	0.80440 0.68880 0.72280 -0.13900
O 	O 	0.67770 0.65620 0.71210 -0.23500
C 	C 	0.64180 0.92670 0.95480 0.23100
C 	C 	0.91080 0.15720 0.57660 0.20100
C 	C 	0.80790 0.68400 0.64870 0.28100
C 	C 	0.05340 0.17320 0.57000 0.23200
C 	C 	0.72590 0.68290 0.73380 0.19700
C 	C 	0.73840 0.75520 0.99660 -0.77700
H 	H 	0.79280 0.76480 0.99400 0.23800
H 	H 	0.72390 0.71320 0.97970 0.27200
H 	H 	0.72680 0.74220 0.02340 0.22000
C 	C 	0.89600 0.53560 0.71050 -0.78700
H 	H 	0.90580 0.48610 0.69890 0.19800
H 	H 	0.85950 0.53000 0.73160 0.26700
H 	H 	0.94340 0.55640 0.72070 0.22800
C 	C 	0.69430 0.82640 0.98500 0.26500
C 	C 	0.96790 0.28330 0.57130 -0.15000
C 	C 	0.91960 0.07150 0.57370 -0.05000
C 	C 	0.68310 0.85880 0.94900 -0.12700
C 	C 	0.74490 0.76980 0.83620 0.03000
C 	C 	0.70640 0.71450 0.77400 -0.05200
C 	C 	0.78220 0.82480 0.90190 0.21500
C 	C 	0.95400 0.31250 0.64690 -0.79300
H 	H 	0.00560 0.30330 0.65600 0.26000
H 	H 	0.92320 0.26720 0.65130 0.27700
H 	H 	0.93220 0.35510 0.66110 0.20800
C 	C 	0.06250 0.08720 0.57150 -0.07800
C 	C 	0.90020 0.76580 0.81240 -0.05500
H 	H 	0.95160 0.76500 0.80460 0.05000
C 	C 	0.88060 0.79190 0.85050 -0.03300
H 	H 	0.91910 0.80670 0.86800 0.02500
C 	C 	0.80320 0.79560 0.86190 -0.07100
C 	C 	0.95540 0.33090 0.60390 0.24600
C 	C 	0.64560 0.80550 0.88650 0.22200
C 	C 	0.66690 0.77020 0.84760 -0.06000
C 	C 	0.63000 0.71720 0.78530 -0.03900
H 	H 	0.59130 0.70140 0.76810 0.05600
C 	C 	0.76360 0.75500 0.63720 -0.81100
H 	H 	0.78140 0.77300 0.61210 0.24500
H 	H 	0.77150 0.79450 0.65660 0.27600
H 	H 	0.70960 0.74290 0.63560 0.25500
C 	C 	0.85780 0.02490 0.57280 -0.05300
H 	H 	0.80860 0.04640 0.57280 0.06600
C 	C 	0.97240 0.30610 0.49630 -0.78100
H 	H 	0.94620 0.34270 0.47980 0.20000
H 	H 	0.95060 0.25570 0.49240 0.25800
H 	H 	0.02620 0.30510 0.48960 0.24700
C 	C 	0.82470 0.65560 0.68540 -0.15000
C 	C 	0.76520 0.74270 0.79800 0.01300
C 	C 	0.86430 0.71620 0.74660 0.20200
C 	C 	0.84380 0.74150 0.78690 -0.06300
C 	C 	0.61130 0.74410 0.82350 -0.02200
H 	H 	0.56020 0.74380 0.83190 0.04800
C 	C 	0.13440 0.05570 0.57180 -0.01000
H 	H 	0.17790 0.08720 0.57130 0.02200
C 	C 	0.61100 0.98370 0.92560 -0.71400
H 	H 	0.57260 0.95920 0.90950 0.23200
H 	H 	0.65230 0.00200 0.90930 0.23000
H 	H 	0.58810 0.02640 0.93940 0.16800
Cu	Cu	0.41487 0.99243 0.11521 0.73000
Cu	Cu	0.34161 0.13582 0.06711 0.77600
Cu	Cu	0.41703 0.98782 0.02200 0.72400
N 	N 	0.37310 0.07550 0.14167 -0.31700
N 	N 	0.33960 0.13550 0.12230 -0.29700
N 	N 	0.12910 0.43330 0.49340 -0.31200
N 	N 	0.44930 0.90150 0.04945 -0.35000
N 	N 	0.44530 0.90280 0.09042 -0.34800
N 	N 	0.16230 0.37220 0.51240 -0.30100
N 	N 	0.20430 0.32910 0.41070 -0.14700
O 	O 	0.42920 0.21880 0.23421 -0.26100
O 	O 	0.60830 0.71510 0.06620 -0.34100
N 	N 	0.47780 0.70140 0.07230 -0.14900
O 	O 	0.34950 0.68720 0.08240 -0.24500
O 	O 	0.07860 0.31110 0.39630 -0.25800
O 	O 	0.33130 0.34500 0.42510 -0.26600
C 	C 	0.46360 0.82860 0.03780 0.23400
C 	C 	0.49550 0.54080 0.07200 0.02700
C 	C 	0.36450 0.08810 0.18060 0.27300
N 	N 	0.30440 0.18880 0.22280 -0.13900
O 	O 	0.17770 0.15620 0.21210 -0.23500
C 	C 	0.14180 0.42670 0.45480 0.23100
C 	C 	0.41080 0.65720 0.07660 0.20100
C 	C 	0.30790 0.18400 0.14870 0.28100
C 	C 	0.55340 0.67320 0.07000 0.23200
C 	C 	0.22590 0.18290 0.23380 0.19700
C 	C 	0.23840 0.25520 0.49660 -0.77700
H 	H 	0.29280 0.26480 0.49400 0.23800
H 	H 	0.22390 0.21320 0.47970 0.27200
H 	H 	0.22680 0.24220 0.52340 0.22000
C 	C 	0.39600 0.03560 0.21050 -0.78700
H 	H 	0.40580 0.98610 0.19890 0.19800
H 	H 	0.35950 0.03000 0.23160 0.26700
H 	H 	0.44340 0.05640 0.22070 0.22800
C 	C 	0.19430 0.32640 0.48500 0.26500
C 	C 	0.46790 0.78330 0.07130 -0.15000
C 	C 	0.41960 0.57150 0.07370 -0.05000
C 	C 	0.18310 0.35880 0.44900 -0.12700
C 	C 	0.24490 0.26980 0.33620 0.03000
C 	C 	0.20640 0.21450 0.27400 -0.05200
C 	C 	0.28220 0.32480 0.40190 0.21500
C 	C 	0.45400 0.81250 0.14690 -0.79300
H 	H 	0.50560 0.80330 0.15600 0.26000
H 	H 	0.42320 0.76720 0.15130 0.27700
H 	H 	0.43220 0.85510 0.16110 0.20800
C 	C 	0.56250 0.58720 0.07150 -0.07800
C 	C 	0.40020 0.26580 0.31240 -0.05500
H 	H 	0.45160 0.26500 0.30460 0.05000
C 	C 	0.38060 0.29190 0.35050 -0.03300
H 	H 	0.41910 0.30670 0.36800 0.02500
C 	C 	0.30320 0.29560 0.36190 -0.07100
C 	C 	0.45540 0.83090 0.10390 0.24600
C 	C 	0.14560 0.30550 0.38650 0.22200
C 	C 	0.16690 0.27020 0.34760 -0.06000
C 	C 	0.13000 0.21720 0.28530 -0.03900
H 	H 	0.09130 0.20140 0.26810 0.05600
C 	C 	0.26360 0.25500 0.13720 -0.81100
H 	H 	0.28140 0.27300 0.11210 0.24500
H 	H 	0.27150 0.29450 0.15660 0.27600
H 	H 	0.20960 0.24290 0.13560 0.25500
C 	C 	0.35780 0.52490 0.07280 -0.05300
H 	H 	0.30860 0.54640 0.07280 0.06600
C 	C 	0.47240 0.80610 0.99630 -0.78100
H 	H 	0.44620 0.84270 0.97980 0.20000
H 	H 	0.45060 0.75570 0.99240 0.25800
H 	H 	0.52620 0.80510 0.98960 0.24700
C 	C 	0.32470 0.15560 0.18540 -0.15000
C 	C 	0.26520 0.24270 0.29800 0.01300
C 	C 	0.36430 0.21620 0.24660 0.20200
C 	C 	0.34380 0.24150 0.28690 -0.06300
C 	C 	0.11130 0.24410 0.32350 -0.02200
H 	H 	0.06020 0.24380 0.33190 0.04800
C 	C 	0.63440 0.55570 0.07180 -0.01000
H 	H 	0.67790 0.58720 0.07130 0.02200
C 	C 	0.11100 0.48370 0.42560 -0.71400
H 	H 	0.07260 0.45920 0.40950 0.23200
H 	H 	0.15230 0.50200 0.40930 0.22900
H 	H 	0.08810 0.52640 0.43940 0.16800
Cu	Cu	0.50757 0.91487 0.38479 0.73000
Cu	Cu	0.36418 0.84161 0.43289 0.77600
Cu	Cu	0.51218 0.91703 0.47800 0.72400
N 	N 	0.42450 0.87310 0.35833 -0.31700
N 	N 	0.36450 0.83960 0.37770 -0.29700
N 	N 	0.06670 0.62910 0.00660 -0.31200
N 	N 	0.59850 0.94930 0.45055 -0.35000
N 	N 	0.59720 0.94530 0.40958 -0.34800
N 	N 	0.12780 0.66230 0.98760 -0.30100
N 	N 	0.17090 0.70430 0.08930 -0.14700
O 	O 	0.28120 0.92920 0.26579 -0.26100
O 	O 	0.78490 0.10830 0.43380 -0.34100
N 	N 	0.79860 0.97780 0.42770 -0.14900
O 	O 	0.81280 0.84950 0.41760 -0.24500
O 	O 	0.18890 0.57860 0.10370 -0.25800
O 	O 	0.15500 0.83130 0.07490 -0.26600
C 	C 	0.67140 0.96360 0.46220 0.23400
C 	C 	0.95920 0.99550 0.42800 0.02700
C 	C 	0.41190 0.86450 0.31940 0.27300
N 	N 	0.31120 0.80440 0.27720 -0.13900
O 	O 	0.34380 0.67770 0.28790 -0.23500
C 	C 	0.07330 0.64180 0.04520 0.23100
C 	C 	0.84280 0.91080 0.42340 0.20100
C 	C 	0.31600 0.80790 0.35130 0.28100
C 	C 	0.82680 0.05340 0.43000 0.23200
C 	C 	0.31710 0.72590 0.26620 0.19700
C 	C 	0.24480 0.73840 0.00340 -0.77700
H 	H 	0.23520 0.79280 0.00600 0.23800
H 	H 	0.28680 0.72390 0.02030 0.27200
H 	H 	0.25780 0.72680 0.97660 0.22000
C 	C 	0.46440 0.89600 0.28950 -0.78700
H 	H 	0.51390 0.90580 0.30110 0.19800
H 	H 	0.47000 0.85950 0.26840 0.26700
H 	H 	0.44360 0.94340 0.27930 0.22800
C 	C 	0.17360 0.69430 0.01500 0.26500
C 	C 	0.71670 0.96790 0.42870 -0.15000
C 	C 	0.92850 0.91960 0.42630 -0.05000
C 	C 	0.14120 0.68310 0.05100 -0.12700
C 	C 	0.23020 0.74490 0.16380 0.03000
C 	C 	0.28550 0.70640 0.22600 -0.05200
C 	C 	0.17520 0.78220 0.09810 0.21500
C 	C 	0.68750 0.95400 0.35310 -0.79300
H 	H 	0.69670 0.00560 0.34400 0.26000
H 	H 	0.73280 0.92320 0.34870 0.27700
H 	H 	0.64490 0.93220 0.33890 0.20800
C 	C 	0.91280 0.06250 0.42850 -0.07800
C 	C 	0.23420 0.90020 0.18760 -0.05500
H 	H 	0.23500 0.95160 0.19540 0.05000
C 	C 	0.20810 0.88060 0.14950 -0.03300
H 	H 	0.19330 0.91910 0.13200 0.02500
C 	C 	0.20440 0.80320 0.13810 -0.07100
C 	C 	0.66910 0.95540 0.39610 0.24600
C 	C 	0.19450 0.64560 0.11350 0.22200
C 	C 	0.22980 0.66690 0.15240 -0.06000
C 	C 	0.28280 0.63000 0.21470 -0.03900
H 	H 	0.29860 0.59130 0.23190 0.05600
C 	C 	0.24500 0.76360 0.36280 -0.81100
H 	H 	0.22700 0.78140 0.38790 0.24500
H 	H 	0.20550 0.77150 0.34340 0.27600
H 	H 	0.25710 0.70960 0.36440 0.25500
C 	C 	0.97510 0.85780 0.42720 -0.05300
H 	H 	0.95360 0.80860 0.42720 0.06600
C 	C 	0.69390 0.97240 0.50370 -0.78100
H 	H 	0.65730 0.94620 0.52020 0.20000
H 	H 	0.74430 0.95060 0.50760 0.25800
H 	H 	0.69490 0.02620 0.51040 0.24700
C 	C 	0.34440 0.82470 0.31460 -0.15000
C 	C 	0.25730 0.76520 0.20200 0.01300
C 	C 	0.28380 0.86430 0.25340 0.20200
C 	C 	0.25850 0.84380 0.21310 -0.06300
C 	C 	0.25590 0.61130 0.17650 -0.02200
H 	H 	0.25620 0.56020 0.16810 0.04800
C 	C 	0.94430 0.13440 0.42820 -0.01000
H 	H 	0.91280 0.17790 0.42870 0.02200
C 	C 	0.01630 0.61100 0.07440 -0.71400
H 	H 	0.04080 0.57260 0.09050 0.23200
H 	H 	0.99800 0.65230 0.09070 0.23000
H 	H 	0.97360 0.58810 0.06060 0.16800
Cu	Cu	0.00757 0.41487 0.88479 0.73000
Cu	Cu	0.86418 0.34161 0.93289 0.77600
Cu	Cu	0.01218 0.41703 0.97800 0.72400
N 	N 	0.92450 0.37310 0.85833 -0.31700
N 	N 	0.86450 0.33960 0.87770 -0.29700
N 	N 	0.56670 0.12910 0.50660 -0.31200
N 	N 	0.09850 0.44930 0.95055 -0.35000
N 	N 	0.09720 0.44530 0.90958 -0.34800
N 	N 	0.62780 0.16230 0.48760 -0.30100
N 	N 	0.67090 0.20430 0.58930 -0.14700
O 	O 	0.78120 0.42920 0.76579 -0.26100
O 	O 	0.28490 0.60830 0.93380 -0.34100
N 	N 	0.29860 0.47780 0.92770 -0.14900
O 	O 	0.31280 0.34950 0.91760 -0.24500
O 	O 	0.68890 0.07860 0.60370 -0.25800
O 	O 	0.65500 0.33130 0.57490 -0.26600
C 	C 	0.17140 0.46360 0.96220 0.23400
C 	C 	0.45920 0.49550 0.92800 0.02700
C 	C 	0.91190 0.36450 0.81940 0.27300
N 	N 	0.81120 0.30440 0.77720 -0.13900
O 	O 	0.84380 0.17770 0.78790 -0.23500
C 	C 	0.57330 0.14180 0.54520 0.23100
C 	C 	0.34280 0.41080 0.92340 0.20100
C 	C 	0.81600 0.30790 0.85130 0.28100
C 	C 	0.32680 0.55340 0.93000 0.23200
C 	C 	0.81710 0.22590 0.76620 0.19700
C 	C 	0.74480 0.23840 0.50340 -0.77700
H 	H 	0.73520 0.29280 0.50600 0.23800
H 	H 	0.78680 0.22390 0.52030 0.27200
H 	H 	0.75780 0.22680 0.47660 0.22000
C 	C 	0.96440 0.39600 0.78950 -0.78700
H 	H 	0.01390 0.40580 0.80110 0.19800
H 	H 	0.97000 0.35950 0.76840 0.26700
H 	H 	0.94360 0.44340 0.77930 0.22800
C 	C 	0.67360 0.19430 0.51500 0.26500
C 	C 	0.21670 0.46790 0.92870 -0.15000
C 	C 	0.42850 0.41960 0.92630 -0.05000
C 	C 	0.64120 0.18310 0.55100 -0.12700
C 	C 	0.73020 0.24490 0.66380 0.03000
C 	C 	0.78550 0.20640 0.72600 -0.05200
C 	C 	0.67520 0.28220 0.59810 0.21500
C 	C 	0.18750 0.45400 0.85310 -0.79300
H 	H 	0.19670 0.50560 0.84400 0.26000
H 	H 	0.23280 0.42320 0.84870 0.27700
H 	H 	0.14490 0.43220 0.83890 0.20800
C 	C 	0.41280 0.56250 0.92850 -0.07800
C 	C 	0.73420 0.40020 0.68760 -0.05500
H 	H 	0.73500 0.45160 0.69540 0.05000
C 	C 	0.70810 0.38060 0.64950 -0.03300
H 	H 	0.69330 0.41910 0.63200 0.02500
C 	C 	0.70440 0.30320 0.63810 -0.07100
C 	C 	0.16910 0.45540 0.89610 0.24600
C 	C 	0.69450 0.14560 0.61350 0.22200
C 	C 	0.72980 0.16690 0.65240 -0.06000
C 	C 	0.78280 0.13000 0.71470 -0.03900
H 	H 	0.79860 0.09130 0.73190 0.05600
C 	C 	0.74500 0.26360 0.86280 -0.81100
H 	H 	0.72700 0.28140 0.88790 0.24500
H 	H 	0.70550 0.27150 0.84340 0.27600
H 	H 	0.75710 0.20960 0.86440 0.25500
C 	C 	0.47510 0.35780 0.92720 -0.05300
H 	H 	0.45360 0.30860 0.92720 0.06600
C 	C 	0.19390 0.47240 0.00370 -0.78100
H 	H 	0.15730 0.44620 0.02020 0.20000
H 	H 	0.24430 0.45060 0.00760 0.25800
H 	H 	0.19490 0.52620 0.01040 0.24700
C 	C 	0.84440 0.32470 0.81460 -0.15000
C 	C 	0.75730 0.26520 0.70200 0.01300
C 	C 	0.78380 0.36430 0.75340 0.20200
C 	C 	0.75850 0.34380 0.71310 -0.06300
C 	C 	0.75590 0.11130 0.67650 -0.02200
H 	H 	0.75620 0.06020 0.66810 0.04800
C 	C 	0.44430 0.63440 0.92820 -0.01000
H 	H 	0.41280 0.67790 0.92870 0.02200
C 	C 	0.51630 0.11100 0.57440 -0.71400
H 	H 	0.54080 0.07260 0.59050 0.23200
H 	H 	0.49800 0.15230 0.59070 0.22900
H 	H 	0.47360 0.08810 0.56060 0.16800
Cu	Cu	0.49243 0.08513 0.38479 0.73000
Cu	Cu	0.63582 0.15839 0.43289 0.77600
Cu	Cu	0.48782 0.08297 0.47800 0.72400
N 	N 	0.57550 0.12690 0.35833 -0.31700
N 	N 	0.63550 0.16040 0.37770 -0.29700
N 	N 	0.93330 0.37090 0.00660 -0.31200
N 	N 	0.40150 0.05070 0.45055 -0.35000
N 	N 	0.40280 0.05470 0.40958 -0.34800
N 	N 	0.87220 0.33770 0.98760 -0.30100
N 	N 	0.82910 0.29570 0.08930 -0.14700
O 	O 	0.71880 0.07080 0.26579 -0.26100
O 	O 	0.21510 0.89170 0.43380 -0.34100
N 	N 	0.20140 0.02220 0.42770 -0.14900
O 	O 	0.18720 0.15050 0.41760 -0.24500
O 	O 	0.81110 0.42140 0.10370 -0.25800
O 	O 	0.84500 0.16870 0.07490 -0.26600
C 	C 	0.32860 0.03640 0.46220 0.23400
C 	C 	0.04080 0.00450 0.42800 0.02700
C 	C 	0.58810 0.13550 0.31940 0.27300
N 	N 	0.68880 0.19560 0.27720 -0.13900
O 	O 	0.65620 0.32230 0.28790 -0.23500
C 	C 	0.92670 0.35820 0.04520 0.23100
C 	C 	0.15720 0.08920 0.42340 0.20100
C 	C 	0.68400 0.19210 0.35130 0.28100
C 	C 	0.17320 0.94660 0.43000 0.23200
C 	C 	0.68290 0.27410 0.26620 0.19700
C 	C 	0.75520 0.26160 0.00340 -0.77700
H 	H 	0.76480 0.20720 0.00600 0.23800
H 	H 	0.71320 0.27610 0.02030 0.27200
H 	H 	0.74220 0.27320 0.97660 0.22000
C 	C 	0.53560 0.10400 0.28950 -0.78700
H 	H 	0.48610 0.09420 0.30110 0.19800
H 	H 	0.53000 0.14050 0.26840 0.26700
H 	H 	0.55640 0.05660 0.27930 0.22800
C 	C 	0.82640 0.30570 0.01500 0.26500
C 	C 	0.28330 0.03210 0.42870 -0.15000
C 	C 	0.07150 0.08040 0.42630 -0.05000
C 	C 	0.85880 0.31690 0.05100 -0.12700
C 	C 	0.76980 0.25510 0.16380 0.03000
C 	C 	0.71450 0.29360 0.22600 -0.05200
C 	C 	0.82480 0.21780 0.09810 0.21500
C 	C 	0.31250 0.04600 0.35310 -0.79300
H 	H 	0.30330 0.99440 0.34400 0.26000
H 	H 	0.26720 0.07680 0.34870 0.27700
H 	H 	0.35510 0.06780 0.33890 0.20800
C 	C 	0.08720 0.93750 0.42850 -0.07800
C 	C 	0.76580 0.09980 0.18760 -0.05500
H 	H 	0.76500 0.04840 0.19540 0.05000
C 	C 	0.79190 0.11940 0.14950 -0.03300
H 	H 	0.80670 0.08090 0.13200 0.02500
C 	C 	0.79560 0.19680 0.13810 -0.07100
C 	C 	0.33090 0.04460 0.39610 0.24600
C 	C 	0.80550 0.35440 0.11350 0.22200
C 	C 	0.77020 0.33310 0.15240 -0.06000
C 	C 	0.71720 0.37000 0.21470 -0.03900
H 	H 	0.70140 0.40870 0.23190 0.05600
C 	C 	0.75500 0.23640 0.36280 -0.81100
H 	H 	0.77300 0.21860 0.38790 0.24500
H 	H 	0.79450 0.22850 0.34340 0.27600
H 	H 	0.74290 0.29040 0.36440 0.25500
C 	C 	0.02490 0.14220 0.42720 -0.05300
H 	H 	0.04640 0.19140 0.42720 0.06600
C 	C 	0.30610 0.02760 0.50370 -0.78100
H 	H 	0.34270 0.05380 0.52020 0.20000
H 	H 	0.25570 0.04940 0.50760 0.25800
H 	H 	0.30510 0.97380 0.51040 0.24700
C 	C 	0.65560 0.17530 0.31460 -0.15000
C 	C 	0.74270 0.23480 0.20200 0.01300
C 	C 	0.71620 0.13570 0.25340 0.20200
C 	C 	0.74150 0.15620 0.21310 -0.06300
C 	C 	0.74410 0.38870 0.17650 -0.02200
H 	H 	0.74380 0.43980 0.16810 0.04800
C 	C 	0.05570 0.86560 0.42820 -0.01000
H 	H 	0.08720 0.82210 0.42870 0.02200
C 	C 	0.98370 0.38900 0.07440 -0.71400
H 	H 	0.95920 0.42740 0.09050 0.23200
H 	H 	0.00200 0.34770 0.09070 0.23000
H 	H 	0.02640 0.41190 0.06060 0.16800
Cu	Cu	0.99243 0.58513 0.88479 0.73000
Cu	Cu	0.13582 0.65839 0.93289 0.77600
Cu	Cu	0.98782 0.58297 0.97800 0.72400
N 	N 	0.07550 0.62690 0.85833 -0.31700
N 	N 	0.13550 0.66040 0.87770 -0.29700
N 	N 	0.43330 0.87090 0.50660 -0.31200
N 	N 	0.90150 0.55070 0.95055 -0.35000
N 	N 	0.90280 0.55470 0.90958 -0.34800
N 	N 	0.37220 0.83770 0.48760 -0.30100
N 	N 	0.32910 0.79570 0.58930 -0.14700
O 	O 	0.21880 0.57080 0.76579 -0.26100
O 	O 	0.71510 0.39170 0.93380 -0.34100
N 	N 	0.70140 0.52220 0.92770 -0.14900
O 	O 	0.68720 0.65050 0.91760 -0.24500
O 	O 	0.31110 0.92140 0.60370 -0.25800
O 	O 	0.34500 0.66870 0.57490 -0.26600
C 	C 	0.82860 0.53640 0.96220 0.23400
C 	C 	0.54080 0.50450 0.92800 0.02700
C 	C 	0.08810 0.63550 0.81940 0.27300
N 	N 	0.18880 0.69560 0.77720 -0.13900
O 	O 	0.15620 0.82230 0.78790 -0.23500
C 	C 	0.42670 0.85820 0.54520 0.23100
C 	C 	0.65720 0.58920 0.92340 0.20100
C 	C 	0.18400 0.69210 0.85130 0.28100
C 	C 	0.67320 0.44660 0.93000 0.23200
C 	C 	0.18290 0.77410 0.76620 0.19700
C 	C 	0.25520 0.76160 0.50340 -0.77700
H 	H 	0.26480 0.70720 0.50600 0.23800
H 	H 	0.21320 0.77610 0.52030 0.27200
H 	H 	0.24220 0.77320 0.47660 0.22000
C 	C 	0.03560 0.60400 0.78950 -0.78700
H 	H 	0.98610 0.59420 0.80110 0.19800
H 	H 	0.03000 0.64050 0.76840 0.26700
H 	H 	0.05640 0.55660 0.77930 0.22800
C 	C 	0.32640 0.80570 0.51500 0.26500
C 	C 	0.78330 0.53210 0.92870 -0.15000
C 	C 	0.57150 0.58040 0.92630 -0.05000
C 	C 	0.35880 0.81690 0.55100 -0.12700
C 	C 	0.26980 0.75510 0.66380 0.03000
C 	C 	0.21450 0.79360 0.72600 -0.05200
C 	C 	0.32480 0.71780 0.59810 0.21500
C 	C 	0.81250 0.54600 0.85310 -0.79300
H 	H 	0.80330 0.49440 0.84400 0.26000
H 	H 	0.76720 0.57680 0.84870 0.27700
H 	H 	0.85510 0.56780 0.83890 0.20800
C 	C 	0.58720 0.43750 0.92850 -0.07800
C 	C 	0.26580 0.59980 0.68760 -0.05500
H 	H 	0.26500 0.54840 0.69540 0.05000
C 	C 	0.29190 0.61940 0.64950 -0.03300
H 	H 	0.30670 0.58090 0.63200 0.02500
C 	C 	0.29560 0.69680 0.63810 -0.07100
C 	C 	0.83090 0.54460 0.89610 0.24600
C 	C 	0.30550 0.85440 0.61350 0.22200
C 	C 	0.27020 0.83310 0.65240 -0.06000
C 	C 	0.21720 0.87000 0.71470 -0.03900
H 	H 	0.20140 0.90870 0.73190 0.05600
C 	C 	0.25500 0.73640 0.86280 -0.81100
H 	H 	0.27300 0.71860 0.88790 0.24500
H 	H 	0.29450 0.72850 0.84340 0.27600
H 	H 	0.24290 0.79040 0.86440 0.25500
C 	C 	0.52490 0.64220 0.92720 -0.05300
H 	H 	0.54640 0.69140 0.92720 0.06600
C 	C 	0.80610 0.52760 0.00370 -0.78100
H 	H 	0.84270 0.55380 0.02020 0.20000
H 	H 	0.75570 0.54940 0.00760 0.25800
H 	H 	0.80510 0.47380 0.01040 0.24700
C 	C 	0.15560 0.67530 0.81460 -0.15000
C 	C 	0.24270 0.73480 0.70200 0.01300
C 	C 	0.21620 0.63570 0.75340 0.20200
C 	C 	0.24150 0.65620 0.71310 -0.06300
C 	C 	0.24410 0.88870 0.67650 -0.02200
H 	H 	0.24380 0.93980 0.66810 0.04800
C 	C 	0.55570 0.36560 0.92820 -0.01000
H 	H 	0.58720 0.32210 0.92870 0.02200
C 	C 	0.48370 0.88900 0.57440 -0.71400
H 	H 	0.45920 0.92740 0.59050 0.23200
H 	H 	0.50200 0.84770 0.59070 0.22900
H 	H 	0.52640 0.91190 0.56060 0.16800
