data_crystal

_cell_length_a 8.54100
_cell_length_b 10.90900
_cell_length_c 11.19800
_cell_angle_alpha 64.15300
_cell_angle_beta  79.90200
_cell_angle_gamma 73.71100

_symmetry_space_group_name_	'P 1'
_symmetry_space_group_name_H-M	'P 1'

loop_
_symmetry_equiv_pos_as_xyz
  x,y,z

loop_
_atom_site_label
_atom_site_type_symbol
_atom_site_fract_x
_atom_site_fract_y
_atom_site_fract_z
_atom_site_charge
Pr	Pr	0.75192 0.49704 0.49658 2.03300
Pr	Pr	0.24808 0.50296 0.50342 2.03300
H 	H 	0.74960 0.55270 0.97710 0.18000
H 	H 	0.40680 0.88950 0.98760 0.16200
H 	H 	0.73560 0.93360 0.67520 0.17300
H 	H 	0.96570 0.74410 0.68440 0.18000
H 	H 	0.98440 0.59760 0.81110 0.19900
H 	H 	0.37850 0.67000 0.14470 0.16100
H 	H 	0.48050 0.53140 0.12670 0.19800
H 	H 	0.56530 0.14140 0.70520 0.14800
H 	H 	0.43410 0.12240 0.82860 0.18400
H 	H 	0.25040 0.44730 0.02290 0.18000
H 	H 	0.59320 0.11050 0.01240 0.16200
H 	H 	0.26440 0.06640 0.32480 0.17300
H 	H 	0.03430 0.25590 0.31560 0.18000
H 	H 	0.01560 0.40240 0.18890 0.19900
H 	H 	0.62150 0.33000 0.85530 0.16100
H 	H 	0.51950 0.46860 0.87330 0.19800
H 	H 	0.43470 0.85860 0.29480 0.14800
H 	H 	0.56590 0.87760 0.17140 0.18400
C 	C 	0.76760 0.73320 0.81500 0.43900
C 	C 	0.70090 0.65000 0.93710 -0.46000
C 	C 	0.56630 0.70560 0.00080 0.41100
C 	C 	0.49760 0.84960 0.94320 -0.45000
C 	C 	0.56130 0.93490 0.82110 0.41300
C 	C 	0.69330 0.87570 0.75900 -0.46700
C 	C 	0.90750 0.67050 0.74470 -0.61500
C 	C 	0.86210 0.60490 0.66320 0.52800
C 	C 	0.49040 0.61730 0.13180 -0.57800
C 	C 	0.58480 0.57430 0.25380 0.49100
C 	C 	0.47980 0.09010 0.75690 -0.57400
C 	C 	0.34580 0.13090 0.66650 0.51200
C 	C 	0.23240 0.26680 0.18500 0.43900
C 	C 	0.29910 0.35000 0.06290 -0.46000
C 	C 	0.43370 0.29440 0.99920 0.41100
C 	C 	0.50240 0.15040 0.05680 -0.45000
C 	C 	0.43870 0.06510 0.17890 0.41300
C 	C 	0.30670 0.12430 0.24100 -0.46700
C 	C 	0.09250 0.32950 0.25530 -0.61500
C 	C 	0.13790 0.39510 0.33680 0.52800
C 	C 	0.50960 0.38270 0.86820 -0.57800
C 	C 	0.41520 0.42570 0.74620 0.49100
C 	C 	0.52020 0.90990 0.24310 -0.57400
C 	C 	0.65420 0.86910 0.33350 0.51200
O 	O 	0.96950 0.56290 0.58840 -0.69800
O 	O 	0.71800 0.59240 0.67350 -0.49800
O 	O 	0.73450 0.56350 0.24400 -0.48900
O 	O 	0.50330 0.54790 0.36620 -0.69900
O 	O 	0.27600 0.25940 0.61510 -0.55400
O 	O 	0.30540 0.03850 0.65010 -0.33000
O 	O 	0.03050 0.43710 0.41160 -0.69800
O 	O 	0.28200 0.40760 0.32650 -0.49800
O 	O 	0.26550 0.43650 0.75600 -0.48900
O 	O 	0.49670 0.45210 0.63380 -0.69900
O 	O 	0.72400 0.74060 0.38490 -0.55400
O 	O 	0.69460 0.96150 0.34990 -0.33000
