data_crystal

_cell_length_a 8.58200
_cell_length_b 10.95600
_cell_length_c 11.21700
_cell_angle_alpha 64.17000
_cell_angle_beta  79.98000
_cell_angle_gamma 73.43100

_symmetry_space_group_name_	'P 1'
_symmetry_space_group_name_H-M	'P 1'

loop_
_symmetry_equiv_pos_as_xyz
  x,y,z

loop_
_atom_site_label
_atom_site_type_symbol
_atom_site_fract_x
_atom_site_fract_y
_atom_site_fract_z
_atom_site_charge
Ce	Ce	0.74800 0.50266 0.00324 2.11000
Ce	Ce	0.25200 0.49734 0.99676 2.11000
H 	H 	0.09300 0.10910 0.51590 0.15100
H 	H 	0.76330 0.06850 0.82740 0.16300
H 	H 	0.75170 0.44810 0.52100 0.16900
H 	H 	0.11790 0.32820 0.35560 0.14800
H 	H 	0.01590 0.46600 0.37390 0.18600
H 	H 	0.05820 0.87490 0.67450 0.16700
H 	H 	0.93310 0.85670 0.80120 0.13500
H 	H 	0.51780 0.41120 0.68190 0.19200
H 	H 	0.52770 0.26620 0.80910 0.16800
H 	H 	0.90700 0.89090 0.48410 0.15100
H 	H 	0.23670 0.93150 0.17260 0.16300
H 	H 	0.24830 0.55190 0.47900 0.16900
H 	H 	0.88210 0.67180 0.64440 0.14800
H 	H 	0.98410 0.53400 0.62610 0.18600
H 	H 	0.94180 0.12510 0.32550 0.16700
H 	H 	0.06690 0.14330 0.19880 0.13500
H 	H 	0.48220 0.58880 0.31810 0.19200
H 	H 	0.47230 0.73380 0.19090 0.16800
C 	C 	0.93370 0.29150 0.50180 0.37700
C 	C 	0.00140 0.15000 0.55860 -0.41800
C 	C 	0.93300 0.06600 0.68160 0.36700
C 	C 	0.80470 0.12500 0.74300 -0.43400
C 	C 	0.73110 0.26840 0.68450 0.39600
C 	C 	0.79900 0.35080 0.56220 -0.42300
C 	C 	0.00620 0.38070 0.36840 -0.53700
C 	C 	0.91640 0.42540 0.24600 0.42100
C 	C 	0.01590 0.90820 0.74570 -0.52200
C 	C 	0.15800 0.87430 0.83230 0.50300
C 	C 	0.59040 0.33610 0.75050 -0.57400
C 	C 	0.64020 0.39790 0.83260 0.48000
C 	C 	0.06630 0.70850 0.49820 0.37700
C 	C 	0.99860 0.85000 0.44140 -0.41800
C 	C 	0.06700 0.93400 0.31840 0.36700
C 	C 	0.19530 0.87500 0.25700 -0.43400
C 	C 	0.26890 0.73160 0.31550 0.39600
C 	C 	0.20100 0.64920 0.43780 -0.42300
C 	C 	0.99380 0.61930 0.63160 -0.53700
C 	C 	0.08360 0.57460 0.75400 0.42100
C 	C 	0.98410 0.09180 0.25430 -0.52200
C 	C 	0.84200 0.12570 0.16770 0.50300
C 	C 	0.40960 0.66390 0.24950 -0.57400
C 	C 	0.35980 0.60210 0.16740 0.48000
O 	O 	0.75410 0.44750 0.24940 -0.46000
O 	O 	0.99190 0.45690 0.13060 -0.69200
O 	O 	0.22160 0.74350 0.88410 -0.55100
O 	O 	0.19340 0.96060 0.85390 -0.34300
O 	O 	0.78260 0.41560 0.82250 -0.49400
O 	O 	0.52880 0.44320 0.90770 -0.68500
O 	O 	0.24590 0.55250 0.75060 -0.46000
O 	O 	0.00810 0.54310 0.86940 -0.69200
O 	O 	0.77840 0.25650 0.11590 -0.55100
O 	O 	0.80660 0.03940 0.14610 -0.34300
O 	O 	0.21740 0.58440 0.17750 -0.49400
O 	O 	0.47120 0.55680 0.09230 -0.68500
