data_crystal

_cell_length_a 8.61800
_cell_length_b 11.02800
_cell_length_c 11.12600
_cell_angle_alpha 64.06000
_cell_angle_beta  80.57000
_cell_angle_gamma 73.21000

_symmetry_space_group_name_	'P 1'
_symmetry_space_group_name_H-M	'P 1'

loop_
_symmetry_equiv_pos_as_xyz
  x,y,z

loop_
_atom_site_label
_atom_site_type_symbol
_atom_site_fract_x
_atom_site_fract_y
_atom_site_fract_z
_atom_site_charge
La	La	0.75348 0.49366 0.99858 1.58200
La	La	0.24652 0.50634 0.00142 1.58200
H 	H 	0.74590 0.55240 0.47410 0.17000
H 	H 	0.40520 0.88940 0.48390 0.15600
H 	H 	0.74040 0.93450 0.17800 0.16900
H 	H 	0.98770 0.60040 0.31040 0.19000
H 	H 	0.96260 0.74490 0.18080 0.17600
H 	H 	0.37710 0.66840 0.63840 0.16500
H 	H 	0.48210 0.53250 0.61850 0.19300
H 	H 	0.43900 0.12120 0.33010 0.17800
H 	H 	0.56980 0.13940 0.20780 0.15200
H 	H 	0.25410 0.44760 0.52590 0.17100
H 	H 	0.59480 0.11060 0.51610 0.15700
H 	H 	0.25960 0.06550 0.82200 0.16900
H 	H 	0.01230 0.39960 0.68960 0.19000
H 	H 	0.03740 0.25510 0.81920 0.17600
H 	H 	0.62290 0.33160 0.36160 0.16500
H 	H 	0.51790 0.46750 0.38150 0.19300
H 	H 	0.56100 0.87880 0.66990 0.17800
H 	H 	0.43020 0.86060 0.79220 0.15200
C 	C 	0.76610 0.73500 0.31510 0.40100
C 	C 	0.69890 0.64970 0.43520 -0.43000
C 	C 	0.56390 0.70700 0.49740 0.39200
C 	C 	0.49670 0.85000 0.44060 -0.43400
C 	C 	0.56200 0.93640 0.32060 0.39200
C 	C 	0.69560 0.87680 0.25980 -0.43800
C 	C 	0.90830 0.67150 0.24370 -0.57600
C 	C 	0.85960 0.60480 0.16730 0.49300
C 	C 	0.48900 0.61690 0.62620 -0.56700
C 	C 	0.58170 0.57260 0.74950 0.46900
C 	C 	0.48450 0.08990 0.25790 -0.54600
C 	C 	0.35000 0.13220 0.16310 0.48200
C 	C 	0.23390 0.26500 0.68490 0.40100
C 	C 	0.30110 0.35030 0.56480 -0.43000
C 	C 	0.43610 0.29300 0.50260 0.39200
C 	C 	0.50330 0.15000 0.55940 -0.43400
C 	C 	0.43800 0.06360 0.67940 0.39200
C 	C 	0.30440 0.12320 0.74020 -0.43800
C 	C 	0.09170 0.32850 0.75630 -0.57600
C 	C 	0.14040 0.39520 0.83270 0.49300
C 	C 	0.51100 0.38310 0.37380 -0.56700
C 	C 	0.41830 0.42740 0.25050 0.46900
C 	C 	0.51550 0.91010 0.74210 -0.54600
C 	C 	0.65000 0.86780 0.83690 0.48200
O 	O 	0.71920 0.59100 0.17700 -0.43500
O 	O 	0.96810 0.56220 0.09130 -0.55600
O 	O 	0.50220 0.54840 0.86290 -0.56300
O 	O 	0.73120 0.55790 0.74360 -0.43100
O 	O 	0.27780 0.25980 0.11810 -0.46600
O 	O 	0.31660 0.04580 0.13610 -0.31900
O 	O 	0.28080 0.40900 0.82300 -0.43500
O 	O 	0.03190 0.43780 0.90870 -0.55600
O 	O 	0.49780 0.45160 0.13710 -0.56300
O 	O 	0.26880 0.44210 0.25640 -0.43100
O 	O 	0.72220 0.74020 0.88190 -0.46600
O 	O 	0.68340 0.95420 0.86390 -0.31900
