data_crystal

_cell_length_a 34.60660
_cell_length_b 34.60660
_cell_length_c 34.60660
_cell_angle_alpha 60.00000
_cell_angle_beta  60.00000
_cell_angle_gamma 60.00000

_symmetry_space_group_name_	'P 1'
_symmetry_space_group_name_H-M	'P 1'

loop_
_symmetry_equiv_pos_as_xyz
  x,y,z

loop_
_atom_site_label
_atom_site_type_symbol
_atom_site_fract_x
_atom_site_fract_y
_atom_site_fract_z
_atom_site_charge
Cd	Cd	0.20560 0.70560 0.19663 1.07800
Cd	Cd	0.20560 0.70560 0.89217 1.08300
Cd	Cd	0.69663 0.89217 0.70560 1.08300
Cd	Cd	0.39217 0.19663 0.70560 1.07900
Cd	Cd	0.20560 0.19663 0.89217 1.08200
Cd	Cd	0.20560 0.89217 0.19663 1.08000
Cd	Cd	0.69663 0.70560 0.70560 1.08100
Cd	Cd	0.39217 0.70560 0.70560 1.08100
Cd	Cd	0.20560 0.89217 0.70560 1.08200
Cd	Cd	0.20560 0.19663 0.70560 1.07900
Cd	Cd	0.69663 0.70560 0.89217 1.08400
Cd	Cd	0.39217 0.70560 0.19663 1.07900
Cd	Cd	0.79440 0.29440 0.80337 1.08100
Cd	Cd	0.79440 0.29440 0.10783 1.07600
Cd	Cd	0.60783 0.80337 0.29440 1.07900
Cd	Cd	0.30337 0.10783 0.29440 1.07600
Cd	Cd	0.30337 0.29440 0.10783 1.07500
Cd	Cd	0.60783 0.29440 0.80337 1.08000
Cd	Cd	0.79440 0.80337 0.29440 1.08000
Cd	Cd	0.79440 0.10783 0.29440 1.07700
Cd	Cd	0.60783 0.29440 0.29440 1.07800
Cd	Cd	0.30337 0.29440 0.29440 1.07800
Cd	Cd	0.79440 0.80337 0.10783 1.07700
Cd	Cd	0.79440 0.10783 0.80337 1.07800
Cd	Cd	1.00000 0.68964 0.31036 1.08100
Cd	Cd	0.18964 0.50000 -0.00000 1.06200
Cd	Cd	0.81036 0.00000 0.50000 1.06700
Cd	Cd	0.50000 0.31036 0.68964 1.07300
Cd	Cd	-0.00000 0.31036 -0.00000 1.05500
Cd	Cd	0.18964 0.00000 0.31036 1.06500
Cd	Cd	0.81036 0.50000 0.68964 1.07500
Cd	Cd	0.50000 0.68964 0.50000 1.07300
Cd	Cd	0.00000 0.00000 0.68964 1.05900
Cd	Cd	0.18964 0.31036 0.50000 1.07200
Cd	Cd	0.81036 0.68964 -0.00000 1.06400
Cd	Cd	0.50000 0.50000 0.31036 1.07300
Cd	Cd	0.00000 0.31036 0.68964 1.06500
Cd	Cd	0.81036 0.50000 -0.00000 1.06400
Cd	Cd	0.18964 0.00000 0.50000 1.06500
Cd	Cd	0.50000 0.68964 0.31036 1.07300
Cd	Cd	-0.00000 0.68964 -0.00000 1.05600
Cd	Cd	0.81036 0.00000 0.68964 1.06700
Cd	Cd	0.18964 0.50000 0.31036 1.07200
Cd	Cd	0.50000 0.31036 0.50000 1.07300
Cd	Cd	-0.00000 1.00000 0.31036 1.07200
Cd	Cd	0.81036 0.68964 0.50000 1.07400
Cd	Cd	0.18964 0.31036 -0.00000 1.06200
Cd	Cd	0.50000 0.50000 0.68964 1.07300
H 	H 	0.29130 0.74570 0.10390 -0.06000
H 	H 	0.14490 0.69050 0.15470 -0.04000
H 	H 	0.09530 0.71150 0.22990 -0.10300
H 	H 	0.10900 0.68120 0.27600 -0.11200
H 	H 	0.06190 0.63370 0.22750 -0.06600
H 	H 	0.07020 0.68260 0.20020 -0.05900
H 	H 	0.24570 0.79130 0.85910 -0.05000
H 	H 	0.19050 0.64490 0.00990 -0.04000
H 	H 	0.21150 0.59530 0.96330 -0.09500
H 	H 	0.18120 0.60900 0.93380 -0.11200
H 	H 	0.13370 0.56190 0.07690 -0.06200
H 	H 	0.18260 0.57020 0.04700 -0.05900
H 	H 	0.60390 0.85910 0.79130 -0.04900
H 	H 	0.65470 0.00990 0.64490 -0.03800
H 	H 	0.72990 0.96330 0.59530 -0.09500
H 	H 	0.77600 0.93380 0.60900 -0.10800
H 	H 	0.72750 0.07690 0.56190 -0.05900
H 	H 	0.70020 0.04700 0.57020 -0.05600
H 	H 	0.35910 0.10390 0.74570 -0.05700
H 	H 	0.50990 0.15470 0.69050 -0.03700
H 	H 	0.46330 0.22990 0.71150 -0.09700
H 	H 	0.43380 0.27600 0.68120 -0.10700
H 	H 	0.57690 0.22750 0.63370 -0.06000
H 	H 	0.54700 0.20020 0.68260 -0.05300
H 	H 	0.29130 0.10390 0.85910 -0.05400
H 	H 	0.14490 0.15470 0.00990 -0.04300
H 	H 	0.09530 0.22990 0.96330 -0.10000
H 	H 	0.10900 0.27600 0.93380 -0.11500
H 	H 	0.06190 0.22750 0.07690 -0.06600
H 	H 	0.07020 0.20020 0.04700 -0.06400
H 	H 	0.24570 0.85910 0.10390 -0.05800
H 	H 	0.19050 0.00990 0.15470 -0.04200
H 	H 	0.21150 0.96330 0.22990 -0.09800
H 	H 	0.18120 0.93380 0.27600 -0.11200
H 	H 	0.13370 0.07690 0.22750 -0.06300
H 	H 	0.18260 0.04700 0.20020 -0.05900
H 	H 	0.60390 0.79130 0.74570 -0.05200
H 	H 	0.65470 0.64490 0.69050 -0.03500
H 	H 	0.72990 0.59530 0.71150 -0.09600
H 	H 	0.77600 0.60900 0.68120 -0.10500
H 	H 	0.72750 0.56190 0.63370 -0.05900
H 	H 	0.70020 0.57020 0.68260 -0.05200
H 	H 	0.35910 0.74570 0.79130 -0.05200
H 	H 	0.50990 0.69050 0.64490 -0.03500
H 	H 	0.46330 0.71150 0.59530 -0.09700
H 	H 	0.43380 0.68120 0.60900 -0.10700
H 	H 	0.57690 0.63370 0.56190 -0.05900
H 	H 	0.54700 0.68260 0.57020 -0.05200
H 	H 	0.29130 0.85910 0.74570 -0.05100
H 	H 	0.14490 0.00990 0.69050 -0.03900
H 	H 	0.09530 0.96330 0.71150 -0.09800
H 	H 	0.10900 0.93380 0.68120 -0.11300
H 	H 	0.06190 0.07690 0.63370 -0.06500
H 	H 	0.07020 0.04700 0.68260 -0.06000
H 	H 	0.24570 0.10390 0.79130 -0.05700
H 	H 	0.19050 0.15470 0.64490 -0.03800
H 	H 	0.21150 0.22990 0.59530 -0.09900
H 	H 	0.18120 0.27600 0.60900 -0.10900
H 	H 	0.13370 0.22750 0.56190 -0.06300
H 	H 	0.18260 0.20020 0.57020 -0.05500
H 	H 	0.60390 0.74570 0.85910 -0.04900
H 	H 	0.65470 0.69050 0.00990 -0.03800
H 	H 	0.72990 0.71150 0.96330 -0.09300
H 	H 	0.77600 0.68120 0.93380 -0.10900
H 	H 	0.72750 0.63370 0.07690 -0.05900
H 	H 	0.70020 0.68260 0.04700 -0.05700
H 	H 	0.35910 0.79130 0.10390 -0.05900
H 	H 	0.50990 0.64490 0.15470 -0.03900
H 	H 	0.46330 0.59530 0.22990 -0.09900
H 	H 	0.43380 0.60900 0.27600 -0.10800
H 	H 	0.57690 0.56190 0.22750 -0.06100
H 	H 	0.54700 0.57020 0.20020 -0.05400
H 	H 	0.75430 0.20870 0.89610 -0.05200
H 	H 	0.80950 0.35510 0.84530 -0.03300
H 	H 	0.78850 0.40470 0.77010 -0.09600
H 	H 	0.81880 0.39100 0.72400 -0.10600
H 	H 	0.86630 0.43810 0.77250 -0.05600
H 	H 	0.81740 0.42980 0.79980 -0.05000
H 	H 	0.70870 0.25430 0.14090 -0.06100
H 	H 	0.85510 0.30950 0.99010 -0.03200
H 	H 	0.90470 0.28850 0.03670 -0.09500
H 	H 	0.89100 0.31880 0.06620 -0.09900
H 	H 	0.93810 0.36630 0.92310 -0.05300
H 	H 	0.92980 0.31740 0.95300 -0.04200
H 	H 	0.64090 0.89610 0.20870 -0.05500
H 	H 	0.49010 0.84530 0.35510 -0.03500
H 	H 	0.53670 0.77010 0.40470 -0.09700
H 	H 	0.56620 0.72400 0.39100 -0.10700
H 	H 	0.42310 0.77250 0.43810 -0.05900
H 	H 	0.45300 0.79980 0.42980 -0.05200
H 	H 	0.39610 0.14090 0.25430 -0.06100
H 	H 	0.34530 0.99010 0.30950 -0.03500
H 	H 	0.27010 0.03670 0.28850 -0.10100
H 	H 	0.22400 0.06620 0.31880 -0.10600
H 	H 	0.27250 0.92310 0.36630 -0.06000
H 	H 	0.29980 0.95300 0.31740 -0.05000
H 	H 	0.39610 0.20870 0.14090 -0.06300
H 	H 	0.34530 0.35510 0.99010 -0.03300
H 	H 	0.27010 0.40470 0.03670 -0.10000
H 	H 	0.22400 0.39100 0.06620 -0.10400
H 	H 	0.27250 0.43810 0.92310 -0.05900
H 	H 	0.29980 0.42980 0.95300 -0.04700
H 	H 	0.64090 0.25430 0.89610 -0.05200
H 	H 	0.49010 0.30950 0.84530 -0.03400
H 	H 	0.53670 0.28850 0.77010 -0.09700
H 	H 	0.56620 0.31880 0.72400 -0.10700
H 	H 	0.42310 0.36630 0.77250 -0.05900
H 	H 	0.45300 0.31740 0.79980 -0.05200
H 	H 	0.70870 0.89610 0.25430 -0.05300
H 	H 	0.85510 0.84530 0.30950 -0.03300
H 	H 	0.90470 0.77010 0.28850 -0.09400
H 	H 	0.89100 0.72400 0.31880 -0.10400
H 	H 	0.93810 0.77250 0.36630 -0.05400
H 	H 	0.92980 0.79980 0.31740 -0.04800
H 	H 	0.75430 0.14090 0.20870 -0.06000
H 	H 	0.80950 0.99010 0.35510 -0.03400
H 	H 	0.78850 0.03670 0.40470 -0.09800
H 	H 	0.81880 0.06620 0.39100 -0.10300
H 	H 	0.86630 0.92310 0.43810 -0.05600
H 	H 	0.81740 0.95300 0.42980 -0.04800
H 	H 	0.64090 0.20870 0.25430 -0.05900
H 	H 	0.49010 0.35510 0.30950 -0.03800
H 	H 	0.53670 0.40470 0.28850 -0.09900
H 	H 	0.56620 0.39100 0.31880 -0.10800
H 	H 	0.42310 0.43810 0.36630 -0.06100
H 	H 	0.45300 0.42980 0.31740 -0.05400
H 	H 	0.39610 0.25430 0.20870 -0.05900
H 	H 	0.34530 0.30950 0.35510 -0.03800
H 	H 	0.27010 0.28850 0.40470 -0.09900
H 	H 	0.22400 0.31880 0.39100 -0.10900
H 	H 	0.27250 0.36630 0.43810 -0.06100
H 	H 	0.29980 0.31740 0.42980 -0.05400
H 	H 	0.75430 0.89610 0.14090 -0.05600
H 	H 	0.80950 0.84530 0.99010 -0.03000
H 	H 	0.78850 0.77010 0.03670 -0.09800
H 	H 	0.81880 0.72400 0.06620 -0.10100
H 	H 	0.86630 0.77250 0.92310 -0.05500
H 	H 	0.81740 0.79980 0.95300 -0.04400
H 	H 	0.70870 0.14090 0.89610 -0.05400
H 	H 	0.85510 0.99010 0.84530 -0.02900
H 	H 	0.90470 0.03670 0.77010 -0.09300
H 	H 	0.89100 0.06620 0.72400 -0.09900
H 	H 	0.93810 0.92310 0.77250 -0.05200
H 	H 	0.92980 0.95300 0.79980 -0.04100
H 	H 	0.70870 0.25430 0.89610 -0.05200
H 	H 	0.85510 0.30950 0.84530 -0.03200
H 	H 	0.90470 0.28850 0.77010 -0.09200
H 	H 	0.89100 0.31880 0.72400 -0.10300
H 	H 	0.93810 0.36630 0.77250 -0.05300
H 	H 	0.92980 0.31740 0.79980 -0.04600
H 	H 	0.75430 0.20870 0.14090 -0.06100
H 	H 	0.80950 0.35510 0.99010 -0.03300
H 	H 	0.78850 0.40470 0.03670 -0.09900
H 	H 	0.81880 0.39100 0.06620 -0.10100
H 	H 	0.86630 0.43810 0.92310 -0.05600
H 	H 	0.81740 0.42980 0.95300 -0.04600
H 	H 	0.39610 0.14090 0.20870 -0.06200
H 	H 	0.34530 0.99010 0.35510 -0.03500
H 	H 	0.27010 0.03670 0.40470 -0.10000
H 	H 	0.22400 0.06620 0.39100 -0.10500
H 	H 	0.27250 0.92310 0.43810 -0.05900
H 	H 	0.29980 0.95300 0.42980 -0.04900
H 	H 	0.64090 0.89610 0.25430 -0.05400
H 	H 	0.49010 0.84530 0.30950 -0.03500
H 	H 	0.53670 0.77010 0.28850 -0.09800
H 	H 	0.56620 0.72400 0.31880 -0.10700
H 	H 	0.42310 0.77250 0.36630 -0.06000
H 	H 	0.45300 0.79980 0.31740 -0.05300
H 	H 	0.70870 0.89610 0.14090 -0.05700
H 	H 	0.85510 0.84530 0.99010 -0.02900
H 	H 	0.90470 0.77010 0.03670 -0.09400
H 	H 	0.89100 0.72400 0.06620 -0.09800
H 	H 	0.93810 0.77250 0.92310 -0.05100
H 	H 	0.92980 0.79980 0.95300 -0.04000
H 	H 	0.75430 0.14090 0.89610 -0.05400
H 	H 	0.80950 0.99010 0.84530 -0.03000
H 	H 	0.78850 0.03670 0.77010 -0.09700
H 	H 	0.81880 0.06620 0.72400 -0.10200
H 	H 	0.86630 0.92310 0.77250 -0.05500
H 	H 	0.81740 0.95300 0.79980 -0.04600
H 	H 	0.39610 0.20870 0.25430 -0.05900
H 	H 	0.34530 0.35510 0.30950 -0.03800
H 	H 	0.27010 0.40470 0.28850 -0.09900
H 	H 	0.22400 0.39100 0.31880 -0.10900
H 	H 	0.27250 0.43810 0.36630 -0.06100
H 	H 	0.29980 0.42980 0.31740 -0.05400
H 	H 	0.64090 0.25430 0.20870 -0.05900
H 	H 	0.49010 0.30950 0.35510 -0.03800
H 	H 	0.53670 0.28850 0.40470 -0.09900
H 	H 	0.56620 0.31880 0.39100 -0.10800
H 	H 	0.42310 0.36630 0.43810 -0.06100
H 	H 	0.45300 0.31740 0.42980 -0.05400
H 	H 	0.70870 0.14090 0.25430 -0.06000
H 	H 	0.85510 0.99010 0.30950 -0.03300
H 	H 	0.90470 0.03670 0.28850 -0.09600
H 	H 	0.89100 0.06620 0.31880 -0.10100
H 	H 	0.93810 0.92310 0.36630 -0.05400
H 	H 	0.92980 0.95300 0.31740 -0.04400
H 	H 	0.75430 0.89610 0.20870 -0.05400
H 	H 	0.80950 0.84530 0.35510 -0.03400
H 	H 	0.78850 0.77010 0.40470 -0.09600
H 	H 	0.81880 0.72400 0.39100 -0.10600
H 	H 	0.86630 0.77250 0.43810 -0.05700
H 	H 	0.81740 0.79980 0.42980 -0.05100
H 	H 	0.39610 0.25430 0.14090 -0.06200
H 	H 	0.34530 0.30950 0.99010 -0.03400
H 	H 	0.27010 0.28850 0.03670 -0.10100
H 	H 	0.22400 0.31880 0.06620 -0.10400
H 	H 	0.27250 0.36630 0.92310 -0.05900
H 	H 	0.29980 0.31740 0.95300 -0.04700
H 	H 	0.64090 0.20870 0.89610 -0.05300
H 	H 	0.49010 0.35510 0.84530 -0.03400
H 	H 	0.53670 0.40470 0.77010 -0.09600
H 	H 	0.56620 0.39100 0.72400 -0.10700
H 	H 	0.42310 0.43810 0.77250 -0.05900
H 	H 	0.45300 0.42980 0.79980 -0.05100
H 	H 	0.24570 0.79130 0.10390 -0.06000
H 	H 	0.19050 0.64490 0.15470 -0.04000
H 	H 	0.21150 0.59530 0.22990 -0.09900
H 	H 	0.18120 0.60900 0.27600 -0.10900
H 	H 	0.13370 0.56190 0.22750 -0.06300
H 	H 	0.18260 0.57020 0.20020 -0.05500
H 	H 	0.29130 0.74570 0.85910 -0.05000
H 	H 	0.14490 0.69050 0.00990 -0.04000
H 	H 	0.09530 0.71150 0.96330 -0.09800
H 	H 	0.10900 0.68120 0.93380 -0.11400
H 	H 	0.06190 0.63370 0.07690 -0.06500
H 	H 	0.07020 0.68260 0.04700 -0.06200
H 	H 	0.35910 0.10390 0.79130 -0.05600
H 	H 	0.50990 0.15470 0.64490 -0.03800
H 	H 	0.46330 0.22990 0.59530 -0.09900
H 	H 	0.43380 0.27600 0.60900 -0.10800
H 	H 	0.57690 0.22750 0.56190 -0.06000
H 	H 	0.54700 0.20020 0.57020 -0.05400
H 	H 	0.60390 0.85910 0.74570 -0.05100
H 	H 	0.65470 0.00990 0.69050 -0.03700
H 	H 	0.72990 0.96330 0.71150 -0.09400
H 	H 	0.77600 0.93380 0.68120 -0.10800
H 	H 	0.72750 0.07690 0.63370 -0.05900
H 	H 	0.70020 0.04700 0.68260 -0.05600
H 	H 	0.60390 0.79130 0.85910 -0.04900
H 	H 	0.65470 0.64490 0.00990 -0.03900
H 	H 	0.72990 0.59530 0.96330 -0.09400
H 	H 	0.77600 0.60900 0.93380 -0.10900
H 	H 	0.72750 0.56190 0.07690 -0.06000
H 	H 	0.70020 0.57020 0.04700 -0.05800
H 	H 	0.35910 0.74570 0.10390 -0.05900
H 	H 	0.50990 0.69050 0.15470 -0.03800
H 	H 	0.46330 0.71150 0.22990 -0.09800
H 	H 	0.43380 0.68120 0.27600 -0.10800
H 	H 	0.57690 0.63370 0.22750 -0.06000
H 	H 	0.54700 0.68260 0.20020 -0.05400
H 	H 	0.29130 0.10390 0.74570 -0.05800
H 	H 	0.14490 0.15470 0.69050 -0.03900
H 	H 	0.09530 0.22990 0.71150 -0.10100
H 	H 	0.10900 0.27600 0.68120 -0.11100
H 	H 	0.06190 0.22750 0.63370 -0.06500
H 	H 	0.07020 0.20020 0.68260 -0.05800
H 	H 	0.24570 0.85910 0.79130 -0.05100
H 	H 	0.19050 0.00990 0.64490 -0.03800
H 	H 	0.21150 0.96330 0.59530 -0.09600
H 	H 	0.18120 0.93380 0.60900 -0.11100
H 	H 	0.13370 0.07690 0.56190 -0.06200
H 	H 	0.18260 0.04700 0.57020 -0.05700
H 	H 	0.35910 0.79130 0.74570 -0.05300
H 	H 	0.50990 0.64490 0.69050 -0.03500
H 	H 	0.46330 0.59530 0.71150 -0.09600
H 	H 	0.43380 0.60900 0.68120 -0.10700
H 	H 	0.57690 0.56190 0.63370 -0.05900
H 	H 	0.54700 0.57020 0.68260 -0.05200
H 	H 	0.60390 0.74570 0.79130 -0.05200
H 	H 	0.65470 0.69050 0.64490 -0.03500
H 	H 	0.72990 0.71150 0.59530 -0.09600
H 	H 	0.77600 0.68120 0.60900 -0.10500
H 	H 	0.72750 0.63370 0.56190 -0.05900
H 	H 	0.70020 0.68260 0.57020 -0.05200
H 	H 	0.24570 0.10390 0.85910 -0.05500
H 	H 	0.19050 0.15470 0.00990 -0.04200
H 	H 	0.21150 0.22990 0.96330 -0.09600
H 	H 	0.18120 0.27600 0.93380 -0.11200
H 	H 	0.13370 0.22750 0.07690 -0.06300
H 	H 	0.18260 0.20020 0.04700 -0.06000
H 	H 	0.29130 0.85910 0.10390 -0.05700
H 	H 	0.14490 0.00990 0.15470 -0.04300
H 	H 	0.09530 0.96330 0.22990 -0.10200
H 	H 	0.10900 0.93380 0.27600 -0.11500
H 	H 	0.06190 0.07690 0.22750 -0.06700
H 	H 	0.07020 0.04700 0.20020 -0.06300
H 	H 	0.08230 0.58230 0.30610 -0.11600
H 	H 	0.10260 0.60260 0.32080 -0.11500
H 	H 	0.08230 0.58230 0.02930 -0.10100
H 	H 	0.10260 0.60260 0.97400 -0.07200
H 	H 	0.80610 0.02930 0.58230 -0.09800
H 	H 	0.82080 0.97400 0.60260 -0.07800
H 	H 	0.52930 0.30610 0.58230 -0.11100
H 	H 	0.47400 0.32080 0.60260 -0.11100
H 	H 	0.08230 0.30610 0.02930 -0.10100
H 	H 	0.10260 0.32080 0.97400 -0.07300
H 	H 	0.08230 0.02930 0.30610 -0.10600
H 	H 	0.10260 0.97400 0.32080 -0.08600
H 	H 	0.80610 0.58230 0.58230 -0.10900
H 	H 	0.82080 0.60260 0.60260 -0.10800
H 	H 	0.52930 0.58230 0.58230 -0.11100
H 	H 	0.47400 0.60260 0.60260 -0.11100
H 	H 	0.08230 0.02930 0.58230 -0.10500
H 	H 	0.10260 0.97400 0.60260 -0.08500
H 	H 	0.08230 0.30610 0.58230 -0.11500
H 	H 	0.10260 0.32080 0.60260 -0.11400
H 	H 	0.80610 0.58230 0.02930 -0.09400
H 	H 	0.82080 0.60260 0.97400 -0.06600
H 	H 	0.52930 0.58230 0.30610 -0.11100
H 	H 	0.47400 0.60260 0.32080 -0.11100
H 	H 	0.91770 0.41770 0.69390 -0.10500
H 	H 	0.89740 0.39740 0.67920 -0.10600
H 	H 	0.91770 0.41770 0.97070 -0.11800
H 	H 	0.89740 0.39740 0.02600 -0.14600
H 	H 	0.47070 0.69390 0.41770 -0.11100
H 	H 	0.52600 0.67920 0.39740 -0.11100
H 	H 	0.19390 0.97070 0.41770 -0.12200
H 	H 	0.17920 0.02600 0.39740 -0.14100
H 	H 	0.19390 0.41770 0.97070 -0.12600
H 	H 	0.17920 0.39740 0.02600 -0.15300
H 	H 	0.47070 0.41770 0.69390 -0.11100
H 	H 	0.52600 0.39740 0.67920 -0.11000
H 	H 	0.91770 0.69390 0.41770 -0.10600
H 	H 	0.89740 0.67920 0.39740 -0.10700
H 	H 	0.91770 0.97070 0.41770 -0.11500
H 	H 	0.89740 0.02600 0.39740 -0.13500
H 	H 	0.47070 0.41770 0.41770 -0.11100
H 	H 	0.52600 0.39740 0.39740 -0.11100
H 	H 	0.19390 0.41770 0.41770 -0.11300
H 	H 	0.17920 0.39740 0.39740 -0.11300
H 	H 	0.91770 0.69390 0.97070 -0.11800
H 	H 	0.89740 0.67920 0.02600 -0.14600
H 	H 	0.91770 0.97070 0.69390 -0.11400
H 	H 	0.89740 0.02600 0.67920 -0.13400
H 	H 	0.31410 0.69470 0.17710 -0.09200
H 	H 	0.28350 0.71070 0.22230 -0.09400
H 	H 	0.19470 0.81410 0.81410 -0.08800
H 	H 	0.21070 0.78350 0.78350 -0.09300
H 	H 	0.67710 0.81410 0.81410 -0.08500
H 	H 	0.72230 0.78350 0.78350 -0.09000
H 	H 	0.31410 0.17710 0.69470 -0.09100
H 	H 	0.28350 0.22230 0.71070 -0.09400
H 	H 	0.31410 0.17710 0.81410 -0.08900
H 	H 	0.28350 0.22230 0.78350 -0.09300
H 	H 	0.19470 0.81410 0.17710 -0.09200
H 	H 	0.21070 0.78350 0.22230 -0.09500
H 	H 	0.67710 0.81410 0.69470 -0.08700
H 	H 	0.72230 0.78350 0.71070 -0.09100
H 	H 	0.31410 0.69470 0.81410 -0.08700
H 	H 	0.28350 0.71070 0.78350 -0.09200
H 	H 	0.31410 0.81410 0.69470 -0.08800
H 	H 	0.28350 0.78350 0.71070 -0.09200
H 	H 	0.19470 0.17710 0.81410 -0.09100
H 	H 	0.21070 0.22230 0.78350 -0.09400
H 	H 	0.67710 0.69470 0.81410 -0.08700
H 	H 	0.72230 0.71070 0.78350 -0.09000
H 	H 	0.31410 0.81410 0.17710 -0.09000
H 	H 	0.28350 0.78350 0.22230 -0.09300
H 	H 	0.80530 0.18590 0.82290 -0.08700
H 	H 	0.78930 0.21650 0.77770 -0.09100
H 	H 	0.68590 0.30530 0.18590 -0.09200
H 	H 	0.71650 0.28930 0.21650 -0.09400
H 	H 	0.68590 0.82290 0.18590 -0.09100
H 	H 	0.71650 0.77770 0.21650 -0.09300
H 	H 	0.32290 0.18590 0.30530 -0.09200
H 	H 	0.27770 0.21650 0.28930 -0.09500
H 	H 	0.32290 0.18590 0.18590 -0.09400
H 	H 	0.27770 0.21650 0.21650 -0.09600
H 	H 	0.68590 0.30530 0.82290 -0.08800
H 	H 	0.71650 0.28930 0.77770 -0.09200
H 	H 	0.68590 0.82290 0.30530 -0.08900
H 	H 	0.71650 0.77770 0.28930 -0.09200
H 	H 	0.80530 0.18590 0.18590 -0.09200
H 	H 	0.78930 0.21650 0.21650 -0.09300
H 	H 	0.68590 0.18590 0.30530 -0.09200
H 	H 	0.71650 0.21650 0.28930 -0.09300
H 	H 	0.32290 0.30530 0.18590 -0.09300
H 	H 	0.27770 0.28930 0.21650 -0.09500
H 	H 	0.80530 0.82290 0.18590 -0.08900
H 	H 	0.78930 0.77770 0.21650 -0.09200
H 	H 	0.68590 0.18590 0.82290 -0.09000
H 	H 	0.71650 0.21650 0.77770 -0.09200
C 	C 	0.10928 0.67960 0.24872 0.03800
C 	C 	0.08192 0.65028 0.21972 0.04500
C 	C 	0.17960 0.60928 0.96240 0.06400
C 	C 	0.15028 0.58192 0.04808 0.04000
C 	C 	0.74872 0.96240 0.60928 0.05500
C 	C 	0.71972 0.04808 0.58192 0.03900
C 	C 	0.46240 0.24872 0.67960 0.03500
C 	C 	0.54808 0.21972 0.65028 0.04100
C 	C 	0.10928 0.24872 0.96240 0.06600
C 	C 	0.08192 0.21972 0.04808 0.04300
C 	C 	0.17960 0.96240 0.24872 0.05600
C 	C 	0.15028 0.04808 0.21972 0.04200
C 	C 	0.74872 0.60928 0.67960 0.03400
C 	C 	0.71972 0.58192 0.65028 0.04000
C 	C 	0.46240 0.67960 0.60928 0.03500
C 	C 	0.54808 0.65028 0.58192 0.04100
C 	C 	0.10928 0.96240 0.67960 0.05700
C 	C 	0.08192 0.04808 0.65028 0.04200
C 	C 	0.17960 0.24872 0.60928 0.03600
C 	C 	0.15028 0.21972 0.58192 0.04300
C 	C 	0.74872 0.67960 0.96240 0.06300
C 	C 	0.71972 0.65028 0.04808 0.03800
C 	C 	0.46240 0.60928 0.24872 0.03600
C 	C 	0.54808 0.58192 0.21972 0.04200
C 	C 	0.82040 0.39072 0.75128 0.03400
C 	C 	0.84972 0.41808 0.78028 0.03900
C 	C 	0.89072 0.32040 0.03760 0.00500
C 	C 	0.91808 0.34972 0.95192 0.04000
C 	C 	0.53760 0.75128 0.39072 0.03500
C 	C 	0.45192 0.78028 0.41808 0.04100
C 	C 	0.25128 0.03760 0.32040 0.01700
C 	C 	0.28028 0.95192 0.34972 0.04300
C 	C 	0.25128 0.39072 0.03760 0.00800
C 	C 	0.28028 0.41808 0.95192 0.04300
C 	C 	0.53760 0.32040 0.75128 0.03500
C 	C 	0.45192 0.34972 0.78028 0.04100
C 	C 	0.89072 0.75128 0.32040 0.03300
C 	C 	0.91808 0.78028 0.34972 0.03800
C 	C 	0.82040 0.03760 0.39072 0.01500
C 	C 	0.84972 0.95192 0.41808 0.04100
C 	C 	0.53760 0.39072 0.32040 0.03600
C 	C 	0.45192 0.41808 0.34972 0.04200
C 	C 	0.25128 0.32040 0.39072 0.03700
C 	C 	0.28028 0.34972 0.41808 0.04200
C 	C 	0.82040 0.75128 0.03760 0.00600
C 	C 	0.84972 0.78028 0.95192 0.04100
C 	C 	0.89072 0.03760 0.75128 0.01200
C 	C 	0.91808 0.95192 0.78028 0.03800
C 	C 	0.89072 0.32040 0.75128 0.03300
C 	C 	0.91808 0.34972 0.78028 0.03700
C 	C 	0.82040 0.39072 0.03760 0.00600
C 	C 	0.84972 0.41808 0.95192 0.04200
C 	C 	0.25128 0.03760 0.39072 0.01600
C 	C 	0.28028 0.95192 0.41808 0.04300
C 	C 	0.53760 0.75128 0.32040 0.03500
C 	C 	0.45192 0.78028 0.34972 0.04100
C 	C 	0.89072 0.75128 0.03760 0.00400
C 	C 	0.91808 0.78028 0.95192 0.03900
C 	C 	0.82040 0.03760 0.75128 0.01400
C 	C 	0.84972 0.95192 0.78028 0.04000
C 	C 	0.25128 0.39072 0.32040 0.03700
C 	C 	0.28028 0.41808 0.34972 0.04200
C 	C 	0.53760 0.32040 0.39072 0.03600
C 	C 	0.45192 0.34972 0.41808 0.04200
C 	C 	0.89072 0.03760 0.32040 0.01300
C 	C 	0.91808 0.95192 0.34972 0.04000
C 	C 	0.82040 0.75128 0.39072 0.03400
C 	C 	0.84972 0.78028 0.41808 0.03900
C 	C 	0.25128 0.32040 0.03760 0.00800
C 	C 	0.28028 0.34972 0.95192 0.04400
C 	C 	0.53760 0.39072 0.75128 0.03500
C 	C 	0.45192 0.41808 0.78028 0.04000
C 	C 	0.17960 0.60928 0.24872 0.03700
C 	C 	0.15028 0.58192 0.21972 0.04300
C 	C 	0.10928 0.67960 0.96240 0.06500
C 	C 	0.08192 0.65028 0.04808 0.04200
C 	C 	0.46240 0.24872 0.60928 0.03600
C 	C 	0.54808 0.21972 0.58192 0.04200
C 	C 	0.74872 0.96240 0.67960 0.05400
C 	C 	0.71972 0.04808 0.65028 0.03900
C 	C 	0.74872 0.60928 0.96240 0.06300
C 	C 	0.71972 0.58192 0.04808 0.03900
C 	C 	0.46240 0.67960 0.24872 0.03600
C 	C 	0.54808 0.65028 0.21972 0.04200
C 	C 	0.10928 0.24872 0.67960 0.03800
C 	C 	0.08192 0.21972 0.65028 0.04400
C 	C 	0.17960 0.96240 0.60928 0.05600
C 	C 	0.15028 0.04808 0.58192 0.04100
C 	C 	0.46240 0.60928 0.67960 0.03500
C 	C 	0.54808 0.58192 0.65028 0.04000
C 	C 	0.74872 0.67960 0.60928 0.03400
C 	C 	0.71972 0.65028 0.58192 0.04000
C 	C 	0.17960 0.24872 0.96240 0.06500
C 	C 	0.15028 0.21972 0.04808 0.04100
C 	C 	0.10928 0.96240 0.24872 0.05800
C 	C 	0.08192 0.04808 0.21972 0.04400
C 	C 	0.27190 0.77190 0.11610 0.04700
C 	C 	0.15870 0.65870 0.17390 -0.01000
C 	C 	0.10143 0.60143 0.29405 0.06600
C 	C 	0.27190 0.77190 0.84010 0.04100
C 	C 	0.15870 0.65870 0.00870 -0.03300
C 	C 	0.10143 0.60143 0.00309 -0.00200
C 	C 	0.61610 0.84010 0.77190 0.04100
C 	C 	0.67390 0.00870 0.65870 -0.02800
C 	C 	0.79405 0.00309 0.60143 0.01400
C 	C 	0.34010 0.11610 0.77190 0.04600
C 	C 	0.50870 0.17390 0.65870 -0.01100
C 	C 	0.50309 0.29405 0.60143 0.06300
C 	C 	0.27190 0.11610 0.84010 0.04400
C 	C 	0.15870 0.17390 0.00870 -0.03100
C 	C 	0.10143 0.29405 0.00309 -0.00100
C 	C 	0.27190 0.84010 0.11610 0.04600
C 	C 	0.15870 0.00870 0.17390 -0.02400
C 	C 	0.10143 0.00309 0.29405 0.02000
C 	C 	0.61610 0.77190 0.77190 0.04200
C 	C 	0.67390 0.65870 0.65870 -0.01300
C 	C 	0.79405 0.60143 0.60143 0.06100
C 	C 	0.34010 0.77190 0.77190 0.04200
C 	C 	0.50870 0.65870 0.65870 -0.01300
C 	C 	0.50309 0.60143 0.60143 0.06300
C 	C 	0.27190 0.84010 0.77190 0.04100
C 	C 	0.15870 0.00870 0.65870 -0.02700
C 	C 	0.10143 0.00309 0.60143 0.01900
C 	C 	0.27190 0.11610 0.77190 0.04600
C 	C 	0.15870 0.17390 0.65870 -0.01100
C 	C 	0.10143 0.29405 0.60143 0.06600
C 	C 	0.61610 0.77190 0.84010 0.04000
C 	C 	0.67390 0.65870 0.00870 -0.03400
C 	C 	0.79405 0.60143 0.00309 -0.00700
C 	C 	0.34010 0.77190 0.11610 0.04700
C 	C 	0.50870 0.65870 0.17390 -0.01100
C 	C 	0.50309 0.60143 0.29405 0.06300
C 	C 	0.72810 0.22810 0.88390 0.04200
C 	C 	0.84130 0.34130 0.82610 -0.01500
C 	C 	0.89857 0.39857 0.70595 0.06000
C 	C 	0.72810 0.22810 0.15990 0.04800
C 	C 	0.84130 0.34130 0.99130 0.00800
C 	C 	0.89857 0.39857 0.99691 0.12700
C 	C 	0.65990 0.88390 0.22810 0.04400
C 	C 	0.49130 0.82610 0.34130 -0.01300
C 	C 	0.49691 0.70595 0.39857 0.06300
C 	C 	0.38390 0.15990 0.22810 0.04900
C 	C 	0.32610 0.99130 0.34130 0.00300
C 	C 	0.20595 0.99691 0.39857 0.11100
C 	C 	0.38390 0.22810 0.15990 0.04900
C 	C 	0.32610 0.34130 0.99130 0.00900
C 	C 	0.20595 0.39857 0.99691 0.13100
C 	C 	0.65990 0.22810 0.88390 0.04200
C 	C 	0.49130 0.34130 0.82610 -0.01400
C 	C 	0.49691 0.39857 0.70595 0.06300
C 	C 	0.72810 0.88390 0.22810 0.04300
C 	C 	0.84130 0.82610 0.34130 -0.01400
C 	C 	0.89857 0.70595 0.39857 0.06000
C 	C 	0.72810 0.15990 0.22810 0.04800
C 	C 	0.84130 0.99130 0.34130 0.00200
C 	C 	0.89857 0.99691 0.39857 0.10700
C 	C 	0.65990 0.22810 0.22810 0.04700
C 	C 	0.49130 0.34130 0.34130 -0.01100
C 	C 	0.49691 0.39857 0.39857 0.06300
C 	C 	0.38390 0.22810 0.22810 0.04700
C 	C 	0.32610 0.34130 0.34130 -0.01100
C 	C 	0.20595 0.39857 0.39857 0.06500
C 	C 	0.72810 0.88390 0.15990 0.04500
C 	C 	0.84130 0.82610 0.99130 0.00700
C 	C 	0.89857 0.70595 0.99691 0.12700
C 	C 	0.72810 0.15990 0.88390 0.04300
C 	C 	0.84130 0.99130 0.82610 -0.00000
C 	C 	0.89857 0.99691 0.70595 0.10700
C 	C 	0.29510 0.72188 0.18792 0.00400
C 	C 	0.22188 0.79510 0.79510 0.00200
C 	C 	0.68792 0.79510 0.79510 0.00000
C 	C 	0.29510 0.18792 0.72188 0.00300
C 	C 	0.29510 0.18792 0.79510 0.00200
C 	C 	0.22188 0.79510 0.18792 0.00400
C 	C 	0.68792 0.79510 0.72188 0.00100
C 	C 	0.29510 0.72188 0.79510 0.00200
C 	C 	0.29510 0.79510 0.72188 0.00200
C 	C 	0.22188 0.18792 0.79510 0.00300
C 	C 	0.68792 0.72188 0.79510 0.00100
C 	C 	0.29510 0.79510 0.18792 0.00300
C 	C 	0.77812 0.20490 0.81208 0.00100
C 	C 	0.70490 0.27812 0.20490 0.00400
C 	C 	0.70490 0.81208 0.20490 0.00300
C 	C 	0.31208 0.20490 0.27812 0.00400
C 	C 	0.31208 0.20490 0.20490 0.00500
C 	C 	0.70490 0.27812 0.81208 0.00200
C 	C 	0.70490 0.81208 0.27812 0.00200
C 	C 	0.77812 0.20490 0.20490 0.00300
C 	C 	0.70490 0.20490 0.27812 0.00300
C 	C 	0.31208 0.27812 0.20490 0.00400
C 	C 	0.77812 0.81208 0.20490 0.00200
C 	C 	0.70490 0.20490 0.81208 0.00200
N 	N 	0.07946 0.64990 0.26548 -0.26200
N 	N 	0.14990 0.57946 0.00516 -0.26600
N 	N 	0.76548 0.00516 0.57946 -0.26200
N 	N 	0.50516 0.26548 0.64990 -0.25700
N 	N 	0.07946 0.26548 0.00516 -0.26800
N 	N 	0.14990 0.00516 0.26548 -0.26400
N 	N 	0.76548 0.57946 0.64990 -0.25600
N 	N 	0.50516 0.64990 0.57946 -0.25700
N 	N 	0.07946 0.00516 0.64990 -0.26500
N 	N 	0.14990 0.26548 0.57946 -0.25800
N 	N 	0.76548 0.64990 0.00516 -0.26400
N 	N 	0.50516 0.57946 0.26548 -0.25800
N 	N 	0.85010 0.42054 0.73452 -0.25600
N 	N 	0.92054 0.35010 0.99484 -0.24200
N 	N 	0.49484 0.73452 0.42054 -0.25700
N 	N 	0.23452 0.99484 0.35010 -0.25100
N 	N 	0.23452 0.42054 0.99484 -0.24700
N 	N 	0.49484 0.35010 0.73452 -0.25700
N 	N 	0.92054 0.73452 0.35010 -0.25400
N 	N 	0.85010 0.99484 0.42054 -0.24900
N 	N 	0.49484 0.42054 0.35010 -0.25800
N 	N 	0.23452 0.35010 0.42054 -0.25800
N 	N 	0.85010 0.73452 0.99484 -0.24500
N 	N 	0.92054 0.99484 0.73452 -0.24400
N 	N 	0.92054 0.35010 0.73452 -0.25200
N 	N 	0.85010 0.42054 0.99484 -0.24500
N 	N 	0.23452 0.99484 0.42054 -0.25100
N 	N 	0.49484 0.73452 0.35010 -0.25700
N 	N 	0.92054 0.73452 0.99484 -0.24100
N 	N 	0.85010 0.99484 0.73452 -0.24800
N 	N 	0.23452 0.42054 0.35010 -0.25800
N 	N 	0.49484 0.35010 0.42054 -0.25700
N 	N 	0.92054 0.99484 0.35010 -0.24700
N 	N 	0.85010 0.73452 0.42054 -0.25600
N 	N 	0.23452 0.35010 0.99484 -0.24800
N 	N 	0.49484 0.42054 0.73452 -0.25700
N 	N 	0.14990 0.57946 0.26548 -0.25900
N 	N 	0.07946 0.64990 0.00516 -0.26800
N 	N 	0.50516 0.26548 0.57946 -0.25700
N 	N 	0.76548 0.00516 0.64990 -0.26200
N 	N 	0.76548 0.57946 0.00516 -0.26400
N 	N 	0.50516 0.64990 0.26548 -0.25700
N 	N 	0.07946 0.26548 0.64990 -0.26000
N 	N 	0.14990 0.00516 0.57946 -0.26400
N 	N 	0.50516 0.57946 0.64990 -0.25700
N 	N 	0.76548 0.64990 0.57946 -0.25600
N 	N 	0.14990 0.26548 0.00516 -0.26600
N 	N 	0.07946 0.00516 0.26548 -0.26800
N 	N 	0.25355 0.75355 0.16853 -0.24200
N 	N 	0.15949 0.65949 0.21977 -0.25300
N 	N 	0.12862 0.62862 0.19386 -0.13100
N 	N 	0.25355 0.75355 0.82437 -0.23900
N 	N 	0.15949 0.65949 0.96125 -0.24400
N 	N 	0.12862 0.62862 0.04890 -0.12900
N 	N 	0.66853 0.82437 0.75355 -0.23800
N 	N 	0.71977 0.96125 0.65949 -0.24500
N 	N 	0.69386 0.04890 0.62862 -0.12700
N 	N 	0.32437 0.16853 0.75355 -0.24100
N 	N 	0.46125 0.21977 0.65949 -0.25200
N 	N 	0.54890 0.19386 0.62862 -0.12900
N 	N 	0.25355 0.16853 0.82437 -0.24000
N 	N 	0.15949 0.21977 0.96125 -0.24500
N 	N 	0.12862 0.19386 0.04890 -0.13000
N 	N 	0.25355 0.82437 0.16853 -0.24100
N 	N 	0.15949 0.96125 0.21977 -0.24800
N 	N 	0.12862 0.04890 0.19386 -0.13100
N 	N 	0.66853 0.75355 0.75355 -0.23900
N 	N 	0.71977 0.65949 0.65949 -0.25100
N 	N 	0.69386 0.62862 0.62862 -0.12700
N 	N 	0.32437 0.75355 0.75355 -0.24000
N 	N 	0.46125 0.65949 0.65949 -0.25100
N 	N 	0.54890 0.62862 0.62862 -0.12700
N 	N 	0.25355 0.82437 0.75355 -0.23900
N 	N 	0.15949 0.96125 0.65949 -0.24600
N 	N 	0.12862 0.04890 0.62862 -0.12900
N 	N 	0.25355 0.16853 0.75355 -0.24100
N 	N 	0.15949 0.21977 0.65949 -0.25300
N 	N 	0.12862 0.19386 0.62862 -0.13000
N 	N 	0.66853 0.75355 0.82437 -0.23800
N 	N 	0.71977 0.65949 0.96125 -0.24300
N 	N 	0.69386 0.62862 0.04890 -0.12700
N 	N 	0.32437 0.75355 0.16853 -0.24100
N 	N 	0.46125 0.65949 0.21977 -0.25200
N 	N 	0.54890 0.62862 0.19386 -0.12900
N 	N 	0.74645 0.24645 0.83147 -0.23900
N 	N 	0.84051 0.34051 0.78023 -0.25000
N 	N 	0.87138 0.37138 0.80614 -0.12500
N 	N 	0.74645 0.24645 0.17563 -0.24200
N 	N 	0.84051 0.34051 0.03875 -0.25900
N 	N 	0.87138 0.37138 0.95110 -0.12700
N 	N 	0.67563 0.83147 0.24645 -0.24000
N 	N 	0.53875 0.78023 0.34051 -0.25100
N 	N 	0.45110 0.80614 0.37138 -0.12800
N 	N 	0.33147 0.17563 0.24645 -0.24300
N 	N 	0.28023 0.03875 0.34051 -0.25800
N 	N 	0.30614 0.95110 0.37138 -0.12900
N 	N 	0.33147 0.24645 0.17563 -0.24300
N 	N 	0.28023 0.34051 0.03875 -0.26100
N 	N 	0.30614 0.37138 0.95110 -0.12900
N 	N 	0.67563 0.24645 0.83147 -0.24000
N 	N 	0.53875 0.34051 0.78023 -0.25100
N 	N 	0.45110 0.37138 0.80614 -0.12700
N 	N 	0.74645 0.83147 0.24645 -0.24000
N 	N 	0.84051 0.78023 0.34051 -0.25000
N 	N 	0.87138 0.80614 0.37138 -0.12600
N 	N 	0.74645 0.17563 0.24645 -0.24200
N 	N 	0.84051 0.03875 0.34051 -0.25700
N 	N 	0.87138 0.95110 0.37138 -0.12700
N 	N 	0.67563 0.24645 0.24645 -0.24100
N 	N 	0.53875 0.34051 0.34051 -0.25200
N 	N 	0.45110 0.37138 0.37138 -0.12900
N 	N 	0.33147 0.24645 0.24645 -0.24200
N 	N 	0.28023 0.34051 0.34051 -0.25300
N 	N 	0.30614 0.37138 0.37138 -0.12900
N 	N 	0.74645 0.83147 0.17563 -0.24100
N 	N 	0.84051 0.78023 0.03875 -0.25800
N 	N 	0.87138 0.80614 0.95110 -0.12600
N 	N 	0.74645 0.17563 0.83147 -0.24000
N 	N 	0.84051 0.03875 0.78023 -0.25600
N 	N 	0.87138 0.95110 0.80614 -0.12500
N 	N 	0.29960 0.79960 0.10120 -0.13800
N 	N 	0.29960 0.79960 0.79960 -0.13300
N 	N 	0.60120 0.79960 0.79960 -0.13200
N 	N 	0.29960 0.10120 0.79960 -0.13700
N 	N 	0.70040 0.20040 0.89880 -0.13300
N 	N 	0.70040 0.20040 0.20040 -0.13900
N 	N 	0.70040 0.89880 0.20040 -0.13500
N 	N 	0.39880 0.20040 0.20040 -0.14000
