data_crystal

_cell_length_a 15.83800
_cell_length_b 10.54800
_cell_length_c 21.07400
_cell_angle_alpha 90.00000
_cell_angle_beta  107.24700
_cell_angle_gamma 90.00000

_symmetry_space_group_name_	'P 1'
_symmetry_space_group_name_H-M	'P 1'

loop_
_symmetry_equiv_pos_as_xyz
  x,y,z

loop_
_atom_site_label
_atom_site_type_symbol
_atom_site_fract_x
_atom_site_fract_y
_atom_site_fract_z
_atom_site_charge
Nd	Nd	0.39920 0.08038 0.54667 2.27300
O 	O 	0.50460 0.92200 0.59300 -0.57200
O 	O 	0.65430 0.08730 0.53860 -0.50400
O 	O 	0.60950 0.82790 0.56030 -0.54200
O 	O 	0.54170 0.17170 0.56500 -0.60400
O 	O 	0.60700 0.06510 0.83690 -0.46700
O 	O 	0.68950 0.92910 0.90640 -0.42300
C 	C 	0.57730 0.86610 0.60430 0.50700
C 	C 	0.74860 0.72710 0.75420 0.04400
C 	C 	0.63050 0.84280 0.67580 -0.13900
N 	N 	0.81190 0.63190 0.76720 -0.07000
O 	O 	0.23920 0.86420 0.98960 -0.47900
C 	C 	0.69680 0.75110 0.69060 -0.01800
H 	H 	0.70640 0.70440 0.65600 0.04700
C 	C 	0.66650 0.89040 0.79150 -0.07600
C 	C 	0.61410 0.91270 0.72670 0.04700
H 	H 	0.56930 0.97300 0.71770 0.02500
O 	O 	0.19410 0.98870 0.90070 -0.25800
C 	C 	0.86480 0.59990 0.83420 -0.20000
H 	H 	0.88090 0.51110 0.83530 0.08800
H 	H 	0.82910 0.61140 0.86400 0.08800
C 	C 	0.70640 0.43220 0.69120 -0.28300
H 	H 	0.68850 0.47560 0.72330 0.13100
C 	C 	0.78340 0.46460 0.67900 0.21900
C 	C 	0.67990 0.26850 0.60830 -0.27900
C 	C 	0.62120 0.16840 0.56800 0.55900
C 	C 	0.96420 0.78430 0.82730 -0.22800
H 	H 	0.92250 0.80970 0.78810 0.12000
C 	C 	0.73220 0.79830 0.80500 -0.04900
H 	H 	0.76580 0.78390 0.84880 0.06300
C 	C 	0.94830 0.67800 0.85940 0.17500
C 	C 	0.10380 0.81820 0.90940 -0.20900
C 	C 	0.84070 0.57540 0.71420 -0.22400
H 	H 	0.90100 0.54590 0.73250 0.09800
H 	H 	0.84060 0.64030 0.68160 0.10100
C 	C 	0.04070 0.85480 0.85160 0.13800
H 	H 	0.04970 0.92690 0.82900 -0.00200
C 	C 	0.81090 0.39560 0.63310 -0.27700
H 	H 	0.86480 0.41500 0.62610 0.12200
C 	C 	0.65390 0.96570 0.84840 0.32800
C 	C 	0.18440 0.89280 0.93720 0.41900
C 	C 	0.65450 0.33410 0.65570 0.20400
H 	H 	0.60200 0.31290 0.66430 -0.05200
C 	C 	0.76050 0.29910 0.59750 0.19600
H 	H 	0.77980 0.25420 0.56650 -0.01900
C 	C 	0.01360 0.63960 0.91680 -0.22900
H 	H 	0.00510 0.56630 0.93870 0.10100
C 	C 	0.08980 0.70810 0.94130 0.13900
H 	H 	0.13250 0.68090 0.97950 -0.02000
Nd	Nd	0.60081 0.08038 0.95333 2.25900
O 	O 	0.49540 0.92200 0.90700 -0.56900
O 	O 	0.34570 0.08730 0.96140 -0.50600
O 	O 	0.39050 0.82790 0.93970 -0.54000
O 	O 	0.45830 0.17170 0.93500 -0.60400
O 	O 	0.39300 0.06510 0.66310 -0.46600
O 	O 	0.31050 0.92910 0.59360 -0.42400
C 	C 	0.42270 0.86610 0.89570 0.50500
C 	C 	0.25140 0.72710 0.74580 0.04500
C 	C 	0.36950 0.84280 0.82420 -0.13700
N 	N 	0.18810 0.63190 0.73280 -0.06900
O 	O 	0.76080 0.86420 0.51040 -0.48300
C 	C 	0.30320 0.75110 0.80940 -0.01900
H 	H 	0.29360 0.70440 0.84400 0.04700
C 	C 	0.33350 0.89040 0.70850 -0.07500
C 	C 	0.38590 0.91270 0.77330 0.04600
H 	H 	0.43070 0.97300 0.78230 0.02600
O 	O 	0.80590 0.98870 0.59930 -0.26000
C 	C 	0.13520 0.59990 0.66580 -0.20100
H 	H 	0.11910 0.51110 0.66470 0.08900
H 	H 	0.17090 0.61140 0.63600 0.08900
C 	C 	0.29360 0.43220 0.80880 -0.28300
H 	H 	0.31150 0.47560 0.77670 0.13200
C 	C 	0.21660 0.46460 0.82100 0.22000
C 	C 	0.32010 0.26850 0.89170 -0.27900
C 	C 	0.37880 0.16840 0.93200 0.55800
C 	C 	0.03580 0.78430 0.67270 -0.22500
H 	H 	0.07750 0.80970 0.71190 0.12000
C 	C 	0.26780 0.79830 0.69500 -0.05000
H 	H 	0.23420 0.78390 0.65120 0.06400
C 	C 	0.05170 0.67800 0.64060 0.17800
C 	C 	0.89620 0.81820 0.59060 -0.21000
C 	C 	0.15930 0.57540 0.78580 -0.22400
H 	H 	0.09900 0.54590 0.76750 0.09900
H 	H 	0.15940 0.64030 0.81840 0.10100
C 	C 	0.95930 0.85480 0.64840 0.13300
H 	H 	0.95030 0.92690 0.67100 -0.00200
C 	C 	0.18910 0.39560 0.86690 -0.27700
H 	H 	0.13520 0.41500 0.87390 0.12300
C 	C 	0.34610 0.96570 0.65160 0.32600
C 	C 	0.81560 0.89280 0.56280 0.42000
C 	C 	0.34550 0.33410 0.84430 0.20400
H 	H 	0.39800 0.31290 0.83570 -0.05200
C 	C 	0.23950 0.29910 0.90250 0.19700
H 	H 	0.22020 0.25420 0.93350 -0.02000
C 	C 	0.98640 0.63960 0.58320 -0.23400
H 	H 	0.99490 0.56630 0.56130 0.10200
C 	C 	0.91020 0.70810 0.55870 0.14000
H 	H 	0.86750 0.68090 0.52050 -0.02100
Nd	Nd	0.60081 0.91962 0.45333 2.27200
O 	O 	0.49540 0.07800 0.40700 -0.57300
O 	O 	0.34570 0.91270 0.46140 -0.50500
O 	O 	0.39050 0.17210 0.43970 -0.54300
O 	O 	0.45830 0.82830 0.43500 -0.60400
O 	O 	0.39300 0.93490 0.16310 -0.46700
O 	O 	0.31050 0.07090 0.09360 -0.42300
C 	C 	0.42270 0.13390 0.39570 0.50700
C 	C 	0.25140 0.27290 0.24580 0.04400
C 	C 	0.36950 0.15720 0.32420 -0.13900
N 	N 	0.18810 0.36810 0.23280 -0.07000
O 	O 	0.76080 0.13580 0.01040 -0.47900
C 	C 	0.30320 0.24890 0.30940 -0.01800
H 	H 	0.29360 0.29560 0.34400 0.04700
C 	C 	0.33350 0.10960 0.20850 -0.07600
C 	C 	0.38590 0.08730 0.27330 0.04700
H 	H 	0.43070 0.02700 0.28230 0.02500
O 	O 	0.80590 0.01130 0.09930 -0.25800
C 	C 	0.13520 0.40010 0.16580 -0.20000
H 	H 	0.11910 0.48890 0.16470 0.08800
H 	H 	0.17090 0.38860 0.13600 0.08800
C 	C 	0.29360 0.56780 0.30880 -0.28300
H 	H 	0.31150 0.52440 0.27670 0.13100
C 	C 	0.21660 0.53540 0.32100 0.21900
C 	C 	0.32010 0.73150 0.39170 -0.27900
C 	C 	0.37880 0.83160 0.43200 0.55900
C 	C 	0.03580 0.21570 0.17270 -0.22800
H 	H 	0.07750 0.19030 0.21190 0.12000
C 	C 	0.26780 0.20170 0.19500 -0.04900
H 	H 	0.23420 0.21610 0.15120 0.06300
C 	C 	0.05170 0.32200 0.14060 0.17500
C 	C 	0.89620 0.18180 0.09060 -0.20900
C 	C 	0.15930 0.42460 0.28580 -0.22400
H 	H 	0.09900 0.45410 0.26750 0.09800
H 	H 	0.15940 0.35970 0.31840 0.10100
C 	C 	0.95930 0.14520 0.14840 0.13800
H 	H 	0.95030 0.07310 0.17100 -0.00200
C 	C 	0.18910 0.60440 0.36690 -0.27700
H 	H 	0.13520 0.58500 0.37390 0.12200
C 	C 	0.34610 0.03430 0.15160 0.32800
C 	C 	0.81560 0.10720 0.06280 0.41900
C 	C 	0.34550 0.66590 0.34430 0.20400
H 	H 	0.39800 0.68710 0.33570 -0.05200
C 	C 	0.23950 0.70090 0.40250 0.19600
H 	H 	0.22020 0.74580 0.43350 -0.01900
C 	C 	0.98640 0.36040 0.08320 -0.22900
H 	H 	0.99490 0.43370 0.06130 0.10100
C 	C 	0.91020 0.29190 0.05870 0.13900
H 	H 	0.86750 0.31910 0.02050 -0.02000
Nd	Nd	0.39920 0.91962 0.04667 2.25900
O 	O 	0.50460 0.07800 0.09300 -0.56900
O 	O 	0.65430 0.91270 0.03860 -0.50600
O 	O 	0.60950 0.17210 0.06030 -0.54000
O 	O 	0.54170 0.82830 0.06500 -0.60400
O 	O 	0.60700 0.93490 0.33690 -0.46600
O 	O 	0.68950 0.07090 0.40640 -0.42400
C 	C 	0.57730 0.13390 0.10430 0.50500
C 	C 	0.74860 0.27290 0.25420 0.04500
C 	C 	0.63050 0.15720 0.17580 -0.13700
N 	N 	0.81190 0.36810 0.26720 -0.06900
O 	O 	0.23920 0.13580 0.48960 -0.48300
C 	C 	0.69680 0.24890 0.19060 -0.01900
H 	H 	0.70640 0.29560 0.15600 0.04700
C 	C 	0.66650 0.10960 0.29150 -0.07500
C 	C 	0.61410 0.08730 0.22670 0.04600
H 	H 	0.56930 0.02700 0.21770 0.02600
O 	O 	0.19410 0.01130 0.40070 -0.26000
C 	C 	0.86480 0.40010 0.33420 -0.20100
H 	H 	0.88090 0.48890 0.33530 0.08900
H 	H 	0.82910 0.38860 0.36400 0.08900
C 	C 	0.70640 0.56780 0.19120 -0.28300
H 	H 	0.68850 0.52440 0.22330 0.13200
C 	C 	0.78340 0.53540 0.17900 0.22000
C 	C 	0.67990 0.73150 0.10830 -0.27900
C 	C 	0.62120 0.83160 0.06800 0.55800
C 	C 	0.96420 0.21570 0.32730 -0.22500
H 	H 	0.92250 0.19030 0.28810 0.12000
C 	C 	0.73220 0.20170 0.30500 -0.05000
H 	H 	0.76580 0.21610 0.34880 0.06400
C 	C 	0.94830 0.32200 0.35940 0.17800
C 	C 	0.10380 0.18180 0.40940 -0.21000
C 	C 	0.84070 0.42460 0.21420 -0.22400
H 	H 	0.90100 0.45410 0.23250 0.09900
H 	H 	0.84060 0.35970 0.18160 0.10100
C 	C 	0.04070 0.14520 0.35160 0.13300
H 	H 	0.04970 0.07310 0.32900 -0.00200
C 	C 	0.81090 0.60440 0.13310 -0.27700
H 	H 	0.86480 0.58500 0.12610 0.12300
C 	C 	0.65390 0.03430 0.34840 0.32600
C 	C 	0.18440 0.10720 0.43720 0.42000
C 	C 	0.65450 0.66590 0.15570 0.20400
H 	H 	0.60200 0.68710 0.16430 -0.05200
C 	C 	0.76050 0.70090 0.09750 0.19700
H 	H 	0.77980 0.74580 0.06650 -0.02000
C 	C 	0.01360 0.36040 0.41680 -0.23400
H 	H 	0.00510 0.43370 0.43870 0.10200
C 	C 	0.08980 0.29190 0.44130 0.14000
H 	H 	0.13250 0.31910 0.47950 -0.02100
