data_crystal

_cell_length_a 15.83700
_cell_length_b 10.56800
_cell_length_c 21.09900
_cell_angle_alpha 90.00000
_cell_angle_beta  107.09800
_cell_angle_gamma 90.00000

_symmetry_space_group_name_	'P 1'
_symmetry_space_group_name_H-M	'P 1'

loop_
_symmetry_equiv_pos_as_xyz
  x,y,z

loop_
_atom_site_label
_atom_site_type_symbol
_atom_site_fract_x
_atom_site_fract_y
_atom_site_fract_z
_atom_site_charge
Pr	Pr	0.39919 0.08118 0.54697 2.06700
O 	O 	0.54280 0.17220 0.56460 -0.55100
O 	O 	0.50530 0.92180 0.59280 -0.51800
O 	O 	0.39010 0.17270 0.43960 -0.49700
O 	O 	0.23800 0.13620 0.48930 -0.45600
O 	O 	0.34440 0.91270 0.46130 -0.45800
O 	O 	0.39310 0.06440 0.66380 -0.44200
O 	O 	0.30980 0.92900 0.59400 -0.39700
C 	C 	0.57850 0.86500 0.60420 0.43300
C 	C 	0.63110 0.84280 0.67590 -0.09200
C 	C 	0.69730 0.75010 0.69060 -0.04700
C 	C 	0.61470 0.91170 0.72660 0.01300
C 	C 	0.74840 0.72620 0.75410 0.06600
H 	H 	0.70690 0.70320 0.65610 0.06200
C 	C 	0.66720 0.88960 0.79130 -0.05000
H 	H 	0.56960 0.97140 0.71780 0.04400
C 	C 	0.73260 0.79800 0.80440 -0.06800
N 	N 	0.81180 0.63100 0.76680 -0.07600
C 	C 	0.65350 0.96590 0.84750 0.30300
H 	H 	0.76670 0.78440 0.84790 0.07300
C 	C 	0.86500 0.59940 0.83390 -0.19500
C 	C 	0.84120 0.57520 0.71400 -0.20500
C 	C 	0.94790 0.67680 0.85890 0.16600
H 	H 	0.88110 0.51070 0.83520 0.08800
H 	H 	0.82920 0.61090 0.86380 0.08800
H 	H 	0.84090 0.64000 0.68130 0.09600
C 	C 	0.78430 0.46430 0.67920 0.18900
H 	H 	0.90160 0.54620 0.73230 0.09300
C 	C 	0.96360 0.78300 0.82710 -0.21400
C 	C 	0.01250 0.63920 0.91660 -0.21200
C 	C 	0.70690 0.43190 0.69080 -0.23600
C 	C 	0.81210 0.39640 0.63350 -0.23500
H 	H 	0.92200 0.80800 0.78800 0.11600
C 	C 	0.03990 0.85450 0.85140 0.11800
C 	C 	0.08870 0.70810 0.94130 0.11800
H 	H 	0.00380 0.56630 0.93870 0.09600
C 	C 	0.65470 0.33320 0.65580 0.15200
H 	H 	0.68840 0.47600 0.72260 0.11700
C 	C 	0.76080 0.29900 0.59760 0.15100
H 	H 	0.86590 0.41590 0.62640 0.11000
C 	C 	0.10270 0.81730 0.90940 -0.18200
H 	H 	0.04890 0.92660 0.82890 0.00600
H 	H 	0.13110 0.68140 0.97960 -0.00800
C 	C 	0.68090 0.26790 0.60830 -0.22000
H 	H 	0.60230 0.31180 0.66460 -0.02700
H 	H 	0.78000 0.25460 0.56640 0.00300
C 	C 	0.18420 0.89100 0.93710 0.38800
C 	C 	0.62220 0.16890 0.56780 0.48100
O 	O 	0.19320 0.98850 0.90080 -0.24500
Pr	Pr	0.60081 0.08118 0.95303 2.06500
O 	O 	0.45720 0.17220 0.93540 -0.55300
O 	O 	0.49470 0.92180 0.90720 -0.51700
O 	O 	0.60990 0.17270 0.06040 -0.49700
O 	O 	0.76200 0.13620 0.01070 -0.45500
O 	O 	0.65560 0.91270 0.03870 -0.46100
O 	O 	0.60690 0.06440 0.83620 -0.44500
O 	O 	0.69020 0.92900 0.90600 -0.39800
C 	C 	0.42150 0.86500 0.89580 0.43200
C 	C 	0.36890 0.84280 0.82410 -0.09200
C 	C 	0.30270 0.75010 0.80940 -0.04700
C 	C 	0.38530 0.91170 0.77340 0.01300
C 	C 	0.25160 0.72620 0.74590 0.06600
H 	H 	0.29310 0.70320 0.84390 0.06200
C 	C 	0.33280 0.88960 0.70870 -0.04900
H 	H 	0.43040 0.97140 0.78220 0.04500
C 	C 	0.26740 0.79800 0.69560 -0.06900
N 	N 	0.18820 0.63100 0.73320 -0.07500
C 	C 	0.34650 0.96590 0.65250 0.30100
H 	H 	0.23330 0.78440 0.65210 0.07400
C 	C 	0.13500 0.59940 0.66610 -0.19600
C 	C 	0.15880 0.57520 0.78600 -0.20500
C 	C 	0.05210 0.67680 0.64110 0.16900
H 	H 	0.11890 0.51070 0.66480 0.08900
H 	H 	0.17080 0.61090 0.63620 0.08900
H 	H 	0.15910 0.64000 0.81870 0.09700
C 	C 	0.21570 0.46430 0.82080 0.19000
H 	H 	0.09840 0.54620 0.76770 0.09400
C 	C 	0.03640 0.78300 0.67290 -0.21000
C 	C 	0.98750 0.63920 0.58340 -0.21600
C 	C 	0.29310 0.43190 0.80920 -0.23700
C 	C 	0.18790 0.39640 0.86650 -0.23600
H 	H 	0.07800 0.80800 0.71200 0.11600
C 	C 	0.96010 0.85450 0.64860 0.11400
C 	C 	0.91130 0.70810 0.55870 0.11900
H 	H 	0.99620 0.56630 0.56130 0.09700
C 	C 	0.34530 0.33320 0.84420 0.15300
H 	H 	0.31160 0.47600 0.77740 0.11800
C 	C 	0.23920 0.29900 0.90240 0.15100
H 	H 	0.13410 0.41590 0.87360 0.11000
C 	C 	0.89730 0.81730 0.59060 -0.18200
H 	H 	0.95110 0.92660 0.67110 0.00700
H 	H 	0.86890 0.68140 0.52040 -0.00900
C 	C 	0.31910 0.26790 0.89170 -0.22100
H 	H 	0.39770 0.31180 0.83540 -0.02700
H 	H 	0.22000 0.25460 0.93360 0.00200
C 	C 	0.81580 0.89100 0.56290 0.38800
C 	C 	0.37780 0.16890 0.93220 0.48200
O 	O 	0.80680 0.98850 0.59920 -0.24700
Pr	Pr	0.60081 0.91882 0.45303 2.06600
O 	O 	0.45720 0.82780 0.43540 -0.55200
O 	O 	0.49470 0.07820 0.40720 -0.51900
O 	O 	0.60990 0.82730 0.56040 -0.49800
O 	O 	0.76200 0.86380 0.51070 -0.45700
O 	O 	0.65560 0.08730 0.53870 -0.45900
O 	O 	0.60690 0.93560 0.33620 -0.44300
O 	O 	0.69020 0.07100 0.40600 -0.39800
C 	C 	0.42150 0.13500 0.39580 0.43200
C 	C 	0.36890 0.15720 0.32410 -0.09300
C 	C 	0.30270 0.24990 0.30940 -0.04700
C 	C 	0.38530 0.08830 0.27340 0.01300
C 	C 	0.25160 0.27380 0.24590 0.06600
H 	H 	0.29310 0.29680 0.34390 0.06200
C 	C 	0.33280 0.11040 0.20870 -0.05000
H 	H 	0.43040 0.02860 0.28220 0.04400
C 	C 	0.26740 0.20200 0.19560 -0.06800
N 	N 	0.18820 0.36900 0.23320 -0.07600
C 	C 	0.34650 0.03410 0.15250 0.30300
H 	H 	0.23330 0.21560 0.15210 0.07300
C 	C 	0.13500 0.40060 0.16610 -0.19500
C 	C 	0.15880 0.42480 0.28600 -0.20500
C 	C 	0.05210 0.32320 0.14110 0.16600
H 	H 	0.11890 0.48930 0.16480 0.08800
H 	H 	0.17080 0.38910 0.13620 0.08800
H 	H 	0.15910 0.36000 0.31870 0.09600
C 	C 	0.21570 0.53570 0.32080 0.18900
H 	H 	0.09840 0.45380 0.26770 0.09300
C 	C 	0.03640 0.21700 0.17290 -0.21400
C 	C 	0.98750 0.36080 0.08340 -0.21200
C 	C 	0.29310 0.56810 0.30920 -0.23600
C 	C 	0.18790 0.60360 0.36650 -0.23500
H 	H 	0.07800 0.19200 0.21200 0.11600
C 	C 	0.96010 0.14550 0.14860 0.11800
C 	C 	0.91130 0.29190 0.05870 0.11800
H 	H 	0.99620 0.43370 0.06130 0.09600
C 	C 	0.34530 0.66680 0.34420 0.15200
H 	H 	0.31160 0.52400 0.27740 0.11700
C 	C 	0.23920 0.70100 0.40240 0.15100
H 	H 	0.13410 0.58410 0.37360 0.11000
C 	C 	0.89730 0.18270 0.09060 -0.18200
H 	H 	0.95110 0.07340 0.17110 0.00600
H 	H 	0.86890 0.31860 0.02040 -0.00800
C 	C 	0.31910 0.73210 0.39170 -0.22000
H 	H 	0.39770 0.68820 0.33540 -0.02700
H 	H 	0.22000 0.74540 0.43360 0.00300
C 	C 	0.81580 0.10900 0.06290 0.38800
C 	C 	0.37780 0.83110 0.43220 0.48100
O 	O 	0.80680 0.01150 0.09920 -0.24500
Pr	Pr	0.39919 0.91882 0.04697 2.06500
O 	O 	0.54280 0.82780 0.06460 -0.55300
O 	O 	0.50530 0.07820 0.09280 -0.51700
O 	O 	0.39010 0.82730 0.93960 -0.49700
O 	O 	0.23800 0.86380 0.98930 -0.45500
O 	O 	0.34440 0.08730 0.96130 -0.46100
O 	O 	0.39310 0.93560 0.16380 -0.44500
O 	O 	0.30980 0.07100 0.09400 -0.39800
C 	C 	0.57850 0.13500 0.10420 0.43200
C 	C 	0.63110 0.15720 0.17590 -0.09200
C 	C 	0.69730 0.24990 0.19060 -0.04700
C 	C 	0.61470 0.08830 0.22660 0.01300
C 	C 	0.74840 0.27380 0.25410 0.06600
H 	H 	0.70690 0.29680 0.15610 0.06200
C 	C 	0.66720 0.11040 0.29130 -0.04900
H 	H 	0.56960 0.02860 0.21780 0.04500
C 	C 	0.73260 0.20200 0.30440 -0.06900
N 	N 	0.81180 0.36900 0.26680 -0.07500
C 	C 	0.65350 0.03410 0.34750 0.30100
H 	H 	0.76670 0.21560 0.34790 0.07400
C 	C 	0.86500 0.40060 0.33390 -0.19600
C 	C 	0.84120 0.42480 0.21400 -0.20500
C 	C 	0.94790 0.32320 0.35890 0.16900
H 	H 	0.88110 0.48930 0.33520 0.08900
H 	H 	0.82920 0.38910 0.36380 0.08900
H 	H 	0.84090 0.36000 0.18130 0.09700
C 	C 	0.78430 0.53570 0.17920 0.19000
H 	H 	0.90160 0.45380 0.23230 0.09400
C 	C 	0.96360 0.21700 0.32710 -0.21000
C 	C 	0.01250 0.36080 0.41660 -0.21600
C 	C 	0.70690 0.56810 0.19080 -0.23700
C 	C 	0.81210 0.60360 0.13350 -0.23600
H 	H 	0.92200 0.19200 0.28800 0.11600
C 	C 	0.03990 0.14550 0.35140 0.11400
C 	C 	0.08870 0.29190 0.44130 0.11900
H 	H 	0.00380 0.43370 0.43870 0.09700
C 	C 	0.65470 0.66680 0.15580 0.15300
H 	H 	0.68840 0.52400 0.22260 0.11800
C 	C 	0.76080 0.70100 0.09760 0.15100
H 	H 	0.86590 0.58410 0.12640 0.11000
C 	C 	0.10270 0.18270 0.40940 -0.18200
H 	H 	0.04890 0.07340 0.32890 0.00700
H 	H 	0.13110 0.31860 0.47960 -0.00900
C 	C 	0.68090 0.73210 0.10830 -0.22100
H 	H 	0.60230 0.68820 0.16460 -0.02700
H 	H 	0.78000 0.74540 0.06640 0.00200
C 	C 	0.18420 0.10900 0.43710 0.38800
C 	C 	0.62220 0.83110 0.06780 0.48200
O 	O 	0.19320 0.01150 0.40080 -0.24700
