data_crystal

_cell_length_a 15.85800
_cell_length_b 10.52200
_cell_length_c 20.97000
_cell_angle_alpha 90.00000
_cell_angle_beta  107.52000
_cell_angle_gamma 90.00000

_symmetry_space_group_name_	'P 1'
_symmetry_space_group_name_H-M	'P 1'

loop_
_symmetry_equiv_pos_as_xyz
  x,y,z

loop_
_atom_site_label
_atom_site_type_symbol
_atom_site_fract_x
_atom_site_fract_y
_atom_site_fract_z
_atom_site_charge
C 	C 	0.74870 0.72790 0.75510 0.05000
C 	C 	0.69650 0.75270 0.68900 -0.02700
H 	H 	0.70680 0.70810 0.65380 0.05000
C 	C 	0.62940 0.84370 0.67600 -0.12500
C 	C 	0.61330 0.91380 0.72720 0.03300
H 	H 	0.56850 0.97420 0.71820 0.03300
C 	C 	0.66620 0.89120 0.79200 -0.06300
C 	C 	0.73120 0.80020 0.80630 -0.05800
H 	H 	0.76430 0.78600 0.85050 0.06600
C 	C 	0.65400 0.96830 0.84950 0.31400
C 	C 	0.57600 0.86650 0.60400 0.48400
C 	C 	0.86460 0.60150 0.83560 -0.20100
H 	H 	0.87950 0.51190 0.83750 0.08800
H 	H 	0.82960 0.61580 0.86570 0.08900
C 	C 	0.94950 0.67850 0.85970 0.17900
C 	C 	0.96520 0.78480 0.82720 -0.23400
H 	H 	0.92300 0.81050 0.78800 0.12300
C 	C 	0.04170 0.85430 0.85110 0.14400
H 	H 	0.05100 0.92570 0.82790 -0.00400
C 	C 	0.10460 0.81780 0.90940 -0.21200
C 	C 	0.09140 0.70980 0.94140 0.14600
H 	H 	0.13460 0.68300 0.97980 -0.02000
C 	C 	0.01500 0.64050 0.91740 -0.23300
H 	H 	0.00690 0.56740 0.93980 0.10300
C 	C 	0.18730 0.89300 0.93730 0.42500
C 	C 	0.83970 0.57770 0.71380 -0.21400
H 	H 	0.90050 0.54960 0.73160 0.09600
H 	H 	0.83780 0.64320 0.68090 0.09800
C 	C 	0.78310 0.46610 0.67940 0.19800
C 	C 	0.70550 0.43210 0.69190 -0.25700
H 	H 	0.68770 0.47550 0.72430 0.12400
C 	C 	0.65360 0.33400 0.65670 0.18400
H 	H 	0.60120 0.31300 0.66550 -0.04000
C 	C 	0.67860 0.26790 0.60940 -0.25500
C 	C 	0.61940 0.16790 0.56900 0.53600
C 	C 	0.75870 0.29810 0.59760 0.16900
H 	H 	0.77780 0.25110 0.56700 -0.00600
C 	C 	0.80920 0.39840 0.63170 -0.24800
H 	H 	0.86110 0.42050 0.62250 0.11400
N 	N 	0.81160 0.63270 0.76810 -0.07200
O 	O 	0.24130 0.86560 0.98970 -0.46900
O 	O 	0.19540 0.98980 0.90110 -0.25900
O 	O 	0.60560 0.06570 0.83790 -0.44600
O 	O 	0.50240 0.92140 0.59300 -0.54000
O 	O 	0.60840 0.83070 0.55940 -0.52200
O 	O 	0.68890 0.92920 0.90840 -0.40000
O 	O 	0.54030 0.17010 0.56640 -0.57600
O 	O 	0.65260 0.08740 0.53860 -0.47700
Sm	Sm	0.39932 0.07927 0.54608 2.11000
C 	C 	0.25130 0.72790 0.74490 0.05200
C 	C 	0.30350 0.75270 0.81100 -0.02700
H 	H 	0.29320 0.70810 0.84620 0.05100
C 	C 	0.37060 0.84370 0.82400 -0.12300
C 	C 	0.38670 0.91380 0.77280 0.03300
H 	H 	0.43150 0.97420 0.78180 0.03500
C 	C 	0.33380 0.89120 0.70800 -0.06100
C 	C 	0.26880 0.80020 0.69370 -0.05800
H 	H 	0.23570 0.78600 0.64950 0.06700
C 	C 	0.34600 0.96830 0.65050 0.31300
C 	C 	0.42400 0.86650 0.89600 0.48400
C 	C 	0.13540 0.60150 0.66440 -0.20200
H 	H 	0.12050 0.51190 0.66250 0.09000
H 	H 	0.17040 0.61580 0.63430 0.09000
C 	C 	0.05050 0.67850 0.64030 0.18200
C 	C 	0.03480 0.78480 0.67280 -0.23100
H 	H 	0.07700 0.81050 0.71200 0.12200
C 	C 	0.95830 0.85430 0.64890 0.14000
H 	H 	0.94900 0.92570 0.67210 -0.00400
C 	C 	0.89540 0.81780 0.59060 -0.21200
C 	C 	0.90860 0.70980 0.55860 0.14700
H 	H 	0.86540 0.68300 0.52020 -0.02100
C 	C 	0.98500 0.64050 0.58260 -0.23800
H 	H 	0.99310 0.56740 0.56020 0.10400
C 	C 	0.81270 0.89300 0.56270 0.42500
C 	C 	0.16030 0.57770 0.78620 -0.21500
H 	H 	0.09950 0.54960 0.76840 0.09700
H 	H 	0.16220 0.64320 0.81910 0.09900
C 	C 	0.21690 0.46610 0.82060 0.19800
C 	C 	0.29450 0.43210 0.80810 -0.25700
H 	H 	0.31230 0.47550 0.77570 0.12400
C 	C 	0.34640 0.33400 0.84330 0.18400
H 	H 	0.39880 0.31300 0.83450 -0.04000
C 	C 	0.32140 0.26790 0.89060 -0.25500
C 	C 	0.38060 0.16790 0.93100 0.53500
C 	C 	0.24130 0.29810 0.90240 0.16900
H 	H 	0.22220 0.25110 0.93300 -0.00700
C 	C 	0.19080 0.39840 0.86830 -0.24900
H 	H 	0.13890 0.42050 0.87750 0.11400
N 	N 	0.18840 0.63270 0.73190 -0.07100
O 	O 	0.75870 0.86560 0.51030 -0.47300
O 	O 	0.80460 0.98980 0.59890 -0.26100
O 	O 	0.39440 0.06570 0.66210 -0.44500
O 	O 	0.49760 0.92140 0.90700 -0.53600
O 	O 	0.39160 0.83070 0.94060 -0.51900
O 	O 	0.31110 0.92920 0.59160 -0.40100
O 	O 	0.45970 0.17010 0.93360 -0.57500
O 	O 	0.34740 0.08740 0.96140 -0.47800
Sm	Sm	0.60068 0.07927 0.95392 2.09900
C 	C 	0.25130 0.27210 0.24490 0.05100
C 	C 	0.30350 0.24730 0.31100 -0.02600
H 	H 	0.29320 0.29190 0.34620 0.05100
C 	C 	0.37060 0.15630 0.32400 -0.12400
C 	C 	0.38670 0.08620 0.27280 0.03400
H 	H 	0.43150 0.02580 0.28180 0.03400
C 	C 	0.33380 0.10880 0.20800 -0.06200
C 	C 	0.26880 0.19980 0.19370 -0.05700
H 	H 	0.23570 0.21400 0.14950 0.06700
C 	C 	0.34600 0.03170 0.15050 0.31500
C 	C 	0.42400 0.13350 0.39600 0.48500
C 	C 	0.13540 0.39850 0.16440 -0.20000
H 	H 	0.12050 0.48810 0.16250 0.08900
H 	H 	0.17040 0.38420 0.13430 0.09000
C 	C 	0.05050 0.32150 0.14030 0.17900
C 	C 	0.03480 0.21520 0.17280 -0.23400
H 	H 	0.07700 0.18950 0.21200 0.12300
C 	C 	0.95830 0.14570 0.14890 0.14400
H 	H 	0.94900 0.07430 0.17210 -0.00400
C 	C 	0.89540 0.18220 0.09060 -0.21200
C 	C 	0.90860 0.29020 0.05860 0.14600
H 	H 	0.86540 0.31700 0.02020 -0.02000
C 	C 	0.98500 0.35950 0.08260 -0.23300
H 	H 	0.99310 0.43260 0.06020 0.10300
C 	C 	0.81270 0.10700 0.06270 0.42500
C 	C 	0.16030 0.42230 0.28620 -0.21400
H 	H 	0.09950 0.45040 0.26840 0.09600
H 	H 	0.16220 0.35680 0.31910 0.09800
C 	C 	0.21690 0.53390 0.32060 0.19800
C 	C 	0.29450 0.56790 0.30810 -0.25700
H 	H 	0.31230 0.52450 0.27570 0.12400
C 	C 	0.34640 0.66600 0.34330 0.18400
H 	H 	0.39880 0.68700 0.33450 -0.04000
C 	C 	0.32140 0.73210 0.39060 -0.25500
C 	C 	0.38060 0.83210 0.43100 0.53600
C 	C 	0.24130 0.70190 0.40240 0.16900
H 	H 	0.22220 0.74890 0.43300 -0.00600
C 	C 	0.19080 0.60160 0.36830 -0.24800
H 	H 	0.13890 0.57950 0.37750 0.11400
N 	N 	0.18840 0.36730 0.23190 -0.07200
O 	O 	0.75870 0.13440 0.01030 -0.46900
O 	O 	0.80460 0.01020 0.09890 -0.25900
O 	O 	0.39440 0.93430 0.16210 -0.44600
O 	O 	0.49760 0.07860 0.40700 -0.54000
O 	O 	0.39160 0.16930 0.44060 -0.52200
O 	O 	0.31110 0.07080 0.09160 -0.40000
O 	O 	0.45970 0.82990 0.43360 -0.57600
O 	O 	0.34740 0.91260 0.46140 -0.47700
Sm	Sm	0.60068 0.92073 0.45392 2.11000
C 	C 	0.74870 0.27210 0.25510 0.05200
C 	C 	0.69650 0.24730 0.18900 -0.02700
H 	H 	0.70680 0.29190 0.15380 0.05100
C 	C 	0.62940 0.15630 0.17600 -0.12300
C 	C 	0.61330 0.08620 0.22720 0.03300
H 	H 	0.56850 0.02580 0.21820 0.03500
C 	C 	0.66620 0.10880 0.29200 -0.06100
C 	C 	0.73120 0.19980 0.30630 -0.05800
H 	H 	0.76430 0.21400 0.35050 0.06700
C 	C 	0.65400 0.03170 0.34950 0.31300
C 	C 	0.57600 0.13350 0.10400 0.48400
C 	C 	0.86460 0.39850 0.33560 -0.20200
H 	H 	0.87950 0.48810 0.33750 0.09000
H 	H 	0.82960 0.38420 0.36570 0.09000
C 	C 	0.94950 0.32150 0.35970 0.18200
C 	C 	0.96520 0.21520 0.32720 -0.23100
H 	H 	0.92300 0.18950 0.28800 0.12200
C 	C 	0.04170 0.14570 0.35110 0.14000
H 	H 	0.05100 0.07430 0.32790 -0.00400
C 	C 	0.10460 0.18220 0.40940 -0.21200
C 	C 	0.09140 0.29020 0.44140 0.14700
H 	H 	0.13460 0.31700 0.47980 -0.02100
C 	C 	0.01500 0.35950 0.41740 -0.23800
H 	H 	0.00690 0.43260 0.43980 0.10400
C 	C 	0.18730 0.10700 0.43730 0.42500
C 	C 	0.83970 0.42230 0.21380 -0.21500
H 	H 	0.90050 0.45040 0.23160 0.09700
H 	H 	0.83780 0.35680 0.18090 0.09900
C 	C 	0.78310 0.53390 0.17940 0.19800
C 	C 	0.70550 0.56790 0.19190 -0.25700
H 	H 	0.68770 0.52450 0.22430 0.12400
C 	C 	0.65360 0.66600 0.15670 0.18400
H 	H 	0.60120 0.68700 0.16550 -0.04000
C 	C 	0.67860 0.73210 0.10940 -0.25500
C 	C 	0.61940 0.83210 0.06900 0.53500
C 	C 	0.75870 0.70190 0.09760 0.16900
H 	H 	0.77780 0.74890 0.06700 -0.00700
C 	C 	0.80920 0.60160 0.13170 -0.24900
H 	H 	0.86110 0.57950 0.12250 0.11400
N 	N 	0.81160 0.36730 0.26810 -0.07100
O 	O 	0.24130 0.13440 0.48970 -0.47300
O 	O 	0.19540 0.01020 0.40110 -0.26100
O 	O 	0.60560 0.93430 0.33790 -0.44500
O 	O 	0.50240 0.07860 0.09300 -0.53600
O 	O 	0.60840 0.16930 0.05940 -0.51900
O 	O 	0.68890 0.07080 0.40840 -0.40100
O 	O 	0.54030 0.82990 0.06640 -0.57500
O 	O 	0.65260 0.91260 0.03860 -0.47800
Sm	Sm	0.39932 0.92073 0.04608 2.09900
