data_crystal

_cell_length_a 15.89400
_cell_length_b 10.49100
_cell_length_c 20.90900
_cell_angle_alpha 90.00000
_cell_angle_beta  107.84100
_cell_angle_gamma 90.00000

_symmetry_space_group_name_	'P 1'
_symmetry_space_group_name_H-M	'P 1'

loop_
_symmetry_equiv_pos_as_xyz
  x,y,z

loop_
_atom_site_label
_atom_site_type_symbol
_atom_site_fract_x
_atom_site_fract_y
_atom_site_fract_z
_atom_site_charge
C 	C 	0.86610 0.60250 0.83610 -0.19700
H 	H 	0.88150 0.51280 0.83780 0.09100
H 	H 	0.83140 0.61570 0.86650 0.09200
C 	C 	0.95040 0.68030 0.86060 0.17600
C 	C 	0.01580 0.64100 0.91750 -0.22000
H 	H 	0.00800 0.56730 0.93970 0.10100
C 	C 	0.09320 0.71090 0.94180 0.12600
H 	H 	0.13680 0.68360 0.98010 -0.00700
C 	C 	0.10590 0.82060 0.90950 -0.19000
C 	C 	0.04230 0.85680 0.85120 0.12700
H 	H 	0.05110 0.92820 0.82770 0.00200
C 	C 	0.96490 0.78650 0.82760 -0.22200
H 	H 	0.92200 0.81230 0.78850 0.11900
C 	C 	0.18760 0.89480 0.93650 0.39200
C 	C 	0.74820 0.72820 0.75580 0.06200
C 	C 	0.73150 0.80100 0.80700 -0.06800
H 	H 	0.76550 0.78750 0.85130 0.07200
C 	C 	0.66600 0.89190 0.79280 -0.04700
C 	C 	0.61300 0.91430 0.72780 0.01200
H 	H 	0.56800 0.97460 0.71880 0.04800
C 	C 	0.62880 0.84430 0.67600 -0.09300
C 	C 	0.69560 0.75390 0.68940 -0.04200
H 	H 	0.70590 0.70950 0.65400 0.06000
C 	C 	0.57500 0.86730 0.60370 0.43300
C 	C 	0.65310 0.96840 0.85090 0.30600
C 	C 	0.83880 0.57700 0.71490 -0.20800
H 	H 	0.89920 0.54720 0.73320 0.09500
H 	H 	0.83820 0.64240 0.68200 0.09800
C 	C 	0.70520 0.43280 0.69260 -0.23800
H 	H 	0.68830 0.47620 0.72540 0.12100
C 	C 	0.78200 0.46730 0.67970 0.18800
C 	C 	0.65280 0.33480 0.65750 0.15800
H 	H 	0.60070 0.31380 0.66650 -0.02000
C 	C 	0.67730 0.26860 0.60950 -0.21900
C 	C 	0.61790 0.16710 0.56880 0.47900
C 	C 	0.75550 0.29830 0.59780 0.15000
H 	H 	0.77390 0.25080 0.56700 0.00400
C 	C 	0.80740 0.39890 0.63180 -0.23100
H 	H 	0.85910 0.42040 0.62230 0.10900
N 	N 	0.81190 0.63350 0.76840 -0.07300
O 	O 	0.60510 0.06650 0.83880 -0.38500
O 	O 	0.53930 0.16860 0.56790 -0.48200
O 	O 	0.65100 0.08730 0.53860 -0.40900
O 	O 	0.60720 0.83130 0.55930 -0.44000
O 	O 	0.50090 0.92050 0.59250 -0.45300
O 	O 	0.68840 0.92990 0.90950 -0.35200
O 	O 	0.19640 0.99070 0.89960 -0.24500
O 	O 	0.24330 0.86640 0.98920 -0.40200
Gd	Gd	0.39937 0.07818 0.54554 1.63300
C 	C 	0.13390 0.60250 0.66390 -0.20000
H 	H 	0.11850 0.51280 0.66220 0.09100
H 	H 	0.16860 0.61570 0.63350 0.09200
C 	C 	0.04960 0.68030 0.63940 0.17700
C 	C 	0.98420 0.64100 0.58250 -0.22500
H 	H 	0.99200 0.56730 0.56030 0.10100
C 	C 	0.90680 0.71090 0.55820 0.12600
H 	H 	0.86320 0.68360 0.51990 -0.00900
C 	C 	0.89410 0.82060 0.59050 -0.19200
C 	C 	0.95770 0.85680 0.64880 0.12400
H 	H 	0.94890 0.92820 0.67230 0.00300
C 	C 	0.03510 0.78650 0.67240 -0.21900
H 	H 	0.07800 0.81230 0.71150 0.11900
C 	C 	0.81240 0.89480 0.56350 0.39300
C 	C 	0.25180 0.72820 0.74420 0.06200
C 	C 	0.26850 0.80100 0.69300 -0.06800
H 	H 	0.23450 0.78750 0.64870 0.07200
C 	C 	0.33400 0.89190 0.70720 -0.04600
C 	C 	0.38700 0.91430 0.77220 0.01100
H 	H 	0.43200 0.97460 0.78120 0.04900
C 	C 	0.37120 0.84430 0.82400 -0.09200
C 	C 	0.30440 0.75390 0.81060 -0.04300
H 	H 	0.29410 0.70950 0.84600 0.06000
C 	C 	0.42500 0.86730 0.89630 0.43200
C 	C 	0.34690 0.96840 0.64910 0.30500
C 	C 	0.16120 0.57700 0.78510 -0.20900
H 	H 	0.10080 0.54720 0.76680 0.09600
H 	H 	0.16180 0.64240 0.81800 0.09800
C 	C 	0.29480 0.43280 0.80740 -0.23800
H 	H 	0.31170 0.47620 0.77460 0.12200
C 	C 	0.21800 0.46730 0.82030 0.18900
C 	C 	0.34720 0.33480 0.84250 0.15800
H 	H 	0.39930 0.31380 0.83350 -0.02100
C 	C 	0.32270 0.26860 0.89050 -0.21900
C 	C 	0.38210 0.16710 0.93120 0.47900
C 	C 	0.24450 0.29830 0.90220 0.15000
H 	H 	0.22610 0.25080 0.93300 0.00400
C 	C 	0.19260 0.39890 0.86820 -0.23100
H 	H 	0.14090 0.42040 0.87770 0.11000
N 	N 	0.18810 0.63350 0.73160 -0.07300
O 	O 	0.39490 0.06650 0.66120 -0.38500
O 	O 	0.46070 0.16860 0.93210 -0.48200
O 	O 	0.34900 0.08730 0.96140 -0.41000
O 	O 	0.39280 0.83130 0.94070 -0.43700
O 	O 	0.49910 0.92050 0.90750 -0.45100
O 	O 	0.31160 0.92990 0.59050 -0.35300
O 	O 	0.80360 0.99070 0.60040 -0.24700
O 	O 	0.75670 0.86640 0.51080 -0.40400
Gd	Gd	0.60062 0.07818 0.95446 1.62500
C 	C 	0.13390 0.39750 0.16390 -0.19800
H 	H 	0.11850 0.48720 0.16220 0.09000
H 	H 	0.16860 0.38430 0.13350 0.09100
C 	C 	0.04960 0.31970 0.13940 0.17500
C 	C 	0.98420 0.35900 0.08250 -0.22100
H 	H 	0.99200 0.43270 0.06030 0.10000
C 	C 	0.90680 0.28910 0.05820 0.12500
H 	H 	0.86320 0.31640 0.01990 -0.00800
C 	C 	0.89410 0.17940 0.09050 -0.19100
C 	C 	0.95770 0.14320 0.14880 0.12700
H 	H 	0.94890 0.07180 0.17230 0.00200
C 	C 	0.03510 0.21350 0.17240 -0.22200
H 	H 	0.07800 0.18770 0.21150 0.11900
C 	C 	0.81240 0.10520 0.06350 0.39200
C 	C 	0.25180 0.27180 0.24420 0.06200
C 	C 	0.26850 0.19900 0.19300 -0.06800
H 	H 	0.23450 0.21250 0.14870 0.07200
C 	C 	0.33400 0.10810 0.20720 -0.04700
C 	C 	0.38700 0.08570 0.27220 0.01200
H 	H 	0.43200 0.02540 0.28120 0.04800
C 	C 	0.37120 0.15570 0.32400 -0.09300
C 	C 	0.30440 0.24610 0.31060 -0.04200
H 	H 	0.29410 0.29050 0.34600 0.06000
C 	C 	0.42500 0.13270 0.39630 0.43300
C 	C 	0.34690 0.03160 0.14910 0.30600
C 	C 	0.16120 0.42300 0.28510 -0.20800
H 	H 	0.10080 0.45280 0.26680 0.09500
H 	H 	0.16180 0.35760 0.31800 0.09800
C 	C 	0.29480 0.56720 0.30740 -0.23800
H 	H 	0.31170 0.52380 0.27460 0.12100
C 	C 	0.21800 0.53270 0.32030 0.18800
C 	C 	0.34720 0.66520 0.34250 0.15800
H 	H 	0.39930 0.68620 0.33350 -0.02000
C 	C 	0.32270 0.73140 0.39050 -0.21900
C 	C 	0.38210 0.83290 0.43120 0.47900
C 	C 	0.24450 0.70170 0.40220 0.15000
H 	H 	0.22610 0.74920 0.43300 0.00400
C 	C 	0.19260 0.60110 0.36820 -0.23100
H 	H 	0.14090 0.57960 0.37770 0.10900
N 	N 	0.18810 0.36650 0.23160 -0.07300
O 	O 	0.39490 0.93350 0.16120 -0.38600
O 	O 	0.46070 0.83140 0.43210 -0.48200
O 	O 	0.34900 0.91270 0.46140 -0.40900
O 	O 	0.39280 0.16870 0.44070 -0.44000
O 	O 	0.49910 0.07950 0.40750 -0.45300
O 	O 	0.31160 0.07010 0.09050 -0.35200
O 	O 	0.80360 0.00930 0.10040 -0.24500
O 	O 	0.75670 0.13360 0.01080 -0.40200
Gd	Gd	0.60062 0.92182 0.45446 1.63300
C 	C 	0.86610 0.39750 0.33610 -0.20000
H 	H 	0.88150 0.48720 0.33780 0.09100
H 	H 	0.83140 0.38430 0.36650 0.09200
C 	C 	0.95040 0.31970 0.36060 0.17700
C 	C 	0.01580 0.35900 0.41750 -0.22500
H 	H 	0.00800 0.43270 0.43970 0.10100
C 	C 	0.09320 0.28910 0.44180 0.12600
H 	H 	0.13680 0.31640 0.48010 -0.00900
C 	C 	0.10590 0.17940 0.40950 -0.19200
C 	C 	0.04230 0.14320 0.35120 0.12400
H 	H 	0.05110 0.07180 0.32770 0.00300
C 	C 	0.96490 0.21350 0.32760 -0.21900
H 	H 	0.92200 0.18770 0.28850 0.11900
C 	C 	0.18760 0.10520 0.43650 0.39300
C 	C 	0.74820 0.27180 0.25580 0.06200
C 	C 	0.73150 0.19900 0.30700 -0.06800
H 	H 	0.76550 0.21250 0.35130 0.07200
C 	C 	0.66600 0.10810 0.29280 -0.04600
C 	C 	0.61300 0.08570 0.22780 0.01100
H 	H 	0.56800 0.02540 0.21880 0.04900
C 	C 	0.62880 0.15570 0.17600 -0.09200
C 	C 	0.69560 0.24610 0.18940 -0.04300
H 	H 	0.70590 0.29050 0.15400 0.06000
C 	C 	0.57500 0.13270 0.10370 0.43200
C 	C 	0.65310 0.03160 0.35090 0.30500
C 	C 	0.83880 0.42300 0.21490 -0.20900
H 	H 	0.89920 0.45280 0.23320 0.09600
H 	H 	0.83820 0.35760 0.18200 0.09800
C 	C 	0.70520 0.56720 0.19260 -0.23800
H 	H 	0.68830 0.52380 0.22540 0.12200
C 	C 	0.78200 0.53270 0.17970 0.18900
C 	C 	0.65280 0.66520 0.15750 0.15800
H 	H 	0.60070 0.68620 0.16650 -0.02100
C 	C 	0.67730 0.73140 0.10950 -0.21900
C 	C 	0.61790 0.83290 0.06880 0.47900
C 	C 	0.75550 0.70170 0.09780 0.15000
H 	H 	0.77390 0.74920 0.06700 0.00400
C 	C 	0.80740 0.60110 0.13180 -0.23100
H 	H 	0.85910 0.57960 0.12230 0.11000
N 	N 	0.81190 0.36650 0.26840 -0.07300
O 	O 	0.60510 0.93350 0.33880 -0.38500
O 	O 	0.53930 0.83140 0.06790 -0.48200
O 	O 	0.65100 0.91270 0.03860 -0.41000
O 	O 	0.60720 0.16870 0.05930 -0.43700
O 	O 	0.50090 0.07950 0.09250 -0.45100
O 	O 	0.68840 0.07010 0.40950 -0.35300
O 	O 	0.19640 0.00930 0.39960 -0.24700
O 	O 	0.24330 0.13360 0.48920 -0.40400
Gd	Gd	0.39937 0.92182 0.04554 1.62500
