data_crystal

_cell_length_a 36.63500
_cell_length_b 36.63500
_cell_length_c 12.12780
_cell_angle_alpha 90.00000
_cell_angle_beta  90.00000
_cell_angle_gamma 120.00000

_symmetry_space_group_name_	'P 1'
_symmetry_space_group_name_H-M	'P 1'

loop_
_symmetry_equiv_pos_as_xyz
  x,y,z

loop_
_atom_site_label
_atom_site_type_symbol
_atom_site_fract_x
_atom_site_fract_y
_atom_site_fract_z
_atom_site_charge
Zn	Zn	0.13530 0.64883 0.44334 1.21000
O 	O 	0.02813 0.78912 0.88858 -0.49400
O 	O 	0.96874 0.75506 0.98846 -0.32200
O 	O 	0.45711 0.85566 0.44246 -0.49400
O 	O 	0.44375 0.85205 0.26110 -0.33100
N 	N 	0.11048 0.65662 0.30567 -0.27400
N 	N 	0.11055 0.63838 0.20819 -0.21700
H 	H 	0.12110 0.62170 0.19890 0.12800
N 	N 	0.19361 0.73058 0.54656 -0.22200
H 	H 	0.17280 0.72820 0.58790 0.13300
N 	N 	0.19031 0.70045 0.47568 -0.27200
C 	C 	0.05985 0.69701 0.12000 0.18300
C 	C 	0.00453 0.76274 0.96230 0.35600
C 	C 	0.02390 0.73993 0.01850 -0.16700
C 	C 	0.06258 0.74588 0.98250 0.08900
H 	H 	0.07700 0.76480 0.92370 0.00400
C 	C 	0.08004 0.72418 0.03220 -0.20900
H 	H 	0.10610 0.72790 0.00620 0.09900
C 	C 	0.02137 0.69162 0.15690 -0.21700
H 	H 	0.00740 0.67340 0.21730 0.09800
C 	C 	0.00332 0.71267 0.10560 0.09000
H 	H 	0.97690 0.70840 0.13020 0.00200
C 	C 	0.07982 0.67546 0.17510 -0.26500
C 	C 	0.09161 0.67915 0.28630 0.27300
C 	C 	0.09242 0.64910 0.12760 0.28900
C 	C 	0.08589 0.70450 0.37440 -0.66200
H 	H 	0.07140 0.71860 0.34350 0.21400
H 	H 	0.06900 0.68580 0.43450 0.21000
H 	H 	0.11350 0.72570 0.40290 0.19800
C 	C 	0.08819 0.63318 0.01230 -0.65400
H 	H 	0.07420 0.64470 0.96690 0.21200
H 	H 	0.11620 0.64210 0.98210 0.21700
H 	H 	0.07140 0.60230 0.01230 0.20600
C 	C 	0.43265 0.84710 0.35920 0.36600
C 	C 	0.38667 0.82756 0.38710 -0.18000
C 	C 	0.37363 0.82370 0.49630 0.11000
H 	H 	0.39390 0.83600 0.55340 -0.00300
C 	C 	0.33130 0.80205 0.52210 -0.21700
H 	H 	0.32290 0.80010 0.59700 0.09300
C 	C 	0.30065 0.78301 0.44080 0.19200
C 	C 	0.31400 0.78876 0.33120 -0.23300
H 	H 	0.29370 0.77730 0.27370 0.10600
C 	C 	0.35661 0.81099 0.30520 0.11100
H 	H 	0.36510 0.81480 0.23010 -0.01200
C 	C 	0.25574 0.75639 0.46960 -0.27300
C 	C 	0.23253 0.76456 0.54600 0.30300
C 	C 	0.22817 0.71597 0.42810 0.26800
C 	C 	0.24384 0.80185 0.61670 -0.69600
H 	H 	0.27340 0.82310 0.60440 0.22700
H 	H 	0.22590 0.81370 0.59780 0.22400
H 	H 	0.23970 0.79330 0.69430 0.23300
C 	C 	0.23599 0.68923 0.34770 -0.65200
H 	H 	0.23570 0.66580 0.38710 0.20500
H 	H 	0.26350 0.70640 0.31230 0.21200
H 	H 	0.21380 0.67810 0.29140 0.19500
Zn	Zn	0.80197 0.98216 0.77667 1.21100
O 	O 	0.69480 0.12245 0.22191 -0.49300
O 	O 	0.63541 0.08839 0.32179 -0.32200
O 	O 	0.12378 0.18899 0.77579 -0.49200
O 	O 	0.11042 0.18538 0.59443 -0.33000
N 	N 	0.77715 0.98995 0.63900 -0.27300
N 	N 	0.77722 0.97171 0.54152 -0.21700
H 	H 	0.78777 0.95503 0.53223 0.12900
N 	N 	0.86028 0.06391 0.87989 -0.22100
H 	H 	0.83947 0.06153 0.92123 0.13300
N 	N 	0.85698 0.03378 0.80901 -0.27200
C 	C 	0.72652 0.03034 0.45333 0.18600
C 	C 	0.67120 0.09607 0.29563 0.36000
C 	C 	0.69057 0.07326 0.35183 -0.17200
C 	C 	0.72925 0.07921 0.31583 0.09600
H 	H 	0.74367 0.09813 0.25703 0.00200
C 	C 	0.74671 0.05751 0.36553 -0.21500
H 	H 	0.77277 0.06123 0.33953 0.10000
C 	C 	0.68804 0.02495 0.49023 -0.22000
H 	H 	0.67407 0.00673 0.55063 0.09900
C 	C 	0.66999 0.04600 0.43893 0.09200
H 	H 	0.64357 0.04173 0.46353 0.00100
C 	C 	0.74649 0.00879 0.50843 -0.26700
C 	C 	0.75828 0.01248 0.61963 0.27400
C 	C 	0.75909 0.98243 0.46093 0.29300
C 	C 	0.75256 0.03783 0.70773 -0.66300
H 	H 	0.73807 0.05193 0.67683 0.21500
H 	H 	0.73567 0.01913 0.76783 0.21100
H 	H 	0.78017 0.05903 0.73623 0.19900
C 	C 	0.75486 0.96651 0.34563 -0.66500
H 	H 	0.74087 0.97803 0.30023 0.21600
H 	H 	0.78287 0.97543 0.31543 0.22100
H 	H 	0.73807 0.93563 0.34563 0.20900
C 	C 	0.09932 0.18043 0.69253 0.36600
C 	C 	0.05334 0.16089 0.72043 -0.17900
C 	C 	0.04030 0.15703 0.82963 0.10800
H 	H 	0.06057 0.16933 0.88673 -0.00200
C 	C 	0.99797 0.13538 0.85543 -0.21500
H 	H 	0.98957 0.13343 0.93033 0.09300
C 	C 	0.96732 0.11634 0.77413 0.19100
C 	C 	0.98067 0.12209 0.66453 -0.23200
H 	H 	0.96037 0.11063 0.60703 0.10500
C 	C 	0.02328 0.14432 0.63853 0.10900
H 	H 	0.03177 0.14813 0.56343 -0.01100
C 	C 	0.92241 0.08972 0.80293 -0.27200
C 	C 	0.89920 0.09789 0.87933 0.30100
C 	C 	0.89484 0.04930 0.76143 0.26700
C 	C 	0.91051 0.13518 0.95003 -0.69100
H 	H 	0.94007 0.15643 0.93773 0.22600
H 	H 	0.89257 0.14703 0.93113 0.22300
H 	H 	0.90637 0.12663 0.02763 0.23000
C 	C 	0.90266 0.02256 0.68103 -0.65100
H 	H 	0.90237 0.99913 0.72043 0.20400
H 	H 	0.93017 0.03973 0.64563 0.21200
H 	H 	0.88047 0.01143 0.62473 0.19400
Zn	Zn	0.46863 0.31550 0.11001 1.21100
O 	O 	0.36146 0.45579 0.55525 -0.49300
O 	O 	0.30207 0.42173 0.65513 -0.32200
O 	O 	0.79044 0.52233 0.10913 -0.49200
O 	O 	0.77708 0.51872 0.92777 -0.32900
N 	N 	0.44381 0.32329 0.97234 -0.27300
N 	N 	0.44388 0.30505 0.87486 -0.21700
H 	H 	0.45443 0.28837 0.86557 0.12900
N 	N 	0.52694 0.39725 0.21323 -0.22200
H 	H 	0.50613 0.39487 0.25457 0.13300
N 	N 	0.52364 0.36712 0.14235 -0.27300
C 	C 	0.39318 0.36368 0.78667 0.18600
C 	C 	0.33786 0.42941 0.62897 0.36000
C 	C 	0.35723 0.40660 0.68517 -0.17200
C 	C 	0.39591 0.41255 0.64917 0.09600
H 	H 	0.41033 0.43147 0.59037 0.00200
C 	C 	0.41337 0.39085 0.69887 -0.21500
H 	H 	0.43943 0.39457 0.67287 0.10000
C 	C 	0.35470 0.35829 0.82357 -0.22000
H 	H 	0.34073 0.34007 0.88397 0.09900
C 	C 	0.33665 0.37934 0.77227 0.09200
H 	H 	0.31023 0.37507 0.79687 0.00100
C 	C 	0.41315 0.34213 0.84177 -0.26700
C 	C 	0.42494 0.34582 0.95297 0.27400
C 	C 	0.42575 0.31577 0.79427 0.29300
C 	C 	0.41922 0.37117 0.04107 -0.66300
H 	H 	0.40473 0.38527 0.01017 0.21500
H 	H 	0.40233 0.35247 0.10117 0.21100
H 	H 	0.44683 0.39237 0.06957 0.19900
C 	C 	0.42152 0.29985 0.67897 -0.66500
H 	H 	0.40753 0.31137 0.63357 0.21600
H 	H 	0.44953 0.30877 0.64877 0.22100
H 	H 	0.40473 0.26897 0.67897 0.20900
C 	C 	0.76598 0.51377 0.02587 0.36500
C 	C 	0.72000 0.49423 0.05377 -0.18100
C 	C 	0.70696 0.49037 0.16297 0.11100
H 	H 	0.72723 0.50267 0.22007 -0.00300
C 	C 	0.66463 0.46872 0.18877 -0.21700
H 	H 	0.65623 0.46677 0.26367 0.09300
C 	C 	0.63398 0.44968 0.10747 0.19100
C 	C 	0.64733 0.45543 0.99787 -0.23200
H 	H 	0.62703 0.44397 0.94037 0.10600
C 	C 	0.68994 0.47766 0.97187 0.11200
H 	H 	0.69843 0.48147 0.89677 -0.01200
C 	C 	0.58907 0.42306 0.13627 -0.27400
C 	C 	0.56586 0.43123 0.21267 0.30300
C 	C 	0.56150 0.38264 0.09477 0.27000
C 	C 	0.57717 0.46852 0.28337 -0.69700
H 	H 	0.60673 0.48977 0.27107 0.22700
H 	H 	0.55923 0.48037 0.26447 0.22400
H 	H 	0.57303 0.45997 0.36097 0.23300
C 	C 	0.56932 0.35590 0.01437 -0.66200
H 	H 	0.56903 0.33247 0.05377 0.20700
H 	H 	0.59683 0.37307 0.97897 0.21600
H 	H 	0.54713 0.34477 0.95807 0.19800
Zn	Zn	0.35117 0.48647 0.44334 1.21100
O 	O 	0.21088 0.23901 0.88858 -0.49300
O 	O 	0.24494 0.21368 0.98846 -0.32200
O 	O 	0.14434 0.60145 0.44246 -0.49300
O 	O 	0.14795 0.59170 0.26110 -0.33000
N 	N 	0.34338 0.45386 0.30567 -0.27300
N 	N 	0.36162 0.47217 0.20819 -0.21600
H 	H 	0.37830 0.49940 0.19890 0.12900
N 	N 	0.26942 0.46303 0.54656 -0.22200
H 	H 	0.27180 0.44460 0.58790 0.13300
N 	N 	0.29955 0.48986 0.47568 -0.27200
C 	C 	0.30299 0.36284 0.12000 0.18500
C 	C 	0.23726 0.24179 0.96230 0.35900
C 	C 	0.26007 0.28397 0.01850 -0.17100
C 	C 	0.25412 0.31670 0.98250 0.09500
H 	H 	0.23520 0.31220 0.92370 0.00200
C 	C 	0.27582 0.35586 0.03220 -0.21300
H 	H 	0.27210 0.37820 0.00620 0.10000
C 	C 	0.30838 0.32975 0.15690 -0.21900
H 	H 	0.32660 0.33400 0.21730 0.09900
C 	C 	0.28733 0.29065 0.10560 0.09100
H 	H 	0.29160 0.26850 0.13020 0.00200
C 	C 	0.32454 0.40436 0.17510 -0.26600
C 	C 	0.32085 0.41246 0.28630 0.27300
C 	C 	0.35090 0.44332 0.12760 0.29100
C 	C 	0.29550 0.38139 0.37440 -0.66200
H 	H 	0.28140 0.35280 0.34350 0.21400
H 	H 	0.31420 0.38320 0.43450 0.21000
H 	H 	0.27430 0.38780 0.40290 0.19800
C 	C 	0.36682 0.45501 0.01230 -0.66000
H 	H 	0.35530 0.42950 0.96690 0.21400
H 	H 	0.35790 0.47410 0.98210 0.21900
H 	H 	0.39770 0.46910 0.01230 0.20700
C 	C 	0.15290 0.58555 0.35920 0.36600
C 	C 	0.17244 0.55911 0.38710 -0.18000
C 	C 	0.17630 0.54993 0.49630 0.11000
H 	H 	0.16400 0.55790 0.55340 -0.00300
C 	C 	0.19795 0.52925 0.52210 -0.21700
H 	H 	0.19990 0.52280 0.59700 0.09300
C 	C 	0.21699 0.51764 0.44080 0.19200
C 	C 	0.21124 0.52524 0.33120 -0.23300
H 	H 	0.22270 0.51640 0.27370 0.10600
C 	C 	0.18901 0.54562 0.30520 0.11100
H 	H 	0.18520 0.55030 0.23010 -0.01200
C 	C 	0.24361 0.49935 0.46960 -0.27300
C 	C 	0.23544 0.46797 0.54600 0.30300
C 	C 	0.28403 0.51220 0.42810 0.26800
C 	C 	0.19815 0.44199 0.61670 -0.69600
H 	H 	0.17690 0.45030 0.60440 0.22700
H 	H 	0.18630 0.41220 0.59780 0.22400
H 	H 	0.20670 0.44640 0.69430 0.23300
C 	C 	0.31077 0.54676 0.34770 -0.65200
H 	H 	0.33420 0.56990 0.38710 0.20500
H 	H 	0.29360 0.55710 0.31230 0.21200
H 	H 	0.32190 0.53570 0.29140 0.19500
Zn	Zn	0.01784 0.81980 0.77667 1.21100
O 	O 	0.87755 0.57234 0.22191 -0.49300
O 	O 	0.91161 0.54701 0.32179 -0.32200
O 	O 	0.81101 0.93478 0.77579 -0.49300
O 	O 	0.81462 0.92503 0.59443 -0.33000
N 	N 	0.01005 0.78719 0.63900 -0.27300
N 	N 	0.02829 0.80550 0.54152 -0.21700
H 	H 	0.04497 0.83273 0.53223 0.12900
N 	N 	0.93609 0.79636 0.87989 -0.22200
H 	H 	0.93847 0.77793 0.92123 0.13300
N 	N 	0.96622 0.82319 0.80901 -0.27200
C 	C 	0.96966 0.69617 0.45333 0.18600
C 	C 	0.90393 0.57512 0.29563 0.36000
C 	C 	0.92674 0.61730 0.35183 -0.17200
C 	C 	0.92079 0.65003 0.31583 0.09600
H 	H 	0.90187 0.64553 0.25703 0.00200
C 	C 	0.94249 0.68919 0.36553 -0.21500
H 	H 	0.93877 0.71153 0.33953 0.10000
C 	C 	0.97505 0.66308 0.49023 -0.22000
H 	H 	0.99327 0.66733 0.55063 0.09900
C 	C 	0.95400 0.62398 0.43893 0.09200
H 	H 	0.95827 0.60183 0.46353 0.00100
C 	C 	0.99121 0.73769 0.50843 -0.26700
C 	C 	0.98752 0.74579 0.61963 0.27400
C 	C 	0.01757 0.77665 0.46093 0.29300
C 	C 	0.96217 0.71472 0.70773 -0.66300
H 	H 	0.94807 0.68613 0.67683 0.21500
H 	H 	0.98087 0.71653 0.76783 0.21100
H 	H 	0.94097 0.72113 0.73623 0.19900
C 	C 	0.03349 0.78834 0.34563 -0.66500
H 	H 	0.02197 0.76283 0.30023 0.21600
H 	H 	0.02457 0.80743 0.31543 0.22100
H 	H 	0.06437 0.80243 0.34563 0.20900
C 	C 	0.81957 0.91888 0.69253 0.36600
C 	C 	0.83911 0.89244 0.72043 -0.18000
C 	C 	0.84297 0.88326 0.82963 0.11000
H 	H 	0.83067 0.89123 0.88673 -0.00300
C 	C 	0.86462 0.86258 0.85543 -0.21700
H 	H 	0.86657 0.85613 0.93033 0.09300
C 	C 	0.88366 0.85097 0.77413 0.19200
C 	C 	0.87791 0.85857 0.66453 -0.23300
H 	H 	0.88937 0.84973 0.60703 0.10600
C 	C 	0.85568 0.87895 0.63853 0.11100
H 	H 	0.85187 0.88363 0.56343 -0.01100
C 	C 	0.91028 0.83268 0.80293 -0.27300
C 	C 	0.90211 0.80130 0.87933 0.30200
C 	C 	0.95070 0.84553 0.76143 0.26800
C 	C 	0.86482 0.77532 0.95003 -0.69500
H 	H 	0.84357 0.78363 0.93773 0.22600
H 	H 	0.85297 0.74553 0.93113 0.22300
H 	H 	0.87337 0.77973 0.02763 0.23200
C 	C 	0.97744 0.88009 0.68103 -0.65100
H 	H 	0.00087 0.90323 0.72043 0.20400
H 	H 	0.96027 0.89043 0.64563 0.21200
H 	H 	0.98857 0.86903 0.62473 0.19400
Zn	Zn	0.68450 0.15314 0.11001 1.21000
O 	O 	0.54421 0.90568 0.55525 -0.49300
O 	O 	0.57827 0.88035 0.65513 -0.32200
O 	O 	0.47767 0.26812 0.10913 -0.49200
O 	O 	0.48128 0.25837 0.92777 -0.32900
N 	N 	0.67671 0.12053 0.97234 -0.27300
N 	N 	0.69495 0.13884 0.87486 -0.21700
H 	H 	0.71163 0.16607 0.86557 0.12900
N 	N 	0.60275 0.12970 0.21323 -0.22200
H 	H 	0.60513 0.11127 0.25457 0.13300
N 	N 	0.63288 0.15653 0.14235 -0.27300
C 	C 	0.63632 0.02951 0.78667 0.18800
C 	C 	0.57059 0.90846 0.62897 0.36000
C 	C 	0.59340 0.95064 0.68517 -0.17300
C 	C 	0.58745 0.98337 0.64917 0.09700
H 	H 	0.56853 0.97887 0.59037 0.00200
C 	C 	0.60915 0.02253 0.69887 -0.21500
H 	H 	0.60543 0.04487 0.67287 0.10000
C 	C 	0.64171 0.99642 0.82357 -0.22300
H 	H 	0.65993 0.00067 0.88397 0.10100
C 	C 	0.62066 0.95732 0.77227 0.09300
H 	H 	0.62493 0.93517 0.79687 0.00100
C 	C 	0.65787 0.07103 0.84177 -0.26800
C 	C 	0.65418 0.07913 0.95297 0.27500
C 	C 	0.68423 0.10999 0.79427 0.29300
C 	C 	0.62883 0.04806 0.04107 -0.66500
H 	H 	0.61473 0.01947 0.01017 0.21500
H 	H 	0.64753 0.04987 0.10117 0.21100
H 	H 	0.60763 0.05447 0.06957 0.19900
C 	C 	0.70015 0.12168 0.67897 -0.66500
H 	H 	0.68863 0.09617 0.63357 0.21600
H 	H 	0.69123 0.14077 0.64877 0.22100
H 	H 	0.73103 0.13577 0.67897 0.20900
C 	C 	0.48623 0.25222 0.02587 0.36500
C 	C 	0.50577 0.22578 0.05377 -0.18100
C 	C 	0.50963 0.21660 0.16297 0.11100
H 	H 	0.49733 0.22457 0.22007 -0.00300
C 	C 	0.53128 0.19592 0.18877 -0.21700
H 	H 	0.53323 0.18947 0.26367 0.09300
C 	C 	0.55032 0.18431 0.10747 0.19100
C 	C 	0.54457 0.19191 0.99787 -0.23200
H 	H 	0.55603 0.18307 0.94037 0.10600
C 	C 	0.52234 0.21229 0.97187 0.11200
H 	H 	0.51853 0.21697 0.89677 -0.01200
C 	C 	0.57694 0.16602 0.13627 -0.27400
C 	C 	0.56877 0.13464 0.21267 0.30300
C 	C 	0.61736 0.17887 0.09477 0.27100
C 	C 	0.53148 0.10866 0.28337 -0.69700
H 	H 	0.51023 0.11697 0.27107 0.22700
H 	H 	0.51963 0.07887 0.26447 0.22400
H 	H 	0.54003 0.11307 0.36097 0.23300
C 	C 	0.64410 0.21343 0.01437 -0.66400
H 	H 	0.66753 0.23657 0.05377 0.20800
H 	H 	0.62693 0.22377 0.97897 0.21700
H 	H 	0.65523 0.20237 0.95807 0.19900
Zn	Zn	0.51353 0.86470 0.44334 1.21100
O 	O 	0.76099 0.97187 0.88858 -0.49300
O 	O 	0.78632 0.03126 0.98846 -0.32100
O 	O 	0.39855 0.54289 0.44246 -0.49300
O 	O 	0.40830 0.55625 0.26110 -0.33000
N 	N 	0.54614 0.88952 0.30567 -0.27300
N 	N 	0.52783 0.88945 0.20819 -0.21600
H 	H 	0.50060 0.87890 0.19890 0.12900
N 	N 	0.53697 0.80639 0.54656 -0.22200
H 	H 	0.55540 0.82720 0.58790 0.13300
N 	N 	0.51014 0.80969 0.47568 -0.27200
C 	C 	0.63716 0.94015 0.12000 0.18400
C 	C 	0.75821 0.99547 0.96230 0.35800
C 	C 	0.71603 0.97610 0.01850 -0.17000
C 	C 	0.68330 0.93742 0.98250 0.09300
H 	H 	0.68780 0.92300 0.92370 0.00300
C 	C 	0.64414 0.91996 0.03220 -0.21200
H 	H 	0.62180 0.89390 0.00620 0.10000
C 	C 	0.67025 0.97863 0.15690 -0.21900
H 	H 	0.66600 0.99260 0.21730 0.09900
C 	C 	0.70935 0.99668 0.10560 0.09100
H 	H 	0.73150 0.02310 0.13020 0.00100
C 	C 	0.59564 0.92018 0.17510 -0.26500
C 	C 	0.58754 0.90839 0.28630 0.27300
C 	C 	0.55668 0.90758 0.12760 0.29000
C 	C 	0.61861 0.91411 0.37440 -0.66200
H 	H 	0.64720 0.92860 0.34350 0.21400
H 	H 	0.61680 0.93100 0.43450 0.21000
H 	H 	0.61220 0.88650 0.40290 0.19800
C 	C 	0.54499 0.91181 0.01230 -0.65600
H 	H 	0.57050 0.92580 0.96690 0.21300
H 	H 	0.52590 0.88380 0.98210 0.21800
H 	H 	0.53090 0.92860 0.01230 0.20700
C 	C 	0.41445 0.56735 0.35920 0.36600
C 	C 	0.44089 0.61333 0.38710 -0.18000
C 	C 	0.45007 0.62637 0.49630 0.11000
H 	H 	0.44210 0.60610 0.55340 -0.00300
C 	C 	0.47075 0.66870 0.52210 -0.21700
H 	H 	0.47720 0.67710 0.59700 0.09300
C 	C 	0.48236 0.69935 0.44080 0.19200
C 	C 	0.47476 0.68600 0.33120 -0.23300
H 	H 	0.48360 0.70630 0.27370 0.10600
C 	C 	0.45438 0.64339 0.30520 0.11100
H 	H 	0.44970 0.63490 0.23010 -0.01200
C 	C 	0.50065 0.74426 0.46960 -0.27300
C 	C 	0.53203 0.76747 0.54600 0.30300
C 	C 	0.48780 0.77183 0.42810 0.26800
C 	C 	0.55801 0.75616 0.61670 -0.69600
H 	H 	0.54970 0.72660 0.60440 0.22700
H 	H 	0.58780 0.77410 0.59780 0.22400
H 	H 	0.55360 0.76030 0.69430 0.23300
C 	C 	0.45324 0.76401 0.34770 -0.65200
H 	H 	0.43010 0.76430 0.38710 0.20500
H 	H 	0.44290 0.73650 0.31230 0.21200
H 	H 	0.46430 0.78620 0.29140 0.19500
Zn	Zn	0.18020 0.19803 0.77667 1.21100
O 	O 	0.42766 0.30520 0.22191 -0.49300
O 	O 	0.45299 0.36459 0.32179 -0.32200
O 	O 	0.06522 0.87622 0.77579 -0.49300
O 	O 	0.07497 0.88958 0.59443 -0.33000
N 	N 	0.21281 0.22285 0.63900 -0.27300
N 	N 	0.19450 0.22278 0.54152 -0.21700
H 	H 	0.16727 0.21223 0.53223 0.12900
N 	N 	0.20364 0.13972 0.87989 -0.22200
H 	H 	0.22207 0.16053 0.92123 0.13300
N 	N 	0.17681 0.14302 0.80901 -0.27200
C 	C 	0.30383 0.27348 0.45333 0.18600
C 	C 	0.42488 0.32880 0.29563 0.36000
C 	C 	0.38270 0.30943 0.35183 -0.17200
C 	C 	0.34997 0.27075 0.31583 0.09600
H 	H 	0.35447 0.25633 0.25703 0.00200
C 	C 	0.31081 0.25329 0.36553 -0.21500
H 	H 	0.28847 0.22723 0.33953 0.10000
C 	C 	0.33692 0.31196 0.49023 -0.22000
H 	H 	0.33267 0.32593 0.55063 0.09900
C 	C 	0.37602 0.33001 0.43893 0.09200
H 	H 	0.39817 0.35643 0.46353 0.00100
C 	C 	0.26231 0.25351 0.50843 -0.26700
C 	C 	0.25421 0.24172 0.61963 0.27300
C 	C 	0.22335 0.24091 0.46093 0.29200
C 	C 	0.28528 0.24744 0.70773 -0.66200
H 	H 	0.31387 0.26193 0.67683 0.21500
H 	H 	0.28347 0.26433 0.76783 0.21000
H 	H 	0.27887 0.21983 0.73623 0.19900
C 	C 	0.21166 0.24514 0.34563 -0.66500
H 	H 	0.23717 0.25913 0.30023 0.21600
H 	H 	0.19257 0.21713 0.31543 0.22100
H 	H 	0.19757 0.26193 0.34563 0.20900
C 	C 	0.08112 0.90068 0.69253 0.36600
C 	C 	0.10756 0.94666 0.72043 -0.17900
C 	C 	0.11674 0.95970 0.82963 0.10900
H 	H 	0.10877 0.93943 0.88673 -0.00200
C 	C 	0.13742 0.00203 0.85543 -0.21600
H 	H 	0.14387 0.01043 0.93033 0.09300
C 	C 	0.14903 0.03268 0.77413 0.19100
C 	C 	0.14143 0.01933 0.66453 -0.23200
H 	H 	0.15027 0.03963 0.60703 0.10600
C 	C 	0.12105 0.97672 0.63853 0.11000
H 	H 	0.11637 0.96823 0.56343 -0.01100
C 	C 	0.16732 0.07759 0.80293 -0.27200
C 	C 	0.19870 0.10080 0.87933 0.30200
C 	C 	0.15447 0.10516 0.76143 0.26800
C 	C 	0.22468 0.08949 0.95003 -0.69500
H 	H 	0.21637 0.05993 0.93773 0.22600
H 	H 	0.25447 0.10743 0.93113 0.22300
H 	H 	0.22027 0.09363 0.02763 0.23200
C 	C 	0.11991 0.09734 0.68103 -0.65200
H 	H 	0.09677 0.09763 0.72043 0.20500
H 	H 	0.10957 0.06983 0.64563 0.21200
H 	H 	0.13097 0.11953 0.62473 0.19500
Zn	Zn	0.84686 0.53137 0.11001 1.21000
O 	O 	0.09432 0.63854 0.55525 -0.49300
O 	O 	0.11965 0.69793 0.65513 -0.32200
O 	O 	0.73188 0.20956 0.10913 -0.49200
O 	O 	0.74163 0.22292 0.92777 -0.32900
N 	N 	0.87947 0.55619 0.97234 -0.27300
N 	N 	0.86116 0.55612 0.87486 -0.21700
H 	H 	0.83393 0.54557 0.86557 0.12900
N 	N 	0.87030 0.47306 0.21323 -0.22200
H 	H 	0.88873 0.49387 0.25457 0.13300
N 	N 	0.84347 0.47636 0.14235 -0.27300
C 	C 	0.97049 0.60682 0.78667 0.18800
C 	C 	0.09154 0.66214 0.62897 0.36000
C 	C 	0.04936 0.64277 0.68517 -0.17300
C 	C 	0.01663 0.60409 0.64917 0.09700
H 	H 	0.02113 0.58967 0.59037 0.00200
C 	C 	0.97747 0.58663 0.69887 -0.21500
H 	H 	0.95513 0.56057 0.67287 0.10000
C 	C 	0.00358 0.64530 0.82357 -0.22300
H 	H 	0.99933 0.65927 0.88397 0.10000
C 	C 	0.04268 0.66335 0.77227 0.09300
H 	H 	0.06483 0.68977 0.79687 0.00100
C 	C 	0.92897 0.58685 0.84177 -0.26800
C 	C 	0.92087 0.57506 0.95297 0.27500
C 	C 	0.89001 0.57425 0.79427 0.29300
C 	C 	0.95194 0.58078 0.04107 -0.66500
H 	H 	0.98053 0.59527 0.01017 0.21500
H 	H 	0.95013 0.59767 0.10117 0.21100
H 	H 	0.94553 0.55317 0.06957 0.19900
C 	C 	0.87832 0.57848 0.67897 -0.66500
H 	H 	0.90383 0.59247 0.63357 0.21600
H 	H 	0.85923 0.55047 0.64877 0.22100
H 	H 	0.86423 0.59527 0.67897 0.20900
C 	C 	0.74778 0.23402 0.02587 0.36500
C 	C 	0.77422 0.28000 0.05377 -0.18100
C 	C 	0.78340 0.29304 0.16297 0.11100
H 	H 	0.77543 0.27277 0.22007 -0.00300
C 	C 	0.80408 0.33537 0.18877 -0.21700
H 	H 	0.81053 0.34377 0.26367 0.09300
C 	C 	0.81569 0.36602 0.10747 0.19100
C 	C 	0.80809 0.35267 0.99787 -0.23200
H 	H 	0.81693 0.37297 0.94037 0.10600
C 	C 	0.78771 0.31006 0.97187 0.11300
H 	H 	0.78303 0.30157 0.89677 -0.01200
C 	C 	0.83398 0.41093 0.13627 -0.27400
C 	C 	0.86536 0.43414 0.21267 0.30300
C 	C 	0.82113 0.43850 0.09477 0.27000
C 	C 	0.89134 0.42283 0.28337 -0.69700
H 	H 	0.88303 0.39327 0.27107 0.22700
H 	H 	0.92113 0.44077 0.26447 0.22400
H 	H 	0.88693 0.42697 0.36097 0.23300
C 	C 	0.78657 0.43068 0.01437 -0.66300
H 	H 	0.76343 0.43097 0.05377 0.20800
H 	H 	0.77623 0.40317 0.97897 0.21600
H 	H 	0.79763 0.45287 0.95807 0.19900
Zn	Zn	0.86470 0.35117 0.55666 1.21100
O 	O 	0.97187 0.21088 0.11142 -0.49300
O 	O 	0.03126 0.24494 0.01154 -0.32100
O 	O 	0.54289 0.14434 0.55754 -0.49300
O 	O 	0.55625 0.14795 0.73890 -0.33000
N 	N 	0.88952 0.34338 0.69433 -0.27300
N 	N 	0.88945 0.36162 0.79181 -0.21600
H 	H 	0.87890 0.37830 0.80110 0.12900
N 	N 	0.80639 0.26942 0.45344 -0.22200
H 	H 	0.82720 0.27180 0.41210 0.13300
N 	N 	0.80969 0.29955 0.52432 -0.27200
C 	C 	0.94015 0.30299 0.88000 0.18300
C 	C 	0.99547 0.23726 0.03770 0.35600
C 	C 	0.97610 0.26007 0.98150 -0.16700
C 	C 	0.93742 0.25412 0.01750 0.08900
H 	H 	0.92300 0.23520 0.07630 0.00400
C 	C 	0.91996 0.27582 0.96780 -0.20900
H 	H 	0.89390 0.27210 0.99380 0.09900
C 	C 	0.97863 0.30838 0.84310 -0.21700
H 	H 	0.99260 0.32660 0.78270 0.09800
C 	C 	0.99668 0.28733 0.89440 0.09000
H 	H 	0.02310 0.29160 0.86980 0.00200
C 	C 	0.92018 0.32454 0.82490 -0.26500
C 	C 	0.90839 0.32085 0.71370 0.27300
C 	C 	0.90758 0.35090 0.87240 0.28900
C 	C 	0.91411 0.29550 0.62560 -0.66200
H 	H 	0.92860 0.28140 0.65650 0.21400
H 	H 	0.93100 0.31420 0.56550 0.21000
H 	H 	0.88650 0.27430 0.59710 0.19800
C 	C 	0.91181 0.36682 0.98770 -0.65400
H 	H 	0.92580 0.35530 0.03310 0.21200
H 	H 	0.88380 0.35790 0.01790 0.21700
H 	H 	0.92860 0.39770 0.98770 0.20600
C 	C 	0.56735 0.15290 0.64080 0.36600
C 	C 	0.61333 0.17244 0.61290 -0.18000
C 	C 	0.62637 0.17630 0.50370 0.11000
H 	H 	0.60610 0.16400 0.44660 -0.00300
C 	C 	0.66870 0.19795 0.47790 -0.21700
H 	H 	0.67710 0.19990 0.40300 0.09300
C 	C 	0.69935 0.21699 0.55920 0.19200
C 	C 	0.68600 0.21124 0.66880 -0.23300
H 	H 	0.70630 0.22270 0.72630 0.10600
C 	C 	0.64339 0.18901 0.69480 0.11100
H 	H 	0.63490 0.18520 0.76990 -0.01200
C 	C 	0.74426 0.24361 0.53040 -0.27300
C 	C 	0.76747 0.23544 0.45400 0.30300
C 	C 	0.77183 0.28403 0.57190 0.26800
C 	C 	0.75616 0.19815 0.38330 -0.69600
H 	H 	0.72660 0.17690 0.39560 0.22700
H 	H 	0.77410 0.18630 0.40220 0.22400
H 	H 	0.76030 0.20670 0.30570 0.23300
C 	C 	0.76401 0.31077 0.65230 -0.65200
H 	H 	0.76430 0.33420 0.61290 0.20500
H 	H 	0.73650 0.29360 0.68770 0.21200
H 	H 	0.78620 0.32190 0.70860 0.19500
Zn	Zn	0.53137 0.68450 0.88999 1.21100
O 	O 	0.63854 0.54421 0.44475 -0.49300
O 	O 	0.69793 0.57827 0.34487 -0.32200
O 	O 	0.20956 0.47767 0.89087 -0.49200
O 	O 	0.22292 0.48128 0.07223 -0.32900
N 	N 	0.55619 0.67671 0.02766 -0.27300
N 	N 	0.55612 0.69495 0.12514 -0.21700
H 	H 	0.54557 0.71163 0.13443 0.12900
N 	N 	0.47306 0.60275 0.78677 -0.22200
H 	H 	0.49387 0.60513 0.74543 0.13300
N 	N 	0.47636 0.63288 0.85765 -0.27300
C 	C 	0.60682 0.63632 0.21333 0.18600
C 	C 	0.66214 0.57059 0.37103 0.36000
C 	C 	0.64277 0.59340 0.31483 -0.17200
C 	C 	0.60409 0.58745 0.35083 0.09600
H 	H 	0.58967 0.56853 0.40963 0.00200
C 	C 	0.58663 0.60915 0.30113 -0.21500
H 	H 	0.56057 0.60543 0.32713 0.10000
C 	C 	0.64530 0.64171 0.17643 -0.22000
H 	H 	0.65927 0.65993 0.11603 0.09900
C 	C 	0.66335 0.62066 0.22773 0.09200
H 	H 	0.68977 0.62493 0.20313 0.00100
C 	C 	0.58685 0.65787 0.15823 -0.26700
C 	C 	0.57506 0.65418 0.04703 0.27400
C 	C 	0.57425 0.68423 0.20573 0.29300
C 	C 	0.58078 0.62883 0.95893 -0.66300
H 	H 	0.59527 0.61473 0.98983 0.21500
H 	H 	0.59767 0.64753 0.89883 0.21100
H 	H 	0.55317 0.60763 0.93043 0.19900
C 	C 	0.57848 0.70015 0.32103 -0.66500
H 	H 	0.59247 0.68863 0.36643 0.21600
H 	H 	0.55047 0.69123 0.35123 0.22100
H 	H 	0.59527 0.73103 0.32103 0.20900
C 	C 	0.23402 0.48623 0.97413 0.36500
C 	C 	0.28000 0.50577 0.94623 -0.18100
C 	C 	0.29304 0.50963 0.83703 0.11100
H 	H 	0.27277 0.49733 0.77993 -0.00300
C 	C 	0.33537 0.53128 0.81123 -0.21700
H 	H 	0.34377 0.53323 0.73633 0.09300
C 	C 	0.36602 0.55032 0.89253 0.19100
C 	C 	0.35267 0.54457 0.00213 -0.23200
H 	H 	0.37297 0.55603 0.05963 0.10600
C 	C 	0.31006 0.52234 0.02813 0.11200
H 	H 	0.30157 0.51853 0.10323 -0.01200
C 	C 	0.41093 0.57694 0.86373 -0.27400
C 	C 	0.43414 0.56877 0.78733 0.30300
C 	C 	0.43850 0.61736 0.90523 0.27000
C 	C 	0.42283 0.53148 0.71663 -0.69700
H 	H 	0.39327 0.51023 0.72893 0.22700
H 	H 	0.44077 0.51963 0.73553 0.22400
H 	H 	0.42697 0.54003 0.63903 0.23300
C 	C 	0.43068 0.64410 0.98563 -0.66200
H 	H 	0.43097 0.66753 0.94623 0.20700
H 	H 	0.40317 0.62693 0.02103 0.21600
H 	H 	0.45287 0.65523 0.04193 0.19800
Zn	Zn	0.19803 0.01784 0.22333 1.21100
O 	O 	0.30520 0.87755 0.77809 -0.49300
O 	O 	0.36459 0.91161 0.67821 -0.32200
O 	O 	0.87622 0.81101 0.22421 -0.49200
O 	O 	0.88958 0.81462 0.40557 -0.33000
N 	N 	0.22285 0.01005 0.36100 -0.27300
N 	N 	0.22278 0.02829 0.45848 -0.21700
H 	H 	0.21223 0.04497 0.46777 0.12900
N 	N 	0.13972 0.93609 0.12011 -0.22100
H 	H 	0.16053 0.93847 0.07877 0.13300
N 	N 	0.14302 0.96622 0.19099 -0.27200
C 	C 	0.27348 0.96966 0.54667 0.18600
C 	C 	0.32880 0.90393 0.70437 0.36000
C 	C 	0.30943 0.92674 0.64817 -0.17200
C 	C 	0.27075 0.92079 0.68417 0.09600
H 	H 	0.25633 0.90187 0.74297 0.00200
C 	C 	0.25329 0.94249 0.63447 -0.21500
H 	H 	0.22723 0.93877 0.66047 0.10000
C 	C 	0.31196 0.97505 0.50977 -0.22000
H 	H 	0.32593 0.99327 0.44937 0.09900
C 	C 	0.33001 0.95400 0.56107 0.09200
H 	H 	0.35643 0.95827 0.53647 0.00100
C 	C 	0.25351 0.99121 0.49157 -0.26700
C 	C 	0.24172 0.98752 0.38037 0.27400
C 	C 	0.24091 0.01757 0.53907 0.29300
C 	C 	0.24744 0.96217 0.29227 -0.66300
H 	H 	0.26193 0.94807 0.32317 0.21500
H 	H 	0.26433 0.98087 0.23217 0.21100
H 	H 	0.21983 0.94097 0.26377 0.19900
C 	C 	0.24514 0.03349 0.65437 -0.66500
H 	H 	0.25913 0.02197 0.69977 0.21600
H 	H 	0.21713 0.02457 0.68457 0.22100
H 	H 	0.26193 0.06437 0.65437 0.20900
C 	C 	0.90068 0.81957 0.30747 0.36600
C 	C 	0.94666 0.83911 0.27957 -0.17900
C 	C 	0.95970 0.84297 0.17037 0.10800
H 	H 	0.93943 0.83067 0.11327 -0.00200
C 	C 	0.00203 0.86462 0.14457 -0.21500
H 	H 	0.01043 0.86657 0.06967 0.09300
C 	C 	0.03268 0.88366 0.22587 0.19100
C 	C 	0.01933 0.87791 0.33547 -0.23200
H 	H 	0.03963 0.88937 0.39297 0.10500
C 	C 	0.97672 0.85568 0.36147 0.10900
H 	H 	0.96823 0.85187 0.43657 -0.01100
C 	C 	0.07759 0.91028 0.19707 -0.27200
C 	C 	0.10080 0.90211 0.12067 0.30100
C 	C 	0.10516 0.95070 0.23857 0.26700
C 	C 	0.08949 0.86482 0.04997 -0.69100
H 	H 	0.05993 0.84357 0.06227 0.22600
H 	H 	0.10743 0.85297 0.06887 0.22300
H 	H 	0.09363 0.87337 0.97237 0.23000
C 	C 	0.09734 0.97744 0.31897 -0.65100
H 	H 	0.09763 0.00087 0.27957 0.20400
H 	H 	0.06983 0.96027 0.35437 0.21200
H 	H 	0.11953 0.98857 0.37527 0.19400
Zn	Zn	0.64883 0.51353 0.55666 1.21100
O 	O 	0.78912 0.76099 0.11142 -0.49300
O 	O 	0.75506 0.78632 0.01154 -0.32200
O 	O 	0.85566 0.39855 0.55754 -0.49300
O 	O 	0.85205 0.40830 0.73890 -0.33000
N 	N 	0.65662 0.54614 0.69433 -0.27300
N 	N 	0.63838 0.52783 0.79181 -0.21600
H 	H 	0.62170 0.50060 0.80110 0.12900
N 	N 	0.73058 0.53697 0.45344 -0.22200
H 	H 	0.72820 0.55540 0.41210 0.13300
N 	N 	0.70045 0.51014 0.52432 -0.27200
C 	C 	0.69701 0.63716 0.88000 0.18500
C 	C 	0.76274 0.75821 0.03770 0.35900
C 	C 	0.73993 0.71603 0.98150 -0.17100
C 	C 	0.74588 0.68330 0.01750 0.09500
H 	H 	0.76480 0.68780 0.07630 0.00200
C 	C 	0.72418 0.64414 0.96780 -0.21300
H 	H 	0.72790 0.62180 0.99380 0.10000
C 	C 	0.69162 0.67025 0.84310 -0.21900
H 	H 	0.67340 0.66600 0.78270 0.09900
C 	C 	0.71267 0.70935 0.89440 0.09100
H 	H 	0.70840 0.73150 0.86980 0.00200
C 	C 	0.67546 0.59564 0.82490 -0.26600
C 	C 	0.67915 0.58754 0.71370 0.27300
C 	C 	0.64910 0.55668 0.87240 0.29100
C 	C 	0.70450 0.61861 0.62560 -0.66200
H 	H 	0.71860 0.64720 0.65650 0.21400
H 	H 	0.68580 0.61680 0.56550 0.21000
H 	H 	0.72570 0.61220 0.59710 0.19800
C 	C 	0.63318 0.54499 0.98770 -0.66000
H 	H 	0.64470 0.57050 0.03310 0.21400
H 	H 	0.64210 0.52590 0.01790 0.21900
H 	H 	0.60230 0.53090 0.98770 0.20700
C 	C 	0.84710 0.41445 0.64080 0.36600
C 	C 	0.82756 0.44089 0.61290 -0.18000
C 	C 	0.82370 0.45007 0.50370 0.11000
H 	H 	0.83600 0.44210 0.44660 -0.00300
C 	C 	0.80205 0.47075 0.47790 -0.21700
H 	H 	0.80010 0.47720 0.40300 0.09300
C 	C 	0.78301 0.48236 0.55920 0.19200
C 	C 	0.78876 0.47476 0.66880 -0.23300
H 	H 	0.77730 0.48360 0.72630 0.10600
C 	C 	0.81099 0.45438 0.69480 0.11100
H 	H 	0.81480 0.44970 0.76990 -0.01200
C 	C 	0.75639 0.50065 0.53040 -0.27300
C 	C 	0.76456 0.53203 0.45400 0.30300
C 	C 	0.71597 0.48780 0.57190 0.26800
C 	C 	0.80185 0.55801 0.38330 -0.69600
H 	H 	0.82310 0.54970 0.39560 0.22700
H 	H 	0.81370 0.58780 0.40220 0.22400
H 	H 	0.79330 0.55360 0.30570 0.23300
C 	C 	0.68923 0.45324 0.65230 -0.65200
H 	H 	0.66580 0.43010 0.61290 0.20500
H 	H 	0.70640 0.44290 0.68770 0.21200
H 	H 	0.67810 0.46430 0.70860 0.19500
Zn	Zn	0.31550 0.84686 0.88999 1.21000
O 	O 	0.45579 0.09432 0.44475 -0.49300
O 	O 	0.42173 0.11965 0.34487 -0.32200
O 	O 	0.52233 0.73188 0.89087 -0.49200
O 	O 	0.51872 0.74163 0.07223 -0.32900
N 	N 	0.32329 0.87947 0.02766 -0.27300
N 	N 	0.30505 0.86116 0.12514 -0.21700
H 	H 	0.28837 0.83393 0.13443 0.12900
N 	N 	0.39725 0.87030 0.78677 -0.22200
H 	H 	0.39487 0.88873 0.74543 0.13300
N 	N 	0.36712 0.84347 0.85765 -0.27300
C 	C 	0.36368 0.97049 0.21333 0.18800
C 	C 	0.42941 0.09154 0.37103 0.36000
C 	C 	0.40660 0.04936 0.31483 -0.17300
C 	C 	0.41255 0.01663 0.35083 0.09700
H 	H 	0.43147 0.02113 0.40963 0.00200
C 	C 	0.39085 0.97747 0.30113 -0.21500
H 	H 	0.39457 0.95513 0.32713 0.10000
C 	C 	0.35829 0.00358 0.17643 -0.22300
H 	H 	0.34007 0.99933 0.11603 0.10100
C 	C 	0.37934 0.04268 0.22773 0.09300
H 	H 	0.37507 0.06483 0.20313 0.00100
C 	C 	0.34213 0.92897 0.15823 -0.26800
C 	C 	0.34582 0.92087 0.04703 0.27500
C 	C 	0.31577 0.89001 0.20573 0.29300
C 	C 	0.37117 0.95194 0.95893 -0.66500
H 	H 	0.38527 0.98053 0.98983 0.21500
H 	H 	0.35247 0.95013 0.89883 0.21100
H 	H 	0.39237 0.94553 0.93043 0.19900
C 	C 	0.29985 0.87832 0.32103 -0.66500
H 	H 	0.31137 0.90383 0.36643 0.21600
H 	H 	0.30877 0.85923 0.35123 0.22100
H 	H 	0.26897 0.86423 0.32103 0.20900
C 	C 	0.51377 0.74778 0.97413 0.36500
C 	C 	0.49423 0.77422 0.94623 -0.18100
C 	C 	0.49037 0.78340 0.83703 0.11100
H 	H 	0.50267 0.77543 0.77993 -0.00300
C 	C 	0.46872 0.80408 0.81123 -0.21700
H 	H 	0.46677 0.81053 0.73633 0.09300
C 	C 	0.44968 0.81569 0.89253 0.19100
C 	C 	0.45543 0.80809 0.00213 -0.23200
H 	H 	0.44397 0.81693 0.05963 0.10600
C 	C 	0.47766 0.78771 0.02813 0.11200
H 	H 	0.48147 0.78303 0.10323 -0.01200
C 	C 	0.42306 0.83398 0.86373 -0.27400
C 	C 	0.43123 0.86536 0.78733 0.30300
C 	C 	0.38264 0.82113 0.90523 0.27100
C 	C 	0.46852 0.89134 0.71663 -0.69700
H 	H 	0.48977 0.88303 0.72893 0.22700
H 	H 	0.48037 0.92113 0.73553 0.22400
H 	H 	0.45997 0.88693 0.63903 0.23300
C 	C 	0.35590 0.78657 0.98563 -0.66400
H 	H 	0.33247 0.76343 0.94623 0.20800
H 	H 	0.37307 0.77623 0.02103 0.21700
H 	H 	0.34477 0.79763 0.04193 0.19900
Zn	Zn	0.98216 0.18020 0.22333 1.21100
O 	O 	0.12245 0.42766 0.77809 -0.49300
O 	O 	0.08839 0.45299 0.67821 -0.32200
O 	O 	0.18899 0.06522 0.22421 -0.49300
O 	O 	0.18538 0.07497 0.40557 -0.33000
N 	N 	0.98995 0.21281 0.36100 -0.27300
N 	N 	0.97171 0.19450 0.45848 -0.21700
H 	H 	0.95503 0.16727 0.46777 0.12900
N 	N 	0.06391 0.20364 0.12011 -0.22200
H 	H 	0.06153 0.22207 0.07877 0.13300
N 	N 	0.03378 0.17681 0.19099 -0.27200
C 	C 	0.03034 0.30383 0.54667 0.18600
C 	C 	0.09607 0.42488 0.70437 0.36000
C 	C 	0.07326 0.38270 0.64817 -0.17200
C 	C 	0.07921 0.34997 0.68417 0.09600
H 	H 	0.09813 0.35447 0.74297 0.00200
C 	C 	0.05751 0.31081 0.63447 -0.21500
H 	H 	0.06123 0.28847 0.66047 0.10000
C 	C 	0.02495 0.33692 0.50977 -0.22000
H 	H 	0.00673 0.33267 0.44937 0.09900
C 	C 	0.04600 0.37602 0.56107 0.09200
H 	H 	0.04173 0.39817 0.53647 0.00100
C 	C 	0.00879 0.26231 0.49157 -0.26700
C 	C 	0.01248 0.25421 0.38037 0.27400
C 	C 	0.98243 0.22335 0.53907 0.29300
C 	C 	0.03783 0.28528 0.29227 -0.66300
H 	H 	0.05193 0.31387 0.32317 0.21500
H 	H 	0.01913 0.28347 0.23217 0.21100
H 	H 	0.05903 0.27887 0.26377 0.19900
C 	C 	0.96651 0.21166 0.65437 -0.66500
H 	H 	0.97803 0.23717 0.69977 0.21600
H 	H 	0.97543 0.19257 0.68457 0.22100
H 	H 	0.93563 0.19757 0.65437 0.20900
C 	C 	0.18043 0.08112 0.30747 0.36600
C 	C 	0.16089 0.10756 0.27957 -0.18000
C 	C 	0.15703 0.11674 0.17037 0.11000
H 	H 	0.16933 0.10877 0.11327 -0.00300
C 	C 	0.13538 0.13742 0.14457 -0.21700
H 	H 	0.13343 0.14387 0.06967 0.09300
C 	C 	0.11634 0.14903 0.22587 0.19200
C 	C 	0.12209 0.14143 0.33547 -0.23300
H 	H 	0.11063 0.15027 0.39297 0.10600
C 	C 	0.14432 0.12105 0.36147 0.11100
H 	H 	0.14813 0.11637 0.43657 -0.01100
C 	C 	0.08972 0.16732 0.19707 -0.27300
C 	C 	0.09789 0.19870 0.12067 0.30200
C 	C 	0.04930 0.15447 0.23857 0.26800
C 	C 	0.13518 0.22468 0.04997 -0.69500
H 	H 	0.15643 0.21637 0.06227 0.22600
H 	H 	0.14703 0.25447 0.06887 0.22300
H 	H 	0.12663 0.22027 0.97237 0.23200
C 	C 	0.02256 0.11991 0.31897 -0.65100
H 	H 	0.99913 0.09677 0.27957 0.20400
H 	H 	0.03973 0.10957 0.35437 0.21200
H 	H 	0.01143 0.13097 0.37527 0.19400
Zn	Zn	0.48647 0.13530 0.55666 1.21100
O 	O 	0.23901 0.02813 0.11142 -0.49300
O 	O 	0.21368 0.96874 0.01154 -0.32100
O 	O 	0.60145 0.45711 0.55754 -0.49300
O 	O 	0.59170 0.44375 0.73890 -0.33000
N 	N 	0.45386 0.11048 0.69433 -0.27300
N 	N 	0.47217 0.11055 0.79181 -0.21600
H 	H 	0.49940 0.12110 0.80110 0.12900
N 	N 	0.46303 0.19361 0.45344 -0.22200
H 	H 	0.44460 0.17280 0.41210 0.13300
N 	N 	0.48986 0.19031 0.52432 -0.27200
C 	C 	0.36284 0.05985 0.88000 0.18400
C 	C 	0.24179 0.00453 0.03770 0.35800
C 	C 	0.28397 0.02390 0.98150 -0.17000
C 	C 	0.31670 0.06258 0.01750 0.09300
H 	H 	0.31220 0.07700 0.07630 0.00300
C 	C 	0.35586 0.08004 0.96780 -0.21200
H 	H 	0.37820 0.10610 0.99380 0.10000
C 	C 	0.32975 0.02137 0.84310 -0.21900
H 	H 	0.33400 0.00740 0.78270 0.09900
C 	C 	0.29065 0.00332 0.89440 0.09100
H 	H 	0.26850 0.97690 0.86980 0.00100
C 	C 	0.40436 0.07982 0.82490 -0.26500
C 	C 	0.41246 0.09161 0.71370 0.27300
C 	C 	0.44332 0.09242 0.87240 0.29000
C 	C 	0.38139 0.08589 0.62560 -0.66200
H 	H 	0.35280 0.07140 0.65650 0.21400
H 	H 	0.38320 0.06900 0.56550 0.21000
H 	H 	0.38780 0.11350 0.59710 0.19800
C 	C 	0.45501 0.08819 0.98770 -0.65600
H 	H 	0.42950 0.07420 0.03310 0.21300
H 	H 	0.47410 0.11620 0.01790 0.21800
H 	H 	0.46910 0.07140 0.98770 0.20700
C 	C 	0.58555 0.43265 0.64080 0.36600
C 	C 	0.55911 0.38667 0.61290 -0.18000
C 	C 	0.54993 0.37363 0.50370 0.11000
H 	H 	0.55790 0.39390 0.44660 -0.00300
C 	C 	0.52925 0.33130 0.47790 -0.21700
H 	H 	0.52280 0.32290 0.40300 0.09300
C 	C 	0.51764 0.30065 0.55920 0.19200
C 	C 	0.52524 0.31400 0.66880 -0.23300
H 	H 	0.51640 0.29370 0.72630 0.10600
C 	C 	0.54562 0.35661 0.69480 0.11100
H 	H 	0.55030 0.36510 0.76990 -0.01200
C 	C 	0.49935 0.25574 0.53040 -0.27300
C 	C 	0.46797 0.23253 0.45400 0.30300
C 	C 	0.51220 0.22817 0.57190 0.26800
C 	C 	0.44199 0.24384 0.38330 -0.69600
H 	H 	0.45030 0.27340 0.39560 0.22700
H 	H 	0.41220 0.22590 0.40220 0.22400
H 	H 	0.44640 0.23970 0.30570 0.23300
C 	C 	0.54676 0.23599 0.65230 -0.65200
H 	H 	0.56990 0.23570 0.61290 0.20500
H 	H 	0.55710 0.26350 0.68770 0.21200
H 	H 	0.53570 0.21380 0.70860 0.19500
Zn	Zn	0.15314 0.46863 0.88999 1.21000
O 	O 	0.90568 0.36146 0.44475 -0.49300
O 	O 	0.88035 0.30207 0.34487 -0.32200
O 	O 	0.26812 0.79044 0.89087 -0.49200
O 	O 	0.25837 0.77708 0.07223 -0.32900
N 	N 	0.12053 0.44381 0.02766 -0.27300
N 	N 	0.13884 0.44388 0.12514 -0.21700
H 	H 	0.16607 0.45443 0.13443 0.12900
N 	N 	0.12970 0.52694 0.78677 -0.22200
H 	H 	0.11127 0.50613 0.74543 0.13300
N 	N 	0.15653 0.52364 0.85765 -0.27300
C 	C 	0.02951 0.39318 0.21333 0.18800
C 	C 	0.90846 0.33786 0.37103 0.36000
C 	C 	0.95064 0.35723 0.31483 -0.17300
C 	C 	0.98337 0.39591 0.35083 0.09700
H 	H 	0.97887 0.41033 0.40963 0.00200
C 	C 	0.02253 0.41337 0.30113 -0.21500
H 	H 	0.04487 0.43943 0.32713 0.10000
C 	C 	0.99642 0.35470 0.17643 -0.22300
H 	H 	0.00067 0.34073 0.11603 0.10000
C 	C 	0.95732 0.33665 0.22773 0.09300
H 	H 	0.93517 0.31023 0.20313 0.00100
C 	C 	0.07103 0.41315 0.15823 -0.26800
C 	C 	0.07913 0.42494 0.04703 0.27500
C 	C 	0.10999 0.42575 0.20573 0.29300
C 	C 	0.04806 0.41922 0.95893 -0.66500
H 	H 	0.01947 0.40473 0.98983 0.21500
H 	H 	0.04987 0.40233 0.89883 0.21100
H 	H 	0.05447 0.44683 0.93043 0.19900
C 	C 	0.12168 0.42152 0.32103 -0.66500
H 	H 	0.09617 0.40753 0.36643 0.21600
H 	H 	0.14077 0.44953 0.35123 0.22100
H 	H 	0.13577 0.40473 0.32103 0.20900
C 	C 	0.25222 0.76598 0.97413 0.36500
C 	C 	0.22578 0.72000 0.94623 -0.18100
C 	C 	0.21660 0.70696 0.83703 0.11100
H 	H 	0.22457 0.72723 0.77993 -0.00300
C 	C 	0.19592 0.66463 0.81123 -0.21700
H 	H 	0.18947 0.65623 0.73633 0.09300
C 	C 	0.18431 0.63398 0.89253 0.19100
C 	C 	0.19191 0.64733 0.00213 -0.23200
H 	H 	0.18307 0.62703 0.05963 0.10600
C 	C 	0.21229 0.68994 0.02813 0.11300
H 	H 	0.21697 0.69843 0.10323 -0.01200
C 	C 	0.16602 0.58907 0.86373 -0.27400
C 	C 	0.13464 0.56586 0.78733 0.30300
C 	C 	0.17887 0.56150 0.90523 0.27000
C 	C 	0.10866 0.57717 0.71663 -0.69700
H 	H 	0.11697 0.60673 0.72893 0.22700
H 	H 	0.07887 0.55923 0.73553 0.22400
H 	H 	0.11307 0.57303 0.63903 0.23300
C 	C 	0.21343 0.56932 0.98563 -0.66300
H 	H 	0.23657 0.56903 0.94623 0.20800
H 	H 	0.22377 0.59683 0.02103 0.21600
H 	H 	0.20237 0.54713 0.04193 0.19900
Zn	Zn	0.81980 0.80197 0.22333 1.21100
O 	O 	0.57234 0.69480 0.77809 -0.49300
O 	O 	0.54701 0.63541 0.67821 -0.32200
O 	O 	0.93478 0.12378 0.22421 -0.49300
O 	O 	0.92503 0.11042 0.40557 -0.33000
N 	N 	0.78719 0.77715 0.36100 -0.27300
N 	N 	0.80550 0.77722 0.45848 -0.21700
H 	H 	0.83273 0.78777 0.46777 0.12900
N 	N 	0.79636 0.86028 0.12011 -0.22200
H 	H 	0.77793 0.83947 0.07877 0.13300
N 	N 	0.82319 0.85698 0.19099 -0.27200
C 	C 	0.69617 0.72652 0.54667 0.18600
C 	C 	0.57512 0.67120 0.70437 0.36000
C 	C 	0.61730 0.69057 0.64817 -0.17200
C 	C 	0.65003 0.72925 0.68417 0.09600
H 	H 	0.64553 0.74367 0.74297 0.00200
C 	C 	0.68919 0.74671 0.63447 -0.21500
H 	H 	0.71153 0.77277 0.66047 0.10000
C 	C 	0.66308 0.68804 0.50977 -0.22000
H 	H 	0.66733 0.67407 0.44937 0.09900
C 	C 	0.62398 0.66999 0.56107 0.09200
H 	H 	0.60183 0.64357 0.53647 0.00100
C 	C 	0.73769 0.74649 0.49157 -0.26700
C 	C 	0.74579 0.75828 0.38037 0.27300
C 	C 	0.77665 0.75909 0.53907 0.29200
C 	C 	0.71472 0.75256 0.29227 -0.66200
H 	H 	0.68613 0.73807 0.32317 0.21500
H 	H 	0.71653 0.73567 0.23217 0.21000
H 	H 	0.72113 0.78017 0.26377 0.19900
C 	C 	0.78834 0.75486 0.65437 -0.66500
H 	H 	0.76283 0.74087 0.69977 0.21600
H 	H 	0.80743 0.78287 0.68457 0.22100
H 	H 	0.80243 0.73807 0.65437 0.20900
C 	C 	0.91888 0.09932 0.30747 0.36600
C 	C 	0.89244 0.05334 0.27957 -0.17900
C 	C 	0.88326 0.04030 0.17037 0.10900
H 	H 	0.89123 0.06057 0.11327 -0.00200
C 	C 	0.86258 0.99797 0.14457 -0.21600
H 	H 	0.85613 0.98957 0.06967 0.09300
C 	C 	0.85097 0.96732 0.22587 0.19100
C 	C 	0.85857 0.98067 0.33547 -0.23200
H 	H 	0.84973 0.96037 0.39297 0.10600
C 	C 	0.87895 0.02328 0.36147 0.11000
H 	H 	0.88363 0.03177 0.43657 -0.01100
C 	C 	0.83268 0.92241 0.19707 -0.27200
C 	C 	0.80130 0.89920 0.12067 0.30200
C 	C 	0.84553 0.89484 0.23857 0.26800
C 	C 	0.77532 0.91051 0.04997 -0.69500
H 	H 	0.78363 0.94007 0.06227 0.22600
H 	H 	0.74553 0.89257 0.06887 0.22300
H 	H 	0.77973 0.90637 0.97237 0.23200
C 	C 	0.88009 0.90266 0.31897 -0.65200
H 	H 	0.90323 0.90237 0.27957 0.20500
H 	H 	0.89043 0.93017 0.35437 0.21200
H 	H 	0.86903 0.88047 0.37527 0.19500
