data_crystal

_cell_length_a 9.97300
_cell_length_b 48.48500
_cell_length_c 54.89200
_cell_angle_alpha 90.00000
_cell_angle_beta  90.00000
_cell_angle_gamma 90.00000

_symmetry_space_group_name_	'P 1'
_symmetry_space_group_name_H-M	'P 1'

loop_
_symmetry_equiv_pos_as_xyz
  x,y,z

loop_
_atom_site_label
_atom_site_type_symbol
_atom_site_fract_x
_atom_site_fract_y
_atom_site_fract_z
_atom_site_charge
Ga	Ga	0.87680 0.27688 0.02277 2.10500
Zn	Zn	0.66822 0.43248 0.22027 1.23000
Zn	Zn	0.70450 0.36244 0.13334 1.22900
Zn	Zn	0.54780 0.34979 0.06815 1.23300
Zn	Zn	0.04570 0.39679 0.10715 1.23300
Zn	Zn	0.99064 0.46610 0.19435 1.22600
Zn	Zn	0.20235 0.32449 0.08812 1.23300
Zn	Zn	0.35163 0.41471 0.16529 1.15200
P 	P 	0.16070 0.28135 0.04628 0.49100
P 	P 	0.71320 0.49257 0.20537 0.44100
P 	P 	0.06530 0.44212 0.14576 0.49400
P 	P 	0.93990 0.44463 0.24480 0.49000
P 	P 	0.76480 0.39191 0.08367 0.43300
P 	P 	0.64140 0.38678 0.18372 0.44900
P 	P 	0.27700 0.38398 0.07192 0.44800
P 	P 	0.59440 0.30480 0.02833 0.60700
P 	P 	0.98540 0.33646 0.12633 0.50000
P 	P 	0.47100 0.32494 0.11837 0.46200
O 	O 	0.17370 0.25020 0.04679 -0.49800
O 	O 	0.01560 0.29121 0.04445 -0.51200
O 	O 	0.23120 0.29278 0.06835 -0.43000
O 	O 	0.65500 0.46466 0.19842 -0.46600
O 	O 	0.66170 0.51596 0.18981 -0.45700
O 	O 	0.86400 0.49309 0.20537 -0.46500
O 	O 	0.00640 0.43137 0.12290 -0.44100
O 	O 	0.95160 0.45022 0.16304 -0.44900
O 	O 	0.16020 0.42240 0.15805 -0.52300
O 	O 	0.99630 0.42638 0.26458 -0.46700
O 	O 	0.79150 0.44367 0.24555 -0.46700
O 	O 	0.99940 0.43819 0.21985 -0.47700
O 	O 	0.70810 0.39231 0.10956 -0.47700
O 	O 	0.91530 0.39450 0.08188 -0.44700
O 	O 	0.72390 0.36690 0.06962 -0.43200
O 	O 	0.71530 0.39800 0.20529 -0.44100
O 	O 	0.74320 0.37760 0.16522 -0.43100
O 	O 	0.54260 0.40679 0.17315 -0.52800
O 	O 	0.42560 0.37997 0.07339 -0.46700
O 	O 	0.22560 0.39942 0.09399 -0.46500
O 	O 	0.19920 0.35759 0.06753 -0.46200
O 	O 	0.74160 0.30171 0.03612 -0.52200
O 	O 	0.57390 0.30371 0.00119 -0.53300
O 	O 	0.53340 0.33120 0.03787 -0.45500
O 	O 	0.83490 0.33440 0.12835 -0.44200
O 	O 	0.04180 0.36557 0.12976 -0.47400
O 	O 	0.02880 0.32222 0.10318 -0.42700
O 	O 	0.52140 0.34750 0.13491 -0.46500
O 	O 	0.54870 0.32300 0.09479 -0.47100
O 	O 	0.32220 0.32715 0.11564 -0.46300
H 	H 	0.23280 0.29090 0.02600 -0.00800
H 	H 	0.66220 0.49690 0.22800 -0.06100
H 	H 	0.12660 0.46380 0.14250 -0.08300
H 	H 	0.97610 0.46700 0.24840 -0.11200
H 	H 	0.71100 0.41790 0.07290 -0.00800
H 	H 	0.59960 0.35830 0.18660 -0.03900
H 	H 	0.22190 0.39670 0.05290 -0.02000
H 	H 	0.59860 0.28460 0.03320 -0.12300
H 	H 	0.98460 0.32760 0.14280 -0.09700
H 	H 	0.48630 0.30670 0.13370 -0.03700
Ga	Ga	0.37680 0.77688 0.52277 2.10600
Zn	Zn	0.16822 0.93248 0.72027 1.23200
Zn	Zn	0.20450 0.86244 0.63334 1.22900
Zn	Zn	0.04780 0.84979 0.56815 1.23400
Zn	Zn	0.54570 0.89679 0.60715 1.23100
Zn	Zn	0.49064 0.96610 0.69435 1.22900
Zn	Zn	0.70235 0.82449 0.58812 1.23200
Zn	Zn	0.85163 0.91471 0.66529 1.14800
P 	P 	0.66070 0.78135 0.54628 0.49100
P 	P 	0.21320 0.99257 0.70537 0.44100
P 	P 	0.56530 0.94212 0.64576 0.48300
P 	P 	0.43990 0.94463 0.74480 0.48900
P 	P 	0.26480 0.89191 0.58367 0.43400
P 	P 	0.14140 0.88678 0.68372 0.44900
P 	P 	0.77700 0.88398 0.57192 0.44800
P 	P 	0.09440 0.80480 0.52833 0.60700
P 	P 	0.48540 0.83646 0.62633 0.52600
P 	P 	0.97100 0.82494 0.61837 0.44000
O 	O 	0.67370 0.75020 0.54679 -0.50200
O 	O 	0.51560 0.79121 0.54445 -0.52000
O 	O 	0.73120 0.79278 0.56835 -0.43400
O 	O 	0.15500 0.96466 0.69842 -0.46100
O 	O 	0.16170 0.01596 0.68981 -0.44900
O 	O 	0.36400 0.99309 0.70537 -0.46100
O 	O 	0.50640 0.93137 0.62290 -0.44600
O 	O 	0.45160 0.95022 0.66304 -0.43600
O 	O 	0.66020 0.92240 0.65805 -0.52700
O 	O 	0.49630 0.92638 0.76458 -0.45800
O 	O 	0.29150 0.94367 0.74555 -0.46200
O 	O 	0.49940 0.93819 0.71985 -0.47100
O 	O 	0.20810 0.89231 0.60956 -0.47200
O 	O 	0.41530 0.89450 0.58188 -0.43800
O 	O 	0.22390 0.86690 0.56962 -0.42800
O 	O 	0.21530 0.89800 0.70529 -0.43700
O 	O 	0.24320 0.87760 0.66522 -0.42700
O 	O 	0.04260 0.90679 0.67315 -0.52100
O 	O 	0.92560 0.87997 0.57339 -0.47600
O 	O 	0.72560 0.89942 0.59399 -0.46900
O 	O 	0.69920 0.85759 0.56753 -0.46700
O 	O 	0.24160 0.80171 0.53612 -0.51900
O 	O 	0.07390 0.80371 0.50119 -0.52900
O 	O 	0.03340 0.83120 0.53787 -0.44900
O 	O 	0.33490 0.83440 0.62835 -0.44100
O 	O 	0.54180 0.86557 0.62976 -0.48900
O 	O 	0.52880 0.82222 0.60318 -0.44200
O 	O 	0.02140 0.84750 0.63491 -0.45200
O 	O 	0.04870 0.82300 0.59479 -0.45800
O 	O 	0.82220 0.82715 0.61564 -0.46500
H 	H 	0.73280 0.79090 0.52600 -0.01100
H 	H 	0.16220 0.99690 0.72800 -0.05700
H 	H 	0.62660 0.96380 0.64250 -0.08500
H 	H 	0.47610 0.96700 0.74840 -0.10800
H 	H 	0.21100 0.91790 0.57290 -0.00400
H 	H 	0.09960 0.85830 0.68660 -0.03600
H 	H 	0.72190 0.89670 0.55290 -0.02400
H 	H 	0.09860 0.78460 0.53320 -0.12100
H 	H 	0.48460 0.82760 0.64280 -0.09900
H 	H 	0.98630 0.80670 0.63370 -0.04000
Ga	Ga	0.62320 0.72312 0.52277 2.10600
Zn	Zn	0.83178 0.56752 0.72027 1.22800
Zn	Zn	0.79550 0.63756 0.63334 1.22900
Zn	Zn	0.95220 0.65021 0.56815 1.22900
Zn	Zn	0.45430 0.60321 0.60715 1.23100
Zn	Zn	0.50936 0.53390 0.69435 1.22900
Zn	Zn	0.29765 0.67551 0.58812 1.23300
Zn	Zn	0.14837 0.58529 0.66529 1.15400
P 	P 	0.33930 0.71865 0.54628 0.49100
P 	P 	0.78680 0.50743 0.70537 0.44100
P 	P 	0.43470 0.55788 0.64576 0.48300
P 	P 	0.56010 0.55537 0.74480 0.49000
P 	P 	0.73520 0.60809 0.58367 0.43300
P 	P 	0.85860 0.61322 0.68372 0.44800
P 	P 	0.22300 0.61602 0.57192 0.44800
P 	P 	0.90560 0.69520 0.52833 0.60600
P 	P 	0.51460 0.66354 0.62633 0.52700
P 	P 	0.02900 0.67506 0.61837 0.48100
O 	O 	0.32630 0.74980 0.54679 -0.50000
O 	O 	0.48440 0.70879 0.54445 -0.52000
O 	O 	0.26880 0.70722 0.56835 -0.42800
O 	O 	0.84500 0.53534 0.69842 -0.46800
O 	O 	0.83830 0.48404 0.68981 -0.45900
O 	O 	0.63600 0.50691 0.70537 -0.46100
O 	O 	0.49360 0.56863 0.62290 -0.44600
O 	O 	0.54840 0.54978 0.66304 -0.43700
O 	O 	0.33980 0.57760 0.65805 -0.52400
O 	O 	0.50370 0.57362 0.76458 -0.45900
O 	O 	0.70850 0.55633 0.74555 -0.46800
O 	O 	0.50060 0.56181 0.71985 -0.47100
O 	O 	0.79190 0.60769 0.60956 -0.47600
O 	O 	0.58470 0.60550 0.58188 -0.43800
O 	O 	0.77610 0.63310 0.56962 -0.43100
O 	O 	0.78470 0.60200 0.70529 -0.44100
O 	O 	0.75680 0.62240 0.66522 -0.42800
O 	O 	0.95740 0.59321 0.67315 -0.53200
O 	O 	0.07440 0.62003 0.57339 -0.46000
O 	O 	0.27440 0.60058 0.59399 -0.46500
O 	O 	0.30080 0.64241 0.56753 -0.46400
O 	O 	0.75840 0.69829 0.53612 -0.52000
O 	O 	0.92610 0.69629 0.50119 -0.54000
O 	O 	0.96660 0.66880 0.53787 -0.46000
O 	O 	0.66510 0.66560 0.62835 -0.44300
O 	O 	0.45820 0.63443 0.62976 -0.48700
O 	O 	0.47120 0.67778 0.60318 -0.44100
O 	O 	0.97860 0.65250 0.63491 -0.47600
O 	O 	0.95130 0.67700 0.59479 -0.48100
O 	O 	0.17780 0.67285 0.61564 -0.46500
H 	H 	0.26720 0.70910 0.52600 -0.00700
H 	H 	0.83780 0.50310 0.72800 -0.06300
H 	H 	0.37340 0.53620 0.64250 -0.08300
H 	H 	0.52390 0.53300 0.74840 -0.10800
H 	H 	0.78900 0.58210 0.57290 -0.00900
H 	H 	0.90040 0.64170 0.68660 -0.04100
H 	H 	0.27810 0.60330 0.55290 -0.02100
H 	H 	0.90140 0.71540 0.53320 -0.12600
H 	H 	0.51540 0.67240 0.64280 -0.09900
H 	H 	0.01370 0.69330 0.63370 -0.03600
Ga	Ga	0.12320 0.22312 0.02277 2.10700
Zn	Zn	0.33178 0.06752 0.22027 1.22900
Zn	Zn	0.29550 0.13756 0.13334 1.22900
Zn	Zn	0.45220 0.15021 0.06815 1.23200
Zn	Zn	0.95430 0.10321 0.10715 1.22900
Zn	Zn	0.00936 0.03390 0.19435 1.23100
Zn	Zn	0.79765 0.17551 0.08812 1.23200
Zn	Zn	0.64837 0.08529 0.16529 1.15100
P 	P 	0.83930 0.21865 0.04628 0.49100
P 	P 	0.28680 0.00743 0.20537 0.44100
P 	P 	0.93470 0.05788 0.14576 0.47600
P 	P 	0.06010 0.05537 0.24480 0.48900
P 	P 	0.23520 0.10809 0.08367 0.43400
P 	P 	0.35860 0.11322 0.18372 0.44800
P 	P 	0.72300 0.11602 0.07192 0.44800
P 	P 	0.40560 0.19520 0.02833 0.60600
P 	P 	0.01460 0.16354 0.12633 0.54700
P 	P 	0.52900 0.17506 0.11837 0.46200
O 	O 	0.82630 0.24980 0.04679 -0.50500
O 	O 	0.98440 0.20879 0.04445 -0.52900
O 	O 	0.76880 0.20722 0.06835 -0.43200
O 	O 	0.34500 0.03534 0.19842 -0.46600
O 	O 	0.33830 0.98404 0.18981 -0.45400
O 	O 	0.13600 0.00691 0.20537 -0.45900
O 	O 	0.99360 0.06863 0.12290 -0.45000
O 	O 	0.04840 0.04978 0.16304 -0.42900
O 	O 	0.83980 0.07760 0.15805 -0.52700
O 	O 	0.00370 0.07362 0.26458 -0.45300
O 	O 	0.20850 0.05633 0.24555 -0.46500
O 	O 	0.00060 0.06181 0.21985 -0.46700
O 	O 	0.29190 0.10769 0.10956 -0.47300
O 	O 	0.08470 0.10550 0.08188 -0.43100
O 	O 	0.27610 0.13310 0.06962 -0.42800
O 	O 	0.28470 0.10200 0.20529 -0.43800
O 	O 	0.25680 0.12240 0.16522 -0.42600
O 	O 	0.45740 0.09321 0.17315 -0.52800
O 	O 	0.57440 0.12003 0.07339 -0.46700
O 	O 	0.77440 0.10058 0.09399 -0.46800
O 	O 	0.80080 0.14241 0.06753 -0.46700
O 	O 	0.25840 0.19829 0.03612 -0.51700
O 	O 	0.42610 0.19629 0.00119 -0.53400
O 	O 	0.46660 0.16880 0.03787 -0.45400
O 	O 	0.16510 0.16560 0.12835 -0.44200
O 	O 	0.95820 0.13443 0.12976 -0.49900
O 	O 	0.97120 0.17778 0.10318 -0.45300
O 	O 	0.47860 0.15250 0.13491 -0.46600
O 	O 	0.45130 0.17700 0.09479 -0.47000
O 	O 	0.67780 0.17285 0.11564 -0.46600
H 	H 	0.76720 0.20910 0.02600 -0.01000
H 	H 	0.33780 0.00310 0.22800 -0.06100
H 	H 	0.87340 0.03620 0.14250 -0.08500
H 	H 	0.02390 0.03300 0.24840 -0.10500
H 	H 	0.28900 0.08210 0.07290 -0.00600
H 	H 	0.40040 0.14170 0.18660 -0.03900
H 	H 	0.77810 0.10330 0.05290 -0.02500
H 	H 	0.40140 0.21540 0.03320 -0.12300
H 	H 	0.01540 0.17240 0.14280 -0.10100
H 	H 	0.51370 0.19330 0.13370 -0.03800
Ga	Ga	0.12320 0.77688 0.47723 2.10700
Zn	Zn	0.33178 0.93248 0.27973 1.22900
Zn	Zn	0.29550 0.86244 0.36666 1.22900
Zn	Zn	0.45220 0.84979 0.43185 1.23200
Zn	Zn	0.95430 0.89679 0.39285 1.22900
Zn	Zn	0.00936 0.96610 0.30565 1.23100
Zn	Zn	0.79765 0.82449 0.41188 1.23200
Zn	Zn	0.64837 0.91471 0.33471 1.15100
P 	P 	0.83930 0.78135 0.45372 0.49100
P 	P 	0.28680 0.99257 0.29463 0.44100
P 	P 	0.93470 0.94212 0.35424 0.47600
P 	P 	0.06010 0.94463 0.25520 0.48900
P 	P 	0.23520 0.89191 0.41633 0.43400
P 	P 	0.35860 0.88678 0.31628 0.44800
P 	P 	0.72300 0.88398 0.42808 0.44800
P 	P 	0.40560 0.80480 0.47167 0.60600
P 	P 	0.01460 0.83646 0.37367 0.54700
P 	P 	0.52900 0.82494 0.38163 0.46200
O 	O 	0.82630 0.75020 0.45321 -0.50500
O 	O 	0.98440 0.79121 0.45555 -0.52900
O 	O 	0.76880 0.79278 0.43165 -0.43200
O 	O 	0.34500 0.96466 0.30158 -0.46600
O 	O 	0.33830 0.01596 0.31019 -0.45400
O 	O 	0.13600 0.99309 0.29463 -0.45900
O 	O 	0.99360 0.93137 0.37710 -0.45000
O 	O 	0.04840 0.95022 0.33696 -0.42900
O 	O 	0.83980 0.92240 0.34195 -0.52700
O 	O 	0.00370 0.92638 0.23542 -0.45300
O 	O 	0.20850 0.94367 0.25445 -0.46500
O 	O 	0.00060 0.93819 0.28015 -0.46700
O 	O 	0.29190 0.89231 0.39044 -0.47300
O 	O 	0.08470 0.89450 0.41812 -0.43100
O 	O 	0.27610 0.86690 0.43038 -0.42800
O 	O 	0.28470 0.89800 0.29471 -0.43800
O 	O 	0.25680 0.87760 0.33478 -0.42600
O 	O 	0.45740 0.90679 0.32685 -0.52800
O 	O 	0.57440 0.87997 0.42661 -0.46800
O 	O 	0.77440 0.89942 0.40601 -0.46800
O 	O 	0.80080 0.85759 0.43247 -0.46700
O 	O 	0.25840 0.80171 0.46388 -0.51700
O 	O 	0.42610 0.80371 0.49881 -0.53400
O 	O 	0.46660 0.83120 0.46213 -0.45400
O 	O 	0.16510 0.83440 0.37165 -0.44200
O 	O 	0.95820 0.86557 0.37024 -0.49900
O 	O 	0.97120 0.82222 0.39682 -0.45300
O 	O 	0.47860 0.84750 0.36509 -0.46600
O 	O 	0.45130 0.82300 0.40521 -0.47000
O 	O 	0.67780 0.82715 0.38436 -0.46600
H 	H 	0.76720 0.79090 0.47400 -0.01000
H 	H 	0.33780 0.99690 0.27200 -0.06100
H 	H 	0.87340 0.96380 0.35750 -0.08500
H 	H 	0.02390 0.96700 0.25160 -0.10500
H 	H 	0.28900 0.91790 0.42710 -0.00600
H 	H 	0.40040 0.85830 0.31340 -0.03900
H 	H 	0.77810 0.89670 0.44710 -0.02500
H 	H 	0.40140 0.78460 0.46680 -0.12300
H 	H 	0.01540 0.82760 0.35720 -0.10100
H 	H 	0.51370 0.80670 0.36630 -0.03800
Ga	Ga	0.62320 0.27688 0.97723 2.10600
Zn	Zn	0.83178 0.43248 0.77973 1.22800
Zn	Zn	0.79550 0.36244 0.86666 1.22900
Zn	Zn	0.95220 0.34979 0.93185 1.22900
Zn	Zn	0.45430 0.39679 0.89285 1.23100
Zn	Zn	0.50936 0.46610 0.80565 1.22900
Zn	Zn	0.29765 0.32449 0.91188 1.23300
Zn	Zn	0.14837 0.41471 0.83471 1.15400
P 	P 	0.33930 0.28135 0.95372 0.49100
P 	P 	0.78680 0.49257 0.79463 0.44100
P 	P 	0.43470 0.44212 0.85424 0.48300
P 	P 	0.56010 0.44463 0.75520 0.49000
P 	P 	0.73520 0.39191 0.91633 0.43300
P 	P 	0.85860 0.38678 0.81628 0.44800
P 	P 	0.22300 0.38398 0.92808 0.44800
P 	P 	0.90560 0.30480 0.97167 0.60600
P 	P 	0.51460 0.33646 0.87367 0.52700
P 	P 	0.02900 0.32494 0.88163 0.48100
O 	O 	0.32630 0.25020 0.95321 -0.50000
O 	O 	0.48440 0.29121 0.95555 -0.52000
O 	O 	0.26880 0.29278 0.93165 -0.42800
O 	O 	0.84500 0.46466 0.80158 -0.46800
O 	O 	0.83830 0.51596 0.81019 -0.45900
O 	O 	0.63600 0.49309 0.79463 -0.46100
O 	O 	0.49360 0.43137 0.87710 -0.44600
O 	O 	0.54840 0.45022 0.83696 -0.43700
O 	O 	0.33980 0.42240 0.84195 -0.52400
O 	O 	0.50370 0.42638 0.73542 -0.45900
O 	O 	0.70850 0.44367 0.75445 -0.46800
O 	O 	0.50060 0.43819 0.78015 -0.47100
O 	O 	0.79190 0.39231 0.89044 -0.47600
O 	O 	0.58470 0.39450 0.91812 -0.43800
O 	O 	0.77610 0.36690 0.93038 -0.43100
O 	O 	0.78470 0.39800 0.79471 -0.44100
O 	O 	0.75680 0.37760 0.83478 -0.42800
O 	O 	0.95740 0.40679 0.82685 -0.53200
O 	O 	0.07440 0.37997 0.92661 -0.46000
O 	O 	0.27440 0.39942 0.90601 -0.46500
O 	O 	0.30080 0.35759 0.93247 -0.46400
O 	O 	0.75840 0.30171 0.96388 -0.52000
O 	O 	0.92610 0.30371 0.99881 -0.54000
O 	O 	0.96660 0.33120 0.96213 -0.46000
O 	O 	0.66510 0.33440 0.87165 -0.44300
O 	O 	0.45820 0.36557 0.87024 -0.48700
O 	O 	0.47120 0.32222 0.89682 -0.44100
O 	O 	0.97860 0.34750 0.86509 -0.47600
O 	O 	0.95130 0.32300 0.90521 -0.48100
O 	O 	0.17780 0.32715 0.88436 -0.46500
H 	H 	0.26720 0.29090 0.97400 -0.00700
H 	H 	0.83780 0.49690 0.77200 -0.06300
H 	H 	0.37340 0.46380 0.85750 -0.08300
H 	H 	0.52390 0.46700 0.75160 -0.10800
H 	H 	0.78900 0.41790 0.92710 -0.00900
H 	H 	0.90040 0.35830 0.81340 -0.04100
H 	H 	0.27810 0.39670 0.94710 -0.02100
H 	H 	0.90140 0.28460 0.96680 -0.12600
H 	H 	0.51540 0.32760 0.85720 -0.09900
H 	H 	0.01370 0.30670 0.86630 -0.03600
Ga	Ga	0.37680 0.22312 0.97723 2.10600
Zn	Zn	0.16822 0.06752 0.77973 1.23200
Zn	Zn	0.20450 0.13756 0.86666 1.22900
Zn	Zn	0.04780 0.15021 0.93185 1.23400
Zn	Zn	0.54570 0.10321 0.89285 1.23100
Zn	Zn	0.49064 0.03390 0.80565 1.22900
Zn	Zn	0.70235 0.17551 0.91188 1.23200
Zn	Zn	0.85163 0.08529 0.83471 1.14800
P 	P 	0.66070 0.21865 0.95372 0.49100
P 	P 	0.21320 0.00743 0.79463 0.44100
P 	P 	0.56530 0.05788 0.85424 0.48300
P 	P 	0.43990 0.05537 0.75520 0.48900
P 	P 	0.26480 0.10809 0.91633 0.43400
P 	P 	0.14140 0.11322 0.81628 0.44900
P 	P 	0.77700 0.11602 0.92808 0.44800
P 	P 	0.09440 0.19520 0.97167 0.60700
P 	P 	0.48540 0.16354 0.87367 0.52600
P 	P 	0.97100 0.17506 0.88163 0.44000
O 	O 	0.67370 0.24980 0.95321 -0.50200
O 	O 	0.51560 0.20879 0.95555 -0.52000
O 	O 	0.73120 0.20722 0.93165 -0.43400
O 	O 	0.15500 0.03534 0.80158 -0.46100
O 	O 	0.16170 0.98404 0.81019 -0.44900
O 	O 	0.36400 0.00691 0.79463 -0.46100
O 	O 	0.50640 0.06863 0.87710 -0.44600
O 	O 	0.45160 0.04978 0.83696 -0.43600
O 	O 	0.66020 0.07760 0.84195 -0.52700
O 	O 	0.49630 0.07362 0.73542 -0.45800
O 	O 	0.29150 0.05633 0.75445 -0.46200
O 	O 	0.49940 0.06181 0.78015 -0.47100
O 	O 	0.20810 0.10769 0.89044 -0.47200
O 	O 	0.41530 0.10550 0.91812 -0.43800
O 	O 	0.22390 0.13310 0.93038 -0.42800
O 	O 	0.21530 0.10200 0.79471 -0.43700
O 	O 	0.24320 0.12240 0.83478 -0.42700
O 	O 	0.04260 0.09321 0.82685 -0.52100
O 	O 	0.92560 0.12003 0.92661 -0.47600
O 	O 	0.72560 0.10058 0.90601 -0.46900
O 	O 	0.69920 0.14241 0.93247 -0.46700
O 	O 	0.24160 0.19829 0.96388 -0.51900
O 	O 	0.07390 0.19629 0.99881 -0.52900
O 	O 	0.03340 0.16880 0.96213 -0.44900
O 	O 	0.33490 0.16560 0.87165 -0.44100
O 	O 	0.54180 0.13443 0.87024 -0.48900
O 	O 	0.52880 0.17778 0.89682 -0.44200
O 	O 	0.02140 0.15250 0.86509 -0.45200
O 	O 	0.04870 0.17700 0.90521 -0.45800
O 	O 	0.82220 0.17285 0.88436 -0.46500
H 	H 	0.73280 0.20910 0.97400 -0.01100
H 	H 	0.16220 0.00310 0.77200 -0.05700
H 	H 	0.62660 0.03620 0.85750 -0.08500
H 	H 	0.47610 0.03300 0.75160 -0.10800
H 	H 	0.21100 0.08210 0.92710 -0.00400
H 	H 	0.09960 0.14170 0.81340 -0.03600
H 	H 	0.72190 0.10330 0.94710 -0.02400
H 	H 	0.09860 0.21540 0.96680 -0.12100
H 	H 	0.48460 0.17240 0.85720 -0.09900
H 	H 	0.98630 0.19330 0.86630 -0.04000
Ga	Ga	0.87680 0.72312 0.47723 2.10400
Zn	Zn	0.66822 0.56752 0.27973 1.22900
Zn	Zn	0.70450 0.63756 0.36666 1.22800
Zn	Zn	0.54780 0.65021 0.43185 1.23200
Zn	Zn	0.04570 0.60321 0.39285 1.23300
Zn	Zn	0.99064 0.53390 0.30565 1.22600
Zn	Zn	0.20235 0.67551 0.41188 1.23300
Zn	Zn	0.35163 0.58529 0.33471 1.15200
P 	P 	0.16070 0.71865 0.45372 0.49100
P 	P 	0.71320 0.50743 0.29463 0.44100
P 	P 	0.06530 0.55788 0.35424 0.49400
P 	P 	0.93990 0.55537 0.25520 0.49000
P 	P 	0.76480 0.60809 0.41633 0.43300
P 	P 	0.64140 0.61322 0.31628 0.44900
P 	P 	0.27700 0.61602 0.42808 0.44800
P 	P 	0.59440 0.69520 0.47167 0.60700
P 	P 	0.98540 0.66354 0.37367 0.50000
P 	P 	0.47100 0.67506 0.38163 0.46200
O 	O 	0.17370 0.74980 0.45321 -0.49800
O 	O 	0.01560 0.70879 0.45555 -0.51200
O 	O 	0.23120 0.70722 0.43165 -0.43000
O 	O 	0.65500 0.53534 0.30158 -0.46600
O 	O 	0.66170 0.48404 0.31019 -0.45700
O 	O 	0.86400 0.50691 0.29463 -0.46500
O 	O 	0.00640 0.56863 0.37710 -0.44100
O 	O 	0.95160 0.54978 0.33696 -0.44900
O 	O 	0.16020 0.57760 0.34195 -0.52300
O 	O 	0.99630 0.57362 0.23542 -0.46700
O 	O 	0.79150 0.55633 0.25445 -0.46700
O 	O 	0.99940 0.56181 0.28015 -0.47700
O 	O 	0.70810 0.60769 0.39044 -0.47700
O 	O 	0.91530 0.60550 0.41812 -0.44700
O 	O 	0.72390 0.63310 0.43038 -0.43200
O 	O 	0.71530 0.60200 0.29471 -0.44100
O 	O 	0.74320 0.62240 0.33478 -0.43100
O 	O 	0.54260 0.59321 0.32685 -0.52800
O 	O 	0.42560 0.62003 0.42661 -0.46700
O 	O 	0.22560 0.60058 0.40601 -0.46500
O 	O 	0.19920 0.64241 0.43247 -0.46200
O 	O 	0.74160 0.69829 0.46388 -0.52200
O 	O 	0.57390 0.69629 0.49881 -0.53400
O 	O 	0.53340 0.66880 0.46213 -0.45500
O 	O 	0.83490 0.66560 0.37165 -0.44200
O 	O 	0.04180 0.63443 0.37024 -0.47400
O 	O 	0.02880 0.67778 0.39682 -0.42700
O 	O 	0.52140 0.65250 0.36509 -0.46500
O 	O 	0.54870 0.67700 0.40521 -0.47100
O 	O 	0.32220 0.67285 0.38436 -0.46300
H 	H 	0.23280 0.70910 0.47400 -0.00800
H 	H 	0.66220 0.50310 0.27200 -0.06100
H 	H 	0.12660 0.53620 0.35750 -0.08300
H 	H 	0.97610 0.53300 0.25160 -0.11200
H 	H 	0.71100 0.58210 0.42710 -0.00900
H 	H 	0.59960 0.64170 0.31340 -0.03900
H 	H 	0.22190 0.60330 0.44710 -0.02000
H 	H 	0.59860 0.71540 0.46680 -0.12300
H 	H 	0.98460 0.67240 0.35720 -0.09700
H 	H 	0.48630 0.69330 0.36630 -0.03700
Ga	Ga	0.12320 0.72312 0.97723 2.10700
Zn	Zn	0.33178 0.56752 0.77973 1.22900
Zn	Zn	0.29550 0.63756 0.86666 1.22900
Zn	Zn	0.45220 0.65021 0.93185 1.23200
Zn	Zn	0.95430 0.60321 0.89285 1.22900
Zn	Zn	0.00936 0.53390 0.80565 1.23100
Zn	Zn	0.79765 0.67551 0.91188 1.23200
Zn	Zn	0.64837 0.58529 0.83471 1.15100
P 	P 	0.83930 0.71865 0.95372 0.49100
P 	P 	0.28680 0.50743 0.79463 0.44100
P 	P 	0.93470 0.55788 0.85424 0.47600
P 	P 	0.06010 0.55537 0.75520 0.48900
P 	P 	0.23520 0.60809 0.91633 0.43400
P 	P 	0.35860 0.61322 0.81628 0.44800
P 	P 	0.72300 0.61602 0.92808 0.44800
P 	P 	0.40560 0.69520 0.97167 0.60600
P 	P 	0.01460 0.66354 0.87367 0.54700
P 	P 	0.52900 0.67506 0.88163 0.46200
O 	O 	0.82630 0.74980 0.95321 -0.50500
O 	O 	0.98440 0.70879 0.95555 -0.52900
O 	O 	0.76880 0.70722 0.93165 -0.43200
O 	O 	0.34500 0.53534 0.80158 -0.46600
O 	O 	0.33830 0.48404 0.81019 -0.45400
O 	O 	0.13600 0.50691 0.79463 -0.45900
O 	O 	0.99360 0.56863 0.87710 -0.45000
O 	O 	0.04840 0.54978 0.83696 -0.42900
O 	O 	0.83980 0.57760 0.84195 -0.52700
O 	O 	0.00370 0.57362 0.73542 -0.45300
O 	O 	0.20850 0.55633 0.75445 -0.46500
O 	O 	0.00060 0.56181 0.78015 -0.46700
O 	O 	0.29190 0.60769 0.89044 -0.47300
O 	O 	0.08470 0.60550 0.91812 -0.43100
O 	O 	0.27610 0.63310 0.93038 -0.42800
O 	O 	0.28470 0.60200 0.79471 -0.43800
O 	O 	0.25680 0.62240 0.83478 -0.42600
O 	O 	0.45740 0.59321 0.82685 -0.52800
O 	O 	0.57440 0.62003 0.92661 -0.46800
O 	O 	0.77440 0.60058 0.90601 -0.46800
O 	O 	0.80080 0.64241 0.93247 -0.46700
O 	O 	0.25840 0.69829 0.96388 -0.51700
O 	O 	0.42610 0.69629 0.99881 -0.53400
O 	O 	0.46660 0.66880 0.96213 -0.45400
O 	O 	0.16510 0.66560 0.87165 -0.44200
O 	O 	0.95820 0.63443 0.87024 -0.49900
O 	O 	0.97120 0.67778 0.89682 -0.45300
O 	O 	0.47860 0.65250 0.86509 -0.46600
O 	O 	0.45130 0.67700 0.90521 -0.47000
O 	O 	0.67780 0.67285 0.88436 -0.46600
H 	H 	0.76720 0.70910 0.97400 -0.01000
H 	H 	0.33780 0.50310 0.77200 -0.06100
H 	H 	0.87340 0.53620 0.85750 -0.08500
H 	H 	0.02390 0.53300 0.75160 -0.10500
H 	H 	0.28900 0.58210 0.92710 -0.00600
H 	H 	0.40040 0.64170 0.81340 -0.03900
H 	H 	0.77810 0.60330 0.94710 -0.02500
H 	H 	0.40140 0.71540 0.96680 -0.12300
H 	H 	0.01540 0.67240 0.85720 -0.10100
H 	H 	0.51370 0.69330 0.86630 -0.03800
Ga	Ga	0.62320 0.22312 0.47723 2.10600
Zn	Zn	0.83178 0.06752 0.27973 1.22800
Zn	Zn	0.79550 0.13756 0.36666 1.22900
Zn	Zn	0.95220 0.15021 0.43185 1.22900
Zn	Zn	0.45430 0.10321 0.39285 1.23100
Zn	Zn	0.50936 0.03390 0.30565 1.22900
Zn	Zn	0.29765 0.17551 0.41188 1.23300
Zn	Zn	0.14837 0.08529 0.33471 1.15400
P 	P 	0.33930 0.21865 0.45372 0.49100
P 	P 	0.78680 0.00743 0.29463 0.44100
P 	P 	0.43470 0.05788 0.35424 0.48300
P 	P 	0.56010 0.05537 0.25520 0.49000
P 	P 	0.73520 0.10809 0.41633 0.43300
P 	P 	0.85860 0.11322 0.31628 0.44800
P 	P 	0.22300 0.11602 0.42808 0.44800
P 	P 	0.90560 0.19520 0.47167 0.60600
P 	P 	0.51460 0.16354 0.37367 0.52700
P 	P 	0.02900 0.17506 0.38163 0.48100
O 	O 	0.32630 0.24980 0.45321 -0.50000
O 	O 	0.48440 0.20879 0.45555 -0.52000
O 	O 	0.26880 0.20722 0.43165 -0.42800
O 	O 	0.84500 0.03534 0.30158 -0.46800
O 	O 	0.83830 0.98404 0.31019 -0.45900
O 	O 	0.63600 0.00691 0.29463 -0.46100
O 	O 	0.49360 0.06863 0.37710 -0.44600
O 	O 	0.54840 0.04978 0.33696 -0.43700
O 	O 	0.33980 0.07760 0.34195 -0.52400
O 	O 	0.50370 0.07362 0.23542 -0.45900
O 	O 	0.70850 0.05633 0.25445 -0.46800
O 	O 	0.50060 0.06181 0.28015 -0.47100
O 	O 	0.79190 0.10769 0.39044 -0.47600
O 	O 	0.58470 0.10550 0.41812 -0.43800
O 	O 	0.77610 0.13310 0.43038 -0.43100
O 	O 	0.78470 0.10200 0.29471 -0.44100
O 	O 	0.75680 0.12240 0.33478 -0.42800
O 	O 	0.95740 0.09321 0.32685 -0.53200
O 	O 	0.07440 0.12003 0.42661 -0.46000
O 	O 	0.27440 0.10058 0.40601 -0.46500
O 	O 	0.30080 0.14241 0.43247 -0.46400
O 	O 	0.75840 0.19829 0.46388 -0.52000
O 	O 	0.92610 0.19629 0.49881 -0.54000
O 	O 	0.96660 0.16880 0.46213 -0.46000
O 	O 	0.66510 0.16560 0.37165 -0.44300
O 	O 	0.45820 0.13443 0.37024 -0.48700
O 	O 	0.47120 0.17778 0.39682 -0.44100
O 	O 	0.97860 0.15250 0.36509 -0.47600
O 	O 	0.95130 0.17700 0.40521 -0.48100
O 	O 	0.17780 0.17285 0.38436 -0.46500
H 	H 	0.26720 0.20910 0.47400 -0.00700
H 	H 	0.83780 0.00310 0.27200 -0.06300
H 	H 	0.37340 0.03620 0.35750 -0.08300
H 	H 	0.52390 0.03300 0.25160 -0.10800
H 	H 	0.78900 0.08210 0.42710 -0.00900
H 	H 	0.90040 0.14170 0.31340 -0.04100
H 	H 	0.27810 0.10330 0.44710 -0.02100
H 	H 	0.90140 0.21540 0.46680 -0.12600
H 	H 	0.51540 0.17240 0.35720 -0.09900
H 	H 	0.01370 0.19330 0.36630 -0.03600
Ga	Ga	0.37680 0.27688 0.47723 2.10600
Zn	Zn	0.16822 0.43248 0.27973 1.23200
Zn	Zn	0.20450 0.36244 0.36666 1.22900
Zn	Zn	0.04780 0.34979 0.43185 1.23400
Zn	Zn	0.54570 0.39679 0.39285 1.23100
Zn	Zn	0.49064 0.46610 0.30565 1.22900
Zn	Zn	0.70235 0.32449 0.41188 1.23200
Zn	Zn	0.85163 0.41471 0.33471 1.14800
P 	P 	0.66070 0.28135 0.45372 0.49100
P 	P 	0.21320 0.49257 0.29463 0.44100
P 	P 	0.56530 0.44212 0.35424 0.48300
P 	P 	0.43990 0.44463 0.25520 0.48900
P 	P 	0.26480 0.39191 0.41633 0.43400
P 	P 	0.14140 0.38678 0.31628 0.44900
P 	P 	0.77700 0.38398 0.42808 0.44800
P 	P 	0.09440 0.30480 0.47167 0.60700
P 	P 	0.48540 0.33646 0.37367 0.52600
P 	P 	0.97100 0.32494 0.38163 0.44000
O 	O 	0.67370 0.25020 0.45321 -0.50200
O 	O 	0.51560 0.29121 0.45555 -0.52000
O 	O 	0.73120 0.29278 0.43165 -0.43400
O 	O 	0.15500 0.46466 0.30158 -0.46100
O 	O 	0.16170 0.51596 0.31019 -0.44900
O 	O 	0.36400 0.49309 0.29463 -0.46100
O 	O 	0.50640 0.43137 0.37710 -0.44600
O 	O 	0.45160 0.45022 0.33696 -0.43600
O 	O 	0.66020 0.42240 0.34195 -0.52700
O 	O 	0.49630 0.42638 0.23542 -0.45800
O 	O 	0.29150 0.44367 0.25445 -0.46200
O 	O 	0.49940 0.43819 0.28015 -0.47100
O 	O 	0.20810 0.39231 0.39044 -0.47200
O 	O 	0.41530 0.39450 0.41812 -0.43800
O 	O 	0.22390 0.36690 0.43038 -0.42800
O 	O 	0.21530 0.39800 0.29471 -0.43700
O 	O 	0.24320 0.37760 0.33478 -0.42700
O 	O 	0.04260 0.40679 0.32685 -0.52100
O 	O 	0.92560 0.37997 0.42661 -0.47600
O 	O 	0.72560 0.39942 0.40601 -0.46900
O 	O 	0.69920 0.35759 0.43247 -0.46700
O 	O 	0.24160 0.30171 0.46388 -0.51900
O 	O 	0.07390 0.30371 0.49881 -0.52900
O 	O 	0.03340 0.33120 0.46213 -0.44900
O 	O 	0.33490 0.33440 0.37165 -0.44100
O 	O 	0.54180 0.36557 0.37024 -0.48900
O 	O 	0.52880 0.32222 0.39682 -0.44200
O 	O 	0.02140 0.34750 0.36509 -0.45200
O 	O 	0.04870 0.32300 0.40521 -0.45800
O 	O 	0.82220 0.32715 0.38436 -0.46500
H 	H 	0.73280 0.29090 0.47400 -0.01100
H 	H 	0.16220 0.49690 0.27200 -0.05700
H 	H 	0.62660 0.46380 0.35750 -0.08500
H 	H 	0.47610 0.46700 0.25160 -0.10800
H 	H 	0.21100 0.41790 0.42710 -0.00400
H 	H 	0.09960 0.35830 0.31340 -0.03600
H 	H 	0.72190 0.39670 0.44710 -0.02400
H 	H 	0.09860 0.28460 0.46680 -0.12100
H 	H 	0.48460 0.32760 0.35720 -0.09900
H 	H 	0.98630 0.30670 0.36630 -0.04000
Ga	Ga	0.87680 0.77688 0.97723 2.10400
Zn	Zn	0.66822 0.93248 0.77973 1.22900
Zn	Zn	0.70450 0.86244 0.86666 1.22800
Zn	Zn	0.54780 0.84979 0.93185 1.23200
Zn	Zn	0.04570 0.89679 0.89285 1.23300
Zn	Zn	0.99064 0.96610 0.80565 1.22600
Zn	Zn	0.20235 0.82449 0.91188 1.23300
Zn	Zn	0.35163 0.91471 0.83471 1.15200
P 	P 	0.16070 0.78135 0.95372 0.49100
P 	P 	0.71320 0.99257 0.79463 0.44100
P 	P 	0.06530 0.94212 0.85424 0.49400
P 	P 	0.93990 0.94463 0.75520 0.49000
P 	P 	0.76480 0.89191 0.91633 0.43300
P 	P 	0.64140 0.88678 0.81628 0.44900
P 	P 	0.27700 0.88398 0.92808 0.44800
P 	P 	0.59440 0.80480 0.97167 0.60700
P 	P 	0.98540 0.83646 0.87367 0.50000
P 	P 	0.47100 0.82494 0.88163 0.46200
O 	O 	0.17370 0.75020 0.95321 -0.49800
O 	O 	0.01560 0.79121 0.95555 -0.51200
O 	O 	0.23120 0.79278 0.93165 -0.43000
O 	O 	0.65500 0.96466 0.80158 -0.46600
O 	O 	0.66170 0.01596 0.81019 -0.45700
O 	O 	0.86400 0.99309 0.79463 -0.46500
O 	O 	0.00640 0.93137 0.87710 -0.44100
O 	O 	0.95160 0.95022 0.83696 -0.44900
O 	O 	0.16020 0.92240 0.84195 -0.52300
O 	O 	0.99630 0.92638 0.73542 -0.46700
O 	O 	0.79150 0.94367 0.75445 -0.46700
O 	O 	0.99940 0.93819 0.78015 -0.47700
O 	O 	0.70810 0.89231 0.89044 -0.47700
O 	O 	0.91530 0.89450 0.91812 -0.44700
O 	O 	0.72390 0.86690 0.93038 -0.43200
O 	O 	0.71530 0.89800 0.79471 -0.44100
O 	O 	0.74320 0.87760 0.83478 -0.43100
O 	O 	0.54260 0.90679 0.82685 -0.52800
O 	O 	0.42560 0.87997 0.92661 -0.46700
O 	O 	0.22560 0.89942 0.90601 -0.46500
O 	O 	0.19920 0.85759 0.93247 -0.46200
O 	O 	0.74160 0.80171 0.96388 -0.52200
O 	O 	0.57390 0.80371 0.99881 -0.53400
O 	O 	0.53340 0.83120 0.96213 -0.45500
O 	O 	0.83490 0.83440 0.87165 -0.44200
O 	O 	0.04180 0.86557 0.87024 -0.47400
O 	O 	0.02880 0.82222 0.89682 -0.42700
O 	O 	0.52140 0.84750 0.86509 -0.46500
O 	O 	0.54870 0.82300 0.90521 -0.47100
O 	O 	0.32220 0.82715 0.88436 -0.46300
H 	H 	0.23280 0.79090 0.97400 -0.00800
H 	H 	0.66220 0.99690 0.77200 -0.06100
H 	H 	0.12660 0.96380 0.85750 -0.08300
H 	H 	0.97610 0.96700 0.75160 -0.11200
H 	H 	0.71100 0.91790 0.92710 -0.00900
H 	H 	0.59960 0.85830 0.81340 -0.03900
H 	H 	0.22190 0.89670 0.94710 -0.02000
H 	H 	0.59860 0.78460 0.96680 -0.12300
H 	H 	0.98460 0.82760 0.85720 -0.09700
H 	H 	0.48630 0.80670 0.86630 -0.03700
Ga	Ga	0.87680 0.22312 0.52277 2.10400
Zn	Zn	0.66822 0.06752 0.72027 1.22900
Zn	Zn	0.70450 0.13756 0.63334 1.22800
Zn	Zn	0.54780 0.15021 0.56815 1.23200
Zn	Zn	0.04570 0.10321 0.60715 1.23300
Zn	Zn	0.99064 0.03390 0.69435 1.22600
Zn	Zn	0.20235 0.17551 0.58812 1.23300
Zn	Zn	0.35163 0.08529 0.66529 1.15200
P 	P 	0.16070 0.21865 0.54628 0.49100
P 	P 	0.71320 0.00743 0.70537 0.44100
P 	P 	0.06530 0.05788 0.64576 0.49400
P 	P 	0.93990 0.05537 0.74480 0.49000
P 	P 	0.76480 0.10809 0.58367 0.43300
P 	P 	0.64140 0.11322 0.68372 0.44900
P 	P 	0.27700 0.11602 0.57192 0.44800
P 	P 	0.59440 0.19520 0.52833 0.60700
P 	P 	0.98540 0.16354 0.62633 0.50000
P 	P 	0.47100 0.17506 0.61837 0.46200
O 	O 	0.17370 0.24980 0.54679 -0.49800
O 	O 	0.01560 0.20879 0.54445 -0.51200
O 	O 	0.23120 0.20722 0.56835 -0.43000
O 	O 	0.65500 0.03534 0.69842 -0.46600
O 	O 	0.66170 0.98404 0.68981 -0.45700
O 	O 	0.86400 0.00691 0.70537 -0.46500
O 	O 	0.00640 0.06863 0.62290 -0.44100
O 	O 	0.95160 0.04978 0.66304 -0.44900
O 	O 	0.16020 0.07760 0.65805 -0.52300
O 	O 	0.99630 0.07362 0.76458 -0.46700
O 	O 	0.79150 0.05633 0.74555 -0.46700
O 	O 	0.99940 0.06181 0.71985 -0.47700
O 	O 	0.70810 0.10769 0.60956 -0.47700
O 	O 	0.91530 0.10550 0.58188 -0.44700
O 	O 	0.72390 0.13310 0.56962 -0.43200
O 	O 	0.71530 0.10200 0.70529 -0.44100
O 	O 	0.74320 0.12240 0.66522 -0.43100
O 	O 	0.54260 0.09321 0.67315 -0.52800
O 	O 	0.42560 0.12003 0.57339 -0.46700
O 	O 	0.22560 0.10058 0.59399 -0.46500
O 	O 	0.19920 0.14241 0.56753 -0.46200
O 	O 	0.74160 0.19829 0.53612 -0.52200
O 	O 	0.57390 0.19629 0.50119 -0.53400
O 	O 	0.53340 0.16880 0.53787 -0.45500
O 	O 	0.83490 0.16560 0.62835 -0.44200
O 	O 	0.04180 0.13443 0.62976 -0.47400
O 	O 	0.02880 0.17778 0.60318 -0.42700
O 	O 	0.52140 0.15250 0.63491 -0.46500
O 	O 	0.54870 0.17700 0.59479 -0.47100
O 	O 	0.32220 0.17285 0.61564 -0.46300
H 	H 	0.23280 0.20910 0.52600 -0.00800
H 	H 	0.66220 0.00310 0.72800 -0.06100
H 	H 	0.12660 0.03620 0.64250 -0.08300
H 	H 	0.97610 0.03300 0.74840 -0.11200
H 	H 	0.71100 0.08210 0.57290 -0.00900
H 	H 	0.59960 0.14170 0.68660 -0.03900
H 	H 	0.22190 0.10330 0.55290 -0.02000
H 	H 	0.59860 0.21540 0.53320 -0.12300
H 	H 	0.98460 0.17240 0.64280 -0.09700
H 	H 	0.48630 0.19330 0.63370 -0.03700
Ga	Ga	0.37680 0.72312 0.02277 2.10600
Zn	Zn	0.16822 0.56752 0.22027 1.23200
Zn	Zn	0.20450 0.63756 0.13334 1.22900
Zn	Zn	0.04780 0.65021 0.06815 1.23400
Zn	Zn	0.54570 0.60321 0.10715 1.23100
Zn	Zn	0.49064 0.53390 0.19435 1.22900
Zn	Zn	0.70235 0.67551 0.08812 1.23200
Zn	Zn	0.85163 0.58529 0.16529 1.14800
P 	P 	0.66070 0.71865 0.04628 0.49100
P 	P 	0.21320 0.50743 0.20537 0.44100
P 	P 	0.56530 0.55788 0.14576 0.48300
P 	P 	0.43990 0.55537 0.24480 0.48900
P 	P 	0.26480 0.60809 0.08367 0.43400
P 	P 	0.14140 0.61322 0.18372 0.44900
P 	P 	0.77700 0.61602 0.07192 0.44800
P 	P 	0.09440 0.69520 0.02833 0.60700
P 	P 	0.48540 0.66354 0.12633 0.52600
P 	P 	0.97100 0.67506 0.11837 0.44000
O 	O 	0.67370 0.74980 0.04679 -0.50200
O 	O 	0.51560 0.70879 0.04445 -0.52000
O 	O 	0.73120 0.70722 0.06835 -0.43400
O 	O 	0.15500 0.53534 0.19842 -0.46100
O 	O 	0.16170 0.48404 0.18981 -0.44900
O 	O 	0.36400 0.50691 0.20537 -0.46100
O 	O 	0.50640 0.56863 0.12290 -0.44600
O 	O 	0.45160 0.54978 0.16304 -0.43600
O 	O 	0.66020 0.57760 0.15805 -0.52700
O 	O 	0.49630 0.57362 0.26458 -0.45800
O 	O 	0.29150 0.55633 0.24555 -0.46200
O 	O 	0.49940 0.56181 0.21985 -0.47100
O 	O 	0.20810 0.60769 0.10956 -0.47200
O 	O 	0.41530 0.60550 0.08188 -0.43800
O 	O 	0.22390 0.63310 0.06962 -0.42800
O 	O 	0.21530 0.60200 0.20529 -0.43700
O 	O 	0.24320 0.62240 0.16522 -0.42700
O 	O 	0.04260 0.59321 0.17315 -0.52100
O 	O 	0.92560 0.62003 0.07339 -0.47600
O 	O 	0.72560 0.60058 0.09399 -0.46900
O 	O 	0.69920 0.64241 0.06753 -0.46700
O 	O 	0.24160 0.69829 0.03612 -0.51900
O 	O 	0.07390 0.69629 0.00119 -0.52900
O 	O 	0.03340 0.66880 0.03787 -0.44900
O 	O 	0.33490 0.66560 0.12835 -0.44100
O 	O 	0.54180 0.63443 0.12976 -0.48900
O 	O 	0.52880 0.67778 0.10318 -0.44200
O 	O 	0.02140 0.65250 0.13491 -0.45200
O 	O 	0.04870 0.67700 0.09479 -0.45800
O 	O 	0.82220 0.67285 0.11564 -0.46500
H 	H 	0.73280 0.70910 0.02600 -0.01100
H 	H 	0.16220 0.50310 0.22800 -0.05700
H 	H 	0.62660 0.53620 0.14250 -0.08500
H 	H 	0.47610 0.53300 0.24840 -0.10800
H 	H 	0.21100 0.58210 0.07290 -0.00400
H 	H 	0.09960 0.64170 0.18660 -0.03600
H 	H 	0.72190 0.60330 0.05290 -0.02400
H 	H 	0.09860 0.71540 0.03320 -0.12100
H 	H 	0.48460 0.67240 0.14280 -0.09900
H 	H 	0.98630 0.69330 0.13370 -0.04000
Ga	Ga	0.62320 0.77688 0.02277 2.10600
Zn	Zn	0.83178 0.93248 0.22027 1.22800
Zn	Zn	0.79550 0.86244 0.13334 1.22900
Zn	Zn	0.95220 0.84979 0.06815 1.22900
Zn	Zn	0.45430 0.89679 0.10715 1.23100
Zn	Zn	0.50936 0.96610 0.19435 1.22900
Zn	Zn	0.29765 0.82449 0.08812 1.23300
Zn	Zn	0.14837 0.91471 0.16529 1.15400
P 	P 	0.33930 0.78135 0.04628 0.49100
P 	P 	0.78680 0.99257 0.20537 0.44100
P 	P 	0.43470 0.94212 0.14576 0.48300
P 	P 	0.56010 0.94463 0.24480 0.49000
P 	P 	0.73520 0.89191 0.08367 0.43300
P 	P 	0.85860 0.88678 0.18372 0.44800
P 	P 	0.22300 0.88398 0.07192 0.44800
P 	P 	0.90560 0.80480 0.02833 0.60600
P 	P 	0.51460 0.83646 0.12633 0.52700
P 	P 	0.02900 0.82494 0.11837 0.48100
O 	O 	0.32630 0.75020 0.04679 -0.50000
O 	O 	0.48440 0.79121 0.04445 -0.52000
O 	O 	0.26880 0.79278 0.06835 -0.42800
O 	O 	0.84500 0.96466 0.19842 -0.46800
O 	O 	0.83830 0.01596 0.18981 -0.45900
O 	O 	0.63600 0.99309 0.20537 -0.46100
O 	O 	0.49360 0.93137 0.12290 -0.44600
O 	O 	0.54840 0.95022 0.16304 -0.43700
O 	O 	0.33980 0.92240 0.15805 -0.52400
O 	O 	0.50370 0.92638 0.26458 -0.45900
O 	O 	0.70850 0.94367 0.24555 -0.46800
O 	O 	0.50060 0.93819 0.21985 -0.47100
O 	O 	0.79190 0.89231 0.10956 -0.47600
O 	O 	0.58470 0.89450 0.08188 -0.43800
O 	O 	0.77610 0.86690 0.06962 -0.43100
O 	O 	0.78470 0.89800 0.20529 -0.44100
O 	O 	0.75680 0.87760 0.16522 -0.42800
O 	O 	0.95740 0.90679 0.17315 -0.53200
O 	O 	0.07440 0.87997 0.07339 -0.46000
O 	O 	0.27440 0.89942 0.09399 -0.46500
O 	O 	0.30080 0.85759 0.06753 -0.46400
O 	O 	0.75840 0.80171 0.03612 -0.52000
O 	O 	0.92610 0.80371 0.00119 -0.53900
O 	O 	0.96660 0.83120 0.03787 -0.46000
O 	O 	0.66510 0.83440 0.12835 -0.44300
O 	O 	0.45820 0.86557 0.12976 -0.48700
O 	O 	0.47120 0.82222 0.10318 -0.44100
O 	O 	0.97860 0.84750 0.13491 -0.47600
O 	O 	0.95130 0.82300 0.09479 -0.48100
O 	O 	0.17780 0.82715 0.11564 -0.46500
H 	H 	0.26720 0.79090 0.02600 -0.00700
H 	H 	0.83780 0.99690 0.22800 -0.06300
H 	H 	0.37340 0.96380 0.14250 -0.08300
H 	H 	0.52390 0.96700 0.24840 -0.10800
H 	H 	0.78900 0.91790 0.07290 -0.00900
H 	H 	0.90040 0.85830 0.18660 -0.04100
H 	H 	0.27810 0.89670 0.05290 -0.02100
H 	H 	0.90140 0.78460 0.03320 -0.12600
H 	H 	0.51540 0.82760 0.14280 -0.09900
H 	H 	0.01370 0.80670 0.13370 -0.03600
Ga	Ga	0.12320 0.27688 0.52277 2.10700
Zn	Zn	0.33178 0.43248 0.72027 1.22900
Zn	Zn	0.29550 0.36244 0.63334 1.22900
Zn	Zn	0.45220 0.34979 0.56815 1.23200
Zn	Zn	0.95430 0.39679 0.60715 1.22900
Zn	Zn	0.00936 0.46610 0.69435 1.23100
Zn	Zn	0.79765 0.32449 0.58812 1.23200
Zn	Zn	0.64837 0.41471 0.66529 1.15100
P 	P 	0.83930 0.28135 0.54628 0.49100
P 	P 	0.28680 0.49257 0.70537 0.44100
P 	P 	0.93470 0.44212 0.64576 0.47600
P 	P 	0.06010 0.44463 0.74480 0.48900
P 	P 	0.23520 0.39191 0.58367 0.43400
P 	P 	0.35860 0.38678 0.68372 0.44800
P 	P 	0.72300 0.38398 0.57192 0.44800
P 	P 	0.40560 0.30480 0.52833 0.60600
P 	P 	0.01460 0.33646 0.62633 0.54700
P 	P 	0.52900 0.32494 0.61837 0.46200
O 	O 	0.82630 0.25020 0.54679 -0.50500
O 	O 	0.98440 0.29121 0.54445 -0.52900
O 	O 	0.76880 0.29278 0.56835 -0.43200
O 	O 	0.34500 0.46466 0.69842 -0.46600
O 	O 	0.33830 0.51596 0.68981 -0.45400
O 	O 	0.13600 0.49309 0.70537 -0.45900
O 	O 	0.99360 0.43137 0.62290 -0.45000
O 	O 	0.04840 0.45022 0.66304 -0.42900
O 	O 	0.83980 0.42240 0.65805 -0.52700
O 	O 	0.00370 0.42638 0.76458 -0.45300
O 	O 	0.20850 0.44367 0.74555 -0.46500
O 	O 	0.00060 0.43819 0.71985 -0.46700
O 	O 	0.29190 0.39231 0.60956 -0.47300
O 	O 	0.08470 0.39450 0.58188 -0.43100
O 	O 	0.27610 0.36690 0.56962 -0.42800
O 	O 	0.28470 0.39800 0.70529 -0.43800
O 	O 	0.25680 0.37760 0.66522 -0.42600
O 	O 	0.45740 0.40679 0.67315 -0.52800
O 	O 	0.57440 0.37997 0.57339 -0.46800
O 	O 	0.77440 0.39942 0.59399 -0.46800
O 	O 	0.80080 0.35759 0.56753 -0.46700
O 	O 	0.25840 0.30171 0.53612 -0.51700
O 	O 	0.42610 0.30371 0.50119 -0.53400
O 	O 	0.46660 0.33120 0.53787 -0.45400
O 	O 	0.16510 0.33440 0.62835 -0.44200
O 	O 	0.95820 0.36557 0.62976 -0.49900
O 	O 	0.97120 0.32222 0.60318 -0.45300
O 	O 	0.47860 0.34750 0.63491 -0.46600
O 	O 	0.45130 0.32300 0.59479 -0.47000
O 	O 	0.67780 0.32715 0.61564 -0.46600
H 	H 	0.76720 0.29090 0.52600 -0.01000
H 	H 	0.33780 0.49690 0.72800 -0.06100
H 	H 	0.87340 0.46380 0.64250 -0.08500
H 	H 	0.02390 0.46700 0.74840 -0.10500
H 	H 	0.28900 0.41790 0.57290 -0.00600
H 	H 	0.40040 0.35830 0.68660 -0.03900
H 	H 	0.77810 0.39670 0.55290 -0.02500
H 	H 	0.40140 0.28460 0.53320 -0.12300
H 	H 	0.01540 0.32760 0.64280 -0.10100
H 	H 	0.51370 0.30670 0.63370 -0.03800
F 	F 	0.75000 0.26105 -0.00000 -0.83000
F 	F 	0.75000 0.73895 0.50000 -0.83000
F 	F 	0.25000 0.76105 0.50000 -0.82700
F 	F 	0.25000 0.23895 -0.00000 -0.82700
F 	F 	0.25000 0.73895 -0.00000 -0.82700
F 	F 	0.25000 0.26105 0.50000 -0.82700
F 	F 	0.75000 0.23895 0.50000 -0.83000
F 	F 	0.75000 0.76105 -0.00000 -0.83000
F 	F 	-0.00000 0.25000 0.00884 -0.81700
F 	F 	0.50000 0.75000 0.50884 -0.82400
F 	F 	0.00000 0.75000 0.49116 -0.81700
F 	F 	0.50000 0.25000 0.99116 -0.82400
F 	F 	0.00000 0.75000 0.99116 -0.81700
F 	F 	0.50000 0.25000 0.49116 -0.82400
F 	F 	0.00000 0.25000 0.50884 -0.81700
F 	F 	0.50000 0.75000 0.00884 -0.82400
