data_crystal

_cell_length_a 15.70100
_cell_length_b 14.96400
_cell_length_c 17.33900
_cell_angle_alpha 90.00000
_cell_angle_beta  115.09600
_cell_angle_gamma 90.00000

_symmetry_space_group_name_	'P 1'
_symmetry_space_group_name_H-M	'P 1'

loop_
_symmetry_equiv_pos_as_xyz
  x,y,z

loop_
_atom_site_label
_atom_site_type_symbol
_atom_site_fract_x
_atom_site_fract_y
_atom_site_fract_z
_atom_site_charge
Zn	Zn	0.04440 0.94929 0.34516 1.21800
O 	O 	0.04330 0.94200 0.68140 -0.45600
O 	O 	0.13450 0.97130 0.81740 -0.46600
O 	O 	0.42970 0.62940 0.81420 -0.46400
O 	O 	0.38930 0.65730 0.67710 -0.45500
N 	N 	0.10080 0.95190 0.47100 -0.25400
N 	N 	0.16790 0.91270 0.60390 -0.14500
C 	C 	0.12540 0.88470 0.52300 0.12100
H 	H 	0.11490 0.82520 0.50640 -0.01100
C 	C 	0.13010 0.02820 0.52130 0.00300
H 	H 	0.12380 0.08670 0.50150 0.03000
C 	C 	0.16860 0.00330 0.60210 0.01200
H 	H 	0.19200 0.04100 0.64920 0.04200
C 	C 	0.20850 0.85710 0.67650 0.15800
C 	C 	0.27080 0.79350 0.67610 -0.12800
H 	H 	0.28240 0.78590 0.62820 0.09600
C 	C 	0.31600 0.74110 0.74660 -0.01100
C 	C 	0.30190 0.75350 0.81910 -0.08300
H 	H 	0.33370 0.71890 0.86750 0.07400
C 	C 	0.23880 0.81920 0.81780 0.05900
H 	H 	0.23020 0.82940 0.86690 0.02600
C 	C 	0.18880 0.86940 0.74680 -0.16100
C 	C 	0.11640 0.93300 0.74930 0.42500
C 	C 	0.38460 0.67020 0.74580 0.36900
Zn	Zn	0.54440 0.44929 0.34516 1.21900
O 	O 	0.54330 0.44200 0.68140 -0.45600
O 	O 	0.63450 0.47130 0.81740 -0.46700
O 	O 	0.92970 0.12940 0.81420 -0.46300
O 	O 	0.88930 0.15730 0.67710 -0.45500
N 	N 	0.60080 0.45190 0.47100 -0.25400
N 	N 	0.66790 0.41270 0.60390 -0.14600
C 	C 	0.62540 0.38470 0.52300 0.12100
H 	H 	0.61490 0.32520 0.50640 -0.01100
C 	C 	0.63010 0.52820 0.52130 0.00300
H 	H 	0.62380 0.58670 0.50150 0.03000
C 	C 	0.66860 0.50330 0.60210 0.01300
H 	H 	0.69200 0.54100 0.64920 0.04200
C 	C 	0.70850 0.35710 0.67650 0.15800
C 	C 	0.77080 0.29350 0.67610 -0.12800
H 	H 	0.78240 0.28590 0.62820 0.09600
C 	C 	0.81600 0.24110 0.74660 -0.01100
C 	C 	0.80190 0.25350 0.81910 -0.08400
H 	H 	0.83370 0.21890 0.86750 0.07300
C 	C 	0.73880 0.31920 0.81780 0.05900
H 	H 	0.73020 0.32940 0.86690 0.02600
C 	C 	0.68880 0.36940 0.74680 -0.16200
C 	C 	0.61640 0.43300 0.74930 0.42600
C 	C 	0.88460 0.17020 0.74580 0.36900
Zn	Zn	0.95560 0.94929 0.15484 1.21800
O 	O 	0.95670 0.94200 0.81860 -0.45400
O 	O 	0.86550 0.97130 0.68260 -0.46600
O 	O 	0.57030 0.62940 0.68580 -0.46300
O 	O 	0.61070 0.65730 0.82290 -0.45500
N 	N 	0.89920 0.95190 0.02900 -0.25900
N 	N 	0.83210 0.91270 0.89610 -0.14500
C 	C 	0.87460 0.88470 0.97700 0.12800
H 	H 	0.88510 0.82520 0.99360 -0.01200
C 	C 	0.86990 0.02820 0.97870 0.00500
H 	H 	0.87620 0.08670 0.99850 0.02900
C 	C 	0.83140 0.00330 0.89790 0.00900
H 	H 	0.80800 0.04100 0.85080 0.04300
C 	C 	0.79150 0.85710 0.82350 0.15800
C 	C 	0.72920 0.79350 0.82390 -0.12800
H 	H 	0.71760 0.78590 0.87180 0.09700
C 	C 	0.68400 0.74110 0.75340 -0.01000
C 	C 	0.69810 0.75350 0.68090 -0.08300
H 	H 	0.66630 0.71890 0.63250 0.07400
C 	C 	0.76120 0.81920 0.68220 0.05900
H 	H 	0.76980 0.82940 0.63310 0.02600
C 	C 	0.81120 0.86940 0.75320 -0.16100
C 	C 	0.88360 0.93300 0.75070 0.42600
C 	C 	0.61540 0.67020 0.75420 0.36900
Zn	Zn	0.45560 0.44929 0.15484 1.22000
O 	O 	0.45670 0.44200 0.81860 -0.45600
O 	O 	0.36550 0.47130 0.68260 -0.46700
O 	O 	0.07030 0.12940 0.68580 -0.46400
O 	O 	0.11070 0.15730 0.82290 -0.45700
N 	N 	0.39920 0.45190 0.02900 -0.25400
N 	N 	0.33210 0.41270 0.89610 -0.14600
C 	C 	0.37460 0.38470 0.97700 0.12000
H 	H 	0.38510 0.32520 0.99360 -0.01200
C 	C 	0.36990 0.52820 0.97870 0.00200
H 	H 	0.37620 0.58670 0.99850 0.03100
C 	C 	0.33140 0.50330 0.89790 0.01400
H 	H 	0.30800 0.54100 0.85080 0.04200
C 	C 	0.29150 0.35710 0.82350 0.15800
C 	C 	0.22920 0.29350 0.82390 -0.12800
H 	H 	0.21760 0.28590 0.87180 0.09600
C 	C 	0.18400 0.24110 0.75340 -0.01100
C 	C 	0.19810 0.25350 0.68090 -0.08300
H 	H 	0.16630 0.21890 0.63250 0.07300
C 	C 	0.26120 0.31920 0.68220 0.05900
H 	H 	0.26980 0.32940 0.63310 0.02600
C 	C 	0.31120 0.36940 0.75320 -0.16200
C 	C 	0.38360 0.43300 0.75070 0.42600
C 	C 	0.11540 0.17020 0.75420 0.36900
Zn	Zn	0.95560 0.05071 0.65484 1.21900
O 	O 	0.95670 0.05800 0.31860 -0.45500
O 	O 	0.86550 0.02870 0.18260 -0.46500
O 	O 	0.57030 0.37060 0.18580 -0.46300
O 	O 	0.61070 0.34270 0.32290 -0.45500
N 	N 	0.89920 0.04810 0.52900 -0.25400
N 	N 	0.83210 0.08730 0.39610 -0.14500
C 	C 	0.87460 0.11530 0.47700 0.12100
H 	H 	0.88510 0.17480 0.49360 -0.01100
C 	C 	0.86990 0.97180 0.47870 0.00300
H 	H 	0.87620 0.91330 0.49850 0.03000
C 	C 	0.83140 0.99670 0.39790 0.01200
H 	H 	0.80800 0.95900 0.35080 0.04200
C 	C 	0.79150 0.14290 0.32350 0.15800
C 	C 	0.72920 0.20650 0.32390 -0.12800
H 	H 	0.71760 0.21410 0.37180 0.09600
C 	C 	0.68400 0.25890 0.25340 -0.01100
C 	C 	0.69810 0.24650 0.18090 -0.08300
H 	H 	0.66630 0.28110 0.13250 0.07400
C 	C 	0.76120 0.18080 0.18220 0.05900
H 	H 	0.76980 0.17060 0.13310 0.02600
C 	C 	0.81120 0.13060 0.25320 -0.16100
C 	C 	0.88360 0.06700 0.25070 0.42500
C 	C 	0.61540 0.32980 0.25420 0.36900
Zn	Zn	0.45560 0.55071 0.65484 1.21900
O 	O 	0.45670 0.55800 0.31860 -0.45600
O 	O 	0.36550 0.52870 0.18260 -0.46700
O 	O 	0.07030 0.87060 0.18580 -0.46300
O 	O 	0.11070 0.84270 0.32290 -0.45500
N 	N 	0.39920 0.54810 0.52900 -0.25400
N 	N 	0.33210 0.58730 0.39610 -0.14600
C 	C 	0.37460 0.61530 0.47700 0.12100
H 	H 	0.38510 0.67480 0.49360 -0.01100
C 	C 	0.36990 0.47180 0.47870 0.00300
H 	H 	0.37620 0.41330 0.49850 0.03000
C 	C 	0.33140 0.49670 0.39790 0.01300
H 	H 	0.30800 0.45900 0.35080 0.04200
C 	C 	0.29150 0.64290 0.32350 0.15800
C 	C 	0.22920 0.70650 0.32390 -0.12800
H 	H 	0.21760 0.71410 0.37180 0.09600
C 	C 	0.18400 0.75890 0.25340 -0.01100
C 	C 	0.19810 0.74650 0.18090 -0.08400
H 	H 	0.16630 0.78110 0.13250 0.07300
C 	C 	0.26120 0.68080 0.18220 0.05900
H 	H 	0.26980 0.67060 0.13310 0.02600
C 	C 	0.31120 0.63060 0.25320 -0.16200
C 	C 	0.38360 0.56700 0.25070 0.42600
C 	C 	0.11540 0.82980 0.25420 0.36900
Zn	Zn	0.04440 0.05071 0.84516 1.21800
O 	O 	0.04330 0.05800 0.18140 -0.45400
O 	O 	0.13450 0.02870 0.31740 -0.46600
O 	O 	0.42970 0.37060 0.31420 -0.46300
O 	O 	0.38930 0.34270 0.17710 -0.45500
N 	N 	0.10080 0.04810 0.97100 -0.25900
N 	N 	0.16790 0.08730 0.10390 -0.14500
C 	C 	0.12540 0.11530 0.02300 0.12800
H 	H 	0.11490 0.17480 0.00640 -0.01200
C 	C 	0.13010 0.97180 0.02130 0.00500
H 	H 	0.12380 0.91330 0.00150 0.02900
C 	C 	0.16860 0.99670 0.10210 0.00900
H 	H 	0.19200 0.95900 0.14920 0.04300
C 	C 	0.20850 0.14290 0.17650 0.15800
C 	C 	0.27080 0.20650 0.17610 -0.12800
H 	H 	0.28240 0.21410 0.12820 0.09700
C 	C 	0.31600 0.25890 0.24660 -0.01000
C 	C 	0.30190 0.24650 0.31910 -0.08300
H 	H 	0.33370 0.28110 0.36750 0.07400
C 	C 	0.23880 0.18080 0.31780 0.05900
H 	H 	0.23020 0.17060 0.36690 0.02600
C 	C 	0.18880 0.13060 0.24680 -0.16100
C 	C 	0.11640 0.06700 0.24930 0.42600
C 	C 	0.38460 0.32980 0.24580 0.36900
Zn	Zn	0.54440 0.55071 0.84516 1.22000
O 	O 	0.54330 0.55800 0.18140 -0.45600
O 	O 	0.63450 0.52870 0.31740 -0.46700
O 	O 	0.92970 0.87060 0.31420 -0.46400
O 	O 	0.88930 0.84270 0.17710 -0.45700
N 	N 	0.60080 0.54810 0.97100 -0.25400
N 	N 	0.66790 0.58730 0.10390 -0.14600
C 	C 	0.62540 0.61530 0.02300 0.12000
H 	H 	0.61490 0.67480 0.00640 -0.01200
C 	C 	0.63010 0.47180 0.02130 0.00200
H 	H 	0.62380 0.41330 0.00150 0.03100
C 	C 	0.66860 0.49670 0.10210 0.01400
H 	H 	0.69200 0.45900 0.14920 0.04200
C 	C 	0.70850 0.64290 0.17650 0.15800
C 	C 	0.77080 0.70650 0.17610 -0.12800
H 	H 	0.78240 0.71410 0.12820 0.09600
C 	C 	0.81600 0.75890 0.24660 -0.01100
C 	C 	0.80190 0.74650 0.31910 -0.08300
H 	H 	0.83370 0.78110 0.36750 0.07300
C 	C 	0.73880 0.68080 0.31780 0.05900
H 	H 	0.73020 0.67060 0.36690 0.02600
C 	C 	0.68880 0.63060 0.24680 -0.16200
C 	C 	0.61640 0.56700 0.24930 0.42600
C 	C 	0.88460 0.82980 0.24580 0.36900
