data_crystal

_cell_length_a 38.85110
_cell_length_b 38.85110
_cell_length_c 18.75210
_cell_angle_alpha 90.00000
_cell_angle_beta  90.00000
_cell_angle_gamma 90.00000

_symmetry_space_group_name_	'P 1'
_symmetry_space_group_name_H-M	'P 1'

loop_
_symmetry_equiv_pos_as_xyz
  x,y,z

loop_
_atom_site_label
_atom_site_type_symbol
_atom_site_fract_x
_atom_site_fract_y
_atom_site_fract_z
_atom_site_charge
Zr	Zr	0.99006 0.81077 0.08577 3.17500
Zr	Zr	0.94490 0.73612 0.03495 3.19600
Zr	Zr	0.03524 0.73631 0.03584 3.19500
C 	C 	0.04710 0.84360 0.19020 0.54500
C 	C 	0.06340 0.87610 0.22140 -0.20800
C 	C 	0.08540 0.87560 0.27870 0.11100
H 	H 	0.09126 0.85465 0.29942 -0.01100
C 	C 	0.09880 0.90500 0.30570 -0.17300
H 	H 	0.11185 0.90398 0.34721 0.08500
C 	C 	0.09360 0.93560 0.27380 0.06400
C 	C 	0.07270 0.93740 0.21150 -0.15500
H 	H 	0.06986 0.95804 0.18698 0.06300
C 	C 	0.05640 0.90710 0.18840 0.08600
H 	H 	0.04092 0.90793 0.15068 -0.01500
C 	C 	0.06470 0.15380 0.19120 0.62900
C 	C 	0.07750 0.12220 0.21710 -0.35700
C 	C 	0.06860 0.09090 0.18810 0.23500
H 	H 	0.05552 0.09028 0.14659 -0.07000
C 	C 	0.07890 0.06020 0.22030 -0.30100
H 	H 	0.06850 0.03968 0.20618 0.12200
C 	C 	0.10190 0.05930 0.26830 0.17700
C 	C 	0.11230 0.09000 0.29800 -0.29000
H 	H 	0.12794 0.08977 0.33544 0.12400
C 	C 	0.10030 0.12020 0.27410 0.24100
H 	H 	0.10747 0.14039 0.29618 -0.05000
C 	C 	0.21190 0.99030 0.65240 0.60000
C 	C 	0.19550 0.99150 0.58060 -0.24200
C 	C 	0.18510 0.96040 0.54570 0.13300
H 	H 	0.19008 0.93914 0.56622 -0.02100
C 	C 	0.16850 0.96190 0.48450 -0.18500
H 	H 	0.16189 0.94146 0.46283 0.09000
C 	C 	0.16030 0.99380 0.44990 0.09100
C 	C 	0.16970 0.02310 0.47710 -0.17500
H 	H 	0.16578 0.04380 0.45372 0.08900
C 	C 	0.18710 0.02170 0.54730 0.11900
H 	H 	0.19268 0.04231 0.56971 -0.01100
C 	C 	0.13940 0.99470 0.38350 0.07800
C 	C 	0.11170 0.02590 0.30670 0.05300
C 	C 	0.10800 0.96720 0.29720 0.07500
C 	C 	0.82412 0.74210 0.06295 -0.11300
H 	H 	0.83606 0.73734 0.02113 0.06400
C 	C 	0.78827 0.74210 0.06295 -0.00800
H 	H 	0.77632 0.73736 0.02113 -0.00800
N 	N 	0.12720 0.96450 0.35950 -0.13700
N 	N 	0.09890 0.99680 0.27260 -0.14200
N 	N 	0.13180 0.02610 0.36000 -0.13900
O 	O 	0.02610 0.84750 0.13980 -0.74300
O 	O 	0.05480 0.81698 0.22460 -0.68400
O 	O 	0.04461 0.15271 0.13910 -0.78900
O 	O 	0.07355 0.18210 0.22320 -0.68200
O 	O 	0.21910 0.01902 0.67720 -0.73600
O 	O 	0.21870 0.96137 0.67910 -0.75500
O 	O 	0.99038 0.76754 0.01590 -1.41300
O 	O 	0.99039 0.70730 0.05500 -1.28500
O 	O 	0.03540 0.78130 0.10110 -1.35400
O 	O 	0.94530 0.77968 0.10400 -1.35300
O 	O 	0.09000 0.73900 0.06070 -0.89600
O 	O 	0.88896 0.73800 0.05360 -0.61000
H 	H 	0.15195 0.75782 0.17047 0.60800
H 	H 	0.15195 0.72709 0.11629 0.59400
H 	H 	0.15195 0.76510 0.08824 0.58900
Zr	Zr	0.49006 0.31077 0.58577 3.17600
Zr	Zr	0.44490 0.23612 0.53495 3.19700
Zr	Zr	0.53524 0.23631 0.53584 3.19600
C 	C 	0.54710 0.34360 0.69020 0.54600
C 	C 	0.56340 0.37610 0.72140 -0.20700
C 	C 	0.58540 0.37560 0.77870 0.11200
H 	H 	0.59126 0.35465 0.79942 -0.01000
C 	C 	0.59880 0.40500 0.80570 -0.17200
H 	H 	0.61185 0.40398 0.84721 0.08600
C 	C 	0.59360 0.43560 0.77380 0.06500
C 	C 	0.57270 0.43740 0.71150 -0.15400
H 	H 	0.56986 0.45804 0.68698 0.06400
C 	C 	0.55640 0.40710 0.68840 0.08700
H 	H 	0.54092 0.40793 0.65068 -0.01400
C 	C 	0.56470 0.65380 0.69120 0.63000
C 	C 	0.57750 0.62220 0.71710 -0.35600
C 	C 	0.56860 0.59090 0.68810 0.23600
H 	H 	0.55552 0.59028 0.64659 -0.06900
C 	C 	0.57890 0.56020 0.72030 -0.30000
H 	H 	0.56850 0.53968 0.70618 0.12300
C 	C 	0.60190 0.55930 0.76830 0.17800
C 	C 	0.61230 0.59000 0.79800 -0.28900
H 	H 	0.62794 0.58977 0.83544 0.12500
C 	C 	0.60030 0.62020 0.77410 0.24200
H 	H 	0.60747 0.64039 0.79618 -0.05000
C 	C 	0.71190 0.49030 0.15240 0.60000
C 	C 	0.69550 0.49150 0.08060 -0.24100
C 	C 	0.68510 0.46040 0.04570 0.13200
H 	H 	0.69008 0.43914 0.06622 -0.02000
C 	C 	0.66850 0.46190 0.98450 -0.18400
H 	H 	0.66189 0.44146 0.96283 0.08900
C 	C 	0.66030 0.49380 0.94990 0.09100
C 	C 	0.66970 0.52310 0.97710 -0.17400
H 	H 	0.66578 0.54380 0.95372 0.08900
C 	C 	0.68710 0.52170 0.04730 0.11800
H 	H 	0.69268 0.54231 0.06971 -0.01100
C 	C 	0.63940 0.49470 0.88350 0.07800
C 	C 	0.61170 0.52590 0.80670 0.05300
C 	C 	0.60800 0.46720 0.79720 0.07500
C 	C 	0.32412 0.24210 0.56295 -0.11300
H 	H 	0.33606 0.23734 0.52113 0.06400
C 	C 	0.28827 0.24210 0.56295 -0.00800
H 	H 	0.27632 0.23736 0.52113 -0.00800
N 	N 	0.62720 0.46450 0.85950 -0.13700
N 	N 	0.59890 0.49680 0.77260 -0.14200
N 	N 	0.63180 0.52610 0.86000 -0.13900
O 	O 	0.52610 0.34750 0.63980 -0.74300
O 	O 	0.55480 0.31698 0.72460 -0.68400
O 	O 	0.54461 0.65271 0.63910 -0.78900
O 	O 	0.57355 0.68210 0.72320 -0.68200
O 	O 	0.71910 0.51902 0.17720 -0.73600
O 	O 	0.71870 0.46137 0.17910 -0.75500
O 	O 	0.49038 0.26754 0.51590 -1.41300
O 	O 	0.49039 0.20730 0.55500 -1.28500
O 	O 	0.53540 0.28130 0.60110 -1.35400
O 	O 	0.44530 0.27968 0.60400 -1.35300
O 	O 	0.59000 0.23900 0.56070 -0.89600
O 	O 	0.38896 0.23800 0.55360 -0.61000
H 	H 	0.65195 0.25782 0.67047 0.60800
H 	H 	0.65195 0.22709 0.61629 0.59400
H 	H 	0.65195 0.26510 0.58824 0.58900
Zr	Zr	0.00994 0.18923 0.08577 3.17600
Zr	Zr	0.05510 0.26388 0.03495 3.19700
Zr	Zr	0.96476 0.26369 0.03584 3.19600
C 	C 	0.95290 0.15640 0.19020 0.54600
C 	C 	0.93660 0.12390 0.22140 -0.20700
C 	C 	0.91460 0.12440 0.27870 0.11200
H 	H 	0.90874 0.14535 0.29942 -0.01000
C 	C 	0.90120 0.09500 0.30570 -0.17200
H 	H 	0.88815 0.09602 0.34721 0.08600
C 	C 	0.90640 0.06440 0.27380 0.06500
C 	C 	0.92730 0.06260 0.21150 -0.15400
H 	H 	0.93014 0.04196 0.18698 0.06400
C 	C 	0.94360 0.09290 0.18840 0.08700
H 	H 	0.95908 0.09207 0.15068 -0.01400
C 	C 	0.93530 0.84620 0.19120 0.63000
C 	C 	0.92250 0.87780 0.21710 -0.35600
C 	C 	0.93140 0.90910 0.18810 0.23600
H 	H 	0.94448 0.90972 0.14659 -0.06900
C 	C 	0.92110 0.93980 0.22030 -0.30000
H 	H 	0.93150 0.96032 0.20618 0.12300
C 	C 	0.89810 0.94070 0.26830 0.17800
C 	C 	0.88770 0.91000 0.29800 -0.28900
H 	H 	0.87206 0.91023 0.33544 0.12500
C 	C 	0.89970 0.87980 0.27410 0.24200
H 	H 	0.89253 0.85961 0.29618 -0.05000
C 	C 	0.78810 0.00970 0.65240 0.60000
C 	C 	0.80450 0.00850 0.58060 -0.24200
C 	C 	0.81490 0.03960 0.54570 0.13300
H 	H 	0.80992 0.06086 0.56622 -0.02100
C 	C 	0.83150 0.03810 0.48450 -0.18500
H 	H 	0.83811 0.05854 0.46283 0.09000
C 	C 	0.83970 0.00620 0.44990 0.09100
C 	C 	0.83030 0.97690 0.47710 -0.17500
H 	H 	0.83422 0.95620 0.45372 0.08900
C 	C 	0.81290 0.97830 0.54730 0.11900
H 	H 	0.80732 0.95769 0.56971 -0.01100
C 	C 	0.86060 0.00530 0.38350 0.07800
C 	C 	0.88830 0.97410 0.30670 0.05300
C 	C 	0.89200 0.03280 0.29720 0.07500
C 	C 	0.17588 0.25790 0.06295 -0.11300
H 	H 	0.16394 0.26266 0.02113 0.06400
C 	C 	0.21173 0.25790 0.06295 -0.00800
H 	H 	0.22368 0.26264 0.02113 -0.00800
N 	N 	0.87280 0.03550 0.35950 -0.13700
N 	N 	0.90110 0.00320 0.27260 -0.14200
N 	N 	0.86820 0.97390 0.36000 -0.13900
O 	O 	0.97390 0.15250 0.13980 -0.74300
O 	O 	0.94520 0.18302 0.22460 -0.68400
O 	O 	0.95539 0.84729 0.13910 -0.78900
O 	O 	0.92645 0.81790 0.22320 -0.68200
O 	O 	0.78090 0.98098 0.67720 -0.73600
O 	O 	0.78130 0.03863 0.67910 -0.75500
O 	O 	0.00962 0.23246 0.01590 -1.41300
O 	O 	0.00961 0.29270 0.05500 -1.28500
O 	O 	0.96460 0.21870 0.10110 -1.35400
O 	O 	0.05470 0.22032 0.10400 -1.35300
O 	O 	0.91000 0.26100 0.06070 -0.89600
O 	O 	0.11104 0.26200 0.05360 -0.61000
H 	H 	0.84805 0.24218 0.17047 0.60800
H 	H 	0.84805 0.27291 0.11629 0.59400
H 	H 	0.84805 0.23490 0.08824 0.58900
Zr	Zr	0.50994 0.68923 0.58577 3.17600
Zr	Zr	0.55510 0.76388 0.53495 3.19700
Zr	Zr	0.46476 0.76369 0.53584 3.19600
C 	C 	0.45290 0.65640 0.69020 0.54600
C 	C 	0.43660 0.62390 0.72140 -0.20700
C 	C 	0.41460 0.62440 0.77870 0.11200
H 	H 	0.40874 0.64535 0.79942 -0.01000
C 	C 	0.40120 0.59500 0.80570 -0.17200
H 	H 	0.38815 0.59602 0.84721 0.08600
C 	C 	0.40640 0.56440 0.77380 0.06500
C 	C 	0.42730 0.56260 0.71150 -0.15400
H 	H 	0.43014 0.54196 0.68698 0.06400
C 	C 	0.44360 0.59290 0.68840 0.08700
H 	H 	0.45908 0.59207 0.65068 -0.01400
C 	C 	0.43530 0.34620 0.69120 0.63000
C 	C 	0.42250 0.37780 0.71710 -0.35600
C 	C 	0.43140 0.40910 0.68810 0.23600
H 	H 	0.44448 0.40972 0.64659 -0.06900
C 	C 	0.42110 0.43980 0.72030 -0.30000
H 	H 	0.43150 0.46032 0.70618 0.12300
C 	C 	0.39810 0.44070 0.76830 0.17800
C 	C 	0.38770 0.41000 0.79800 -0.28900
H 	H 	0.37206 0.41023 0.83544 0.12500
C 	C 	0.39970 0.37980 0.77410 0.24200
H 	H 	0.39253 0.35961 0.79618 -0.05000
C 	C 	0.28810 0.50970 0.15240 0.60000
C 	C 	0.30450 0.50850 0.08060 -0.24100
C 	C 	0.31490 0.53960 0.04570 0.13200
H 	H 	0.30992 0.56086 0.06622 -0.02000
C 	C 	0.33150 0.53810 0.98450 -0.18400
H 	H 	0.33811 0.55854 0.96283 0.08900
C 	C 	0.33970 0.50620 0.94990 0.09100
C 	C 	0.33030 0.47690 0.97710 -0.17400
H 	H 	0.33422 0.45620 0.95372 0.08900
C 	C 	0.31290 0.47830 0.04730 0.11800
H 	H 	0.30732 0.45769 0.06971 -0.01100
C 	C 	0.36060 0.50530 0.88350 0.07800
C 	C 	0.38830 0.47410 0.80670 0.05300
C 	C 	0.39200 0.53280 0.79720 0.07500
C 	C 	0.67588 0.75790 0.56295 -0.11300
H 	H 	0.66394 0.76266 0.52113 0.06400
C 	C 	0.71173 0.75790 0.56295 -0.00800
H 	H 	0.72368 0.76264 0.52113 -0.00800
N 	N 	0.37280 0.53550 0.85950 -0.13700
N 	N 	0.40110 0.50320 0.77260 -0.14200
N 	N 	0.36820 0.47390 0.86000 -0.13900
O 	O 	0.47390 0.65250 0.63980 -0.74300
O 	O 	0.44520 0.68302 0.72460 -0.68400
O 	O 	0.45539 0.34729 0.63910 -0.78900
O 	O 	0.42645 0.31790 0.72320 -0.68200
O 	O 	0.28090 0.48098 0.17720 -0.73600
O 	O 	0.28130 0.53863 0.17910 -0.75500
O 	O 	0.50962 0.73246 0.51590 -1.41300
O 	O 	0.50961 0.79270 0.55500 -1.28500
O 	O 	0.46460 0.71870 0.60110 -1.35400
O 	O 	0.55470 0.72032 0.60400 -1.35300
O 	O 	0.41000 0.76100 0.56070 -0.89600
O 	O 	0.61104 0.76200 0.55360 -0.61000
H 	H 	0.34805 0.74218 0.67047 0.60800
H 	H 	0.34805 0.77291 0.61629 0.59400
H 	H 	0.34805 0.73490 0.58824 0.58900
Zr	Zr	0.81077 0.00994 0.91423 3.17600
Zr	Zr	0.73612 0.05510 0.96505 3.19700
Zr	Zr	0.73631 0.96476 0.96416 3.19600
C 	C 	0.84360 0.95290 0.80980 0.54600
C 	C 	0.87610 0.93660 0.77860 -0.20700
C 	C 	0.87560 0.91460 0.72130 0.11200
H 	H 	0.85465 0.90874 0.70058 -0.01000
C 	C 	0.90500 0.90120 0.69430 -0.17200
H 	H 	0.90398 0.88815 0.65279 0.08600
C 	C 	0.93560 0.90640 0.72620 0.06500
C 	C 	0.93740 0.92730 0.78850 -0.15400
H 	H 	0.95804 0.93014 0.81302 0.06400
C 	C 	0.90710 0.94360 0.81160 0.08700
H 	H 	0.90793 0.95908 0.84932 -0.01400
C 	C 	0.15380 0.93530 0.80880 0.63000
C 	C 	0.12220 0.92250 0.78290 -0.35600
C 	C 	0.09090 0.93140 0.81190 0.23600
H 	H 	0.09028 0.94448 0.85341 -0.06900
C 	C 	0.06020 0.92110 0.77970 -0.30000
H 	H 	0.03968 0.93150 0.79382 0.12300
C 	C 	0.05930 0.89810 0.73170 0.17800
C 	C 	0.09000 0.88770 0.70200 -0.28900
H 	H 	0.08977 0.87206 0.66456 0.12500
C 	C 	0.12020 0.89970 0.72590 0.24200
H 	H 	0.14039 0.89253 0.70382 -0.05000
C 	C 	0.99030 0.78810 0.34760 0.60000
C 	C 	0.99150 0.80450 0.41940 -0.24200
C 	C 	0.96040 0.81490 0.45430 0.13300
H 	H 	0.93914 0.80992 0.43378 -0.02100
C 	C 	0.96190 0.83150 0.51550 -0.18500
H 	H 	0.94146 0.83811 0.53717 0.09000
C 	C 	0.99380 0.83970 0.55010 0.09100
C 	C 	0.02310 0.83030 0.52290 -0.17500
H 	H 	0.04380 0.83422 0.54628 0.08900
C 	C 	0.02170 0.81290 0.45270 0.11900
H 	H 	0.04231 0.80732 0.43029 -0.01100
C 	C 	0.99470 0.86060 0.61650 0.07800
C 	C 	0.02590 0.88830 0.69330 0.05300
C 	C 	0.96720 0.89200 0.70280 0.07500
C 	C 	0.74210 0.17588 0.93705 -0.11300
H 	H 	0.73734 0.16394 0.97887 0.06400
C 	C 	0.74210 0.21173 0.93705 -0.00800
H 	H 	0.73736 0.22368 0.97887 -0.00800
N 	N 	0.96450 0.87280 0.64050 -0.13700
N 	N 	0.99680 0.90110 0.72740 -0.14200
N 	N 	0.02610 0.86820 0.64000 -0.13900
O 	O 	0.84750 0.97390 0.86020 -0.74300
O 	O 	0.81698 0.94520 0.77540 -0.68400
O 	O 	0.15271 0.95539 0.86090 -0.78900
O 	O 	0.18210 0.92645 0.77680 -0.68200
O 	O 	0.01902 0.78090 0.32280 -0.73600
O 	O 	0.96137 0.78130 0.32090 -0.75500
O 	O 	0.76754 0.00962 0.98410 -1.41300
O 	O 	0.70730 0.00961 0.94500 -1.28500
O 	O 	0.78130 0.96460 0.89890 -1.35400
O 	O 	0.77968 0.05470 0.89600 -1.35300
O 	O 	0.73900 0.91000 0.93930 -0.89600
O 	O 	0.73800 0.11104 0.94640 -0.61000
H 	H 	0.75782 0.84805 0.82953 0.60800
H 	H 	0.72709 0.84805 0.88371 0.59400
H 	H 	0.76510 0.84805 0.91176 0.58900
Zr	Zr	0.31077 0.50994 0.41423 3.17600
Zr	Zr	0.23612 0.55510 0.46505 3.19700
Zr	Zr	0.23631 0.46476 0.46416 3.19600
C 	C 	0.34360 0.45290 0.30980 0.54600
C 	C 	0.37610 0.43660 0.27860 -0.20700
C 	C 	0.37560 0.41460 0.22130 0.11200
H 	H 	0.35465 0.40874 0.20058 -0.01000
C 	C 	0.40500 0.40120 0.19430 -0.17200
H 	H 	0.40398 0.38815 0.15279 0.08600
C 	C 	0.43560 0.40640 0.22620 0.06500
C 	C 	0.43740 0.42730 0.28850 -0.15400
H 	H 	0.45804 0.43014 0.31302 0.06400
C 	C 	0.40710 0.44360 0.31160 0.08700
H 	H 	0.40793 0.45908 0.34932 -0.01400
C 	C 	0.65380 0.43530 0.30880 0.63000
C 	C 	0.62220 0.42250 0.28290 -0.35600
C 	C 	0.59090 0.43140 0.31190 0.23600
H 	H 	0.59028 0.44448 0.35341 -0.06900
C 	C 	0.56020 0.42110 0.27970 -0.30000
H 	H 	0.53968 0.43150 0.29382 0.12300
C 	C 	0.55930 0.39810 0.23170 0.17800
C 	C 	0.59000 0.38770 0.20200 -0.28900
H 	H 	0.58977 0.37206 0.16456 0.12500
C 	C 	0.62020 0.39970 0.22590 0.24200
H 	H 	0.64039 0.39253 0.20382 -0.05000
C 	C 	0.49030 0.28810 0.84760 0.60000
C 	C 	0.49150 0.30450 0.91940 -0.24100
C 	C 	0.46040 0.31490 0.95430 0.13200
H 	H 	0.43914 0.30992 0.93378 -0.02000
C 	C 	0.46190 0.33150 0.01550 -0.18400
H 	H 	0.44146 0.33811 0.03717 0.08900
C 	C 	0.49380 0.33970 0.05010 0.09100
C 	C 	0.52310 0.33030 0.02290 -0.17400
H 	H 	0.54380 0.33422 0.04628 0.08900
C 	C 	0.52170 0.31290 0.95270 0.11800
H 	H 	0.54231 0.30732 0.93029 -0.01100
C 	C 	0.49470 0.36060 0.11650 0.07800
C 	C 	0.52590 0.38830 0.19330 0.05300
C 	C 	0.46720 0.39200 0.20280 0.07500
C 	C 	0.24210 0.67588 0.43705 -0.11300
H 	H 	0.23734 0.66394 0.47887 0.06400
C 	C 	0.24210 0.71173 0.43705 -0.00800
H 	H 	0.23736 0.72368 0.47887 -0.00800
N 	N 	0.46450 0.37280 0.14050 -0.13700
N 	N 	0.49680 0.40110 0.22740 -0.14200
N 	N 	0.52610 0.36820 0.14000 -0.13900
O 	O 	0.34750 0.47390 0.36020 -0.74300
O 	O 	0.31698 0.44520 0.27540 -0.68400
O 	O 	0.65271 0.45539 0.36090 -0.78900
O 	O 	0.68210 0.42645 0.27680 -0.68200
O 	O 	0.51902 0.28090 0.82280 -0.73600
O 	O 	0.46137 0.28130 0.82090 -0.75500
O 	O 	0.26754 0.50962 0.48410 -1.41300
O 	O 	0.20730 0.50961 0.44500 -1.28500
O 	O 	0.28130 0.46460 0.39890 -1.35400
O 	O 	0.27968 0.55470 0.39600 -1.35300
O 	O 	0.23900 0.41000 0.43930 -0.89600
O 	O 	0.23800 0.61104 0.44640 -0.61000
H 	H 	0.25782 0.34805 0.32953 0.60800
H 	H 	0.22709 0.34805 0.38371 0.59400
H 	H 	0.26510 0.34805 0.41176 0.58900
Zr	Zr	0.18923 0.99006 0.91423 3.17600
Zr	Zr	0.26388 0.94490 0.96505 3.19700
Zr	Zr	0.26369 0.03524 0.96416 3.19600
C 	C 	0.15640 0.04710 0.80980 0.54600
C 	C 	0.12390 0.06340 0.77860 -0.20700
C 	C 	0.12440 0.08540 0.72130 0.11200
H 	H 	0.14535 0.09126 0.70058 -0.01000
C 	C 	0.09500 0.09880 0.69430 -0.17200
H 	H 	0.09602 0.11185 0.65279 0.08600
C 	C 	0.06440 0.09360 0.72620 0.06500
C 	C 	0.06260 0.07270 0.78850 -0.15400
H 	H 	0.04196 0.06986 0.81302 0.06400
C 	C 	0.09290 0.05640 0.81160 0.08700
H 	H 	0.09207 0.04092 0.84932 -0.01400
C 	C 	0.84620 0.06470 0.80880 0.63000
C 	C 	0.87780 0.07750 0.78290 -0.35600
C 	C 	0.90910 0.06860 0.81190 0.23600
H 	H 	0.90972 0.05552 0.85341 -0.06900
C 	C 	0.93980 0.07890 0.77970 -0.30000
H 	H 	0.96032 0.06850 0.79382 0.12300
C 	C 	0.94070 0.10190 0.73170 0.17800
C 	C 	0.91000 0.11230 0.70200 -0.28900
H 	H 	0.91023 0.12794 0.66456 0.12500
C 	C 	0.87980 0.10030 0.72590 0.24200
H 	H 	0.85961 0.10747 0.70382 -0.05000
C 	C 	0.00970 0.21190 0.34760 0.60000
C 	C 	0.00850 0.19550 0.41940 -0.24200
C 	C 	0.03960 0.18510 0.45430 0.13300
H 	H 	0.06086 0.19008 0.43378 -0.02100
C 	C 	0.03810 0.16850 0.51550 -0.18500
H 	H 	0.05854 0.16189 0.53717 0.09000
C 	C 	0.00620 0.16030 0.55010 0.09100
C 	C 	0.97690 0.16970 0.52290 -0.17500
H 	H 	0.95620 0.16578 0.54628 0.08900
C 	C 	0.97830 0.18710 0.45270 0.11900
H 	H 	0.95769 0.19268 0.43029 -0.01100
C 	C 	0.00530 0.13940 0.61650 0.07800
C 	C 	0.97410 0.11170 0.69330 0.05300
C 	C 	0.03280 0.10800 0.70280 0.07500
C 	C 	0.25790 0.82412 0.93705 -0.11300
H 	H 	0.26266 0.83606 0.97887 0.06400
C 	C 	0.25790 0.78827 0.93705 -0.00800
H 	H 	0.26264 0.77632 0.97887 -0.00800
N 	N 	0.03550 0.12720 0.64050 -0.13700
N 	N 	0.00320 0.09890 0.72740 -0.14200
N 	N 	0.97390 0.13180 0.64000 -0.13900
O 	O 	0.15250 0.02610 0.86020 -0.74300
O 	O 	0.18302 0.05480 0.77540 -0.68400
O 	O 	0.84729 0.04461 0.86090 -0.78900
O 	O 	0.81790 0.07355 0.77680 -0.68200
O 	O 	0.98098 0.21910 0.32280 -0.73600
O 	O 	0.03863 0.21870 0.32090 -0.75500
O 	O 	0.23246 0.99038 0.98410 -1.41300
O 	O 	0.29270 0.99039 0.94500 -1.28500
O 	O 	0.21870 0.03540 0.89890 -1.35400
O 	O 	0.22032 0.94530 0.89600 -1.35300
O 	O 	0.26100 0.09000 0.93930 -0.89600
O 	O 	0.26200 0.88896 0.94640 -0.61000
H 	H 	0.24218 0.15195 0.82953 0.60800
H 	H 	0.27291 0.15195 0.88371 0.59400
H 	H 	0.23490 0.15195 0.91176 0.58900
Zr	Zr	0.68923 0.49006 0.41423 3.17600
Zr	Zr	0.76388 0.44490 0.46505 3.19700
Zr	Zr	0.76369 0.53524 0.46416 3.19600
C 	C 	0.65640 0.54710 0.30980 0.54600
C 	C 	0.62390 0.56340 0.27860 -0.20700
C 	C 	0.62440 0.58540 0.22130 0.11200
H 	H 	0.64535 0.59126 0.20058 -0.01000
C 	C 	0.59500 0.59880 0.19430 -0.17200
H 	H 	0.59602 0.61185 0.15279 0.08600
C 	C 	0.56440 0.59360 0.22620 0.06500
C 	C 	0.56260 0.57270 0.28850 -0.15400
H 	H 	0.54196 0.56986 0.31302 0.06400
C 	C 	0.59290 0.55640 0.31160 0.08700
H 	H 	0.59207 0.54092 0.34932 -0.01400
C 	C 	0.34620 0.56470 0.30880 0.63000
C 	C 	0.37780 0.57750 0.28290 -0.35600
C 	C 	0.40910 0.56860 0.31190 0.23600
H 	H 	0.40972 0.55552 0.35341 -0.06900
C 	C 	0.43980 0.57890 0.27970 -0.30000
H 	H 	0.46032 0.56850 0.29382 0.12300
C 	C 	0.44070 0.60190 0.23170 0.17800
C 	C 	0.41000 0.61230 0.20200 -0.28900
H 	H 	0.41023 0.62794 0.16456 0.12500
C 	C 	0.37980 0.60030 0.22590 0.24200
H 	H 	0.35961 0.60747 0.20382 -0.05000
C 	C 	0.50970 0.71190 0.84760 0.60000
C 	C 	0.50850 0.69550 0.91940 -0.24100
C 	C 	0.53960 0.68510 0.95430 0.13200
H 	H 	0.56086 0.69008 0.93378 -0.02000
C 	C 	0.53810 0.66850 0.01550 -0.18400
H 	H 	0.55854 0.66189 0.03717 0.08900
C 	C 	0.50620 0.66030 0.05010 0.09100
C 	C 	0.47690 0.66970 0.02290 -0.17400
H 	H 	0.45620 0.66578 0.04628 0.08900
C 	C 	0.47830 0.68710 0.95270 0.11800
H 	H 	0.45769 0.69268 0.93029 -0.01100
C 	C 	0.50530 0.63940 0.11650 0.07800
C 	C 	0.47410 0.61170 0.19330 0.05300
C 	C 	0.53280 0.60800 0.20280 0.07500
C 	C 	0.75790 0.32412 0.43705 -0.11300
H 	H 	0.76266 0.33606 0.47887 0.06400
C 	C 	0.75790 0.28827 0.43705 -0.00800
H 	H 	0.76264 0.27632 0.47887 -0.00800
N 	N 	0.53550 0.62720 0.14050 -0.13700
N 	N 	0.50320 0.59890 0.22740 -0.14200
N 	N 	0.47390 0.63180 0.14000 -0.13900
O 	O 	0.65250 0.52610 0.36020 -0.74300
O 	O 	0.68302 0.55480 0.27540 -0.68400
O 	O 	0.34729 0.54461 0.36090 -0.78900
O 	O 	0.31790 0.57355 0.27680 -0.68200
O 	O 	0.48098 0.71910 0.82280 -0.73600
O 	O 	0.53863 0.71870 0.82090 -0.75500
O 	O 	0.73246 0.49038 0.48410 -1.41300
O 	O 	0.79270 0.49039 0.44500 -1.28500
O 	O 	0.71870 0.53540 0.39890 -1.35400
O 	O 	0.72032 0.44530 0.39600 -1.35300
O 	O 	0.76100 0.59000 0.43930 -0.89600
O 	O 	0.76200 0.38896 0.44640 -0.61000
H 	H 	0.74218 0.65195 0.32953 0.60800
H 	H 	0.77291 0.65195 0.38371 0.59400
H 	H 	0.73490 0.65195 0.41176 0.58900
Zr	Zr	0.50994 0.81077 0.66423 3.17600
Zr	Zr	0.55510 0.73612 0.71505 3.19700
Zr	Zr	0.46476 0.73631 0.71416 3.19600
C 	C 	0.45290 0.84360 0.55980 0.54600
C 	C 	0.43660 0.87610 0.52860 -0.20700
C 	C 	0.41460 0.87560 0.47130 0.11200
H 	H 	0.40874 0.85465 0.45058 -0.01000
C 	C 	0.40120 0.90500 0.44430 -0.17200
H 	H 	0.38815 0.90398 0.40279 0.08600
C 	C 	0.40640 0.93560 0.47620 0.06500
C 	C 	0.42730 0.93740 0.53850 -0.15400
H 	H 	0.43014 0.95804 0.56302 0.06400
C 	C 	0.44360 0.90710 0.56160 0.08700
H 	H 	0.45908 0.90793 0.59932 -0.01400
C 	C 	0.43530 0.15380 0.55880 0.63000
C 	C 	0.42250 0.12220 0.53290 -0.35600
C 	C 	0.43140 0.09090 0.56190 0.23600
H 	H 	0.44448 0.09028 0.60341 -0.06900
C 	C 	0.42110 0.06020 0.52970 -0.30000
H 	H 	0.43150 0.03968 0.54382 0.12300
C 	C 	0.39810 0.05930 0.48170 0.17800
C 	C 	0.38770 0.09000 0.45200 -0.28900
H 	H 	0.37206 0.08977 0.41456 0.12500
C 	C 	0.39970 0.12020 0.47590 0.24200
H 	H 	0.39253 0.14039 0.45382 -0.05000
C 	C 	0.28810 0.99030 0.09760 0.60000
C 	C 	0.30450 0.99150 0.16940 -0.24200
C 	C 	0.31490 0.96040 0.20430 0.13300
H 	H 	0.30992 0.93914 0.18378 -0.02100
C 	C 	0.33150 0.96190 0.26550 -0.18400
H 	H 	0.33811 0.94146 0.28717 0.09000
C 	C 	0.33970 0.99380 0.30010 0.09100
C 	C 	0.33030 0.02310 0.27290 -0.17500
H 	H 	0.33422 0.04380 0.29628 0.08900
C 	C 	0.31290 0.02170 0.20270 0.11900
H 	H 	0.30732 0.04231 0.18029 -0.01100
C 	C 	0.36060 0.99470 0.36650 0.07800
C 	C 	0.38830 0.02590 0.44330 0.05300
C 	C 	0.39200 0.96720 0.45280 0.07500
C 	C 	0.67588 0.74210 0.68705 -0.11300
H 	H 	0.66394 0.73734 0.72887 0.06400
C 	C 	0.71173 0.74210 0.68705 -0.00800
H 	H 	0.72368 0.73736 0.72887 -0.00800
N 	N 	0.37280 0.96450 0.39050 -0.13700
N 	N 	0.40110 0.99680 0.47740 -0.14200
N 	N 	0.36820 0.02610 0.39000 -0.13900
O 	O 	0.47390 0.84750 0.61020 -0.74300
O 	O 	0.44520 0.81698 0.52540 -0.68400
O 	O 	0.45539 0.15271 0.61090 -0.78900
O 	O 	0.42645 0.18210 0.52680 -0.68200
O 	O 	0.28090 0.01902 0.07280 -0.73600
O 	O 	0.28130 0.96137 0.07090 -0.75500
O 	O 	0.50962 0.76754 0.73410 -1.41300
O 	O 	0.50961 0.70730 0.69500 -1.28500
O 	O 	0.46460 0.78130 0.64890 -1.35400
O 	O 	0.55470 0.77968 0.64600 -1.35300
O 	O 	0.41000 0.73900 0.68930 -0.89600
O 	O 	0.61104 0.73800 0.69640 -0.61000
H 	H 	0.34805 0.75782 0.57953 0.60800
H 	H 	0.34805 0.72709 0.63371 0.59400
H 	H 	0.34805 0.76510 0.66176 0.58900
Zr	Zr	0.00994 0.31077 0.16423 3.17600
Zr	Zr	0.05510 0.23612 0.21505 3.19700
Zr	Zr	0.96476 0.23631 0.21416 3.19600
C 	C 	0.95290 0.34360 0.05980 0.54600
C 	C 	0.93660 0.37610 0.02860 -0.20800
C 	C 	0.91460 0.37560 0.97130 0.11400
H 	H 	0.90874 0.35465 0.95058 -0.01100
C 	C 	0.90120 0.40500 0.94430 -0.17400
H 	H 	0.88815 0.40398 0.90279 0.08700
C 	C 	0.90640 0.43560 0.97620 0.06700
C 	C 	0.92730 0.43740 0.03850 -0.15700
H 	H 	0.93014 0.45804 0.06302 0.06500
C 	C 	0.94360 0.40710 0.06160 0.08800
H 	H 	0.95908 0.40793 0.09932 -0.01500
C 	C 	0.93530 0.65380 0.05880 0.63100
C 	C 	0.92250 0.62220 0.03290 -0.35900
C 	C 	0.93140 0.59090 0.06190 0.23800
H 	H 	0.94448 0.59028 0.10341 -0.07000
C 	C 	0.92110 0.56020 0.02970 -0.30300
H 	H 	0.93150 0.53968 0.04382 0.12400
C 	C 	0.89810 0.55930 0.98170 0.18100
C 	C 	0.88770 0.59000 0.95200 -0.29200
H 	H 	0.87206 0.58977 0.91456 0.12600
C 	C 	0.89970 0.62020 0.97590 0.24500
H 	H 	0.89253 0.64039 0.95382 -0.05100
C 	C 	0.78810 0.49030 0.59760 0.60000
C 	C 	0.80450 0.49150 0.66940 -0.24200
C 	C 	0.81490 0.46040 0.70430 0.13300
H 	H 	0.80992 0.43914 0.68378 -0.02100
C 	C 	0.83150 0.46190 0.76550 -0.18500
H 	H 	0.83811 0.44146 0.78717 0.09000
C 	C 	0.83970 0.49380 0.80010 0.09100
C 	C 	0.83030 0.52310 0.77290 -0.17500
H 	H 	0.83422 0.54380 0.79628 0.08900
C 	C 	0.81290 0.52170 0.70270 0.11900
H 	H 	0.80732 0.54231 0.68029 -0.01100
C 	C 	0.86060 0.49470 0.86650 0.07800
C 	C 	0.88830 0.52590 0.94330 0.05200
C 	C 	0.89200 0.46720 0.95280 0.07400
C 	C 	0.17588 0.24210 0.18705 -0.11300
H 	H 	0.16394 0.23734 0.22887 0.06400
C 	C 	0.21173 0.24210 0.18705 -0.00800
H 	H 	0.22368 0.23736 0.22887 -0.00800
N 	N 	0.87280 0.46450 0.89050 -0.13700
N 	N 	0.90110 0.49680 0.97740 -0.14200
N 	N 	0.86820 0.52610 0.89000 -0.13900
O 	O 	0.97390 0.34750 0.11020 -0.74300
O 	O 	0.94520 0.31698 0.02540 -0.68500
O 	O 	0.95539 0.65271 0.11090 -0.79000
O 	O 	0.92645 0.68210 0.02680 -0.68300
O 	O 	0.78090 0.51902 0.57280 -0.73600
O 	O 	0.78130 0.46137 0.57090 -0.75500
O 	O 	0.00962 0.26754 0.23410 -1.41300
O 	O 	0.00961 0.20730 0.19500 -1.28500
O 	O 	0.96460 0.28130 0.14890 -1.35400
O 	O 	0.05470 0.27968 0.14600 -1.35300
O 	O 	0.91000 0.23900 0.18930 -0.89600
O 	O 	0.11104 0.23800 0.19640 -0.61000
H 	H 	0.84805 0.25782 0.07953 0.60800
H 	H 	0.84805 0.22709 0.13371 0.59400
H 	H 	0.84805 0.26510 0.16176 0.58900
Zr	Zr	0.49006 0.18923 0.66423 3.17600
Zr	Zr	0.44490 0.26388 0.71505 3.19700
Zr	Zr	0.53524 0.26369 0.71416 3.19600
C 	C 	0.54710 0.15640 0.55980 0.54600
C 	C 	0.56340 0.12390 0.52860 -0.20700
C 	C 	0.58540 0.12440 0.47130 0.11200
H 	H 	0.59126 0.14535 0.45058 -0.01000
C 	C 	0.59880 0.09500 0.44430 -0.17200
H 	H 	0.61185 0.09602 0.40279 0.08600
C 	C 	0.59360 0.06440 0.47620 0.06500
C 	C 	0.57270 0.06260 0.53850 -0.15400
H 	H 	0.56986 0.04196 0.56302 0.06400
C 	C 	0.55640 0.09290 0.56160 0.08700
H 	H 	0.54092 0.09207 0.59932 -0.01400
C 	C 	0.56470 0.84620 0.55880 0.63000
C 	C 	0.57750 0.87780 0.53290 -0.35600
C 	C 	0.56860 0.90910 0.56190 0.23600
H 	H 	0.55552 0.90972 0.60341 -0.06900
C 	C 	0.57890 0.93980 0.52970 -0.30000
H 	H 	0.56850 0.96032 0.54382 0.12300
C 	C 	0.60190 0.94070 0.48170 0.17800
C 	C 	0.61230 0.91000 0.45200 -0.28900
H 	H 	0.62794 0.91023 0.41456 0.12500
C 	C 	0.60030 0.87980 0.47590 0.24200
H 	H 	0.60747 0.85961 0.45382 -0.05000
C 	C 	0.71190 0.00970 0.09760 0.60000
C 	C 	0.69550 0.00850 0.16940 -0.24200
C 	C 	0.68510 0.03960 0.20430 0.13300
H 	H 	0.69008 0.06086 0.18378 -0.02100
C 	C 	0.66850 0.03810 0.26550 -0.18400
H 	H 	0.66189 0.05854 0.28717 0.09000
C 	C 	0.66030 0.00620 0.30010 0.09100
C 	C 	0.66970 0.97690 0.27290 -0.17500
H 	H 	0.66578 0.95620 0.29628 0.08900
C 	C 	0.68710 0.97830 0.20270 0.11900
H 	H 	0.69268 0.95769 0.18029 -0.01100
C 	C 	0.63940 0.00530 0.36650 0.07800
C 	C 	0.61170 0.97410 0.44330 0.05300
C 	C 	0.60800 0.03280 0.45280 0.07500
C 	C 	0.32412 0.25790 0.68705 -0.11300
H 	H 	0.33606 0.26266 0.72887 0.06400
C 	C 	0.28827 0.25790 0.68705 -0.00800
H 	H 	0.27632 0.26264 0.72887 -0.00800
N 	N 	0.62720 0.03550 0.39050 -0.13700
N 	N 	0.59890 0.00320 0.47740 -0.14200
N 	N 	0.63180 0.97390 0.39000 -0.13900
O 	O 	0.52610 0.15250 0.61020 -0.74300
O 	O 	0.55480 0.18302 0.52540 -0.68400
O 	O 	0.54461 0.84729 0.61090 -0.78900
O 	O 	0.57355 0.81790 0.52680 -0.68200
O 	O 	0.71910 0.98098 0.07280 -0.73600
O 	O 	0.71870 0.03863 0.07090 -0.75500
O 	O 	0.49038 0.23246 0.73410 -1.41300
O 	O 	0.49039 0.29270 0.69500 -1.28500
O 	O 	0.53540 0.21870 0.64890 -1.35400
O 	O 	0.44530 0.22032 0.64600 -1.35300
O 	O 	0.59000 0.26100 0.68930 -0.89600
O 	O 	0.38896 0.26200 0.69640 -0.61000
H 	H 	0.65195 0.24218 0.57953 0.60800
H 	H 	0.65195 0.27291 0.63371 0.59400
H 	H 	0.65195 0.23490 0.66176 0.58900
Zr	Zr	0.99006 0.68923 0.16423 3.17600
Zr	Zr	0.94490 0.76388 0.21505 3.19700
Zr	Zr	0.03524 0.76369 0.21416 3.19600
C 	C 	0.04710 0.65640 0.05980 0.54600
C 	C 	0.06340 0.62390 0.02860 -0.20800
C 	C 	0.08540 0.62440 0.97130 0.11400
H 	H 	0.09126 0.64535 0.95058 -0.01100
C 	C 	0.09880 0.59500 0.94430 -0.17400
H 	H 	0.11185 0.59602 0.90279 0.08700
C 	C 	0.09360 0.56440 0.97620 0.06700
C 	C 	0.07270 0.56260 0.03850 -0.15700
H 	H 	0.06986 0.54196 0.06302 0.06500
C 	C 	0.05640 0.59290 0.06160 0.08800
H 	H 	0.04092 0.59207 0.09932 -0.01500
C 	C 	0.06470 0.34620 0.05880 0.63100
C 	C 	0.07750 0.37780 0.03290 -0.35900
C 	C 	0.06860 0.40910 0.06190 0.23800
H 	H 	0.05552 0.40972 0.10341 -0.07000
C 	C 	0.07890 0.43980 0.02970 -0.30300
H 	H 	0.06850 0.46032 0.04382 0.12400
C 	C 	0.10190 0.44070 0.98170 0.18100
C 	C 	0.11230 0.41000 0.95200 -0.29200
H 	H 	0.12794 0.41023 0.91456 0.12600
C 	C 	0.10030 0.37980 0.97590 0.24500
H 	H 	0.10747 0.35961 0.95382 -0.05100
C 	C 	0.21190 0.50970 0.59760 0.60000
C 	C 	0.19550 0.50850 0.66940 -0.24200
C 	C 	0.18510 0.53960 0.70430 0.13300
H 	H 	0.19008 0.56086 0.68378 -0.02100
C 	C 	0.16850 0.53810 0.76550 -0.18500
H 	H 	0.16189 0.55854 0.78717 0.09000
C 	C 	0.16030 0.50620 0.80010 0.09100
C 	C 	0.16970 0.47690 0.77290 -0.17500
H 	H 	0.16578 0.45620 0.79628 0.08900
C 	C 	0.18710 0.47830 0.70270 0.11900
H 	H 	0.19268 0.45769 0.68029 -0.01100
C 	C 	0.13940 0.50530 0.86650 0.07800
C 	C 	0.11170 0.47410 0.94330 0.05200
C 	C 	0.10800 0.53280 0.95280 0.07400
C 	C 	0.82412 0.75790 0.18705 -0.11300
H 	H 	0.83606 0.76266 0.22887 0.06400
C 	C 	0.78827 0.75790 0.18705 -0.00800
H 	H 	0.77632 0.76264 0.22887 -0.00800
N 	N 	0.12720 0.53550 0.89050 -0.13700
N 	N 	0.09890 0.50320 0.97740 -0.14200
N 	N 	0.13180 0.47390 0.89000 -0.13900
O 	O 	0.02610 0.65250 0.11020 -0.74300
O 	O 	0.05480 0.68302 0.02540 -0.68500
O 	O 	0.04461 0.34729 0.11090 -0.79000
O 	O 	0.07355 0.31790 0.02680 -0.68300
O 	O 	0.21910 0.48098 0.57280 -0.73600
O 	O 	0.21870 0.53863 0.57090 -0.75500
O 	O 	0.99038 0.73246 0.23410 -1.41300
O 	O 	0.99039 0.79270 0.19500 -1.28500
O 	O 	0.03540 0.71870 0.14890 -1.35400
O 	O 	0.94530 0.72032 0.14600 -1.35300
O 	O 	0.09000 0.76100 0.18930 -0.89600
O 	O 	0.88896 0.76200 0.19640 -0.61000
H 	H 	0.15195 0.74218 0.07953 0.60800
H 	H 	0.15195 0.77291 0.13371 0.59400
H 	H 	0.15195 0.73490 0.16176 0.58900
Zr	Zr	0.68923 0.00994 0.83577 3.17600
Zr	Zr	0.76388 0.05510 0.78495 3.19700
Zr	Zr	0.76369 0.96476 0.78584 3.19600
C 	C 	0.65640 0.95290 0.94020 0.54600
C 	C 	0.62390 0.93660 0.97140 -0.20800
C 	C 	0.62440 0.91460 0.02870 0.11400
H 	H 	0.64535 0.90874 0.04942 -0.01100
C 	C 	0.59500 0.90120 0.05570 -0.17400
H 	H 	0.59602 0.88815 0.09721 0.08700
C 	C 	0.56440 0.90640 0.02380 0.06700
C 	C 	0.56260 0.92730 0.96150 -0.15700
H 	H 	0.54196 0.93014 0.93698 0.06500
C 	C 	0.59290 0.94360 0.93840 0.08800
H 	H 	0.59207 0.95908 0.90068 -0.01500
C 	C 	0.34620 0.93530 0.94120 0.63100
C 	C 	0.37780 0.92250 0.96710 -0.35900
C 	C 	0.40910 0.93140 0.93810 0.23800
H 	H 	0.40972 0.94448 0.89659 -0.07000
C 	C 	0.43980 0.92110 0.97030 -0.30300
H 	H 	0.46032 0.93150 0.95618 0.12400
C 	C 	0.44070 0.89810 0.01830 0.18100
C 	C 	0.41000 0.88770 0.04800 -0.29200
H 	H 	0.41023 0.87206 0.08544 0.12600
C 	C 	0.37980 0.89970 0.02410 0.24500
H 	H 	0.35961 0.89253 0.04618 -0.05100
C 	C 	0.50970 0.78810 0.40240 0.60000
C 	C 	0.50850 0.80450 0.33060 -0.24200
C 	C 	0.53960 0.81490 0.29570 0.13300
H 	H 	0.56086 0.80992 0.31622 -0.02100
C 	C 	0.53810 0.83150 0.23450 -0.18500
H 	H 	0.55854 0.83811 0.21283 0.09000
C 	C 	0.50620 0.83970 0.19990 0.09100
C 	C 	0.47690 0.83030 0.22710 -0.17500
H 	H 	0.45620 0.83422 0.20372 0.08900
C 	C 	0.47830 0.81290 0.29730 0.11900
H 	H 	0.45769 0.80732 0.31971 -0.01100
C 	C 	0.50530 0.86060 0.13350 0.07800
C 	C 	0.47410 0.88830 0.05670 0.05200
C 	C 	0.53280 0.89200 0.04720 0.07400
C 	C 	0.75790 0.17588 0.81295 -0.11300
H 	H 	0.76266 0.16394 0.77113 0.06400
C 	C 	0.75790 0.21173 0.81295 -0.00800
H 	H 	0.76264 0.22368 0.77113 -0.00800
N 	N 	0.53550 0.87280 0.10950 -0.13700
N 	N 	0.50320 0.90110 0.02260 -0.14200
N 	N 	0.47390 0.86820 0.11000 -0.13900
O 	O 	0.65250 0.97390 0.88980 -0.74300
O 	O 	0.68302 0.94520 0.97460 -0.68500
O 	O 	0.34729 0.95539 0.88910 -0.79000
O 	O 	0.31790 0.92645 0.97320 -0.68300
O 	O 	0.48098 0.78090 0.42720 -0.73600
O 	O 	0.53863 0.78130 0.42910 -0.75500
O 	O 	0.73246 0.00962 0.76590 -1.41300
O 	O 	0.79270 0.00961 0.80500 -1.28500
O 	O 	0.71870 0.96460 0.85110 -1.35400
O 	O 	0.72032 0.05470 0.85400 -1.35300
O 	O 	0.76100 0.91000 0.81070 -0.89600
O 	O 	0.76200 0.11104 0.80360 -0.61000
H 	H 	0.74218 0.84805 0.92047 0.60800
H 	H 	0.77291 0.84805 0.86629 0.59400
H 	H 	0.73490 0.84805 0.83824 0.58900
Zr	Zr	0.18923 0.50994 0.33577 3.17600
Zr	Zr	0.26388 0.55510 0.28495 3.19700
Zr	Zr	0.26369 0.46476 0.28584 3.19600
C 	C 	0.15640 0.45290 0.44020 0.54600
C 	C 	0.12390 0.43660 0.47140 -0.20700
C 	C 	0.12440 0.41460 0.52870 0.11200
H 	H 	0.14535 0.40874 0.54942 -0.01000
C 	C 	0.09500 0.40120 0.55570 -0.17200
H 	H 	0.09602 0.38815 0.59721 0.08600
C 	C 	0.06440 0.40640 0.52380 0.06500
C 	C 	0.06260 0.42730 0.46150 -0.15400
H 	H 	0.04196 0.43014 0.43698 0.06400
C 	C 	0.09290 0.44360 0.43840 0.08700
H 	H 	0.09207 0.45908 0.40068 -0.01400
C 	C 	0.84620 0.43530 0.44120 0.63000
C 	C 	0.87780 0.42250 0.46710 -0.35600
C 	C 	0.90910 0.43140 0.43810 0.23600
H 	H 	0.90972 0.44448 0.39659 -0.06900
C 	C 	0.93980 0.42110 0.47030 -0.30000
H 	H 	0.96032 0.43150 0.45618 0.12300
C 	C 	0.94070 0.39810 0.51830 0.17800
C 	C 	0.91000 0.38770 0.54800 -0.28900
H 	H 	0.91023 0.37206 0.58544 0.12500
C 	C 	0.87980 0.39970 0.52410 0.24200
H 	H 	0.85961 0.39253 0.54618 -0.05000
C 	C 	0.00970 0.28810 0.90240 0.60000
C 	C 	0.00850 0.30450 0.83060 -0.24200
C 	C 	0.03960 0.31490 0.79570 0.13300
H 	H 	0.06086 0.30992 0.81622 -0.02100
C 	C 	0.03810 0.33150 0.73450 -0.18400
H 	H 	0.05854 0.33811 0.71283 0.09000
C 	C 	0.00620 0.33970 0.69990 0.09100
C 	C 	0.97690 0.33030 0.72710 -0.17500
H 	H 	0.95620 0.33422 0.70372 0.08900
C 	C 	0.97830 0.31290 0.79730 0.11900
H 	H 	0.95769 0.30732 0.81971 -0.01100
C 	C 	0.00530 0.36060 0.63350 0.07800
C 	C 	0.97410 0.38830 0.55670 0.05300
C 	C 	0.03280 0.39200 0.54720 0.07500
C 	C 	0.25790 0.67588 0.31295 -0.11300
H 	H 	0.26266 0.66394 0.27113 0.06400
C 	C 	0.25790 0.71173 0.31295 -0.00800
H 	H 	0.26264 0.72368 0.27113 -0.00800
N 	N 	0.03550 0.37280 0.60950 -0.13700
N 	N 	0.00320 0.40110 0.52260 -0.14200
N 	N 	0.97390 0.36820 0.61000 -0.13900
O 	O 	0.15250 0.47390 0.38980 -0.74300
O 	O 	0.18302 0.44520 0.47460 -0.68400
O 	O 	0.84729 0.45539 0.38910 -0.78900
O 	O 	0.81790 0.42645 0.47320 -0.68200
O 	O 	0.98098 0.28090 0.92720 -0.73600
O 	O 	0.03863 0.28130 0.92910 -0.75500
O 	O 	0.23246 0.50962 0.26590 -1.41300
O 	O 	0.29270 0.50961 0.30500 -1.28500
O 	O 	0.21870 0.46460 0.35110 -1.35400
O 	O 	0.22032 0.55470 0.35400 -1.35300
O 	O 	0.26100 0.41000 0.31070 -0.89600
O 	O 	0.26200 0.61104 0.30360 -0.61000
H 	H 	0.24218 0.34805 0.42047 0.60800
H 	H 	0.27291 0.34805 0.36629 0.59400
H 	H 	0.23490 0.34805 0.33824 0.58900
Zr	Zr	0.31077 0.99006 0.83577 3.17600
Zr	Zr	0.23612 0.94490 0.78495 3.19700
Zr	Zr	0.23631 0.03524 0.78584 3.19600
C 	C 	0.34360 0.04710 0.94020 0.54600
C 	C 	0.37610 0.06340 0.97140 -0.20800
C 	C 	0.37560 0.08540 0.02870 0.11400
H 	H 	0.35465 0.09126 0.04942 -0.01100
C 	C 	0.40500 0.09880 0.05570 -0.17400
H 	H 	0.40398 0.11185 0.09721 0.08700
C 	C 	0.43560 0.09360 0.02380 0.06700
C 	C 	0.43740 0.07270 0.96150 -0.15700
H 	H 	0.45804 0.06986 0.93698 0.06500
C 	C 	0.40710 0.05640 0.93840 0.08800
H 	H 	0.40793 0.04092 0.90068 -0.01500
C 	C 	0.65380 0.06470 0.94120 0.63100
C 	C 	0.62220 0.07750 0.96710 -0.35900
C 	C 	0.59090 0.06860 0.93810 0.23800
H 	H 	0.59028 0.05552 0.89659 -0.07000
C 	C 	0.56020 0.07890 0.97030 -0.30300
H 	H 	0.53968 0.06850 0.95618 0.12400
C 	C 	0.55930 0.10190 0.01830 0.18100
C 	C 	0.59000 0.11230 0.04800 -0.29200
H 	H 	0.58977 0.12794 0.08544 0.12600
C 	C 	0.62020 0.10030 0.02410 0.24500
H 	H 	0.64039 0.10747 0.04618 -0.05100
C 	C 	0.49030 0.21190 0.40240 0.60000
C 	C 	0.49150 0.19550 0.33060 -0.24200
C 	C 	0.46040 0.18510 0.29570 0.13300
H 	H 	0.43914 0.19008 0.31622 -0.02100
C 	C 	0.46190 0.16850 0.23450 -0.18500
H 	H 	0.44146 0.16189 0.21283 0.09000
C 	C 	0.49380 0.16030 0.19990 0.09100
C 	C 	0.52310 0.16970 0.22710 -0.17500
H 	H 	0.54380 0.16578 0.20372 0.08900
C 	C 	0.52170 0.18710 0.29730 0.11900
H 	H 	0.54231 0.19268 0.31971 -0.01100
C 	C 	0.49470 0.13940 0.13350 0.07800
C 	C 	0.52590 0.11170 0.05670 0.05200
C 	C 	0.46720 0.10800 0.04720 0.07400
C 	C 	0.24210 0.82412 0.81295 -0.11300
H 	H 	0.23734 0.83606 0.77113 0.06400
C 	C 	0.24210 0.78827 0.81295 -0.00800
H 	H 	0.23736 0.77632 0.77113 -0.00800
N 	N 	0.46450 0.12720 0.10950 -0.13700
N 	N 	0.49680 0.09890 0.02260 -0.14200
N 	N 	0.52610 0.13180 0.11000 -0.13900
O 	O 	0.34750 0.02610 0.88980 -0.74300
O 	O 	0.31698 0.05480 0.97460 -0.68500
O 	O 	0.65271 0.04461 0.88910 -0.79000
O 	O 	0.68210 0.07355 0.97320 -0.68300
O 	O 	0.51902 0.21910 0.42720 -0.73600
O 	O 	0.46137 0.21870 0.42910 -0.75500
O 	O 	0.26754 0.99038 0.76590 -1.41300
O 	O 	0.20730 0.99039 0.80500 -1.28500
O 	O 	0.28130 0.03540 0.85110 -1.35400
O 	O 	0.27968 0.94530 0.85400 -1.35300
O 	O 	0.23900 0.09000 0.81070 -0.89600
O 	O 	0.23800 0.88896 0.80360 -0.61000
H 	H 	0.25782 0.15195 0.92047 0.60800
H 	H 	0.22709 0.15195 0.86629 0.59400
H 	H 	0.26510 0.15195 0.83824 0.58900
Zr	Zr	0.81077 0.49006 0.33577 3.17600
Zr	Zr	0.73612 0.44490 0.28495 3.19700
Zr	Zr	0.73631 0.53524 0.28584 3.19600
C 	C 	0.84360 0.54710 0.44020 0.54600
C 	C 	0.87610 0.56340 0.47140 -0.20700
C 	C 	0.87560 0.58540 0.52870 0.11200
H 	H 	0.85465 0.59126 0.54942 -0.01000
C 	C 	0.90500 0.59880 0.55570 -0.17200
H 	H 	0.90398 0.61185 0.59721 0.08600
C 	C 	0.93560 0.59360 0.52380 0.06500
C 	C 	0.93740 0.57270 0.46150 -0.15400
H 	H 	0.95804 0.56986 0.43698 0.06400
C 	C 	0.90710 0.55640 0.43840 0.08700
H 	H 	0.90793 0.54092 0.40068 -0.01400
C 	C 	0.15380 0.56470 0.44120 0.63000
C 	C 	0.12220 0.57750 0.46710 -0.35600
C 	C 	0.09090 0.56860 0.43810 0.23600
H 	H 	0.09028 0.55552 0.39659 -0.06900
C 	C 	0.06020 0.57890 0.47030 -0.30000
H 	H 	0.03968 0.56850 0.45618 0.12300
C 	C 	0.05930 0.60190 0.51830 0.17800
C 	C 	0.09000 0.61230 0.54800 -0.28900
H 	H 	0.08977 0.62794 0.58544 0.12500
C 	C 	0.12020 0.60030 0.52410 0.24200
H 	H 	0.14039 0.60747 0.54618 -0.05000
C 	C 	0.99030 0.71190 0.90240 0.60000
C 	C 	0.99150 0.69550 0.83060 -0.24200
C 	C 	0.96040 0.68510 0.79570 0.13300
H 	H 	0.93914 0.69008 0.81622 -0.02100
C 	C 	0.96190 0.66850 0.73450 -0.18400
H 	H 	0.94146 0.66189 0.71283 0.09000
C 	C 	0.99380 0.66030 0.69990 0.09100
C 	C 	0.02310 0.66970 0.72710 -0.17500
H 	H 	0.04380 0.66578 0.70372 0.08900
C 	C 	0.02170 0.68710 0.79730 0.11900
H 	H 	0.04231 0.69268 0.81971 -0.01100
C 	C 	0.99470 0.63940 0.63350 0.07800
C 	C 	0.02590 0.61170 0.55670 0.05300
C 	C 	0.96720 0.60800 0.54720 0.07500
C 	C 	0.74210 0.32412 0.31295 -0.11300
H 	H 	0.73734 0.33606 0.27113 0.06400
C 	C 	0.74210 0.28827 0.31295 -0.00800
H 	H 	0.73736 0.27632 0.27113 -0.00800
N 	N 	0.96450 0.62720 0.60950 -0.13700
N 	N 	0.99680 0.59890 0.52260 -0.14200
N 	N 	0.02610 0.63180 0.61000 -0.13900
O 	O 	0.84750 0.52610 0.38980 -0.74300
O 	O 	0.81698 0.55480 0.47460 -0.68400
O 	O 	0.15271 0.54461 0.38910 -0.78900
O 	O 	0.18210 0.57355 0.47320 -0.68200
O 	O 	0.01902 0.71910 0.92720 -0.73600
O 	O 	0.96137 0.71870 0.92910 -0.75500
O 	O 	0.76754 0.49038 0.26590 -1.41300
O 	O 	0.70730 0.49039 0.30500 -1.28500
O 	O 	0.78130 0.53540 0.35110 -1.35400
O 	O 	0.77968 0.44530 0.35400 -1.35300
O 	O 	0.73900 0.59000 0.31070 -0.89600
O 	O 	0.73800 0.38896 0.30360 -0.61000
H 	H 	0.75782 0.65195 0.42047 0.60800
H 	H 	0.72709 0.65195 0.36629 0.59400
H 	H 	0.76510 0.65195 0.33824 0.58900
C 	C 	0.10640 0.75000 0.12500 1.23600
C 	C 	0.14370 0.75000 0.12500 -3.60800
C 	C 	0.88090 0.75000 0.12500 0.12500
C 	C 	0.84210 0.75000 0.12500 0.04400
C 	C 	0.77029 0.75000 0.12500 -0.10900
H 	H 	0.74636 0.75000 0.12500 0.02900
C 	C 	0.89360 0.25000 0.12500 1.23600
C 	C 	0.85630 0.25000 0.12500 -3.60800
C 	C 	0.11910 0.25000 0.12500 0.12500
C 	C 	0.15790 0.25000 0.12500 0.04400
C 	C 	0.22971 0.25000 0.12500 -0.10900
H 	H 	0.25364 0.25000 0.12500 0.02900
C 	C 	0.75000 0.89360 0.87500 1.23600
C 	C 	0.75000 0.85630 0.87500 -3.60800
C 	C 	0.75000 0.11910 0.87500 0.12500
C 	C 	0.75000 0.15790 0.87500 0.04400
C 	C 	0.75000 0.22971 0.87500 -0.10900
H 	H 	0.75000 0.25364 0.87500 0.02900
C 	C 	0.25000 0.39360 0.37500 1.23600
C 	C 	0.25000 0.35630 0.37500 -3.60800
C 	C 	0.25000 0.61910 0.37500 0.12500
C 	C 	0.25000 0.65790 0.37500 0.04400
C 	C 	0.25000 0.72971 0.37500 -0.10900
H 	H 	0.25000 0.75364 0.37500 0.02900
C 	C 	0.25000 0.10640 0.87500 1.23600
C 	C 	0.25000 0.14370 0.87500 -3.60800
C 	C 	0.25000 0.88090 0.87500 0.12500
C 	C 	0.25000 0.84210 0.87500 0.04400
C 	C 	0.25000 0.77029 0.87500 -0.10900
H 	H 	0.25000 0.74636 0.87500 0.02900
C 	C 	0.75000 0.60640 0.37500 1.23600
C 	C 	0.75000 0.64370 0.37500 -3.60800
C 	C 	0.75000 0.38090 0.37500 0.12500
C 	C 	0.75000 0.34210 0.37500 0.04400
C 	C 	0.75000 0.27029 0.37500 -0.10900
H 	H 	0.75000 0.24636 0.37500 0.02900
C 	C 	0.39360 0.75000 0.62500 1.23600
C 	C 	0.35630 0.75000 0.62500 -3.60800
C 	C 	0.61910 0.75000 0.62500 0.12500
C 	C 	0.65790 0.75000 0.62500 0.04400
C 	C 	0.72971 0.75000 0.62500 -0.10900
H 	H 	0.75364 0.75000 0.62500 0.02900
C 	C 	0.60640 0.25000 0.62500 1.23600
C 	C 	0.64370 0.25000 0.62500 -3.60800
C 	C 	0.38090 0.25000 0.62500 0.12500
C 	C 	0.34210 0.25000 0.62500 0.04400
C 	C 	0.27029 0.25000 0.62500 -0.10900
H 	H 	0.24636 0.25000 0.62500 0.02900
