data_crystal

_cell_length_a 38.90250
_cell_length_b 38.90250
_cell_length_c 18.92230
_cell_angle_alpha 90.00000
_cell_angle_beta  90.00000
_cell_angle_gamma 90.00000

_symmetry_space_group_name_	'P 1'
_symmetry_space_group_name_H-M	'P 1'

loop_
_symmetry_equiv_pos_as_xyz
  x,y,z

loop_
_atom_site_label
_atom_site_type_symbol
_atom_site_fract_x
_atom_site_fract_y
_atom_site_fract_z
_atom_site_charge
Zr	Zr	0.26363 0.46466 0.78595 3.19600
Zr	Zr	0.18925 0.50987 0.83637 3.17700
Zr	Zr	0.23566 0.55545 0.96369 3.21500
C 	C 	0.34380 0.45270 0.80870 0.59400
C 	C 	0.37455 0.41290 0.72550 0.11300
H 	H 	0.35329 0.40648 0.70726 -0.00200
C 	C 	0.37640 0.43710 0.77930 -0.22000
C 	C 	0.40817 0.44670 0.80650 0.10900
H 	H 	0.40941 0.46293 0.84258 -0.01300
C 	C 	0.43809 0.43210 0.77980 -0.15600
H 	H 	0.45935 0.43857 0.79802 0.08000
C 	C 	0.43623 0.40790 0.72590 0.07000
C 	C 	0.40446 0.39830 0.69870 -0.15400
H 	H 	0.40322 0.38212 0.66269 0.08900
C 	C 	0.46810 0.39460 0.69330 0.09700
C 	C 	0.49440 0.36100 0.61280 0.09100
C 	C 	0.52580 0.38940 0.69460 0.09300
C 	C 	0.52418 0.33090 0.51460 -0.14300
H 	H 	0.54515 0.33567 0.53605 0.08400
C 	C 	0.52325 0.31220 0.45200 0.09600
H 	H 	0.54359 0.30456 0.43150 0.00000
C 	C 	0.49192 0.30500 0.41990 -0.18800
C 	C 	0.46152 0.31650 0.45050 0.09600
H 	H 	0.44055 0.31170 0.42900 0.01000
C 	C 	0.46245 0.33510 0.51310 -0.14200
H 	H 	0.44211 0.34281 0.53355 0.08500
C 	C 	0.49378 0.34230 0.54520 0.06800
C 	C 	0.49100 0.28810 0.34890 0.53600
C 	C 	0.55913 0.39960 0.72590 0.06200
C 	C 	0.55960 0.42220 0.78280 -0.15300
H 	H 	0.53906 0.43005 0.80201 0.07600
C 	C 	0.59078 0.43310 0.81080 0.09900
H 	H 	0.59110 0.44821 0.84885 -0.01100
C 	C 	0.62148 0.42130 0.78210 -0.20300
C 	C 	0.62101 0.39870 0.72520 0.09700
H 	H 	0.64155 0.39082 0.70596 0.01100
C 	C 	0.58983 0.38780 0.69720 -0.14500
H 	H 	0.58952 0.37266 0.65912 0.08400
C 	C 	0.65520 0.43460 0.80920 0.56800
N 	N 	0.46490 0.37430 0.63640 -0.13800
N 	N 	0.52590 0.36980 0.63880 -0.13900
N 	N 	0.49700 0.40370 0.72240 -0.14500
O 	O 	0.31691 0.44580 0.77920 -0.71300
O 	O 	0.34783 0.47390 0.85940 -0.73300
O 	O 	0.46210 0.28270 0.32220 -0.61900
O 	O 	0.52027 0.28030 0.32110 -0.70700
O 	O 	0.68184 0.42497 0.77890 -0.66200
O 	O 	0.65247 0.45550 0.86040 -0.74500
O 	O 	0.26200 0.40870 0.81980 -0.95500
O 	O 	0.23900 0.61100 0.93250 -0.57800
O 	O 	0.21990 0.46620 0.85440 -1.38100
O 	O 	0.23290 0.51130 0.76560 -1.33400
O 	O 	0.20590 0.51010 0.94590 -1.24500
O 	O 	0.27960 0.55540 0.89650 -1.27800
O 	O 	0.26440 0.91640 0.20820 -0.82500
C 	C 	0.24700 0.68250 0.93690 0.06100
H 	H 	0.24478 0.67053 0.97922 0.02200
N 	N 	0.25590 0.78960 0.93730 -0.13100
C 	C 	0.24720 0.71810 0.93890 -0.12900
H 	H 	0.24544 0.72970 0.98167 0.06400
C 	C 	0.25950 0.82530 0.93490 0.04100
O 	O 	0.28260 0.95480 0.12290 -0.34300
C 	C 	0.27270 0.92620 0.14770 0.41500
C 	C 	0.28460 0.90620 0.02500 0.10700
H 	H 	0.29634 0.92666 0.01730 0.00400
C 	C 	0.27850 0.88390 0.96900 -0.19900
H 	H 	0.28619 0.88937 0.92392 0.09900
C 	C 	0.26090 0.85330 0.98050 0.16400
C 	C 	0.24940 0.84500 0.04800 -0.23600
H 	H 	0.23757 0.82456 0.05565 0.11000
C 	C 	0.25540 0.86740 0.10390 0.29900
H 	H 	0.24772 0.86185 0.14903 -0.04600
C 	C 	0.27300 0.89800 0.09240 -0.24100
O 	O 	0.30480 0.88120 0.24260 -0.34600
C 	C 	0.28320 0.89100 0.19860 0.49300
C 	C 	0.28770 0.83960 0.12150 -0.01100
H 	H 	0.29936 0.82896 0.15846 0.00200
C 	C 	0.28140 0.82180 0.05920 -0.02600
H 	H 	0.28883 0.79917 0.05448 -0.01400
C 	C 	0.26410 0.83770 0.00410 -0.02600
C 	C 	0.25300 0.87150 0.01120 -0.06100
H 	H 	0.24137 0.88221 0.97426 0.05100
C 	C 	0.25930 0.88940 0.07350 0.04600
H 	H 	0.25190 0.91200 0.07824 0.06000
C 	C 	0.27670 0.87340 0.12870 -0.23800
H 	H 	0.25947 0.34625 0.83131 0.60300
H 	H 	0.26367 0.34625 0.91371 0.58500
H 	H 	0.22686 0.34625 0.87998 0.59300
Zr	Zr	0.76363 0.96466 0.28595 3.19500
Zr	Zr	0.68925 0.00987 0.33637 3.17600
Zr	Zr	0.73566 0.05545 0.46369 3.21400
C 	C 	0.84380 0.95270 0.30870 0.59300
C 	C 	0.87455 0.91290 0.22550 0.11200
H 	H 	0.85329 0.90648 0.20726 -0.00300
C 	C 	0.87640 0.93710 0.27930 -0.22100
C 	C 	0.90817 0.94670 0.30650 0.10800
H 	H 	0.90941 0.96293 0.34258 -0.01400
C 	C 	0.93809 0.93210 0.27980 -0.15700
H 	H 	0.95935 0.93857 0.29802 0.07900
C 	C 	0.93623 0.90790 0.22590 0.06900
C 	C 	0.90446 0.89830 0.19870 -0.15500
H 	H 	0.90322 0.88212 0.16269 0.08800
C 	C 	0.96810 0.89460 0.19330 0.09600
C 	C 	0.99440 0.86100 0.11280 0.09000
C 	C 	0.02580 0.88940 0.19460 0.09300
C 	C 	0.02418 0.83090 0.01460 -0.14200
H 	H 	0.04515 0.83567 0.03605 0.08400
C 	C 	0.02325 0.81220 0.95200 0.09500
H 	H 	0.04359 0.80456 0.93150 0.00100
C 	C 	0.99192 0.80500 0.91990 -0.18800
C 	C 	0.96152 0.81650 0.95050 0.09500
H 	H 	0.94055 0.81170 0.92900 0.01000
C 	C 	0.96245 0.83510 0.01310 -0.14100
H 	H 	0.94211 0.84281 0.03355 0.08500
C 	C 	0.99378 0.84230 0.04520 0.06800
C 	C 	0.99100 0.78810 0.84890 0.53600
C 	C 	0.05913 0.89960 0.22590 0.06200
C 	C 	0.05960 0.92220 0.28280 -0.15300
H 	H 	0.03906 0.93005 0.30201 0.07600
C 	C 	0.09078 0.93310 0.31080 0.09900
H 	H 	0.09110 0.94821 0.34885 -0.01100
C 	C 	0.12148 0.92130 0.28210 -0.20300
C 	C 	0.12101 0.89870 0.22520 0.09700
H 	H 	0.14155 0.89082 0.20596 0.01100
C 	C 	0.08983 0.88780 0.19720 -0.14500
H 	H 	0.08952 0.87266 0.15912 0.08400
C 	C 	0.15520 0.93460 0.30920 0.56800
N 	N 	0.96490 0.87430 0.13640 -0.13800
N 	N 	0.02590 0.86980 0.13880 -0.13900
N 	N 	0.99700 0.90370 0.22240 -0.14500
O 	O 	0.81691 0.94580 0.27920 -0.71300
O 	O 	0.84783 0.97390 0.35940 -0.73300
O 	O 	0.96210 0.78270 0.82220 -0.61900
O 	O 	0.02027 0.78030 0.82110 -0.70700
O 	O 	0.18184 0.92497 0.27890 -0.66200
O 	O 	0.15247 0.95550 0.36040 -0.74500
O 	O 	0.76200 0.90870 0.31980 -0.95500
O 	O 	0.73900 0.11100 0.43250 -0.57800
O 	O 	0.71990 0.96620 0.35440 -1.38100
O 	O 	0.73290 0.01130 0.26560 -1.33400
O 	O 	0.70590 0.01010 0.44590 -1.24500
O 	O 	0.77960 0.05540 0.39650 -1.27800
O 	O 	0.76440 0.41640 0.70820 -0.82500
C 	C 	0.74700 0.18250 0.43690 0.06100
H 	H 	0.74478 0.17053 0.47922 0.02200
N 	N 	0.75590 0.28960 0.43730 -0.13100
C 	C 	0.74720 0.21810 0.43890 -0.12900
H 	H 	0.74544 0.22970 0.48167 0.06400
C 	C 	0.75950 0.32530 0.43490 0.04100
O 	O 	0.78260 0.45480 0.62290 -0.34300
C 	C 	0.77270 0.42620 0.64770 0.41600
C 	C 	0.78460 0.40620 0.52500 0.10800
H 	H 	0.79634 0.42666 0.51730 0.00300
C 	C 	0.77850 0.38390 0.46900 -0.20100
H 	H 	0.78619 0.38937 0.42392 0.10000
C 	C 	0.76090 0.35330 0.48050 0.16500
C 	C 	0.74940 0.34500 0.54800 -0.23600
H 	H 	0.73757 0.32456 0.55565 0.11000
C 	C 	0.75540 0.36740 0.60390 0.30000
H 	H 	0.74772 0.36185 0.64903 -0.04700
C 	C 	0.77300 0.39800 0.59240 -0.24200
O 	O 	0.80480 0.38120 0.74260 -0.34600
C 	C 	0.78320 0.39100 0.69860 0.49200
C 	C 	0.78770 0.33960 0.62150 -0.01300
H 	H 	0.79936 0.32896 0.65846 0.00200
C 	C 	0.78140 0.32180 0.55920 -0.02400
H 	H 	0.78883 0.29917 0.55448 -0.01500
C 	C 	0.76410 0.33770 0.50410 -0.02800
C 	C 	0.75300 0.37150 0.51120 -0.06000
H 	H 	0.74137 0.38221 0.47426 0.05100
C 	C 	0.75930 0.38940 0.57350 0.04600
H 	H 	0.75190 0.41200 0.57824 0.06000
C 	C 	0.77670 0.37340 0.62870 -0.23700
H 	H 	0.75947 0.84625 0.33131 0.60300
H 	H 	0.76367 0.84625 0.41371 0.58500
H 	H 	0.72686 0.84625 0.37998 0.59300
Zr	Zr	0.73637 0.53534 0.78595 3.19500
Zr	Zr	0.81075 0.49013 0.83637 3.17600
Zr	Zr	0.76434 0.44455 0.96369 3.21400
C 	C 	0.65620 0.54730 0.80870 0.59300
C 	C 	0.62545 0.58710 0.72550 0.11200
H 	H 	0.64671 0.59352 0.70726 -0.00300
C 	C 	0.62360 0.56290 0.77930 -0.22100
C 	C 	0.59183 0.55330 0.80650 0.10800
H 	H 	0.59059 0.53707 0.84258 -0.01400
C 	C 	0.56191 0.56790 0.77980 -0.15700
H 	H 	0.54065 0.56143 0.79802 0.07900
C 	C 	0.56377 0.59210 0.72590 0.06900
C 	C 	0.59554 0.60170 0.69870 -0.15500
H 	H 	0.59678 0.61788 0.66269 0.08800
C 	C 	0.53190 0.60540 0.69330 0.09600
C 	C 	0.50560 0.63900 0.61280 0.09000
C 	C 	0.47420 0.61060 0.69460 0.09300
C 	C 	0.47582 0.66910 0.51460 -0.14300
H 	H 	0.45485 0.66433 0.53605 0.08400
C 	C 	0.47675 0.68780 0.45200 0.09600
H 	H 	0.45641 0.69544 0.43150 0.00000
C 	C 	0.50808 0.69500 0.41990 -0.18800
C 	C 	0.53848 0.68350 0.45050 0.09600
H 	H 	0.55945 0.68830 0.42900 0.01000
C 	C 	0.53755 0.66490 0.51310 -0.14200
H 	H 	0.55789 0.65719 0.53355 0.08500
C 	C 	0.50622 0.65770 0.54520 0.06800
C 	C 	0.50900 0.71190 0.34890 0.53600
C 	C 	0.44087 0.60040 0.72590 0.06200
C 	C 	0.44040 0.57780 0.78280 -0.15300
H 	H 	0.46094 0.56995 0.80201 0.07600
C 	C 	0.40922 0.56690 0.81080 0.09900
H 	H 	0.40890 0.55179 0.84885 -0.01100
C 	C 	0.37852 0.57870 0.78210 -0.20300
C 	C 	0.37899 0.60130 0.72520 0.09700
H 	H 	0.35845 0.60918 0.70596 0.01100
C 	C 	0.41017 0.61220 0.69720 -0.14500
H 	H 	0.41048 0.62734 0.65912 0.08400
C 	C 	0.34480 0.56540 0.80920 0.56800
N 	N 	0.53510 0.62570 0.63640 -0.13800
N 	N 	0.47410 0.63020 0.63880 -0.13900
N 	N 	0.50300 0.59630 0.72240 -0.14500
O 	O 	0.68309 0.55420 0.77920 -0.71300
O 	O 	0.65217 0.52610 0.85940 -0.73300
O 	O 	0.53790 0.71730 0.32220 -0.61900
O 	O 	0.47973 0.71970 0.32110 -0.70700
O 	O 	0.31816 0.57503 0.77890 -0.66200
O 	O 	0.34753 0.54450 0.86040 -0.74500
O 	O 	0.73800 0.59130 0.81980 -0.95500
O 	O 	0.76100 0.38900 0.93250 -0.57800
O 	O 	0.78010 0.53380 0.85440 -1.38100
O 	O 	0.76710 0.48870 0.76560 -1.33400
O 	O 	0.79410 0.48990 0.94590 -1.24500
O 	O 	0.72040 0.44460 0.89650 -1.27800
O 	O 	0.73560 0.08360 0.20820 -0.82500
C 	C 	0.75300 0.31750 0.93690 0.06100
H 	H 	0.75522 0.32947 0.97922 0.02200
N 	N 	0.74410 0.21040 0.93730 -0.13100
C 	C 	0.75280 0.28190 0.93890 -0.12900
H 	H 	0.75456 0.27030 0.98167 0.06400
C 	C 	0.74050 0.17470 0.93490 0.04100
O 	O 	0.71740 0.04520 0.12290 -0.34300
C 	C 	0.72730 0.07380 0.14770 0.41500
C 	C 	0.71540 0.09380 0.02500 0.10700
H 	H 	0.70366 0.07334 0.01730 0.00400
C 	C 	0.72150 0.11610 0.96900 -0.19900
H 	H 	0.71381 0.11063 0.92392 0.09900
C 	C 	0.73910 0.14670 0.98050 0.16400
C 	C 	0.75060 0.15500 0.04800 -0.23600
H 	H 	0.76243 0.17544 0.05565 0.11000
C 	C 	0.74460 0.13260 0.10390 0.29900
H 	H 	0.75228 0.13815 0.14903 -0.04600
C 	C 	0.72700 0.10200 0.09240 -0.24100
O 	O 	0.69520 0.11880 0.24260 -0.34600
C 	C 	0.71680 0.10900 0.19860 0.49300
C 	C 	0.71230 0.16040 0.12150 -0.01100
H 	H 	0.70064 0.17104 0.15846 0.00200
C 	C 	0.71860 0.17820 0.05920 -0.02600
H 	H 	0.71117 0.20083 0.05448 -0.01400
C 	C 	0.73590 0.16230 0.00410 -0.02600
C 	C 	0.74700 0.12850 0.01120 -0.06100
H 	H 	0.75863 0.11779 0.97426 0.05100
C 	C 	0.74070 0.11060 0.07350 0.04600
H 	H 	0.74810 0.08800 0.07824 0.06000
C 	C 	0.72330 0.12660 0.12870 -0.23800
H 	H 	0.74053 0.65375 0.83131 0.60300
H 	H 	0.73633 0.65375 0.91371 0.58500
H 	H 	0.77314 0.65375 0.87998 0.59300
Zr	Zr	0.23637 0.03534 0.28595 3.19500
Zr	Zr	0.31075 0.99013 0.33637 3.17600
Zr	Zr	0.26434 0.94455 0.46369 3.21400
C 	C 	0.15620 0.04730 0.30870 0.59300
C 	C 	0.12545 0.08710 0.22550 0.11200
H 	H 	0.14671 0.09352 0.20726 -0.00300
C 	C 	0.12360 0.06290 0.27930 -0.22100
C 	C 	0.09183 0.05330 0.30650 0.10800
H 	H 	0.09059 0.03707 0.34258 -0.01400
C 	C 	0.06191 0.06790 0.27980 -0.15700
H 	H 	0.04065 0.06143 0.29802 0.07900
C 	C 	0.06377 0.09210 0.22590 0.06900
C 	C 	0.09554 0.10170 0.19870 -0.15500
H 	H 	0.09678 0.11788 0.16269 0.08800
C 	C 	0.03190 0.10540 0.19330 0.09600
C 	C 	0.00560 0.13900 0.11280 0.09000
C 	C 	0.97420 0.11060 0.19460 0.09300
C 	C 	0.97582 0.16910 0.01460 -0.14200
H 	H 	0.95485 0.16433 0.03605 0.08400
C 	C 	0.97675 0.18780 0.95200 0.09500
H 	H 	0.95641 0.19544 0.93150 0.00100
C 	C 	0.00808 0.19500 0.91990 -0.18800
C 	C 	0.03848 0.18350 0.95050 0.09500
H 	H 	0.05945 0.18830 0.92900 0.01000
C 	C 	0.03755 0.16490 0.01310 -0.14100
H 	H 	0.05789 0.15719 0.03355 0.08500
C 	C 	0.00622 0.15770 0.04520 0.06800
C 	C 	0.00900 0.21190 0.84890 0.53600
C 	C 	0.94087 0.10040 0.22590 0.06200
C 	C 	0.94040 0.07780 0.28280 -0.15300
H 	H 	0.96094 0.06995 0.30201 0.07600
C 	C 	0.90922 0.06690 0.31080 0.09900
H 	H 	0.90890 0.05179 0.34885 -0.01100
C 	C 	0.87852 0.07870 0.28210 -0.20300
C 	C 	0.87899 0.10130 0.22520 0.09700
H 	H 	0.85845 0.10918 0.20596 0.01100
C 	C 	0.91017 0.11220 0.19720 -0.14500
H 	H 	0.91048 0.12734 0.15912 0.08400
C 	C 	0.84480 0.06540 0.30920 0.56800
N 	N 	0.03510 0.12570 0.13640 -0.13800
N 	N 	0.97410 0.13020 0.13880 -0.13900
N 	N 	0.00300 0.09630 0.22240 -0.14500
O 	O 	0.18309 0.05420 0.27920 -0.71300
O 	O 	0.15217 0.02610 0.35940 -0.73300
O 	O 	0.03790 0.21730 0.82220 -0.61900
O 	O 	0.97973 0.21970 0.82110 -0.70700
O 	O 	0.81816 0.07503 0.27890 -0.66200
O 	O 	0.84753 0.04450 0.36040 -0.74500
O 	O 	0.23800 0.09130 0.31980 -0.95500
O 	O 	0.26100 0.88900 0.43250 -0.57800
O 	O 	0.28010 0.03380 0.35440 -1.38100
O 	O 	0.26710 0.98870 0.26560 -1.33400
O 	O 	0.29410 0.98990 0.44590 -1.24500
O 	O 	0.22040 0.94460 0.39650 -1.27800
O 	O 	0.23560 0.58360 0.70820 -0.82500
C 	C 	0.25300 0.81750 0.43690 0.06100
H 	H 	0.25522 0.82947 0.47922 0.02200
N 	N 	0.24410 0.71040 0.43730 -0.13100
C 	C 	0.25280 0.78190 0.43890 -0.12900
H 	H 	0.25456 0.77030 0.48167 0.06400
C 	C 	0.24050 0.67470 0.43490 0.04100
O 	O 	0.21740 0.54520 0.62290 -0.34300
C 	C 	0.22730 0.57380 0.64770 0.41600
C 	C 	0.21540 0.59380 0.52500 0.10800
H 	H 	0.20366 0.57334 0.51730 0.00300
C 	C 	0.22150 0.61610 0.46900 -0.20100
H 	H 	0.21381 0.61063 0.42392 0.10000
C 	C 	0.23910 0.64670 0.48050 0.16500
C 	C 	0.25060 0.65500 0.54800 -0.23600
H 	H 	0.26243 0.67544 0.55565 0.11000
C 	C 	0.24460 0.63260 0.60390 0.30000
H 	H 	0.25228 0.63815 0.64903 -0.04700
C 	C 	0.22700 0.60200 0.59240 -0.24200
O 	O 	0.19520 0.61880 0.74260 -0.34600
C 	C 	0.21680 0.60900 0.69860 0.49200
C 	C 	0.21230 0.66040 0.62150 -0.01300
H 	H 	0.20064 0.67104 0.65846 0.00200
C 	C 	0.21860 0.67820 0.55920 -0.02400
H 	H 	0.21117 0.70083 0.55448 -0.01500
C 	C 	0.23590 0.66230 0.50410 -0.02800
C 	C 	0.24700 0.62850 0.51120 -0.06000
H 	H 	0.25863 0.61779 0.47426 0.05100
C 	C 	0.24070 0.61060 0.57350 0.04600
H 	H 	0.24810 0.58800 0.57824 0.06000
C 	C 	0.22330 0.62660 0.62870 -0.23700
H 	H 	0.24053 0.15375 0.33131 0.60300
H 	H 	0.23633 0.15375 0.41371 0.58500
H 	H 	0.27314 0.15375 0.37998 0.59300
Zr	Zr	0.46466 0.73637 0.21405 3.19500
Zr	Zr	0.50987 0.81075 0.16363 3.17600
Zr	Zr	0.55545 0.76434 0.03631 3.21400
C 	C 	0.45270 0.65620 0.19130 0.59300
C 	C 	0.41290 0.62545 0.27450 0.11200
H 	H 	0.40648 0.64671 0.29274 -0.00300
C 	C 	0.43710 0.62360 0.22070 -0.22100
C 	C 	0.44670 0.59183 0.19350 0.10800
H 	H 	0.46293 0.59059 0.15742 -0.01400
C 	C 	0.43210 0.56191 0.22020 -0.15700
H 	H 	0.43857 0.54065 0.20198 0.07900
C 	C 	0.40790 0.56377 0.27410 0.06900
C 	C 	0.39830 0.59554 0.30130 -0.15500
H 	H 	0.38212 0.59678 0.33731 0.08800
C 	C 	0.39460 0.53190 0.30670 0.09600
C 	C 	0.36100 0.50560 0.38720 0.09000
C 	C 	0.38940 0.47420 0.30540 0.09300
C 	C 	0.33090 0.47582 0.48540 -0.14300
H 	H 	0.33567 0.45485 0.46395 0.08400
C 	C 	0.31220 0.47675 0.54800 0.09600
H 	H 	0.30456 0.45641 0.56850 0.00000
C 	C 	0.30500 0.50808 0.58010 -0.18800
C 	C 	0.31650 0.53848 0.54950 0.09600
H 	H 	0.31170 0.55945 0.57100 0.01000
C 	C 	0.33510 0.53755 0.48690 -0.14200
H 	H 	0.34281 0.55789 0.46645 0.08500
C 	C 	0.34230 0.50622 0.45480 0.06800
C 	C 	0.28810 0.50900 0.65110 0.53600
C 	C 	0.39960 0.44087 0.27410 0.06200
C 	C 	0.42220 0.44040 0.21720 -0.15300
H 	H 	0.43005 0.46094 0.19799 0.07600
C 	C 	0.43310 0.40922 0.18920 0.09900
H 	H 	0.44821 0.40890 0.15115 -0.01100
C 	C 	0.42130 0.37852 0.21790 -0.20300
C 	C 	0.39870 0.37899 0.27480 0.09700
H 	H 	0.39082 0.35845 0.29404 0.01100
C 	C 	0.38780 0.41017 0.30280 -0.14500
H 	H 	0.37266 0.41048 0.34088 0.08400
C 	C 	0.43460 0.34480 0.19080 0.56800
N 	N 	0.37430 0.53510 0.36360 -0.13800
N 	N 	0.36980 0.47410 0.36120 -0.13900
N 	N 	0.40370 0.50300 0.27760 -0.14500
O 	O 	0.44580 0.68309 0.22080 -0.71300
O 	O 	0.47390 0.65217 0.14060 -0.73300
O 	O 	0.28270 0.53790 0.67780 -0.61900
O 	O 	0.28030 0.47973 0.67890 -0.70700
O 	O 	0.42497 0.31816 0.22110 -0.66200
O 	O 	0.45550 0.34753 0.13960 -0.74500
O 	O 	0.40870 0.73800 0.18020 -0.95500
O 	O 	0.61100 0.76100 0.06750 -0.57800
O 	O 	0.46620 0.78010 0.14560 -1.38100
O 	O 	0.51130 0.76710 0.23440 -1.33400
O 	O 	0.51010 0.79410 0.05410 -1.24500
O 	O 	0.55540 0.72040 0.10350 -1.27800
O 	O 	0.91640 0.73560 0.79180 -0.82500
C 	C 	0.68250 0.75300 0.06310 0.06100
H 	H 	0.67053 0.75522 0.02078 0.02200
N 	N 	0.78960 0.74410 0.06270 -0.13100
C 	C 	0.71810 0.75280 0.06110 -0.12900
H 	H 	0.72970 0.75456 0.01833 0.06400
C 	C 	0.82530 0.74050 0.06510 0.04100
O 	O 	0.95480 0.71740 0.87710 -0.34300
C 	C 	0.92620 0.72730 0.85230 0.41500
C 	C 	0.90620 0.71540 0.97500 0.10700
H 	H 	0.92666 0.70366 0.98270 0.00400
C 	C 	0.88390 0.72150 0.03100 -0.19900
H 	H 	0.88937 0.71381 0.07608 0.09900
C 	C 	0.85330 0.73910 0.01950 0.16400
C 	C 	0.84500 0.75060 0.95200 -0.23600
H 	H 	0.82456 0.76243 0.94435 0.11000
C 	C 	0.86740 0.74460 0.89610 0.29900
H 	H 	0.86185 0.75228 0.85097 -0.04600
C 	C 	0.89800 0.72700 0.90760 -0.24100
O 	O 	0.88120 0.69520 0.75740 -0.34600
C 	C 	0.89100 0.71680 0.80140 0.49300
C 	C 	0.83960 0.71230 0.87850 -0.01100
H 	H 	0.82896 0.70064 0.84154 0.00200
C 	C 	0.82180 0.71860 0.94080 -0.02600
H 	H 	0.79917 0.71117 0.94552 -0.01400
C 	C 	0.83770 0.73590 0.99590 -0.02600
C 	C 	0.87150 0.74700 0.98880 -0.06100
H 	H 	0.88221 0.75863 0.02574 0.05100
C 	C 	0.88940 0.74070 0.92650 0.04600
H 	H 	0.91200 0.74810 0.92176 0.06000
C 	C 	0.87340 0.72330 0.87130 -0.23800
H 	H 	0.34625 0.74053 0.16869 0.60300
H 	H 	0.34625 0.73633 0.08629 0.58500
H 	H 	0.34625 0.77314 0.12002 0.59300
Zr	Zr	0.96466 0.23637 0.71405 3.19500
Zr	Zr	0.00987 0.31075 0.66363 3.17600
Zr	Zr	0.05545 0.26434 0.53631 3.21400
C 	C 	0.95270 0.15620 0.69130 0.59300
C 	C 	0.91290 0.12545 0.77450 0.11200
H 	H 	0.90648 0.14671 0.79274 -0.00300
C 	C 	0.93710 0.12360 0.72070 -0.22100
C 	C 	0.94670 0.09183 0.69350 0.10800
H 	H 	0.96293 0.09059 0.65742 -0.01400
C 	C 	0.93210 0.06191 0.72020 -0.15700
H 	H 	0.93857 0.04065 0.70198 0.07900
C 	C 	0.90790 0.06377 0.77410 0.06900
C 	C 	0.89830 0.09554 0.80130 -0.15500
H 	H 	0.88212 0.09678 0.83731 0.08800
C 	C 	0.89460 0.03190 0.80670 0.09600
C 	C 	0.86100 0.00560 0.88720 0.09000
C 	C 	0.88940 0.97420 0.80540 0.09300
C 	C 	0.83090 0.97582 0.98540 -0.14200
H 	H 	0.83567 0.95485 0.96395 0.08400
C 	C 	0.81220 0.97675 0.04800 0.09500
H 	H 	0.80456 0.95641 0.06850 0.00100
C 	C 	0.80500 0.00808 0.08010 -0.18800
C 	C 	0.81650 0.03848 0.04950 0.09500
H 	H 	0.81170 0.05945 0.07100 0.01000
C 	C 	0.83510 0.03755 0.98690 -0.14100
H 	H 	0.84281 0.05789 0.96645 0.08500
C 	C 	0.84230 0.00622 0.95480 0.06800
C 	C 	0.78810 0.00900 0.15110 0.53600
C 	C 	0.89960 0.94087 0.77410 0.06200
C 	C 	0.92220 0.94040 0.71720 -0.15300
H 	H 	0.93005 0.96094 0.69799 0.07600
C 	C 	0.93310 0.90922 0.68920 0.09900
H 	H 	0.94821 0.90890 0.65115 -0.01100
C 	C 	0.92130 0.87852 0.71790 -0.20300
C 	C 	0.89870 0.87899 0.77480 0.09700
H 	H 	0.89082 0.85845 0.79404 0.01100
C 	C 	0.88780 0.91017 0.80280 -0.14500
H 	H 	0.87266 0.91048 0.84088 0.08400
C 	C 	0.93460 0.84480 0.69080 0.56800
N 	N 	0.87430 0.03510 0.86360 -0.13800
N 	N 	0.86980 0.97410 0.86120 -0.13900
N 	N 	0.90370 0.00300 0.77760 -0.14500
O 	O 	0.94580 0.18309 0.72080 -0.71300
O 	O 	0.97390 0.15217 0.64060 -0.73300
O 	O 	0.78270 0.03790 0.17780 -0.61900
O 	O 	0.78030 0.97973 0.17890 -0.70700
O 	O 	0.92497 0.81816 0.72110 -0.66200
O 	O 	0.95550 0.84753 0.63960 -0.74500
O 	O 	0.90870 0.23800 0.68020 -0.95500
O 	O 	0.11100 0.26100 0.56750 -0.57800
O 	O 	0.96620 0.28010 0.64560 -1.38100
O 	O 	0.01130 0.26710 0.73440 -1.33400
O 	O 	0.01010 0.29410 0.55410 -1.24500
O 	O 	0.05540 0.22040 0.60350 -1.27800
O 	O 	0.41640 0.23560 0.29180 -0.82500
C 	C 	0.18250 0.25300 0.56310 0.06100
H 	H 	0.17053 0.25522 0.52078 0.02200
N 	N 	0.28960 0.24410 0.56270 -0.13100
C 	C 	0.21810 0.25280 0.56110 -0.12900
H 	H 	0.22970 0.25456 0.51833 0.06400
C 	C 	0.32530 0.24050 0.56510 0.04100
O 	O 	0.45480 0.21740 0.37710 -0.34300
C 	C 	0.42620 0.22730 0.35230 0.41600
C 	C 	0.40620 0.21540 0.47500 0.10800
H 	H 	0.42666 0.20366 0.48270 0.00300
C 	C 	0.38390 0.22150 0.53100 -0.20100
H 	H 	0.38937 0.21381 0.57608 0.10000
C 	C 	0.35330 0.23910 0.51950 0.16500
C 	C 	0.34500 0.25060 0.45200 -0.23600
H 	H 	0.32456 0.26243 0.44435 0.11000
C 	C 	0.36740 0.24460 0.39610 0.30000
H 	H 	0.36185 0.25228 0.35097 -0.04700
C 	C 	0.39800 0.22700 0.40760 -0.24200
O 	O 	0.38120 0.19520 0.25740 -0.34600
C 	C 	0.39100 0.21680 0.30140 0.49200
C 	C 	0.33960 0.21230 0.37850 -0.01300
H 	H 	0.32896 0.20064 0.34154 0.00200
C 	C 	0.32180 0.21860 0.44080 -0.02400
H 	H 	0.29917 0.21117 0.44552 -0.01500
C 	C 	0.33770 0.23590 0.49590 -0.02800
C 	C 	0.37150 0.24700 0.48880 -0.06000
H 	H 	0.38221 0.25863 0.52574 0.05100
C 	C 	0.38940 0.24070 0.42650 0.04600
H 	H 	0.41200 0.24810 0.42176 0.06000
C 	C 	0.37340 0.22330 0.37130 -0.23700
H 	H 	0.84625 0.24053 0.66869 0.60300
H 	H 	0.84625 0.23633 0.58629 0.58500
H 	H 	0.84625 0.27314 0.62002 0.59300
Zr	Zr	0.53534 0.26363 0.21405 3.19500
Zr	Zr	0.49013 0.18925 0.16363 3.17600
Zr	Zr	0.44455 0.23566 0.03631 3.21400
C 	C 	0.54730 0.34380 0.19130 0.59300
C 	C 	0.58710 0.37455 0.27450 0.11200
H 	H 	0.59352 0.35329 0.29274 -0.00300
C 	C 	0.56290 0.37640 0.22070 -0.22100
C 	C 	0.55330 0.40817 0.19350 0.10800
H 	H 	0.53707 0.40941 0.15742 -0.01400
C 	C 	0.56790 0.43809 0.22020 -0.15700
H 	H 	0.56143 0.45935 0.20198 0.07900
C 	C 	0.59210 0.43623 0.27410 0.06900
C 	C 	0.60170 0.40446 0.30130 -0.15500
H 	H 	0.61788 0.40322 0.33731 0.08800
C 	C 	0.60540 0.46810 0.30670 0.09600
C 	C 	0.63900 0.49440 0.38720 0.09000
C 	C 	0.61060 0.52580 0.30540 0.09300
C 	C 	0.66910 0.52418 0.48540 -0.14300
H 	H 	0.66433 0.54515 0.46395 0.08400
C 	C 	0.68780 0.52325 0.54800 0.09600
H 	H 	0.69544 0.54359 0.56850 0.00000
C 	C 	0.69500 0.49192 0.58010 -0.18800
C 	C 	0.68350 0.46152 0.54950 0.09600
H 	H 	0.68830 0.44055 0.57100 0.01000
C 	C 	0.66490 0.46245 0.48690 -0.14200
H 	H 	0.65719 0.44211 0.46645 0.08500
C 	C 	0.65770 0.49378 0.45480 0.06800
C 	C 	0.71190 0.49100 0.65110 0.53600
C 	C 	0.60040 0.55913 0.27410 0.06200
C 	C 	0.57780 0.55960 0.21720 -0.15300
H 	H 	0.56995 0.53906 0.19799 0.07600
C 	C 	0.56690 0.59078 0.18920 0.09900
H 	H 	0.55179 0.59110 0.15115 -0.01100
C 	C 	0.57870 0.62148 0.21790 -0.20300
C 	C 	0.60130 0.62101 0.27480 0.09700
H 	H 	0.60918 0.64155 0.29404 0.01100
C 	C 	0.61220 0.58983 0.30280 -0.14500
H 	H 	0.62734 0.58952 0.34088 0.08400
C 	C 	0.56540 0.65520 0.19080 0.56800
N 	N 	0.62570 0.46490 0.36360 -0.13800
N 	N 	0.63020 0.52590 0.36120 -0.13900
N 	N 	0.59630 0.49700 0.27760 -0.14500
O 	O 	0.55420 0.31691 0.22080 -0.71300
O 	O 	0.52610 0.34783 0.14060 -0.73300
O 	O 	0.71730 0.46210 0.67780 -0.61900
O 	O 	0.71970 0.52027 0.67890 -0.70700
O 	O 	0.57503 0.68184 0.22110 -0.66200
O 	O 	0.54450 0.65247 0.13960 -0.74500
O 	O 	0.59130 0.26200 0.18020 -0.95500
O 	O 	0.38900 0.23900 0.06750 -0.57800
O 	O 	0.53380 0.21990 0.14560 -1.38100
O 	O 	0.48870 0.23290 0.23440 -1.33400
O 	O 	0.48990 0.20590 0.05410 -1.24500
O 	O 	0.44460 0.27960 0.10350 -1.27800
O 	O 	0.08360 0.26440 0.79180 -0.82500
C 	C 	0.31750 0.24700 0.06310 0.06100
H 	H 	0.32947 0.24478 0.02078 0.02200
N 	N 	0.21040 0.25590 0.06270 -0.13100
C 	C 	0.28190 0.24720 0.06110 -0.12900
H 	H 	0.27030 0.24544 0.01833 0.06400
C 	C 	0.17470 0.25950 0.06510 0.04100
O 	O 	0.04520 0.28260 0.87710 -0.34300
C 	C 	0.07380 0.27270 0.85230 0.41500
C 	C 	0.09380 0.28460 0.97500 0.10700
H 	H 	0.07334 0.29634 0.98270 0.00400
C 	C 	0.11610 0.27850 0.03100 -0.19900
H 	H 	0.11063 0.28619 0.07608 0.09900
C 	C 	0.14670 0.26090 0.01950 0.16400
C 	C 	0.15500 0.24940 0.95200 -0.23600
H 	H 	0.17544 0.23757 0.94435 0.11000
C 	C 	0.13260 0.25540 0.89610 0.29900
H 	H 	0.13815 0.24772 0.85097 -0.04600
C 	C 	0.10200 0.27300 0.90760 -0.24100
O 	O 	0.11880 0.30480 0.75740 -0.34600
C 	C 	0.10900 0.28320 0.80140 0.49300
C 	C 	0.16040 0.28770 0.87850 -0.01100
H 	H 	0.17104 0.29936 0.84154 0.00200
C 	C 	0.17820 0.28140 0.94080 -0.02600
H 	H 	0.20083 0.28883 0.94552 -0.01400
C 	C 	0.16230 0.26410 0.99590 -0.02600
C 	C 	0.12850 0.25300 0.98880 -0.06100
H 	H 	0.11779 0.24137 0.02574 0.05100
C 	C 	0.11060 0.25930 0.92650 0.04600
H 	H 	0.08800 0.25190 0.92176 0.06000
C 	C 	0.12660 0.27670 0.87130 -0.23800
H 	H 	0.65375 0.25947 0.16869 0.60300
H 	H 	0.65375 0.26367 0.08629 0.58500
H 	H 	0.65375 0.22686 0.12002 0.59300
Zr	Zr	0.03534 0.76363 0.71405 3.19500
Zr	Zr	0.99013 0.68925 0.66363 3.17600
Zr	Zr	0.94455 0.73566 0.53631 3.21400
C 	C 	0.04730 0.84380 0.69130 0.59300
C 	C 	0.08710 0.87455 0.77450 0.11200
H 	H 	0.09352 0.85329 0.79274 -0.00300
C 	C 	0.06290 0.87640 0.72070 -0.22100
C 	C 	0.05330 0.90817 0.69350 0.10800
H 	H 	0.03707 0.90941 0.65742 -0.01400
C 	C 	0.06790 0.93809 0.72020 -0.15700
H 	H 	0.06143 0.95935 0.70198 0.07900
C 	C 	0.09210 0.93623 0.77410 0.06900
C 	C 	0.10170 0.90446 0.80130 -0.15500
H 	H 	0.11788 0.90322 0.83731 0.08800
C 	C 	0.10540 0.96810 0.80670 0.09600
C 	C 	0.13900 0.99440 0.88720 0.09000
C 	C 	0.11060 0.02580 0.80540 0.09300
C 	C 	0.16910 0.02418 0.98540 -0.14200
H 	H 	0.16433 0.04515 0.96395 0.08400
C 	C 	0.18780 0.02325 0.04800 0.09500
H 	H 	0.19544 0.04359 0.06850 0.00100
C 	C 	0.19500 0.99192 0.08010 -0.18800
C 	C 	0.18350 0.96152 0.04950 0.09500
H 	H 	0.18830 0.94055 0.07100 0.01000
C 	C 	0.16490 0.96245 0.98690 -0.14100
H 	H 	0.15719 0.94211 0.96645 0.08500
C 	C 	0.15770 0.99378 0.95480 0.06800
C 	C 	0.21190 0.99100 0.15110 0.53600
C 	C 	0.10040 0.05913 0.77410 0.06200
C 	C 	0.07780 0.05960 0.71720 -0.15300
H 	H 	0.06995 0.03906 0.69799 0.07600
C 	C 	0.06690 0.09078 0.68920 0.09900
H 	H 	0.05179 0.09110 0.65115 -0.01100
C 	C 	0.07870 0.12148 0.71790 -0.20300
C 	C 	0.10130 0.12101 0.77480 0.09700
H 	H 	0.10918 0.14155 0.79404 0.01100
C 	C 	0.11220 0.08983 0.80280 -0.14500
H 	H 	0.12734 0.08952 0.84088 0.08400
C 	C 	0.06540 0.15520 0.69080 0.56800
N 	N 	0.12570 0.96490 0.86360 -0.13800
N 	N 	0.13020 0.02590 0.86120 -0.13900
N 	N 	0.09630 0.99700 0.77760 -0.14500
O 	O 	0.05420 0.81691 0.72080 -0.71300
O 	O 	0.02610 0.84783 0.64060 -0.73300
O 	O 	0.21730 0.96210 0.17780 -0.61900
O 	O 	0.21970 0.02027 0.17890 -0.70700
O 	O 	0.07503 0.18184 0.72110 -0.66200
O 	O 	0.04450 0.15247 0.63960 -0.74500
O 	O 	0.09130 0.76200 0.68020 -0.95500
O 	O 	0.88900 0.73900 0.56750 -0.57800
O 	O 	0.03380 0.71990 0.64560 -1.38100
O 	O 	0.98870 0.73290 0.73440 -1.33400
O 	O 	0.98990 0.70590 0.55410 -1.24500
O 	O 	0.94460 0.77960 0.60350 -1.27800
O 	O 	0.58360 0.76440 0.29180 -0.82500
C 	C 	0.81750 0.74700 0.56310 0.06100
H 	H 	0.82947 0.74478 0.52078 0.02200
N 	N 	0.71040 0.75590 0.56270 -0.13100
C 	C 	0.78190 0.74720 0.56110 -0.12900
H 	H 	0.77030 0.74544 0.51833 0.06400
C 	C 	0.67470 0.75950 0.56510 0.04100
O 	O 	0.54520 0.78260 0.37710 -0.34300
C 	C 	0.57380 0.77270 0.35230 0.41600
C 	C 	0.59380 0.78460 0.47500 0.10800
H 	H 	0.57334 0.79634 0.48270 0.00300
C 	C 	0.61610 0.77850 0.53100 -0.20100
H 	H 	0.61063 0.78619 0.57608 0.10000
C 	C 	0.64670 0.76090 0.51950 0.16500
C 	C 	0.65500 0.74940 0.45200 -0.23600
H 	H 	0.67544 0.73757 0.44435 0.11000
C 	C 	0.63260 0.75540 0.39610 0.30000
H 	H 	0.63815 0.74772 0.35097 -0.04700
C 	C 	0.60200 0.77300 0.40760 -0.24200
O 	O 	0.61880 0.80480 0.25740 -0.34600
C 	C 	0.60900 0.78320 0.30140 0.49200
C 	C 	0.66040 0.78770 0.37850 -0.01300
H 	H 	0.67104 0.79936 0.34154 0.00200
C 	C 	0.67820 0.78140 0.44080 -0.02400
H 	H 	0.70083 0.78883 0.44552 -0.01500
C 	C 	0.66230 0.76410 0.49590 -0.02800
C 	C 	0.62850 0.75300 0.48880 -0.06000
H 	H 	0.61779 0.74137 0.52574 0.05100
C 	C 	0.61060 0.75930 0.42650 0.04600
H 	H 	0.58800 0.75190 0.42176 0.06000
C 	C 	0.62660 0.77670 0.37130 -0.23700
H 	H 	0.15375 0.75947 0.66869 0.60300
H 	H 	0.15375 0.76367 0.58629 0.58500
H 	H 	0.15375 0.72686 0.62002 0.59300
Zr	Zr	0.23637 0.46466 0.96405 3.19500
Zr	Zr	0.31075 0.50987 0.91363 3.17600
Zr	Zr	0.26434 0.55545 0.78631 3.21400
C 	C 	0.15620 0.45270 0.94130 0.59400
C 	C 	0.12545 0.41290 0.02450 0.11400
H 	H 	0.14671 0.40648 0.04274 -0.00400
C 	C 	0.12360 0.43710 0.97070 -0.22300
C 	C 	0.09183 0.44670 0.94350 0.11000
H 	H 	0.09059 0.46293 0.90742 -0.01500
C 	C 	0.06191 0.43210 0.97020 -0.16000
H 	H 	0.04065 0.43857 0.95198 0.08000
C 	C 	0.06377 0.40790 0.02410 0.07100
C 	C 	0.09554 0.39830 0.05130 -0.15700
H 	H 	0.09678 0.38212 0.08731 0.08900
C 	C 	0.03190 0.39460 0.05670 0.09600
C 	C 	0.00560 0.36100 0.13720 0.09000
C 	C 	0.97420 0.38940 0.05540 0.09200
C 	C 	0.97582 0.33090 0.23540 -0.14300
H 	H 	0.95485 0.33567 0.21395 0.08400
C 	C 	0.97675 0.31220 0.29800 0.09600
H 	H 	0.95641 0.30456 0.31850 0.00000
C 	C 	0.00808 0.30500 0.33010 -0.18800
C 	C 	0.03848 0.31650 0.29950 0.09600
H 	H 	0.05945 0.31170 0.32100 0.01000
C 	C 	0.03755 0.33510 0.23690 -0.14200
H 	H 	0.05789 0.34281 0.21645 0.08500
C 	C 	0.00622 0.34230 0.20480 0.06800
C 	C 	0.00900 0.28810 0.40110 0.53600
C 	C 	0.94087 0.39960 0.02410 0.06400
C 	C 	0.94040 0.42220 0.96720 -0.15500
H 	H 	0.96094 0.43005 0.94799 0.07700
C 	C 	0.90922 0.43310 0.93920 0.10100
H 	H 	0.90890 0.44821 0.90115 -0.01200
C 	C 	0.87852 0.42130 0.96790 -0.20500
C 	C 	0.87899 0.39870 0.02480 0.09900
H 	H 	0.85845 0.39082 0.04404 0.01000
C 	C 	0.91017 0.38780 0.05280 -0.14700
H 	H 	0.91048 0.37266 0.09088 0.08400
C 	C 	0.84480 0.43460 0.94080 0.56800
N 	N 	0.03510 0.37430 0.11360 -0.13800
N 	N 	0.97410 0.36980 0.11120 -0.13900
N 	N 	0.00300 0.40370 0.02760 -0.14500
O 	O 	0.18309 0.44580 0.97080 -0.71300
O 	O 	0.15217 0.47390 0.89060 -0.73400
O 	O 	0.03790 0.28270 0.42780 -0.61900
O 	O 	0.97973 0.28030 0.42890 -0.70700
O 	O 	0.81816 0.42497 0.97110 -0.66300
O 	O 	0.84753 0.45550 0.88960 -0.74500
O 	O 	0.23800 0.40870 0.93020 -0.95500
O 	O 	0.26100 0.61100 0.81750 -0.57800
O 	O 	0.28010 0.46620 0.89560 -1.38100
O 	O 	0.26710 0.51130 0.98440 -1.33400
O 	O 	0.29410 0.51010 0.80410 -1.24500
O 	O 	0.22040 0.55540 0.85350 -1.27800
O 	O 	0.23560 0.91640 0.54180 -0.82500
C 	C 	0.25300 0.68250 0.81310 0.06100
H 	H 	0.25522 0.67053 0.77078 0.02200
N 	N 	0.24410 0.78960 0.81270 -0.13100
C 	C 	0.25280 0.71810 0.81110 -0.12900
H 	H 	0.25456 0.72970 0.76833 0.06400
C 	C 	0.24050 0.82530 0.81510 0.04100
O 	O 	0.21740 0.95480 0.62710 -0.34300
C 	C 	0.22730 0.92620 0.60230 0.41600
C 	C 	0.21540 0.90620 0.72500 0.10800
H 	H 	0.20366 0.92666 0.73270 0.00300
C 	C 	0.22150 0.88390 0.78100 -0.20100
H 	H 	0.21381 0.88937 0.82608 0.10000
C 	C 	0.23910 0.85330 0.76950 0.16500
C 	C 	0.25060 0.84500 0.70200 -0.23600
H 	H 	0.26243 0.82456 0.69435 0.11000
C 	C 	0.24460 0.86740 0.64610 0.30000
H 	H 	0.25228 0.86185 0.60097 -0.04700
C 	C 	0.22700 0.89800 0.65760 -0.24200
O 	O 	0.19520 0.88120 0.50740 -0.34600
C 	C 	0.21680 0.89100 0.55140 0.49200
C 	C 	0.21230 0.83960 0.62850 -0.01300
H 	H 	0.20064 0.82896 0.59154 0.00200
C 	C 	0.21860 0.82180 0.69080 -0.02400
H 	H 	0.21117 0.79917 0.69552 -0.01500
C 	C 	0.23590 0.83770 0.74590 -0.02800
C 	C 	0.24700 0.87150 0.73880 -0.06000
H 	H 	0.25863 0.88221 0.77574 0.05100
C 	C 	0.24070 0.88940 0.67650 0.04600
H 	H 	0.24810 0.91200 0.67176 0.06000
C 	C 	0.22330 0.87340 0.62130 -0.23700
H 	H 	0.24053 0.34625 0.91869 0.60300
H 	H 	0.23633 0.34625 0.83629 0.58500
H 	H 	0.27314 0.34625 0.87002 0.59300
Zr	Zr	0.73637 0.96466 0.46405 3.19500
Zr	Zr	0.81075 0.00987 0.41363 3.17600
Zr	Zr	0.76434 0.05545 0.28631 3.21400
C 	C 	0.65620 0.95270 0.44130 0.59300
C 	C 	0.62545 0.91290 0.52450 0.11200
H 	H 	0.64671 0.90648 0.54274 -0.00300
C 	C 	0.62360 0.93710 0.47070 -0.22100
C 	C 	0.59183 0.94670 0.44350 0.10800
H 	H 	0.59059 0.96293 0.40742 -0.01400
C 	C 	0.56191 0.93210 0.47020 -0.15700
H 	H 	0.54065 0.93857 0.45198 0.07900
C 	C 	0.56377 0.90790 0.52410 0.06900
C 	C 	0.59554 0.89830 0.55130 -0.15500
H 	H 	0.59678 0.88212 0.58731 0.08800
C 	C 	0.53190 0.89460 0.55670 0.09600
C 	C 	0.50560 0.86100 0.63720 0.09000
C 	C 	0.47420 0.88940 0.55540 0.09300
C 	C 	0.47582 0.83090 0.73540 -0.14300
H 	H 	0.45485 0.83567 0.71395 0.08400
C 	C 	0.47675 0.81220 0.79800 0.09600
H 	H 	0.45641 0.80456 0.81850 0.00100
C 	C 	0.50808 0.80500 0.83010 -0.18800
C 	C 	0.53848 0.81650 0.79950 0.09600
H 	H 	0.55945 0.81170 0.82100 0.01000
C 	C 	0.53755 0.83510 0.73690 -0.14200
H 	H 	0.55789 0.84281 0.71645 0.08500
C 	C 	0.50622 0.84230 0.70480 0.06800
C 	C 	0.50900 0.78810 0.90110 0.53600
C 	C 	0.44087 0.89960 0.52410 0.06200
C 	C 	0.44040 0.92220 0.46720 -0.15300
H 	H 	0.46094 0.93005 0.44799 0.07600
C 	C 	0.40922 0.93310 0.43920 0.09900
H 	H 	0.40890 0.94821 0.40115 -0.01100
C 	C 	0.37852 0.92130 0.46790 -0.20300
C 	C 	0.37899 0.89870 0.52480 0.09700
H 	H 	0.35845 0.89082 0.54404 0.01100
C 	C 	0.41017 0.88780 0.55280 -0.14500
H 	H 	0.41048 0.87266 0.59088 0.08400
C 	C 	0.34480 0.93460 0.44080 0.56800
N 	N 	0.53510 0.87430 0.61360 -0.13800
N 	N 	0.47410 0.86980 0.61120 -0.13900
N 	N 	0.50300 0.90370 0.52760 -0.14500
O 	O 	0.68309 0.94580 0.47080 -0.71300
O 	O 	0.65217 0.97390 0.39060 -0.73300
O 	O 	0.53790 0.78270 0.92780 -0.61900
O 	O 	0.47973 0.78030 0.92890 -0.70700
O 	O 	0.31816 0.92497 0.47110 -0.66200
O 	O 	0.34753 0.95550 0.38960 -0.74500
O 	O 	0.73800 0.90870 0.43020 -0.95500
O 	O 	0.76100 0.11100 0.31750 -0.57800
O 	O 	0.78010 0.96620 0.39560 -1.38100
O 	O 	0.76710 0.01130 0.48440 -1.33400
O 	O 	0.79410 0.01010 0.30410 -1.24500
O 	O 	0.72040 0.05540 0.35350 -1.27800
O 	O 	0.73560 0.41640 0.04180 -0.82500
C 	C 	0.75300 0.18250 0.31310 0.06100
H 	H 	0.75522 0.17053 0.27078 0.02200
N 	N 	0.74410 0.28960 0.31270 -0.13100
C 	C 	0.75280 0.21810 0.31110 -0.12900
H 	H 	0.75456 0.22970 0.26833 0.06400
C 	C 	0.74050 0.32530 0.31510 0.04100
O 	O 	0.71740 0.45480 0.12710 -0.34200
C 	C 	0.72730 0.42620 0.10230 0.41600
C 	C 	0.71540 0.40620 0.22500 0.10800
H 	H 	0.70366 0.42666 0.23270 0.00300
C 	C 	0.72150 0.38390 0.28100 -0.20100
H 	H 	0.71381 0.38937 0.32608 0.10000
C 	C 	0.73910 0.35330 0.26950 0.16500
C 	C 	0.75060 0.34500 0.20200 -0.23600
H 	H 	0.76243 0.32456 0.19435 0.11000
C 	C 	0.74460 0.36740 0.14610 0.30000
H 	H 	0.75228 0.36185 0.10097 -0.04700
C 	C 	0.72700 0.39800 0.15760 -0.24200
O 	O 	0.69520 0.38120 0.00740 -0.34500
C 	C 	0.71680 0.39100 0.05140 0.49200
C 	C 	0.71230 0.33960 0.12850 -0.01300
H 	H 	0.70064 0.32896 0.09154 0.00200
C 	C 	0.71860 0.32180 0.19080 -0.02400
H 	H 	0.71117 0.29917 0.19552 -0.01500
C 	C 	0.73590 0.33770 0.24590 -0.02800
C 	C 	0.74700 0.37150 0.23880 -0.06000
H 	H 	0.75863 0.38221 0.27574 0.05100
C 	C 	0.74070 0.38940 0.17650 0.04600
H 	H 	0.74810 0.41200 0.17176 0.06000
C 	C 	0.72330 0.37340 0.12130 -0.23700
H 	H 	0.74053 0.84625 0.41869 0.60300
H 	H 	0.73633 0.84625 0.33629 0.58500
H 	H 	0.77314 0.84625 0.37002 0.59300
Zr	Zr	0.76363 0.53534 0.96405 3.19500
Zr	Zr	0.68925 0.49013 0.91363 3.17600
Zr	Zr	0.73566 0.44455 0.78631 3.21400
C 	C 	0.84380 0.54730 0.94130 0.59400
C 	C 	0.87455 0.58710 0.02450 0.11400
H 	H 	0.85329 0.59352 0.04274 -0.00400
C 	C 	0.87640 0.56290 0.97070 -0.22300
C 	C 	0.90817 0.55330 0.94350 0.11000
H 	H 	0.90941 0.53707 0.90742 -0.01500
C 	C 	0.93809 0.56790 0.97020 -0.16000
H 	H 	0.95935 0.56143 0.95198 0.08000
C 	C 	0.93623 0.59210 0.02410 0.07100
C 	C 	0.90446 0.60170 0.05130 -0.15700
H 	H 	0.90322 0.61788 0.08731 0.08900
C 	C 	0.96810 0.60540 0.05670 0.09600
C 	C 	0.99440 0.63900 0.13720 0.09000
C 	C 	0.02580 0.61060 0.05540 0.09200
C 	C 	0.02418 0.66910 0.23540 -0.14300
H 	H 	0.04515 0.66433 0.21395 0.08400
C 	C 	0.02325 0.68780 0.29800 0.09600
H 	H 	0.04359 0.69544 0.31850 0.00000
C 	C 	0.99192 0.69500 0.33010 -0.18800
C 	C 	0.96152 0.68350 0.29950 0.09600
H 	H 	0.94055 0.68830 0.32100 0.01000
C 	C 	0.96245 0.66490 0.23690 -0.14200
H 	H 	0.94211 0.65719 0.21645 0.08500
C 	C 	0.99378 0.65770 0.20480 0.06800
C 	C 	0.99100 0.71190 0.40110 0.53600
C 	C 	0.05913 0.60040 0.02410 0.06400
C 	C 	0.05960 0.57780 0.96720 -0.15500
H 	H 	0.03906 0.56995 0.94799 0.07700
C 	C 	0.09078 0.56690 0.93920 0.10100
H 	H 	0.09110 0.55179 0.90115 -0.01200
C 	C 	0.12148 0.57870 0.96790 -0.20500
C 	C 	0.12101 0.60130 0.02480 0.09900
H 	H 	0.14155 0.60918 0.04404 0.01000
C 	C 	0.08983 0.61220 0.05280 -0.14700
H 	H 	0.08952 0.62734 0.09088 0.08400
C 	C 	0.15520 0.56540 0.94080 0.56800
N 	N 	0.96490 0.62570 0.11360 -0.13800
N 	N 	0.02590 0.63020 0.11120 -0.13900
N 	N 	0.99700 0.59630 0.02760 -0.14500
O 	O 	0.81691 0.55420 0.97080 -0.71300
O 	O 	0.84783 0.52610 0.89060 -0.73400
O 	O 	0.96210 0.71730 0.42780 -0.61900
O 	O 	0.02027 0.71970 0.42890 -0.70700
O 	O 	0.18184 0.57503 0.97110 -0.66300
O 	O 	0.15247 0.54450 0.88960 -0.74500
O 	O 	0.76200 0.59130 0.93020 -0.95500
O 	O 	0.73900 0.38900 0.81750 -0.57800
O 	O 	0.71990 0.53380 0.89560 -1.38100
O 	O 	0.73290 0.48870 0.98440 -1.33400
O 	O 	0.70590 0.48990 0.80410 -1.24500
O 	O 	0.77960 0.44460 0.85350 -1.27800
O 	O 	0.76440 0.08360 0.54180 -0.82500
C 	C 	0.74700 0.31750 0.81310 0.06100
H 	H 	0.74478 0.32947 0.77078 0.02200
N 	N 	0.75590 0.21040 0.81270 -0.13100
C 	C 	0.74720 0.28190 0.81110 -0.12900
H 	H 	0.74544 0.27030 0.76833 0.06400
C 	C 	0.75950 0.17470 0.81510 0.04100
O 	O 	0.78260 0.04520 0.62710 -0.34300
C 	C 	0.77270 0.07380 0.60230 0.41600
C 	C 	0.78460 0.09380 0.72500 0.10800
H 	H 	0.79634 0.07334 0.73270 0.00300
C 	C 	0.77850 0.11610 0.78100 -0.20100
H 	H 	0.78619 0.11063 0.82608 0.10000
C 	C 	0.76090 0.14670 0.76950 0.16500
C 	C 	0.74940 0.15500 0.70200 -0.23600
H 	H 	0.73757 0.17544 0.69435 0.11000
C 	C 	0.75540 0.13260 0.64610 0.30000
H 	H 	0.74772 0.13815 0.60097 -0.04700
C 	C 	0.77300 0.10200 0.65760 -0.24200
O 	O 	0.80480 0.11880 0.50740 -0.34600
C 	C 	0.78320 0.10900 0.55140 0.49200
C 	C 	0.78770 0.16040 0.62850 -0.01300
H 	H 	0.79936 0.17104 0.59154 0.00200
C 	C 	0.78140 0.17820 0.69080 -0.02400
H 	H 	0.78883 0.20083 0.69552 -0.01500
C 	C 	0.76410 0.16230 0.74590 -0.02800
C 	C 	0.75300 0.12850 0.73880 -0.06000
H 	H 	0.74137 0.11779 0.77574 0.05100
C 	C 	0.75930 0.11060 0.67650 0.04600
H 	H 	0.75190 0.08800 0.67176 0.06000
C 	C 	0.77670 0.12660 0.62130 -0.23700
H 	H 	0.75947 0.65375 0.91869 0.60300
H 	H 	0.76367 0.65375 0.83629 0.58500
H 	H 	0.72686 0.65375 0.87002 0.59300
Zr	Zr	0.26363 0.03534 0.46405 3.19500
Zr	Zr	0.18925 0.99013 0.41363 3.17600
Zr	Zr	0.23566 0.94455 0.28631 3.21400
C 	C 	0.34380 0.04730 0.44130 0.59300
C 	C 	0.37455 0.08710 0.52450 0.11200
H 	H 	0.35329 0.09352 0.54274 -0.00300
C 	C 	0.37640 0.06290 0.47070 -0.22100
C 	C 	0.40817 0.05330 0.44350 0.10800
H 	H 	0.40941 0.03707 0.40742 -0.01400
C 	C 	0.43809 0.06790 0.47020 -0.15700
H 	H 	0.45935 0.06143 0.45198 0.07900
C 	C 	0.43623 0.09210 0.52410 0.06900
C 	C 	0.40446 0.10170 0.55130 -0.15500
H 	H 	0.40322 0.11788 0.58731 0.08800
C 	C 	0.46810 0.10540 0.55670 0.09600
C 	C 	0.49440 0.13900 0.63720 0.09000
C 	C 	0.52580 0.11060 0.55540 0.09300
C 	C 	0.52418 0.16910 0.73540 -0.14300
H 	H 	0.54515 0.16433 0.71395 0.08400
C 	C 	0.52325 0.18780 0.79800 0.09600
H 	H 	0.54359 0.19544 0.81850 0.00100
C 	C 	0.49192 0.19500 0.83010 -0.18800
C 	C 	0.46152 0.18350 0.79950 0.09600
H 	H 	0.44055 0.18830 0.82100 0.01000
C 	C 	0.46245 0.16490 0.73690 -0.14200
H 	H 	0.44211 0.15719 0.71645 0.08500
C 	C 	0.49378 0.15770 0.70480 0.06800
C 	C 	0.49100 0.21190 0.90110 0.53600
C 	C 	0.55913 0.10040 0.52410 0.06200
C 	C 	0.55960 0.07780 0.46720 -0.15300
H 	H 	0.53906 0.06995 0.44799 0.07600
C 	C 	0.59078 0.06690 0.43920 0.09900
H 	H 	0.59110 0.05179 0.40115 -0.01100
C 	C 	0.62148 0.07870 0.46790 -0.20300
C 	C 	0.62101 0.10130 0.52480 0.09700
H 	H 	0.64155 0.10918 0.54404 0.01100
C 	C 	0.58983 0.11220 0.55280 -0.14500
H 	H 	0.58952 0.12734 0.59088 0.08400
C 	C 	0.65520 0.06540 0.44080 0.56800
N 	N 	0.46490 0.12570 0.61360 -0.13800
N 	N 	0.52590 0.13020 0.61120 -0.13900
N 	N 	0.49700 0.09630 0.52760 -0.14500
O 	O 	0.31691 0.05420 0.47080 -0.71300
O 	O 	0.34783 0.02610 0.39060 -0.73300
O 	O 	0.46210 0.21730 0.92780 -0.61900
O 	O 	0.52027 0.21970 0.92890 -0.70700
O 	O 	0.68184 0.07503 0.47110 -0.66200
O 	O 	0.65247 0.04450 0.38960 -0.74500
O 	O 	0.26200 0.09130 0.43020 -0.95500
O 	O 	0.23900 0.88900 0.31750 -0.57800
O 	O 	0.21990 0.03380 0.39560 -1.38100
O 	O 	0.23290 0.98870 0.48440 -1.33400
O 	O 	0.20590 0.98990 0.30410 -1.24500
O 	O 	0.27960 0.94460 0.35350 -1.27800
O 	O 	0.26440 0.58360 0.04180 -0.82500
C 	C 	0.24700 0.81750 0.31310 0.06100
H 	H 	0.24478 0.82947 0.27078 0.02200
N 	N 	0.25590 0.71040 0.31270 -0.13100
C 	C 	0.24720 0.78190 0.31110 -0.12900
H 	H 	0.24544 0.77030 0.26833 0.06400
C 	C 	0.25950 0.67470 0.31510 0.04100
O 	O 	0.28260 0.54520 0.12710 -0.34200
C 	C 	0.27270 0.57380 0.10230 0.41600
C 	C 	0.28460 0.59380 0.22500 0.10800
H 	H 	0.29634 0.57334 0.23270 0.00300
C 	C 	0.27850 0.61610 0.28100 -0.20100
H 	H 	0.28619 0.61063 0.32608 0.10000
C 	C 	0.26090 0.64670 0.26950 0.16500
C 	C 	0.24940 0.65500 0.20200 -0.23600
H 	H 	0.23757 0.67544 0.19435 0.11000
C 	C 	0.25540 0.63260 0.14610 0.30000
H 	H 	0.24772 0.63815 0.10097 -0.04700
C 	C 	0.27300 0.60200 0.15760 -0.24200
O 	O 	0.30480 0.61880 0.00740 -0.34500
C 	C 	0.28320 0.60900 0.05140 0.49200
C 	C 	0.28770 0.66040 0.12850 -0.01300
H 	H 	0.29936 0.67104 0.09154 0.00200
C 	C 	0.28140 0.67820 0.19080 -0.02400
H 	H 	0.28883 0.70083 0.19552 -0.01500
C 	C 	0.26410 0.66230 0.24590 -0.02800
C 	C 	0.25300 0.62850 0.23880 -0.06000
H 	H 	0.24137 0.61779 0.27574 0.05100
C 	C 	0.25930 0.61060 0.17650 0.04600
H 	H 	0.25190 0.58800 0.17176 0.06000
C 	C 	0.27670 0.62660 0.12130 -0.23700
H 	H 	0.25947 0.15375 0.41869 0.60300
H 	H 	0.26367 0.15375 0.33629 0.58500
H 	H 	0.22686 0.15375 0.37002 0.59300
Zr	Zr	0.03534 0.73637 0.53595 3.19500
Zr	Zr	0.99013 0.81075 0.58637 3.17600
Zr	Zr	0.94455 0.76434 0.71369 3.21400
C 	C 	0.04730 0.65620 0.55870 0.59300
C 	C 	0.08710 0.62545 0.47550 0.11200
H 	H 	0.09352 0.64671 0.45726 -0.00300
C 	C 	0.06290 0.62360 0.52930 -0.22100
C 	C 	0.05330 0.59183 0.55650 0.10800
H 	H 	0.03707 0.59059 0.59258 -0.01400
C 	C 	0.06790 0.56191 0.52980 -0.15700
H 	H 	0.06143 0.54065 0.54802 0.07900
C 	C 	0.09210 0.56377 0.47590 0.06900
C 	C 	0.10170 0.59554 0.44870 -0.15500
H 	H 	0.11788 0.59678 0.41269 0.08800
C 	C 	0.10540 0.53190 0.44330 0.09600
C 	C 	0.13900 0.50560 0.36280 0.09000
C 	C 	0.11060 0.47420 0.44460 0.09300
C 	C 	0.16910 0.47582 0.26460 -0.14300
H 	H 	0.16433 0.45485 0.28605 0.08400
C 	C 	0.18780 0.47675 0.20200 0.09600
H 	H 	0.19544 0.45641 0.18150 0.00100
C 	C 	0.19500 0.50808 0.16990 -0.18800
C 	C 	0.18350 0.53848 0.20050 0.09600
H 	H 	0.18830 0.55945 0.17900 0.01000
C 	C 	0.16490 0.53755 0.26310 -0.14200
H 	H 	0.15719 0.55789 0.28355 0.08500
C 	C 	0.15770 0.50622 0.29520 0.06800
C 	C 	0.21190 0.50900 0.09890 0.53600
C 	C 	0.10040 0.44087 0.47590 0.06200
C 	C 	0.07780 0.44040 0.53280 -0.15300
H 	H 	0.06995 0.46094 0.55201 0.07600
C 	C 	0.06690 0.40922 0.56080 0.09900
H 	H 	0.05179 0.40890 0.59885 -0.01100
C 	C 	0.07870 0.37852 0.53210 -0.20300
C 	C 	0.10130 0.37899 0.47520 0.09700
H 	H 	0.10918 0.35845 0.45596 0.01100
C 	C 	0.11220 0.41017 0.44720 -0.14500
H 	H 	0.12734 0.41048 0.40912 0.08400
C 	C 	0.06540 0.34480 0.55920 0.56800
N 	N 	0.12570 0.53510 0.38640 -0.13800
N 	N 	0.13020 0.47410 0.38880 -0.13900
N 	N 	0.09630 0.50300 0.47240 -0.14500
O 	O 	0.05420 0.68309 0.52920 -0.71300
O 	O 	0.02610 0.65217 0.60940 -0.73300
O 	O 	0.21730 0.53790 0.07220 -0.61900
O 	O 	0.21970 0.47973 0.07110 -0.70700
O 	O 	0.07503 0.31816 0.52890 -0.66200
O 	O 	0.04450 0.34753 0.61040 -0.74500
O 	O 	0.09130 0.73800 0.56980 -0.95500
O 	O 	0.88900 0.76100 0.68250 -0.57800
O 	O 	0.03380 0.78010 0.60440 -1.38100
O 	O 	0.98870 0.76710 0.51560 -1.33400
O 	O 	0.98990 0.79410 0.69590 -1.24500
O 	O 	0.94460 0.72040 0.64650 -1.27800
O 	O 	0.58360 0.73560 0.95820 -0.82500
C 	C 	0.81750 0.75300 0.68690 0.06100
H 	H 	0.82947 0.75522 0.72922 0.02200
N 	N 	0.71040 0.74410 0.68730 -0.13100
C 	C 	0.78190 0.75280 0.68890 -0.12900
H 	H 	0.77030 0.75456 0.73167 0.06400
C 	C 	0.67470 0.74050 0.68490 0.04100
O 	O 	0.54520 0.71740 0.87290 -0.34200
C 	C 	0.57380 0.72730 0.89770 0.41600
C 	C 	0.59380 0.71540 0.77500 0.10800
H 	H 	0.57334 0.70366 0.76730 0.00300
C 	C 	0.61610 0.72150 0.71900 -0.20100
H 	H 	0.61063 0.71381 0.67392 0.10000
C 	C 	0.64670 0.73910 0.73050 0.16500
C 	C 	0.65500 0.75060 0.79800 -0.23600
H 	H 	0.67544 0.76243 0.80565 0.11000
C 	C 	0.63260 0.74460 0.85390 0.30000
H 	H 	0.63815 0.75228 0.89903 -0.04700
C 	C 	0.60200 0.72700 0.84240 -0.24200
O 	O 	0.61880 0.69520 0.99260 -0.34500
C 	C 	0.60900 0.71680 0.94860 0.49200
C 	C 	0.66040 0.71230 0.87150 -0.01300
H 	H 	0.67104 0.70064 0.90846 0.00200
C 	C 	0.67820 0.71860 0.80920 -0.02400
H 	H 	0.70083 0.71117 0.80448 -0.01500
C 	C 	0.66230 0.73590 0.75410 -0.02800
C 	C 	0.62850 0.74700 0.76120 -0.06000
H 	H 	0.61779 0.75863 0.72426 0.05100
C 	C 	0.61060 0.74070 0.82350 0.04600
H 	H 	0.58800 0.74810 0.82824 0.06000
C 	C 	0.62660 0.72330 0.87870 -0.23700
H 	H 	0.15375 0.74053 0.58131 0.60300
H 	H 	0.15375 0.73633 0.66371 0.58500
H 	H 	0.15375 0.77314 0.62998 0.59300
Zr	Zr	0.53534 0.23637 0.03595 3.19500
Zr	Zr	0.49013 0.31075 0.08637 3.17600
Zr	Zr	0.44455 0.26434 0.21369 3.21400
C 	C 	0.54730 0.15620 0.05870 0.59400
C 	C 	0.58710 0.12545 0.97550 0.11400
H 	H 	0.59352 0.14671 0.95726 -0.00400
C 	C 	0.56290 0.12360 0.02930 -0.22300
C 	C 	0.55330 0.09183 0.05650 0.11000
H 	H 	0.53707 0.09059 0.09258 -0.01500
C 	C 	0.56790 0.06191 0.02980 -0.16000
H 	H 	0.56143 0.04065 0.04802 0.08000
C 	C 	0.59210 0.06377 0.97590 0.07100
C 	C 	0.60170 0.09554 0.94870 -0.15700
H 	H 	0.61788 0.09678 0.91269 0.08900
C 	C 	0.60540 0.03190 0.94330 0.09600
C 	C 	0.63900 0.00560 0.86280 0.09000
C 	C 	0.61060 0.97420 0.94460 0.09200
C 	C 	0.66910 0.97582 0.76460 -0.14300
H 	H 	0.66433 0.95485 0.78605 0.08400
C 	C 	0.68780 0.97675 0.70200 0.09600
H 	H 	0.69544 0.95641 0.68150 0.00000
C 	C 	0.69500 0.00808 0.66990 -0.18800
C 	C 	0.68350 0.03848 0.70050 0.09600
H 	H 	0.68830 0.05945 0.67900 0.01000
C 	C 	0.66490 0.03755 0.76310 -0.14200
H 	H 	0.65719 0.05789 0.78355 0.08500
C 	C 	0.65770 0.00622 0.79520 0.06800
C 	C 	0.71190 0.00900 0.59890 0.53600
C 	C 	0.60040 0.94087 0.97590 0.06400
C 	C 	0.57780 0.94040 0.03280 -0.15500
H 	H 	0.56995 0.96094 0.05201 0.07700
C 	C 	0.56690 0.90922 0.06080 0.10100
H 	H 	0.55179 0.90890 0.09885 -0.01200
C 	C 	0.57870 0.87852 0.03210 -0.20500
C 	C 	0.60130 0.87899 0.97520 0.09900
H 	H 	0.60918 0.85845 0.95596 0.01000
C 	C 	0.61220 0.91017 0.94720 -0.14700
H 	H 	0.62734 0.91048 0.90912 0.08400
C 	C 	0.56540 0.84480 0.05920 0.56800
N 	N 	0.62570 0.03510 0.88640 -0.13800
N 	N 	0.63020 0.97410 0.88880 -0.13900
N 	N 	0.59630 0.00300 0.97240 -0.14500
O 	O 	0.55420 0.18309 0.02920 -0.71300
O 	O 	0.52610 0.15217 0.10940 -0.73400
O 	O 	0.71730 0.03790 0.57220 -0.61900
O 	O 	0.71970 0.97973 0.57110 -0.70700
O 	O 	0.57503 0.81816 0.02890 -0.66300
O 	O 	0.54450 0.84753 0.11040 -0.74500
O 	O 	0.59130 0.23800 0.06980 -0.95500
O 	O 	0.38900 0.26100 0.18250 -0.57800
O 	O 	0.53380 0.28010 0.10440 -1.38100
O 	O 	0.48870 0.26710 0.01560 -1.33400
O 	O 	0.48990 0.29410 0.19590 -1.24500
O 	O 	0.44460 0.22040 0.14650 -1.27800
O 	O 	0.08360 0.23560 0.45820 -0.82500
C 	C 	0.31750 0.25300 0.18690 0.06100
H 	H 	0.32947 0.25522 0.22922 0.02200
N 	N 	0.21040 0.24410 0.18730 -0.13100
C 	C 	0.28190 0.25280 0.18890 -0.12900
H 	H 	0.27030 0.25456 0.23167 0.06400
C 	C 	0.17470 0.24050 0.18490 0.04100
O 	O 	0.04520 0.21740 0.37290 -0.34300
C 	C 	0.07380 0.22730 0.39770 0.41600
C 	C 	0.09380 0.21540 0.27500 0.10800
H 	H 	0.07334 0.20366 0.26730 0.00300
C 	C 	0.11610 0.22150 0.21900 -0.20100
H 	H 	0.11063 0.21381 0.17392 0.10000
C 	C 	0.14670 0.23910 0.23050 0.16500
C 	C 	0.15500 0.25060 0.29800 -0.23600
H 	H 	0.17544 0.26243 0.30565 0.11000
C 	C 	0.13260 0.24460 0.35390 0.30000
H 	H 	0.13815 0.25228 0.39903 -0.04700
C 	C 	0.10200 0.22700 0.34240 -0.24200
O 	O 	0.11880 0.19520 0.49260 -0.34600
C 	C 	0.10900 0.21680 0.44860 0.49200
C 	C 	0.16040 0.21230 0.37150 -0.01300
H 	H 	0.17104 0.20064 0.40846 0.00200
C 	C 	0.17820 0.21860 0.30920 -0.02400
H 	H 	0.20083 0.21117 0.30448 -0.01500
C 	C 	0.16230 0.23590 0.25410 -0.02800
C 	C 	0.12850 0.24700 0.26120 -0.06000
H 	H 	0.11779 0.25863 0.22426 0.05100
C 	C 	0.11060 0.24070 0.32350 0.04600
H 	H 	0.08800 0.24810 0.32824 0.06000
C 	C 	0.12660 0.22330 0.37870 -0.23700
H 	H 	0.65375 0.24053 0.08131 0.60300
H 	H 	0.65375 0.23633 0.16371 0.58500
H 	H 	0.65375 0.27314 0.12998 0.59300
Zr	Zr	0.96466 0.26363 0.53595 3.19500
Zr	Zr	0.00987 0.18925 0.58637 3.17600
Zr	Zr	0.05545 0.23566 0.71369 3.21400
C 	C 	0.95270 0.34380 0.55870 0.59300
C 	C 	0.91290 0.37455 0.47550 0.11200
H 	H 	0.90648 0.35329 0.45726 -0.00300
C 	C 	0.93710 0.37640 0.52930 -0.22100
C 	C 	0.94670 0.40817 0.55650 0.10800
H 	H 	0.96293 0.40941 0.59258 -0.01400
C 	C 	0.93210 0.43809 0.52980 -0.15700
H 	H 	0.93857 0.45935 0.54802 0.07900
C 	C 	0.90790 0.43623 0.47590 0.06900
C 	C 	0.89830 0.40446 0.44870 -0.15500
H 	H 	0.88212 0.40322 0.41269 0.08800
C 	C 	0.89460 0.46810 0.44330 0.09600
C 	C 	0.86100 0.49440 0.36280 0.09000
C 	C 	0.88940 0.52580 0.44460 0.09300
C 	C 	0.83090 0.52418 0.26460 -0.14300
H 	H 	0.83567 0.54515 0.28605 0.08400
C 	C 	0.81220 0.52325 0.20200 0.09600
H 	H 	0.80456 0.54359 0.18150 0.00100
C 	C 	0.80500 0.49192 0.16990 -0.18800
C 	C 	0.81650 0.46152 0.20050 0.09600
H 	H 	0.81170 0.44055 0.17900 0.01000
C 	C 	0.83510 0.46245 0.26310 -0.14200
H 	H 	0.84281 0.44211 0.28355 0.08500
C 	C 	0.84230 0.49378 0.29520 0.06800
C 	C 	0.78810 0.49100 0.09890 0.53600
C 	C 	0.89960 0.55913 0.47590 0.06200
C 	C 	0.92220 0.55960 0.53280 -0.15300
H 	H 	0.93005 0.53906 0.55201 0.07600
C 	C 	0.93310 0.59078 0.56080 0.09900
H 	H 	0.94821 0.59110 0.59885 -0.01100
C 	C 	0.92130 0.62148 0.53210 -0.20300
C 	C 	0.89870 0.62101 0.47520 0.09700
H 	H 	0.89082 0.64155 0.45596 0.01100
C 	C 	0.88780 0.58983 0.44720 -0.14500
H 	H 	0.87266 0.58952 0.40912 0.08400
C 	C 	0.93460 0.65520 0.55920 0.56800
N 	N 	0.87430 0.46490 0.38640 -0.13800
N 	N 	0.86980 0.52590 0.38880 -0.13900
N 	N 	0.90370 0.49700 0.47240 -0.14500
O 	O 	0.94580 0.31691 0.52920 -0.71300
O 	O 	0.97390 0.34783 0.60940 -0.73300
O 	O 	0.78270 0.46210 0.07220 -0.61900
O 	O 	0.78030 0.52027 0.07110 -0.70700
O 	O 	0.92497 0.68184 0.52890 -0.66200
O 	O 	0.95550 0.65247 0.61040 -0.74500
O 	O 	0.90870 0.26200 0.56980 -0.95500
O 	O 	0.11100 0.23900 0.68250 -0.57800
O 	O 	0.96620 0.21990 0.60440 -1.38100
O 	O 	0.01130 0.23290 0.51560 -1.33400
O 	O 	0.01010 0.20590 0.69590 -1.24500
O 	O 	0.05540 0.27960 0.64650 -1.27800
O 	O 	0.41640 0.26440 0.95820 -0.82500
C 	C 	0.18250 0.24700 0.68690 0.06100
H 	H 	0.17053 0.24478 0.72922 0.02200
N 	N 	0.28960 0.25590 0.68730 -0.13100
C 	C 	0.21810 0.24720 0.68890 -0.12900
H 	H 	0.22970 0.24544 0.73167 0.06400
C 	C 	0.32530 0.25950 0.68490 0.04100
O 	O 	0.45480 0.28260 0.87290 -0.34200
C 	C 	0.42620 0.27270 0.89770 0.41600
C 	C 	0.40620 0.28460 0.77500 0.10800
H 	H 	0.42666 0.29634 0.76730 0.00300
C 	C 	0.38390 0.27850 0.71900 -0.20100
H 	H 	0.38937 0.28619 0.67392 0.10000
C 	C 	0.35330 0.26090 0.73050 0.16500
C 	C 	0.34500 0.24940 0.79800 -0.23600
H 	H 	0.32456 0.23757 0.80565 0.11000
C 	C 	0.36740 0.25540 0.85390 0.30000
H 	H 	0.36185 0.24772 0.89903 -0.04700
C 	C 	0.39800 0.27300 0.84240 -0.24200
O 	O 	0.38120 0.30480 0.99260 -0.34500
C 	C 	0.39100 0.28320 0.94860 0.49200
C 	C 	0.33960 0.28770 0.87150 -0.01300
H 	H 	0.32896 0.29936 0.90846 0.00200
C 	C 	0.32180 0.28140 0.80920 -0.02400
H 	H 	0.29917 0.28883 0.80448 -0.01500
C 	C 	0.33770 0.26410 0.75410 -0.02800
C 	C 	0.37150 0.25300 0.76120 -0.06000
H 	H 	0.38221 0.24137 0.72426 0.05100
C 	C 	0.38940 0.25930 0.82350 0.04600
H 	H 	0.41200 0.25190 0.82824 0.06000
C 	C 	0.37340 0.27670 0.87870 -0.23700
H 	H 	0.84625 0.25947 0.58131 0.60300
H 	H 	0.84625 0.26367 0.66371 0.58500
H 	H 	0.84625 0.22686 0.62998 0.59300
Zr	Zr	0.46466 0.76363 0.03595 3.19500
Zr	Zr	0.50987 0.68925 0.08637 3.17600
Zr	Zr	0.55545 0.73566 0.21369 3.21400
C 	C 	0.45270 0.84380 0.05870 0.59400
C 	C 	0.41290 0.87455 0.97550 0.11400
H 	H 	0.40648 0.85329 0.95726 -0.00400
C 	C 	0.43710 0.87640 0.02930 -0.22300
C 	C 	0.44670 0.90817 0.05650 0.11000
H 	H 	0.46293 0.90941 0.09258 -0.01500
C 	C 	0.43210 0.93809 0.02980 -0.16000
H 	H 	0.43857 0.95935 0.04802 0.08000
C 	C 	0.40790 0.93623 0.97590 0.07100
C 	C 	0.39830 0.90446 0.94870 -0.15700
H 	H 	0.38212 0.90322 0.91269 0.08900
C 	C 	0.39460 0.96810 0.94330 0.09600
C 	C 	0.36100 0.99440 0.86280 0.09000
C 	C 	0.38940 0.02580 0.94460 0.09200
C 	C 	0.33090 0.02418 0.76460 -0.14300
H 	H 	0.33567 0.04515 0.78605 0.08400
C 	C 	0.31220 0.02325 0.70200 0.09600
H 	H 	0.30456 0.04359 0.68150 0.00000
C 	C 	0.30500 0.99192 0.66990 -0.18800
C 	C 	0.31650 0.96152 0.70050 0.09600
H 	H 	0.31170 0.94055 0.67900 0.01000
C 	C 	0.33510 0.96245 0.76310 -0.14200
H 	H 	0.34281 0.94211 0.78355 0.08500
C 	C 	0.34230 0.99378 0.79520 0.06800
C 	C 	0.28810 0.99100 0.59890 0.53600
C 	C 	0.39960 0.05913 0.97590 0.06400
C 	C 	0.42220 0.05960 0.03280 -0.15500
H 	H 	0.43005 0.03906 0.05201 0.07700
C 	C 	0.43310 0.09078 0.06080 0.10100
H 	H 	0.44821 0.09110 0.09885 -0.01200
C 	C 	0.42130 0.12148 0.03210 -0.20500
C 	C 	0.39870 0.12101 0.97520 0.09900
H 	H 	0.39082 0.14155 0.95596 0.01000
C 	C 	0.38780 0.08983 0.94720 -0.14700
H 	H 	0.37266 0.08952 0.90912 0.08400
C 	C 	0.43460 0.15520 0.05920 0.56800
N 	N 	0.37430 0.96490 0.88640 -0.13800
N 	N 	0.36980 0.02590 0.88880 -0.13900
N 	N 	0.40370 0.99700 0.97240 -0.14500
O 	O 	0.44580 0.81691 0.02920 -0.71300
O 	O 	0.47390 0.84783 0.10940 -0.73400
O 	O 	0.28270 0.96210 0.57220 -0.61900
O 	O 	0.28030 0.02027 0.57110 -0.70700
O 	O 	0.42497 0.18184 0.02890 -0.66300
O 	O 	0.45550 0.15247 0.11040 -0.74500
O 	O 	0.40870 0.76200 0.06980 -0.95500
O 	O 	0.61100 0.73900 0.18250 -0.57800
O 	O 	0.46620 0.71990 0.10440 -1.38100
O 	O 	0.51130 0.73290 0.01560 -1.33400
O 	O 	0.51010 0.70590 0.19590 -1.24500
O 	O 	0.55540 0.77960 0.14650 -1.27800
O 	O 	0.91640 0.76440 0.45820 -0.82500
C 	C 	0.68250 0.74700 0.18690 0.06100
H 	H 	0.67053 0.74478 0.22922 0.02200
N 	N 	0.78960 0.75590 0.18730 -0.13100
C 	C 	0.71810 0.74720 0.18890 -0.12900
H 	H 	0.72970 0.74544 0.23167 0.06400
C 	C 	0.82530 0.75950 0.18490 0.04100
O 	O 	0.95480 0.78260 0.37290 -0.34300
C 	C 	0.92620 0.77270 0.39770 0.41600
C 	C 	0.90620 0.78460 0.27500 0.10800
H 	H 	0.92666 0.79634 0.26730 0.00300
C 	C 	0.88390 0.77850 0.21900 -0.20100
H 	H 	0.88937 0.78619 0.17392 0.10000
C 	C 	0.85330 0.76090 0.23050 0.16500
C 	C 	0.84500 0.74940 0.29800 -0.23600
H 	H 	0.82456 0.73757 0.30565 0.11000
C 	C 	0.86740 0.75540 0.35390 0.30000
H 	H 	0.86185 0.74772 0.39903 -0.04700
C 	C 	0.89800 0.77300 0.34240 -0.24200
O 	O 	0.88120 0.80480 0.49260 -0.34600
C 	C 	0.89100 0.78320 0.44860 0.49200
C 	C 	0.83960 0.78770 0.37150 -0.01300
H 	H 	0.82896 0.79936 0.40846 0.00200
C 	C 	0.82180 0.78140 0.30920 -0.02400
H 	H 	0.79917 0.78883 0.30448 -0.01500
C 	C 	0.83770 0.76410 0.25410 -0.02800
C 	C 	0.87150 0.75300 0.26120 -0.06000
H 	H 	0.88221 0.74137 0.22426 0.05100
C 	C 	0.88940 0.75930 0.32350 0.04600
H 	H 	0.91200 0.75190 0.32824 0.06000
C 	C 	0.87340 0.77670 0.37870 -0.23700
H 	H 	0.34625 0.75947 0.08131 0.60300
H 	H 	0.34625 0.76367 0.16371 0.58500
H 	H 	0.34625 0.72686 0.12998 0.59300
C 	C 	0.25000 0.39400 0.87500 1.36800
C 	C 	0.25000 0.35450 0.87500 -3.49100
C 	C 	0.25000 0.62670 0.87500 0.44500
C 	C 	0.25000 0.66410 0.87500 -0.15100
C 	C 	0.25000 0.77190 0.87500 0.07300
C 	C 	0.25000 0.73620 0.87500 0.03800
N 	N 	0.25000 0.84330 0.87500 -0.13100
C 	C 	0.75000 0.89400 0.37500 1.36800
C 	C 	0.75000 0.85450 0.37500 -3.49100
C 	C 	0.75000 0.12670 0.37500 0.44500
C 	C 	0.75000 0.16410 0.37500 -0.15100
C 	C 	0.75000 0.27190 0.37500 0.07300
C 	C 	0.75000 0.23620 0.37500 0.03800
N 	N 	0.75000 0.34330 0.37500 -0.13100
C 	C 	0.75000 0.60600 0.87500 1.36800
C 	C 	0.75000 0.64550 0.87500 -3.49100
C 	C 	0.75000 0.37330 0.87500 0.44500
C 	C 	0.75000 0.33590 0.87500 -0.15100
C 	C 	0.75000 0.22810 0.87500 0.07300
C 	C 	0.75000 0.26380 0.87500 0.03800
N 	N 	0.75000 0.15670 0.87500 -0.13100
C 	C 	0.25000 0.10600 0.37500 1.36800
C 	C 	0.25000 0.14550 0.37500 -3.49100
C 	C 	0.25000 0.87330 0.37500 0.44500
C 	C 	0.25000 0.83590 0.37500 -0.15100
C 	C 	0.25000 0.72810 0.37500 0.07300
C 	C 	0.25000 0.76380 0.37500 0.03800
N 	N 	0.25000 0.65670 0.37500 -0.13100
C 	C 	0.39400 0.75000 0.12500 1.36800
C 	C 	0.35450 0.75000 0.12500 -3.49100
C 	C 	0.62670 0.75000 0.12500 0.44500
C 	C 	0.66410 0.75000 0.12500 -0.15100
C 	C 	0.77190 0.75000 0.12500 0.07300
C 	C 	0.73620 0.75000 0.12500 0.03800
N 	N 	0.84330 0.75000 0.12500 -0.13100
C 	C 	0.60600 0.25000 0.12500 1.36800
C 	C 	0.64550 0.25000 0.12500 -3.49100
C 	C 	0.37330 0.25000 0.12500 0.44500
C 	C 	0.33590 0.25000 0.12500 -0.15100
C 	C 	0.22810 0.25000 0.12500 0.07300
C 	C 	0.26380 0.25000 0.12500 0.03800
N 	N 	0.15670 0.25000 0.12500 -0.13100
C 	C 	0.10600 0.75000 0.62500 1.36800
C 	C 	0.14550 0.75000 0.62500 -3.49100
C 	C 	0.87330 0.75000 0.62500 0.44500
C 	C 	0.83590 0.75000 0.62500 -0.15100
C 	C 	0.72810 0.75000 0.62500 0.07300
C 	C 	0.76380 0.75000 0.62500 0.03800
N 	N 	0.65670 0.75000 0.62500 -0.13100
C 	C 	0.89400 0.25000 0.62500 1.36800
C 	C 	0.85450 0.25000 0.62500 -3.49100
C 	C 	0.12670 0.25000 0.62500 0.44500
C 	C 	0.16410 0.25000 0.62500 -0.15100
C 	C 	0.27190 0.25000 0.62500 0.07300
C 	C 	0.23620 0.25000 0.62500 0.03800
N 	N 	0.34330 0.25000 0.62500 -0.13100
