data_crystal

_cell_length_a 10.37000
_cell_length_b 10.02500
_cell_length_c 19.57500
_cell_angle_alpha 90.00000
_cell_angle_beta  92.13000
_cell_angle_gamma 90.00000

_symmetry_space_group_name_	'P 1'
_symmetry_space_group_name_H-M	'P 1'

loop_
_symmetry_equiv_pos_as_xyz
  x,y,z

loop_
_atom_site_label
_atom_site_type_symbol
_atom_site_fract_x
_atom_site_fract_y
_atom_site_fract_z
_atom_site_charge
Zn	Zn	0.99133 0.74199 0.34104 1.21000
O 	O 	0.93400 0.63580 0.44630 -0.33500
O 	O 	0.80340 0.68160 0.36020 -0.41800
O 	O 	0.04690 0.93700 0.43480 -0.28600
O 	O 	0.16490 0.79330 0.37910 -0.43300
N 	N 	0.16820 0.55170 0.27120 -0.05700
N 	N 	0.03970 0.58170 0.28270 -0.24900
N 	N 	0.84130 0.48140 0.25160 -0.34800
H 	H 	0.79824 0.54358 0.27059 0.16500
H 	H 	0.80147 0.41621 0.23151 0.15800
N 	N 	0.04840 0.39970 0.22170 -0.24900
N 	N 	0.17100 0.44510 0.23390 -0.05500
C 	C 	0.48440 0.53820 0.47110 0.03200
C 	C 	0.50580 0.96430 0.46840 0.03100
C 	C 	0.71440 0.57010 0.45630 -0.05200
C 	C 	0.58820 0.59080 0.43290 -0.05100
H 	H 	0.57104 0.63825 0.39273 0.06300
C 	C 	0.27480 0.93870 0.45950 -0.04400
C 	C 	0.63160 0.94440 0.44340 -0.07800
H 	H 	0.64126 0.90166 0.40177 0.06800
C 	C 	0.39260 0.91600 0.43480 -0.05400
H 	H 	0.39932 0.86743 0.39459 0.06200
C 	C 	0.97250 0.48600 0.25320 0.22400
C 	C 	0.26250 0.01280 0.52020 -0.00900
H 	H 	0.18082 0.03257 0.53538 0.06000
C 	C 	0.35570 0.55880 0.44870 -0.08200
H 	H 	0.33741 0.60840 0.40936 0.07500
C 	C 	0.82300 0.63370 0.41940 0.30000
C 	C 	0.15500 0.88860 0.42190 0.30000
C 	C 	0.74420 0.49470 0.51500 0.00100
H 	H 	0.82966 0.48083 0.52936 0.05700
Zn	Zn	0.00867 0.24199 0.15896 1.20800
O 	O 	0.06600 0.13580 0.05370 -0.33900
O 	O 	0.19660 0.18160 0.13980 -0.42000
O 	O 	0.95310 0.43700 0.06520 -0.28900
O 	O 	0.83510 0.29330 0.12090 -0.43400
N 	N 	0.83180 0.05170 0.22880 -0.05600
N 	N 	0.96030 0.08170 0.21730 -0.24800
N 	N 	0.15870 0.98140 0.24840 -0.34500
H 	H 	0.20176 0.04358 0.22941 0.16100
H 	H 	0.19853 0.91621 0.26849 0.15700
N 	N 	0.95160 0.89970 0.27830 -0.25100
N 	N 	0.82900 0.94510 0.26610 -0.05700
C 	C 	0.51560 0.03820 0.02890 0.03200
C 	C 	0.49420 0.46430 0.03160 0.03100
C 	C 	0.28560 0.07010 0.04370 -0.05800
C 	C 	0.41180 0.09080 0.06710 -0.04900
H 	H 	0.42896 0.13825 0.10727 0.06200
C 	C 	0.72520 0.43870 0.04050 -0.04700
C 	C 	0.36840 0.44440 0.05660 -0.08000
H 	H 	0.35874 0.40166 0.09823 0.06900
C 	C 	0.60740 0.41600 0.06520 -0.05200
H 	H 	0.60068 0.36743 0.10541 0.06100
C 	C 	0.02750 0.98600 0.24680 0.22700
C 	C 	0.73750 0.51280 0.97980 -0.00400
H 	H 	0.81918 0.53257 0.96462 0.06000
C 	C 	0.64430 0.05880 0.05130 -0.08400
H 	H 	0.66259 0.10840 0.09064 0.07600
C 	C 	0.17700 0.13370 0.08060 0.30200
C 	C 	0.84500 0.38860 0.07810 0.30100
C 	C 	0.25580 0.99470 0.98500 0.00700
H 	H 	0.17034 0.98083 0.97064 0.05700
Zn	Zn	0.00867 0.25801 0.65896 1.20900
O 	O 	0.06600 0.36420 0.55370 -0.33600
O 	O 	0.19660 0.31840 0.63980 -0.41900
O 	O 	0.95310 0.06300 0.56520 -0.28700
O 	O 	0.83510 0.20670 0.62090 -0.43400
N 	N 	0.83180 0.44830 0.72880 -0.05800
N 	N 	0.96030 0.41830 0.71730 -0.25000
N 	N 	0.15870 0.51860 0.74840 -0.34900
H 	H 	0.20176 0.45642 0.72941 0.16500
H 	H 	0.19853 0.58379 0.76849 0.15800
N 	N 	0.95160 0.60030 0.77830 -0.24900
N 	N 	0.82900 0.55490 0.76610 -0.05500
C 	C 	0.51560 0.46180 0.52890 0.03200
C 	C 	0.49420 0.03570 0.53160 0.03100
C 	C 	0.28560 0.42990 0.54370 -0.05200
C 	C 	0.41180 0.40920 0.56710 -0.05100
H 	H 	0.42896 0.36175 0.60727 0.06300
C 	C 	0.72520 0.06130 0.54050 -0.04400
C 	C 	0.36840 0.05560 0.55660 -0.07800
H 	H 	0.35874 0.09834 0.59823 0.06800
C 	C 	0.60740 0.08400 0.56520 -0.05400
H 	H 	0.60068 0.13257 0.60541 0.06200
C 	C 	0.02750 0.51400 0.74680 0.22400
C 	C 	0.73750 0.98720 0.47980 -0.00900
H 	H 	0.81918 0.96743 0.46462 0.06000
C 	C 	0.64430 0.44120 0.55130 -0.08200
H 	H 	0.66259 0.39160 0.59064 0.07500
C 	C 	0.17700 0.36630 0.58060 0.30000
C 	C 	0.84500 0.11140 0.57810 0.30000
C 	C 	0.25580 0.50530 0.48500 0.00100
H 	H 	0.17034 0.51917 0.47064 0.05700
Zn	Zn	0.99133 0.75801 0.84104 1.20800
O 	O 	0.93400 0.86420 0.94630 -0.33900
O 	O 	0.80340 0.81840 0.86020 -0.42000
O 	O 	0.04690 0.56300 0.93480 -0.28900
O 	O 	0.16490 0.70670 0.87910 -0.43400
N 	N 	0.16820 0.94830 0.77120 -0.05600
N 	N 	0.03970 0.91830 0.78270 -0.24800
N 	N 	0.84130 0.01860 0.75160 -0.34500
H 	H 	0.79824 0.95642 0.77059 0.16100
H 	H 	0.80147 0.08379 0.73151 0.15700
N 	N 	0.04840 0.10030 0.72170 -0.25100
N 	N 	0.17100 0.05490 0.73390 -0.05700
C 	C 	0.48440 0.96180 0.97110 0.03200
C 	C 	0.50580 0.53570 0.96840 0.03100
C 	C 	0.71440 0.92990 0.95630 -0.05800
C 	C 	0.58820 0.90920 0.93290 -0.04900
H 	H 	0.57104 0.86175 0.89273 0.06200
C 	C 	0.27480 0.56130 0.95950 -0.04700
C 	C 	0.63160 0.55560 0.94340 -0.08000
H 	H 	0.64126 0.59834 0.90177 0.06900
C 	C 	0.39260 0.58400 0.93480 -0.05200
H 	H 	0.39932 0.63257 0.89459 0.06100
C 	C 	0.97250 0.01400 0.75320 0.22700
C 	C 	0.26250 0.48720 0.02020 -0.00400
H 	H 	0.18082 0.46743 0.03538 0.06000
C 	C 	0.35570 0.94120 0.94870 -0.08400
H 	H 	0.33741 0.89160 0.90936 0.07600
C 	C 	0.82300 0.86630 0.91940 0.30200
C 	C 	0.15500 0.61140 0.92190 0.30100
C 	C 	0.74420 0.00530 0.01500 0.00700
H 	H 	0.82966 0.01917 0.02936 0.05700
