data_crystal

_cell_length_a 18.36380
_cell_length_b 10.91350
_cell_length_c 18.89420
_cell_angle_alpha 90.00000
_cell_angle_beta  108.37400
_cell_angle_gamma 90.00000

_symmetry_space_group_name_	'P 1'
_symmetry_space_group_name_H-M	'P 1'

loop_
_symmetry_equiv_pos_as_xyz
  x,y,z

loop_
_atom_site_label
_atom_site_type_symbol
_atom_site_fract_x
_atom_site_fract_y
_atom_site_fract_z
_atom_site_charge
Co	Co	0.18635 0.29472 0.47069 1.15500
Co	Co	0.28547 0.29775 0.37667 1.15400
O 	O 	0.11172 0.30150 0.36397 -0.45000
O 	O 	0.18544 0.30570 0.28995 -0.44500
O 	O 	0.25962 0.11770 0.38731 -0.47200
O 	O 	0.18782 0.11060 0.46227 -0.44600
O 	O 	0.28131 0.48150 0.39262 -0.44100
O 	O 	0.20443 0.47910 0.46415 -0.44700
O 	O 	0.78904 0.21490 0.05285 -0.45500
O 	O 	0.86467 0.21790 0.98065 -0.44500
N 	N 	0.10528 0.32570 0.52198 -0.26900
N 	N 	0.04164 0.40470 0.59159 -0.16000
N 	N 	0.92651 0.22620 0.73942 -0.16000
N 	N 	0.86057 0.18730 0.81585 -0.26800
C 	C 	0.12169 0.29680 0.30130 0.35400
C 	C 	0.22508 0.06140 0.42456 0.38300
C 	C 	0.23038 0.92500 0.42573 -0.09200
C 	C 	0.20920 0.85850 0.47964 -0.01200
H 	H 	0.19050 0.89960 0.51410 0.04300
C 	C 	0.25712 0.86310 0.37473 -0.00300
H 	H 	0.27140 0.90750 0.33860 0.03700
C 	C 	0.24353 0.53280 0.42987 0.35300
C 	C 	0.24215 0.66990 0.43074 -0.07500
C 	C 	0.21584 0.73210 0.48200 -0.02400
H 	H 	0.20240 0.68790 0.51870 0.04100
C 	C 	0.26292 0.73610 0.37662 -0.03200
H 	H 	0.28070 0.69480 0.34160 0.05200
C 	C 	0.05139 0.27930 0.23478 -0.08000
C 	C 	0.05623 0.29140 0.16288 -0.03100
H 	H 	0.10360 0.31070 0.15630 0.04700
C 	C 	0.99172 0.27530 0.10106 -0.01300
H 	H 	0.99560 0.28390 0.05290 0.04700
C 	C 	0.92127 0.24640 0.11001 -0.08600
C 	C 	0.85334 0.22500 0.04217 0.37200
C 	C 	0.91633 0.23560 0.18126 -0.01300
H 	H 	0.86890 0.21660 0.18780 0.03600
C 	C 	0.98067 0.25250 0.24322 -0.02600
H 	H 	0.97630 0.24580 0.29130 0.04300
C 	C 	0.11166 0.38780 0.58426 0.29300
C 	C 	0.98850 0.35210 0.53113 -0.00200
H 	H 	0.93510 0.35040 0.52110 0.03400
C 	C 	0.02817 0.30380 0.48918 0.00400
H 	H 	0.00650 0.26140 0.44410 0.02300
C 	C 	0.02440 0.46780 0.65302 -0.01600
H 	H 	0.97620 0.51300 0.63310 0.04600
H 	H 	0.06510 0.52750 0.67530 0.02700
C 	C 	0.01770 0.38000 0.71364 -0.14400
H 	H 	0.06580 0.33430 0.73360 0.06900
H 	H 	0.00930 0.42700 0.75450 0.06900
C 	C 	0.95190 0.29060 0.68308 -0.01400
H 	H 	0.90810 0.33550 0.65000 0.04100
H 	H 	0.96750 0.22940 0.65270 0.04500
C 	C 	0.88330 0.27410 0.77845 0.29700
C 	C 	0.89060 0.07830 0.79902 0.00300
H 	H 	0.88360 0.00070 0.81750 0.03600
C 	C 	0.93120 0.10060 0.75230 -0.00000
H 	H 	0.95750 0.04290 0.73250 0.03700
C 	C 	0.86380 0.40640 0.77830 -0.77600
H 	H 	0.85600 0.44020 0.72890 0.26300
H 	H 	0.90550 0.44960 0.81420 0.25600
H 	H 	0.81730 0.41580 0.79160 0.25600
C 	C 	0.18380 0.43430 0.63750 -0.75400
H 	H 	0.19480 0.39010 0.68420 0.24200
H 	H 	0.17850 0.52100 0.64620 0.24400
H 	H 	0.22550 0.42240 0.61700 0.24600
Co	Co	0.68635 0.20528 0.97069 1.15600
Co	Co	0.78547 0.20225 0.87667 1.15500
O 	O 	0.61172 0.19850 0.86397 -0.44900
O 	O 	0.68544 0.19430 0.78995 -0.44400
O 	O 	0.75962 0.38230 0.88731 -0.47200
O 	O 	0.68782 0.38940 0.96227 -0.44600
O 	O 	0.78131 0.01850 0.89262 -0.44000
O 	O 	0.70443 0.02090 0.96415 -0.44700
O 	O 	0.28904 0.28510 0.55285 -0.45600
O 	O 	0.36467 0.28210 0.48065 -0.44500
N 	N 	0.60528 0.17430 0.02198 -0.26800
N 	N 	0.54164 0.09530 0.09159 -0.15900
N 	N 	0.42651 0.27380 0.23942 -0.16000
N 	N 	0.36057 0.31270 0.31585 -0.26800
C 	C 	0.62169 0.20320 0.80130 0.35400
C 	C 	0.72508 0.43860 0.92456 0.38400
C 	C 	0.73038 0.57500 0.92573 -0.09300
C 	C 	0.70920 0.64150 0.97964 -0.01100
H 	H 	0.69050 0.60040 0.01410 0.04200
C 	C 	0.75712 0.63690 0.87473 -0.00200
H 	H 	0.77140 0.59250 0.83860 0.03600
C 	C 	0.74353 0.96720 0.92987 0.35200
C 	C 	0.74215 0.83010 0.93074 -0.07500
C 	C 	0.71584 0.76790 0.98200 -0.02400
H 	H 	0.70240 0.81210 0.01870 0.04100
C 	C 	0.76292 0.76390 0.87662 -0.03300
H 	H 	0.78070 0.80520 0.84160 0.05200
C 	C 	0.55139 0.22070 0.73478 -0.07900
C 	C 	0.55623 0.20860 0.66288 -0.03100
H 	H 	0.60360 0.18930 0.65630 0.04700
C 	C 	0.49172 0.22470 0.60106 -0.01400
H 	H 	0.49560 0.21610 0.55290 0.04800
C 	C 	0.42127 0.25360 0.61001 -0.08600
C 	C 	0.35334 0.27500 0.54217 0.37200
C 	C 	0.41633 0.26440 0.68126 -0.01300
H 	H 	0.36890 0.28340 0.68780 0.03500
C 	C 	0.48067 0.24750 0.74322 -0.02700
H 	H 	0.47630 0.25420 0.79130 0.04400
C 	C 	0.61166 0.11220 0.08426 0.29300
C 	C 	0.48850 0.14790 0.03113 -0.00300
H 	H 	0.43510 0.14960 0.02110 0.03400
C 	C 	0.52817 0.19620 0.98918 0.00500
H 	H 	0.50650 0.23860 0.94410 0.02300
C 	C 	0.52440 0.03220 0.15302 -0.01500
H 	H 	0.47620 0.98700 0.13310 0.04500
H 	H 	0.56510 0.97250 0.17530 0.02700
C 	C 	0.51770 0.12000 0.21364 -0.14400
H 	H 	0.56580 0.16570 0.23360 0.07000
H 	H 	0.50930 0.07300 0.25450 0.06900
C 	C 	0.45190 0.20940 0.18308 -0.01500
H 	H 	0.40810 0.16450 0.15000 0.04100
H 	H 	0.46750 0.27060 0.15270 0.04500
C 	C 	0.38330 0.22590 0.27845 0.29700
C 	C 	0.39060 0.42170 0.29902 0.00300
H 	H 	0.38360 0.49930 0.31750 0.03600
C 	C 	0.43120 0.39940 0.25230 -0.00100
H 	H 	0.45750 0.45710 0.23250 0.03700
C 	C 	0.36380 0.09360 0.27830 -0.77500
H 	H 	0.35600 0.05980 0.22890 0.26300
H 	H 	0.40550 0.05040 0.31420 0.25600
H 	H 	0.31730 0.08420 0.29160 0.25500
C 	C 	0.68380 0.06570 0.13750 -0.75000
H 	H 	0.69480 0.10990 0.18420 0.24100
H 	H 	0.67850 0.97900 0.14620 0.24200
H 	H 	0.72550 0.07760 0.11700 0.24600
Co	Co	0.31365 0.79472 0.02931 1.15600
Co	Co	0.21453 0.79775 0.12333 1.15500
O 	O 	0.38828 0.80150 0.13603 -0.44900
O 	O 	0.31456 0.80570 0.21005 -0.44400
O 	O 	0.24038 0.61770 0.11269 -0.47200
O 	O 	0.31218 0.61060 0.03773 -0.44600
O 	O 	0.21869 0.98150 0.10738 -0.44000
O 	O 	0.29557 0.97910 0.03585 -0.44700
O 	O 	0.71096 0.71490 0.44715 -0.45600
O 	O 	0.63533 0.71790 0.51935 -0.44500
N 	N 	0.39472 0.82570 0.97802 -0.26800
N 	N 	0.45836 0.90470 0.90841 -0.15900
N 	N 	0.57349 0.72620 0.76058 -0.16000
N 	N 	0.63943 0.68730 0.68415 -0.26800
C 	C 	0.37831 0.79680 0.19870 0.35400
C 	C 	0.27492 0.56140 0.07544 0.38400
C 	C 	0.26962 0.42500 0.07427 -0.09300
C 	C 	0.29080 0.35850 0.02036 -0.01100
H 	H 	0.30950 0.39960 0.98590 0.04200
C 	C 	0.24288 0.36310 0.12527 -0.00200
H 	H 	0.22860 0.40750 0.16140 0.03600
C 	C 	0.25647 0.03280 0.07013 0.35200
C 	C 	0.25785 0.16990 0.06926 -0.07500
C 	C 	0.28416 0.23210 0.01800 -0.02400
H 	H 	0.29760 0.18790 0.98130 0.04100
C 	C 	0.23708 0.23610 0.12338 -0.03300
H 	H 	0.21930 0.19480 0.15840 0.05200
C 	C 	0.44861 0.77930 0.26522 -0.07900
C 	C 	0.44377 0.79140 0.33712 -0.03100
H 	H 	0.39640 0.81070 0.34370 0.04700
C 	C 	0.50828 0.77530 0.39894 -0.01400
H 	H 	0.50440 0.78390 0.44710 0.04800
C 	C 	0.57873 0.74640 0.38999 -0.08600
C 	C 	0.64666 0.72500 0.45783 0.37200
C 	C 	0.58367 0.73560 0.31874 -0.01300
H 	H 	0.63110 0.71660 0.31220 0.03500
C 	C 	0.51933 0.75250 0.25678 -0.02700
H 	H 	0.52370 0.74580 0.20870 0.04400
C 	C 	0.38834 0.88780 0.91574 0.29300
C 	C 	0.51150 0.85210 0.96887 -0.00300
H 	H 	0.56490 0.85040 0.97890 0.03400
C 	C 	0.47183 0.80380 0.01082 0.00500
H 	H 	0.49350 0.76140 0.05590 0.02300
C 	C 	0.47560 0.96780 0.84698 -0.01500
H 	H 	0.52380 0.01300 0.86690 0.04500
H 	H 	0.43490 0.02750 0.82470 0.02700
C 	C 	0.48230 0.88000 0.78636 -0.14400
H 	H 	0.43420 0.83430 0.76640 0.07000
H 	H 	0.49070 0.92700 0.74550 0.06900
C 	C 	0.54810 0.79060 0.81692 -0.01500
H 	H 	0.59190 0.83550 0.85000 0.04100
H 	H 	0.53250 0.72940 0.84730 0.04500
C 	C 	0.61670 0.77410 0.72155 0.29700
C 	C 	0.60940 0.57830 0.70098 0.00300
H 	H 	0.61640 0.50070 0.68250 0.03600
C 	C 	0.56880 0.60060 0.74770 -0.00100
H 	H 	0.54250 0.54290 0.76750 0.03700
C 	C 	0.63620 0.90640 0.72170 -0.77500
H 	H 	0.64400 0.94020 0.77110 0.26300
H 	H 	0.59450 0.94960 0.68580 0.25600
H 	H 	0.68270 0.91580 0.70840 0.25500
C 	C 	0.31620 0.93430 0.86250 -0.75000
H 	H 	0.30520 0.89010 0.81580 0.24100
H 	H 	0.32150 0.02100 0.85380 0.24200
H 	H 	0.27450 0.92240 0.88300 0.24600
Co	Co	0.81365 0.70528 0.52931 1.15600
Co	Co	0.71453 0.70225 0.62333 1.15500
O 	O 	0.88828 0.69850 0.63603 -0.44900
O 	O 	0.81456 0.69430 0.71005 -0.44400
O 	O 	0.74038 0.88230 0.61269 -0.47200
O 	O 	0.81218 0.88940 0.53773 -0.44600
O 	O 	0.71869 0.51850 0.60738 -0.44100
O 	O 	0.79557 0.52090 0.53585 -0.44700
O 	O 	0.21096 0.78510 0.94715 -0.45500
O 	O 	0.13533 0.78210 0.01935 -0.44500
N 	N 	0.89472 0.67430 0.47802 -0.26900
N 	N 	0.95836 0.59530 0.40841 -0.16000
N 	N 	0.07349 0.77380 0.26058 -0.16000
N 	N 	0.13943 0.81270 0.18415 -0.26800
C 	C 	0.87831 0.70320 0.69870 0.35400
C 	C 	0.77492 0.93860 0.57544 0.38300
C 	C 	0.76962 0.07500 0.57427 -0.09200
C 	C 	0.79080 0.14150 0.52036 -0.01200
H 	H 	0.80950 0.10040 0.48590 0.04300
C 	C 	0.74288 0.13690 0.62527 -0.00300
H 	H 	0.72860 0.09250 0.66140 0.03700
C 	C 	0.75647 0.46720 0.57013 0.35300
C 	C 	0.75785 0.33010 0.56926 -0.07500
C 	C 	0.78416 0.26790 0.51800 -0.02400
H 	H 	0.79760 0.31210 0.48130 0.04100
C 	C 	0.73708 0.26390 0.62338 -0.03200
H 	H 	0.71930 0.30520 0.65840 0.05200
C 	C 	0.94861 0.72070 0.76522 -0.08000
C 	C 	0.94377 0.70860 0.83712 -0.03100
H 	H 	0.89640 0.68930 0.84370 0.04700
C 	C 	0.00828 0.72470 0.89894 -0.01300
H 	H 	0.00440 0.71610 0.94710 0.04700
C 	C 	0.07873 0.75360 0.88999 -0.08600
C 	C 	0.14666 0.77500 0.95783 0.37200
C 	C 	0.08367 0.76440 0.81874 -0.01300
H 	H 	0.13110 0.78340 0.81220 0.03600
C 	C 	0.01933 0.74750 0.75678 -0.02600
H 	H 	0.02370 0.75420 0.70870 0.04300
C 	C 	0.88834 0.61220 0.41574 0.29300
C 	C 	0.01150 0.64790 0.46887 -0.00200
H 	H 	0.06490 0.64960 0.47890 0.03400
C 	C 	0.97183 0.69620 0.51082 0.00400
H 	H 	0.99350 0.73860 0.55590 0.02300
C 	C 	0.97560 0.53220 0.34698 -0.01600
H 	H 	0.02380 0.48700 0.36690 0.04600
H 	H 	0.93490 0.47250 0.32470 0.02700
C 	C 	0.98230 0.62000 0.28636 -0.14400
H 	H 	0.93420 0.66570 0.26640 0.06900
H 	H 	0.99070 0.57300 0.24550 0.06900
C 	C 	0.04810 0.70940 0.31692 -0.01400
H 	H 	0.09190 0.66450 0.35000 0.04100
H 	H 	0.03250 0.77060 0.34730 0.04500
C 	C 	0.11670 0.72590 0.22155 0.29700
C 	C 	0.10940 0.92170 0.20098 0.00300
H 	H 	0.11640 0.99930 0.18250 0.03600
C 	C 	0.06880 0.89940 0.24770 -0.00000
H 	H 	0.04250 0.95710 0.26750 0.03700
C 	C 	0.13620 0.59360 0.22170 -0.77600
H 	H 	0.14400 0.55980 0.27110 0.26300
H 	H 	0.09450 0.55040 0.18580 0.25600
H 	H 	0.18270 0.58420 0.20840 0.25600
C 	C 	0.81620 0.56570 0.36250 -0.75400
H 	H 	0.80520 0.60990 0.31580 0.24200
H 	H 	0.82150 0.47900 0.35380 0.24400
H 	H 	0.77450 0.57760 0.38300 0.24600
