data_crystal

_cell_length_a 18.00700
_cell_length_b 18.00700
_cell_length_c 19.28800
_cell_angle_alpha 90.00000
_cell_angle_beta  90.00000
_cell_angle_gamma 120.00000

_symmetry_space_group_name_	'P 1'
_symmetry_space_group_name_H-M	'P 1'

loop_
_symmetry_equiv_pos_as_xyz
  x,y,z

loop_
_atom_site_label
_atom_site_type_symbol
_atom_site_fract_x
_atom_site_fract_y
_atom_site_fract_z
_atom_site_charge
K 	K 	0.66667 0.33334 0.25000 0.68600
K 	K 	0.33333 0.66666 0.75000 0.68600
Cd	Cd	0.79277 0.58554 0.25000 1.20200
Cd	Cd	0.79277 0.20724 0.25000 1.20200
Cd	Cd	0.41447 0.20724 0.25000 1.20100
Cd	Cd	0.20723 0.41446 0.75000 1.20100
Cd	Cd	0.20723 0.79276 0.75000 1.20100
Cd	Cd	0.58553 0.79276 0.75000 1.20100
H 	H 	0.92890 0.59160 0.46230 0.03500
H 	H 	0.87390 0.40440 0.59880 0.02800
H 	H 	0.77740 0.30620 0.52160 0.05900
H 	H 	0.75970 0.34940 0.41350 0.03200
H 	H 	0.05980 0.59630 0.73780 -0.02500
H 	H 	0.96070 0.49520 0.66740 0.09500
H 	H 	0.02410 0.67490 0.52630 0.09300
H 	H 	0.12410 0.77030 0.60010 -0.02900
H 	H 	0.66270 0.07110 0.46230 0.03500
H 	H 	0.53050 0.12610 0.59880 0.02800
H 	H 	0.52880 0.22260 0.52160 0.05900
H 	H 	0.58970 0.24030 0.41350 0.03200
H 	H 	0.53650 0.94020 0.73780 -0.02500
H 	H 	0.53450 0.03930 0.66740 0.09500
H 	H 	0.65080 0.97590 0.52630 0.09300
H 	H 	0.64620 0.87590 0.60010 -0.02900
H 	H 	0.40840 0.33730 0.46230 0.03500
H 	H 	0.59560 0.46950 0.59880 0.02800
H 	H 	0.69380 0.47120 0.52160 0.05900
H 	H 	0.65060 0.41030 0.41350 0.03200
H 	H 	0.40370 0.46350 0.73780 -0.02500
H 	H 	0.50480 0.46550 0.66740 0.09500
H 	H 	0.32510 0.34920 0.52630 0.09300
H 	H 	0.22970 0.35380 0.60010 -0.02900
H 	H 	0.66270 0.59160 0.03770 0.03500
H 	H 	0.53050 0.40440 0.90120 0.02800
H 	H 	0.52880 0.30620 0.97840 0.05900
H 	H 	0.58970 0.34940 0.08650 0.03200
H 	H 	0.53650 0.59630 0.76220 -0.02500
H 	H 	0.53450 0.49520 0.83260 0.09500
H 	H 	0.65080 0.67490 0.97370 0.09200
H 	H 	0.64620 0.77030 0.89990 -0.02900
H 	H 	0.40840 0.07110 0.03770 0.03500
H 	H 	0.59560 0.12610 0.90120 0.02800
H 	H 	0.69380 0.22260 0.97840 0.05900
H 	H 	0.65060 0.24030 0.08650 0.03300
H 	H 	0.40370 0.94020 0.76220 -0.02500
H 	H 	0.50480 0.03930 0.83260 0.09500
H 	H 	0.32510 0.97590 0.97370 0.09200
H 	H 	0.22970 0.87590 0.89990 -0.02900
H 	H 	0.92890 0.33730 0.03770 0.03500
H 	H 	0.87390 0.46950 0.90120 0.02800
H 	H 	0.77740 0.47120 0.97840 0.05900
H 	H 	0.75970 0.41030 0.08650 0.03300
H 	H 	0.05980 0.46350 0.76220 -0.02500
H 	H 	0.96070 0.46550 0.83260 0.09500
H 	H 	0.02410 0.34920 0.97370 0.09200
H 	H 	0.12410 0.35380 0.89990 -0.02900
H 	H 	0.07110 0.40840 0.53770 0.03500
H 	H 	0.12610 0.59560 0.40120 0.02800
H 	H 	0.22260 0.69380 0.47840 0.05900
H 	H 	0.24030 0.65060 0.58650 0.03200
H 	H 	0.94020 0.40370 0.26220 -0.02500
H 	H 	0.03930 0.50480 0.33260 0.09500
H 	H 	0.97590 0.32510 0.47370 0.09300
H 	H 	0.87590 0.22970 0.39990 -0.02900
H 	H 	0.33730 0.92890 0.53770 0.03500
H 	H 	0.46950 0.87390 0.40120 0.02800
H 	H 	0.47120 0.77740 0.47840 0.05900
H 	H 	0.41030 0.75970 0.58650 0.03200
H 	H 	0.46350 0.05980 0.26220 -0.02500
H 	H 	0.46550 0.96070 0.33260 0.09500
H 	H 	0.34920 0.02410 0.47370 0.09300
H 	H 	0.35380 0.12410 0.39990 -0.02900
H 	H 	0.59160 0.66270 0.53770 0.03500
H 	H 	0.40440 0.53050 0.40120 0.02800
H 	H 	0.30620 0.52880 0.47840 0.05900
H 	H 	0.34940 0.58970 0.58650 0.03200
H 	H 	0.59630 0.53650 0.26220 -0.02500
H 	H 	0.49520 0.53450 0.33260 0.09500
H 	H 	0.67490 0.65080 0.47370 0.09300
H 	H 	0.77030 0.64620 0.39990 -0.02900
H 	H 	0.33730 0.40840 0.96230 0.03500
H 	H 	0.46950 0.59560 0.09880 0.02800
H 	H 	0.47120 0.69380 0.02160 0.05900
H 	H 	0.41030 0.65060 0.91350 0.03200
H 	H 	0.46350 0.40370 0.23780 -0.02500
H 	H 	0.46550 0.50480 0.16740 0.09500
H 	H 	0.34920 0.32510 0.02630 0.09200
H 	H 	0.35380 0.22970 0.10010 -0.02900
H 	H 	0.59160 0.92890 0.96230 0.03500
H 	H 	0.40440 0.87390 0.09880 0.02800
H 	H 	0.30620 0.77740 0.02160 0.05900
H 	H 	0.34940 0.75970 0.91350 0.03300
H 	H 	0.59630 0.05980 0.23780 -0.02500
H 	H 	0.49520 0.96070 0.16740 0.09500
H 	H 	0.67490 0.02410 0.02630 0.09200
H 	H 	0.77030 0.12410 0.10010 -0.02900
H 	H 	0.07110 0.66270 0.96230 0.03500
H 	H 	0.12610 0.53050 0.09880 0.02800
H 	H 	0.22260 0.52880 0.02160 0.05900
H 	H 	0.24030 0.58970 0.91350 0.03300
H 	H 	0.94020 0.53650 0.23780 -0.02500
H 	H 	0.03930 0.53450 0.16740 0.09500
H 	H 	0.97590 0.65080 0.02630 0.09200
H 	H 	0.87590 0.64620 0.10010 -0.02900
C 	C 	0.84060 0.47480 0.42800 -0.10000
C 	C 	0.89860 0.53390 0.47460 0.00700
C 	C 	0.91240 0.50890 0.53920 -0.05400
C 	C 	0.86610 0.42280 0.55580 -0.00800
C 	C 	0.80860 0.36390 0.50940 -0.08000
C 	C 	0.79710 0.38970 0.44520 0.01800
C 	C 	0.82560 0.50540 0.35920 0.34700
C 	C 	0.05270 0.61330 0.69390 0.12100
C 	C 	0.99190 0.55170 0.65200 -0.19500
C 	C 	0.97680 0.57290 0.58750 0.13000
C 	C 	0.02930 0.65630 0.57010 -0.19100
C 	C 	0.08980 0.71410 0.61490 0.10700
C 	C 	0.63420 0.15940 0.42800 -0.10000
C 	C 	0.63530 0.10140 0.47460 0.00700
C 	C 	0.59650 0.08760 0.53920 -0.05400
C 	C 	0.55670 0.13390 0.55580 -0.00800
C 	C 	0.55530 0.19140 0.50940 -0.08000
C 	C 	0.59260 0.20290 0.44520 0.01800
C 	C 	0.67980 0.17440 0.35920 0.34700
C 	C 	0.56060 0.94730 0.69390 0.12100
C 	C 	0.55980 0.00810 0.65200 -0.19500
C 	C 	0.59610 0.02320 0.58750 0.13000
C 	C 	0.62700 0.97070 0.57010 -0.19100
C 	C 	0.62430 0.91020 0.61490 0.10700
C 	C 	0.52520 0.36580 0.42800 -0.10000
C 	C 	0.46610 0.36470 0.47460 0.00700
C 	C 	0.49110 0.40350 0.53920 -0.05400
C 	C 	0.57720 0.44330 0.55580 -0.00800
C 	C 	0.63610 0.44470 0.50940 -0.08000
C 	C 	0.61030 0.40740 0.44520 0.01800
C 	C 	0.49460 0.32020 0.35920 0.34700
C 	C 	0.38670 0.43940 0.69390 0.12100
C 	C 	0.44830 0.44020 0.65200 -0.19500
C 	C 	0.42710 0.40390 0.58750 0.13000
C 	C 	0.34370 0.37300 0.57010 -0.19100
C 	C 	0.28590 0.37570 0.61490 0.10700
C 	C 	0.63420 0.47480 0.07200 -0.09900
C 	C 	0.63530 0.53390 0.02540 0.00700
C 	C 	0.59650 0.50890 0.96080 -0.05400
C 	C 	0.55670 0.42280 0.94420 -0.00800
C 	C 	0.55530 0.36390 0.99060 -0.08000
C 	C 	0.59260 0.38970 0.05480 0.01800
C 	C 	0.67980 0.50540 0.14080 0.34600
C 	C 	0.56060 0.61330 0.80610 0.12100
C 	C 	0.55980 0.55170 0.84800 -0.19500
C 	C 	0.59610 0.57290 0.91250 0.12900
C 	C 	0.62700 0.65630 0.92990 -0.19100
C 	C 	0.62430 0.71410 0.88510 0.10700
C 	C 	0.52520 0.15940 0.07200 -0.09900
C 	C 	0.46610 0.10140 0.02540 0.00600
C 	C 	0.49110 0.08760 0.96080 -0.05400
C 	C 	0.57720 0.13390 0.94420 -0.00800
C 	C 	0.63610 0.19140 0.99060 -0.08000
C 	C 	0.61030 0.20290 0.05480 0.01800
C 	C 	0.49460 0.17440 0.14080 0.34600
C 	C 	0.38670 0.94730 0.80610 0.12100
C 	C 	0.44830 0.00810 0.84800 -0.19500
C 	C 	0.42710 0.02320 0.91250 0.12900
C 	C 	0.34370 0.97070 0.92990 -0.19100
C 	C 	0.28590 0.91020 0.88510 0.10700
C 	C 	0.84060 0.36580 0.07200 -0.09900
C 	C 	0.89860 0.36470 0.02540 0.00600
C 	C 	0.91240 0.40350 0.96080 -0.05400
C 	C 	0.86610 0.44330 0.94420 -0.00800
C 	C 	0.80860 0.44470 0.99060 -0.08000
C 	C 	0.79710 0.40740 0.05480 0.01800
C 	C 	0.82560 0.32020 0.14080 0.34600
C 	C 	0.05270 0.43940 0.80610 0.12100
C 	C 	0.99190 0.44020 0.84800 -0.19500
C 	C 	0.97680 0.40390 0.91250 0.12900
C 	C 	0.02930 0.37300 0.92990 -0.19100
C 	C 	0.08980 0.37570 0.88510 0.10700
C 	C 	0.15940 0.52520 0.57200 -0.10000
C 	C 	0.10140 0.46610 0.52540 0.00700
C 	C 	0.08760 0.49110 0.46080 -0.05400
C 	C 	0.13390 0.57720 0.44420 -0.00800
C 	C 	0.19140 0.63610 0.49060 -0.08000
C 	C 	0.20290 0.61030 0.55480 0.01800
C 	C 	0.17440 0.49460 0.64080 0.34700
C 	C 	0.94730 0.38670 0.30610 0.12100
C 	C 	0.00810 0.44830 0.34800 -0.19500
C 	C 	0.02320 0.42710 0.41250 0.13000
C 	C 	0.97070 0.34370 0.42990 -0.19100
C 	C 	0.91020 0.28590 0.38510 0.10700
C 	C 	0.36580 0.84060 0.57200 -0.10000
C 	C 	0.36470 0.89860 0.52540 0.00700
C 	C 	0.40350 0.91240 0.46080 -0.05400
C 	C 	0.44330 0.86610 0.44420 -0.00800
C 	C 	0.44470 0.80860 0.49060 -0.08000
C 	C 	0.40740 0.79710 0.55480 0.01800
C 	C 	0.32020 0.82560 0.64080 0.34700
C 	C 	0.43940 0.05270 0.30610 0.12100
C 	C 	0.44020 0.99190 0.34800 -0.19500
C 	C 	0.40390 0.97680 0.41250 0.13000
C 	C 	0.37300 0.02930 0.42990 -0.19100
C 	C 	0.37570 0.08980 0.38510 0.10700
C 	C 	0.47480 0.63420 0.57200 -0.10000
C 	C 	0.53390 0.63530 0.52540 0.00700
C 	C 	0.50890 0.59650 0.46080 -0.05400
C 	C 	0.42280 0.55670 0.44420 -0.00800
C 	C 	0.36390 0.55530 0.49060 -0.08000
C 	C 	0.38970 0.59260 0.55480 0.01800
C 	C 	0.50540 0.67980 0.64080 0.34700
C 	C 	0.61330 0.56060 0.30610 0.12100
C 	C 	0.55170 0.55980 0.34800 -0.19500
C 	C 	0.57290 0.59610 0.41250 0.13000
C 	C 	0.65630 0.62700 0.42990 -0.19100
C 	C 	0.71410 0.62430 0.38510 0.10700
C 	C 	0.36580 0.52520 0.92800 -0.09900
C 	C 	0.36470 0.46610 0.97460 0.00700
C 	C 	0.40350 0.49110 0.03920 -0.05400
C 	C 	0.44330 0.57720 0.05580 -0.00800
C 	C 	0.44470 0.63610 0.00940 -0.08000
C 	C 	0.40740 0.61030 0.94520 0.01800
C 	C 	0.32020 0.49460 0.85920 0.34600
C 	C 	0.43940 0.38670 0.19390 0.12100
C 	C 	0.44020 0.44830 0.15200 -0.19500
C 	C 	0.40390 0.42710 0.08750 0.12900
C 	C 	0.37300 0.34370 0.07010 -0.19100
C 	C 	0.37570 0.28590 0.11490 0.10700
C 	C 	0.47480 0.84060 0.92800 -0.09900
C 	C 	0.53390 0.89860 0.97460 0.00600
C 	C 	0.50890 0.91240 0.03920 -0.05400
C 	C 	0.42280 0.86610 0.05580 -0.00800
C 	C 	0.36390 0.80860 0.00940 -0.08000
C 	C 	0.38970 0.79710 0.94520 0.01800
C 	C 	0.50540 0.82560 0.85920 0.34600
C 	C 	0.61330 0.05270 0.19390 0.12100
C 	C 	0.55170 0.99190 0.15200 -0.19500
C 	C 	0.57290 0.97680 0.08750 0.12900
C 	C 	0.65630 0.02930 0.07010 -0.19100
C 	C 	0.71410 0.08980 0.11490 0.10700
C 	C 	0.15940 0.63420 0.92800 -0.09900
C 	C 	0.10140 0.63530 0.97460 0.00600
C 	C 	0.08760 0.59650 0.03920 -0.05400
C 	C 	0.13390 0.55670 0.05580 -0.00800
C 	C 	0.19140 0.55530 0.00940 -0.08000
C 	C 	0.20290 0.59260 0.94520 0.01800
C 	C 	0.17440 0.67980 0.85920 0.34600
C 	C 	0.94730 0.56060 0.19390 0.12100
C 	C 	0.00810 0.55980 0.15200 -0.19500
C 	C 	0.02320 0.59610 0.08750 0.12900
C 	C 	0.97070 0.62700 0.07010 -0.19100
C 	C 	0.91020 0.62430 0.11490 0.10700
N 	N 	0.10160 0.69370 0.67780 -0.26300
N 	N 	0.59210 0.89840 0.67780 -0.26300
N 	N 	0.30630 0.40790 0.67780 -0.26300
N 	N 	0.59210 0.69370 0.82220 -0.26300
N 	N 	0.30630 0.89840 0.82220 -0.26300
N 	N 	0.10160 0.40790 0.82220 -0.26300
N 	N 	0.89840 0.30630 0.32220 -0.26300
N 	N 	0.40790 0.10160 0.32220 -0.26300
N 	N 	0.69370 0.59210 0.32220 -0.26300
N 	N 	0.40790 0.30630 0.17780 -0.26300
N 	N 	0.69370 0.10160 0.17780 -0.26300
N 	N 	0.89840 0.59210 0.17780 -0.26300
O 	O 	0.86680 0.58400 0.34717 -0.42200
O 	O 	0.77290 0.45270 0.31781 -0.41900
O 	O 	0.71720 0.13320 0.34717 -0.42200
O 	O 	0.67980 0.22710 0.31781 -0.41900
O 	O 	0.41600 0.28280 0.34717 -0.42200
O 	O 	0.54730 0.32020 0.31781 -0.41900
O 	O 	0.71720 0.58400 0.15283 -0.42200
O 	O 	0.67980 0.45270 0.18219 -0.41900
O 	O 	0.41600 0.13320 0.15283 -0.42200
O 	O 	0.54730 0.22710 0.18219 -0.41900
O 	O 	0.86680 0.28280 0.15283 -0.42200
O 	O 	0.77290 0.32020 0.18219 -0.41900
O 	O 	0.13320 0.41600 0.65283 -0.42200
O 	O 	0.22710 0.54730 0.68219 -0.41900
O 	O 	0.28280 0.86680 0.65283 -0.42200
O 	O 	0.32020 0.77290 0.68219 -0.41900
O 	O 	0.58400 0.71720 0.65283 -0.42200
O 	O 	0.45270 0.67980 0.68219 -0.41900
O 	O 	0.28280 0.41600 0.84717 -0.42200
O 	O 	0.32020 0.54730 0.81781 -0.41900
O 	O 	0.58400 0.86680 0.84717 -0.42200
O 	O 	0.45270 0.77290 0.81781 -0.41900
O 	O 	0.13320 0.71720 0.84717 -0.42200
O 	O 	0.22710 0.67980 0.81781 -0.41900
