data_crystal

_cell_length_a 11.14400
_cell_length_b 15.23920
_cell_length_c 16.69500
_cell_angle_alpha 114.41900
_cell_angle_beta  90.00000
_cell_angle_gamma 111.44700

_symmetry_space_group_name_	'P 1'
_symmetry_space_group_name_H-M	'P 1'

loop_
_symmetry_equiv_pos_as_xyz
  x,y,z

loop_
_atom_site_label
_atom_site_type_symbol
_atom_site_fract_x
_atom_site_fract_y
_atom_site_fract_z
_atom_site_charge
Ni	Ni	-0.00000 0.50000 -0.00000 1.03100
Ni	Ni	0.50000 0.50000 0.50000 1.08400
Ni	Ni	0.50000 0.50000 -0.00000 1.10100
Ni	Ni	-0.00000 0.50000 0.50000 1.07300
H 	H 	0.20590 0.32980 0.63000 0.05700
H 	H 	0.04290 0.57080 0.82010 0.04700
H 	H 	0.06290 0.30440 0.89470 -0.01800
H 	H 	0.71420 0.32800 0.88240 0.02600
H 	H 	0.57310 0.15800 0.84220 0.08000
H 	H 	0.81500 0.14620 0.01090 0.01900
H 	H 	0.94710 0.31680 0.04710 0.08500
H 	H 	0.68420 0.86740 0.02020 0.00700
H 	H 	0.67160 0.73240 0.05310 0.06300
H 	H 	0.35170 0.54020 0.87600 0.02800
H 	H 	0.35440 0.66940 0.83900 0.07400
H 	H 	0.34430 0.82860 0.82430 0.14300
H 	H 	0.13520 0.24560 0.75930 0.13100
H 	H 	0.87610 0.67020 0.87000 0.10200
H 	H 	0.47210 0.42920 0.67990 0.06500
H 	H 	0.75850 0.69560 0.60530 -0.00100
H 	H 	0.38620 0.67200 0.61760 0.00800
H 	H 	0.41510 0.84200 0.65780 0.09800
H 	H 	0.66880 0.85380 0.48910 0.09900
H 	H 	0.63030 0.68320 0.45290 0.00700
H 	H 	0.81680 0.13260 0.47980 0.09900
H 	H 	0.93920 0.26760 0.44690 0.03600
H 	H 	0.81150 0.45980 0.62400 0.02500
H 	H 	0.68500 0.33060 0.66100 0.09500
H 	H 	0.51570 0.17140 0.67570 0.14300
H 	H 	0.88960 0.75440 0.74070 0.17300
H 	H 	0.79410 0.67020 0.37000 0.07200
H 	H 	0.95710 0.42920 0.17990 0.09000
H 	H 	0.93710 0.69560 0.10530 0.00200
H 	H 	0.28580 0.67200 0.11760 -0.00800
H 	H 	0.42690 0.84200 0.15780 0.11700
H 	H 	0.18500 0.85380 0.98910 0.16700
H 	H 	0.05290 0.68320 0.95290 -0.07400
H 	H 	0.31580 0.13260 0.97980 0.16400
H 	H 	0.32840 0.26760 0.94690 -0.03700
H 	H 	0.64830 0.45980 0.12400 -0.00400
H 	H 	0.64560 0.33060 0.16100 0.10900
H 	H 	0.65570 0.17140 0.17570 0.14200
H 	H 	0.86480 0.75440 0.24070 0.15500
H 	H 	0.12390 0.32980 0.13000 0.02800
H 	H 	0.52790 0.57080 0.32010 0.07100
H 	H 	0.24150 0.30440 0.39470 -0.01800
H 	H 	0.61380 0.32800 0.38240 0.00800
H 	H 	0.58490 0.15800 0.34220 0.09900
H 	H 	0.33120 0.14620 0.51090 0.08300
H 	H 	0.36970 0.31680 0.54710 0.00400
H 	H 	0.18320 0.86740 0.52020 0.07400
H 	H 	0.06080 0.73240 0.55310 -0.01100
H 	H 	0.18850 0.54020 0.37600 -0.00000
H 	H 	0.31500 0.66940 0.33900 0.08900
H 	H 	0.48430 0.82860 0.32430 0.14200
H 	H 	0.11040 0.24560 0.25930 0.11200
C 	C 	0.23360 0.47060 0.57170 0.34200
C 	C 	0.17110 0.45900 0.65000 -0.07100
C 	C 	0.12280 0.53260 0.70770 -0.06700
C 	C 	0.12170 0.62680 0.69700 0.31000
C 	C 	0.17320 0.37740 0.66720 -0.07700
C 	C 	0.12410 0.36920 0.74270 0.06600
C 	C 	0.07900 0.44280 0.80130 0.03700
C 	C 	0.07590 0.52360 0.78280 -0.07600
C 	C 	0.07450 0.33640 0.85660 0.10900
C 	C 	0.73510 0.29140 0.90910 0.06200
C 	C 	0.64880 0.18840 0.88430 -0.06800
C 	C 	0.67620 0.13080 0.92290 -0.00600
C 	C 	0.79120 0.18140 0.98390 0.06300
C 	C 	0.87110 0.28480 0.00490 -0.07200
C 	C 	0.59090 0.02080 0.90160 0.13500
C 	C 	0.52930 0.87300 0.90490 0.14000
C 	C 	0.52100 0.78320 0.92410 -0.01600
C 	C 	0.61600 0.80140 0.98990 0.06500
C 	C 	0.60710 0.71960 0.00950 -0.07600
C 	C 	0.41910 0.60680 0.90550 0.04800
C 	C 	0.42040 0.68380 0.88240 -0.06700
C 	C 	0.76300 0.52940 0.92830 0.32900
C 	C 	0.71210 0.54100 0.85000 -0.03700
C 	C 	0.59020 0.46740 0.79230 -0.05800
C 	C 	0.49490 0.37320 0.80300 0.31100
C 	C 	0.79580 0.62260 0.83280 -0.08200
C 	C 	0.75490 0.63080 0.75730 0.10100
C 	C 	0.63620 0.55720 0.69870 0.04700
C 	C 	0.55230 0.47640 0.71720 -0.06500
C 	C 	0.73810 0.66360 0.64340 0.13200
C 	C 	0.44370 0.70860 0.59090 0.08800
C 	C 	0.46040 0.81160 0.61570 -0.13500
C 	C 	0.54540 0.86920 0.57710 0.07700
C 	C 	0.60980 0.81860 0.51610 -0.13300
C 	C 	0.58630 0.71520 0.49510 0.07900
C 	C 	0.57010 0.97920 0.59840 0.07700
C 	C 	0.65630 0.12700 0.59510 0.11600
C 	C 	0.73780 0.21680 0.57590 0.06600
C 	C 	0.81460 0.19860 0.51010 -0.11500
C 	C 	0.88750 0.28040 0.49050 0.08800
C 	C 	0.81230 0.39320 0.59450 0.09100
C 	C 	0.73660 0.31620 0.61760 -0.12000
C 	C 	0.76640 0.52940 0.42830 0.34300
C 	C 	0.82890 0.54100 0.35000 -0.05000
C 	C 	0.87720 0.46740 0.29230 -0.03300
C 	C 	0.87830 0.37320 0.30300 0.30600
C 	C 	0.82680 0.62260 0.33280 -0.06200
C 	C 	0.87590 0.63080 0.25730 0.08700
C 	C 	0.92100 0.55720 0.19870 0.07100
C 	C 	0.92410 0.47640 0.21720 -0.07100
C 	C 	0.92550 0.66360 0.14340 0.13200
C 	C 	0.26490 0.70860 0.09090 0.11100
C 	C 	0.35120 0.81160 0.11570 -0.20100
C 	C 	0.32380 0.86920 0.07710 0.14900
C 	C 	0.20880 0.81860 0.01610 -0.33500
C 	C 	0.12890 0.71520 0.99510 0.22800
C 	C 	0.40910 0.97920 0.09840 0.03600
C 	C 	0.47070 0.12700 0.09510 0.07700
C 	C 	0.47900 0.21680 0.07590 0.12800
C 	C 	0.38400 0.19860 0.01010 -0.30800
C 	C 	0.39290 0.28040 0.99050 0.22800
C 	C 	0.58090 0.39320 0.09450 0.11000
C 	C 	0.57960 0.31620 0.11760 -0.18600
C 	C 	0.23700 0.47060 0.07170 0.35300
C 	C 	0.28790 0.45900 0.15000 -0.08400
C 	C 	0.40980 0.53260 0.20770 -0.04400
C 	C 	0.50510 0.62680 0.19700 0.30700
C 	C 	0.20420 0.37740 0.16720 -0.05800
C 	C 	0.24510 0.36920 0.24270 0.05200
C 	C 	0.36380 0.44280 0.30130 0.06100
C 	C 	0.44770 0.52360 0.28280 -0.08300
C 	C 	0.26190 0.33640 0.35660 0.11000
C 	C 	0.55630 0.29140 0.40910 0.08300
C 	C 	0.53960 0.18840 0.38430 -0.13200
C 	C 	0.45460 0.13080 0.42290 0.06100
C 	C 	0.39020 0.18140 0.48390 -0.12900
C 	C 	0.41370 0.28480 0.50490 0.06900
C 	C 	0.42990 0.02080 0.40160 0.09800
C 	C 	0.34370 0.87300 0.40490 0.10000
C 	C 	0.26220 0.78320 0.42410 0.04900
C 	C 	0.18540 0.80140 0.48990 -0.13400
C 	C 	0.11250 0.71960 0.50950 0.06700
C 	C 	0.18770 0.60680 0.40550 0.06700
C 	C 	0.26340 0.68380 0.38240 -0.13300
N 	N 	0.84730 0.34240 0.96910 -0.14500
N 	N 	0.63030 0.96680 0.93810 -0.12900
N 	N 	0.47230 0.96540 0.85000 -0.09600
N 	N 	0.43200 0.86900 0.85210 -0.16100
N 	N 	0.51040 0.62300 0.96880 -0.16400
N 	N 	0.11850 0.30040 0.77850 -0.21600
N 	N 	0.04900 0.42140 0.87460 -0.23000
N 	N 	0.50490 0.65760 0.53090 -0.21600
N 	N 	0.66350 0.03320 0.56190 -0.11500
N 	N 	0.50690 0.03460 0.65000 -0.07800
N 	N 	0.56300 0.13100 0.64790 -0.15600
N 	N 	0.88740 0.37700 0.53120 -0.19200
N 	N 	0.81810 0.69960 0.72150 -0.21900
N 	N 	0.62760 0.57860 0.62540 -0.22200
N 	N 	0.15270 0.65760 0.03090 -0.27600
N 	N 	0.36970 0.03320 0.06190 -0.12500
N 	N 	0.52770 0.03460 0.15000 -0.07200
N 	N 	0.56800 0.13100 0.14790 -0.15200
N 	N 	0.48960 0.37700 0.03120 -0.26300
N 	N 	0.88150 0.69960 0.22150 -0.21500
N 	N 	0.95100 0.57860 0.12540 -0.20300
N 	N 	0.49510 0.34240 0.46910 -0.21500
N 	N 	0.33650 0.96680 0.43810 -0.14000
N 	N 	0.49310 0.96540 0.35000 -0.09200
N 	N 	0.43700 0.86900 0.35210 -0.15800
N 	N 	0.11260 0.62300 0.46880 -0.22900
N 	N 	0.18190 0.30040 0.27850 -0.21100
N 	N 	0.37240 0.42140 0.37460 -0.22300
O 	O 	0.34615 0.46970 0.56960 -0.40700
O 	O 	0.17132 0.47944 0.51360 -0.42000
O 	O 	0.04957 0.61314 0.63130 -0.41300
O 	O 	0.19040 0.71620 0.75870 -0.27200
O 	O 	0.87645 0.53030 0.93040 -0.34200
O 	O 	0.69188 0.52056 0.98640 -0.37400
O 	O 	0.43643 0.38686 0.86870 -0.36900
O 	O 	0.47420 0.28380 0.74130 -0.26200
O 	O 	0.65385 0.53030 0.43040 -0.40500
O 	O 	0.82868 0.52056 0.48640 -0.36900
O 	O 	0.95043 0.38686 0.36870 -0.32700
O 	O 	0.80960 0.28380 0.24130 -0.24900
O 	O 	0.12355 0.46970 0.06960 -0.45100
O 	O 	0.30812 0.47944 0.01360 -0.42000
O 	O 	0.56357 0.61314 0.13130 -0.38100
O 	O 	0.52580 0.71620 0.25870 -0.26000
