data_crystal

_cell_length_a 12.17980
_cell_length_b 12.17980
_cell_length_c 12.66340
_cell_angle_alpha 103.93900
_cell_angle_beta  103.93900
_cell_angle_gamma 103.00300

_symmetry_space_group_name_	'P 1'
_symmetry_space_group_name_H-M	'P 1'

loop_
_symmetry_equiv_pos_as_xyz
  x,y,z

loop_
_atom_site_label
_atom_site_type_symbol
_atom_site_fract_x
_atom_site_fract_y
_atom_site_fract_z
_atom_site_charge
Ba	Ba	0.81972 0.18028 0.75000 2.07800
Ba	Ba	0.18028 0.81972 0.25000 2.07800
Zn	Zn	0.82682 0.41400 0.03827 1.23300
Zn	Zn	0.58600 0.17318 0.46173 1.23300
Zn	Zn	0.17318 0.58600 0.96173 1.23300
Zn	Zn	0.41400 0.82682 0.53827 1.23300
H 	H 	0.06130 0.10850 0.01630 0.02100
H 	H 	0.20480 0.04720 0.12070 -0.00500
H 	H 	0.31530 0.35810 0.36900 0.03700
H 	H 	0.16860 0.41920 0.26730 0.03900
H 	H 	0.59170 0.17270 0.15090 0.05100
H 	H 	0.52690 0.98810 0.82380 0.03400
H 	H 	0.87330 0.47970 0.87720 0.38400
H 	H 	0.75930 0.41390 0.83360 0.32800
H 	H 	0.89150 0.93870 0.48370 0.02000
H 	H 	0.95280 0.79520 0.37930 -0.00500
H 	H 	0.64190 0.68470 0.13100 0.03700
H 	H 	0.58080 0.83140 0.23270 0.03800
H 	H 	0.82730 0.40830 0.34910 0.05200
H 	H 	0.01190 0.47310 0.67620 0.03400
H 	H 	0.52030 0.12670 0.62280 0.38400
H 	H 	0.58610 0.24070 0.66640 0.32800
H 	H 	0.93870 0.89150 0.98370 0.02100
H 	H 	0.79520 0.95280 0.87930 -0.00500
H 	H 	0.68470 0.64190 0.63100 0.03700
H 	H 	0.83140 0.58080 0.73270 0.03900
H 	H 	0.40830 0.82730 0.84910 0.05100
H 	H 	0.47310 0.01190 0.17620 0.03400
H 	H 	0.12670 0.52030 0.12280 0.38400
H 	H 	0.24070 0.58610 0.16640 0.32800
H 	H 	0.10850 0.06130 0.51630 0.02000
H 	H 	0.04720 0.20480 0.62070 -0.00500
H 	H 	0.35810 0.31530 0.86900 0.03700
H 	H 	0.41920 0.16860 0.76730 0.03800
H 	H 	0.17270 0.59170 0.65090 0.05200
H 	H 	0.98810 0.52690 0.32380 0.03400
H 	H 	0.47970 0.87330 0.37720 0.38400
H 	H 	0.41390 0.75930 0.33360 0.32800
C 	C 	0.99508 0.29932 0.06660 0.37500
C 	C 	0.09722 0.26898 0.13250 -0.10400
C 	C 	0.11080 0.15820 0.08820 -0.02600
C 	C 	0.19710 0.12170 0.15050 -0.00500
C 	C 	0.27254 0.19526 0.25720 -0.12900
C 	C 	0.26260 0.30700 0.29900 -0.00200
C 	C 	0.17509 0.34411 0.23770 -0.03300
C 	C 	0.36058 0.14962 0.32610 0.40800
C 	C 	0.65277 0.19963 0.96710 0.38400
C 	C 	0.57270 0.09610 0.98460 -0.09300
C 	C 	0.55500 0.10280 0.09010 -0.02300
C 	C 	0.51650 0.99310 0.89500 -0.01000
C 	C 	0.70068 0.00492 0.43340 0.37800
C 	C 	0.73102 0.90278 0.36750 -0.10700
C 	C 	0.84180 0.88920 0.41180 -0.02500
C 	C 	0.87830 0.80290 0.34950 -0.00700
C 	C 	0.80474 0.72746 0.24280 -0.12800
C 	C 	0.69300 0.73740 0.20100 -0.00300
C 	C 	0.65589 0.82491 0.26230 -0.03100
C 	C 	0.85038 0.63942 0.17390 0.40800
C 	C 	0.80037 0.34723 0.53290 0.38400
C 	C 	0.90390 0.42730 0.51540 -0.09100
C 	C 	0.89720 0.44500 0.40990 -0.02300
C 	C 	0.00690 0.48350 0.60500 -0.01100
C 	C 	0.00492 0.70068 0.93340 0.37500
C 	C 	0.90278 0.73102 0.86750 -0.10400
C 	C 	0.88920 0.84180 0.91180 -0.02600
C 	C 	0.80290 0.87830 0.84950 -0.00500
C 	C 	0.72746 0.80474 0.74280 -0.12900
C 	C 	0.73740 0.69300 0.70100 -0.00200
C 	C 	0.82491 0.65589 0.76230 -0.03300
C 	C 	0.63942 0.85038 0.67390 0.40800
C 	C 	0.34723 0.80037 0.03290 0.38400
C 	C 	0.42730 0.90390 0.01540 -0.09300
C 	C 	0.44500 0.89720 0.90990 -0.02300
C 	C 	0.48350 0.00690 0.10500 -0.01000
C 	C 	0.29932 0.99508 0.56660 0.37800
C 	C 	0.26898 0.09722 0.63250 -0.10700
C 	C 	0.15820 0.11080 0.58820 -0.02500
C 	C 	0.12170 0.19710 0.65050 -0.00700
C 	C 	0.19526 0.27254 0.75720 -0.12800
C 	C 	0.30700 0.26260 0.79900 -0.00300
C 	C 	0.34411 0.17509 0.73770 -0.03100
C 	C 	0.14962 0.36058 0.82610 0.40800
C 	C 	0.19963 0.65277 0.46710 0.38400
C 	C 	0.09610 0.57270 0.48460 -0.09100
C 	C 	0.10280 0.55500 0.59010 -0.02300
C 	C 	0.99310 0.51650 0.39500 -0.01100
O 	O 	0.92153 0.22427 0.98010 -0.49700
O 	O 	0.98682 0.40404 0.10650 -0.50300
O 	O 	0.33947 0.04333 0.31320 -0.49800
O 	O 	0.45425 0.22759 0.39470 -0.47700
O 	O 	0.71145 0.28769 0.05700 -0.46700
O 	O 	0.65935 0.19403 0.87030 -0.48000
O 	O 	0.82483 0.41923 0.88040 -0.98100
O 	O 	0.77573 0.07847 0.51990 -0.49800
O 	O 	0.59596 0.01318 0.39350 -0.50300
O 	O 	0.95667 0.66053 0.18680 -0.49900
O 	O 	0.77241 0.54575 0.10530 -0.47700
O 	O 	0.71231 0.28855 0.44300 -0.46600
O 	O 	0.80597 0.34065 0.62970 -0.47900
O 	O 	0.58077 0.17517 0.61960 -0.98200
O 	O 	0.07847 0.77573 0.01990 -0.49700
O 	O 	0.01318 0.59596 0.89350 -0.50300
O 	O 	0.66053 0.95667 0.68680 -0.49800
O 	O 	0.54575 0.77241 0.60530 -0.47700
O 	O 	0.28855 0.71231 0.94300 -0.46700
O 	O 	0.34065 0.80597 0.12970 -0.48000
O 	O 	0.17517 0.58077 0.11960 -0.98100
O 	O 	0.22427 0.92153 0.48010 -0.49800
O 	O 	0.40404 0.98682 0.60650 -0.50300
O 	O 	0.04333 0.33947 0.81320 -0.49900
O 	O 	0.22759 0.45425 0.89470 -0.47700
O 	O 	0.28769 0.71145 0.55700 -0.46600
O 	O 	0.19403 0.65935 0.37030 -0.47900
O 	O 	0.41923 0.82483 0.38040 -0.98200
