data_crystal

_cell_length_a 10.09030
_cell_length_b 10.09030
_cell_length_c 21.25680
_cell_angle_alpha 90.00000
_cell_angle_beta  90.00000
_cell_angle_gamma 120.00000

_symmetry_space_group_name_	'P 1'
_symmetry_space_group_name_H-M	'P 1'

loop_
_symmetry_equiv_pos_as_xyz
  x,y,z

loop_
_atom_site_label
_atom_site_type_symbol
_atom_site_fract_x
_atom_site_fract_y
_atom_site_fract_z
_atom_site_charge
Cd	Cd	0.91181 0.08818 0.75000 1.12100
Cd	Cd	0.17637 0.08818 0.41667 1.12100
Cd	Cd	0.91181 0.82362 0.08333 1.12000
Cd	Cd	0.08818 0.91181 0.25000 1.12000
Cd	Cd	0.82363 0.91182 0.91667 1.12000
Cd	Cd	0.08818 0.17637 0.58333 1.12000
H 	H 	0.21032 0.39891 0.80602 -0.01500
H 	H 	0.44173 0.51080 0.64326 -0.00900
H 	H 	0.18859 0.78968 0.47269 -0.01500
H 	H 	0.06907 0.55827 0.30993 -0.00900
H 	H 	0.60109 0.81141 0.13935 -0.01500
H 	H 	0.48920 0.93093 0.97659 -0.00800
H 	H 	0.78968 0.60109 0.30602 -0.01500
H 	H 	0.55827 0.48920 0.14326 -0.00900
H 	H 	0.81141 0.21032 0.97269 -0.01500
H 	H 	0.93093 0.44173 0.80993 -0.00900
H 	H 	0.39891 0.18859 0.63935 -0.01500
H 	H 	0.51080 0.06907 0.47659 -0.00900
H 	H 	0.81141 0.60109 0.86065 -0.01500
H 	H 	0.93093 0.48920 0.02341 -0.00800
H 	H 	0.39891 0.21032 0.19398 -0.01500
H 	H 	0.51080 0.44173 0.35674 -0.00900
H 	H 	0.78968 0.18859 0.52731 -0.01500
H 	H 	0.55827 0.06907 0.69007 -0.00900
H 	H 	0.18859 0.39891 0.36065 -0.01500
H 	H 	0.06907 0.51080 0.52341 -0.00900
H 	H 	0.60109 0.78968 0.69398 -0.01500
H 	H 	0.48920 0.55827 0.85674 -0.00900
H 	H 	0.21032 0.81141 0.02731 -0.01500
H 	H 	0.44173 0.93093 0.19007 -0.00900
C 	C 	0.36993 0.50100 0.73506 -0.02700
C 	C 	0.23701 0.39735 0.76328 -0.01900
C 	C 	0.36408 0.45879 0.67391 0.00400
C 	C 	0.13107 0.63007 0.40173 -0.02700
C 	C 	0.16034 0.76299 0.42995 -0.01900
C 	C 	0.09471 0.63592 0.34058 0.00400
C 	C 	0.49900 0.86893 0.06839 -0.02600
C 	C 	0.60265 0.83966 0.09661 -0.02000
C 	C 	0.54121 0.90529 0.00724 0.00300
C 	C 	0.63007 0.49900 0.23506 -0.02700
C 	C 	0.76299 0.60265 0.26328 -0.01900
C 	C 	0.63592 0.54121 0.17391 0.00400
C 	C 	0.86893 0.36993 0.90173 -0.02700
C 	C 	0.83966 0.23701 0.92995 -0.01900
C 	C 	0.90529 0.36408 0.84058 0.00400
C 	C 	0.50100 0.13107 0.56839 -0.02700
C 	C 	0.39735 0.16034 0.59661 -0.02000
C 	C 	0.45879 0.09471 0.50724 0.00400
C 	C 	0.86893 0.49900 0.93161 -0.02600
C 	C 	0.83966 0.60265 0.90339 -0.02000
C 	C 	0.90529 0.54121 0.99276 0.00300
C 	C 	0.50100 0.36993 0.26494 -0.02700
C 	C 	0.39735 0.23701 0.23672 -0.01900
C 	C 	0.45879 0.36408 0.32609 0.00400
C 	C 	0.63007 0.13107 0.59827 -0.02700
C 	C 	0.76299 0.16034 0.57005 -0.01900
C 	C 	0.63592 0.09471 0.65942 0.00400
C 	C 	0.13107 0.50100 0.43161 -0.02700
C 	C 	0.16034 0.39735 0.40339 -0.02000
C 	C 	0.09471 0.45879 0.49276 0.00400
C 	C 	0.49900 0.63007 0.76494 -0.02700
C 	C 	0.60265 0.76299 0.73672 -0.01900
C 	C 	0.54121 0.63592 0.82609 0.00400
C 	C 	0.36993 0.86893 0.09827 -0.02700
C 	C 	0.23701 0.83966 0.07005 -0.01900
C 	C 	0.36408 0.90529 0.15942 0.00400
N 	N 	0.14901 0.29110 0.71956 -0.25500
N 	N 	0.22754 0.32907 0.66433 -0.23900
N 	N 	0.14209 0.85099 0.38623 -0.25500
N 	N 	0.10153 0.77246 0.33100 -0.23900
N 	N 	0.70890 0.85791 0.05289 -0.25500
N 	N 	0.67093 0.89847 0.99766 -0.23900
N 	N 	0.85099 0.70890 0.21956 -0.25500
N 	N 	0.77246 0.67093 0.16433 -0.23900
N 	N 	0.85791 0.14901 0.88623 -0.25500
N 	N 	0.89847 0.22754 0.83100 -0.23900
N 	N 	0.29110 0.14209 0.55289 -0.25500
N 	N 	0.32907 0.10153 0.49766 -0.23900
N 	N 	0.85791 0.70890 0.94711 -0.25500
N 	N 	0.89847 0.67093 0.00234 -0.23900
N 	N 	0.29110 0.14901 0.28044 -0.25500
N 	N 	0.32907 0.22754 0.33567 -0.23900
N 	N 	0.85099 0.14209 0.61377 -0.25500
N 	N 	0.77246 0.10153 0.66900 -0.23900
N 	N 	0.14209 0.29110 0.44711 -0.25500
N 	N 	0.10153 0.32907 0.50234 -0.23900
N 	N 	0.70890 0.85099 0.78044 -0.25500
N 	N 	0.67093 0.77246 0.83567 -0.23900
N 	N 	0.14901 0.85791 0.11377 -0.25500
N 	N 	0.22754 0.89847 0.16900 -0.23900
