data_crystal

_cell_length_a 7.13280
_cell_length_b 8.72070
_cell_length_c 9.69840
_cell_angle_alpha 116.71800
_cell_angle_beta  111.57600
_cell_angle_gamma 90.00000

_symmetry_space_group_name_	'P 1'
_symmetry_space_group_name_H-M	'P 1'

loop_
_symmetry_equiv_pos_as_xyz
  x,y,z

loop_
_atom_site_label
_atom_site_type_symbol
_atom_site_fract_x
_atom_site_fract_y
_atom_site_fract_z
_atom_site_charge
Cu	Cu	-0.00000 0.00000 -0.00000 0.70400
Cu	Cu	0.50000 0.00000 -0.00000 0.71600
C 	C 	0.92988 0.67207 0.66828 0.09600
C 	C 	0.57012 0.00379 0.33172 -0.07000
C 	C 	0.76160 0.32793 0.33172 -0.03900
C 	C 	0.73840 0.99621 0.66828 0.08000
C 	C 	0.07012 0.32793 0.33172 -0.08500
C 	C 	0.42988 0.99621 0.66828 0.07900
C 	C 	0.23840 0.67207 0.66828 0.05900
C 	C 	0.26160 0.00379 0.33172 -0.07400
C 	C 	0.03911 0.58516 0.57822 -0.11900
C 	C 	0.46089 0.00694 0.42178 -0.05500
C 	C 	0.96089 0.41484 0.42178 0.08400
C 	C 	0.53911 0.99306 0.57822 0.02200
N 	N 	0.06168 0.81272 0.81402 -0.16300
N 	N 	0.43832 0.99870 0.18598 -0.16200
N 	N 	0.74766 0.18728 0.18598 -0.22900
N 	N 	0.75234 0.00130 0.81402 -0.19900
N 	N 	0.93832 0.18728 0.18598 -0.20600
N 	N 	0.56168 0.00130 0.81402 -0.20500
N 	N 	0.25234 0.81272 0.81402 -0.14800
N 	N 	0.24766 0.99870 0.18598 -0.16200
H 	H 	0.75775 0.62164 0.61603 0.00300
H 	H 	0.74225 0.00561 0.38397 -0.00500
H 	H 	0.64172 0.37836 0.38397 0.00800
H 	H 	0.85828 0.99439 0.61603 0.03500
H 	H 	0.24225 0.37836 0.38397 0.01600
H 	H 	0.25775 0.99439 0.61603 0.02700
H 	H 	0.35828 0.62164 0.61603 0.00900
H 	H 	0.14172 0.00561 0.38397 -0.01700
