data_crystal

_cell_length_a 15.48400
_cell_length_b 30.16300
_cell_length_c 30.16300
_cell_angle_alpha 90.00000
_cell_angle_beta  90.00000
_cell_angle_gamma 90.00000

_symmetry_space_group_name_	'P 1'
_symmetry_space_group_name_H-M	'P 1'

loop_
_symmetry_equiv_pos_as_xyz
  x,y,z

loop_
_atom_site_label
_atom_site_type_symbol
_atom_site_fract_x
_atom_site_fract_y
_atom_site_fract_z
_atom_site_charge
Co	Co	0.62251 0.75280 0.98296 1.20200
Co	Co	0.62251 0.24720 0.01704 1.19900
Co	Co	0.62251 0.01704 0.75280 1.19900
Co	Co	0.62251 0.98296 0.24720 1.20200
Co	Co	0.37749 0.74720 0.48296 1.20000
Co	Co	0.37749 0.25280 0.51704 1.20100
Co	Co	0.37749 0.48296 0.25280 1.20100
Co	Co	0.37749 0.51704 0.74720 1.20100
Co	Co	0.37749 0.24720 0.01704 1.20000
Co	Co	0.37749 0.75280 0.98296 1.20200
Co	Co	0.37749 0.98296 0.24720 1.20200
Co	Co	0.37749 0.01704 0.75280 1.20000
Co	Co	0.62251 0.25280 0.51704 1.20100
Co	Co	0.62251 0.74720 0.48296 1.20200
Co	Co	0.62251 0.51704 0.74720 1.20200
Co	Co	0.62251 0.48296 0.25280 1.20100
Co	Co	-0.00000 0.50000 -0.00000 1.10800
Co	Co	-0.00000 0.00000 0.50000 1.10800
Co	Co	0.50000 0.83867 0.98970 1.18100
Co	Co	0.50000 0.16133 0.01030 1.17800
Co	Co	0.50000 0.01030 0.83867 1.17800
Co	Co	0.50000 0.98970 0.16133 1.18100
Co	Co	0.50000 0.66133 0.48970 1.17900
Co	Co	0.50000 0.33867 0.51030 1.17900
Co	Co	0.50000 0.48970 0.33867 1.17900
Co	Co	0.50000 0.51030 0.66133 1.17900
Co	Co	-0.00000 0.74057 0.24057 1.09500
Co	Co	-0.00000 0.25943 0.75943 1.09500
Co	Co	-0.00000 0.75943 0.74057 1.09500
Co	Co	0.00000 0.24057 0.25943 1.09500
H 	H 	0.76220 0.63050 0.96330 0.06700
H 	H 	0.60550 0.88240 0.09910 0.03400
H 	H 	0.76600 0.86970 0.20410 0.05700
H 	H 	0.76460 0.77850 0.10750 0.05300
H 	H 	0.68170 0.76570 0.20700 0.06400
H 	H 	0.91960 0.85690 0.12580 0.05000
H 	H 	0.76220 0.36950 0.03670 0.06600
H 	H 	0.60550 0.11760 0.90090 0.03500
H 	H 	0.76600 0.13030 0.79590 0.05700
H 	H 	0.76460 0.22150 0.89250 0.05400
H 	H 	0.68170 0.23430 0.79300 0.06500
H 	H 	0.91960 0.14310 0.87420 0.05000
H 	H 	0.76220 0.03670 0.63050 0.06600
H 	H 	0.60550 0.90090 0.88240 0.03500
H 	H 	0.76600 0.79590 0.86970 0.05800
H 	H 	0.76460 0.89250 0.77850 0.05400
H 	H 	0.68170 0.79300 0.76570 0.06500
H 	H 	0.91960 0.87420 0.85690 0.05100
H 	H 	0.76220 0.96330 0.36950 0.06700
H 	H 	0.60550 0.09910 0.11760 0.03400
H 	H 	0.76600 0.20410 0.13030 0.05700
H 	H 	0.76460 0.10750 0.22150 0.05300
H 	H 	0.68170 0.20700 0.23430 0.06400
H 	H 	0.91960 0.12580 0.14310 0.04900
H 	H 	0.23780 0.86950 0.46330 0.06200
H 	H 	0.39450 0.61760 0.59910 0.03300
H 	H 	0.23400 0.63030 0.70410 0.05300
H 	H 	0.23540 0.72150 0.60750 0.04900
H 	H 	0.31830 0.73430 0.70700 0.06400
H 	H 	0.08040 0.64310 0.62580 0.07700
H 	H 	0.23780 0.13050 0.53670 0.06200
H 	H 	0.39450 0.38240 0.40090 0.03300
H 	H 	0.23400 0.36970 0.29590 0.05300
H 	H 	0.23540 0.27850 0.39250 0.04900
H 	H 	0.31830 0.26570 0.29300 0.06400
H 	H 	0.08040 0.35690 0.37420 0.07700
H 	H 	0.23780 0.46330 0.13050 0.06200
H 	H 	0.39450 0.59910 0.38240 0.03300
H 	H 	0.23400 0.70410 0.36970 0.05300
H 	H 	0.23540 0.60750 0.27850 0.04900
H 	H 	0.31830 0.70700 0.26570 0.06400
H 	H 	0.08040 0.62580 0.35690 0.07700
H 	H 	0.23780 0.53670 0.86950 0.06200
H 	H 	0.39450 0.40090 0.61760 0.03300
H 	H 	0.23400 0.29590 0.63030 0.05300
H 	H 	0.23540 0.39250 0.72150 0.04900
H 	H 	0.31830 0.29300 0.73430 0.06400
H 	H 	0.08040 0.37420 0.64310 0.07700
H 	H 	0.23780 0.36950 0.03670 0.06100
H 	H 	0.39450 0.11760 0.90090 0.03300
H 	H 	0.23400 0.13030 0.79590 0.05300
H 	H 	0.23540 0.22150 0.89250 0.04900
H 	H 	0.31830 0.23430 0.79300 0.06400
H 	H 	0.08040 0.14310 0.87420 0.07700
H 	H 	0.23780 0.63050 0.96330 0.06300
H 	H 	0.39450 0.88240 0.09910 0.03300
H 	H 	0.23400 0.86970 0.20410 0.05300
H 	H 	0.23540 0.77850 0.10750 0.04800
H 	H 	0.31830 0.76570 0.20700 0.06400
H 	H 	0.08040 0.85690 0.12580 0.07700
H 	H 	0.23780 0.96330 0.36950 0.06300
H 	H 	0.39450 0.09910 0.11760 0.03200
H 	H 	0.23400 0.20410 0.13030 0.05300
H 	H 	0.23540 0.10750 0.22150 0.04800
H 	H 	0.31830 0.20700 0.23430 0.06400
H 	H 	0.08040 0.12580 0.14310 0.07600
H 	H 	0.23780 0.03670 0.63050 0.06100
H 	H 	0.39450 0.90090 0.88240 0.03400
H 	H 	0.23400 0.79590 0.86970 0.05300
H 	H 	0.23540 0.89250 0.77850 0.05000
H 	H 	0.31830 0.79300 0.76570 0.06400
H 	H 	0.08040 0.87420 0.85690 0.07700
H 	H 	0.76220 0.13050 0.53670 0.06600
H 	H 	0.60550 0.38240 0.40090 0.03400
H 	H 	0.76600 0.36970 0.29590 0.05700
H 	H 	0.76460 0.27850 0.39250 0.05300
H 	H 	0.68170 0.26570 0.29300 0.06400
H 	H 	0.91960 0.35690 0.37420 0.05000
H 	H 	0.76220 0.86950 0.46330 0.06600
H 	H 	0.60550 0.61760 0.59910 0.03400
H 	H 	0.76600 0.63030 0.70410 0.05700
H 	H 	0.76460 0.72150 0.60750 0.05400
H 	H 	0.68170 0.73430 0.70700 0.06400
H 	H 	0.91960 0.64310 0.62580 0.05000
H 	H 	0.76220 0.53670 0.86950 0.06600
H 	H 	0.60550 0.40090 0.61760 0.03400
H 	H 	0.76600 0.29590 0.63030 0.05700
H 	H 	0.76460 0.39250 0.72150 0.05400
H 	H 	0.68170 0.29300 0.73430 0.06400
H 	H 	0.91960 0.37420 0.64310 0.05000
H 	H 	0.76220 0.46330 0.13050 0.06600
H 	H 	0.60550 0.59910 0.38240 0.03400
H 	H 	0.76600 0.70410 0.36970 0.05700
H 	H 	0.76460 0.60750 0.27850 0.05300
H 	H 	0.68170 0.70700 0.26570 0.06400
H 	H 	0.91960 0.62580 0.35690 0.05000
H 	H 	0.92050 0.61600 0.88400 0.04200
H 	H 	0.67710 0.52930 0.97070 0.05800
H 	H 	0.59420 0.63630 0.86370 0.05800
H 	H 	0.92050 0.38400 0.11600 0.04100
H 	H 	0.67710 0.47070 0.02930 0.06100
H 	H 	0.59420 0.36370 0.13630 0.05800
H 	H 	0.92050 0.11600 0.61600 0.04200
H 	H 	0.67710 0.02930 0.52930 0.06100
H 	H 	0.59420 0.13630 0.63630 0.05800
H 	H 	0.92050 0.88400 0.38400 0.04200
H 	H 	0.67710 0.97070 0.47070 0.05800
H 	H 	0.59420 0.86370 0.36370 0.05800
H 	H 	0.07950 0.88400 0.38400 0.07300
H 	H 	0.32290 0.97070 0.47070 0.05800
H 	H 	0.40580 0.86370 0.36370 0.05800
H 	H 	0.07950 0.11600 0.61600 0.07300
H 	H 	0.32290 0.02930 0.52930 0.06100
H 	H 	0.40580 0.13630 0.63630 0.05700
H 	H 	0.07950 0.38400 0.11600 0.07300
H 	H 	0.32290 0.47070 0.02930 0.06100
H 	H 	0.40580 0.36370 0.13630 0.05700
H 	H 	0.07950 0.61600 0.88400 0.07300
H 	H 	0.32290 0.52930 0.97070 0.05800
H 	H 	0.40580 0.63630 0.86370 0.05800
C 	C 	0.74090 0.61930 0.93590 -0.05800
C 	C 	0.67580 0.64040 0.91550 -0.06500
C 	C 	0.64020 0.68350 0.93410 0.34000
C 	C 	0.64600 0.80990 0.05420 0.40700
C 	C 	0.67960 0.82840 0.09750 -0.11500
C 	C 	0.64950 0.86650 0.11420 0.06400
C 	C 	0.68300 0.88270 0.15380 -0.12400
C 	C 	0.74520 0.85920 0.17640 -0.01800
C 	C 	0.77650 0.82110 0.15890 0.03700
C 	C 	0.74330 0.80550 0.11960 -0.02700
C 	C 	0.64540 0.92360 0.17310 0.45300
C 	C 	0.84300 0.79700 0.18290 -0.11700
C 	C 	0.81840 0.76380 0.21120 0.09000
C 	C 	0.73120 0.75300 0.22050 -0.07500
C 	C 	0.92770 0.80680 0.17500 0.10200
C 	C 	0.95570 0.83870 0.14360 -0.01700
C 	C 	0.74090 0.38070 0.06410 -0.05800
C 	C 	0.67580 0.35960 0.08450 -0.06600
C 	C 	0.64020 0.31650 0.06590 0.34000
C 	C 	0.64600 0.19010 0.94580 0.40600
C 	C 	0.67960 0.17160 0.90250 -0.11300
C 	C 	0.64950 0.13350 0.88580 0.06300
C 	C 	0.68300 0.11730 0.84620 -0.12400
C 	C 	0.74520 0.14080 0.82360 -0.01900
C 	C 	0.77650 0.17890 0.84110 0.03800
C 	C 	0.74330 0.19450 0.88040 -0.02800
C 	C 	0.64540 0.07640 0.82690 0.45300
C 	C 	0.84300 0.20300 0.81710 -0.11700
C 	C 	0.81840 0.23620 0.78880 0.09000
C 	C 	0.73120 0.24700 0.77950 -0.07500
C 	C 	0.92770 0.19320 0.82500 0.10300
C 	C 	0.95570 0.16130 0.85640 -0.01700
C 	C 	0.74090 0.06410 0.61930 -0.05800
C 	C 	0.67580 0.08450 0.64040 -0.06600
C 	C 	0.64020 0.06590 0.68350 0.34000
C 	C 	0.64600 0.94580 0.80990 0.40600
C 	C 	0.67960 0.90250 0.82840 -0.11300
C 	C 	0.64950 0.88580 0.86650 0.06300
C 	C 	0.68300 0.84620 0.88270 -0.12300
C 	C 	0.74520 0.82360 0.85920 -0.01900
C 	C 	0.77650 0.84110 0.82110 0.03800
C 	C 	0.74330 0.88040 0.80550 -0.02800
C 	C 	0.64540 0.82690 0.92360 0.45300
C 	C 	0.84300 0.81710 0.79700 -0.11700
C 	C 	0.81840 0.78880 0.76380 0.09000
C 	C 	0.73120 0.77950 0.75300 -0.07500
C 	C 	0.92770 0.82500 0.80680 0.10300
C 	C 	0.95570 0.85640 0.83870 -0.01700
C 	C 	0.74090 0.93590 0.38070 -0.05800
C 	C 	0.67580 0.91550 0.35960 -0.06500
C 	C 	0.64020 0.93410 0.31650 0.34000
C 	C 	0.64600 0.05420 0.19010 0.40800
C 	C 	0.67960 0.09750 0.17160 -0.11500
C 	C 	0.64950 0.11420 0.13350 0.06400
C 	C 	0.68300 0.15380 0.11730 -0.12500
C 	C 	0.74520 0.17640 0.14080 -0.01800
C 	C 	0.77650 0.15890 0.17890 0.03700
C 	C 	0.74330 0.11960 0.19450 -0.02700
C 	C 	0.64540 0.17310 0.07640 0.45300
C 	C 	0.84300 0.18290 0.20300 -0.11700
C 	C 	0.81840 0.21120 0.23620 0.09000
C 	C 	0.73120 0.22050 0.24700 -0.07500
C 	C 	0.92770 0.17500 0.19320 0.10200
C 	C 	0.95570 0.14360 0.16130 -0.01600
C 	C 	0.25910 0.88070 0.43590 -0.05900
C 	C 	0.32420 0.85960 0.41550 -0.06800
C 	C 	0.35980 0.81650 0.43410 0.34000
C 	C 	0.35400 0.69010 0.55420 0.40600
C 	C 	0.32040 0.67160 0.59750 -0.11700
C 	C 	0.35050 0.63350 0.61420 0.06400
C 	C 	0.31700 0.61730 0.65380 -0.12800
C 	C 	0.25480 0.64080 0.67640 -0.01900
C 	C 	0.22350 0.67890 0.65890 0.03800
C 	C 	0.25670 0.69450 0.61960 -0.02900
C 	C 	0.35460 0.57640 0.67310 0.45300
C 	C 	0.15700 0.70300 0.68290 -0.12700
C 	C 	0.18160 0.73620 0.71120 0.08600
C 	C 	0.26880 0.74700 0.72050 -0.07600
C 	C 	0.07230 0.69320 0.67500 0.10400
C 	C 	0.04430 0.66130 0.64360 -0.14200
C 	C 	0.25910 0.11930 0.56410 -0.05900
C 	C 	0.32420 0.14040 0.58450 -0.06900
C 	C 	0.35980 0.18350 0.56590 0.34000
C 	C 	0.35400 0.30990 0.44580 0.40600
C 	C 	0.32040 0.32840 0.40250 -0.11700
C 	C 	0.35050 0.36650 0.38580 0.06400
C 	C 	0.31700 0.38270 0.34620 -0.12800
C 	C 	0.25480 0.35920 0.32360 -0.01900
C 	C 	0.22350 0.32110 0.34110 0.03800
C 	C 	0.25670 0.30550 0.38040 -0.02800
C 	C 	0.35460 0.42360 0.32690 0.45300
C 	C 	0.15700 0.29700 0.31710 -0.12700
C 	C 	0.18160 0.26380 0.28880 0.08500
C 	C 	0.26880 0.25300 0.27950 -0.07600
C 	C 	0.07230 0.30680 0.32500 0.10400
C 	C 	0.04430 0.33870 0.35640 -0.14300
C 	C 	0.25910 0.43590 0.11930 -0.05900
C 	C 	0.32420 0.41550 0.14040 -0.06900
C 	C 	0.35980 0.43410 0.18350 0.34000
C 	C 	0.35400 0.55420 0.30990 0.40600
C 	C 	0.32040 0.59750 0.32840 -0.11700
C 	C 	0.35050 0.61420 0.36650 0.06400
C 	C 	0.31700 0.65380 0.38270 -0.12800
C 	C 	0.25480 0.67640 0.35920 -0.01900
C 	C 	0.22350 0.65890 0.32110 0.03800
C 	C 	0.25670 0.61960 0.30550 -0.02800
C 	C 	0.35460 0.67310 0.42360 0.45300
C 	C 	0.15700 0.68290 0.29700 -0.12700
C 	C 	0.18160 0.71120 0.26380 0.08500
C 	C 	0.26880 0.72050 0.25300 -0.07600
C 	C 	0.07230 0.67500 0.30680 0.10400
C 	C 	0.04430 0.64360 0.33870 -0.14200
C 	C 	0.25910 0.56410 0.88070 -0.05900
C 	C 	0.32420 0.58450 0.85960 -0.06800
C 	C 	0.35980 0.56590 0.81650 0.34000
C 	C 	0.35400 0.44580 0.69010 0.40600
C 	C 	0.32040 0.40250 0.67160 -0.11700
C 	C 	0.35050 0.38580 0.63350 0.06400
C 	C 	0.31700 0.34620 0.61730 -0.12800
C 	C 	0.25480 0.32360 0.64080 -0.01900
C 	C 	0.22350 0.34110 0.67890 0.03800
C 	C 	0.25670 0.38040 0.69450 -0.02900
C 	C 	0.35460 0.32690 0.57640 0.45300
C 	C 	0.15700 0.31710 0.70300 -0.12700
C 	C 	0.18160 0.28880 0.73620 0.08600
C 	C 	0.26880 0.27950 0.74700 -0.07600
C 	C 	0.07230 0.32500 0.69320 0.10400
C 	C 	0.04430 0.35640 0.66130 -0.14200
C 	C 	0.25910 0.38070 0.06410 -0.05900
C 	C 	0.32420 0.35960 0.08450 -0.06900
C 	C 	0.35980 0.31650 0.06590 0.34000
C 	C 	0.35400 0.19010 0.94580 0.40600
C 	C 	0.32040 0.17160 0.90250 -0.11600
C 	C 	0.35050 0.13350 0.88580 0.06300
C 	C 	0.31700 0.11730 0.84620 -0.12800
C 	C 	0.25480 0.14080 0.82360 -0.01900
C 	C 	0.22350 0.17890 0.84110 0.03800
C 	C 	0.25670 0.19450 0.88040 -0.02900
C 	C 	0.35460 0.07640 0.82690 0.45300
C 	C 	0.15700 0.20300 0.81710 -0.12700
C 	C 	0.18160 0.23620 0.78880 0.08600
C 	C 	0.26880 0.24700 0.77950 -0.07600
C 	C 	0.07230 0.19320 0.82500 0.10400
C 	C 	0.04430 0.16130 0.85640 -0.14200
C 	C 	0.25910 0.61930 0.93590 -0.05900
C 	C 	0.32420 0.64040 0.91550 -0.06800
C 	C 	0.35980 0.68350 0.93410 0.33900
C 	C 	0.35400 0.80990 0.05420 0.40700
C 	C 	0.32040 0.82840 0.09750 -0.11800
C 	C 	0.35050 0.86650 0.11420 0.06400
C 	C 	0.31700 0.88270 0.15380 -0.12800
C 	C 	0.25480 0.85920 0.17640 -0.01900
C 	C 	0.22350 0.82110 0.15890 0.03700
C 	C 	0.25670 0.80550 0.11960 -0.02800
C 	C 	0.35460 0.92360 0.17310 0.45300
C 	C 	0.15700 0.79700 0.18290 -0.12700
C 	C 	0.18160 0.76380 0.21120 0.08500
C 	C 	0.26880 0.75300 0.22050 -0.07600
C 	C 	0.07230 0.80680 0.17500 0.10400
C 	C 	0.04430 0.83870 0.14360 -0.14200
C 	C 	0.25910 0.93590 0.38070 -0.05900
C 	C 	0.32420 0.91550 0.35960 -0.06800
C 	C 	0.35980 0.93410 0.31650 0.33900
C 	C 	0.35400 0.05420 0.19010 0.40700
C 	C 	0.32040 0.09750 0.17160 -0.11900
C 	C 	0.35050 0.11420 0.13350 0.06400
C 	C 	0.31700 0.15380 0.11730 -0.12900
C 	C 	0.25480 0.17640 0.14080 -0.01900
C 	C 	0.22350 0.15890 0.17890 0.03700
C 	C 	0.25670 0.11960 0.19450 -0.02800
C 	C 	0.35460 0.17310 0.07640 0.45300
C 	C 	0.15700 0.18290 0.20300 -0.12700
C 	C 	0.18160 0.21120 0.23620 0.08500
C 	C 	0.26880 0.22050 0.24700 -0.07600
C 	C 	0.07230 0.17500 0.19320 0.10400
C 	C 	0.04430 0.14360 0.16130 -0.14300
C 	C 	0.25910 0.06410 0.61930 -0.05900
C 	C 	0.32420 0.08450 0.64040 -0.06900
C 	C 	0.35980 0.06590 0.68350 0.34000
C 	C 	0.35400 0.94580 0.80990 0.40600
C 	C 	0.32040 0.90250 0.82840 -0.11600
C 	C 	0.35050 0.88580 0.86650 0.06300
C 	C 	0.31700 0.84620 0.88270 -0.12700
C 	C 	0.25480 0.82360 0.85920 -0.02000
C 	C 	0.22350 0.84110 0.82110 0.03800
C 	C 	0.25670 0.88040 0.80550 -0.02900
C 	C 	0.35460 0.82690 0.92360 0.45200
C 	C 	0.15700 0.81710 0.79700 -0.12700
C 	C 	0.18160 0.78880 0.76380 0.08600
C 	C 	0.26880 0.77950 0.75300 -0.07600
C 	C 	0.07230 0.82500 0.80680 0.10400
C 	C 	0.04430 0.85640 0.83870 -0.14100
C 	C 	0.74090 0.11930 0.56410 -0.05800
C 	C 	0.67580 0.14040 0.58450 -0.06600
C 	C 	0.64020 0.18350 0.56590 0.34000
C 	C 	0.64600 0.30990 0.44580 0.40700
C 	C 	0.67960 0.32840 0.40250 -0.11400
C 	C 	0.64950 0.36650 0.38580 0.06300
C 	C 	0.68300 0.38270 0.34620 -0.12400
C 	C 	0.74520 0.35920 0.32360 -0.01800
C 	C 	0.77650 0.32110 0.34110 0.03800
C 	C 	0.74330 0.30550 0.38040 -0.02700
C 	C 	0.64540 0.42360 0.32690 0.45300
C 	C 	0.84300 0.29700 0.31710 -0.11700
C 	C 	0.81840 0.26380 0.28880 0.09000
C 	C 	0.73120 0.25300 0.27950 -0.07500
C 	C 	0.92770 0.30680 0.32500 0.10300
C 	C 	0.95570 0.33870 0.35640 -0.01600
C 	C 	0.74090 0.88070 0.43590 -0.05800
C 	C 	0.67580 0.85960 0.41550 -0.06500
C 	C 	0.64020 0.81650 0.43410 0.34000
C 	C 	0.64600 0.69010 0.55420 0.40700
C 	C 	0.67960 0.67160 0.59750 -0.11400
C 	C 	0.64950 0.63350 0.61420 0.06300
C 	C 	0.68300 0.61730 0.65380 -0.12400
C 	C 	0.74520 0.64080 0.67640 -0.01800
C 	C 	0.77650 0.67890 0.65890 0.03800
C 	C 	0.74330 0.69450 0.61960 -0.02700
C 	C 	0.64540 0.57640 0.67310 0.45300
C 	C 	0.84300 0.70300 0.68290 -0.11700
C 	C 	0.81840 0.73620 0.71120 0.09000
C 	C 	0.73120 0.74700 0.72050 -0.07500
C 	C 	0.92770 0.69320 0.67500 0.10200
C 	C 	0.95570 0.66130 0.64360 -0.01700
C 	C 	0.74090 0.56410 0.88070 -0.05800
C 	C 	0.67580 0.58450 0.85960 -0.06500
C 	C 	0.64020 0.56590 0.81650 0.34000
C 	C 	0.64600 0.44580 0.69010 0.40700
C 	C 	0.67960 0.40250 0.67160 -0.11400
C 	C 	0.64950 0.38580 0.63350 0.06300
C 	C 	0.68300 0.34620 0.61730 -0.12400
C 	C 	0.74520 0.32360 0.64080 -0.01800
C 	C 	0.77650 0.34110 0.67890 0.03800
C 	C 	0.74330 0.38040 0.69450 -0.02700
C 	C 	0.64540 0.32690 0.57640 0.45300
C 	C 	0.84300 0.31710 0.70300 -0.11700
C 	C 	0.81840 0.28880 0.73620 0.09000
C 	C 	0.73120 0.27950 0.74700 -0.07500
C 	C 	0.92770 0.32500 0.69320 0.10200
C 	C 	0.95570 0.35640 0.66130 -0.01700
C 	C 	0.74090 0.43590 0.11930 -0.05800
C 	C 	0.67580 0.41550 0.14040 -0.06600
C 	C 	0.64020 0.43410 0.18350 0.34000
C 	C 	0.64600 0.55420 0.30990 0.40700
C 	C 	0.67960 0.59750 0.32840 -0.11400
C 	C 	0.64950 0.61420 0.36650 0.06300
C 	C 	0.68300 0.65380 0.38270 -0.12400
C 	C 	0.74520 0.67640 0.35920 -0.01800
C 	C 	0.77650 0.65890 0.32110 0.03800
C 	C 	0.74330 0.61960 0.30550 -0.02700
C 	C 	0.64540 0.67310 0.42360 0.45300
C 	C 	0.84300 0.68290 0.29700 -0.11700
C 	C 	0.81840 0.71120 0.26380 0.09000
C 	C 	0.73120 0.72050 0.25300 -0.07500
C 	C 	0.92770 0.67500 0.30680 0.10200
C 	C 	0.95570 0.64360 0.33870 -0.01700
C 	C 	0.95670 0.59800 0.90200 -0.00900
C 	C 	0.92860 0.56610 0.93390 0.09000
C 	C 	0.84290 0.55730 0.94270 -0.10900
C 	C 	0.81670 0.52580 0.97420 0.08100
C 	C 	0.72630 0.51600 0.98400 -0.06500
C 	C 	0.77710 0.58210 0.91790 0.05700
C 	C 	0.64190 0.62240 0.87760 0.00300
C 	C 	0.95670 0.40200 0.09800 -0.00800
C 	C 	0.92860 0.43390 0.06610 0.09000
C 	C 	0.84290 0.44270 0.05730 -0.11000
C 	C 	0.81670 0.47420 0.02580 0.08100
C 	C 	0.72630 0.48400 0.01600 -0.08000
C 	C 	0.77710 0.41790 0.08210 0.05600
C 	C 	0.64190 0.37760 0.12240 0.00300
C 	C 	0.95670 0.09800 0.59800 -0.00800
C 	C 	0.92860 0.06610 0.56610 0.09000
C 	C 	0.84290 0.05730 0.55730 -0.11000
C 	C 	0.81670 0.02580 0.52580 0.08100
C 	C 	0.72630 0.01600 0.51600 -0.08000
C 	C 	0.77710 0.08210 0.58210 0.05600
C 	C 	0.64190 0.12240 0.62240 0.00300
C 	C 	0.95670 0.90200 0.40200 -0.00900
C 	C 	0.92860 0.93390 0.43390 0.09000
C 	C 	0.84290 0.94270 0.44270 -0.10900
C 	C 	0.81670 0.97420 0.47420 0.08100
C 	C 	0.72630 0.98400 0.48400 -0.06500
C 	C 	0.77710 0.91790 0.41790 0.05700
C 	C 	0.64190 0.87760 0.37760 0.00300
C 	C 	0.04330 0.90200 0.40200 -0.14500
C 	C 	0.07140 0.93390 0.43390 0.09400
C 	C 	0.15710 0.94270 0.44270 -0.12000
C 	C 	0.18330 0.97420 0.47420 0.07700
C 	C 	0.27370 0.98400 0.48400 -0.06600
C 	C 	0.22290 0.91790 0.41790 0.05700
C 	C 	0.35810 0.87760 0.37760 0.00300
C 	C 	0.04330 0.09800 0.59800 -0.14600
C 	C 	0.07140 0.06610 0.56610 0.09300
C 	C 	0.15710 0.05730 0.55730 -0.12100
C 	C 	0.18330 0.02580 0.52580 0.07700
C 	C 	0.27370 0.01600 0.51600 -0.08200
C 	C 	0.22290 0.08210 0.58210 0.05600
C 	C 	0.35810 0.12240 0.62240 0.00400
C 	C 	0.04330 0.40200 0.09800 -0.14600
C 	C 	0.07140 0.43390 0.06610 0.09300
C 	C 	0.15710 0.44270 0.05730 -0.12100
C 	C 	0.18330 0.47420 0.02580 0.07700
C 	C 	0.27370 0.48400 0.01600 -0.08200
C 	C 	0.22290 0.41790 0.08210 0.05600
C 	C 	0.35810 0.37760 0.12240 0.00400
C 	C 	0.04330 0.59800 0.90200 -0.14400
C 	C 	0.07140 0.56610 0.93390 0.09400
C 	C 	0.15710 0.55730 0.94270 -0.12000
C 	C 	0.18330 0.52580 0.97420 0.07700
C 	C 	0.27370 0.51600 0.98400 -0.06600
C 	C 	0.22290 0.58210 0.91790 0.05700
C 	C 	0.35810 0.62240 0.87760 0.00300
N 	N 	0.87690 0.50000 -0.00000 -0.27500
N 	N 	0.87690 0.00000 0.50000 -0.27500
N 	N 	0.12310 0.00000 0.50000 -0.28800
N 	N 	0.12310 0.50000 -0.00000 -0.28800
N 	N 	-0.00000 0.54480 0.95520 -0.30200
N 	N 	-0.00000 0.45520 0.04480 -0.30400
N 	N 	-0.00000 0.04480 0.54480 -0.30400
N 	N 	0.00000 0.95520 0.45520 -0.30200
N 	N 	0.87410 0.73900 0.23900 -0.27300
N 	N 	0.87410 0.26100 0.76100 -0.27300
N 	N 	0.87410 0.76100 0.73900 -0.27300
N 	N 	0.87410 0.23900 0.26100 -0.27300
N 	N 	0.12590 0.76100 0.73900 -0.28500
N 	N 	0.12590 0.23900 0.26100 -0.28500
N 	N 	0.12590 0.73900 0.23900 -0.28500
N 	N 	0.12590 0.26100 0.76100 -0.28500
N 	N 	-0.00000 0.78750 0.19360 -0.29800
N 	N 	0.00000 0.21250 0.80640 -0.29800
N 	N 	-0.00000 0.80640 0.78750 -0.29800
N 	N 	0.00000 0.19360 0.21250 -0.29800
N 	N 	0.00000 0.71250 0.69360 -0.29800
N 	N 	0.00000 0.28750 0.30640 -0.29800
N 	N 	-0.00000 0.69360 0.28750 -0.29800
N 	N 	0.00000 0.30640 0.71250 -0.29800
O 	O 	0.66710 0.69770 0.97210 -0.44800
O 	O 	0.58830 0.70730 0.91760 -0.31700
O 	O 	0.66430 0.77410 0.03860 -0.49300
O 	O 	0.59550 0.83760 0.03500 -0.46400
O 	O 	0.58980 0.94170 0.15150 -0.47000
O 	O 	0.67120 0.93650 0.20950 -0.46400
O 	O 	0.66710 0.30230 0.02790 -0.45000
O 	O 	0.58830 0.29270 0.08240 -0.31800
O 	O 	0.66430 0.22590 0.96140 -0.48800
O 	O 	0.59550 0.16240 0.96500 -0.46100
O 	O 	0.58980 0.05830 0.84850 -0.47100
O 	O 	0.67120 0.06350 0.79050 -0.46500
O 	O 	0.66710 0.02790 0.69770 -0.45000
O 	O 	0.58830 0.08240 0.70730 -0.31800
O 	O 	0.66430 0.96140 0.77410 -0.48800
O 	O 	0.59550 0.96500 0.83760 -0.46000
O 	O 	0.58980 0.84850 0.94170 -0.47000
O 	O 	0.67120 0.79050 0.93650 -0.46400
O 	O 	0.66710 0.97210 0.30230 -0.44800
O 	O 	0.58830 0.91760 0.29270 -0.31700
O 	O 	0.66430 0.03860 0.22590 -0.49300
O 	O 	0.59550 0.03500 0.16240 -0.46500
O 	O 	0.58980 0.15150 0.05830 -0.47200
O 	O 	0.67120 0.20950 0.06350 -0.46600
O 	O 	0.33290 0.80230 0.47210 -0.45300
O 	O 	0.41170 0.79270 0.41760 -0.31800
O 	O 	0.33570 0.72590 0.53860 -0.49500
O 	O 	0.40450 0.66240 0.53500 -0.46400
O 	O 	0.41020 0.55830 0.65150 -0.47200
O 	O 	0.32880 0.56350 0.70950 -0.46900
O 	O 	0.33290 0.19770 0.52790 -0.45300
O 	O 	0.41170 0.20730 0.58240 -0.31800
O 	O 	0.33570 0.27410 0.46140 -0.49500
O 	O 	0.40450 0.33760 0.46500 -0.46400
O 	O 	0.41020 0.44170 0.34850 -0.47200
O 	O 	0.32880 0.43650 0.29050 -0.46900
O 	O 	0.33290 0.47210 0.19770 -0.45300
O 	O 	0.41170 0.41760 0.20730 -0.31800
O 	O 	0.33570 0.53860 0.27410 -0.49500
O 	O 	0.40450 0.53500 0.33760 -0.46400
O 	O 	0.41020 0.65150 0.44170 -0.47200
O 	O 	0.32880 0.70950 0.43650 -0.46900
O 	O 	0.33290 0.52790 0.80230 -0.45300
O 	O 	0.41170 0.58240 0.79270 -0.31800
O 	O 	0.33570 0.46140 0.72590 -0.49500
O 	O 	0.40450 0.46500 0.66240 -0.46400
O 	O 	0.41020 0.34850 0.55830 -0.47200
O 	O 	0.32880 0.29050 0.56350 -0.46900
O 	O 	0.33290 0.30230 0.02790 -0.45400
O 	O 	0.41170 0.29270 0.08240 -0.31800
O 	O 	0.33570 0.22590 0.96140 -0.49200
O 	O 	0.40450 0.16240 0.96500 -0.46200
O 	O 	0.41020 0.05830 0.84850 -0.47300
O 	O 	0.32880 0.06350 0.79050 -0.46900
O 	O 	0.33290 0.69770 0.97210 -0.45100
O 	O 	0.41170 0.70730 0.91760 -0.31800
O 	O 	0.33570 0.77410 0.03860 -0.49700
O 	O 	0.40450 0.83760 0.03500 -0.46600
O 	O 	0.41020 0.94170 0.15150 -0.47200
O 	O 	0.32880 0.93650 0.20950 -0.46800
O 	O 	0.33290 0.97210 0.30230 -0.45100
O 	O 	0.41170 0.91760 0.29270 -0.31800
O 	O 	0.33570 0.03860 0.22590 -0.49700
O 	O 	0.40450 0.03500 0.16240 -0.46700
O 	O 	0.41020 0.15150 0.05830 -0.47400
O 	O 	0.32880 0.20950 0.06350 -0.47000
O 	O 	0.33290 0.02790 0.69770 -0.45400
O 	O 	0.41170 0.08240 0.70730 -0.31800
O 	O 	0.33570 0.96140 0.77410 -0.49200
O 	O 	0.40450 0.96500 0.83760 -0.46200
O 	O 	0.41020 0.84850 0.94170 -0.47100
O 	O 	0.32880 0.79050 0.93650 -0.46800
O 	O 	0.66710 0.19770 0.52790 -0.44900
O 	O 	0.58830 0.20730 0.58240 -0.31800
O 	O 	0.66430 0.27410 0.46140 -0.49100
O 	O 	0.59550 0.33760 0.46500 -0.46300
O 	O 	0.58980 0.44170 0.34850 -0.47100
O 	O 	0.67120 0.43650 0.29050 -0.46500
O 	O 	0.66710 0.80230 0.47210 -0.44900
O 	O 	0.58830 0.79270 0.41760 -0.31700
O 	O 	0.66430 0.72590 0.53860 -0.49100
O 	O 	0.59550 0.66240 0.53500 -0.46300
O 	O 	0.58980 0.55830 0.65150 -0.47100
O 	O 	0.67120 0.56350 0.70950 -0.46500
O 	O 	0.66710 0.52790 0.80230 -0.44900
O 	O 	0.58830 0.58240 0.79270 -0.31700
O 	O 	0.66430 0.46140 0.72590 -0.49100
O 	O 	0.59550 0.46500 0.66240 -0.46300
O 	O 	0.58980 0.34850 0.55830 -0.47100
O 	O 	0.67120 0.29050 0.56350 -0.46500
O 	O 	0.66710 0.47210 0.19770 -0.44900
O 	O 	0.58830 0.41760 0.20730 -0.31800
O 	O 	0.66430 0.53860 0.27410 -0.49100
O 	O 	0.59550 0.53500 0.33760 -0.46300
O 	O 	0.58980 0.65150 0.44170 -0.47100
O 	O 	0.67120 0.70950 0.43650 -0.46500
O 	O 	0.50000 0.77060 0.97930 -0.61400
O 	O 	0.50000 0.22940 0.02070 -0.61600
O 	O 	0.50000 0.02070 0.77060 -0.61600
O 	O 	0.50000 0.97930 0.22940 -0.61400
O 	O 	0.50000 0.72940 0.47930 -0.61500
O 	O 	0.50000 0.27060 0.52070 -0.61500
O 	O 	0.50000 0.47930 0.27060 -0.61500
O 	O 	0.50000 0.52070 0.72940 -0.61500
