data_crystal

_cell_length_a 24.39840
_cell_length_b 24.39840
_cell_length_c 24.39840
_cell_angle_alpha 90.00000
_cell_angle_beta  90.00000
_cell_angle_gamma 90.00000

_symmetry_space_group_name_	'P 1'
_symmetry_space_group_name_H-M	'P 1'

loop_
_symmetry_equiv_pos_as_xyz
  x,y,z

loop_
_atom_site_label
_atom_site_type_symbol
_atom_site_fract_x
_atom_site_fract_y
_atom_site_fract_z
_atom_site_charge
Cu	Cu	0.78169 0.10923 0.06471 0.93400
Cu	Cu	0.00803 0.15265 0.80254 0.93500
O 	O 	0.80422 0.10490 0.98774 -0.43500
O 	O 	0.72640 0.06270 0.97130 -0.24700
O 	O 	0.93839 0.13081 0.83571 -0.44000
O 	O 	0.73521 0.02660 0.71563 -0.39200
O 	O 	0.91760 0.10100 0.75290 -0.33400
O 	O 	0.66735 0.04946 0.77287 -0.38500
O 	O 	0.81379 0.04013 0.08234 -0.63200
H 	H 	0.82900 0.02170 0.05730 0.29100
N 	N 	0.77910 0.07940 0.17890 -0.18400
N 	N 	0.77050 0.12110 0.14310 -0.18500
C 	C 	0.78490 0.08030 0.89560 -0.11200
C 	C 	0.77000 0.08230 0.95590 0.34400
C 	C 	0.85020 0.09200 0.82260 -0.12800
C 	C 	0.83710 0.09530 0.87770 0.06000
H 	H 	0.86300 0.10760 0.90270 0.01800
C 	C 	0.74590 0.06300 0.85770 0.05400
H 	H 	0.71090 0.05350 0.86940 0.05700
C 	C 	0.75910 0.05990 0.80250 -0.11500
C 	C 	0.71740 0.04370 0.76060 0.36100
C 	C 	0.81120 0.07370 0.78530 0.06300
H 	H 	0.82020 0.07080 0.74830 0.04300
C 	C 	0.90560 0.10880 0.80210 0.36400
C 	C 	0.76100 0.16610 0.17270 0.09300
H 	H 	0.75300 0.20040 0.15800 0.00400
C 	C 	0.77570 0.10030 0.22990 0.09400
H 	H 	0.78030 0.08020 0.26190 0.01300
C 	C 	0.76450 0.15490 0.22800 -0.14300
H 	H 	0.76030 0.17910 0.25720 0.08700
Na	Na	0.92440 0.07720 0.66160 0.59300
O 	O 	0.84350 0.01320 0.65240 -0.20100
O 	O 	0.94490 0.98910 0.70200 -0.13400
O 	O 	0.01790 0.06270 0.67360 -0.15300
Cu	Cu	0.71831 0.89077 0.56471 0.93300
Cu	Cu	0.49197 0.84735 0.30254 0.93400
O 	O 	0.69578 0.89510 0.48774 -0.43600
O 	O 	0.77360 0.93730 0.47130 -0.24800
O 	O 	0.56161 0.86919 0.33571 -0.44100
O 	O 	0.76479 0.97340 0.21563 -0.39300
O 	O 	0.58240 0.89900 0.25290 -0.33400
O 	O 	0.83265 0.95054 0.27287 -0.38500
O 	O 	0.68621 0.95987 0.58234 -0.63200
H 	H 	0.67100 0.97830 0.55730 0.29100
N 	N 	0.72090 0.92060 0.67890 -0.18400
N 	N 	0.72950 0.87890 0.64310 -0.18500
C 	C 	0.71510 0.91970 0.39560 -0.11200
C 	C 	0.73000 0.91770 0.45590 0.34400
C 	C 	0.64980 0.90800 0.32260 -0.12800
C 	C 	0.66290 0.90470 0.37770 0.06000
H 	H 	0.63700 0.89240 0.40270 0.01900
C 	C 	0.75410 0.93700 0.35770 0.05400
H 	H 	0.78910 0.94650 0.36940 0.05700
C 	C 	0.74090 0.94010 0.30250 -0.11500
C 	C 	0.78260 0.95630 0.26060 0.36100
C 	C 	0.68880 0.92630 0.28530 0.06300
H 	H 	0.67980 0.92920 0.24830 0.04300
C 	C 	0.59440 0.89120 0.30210 0.36400
C 	C 	0.73900 0.83390 0.67270 0.09300
H 	H 	0.74700 0.79960 0.65800 0.00400
C 	C 	0.72430 0.89970 0.72990 0.09400
H 	H 	0.71970 0.91980 0.76190 0.01300
C 	C 	0.73550 0.84510 0.72800 -0.14300
H 	H 	0.73970 0.82090 0.75720 0.08700
Na	Na	0.57560 0.92280 0.16160 0.59300
O 	O 	0.65650 0.98680 0.15240 -0.20100
O 	O 	0.55510 0.01090 0.20200 -0.13400
O 	O 	0.48210 0.93730 0.17360 -0.15300
Cu	Cu	0.21831 0.60923 0.43529 0.93300
Cu	Cu	0.99197 0.65265 0.69746 0.93400
O 	O 	0.19578 0.60490 0.51226 -0.43600
O 	O 	0.27360 0.56270 0.52870 -0.24800
O 	O 	0.06161 0.63081 0.66429 -0.44100
O 	O 	0.26479 0.52660 0.78437 -0.39300
O 	O 	0.08240 0.60100 0.74710 -0.33400
O 	O 	0.33265 0.54946 0.72713 -0.38500
O 	O 	0.18621 0.54013 0.41766 -0.63200
H 	H 	0.17100 0.52170 0.44270 0.29100
N 	N 	0.22090 0.57940 0.32110 -0.18400
N 	N 	0.22950 0.62110 0.35690 -0.18500
C 	C 	0.21510 0.58030 0.60440 -0.11200
C 	C 	0.23000 0.58230 0.54410 0.34400
C 	C 	0.14980 0.59200 0.67740 -0.12800
C 	C 	0.16290 0.59530 0.62230 0.06000
H 	H 	0.13700 0.60760 0.59730 0.01900
C 	C 	0.25410 0.56300 0.64230 0.05400
H 	H 	0.28910 0.55350 0.63060 0.05700
C 	C 	0.24090 0.55990 0.69750 -0.11500
C 	C 	0.28260 0.54370 0.73940 0.36100
C 	C 	0.18880 0.57370 0.71470 0.06300
H 	H 	0.17980 0.57080 0.75170 0.04300
C 	C 	0.09440 0.60880 0.69790 0.36400
C 	C 	0.23900 0.66610 0.32730 0.09300
H 	H 	0.24700 0.70040 0.34200 0.00400
C 	C 	0.22430 0.60030 0.27010 0.09400
H 	H 	0.21970 0.58020 0.23810 0.01300
C 	C 	0.23550 0.65490 0.27200 -0.14300
H 	H 	0.23970 0.67910 0.24280 0.08700
Na	Na	0.07560 0.57720 0.83840 0.59300
O 	O 	0.15650 0.51320 0.84760 -0.20100
O 	O 	0.05510 0.48910 0.79800 -0.13400
O 	O 	0.98210 0.56270 0.82640 -0.15300
Cu	Cu	0.28169 0.39077 0.93529 0.93300
Cu	Cu	0.50803 0.34735 0.19746 0.93400
O 	O 	0.30422 0.39510 0.01226 -0.43600
O 	O 	0.22640 0.43730 0.02870 -0.24800
O 	O 	0.43839 0.36919 0.16429 -0.44100
O 	O 	0.23521 0.47340 0.28437 -0.39300
O 	O 	0.41760 0.39900 0.24710 -0.33400
O 	O 	0.16735 0.45054 0.22713 -0.38500
O 	O 	0.31379 0.45987 0.91766 -0.63200
H 	H 	0.32900 0.47830 0.94270 0.29100
N 	N 	0.27910 0.42060 0.82110 -0.18400
N 	N 	0.27050 0.37890 0.85690 -0.18500
C 	C 	0.28490 0.41970 0.10440 -0.11200
C 	C 	0.27000 0.41770 0.04410 0.34400
C 	C 	0.35020 0.40800 0.17740 -0.12800
C 	C 	0.33710 0.40470 0.12230 0.06000
H 	H 	0.36300 0.39240 0.09730 0.01900
C 	C 	0.24590 0.43700 0.14230 0.05400
H 	H 	0.21090 0.44650 0.13060 0.05700
C 	C 	0.25910 0.44010 0.19750 -0.11500
C 	C 	0.21740 0.45630 0.23940 0.36100
C 	C 	0.31120 0.42630 0.21470 0.06300
H 	H 	0.32020 0.42920 0.25170 0.04300
C 	C 	0.40560 0.39120 0.19790 0.36400
C 	C 	0.26100 0.33390 0.82730 0.09300
H 	H 	0.25300 0.29960 0.84200 0.00400
C 	C 	0.27570 0.39970 0.77010 0.09400
H 	H 	0.28030 0.41980 0.73810 0.01300
C 	C 	0.26450 0.34510 0.77200 -0.14300
H 	H 	0.26030 0.32090 0.74280 0.08700
Na	Na	0.42440 0.42280 0.33840 0.59300
O 	O 	0.34350 0.48680 0.34760 -0.20100
O 	O 	0.44490 0.51090 0.29800 -0.13400
O 	O 	0.51790 0.43730 0.32640 -0.15300
Cu	Cu	0.06471 0.78169 0.10923 0.93300
Cu	Cu	0.80254 0.00803 0.15265 0.93400
O 	O 	0.98774 0.80422 0.10490 -0.43600
O 	O 	0.97130 0.72640 0.06270 -0.24800
O 	O 	0.83571 0.93839 0.13081 -0.44100
O 	O 	0.71563 0.73521 0.02660 -0.39300
O 	O 	0.75290 0.91760 0.10100 -0.33400
O 	O 	0.77287 0.66735 0.04946 -0.38500
O 	O 	0.08234 0.81379 0.04013 -0.63200
H 	H 	0.05730 0.82900 0.02170 0.29100
N 	N 	0.17890 0.77910 0.07940 -0.18400
N 	N 	0.14310 0.77050 0.12110 -0.18500
C 	C 	0.89560 0.78490 0.08030 -0.11200
C 	C 	0.95590 0.77000 0.08230 0.34400
C 	C 	0.82260 0.85020 0.09200 -0.12800
C 	C 	0.87770 0.83710 0.09530 0.06000
H 	H 	0.90270 0.86300 0.10760 0.01800
C 	C 	0.85770 0.74590 0.06300 0.05400
H 	H 	0.86940 0.71090 0.05350 0.05700
C 	C 	0.80250 0.75910 0.05990 -0.11500
C 	C 	0.76060 0.71740 0.04370 0.36100
C 	C 	0.78530 0.81120 0.07370 0.06300
H 	H 	0.74830 0.82020 0.07080 0.04300
C 	C 	0.80210 0.90560 0.10880 0.36400
C 	C 	0.17270 0.76100 0.16610 0.09300
H 	H 	0.15800 0.75300 0.20040 0.00400
C 	C 	0.22990 0.77570 0.10030 0.09400
H 	H 	0.26190 0.78030 0.08020 0.01300
C 	C 	0.22800 0.76450 0.15490 -0.14300
H 	H 	0.25720 0.76030 0.17910 0.08700
Na	Na	0.66160 0.92440 0.07720 0.59300
O 	O 	0.65240 0.84350 0.01320 -0.20100
O 	O 	0.70200 0.94490 0.98910 -0.13400
O 	O 	0.67360 0.01790 0.06270 -0.15300
Cu	Cu	0.56471 0.71831 0.89077 0.93300
Cu	Cu	0.30254 0.49197 0.84735 0.93400
O 	O 	0.48774 0.69578 0.89510 -0.43600
O 	O 	0.47130 0.77360 0.93730 -0.24800
O 	O 	0.33571 0.56161 0.86919 -0.44100
O 	O 	0.21563 0.76479 0.97340 -0.39300
O 	O 	0.25290 0.58240 0.89900 -0.33400
O 	O 	0.27287 0.83265 0.95054 -0.38500
O 	O 	0.58234 0.68621 0.95987 -0.63200
H 	H 	0.55730 0.67100 0.97830 0.29100
N 	N 	0.67890 0.72090 0.92060 -0.18400
N 	N 	0.64310 0.72950 0.87890 -0.18500
C 	C 	0.39560 0.71510 0.91970 -0.11200
C 	C 	0.45590 0.73000 0.91770 0.34400
C 	C 	0.32260 0.64980 0.90800 -0.12800
C 	C 	0.37770 0.66290 0.90470 0.06000
H 	H 	0.40270 0.63700 0.89240 0.01900
C 	C 	0.35770 0.75410 0.93700 0.05400
H 	H 	0.36940 0.78910 0.94650 0.05700
C 	C 	0.30250 0.74090 0.94010 -0.11500
C 	C 	0.26060 0.78260 0.95630 0.36100
C 	C 	0.28530 0.68880 0.92630 0.06300
H 	H 	0.24830 0.67980 0.92920 0.04300
C 	C 	0.30210 0.59440 0.89120 0.36400
C 	C 	0.67270 0.73900 0.83390 0.09300
H 	H 	0.65800 0.74700 0.79960 0.00400
C 	C 	0.72990 0.72430 0.89970 0.09400
H 	H 	0.76190 0.71970 0.91980 0.01300
C 	C 	0.72800 0.73550 0.84510 -0.14300
H 	H 	0.75720 0.73970 0.82090 0.08700
Na	Na	0.16160 0.57560 0.92280 0.59300
O 	O 	0.15240 0.65650 0.98680 -0.20100
O 	O 	0.20200 0.55510 0.01090 -0.13400
O 	O 	0.17360 0.48210 0.93730 -0.15300
Cu	Cu	0.43529 0.21831 0.60923 0.93300
Cu	Cu	0.69746 0.99197 0.65265 0.93400
O 	O 	0.51226 0.19578 0.60490 -0.43600
O 	O 	0.52870 0.27360 0.56270 -0.24800
O 	O 	0.66429 0.06161 0.63081 -0.44100
O 	O 	0.78437 0.26479 0.52660 -0.39300
O 	O 	0.74710 0.08240 0.60100 -0.33400
O 	O 	0.72713 0.33265 0.54946 -0.38500
O 	O 	0.41766 0.18621 0.54013 -0.63200
H 	H 	0.44270 0.17100 0.52170 0.29100
N 	N 	0.32110 0.22090 0.57940 -0.18400
N 	N 	0.35690 0.22950 0.62110 -0.18500
C 	C 	0.60440 0.21510 0.58030 -0.11200
C 	C 	0.54410 0.23000 0.58230 0.34400
C 	C 	0.67740 0.14980 0.59200 -0.12800
C 	C 	0.62230 0.16290 0.59530 0.06000
H 	H 	0.59730 0.13700 0.60760 0.01900
C 	C 	0.64230 0.25410 0.56300 0.05400
H 	H 	0.63060 0.28910 0.55350 0.05700
C 	C 	0.69750 0.24090 0.55990 -0.11500
C 	C 	0.73940 0.28260 0.54370 0.36100
C 	C 	0.71470 0.18880 0.57370 0.06300
H 	H 	0.75170 0.17980 0.57080 0.04300
C 	C 	0.69790 0.09440 0.60880 0.36400
C 	C 	0.32730 0.23900 0.66610 0.09300
H 	H 	0.34200 0.24700 0.70040 0.00400
C 	C 	0.27010 0.22430 0.60030 0.09400
H 	H 	0.23810 0.21970 0.58020 0.01300
C 	C 	0.27200 0.23550 0.65490 -0.14300
H 	H 	0.24280 0.23970 0.67910 0.08700
Na	Na	0.83840 0.07560 0.57720 0.59300
O 	O 	0.84760 0.15650 0.51320 -0.20100
O 	O 	0.79800 0.05510 0.48910 -0.13400
O 	O 	0.82640 0.98210 0.56270 -0.15300
Cu	Cu	0.93529 0.28169 0.39077 0.93300
Cu	Cu	0.19746 0.50803 0.34735 0.93400
O 	O 	0.01226 0.30422 0.39510 -0.43600
O 	O 	0.02870 0.22640 0.43730 -0.24800
O 	O 	0.16429 0.43839 0.36919 -0.44100
O 	O 	0.28437 0.23521 0.47340 -0.39300
O 	O 	0.24710 0.41760 0.39900 -0.33400
O 	O 	0.22713 0.16735 0.45054 -0.38500
O 	O 	0.91766 0.31379 0.45987 -0.63200
H 	H 	0.94270 0.32900 0.47830 0.29100
N 	N 	0.82110 0.27910 0.42060 -0.18400
N 	N 	0.85690 0.27050 0.37890 -0.18500
C 	C 	0.10440 0.28490 0.41970 -0.11200
C 	C 	0.04410 0.27000 0.41770 0.34400
C 	C 	0.17740 0.35020 0.40800 -0.12800
C 	C 	0.12230 0.33710 0.40470 0.06000
H 	H 	0.09730 0.36300 0.39240 0.01900
C 	C 	0.14230 0.24590 0.43700 0.05400
H 	H 	0.13060 0.21090 0.44650 0.05700
C 	C 	0.19750 0.25910 0.44010 -0.11500
C 	C 	0.23940 0.21740 0.45630 0.36100
C 	C 	0.21470 0.31120 0.42630 0.06300
H 	H 	0.25170 0.32020 0.42920 0.04300
C 	C 	0.19790 0.40560 0.39120 0.36400
C 	C 	0.82730 0.26100 0.33390 0.09300
H 	H 	0.84200 0.25300 0.29960 0.00400
C 	C 	0.77010 0.27570 0.39970 0.09400
H 	H 	0.73810 0.28030 0.41980 0.01300
C 	C 	0.77200 0.26450 0.34510 -0.14300
H 	H 	0.74280 0.26030 0.32090 0.08700
Na	Na	0.33840 0.42440 0.42280 0.59300
O 	O 	0.34760 0.34350 0.48680 -0.20100
O 	O 	0.29800 0.44490 0.51090 -0.13400
O 	O 	0.32640 0.51790 0.43730 -0.15300
Cu	Cu	0.10923 0.06471 0.78169 0.93300
Cu	Cu	0.15265 0.80254 0.00803 0.93400
O 	O 	0.10490 0.98774 0.80422 -0.43600
O 	O 	0.06270 0.97130 0.72640 -0.24800
O 	O 	0.13081 0.83571 0.93839 -0.44100
O 	O 	0.02660 0.71563 0.73521 -0.39300
O 	O 	0.10100 0.75290 0.91760 -0.33400
O 	O 	0.04946 0.77287 0.66735 -0.38500
O 	O 	0.04013 0.08234 0.81379 -0.63200
H 	H 	0.02170 0.05730 0.82900 0.29100
N 	N 	0.07940 0.17890 0.77910 -0.18400
N 	N 	0.12110 0.14310 0.77050 -0.18500
C 	C 	0.08030 0.89560 0.78490 -0.11200
C 	C 	0.08230 0.95590 0.77000 0.34400
C 	C 	0.09200 0.82260 0.85020 -0.12800
C 	C 	0.09530 0.87770 0.83710 0.06000
H 	H 	0.10760 0.90270 0.86300 0.01800
C 	C 	0.06300 0.85770 0.74590 0.05400
H 	H 	0.05350 0.86940 0.71090 0.05700
C 	C 	0.05990 0.80250 0.75910 -0.11500
C 	C 	0.04370 0.76060 0.71740 0.36100
C 	C 	0.07370 0.78530 0.81120 0.06300
H 	H 	0.07080 0.74830 0.82020 0.04300
C 	C 	0.10880 0.80210 0.90560 0.36400
C 	C 	0.16610 0.17270 0.76100 0.09300
H 	H 	0.20040 0.15800 0.75300 0.00400
C 	C 	0.10030 0.22990 0.77570 0.09400
H 	H 	0.08020 0.26190 0.78030 0.01300
C 	C 	0.15490 0.22800 0.76450 -0.14300
H 	H 	0.17910 0.25720 0.76030 0.08700
Na	Na	0.07720 0.66160 0.92440 0.59300
O 	O 	0.01320 0.65240 0.84350 -0.20100
O 	O 	0.98910 0.70200 0.94490 -0.13400
O 	O 	0.06270 0.67360 0.01790 -0.15300
Cu	Cu	0.89077 0.56471 0.71831 0.93300
Cu	Cu	0.84735 0.30254 0.49197 0.93400
O 	O 	0.89510 0.48774 0.69578 -0.43600
O 	O 	0.93730 0.47130 0.77360 -0.24800
O 	O 	0.86919 0.33571 0.56161 -0.44100
O 	O 	0.97340 0.21563 0.76479 -0.39300
O 	O 	0.89900 0.25290 0.58240 -0.33400
O 	O 	0.95054 0.27287 0.83265 -0.38500
O 	O 	0.95987 0.58234 0.68621 -0.63200
H 	H 	0.97830 0.55730 0.67100 0.29100
N 	N 	0.92060 0.67890 0.72090 -0.18400
N 	N 	0.87890 0.64310 0.72950 -0.18500
C 	C 	0.91970 0.39560 0.71510 -0.11200
C 	C 	0.91770 0.45590 0.73000 0.34400
C 	C 	0.90800 0.32260 0.64980 -0.12800
C 	C 	0.90470 0.37770 0.66290 0.06000
H 	H 	0.89240 0.40270 0.63700 0.01900
C 	C 	0.93700 0.35770 0.75410 0.05400
H 	H 	0.94650 0.36940 0.78910 0.05700
C 	C 	0.94010 0.30250 0.74090 -0.11500
C 	C 	0.95630 0.26060 0.78260 0.36100
C 	C 	0.92630 0.28530 0.68880 0.06300
H 	H 	0.92920 0.24830 0.67980 0.04300
C 	C 	0.89120 0.30210 0.59440 0.36400
C 	C 	0.83390 0.67270 0.73900 0.09300
H 	H 	0.79960 0.65800 0.74700 0.00400
C 	C 	0.89970 0.72990 0.72430 0.09400
H 	H 	0.91980 0.76190 0.71970 0.01300
C 	C 	0.84510 0.72800 0.73550 -0.14300
H 	H 	0.82090 0.75720 0.73970 0.08700
Na	Na	0.92280 0.16160 0.57560 0.59300
O 	O 	0.98680 0.15240 0.65650 -0.20100
O 	O 	0.01090 0.20200 0.55510 -0.13400
O 	O 	0.93730 0.17360 0.48210 -0.15300
Cu	Cu	0.60923 0.43529 0.21831 0.93300
Cu	Cu	0.65265 0.69746 0.99197 0.93400
O 	O 	0.60490 0.51226 0.19578 -0.43600
O 	O 	0.56270 0.52870 0.27360 -0.24800
O 	O 	0.63081 0.66429 0.06161 -0.44100
O 	O 	0.52660 0.78437 0.26479 -0.39300
O 	O 	0.60100 0.74710 0.08240 -0.33400
O 	O 	0.54946 0.72713 0.33265 -0.38500
O 	O 	0.54013 0.41766 0.18621 -0.63200
H 	H 	0.52170 0.44270 0.17100 0.29100
N 	N 	0.57940 0.32110 0.22090 -0.18400
N 	N 	0.62110 0.35690 0.22950 -0.18500
C 	C 	0.58030 0.60440 0.21510 -0.11200
C 	C 	0.58230 0.54410 0.23000 0.34400
C 	C 	0.59200 0.67740 0.14980 -0.12800
C 	C 	0.59530 0.62230 0.16290 0.06000
H 	H 	0.60760 0.59730 0.13700 0.01900
C 	C 	0.56300 0.64230 0.25410 0.05400
H 	H 	0.55350 0.63060 0.28910 0.05700
C 	C 	0.55990 0.69750 0.24090 -0.11500
C 	C 	0.54370 0.73940 0.28260 0.36100
C 	C 	0.57370 0.71470 0.18880 0.06300
H 	H 	0.57080 0.75170 0.17980 0.04300
C 	C 	0.60880 0.69790 0.09440 0.36400
C 	C 	0.66610 0.32730 0.23900 0.09300
H 	H 	0.70040 0.34200 0.24700 0.00400
C 	C 	0.60030 0.27010 0.22430 0.09400
H 	H 	0.58020 0.23810 0.21970 0.01300
C 	C 	0.65490 0.27200 0.23550 -0.14300
H 	H 	0.67910 0.24280 0.23970 0.08700
Na	Na	0.57720 0.83840 0.07560 0.59300
O 	O 	0.51320 0.84760 0.15650 -0.20100
O 	O 	0.48910 0.79800 0.05510 -0.13400
O 	O 	0.56270 0.82640 0.98210 -0.15300
Cu	Cu	0.39077 0.93529 0.28169 0.93300
Cu	Cu	0.34735 0.19746 0.50803 0.93400
O 	O 	0.39510 0.01226 0.30422 -0.43600
O 	O 	0.43730 0.02870 0.22640 -0.24800
O 	O 	0.36919 0.16429 0.43839 -0.44100
O 	O 	0.47340 0.28437 0.23521 -0.39300
O 	O 	0.39900 0.24710 0.41760 -0.33400
O 	O 	0.45054 0.22713 0.16735 -0.38500
O 	O 	0.45987 0.91766 0.31379 -0.63200
H 	H 	0.47830 0.94270 0.32900 0.29100
N 	N 	0.42060 0.82110 0.27910 -0.18400
N 	N 	0.37890 0.85690 0.27050 -0.18500
C 	C 	0.41970 0.10440 0.28490 -0.11200
C 	C 	0.41770 0.04410 0.27000 0.34400
C 	C 	0.40800 0.17740 0.35020 -0.12800
C 	C 	0.40470 0.12230 0.33710 0.06000
H 	H 	0.39240 0.09730 0.36300 0.01900
C 	C 	0.43700 0.14230 0.24590 0.05400
H 	H 	0.44650 0.13060 0.21090 0.05700
C 	C 	0.44010 0.19750 0.25910 -0.11500
C 	C 	0.45630 0.23940 0.21740 0.36100
C 	C 	0.42630 0.21470 0.31120 0.06300
H 	H 	0.42920 0.25170 0.32020 0.04300
C 	C 	0.39120 0.19790 0.40560 0.36400
C 	C 	0.33390 0.82730 0.26100 0.09300
H 	H 	0.29960 0.84200 0.25300 0.00400
C 	C 	0.39970 0.77010 0.27570 0.09400
H 	H 	0.41980 0.73810 0.28030 0.01300
C 	C 	0.34510 0.77200 0.26450 -0.14300
H 	H 	0.32090 0.74280 0.26030 0.08700
Na	Na	0.42280 0.33840 0.42440 0.59300
O 	O 	0.48680 0.34760 0.34350 -0.20100
O 	O 	0.51090 0.29800 0.44490 -0.13400
O 	O 	0.43730 0.32640 0.51790 -0.15300
Cu	Cu	0.21831 0.89077 0.93529 0.93300
Cu	Cu	0.99197 0.84735 0.19746 0.93400
O 	O 	0.19578 0.89510 0.01226 -0.43600
O 	O 	0.27360 0.93730 0.02870 -0.24800
O 	O 	0.06161 0.86919 0.16429 -0.44100
O 	O 	0.26479 0.97340 0.28437 -0.39300
O 	O 	0.08240 0.89900 0.24710 -0.33400
O 	O 	0.33265 0.95054 0.22713 -0.38500
O 	O 	0.18621 0.95987 0.91766 -0.63200
H 	H 	0.17100 0.97830 0.94270 0.29100
N 	N 	0.22090 0.92060 0.82110 -0.18400
N 	N 	0.22950 0.87890 0.85690 -0.18500
C 	C 	0.21510 0.91970 0.10440 -0.11200
C 	C 	0.23000 0.91770 0.04410 0.34400
C 	C 	0.14980 0.90800 0.17740 -0.12800
C 	C 	0.16290 0.90470 0.12230 0.06000
H 	H 	0.13700 0.89240 0.09730 0.01800
C 	C 	0.25410 0.93700 0.14230 0.05400
H 	H 	0.28910 0.94650 0.13060 0.05700
C 	C 	0.24090 0.94010 0.19750 -0.11500
C 	C 	0.28260 0.95630 0.23940 0.36100
C 	C 	0.18880 0.92630 0.21470 0.06300
H 	H 	0.17980 0.92920 0.25170 0.04300
C 	C 	0.09440 0.89120 0.19790 0.36400
C 	C 	0.23900 0.83390 0.82730 0.09300
H 	H 	0.24700 0.79960 0.84200 0.00400
C 	C 	0.22430 0.89970 0.77010 0.09400
H 	H 	0.21970 0.91980 0.73810 0.01300
C 	C 	0.23550 0.84510 0.77200 -0.14300
H 	H 	0.23970 0.82090 0.74280 0.08700
Na	Na	0.07560 0.92280 0.33840 0.59300
O 	O 	0.15650 0.98680 0.34760 -0.20100
O 	O 	0.05510 0.01090 0.29800 -0.13400
O 	O 	0.98210 0.93730 0.32640 -0.15300
Cu	Cu	0.28169 0.10923 0.43529 0.93300
Cu	Cu	0.50803 0.15265 0.69746 0.93400
O 	O 	0.30422 0.10490 0.51226 -0.43600
O 	O 	0.22640 0.06270 0.52870 -0.24800
O 	O 	0.43839 0.13081 0.66429 -0.44100
O 	O 	0.23521 0.02660 0.78437 -0.39300
O 	O 	0.41760 0.10100 0.74710 -0.33400
O 	O 	0.16735 0.04946 0.72713 -0.38500
O 	O 	0.31379 0.04013 0.41766 -0.63200
H 	H 	0.32900 0.02170 0.44270 0.29100
N 	N 	0.27910 0.07940 0.32110 -0.18400
N 	N 	0.27050 0.12110 0.35690 -0.18500
C 	C 	0.28490 0.08030 0.60440 -0.11200
C 	C 	0.27000 0.08230 0.54410 0.34400
C 	C 	0.35020 0.09200 0.67740 -0.12800
C 	C 	0.33710 0.09530 0.62230 0.06000
H 	H 	0.36300 0.10760 0.59730 0.01900
C 	C 	0.24590 0.06300 0.64230 0.05400
H 	H 	0.21090 0.05350 0.63060 0.05700
C 	C 	0.25910 0.05990 0.69750 -0.11500
C 	C 	0.21740 0.04370 0.73940 0.36100
C 	C 	0.31120 0.07370 0.71470 0.06300
H 	H 	0.32020 0.07080 0.75170 0.04300
C 	C 	0.40560 0.10880 0.69790 0.36400
C 	C 	0.26100 0.16610 0.32730 0.09300
H 	H 	0.25300 0.20040 0.34200 0.00400
C 	C 	0.27570 0.10030 0.27010 0.09400
H 	H 	0.28030 0.08020 0.23810 0.01300
C 	C 	0.26450 0.15490 0.27200 -0.14300
H 	H 	0.26030 0.17910 0.24280 0.08700
Na	Na	0.42440 0.07720 0.83840 0.59300
O 	O 	0.34350 0.01320 0.84760 -0.20100
O 	O 	0.44490 0.98910 0.79800 -0.13400
O 	O 	0.51790 0.06270 0.82640 -0.15300
Cu	Cu	0.78169 0.39077 0.56471 0.93300
Cu	Cu	0.00803 0.34735 0.30254 0.93400
O 	O 	0.80422 0.39510 0.48774 -0.43600
O 	O 	0.72640 0.43730 0.47130 -0.24800
O 	O 	0.93839 0.36919 0.33571 -0.44100
O 	O 	0.73521 0.47340 0.21563 -0.39300
O 	O 	0.91760 0.39900 0.25290 -0.33400
O 	O 	0.66735 0.45054 0.27287 -0.38500
O 	O 	0.81379 0.45987 0.58234 -0.63200
H 	H 	0.82900 0.47830 0.55730 0.29100
N 	N 	0.77910 0.42060 0.67890 -0.18400
N 	N 	0.77050 0.37890 0.64310 -0.18500
C 	C 	0.78490 0.41970 0.39560 -0.11200
C 	C 	0.77000 0.41770 0.45590 0.34400
C 	C 	0.85020 0.40800 0.32260 -0.12800
C 	C 	0.83710 0.40470 0.37770 0.06000
H 	H 	0.86300 0.39240 0.40270 0.01900
C 	C 	0.74590 0.43700 0.35770 0.05400
H 	H 	0.71090 0.44650 0.36940 0.05700
C 	C 	0.75910 0.44010 0.30250 -0.11500
C 	C 	0.71740 0.45630 0.26060 0.36100
C 	C 	0.81120 0.42630 0.28530 0.06300
H 	H 	0.82020 0.42920 0.24830 0.04300
C 	C 	0.90560 0.39120 0.30210 0.36400
C 	C 	0.76100 0.33390 0.67270 0.09300
H 	H 	0.75300 0.29960 0.65800 0.00400
C 	C 	0.77570 0.39970 0.72990 0.09400
H 	H 	0.78030 0.41980 0.76190 0.01300
C 	C 	0.76450 0.34510 0.72800 -0.14300
H 	H 	0.76030 0.32090 0.75720 0.08700
Na	Na	0.92440 0.42280 0.16160 0.59300
O 	O 	0.84350 0.48680 0.15240 -0.20100
O 	O 	0.94490 0.51090 0.20200 -0.13400
O 	O 	0.01790 0.43730 0.17360 -0.15300
Cu	Cu	0.71831 0.60923 0.06471 0.93300
Cu	Cu	0.49197 0.65265 0.80254 0.93400
O 	O 	0.69578 0.60490 0.98774 -0.43600
O 	O 	0.77360 0.56270 0.97130 -0.24800
O 	O 	0.56161 0.63081 0.83571 -0.44100
O 	O 	0.76479 0.52660 0.71563 -0.39300
O 	O 	0.58240 0.60100 0.75290 -0.33400
O 	O 	0.83265 0.54946 0.77287 -0.38500
O 	O 	0.68621 0.54013 0.08234 -0.63200
H 	H 	0.67100 0.52170 0.05730 0.29100
N 	N 	0.72090 0.57940 0.17890 -0.18400
N 	N 	0.72950 0.62110 0.14310 -0.18500
C 	C 	0.71510 0.58030 0.89560 -0.11200
C 	C 	0.73000 0.58230 0.95590 0.34400
C 	C 	0.64980 0.59200 0.82260 -0.12800
C 	C 	0.66290 0.59530 0.87770 0.06000
H 	H 	0.63700 0.60760 0.90270 0.01900
C 	C 	0.75410 0.56300 0.85770 0.05400
H 	H 	0.78910 0.55350 0.86940 0.05700
C 	C 	0.74090 0.55990 0.80250 -0.11500
C 	C 	0.78260 0.54370 0.76060 0.36100
C 	C 	0.68880 0.57370 0.78530 0.06300
H 	H 	0.67980 0.57080 0.74830 0.04300
C 	C 	0.59440 0.60880 0.80210 0.36400
C 	C 	0.73900 0.66610 0.17270 0.09300
H 	H 	0.74700 0.70040 0.15800 0.00400
C 	C 	0.72430 0.60030 0.22990 0.09400
H 	H 	0.71970 0.58020 0.26190 0.01300
C 	C 	0.73550 0.65490 0.22800 -0.14300
H 	H 	0.73970 0.67910 0.25720 0.08700
Na	Na	0.57560 0.57720 0.66160 0.59300
O 	O 	0.65650 0.51320 0.65240 -0.20100
O 	O 	0.55510 0.48910 0.70200 -0.13400
O 	O 	0.48210 0.56270 0.67360 -0.15300
Cu	Cu	0.93529 0.21831 0.89077 0.93300
Cu	Cu	0.19746 0.99197 0.84735 0.93400
O 	O 	0.01226 0.19578 0.89510 -0.43600
O 	O 	0.02870 0.27360 0.93730 -0.24800
O 	O 	0.16429 0.06161 0.86919 -0.44100
O 	O 	0.28437 0.26479 0.97340 -0.39300
O 	O 	0.24710 0.08240 0.89900 -0.33400
O 	O 	0.22713 0.33265 0.95054 -0.38500
O 	O 	0.91766 0.18621 0.95987 -0.63200
H 	H 	0.94270 0.17100 0.97830 0.29100
N 	N 	0.82110 0.22090 0.92060 -0.18400
N 	N 	0.85690 0.22950 0.87890 -0.18500
C 	C 	0.10440 0.21510 0.91970 -0.11200
C 	C 	0.04410 0.23000 0.91770 0.34400
C 	C 	0.17740 0.14980 0.90800 -0.12800
C 	C 	0.12230 0.16290 0.90470 0.06000
H 	H 	0.09730 0.13700 0.89240 0.01800
C 	C 	0.14230 0.25410 0.93700 0.05400
H 	H 	0.13060 0.28910 0.94650 0.05700
C 	C 	0.19750 0.24090 0.94010 -0.11500
C 	C 	0.23940 0.28260 0.95630 0.36100
C 	C 	0.21470 0.18880 0.92630 0.06300
H 	H 	0.25170 0.17980 0.92920 0.04300
C 	C 	0.19790 0.09440 0.89120 0.36400
C 	C 	0.82730 0.23900 0.83390 0.09300
H 	H 	0.84200 0.24700 0.79960 0.00400
C 	C 	0.77010 0.22430 0.89970 0.09400
H 	H 	0.73810 0.21970 0.91980 0.01300
C 	C 	0.77200 0.23550 0.84510 -0.14300
H 	H 	0.74280 0.23970 0.82090 0.08700
Na	Na	0.33840 0.07560 0.92280 0.59300
O 	O 	0.34760 0.15650 0.98680 -0.20100
O 	O 	0.29800 0.05510 0.01090 -0.13400
O 	O 	0.32640 0.98210 0.93730 -0.15300
Cu	Cu	0.43529 0.28169 0.10923 0.93300
Cu	Cu	0.69746 0.50803 0.15265 0.93400
O 	O 	0.51226 0.30422 0.10490 -0.43600
O 	O 	0.52870 0.22640 0.06270 -0.24800
O 	O 	0.66429 0.43839 0.13081 -0.44100
O 	O 	0.78437 0.23521 0.02660 -0.39300
O 	O 	0.74710 0.41760 0.10100 -0.33400
O 	O 	0.72713 0.16735 0.04946 -0.38500
O 	O 	0.41766 0.31379 0.04013 -0.63200
H 	H 	0.44270 0.32900 0.02170 0.29100
N 	N 	0.32110 0.27910 0.07940 -0.18400
N 	N 	0.35690 0.27050 0.12110 -0.18500
C 	C 	0.60440 0.28490 0.08030 -0.11200
C 	C 	0.54410 0.27000 0.08230 0.34400
C 	C 	0.67740 0.35020 0.09200 -0.12800
C 	C 	0.62230 0.33710 0.09530 0.06000
H 	H 	0.59730 0.36300 0.10760 0.01900
C 	C 	0.64230 0.24590 0.06300 0.05400
H 	H 	0.63060 0.21090 0.05350 0.05700
C 	C 	0.69750 0.25910 0.05990 -0.11500
C 	C 	0.73940 0.21740 0.04370 0.36100
C 	C 	0.71470 0.31120 0.07370 0.06300
H 	H 	0.75170 0.32020 0.07080 0.04300
C 	C 	0.69790 0.40560 0.10880 0.36400
C 	C 	0.32730 0.26100 0.16610 0.09300
H 	H 	0.34200 0.25300 0.20040 0.00400
C 	C 	0.27010 0.27570 0.10030 0.09400
H 	H 	0.23810 0.28030 0.08020 0.01300
C 	C 	0.27200 0.26450 0.15490 -0.14300
H 	H 	0.24280 0.26030 0.17910 0.08700
Na	Na	0.83840 0.42440 0.07720 0.59300
O 	O 	0.84760 0.34350 0.01320 -0.20100
O 	O 	0.79800 0.44490 0.98910 -0.13400
O 	O 	0.82640 0.51790 0.06270 -0.15300
Cu	Cu	0.56471 0.78169 0.39077 0.93300
Cu	Cu	0.30254 0.00803 0.34735 0.93400
O 	O 	0.48774 0.80422 0.39510 -0.43600
O 	O 	0.47130 0.72640 0.43730 -0.24800
O 	O 	0.33571 0.93839 0.36919 -0.44100
O 	O 	0.21563 0.73521 0.47340 -0.39300
O 	O 	0.25290 0.91760 0.39900 -0.33400
O 	O 	0.27287 0.66735 0.45054 -0.38500
O 	O 	0.58234 0.81379 0.45987 -0.63200
H 	H 	0.55730 0.82900 0.47830 0.29100
N 	N 	0.67890 0.77910 0.42060 -0.18400
N 	N 	0.64310 0.77050 0.37890 -0.18500
C 	C 	0.39560 0.78490 0.41970 -0.11200
C 	C 	0.45590 0.77000 0.41770 0.34400
C 	C 	0.32260 0.85020 0.40800 -0.12800
C 	C 	0.37770 0.83710 0.40470 0.06000
H 	H 	0.40270 0.86300 0.39240 0.01900
C 	C 	0.35770 0.74590 0.43700 0.05400
H 	H 	0.36940 0.71090 0.44650 0.05700
C 	C 	0.30250 0.75910 0.44010 -0.11500
C 	C 	0.26060 0.71740 0.45630 0.36100
C 	C 	0.28530 0.81120 0.42630 0.06300
H 	H 	0.24830 0.82020 0.42920 0.04300
C 	C 	0.30210 0.90560 0.39120 0.36400
C 	C 	0.67270 0.76100 0.33390 0.09300
H 	H 	0.65800 0.75300 0.29960 0.00400
C 	C 	0.72990 0.77570 0.39970 0.09400
H 	H 	0.76190 0.78030 0.41980 0.01300
C 	C 	0.72800 0.76450 0.34510 -0.14300
H 	H 	0.75720 0.76030 0.32090 0.08700
Na	Na	0.16160 0.92440 0.42280 0.59300
O 	O 	0.15240 0.84350 0.48680 -0.20100
O 	O 	0.20200 0.94490 0.51090 -0.13400
O 	O 	0.17360 0.01790 0.43730 -0.15300
Cu	Cu	0.06471 0.71831 0.60923 0.93300
Cu	Cu	0.80254 0.49197 0.65265 0.93400
O 	O 	0.98774 0.69578 0.60490 -0.43600
O 	O 	0.97130 0.77360 0.56270 -0.24800
O 	O 	0.83571 0.56161 0.63081 -0.44100
O 	O 	0.71563 0.76479 0.52660 -0.39300
O 	O 	0.75290 0.58240 0.60100 -0.33400
O 	O 	0.77287 0.83265 0.54946 -0.38500
O 	O 	0.08234 0.68621 0.54013 -0.63200
H 	H 	0.05730 0.67100 0.52170 0.29100
N 	N 	0.17890 0.72090 0.57940 -0.18400
N 	N 	0.14310 0.72950 0.62110 -0.18500
C 	C 	0.89560 0.71510 0.58030 -0.11200
C 	C 	0.95590 0.73000 0.58230 0.34400
C 	C 	0.82260 0.64980 0.59200 -0.12800
C 	C 	0.87770 0.66290 0.59530 0.06000
H 	H 	0.90270 0.63700 0.60760 0.01900
C 	C 	0.85770 0.75410 0.56300 0.05400
H 	H 	0.86940 0.78910 0.55350 0.05700
C 	C 	0.80250 0.74090 0.55990 -0.11500
C 	C 	0.76060 0.78260 0.54370 0.36100
C 	C 	0.78530 0.68880 0.57370 0.06300
H 	H 	0.74830 0.67980 0.57080 0.04300
C 	C 	0.80210 0.59440 0.60880 0.36400
C 	C 	0.17270 0.73900 0.66610 0.09300
H 	H 	0.15800 0.74700 0.70040 0.00400
C 	C 	0.22990 0.72430 0.60030 0.09400
H 	H 	0.26190 0.71970 0.58020 0.01300
C 	C 	0.22800 0.73550 0.65490 -0.14300
H 	H 	0.25720 0.73970 0.67910 0.08700
Na	Na	0.66160 0.57560 0.57720 0.59300
O 	O 	0.65240 0.65650 0.51320 -0.20100
O 	O 	0.70200 0.55510 0.48910 -0.13400
O 	O 	0.67360 0.48210 0.56270 -0.15300
Cu	Cu	0.89077 0.93529 0.21831 0.93300
Cu	Cu	0.84735 0.19746 0.99197 0.93400
O 	O 	0.89510 0.01226 0.19578 -0.43600
O 	O 	0.93730 0.02870 0.27360 -0.24800
O 	O 	0.86919 0.16429 0.06161 -0.44100
O 	O 	0.97340 0.28437 0.26479 -0.39300
O 	O 	0.89900 0.24710 0.08240 -0.33400
O 	O 	0.95054 0.22713 0.33265 -0.38500
O 	O 	0.95987 0.91766 0.18621 -0.63200
H 	H 	0.97830 0.94270 0.17100 0.29100
N 	N 	0.92060 0.82110 0.22090 -0.18400
N 	N 	0.87890 0.85690 0.22950 -0.18500
C 	C 	0.91970 0.10440 0.21510 -0.11200
C 	C 	0.91770 0.04410 0.23000 0.34400
C 	C 	0.90800 0.17740 0.14980 -0.12800
C 	C 	0.90470 0.12230 0.16290 0.06000
H 	H 	0.89240 0.09730 0.13700 0.01800
C 	C 	0.93700 0.14230 0.25410 0.05400
H 	H 	0.94650 0.13060 0.28910 0.05700
C 	C 	0.94010 0.19750 0.24090 -0.11500
C 	C 	0.95630 0.23940 0.28260 0.36100
C 	C 	0.92630 0.21470 0.18880 0.06300
H 	H 	0.92920 0.25170 0.17980 0.04300
C 	C 	0.89120 0.19790 0.09440 0.36400
C 	C 	0.83390 0.82730 0.23900 0.09300
H 	H 	0.79960 0.84200 0.24700 0.00400
C 	C 	0.89970 0.77010 0.22430 0.09400
H 	H 	0.91980 0.73810 0.21970 0.01300
C 	C 	0.84510 0.77200 0.23550 -0.14300
H 	H 	0.82090 0.74280 0.23970 0.08700
Na	Na	0.92280 0.33840 0.07560 0.59300
O 	O 	0.98680 0.34760 0.15650 -0.20100
O 	O 	0.01090 0.29800 0.05510 -0.13400
O 	O 	0.93730 0.32640 0.98210 -0.15300
Cu	Cu	0.10923 0.43529 0.28169 0.93300
Cu	Cu	0.15265 0.69746 0.50803 0.93400
O 	O 	0.10490 0.51226 0.30422 -0.43600
O 	O 	0.06270 0.52870 0.22640 -0.24800
O 	O 	0.13081 0.66429 0.43839 -0.44100
O 	O 	0.02660 0.78437 0.23521 -0.39300
O 	O 	0.10100 0.74710 0.41760 -0.33400
O 	O 	0.04946 0.72713 0.16735 -0.38500
O 	O 	0.04013 0.41766 0.31379 -0.63200
H 	H 	0.02170 0.44270 0.32900 0.29100
N 	N 	0.07940 0.32110 0.27910 -0.18400
N 	N 	0.12110 0.35690 0.27050 -0.18500
C 	C 	0.08030 0.60440 0.28490 -0.11200
C 	C 	0.08230 0.54410 0.27000 0.34400
C 	C 	0.09200 0.67740 0.35020 -0.12800
C 	C 	0.09530 0.62230 0.33710 0.06000
H 	H 	0.10760 0.59730 0.36300 0.01900
C 	C 	0.06300 0.64230 0.24590 0.05400
H 	H 	0.05350 0.63060 0.21090 0.05700
C 	C 	0.05990 0.69750 0.25910 -0.11500
C 	C 	0.04370 0.73940 0.21740 0.36100
C 	C 	0.07370 0.71470 0.31120 0.06300
H 	H 	0.07080 0.75170 0.32020 0.04300
C 	C 	0.10880 0.69790 0.40560 0.36400
C 	C 	0.16610 0.32730 0.26100 0.09300
H 	H 	0.20040 0.34200 0.25300 0.00400
C 	C 	0.10030 0.27010 0.27570 0.09400
H 	H 	0.08020 0.23810 0.28030 0.01300
C 	C 	0.15490 0.27200 0.26450 -0.14300
H 	H 	0.17910 0.24280 0.26030 0.08700
Na	Na	0.07720 0.83840 0.42440 0.59300
O 	O 	0.01320 0.84760 0.34350 -0.20100
O 	O 	0.98910 0.79800 0.44490 -0.13400
O 	O 	0.06270 0.82640 0.51790 -0.15300
Cu	Cu	0.39077 0.56471 0.78169 0.93300
Cu	Cu	0.34735 0.30254 0.00803 0.93400
O 	O 	0.39510 0.48774 0.80422 -0.43600
O 	O 	0.43730 0.47130 0.72640 -0.24800
O 	O 	0.36919 0.33571 0.93839 -0.44100
O 	O 	0.47340 0.21563 0.73521 -0.39300
O 	O 	0.39900 0.25290 0.91760 -0.33400
O 	O 	0.45054 0.27287 0.66735 -0.38500
O 	O 	0.45987 0.58234 0.81379 -0.63200
H 	H 	0.47830 0.55730 0.82900 0.29100
N 	N 	0.42060 0.67890 0.77910 -0.18400
N 	N 	0.37890 0.64310 0.77050 -0.18500
C 	C 	0.41970 0.39560 0.78490 -0.11200
C 	C 	0.41770 0.45590 0.77000 0.34400
C 	C 	0.40800 0.32260 0.85020 -0.12800
C 	C 	0.40470 0.37770 0.83710 0.06000
H 	H 	0.39240 0.40270 0.86300 0.01900
C 	C 	0.43700 0.35770 0.74590 0.05400
H 	H 	0.44650 0.36940 0.71090 0.05700
C 	C 	0.44010 0.30250 0.75910 -0.11500
C 	C 	0.45630 0.26060 0.71740 0.36100
C 	C 	0.42630 0.28530 0.81120 0.06300
H 	H 	0.42920 0.24830 0.82020 0.04300
C 	C 	0.39120 0.30210 0.90560 0.36400
C 	C 	0.33390 0.67270 0.76100 0.09300
H 	H 	0.29960 0.65800 0.75300 0.00400
C 	C 	0.39970 0.72990 0.77570 0.09400
H 	H 	0.41980 0.76190 0.78030 0.01300
C 	C 	0.34510 0.72800 0.76450 -0.14300
H 	H 	0.32090 0.75720 0.76030 0.08700
Na	Na	0.42280 0.16160 0.92440 0.59300
O 	O 	0.48680 0.15240 0.84350 -0.20100
O 	O 	0.51090 0.20200 0.94490 -0.13400
O 	O 	0.43730 0.17360 0.01790 -0.15300
Cu	Cu	0.60923 0.06471 0.71831 0.93300
Cu	Cu	0.65265 0.80254 0.49197 0.93400
O 	O 	0.60490 0.98774 0.69578 -0.43600
O 	O 	0.56270 0.97130 0.77360 -0.24800
O 	O 	0.63081 0.83571 0.56161 -0.44100
O 	O 	0.52660 0.71563 0.76479 -0.39300
O 	O 	0.60100 0.75290 0.58240 -0.33400
O 	O 	0.54946 0.77287 0.83265 -0.38500
O 	O 	0.54013 0.08234 0.68621 -0.63200
H 	H 	0.52170 0.05730 0.67100 0.29100
N 	N 	0.57940 0.17890 0.72090 -0.18400
N 	N 	0.62110 0.14310 0.72950 -0.18500
C 	C 	0.58030 0.89560 0.71510 -0.11200
C 	C 	0.58230 0.95590 0.73000 0.34400
C 	C 	0.59200 0.82260 0.64980 -0.12800
C 	C 	0.59530 0.87770 0.66290 0.06000
H 	H 	0.60760 0.90270 0.63700 0.01900
C 	C 	0.56300 0.85770 0.75410 0.05400
H 	H 	0.55350 0.86940 0.78910 0.05700
C 	C 	0.55990 0.80250 0.74090 -0.11500
C 	C 	0.54370 0.76060 0.78260 0.36100
C 	C 	0.57370 0.78530 0.68880 0.06300
H 	H 	0.57080 0.74830 0.67980 0.04300
C 	C 	0.60880 0.80210 0.59440 0.36400
C 	C 	0.66610 0.17270 0.73900 0.09300
H 	H 	0.70040 0.15800 0.74700 0.00400
C 	C 	0.60030 0.22990 0.72430 0.09400
H 	H 	0.58020 0.26190 0.71970 0.01300
C 	C 	0.65490 0.22800 0.73550 -0.14300
H 	H 	0.67910 0.25720 0.73970 0.08700
Na	Na	0.57720 0.66160 0.57560 0.59300
O 	O 	0.51320 0.65240 0.65650 -0.20100
O 	O 	0.48910 0.70200 0.55510 -0.13400
O 	O 	0.56270 0.67360 0.48210 -0.15300
O 	O 	0.85710 0.14290 0.64290 -0.29500
O 	O 	0.93490 0.06510 0.56510 -0.25400
O 	O 	0.64290 0.85710 0.14290 -0.29500
O 	O 	0.56510 0.93490 0.06510 -0.25400
O 	O 	0.14290 0.64290 0.85710 -0.29500
O 	O 	0.06510 0.56510 0.93490 -0.25400
O 	O 	0.35710 0.35710 0.35710 -0.29500
O 	O 	0.43490 0.43490 0.43490 -0.25400
O 	O 	0.14290 0.85710 0.35710 -0.29500
O 	O 	0.06510 0.93490 0.43490 -0.25400
O 	O 	0.35710 0.14290 0.85710 -0.29500
O 	O 	0.43490 0.06510 0.93490 -0.25400
O 	O 	0.85710 0.35710 0.14290 -0.29500
O 	O 	0.93490 0.43490 0.06510 -0.25400
O 	O 	0.64290 0.64290 0.64290 -0.29500
O 	O 	0.56510 0.56510 0.56510 -0.25400
