data_crystal

_cell_length_a 30.23400
_cell_length_b 30.23400
_cell_length_c 30.23400
_cell_angle_alpha 90.00000
_cell_angle_beta  90.00000
_cell_angle_gamma 90.00000

_symmetry_space_group_name_	'P 1'
_symmetry_space_group_name_H-M	'P 1'

loop_
_symmetry_equiv_pos_as_xyz
  x,y,z

loop_
_atom_site_label
_atom_site_type_symbol
_atom_site_fract_x
_atom_site_fract_y
_atom_site_fract_z
_atom_site_charge
C 	C 	0.22435 0.27565 0.06910 -0.14200
H 	H 	0.20730 0.29270 0.08820 0.10500
C 	C 	0.22010 0.27990 0.01590 -0.00500
H 	H 	0.19000 0.31000 0.01590 0.02000
O 	O 	0.22210 0.27790 0.14780 -0.48400
C 	C 	0.22435 0.77565 0.56910 -0.14600
H 	H 	0.20730 0.79270 0.58820 0.10600
C 	C 	0.22010 0.77990 0.51590 -0.00200
H 	H 	0.19000 0.81000 0.51590 0.02000
O 	O 	0.22210 0.77790 0.64780 -0.48400
C 	C 	0.77565 0.72435 0.06910 -0.14200
H 	H 	0.79270 0.70730 0.08820 0.10500
C 	C 	0.77990 0.72010 0.01590 -0.00500
H 	H 	0.81000 0.69000 0.01590 0.02000
O 	O 	0.77790 0.72210 0.14780 -0.48400
C 	C 	0.77565 0.22435 0.56910 -0.14600
H 	H 	0.79270 0.20730 0.58820 0.10600
C 	C 	0.77990 0.22010 0.51590 -0.00200
H 	H 	0.81000 0.19000 0.51590 0.02000
O 	O 	0.77790 0.22210 0.64780 -0.48400
C 	C 	0.27565 0.22435 0.06910 -0.14200
H 	H 	0.29270 0.20730 0.08820 0.10500
C 	C 	0.27990 0.22010 0.01590 -0.00500
H 	H 	0.31000 0.19000 0.01590 0.02000
O 	O 	0.27790 0.22210 0.14780 -0.48400
C 	C 	0.77565 0.27565 0.93090 -0.15000
H 	H 	0.79270 0.29270 0.91180 0.10700
C 	C 	0.77990 0.27990 0.98410 0.00100
H 	H 	0.81000 0.31000 0.98410 0.01900
O 	O 	0.77790 0.27790 0.85220 -0.48400
C 	C 	0.77565 0.77565 0.43090 -0.14600
H 	H 	0.79270 0.79270 0.41180 0.10600
C 	C 	0.77990 0.77990 0.48410 -0.00200
H 	H 	0.81000 0.81000 0.48410 0.02000
O 	O 	0.77790 0.77790 0.35220 -0.48400
C 	C 	0.27565 0.27565 0.43090 -0.14600
H 	H 	0.29270 0.29270 0.41180 0.10600
C 	C 	0.27990 0.27990 0.48410 -0.00200
H 	H 	0.31000 0.31000 0.48410 0.02000
O 	O 	0.27790 0.27790 0.35220 -0.48400
C 	C 	0.22435 0.72435 0.93090 -0.15000
H 	H 	0.20730 0.70730 0.91180 0.10700
C 	C 	0.22010 0.72010 0.98410 0.00100
H 	H 	0.19000 0.69000 0.98410 0.01900
O 	O 	0.22210 0.72210 0.85220 -0.48400
C 	C 	0.22435 0.22435 0.43090 -0.14600
H 	H 	0.20730 0.20730 0.41180 0.10600
C 	C 	0.22010 0.22010 0.48410 -0.00200
H 	H 	0.19000 0.19000 0.48410 0.02000
O 	O 	0.22210 0.22210 0.35220 -0.48400
C 	C 	0.06910 0.22435 0.27565 -0.14200
H 	H 	0.08820 0.20730 0.29270 0.10500
C 	C 	0.01590 0.22010 0.27990 -0.00500
H 	H 	0.01590 0.19000 0.31000 0.02000
O 	O 	0.14780 0.22210 0.27790 -0.48400
C 	C 	0.56910 0.22435 0.77565 -0.14600
H 	H 	0.58820 0.20730 0.79270 0.10600
C 	C 	0.51590 0.22010 0.77990 -0.00200
H 	H 	0.51590 0.19000 0.81000 0.02000
O 	O 	0.64780 0.22210 0.77790 -0.48400
C 	C 	0.06910 0.77565 0.72435 -0.14200
H 	H 	0.08820 0.79270 0.70730 0.10500
C 	C 	0.01590 0.77990 0.72010 -0.00500
H 	H 	0.01590 0.81000 0.69000 0.02000
O 	O 	0.14780 0.77790 0.72210 -0.48400
C 	C 	0.06910 0.27565 0.22435 -0.14200
H 	H 	0.08820 0.29270 0.20730 0.10500
C 	C 	0.01590 0.27990 0.22010 -0.00500
H 	H 	0.01590 0.31000 0.19000 0.02000
O 	O 	0.14780 0.27790 0.22210 -0.48400
C 	C 	0.56910 0.77565 0.22435 -0.14600
H 	H 	0.58820 0.79270 0.20730 0.10600
C 	C 	0.51590 0.77990 0.22010 -0.00200
H 	H 	0.51590 0.81000 0.19000 0.02000
O 	O 	0.64780 0.77790 0.22210 -0.48400
C 	C 	0.93090 0.77565 0.27565 -0.15000
H 	H 	0.91180 0.79270 0.29270 0.10700
C 	C 	0.98410 0.77990 0.27990 0.00100
H 	H 	0.98410 0.81000 0.31000 0.01900
O 	O 	0.85220 0.77790 0.27790 -0.48400
C 	C 	0.43090 0.77565 0.77565 -0.14500
H 	H 	0.41180 0.79270 0.79270 0.10700
C 	C 	0.48410 0.77990 0.77990 -0.00100
H 	H 	0.48410 0.81000 0.81000 0.02100
O 	O 	0.35220 0.77790 0.77790 -0.48300
C 	C 	0.43090 0.27565 0.27565 -0.14500
H 	H 	0.41180 0.29270 0.29270 0.10700
C 	C 	0.48410 0.27990 0.27990 -0.00100
H 	H 	0.48410 0.31000 0.31000 0.02100
O 	O 	0.35220 0.27790 0.27790 -0.48300
C 	C 	0.93090 0.22435 0.72435 -0.14900
H 	H 	0.91180 0.20730 0.70730 0.10800
C 	C 	0.98410 0.22010 0.72010 0.00200
H 	H 	0.98410 0.19000 0.69000 0.02000
O 	O 	0.85220 0.22210 0.72210 -0.48300
C 	C 	0.43090 0.22435 0.22435 -0.14500
H 	H 	0.41180 0.20730 0.20730 0.10700
C 	C 	0.48410 0.22010 0.22010 -0.00100
H 	H 	0.48410 0.19000 0.19000 0.02100
O 	O 	0.35220 0.22210 0.22210 -0.48300
C 	C 	0.27565 0.06910 0.22435 -0.14100
H 	H 	0.29270 0.08820 0.20730 0.10600
C 	C 	0.27990 0.01590 0.22010 -0.00400
H 	H 	0.31000 0.01590 0.19000 0.02100
O 	O 	0.27790 0.14780 0.22210 -0.48300
C 	C 	0.27565 0.56910 0.72435 -0.14500
H 	H 	0.29270 0.58820 0.70730 0.10700
C 	C 	0.27990 0.51590 0.72010 -0.00100
H 	H 	0.31000 0.51590 0.69000 0.02100
O 	O 	0.27790 0.64780 0.72210 -0.48300
C 	C 	0.72435 0.06910 0.77565 -0.14100
H 	H 	0.70730 0.08820 0.79270 0.10600
C 	C 	0.72010 0.01590 0.77990 -0.00400
H 	H 	0.69000 0.01590 0.81000 0.02100
O 	O 	0.72210 0.14780 0.77790 -0.48300
C 	C 	0.72435 0.56910 0.27565 -0.14500
H 	H 	0.70730 0.58820 0.29270 0.10700
C 	C 	0.72010 0.51590 0.27990 -0.00100
H 	H 	0.69000 0.51590 0.31000 0.02100
O 	O 	0.72210 0.64780 0.27790 -0.48300
C 	C 	0.22435 0.06910 0.27565 -0.14100
H 	H 	0.20730 0.08820 0.29270 0.10600
C 	C 	0.22010 0.01590 0.27990 -0.00400
H 	H 	0.19000 0.01590 0.31000 0.02100
O 	O 	0.22210 0.14780 0.27790 -0.48300
C 	C 	0.27565 0.93090 0.77565 -0.14900
H 	H 	0.29270 0.91180 0.79270 0.10800
C 	C 	0.27990 0.98410 0.77990 0.00200
H 	H 	0.31000 0.98410 0.81000 0.02000
O 	O 	0.27790 0.85220 0.77790 -0.48300
C 	C 	0.27565 0.43090 0.27565 -0.14500
H 	H 	0.29270 0.41180 0.29270 0.10700
C 	C 	0.27990 0.48410 0.27990 -0.00100
H 	H 	0.31000 0.48410 0.31000 0.02100
O 	O 	0.27790 0.35220 0.27790 -0.48300
C 	C 	0.72435 0.93090 0.22435 -0.14900
H 	H 	0.70730 0.91180 0.20730 0.10800
C 	C 	0.72010 0.98410 0.22010 0.00200
H 	H 	0.69000 0.98410 0.19000 0.02000
O 	O 	0.72210 0.85220 0.22210 -0.48300
C 	C 	0.72435 0.43090 0.72435 -0.14500
H 	H 	0.70730 0.41180 0.70730 0.10700
C 	C 	0.72010 0.48410 0.72010 -0.00100
H 	H 	0.69000 0.48410 0.69000 0.02100
O 	O 	0.72210 0.35220 0.72210 -0.48300
C 	C 	0.22435 0.43090 0.22435 -0.14500
H 	H 	0.20730 0.41180 0.20730 0.10700
C 	C 	0.22010 0.48410 0.22010 -0.00100
H 	H 	0.19000 0.48410 0.19000 0.02100
O 	O 	0.22210 0.35220 0.22210 -0.48300
C 	C 	0.27565 0.22435 0.93090 -0.14900
H 	H 	0.29270 0.20730 0.91180 0.10800
C 	C 	0.27990 0.22010 0.98410 0.00200
H 	H 	0.31000 0.19000 0.98410 0.02000
O 	O 	0.27790 0.22210 0.85220 -0.48300
C 	C 	0.27565 0.72435 0.43090 -0.14500
H 	H 	0.29270 0.70730 0.41180 0.10700
C 	C 	0.27990 0.72010 0.48410 -0.00100
H 	H 	0.31000 0.69000 0.48410 0.02100
O 	O 	0.27790 0.72210 0.35220 -0.48300
C 	C 	0.72435 0.77565 0.93090 -0.14900
H 	H 	0.70730 0.79270 0.91180 0.10800
C 	C 	0.72010 0.77990 0.98410 0.00200
H 	H 	0.69000 0.81000 0.98410 0.02000
O 	O 	0.72210 0.77790 0.85220 -0.48300
C 	C 	0.72435 0.27565 0.43090 -0.14500
H 	H 	0.70730 0.29270 0.41180 0.10700
C 	C 	0.72010 0.27990 0.48410 -0.00100
H 	H 	0.69000 0.31000 0.48410 0.02100
O 	O 	0.72210 0.27790 0.35220 -0.48300
C 	C 	0.22435 0.27565 0.93090 -0.14900
H 	H 	0.20730 0.29270 0.91180 0.10800
C 	C 	0.22010 0.27990 0.98410 0.00200
H 	H 	0.19000 0.31000 0.98410 0.02000
O 	O 	0.22210 0.27790 0.85220 -0.48300
C 	C 	0.27565 0.77565 0.06910 -0.14100
H 	H 	0.29270 0.79270 0.08820 0.10600
C 	C 	0.27990 0.77990 0.01590 -0.00400
H 	H 	0.31000 0.81000 0.01590 0.02100
O 	O 	0.27790 0.77790 0.14780 -0.48300
C 	C 	0.27565 0.27565 0.56910 -0.14500
H 	H 	0.29270 0.29270 0.58820 0.10700
C 	C 	0.27990 0.27990 0.51590 -0.00100
H 	H 	0.31000 0.31000 0.51590 0.02100
O 	O 	0.27790 0.27790 0.64780 -0.48300
C 	C 	0.72435 0.22435 0.06910 -0.14100
H 	H 	0.70730 0.20730 0.08820 0.10600
C 	C 	0.72010 0.22010 0.01590 -0.00400
H 	H 	0.69000 0.19000 0.01590 0.02100
O 	O 	0.72210 0.22210 0.14780 -0.48300
C 	C 	0.72435 0.72435 0.56910 -0.14500
H 	H 	0.70730 0.70730 0.58820 0.10700
C 	C 	0.72010 0.72010 0.51590 -0.00100
H 	H 	0.69000 0.69000 0.51590 0.02100
O 	O 	0.72210 0.72210 0.64780 -0.48300
C 	C 	0.22435 0.22435 0.56910 -0.14500
H 	H 	0.20730 0.20730 0.58820 0.10700
C 	C 	0.22010 0.22010 0.51590 -0.00100
H 	H 	0.19000 0.19000 0.51590 0.02100
O 	O 	0.22210 0.22210 0.64780 -0.48300
C 	C 	0.22435 0.06910 0.72435 -0.14100
H 	H 	0.20730 0.08820 0.70730 0.10600
C 	C 	0.22010 0.01590 0.72010 -0.00400
H 	H 	0.19000 0.01590 0.69000 0.02100
O 	O 	0.22210 0.14780 0.72210 -0.48300
C 	C 	0.22435 0.56910 0.22435 -0.14500
H 	H 	0.20730 0.58820 0.20730 0.10700
C 	C 	0.22010 0.51590 0.22010 -0.00100
H 	H 	0.19000 0.51590 0.19000 0.02100
O 	O 	0.22210 0.64780 0.22210 -0.48300
C 	C 	0.77565 0.06910 0.27565 -0.14100
H 	H 	0.79270 0.08820 0.29270 0.10600
C 	C 	0.77990 0.01590 0.27990 -0.00400
H 	H 	0.81000 0.01590 0.31000 0.02100
O 	O 	0.77790 0.14780 0.27790 -0.48300
C 	C 	0.77565 0.56910 0.77565 -0.14500
H 	H 	0.79270 0.58820 0.79270 0.10700
C 	C 	0.77990 0.51590 0.77990 -0.00100
H 	H 	0.81000 0.51590 0.81000 0.02100
O 	O 	0.77790 0.64780 0.77790 -0.48300
C 	C 	0.27565 0.56910 0.27565 -0.14500
H 	H 	0.29270 0.58820 0.29270 0.10700
C 	C 	0.27990 0.51590 0.27990 -0.00100
H 	H 	0.31000 0.51590 0.31000 0.02100
O 	O 	0.27790 0.64780 0.27790 -0.48300
C 	C 	0.77565 0.93090 0.72435 -0.14900
H 	H 	0.79270 0.91180 0.70730 0.10800
C 	C 	0.77990 0.98410 0.72010 0.00200
H 	H 	0.81000 0.98410 0.69000 0.02000
O 	O 	0.77790 0.85220 0.72210 -0.48300
C 	C 	0.77565 0.43090 0.22435 -0.14500
H 	H 	0.79270 0.41180 0.20730 0.10700
C 	C 	0.77990 0.48410 0.22010 -0.00100
H 	H 	0.81000 0.48410 0.19000 0.02100
O 	O 	0.77790 0.35220 0.22210 -0.48300
C 	C 	0.27565 0.93090 0.22435 -0.14900
H 	H 	0.29270 0.91180 0.20730 0.10800
C 	C 	0.27990 0.98410 0.22010 0.00200
H 	H 	0.31000 0.98410 0.19000 0.02000
O 	O 	0.27790 0.85220 0.22210 -0.48300
C 	C 	0.22435 0.93090 0.27565 -0.14900
H 	H 	0.20730 0.91180 0.29270 0.10800
C 	C 	0.22010 0.98410 0.27990 0.00200
H 	H 	0.19000 0.98410 0.31000 0.02000
O 	O 	0.22210 0.85220 0.27790 -0.48300
C 	C 	0.22435 0.43090 0.77565 -0.14500
H 	H 	0.20730 0.41180 0.79270 0.10700
C 	C 	0.22010 0.48410 0.77990 -0.00100
H 	H 	0.19000 0.48410 0.81000 0.02100
O 	O 	0.22210 0.35220 0.77790 -0.48300
C 	C 	0.06910 0.27565 0.77565 -0.14100
H 	H 	0.08820 0.29270 0.79270 0.10600
C 	C 	0.01590 0.27990 0.77990 -0.00400
H 	H 	0.01590 0.31000 0.81000 0.02100
O 	O 	0.14780 0.27790 0.77790 -0.48300
C 	C 	0.56910 0.27565 0.27565 -0.14500
H 	H 	0.58820 0.29270 0.29270 0.10700
C 	C 	0.51590 0.27990 0.27990 -0.00100
H 	H 	0.51590 0.31000 0.31000 0.02100
O 	O 	0.64780 0.27790 0.27790 -0.48300
C 	C 	0.06910 0.72435 0.22435 -0.14100
H 	H 	0.08820 0.70730 0.20730 0.10600
C 	C 	0.01590 0.72010 0.22010 -0.00400
H 	H 	0.01590 0.69000 0.19000 0.02100
O 	O 	0.14780 0.72210 0.22210 -0.48300
C 	C 	0.56910 0.72435 0.72435 -0.14500
H 	H 	0.58820 0.70730 0.70730 0.10700
C 	C 	0.51590 0.72010 0.72010 -0.00100
H 	H 	0.51590 0.69000 0.69000 0.02100
O 	O 	0.64780 0.72210 0.72210 -0.48300
C 	C 	0.56910 0.22435 0.22435 -0.14500
H 	H 	0.58820 0.20730 0.20730 0.10700
C 	C 	0.51590 0.22010 0.22010 -0.00100
H 	H 	0.51590 0.19000 0.19000 0.02100
O 	O 	0.64780 0.22210 0.22210 -0.48300
C 	C 	0.93090 0.27565 0.22435 -0.14900
H 	H 	0.91180 0.29270 0.20730 0.10800
C 	C 	0.98410 0.27990 0.22010 0.00200
H 	H 	0.98410 0.31000 0.19000 0.02000
O 	O 	0.85220 0.27790 0.22210 -0.48300
C 	C 	0.43090 0.27565 0.72435 -0.14500
H 	H 	0.41180 0.29270 0.70730 0.10700
C 	C 	0.48410 0.27990 0.72010 -0.00100
H 	H 	0.48410 0.31000 0.69000 0.02100
O 	O 	0.35220 0.27790 0.72210 -0.48300
C 	C 	0.93090 0.72435 0.77565 -0.14900
H 	H 	0.91180 0.70730 0.79270 0.10800
C 	C 	0.98410 0.72010 0.77990 0.00200
H 	H 	0.98410 0.69000 0.81000 0.02000
O 	O 	0.85220 0.72210 0.77790 -0.48300
C 	C 	0.93090 0.22435 0.27565 -0.14900
H 	H 	0.91180 0.20730 0.29270 0.10800
C 	C 	0.98410 0.22010 0.27990 0.00200
H 	H 	0.98410 0.19000 0.31000 0.02000
O 	O 	0.85220 0.22210 0.27790 -0.48300
C 	C 	0.43090 0.72435 0.27565 -0.14500
H 	H 	0.41180 0.70730 0.29270 0.10700
C 	C 	0.48410 0.72010 0.27990 -0.00100
H 	H 	0.48410 0.69000 0.31000 0.02100
O 	O 	0.35220 0.72210 0.27790 -0.48300
C 	C 	0.77565 0.72435 0.93090 -0.14900
H 	H 	0.79270 0.70730 0.91180 0.10800
C 	C 	0.77990 0.72010 0.98410 0.00200
H 	H 	0.81000 0.69000 0.98410 0.02000
O 	O 	0.77790 0.72210 0.85220 -0.48300
C 	C 	0.77565 0.22435 0.43090 -0.14500
H 	H 	0.79270 0.20730 0.41180 0.10700
C 	C 	0.77990 0.22010 0.48410 -0.00100
H 	H 	0.81000 0.19000 0.48410 0.02100
O 	O 	0.77790 0.22210 0.35220 -0.48300
C 	C 	0.22435 0.77565 0.43090 -0.14500
H 	H 	0.20730 0.79270 0.41180 0.10700
C 	C 	0.22010 0.77990 0.48410 -0.00100
H 	H 	0.19000 0.81000 0.48410 0.02100
O 	O 	0.22210 0.77790 0.35220 -0.48300
C 	C 	0.22435 0.72435 0.06910 -0.14100
H 	H 	0.20730 0.70730 0.08820 0.10600
C 	C 	0.22010 0.72010 0.01590 -0.00400
H 	H 	0.19000 0.69000 0.01590 0.02100
O 	O 	0.22210 0.72210 0.14780 -0.48300
C 	C 	0.77565 0.27565 0.06910 -0.14100
H 	H 	0.79270 0.29270 0.08820 0.10600
C 	C 	0.77990 0.27990 0.01590 -0.00400
H 	H 	0.81000 0.31000 0.01590 0.02100
O 	O 	0.77790 0.27790 0.14780 -0.48300
C 	C 	0.77565 0.77565 0.56910 -0.14500
H 	H 	0.79270 0.79270 0.58820 0.10700
C 	C 	0.77990 0.77990 0.51590 -0.00100
H 	H 	0.81000 0.81000 0.51590 0.02100
O 	O 	0.77790 0.77790 0.64780 -0.48300
C 	C 	0.93090 0.77565 0.72435 -0.14900
H 	H 	0.91180 0.79270 0.70730 0.10800
C 	C 	0.98410 0.77990 0.72010 0.00200
H 	H 	0.98410 0.81000 0.69000 0.02000
O 	O 	0.85220 0.77790 0.72210 -0.48300
C 	C 	0.43090 0.77565 0.22435 -0.14500
H 	H 	0.41180 0.79270 0.20730 0.10700
C 	C 	0.48410 0.77990 0.22010 -0.00100
H 	H 	0.48410 0.81000 0.19000 0.02100
O 	O 	0.35220 0.77790 0.22210 -0.48300
C 	C 	0.43090 0.22435 0.77565 -0.14500
H 	H 	0.41180 0.20730 0.79270 0.10700
C 	C 	0.48410 0.22010 0.77990 -0.00100
H 	H 	0.48410 0.19000 0.81000 0.02100
O 	O 	0.35220 0.22210 0.77790 -0.48300
C 	C 	0.06910 0.22435 0.72435 -0.14100
H 	H 	0.08820 0.20730 0.70730 0.10600
C 	C 	0.01590 0.22010 0.72010 -0.00400
H 	H 	0.01590 0.19000 0.69000 0.02100
O 	O 	0.14780 0.22210 0.72210 -0.48300
C 	C 	0.06910 0.77565 0.27565 -0.14100
H 	H 	0.08820 0.79270 0.29270 0.10600
C 	C 	0.01590 0.77990 0.27990 -0.00400
H 	H 	0.01590 0.81000 0.31000 0.02100
O 	O 	0.14780 0.77790 0.27790 -0.48300
C 	C 	0.56910 0.77565 0.77565 -0.14500
H 	H 	0.58820 0.79270 0.79270 0.10700
C 	C 	0.51590 0.77990 0.77990 -0.00100
H 	H 	0.51590 0.81000 0.81000 0.02100
O 	O 	0.64780 0.77790 0.77790 -0.48300
C 	C 	0.72435 0.93090 0.77565 -0.14900
H 	H 	0.70730 0.91180 0.79270 0.10800
C 	C 	0.72010 0.98410 0.77990 0.00200
H 	H 	0.69000 0.98410 0.81000 0.02000
O 	O 	0.72210 0.85220 0.77790 -0.48300
C 	C 	0.72435 0.43090 0.27565 -0.14500
H 	H 	0.70730 0.41180 0.29270 0.10700
C 	C 	0.72010 0.48410 0.27990 -0.00100
H 	H 	0.69000 0.48410 0.31000 0.02100
O 	O 	0.72210 0.35220 0.27790 -0.48300
C 	C 	0.27565 0.43090 0.72435 -0.14500
H 	H 	0.29270 0.41180 0.70730 0.10700
C 	C 	0.27990 0.48410 0.72010 -0.00100
H 	H 	0.31000 0.48410 0.69000 0.02100
O 	O 	0.27790 0.35220 0.72210 -0.48300
C 	C 	0.72435 0.06910 0.22435 -0.14100
H 	H 	0.70730 0.08820 0.20730 0.10600
C 	C 	0.72010 0.01590 0.22010 -0.00400
H 	H 	0.69000 0.01590 0.19000 0.02100
O 	O 	0.72210 0.14780 0.22210 -0.48300
C 	C 	0.72435 0.56910 0.72435 -0.14500
H 	H 	0.70730 0.58820 0.70730 0.10700
C 	C 	0.72010 0.51590 0.72010 -0.00100
H 	H 	0.69000 0.51590 0.69000 0.02100
O 	O 	0.72210 0.64780 0.72210 -0.48300
C 	C 	0.27565 0.06910 0.77565 -0.14100
H 	H 	0.29270 0.08820 0.79270 0.10600
C 	C 	0.27990 0.01590 0.77990 -0.00400
H 	H 	0.31000 0.01590 0.81000 0.02100
O 	O 	0.27790 0.14780 0.77790 -0.48300
C 	C 	0.72435 0.77565 0.06910 -0.14100
H 	H 	0.70730 0.79270 0.08820 0.10600
C 	C 	0.72010 0.77990 0.01590 -0.00400
H 	H 	0.69000 0.81000 0.01590 0.02100
O 	O 	0.72210 0.77790 0.14780 -0.48300
C 	C 	0.72435 0.27565 0.56910 -0.14500
H 	H 	0.70730 0.29270 0.58820 0.10700
C 	C 	0.72010 0.27990 0.51590 -0.00100
H 	H 	0.69000 0.31000 0.51590 0.02100
O 	O 	0.72210 0.27790 0.64780 -0.48300
C 	C 	0.27565 0.72435 0.56910 -0.14500
H 	H 	0.29270 0.70730 0.58820 0.10700
C 	C 	0.27990 0.72010 0.51590 -0.00100
H 	H 	0.31000 0.69000 0.51590 0.02100
O 	O 	0.27790 0.72210 0.64780 -0.48300
C 	C 	0.72435 0.22435 0.93090 -0.14900
H 	H 	0.70730 0.20730 0.91180 0.10800
C 	C 	0.72010 0.22010 0.98410 0.00200
H 	H 	0.69000 0.19000 0.98410 0.02000
O 	O 	0.72210 0.22210 0.85220 -0.48300
C 	C 	0.72435 0.72435 0.43090 -0.14500
H 	H 	0.70730 0.70730 0.41180 0.10700
C 	C 	0.72010 0.72010 0.48410 -0.00100
H 	H 	0.69000 0.69000 0.48410 0.02100
O 	O 	0.72210 0.72210 0.35220 -0.48300
C 	C 	0.27565 0.77565 0.93090 -0.14900
H 	H 	0.29270 0.79270 0.91180 0.10800
C 	C 	0.27990 0.77990 0.98410 0.00200
H 	H 	0.31000 0.81000 0.98410 0.02000
O 	O 	0.27790 0.77790 0.85220 -0.48300
C 	C 	0.77565 0.93090 0.27565 -0.14900
H 	H 	0.79270 0.91180 0.29270 0.10800
C 	C 	0.77990 0.98410 0.27990 0.00200
H 	H 	0.81000 0.98410 0.31000 0.02000
O 	O 	0.77790 0.85220 0.27790 -0.48300
C 	C 	0.77565 0.43090 0.77565 -0.14500
H 	H 	0.79270 0.41180 0.79270 0.10700
C 	C 	0.77990 0.48410 0.77990 -0.00100
H 	H 	0.81000 0.48410 0.81000 0.02100
O 	O 	0.77790 0.35220 0.77790 -0.48300
C 	C 	0.22435 0.93090 0.72435 -0.14900
H 	H 	0.20730 0.91180 0.70730 0.10800
C 	C 	0.22010 0.98410 0.72010 0.00200
H 	H 	0.19000 0.98410 0.69000 0.02000
O 	O 	0.22210 0.85220 0.72210 -0.48300
C 	C 	0.22435 0.56910 0.77565 -0.14500
H 	H 	0.20730 0.58820 0.79270 0.10700
C 	C 	0.22010 0.51590 0.77990 -0.00100
H 	H 	0.19000 0.51590 0.81000 0.02100
O 	O 	0.22210 0.64780 0.77790 -0.48300
C 	C 	0.77565 0.06910 0.72435 -0.14100
H 	H 	0.79270 0.08820 0.70730 0.10600
C 	C 	0.77990 0.01590 0.72010 -0.00400
H 	H 	0.81000 0.01590 0.69000 0.02100
O 	O 	0.77790 0.14780 0.72210 -0.48300
C 	C 	0.77565 0.56910 0.22435 -0.14500
H 	H 	0.79270 0.58820 0.20730 0.10700
C 	C 	0.77990 0.51590 0.22010 -0.00100
H 	H 	0.81000 0.51590 0.19000 0.02100
O 	O 	0.77790 0.64780 0.22210 -0.48300
C 	C 	0.93090 0.72435 0.22435 -0.14900
H 	H 	0.91180 0.70730 0.20730 0.10800
C 	C 	0.98410 0.72010 0.22010 0.00200
H 	H 	0.98410 0.69000 0.19000 0.02000
O 	O 	0.85220 0.72210 0.22210 -0.48300
C 	C 	0.43090 0.72435 0.72435 -0.14500
H 	H 	0.41180 0.70730 0.70730 0.10700
C 	C 	0.48410 0.72010 0.72010 -0.00100
H 	H 	0.48410 0.69000 0.69000 0.02100
O 	O 	0.35220 0.72210 0.72210 -0.48300
C 	C 	0.93090 0.27565 0.77565 -0.14900
H 	H 	0.91180 0.29270 0.79270 0.10800
C 	C 	0.98410 0.27990 0.77990 0.00200
H 	H 	0.98410 0.31000 0.81000 0.02000
O 	O 	0.85220 0.27790 0.77790 -0.48300
C 	C 	0.06910 0.72435 0.77565 -0.14100
H 	H 	0.08820 0.70730 0.79270 0.10600
C 	C 	0.01590 0.72010 0.77990 -0.00400
H 	H 	0.01590 0.69000 0.81000 0.02100
O 	O 	0.14780 0.72210 0.77790 -0.48300
C 	C 	0.56910 0.72435 0.27565 -0.14500
H 	H 	0.58820 0.70730 0.29270 0.10700
C 	C 	0.51590 0.72010 0.27990 -0.00100
H 	H 	0.51590 0.69000 0.31000 0.02100
O 	O 	0.64780 0.72210 0.27790 -0.48300
C 	C 	0.56910 0.27565 0.72435 -0.14500
H 	H 	0.58820 0.29270 0.70730 0.10700
C 	C 	0.51590 0.27990 0.72010 -0.00100
H 	H 	0.51590 0.31000 0.69000 0.02100
O 	O 	0.64780 0.27790 0.72210 -0.48300
C 	C 	0.25000 0.25000 0.08210 0.08800
C 	C 	0.25000 0.25000 0.13590 0.28200
C 	C 	0.25000 0.75000 0.58210 0.09200
C 	C 	0.25000 0.75000 0.63590 0.28100
C 	C 	0.75000 0.75000 0.08210 0.08800
C 	C 	0.75000 0.75000 0.13590 0.28200
C 	C 	0.75000 0.25000 0.58210 0.09200
C 	C 	0.75000 0.25000 0.63590 0.28100
C 	C 	0.75000 0.25000 0.91790 0.09600
C 	C 	0.75000 0.25000 0.86410 0.28000
C 	C 	0.75000 0.75000 0.41790 0.09200
C 	C 	0.75000 0.75000 0.36410 0.28100
C 	C 	0.25000 0.25000 0.41790 0.09200
C 	C 	0.25000 0.25000 0.36410 0.28100
C 	C 	0.25000 0.75000 0.91790 0.09600
C 	C 	0.25000 0.75000 0.86410 0.28000
C 	C 	0.08210 0.25000 0.25000 0.08800
C 	C 	0.13590 0.25000 0.25000 0.28200
C 	C 	0.58210 0.25000 0.75000 0.09200
C 	C 	0.63590 0.25000 0.75000 0.28100
C 	C 	0.08210 0.75000 0.75000 0.08800
C 	C 	0.13590 0.75000 0.75000 0.28200
C 	C 	0.58210 0.75000 0.25000 0.09200
C 	C 	0.63590 0.75000 0.25000 0.28100
C 	C 	0.91790 0.75000 0.25000 0.09600
C 	C 	0.86410 0.75000 0.25000 0.28000
C 	C 	0.41790 0.75000 0.75000 0.09200
C 	C 	0.36410 0.75000 0.75000 0.28100
C 	C 	0.41790 0.25000 0.25000 0.09200
C 	C 	0.36410 0.25000 0.25000 0.28100
C 	C 	0.91790 0.25000 0.75000 0.09600
C 	C 	0.86410 0.25000 0.75000 0.28000
C 	C 	0.25000 0.08210 0.25000 0.08800
C 	C 	0.25000 0.13590 0.25000 0.28200
C 	C 	0.25000 0.58210 0.75000 0.09200
C 	C 	0.25000 0.63590 0.75000 0.28100
C 	C 	0.75000 0.08210 0.75000 0.08800
C 	C 	0.75000 0.13590 0.75000 0.28200
C 	C 	0.75000 0.58210 0.25000 0.09200
C 	C 	0.75000 0.63590 0.25000 0.28100
C 	C 	0.25000 0.91790 0.75000 0.09600
C 	C 	0.25000 0.86410 0.75000 0.28000
C 	C 	0.25000 0.41790 0.25000 0.09200
C 	C 	0.25000 0.36410 0.25000 0.28100
C 	C 	0.75000 0.91790 0.25000 0.09600
C 	C 	0.75000 0.86410 0.25000 0.28000
C 	C 	0.75000 0.41790 0.75000 0.09200
C 	C 	0.75000 0.36410 0.75000 0.28100
C 	C 	0.25000 0.25000 0.91790 0.09600
C 	C 	0.25000 0.25000 0.86410 0.28000
C 	C 	0.25000 0.75000 0.41790 0.09200
C 	C 	0.25000 0.75000 0.36410 0.28100
C 	C 	0.75000 0.75000 0.91790 0.09600
C 	C 	0.75000 0.75000 0.86410 0.28000
C 	C 	0.75000 0.25000 0.41790 0.09200
C 	C 	0.75000 0.25000 0.36410 0.28100
C 	C 	0.25000 0.75000 0.08210 0.08800
C 	C 	0.25000 0.75000 0.13590 0.28200
C 	C 	0.25000 0.25000 0.58210 0.09200
C 	C 	0.25000 0.25000 0.63590 0.28100
C 	C 	0.75000 0.25000 0.08210 0.08800
C 	C 	0.75000 0.25000 0.13590 0.28200
C 	C 	0.75000 0.75000 0.58210 0.09200
C 	C 	0.75000 0.75000 0.63590 0.28100
C 	C 	0.25000 0.08210 0.75000 0.08800
C 	C 	0.25000 0.13590 0.75000 0.28200
C 	C 	0.25000 0.58210 0.25000 0.09200
C 	C 	0.25000 0.63590 0.25000 0.28100
C 	C 	0.75000 0.08210 0.25000 0.08800
C 	C 	0.75000 0.13590 0.25000 0.28200
C 	C 	0.75000 0.58210 0.75000 0.09200
C 	C 	0.75000 0.63590 0.75000 0.28100
C 	C 	0.75000 0.91790 0.75000 0.09600
C 	C 	0.75000 0.86410 0.75000 0.28000
C 	C 	0.75000 0.41790 0.25000 0.09200
C 	C 	0.75000 0.36410 0.25000 0.28100
C 	C 	0.25000 0.91790 0.25000 0.09600
C 	C 	0.25000 0.86410 0.25000 0.28000
C 	C 	0.25000 0.41790 0.75000 0.09200
C 	C 	0.25000 0.36410 0.75000 0.28100
C 	C 	0.08210 0.25000 0.75000 0.08800
C 	C 	0.13590 0.25000 0.75000 0.28200
C 	C 	0.58210 0.25000 0.25000 0.09200
C 	C 	0.63590 0.25000 0.25000 0.28100
C 	C 	0.08210 0.75000 0.25000 0.08800
C 	C 	0.13590 0.75000 0.25000 0.28200
C 	C 	0.58210 0.75000 0.75000 0.09200
C 	C 	0.63590 0.75000 0.75000 0.28100
C 	C 	0.91790 0.25000 0.25000 0.09600
C 	C 	0.86410 0.25000 0.25000 0.28000
C 	C 	0.41790 0.25000 0.75000 0.09200
C 	C 	0.36410 0.25000 0.75000 0.28100
C 	C 	0.91790 0.75000 0.75000 0.09600
C 	C 	0.86410 0.75000 0.75000 0.28000
C 	C 	0.41790 0.75000 0.25000 0.09200
C 	C 	0.36410 0.75000 0.25000 0.28100
O 	O 	0.25000 0.25000 0.25000 -1.01200
O 	O 	0.75000 0.75000 0.25000 -1.01200
O 	O 	0.75000 0.25000 0.75000 -1.01200
O 	O 	0.25000 0.75000 0.75000 -1.01200
O 	O 	0.25000 0.25000 0.75000 -1.01200
O 	O 	0.75000 0.75000 0.75000 -1.01200
O 	O 	0.75000 0.25000 0.25000 -1.01200
O 	O 	0.25000 0.75000 0.25000 -1.01200
C 	C 	0.25000 0.25000 -0.00000 0.01300
C 	C 	0.25000 0.75000 0.50000 0.01300
C 	C 	0.75000 0.75000 -0.00000 0.01300
C 	C 	0.75000 0.25000 0.50000 0.01300
C 	C 	0.75000 0.25000 -0.00000 0.01300
C 	C 	0.75000 0.75000 0.50000 0.01300
C 	C 	0.25000 0.25000 0.50000 0.01300
C 	C 	0.25000 0.75000 -0.00000 0.01300
C 	C 	-0.00000 0.25000 0.25000 0.01300
C 	C 	0.50000 0.25000 0.75000 0.01300
C 	C 	0.00000 0.75000 0.75000 0.01300
C 	C 	0.50000 0.75000 0.25000 0.01300
C 	C 	-0.00000 0.75000 0.25000 0.01300
C 	C 	0.50000 0.75000 0.75000 0.01300
C 	C 	0.50000 0.25000 0.25000 0.01300
C 	C 	-0.00000 0.25000 0.75000 0.01300
C 	C 	0.25000 -0.00000 0.25000 0.01300
C 	C 	0.25000 0.50000 0.75000 0.01300
C 	C 	0.75000 0.00000 0.75000 0.01300
C 	C 	0.75000 0.50000 0.25000 0.01300
C 	C 	0.25000 0.00000 0.75000 0.01300
C 	C 	0.25000 0.50000 0.25000 0.01300
C 	C 	0.75000 -0.00000 0.25000 0.01300
C 	C 	0.75000 0.50000 0.75000 0.01300
Zn	Zn	0.21312 0.28688 0.21312 1.19000
Zn	Zn	0.78688 0.71312 0.21312 1.19000
Zn	Zn	0.28688 0.21312 0.21312 1.19000
Zn	Zn	0.78688 0.28688 0.78688 1.19000
Zn	Zn	0.28688 0.28688 0.28688 1.19000
Zn	Zn	0.21312 0.71312 0.78688 1.19000
Zn	Zn	0.21312 0.21312 0.28688 1.19000
Zn	Zn	0.21312 0.78688 0.71312 1.19000
Zn	Zn	0.78688 0.78688 0.28688 1.19000
Zn	Zn	0.78688 0.21312 0.71312 1.19000
Zn	Zn	0.28688 0.71312 0.71312 1.19000
Zn	Zn	0.71312 0.21312 0.78688 1.19000
Zn	Zn	0.71312 0.71312 0.28688 1.19000
Zn	Zn	0.28688 0.78688 0.78688 1.19000
Zn	Zn	0.71312 0.78688 0.21312 1.19000
Zn	Zn	0.71312 0.28688 0.71312 1.19000
Zn	Zn	0.28688 0.21312 0.78688 1.19000
Zn	Zn	0.28688 0.71312 0.28688 1.19000
Zn	Zn	0.71312 0.78688 0.78688 1.19000
Zn	Zn	0.71312 0.28688 0.28688 1.19000
Zn	Zn	0.21312 0.78688 0.28688 1.19000
Zn	Zn	0.21312 0.28688 0.78688 1.19000
Zn	Zn	0.28688 0.78688 0.21312 1.19000
Zn	Zn	0.28688 0.28688 0.71312 1.19000
Zn	Zn	0.71312 0.21312 0.21312 1.19000
Zn	Zn	0.71312 0.71312 0.71312 1.19000
Zn	Zn	0.21312 0.21312 0.71312 1.19000
Zn	Zn	0.78688 0.21312 0.28688 1.19000
Zn	Zn	0.78688 0.78688 0.71312 1.19000
Zn	Zn	0.78688 0.28688 0.21312 1.19000
Zn	Zn	0.21312 0.71312 0.21312 1.19000
Zn	Zn	0.78688 0.71312 0.78688 1.19000
