data_crystal

_cell_length_a 18.55610
_cell_length_b 18.55610
_cell_length_c 21.26280
_cell_angle_alpha 90.00000
_cell_angle_beta  90.00000
_cell_angle_gamma 120.00000

_symmetry_space_group_name_	'P 1'
_symmetry_space_group_name_H-M	'P 1'

loop_
_symmetry_equiv_pos_as_xyz
  x,y,z

loop_
_atom_site_label
_atom_site_type_symbol
_atom_site_fract_x
_atom_site_fract_y
_atom_site_fract_z
_atom_site_charge
Cu	Cu	0.84287 0.50785 0.99049 0.82400
Cu	Cu	0.66498 0.15713 0.32382 0.82400
Cu	Cu	0.49215 0.33502 0.65716 0.82400
Cu	Cu	0.33502 0.49215 0.00951 0.82400
Cu	Cu	0.50785 0.84287 0.67618 0.82400
Cu	Cu	0.15713 0.66498 0.34284 0.82500
P 	P 	0.73595 0.38465 0.02675 -0.06900
P 	P 	0.66920 0.14400 0.21794 -0.06900
P 	P 	0.64870 0.26405 0.36008 -0.06900
P 	P 	0.47480 0.33080 0.55127 -0.06900
P 	P 	0.61535 0.35130 0.69342 -0.06900
P 	P 	0.85600 0.52520 0.88461 -0.06900
P 	P 	0.35130 0.61535 0.97325 -0.06900
P 	P 	0.52520 0.85600 0.78206 -0.06900
P 	P 	0.38465 0.73595 0.63992 -0.06900
P 	P 	0.14400 0.66920 0.44873 -0.07000
P 	P 	0.26405 0.64870 0.30658 -0.06900
P 	P 	0.33080 0.47480 0.11539 -0.06900
H 	H 	0.66450 0.23190 0.10060 0.06600
H 	H 	0.81050 0.29550 0.25620 0.04700
H 	H 	0.85120 0.46700 0.12640 0.04900
H 	H 	0.95510 0.37740 0.26800 0.08200
H 	H 	0.06250 0.47820 0.32400 -0.02100
H 	H 	0.01180 0.64820 0.26950 0.00600
H 	H 	0.89650 0.55160 0.21430 0.07800
H 	H 	0.63800 0.30560 0.91540 0.05600
H 	H 	0.61820 0.20080 0.84820 0.03500
H 	H 	0.69840 0.13950 0.86080 0.05400
H 	H 	0.77560 0.16080 0.95170 0.02900
H 	H 	0.79670 0.27180 0.01920 0.05400
H 	H 	0.69570 0.51310 0.06190 0.07000
H 	H 	0.57260 0.51150 0.08880 0.03100
H 	H 	0.44510 0.38720 0.08310 0.04400
H 	H 	0.44060 0.26460 0.05040 0.03000
H 	H 	0.56370 0.26630 0.02350 0.05700
H 	H 	0.75230 0.14270 0.10030 0.05600
H 	H 	0.81200 0.06150 0.06680 0.03200
H 	H 	0.81130 0.96430 0.13030 0.05400
H 	H 	0.76910 0.95010 0.23520 0.03300
H 	H 	0.70850 0.02270 0.26860 0.04500
H 	H 	0.53240 0.16070 0.21460 0.04700
H 	H 	0.40260 0.10150 0.16600 0.02600
H 	H 	0.37360 0.01250 0.08180 0.05800
H 	H 	0.46280 0.96030 0.06930 0.02800
H 	H 	0.59470 0.01840 0.11570 0.06200
H 	H 	0.56740 0.33550 0.43393 0.06600
H 	H 	0.48500 0.18950 0.58953 0.04700
H 	H 	0.61580 0.14880 0.45973 0.04900
H 	H 	0.42230 0.04490 0.60133 0.08300
H 	H 	0.41570 0.93750 0.65733 -0.02200
H 	H 	0.63640 0.98820 0.60283 0.00700
H 	H 	0.65510 0.10350 0.54763 0.07800
H 	H 	0.66760 0.36200 0.24873 0.05600
H 	H 	0.58260 0.38180 0.18153 0.03500
H 	H 	0.44110 0.30160 0.19413 0.05300
H 	H 	0.38520 0.22440 0.28503 0.03000
H 	H 	0.47510 0.20330 0.35253 0.05300
H 	H 	0.81740 0.30430 0.39523 0.07000
H 	H 	0.93890 0.42740 0.42213 0.03100
H 	H 	0.94210 0.55490 0.41643 0.04400
H 	H 	0.82400 0.55940 0.38373 0.03000
H 	H 	0.70260 0.43630 0.35683 0.05700
H 	H 	0.39040 0.24770 0.43363 0.05600
H 	H 	0.24950 0.18800 0.40013 0.03200
H 	H 	0.15300 0.18870 0.46363 0.05400
H 	H 	0.18100 0.23090 0.56853 0.03300
H 	H 	0.31420 0.29150 0.60193 0.04500
H 	H 	0.62830 0.46760 0.54793 0.04700
H 	H 	0.69890 0.59740 0.49933 0.02600
H 	H 	0.63890 0.62640 0.41513 0.05800
H 	H 	0.49750 0.53720 0.40263 0.02800
H 	H 	0.42370 0.40530 0.44903 0.06200
H 	H 	0.76810 0.43260 0.76727 0.06600
H 	H 	0.70450 0.51500 0.92287 0.04700
H 	H 	0.53300 0.38420 0.79307 0.04900
H 	H 	0.62260 0.57770 0.93467 0.08300
H 	H 	0.52180 0.58430 0.99067 -0.02100
H 	H 	0.35180 0.36360 0.93617 0.00800
H 	H 	0.44840 0.34490 0.88097 0.07800
H 	H 	0.69440 0.33240 0.58207 0.05600
H 	H 	0.79920 0.41740 0.51487 0.03500
H 	H 	0.86050 0.55890 0.52747 0.05300
H 	H 	0.83920 0.61480 0.61837 0.03000
H 	H 	0.72820 0.52490 0.68587 0.05300
H 	H 	0.48690 0.18260 0.72857 0.07000
H 	H 	0.48850 0.06110 0.75547 0.03100
H 	H 	0.61280 0.05790 0.74977 0.04400
H 	H 	0.73540 0.17600 0.71707 0.03000
H 	H 	0.73370 0.29740 0.69017 0.05700
H 	H 	0.85730 0.60960 0.76697 0.05600
H 	H 	0.93850 0.75050 0.73347 0.03200
H 	H 	0.03570 0.84700 0.79697 0.05400
H 	H 	0.04990 0.81900 0.90187 0.03300
H 	H 	0.97730 0.68580 0.93527 0.04600
H 	H 	0.83930 0.37170 0.88127 0.04600
H 	H 	0.89850 0.30110 0.83267 0.02700
H 	H 	0.98750 0.36110 0.74847 0.05700
H 	H 	0.03970 0.50250 0.73597 0.03000
H 	H 	0.98160 0.57630 0.78237 0.06200
H 	H 	0.43260 0.76810 0.89940 0.06600
H 	H 	0.51500 0.70450 0.74380 0.04700
H 	H 	0.38420 0.53300 0.87360 0.04900
H 	H 	0.57770 0.62260 0.73200 0.08300
H 	H 	0.58430 0.52180 0.67600 -0.02200
H 	H 	0.36360 0.35180 0.73050 0.00800
H 	H 	0.34490 0.44840 0.78570 0.07800
H 	H 	0.33240 0.69440 0.08460 0.05600
H 	H 	0.41740 0.79920 0.15180 0.03600
H 	H 	0.55890 0.86050 0.13920 0.05300
H 	H 	0.61480 0.83920 0.04830 0.03000
H 	H 	0.52490 0.72820 0.98080 0.05300
H 	H 	0.18260 0.48690 0.93810 0.07000
H 	H 	0.06110 0.48850 0.91120 0.03100
H 	H 	0.05790 0.61280 0.91690 0.04400
H 	H 	0.17600 0.73540 0.94960 0.03000
H 	H 	0.29740 0.73370 0.97650 0.05800
H 	H 	0.60960 0.85730 0.89970 0.05600
H 	H 	0.75050 0.93850 0.93320 0.03200
H 	H 	0.84700 0.03570 0.86970 0.05400
H 	H 	0.81900 0.04990 0.76480 0.03300
H 	H 	0.68580 0.97730 0.73140 0.04500
H 	H 	0.37170 0.83930 0.78540 0.04700
H 	H 	0.30110 0.89850 0.83400 0.02600
H 	H 	0.36110 0.98750 0.91820 0.05800
H 	H 	0.50250 0.03970 0.93070 0.02900
H 	H 	0.57630 0.98160 0.88430 0.06200
H 	H 	0.23190 0.66450 0.56607 0.06600
H 	H 	0.29550 0.81050 0.41047 0.04700
H 	H 	0.46700 0.85120 0.54027 0.04900
H 	H 	0.37740 0.95510 0.39867 0.08300
H 	H 	0.47820 0.06250 0.34267 -0.02200
H 	H 	0.64820 0.01180 0.39717 0.00700
H 	H 	0.55160 0.89650 0.45237 0.07800
H 	H 	0.30560 0.63800 0.75127 0.05600
H 	H 	0.20080 0.61820 0.81847 0.03500
H 	H 	0.13950 0.69840 0.80587 0.05400
H 	H 	0.16080 0.77560 0.71497 0.03000
H 	H 	0.27180 0.79670 0.64747 0.05300
H 	H 	0.51310 0.69570 0.60477 0.07000
H 	H 	0.51150 0.57260 0.57787 0.03100
H 	H 	0.38720 0.44510 0.58357 0.04400
H 	H 	0.26460 0.44060 0.61627 0.03000
H 	H 	0.26630 0.56370 0.64317 0.05700
H 	H 	0.14270 0.75230 0.56637 0.05600
H 	H 	0.06150 0.81200 0.59987 0.03100
H 	H 	0.96430 0.81130 0.53637 0.05400
H 	H 	0.95010 0.76910 0.43147 0.03300
H 	H 	0.02270 0.70850 0.39807 0.04500
H 	H 	0.16070 0.53240 0.45207 0.04700
H 	H 	0.10150 0.40260 0.50067 0.02600
H 	H 	0.01250 0.37360 0.58487 0.05900
H 	H 	0.96030 0.46280 0.59737 0.02800
H 	H 	0.01840 0.59470 0.55097 0.06300
H 	H 	0.33550 0.56740 0.23273 0.06600
H 	H 	0.18950 0.48500 0.07713 0.04700
H 	H 	0.14880 0.61580 0.20693 0.04900
H 	H 	0.04490 0.42230 0.06533 0.08300
H 	H 	0.93750 0.41570 0.00933 -0.02200
H 	H 	0.98820 0.63640 0.06383 0.01000
H 	H 	0.10350 0.65510 0.11903 0.07700
H 	H 	0.36200 0.66760 0.41793 0.05600
H 	H 	0.38180 0.58260 0.48513 0.03500
H 	H 	0.30160 0.44110 0.47253 0.05300
H 	H 	0.22440 0.38520 0.38163 0.03000
H 	H 	0.20330 0.47510 0.31413 0.05300
H 	H 	0.30430 0.81740 0.27143 0.07000
H 	H 	0.42740 0.93890 0.24453 0.03100
H 	H 	0.55490 0.94210 0.25023 0.04400
H 	H 	0.55940 0.82400 0.28293 0.03000
H 	H 	0.43630 0.70260 0.30983 0.05700
H 	H 	0.24770 0.39040 0.23303 0.05600
H 	H 	0.18800 0.24950 0.26653 0.03200
H 	H 	0.18870 0.15300 0.20303 0.05400
H 	H 	0.23090 0.18100 0.09813 0.03300
H 	H 	0.29150 0.31420 0.06473 0.04500
H 	H 	0.46760 0.62830 0.11873 0.04700
H 	H 	0.59740 0.69890 0.16733 0.02600
H 	H 	0.62640 0.63890 0.25153 0.05800
H 	H 	0.53720 0.49750 0.26403 0.02800
H 	H 	0.40530 0.42370 0.21763 0.06200
C 	C 	0.75550 0.35240 0.10420 0.02300
C 	C 	0.70940 0.27200 0.12520 -0.09400
C 	C 	0.72860 0.24820 0.18440 0.01000
C 	C 	0.79540 0.30960 0.21730 -0.11100
C 	C 	0.83920 0.38730 0.19720 0.04000
C 	C 	0.82000 0.41090 0.14030 -0.10800
C 	C 	0.91270 0.45380 0.23460 0.06500
C 	C 	0.96470 0.43270 0.26820 -0.13900
C 	C 	0.02850 0.49340 0.30060 0.08300
C 	C 	0.99900 0.59180 0.26980 0.07100
C 	C 	0.93050 0.53490 0.23600 -0.13100
C 	C 	0.71800 0.29540 0.97740 0.00200
C 	C 	0.66620 0.27560 0.92310 -0.08800
C 	C 	0.65590 0.21580 0.88250 0.00100
C 	C 	0.70070 0.17780 0.89150 -0.07200
C 	C 	0.74920 0.19240 0.94350 -0.00600
C 	C 	0.75890 0.25670 0.98500 -0.08800
C 	C 	0.64390 0.46270 0.05960 -0.09900
C 	C 	0.57080 0.46170 0.07560 0.00600
C 	C 	0.49500 0.38780 0.07220 -0.06900
C 	C 	0.49240 0.31510 0.05280 -0.00500
C 	C 	0.56550 0.31600 0.03680 -0.07700
C 	C 	0.64130 0.38990 0.04020 0.01100
C 	C 	0.72170 0.09180 0.19030 0.00400
C 	C 	0.75410 0.10330 0.12780 -0.07200
C 	C 	0.78930 0.05420 0.10790 -0.00800
C 	C 	0.79070 0.99840 0.14610 -0.06600
C 	C 	0.76360 0.98750 0.20780 -0.00200
C 	C 	0.72950 0.03180 0.22690 -0.07600
C 	C 	0.57370 0.09320 0.17310 0.01900
C 	C 	0.51860 0.11820 0.18420 -0.09800
C 	C 	0.44130 0.08500 0.15330 0.01300
C 	C 	0.42210 0.03120 0.10690 -0.08700
C 	C 	0.47820 0.00470 0.09820 0.00800
C 	C 	0.55660 0.03620 0.12740 -0.09300
C 	C 	0.59690 0.24450 0.43753 0.02300
C 	C 	0.56260 0.29060 0.45853 -0.09400
C 	C 	0.51960 0.27140 0.51773 0.01000
C 	C 	0.51420 0.20460 0.55063 -0.11100
C 	C 	0.54810 0.16080 0.53053 0.04000
C 	C 	0.59090 0.18000 0.47363 -0.10800
C 	C 	0.54110 0.08730 0.56793 0.06500
C 	C 	0.46800 0.03530 0.60153 -0.14000
C 	C 	0.46490 0.97150 0.63393 0.08400
C 	C 	0.59280 0.00100 0.60313 0.06900
C 	C 	0.60440 0.06950 0.56933 -0.13000
C 	C 	0.57740 0.28200 0.31073 0.00200
C 	C 	0.60940 0.33380 0.25643 -0.08700
C 	C 	0.55990 0.34410 0.21583 0.00000
C 	C 	0.47710 0.29930 0.22483 -0.07100
C 	C 	0.44320 0.25080 0.27683 -0.00700
C 	C 	0.49780 0.24110 0.31833 -0.08600
C 	C 	0.81880 0.35610 0.39293 -0.09900
C 	C 	0.89090 0.42920 0.40893 0.00600
C 	C 	0.89280 0.50500 0.40553 -0.06900
C 	C 	0.82270 0.50760 0.38613 -0.00500
C 	C 	0.75050 0.43450 0.37013 -0.07700
C 	C 	0.74860 0.35870 0.37353 0.01100
C 	C 	0.37010 0.27830 0.52363 0.00400
C 	C 	0.34920 0.24590 0.46113 -0.07200
C 	C 	0.26490 0.21070 0.44123 -0.00800
C 	C 	0.20770 0.20930 0.47943 -0.06600
C 	C 	0.22390 0.23640 0.54113 -0.00200
C 	C 	0.30230 0.27050 0.56023 -0.07600
C 	C 	0.51950 0.42630 0.50643 0.01900
C 	C 	0.59960 0.48140 0.51753 -0.09800
C 	C 	0.64370 0.55870 0.48663 0.01300
C 	C 	0.60910 0.57790 0.44023 -0.08700
C 	C 	0.52650 0.52180 0.43153 0.00800
C 	C 	0.47960 0.44340 0.46073 -0.09300
C 	C 	0.64760 0.40310 0.77087 0.02300
C 	C 	0.72800 0.43740 0.79187 -0.09400
C 	C 	0.75180 0.48040 0.85107 0.01000
C 	C 	0.69040 0.48580 0.88397 -0.11100
C 	C 	0.61270 0.45190 0.86387 0.04000
C 	C 	0.58910 0.40910 0.80697 -0.10800
C 	C 	0.54620 0.45890 0.90127 0.06500
C 	C 	0.56730 0.53200 0.93487 -0.14000
C 	C 	0.50660 0.53510 0.96727 0.08500
C 	C 	0.40820 0.40720 0.93647 0.06900
C 	C 	0.46510 0.39560 0.90267 -0.13000
C 	C 	0.70460 0.42260 0.64407 0.00200
C 	C 	0.72440 0.39060 0.58977 -0.08700
C 	C 	0.78420 0.44010 0.54917 0.00000
C 	C 	0.82220 0.52290 0.55817 -0.07100
C 	C 	0.80760 0.55680 0.61017 -0.00700
C 	C 	0.74330 0.50220 0.65167 -0.08600
C 	C 	0.53730 0.18120 0.72627 -0.09900
C 	C 	0.53830 0.10910 0.74227 0.00600
C 	C 	0.61220 0.10720 0.73887 -0.06900
C 	C 	0.68490 0.17730 0.71947 -0.00500
C 	C 	0.68400 0.24950 0.70347 -0.07700
C 	C 	0.61010 0.25140 0.70687 0.01100
C 	C 	0.90820 0.62990 0.85697 0.00500
C 	C 	0.89670 0.65080 0.79447 -0.07200
C 	C 	0.94580 0.73510 0.77457 -0.00900
C 	C 	0.00160 0.79230 0.81277 -0.06600
C 	C 	0.01250 0.77610 0.87447 -0.00000
C 	C 	0.96820 0.69770 0.89357 -0.07800
C 	C 	0.90680 0.48050 0.83977 0.01800
C 	C 	0.88180 0.40040 0.85087 -0.09700
C 	C 	0.91500 0.35630 0.81997 0.01100
C 	C 	0.96880 0.39090 0.77357 -0.08500
C 	C 	0.99530 0.47350 0.76487 0.00500
C 	C 	0.96380 0.52040 0.79407 -0.09100
C 	C 	0.40310 0.64760 0.89580 0.02300
C 	C 	0.43740 0.72800 0.87480 -0.09400
C 	C 	0.48040 0.75180 0.81560 0.01000
C 	C 	0.48580 0.69040 0.78270 -0.11100
C 	C 	0.45190 0.61270 0.80280 0.04000
C 	C 	0.40910 0.58910 0.85970 -0.10800
C 	C 	0.45890 0.54620 0.76540 0.06500
C 	C 	0.53200 0.56730 0.73180 -0.14000
C 	C 	0.53510 0.50660 0.69940 0.08500
C 	C 	0.40720 0.40820 0.73020 0.06900
C 	C 	0.39560 0.46510 0.76400 -0.13000
C 	C 	0.42260 0.70460 0.02260 0.00100
C 	C 	0.39060 0.72440 0.07690 -0.08700
C 	C 	0.44010 0.78420 0.11750 -0.00000
C 	C 	0.52290 0.82220 0.10850 -0.07100
C 	C 	0.55680 0.80760 0.05650 -0.00800
C 	C 	0.50220 0.74330 0.01500 -0.08600
C 	C 	0.18120 0.53730 0.94040 -0.09900
C 	C 	0.10910 0.53830 0.92440 0.00600
C 	C 	0.10720 0.61220 0.92780 -0.06900
C 	C 	0.17730 0.68490 0.94720 -0.00500
C 	C 	0.24950 0.68400 0.96320 -0.07700
C 	C 	0.25140 0.61010 0.95980 0.01100
C 	C 	0.62990 0.90820 0.80970 0.00400
C 	C 	0.65080 0.89670 0.87220 -0.07200
C 	C 	0.73510 0.94580 0.89210 -0.00800
C 	C 	0.79230 0.00160 0.85390 -0.06700
C 	C 	0.77610 0.01250 0.79220 -0.00200
C 	C 	0.69770 0.96820 0.77310 -0.07600
C 	C 	0.48050 0.90680 0.82690 0.01900
C 	C 	0.40040 0.88180 0.81580 -0.09800
C 	C 	0.35630 0.91500 0.84670 0.01300
C 	C 	0.39090 0.96880 0.89310 -0.08700
C 	C 	0.47350 0.99530 0.90180 0.00800
C 	C 	0.52040 0.96380 0.87260 -0.09300
C 	C 	0.35240 0.75550 0.56247 0.02300
C 	C 	0.27200 0.70940 0.54147 -0.09400
C 	C 	0.24820 0.72860 0.48227 0.01000
C 	C 	0.30960 0.79540 0.44937 -0.11100
C 	C 	0.38730 0.83920 0.46947 0.04000
C 	C 	0.41090 0.82000 0.52637 -0.10800
C 	C 	0.45380 0.91270 0.43207 0.06500
C 	C 	0.43270 0.96470 0.39847 -0.14000
C 	C 	0.49340 0.02850 0.36607 0.08500
C 	C 	0.59180 0.99900 0.39687 0.06900
C 	C 	0.53490 0.93050 0.43067 -0.13000
C 	C 	0.29540 0.71800 0.68927 0.00200
C 	C 	0.27560 0.66620 0.74357 -0.08700
C 	C 	0.21580 0.65590 0.78417 0.00000
C 	C 	0.17780 0.70070 0.77517 -0.07100
C 	C 	0.19240 0.74920 0.72317 -0.00700
C 	C 	0.25670 0.75890 0.68167 -0.08600
C 	C 	0.46270 0.64390 0.60707 -0.09900
C 	C 	0.46170 0.57080 0.59107 0.00600
C 	C 	0.38780 0.49500 0.59447 -0.06900
C 	C 	0.31510 0.49240 0.61387 -0.00500
C 	C 	0.31600 0.56550 0.62987 -0.07700
C 	C 	0.38990 0.64130 0.62647 0.01100
C 	C 	0.09180 0.72170 0.47637 0.00500
C 	C 	0.10330 0.75410 0.53887 -0.07200
C 	C 	0.05420 0.78930 0.55877 -0.00700
C 	C 	0.99840 0.79070 0.52057 -0.06700
C 	C 	0.98750 0.76360 0.45887 -0.00200
C 	C 	0.03180 0.72950 0.43977 -0.07600
C 	C 	0.09320 0.57370 0.49357 0.02000
C 	C 	0.11820 0.51860 0.48247 -0.09900
C 	C 	0.08500 0.44130 0.51337 0.01400
C 	C 	0.03120 0.42210 0.55977 -0.08800
C 	C 	0.00470 0.47820 0.56847 0.01000
C 	C 	0.03620 0.55660 0.53927 -0.09400
C 	C 	0.24450 0.59690 0.22913 0.02300
C 	C 	0.29060 0.56260 0.20813 -0.09400
C 	C 	0.27140 0.51960 0.14893 0.01000
C 	C 	0.20460 0.51420 0.11603 -0.11100
C 	C 	0.16080 0.54810 0.13613 0.04000
C 	C 	0.18000 0.59090 0.19303 -0.10800
C 	C 	0.08730 0.54110 0.09873 0.06500
C 	C 	0.03530 0.46800 0.06513 -0.14200
C 	C 	0.97150 0.46490 0.03273 0.08700
C 	C 	0.00100 0.59280 0.06353 0.06400
C 	C 	0.06950 0.60440 0.09733 -0.12800
C 	C 	0.28200 0.57740 0.35593 0.00200
C 	C 	0.33380 0.60940 0.41023 -0.08700
C 	C 	0.34410 0.55990 0.45083 0.00000
C 	C 	0.29930 0.47710 0.44183 -0.07100
C 	C 	0.25080 0.44320 0.38983 -0.00700
C 	C 	0.24110 0.49780 0.34833 -0.08600
C 	C 	0.35610 0.81880 0.27373 -0.09900
C 	C 	0.42920 0.89090 0.25773 0.00600
C 	C 	0.50500 0.89280 0.26113 -0.06900
C 	C 	0.50760 0.82270 0.28053 -0.00500
C 	C 	0.43450 0.75050 0.29653 -0.07700
C 	C 	0.35870 0.74860 0.29313 0.01100
C 	C 	0.27830 0.37010 0.14303 0.00400
C 	C 	0.24590 0.34920 0.20553 -0.07200
C 	C 	0.21070 0.26490 0.22543 -0.00800
C 	C 	0.20930 0.20770 0.18723 -0.06600
C 	C 	0.23640 0.22390 0.12553 -0.00200
C 	C 	0.27050 0.30230 0.10643 -0.07600
C 	C 	0.42630 0.51950 0.16023 0.01900
C 	C 	0.48140 0.59960 0.14913 -0.09800
C 	C 	0.55870 0.64370 0.18003 0.01300
C 	C 	0.57790 0.60910 0.22643 -0.08700
C 	C 	0.52180 0.52650 0.23513 0.00800
C 	C 	0.44340 0.47960 0.20593 -0.09300
Br	Br	0.83520 0.62391 0.03512 -0.42300
Br	Br	0.78871 0.16480 0.36845 -0.42400
Br	Br	0.37609 0.21129 0.70179 -0.42400
Br	Br	0.21129 0.37609 0.96488 -0.42300
Br	Br	0.62391 0.83520 0.63155 -0.42400
Br	Br	0.16480 0.78871 0.29821 -0.42400
N 	N 	0.04830 0.57300 0.30280 -0.24100
N 	N 	0.52470 0.95170 0.63613 -0.24000
N 	N 	0.42700 0.47530 0.96947 -0.24000
N 	N 	0.47530 0.42700 0.69720 -0.24000
N 	N 	0.57300 0.04830 0.36387 -0.24000
N 	N 	0.95170 0.52470 0.03053 -0.23900
