data_crystal

_cell_length_a 14.24580
_cell_length_b 25.88560
_cell_length_c 27.83600
_cell_angle_alpha 90.00000
_cell_angle_beta  97.44700
_cell_angle_gamma 90.00000

_symmetry_space_group_name_	'P 1'
_symmetry_space_group_name_H-M	'P 1'

loop_
_symmetry_equiv_pos_as_xyz
  x,y,z

loop_
_atom_site_label
_atom_site_type_symbol
_atom_site_fract_x
_atom_site_fract_y
_atom_site_fract_z
_atom_site_charge
Gd	Gd	0.52287 0.58429 0.78107 1.18800
Ag	Ag	0.07450 0.51991 0.92629 0.49300
Ag	Ag	0.91733 0.61500 0.46665 0.51200
Ag	Ag	0.01542 0.26006 0.81604 0.50200
N 	N 	0.70960 0.58610 0.78530 -0.11300
N 	N 	0.61350 0.51390 0.82880 -0.21600
N 	N 	0.71760 0.44990 0.82450 -0.13100
N 	N 	0.01560 0.44980 0.89300 -0.18800
N 	N 	0.58930 0.57620 0.70230 -0.21800
N 	N 	0.68120 0.61610 0.65450 -0.13200
N 	N 	0.90410 0.60180 0.54740 -0.17300
N 	N 	0.60750 0.66260 0.81960 -0.21500
N 	N 	0.71170 0.68180 0.88470 -0.13100
N 	N 	0.92720 0.80640 0.92780 -0.17200
N 	N 	0.33520 0.58410 0.77440 -0.11200
N 	N 	0.43760 0.50070 0.75560 -0.21500
N 	N 	0.34950 0.44150 0.78650 -0.13400
N 	N 	0.08670 0.32300 0.78020 -0.18400
N 	N 	0.43600 0.64920 0.72500 -0.21400
N 	N 	0.33550 0.64860 0.65580 -0.13200
N 	N 	0.04970 0.71430 0.63210 -0.18300
N 	N 	0.45060 0.60150 0.85710 -0.21600
N 	N 	0.35580 0.65740 0.88870 -0.13200
N 	N 	0.11850 0.59820 0.94520 -0.19000
N 	N 	0.05690 0.56380 0.46340 -0.24400
C 	C 	0.74490 0.53310 0.78140 -0.15700
H 	H 	0.81370 0.53170 0.79260 0.06700
H 	H 	0.73430 0.52140 0.74720 0.06600
C 	C 	0.69280 0.49870 0.81210 0.12200
C 	C 	0.58650 0.47170 0.85410 0.05600
C 	C 	0.50690 0.46520 0.87930 -0.08800
H 	H 	0.46320 0.49240 0.88210 0.04900
C 	C 	0.49640 0.41660 0.90010 -0.02500
H 	H 	0.44410 0.41070 0.91730 0.03000
C 	C 	0.56020 0.37700 0.89610 -0.02800
H 	H 	0.54980 0.34470 0.91080 0.03500
C 	C 	0.63760 0.38210 0.87190 -0.07800
H 	H 	0.68040 0.35440 0.86920 0.05700
C 	C 	0.64960 0.43130 0.85120 0.04700
C 	C 	0.79400 0.41960 0.80690 -0.08300
H 	H 	0.81330 0.43710 0.77810 0.04600
H 	H 	0.76870 0.38520 0.79640 0.04900
C 	C 	0.88100 0.41220 0.84400 0.01800
C 	C 	0.90960 0.36530 0.86040 -0.05900
H 	H 	0.87360 0.33560 0.84960 0.02400
C 	C 	0.99190 0.35980 0.89330 -0.07900
H 	H 	0.01140 0.32660 0.90540 0.02900
C 	C 	0.04440 0.40280 0.90770 0.02900
H 	H 	0.10220 0.39890 0.92860 -0.01100
C 	C 	0.93610 0.45440 0.86170 -0.01000
H 	H 	0.91640 0.48800 0.85100 0.00600
C 	C 	0.73480 0.61730 0.74430 -0.15900
H 	H 	0.80100 0.61020 0.73910 0.06600
H 	H 	0.72890 0.65450 0.75140 0.06300
C 	C 	0.66800 0.60280 0.69970 0.12400
C 	C 	0.54820 0.57130 0.65460 0.05900
C 	C 	0.46460 0.54670 0.63450 -0.09700
H 	H 	0.42660 0.52820 0.65430 0.05000
C 	C 	0.43920 0.55030 0.58490 -0.02100
H 	H 	0.38180 0.53490 0.57060 0.01800
C 	C 	0.49610 0.57610 0.55570 -0.03900
H 	H 	0.47690 0.57710 0.52180 0.02900
C 	C 	0.57880 0.60020 0.57400 -0.07700
H 	H 	0.61670 0.61830 0.55380 0.04700
C 	C 	0.60400 0.59630 0.62430 0.04300
C 	C 	0.75420 0.65070 0.63930 -0.07100
H 	H 	0.78380 0.67040 0.66780 0.03000
H 	H 	0.72360 0.67580 0.61530 0.04300
C 	C 	0.83010 0.62180 0.61730 0.00200
C 	C 	0.89500 0.59030 0.64490 -0.04500
H 	H 	0.89110 0.58550 0.67850 0.03100
C 	C 	0.96470 0.56610 0.62380 -0.07800
H 	H 	0.01000 0.54490 0.64250 0.04100
C 	C 	0.96780 0.57310 0.57490 0.03400
H 	H 	0.01700 0.55700 0.56040 0.00100
C 	C 	0.83780 0.62590 0.56840 -0.00500
H 	H 	0.79340 0.64690 0.54890 0.00700
C 	C 	0.75240 0.60950 0.83180 -0.16100
H 	H 	0.75970 0.58290 0.85760 0.06200
H 	H 	0.81590 0.62340 0.82830 0.06600
C 	C 	0.69050 0.65130 0.84490 0.12200
C 	C 	0.57090 0.70330 0.84360 0.05800
C 	C 	0.48730 0.73150 0.83270 -0.09300
H 	H 	0.44500 0.72520 0.80400 0.04900
C 	C 	0.46890 0.76910 0.86560 -0.01900
H 	H 	0.41350 0.78970 0.85880 0.02700
C 	C 	0.52930 0.77760 0.90830 -0.03500
H 	H 	0.51150 0.80220 0.93080 0.03200
C 	C 	0.61500 0.75150 0.91940 -0.07700
H 	H 	0.65680 0.75800 0.94830 0.04800
C 	C 	0.63470 0.71540 0.88550 0.04700
C 	C 	0.79480 0.67930 0.92070 -0.07100
H 	H 	0.82410 0.64470 0.91960 0.03700
H 	H 	0.77550 0.68400 0.95330 0.04500
C 	C 	0.86770 0.72030 0.91240 0.01100
C 	C 	0.93810 0.71120 0.88260 -0.04700
H 	H 	0.94280 0.67880 0.86690 0.03100
C 	C 	0.00180 0.75180 0.87660 -0.06900
H 	H 	0.05040 0.74680 0.85670 0.03800
C 	C 	0.99460 0.79660 0.89830 0.02700
H 	H 	0.03820 0.82320 0.89330 0.00200
C 	C 	0.86700 0.76850 0.93450 -0.00100
H 	H 	0.82080 0.77480 0.95560 0.01000
C 	C 	0.30210 0.53420 0.79210 -0.15900
H 	H 	0.23560 0.52800 0.77810 0.06700
H 	H 	0.30500 0.53510 0.82790 0.06100
C 	C 	0.36410 0.49150 0.77750 0.12700
C 	C 	0.47520 0.45120 0.74770 0.04900
C 	C 	0.55430 0.43710 0.72510 -0.09000
H 	H 	0.59070 0.46190 0.71050 0.04900
C 	C 	0.57580 0.38520 0.72550 -0.02100
H 	H 	0.62740 0.37400 0.70970 0.02700
C 	C 	0.52520 0.34870 0.74790 -0.03400
H 	H 	0.54500 0.31370 0.74830 0.03800
C 	C 	0.44500 0.36220 0.77010 -0.07600
H 	H 	0.40910 0.33740 0.78510 0.05700
C 	C 	0.42250 0.41470 0.76850 0.04900
C 	C 	0.28160 0.41910 0.81630 -0.07500
H 	H 	0.25830 0.44690 0.83620 0.03700
H 	H 	0.31510 0.39350 0.83870 0.04800
C 	C 	0.19760 0.39310 0.78720 0.01300
C 	C 	0.15380 0.41190 0.74470 -0.04200
H 	H 	0.17750 0.44220 0.73120 0.03800
C 	C 	0.07300 0.38670 0.72010 -0.08800
H 	H 	0.04170 0.39930 0.69020 0.04400
C 	C 	0.04290 0.34370 0.74140 0.05300
H 	H 	0.98600 0.32790 0.72700 -0.01600
C 	C 	0.16560 0.34710 0.80230 -0.00800
H 	H 	0.20030 0.33100 0.82970 0.01000
C 	C 	0.29700 0.59170 0.72240 -0.16800
H 	H 	0.29830 0.55850 0.70480 0.06600
H 	H 	0.23060 0.60370 0.71970 0.07100
C 	C 	0.35500 0.62990 0.70130 0.12100
C 	C 	0.46990 0.68260 0.69110 0.05200
C 	C 	0.55140 0.71280 0.69600 -0.09300
H 	H 	0.59170 0.71530 0.72590 0.05000
C 	C 	0.57100 0.73890 0.65490 -0.02200
H 	H 	0.62640 0.75970 0.65670 0.02400
C 	C 	0.51160 0.73560 0.61120 -0.03400
H 	H 	0.52930 0.75310 0.58380 0.03200
C 	C 	0.42640 0.70740 0.60610 -0.08000
H 	H 	0.38470 0.70590 0.57660 0.05500
C 	C 	0.40840 0.68190 0.64790 0.05000
C 	C 	0.26150 0.62880 0.61850 -0.08000
H 	H 	0.23890 0.59520 0.62950 0.04400
H 	H 	0.29010 0.62240 0.58840 0.05000
C 	C 	0.17690 0.66450 0.60670 0.01700
C 	C 	0.14120 0.67200 0.55860 -0.05000
H 	H 	0.17160 0.65740 0.53330 0.03300
C 	C 	0.05980 0.70140 0.54830 -0.08100
H 	H 	0.03430 0.70790 0.51560 0.04100
C 	C 	0.01730 0.72050 0.58450 0.03800
H 	H 	0.96060 0.73970 0.57640 -0.01000
C 	C 	0.13030 0.68590 0.64200 -0.00700
H 	H 	0.15560 0.68070 0.67490 0.01500
C 	C 	0.30500 0.62720 0.80360 -0.15800
H 	H 	0.23890 0.62190 0.81000 0.06400
H 	H 	0.30830 0.66030 0.78600 0.06300
C 	C 	0.37010 0.62870 0.85040 0.12000
C 	C 	0.49130 0.61350 0.90410 0.05500
C 	C 	0.57510 0.59710 0.93070 -0.09200
H 	H 	0.61430 0.57210 0.91820 0.04800
C 	C 	0.59960 0.61840 0.97630 -0.02400
H 	H 	0.65720 0.60830 0.99500 0.02200
C 	C 	0.54100 0.65450 0.99520 -0.02900
H 	H 	0.56020 0.66860 0.02650 0.02900
C 	C 	0.45760 0.67020 0.97020 -0.08100
H 	H 	0.41770 0.69420 0.98350 0.05600
C 	C 	0.43350 0.64950 0.92430 0.05000
C 	C 	0.27800 0.69300 0.89400 -0.07800
H 	H 	0.24240 0.70010 0.86170 0.04200
H 	H 	0.30410 0.72610 0.90760 0.05000
C 	C 	0.21170 0.67070 0.92680 0.01600
C 	C 	0.18680 0.69640 0.96600 -0.04600
H 	H 	0.20950 0.73040 0.97330 0.03900
C 	C 	0.12740 0.67210 0.99540 -0.07500
H 	H 	0.11020 0.68890 0.02330 0.05200
C 	C 	0.09470 0.62340 0.98300 0.04100
H 	H 	0.05320 0.60720 0.00250 -0.01200
C 	C 	0.17580 0.62200 0.91750 -0.00500
H 	H 	0.19230 0.60420 0.89000 0.00800
C 	C 	0.12650 0.54220 0.46660 0.22800
C 	C 	0.21540 0.51450 0.46930 -0.62300
H 	H 	0.21810 0.48830 0.49480 0.18300
H 	H 	0.26800 0.53880 0.47680 0.19300
H 	H 	0.22020 0.49780 0.43810 0.20200
Gd	Gd	0.47713 0.08429 0.71893 1.18700
Ag	Ag	0.92550 0.01991 0.57371 0.49200
Ag	Ag	0.08267 0.11500 0.03335 0.51100
Ag	Ag	0.98458 0.76006 0.68396 0.50100
N 	N 	0.29040 0.08610 0.71470 -0.11400
N 	N 	0.38650 0.01390 0.67120 -0.21800
N 	N 	0.28240 0.94990 0.67550 -0.13200
N 	N 	0.98440 0.94980 0.60700 -0.19000
N 	N 	0.41070 0.07620 0.79770 -0.21900
N 	N 	0.31880 0.11610 0.84550 -0.13300
N 	N 	0.09590 0.10180 0.95260 -0.17400
N 	N 	0.39250 0.16260 0.68040 -0.21600
N 	N 	0.28830 0.18180 0.61530 -0.13200
N 	N 	0.07280 0.30640 0.57220 -0.17300
N 	N 	0.66480 0.08410 0.72560 -0.11300
N 	N 	0.56240 0.00070 0.74440 -0.21600
N 	N 	0.65050 0.94150 0.71350 -0.13500
N 	N 	0.91330 0.82300 0.71980 -0.18500
N 	N 	0.56400 0.14920 0.77500 -0.21500
N 	N 	0.66450 0.14860 0.84420 -0.13300
N 	N 	0.95030 0.21430 0.86790 -0.18400
N 	N 	0.54940 0.10150 0.64290 -0.21700
N 	N 	0.64420 0.15740 0.61130 -0.13300
N 	N 	0.88150 0.09820 0.55480 -0.19100
N 	N 	0.94310 0.06380 0.03660 -0.24400
C 	C 	0.25510 0.03310 0.71860 -0.15900
H 	H 	0.18630 0.03170 0.70740 0.06600
H 	H 	0.26570 0.02140 0.75280 0.06500
C 	C 	0.30720 0.99870 0.68790 0.12200
C 	C 	0.41350 0.97170 0.64590 0.05500
C 	C 	0.49310 0.96520 0.62070 -0.08900
H 	H 	0.53680 0.99240 0.61790 0.04800
C 	C 	0.50360 0.91660 0.59990 -0.02500
H 	H 	0.55590 0.91070 0.58270 0.02900
C 	C 	0.43980 0.87700 0.60390 -0.02800
H 	H 	0.45020 0.84470 0.58920 0.03500
C 	C 	0.36240 0.88210 0.62810 -0.07800
H 	H 	0.31960 0.85440 0.63080 0.05700
C 	C 	0.35040 0.93130 0.64880 0.04700
C 	C 	0.20600 0.91960 0.69310 -0.08300
H 	H 	0.18670 0.93710 0.72190 0.04600
H 	H 	0.23130 0.88520 0.70360 0.05000
C 	C 	0.11900 0.91220 0.65600 0.01900
C 	C 	0.09040 0.86530 0.63960 -0.06100
H 	H 	0.12640 0.83560 0.65040 0.02500
C 	C 	0.00810 0.85980 0.60670 -0.07600
H 	H 	0.98860 0.82660 0.59460 0.02800
C 	C 	0.95560 0.90280 0.59230 0.02700
H 	H 	0.89780 0.89890 0.57140 -0.01000
C 	C 	0.06390 0.95440 0.63830 -0.01000
H 	H 	0.08360 0.98800 0.64900 0.00600
C 	C 	0.26520 0.11730 0.75570 -0.15900
H 	H 	0.19900 0.11020 0.76090 0.06600
H 	H 	0.27110 0.15450 0.74860 0.06300
C 	C 	0.33200 0.10280 0.80030 0.12400
C 	C 	0.45180 0.07130 0.84540 0.05900
C 	C 	0.53540 0.04670 0.86550 -0.09700
H 	H 	0.57340 0.02820 0.84570 0.05000
C 	C 	0.56080 0.05030 0.91510 -0.02100
H 	H 	0.61820 0.03490 0.92940 0.01800
C 	C 	0.50390 0.07610 0.94430 -0.03900
H 	H 	0.52310 0.07710 0.97820 0.02900
C 	C 	0.42120 0.10020 0.92600 -0.07700
H 	H 	0.38330 0.11830 0.94620 0.04700
C 	C 	0.39600 0.09630 0.87570 0.04300
C 	C 	0.24580 0.15070 0.86070 -0.07000
H 	H 	0.21620 0.17040 0.83220 0.03000
H 	H 	0.27640 0.17580 0.88470 0.04300
C 	C 	0.16990 0.12180 0.88270 0.00200
C 	C 	0.10500 0.09030 0.85510 -0.04400
H 	H 	0.10890 0.08550 0.82150 0.03100
C 	C 	0.03530 0.06610 0.87620 -0.07900
H 	H 	0.99000 0.04490 0.85750 0.04200
C 	C 	0.03220 0.07310 0.92510 0.03400
H 	H 	0.98300 0.05700 0.93960 0.00100
C 	C 	0.16220 0.12590 0.93160 -0.00500
H 	H 	0.20660 0.14690 0.95110 0.00700
C 	C 	0.24760 0.10950 0.66820 -0.16100
H 	H 	0.24030 0.08290 0.64240 0.06200
H 	H 	0.18410 0.12340 0.67170 0.06600
C 	C 	0.30950 0.15130 0.65510 0.12200
C 	C 	0.42910 0.20330 0.65640 0.05800
C 	C 	0.51270 0.23150 0.66730 -0.09300
H 	H 	0.55500 0.22520 0.69600 0.04900
C 	C 	0.53110 0.26910 0.63440 -0.01900
H 	H 	0.58650 0.28970 0.64120 0.02700
C 	C 	0.47070 0.27760 0.59170 -0.03500
H 	H 	0.48850 0.30220 0.56920 0.03200
C 	C 	0.38500 0.25150 0.58060 -0.07700
H 	H 	0.34320 0.25800 0.55170 0.04800
C 	C 	0.36530 0.21540 0.61450 0.04700
C 	C 	0.20520 0.17930 0.57930 -0.07000
H 	H 	0.17590 0.14470 0.58040 0.03700
H 	H 	0.22450 0.18400 0.54670 0.04500
C 	C 	0.13230 0.22030 0.58760 0.01100
C 	C 	0.06190 0.21120 0.61740 -0.04600
H 	H 	0.05720 0.17880 0.63310 0.03000
C 	C 	0.99820 0.25180 0.62340 -0.07100
H 	H 	0.94960 0.24680 0.64330 0.03800
C 	C 	0.00540 0.29660 0.60170 0.02900
H 	H 	0.96180 0.32320 0.60670 0.00100
C 	C 	0.13300 0.26850 0.56550 -0.00100
H 	H 	0.17920 0.27480 0.54440 0.01000
C 	C 	0.69790 0.03420 0.70790 -0.15900
H 	H 	0.76440 0.02800 0.72190 0.06700
H 	H 	0.69500 0.03510 0.67210 0.06100
C 	C 	0.63590 0.99150 0.72250 0.12700
C 	C 	0.52480 0.95120 0.75230 0.04900
C 	C 	0.44570 0.93710 0.77490 -0.09000
H 	H 	0.40930 0.96190 0.78950 0.04900
C 	C 	0.42420 0.88520 0.77450 -0.02100
H 	H 	0.37260 0.87400 0.79030 0.02700
C 	C 	0.47480 0.84870 0.75210 -0.03400
H 	H 	0.45500 0.81370 0.75170 0.03800
C 	C 	0.55500 0.86220 0.72990 -0.07600
H 	H 	0.59090 0.83740 0.71490 0.05700
C 	C 	0.57750 0.91470 0.73150 0.04900
C 	C 	0.71840 0.91910 0.68370 -0.07500
H 	H 	0.74170 0.94690 0.66380 0.03700
H 	H 	0.68490 0.89350 0.66130 0.04800
C 	C 	0.80240 0.89310 0.71280 0.01300
C 	C 	0.84620 0.91190 0.75530 -0.04300
H 	H 	0.82250 0.94220 0.76880 0.03800
C 	C 	0.92700 0.88670 0.77990 -0.08700
H 	H 	0.95830 0.89930 0.80980 0.04400
C 	C 	0.95710 0.84370 0.75860 0.05100
H 	H 	0.01400 0.82790 0.77300 -0.01500
C 	C 	0.83440 0.84710 0.69770 -0.00800
H 	H 	0.79970 0.83100 0.67030 0.01000
C 	C 	0.70300 0.09170 0.77760 -0.16800
H 	H 	0.70170 0.05850 0.79520 0.06600
H 	H 	0.76940 0.10370 0.78030 0.07100
C 	C 	0.64500 0.12990 0.79870 0.12100
C 	C 	0.53010 0.18260 0.80890 0.05200
C 	C 	0.44860 0.21280 0.80400 -0.09300
H 	H 	0.40830 0.21530 0.77410 0.05000
C 	C 	0.42900 0.23890 0.84510 -0.02200
H 	H 	0.37360 0.25970 0.84330 0.02400
C 	C 	0.48840 0.23560 0.88880 -0.03400
H 	H 	0.47070 0.25310 0.91620 0.03200
C 	C 	0.57360 0.20740 0.89390 -0.08000
H 	H 	0.61530 0.20590 0.92340 0.05500
C 	C 	0.59160 0.18190 0.85210 0.05000
C 	C 	0.73850 0.12880 0.88150 -0.08000
H 	H 	0.76110 0.09520 0.87050 0.04400
H 	H 	0.70990 0.12240 0.91160 0.05000
C 	C 	0.82310 0.16450 0.89330 0.01700
C 	C 	0.85880 0.17200 0.94140 -0.05000
H 	H 	0.82840 0.15740 0.96670 0.03300
C 	C 	0.94020 0.20140 0.95170 -0.08100
H 	H 	0.96570 0.20790 0.98440 0.04100
C 	C 	0.98270 0.22050 0.91550 0.03700
H 	H 	0.03940 0.23970 0.92360 -0.01000
C 	C 	0.86970 0.18590 0.85800 -0.00700
H 	H 	0.84440 0.18070 0.82510 0.01500
C 	C 	0.69500 0.12720 0.69640 -0.15800
H 	H 	0.76110 0.12190 0.69000 0.06500
H 	H 	0.69170 0.16030 0.71400 0.06300
C 	C 	0.62990 0.12870 0.64960 0.12000
C 	C 	0.50870 0.11350 0.59590 0.05500
C 	C 	0.42490 0.09710 0.56930 -0.09300
H 	H 	0.38570 0.07210 0.58180 0.04800
C 	C 	0.40040 0.11840 0.52370 -0.02400
H 	H 	0.34280 0.10830 0.50500 0.02200
C 	C 	0.45900 0.15450 0.50480 -0.03000
H 	H 	0.43980 0.16860 0.47350 0.02900
C 	C 	0.54240 0.17020 0.52980 -0.08100
H 	H 	0.58230 0.19420 0.51650 0.05600
C 	C 	0.56650 0.14950 0.57570 0.05000
C 	C 	0.72200 0.19300 0.60600 -0.07800
H 	H 	0.75760 0.20010 0.63830 0.04200
H 	H 	0.69590 0.22610 0.59240 0.05000
C 	C 	0.78830 0.17070 0.57320 0.01500
C 	C 	0.81320 0.19640 0.53400 -0.04600
H 	H 	0.79050 0.23040 0.52670 0.03900
C 	C 	0.87260 0.17210 0.50460 -0.07600
H 	H 	0.88980 0.18890 0.47670 0.05200
C 	C 	0.90530 0.12340 0.51700 0.04100
H 	H 	0.94680 0.10720 0.49750 -0.01200
C 	C 	0.82420 0.12200 0.58250 -0.00500
H 	H 	0.80770 0.10420 0.61000 0.00800
C 	C 	0.87350 0.04220 0.03340 0.22700
C 	C 	0.78460 0.01450 0.03070 -0.61700
H 	H 	0.78190 0.98830 0.00520 0.18100
H 	H 	0.73200 0.03880 0.02320 0.19100
H 	H 	0.77980 0.99780 0.06190 0.19900
Gd	Gd	0.47713 0.41571 0.21893 1.18700
Ag	Ag	0.92550 0.48009 0.07371 0.49200
Ag	Ag	0.08267 0.38500 0.53335 0.51100
Ag	Ag	0.98458 0.73994 0.18396 0.50100
N 	N 	0.29040 0.41390 0.21470 -0.11400
N 	N 	0.38650 0.48610 0.17120 -0.21700
N 	N 	0.28240 0.55010 0.17550 -0.13200
N 	N 	0.98440 0.55020 0.10700 -0.18900
N 	N 	0.41070 0.42380 0.29770 -0.21900
N 	N 	0.31880 0.38390 0.34550 -0.13300
N 	N 	0.09590 0.39820 0.45260 -0.17400
N 	N 	0.39250 0.33740 0.18040 -0.21600
N 	N 	0.28830 0.31820 0.11530 -0.13200
N 	N 	0.07280 0.19360 0.07220 -0.17300
N 	N 	0.66480 0.41590 0.22560 -0.11300
N 	N 	0.56240 0.49930 0.24440 -0.21600
N 	N 	0.65050 0.55850 0.21350 -0.13500
N 	N 	0.91330 0.67700 0.21980 -0.18500
N 	N 	0.56400 0.35080 0.27500 -0.21500
N 	N 	0.66450 0.35140 0.34420 -0.13300
N 	N 	0.95030 0.28570 0.36790 -0.18400
N 	N 	0.54940 0.39850 0.14290 -0.21700
N 	N 	0.64420 0.34260 0.11130 -0.13300
N 	N 	0.88150 0.40180 0.05480 -0.19100
N 	N 	0.94310 0.43620 0.53660 -0.24500
C 	C 	0.25510 0.46690 0.21860 -0.15800
H 	H 	0.18630 0.46830 0.20740 0.06600
H 	H 	0.26570 0.47860 0.25280 0.06500
C 	C 	0.30720 0.50130 0.18790 0.12100
C 	C 	0.41350 0.52830 0.14590 0.05500
C 	C 	0.49310 0.53480 0.12070 -0.08900
H 	H 	0.53680 0.50760 0.11790 0.04800
C 	C 	0.50360 0.58340 0.09990 -0.02600
H 	H 	0.55590 0.58930 0.08270 0.02900
C 	C 	0.43980 0.62300 0.10390 -0.02800
H 	H 	0.45020 0.65530 0.08920 0.03500
C 	C 	0.36240 0.61790 0.12810 -0.07800
H 	H 	0.31960 0.64560 0.13080 0.05700
C 	C 	0.35040 0.56870 0.14880 0.04700
C 	C 	0.20600 0.58040 0.19310 -0.08300
H 	H 	0.18670 0.56290 0.22190 0.04600
H 	H 	0.23130 0.61480 0.20360 0.04900
C 	C 	0.11900 0.58780 0.15600 0.01800
C 	C 	0.09040 0.63470 0.13960 -0.05900
H 	H 	0.12640 0.66440 0.15040 0.02400
C 	C 	0.00810 0.64020 0.10670 -0.07900
H 	H 	0.98860 0.67340 0.09460 0.02900
C 	C 	0.95560 0.59720 0.09230 0.02900
H 	H 	0.89780 0.60110 0.07140 -0.01100
C 	C 	0.06390 0.54560 0.13830 -0.01000
H 	H 	0.08360 0.51200 0.14900 0.00600
C 	C 	0.26520 0.38270 0.25570 -0.15900
H 	H 	0.19900 0.38980 0.26090 0.06600
H 	H 	0.27110 0.34550 0.24860 0.06300
C 	C 	0.33200 0.39720 0.30030 0.12400
C 	C 	0.45180 0.42870 0.34540 0.05900
C 	C 	0.53540 0.45330 0.36550 -0.09700
H 	H 	0.57340 0.47180 0.34570 0.05000
C 	C 	0.56080 0.44970 0.41510 -0.02100
H 	H 	0.61820 0.46510 0.42940 0.01800
C 	C 	0.50390 0.42390 0.44430 -0.03900
H 	H 	0.52310 0.42290 0.47820 0.02900
C 	C 	0.42120 0.39980 0.42600 -0.07700
H 	H 	0.38330 0.38170 0.44620 0.04700
C 	C 	0.39600 0.40370 0.37570 0.04300
C 	C 	0.24580 0.34930 0.36070 -0.07100
H 	H 	0.21620 0.32960 0.33220 0.03000
H 	H 	0.27640 0.32420 0.38470 0.04300
C 	C 	0.16990 0.37820 0.38270 0.00200
C 	C 	0.10500 0.40970 0.35510 -0.04500
H 	H 	0.10890 0.41450 0.32150 0.03100
C 	C 	0.03530 0.43390 0.37620 -0.07800
H 	H 	0.99000 0.45510 0.35750 0.04100
C 	C 	0.03220 0.42690 0.42510 0.03400
H 	H 	0.98300 0.44300 0.43960 0.00100
C 	C 	0.16220 0.37410 0.43160 -0.00500
H 	H 	0.20660 0.35310 0.45110 0.00700
C 	C 	0.24760 0.39050 0.16820 -0.16100
H 	H 	0.24030 0.41710 0.14240 0.06200
H 	H 	0.18410 0.37660 0.17170 0.06600
C 	C 	0.30950 0.34870 0.15510 0.12200
C 	C 	0.42910 0.29670 0.15640 0.05800
C 	C 	0.51270 0.26850 0.16730 -0.09300
H 	H 	0.55500 0.27480 0.19600 0.04900
C 	C 	0.53110 0.23090 0.13440 -0.01900
H 	H 	0.58650 0.21030 0.14120 0.02700
C 	C 	0.47070 0.22240 0.09170 -0.03500
H 	H 	0.48850 0.19780 0.06920 0.03200
C 	C 	0.38500 0.24850 0.08060 -0.07700
H 	H 	0.34320 0.24200 0.05170 0.04800
C 	C 	0.36530 0.28460 0.11450 0.04700
C 	C 	0.20520 0.32070 0.07930 -0.07100
H 	H 	0.17590 0.35530 0.08040 0.03700
H 	H 	0.22450 0.31600 0.04670 0.04500
C 	C 	0.13230 0.27970 0.08760 0.01100
C 	C 	0.06190 0.28880 0.11740 -0.04700
H 	H 	0.05720 0.32120 0.13310 0.03100
C 	C 	0.99820 0.24820 0.12340 -0.06900
H 	H 	0.94960 0.25320 0.14330 0.03800
C 	C 	0.00540 0.20340 0.10170 0.02700
H 	H 	0.96180 0.17680 0.10670 0.00200
C 	C 	0.13300 0.23150 0.06550 -0.00100
H 	H 	0.17920 0.22520 0.04440 0.01000
C 	C 	0.69790 0.46580 0.20790 -0.15900
H 	H 	0.76440 0.47200 0.22190 0.06700
H 	H 	0.69500 0.46490 0.17210 0.06100
C 	C 	0.63590 0.50850 0.22250 0.12700
C 	C 	0.52480 0.54880 0.25230 0.04900
C 	C 	0.44570 0.56290 0.27490 -0.09000
H 	H 	0.40930 0.53810 0.28950 0.04900
C 	C 	0.42420 0.61480 0.27450 -0.02100
H 	H 	0.37260 0.62600 0.29030 0.02700
C 	C 	0.47480 0.65130 0.25210 -0.03400
H 	H 	0.45500 0.68630 0.25170 0.03800
C 	C 	0.55500 0.63780 0.22990 -0.07600
H 	H 	0.59090 0.66260 0.21490 0.05700
C 	C 	0.57750 0.58530 0.23150 0.04900
C 	C 	0.71840 0.58090 0.18370 -0.07500
H 	H 	0.74170 0.55310 0.16380 0.03700
H 	H 	0.68490 0.60650 0.16130 0.04800
C 	C 	0.80240 0.60690 0.21280 0.01300
C 	C 	0.84620 0.58810 0.25530 -0.04200
H 	H 	0.82250 0.55780 0.26880 0.03800
C 	C 	0.92700 0.61330 0.27990 -0.08800
H 	H 	0.95830 0.60070 0.30980 0.04400
C 	C 	0.95710 0.65630 0.25860 0.05300
H 	H 	0.01400 0.67210 0.27300 -0.01600
C 	C 	0.83440 0.65290 0.19770 -0.00800
H 	H 	0.79970 0.66900 0.17030 0.01000
C 	C 	0.70300 0.40830 0.27760 -0.16800
H 	H 	0.70170 0.44150 0.29520 0.06600
H 	H 	0.76940 0.39630 0.28030 0.07100
C 	C 	0.64500 0.37010 0.29870 0.12100
C 	C 	0.53010 0.31740 0.30890 0.05200
C 	C 	0.44860 0.28720 0.30400 -0.09300
H 	H 	0.40830 0.28470 0.27410 0.05000
C 	C 	0.42900 0.26110 0.34510 -0.02200
H 	H 	0.37360 0.24030 0.34330 0.02400
C 	C 	0.48840 0.26440 0.38880 -0.03400
H 	H 	0.47070 0.24690 0.41620 0.03200
C 	C 	0.57360 0.29260 0.39390 -0.08000
H 	H 	0.61530 0.29410 0.42340 0.05500
C 	C 	0.59160 0.31810 0.35210 0.05000
C 	C 	0.73850 0.37120 0.38150 -0.08000
H 	H 	0.76110 0.40480 0.37050 0.04400
H 	H 	0.70990 0.37760 0.41160 0.05000
C 	C 	0.82310 0.33550 0.39330 0.01700
C 	C 	0.85880 0.32800 0.44140 -0.05000
H 	H 	0.82840 0.34260 0.46670 0.03300
C 	C 	0.94020 0.29860 0.45170 -0.08100
H 	H 	0.96570 0.29210 0.48440 0.04100
C 	C 	0.98270 0.27950 0.41550 0.03800
H 	H 	0.03940 0.26030 0.42360 -0.01000
C 	C 	0.86970 0.31410 0.35800 -0.00700
H 	H 	0.84440 0.31930 0.32510 0.01500
C 	C 	0.69500 0.37280 0.19640 -0.15800
H 	H 	0.76110 0.37810 0.19000 0.06400
H 	H 	0.69170 0.33970 0.21400 0.06300
C 	C 	0.62990 0.37130 0.14960 0.12000
C 	C 	0.50870 0.38650 0.09590 0.05500
C 	C 	0.42490 0.40290 0.06930 -0.09200
H 	H 	0.38570 0.42790 0.08180 0.04800
C 	C 	0.40040 0.38160 0.02370 -0.02400
H 	H 	0.34280 0.39170 0.00500 0.02200
C 	C 	0.45900 0.34550 0.00480 -0.02900
H 	H 	0.43980 0.33140 0.97350 0.02900
C 	C 	0.54240 0.32980 0.02980 -0.08100
H 	H 	0.58230 0.30580 0.01650 0.05600
C 	C 	0.56650 0.35050 0.07570 0.05000
C 	C 	0.72200 0.30700 0.10600 -0.07800
H 	H 	0.75760 0.29990 0.13830 0.04200
H 	H 	0.69590 0.27390 0.09240 0.05000
C 	C 	0.78830 0.32930 0.07320 0.01600
C 	C 	0.81320 0.30360 0.03400 -0.04600
H 	H 	0.79050 0.26960 0.02670 0.03900
C 	C 	0.87260 0.32790 0.00460 -0.07500
H 	H 	0.88980 0.31110 0.97670 0.05200
C 	C 	0.90530 0.37660 0.01700 0.04100
H 	H 	0.94680 0.39280 0.99750 -0.01200
C 	C 	0.82420 0.37800 0.08250 -0.00500
H 	H 	0.80770 0.39580 0.11000 0.00800
C 	C 	0.87350 0.45780 0.53340 0.22800
C 	C 	0.78460 0.48550 0.53070 -0.62300
H 	H 	0.78190 0.51170 0.50520 0.18300
H 	H 	0.73200 0.46120 0.52320 0.19300
H 	H 	0.77980 0.50220 0.56190 0.20200
Gd	Gd	0.52287 0.91571 0.28107 1.18700
Ag	Ag	0.07450 0.98009 0.42629 0.49200
Ag	Ag	0.91733 0.88500 0.96665 0.51100
Ag	Ag	0.01542 0.23994 0.31604 0.50100
N 	N 	0.70960 0.91390 0.28530 -0.11400
N 	N 	0.61350 0.98610 0.32880 -0.21800
N 	N 	0.71760 0.05010 0.32450 -0.13200
N 	N 	0.01560 0.05020 0.39300 -0.19000
N 	N 	0.58930 0.92380 0.20230 -0.21900
N 	N 	0.68120 0.88390 0.15450 -0.13300
N 	N 	0.90410 0.89820 0.04740 -0.17400
N 	N 	0.60750 0.83740 0.31960 -0.21600
N 	N 	0.71170 0.81820 0.38470 -0.13200
N 	N 	0.92720 0.69360 0.42780 -0.17300
N 	N 	0.33520 0.91590 0.27440 -0.11300
N 	N 	0.43760 0.99930 0.25560 -0.21600
N 	N 	0.34950 0.05850 0.28650 -0.13500
N 	N 	0.08670 0.17700 0.28020 -0.18500
N 	N 	0.43600 0.85080 0.22500 -0.21500
N 	N 	0.33550 0.85140 0.15580 -0.13300
N 	N 	0.04970 0.78570 0.13210 -0.18400
N 	N 	0.45060 0.89850 0.35710 -0.21700
N 	N 	0.35580 0.84260 0.38870 -0.13300
N 	N 	0.11850 0.90180 0.44520 -0.19100
N 	N 	0.05690 0.93620 0.96340 -0.24400
C 	C 	0.74490 0.96690 0.28140 -0.15900
H 	H 	0.81370 0.96830 0.29260 0.06600
H 	H 	0.73430 0.97860 0.24720 0.06500
C 	C 	0.69280 0.00130 0.31210 0.12200
C 	C 	0.58650 0.02830 0.35410 0.05500
C 	C 	0.50690 0.03480 0.37930 -0.08900
H 	H 	0.46320 0.00760 0.38210 0.04800
C 	C 	0.49640 0.08340 0.40010 -0.02500
H 	H 	0.44410 0.08930 0.41730 0.02900
C 	C 	0.56020 0.12300 0.39610 -0.02800
H 	H 	0.54980 0.15530 0.41080 0.03500
C 	C 	0.63760 0.11790 0.37190 -0.07800
H 	H 	0.68040 0.14560 0.36920 0.05700
C 	C 	0.64960 0.06870 0.35120 0.04700
C 	C 	0.79400 0.08040 0.30690 -0.08300
H 	H 	0.81330 0.06290 0.27810 0.04600
H 	H 	0.76870 0.11480 0.29640 0.05000
C 	C 	0.88100 0.08780 0.34400 0.01900
C 	C 	0.90960 0.13470 0.36040 -0.06100
H 	H 	0.87360 0.16440 0.34960 0.02500
C 	C 	0.99190 0.14020 0.39330 -0.07600
H 	H 	0.01140 0.17340 0.40540 0.02800
C 	C 	0.04440 0.09720 0.40770 0.02700
H 	H 	0.10220 0.10110 0.42860 -0.01000
C 	C 	0.93610 0.04560 0.36170 -0.01000
H 	H 	0.91640 0.01200 0.35100 0.00600
C 	C 	0.73480 0.88270 0.24430 -0.15900
H 	H 	0.80100 0.88980 0.23910 0.06600
H 	H 	0.72890 0.84550 0.25140 0.06300
C 	C 	0.66800 0.89720 0.19970 0.12400
C 	C 	0.54820 0.92870 0.15460 0.05900
C 	C 	0.46460 0.95330 0.13450 -0.09700
H 	H 	0.42660 0.97180 0.15430 0.05000
C 	C 	0.43920 0.94970 0.08490 -0.02100
H 	H 	0.38180 0.96510 0.07060 0.01800
C 	C 	0.49610 0.92390 0.05570 -0.03900
H 	H 	0.47690 0.92290 0.02180 0.02900
C 	C 	0.57880 0.89980 0.07400 -0.07700
H 	H 	0.61670 0.88170 0.05380 0.04700
C 	C 	0.60400 0.90370 0.12430 0.04300
C 	C 	0.75420 0.84930 0.13930 -0.07000
H 	H 	0.78380 0.82960 0.16780 0.03000
H 	H 	0.72360 0.82420 0.11530 0.04300
C 	C 	0.83010 0.87820 0.11730 0.00200
C 	C 	0.89500 0.90970 0.14490 -0.04400
H 	H 	0.89110 0.91450 0.17850 0.03100
C 	C 	0.96470 0.93390 0.12380 -0.07900
H 	H 	0.01000 0.95510 0.14250 0.04200
C 	C 	0.96780 0.92690 0.07490 0.03400
H 	H 	0.01700 0.94300 0.06040 0.00100
C 	C 	0.83780 0.87410 0.06840 -0.00500
H 	H 	0.79340 0.85310 0.04890 0.00700
C 	C 	0.75240 0.89050 0.33180 -0.16100
H 	H 	0.75970 0.91710 0.35760 0.06200
H 	H 	0.81590 0.87660 0.32830 0.06600
C 	C 	0.69050 0.84870 0.34490 0.12200
C 	C 	0.57090 0.79670 0.34360 0.05800
C 	C 	0.48730 0.76850 0.33270 -0.09300
H 	H 	0.44500 0.77480 0.30400 0.04900
C 	C 	0.46890 0.73090 0.36560 -0.01900
H 	H 	0.41350 0.71030 0.35880 0.02700
C 	C 	0.52930 0.72240 0.40830 -0.03500
H 	H 	0.51150 0.69780 0.43080 0.03200
C 	C 	0.61500 0.74850 0.41940 -0.07700
H 	H 	0.65680 0.74200 0.44830 0.04800
C 	C 	0.63470 0.78460 0.38550 0.04700
C 	C 	0.79480 0.82070 0.42070 -0.07000
H 	H 	0.82410 0.85530 0.41960 0.03700
H 	H 	0.77550 0.81600 0.45330 0.04500
C 	C 	0.86770 0.77970 0.41240 0.01100
C 	C 	0.93810 0.78880 0.38260 -0.04600
H 	H 	0.94280 0.82120 0.36690 0.03000
C 	C 	0.00180 0.74820 0.37660 -0.07100
H 	H 	0.05040 0.75320 0.35670 0.03800
C 	C 	0.99460 0.70340 0.39830 0.02900
H 	H 	0.03820 0.67680 0.39330 0.00100
C 	C 	0.86700 0.73150 0.43450 -0.00100
H 	H 	0.82080 0.72520 0.45560 0.01000
C 	C 	0.30210 0.96580 0.29210 -0.15900
H 	H 	0.23560 0.97200 0.27810 0.06700
H 	H 	0.30500 0.96490 0.32790 0.06100
C 	C 	0.36410 0.00850 0.27750 0.12700
C 	C 	0.47520 0.04880 0.24770 0.04900
C 	C 	0.55430 0.06290 0.22510 -0.09000
H 	H 	0.59070 0.03810 0.21050 0.04900
C 	C 	0.57580 0.11480 0.22550 -0.02100
H 	H 	0.62740 0.12600 0.20970 0.02700
C 	C 	0.52520 0.15130 0.24790 -0.03400
H 	H 	0.54500 0.18630 0.24830 0.03800
C 	C 	0.44500 0.13780 0.27010 -0.07600
H 	H 	0.40910 0.16260 0.28510 0.05700
C 	C 	0.42250 0.08530 0.26850 0.04900
C 	C 	0.28160 0.08090 0.31630 -0.07500
H 	H 	0.25830 0.05310 0.33620 0.03700
H 	H 	0.31510 0.10650 0.33870 0.04800
C 	C 	0.19760 0.10690 0.28720 0.01300
C 	C 	0.15380 0.08810 0.24470 -0.04300
H 	H 	0.17750 0.05780 0.23120 0.03800
C 	C 	0.07300 0.11330 0.22010 -0.08700
H 	H 	0.04170 0.10070 0.19020 0.04400
C 	C 	0.04290 0.15630 0.24140 0.05100
H 	H 	0.98600 0.17210 0.22700 -0.01500
C 	C 	0.16560 0.15290 0.30230 -0.00800
H 	H 	0.20030 0.16900 0.32970 0.01000
C 	C 	0.29700 0.90830 0.22240 -0.16800
H 	H 	0.29830 0.94150 0.20480 0.06600
H 	H 	0.23060 0.89630 0.21970 0.07100
C 	C 	0.35500 0.87010 0.20130 0.12100
C 	C 	0.46990 0.81740 0.19110 0.05200
C 	C 	0.55140 0.78720 0.19600 -0.09300
H 	H 	0.59170 0.78470 0.22590 0.05000
C 	C 	0.57100 0.76110 0.15490 -0.02200
H 	H 	0.62640 0.74030 0.15670 0.02400
C 	C 	0.51160 0.76440 0.11120 -0.03400
H 	H 	0.52930 0.74690 0.08380 0.03200
C 	C 	0.42640 0.79260 0.10610 -0.08000
H 	H 	0.38470 0.79410 0.07660 0.05500
C 	C 	0.40840 0.81810 0.14790 0.05000
C 	C 	0.26150 0.87120 0.11850 -0.08000
H 	H 	0.23890 0.90480 0.12950 0.04400
H 	H 	0.29010 0.87760 0.08840 0.05000
C 	C 	0.17690 0.83550 0.10670 0.01700
C 	C 	0.14120 0.82800 0.05860 -0.05000
H 	H 	0.17160 0.84260 0.03330 0.03300
C 	C 	0.05980 0.79860 0.04830 -0.08100
H 	H 	0.03430 0.79210 0.01560 0.04100
C 	C 	0.01730 0.77950 0.08450 0.03700
H 	H 	0.96060 0.76030 0.07640 -0.01000
C 	C 	0.13030 0.81410 0.14200 -0.00700
H 	H 	0.15560 0.81930 0.17490 0.01500
C 	C 	0.30500 0.87280 0.30360 -0.15800
H 	H 	0.23890 0.87810 0.31000 0.06500
H 	H 	0.30830 0.83970 0.28600 0.06300
C 	C 	0.37010 0.87130 0.35040 0.12000
C 	C 	0.49130 0.88650 0.40410 0.05500
C 	C 	0.57510 0.90290 0.43070 -0.09300
H 	H 	0.61430 0.92790 0.41820 0.04800
C 	C 	0.59960 0.88160 0.47630 -0.02400
H 	H 	0.65720 0.89170 0.49500 0.02200
C 	C 	0.54100 0.84550 0.49520 -0.03000
H 	H 	0.56020 0.83140 0.52650 0.02900
C 	C 	0.45760 0.82980 0.47020 -0.08100
H 	H 	0.41770 0.80580 0.48350 0.05600
C 	C 	0.43350 0.85050 0.42430 0.05000
C 	C 	0.27800 0.80700 0.39400 -0.07800
H 	H 	0.24240 0.79990 0.36170 0.04200
H 	H 	0.30410 0.77390 0.40760 0.05000
C 	C 	0.21170 0.82930 0.42680 0.01500
C 	C 	0.18680 0.80360 0.46600 -0.04600
H 	H 	0.20950 0.76960 0.47330 0.03900
C 	C 	0.12740 0.82790 0.49540 -0.07600
H 	H 	0.11020 0.81110 0.52330 0.05200
C 	C 	0.09470 0.87660 0.48300 0.04100
H 	H 	0.05320 0.89280 0.50250 -0.01200
C 	C 	0.17580 0.87800 0.41750 -0.00500
H 	H 	0.19230 0.89580 0.39000 0.00800
C 	C 	0.12650 0.95780 0.96660 0.22700
C 	C 	0.21540 0.98550 0.96930 -0.61700
H 	H 	0.21810 0.01170 0.99480 0.18100
H 	H 	0.26800 0.96120 0.97680 0.19100
H 	H 	0.22020 0.00220 0.93810 0.19900
