data_crystal

_cell_length_a 14.24370
_cell_length_b 25.82960
_cell_length_c 27.83910
_cell_angle_alpha 90.00000
_cell_angle_beta  97.59200
_cell_angle_gamma 90.00000

_symmetry_space_group_name_	'P 1'
_symmetry_space_group_name_H-M	'P 1'

loop_
_symmetry_equiv_pos_as_xyz
  x,y,z

loop_
_atom_site_label
_atom_site_type_symbol
_atom_site_fract_x
_atom_site_fract_y
_atom_site_fract_z
_atom_site_charge
Eu	Eu	0.52224 0.58486 0.78094 1.45700
Ag	Ag	0.07392 0.52020 0.92649 0.49300
Ag	Ag	0.91786 0.61498 0.46745 0.51200
Ag	Ag	0.01572 0.26053 0.81619 0.50200
N 	N 	0.70940 0.58689 0.78529 -0.12900
N 	N 	0.61340 0.51418 0.82851 -0.23900
N 	N 	0.71710 0.45031 0.82428 -0.13400
N 	N 	0.01510 0.45040 0.89340 -0.19200
N 	N 	0.58940 0.57692 0.70225 -0.24000
N 	N 	0.68080 0.61705 0.65413 -0.13200
N 	N 	0.90560 0.60220 0.54798 -0.17600
N 	N 	0.60750 0.66295 0.81972 -0.23800
N 	N 	0.71080 0.68269 0.88448 -0.13400
N 	N 	0.92720 0.80710 0.92849 -0.17400
N 	N 	0.33400 0.58438 0.77409 -0.12800
N 	N 	0.43750 0.50088 0.75496 -0.23700
N 	N 	0.34950 0.44189 0.78670 -0.13400
N 	N 	0.08710 0.32300 0.78020 -0.18600
N 	N 	0.43400 0.64984 0.72481 -0.23700
N 	N 	0.33420 0.64916 0.65520 -0.13300
N 	N 	0.04980 0.71630 0.63130 -0.18500
N 	N 	0.44890 0.60177 0.85678 -0.23900
N 	N 	0.35460 0.65773 0.88900 -0.13300
N 	N 	0.11850 0.59820 0.94490 -0.19100
N 	N 	0.05760 0.56360 0.46460 -0.24400
C 	C 	0.74450 0.53370 0.78140 -0.16300
H 	H 	0.81330 0.53230 0.79290 0.06700
H 	H 	0.73430 0.52220 0.74720 0.06300
C 	C 	0.69240 0.49910 0.81154 0.11900
C 	C 	0.58570 0.47130 0.85398 0.05100
C 	C 	0.50810 0.46530 0.87920 -0.08900
H 	H 	0.46520 0.49290 0.88220 0.04300
C 	C 	0.49640 0.41700 0.89970 -0.02700
H 	H 	0.44370 0.41120 0.91670 0.02900
C 	C 	0.56160 0.37670 0.89580 -0.02600
H 	H 	0.55140 0.34410 0.91020 0.03500
C 	C 	0.63850 0.38290 0.87210 -0.08200
H 	H 	0.68220 0.35550 0.86980 0.05800
C 	C 	0.65040 0.43160 0.85124 0.05100
C 	C 	0.79340 0.42020 0.80720 -0.07900
H 	H 	0.81220 0.43740 0.77810 0.04500
H 	H 	0.76850 0.38550 0.79710 0.04800
C 	C 	0.88150 0.41330 0.84430 0.01500
C 	C 	0.90920 0.36570 0.86090 -0.05500
H 	H 	0.87290 0.33590 0.85050 0.02400
C 	C 	0.99250 0.36100 0.89360 -0.08700
H 	H 	0.01310 0.32790 0.90560 0.03200
C 	C 	0.04250 0.40310 0.90770 0.03900
H 	H 	0.10020 0.39910 0.92870 -0.01400
C 	C 	0.93410 0.45360 0.86190 -0.01100
H 	H 	0.91310 0.48720 0.85150 0.00700
C 	C 	0.73520 0.61810 0.74422 -0.16100
H 	H 	0.80120 0.61060 0.73890 0.06600
H 	H 	0.73010 0.65550 0.75130 0.06000
C 	C 	0.66820 0.60390 0.70020 0.11700
C 	C 	0.54770 0.57190 0.65423 0.05600
C 	C 	0.46440 0.54750 0.63470 -0.09600
H 	H 	0.42620 0.52940 0.65460 0.04500
C 	C 	0.43910 0.55060 0.58470 -0.02500
H 	H 	0.38260 0.53430 0.57020 0.02000
C 	C 	0.49610 0.57750 0.55540 -0.03600
H 	H 	0.47600 0.57960 0.52160 0.02800
C 	C 	0.57940 0.60070 0.57400 -0.08100
H 	H 	0.61830 0.61820 0.55410 0.04900
C 	C 	0.60380 0.59700 0.62404 0.04600
C 	C 	0.75380 0.65140 0.63930 -0.07000
H 	H 	0.78350 0.67100 0.66790 0.02900
H 	H 	0.72370 0.67660 0.61530 0.04300
C 	C 	0.82970 0.62190 0.61750 0.00200
C 	C 	0.89490 0.59080 0.64540 -0.04200
H 	H 	0.89270 0.58690 0.67910 0.03000
C 	C 	0.96250 0.56600 0.62350 -0.08400
H 	H 	0.00610 0.54340 0.64180 0.04300
C 	C 	0.96730 0.57360 0.57570 0.04300
H 	H 	0.01720 0.55760 0.56160 -0.00200
C 	C 	0.83860 0.62640 0.56930 -0.00700
H 	H 	0.79470 0.64790 0.54980 0.00800
C 	C 	0.75200 0.60980 0.83190 -0.16300
H 	H 	0.75810 0.58300 0.85760 0.05900
H 	H 	0.81590 0.62330 0.82880 0.06700
C 	C 	0.69040 0.65220 0.84485 0.12100
C 	C 	0.57130 0.70420 0.84430 0.05100
C 	C 	0.48760 0.73210 0.83320 -0.08800
H 	H 	0.44580 0.72590 0.80420 0.04300
C 	C 	0.46790 0.76940 0.86620 -0.02500
H 	H 	0.41160 0.78940 0.85980 0.02800
C 	C 	0.52920 0.77800 0.90870 -0.03000
H 	H 	0.51220 0.80290 0.93120 0.03000
C 	C 	0.61390 0.75170 0.91930 -0.08300
H 	H 	0.65580 0.75810 0.94820 0.05000
C 	C 	0.63410 0.71590 0.88580 0.05200
C 	C 	0.79530 0.68030 0.92100 -0.07500
H 	H 	0.82440 0.64560 0.92020 0.03800
H 	H 	0.77600 0.68520 0.95360 0.04600
C 	C 	0.86780 0.72090 0.91280 0.01400
C 	C 	0.93740 0.71150 0.88320 -0.04800
H 	H 	0.94130 0.67890 0.86770 0.03100
C 	C 	0.00070 0.75080 0.87690 -0.06600
H 	H 	0.04880 0.74550 0.85680 0.03700
C 	C 	0.99370 0.79720 0.89960 0.02700
H 	H 	0.03780 0.82370 0.89480 0.00200
C 	C 	0.86730 0.76870 0.93520 -0.00400
H 	H 	0.82170 0.77450 0.95670 0.01100
C 	C 	0.30180 0.53440 0.79158 -0.16200
H 	H 	0.23540 0.52800 0.77740 0.06700
H 	H 	0.30440 0.53540 0.82730 0.05900
C 	C 	0.36350 0.49210 0.77756 0.11900
C 	C 	0.47500 0.45200 0.74755 0.05100
C 	C 	0.55380 0.43720 0.72520 -0.09200
H 	H 	0.59000 0.46190 0.71030 0.04500
C 	C 	0.57600 0.38550 0.72590 -0.02100
H 	H 	0.62810 0.37420 0.71050 0.02700
C 	C 	0.52460 0.34900 0.74830 -0.03200
H 	H 	0.54440 0.31390 0.74910 0.03600
C 	C 	0.44570 0.36220 0.76960 -0.07800
H 	H 	0.40990 0.33710 0.78420 0.05700
C 	C 	0.42160 0.41470 0.76830 0.04800
C 	C 	0.28130 0.42000 0.81660 -0.07500
H 	H 	0.25680 0.44810 0.83570 0.03700
H 	H 	0.31440 0.39480 0.83970 0.04700
C 	C 	0.19780 0.39300 0.78630 0.01200
C 	C 	0.15430 0.41230 0.74400 -0.04100
H 	H 	0.17590 0.44340 0.73100 0.03800
C 	C 	0.07600 0.38530 0.71960 -0.08900
H 	H 	0.04600 0.39680 0.68900 0.04500
C 	C 	0.04510 0.34280 0.74060 0.05500
H 	H 	0.98910 0.32660 0.72550 -0.01600
C 	C 	0.16570 0.34740 0.80230 -0.00700
H 	H 	0.19980 0.33190 0.83030 0.01000
C 	C 	0.29510 0.59180 0.72241 -0.16500
H 	H 	0.29600 0.55860 0.70470 0.06200
H 	H 	0.22880 0.60410 0.71980 0.06900
C 	C 	0.35420 0.63060 0.70110 0.11400
C 	C 	0.46790 0.68350 0.69130 0.04700
C 	C 	0.55070 0.71360 0.69570 -0.09000
H 	H 	0.59140 0.71600 0.72550 0.04400
C 	C 	0.57020 0.73950 0.65500 -0.02600
H 	H 	0.62580 0.76010 0.65660 0.02600
C 	C 	0.50900 0.73600 0.61100 -0.02900
H 	H 	0.52600 0.75350 0.58330 0.03000
C 	C 	0.42510 0.70810 0.60630 -0.08500
H 	H 	0.38320 0.70680 0.57680 0.05700
C 	C 	0.40670 0.68240 0.64750 0.05400
C 	C 	0.26020 0.62980 0.61850 -0.07600
H 	H 	0.23760 0.59610 0.62960 0.04300
H 	H 	0.28830 0.62330 0.58840 0.04900
C 	C 	0.17580 0.66500 0.60650 0.01400
C 	C 	0.14010 0.67310 0.55880 -0.04700
H 	H 	0.17050 0.65820 0.53370 0.03300
C 	C 	0.06030 0.70290 0.54740 -0.08400
H 	H 	0.03610 0.70980 0.51460 0.04300
C 	C 	0.01710 0.72230 0.58400 0.04000
H 	H 	0.96000 0.74120 0.57580 -0.01100
C 	C 	0.12940 0.68690 0.64100 -0.00500
H 	H 	0.15420 0.68140 0.67400 0.01400
C 	C 	0.30470 0.62710 0.80395 -0.16400
H 	H 	0.23880 0.62150 0.81060 0.06600
H 	H 	0.30720 0.66040 0.78650 0.06100
C 	C 	0.36970 0.62870 0.85012 0.12000
C 	C 	0.49000 0.61430 0.90445 0.04800
C 	C 	0.57460 0.59720 0.93079 -0.08900
H 	H 	0.61370 0.57250 0.91790 0.04200
C 	C 	0.59870 0.61810 0.97670 -0.02700
H 	H 	0.65550 0.60730 0.99580 0.02300
C 	C 	0.54040 0.65490 0.99539 -0.02900
H 	H 	0.56020 0.66930 0.02650 0.02900
C 	C 	0.45540 0.67070 0.97002 -0.08300
H 	H 	0.41540 0.69490 0.98310 0.05700
C 	C 	0.43200 0.64940 0.92451 0.05300
C 	C 	0.27640 0.69320 0.89410 -0.07700
H 	H 	0.24060 0.70030 0.86180 0.04100
H 	H 	0.30190 0.72640 0.90790 0.04900
C 	C 	0.21060 0.67010 0.92670 0.01300
C 	C 	0.18670 0.69610 0.96630 -0.04500
H 	H 	0.21110 0.72980 0.97400 0.03900
C 	C 	0.12690 0.67280 0.99490 -0.07100
H 	H 	0.10810 0.69050 0.02200 0.05000
C 	C 	0.09500 0.62390 0.98360 0.03400
H 	H 	0.05490 0.60750 0.00370 -0.00900
C 	C 	0.17420 0.62220 0.91740 -0.00000
H 	H 	0.18940 0.60470 0.88940 0.00600
C 	C 	0.12600 0.54140 0.46780 0.22100
C 	C 	0.21560 0.51330 0.47020 -0.60600
H 	H 	0.21860 0.48690 0.49570 0.17700
H 	H 	0.26850 0.53750 0.47760 0.18900
H 	H 	0.21980 0.49650 0.43900 0.19700
Eu	Eu	0.47776 0.08486 0.71906 1.45600
Ag	Ag	0.92608 0.02020 0.57351 0.49300
Ag	Ag	0.08214 0.11498 0.03255 0.51200
Ag	Ag	0.98428 0.76053 0.68381 0.50100
N 	N 	0.29060 0.08689 0.71471 -0.12900
N 	N 	0.38660 0.01418 0.67149 -0.24000
N 	N 	0.28290 0.95031 0.67572 -0.13400
N 	N 	0.98490 0.95040 0.60660 -0.19300
N 	N 	0.41060 0.07692 0.79775 -0.24000
N 	N 	0.31920 0.11705 0.84587 -0.13200
N 	N 	0.09440 0.10220 0.95202 -0.17600
N 	N 	0.39250 0.16295 0.68028 -0.23800
N 	N 	0.28920 0.18269 0.61552 -0.13400
N 	N 	0.07280 0.30710 0.57151 -0.17400
N 	N 	0.66600 0.08438 0.72591 -0.12800
N 	N 	0.56250 0.00088 0.74504 -0.23700
N 	N 	0.65050 0.94189 0.71330 -0.13400
N 	N 	0.91290 0.82300 0.71980 -0.18600
N 	N 	0.56600 0.14984 0.77519 -0.23700
N 	N 	0.66580 0.14916 0.84480 -0.13300
N 	N 	0.95020 0.21630 0.86870 -0.18500
N 	N 	0.55110 0.10177 0.64322 -0.23900
N 	N 	0.64540 0.15773 0.61100 -0.13300
N 	N 	0.88150 0.09820 0.55510 -0.19100
N 	N 	0.94240 0.06360 0.03540 -0.24300
C 	C 	0.25550 0.03370 0.71860 -0.16400
H 	H 	0.18670 0.03230 0.70710 0.06700
H 	H 	0.26570 0.02220 0.75280 0.06300
C 	C 	0.30760 0.99910 0.68846 0.12000
C 	C 	0.41430 0.97130 0.64602 0.05200
C 	C 	0.49190 0.96530 0.62080 -0.08900
H 	H 	0.53480 0.99290 0.61780 0.04300
C 	C 	0.50360 0.91700 0.60030 -0.02700
H 	H 	0.55630 0.91120 0.58330 0.02900
C 	C 	0.43840 0.87670 0.60420 -0.02600
H 	H 	0.44860 0.84410 0.58980 0.03500
C 	C 	0.36150 0.88290 0.62790 -0.08200
H 	H 	0.31780 0.85550 0.63020 0.05800
C 	C 	0.34960 0.93160 0.64876 0.05000
C 	C 	0.20660 0.92020 0.69280 -0.07900
H 	H 	0.18780 0.93740 0.72190 0.04500
H 	H 	0.23150 0.88550 0.70290 0.04800
C 	C 	0.11850 0.91330 0.65570 0.01600
C 	C 	0.09080 0.86570 0.63910 -0.05700
H 	H 	0.12710 0.83590 0.64950 0.02400
C 	C 	0.00750 0.86100 0.60640 -0.08400
H 	H 	0.98690 0.82790 0.59440 0.03100
C 	C 	0.95750 0.90310 0.59230 0.03600
H 	H 	0.89980 0.89910 0.57130 -0.01300
C 	C 	0.06590 0.95360 0.63810 -0.01000
H 	H 	0.08690 0.98720 0.64850 0.00800
C 	C 	0.26480 0.11810 0.75578 -0.16100
H 	H 	0.19880 0.11060 0.76110 0.06600
H 	H 	0.26990 0.15550 0.74870 0.06000
C 	C 	0.33180 0.10390 0.79980 0.11700
C 	C 	0.45230 0.07190 0.84577 0.05600
C 	C 	0.53560 0.04750 0.86530 -0.09600
H 	H 	0.57380 0.02940 0.84540 0.04500
C 	C 	0.56090 0.05060 0.91530 -0.02500
H 	H 	0.61740 0.03430 0.92980 0.02000
C 	C 	0.50390 0.07750 0.94460 -0.03600
H 	H 	0.52400 0.07960 0.97840 0.02800
C 	C 	0.42060 0.10070 0.92600 -0.08100
H 	H 	0.38170 0.11820 0.94590 0.04900
C 	C 	0.39620 0.09700 0.87596 0.04600
C 	C 	0.24620 0.15140 0.86070 -0.07000
H 	H 	0.21650 0.17100 0.83210 0.02900
H 	H 	0.27630 0.17660 0.88470 0.04300
C 	C 	0.17030 0.12190 0.88250 0.00200
C 	C 	0.10510 0.09080 0.85460 -0.04200
H 	H 	0.10730 0.08690 0.82090 0.03000
C 	C 	0.03750 0.06600 0.87650 -0.08500
H 	H 	0.99390 0.04340 0.85820 0.04400
C 	C 	0.03270 0.07360 0.92430 0.04300
H 	H 	0.98280 0.05760 0.93840 -0.00200
C 	C 	0.16140 0.12640 0.93070 -0.00700
H 	H 	0.20530 0.14790 0.95020 0.00800
C 	C 	0.24800 0.10980 0.66810 -0.16300
H 	H 	0.24190 0.08300 0.64240 0.05900
H 	H 	0.18410 0.12330 0.67120 0.06700
C 	C 	0.30960 0.15220 0.65515 0.12100
C 	C 	0.42870 0.20420 0.65570 0.05100
C 	C 	0.51240 0.23210 0.66680 -0.08800
H 	H 	0.55420 0.22590 0.69580 0.04300
C 	C 	0.53210 0.26940 0.63380 -0.02500
H 	H 	0.58840 0.28940 0.64020 0.02800
C 	C 	0.47080 0.27800 0.59130 -0.03000
H 	H 	0.48780 0.30290 0.56880 0.03000
C 	C 	0.38610 0.25170 0.58070 -0.08300
H 	H 	0.34420 0.25810 0.55180 0.05000
C 	C 	0.36590 0.21590 0.61420 0.05200
C 	C 	0.20470 0.18030 0.57900 -0.07500
H 	H 	0.17560 0.14560 0.57980 0.03800
H 	H 	0.22400 0.18520 0.54640 0.04600
C 	C 	0.13220 0.22090 0.58720 0.01400
C 	C 	0.06260 0.21150 0.61680 -0.04700
H 	H 	0.05870 0.17890 0.63230 0.03100
C 	C 	0.99930 0.25080 0.62310 -0.06800
H 	H 	0.95120 0.24550 0.64320 0.03700
C 	C 	0.00630 0.29720 0.60040 0.02800
H 	H 	0.96220 0.32370 0.60520 0.00100
C 	C 	0.13270 0.26870 0.56480 -0.00400
H 	H 	0.17830 0.27450 0.54330 0.01000
C 	C 	0.69820 0.03440 0.70842 -0.16200
H 	H 	0.76460 0.02800 0.72260 0.06700
H 	H 	0.69560 0.03540 0.67270 0.05900
C 	C 	0.63650 0.99210 0.72244 0.11900
C 	C 	0.52500 0.95200 0.75245 0.05100
C 	C 	0.44620 0.93720 0.77480 -0.09200
H 	H 	0.41000 0.96190 0.78970 0.04600
C 	C 	0.42400 0.88550 0.77410 -0.02100
H 	H 	0.37190 0.87420 0.78950 0.02700
C 	C 	0.47540 0.84900 0.75170 -0.03200
H 	H 	0.45560 0.81390 0.75090 0.03700
C 	C 	0.55430 0.86220 0.73040 -0.07800
H 	H 	0.59010 0.83710 0.71580 0.05700
C 	C 	0.57840 0.91470 0.73170 0.04800
C 	C 	0.71870 0.92000 0.68340 -0.07500
H 	H 	0.74320 0.94810 0.66430 0.03700
H 	H 	0.68560 0.89480 0.66030 0.04700
C 	C 	0.80220 0.89300 0.71370 0.01300
C 	C 	0.84570 0.91230 0.75600 -0.04200
H 	H 	0.82410 0.94340 0.76900 0.03800
C 	C 	0.92400 0.88530 0.78040 -0.08800
H 	H 	0.95400 0.89680 0.81100 0.04400
C 	C 	0.95490 0.84280 0.75940 0.05300
H 	H 	0.01090 0.82660 0.77450 -0.01500
C 	C 	0.83430 0.84740 0.69770 -0.00800
H 	H 	0.80020 0.83190 0.66970 0.01000
C 	C 	0.70490 0.09180 0.77759 -0.16500
H 	H 	0.70400 0.05860 0.79530 0.06200
H 	H 	0.77120 0.10410 0.78020 0.06900
C 	C 	0.64580 0.13060 0.79890 0.11400
C 	C 	0.53210 0.18350 0.80870 0.04700
C 	C 	0.44930 0.21360 0.80430 -0.09000
H 	H 	0.40860 0.21600 0.77450 0.04400
C 	C 	0.42980 0.23950 0.84500 -0.02600
H 	H 	0.37420 0.26010 0.84340 0.02600
C 	C 	0.49100 0.23600 0.88900 -0.02900
H 	H 	0.47400 0.25350 0.91670 0.03000
C 	C 	0.57490 0.20810 0.89370 -0.08500
H 	H 	0.61680 0.20680 0.92320 0.05700
C 	C 	0.59330 0.18240 0.85250 0.05400
C 	C 	0.73980 0.12980 0.88150 -0.07700
H 	H 	0.76240 0.09610 0.87040 0.04300
H 	H 	0.71170 0.12330 0.91160 0.04900
C 	C 	0.82420 0.16500 0.89350 0.01400
C 	C 	0.85990 0.17310 0.94120 -0.04700
H 	H 	0.82950 0.15820 0.96630 0.03300
C 	C 	0.93970 0.20290 0.95260 -0.08400
H 	H 	0.96390 0.20980 0.98540 0.04300
C 	C 	0.98290 0.22230 0.91600 0.03900
H 	H 	0.04000 0.24120 0.92420 -0.01000
C 	C 	0.87060 0.18690 0.85900 -0.00500
H 	H 	0.84580 0.18140 0.82600 0.01400
C 	C 	0.69530 0.12710 0.69605 -0.16400
H 	H 	0.76120 0.12150 0.68940 0.06600
H 	H 	0.69280 0.16040 0.71350 0.06100
C 	C 	0.63030 0.12870 0.64988 0.12000
C 	C 	0.51000 0.11430 0.59555 0.04800
C 	C 	0.42540 0.09720 0.56921 -0.08900
H 	H 	0.38630 0.07250 0.58210 0.04200
C 	C 	0.40130 0.11810 0.52330 -0.02700
H 	H 	0.34450 0.10730 0.50420 0.02300
C 	C 	0.45960 0.15490 0.50461 -0.02900
H 	H 	0.43980 0.16930 0.47350 0.02900
C 	C 	0.54460 0.17070 0.52998 -0.08300
H 	H 	0.58460 0.19490 0.51690 0.05700
C 	C 	0.56800 0.14940 0.57549 0.05200
C 	C 	0.72360 0.19320 0.60590 -0.07700
H 	H 	0.75940 0.20030 0.63820 0.04100
H 	H 	0.69810 0.22640 0.59210 0.04900
C 	C 	0.78940 0.17010 0.57330 0.01300
C 	C 	0.81330 0.19610 0.53370 -0.04500
H 	H 	0.78890 0.22980 0.52600 0.03900
C 	C 	0.87310 0.17280 0.50510 -0.07200
H 	H 	0.89190 0.19050 0.47800 0.05100
C 	C 	0.90500 0.12390 0.51640 0.03400
H 	H 	0.94510 0.10750 0.49630 -0.00900
C 	C 	0.82580 0.12220 0.58260 -0.00000
H 	H 	0.81060 0.10470 0.61060 0.00600
C 	C 	0.87400 0.04140 0.03220 0.22000
C 	C 	0.78440 0.01330 0.02980 -0.60000
H 	H 	0.78140 0.98690 0.00430 0.17500
H 	H 	0.73150 0.03750 0.02240 0.18700
H 	H 	0.78020 0.99650 0.06100 0.19500
Eu	Eu	0.47776 0.41514 0.21906 1.45600
Ag	Ag	0.92608 0.47980 0.07351 0.49200
Ag	Ag	0.08214 0.38502 0.53255 0.51200
Ag	Ag	0.98428 0.73947 0.18381 0.50200
N 	N 	0.29060 0.41311 0.21471 -0.12900
N 	N 	0.38660 0.48582 0.17149 -0.23900
N 	N 	0.28290 0.54969 0.17572 -0.13400
N 	N 	0.98490 0.54960 0.10660 -0.19200
N 	N 	0.41060 0.42308 0.29775 -0.24000
N 	N 	0.31920 0.38295 0.34587 -0.13200
N 	N 	0.09440 0.39780 0.45202 -0.17600
N 	N 	0.39250 0.33705 0.18028 -0.23800
N 	N 	0.28920 0.31731 0.11552 -0.13400
N 	N 	0.07280 0.19290 0.07151 -0.17400
N 	N 	0.66600 0.41562 0.22591 -0.12800
N 	N 	0.56250 0.49912 0.24504 -0.23700
N 	N 	0.65050 0.55811 0.21330 -0.13400
N 	N 	0.91290 0.67700 0.21980 -0.18600
N 	N 	0.56600 0.35016 0.27519 -0.23700
N 	N 	0.66580 0.35084 0.34480 -0.13300
N 	N 	0.95020 0.28370 0.36870 -0.18500
N 	N 	0.55110 0.39823 0.14322 -0.23900
N 	N 	0.64540 0.34227 0.11100 -0.13300
N 	N 	0.88150 0.40180 0.05510 -0.19100
N 	N 	0.94240 0.43640 0.53540 -0.24400
C 	C 	0.25550 0.46630 0.21860 -0.16300
H 	H 	0.18670 0.46770 0.20710 0.06700
H 	H 	0.26570 0.47780 0.25280 0.06300
C 	C 	0.30760 0.50090 0.18846 0.11900
C 	C 	0.41430 0.52870 0.14602 0.05100
C 	C 	0.49190 0.53470 0.12080 -0.08900
H 	H 	0.53480 0.50710 0.11780 0.04300
C 	C 	0.50360 0.58300 0.10030 -0.02700
H 	H 	0.55630 0.58880 0.08330 0.02900
C 	C 	0.43840 0.62330 0.10420 -0.02600
H 	H 	0.44860 0.65590 0.08980 0.03500
C 	C 	0.36150 0.61710 0.12790 -0.08200
H 	H 	0.31780 0.64450 0.13020 0.05800
C 	C 	0.34960 0.56840 0.14876 0.05100
C 	C 	0.20660 0.57980 0.19280 -0.07900
H 	H 	0.18780 0.56260 0.22190 0.04500
H 	H 	0.23150 0.61450 0.20290 0.04800
C 	C 	0.11850 0.58670 0.15570 0.01500
C 	C 	0.09080 0.63430 0.13910 -0.05500
H 	H 	0.12710 0.66410 0.14950 0.02400
C 	C 	0.00750 0.63900 0.10640 -0.08700
H 	H 	0.98690 0.67210 0.09440 0.03200
C 	C 	0.95750 0.59690 0.09230 0.03900
H 	H 	0.89980 0.60090 0.07130 -0.01400
C 	C 	0.06590 0.54640 0.13810 -0.01100
H 	H 	0.08690 0.51280 0.14850 0.00700
C 	C 	0.26480 0.38190 0.25578 -0.16100
H 	H 	0.19880 0.38940 0.26110 0.06600
H 	H 	0.26990 0.34450 0.24870 0.06000
C 	C 	0.33180 0.39610 0.29980 0.11700
C 	C 	0.45230 0.42810 0.34577 0.05600
C 	C 	0.53560 0.45250 0.36530 -0.09600
H 	H 	0.57380 0.47060 0.34540 0.04500
C 	C 	0.56090 0.44940 0.41530 -0.02500
H 	H 	0.61740 0.46570 0.42980 0.02000
C 	C 	0.50390 0.42250 0.44460 -0.03600
H 	H 	0.52400 0.42040 0.47840 0.02800
C 	C 	0.42060 0.39930 0.42600 -0.08100
H 	H 	0.38170 0.38180 0.44590 0.04900
C 	C 	0.39620 0.40300 0.37596 0.04600
C 	C 	0.24620 0.34860 0.36070 -0.07000
H 	H 	0.21650 0.32900 0.33210 0.02900
H 	H 	0.27630 0.32340 0.38470 0.04300
C 	C 	0.17030 0.37810 0.38250 0.00200
C 	C 	0.10510 0.40920 0.35460 -0.04200
H 	H 	0.10730 0.41310 0.32090 0.03000
C 	C 	0.03750 0.43400 0.37650 -0.08400
H 	H 	0.99390 0.45660 0.35820 0.04300
C 	C 	0.03270 0.42640 0.42430 0.04300
H 	H 	0.98280 0.44240 0.43840 -0.00200
C 	C 	0.16140 0.37360 0.43070 -0.00700
H 	H 	0.20530 0.35210 0.45020 0.00800
C 	C 	0.24800 0.39020 0.16810 -0.16300
H 	H 	0.24190 0.41700 0.14240 0.05900
H 	H 	0.18410 0.37670 0.17120 0.06700
C 	C 	0.30960 0.34780 0.15515 0.12100
C 	C 	0.42870 0.29580 0.15570 0.05100
C 	C 	0.51240 0.26790 0.16680 -0.08800
H 	H 	0.55420 0.27410 0.19580 0.04300
C 	C 	0.53210 0.23060 0.13380 -0.02500
H 	H 	0.58840 0.21060 0.14020 0.02800
C 	C 	0.47080 0.22200 0.09130 -0.03000
H 	H 	0.48780 0.19710 0.06880 0.03000
C 	C 	0.38610 0.24830 0.08070 -0.08300
H 	H 	0.34420 0.24190 0.05180 0.05000
C 	C 	0.36590 0.28410 0.11420 0.05200
C 	C 	0.20470 0.31970 0.07900 -0.07500
H 	H 	0.17560 0.35440 0.07980 0.03800
H 	H 	0.22400 0.31480 0.04640 0.04600
C 	C 	0.13220 0.27910 0.08720 0.01400
C 	C 	0.06260 0.28850 0.11680 -0.04800
H 	H 	0.05870 0.32110 0.13230 0.03100
C 	C 	0.99930 0.24920 0.12310 -0.06600
H 	H 	0.95120 0.25450 0.14320 0.03700
C 	C 	0.00630 0.20280 0.10040 0.02700
H 	H 	0.96220 0.17630 0.10520 0.00200
C 	C 	0.13270 0.23130 0.06480 -0.00400
H 	H 	0.17830 0.22550 0.04330 0.01100
C 	C 	0.69820 0.46560 0.20842 -0.16200
H 	H 	0.76460 0.47200 0.22260 0.06700
H 	H 	0.69560 0.46460 0.17270 0.05900
C 	C 	0.63650 0.50790 0.22244 0.11900
C 	C 	0.52500 0.54800 0.25245 0.05100
C 	C 	0.44620 0.56280 0.27480 -0.09200
H 	H 	0.41000 0.53810 0.28970 0.04500
C 	C 	0.42400 0.61450 0.27410 -0.02100
H 	H 	0.37190 0.62580 0.28950 0.02700
C 	C 	0.47540 0.65100 0.25170 -0.03200
H 	H 	0.45560 0.68610 0.25090 0.03600
C 	C 	0.55430 0.63780 0.23040 -0.07800
H 	H 	0.59010 0.66290 0.21580 0.05700
C 	C 	0.57840 0.58530 0.23170 0.04800
C 	C 	0.71870 0.58000 0.18340 -0.07500
H 	H 	0.74320 0.55190 0.16430 0.03700
H 	H 	0.68560 0.60520 0.16030 0.04700
C 	C 	0.80220 0.60700 0.21370 0.01200
C 	C 	0.84570 0.58770 0.25600 -0.04100
H 	H 	0.82410 0.55660 0.26900 0.03800
C 	C 	0.92400 0.61470 0.28040 -0.08900
H 	H 	0.95400 0.60320 0.31100 0.04500
C 	C 	0.95490 0.65720 0.25940 0.05500
H 	H 	0.01090 0.67340 0.27450 -0.01600
C 	C 	0.83430 0.65260 0.19770 -0.00700
H 	H 	0.80020 0.66810 0.16970 0.01000
C 	C 	0.70490 0.40820 0.27759 -0.16500
H 	H 	0.70400 0.44140 0.29530 0.06200
H 	H 	0.77120 0.39590 0.28020 0.06900
C 	C 	0.64580 0.36940 0.29890 0.11400
C 	C 	0.53210 0.31650 0.30870 0.04700
C 	C 	0.44930 0.28640 0.30430 -0.09000
H 	H 	0.40860 0.28400 0.27450 0.04400
C 	C 	0.42980 0.26050 0.34500 -0.02600
H 	H 	0.37420 0.23990 0.34340 0.02600
C 	C 	0.49100 0.26400 0.38900 -0.02900
H 	H 	0.47400 0.24650 0.41670 0.03000
C 	C 	0.57490 0.29190 0.39370 -0.08500
H 	H 	0.61680 0.29320 0.42320 0.05700
C 	C 	0.59330 0.31760 0.35250 0.05400
C 	C 	0.73980 0.37020 0.38150 -0.07600
H 	H 	0.76240 0.40390 0.37040 0.04300
H 	H 	0.71170 0.37670 0.41160 0.04900
C 	C 	0.82420 0.33500 0.39350 0.01400
C 	C 	0.85990 0.32690 0.44120 -0.04700
H 	H 	0.82950 0.34180 0.46630 0.03300
C 	C 	0.93970 0.29710 0.45260 -0.08400
H 	H 	0.96390 0.29020 0.48540 0.04300
C 	C 	0.98290 0.27770 0.41600 0.04000
H 	H 	0.04000 0.25880 0.42420 -0.01100
C 	C 	0.87060 0.31310 0.35900 -0.00500
H 	H 	0.84580 0.31860 0.32600 0.01400
C 	C 	0.69530 0.37290 0.19605 -0.16400
H 	H 	0.76120 0.37850 0.18940 0.06600
H 	H 	0.69280 0.33960 0.21350 0.06100
C 	C 	0.63030 0.37130 0.14988 0.12000
C 	C 	0.51000 0.38570 0.09555 0.04800
C 	C 	0.42540 0.40280 0.06921 -0.08900
H 	H 	0.38630 0.42750 0.08210 0.04200
C 	C 	0.40130 0.38190 0.02330 -0.02700
H 	H 	0.34450 0.39270 0.00420 0.02300
C 	C 	0.45960 0.34510 0.00461 -0.02900
H 	H 	0.43980 0.33070 0.97350 0.02900
C 	C 	0.54460 0.32930 0.02998 -0.08300
H 	H 	0.58460 0.30510 0.01690 0.05700
C 	C 	0.56800 0.35060 0.07549 0.05300
C 	C 	0.72360 0.30680 0.10590 -0.07700
H 	H 	0.75940 0.29970 0.13820 0.04100
H 	H 	0.69810 0.27360 0.09210 0.04900
C 	C 	0.78940 0.32990 0.07330 0.01300
C 	C 	0.81330 0.30390 0.03370 -0.04500
H 	H 	0.78890 0.27020 0.02600 0.03900
C 	C 	0.87310 0.32720 0.00510 -0.07100
H 	H 	0.89190 0.30950 0.97800 0.05000
C 	C 	0.90500 0.37610 0.01640 0.03400
H 	H 	0.94510 0.39250 0.99630 -0.00900
C 	C 	0.82580 0.37780 0.08260 -0.00000
H 	H 	0.81060 0.39530 0.11060 0.00600
C 	C 	0.87400 0.45860 0.53220 0.22100
C 	C 	0.78440 0.48670 0.52980 -0.60600
H 	H 	0.78140 0.51310 0.50430 0.17700
H 	H 	0.73150 0.46250 0.52240 0.18900
H 	H 	0.78020 0.50350 0.56100 0.19700
Eu	Eu	0.52224 0.91514 0.28094 1.45600
Ag	Ag	0.07392 0.97980 0.42649 0.49300
Ag	Ag	0.91786 0.88502 0.96745 0.51200
Ag	Ag	0.01572 0.23947 0.31619 0.50100
N 	N 	0.70940 0.91311 0.28529 -0.12900
N 	N 	0.61340 0.98582 0.32851 -0.24000
N 	N 	0.71710 0.04969 0.32428 -0.13400
N 	N 	0.01510 0.04960 0.39340 -0.19300
N 	N 	0.58940 0.92308 0.20225 -0.24000
N 	N 	0.68080 0.88295 0.15413 -0.13200
N 	N 	0.90560 0.89780 0.04798 -0.17600
N 	N 	0.60750 0.83705 0.31972 -0.23800
N 	N 	0.71080 0.81731 0.38448 -0.13400
N 	N 	0.92720 0.69290 0.42849 -0.17400
N 	N 	0.33400 0.91562 0.27409 -0.12800
N 	N 	0.43750 0.99912 0.25496 -0.23700
N 	N 	0.34950 0.05811 0.28670 -0.13400
N 	N 	0.08710 0.17700 0.28020 -0.18600
N 	N 	0.43400 0.85016 0.22481 -0.23700
N 	N 	0.33420 0.85084 0.15520 -0.13300
N 	N 	0.04980 0.78370 0.13130 -0.18500
N 	N 	0.44890 0.89823 0.35678 -0.23900
N 	N 	0.35460 0.84227 0.38900 -0.13300
N 	N 	0.11850 0.90180 0.44490 -0.19100
N 	N 	0.05760 0.93640 0.96460 -0.24300
C 	C 	0.74450 0.96630 0.28140 -0.16400
H 	H 	0.81330 0.96770 0.29290 0.06700
H 	H 	0.73430 0.97780 0.24720 0.06300
C 	C 	0.69240 0.00090 0.31154 0.12000
C 	C 	0.58570 0.02870 0.35398 0.05200
C 	C 	0.50810 0.03470 0.37920 -0.08900
H 	H 	0.46520 0.00710 0.38220 0.04300
C 	C 	0.49640 0.08300 0.39970 -0.02700
H 	H 	0.44370 0.08880 0.41670 0.02900
C 	C 	0.56160 0.12330 0.39580 -0.02600
H 	H 	0.55140 0.15590 0.41020 0.03500
C 	C 	0.63850 0.11710 0.37210 -0.08200
H 	H 	0.68220 0.14450 0.36980 0.05800
C 	C 	0.65040 0.06840 0.35124 0.05000
C 	C 	0.79340 0.07980 0.30720 -0.07900
H 	H 	0.81220 0.06260 0.27810 0.04500
H 	H 	0.76850 0.11450 0.29710 0.04800
C 	C 	0.88150 0.08670 0.34430 0.01600
C 	C 	0.90920 0.13430 0.36090 -0.05700
H 	H 	0.87290 0.16410 0.35050 0.02400
C 	C 	0.99250 0.13900 0.39360 -0.08400
H 	H 	0.01310 0.17210 0.40560 0.03100
C 	C 	0.04250 0.09690 0.40770 0.03600
H 	H 	0.10020 0.10090 0.42870 -0.01300
C 	C 	0.93410 0.04640 0.36190 -0.01000
H 	H 	0.91310 0.01280 0.35150 0.00800
C 	C 	0.73520 0.88190 0.24422 -0.16100
H 	H 	0.80120 0.88940 0.23890 0.06600
H 	H 	0.73010 0.84450 0.25130 0.06000
C 	C 	0.66820 0.89610 0.20020 0.11700
C 	C 	0.54770 0.92810 0.15423 0.05600
C 	C 	0.46440 0.95250 0.13470 -0.09600
H 	H 	0.42620 0.97060 0.15460 0.04500
C 	C 	0.43910 0.94940 0.08470 -0.02500
H 	H 	0.38260 0.96570 0.07020 0.02000
C 	C 	0.49610 0.92250 0.05540 -0.03600
H 	H 	0.47600 0.92040 0.02160 0.02800
C 	C 	0.57940 0.89930 0.07400 -0.08100
H 	H 	0.61830 0.88180 0.05410 0.04900
C 	C 	0.60380 0.90300 0.12404 0.04600
C 	C 	0.75380 0.84860 0.13930 -0.07000
H 	H 	0.78350 0.82900 0.16790 0.02900
H 	H 	0.72370 0.82340 0.11530 0.04300
C 	C 	0.82970 0.87810 0.11750 0.00200
C 	C 	0.89490 0.90920 0.14540 -0.04200
H 	H 	0.89270 0.91310 0.17910 0.03000
C 	C 	0.96250 0.93400 0.12350 -0.08500
H 	H 	0.00610 0.95660 0.14180 0.04400
C 	C 	0.96730 0.92640 0.07570 0.04300
H 	H 	0.01720 0.94240 0.06160 -0.00200
C 	C 	0.83860 0.87360 0.06930 -0.00700
H 	H 	0.79470 0.85210 0.04980 0.00800
C 	C 	0.75200 0.89020 0.33190 -0.16300
H 	H 	0.75810 0.91700 0.35760 0.05900
H 	H 	0.81590 0.87670 0.32880 0.06700
C 	C 	0.69040 0.84780 0.34485 0.12100
C 	C 	0.57130 0.79580 0.34430 0.05100
C 	C 	0.48760 0.76790 0.33320 -0.08800
H 	H 	0.44580 0.77410 0.30420 0.04300
C 	C 	0.46790 0.73060 0.36620 -0.02500
H 	H 	0.41160 0.71060 0.35980 0.02800
C 	C 	0.52920 0.72200 0.40870 -0.03000
H 	H 	0.51220 0.69710 0.43120 0.03000
C 	C 	0.61390 0.74830 0.41930 -0.08300
H 	H 	0.65580 0.74190 0.44820 0.05000
C 	C 	0.63410 0.78410 0.38580 0.05200
C 	C 	0.79530 0.81970 0.42100 -0.07500
H 	H 	0.82440 0.85440 0.42020 0.03800
H 	H 	0.77600 0.81480 0.45360 0.04600
C 	C 	0.86780 0.77910 0.41280 0.01400
C 	C 	0.93740 0.78850 0.38320 -0.04700
H 	H 	0.94130 0.82110 0.36770 0.03100
C 	C 	0.00070 0.74920 0.37690 -0.06800
H 	H 	0.04880 0.75450 0.35680 0.03700
C 	C 	0.99370 0.70280 0.39960 0.02800
H 	H 	0.03780 0.67630 0.39480 0.00100
C 	C 	0.86730 0.73130 0.43520 -0.00400
H 	H 	0.82170 0.72550 0.45670 0.01000
C 	C 	0.30180 0.96560 0.29158 -0.16200
H 	H 	0.23540 0.97200 0.27740 0.06700
H 	H 	0.30440 0.96460 0.32730 0.05900
C 	C 	0.36350 0.00790 0.27756 0.11900
C 	C 	0.47500 0.04800 0.24755 0.05100
C 	C 	0.55380 0.06280 0.22520 -0.09200
H 	H 	0.59000 0.03810 0.21030 0.04600
C 	C 	0.57600 0.11450 0.22590 -0.02100
H 	H 	0.62810 0.12580 0.21050 0.02700
C 	C 	0.52460 0.15100 0.24830 -0.03200
H 	H 	0.54440 0.18610 0.24910 0.03700
C 	C 	0.44570 0.13780 0.26960 -0.07800
H 	H 	0.40990 0.16290 0.28420 0.05700
C 	C 	0.42160 0.08530 0.26830 0.04800
C 	C 	0.28130 0.08000 0.31660 -0.07500
H 	H 	0.25680 0.05190 0.33570 0.03700
H 	H 	0.31440 0.10520 0.33970 0.04700
C 	C 	0.19780 0.10700 0.28630 0.01300
C 	C 	0.15430 0.08770 0.24400 -0.04200
H 	H 	0.17590 0.05660 0.23100 0.03800
C 	C 	0.07600 0.11470 0.21960 -0.08800
H 	H 	0.04600 0.10320 0.18900 0.04400
C 	C 	0.04510 0.15720 0.24060 0.05300
H 	H 	0.98910 0.17340 0.22550 -0.01500
C 	C 	0.16570 0.15260 0.30230 -0.00800
H 	H 	0.19980 0.16810 0.33030 0.01000
C 	C 	0.29510 0.90820 0.22241 -0.16500
H 	H 	0.29600 0.94140 0.20470 0.06200
H 	H 	0.22880 0.89590 0.21980 0.06900
C 	C 	0.35420 0.86940 0.20110 0.11400
C 	C 	0.46790 0.81650 0.19130 0.04700
C 	C 	0.55070 0.78640 0.19570 -0.09000
H 	H 	0.59140 0.78400 0.22550 0.04400
C 	C 	0.57020 0.76050 0.15500 -0.02600
H 	H 	0.62580 0.73990 0.15660 0.02600
C 	C 	0.50900 0.76400 0.11100 -0.02900
H 	H 	0.52600 0.74650 0.08330 0.03000
C 	C 	0.42510 0.79190 0.10630 -0.08500
H 	H 	0.38320 0.79320 0.07680 0.05700
C 	C 	0.40670 0.81760 0.14750 0.05400
C 	C 	0.26020 0.87020 0.11850 -0.07700
H 	H 	0.23760 0.90390 0.12960 0.04300
H 	H 	0.28830 0.87670 0.08840 0.04900
C 	C 	0.17580 0.83500 0.10650 0.01400
C 	C 	0.14010 0.82690 0.05880 -0.04700
H 	H 	0.17050 0.84180 0.03370 0.03300
C 	C 	0.06030 0.79710 0.04740 -0.08400
H 	H 	0.03610 0.79020 0.01460 0.04300
C 	C 	0.01710 0.77770 0.08400 0.03900
H 	H 	0.96000 0.75880 0.07580 -0.01000
C 	C 	0.12940 0.81310 0.14100 -0.00500
H 	H 	0.15420 0.81860 0.17400 0.01400
C 	C 	0.30470 0.87290 0.30395 -0.16400
H 	H 	0.23880 0.87850 0.31060 0.06600
H 	H 	0.30720 0.83960 0.28650 0.06100
C 	C 	0.36970 0.87130 0.35012 0.12000
C 	C 	0.49000 0.88570 0.40445 0.04800
C 	C 	0.57460 0.90280 0.43079 -0.08900
H 	H 	0.61370 0.92750 0.41790 0.04200
C 	C 	0.59870 0.88190 0.47670 -0.02700
H 	H 	0.65550 0.89270 0.49580 0.02300
C 	C 	0.54040 0.84510 0.49539 -0.02900
H 	H 	0.56020 0.83070 0.52650 0.02900
C 	C 	0.45540 0.82930 0.47002 -0.08300
H 	H 	0.41540 0.80510 0.48310 0.05700
C 	C 	0.43200 0.85060 0.42451 0.05200
C 	C 	0.27640 0.80680 0.39410 -0.07700
H 	H 	0.24060 0.79970 0.36180 0.04100
H 	H 	0.30190 0.77360 0.40790 0.04900
C 	C 	0.21060 0.82990 0.42670 0.01300
C 	C 	0.18670 0.80390 0.46630 -0.04500
H 	H 	0.21110 0.77020 0.47400 0.03900
C 	C 	0.12690 0.82720 0.49490 -0.07200
H 	H 	0.10810 0.80950 0.52200 0.05100
C 	C 	0.09500 0.87610 0.48360 0.03400
H 	H 	0.05490 0.89250 0.50370 -0.00900
C 	C 	0.17420 0.87780 0.41740 -0.00000
H 	H 	0.18940 0.89530 0.38940 0.00600
C 	C 	0.12600 0.95860 0.96780 0.22000
C 	C 	0.21560 0.98670 0.97020 -0.60000
H 	H 	0.21860 0.01310 0.99570 0.17500
H 	H 	0.26850 0.96250 0.97760 0.18700
H 	H 	0.21980 0.00350 0.93900 0.19500
