data_crystal

_cell_length_a 8.80790
_cell_length_b 8.80790
_cell_length_c 21.16630
_cell_angle_alpha 90.00000
_cell_angle_beta  90.00000
_cell_angle_gamma 120.00000

_symmetry_space_group_name_	'P 1'
_symmetry_space_group_name_H-M	'P 1'

loop_
_symmetry_equiv_pos_as_xyz
  x,y,z

loop_
_atom_site_label
_atom_site_type_symbol
_atom_site_fract_x
_atom_site_fract_y
_atom_site_fract_z
_atom_site_charge
Ni	Ni	0.96527 0.94629 0.91718 1.13300
Ni	Ni	0.98102 0.03473 0.58385 1.14300
Ni	Ni	0.05371 0.01898 0.25052 1.15200
Ni	Ni	0.01898 0.05371 0.08282 1.15300
Ni	Ni	0.94629 0.96527 0.41615 1.13600
Ni	Ni	0.03473 0.98102 0.74948 1.15400
H 	H 	0.92210 0.39000 0.92540 0.11500
H 	H 	0.40740 0.89620 0.91120 0.10300
H 	H 	0.63600 0.85000 0.86690 0.25000
H 	H 	0.88400 0.63000 0.97240 0.25400
H 	H 	0.46790 0.07790 0.59207 0.10500
H 	H 	0.48880 0.59260 0.57787 0.10000
H 	H 	0.21400 0.36400 0.53357 0.25300
H 	H 	0.74600 0.11600 0.63907 0.25600
H 	H 	0.61000 0.53210 0.25873 0.10200
H 	H 	0.10380 0.51120 0.24453 0.08300
H 	H 	0.15000 0.78600 0.20023 0.25100
H 	H 	0.37000 0.25400 0.30573 0.25700
H 	H 	0.53210 0.61000 0.07460 0.10500
H 	H 	0.51120 0.10380 0.08880 0.10100
H 	H 	0.78600 0.15000 0.13310 0.25200
H 	H 	0.25400 0.37000 0.02760 0.25900
H 	H 	0.39000 0.92210 0.40793 0.10700
H 	H 	0.89620 0.40740 0.42213 0.08100
H 	H 	0.85000 0.63600 0.46643 0.24500
H 	H 	0.63000 0.88400 0.36093 0.25600
H 	H 	0.07790 0.46790 0.74127 0.11800
H 	H 	0.59260 0.48880 0.75547 0.09800
H 	H 	0.36400 0.21400 0.79977 0.25200
H 	H 	0.11600 0.74600 0.69427 0.26200
C 	C 	0.63760 0.93530 0.94820 0.18500
C 	C 	0.95230 0.45940 0.88819 -0.23300
C 	C 	0.48170 0.93700 0.94714 -0.18600
C 	C 	0.94960 0.61570 0.88765 0.19800
C 	C 	0.29770 0.36240 0.61487 0.19700
C 	C 	0.50710 0.04770 0.55486 -0.18600
C 	C 	0.45530 0.51830 0.61381 -0.17800
C 	C 	0.66610 0.05040 0.55432 0.21000
C 	C 	0.06470 0.70230 0.28153 0.16400
C 	C 	0.54060 0.49290 0.22152 -0.18500
C 	C 	0.06300 0.54470 0.28047 -0.11200
C 	C 	0.38430 0.33390 0.22098 0.21100
C 	C 	0.70230 0.06470 0.05180 0.19500
C 	C 	0.49290 0.54060 0.11181 -0.18500
C 	C 	0.54470 0.06300 0.05286 -0.18100
C 	C 	0.33390 0.38430 0.11235 0.21100
C 	C 	0.93530 0.63760 0.38513 0.14300
C 	C 	0.45940 0.95230 0.44514 -0.18800
C 	C 	0.93700 0.48170 0.38619 -0.13200
C 	C 	0.61570 0.94960 0.44568 0.20400
C 	C 	0.36240 0.29770 0.71847 0.19600
C 	C 	0.04770 0.50710 0.77848 -0.21100
C 	C 	0.51830 0.45530 0.71953 -0.17800
C 	C 	0.05040 0.66610 0.77902 0.22200
C 	C 	0.26700 0.00000 -0.00000 0.29900
C 	C 	0.75080 0.00000 -0.00000 -0.00200
C 	C 	0.43540 0.00000 -0.00000 0.04200
C 	C 	0.73300 0.73300 0.66667 0.30600
C 	C 	0.24920 0.24920 0.66667 -0.01300
C 	C 	0.56460 0.56460 0.66667 0.02800
C 	C 	0.00000 0.26700 0.33333 0.36100
C 	C 	-0.00000 0.75080 0.33333 0.03500
C 	C 	1.00000 0.43540 0.33333 -0.04300
C 	C 	-0.00000 0.72050 0.83333 -0.00400
C 	C 	1.00000 0.23660 0.83333 0.24800
C 	C 	-0.00000 0.40560 0.83333 0.10200
C 	C 	0.72050 -0.00000 0.50000 -0.01600
C 	C 	0.23660 -0.00000 0.50000 0.30800
C 	C 	0.40560 -0.00000 0.50000 0.04100
C 	C 	0.27950 0.27950 0.16667 -0.02200
C 	C 	0.76340 0.76340 0.16667 0.30900
C 	C 	0.59440 0.59440 0.16667 0.03500
O 	O 	0.21420 0.02550 0.94735 -0.37900
O 	O 	0.69650 0.87010 0.90081 -0.50900
O 	O 	0.03930 0.19130 0.88476 -0.35700
O 	O 	0.89790 0.68080 0.93678 -0.52100
O 	O 	0.81130 0.78580 0.61402 -0.40100
O 	O 	0.17360 0.30350 0.56748 -0.49900
O 	O 	0.15200 0.96070 0.55143 -0.38200
O 	O 	0.78290 0.10210 0.60345 -0.51800
O 	O 	0.97450 0.18870 0.28068 -0.41700
O 	O 	0.12990 0.82640 0.23414 -0.49300
O 	O 	0.80870 0.84800 0.21809 -0.40100
O 	O 	0.31920 0.21710 0.27011 -0.51500
O 	O 	0.18870 0.97450 0.05265 -0.38000
O 	O 	0.82640 0.12990 0.09919 -0.50900
O 	O 	0.84800 0.80870 0.11524 -0.40000
O 	O 	0.21710 0.31920 0.06322 -0.51300
O 	O 	0.02550 0.21420 0.38598 -0.39100
O 	O 	0.87010 0.69650 0.43252 -0.49800
O 	O 	0.19130 0.03930 0.44857 -0.38400
O 	O 	0.68080 0.89790 0.39655 -0.51800
O 	O 	0.78580 0.81130 0.71932 -0.40400
O 	O 	0.30350 0.17360 0.76586 -0.50300
O 	O 	0.96070 0.15200 0.78191 -0.38600
O 	O 	0.10210 0.78290 0.72989 -0.51700
O 	O 	0.90140 0.00000 -0.00000 -0.43000
O 	O 	0.09860 0.09860 0.66667 -0.41600
O 	O 	0.00000 0.90140 0.33333 -0.42400
O 	O 	-0.00000 0.87140 0.83333 -0.41600
O 	O 	0.87140 -0.00000 0.50000 -0.42900
O 	O 	0.12860 0.12860 0.16667 -0.42100
