data_crystal

_cell_length_a 9.10500
_cell_length_b 17.49200
_cell_length_c 17.49200
_cell_angle_alpha 90.00000
_cell_angle_beta  90.00000
_cell_angle_gamma 90.00000

_symmetry_space_group_name_	'P 1'
_symmetry_space_group_name_H-M	'P 1'

loop_
_symmetry_equiv_pos_as_xyz
  x,y,z

loop_
_atom_site_label
_atom_site_type_symbol
_atom_site_fract_x
_atom_site_fract_y
_atom_site_fract_z
_atom_site_charge
Cu	Cu	0.41513 0.95628 0.54372 0.90500
Cu	Cu	0.41513 0.54372 0.95628 0.90500
Cu	Cu	0.41513 0.95628 0.95628 0.90500
Cu	Cu	0.41513 0.54372 0.54372 0.90600
Cu	Cu	0.58487 0.04372 0.04372 0.90900
Cu	Cu	0.58487 0.45628 0.45628 0.91000
Cu	Cu	0.58487 0.04372 0.45628 0.91000
Cu	Cu	0.58487 0.45628 0.04372 0.91000
Si	Si	0.00000 0.75000 0.25000 0.65200
Si	Si	0.00000 0.25000 0.75000 0.65200
H 	H 	0.86010 0.86480 0.34830 0.01600
H 	H 	0.86010 0.63520 0.15170 0.01600
H 	H 	0.86010 0.15170 0.86480 0.01600
H 	H 	0.86010 0.34830 0.63520 0.01600
H 	H 	0.13990 0.13520 0.84830 -0.02100
H 	H 	0.13990 0.36480 0.65170 -0.02100
H 	H 	0.13990 0.84830 0.36480 -0.02200
H 	H 	0.13990 0.65170 0.13520 -0.02100
H 	H 	0.13990 0.13520 0.65170 -0.02100
H 	H 	0.13990 0.36480 0.84830 -0.02200
H 	H 	0.13990 0.84830 0.13520 -0.02100
H 	H 	0.13990 0.65170 0.36480 -0.02100
H 	H 	0.86010 0.86480 0.15170 0.01600
H 	H 	0.86010 0.63520 0.34830 0.01600
H 	H 	0.86010 0.15170 0.63520 0.01600
H 	H 	0.86010 0.34830 0.86480 0.01600
H 	H 	0.61040 0.75000 0.49780 0.03300
H 	H 	0.61040 0.75000 0.00220 0.03300
H 	H 	0.61040 0.00220 0.75000 0.03300
H 	H 	0.61040 0.49780 0.75000 0.03300
H 	H 	0.38960 0.25000 0.99780 0.02600
H 	H 	0.38960 0.25000 0.50220 0.02600
H 	H 	0.38960 0.99780 0.25000 0.02600
H 	H 	0.38960 0.50220 0.25000 0.02600
C 	C 	0.82690 0.81855 0.36810 0.11200
C 	C 	0.72520 0.81870 0.42770 -0.14700
C 	C 	0.65880 0.89050 0.45840 0.39200
C 	C 	0.82690 0.68145 0.13190 0.11200
C 	C 	0.72520 0.68130 0.07230 -0.14800
C 	C 	0.65880 0.60950 0.04160 0.39200
C 	C 	0.82690 0.13190 0.81855 0.11200
C 	C 	0.72520 0.07230 0.81870 -0.14800
C 	C 	0.65880 0.04160 0.89050 0.39300
C 	C 	0.82690 0.36810 0.68145 0.11200
C 	C 	0.72520 0.42770 0.68130 -0.14700
C 	C 	0.65880 0.45840 0.60950 0.39200
C 	C 	0.17310 0.18145 0.86810 0.14100
C 	C 	0.27480 0.18130 0.92770 -0.17900
C 	C 	0.34120 0.10950 0.95840 0.39800
C 	C 	0.17310 0.31855 0.63190 0.14100
C 	C 	0.27480 0.31870 0.57230 -0.17900
C 	C 	0.34120 0.39050 0.54160 0.39800
C 	C 	0.17310 0.86810 0.31855 0.14100
C 	C 	0.27480 0.92770 0.31870 -0.17900
C 	C 	0.34120 0.95840 0.39050 0.39800
C 	C 	0.17310 0.63190 0.18145 0.14100
C 	C 	0.27480 0.57230 0.18130 -0.17900
C 	C 	0.34120 0.54160 0.10950 0.39800
C 	C 	0.17310 0.18145 0.63190 0.14100
C 	C 	0.27480 0.18130 0.57230 -0.17900
C 	C 	0.34120 0.10950 0.54160 0.39800
C 	C 	0.17310 0.31855 0.86810 0.14100
C 	C 	0.27480 0.31870 0.92770 -0.17900
C 	C 	0.34120 0.39050 0.95840 0.39800
C 	C 	0.17310 0.86810 0.18145 0.14100
C 	C 	0.27480 0.92770 0.18130 -0.17900
C 	C 	0.34120 0.95840 0.10950 0.39800
C 	C 	0.17310 0.63190 0.31855 0.14100
C 	C 	0.27480 0.57230 0.31870 -0.17900
C 	C 	0.34120 0.54160 0.39050 0.39800
C 	C 	0.82690 0.81855 0.13190 0.11200
C 	C 	0.72520 0.81870 0.07230 -0.14800
C 	C 	0.65880 0.89050 0.04160 0.39300
C 	C 	0.82690 0.68145 0.36810 0.11200
C 	C 	0.72520 0.68130 0.42770 -0.14700
C 	C 	0.65880 0.60950 0.45840 0.39200
C 	C 	0.82690 0.13190 0.68145 0.11200
C 	C 	0.72520 0.07230 0.68130 -0.14800
C 	C 	0.65880 0.04160 0.60950 0.39200
C 	C 	0.82690 0.36810 0.81855 0.11200
C 	C 	0.72520 0.42770 0.81870 -0.14700
C 	C 	0.65880 0.45840 0.89050 0.39200
C 	C 	0.87950 0.75000 0.33750 -0.21700
C 	C 	0.67670 0.75000 0.45730 0.09300
C 	C 	0.87950 0.75000 0.16250 -0.21700
C 	C 	0.67670 0.75000 0.04270 0.09300
C 	C 	0.87950 0.16250 0.75000 -0.21700
C 	C 	0.67670 0.04270 0.75000 0.09300
C 	C 	0.87950 0.33750 0.75000 -0.21700
C 	C 	0.67670 0.45730 0.75000 0.09300
C 	C 	0.12050 0.25000 0.83750 -0.29000
C 	C 	0.32330 0.25000 0.95730 0.11100
C 	C 	0.12050 0.25000 0.66250 -0.29000
C 	C 	0.32330 0.25000 0.54270 0.11100
C 	C 	0.12050 0.83750 0.25000 -0.29000
C 	C 	0.32330 0.95730 0.25000 0.11100
C 	C 	0.12050 0.66250 0.25000 -0.29000
C 	C 	0.32330 0.54270 0.25000 0.11100
O 	O 	0.55890 0.88220 0.50621 -0.42400
O 	O 	0.70450 0.95300 0.43250 -0.39500
O 	O 	0.55890 0.61780 0.99379 -0.42400
O 	O 	0.70450 0.54700 0.06750 -0.39500
O 	O 	0.55890 0.99379 0.88220 -0.42400
O 	O 	0.70450 0.06750 0.95300 -0.39500
O 	O 	0.55890 0.50621 0.61780 -0.42400
O 	O 	0.70450 0.43250 0.54700 -0.39500
O 	O 	0.44110 0.11780 0.00621 -0.42700
O 	O 	0.29550 0.04700 0.93250 -0.41400
O 	O 	0.44110 0.38220 0.49379 -0.42700
O 	O 	0.29550 0.45300 0.56750 -0.41400
O 	O 	0.44110 0.00621 0.38220 -0.42600
O 	O 	0.29550 0.93250 0.45300 -0.41500
O 	O 	0.44110 0.49379 0.11780 -0.42700
O 	O 	0.29550 0.56750 0.04700 -0.41400
O 	O 	0.44110 0.11780 0.49379 -0.42700
O 	O 	0.29550 0.04700 0.56750 -0.41400
O 	O 	0.44110 0.38220 0.00621 -0.42600
O 	O 	0.29550 0.45300 0.93250 -0.41500
O 	O 	0.44110 0.00621 0.11780 -0.42700
O 	O 	0.29550 0.93250 0.04700 -0.41400
O 	O 	0.44110 0.49379 0.38220 -0.42700
O 	O 	0.29550 0.56750 0.45300 -0.41400
O 	O 	0.55890 0.88220 0.99379 -0.42400
O 	O 	0.70450 0.95300 0.06750 -0.39500
O 	O 	0.55890 0.61780 0.50621 -0.42400
O 	O 	0.70450 0.54700 0.43250 -0.39500
O 	O 	0.55890 0.99379 0.61780 -0.42400
O 	O 	0.70450 0.06750 0.54700 -0.39500
O 	O 	0.55890 0.50621 0.88220 -0.42400
O 	O 	0.70450 0.43250 0.95300 -0.39500
