data_crystal

_cell_length_a 8.14550
_cell_length_b 13.18690
_cell_length_c 19.36650
_cell_angle_alpha 109.90500
_cell_angle_beta  99.43920
_cell_angle_gamma 90.00000

_symmetry_space_group_name_	'P 1'
_symmetry_space_group_name_H-M	'P 1'

loop_
_symmetry_equiv_pos_as_xyz
  x,y,z

loop_
_atom_site_label
_atom_site_type_symbol
_atom_site_fract_x
_atom_site_fract_y
_atom_site_fract_z
_atom_site_charge
Co	Co	-0.00000 0.00000 -0.00000 1.04900
Co	Co	0.50000 0.00000 -0.00000 1.05900
H 	H 	0.04500 0.64370 0.75060 -0.04100
H 	H 	0.89680 0.54560 0.63600 0.15200
H 	H 	0.51370 0.73200 0.67860 0.11000
H 	H 	0.66310 0.83130 0.79340 0.01100
H 	H 	0.65590 0.43950 0.65440 0.09600
H 	H 	0.80890 0.32630 0.69380 0.12200
H 	H 	0.65950 0.34160 0.73740 0.11500
H 	H 	0.76170 0.23810 0.72580 0.11900
H 	H 	0.40860 0.05880 0.40240 0.17400
H 	H 	0.32940 0.98820 0.44060 0.25500
H 	H 	0.23980 0.08900 0.43100 0.17400
H 	H 	0.34400 0.23890 0.42580 0.07100
H 	H 	0.45500 0.89310 0.24940 0.01500
H 	H 	0.60320 0.90960 0.36400 0.12400
H 	H 	0.98630 0.05340 0.32140 0.10100
H 	H 	0.83690 0.03790 0.20660 0.01800
H 	H 	0.84410 0.78510 0.34560 0.09000
H 	H 	0.69110 0.63250 0.30620 0.09700
H 	H 	0.84050 0.60420 0.26260 0.09100
H 	H 	0.73830 0.51230 0.27420 0.09400
H 	H 	0.09140 0.65640 0.59760 0.10800
H 	H 	0.17060 0.54760 0.55940 0.12600
H 	H 	0.26020 0.65800 0.56900 0.11200
H 	H 	0.15600 0.81310 0.57420 0.09800
H 	H 	0.95500 0.35630 0.24940 0.05600
H 	H 	0.10320 0.45440 0.36400 0.08900
H 	H 	0.48630 0.26800 0.32140 0.07400
H 	H 	0.33690 0.16870 0.20660 0.00300
H 	H 	0.34410 0.56050 0.34560 0.07900
H 	H 	0.19110 0.67370 0.30620 0.08700
H 	H 	0.34050 0.65840 0.26260 0.08100
H 	H 	0.23830 0.76190 0.27420 0.09000
H 	H 	0.59140 0.94120 0.59760 0.06100
H 	H 	0.67060 0.01180 0.55940 0.01900
H 	H 	0.76020 0.91100 0.56900 0.05600
H 	H 	0.65600 0.76110 0.57420 0.10000
H 	H 	0.54500 0.10690 0.75060 -0.00100
H 	H 	0.39680 0.09040 0.63600 0.11700
H 	H 	0.01370 0.94660 0.67860 0.08400
H 	H 	0.16310 0.96210 0.79340 0.00100
H 	H 	0.15590 0.21490 0.65440 0.08400
H 	H 	0.30890 0.36750 0.69380 0.11200
H 	H 	0.15950 0.39580 0.73740 0.10400
H 	H 	0.26170 0.48770 0.72580 0.11400
H 	H 	0.90860 0.34360 0.40240 0.12400
H 	H 	0.82940 0.45240 0.44060 0.14100
H 	H 	0.73980 0.34200 0.43100 0.11500
H 	H 	0.84400 0.18690 0.42580 0.07500
C 	C 	0.96610 0.80846 0.86012 0.40700
C 	C 	0.86920 0.74657 0.78494 -0.20000
C 	C 	0.93730 0.66143 0.73646 0.20600
C 	C 	0.84850 0.60274 0.66768 -0.26300
C 	C 	0.68920 0.62712 0.64484 0.17600
C 	C 	0.62100 0.71386 0.69312 -0.21900
C 	C 	0.71010 0.77300 0.76200 0.13800
C 	C 	0.59300 0.56193 0.57046 -0.10800
C 	C 	0.54840 0.45294 0.55488 0.06800
C 	C 	0.59720 0.39967 0.60734 -0.15700
C 	C 	0.56100 0.29365 0.59090 0.11800
C 	C 	0.71850 0.28986 0.70372 -0.24700
C 	C 	0.46460 0.23135 0.52050 0.07500
C 	C 	0.34600 0.06026 0.44052 -0.52400
C 	C 	0.41110 0.27926 0.47052 -0.11800
C 	C 	0.45400 0.39041 0.48382 0.01900
C 	C 	0.53390 0.94834 0.13988 0.34500
C 	C 	0.63080 0.96163 0.21506 -0.07900
C 	C 	0.56270 0.92497 0.26354 0.08100
C 	C 	0.65150 0.93506 0.33232 -0.19200
C 	C 	0.81080 0.98228 0.35516 0.18600
C 	C 	0.87900 0.02074 0.30688 -0.23500
C 	C 	0.78990 0.01100 0.23800 0.00800
C 	C 	0.90700 0.99147 0.42954 -0.02400
C 	C 	0.95160 0.89806 0.44512 0.05400
C 	C 	0.90280 0.79233 0.39266 -0.14400
C 	C 	0.93900 0.70275 0.40910 0.13500
C 	C 	0.78150 0.58614 0.29628 -0.20300
C 	C 	0.03540 0.71085 0.47950 0.08100
C 	C 	0.15400 0.61974 0.55948 -0.24800
C 	C 	0.08890 0.80874 0.52948 -0.15400
C 	C 	0.04600 0.90659 0.51618 0.08800
C 	C 	0.03390 0.19154 0.13988 0.31100
C 	C 	0.13080 0.25343 0.21506 -0.12300
C 	C 	0.06270 0.33857 0.26354 -0.00500
C 	C 	0.15150 0.39726 0.33232 -0.13800
C 	C 	0.31080 0.37288 0.35516 0.09100
C 	C 	0.37900 0.28614 0.30688 -0.15200
C 	C 	0.28990 0.22700 0.23800 0.05000
C 	C 	0.40700 0.43807 0.42954 -0.06000
C 	C 	0.45160 0.54706 0.44512 0.02900
C 	C 	0.40280 0.60033 0.39266 -0.12500
C 	C 	0.43900 0.70635 0.40910 0.09100
C 	C 	0.28150 0.71014 0.29628 -0.19300
C 	C 	0.53540 0.76865 0.47950 0.13200
C 	C 	0.65400 0.93974 0.55948 -0.00300
C 	C 	0.58890 0.72074 0.52948 -0.16500
C 	C 	0.54600 0.60959 0.51618 0.06400
C 	C 	0.46610 0.05166 0.86012 0.37500
C 	C 	0.36920 0.03837 0.78494 -0.23500
C 	C 	0.43730 0.07503 0.73646 0.12000
C 	C 	0.34850 0.06494 0.66768 -0.20700
C 	C 	0.18920 0.01772 0.64484 0.08200
C 	C 	0.12100 0.97926 0.69312 -0.13200
C 	C 	0.21010 0.98900 0.76200 0.16900
C 	C 	0.09300 0.00853 0.57046 -0.14600
C 	C 	0.04840 0.10194 0.55488 0.03900
C 	C 	0.09720 0.20767 0.60734 -0.13500
C 	C 	0.06100 0.29725 0.59090 0.07000
C 	C 	0.21850 0.41386 0.70372 -0.23500
C 	C 	0.96460 0.28915 0.52050 0.13100
C 	C 	0.84600 0.38026 0.44052 -0.26700
C 	C 	0.91110 0.19126 0.47052 -0.13300
C 	C 	0.95400 0.09341 0.48382 0.00200
O 	O 	0.89240 0.87955 0.90484 -0.37300
O 	O 	0.11270 0.78798 0.87576 -0.27000
O 	O 	0.60900 0.23628 0.63666 -0.16100
O 	O 	0.43520 0.12646 0.51108 -0.10400
O 	O 	0.60760 0.97471 0.09516 -0.42100
O 	O 	0.38730 0.91222 0.12424 -0.28400
O 	O 	0.89100 0.59962 0.36334 -0.16300
O 	O 	0.06480 0.61538 0.48892 -0.15500
O 	O 	0.10760 0.12045 0.09516 -0.47800
O 	O 	0.88730 0.21202 0.12424 -0.29500
O 	O 	0.39100 0.76372 0.36334 -0.16500
O 	O 	0.56480 0.87354 0.48892 -0.19100
O 	O 	0.39240 0.02529 0.90484 -0.42300
O 	O 	0.61270 0.08778 0.87576 -0.27800
O 	O 	0.10900 0.40038 0.63666 -0.16200
O 	O 	0.93520 0.38462 0.51108 -0.14300
O 	O 	0.75000 0.06660 1.00000 -0.30700
O 	O 	0.25000 0.93340 -0.00000 -0.40400
