data_crystal

_cell_length_a 14.30300
_cell_length_b 18.71590
_cell_length_c 17.05110
_cell_angle_alpha 90.00000
_cell_angle_beta  102.11800
_cell_angle_gamma 90.00000

_symmetry_space_group_name_	'P 1'
_symmetry_space_group_name_H-M	'P 1'

loop_
_symmetry_equiv_pos_as_xyz
  x,y,z

loop_
_atom_site_label
_atom_site_type_symbol
_atom_site_fract_x
_atom_site_fract_y
_atom_site_fract_z
_atom_site_charge
P 	P 	0.50998 0.66327 0.30974 0.45800
P 	P 	0.72302 0.75539 0.50144 0.46500
S 	S 	0.00730 0.53030 0.70360 0.19800
C 	C 	0.70890 0.81360 0.27480 -0.07400
H 	H 	0.69850 0.84590 0.31660 0.08200
H 	H 	0.67620 0.83300 0.22360 0.06800
C 	C 	0.68480 0.69130 0.22350 -0.03600
H 	H 	0.65120 0.70780 0.17120 0.05800
H 	H 	0.66030 0.64440 0.23280 0.02200
C 	C 	0.56390 0.74870 0.28930 -0.21700
H 	H 	0.52930 0.76710 0.23830 0.11800
H 	H 	0.55700 0.78280 0.33050 0.11300
C 	C 	0.79900 0.68650 0.73710 -0.06000
H 	H 	0.86500 0.70240 0.74950 0.08000
H 	H 	0.79860 0.63630 0.72270 0.06300
C 	C 	0.74350 0.80520 0.68920 -0.08000
H 	H 	0.70560 0.83180 0.64490 0.08200
H 	H 	0.80800 0.82410 0.69990 0.09200
C 	C 	0.78770 0.71530 0.59470 -0.22100
H 	H 	0.79120 0.66410 0.58660 0.09900
H 	H 	0.85250 0.73360 0.60590 0.12800
N 	N 	0.66790 0.74220 0.28690 -0.13000
H 	H 	0.69930 0.72510 0.33530 0.12800
N 	N 	0.74510 0.72820 0.66730 -0.12800
H 	H 	0.68370 0.71200 0.65590 0.12800
O 	O 	0.46770 0.62990 0.23030 -0.27900
O 	O 	0.43640 0.68500 0.35940 -0.46200
O 	O 	0.58820 0.62070 0.36350 -0.54300
O 	O 	0.74160 0.83560 0.50610 -0.21000
O 	O 	0.76650 0.71940 0.43790 -0.27000
O 	O 	0.61780 0.73950 0.49630 -0.48100
O 	O 	0.62920 0.56550 0.52500 -0.61300
O 	O 	0.99400 0.60220 0.67040 -0.12400
O 	O 	0.06100 0.54540 0.77730 -0.19800
P 	P 	0.00998 0.16327 0.80974 0.34900
P 	P 	0.22302 0.25539 0.00144 0.32900
S 	S 	0.50730 0.03030 0.20360 -0.31700
C 	C 	0.20890 0.31360 0.77480 -0.07100
H 	H 	0.19850 0.34590 0.81660 0.08000
H 	H 	0.17620 0.33300 0.72360 0.05700
C 	C 	0.18480 0.19130 0.72350 -0.03200
H 	H 	0.15120 0.20780 0.67120 0.05300
H 	H 	0.16030 0.14440 0.73280 0.01400
C 	C 	0.06390 0.24870 0.78930 -0.18600
H 	H 	0.02930 0.26710 0.73830 0.08100
H 	H 	0.05700 0.28280 0.83050 0.09600
C 	C 	0.29900 0.18650 0.23710 -0.05700
H 	H 	0.36500 0.20240 0.24950 0.06400
H 	H 	0.29860 0.13630 0.22270 0.06100
C 	C 	0.24350 0.30520 0.18920 -0.07900
H 	H 	0.20560 0.33180 0.14490 0.06500
H 	H 	0.30800 0.32410 0.19990 0.08200
C 	C 	0.28770 0.21530 0.09470 -0.19000
H 	H 	0.29120 0.16410 0.08660 0.07600
H 	H 	0.35250 0.23360 0.10590 0.09700
N 	N 	0.16790 0.24220 0.78690 -0.13600
H 	H 	0.19930 0.22510 0.83530 0.13100
N 	N 	0.24510 0.22820 0.16730 -0.13300
H 	H 	0.18370 0.21200 0.15590 0.12700
O 	O 	0.96770 0.12990 0.73030 -0.20900
O 	O 	0.93640 0.18500 0.85940 -0.34300
O 	O 	0.08820 0.12070 0.86350 -0.50600
O 	O 	0.24160 0.33560 0.00610 -0.25100
O 	O 	0.26650 0.21940 0.93790 -0.20100
O 	O 	0.11780 0.23950 0.99630 -0.34600
O 	O 	0.12920 0.06550 0.02500 -0.61200
O 	O 	0.49400 0.10220 0.17040 -0.06900
O 	O 	0.56100 0.04540 0.27730 -0.08200
P 	P 	0.49002 0.66327 0.69026 0.45800
P 	P 	0.27698 0.75539 0.49856 0.46200
S 	S 	0.99270 0.53030 0.29640 0.36500
C 	C 	0.29110 0.81360 0.72520 -0.09000
H 	H 	0.30150 0.84590 0.68340 0.08300
H 	H 	0.32380 0.83300 0.77640 0.07700
C 	C 	0.31520 0.69130 0.77650 -0.05500
H 	H 	0.34880 0.70780 0.82880 0.08200
H 	H 	0.33970 0.64440 0.76720 0.03600
C 	C 	0.43610 0.74870 0.71070 -0.21900
H 	H 	0.47070 0.76710 0.76170 0.12400
H 	H 	0.44300 0.78280 0.66950 0.11400
C 	C 	0.20100 0.68650 0.26290 -0.04400
H 	H 	0.13500 0.70240 0.25050 0.04600
H 	H 	0.20140 0.63630 0.27730 0.05000
C 	C 	0.25650 0.80520 0.31080 -0.07600
H 	H 	0.29440 0.83180 0.35510 0.07900
H 	H 	0.19200 0.82410 0.30010 0.08400
C 	C 	0.21230 0.71530 0.40530 -0.21000
H 	H 	0.20880 0.66410 0.41340 0.08900
H 	H 	0.14750 0.73360 0.39410 0.10400
N 	N 	0.33210 0.74220 0.71310 -0.12400
H 	H 	0.30070 0.72510 0.66470 0.12500
N 	N 	0.25490 0.72820 0.33270 -0.13400
H 	H 	0.31630 0.71200 0.34410 0.12900
O 	O 	0.53230 0.62990 0.76970 -0.26600
O 	O 	0.56360 0.68500 0.64060 -0.46100
O 	O 	0.41180 0.62070 0.63650 -0.54200
O 	O 	0.25840 0.83560 0.49390 -0.22200
O 	O 	0.23350 0.71940 0.56210 -0.28400
O 	O 	0.38220 0.73950 0.50370 -0.48000
O 	O 	0.37080 0.56550 0.47500 -0.61500
O 	O 	0.00600 0.60220 0.32960 -0.27800
O 	O 	0.93900 0.54540 0.22270 -0.21100
P 	P 	0.99002 0.16327 0.19026 0.56600
P 	P 	0.77698 0.25539 0.99856 0.57700
S 	S 	0.49270 0.03030 0.79640 -0.33200
C 	C 	0.79110 0.31360 0.22520 -0.08800
H 	H 	0.80150 0.34590 0.18340 0.07200
H 	H 	0.82380 0.33300 0.27640 0.07600
C 	C 	0.81520 0.19130 0.27650 -0.05800
H 	H 	0.84880 0.20780 0.32880 0.08100
H 	H 	0.83970 0.14440 0.26720 0.04000
C 	C 	0.93610 0.24870 0.21070 -0.24500
H 	H 	0.97070 0.26710 0.26170 0.15100
H 	H 	0.94300 0.28280 0.16950 0.13100
C 	C 	0.70100 0.18650 0.76290 -0.05600
H 	H 	0.63500 0.20240 0.75050 0.06400
H 	H 	0.70140 0.13630 0.77730 0.06200
C 	C 	0.75650 0.30520 0.81080 -0.07600
H 	H 	0.79440 0.33180 0.85510 0.08800
H 	H 	0.69200 0.32410 0.80010 0.08500
C 	C 	0.71230 0.21530 0.90530 -0.23100
H 	H 	0.70880 0.16410 0.91340 0.11500
H 	H 	0.64750 0.23360 0.89410 0.12700
N 	N 	0.83210 0.24220 0.21310 -0.12100
H 	H 	0.80070 0.22510 0.16470 0.12400
N 	N 	0.75490 0.22820 0.83270 -0.12800
H 	H 	0.81630 0.21200 0.84410 0.13700
O 	O 	0.03230 0.12990 0.26970 -0.34000
O 	O 	0.06360 0.18500 0.14060 -0.48500
O 	O 	0.91180 0.12070 0.13650 -0.52000
O 	O 	0.75840 0.33560 0.99390 -0.19500
O 	O 	0.73350 0.21940 0.06210 -0.34400
O 	O 	0.88220 0.23950 0.00370 -0.49900
O 	O 	0.87080 0.06550 0.97500 -0.49700
O 	O 	0.50600 0.10220 0.82960 -0.04800
O 	O 	0.43900 0.04540 0.72270 -0.08000
P 	P 	0.49002 0.33673 0.69026 0.45700
P 	P 	0.27698 0.24461 0.49856 0.46300
S 	S 	0.99270 0.46970 0.29640 0.36600
C 	C 	0.29110 0.18640 0.72520 -0.08600
H 	H 	0.30150 0.15410 0.68340 0.07100
H 	H 	0.32380 0.16700 0.77640 0.06900
C 	C 	0.31520 0.30870 0.77650 -0.05300
H 	H 	0.34880 0.29220 0.82880 0.07900
H 	H 	0.33970 0.35560 0.76720 0.03500
C 	C 	0.43610 0.25130 0.71070 -0.21300
H 	H 	0.47070 0.23290 0.76170 0.11500
H 	H 	0.44300 0.21720 0.66950 0.10700
C 	C 	0.20100 0.31350 0.26290 -0.04400
H 	H 	0.13500 0.29760 0.25050 0.04600
H 	H 	0.20140 0.36370 0.27730 0.05000
C 	C 	0.25650 0.19480 0.31080 -0.07200
H 	H 	0.29440 0.16820 0.35510 0.07200
H 	H 	0.19200 0.17590 0.30010 0.07800
C 	C 	0.21230 0.28470 0.40530 -0.21000
H 	H 	0.20880 0.33590 0.41340 0.08900
H 	H 	0.14750 0.26640 0.39410 0.10300
N 	N 	0.33210 0.25780 0.71310 -0.12700
H 	H 	0.30070 0.27490 0.66470 0.12500
N 	N 	0.25490 0.27180 0.33270 -0.13400
H 	H 	0.31630 0.28800 0.34410 0.12800
O 	O 	0.53230 0.37010 0.76970 -0.26600
O 	O 	0.56360 0.31500 0.64060 -0.46200
O 	O 	0.41180 0.37930 0.63650 -0.54200
O 	O 	0.25840 0.16440 0.49390 -0.23600
O 	O 	0.23350 0.28060 0.56210 -0.28500
O 	O 	0.38220 0.26050 0.50370 -0.48300
O 	O 	0.37080 0.43450 0.47500 -0.61500
O 	O 	0.00600 0.39780 0.32960 -0.27800
O 	O 	0.93900 0.45460 0.22270 -0.21100
P 	P 	0.99002 0.83673 0.19026 0.56600
P 	P 	0.77698 0.74461 0.99856 0.57900
S 	S 	0.49270 0.96970 0.79640 0.93100
C 	C 	0.79110 0.68640 0.22520 -0.08700
H 	H 	0.80150 0.65410 0.18340 0.07100
H 	H 	0.82380 0.66700 0.27640 0.07600
C 	C 	0.81520 0.80870 0.27650 -0.05900
H 	H 	0.84880 0.79220 0.32880 0.08500
H 	H 	0.83970 0.85560 0.26720 0.04800
C 	C 	0.93610 0.75130 0.21070 -0.24400
H 	H 	0.97070 0.73290 0.26170 0.15100
H 	H 	0.94300 0.71720 0.16950 0.13100
C 	C 	0.70100 0.81350 0.76290 -0.05300
H 	H 	0.63500 0.79760 0.75050 0.06600
H 	H 	0.70140 0.86370 0.77730 0.06600
C 	C 	0.75650 0.69480 0.81080 -0.07600
H 	H 	0.79440 0.66820 0.85510 0.08800
H 	H 	0.69200 0.67590 0.80010 0.08600
C 	C 	0.71230 0.78470 0.90530 -0.23500
H 	H 	0.70880 0.83590 0.91340 0.12300
H 	H 	0.64750 0.76640 0.89410 0.13400
N 	N 	0.83210 0.75780 0.21310 -0.12100
H 	H 	0.80070 0.77490 0.16470 0.12500
N 	N 	0.75490 0.77180 0.83270 -0.12700
H 	H 	0.81630 0.78800 0.84410 0.13800
O 	O 	0.03230 0.87010 0.26970 -0.32500
O 	O 	0.06360 0.81500 0.14060 -0.48400
O 	O 	0.91180 0.87930 0.13650 -0.50800
O 	O 	0.75840 0.66440 0.99390 -0.19500
O 	O 	0.73350 0.78060 0.06210 -0.34000
O 	O 	0.88220 0.76050 0.00370 -0.50100
O 	O 	0.87080 0.93450 0.97500 -0.46800
O 	O 	0.50600 0.89780 0.82960 -0.32700
O 	O 	0.43900 0.95460 0.72270 -0.33300
P 	P 	0.50998 0.33673 0.30974 0.45700
P 	P 	0.72302 0.24461 0.50144 0.46600
S 	S 	0.00730 0.46970 0.70360 0.20000
C 	C 	0.70890 0.18640 0.27480 -0.06900
H 	H 	0.69850 0.15410 0.31660 0.07000
H 	H 	0.67620 0.16700 0.22360 0.06000
C 	C 	0.68480 0.30870 0.22350 -0.03500
H 	H 	0.65120 0.29220 0.17120 0.05500
H 	H 	0.66030 0.35560 0.23280 0.02100
C 	C 	0.56390 0.25130 0.28930 -0.21200
H 	H 	0.52930 0.23290 0.23830 0.10900
H 	H 	0.55700 0.21720 0.33050 0.10700
C 	C 	0.79900 0.31350 0.73710 -0.06000
H 	H 	0.86500 0.29760 0.74950 0.08000
H 	H 	0.79860 0.36370 0.72270 0.06300
C 	C 	0.74350 0.19480 0.68920 -0.07500
H 	H 	0.70560 0.16820 0.64490 0.07500
H 	H 	0.80800 0.17590 0.69990 0.08600
C 	C 	0.78770 0.28470 0.59470 -0.22100
H 	H 	0.79120 0.33590 0.58660 0.09900
H 	H 	0.85250 0.26640 0.60590 0.12700
N 	N 	0.66790 0.25780 0.28690 -0.13200
H 	H 	0.69930 0.27490 0.33530 0.12800
N 	N 	0.74510 0.27180 0.66730 -0.12900
H 	H 	0.68370 0.28800 0.65590 0.12800
O 	O 	0.46770 0.37010 0.23030 -0.28000
O 	O 	0.43640 0.31500 0.35940 -0.46200
O 	O 	0.58820 0.37930 0.36350 -0.54300
O 	O 	0.74160 0.16440 0.50610 -0.22400
O 	O 	0.76650 0.28060 0.43790 -0.27100
O 	O 	0.61780 0.26050 0.49630 -0.48400
O 	O 	0.62920 0.43450 0.52500 -0.61200
O 	O 	0.99400 0.39780 0.67040 -0.12400
O 	O 	0.06100 0.45460 0.77730 -0.19900
P 	P 	0.00998 0.83673 0.80974 0.34900
P 	P 	0.22302 0.74461 0.00144 0.33000
S 	S 	0.50730 0.96970 0.20360 0.93100
C 	C 	0.20890 0.68640 0.77480 -0.07000
H 	H 	0.19850 0.65410 0.81660 0.08000
H 	H 	0.17620 0.66700 0.72360 0.05700
C 	C 	0.18480 0.80870 0.72350 -0.03200
H 	H 	0.15120 0.79220 0.67120 0.05600
H 	H 	0.16030 0.85560 0.73280 0.02200
C 	C 	0.06390 0.75130 0.78930 -0.18600
H 	H 	0.02930 0.73290 0.73830 0.08200
H 	H 	0.05700 0.71720 0.83050 0.09500
C 	C 	0.29900 0.81350 0.23710 -0.05400
H 	H 	0.36500 0.79760 0.24950 0.06500
H 	H 	0.29860 0.86370 0.22270 0.06500
C 	C 	0.24350 0.69480 0.18920 -0.07900
H 	H 	0.20560 0.66820 0.14490 0.06500
H 	H 	0.30800 0.67590 0.19990 0.08300
C 	C 	0.28770 0.78470 0.09470 -0.19400
H 	H 	0.29120 0.83590 0.08660 0.08400
H 	H 	0.35250 0.76640 0.10590 0.10400
N 	N 	0.16790 0.75780 0.78690 -0.13600
H 	H 	0.19930 0.77490 0.83530 0.13200
N 	N 	0.24510 0.77180 0.16730 -0.13300
H 	H 	0.18370 0.78800 0.15590 0.12700
O 	O 	0.96770 0.87010 0.73030 -0.19400
O 	O 	0.93640 0.81500 0.85940 -0.34100
O 	O 	0.08820 0.87930 0.86350 -0.49300
O 	O 	0.24160 0.66440 0.00610 -0.25100
O 	O 	0.26650 0.78060 0.93790 -0.19600
O 	O 	0.11780 0.76050 0.99630 -0.34700
O 	O 	0.12920 0.93450 0.02500 -0.58400
O 	O 	0.49400 0.89780 0.17040 -0.34500
O 	O 	0.56100 0.95460 0.27730 -0.33200
Nd	Nd	0.50000 0.65277 0.50000 2.25200
Nd	Nd	0.00000 0.15277 -0.00000 1.81600
Nd	Nd	0.50000 0.34723 0.50000 2.25000
Nd	Nd	0.00000 0.84723 -0.00000 1.83200
Nd	Nd	0.64316 0.50000 0.39023 1.73500
P 	P 	0.61953 0.50000 0.57575 0.48500
C 	C 	0.88560 0.50000 0.71950 0.02200
C 	C 	0.86930 0.50000 0.79610 -0.04400
H 	H 	0.92010 0.50000 0.84030 0.10800
C 	C 	0.77520 0.50000 0.80630 -0.05200
H 	H 	0.76250 0.50000 0.85760 0.08200
C 	C 	0.70000 0.50000 0.73920 0.00100
H 	H 	0.63730 0.50000 0.74630 0.03900
C 	C 	0.71710 0.50000 0.66110 -0.09400
C 	C 	0.81170 0.50000 0.65190 -0.01800
H 	H 	0.82520 0.50000 0.60090 0.03600
O 	O 	0.52650 0.50000 0.60240 -0.53400
O 	O 	0.01600 0.50000 0.62700 -0.27700
Nd	Nd	0.14316 0.00000 0.89023 1.71200
P 	P 	0.11953 0.00000 0.07575 0.46000
C 	C 	0.38560 0.00000 0.21950 -0.11200
C 	C 	0.36930 0.00000 0.29610 0.03500
H 	H 	0.42010 0.00000 0.34030 0.03800
C 	C 	0.27520 0.00000 0.30630 -0.12400
H 	H 	0.26250 0.00000 0.35760 0.08100
C 	C 	0.20000 0.00000 0.23920 0.04500
H 	H 	0.13730 0.00000 0.24630 0.01100
C 	C 	0.21710 0.00000 0.16110 -0.13900
C 	C 	0.31170 0.00000 0.15190 0.05400
H 	H 	0.32520 0.00000 0.10090 -0.01600
O 	O 	0.02650 0.00000 0.10240 -0.56200
O 	O 	0.51600 0.00000 0.12700 -0.31100
Nd	Nd	0.35684 0.50000 0.60977 1.72600
P 	P 	0.38047 0.50000 0.42425 0.49700
C 	C 	0.11440 0.50000 0.28050 -0.17400
C 	C 	0.13070 0.50000 0.20390 0.08000
H 	H 	0.07990 0.50000 0.15970 -0.00000
C 	C 	0.22480 0.50000 0.19370 -0.15300
H 	H 	0.23750 0.50000 0.14240 0.08900
C 	C 	0.30000 0.50000 0.26080 0.07100
H 	H 	0.36270 0.50000 0.25370 0.01000
C 	C 	0.28290 0.50000 0.33890 -0.15400
C 	C 	0.18830 0.50000 0.34810 0.09400
H 	H 	0.17480 0.50000 0.39910 -0.02100
O 	O 	0.47350 0.50000 0.39760 -0.53700
O 	O 	0.98400 0.50000 0.37300 -0.25300
Nd	Nd	0.85684 0.00000 0.10977 1.63900
P 	P 	0.88047 0.00000 0.92425 0.45400
C 	C 	0.61440 0.00000 0.78050 -0.09500
C 	C 	0.63070 0.00000 0.70390 0.02000
H 	H 	0.57990 0.00000 0.65970 0.04300
C 	C 	0.72480 0.00000 0.69370 -0.10800
H 	H 	0.73750 0.00000 0.64240 0.08100
C 	C 	0.80000 0.00000 0.76080 0.02800
H 	H 	0.86270 0.00000 0.75370 0.02800
C 	C 	0.78290 0.00000 0.83890 -0.11800
C 	C 	0.68830 0.00000 0.84810 0.03200
H 	H 	0.67480 0.00000 0.89910 0.01500
O 	O 	0.97350 0.00000 0.89760 -0.45600
O 	O 	0.48400 0.00000 0.87300 -0.27200
