data_crystal

_cell_length_a 6.66730
_cell_length_b 13.07710
_cell_length_c 21.27510
_cell_angle_alpha 90.00000
_cell_angle_beta  90.00000
_cell_angle_gamma 102.49200

_symmetry_space_group_name_	'P 1'
_symmetry_space_group_name_H-M	'P 1'

loop_
_symmetry_equiv_pos_as_xyz
  x,y,z

loop_
_atom_site_label
_atom_site_type_symbol
_atom_site_fract_x
_atom_site_fract_y
_atom_site_fract_z
_atom_site_charge
Co	Co	0.51751 0.54656 0.06695 1.09400
Co	Co	0.98249 0.95344 0.56695 1.11900
Co	Co	0.48249 0.45344 0.93305 1.11000
Co	Co	-0.00000 0.50000 -0.00000 1.09500
Co	Co	0.01751 0.04656 0.43305 1.08000
Co	Co	0.50000 0.00000 0.50000 1.11200
H 	H 	0.46460 0.88930 0.67570 0.06800
H 	H 	0.76600 0.89130 0.47510 0.31700
H 	H 	0.59800 0.74490 0.30480 0.01700
H 	H 	0.36000 0.24150 0.58970 0.10800
H 	H 	0.51770 0.24290 0.25210 0.01600
H 	H 	0.26600 0.39130 0.02490 0.31500
H 	H 	0.06770 0.47030 0.42170 -0.00200
H 	H 	0.90300 0.97140 0.32610 0.16400
H 	H 	0.56770 0.97030 0.07830 -0.00900
H 	H 	0.40300 0.47140 0.17390 0.12600
H 	H 	0.44700 0.40550 0.43170 0.01500
H 	H 	0.21600 0.47920 0.14620 0.11700
H 	H 	0.71600 0.97920 0.35380 0.15400
H 	H 	0.28400 0.02080 0.64620 0.08700
H 	H 	0.23400 0.10870 0.52490 0.32500
H 	H 	0.03540 0.61070 0.17570 0.05500
H 	H 	0.09700 0.02860 0.67390 0.08400
H 	H 	0.01770 0.74290 0.24790 0.01400
H 	H 	0.88500 0.88860 0.73390 0.08600
H 	H 	0.09800 0.24490 0.19520 -0.01400
H 	H 	0.12700 0.21960 0.60130 0.10300
H 	H 	0.64000 0.75850 0.41030 0.11000
H 	H 	0.57100 0.14800 0.08590 0.11400
H 	H 	0.53540 0.11070 0.32430 0.05600
H 	H 	0.11500 0.11140 0.26610 0.03500
H 	H 	0.78400 0.52080 0.85380 0.12900
H 	H 	0.86000 0.74150 0.91030 0.11800
H 	H 	0.04990 0.91690 0.92300 0.05400
H 	H 	0.38500 0.38860 0.76610 0.06500
H 	H 	0.87300 0.78040 0.39870 0.11800
H 	H 	0.43230 0.02970 0.92170 0.04500
H 	H 	0.92900 0.35200 0.58590 0.10700
H 	H 	0.48230 0.75710 0.74790 0.02200
H 	H 	0.90200 0.75510 0.80480 0.03400
H 	H 	0.07100 0.64800 0.41410 0.06900
H 	H 	0.55300 0.59450 0.56830 0.02100
H 	H 	0.54990 0.41690 0.57700 0.08500
H 	H 	0.45010 0.58310 0.42300 0.08400
H 	H 	0.05300 0.09450 0.93170 0.01900
H 	H 	0.94700 0.90550 0.06830 0.00200
H 	H 	0.95010 0.08310 0.07700 0.14000
H 	H 	0.59700 0.52860 0.82610 0.12900
H 	H 	0.62700 0.71960 0.89870 0.11200
H 	H 	0.14000 0.25850 0.08970 0.09800
H 	H 	0.73400 0.60870 0.97510 0.32500
H 	H 	0.98230 0.25710 0.75210 0.02400
H 	H 	0.61500 0.61140 0.23390 0.07200
H 	H 	0.40200 0.25510 0.69520 0.01300
H 	H 	0.42900 0.85200 0.91410 0.06800
H 	H 	0.96460 0.38930 0.82430 0.07000
H 	H 	0.37300 0.28040 0.10130 0.11000
H 	H 	0.93230 0.52970 0.57830 0.04000
C 	C 	0.55820 0.00691 0.92285 -0.04600
C 	C 	0.63860 0.21576 0.25462 0.02700
C 	C 	0.25630 0.80869 0.06099 0.14000
C 	C 	0.25740 0.91940 0.07091 -0.13700
C 	C 	0.26040 0.13417 0.08029 0.22000
C 	C 	0.74370 0.19131 0.93901 0.12000
C 	C 	0.05820 0.50691 0.57715 0.01500
C 	C 	0.49310 0.63757 0.23694 -0.15800
C 	C 	0.05610 0.40109 0.58174 -0.18200
C 	C 	0.51760 0.28335 0.72077 0.02900
C 	C 	0.57630 0.56054 0.42368 -0.16100
C 	C 	0.00690 0.86243 0.73694 -0.16800
C 	C 	0.82510 0.09645 0.30112 0.11500
C 	C 	0.86140 0.28424 0.75462 0.02500
C 	C 	0.07630 0.06054 0.07632 -0.31500
C 	C 	0.19610 0.74459 0.78478 -0.05800
C 	C 	0.20830 0.66696 0.83395 0.11700
C 	C 	0.44390 0.09891 0.08174 -0.26900
C 	C 	0.57440 0.45460 0.42859 0.04100
C 	C 	0.94180 0.49309 0.42285 0.06900
C 	C 	0.01760 0.78335 0.77923 0.00600
C 	C 	0.55610 0.90109 0.91826 -0.06600
C 	C 	0.42370 0.43946 0.57632 -0.16000
C 	C 	0.23960 0.36583 0.58029 0.16000
C 	C 	0.48240 0.71665 0.27923 0.03200
C 	C 	0.44180 0.99309 0.07715 0.14000
C 	C 	0.94390 0.59891 0.41826 -0.13600
C 	C 	0.35120 0.86306 0.70251 -0.13500
C 	C 	0.85120 0.36306 0.79749 -0.14100
C 	C 	0.98240 0.21665 0.22077 0.06500
C 	C 	0.73960 0.86583 0.91971 0.11300
C 	C 	0.42560 0.54540 0.57141 0.03400
C 	C 	0.14880 0.63694 0.20251 -0.14100
C 	C 	0.50690 0.36243 0.76306 -0.16000
C 	C 	0.75740 0.41940 0.42909 -0.08100
C 	C 	0.64880 0.13694 0.29749 -0.14400
C 	C 	0.13860 0.71576 0.24538 0.02300
C 	C 	0.36140 0.78424 0.74538 0.02000
C 	C 	0.32510 0.59645 0.19888 0.12100
C 	C 	0.67490 0.40355 0.80112 0.12500
C 	C 	0.76040 0.63417 0.41971 0.15400
C 	C 	0.07440 0.95460 0.07141 0.12300
C 	C 	0.24370 0.69131 0.56099 0.12200
C 	C 	0.92560 0.04540 0.92859 -0.00700
C 	C 	0.74260 0.08060 0.92909 -0.02500
C 	C 	0.79170 0.33304 0.16605 0.12600
C 	C 	0.70830 0.16696 0.66605 0.11900
C 	C 	0.29170 0.83304 0.33395 0.12200
C 	C 	0.69610 0.24459 0.71522 -0.06700
C 	C 	0.30390 0.75541 0.28478 -0.06800
C 	C 	0.99310 0.13757 0.26306 -0.12800
C 	C 	0.80390 0.25541 0.21522 -0.07900
C 	C 	0.17490 0.90355 0.69888 0.12500
C 	C 	0.75630 0.30869 0.43901 0.13200
C 	C 	0.92370 0.93946 0.92368 -0.05600
C 	C 	0.24260 0.58060 0.57091 -0.06400
N 	N 	0.14140 0.83340 0.54858 -0.18400
N 	N 	0.43980 0.86454 0.37719 -0.12700
N 	N 	0.16010 0.98558 0.65570 -0.32600
N 	N 	0.56020 0.13546 0.62281 -0.12700
N 	N 	0.64140 0.33340 0.95142 -0.17600
N 	N 	0.13160 0.87800 0.34361 -0.12800
N 	N 	0.76360 0.74153 0.41936 -0.27900
N 	N 	0.36750 0.93142 0.41409 -0.16700
N 	N 	0.91030 0.26477 0.95538 -0.10300
N 	N 	0.18420 0.93897 0.39461 -0.18000
N 	N 	0.13250 0.56858 0.91409 -0.16800
N 	N 	0.63160 0.37800 0.15639 -0.12500
N 	N 	0.66010 0.48558 0.84430 -0.38400
N 	N 	0.58970 0.23523 0.45538 -0.12300
N 	N 	0.65470 0.14637 0.46153 -0.17900
N 	N 	0.73640 0.75847 0.91936 -0.26700
N 	N 	0.42420 0.76698 0.06393 -0.12000
N 	N 	0.06020 0.63546 0.87719 -0.13100
N 	N 	0.92420 0.26698 0.43607 -0.10800
N 	N 	0.31580 0.56103 0.89461 -0.18200
N 	N 	0.86840 0.12200 0.65639 -0.12000
N 	N 	0.63250 0.06858 0.58591 -0.17900
N 	N 	0.07580 0.73302 0.56393 -0.11800
N 	N 	0.36840 0.62200 0.84361 -0.12300
N 	N 	0.08970 0.73523 0.04462 -0.13700
N 	N 	0.57580 0.23302 0.93607 -0.10900
N 	N 	0.26360 0.24153 0.08064 -0.29800
N 	N 	0.23640 0.25847 0.58064 -0.28200
N 	N 	0.93980 0.36454 0.12281 -0.12100
N 	N 	0.33990 0.51442 0.15570 -0.37900
N 	N 	0.81580 0.06103 0.60539 -0.19000
N 	N 	0.15470 0.64637 0.03847 -0.18600
N 	N 	0.85860 0.16660 0.45142 -0.18000
N 	N 	0.83990 0.01442 0.34430 -0.42500
N 	N 	0.41030 0.76477 0.54462 -0.11900
N 	N 	0.84530 0.35363 0.96153 -0.15800
N 	N 	0.35860 0.66660 0.04858 -0.19000
N 	N 	0.34530 0.85363 0.53847 -0.16900
N 	N 	0.86750 0.43142 0.08591 -0.17400
N 	N 	0.68420 0.43897 0.10539 -0.18900
O 	O 	0.78658 0.94987 0.48780 -0.83700
O 	O 	0.71342 0.55013 0.98780 -0.82800
O 	O 	0.21342 0.05013 0.51220 -0.88800
O 	O 	0.28658 0.44987 0.01220 -0.88900
