data_crystal

_cell_length_a 7.69780
_cell_length_b 17.25000
_cell_length_c 14.08900
_cell_angle_alpha 90.00000
_cell_angle_beta  93.10200
_cell_angle_gamma 90.00000

_symmetry_space_group_name_	'P 1'
_symmetry_space_group_name_H-M	'P 1'

loop_
_symmetry_equiv_pos_as_xyz
  x,y,z

loop_
_atom_site_label
_atom_site_type_symbol
_atom_site_fract_x
_atom_site_fract_y
_atom_site_fract_z
_atom_site_charge
Zn	Zn	0.41149 0.62629 0.29507 1.21200
O 	O 	0.34570 0.76508 0.79950 -0.45200
O 	O 	0.28670 0.77715 0.64560 -0.31700
O 	O 	0.95740 0.39795 0.64400 -0.30000
O 	O 	0.75810 0.45461 0.72860 -0.46100
N 	N 	0.59660 0.60033 0.20530 -0.28600
N 	N 	0.49940 0.61632 0.43530 -0.24800
C 	C 	0.65940 0.63510 0.47060 0.05500
H 	H 	0.74710 0.64290 0.42880 0.00700
C 	C 	0.69800 0.64330 0.56690 -0.09400
H 	H 	0.81050 0.65590 0.58910 0.07300
C 	C 	0.57050 0.63280 0.62960 -0.00500
H 	H 	0.59510 0.63860 0.69460 0.03700
C 	C 	0.40450 0.61330 0.59520 -0.03200
C 	C 	0.37830 0.60440 0.49830 0.02700
H 	H 	0.26840 0.58910 0.47500 0.01900
C 	C 	0.25420 0.60250 0.65570 0.05900
C 	C 	0.20570 0.66100 0.71940 -0.10000
C 	C 	0.06660 0.64860 0.77550 0.00700
H 	H 	0.03810 0.68610 0.81950 0.04000
C 	C 	0.73360 0.64500 0.19140 0.12900
H 	H 	0.74420 0.69150 0.22460 -0.03000
C 	C 	0.86080 0.62570 0.13050 -0.19800
H 	H 	0.95410 0.65900 0.12320 0.11200
C 	C 	0.84970 0.55680 0.08010 0.14200
C 	C 	0.70410 0.51110 0.09200 -0.18500
H 	H 	0.68860 0.46520 0.05790 0.10200
C 	C 	0.58300 0.53400 0.15430 0.10500
H 	H 	0.48690 0.50240 0.16180 -0.01500
C 	C 	0.99040 0.53380 0.01950 -0.09200
H 	H 	0.07370 0.57120 0.00780 0.06800
C 	C 	0.90480 0.45280 0.69040 0.32300
C 	C 	0.01220 0.52460 0.70410 -0.03800
C 	C 	0.15670 0.53500 0.64990 -0.07600
H 	H 	0.18830 0.49580 0.60890 0.06200
C 	C 	0.96920 0.58160 0.76730 -0.05200
H 	H 	0.87420 0.57480 0.80450 0.06300
C 	C 	0.28710 0.73960 0.71960 0.34100
Zn	Zn	0.58851 0.12629 0.20493 1.21100
O 	O 	0.65430 0.26508 0.70050 -0.45300
O 	O 	0.71330 0.27715 0.85440 -0.31700
O 	O 	0.04260 0.89795 0.85600 -0.30000
O 	O 	0.24190 0.95461 0.77140 -0.46100
N 	N 	0.40340 0.10033 0.29470 -0.28600
N 	N 	0.50060 0.11632 0.06470 -0.24700
C 	C 	0.34060 0.13510 0.02940 0.05300
H 	H 	0.25290 0.14290 0.07120 0.00700
C 	C 	0.30200 0.14330 0.93310 -0.09100
H 	H 	0.18950 0.15590 0.91090 0.07200
C 	C 	0.42950 0.13280 0.87040 -0.00700
H 	H 	0.40490 0.13860 0.80540 0.03800
C 	C 	0.59550 0.11330 0.90480 -0.02900
C 	C 	0.62170 0.10440 0.00170 0.02500
H 	H 	0.73160 0.08910 0.02500 0.01900
C 	C 	0.74580 0.10250 0.84430 0.05600
C 	C 	0.79430 0.16100 0.78060 -0.09900
C 	C 	0.93340 0.14860 0.72450 0.00500
H 	H 	0.96190 0.18610 0.68050 0.04100
C 	C 	0.26640 0.14500 0.30860 0.13000
H 	H 	0.25580 0.19150 0.27540 -0.03000
C 	C 	0.13920 0.12570 0.36950 -0.19900
H 	H 	0.04590 0.15900 0.37680 0.11200
C 	C 	0.15030 0.05680 0.41990 0.14200
C 	C 	0.29590 0.01110 0.40800 -0.18600
H 	H 	0.31140 0.96520 0.44210 0.10300
C 	C 	0.41700 0.03400 0.34570 0.10500
H 	H 	0.51310 0.00240 0.33820 -0.01500
C 	C 	0.00960 0.03380 0.48050 -0.09300
H 	H 	0.92630 0.07120 0.49220 0.06900
C 	C 	0.09520 0.95280 0.80960 0.32400
C 	C 	0.98780 0.02460 0.79590 -0.04000
C 	C 	0.84330 0.03500 0.85010 -0.07300
H 	H 	0.81170 0.99580 0.89110 0.06000
C 	C 	0.03080 0.08160 0.73270 -0.04900
H 	H 	0.12580 0.07480 0.69550 0.06200
C 	C 	0.71290 0.23960 0.78040 0.34000
Zn	Zn	0.58851 0.37371 0.70493 1.21100
O 	O 	0.65430 0.23492 0.20050 -0.45300
O 	O 	0.71330 0.22285 0.35440 -0.31700
O 	O 	0.04260 0.60205 0.35600 -0.30000
O 	O 	0.24190 0.54539 0.27140 -0.46100
N 	N 	0.40340 0.39967 0.79470 -0.28600
N 	N 	0.50060 0.38368 0.56470 -0.24800
C 	C 	0.34060 0.36490 0.52940 0.05500
H 	H 	0.25290 0.35710 0.57120 0.00700
C 	C 	0.30200 0.35670 0.43310 -0.09400
H 	H 	0.18950 0.34410 0.41090 0.07300
C 	C 	0.42950 0.36720 0.37040 -0.00500
H 	H 	0.40490 0.36140 0.30540 0.03700
C 	C 	0.59550 0.38670 0.40480 -0.03200
C 	C 	0.62170 0.39560 0.50170 0.02700
H 	H 	0.73160 0.41090 0.52500 0.01900
C 	C 	0.74580 0.39750 0.34430 0.05900
C 	C 	0.79430 0.33900 0.28060 -0.10000
C 	C 	0.93340 0.35140 0.22450 0.00700
H 	H 	0.96190 0.31390 0.18050 0.04000
C 	C 	0.26640 0.35500 0.80860 0.12900
H 	H 	0.25580 0.30850 0.77540 -0.03000
C 	C 	0.13920 0.37430 0.86950 -0.19800
H 	H 	0.04590 0.34100 0.87680 0.11200
C 	C 	0.15030 0.44320 0.91990 0.14200
C 	C 	0.29590 0.48890 0.90800 -0.18500
H 	H 	0.31140 0.53480 0.94210 0.10200
C 	C 	0.41700 0.46600 0.84570 0.10500
H 	H 	0.51310 0.49760 0.83820 -0.01500
C 	C 	0.00960 0.46620 0.98050 -0.09200
H 	H 	0.92630 0.42880 0.99220 0.06800
C 	C 	0.09520 0.54720 0.30960 0.32300
C 	C 	0.98780 0.47540 0.29590 -0.03800
C 	C 	0.84330 0.46500 0.35010 -0.07600
H 	H 	0.81170 0.50420 0.39110 0.06200
C 	C 	0.03080 0.41840 0.23270 -0.05200
H 	H 	0.12580 0.42520 0.19550 0.06300
C 	C 	0.71290 0.26040 0.28040 0.34100
Zn	Zn	0.41149 0.87371 0.79507 1.21100
O 	O 	0.34570 0.73492 0.29950 -0.45300
O 	O 	0.28670 0.72285 0.14560 -0.31700
O 	O 	0.95740 0.10205 0.14400 -0.30000
O 	O 	0.75810 0.04539 0.22860 -0.46100
N 	N 	0.59660 0.89967 0.70530 -0.28600
N 	N 	0.49940 0.88368 0.93530 -0.24700
C 	C 	0.65940 0.86490 0.97060 0.05300
H 	H 	0.74710 0.85710 0.92880 0.00700
C 	C 	0.69800 0.85670 0.06690 -0.09100
H 	H 	0.81050 0.84410 0.08910 0.07200
C 	C 	0.57050 0.86720 0.12960 -0.00700
H 	H 	0.59510 0.86140 0.19460 0.03800
C 	C 	0.40450 0.88670 0.09520 -0.02900
C 	C 	0.37830 0.89560 0.99830 0.02500
H 	H 	0.26840 0.91090 0.97500 0.01900
C 	C 	0.25420 0.89750 0.15570 0.05600
C 	C 	0.20570 0.83900 0.21940 -0.09900
C 	C 	0.06660 0.85140 0.27550 0.00500
H 	H 	0.03810 0.81390 0.31950 0.04100
C 	C 	0.73360 0.85500 0.69140 0.13000
H 	H 	0.74420 0.80850 0.72460 -0.03000
C 	C 	0.86080 0.87430 0.63050 -0.19900
H 	H 	0.95410 0.84100 0.62320 0.11200
C 	C 	0.84970 0.94320 0.58010 0.14200
C 	C 	0.70410 0.98890 0.59200 -0.18600
H 	H 	0.68860 0.03480 0.55790 0.10300
C 	C 	0.58300 0.96600 0.65430 0.10500
H 	H 	0.48690 0.99760 0.66180 -0.01500
C 	C 	0.99040 0.96620 0.51950 -0.09300
H 	H 	0.07370 0.92880 0.50780 0.06900
C 	C 	0.90480 0.04720 0.19040 0.32400
C 	C 	0.01220 0.97540 0.20410 -0.04000
C 	C 	0.15670 0.96500 0.14990 -0.07300
H 	H 	0.18830 0.00420 0.10890 0.06000
C 	C 	0.96920 0.91840 0.26730 -0.04900
H 	H 	0.87420 0.92520 0.30450 0.06200
C 	C 	0.28710 0.76040 0.21960 0.34000
