data_crystal

_cell_length_a 26.45290
_cell_length_b 26.45290
_cell_length_c 26.45290
_cell_angle_alpha 90.00000
_cell_angle_beta  90.00000
_cell_angle_gamma 90.00000

_symmetry_space_group_name_	'P 1'
_symmetry_space_group_name_H-M	'P 1'

loop_
_symmetry_equiv_pos_as_xyz
  x,y,z

loop_
_atom_site_label
_atom_site_type_symbol
_atom_site_fract_x
_atom_site_fract_y
_atom_site_fract_z
_atom_site_charge
Co	Co	0.83851 0.86800 0.77524 1.09900
Co	Co	0.82465 0.76018 0.73207 1.13800
Co	Co	0.78948 0.85631 0.66836 1.10600
Co	Co	0.66149 0.13200 0.27524 1.09900
Co	Co	0.67535 0.23982 0.23207 1.13800
Co	Co	0.71052 0.14369 0.16836 1.10600
Co	Co	0.16149 0.36800 0.72476 1.09900
Co	Co	0.17535 0.26018 0.76793 1.13800
Co	Co	0.21052 0.35631 0.83164 1.10600
Co	Co	0.33851 0.63200 0.22476 1.09900
Co	Co	0.32465 0.73982 0.26793 1.13800
Co	Co	0.28948 0.64369 0.33164 1.10600
Co	Co	0.77524 0.83851 0.86800 1.10000
Co	Co	0.73207 0.82465 0.76018 1.13900
Co	Co	0.66836 0.78948 0.85631 1.10700
Co	Co	0.27524 0.66149 0.13200 1.10000
Co	Co	0.23207 0.67535 0.23982 1.13900
Co	Co	0.16836 0.71052 0.14369 1.10700
Co	Co	0.72476 0.16149 0.36800 1.10000
Co	Co	0.76793 0.17535 0.26018 1.13900
Co	Co	0.83164 0.21052 0.35631 1.10700
Co	Co	0.22476 0.33851 0.63200 1.10000
Co	Co	0.26793 0.32465 0.73982 1.13900
Co	Co	0.33164 0.28948 0.64369 1.10700
Co	Co	0.86800 0.77524 0.83851 1.10000
Co	Co	0.76018 0.73207 0.82465 1.13900
Co	Co	0.85631 0.66836 0.78948 1.10700
Co	Co	0.13200 0.27524 0.66149 1.10000
Co	Co	0.23982 0.23207 0.67535 1.13900
Co	Co	0.14369 0.16836 0.71052 1.10700
Co	Co	0.36800 0.72476 0.16149 1.10000
Co	Co	0.26018 0.76793 0.17535 1.13900
Co	Co	0.35631 0.83164 0.21052 1.10700
Co	Co	0.63200 0.22476 0.33851 1.10000
Co	Co	0.73982 0.26793 0.32465 1.13900
Co	Co	0.64369 0.33164 0.28948 1.10700
Co	Co	0.16149 0.13200 0.22476 1.10000
Co	Co	0.17535 0.23982 0.26793 1.13900
Co	Co	0.21052 0.14369 0.33164 1.10700
Co	Co	0.33851 0.86800 0.72476 1.10000
Co	Co	0.32465 0.76018 0.76793 1.13900
Co	Co	0.28948 0.85631 0.83164 1.10700
Co	Co	0.83851 0.63200 0.27524 1.10000
Co	Co	0.82465 0.73982 0.23207 1.13900
Co	Co	0.78948 0.64369 0.16836 1.10700
Co	Co	0.66149 0.36800 0.77524 1.10000
Co	Co	0.67535 0.26018 0.73207 1.13900
Co	Co	0.71052 0.35631 0.66836 1.10700
Co	Co	0.22476 0.16149 0.13200 1.10000
Co	Co	0.26793 0.17535 0.23982 1.13900
Co	Co	0.33164 0.21052 0.14369 1.10700
Co	Co	0.72476 0.33851 0.86800 1.10000
Co	Co	0.76793 0.32465 0.76018 1.13900
Co	Co	0.83164 0.28948 0.85631 1.10700
Co	Co	0.27524 0.83851 0.63200 1.10000
Co	Co	0.23207 0.82465 0.73982 1.13900
Co	Co	0.16836 0.78948 0.64369 1.10700
Co	Co	0.77524 0.66149 0.36800 1.10000
Co	Co	0.73207 0.67535 0.26018 1.13900
Co	Co	0.66836 0.71052 0.35631 1.10700
Co	Co	0.13200 0.22476 0.16149 1.10000
Co	Co	0.23982 0.26793 0.17535 1.13900
Co	Co	0.14369 0.33164 0.21052 1.10700
Co	Co	0.86800 0.72476 0.33851 1.10000
Co	Co	0.76018 0.76793 0.32465 1.13900
Co	Co	0.85631 0.83164 0.28948 1.10700
Co	Co	0.63200 0.27524 0.83851 1.10000
Co	Co	0.73982 0.23207 0.82465 1.13900
Co	Co	0.64369 0.16836 0.78948 1.10700
Co	Co	0.36800 0.77524 0.66149 1.10000
Co	Co	0.26018 0.73207 0.67535 1.13900
Co	Co	0.35631 0.66836 0.71052 1.10700
Co	Co	0.88223 0.88223 0.88223 0.99800
Co	Co	0.61777 0.11777 0.38223 0.99800
Co	Co	0.11777 0.38223 0.61777 0.99800
Co	Co	0.38223 0.61777 0.11777 0.99800
Co	Co	0.11777 0.11777 0.11777 0.99800
Co	Co	0.38223 0.88223 0.61777 0.99800
Co	Co	0.88223 0.61777 0.38223 0.99800
Co	Co	0.61777 0.38223 0.88223 0.99800
H 	H 	0.06040 0.76110 0.62090 -0.03800
H 	H 	0.98120 0.76310 0.65450 0.09800
H 	H 	0.11170 0.84680 0.72640 -0.01900
H 	H 	0.03360 0.85270 0.76330 0.08300
H 	H 	0.96040 0.73960 0.77670 -0.08000
H 	H 	0.93840 0.72940 0.72270 -0.05500
H 	H 	0.91140 0.80710 0.66640 -0.05100
H 	H 	0.91790 0.86170 0.68830 -0.07800
H 	H 	0.95370 0.87450 0.77670 -0.10500
H 	H 	0.97110 0.82810 0.80900 -0.10100
H 	H 	0.70220 0.76870 0.65830 -0.04300
H 	H 	0.74940 0.73500 0.64680 -0.04000
H 	H 	0.68940 0.70820 0.60780 0.03400
H 	H 	0.63900 0.65710 0.55720 -0.01000
H 	H 	0.59840 0.58110 0.67910 0.00800
H 	H 	0.64970 0.62860 0.73250 0.03700
H 	H 	0.88380 0.65890 0.60060 0.29700
H 	H 	0.88140 0.60780 0.63050 0.29800
H 	H 	0.83140 0.63670 0.61710 0.31500
H 	H 	0.43960 0.23890 0.12090 -0.03900
H 	H 	0.51880 0.23690 0.15450 0.09900
H 	H 	0.38830 0.15320 0.22640 -0.01900
H 	H 	0.46640 0.14730 0.26330 0.08400
H 	H 	0.53960 0.26040 0.27670 -0.08000
H 	H 	0.56160 0.27060 0.22270 -0.05500
H 	H 	0.58860 0.19290 0.16640 -0.05100
H 	H 	0.58210 0.13830 0.18830 -0.07800
H 	H 	0.54630 0.12550 0.27670 -0.10500
H 	H 	0.52890 0.17190 0.30900 -0.10100
H 	H 	0.79780 0.23130 0.15830 -0.04300
H 	H 	0.75060 0.26500 0.14680 -0.04000
H 	H 	0.81060 0.29180 0.10780 0.03400
H 	H 	0.86100 0.34290 0.05720 -0.01000
H 	H 	0.90160 0.41890 0.17910 0.00900
H 	H 	0.85030 0.37140 0.23250 0.03700
H 	H 	0.61620 0.34110 0.10060 0.29700
H 	H 	0.61860 0.39220 0.13050 0.29900
H 	H 	0.66860 0.36330 0.11710 0.31500
H 	H 	0.93960 0.26110 0.87910 -0.03900
H 	H 	0.01880 0.26310 0.84550 0.09900
H 	H 	0.88830 0.34680 0.77360 -0.01900
H 	H 	0.96640 0.35270 0.73670 0.08400
H 	H 	0.03960 0.23960 0.72330 -0.08000
H 	H 	0.06160 0.22940 0.77730 -0.05500
H 	H 	0.08860 0.30710 0.83360 -0.05100
H 	H 	0.08210 0.36170 0.81170 -0.07800
H 	H 	0.04630 0.37450 0.72330 -0.10500
H 	H 	0.02890 0.32810 0.69100 -0.10100
H 	H 	0.29780 0.26870 0.84170 -0.04300
H 	H 	0.25060 0.23500 0.85320 -0.04000
H 	H 	0.31060 0.20820 0.89220 0.03400
H 	H 	0.36100 0.15710 0.94280 -0.01000
H 	H 	0.40160 0.08110 0.82090 0.00800
H 	H 	0.35030 0.12860 0.76750 0.03700
H 	H 	0.11620 0.15890 0.89940 0.29700
H 	H 	0.11860 0.10780 0.86950 0.29900
H 	H 	0.16860 0.13670 0.88290 0.31500
H 	H 	0.56040 0.73890 0.37910 -0.03900
H 	H 	0.48120 0.73690 0.34550 0.09900
H 	H 	0.61170 0.65320 0.27360 -0.01900
H 	H 	0.53360 0.64730 0.23670 0.08400
H 	H 	0.46040 0.76040 0.22330 -0.08000
H 	H 	0.43840 0.77060 0.27730 -0.05500
H 	H 	0.41140 0.69290 0.33360 -0.05100
H 	H 	0.41790 0.63830 0.31170 -0.07800
H 	H 	0.45370 0.62550 0.22330 -0.10400
H 	H 	0.47110 0.67190 0.19100 -0.10100
H 	H 	0.20220 0.73130 0.34170 -0.04300
H 	H 	0.24940 0.76500 0.35320 -0.04000
H 	H 	0.18940 0.79180 0.39220 0.03400
H 	H 	0.13900 0.84290 0.44280 -0.01000
H 	H 	0.09840 0.91890 0.32090 0.00900
H 	H 	0.14970 0.87140 0.26750 0.03700
H 	H 	0.38380 0.84110 0.39940 0.29700
H 	H 	0.38140 0.89220 0.36950 0.29900
H 	H 	0.33140 0.86330 0.38290 0.31500
H 	H 	0.62090 0.06040 0.76110 -0.03800
H 	H 	0.65450 0.98120 0.76310 0.09800
H 	H 	0.72640 0.11170 0.84680 -0.01900
H 	H 	0.76330 0.03360 0.85270 0.08300
H 	H 	0.77670 0.96040 0.73960 -0.08000
H 	H 	0.72270 0.93840 0.72940 -0.05500
H 	H 	0.66640 0.91140 0.80710 -0.05100
H 	H 	0.68830 0.91790 0.86170 -0.07800
H 	H 	0.77670 0.95370 0.87450 -0.10500
H 	H 	0.80900 0.97110 0.82810 -0.10100
H 	H 	0.65830 0.70220 0.76870 -0.04300
H 	H 	0.64680 0.74940 0.73500 -0.04000
H 	H 	0.60780 0.68940 0.70820 0.03400
H 	H 	0.55720 0.63900 0.65710 -0.01000
H 	H 	0.67910 0.59840 0.58110 0.00800
H 	H 	0.73250 0.64970 0.62860 0.03700
H 	H 	0.60060 0.88380 0.65890 0.29700
H 	H 	0.63050 0.88140 0.60780 0.29800
H 	H 	0.61710 0.83140 0.63670 0.31500
H 	H 	0.12090 0.43960 0.23890 -0.03900
H 	H 	0.15450 0.51880 0.23690 0.09900
H 	H 	0.22640 0.38830 0.15320 -0.01900
H 	H 	0.26330 0.46640 0.14730 0.08400
H 	H 	0.27670 0.53960 0.26040 -0.08000
H 	H 	0.22270 0.56160 0.27060 -0.05500
H 	H 	0.16640 0.58860 0.19290 -0.05100
H 	H 	0.18830 0.58210 0.13830 -0.07800
H 	H 	0.27670 0.54630 0.12550 -0.10500
H 	H 	0.30900 0.52890 0.17190 -0.10100
H 	H 	0.15830 0.79780 0.23130 -0.04300
H 	H 	0.14680 0.75060 0.26500 -0.04000
H 	H 	0.10780 0.81060 0.29180 0.03400
H 	H 	0.05720 0.86100 0.34290 -0.01000
H 	H 	0.17910 0.90160 0.41890 0.00900
H 	H 	0.23250 0.85030 0.37140 0.03700
H 	H 	0.10060 0.61620 0.34110 0.29700
H 	H 	0.13050 0.61860 0.39220 0.29900
H 	H 	0.11710 0.66860 0.36330 0.31500
H 	H 	0.87910 0.93960 0.26110 -0.03900
H 	H 	0.84550 0.01880 0.26310 0.09900
H 	H 	0.77360 0.88830 0.34680 -0.01900
H 	H 	0.73670 0.96640 0.35270 0.08400
H 	H 	0.72330 0.03960 0.23960 -0.08000
H 	H 	0.77730 0.06160 0.22940 -0.05500
H 	H 	0.83360 0.08860 0.30710 -0.05100
H 	H 	0.81170 0.08210 0.36170 -0.07800
H 	H 	0.72330 0.04630 0.37450 -0.10500
H 	H 	0.69100 0.02890 0.32810 -0.10100
H 	H 	0.84170 0.29780 0.26870 -0.04300
H 	H 	0.85320 0.25060 0.23500 -0.04000
H 	H 	0.89220 0.31060 0.20820 0.03400
H 	H 	0.94280 0.36100 0.15710 -0.01000
H 	H 	0.82090 0.40160 0.08110 0.00800
H 	H 	0.76750 0.35030 0.12860 0.03700
H 	H 	0.89940 0.11620 0.15890 0.29700
H 	H 	0.86950 0.11860 0.10780 0.29900
H 	H 	0.88290 0.16860 0.13670 0.31500
H 	H 	0.37910 0.56040 0.73890 -0.03900
H 	H 	0.34550 0.48120 0.73690 0.09900
H 	H 	0.27360 0.61170 0.65320 -0.01900
H 	H 	0.23670 0.53360 0.64730 0.08400
H 	H 	0.22330 0.46040 0.76040 -0.08000
H 	H 	0.27730 0.43840 0.77060 -0.05500
H 	H 	0.33360 0.41140 0.69290 -0.05100
H 	H 	0.31170 0.41790 0.63830 -0.07800
H 	H 	0.22330 0.45370 0.62550 -0.10400
H 	H 	0.19100 0.47110 0.67190 -0.10100
H 	H 	0.34170 0.20220 0.73130 -0.04300
H 	H 	0.35320 0.24940 0.76500 -0.04000
H 	H 	0.39220 0.18940 0.79180 0.03400
H 	H 	0.44280 0.13900 0.84290 -0.01000
H 	H 	0.32090 0.09840 0.91890 0.00900
H 	H 	0.26750 0.14970 0.87140 0.03700
H 	H 	0.39940 0.38380 0.84110 0.29700
H 	H 	0.36950 0.38140 0.89220 0.29900
H 	H 	0.38290 0.33140 0.86330 0.31500
H 	H 	0.76110 0.62090 0.06040 -0.03800
H 	H 	0.76310 0.65450 0.98120 0.09800
H 	H 	0.84680 0.72640 0.11170 -0.01900
H 	H 	0.85270 0.76330 0.03360 0.08300
H 	H 	0.73960 0.77670 0.96040 -0.08000
H 	H 	0.72940 0.72270 0.93840 -0.05500
H 	H 	0.80710 0.66640 0.91140 -0.05100
H 	H 	0.86170 0.68830 0.91790 -0.07800
H 	H 	0.87450 0.77670 0.95370 -0.10500
H 	H 	0.82810 0.80900 0.97110 -0.10100
H 	H 	0.76870 0.65830 0.70220 -0.04300
H 	H 	0.73500 0.64680 0.74940 -0.04000
H 	H 	0.70820 0.60780 0.68940 0.03400
H 	H 	0.65710 0.55720 0.63900 -0.01000
H 	H 	0.58110 0.67910 0.59840 0.00800
H 	H 	0.62860 0.73250 0.64970 0.03700
H 	H 	0.65890 0.60060 0.88380 0.29700
H 	H 	0.60780 0.63050 0.88140 0.29800
H 	H 	0.63670 0.61710 0.83140 0.31500
H 	H 	0.23890 0.12090 0.43960 -0.03900
H 	H 	0.23690 0.15450 0.51880 0.09900
H 	H 	0.15320 0.22640 0.38830 -0.01900
H 	H 	0.14730 0.26330 0.46640 0.08400
H 	H 	0.26040 0.27670 0.53960 -0.08000
H 	H 	0.27060 0.22270 0.56160 -0.05500
H 	H 	0.19290 0.16640 0.58860 -0.05100
H 	H 	0.13830 0.18830 0.58210 -0.07800
H 	H 	0.12550 0.27670 0.54630 -0.10500
H 	H 	0.17190 0.30900 0.52890 -0.10100
H 	H 	0.23130 0.15830 0.79780 -0.04300
H 	H 	0.26500 0.14680 0.75060 -0.04000
H 	H 	0.29180 0.10780 0.81060 0.03400
H 	H 	0.34290 0.05720 0.86100 -0.01000
H 	H 	0.41890 0.17910 0.90160 0.00900
H 	H 	0.37140 0.23250 0.85030 0.03700
H 	H 	0.34110 0.10060 0.61620 0.29700
H 	H 	0.39220 0.13050 0.61860 0.29900
H 	H 	0.36330 0.11710 0.66860 0.31500
H 	H 	0.26110 0.87910 0.93960 -0.03900
H 	H 	0.26310 0.84550 0.01880 0.09900
H 	H 	0.34680 0.77360 0.88830 -0.01900
H 	H 	0.35270 0.73670 0.96640 0.08400
H 	H 	0.23960 0.72330 0.03960 -0.08000
H 	H 	0.22940 0.77730 0.06160 -0.05500
H 	H 	0.30710 0.83360 0.08860 -0.05100
H 	H 	0.36170 0.81170 0.08210 -0.07800
H 	H 	0.37450 0.72330 0.04630 -0.10500
H 	H 	0.32810 0.69100 0.02890 -0.10100
H 	H 	0.26870 0.84170 0.29780 -0.04300
H 	H 	0.23500 0.85320 0.25060 -0.04000
H 	H 	0.20820 0.89220 0.31060 0.03400
H 	H 	0.15710 0.94280 0.36100 -0.01000
H 	H 	0.08110 0.82090 0.40160 0.00800
H 	H 	0.12860 0.76750 0.35030 0.03700
H 	H 	0.15890 0.89940 0.11620 0.29700
H 	H 	0.10780 0.86950 0.11860 0.29900
H 	H 	0.13670 0.88290 0.16860 0.31500
H 	H 	0.73890 0.37910 0.56040 -0.03900
H 	H 	0.73690 0.34550 0.48120 0.09900
H 	H 	0.65320 0.27360 0.61170 -0.01900
H 	H 	0.64730 0.23670 0.53360 0.08400
H 	H 	0.76040 0.22330 0.46040 -0.08000
H 	H 	0.77060 0.27730 0.43840 -0.05500
H 	H 	0.69290 0.33360 0.41140 -0.05100
H 	H 	0.63830 0.31170 0.41790 -0.07800
H 	H 	0.62550 0.22330 0.45370 -0.10400
H 	H 	0.67190 0.19100 0.47110 -0.10100
H 	H 	0.73130 0.34170 0.20220 -0.04300
H 	H 	0.76500 0.35320 0.24940 -0.04000
H 	H 	0.79180 0.39220 0.18940 0.03400
H 	H 	0.84290 0.44280 0.13900 -0.01000
H 	H 	0.91890 0.32090 0.09840 0.00900
H 	H 	0.87140 0.26750 0.14970 0.03700
H 	H 	0.84110 0.39940 0.38380 0.29700
H 	H 	0.89220 0.36950 0.38140 0.29900
H 	H 	0.86330 0.38290 0.33140 0.31500
H 	H 	0.93960 0.23890 0.37910 -0.03800
H 	H 	0.01880 0.23690 0.34550 0.09800
H 	H 	0.88830 0.15320 0.27360 -0.01900
H 	H 	0.96640 0.14730 0.23670 0.08300
H 	H 	0.03960 0.26040 0.22330 -0.08000
H 	H 	0.06160 0.27060 0.27730 -0.05500
H 	H 	0.08860 0.19290 0.33360 -0.05100
H 	H 	0.08210 0.13830 0.31170 -0.07800
H 	H 	0.04630 0.12550 0.22330 -0.10500
H 	H 	0.02890 0.17190 0.19100 -0.10100
H 	H 	0.29780 0.23130 0.34170 -0.04300
H 	H 	0.25060 0.26500 0.35320 -0.04000
H 	H 	0.31060 0.29180 0.39220 0.03400
H 	H 	0.36100 0.34290 0.44280 -0.01000
H 	H 	0.40160 0.41890 0.32090 0.00800
H 	H 	0.35030 0.37140 0.26750 0.03700
H 	H 	0.11620 0.34110 0.39940 0.29700
H 	H 	0.11860 0.39220 0.36950 0.29800
H 	H 	0.16860 0.36330 0.38290 0.31500
H 	H 	0.56040 0.76110 0.87910 -0.03900
H 	H 	0.48120 0.76310 0.84550 0.09900
H 	H 	0.61170 0.84680 0.77360 -0.01900
H 	H 	0.53360 0.85270 0.73670 0.08400
H 	H 	0.46040 0.73960 0.72330 -0.08000
H 	H 	0.43840 0.72940 0.77730 -0.05500
H 	H 	0.41140 0.80710 0.83360 -0.05100
H 	H 	0.41790 0.86170 0.81170 -0.07800
H 	H 	0.45370 0.87450 0.72330 -0.10500
H 	H 	0.47110 0.82810 0.69100 -0.10100
H 	H 	0.20220 0.76870 0.84170 -0.04300
H 	H 	0.24940 0.73500 0.85320 -0.04000
H 	H 	0.18940 0.70820 0.89220 0.03400
H 	H 	0.13900 0.65710 0.94280 -0.01000
H 	H 	0.09840 0.58110 0.82090 0.00900
H 	H 	0.14970 0.62860 0.76750 0.03700
H 	H 	0.38380 0.65890 0.89940 0.29700
H 	H 	0.38140 0.60780 0.86950 0.29900
H 	H 	0.33140 0.63670 0.88290 0.31500
H 	H 	0.06040 0.73890 0.12090 -0.03900
H 	H 	0.98120 0.73690 0.15450 0.09900
H 	H 	0.11170 0.65320 0.22640 -0.01900
H 	H 	0.03360 0.64730 0.26330 0.08400
H 	H 	0.96040 0.76040 0.27670 -0.08000
H 	H 	0.93840 0.77060 0.22270 -0.05500
H 	H 	0.91140 0.69290 0.16640 -0.05100
H 	H 	0.91790 0.63830 0.18830 -0.07800
H 	H 	0.95370 0.62550 0.27670 -0.10500
H 	H 	0.97110 0.67190 0.30900 -0.10100
H 	H 	0.70220 0.73130 0.15830 -0.04300
H 	H 	0.74940 0.76500 0.14680 -0.04000
H 	H 	0.68940 0.79180 0.10780 0.03400
H 	H 	0.63900 0.84290 0.05720 -0.01000
H 	H 	0.59840 0.91890 0.17910 0.00800
H 	H 	0.64970 0.87140 0.23250 0.03700
H 	H 	0.88380 0.84110 0.10060 0.29700
H 	H 	0.88140 0.89220 0.13050 0.29900
H 	H 	0.83140 0.86330 0.11710 0.31500
H 	H 	0.43960 0.26110 0.62090 -0.03900
H 	H 	0.51880 0.26310 0.65450 0.09900
H 	H 	0.38830 0.34680 0.72640 -0.01900
H 	H 	0.46640 0.35270 0.76330 0.08400
H 	H 	0.53960 0.23960 0.77670 -0.08000
H 	H 	0.56160 0.22940 0.72270 -0.05500
H 	H 	0.58860 0.30710 0.66640 -0.05100
H 	H 	0.58210 0.36170 0.68830 -0.07800
H 	H 	0.54630 0.37450 0.77670 -0.10400
H 	H 	0.52890 0.32810 0.80900 -0.10100
H 	H 	0.79780 0.26870 0.65830 -0.04300
H 	H 	0.75060 0.23500 0.64680 -0.04000
H 	H 	0.81060 0.20820 0.60780 0.03400
H 	H 	0.86100 0.15710 0.55720 -0.01000
H 	H 	0.90160 0.08110 0.67910 0.00900
H 	H 	0.85030 0.12860 0.73250 0.03700
H 	H 	0.61620 0.15890 0.60060 0.29700
H 	H 	0.61860 0.10780 0.63050 0.29900
H 	H 	0.66860 0.13670 0.61710 0.31500
H 	H 	0.37910 0.93960 0.23890 -0.03800
H 	H 	0.34550 0.01880 0.23690 0.09800
H 	H 	0.27360 0.88830 0.15320 -0.01900
H 	H 	0.23670 0.96640 0.14730 0.08300
H 	H 	0.22330 0.03960 0.26040 -0.08000
H 	H 	0.27730 0.06160 0.27060 -0.05500
H 	H 	0.33360 0.08860 0.19290 -0.05100
H 	H 	0.31170 0.08210 0.13830 -0.07800
H 	H 	0.22330 0.04630 0.12550 -0.10500
H 	H 	0.19100 0.02890 0.17190 -0.10100
H 	H 	0.34170 0.29780 0.23130 -0.04300
H 	H 	0.35320 0.25060 0.26500 -0.04000
H 	H 	0.39220 0.31060 0.29180 0.03400
H 	H 	0.44280 0.36100 0.34290 -0.01000
H 	H 	0.32090 0.40160 0.41890 0.00800
H 	H 	0.26750 0.35030 0.37140 0.03700
H 	H 	0.39940 0.11620 0.34110 0.29700
H 	H 	0.36950 0.11860 0.39220 0.29800
H 	H 	0.38290 0.16860 0.36330 0.31500
H 	H 	0.87910 0.56040 0.76110 -0.03900
H 	H 	0.84550 0.48120 0.76310 0.09900
H 	H 	0.77360 0.61170 0.84680 -0.01900
H 	H 	0.73670 0.53360 0.85270 0.08400
H 	H 	0.72330 0.46040 0.73960 -0.08000
H 	H 	0.77730 0.43840 0.72940 -0.05500
H 	H 	0.83360 0.41140 0.80710 -0.05100
H 	H 	0.81170 0.41790 0.86170 -0.07800
H 	H 	0.72330 0.45370 0.87450 -0.10500
H 	H 	0.69100 0.47110 0.82810 -0.10100
H 	H 	0.84170 0.20220 0.76870 -0.04300
H 	H 	0.85320 0.24940 0.73500 -0.04000
H 	H 	0.89220 0.18940 0.70820 0.03400
H 	H 	0.94280 0.13900 0.65710 -0.01000
H 	H 	0.82090 0.09840 0.58110 0.00900
H 	H 	0.76750 0.14970 0.62860 0.03700
H 	H 	0.89940 0.38380 0.65890 0.29700
H 	H 	0.86950 0.38140 0.60780 0.29900
H 	H 	0.88290 0.33140 0.63670 0.31500
H 	H 	0.12090 0.06040 0.73890 -0.03900
H 	H 	0.15450 0.98120 0.73690 0.09900
H 	H 	0.22640 0.11170 0.65320 -0.01900
H 	H 	0.26330 0.03360 0.64730 0.08400
H 	H 	0.27670 0.96040 0.76040 -0.08000
H 	H 	0.22270 0.93840 0.77060 -0.05500
H 	H 	0.16640 0.91140 0.69290 -0.05100
H 	H 	0.18830 0.91790 0.63830 -0.07800
H 	H 	0.27670 0.95370 0.62550 -0.10500
H 	H 	0.30900 0.97110 0.67190 -0.10100
H 	H 	0.15830 0.70220 0.73130 -0.04300
H 	H 	0.14680 0.74940 0.76500 -0.04000
H 	H 	0.10780 0.68940 0.79180 0.03400
H 	H 	0.05720 0.63900 0.84290 -0.01000
H 	H 	0.17910 0.59840 0.91890 0.00800
H 	H 	0.23250 0.64970 0.87140 0.03700
H 	H 	0.10060 0.88380 0.84110 0.29700
H 	H 	0.13050 0.88140 0.89220 0.29900
H 	H 	0.11710 0.83140 0.86330 0.31500
H 	H 	0.62090 0.43960 0.26110 -0.03900
H 	H 	0.65450 0.51880 0.26310 0.09900
H 	H 	0.72640 0.38830 0.34680 -0.01900
H 	H 	0.76330 0.46640 0.35270 0.08400
H 	H 	0.77670 0.53960 0.23960 -0.08000
H 	H 	0.72270 0.56160 0.22940 -0.05500
H 	H 	0.66640 0.58860 0.30710 -0.05100
H 	H 	0.68830 0.58210 0.36170 -0.07800
H 	H 	0.77670 0.54630 0.37450 -0.10400
H 	H 	0.80900 0.52890 0.32810 -0.10100
H 	H 	0.65830 0.79780 0.26870 -0.04300
H 	H 	0.64680 0.75060 0.23500 -0.04000
H 	H 	0.60780 0.81060 0.20820 0.03400
H 	H 	0.55720 0.86100 0.15710 -0.01000
H 	H 	0.67910 0.90160 0.08110 0.00900
H 	H 	0.73250 0.85030 0.12860 0.03700
H 	H 	0.60060 0.61620 0.15890 0.29700
H 	H 	0.63050 0.61860 0.10780 0.29900
H 	H 	0.61710 0.66860 0.13670 0.31500
H 	H 	0.23890 0.37910 0.93960 -0.03800
H 	H 	0.23690 0.34550 0.01880 0.09800
H 	H 	0.15320 0.27360 0.88830 -0.01900
H 	H 	0.14730 0.23670 0.96640 0.08300
H 	H 	0.26040 0.22330 0.03960 -0.08000
H 	H 	0.27060 0.27730 0.06160 -0.05500
H 	H 	0.19290 0.33360 0.08860 -0.05100
H 	H 	0.13830 0.31170 0.08210 -0.07800
H 	H 	0.12550 0.22330 0.04630 -0.10500
H 	H 	0.17190 0.19100 0.02890 -0.10100
H 	H 	0.23130 0.34170 0.29780 -0.04300
H 	H 	0.26500 0.35320 0.25060 -0.04000
H 	H 	0.29180 0.39220 0.31060 0.03400
H 	H 	0.34290 0.44280 0.36100 -0.01000
H 	H 	0.41890 0.32090 0.40160 0.00800
H 	H 	0.37140 0.26750 0.35030 0.03700
H 	H 	0.34110 0.39940 0.11620 0.29700
H 	H 	0.39220 0.36950 0.11860 0.29800
H 	H 	0.36330 0.38290 0.16860 0.31500
H 	H 	0.76110 0.87910 0.56040 -0.03900
H 	H 	0.76310 0.84550 0.48120 0.09900
H 	H 	0.84680 0.77360 0.61170 -0.01900
H 	H 	0.85270 0.73670 0.53360 0.08400
H 	H 	0.73960 0.72330 0.46040 -0.08000
H 	H 	0.72940 0.77730 0.43840 -0.05500
H 	H 	0.80710 0.83360 0.41140 -0.05100
H 	H 	0.86170 0.81170 0.41790 -0.07800
H 	H 	0.87450 0.72330 0.45370 -0.10500
H 	H 	0.82810 0.69100 0.47110 -0.10100
H 	H 	0.76870 0.84170 0.20220 -0.04300
H 	H 	0.73500 0.85320 0.24940 -0.04000
H 	H 	0.70820 0.89220 0.18940 0.03400
H 	H 	0.65710 0.94280 0.13900 -0.01000
H 	H 	0.58110 0.82090 0.09840 0.00900
H 	H 	0.62860 0.76750 0.14970 0.03700
H 	H 	0.65890 0.89940 0.38380 0.29700
H 	H 	0.60780 0.86950 0.38140 0.29900
H 	H 	0.63670 0.88290 0.33140 0.31500
H 	H 	0.73890 0.12090 0.06040 -0.03900
H 	H 	0.73690 0.15450 0.98120 0.09900
H 	H 	0.65320 0.22640 0.11170 -0.01900
H 	H 	0.64730 0.26330 0.03360 0.08400
H 	H 	0.76040 0.27670 0.96040 -0.08000
H 	H 	0.77060 0.22270 0.93840 -0.05500
H 	H 	0.69290 0.16640 0.91140 -0.05100
H 	H 	0.63830 0.18830 0.91790 -0.07800
H 	H 	0.62550 0.27670 0.95370 -0.10500
H 	H 	0.67190 0.30900 0.97110 -0.10100
H 	H 	0.73130 0.15830 0.70220 -0.04300
H 	H 	0.76500 0.14680 0.74940 -0.04000
H 	H 	0.79180 0.10780 0.68940 0.03400
H 	H 	0.84290 0.05720 0.63900 -0.01000
H 	H 	0.91890 0.17910 0.59840 0.00800
H 	H 	0.87140 0.23250 0.64970 0.03700
H 	H 	0.84110 0.10060 0.88380 0.29700
H 	H 	0.89220 0.13050 0.88140 0.29900
H 	H 	0.86330 0.11710 0.83140 0.31500
H 	H 	0.26110 0.62090 0.43960 -0.03900
H 	H 	0.26310 0.65450 0.51880 0.09900
H 	H 	0.34680 0.72640 0.38830 -0.01900
H 	H 	0.35270 0.76330 0.46640 0.08400
H 	H 	0.23960 0.77670 0.53960 -0.08000
H 	H 	0.22940 0.72270 0.56160 -0.05500
H 	H 	0.30710 0.66640 0.58860 -0.05100
H 	H 	0.36170 0.68830 0.58210 -0.07800
H 	H 	0.37450 0.77670 0.54630 -0.10400
H 	H 	0.32810 0.80900 0.52890 -0.10100
H 	H 	0.26870 0.65830 0.79780 -0.04300
H 	H 	0.23500 0.64680 0.75060 -0.04000
H 	H 	0.20820 0.60780 0.81060 0.03400
H 	H 	0.15710 0.55720 0.86100 -0.01000
H 	H 	0.08110 0.67910 0.90160 0.00900
H 	H 	0.12860 0.73250 0.85030 0.03700
H 	H 	0.15890 0.60060 0.61620 0.29700
H 	H 	0.10780 0.63050 0.61860 0.29900
H 	H 	0.13670 0.61710 0.66860 0.31500
C 	C 	0.05530 0.77910 0.65070 0.11800
C 	C 	0.00720 0.78030 0.67070 -0.22600
C 	C 	0.08510 0.82900 0.71190 0.10300
C 	C 	0.03780 0.83270 0.73470 -0.21400
C 	C 	0.99700 0.80680 0.71480 0.17500
C 	C 	0.94360 0.80640 0.73840 -0.26600
C 	C 	0.93470 0.75000 0.75270 0.22600
C 	C 	0.90750 0.82750 0.69660 0.21600
C 	C 	0.94480 0.84030 0.78660 0.24700
C 	C 	0.73040 0.75100 0.67370 0.20000
C 	C 	0.67060 0.68140 0.62340 -0.05000
C 	C 	0.64040 0.65140 0.59300 0.04700
C 	C 	0.61810 0.60780 0.66430 -0.00900
C 	C 	0.64760 0.63610 0.69700 -0.08600
C 	C 	0.86970 0.67000 0.67720 0.59800
C 	C 	0.86600 0.64050 0.62650 -0.98900
C 	C 	0.44470 0.22090 0.15070 0.11900
C 	C 	0.49280 0.21970 0.17070 -0.22800
C 	C 	0.41490 0.17100 0.21190 0.10400
C 	C 	0.46220 0.16730 0.23470 -0.21500
C 	C 	0.50300 0.19320 0.21480 0.17700
C 	C 	0.55640 0.19360 0.23840 -0.26700
C 	C 	0.56530 0.25000 0.25270 0.22600
C 	C 	0.59250 0.17250 0.19660 0.21600
C 	C 	0.55520 0.15970 0.28660 0.24700
C 	C 	0.76960 0.24900 0.17370 0.20000
C 	C 	0.82940 0.31860 0.12340 -0.05000
C 	C 	0.85960 0.34860 0.09300 0.04700
C 	C 	0.88190 0.39220 0.16430 -0.00900
C 	C 	0.85240 0.36390 0.19700 -0.08600
C 	C 	0.63030 0.33000 0.17720 0.59800
C 	C 	0.63400 0.35950 0.12650 -0.98900
C 	C 	0.94470 0.27910 0.84930 0.11900
C 	C 	0.99280 0.28030 0.82930 -0.22900
C 	C 	0.91490 0.32900 0.78810 0.10400
C 	C 	0.96220 0.33270 0.76530 -0.21600
C 	C 	0.00300 0.30680 0.78520 0.17800
C 	C 	0.05640 0.30640 0.76160 -0.26700
C 	C 	0.06530 0.25000 0.74730 0.22600
C 	C 	0.09250 0.32750 0.80340 0.21600
C 	C 	0.05520 0.34030 0.71340 0.24800
C 	C 	0.26960 0.25100 0.82630 0.20000
C 	C 	0.32940 0.18140 0.87660 -0.05000
C 	C 	0.35960 0.15140 0.90700 0.04700
C 	C 	0.38190 0.10780 0.83570 -0.00900
C 	C 	0.35240 0.13610 0.80300 -0.08600
C 	C 	0.13030 0.17000 0.82280 0.59800
C 	C 	0.13400 0.14050 0.87350 -0.98900
C 	C 	0.55530 0.72090 0.34930 0.11900
C 	C 	0.50720 0.71970 0.32930 -0.22800
C 	C 	0.58510 0.67100 0.28810 0.10400
C 	C 	0.53780 0.66730 0.26530 -0.21500
C 	C 	0.49700 0.69320 0.28520 0.17700
C 	C 	0.44360 0.69360 0.26160 -0.26700
C 	C 	0.43470 0.75000 0.24730 0.22600
C 	C 	0.40750 0.67250 0.30340 0.21600
C 	C 	0.44480 0.65970 0.21340 0.24700
C 	C 	0.23040 0.74900 0.32630 0.20000
C 	C 	0.17060 0.81860 0.37660 -0.05000
C 	C 	0.14040 0.84860 0.40700 0.04700
C 	C 	0.11810 0.89220 0.33570 -0.00900
C 	C 	0.14760 0.86390 0.30300 -0.08600
C 	C 	0.36970 0.83000 0.32280 0.59800
C 	C 	0.36600 0.85950 0.37350 -0.98900
C 	C 	0.65070 0.05530 0.77910 0.11800
C 	C 	0.67070 0.00720 0.78030 -0.22600
C 	C 	0.71190 0.08510 0.82900 0.10300
C 	C 	0.73470 0.03780 0.83270 -0.21400
C 	C 	0.71480 0.99700 0.80680 0.17500
C 	C 	0.73840 0.94360 0.80640 -0.26600
C 	C 	0.75270 0.93470 0.75000 0.22600
C 	C 	0.69660 0.90750 0.82750 0.21600
C 	C 	0.78660 0.94480 0.84030 0.24700
C 	C 	0.67370 0.73040 0.75100 0.20000
C 	C 	0.62340 0.67060 0.68140 -0.05000
C 	C 	0.59300 0.64040 0.65140 0.04700
C 	C 	0.66430 0.61810 0.60780 -0.00900
C 	C 	0.69700 0.64760 0.63610 -0.08600
C 	C 	0.67720 0.86970 0.67000 0.59800
C 	C 	0.62650 0.86600 0.64050 -0.98900
C 	C 	0.15070 0.44470 0.22090 0.11900
C 	C 	0.17070 0.49280 0.21970 -0.22800
C 	C 	0.21190 0.41490 0.17100 0.10400
C 	C 	0.23470 0.46220 0.16730 -0.21500
C 	C 	0.21480 0.50300 0.19320 0.17700
C 	C 	0.23840 0.55640 0.19360 -0.26700
C 	C 	0.25270 0.56530 0.25000 0.22600
C 	C 	0.19660 0.59250 0.17250 0.21600
C 	C 	0.28660 0.55520 0.15970 0.24700
C 	C 	0.17370 0.76960 0.24900 0.20000
C 	C 	0.12340 0.82940 0.31860 -0.05000
C 	C 	0.09300 0.85960 0.34860 0.04700
C 	C 	0.16430 0.88190 0.39220 -0.00900
C 	C 	0.19700 0.85240 0.36390 -0.08600
C 	C 	0.17720 0.63030 0.33000 0.59800
C 	C 	0.12650 0.63400 0.35950 -0.98900
C 	C 	0.84930 0.94470 0.27910 0.11900
C 	C 	0.82930 0.99280 0.28030 -0.22900
C 	C 	0.78810 0.91490 0.32900 0.10400
C 	C 	0.76530 0.96220 0.33270 -0.21600
C 	C 	0.78520 0.00300 0.30680 0.17800
C 	C 	0.76160 0.05640 0.30640 -0.26700
C 	C 	0.74730 0.06530 0.25000 0.22600
C 	C 	0.80340 0.09250 0.32750 0.21600
C 	C 	0.71340 0.05520 0.34030 0.24800
C 	C 	0.82630 0.26960 0.25100 0.20000
C 	C 	0.87660 0.32940 0.18140 -0.05000
C 	C 	0.90700 0.35960 0.15140 0.04700
C 	C 	0.83570 0.38190 0.10780 -0.00900
C 	C 	0.80300 0.35240 0.13610 -0.08600
C 	C 	0.82280 0.13030 0.17000 0.59800
C 	C 	0.87350 0.13400 0.14050 -0.98900
C 	C 	0.34930 0.55530 0.72090 0.11900
C 	C 	0.32930 0.50720 0.71970 -0.22800
C 	C 	0.28810 0.58510 0.67100 0.10400
C 	C 	0.26530 0.53780 0.66730 -0.21500
C 	C 	0.28520 0.49700 0.69320 0.17700
C 	C 	0.26160 0.44360 0.69360 -0.26700
C 	C 	0.24730 0.43470 0.75000 0.22600
C 	C 	0.30340 0.40750 0.67250 0.21600
C 	C 	0.21340 0.44480 0.65970 0.24700
C 	C 	0.32630 0.23040 0.74900 0.20000
C 	C 	0.37660 0.17060 0.81860 -0.05000
C 	C 	0.40700 0.14040 0.84860 0.04700
C 	C 	0.33570 0.11810 0.89220 -0.00900
C 	C 	0.30300 0.14760 0.86390 -0.08600
C 	C 	0.32280 0.36970 0.83000 0.59800
C 	C 	0.37350 0.36600 0.85950 -0.98900
C 	C 	0.77910 0.65070 0.05530 0.11800
C 	C 	0.78030 0.67070 0.00720 -0.22600
C 	C 	0.82900 0.71190 0.08510 0.10300
C 	C 	0.83270 0.73470 0.03780 -0.21400
C 	C 	0.80680 0.71480 0.99700 0.17500
C 	C 	0.80640 0.73840 0.94360 -0.26600
C 	C 	0.75000 0.75270 0.93470 0.22600
C 	C 	0.82750 0.69660 0.90750 0.21600
C 	C 	0.84030 0.78660 0.94480 0.24700
C 	C 	0.75100 0.67370 0.73040 0.20000
C 	C 	0.68140 0.62340 0.67060 -0.05000
C 	C 	0.65140 0.59300 0.64040 0.04700
C 	C 	0.60780 0.66430 0.61810 -0.00900
C 	C 	0.63610 0.69700 0.64760 -0.08600
C 	C 	0.67000 0.67720 0.86970 0.59800
C 	C 	0.64050 0.62650 0.86600 -0.98900
C 	C 	0.22090 0.15070 0.44470 0.11900
C 	C 	0.21970 0.17070 0.49280 -0.22800
C 	C 	0.17100 0.21190 0.41490 0.10400
C 	C 	0.16730 0.23470 0.46220 -0.21500
C 	C 	0.19320 0.21480 0.50300 0.17700
C 	C 	0.19360 0.23840 0.55640 -0.26700
C 	C 	0.25000 0.25270 0.56530 0.22600
C 	C 	0.17250 0.19660 0.59250 0.21600
C 	C 	0.15970 0.28660 0.55520 0.24700
C 	C 	0.24900 0.17370 0.76960 0.20000
C 	C 	0.31860 0.12340 0.82940 -0.05000
C 	C 	0.34860 0.09300 0.85960 0.04700
C 	C 	0.39220 0.16430 0.88190 -0.00900
C 	C 	0.36390 0.19700 0.85240 -0.08600
C 	C 	0.33000 0.17720 0.63030 0.59800
C 	C 	0.35950 0.12650 0.63400 -0.98900
C 	C 	0.27910 0.84930 0.94470 0.11900
C 	C 	0.28030 0.82930 0.99280 -0.22900
C 	C 	0.32900 0.78810 0.91490 0.10400
C 	C 	0.33270 0.76530 0.96220 -0.21600
C 	C 	0.30680 0.78520 0.00300 0.17800
C 	C 	0.30640 0.76160 0.05640 -0.26700
C 	C 	0.25000 0.74730 0.06530 0.22600
C 	C 	0.32750 0.80340 0.09250 0.21600
C 	C 	0.34030 0.71340 0.05520 0.24800
C 	C 	0.25100 0.82630 0.26960 0.20000
C 	C 	0.18140 0.87660 0.32940 -0.05000
C 	C 	0.15140 0.90700 0.35960 0.04700
C 	C 	0.10780 0.83570 0.38190 -0.00900
C 	C 	0.13610 0.80300 0.35240 -0.08600
C 	C 	0.17000 0.82280 0.13030 0.59800
C 	C 	0.14050 0.87350 0.13400 -0.98900
C 	C 	0.72090 0.34930 0.55530 0.11900
C 	C 	0.71970 0.32930 0.50720 -0.22800
C 	C 	0.67100 0.28810 0.58510 0.10400
C 	C 	0.66730 0.26530 0.53780 -0.21500
C 	C 	0.69320 0.28520 0.49700 0.17700
C 	C 	0.69360 0.26160 0.44360 -0.26700
C 	C 	0.75000 0.24730 0.43470 0.22600
C 	C 	0.67250 0.30340 0.40750 0.21600
C 	C 	0.65970 0.21340 0.44480 0.24700
C 	C 	0.74900 0.32630 0.23040 0.20000
C 	C 	0.81860 0.37660 0.17060 -0.05000
C 	C 	0.84860 0.40700 0.14040 0.04700
C 	C 	0.89220 0.33570 0.11810 -0.00900
C 	C 	0.86390 0.30300 0.14760 -0.08600
C 	C 	0.83000 0.32280 0.36970 0.59800
C 	C 	0.85950 0.37350 0.36600 -0.98900
C 	C 	0.94470 0.22090 0.34930 0.11800
C 	C 	0.99280 0.21970 0.32930 -0.22600
C 	C 	0.91490 0.17100 0.28810 0.10300
C 	C 	0.96220 0.16730 0.26530 -0.21400
C 	C 	0.00300 0.19320 0.28520 0.17500
C 	C 	0.05640 0.19360 0.26160 -0.26600
C 	C 	0.06530 0.25000 0.24730 0.22600
C 	C 	0.09250 0.17250 0.30340 0.21600
C 	C 	0.05520 0.15970 0.21340 0.24700
C 	C 	0.26960 0.24900 0.32630 0.20000
C 	C 	0.32940 0.31860 0.37660 -0.05000
C 	C 	0.35960 0.34860 0.40700 0.04700
C 	C 	0.38190 0.39220 0.33570 -0.00900
C 	C 	0.35240 0.36390 0.30300 -0.08600
C 	C 	0.13030 0.33000 0.32280 0.59800
C 	C 	0.13400 0.35950 0.37350 -0.98900
C 	C 	0.55530 0.77910 0.84930 0.11900
C 	C 	0.50720 0.78030 0.82930 -0.22800
C 	C 	0.58510 0.82900 0.78810 0.10400
C 	C 	0.53780 0.83270 0.76530 -0.21500
C 	C 	0.49700 0.80680 0.78520 0.17700
C 	C 	0.44360 0.80640 0.76160 -0.26700
C 	C 	0.43470 0.75000 0.74730 0.22600
C 	C 	0.40750 0.82750 0.80340 0.21600
C 	C 	0.44480 0.84030 0.71340 0.24700
C 	C 	0.23040 0.75100 0.82630 0.20000
C 	C 	0.17060 0.68140 0.87660 -0.05000
C 	C 	0.14040 0.65140 0.90700 0.04700
C 	C 	0.11810 0.60780 0.83570 -0.00900
C 	C 	0.14760 0.63610 0.80300 -0.08600
C 	C 	0.36970 0.67000 0.82280 0.59800
C 	C 	0.36600 0.64050 0.87350 -0.98900
C 	C 	0.05530 0.72090 0.15070 0.11900
C 	C 	0.00720 0.71970 0.17070 -0.22900
C 	C 	0.08510 0.67100 0.21190 0.10400
C 	C 	0.03780 0.66730 0.23470 -0.21600
C 	C 	0.99700 0.69320 0.21480 0.17800
C 	C 	0.94360 0.69360 0.23840 -0.26700
C 	C 	0.93470 0.75000 0.25270 0.22600
C 	C 	0.90750 0.67250 0.19660 0.21600
C 	C 	0.94480 0.65970 0.28660 0.24800
C 	C 	0.73040 0.74900 0.17370 0.20000
C 	C 	0.67060 0.81860 0.12340 -0.05000
C 	C 	0.64040 0.84860 0.09300 0.04700
C 	C 	0.61810 0.89220 0.16430 -0.00900
C 	C 	0.64760 0.86390 0.19700 -0.08600
C 	C 	0.86970 0.83000 0.17720 0.59800
C 	C 	0.86600 0.85950 0.12650 -0.98900
C 	C 	0.44470 0.27910 0.65070 0.11900
C 	C 	0.49280 0.28030 0.67070 -0.22800
C 	C 	0.41490 0.32900 0.71190 0.10400
C 	C 	0.46220 0.33270 0.73470 -0.21500
C 	C 	0.50300 0.30680 0.71480 0.17700
C 	C 	0.55640 0.30640 0.73840 -0.26700
C 	C 	0.56530 0.25000 0.75270 0.22600
C 	C 	0.59250 0.32750 0.69660 0.21600
C 	C 	0.55520 0.34030 0.78660 0.24700
C 	C 	0.76960 0.25100 0.67370 0.20000
C 	C 	0.82940 0.18140 0.62340 -0.05000
C 	C 	0.85960 0.15140 0.59300 0.04700
C 	C 	0.88190 0.10780 0.66430 -0.00900
C 	C 	0.85240 0.13610 0.69700 -0.08600
C 	C 	0.63030 0.17000 0.67720 0.59800
C 	C 	0.63400 0.14050 0.62650 -0.98900
C 	C 	0.34930 0.94470 0.22090 0.11800
C 	C 	0.32930 0.99280 0.21970 -0.22600
C 	C 	0.28810 0.91490 0.17100 0.10300
C 	C 	0.26530 0.96220 0.16730 -0.21400
C 	C 	0.28520 0.00300 0.19320 0.17500
C 	C 	0.26160 0.05640 0.19360 -0.26600
C 	C 	0.24730 0.06530 0.25000 0.22600
C 	C 	0.30340 0.09250 0.17250 0.21600
C 	C 	0.21340 0.05520 0.15970 0.24700
C 	C 	0.32630 0.26960 0.24900 0.20000
C 	C 	0.37660 0.32940 0.31860 -0.05000
C 	C 	0.40700 0.35960 0.34860 0.04700
C 	C 	0.33570 0.38190 0.39220 -0.00900
C 	C 	0.30300 0.35240 0.36390 -0.08600
C 	C 	0.32280 0.13030 0.33000 0.59800
C 	C 	0.37350 0.13400 0.35950 -0.98900
C 	C 	0.84930 0.55530 0.77910 0.11900
C 	C 	0.82930 0.50720 0.78030 -0.22800
C 	C 	0.78810 0.58510 0.82900 0.10400
C 	C 	0.76530 0.53780 0.83270 -0.21500
C 	C 	0.78520 0.49700 0.80680 0.17700
C 	C 	0.76160 0.44360 0.80640 -0.26700
C 	C 	0.74730 0.43470 0.75000 0.22600
C 	C 	0.80340 0.40750 0.82750 0.21600
C 	C 	0.71340 0.44480 0.84030 0.24700
C 	C 	0.82630 0.23040 0.75100 0.20000
C 	C 	0.87660 0.17060 0.68140 -0.05000
C 	C 	0.90700 0.14040 0.65140 0.04700
C 	C 	0.83570 0.11810 0.60780 -0.00900
C 	C 	0.80300 0.14760 0.63610 -0.08600
C 	C 	0.82280 0.36970 0.67000 0.59800
C 	C 	0.87350 0.36600 0.64050 -0.98900
C 	C 	0.15070 0.05530 0.72090 0.11900
C 	C 	0.17070 0.00720 0.71970 -0.22900
C 	C 	0.21190 0.08510 0.67100 0.10400
C 	C 	0.23470 0.03780 0.66730 -0.21600
C 	C 	0.21480 0.99700 0.69320 0.17800
C 	C 	0.23840 0.94360 0.69360 -0.26700
C 	C 	0.25270 0.93470 0.75000 0.22600
C 	C 	0.19660 0.90750 0.67250 0.21600
C 	C 	0.28660 0.94480 0.65970 0.24800
C 	C 	0.17370 0.73040 0.74900 0.20000
C 	C 	0.12340 0.67060 0.81860 -0.05000
C 	C 	0.09300 0.64040 0.84860 0.04700
C 	C 	0.16430 0.61810 0.89220 -0.00900
C 	C 	0.19700 0.64760 0.86390 -0.08600
C 	C 	0.17720 0.86970 0.83000 0.59800
C 	C 	0.12650 0.86600 0.85950 -0.98900
C 	C 	0.65070 0.44470 0.27910 0.11900
C 	C 	0.67070 0.49280 0.28030 -0.22800
C 	C 	0.71190 0.41490 0.32900 0.10400
C 	C 	0.73470 0.46220 0.33270 -0.21500
C 	C 	0.71480 0.50300 0.30680 0.17700
C 	C 	0.73840 0.55640 0.30640 -0.26700
C 	C 	0.75270 0.56530 0.25000 0.22600
C 	C 	0.69660 0.59250 0.32750 0.21600
C 	C 	0.78660 0.55520 0.34030 0.24700
C 	C 	0.67370 0.76960 0.25100 0.20000
C 	C 	0.62340 0.82940 0.18140 -0.05000
C 	C 	0.59300 0.85960 0.15140 0.04700
C 	C 	0.66430 0.88190 0.10780 -0.00900
C 	C 	0.69700 0.85240 0.13610 -0.08600
C 	C 	0.67720 0.63030 0.17000 0.59800
C 	C 	0.62650 0.63400 0.14050 -0.98900
C 	C 	0.22090 0.34930 0.94470 0.11800
C 	C 	0.21970 0.32930 0.99280 -0.22600
C 	C 	0.17100 0.28810 0.91490 0.10300
C 	C 	0.16730 0.26530 0.96220 -0.21400
C 	C 	0.19320 0.28520 0.00300 0.17500
C 	C 	0.19360 0.26160 0.05640 -0.26600
C 	C 	0.25000 0.24730 0.06530 0.22600
C 	C 	0.17250 0.30340 0.09250 0.21600
C 	C 	0.15970 0.21340 0.05520 0.24700
C 	C 	0.24900 0.32630 0.26960 0.20000
C 	C 	0.31860 0.37660 0.32940 -0.05000
C 	C 	0.34860 0.40700 0.35960 0.04700
C 	C 	0.39220 0.33570 0.38190 -0.00900
C 	C 	0.36390 0.30300 0.35240 -0.08600
C 	C 	0.33000 0.32280 0.13030 0.59800
C 	C 	0.35950 0.37350 0.13400 -0.98900
C 	C 	0.77910 0.84930 0.55530 0.11900
C 	C 	0.78030 0.82930 0.50720 -0.22800
C 	C 	0.82900 0.78810 0.58510 0.10400
C 	C 	0.83270 0.76530 0.53780 -0.21500
C 	C 	0.80680 0.78520 0.49700 0.17700
C 	C 	0.80640 0.76160 0.44360 -0.26700
C 	C 	0.75000 0.74730 0.43470 0.22600
C 	C 	0.82750 0.80340 0.40750 0.21600
C 	C 	0.84030 0.71340 0.44480 0.24700
C 	C 	0.75100 0.82630 0.23040 0.20000
C 	C 	0.68140 0.87660 0.17060 -0.05000
C 	C 	0.65140 0.90700 0.14040 0.04700
C 	C 	0.60780 0.83570 0.11810 -0.00900
C 	C 	0.63610 0.80300 0.14760 -0.08600
C 	C 	0.67000 0.82280 0.36970 0.59800
C 	C 	0.64050 0.87350 0.36600 -0.98900
C 	C 	0.72090 0.15070 0.05530 0.11900
C 	C 	0.71970 0.17070 0.00720 -0.22900
C 	C 	0.67100 0.21190 0.08510 0.10400
C 	C 	0.66730 0.23470 0.03780 -0.21600
C 	C 	0.69320 0.21480 0.99700 0.17800
C 	C 	0.69360 0.23840 0.94360 -0.26700
C 	C 	0.75000 0.25270 0.93470 0.22600
C 	C 	0.67250 0.19660 0.90750 0.21600
C 	C 	0.65970 0.28660 0.94480 0.24800
C 	C 	0.74900 0.17370 0.73040 0.20000
C 	C 	0.81860 0.12340 0.67060 -0.05000
C 	C 	0.84860 0.09300 0.64040 0.04700
C 	C 	0.89220 0.16430 0.61810 -0.00900
C 	C 	0.86390 0.19700 0.64760 -0.08600
C 	C 	0.83000 0.17720 0.86970 0.59800
C 	C 	0.85950 0.12650 0.86600 -0.98900
C 	C 	0.27910 0.65070 0.44470 0.11900
C 	C 	0.28030 0.67070 0.49280 -0.22800
C 	C 	0.32900 0.71190 0.41490 0.10400
C 	C 	0.33270 0.73470 0.46220 -0.21500
C 	C 	0.30680 0.71480 0.50300 0.17700
C 	C 	0.30640 0.73840 0.55640 -0.26700
C 	C 	0.25000 0.75270 0.56530 0.22600
C 	C 	0.32750 0.69660 0.59250 0.21600
C 	C 	0.34030 0.78660 0.55520 0.24700
C 	C 	0.25100 0.67370 0.76960 0.20000
C 	C 	0.18140 0.62340 0.82940 -0.05000
C 	C 	0.15140 0.59300 0.85960 0.04700
C 	C 	0.10780 0.66430 0.88190 -0.00900
C 	C 	0.13610 0.69700 0.85240 -0.08600
C 	C 	0.17000 0.67720 0.63030 0.59800
C 	C 	0.14050 0.62650 0.63400 -0.98900
C 	C 	0.70920 0.70920 0.70920 -0.23500
C 	C 	0.67530 0.67530 0.67530 0.15500
C 	C 	0.79080 0.29080 0.20920 -0.23500
C 	C 	0.82470 0.32470 0.17530 0.15500
C 	C 	0.29080 0.20920 0.79080 -0.23500
C 	C 	0.32470 0.17530 0.82470 0.15500
C 	C 	0.20920 0.79080 0.29080 -0.23500
C 	C 	0.17530 0.82470 0.32470 0.15500
C 	C 	0.29080 0.29080 0.29080 -0.23500
C 	C 	0.32470 0.32470 0.32470 0.15500
C 	C 	0.20920 0.70920 0.79080 -0.23500
C 	C 	0.17530 0.67530 0.82470 0.15500
C 	C 	0.70920 0.79080 0.20920 -0.23500
C 	C 	0.67530 0.82470 0.17530 0.15500
C 	C 	0.79080 0.20920 0.70920 -0.23500
C 	C 	0.82470 0.17530 0.67530 0.15500
N 	N 	0.09450 0.80190 0.67130 -0.27000
N 	N 	0.40550 0.19810 0.17130 -0.27100
N 	N 	0.90550 0.30190 0.82870 -0.27100
N 	N 	0.59450 0.69810 0.32870 -0.27100
N 	N 	0.67130 0.09450 0.80190 -0.27000
N 	N 	0.17130 0.40550 0.19810 -0.27100
N 	N 	0.82870 0.90550 0.30190 -0.27100
N 	N 	0.32870 0.59450 0.69810 -0.27100
N 	N 	0.80190 0.67130 0.09450 -0.27000
N 	N 	0.19810 0.17130 0.40550 -0.27100
N 	N 	0.30190 0.82870 0.90550 -0.27100
N 	N 	0.69810 0.32870 0.59450 -0.27100
N 	N 	0.90550 0.19810 0.32870 -0.27000
N 	N 	0.59450 0.80190 0.82870 -0.27100
N 	N 	0.09450 0.69810 0.17130 -0.27100
N 	N 	0.40550 0.30190 0.67130 -0.27100
N 	N 	0.32870 0.90550 0.19810 -0.27000
N 	N 	0.82870 0.59450 0.80190 -0.27100
N 	N 	0.17130 0.09450 0.69810 -0.27100
N 	N 	0.67130 0.40550 0.30190 -0.27100
N 	N 	0.19810 0.32870 0.90550 -0.27000
N 	N 	0.80190 0.82870 0.59450 -0.27100
N 	N 	0.69810 0.17130 0.09450 -0.27100
N 	N 	0.30190 0.67130 0.40550 -0.27100
N 	N 	0.61400 0.61400 0.61400 -0.14600
N 	N 	0.88600 0.38600 0.11400 -0.14600
N 	N 	0.38600 0.11400 0.88600 -0.14600
N 	N 	0.11400 0.88600 0.38600 -0.14600
N 	N 	0.38600 0.38600 0.38600 -0.14600
N 	N 	0.11400 0.61400 0.88600 -0.14600
N 	N 	0.61400 0.88600 0.11400 -0.14600
N 	N 	0.88600 0.11400 0.61400 -0.14600
O 	O 	0.88611 0.74095 0.77425 -0.67600
O 	O 	0.85574 0.82812 0.71058 -0.64600
O 	O 	0.89845 0.84167 0.81346 -0.70900
O 	O 	0.76193 0.78674 0.69832 -0.62900
O 	O 	0.85150 0.71420 0.67360 -0.49500
O 	O 	0.87740 0.64610 0.71710 -0.52800
O 	O 	0.61389 0.25905 0.27425 -0.67600
O 	O 	0.64426 0.17188 0.21058 -0.64600
O 	O 	0.60155 0.15833 0.31346 -0.70900
O 	O 	0.73807 0.21326 0.19832 -0.62900
O 	O 	0.64850 0.28580 0.17360 -0.49500
O 	O 	0.62260 0.35390 0.21710 -0.52800
O 	O 	0.11389 0.24095 0.72575 -0.67600
O 	O 	0.14426 0.32812 0.78942 -0.64600
O 	O 	0.10155 0.34167 0.68654 -0.70900
O 	O 	0.23807 0.28674 0.80168 -0.62900
O 	O 	0.14850 0.21420 0.82640 -0.49500
O 	O 	0.12260 0.14610 0.78290 -0.52800
O 	O 	0.38611 0.75905 0.22575 -0.67600
O 	O 	0.35574 0.67188 0.28942 -0.64600
O 	O 	0.39845 0.65833 0.18654 -0.70900
O 	O 	0.26193 0.71326 0.30168 -0.62900
O 	O 	0.35150 0.78580 0.32640 -0.49500
O 	O 	0.37740 0.85390 0.28290 -0.52800
O 	O 	0.77425 0.88611 0.74095 -0.67600
O 	O 	0.71058 0.85574 0.82812 -0.64600
O 	O 	0.81346 0.89845 0.84167 -0.70900
O 	O 	0.69832 0.76193 0.78674 -0.62900
O 	O 	0.67360 0.85150 0.71420 -0.49500
O 	O 	0.71710 0.87740 0.64610 -0.52800
O 	O 	0.27425 0.61389 0.25905 -0.67600
O 	O 	0.21058 0.64426 0.17188 -0.64600
O 	O 	0.31346 0.60155 0.15833 -0.70900
O 	O 	0.19832 0.73807 0.21326 -0.62900
O 	O 	0.17360 0.64850 0.28580 -0.49500
O 	O 	0.21710 0.62260 0.35390 -0.52800
O 	O 	0.72575 0.11389 0.24095 -0.67600
O 	O 	0.78942 0.14426 0.32812 -0.64600
O 	O 	0.68654 0.10155 0.34167 -0.70900
O 	O 	0.80168 0.23807 0.28674 -0.62900
O 	O 	0.82640 0.14850 0.21420 -0.49500
O 	O 	0.78290 0.12260 0.14610 -0.52800
O 	O 	0.22575 0.38611 0.75905 -0.67600
O 	O 	0.28942 0.35574 0.67188 -0.64600
O 	O 	0.18654 0.39845 0.65833 -0.70900
O 	O 	0.30168 0.26193 0.71326 -0.62900
O 	O 	0.32640 0.35150 0.78580 -0.49500
O 	O 	0.28290 0.37740 0.85390 -0.52800
O 	O 	0.74095 0.77425 0.88611 -0.67600
O 	O 	0.82812 0.71058 0.85574 -0.64600
O 	O 	0.84167 0.81346 0.89845 -0.70900
O 	O 	0.78674 0.69832 0.76193 -0.62900
O 	O 	0.71420 0.67360 0.85150 -0.49500
O 	O 	0.64610 0.71710 0.87740 -0.52800
O 	O 	0.25905 0.27425 0.61389 -0.67600
O 	O 	0.17188 0.21058 0.64426 -0.64600
O 	O 	0.15833 0.31346 0.60155 -0.70900
O 	O 	0.21326 0.19832 0.73807 -0.62900
O 	O 	0.28580 0.17360 0.64850 -0.49500
O 	O 	0.35390 0.21710 0.62260 -0.52800
O 	O 	0.24095 0.72575 0.11389 -0.67600
O 	O 	0.32812 0.78942 0.14426 -0.64600
O 	O 	0.34167 0.68654 0.10155 -0.70900
O 	O 	0.28674 0.80168 0.23807 -0.62900
O 	O 	0.21420 0.82640 0.14850 -0.49500
O 	O 	0.14610 0.78290 0.12260 -0.52800
O 	O 	0.75905 0.22575 0.38611 -0.67600
O 	O 	0.67188 0.28942 0.35574 -0.64600
O 	O 	0.65833 0.18654 0.39845 -0.70900
O 	O 	0.71326 0.30168 0.26193 -0.62900
O 	O 	0.78580 0.32640 0.35150 -0.49500
O 	O 	0.85390 0.28290 0.37740 -0.52800
O 	O 	0.11389 0.25905 0.22575 -0.67600
O 	O 	0.14426 0.17188 0.28942 -0.64600
O 	O 	0.10155 0.15833 0.18654 -0.70900
O 	O 	0.23807 0.21326 0.30168 -0.62900
O 	O 	0.14850 0.28580 0.32640 -0.49500
O 	O 	0.12260 0.35390 0.28290 -0.52800
O 	O 	0.38611 0.74095 0.72575 -0.67600
O 	O 	0.35574 0.82812 0.78942 -0.64600
O 	O 	0.39845 0.84167 0.68654 -0.70900
O 	O 	0.26193 0.78674 0.80168 -0.62900
O 	O 	0.35150 0.71420 0.82640 -0.49500
O 	O 	0.37740 0.64610 0.78290 -0.52800
O 	O 	0.88611 0.75905 0.27425 -0.67600
O 	O 	0.85574 0.67188 0.21058 -0.64600
O 	O 	0.89845 0.65833 0.31346 -0.70900
O 	O 	0.76193 0.71326 0.19832 -0.62900
O 	O 	0.85150 0.78580 0.17360 -0.49500
O 	O 	0.87740 0.85390 0.21710 -0.52800
O 	O 	0.61389 0.24095 0.77425 -0.67600
O 	O 	0.64426 0.32812 0.71058 -0.64600
O 	O 	0.60155 0.34167 0.81346 -0.70900
O 	O 	0.73807 0.28674 0.69832 -0.62900
O 	O 	0.64850 0.21420 0.67360 -0.49500
O 	O 	0.62260 0.14610 0.71710 -0.52800
O 	O 	0.22575 0.11389 0.25905 -0.67600
O 	O 	0.28942 0.14426 0.17188 -0.64600
O 	O 	0.18654 0.10155 0.15833 -0.70900
O 	O 	0.30168 0.23807 0.21326 -0.62900
O 	O 	0.32640 0.14850 0.28580 -0.49500
O 	O 	0.28290 0.12260 0.35390 -0.52800
O 	O 	0.72575 0.38611 0.74095 -0.67600
O 	O 	0.78942 0.35574 0.82812 -0.64600
O 	O 	0.68654 0.39845 0.84167 -0.70900
O 	O 	0.80168 0.26193 0.78674 -0.62900
O 	O 	0.82640 0.35150 0.71420 -0.49500
O 	O 	0.78290 0.37740 0.64610 -0.52800
O 	O 	0.27425 0.88611 0.75905 -0.67600
O 	O 	0.21058 0.85574 0.67188 -0.64600
O 	O 	0.31346 0.89845 0.65833 -0.70900
O 	O 	0.19832 0.76193 0.71326 -0.62900
O 	O 	0.17360 0.85150 0.78580 -0.49500
O 	O 	0.21710 0.87740 0.85390 -0.52800
O 	O 	0.77425 0.61389 0.24095 -0.67600
O 	O 	0.71058 0.64426 0.32812 -0.64600
O 	O 	0.81346 0.60155 0.34167 -0.70900
O 	O 	0.69832 0.73807 0.28674 -0.62900
O 	O 	0.67360 0.64850 0.21420 -0.49500
O 	O 	0.71710 0.62260 0.14610 -0.52800
O 	O 	0.25905 0.22575 0.11389 -0.67600
O 	O 	0.17188 0.28942 0.14426 -0.64600
O 	O 	0.15833 0.18654 0.10155 -0.70900
O 	O 	0.21326 0.30168 0.23807 -0.62900
O 	O 	0.28580 0.32640 0.14850 -0.49500
O 	O 	0.35390 0.28290 0.12260 -0.52800
O 	O 	0.74095 0.72575 0.38611 -0.67600
O 	O 	0.82812 0.78942 0.35574 -0.64600
O 	O 	0.84167 0.68654 0.39845 -0.70900
O 	O 	0.78674 0.80168 0.26193 -0.62900
O 	O 	0.71420 0.82640 0.35150 -0.49500
O 	O 	0.64610 0.78290 0.37740 -0.52800
O 	O 	0.75905 0.27425 0.88611 -0.67600
O 	O 	0.67188 0.21058 0.85574 -0.64600
O 	O 	0.65833 0.31346 0.89845 -0.70900
O 	O 	0.71326 0.19832 0.76193 -0.62900
O 	O 	0.78580 0.17360 0.85150 -0.49500
O 	O 	0.85390 0.21710 0.87740 -0.52800
O 	O 	0.24095 0.77425 0.61389 -0.67600
O 	O 	0.32812 0.71058 0.64426 -0.64600
O 	O 	0.34167 0.81346 0.60155 -0.70900
O 	O 	0.28674 0.69832 0.73807 -0.62900
O 	O 	0.21420 0.67360 0.64850 -0.49500
O 	O 	0.14610 0.71710 0.62260 -0.52800
O 	O 	0.79996 0.79996 0.79996 -0.87400
O 	O 	0.70004 0.20004 0.29996 -0.87400
O 	O 	0.20004 0.29996 0.70004 -0.87400
O 	O 	0.29996 0.70004 0.20004 -0.87400
O 	O 	0.20004 0.20004 0.20004 -0.87400
O 	O 	0.29996 0.79996 0.70004 -0.87400
O 	O 	0.79996 0.70004 0.29996 -0.87400
O 	O 	0.70004 0.29996 0.79996 -0.87400
