data_crystal

_cell_length_a 5.70300
_cell_length_b 10.62300
_cell_length_c 29.89000
_cell_angle_alpha 90.00000
_cell_angle_beta  90.00000
_cell_angle_gamma 90.00000

_symmetry_space_group_name_	'P 1'
_symmetry_space_group_name_H-M	'P 1'

loop_
_symmetry_equiv_pos_as_xyz
  x,y,z

loop_
_atom_site_label
_atom_site_type_symbol
_atom_site_fract_x
_atom_site_fract_y
_atom_site_fract_z
_atom_site_charge
Cd	Cd	0.82480 0.00706 0.76085 1.21400
Cd	Cd	0.67520 0.99294 0.26085 1.21300
Cd	Cd	0.17520 0.50706 0.73915 1.21500
Cd	Cd	0.32480 0.49294 0.23915 1.21500
H 	H 	0.45180 0.13160 0.82750 -0.01500
H 	H 	0.36540 0.15680 0.90170 0.08900
H 	H 	0.98570 0.00300 0.93240 0.07400
H 	H 	0.05560 0.98080 0.85700 0.00800
H 	H 	0.93740 0.99900 0.09460 0.09000
H 	H 	0.95750 0.97310 0.17070 -0.00200
H 	H 	0.30730 0.16050 0.11210 0.08800
H 	H 	0.34720 0.13110 0.18720 -0.00600
H 	H 	0.95050 0.96440 0.98610 0.13000
H 	H 	0.03090 0.04910 0.02110 0.13800
H 	H 	0.04820 0.86840 0.32750 -0.01500
H 	H 	0.13460 0.84320 0.40170 0.09200
H 	H 	0.51430 0.99700 0.43240 0.07300
H 	H 	0.44440 0.01920 0.35700 0.01300
H 	H 	0.56260 0.00100 0.59460 0.08900
H 	H 	0.54250 0.02690 0.67070 -0.00200
H 	H 	0.19270 0.83950 0.61210 0.08800
H 	H 	0.15280 0.86890 0.68720 -0.00500
H 	H 	0.54950 0.03560 0.48610 0.13000
H 	H 	0.46910 0.95090 0.52110 0.14200
H 	H 	0.54820 0.63160 0.67250 -0.01500
H 	H 	0.63460 0.65680 0.59830 0.09000
H 	H 	0.01430 0.50300 0.56760 0.07700
H 	H 	0.94440 0.48080 0.64300 0.00200
H 	H 	0.06260 0.49900 0.40540 0.09200
H 	H 	0.04250 0.47310 0.32930 0.00500
H 	H 	0.69270 0.66050 0.38790 0.08800
H 	H 	0.65280 0.63110 0.31280 -0.00600
H 	H 	0.04950 0.46440 0.51390 0.12800
H 	H 	0.96910 0.54910 0.47890 0.13800
H 	H 	0.95180 0.36840 0.17250 -0.01300
H 	H 	0.86540 0.34320 0.09830 0.09500
H 	H 	0.48570 0.49700 0.06760 0.07700
H 	H 	0.55560 0.51920 0.14300 0.00300
H 	H 	0.43740 0.50100 0.90540 0.09100
H 	H 	0.45750 0.52690 0.82930 0.00600
H 	H 	0.80730 0.33950 0.88790 0.08700
H 	H 	0.84720 0.36890 0.81280 -0.00600
H 	H 	0.45050 0.53560 0.01390 0.12800
H 	H 	0.53090 0.45090 0.97890 0.14100
C 	C 	0.55930 0.10430 0.84876 0.08900
C 	C 	0.50620 0.11940 0.89339 -0.13900
C 	C 	0.66170 0.07920 0.92593 0.06300
C 	C 	0.87330 0.02830 0.91177 -0.11700
C 	C 	0.91420 0.01580 0.86619 0.06300
C 	C 	0.59330 0.09520 0.97310 0.08700
C 	C 	0.57340 0.09640 0.04562 0.09200
C 	C 	0.61370 0.07950 0.09382 0.06300
C 	C 	0.81370 0.02490 0.11265 -0.12800
C 	C 	0.82420 0.01010 0.15851 0.09100
C 	C 	0.44050 0.12070 0.12315 -0.13600
C 	C 	0.46550 0.10280 0.16832 0.07300
C 	C 	0.94070 0.89570 0.34876 0.09000
C 	C 	0.99380 0.88060 0.39339 -0.14400
C 	C 	0.83830 0.92080 0.42593 0.06400
C 	C 	0.62670 0.97170 0.41177 -0.11500
C 	C 	0.58580 0.98420 0.36619 0.05700
C 	C 	0.90670 0.90480 0.47310 0.08400
C 	C 	0.92660 0.90360 0.54562 0.09000
C 	C 	0.88630 0.92050 0.59382 0.06200
C 	C 	0.68630 0.97510 0.61265 -0.12700
C 	C 	0.67580 0.98990 0.65851 0.09100
C 	C 	0.05950 0.87930 0.62315 -0.13400
C 	C 	0.03450 0.89720 0.66832 0.07300
C 	C 	0.44070 0.60430 0.65124 0.09100
C 	C 	0.49380 0.61940 0.60661 -0.14000
C 	C 	0.33830 0.57920 0.57407 0.06600
C 	C 	0.12670 0.52830 0.58823 -0.12200
C 	C 	0.08580 0.51580 0.63381 0.07300
C 	C 	0.40670 0.59520 0.52690 0.08700
C 	C 	0.42660 0.59640 0.45438 0.09100
C 	C 	0.38630 0.57950 0.40618 0.06300
C 	C 	0.18630 0.52490 0.38735 -0.13000
C 	C 	0.17580 0.51010 0.34149 0.08200
C 	C 	0.55950 0.62070 0.37685 -0.13700
C 	C 	0.53450 0.60280 0.33168 0.07200
C 	C 	0.05930 0.39570 0.15124 0.09000
C 	C 	0.00620 0.38060 0.10661 -0.15000
C 	C 	0.16170 0.42080 0.07407 0.07000
C 	C 	0.37330 0.47170 0.08823 -0.12400
C 	C 	0.41420 0.48420 0.13381 0.07200
C 	C 	0.09330 0.40480 0.02690 0.08100
C 	C 	0.07340 0.40360 0.95438 0.08800
C 	C 	0.11370 0.42050 0.90618 0.06000
C 	C 	0.31370 0.47510 0.88735 -0.12900
C 	C 	0.32420 0.48990 0.84149 0.08000
C 	C 	0.94050 0.37930 0.87685 -0.13200
C 	C 	0.96550 0.39720 0.83168 0.07300
S 	S 	0.32707 0.81340 0.78174 0.70900
S 	S 	0.17293 0.18660 0.28174 0.70900
S 	S 	0.67293 0.31340 0.71826 0.70900
S 	S 	0.82707 0.68660 0.21826 0.70900
N 	N 	0.76040 0.05150 0.83481 -0.23600
N 	N 	0.65300 0.04630 0.18647 -0.23400
N 	N 	0.91730 0.99650 0.01285 -0.22000
N 	N 	0.39680 0.15060 0.98418 -0.09100
N 	N 	0.38890 0.15410 0.03105 -0.09600
N 	N 	0.70790 0.06070 0.01074 -0.09500
N 	N 	0.73960 0.94850 0.33481 -0.23500
N 	N 	0.84700 0.95370 0.68647 -0.23400
N 	N 	0.58270 0.00350 0.51285 -0.22300
N 	N 	0.10320 0.84940 0.48418 -0.08900
N 	N 	0.11110 0.84590 0.53105 -0.09400
N 	N 	0.79210 0.93930 0.51074 -0.09500
N 	N 	0.23960 0.55150 0.66519 -0.23700
N 	N 	0.34700 0.54630 0.31353 -0.23500
N 	N 	0.08270 0.49650 0.48715 -0.22000
N 	N 	0.60320 0.65060 0.51582 -0.09100
N 	N 	0.61110 0.65410 0.46895 -0.09600
N 	N 	0.29210 0.56070 0.48926 -0.09500
N 	N 	0.26040 0.44850 0.16519 -0.23700
N 	N 	0.15300 0.45370 0.81353 -0.23500
N 	N 	0.41730 0.50350 0.98715 -0.22200
N 	N 	0.89680 0.34940 0.01582 -0.08800
N 	N 	0.88890 0.34590 0.96895 -0.09300
N 	N 	0.20790 0.43930 0.98926 -0.09400
O 	O 	0.06950 0.83860 0.77820 -0.45000
O 	O 	0.45380 0.91540 0.75844 -0.44500
O 	O 	0.37510 0.69220 0.75892 -0.43700
O 	O 	0.39190 0.80700 0.82878 -0.30800
O 	O 	0.43050 0.16140 0.27820 -0.45000
O 	O 	0.04620 0.08460 0.25844 -0.44700
O 	O 	0.12490 0.30780 0.25892 -0.43800
O 	O 	0.10810 0.19300 0.32878 -0.30700
O 	O 	0.93050 0.33860 0.72180 -0.45200
O 	O 	0.54620 0.41540 0.74156 -0.44900
O 	O 	0.62490 0.19220 0.74108 -0.43900
O 	O 	0.60810 0.30700 0.67122 -0.31000
O 	O 	0.56950 0.66140 0.22180 -0.45300
O 	O 	0.95380 0.58460 0.24156 -0.44900
O 	O 	0.87510 0.80780 0.24108 -0.43900
O 	O 	0.89190 0.69300 0.17122 -0.30900
