data_crystal

_cell_length_a 23.02000
_cell_length_b 28.03200
_cell_length_c 12.50600
_cell_angle_alpha 90.00000
_cell_angle_beta  100.38900
_cell_angle_gamma 90.00000

_symmetry_space_group_name_	'P 1'
_symmetry_space_group_name_H-M	'P 1'

loop_
_symmetry_equiv_pos_as_xyz
  x,y,z

loop_
_atom_site_label
_atom_site_type_symbol
_atom_site_fract_x
_atom_site_fract_y
_atom_site_fract_z
_atom_site_charge
Co	Co	0.11054 0.67143 0.16510 1.08400
C 	C 	0.24070 0.63985 0.21480 0.08900
H 	H 	0.23150 0.61310 0.25520 -0.03800
C 	C 	0.23320 0.70230 0.11250 -0.00200
H 	H 	0.21660 0.72800 0.06750 0.03300
C 	C 	0.29180 0.69200 0.13830 0.00300
H 	H 	0.32330 0.70870 0.11560 0.04600
C 	C 	0.35060 0.62921 0.25710 0.11200
C 	C 	0.39960 0.65643 0.29520 -0.11000
H 	H 	0.39720 0.69020 0.29000 0.07900
C 	C 	0.45280 0.63499 0.34120 0.00200
H 	H 	0.48660 0.65410 0.36600 0.04800
C 	C 	0.45650 0.58534 0.35130 -0.03800
C 	C 	0.40580 0.55860 0.31450 0.00700
H 	H 	0.40730 0.52490 0.32250 0.03000
C 	C 	0.35337 0.57988 0.26680 -0.11600
H 	H 	0.31960 0.56090 0.24070 0.06600
C 	C 	0.51429 0.56228 0.39910 0.09800
C 	C 	0.56154 0.59012 0.45390 -0.15700
H 	H 	0.55550 0.62320 0.46400 0.10200
C 	C 	0.61691 0.57039 0.49360 0.09900
C 	C 	0.62460 0.52095 0.48040 -0.15500
H 	H 	0.66120 0.50650 0.51070 0.07900
C 	C 	0.57896 0.49297 0.42320 0.09700
C 	C 	0.52439 0.51375 0.38490 -0.15400
H 	H 	0.49310 0.49450 0.34800 0.08400
C 	C 	0.58998 0.44025 0.40560 -0.05800
C 	C 	0.64810 0.42400 0.41680 0.01900
H 	H 	0.67970 0.44620 0.43130 0.01800
C 	C 	0.66040 0.37520 0.40680 -0.13800
H 	H 	0.70000 0.36410 0.41690 0.07700
C 	C 	0.61430 0.34419 0.38240 0.13500
C 	C 	0.55560 0.35978 0.37080 -0.13700
H 	H 	0.52360 0.33790 0.35570 0.10100
C 	C 	0.54568 0.40784 0.38200 0.02500
H 	H 	0.50600 0.41880 0.37270 0.02400
C 	C 	0.60050 0.26617 0.28430 0.11400
H 	H 	0.57050 0.27700 0.22700 0.01500
C 	C 	0.66890 0.26640 0.43170 0.01300
H 	H 	0.69460 0.27640 0.49600 0.02400
C 	C 	0.66770 0.22370 0.38530 -0.01400
H 	H 	0.69320 0.19790 0.41130 0.01400
C 	C 	0.66760 0.59926 0.55010 -0.04700
C 	C 	0.65950 0.64070 0.61030 0.01000
H 	H 	0.62070 0.65100 0.61480 0.04300
C 	C 	0.70780 0.66620 0.66290 -0.12000
H 	H 	0.70210 0.69340 0.70520 0.07800
C 	C 	0.76480 0.65200 0.65370 0.11800
C 	C 	0.77290 0.61330 0.59080 -0.12700
H 	H 	0.81160 0.60370 0.58340 0.06500
C 	C 	0.72360 0.58800 0.53780 0.01100
H 	H 	0.72940 0.56210 0.49170 0.02000
C 	C 	0.86860 0.67920 0.68100 0.10300
H 	H 	0.87670 0.66770 0.61380 -0.00400
C 	C 	0.82210 0.69740 0.81580 0.00200
H 	H 	0.79280 0.70140 0.85970 0.03000
C 	C 	0.88010 0.71060 0.84070 0.01500
H 	H 	0.89800 0.72530 0.90700 0.05300
N 	N 	0.20090 0.66920 0.16260 -0.25500
N 	N 	0.29585 0.65217 0.20420 -0.13800
N 	N 	0.62220 0.22209 0.29000 -0.23500
N 	N 	0.62519 0.29384 0.36800 -0.14000
N 	N 	0.90840 0.69991 0.75810 -0.19600
N 	N 	0.81486 0.67696 0.71220 -0.14000
S 	S 	0.04230 0.74998 0.98940 -0.39800
O 	O 	0.09270 0.72090 0.03960 -0.12800
O 	O 	0.01750 0.73220 0.88550 -0.22000
O 	O 	0.99760 0.75150 0.05770 -0.31300
O 	O 	0.01360 0.67310 0.16350 0.02000
O 	O 	0.06400 0.79820 0.97970 -0.05300
S 	S 	0.03510 0.71750 0.02400 1.09100
O 	O 	0.10080 0.72140 0.04470 -0.30400
O 	O 	0.01680 0.68980 0.92710 -0.40000
O 	O 	0.00960 0.76470 0.01540 0.08800
O 	O 	0.01880 0.69280 0.11860 -0.53000
O 	O 	0.98770 0.63680 0.66420 -0.17500
Co	Co	0.61054 0.17143 0.16510 1.08900
C 	C 	0.74070 0.13985 0.21480 0.09000
H 	H 	0.73150 0.11310 0.25520 -0.03500
C 	C 	0.73320 0.20230 0.11250 -0.00000
H 	H 	0.71660 0.22800 0.06750 0.03200
C 	C 	0.79180 0.19200 0.13830 0.00300
H 	H 	0.82330 0.20870 0.11560 0.04600
C 	C 	0.85060 0.12921 0.25710 0.10300
C 	C 	0.89960 0.15643 0.29520 -0.09400
H 	H 	0.89720 0.19020 0.29000 0.07600
C 	C 	0.95280 0.13499 0.34120 -0.01700
H 	H 	0.98660 0.15410 0.36600 0.06800
C 	C 	0.95650 0.08534 0.35130 -0.00100
C 	C 	0.90580 0.05860 0.31450 -0.01300
H 	H 	0.90730 0.02490 0.32250 0.03800
C 	C 	0.85337 0.07988 0.26680 -0.10200
H 	H 	0.81960 0.06090 0.24070 0.06200
C 	C 	0.01429 0.06228 0.39910 0.07600
C 	C 	0.06154 0.09012 0.45390 -0.15200
H 	H 	0.05550 0.12320 0.46400 0.09100
C 	C 	0.11691 0.07039 0.49360 0.09900
C 	C 	0.12460 0.02095 0.48040 -0.16200
H 	H 	0.16120 0.00650 0.51070 0.08100
C 	C 	0.07896 0.99297 0.42320 0.11400
C 	C 	0.02439 0.01375 0.38490 -0.20400
H 	H 	0.99310 0.99450 0.34800 0.12100
C 	C 	0.08998 0.94025 0.40560 -0.07300
C 	C 	0.14810 0.92400 0.41680 0.02700
H 	H 	0.17970 0.94620 0.43130 0.01400
C 	C 	0.16040 0.87520 0.40680 -0.14400
H 	H 	0.20000 0.86410 0.41690 0.07800
C 	C 	0.11430 0.84419 0.38240 0.13700
C 	C 	0.05560 0.85978 0.37080 -0.14600
H 	H 	0.02360 0.83790 0.35570 0.09500
C 	C 	0.04568 0.90784 0.38200 0.03200
H 	H 	0.00600 0.91880 0.37270 0.00800
C 	C 	0.10050 0.76617 0.28430 0.11400
H 	H 	0.07050 0.77700 0.22700 0.00900
C 	C 	0.16890 0.76640 0.43170 0.01300
H 	H 	0.19460 0.77640 0.49600 0.02400
C 	C 	0.16770 0.72370 0.38530 -0.01500
H 	H 	0.19320 0.69790 0.41130 0.01300
C 	C 	0.16760 0.09926 0.55010 -0.04900
C 	C 	0.15950 0.14070 0.61030 0.01100
H 	H 	0.12070 0.15100 0.61480 0.04000
C 	C 	0.20780 0.16620 0.66290 -0.12000
H 	H 	0.20210 0.19340 0.70520 0.07800
C 	C 	0.26480 0.15200 0.65370 0.11800
C 	C 	0.27290 0.11330 0.59080 -0.12700
H 	H 	0.31160 0.10370 0.58340 0.06300
C 	C 	0.22360 0.08800 0.53780 0.01100
H 	H 	0.22940 0.06210 0.49170 0.01800
C 	C 	0.36860 0.17920 0.68100 0.10200
H 	H 	0.37670 0.16770 0.61380 -0.00400
C 	C 	0.32210 0.19740 0.81580 0.00200
H 	H 	0.29280 0.20140 0.85970 0.03000
C 	C 	0.38010 0.21060 0.84070 0.01200
H 	H 	0.39800 0.22530 0.90700 0.05000
N 	N 	0.70090 0.16920 0.16260 -0.25400
N 	N 	0.79585 0.15217 0.20420 -0.13700
N 	N 	0.12220 0.72209 0.29000 -0.23700
N 	N 	0.12519 0.79384 0.36800 -0.14100
N 	N 	0.40840 0.19991 0.75810 -0.20200
N 	N 	0.31486 0.17696 0.71220 -0.14100
S 	S 	0.54230 0.24998 0.98940 -0.24300
O 	O 	0.59270 0.22090 0.03960 -0.13000
O 	O 	0.51750 0.23220 0.88550 -0.24500
O 	O 	0.49760 0.25150 0.05770 -0.34800
O 	O 	0.51360 0.17310 0.16350 -0.00100
O 	O 	0.56400 0.29820 0.97970 -0.08200
S 	S 	0.53510 0.21750 0.02400 0.96400
O 	O 	0.60080 0.22140 0.04470 -0.29900
O 	O 	0.51680 0.18980 0.92710 -0.36500
O 	O 	0.50960 0.26470 0.01540 0.08800
O 	O 	0.51880 0.19280 0.11860 -0.46800
O 	O 	0.48770 0.13680 0.66420 -0.20400
Co	Co	0.88946 0.67143 0.33490 1.09300
C 	C 	0.75930 0.63985 0.28520 0.09100
H 	H 	0.76850 0.61310 0.24480 -0.03500
C 	C 	0.76680 0.70230 0.38750 0.00100
H 	H 	0.78340 0.72800 0.43250 0.03500
C 	C 	0.70820 0.69200 0.36170 0.00400
H 	H 	0.67670 0.70870 0.38440 0.04800
C 	C 	0.64940 0.62921 0.24290 0.11300
C 	C 	0.60040 0.65643 0.20480 -0.11200
H 	H 	0.60280 0.69020 0.21000 0.07900
C 	C 	0.54720 0.63499 0.15880 0.00200
H 	H 	0.51340 0.65410 0.13400 0.04800
C 	C 	0.54350 0.58534 0.14870 -0.04200
C 	C 	0.59420 0.55860 0.18550 0.00800
H 	H 	0.59270 0.52490 0.17750 0.02700
C 	C 	0.64663 0.57988 0.23320 -0.11800
H 	H 	0.68040 0.56090 0.25930 0.06800
C 	C 	0.48571 0.56228 0.10090 0.10100
C 	C 	0.43846 0.59012 0.04610 -0.16200
H 	H 	0.44450 0.62320 0.03600 0.10200
C 	C 	0.38309 0.57039 0.00640 0.10000
C 	C 	0.37540 0.52095 0.01960 -0.18200
H 	H 	0.33880 0.50650 0.98930 0.09800
C 	C 	0.42104 0.49297 0.07680 0.10700
C 	C 	0.47561 0.51375 0.11510 -0.16200
H 	H 	0.50690 0.49450 0.15200 0.08500
C 	C 	0.41002 0.44025 0.09440 -0.06700
C 	C 	0.35190 0.42400 0.08320 0.02200
H 	H 	0.32030 0.44620 0.06870 0.01200
C 	C 	0.33960 0.37520 0.09320 -0.14300
H 	H 	0.30000 0.36410 0.08310 0.07500
C 	C 	0.38570 0.34419 0.11760 0.13600
C 	C 	0.44440 0.35978 0.12920 -0.14200
H 	H 	0.47640 0.33790 0.14430 0.10200
C 	C 	0.45432 0.40784 0.11800 0.02900
H 	H 	0.49400 0.41880 0.12730 0.02100
C 	C 	0.39950 0.26617 0.21570 0.11400
H 	H 	0.42950 0.27700 0.27300 0.01500
C 	C 	0.33110 0.26640 0.06830 0.01200
H 	H 	0.30540 0.27640 0.00400 0.02000
C 	C 	0.33230 0.22370 0.11470 -0.01500
H 	H 	0.30680 0.19790 0.08870 0.01100
C 	C 	0.33240 0.59926 0.94990 -0.04900
C 	C 	0.34050 0.64070 0.88970 0.01500
H 	H 	0.37930 0.65100 0.88520 0.04400
C 	C 	0.29220 0.66620 0.83710 -0.12400
H 	H 	0.29790 0.69340 0.79480 0.07900
C 	C 	0.23520 0.65200 0.84630 0.12400
C 	C 	0.22710 0.61330 0.90920 -0.14100
H 	H 	0.18840 0.60370 0.91660 0.06900
C 	C 	0.27640 0.58800 0.96220 0.04000
H 	H 	0.27060 0.56210 0.00830 -0.00100
C 	C 	0.13140 0.67920 0.81900 0.10300
H 	H 	0.12330 0.66770 0.88620 -0.00200
C 	C 	0.17790 0.69740 0.68420 0.00000
H 	H 	0.20720 0.70140 0.64030 0.02700
C 	C 	0.11990 0.71060 0.65930 0.00900
H 	H 	0.10200 0.72530 0.59300 0.04300
N 	N 	0.79910 0.66920 0.33740 -0.25300
N 	N 	0.70415 0.65217 0.29580 -0.13800
N 	N 	0.37780 0.22209 0.21000 -0.23500
N 	N 	0.37481 0.29384 0.13200 -0.14100
N 	N 	0.09160 0.69991 0.74190 -0.20500
N 	N 	0.18514 0.67696 0.78780 -0.14200
S 	S 	0.95770 0.74998 0.51060 -0.02200
O 	O 	0.90730 0.72090 0.46040 -0.13200
O 	O 	0.98250 0.73220 0.61450 -0.27800
O 	O 	0.00240 0.75150 0.44230 -0.34400
O 	O 	0.98640 0.67310 0.33650 -0.03200
O 	O 	0.93600 0.79820 0.52030 -0.12700
S 	S 	0.96490 0.71750 0.47600 0.78500
O 	O 	0.89920 0.72140 0.45530 -0.28900
O 	O 	0.98320 0.68980 0.57290 -0.32500
O 	O 	0.99040 0.76470 0.48460 0.04500
O 	O 	0.98120 0.69280 0.38140 -0.38800
O 	O 	0.01230 0.63680 0.83580 -0.20000
Co	Co	0.38946 0.17143 0.33490 1.09000
C 	C 	0.25930 0.13985 0.28520 0.09100
H 	H 	0.26850 0.11310 0.24480 -0.03700
C 	C 	0.26680 0.20230 0.38750 0.00100
H 	H 	0.28340 0.22800 0.43250 0.03500
C 	C 	0.20820 0.19200 0.36170 0.00400
H 	H 	0.17670 0.20870 0.38440 0.04800
C 	C 	0.14940 0.12921 0.24290 0.12300
C 	C 	0.10040 0.15643 0.20480 -0.12900
H 	H 	0.10280 0.19020 0.21000 0.08200
C 	C 	0.04720 0.13499 0.15880 0.02100
H 	H 	0.01340 0.15410 0.13400 0.02800
C 	C 	0.04350 0.08534 0.14870 -0.07900
C 	C 	0.09420 0.05860 0.18550 0.02800
H 	H 	0.09270 0.02490 0.17750 0.01900
C 	C 	0.14663 0.07988 0.23320 -0.13200
H 	H 	0.18040 0.06090 0.25930 0.07200
C 	C 	0.98571 0.06228 0.10090 0.12100
C 	C 	0.93846 0.09012 0.04610 -0.16400
H 	H 	0.94450 0.12320 0.03600 0.11200
C 	C 	0.88309 0.07039 0.00640 0.09800
C 	C 	0.87540 0.02095 0.01960 -0.16600
H 	H 	0.83880 0.00650 0.98930 0.09100
C 	C 	0.92104 0.99297 0.07680 0.08400
C 	C 	0.97561 0.01375 0.11510 -0.10700
H 	H 	0.00690 0.99450 0.15200 0.04500
C 	C 	0.91002 0.94025 0.09440 -0.04900
C 	C 	0.85190 0.92400 0.08320 0.01300
H 	H 	0.82030 0.94620 0.06870 0.01700
C 	C 	0.83960 0.87520 0.09320 -0.13600
H 	H 	0.80000 0.86410 0.08310 0.07400
C 	C 	0.88570 0.84419 0.11760 0.13300
C 	C 	0.94440 0.85978 0.12920 -0.13200
H 	H 	0.97640 0.83790 0.14430 0.10800
C 	C 	0.95432 0.90784 0.11800 0.02000
H 	H 	0.99400 0.91880 0.12730 0.03700
C 	C 	0.89950 0.76617 0.21570 0.11400
H 	H 	0.92950 0.77700 0.27300 0.02100
C 	C 	0.83110 0.76640 0.06830 0.01200
H 	H 	0.80540 0.77640 0.00400 0.02100
C 	C 	0.83230 0.72370 0.11470 -0.01300
H 	H 	0.80680 0.69790 0.08870 0.01200
C 	C 	0.83240 0.09926 0.94990 -0.04700
C 	C 	0.84050 0.14070 0.88970 0.01300
H 	H 	0.87930 0.15100 0.88520 0.04700
C 	C 	0.79220 0.16620 0.83710 -0.12200
H 	H 	0.79790 0.19340 0.79480 0.07800
C 	C 	0.73520 0.15200 0.84630 0.12200
C 	C 	0.72710 0.11330 0.90920 -0.13700
H 	H 	0.68840 0.10370 0.91660 0.06900
C 	C 	0.77640 0.08800 0.96220 0.03400
H 	H 	0.77060 0.06210 0.00830 0.00300
C 	C 	0.63140 0.17920 0.81900 0.10300
H 	H 	0.62330 0.16770 0.88620 -0.00200
C 	C 	0.67790 0.19740 0.68420 0.00000
H 	H 	0.70720 0.20140 0.64030 0.02800
C 	C 	0.61990 0.21060 0.65930 0.01200
H 	H 	0.60200 0.22530 0.59300 0.04700
N 	N 	0.29910 0.16920 0.33740 -0.25400
N 	N 	0.20415 0.15217 0.29580 -0.14000
N 	N 	0.87780 0.72209 0.21000 -0.23300
N 	N 	0.87481 0.79384 0.13200 -0.13900
N 	N 	0.59160 0.19991 0.74190 -0.20200
N 	N 	0.68514 0.17696 0.78780 -0.14100
S 	S 	0.45770 0.24998 0.51060 -0.16000
O 	O 	0.40730 0.22090 0.46040 -0.12900
O 	O 	0.48250 0.23220 0.61450 -0.26200
O 	O 	0.50240 0.25150 0.44230 -0.30600
O 	O 	0.48640 0.17310 0.33650 -0.01400
O 	O 	0.43600 0.29820 0.52030 -0.10300
S 	S 	0.46490 0.21750 0.47600 0.89900
O 	O 	0.39920 0.22140 0.45530 -0.29400
O 	O 	0.48320 0.18980 0.57290 -0.35600
O 	O 	0.49040 0.26470 0.48460 0.03800
O 	O 	0.48120 0.19280 0.38140 -0.44400
O 	O 	0.51230 0.13680 0.83580 -0.20200
Co	Co	-0.00000 0.70088 0.75000 1.19900
O 	O 	0.00000 0.61930 0.75000 -0.09300
Co	Co	0.50000 0.20088 0.75000 1.21200
O 	O 	0.50000 0.11930 0.75000 -0.06300
Co	Co	0.88946 0.32857 0.83490 1.09500
C 	C 	0.75930 0.36015 0.78520 0.09300
H 	H 	0.76850 0.38690 0.74480 -0.03300
C 	C 	0.76680 0.29770 0.88750 0.00200
H 	H 	0.78340 0.27200 0.93250 0.03700
C 	C 	0.70820 0.30800 0.86170 0.00600
H 	H 	0.67670 0.29130 0.88440 0.05000
C 	C 	0.64940 0.37079 0.74290 0.11400
C 	C 	0.60040 0.34357 0.70480 -0.11100
H 	H 	0.60280 0.30980 0.71000 0.07900
C 	C 	0.54720 0.36501 0.65880 0.00300
H 	H 	0.51340 0.34590 0.63400 0.04800
C 	C 	0.54350 0.41466 0.64870 -0.03900
C 	C 	0.59420 0.44140 0.68550 0.00800
H 	H 	0.59270 0.47510 0.67750 0.02900
C 	C 	0.64663 0.42012 0.73320 -0.11700
H 	H 	0.68040 0.43910 0.75930 0.06900
C 	C 	0.48571 0.43772 0.60090 0.09800
C 	C 	0.43846 0.40988 0.54610 -0.15700
H 	H 	0.44450 0.37680 0.53600 0.10200
C 	C 	0.38309 0.42961 0.50640 0.09800
C 	C 	0.37540 0.47905 0.51960 -0.15400
H 	H 	0.33880 0.49350 0.48930 0.07800
C 	C 	0.42104 0.50703 0.57680 0.09700
C 	C 	0.47561 0.48625 0.61510 -0.15400
H 	H 	0.50690 0.50550 0.65200 0.08400
C 	C 	0.41002 0.55975 0.59440 -0.05800
C 	C 	0.35190 0.57600 0.58320 0.01900
H 	H 	0.32030 0.55380 0.56870 0.01700
C 	C 	0.33960 0.62480 0.59320 -0.13800
H 	H 	0.30000 0.63590 0.58310 0.07600
C 	C 	0.38570 0.65581 0.61760 0.13500
C 	C 	0.44440 0.64022 0.62920 -0.13700
H 	H 	0.47640 0.66210 0.64430 0.10100
C 	C 	0.45432 0.59216 0.61800 0.02500
H 	H 	0.49400 0.58120 0.62730 0.02400
C 	C 	0.39950 0.73383 0.71570 0.11400
H 	H 	0.42950 0.72300 0.77300 0.01500
C 	C 	0.33110 0.73360 0.56830 0.01300
H 	H 	0.30540 0.72360 0.50400 0.02400
C 	C 	0.33230 0.77630 0.61470 -0.01300
H 	H 	0.30680 0.80210 0.58870 0.01400
C 	C 	0.33240 0.40074 0.44990 -0.04600
C 	C 	0.34050 0.35930 0.38970 0.00900
H 	H 	0.37930 0.34900 0.38520 0.04300
C 	C 	0.29220 0.33380 0.33710 -0.11800
H 	H 	0.29790 0.30660 0.29480 0.07700
C 	C 	0.23520 0.34800 0.34630 0.11500
C 	C 	0.22710 0.38670 0.40920 -0.12600
H 	H 	0.18840 0.39630 0.41660 0.06000
C 	C 	0.27640 0.41200 0.46220 0.00800
H 	H 	0.27060 0.43790 0.50830 0.01800
C 	C 	0.13140 0.32080 0.31900 0.10100
H 	H 	0.12330 0.33230 0.38620 -0.00400
C 	C 	0.17790 0.30260 0.18420 -0.00200
H 	H 	0.20720 0.29860 0.14030 0.02500
C 	C 	0.11990 0.28940 0.15930 0.00900
H 	H 	0.10200 0.27470 0.09300 0.03900
N 	N 	0.79910 0.33080 0.83740 -0.25200
N 	N 	0.70415 0.34783 0.79580 -0.13800
N 	N 	0.37780 0.77791 0.71000 -0.23500
N 	N 	0.37481 0.70616 0.63200 -0.14000
N 	N 	0.09160 0.30009 0.24190 -0.20500
N 	N 	0.18514 0.32304 0.28780 -0.14100
S 	S 	0.95770 0.25002 0.01060 0.03500
O 	O 	0.90730 0.27910 0.96040 -0.13100
O 	O 	0.98250 0.26780 0.11450 -0.28800
O 	O 	0.00240 0.24850 0.94230 -0.30600
O 	O 	0.98640 0.32690 0.83650 -0.03800
O 	O 	0.93600 0.20180 0.02030 -0.14200
S 	S 	0.96490 0.28250 0.97600 0.74100
O 	O 	0.89920 0.27860 0.95530 -0.28600
O 	O 	0.98320 0.31020 0.07290 -0.31900
O 	O 	0.99040 0.23530 0.98460 0.00300
O 	O 	0.98120 0.30720 0.88140 -0.37400
O 	O 	0.01230 0.36320 0.33580 -0.20300
Co	Co	0.38946 0.82857 0.83490 1.09300
C 	C 	0.25930 0.86015 0.78520 0.09300
H 	H 	0.26850 0.88690 0.74480 -0.03500
C 	C 	0.26680 0.79770 0.88750 0.00300
H 	H 	0.28340 0.77200 0.93250 0.03800
C 	C 	0.20820 0.80800 0.86170 0.00600
H 	H 	0.17670 0.79130 0.88440 0.05000
C 	C 	0.14940 0.87079 0.74290 0.12400
C 	C 	0.10040 0.84357 0.70480 -0.12700
H 	H 	0.10280 0.80980 0.71000 0.08200
C 	C 	0.04720 0.86501 0.65880 0.02100
H 	H 	0.01340 0.84590 0.63400 0.02900
C 	C 	0.04350 0.91466 0.64870 -0.07500
C 	C 	0.09420 0.94140 0.68550 0.02700
H 	H 	0.09270 0.97510 0.67750 0.02100
C 	C 	0.14663 0.92012 0.73320 -0.13100
H 	H 	0.18040 0.93910 0.75930 0.07300
C 	C 	0.98571 0.93772 0.60090 0.11900
C 	C 	0.93846 0.90988 0.54610 -0.16100
H 	H 	0.94450 0.87680 0.53600 0.11300
C 	C 	0.88309 0.92961 0.50640 0.09800
C 	C 	0.87540 0.97905 0.51960 -0.14700
H 	H 	0.83880 0.99350 0.48930 0.07600
C 	C 	0.92104 0.00703 0.57680 0.08000
C 	C 	0.97561 0.98625 0.61510 -0.10700
H 	H 	0.00690 0.00550 0.65200 0.04800
C 	C 	0.91002 0.05975 0.59440 -0.04400
C 	C 	0.85190 0.07600 0.58320 0.01100
H 	H 	0.82030 0.05380 0.56870 0.02000
C 	C 	0.83960 0.12480 0.59320 -0.13300
H 	H 	0.80000 0.13590 0.58310 0.07500
C 	C 	0.88570 0.15581 0.61760 0.13300
C 	C 	0.94440 0.14022 0.62920 -0.12900
H 	H 	0.97640 0.16210 0.64430 0.10700
C 	C 	0.95432 0.09216 0.61800 0.01800
H 	H 	0.99400 0.08120 0.62730 0.04000
C 	C 	0.89950 0.23383 0.71570 0.11400
H 	H 	0.92950 0.22300 0.77300 0.02000
C 	C 	0.83110 0.23360 0.56830 0.01300
H 	H 	0.80540 0.22360 0.50400 0.02500
C 	C 	0.83230 0.27630 0.61470 -0.01200
H 	H 	0.80680 0.30210 0.58870 0.01500
C 	C 	0.83240 0.90074 0.44990 -0.04500
C 	C 	0.84050 0.85930 0.38970 0.00800
H 	H 	0.87930 0.84900 0.38520 0.04600
C 	C 	0.79220 0.83380 0.33710 -0.11700
H 	H 	0.79790 0.80660 0.29480 0.07600
C 	C 	0.73520 0.84800 0.34630 0.11500
C 	C 	0.72710 0.88670 0.40920 -0.12500
H 	H 	0.68840 0.89630 0.41660 0.06200
C 	C 	0.77640 0.91200 0.46220 0.00800
H 	H 	0.77060 0.93790 0.50830 0.01900
C 	C 	0.63140 0.82080 0.31900 0.10100
H 	H 	0.62330 0.83230 0.38620 -0.00400
C 	C 	0.67790 0.80260 0.18420 -0.00100
H 	H 	0.70720 0.79860 0.14030 0.02600
C 	C 	0.61990 0.78940 0.15930 0.01200
H 	H 	0.60200 0.77470 0.09300 0.04300
N 	N 	0.29910 0.83080 0.83740 -0.25300
N 	N 	0.20415 0.84783 0.79580 -0.13900
N 	N 	0.87780 0.27791 0.71000 -0.23300
N 	N 	0.87481 0.20616 0.63200 -0.13900
N 	N 	0.59160 0.80009 0.24190 -0.20200
N 	N 	0.68514 0.82304 0.28780 -0.14000
S 	S 	0.45770 0.75002 0.01060 -0.07200
O 	O 	0.40730 0.77910 0.96040 -0.12800
O 	O 	0.48250 0.76780 0.11450 -0.27900
O 	O 	0.50240 0.74850 0.94230 -0.26200
O 	O 	0.48640 0.82690 0.83650 -0.02500
O 	O 	0.43600 0.70180 0.02030 -0.12500
S 	S 	0.46490 0.78250 0.97600 0.83200
O 	O 	0.39920 0.77860 0.95530 -0.28900
O 	O 	0.48320 0.81020 0.07290 -0.34700
O 	O 	0.49040 0.73530 0.98460 -0.01500
O 	O 	0.48120 0.80720 0.88140 -0.42100
O 	O 	0.51230 0.86320 0.33580 -0.20500
Co	Co	0.11054 0.32857 0.66510 1.08800
C 	C 	0.24070 0.36015 0.71480 0.09200
H 	H 	0.23150 0.38690 0.75520 -0.03500
C 	C 	0.23320 0.29770 0.61250 0.00100
H 	H 	0.21660 0.27200 0.56750 0.03500
C 	C 	0.29180 0.30800 0.63830 0.00500
H 	H 	0.32330 0.29130 0.61560 0.04800
C 	C 	0.35060 0.37079 0.75710 0.11400
C 	C 	0.39960 0.34357 0.79520 -0.10900
H 	H 	0.39720 0.30980 0.79000 0.07900
C 	C 	0.45280 0.36501 0.84120 0.00200
H 	H 	0.48660 0.34590 0.86600 0.04800
C 	C 	0.45650 0.41466 0.85130 -0.03500
C 	C 	0.40580 0.44140 0.81450 0.00700
H 	H 	0.40730 0.47510 0.82250 0.03100
C 	C 	0.35337 0.42012 0.76680 -0.11400
H 	H 	0.31960 0.43910 0.74070 0.06700
C 	C 	0.51429 0.43772 0.89910 0.09600
C 	C 	0.56154 0.40988 0.95390 -0.15200
H 	H 	0.55550 0.37680 0.96400 0.10300
C 	C 	0.61691 0.42961 0.99360 0.09800
C 	C 	0.62460 0.47905 0.98040 -0.13000
H 	H 	0.66120 0.49350 0.01070 0.06200
C 	C 	0.57896 0.50703 0.92320 0.08800
C 	C 	0.52439 0.48625 0.88490 -0.14700
H 	H 	0.49310 0.50550 0.84800 0.08300
C 	C 	0.58998 0.55975 0.90560 -0.05000
C 	C 	0.64810 0.57600 0.91680 0.01600
H 	H 	0.67970 0.55380 0.93130 0.02200
C 	C 	0.66040 0.62480 0.90680 -0.13500
H 	H 	0.70000 0.63590 0.91690 0.07700
C 	C 	0.61430 0.65581 0.88240 0.13400
C 	C 	0.55560 0.64022 0.87080 -0.13300
H 	H 	0.52360 0.66210 0.85570 0.10100
C 	C 	0.54568 0.59216 0.88200 0.02200
H 	H 	0.50600 0.58120 0.87270 0.02800
C 	C 	0.60050 0.73383 0.78430 0.11400
H 	H 	0.57050 0.72300 0.72700 0.01500
C 	C 	0.66890 0.73360 0.93170 0.01400
H 	H 	0.69460 0.72360 0.99600 0.02800
C 	C 	0.66770 0.77630 0.88530 -0.01200
H 	H 	0.69320 0.80210 0.91130 0.01700
C 	C 	0.66760 0.40074 0.05010 -0.04600
C 	C 	0.65950 0.35930 0.11030 0.00500
H 	H 	0.62070 0.34900 0.11480 0.04100
C 	C 	0.70780 0.33380 0.16290 -0.11600
H 	H 	0.70210 0.30660 0.20520 0.07600
C 	C 	0.76480 0.34800 0.15370 0.11100
C 	C 	0.77290 0.38670 0.09080 -0.11500
H 	H 	0.81160 0.39630 0.08340 0.05800
C 	C 	0.72360 0.41200 0.03780 -0.01500
H 	H 	0.72940 0.43790 0.99170 0.03600
C 	C 	0.86860 0.32080 0.18100 0.10200
H 	H 	0.87670 0.33230 0.11380 -0.00500
C 	C 	0.82210 0.30260 0.31580 0.00000
H 	H 	0.79280 0.29860 0.35970 0.02800
C 	C 	0.88010 0.28940 0.34070 0.01500
H 	H 	0.89800 0.27470 0.40700 0.05000
N 	N 	0.20090 0.33080 0.66260 -0.25400
N 	N 	0.29585 0.34783 0.70420 -0.13800
N 	N 	0.62220 0.77791 0.79000 -0.23400
N 	N 	0.62519 0.70616 0.86800 -0.13900
N 	N 	0.90840 0.30009 0.25810 -0.19600
N 	N 	0.81486 0.32304 0.21220 -0.14000
S 	S 	0.04230 0.25002 0.48940 -0.29200
O 	O 	0.09270 0.27910 0.53960 -0.12700
O 	O 	0.01750 0.26780 0.38550 -0.24200
O 	O 	0.99760 0.24850 0.55770 -0.26600
O 	O 	0.01360 0.32690 0.66350 0.00700
O 	O 	0.06400 0.20180 0.47970 -0.07900
S 	S 	0.03510 0.28250 0.52400 1.00900
O 	O 	0.10080 0.27860 0.54470 -0.29800
O 	O 	0.01680 0.31020 0.42710 -0.38800
O 	O 	0.00960 0.23530 0.51540 0.02800
O 	O 	0.01880 0.30720 0.61860 -0.50100
O 	O 	0.98770 0.36320 0.16420 -0.17500
Co	Co	0.61054 0.82857 0.66510 1.09100
C 	C 	0.74070 0.86015 0.71480 0.09100
H 	H 	0.73150 0.88690 0.75520 -0.03400
C 	C 	0.73320 0.79770 0.61250 0.00100
H 	H 	0.71660 0.77200 0.56750 0.03500
C 	C 	0.79180 0.80800 0.63830 0.00400
H 	H 	0.82330 0.79130 0.61560 0.04800
C 	C 	0.85060 0.87079 0.75710 0.10500
C 	C 	0.89960 0.84357 0.79520 -0.09400
H 	H 	0.89720 0.80980 0.79000 0.07700
C 	C 	0.95280 0.86501 0.84120 -0.01500
H 	H 	0.98660 0.84590 0.86600 0.06600
C 	C 	0.95650 0.91466 0.85130 -0.00200
C 	C 	0.90580 0.94140 0.81450 -0.01200
H 	H 	0.90730 0.97510 0.82250 0.03900
C 	C 	0.85337 0.92012 0.76680 -0.10200
H 	H 	0.81960 0.93910 0.74070 0.06300
C 	C 	0.01429 0.93772 0.89910 0.07600
C 	C 	0.06154 0.90988 0.95390 -0.14800
H 	H 	0.05550 0.87680 0.96400 0.09300
C 	C 	0.11691 0.92961 0.99360 0.09900
C 	C 	0.12460 0.97905 0.98040 -0.13400
H 	H 	0.16120 0.99350 0.01070 0.06100
C 	C 	0.07896 0.00703 0.92320 0.10400
C 	C 	0.02439 0.98625 0.88490 -0.19400
H 	H 	0.99310 0.00550 0.84800 0.11700
C 	C 	0.08998 0.05975 0.90560 -0.06400
C 	C 	0.14810 0.07600 0.91680 0.02400
H 	H 	0.17970 0.05380 0.93130 0.01900
C 	C 	0.16040 0.12480 0.90680 -0.14000
H 	H 	0.20000 0.13590 0.91690 0.07900
C 	C 	0.11430 0.15581 0.88240 0.13700
C 	C 	0.05560 0.14022 0.87080 -0.14000
H 	H 	0.02360 0.16210 0.85570 0.09500
C 	C 	0.04568 0.09216 0.88200 0.02800
H 	H 	0.00600 0.08120 0.87270 0.01300
C 	C 	0.10050 0.23383 0.78430 0.11400
H 	H 	0.07050 0.22300 0.72700 0.00900
C 	C 	0.16890 0.23360 0.93170 0.01400
H 	H 	0.19460 0.22360 0.99600 0.02900
C 	C 	0.16770 0.27630 0.88530 -0.01300
H 	H 	0.19320 0.30210 0.91130 0.01600
C 	C 	0.16760 0.90074 0.05010 -0.04700
C 	C 	0.15950 0.85930 0.11030 0.00500
H 	H 	0.12070 0.84900 0.11480 0.03700
C 	C 	0.20780 0.83380 0.16290 -0.11600
H 	H 	0.20210 0.80660 0.20520 0.07600
C 	C 	0.26480 0.84800 0.15370 0.10900
C 	C 	0.27290 0.88670 0.09080 -0.11300
H 	H 	0.31160 0.89630 0.08340 0.05500
C 	C 	0.22360 0.91200 0.03780 -0.02000
H 	H 	0.22940 0.93790 0.99170 0.03800
C 	C 	0.36860 0.82080 0.18100 0.10100
H 	H 	0.37670 0.83230 0.11380 -0.00600
C 	C 	0.32210 0.80260 0.31580 -0.00000
H 	H 	0.29280 0.79860 0.35970 0.02800
C 	C 	0.38010 0.78940 0.34070 0.01200
H 	H 	0.39800 0.77470 0.40700 0.04700
N 	N 	0.70090 0.83080 0.66260 -0.25300
N 	N 	0.79585 0.84783 0.70420 -0.13600
N 	N 	0.12220 0.27791 0.79000 -0.23600
N 	N 	0.12519 0.20616 0.86800 -0.14000
N 	N 	0.40840 0.80009 0.25810 -0.20200
N 	N 	0.31486 0.82304 0.21220 -0.14000
S 	S 	0.54230 0.75002 0.48940 -0.15800
O 	O 	0.59270 0.77910 0.53960 -0.12900
O 	O 	0.51750 0.76780 0.38550 -0.26200
O 	O 	0.49760 0.74850 0.55770 -0.30500
O 	O 	0.51360 0.82690 0.66350 -0.01100
O 	O 	0.56400 0.70180 0.47970 -0.10300
S 	S 	0.53510 0.78250 0.52400 0.89900
O 	O 	0.60080 0.77860 0.54470 -0.29400
O 	O 	0.51680 0.81020 0.42710 -0.35600
O 	O 	0.50960 0.73530 0.51540 0.03700
O 	O 	0.51880 0.80720 0.61860 -0.44600
O 	O 	0.48770 0.86320 0.16420 -0.20800
Co	Co	0.00000 0.29912 0.25000 1.19900
O 	O 	0.00000 0.38070 0.25000 -0.09600
Co	Co	0.50000 0.79912 0.25000 1.21300
O 	O 	0.50000 0.88070 0.25000 -0.06300
