data_crystal

_cell_length_a 21.66500
_cell_length_b 27.47500
_cell_length_c 14.27700
_cell_angle_alpha 90.00000
_cell_angle_beta  103.07300
_cell_angle_gamma 90.00000

_symmetry_space_group_name_	'P 1'
_symmetry_space_group_name_H-M	'P 1'

loop_
_symmetry_equiv_pos_as_xyz
  x,y,z

loop_
_atom_site_label
_atom_site_type_symbol
_atom_site_fract_x
_atom_site_fract_y
_atom_site_fract_z
_atom_site_charge
Co	Co	0.10911 0.17587 0.57897 1.15100
C 	C 	0.67760 0.06850 0.06420 -0.02900
C 	C 	0.68910 0.11730 0.04980 0.06200
H 	H 	0.66180 0.13490 0.99980 0.02400
C 	C 	0.74050 0.14056 0.10870 -0.14500
H 	H 	0.74840 0.17400 0.09890 0.08200
C 	C 	0.78050 0.11490 0.18200 0.14700
C 	C 	0.76900 0.06600 0.19640 -0.13000
H 	H 	0.79630 0.04840 0.24650 0.07400
C 	C 	0.71750 0.04277 0.13750 0.02300
H 	H 	0.70970 0.00940 0.14730 0.01900
N 	N 	0.92430 0.17960 0.27390 0.02600
C 	C 	0.87360 0.16860 0.20160 -0.02700
H 	H 	0.86600 0.18040 0.13750 0.00700
N 	N 	0.83550 0.13770 0.23730 -0.05600
C 	C 	0.86270 0.12960 0.33160 -0.11900
H 	H 	0.84630 0.10940 0.37420 0.06600
C 	C 	0.91760 0.15550 0.35420 -0.01000
H 	H 	0.94620 0.15660 0.41530 0.03600
C 	C 	0.24470 0.20210 0.59440 0.00500
H 	H 	0.23210 0.23060 0.55740 0.02500
C 	C 	0.30510 0.19120 0.63920 0.00000
H 	H 	0.34180 0.21070 0.64260 0.04800
C 	C 	0.24060 0.13370 0.66230 0.10600
H 	H 	0.22500 0.10490 0.68560 -0.00900
C 	C 	0.35470 0.11960 0.73660 0.12300
C 	C 	0.40840 0.14440 0.77930 -0.11600
H 	H 	0.41050 0.17860 0.77140 0.07900
C 	C 	0.46000 0.11950 0.83420 0.00500
H 	H 	0.49670 0.13720 0.86470 0.05000
C 	C 	0.45880 0.06940 0.84540 -0.04500
C 	C 	0.40290 0.04570 0.80300 0.01400
H 	H 	0.40000 0.01160 0.81220 0.02500
C 	C 	0.35130 0.06980 0.74810 -0.12600
H 	H 	0.31400 0.05240 0.71870 0.07400
C 	C 	0.51730 0.04230 0.89310 0.09900
C 	C 	0.56950 0.06590 0.95210 -0.15200
H 	H 	0.56630 0.09960 0.96500 0.09600
C 	C 	0.62530 0.04180 0.99200 0.07700
C 	C 	0.63030 0.99280 0.96720 -0.14700
H 	H 	0.66950 0.97630 0.98870 0.08000
C 	C 	0.57920 0.96790 0.91210 0.09600
C 	C 	0.52220 0.99290 0.87620 -0.15300
H 	H 	0.48670 0.97580 0.83990 0.08500
C 	C 	0.58340 0.91590 0.88390 -0.05600
C 	C 	0.63070 0.89950 0.84080 0.01500
H 	H 	0.66230 0.92170 0.83090 0.02400
C 	C 	0.63330 0.85140 0.81160 -0.13200
H 	H 	0.66640 0.84080 0.78280 0.07800
C 	C 	0.58670 0.81920 0.82530 0.13000
C 	C 	0.54030 0.83460 0.87170 -0.13100
H 	H 	0.50980 0.81210 0.88420 0.10000
C 	C 	0.53850 0.88260 0.89980 0.02200
H 	H 	0.50610 0.89310 0.93040 0.03200
C 	C 	0.59910 0.75720 0.70940 0.09500
H 	H 	0.60970 0.77920 0.66420 -0.00100
C 	C 	0.57810 0.69130 0.77770 0.01400
H 	H 	0.57170 0.65790 0.78960 0.02400
C 	C 	0.57210 0.72870 0.83860 -0.00600
H 	H 	0.56050 0.72670 0.89880 0.05100
C 	C 	0.06370 0.09120 0.56230 0.30000
C 	C 	0.03050 0.04370 0.52820 -0.13500
C 	C 	0.03360 0.00620 0.59440 0.03800
H 	H 	0.05710 0.00990 0.65880 0.02600
C 	C 	0.99860 0.03700 0.43590 0.07400
H 	H 	0.99810 0.06240 0.39060 0.02500
N 	N 	0.20490 0.16650 0.61010 -0.24500
N 	N 	0.30190 0.14570 0.67870 -0.14200
N 	N 	0.59460 0.70920 0.69720 -0.25200
N 	N 	0.58690 0.77030 0.79260 -0.14000
O 	O 	0.06100 0.12390 0.49890 -0.44200
O 	O 	0.09460 0.09650 0.64870 -0.34600
O 	O 	0.11130 0.23060 0.48650 -0.46700
O 	O 	0.03910 0.26560 0.35010 -0.47800
O 	O 	0.06410 0.30830 0.49990 -0.32200
O 	O 	0.00090 0.23510 0.48480 -0.39300
S 	S 	0.05220 0.26062 0.45725 0.69600
C 	C 	0.68870 0.06250 0.02930 0.01700
C 	C 	0.74810 0.05400 0.01060 -0.06000
H 	H 	0.75200 0.03350 0.95870 0.04600
C 	C 	0.80160 0.07540 0.06790 -0.02300
H 	H 	0.84210 0.06960 0.05510 0.04600
C 	C 	0.79580 0.10540 0.14380 -0.02500
C 	C 	0.73650 0.11390 0.16250 -0.00100
H 	H 	0.73250 0.13440 0.21440 0.02300
C 	C 	0.68300 0.09250 0.10520 -0.08500
H 	H 	0.64240 0.09830 0.11800 0.06200
N 	N 	0.93970 0.17230 0.24820 -0.27300
C 	C 	0.88330 0.16380 0.17520 0.09600
H 	H 	0.87050 0.18140 0.11680 -0.01100
N 	N 	0.84970 0.12420 0.20600 -0.09900
C 	C 	0.88530 0.10810 0.29800 0.12800
H 	H 	0.87390 0.08240 0.33520 -0.01400
C 	C 	0.94090 0.13780 0.32400 -0.03600
H 	H 	0.97300 0.13520 0.38150 0.04600
Co	Co	0.60911 0.67587 0.57897 1.15200
C 	C 	0.17760 0.56850 0.06420 -0.03100
C 	C 	0.18910 0.61730 0.04980 0.07100
H 	H 	0.16180 0.63490 0.99980 0.02300
C 	C 	0.24050 0.64056 0.10870 -0.15800
H 	H 	0.24840 0.67400 0.09890 0.08800
C 	C 	0.28050 0.61490 0.18200 0.15500
C 	C 	0.26900 0.56600 0.19640 -0.13800
H 	H 	0.29630 0.54840 0.24650 0.07700
C 	C 	0.21750 0.54277 0.13750 0.03100
H 	H 	0.20970 0.50940 0.14730 0.01700
N 	N 	0.42430 0.67960 0.27390 0.03000
C 	C 	0.37360 0.66860 0.20160 -0.02700
H 	H 	0.36600 0.68040 0.13750 0.00600
N 	N 	0.33550 0.63770 0.23730 -0.05600
C 	C 	0.36270 0.62960 0.33160 -0.11700
H 	H 	0.34630 0.60940 0.37420 0.06500
C 	C 	0.41760 0.65550 0.35420 -0.00800
H 	H 	0.44620 0.65660 0.41530 0.03000
C 	C 	0.74470 0.70210 0.59440 0.00600
H 	H 	0.73210 0.73060 0.55740 0.02500
C 	C 	0.80510 0.69120 0.63920 0.00000
H 	H 	0.84180 0.71070 0.64260 0.04900
C 	C 	0.74060 0.63370 0.66230 0.10500
H 	H 	0.72500 0.60490 0.68560 -0.00800
C 	C 	0.85470 0.61960 0.73660 0.11500
C 	C 	0.90840 0.64440 0.77930 -0.10200
H 	H 	0.91050 0.67860 0.77140 0.07800
C 	C 	0.96000 0.61950 0.83420 -0.01000
H 	H 	0.99670 0.63720 0.86470 0.06600
C 	C 	0.95880 0.56940 0.84540 -0.01500
C 	C 	0.90290 0.54570 0.80300 -0.00200
H 	H 	0.90000 0.51160 0.81220 0.03200
C 	C 	0.85130 0.56980 0.74810 -0.11400
H 	H 	0.81400 0.55240 0.71870 0.07000
C 	C 	0.01730 0.54230 0.89310 0.08400
C 	C 	0.06950 0.56590 0.95210 -0.15000
H 	H 	0.06630 0.59960 0.96500 0.08900
C 	C 	0.12530 0.54180 0.99200 0.08100
C 	C 	0.13030 0.49280 0.96720 -0.15700
H 	H 	0.16950 0.47630 0.98870 0.08300
C 	C 	0.07920 0.46790 0.91210 0.11200
C 	C 	0.02220 0.49290 0.87620 -0.19600
H 	H 	0.98670 0.47580 0.83990 0.11500
C 	C 	0.08340 0.41590 0.88390 -0.06700
C 	C 	0.13070 0.39950 0.84080 0.01900
H 	H 	0.16230 0.42170 0.83090 0.02200
C 	C 	0.13330 0.35140 0.81160 -0.13600
H 	H 	0.16640 0.34080 0.78280 0.07800
C 	C 	0.08670 0.31920 0.82530 0.12800
C 	C 	0.04030 0.33460 0.87170 -0.13600
H 	H 	0.00980 0.31210 0.88420 0.09100
C 	C 	0.03850 0.38260 0.89980 0.02500
H 	H 	0.00610 0.39310 0.93040 0.02200
C 	C 	0.09910 0.25720 0.70940 0.09100
H 	H 	0.10970 0.27920 0.66420 -0.00200
C 	C 	0.07810 0.19130 0.77770 0.01000
H 	H 	0.07170 0.15790 0.78960 0.02000
C 	C 	0.07210 0.22870 0.83860 -0.00800
H 	H 	0.06050 0.22670 0.89880 0.04600
C 	C 	0.56370 0.59120 0.56230 0.27700
C 	C 	0.53050 0.54370 0.52820 -0.05200
C 	C 	0.53360 0.50620 0.59440 -0.03100
H 	H 	0.55710 0.50990 0.65880 0.05200
C 	C 	0.49860 0.53700 0.43590 -0.02400
H 	H 	0.49810 0.56240 0.39060 0.04900
N 	N 	0.70490 0.66650 0.61010 -0.24500
N 	N 	0.80190 0.64570 0.67870 -0.14000
N 	N 	0.09460 0.20920 0.69720 -0.25300
N 	N 	0.08690 0.27030 0.79260 -0.14100
O 	O 	0.56100 0.62390 0.49890 -0.42700
O 	O 	0.59460 0.59650 0.64870 -0.33700
O 	O 	0.61130 0.73060 0.48650 -0.46600
O 	O 	0.53910 0.76560 0.35010 -0.46900
O 	O 	0.56410 0.80830 0.49990 -0.31200
O 	O 	0.50090 0.73510 0.48480 -0.37800
S 	S 	0.55220 0.76062 0.45725 0.69300
C 	C 	0.18870 0.56250 0.02930 0.02100
C 	C 	0.24810 0.55400 0.01060 -0.07400
H 	H 	0.25200 0.53350 0.95870 0.05200
C 	C 	0.30160 0.57540 0.06790 -0.01200
H 	H 	0.34210 0.56960 0.05510 0.04000
C 	C 	0.29580 0.60540 0.14380 -0.03500
C 	C 	0.23650 0.61390 0.16250 0.01500
H 	H 	0.23250 0.63440 0.21440 0.01700
C 	C 	0.18300 0.59250 0.10520 -0.09700
H 	H 	0.14240 0.59830 0.11800 0.06400
N 	N 	0.43970 0.67230 0.24820 -0.28300
C 	C 	0.38330 0.66380 0.17520 0.09600
H 	H 	0.37050 0.68140 0.11680 -0.01000
N 	N 	0.34970 0.62420 0.20600 -0.09700
C 	C 	0.38530 0.60810 0.29800 0.12500
H 	H 	0.37390 0.58240 0.33520 -0.01400
C 	C 	0.44090 0.63780 0.32400 -0.04100
H 	H 	0.47300 0.63520 0.38150 0.03800
Co	Co	0.89089 0.17587 0.92103 1.15200
C 	C 	0.32240 0.06850 0.43580 -0.02700
C 	C 	0.31090 0.11730 0.45020 0.06200
H 	H 	0.33820 0.13490 0.50020 0.02700
C 	C 	0.25950 0.14056 0.39130 -0.14800
H 	H 	0.25160 0.17400 0.40110 0.08400
C 	C 	0.21950 0.11490 0.31800 0.14700
C 	C 	0.23100 0.06600 0.30360 -0.13100
H 	H 	0.20370 0.04840 0.25350 0.07500
C 	C 	0.28250 0.04277 0.36250 0.02500
H 	H 	0.29030 0.00940 0.35270 0.01900
N 	N 	0.07570 0.17960 0.22610 0.03200
C 	C 	0.12640 0.16860 0.29840 -0.02900
H 	H 	0.13400 0.18040 0.36250 0.00500
N 	N 	0.16450 0.13770 0.26270 -0.05500
C 	C 	0.13730 0.12960 0.16840 -0.11400
H 	H 	0.15370 0.10940 0.12580 0.06300
C 	C 	0.08240 0.15550 0.14580 -0.00900
H 	H 	0.05380 0.15660 0.08470 0.02400
C 	C 	0.75530 0.20210 0.90560 0.00500
H 	H 	0.76790 0.23060 0.94260 0.02400
C 	C 	0.69490 0.19120 0.86080 -0.00000
H 	H 	0.65820 0.21070 0.85740 0.04800
C 	C 	0.75940 0.13370 0.83770 0.10500
H 	H 	0.77500 0.10490 0.81440 -0.00900
C 	C 	0.64530 0.11960 0.76340 0.12300
C 	C 	0.59160 0.14440 0.72070 -0.11600
H 	H 	0.58950 0.17860 0.72860 0.07900
C 	C 	0.54000 0.11950 0.66580 0.00600
H 	H 	0.50330 0.13720 0.63530 0.05000
C 	C 	0.54120 0.06940 0.65460 -0.04600
C 	C 	0.59710 0.04570 0.69700 0.01500
H 	H 	0.60000 0.01160 0.68780 0.02500
C 	C 	0.64870 0.06980 0.75190 -0.12600
H 	H 	0.68600 0.05240 0.78130 0.07400
C 	C 	0.48270 0.04230 0.60690 0.10100
C 	C 	0.43050 0.06590 0.54790 -0.15400
H 	H 	0.43370 0.09960 0.53500 0.09700
C 	C 	0.37470 0.04180 0.50800 0.08100
C 	C 	0.36970 0.99280 0.53280 -0.14900
H 	H 	0.33050 0.97630 0.51130 0.08100
C 	C 	0.42080 0.96790 0.58790 0.09800
C 	C 	0.47780 0.99290 0.62380 -0.15400
H 	H 	0.51330 0.97580 0.66010 0.08600
C 	C 	0.41660 0.91590 0.61610 -0.05600
C 	C 	0.36930 0.89950 0.65920 0.01500
H 	H 	0.33770 0.92170 0.66910 0.02400
C 	C 	0.36670 0.85140 0.68840 -0.13200
H 	H 	0.33360 0.84080 0.71720 0.07700
C 	C 	0.41330 0.81920 0.67470 0.13000
C 	C 	0.45970 0.83460 0.62830 -0.13100
H 	H 	0.49020 0.81210 0.61580 0.10000
C 	C 	0.46150 0.88260 0.60020 0.02200
H 	H 	0.49390 0.89310 0.56960 0.03200
C 	C 	0.40090 0.75720 0.79060 0.09500
H 	H 	0.39030 0.77920 0.83580 -0.00100
C 	C 	0.42190 0.69130 0.72230 0.01400
H 	H 	0.42830 0.65790 0.71040 0.02400
C 	C 	0.42790 0.72870 0.66140 -0.00600
H 	H 	0.43950 0.72670 0.60120 0.05200
C 	C 	0.93630 0.09120 0.93770 0.24900
C 	C 	0.96950 0.04370 0.97180 0.02600
C 	C 	0.96640 0.00620 0.90560 -0.09900
H 	H 	0.94290 0.00990 0.84120 0.07800
C 	C 	0.00140 0.03700 0.06410 -0.11700
H 	H 	0.00190 0.06240 0.10940 0.07000
N 	N 	0.79510 0.16650 0.88990 -0.24600
N 	N 	0.69810 0.14570 0.82130 -0.14200
N 	N 	0.40540 0.70920 0.80280 -0.25200
N 	N 	0.41310 0.77030 0.70740 -0.14000
O 	O 	0.93900 0.12390 0.00110 -0.40800
O 	O 	0.90540 0.09650 0.85130 -0.32800
O 	O 	0.88870 0.23060 0.01350 -0.46300
O 	O 	0.96090 0.26560 0.14990 -0.45500
O 	O 	0.93590 0.30830 0.00010 -0.30200
O 	O 	0.99910 0.23510 0.01520 -0.36000
S 	S 	0.94780 0.26062 0.04275 0.69000
C 	C 	0.31130 0.06250 0.47070 0.01700
C 	C 	0.25190 0.05400 0.48940 -0.06800
H 	H 	0.24800 0.03350 0.54130 0.05000
C 	C 	0.19840 0.07540 0.43210 -0.01800
H 	H 	0.15790 0.06960 0.44490 0.04100
C 	C 	0.20420 0.10540 0.35620 -0.02700
C 	C 	0.26350 0.11390 0.33750 0.00600
H 	H 	0.26750 0.13440 0.28560 0.02000
C 	C 	0.31700 0.09250 0.39480 -0.08800
H 	H 	0.35760 0.09830 0.38200 0.06300
N 	N 	0.06030 0.17230 0.25180 -0.29000
C 	C 	0.11670 0.16380 0.32480 0.09700
H 	H 	0.12950 0.18140 0.38320 -0.01000
N 	N 	0.15030 0.12420 0.29400 -0.09800
C 	C 	0.11470 0.10810 0.20200 0.12000
H 	H 	0.12610 0.08240 0.16480 -0.01300
C 	C 	0.05910 0.13780 0.17600 -0.04300
H 	H 	0.02700 0.13520 0.11850 0.03000
Co	Co	0.39089 0.67587 0.92103 1.15200
C 	C 	0.82240 0.56850 0.43580 -0.02800
C 	C 	0.81090 0.61730 0.45020 0.06200
H 	H 	0.83820 0.63490 0.50020 0.02700
C 	C 	0.75950 0.64056 0.39130 -0.14700
H 	H 	0.75160 0.67400 0.40110 0.08400
C 	C 	0.71950 0.61490 0.31800 0.14800
C 	C 	0.73100 0.56600 0.30360 -0.13100
H 	H 	0.70370 0.54840 0.25350 0.07500
C 	C 	0.78250 0.54277 0.36250 0.02500
H 	H 	0.79030 0.50940 0.35270 0.01900
N 	N 	0.57570 0.67960 0.22610 0.03100
C 	C 	0.62640 0.66860 0.29840 -0.02700
H 	H 	0.63400 0.68040 0.36250 0.00600
N 	N 	0.66450 0.63770 0.26270 -0.05500
C 	C 	0.63730 0.62960 0.16840 -0.11700
H 	H 	0.65370 0.60940 0.12580 0.06500
C 	C 	0.58240 0.65550 0.14580 -0.00900
H 	H 	0.55380 0.65660 0.08470 0.03000
C 	C 	0.25530 0.70210 0.90560 0.00500
H 	H 	0.26790 0.73060 0.94260 0.02500
C 	C 	0.19490 0.69120 0.86080 0.00100
H 	H 	0.15820 0.71070 0.85740 0.04700
C 	C 	0.25940 0.63370 0.83770 0.10600
H 	H 	0.27500 0.60490 0.81440 -0.00900
C 	C 	0.14530 0.61960 0.76340 0.13200
C 	C 	0.09160 0.64440 0.72070 -0.13200
H 	H 	0.08950 0.67860 0.72860 0.08100
C 	C 	0.04000 0.61950 0.66580 0.02400
H 	H 	0.00330 0.63720 0.63530 0.03200
C 	C 	0.04120 0.56940 0.65460 -0.07900
C 	C 	0.09710 0.54570 0.69700 0.03300
H 	H 	0.10000 0.51160 0.68780 0.01700
C 	C 	0.14870 0.56980 0.75190 -0.14000
H 	H 	0.18600 0.55240 0.78130 0.07800
C 	C 	0.98270 0.54230 0.60690 0.12100
C 	C 	0.93050 0.56590 0.54790 -0.15800
H 	H 	0.93370 0.59960 0.53500 0.10600
C 	C 	0.87470 0.54180 0.50800 0.08100
C 	C 	0.86970 0.49280 0.53280 -0.14300
H 	H 	0.83050 0.47630 0.51130 0.07900
C 	C 	0.92080 0.46790 0.58790 0.08300
C 	C 	0.97780 0.49290 0.62380 -0.11300
H 	H 	0.01330 0.47580 0.66010 0.05500
C 	C 	0.91660 0.41590 0.61610 -0.04500
C 	C 	0.86930 0.39950 0.65920 0.01100
H 	H 	0.83770 0.42170 0.66910 0.02500
C 	C 	0.86670 0.35140 0.68840 -0.12900
H 	H 	0.83360 0.34080 0.71720 0.07700
C 	C 	0.91330 0.31920 0.67470 0.13200
C 	C 	0.95970 0.33460 0.62830 -0.12600
H 	H 	0.99020 0.31210 0.61580 0.10800
C 	C 	0.96150 0.38260 0.60020 0.02000
H 	H 	0.99390 0.39310 0.56960 0.04200
C 	C 	0.90090 0.25720 0.79060 0.09900
H 	H 	0.89030 0.27920 0.83580 -0.00100
C 	C 	0.92190 0.19130 0.72230 0.01800
H 	H 	0.92830 0.15790 0.71040 0.02700
C 	C 	0.92790 0.22870 0.66140 -0.00300
H 	H 	0.93950 0.22670 0.60120 0.05800
C 	C 	0.43630 0.59120 0.93770 0.27700
C 	C 	0.46950 0.54370 0.97180 -0.05400
C 	C 	0.46640 0.50620 0.90560 -0.02900
H 	H 	0.44290 0.50990 0.84120 0.05200
C 	C 	0.50140 0.53700 0.06410 -0.02100
H 	H 	0.50190 0.56240 0.10940 0.04800
N 	N 	0.29510 0.66650 0.88990 -0.24600
N 	N 	0.19810 0.64570 0.82130 -0.14400
N 	N 	0.90540 0.20920 0.80280 -0.25100
N 	N 	0.91310 0.27030 0.70740 -0.13900
O 	O 	0.43900 0.62390 0.00110 -0.42700
O 	O 	0.40540 0.59650 0.85130 -0.33700
O 	O 	0.38870 0.73060 0.01350 -0.46600
O 	O 	0.46090 0.76560 0.14990 -0.46900
O 	O 	0.43590 0.80830 0.00010 -0.31200
O 	O 	0.49910 0.73510 0.01520 -0.37700
S 	S 	0.44780 0.76062 0.04275 0.69300
C 	C 	0.81130 0.56250 0.47070 0.01800
C 	C 	0.75190 0.55400 0.48940 -0.06800
H 	H 	0.74800 0.53350 0.54130 0.05000
C 	C 	0.69840 0.57540 0.43210 -0.01800
H 	H 	0.65790 0.56960 0.44490 0.04200
C 	C 	0.70420 0.60540 0.35620 -0.02800
C 	C 	0.76350 0.61390 0.33750 0.00500
H 	H 	0.76750 0.63440 0.28560 0.02100
C 	C 	0.81700 0.59250 0.39480 -0.08800
H 	H 	0.85760 0.59830 0.38200 0.06500
N 	N 	0.56030 0.67230 0.25180 -0.28400
C 	C 	0.61670 0.66380 0.32480 0.09600
H 	H 	0.62950 0.68140 0.38320 -0.01000
N 	N 	0.65030 0.62420 0.29400 -0.09800
C 	C 	0.61470 0.60810 0.20200 0.12500
H 	H 	0.62610 0.58240 0.16480 -0.01400
C 	C 	0.55910 0.63780 0.17600 -0.04000
H 	H 	0.52700 0.63520 0.11850 0.03800
Co	Co	0.89089 0.82413 0.42103 1.15300
C 	C 	0.32240 0.93150 0.93580 -0.02800
C 	C 	0.31090 0.88270 0.95020 0.06300
H 	H 	0.33820 0.86510 0.00020 0.02600
C 	C 	0.25950 0.85944 0.89130 -0.14900
H 	H 	0.25160 0.82600 0.90110 0.08500
C 	C 	0.21950 0.88510 0.81800 0.14800
C 	C 	0.23100 0.93400 0.80360 -0.13200
H 	H 	0.20370 0.95160 0.75350 0.07500
C 	C 	0.28250 0.95723 0.86250 0.02600
H 	H 	0.29030 0.99060 0.85270 0.01900
N 	N 	0.07570 0.82040 0.72610 0.03200
C 	C 	0.12640 0.83140 0.79840 -0.02800
H 	H 	0.13400 0.81960 0.86250 0.00500
N 	N 	0.16450 0.86230 0.76270 -0.05500
C 	C 	0.13730 0.87040 0.66840 -0.11400
H 	H 	0.15370 0.89060 0.62580 0.06300
C 	C 	0.08240 0.84450 0.64580 -0.00900
H 	H 	0.05380 0.84340 0.58470 0.02500
C 	C 	0.75530 0.79790 0.40560 0.00500
H 	H 	0.76790 0.76940 0.44260 0.02500
C 	C 	0.69490 0.80880 0.36080 0.00000
H 	H 	0.65820 0.78930 0.35740 0.04800
C 	C 	0.75940 0.86630 0.33770 0.10600
H 	H 	0.77500 0.89510 0.31440 -0.00800
C 	C 	0.64530 0.88040 0.26340 0.12300
C 	C 	0.59160 0.85560 0.22070 -0.11600
H 	H 	0.58950 0.82140 0.22860 0.07900
C 	C 	0.54000 0.88050 0.16580 0.00600
H 	H 	0.50330 0.86280 0.13530 0.05000
C 	C 	0.54120 0.93060 0.15460 -0.04500
C 	C 	0.59710 0.95430 0.19700 0.01400
H 	H 	0.60000 0.98840 0.18780 0.02500
C 	C 	0.64870 0.93020 0.25190 -0.12600
H 	H 	0.68600 0.94760 0.28130 0.07400
C 	C 	0.48270 0.95770 0.10690 0.10000
C 	C 	0.43050 0.93410 0.04790 -0.15300
H 	H 	0.43370 0.90040 0.03500 0.09700
C 	C 	0.37470 0.95820 0.00800 0.08000
C 	C 	0.36970 0.00720 0.03280 -0.14800
H 	H 	0.33050 0.02370 0.01130 0.08000
C 	C 	0.42080 0.03210 0.08790 0.09700
C 	C 	0.47780 0.00710 0.12380 -0.15400
H 	H 	0.51330 0.02420 0.16010 0.08500
C 	C 	0.41660 0.08410 0.11610 -0.05600
C 	C 	0.36930 0.10050 0.15920 0.01500
H 	H 	0.33770 0.07830 0.16910 0.02400
C 	C 	0.36670 0.14860 0.18840 -0.13200
H 	H 	0.33360 0.15920 0.21720 0.07700
C 	C 	0.41330 0.18080 0.17470 0.13000
C 	C 	0.45970 0.16540 0.12830 -0.13100
H 	H 	0.49020 0.18790 0.11580 0.10000
C 	C 	0.46150 0.11740 0.10020 0.02200
H 	H 	0.49390 0.10690 0.06960 0.03300
C 	C 	0.40090 0.24280 0.29060 0.09500
H 	H 	0.39030 0.22080 0.33580 -0.00100
C 	C 	0.42190 0.30870 0.22230 0.01400
H 	H 	0.42830 0.34210 0.21040 0.02400
C 	C 	0.42790 0.27130 0.16140 -0.00600
H 	H 	0.43950 0.27330 0.10120 0.05200
C 	C 	0.93630 0.90880 0.43770 0.25300
C 	C 	0.96950 0.95630 0.47180 0.03100
C 	C 	0.96640 0.99380 0.40560 -0.10100
H 	H 	0.94290 0.99010 0.34120 0.07900
C 	C 	0.00140 0.96300 0.56410 -0.12200
H 	H 	0.00190 0.93760 0.60940 0.07300
N 	N 	0.79510 0.83350 0.38990 -0.24600
N 	N 	0.69810 0.85430 0.32130 -0.14200
N 	N 	0.40540 0.29080 0.30280 -0.25200
N 	N 	0.41310 0.22970 0.20740 -0.14000
O 	O 	0.93900 0.87610 0.50110 -0.41200
O 	O 	0.90540 0.90350 0.35130 -0.32800
O 	O 	0.88870 0.76940 0.51350 -0.46400
O 	O 	0.96090 0.73440 0.64990 -0.45600
O 	O 	0.93590 0.69170 0.50010 -0.30300
O 	O 	0.99910 0.76490 0.51520 -0.36100
S 	S 	0.94780 0.73938 0.54275 0.69000
C 	C 	0.31130 0.93750 0.97070 0.01800
C 	C 	0.25190 0.94600 0.98940 -0.06800
H 	H 	0.24800 0.96650 0.04130 0.04900
C 	C 	0.19840 0.92460 0.93210 -0.01800
H 	H 	0.15790 0.93040 0.94490 0.04100
C 	C 	0.20420 0.89460 0.85620 -0.02800
C 	C 	0.26350 0.88610 0.83750 0.00700
H 	H 	0.26750 0.86560 0.78560 0.02000
C 	C 	0.31700 0.90750 0.89480 -0.08900
H 	H 	0.35760 0.90170 0.88200 0.06300
N 	N 	0.06030 0.82770 0.75180 -0.28900
C 	C 	0.11670 0.83620 0.82480 0.09700
H 	H 	0.12950 0.81860 0.88320 -0.01000
N 	N 	0.15030 0.87580 0.79400 -0.09800
C 	C 	0.11470 0.89190 0.70200 0.12000
H 	H 	0.12610 0.91760 0.66480 -0.01300
C 	C 	0.05910 0.86220 0.67600 -0.04200
H 	H 	0.02700 0.86480 0.61850 0.03000
Co	Co	0.39089 0.32413 0.42103 1.15200
C 	C 	0.82240 0.43150 0.93580 -0.03300
C 	C 	0.81090 0.38270 0.95020 0.07200
H 	H 	0.83820 0.36510 0.00020 0.02500
C 	C 	0.75950 0.35944 0.89130 -0.16300
H 	H 	0.75160 0.32600 0.90110 0.08900
C 	C 	0.71950 0.38510 0.81800 0.15700
C 	C 	0.73100 0.43400 0.80360 -0.14100
H 	H 	0.70370 0.45160 0.75350 0.07900
C 	C 	0.78250 0.45723 0.86250 0.03400
H 	H 	0.79030 0.49060 0.85270 0.01600
N 	N 	0.57570 0.32040 0.72610 0.03000
C 	C 	0.62640 0.33140 0.79840 -0.02700
H 	H 	0.63400 0.31960 0.86250 0.00600
N 	N 	0.66450 0.36230 0.76270 -0.05700
C 	C 	0.63730 0.37040 0.66840 -0.11700
H 	H 	0.65370 0.39060 0.62580 0.06500
C 	C 	0.58240 0.34450 0.64580 -0.00800
H 	H 	0.55380 0.34340 0.58470 0.03000
C 	C 	0.25530 0.29790 0.40560 0.00500
H 	H 	0.26790 0.26940 0.44260 0.02500
C 	C 	0.19490 0.30880 0.36080 0.00100
H 	H 	0.15820 0.28930 0.35740 0.04700
C 	C 	0.25940 0.36630 0.33770 0.10600
H 	H 	0.27500 0.39510 0.31440 -0.00900
C 	C 	0.14530 0.38040 0.26340 0.13300
C 	C 	0.09160 0.35560 0.22070 -0.13400
H 	H 	0.08950 0.32140 0.22860 0.08100
C 	C 	0.04000 0.38050 0.16580 0.02500
H 	H 	0.00330 0.36280 0.13530 0.03100
C 	C 	0.04120 0.43060 0.15460 -0.08200
C 	C 	0.09710 0.45430 0.19700 0.03500
H 	H 	0.10000 0.48840 0.18780 0.01600
C 	C 	0.14870 0.43020 0.25190 -0.14100
H 	H 	0.18600 0.44760 0.28130 0.07900
C 	C 	0.98270 0.45770 0.10690 0.12300
C 	C 	0.93050 0.43410 0.04790 -0.15800
H 	H 	0.93370 0.40040 0.03500 0.10700
C 	C 	0.87470 0.45820 0.00800 0.08200
C 	C 	0.86970 0.50720 0.03280 -0.14300
H 	H 	0.83050 0.52370 0.01130 0.07900
C 	C 	0.92080 0.53210 0.08790 0.08200
C 	C 	0.97780 0.50710 0.12380 -0.10900
H 	H 	0.01330 0.52420 0.16010 0.05200
C 	C 	0.91660 0.58410 0.11610 -0.04400
C 	C 	0.86930 0.60050 0.15920 0.01000
H 	H 	0.83770 0.57830 0.16910 0.02600
C 	C 	0.86670 0.64860 0.18840 -0.12800
H 	H 	0.83360 0.65920 0.21720 0.07700
C 	C 	0.91330 0.68080 0.17470 0.13300
C 	C 	0.95970 0.66540 0.12830 -0.12500
H 	H 	0.99020 0.68790 0.11580 0.10900
C 	C 	0.96150 0.61740 0.10020 0.02000
H 	H 	0.99390 0.60690 0.06960 0.04300
C 	C 	0.90090 0.74280 0.29060 0.09900
H 	H 	0.89030 0.72080 0.33580 -0.00100
C 	C 	0.92190 0.80870 0.22230 0.01800
H 	H 	0.92830 0.84210 0.21040 0.02800
C 	C 	0.92790 0.77130 0.16140 -0.00300
H 	H 	0.93950 0.77330 0.10120 0.05800
C 	C 	0.43630 0.40880 0.43770 0.27700
C 	C 	0.46950 0.45630 0.47180 -0.05200
C 	C 	0.46640 0.49380 0.40560 -0.03100
H 	H 	0.44290 0.49010 0.34120 0.05200
C 	C 	0.50140 0.46300 0.56410 -0.02400
H 	H 	0.50190 0.43760 0.60940 0.04900
N 	N 	0.29510 0.33350 0.38990 -0.24600
N 	N 	0.19810 0.35430 0.32130 -0.14400
N 	N 	0.90540 0.79080 0.30280 -0.25100
N 	N 	0.91310 0.72970 0.20740 -0.13800
O 	O 	0.43900 0.37610 0.50110 -0.42700
O 	O 	0.40540 0.40350 0.35130 -0.33700
O 	O 	0.38870 0.26940 0.51350 -0.46600
O 	O 	0.46090 0.23440 0.64990 -0.46900
O 	O 	0.43590 0.19170 0.50010 -0.31200
O 	O 	0.49910 0.26490 0.51520 -0.37800
S 	S 	0.44780 0.23938 0.54275 0.69300
C 	C 	0.81130 0.43750 0.97070 0.02500
C 	C 	0.75190 0.44600 0.98940 -0.08200
H 	H 	0.74800 0.46650 0.04130 0.05600
C 	C 	0.69840 0.42460 0.93210 -0.00600
H 	H 	0.65790 0.43040 0.94490 0.03800
C 	C 	0.70420 0.39460 0.85620 -0.04000
C 	C 	0.76350 0.38610 0.83750 0.02200
H 	H 	0.76750 0.36560 0.78560 0.01500
C 	C 	0.81700 0.40750 0.89480 -0.10300
H 	H 	0.85760 0.40170 0.88200 0.06800
N 	N 	0.56030 0.32770 0.75180 -0.28300
C 	C 	0.61670 0.33620 0.82480 0.09700
H 	H 	0.62950 0.31860 0.88320 -0.01000
N 	N 	0.65030 0.37580 0.79400 -0.09600
C 	C 	0.61470 0.39190 0.70200 0.12500
H 	H 	0.62610 0.41760 0.66480 -0.01400
C 	C 	0.55910 0.36220 0.67600 -0.04200
H 	H 	0.52700 0.36480 0.61850 0.03800
Co	Co	0.10911 0.82413 0.07897 1.15100
C 	C 	0.67760 0.93150 0.56420 -0.02900
C 	C 	0.68910 0.88270 0.54980 0.06700
H 	H 	0.66180 0.86510 0.49980 0.02500
C 	C 	0.74050 0.85944 0.60870 -0.15200
H 	H 	0.74840 0.82600 0.59890 0.08600
C 	C 	0.78050 0.88510 0.68200 0.15200
C 	C 	0.76900 0.93400 0.69640 -0.13400
H 	H 	0.79630 0.95160 0.74650 0.07700
C 	C 	0.71750 0.95723 0.63750 0.02800
H 	H 	0.70970 0.99060 0.64730 0.01800
N 	N 	0.92430 0.82040 0.77390 0.02700
C 	C 	0.87360 0.83140 0.70160 -0.02600
H 	H 	0.86600 0.81960 0.63750 0.00700
N 	N 	0.83550 0.86230 0.73730 -0.05600
C 	C 	0.86270 0.87040 0.83160 -0.11800
H 	H 	0.84630 0.89060 0.87420 0.06600
C 	C 	0.91760 0.84450 0.85420 -0.00900
H 	H 	0.94620 0.84340 0.91530 0.03500
C 	C 	0.24470 0.79790 0.09440 0.00500
H 	H 	0.23210 0.76940 0.05740 0.02500
C 	C 	0.30510 0.80880 0.13920 0.00000
H 	H 	0.34180 0.78930 0.14260 0.04800
C 	C 	0.24060 0.86630 0.16230 0.10600
H 	H 	0.22500 0.89510 0.18560 -0.00900
C 	C 	0.35470 0.88040 0.23660 0.12300
C 	C 	0.40840 0.85560 0.27930 -0.11600
H 	H 	0.41050 0.82140 0.27140 0.07900
C 	C 	0.46000 0.88050 0.33420 0.00600
H 	H 	0.49670 0.86280 0.36470 0.05000
C 	C 	0.45880 0.93060 0.34540 -0.04600
C 	C 	0.40290 0.95430 0.30300 0.01500
H 	H 	0.40000 0.98840 0.31220 0.02500
C 	C 	0.35130 0.93020 0.24810 -0.12600
H 	H 	0.31400 0.94760 0.21870 0.07400
C 	C 	0.51730 0.95770 0.39310 0.10100
C 	C 	0.56950 0.93410 0.45210 -0.15400
H 	H 	0.56630 0.90040 0.46500 0.09700
C 	C 	0.62530 0.95820 0.49200 0.08100
C 	C 	0.63030 0.00720 0.46720 -0.15000
H 	H 	0.66950 0.02370 0.48870 0.08100
C 	C 	0.57920 0.03210 0.41210 0.09800
C 	C 	0.52220 0.00710 0.37620 -0.15500
H 	H 	0.48670 0.02420 0.33990 0.08600
C 	C 	0.58340 0.08410 0.38390 -0.05600
C 	C 	0.63070 0.10050 0.34080 0.01500
H 	H 	0.66230 0.07830 0.33090 0.02400
C 	C 	0.63330 0.14860 0.31160 -0.13200
H 	H 	0.66640 0.15920 0.28280 0.07800
C 	C 	0.58670 0.18080 0.32530 0.13000
C 	C 	0.54030 0.16540 0.37170 -0.13100
H 	H 	0.50980 0.18790 0.38420 0.10000
C 	C 	0.53850 0.11740 0.39980 0.02200
H 	H 	0.50610 0.10690 0.43040 0.03200
C 	C 	0.59910 0.24280 0.20940 0.09500
H 	H 	0.60970 0.22080 0.16420 -0.00100
C 	C 	0.57810 0.30870 0.27770 0.01400
H 	H 	0.57170 0.34210 0.28960 0.02400
C 	C 	0.57210 0.27130 0.33860 -0.00600
H 	H 	0.56050 0.27330 0.39880 0.05200
C 	C 	0.06370 0.90880 0.06230 0.29700
C 	C 	0.03050 0.95630 0.02820 -0.13100
C 	C 	0.03360 0.99380 0.09440 0.03400
H 	H 	0.05710 0.99010 0.15880 0.02700
C 	C 	0.99860 0.96300 0.93590 0.06900
H 	H 	0.99810 0.93760 0.89060 0.02600
N 	N 	0.20490 0.83350 0.11010 -0.24600
N 	N 	0.30190 0.85430 0.17870 -0.14200
N 	N 	0.59460 0.29080 0.19720 -0.25200
N 	N 	0.58690 0.22970 0.29260 -0.14000
O 	O 	0.06100 0.87610 0.99890 -0.43900
O 	O 	0.09460 0.90350 0.14870 -0.34600
O 	O 	0.11130 0.76940 0.98650 -0.46600
O 	O 	0.03910 0.73440 0.85010 -0.47700
O 	O 	0.06410 0.69170 0.99990 -0.32100
O 	O 	0.00090 0.76490 0.98480 -0.39200
S 	S 	0.05220 0.73938 0.95725 0.69600
C 	C 	0.68870 0.93750 0.52930 0.01900
C 	C 	0.74810 0.94600 0.51060 -0.07000
H 	H 	0.75200 0.96650 0.45870 0.05100
C 	C 	0.80160 0.92460 0.56790 -0.01500
H 	H 	0.84210 0.93040 0.55510 0.04300
C 	C 	0.79580 0.89460 0.64380 -0.03100
C 	C 	0.73650 0.88610 0.66250 0.00900
H 	H 	0.73250 0.86560 0.71440 0.01900
C 	C 	0.68300 0.90750 0.60520 -0.09300
H 	H 	0.64240 0.90170 0.61800 0.06400
N 	N 	0.93970 0.82770 0.74820 -0.27300
C 	C 	0.88330 0.83620 0.67520 0.09600
H 	H 	0.87050 0.81860 0.61680 -0.01100
N 	N 	0.84970 0.87580 0.70600 -0.09800
C 	C 	0.88530 0.89190 0.79800 0.12800
H 	H 	0.87390 0.91760 0.83520 -0.01400
C 	C 	0.94090 0.86220 0.82400 -0.03700
H 	H 	0.97300 0.86480 0.88150 0.04500
Co	Co	0.60911 0.32413 0.07897 1.15300
C 	C 	0.17760 0.43150 0.56420 -0.02900
C 	C 	0.18910 0.38270 0.54980 0.06700
H 	H 	0.16180 0.36510 0.49980 0.02500
C 	C 	0.24050 0.35944 0.60870 -0.15300
H 	H 	0.24840 0.32600 0.59890 0.08600
C 	C 	0.28050 0.38510 0.68200 0.15100
C 	C 	0.26900 0.43400 0.69640 -0.13400
H 	H 	0.29630 0.45160 0.74650 0.07600
C 	C 	0.21750 0.45723 0.63750 0.02800
H 	H 	0.20970 0.49060 0.64730 0.01800
N 	N 	0.42430 0.32040 0.77390 0.03000
C 	C 	0.37360 0.33140 0.70160 -0.02700
H 	H 	0.36600 0.31960 0.63750 0.00600
N 	N 	0.33550 0.36230 0.73730 -0.05600
C 	C 	0.36270 0.37040 0.83160 -0.11700
H 	H 	0.34630 0.39060 0.87420 0.06500
C 	C 	0.41760 0.34450 0.85420 -0.00900
H 	H 	0.44620 0.34340 0.91530 0.03000
C 	C 	0.74470 0.29790 0.09440 0.00600
H 	H 	0.73210 0.26940 0.05740 0.02600
C 	C 	0.80510 0.30880 0.13920 0.00000
H 	H 	0.84180 0.28930 0.14260 0.04900
C 	C 	0.74060 0.36630 0.16230 0.10600
H 	H 	0.72500 0.39510 0.18560 -0.00800
C 	C 	0.85470 0.38040 0.23660 0.11400
C 	C 	0.90840 0.35560 0.27930 -0.10000
H 	H 	0.91050 0.32140 0.27140 0.07800
C 	C 	0.96000 0.38050 0.33420 -0.01100
H 	H 	0.99670 0.36280 0.36470 0.06800
C 	C 	0.95880 0.43060 0.34540 -0.01100
C 	C 	0.90290 0.45430 0.30300 -0.00400
H 	H 	0.90000 0.48840 0.31220 0.03300
C 	C 	0.85130 0.43020 0.24810 -0.11300
H 	H 	0.81400 0.44760 0.21870 0.06900
C 	C 	0.01730 0.45770 0.39310 0.08200
C 	C 	0.06950 0.43410 0.45210 -0.15000
H 	H 	0.06630 0.40040 0.46500 0.08800
C 	C 	0.12530 0.45820 0.49200 0.08100
C 	C 	0.13030 0.50720 0.46720 -0.15800
H 	H 	0.16950 0.52370 0.48870 0.08400
C 	C 	0.07920 0.53210 0.41210 0.11400
C 	C 	0.02220 0.50710 0.37620 -0.20000
H 	H 	0.98670 0.52420 0.33990 0.11900
C 	C 	0.08340 0.58410 0.38390 -0.06800
C 	C 	0.13070 0.60050 0.34080 0.02000
H 	H 	0.16230 0.57830 0.33090 0.02100
C 	C 	0.13330 0.64860 0.31160 -0.13600
H 	H 	0.16640 0.65920 0.28280 0.07900
C 	C 	0.08670 0.68080 0.32530 0.12800
C 	C 	0.04030 0.66540 0.37170 -0.13700
H 	H 	0.00980 0.68790 0.38420 0.09100
C 	C 	0.03850 0.61740 0.39980 0.02500
H 	H 	0.00610 0.60690 0.43040 0.02100
C 	C 	0.09910 0.74280 0.20940 0.09100
H 	H 	0.10970 0.72080 0.16420 -0.00300
C 	C 	0.07810 0.80870 0.27770 0.01000
H 	H 	0.07170 0.84210 0.28960 0.02000
C 	C 	0.07210 0.77130 0.33860 -0.00900
H 	H 	0.06050 0.77330 0.39880 0.04600
C 	C 	0.56370 0.40880 0.06230 0.27800
C 	C 	0.53050 0.45630 0.02820 -0.04900
C 	C 	0.53360 0.49380 0.09440 -0.03300
H 	H 	0.55710 0.49010 0.15880 0.05300
C 	C 	0.49860 0.46300 0.93590 -0.02800
H 	H 	0.49810 0.43760 0.89060 0.05000
N 	N 	0.70490 0.33350 0.11010 -0.24500
N 	N 	0.80190 0.35430 0.17870 -0.14000
N 	N 	0.09460 0.79080 0.19720 -0.25300
N 	N 	0.08690 0.72970 0.29260 -0.14100
O 	O 	0.56100 0.37610 0.99890 -0.42800
O 	O 	0.59460 0.40350 0.14870 -0.33700
O 	O 	0.61130 0.26940 0.98650 -0.46700
O 	O 	0.53910 0.23440 0.85010 -0.46900
O 	O 	0.56410 0.19170 0.99990 -0.31300
O 	O 	0.50090 0.26490 0.98480 -0.37800
S 	S 	0.55220 0.23938 0.95725 0.69400
C 	C 	0.18870 0.43750 0.52930 0.01900
C 	C 	0.24810 0.44600 0.51060 -0.07000
H 	H 	0.25200 0.46650 0.45870 0.05100
C 	C 	0.30160 0.42460 0.56790 -0.01600
H 	H 	0.34210 0.43040 0.55510 0.04100
C 	C 	0.29580 0.39460 0.64380 -0.03100
C 	C 	0.23650 0.38610 0.66250 0.01000
H 	H 	0.23250 0.36560 0.71440 0.01900
C 	C 	0.18300 0.40750 0.60520 -0.09200
H 	H 	0.14240 0.40170 0.61800 0.06200
N 	N 	0.43970 0.32770 0.74820 -0.28400
C 	C 	0.38330 0.33620 0.67520 0.09600
H 	H 	0.37050 0.31860 0.61680 -0.01000
N 	N 	0.34970 0.37580 0.70600 -0.09800
C 	C 	0.38530 0.39190 0.79800 0.12500
H 	H 	0.37390 0.41760 0.83520 -0.01400
C 	C 	0.44090 0.36220 0.82400 -0.04100
H 	H 	0.47300 0.36480 0.88150 0.03800
Co	Co	0.00000 0.21984 0.25000 1.15700
Co	Co	0.50000 0.71984 0.25000 1.17000
Co	Co	0.00000 0.78016 0.75000 1.15800
Co	Co	0.50000 0.28016 0.75000 1.17000
