data_crystal

_cell_length_a 9.61160
_cell_length_b 9.61160
_cell_length_c 15.54800
_cell_angle_alpha 92.93020
_cell_angle_beta  92.93020
_cell_angle_gamma 99.07450

_symmetry_space_group_name_	'P 1'
_symmetry_space_group_name_H-M	'P 1'

loop_
_symmetry_equiv_pos_as_xyz
  x,y,z

loop_
_atom_site_label
_atom_site_type_symbol
_atom_site_fract_x
_atom_site_fract_y
_atom_site_fract_z
_atom_site_charge
Dy	Dy	0.01085 0.98915 0.75000 1.44900
Dy	Dy	0.98915 0.01085 0.25000 1.44900
P 	P 	0.35393 0.04483 0.64557 0.37600
P 	P 	0.65150 0.97608 0.65429 0.38500
P 	P 	0.95517 0.64607 0.85443 0.37600
P 	P 	0.02392 0.34850 0.84571 0.38700
P 	P 	0.64607 0.95517 0.35443 0.37700
P 	P 	0.34850 0.02392 0.34571 0.38600
P 	P 	0.04483 0.35393 0.14557 0.37600
P 	P 	0.97608 0.65150 0.15429 0.38700
H 	H 	0.47520 0.16080 0.81470 0.16100
H 	H 	0.63430 0.13110 0.81490 0.15700
H 	H 	0.57790 0.22830 0.74470 0.14600
H 	H 	0.42200 0.82400 0.73000 0.16900
H 	H 	0.83920 0.52480 0.68530 0.16000
H 	H 	0.86890 0.36570 0.68510 0.15600
H 	H 	0.77170 0.42210 0.75530 0.14600
H 	H 	0.17600 0.57800 0.77000 0.16900
H 	H 	0.52480 0.83920 0.18530 0.16100
H 	H 	0.36570 0.86890 0.18510 0.15700
H 	H 	0.42210 0.77170 0.25530 0.14600
H 	H 	0.57800 0.17600 0.27000 0.16900
H 	H 	0.16080 0.47520 0.31470 0.16000
H 	H 	0.13110 0.63430 0.31490 0.15600
H 	H 	0.22830 0.57790 0.24470 0.14600
H 	H 	0.82400 0.42200 0.23000 0.16900
Ru	Ru	0.54552 0.12160 0.50202 0.89200
Ru	Ru	0.87840 0.45448 0.99798 0.89100
Ru	Ru	0.45448 0.87840 0.49798 0.89200
Ru	Ru	0.12160 0.54552 0.00202 0.89100
C 	C 	0.50630 0.01910 0.71890 0.05600
C 	C 	0.55240 0.14560 0.77840 -0.41900
C 	C 	0.98090 0.49370 0.78110 0.05400
C 	C 	0.85440 0.44760 0.72160 -0.41700
C 	C 	0.49370 0.98090 0.28110 0.05600
C 	C 	0.44760 0.85440 0.22160 -0.41900
C 	C 	0.01910 0.50630 0.21890 0.05400
C 	C 	0.14560 0.55240 0.27840 -0.41700
O 	O 	0.40840 0.16840 0.58940 -0.37500
O 	O 	0.31000 0.90920 0.58630 -0.39900
O 	O 	0.23420 0.07580 0.69990 -0.38600
O 	O 	0.69190 0.10390 0.59860 -0.40100
O 	O 	0.59530 0.84310 0.59460 -0.37500
O 	O 	0.77220 0.95440 0.71440 -0.40200
O 	O 	0.44960 0.89960 0.76780 -0.31000
O 	O 	0.83160 0.59160 0.91060 -0.37600
O 	O 	0.09080 0.69000 0.91370 -0.39900
O 	O 	0.92420 0.76580 0.80010 -0.38700
O 	O 	0.89610 0.30810 0.90140 -0.40100
O 	O 	0.15690 0.40470 0.90540 -0.37500
O 	O 	0.04560 0.22780 0.78560 -0.40100
O 	O 	0.10040 0.55040 0.73220 -0.30800
O 	O 	0.59160 0.83160 0.41060 -0.37500
O 	O 	0.69000 0.09080 0.41370 -0.39900
O 	O 	0.76580 0.92420 0.30010 -0.38600
O 	O 	0.30810 0.89610 0.40140 -0.40100
O 	O 	0.40470 0.15690 0.40540 -0.37500
O 	O 	0.22780 0.04560 0.28560 -0.40200
O 	O 	0.55040 0.10040 0.23220 -0.31000
O 	O 	0.16840 0.40840 0.08940 -0.37600
O 	O 	0.90920 0.31000 0.08630 -0.39900
O 	O 	0.07580 0.23420 0.19990 -0.38700
O 	O 	0.10390 0.69190 0.09860 -0.40100
O 	O 	0.84310 0.59530 0.09460 -0.37500
O 	O 	0.95440 0.77220 0.21440 -0.40100
O 	O 	0.89960 0.44960 0.26780 -0.30800
