data_crystal

_cell_length_a 9.69210
_cell_length_b 9.69210
_cell_length_c 15.69380
_cell_angle_alpha 92.70170
_cell_angle_beta  92.70170
_cell_angle_gamma 99.01960

_symmetry_space_group_name_	'P 1'
_symmetry_space_group_name_H-M	'P 1'

loop_
_symmetry_equiv_pos_as_xyz
  x,y,z

loop_
_atom_site_label
_atom_site_type_symbol
_atom_site_fract_x
_atom_site_fract_y
_atom_site_fract_z
_atom_site_charge
Ce	Ce	0.01140 0.98860 0.75000 2.05700
Ce	Ce	0.98860 0.01140 0.25000 2.05700
P 	P 	0.35642 0.04528 0.64390 0.39200
P 	P 	0.64866 0.97408 0.65165 0.39000
P 	P 	0.95472 0.64358 0.85610 0.39100
P 	P 	0.02592 0.35134 0.84835 0.38900
P 	P 	0.64358 0.95472 0.35610 0.39100
P 	P 	0.35134 0.02592 0.34835 0.38900
P 	P 	0.04528 0.35642 0.14390 0.39100
P 	P 	0.97408 0.64866 0.15165 0.38900
H 	H 	0.47820 0.16000 0.81170 0.13600
H 	H 	0.63490 0.12710 0.81070 0.12500
H 	H 	0.58030 0.22510 0.74160 0.13000
H 	H 	0.50800 0.82400 0.77100 0.14600
H 	H 	0.84000 0.52180 0.68830 0.13600
H 	H 	0.87290 0.36510 0.68930 0.12400
H 	H 	0.77490 0.41970 0.75840 0.13000
H 	H 	0.17600 0.49200 0.72900 0.14600
H 	H 	0.52180 0.84000 0.18830 0.13600
H 	H 	0.36510 0.87290 0.18930 0.12500
H 	H 	0.41970 0.77490 0.25840 0.13000
H 	H 	0.49200 0.17600 0.22900 0.14600
H 	H 	0.16000 0.47820 0.31170 0.13600
H 	H 	0.12710 0.63490 0.31070 0.12400
H 	H 	0.22510 0.58030 0.24160 0.13000
H 	H 	0.82400 0.50800 0.27100 0.14600
Ru	Ru	0.54622 0.12006 0.50207 0.89500
Ru	Ru	0.87994 0.45378 0.99793 0.89500
Ru	Ru	0.45378 0.87994 0.49793 0.89500
Ru	Ru	0.12006 0.54622 0.00207 0.89500
C 	C 	0.50400 0.01520 0.71500 0.03200
C 	C 	0.55380 0.14320 0.77510 -0.37700
C 	C 	0.98480 0.49600 0.78500 0.03000
C 	C 	0.85680 0.44620 0.72490 -0.37500
C 	C 	0.49600 0.98480 0.28500 0.03200
C 	C 	0.44620 0.85680 0.22490 -0.37700
C 	C 	0.01520 0.50400 0.21500 0.03000
C 	C 	0.14320 0.55380 0.27510 -0.37500
O 	O 	0.41107 0.16807 0.58909 -0.38600
O 	O 	0.31164 0.91088 0.58536 -0.41900
O 	O 	0.24016 0.07722 0.69762 -0.48300
O 	O 	0.69003 0.10125 0.59716 -0.42400
O 	O 	0.59229 0.84389 0.59246 -0.38500
O 	O 	0.76781 0.95005 0.71076 -0.50200
O 	O 	0.44983 0.89857 0.76433 -0.29600
O 	O 	0.83193 0.58893 0.91091 -0.38600
O 	O 	0.08912 0.68836 0.91464 -0.42100
O 	O 	0.92278 0.75984 0.80238 -0.48400
O 	O 	0.89875 0.30997 0.90284 -0.42300
O 	O 	0.15611 0.40771 0.90754 -0.38600
O 	O 	0.04995 0.23219 0.78924 -0.50200
O 	O 	0.10143 0.55017 0.73567 -0.29400
O 	O 	0.58893 0.83193 0.41091 -0.38600
O 	O 	0.68836 0.08912 0.41464 -0.41900
O 	O 	0.75984 0.92278 0.30238 -0.48300
O 	O 	0.30997 0.89875 0.40284 -0.42400
O 	O 	0.40771 0.15611 0.40754 -0.38500
O 	O 	0.23219 0.04995 0.28924 -0.50200
O 	O 	0.55017 0.10143 0.23567 -0.29600
O 	O 	0.16807 0.41107 0.08909 -0.38600
O 	O 	0.91088 0.31164 0.08536 -0.42100
O 	O 	0.07722 0.24016 0.19762 -0.48400
O 	O 	0.10125 0.69003 0.09716 -0.42300
O 	O 	0.84389 0.59229 0.09246 -0.38600
O 	O 	0.95005 0.76781 0.21076 -0.50200
O 	O 	0.89857 0.44983 0.26433 -0.29400
