data_crystal

_cell_length_a 9.58990
_cell_length_b 9.58990
_cell_length_c 15.52400
_cell_angle_alpha 92.91920
_cell_angle_beta  92.91920
_cell_angle_gamma 98.98660

_symmetry_space_group_name_	'P 1'
_symmetry_space_group_name_H-M	'P 1'

loop_
_symmetry_equiv_pos_as_xyz
  x,y,z

loop_
_atom_site_label
_atom_site_type_symbol
_atom_site_fract_x
_atom_site_fract_y
_atom_site_fract_z
_atom_site_charge
Tb	Tb	0.01103 0.98897 0.75000 1.50000
Tb	Tb	0.98897 0.01103 0.25000 1.50000
P 	P 	0.35450 0.04476 0.64540 0.38800
P 	P 	0.65136 0.97710 0.65365 0.39300
P 	P 	0.95524 0.64550 0.85460 0.38800
P 	P 	0.02290 0.34864 0.84635 0.39400
P 	P 	0.64550 0.95524 0.35460 0.38800
P 	P 	0.34864 0.02290 0.34635 0.39300
P 	P 	0.04476 0.35450 0.14540 0.38800
P 	P 	0.97710 0.65136 0.15365 0.39400
H 	H 	0.42160 0.83080 0.73270 0.20000
H 	H 	0.47830 0.15250 0.81910 0.15600
H 	H 	0.63950 0.13050 0.81260 0.15100
H 	H 	0.57140 0.22820 0.74700 0.14200
H 	H 	0.16920 0.57840 0.76730 0.19900
H 	H 	0.84750 0.52170 0.68090 0.15500
H 	H 	0.86950 0.36050 0.68740 0.15000
H 	H 	0.77180 0.42860 0.75300 0.14100
H 	H 	0.57840 0.16920 0.26730 0.20000
H 	H 	0.52170 0.84750 0.18090 0.15600
H 	H 	0.36050 0.86950 0.18740 0.15100
H 	H 	0.42860 0.77180 0.25300 0.14200
H 	H 	0.83080 0.42160 0.23270 0.19900
H 	H 	0.15250 0.47830 0.31910 0.15500
H 	H 	0.13050 0.63950 0.31260 0.15000
H 	H 	0.22820 0.57140 0.24700 0.14100
Ru	Ru	0.54526 0.12112 0.50205 0.89600
Ru	Ru	0.87888 0.45474 0.99795 0.89600
Ru	Ru	0.45474 0.87888 0.49795 0.89600
Ru	Ru	0.12112 0.54526 0.00205 0.89600
C 	C 	0.50600 0.01480 0.71700 0.05100
C 	C 	0.55300 0.14280 0.77950 -0.40000
C 	C 	0.98520 0.49400 0.78300 0.04800
C 	C 	0.85720 0.44700 0.72050 -0.39800
C 	C 	0.49400 0.98520 0.28300 0.05100
C 	C 	0.44700 0.85720 0.22050 -0.40000
C 	C 	0.01480 0.50600 0.21700 0.04800
C 	C 	0.14280 0.55300 0.27950 -0.39800
O 	O 	0.40870 0.16770 0.58974 -0.38000
O 	O 	0.31090 0.90750 0.58600 -0.40400
O 	O 	0.23610 0.07490 0.69820 -0.39700
O 	O 	0.69130 0.10550 0.59890 -0.40400
O 	O 	0.59450 0.84410 0.59330 -0.38100
O 	O 	0.77310 0.95510 0.71258 -0.41400
O 	O 	0.45180 0.90120 0.76756 -0.34600
O 	O 	0.83230 0.59130 0.91026 -0.38000
O 	O 	0.09250 0.68910 0.91400 -0.40400
O 	O 	0.92510 0.76390 0.80180 -0.39800
O 	O 	0.89450 0.30870 0.90110 -0.40400
O 	O 	0.15590 0.40550 0.90670 -0.38100
O 	O 	0.04490 0.22690 0.78742 -0.41300
O 	O 	0.09880 0.54820 0.73244 -0.34400
O 	O 	0.59130 0.83230 0.41026 -0.38000
O 	O 	0.68910 0.09250 0.41400 -0.40400
O 	O 	0.76390 0.92510 0.30180 -0.39700
O 	O 	0.30870 0.89450 0.40110 -0.40400
O 	O 	0.40550 0.15590 0.40670 -0.38100
O 	O 	0.22690 0.04490 0.28742 -0.41400
O 	O 	0.54820 0.09880 0.23244 -0.34600
O 	O 	0.16770 0.40870 0.08974 -0.38000
O 	O 	0.90750 0.31090 0.08600 -0.40400
O 	O 	0.07490 0.23610 0.19820 -0.39800
O 	O 	0.10550 0.69130 0.09890 -0.40400
O 	O 	0.84410 0.59450 0.09330 -0.38100
O 	O 	0.95510 0.77310 0.21258 -0.41300
O 	O 	0.90120 0.45180 0.26756 -0.34400
