data_crystal

_cell_length_a 9.55150
_cell_length_b 9.55150
_cell_length_c 15.39000
_cell_angle_alpha 92.71050
_cell_angle_beta  92.71050
_cell_angle_gamma 98.29970

_symmetry_space_group_name_	'P 1'
_symmetry_space_group_name_H-M	'P 1'

loop_
_symmetry_equiv_pos_as_xyz
  x,y,z

loop_
_atom_site_label
_atom_site_type_symbol
_atom_site_fract_x
_atom_site_fract_y
_atom_site_fract_z
_atom_site_charge
Ho	Ho	0.00995 0.99005 0.75000 1.42800
Ho	Ho	0.99005 0.00995 0.25000 1.42800
P 	P 	0.35318 0.04408 0.64512 0.40300
P 	P 	0.65288 0.97686 0.65454 0.39700
P 	P 	0.95592 0.64682 0.85488 0.40200
P 	P 	0.02314 0.34712 0.84546 0.39800
P 	P 	0.64682 0.95592 0.35488 0.40300
P 	P 	0.34712 0.02314 0.34546 0.39700
P 	P 	0.04408 0.35318 0.14512 0.40200
P 	P 	0.97686 0.65288 0.15454 0.39800
H 	H 	0.42470 0.83110 0.73560 0.19700
H 	H 	0.47140 0.16600 0.81340 0.15400
H 	H 	0.62830 0.12570 0.81810 0.15100
H 	H 	0.58380 0.22940 0.74640 0.13700
H 	H 	0.16890 0.57530 0.76440 0.19700
H 	H 	0.83400 0.52860 0.68660 0.15300
H 	H 	0.87430 0.37170 0.68190 0.15000
H 	H 	0.77060 0.41620 0.75360 0.13600
H 	H 	0.57530 0.16890 0.26440 0.19700
H 	H 	0.52860 0.83400 0.18660 0.15400
H 	H 	0.37170 0.87430 0.18190 0.15100
H 	H 	0.41620 0.77060 0.25360 0.13700
H 	H 	0.83110 0.42470 0.23560 0.19700
H 	H 	0.16600 0.47140 0.31340 0.15300
H 	H 	0.12570 0.62830 0.31810 0.15000
H 	H 	0.22940 0.58380 0.24640 0.13600
Ru	Ru	0.54530 0.12146 0.50194 0.90200
Ru	Ru	0.87854 0.45470 0.99806 0.90200
Ru	Ru	0.45470 0.87854 0.49806 0.90200
Ru	Ru	0.12146 0.54530 0.00194 0.90200
C 	C 	0.50310 0.02070 0.71630 0.03100
C 	C 	0.55090 0.14650 0.77900 -0.38800
C 	C 	0.97930 0.49690 0.78370 0.02900
C 	C 	0.85350 0.44910 0.72100 -0.38600
C 	C 	0.49690 0.97930 0.28370 0.03100
C 	C 	0.44910 0.85350 0.22100 -0.38800
C 	C 	0.02070 0.50310 0.21630 0.02900
C 	C 	0.14650 0.55090 0.27900 -0.38600
O 	O 	0.40480 0.16480 0.58680 -0.38600
O 	O 	0.30810 0.90970 0.58620 -0.40200
O 	O 	0.23330 0.07150 0.69790 -0.39100
O 	O 	0.69270 0.10550 0.59810 -0.40200
O 	O 	0.59550 0.84410 0.59360 -0.37900
O 	O 	0.77150 0.95230 0.71410 -0.40300
O 	O 	0.45500 0.90160 0.77050 -0.33400
O 	O 	0.83520 0.59520 0.91320 -0.38600
O 	O 	0.09030 0.69190 0.91380 -0.40200
O 	O 	0.92850 0.76670 0.80210 -0.39200
O 	O 	0.89450 0.30730 0.90190 -0.40300
O 	O 	0.15590 0.40450 0.90640 -0.37900
O 	O 	0.04770 0.22850 0.78590 -0.40200
O 	O 	0.09840 0.54500 0.72950 -0.33200
O 	O 	0.59520 0.83520 0.41320 -0.38600
O 	O 	0.69190 0.09030 0.41380 -0.40200
O 	O 	0.76670 0.92850 0.30210 -0.39100
O 	O 	0.30730 0.89450 0.40190 -0.40200
O 	O 	0.40450 0.15590 0.40640 -0.37900
O 	O 	0.22850 0.04770 0.28590 -0.40300
O 	O 	0.54500 0.09840 0.22950 -0.33400
O 	O 	0.16480 0.40480 0.08680 -0.38600
O 	O 	0.90970 0.30810 0.08620 -0.40200
O 	O 	0.07150 0.23330 0.19790 -0.39200
O 	O 	0.10550 0.69270 0.09810 -0.40300
O 	O 	0.84410 0.59550 0.09360 -0.37900
O 	O 	0.95230 0.77150 0.21410 -0.40200
O 	O 	0.90160 0.45500 0.27050 -0.33200
