data_crystal

_cell_length_a 9.72000
_cell_length_b 9.72000
_cell_length_c 15.72620
_cell_angle_alpha 92.74140
_cell_angle_beta  92.74140
_cell_angle_gamma 99.08600

_symmetry_space_group_name_	'P 1'
_symmetry_space_group_name_H-M	'P 1'

loop_
_symmetry_equiv_pos_as_xyz
  x,y,z

loop_
_atom_site_label
_atom_site_type_symbol
_atom_site_fract_x
_atom_site_fract_y
_atom_site_fract_z
_atom_site_charge
La	La	0.01171 0.98829 0.75000 1.51800
La	La	0.98829 0.01171 0.25000 1.51800
P 	P 	0.35714 0.04578 0.64359 0.37900
P 	P 	0.64810 0.97366 0.65131 0.37800
P 	P 	0.95422 0.64286 0.85641 0.37900
P 	P 	0.02634 0.35190 0.84869 0.37900
P 	P 	0.64286 0.95422 0.35641 0.37900
P 	P 	0.35190 0.02634 0.34869 0.37800
P 	P 	0.04578 0.35714 0.14359 0.37900
P 	P 	0.97366 0.64810 0.15131 0.37900
H 	H 	0.47880 0.15960 0.81110 0.14800
H 	H 	0.63470 0.12610 0.81060 0.14000
H 	H 	0.58150 0.22450 0.74160 0.13700
H 	H 	0.51100 0.82100 0.76300 0.13800
H 	H 	0.84040 0.52120 0.68890 0.14800
H 	H 	0.87390 0.36530 0.68940 0.13900
H 	H 	0.77550 0.41850 0.75840 0.13700
H 	H 	0.17900 0.48900 0.73700 0.13800
H 	H 	0.52120 0.84040 0.18890 0.14800
H 	H 	0.36530 0.87390 0.18940 0.14000
H 	H 	0.41850 0.77550 0.25840 0.13700
H 	H 	0.48900 0.17900 0.23700 0.13800
H 	H 	0.15960 0.47880 0.31110 0.14800
H 	H 	0.12610 0.63470 0.31060 0.13900
H 	H 	0.22450 0.58150 0.24160 0.13700
H 	H 	0.82100 0.51100 0.26300 0.13800
Ru	Ru	0.54646 0.11972 0.50209 0.89600
Ru	Ru	0.88028 0.45354 0.99791 0.89600
Ru	Ru	0.45354 0.88028 0.49791 0.89600
Ru	Ru	0.11972 0.54646 0.00209 0.89600
C 	C 	0.50419 0.01501 0.71435 0.03300
C 	C 	0.55427 0.14273 0.77486 -0.39100
C 	C 	0.98499 0.49581 0.78565 0.03100
C 	C 	0.85727 0.44573 0.72514 -0.39000
C 	C 	0.49581 0.98499 0.28565 0.03300
C 	C 	0.44573 0.85727 0.22514 -0.39100
C 	C 	0.01501 0.50419 0.21435 0.03100
C 	C 	0.14273 0.55427 0.27486 -0.39000
O 	O 	0.41187 0.16827 0.58897 -0.37800
O 	O 	0.31161 0.91155 0.58512 -0.39700
O 	O 	0.24148 0.07834 0.69730 -0.38500
O 	O 	0.68985 0.10061 0.59704 -0.40600
O 	O 	0.59164 0.84398 0.59211 -0.37800
O 	O 	0.76628 0.94954 0.71056 -0.40300
O 	O 	0.45009 0.89809 0.76346 -0.27000
O 	O 	0.83173 0.58813 0.91103 -0.37800
O 	O 	0.08845 0.68839 0.91488 -0.39700
O 	O 	0.92166 0.75852 0.80270 -0.38600
O 	O 	0.89939 0.31015 0.90296 -0.40600
O 	O 	0.15602 0.40836 0.90789 -0.37800
O 	O 	0.05046 0.23372 0.78944 -0.40200
O 	O 	0.10191 0.54991 0.73654 -0.26900
O 	O 	0.58813 0.83173 0.41103 -0.37800
O 	O 	0.68839 0.08845 0.41488 -0.39700
O 	O 	0.75852 0.92166 0.30270 -0.38500
O 	O 	0.31015 0.89939 0.40296 -0.40600
O 	O 	0.40836 0.15602 0.40789 -0.37800
O 	O 	0.23372 0.05046 0.28944 -0.40300
O 	O 	0.54991 0.10191 0.23654 -0.27000
O 	O 	0.16827 0.41187 0.08897 -0.37800
O 	O 	0.91155 0.31161 0.08512 -0.39700
O 	O 	0.07834 0.24148 0.19730 -0.38600
O 	O 	0.10061 0.68985 0.09704 -0.40600
O 	O 	0.84398 0.59164 0.09211 -0.37800
O 	O 	0.94954 0.76628 0.21056 -0.40200
O 	O 	0.89809 0.45009 0.26346 -0.26900
