data_crystal

_cell_length_a 9.66020
_cell_length_b 9.66020
_cell_length_c 15.62500
_cell_angle_alpha 92.90530
_cell_angle_beta  92.90530
_cell_angle_gamma 99.10620

_symmetry_space_group_name_	'P 1'
_symmetry_space_group_name_H-M	'P 1'

loop_
_symmetry_equiv_pos_as_xyz
  x,y,z

loop_
_atom_site_label
_atom_site_type_symbol
_atom_site_fract_x
_atom_site_fract_y
_atom_site_fract_z
_atom_site_charge
Nd	Nd	0.01135 0.98865 0.75000 1.77100
Nd	Nd	0.98865 0.01135 0.25000 1.77100
P 	P 	0.35531 0.04489 0.64424 0.38200
P 	P 	0.65005 0.97491 0.65262 0.40300
P 	P 	0.95511 0.64469 0.85576 0.38200
P 	P 	0.02509 0.34995 0.84738 0.40400
P 	P 	0.64469 0.95511 0.35576 0.38200
P 	P 	0.34995 0.02509 0.34738 0.40300
P 	P 	0.04489 0.35531 0.14424 0.38200
P 	P 	0.97491 0.65005 0.15262 0.40400
H 	H 	0.47860 0.15460 0.81630 0.14300
H 	H 	0.63770 0.12850 0.81210 0.13600
H 	H 	0.57540 0.22660 0.74550 0.13200
H 	H 	0.41900 0.82500 0.73200 0.18200
H 	H 	0.84540 0.52140 0.68370 0.14200
H 	H 	0.87150 0.36230 0.68790 0.13500
H 	H 	0.77340 0.42460 0.75450 0.13200
H 	H 	0.17500 0.58100 0.76800 0.18200
H 	H 	0.52140 0.84540 0.18370 0.14300
H 	H 	0.36230 0.87150 0.18790 0.13600
H 	H 	0.42460 0.77340 0.25450 0.13200
H 	H 	0.58100 0.17500 0.26800 0.18200
H 	H 	0.15460 0.47860 0.31630 0.14200
H 	H 	0.12850 0.63770 0.31210 0.13500
H 	H 	0.22660 0.57540 0.24550 0.13200
H 	H 	0.82500 0.41900 0.23200 0.18200
Ru	Ru	0.54603 0.12039 0.50221 0.89200
Ru	Ru	0.87961 0.45397 0.99779 0.89300
Ru	Ru	0.45397 0.87961 0.49779 0.89200
Ru	Ru	0.12039 0.54603 0.00221 0.89300
C 	C 	0.50580 0.01540 0.71620 0.03900
C 	C 	0.55360 0.14260 0.77800 -0.37700
C 	C 	0.98460 0.49420 0.78380 0.03700
C 	C 	0.85740 0.44640 0.72200 -0.37500
C 	C 	0.49420 0.98460 0.28380 0.03900
C 	C 	0.44640 0.85740 0.22200 -0.37700
C 	C 	0.01540 0.50580 0.21620 0.03700
C 	C 	0.14260 0.55360 0.27800 -0.37500
O 	O 	0.40970 0.16850 0.58889 -0.37900
O 	O 	0.31060 0.91000 0.58562 -0.41400
O 	O 	0.23540 0.07760 0.69856 -0.43500
O 	O 	0.69080 0.10180 0.59825 -0.41600
O 	O 	0.59252 0.84388 0.59238 -0.38700
O 	O 	0.76883 0.95137 0.71214 -0.45200
O 	O 	0.45010 0.89870 0.76600 -0.33500
O 	O 	0.83150 0.59030 0.91111 -0.38000
O 	O 	0.09000 0.68940 0.91438 -0.41400
O 	O 	0.92240 0.76460 0.80144 -0.43600
O 	O 	0.89820 0.30920 0.90175 -0.41600
O 	O 	0.15612 0.40748 0.90762 -0.38700
O 	O 	0.04863 0.23117 0.78786 -0.45100
O 	O 	0.10130 0.54990 0.73400 -0.33300
O 	O 	0.59030 0.83150 0.41111 -0.37900
O 	O 	0.68940 0.09000 0.41438 -0.41400
O 	O 	0.76460 0.92240 0.30144 -0.43500
O 	O 	0.30920 0.89820 0.40175 -0.41600
O 	O 	0.40748 0.15612 0.40762 -0.38700
O 	O 	0.23117 0.04863 0.28786 -0.45200
O 	O 	0.54990 0.10130 0.23400 -0.33500
O 	O 	0.16850 0.40970 0.08889 -0.38000
O 	O 	0.91000 0.31060 0.08562 -0.41400
O 	O 	0.07760 0.23540 0.19856 -0.43600
O 	O 	0.10180 0.69080 0.09825 -0.41600
O 	O 	0.84388 0.59252 0.09238 -0.38700
O 	O 	0.95137 0.76883 0.21214 -0.45100
O 	O 	0.89870 0.45010 0.26600 -0.33300
