data_crystal

_cell_length_a 16.20500
_cell_length_b 24.83400
_cell_length_c 13.51400
_cell_angle_alpha 90.00000
_cell_angle_beta  124.24400
_cell_angle_gamma 90.00000

_symmetry_space_group_name_	'P 1'
_symmetry_space_group_name_H-M	'P 1'

loop_
_symmetry_equiv_pos_as_xyz
  x,y,z

loop_
_atom_site_label
_atom_site_type_symbol
_atom_site_fract_x
_atom_site_fract_y
_atom_site_fract_z
_atom_site_charge
Zn	Zn	0.32251 0.05251 0.72840 1.21300
O 	O 	0.74207 0.06221 0.94579 -0.44000
O 	O 	0.62419 0.12105 0.90758 -0.33000
O 	O 	0.65123 0.02988 0.08091 -0.47600
O 	O 	0.75197 0.01222 0.27671 -0.47800
O 	O 	0.97000 0.15628 0.53610 -0.12400
O 	O 	0.01600 0.21801 0.46910 -0.17400
O 	O 	0.45881 0.03861 0.84512 -0.77700
H 	H 	0.49750 0.06160 0.84480 0.30200
N 	N 	0.96730 0.17845 0.45490 0.00900
N 	N 	0.45984 0.07047 0.05932 -0.25900
N 	N 	0.23892 0.38414 0.23500 -0.27700
C 	C 	0.77125 0.11771 0.10448 -0.12300
C 	C 	0.78330 0.08986 0.20186 -0.00400
C 	C 	0.84886 0.10949 0.31740 -0.11700
H 	H 	0.85840 0.09110 0.38300 0.10100
C 	C 	0.89959 0.15690 0.33280 0.13700
C 	C 	0.88850 0.18572 0.23870 -0.15400
H 	H 	0.92320 0.21770 0.25170 0.11600
C 	C 	0.82410 0.16546 0.12440 0.07200
H 	H 	0.81570 0.18400 0.05960 0.01200
C 	C 	0.70465 0.09846 0.97597 0.39100
C 	C 	0.72341 0.03987 0.18355 0.35200
C 	C 	0.47972 0.12112 0.04483 0.08100
H 	H 	0.51780 0.12650 0.01380 -0.01500
C 	C 	0.44626 0.16581 0.07390 -0.17700
H 	H 	0.46220 0.20030 0.06280 0.10000
C 	C 	0.38821 0.15869 0.12000 0.12200
C 	C 	0.36784 0.10600 0.13420 -0.18800
H 	H 	0.32940 0.09930 0.16430 0.09200
C 	C 	0.40453 0.06363 0.10380 0.09800
H 	H 	0.39030 0.02870 0.11460 -0.04800
C 	C 	0.34849 0.20299 0.15390 -0.08200
H 	H 	0.30820 0.19350 0.17990 0.06200
C 	C 	0.36448 0.25486 0.15090 -0.10500
H 	H 	0.40590 0.26460 0.12670 0.07800
C 	C 	0.29460 0.39267 0.19150 0.11600
H 	H 	0.30540 0.42800 0.17840 -0.02100
C 	C 	0.33640 0.35165 0.16540 -0.19700
H 	H 	0.37460 0.35970 0.13570 0.11200
C 	C 	0.32190 0.29875 0.18290 0.14800
C 	C 	0.26510 0.28988 0.22980 -0.18600
H 	H 	0.25440 0.25500 0.24530 0.10500
C 	C 	0.22500 0.33299 0.25300 0.11200
H 	H 	0.18620 0.32620 0.28260 -0.02300
Zn	Zn	0.82251 0.55251 0.72840 1.22300
O 	O 	0.24207 0.56221 0.94579 -0.42900
O 	O 	0.12419 0.62105 0.90758 -0.34000
O 	O 	0.15123 0.52988 0.08091 -0.46500
O 	O 	0.25197 0.51222 0.27671 -0.45400
O 	O 	0.47000 0.65628 0.53610 -0.13400
O 	O 	0.51600 0.71801 0.46910 -0.13100
O 	O 	0.95881 0.53861 0.84512 -0.74100
H 	H 	0.99750 0.56160 0.84480 0.31400
N 	N 	0.46730 0.67845 0.45490 -0.01400
N 	N 	0.95984 0.57047 0.05932 -0.26200
N 	N 	0.73892 0.88414 0.23500 -0.27100
C 	C 	0.27125 0.61771 0.10448 -0.12900
C 	C 	0.28330 0.58986 0.20186 -0.00100
C 	C 	0.34886 0.60949 0.31740 -0.11900
H 	H 	0.35840 0.59110 0.38300 0.10300
C 	C 	0.39959 0.65690 0.33280 0.13300
C 	C 	0.38850 0.68572 0.23870 -0.15800
H 	H 	0.42320 0.71770 0.25170 0.10400
C 	C 	0.32410 0.66546 0.12440 0.07100
H 	H 	0.31570 0.68400 0.05960 0.00800
C 	C 	0.20465 0.59846 0.97597 0.39500
C 	C 	0.22341 0.53987 0.18355 0.34900
C 	C 	0.97972 0.62112 0.04483 0.19800
H 	H 	0.01780 0.62650 0.01380 -0.08700
C 	C 	0.94626 0.66581 0.07390 -0.23700
H 	H 	0.96220 0.70030 0.06280 0.13500
C 	C 	0.88821 0.65869 0.12000 0.16000
C 	C 	0.86784 0.60600 0.13420 -0.20400
H 	H 	0.82940 0.59930 0.16430 0.10400
C 	C 	0.90453 0.56363 0.10380 0.11900
H 	H 	0.89030 0.52870 0.11460 -0.02700
C 	C 	0.84849 0.70299 0.15390 -0.09600
H 	H 	0.80820 0.69350 0.17990 0.07000
C 	C 	0.86448 0.75486 0.15090 -0.09000
H 	H 	0.90590 0.76460 0.12670 0.08000
C 	C 	0.79460 0.89267 0.19150 0.11700
H 	H 	0.80540 0.92800 0.17840 -0.00400
C 	C 	0.83640 0.85165 0.16540 -0.18800
H 	H 	0.87460 0.85970 0.13570 0.11900
C 	C 	0.82190 0.79875 0.18290 0.14700
C 	C 	0.76510 0.78988 0.22980 -0.17900
H 	H 	0.75440 0.75500 0.24530 0.10500
C 	C 	0.72500 0.83299 0.25300 0.11300
H 	H 	0.68620 0.82620 0.28260 -0.01800
Zn	Zn	0.67749 0.05251 0.77160 1.21200
O 	O 	0.25793 0.06221 0.55421 -0.45200
O 	O 	0.37581 0.12105 0.59242 -0.33000
O 	O 	0.34877 0.02988 0.41909 -0.46000
O 	O 	0.24803 0.01222 0.22329 -0.49200
O 	O 	0.03000 0.15628 0.96390 -0.11000
O 	O 	0.98400 0.21801 0.03090 -0.10600
O 	O 	0.54119 0.03861 0.65488 -0.79000
H 	H 	0.50250 0.06160 0.65520 0.29900
N 	N 	0.03270 0.17845 0.04510 -0.06000
N 	N 	0.54016 0.07047 0.44068 -0.25300
N 	N 	0.76108 0.38414 0.26500 -0.27500
C 	C 	0.22875 0.11771 0.39552 -0.06500
C 	C 	0.21670 0.08986 0.29814 -0.03500
C 	C 	0.15114 0.10949 0.18260 -0.09600
H 	H 	0.14160 0.09110 0.11700 0.07400
C 	C 	0.10041 0.15690 0.16720 0.09800
C 	C 	0.11150 0.18572 0.26130 -0.12600
H 	H 	0.07680 0.21770 0.24830 0.08000
C 	C 	0.17590 0.16546 0.37560 0.02500
H 	H 	0.18430 0.18400 0.44040 0.03500
C 	C 	0.29535 0.09846 0.52403 0.33700
C 	C 	0.27659 0.03987 0.31645 0.36100
C 	C 	0.52028 0.12112 0.45517 0.08700
H 	H 	0.48220 0.12650 0.48620 -0.00300
C 	C 	0.55374 0.16581 0.42610 -0.17300
H 	H 	0.53780 0.20030 0.43720 0.10900
C 	C 	0.61179 0.15869 0.38000 0.12800
C 	C 	0.63216 0.10600 0.36580 -0.18400
H 	H 	0.67060 0.09930 0.33570 0.09500
C 	C 	0.59547 0.06363 0.39620 0.10500
H 	H 	0.60970 0.02870 0.38540 -0.04300
C 	C 	0.65151 0.20299 0.34610 -0.07600
H 	H 	0.69180 0.19350 0.32010 0.06300
C 	C 	0.63552 0.25486 0.34910 -0.10300
H 	H 	0.59410 0.26460 0.37330 0.08300
C 	C 	0.70540 0.39267 0.30850 0.12000
H 	H 	0.69460 0.42800 0.32160 -0.01700
C 	C 	0.66360 0.35165 0.33460 -0.19400
H 	H 	0.62540 0.35970 0.36430 0.11800
C 	C 	0.67810 0.29875 0.31710 0.15300
C 	C 	0.73490 0.28988 0.27020 -0.18400
H 	H 	0.74560 0.25500 0.25470 0.10500
C 	C 	0.77500 0.33299 0.24700 0.11600
H 	H 	0.81380 0.32620 0.21740 -0.01800
Zn	Zn	0.17749 0.55251 0.77160 1.22000
O 	O 	0.75793 0.56221 0.55421 -0.42800
O 	O 	0.87581 0.62105 0.59242 -0.31500
O 	O 	0.84877 0.52988 0.41909 -0.42800
O 	O 	0.74803 0.51222 0.22329 -0.45700
O 	O 	0.53000 0.65628 0.96390 -0.09500
O 	O 	0.48400 0.71801 0.03090 -0.15100
O 	O 	0.04119 0.53861 0.65488 -0.77500
H 	H 	0.00250 0.56160 0.65520 0.28000
N 	N 	0.53270 0.67845 0.04510 -0.03600
N 	N 	0.04016 0.57047 0.44068 -0.23200
N 	N 	0.26108 0.88414 0.26500 -0.27200
C 	C 	0.72875 0.61771 0.39552 -0.06200
C 	C 	0.71670 0.58986 0.29814 -0.02200
C 	C 	0.65114 0.60949 0.18260 -0.10000
H 	H 	0.64160 0.59110 0.11700 0.08500
C 	C 	0.60041 0.65690 0.16720 0.11100
C 	C 	0.61150 0.68572 0.26130 -0.12700
H 	H 	0.57680 0.71770 0.24830 0.09400
C 	C 	0.67590 0.66546 0.37560 0.03300
H 	H 	0.68430 0.68400 0.44040 0.03700
C 	C 	0.79535 0.59846 0.52403 0.33400
C 	C 	0.77659 0.53987 0.31645 0.35600
C 	C 	0.02028 0.62112 0.45517 -0.02700
H 	H 	0.98220 0.62650 0.48620 0.06800
C 	C 	0.05374 0.66581 0.42610 -0.11000
H 	H 	0.03780 0.70030 0.43720 0.07300
C 	C 	0.11179 0.65869 0.38000 0.08600
C 	C 	0.13216 0.60600 0.36580 -0.15700
H 	H 	0.17060 0.59930 0.33570 0.08400
C 	C 	0.09547 0.56363 0.39620 0.08100
H 	H 	0.10970 0.52870 0.38540 -0.02300
C 	C 	0.15151 0.70299 0.34610 -0.06000
H 	H 	0.19180 0.69350 0.32010 0.05500
C 	C 	0.13552 0.75486 0.34910 -0.11800
H 	H 	0.09410 0.76460 0.37330 0.08200
C 	C 	0.20540 0.89267 0.30850 0.11700
H 	H 	0.19460 0.92800 0.32160 -0.00700
C 	C 	0.16360 0.85165 0.33460 -0.19700
H 	H 	0.12540 0.85970 0.36430 0.11500
C 	C 	0.17810 0.79875 0.31710 0.15200
C 	C 	0.23490 0.78988 0.27020 -0.18800
H 	H 	0.24560 0.75500 0.25470 0.10400
C 	C 	0.27500 0.83299 0.24700 0.11300
H 	H 	0.31380 0.82620 0.21740 -0.02200
Zn	Zn	0.67749 0.94749 0.27160 1.22900
O 	O 	0.25793 0.93779 0.05421 -0.42100
O 	O 	0.37581 0.87895 0.09242 -0.32700
O 	O 	0.34877 0.97012 0.91909 -0.39100
O 	O 	0.24803 0.98778 0.72329 -0.42600
O 	O 	0.03000 0.84372 0.46390 -0.14400
O 	O 	0.98400 0.78199 0.53090 -0.08900
O 	O 	0.54119 0.96139 0.15488 -0.74400
H 	H 	0.50250 0.93840 0.15520 0.28700
N 	N 	0.03270 0.82155 0.54510 -0.03300
N 	N 	0.54016 0.92953 0.94068 -0.22400
N 	N 	0.76108 0.61586 0.76500 -0.27100
C 	C 	0.22875 0.88229 0.89552 -0.00500
C 	C 	0.21670 0.91014 0.79814 -0.03400
C 	C 	0.15114 0.89051 0.68260 -0.08700
H 	H 	0.14160 0.90890 0.61700 0.09300
C 	C 	0.10041 0.84310 0.66720 0.10200
C 	C 	0.11150 0.81428 0.76130 -0.10800
H 	H 	0.07680 0.78230 0.74830 0.07900
C 	C 	0.17590 0.83454 0.87560 0.00100
H 	H 	0.18430 0.81600 0.94040 0.06000
C 	C 	0.29535 0.90154 0.02403 0.27900
C 	C 	0.27659 0.96013 0.81645 0.35800
C 	C 	0.52028 0.87888 0.95517 0.09000
H 	H 	0.48220 0.87350 0.98620 0.01200
C 	C 	0.55374 0.83419 0.92610 -0.16300
H 	H 	0.53780 0.79970 0.93720 0.11600
C 	C 	0.61179 0.84131 0.88000 0.12800
C 	C 	0.63216 0.89400 0.86580 -0.16800
H 	H 	0.67060 0.90070 0.83570 0.09900
C 	C 	0.59547 0.93637 0.89620 0.10800
H 	H 	0.60970 0.97130 0.88540 0.00200
C 	C 	0.65151 0.79701 0.84610 -0.06700
H 	H 	0.69180 0.80650 0.82010 0.06500
C 	C 	0.63552 0.74514 0.84910 -0.10200
H 	H 	0.59410 0.73540 0.87330 0.08900
C 	C 	0.70540 0.60733 0.80850 0.12900
H 	H 	0.69460 0.57200 0.82160 -0.01100
C 	C 	0.66360 0.64835 0.83460 -0.19200
H 	H 	0.62540 0.64030 0.86430 0.12500
C 	C 	0.67810 0.70125 0.81710 0.16200
C 	C 	0.73490 0.71012 0.77020 -0.18000
H 	H 	0.74560 0.74500 0.75470 0.11000
C 	C 	0.77500 0.66701 0.74700 0.12500
H 	H 	0.81380 0.67380 0.71740 -0.01400
Zn	Zn	0.17749 0.44749 0.27160 1.21800
O 	O 	0.75793 0.43779 0.05421 -0.43100
O 	O 	0.87581 0.37895 0.09242 -0.31600
O 	O 	0.84877 0.47012 0.91909 -0.40600
O 	O 	0.74803 0.48778 0.72329 -0.45000
O 	O 	0.53000 0.34372 0.46390 -0.13400
O 	O 	0.48400 0.28199 0.53090 -0.13000
O 	O 	0.04119 0.46139 0.15488 -0.78300
H 	H 	0.00250 0.43840 0.15520 0.27500
N 	N 	0.53270 0.32155 0.54510 -0.01000
N 	N 	0.04016 0.42953 0.94068 -0.22300
N 	N 	0.26108 0.11586 0.76500 -0.27800
C 	C 	0.72875 0.38229 0.89552 -0.00800
C 	C 	0.71670 0.41014 0.79814 -0.03500
C 	C 	0.65114 0.39051 0.68260 -0.08700
H 	H 	0.64160 0.40890 0.61700 0.09200
C 	C 	0.60041 0.34310 0.66720 0.10800
C 	C 	0.61150 0.31428 0.76130 -0.10700
H 	H 	0.57680 0.28230 0.74830 0.09200
C 	C 	0.67590 0.33454 0.87560 0.00700
H 	H 	0.68430 0.31600 0.94040 0.06100
C 	C 	0.79535 0.40154 0.02403 0.28300
C 	C 	0.77659 0.46013 0.81645 0.35900
C 	C 	0.02028 0.37888 0.95517 -0.01100
H 	H 	0.98220 0.37350 0.98620 0.07500
C 	C 	0.05374 0.33419 0.92610 -0.11100
H 	H 	0.03780 0.29970 0.93720 0.08500
C 	C 	0.11179 0.34131 0.88000 0.09500
C 	C 	0.13216 0.39400 0.86580 -0.15500
H 	H 	0.17060 0.40070 0.83570 0.08800
C 	C 	0.09547 0.43637 0.89620 0.09000
H 	H 	0.10970 0.47130 0.88540 -0.01900
C 	C 	0.15151 0.29701 0.84610 -0.05500
H 	H 	0.19180 0.30650 0.82010 0.05900
C 	C 	0.13552 0.24514 0.84910 -0.11500
H 	H 	0.09410 0.23540 0.87330 0.08700
C 	C 	0.20540 0.10733 0.80850 0.12900
H 	H 	0.19460 0.07200 0.82160 -0.02800
C 	C 	0.16360 0.14835 0.83460 -0.20000
H 	H 	0.12540 0.14030 0.86430 0.11900
C 	C 	0.17810 0.20125 0.81710 0.16300
C 	C 	0.23490 0.21012 0.77020 -0.18600
H 	H 	0.24560 0.24500 0.75470 0.10900
C 	C 	0.27500 0.16701 0.74700 0.12400
H 	H 	0.31380 0.17380 0.71740 -0.01800
Zn	Zn	0.32251 0.94749 0.22840 1.22800
O 	O 	0.74207 0.93779 0.44579 -0.40800
O 	O 	0.62419 0.87895 0.40758 -0.32800
O 	O 	0.65123 0.97012 0.58091 -0.41200
O 	O 	0.75197 0.98778 0.77671 -0.41300
O 	O 	0.97000 0.84372 0.03610 -0.15200
O 	O 	0.01600 0.78199 0.96910 -0.15000
O 	O 	0.45881 0.96139 0.34512 -0.73700
H 	H 	0.49750 0.93840 0.34480 0.29100
N 	N 	0.96730 0.82155 0.95490 0.03000
N 	N 	0.45984 0.92953 0.55932 -0.23400
N 	N 	0.23892 0.61586 0.73500 -0.27400
C 	C 	0.77125 0.88229 0.60448 -0.06700
C 	C 	0.78330 0.91014 0.70186 -0.00200
C 	C 	0.84886 0.89051 0.81740 -0.10900
H 	H 	0.85840 0.90890 0.88300 0.12000
C 	C 	0.89959 0.84310 0.83280 0.14000
C 	C 	0.88850 0.81428 0.73870 -0.13700
H 	H 	0.92320 0.78230 0.75170 0.11400
C 	C 	0.82410 0.83454 0.62440 0.04900
H 	H 	0.81570 0.81600 0.55960 0.03500
C 	C 	0.70465 0.90154 0.47597 0.33700
C 	C 	0.72341 0.96013 0.68355 0.34900
C 	C 	0.47972 0.87888 0.54483 0.08500
H 	H 	0.51780 0.87350 0.51380 -0.00100
C 	C 	0.44626 0.83419 0.57390 -0.16800
H 	H 	0.46220 0.79970 0.56280 0.10700
C 	C 	0.38821 0.84131 0.62000 0.12300
C 	C 	0.36784 0.89400 0.63420 -0.17200
H 	H 	0.32940 0.90070 0.66430 0.09600
C 	C 	0.40453 0.93637 0.60380 0.10100
H 	H 	0.39030 0.97130 0.61460 -0.00300
C 	C 	0.34849 0.79701 0.65390 -0.07300
H 	H 	0.30820 0.80650 0.67990 0.06400
C 	C 	0.36448 0.74514 0.65090 -0.10300
H 	H 	0.40590 0.73540 0.62670 0.08400
C 	C 	0.29460 0.60733 0.69150 0.12600
H 	H 	0.30540 0.57200 0.67840 -0.01500
C 	C 	0.33640 0.64835 0.66540 -0.19400
H 	H 	0.37460 0.64030 0.63570 0.11900
C 	C 	0.32190 0.70125 0.68290 0.15700
C 	C 	0.26510 0.71012 0.72980 -0.18200
H 	H 	0.25440 0.74500 0.74530 0.11000
C 	C 	0.22500 0.66701 0.75300 0.12100
H 	H 	0.18620 0.67380 0.78260 -0.01800
Zn	Zn	0.82251 0.44749 0.22840 1.22100
O 	O 	0.24207 0.43779 0.44579 -0.43300
O 	O 	0.12419 0.37895 0.40758 -0.34300
O 	O 	0.15123 0.47012 0.58091 -0.44600
O 	O 	0.25197 0.48778 0.77671 -0.44800
O 	O 	0.47000 0.34372 0.03610 -0.17300
O 	O 	0.51600 0.28199 0.96910 -0.11100
O 	O 	0.95881 0.46139 0.34512 -0.75300
H 	H 	0.99750 0.43840 0.34480 0.31200
N 	N 	0.46730 0.32155 0.95490 0.01100
N 	N 	0.95984 0.42953 0.55932 -0.25500
N 	N 	0.73892 0.11586 0.73500 -0.27600
C 	C 	0.27125 0.38229 0.60448 -0.07000
C 	C 	0.28330 0.41014 0.70186 -0.01600
C 	C 	0.34886 0.39051 0.81740 -0.10500
H 	H 	0.35840 0.40890 0.88300 0.11000
C 	C 	0.39959 0.34310 0.83280 0.12900
C 	C 	0.38850 0.31428 0.73870 -0.13700
H 	H 	0.42320 0.28230 0.75170 0.10100
C 	C 	0.32410 0.33454 0.62440 0.04200
H 	H 	0.31570 0.31600 0.55960 0.03300
C 	C 	0.20465 0.40154 0.47597 0.34000
C 	C 	0.22341 0.46013 0.68355 0.35400
C 	C 	0.97972 0.37888 0.54483 0.19800
H 	H 	0.01780 0.37350 0.51380 -0.07200
C 	C 	0.94626 0.33419 0.57390 -0.23100
H 	H 	0.96220 0.29970 0.56280 0.14300
C 	C 	0.88821 0.34131 0.62000 0.16400
C 	C 	0.86784 0.39400 0.63420 -0.20000
H 	H 	0.82940 0.40070 0.66430 0.10700
C 	C 	0.90453 0.43637 0.60380 0.12500
H 	H 	0.89030 0.47130 0.61460 -0.02400
C 	C 	0.84849 0.29701 0.65390 -0.08900
H 	H 	0.80820 0.30650 0.67990 0.07200
C 	C 	0.86448 0.24514 0.65090 -0.08800
H 	H 	0.90590 0.23540 0.62670 0.08500
C 	C 	0.79460 0.10733 0.69150 0.12900
H 	H 	0.80540 0.07200 0.67840 -0.02500
C 	C 	0.83640 0.14835 0.66540 -0.19200
H 	H 	0.87460 0.14030 0.63570 0.12200
C 	C 	0.82190 0.20125 0.68290 0.15700
C 	C 	0.76510 0.21012 0.72980 -0.17800
H 	H 	0.75440 0.24500 0.74530 0.11100
C 	C 	0.72500 0.16701 0.75300 0.12300
H 	H 	0.68620 0.17380 0.78260 -0.01500
Zn	Zn	0.50000 0.00000 -0.00000 1.19500
Zn	Zn	0.00000 0.50000 -0.00000 1.19800
Zn	Zn	0.50000 0.00000 0.50000 1.20900
Zn	Zn	0.00000 0.50000 0.50000 1.21200
