data_crystal

_cell_length_a 13.44200
_cell_length_b 13.59060
_cell_length_c 14.81290
_cell_angle_alpha 107.21500
_cell_angle_beta  106.80600
_cell_angle_gamma 111.02500

_symmetry_space_group_name_	'P 1'
_symmetry_space_group_name_H-M	'P 1'

loop_
_symmetry_equiv_pos_as_xyz
  x,y,z

loop_
_atom_site_label
_atom_site_type_symbol
_atom_site_fract_x
_atom_site_fract_y
_atom_site_fract_z
_atom_site_charge
Zn	Zn	0.03268 0.25972 0.89756 1.23500
Zn	Zn	0.63512 0.36216 0.10244 1.20400
Zn	Zn	-0.00000 0.50000 -0.00000 1.18600
Zn	Zn	0.50000 0.50000 -0.00000 1.19400
Zn	Zn	0.36488 0.63784 0.89756 1.24100
Zn	Zn	0.96732 0.74028 0.10244 1.20900
H 	H 	0.43150 0.11080 0.60900 0.05900
H 	H 	0.55740 0.22140 0.79660 0.09700
H 	H 	0.90650 0.78780 0.82120 0.08800
H 	H 	0.73810 0.35380 0.93820 0.01800
H 	H 	0.26190 0.64620 0.06180 -0.06300
H 	H 	0.40110 0.03490 0.28860 0.13100
H 	H 	0.27150 0.50990 0.51800 0.10700
H 	H 	0.21920 0.90080 0.14920 -0.05300
H 	H 	0.94200 0.99490 0.37300 0.04800
H 	H 	0.43000 0.24840 0.14920 -0.04500
H 	H 	0.60380 0.66480 0.39300 0.11200
H 	H 	0.41470 0.03340 0.82120 0.11100
H 	H 	0.38750 0.25370 0.28860 0.11900
H 	H 	0.25350 0.99190 0.48200 0.11500
H 	H 	0.71020 0.55290 0.11940 0.31800
H 	H 	0.74650 0.00810 0.51800 0.10200
H 	H 	0.73920 0.57520 0.79660 0.10200
H 	H 	0.76080 0.48180 0.33820 -0.01700
H 	H 	0.28980 0.44710 0.88060 0.30000
H 	H 	0.11250 0.59990 0.24580 -0.01700
H 	H 	0.36670 0.35410 0.75420 -0.00100
H 	H 	0.07740 0.85640 0.33820 -0.03300
H 	H 	0.28920 0.72820 0.39300 0.11300
H 	H 	0.55320 0.67220 0.52300 0.08300
H 	H 	0.89200 0.13670 0.44300 0.10100
H 	H 	0.61250 0.74630 0.71140 0.12300
H 	H 	0.32250 0.50180 0.39100 0.06300
H 	H 	0.10800 0.86330 0.55700 0.09500
H 	H 	0.72850 0.49010 0.48200 0.11300
H 	H 	0.44680 0.32780 0.47700 0.08500
H 	H 	0.59890 0.96510 0.71140 0.10800
H 	H 	0.57000 0.75160 0.85080 0.00900
H 	H 	0.09350 0.21220 0.17880 0.10800
H 	H 	0.56850 0.88920 0.39100 0.06900
H 	H 	0.78080 0.09920 0.85080 0.01900
H 	H 	0.94900 0.69370 0.55700 0.07500
H 	H 	0.06900 0.62190 0.62700 0.06100
H 	H 	0.58530 0.96660 0.17880 0.08600
H 	H 	0.29990 0.41560 0.06180 -0.06200
H 	H 	0.92260 0.14360 0.66180 -0.00200
H 	H 	0.63330 0.64590 0.24580 -0.00600
H 	H 	0.93100 0.37810 0.37300 0.01000
H 	H 	0.46980 0.85080 0.52300 0.07600
H 	H 	0.88750 0.40010 0.75420 0.01100
H 	H 	0.05100 0.30630 0.44300 0.12200
H 	H 	0.71080 0.27180 0.60700 0.10700
H 	H 	0.67750 0.49820 0.60900 0.06400
H 	H 	0.39620 0.33520 0.60700 0.10800
H 	H 	0.53020 0.14920 0.47700 0.09100
H 	H 	0.26080 0.42480 0.20340 0.09300
H 	H 	0.70010 0.58440 0.93820 0.01700
H 	H 	0.05800 0.00510 0.62700 0.02400
H 	H 	0.23920 0.51820 0.66180 -0.02000
H 	H 	0.09080 0.43350 0.88060 0.29900
H 	H 	0.90920 0.56650 0.11940 0.31900
H 	H 	0.44260 0.77860 0.20340 0.09700
C 	C 	0.34411 0.02945 0.78234 -0.10700
C 	C 	0.03518 0.30228 0.37620 -0.22900
C 	C 	0.66557 0.44097 0.41494 -0.19200
C 	C 	0.35068 0.02940 0.40328 0.18800
C 	C 	0.99318 0.29350 0.17684 0.03000
C 	C 	0.24937 0.97397 0.41494 -0.21400
C 	C 	0.33443 0.55903 0.58506 -0.18600
C 	C 	0.16479 0.19207 0.80616 0.33700
C 	C 	0.26554 0.93704 0.68358 0.12300
C 	C 	0.01647 0.69917 0.92450 0.32700
C 	C 	0.83521 0.80793 0.19384 0.34200
C 	C 	0.91804 0.74654 0.68358 0.08000
C 	C 	0.63828 0.53408 0.87068 0.10600
C 	C 	0.06177 0.24711 0.21766 -0.17800
C 	C 	0.85863 0.38591 0.19384 0.35800
C 	C 	0.50629 0.85449 0.40638 -0.09300
C 	C 	0.12994 0.01124 0.66594 0.04900
C 	C 	0.73240 0.33660 0.87068 0.10200
C 	C 	0.46452 0.30112 0.30094 -0.21100
C 	C 	0.68366 0.88334 0.17684 -0.03400
C 	C 	0.85646 0.10686 0.67192 0.10800
C 	C 	0.20685 0.10608 0.76576 -0.07200
C 	C 	0.08196 0.25346 0.31642 0.16200
C 	C 	0.77355 0.08155 0.78276 0.11200
C 	C 	0.55727 0.60144 0.23738 0.09300
C 	C 	0.94109 0.34032 0.23424 -0.11100
C 	C 	0.61100 0.22970 0.68358 0.11700
C 	C 	0.38900 0.77030 0.31642 0.14200
C 	C 	0.68454 0.43494 0.32808 0.12500
C 	C 	0.66358 0.00018 0.69906 -0.15900
C 	C 	0.52442 0.37834 0.49260 -0.11200
C 	C 	0.93823 0.75289 0.78234 -0.02800
C 	C 	0.53548 0.69888 0.69906 -0.19500
C 	C 	0.47558 0.62166 0.50740 -0.10400
C 	C 	0.22645 0.91845 0.21724 0.14800
C 	C 	0.59991 0.44811 0.59362 -0.07100
C 	C 	0.45955 0.38702 0.67336 -0.17200
C 	C 	0.79315 0.89392 0.23424 -0.06200
C 	C 	0.49079 0.29879 0.21724 0.13600
C 	C 	0.44740 0.62612 0.59672 0.15600
C 	C 	0.40009 0.55189 0.40638 -0.07900
C 	C 	0.87006 0.98876 0.33406 0.02700
C 	C 	0.15898 0.92608 0.62380 -0.14700
C 	C 	0.14137 0.61409 0.80616 0.32200
C 	C 	0.84102 0.07392 0.37620 -0.11900
C 	C 	0.98353 0.30083 0.07550 0.38200
C 	C 	0.00682 0.70650 0.82316 -0.06600
C 	C 	0.75063 0.02603 0.58506 -0.15800
C 	C 	0.28619 0.71366 0.32664 -0.18900
C 	C 	0.31546 0.56506 0.67192 0.12100
C 	C 	0.36172 0.46592 0.12932 0.10900
C 	C 	0.62319 0.25699 0.78572 -0.16500
C 	C 	0.18011 0.63594 0.23738 0.09600
C 	C 	0.71381 0.28634 0.67336 -0.16400
C 	C 	0.64932 0.97060 0.59672 0.12400
C 	C 	0.40803 0.22533 0.92450 0.34800
C 	C 	0.46818 0.11426 0.49260 -0.12700
C 	C 	0.42742 0.54612 0.31642 0.13300
C 	C 	0.53182 0.88574 0.50740 -0.08500
C 	C 	0.05891 0.65968 0.76576 -0.02400
C 	C 	0.81989 0.36406 0.76262 0.08600
C 	C 	0.14354 0.89314 0.32808 0.13400
C 	C 	0.59197 0.77467 0.07550 0.36400
C 	C 	0.96400 0.34530 0.33406 0.13300
C 	C 	0.66253 0.52873 0.78572 -0.17100
C 	C 	0.73446 0.06296 0.31642 0.11800
C 	C 	0.54045 0.61298 0.32664 -0.18100
C 	C 	0.37681 0.74301 0.21428 -0.19900
C 	C 	0.55260 0.37388 0.40328 0.16500
C 	C 	0.44273 0.39856 0.76262 0.08800
C 	C 	0.33642 0.99982 0.30094 -0.23800
C 	C 	0.26760 0.66340 0.12932 0.11300
C 	C 	0.50921 0.70121 0.78276 0.12800
C 	C 	0.31634 0.11666 0.82316 -0.00200
C 	C 	0.57258 0.45388 0.68358 0.12500
C 	C 	0.65589 0.97055 0.21766 -0.10200
C 	C 	0.96482 0.69772 0.62380 -0.03800
C 	C 	0.49371 0.14551 0.59362 -0.05900
C 	C 	0.33747 0.47127 0.21428 -0.19200
C 	C 	0.03600 0.65470 0.66594 -0.05300
N 	N 	0.47021 0.52986 0.13954 -0.26200
N 	N 	0.84254 0.79314 0.63988 -0.00600
N 	N 	0.29734 0.84674 0.63988 -0.01400
N 	N 	0.83067 0.39032 0.86046 -0.21600
N 	N 	0.59867 0.36490 0.22884 -0.28500
N 	N 	0.16933 0.60968 0.13954 -0.26700
N 	N 	0.15746 0.20686 0.36012 -0.02000
N 	N 	0.13017 0.86394 0.22884 -0.29700
N 	N 	0.52979 0.47014 0.86046 -0.22400
N 	N 	0.86983 0.13606 0.77116 -0.25200
N 	N 	0.40133 0.63510 0.77116 -0.26700
N 	N 	0.70266 0.15326 0.36012 -0.01200
O 	O 	0.49620 0.21979 0.97890 -0.39200
O 	O 	0.94672 0.36648 0.05454 -0.47300
O 	O 	0.19713 0.16296 0.30652 -0.14400
O 	O 	0.39218 0.31194 0.94546 -0.38800
O 	O 	0.60782 0.68806 0.05454 -0.48100
O 	O 	0.01730 0.24089 0.02110 -0.53800
O 	O 	0.80287 0.83704 0.69348 -0.12500
O 	O 	0.35191 0.50887 0.92670 -0.72000
O 	O 	0.12911 0.18220 0.87514 -0.40500
O 	O 	0.77076 0.23296 0.44712 -0.13000
O 	O 	0.64809 0.49113 0.07330 -0.83000
O 	O 	0.82364 0.78584 0.55288 -0.13000
O 	O 	0.24603 0.69294 0.87514 -0.39500
O 	O 	0.98270 0.75911 0.97890 -0.36500
O 	O 	0.50380 0.78021 0.02110 -0.51300
O 	O 	0.39061 0.85644 0.69348 -0.12800
O 	O 	0.15903 0.25773 0.76532 -0.33500
O 	O 	0.10629 0.50759 0.76532 -0.33200
O 	O 	0.17636 0.21416 0.44712 -0.13900
O 	O 	0.92521 0.58217 0.07330 -0.81800
O 	O 	0.75397 0.30706 0.12486 -0.46600
O 	O 	0.89371 0.49241 0.23468 -0.33500
O 	O 	0.22924 0.76704 0.55288 -0.13900
O 	O 	0.60939 0.14356 0.30652 -0.14000
O 	O 	0.87089 0.81780 0.12486 -0.45700
O 	O 	0.05328 0.63352 0.94546 -0.39300
O 	O 	0.84097 0.74227 0.23468 -0.33200
O 	O 	0.07479 0.41783 0.92670 -0.73000
