data_crystal

_cell_length_a 13.83800
_cell_length_b 13.84400
_cell_length_c 14.42000
_cell_angle_alpha 108.31000
_cell_angle_beta  110.43000
_cell_angle_gamma 107.04600

_symmetry_space_group_name_	'P 1'
_symmetry_space_group_name_H-M	'P 1'

loop_
_symmetry_equiv_pos_as_xyz
  x,y,z

loop_
_atom_site_label
_atom_site_type_symbol
_atom_site_fract_x
_atom_site_fract_y
_atom_site_fract_z
_atom_site_charge
Zn	Zn	0.44700 0.72600 0.59980 1.22600
Zn	Zn	0.50000 0.50000 0.50000 1.23400
Zn	Zn	0.55300 0.27400 0.40020 1.22500
Zn	Zn	0.15590 0.36930 0.60020 1.22600
Zn	Zn	0.84410 0.63070 0.39980 1.22800
Zn	Zn	-0.00000 0.50000 0.50000 1.22500
H 	H 	0.85830 0.00440 0.75970 0.10500
H 	H 	0.55460 0.61620 0.11700 0.04400
H 	H 	0.21940 0.59230 0.29560 0.08600
H 	H 	0.12540 0.65630 0.76680 0.00600
H 	H 	0.92450 0.77700 0.70450 0.09800
H 	H 	0.35740 0.39300 0.22970 0.00000
H 	H 	0.87460 0.34370 0.23320 0.00300
H 	H 	0.44520 0.99250 0.87210 0.04100
H 	H 	0.59880 0.85700 0.05760 0.09400
H 	H 	0.62370 0.22840 0.69780 0.09600
H 	H 	0.44540 0.38380 0.88300 0.04200
H 	H 	0.81460 0.75470 0.91710 0.10900
H 	H 	0.85380 0.45640 0.90350 0.04600
H 	H 	0.55760 0.29430 0.95360 0.09400
H 	H 	0.74820 0.63610 0.56470 -0.01800
H 	H 	0.77750 0.50670 0.00910 0.13700
H 	H 	0.07550 0.22300 0.29550 0.09100
H 	H 	0.37630 0.77160 0.30220 0.09400
H 	H 	0.55480 0.00750 0.12790 0.04300
H 	H 	0.18540 0.24530 0.08290 0.11000
H 	H 	0.58220 0.86620 0.85730 -0.00400
H 	H 	0.81430 0.42140 0.56200 -0.01700
H 	H 	0.89780 0.35000 0.08300 0.09900
H 	H 	0.77200 0.00340 0.99130 0.09800
H 	H 	0.06250 0.65430 0.05690 0.09200
H 	H 	0.96290 0.22510 0.63130 0.04800
H 	H 	0.25180 0.36390 0.43530 -0.01800
H 	H 	0.93750 0.34570 0.94310 0.06000
H 	H 	0.06910 0.95620 0.69460 0.09000
H 	H 	0.22250 0.49330 0.99090 0.08100
H 	H 	0.90460 0.25500 0.76440 0.06500
H 	H 	0.66900 0.88850 0.62430 0.00400
H 	H 	0.33100 0.11150 0.37570 0.00400
H 	H 	0.10220 0.65000 0.91700 0.10500
H 	H 	0.27730 0.47540 0.85990 -0.00100
H 	H 	0.57680 0.44430 0.37500 0.30800
H 	H 	0.09540 0.74500 0.23560 0.15900
H 	H 	0.78060 0.40770 0.70440 0.09000
H 	H 	0.41780 0.13380 0.14270 -0.00200
H 	H 	0.03710 0.77490 0.36870 -0.05500
H 	H 	0.93090 0.04380 0.30540 0.10000
H 	H 	0.14170 0.99560 0.24030 0.09700
H 	H 	0.64260 0.60700 0.77030 -0.00000
H 	H 	0.44240 0.70570 0.04640 0.09500
H 	H 	0.22800 0.99660 0.00870 0.09700
H 	H 	0.72270 0.52460 0.14010 -0.03100
H 	H 	0.20180 0.56470 0.62680 0.30900
H 	H 	0.79820 0.43530 0.37320 0.30800
H 	H 	0.18570 0.57860 0.43800 -0.01400
H 	H 	0.14620 0.54360 0.09650 0.05300
H 	H 	0.42320 0.55570 0.62500 0.30800
H 	H 	0.40120 0.14300 0.94240 0.09100
C 	C 	0.12500 0.53300 0.36510 0.07400
C 	C 	0.92400 0.24100 0.41660 0.36800
C 	C 	0.45870 0.34200 0.74390 -0.04300
C 	C 	0.69820 0.64200 0.75400 0.09100
C 	C 	0.62900 0.61100 0.30700 0.32700
C 	C 	0.80500 0.73500 0.84500 -0.15700
C 	C 	0.97900 0.30200 0.78300 -0.04600
C 	C 	0.99400 0.91600 0.92100 -0.00700
C 	C 	0.04140 0.59700 0.84550 -0.17300
C 	C 	0.67300 0.19700 0.30800 0.32200
C 	C 	0.45300 0.70200 0.11220 -0.11800
C 	C 	0.83300 0.00800 0.88600 0.11800
C 	C 	0.65500 0.92500 0.12130 -0.11200
C 	C 	0.03900 0.93200 0.03900 -0.04000
C 	C 	0.75100 0.97300 0.91600 -0.14100
C 	C 	0.59750 0.25600 0.82900 0.11700
C 	C 	0.79900 0.56800 0.16150 0.16800
C 	C 	0.20100 0.43200 0.83850 0.07600
C 	C 	0.40250 0.74400 0.17100 0.11700
C 	C 	0.16700 0.99200 0.11400 0.11900
C 	C 	0.94800 0.61300 0.11340 0.26400
C 	C 	0.01400 0.28500 0.70300 -0.01500
C 	C 	0.47970 0.69100 0.30890 -0.03100
C 	C 	0.94480 0.39700 0.24790 0.09500
C 	C 	0.77000 0.94200 0.17800 0.11400
C 	C 	0.13200 0.25100 0.27700 -0.15800
C 	C 	0.99420 0.41500 0.95250 -0.03700
C 	C 	0.69000 0.90600 0.69800 0.07900
C 	C 	0.16800 0.44500 0.91600 -0.12000
C 	C 	0.95860 0.40300 0.15450 -0.12700
C 	C 	0.24000 0.34100 0.36300 0.08700
C 	C 	0.16930 0.86800 0.68220 -0.02600
C 	C 	0.32700 0.80300 0.69200 0.32400
C 	C 	0.37100 0.38900 0.69300 0.32800
C 	C 	0.48890 0.67700 0.41140 0.36100
C 	C 	0.14590 0.54400 0.27800 -0.14000
C 	C 	0.31000 0.09400 0.30200 0.07600
C 	C 	0.80300 0.97700 0.78000 -0.15200
C 	C 	0.52320 0.65100 0.15600 0.01500
C 	C 	0.05520 0.60300 0.75210 0.06800
C 	C 	0.00600 0.08400 0.07900 -0.03800
C 	C 	0.85410 0.45600 0.72200 -0.15000
C 	C 	0.54700 0.29800 0.88780 -0.12000
C 	C 	0.63600 0.89400 0.83600 0.08100
C 	C 	0.94550 0.52000 0.83690 0.11600
C 	C 	0.00580 0.58500 0.04750 -0.16000
C 	C 	0.19500 0.26500 0.15500 -0.16100
C 	C 	0.96100 0.06800 0.96100 -0.01100
C 	C 	0.89400 0.79800 0.83400 0.10600
C 	C 	0.23000 0.05800 0.82200 0.11200
C 	C 	0.83070 0.13200 0.31780 -0.03300
C 	C 	0.86800 0.74900 0.72300 -0.15500
C 	C 	0.58760 0.25900 0.73400 -0.09900
C 	C 	0.30180 0.35800 0.24600 0.09300
C 	C 	0.51110 0.32300 0.58860 0.36100
C 	C 	0.47680 0.34900 0.84400 0.01500
C 	C 	0.37100 0.98500 0.83600 0.01900
C 	C 	0.28500 0.88600 0.73800 -0.05400
C 	C 	0.76000 0.65900 0.63700 0.08800
C 	C 	0.19700 0.02300 0.22000 -0.14800
C 	C 	0.05200 0.38700 0.88660 0.04400
C 	C 	0.36400 0.10600 0.16400 0.08000
C 	C 	0.93560 0.49300 0.92410 -0.03700
C 	C 	0.41240 0.74100 0.26600 -0.09800
C 	C 	0.14300 0.96200 0.72800 -0.09700
C 	C 	0.02100 0.69800 0.21700 -0.32700
C 	C 	0.10600 0.20200 0.16600 0.10800
C 	C 	0.52030 0.30900 0.69110 -0.03100
C 	C 	0.71500 0.11400 0.26200 -0.05000
C 	C 	0.24900 0.02700 0.08400 -0.13900
C 	C 	0.83200 0.55500 0.08400 -0.26500
C 	C 	0.87500 0.46700 0.63490 0.08700
C 	C 	0.05450 0.48000 0.16310 0.07400
C 	C 	0.07600 0.75900 0.58340 0.32700
C 	C 	0.54130 0.65800 0.25610 -0.04100
C 	C 	0.34500 0.07500 0.87870 -0.11200
C 	C 	0.62900 0.01500 0.16400 0.02100
C 	C 	0.85700 0.03800 0.27200 -0.08900
C 	C 	0.98600 0.71500 0.29700 0.21300
C 	C 	0.06440 0.50700 0.07590 -0.04900
N 	N 	0.87420 0.64420 0.27100 -0.28200
N 	N 	0.32600 0.79100 0.12300 -0.01600
N 	N 	0.12580 0.35580 0.72900 -0.23500
N 	N 	0.20200 0.15300 0.86600 -0.01100
N 	N 	0.02540 0.46150 0.35100 -0.24300
N 	N 	0.67250 0.60200 0.64990 -0.23600
N 	N 	0.32750 0.39800 0.35010 -0.23700
N 	N 	0.79800 0.84700 0.13400 -0.01300
N 	N 	0.60360 0.85800 0.72400 -0.25600
N 	N 	0.39640 0.14200 0.27600 -0.25600
N 	N 	0.67400 0.20900 0.87700 -0.01700
N 	N 	0.97460 0.53850 0.64900 -0.22000
O 	O 	0.72830 0.68490 0.38630 -0.44200
O 	O 	0.56920 0.42040 0.42070 -0.77700
O 	O 	0.10100 0.13000 0.83100 -0.13700
O 	O 	0.66300 0.18600 0.94990 -0.13100
O 	O 	0.46770 0.38290 0.56180 -0.45400
O 	O 	0.14990 0.49620 0.58280 -0.78000
O 	O 	0.90600 0.32480 0.44400 -0.44900
O 	O 	0.73610 0.19000 0.83800 -0.13400
O 	O 	0.55500 0.27190 0.53740 -0.45200
O 	O 	0.33700 0.81400 0.05010 -0.12900
O 	O 	0.44500 0.72810 0.46260 -0.45300
O 	O 	0.27170 0.31510 0.61370 -0.44400
O 	O 	0.09400 0.67520 0.55600 -0.45000
O 	O 	0.85010 0.50380 0.41720 -0.77200
O 	O 	0.66470 0.25730 0.25830 -0.31700
O 	O 	0.43080 0.57960 0.57930 -0.77700
O 	O 	0.97790 0.76230 0.53700 -0.42800
O 	O 	0.34630 0.79790 0.61300 -0.44000
O 	O 	0.28600 0.24400 0.94300 -0.13300
O 	O 	0.02210 0.23770 0.46300 -0.46500
O 	O 	0.65370 0.20210 0.38700 -0.43900
O 	O 	0.40480 0.49200 0.74310 -0.33300
O 	O 	0.33530 0.74270 0.74170 -0.32000
O 	O 	0.71400 0.75600 0.05700 -0.12800
O 	O 	0.89900 0.87000 0.16900 -0.12100
O 	O 	0.53230 0.61710 0.43820 -0.45400
O 	O 	0.26390 0.81000 0.16200 -0.13800
O 	O 	0.59520 0.50800 0.25690 -0.33100
