data_crystal

_cell_length_a 23.96470
_cell_length_b 23.96470
_cell_length_c 23.96470
_cell_angle_alpha 90.00000
_cell_angle_beta  90.00000
_cell_angle_gamma 90.00000

_symmetry_space_group_name_	'P 1'
_symmetry_space_group_name_H-M	'P 1'

loop_
_symmetry_equiv_pos_as_xyz
  x,y,z

loop_
_atom_site_label
_atom_site_type_symbol
_atom_site_fract_x
_atom_site_fract_y
_atom_site_fract_z
_atom_site_charge
C 	C 	0.89060 0.61070 0.24830 -0.06800
C 	C 	0.94030 0.64580 0.26920 0.15400
H 	H 	0.96370 0.65560 0.23760 0.00600
H 	H 	0.92630 0.68020 0.28530 0.00900
O 	O 	0.96970 0.62070 0.30530 -0.29900
C 	C 	0.02640 0.62670 0.31170 0.33200
C 	C 	0.05530 0.58150 0.32960 -0.30400
H 	H 	0.03700 0.54790 0.33640 0.14900
C 	C 	0.11480 0.58610 0.33810 0.19200
H 	H 	0.13520 0.55510 0.34930 -0.01900
C 	C 	0.14110 0.63570 0.32990 -0.24800
C 	C 	0.11220 0.68110 0.31060 0.17100
H 	H 	0.13040 0.71470 0.30400 -0.01200
C 	C 	0.05110 0.67590 0.30050 -0.29600
H 	H 	0.03050 0.70580 0.28670 0.14000
C 	C 	0.20250 0.63880 0.33320 0.49500
O 	O 	0.22540 0.59720 0.35310 -0.53900
O 	O 	0.22460 0.68240 0.31910 -0.54500
C 	C 	0.91220 0.56080 0.21550 0.13700
H 	H 	0.93330 0.57360 0.18340 0.01100
H 	H 	0.93680 0.53870 0.23880 -0.00100
O 	O 	0.87030 0.53000 0.19860 -0.29900
C 	C 	0.86950 0.47460 0.18780 0.34900
C 	C 	0.91560 0.44770 0.17170 -0.32000
H 	H 	0.94970 0.46600 0.16960 0.14800
C 	C 	0.91060 0.38900 0.15770 0.18600
H 	H 	0.93990 0.37090 0.13980 -0.01600
C 	C 	0.86290 0.35970 0.17080 -0.24100
C 	C 	0.81810 0.38800 0.18970 0.18700
H 	H 	0.78470 0.36910 0.19590 -0.01700
C 	C 	0.82120 0.44740 0.20050 -0.31000
H 	H 	0.79110 0.46650 0.21580 0.14900
C 	C 	0.86200 0.29710 0.16520 0.47700
O 	O 	0.90170 0.27430 0.14680 -0.55400
O 	O 	0.81550 0.27530 0.18060 -0.51900
C 	C 	0.85780 0.65060 0.20510 0.08000
H 	H 	0.82890 0.63050 0.18510 0.02500
H 	H 	0.84160 0.68270 0.22370 0.02200
O 	O 	0.90010 0.66520 0.17120 -0.25200
C 	C 	0.88570 0.69940 0.12690 0.24000
C 	C 	0.83300 0.71840 0.11890 -0.20200
H 	H 	0.80490 0.71240 0.14510 0.10900
C 	C 	0.82230 0.74980 0.06490 0.06100
H 	H 	0.78630 0.75550 0.05140 0.02400
C 	C 	0.86830 0.76940 0.03710 -0.09000
C 	C 	0.92150 0.74990 0.04630 0.05300
H 	H 	0.95020 0.75730 0.02130 0.03300
C 	C 	0.93130 0.71720 0.09660 -0.19200
H 	H 	0.96740 0.70850 0.10800 0.11400
C 	C 	0.86960 0.80200 0.98290 0.25900
O 	O 	0.91380 0.80290 0.95480 -0.47000
O 	O 	0.81780 0.83060 0.98130 -0.43800
C 	C 	0.85090 0.59270 0.29270 0.07000
H 	H 	0.82210 0.56880 0.27730 0.02700
H 	H 	0.87040 0.57240 0.32180 0.02400
O 	O 	0.82780 0.64150 0.31380 -0.24200
C 	C 	0.80060 0.63470 0.36520 0.23100
C 	C 	0.77440 0.68140 0.38520 -0.18300
H 	H 	0.77700 0.71500 0.36600 0.11100
C 	C 	0.74200 0.67750 0.43780 0.04200
H 	H 	0.72600 0.70930 0.45330 0.03700
C 	C 	0.73570 0.62670 0.46360 -0.06700
C 	C 	0.75660 0.57820 0.43950 0.04700
H 	H 	0.74840 0.54330 0.45440 0.03000
C 	C 	0.79300 0.58430 0.38850 -0.19400
H 	H 	0.81020 0.55310 0.37320 0.10700
C 	C 	0.70370 0.63100 0.51800 0.19600
O 	O 	0.69910 0.58440 0.54870 -0.44800
O 	O 	0.66720 0.68130 0.51780 -0.41500
Zn	Zn	0.30362 0.58752 0.37162 1.20800
Zn	Zn	0.08743 0.80379 0.12868 1.20400
C 	C 	0.10940 0.38930 0.24830 -0.06900
C 	C 	0.05970 0.35420 0.26920 0.15300
H 	H 	0.03630 0.34440 0.23760 0.00500
H 	H 	0.07370 0.31980 0.28530 0.00800
O 	O 	0.03030 0.37930 0.30530 -0.29900
C 	C 	0.97360 0.37330 0.31170 0.33200
C 	C 	0.94470 0.41850 0.32960 -0.30400
H 	H 	0.96300 0.45210 0.33640 0.14900
C 	C 	0.88520 0.41390 0.33810 0.19200
H 	H 	0.86480 0.44490 0.34930 -0.01900
C 	C 	0.85890 0.36430 0.32990 -0.24800
C 	C 	0.88780 0.31890 0.31060 0.17100
H 	H 	0.86960 0.28530 0.30400 -0.01200
C 	C 	0.94890 0.32410 0.30050 -0.29600
H 	H 	0.96950 0.29420 0.28670 0.14000
C 	C 	0.79750 0.36120 0.33320 0.49500
O 	O 	0.77460 0.40280 0.35310 -0.53900
O 	O 	0.77540 0.31760 0.31910 -0.54500
C 	C 	0.08780 0.43920 0.21550 0.13700
H 	H 	0.06670 0.42640 0.18340 0.01100
H 	H 	0.06320 0.46130 0.23880 -0.00100
O 	O 	0.12970 0.47000 0.19860 -0.29900
C 	C 	0.13050 0.52540 0.18780 0.34900
C 	C 	0.08440 0.55230 0.17170 -0.32000
H 	H 	0.05030 0.53400 0.16960 0.14800
C 	C 	0.08940 0.61100 0.15770 0.18600
H 	H 	0.06010 0.62910 0.13980 -0.01600
C 	C 	0.13710 0.64030 0.17080 -0.24100
C 	C 	0.18190 0.61200 0.18970 0.18700
H 	H 	0.21530 0.63090 0.19590 -0.01700
C 	C 	0.17880 0.55260 0.20050 -0.31000
H 	H 	0.20890 0.53350 0.21580 0.14900
C 	C 	0.13800 0.70290 0.16520 0.47700
O 	O 	0.09830 0.72570 0.14680 -0.55400
O 	O 	0.18450 0.72470 0.18060 -0.51900
C 	C 	0.14220 0.34940 0.20510 0.08000
H 	H 	0.17110 0.36950 0.18510 0.02500
H 	H 	0.15840 0.31730 0.22370 0.02200
O 	O 	0.09990 0.33480 0.17120 -0.25200
C 	C 	0.11430 0.30060 0.12690 0.24000
C 	C 	0.16700 0.28160 0.11890 -0.20200
H 	H 	0.19510 0.28760 0.14510 0.10900
C 	C 	0.17770 0.25020 0.06490 0.06100
H 	H 	0.21370 0.24450 0.05140 0.02400
C 	C 	0.13170 0.23060 0.03710 -0.09000
C 	C 	0.07850 0.25010 0.04630 0.05300
H 	H 	0.04980 0.24270 0.02130 0.03300
C 	C 	0.06870 0.28280 0.09660 -0.19200
H 	H 	0.03260 0.29150 0.10800 0.11400
C 	C 	0.13040 0.19800 0.98290 0.25900
O 	O 	0.08620 0.19710 0.95480 -0.47000
O 	O 	0.18220 0.16940 0.98130 -0.43800
C 	C 	0.14910 0.40730 0.29270 0.07000
H 	H 	0.17790 0.43120 0.27730 0.02700
H 	H 	0.12960 0.42760 0.32180 0.02400
O 	O 	0.17220 0.35850 0.31380 -0.24200
C 	C 	0.19940 0.36530 0.36520 0.23100
C 	C 	0.22560 0.31860 0.38520 -0.18300
H 	H 	0.22300 0.28500 0.36600 0.11100
C 	C 	0.25800 0.32250 0.43780 0.04200
H 	H 	0.27400 0.29070 0.45330 0.03700
C 	C 	0.26430 0.37330 0.46360 -0.06700
C 	C 	0.24340 0.42180 0.43950 0.04700
H 	H 	0.25160 0.45670 0.45440 0.03000
C 	C 	0.20700 0.41570 0.38850 -0.19400
H 	H 	0.18980 0.44690 0.37320 0.10700
C 	C 	0.29630 0.36900 0.51800 0.19600
O 	O 	0.30090 0.41560 0.54870 -0.44800
O 	O 	0.33280 0.31870 0.51780 -0.41500
Zn	Zn	0.69638 0.41248 0.37162 1.20800
Zn	Zn	0.91257 0.19621 0.12868 1.20400
C 	C 	0.10940 0.61070 0.75170 -0.06900
C 	C 	0.05970 0.64580 0.73080 0.15300
H 	H 	0.03630 0.65560 0.76240 0.00500
H 	H 	0.07370 0.68020 0.71470 0.00800
O 	O 	0.03030 0.62070 0.69470 -0.29900
C 	C 	0.97360 0.62670 0.68830 0.33200
C 	C 	0.94470 0.58150 0.67040 -0.30400
H 	H 	0.96300 0.54790 0.66360 0.14900
C 	C 	0.88520 0.58610 0.66190 0.19200
H 	H 	0.86480 0.55510 0.65070 -0.01900
C 	C 	0.85890 0.63570 0.67010 -0.24800
C 	C 	0.88780 0.68110 0.68940 0.17100
H 	H 	0.86960 0.71470 0.69600 -0.01200
C 	C 	0.94890 0.67590 0.69950 -0.29600
H 	H 	0.96950 0.70580 0.71330 0.14000
C 	C 	0.79750 0.63880 0.66680 0.49500
O 	O 	0.77460 0.59720 0.64690 -0.53900
O 	O 	0.77540 0.68240 0.68090 -0.54500
C 	C 	0.08780 0.56080 0.78450 0.13700
H 	H 	0.06670 0.57360 0.81660 0.01100
H 	H 	0.06320 0.53870 0.76120 -0.00100
O 	O 	0.12970 0.53000 0.80140 -0.29900
C 	C 	0.13050 0.47460 0.81220 0.34900
C 	C 	0.08440 0.44770 0.82830 -0.32000
H 	H 	0.05030 0.46600 0.83040 0.14800
C 	C 	0.08940 0.38900 0.84230 0.18600
H 	H 	0.06010 0.37090 0.86020 -0.01600
C 	C 	0.13710 0.35970 0.82920 -0.24100
C 	C 	0.18190 0.38800 0.81030 0.18700
H 	H 	0.21530 0.36910 0.80410 -0.01700
C 	C 	0.17880 0.44740 0.79950 -0.31000
H 	H 	0.20890 0.46650 0.78420 0.14900
C 	C 	0.13800 0.29710 0.83480 0.47700
O 	O 	0.09830 0.27430 0.85320 -0.55400
O 	O 	0.18450 0.27530 0.81940 -0.51900
C 	C 	0.14220 0.65060 0.79490 0.08000
H 	H 	0.17110 0.63050 0.81490 0.02500
H 	H 	0.15840 0.68270 0.77630 0.02200
O 	O 	0.09990 0.66520 0.82880 -0.25200
C 	C 	0.11430 0.69940 0.87310 0.24000
C 	C 	0.16700 0.71840 0.88110 -0.20200
H 	H 	0.19510 0.71240 0.85490 0.10900
C 	C 	0.17770 0.74980 0.93510 0.06100
H 	H 	0.21370 0.75550 0.94860 0.02400
C 	C 	0.13170 0.76940 0.96290 -0.09000
C 	C 	0.07850 0.74990 0.95370 0.05300
H 	H 	0.04980 0.75730 0.97870 0.03300
C 	C 	0.06870 0.71720 0.90340 -0.19200
H 	H 	0.03260 0.70850 0.89200 0.11400
C 	C 	0.13040 0.80200 0.01710 0.25900
O 	O 	0.08620 0.80290 0.04520 -0.47000
O 	O 	0.18220 0.83060 0.01870 -0.43800
C 	C 	0.14910 0.59270 0.70730 0.07000
H 	H 	0.17790 0.56880 0.72270 0.02700
H 	H 	0.12960 0.57240 0.67820 0.02400
O 	O 	0.17220 0.64150 0.68620 -0.24200
C 	C 	0.19940 0.63470 0.63480 0.23100
C 	C 	0.22560 0.68140 0.61480 -0.18300
H 	H 	0.22300 0.71500 0.63400 0.11100
C 	C 	0.25800 0.67750 0.56220 0.04200
H 	H 	0.27400 0.70930 0.54670 0.03700
C 	C 	0.26430 0.62670 0.53640 -0.06700
C 	C 	0.24340 0.57820 0.56050 0.04700
H 	H 	0.25160 0.54330 0.54560 0.03000
C 	C 	0.20700 0.58430 0.61150 -0.19400
H 	H 	0.18980 0.55310 0.62680 0.10700
C 	C 	0.29630 0.63100 0.48200 0.19600
O 	O 	0.30090 0.58440 0.45130 -0.44800
O 	O 	0.33280 0.68130 0.48220 -0.41500
Zn	Zn	0.69638 0.58752 0.62838 1.20800
Zn	Zn	0.91257 0.80379 0.87132 1.20400
C 	C 	0.89060 0.38930 0.75170 -0.06900
C 	C 	0.94030 0.35420 0.73080 0.15300
H 	H 	0.96370 0.34440 0.76240 0.00500
H 	H 	0.92630 0.31980 0.71470 0.00800
O 	O 	0.96970 0.37930 0.69470 -0.29900
C 	C 	0.02640 0.37330 0.68830 0.33200
C 	C 	0.05530 0.41850 0.67040 -0.30400
H 	H 	0.03700 0.45210 0.66360 0.14900
C 	C 	0.11480 0.41390 0.66190 0.19200
H 	H 	0.13520 0.44490 0.65070 -0.01900
C 	C 	0.14110 0.36430 0.67010 -0.24800
C 	C 	0.11220 0.31890 0.68940 0.17100
H 	H 	0.13040 0.28530 0.69600 -0.01200
C 	C 	0.05110 0.32410 0.69950 -0.29600
H 	H 	0.03050 0.29420 0.71330 0.14000
C 	C 	0.20250 0.36120 0.66680 0.49500
O 	O 	0.22540 0.40280 0.64690 -0.53900
O 	O 	0.22460 0.31760 0.68090 -0.54500
C 	C 	0.91220 0.43920 0.78450 0.13700
H 	H 	0.93330 0.42640 0.81660 0.01100
H 	H 	0.93680 0.46130 0.76120 -0.00100
O 	O 	0.87030 0.47000 0.80140 -0.29900
C 	C 	0.86950 0.52540 0.81220 0.34900
C 	C 	0.91560 0.55230 0.82830 -0.32000
H 	H 	0.94970 0.53400 0.83040 0.14800
C 	C 	0.91060 0.61100 0.84230 0.18600
H 	H 	0.93990 0.62910 0.86020 -0.01600
C 	C 	0.86290 0.64030 0.82920 -0.24100
C 	C 	0.81810 0.61200 0.81030 0.18700
H 	H 	0.78470 0.63090 0.80410 -0.01700
C 	C 	0.82120 0.55260 0.79950 -0.31000
H 	H 	0.79110 0.53350 0.78420 0.14900
C 	C 	0.86200 0.70290 0.83480 0.47700
O 	O 	0.90170 0.72570 0.85320 -0.55400
O 	O 	0.81550 0.72470 0.81940 -0.51900
C 	C 	0.85780 0.34940 0.79490 0.08000
H 	H 	0.82890 0.36950 0.81490 0.02500
H 	H 	0.84160 0.31730 0.77630 0.02200
O 	O 	0.90010 0.33480 0.82880 -0.25200
C 	C 	0.88570 0.30060 0.87310 0.24000
C 	C 	0.83300 0.28160 0.88110 -0.20200
H 	H 	0.80490 0.28760 0.85490 0.10900
C 	C 	0.82230 0.25020 0.93510 0.06100
H 	H 	0.78630 0.24450 0.94860 0.02400
C 	C 	0.86830 0.23060 0.96290 -0.09000
C 	C 	0.92150 0.25010 0.95370 0.05300
H 	H 	0.95020 0.24270 0.97870 0.03300
C 	C 	0.93130 0.28280 0.90340 -0.19200
H 	H 	0.96740 0.29150 0.89200 0.11400
C 	C 	0.86960 0.19800 0.01710 0.25900
O 	O 	0.91380 0.19710 0.04520 -0.47000
O 	O 	0.81780 0.16940 0.01870 -0.43800
C 	C 	0.85090 0.40730 0.70730 0.07000
H 	H 	0.82210 0.43120 0.72270 0.02700
H 	H 	0.87040 0.42760 0.67820 0.02400
O 	O 	0.82780 0.35850 0.68620 -0.24200
C 	C 	0.80060 0.36530 0.63480 0.23100
C 	C 	0.77440 0.31860 0.61480 -0.18300
H 	H 	0.77700 0.28500 0.63400 0.11100
C 	C 	0.74200 0.32250 0.56220 0.04200
H 	H 	0.72600 0.29070 0.54670 0.03700
C 	C 	0.73570 0.37330 0.53640 -0.06700
C 	C 	0.75660 0.42180 0.56050 0.04700
H 	H 	0.74840 0.45670 0.54560 0.03000
C 	C 	0.79300 0.41570 0.61150 -0.19400
H 	H 	0.81020 0.44690 0.62680 0.10700
C 	C 	0.70370 0.36900 0.48200 0.19600
O 	O 	0.69910 0.41560 0.45130 -0.44800
O 	O 	0.66720 0.31870 0.48220 -0.41500
Zn	Zn	0.30362 0.41248 0.62838 1.20800
Zn	Zn	0.08743 0.19621 0.87132 1.20400
C 	C 	0.24830 0.89060 0.61070 -0.06900
C 	C 	0.26920 0.94030 0.64580 0.15300
H 	H 	0.23760 0.96370 0.65560 0.00500
H 	H 	0.28530 0.92630 0.68020 0.00800
O 	O 	0.30530 0.96970 0.62070 -0.29900
C 	C 	0.31170 0.02640 0.62670 0.33200
C 	C 	0.32960 0.05530 0.58150 -0.30400
H 	H 	0.33640 0.03700 0.54790 0.14900
C 	C 	0.33810 0.11480 0.58610 0.19200
H 	H 	0.34930 0.13520 0.55510 -0.01900
C 	C 	0.32990 0.14110 0.63570 -0.24800
C 	C 	0.31060 0.11220 0.68110 0.17100
H 	H 	0.30400 0.13040 0.71470 -0.01200
C 	C 	0.30050 0.05110 0.67590 -0.29600
H 	H 	0.28670 0.03050 0.70580 0.14000
C 	C 	0.33320 0.20250 0.63880 0.49500
O 	O 	0.35310 0.22540 0.59720 -0.53900
O 	O 	0.31910 0.22460 0.68240 -0.54500
C 	C 	0.21550 0.91220 0.56080 0.13700
H 	H 	0.18340 0.93330 0.57360 0.01100
H 	H 	0.23880 0.93680 0.53870 -0.00100
O 	O 	0.19860 0.87030 0.53000 -0.29900
C 	C 	0.18780 0.86950 0.47460 0.34900
C 	C 	0.17170 0.91560 0.44770 -0.32000
H 	H 	0.16960 0.94970 0.46600 0.14800
C 	C 	0.15770 0.91060 0.38900 0.18600
H 	H 	0.13980 0.93990 0.37090 -0.01600
C 	C 	0.17080 0.86290 0.35970 -0.24100
C 	C 	0.18970 0.81810 0.38800 0.18700
H 	H 	0.19590 0.78470 0.36910 -0.01700
C 	C 	0.20050 0.82120 0.44740 -0.31000
H 	H 	0.21580 0.79110 0.46650 0.14900
C 	C 	0.16520 0.86200 0.29710 0.47700
O 	O 	0.14680 0.90170 0.27430 -0.55400
O 	O 	0.18060 0.81550 0.27530 -0.51900
C 	C 	0.20510 0.85780 0.65060 0.08000
H 	H 	0.18510 0.82890 0.63050 0.02500
H 	H 	0.22370 0.84160 0.68270 0.02200
O 	O 	0.17120 0.90010 0.66520 -0.25200
C 	C 	0.12690 0.88570 0.69940 0.24000
C 	C 	0.11890 0.83300 0.71840 -0.20200
H 	H 	0.14510 0.80490 0.71240 0.10900
C 	C 	0.06490 0.82230 0.74980 0.06100
H 	H 	0.05140 0.78630 0.75550 0.02400
C 	C 	0.03710 0.86830 0.76940 -0.09000
C 	C 	0.04630 0.92150 0.74990 0.05300
H 	H 	0.02130 0.95020 0.75730 0.03300
C 	C 	0.09660 0.93130 0.71720 -0.19200
H 	H 	0.10800 0.96740 0.70850 0.11400
C 	C 	0.98290 0.86960 0.80200 0.25900
O 	O 	0.95480 0.91380 0.80290 -0.47000
O 	O 	0.98130 0.81780 0.83060 -0.43800
C 	C 	0.29270 0.85090 0.59270 0.07000
H 	H 	0.27730 0.82210 0.56880 0.02700
H 	H 	0.32180 0.87040 0.57240 0.02400
O 	O 	0.31380 0.82780 0.64150 -0.24200
C 	C 	0.36520 0.80060 0.63470 0.23100
C 	C 	0.38520 0.77440 0.68140 -0.18300
H 	H 	0.36600 0.77700 0.71500 0.11100
C 	C 	0.43780 0.74200 0.67750 0.04200
H 	H 	0.45330 0.72600 0.70930 0.03700
C 	C 	0.46360 0.73570 0.62670 -0.06700
C 	C 	0.43950 0.75660 0.57820 0.04700
H 	H 	0.45440 0.74840 0.54330 0.03000
C 	C 	0.38850 0.79300 0.58430 -0.19400
H 	H 	0.37320 0.81020 0.55310 0.10700
C 	C 	0.51800 0.70370 0.63100 0.19600
O 	O 	0.54870 0.69910 0.58440 -0.44800
O 	O 	0.51780 0.66720 0.68130 -0.41500
Zn	Zn	0.37162 0.30362 0.58752 1.20800
Zn	Zn	0.12868 0.08743 0.80379 1.20400
C 	C 	0.24830 0.10940 0.38930 -0.06900
C 	C 	0.26920 0.05970 0.35420 0.15300
H 	H 	0.23760 0.03630 0.34440 0.00500
H 	H 	0.28530 0.07370 0.31980 0.00800
O 	O 	0.30530 0.03030 0.37930 -0.29900
C 	C 	0.31170 0.97360 0.37330 0.33200
C 	C 	0.32960 0.94470 0.41850 -0.30400
H 	H 	0.33640 0.96300 0.45210 0.14900
C 	C 	0.33810 0.88520 0.41390 0.19200
H 	H 	0.34930 0.86480 0.44490 -0.01900
C 	C 	0.32990 0.85890 0.36430 -0.24800
C 	C 	0.31060 0.88780 0.31890 0.17100
H 	H 	0.30400 0.86960 0.28530 -0.01200
C 	C 	0.30050 0.94890 0.32410 -0.29600
H 	H 	0.28670 0.96950 0.29420 0.14000
C 	C 	0.33320 0.79750 0.36120 0.49500
O 	O 	0.35310 0.77460 0.40280 -0.53900
O 	O 	0.31910 0.77540 0.31760 -0.54500
C 	C 	0.21550 0.08780 0.43920 0.13700
H 	H 	0.18340 0.06670 0.42640 0.01100
H 	H 	0.23880 0.06320 0.46130 -0.00100
O 	O 	0.19860 0.12970 0.47000 -0.29900
C 	C 	0.18780 0.13050 0.52540 0.34900
C 	C 	0.17170 0.08440 0.55230 -0.32000
H 	H 	0.16960 0.05030 0.53400 0.14800
C 	C 	0.15770 0.08940 0.61100 0.18600
H 	H 	0.13980 0.06010 0.62910 -0.01600
C 	C 	0.17080 0.13710 0.64030 -0.24100
C 	C 	0.18970 0.18190 0.61200 0.18700
H 	H 	0.19590 0.21530 0.63090 -0.01700
C 	C 	0.20050 0.17880 0.55260 -0.31000
H 	H 	0.21580 0.20890 0.53350 0.14900
C 	C 	0.16520 0.13800 0.70290 0.47700
O 	O 	0.14680 0.09830 0.72570 -0.55400
O 	O 	0.18060 0.18450 0.72470 -0.51900
C 	C 	0.20510 0.14220 0.34940 0.08000
H 	H 	0.18510 0.17110 0.36950 0.02500
H 	H 	0.22370 0.15840 0.31730 0.02200
O 	O 	0.17120 0.09990 0.33480 -0.25200
C 	C 	0.12690 0.11430 0.30060 0.24000
C 	C 	0.11890 0.16700 0.28160 -0.20200
H 	H 	0.14510 0.19510 0.28760 0.10900
C 	C 	0.06490 0.17770 0.25020 0.06100
H 	H 	0.05140 0.21370 0.24450 0.02400
C 	C 	0.03710 0.13170 0.23060 -0.09000
C 	C 	0.04630 0.07850 0.25010 0.05300
H 	H 	0.02130 0.04980 0.24270 0.03300
C 	C 	0.09660 0.06870 0.28280 -0.19200
H 	H 	0.10800 0.03260 0.29150 0.11400
C 	C 	0.98290 0.13040 0.19800 0.25900
O 	O 	0.95480 0.08620 0.19710 -0.47000
O 	O 	0.98130 0.18220 0.16940 -0.43800
C 	C 	0.29270 0.14910 0.40730 0.07000
H 	H 	0.27730 0.17790 0.43120 0.02700
H 	H 	0.32180 0.12960 0.42760 0.02400
O 	O 	0.31380 0.17220 0.35850 -0.24200
C 	C 	0.36520 0.19940 0.36530 0.23100
C 	C 	0.38520 0.22560 0.31860 -0.18300
H 	H 	0.36600 0.22300 0.28500 0.11100
C 	C 	0.43780 0.25800 0.32250 0.04200
H 	H 	0.45330 0.27400 0.29070 0.03700
C 	C 	0.46360 0.26430 0.37330 -0.06700
C 	C 	0.43950 0.24340 0.42180 0.04700
H 	H 	0.45440 0.25160 0.45670 0.03000
C 	C 	0.38850 0.20700 0.41570 -0.19400
H 	H 	0.37320 0.18980 0.44690 0.10700
C 	C 	0.51800 0.29630 0.36900 0.19600
O 	O 	0.54870 0.30090 0.41560 -0.44800
O 	O 	0.51780 0.33280 0.31870 -0.41500
Zn	Zn	0.37162 0.69638 0.41248 1.20800
Zn	Zn	0.12868 0.91257 0.19621 1.20400
C 	C 	0.75170 0.10940 0.61070 -0.06900
C 	C 	0.73080 0.05970 0.64580 0.15300
H 	H 	0.76240 0.03630 0.65560 0.00500
H 	H 	0.71470 0.07370 0.68020 0.00800
O 	O 	0.69470 0.03030 0.62070 -0.29900
C 	C 	0.68830 0.97360 0.62670 0.33200
C 	C 	0.67040 0.94470 0.58150 -0.30400
H 	H 	0.66360 0.96300 0.54790 0.14900
C 	C 	0.66190 0.88520 0.58610 0.19200
H 	H 	0.65070 0.86480 0.55510 -0.01900
C 	C 	0.67010 0.85890 0.63570 -0.24800
C 	C 	0.68940 0.88780 0.68110 0.17100
H 	H 	0.69600 0.86960 0.71470 -0.01200
C 	C 	0.69950 0.94890 0.67590 -0.29600
H 	H 	0.71330 0.96950 0.70580 0.14000
C 	C 	0.66680 0.79750 0.63880 0.49500
O 	O 	0.64690 0.77460 0.59720 -0.53900
O 	O 	0.68090 0.77540 0.68240 -0.54500
C 	C 	0.78450 0.08780 0.56080 0.13700
H 	H 	0.81660 0.06670 0.57360 0.01100
H 	H 	0.76120 0.06320 0.53870 -0.00100
O 	O 	0.80140 0.12970 0.53000 -0.29900
C 	C 	0.81220 0.13050 0.47460 0.34900
C 	C 	0.82830 0.08440 0.44770 -0.32000
H 	H 	0.83040 0.05030 0.46600 0.14800
C 	C 	0.84230 0.08940 0.38900 0.18600
H 	H 	0.86020 0.06010 0.37090 -0.01600
C 	C 	0.82920 0.13710 0.35970 -0.24100
C 	C 	0.81030 0.18190 0.38800 0.18700
H 	H 	0.80410 0.21530 0.36910 -0.01700
C 	C 	0.79950 0.17880 0.44740 -0.31000
H 	H 	0.78420 0.20890 0.46650 0.14900
C 	C 	0.83480 0.13800 0.29710 0.47700
O 	O 	0.85320 0.09830 0.27430 -0.55400
O 	O 	0.81940 0.18450 0.27530 -0.51900
C 	C 	0.79490 0.14220 0.65060 0.08000
H 	H 	0.81490 0.17110 0.63050 0.02500
H 	H 	0.77630 0.15840 0.68270 0.02200
O 	O 	0.82880 0.09990 0.66520 -0.25200
C 	C 	0.87310 0.11430 0.69940 0.24000
C 	C 	0.88110 0.16700 0.71840 -0.20200
H 	H 	0.85490 0.19510 0.71240 0.10900
C 	C 	0.93510 0.17770 0.74980 0.06100
H 	H 	0.94860 0.21370 0.75550 0.02400
C 	C 	0.96290 0.13170 0.76940 -0.09000
C 	C 	0.95370 0.07850 0.74990 0.05300
H 	H 	0.97870 0.04980 0.75730 0.03300
C 	C 	0.90340 0.06870 0.71720 -0.19200
H 	H 	0.89200 0.03260 0.70850 0.11400
C 	C 	0.01710 0.13040 0.80200 0.25900
O 	O 	0.04520 0.08620 0.80290 -0.47000
O 	O 	0.01870 0.18220 0.83060 -0.43800
C 	C 	0.70730 0.14910 0.59270 0.07000
H 	H 	0.72270 0.17790 0.56880 0.02700
H 	H 	0.67820 0.12960 0.57240 0.02400
O 	O 	0.68620 0.17220 0.64150 -0.24200
C 	C 	0.63480 0.19940 0.63470 0.23100
C 	C 	0.61480 0.22560 0.68140 -0.18300
H 	H 	0.63400 0.22300 0.71500 0.11100
C 	C 	0.56220 0.25800 0.67750 0.04200
H 	H 	0.54670 0.27400 0.70930 0.03700
C 	C 	0.53640 0.26430 0.62670 -0.06700
C 	C 	0.56050 0.24340 0.57820 0.04700
H 	H 	0.54560 0.25160 0.54330 0.03000
C 	C 	0.61150 0.20700 0.58430 -0.19400
H 	H 	0.62680 0.18980 0.55310 0.10700
C 	C 	0.48200 0.29630 0.63100 0.19600
O 	O 	0.45130 0.30090 0.58440 -0.44800
O 	O 	0.48220 0.33280 0.68130 -0.41500
Zn	Zn	0.62838 0.69638 0.58752 1.20800
Zn	Zn	0.87132 0.91257 0.80379 1.20400
C 	C 	0.75170 0.89060 0.38930 -0.06900
C 	C 	0.73080 0.94030 0.35420 0.15300
H 	H 	0.76240 0.96370 0.34440 0.00500
H 	H 	0.71470 0.92630 0.31980 0.00800
O 	O 	0.69470 0.96970 0.37930 -0.29900
C 	C 	0.68830 0.02640 0.37330 0.33200
C 	C 	0.67040 0.05530 0.41850 -0.30400
H 	H 	0.66360 0.03700 0.45210 0.14900
C 	C 	0.66190 0.11480 0.41390 0.19200
H 	H 	0.65070 0.13520 0.44490 -0.01900
C 	C 	0.67010 0.14110 0.36430 -0.24800
C 	C 	0.68940 0.11220 0.31890 0.17100
H 	H 	0.69600 0.13040 0.28530 -0.01200
C 	C 	0.69950 0.05110 0.32410 -0.29600
H 	H 	0.71330 0.03050 0.29420 0.14000
C 	C 	0.66680 0.20250 0.36120 0.49500
O 	O 	0.64690 0.22540 0.40280 -0.53900
O 	O 	0.68090 0.22460 0.31760 -0.54500
C 	C 	0.78450 0.91220 0.43920 0.13700
H 	H 	0.81660 0.93330 0.42640 0.01100
H 	H 	0.76120 0.93680 0.46130 -0.00100
O 	O 	0.80140 0.87030 0.47000 -0.29900
C 	C 	0.81220 0.86950 0.52540 0.34900
C 	C 	0.82830 0.91560 0.55230 -0.32000
H 	H 	0.83040 0.94970 0.53400 0.14800
C 	C 	0.84230 0.91060 0.61100 0.18600
H 	H 	0.86020 0.93990 0.62910 -0.01600
C 	C 	0.82920 0.86290 0.64030 -0.24100
C 	C 	0.81030 0.81810 0.61200 0.18700
H 	H 	0.80410 0.78470 0.63090 -0.01700
C 	C 	0.79950 0.82120 0.55260 -0.31000
H 	H 	0.78420 0.79110 0.53350 0.14900
C 	C 	0.83480 0.86200 0.70290 0.47700
O 	O 	0.85320 0.90170 0.72570 -0.55400
O 	O 	0.81940 0.81550 0.72470 -0.51900
C 	C 	0.79490 0.85780 0.34940 0.08000
H 	H 	0.81490 0.82890 0.36950 0.02500
H 	H 	0.77630 0.84160 0.31730 0.02200
O 	O 	0.82880 0.90010 0.33480 -0.25200
C 	C 	0.87310 0.88570 0.30060 0.24000
C 	C 	0.88110 0.83300 0.28160 -0.20200
H 	H 	0.85490 0.80490 0.28760 0.10900
C 	C 	0.93510 0.82230 0.25020 0.06100
H 	H 	0.94860 0.78630 0.24450 0.02400
C 	C 	0.96290 0.86830 0.23060 -0.09000
C 	C 	0.95370 0.92150 0.25010 0.05300
H 	H 	0.97870 0.95020 0.24270 0.03300
C 	C 	0.90340 0.93130 0.28280 -0.19200
H 	H 	0.89200 0.96740 0.29150 0.11400
C 	C 	0.01710 0.86960 0.19800 0.25900
O 	O 	0.04520 0.91380 0.19710 -0.47000
O 	O 	0.01870 0.81780 0.16940 -0.43800
C 	C 	0.70730 0.85090 0.40730 0.07000
H 	H 	0.72270 0.82210 0.43120 0.02700
H 	H 	0.67820 0.87040 0.42760 0.02400
O 	O 	0.68620 0.82780 0.35850 -0.24200
C 	C 	0.63480 0.80060 0.36530 0.23100
C 	C 	0.61480 0.77440 0.31860 -0.18300
H 	H 	0.63400 0.77700 0.28500 0.11100
C 	C 	0.56220 0.74200 0.32250 0.04200
H 	H 	0.54670 0.72600 0.29070 0.03700
C 	C 	0.53640 0.73570 0.37330 -0.06700
C 	C 	0.56050 0.75660 0.42180 0.04700
H 	H 	0.54560 0.74840 0.45670 0.03000
C 	C 	0.61150 0.79300 0.41570 -0.19400
H 	H 	0.62680 0.81020 0.44690 0.10700
C 	C 	0.48200 0.70370 0.36900 0.19600
O 	O 	0.45130 0.69910 0.41560 -0.44800
O 	O 	0.48220 0.66720 0.31870 -0.41500
Zn	Zn	0.62838 0.30362 0.41248 1.20800
Zn	Zn	0.87132 0.08743 0.19621 1.20400
C 	C 	0.61070 0.24830 0.89060 -0.06900
C 	C 	0.64580 0.26920 0.94030 0.15300
H 	H 	0.65560 0.23760 0.96370 0.00500
H 	H 	0.68020 0.28530 0.92630 0.00800
O 	O 	0.62070 0.30530 0.96970 -0.29900
C 	C 	0.62670 0.31170 0.02640 0.33200
C 	C 	0.58150 0.32960 0.05530 -0.30400
H 	H 	0.54790 0.33640 0.03700 0.14900
C 	C 	0.58610 0.33810 0.11480 0.19200
H 	H 	0.55510 0.34930 0.13520 -0.01900
C 	C 	0.63570 0.32990 0.14110 -0.24800
C 	C 	0.68110 0.31060 0.11220 0.17100
H 	H 	0.71470 0.30400 0.13040 -0.01200
C 	C 	0.67590 0.30050 0.05110 -0.29600
H 	H 	0.70580 0.28670 0.03050 0.14000
C 	C 	0.63880 0.33320 0.20250 0.49500
O 	O 	0.59720 0.35310 0.22540 -0.53900
O 	O 	0.68240 0.31910 0.22460 -0.54500
C 	C 	0.56080 0.21550 0.91220 0.13700
H 	H 	0.57360 0.18340 0.93330 0.01100
H 	H 	0.53870 0.23880 0.93680 -0.00100
O 	O 	0.53000 0.19860 0.87030 -0.29900
C 	C 	0.47460 0.18780 0.86950 0.34900
C 	C 	0.44770 0.17170 0.91560 -0.32000
H 	H 	0.46600 0.16960 0.94970 0.14800
C 	C 	0.38900 0.15770 0.91060 0.18600
H 	H 	0.37090 0.13980 0.93990 -0.01600
C 	C 	0.35970 0.17080 0.86290 -0.24100
C 	C 	0.38800 0.18970 0.81810 0.18700
H 	H 	0.36910 0.19590 0.78470 -0.01700
C 	C 	0.44740 0.20050 0.82120 -0.31000
H 	H 	0.46650 0.21580 0.79110 0.14900
C 	C 	0.29710 0.16520 0.86200 0.47700
O 	O 	0.27430 0.14680 0.90170 -0.55400
O 	O 	0.27530 0.18060 0.81550 -0.51900
C 	C 	0.65060 0.20510 0.85780 0.08000
H 	H 	0.63050 0.18510 0.82890 0.02500
H 	H 	0.68270 0.22370 0.84160 0.02200
O 	O 	0.66520 0.17120 0.90010 -0.25200
C 	C 	0.69940 0.12690 0.88570 0.24000
C 	C 	0.71840 0.11890 0.83300 -0.20200
H 	H 	0.71240 0.14510 0.80490 0.10900
C 	C 	0.74980 0.06490 0.82230 0.06100
H 	H 	0.75550 0.05140 0.78630 0.02400
C 	C 	0.76940 0.03710 0.86830 -0.09000
C 	C 	0.74990 0.04630 0.92150 0.05300
H 	H 	0.75730 0.02130 0.95020 0.03300
C 	C 	0.71720 0.09660 0.93130 -0.19200
H 	H 	0.70850 0.10800 0.96740 0.11400
C 	C 	0.80200 0.98290 0.86960 0.25900
O 	O 	0.80290 0.95480 0.91380 -0.47000
O 	O 	0.83060 0.98130 0.81780 -0.43800
C 	C 	0.59270 0.29270 0.85090 0.07000
H 	H 	0.56880 0.27730 0.82210 0.02700
H 	H 	0.57240 0.32180 0.87040 0.02400
O 	O 	0.64150 0.31380 0.82780 -0.24200
C 	C 	0.63470 0.36520 0.80060 0.23100
C 	C 	0.68140 0.38520 0.77440 -0.18300
H 	H 	0.71500 0.36600 0.77700 0.11100
C 	C 	0.67750 0.43780 0.74200 0.04200
H 	H 	0.70930 0.45330 0.72600 0.03700
C 	C 	0.62670 0.46360 0.73570 -0.06700
C 	C 	0.57820 0.43950 0.75660 0.04700
H 	H 	0.54330 0.45440 0.74840 0.03000
C 	C 	0.58430 0.38850 0.79300 -0.19400
H 	H 	0.55310 0.37320 0.81020 0.10700
C 	C 	0.63100 0.51800 0.70370 0.19600
O 	O 	0.58440 0.54870 0.69910 -0.44800
O 	O 	0.68130 0.51780 0.66720 -0.41500
Zn	Zn	0.58752 0.37162 0.30362 1.20800
Zn	Zn	0.80379 0.12868 0.08743 1.20400
C 	C 	0.38930 0.24830 0.10940 -0.06900
C 	C 	0.35420 0.26920 0.05970 0.15300
H 	H 	0.34440 0.23760 0.03630 0.00500
H 	H 	0.31980 0.28530 0.07370 0.00800
O 	O 	0.37930 0.30530 0.03030 -0.29900
C 	C 	0.37330 0.31170 0.97360 0.33200
C 	C 	0.41850 0.32960 0.94470 -0.30400
H 	H 	0.45210 0.33640 0.96300 0.14900
C 	C 	0.41390 0.33810 0.88520 0.19200
H 	H 	0.44490 0.34930 0.86480 -0.01900
C 	C 	0.36430 0.32990 0.85890 -0.24800
C 	C 	0.31890 0.31060 0.88780 0.17100
H 	H 	0.28530 0.30400 0.86960 -0.01200
C 	C 	0.32410 0.30050 0.94890 -0.29600
H 	H 	0.29420 0.28670 0.96950 0.14000
C 	C 	0.36120 0.33320 0.79750 0.49500
O 	O 	0.40280 0.35310 0.77460 -0.53900
O 	O 	0.31760 0.31910 0.77540 -0.54500
C 	C 	0.43920 0.21550 0.08780 0.13700
H 	H 	0.42640 0.18340 0.06670 0.01100
H 	H 	0.46130 0.23880 0.06320 -0.00100
O 	O 	0.47000 0.19860 0.12970 -0.29900
C 	C 	0.52540 0.18780 0.13050 0.34900
C 	C 	0.55230 0.17170 0.08440 -0.32000
H 	H 	0.53400 0.16960 0.05030 0.14800
C 	C 	0.61100 0.15770 0.08940 0.18600
H 	H 	0.62910 0.13980 0.06010 -0.01600
C 	C 	0.64030 0.17080 0.13710 -0.24100
C 	C 	0.61200 0.18970 0.18190 0.18700
H 	H 	0.63090 0.19590 0.21530 -0.01700
C 	C 	0.55260 0.20050 0.17880 -0.31000
H 	H 	0.53350 0.21580 0.20890 0.14900
C 	C 	0.70290 0.16520 0.13800 0.47700
O 	O 	0.72570 0.14680 0.09830 -0.55400
O 	O 	0.72470 0.18060 0.18450 -0.51900
C 	C 	0.34940 0.20510 0.14220 0.08000
H 	H 	0.36950 0.18510 0.17110 0.02500
H 	H 	0.31730 0.22370 0.15840 0.02200
O 	O 	0.33480 0.17120 0.09990 -0.25200
C 	C 	0.30060 0.12690 0.11430 0.24000
C 	C 	0.28160 0.11890 0.16700 -0.20200
H 	H 	0.28760 0.14510 0.19510 0.10900
C 	C 	0.25020 0.06490 0.17770 0.06100
H 	H 	0.24450 0.05140 0.21370 0.02400
C 	C 	0.23060 0.03710 0.13170 -0.09000
C 	C 	0.25010 0.04630 0.07850 0.05300
H 	H 	0.24270 0.02130 0.04980 0.03300
C 	C 	0.28280 0.09660 0.06870 -0.19200
H 	H 	0.29150 0.10800 0.03260 0.11400
C 	C 	0.19800 0.98290 0.13040 0.25900
O 	O 	0.19710 0.95480 0.08620 -0.47000
O 	O 	0.16940 0.98130 0.18220 -0.43800
C 	C 	0.40730 0.29270 0.14910 0.07000
H 	H 	0.43120 0.27730 0.17790 0.02700
H 	H 	0.42760 0.32180 0.12960 0.02400
O 	O 	0.35850 0.31380 0.17220 -0.24200
C 	C 	0.36530 0.36520 0.19940 0.23100
C 	C 	0.31860 0.38520 0.22560 -0.18300
H 	H 	0.28500 0.36600 0.22300 0.11100
C 	C 	0.32250 0.43780 0.25800 0.04200
H 	H 	0.29070 0.45330 0.27400 0.03700
C 	C 	0.37330 0.46360 0.26430 -0.06700
C 	C 	0.42180 0.43950 0.24340 0.04700
H 	H 	0.45670 0.45440 0.25160 0.03000
C 	C 	0.41570 0.38850 0.20700 -0.19400
H 	H 	0.44690 0.37320 0.18980 0.10700
C 	C 	0.36900 0.51800 0.29630 0.19600
O 	O 	0.41560 0.54870 0.30090 -0.44800
O 	O 	0.31870 0.51780 0.33280 -0.41500
Zn	Zn	0.41248 0.37162 0.69638 1.20800
Zn	Zn	0.19621 0.12868 0.91257 1.20400
C 	C 	0.61070 0.75170 0.10940 -0.06900
C 	C 	0.64580 0.73080 0.05970 0.15300
H 	H 	0.65560 0.76240 0.03630 0.00500
H 	H 	0.68020 0.71470 0.07370 0.00800
O 	O 	0.62070 0.69470 0.03030 -0.29900
C 	C 	0.62670 0.68830 0.97360 0.33200
C 	C 	0.58150 0.67040 0.94470 -0.30400
H 	H 	0.54790 0.66360 0.96300 0.14900
C 	C 	0.58610 0.66190 0.88520 0.19200
H 	H 	0.55510 0.65070 0.86480 -0.01900
C 	C 	0.63570 0.67010 0.85890 -0.24800
C 	C 	0.68110 0.68940 0.88780 0.17100
H 	H 	0.71470 0.69600 0.86960 -0.01200
C 	C 	0.67590 0.69950 0.94890 -0.29600
H 	H 	0.70580 0.71330 0.96950 0.14000
C 	C 	0.63880 0.66680 0.79750 0.49500
O 	O 	0.59720 0.64690 0.77460 -0.53900
O 	O 	0.68240 0.68090 0.77540 -0.54500
C 	C 	0.56080 0.78450 0.08780 0.13700
H 	H 	0.57360 0.81660 0.06670 0.01100
H 	H 	0.53870 0.76120 0.06320 -0.00100
O 	O 	0.53000 0.80140 0.12970 -0.29900
C 	C 	0.47460 0.81220 0.13050 0.34900
C 	C 	0.44770 0.82830 0.08440 -0.32000
H 	H 	0.46600 0.83040 0.05030 0.14800
C 	C 	0.38900 0.84230 0.08940 0.18600
H 	H 	0.37090 0.86020 0.06010 -0.01600
C 	C 	0.35970 0.82920 0.13710 -0.24100
C 	C 	0.38800 0.81030 0.18190 0.18700
H 	H 	0.36910 0.80410 0.21530 -0.01700
C 	C 	0.44740 0.79950 0.17880 -0.31000
H 	H 	0.46650 0.78420 0.20890 0.14900
C 	C 	0.29710 0.83480 0.13800 0.47700
O 	O 	0.27430 0.85320 0.09830 -0.55400
O 	O 	0.27530 0.81940 0.18450 -0.51900
C 	C 	0.65060 0.79490 0.14220 0.08000
H 	H 	0.63050 0.81490 0.17110 0.02500
H 	H 	0.68270 0.77630 0.15840 0.02200
O 	O 	0.66520 0.82880 0.09990 -0.25200
C 	C 	0.69940 0.87310 0.11430 0.24000
C 	C 	0.71840 0.88110 0.16700 -0.20200
H 	H 	0.71240 0.85490 0.19510 0.10900
C 	C 	0.74980 0.93510 0.17770 0.06100
H 	H 	0.75550 0.94860 0.21370 0.02400
C 	C 	0.76940 0.96290 0.13170 -0.09000
C 	C 	0.74990 0.95370 0.07850 0.05300
H 	H 	0.75730 0.97870 0.04980 0.03300
C 	C 	0.71720 0.90340 0.06870 -0.19200
H 	H 	0.70850 0.89200 0.03260 0.11400
C 	C 	0.80200 0.01710 0.13040 0.25900
O 	O 	0.80290 0.04520 0.08620 -0.47000
O 	O 	0.83060 0.01870 0.18220 -0.43800
C 	C 	0.59270 0.70730 0.14910 0.07000
H 	H 	0.56880 0.72270 0.17790 0.02700
H 	H 	0.57240 0.67820 0.12960 0.02400
O 	O 	0.64150 0.68620 0.17220 -0.24200
C 	C 	0.63470 0.63480 0.19940 0.23100
C 	C 	0.68140 0.61480 0.22560 -0.18300
H 	H 	0.71500 0.63400 0.22300 0.11100
C 	C 	0.67750 0.56220 0.25800 0.04200
H 	H 	0.70930 0.54670 0.27400 0.03700
C 	C 	0.62670 0.53640 0.26430 -0.06700
C 	C 	0.57820 0.56050 0.24340 0.04700
H 	H 	0.54330 0.54560 0.25160 0.03000
C 	C 	0.58430 0.61150 0.20700 -0.19400
H 	H 	0.55310 0.62680 0.18980 0.10700
C 	C 	0.63100 0.48200 0.29630 0.19600
O 	O 	0.58440 0.45130 0.30090 -0.44800
O 	O 	0.68130 0.48220 0.33280 -0.41500
Zn	Zn	0.58752 0.62838 0.69638 1.20800
Zn	Zn	0.80379 0.87132 0.91257 1.20400
C 	C 	0.38930 0.75170 0.89060 -0.06900
C 	C 	0.35420 0.73080 0.94030 0.15300
H 	H 	0.34440 0.76240 0.96370 0.00500
H 	H 	0.31980 0.71470 0.92630 0.00800
O 	O 	0.37930 0.69470 0.96970 -0.29900
C 	C 	0.37330 0.68830 0.02640 0.33200
C 	C 	0.41850 0.67040 0.05530 -0.30400
H 	H 	0.45210 0.66360 0.03700 0.14900
C 	C 	0.41390 0.66190 0.11480 0.19200
H 	H 	0.44490 0.65070 0.13520 -0.01900
C 	C 	0.36430 0.67010 0.14110 -0.24800
C 	C 	0.31890 0.68940 0.11220 0.17100
H 	H 	0.28530 0.69600 0.13040 -0.01200
C 	C 	0.32410 0.69950 0.05110 -0.29600
H 	H 	0.29420 0.71330 0.03050 0.14000
C 	C 	0.36120 0.66680 0.20250 0.49500
O 	O 	0.40280 0.64690 0.22540 -0.53900
O 	O 	0.31760 0.68090 0.22460 -0.54500
C 	C 	0.43920 0.78450 0.91220 0.13700
H 	H 	0.42640 0.81660 0.93330 0.01100
H 	H 	0.46130 0.76120 0.93680 -0.00100
O 	O 	0.47000 0.80140 0.87030 -0.29900
C 	C 	0.52540 0.81220 0.86950 0.34900
C 	C 	0.55230 0.82830 0.91560 -0.32000
H 	H 	0.53400 0.83040 0.94970 0.14800
C 	C 	0.61100 0.84230 0.91060 0.18600
H 	H 	0.62910 0.86020 0.93990 -0.01600
C 	C 	0.64030 0.82920 0.86290 -0.24100
C 	C 	0.61200 0.81030 0.81810 0.18700
H 	H 	0.63090 0.80410 0.78470 -0.01700
C 	C 	0.55260 0.79950 0.82120 -0.31000
H 	H 	0.53350 0.78420 0.79110 0.14900
C 	C 	0.70290 0.83480 0.86200 0.47700
O 	O 	0.72570 0.85320 0.90170 -0.55400
O 	O 	0.72470 0.81940 0.81550 -0.51900
C 	C 	0.34940 0.79490 0.85780 0.08000
H 	H 	0.36950 0.81490 0.82890 0.02500
H 	H 	0.31730 0.77630 0.84160 0.02200
O 	O 	0.33480 0.82880 0.90010 -0.25200
C 	C 	0.30060 0.87310 0.88570 0.24000
C 	C 	0.28160 0.88110 0.83300 -0.20200
H 	H 	0.28760 0.85490 0.80490 0.10900
C 	C 	0.25020 0.93510 0.82230 0.06100
H 	H 	0.24450 0.94860 0.78630 0.02400
C 	C 	0.23060 0.96290 0.86830 -0.09000
C 	C 	0.25010 0.95370 0.92150 0.05300
H 	H 	0.24270 0.97870 0.95020 0.03300
C 	C 	0.28280 0.90340 0.93130 -0.19200
H 	H 	0.29150 0.89200 0.96740 0.11400
C 	C 	0.19800 0.01710 0.86960 0.25900
O 	O 	0.19710 0.04520 0.91380 -0.47000
O 	O 	0.16940 0.01870 0.81780 -0.43800
C 	C 	0.40730 0.70730 0.85090 0.07000
H 	H 	0.43120 0.72270 0.82210 0.02700
H 	H 	0.42760 0.67820 0.87040 0.02400
O 	O 	0.35850 0.68620 0.82780 -0.24200
C 	C 	0.36530 0.63480 0.80060 0.23100
C 	C 	0.31860 0.61480 0.77440 -0.18300
H 	H 	0.28500 0.63400 0.77700 0.11100
C 	C 	0.32250 0.56220 0.74200 0.04200
H 	H 	0.29070 0.54670 0.72600 0.03700
C 	C 	0.37330 0.53640 0.73570 -0.06700
C 	C 	0.42180 0.56050 0.75660 0.04700
H 	H 	0.45670 0.54560 0.74840 0.03000
C 	C 	0.41570 0.61150 0.79300 -0.19400
H 	H 	0.44690 0.62680 0.81020 0.10700
C 	C 	0.36900 0.48200 0.70370 0.19600
O 	O 	0.41560 0.45130 0.69910 -0.44800
O 	O 	0.31870 0.48220 0.66720 -0.41500
Zn	Zn	0.41248 0.62838 0.30362 1.20800
Zn	Zn	0.19621 0.87132 0.08743 1.20400
O 	O 	0.34880 0.65120 0.34880 -0.97100
O 	O 	0.15190 0.84810 0.15190 -0.98300
Zn	Zn	0.30317 0.69683 0.30317 1.21300
Zn	Zn	0.19636 0.80364 0.19636 1.21400
O 	O 	0.65120 0.34880 0.34880 -0.97100
O 	O 	0.84810 0.15190 0.15190 -0.98300
Zn	Zn	0.69683 0.30317 0.30317 1.21300
Zn	Zn	0.80364 0.19636 0.19636 1.21400
O 	O 	0.65120 0.65120 0.65120 -0.97100
O 	O 	0.84810 0.84810 0.84810 -0.98300
Zn	Zn	0.69683 0.69683 0.69683 1.21300
Zn	Zn	0.80364 0.80364 0.80364 1.21400
O 	O 	0.34880 0.34880 0.65120 -0.97100
O 	O 	0.15190 0.15190 0.84810 -0.98300
Zn	Zn	0.30317 0.30317 0.69683 1.21300
Zn	Zn	0.19636 0.19636 0.80364 1.21400
