data_crystal

_cell_length_a 26.66900
_cell_length_b 26.66900
_cell_length_c 86.62200
_cell_angle_alpha 90.00000
_cell_angle_beta  90.00000
_cell_angle_gamma 120.00000

_symmetry_space_group_name_	'P 1'
_symmetry_space_group_name_H-M	'P 1'

loop_
_symmetry_equiv_pos_as_xyz
  x,y,z

loop_
_atom_site_label
_atom_site_type_symbol
_atom_site_fract_x
_atom_site_fract_y
_atom_site_fract_z
_atom_site_charge
O 	O 	0.33200 0.59867 0.53763 -0.52000
Zn	Zn	0.32506 0.59425 0.49937 1.21600
C 	C 	0.31947 0.55263 0.53081 0.43800
O 	O 	0.31344 0.54333 0.51634 -0.52400
O 	O 	0.38755 0.60967 0.48524 -0.53600
O 	O 	0.25617 0.55246 0.48678 -0.52200
C 	C 	0.31893 0.50529 0.54008 -0.24500
C 	C 	0.33518 0.51492 0.55555 0.19200
C 	C 	0.30127 0.45200 0.53411 0.20800
H 	H 	0.34570 0.55050 0.56000 -0.02000
C 	C 	0.33568 0.47160 0.56425 -0.30500
H 	H 	0.29030 0.44510 0.52380 -0.02600
C 	C 	0.29900 0.40813 0.54274 -0.30500
C 	C 	0.31841 0.41770 0.55808 0.31500
H 	H 	0.34790 0.47910 0.57450 0.13900
H 	H 	0.28440 0.37150 0.53840 0.14900
O 	O 	0.31741 0.37293 0.56540 -0.25800
C 	C 	0.35011 0.38605 0.57925 0.03600
H 	H 	0.33060 0.39420 0.58750 0.03400
H 	H 	0.38810 0.41980 0.57780 0.03300
C 	C 	0.37883 0.31471 0.56944 0.03900
O 	O 	0.43110 0.36415 0.56477 -0.25900
H 	H 	0.35090 0.30110 0.56110 0.03200
H 	H 	0.38590 0.28370 0.57240 0.03000
C 	C 	0.46110 0.35570 0.55324 0.33500
C 	C 	0.51200 0.40517 0.54899 -0.32300
C 	C 	0.44512 0.30425 0.54650 -0.34000
H 	H 	0.52240 0.44020 0.55380 0.15700
C 	C 	0.54693 0.40271 0.53780 0.21600
C 	C 	0.47890 0.30053 0.53507 0.21700
H 	H 	0.41130 0.27130 0.54960 0.15200
C 	C 	0.53060 0.35032 0.53047 -0.26200
H 	H 	0.58130 0.43580 0.53510 -0.03000
H 	H 	0.46770 0.26520 0.53040 -0.03000
C 	C 	0.56820 0.34563 0.51878 0.47500
O 	O 	0.99867 0.93200 0.87096 -0.51600
Zn	Zn	0.99173 0.92758 0.83270 1.21800
C 	C 	0.98614 0.88596 0.86414 0.43800
O 	O 	0.98011 0.87666 0.84967 -0.52100
O 	O 	0.05422 0.94300 0.81857 -0.53700
O 	O 	0.92284 0.88579 0.82011 -0.51900
C 	C 	0.98560 0.83862 0.87341 -0.23900
C 	C 	0.00185 0.84825 0.88888 0.18800
C 	C 	0.96794 0.78533 0.86744 0.20600
H 	H 	0.01237 0.88383 0.89333 -0.01900
C 	C 	0.00235 0.80493 0.89758 -0.30600
H 	H 	0.95697 0.77843 0.85713 -0.02400
C 	C 	0.96567 0.74146 0.87607 -0.30400
C 	C 	0.98508 0.75103 0.89141 0.31600
H 	H 	0.01457 0.81243 0.90783 0.13900
H 	H 	0.95107 0.70483 0.87173 0.15000
O 	O 	0.98408 0.70626 0.89873 -0.25500
C 	C 	0.01678 0.71938 0.91258 0.02700
H 	H 	0.99727 0.72753 0.92083 0.03900
H 	H 	0.05477 0.75313 0.91113 0.03500
C 	C 	0.04550 0.64804 0.90277 0.03900
O 	O 	0.09777 0.69748 0.89810 -0.25900
H 	H 	0.01757 0.63443 0.89443 0.03200
H 	H 	0.05257 0.61703 0.90573 0.03000
C 	C 	0.12777 0.68903 0.88657 0.33500
C 	C 	0.17867 0.73850 0.88232 -0.32300
C 	C 	0.11179 0.63758 0.87983 -0.34000
H 	H 	0.18907 0.77353 0.88713 0.15700
C 	C 	0.21360 0.73604 0.87113 0.21600
C 	C 	0.14557 0.63386 0.86840 0.21600
H 	H 	0.07797 0.60463 0.88293 0.15200
C 	C 	0.19727 0.68365 0.86380 -0.26200
H 	H 	0.24797 0.76913 0.86843 -0.03000
H 	H 	0.13437 0.59853 0.86373 -0.03000
C 	C 	0.23487 0.67896 0.85211 0.47500
O 	O 	0.66533 0.26534 0.20430 -0.51900
Zn	Zn	0.65840 0.26091 0.16603 1.21700
C 	C 	0.65280 0.21930 0.19748 0.43900
O 	O 	0.64677 0.21000 0.18301 -0.52300
O 	O 	0.72088 0.27634 0.15191 -0.53600
O 	O 	0.58950 0.21913 0.15345 -0.52100
C 	C 	0.65226 0.17196 0.20675 -0.24400
C 	C 	0.66851 0.18159 0.22222 0.19200
C 	C 	0.63460 0.11867 0.20078 0.20800
H 	H 	0.67903 0.21717 0.22667 -0.02000
C 	C 	0.66901 0.13827 0.23092 -0.30500
H 	H 	0.62363 0.11177 0.19047 -0.02600
C 	C 	0.63233 0.07480 0.20941 -0.30500
C 	C 	0.65174 0.08437 0.22475 0.31500
H 	H 	0.68123 0.14577 0.24117 0.13900
H 	H 	0.61773 0.03817 0.20507 0.14900
O 	O 	0.65074 0.03960 0.23207 -0.25900
C 	C 	0.68344 0.05272 0.24592 0.03900
H 	H 	0.66393 0.06087 0.25417 0.03300
H 	H 	0.72143 0.08647 0.24447 0.03200
C 	C 	0.71216 0.98138 0.23611 0.04700
O 	O 	0.76443 0.03082 0.23144 -0.26000
H 	H 	0.68423 0.96777 0.22777 0.03100
H 	H 	0.71923 0.95037 0.23907 0.02900
C 	C 	0.79443 0.02237 0.21991 0.33200
C 	C 	0.84533 0.07184 0.21566 -0.32100
C 	C 	0.77845 0.97092 0.21317 -0.33600
H 	H 	0.85573 0.10687 0.22047 0.15600
C 	C 	0.88026 0.06938 0.20447 0.21500
C 	C 	0.81223 0.96720 0.20174 0.21800
H 	H 	0.74463 0.93797 0.21627 0.15100
C 	C 	0.86393 0.01699 0.19714 -0.26300
H 	H 	0.91463 0.10247 0.20177 -0.02900
H 	H 	0.80103 0.93187 0.19707 -0.03000
C 	C 	0.90153 0.01230 0.18545 0.47200
O 	O 	0.40133 0.73333 0.53763 -0.51900
Zn	Zn	0.40575 0.73082 0.49937 1.21700
C 	C 	0.44737 0.76684 0.53081 0.43900
O 	O 	0.45667 0.77011 0.51634 -0.52300
O 	O 	0.39033 0.77788 0.48524 -0.53500
O 	O 	0.44754 0.70371 0.48678 -0.52000
C 	C 	0.49471 0.81364 0.54008 -0.24400
C 	C 	0.48508 0.82026 0.55555 0.19200
C 	C 	0.54800 0.84927 0.53411 0.20800
H 	H 	0.44950 0.79520 0.56000 -0.02000
C 	C 	0.52840 0.86408 0.56425 -0.30500
H 	H 	0.55490 0.84520 0.52380 -0.02500
C 	C 	0.59187 0.89087 0.54274 -0.30500
C 	C 	0.58230 0.90071 0.55808 0.31500
H 	H 	0.52090 0.86880 0.57450 0.13900
H 	H 	0.62850 0.91290 0.53840 0.15000
O 	O 	0.62707 0.94448 0.56540 -0.25800
C 	C 	0.61395 0.96406 0.57925 0.03800
H 	H 	0.60580 0.93640 0.58750 0.03400
H 	H 	0.58020 0.96830 0.57780 0.03300
C 	C 	0.68529 0.06412 0.56944 0.03900
O 	O 	0.63585 0.06695 0.56477 -0.25900
H 	H 	0.69890 0.04980 0.56110 0.03200
H 	H 	0.71630 0.10220 0.57240 0.03100
C 	C 	0.64430 0.10540 0.55324 0.33500
C 	C 	0.59483 0.10683 0.54899 -0.32300
C 	C 	0.69575 0.14087 0.54650 -0.34000
H 	H 	0.55980 0.08220 0.55380 0.15600
C 	C 	0.59729 0.14422 0.53780 0.21600
C 	C 	0.69947 0.17837 0.53507 0.21700
H 	H 	0.72870 0.14000 0.54960 0.15200
C 	C 	0.64968 0.18028 0.53047 -0.26200
H 	H 	0.56420 0.14550 0.53510 -0.03000
H 	H 	0.73480 0.20250 0.53040 -0.03000
C 	C 	0.65437 0.22257 0.51878 0.47500
O 	O 	0.06800 0.06666 0.87096 -0.52100
Zn	Zn	0.07242 0.06415 0.83270 1.21700
C 	C 	0.11404 0.10017 0.86414 0.43900
O 	O 	0.12334 0.10344 0.84967 -0.52400
O 	O 	0.05700 0.11121 0.81857 -0.53500
O 	O 	0.11421 0.03704 0.82011 -0.52400
C 	C 	0.16138 0.14697 0.87341 -0.24400
C 	C 	0.15175 0.15359 0.88888 0.19200
C 	C 	0.21467 0.18260 0.86744 0.20800
H 	H 	0.11617 0.12853 0.89333 -0.02100
C 	C 	0.19507 0.19741 0.89758 -0.30600
H 	H 	0.22157 0.17853 0.85713 -0.02600
C 	C 	0.25854 0.22420 0.87607 -0.30500
C 	C 	0.24897 0.23404 0.89141 0.31500
H 	H 	0.18757 0.20213 0.90783 0.13900
H 	H 	0.29517 0.24623 0.87173 0.15000
O 	O 	0.29374 0.27781 0.89873 -0.25800
C 	C 	0.28062 0.29739 0.91258 0.03700
H 	H 	0.27247 0.26973 0.92083 0.03400
H 	H 	0.24687 0.30163 0.91113 0.03200
C 	C 	0.35196 0.39745 0.90277 0.03900
O 	O 	0.30252 0.40028 0.89810 -0.25900
H 	H 	0.36557 0.38313 0.89443 0.03300
H 	H 	0.38297 0.43553 0.90573 0.03100
C 	C 	0.31097 0.43873 0.88657 0.33500
C 	C 	0.26150 0.44016 0.88232 -0.32300
C 	C 	0.36242 0.47420 0.87983 -0.34000
H 	H 	0.22647 0.41553 0.88713 0.15600
C 	C 	0.26396 0.47755 0.87113 0.21600
C 	C 	0.36614 0.51170 0.86840 0.21700
H 	H 	0.39537 0.47333 0.88293 0.15200
C 	C 	0.31635 0.51361 0.86380 -0.26200
H 	H 	0.23087 0.47883 0.86843 -0.03000
H 	H 	0.40147 0.53583 0.86373 -0.03000
C 	C 	0.32104 0.55590 0.85211 0.47500
O 	O 	0.73466 0.40000 0.20430 -0.51900
Zn	Zn	0.73909 0.39748 0.16603 1.21700
C 	C 	0.78070 0.43351 0.19748 0.43900
O 	O 	0.79000 0.43678 0.18301 -0.52300
O 	O 	0.72366 0.44455 0.15191 -0.53500
O 	O 	0.78087 0.37038 0.15345 -0.52100
C 	C 	0.82804 0.48031 0.20675 -0.24400
C 	C 	0.81841 0.48693 0.22222 0.19200
C 	C 	0.88133 0.51594 0.20078 0.20800
H 	H 	0.78283 0.46187 0.22667 -0.02000
C 	C 	0.86173 0.53075 0.23092 -0.30500
H 	H 	0.88823 0.51187 0.19047 -0.02500
C 	C 	0.92520 0.55754 0.20941 -0.30500
C 	C 	0.91563 0.56738 0.22475 0.31500
H 	H 	0.85423 0.53547 0.24117 0.13900
H 	H 	0.96183 0.57957 0.20507 0.15000
O 	O 	0.96040 0.61115 0.23207 -0.25800
C 	C 	0.94728 0.63073 0.24592 0.04200
H 	H 	0.93913 0.60307 0.25417 0.03300
H 	H 	0.91353 0.63497 0.24447 0.03100
C 	C 	0.01862 0.73079 0.23611 0.03900
O 	O 	0.96918 0.73362 0.23144 -0.25800
H 	H 	0.03223 0.71647 0.22777 0.03200
H 	H 	0.04963 0.76887 0.23907 0.03000
C 	C 	0.97763 0.77207 0.21991 0.33900
C 	C 	0.92816 0.77350 0.21566 -0.32400
C 	C 	0.02908 0.80754 0.21317 -0.34400
H 	H 	0.89313 0.74887 0.22047 0.15700
C 	C 	0.93062 0.81089 0.20447 0.21700
C 	C 	0.03280 0.84504 0.20174 0.21500
H 	H 	0.06203 0.80667 0.21627 0.15300
C 	C 	0.98301 0.84695 0.19714 -0.26000
H 	H 	0.89753 0.81217 0.20177 -0.03000
H 	H 	0.06813 0.86917 0.19707 -0.02900
C 	C 	0.98770 0.88924 0.18545 0.47800
O 	O 	0.26667 0.66800 0.53763 -0.51900
Zn	Zn	0.26918 0.67494 0.49937 1.21700
C 	C 	0.23316 0.68053 0.53081 0.43900
O 	O 	0.22989 0.68656 0.51634 -0.52300
O 	O 	0.22212 0.61245 0.48524 -0.53600
O 	O 	0.29629 0.74383 0.48678 -0.52000
C 	C 	0.18636 0.68107 0.54008 -0.24400
C 	C 	0.17974 0.66482 0.55555 0.19200
C 	C 	0.15073 0.69873 0.53411 0.20800
H 	H 	0.20480 0.65430 0.56000 -0.02000
C 	C 	0.13592 0.66432 0.56425 -0.30500
H 	H 	0.15480 0.70970 0.52380 -0.02600
C 	C 	0.10913 0.70100 0.54274 -0.30500
C 	C 	0.09929 0.68159 0.55808 0.31500
H 	H 	0.13120 0.65210 0.57450 0.13900
H 	H 	0.08710 0.71560 0.53840 0.14900
O 	O 	0.05552 0.68259 0.56540 -0.25800
C 	C 	0.03594 0.64989 0.57925 0.03400
H 	H 	0.06360 0.66940 0.58750 0.03400
H 	H 	0.03170 0.61190 0.57780 0.03200
C 	C 	0.93588 0.62117 0.56944 0.03900
O 	O 	0.93305 0.56890 0.56477 -0.25800
H 	H 	0.95020 0.64910 0.56110 0.03400
H 	H 	0.89780 0.61410 0.57240 0.03100
C 	C 	0.89460 0.53890 0.55324 0.33500
C 	C 	0.89317 0.48800 0.54899 -0.32300
C 	C 	0.85913 0.55488 0.54650 -0.34000
H 	H 	0.91780 0.47760 0.55380 0.15700
C 	C 	0.85578 0.45307 0.53780 0.21600
C 	C 	0.82163 0.52110 0.53507 0.21700
H 	H 	0.86000 0.58870 0.54960 0.15200
C 	C 	0.81972 0.46940 0.53047 -0.26200
H 	H 	0.85450 0.41870 0.53510 -0.03000
H 	H 	0.79750 0.53230 0.53040 -0.02900
C 	C 	0.77743 0.43180 0.51878 0.47500
O 	O 	0.93334 0.00133 0.87096 -0.51900
Zn	Zn	0.93585 0.00827 0.83270 1.21700
C 	C 	0.89983 0.01386 0.86414 0.44000
O 	O 	0.89656 0.01989 0.84967 -0.52300
O 	O 	0.88879 0.94578 0.81857 -0.53400
O 	O 	0.96296 0.07716 0.82011 -0.51800
C 	C 	0.85303 0.01440 0.87341 -0.24700
C 	C 	0.84641 0.99815 0.88888 0.19600
C 	C 	0.81740 0.03206 0.86744 0.20900
H 	H 	0.87147 0.98763 0.89333 -0.02000
C 	C 	0.80259 0.99765 0.89758 -0.30300
H 	H 	0.82147 0.04303 0.85713 -0.02600
C 	C 	0.77580 0.03433 0.87607 -0.30600
C 	C 	0.76596 0.01492 0.89141 0.31300
H 	H 	0.79787 0.98543 0.90783 0.14000
H 	H 	0.75377 0.04893 0.87173 0.15000
O 	O 	0.72219 0.01592 0.89873 -0.26100
C 	C 	0.70261 0.98322 0.91258 0.04500
H 	H 	0.73027 0.00273 0.92083 0.03000
H 	H 	0.69837 0.94523 0.91113 0.03100
C 	C 	0.60255 0.95450 0.90277 0.03800
O 	O 	0.59972 0.90223 0.89810 -0.25800
H 	H 	0.61687 0.98243 0.89443 0.03400
H 	H 	0.56447 0.94743 0.90573 0.03100
C 	C 	0.56127 0.87223 0.88657 0.33500
C 	C 	0.55984 0.82133 0.88232 -0.32300
C 	C 	0.52580 0.88821 0.87983 -0.34000
H 	H 	0.58447 0.81093 0.88713 0.15700
C 	C 	0.52245 0.78640 0.87113 0.21600
C 	C 	0.48830 0.85443 0.86840 0.21700
H 	H 	0.52667 0.92203 0.88293 0.15200
C 	C 	0.48639 0.80273 0.86380 -0.26200
H 	H 	0.52117 0.75203 0.86843 -0.03000
H 	H 	0.46417 0.86563 0.86373 -0.02900
C 	C 	0.44410 0.76513 0.85211 0.47500
O 	O 	0.60000 0.33467 0.20430 -0.51900
Zn	Zn	0.60252 0.34160 0.16603 1.21700
C 	C 	0.56649 0.34720 0.19748 0.43900
O 	O 	0.56322 0.35323 0.18301 -0.52300
O 	O 	0.55545 0.27912 0.15191 -0.53600
O 	O 	0.62962 0.41050 0.15345 -0.52100
C 	C 	0.51969 0.34774 0.20675 -0.24400
C 	C 	0.51307 0.33149 0.22222 0.19200
C 	C 	0.48406 0.36540 0.20078 0.20800
H 	H 	0.53813 0.32097 0.22667 -0.02000
C 	C 	0.46925 0.33099 0.23092 -0.30500
H 	H 	0.48813 0.37637 0.19047 -0.02600
C 	C 	0.44246 0.36767 0.20941 -0.30500
C 	C 	0.43262 0.34826 0.22475 0.31500
H 	H 	0.46453 0.31877 0.24117 0.13900
H 	H 	0.42043 0.38227 0.20507 0.15000
O 	O 	0.38885 0.34926 0.23207 -0.25800
C 	C 	0.36927 0.31656 0.24592 0.03600
H 	H 	0.39693 0.33607 0.25417 0.03400
H 	H 	0.36503 0.27857 0.24447 0.03300
C 	C 	0.26921 0.28784 0.23611 0.03900
O 	O 	0.26638 0.23557 0.23144 -0.25900
H 	H 	0.28353 0.31577 0.22777 0.03300
H 	H 	0.23113 0.28077 0.23907 0.03000
C 	C 	0.22793 0.20557 0.21991 0.33500
C 	C 	0.22650 0.15467 0.21566 -0.32300
C 	C 	0.19246 0.22155 0.21317 -0.34100
H 	H 	0.25113 0.14427 0.22047 0.15600
C 	C 	0.18911 0.11974 0.20447 0.21600
C 	C 	0.15496 0.18777 0.20174 0.21700
H 	H 	0.19333 0.25537 0.21627 0.15200
C 	C 	0.15305 0.13607 0.19714 -0.26300
H 	H 	0.18783 0.08537 0.20177 -0.03100
H 	H 	0.13083 0.19897 0.19707 -0.03000
C 	C 	0.11076 0.09847 0.18545 0.47500
O 	O 	0.59867 0.33200 0.96237 -0.51900
Zn	Zn	0.59425 0.32506 0.00063 1.21700
C 	C 	0.55263 0.31947 0.96919 0.43900
O 	O 	0.54333 0.31344 0.98366 -0.52300
O 	O 	0.60967 0.38755 0.01476 -0.53500
O 	O 	0.55246 0.25617 0.01322 -0.52100
C 	C 	0.50529 0.31893 0.95992 -0.24400
C 	C 	0.51492 0.33518 0.94445 0.19200
C 	C 	0.45200 0.30127 0.96589 0.20700
H 	H 	0.55050 0.34570 0.94000 -0.02000
C 	C 	0.47160 0.33568 0.93575 -0.30500
H 	H 	0.44510 0.29030 0.97620 -0.02600
C 	C 	0.40813 0.29900 0.95726 -0.30500
C 	C 	0.41770 0.31841 0.94192 0.31500
H 	H 	0.47910 0.34790 0.92550 0.13900
H 	H 	0.37150 0.28440 0.96160 0.14900
O 	O 	0.37293 0.31741 0.93460 -0.25800
C 	C 	0.38605 0.35011 0.92075 0.03600
H 	H 	0.39420 0.33060 0.91250 0.03400
H 	H 	0.41980 0.38810 0.92220 0.03300
C 	C 	0.31471 0.37883 0.93056 0.03900
O 	O 	0.36415 0.43110 0.93523 -0.25900
H 	H 	0.30110 0.35090 0.93890 0.03200
H 	H 	0.28370 0.38590 0.92760 0.03000
C 	C 	0.35570 0.46110 0.94676 0.33500
C 	C 	0.40517 0.51200 0.95101 -0.32300
C 	C 	0.30425 0.44512 0.95350 -0.34000
H 	H 	0.44020 0.52240 0.94620 0.15700
C 	C 	0.40271 0.54693 0.96220 0.21600
C 	C 	0.30053 0.47890 0.96493 0.21700
H 	H 	0.27130 0.41130 0.95040 0.15200
C 	C 	0.35032 0.53060 0.96953 -0.26200
H 	H 	0.43580 0.58130 0.96490 -0.03000
H 	H 	0.26520 0.46770 0.96960 -0.03000
C 	C 	0.34563 0.56820 0.98122 0.47500
O 	O 	0.26534 0.66533 0.29570 -0.51900
Zn	Zn	0.26091 0.65840 0.33397 1.21700
C 	C 	0.21930 0.65280 0.30252 0.43900
O 	O 	0.21000 0.64677 0.31699 -0.52300
O 	O 	0.27634 0.72088 0.34809 -0.53600
O 	O 	0.21913 0.58950 0.34655 -0.52100
C 	C 	0.17196 0.65226 0.29325 -0.24400
C 	C 	0.18159 0.66851 0.27778 0.19200
C 	C 	0.11867 0.63460 0.29922 0.20800
H 	H 	0.21717 0.67903 0.27333 -0.02000
C 	C 	0.13827 0.66901 0.26908 -0.30500
H 	H 	0.11177 0.62363 0.30953 -0.02600
C 	C 	0.07480 0.63233 0.29059 -0.30500
C 	C 	0.08437 0.65174 0.27525 0.31500
H 	H 	0.14577 0.68123 0.25883 0.13900
H 	H 	0.03817 0.61773 0.29493 0.14900
O 	O 	0.03960 0.65074 0.26793 -0.25900
C 	C 	0.05272 0.68344 0.25408 0.03900
H 	H 	0.06087 0.66393 0.24583 0.03300
H 	H 	0.08647 0.72143 0.25553 0.03200
C 	C 	0.98138 0.71216 0.26389 0.04700
O 	O 	0.03082 0.76443 0.26856 -0.26000
H 	H 	0.96777 0.68423 0.27223 0.03100
H 	H 	0.95037 0.71923 0.26093 0.02900
C 	C 	0.02237 0.79443 0.28009 0.33200
C 	C 	0.07184 0.84533 0.28434 -0.32100
C 	C 	0.97092 0.77845 0.28683 -0.33600
H 	H 	0.10687 0.85573 0.27953 0.15600
C 	C 	0.06938 0.88026 0.29553 0.21500
C 	C 	0.96720 0.81223 0.29826 0.21800
H 	H 	0.93797 0.74463 0.28373 0.15100
C 	C 	0.01699 0.86393 0.30286 -0.26300
H 	H 	0.10247 0.91463 0.29823 -0.02900
H 	H 	0.93187 0.80103 0.30293 -0.03000
C 	C 	0.01230 0.90153 0.31455 0.47200
O 	O 	0.93200 0.99867 0.62904 -0.51600
Zn	Zn	0.92758 0.99173 0.66730 1.21800
C 	C 	0.88596 0.98614 0.63586 0.43800
O 	O 	0.87666 0.98011 0.65033 -0.52100
O 	O 	0.94300 0.05422 0.68143 -0.53700
O 	O 	0.88579 0.92284 0.67989 -0.51900
C 	C 	0.83862 0.98560 0.62659 -0.23900
C 	C 	0.84825 0.00185 0.61112 0.18800
C 	C 	0.78533 0.96794 0.63256 0.20600
H 	H 	0.88383 0.01237 0.60667 -0.01900
C 	C 	0.80493 0.00235 0.60242 -0.30600
H 	H 	0.77843 0.95697 0.64287 -0.02400
C 	C 	0.74146 0.96567 0.62393 -0.30400
C 	C 	0.75103 0.98508 0.60859 0.31600
H 	H 	0.81243 0.01457 0.59217 0.13900
H 	H 	0.70483 0.95107 0.62827 0.15000
O 	O 	0.70626 0.98408 0.60127 -0.25500
C 	C 	0.71938 0.01678 0.58742 0.02700
H 	H 	0.72753 0.99727 0.57917 0.03900
H 	H 	0.75313 0.05477 0.58887 0.03500
C 	C 	0.64804 0.04550 0.59723 0.03900
O 	O 	0.69748 0.09777 0.60190 -0.25900
H 	H 	0.63443 0.01757 0.60557 0.03200
H 	H 	0.61703 0.05257 0.59427 0.03000
C 	C 	0.68903 0.12777 0.61343 0.33500
C 	C 	0.73850 0.17867 0.61768 -0.32300
C 	C 	0.63758 0.11179 0.62017 -0.34000
H 	H 	0.77353 0.18907 0.61287 0.15700
C 	C 	0.73604 0.21360 0.62887 0.21600
C 	C 	0.63386 0.14557 0.63160 0.21600
H 	H 	0.60463 0.07797 0.61707 0.15200
C 	C 	0.68365 0.19727 0.63620 -0.26200
H 	H 	0.76913 0.24797 0.63157 -0.03000
H 	H 	0.59853 0.13437 0.63627 -0.03000
C 	C 	0.67896 0.23487 0.64789 0.47500
O 	O 	0.73333 0.40133 0.96237 -0.51900
Zn	Zn	0.73082 0.40575 0.00063 1.21700
C 	C 	0.76684 0.44737 0.96919 0.43900
O 	O 	0.77011 0.45667 0.98366 -0.52300
O 	O 	0.77788 0.39033 0.01476 -0.53500
O 	O 	0.70371 0.44754 0.01322 -0.52000
C 	C 	0.81364 0.49471 0.95992 -0.24400
C 	C 	0.82026 0.48508 0.94445 0.19200
C 	C 	0.84927 0.54800 0.96589 0.20800
H 	H 	0.79520 0.44950 0.94000 -0.02000
C 	C 	0.86408 0.52840 0.93575 -0.30500
H 	H 	0.84520 0.55490 0.97620 -0.02500
C 	C 	0.89087 0.59187 0.95726 -0.30500
C 	C 	0.90071 0.58230 0.94192 0.31500
H 	H 	0.86880 0.52090 0.92550 0.13900
H 	H 	0.91290 0.62850 0.96160 0.15000
O 	O 	0.94448 0.62707 0.93460 -0.25700
C 	C 	0.96406 0.61395 0.92075 0.03800
H 	H 	0.93640 0.60580 0.91250 0.03400
H 	H 	0.96830 0.58020 0.92220 0.03300
C 	C 	0.06412 0.68529 0.93056 0.03900
O 	O 	0.06695 0.63585 0.93523 -0.25900
H 	H 	0.04980 0.69890 0.93890 0.03200
H 	H 	0.10220 0.71630 0.92760 0.03100
C 	C 	0.10540 0.64430 0.94676 0.33500
C 	C 	0.10683 0.59483 0.95101 -0.32300
C 	C 	0.14087 0.69575 0.95350 -0.34000
H 	H 	0.08220 0.55980 0.94620 0.15600
C 	C 	0.14422 0.59729 0.96220 0.21600
C 	C 	0.17837 0.69947 0.96493 0.21700
H 	H 	0.14000 0.72870 0.95040 0.15200
C 	C 	0.18028 0.64968 0.96953 -0.26200
H 	H 	0.14550 0.56420 0.96490 -0.03000
H 	H 	0.20250 0.73480 0.96960 -0.03000
C 	C 	0.22257 0.65437 0.98122 0.47500
O 	O 	0.40000 0.73466 0.29570 -0.51900
Zn	Zn	0.39748 0.73909 0.33397 1.21700
C 	C 	0.43351 0.78070 0.30252 0.43900
O 	O 	0.43678 0.79000 0.31699 -0.52300
O 	O 	0.44455 0.72366 0.34809 -0.53500
O 	O 	0.37038 0.78087 0.34655 -0.52100
C 	C 	0.48031 0.82804 0.29325 -0.24400
C 	C 	0.48693 0.81841 0.27778 0.19200
C 	C 	0.51594 0.88133 0.29922 0.20800
H 	H 	0.46187 0.78283 0.27333 -0.02000
C 	C 	0.53075 0.86173 0.26908 -0.30500
H 	H 	0.51187 0.88823 0.30953 -0.02500
C 	C 	0.55754 0.92520 0.29059 -0.30500
C 	C 	0.56738 0.91563 0.27525 0.31500
H 	H 	0.53547 0.85423 0.25883 0.13900
H 	H 	0.57957 0.96183 0.29493 0.15000
O 	O 	0.61115 0.96040 0.26793 -0.25800
C 	C 	0.63073 0.94728 0.25408 0.04200
H 	H 	0.60307 0.93913 0.24583 0.03300
H 	H 	0.63497 0.91353 0.25553 0.03100
C 	C 	0.73079 0.01862 0.26389 0.03900
O 	O 	0.73362 0.96918 0.26856 -0.25800
H 	H 	0.71647 0.03223 0.27223 0.03200
H 	H 	0.76887 0.04963 0.26093 0.03000
C 	C 	0.77207 0.97763 0.28009 0.33900
C 	C 	0.77350 0.92816 0.28434 -0.32400
C 	C 	0.80754 0.02908 0.28683 -0.34400
H 	H 	0.74887 0.89313 0.27953 0.15700
C 	C 	0.81089 0.93062 0.29553 0.21700
C 	C 	0.84504 0.03280 0.29826 0.21500
H 	H 	0.80667 0.06203 0.28373 0.15300
C 	C 	0.84695 0.98301 0.30286 -0.26000
H 	H 	0.81217 0.89753 0.29823 -0.03000
H 	H 	0.86917 0.06813 0.30293 -0.02900
C 	C 	0.88924 0.98770 0.31455 0.47800
O 	O 	0.06666 0.06800 0.62904 -0.52100
Zn	Zn	0.06415 0.07242 0.66730 1.21700
C 	C 	0.10017 0.11404 0.63586 0.43900
O 	O 	0.10344 0.12334 0.65033 -0.52400
O 	O 	0.11121 0.05700 0.68143 -0.53500
O 	O 	0.03704 0.11421 0.67989 -0.52400
C 	C 	0.14697 0.16138 0.62659 -0.24400
C 	C 	0.15359 0.15175 0.61112 0.19200
C 	C 	0.18260 0.21467 0.63256 0.20800
H 	H 	0.12853 0.11617 0.60667 -0.02100
C 	C 	0.19741 0.19507 0.60242 -0.30600
H 	H 	0.17853 0.22157 0.64287 -0.02600
C 	C 	0.22420 0.25854 0.62393 -0.30500
C 	C 	0.23404 0.24897 0.60859 0.31500
H 	H 	0.20213 0.18757 0.59217 0.13900
H 	H 	0.24623 0.29517 0.62827 0.15000
O 	O 	0.27781 0.29374 0.60127 -0.25800
C 	C 	0.29739 0.28062 0.58742 0.03700
H 	H 	0.26973 0.27247 0.57917 0.03400
H 	H 	0.30163 0.24687 0.58887 0.03200
C 	C 	0.39745 0.35196 0.59723 0.03900
O 	O 	0.40028 0.30252 0.60190 -0.25900
H 	H 	0.38313 0.36557 0.60557 0.03300
H 	H 	0.43553 0.38297 0.59427 0.03100
C 	C 	0.43873 0.31097 0.61343 0.33500
C 	C 	0.44016 0.26150 0.61768 -0.32300
C 	C 	0.47420 0.36242 0.62017 -0.34000
H 	H 	0.41553 0.22647 0.61287 0.15600
C 	C 	0.47755 0.26396 0.62887 0.21600
C 	C 	0.51170 0.36614 0.63160 0.21700
H 	H 	0.47333 0.39537 0.61707 0.15200
C 	C 	0.51361 0.31635 0.63620 -0.26200
H 	H 	0.47883 0.23087 0.63157 -0.03000
H 	H 	0.53583 0.40147 0.63627 -0.03000
C 	C 	0.55590 0.32104 0.64789 0.47500
O 	O 	0.66800 0.26667 0.96237 -0.51900
Zn	Zn	0.67494 0.26918 0.00063 1.21700
C 	C 	0.68053 0.23316 0.96919 0.43900
O 	O 	0.68656 0.22989 0.98366 -0.52300
O 	O 	0.61245 0.22212 0.01476 -0.53600
O 	O 	0.74383 0.29629 0.01322 -0.52000
C 	C 	0.68107 0.18636 0.95992 -0.24400
C 	C 	0.66482 0.17974 0.94445 0.19200
C 	C 	0.69873 0.15073 0.96589 0.20700
H 	H 	0.65430 0.20480 0.94000 -0.02000
C 	C 	0.66432 0.13592 0.93575 -0.30500
H 	H 	0.70970 0.15480 0.97620 -0.02600
C 	C 	0.70100 0.10913 0.95726 -0.30500
C 	C 	0.68159 0.09929 0.94192 0.31400
H 	H 	0.65210 0.13120 0.92550 0.13900
H 	H 	0.71560 0.08710 0.96160 0.14900
O 	O 	0.68259 0.05552 0.93460 -0.25800
C 	C 	0.64989 0.03594 0.92075 0.03400
H 	H 	0.66940 0.06360 0.91250 0.03400
H 	H 	0.61190 0.03170 0.92220 0.03200
C 	C 	0.62117 0.93588 0.93056 0.03900
O 	O 	0.56890 0.93305 0.93523 -0.25800
H 	H 	0.64910 0.95020 0.93890 0.03400
H 	H 	0.61410 0.89780 0.92760 0.03100
C 	C 	0.53890 0.89460 0.94676 0.33500
C 	C 	0.48800 0.89317 0.95101 -0.32300
C 	C 	0.55488 0.85913 0.95350 -0.34000
H 	H 	0.47760 0.91780 0.94620 0.15700
C 	C 	0.45307 0.85578 0.96220 0.21600
C 	C 	0.52110 0.82163 0.96493 0.21700
H 	H 	0.58870 0.86000 0.95040 0.15200
C 	C 	0.46940 0.81972 0.96953 -0.26200
H 	H 	0.41870 0.85450 0.96490 -0.03000
H 	H 	0.53230 0.79750 0.96960 -0.02900
C 	C 	0.43180 0.77743 0.98122 0.47500
O 	O 	0.33467 0.60000 0.29570 -0.51900
Zn	Zn	0.34160 0.60252 0.33397 1.21700
C 	C 	0.34720 0.56649 0.30252 0.43900
O 	O 	0.35323 0.56322 0.31699 -0.52300
O 	O 	0.27912 0.55545 0.34809 -0.53600
O 	O 	0.41050 0.62962 0.34655 -0.52100
C 	C 	0.34774 0.51969 0.29325 -0.24400
C 	C 	0.33149 0.51307 0.27778 0.19200
C 	C 	0.36540 0.48406 0.29922 0.20800
H 	H 	0.32097 0.53813 0.27333 -0.02000
C 	C 	0.33099 0.46925 0.26908 -0.30500
H 	H 	0.37637 0.48813 0.30953 -0.02600
C 	C 	0.36767 0.44246 0.29059 -0.30500
C 	C 	0.34826 0.43262 0.27525 0.31500
H 	H 	0.31877 0.46453 0.25883 0.13900
H 	H 	0.38227 0.42043 0.29493 0.15000
O 	O 	0.34926 0.38885 0.26793 -0.25800
C 	C 	0.31656 0.36927 0.25408 0.03600
H 	H 	0.33607 0.39693 0.24583 0.03400
H 	H 	0.27857 0.36503 0.25553 0.03300
C 	C 	0.28784 0.26921 0.26389 0.03900
O 	O 	0.23557 0.26638 0.26856 -0.25900
H 	H 	0.31577 0.28353 0.27223 0.03300
H 	H 	0.28077 0.23113 0.26093 0.03000
C 	C 	0.20557 0.22793 0.28009 0.33500
C 	C 	0.15467 0.22650 0.28434 -0.32300
C 	C 	0.22155 0.19246 0.28683 -0.34100
H 	H 	0.14427 0.25113 0.27953 0.15600
C 	C 	0.11974 0.18911 0.29553 0.21600
C 	C 	0.18777 0.15496 0.29826 0.21700
H 	H 	0.25537 0.19333 0.28373 0.15200
C 	C 	0.13607 0.15305 0.30286 -0.26300
H 	H 	0.08537 0.18783 0.29823 -0.03100
H 	H 	0.19897 0.13083 0.30293 -0.03000
C 	C 	0.09847 0.11076 0.31455 0.47500
O 	O 	0.00133 0.93334 0.62904 -0.51900
Zn	Zn	0.00827 0.93585 0.66730 1.21700
C 	C 	0.01386 0.89983 0.63586 0.44000
O 	O 	0.01989 0.89656 0.65033 -0.52300
O 	O 	0.94578 0.88879 0.68143 -0.53400
O 	O 	0.07716 0.96296 0.67989 -0.51800
C 	C 	0.01440 0.85303 0.62659 -0.24700
C 	C 	0.99815 0.84641 0.61112 0.19600
C 	C 	0.03206 0.81740 0.63256 0.20900
H 	H 	0.98763 0.87147 0.60667 -0.02000
C 	C 	0.99765 0.80259 0.60242 -0.30300
H 	H 	0.04303 0.82147 0.64287 -0.02600
C 	C 	0.03433 0.77580 0.62393 -0.30600
C 	C 	0.01492 0.76596 0.60859 0.31300
H 	H 	0.98543 0.79787 0.59217 0.14000
H 	H 	0.04893 0.75377 0.62827 0.15000
O 	O 	0.01592 0.72219 0.60127 -0.26100
C 	C 	0.98322 0.70261 0.58742 0.04500
H 	H 	0.00273 0.73027 0.57917 0.03000
H 	H 	0.94523 0.69837 0.58887 0.03100
C 	C 	0.95450 0.60255 0.59723 0.03800
O 	O 	0.90223 0.59972 0.60190 -0.25800
H 	H 	0.98243 0.61687 0.60557 0.03400
H 	H 	0.94743 0.56447 0.59427 0.03100
C 	C 	0.87223 0.56127 0.61343 0.33500
C 	C 	0.82133 0.55984 0.61768 -0.32300
C 	C 	0.88821 0.52580 0.62017 -0.34000
H 	H 	0.81093 0.58447 0.61287 0.15700
C 	C 	0.78640 0.52245 0.62887 0.21600
C 	C 	0.85443 0.48830 0.63160 0.21700
H 	H 	0.92203 0.52667 0.61707 0.15200
C 	C 	0.80273 0.48639 0.63620 -0.26200
H 	H 	0.75203 0.52117 0.63157 -0.03000
H 	H 	0.86563 0.46417 0.63627 -0.02900
C 	C 	0.76513 0.44410 0.64789 0.47500
O 	O 	0.66800 0.40133 0.46237 -0.51900
Zn	Zn	0.67494 0.40575 0.50063 1.21700
C 	C 	0.68053 0.44737 0.46919 0.43900
O 	O 	0.68656 0.45667 0.48366 -0.52300
O 	O 	0.61245 0.39033 0.51476 -0.53500
O 	O 	0.74383 0.44754 0.51322 -0.52000
C 	C 	0.68107 0.49471 0.45992 -0.24400
C 	C 	0.66482 0.48508 0.44445 0.19200
C 	C 	0.69873 0.54800 0.46589 0.20800
H 	H 	0.65430 0.44950 0.44000 -0.02000
C 	C 	0.66432 0.52840 0.43575 -0.30500
H 	H 	0.70970 0.55490 0.47620 -0.02500
C 	C 	0.70100 0.59187 0.45726 -0.30500
C 	C 	0.68159 0.58230 0.44192 0.31500
H 	H 	0.65210 0.52090 0.42550 0.13900
H 	H 	0.71560 0.62850 0.46160 0.15000
O 	O 	0.68259 0.62707 0.43460 -0.25800
C 	C 	0.64989 0.61395 0.42075 0.03600
H 	H 	0.66940 0.60580 0.41250 0.03400
H 	H 	0.61190 0.58020 0.42220 0.03300
C 	C 	0.62117 0.68529 0.43056 0.03900
O 	O 	0.56890 0.63585 0.43523 -0.25800
H 	H 	0.64910 0.69890 0.43890 0.03300
H 	H 	0.61410 0.71630 0.42760 0.03100
C 	C 	0.53890 0.64430 0.44676 0.33500
C 	C 	0.48800 0.59483 0.45101 -0.32300
C 	C 	0.55488 0.69575 0.45350 -0.34000
H 	H 	0.47760 0.55980 0.44620 0.15700
C 	C 	0.45307 0.59729 0.46220 0.21600
C 	C 	0.52110 0.69947 0.46493 0.21700
H 	H 	0.58870 0.72870 0.45040 0.15200
C 	C 	0.46940 0.64968 0.46953 -0.26200
H 	H 	0.41870 0.56420 0.46490 -0.03000
H 	H 	0.53230 0.73480 0.46960 -0.02900
C 	C 	0.43180 0.65437 0.48122 0.47500
O 	O 	0.33467 0.73466 0.79570 -0.51900
Zn	Zn	0.34160 0.73909 0.83397 1.21700
C 	C 	0.34720 0.78070 0.80252 0.43900
O 	O 	0.35323 0.79000 0.81699 -0.52300
O 	O 	0.27912 0.72366 0.84809 -0.53600
O 	O 	0.41050 0.78087 0.84655 -0.52000
C 	C 	0.34774 0.82804 0.79325 -0.24400
C 	C 	0.33149 0.81841 0.77778 0.19200
C 	C 	0.36540 0.88133 0.79922 0.20800
H 	H 	0.32097 0.78283 0.77333 -0.02000
C 	C 	0.33099 0.86173 0.76908 -0.30500
H 	H 	0.37637 0.88823 0.80953 -0.02500
C 	C 	0.36767 0.92520 0.79059 -0.30500
C 	C 	0.34826 0.91563 0.77525 0.31500
H 	H 	0.31877 0.85423 0.75883 0.13900
H 	H 	0.38227 0.96183 0.79493 0.15000
O 	O 	0.34926 0.96040 0.76793 -0.25800
C 	C 	0.31656 0.94728 0.75408 0.04200
H 	H 	0.33607 0.93913 0.74583 0.03300
H 	H 	0.27857 0.91353 0.75553 0.03100
C 	C 	0.28784 0.01862 0.76389 0.04000
O 	O 	0.23557 0.96918 0.76856 -0.25800
H 	H 	0.31577 0.03223 0.77223 0.03200
H 	H 	0.28077 0.04963 0.76093 0.03000
C 	C 	0.20557 0.97763 0.78009 0.34000
C 	C 	0.15467 0.92816 0.78434 -0.32500
C 	C 	0.22155 0.02908 0.78683 -0.34500
H 	H 	0.14427 0.89313 0.77953 0.15700
C 	C 	0.11974 0.93062 0.79553 0.21700
C 	C 	0.18777 0.03280 0.79826 0.21500
H 	H 	0.25537 0.06203 0.78373 0.15300
C 	C 	0.13607 0.98301 0.80286 -0.26100
H 	H 	0.08537 0.89753 0.79823 -0.03100
H 	H 	0.19897 0.06813 0.80293 -0.03000
C 	C 	0.09847 0.98770 0.81455 0.47900
O 	O 	0.00133 0.06800 0.12904 -0.52200
Zn	Zn	0.00827 0.07242 0.16730 1.21600
C 	C 	0.01386 0.11404 0.13586 0.44000
O 	O 	0.01989 0.12334 0.15033 -0.52400
O 	O 	0.94578 0.05700 0.18143 -0.53300
O 	O 	0.07716 0.11421 0.17989 -0.52100
C 	C 	0.01440 0.16138 0.12659 -0.24900
C 	C 	0.99815 0.15175 0.11112 0.19700
C 	C 	0.03206 0.21467 0.13256 0.21000
H 	H 	0.98763 0.11617 0.10667 -0.02100
C 	C 	0.99765 0.19507 0.10242 -0.30300
H 	H 	0.04303 0.22157 0.14287 -0.02700
C 	C 	0.03433 0.25854 0.12393 -0.30600
C 	C 	0.01492 0.24897 0.10859 0.31300
H 	H 	0.98543 0.18757 0.09217 0.13900
H 	H 	0.04893 0.29517 0.12827 0.15000
O 	O 	0.01592 0.29374 0.10127 -0.26100
C 	C 	0.98322 0.28062 0.08742 0.04600
H 	H 	0.00273 0.27247 0.07917 0.02900
H 	H 	0.94523 0.24687 0.08887 0.03000
C 	C 	0.95450 0.35196 0.09723 0.03900
O 	O 	0.90223 0.30252 0.10190 -0.25800
H 	H 	0.98243 0.36557 0.10557 0.03400
H 	H 	0.94743 0.38297 0.09427 0.03100
C 	C 	0.87223 0.31097 0.11343 0.33500
C 	C 	0.82133 0.26150 0.11768 -0.32300
C 	C 	0.88821 0.36242 0.12017 -0.34000
H 	H 	0.81093 0.22647 0.11287 0.15700
C 	C 	0.78640 0.26396 0.12887 0.21600
C 	C 	0.85443 0.36614 0.13160 0.21700
H 	H 	0.92203 0.39537 0.11707 0.15200
C 	C 	0.80273 0.31635 0.13620 -0.26200
H 	H 	0.75203 0.23087 0.13157 -0.03000
H 	H 	0.86563 0.40147 0.13627 -0.02900
C 	C 	0.76513 0.32104 0.14789 0.47500
O 	O 	0.59867 0.26667 0.46237 -0.51900
Zn	Zn	0.59425 0.26918 0.50063 1.21700
C 	C 	0.55263 0.23316 0.46919 0.43900
O 	O 	0.54333 0.22989 0.48366 -0.52300
O 	O 	0.60967 0.22212 0.51476 -0.53600
O 	O 	0.55246 0.29629 0.51322 -0.52100
C 	C 	0.50529 0.18636 0.45992 -0.24400
C 	C 	0.51492 0.17974 0.44445 0.19200
C 	C 	0.45200 0.15073 0.46589 0.20700
H 	H 	0.55050 0.20480 0.44000 -0.02000
C 	C 	0.47160 0.13592 0.43575 -0.30500
H 	H 	0.44510 0.15480 0.47620 -0.02600
C 	C 	0.40813 0.10913 0.45726 -0.30500
C 	C 	0.41770 0.09929 0.44192 0.31400
H 	H 	0.47910 0.13120 0.42550 0.13900
H 	H 	0.37150 0.08710 0.46160 0.14900
O 	O 	0.37293 0.05552 0.43460 -0.25800
C 	C 	0.38605 0.03594 0.42075 0.03400
H 	H 	0.39420 0.06360 0.41250 0.03400
H 	H 	0.41980 0.03170 0.42220 0.03200
C 	C 	0.31471 0.93588 0.43056 0.03900
O 	O 	0.36415 0.93305 0.43523 -0.25800
H 	H 	0.30110 0.95020 0.43890 0.03400
H 	H 	0.28370 0.89780 0.42760 0.03100
C 	C 	0.35570 0.89460 0.44676 0.33500
C 	C 	0.40517 0.89317 0.45101 -0.32300
C 	C 	0.30425 0.85913 0.45350 -0.34000
H 	H 	0.44020 0.91780 0.44620 0.15700
C 	C 	0.40271 0.85578 0.46220 0.21600
C 	C 	0.30053 0.82163 0.46493 0.21700
H 	H 	0.27130 0.86000 0.45040 0.15200
C 	C 	0.35032 0.81972 0.46953 -0.26200
H 	H 	0.43580 0.85450 0.46490 -0.03000
H 	H 	0.26520 0.79750 0.46960 -0.03000
C 	C 	0.34563 0.77743 0.48122 0.47500
O 	O 	0.26534 0.60000 0.79570 -0.51900
Zn	Zn	0.26091 0.60252 0.83397 1.21700
C 	C 	0.21930 0.56649 0.80252 0.43900
O 	O 	0.21000 0.56322 0.81699 -0.52300
O 	O 	0.27634 0.55545 0.84809 -0.53600
O 	O 	0.21913 0.62962 0.84655 -0.52100
C 	C 	0.17196 0.51969 0.79325 -0.24400
C 	C 	0.18159 0.51307 0.77778 0.19200
C 	C 	0.11867 0.48406 0.79922 0.20800
H 	H 	0.21717 0.53813 0.77333 -0.02000
C 	C 	0.13827 0.46925 0.76908 -0.30600
H 	H 	0.11177 0.48813 0.80953 -0.02600
C 	C 	0.07480 0.44246 0.79059 -0.30500
C 	C 	0.08437 0.43262 0.77525 0.31500
H 	H 	0.14577 0.46453 0.75883 0.13900
H 	H 	0.03817 0.42043 0.79493 0.14900
O 	O 	0.03960 0.38885 0.76793 -0.26000
C 	C 	0.05272 0.36927 0.75408 0.04000
H 	H 	0.06087 0.39693 0.74583 0.03200
H 	H 	0.08647 0.36503 0.75553 0.03200
C 	C 	0.98138 0.26921 0.76389 0.04800
O 	O 	0.03082 0.26638 0.76856 -0.26100
H 	H 	0.96777 0.28353 0.77223 0.03100
H 	H 	0.95037 0.23113 0.76093 0.02800
C 	C 	0.02237 0.22793 0.78009 0.33200
C 	C 	0.07184 0.22650 0.78434 -0.32200
C 	C 	0.97092 0.19246 0.78683 -0.33600
H 	H 	0.10687 0.25113 0.77953 0.15600
C 	C 	0.06938 0.18911 0.79553 0.21600
C 	C 	0.96720 0.15496 0.79826 0.21900
H 	H 	0.93797 0.19333 0.78373 0.15100
C 	C 	0.01699 0.15305 0.80286 -0.26400
H 	H 	0.10247 0.18783 0.79823 -0.03000
H 	H 	0.93187 0.13083 0.80293 -0.03000
C 	C 	0.01230 0.11076 0.81455 0.47200
O 	O 	0.93200 0.93334 0.12904 -0.51700
Zn	Zn	0.92758 0.93585 0.16730 1.21800
C 	C 	0.88596 0.89983 0.13586 0.43900
O 	O 	0.87666 0.89656 0.15033 -0.52200
O 	O 	0.94300 0.88879 0.18143 -0.53500
O 	O 	0.88579 0.96296 0.17989 -0.51700
C 	C 	0.83862 0.85303 0.12659 -0.24300
C 	C 	0.84825 0.84641 0.11112 0.19200
C 	C 	0.78533 0.81740 0.13256 0.20700
H 	H 	0.88383 0.87147 0.10667 -0.01900
C 	C 	0.80493 0.80259 0.10242 -0.30400
H 	H 	0.77843 0.82147 0.14287 -0.02500
C 	C 	0.74146 0.77580 0.12393 -0.30400
C 	C 	0.75103 0.76596 0.10859 0.31500
H 	H 	0.81243 0.79787 0.09217 0.13900
H 	H 	0.70483 0.75377 0.12827 0.15000
O 	O 	0.70626 0.72219 0.10127 -0.25800
C 	C 	0.71938 0.70261 0.08742 0.03600
H 	H 	0.72753 0.73027 0.07917 0.03400
H 	H 	0.75313 0.69837 0.08887 0.03300
C 	C 	0.64804 0.60255 0.09723 0.03900
O 	O 	0.69748 0.59972 0.10190 -0.25800
H 	H 	0.63443 0.61687 0.10557 0.03300
H 	H 	0.61703 0.56447 0.09427 0.03100
C 	C 	0.68903 0.56127 0.11343 0.33500
C 	C 	0.73850 0.55984 0.11768 -0.32300
C 	C 	0.63758 0.52580 0.12017 -0.34000
H 	H 	0.77353 0.58447 0.11287 0.15700
C 	C 	0.73604 0.52245 0.12887 0.21600
C 	C 	0.63386 0.48830 0.13160 0.21700
H 	H 	0.60463 0.52667 0.11707 0.15200
C 	C 	0.68365 0.48639 0.13620 -0.26200
H 	H 	0.76913 0.52117 0.13157 -0.03000
H 	H 	0.59853 0.46417 0.13627 -0.03000
C 	C 	0.67896 0.44410 0.14789 0.47500
O 	O 	0.73333 0.33200 0.46237 -0.51900
Zn	Zn	0.73082 0.32506 0.50063 1.21700
C 	C 	0.76684 0.31947 0.46919 0.43900
O 	O 	0.77011 0.31344 0.48366 -0.52300
O 	O 	0.77788 0.38755 0.51476 -0.53500
O 	O 	0.70371 0.25617 0.51322 -0.52100
C 	C 	0.81364 0.31893 0.45992 -0.24400
C 	C 	0.82026 0.33518 0.44445 0.19200
C 	C 	0.84927 0.30127 0.46589 0.20800
H 	H 	0.79520 0.34570 0.44000 -0.02000
C 	C 	0.86408 0.33568 0.43575 -0.30500
H 	H 	0.84520 0.29030 0.47620 -0.02500
C 	C 	0.89087 0.29900 0.45726 -0.30500
C 	C 	0.90071 0.31841 0.44192 0.31500
H 	H 	0.86880 0.34790 0.42550 0.13900
H 	H 	0.91290 0.28440 0.46160 0.15000
O 	O 	0.94448 0.31741 0.43460 -0.25800
C 	C 	0.96406 0.35011 0.42075 0.03900
H 	H 	0.93640 0.33060 0.41250 0.03400
H 	H 	0.96830 0.38810 0.42220 0.03300
C 	C 	0.06412 0.37883 0.43056 0.03900
O 	O 	0.06695 0.43110 0.43523 -0.25900
H 	H 	0.04980 0.35090 0.43890 0.03200
H 	H 	0.10220 0.38590 0.42760 0.03000
C 	C 	0.10540 0.46110 0.44676 0.33500
C 	C 	0.10683 0.51200 0.45101 -0.32300
C 	C 	0.14087 0.44512 0.45350 -0.34000
H 	H 	0.08220 0.52240 0.44620 0.15600
C 	C 	0.14422 0.54693 0.46220 0.21600
C 	C 	0.17837 0.47890 0.46493 0.21600
H 	H 	0.14000 0.41130 0.45040 0.15200
C 	C 	0.18028 0.53060 0.46953 -0.26200
H 	H 	0.14550 0.58130 0.46490 -0.03000
H 	H 	0.20250 0.46770 0.46960 -0.03000
C 	C 	0.22257 0.56820 0.48122 0.47500
O 	O 	0.40000 0.66533 0.79570 -0.51900
Zn	Zn	0.39748 0.65840 0.83397 1.21700
C 	C 	0.43351 0.65280 0.80252 0.43900
O 	O 	0.43678 0.64677 0.81699 -0.52300
O 	O 	0.44455 0.72088 0.84809 -0.53500
O 	O 	0.37038 0.58950 0.84655 -0.52100
C 	C 	0.48031 0.65226 0.79325 -0.24400
C 	C 	0.48693 0.66851 0.77778 0.19200
C 	C 	0.51594 0.63460 0.79922 0.20800
H 	H 	0.46187 0.67903 0.77333 -0.02000
C 	C 	0.53075 0.66901 0.76908 -0.30500
H 	H 	0.51187 0.62363 0.80953 -0.02500
C 	C 	0.55754 0.63233 0.79059 -0.30500
C 	C 	0.56738 0.65174 0.77525 0.31500
H 	H 	0.53547 0.68123 0.75883 0.13900
H 	H 	0.57957 0.61773 0.79493 0.15000
O 	O 	0.61115 0.65074 0.76793 -0.25800
C 	C 	0.63073 0.68344 0.75408 0.03600
H 	H 	0.60307 0.66393 0.74583 0.03400
H 	H 	0.63497 0.72143 0.75553 0.03300
C 	C 	0.73079 0.71216 0.76389 0.03900
O 	O 	0.73362 0.76443 0.76856 -0.25800
H 	H 	0.71647 0.68423 0.77223 0.03300
H 	H 	0.76887 0.71923 0.76093 0.03100
C 	C 	0.77207 0.79443 0.78009 0.33500
C 	C 	0.77350 0.84533 0.78434 -0.32200
C 	C 	0.80754 0.77845 0.78683 -0.34000
H 	H 	0.74887 0.85573 0.77953 0.15700
C 	C 	0.81089 0.88026 0.79553 0.21600
C 	C 	0.84504 0.81223 0.79826 0.21600
H 	H 	0.80667 0.74463 0.78373 0.15200
C 	C 	0.84695 0.86393 0.80286 -0.26100
H 	H 	0.81217 0.91463 0.79823 -0.02900
H 	H 	0.86917 0.80103 0.80293 -0.02900
C 	C 	0.88924 0.90153 0.81455 0.47500
O 	O 	0.06666 0.99867 0.12904 -0.51800
Zn	Zn	0.06415 0.99173 0.16730 1.21800
C 	C 	0.10017 0.98614 0.13586 0.43800
O 	O 	0.10344 0.98011 0.15033 -0.52200
O 	O 	0.11121 0.05422 0.18143 -0.53700
O 	O 	0.03704 0.92284 0.17989 -0.52200
C 	C 	0.14697 0.98560 0.12659 -0.23900
C 	C 	0.15359 0.00185 0.11112 0.18700
C 	C 	0.18260 0.96794 0.13256 0.20600
H 	H 	0.12853 0.01237 0.10667 -0.02000
C 	C 	0.19741 0.00235 0.10242 -0.30700
H 	H 	0.17853 0.95697 0.14287 -0.02500
C 	C 	0.22420 0.96567 0.12393 -0.30400
C 	C 	0.23404 0.98508 0.10859 0.31700
H 	H 	0.20213 0.01457 0.09217 0.13900
H 	H 	0.24623 0.95107 0.12827 0.15000
O 	O 	0.27781 0.98408 0.10127 -0.25500
C 	C 	0.29739 0.01678 0.08742 0.02700
H 	H 	0.26973 0.99727 0.07917 0.03900
H 	H 	0.30163 0.05477 0.08887 0.03500
C 	C 	0.39745 0.04550 0.09723 0.03900
O 	O 	0.40028 0.09777 0.10190 -0.25900
H 	H 	0.38313 0.01757 0.10557 0.03200
H 	H 	0.43553 0.05257 0.09427 0.03000
C 	C 	0.43873 0.12777 0.11343 0.33500
C 	C 	0.44016 0.17867 0.11768 -0.32300
C 	C 	0.47420 0.11179 0.12017 -0.34000
H 	H 	0.41553 0.18907 0.11287 0.15600
C 	C 	0.47755 0.21360 0.12887 0.21600
C 	C 	0.51170 0.14557 0.13160 0.21600
H 	H 	0.47333 0.07797 0.11707 0.15200
C 	C 	0.51361 0.19727 0.13620 -0.26200
H 	H 	0.47883 0.24797 0.13157 -0.03000
H 	H 	0.53583 0.13437 0.13627 -0.03000
C 	C 	0.55590 0.23487 0.14789 0.47500
O 	O 	0.40133 0.66800 0.03763 -0.51900
Zn	Zn	0.40575 0.67494 0.99937 1.21700
C 	C 	0.44737 0.68053 0.03081 0.43900
O 	O 	0.45667 0.68656 0.01634 -0.52300
O 	O 	0.39033 0.61245 0.98524 -0.53500
O 	O 	0.44754 0.74383 0.98678 -0.52000
C 	C 	0.49471 0.68107 0.04008 -0.24400
C 	C 	0.48508 0.66482 0.05555 0.19200
C 	C 	0.54800 0.69873 0.03411 0.20800
H 	H 	0.44950 0.65430 0.06000 -0.02000
C 	C 	0.52840 0.66432 0.06425 -0.30500
H 	H 	0.55490 0.70970 0.02380 -0.02500
C 	C 	0.59187 0.70100 0.04274 -0.30500
C 	C 	0.58230 0.68159 0.05808 0.31500
H 	H 	0.52090 0.65210 0.07450 0.13900
H 	H 	0.62850 0.71560 0.03840 0.15000
O 	O 	0.62707 0.68259 0.06540 -0.25800
C 	C 	0.61395 0.64989 0.07925 0.03600
H 	H 	0.60580 0.66940 0.08750 0.03400
H 	H 	0.58020 0.61190 0.07780 0.03300
C 	C 	0.68529 0.62117 0.06944 0.03900
O 	O 	0.63585 0.56890 0.06477 -0.25800
H 	H 	0.69890 0.64910 0.06110 0.03300
H 	H 	0.71630 0.61410 0.07240 0.03100
C 	C 	0.64430 0.53890 0.05324 0.33500
C 	C 	0.59483 0.48800 0.04899 -0.32300
C 	C 	0.69575 0.55488 0.04650 -0.34000
H 	H 	0.55980 0.47760 0.05380 0.15700
C 	C 	0.59729 0.45307 0.03780 0.21600
C 	C 	0.69947 0.52110 0.03507 0.21700
H 	H 	0.72870 0.58870 0.04960 0.15200
C 	C 	0.64968 0.46940 0.03047 -0.26200
H 	H 	0.56420 0.41870 0.03510 -0.03000
H 	H 	0.73480 0.53230 0.03040 -0.02900
C 	C 	0.65437 0.43180 0.01878 0.47500
O 	O 	0.06800 0.00133 0.37096 -0.52200
Zn	Zn	0.07242 0.00827 0.33270 1.21600
C 	C 	0.11404 0.01386 0.36414 0.44000
O 	O 	0.12334 0.01989 0.34967 -0.52400
O 	O 	0.05700 0.94578 0.31857 -0.53300
O 	O 	0.11421 0.07716 0.32011 -0.52100
C 	C 	0.16138 0.01440 0.37341 -0.24900
C 	C 	0.15175 0.99815 0.38888 0.19700
C 	C 	0.21467 0.03206 0.36744 0.21000
H 	H 	0.11617 0.98763 0.39333 -0.02100
C 	C 	0.19507 0.99765 0.39758 -0.30300
H 	H 	0.22157 0.04303 0.35713 -0.02700
C 	C 	0.25854 0.03433 0.37607 -0.30600
C 	C 	0.24897 0.01492 0.39141 0.31300
H 	H 	0.18757 0.98543 0.40783 0.13900
H 	H 	0.29517 0.04893 0.37173 0.15000
O 	O 	0.29374 0.01592 0.39873 -0.26100
C 	C 	0.28062 0.98322 0.41258 0.04600
H 	H 	0.27247 0.00273 0.42083 0.02900
H 	H 	0.24687 0.94523 0.41113 0.03000
C 	C 	0.35196 0.95450 0.40277 0.03900
O 	O 	0.30252 0.90223 0.39810 -0.25800
H 	H 	0.36557 0.98243 0.39443 0.03400
H 	H 	0.38297 0.94743 0.40573 0.03100
C 	C 	0.31097 0.87223 0.38657 0.33500
C 	C 	0.26150 0.82133 0.38232 -0.32300
C 	C 	0.36242 0.88821 0.37983 -0.34000
H 	H 	0.22647 0.81093 0.38713 0.15700
C 	C 	0.26396 0.78640 0.37113 0.21600
C 	C 	0.36614 0.85443 0.36840 0.21700
H 	H 	0.39537 0.92203 0.38293 0.15200
C 	C 	0.31635 0.80273 0.36380 -0.26200
H 	H 	0.23087 0.75203 0.36843 -0.03000
H 	H 	0.40147 0.86563 0.36373 -0.02900
C 	C 	0.32104 0.76513 0.35211 0.47500
O 	O 	0.73466 0.33467 0.70430 -0.51900
Zn	Zn	0.73909 0.34160 0.66603 1.21700
C 	C 	0.78070 0.34720 0.69748 0.43900
O 	O 	0.79000 0.35323 0.68301 -0.52300
O 	O 	0.72366 0.27912 0.65191 -0.53600
O 	O 	0.78087 0.41050 0.65345 -0.52000
C 	C 	0.82804 0.34774 0.70675 -0.24400
C 	C 	0.81841 0.33149 0.72222 0.19200
C 	C 	0.88133 0.36540 0.70078 0.20800
H 	H 	0.78283 0.32097 0.72667 -0.02000
C 	C 	0.86173 0.33099 0.73092 -0.30500
H 	H 	0.88823 0.37637 0.69047 -0.02500
C 	C 	0.92520 0.36767 0.70941 -0.30500
C 	C 	0.91563 0.34826 0.72475 0.31500
H 	H 	0.85423 0.31877 0.74117 0.13900
H 	H 	0.96183 0.38227 0.70507 0.15000
O 	O 	0.96040 0.34926 0.73207 -0.25800
C 	C 	0.94728 0.31656 0.74592 0.04200
H 	H 	0.93913 0.33607 0.75417 0.03300
H 	H 	0.91353 0.27857 0.74447 0.03100
C 	C 	0.01862 0.28784 0.73611 0.04000
O 	O 	0.96918 0.23557 0.73144 -0.25800
H 	H 	0.03223 0.31577 0.72777 0.03200
H 	H 	0.04963 0.28077 0.73907 0.03000
C 	C 	0.97763 0.20557 0.71991 0.34000
C 	C 	0.92816 0.15467 0.71566 -0.32500
C 	C 	0.02908 0.22155 0.71317 -0.34500
H 	H 	0.89313 0.14427 0.72047 0.15700
C 	C 	0.93062 0.11974 0.70447 0.21700
C 	C 	0.03280 0.18777 0.70174 0.21500
H 	H 	0.06203 0.25537 0.71627 0.15300
C 	C 	0.98301 0.13607 0.69714 -0.26100
H 	H 	0.89753 0.08537 0.70177 -0.03100
H 	H 	0.06813 0.19897 0.69707 -0.03000
C 	C 	0.98770 0.09847 0.68545 0.47900
O 	O 	0.26667 0.59867 0.03763 -0.51900
Zn	Zn	0.26918 0.59425 0.99937 1.21700
C 	C 	0.23316 0.55263 0.03081 0.43900
O 	O 	0.22989 0.54333 0.01634 -0.52300
O 	O 	0.22212 0.60967 0.98524 -0.53600
O 	O 	0.29629 0.55246 0.98678 -0.52100
C 	C 	0.18636 0.50529 0.04008 -0.24400
C 	C 	0.17974 0.51492 0.05555 0.19200
C 	C 	0.15073 0.45200 0.03411 0.20700
H 	H 	0.20480 0.55050 0.06000 -0.02000
C 	C 	0.13592 0.47160 0.06425 -0.30500
H 	H 	0.15480 0.44510 0.02380 -0.02600
C 	C 	0.10913 0.40813 0.04274 -0.30500
C 	C 	0.09929 0.41770 0.05808 0.31400
H 	H 	0.13120 0.47910 0.07450 0.13900
H 	H 	0.08710 0.37150 0.03840 0.14900
O 	O 	0.05552 0.37293 0.06540 -0.25800
C 	C 	0.03594 0.38605 0.07925 0.03400
H 	H 	0.06360 0.39420 0.08750 0.03400
H 	H 	0.03170 0.41980 0.07780 0.03200
C 	C 	0.93588 0.31471 0.06944 0.03900
O 	O 	0.93305 0.36415 0.06477 -0.25800
H 	H 	0.95020 0.30110 0.06110 0.03400
H 	H 	0.89780 0.28370 0.07240 0.03100
C 	C 	0.89460 0.35570 0.05324 0.33500
C 	C 	0.89317 0.40517 0.04899 -0.32300
C 	C 	0.85913 0.30425 0.04650 -0.34000
H 	H 	0.91780 0.44020 0.05380 0.15700
C 	C 	0.85578 0.40271 0.03780 0.21600
C 	C 	0.82163 0.30053 0.03507 0.21700
H 	H 	0.86000 0.27130 0.04960 0.15200
C 	C 	0.81972 0.35032 0.03047 -0.26200
H 	H 	0.85450 0.43580 0.03510 -0.03000
H 	H 	0.79750 0.26520 0.03040 -0.03000
C 	C 	0.77743 0.34563 0.01878 0.47500
O 	O 	0.93334 0.93200 0.37096 -0.51700
Zn	Zn	0.93585 0.92758 0.33270 1.21800
C 	C 	0.89983 0.88596 0.36414 0.43900
O 	O 	0.89656 0.87666 0.34967 -0.52200
O 	O 	0.88879 0.94300 0.31857 -0.53500
O 	O 	0.96296 0.88579 0.32011 -0.51700
C 	C 	0.85303 0.83862 0.37341 -0.24300
C 	C 	0.84641 0.84825 0.38888 0.19200
C 	C 	0.81740 0.78533 0.36744 0.20700
H 	H 	0.87147 0.88383 0.39333 -0.01900
C 	C 	0.80259 0.80493 0.39758 -0.30400
H 	H 	0.82147 0.77843 0.35713 -0.02500
C 	C 	0.77580 0.74146 0.37607 -0.30400
C 	C 	0.76596 0.75103 0.39141 0.31500
H 	H 	0.79787 0.81243 0.40783 0.13900
H 	H 	0.75377 0.70483 0.37173 0.15000
O 	O 	0.72219 0.70626 0.39873 -0.25800
C 	C 	0.70261 0.71938 0.41258 0.03600
H 	H 	0.73027 0.72753 0.42083 0.03400
H 	H 	0.69837 0.75313 0.41113 0.03300
C 	C 	0.60255 0.64804 0.40277 0.03900
O 	O 	0.59972 0.69748 0.39810 -0.25800
H 	H 	0.61687 0.63443 0.39443 0.03300
H 	H 	0.56447 0.61703 0.40573 0.03100
C 	C 	0.56127 0.68903 0.38657 0.33500
C 	C 	0.55984 0.73850 0.38232 -0.32300
C 	C 	0.52580 0.63758 0.37983 -0.34000
H 	H 	0.58447 0.77353 0.38713 0.15700
C 	C 	0.52245 0.73604 0.37113 0.21600
C 	C 	0.48830 0.63386 0.36840 0.21700
H 	H 	0.52667 0.60463 0.38293 0.15200
C 	C 	0.48639 0.68365 0.36380 -0.26200
H 	H 	0.52117 0.76913 0.36843 -0.03000
H 	H 	0.46417 0.59853 0.36373 -0.03000
C 	C 	0.44410 0.67896 0.35211 0.47500
O 	O 	0.60000 0.26534 0.70430 -0.51900
Zn	Zn	0.60252 0.26091 0.66603 1.21700
C 	C 	0.56649 0.21930 0.69748 0.43900
O 	O 	0.56322 0.21000 0.68301 -0.52300
O 	O 	0.55545 0.27634 0.65191 -0.53600
O 	O 	0.62962 0.21913 0.65345 -0.52100
C 	C 	0.51969 0.17196 0.70675 -0.24400
C 	C 	0.51307 0.18159 0.72222 0.19200
C 	C 	0.48406 0.11867 0.70078 0.20800
H 	H 	0.53813 0.21717 0.72667 -0.02000
C 	C 	0.46925 0.13827 0.73092 -0.30600
H 	H 	0.48813 0.11177 0.69047 -0.02600
C 	C 	0.44246 0.07480 0.70941 -0.30500
C 	C 	0.43262 0.08437 0.72475 0.31500
H 	H 	0.46453 0.14577 0.74117 0.13900
H 	H 	0.42043 0.03817 0.70507 0.14900
O 	O 	0.38885 0.03960 0.73207 -0.26000
C 	C 	0.36927 0.05272 0.74592 0.04000
H 	H 	0.39693 0.06087 0.75417 0.03200
H 	H 	0.36503 0.08647 0.74447 0.03200
C 	C 	0.26921 0.98138 0.73611 0.04800
O 	O 	0.26638 0.03082 0.73144 -0.26100
H 	H 	0.28353 0.96777 0.72777 0.03100
H 	H 	0.23113 0.95037 0.73907 0.02800
C 	C 	0.22793 0.02237 0.71991 0.33200
C 	C 	0.22650 0.07184 0.71566 -0.32200
C 	C 	0.19246 0.97092 0.71317 -0.33600
H 	H 	0.25113 0.10687 0.72047 0.15600
C 	C 	0.18911 0.06938 0.70447 0.21600
C 	C 	0.15496 0.96720 0.70174 0.21900
H 	H 	0.19333 0.93797 0.71627 0.15100
C 	C 	0.15305 0.01699 0.69714 -0.26400
H 	H 	0.18783 0.10247 0.70177 -0.03000
H 	H 	0.13083 0.93187 0.69707 -0.03000
C 	C 	0.11076 0.01230 0.68545 0.47200
O 	O 	0.33200 0.73333 0.03763 -0.51900
Zn	Zn	0.32506 0.73082 0.99937 1.21700
C 	C 	0.31947 0.76684 0.03081 0.43900
O 	O 	0.31344 0.77011 0.01634 -0.52300
O 	O 	0.38755 0.77788 0.98524 -0.53500
O 	O 	0.25617 0.70371 0.98678 -0.52100
C 	C 	0.31893 0.81364 0.04008 -0.24400
C 	C 	0.33518 0.82026 0.05555 0.19200
C 	C 	0.30127 0.84927 0.03411 0.20800
H 	H 	0.34570 0.79520 0.06000 -0.02000
C 	C 	0.33568 0.86408 0.06425 -0.30500
H 	H 	0.29030 0.84520 0.02380 -0.02500
C 	C 	0.29900 0.89087 0.04274 -0.30500
C 	C 	0.31841 0.90071 0.05808 0.31500
H 	H 	0.34790 0.86880 0.07450 0.13900
H 	H 	0.28440 0.91290 0.03840 0.15000
O 	O 	0.31741 0.94448 0.06540 -0.25800
C 	C 	0.35011 0.96406 0.07925 0.03900
H 	H 	0.33060 0.93640 0.08750 0.03400
H 	H 	0.38810 0.96830 0.07780 0.03300
C 	C 	0.37883 0.06412 0.06944 0.03900
O 	O 	0.43110 0.06695 0.06477 -0.25900
H 	H 	0.35090 0.04980 0.06110 0.03200
H 	H 	0.38590 0.10220 0.07240 0.03000
C 	C 	0.46110 0.10540 0.05324 0.33500
C 	C 	0.51200 0.10683 0.04899 -0.32300
C 	C 	0.44512 0.14087 0.04650 -0.34000
H 	H 	0.52240 0.08220 0.05380 0.15600
C 	C 	0.54693 0.14422 0.03780 0.21600
C 	C 	0.47890 0.17837 0.03507 0.21600
H 	H 	0.41130 0.14000 0.04960 0.15200
C 	C 	0.53060 0.18028 0.03047 -0.26200
H 	H 	0.58130 0.14550 0.03510 -0.03000
H 	H 	0.46770 0.20250 0.03040 -0.03000
C 	C 	0.56820 0.22257 0.01878 0.47500
O 	O 	0.99867 0.06666 0.37096 -0.51800
Zn	Zn	0.99173 0.06415 0.33270 1.21800
C 	C 	0.98614 0.10017 0.36414 0.43800
O 	O 	0.98011 0.10344 0.34967 -0.52200
O 	O 	0.05422 0.11121 0.31857 -0.53700
O 	O 	0.92284 0.03704 0.32011 -0.52200
C 	C 	0.98560 0.14697 0.37341 -0.23900
C 	C 	0.00185 0.15359 0.38888 0.18700
C 	C 	0.96794 0.18260 0.36744 0.20600
H 	H 	0.01237 0.12853 0.39333 -0.02000
C 	C 	0.00235 0.19741 0.39758 -0.30700
H 	H 	0.95697 0.17853 0.35713 -0.02500
C 	C 	0.96567 0.22420 0.37607 -0.30400
C 	C 	0.98508 0.23404 0.39141 0.31700
H 	H 	0.01457 0.20213 0.40783 0.13900
H 	H 	0.95107 0.24623 0.37173 0.15000
O 	O 	0.98408 0.27781 0.39873 -0.25500
C 	C 	0.01678 0.29739 0.41258 0.02700
H 	H 	0.99727 0.26973 0.42083 0.03900
H 	H 	0.05477 0.30163 0.41113 0.03500
C 	C 	0.04550 0.39745 0.40277 0.03900
O 	O 	0.09777 0.40028 0.39810 -0.25900
H 	H 	0.01757 0.38313 0.39443 0.03200
H 	H 	0.05257 0.43553 0.40573 0.03000
C 	C 	0.12777 0.43873 0.38657 0.33500
C 	C 	0.17867 0.44016 0.38232 -0.32300
C 	C 	0.11179 0.47420 0.37983 -0.34000
H 	H 	0.18907 0.41553 0.38713 0.15600
C 	C 	0.21360 0.47755 0.37113 0.21600
C 	C 	0.14557 0.51170 0.36840 0.21600
H 	H 	0.07797 0.47333 0.38293 0.15200
C 	C 	0.19727 0.51361 0.36380 -0.26200
H 	H 	0.24797 0.47883 0.36843 -0.03000
H 	H 	0.13437 0.53583 0.36373 -0.03000
C 	C 	0.23487 0.55590 0.35211 0.47500
O 	O 	0.66533 0.40000 0.70430 -0.51900
Zn	Zn	0.65840 0.39748 0.66603 1.21700
C 	C 	0.65280 0.43351 0.69748 0.43900
O 	O 	0.64677 0.43678 0.68301 -0.52300
O 	O 	0.72088 0.44455 0.65191 -0.53500
O 	O 	0.58950 0.37038 0.65345 -0.52100
C 	C 	0.65226 0.48031 0.70675 -0.24400
C 	C 	0.66851 0.48693 0.72222 0.19200
C 	C 	0.63460 0.51594 0.70078 0.20800
H 	H 	0.67903 0.46187 0.72667 -0.02000
C 	C 	0.66901 0.53075 0.73092 -0.30500
H 	H 	0.62363 0.51187 0.69047 -0.02500
C 	C 	0.63233 0.55754 0.70941 -0.30500
C 	C 	0.65174 0.56738 0.72475 0.31500
H 	H 	0.68123 0.53547 0.74117 0.13900
H 	H 	0.61773 0.57957 0.70507 0.15000
O 	O 	0.65074 0.61115 0.73207 -0.25800
C 	C 	0.68344 0.63073 0.74592 0.03600
H 	H 	0.66393 0.60307 0.75417 0.03400
H 	H 	0.72143 0.63497 0.74447 0.03300
C 	C 	0.71216 0.73079 0.73611 0.03900
O 	O 	0.76443 0.73362 0.73144 -0.25800
H 	H 	0.68423 0.71647 0.72777 0.03300
H 	H 	0.71923 0.76887 0.73907 0.03100
C 	C 	0.79443 0.77207 0.71991 0.33500
C 	C 	0.84533 0.77350 0.71566 -0.32200
C 	C 	0.77845 0.80754 0.71317 -0.34000
H 	H 	0.85573 0.74887 0.72047 0.15700
C 	C 	0.88026 0.81089 0.70447 0.21600
C 	C 	0.81223 0.84504 0.70174 0.21600
H 	H 	0.74463 0.80667 0.71627 0.15200
C 	C 	0.86393 0.84695 0.69714 -0.26100
H 	H 	0.91463 0.81217 0.70177 -0.02900
H 	H 	0.80103 0.86917 0.69707 -0.02900
C 	C 	0.90153 0.88924 0.68545 0.47500
Zn	Zn	0.33333 0.66667 0.52919 1.21300
O 	O 	0.33333 0.66667 0.50668 -0.96000
Zn	Zn	-0.00000 0.00000 0.86252 1.21100
O 	O 	0.00000 0.00000 0.84001 -0.96300
Zn	Zn	0.66667 0.33333 0.19585 1.21300
O 	O 	0.66667 0.33333 0.17335 -0.96000
Zn	Zn	0.66667 0.33333 0.97082 1.21300
O 	O 	0.66667 0.33333 0.99332 -0.96000
Zn	Zn	0.33333 0.66667 0.30415 1.21300
O 	O 	0.33333 0.66667 0.32665 -0.96000
Zn	Zn	0.00000 0.00000 0.63748 1.21100
O 	O 	-0.00000 0.00000 0.65999 -0.96300
Zn	Zn	0.66667 0.33333 0.47081 1.21300
O 	O 	0.66667 0.33333 0.49332 -0.96000
Zn	Zn	0.33333 0.66667 0.80415 1.21300
O 	O 	0.33333 0.66667 0.82665 -0.96000
Zn	Zn	-0.00000 0.00000 0.13748 1.21100
O 	O 	0.00000 0.00000 0.15999 -0.96300
Zn	Zn	0.33333 0.66667 0.02919 1.21300
O 	O 	0.33333 0.66667 0.00668 -0.96000
Zn	Zn	-0.00000 0.00000 0.36252 1.21100
O 	O 	-0.00000 0.00000 0.34001 -0.96300
Zn	Zn	0.66667 0.33333 0.69585 1.21300
O 	O 	0.66667 0.33333 0.67335 -0.96000
C 	C 	0.35571 0.33333 0.58333 -0.00400
C 	C 	0.66667 0.02237 0.58333 -0.00400
C 	C 	0.97763 0.64429 0.58333 -0.00300
C 	C 	0.33333 0.35571 0.91667 -0.00400
C 	C 	0.00000 0.68904 0.25000 -0.01000
C 	C 	0.02237 0.66667 0.91667 -0.00400
C 	C 	0.68904 0.00000 0.25000 -0.01000
C 	C 	0.64429 0.97763 0.91667 -0.00300
C 	C 	0.31096 0.31096 0.25000 -0.00400
C 	C 	0.64429 0.66667 0.41667 -0.00300
C 	C 	0.31096 0.00000 0.75000 -0.01100
C 	C 	0.33333 0.97763 0.41667 -0.00300
C 	C 	0.00000 0.31096 0.75000 -0.01100
C 	C 	0.02237 0.35571 0.41667 -0.00400
C 	C 	0.68904 0.68904 0.75000 -0.00300
C 	C 	0.66667 0.64429 0.08333 -0.00300
C 	C 	0.97763 0.33333 0.08333 -0.00300
C 	C 	0.35571 0.02237 0.08333 -0.00400
