data_crystal

_cell_length_a 17.24100
_cell_length_b 15.95000
_cell_length_c 16.74000
_cell_angle_alpha 90.00000
_cell_angle_beta  108.38600
_cell_angle_gamma 90.00000

_symmetry_space_group_name_	'P 1'
_symmetry_space_group_name_H-M	'P 1'

loop_
_symmetry_equiv_pos_as_xyz
  x,y,z

loop_
_atom_site_label
_atom_site_type_symbol
_atom_site_fract_x
_atom_site_fract_y
_atom_site_fract_z
_atom_site_charge
C 	C 	0.38710 0.27980 0.30540 0.34200
C 	C 	0.43030 0.31150 0.39270 -0.09500
C 	C 	0.50480 0.27950 0.43940 0.02000
H 	H 	0.52980 0.23910 0.41590 0.04400
C 	C 	0.54340 0.30650 0.52110 -0.08100
C 	C 	0.50710 0.36920 0.55500 0.00300
H 	H 	0.53280 0.38750 0.60980 0.04000
C 	C 	0.43300 0.40480 0.50840 -0.05900
C 	C 	0.39550 0.37400 0.42740 0.00700
H 	H 	0.34540 0.39630 0.39570 0.03800
C 	C 	0.62190 0.26440 0.57110 0.29100
C 	C 	0.39390 0.47330 0.54300 0.14400
C 	C 	0.31790 0.50220 0.50090 -0.20700
H 	H 	0.28940 0.47860 0.44910 0.10600
C 	C 	0.28220 0.56480 0.53260 0.13100
H 	H 	0.23080 0.58300 0.49970 -0.02500
C 	C 	0.38870 0.57300 0.64590 0.12600
H 	H 	0.41570 0.59750 0.69770 -0.01800
C 	C 	0.42840 0.51130 0.61810 -0.20200
H 	H 	0.48040 0.49500 0.65130 0.10300
C 	C 	0.20660 0.49060 0.19650 0.00900
H 	H 	0.23670 0.51810 0.16710 0.02700
C 	C 	0.17710 0.52710 0.25420 0.00800
H 	H 	0.18340 0.58270 0.27180 0.03300
C 	C 	0.14490 0.39640 0.24040 0.11300
H 	H 	0.12370 0.34460 0.24860 -0.00200
C 	C 	0.09650 0.47470 0.34380 0.14400
C 	C 	0.09570 0.41180 0.39680 -0.14400
H 	H 	0.12110 0.36120 0.39260 0.08700
C 	C 	0.05730 0.42150 0.45800 0.00400
H 	H 	0.05720 0.37690 0.49370 0.03500
C 	C 	0.02020 0.49420 0.46700 -0.01400
C 	C 	0.01990 0.55550 0.41060 0.01600
H 	H 	0.99270 0.60530 0.41300 0.03700
C 	C 	0.05780 0.54720 0.35050 -0.15000
H 	H 	0.05700 0.59140 0.31410 0.10600
N 	N 	0.31420 0.60080 0.60460 -0.26600
N 	N 	0.18600 0.40850 0.18800 -0.22100
N 	N 	0.13650 0.46590 0.28090 -0.14900
Ni	Ni	0.24760 0.31315 0.14850 1.08000
O 	O 	0.31730 0.31100 0.27022 -0.41900
O 	O 	0.42120 0.22760 0.27380 -0.28800
O 	O 	0.65670 0.21480 0.53413 -0.39600
O 	O 	0.65150 0.27680 0.64935 -0.36400
C 	C 	0.88710 0.77980 0.30540 0.34300
C 	C 	0.93030 0.81150 0.39270 -0.09400
C 	C 	0.00480 0.77950 0.43940 0.02100
H 	H 	0.02980 0.73910 0.41590 0.04500
C 	C 	0.04340 0.80650 0.52110 -0.08000
C 	C 	0.00710 0.86920 0.55500 0.00300
H 	H 	0.03280 0.88750 0.60980 0.04100
C 	C 	0.93300 0.90480 0.50840 -0.05700
C 	C 	0.89550 0.87400 0.42740 0.00800
H 	H 	0.84540 0.89630 0.39570 0.03900
C 	C 	0.12190 0.76440 0.57110 0.29000
C 	C 	0.89390 0.97330 0.54300 0.14300
C 	C 	0.81790 0.00220 0.50090 -0.20700
H 	H 	0.78940 0.97860 0.44910 0.10600
C 	C 	0.78220 0.06480 0.53260 0.13100
H 	H 	0.73080 0.08300 0.49970 -0.02500
C 	C 	0.88870 0.07300 0.64590 0.12600
H 	H 	0.91570 0.09750 0.69770 -0.01800
C 	C 	0.92840 0.01130 0.61810 -0.20100
H 	H 	0.98040 0.99500 0.65130 0.10300
C 	C 	0.70660 0.99060 0.19650 0.01300
H 	H 	0.73670 0.01810 0.16710 0.02400
C 	C 	0.67710 0.02710 0.25420 0.00400
H 	H 	0.68340 0.08270 0.27180 0.03500
C 	C 	0.64490 0.89640 0.24040 0.11300
H 	H 	0.62370 0.84460 0.24860 -0.00200
C 	C 	0.59650 0.97470 0.34380 0.14500
C 	C 	0.59570 0.91180 0.39680 -0.14500
H 	H 	0.62110 0.86120 0.39260 0.08700
C 	C 	0.55730 0.92150 0.45800 0.00400
H 	H 	0.55720 0.87690 0.49370 0.03500
C 	C 	0.52020 0.99420 0.46700 -0.01400
C 	C 	0.51990 0.05550 0.41060 0.01600
H 	H 	0.49270 0.10530 0.41300 0.03700
C 	C 	0.55780 0.04720 0.35050 -0.15100
H 	H 	0.55700 0.09140 0.31410 0.10600
N 	N 	0.81420 0.10080 0.60460 -0.26600
N 	N 	0.68600 0.90850 0.18800 -0.22200
N 	N 	0.63650 0.96590 0.28090 -0.14800
Ni	Ni	0.74760 0.81315 0.14850 1.08000
O 	O 	0.81730 0.81100 0.27022 -0.41900
O 	O 	0.92120 0.72760 0.27380 -0.28800
O 	O 	0.15670 0.71480 0.53413 -0.39600
O 	O 	0.15150 0.77680 0.64935 -0.36400
C 	C 	0.61290 0.27980 0.19460 0.34300
C 	C 	0.56970 0.31150 0.10730 -0.09400
C 	C 	0.49520 0.27950 0.06060 0.01900
H 	H 	0.47020 0.23910 0.08410 0.04500
C 	C 	0.45660 0.30650 0.97890 -0.07900
C 	C 	0.49290 0.36920 0.94500 0.00200
H 	H 	0.46720 0.38750 0.89020 0.04100
C 	C 	0.56700 0.40480 0.99160 -0.05700
C 	C 	0.60450 0.37400 0.07260 0.00700
H 	H 	0.65460 0.39630 0.10430 0.03900
C 	C 	0.37810 0.26440 0.92890 0.29000
C 	C 	0.60610 0.47330 0.95700 0.14300
C 	C 	0.68210 0.50220 0.99910 -0.20600
H 	H 	0.71060 0.47860 0.05090 0.10500
C 	C 	0.71780 0.56480 0.96740 0.13000
H 	H 	0.76920 0.58300 0.00030 -0.02400
C 	C 	0.61130 0.57300 0.85410 0.12600
H 	H 	0.58430 0.59750 0.80230 -0.01800
C 	C 	0.57160 0.51130 0.88190 -0.20200
H 	H 	0.51960 0.49500 0.84870 0.10300
C 	C 	0.79340 0.49060 0.30350 0.00900
H 	H 	0.76330 0.51810 0.33290 0.02700
C 	C 	0.82290 0.52710 0.24580 0.00800
H 	H 	0.81660 0.58270 0.22820 0.03300
C 	C 	0.85510 0.39640 0.25960 0.11300
H 	H 	0.87630 0.34460 0.25140 -0.00200
C 	C 	0.90350 0.47470 0.15620 0.14400
C 	C 	0.90430 0.41180 0.10320 -0.14400
H 	H 	0.87890 0.36120 0.10740 0.08700
C 	C 	0.94270 0.42150 0.04200 0.00400
H 	H 	0.94280 0.37690 0.00630 0.03500
C 	C 	0.97980 0.49420 0.03300 -0.01400
C 	C 	0.98010 0.55550 0.08940 0.01500
H 	H 	0.00730 0.60530 0.08700 0.03700
C 	C 	0.94220 0.54720 0.14950 -0.14900
H 	H 	0.94300 0.59140 0.18590 0.10500
N 	N 	0.68580 0.60080 0.89540 -0.26600
N 	N 	0.81400 0.40850 0.31200 -0.22100
N 	N 	0.86350 0.46590 0.21910 -0.14900
Ni	Ni	0.75240 0.31315 0.35150 1.08000
O 	O 	0.68270 0.31100 0.22978 -0.41900
O 	O 	0.57880 0.22760 0.22620 -0.28800
O 	O 	0.34330 0.21480 0.96587 -0.39600
O 	O 	0.34850 0.27680 0.85065 -0.36400
C 	C 	0.11290 0.77980 0.19460 0.34300
C 	C 	0.06970 0.81150 0.10730 -0.09500
C 	C 	0.99520 0.77950 0.06060 0.02200
H 	H 	0.97020 0.73910 0.08410 0.04500
C 	C 	0.95660 0.80650 0.97890 -0.08200
C 	C 	0.99290 0.86920 0.94500 0.00400
H 	H 	0.96720 0.88750 0.89020 0.04100
C 	C 	0.06700 0.90480 0.99160 -0.05900
C 	C 	0.10450 0.87400 0.07260 0.01000
H 	H 	0.15460 0.89630 0.10430 0.03900
C 	C 	0.87810 0.76440 0.92890 0.29100
C 	C 	0.10610 0.97330 0.95700 0.13800
C 	C 	0.18210 0.00220 0.99910 -0.20300
H 	H 	0.21060 0.97860 0.05090 0.10500
C 	C 	0.21780 0.06480 0.96740 0.13100
H 	H 	0.26920 0.08300 0.00030 -0.02600
C 	C 	0.11130 0.07300 0.85410 0.12200
H 	H 	0.08430 0.09750 0.80230 -0.01600
C 	C 	0.07160 0.01130 0.88190 -0.19500
H 	H 	0.01960 0.99500 0.84870 0.10000
C 	C 	0.29340 0.99060 0.30350 0.01100
H 	H 	0.26330 0.01810 0.33290 0.02600
C 	C 	0.32290 0.02710 0.24580 0.00600
H 	H 	0.31660 0.08270 0.22820 0.03400
C 	C 	0.35510 0.89640 0.25960 0.11300
H 	H 	0.37630 0.84460 0.25140 -0.00200
C 	C 	0.40350 0.97470 0.15620 0.14500
C 	C 	0.40430 0.91180 0.10320 -0.14400
H 	H 	0.37890 0.86120 0.10740 0.08700
C 	C 	0.44270 0.92150 0.04200 0.00400
H 	H 	0.44280 0.87690 0.00630 0.03500
C 	C 	0.47980 0.99420 0.03300 -0.01300
C 	C 	0.48010 0.05550 0.08940 0.01400
H 	H 	0.50730 0.10530 0.08700 0.03700
C 	C 	0.44220 0.04720 0.14950 -0.15000
H 	H 	0.44300 0.09140 0.18590 0.10600
N 	N 	0.18580 0.10080 0.89540 -0.26500
N 	N 	0.31400 0.90850 0.31200 -0.22200
N 	N 	0.36350 0.96590 0.21910 -0.14800
Ni	Ni	0.25240 0.81315 0.35150 1.08000
O 	O 	0.18270 0.81100 0.22978 -0.41900
O 	O 	0.07880 0.72760 0.22620 -0.28800
O 	O 	0.84330 0.71480 0.96587 -0.39600
O 	O 	0.84850 0.77680 0.85065 -0.36400
C 	C 	0.61290 0.72020 0.69460 0.34300
C 	C 	0.56970 0.68850 0.60730 -0.09400
C 	C 	0.49520 0.72050 0.56060 0.02100
H 	H 	0.47020 0.76090 0.58410 0.04500
C 	C 	0.45660 0.69350 0.47890 -0.08000
C 	C 	0.49290 0.63080 0.44500 0.00400
H 	H 	0.46720 0.61250 0.39020 0.04100
C 	C 	0.56700 0.59520 0.49160 -0.05800
C 	C 	0.60450 0.62600 0.57260 0.00800
H 	H 	0.65460 0.60370 0.60430 0.03900
C 	C 	0.37810 0.73560 0.42890 0.29100
C 	C 	0.60610 0.52670 0.45700 0.14400
C 	C 	0.68210 0.49780 0.49910 -0.20700
H 	H 	0.71060 0.52140 0.55090 0.10600
C 	C 	0.71780 0.43520 0.46740 0.13100
H 	H 	0.76920 0.41700 0.50030 -0.02500
C 	C 	0.61130 0.42700 0.35410 0.12600
H 	H 	0.58430 0.40250 0.30230 -0.01800
C 	C 	0.57160 0.48870 0.38190 -0.20200
H 	H 	0.51960 0.50500 0.34870 0.10300
C 	C 	0.79340 0.50940 0.80350 0.00900
H 	H 	0.76330 0.48190 0.83290 0.02700
C 	C 	0.82290 0.47290 0.74580 0.00800
H 	H 	0.81660 0.41730 0.72820 0.03300
C 	C 	0.85510 0.60360 0.75960 0.11300
H 	H 	0.87630 0.65540 0.75140 -0.00200
C 	C 	0.90350 0.52530 0.65620 0.14400
C 	C 	0.90430 0.58820 0.60320 -0.14400
H 	H 	0.87890 0.63880 0.60740 0.08700
C 	C 	0.94270 0.57850 0.54200 0.00400
H 	H 	0.94280 0.62310 0.50630 0.03500
C 	C 	0.97980 0.50580 0.53300 -0.01400
C 	C 	0.98010 0.44450 0.58940 0.01600
H 	H 	0.00730 0.39470 0.58700 0.03700
C 	C 	0.94220 0.45280 0.64950 -0.15000
H 	H 	0.94300 0.40860 0.68590 0.10600
N 	N 	0.68580 0.39920 0.39540 -0.26600
N 	N 	0.81400 0.59150 0.81200 -0.22100
N 	N 	0.86350 0.53410 0.71910 -0.14900
Ni	Ni	0.75240 0.68685 0.85150 1.08000
O 	O 	0.68270 0.68900 0.72978 -0.41900
O 	O 	0.57880 0.77240 0.72620 -0.28800
O 	O 	0.34330 0.78520 0.46587 -0.39600
O 	O 	0.34850 0.72320 0.35065 -0.36400
C 	C 	0.11290 0.22020 0.69460 0.34300
C 	C 	0.06970 0.18850 0.60730 -0.09400
C 	C 	0.99520 0.22050 0.56060 0.02100
H 	H 	0.97020 0.26090 0.58410 0.04500
C 	C 	0.95660 0.19350 0.47890 -0.08000
C 	C 	0.99290 0.13080 0.44500 0.00300
H 	H 	0.96720 0.11250 0.39020 0.04100
C 	C 	0.06700 0.09520 0.49160 -0.05700
C 	C 	0.10450 0.12600 0.57260 0.00800
H 	H 	0.15460 0.10370 0.60430 0.03900
C 	C 	0.87810 0.23560 0.42890 0.29000
C 	C 	0.10610 0.02670 0.45700 0.14300
C 	C 	0.18210 0.99780 0.49910 -0.20700
H 	H 	0.21060 0.02140 0.55090 0.10600
C 	C 	0.21780 0.93520 0.46740 0.13100
H 	H 	0.26920 0.91700 0.50030 -0.02500
C 	C 	0.11130 0.92700 0.35410 0.12600
H 	H 	0.08430 0.90250 0.30230 -0.01800
C 	C 	0.07160 0.98870 0.38190 -0.20100
H 	H 	0.01960 0.00500 0.34870 0.10300
C 	C 	0.29340 0.00940 0.80350 0.01300
H 	H 	0.26330 0.98190 0.83290 0.02400
C 	C 	0.32290 0.97290 0.74580 0.00400
H 	H 	0.31660 0.91730 0.72820 0.03500
C 	C 	0.35510 0.10360 0.75960 0.11300
H 	H 	0.37630 0.15540 0.75140 -0.00200
C 	C 	0.40350 0.02530 0.65620 0.14500
C 	C 	0.40430 0.08820 0.60320 -0.14500
H 	H 	0.37890 0.13880 0.60740 0.08700
C 	C 	0.44270 0.07850 0.54200 0.00400
H 	H 	0.44280 0.12310 0.50630 0.03500
C 	C 	0.47980 0.00580 0.53300 -0.01400
C 	C 	0.48010 0.94450 0.58940 0.01600
H 	H 	0.50730 0.89470 0.58700 0.03700
C 	C 	0.44220 0.95280 0.64950 -0.15100
H 	H 	0.44300 0.90860 0.68590 0.10600
N 	N 	0.18580 0.89920 0.39540 -0.26600
N 	N 	0.31400 0.09150 0.81200 -0.22200
N 	N 	0.36350 0.03410 0.71910 -0.14800
Ni	Ni	0.25240 0.18685 0.85150 1.08000
O 	O 	0.18270 0.18900 0.72978 -0.41900
O 	O 	0.07880 0.27240 0.72620 -0.28800
O 	O 	0.84330 0.28520 0.46587 -0.39600
O 	O 	0.84850 0.22320 0.35065 -0.36400
C 	C 	0.38710 0.72020 0.80540 0.34300
C 	C 	0.43030 0.68850 0.89270 -0.09400
C 	C 	0.50480 0.72050 0.93940 0.01900
H 	H 	0.52980 0.76090 0.91590 0.04500
C 	C 	0.54340 0.69350 0.02110 -0.07900
C 	C 	0.50710 0.63080 0.05500 0.00200
H 	H 	0.53280 0.61250 0.10980 0.04100
C 	C 	0.43300 0.59520 0.00840 -0.05700
C 	C 	0.39550 0.62600 0.92740 0.00700
H 	H 	0.34540 0.60370 0.89570 0.03900
C 	C 	0.62190 0.73560 0.07110 0.29000
C 	C 	0.39390 0.52670 0.04300 0.14300
C 	C 	0.31790 0.49780 0.00090 -0.20600
H 	H 	0.28940 0.52140 0.94910 0.10500
C 	C 	0.28220 0.43520 0.03260 0.13000
H 	H 	0.23080 0.41700 0.99970 -0.02400
C 	C 	0.38870 0.42700 0.14590 0.12600
H 	H 	0.41570 0.40250 0.19770 -0.01800
C 	C 	0.42840 0.48870 0.11810 -0.20200
H 	H 	0.48040 0.50500 0.15130 0.10300
C 	C 	0.20660 0.50940 0.69650 0.00900
H 	H 	0.23670 0.48190 0.66710 0.02700
C 	C 	0.17710 0.47290 0.75420 0.00800
H 	H 	0.18340 0.41730 0.77180 0.03300
C 	C 	0.14490 0.60360 0.74040 0.11300
H 	H 	0.12370 0.65540 0.74860 -0.00200
C 	C 	0.09650 0.52530 0.84380 0.14400
C 	C 	0.09570 0.58820 0.89680 -0.14400
H 	H 	0.12110 0.63880 0.89260 0.08700
C 	C 	0.05730 0.57850 0.95800 0.00400
H 	H 	0.05720 0.62310 0.99370 0.03500
C 	C 	0.02020 0.50580 0.96700 -0.01400
C 	C 	0.01990 0.44450 0.91060 0.01500
H 	H 	0.99270 0.39470 0.91300 0.03700
C 	C 	0.05780 0.45280 0.85050 -0.14900
H 	H 	0.05700 0.40860 0.81410 0.10500
N 	N 	0.31420 0.39920 0.10460 -0.26600
N 	N 	0.18600 0.59150 0.68800 -0.22100
N 	N 	0.13650 0.53410 0.78090 -0.14900
Ni	Ni	0.24760 0.68685 0.64850 1.08000
O 	O 	0.31730 0.68900 0.77022 -0.41900
O 	O 	0.42120 0.77240 0.77380 -0.28800
O 	O 	0.65670 0.78520 0.03413 -0.39600
O 	O 	0.65150 0.72320 0.14935 -0.36400
C 	C 	0.88710 0.22020 0.80540 0.34300
C 	C 	0.93030 0.18850 0.89270 -0.09500
C 	C 	0.00480 0.22050 0.93940 0.02200
H 	H 	0.02980 0.26090 0.91590 0.04500
C 	C 	0.04340 0.19350 0.02110 -0.08200
C 	C 	0.00710 0.13080 0.05500 0.00400
H 	H 	0.03280 0.11250 0.10980 0.04100
C 	C 	0.93300 0.09520 0.00840 -0.05900
C 	C 	0.89550 0.12600 0.92740 0.01000
H 	H 	0.84540 0.10370 0.89570 0.03900
C 	C 	0.12190 0.23560 0.07110 0.29100
C 	C 	0.89390 0.02670 0.04300 0.13800
C 	C 	0.81790 0.99780 0.00090 -0.20300
H 	H 	0.78940 0.02140 0.94910 0.10500
C 	C 	0.78220 0.93520 0.03260 0.13100
H 	H 	0.73080 0.91700 0.99970 -0.02600
C 	C 	0.88870 0.92700 0.14590 0.12200
H 	H 	0.91570 0.90250 0.19770 -0.01600
C 	C 	0.92840 0.98870 0.11810 -0.19500
H 	H 	0.98040 0.00500 0.15130 0.10000
C 	C 	0.70660 0.00940 0.69650 0.01100
H 	H 	0.73670 0.98190 0.66710 0.02600
C 	C 	0.67710 0.97290 0.75420 0.00600
H 	H 	0.68340 0.91730 0.77180 0.03400
C 	C 	0.64490 0.10360 0.74040 0.11300
H 	H 	0.62370 0.15540 0.74860 -0.00200
C 	C 	0.59650 0.02530 0.84380 0.14500
C 	C 	0.59570 0.08820 0.89680 -0.14400
H 	H 	0.62110 0.13880 0.89260 0.08700
C 	C 	0.55730 0.07850 0.95800 0.00400
H 	H 	0.55720 0.12310 0.99370 0.03500
C 	C 	0.52020 0.00580 0.96700 -0.01300
C 	C 	0.51990 0.94450 0.91060 0.01400
H 	H 	0.49270 0.89470 0.91300 0.03700
C 	C 	0.55780 0.95280 0.85050 -0.15000
H 	H 	0.55700 0.90860 0.81410 0.10600
N 	N 	0.81420 0.89920 0.10460 -0.26500
N 	N 	0.68600 0.09150 0.68800 -0.22200
N 	N 	0.63650 0.03410 0.78090 -0.14800
Ni	Ni	0.74760 0.18685 0.64850 1.08000
O 	O 	0.81730 0.18900 0.77022 -0.41900
O 	O 	0.92120 0.27240 0.77380 -0.28800
O 	O 	0.15670 0.28520 0.03413 -0.39600
O 	O 	0.15150 0.22320 0.14935 -0.36400
