data_crystal

_cell_length_a 7.31710
_cell_length_b 15.21730
_cell_length_c 35.75700
_cell_angle_alpha 98.50210
_cell_angle_beta  90.00000
_cell_angle_gamma 103.91100

_symmetry_space_group_name_	'P 1'
_symmetry_space_group_name_H-M	'P 1'

loop_
_symmetry_equiv_pos_as_xyz
  x,y,z

loop_
_atom_site_label
_atom_site_type_symbol
_atom_site_fract_x
_atom_site_fract_y
_atom_site_fract_z
_atom_site_charge
Zn	Zn	0.10257 0.09530 0.78154 1.17100
Zn	Zn	0.75245 0.58064 0.18466 1.21000
Zn	Zn	0.82819 0.58064 0.68466 1.21100
Zn	Zn	0.00727 0.90470 0.71846 1.17100
Zn	Zn	0.99273 0.09530 0.28154 1.17100
Zn	Zn	0.89743 0.90470 0.21846 1.17100
Zn	Zn	0.24755 0.41936 0.81534 1.21000
Zn	Zn	0.17181 0.41936 0.31534 1.21100
H 	H 	0.00040 0.73060 0.79800 -0.01000
H 	H 	0.49160 0.27100 0.35790 0.15300
H 	H 	0.26040 0.13440 0.57740 0.10900
H 	H 	0.37230 0.63180 0.68380 0.12200
H 	H 	0.99140 0.56360 0.41300 0.00400
H 	H 	0.38630 0.35840 0.65650 0.13700
H 	H 	0.97210 0.35840 0.15650 0.13500
H 	H 	0.22060 0.72900 0.14210 0.15400
H 	H 	0.12600 0.86560 0.92260 0.10900
H 	H 	0.75260 0.60000 0.52380 0.14100
H 	H 	0.26980 0.26940 0.70200 -0.00900
H 	H 	0.99960 0.26940 0.20200 -0.01000
H 	H 	0.25940 0.54460 0.15460 0.14700
H 	H 	0.41100 0.27160 0.56080 0.13500
H 	H 	0.68540 0.71160 0.62030 0.15700
H 	H 	0.58900 0.72840 0.43920 0.13500
H 	H 	0.67040 0.36360 0.49080 0.11800
H 	H 	0.73960 0.86560 0.42260 0.10900
H 	H 	0.10980 0.37980 0.52960 0.10700
H 	H 	0.02620 0.71160 0.12030 0.15800
H 	H 	0.50840 0.72900 0.64210 0.15300
H 	H 	0.15260 0.40000 0.97620 0.14000
H 	H 	0.89200 0.04580 0.12350 -0.01000
H 	H 	0.27000 0.37980 0.02960 0.10700
H 	H 	0.57220 0.56360 0.91300 0.00500
H 	H 	0.32960 0.63640 0.50920 0.11800
H 	H 	0.73020 0.73060 0.29800 -0.00900
H 	H 	0.61370 0.64160 0.34350 0.13700
H 	H 	0.76900 0.30800 0.43250 -0.00300
H 	H 	0.42780 0.43640 0.08700 0.00500
H 	H 	0.74060 0.45540 0.84540 0.14700
H 	H 	0.24740 0.40000 0.47620 0.14100
H 	H 	0.84620 0.95420 0.37650 -0.01000
H 	H 	0.87400 0.13440 0.07740 0.10900
H 	H 	0.13940 0.72840 0.93920 0.13400
H 	H 	0.10800 0.95420 0.87650 -0.01000
H 	H 	0.71480 0.45540 0.34540 0.14500
H 	H 	0.53900 0.30800 0.93250 -0.00300
H 	H 	0.30680 0.63640 0.00920 0.11800
H 	H 	0.74050 0.36820 0.81620 0.12400
H 	H 	0.15380 0.04580 0.62350 -0.01000
H 	H 	0.73000 0.62020 0.97040 0.10700
H 	H 	0.31460 0.28840 0.37970 0.15700
H 	H 	0.89020 0.62020 0.47040 0.10700
H 	H 	0.86060 0.27160 0.06080 0.13400
H 	H 	0.46100 0.69200 0.06750 -0.00300
H 	H 	0.77940 0.27100 0.85790 0.15400
H 	H 	0.25950 0.63180 0.18380 0.12400
H 	H 	0.23100 0.69200 0.56750 -0.00300
H 	H 	0.97380 0.28840 0.87970 0.15800
H 	H 	0.28520 0.54460 0.65460 0.14500
H 	H 	0.69320 0.36360 0.99080 0.11800
H 	H 	0.00860 0.43640 0.58700 0.00400
H 	H 	0.02790 0.64160 0.84350 0.13500
H 	H 	0.84740 0.60000 0.02380 0.14000
H 	H 	0.62770 0.36820 0.31620 0.12200
C 	C 	0.25801 0.24862 0.32258 0.43700
C 	C 	0.09050 0.89120 0.86979 0.14300
C 	C 	0.91354 0.29768 0.85696 -0.37200
C 	C 	0.26964 0.24188 0.67697 0.14700
C 	C 	0.19930 0.10880 0.63021 0.14300
C 	C 	0.74199 0.75138 0.67742 0.43700
C 	C 	0.77241 0.49802 0.48684 0.21300
C 	C 	0.95940 0.09160 0.19827 0.42300
C 	C 	0.72561 0.49802 0.98684 0.21300
C 	C 	0.38414 0.29768 0.35696 -0.36900
C 	C 	0.92727 0.52334 0.42849 0.12400
C 	C 	0.94770 0.14800 0.16786 -0.21200
C 	C 	0.09269 0.60358 0.91643 0.19800
C 	C 	0.44640 0.45700 0.38857 0.13900
C 	C 	0.73482 0.40384 0.47531 -0.22200
C 	C 	0.86610 0.50760 0.05209 0.20500
C 	C 	0.66265 0.74370 0.38808 0.21600
C 	C 	0.48911 0.39642 0.58357 0.19800
C 	C 	0.08646 0.70232 0.14304 -0.37200
C 	C 	0.00939 0.75138 0.17742 0.44500
C 	C 	0.73036 0.75812 0.32303 0.14700
C 	C 	0.17879 0.57698 0.16965 -0.34400
C 	C 	0.57594 0.37088 0.94031 0.12000
C 	C 	0.90950 0.10880 0.13021 0.14300
C 	C 	0.10290 0.83820 0.89751 -0.24200
C 	C 	0.13266 0.44272 0.53707 -0.22100
C 	C 	0.43533 0.51686 0.69756 0.40100
C 	C 	0.02776 0.75812 0.82303 0.14700
C 	C 	0.07273 0.47666 0.57151 0.12400
C 	C 	0.56741 0.60682 0.12045 0.36700
C 	C 	0.79494 0.37088 0.44031 0.11800
C 	C 	0.26518 0.59616 0.52469 -0.22200
C 	C 	0.04309 0.70438 0.85038 -0.24300
C 	C 	0.89710 0.16180 0.10249 -0.24200
C 	C 	0.86780 0.90840 0.30173 0.42300
C 	C 	0.61586 0.70232 0.64304 -0.36900
C 	C 	0.27439 0.50198 0.01316 0.21300
C 	C 	0.68994 0.55728 0.96293 -0.22100
C 	C 	0.43259 0.39318 0.87955 0.36700
C 	C 	0.53669 0.42918 0.91679 -0.17000
C 	C 	0.08153 0.51686 0.19756 0.41000
C 	C 	0.98940 0.54300 0.11143 0.13500
C 	C 	0.66902 0.40384 0.97531 -0.22300
C 	C 	0.08105 0.74370 0.88808 0.21600
C 	C 	0.13390 0.49240 0.94791 0.20500
C 	C 	0.10751 0.57082 0.58321 -0.16800
C 	C 	0.20030 0.14800 0.66786 -0.21200
C 	C 	0.86734 0.55728 0.46293 -0.22100
C 	C 	0.91847 0.48314 0.80244 0.41000
C 	C 	0.42406 0.62912 0.05969 0.12000
C 	C 	0.51089 0.60358 0.41643 0.19800
C 	C 	0.33871 0.29562 0.64962 -0.24300
C 	C 	0.39819 0.57698 0.66965 -0.34000
C 	C 	0.13220 0.09160 0.69827 0.42300
C 	C 	0.97224 0.24188 0.17697 0.14700
C 	C 	0.46331 0.57082 0.08321 -0.17000
C 	C 	0.73530 0.83820 0.39751 -0.24200
C 	C 	0.80070 0.89120 0.36979 0.14300
C 	C 	0.91895 0.25630 0.11192 0.21600
C 	C 	0.82121 0.42302 0.83035 -0.34400
C 	C 	0.89249 0.42918 0.41679 -0.16800
C 	C 	0.26470 0.16180 0.60249 -0.24200
C 	C 	0.33735 0.25630 0.61192 0.21600
C 	C 	0.95691 0.29562 0.14962 -0.24300
C 	C 	0.03941 0.60682 0.62045 0.36100
C 	C 	0.66129 0.70438 0.35038 -0.24300
C 	C 	0.55360 0.54300 0.61143 0.13900
C 	C 	0.20506 0.62912 0.55969 0.11800
C 	C 	0.79970 0.85200 0.33214 -0.21200
C 	C 	0.05230 0.85200 0.83214 -0.21200
C 	C 	0.33098 0.59616 0.02469 -0.22300
C 	C 	0.35850 0.49240 0.44791 0.20600
C 	C 	0.64150 0.50760 0.55209 0.20600
C 	C 	0.99061 0.24862 0.82258 0.44500
C 	C 	0.59607 0.52334 0.92849 0.12500
C 	C 	0.96059 0.39318 0.37955 0.36100
C 	C 	0.01060 0.45700 0.88857 0.13500
C 	C 	0.60181 0.42302 0.33035 -0.34000
C 	C 	0.56467 0.48314 0.30244 0.40100
C 	C 	0.04060 0.90840 0.80173 0.42300
C 	C 	0.22759 0.50198 0.51316 0.21300
C 	C 	0.40393 0.47666 0.07151 0.12500
C 	C 	0.31006 0.44272 0.03707 -0.22100
C 	C 	0.90731 0.39642 0.08357 0.19800
N 	N 	0.94449 0.39518 0.85619 -0.07600
N 	N 	0.36268 0.42596 0.41845 -0.16700
N 	N 	0.06328 0.42596 0.91845 -0.16800
N 	N 	0.52643 0.54526 0.38567 -0.17000
N 	N 	0.93672 0.57404 0.08155 -0.16800
N 	N 	0.41292 0.30464 0.58259 -0.25300
N 	N 	0.27559 0.45878 0.47855 -0.25200
N 	N 	0.15481 0.58222 0.94858 -0.17900
N 	N 	0.58708 0.69536 0.41741 -0.25300
N 	N 	0.10828 0.69536 0.91741 -0.25300
N 	N 	0.01883 0.54526 0.88567 -0.17000
N 	N 	0.81681 0.54122 0.02145 -0.25200
N 	N 	0.47357 0.45474 0.61433 -0.17000
N 	N 	0.54931 0.60482 0.64381 -0.07900
N 	N 	0.89172 0.30464 0.08259 -0.25300
N 	N 	0.42741 0.58222 0.44858 -0.17800
N 	N 	0.18319 0.45878 0.97855 -0.25200
N 	N 	0.57259 0.41778 0.55142 -0.17800
N 	N 	0.84519 0.41778 0.05142 -0.17900
N 	N 	0.63732 0.57404 0.58155 -0.16700
N 	N 	0.98117 0.45474 0.11433 -0.17000
N 	N 	0.45069 0.39518 0.35619 -0.07900
N 	N 	0.05551 0.60482 0.14381 -0.07600
N 	N 	0.72441 0.54122 0.52145 -0.25200
O 	O 	0.00214 0.86648 0.76851 -0.55600
O 	O 	0.07620 0.00580 0.68823 -0.53600
O 	O 	0.81513 0.51866 0.78486 -0.30800
O 	O 	0.92386 0.30992 0.36792 -0.33700
O 	O 	0.07614 0.69008 0.63208 -0.33700
O 	O 	0.19285 0.29190 0.30103 -0.53100
O 	O 	0.78008 0.83816 0.68238 -0.47600
O 	O 	0.99786 0.13352 0.23149 -0.55600
O 	O 	0.18487 0.48134 0.21514 -0.30800
O 	O 	0.05808 0.83816 0.18238 -0.47700
O 	O 	0.94539 0.54558 0.63884 -0.47900
O 	O 	0.86434 0.86648 0.26851 -0.55500
O 	O 	0.09340 0.49480 0.79749 -0.47700
O 	O 	0.40140 0.49480 0.29749 -0.47100
O 	O 	0.61394 0.69008 0.13208 -0.33700
O 	O 	0.39981 0.45442 0.86116 -0.48500
O 	O 	0.07040 0.99420 0.81177 -0.53600
O 	O 	0.60019 0.54558 0.13884 -0.48500
O 	O 	0.92960 0.00580 0.18823 -0.53600
O 	O 	0.21992 0.16184 0.31762 -0.47600
O 	O 	0.90660 0.50520 0.20251 -0.47700
O 	O 	0.13566 0.13352 0.73149 -0.55500
O 	O 	0.09905 0.29190 0.80103 -0.53900
O 	O 	0.90095 0.70810 0.19897 -0.53900
O 	O 	0.70353 0.51866 0.28486 -0.30900
O 	O 	0.38606 0.30992 0.86792 -0.33700
O 	O 	0.29647 0.48134 0.71514 -0.30900
O 	O 	0.80715 0.70810 0.69897 -0.53100
O 	O 	0.59860 0.50520 0.70251 -0.47100
O 	O 	0.94192 0.16184 0.81762 -0.47700
O 	O 	0.92380 0.99420 0.31177 -0.53600
O 	O 	0.05461 0.45442 0.36116 -0.47900
