data_crystal

_cell_length_a 27.24480
_cell_length_b 27.24480
_cell_length_c 19.22540
_cell_angle_alpha 90.00000
_cell_angle_beta  90.00000
_cell_angle_gamma 90.00000

_symmetry_space_group_name_	'P 1'
_symmetry_space_group_name_H-M	'P 1'

loop_
_symmetry_equiv_pos_as_xyz
  x,y,z

loop_
_atom_site_label
_atom_site_type_symbol
_atom_site_fract_x
_atom_site_fract_y
_atom_site_fract_z
_atom_site_charge
C 	C 	0.19270 0.15740 0.25080 -0.00900
H 	H 	0.20300 0.13950 0.28930 -0.00400
C 	C 	0.32550 0.14460 0.03450 0.03500
H 	H 	0.34950 0.15860 0.06250 -0.01300
H 	H 	0.19560 0.08940 0.95860 0.16100
C 	C 	0.36080 0.10170 0.23830 -0.00600
H 	H 	0.36280 0.06770 0.23930 -0.00200
C 	C 	0.37040 0.11120 0.21710 -0.00400
H 	H 	0.38610 0.09150 0.18460 0.00100
C 	C 	0.21640 0.02780 0.22750 -0.01400
H 	H 	0.19900 0.04870 0.25680 0.00000
C 	C 	0.20090 0.02440 0.19100 -0.01100
H 	H 	0.17420 0.04430 0.20090 0.00000
N 	N 	0.32316 0.13076 0.21521 -0.28900
N 	N 	0.24833 0.04064 0.17350 -0.30100
N 	N 	0.21044 0.15277 0.18500 -0.29200
N 	N 	0.28516 0.12090 0.05790 -0.32600
Zn	Zn	0.26649 0.11025 0.15652 1.17100
C 	C 	0.69270 0.65740 0.75080 -0.01000
H 	H 	0.70300 0.63950 0.78930 -0.00500
C 	C 	0.82550 0.64460 0.53450 -0.01100
H 	H 	0.84950 0.65860 0.56250 -0.00200
H 	H 	0.69560 0.58940 0.45860 0.19800
C 	C 	0.86080 0.60170 0.73830 -0.00700
H 	H 	0.86280 0.56770 0.73930 -0.00400
C 	C 	0.87040 0.61120 0.71710 -0.00500
H 	H 	0.88610 0.59150 0.68460 -0.00100
C 	C 	0.71640 0.52780 0.72750 -0.01200
H 	H 	0.69900 0.54870 0.75680 -0.00300
C 	C 	0.70090 0.52440 0.69100 -0.01400
H 	H 	0.67420 0.54430 0.70090 -0.00200
N 	N 	0.82316 0.63076 0.71521 -0.29100
N 	N 	0.74833 0.54064 0.67350 -0.30300
N 	N 	0.71044 0.65277 0.68500 -0.29300
N 	N 	0.78516 0.62090 0.55790 -0.32300
Zn	Zn	0.76649 0.61025 0.65652 1.17000
C 	C 	0.80730 0.84260 0.25080 -0.01000
H 	H 	0.79700 0.86050 0.28930 -0.00400
C 	C 	0.67450 0.85540 0.03450 0.03400
H 	H 	0.65050 0.84140 0.06250 -0.01400
H 	H 	0.80440 0.91060 0.95860 0.16200
C 	C 	0.63920 0.89830 0.23830 -0.00800
H 	H 	0.63720 0.93230 0.23930 -0.00200
C 	C 	0.62960 0.88880 0.21710 -0.00500
H 	H 	0.61390 0.90850 0.18460 0.00000
C 	C 	0.78360 0.97220 0.22750 -0.01100
H 	H 	0.80100 0.95130 0.25680 -0.00100
C 	C 	0.79910 0.97560 0.19100 -0.01100
H 	H 	0.82580 0.95570 0.20090 -0.00000
N 	N 	0.67684 0.86924 0.21521 -0.29000
N 	N 	0.75167 0.95936 0.17350 -0.30100
N 	N 	0.78956 0.84723 0.18500 -0.29200
N 	N 	0.71484 0.87910 0.05790 -0.32700
Zn	Zn	0.73351 0.88975 0.15652 1.17100
C 	C 	0.30730 0.34260 0.75080 -0.01100
H 	H 	0.29700 0.36050 0.78930 -0.00600
C 	C 	0.17450 0.35540 0.53450 -0.01200
H 	H 	0.15050 0.34140 0.56250 -0.00200
H 	H 	0.30440 0.41060 0.45860 0.19800
C 	C 	0.13920 0.39830 0.73830 -0.00800
H 	H 	0.13720 0.43230 0.73930 -0.00400
C 	C 	0.12960 0.38880 0.71710 -0.00500
H 	H 	0.11390 0.40850 0.68460 -0.00200
C 	C 	0.28360 0.47220 0.72750 -0.01200
H 	H 	0.30100 0.45130 0.75680 -0.00300
C 	C 	0.29910 0.47560 0.69100 -0.01400
H 	H 	0.32580 0.45570 0.70090 -0.00200
N 	N 	0.17684 0.36924 0.71521 -0.29100
N 	N 	0.25167 0.45936 0.67350 -0.30300
N 	N 	0.28956 0.34723 0.68500 -0.29300
N 	N 	0.21484 0.37910 0.55790 -0.32300
Zn	Zn	0.23351 0.38975 0.65652 1.17000
C 	C 	0.84260 0.19270 0.25080 -0.01000
H 	H 	0.86050 0.20300 0.28930 -0.00400
C 	C 	0.85540 0.32550 0.03450 0.03400
H 	H 	0.84140 0.34950 0.06250 -0.01400
H 	H 	0.91060 0.19560 0.95860 0.16200
C 	C 	0.89830 0.36080 0.23830 -0.00800
H 	H 	0.93230 0.36280 0.23930 -0.00200
C 	C 	0.88880 0.37040 0.21710 -0.00500
H 	H 	0.90850 0.38610 0.18460 0.00000
C 	C 	0.97220 0.21640 0.22750 -0.01100
H 	H 	0.95130 0.19900 0.25680 -0.00100
C 	C 	0.97560 0.20090 0.19100 -0.01100
H 	H 	0.95570 0.17420 0.20090 -0.00100
N 	N 	0.86924 0.32316 0.21521 -0.29000
N 	N 	0.95936 0.24833 0.17350 -0.30100
N 	N 	0.84723 0.21044 0.18500 -0.29200
N 	N 	0.87910 0.28516 0.05790 -0.32700
Zn	Zn	0.88975 0.26649 0.15652 1.17100
C 	C 	0.34260 0.69270 0.75080 -0.01100
H 	H 	0.36050 0.70300 0.78930 -0.00600
C 	C 	0.35540 0.82550 0.53450 -0.01200
H 	H 	0.34140 0.84950 0.56250 -0.00200
H 	H 	0.41060 0.69560 0.45860 0.19800
C 	C 	0.39830 0.86080 0.73830 -0.00700
H 	H 	0.43230 0.86280 0.73930 -0.00400
C 	C 	0.38880 0.87040 0.71710 -0.00500
H 	H 	0.40850 0.88610 0.68460 -0.00100
C 	C 	0.47220 0.71640 0.72750 -0.01200
H 	H 	0.45130 0.69900 0.75680 -0.00300
C 	C 	0.47560 0.70090 0.69100 -0.01400
H 	H 	0.45570 0.67420 0.70090 -0.00200
N 	N 	0.36924 0.82316 0.71521 -0.29100
N 	N 	0.45936 0.74833 0.67350 -0.30300
N 	N 	0.34723 0.71044 0.68500 -0.29300
N 	N 	0.37910 0.78516 0.55790 -0.32300
Zn	Zn	0.38975 0.76649 0.65652 1.17000
C 	C 	0.15740 0.80730 0.25080 -0.01000
H 	H 	0.13950 0.79700 0.28930 -0.00400
C 	C 	0.14460 0.67450 0.03450 0.03400
H 	H 	0.15860 0.65050 0.06250 -0.01400
H 	H 	0.08940 0.80440 0.95860 0.16100
C 	C 	0.10170 0.63920 0.23830 -0.00700
H 	H 	0.06770 0.63720 0.23930 -0.00300
C 	C 	0.11120 0.62960 0.21710 -0.00500
H 	H 	0.09150 0.61390 0.18460 -0.00000
C 	C 	0.02780 0.78360 0.22750 -0.01500
H 	H 	0.04870 0.80100 0.25680 -0.00100
C 	C 	0.02440 0.79910 0.19100 -0.01200
H 	H 	0.04430 0.82580 0.20090 -0.00100
N 	N 	0.13076 0.67684 0.21521 -0.29000
N 	N 	0.04064 0.75167 0.17350 -0.30200
N 	N 	0.15277 0.78956 0.18500 -0.29300
N 	N 	0.12090 0.71484 0.05790 -0.32700
Zn	Zn	0.11025 0.73351 0.15652 1.17000
C 	C 	0.65740 0.30730 0.75080 -0.01100
H 	H 	0.63950 0.29700 0.78930 -0.00600
C 	C 	0.64460 0.17450 0.53450 -0.01200
H 	H 	0.65860 0.15050 0.56250 -0.00200
H 	H 	0.58940 0.30440 0.45860 0.19800
C 	C 	0.60170 0.13920 0.73830 -0.00800
H 	H 	0.56770 0.13720 0.73930 -0.00400
C 	C 	0.61120 0.12960 0.71710 -0.00500
H 	H 	0.59150 0.11390 0.68460 -0.00200
C 	C 	0.52780 0.28360 0.72750 -0.01200
H 	H 	0.54870 0.30100 0.75680 -0.00300
C 	C 	0.52440 0.29910 0.69100 -0.01400
H 	H 	0.54430 0.32580 0.70090 -0.00200
N 	N 	0.63076 0.17684 0.71521 -0.29100
N 	N 	0.54064 0.25167 0.67350 -0.30300
N 	N 	0.65277 0.28956 0.68500 -0.29300
N 	N 	0.62090 0.21484 0.55790 -0.32300
Zn	Zn	0.61025 0.23351 0.65652 1.17000
C 	C 	0.80730 0.15740 0.74920 -0.01000
H 	H 	0.79700 0.13950 0.71070 -0.00500
C 	C 	0.67450 0.14460 0.96550 -0.05900
H 	H 	0.65050 0.15860 0.93750 0.00900
H 	H 	0.80440 0.08940 0.04140 0.17800
C 	C 	0.63920 0.10170 0.76170 -0.00900
H 	H 	0.63720 0.06770 0.76070 -0.00300
C 	C 	0.62960 0.11120 0.78290 -0.00300
H 	H 	0.61390 0.09150 0.81540 -0.00400
C 	C 	0.78360 0.02780 0.77250 -0.00900
H 	H 	0.80100 0.04870 0.74320 -0.00300
C 	C 	0.79910 0.02440 0.80900 -0.01900
H 	H 	0.82580 0.04430 0.79910 -0.00100
N 	N 	0.67684 0.13076 0.78479 -0.29100
N 	N 	0.75167 0.04064 0.82650 -0.30400
N 	N 	0.78956 0.15277 0.81500 -0.29400
N 	N 	0.71484 0.12090 0.94210 -0.32400
Zn	Zn	0.73351 0.11025 0.84348 1.16900
C 	C 	0.30730 0.65740 0.24920 -0.01000
H 	H 	0.29700 0.63950 0.21070 -0.00300
C 	C 	0.17450 0.64460 0.46550 -0.01200
H 	H 	0.15050 0.65860 0.43750 -0.00200
H 	H 	0.30440 0.58940 0.54140 0.19800
C 	C 	0.13920 0.60170 0.26170 -0.00900
H 	H 	0.13720 0.56770 0.26070 -0.00200
C 	C 	0.12960 0.61120 0.28290 -0.00300
H 	H 	0.11390 0.59150 0.31540 -0.00200
C 	C 	0.28360 0.52780 0.27250 -0.00700
H 	H 	0.30100 0.54870 0.24320 -0.00200
C 	C 	0.29910 0.52440 0.30900 -0.01800
H 	H 	0.32580 0.54430 0.29910 0.00000
N 	N 	0.17684 0.63076 0.28479 -0.29000
N 	N 	0.25167 0.54064 0.32650 -0.30300
N 	N 	0.28956 0.65277 0.31500 -0.29300
N 	N 	0.21484 0.62090 0.44210 -0.32300
Zn	Zn	0.23351 0.61025 0.34348 1.17000
C 	C 	0.19270 0.84260 0.74920 -0.01000
H 	H 	0.20300 0.86050 0.71070 -0.00400
C 	C 	0.32550 0.85540 0.96550 -0.05900
H 	H 	0.34950 0.84140 0.93750 0.01000
H 	H 	0.19560 0.91060 0.04140 0.17900
C 	C 	0.36080 0.89830 0.76170 -0.00900
H 	H 	0.36280 0.93230 0.76070 -0.00300
C 	C 	0.37040 0.88880 0.78290 -0.00300
H 	H 	0.38610 0.90850 0.81540 -0.00400
C 	C 	0.21640 0.97220 0.77250 -0.00400
H 	H 	0.19900 0.95130 0.74320 -0.00400
C 	C 	0.20090 0.97560 0.80900 -0.01900
H 	H 	0.17420 0.95570 0.79910 -0.00100
N 	N 	0.32316 0.86924 0.78479 -0.29100
N 	N 	0.24833 0.95936 0.82650 -0.30300
N 	N 	0.21044 0.84723 0.81500 -0.29400
N 	N 	0.28516 0.87910 0.94210 -0.32400
Zn	Zn	0.26649 0.88975 0.84348 1.16900
C 	C 	0.69270 0.34260 0.24920 -0.01000
H 	H 	0.70300 0.36050 0.21070 -0.00300
C 	C 	0.82550 0.35540 0.46550 -0.01200
H 	H 	0.84950 0.34140 0.43750 -0.00200
H 	H 	0.69560 0.41060 0.54140 0.19800
C 	C 	0.86080 0.39830 0.26170 -0.00900
H 	H 	0.86280 0.43230 0.26070 -0.00100
C 	C 	0.87040 0.38880 0.28290 -0.00300
H 	H 	0.88610 0.40850 0.31540 -0.00200
C 	C 	0.71640 0.47220 0.27250 -0.00700
H 	H 	0.69900 0.45130 0.24320 -0.00200
C 	C 	0.70090 0.47560 0.30900 -0.01800
H 	H 	0.67420 0.45570 0.29910 0.00000
N 	N 	0.82316 0.36924 0.28479 -0.29000
N 	N 	0.74833 0.45936 0.32650 -0.30300
N 	N 	0.71044 0.34723 0.31500 -0.29300
N 	N 	0.78516 0.37910 0.44210 -0.32300
Zn	Zn	0.76649 0.38975 0.34348 1.17000
C 	C 	0.15740 0.19270 0.74920 -0.01000
H 	H 	0.13950 0.20300 0.71070 -0.00500
C 	C 	0.14460 0.32550 0.96550 -0.05900
H 	H 	0.15860 0.34950 0.93750 0.00900
H 	H 	0.08940 0.19560 0.04140 0.17800
C 	C 	0.10170 0.36080 0.76170 -0.00900
H 	H 	0.06770 0.36280 0.76070 -0.00300
C 	C 	0.11120 0.37040 0.78290 -0.00300
H 	H 	0.09150 0.38610 0.81540 -0.00400
C 	C 	0.02780 0.21640 0.77250 -0.00900
H 	H 	0.04870 0.19900 0.74320 -0.00300
C 	C 	0.02440 0.20090 0.80900 -0.02000
H 	H 	0.04430 0.17420 0.79910 -0.00100
N 	N 	0.13076 0.32316 0.78479 -0.29100
N 	N 	0.04064 0.24833 0.82650 -0.30400
N 	N 	0.15277 0.21044 0.81500 -0.29400
N 	N 	0.12090 0.28516 0.94210 -0.32400
Zn	Zn	0.11025 0.26649 0.84348 1.16900
C 	C 	0.65740 0.69270 0.24920 -0.01000
H 	H 	0.63950 0.70300 0.21070 -0.00300
C 	C 	0.64460 0.82550 0.46550 -0.01200
H 	H 	0.65860 0.84950 0.43750 -0.00200
H 	H 	0.58940 0.69560 0.54140 0.19800
C 	C 	0.60170 0.86080 0.26170 -0.00900
H 	H 	0.56770 0.86280 0.26070 -0.00200
C 	C 	0.61120 0.87040 0.28290 -0.00300
H 	H 	0.59150 0.88610 0.31540 -0.00200
C 	C 	0.52780 0.71640 0.27250 -0.00700
H 	H 	0.54870 0.69900 0.24320 -0.00200
C 	C 	0.52440 0.70090 0.30900 -0.01800
H 	H 	0.54430 0.67420 0.29910 0.00000
N 	N 	0.63076 0.82316 0.28479 -0.29000
N 	N 	0.54064 0.74833 0.32650 -0.30300
N 	N 	0.65277 0.71044 0.31500 -0.29300
N 	N 	0.62090 0.78516 0.44210 -0.32300
Zn	Zn	0.61025 0.76649 0.34348 1.17000
C 	C 	0.84260 0.80730 0.74920 -0.01000
H 	H 	0.86050 0.79700 0.71070 -0.00400
C 	C 	0.85540 0.67450 0.96550 -0.05900
H 	H 	0.84140 0.65050 0.93750 0.01000
H 	H 	0.91060 0.80440 0.04140 0.17900
C 	C 	0.89830 0.63920 0.76170 -0.00900
H 	H 	0.93230 0.63720 0.76070 -0.00300
C 	C 	0.88880 0.62960 0.78290 -0.00300
H 	H 	0.90850 0.61390 0.81540 -0.00400
C 	C 	0.97220 0.78360 0.77250 -0.00500
H 	H 	0.95130 0.80100 0.74320 -0.00400
C 	C 	0.97560 0.79910 0.80900 -0.01800
H 	H 	0.95570 0.82580 0.79910 -0.00000
N 	N 	0.86924 0.67684 0.78479 -0.29100
N 	N 	0.95936 0.75167 0.82650 -0.30300
N 	N 	0.84723 0.78956 0.81500 -0.29400
N 	N 	0.87910 0.71484 0.94210 -0.32400
Zn	Zn	0.88975 0.73351 0.84348 1.16900
C 	C 	0.34260 0.30730 0.24920 -0.01000
H 	H 	0.36050 0.29700 0.21070 -0.00300
C 	C 	0.35540 0.17450 0.46550 -0.01200
H 	H 	0.34140 0.15050 0.43750 -0.00200
H 	H 	0.41060 0.30440 0.54140 0.19800
C 	C 	0.39830 0.13920 0.26170 -0.00900
H 	H 	0.43230 0.13720 0.26070 -0.00200
C 	C 	0.38880 0.12960 0.28290 -0.00300
H 	H 	0.40850 0.11390 0.31540 -0.00200
C 	C 	0.47220 0.28360 0.27250 -0.00700
H 	H 	0.45130 0.30100 0.24320 -0.00200
C 	C 	0.47560 0.29910 0.30900 -0.01800
H 	H 	0.45570 0.32580 0.29910 0.00000
N 	N 	0.36924 0.17684 0.28479 -0.29000
N 	N 	0.45936 0.25167 0.32650 -0.30300
N 	N 	0.34723 0.28956 0.31500 -0.29300
N 	N 	0.37910 0.21484 0.44210 -0.32300
Zn	Zn	0.38975 0.23351 0.34348 1.17000
C 	C 	0.80730 0.84260 0.74920 -0.01000
H 	H 	0.79700 0.86050 0.71070 -0.00400
C 	C 	0.67450 0.85540 0.96550 -0.05900
H 	H 	0.65050 0.84140 0.93750 0.01000
H 	H 	0.80440 0.91060 0.04140 0.17900
C 	C 	0.63920 0.89830 0.76170 -0.00900
H 	H 	0.63720 0.93230 0.76070 -0.00300
C 	C 	0.62960 0.88880 0.78290 -0.00300
H 	H 	0.61390 0.90850 0.81540 -0.00400
C 	C 	0.78360 0.97220 0.77250 -0.00500
H 	H 	0.80100 0.95130 0.74320 -0.00400
C 	C 	0.79910 0.97560 0.80900 -0.01800
H 	H 	0.82580 0.95570 0.79910 -0.00000
N 	N 	0.67684 0.86924 0.78479 -0.29100
N 	N 	0.75167 0.95936 0.82650 -0.30300
N 	N 	0.78956 0.84723 0.81500 -0.29400
N 	N 	0.71484 0.87910 0.94210 -0.32400
Zn	Zn	0.73351 0.88975 0.84348 1.16900
C 	C 	0.30730 0.34260 0.24920 -0.01000
H 	H 	0.29700 0.36050 0.21070 -0.00300
C 	C 	0.17450 0.35540 0.46550 -0.01200
H 	H 	0.15050 0.34140 0.43750 -0.00200
H 	H 	0.30440 0.41060 0.54140 0.19800
C 	C 	0.13920 0.39830 0.26170 -0.00900
H 	H 	0.13720 0.43230 0.26070 -0.00200
C 	C 	0.12960 0.38880 0.28290 -0.00300
H 	H 	0.11390 0.40850 0.31540 -0.00200
C 	C 	0.28360 0.47220 0.27250 -0.00700
H 	H 	0.30100 0.45130 0.24320 -0.00200
C 	C 	0.29910 0.47560 0.30900 -0.01800
H 	H 	0.32580 0.45570 0.29910 0.00000
N 	N 	0.17684 0.36924 0.28479 -0.29000
N 	N 	0.25167 0.45936 0.32650 -0.30300
N 	N 	0.28956 0.34723 0.31500 -0.29300
N 	N 	0.21484 0.37910 0.44210 -0.32300
Zn	Zn	0.23351 0.38975 0.34348 1.17000
C 	C 	0.19270 0.15740 0.74920 -0.01000
H 	H 	0.20300 0.13950 0.71070 -0.00500
C 	C 	0.32550 0.14460 0.96550 -0.05900
H 	H 	0.34950 0.15860 0.93750 0.00900
H 	H 	0.19560 0.08940 0.04140 0.17800
C 	C 	0.36080 0.10170 0.76170 -0.00900
H 	H 	0.36280 0.06770 0.76070 -0.00300
C 	C 	0.37040 0.11120 0.78290 -0.00300
H 	H 	0.38610 0.09150 0.81540 -0.00400
C 	C 	0.21640 0.02780 0.77250 -0.00900
H 	H 	0.19900 0.04870 0.74320 -0.00300
C 	C 	0.20090 0.02440 0.80900 -0.02000
H 	H 	0.17420 0.04430 0.79910 -0.00100
N 	N 	0.32316 0.13076 0.78479 -0.29100
N 	N 	0.24833 0.04064 0.82650 -0.30400
N 	N 	0.21044 0.15277 0.81500 -0.29400
N 	N 	0.28516 0.12090 0.94210 -0.32400
Zn	Zn	0.26649 0.11025 0.84348 1.16900
C 	C 	0.69270 0.65740 0.24920 -0.01000
H 	H 	0.70300 0.63950 0.21070 -0.00300
C 	C 	0.82550 0.64460 0.46550 -0.01200
H 	H 	0.84950 0.65860 0.43750 -0.00200
H 	H 	0.69560 0.58940 0.54140 0.19800
C 	C 	0.86080 0.60170 0.26170 -0.00900
H 	H 	0.86280 0.56770 0.26070 -0.00200
C 	C 	0.87040 0.61120 0.28290 -0.00300
H 	H 	0.88610 0.59150 0.31540 -0.00200
C 	C 	0.71640 0.52780 0.27250 -0.00700
H 	H 	0.69900 0.54870 0.24320 -0.00200
C 	C 	0.70090 0.52440 0.30900 -0.01800
H 	H 	0.67420 0.54430 0.29910 0.00000
N 	N 	0.82316 0.63076 0.28479 -0.29000
N 	N 	0.74833 0.54064 0.32650 -0.30300
N 	N 	0.71044 0.65277 0.31500 -0.29300
N 	N 	0.78516 0.62090 0.44210 -0.32300
Zn	Zn	0.76649 0.61025 0.34348 1.17000
C 	C 	0.15740 0.80730 0.74920 -0.01000
H 	H 	0.13950 0.79700 0.71070 -0.00500
C 	C 	0.14460 0.67450 0.96550 -0.05900
H 	H 	0.15860 0.65050 0.93750 0.00900
H 	H 	0.08940 0.80440 0.04140 0.17800
C 	C 	0.10170 0.63920 0.76170 -0.00900
H 	H 	0.06770 0.63720 0.76070 -0.00300
C 	C 	0.11120 0.62960 0.78290 -0.00300
H 	H 	0.09150 0.61390 0.81540 -0.00400
C 	C 	0.02780 0.78360 0.77250 -0.00900
H 	H 	0.04870 0.80100 0.74320 -0.00300
C 	C 	0.02440 0.79910 0.80900 -0.01900
H 	H 	0.04430 0.82580 0.79910 -0.00100
N 	N 	0.13076 0.67684 0.78479 -0.29100
N 	N 	0.04064 0.75167 0.82650 -0.30400
N 	N 	0.15277 0.78956 0.81500 -0.29400
N 	N 	0.12090 0.71484 0.94210 -0.32400
Zn	Zn	0.11025 0.73351 0.84348 1.16900
C 	C 	0.65740 0.30730 0.24920 -0.01000
H 	H 	0.63950 0.29700 0.21070 -0.00300
C 	C 	0.64460 0.17450 0.46550 -0.01200
H 	H 	0.65860 0.15050 0.43750 -0.00200
H 	H 	0.58940 0.30440 0.54140 0.19800
C 	C 	0.60170 0.13920 0.26170 -0.00900
H 	H 	0.56770 0.13720 0.26070 -0.00200
C 	C 	0.61120 0.12960 0.28290 -0.00300
H 	H 	0.59150 0.11390 0.31540 -0.00200
C 	C 	0.52780 0.28360 0.27250 -0.00700
H 	H 	0.54870 0.30100 0.24320 -0.00200
C 	C 	0.52440 0.29910 0.30900 -0.01800
H 	H 	0.54430 0.32580 0.29910 0.00000
N 	N 	0.63076 0.17684 0.28479 -0.29000
N 	N 	0.54064 0.25167 0.32650 -0.30300
N 	N 	0.65277 0.28956 0.31500 -0.29300
N 	N 	0.62090 0.21484 0.44210 -0.32300
Zn	Zn	0.61025 0.23351 0.34348 1.17000
C 	C 	0.84260 0.19270 0.74920 -0.01000
H 	H 	0.86050 0.20300 0.71070 -0.00400
C 	C 	0.85540 0.32550 0.96550 -0.05900
H 	H 	0.84140 0.34950 0.93750 0.01000
H 	H 	0.91060 0.19560 0.04140 0.17900
C 	C 	0.89830 0.36080 0.76170 -0.00900
H 	H 	0.93230 0.36280 0.76070 -0.00300
C 	C 	0.88880 0.37040 0.78290 -0.00300
H 	H 	0.90850 0.38610 0.81540 -0.00400
C 	C 	0.97220 0.21640 0.77250 -0.00400
H 	H 	0.95130 0.19900 0.74320 -0.00400
C 	C 	0.97560 0.20090 0.80900 -0.01900
H 	H 	0.95570 0.17420 0.79910 -0.00100
N 	N 	0.86924 0.32316 0.78479 -0.29100
N 	N 	0.95936 0.24833 0.82650 -0.30300
N 	N 	0.84723 0.21044 0.81500 -0.29400
N 	N 	0.87910 0.28516 0.94210 -0.32400
Zn	Zn	0.88975 0.26649 0.84348 1.16900
C 	C 	0.34260 0.69270 0.24920 -0.01000
H 	H 	0.36050 0.70300 0.21070 -0.00300
C 	C 	0.35540 0.82550 0.46550 -0.01200
H 	H 	0.34140 0.84950 0.43750 -0.00200
H 	H 	0.41060 0.69560 0.54140 0.19800
C 	C 	0.39830 0.86080 0.26170 -0.00900
H 	H 	0.43230 0.86280 0.26070 -0.00100
C 	C 	0.38880 0.87040 0.28290 -0.00300
H 	H 	0.40850 0.88610 0.31540 -0.00200
C 	C 	0.47220 0.71640 0.27250 -0.00700
H 	H 	0.45130 0.69900 0.24320 -0.00200
C 	C 	0.47560 0.70090 0.30900 -0.01800
H 	H 	0.45570 0.67420 0.29910 0.00000
N 	N 	0.36924 0.82316 0.28479 -0.29000
N 	N 	0.45936 0.74833 0.32650 -0.30300
N 	N 	0.34723 0.71044 0.31500 -0.29300
N 	N 	0.37910 0.78516 0.44210 -0.32300
Zn	Zn	0.38975 0.76649 0.34348 1.17000
C 	C 	0.19270 0.84260 0.25080 -0.01000
H 	H 	0.20300 0.86050 0.28930 -0.00400
C 	C 	0.32550 0.85540 0.03450 0.03400
H 	H 	0.34950 0.84140 0.06250 -0.01400
H 	H 	0.19560 0.91060 0.95860 0.16200
C 	C 	0.36080 0.89830 0.23830 -0.00800
H 	H 	0.36280 0.93230 0.23930 -0.00200
C 	C 	0.37040 0.88880 0.21710 -0.00500
H 	H 	0.38610 0.90850 0.18460 0.00000
C 	C 	0.21640 0.97220 0.22750 -0.01100
H 	H 	0.19900 0.95130 0.25680 -0.00100
C 	C 	0.20090 0.97560 0.19100 -0.01100
H 	H 	0.17420 0.95570 0.20090 -0.00100
N 	N 	0.32316 0.86924 0.21521 -0.29000
N 	N 	0.24833 0.95936 0.17350 -0.30100
N 	N 	0.21044 0.84723 0.18500 -0.29200
N 	N 	0.28516 0.87910 0.05790 -0.32700
Zn	Zn	0.26649 0.88975 0.15652 1.17100
C 	C 	0.69270 0.34260 0.75080 -0.01100
H 	H 	0.70300 0.36050 0.78930 -0.00600
C 	C 	0.82550 0.35540 0.53450 -0.01200
H 	H 	0.84950 0.34140 0.56250 -0.00200
H 	H 	0.69560 0.41060 0.45860 0.19800
C 	C 	0.86080 0.39830 0.73830 -0.00700
H 	H 	0.86280 0.43230 0.73930 -0.00400
C 	C 	0.87040 0.38880 0.71710 -0.00500
H 	H 	0.88610 0.40850 0.68460 -0.00100
C 	C 	0.71640 0.47220 0.72750 -0.01200
H 	H 	0.69900 0.45130 0.75680 -0.00300
C 	C 	0.70090 0.47560 0.69100 -0.01400
H 	H 	0.67420 0.45570 0.70090 -0.00200
N 	N 	0.82316 0.36924 0.71521 -0.29100
N 	N 	0.74833 0.45936 0.67350 -0.30300
N 	N 	0.71044 0.34723 0.68500 -0.29300
N 	N 	0.78516 0.37910 0.55790 -0.32300
Zn	Zn	0.76649 0.38975 0.65652 1.17000
C 	C 	0.80730 0.15740 0.25080 -0.01000
H 	H 	0.79700 0.13950 0.28930 -0.00400
C 	C 	0.67450 0.14460 0.03450 0.03400
H 	H 	0.65050 0.15860 0.06250 -0.01400
H 	H 	0.80440 0.08940 0.95860 0.16100
C 	C 	0.63920 0.10170 0.23830 -0.00700
H 	H 	0.63720 0.06770 0.23930 -0.00300
C 	C 	0.62960 0.11120 0.21710 -0.00500
H 	H 	0.61390 0.09150 0.18460 -0.00000
C 	C 	0.78360 0.02780 0.22750 -0.01500
H 	H 	0.80100 0.04870 0.25680 -0.00100
C 	C 	0.79910 0.02440 0.19100 -0.01200
H 	H 	0.82580 0.04430 0.20090 -0.00100
N 	N 	0.67684 0.13076 0.21521 -0.29000
N 	N 	0.75167 0.04064 0.17350 -0.30200
N 	N 	0.78956 0.15277 0.18500 -0.29300
N 	N 	0.71484 0.12090 0.05790 -0.32700
Zn	Zn	0.73351 0.11025 0.15652 1.17000
C 	C 	0.30730 0.65740 0.75080 -0.01100
H 	H 	0.29700 0.63950 0.78930 -0.00600
C 	C 	0.17450 0.64460 0.53450 -0.01200
H 	H 	0.15050 0.65860 0.56250 -0.00200
H 	H 	0.30440 0.58940 0.45860 0.19800
C 	C 	0.13920 0.60170 0.73830 -0.00800
H 	H 	0.13720 0.56770 0.73930 -0.00400
C 	C 	0.12960 0.61120 0.71710 -0.00500
H 	H 	0.11390 0.59150 0.68460 -0.00200
C 	C 	0.28360 0.52780 0.72750 -0.01200
H 	H 	0.30100 0.54870 0.75680 -0.00300
C 	C 	0.29910 0.52440 0.69100 -0.01400
H 	H 	0.32580 0.54430 0.70090 -0.00200
N 	N 	0.17684 0.63076 0.71521 -0.29100
N 	N 	0.25167 0.54064 0.67350 -0.30300
N 	N 	0.28956 0.65277 0.68500 -0.29300
N 	N 	0.21484 0.62090 0.55790 -0.32300
Zn	Zn	0.23351 0.61025 0.65652 1.17000
C 	C 	0.84260 0.80730 0.25080 -0.01000
H 	H 	0.86050 0.79700 0.28930 -0.00400
C 	C 	0.85540 0.67450 0.03450 0.03400
H 	H 	0.84140 0.65050 0.06250 -0.01400
H 	H 	0.91060 0.80440 0.95860 0.16200
C 	C 	0.89830 0.63920 0.23830 -0.00800
H 	H 	0.93230 0.63720 0.23930 -0.00200
C 	C 	0.88880 0.62960 0.21710 -0.00500
H 	H 	0.90850 0.61390 0.18460 0.00000
C 	C 	0.97220 0.78360 0.22750 -0.01100
H 	H 	0.95130 0.80100 0.25680 -0.00100
C 	C 	0.97560 0.79910 0.19100 -0.01100
H 	H 	0.95570 0.82580 0.20090 -0.00000
N 	N 	0.86924 0.67684 0.21521 -0.29000
N 	N 	0.95936 0.75167 0.17350 -0.30100
N 	N 	0.84723 0.78956 0.18500 -0.29200
N 	N 	0.87910 0.71484 0.05790 -0.32700
Zn	Zn	0.88975 0.73351 0.15652 1.17100
C 	C 	0.34260 0.30730 0.75080 -0.01100
H 	H 	0.36050 0.29700 0.78930 -0.00600
C 	C 	0.35540 0.17450 0.53450 -0.01200
H 	H 	0.34140 0.15050 0.56250 -0.00200
H 	H 	0.41060 0.30440 0.45860 0.19800
C 	C 	0.39830 0.13920 0.73830 -0.00800
H 	H 	0.43230 0.13720 0.73930 -0.00400
C 	C 	0.38880 0.12960 0.71710 -0.00500
H 	H 	0.40850 0.11390 0.68460 -0.00200
C 	C 	0.47220 0.28360 0.72750 -0.01200
H 	H 	0.45130 0.30100 0.75680 -0.00300
C 	C 	0.47560 0.29910 0.69100 -0.01400
H 	H 	0.45570 0.32580 0.70090 -0.00200
N 	N 	0.36924 0.17684 0.71521 -0.29100
N 	N 	0.45936 0.25167 0.67350 -0.30300
N 	N 	0.34723 0.28956 0.68500 -0.29300
N 	N 	0.37910 0.21484 0.55790 -0.32300
Zn	Zn	0.38975 0.23351 0.65652 1.17000
C 	C 	0.15740 0.19270 0.25080 -0.01000
H 	H 	0.13950 0.20300 0.28930 -0.00500
C 	C 	0.14460 0.32550 0.03450 0.03400
H 	H 	0.15860 0.34950 0.06250 -0.01400
H 	H 	0.08940 0.19560 0.95860 0.16000
C 	C 	0.10170 0.36080 0.23830 -0.00700
H 	H 	0.06770 0.36280 0.23930 -0.00300
C 	C 	0.11120 0.37040 0.21710 -0.00500
H 	H 	0.09150 0.38610 0.18460 -0.00000
C 	C 	0.02780 0.21640 0.22750 -0.01500
H 	H 	0.04870 0.19900 0.25680 -0.00100
C 	C 	0.02440 0.20090 0.19100 -0.01200
H 	H 	0.04430 0.17420 0.20090 -0.00100
N 	N 	0.13076 0.32316 0.21521 -0.29000
N 	N 	0.04064 0.24833 0.17350 -0.30200
N 	N 	0.15277 0.21044 0.18500 -0.29300
N 	N 	0.12090 0.28516 0.05790 -0.32700
Zn	Zn	0.11025 0.26649 0.15652 1.17000
C 	C 	0.65740 0.69270 0.75080 -0.01100
H 	H 	0.63950 0.70300 0.78930 -0.00600
C 	C 	0.64460 0.82550 0.53450 -0.01200
H 	H 	0.65860 0.84950 0.56250 -0.00200
H 	H 	0.58940 0.69560 0.45860 0.19800
C 	C 	0.60170 0.86080 0.73830 -0.00700
H 	H 	0.56770 0.86280 0.73930 -0.00400
C 	C 	0.61120 0.87040 0.71710 -0.00500
H 	H 	0.59150 0.88610 0.68460 -0.00100
C 	C 	0.52780 0.71640 0.72750 -0.01200
H 	H 	0.54870 0.69900 0.75680 -0.00300
C 	C 	0.52440 0.70090 0.69100 -0.01400
H 	H 	0.54430 0.67420 0.70090 -0.00200
N 	N 	0.63076 0.82316 0.71521 -0.29100
N 	N 	0.54064 0.74833 0.67350 -0.30300
N 	N 	0.65277 0.71044 0.68500 -0.29300
N 	N 	0.62090 0.78516 0.55790 -0.32300
Zn	Zn	0.61025 0.76649 0.65652 1.17000
C 	C 	0.32762 0.17238 0.25000 0.09700
H 	H 	0.30350 0.19650 0.25000 -0.05900
C 	C 	0.67238 0.82762 0.25000 0.09700
H 	H 	0.69650 0.80350 0.25000 -0.05900
C 	C 	0.82762 0.32762 0.25000 0.09700
H 	H 	0.80350 0.30350 0.25000 -0.05900
C 	C 	0.17238 0.67238 0.25000 0.09700
H 	H 	0.19650 0.69650 0.25000 -0.05900
C 	C 	0.67238 0.17238 0.75000 0.09600
H 	H 	0.69650 0.19650 0.75000 -0.06000
C 	C 	0.32762 0.82762 0.75000 0.09600
H 	H 	0.30350 0.80350 0.75000 -0.06000
C 	C 	0.17238 0.32762 0.75000 0.09600
H 	H 	0.19650 0.30350 0.75000 -0.06000
C 	C 	0.82762 0.67238 0.75000 0.09600
H 	H 	0.80350 0.69650 0.75000 -0.06000
C 	C 	0.67238 0.82762 0.75000 0.09600
H 	H 	0.69650 0.80350 0.75000 -0.06000
C 	C 	0.17238 0.32762 0.25000 0.09700
H 	H 	0.19650 0.30350 0.25000 -0.05900
C 	C 	0.32762 0.17238 0.75000 0.09600
H 	H 	0.30350 0.19650 0.75000 -0.06000
C 	C 	0.17238 0.67238 0.75000 0.09600
H 	H 	0.19650 0.69650 0.75000 -0.06000
C 	C 	0.82762 0.32762 0.75000 0.09600
H 	H 	0.80350 0.30350 0.75000 -0.06000
C 	C 	0.32762 0.82762 0.25000 0.09700
H 	H 	0.30350 0.80350 0.25000 -0.05900
C 	C 	0.67238 0.17238 0.25000 0.09700
H 	H 	0.69650 0.19650 0.25000 -0.05900
C 	C 	0.82762 0.67238 0.25000 0.09700
H 	H 	0.80350 0.69650 0.25000 -0.05900
C 	C 	0.26800 0.00000 0.15360 0.13300
H 	H 	0.29580 0.00000 0.12550 -0.07900
C 	C 	0.76800 0.50000 0.65360 0.13500
H 	H 	0.79580 0.50000 0.62550 -0.08100
C 	C 	0.73200 0.00000 0.15360 0.13300
H 	H 	0.70420 0.00000 0.12550 -0.07900
C 	C 	0.23200 0.50000 0.65360 0.13500
H 	H 	0.20420 0.50000 0.62550 -0.08100
C 	C 	-0.00000 0.26800 0.15360 0.13300
H 	H 	0.00000 0.29580 0.12550 -0.07900
C 	C 	0.50000 0.76800 0.65360 0.13500
H 	H 	0.50000 0.79580 0.62550 -0.08100
C 	C 	-0.00000 0.73200 0.15360 0.13300
H 	H 	0.00000 0.70420 0.12550 -0.07900
C 	C 	0.50000 0.23200 0.65360 0.13500
H 	H 	0.50000 0.20420 0.62550 -0.08100
C 	C 	0.73200 0.00000 0.84640 0.13200
H 	H 	0.70420 0.00000 0.87450 -0.08400
C 	C 	0.23200 0.50000 0.34640 0.13600
H 	H 	0.20420 0.50000 0.37450 -0.08100
C 	C 	0.26800 0.00000 0.84640 0.13200
H 	H 	0.29580 0.00000 0.87450 -0.08400
C 	C 	0.76800 0.50000 0.34640 0.13600
H 	H 	0.79580 0.50000 0.37450 -0.08100
C 	C 	0.00000 0.26800 0.84640 0.13200
H 	H 	0.00000 0.29580 0.87450 -0.08400
C 	C 	0.50000 0.76800 0.34640 0.13600
H 	H 	0.50000 0.79580 0.37450 -0.08100
C 	C 	0.00000 0.73200 0.84640 0.13200
H 	H 	0.00000 0.70420 0.87450 -0.08400
C 	C 	0.50000 0.23200 0.34640 0.13600
H 	H 	0.50000 0.20420 0.37450 -0.08100
C 	C 	0.18685 0.18685 0.14900 0.09400
H 	H 	0.19360 0.19360 0.10260 -0.06100
C 	C 	0.68685 0.68685 0.64900 0.09400
H 	H 	0.69360 0.69360 0.60260 -0.06400
C 	C 	0.81315 0.81315 0.14900 0.09500
H 	H 	0.80640 0.80640 0.10260 -0.06100
C 	C 	0.31315 0.31315 0.64900 0.09400
H 	H 	0.30640 0.30640 0.60260 -0.06400
C 	C 	0.81315 0.18685 0.14900 0.09500
H 	H 	0.80640 0.19360 0.10260 -0.06100
C 	C 	0.31315 0.68685 0.64900 0.09400
H 	H 	0.30640 0.69360 0.60260 -0.06400
C 	C 	0.18685 0.81315 0.14900 0.09500
H 	H 	0.19360 0.80640 0.10260 -0.06100
C 	C 	0.68685 0.31315 0.64900 0.09400
H 	H 	0.69360 0.30640 0.60260 -0.06400
C 	C 	0.81315 0.18685 0.85100 0.09400
H 	H 	0.80640 0.19360 0.89740 -0.06800
C 	C 	0.31315 0.68685 0.35100 0.09400
H 	H 	0.30640 0.69360 0.39740 -0.06400
C 	C 	0.18685 0.81315 0.85100 0.09400
H 	H 	0.19360 0.80640 0.89740 -0.06800
C 	C 	0.68685 0.31315 0.35100 0.09400
H 	H 	0.69360 0.30640 0.39740 -0.06400
C 	C 	0.18685 0.18685 0.85100 0.09400
H 	H 	0.19360 0.19360 0.89740 -0.06800
C 	C 	0.68685 0.68685 0.35100 0.09400
H 	H 	0.69360 0.69360 0.39740 -0.06400
C 	C 	0.81315 0.81315 0.85100 0.09400
H 	H 	0.80640 0.80640 0.89740 -0.06800
C 	C 	0.31315 0.31315 0.35100 0.09400
H 	H 	0.30640 0.30640 0.39740 -0.06400
C 	C 	0.26190 0.10700 -0.00000 0.24700
C 	C 	0.21340 0.08100 -0.00000 -0.66200
H 	H 	0.21880 0.04620 -0.00000 0.18800
C 	C 	0.76190 0.60700 0.50000 0.24700
C 	C 	0.71340 0.58100 0.50000 -0.74300
H 	H 	0.71880 0.54620 0.50000 0.20600
C 	C 	0.73810 0.89300 -0.00000 0.24900
C 	C 	0.78660 0.91900 -0.00000 -0.66500
H 	H 	0.78120 0.95380 -0.00000 0.19000
C 	C 	0.23810 0.39300 0.50000 0.24700
C 	C 	0.28660 0.41900 0.50000 -0.74300
H 	H 	0.28120 0.45380 0.50000 0.20600
C 	C 	0.89300 0.26190 -0.00000 0.24900
C 	C 	0.91900 0.21340 -0.00000 -0.66500
H 	H 	0.95380 0.21880 -0.00000 0.19000
C 	C 	0.39300 0.76190 0.50000 0.24700
C 	C 	0.41900 0.71340 0.50000 -0.74300
H 	H 	0.45380 0.71880 0.50000 0.20600
C 	C 	0.10700 0.73810 -0.00000 0.24700
C 	C 	0.08100 0.78660 -0.00000 -0.66200
H 	H 	0.04620 0.78120 -0.00000 0.18800
C 	C 	0.60700 0.23810 0.50000 0.24700
C 	C 	0.58100 0.28660 0.50000 -0.74300
H 	H 	0.54620 0.28120 0.50000 0.20600
C 	C 	0.73810 0.10700 -0.00000 0.24700
C 	C 	0.78660 0.08100 -0.00000 -0.66200
H 	H 	0.78120 0.04620 -0.00000 0.18800
C 	C 	0.23810 0.60700 0.50000 0.24700
C 	C 	0.28660 0.58100 0.50000 -0.74300
H 	H 	0.28120 0.54620 0.50000 0.20600
C 	C 	0.26190 0.89300 -0.00000 0.24900
C 	C 	0.21340 0.91900 -0.00000 -0.66500
H 	H 	0.21880 0.95380 -0.00000 0.19000
C 	C 	0.76190 0.39300 0.50000 0.24700
C 	C 	0.71340 0.41900 0.50000 -0.74300
H 	H 	0.71880 0.45380 0.50000 0.20600
C 	C 	0.10700 0.26190 -0.00000 0.24700
C 	C 	0.08100 0.21340 -0.00000 -0.66200
H 	H 	0.04620 0.21880 -0.00000 0.18800
C 	C 	0.60700 0.76190 0.50000 0.24700
C 	C 	0.58100 0.71340 0.50000 -0.74300
H 	H 	0.54620 0.71880 0.50000 0.20600
C 	C 	0.89300 0.73810 -0.00000 0.24900
C 	C 	0.91900 0.78660 -0.00000 -0.66500
H 	H 	0.95380 0.78120 -0.00000 0.19000
C 	C 	0.39300 0.23810 0.50000 0.24700
C 	C 	0.41900 0.28660 0.50000 -0.74300
H 	H 	0.45380 0.28120 0.50000 0.20600
