data_crystal

_cell_length_a 18.48820
_cell_length_b 26.64070
_cell_length_c 26.64070
_cell_angle_alpha 120.00000
_cell_angle_beta  90.00000
_cell_angle_gamma 90.00000

_symmetry_space_group_name_	'P 1'
_symmetry_space_group_name_H-M	'P 1'

loop_
_symmetry_equiv_pos_as_xyz
  x,y,z

loop_
_atom_site_label
_atom_site_type_symbol
_atom_site_fract_x
_atom_site_fract_y
_atom_site_fract_z
_atom_site_charge
Zn	Zn	0.41282 0.89177 0.33177 1.18800
Zn	Zn	0.41282 0.44000 0.10823 1.18900
Zn	Zn	0.41282 0.66823 0.56000 1.18900
Zn	Zn	0.91282 0.10823 0.66823 1.19000
Zn	Zn	0.91282 0.56000 0.89177 1.19000
Zn	Zn	0.91282 0.33177 0.44000 1.19000
Zn	Zn	0.58718 0.56000 0.66823 1.18900
Zn	Zn	0.58718 0.33177 0.89177 1.18900
Zn	Zn	0.58718 0.10823 0.44000 1.18900
Zn	Zn	0.08718 0.44000 0.33177 1.18900
Zn	Zn	0.08718 0.66823 0.10823 1.18900
Zn	Zn	0.08718 0.89177 0.56000 1.18900
Zn	Zn	0.58718 0.10823 0.66823 1.18900
Zn	Zn	0.58718 0.56000 0.89177 1.18900
Zn	Zn	0.58718 0.33177 0.44000 1.18900
Zn	Zn	0.08718 0.89177 0.33177 1.18900
Zn	Zn	0.08718 0.44000 0.10823 1.18900
Zn	Zn	0.08718 0.66823 0.56000 1.18900
Zn	Zn	0.41282 0.44000 0.33177 1.18900
Zn	Zn	0.41282 0.66823 0.10823 1.18900
Zn	Zn	0.41282 0.89177 0.56000 1.18900
Zn	Zn	0.91282 0.56000 0.66823 1.19000
Zn	Zn	0.91282 0.33177 0.89177 1.19000
Zn	Zn	0.91282 0.10823 0.44000 1.19000
H 	H 	0.58000 0.87240 0.30290 0.05100
H 	H 	0.68880 0.83310 0.25450 0.03400
H 	H 	0.50530 0.80870 0.35540 0.00700
H 	H 	0.42830 0.91170 0.21900 0.04000
H 	H 	0.46900 0.95470 0.16510 0.03000
H 	H 	0.31050 0.98240 0.31440 0.01900
H 	H 	0.58000 0.43050 0.12760 0.05000
H 	H 	0.68880 0.42140 0.16690 0.03300
H 	H 	0.50530 0.54670 0.19130 0.00700
H 	H 	0.42830 0.30730 0.08830 0.03600
H 	H 	0.46900 0.21040 0.04530 0.03500
H 	H 	0.31050 0.33200 0.01760 0.01700
H 	H 	0.58000 0.69710 0.56950 0.05100
H 	H 	0.68880 0.74550 0.57860 0.03400
H 	H 	0.50530 0.64460 0.45330 0.00700
H 	H 	0.42830 0.78100 0.69270 0.03800
H 	H 	0.46900 0.83490 0.78960 0.03400
H 	H 	0.31050 0.68560 0.66800 0.01800
H 	H 	0.08000 0.12760 0.69710 0.04900
H 	H 	0.18880 0.16690 0.74550 0.03300
H 	H 	0.00530 0.19130 0.64460 0.00200
H 	H 	0.92830 0.08830 0.78100 0.03800
H 	H 	0.96900 0.04530 0.83490 0.03400
H 	H 	0.81050 0.01760 0.68560 0.01700
H 	H 	0.08000 0.56950 0.87240 0.05000
H 	H 	0.18880 0.57860 0.83310 0.03400
H 	H 	0.00530 0.45330 0.80870 0.00200
H 	H 	0.92830 0.69270 0.91170 0.04200
H 	H 	0.96900 0.78960 0.95470 0.03000
H 	H 	0.81050 0.66800 0.98240 0.01900
H 	H 	0.08000 0.30290 0.43050 0.04900
H 	H 	0.18880 0.25450 0.42140 0.03300
H 	H 	0.00530 0.35540 0.54670 0.00200
H 	H 	0.92830 0.21900 0.30730 0.04000
H 	H 	0.96900 0.16510 0.21040 0.03000
H 	H 	0.81050 0.31440 0.33200 0.01800
H 	H 	0.42000 0.56950 0.69710 0.05000
H 	H 	0.31120 0.57860 0.74550 0.03300
H 	H 	0.49470 0.45330 0.64460 0.00700
H 	H 	0.57170 0.69270 0.78100 0.03800
H 	H 	0.53100 0.78960 0.83490 0.03400
H 	H 	0.68950 0.66800 0.68560 0.01800
H 	H 	0.42000 0.30290 0.87240 0.05100
H 	H 	0.31120 0.25450 0.83310 0.03300
H 	H 	0.49470 0.35540 0.80870 0.00700
H 	H 	0.57170 0.21900 0.91170 0.04000
H 	H 	0.53100 0.16510 0.95470 0.03100
H 	H 	0.68950 0.31440 0.98240 0.01800
H 	H 	0.42000 0.12760 0.43050 0.05000
H 	H 	0.31120 0.16690 0.42140 0.03300
H 	H 	0.49470 0.19130 0.54670 0.00700
H 	H 	0.57170 0.08830 0.30730 0.03600
H 	H 	0.53100 0.04530 0.21040 0.03600
H 	H 	0.68950 0.01760 0.33200 0.01700
H 	H 	0.92000 0.43050 0.30290 0.05200
H 	H 	0.81120 0.42140 0.25450 0.03300
H 	H 	0.99470 0.54670 0.35540 0.01100
H 	H 	0.07170 0.30730 0.21900 0.03600
H 	H 	0.03100 0.21040 0.16510 0.03500
H 	H 	0.18950 0.33200 0.31440 0.01800
H 	H 	0.92000 0.69710 0.12760 0.05100
H 	H 	0.81120 0.74550 0.16690 0.03300
H 	H 	0.99470 0.64460 0.19130 0.01100
H 	H 	0.07170 0.78100 0.08830 0.03400
H 	H 	0.03100 0.83490 0.04530 0.03800
H 	H 	0.18950 0.68560 0.01760 0.01700
H 	H 	0.92000 0.87240 0.56950 0.05300
H 	H 	0.81120 0.83310 0.57860 0.03400
H 	H 	0.99470 0.80870 0.45330 0.01100
H 	H 	0.07170 0.91170 0.69270 0.03800
H 	H 	0.03100 0.95470 0.78960 0.03300
H 	H 	0.18950 0.98240 0.66800 0.01900
H 	H 	0.42000 0.12760 0.69710 0.05000
H 	H 	0.31120 0.16690 0.74550 0.03300
H 	H 	0.49470 0.19130 0.64460 0.00700
H 	H 	0.57170 0.08830 0.78100 0.03600
H 	H 	0.53100 0.04530 0.83490 0.03600
H 	H 	0.68950 0.01760 0.68560 0.01700
H 	H 	0.42000 0.56950 0.87240 0.05100
H 	H 	0.31120 0.57860 0.83310 0.03400
H 	H 	0.49470 0.45330 0.80870 0.00700
H 	H 	0.57170 0.69270 0.91170 0.04000
H 	H 	0.53100 0.78960 0.95470 0.03200
H 	H 	0.68950 0.66800 0.98240 0.01900
H 	H 	0.42000 0.30290 0.43050 0.05000
H 	H 	0.31120 0.25450 0.42140 0.03300
H 	H 	0.49470 0.35540 0.54670 0.00700
H 	H 	0.57170 0.21900 0.30730 0.03800
H 	H 	0.53100 0.16510 0.21040 0.03300
H 	H 	0.68950 0.31440 0.33200 0.01800
H 	H 	0.92000 0.87240 0.30290 0.05300
H 	H 	0.81120 0.83310 0.25450 0.03400
H 	H 	0.99470 0.80870 0.35540 0.01100
H 	H 	0.07170 0.91170 0.21900 0.03800
H 	H 	0.03100 0.95470 0.16510 0.03300
H 	H 	0.18950 0.98240 0.31440 0.01900
H 	H 	0.92000 0.43050 0.12760 0.05200
H 	H 	0.81120 0.42140 0.16690 0.03300
H 	H 	0.99470 0.54670 0.19130 0.01100
H 	H 	0.07170 0.30730 0.08830 0.03400
H 	H 	0.03100 0.21040 0.04530 0.03700
H 	H 	0.18950 0.33200 0.01760 0.01700
H 	H 	0.92000 0.69710 0.56950 0.05200
H 	H 	0.81120 0.74550 0.57860 0.03300
H 	H 	0.99470 0.64460 0.45330 0.01100
H 	H 	0.07170 0.78100 0.69270 0.03600
H 	H 	0.03100 0.83490 0.78960 0.03600
H 	H 	0.18950 0.68560 0.66800 0.01800
H 	H 	0.58000 0.43050 0.30290 0.05100
H 	H 	0.68880 0.42140 0.25450 0.03300
H 	H 	0.50530 0.54670 0.35540 0.00700
H 	H 	0.42830 0.30730 0.21900 0.03800
H 	H 	0.46900 0.21040 0.16510 0.03300
H 	H 	0.31050 0.33200 0.31440 0.01800
H 	H 	0.58000 0.69710 0.12760 0.05000
H 	H 	0.68880 0.74550 0.16690 0.03300
H 	H 	0.50530 0.64460 0.19130 0.00700
H 	H 	0.42830 0.78100 0.08830 0.03600
H 	H 	0.46900 0.83490 0.04530 0.03600
H 	H 	0.31050 0.68560 0.01760 0.01700
H 	H 	0.58000 0.87240 0.56950 0.05100
H 	H 	0.68880 0.83310 0.57860 0.03400
H 	H 	0.50530 0.80870 0.45330 0.00700
H 	H 	0.42830 0.91170 0.69270 0.04100
H 	H 	0.46900 0.95470 0.78960 0.03100
H 	H 	0.31050 0.98240 0.66800 0.01900
H 	H 	0.08000 0.56950 0.69710 0.04900
H 	H 	0.18880 0.57860 0.74550 0.03300
H 	H 	0.00530 0.45330 0.64460 0.00200
H 	H 	0.92830 0.69270 0.78100 0.04100
H 	H 	0.96900 0.78960 0.83490 0.03200
H 	H 	0.81050 0.66800 0.68560 0.01800
H 	H 	0.08000 0.30290 0.87240 0.05000
H 	H 	0.18880 0.25450 0.83310 0.03400
H 	H 	0.00530 0.35540 0.80870 0.00200
H 	H 	0.92830 0.21900 0.91170 0.04200
H 	H 	0.96900 0.16510 0.95470 0.02900
H 	H 	0.81050 0.31440 0.98240 0.01900
H 	H 	0.08000 0.12760 0.43050 0.04900
H 	H 	0.18880 0.16690 0.42140 0.03300
H 	H 	0.00530 0.19130 0.54670 0.00200
H 	H 	0.92830 0.08830 0.30730 0.03800
H 	H 	0.96900 0.04530 0.21040 0.03400
H 	H 	0.81050 0.01760 0.33200 0.01700
H 	H 	0.36260 0.77895 0.22105 -0.03000
H 	H 	0.36260 0.44210 0.22105 -0.03000
H 	H 	0.36260 0.77895 0.55790 -0.03000
H 	H 	0.86260 0.22105 0.77895 -0.03100
H 	H 	0.86260 0.55790 0.77895 -0.03100
H 	H 	0.86260 0.22105 0.44210 -0.03100
H 	H 	0.63740 0.55790 0.77895 -0.03000
H 	H 	0.63740 0.22105 0.77895 -0.03000
H 	H 	0.63740 0.22105 0.44210 -0.03000
H 	H 	0.13740 0.44210 0.22105 -0.03000
H 	H 	0.13740 0.77895 0.22105 -0.03000
H 	H 	0.13740 0.77895 0.55790 -0.03000
H 	H 	0.50000 0.00000 0.41960 -0.01200
H 	H 	0.50000 0.41960 -0.00000 -0.01200
H 	H 	0.50000 0.58040 0.58040 -0.01200
H 	H 	-0.00000 0.00000 0.58040 -0.01100
H 	H 	-0.00000 0.58040 -0.00000 -0.01100
H 	H 	-0.00000 0.41960 0.41960 -0.01100
H 	H 	0.50000 0.00000 0.58040 -0.01200
H 	H 	0.50000 0.58040 -0.00000 -0.01200
H 	H 	0.50000 0.41960 0.41960 -0.01200
H 	H 	-0.00000 0.00000 0.41960 -0.01100
H 	H 	-0.00000 0.41960 -0.00000 -0.01100
H 	H 	-0.00000 0.58040 0.58040 -0.01200
C 	C 	0.51500 0.81020 0.24190 0.06800
C 	C 	0.57990 0.83740 0.26650 -0.11300
C 	C 	0.64450 0.81370 0.23830 -0.01700
C 	C 	0.48200 0.83670 0.38990 0.03100
C 	C 	0.47900 0.97290 0.29540 0.04700
C 	C 	0.45700 0.94590 0.23640 -0.10000
C 	C 	0.47990 0.97270 0.20530 -0.01600
C 	C 	0.28040 0.95440 0.31610 -0.00700
C 	C 	0.51500 0.43170 0.18980 0.06800
C 	C 	0.57990 0.42910 0.16260 -0.11300
C 	C 	0.64450 0.42460 0.18630 -0.01700
C 	C 	0.48200 0.55320 0.16330 0.03100
C 	C 	0.47900 0.32250 0.02710 0.03400
C 	C 	0.45700 0.29050 0.05410 -0.08900
C 	C 	0.47990 0.23260 0.02730 -0.03500
C 	C 	0.28040 0.36170 0.04560 -0.00700
C 	C 	0.51500 0.75810 0.56830 0.06800
C 	C 	0.57990 0.73350 0.57090 -0.11300
C 	C 	0.64450 0.76170 0.57540 -0.01700
C 	C 	0.48200 0.61010 0.44680 0.03100
C 	C 	0.47900 0.70460 0.67750 0.04000
C 	C 	0.45700 0.76360 0.70950 -0.09400
C 	C 	0.47990 0.79470 0.76740 -0.02700
C 	C 	0.28040 0.68390 0.63830 -0.00700
C 	C 	0.01500 0.18980 0.75810 0.06400
C 	C 	0.07990 0.16260 0.73350 -0.11200
C 	C 	0.14450 0.18630 0.76170 -0.01800
C 	C 	0.98200 0.16330 0.61010 0.03700
C 	C 	0.97900 0.02710 0.70460 0.04000
C 	C 	0.95700 0.05410 0.76360 -0.09300
C 	C 	0.97990 0.02730 0.79470 -0.02800
C 	C 	0.78040 0.04560 0.68390 -0.00700
C 	C 	0.01500 0.56830 0.81020 0.06400
C 	C 	0.07990 0.57090 0.83740 -0.11200
C 	C 	0.14450 0.57540 0.81370 -0.01800
C 	C 	0.98200 0.44680 0.83670 0.03700
C 	C 	0.97900 0.67750 0.97290 0.05200
C 	C 	0.95700 0.70950 0.94590 -0.10400
C 	C 	0.97990 0.76740 0.97270 -0.00900
C 	C 	0.78040 0.63830 0.95440 -0.00700
C 	C 	0.01500 0.24190 0.43170 0.06400
C 	C 	0.07990 0.26650 0.42910 -0.11200
C 	C 	0.14450 0.23830 0.42460 -0.01800
C 	C 	0.98200 0.38990 0.55320 0.03700
C 	C 	0.97900 0.29540 0.32250 0.04700
C 	C 	0.95700 0.23640 0.29050 -0.10000
C 	C 	0.97990 0.20530 0.23260 -0.01700
C 	C 	0.78040 0.31610 0.36170 -0.00700
C 	C 	0.48500 0.56830 0.75810 0.06800
C 	C 	0.42010 0.57090 0.73350 -0.11300
C 	C 	0.35550 0.57540 0.76170 -0.01700
C 	C 	0.51800 0.44680 0.61010 0.03100
C 	C 	0.52100 0.67750 0.70460 0.04000
C 	C 	0.54300 0.70950 0.76360 -0.09400
C 	C 	0.52010 0.76740 0.79470 -0.02700
C 	C 	0.71960 0.63830 0.68390 -0.00700
C 	C 	0.48500 0.24190 0.81020 0.06800
C 	C 	0.42010 0.26650 0.83740 -0.11300
C 	C 	0.35550 0.23830 0.81370 -0.01700
C 	C 	0.51800 0.38990 0.83670 0.03100
C 	C 	0.52100 0.29540 0.97290 0.04500
C 	C 	0.54300 0.23640 0.94590 -0.09900
C 	C 	0.52010 0.20530 0.97270 -0.01900
C 	C 	0.71960 0.31610 0.95440 -0.00700
C 	C 	0.48500 0.18980 0.43170 0.06700
C 	C 	0.42010 0.16260 0.42910 -0.11300
C 	C 	0.35550 0.18630 0.42460 -0.01700
C 	C 	0.51800 0.16330 0.55320 0.03100
C 	C 	0.52100 0.02710 0.32250 0.03300
C 	C 	0.54300 0.05410 0.29050 -0.08800
C 	C 	0.52010 0.02730 0.23260 -0.03800
C 	C 	0.71960 0.04560 0.36170 -0.00700
C 	C 	0.98500 0.43170 0.24190 0.07100
C 	C 	0.92010 0.42910 0.26650 -0.11400
C 	C 	0.85550 0.42460 0.23830 -0.01700
C 	C 	0.01800 0.55320 0.38990 0.02600
C 	C 	0.02100 0.32250 0.29540 0.03300
C 	C 	0.04300 0.29050 0.23640 -0.08800
C 	C 	0.02010 0.23260 0.20530 -0.03700
C 	C 	0.21960 0.36170 0.31610 -0.00700
C 	C 	0.98500 0.75810 0.18980 0.07100
C 	C 	0.92010 0.73350 0.16260 -0.11400
C 	C 	0.85550 0.76170 0.18630 -0.01700
C 	C 	0.01800 0.61010 0.16330 0.02600
C 	C 	0.02100 0.70460 0.02710 0.02800
C 	C 	0.04300 0.76360 0.05410 -0.08400
C 	C 	0.02010 0.79470 0.02730 -0.04400
C 	C 	0.21960 0.68390 0.04560 -0.00700
C 	C 	0.98500 0.81020 0.56830 0.07100
C 	C 	0.92010 0.83740 0.57090 -0.11400
C 	C 	0.85550 0.81370 0.57540 -0.01600
C 	C 	0.01800 0.83670 0.44680 0.02600
C 	C 	0.02100 0.97290 0.67750 0.04100
C 	C 	0.04300 0.94590 0.70950 -0.09500
C 	C 	0.02010 0.97270 0.76740 -0.02600
C 	C 	0.21960 0.95440 0.63830 -0.00600
C 	C 	0.48500 0.18980 0.75810 0.06700
C 	C 	0.42010 0.16260 0.73350 -0.11300
C 	C 	0.35550 0.18630 0.76170 -0.01800
C 	C 	0.51800 0.16330 0.61010 0.03100
C 	C 	0.52100 0.02710 0.70460 0.03200
C 	C 	0.54300 0.05410 0.76360 -0.08700
C 	C 	0.52010 0.02730 0.79470 -0.03800
C 	C 	0.71960 0.04560 0.68390 -0.00700
C 	C 	0.48500 0.56830 0.81020 0.06800
C 	C 	0.42010 0.57090 0.83740 -0.11300
C 	C 	0.35550 0.57540 0.81370 -0.01700
C 	C 	0.51800 0.44680 0.83670 0.03100
C 	C 	0.52100 0.67750 0.97290 0.04500
C 	C 	0.54300 0.70950 0.94590 -0.09900
C 	C 	0.52010 0.76740 0.97270 -0.01800
C 	C 	0.71960 0.63830 0.95440 -0.00600
C 	C 	0.48500 0.24190 0.43170 0.06800
C 	C 	0.42010 0.26650 0.42910 -0.11300
C 	C 	0.35550 0.23830 0.42460 -0.01700
C 	C 	0.51800 0.38990 0.55320 0.03100
C 	C 	0.52100 0.29540 0.32250 0.04000
C 	C 	0.54300 0.23640 0.29050 -0.09400
C 	C 	0.52010 0.20530 0.23260 -0.02700
C 	C 	0.71960 0.31610 0.36170 -0.00700
C 	C 	0.98500 0.81020 0.24190 0.07100
C 	C 	0.92010 0.83740 0.26650 -0.11400
C 	C 	0.85550 0.81370 0.23830 -0.01600
C 	C 	0.01800 0.83670 0.38990 0.02600
C 	C 	0.02100 0.97290 0.29540 0.04100
C 	C 	0.04300 0.94590 0.23640 -0.09500
C 	C 	0.02010 0.97270 0.20530 -0.02600
C 	C 	0.21960 0.95440 0.31610 -0.00700
C 	C 	0.98500 0.43170 0.18980 0.07100
C 	C 	0.92010 0.42910 0.16260 -0.11400
C 	C 	0.85550 0.42460 0.18630 -0.01700
C 	C 	0.01800 0.55320 0.16330 0.02600
C 	C 	0.02100 0.32250 0.02710 0.02800
C 	C 	0.04300 0.29050 0.05410 -0.08400
C 	C 	0.02010 0.23260 0.02730 -0.04500
C 	C 	0.21960 0.36170 0.04560 -0.00700
C 	C 	0.98500 0.75810 0.56830 0.07100
C 	C 	0.92010 0.73350 0.57090 -0.11400
C 	C 	0.85550 0.76170 0.57540 -0.01700
C 	C 	0.01800 0.61010 0.44680 0.02600
C 	C 	0.02100 0.70460 0.67750 0.03300
C 	C 	0.04300 0.76360 0.70950 -0.08800
C 	C 	0.02010 0.79470 0.76740 -0.03600
C 	C 	0.21960 0.68390 0.63830 -0.00700
C 	C 	0.51500 0.43170 0.24190 0.06800
C 	C 	0.57990 0.42910 0.26650 -0.11300
C 	C 	0.64450 0.42460 0.23830 -0.01700
C 	C 	0.48200 0.55320 0.38990 0.03100
C 	C 	0.47900 0.32250 0.29540 0.04000
C 	C 	0.45700 0.29050 0.23640 -0.09400
C 	C 	0.47990 0.23260 0.20530 -0.02700
C 	C 	0.28040 0.36170 0.31610 -0.00700
C 	C 	0.51500 0.75810 0.18980 0.06700
C 	C 	0.57990 0.73350 0.16260 -0.11300
C 	C 	0.64450 0.76170 0.18630 -0.01700
C 	C 	0.48200 0.61010 0.16330 0.03100
C 	C 	0.47900 0.70460 0.02710 0.03400
C 	C 	0.45700 0.76360 0.05410 -0.08900
C 	C 	0.47990 0.79470 0.02730 -0.03500
C 	C 	0.28040 0.68390 0.04560 -0.00700
C 	C 	0.51500 0.81020 0.56830 0.06800
C 	C 	0.57990 0.83740 0.57090 -0.11300
C 	C 	0.64450 0.81370 0.57540 -0.01700
C 	C 	0.48200 0.83670 0.44680 0.03100
C 	C 	0.47900 0.97290 0.67750 0.04700
C 	C 	0.45700 0.94590 0.70950 -0.10000
C 	C 	0.47990 0.97270 0.76740 -0.01600
C 	C 	0.28040 0.95440 0.63830 -0.00700
C 	C 	0.01500 0.56830 0.75810 0.06400
C 	C 	0.07990 0.57090 0.73350 -0.11200
C 	C 	0.14450 0.57540 0.76170 -0.01800
C 	C 	0.98200 0.44680 0.61010 0.03700
C 	C 	0.97900 0.67750 0.70460 0.04700
C 	C 	0.95700 0.70950 0.76360 -0.09900
C 	C 	0.97990 0.76740 0.79470 -0.01700
C 	C 	0.78040 0.63830 0.68390 -0.00700
C 	C 	0.01500 0.24190 0.81020 0.06400
C 	C 	0.07990 0.26650 0.83740 -0.11200
C 	C 	0.14450 0.23830 0.81370 -0.01800
C 	C 	0.98200 0.38990 0.83670 0.03700
C 	C 	0.97900 0.29540 0.97290 0.05200
C 	C 	0.95700 0.23640 0.94590 -0.10400
C 	C 	0.97990 0.20530 0.97270 -0.00900
C 	C 	0.78040 0.31610 0.95440 -0.00700
C 	C 	0.01500 0.18980 0.43170 0.06400
C 	C 	0.07990 0.16260 0.42910 -0.11200
C 	C 	0.14450 0.18630 0.42460 -0.01800
C 	C 	0.98200 0.16330 0.55320 0.03700
C 	C 	0.97900 0.02710 0.32250 0.04000
C 	C 	0.95700 0.05410 0.29050 -0.09300
C 	C 	0.97990 0.02730 0.23260 -0.02800
C 	C 	0.78040 0.04560 0.36170 -0.00700
C 	C 	0.41380 0.78055 0.21945 0.11700
C 	C 	0.41380 0.43890 0.21945 0.11700
C 	C 	0.41380 0.78055 0.56110 0.11700
C 	C 	0.91380 0.21945 0.78055 0.11800
C 	C 	0.91380 0.56110 0.78055 0.11800
C 	C 	0.91380 0.21945 0.43890 0.11800
C 	C 	0.58620 0.56110 0.78055 0.11700
C 	C 	0.58620 0.21945 0.78055 0.11700
C 	C 	0.58620 0.21945 0.43890 0.11700
C 	C 	0.08620 0.43890 0.21945 0.11600
C 	C 	0.08620 0.78055 0.21945 0.11600
C 	C 	0.08620 0.78055 0.56110 0.11600
C 	C 	0.42230 0.90460 0.45230 0.16100
C 	C 	0.42230 0.54770 0.09540 0.16000
C 	C 	0.42230 0.54770 0.45230 0.16000
C 	C 	0.92230 0.09540 0.54770 0.16000
C 	C 	0.92230 0.45230 0.90460 0.16100
C 	C 	0.92230 0.45230 0.54770 0.16000
C 	C 	0.57770 0.45230 0.54770 0.16000
C 	C 	0.57770 0.45230 0.90460 0.16000
C 	C 	0.57770 0.09540 0.54770 0.16000
C 	C 	0.07770 0.54770 0.45230 0.16000
C 	C 	0.07770 0.54770 0.09540 0.16000
C 	C 	0.07770 0.90460 0.45230 0.16000
C 	C 	0.50000 0.00000 0.38390 0.09400
C 	C 	0.50000 0.38390 -0.00000 0.09600
C 	C 	0.50000 0.61610 0.61610 0.10000
C 	C 	-0.00000 0.00000 0.61610 0.08900
C 	C 	-0.00000 0.61610 -0.00000 0.09100
C 	C 	-0.00000 0.38390 0.38390 0.09500
C 	C 	0.50000 0.00000 0.61610 0.09400
C 	C 	0.50000 0.61610 -0.00000 0.09600
C 	C 	0.50000 0.38390 0.38390 0.10000
C 	C 	-0.00000 0.00000 0.38390 0.08900
C 	C 	-0.00000 0.38390 -0.00000 0.09100
C 	C 	-0.00000 0.61610 0.61610 0.09500
C 	C 	0.25000 0.87390 0.32170 0.16900
C 	C 	0.25000 0.44780 0.12610 0.16900
C 	C 	0.25000 0.67830 0.55220 0.16900
C 	C 	0.75000 0.12610 0.67830 0.16900
C 	C 	0.75000 0.55220 0.87390 0.16900
C 	C 	0.75000 0.32170 0.44780 0.16900
C 	C 	0.75000 0.55220 0.67830 0.16900
C 	C 	0.75000 0.32170 0.87390 0.16900
C 	C 	0.75000 0.12610 0.44780 0.16900
C 	C 	0.25000 0.44780 0.32170 0.16900
C 	C 	0.25000 0.67830 0.12610 0.16900
C 	C 	0.25000 0.87390 0.55220 0.16900
N 	N 	0.45050 0.82340 0.26000 -0.29600
N 	N 	0.44710 0.87860 0.39520 -0.27300
N 	N 	0.46600 0.95630 0.33790 -0.29200
N 	N 	0.30480 0.90420 0.31920 -0.25700
N 	N 	0.45050 0.43660 0.17660 -0.29600
N 	N 	0.44710 0.51660 0.12140 -0.27300
N 	N 	0.46600 0.38160 0.04370 -0.29200
N 	N 	0.30480 0.41500 0.09580 -0.25700
N 	N 	0.45050 0.74000 0.56340 -0.29600
N 	N 	0.44710 0.60480 0.48340 -0.27300
N 	N 	0.46600 0.66210 0.61840 -0.29300
N 	N 	0.30480 0.68080 0.58500 -0.25700
N 	N 	0.95050 0.17660 0.74000 -0.29400
N 	N 	0.94710 0.12140 0.60480 -0.27400
N 	N 	0.96600 0.04370 0.66210 -0.29000
N 	N 	0.80480 0.09580 0.68080 -0.25700
N 	N 	0.95050 0.56340 0.82340 -0.29400
N 	N 	0.94710 0.48340 0.87860 -0.27400
N 	N 	0.96600 0.61840 0.95630 -0.29100
N 	N 	0.80480 0.58500 0.90420 -0.25700
N 	N 	0.95050 0.26000 0.43660 -0.29400
N 	N 	0.94710 0.39520 0.51660 -0.27400
N 	N 	0.96600 0.33790 0.38160 -0.29200
N 	N 	0.80480 0.31920 0.41500 -0.25700
N 	N 	0.54950 0.56340 0.74000 -0.29600
N 	N 	0.55290 0.48340 0.60480 -0.27300
N 	N 	0.53400 0.61840 0.66210 -0.29300
N 	N 	0.69520 0.58500 0.68080 -0.25700
N 	N 	0.54950 0.26000 0.82340 -0.29600
N 	N 	0.55290 0.39520 0.87860 -0.27300
N 	N 	0.53400 0.33790 0.95630 -0.29200
N 	N 	0.69520 0.31920 0.90420 -0.25700
N 	N 	0.54950 0.17660 0.43660 -0.29600
N 	N 	0.55290 0.12140 0.51660 -0.27300
N 	N 	0.53400 0.04370 0.38160 -0.29200
N 	N 	0.69520 0.09580 0.41500 -0.25700
N 	N 	0.04950 0.43660 0.26000 -0.29900
N 	N 	0.05290 0.51660 0.39520 -0.27300
N 	N 	0.03400 0.38160 0.33790 -0.29200
N 	N 	0.19520 0.41500 0.31920 -0.25700
N 	N 	0.04950 0.74000 0.17660 -0.29800
N 	N 	0.05290 0.60480 0.12140 -0.27300
N 	N 	0.03400 0.66210 0.04370 -0.29100
N 	N 	0.19520 0.68080 0.09580 -0.25700
N 	N 	0.04950 0.82340 0.56340 -0.29900
N 	N 	0.05290 0.87860 0.48340 -0.27200
N 	N 	0.03400 0.95630 0.61840 -0.29100
N 	N 	0.19520 0.90420 0.58500 -0.25700
N 	N 	0.54950 0.17660 0.74000 -0.29600
N 	N 	0.55290 0.12140 0.60480 -0.27300
N 	N 	0.53400 0.04370 0.66210 -0.29200
N 	N 	0.69520 0.09580 0.68080 -0.25700
N 	N 	0.54950 0.56340 0.82340 -0.29600
N 	N 	0.55290 0.48340 0.87860 -0.27300
N 	N 	0.53400 0.61840 0.95630 -0.29200
N 	N 	0.69520 0.58500 0.90420 -0.25700
N 	N 	0.54950 0.26000 0.43660 -0.29600
N 	N 	0.55290 0.39520 0.51660 -0.27300
N 	N 	0.53400 0.33790 0.38160 -0.29300
N 	N 	0.69520 0.31920 0.41500 -0.25700
N 	N 	0.04950 0.82340 0.26000 -0.29900
N 	N 	0.05290 0.87860 0.39520 -0.27200
N 	N 	0.03400 0.95630 0.33790 -0.29100
N 	N 	0.19520 0.90420 0.31920 -0.25700
N 	N 	0.04950 0.43660 0.17660 -0.29900
N 	N 	0.05290 0.51660 0.12140 -0.27300
N 	N 	0.03400 0.38160 0.04370 -0.29100
N 	N 	0.19520 0.41500 0.09580 -0.25700
N 	N 	0.04950 0.74000 0.56340 -0.29900
N 	N 	0.05290 0.60480 0.48340 -0.27300
N 	N 	0.03400 0.66210 0.61840 -0.29200
N 	N 	0.19520 0.68080 0.58500 -0.25700
N 	N 	0.45050 0.43660 0.26000 -0.29600
N 	N 	0.44710 0.51660 0.39520 -0.27300
N 	N 	0.46600 0.38160 0.33790 -0.29300
N 	N 	0.30480 0.41500 0.31920 -0.25700
N 	N 	0.45050 0.74000 0.17660 -0.29600
N 	N 	0.44710 0.60480 0.12140 -0.27300
N 	N 	0.46600 0.66210 0.04370 -0.29200
N 	N 	0.30480 0.68080 0.09580 -0.25700
N 	N 	0.45050 0.82340 0.56340 -0.29600
N 	N 	0.44710 0.87860 0.48340 -0.27300
N 	N 	0.46600 0.95630 0.61840 -0.29200
N 	N 	0.30480 0.90420 0.58500 -0.25700
N 	N 	0.95050 0.56340 0.74000 -0.29400
N 	N 	0.94710 0.48340 0.60480 -0.27400
N 	N 	0.96600 0.61840 0.66210 -0.29200
N 	N 	0.80480 0.58500 0.68080 -0.25700
N 	N 	0.95050 0.26000 0.82340 -0.29400
N 	N 	0.94710 0.39520 0.87860 -0.27400
N 	N 	0.96600 0.33790 0.95630 -0.29100
N 	N 	0.80480 0.31920 0.90420 -0.25700
N 	N 	0.95050 0.17660 0.43660 -0.29400
N 	N 	0.94710 0.12140 0.51660 -0.27400
N 	N 	0.96600 0.04370 0.38160 -0.29000
N 	N 	0.80480 0.09580 0.41500 -0.25700
N 	N 	0.38640 0.94970 0.47485 -0.03800
N 	N 	0.38640 0.52515 0.05030 -0.03800
N 	N 	0.38640 0.52515 0.47485 -0.03800
N 	N 	0.88640 0.05030 0.52515 -0.03800
N 	N 	0.88640 0.47485 0.94970 -0.03800
N 	N 	0.88640 0.47485 0.52515 -0.03800
N 	N 	0.61360 0.47485 0.52515 -0.03800
N 	N 	0.61360 0.47485 0.94970 -0.03800
N 	N 	0.61360 0.05030 0.52515 -0.03800
N 	N 	0.11360 0.52515 0.47485 -0.03800
N 	N 	0.11360 0.52515 0.05030 -0.03800
N 	N 	0.11360 0.94970 0.47485 -0.03800
N 	N 	0.25000 0.82890 0.32490 -0.02100
N 	N 	0.25000 0.49600 0.17110 -0.02100
N 	N 	0.25000 0.67510 0.50400 -0.02100
N 	N 	0.75000 0.17110 0.67510 -0.02100
N 	N 	0.75000 0.50400 0.82890 -0.02100
N 	N 	0.75000 0.32490 0.49600 -0.02100
N 	N 	0.75000 0.50400 0.67510 -0.02100
N 	N 	0.75000 0.32490 0.82890 -0.02100
N 	N 	0.75000 0.17110 0.49600 -0.02100
N 	N 	0.25000 0.49600 0.32490 -0.02100
N 	N 	0.25000 0.67510 0.17110 -0.02100
N 	N 	0.25000 0.82890 0.50400 -0.02100
O 	O 	0.37550 0.97320 0.44490 -0.18100
O 	O 	0.30580 0.81210 0.32790 -0.16900
O 	O 	0.37550 0.47170 0.02680 -0.18400
O 	O 	0.30580 0.51580 0.18790 -0.16900
O 	O 	0.37550 0.55510 0.52830 -0.18300
O 	O 	0.30580 0.67210 0.48420 -0.16900
O 	O 	0.87550 0.02680 0.55510 -0.18300
O 	O 	0.80580 0.18790 0.67210 -0.16900
O 	O 	0.87550 0.52830 0.97320 -0.18100
O 	O 	0.80580 0.48420 0.81210 -0.16900
O 	O 	0.87550 0.44490 0.47170 -0.18200
O 	O 	0.80580 0.32790 0.51580 -0.16900
O 	O 	0.62450 0.52830 0.55510 -0.18300
O 	O 	0.69420 0.48420 0.67210 -0.16900
O 	O 	0.62450 0.44490 0.97320 -0.18200
O 	O 	0.69420 0.32790 0.81210 -0.16900
O 	O 	0.62450 0.02680 0.47170 -0.18400
O 	O 	0.69420 0.18790 0.51580 -0.16900
O 	O 	0.12450 0.47170 0.44490 -0.18300
O 	O 	0.19420 0.51580 0.32790 -0.17000
O 	O 	0.12450 0.55510 0.02680 -0.18400
O 	O 	0.19420 0.67210 0.18790 -0.17000
O 	O 	0.12450 0.97320 0.52830 -0.18200
O 	O 	0.19420 0.81210 0.48420 -0.17000
O 	O 	0.62450 0.02680 0.55510 -0.18400
O 	O 	0.69420 0.18790 0.67210 -0.16900
O 	O 	0.62450 0.52830 0.97320 -0.18200
O 	O 	0.69420 0.48420 0.81210 -0.16900
O 	O 	0.62450 0.44490 0.47170 -0.18300
O 	O 	0.69420 0.32790 0.51580 -0.16900
O 	O 	0.12450 0.97320 0.44490 -0.18200
O 	O 	0.19420 0.81210 0.32790 -0.17000
O 	O 	0.12450 0.47170 0.02680 -0.18400
O 	O 	0.19420 0.51580 0.18790 -0.17000
O 	O 	0.12450 0.55510 0.52830 -0.18300
O 	O 	0.19420 0.67210 0.48420 -0.17000
O 	O 	0.37550 0.47170 0.44490 -0.18300
O 	O 	0.30580 0.51580 0.32790 -0.16900
O 	O 	0.37550 0.55510 0.02680 -0.18400
O 	O 	0.30580 0.67210 0.18790 -0.16900
O 	O 	0.37550 0.97320 0.52830 -0.18100
O 	O 	0.30580 0.81210 0.48420 -0.16900
O 	O 	0.87550 0.52830 0.55510 -0.18200
O 	O 	0.80580 0.48420 0.67210 -0.16900
O 	O 	0.87550 0.44490 0.97320 -0.18100
O 	O 	0.80580 0.32790 0.81210 -0.16900
O 	O 	0.87550 0.02680 0.47170 -0.18300
O 	O 	0.80580 0.18790 0.51580 -0.16900
