data_crystal

_cell_length_a 14.68680
_cell_length_b 14.68680
_cell_length_c 14.68680
_cell_angle_alpha 109.47100
_cell_angle_beta  109.47100
_cell_angle_gamma 109.47100

_symmetry_space_group_name_	'P 1'
_symmetry_space_group_name_H-M	'P 1'

loop_
_symmetry_equiv_pos_as_xyz
  x,y,z

loop_
_atom_site_label
_atom_site_type_symbol
_atom_site_fract_x
_atom_site_fract_y
_atom_site_fract_z
_atom_site_charge
Co	Co	0.75000 0.25000 0.50000 1.10800
Co	Co	0.25000 0.75000 0.50000 1.10800
Co	Co	0.50000 0.25000 0.75000 1.10800
Co	Co	0.50000 0.75000 0.25000 1.10900
Co	Co	0.25000 0.50000 0.75000 1.10900
Co	Co	0.75000 0.50000 0.25000 1.10900
H 	H 	0.57397 0.35508 0.47164 0.00200
H 	H 	0.88344 0.10233 0.52836 0.00200
H 	H 	0.11656 0.64492 0.21889 0.00300
H 	H 	0.42603 0.89767 0.78111 0.00200
H 	H 	0.21889 0.11656 0.64492 0.00300
H 	H 	0.78111 0.42603 0.89767 0.00300
H 	H 	0.47164 0.57397 0.35508 0.00200
H 	H 	0.52836 0.88344 0.10233 0.00100
H 	H 	0.10233 0.52836 0.88344 0.00100
H 	H 	0.35508 0.47164 0.57397 0.00200
H 	H 	0.89767 0.78111 0.42603 0.00200
H 	H 	0.64492 0.21889 0.11656 0.00400
H 	H 	0.10233 0.88344 0.52836 0.00000
H 	H 	0.35508 0.57397 0.47164 0.00200
H 	H 	0.89767 0.42603 0.78111 0.00300
H 	H 	0.64492 0.11656 0.21889 0.00300
H 	H 	0.57397 0.47164 0.35508 0.00200
H 	H 	0.88344 0.52836 0.10233 0.00100
H 	H 	0.11656 0.21889 0.64492 0.00300
H 	H 	0.42603 0.78111 0.89767 0.00200
H 	H 	0.21889 0.64492 0.11656 0.00400
H 	H 	0.78111 0.89767 0.42603 0.00200
H 	H 	0.47164 0.35508 0.57397 0.00200
H 	H 	0.52836 0.10233 0.88344 -0.00000
C 	C 	0.58550 0.32020 0.53070 -0.01100
C 	C 	0.78950 0.05480 0.46930 -0.00600
C 	C 	0.21050 0.67980 0.26530 -0.01100
C 	C 	0.41450 0.94520 0.73470 -0.01600
C 	C 	0.26530 0.21050 0.67980 -0.01100
C 	C 	0.73470 0.41450 0.94520 -0.02200
C 	C 	0.53070 0.58550 0.32020 -0.01100
C 	C 	0.46930 0.78950 0.05480 -0.00100
C 	C 	0.05480 0.46930 0.78950 -0.00700
C 	C 	0.32020 0.53070 0.58550 -0.01200
C 	C 	0.94520 0.73470 0.41450 -0.01500
C 	C 	0.67980 0.26530 0.21050 -0.01000
C 	C 	0.05480 0.78950 0.46930 -0.00700
C 	C 	0.32020 0.58550 0.53070 -0.01100
C 	C 	0.94520 0.41450 0.73470 -0.01500
C 	C 	0.67980 0.21050 0.26530 -0.01000
C 	C 	0.58550 0.53070 0.32020 -0.01100
C 	C 	0.78950 0.46930 0.05480 -0.00100
C 	C 	0.21050 0.26530 0.67980 -0.01100
C 	C 	0.41450 0.73470 0.94520 -0.02200
C 	C 	0.26530 0.67980 0.21050 -0.01100
C 	C 	0.73470 0.94520 0.41450 -0.01600
C 	C 	0.53070 0.32020 0.58550 -0.01100
C 	C 	0.46930 0.05480 0.78950 -0.00700
C 	C 	0.63000 0.24680 0.63000 0.13600
C 	C 	0.67860 0.18860 0.67860 -0.23800
C 	C 	0.61680 0.00000 0.37000 0.14000
C 	C 	0.51000 0.00000 0.32140 -0.23700
C 	C 	0.38320 0.75320 0.38320 0.13700
C 	C 	0.49000 0.81140 0.49000 -0.24000
C 	C 	0.37000 0.00000 0.61680 0.13900
C 	C 	0.32140 -0.00000 0.51000 -0.23800
C 	C 	0.38320 0.38320 0.75320 0.13700
C 	C 	0.49000 0.49000 0.81140 -0.24000
C 	C 	0.61680 0.37000 -0.00000 0.14100
C 	C 	0.51000 0.32140 -0.00000 -0.22400
C 	C 	0.63000 0.63000 0.24680 0.13700
C 	C 	0.67860 0.67860 0.18860 -0.24100
C 	C 	0.37000 0.61680 -0.00000 0.14200
C 	C 	0.32140 0.51000 -0.00000 -0.23100
C 	C 	0.00000 0.37000 0.61680 0.13900
C 	C 	-0.00000 0.32140 0.51000 -0.23600
C 	C 	0.24680 0.63000 0.63000 0.13600
C 	C 	0.18860 0.67860 0.67860 -0.24000
C 	C 	0.00000 0.61680 0.37000 0.13900
C 	C 	-0.00000 0.51000 0.32140 -0.23700
C 	C 	0.75320 0.38320 0.38320 0.13800
C 	C 	0.81140 0.49000 0.49000 -0.24000
N 	N 	0.65190 0.27350 0.55880 -0.28200
N 	N 	0.71470 0.09310 0.44120 -0.28300
N 	N 	0.28530 0.72650 0.37840 -0.28200
N 	N 	0.34810 0.90690 0.62160 -0.28300
N 	N 	0.37840 0.28530 0.72650 -0.28200
N 	N 	0.62160 0.34810 0.90690 -0.28400
N 	N 	0.55880 0.65190 0.27350 -0.28200
N 	N 	0.44120 0.71470 0.09310 -0.28400
N 	N 	0.09310 0.44120 0.71470 -0.28300
N 	N 	0.27350 0.55880 0.65190 -0.28200
N 	N 	0.90690 0.62160 0.34810 -0.28300
N 	N 	0.72650 0.37840 0.28530 -0.28200
N 	N 	0.09310 0.71470 0.44120 -0.28300
N 	N 	0.27350 0.65190 0.55880 -0.28200
N 	N 	0.90690 0.34810 0.62160 -0.28200
N 	N 	0.72650 0.28530 0.37840 -0.28200
N 	N 	0.65190 0.55880 0.27350 -0.28200
N 	N 	0.71470 0.44120 0.09310 -0.28300
N 	N 	0.28530 0.37840 0.72650 -0.28200
N 	N 	0.34810 0.62160 0.90690 -0.28400
N 	N 	0.37840 0.72650 0.28530 -0.28200
N 	N 	0.62160 0.90690 0.34810 -0.28300
N 	N 	0.55880 0.27350 0.65190 -0.28200
N 	N 	0.44120 0.09310 0.71470 -0.28300
H 	H 	0.73573 0.17368 0.64610 0.03200
H 	H 	0.60859 0.10522 0.65348 0.05000
H 	H 	0.72864 0.24240 0.77337 0.04600
H 	H 	0.43702 0.91427 0.28637 0.03300
H 	H 	0.50257 0.02021 0.25164 0.05100
H 	H 	0.50876 0.06552 0.38904 0.04500
H 	H 	0.55908 0.87359 0.48724 0.04200
H 	H 	0.51259 0.74757 0.50211 0.05000
H 	H 	0.47998 0.85754 0.56231 0.03600
H 	H 	0.30435 0.92212 0.43892 0.03800
H 	H 	0.38268 0.07735 0.51644 0.04000
H 	H 	0.24002 0.00053 0.49299 0.05200
H 	H 	0.49743 0.51764 0.74907 0.04900
H 	H 	0.56298 0.47725 0.84935 0.03400
H 	H 	0.49124 0.55676 0.88028 0.04300
H 	H 	0.48741 0.23498 0.98952 0.04300
H 	H 	0.44092 0.31450 0.92815 0.03600
H 	H 	0.52002 0.37756 0.08233 0.03500
H 	H 	0.61732 0.69468 0.13376 0.04100
H 	H 	0.69565 0.61777 0.13457 0.04100
H 	H 	0.75998 0.76051 0.25297 0.05100
H 	H 	0.39141 0.49663 0.04490 0.05000
H 	H 	0.26427 0.43796 0.91037 0.02700
H 	H 	0.27136 0.51376 0.04473 0.04700
H 	H 	0.05231 0.39141 0.50087 0.04800
H 	H 	0.91082 0.27132 0.43720 0.03100
H 	H 	0.03687 0.26431 0.51028 0.04900
H 	H 	0.12880 0.61477 0.68855 0.04100
H 	H 	0.13978 0.70174 0.62079 0.03800
H 	H 	0.25272 0.75644 0.76362 0.05000
H 	H 	0.02356 0.50415 0.25396 0.05100
H 	H 	0.91333 0.43692 0.28333 0.03300
H 	H 	0.06311 0.50728 0.38975 0.04500
H 	H 	0.86022 0.56196 0.48100 0.03800
H 	H 	0.87120 0.48597 0.55975 0.04100
H 	H 	0.74728 0.50372 0.51090 0.05000
