data_crystal

_cell_length_a 14.68680
_cell_length_b 14.68680
_cell_length_c 14.68680
_cell_angle_alpha 109.47100
_cell_angle_beta  109.47100
_cell_angle_gamma 109.47100

_symmetry_space_group_name_	'P 1'
_symmetry_space_group_name_H-M	'P 1'

loop_
_symmetry_equiv_pos_as_xyz
  x,y,z

loop_
_atom_site_label
_atom_site_type_symbol
_atom_site_fract_x
_atom_site_fract_y
_atom_site_fract_z
_atom_site_charge
Co	Co	0.75000 0.25000 0.50000 1.10500
Co	Co	0.25000 0.75000 0.50000 1.10600
Co	Co	0.50000 0.25000 0.75000 1.10600
Co	Co	0.50000 0.75000 0.25000 1.10600
Co	Co	0.25000 0.50000 0.75000 1.10600
Co	Co	0.75000 0.50000 0.25000 1.10600
H 	H 	0.57211 0.35202 0.46907 0.00100
H 	H 	0.11706 0.64798 0.22009 0.00100
H 	H 	0.42789 0.89697 0.77991 0.00000
H 	H 	0.22009 0.11706 0.64798 0.00100
H 	H 	0.77991 0.42789 0.89697 0.00100
H 	H 	0.46907 0.57211 0.35202 0.00100
H 	H 	0.53092 0.88294 0.10303 -0.00100
H 	H 	0.35202 0.46907 0.57211 0.00000
H 	H 	0.89697 0.77991 0.42789 0.00000
H 	H 	0.64798 0.22009 0.11706 0.00300
H 	H 	0.10303 0.88294 0.53092 -0.00100
H 	H 	0.35202 0.57211 0.46907 0.00100
H 	H 	0.89697 0.42789 0.77991 0.00100
H 	H 	0.64798 0.11706 0.22009 0.00200
H 	H 	0.57211 0.46907 0.35202 0.00100
H 	H 	0.88294 0.53092 0.10303 -0.00100
H 	H 	0.11706 0.22009 0.64798 0.00100
H 	H 	0.42789 0.77991 0.89697 0.00100
H 	H 	0.22009 0.64798 0.11706 0.00200
H 	H 	0.77991 0.89697 0.42789 0.00000
H 	H 	0.46907 0.35202 0.57211 0.00100
H 	H 	0.53092 0.10303 0.88294 -0.00200
C 	C 	0.58410 0.31770 0.52860 -0.00900
C 	C 	0.78910 0.05550 0.47140 -0.00300
C 	C 	0.21090 0.68230 0.26640 -0.00800
C 	C 	0.41590 0.94450 0.73360 -0.01300
C 	C 	0.26640 0.21090 0.68230 -0.00800
C 	C 	0.73360 0.41590 0.94450 -0.01900
C 	C 	0.52860 0.58410 0.31770 -0.00800
C 	C 	0.47140 0.78910 0.05550 0.00100
C 	C 	0.05550 0.47140 0.78910 -0.00500
C 	C 	0.31770 0.52860 0.58410 -0.00900
C 	C 	0.94450 0.73360 0.41590 -0.01300
C 	C 	0.68230 0.26640 0.21090 -0.00700
C 	C 	0.05550 0.78910 0.47140 -0.00400
C 	C 	0.31770 0.58410 0.52860 -0.00800
C 	C 	0.94450 0.41590 0.73360 -0.01200
C 	C 	0.68230 0.21090 0.26640 -0.00800
C 	C 	0.58410 0.52860 0.31770 -0.00800
C 	C 	0.78910 0.47140 0.05550 0.00200
C 	C 	0.21090 0.26640 0.68230 -0.00800
C 	C 	0.41590 0.73360 0.94450 -0.01900
C 	C 	0.26640 0.68230 0.21090 -0.00800
C 	C 	0.73360 0.94450 0.41590 -0.01300
C 	C 	0.52860 0.31770 0.58410 -0.00800
C 	C 	0.47140 0.05550 0.78910 -0.00400
C 	C 	0.62820 0.24540 0.62820 0.13100
C 	C 	0.67830 0.18760 0.67830 -0.23500
C 	C 	0.61720 0.00000 0.37180 0.13500
C 	C 	0.50930 0.00000 0.32170 -0.23400
C 	C 	0.38280 0.75460 0.38280 0.13200
C 	C 	0.49070 0.81240 0.49070 -0.23800
C 	C 	0.37180 0.00000 0.61720 0.13400
C 	C 	0.32170 0.00000 0.50930 -0.23500
C 	C 	0.38280 0.38280 0.75460 0.13200
C 	C 	0.49070 0.49070 0.81240 -0.23700
C 	C 	0.61720 0.37180 -0.00000 0.13600
C 	C 	0.50930 0.32170 -0.00000 -0.22200
C 	C 	0.62820 0.62820 0.24540 0.13200
C 	C 	0.67830 0.67830 0.18760 -0.23800
C 	C 	0.37180 0.61720 -0.00000 0.13700
C 	C 	0.32170 0.50930 -0.00000 -0.22800
C 	C 	0.00000 0.37180 0.61720 0.13400
C 	C 	0.00000 0.32170 0.50930 -0.23300
C 	C 	0.24540 0.62820 0.62820 0.13100
C 	C 	0.18760 0.67830 0.67830 -0.23800
C 	C 	0.00000 0.61720 0.37180 0.13500
C 	C 	0.00000 0.50930 0.32170 -0.23400
C 	C 	0.75460 0.38280 0.38280 0.13300
C 	C 	0.81240 0.49070 0.49070 -0.23800
N 	N 	0.64970 0.27250 0.55720 -0.28000
N 	N 	0.71530 0.09250 0.44280 -0.28100
N 	N 	0.28470 0.72750 0.37720 -0.28100
N 	N 	0.35030 0.90750 0.62280 -0.28200
N 	N 	0.37720 0.28470 0.72750 -0.28000
N 	N 	0.62280 0.35030 0.90750 -0.28200
N 	N 	0.55720 0.64970 0.27250 -0.28100
N 	N 	0.44280 0.71530 0.09250 -0.28200
N 	N 	0.09250 0.44280 0.71530 -0.28200
N 	N 	0.27250 0.55720 0.64970 -0.28100
N 	N 	0.90750 0.62280 0.35030 -0.28100
N 	N 	0.72750 0.37720 0.28470 -0.28000
N 	N 	0.09250 0.71530 0.44280 -0.28200
N 	N 	0.27250 0.64970 0.55720 -0.28100
N 	N 	0.90750 0.35030 0.62280 -0.28100
N 	N 	0.72750 0.28470 0.37720 -0.28000
N 	N 	0.64970 0.55720 0.27250 -0.28000
N 	N 	0.71530 0.44280 0.09250 -0.28200
N 	N 	0.28470 0.37720 0.72750 -0.28000
N 	N 	0.35030 0.62280 0.90750 -0.28200
N 	N 	0.37720 0.72750 0.28470 -0.28100
N 	N 	0.62280 0.90750 0.35030 -0.28100
N 	N 	0.55720 0.27250 0.64970 -0.28100
N 	N 	0.44280 0.09250 0.71530 -0.28100
H 	H 	0.73685 0.17433 0.64723 0.03100
H 	H 	0.60891 0.10346 0.65245 0.05000
H 	H 	0.72701 0.24132 0.77308 0.04400
H 	H 	0.43613 0.91419 0.28608 0.03300
H 	H 	0.50276 0.02049 0.25223 0.05000
H 	H 	0.50746 0.06532 0.38893 0.04500
H 	H 	0.56021 0.87447 0.48830 0.04200
H 	H 	0.51245 0.74789 0.50209 0.04900
H 	H 	0.48098 0.85853 0.56326 0.03600
H 	H 	0.30322 0.92157 0.43773 0.03700
H 	H 	0.38302 0.07678 0.51500 0.04000
H 	H 	0.24099 0.00165 0.49362 0.05100
H 	H 	0.49724 0.51773 0.74946 0.04800
H 	H 	0.56387 0.47806 0.84995 0.03400
H 	H 	0.49254 0.55785 0.88147 0.04300
H 	H 	0.48755 0.23543 0.98964 0.04100
H 	H 	0.43979 0.31425 0.92808 0.03500
H 	H 	0.51902 0.37755 0.08228 0.03500
H 	H 	0.61698 0.69376 0.13198 0.04100
H 	H 	0.69678 0.61835 0.13451 0.04000
H 	H 	0.75901 0.76066 0.25263 0.04900
H 	H 	0.39109 0.49455 0.04355 0.05000
H 	H 	0.26315 0.43748 0.91038 0.02600
H 	H 	0.27299 0.51432 0.04607 0.04600
H 	H 	0.05180 0.39123 0.49930 0.04800
H 	H 	0.91076 0.27083 0.43651 0.03000
H 	H 	0.03745 0.26518 0.51055 0.04700
H 	H 	0.12794 0.61495 0.68880 0.04100
H 	H 	0.13878 0.70171 0.62081 0.03800
H 	H 	0.25240 0.75611 0.76315 0.04900
H 	H 	0.02361 0.50423 0.25439 0.04900
H 	H 	0.91332 0.43606 0.28326 0.03300
H 	H 	0.06307 0.50607 0.38958 0.04500
H 	H 	0.86122 0.56293 0.48203 0.03800
H 	H 	0.87206 0.48700 0.56086 0.04100
H 	H 	0.74760 0.50371 0.51076 0.04900
