data_crystal

_cell_length_a 18.02080
_cell_length_b 27.01110
_cell_length_c 27.01110
_cell_angle_alpha 120.00000
_cell_angle_beta  90.00000
_cell_angle_gamma 90.00000

_symmetry_space_group_name_	'P 1'
_symmetry_space_group_name_H-M	'P 1'

loop_
_symmetry_equiv_pos_as_xyz
  x,y,z

loop_
_atom_site_label
_atom_site_type_symbol
_atom_site_fract_x
_atom_site_fract_y
_atom_site_fract_z
_atom_site_charge
Zn	Zn	0.57967 0.33279 0.44353 1.17700
Zn	Zn	0.57967 0.11074 0.66721 1.17700
Zn	Zn	0.57967 0.55647 0.88926 1.17700
Zn	Zn	0.07967 0.66721 0.55647 1.17700
Zn	Zn	0.07967 0.88926 0.33279 1.17700
Zn	Zn	0.07967 0.44353 0.11074 1.17700
Zn	Zn	0.42033 0.88926 0.55647 1.17700
Zn	Zn	0.42033 0.44353 0.33279 1.17700
Zn	Zn	0.42033 0.66721 0.11074 1.17700
Zn	Zn	0.92033 0.11074 0.44353 1.17600
Zn	Zn	0.92033 0.55647 0.66721 1.17700
Zn	Zn	0.92033 0.33279 0.88926 1.17700
Zn	Zn	0.42033 0.66721 0.55647 1.17700
Zn	Zn	0.42033 0.88926 0.33279 1.17700
Zn	Zn	0.42033 0.44353 0.11074 1.17800
Zn	Zn	0.92033 0.33279 0.44353 1.17800
Zn	Zn	0.92033 0.11074 0.66721 1.17700
Zn	Zn	0.92033 0.55647 0.88926 1.17800
Zn	Zn	0.57967 0.11074 0.44353 1.17800
Zn	Zn	0.57967 0.55647 0.66721 1.17800
Zn	Zn	0.57967 0.33279 0.88926 1.17800
Zn	Zn	0.07967 0.88926 0.55647 1.17800
Zn	Zn	0.07967 0.44353 0.33279 1.17800
Zn	Zn	0.07967 0.66721 0.11074 1.17800
H 	H 	0.44540 0.24430 0.39930 0.00500
H 	H 	0.68280 0.32940 0.34570 0.00400
H 	H 	0.43170 0.40120 0.51110 0.00300
H 	H 	0.53230 0.26250 0.30810 -0.00100
H 	H 	0.44540 0.15500 0.75570 0.00500
H 	H 	0.68280 0.01630 0.67060 0.00400
H 	H 	0.43170 0.10990 0.59880 0.00300
H 	H 	0.53230 0.04560 0.73750 0.00000
H 	H 	0.44540 0.60070 0.84500 0.00500
H 	H 	0.68280 0.65430 0.98370 0.00500
H 	H 	0.43170 0.48890 0.89010 0.00400
H 	H 	0.53230 0.69190 0.95440 -0.00200
H 	H 	0.94540 0.75570 0.60070 0.00500
H 	H 	0.18280 0.67060 0.65430 0.00500
H 	H 	0.93170 0.59880 0.48890 0.00300
H 	H 	0.03230 0.73750 0.69190 -0.00200
H 	H 	0.94540 0.84500 0.24430 0.00500
H 	H 	0.18280 0.98370 0.32940 0.00500
H 	H 	0.93170 0.89010 0.40120 0.00400
H 	H 	0.03230 0.95440 0.26250 -0.00300
H 	H 	0.94540 0.39930 0.15500 0.00500
H 	H 	0.18280 0.34570 0.01630 0.00400
H 	H 	0.93170 0.51110 0.10990 0.00300
H 	H 	0.03230 0.30810 0.04560 -0.00100
H 	H 	0.55460 0.84500 0.60070 0.00500
H 	H 	0.31720 0.98370 0.65430 0.00500
H 	H 	0.56830 0.89010 0.48890 0.00400
H 	H 	0.46770 0.95440 0.69190 -0.00200
H 	H 	0.55460 0.39930 0.24430 0.00500
H 	H 	0.31720 0.34570 0.32940 0.00400
H 	H 	0.56830 0.51110 0.40120 0.00300
H 	H 	0.46770 0.30810 0.26250 -0.00100
H 	H 	0.55460 0.75570 0.15500 0.00500
H 	H 	0.31720 0.67060 0.01630 0.00400
H 	H 	0.56830 0.59880 0.10990 0.00300
H 	H 	0.46770 0.73750 0.04560 -0.00000
H 	H 	0.05460 0.15500 0.39930 0.00500
H 	H 	0.81720 0.01630 0.34570 0.00400
H 	H 	0.06830 0.10990 0.51110 0.00300
H 	H 	0.96770 0.04560 0.30810 0.00100
H 	H 	0.05460 0.60070 0.75570 0.00500
H 	H 	0.81720 0.65430 0.67060 0.00400
H 	H 	0.06830 0.48890 0.59880 0.00300
H 	H 	0.96770 0.69190 0.73750 -0.00000
H 	H 	0.05460 0.24430 0.84500 0.00500
H 	H 	0.81720 0.32940 0.98370 0.00500
H 	H 	0.06830 0.40120 0.89010 0.00300
H 	H 	0.96770 0.26250 0.95440 -0.00100
H 	H 	0.55460 0.75570 0.60070 0.00500
H 	H 	0.31720 0.67060 0.65430 0.00500
H 	H 	0.56830 0.59880 0.48890 0.00300
H 	H 	0.46770 0.73750 0.69190 -0.00100
H 	H 	0.55460 0.84500 0.24430 0.00500
H 	H 	0.31720 0.98370 0.32940 0.00500
H 	H 	0.56830 0.89010 0.40120 0.00400
H 	H 	0.46770 0.95440 0.26250 -0.00200
H 	H 	0.55460 0.39930 0.15500 0.00500
H 	H 	0.31720 0.34570 0.01630 0.00400
H 	H 	0.56830 0.51110 0.10990 0.00300
H 	H 	0.46770 0.30810 0.04560 -0.00000
H 	H 	0.05460 0.24430 0.39930 0.00500
H 	H 	0.81720 0.32940 0.34570 0.00400
H 	H 	0.06830 0.40120 0.51110 0.00300
H 	H 	0.96770 0.26250 0.30810 -0.00100
H 	H 	0.05460 0.15500 0.75570 0.00500
H 	H 	0.81720 0.01630 0.67060 0.00400
H 	H 	0.06830 0.10990 0.59880 0.00300
H 	H 	0.96770 0.04560 0.73750 0.00100
H 	H 	0.05460 0.60070 0.84500 0.00500
H 	H 	0.81720 0.65430 0.98370 0.00500
H 	H 	0.06830 0.48890 0.89010 0.00400
H 	H 	0.96770 0.69190 0.95440 -0.00100
H 	H 	0.44540 0.15500 0.39930 0.00500
H 	H 	0.68280 0.01630 0.34570 0.00400
H 	H 	0.43170 0.10990 0.51110 0.00300
H 	H 	0.53230 0.04560 0.30810 -0.00000
H 	H 	0.44540 0.60070 0.75570 0.00500
H 	H 	0.68280 0.65430 0.67060 0.00400
H 	H 	0.43170 0.48890 0.59880 0.00300
H 	H 	0.53230 0.69190 0.73750 -0.00100
H 	H 	0.44540 0.24430 0.84500 0.00500
H 	H 	0.68280 0.32940 0.98370 0.00500
H 	H 	0.43170 0.40120 0.89010 0.00400
H 	H 	0.53230 0.26250 0.95440 -0.00200
H 	H 	0.94540 0.84500 0.60070 0.00500
H 	H 	0.18280 0.98370 0.65430 0.00500
H 	H 	0.93170 0.89010 0.48890 0.00400
H 	H 	0.03230 0.95440 0.69190 -0.00300
H 	H 	0.94540 0.39930 0.24430 0.00500
H 	H 	0.18280 0.34570 0.32940 0.00400
H 	H 	0.93170 0.51110 0.40120 0.00300
H 	H 	0.03230 0.30810 0.26250 -0.00200
H 	H 	0.94540 0.75570 0.15500 0.00500
H 	H 	0.18280 0.67060 0.01630 0.00400
H 	H 	0.93170 0.59880 0.10990 0.00300
H 	H 	0.03230 0.73750 0.04560 -0.00100
H 	H 	0.62880 0.22230 0.44460 -0.06200
H 	H 	0.62880 0.22230 0.77770 -0.06200
H 	H 	0.62880 0.55540 0.77770 -0.06200
H 	H 	0.12880 0.77770 0.55540 -0.06200
H 	H 	0.12880 0.77770 0.22230 -0.06200
H 	H 	0.12880 0.44460 0.22230 -0.06200
H 	H 	0.37120 0.77770 0.55540 -0.06200
H 	H 	0.37120 0.44460 0.22230 -0.06200
H 	H 	0.37120 0.77770 0.22230 -0.06200
H 	H 	0.87120 0.22230 0.44460 -0.06200
H 	H 	0.87120 0.55540 0.77770 -0.06200
H 	H 	0.87120 0.22230 0.77770 -0.06200
H 	H 	0.62700 0.45360 0.54640 -0.06300
H 	H 	0.62700 0.09280 0.54640 -0.06300
H 	H 	0.62700 0.45360 0.90720 -0.06200
H 	H 	0.12700 0.54640 0.45360 -0.06300
H 	H 	0.12700 0.90720 0.45360 -0.06200
H 	H 	0.12700 0.54640 0.09280 -0.06300
H 	H 	0.37300 0.90720 0.45360 -0.06200
H 	H 	0.37300 0.54640 0.45360 -0.06300
H 	H 	0.37300 0.54640 0.09280 -0.06300
H 	H 	0.87300 0.09280 0.54640 -0.06300
H 	H 	0.87300 0.45360 0.54640 -0.06300
H 	H 	0.87300 0.45360 0.90720 -0.06200
H 	H 	0.50000 0.42200 0.42200 -0.05800
H 	H 	0.50000 1.00000 0.57800 -0.05800
H 	H 	0.50000 0.57800 -0.00000 -0.05700
H 	H 	-0.00000 0.57800 0.57800 -0.05800
H 	H 	-0.00000 1.00000 0.42200 -0.04900
H 	H 	-0.00000 0.42200 -0.00000 -0.05800
H 	H 	0.50000 0.57800 0.57800 -0.05800
H 	H 	0.50000 1.00000 0.42200 -0.05300
H 	H 	0.50000 0.42200 -0.00000 -0.05700
H 	H 	-0.00000 0.42200 0.42200 -0.05800
H 	H 	1.00000 1.00000 0.57800 -0.05800
H 	H 	-0.00000 0.57800 -0.00000 -0.05400
C 	C 	0.48230 0.23220 0.41500 -0.01800
C 	C 	0.71270 0.33010 0.37410 -0.01400
C 	C 	0.47380 0.41960 0.53230 -0.01300
C 	C 	0.51760 0.30060 0.32600 -0.00300
C 	C 	0.48230 0.18280 0.76780 -0.01800
C 	C 	0.71270 0.04400 0.66990 -0.01400
C 	C 	0.47380 0.11270 0.58040 -0.01300
C 	C 	0.51760 0.02540 0.69940 -0.00800
C 	C 	0.48230 0.58500 0.81720 -0.01800
C 	C 	0.71270 0.62590 0.95600 -0.01300
C 	C 	0.47380 0.46770 0.88730 -0.01300
C 	C 	0.51760 0.67400 0.97460 0.00000
C 	C 	0.98230 0.76780 0.58500 -0.02000
C 	C 	0.21270 0.66990 0.62590 -0.01300
C 	C 	0.97380 0.58040 0.46770 -0.01400
C 	C 	0.01760 0.69940 0.67400 0.00100
C 	C 	0.98230 0.81720 0.23220 -0.02000
C 	C 	0.21270 0.95600 0.33010 -0.01300
C 	C 	0.97380 0.88730 0.41960 -0.01400
C 	C 	0.01760 0.97460 0.30060 0.00600
C 	C 	0.98230 0.41500 0.18280 -0.02000
C 	C 	0.21270 0.37410 0.04400 -0.01400
C 	C 	0.97380 0.53230 0.11270 -0.01500
C 	C 	0.01760 0.32600 0.02540 -0.00300
C 	C 	0.51770 0.81720 0.58500 -0.01800
C 	C 	0.28730 0.95600 0.62590 -0.01300
C 	C 	0.52620 0.88730 0.46770 -0.01300
C 	C 	0.48240 0.97460 0.67400 0.00200
C 	C 	0.51770 0.41500 0.23220 -0.01800
C 	C 	0.28730 0.37410 0.33010 -0.01400
C 	C 	0.52620 0.53230 0.41960 -0.01300
C 	C 	0.48240 0.32600 0.30060 -0.00300
C 	C 	0.51770 0.76780 0.18280 -0.01800
C 	C 	0.28730 0.66990 0.04400 -0.01400
C 	C 	0.52620 0.58040 0.11270 -0.01300
C 	C 	0.48240 0.69940 0.02540 -0.00700
C 	C 	0.01770 0.18280 0.41500 -0.01700
C 	C 	0.78730 0.04400 0.37410 -0.01400
C 	C 	0.02620 0.11270 0.53230 -0.01200
C 	C 	0.98240 0.02540 0.32600 -0.01200
C 	C 	0.01770 0.58500 0.76780 -0.01600
C 	C 	0.78730 0.62590 0.66990 -0.01400
C 	C 	0.02620 0.46770 0.58040 -0.01100
C 	C 	0.98240 0.67400 0.69940 -0.00700
C 	C 	0.01770 0.23220 0.81720 -0.01700
C 	C 	0.78730 0.33010 0.95600 -0.01300
C 	C 	0.02620 0.41960 0.88730 -0.01100
C 	C 	0.98240 0.30060 0.97460 -0.00400
C 	C 	0.51770 0.76780 0.58500 -0.01800
C 	C 	0.28730 0.66990 0.62590 -0.01300
C 	C 	0.52620 0.58040 0.46770 -0.01300
C 	C 	0.48240 0.69940 0.67400 -0.00300
C 	C 	0.51770 0.81720 0.23220 -0.01800
C 	C 	0.28730 0.95600 0.33010 -0.01300
C 	C 	0.52620 0.88730 0.41960 -0.01300
C 	C 	0.48240 0.97460 0.30060 0.00200
C 	C 	0.51770 0.41500 0.18280 -0.01800
C 	C 	0.28730 0.37410 0.04400 -0.01400
C 	C 	0.52620 0.53230 0.11270 -0.01300
C 	C 	0.48240 0.32600 0.02540 -0.00700
C 	C 	0.01770 0.23220 0.41500 -0.01700
C 	C 	0.78730 0.33010 0.37410 -0.01400
C 	C 	0.02620 0.41960 0.53230 -0.01100
C 	C 	0.98240 0.30060 0.32600 -0.00800
C 	C 	0.01770 0.18280 0.76780 -0.01600
C 	C 	0.78730 0.04400 0.66990 -0.01400
C 	C 	0.02620 0.11270 0.58040 -0.01100
C 	C 	0.98240 0.02540 0.69940 -0.01200
C 	C 	0.01770 0.58500 0.81720 -0.01700
C 	C 	0.78730 0.62590 0.95600 -0.01300
C 	C 	0.02620 0.46770 0.88730 -0.01100
C 	C 	0.98240 0.67400 0.97460 -0.00400
C 	C 	0.48230 0.18280 0.41500 -0.01800
C 	C 	0.71270 0.04400 0.37410 -0.01400
C 	C 	0.47380 0.11270 0.53230 -0.01300
C 	C 	0.51760 0.02540 0.32600 -0.00800
C 	C 	0.48230 0.58500 0.76780 -0.01800
C 	C 	0.71270 0.62590 0.66990 -0.01400
C 	C 	0.47380 0.46770 0.58040 -0.01300
C 	C 	0.51760 0.67400 0.69940 -0.00300
C 	C 	0.48230 0.23220 0.81720 -0.01800
C 	C 	0.71270 0.33010 0.95600 -0.01300
C 	C 	0.47380 0.41960 0.88730 -0.01300
C 	C 	0.51760 0.30060 0.97460 0.00000
C 	C 	0.98230 0.81720 0.58500 -0.02000
C 	C 	0.21270 0.95600 0.62590 -0.01300
C 	C 	0.97380 0.88730 0.46770 -0.01400
C 	C 	0.01760 0.97460 0.67400 0.00600
C 	C 	0.98230 0.41500 0.23220 -0.02000
C 	C 	0.21270 0.37410 0.33010 -0.01400
C 	C 	0.97380 0.53230 0.41960 -0.01400
C 	C 	0.01760 0.32600 0.30060 0.00100
C 	C 	0.98230 0.76780 0.18280 -0.02000
C 	C 	0.21270 0.66990 0.04400 -0.01400
C 	C 	0.97380 0.58040 0.11270 -0.01500
C 	C 	0.01760 0.69940 0.02540 -0.00200
C 	C 	0.57730 0.22150 0.44300 0.19100
C 	C 	0.57730 0.22150 0.77850 0.19100
C 	C 	0.57730 0.55700 0.77850 0.19100
C 	C 	0.07730 0.77850 0.55700 0.19200
C 	C 	0.07730 0.77850 0.22150 0.19100
C 	C 	0.07730 0.44300 0.22150 0.19100
C 	C 	0.42270 0.77850 0.55700 0.19100
C 	C 	0.42270 0.44300 0.22150 0.19100
C 	C 	0.42270 0.77850 0.22150 0.19100
C 	C 	0.92270 0.22150 0.44300 0.19000
C 	C 	0.92270 0.55700 0.77850 0.19000
C 	C 	0.92270 0.22150 0.77850 0.19000
C 	C 	0.75000 0.33140 0.44720 0.15100
C 	C 	0.75000 0.11580 0.66860 0.15100
C 	C 	0.75000 0.55280 0.88420 0.15100
C 	C 	0.25000 0.66860 0.55280 0.15100
C 	C 	0.25000 0.88420 0.33140 0.15200
C 	C 	0.25000 0.44720 0.11580 0.15100
C 	C 	0.25000 0.88420 0.55280 0.15200
C 	C 	0.25000 0.44720 0.33140 0.15100
C 	C 	0.25000 0.66860 0.11580 0.15100
C 	C 	0.75000 0.11580 0.44720 0.15100
C 	C 	0.75000 0.55280 0.66860 0.15100
C 	C 	0.75000 0.33140 0.88420 0.15100
C 	C 	0.57910 0.44625 0.55375 0.15900
C 	C 	0.57910 0.10750 0.55375 0.15900
C 	C 	0.57910 0.44625 0.89250 0.15900
C 	C 	0.07910 0.55375 0.44625 0.16000
C 	C 	0.07910 0.89250 0.44625 0.16000
C 	C 	0.07910 0.55375 0.10750 0.16000
C 	C 	0.42090 0.89250 0.44625 0.15900
C 	C 	0.42090 0.55375 0.44625 0.15900
C 	C 	0.42090 0.55375 0.10750 0.15900
C 	C 	0.92090 0.10750 0.55375 0.15800
C 	C 	0.92090 0.44625 0.55375 0.15900
C 	C 	0.92090 0.44625 0.89250 0.15900
C 	C 	0.50000 0.38760 0.38760 0.09000
C 	C 	0.50000 1.00000 0.61240 0.09300
C 	C 	0.50000 0.61240 -0.00000 0.08800
C 	C 	-0.00000 0.61240 0.61240 0.09200
C 	C 	1.00000 0.00000 0.38760 0.07600
C 	C 	-0.00000 0.38760 -0.00000 0.09000
C 	C 	0.50000 0.61240 0.61240 0.09000
C 	C 	0.50000 0.00000 0.38760 0.08200
C 	C 	0.50000 0.38760 -0.00000 0.08800
C 	C 	-0.00000 0.38760 0.38760 0.09200
C 	C 	1.00000 1.00000 0.61240 0.09000
C 	C 	1.00000 0.61240 -0.00000 0.08100
N 	N 	0.54560 0.26232 0.44194 -0.30600
N 	N 	0.68790 0.33130 0.42230 -0.28300
N 	N 	0.54630 0.39973 0.51737 -0.29000
N 	N 	0.52790 0.33953 0.38187 -0.28600
N 	N 	0.54560 0.17962 0.73768 -0.30600
N 	N 	0.68790 0.09100 0.66870 -0.28300
N 	N 	0.54630 0.11764 0.60027 -0.29000
N 	N 	0.52790 0.04234 0.66047 -0.28700
N 	N 	0.54560 0.55806 0.82038 -0.30600
N 	N 	0.68790 0.57770 0.90900 -0.28300
N 	N 	0.54630 0.48263 0.88236 -0.29000
N 	N 	0.52790 0.61813 0.95766 -0.28600
N 	N 	0.04560 0.73768 0.55806 -0.30500
N 	N 	0.18790 0.66870 0.57770 -0.28300
N 	N 	0.04630 0.60027 0.48263 -0.28900
N 	N 	0.02790 0.66047 0.61813 -0.28700
N 	N 	0.04560 0.82038 0.26232 -0.30500
N 	N 	0.18790 0.90900 0.33130 -0.28300
N 	N 	0.04630 0.88236 0.39973 -0.28900
N 	N 	0.02790 0.95766 0.33953 -0.28400
N 	N 	0.04560 0.44194 0.17962 -0.30500
N 	N 	0.18790 0.42230 0.09100 -0.28300
N 	N 	0.04630 0.51737 0.11764 -0.28900
N 	N 	0.02790 0.38187 0.04234 -0.28600
N 	N 	0.45440 0.82038 0.55806 -0.30600
N 	N 	0.31210 0.90900 0.57770 -0.28300
N 	N 	0.45370 0.88236 0.48263 -0.29000
N 	N 	0.47210 0.95766 0.61813 -0.28700
N 	N 	0.45440 0.44194 0.26232 -0.30600
N 	N 	0.31210 0.42230 0.33130 -0.28300
N 	N 	0.45370 0.51737 0.39973 -0.29000
N 	N 	0.47210 0.38187 0.33953 -0.28600
N 	N 	0.45440 0.73768 0.17962 -0.30600
N 	N 	0.31210 0.66870 0.09100 -0.28300
N 	N 	0.45370 0.60027 0.11764 -0.29000
N 	N 	0.47210 0.66047 0.04234 -0.28600
N 	N 	0.95440 0.17962 0.44194 -0.30700
N 	N 	0.81210 0.09100 0.42230 -0.28300
N 	N 	0.95370 0.11764 0.51737 -0.29100
N 	N 	0.97210 0.04234 0.38187 -0.28400
N 	N 	0.95440 0.55806 0.73768 -0.30700
N 	N 	0.81210 0.57770 0.66870 -0.28300
N 	N 	0.95370 0.48263 0.60027 -0.29100
N 	N 	0.97210 0.61813 0.66047 -0.28700
N 	N 	0.95440 0.26232 0.82038 -0.30700
N 	N 	0.81210 0.33130 0.90900 -0.28300
N 	N 	0.95370 0.39973 0.88236 -0.29100
N 	N 	0.97210 0.33953 0.95766 -0.28700
N 	N 	0.45440 0.73768 0.55806 -0.30600
N 	N 	0.31210 0.66870 0.57770 -0.28300
N 	N 	0.45370 0.60027 0.48263 -0.29000
N 	N 	0.47210 0.66047 0.61813 -0.28600
N 	N 	0.45440 0.82038 0.26232 -0.30600
N 	N 	0.31210 0.90900 0.33130 -0.28300
N 	N 	0.45370 0.88236 0.39973 -0.29000
N 	N 	0.47210 0.95766 0.33953 -0.28500
N 	N 	0.45440 0.44194 0.17962 -0.30600
N 	N 	0.31210 0.42230 0.09100 -0.28300
N 	N 	0.45370 0.51737 0.11764 -0.29000
N 	N 	0.47210 0.38187 0.04234 -0.28600
N 	N 	0.95440 0.26232 0.44194 -0.30700
N 	N 	0.81210 0.33130 0.42230 -0.28300
N 	N 	0.95370 0.39973 0.51737 -0.29100
N 	N 	0.97210 0.33953 0.38187 -0.28700
N 	N 	0.95440 0.17962 0.73768 -0.30700
N 	N 	0.81210 0.09100 0.66870 -0.28300
N 	N 	0.95370 0.11764 0.60027 -0.29100
N 	N 	0.97210 0.04234 0.66047 -0.28700
N 	N 	0.95440 0.55806 0.82038 -0.30700
N 	N 	0.81210 0.57770 0.90900 -0.28300
N 	N 	0.95370 0.48263 0.88236 -0.29100
N 	N 	0.97210 0.61813 0.95766 -0.28500
N 	N 	0.54560 0.17962 0.44194 -0.30600
N 	N 	0.68790 0.09100 0.42230 -0.28300
N 	N 	0.54630 0.11764 0.51737 -0.29000
N 	N 	0.52790 0.04234 0.38187 -0.28500
N 	N 	0.54560 0.55806 0.73768 -0.30600
N 	N 	0.68790 0.57770 0.66870 -0.28300
N 	N 	0.54630 0.48263 0.60027 -0.29000
N 	N 	0.52790 0.61813 0.66047 -0.28600
N 	N 	0.54560 0.26232 0.82038 -0.30600
N 	N 	0.68790 0.33130 0.90900 -0.28300
N 	N 	0.54630 0.39973 0.88236 -0.29000
N 	N 	0.52790 0.33953 0.95766 -0.28600
N 	N 	0.04560 0.82038 0.55806 -0.30500
N 	N 	0.18790 0.90900 0.57770 -0.28300
N 	N 	0.04630 0.88236 0.48263 -0.28900
N 	N 	0.02790 0.95766 0.61813 -0.28700
N 	N 	0.04560 0.44194 0.26232 -0.30500
N 	N 	0.18790 0.42230 0.33130 -0.28300
N 	N 	0.04630 0.51737 0.39973 -0.28900
N 	N 	0.02790 0.38187 0.33953 -0.28700
N 	N 	0.04560 0.73768 0.17962 -0.30500
N 	N 	0.18790 0.66870 0.09100 -0.28300
N 	N 	0.04630 0.60027 0.11764 -0.28900
N 	N 	0.02790 0.66047 0.04234 -0.28400
N 	N 	0.75000 0.33180 0.50120 -0.02600
N 	N 	0.75000 0.16940 0.66820 -0.02600
N 	N 	0.75000 0.49880 0.83060 -0.02600
N 	N 	0.25000 0.66820 0.49880 -0.02600
N 	N 	0.25000 0.83060 0.33180 -0.02600
N 	N 	0.25000 0.50120 0.16940 -0.02600
N 	N 	0.25000 0.83060 0.49880 -0.02600
N 	N 	0.25000 0.50120 0.33180 -0.02600
N 	N 	0.25000 0.66820 0.16940 -0.02600
N 	N 	0.75000 0.16940 0.50120 -0.02600
N 	N 	0.75000 0.49880 0.66820 -0.02600
N 	N 	0.75000 0.33180 0.83060 -0.02600
O 	O 	0.69030 0.33210 0.52250 -0.16700
O 	O 	0.69030 0.19040 0.66790 -0.16700
O 	O 	0.69030 0.47750 0.80960 -0.16700
O 	O 	0.19030 0.66790 0.47750 -0.16700
O 	O 	0.19030 0.80960 0.33210 -0.16700
O 	O 	0.19030 0.52250 0.19040 -0.16700
O 	O 	0.30970 0.80960 0.47750 -0.16700
O 	O 	0.30970 0.52250 0.33210 -0.16700
O 	O 	0.30970 0.66790 0.19040 -0.16700
O 	O 	0.80970 0.19040 0.52250 -0.16800
O 	O 	0.80970 0.47750 0.66790 -0.16700
O 	O 	0.80970 0.33210 0.80960 -0.16700
O 	O 	0.30970 0.66790 0.47750 -0.16700
O 	O 	0.30970 0.80960 0.33210 -0.16700
O 	O 	0.30970 0.52250 0.19040 -0.16700
O 	O 	0.80970 0.33210 0.52250 -0.16800
O 	O 	0.80970 0.19040 0.66790 -0.16800
O 	O 	0.80970 0.47750 0.80960 -0.16700
O 	O 	0.69030 0.19040 0.52250 -0.16700
O 	O 	0.69030 0.47750 0.66790 -0.16700
O 	O 	0.69030 0.33210 0.80960 -0.16700
O 	O 	0.19030 0.80960 0.47750 -0.16700
O 	O 	0.19030 0.52250 0.33210 -0.16700
O 	O 	0.19030 0.66790 0.19040 -0.16700
