data_crystal

_cell_length_a 26.08400
_cell_length_b 26.08400
_cell_length_c 19.40820
_cell_angle_alpha 90.00000
_cell_angle_beta  90.00000
_cell_angle_gamma 120.00000

_symmetry_space_group_name_	'P 1'
_symmetry_space_group_name_H-M	'P 1'

loop_
_symmetry_equiv_pos_as_xyz
  x,y,z

loop_
_atom_site_label
_atom_site_type_symbol
_atom_site_fract_x
_atom_site_fract_y
_atom_site_fract_z
_atom_site_charge
Zn	Zn	0.43519 0.33203 0.40422 1.19500
N 	N 	0.37840 0.33490 0.47690 -0.10500
N 	N 	0.37310 0.34170 0.45080 -0.18100
C 	C 	0.31760 0.29530 0.47590 0.03600
C 	C 	0.22860 0.20500 0.47450 -0.18700
H 	H 	0.20480 0.16580 0.45750 0.64800
C 	C 	0.28460 0.23920 0.45160 0.04300
H 	H 	0.30080 0.22420 0.41890 0.02400
Cl	Cl	0.17840 0.13480 0.45600 -0.69000
Cl	Cl	0.16060 0.16140 0.39700 0.07600
N 	N 	0.51560 0.39830 0.42970 -0.27300
O 	O 	0.46720 0.45230 0.37700 -0.12000
O 	O 	0.47550 0.44190 0.31600 -0.07800
C 	C 	0.53000 0.40600 0.50800 -0.03800
H 	H 	0.50800 0.38130 0.54570 0.04600
C 	C 	0.55650 0.38840 0.46690 0.01700
H 	H 	0.54900 0.35240 0.48780 0.02100
N 	N 	0.40560 0.32230 0.30900 -0.27100
O 	O 	0.50990 0.32500 0.30520 -0.16500
C 	C 	0.35640 0.32180 0.28660 0.03000
H 	H 	0.32670 0.32150 0.31510 0.05900
N 	N 	0.43130 0.25890 0.43960 -0.28300
C 	C 	0.42520 0.23930 0.50590 0.05400
C 	C 	0.42180 0.23530 0.62580 -0.05100
H 	H 	0.42430 0.25300 0.66940 0.22700
C 	C 	0.41830 0.26660 0.56490 -0.05200
H 	H 	0.41250 0.29980 0.56510 0.06400
Cl	Cl	0.40550 0.27930 0.69760 -0.32600
Zn	Zn	0.66797 0.10316 0.40422 1.19400
N 	N 	0.66510 0.04350 0.47690 -0.10300
N 	N 	0.65830 0.03140 0.45080 -0.18100
C 	C 	0.70470 0.02230 0.47590 0.02300
C 	C 	0.79500 0.02360 0.47450 -0.22200
H 	H 	0.83420 0.03900 0.45750 0.67900
C 	C 	0.76080 0.04540 0.45160 0.06600
H 	H 	0.77580 0.07660 0.41890 0.01600
Cl	Cl	0.86520 0.04360 0.45600 -0.72600
Cl	Cl	0.83860 0.99920 0.39700 0.08200
N 	N 	0.60170 0.11730 0.42970 -0.27300
O 	O 	0.54770 0.01490 0.37700 -0.12100
O 	O 	0.55810 0.03360 0.31600 -0.07800
C 	C 	0.59400 0.12400 0.50800 -0.03800
H 	H 	0.61870 0.12670 0.54570 0.04600
C 	C 	0.61160 0.16810 0.46690 0.01700
H 	H 	0.64760 0.19660 0.48780 0.02100
N 	N 	0.67770 0.08330 0.30900 -0.27100
O 	O 	0.67500 0.18490 0.30520 -0.16500
C 	C 	0.67820 0.03460 0.28660 0.03000
H 	H 	0.67850 0.00520 0.31510 0.05800
N 	N 	0.74110 0.17240 0.43960 -0.28300
C 	C 	0.76070 0.18590 0.50590 0.05400
C 	C 	0.76470 0.18650 0.62580 -0.05100
H 	H 	0.74700 0.17130 0.66940 0.22800
C 	C 	0.73340 0.15170 0.56490 -0.05200
H 	H 	0.70020 0.11270 0.56510 0.06400
Cl	Cl	0.72070 0.12620 0.69760 -0.32600
Zn	Zn	0.89684 0.56481 0.40422 1.19400
N 	N 	0.95650 0.62160 0.47690 -0.10800
N 	N 	0.96860 0.62690 0.45080 -0.18300
C 	C 	0.97770 0.68240 0.47590 0.07100
C 	C 	0.97640 0.77140 0.47450 -0.09300
H 	H 	0.96100 0.79520 0.45750 0.57900
C 	C 	0.95460 0.71540 0.45160 -0.01900
H 	H 	0.92340 0.69920 0.41890 0.04500
Cl	Cl	0.95640 0.82160 0.45600 -0.62400
Cl	Cl	0.00080 0.83940 0.39700 0.06000
N 	N 	0.88270 0.48440 0.42970 -0.27300
O 	O 	0.98510 0.53280 0.37700 -0.12000
O 	O 	0.96640 0.52450 0.31600 -0.07800
C 	C 	0.87600 0.47000 0.50800 -0.03800
H 	H 	0.87330 0.49200 0.54570 0.04700
C 	C 	0.83190 0.44350 0.46690 0.01700
H 	H 	0.80340 0.45100 0.48780 0.02100
N 	N 	0.91670 0.59440 0.30900 -0.27200
O 	O 	0.81510 0.49010 0.30520 -0.16500
C 	C 	0.96540 0.64360 0.28660 0.03000
H 	H 	0.99480 0.67330 0.31510 0.05900
N 	N 	0.82760 0.56870 0.43960 -0.28400
C 	C 	0.81410 0.57480 0.50590 0.05400
C 	C 	0.81350 0.57820 0.62580 -0.05000
H 	H 	0.82870 0.57570 0.66940 0.22700
C 	C 	0.84830 0.58170 0.56490 -0.05200
H 	H 	0.88730 0.58750 0.56510 0.06400
Cl	Cl	0.87380 0.59450 0.69760 -0.32600
Zn	Zn	0.56481 0.66797 0.90422 1.19400
N 	N 	0.62160 0.66510 0.97690 -0.10500
N 	N 	0.62690 0.65830 0.95080 -0.18300
C 	C 	0.68240 0.70470 0.97590 0.06500
C 	C 	0.77140 0.79500 0.97450 -0.12000
H 	H 	0.79520 0.83420 0.95750 0.60600
C 	C 	0.71540 0.76080 0.95160 -0.00200
H 	H 	0.69920 0.77580 0.91890 0.03900
Cl	Cl	0.82160 0.86520 0.95600 -0.65800
Cl	Cl	0.83940 0.83860 0.89700 0.06900
N 	N 	0.48440 0.60170 0.92970 -0.27200
O 	O 	0.53280 0.54770 0.87700 -0.11900
O 	O 	0.52450 0.55810 0.81600 -0.07800
C 	C 	0.47000 0.59400 0.00800 -0.04300
H 	H 	0.49200 0.61870 0.04570 0.04700
C 	C 	0.44350 0.61160 0.96690 0.02000
H 	H 	0.45100 0.64760 0.98780 0.02100
N 	N 	0.59440 0.67770 0.80900 -0.27200
O 	O 	0.49010 0.67500 0.80520 -0.16500
C 	C 	0.64360 0.67820 0.78660 0.03000
H 	H 	0.67330 0.67850 0.81510 0.05900
N 	N 	0.56870 0.74110 0.93960 -0.28200
C 	C 	0.57480 0.76070 0.00590 0.05200
C 	C 	0.57820 0.76470 0.12580 -0.05100
H 	H 	0.57570 0.74700 0.16940 0.22800
C 	C 	0.58170 0.73340 0.06490 -0.05200
H 	H 	0.58750 0.70020 0.06510 0.06300
Cl	Cl	0.59450 0.72070 0.19760 -0.32600
Zn	Zn	0.33203 0.89684 0.90422 1.19400
N 	N 	0.33490 0.95650 0.97690 -0.10500
N 	N 	0.34170 0.96860 0.95080 -0.18400
C 	C 	0.29530 0.97770 0.97590 0.06900
C 	C 	0.20500 0.97640 0.97450 -0.10400
H 	H 	0.16580 0.96100 0.95750 0.58700
C 	C 	0.23920 0.95460 0.95160 -0.01200
H 	H 	0.22420 0.92340 0.91890 0.04300
Cl	Cl	0.13480 0.95640 0.95600 -0.63000
Cl	Cl	0.16140 0.00080 0.89700 0.06500
N 	N 	0.39830 0.88270 0.92970 -0.27200
O 	O 	0.45230 0.98510 0.87700 -0.12000
O 	O 	0.44190 0.96640 0.81600 -0.07800
C 	C 	0.40600 0.87600 0.00800 -0.04300
H 	H 	0.38130 0.87330 0.04570 0.04700
C 	C 	0.38840 0.83190 0.96690 0.02000
H 	H 	0.35240 0.80340 0.98780 0.02100
N 	N 	0.32230 0.91670 0.80900 -0.27200
O 	O 	0.32500 0.81510 0.80520 -0.16500
C 	C 	0.32180 0.96540 0.78660 0.03000
H 	H 	0.32150 0.99480 0.81510 0.05900
N 	N 	0.25890 0.82760 0.93960 -0.28200
C 	C 	0.23930 0.81410 0.00590 0.05200
C 	C 	0.23530 0.81350 0.12580 -0.05100
H 	H 	0.25300 0.82870 0.16940 0.22800
C 	C 	0.26660 0.84830 0.06490 -0.05200
H 	H 	0.29980 0.88730 0.06510 0.06300
Cl	Cl	0.27930 0.87380 0.19760 -0.32600
Zn	Zn	0.10316 0.43519 0.90422 1.19400
N 	N 	0.04350 0.37840 0.97690 -0.10100
N 	N 	0.03140 0.37310 0.95080 -0.18200
C 	C 	0.02230 0.31760 0.97590 0.03900
C 	C 	0.02360 0.22860 0.97450 -0.18700
H 	H 	0.03900 0.20480 0.95750 0.65300
C 	C 	0.04540 0.28460 0.95160 0.04300
H 	H 	0.07660 0.30080 0.91890 0.02400
Cl	Cl	0.04360 0.17840 0.95600 -0.70100
Cl	Cl	0.99920 0.16060 0.89700 0.07800
N 	N 	0.11730 0.51560 0.92970 -0.27200
O 	O 	0.01490 0.46720 0.87700 -0.12000
O 	O 	0.03360 0.47550 0.81600 -0.07900
C 	C 	0.12400 0.53000 0.00800 -0.04300
H 	H 	0.12670 0.50800 0.04570 0.04700
C 	C 	0.16810 0.55650 0.96690 0.02000
H 	H 	0.19660 0.54900 0.98780 0.02100
N 	N 	0.08330 0.40560 0.80900 -0.27100
O 	O 	0.18490 0.50990 0.80520 -0.16500
C 	C 	0.03460 0.35640 0.78660 0.03000
H 	H 	0.00520 0.32670 0.81510 0.05800
N 	N 	0.17240 0.43130 0.93960 -0.28200
C 	C 	0.18590 0.42520 0.00590 0.05100
C 	C 	0.18650 0.42180 0.12580 -0.05100
H 	H 	0.17130 0.42430 0.16940 0.22800
C 	C 	0.15170 0.41830 0.06490 -0.05200
H 	H 	0.11270 0.41250 0.06510 0.06300
Cl	Cl	0.12620 0.40550 0.19760 -0.32700
Zn	Zn	0.33203 0.43519 0.59578 1.19400
N 	N 	0.33490 0.37840 0.52310 -0.10600
N 	N 	0.34170 0.37310 0.54920 -0.18200
C 	C 	0.29530 0.31760 0.52410 0.04700
C 	C 	0.20500 0.22860 0.52550 -0.15600
H 	H 	0.16580 0.20480 0.54250 0.62300
C 	C 	0.23920 0.28460 0.54840 0.02300
H 	H 	0.22420 0.30080 0.58110 0.03100
Cl	Cl	0.13480 0.17840 0.54400 -0.66400
Cl	Cl	0.16140 0.16060 0.60300 0.07100
N 	N 	0.39830 0.51560 0.57030 -0.27300
O 	O 	0.45230 0.46720 0.62300 -0.12000
O 	O 	0.44190 0.47550 0.68400 -0.07800
C 	C 	0.40600 0.53000 0.49200 -0.03800
H 	H 	0.38130 0.50800 0.45430 0.04600
C 	C 	0.38840 0.55650 0.53310 0.01700
H 	H 	0.35240 0.54900 0.51220 0.02100
N 	N 	0.32230 0.40560 0.69100 -0.27200
O 	O 	0.32500 0.50990 0.69480 -0.16500
C 	C 	0.32180 0.35640 0.71340 0.03000
H 	H 	0.32150 0.32670 0.68490 0.05900
N 	N 	0.25890 0.43130 0.56040 -0.28400
C 	C 	0.23930 0.42520 0.49410 0.05400
C 	C 	0.23530 0.42180 0.37420 -0.05100
H 	H 	0.25300 0.42430 0.33060 0.22700
C 	C 	0.26660 0.41830 0.43510 -0.05200
H 	H 	0.29980 0.41250 0.43490 0.06400
Cl	Cl	0.27930 0.40550 0.30240 -0.32600
Zn	Zn	0.10316 0.66797 0.59578 1.19400
N 	N 	0.04350 0.66510 0.52310 -0.10100
N 	N 	0.03140 0.65830 0.54920 -0.18000
C 	C 	0.02230 0.70470 0.52410 0.01100
C 	C 	0.02360 0.79500 0.52550 -0.25300
H 	H 	0.03900 0.83420 0.54250 0.70000
C 	C 	0.04540 0.76080 0.54840 0.08700
H 	H 	0.07660 0.77580 0.58110 0.00900
Cl	Cl	0.04360 0.86520 0.54400 -0.74400
Cl	Cl	0.99920 0.83860 0.60300 0.08700
N 	N 	0.11730 0.60170 0.57030 -0.27300
O 	O 	0.01490 0.54770 0.62300 -0.12100
O 	O 	0.03360 0.55810 0.68400 -0.07800
C 	C 	0.12400 0.59400 0.49200 -0.03900
H 	H 	0.12670 0.61870 0.45430 0.04600
C 	C 	0.16810 0.61160 0.53310 0.01700
H 	H 	0.19660 0.64760 0.51220 0.02000
N 	N 	0.08330 0.67770 0.69100 -0.27100
O 	O 	0.18490 0.67500 0.69480 -0.16500
C 	C 	0.03460 0.67820 0.71340 0.03000
H 	H 	0.00520 0.67850 0.68490 0.05800
N 	N 	0.17240 0.74110 0.56040 -0.28300
C 	C 	0.18590 0.76070 0.49410 0.05400
C 	C 	0.18650 0.76470 0.37420 -0.05100
H 	H 	0.17130 0.74700 0.33060 0.22800
C 	C 	0.15170 0.73340 0.43510 -0.05200
H 	H 	0.11270 0.70020 0.43490 0.06400
Cl	Cl	0.12620 0.72070 0.30240 -0.32700
Zn	Zn	0.56481 0.89684 0.59578 1.19400
N 	N 	0.62160 0.95650 0.52310 -0.10700
N 	N 	0.62690 0.96860 0.54920 -0.18200
C 	C 	0.68240 0.97770 0.52410 0.05900
C 	C 	0.77140 0.97640 0.52550 -0.12700
H 	H 	0.79520 0.96100 0.54250 0.60600
C 	C 	0.71540 0.95460 0.54840 0.00400
H 	H 	0.69920 0.92340 0.58110 0.03700
Cl	Cl	0.82160 0.95640 0.54400 -0.65200
Cl	Cl	0.83940 0.00080 0.60300 0.06600
N 	N 	0.48440 0.88270 0.57030 -0.27300
O 	O 	0.53280 0.98510 0.62300 -0.12000
O 	O 	0.52450 0.96640 0.68400 -0.07800
C 	C 	0.47000 0.87600 0.49200 -0.03800
H 	H 	0.49200 0.87330 0.45430 0.04600
C 	C 	0.44350 0.83190 0.53310 0.01700
H 	H 	0.45100 0.80340 0.51220 0.02100
N 	N 	0.59440 0.91670 0.69100 -0.27200
O 	O 	0.49010 0.81510 0.69480 -0.16500
C 	C 	0.64360 0.96540 0.71340 0.03000
H 	H 	0.67330 0.99480 0.68490 0.05900
N 	N 	0.56870 0.82760 0.56040 -0.28400
C 	C 	0.57480 0.81410 0.49410 0.05400
C 	C 	0.57820 0.81350 0.37420 -0.05100
H 	H 	0.57570 0.82870 0.33060 0.22700
C 	C 	0.58170 0.84830 0.43510 -0.05200
H 	H 	0.58750 0.88730 0.43490 0.06400
Cl	Cl	0.59450 0.87380 0.30240 -0.32600
Zn	Zn	0.66797 0.56481 0.09578 1.19400
N 	N 	0.66510 0.62160 0.02310 -0.10300
N 	N 	0.65830 0.62690 0.04920 -0.17900
C 	C 	0.70470 0.68240 0.02410 0.01700
C 	C 	0.79500 0.77140 0.02550 -0.23100
H 	H 	0.83420 0.79520 0.04250 0.68400
C 	C 	0.76080 0.71540 0.04840 0.07200
H 	H 	0.77580 0.69920 0.08110 0.01400
Cl	Cl	0.86520 0.82160 0.04400 -0.72900
Cl	Cl	0.83860 0.83940 0.10300 0.08100
N 	N 	0.60170 0.48440 0.07030 -0.27300
O 	O 	0.54770 0.53280 0.12300 -0.12000
O 	O 	0.55810 0.52450 0.18400 -0.07800
C 	C 	0.59400 0.47000 0.99200 -0.03400
H 	H 	0.61870 0.49200 0.95430 0.04600
C 	C 	0.61160 0.44350 0.03310 0.01400
H 	H 	0.64760 0.45100 0.01220 0.02000
N 	N 	0.67770 0.59440 0.19100 -0.27100
O 	O 	0.67500 0.49010 0.19480 -0.16500
C 	C 	0.67820 0.64360 0.21340 0.03000
H 	H 	0.67850 0.67330 0.18490 0.05900
N 	N 	0.74110 0.56870 0.06040 -0.28500
C 	C 	0.76070 0.57480 0.99410 0.05700
C 	C 	0.76470 0.57820 0.87420 -0.05100
H 	H 	0.74700 0.57570 0.83060 0.22700
C 	C 	0.73340 0.58170 0.93510 -0.05300
H 	H 	0.70020 0.58750 0.93490 0.06500
Cl	Cl	0.72070 0.59450 0.80240 -0.32600
Zn	Zn	0.89684 0.33203 0.09578 1.19400
N 	N 	0.95650 0.33490 0.02310 -0.10500
N 	N 	0.96860 0.34170 0.04920 -0.18100
C 	C 	0.97770 0.29530 0.02410 0.04400
C 	C 	0.97640 0.20500 0.02550 -0.15700
H 	H 	0.96100 0.16580 0.04250 0.62200
C 	C 	0.95460 0.23920 0.04840 0.02500
H 	H 	0.92340 0.22420 0.08110 0.03100
Cl	Cl	0.95640 0.13480 0.04400 -0.66000
Cl	Cl	0.00080 0.16140 0.10300 0.06700
N 	N 	0.88270 0.39830 0.07030 -0.27300
O 	O 	0.98510 0.45230 0.12300 -0.12000
O 	O 	0.96640 0.44190 0.18400 -0.07800
C 	C 	0.87600 0.40600 0.99200 -0.03400
H 	H 	0.87330 0.38130 0.95430 0.04600
C 	C 	0.83190 0.38840 0.03310 0.01400
H 	H 	0.80340 0.35240 0.01220 0.02000
N 	N 	0.91670 0.32230 0.19100 -0.27200
O 	O 	0.81510 0.32500 0.19480 -0.16500
C 	C 	0.96540 0.32180 0.21340 0.03000
H 	H 	0.99480 0.32150 0.18490 0.05900
N 	N 	0.82760 0.25890 0.06040 -0.28500
C 	C 	0.81410 0.23930 0.99410 0.05700
C 	C 	0.81350 0.23530 0.87420 -0.05000
H 	H 	0.82870 0.25300 0.83060 0.22700
C 	C 	0.84830 0.26660 0.93510 -0.05300
H 	H 	0.88730 0.29980 0.93490 0.06500
Cl	Cl	0.87380 0.27930 0.80240 -0.32500
Zn	Zn	0.43519 0.10316 0.09578 1.19400
N 	N 	0.37840 0.04350 0.02310 -0.10300
N 	N 	0.37310 0.03140 0.04920 -0.17900
C 	C 	0.31760 0.02230 0.02410 0.01300
C 	C 	0.22860 0.02360 0.02550 -0.23800
H 	H 	0.20480 0.03900 0.04250 0.68300
C 	C 	0.28460 0.04540 0.04840 0.07800
H 	H 	0.30080 0.07660 0.08110 0.01300
Cl	Cl	0.17840 0.04360 0.04400 -0.72000
Cl	Cl	0.16060 0.99920 0.10300 0.08000
N 	N 	0.51560 0.11730 0.07030 -0.27300
O 	O 	0.46720 0.01490 0.12300 -0.12100
O 	O 	0.47550 0.03360 0.18400 -0.07800
C 	C 	0.53000 0.12400 0.99200 -0.03400
H 	H 	0.50800 0.12670 0.95430 0.04600
C 	C 	0.55650 0.16810 0.03310 0.01400
H 	H 	0.54900 0.19660 0.01220 0.02000
N 	N 	0.40560 0.08330 0.19100 -0.27100
O 	O 	0.50990 0.18490 0.19480 -0.16500
C 	C 	0.35640 0.03460 0.21340 0.03100
H 	H 	0.32670 0.00520 0.18490 0.05800
N 	N 	0.43130 0.17240 0.06040 -0.28500
C 	C 	0.42520 0.18590 0.99410 0.05700
C 	C 	0.42180 0.18650 0.87420 -0.05000
H 	H 	0.42430 0.17130 0.83060 0.22700
C 	C 	0.41830 0.15170 0.93510 -0.05300
H 	H 	0.41250 0.11270 0.93490 0.06500
Cl	Cl	0.40550 0.12620 0.80240 -0.32600
Zn	Zn	0.56481 0.66797 0.59578 1.19400
N 	N 	0.62160 0.66510 0.52310 -0.10600
N 	N 	0.62690 0.65830 0.54920 -0.18200
C 	C 	0.68240 0.70470 0.52410 0.04600
C 	C 	0.77140 0.79500 0.52550 -0.16000
H 	H 	0.79520 0.83420 0.54250 0.63300
C 	C 	0.71540 0.76080 0.54840 0.02500
H 	H 	0.69920 0.77580 0.58110 0.03000
Cl	Cl	0.82160 0.86520 0.54400 -0.68100
Cl	Cl	0.83940 0.83860 0.60300 0.07300
N 	N 	0.48440 0.60170 0.57030 -0.27300
O 	O 	0.53280 0.54770 0.62300 -0.12000
O 	O 	0.52450 0.55810 0.68400 -0.07800
C 	C 	0.47000 0.59400 0.49200 -0.03800
H 	H 	0.49200 0.61870 0.45430 0.04600
C 	C 	0.44350 0.61160 0.53310 0.01700
H 	H 	0.45100 0.64760 0.51220 0.02100
N 	N 	0.59440 0.67770 0.69100 -0.27200
O 	O 	0.49010 0.67500 0.69480 -0.16500
C 	C 	0.64360 0.67820 0.71340 0.03000
H 	H 	0.67330 0.67850 0.68490 0.05900
N 	N 	0.56870 0.74110 0.56040 -0.28400
C 	C 	0.57480 0.76070 0.49410 0.05400
C 	C 	0.57820 0.76470 0.37420 -0.05100
H 	H 	0.57570 0.74700 0.33060 0.22800
C 	C 	0.58170 0.73340 0.43510 -0.05200
H 	H 	0.58750 0.70020 0.43490 0.06400
Cl	Cl	0.59450 0.72070 0.30240 -0.32600
Zn	Zn	0.33203 0.89684 0.59578 1.19400
N 	N 	0.33490 0.95650 0.52310 -0.10600
N 	N 	0.34170 0.96860 0.54920 -0.18200
C 	C 	0.29530 0.97770 0.52410 0.05000
C 	C 	0.20500 0.97640 0.52550 -0.14700
H 	H 	0.16580 0.96100 0.54250 0.61600
C 	C 	0.23920 0.95460 0.54840 0.01800
H 	H 	0.22420 0.92340 0.58110 0.03300
Cl	Cl	0.13480 0.95640 0.54400 -0.65500
Cl	Cl	0.16140 0.00080 0.60300 0.06900
N 	N 	0.39830 0.88270 0.57030 -0.27300
O 	O 	0.45230 0.98510 0.62300 -0.12000
O 	O 	0.44190 0.96640 0.68400 -0.07800
C 	C 	0.40600 0.87600 0.49200 -0.03800
H 	H 	0.38130 0.87330 0.45430 0.04600
C 	C 	0.38840 0.83190 0.53310 0.01700
H 	H 	0.35240 0.80340 0.51220 0.02100
N 	N 	0.32230 0.91670 0.69100 -0.27200
O 	O 	0.32500 0.81510 0.69480 -0.16500
C 	C 	0.32180 0.96540 0.71340 0.03000
H 	H 	0.32150 0.99480 0.68490 0.05900
N 	N 	0.25890 0.82760 0.56040 -0.28400
C 	C 	0.23930 0.81410 0.49410 0.05400
C 	C 	0.23530 0.81350 0.37420 -0.05100
H 	H 	0.25300 0.82870 0.33060 0.22700
C 	C 	0.26660 0.84830 0.43510 -0.05200
H 	H 	0.29980 0.88730 0.43490 0.06400
Cl	Cl	0.27930 0.87380 0.30240 -0.32600
Zn	Zn	0.10316 0.43519 0.59578 1.19400
N 	N 	0.04350 0.37840 0.52310 -0.10300
N 	N 	0.03140 0.37310 0.54920 -0.18100
C 	C 	0.02230 0.31760 0.52410 0.02000
C 	C 	0.02360 0.22860 0.52550 -0.22800
H 	H 	0.03900 0.20480 0.54250 0.68100
C 	C 	0.04540 0.28460 0.54840 0.07100
H 	H 	0.07660 0.30080 0.58110 0.01500
Cl	Cl	0.04360 0.17840 0.54400 -0.72400
Cl	Cl	0.99920 0.16060 0.60300 0.08200
N 	N 	0.11730 0.51560 0.57030 -0.27300
O 	O 	0.01490 0.46720 0.62300 -0.12100
O 	O 	0.03360 0.47550 0.68400 -0.07800
C 	C 	0.12400 0.53000 0.49200 -0.03900
H 	H 	0.12670 0.50800 0.45430 0.04600
C 	C 	0.16810 0.55650 0.53310 0.01700
H 	H 	0.19660 0.54900 0.51220 0.02000
N 	N 	0.08330 0.40560 0.69100 -0.27100
O 	O 	0.18490 0.50990 0.69480 -0.16500
C 	C 	0.03460 0.35640 0.71340 0.03000
H 	H 	0.00520 0.32670 0.68490 0.05800
N 	N 	0.17240 0.43130 0.56040 -0.28300
C 	C 	0.18590 0.42520 0.49410 0.05400
C 	C 	0.18650 0.42180 0.37420 -0.05100
H 	H 	0.17130 0.42430 0.33060 0.22800
C 	C 	0.15170 0.41830 0.43510 -0.05200
H 	H 	0.11270 0.41250 0.43490 0.06400
Cl	Cl	0.12620 0.40550 0.30240 -0.32600
Zn	Zn	0.43519 0.33203 0.09578 1.19400
N 	N 	0.37840 0.33490 0.02310 -0.10300
N 	N 	0.37310 0.34170 0.04920 -0.17900
C 	C 	0.31760 0.29530 0.02410 0.01600
C 	C 	0.22860 0.20500 0.02550 -0.23200
H 	H 	0.20480 0.16580 0.04250 0.67800
C 	C 	0.28460 0.23920 0.04840 0.07400
H 	H 	0.30080 0.22420 0.08110 0.01400
Cl	Cl	0.17840 0.13480 0.04400 -0.71500
Cl	Cl	0.16060 0.16140 0.10300 0.08000
N 	N 	0.51560 0.39830 0.07030 -0.27300
O 	O 	0.46720 0.45230 0.12300 -0.12000
O 	O 	0.47550 0.44190 0.18400 -0.07800
C 	C 	0.53000 0.40600 0.99200 -0.03400
H 	H 	0.50800 0.38130 0.95430 0.04600
C 	C 	0.55650 0.38840 0.03310 0.01400
H 	H 	0.54900 0.35240 0.01220 0.02000
N 	N 	0.40560 0.32230 0.19100 -0.27100
O 	O 	0.50990 0.32500 0.19480 -0.16500
C 	C 	0.35640 0.32180 0.21340 0.03100
H 	H 	0.32670 0.32150 0.18490 0.05900
N 	N 	0.43130 0.25890 0.06040 -0.28500
C 	C 	0.42520 0.23930 0.99410 0.05700
C 	C 	0.42180 0.23530 0.87420 -0.05000
H 	H 	0.42430 0.25300 0.83060 0.22700
C 	C 	0.41830 0.26660 0.93510 -0.05300
H 	H 	0.41250 0.29980 0.93490 0.06500
Cl	Cl	0.40550 0.27930 0.80240 -0.32600
Zn	Zn	0.66797 0.10316 0.09578 1.19400
N 	N 	0.66510 0.04350 0.02310 -0.10200
N 	N 	0.65830 0.03140 0.04920 -0.17900
C 	C 	0.70470 0.02230 0.02410 0.00600
C 	C 	0.79500 0.02360 0.02550 -0.26000
H 	H 	0.83420 0.03900 0.04250 0.70400
C 	C 	0.76080 0.04540 0.04840 0.09200
H 	H 	0.77580 0.07660 0.08110 0.00700
Cl	Cl	0.86520 0.04360 0.04400 -0.74700
Cl	Cl	0.83860 0.99920 0.10300 0.08500
N 	N 	0.60170 0.11730 0.07030 -0.27300
O 	O 	0.54770 0.01490 0.12300 -0.12100
O 	O 	0.55810 0.03360 0.18400 -0.07800
C 	C 	0.59400 0.12400 0.99200 -0.03400
H 	H 	0.61870 0.12670 0.95430 0.04600
C 	C 	0.61160 0.16810 0.03310 0.01400
H 	H 	0.64760 0.19660 0.01220 0.02000
N 	N 	0.67770 0.08330 0.19100 -0.27100
O 	O 	0.67500 0.18490 0.19480 -0.16500
C 	C 	0.67820 0.03460 0.21340 0.03000
H 	H 	0.67850 0.00520 0.18490 0.05800
N 	N 	0.74110 0.17240 0.06040 -0.28500
C 	C 	0.76070 0.18590 0.99410 0.05700
C 	C 	0.76470 0.18650 0.87420 -0.05100
H 	H 	0.74700 0.17130 0.83060 0.22700
C 	C 	0.73340 0.15170 0.93510 -0.05300
H 	H 	0.70020 0.11270 0.93490 0.06500
Cl	Cl	0.72070 0.12620 0.80240 -0.32600
Zn	Zn	0.89684 0.56481 0.09578 1.19400
N 	N 	0.95650 0.62160 0.02310 -0.10600
N 	N 	0.96860 0.62690 0.04920 -0.18100
C 	C 	0.97770 0.68240 0.02410 0.05200
C 	C 	0.97640 0.77140 0.02550 -0.13600
H 	H 	0.96100 0.79520 0.04250 0.60800
C 	C 	0.95460 0.71540 0.04840 0.01000
H 	H 	0.92340 0.69920 0.08110 0.03500
Cl	Cl	0.95640 0.82160 0.04400 -0.64800
Cl	Cl	0.00080 0.83940 0.10300 0.06400
N 	N 	0.88270 0.48440 0.07030 -0.27300
O 	O 	0.98510 0.53280 0.12300 -0.12000
O 	O 	0.96640 0.52450 0.18400 -0.07800
C 	C 	0.87600 0.47000 0.99200 -0.03400
H 	H 	0.87330 0.49200 0.95430 0.04600
C 	C 	0.83190 0.44350 0.03310 0.01400
H 	H 	0.80340 0.45100 0.01220 0.02000
N 	N 	0.91670 0.59440 0.19100 -0.27200
O 	O 	0.81510 0.49010 0.19480 -0.16500
C 	C 	0.96540 0.64360 0.21340 0.03000
H 	H 	0.99480 0.67330 0.18490 0.05900
N 	N 	0.82760 0.56870 0.06040 -0.28500
C 	C 	0.81410 0.57480 0.99410 0.05700
C 	C 	0.81350 0.57820 0.87420 -0.05000
H 	H 	0.82870 0.57570 0.83060 0.22700
C 	C 	0.84830 0.58170 0.93510 -0.05300
H 	H 	0.88730 0.58750 0.93490 0.06500
Cl	Cl	0.87380 0.59450 0.80240 -0.32500
Zn	Zn	0.66797 0.56481 0.40422 1.19400
N 	N 	0.66510 0.62160 0.47690 -0.10500
N 	N 	0.65830 0.62690 0.45080 -0.18100
C 	C 	0.70470 0.68240 0.47590 0.03500
C 	C 	0.79500 0.77140 0.47450 -0.19100
H 	H 	0.83420 0.79520 0.45750 0.65800
C 	C 	0.76080 0.71540 0.45160 0.04600
H 	H 	0.77580 0.69920 0.41890 0.02300
Cl	Cl	0.86520 0.82160 0.45600 -0.70700
Cl	Cl	0.83860 0.83940 0.39700 0.07800
N 	N 	0.60170 0.48440 0.42970 -0.27300
O 	O 	0.54770 0.53280 0.37700 -0.12000
O 	O 	0.55810 0.52450 0.31600 -0.07800
C 	C 	0.59400 0.47000 0.50800 -0.03800
H 	H 	0.61870 0.49200 0.54570 0.04600
C 	C 	0.61160 0.44350 0.46690 0.01700
H 	H 	0.64760 0.45100 0.48780 0.02100
N 	N 	0.67770 0.59440 0.30900 -0.27100
O 	O 	0.67500 0.49010 0.30520 -0.16500
C 	C 	0.67820 0.64360 0.28660 0.03000
H 	H 	0.67850 0.67330 0.31510 0.05900
N 	N 	0.74110 0.56870 0.43960 -0.28300
C 	C 	0.76070 0.57480 0.50590 0.05400
C 	C 	0.76470 0.57820 0.62580 -0.05100
H 	H 	0.74700 0.57570 0.66940 0.22800
C 	C 	0.73340 0.58170 0.56490 -0.05200
H 	H 	0.70020 0.58750 0.56510 0.06400
Cl	Cl	0.72070 0.59450 0.69760 -0.32600
Zn	Zn	0.89684 0.33203 0.40422 1.19400
N 	N 	0.95650 0.33490 0.47690 -0.10700
N 	N 	0.96860 0.34170 0.45080 -0.18200
C 	C 	0.97770 0.29530 0.47590 0.06200
C 	C 	0.97640 0.20500 0.47450 -0.11600
H 	H 	0.96100 0.16580 0.45750 0.59500
C 	C 	0.95460 0.23920 0.45160 -0.00300
H 	H 	0.92340 0.22420 0.41890 0.04000
Cl	Cl	0.95640 0.13480 0.45600 -0.63700
Cl	Cl	0.00080 0.16140 0.39700 0.06400
N 	N 	0.88270 0.39830 0.42970 -0.27300
O 	O 	0.98510 0.45230 0.37700 -0.12000
O 	O 	0.96640 0.44190 0.31600 -0.07800
C 	C 	0.87600 0.40600 0.50800 -0.03800
H 	H 	0.87330 0.38130 0.54570 0.04700
C 	C 	0.83190 0.38840 0.46690 0.01700
H 	H 	0.80340 0.35240 0.48780 0.02100
N 	N 	0.91670 0.32230 0.30900 -0.27200
O 	O 	0.81510 0.32500 0.30520 -0.16500
C 	C 	0.96540 0.32180 0.28660 0.03000
H 	H 	0.99480 0.32150 0.31510 0.05900
N 	N 	0.82760 0.25890 0.43960 -0.28400
C 	C 	0.81410 0.23930 0.50590 0.05400
C 	C 	0.81350 0.23530 0.62580 -0.05000
H 	H 	0.82870 0.25300 0.66940 0.22700
C 	C 	0.84830 0.26660 0.56490 -0.05200
H 	H 	0.88730 0.29980 0.56510 0.06400
Cl	Cl	0.87380 0.27930 0.69760 -0.32600
Zn	Zn	0.43519 0.10316 0.40422 1.19400
N 	N 	0.37840 0.04350 0.47690 -0.10400
N 	N 	0.37310 0.03140 0.45080 -0.18100
C 	C 	0.31760 0.02230 0.47590 0.03300
C 	C 	0.22860 0.02360 0.47450 -0.19500
H 	H 	0.20480 0.03900 0.45750 0.65400
C 	C 	0.28460 0.04540 0.45160 0.04900
H 	H 	0.30080 0.07660 0.41890 0.02200
Cl	Cl	0.17840 0.04360 0.45600 -0.69500
Cl	Cl	0.16060 0.99920 0.39700 0.07600
N 	N 	0.51560 0.11730 0.42970 -0.27300
O 	O 	0.46720 0.01490 0.37700 -0.12000
O 	O 	0.47550 0.03360 0.31600 -0.07800
C 	C 	0.53000 0.12400 0.50800 -0.03800
H 	H 	0.50800 0.12670 0.54570 0.04600
C 	C 	0.55650 0.16810 0.46690 0.01700
H 	H 	0.54900 0.19660 0.48780 0.02100
N 	N 	0.40560 0.08330 0.30900 -0.27100
O 	O 	0.50990 0.18490 0.30520 -0.16500
C 	C 	0.35640 0.03460 0.28660 0.03000
H 	H 	0.32670 0.00520 0.31510 0.05800
N 	N 	0.43130 0.17240 0.43960 -0.28300
C 	C 	0.42520 0.18590 0.50590 0.05400
C 	C 	0.42180 0.18650 0.62580 -0.05100
H 	H 	0.42430 0.17130 0.66940 0.22800
C 	C 	0.41830 0.15170 0.56490 -0.05200
H 	H 	0.41250 0.11270 0.56510 0.06400
Cl	Cl	0.40550 0.12620 0.69760 -0.32600
Zn	Zn	0.33203 0.43519 0.90422 1.19400
N 	N 	0.33490 0.37840 0.97690 -0.10500
N 	N 	0.34170 0.37310 0.95080 -0.18300
C 	C 	0.29530 0.31760 0.97590 0.06700
C 	C 	0.20500 0.22860 0.97450 -0.11000
H 	H 	0.16580 0.20480 0.95750 0.59300
C 	C 	0.23920 0.28460 0.95160 -0.00700
H 	H 	0.22420 0.30080 0.91890 0.04100
Cl	Cl	0.13480 0.17840 0.95600 -0.63700
Cl	Cl	0.16140 0.16060 0.89700 0.06700
N 	N 	0.39830 0.51560 0.92970 -0.27200
O 	O 	0.45230 0.46720 0.87700 -0.11900
O 	O 	0.44190 0.47550 0.81600 -0.07800
C 	C 	0.40600 0.53000 0.00800 -0.04300
H 	H 	0.38130 0.50800 0.04570 0.04700
C 	C 	0.38840 0.55650 0.96690 0.02000
H 	H 	0.35240 0.54900 0.98780 0.02100
N 	N 	0.32230 0.40560 0.80900 -0.27200
O 	O 	0.32500 0.50990 0.80520 -0.16500
C 	C 	0.32180 0.35640 0.78660 0.03000
H 	H 	0.32150 0.32670 0.81510 0.05900
N 	N 	0.25890 0.43130 0.93960 -0.28200
C 	C 	0.23930 0.42520 0.00590 0.05200
C 	C 	0.23530 0.42180 0.12580 -0.05100
H 	H 	0.25300 0.42430 0.16940 0.22800
C 	C 	0.26660 0.41830 0.06490 -0.05200
H 	H 	0.29980 0.41250 0.06510 0.06300
Cl	Cl	0.27930 0.40550 0.19760 -0.32600
Zn	Zn	0.10316 0.66797 0.90422 1.19400
N 	N 	0.04350 0.66510 0.97690 -0.10000
N 	N 	0.03140 0.65830 0.95080 -0.18200
C 	C 	0.02230 0.70470 0.97590 0.03000
C 	C 	0.02360 0.79500 0.97450 -0.21000
H 	H 	0.03900 0.83420 0.95750 0.67100
C 	C 	0.04540 0.76080 0.95160 0.05800
H 	H 	0.07660 0.77580 0.91890 0.01900
Cl	Cl	0.04360 0.86520 0.95600 -0.71900
Cl	Cl	0.99920 0.83860 0.89700 0.08200
N 	N 	0.11730 0.60170 0.92970 -0.27200
O 	O 	0.01490 0.54770 0.87700 -0.12000
O 	O 	0.03360 0.55810 0.81600 -0.07900
C 	C 	0.12400 0.59400 0.00800 -0.04300
H 	H 	0.12670 0.61870 0.04570 0.04700
C 	C 	0.16810 0.61160 0.96690 0.02000
H 	H 	0.19660 0.64760 0.98780 0.02100
N 	N 	0.08330 0.67770 0.80900 -0.27100
O 	O 	0.18490 0.67500 0.80520 -0.16500
C 	C 	0.03460 0.67820 0.78660 0.03000
H 	H 	0.00520 0.67850 0.81510 0.05800
N 	N 	0.17240 0.74110 0.93960 -0.28200
C 	C 	0.18590 0.76070 0.00590 0.05100
C 	C 	0.18650 0.76470 0.12580 -0.05100
H 	H 	0.17130 0.74700 0.16940 0.22800
C 	C 	0.15170 0.73340 0.06490 -0.05200
H 	H 	0.11270 0.70020 0.06510 0.06300
Cl	Cl	0.12620 0.72070 0.19760 -0.32700
Zn	Zn	0.56481 0.89684 0.90422 1.19400
N 	N 	0.62160 0.95650 0.97690 -0.10500
N 	N 	0.62690 0.96860 0.95080 -0.18400
C 	C 	0.68240 0.97770 0.97590 0.07600
C 	C 	0.77140 0.97640 0.97450 -0.08900
H 	H 	0.79520 0.96100 0.95750 0.58100
C 	C 	0.71540 0.95460 0.95160 -0.02200
H 	H 	0.69920 0.92340 0.91890 0.04600
Cl	Cl	0.82160 0.95640 0.95600 -0.63100
Cl	Cl	0.83940 0.00080 0.89700 0.06300
N 	N 	0.48440 0.88270 0.92970 -0.27200
O 	O 	0.53280 0.98510 0.87700 -0.12000
O 	O 	0.52450 0.96640 0.81600 -0.07800
C 	C 	0.47000 0.87600 0.00800 -0.04300
H 	H 	0.49200 0.87330 0.04570 0.04700
C 	C 	0.44350 0.83190 0.96690 0.02000
H 	H 	0.45100 0.80340 0.98780 0.02100
N 	N 	0.59440 0.91670 0.80900 -0.27200
O 	O 	0.49010 0.81510 0.80520 -0.16500
C 	C 	0.64360 0.96540 0.78660 0.03000
H 	H 	0.67330 0.99480 0.81510 0.05900
N 	N 	0.56870 0.82760 0.93960 -0.28200
C 	C 	0.57480 0.81410 0.00590 0.05200
C 	C 	0.57820 0.81350 0.12580 -0.05100
H 	H 	0.57570 0.82870 0.16940 0.22800
C 	C 	0.58170 0.84830 0.06490 -0.05200
H 	H 	0.58750 0.88730 0.06510 0.06300
Cl	Cl	0.59450 0.87380 0.19760 -0.32600
C 	C 	0.38350 0.38350 0.50000 0.12300
H 	H 	0.41990 0.41990 0.50000 -0.01700
C 	C 	0.61650 0.00000 0.50000 0.12200
H 	H 	0.58010 0.00000 0.50000 -0.01700
C 	C 	0.00000 0.61650 0.50000 0.12000
H 	H 	0.00000 0.58010 0.50000 -0.01700
C 	C 	0.61650 0.61650 -0.00000 0.11900
H 	H 	0.58010 0.58010 -0.00000 -0.01700
C 	C 	0.38350 0.00000 -0.00000 0.11800
H 	H 	0.41990 0.00000 -0.00000 -0.01700
C 	C 	-0.00000 0.38350 -0.00000 0.11700
H 	H 	-0.00000 0.41990 -0.00000 -0.01700
C 	C 	0.61650 0.61650 0.50000 0.12300
H 	H 	0.58010 0.58010 0.50000 -0.01700
C 	C 	0.38350 0.00000 0.50000 0.12200
H 	H 	0.41990 0.00000 0.50000 -0.01700
C 	C 	0.00000 0.38350 0.50000 0.12100
H 	H 	0.00000 0.41990 0.50000 -0.01700
C 	C 	0.38350 0.38350 -0.00000 0.11900
H 	H 	0.41990 0.41990 -0.00000 -0.01700
C 	C 	0.61650 0.00000 -0.00000 0.11800
H 	H 	0.58010 0.00000 -0.00000 -0.01700
C 	C 	0.00000 0.61650 -0.00000 0.11600
H 	H 	-0.00000 0.58010 -0.00000 -0.01700
C 	C 	0.54800 0.45200 0.40870 0.20700
N 	N 	0.52550 0.47450 0.33100 0.01700
N 	N 	0.51920 0.48080 0.38100 -0.02400
C 	C 	0.54800 0.09600 0.40870 0.20700
N 	N 	0.52550 0.05100 0.33100 0.01700
N 	N 	0.51920 0.03840 0.38100 -0.02400
C 	C 	0.90400 0.45200 0.40870 0.20700
N 	N 	0.94900 0.47450 0.33100 0.01700
N 	N 	0.96160 0.48080 0.38100 -0.02400
C 	C 	0.45200 0.54800 0.90870 0.20800
N 	N 	0.47450 0.52550 0.83100 0.01700
N 	N 	0.48080 0.51920 0.88100 -0.02400
C 	C 	0.45200 0.90400 0.90870 0.20800
N 	N 	0.47450 0.94900 0.83100 0.01700
N 	N 	0.48080 0.96160 0.88100 -0.02400
C 	C 	0.09600 0.54800 0.90870 0.20700
N 	N 	0.05100 0.52550 0.83100 0.01700
N 	N 	0.03840 0.51920 0.88100 -0.02400
C 	C 	0.45200 0.54800 0.59130 0.20700
N 	N 	0.47450 0.52550 0.66900 0.01700
N 	N 	0.48080 0.51920 0.61900 -0.02400
C 	C 	0.09600 0.54800 0.59130 0.20700
N 	N 	0.05100 0.52550 0.66900 0.01700
N 	N 	0.03840 0.51920 0.61900 -0.02400
C 	C 	0.45200 0.90400 0.59130 0.20700
N 	N 	0.47450 0.94900 0.66900 0.01700
N 	N 	0.48080 0.96160 0.61900 -0.02400
C 	C 	0.54800 0.45200 0.09130 0.20600
N 	N 	0.52550 0.47450 0.16900 0.01700
N 	N 	0.51920 0.48080 0.11900 -0.02400
C 	C 	0.90400 0.45200 0.09130 0.20700
N 	N 	0.94900 0.47450 0.16900 0.01700
N 	N 	0.96160 0.48080 0.11900 -0.02400
C 	C 	0.54800 0.09600 0.09130 0.20600
N 	N 	0.52550 0.05100 0.16900 0.01700
N 	N 	0.51920 0.03840 0.11900 -0.02400
C 	C 	0.43190 0.32230 0.25000 0.16300
N 	N 	0.48840 0.32470 0.25000 -0.01800
C 	C 	0.67770 0.10960 0.25000 0.16300
N 	N 	0.67530 0.16370 0.25000 -0.01800
C 	C 	0.89040 0.56810 0.25000 0.16300
N 	N 	0.83630 0.51160 0.25000 -0.01800
C 	C 	0.56810 0.67770 0.75000 0.16300
N 	N 	0.51160 0.67530 0.75000 -0.01800
C 	C 	0.32230 0.89040 0.75000 0.16300
N 	N 	0.32470 0.83630 0.75000 -0.01800
C 	C 	0.10960 0.43190 0.75000 0.16300
N 	N 	0.16370 0.48840 0.75000 -0.01800
C 	C 	0.32230 0.43190 0.75000 0.16300
N 	N 	0.32470 0.48840 0.75000 -0.01800
C 	C 	0.10960 0.67770 0.75000 0.16300
N 	N 	0.16370 0.67530 0.75000 -0.01800
C 	C 	0.56810 0.89040 0.75000 0.16300
N 	N 	0.51160 0.83630 0.75000 -0.01800
C 	C 	0.67770 0.56810 0.25000 0.16300
N 	N 	0.67530 0.51160 0.25000 -0.01800
C 	C 	0.89040 0.32230 0.25000 0.16300
N 	N 	0.83630 0.32470 0.25000 -0.01800
C 	C 	0.43190 0.10960 0.25000 0.16300
N 	N 	0.48840 0.16370 0.25000 -0.01800
C 	C 	0.43590 0.21795 0.40440 0.11300
H 	H 	0.44210 0.22105 0.35600 -0.01600
C 	C 	0.78205 0.21795 0.40440 0.11300
H 	H 	0.77895 0.22105 0.35600 -0.01600
C 	C 	0.78205 0.56410 0.40440 0.11300
H 	H 	0.77895 0.55790 0.35600 -0.01600
C 	C 	0.56410 0.78205 0.90440 0.11300
H 	H 	0.55790 0.77895 0.85600 -0.01600
C 	C 	0.21795 0.78205 0.90440 0.11300
H 	H 	0.22105 0.77895 0.85600 -0.01600
C 	C 	0.21795 0.43590 0.90440 0.11300
H 	H 	0.22105 0.44210 0.85600 -0.01600
C 	C 	0.21795 0.43590 0.59560 0.11300
H 	H 	0.22105 0.44210 0.64400 -0.01600
C 	C 	0.21795 0.78205 0.59560 0.11300
H 	H 	0.22105 0.77895 0.64400 -0.01600
C 	C 	0.56410 0.78205 0.59560 0.11300
H 	H 	0.55790 0.77895 0.64400 -0.01600
C 	C 	0.78205 0.56410 0.09560 0.11300
H 	H 	0.77895 0.55790 0.14400 -0.01600
C 	C 	0.78205 0.21795 0.09560 0.11300
H 	H 	0.77895 0.22105 0.14400 -0.01600
C 	C 	0.43590 0.21795 0.09560 0.11300
H 	H 	0.44210 0.22105 0.14400 -0.01600
