data_crystal

_cell_length_a 26.08400
_cell_length_b 26.08400
_cell_length_c 19.40820
_cell_angle_alpha 90.00000
_cell_angle_beta  90.00000
_cell_angle_gamma 120.00000

_symmetry_space_group_name_	'P 1'
_symmetry_space_group_name_H-M	'P 1'

loop_
_symmetry_equiv_pos_as_xyz
  x,y,z

loop_
_atom_site_label
_atom_site_type_symbol
_atom_site_fract_x
_atom_site_fract_y
_atom_site_fract_z
_atom_site_charge
Zn	Zn	0.43520 0.33202 0.40427 1.19300
N 	N 	0.37930 0.33480 0.47480 -0.13800
N 	N 	0.37220 0.34110 0.44980 -0.15200
C 	C 	0.31820 0.29570 0.47440 0.04800
C 	C 	0.22860 0.20570 0.47590 -0.15500
H 	H 	0.20480 0.16600 0.46050 0.60200
C 	C 	0.28480 0.23930 0.45050 0.02300
H 	H 	0.30010 0.22380 0.41710 0.03700
Cl	Cl	0.17780 0.13600 0.45300 -0.60900
N 	N 	0.51580 0.39930 0.42880 -0.30200
O 	O 	0.46660 0.45250 0.37740 -0.12000
O 	O 	0.47560 0.44280 0.32200 -0.06500
C 	C 	0.54370 0.40120 0.48110 0.17000
H 	H 	0.53100 0.37130 0.51540 -0.02600
C 	C 	0.56190 0.38710 0.46090 -0.15700
H 	H 	0.55550 0.35010 0.47770 0.08300
N 	N 	0.40540 0.32230 0.30830 -0.27100
O 	O 	0.51020 0.32490 0.30470 -0.15600
C 	C 	0.35640 0.32110 0.28630 0.03500
H 	H 	0.32650 0.32040 0.31480 0.06100
N 	N 	0.43140 0.25870 0.43940 -0.28200
C 	C 	0.42550 0.23900 0.50580 0.04900
C 	C 	0.41530 0.23390 0.62510 -0.08200
H 	H 	0.41230 0.24950 0.66810 0.29800
C 	C 	0.41950 0.26540 0.56650 -0.02800
H 	H 	0.41840 0.30120 0.56680 0.05800
Cl	Cl	0.40740 0.28000 0.69750 -0.38600
Zn	Zn	0.66798 0.10318 0.40427 1.19400
N 	N 	0.66520 0.04450 0.47480 -0.13500
N 	N 	0.65890 0.03110 0.44980 -0.15100
C 	C 	0.70430 0.02250 0.47440 0.03300
C 	C 	0.79430 0.02290 0.47590 -0.19600
H 	H 	0.83400 0.03880 0.46050 0.63300
C 	C 	0.76070 0.04550 0.45050 0.04900
H 	H 	0.77620 0.07630 0.41710 0.02800
Cl	Cl	0.86400 0.04180 0.45300 -0.63900
N 	N 	0.60070 0.11650 0.42880 -0.30200
O 	O 	0.54750 0.01410 0.37740 -0.12100
O 	O 	0.55720 0.03280 0.32200 -0.06500
C 	C 	0.59880 0.14250 0.48110 0.17000
H 	H 	0.62870 0.15970 0.51540 -0.02600
C 	C 	0.61290 0.17480 0.46090 -0.15600
H 	H 	0.64990 0.20540 0.47770 0.08300
N 	N 	0.67770 0.08310 0.30830 -0.27100
O 	O 	0.67510 0.18530 0.30470 -0.15600
C 	C 	0.67890 0.03530 0.28630 0.03400
H 	H 	0.67960 0.00610 0.31480 0.06000
N 	N 	0.74130 0.17270 0.43940 -0.28200
C 	C 	0.76100 0.18650 0.50580 0.04900
C 	C 	0.76610 0.18140 0.62510 -0.08300
H 	H 	0.75050 0.16280 0.66810 0.29900
C 	C 	0.73460 0.15410 0.56650 -0.02700
H 	H 	0.69880 0.11720 0.56680 0.05800
Cl	Cl	0.72000 0.12740 0.69750 -0.38700
Zn	Zn	0.89682 0.56480 0.40427 1.19400
N 	N 	0.95550 0.62070 0.47480 -0.13700
N 	N 	0.96890 0.62780 0.44980 -0.15500
C 	C 	0.97750 0.68180 0.47440 0.07500
C 	C 	0.97710 0.77140 0.47590 -0.07900
H 	H 	0.96120 0.79520 0.46050 0.55100
C 	C 	0.95450 0.71520 0.45050 -0.02400
H 	H 	0.92370 0.69990 0.41710 0.05300
Cl	Cl	0.95820 0.82220 0.45300 -0.56700
N 	N 	0.88350 0.48420 0.42880 -0.30200
O 	O 	0.98590 0.53340 0.37740 -0.11900
O 	O 	0.96720 0.52440 0.32200 -0.06500
C 	C 	0.85750 0.45630 0.48110 0.17100
H 	H 	0.84030 0.46900 0.51540 -0.02600
C 	C 	0.82520 0.43810 0.46090 -0.15700
H 	H 	0.79460 0.44450 0.47770 0.08300
N 	N 	0.91690 0.59460 0.30830 -0.27100
O 	O 	0.81470 0.48980 0.30470 -0.15600
C 	C 	0.96470 0.64360 0.28630 0.03400
H 	H 	0.99390 0.67350 0.31480 0.06100
N 	N 	0.82730 0.56860 0.43940 -0.28200
C 	C 	0.81350 0.57450 0.50580 0.04900
C 	C 	0.81860 0.58470 0.62510 -0.08100
H 	H 	0.83720 0.58770 0.66810 0.29800
C 	C 	0.84590 0.58050 0.56650 -0.02800
H 	H 	0.88280 0.58160 0.56680 0.05900
Cl	Cl	0.87260 0.59260 0.69750 -0.38500
Zn	Zn	0.56480 0.66798 0.90427 1.19400
N 	N 	0.62070 0.66520 0.97480 -0.13500
N 	N 	0.62780 0.65890 0.94980 -0.15500
C 	C 	0.68180 0.70430 0.97440 0.06600
C 	C 	0.77140 0.79430 0.97590 -0.11000
H 	H 	0.79520 0.83400 0.96050 0.57500
C 	C 	0.71520 0.76070 0.95050 -0.00500
H 	H 	0.69990 0.77620 0.91710 0.04600
Cl	Cl	0.82220 0.86400 0.95300 -0.59100
N 	N 	0.48420 0.60070 0.92880 -0.30300
O 	O 	0.53340 0.54750 0.87740 -0.11900
O 	O 	0.52440 0.55720 0.82200 -0.06500
C 	C 	0.45630 0.59880 0.98110 0.18000
H 	H 	0.46900 0.62870 0.01540 -0.03000
C 	C 	0.43810 0.61290 0.96090 -0.16300
H 	H 	0.44450 0.64990 0.97770 0.08600
N 	N 	0.59460 0.67770 0.80830 -0.27100
O 	O 	0.48980 0.67510 0.80470 -0.15600
C 	C 	0.64360 0.67890 0.78630 0.03400
H 	H 	0.67350 0.67960 0.81480 0.06100
N 	N 	0.56860 0.74130 0.93940 -0.28100
C 	C 	0.57450 0.76100 0.00580 0.04700
C 	C 	0.58470 0.76610 0.12510 -0.08300
H 	H 	0.58770 0.75050 0.16810 0.29900
C 	C 	0.58050 0.73460 0.06650 -0.02700
H 	H 	0.58160 0.69880 0.06680 0.05800
Cl	Cl	0.59260 0.72000 0.19750 -0.38600
Zn	Zn	0.33202 0.89682 0.90427 1.19400
N 	N 	0.33480 0.95550 0.97480 -0.13500
N 	N 	0.34110 0.96890 0.94980 -0.15500
C 	C 	0.29570 0.97750 0.97440 0.07200
C 	C 	0.20570 0.97710 0.97590 -0.09100
H 	H 	0.16600 0.96120 0.96050 0.55900
C 	C 	0.23930 0.95450 0.95050 -0.01700
H 	H 	0.22380 0.92370 0.91710 0.05000
Cl	Cl	0.13600 0.95820 0.95300 -0.57200
N 	N 	0.39930 0.88350 0.92880 -0.30300
O 	O 	0.45250 0.98590 0.87740 -0.11900
O 	O 	0.44280 0.96720 0.82200 -0.06500
C 	C 	0.40120 0.85750 0.98110 0.17900
H 	H 	0.37130 0.84030 0.01540 -0.03000
C 	C 	0.38710 0.82520 0.96090 -0.16300
H 	H 	0.35010 0.79460 0.97770 0.08600
N 	N 	0.32230 0.91690 0.80830 -0.27100
O 	O 	0.32490 0.81470 0.80470 -0.15600
C 	C 	0.32110 0.96470 0.78630 0.03400
H 	H 	0.32040 0.99390 0.81480 0.06100
N 	N 	0.25870 0.82730 0.93940 -0.28100
C 	C 	0.23900 0.81350 0.00580 0.04800
C 	C 	0.23390 0.81860 0.12510 -0.08100
H 	H 	0.24950 0.83720 0.16810 0.29800
C 	C 	0.26540 0.84590 0.06650 -0.02800
H 	H 	0.30120 0.88280 0.06680 0.05800
Cl	Cl	0.28000 0.87260 0.19750 -0.38600
Zn	Zn	0.10318 0.43520 0.90427 1.19400
N 	N 	0.04450 0.37930 0.97480 -0.13400
N 	N 	0.03110 0.37220 0.94980 -0.15400
C 	C 	0.02250 0.31820 0.97440 0.04800
C 	C 	0.02290 0.22860 0.97590 -0.15700
H 	H 	0.03880 0.20480 0.96050 0.60700
C 	C 	0.04550 0.28480 0.95050 0.02500
H 	H 	0.07630 0.30010 0.91710 0.03600
Cl	Cl	0.04180 0.17780 0.95300 -0.61700
N 	N 	0.11650 0.51580 0.92880 -0.30300
O 	O 	0.01410 0.46660 0.87740 -0.12000
O 	O 	0.03280 0.47560 0.82200 -0.06500
C 	C 	0.14250 0.54370 0.98110 0.17800
H 	H 	0.15970 0.53100 0.01540 -0.03000
C 	C 	0.17480 0.56190 0.96090 -0.16200
H 	H 	0.20540 0.55550 0.97770 0.08600
N 	N 	0.08310 0.40540 0.80830 -0.27100
O 	O 	0.18530 0.51020 0.80470 -0.15600
C 	C 	0.03530 0.35640 0.78630 0.03400
H 	H 	0.00610 0.32650 0.81480 0.06000
N 	N 	0.17270 0.43140 0.93940 -0.28100
C 	C 	0.18650 0.42550 0.00580 0.04700
C 	C 	0.18140 0.41530 0.12510 -0.08300
H 	H 	0.16280 0.41230 0.16810 0.29900
C 	C 	0.15410 0.41950 0.06650 -0.02700
H 	H 	0.11720 0.41840 0.06680 0.05700
Cl	Cl	0.12740 0.40740 0.19750 -0.38700
Zn	Zn	0.33202 0.43520 0.59573 1.19400
N 	N 	0.33480 0.37930 0.52520 -0.13700
N 	N 	0.34110 0.37220 0.55020 -0.15300
C 	C 	0.29570 0.31820 0.52560 0.05100
C 	C 	0.20570 0.22860 0.52410 -0.14400
H 	H 	0.16600 0.20480 0.53950 0.59400
C 	C 	0.23930 0.28480 0.54950 0.01700
H 	H 	0.22380 0.30010 0.58290 0.03900
Cl	Cl	0.13600 0.17780 0.54700 -0.60100
N 	N 	0.39930 0.51580 0.57120 -0.30200
O 	O 	0.45250 0.46660 0.62260 -0.12000
O 	O 	0.44280 0.47560 0.67800 -0.06500
C 	C 	0.40120 0.54370 0.51890 0.17000
H 	H 	0.37130 0.53100 0.48460 -0.02600
C 	C 	0.38710 0.56190 0.53910 -0.15600
H 	H 	0.35010 0.55550 0.52230 0.08300
N 	N 	0.32230 0.40540 0.69170 -0.27100
O 	O 	0.32490 0.51020 0.69530 -0.15600
C 	C 	0.32110 0.35640 0.71370 0.03500
H 	H 	0.32040 0.32650 0.68520 0.06100
N 	N 	0.25870 0.43140 0.56060 -0.28200
C 	C 	0.23900 0.42550 0.49420 0.04900
C 	C 	0.23390 0.41530 0.37490 -0.08200
H 	H 	0.24950 0.41230 0.33190 0.29800
C 	C 	0.26540 0.41950 0.43350 -0.02800
H 	H 	0.30120 0.41840 0.43320 0.05900
Cl	Cl	0.28000 0.40740 0.30250 -0.38600
Zn	Zn	0.10318 0.66798 0.59573 1.19400
N 	N 	0.04450 0.66520 0.52520 -0.13400
N 	N 	0.03110 0.65890 0.55020 -0.15100
C 	C 	0.02250 0.70430 0.52560 0.02300
C 	C 	0.02290 0.79430 0.52410 -0.22200
H 	H 	0.03880 0.83400 0.53950 0.65000
C 	C 	0.04550 0.76070 0.54950 0.06600
H 	H 	0.07630 0.77620 0.58290 0.02300
Cl	Cl	0.04180 0.86400 0.54700 -0.65300
N 	N 	0.11650 0.60070 0.57120 -0.30200
O 	O 	0.01410 0.54750 0.62260 -0.12100
O 	O 	0.03280 0.55720 0.67800 -0.06500
C 	C 	0.14250 0.59880 0.51890 0.16900
H 	H 	0.15970 0.62870 0.48460 -0.02600
C 	C 	0.17480 0.61290 0.53910 -0.15600
H 	H 	0.20540 0.64990 0.52230 0.08300
N 	N 	0.08310 0.67770 0.69170 -0.27100
O 	O 	0.18530 0.67510 0.69530 -0.15600
C 	C 	0.03530 0.67890 0.71370 0.03400
H 	H 	0.00610 0.67960 0.68520 0.06000
N 	N 	0.17270 0.74130 0.56060 -0.28200
C 	C 	0.18650 0.76100 0.49420 0.04900
C 	C 	0.18140 0.76610 0.37490 -0.08300
H 	H 	0.16280 0.75050 0.33190 0.29900
C 	C 	0.15410 0.73460 0.43350 -0.02700
H 	H 	0.11720 0.69880 0.43320 0.05800
Cl	Cl	0.12740 0.72000 0.30250 -0.38700
Zn	Zn	0.56480 0.89682 0.59573 1.19400
N 	N 	0.62070 0.95550 0.52520 -0.13700
N 	N 	0.62780 0.96890 0.55020 -0.15400
C 	C 	0.68180 0.97750 0.52560 0.06500
C 	C 	0.77140 0.97710 0.52410 -0.10600
H 	H 	0.79520 0.96120 0.53950 0.57000
C 	C 	0.71520 0.95450 0.54950 -0.00700
H 	H 	0.69990 0.92370 0.58290 0.04700
Cl	Cl	0.82220 0.95820 0.54700 -0.58300
N 	N 	0.48420 0.88350 0.57120 -0.30200
O 	O 	0.53340 0.98590 0.62260 -0.12000
O 	O 	0.52440 0.96720 0.67800 -0.06500
C 	C 	0.45630 0.85750 0.51890 0.17000
H 	H 	0.46900 0.84030 0.48460 -0.02600
C 	C 	0.43810 0.82520 0.53910 -0.15700
H 	H 	0.44450 0.79460 0.52230 0.08300
N 	N 	0.59460 0.91690 0.69170 -0.27100
O 	O 	0.48980 0.81470 0.69530 -0.15600
C 	C 	0.64360 0.96470 0.71370 0.03400
H 	H 	0.67350 0.99390 0.68520 0.06100
N 	N 	0.56860 0.82730 0.56060 -0.28200
C 	C 	0.57450 0.81350 0.49420 0.04900
C 	C 	0.58470 0.81860 0.37490 -0.08100
H 	H 	0.58770 0.83720 0.33190 0.29800
C 	C 	0.58050 0.84590 0.43350 -0.02800
H 	H 	0.58160 0.88280 0.43320 0.05900
Cl	Cl	0.59260 0.87260 0.30250 -0.38500
Zn	Zn	0.66798 0.56480 0.09573 1.19400
N 	N 	0.66520 0.62070 0.02520 -0.13600
N 	N 	0.65890 0.62780 0.05020 -0.15100
C 	C 	0.70430 0.68180 0.02560 0.03300
C 	C 	0.79430 0.77140 0.02410 -0.19200
H 	H 	0.83400 0.79520 0.03950 0.62900
C 	C 	0.76070 0.71520 0.04950 0.04700
H 	H 	0.77620 0.69990 0.08290 0.02900
Cl	Cl	0.86400 0.82220 0.04700 -0.63400
N 	N 	0.60070 0.48420 0.07120 -0.30100
O 	O 	0.54750 0.53340 0.12260 -0.12100
O 	O 	0.55720 0.52440 0.17800 -0.06500
C 	C 	0.59880 0.45630 0.01890 0.16000
H 	H 	0.62870 0.46900 0.98460 -0.02100
C 	C 	0.61290 0.43810 0.03910 -0.15000
H 	H 	0.64990 0.44450 0.02230 0.07900
N 	N 	0.67770 0.59460 0.19170 -0.27100
O 	O 	0.67510 0.48980 0.19530 -0.15600
C 	C 	0.67890 0.64360 0.21370 0.03500
H 	H 	0.67960 0.67350 0.18520 0.06100
N 	N 	0.74130 0.56860 0.06060 -0.28300
C 	C 	0.76100 0.57450 0.99420 0.05100
C 	C 	0.76610 0.58470 0.87490 -0.08200
H 	H 	0.75050 0.58770 0.83190 0.29900
C 	C 	0.73460 0.58050 0.93350 -0.02800
H 	H 	0.69880 0.58160 0.93320 0.05900
Cl	Cl	0.72000 0.59260 0.80250 -0.38600
Zn	Zn	0.89682 0.33202 0.09573 1.19400
N 	N 	0.95550 0.33480 0.02520 -0.13600
N 	N 	0.96890 0.34110 0.05020 -0.15200
C 	C 	0.97750 0.29570 0.02560 0.05100
C 	C 	0.97710 0.20570 0.02410 -0.14300
H 	H 	0.96120 0.16600 0.03950 0.59200
C 	C 	0.95450 0.23930 0.04950 0.01600
H 	H 	0.92370 0.22380 0.08290 0.03900
Cl	Cl	0.95820 0.13600 0.04700 -0.59700
N 	N 	0.88350 0.39930 0.07120 -0.30100
O 	O 	0.98590 0.45250 0.12260 -0.12000
O 	O 	0.96720 0.44280 0.17800 -0.06500
C 	C 	0.85750 0.40120 0.01890 0.16000
H 	H 	0.84030 0.37130 0.98460 -0.02000
C 	C 	0.82520 0.38710 0.03910 -0.15000
H 	H 	0.79460 0.35010 0.02230 0.07900
N 	N 	0.91690 0.32230 0.19170 -0.27100
O 	O 	0.81470 0.32490 0.19530 -0.15600
C 	C 	0.96470 0.32110 0.21370 0.03500
H 	H 	0.99390 0.32040 0.18520 0.06100
N 	N 	0.82730 0.25870 0.06060 -0.28300
C 	C 	0.81350 0.23900 0.99420 0.05200
C 	C 	0.81860 0.23390 0.87490 -0.08000
H 	H 	0.83720 0.24950 0.83190 0.29800
C 	C 	0.84590 0.26540 0.93350 -0.02900
H 	H 	0.88280 0.30120 0.93320 0.06000
Cl	Cl	0.87260 0.28000 0.80250 -0.38400
Zn	Zn	0.43520 0.10318 0.09573 1.19400
N 	N 	0.37930 0.04450 0.02520 -0.13500
N 	N 	0.37220 0.03110 0.05020 -0.15000
C 	C 	0.31820 0.02250 0.02560 0.02700
C 	C 	0.22860 0.02290 0.02410 -0.20800
H 	H 	0.20480 0.03880 0.03950 0.63800
C 	C 	0.28480 0.04550 0.04950 0.05700
H 	H 	0.30010 0.07630 0.08290 0.02600
Cl	Cl	0.17780 0.04180 0.04700 -0.63800
N 	N 	0.51580 0.11650 0.07120 -0.30000
O 	O 	0.46660 0.01410 0.12260 -0.12100
O 	O 	0.47560 0.03280 0.17800 -0.06500
C 	C 	0.54370 0.14250 0.01890 0.15900
H 	H 	0.53100 0.15970 0.98460 -0.02000
C 	C 	0.56190 0.17480 0.03910 -0.14900
H 	H 	0.55550 0.20540 0.02230 0.07900
N 	N 	0.40540 0.08310 0.19170 -0.27100
O 	O 	0.51020 0.18530 0.19530 -0.15600
C 	C 	0.35640 0.03530 0.21370 0.03500
H 	H 	0.32650 0.00610 0.18520 0.06000
N 	N 	0.43140 0.17270 0.06060 -0.28300
C 	C 	0.42550 0.18650 0.99420 0.05200
C 	C 	0.41530 0.18140 0.87490 -0.08200
H 	H 	0.41230 0.16280 0.83190 0.29800
C 	C 	0.41950 0.15410 0.93350 -0.02800
H 	H 	0.41840 0.11720 0.93320 0.06000
Cl	Cl	0.40740 0.12740 0.80250 -0.38600
Zn	Zn	0.56480 0.66798 0.59573 1.19400
N 	N 	0.62070 0.66520 0.52520 -0.13700
N 	N 	0.62780 0.65890 0.55020 -0.15300
C 	C 	0.68180 0.70430 0.52560 0.05100
C 	C 	0.77140 0.79430 0.52410 -0.14600
H 	H 	0.79520 0.83400 0.53950 0.59800
C 	C 	0.71520 0.76070 0.54950 0.01800
H 	H 	0.69990 0.77620 0.58290 0.03800
Cl	Cl	0.82220 0.86400 0.54700 -0.60900
N 	N 	0.48420 0.60070 0.57120 -0.30200
O 	O 	0.53340 0.54750 0.62260 -0.12000
O 	O 	0.52440 0.55720 0.67800 -0.06500
C 	C 	0.45630 0.59880 0.51890 0.17000
H 	H 	0.46900 0.62870 0.48460 -0.02600
C 	C 	0.43810 0.61290 0.53910 -0.15600
H 	H 	0.44450 0.64990 0.52230 0.08300
N 	N 	0.59460 0.67770 0.69170 -0.27100
O 	O 	0.48980 0.67510 0.69530 -0.15600
C 	C 	0.64360 0.67890 0.71370 0.03500
H 	H 	0.67350 0.67960 0.68520 0.06100
N 	N 	0.56860 0.74130 0.56060 -0.28200
C 	C 	0.57450 0.76100 0.49420 0.04900
C 	C 	0.58470 0.76610 0.37490 -0.08200
H 	H 	0.58770 0.75050 0.33190 0.29900
C 	C 	0.58050 0.73460 0.43350 -0.02700
H 	H 	0.58160 0.69880 0.43320 0.05800
Cl	Cl	0.59260 0.72000 0.30250 -0.38600
Zn	Zn	0.33202 0.89682 0.59573 1.19400
N 	N 	0.33480 0.95550 0.52520 -0.13700
N 	N 	0.34110 0.96890 0.55020 -0.15400
C 	C 	0.29570 0.97750 0.52560 0.05800
C 	C 	0.20570 0.97710 0.52410 -0.12400
H 	H 	0.16600 0.96120 0.53950 0.58000
C 	C 	0.23930 0.95450 0.54950 0.00400
H 	H 	0.22380 0.92370 0.58290 0.04300
Cl	Cl	0.13600 0.95820 0.54700 -0.58800
N 	N 	0.39930 0.88350 0.57120 -0.30200
O 	O 	0.45250 0.98590 0.62260 -0.12000
O 	O 	0.44280 0.96720 0.67800 -0.06500
C 	C 	0.40120 0.85750 0.51890 0.17000
H 	H 	0.37130 0.84030 0.48460 -0.02600
C 	C 	0.38710 0.82520 0.53910 -0.15700
H 	H 	0.35010 0.79460 0.52230 0.08300
N 	N 	0.32230 0.91690 0.69170 -0.27100
O 	O 	0.32490 0.81470 0.69530 -0.15600
C 	C 	0.32110 0.96470 0.71370 0.03400
H 	H 	0.32040 0.99390 0.68520 0.06100
N 	N 	0.25870 0.82730 0.56060 -0.28200
C 	C 	0.23900 0.81350 0.49420 0.04900
C 	C 	0.23390 0.81860 0.37490 -0.08100
H 	H 	0.24950 0.83720 0.33190 0.29800
C 	C 	0.26540 0.84590 0.43350 -0.02800
H 	H 	0.30120 0.88280 0.43320 0.05900
Cl	Cl	0.28000 0.87260 0.30250 -0.38600
Zn	Zn	0.10318 0.43520 0.59573 1.19400
N 	N 	0.04450 0.37930 0.52520 -0.13500
N 	N 	0.03110 0.37220 0.55020 -0.15100
C 	C 	0.02250 0.31820 0.52560 0.03000
C 	C 	0.02290 0.22860 0.52410 -0.20200
H 	H 	0.03880 0.20480 0.53950 0.63600
C 	C 	0.04550 0.28480 0.54950 0.05400
H 	H 	0.07630 0.30010 0.58290 0.02700
Cl	Cl	0.04180 0.17780 0.54700 -0.64000
N 	N 	0.11650 0.51580 0.57120 -0.30200
O 	O 	0.01410 0.46660 0.62260 -0.12100
O 	O 	0.03280 0.47560 0.67800 -0.06500
C 	C 	0.14250 0.54370 0.51890 0.16900
H 	H 	0.15970 0.53100 0.48460 -0.02600
C 	C 	0.17480 0.56190 0.53910 -0.15600
H 	H 	0.20540 0.55550 0.52230 0.08200
N 	N 	0.08310 0.40540 0.69170 -0.27100
O 	O 	0.18530 0.51020 0.69530 -0.15600
C 	C 	0.03530 0.35640 0.71370 0.03400
H 	H 	0.00610 0.32650 0.68520 0.06000
N 	N 	0.17270 0.43140 0.56060 -0.28200
C 	C 	0.18650 0.42550 0.49420 0.04900
C 	C 	0.18140 0.41530 0.37490 -0.08300
H 	H 	0.16280 0.41230 0.33190 0.29900
C 	C 	0.15410 0.41950 0.43350 -0.02700
H 	H 	0.11720 0.41840 0.43320 0.05800
Cl	Cl	0.12740 0.40740 0.30250 -0.38700
Zn	Zn	0.43520 0.33202 0.09573 1.19400
N 	N 	0.37930 0.33480 0.02520 -0.13600
N 	N 	0.37220 0.34110 0.05020 -0.15000
C 	C 	0.31820 0.29570 0.02560 0.03200
C 	C 	0.22860 0.20570 0.02410 -0.19500
H 	H 	0.20480 0.16600 0.03950 0.62800
C 	C 	0.28480 0.23930 0.04950 0.04900
H 	H 	0.30010 0.22380 0.08290 0.02800
Cl	Cl	0.17780 0.13600 0.04700 -0.62900
N 	N 	0.51580 0.39930 0.07120 -0.30100
O 	O 	0.46660 0.45250 0.12260 -0.12100
O 	O 	0.47560 0.44280 0.17800 -0.06500
C 	C 	0.54370 0.40120 0.01890 0.16000
H 	H 	0.53100 0.37130 0.98460 -0.02000
C 	C 	0.56190 0.38710 0.03910 -0.15000
H 	H 	0.55550 0.35010 0.02230 0.07900
N 	N 	0.40540 0.32230 0.19170 -0.27100
O 	O 	0.51020 0.32490 0.19530 -0.15600
C 	C 	0.35640 0.32110 0.21370 0.03500
H 	H 	0.32650 0.32040 0.18520 0.06100
N 	N 	0.43140 0.25870 0.06060 -0.28300
C 	C 	0.42550 0.23900 0.99420 0.05200
C 	C 	0.41530 0.23390 0.87490 -0.08100
H 	H 	0.41230 0.24950 0.83190 0.29800
C 	C 	0.41950 0.26540 0.93350 -0.02800
H 	H 	0.41840 0.30120 0.93320 0.06000
Cl	Cl	0.40740 0.28000 0.80250 -0.38600
Zn	Zn	0.66798 0.10318 0.09573 1.19400
N 	N 	0.66520 0.04450 0.02520 -0.13500
N 	N 	0.65890 0.03110 0.05020 -0.14900
C 	C 	0.70430 0.02250 0.02560 0.01700
C 	C 	0.79430 0.02290 0.02410 -0.23700
H 	H 	0.83400 0.03880 0.03950 0.65900
C 	C 	0.76070 0.04550 0.04950 0.07500
H 	H 	0.77620 0.07630 0.08290 0.02000
Cl	Cl	0.86400 0.04180 0.04700 -0.65900
N 	N 	0.60070 0.11650 0.07120 -0.30000
O 	O 	0.54750 0.01410 0.12260 -0.12100
O 	O 	0.55720 0.03280 0.17800 -0.06500
C 	C 	0.59880 0.14250 0.01890 0.15900
H 	H 	0.62870 0.15970 0.98460 -0.02000
C 	C 	0.61290 0.17480 0.03910 -0.14900
H 	H 	0.64990 0.20540 0.02230 0.07900
N 	N 	0.67770 0.08310 0.19170 -0.27100
O 	O 	0.67510 0.18530 0.19530 -0.15600
C 	C 	0.67890 0.03530 0.21370 0.03500
H 	H 	0.67960 0.00610 0.18520 0.06000
N 	N 	0.74130 0.17270 0.06060 -0.28300
C 	C 	0.76100 0.18650 0.99420 0.05200
C 	C 	0.76610 0.18140 0.87490 -0.08200
H 	H 	0.75050 0.16280 0.83190 0.29900
C 	C 	0.73460 0.15410 0.93350 -0.02800
H 	H 	0.69880 0.11720 0.93320 0.05900
Cl	Cl	0.72000 0.12740 0.80250 -0.38600
Zn	Zn	0.89682 0.56480 0.09573 1.19400
N 	N 	0.95550 0.62070 0.02520 -0.13700
N 	N 	0.96890 0.62780 0.05020 -0.15300
C 	C 	0.97750 0.68180 0.02560 0.06200
C 	C 	0.97710 0.77140 0.02410 -0.11100
H 	H 	0.96120 0.79520 0.03950 0.57200
C 	C 	0.95450 0.71520 0.04950 -0.00400
H 	H 	0.92370 0.69990 0.08290 0.04600
Cl	Cl	0.95820 0.82220 0.04700 -0.58200
N 	N 	0.88350 0.48420 0.07120 -0.30000
O 	O 	0.98590 0.53340 0.12260 -0.12000
O 	O 	0.96720 0.52440 0.17800 -0.06500
C 	C 	0.85750 0.45630 0.01890 0.16000
H 	H 	0.84030 0.46900 0.98460 -0.02000
C 	C 	0.82520 0.43810 0.03910 -0.15000
H 	H 	0.79460 0.44450 0.02230 0.07900
N 	N 	0.91690 0.59460 0.19170 -0.27100
O 	O 	0.81470 0.48980 0.19530 -0.15600
C 	C 	0.96470 0.64360 0.21370 0.03500
H 	H 	0.99390 0.67350 0.18520 0.06100
N 	N 	0.82730 0.56860 0.06060 -0.28300
C 	C 	0.81350 0.57450 0.99420 0.05200
C 	C 	0.81860 0.58470 0.87490 -0.08000
H 	H 	0.83720 0.58770 0.83190 0.29800
C 	C 	0.84590 0.58050 0.93350 -0.02900
H 	H 	0.88280 0.58160 0.93320 0.06000
Cl	Cl	0.87260 0.59260 0.80250 -0.38400
Zn	Zn	0.66798 0.56480 0.40427 1.19400
N 	N 	0.66520 0.62070 0.47480 -0.13700
N 	N 	0.65890 0.62780 0.44980 -0.15200
C 	C 	0.70430 0.68180 0.47440 0.04800
C 	C 	0.79430 0.77140 0.47590 -0.15600
H 	H 	0.83400 0.79520 0.46050 0.60600
C 	C 	0.76070 0.71520 0.45050 0.02400
H 	H 	0.77620 0.69990 0.41710 0.03600
Cl	Cl	0.86400 0.82220 0.45300 -0.61700
N 	N 	0.60070 0.48420 0.42880 -0.30200
O 	O 	0.54750 0.53340 0.37740 -0.12000
O 	O 	0.55720 0.52440 0.32200 -0.06500
C 	C 	0.59880 0.45630 0.48110 0.17000
H 	H 	0.62870 0.46900 0.51540 -0.02600
C 	C 	0.61290 0.43810 0.46090 -0.15700
H 	H 	0.64990 0.44450 0.47770 0.08300
N 	N 	0.67770 0.59460 0.30830 -0.27100
O 	O 	0.67510 0.48980 0.30470 -0.15600
C 	C 	0.67890 0.64360 0.28630 0.03500
H 	H 	0.67960 0.67350 0.31480 0.06100
N 	N 	0.74130 0.56860 0.43940 -0.28200
C 	C 	0.76100 0.57450 0.50580 0.04900
C 	C 	0.76610 0.58470 0.62510 -0.08300
H 	H 	0.75050 0.58770 0.66810 0.29900
C 	C 	0.73460 0.58050 0.56650 -0.02700
H 	H 	0.69880 0.58160 0.56680 0.05800
Cl	Cl	0.72000 0.59260 0.69750 -0.38600
Zn	Zn	0.89682 0.33202 0.40427 1.19400
N 	N 	0.95550 0.33480 0.47480 -0.13700
N 	N 	0.96890 0.34110 0.44980 -0.15400
C 	C 	0.97750 0.29570 0.47440 0.06800
C 	C 	0.97710 0.20570 0.47590 -0.09800
H 	H 	0.96120 0.16600 0.46050 0.56300
C 	C 	0.95450 0.23930 0.45050 -0.01300
H 	H 	0.92370 0.22380 0.41710 0.04900
Cl	Cl	0.95820 0.13600 0.45300 -0.57500
N 	N 	0.88350 0.39930 0.42880 -0.30200
O 	O 	0.98590 0.45250 0.37740 -0.12000
O 	O 	0.96720 0.44280 0.32200 -0.06500
C 	C 	0.85750 0.40120 0.48110 0.17100
H 	H 	0.84030 0.37130 0.51540 -0.02600
C 	C 	0.82520 0.38710 0.46090 -0.15700
H 	H 	0.79460 0.35010 0.47770 0.08300
N 	N 	0.91690 0.32230 0.30830 -0.27100
O 	O 	0.81470 0.32490 0.30470 -0.15600
C 	C 	0.96470 0.32110 0.28630 0.03400
H 	H 	0.99390 0.32040 0.31480 0.06100
N 	N 	0.82730 0.25870 0.43940 -0.28200
C 	C 	0.81350 0.23900 0.50580 0.04900
C 	C 	0.81860 0.23390 0.62510 -0.08100
H 	H 	0.83720 0.24950 0.66810 0.29800
C 	C 	0.84590 0.26540 0.56650 -0.02800
H 	H 	0.88280 0.30120 0.56680 0.05900
Cl	Cl	0.87260 0.28000 0.69750 -0.38500
Zn	Zn	0.43520 0.10318 0.40427 1.19400
N 	N 	0.37930 0.04450 0.47480 -0.13600
N 	N 	0.37220 0.03110 0.44980 -0.15200
C 	C 	0.31820 0.02250 0.47440 0.04000
C 	C 	0.22860 0.02290 0.47590 -0.17500
H 	H 	0.20480 0.03880 0.46050 0.61700
C 	C 	0.28480 0.04550 0.45050 0.03600
H 	H 	0.30010 0.07630 0.41710 0.03300
Cl	Cl	0.17780 0.04180 0.45300 -0.62300
N 	N 	0.51580 0.11650 0.42880 -0.30200
O 	O 	0.46660 0.01410 0.37740 -0.12100
O 	O 	0.47560 0.03280 0.32200 -0.06500
C 	C 	0.54370 0.14250 0.48110 0.17000
H 	H 	0.53100 0.15970 0.51540 -0.02600
C 	C 	0.56190 0.17480 0.46090 -0.15600
H 	H 	0.55550 0.20540 0.47770 0.08300
N 	N 	0.40540 0.08310 0.30830 -0.27100
O 	O 	0.51020 0.18530 0.30470 -0.15600
C 	C 	0.35640 0.03530 0.28630 0.03400
H 	H 	0.32650 0.00610 0.31480 0.06000
N 	N 	0.43140 0.17270 0.43940 -0.28200
C 	C 	0.42550 0.18650 0.50580 0.04900
C 	C 	0.41530 0.18140 0.62510 -0.08200
H 	H 	0.41230 0.16280 0.66810 0.29900
C 	C 	0.41950 0.15410 0.56650 -0.02700
H 	H 	0.41840 0.11720 0.56680 0.05800
Cl	Cl	0.40740 0.12740 0.69750 -0.38600
Zn	Zn	0.33202 0.43520 0.90427 1.19400
N 	N 	0.33480 0.37930 0.97480 -0.13500
N 	N 	0.34110 0.37220 0.94980 -0.15500
C 	C 	0.29570 0.31820 0.97440 0.06800
C 	C 	0.20570 0.22860 0.97590 -0.10400
H 	H 	0.16600 0.20480 0.96050 0.56800
C 	C 	0.23930 0.28480 0.95050 -0.00900
H 	H 	0.22380 0.30010 0.91710 0.04800
Cl	Cl	0.13600 0.17780 0.95300 -0.58100
N 	N 	0.39930 0.51580 0.92880 -0.30300
O 	O 	0.45250 0.46660 0.87740 -0.11900
O 	O 	0.44280 0.47560 0.82200 -0.06500
C 	C 	0.40120 0.54370 0.98110 0.18000
H 	H 	0.37130 0.53100 0.01540 -0.03000
C 	C 	0.38710 0.56190 0.96090 -0.16300
H 	H 	0.35010 0.55550 0.97770 0.08600
N 	N 	0.32230 0.40540 0.80830 -0.27100
O 	O 	0.32490 0.51020 0.80470 -0.15600
C 	C 	0.32110 0.35640 0.78630 0.03400
H 	H 	0.32040 0.32650 0.81480 0.06100
N 	N 	0.25870 0.43140 0.93940 -0.28100
C 	C 	0.23900 0.42550 0.00580 0.04700
C 	C 	0.23390 0.41530 0.12510 -0.08200
H 	H 	0.24950 0.41230 0.16810 0.29900
C 	C 	0.26540 0.41950 0.06650 -0.02700
H 	H 	0.30120 0.41840 0.06680 0.05800
Cl	Cl	0.28000 0.40740 0.19750 -0.38600
Zn	Zn	0.10318 0.66798 0.90427 1.19400
N 	N 	0.04450 0.66520 0.97480 -0.13300
N 	N 	0.03110 0.65890 0.94980 -0.15200
C 	C 	0.02250 0.70430 0.97440 0.03600
C 	C 	0.02290 0.79430 0.97590 -0.19000
H 	H 	0.03880 0.83400 0.96050 0.63000
C 	C 	0.04550 0.76070 0.95050 0.04500
H 	H 	0.07630 0.77620 0.91710 0.02900
Cl	Cl	0.04180 0.86400 0.95300 -0.63700
N 	N 	0.11650 0.60070 0.92880 -0.30300
O 	O 	0.01410 0.54750 0.87740 -0.12000
O 	O 	0.03280 0.55720 0.82200 -0.06500
C 	C 	0.14250 0.59880 0.98110 0.17800
H 	H 	0.15970 0.62870 0.01540 -0.03000
C 	C 	0.17480 0.61290 0.96090 -0.16200
H 	H 	0.20540 0.64990 0.97770 0.08600
N 	N 	0.08310 0.67770 0.80830 -0.27100
O 	O 	0.18530 0.67510 0.80470 -0.15600
C 	C 	0.03530 0.67890 0.78630 0.03400
H 	H 	0.00610 0.67960 0.81480 0.06000
N 	N 	0.17270 0.74130 0.93940 -0.28100
C 	C 	0.18650 0.76100 0.00580 0.04700
C 	C 	0.18140 0.76610 0.12510 -0.08400
H 	H 	0.16280 0.75050 0.16810 0.29900
C 	C 	0.15410 0.73460 0.06650 -0.02600
H 	H 	0.11720 0.69880 0.06680 0.05700
Cl	Cl	0.12740 0.72000 0.19750 -0.38800
Zn	Zn	0.56480 0.89682 0.90427 1.19400
N 	N 	0.62070 0.95550 0.97480 -0.13500
N 	N 	0.62780 0.96890 0.94980 -0.15600
C 	C 	0.68180 0.97750 0.97440 0.08200
C 	C 	0.77140 0.97710 0.97590 -0.06500
H 	H 	0.79520 0.96120 0.96050 0.54400
C 	C 	0.71520 0.95450 0.95050 -0.03400
H 	H 	0.69990 0.92370 0.91710 0.05500
Cl	Cl	0.82220 0.95820 0.95300 -0.56200
N 	N 	0.48420 0.88350 0.92880 -0.30300
O 	O 	0.53340 0.98590 0.87740 -0.11900
O 	O 	0.52440 0.96720 0.82200 -0.06500
C 	C 	0.45630 0.85750 0.98110 0.17900
H 	H 	0.46900 0.84030 0.01540 -0.03000
C 	C 	0.43810 0.82520 0.96090 -0.16200
H 	H 	0.44450 0.79460 0.97770 0.08600
N 	N 	0.59460 0.91690 0.80830 -0.27100
O 	O 	0.48980 0.81470 0.80470 -0.15600
C 	C 	0.64360 0.96470 0.78630 0.03400
H 	H 	0.67350 0.99390 0.81480 0.06100
N 	N 	0.56860 0.82730 0.93940 -0.28100
C 	C 	0.57450 0.81350 0.00580 0.04700
C 	C 	0.58470 0.81860 0.12510 -0.08100
H 	H 	0.58770 0.83720 0.16810 0.29800
C 	C 	0.58050 0.84590 0.06650 -0.02800
H 	H 	0.58160 0.88280 0.06680 0.05800
Cl	Cl	0.59260 0.87260 0.19750 -0.38500
C 	C 	0.38350 0.38350 0.50000 0.11800
H 	H 	0.41990 0.41990 0.50000 -0.02000
C 	C 	0.61650 0.00000 0.50000 0.11600
H 	H 	0.58010 0.00000 0.50000 -0.02000
C 	C 	0.00000 0.61650 0.50000 0.11400
H 	H 	0.00000 0.58010 0.50000 -0.02000
C 	C 	0.61650 0.61650 -0.00000 0.11500
H 	H 	0.58010 0.58010 -0.00000 -0.02000
C 	C 	0.38350 0.00000 -0.00000 0.11400
H 	H 	0.41990 0.00000 -0.00000 -0.02000
C 	C 	-0.00000 0.38350 -0.00000 0.11300
H 	H 	-0.00000 0.41990 -0.00000 -0.02000
C 	C 	0.61650 0.61650 0.50000 0.11800
H 	H 	0.58010 0.58010 0.50000 -0.02000
C 	C 	0.38350 0.00000 0.50000 0.11700
H 	H 	0.41990 0.00000 0.50000 -0.02000
C 	C 	0.00000 0.38350 0.50000 0.11500
H 	H 	0.00000 0.41990 0.50000 -0.02000
C 	C 	0.38350 0.38350 -0.00000 0.11500
H 	H 	0.41990 0.41990 -0.00000 -0.02000
C 	C 	0.61650 0.00000 -0.00000 0.11300
H 	H 	0.58010 0.00000 -0.00000 -0.02000
C 	C 	0.00000 0.61650 -0.00000 0.11300
H 	H 	-0.00000 0.58010 -0.00000 -0.02000
C 	C 	0.54780 0.45220 0.40830 0.21600
N 	N 	0.52880 0.47120 0.33300 -0.01000
N 	N 	0.51890 0.48110 0.38100 -0.01600
C 	C 	0.54780 0.09560 0.40830 0.21600
N 	N 	0.52880 0.05760 0.33300 -0.01000
N 	N 	0.51890 0.03780 0.38100 -0.01500
C 	C 	0.90440 0.45220 0.40830 0.21700
N 	N 	0.94240 0.47120 0.33300 -0.01000
N 	N 	0.96220 0.48110 0.38100 -0.01600
C 	C 	0.45220 0.54780 0.90830 0.21700
N 	N 	0.47120 0.52880 0.83300 -0.01000
N 	N 	0.48110 0.51890 0.88100 -0.01600
C 	C 	0.45220 0.90440 0.90830 0.21700
N 	N 	0.47120 0.94240 0.83300 -0.01000
N 	N 	0.48110 0.96220 0.88100 -0.01600
C 	C 	0.09560 0.54780 0.90830 0.21600
N 	N 	0.05760 0.52880 0.83300 -0.01000
N 	N 	0.03780 0.51890 0.88100 -0.01500
C 	C 	0.45220 0.54780 0.59170 0.21700
N 	N 	0.47120 0.52880 0.66700 -0.01000
N 	N 	0.48110 0.51890 0.61900 -0.01600
C 	C 	0.09560 0.54780 0.59170 0.21600
N 	N 	0.05760 0.52880 0.66700 -0.01000
N 	N 	0.03780 0.51890 0.61900 -0.01500
C 	C 	0.45220 0.90440 0.59170 0.21700
N 	N 	0.47120 0.94240 0.66700 -0.01000
N 	N 	0.48110 0.96220 0.61900 -0.01600
C 	C 	0.54780 0.45220 0.09170 0.21700
N 	N 	0.52880 0.47120 0.16700 -0.01100
N 	N 	0.51890 0.48110 0.11900 -0.01600
C 	C 	0.90440 0.45220 0.09170 0.21700
N 	N 	0.94240 0.47120 0.16700 -0.01100
N 	N 	0.96220 0.48110 0.11900 -0.01600
C 	C 	0.54780 0.09560 0.09170 0.21700
N 	N 	0.52880 0.05760 0.16700 -0.01100
N 	N 	0.51890 0.03780 0.11900 -0.01500
C 	C 	0.43210 0.32290 0.25000 0.16900
N 	N 	0.48740 0.32400 0.25000 -0.02400
C 	C 	0.67710 0.10920 0.25000 0.16900
N 	N 	0.67600 0.16340 0.25000 -0.02400
C 	C 	0.89080 0.56790 0.25000 0.16900
N 	N 	0.83660 0.51260 0.25000 -0.02400
C 	C 	0.56790 0.67710 0.75000 0.16900
N 	N 	0.51260 0.67600 0.75000 -0.02400
C 	C 	0.32290 0.89080 0.75000 0.16900
N 	N 	0.32400 0.83660 0.75000 -0.02400
C 	C 	0.10920 0.43210 0.75000 0.16900
N 	N 	0.16340 0.48740 0.75000 -0.02400
C 	C 	0.32290 0.43210 0.75000 0.16900
N 	N 	0.32400 0.48740 0.75000 -0.02400
C 	C 	0.10920 0.67710 0.75000 0.16900
N 	N 	0.16340 0.67600 0.75000 -0.02400
C 	C 	0.56790 0.89080 0.75000 0.16900
N 	N 	0.51260 0.83660 0.75000 -0.02400
C 	C 	0.67710 0.56790 0.25000 0.16900
N 	N 	0.67600 0.51260 0.25000 -0.02400
C 	C 	0.89080 0.32290 0.25000 0.16900
N 	N 	0.83660 0.32400 0.25000 -0.02400
C 	C 	0.43210 0.10920 0.25000 0.16900
N 	N 	0.48740 0.16340 0.25000 -0.02400
C 	C 	0.43500 0.21750 0.40380 0.11700
H 	H 	0.43980 0.21990 0.35520 -0.01700
C 	C 	0.78250 0.21750 0.40380 0.11600
H 	H 	0.78010 0.21990 0.35520 -0.01700
C 	C 	0.78250 0.56500 0.40380 0.11600
H 	H 	0.78010 0.56020 0.35520 -0.01700
C 	C 	0.56500 0.78250 0.90380 0.11600
H 	H 	0.56020 0.78010 0.85520 -0.01700
C 	C 	0.21750 0.78250 0.90380 0.11700
H 	H 	0.21990 0.78010 0.85520 -0.01700
C 	C 	0.21750 0.43500 0.90380 0.11700
H 	H 	0.21990 0.43980 0.85520 -0.01700
C 	C 	0.21750 0.43500 0.59620 0.11700
H 	H 	0.21990 0.43980 0.64480 -0.01700
C 	C 	0.21750 0.78250 0.59620 0.11700
H 	H 	0.21990 0.78010 0.64480 -0.01700
C 	C 	0.56500 0.78250 0.59620 0.11600
H 	H 	0.56020 0.78010 0.64480 -0.01700
C 	C 	0.78250 0.56500 0.09620 0.11600
H 	H 	0.78010 0.56020 0.14480 -0.01700
C 	C 	0.78250 0.21750 0.09620 0.11600
H 	H 	0.78010 0.21990 0.14480 -0.01700
C 	C 	0.43500 0.21750 0.09620 0.11600
H 	H 	0.43980 0.21990 0.14480 -0.01700
