data_crystal

_cell_length_a 37.28560
_cell_length_b 37.28560
_cell_length_c 14.96780
_cell_angle_alpha 98.82960
_cell_angle_beta  98.82960
_cell_angle_gamma 126.82670

_symmetry_space_group_name_	'P 1'
_symmetry_space_group_name_H-M	'P 1'

loop_
_symmetry_equiv_pos_as_xyz
  x,y,z

loop_
_atom_site_label
_atom_site_type_symbol
_atom_site_fract_x
_atom_site_fract_y
_atom_site_fract_z
_atom_site_charge
Ag	Ag	0.02909 0.27762 0.08851 0.57400
Ag	Ag	0.45837 0.20085 0.97891 0.55800
C 	C 	0.10755 0.09237 0.91320 0.02700
H 	H 	0.11480 0.07360 0.88610 -0.00200
C 	C 	0.07973 0.10023 0.85950 -0.04700
H 	H 	0.06440 0.08720 0.79290 0.04400
C 	C 	0.07932 0.13072 0.92360 -0.09800
H 	H 	0.06430 0.14350 0.90880 0.06500
C 	C 	0.10607 0.13987 0.01800 0.10700
C 	C 	0.11387 0.16659 0.10440 -0.18100
C 	C 	0.13874 0.17384 0.19430 0.12000
C 	C 	0.14416 0.19886 0.28500 -0.11100
H 	H 	0.13100 0.21380 0.29610 0.07200
C 	C 	0.17137 0.19709 0.35160 -0.03100
H 	H 	0.18070 0.21030 0.41850 0.03700
C 	C 	0.18340 0.17194 0.30360 0.01700
H 	H 	0.20290 0.16610 0.33390 0.00500
C 	C 	0.09236 0.19092 0.10130 0.16200
C 	C 	0.04509 0.16645 0.07610 -0.18000
H 	H 	0.02390 0.13310 0.06030 0.10200
C 	C 	0.02768 0.19140 0.07380 0.09500
H 	H 	0.99460 0.17420 0.05630 0.02900
C 	C 	0.10158 0.26072 0.12010 0.10500
H 	H 	0.12240 0.29400 0.13510 0.01600
C 	C 	0.12077 0.23819 0.12530 -0.19100
H 	H 	0.15400 0.25640 0.14600 0.10200
C 	C 	0.14982 0.03428 0.97450 0.05900
H 	H 	0.11820 0.01360 0.97550 0.00000
C 	C 	0.17228 0.01882 0.93180 -0.06300
H 	H 	0.15880 0.98740 0.89960 0.12500
C 	C 	0.21654 0.05840 0.94740 -0.06800
H 	H 	0.24060 0.05980 0.92960 0.07500
C 	C 	0.22134 0.09786 0.99460 0.10000
C 	C 	0.26036 0.14574 0.01920 -0.17600
C 	C 	0.26138 0.18258 0.05850 0.11600
C 	C 	0.29758 0.23164 0.07300 -0.10200
H 	H 	0.32660 0.24540 0.06030 0.07300
C 	C 	0.28298 0.25560 0.10900 -0.03700
H 	H 	0.29960 0.28860 0.12500 0.04300
C 	C 	0.23874 0.22130 0.11680 0.02400
H 	H 	0.22040 0.22780 0.14030 -0.00400
C 	C 	0.30429 0.15715 0.00430 0.17000
C 	C 	0.31920 0.17218 0.93370 -0.20700
H 	H 	0.30330 0.17850 0.89170 0.10300
C 	C 	0.35961 0.17879 0.92150 0.11500
H 	H 	0.36700 0.18480 0.86480 0.00100
C 	C 	0.37235 0.16421 0.05700 0.09300
H 	H 	0.39120 0.16180 0.10210 0.03300
C 	C 	0.33160 0.15404 0.07260 -0.17500
H 	H 	0.32290 0.14550 0.12680 0.11400
C 	C 	0.26549 0.16415 0.25430 0.03200
H 	H 	0.27990 0.19470 0.24900 0.00800
C 	C 	0.28897 0.15119 0.30550 -0.04900
H 	H 	0.32160 0.17160 0.34040 0.10200
C 	C 	0.25708 0.10466 0.29640 -0.07000
H 	H 	0.26310 0.08650 0.32300 0.07700
C 	C 	0.21131 0.08777 0.23730 0.10100
C 	C 	0.16802 0.04314 0.21420 -0.16300
C 	C 	0.12444 0.02906 0.16930 0.11000
C 	C 	0.07884 0.98520 0.14960 -0.09900
H 	H 	0.07200 0.95840 0.16490 0.06800
C 	C 	0.04615 0.98821 0.10440 -0.03600
H 	H 	0.01280 0.96460 0.08560 0.04200
C 	C 	0.07121 0.03259 0.09170 0.01600
H 	H 	0.05710 0.04350 0.06000 -0.00000
C 	C 	0.16881 0.00587 0.23800 0.13100
C 	C 	0.18387 0.98811 0.18340 -0.17200
H 	H 	0.19470 0.99990 0.13330 0.11600
C 	C 	0.18322 0.95272 0.20160 0.11200
H 	H 	0.19330 0.94030 0.16190 0.01400
C 	C 	0.13780 0.94320 0.31120 0.02300
H 	H 	0.11920 0.92460 0.34700 0.03800
C 	C 	0.13885 0.97875 0.29230 -0.12700
H 	H 	0.12020 0.98540 0.31440 0.07200
C 	C 	0.97820 0.44636 0.80000 0.01400
H 	H 	0.97810 0.46930 0.78030 0.00100
C 	C 	0.99436 0.45026 0.89490 -0.02800
H 	H 	0.00590 0.47530 0.94940 0.04000
C 	C 	0.99047 0.41127 0.89440 -0.10700
H 	H 	0.99940 0.40440 0.94790 0.07800
C 	C 	0.96999 0.38289 0.79630 0.12400
C 	C 	0.95867 0.33957 0.76240 -0.17500
C 	C 	0.93593 0.31053 0.66740 0.10300
C 	C 	0.92295 0.26483 0.63010 -0.06700
H 	H 	0.92920 0.24880 0.66470 0.06400
C 	C 	0.89996 0.24922 0.53550 -0.06300
H 	H 	0.88670 0.21990 0.49140 0.11300
C 	C 	0.89952 0.28460 0.51530 0.05500
H 	H 	0.88560 0.28260 0.45400 0.00300
C 	C 	0.97356 0.32196 0.83340 0.16200
C 	C 	0.94152 0.28600 0.86320 -0.19600
H 	H 	0.90890 0.27090 0.84000 0.09800
C 	C 	0.95720 0.27180 0.92780 0.09800
H 	H 	0.93470 0.24690 0.94890 0.00300
C 	C 	0.03302 0.32602 0.93060 0.10400
H 	H 	0.06540 0.34020 0.95350 0.04400
C 	C 	0.02002 0.34204 0.86670 -0.18500
H 	H 	0.04290 0.36670 0.84580 0.12700
C 	C 	0.01279 0.49245 0.61740 0.03100
H 	H 	0.03830 0.49210 0.62600 -0.00400
C 	C 	0.01745 0.53263 0.62000 -0.04500
H 	H 	0.04600 0.56340 0.63070 0.04300
C 	C 	0.97348 0.51968 0.60430 -0.10000
H 	H 	0.96560 0.53960 0.60180 0.06600
C 	C 	0.94146 0.47004 0.59230 0.11000
C 	C 	0.89376 0.44174 0.57920 -0.17400
C 	C 	0.86341 0.39517 0.57590 0.10800
C 	C 	0.81324 0.36364 0.55420 -0.10000
H 	H 	0.79340 0.37160 0.54240 0.06500
C 	C 	0.79886 0.32026 0.55350 -0.04200
H 	H 	0.76740 0.29260 0.54210 0.04000
C 	C 	0.83950 0.32444 0.57300 0.02800
H 	H 	0.83920 0.29900 0.57600 -0.00500
C 	C 	0.87077 0.46481 0.56690 0.14900
C 	C 	0.86523 0.47535 0.48330 -0.18400
H 	H 	0.87520 0.46840 0.43370 0.09700
C 	C 	0.84496 0.49604 0.47390 0.09300
H 	H 	0.84010 0.50250 0.41630 0.01300
C 	C 	0.83786 0.49774 0.62340 0.09100
H 	H 	0.82900 0.50640 0.67320 0.01500
C 	C 	0.85659 0.47561 0.63640 -0.18800
H 	H 	0.85950 0.46810 0.69350 0.10000
C 	C 	0.88731 0.35457 0.39160 0.02600
H 	H 	0.86560 0.35740 0.40980 -0.00200
C 	C 	0.88294 0.33668 0.29760 -0.03800
H 	H 	0.85840 0.32560 0.24230 0.04500
C 	C 	0.92067 0.33813 0.30080 -0.09600
H 	H 	0.92730 0.32810 0.24800 0.07400
C 	C 	0.94837 0.35755 0.39880 0.11000
C 	C 	0.99020 0.36536 0.43580 -0.16600
C 	C 	0.01940 0.38906 0.53160 0.10300
C 	C 	0.06311 0.39969 0.57070 -0.07400
H 	H 	0.07780 0.39080 0.53790 0.06300
C 	C 	0.07990 0.42482 0.66380 -0.06400
H 	H 	0.10890 0.43770 0.70830 0.10700
C 	C 	0.04564 0.42798 0.68130 0.05000
H 	H 	0.04810 0.44310 0.74190 0.00500
C 	C 	0.00505 0.34705 0.36870 0.14600
C 	C 	0.04677 0.37537 0.34720 -0.17800
H 	H 	0.06840 0.40840 0.37830 0.09200
C 	C 	0.05672 0.35516 0.27980 0.09100
H 	H 	0.08550 0.37510 0.26610 0.00900
C 	C 	0.98800 0.28176 0.25580 0.09100
H 	H 	0.96720 0.24880 0.22390 0.05300
C 	C 	0.97548 0.29858 0.32180 -0.16300
H 	H 	0.94700 0.27740 0.33550 0.12200
C 	C 	0.31964 0.76266 0.45610 0.03300
H 	H 	0.32010 0.78670 0.44100 -0.00400
C 	C 	0.33506 0.76386 0.54950 -0.03600
H 	H 	0.34690 0.78790 0.60670 0.04700
C 	C 	0.32963 0.72397 0.54150 -0.09600
H 	H 	0.33750 0.71490 0.59230 0.08000
C 	C 	0.31005 0.69825 0.44310 0.11600
C 	C 	0.29894 0.65532 0.40230 -0.17700
C 	C 	0.27832 0.62878 0.30770 0.10500
C 	C 	0.26385 0.58335 0.26600 -0.06600
H 	H 	0.26770 0.56530 0.29860 0.07400
C 	C 	0.24342 0.57044 0.17030 -0.06100
H 	H 	0.23000 0.54160 0.12410 0.13400
C 	C 	0.24606 0.60758 0.15390 0.05700
H 	H 	0.23490 0.60790 0.09280 0.01000
C 	C 	0.31334 0.63744 0.47100 0.15900
C 	C 	0.28398 0.60846 0.51720 -0.19500
H 	H 	0.25210 0.59590 0.50160 0.10000
C 	C 	0.30211 0.59791 0.58760 0.10800
H 	H 	0.28160 0.57760 0.61880 -0.00300
C 	C 	0.37346 0.64082 0.56590 0.10500
H 	H 	0.40490 0.65190 0.58260 0.02700
C 	C 	0.35918 0.65324 0.49310 -0.17500
H 	H 	0.38000 0.67180 0.46010 0.13100
C 	C 	0.18342 0.64292 0.21270 0.03500
H 	H 	0.18350 0.61730 0.20990 -0.00400
C 	C 	0.14242 0.63816 0.19460 -0.04500
H 	H 	0.11090 0.60970 0.17740 0.04300
C 	C 	0.15695 0.68263 0.20650 -0.10100
H 	H 	0.13730 0.69090 0.19960 0.06500
C 	C 	0.20734 0.71442 0.23140 0.11100
C 	C 	0.19990 0.79158 0.32560 -0.17800
H 	H 	0.20320 0.78140 0.37840 0.09300
C 	C 	0.18015 0.81307 0.32320 0.08300
H 	H 	0.17110 0.81830 0.37640 0.01400
C 	C 	0.62300 0.49884 0.88430 0.06600
H 	H 	0.64050 0.52850 0.87300 -0.00100
C 	C 	0.64362 0.48432 0.93730 -0.06600
H 	H 	0.67620 0.50140 0.96770 0.12900
C 	C 	0.60645 0.44019 0.93560 -0.06600
H 	H 	0.60860 0.42020 0.96420 0.07300
C 	C 	0.56441 0.42945 0.88370 0.10500
C 	C 	0.51811 0.38857 0.86830 -0.16700
C 	C 	0.47701 0.37969 0.81780 0.11000
C 	C 	0.42964 0.33974 0.80360 -0.09600
H 	H 	0.41990 0.31390 0.82690 0.07500
C 	C 	0.40089 0.34473 0.75140 -0.03600
H 	H 	0.36740 0.32340 0.73050 0.04400
C 	C 	0.43077 0.38791 0.73460 0.02700
H 	H 	0.41960 0.40020 0.69910 -0.00300
C 	C 	0.51116 0.35032 0.90330 0.15000
C 	C 	0.51585 0.35071 0.99610 -0.18800
H 	H 	0.52500 0.37720 0.04360 0.09600
C 	C 	0.50718 0.31238 0.02070 0.09700
H 	H 	0.51040 0.31340 0.08540 -0.00000
C 	C 	0.49139 0.27435 0.86910 0.10400
H 	H 	0.48350 0.24770 0.82440 0.02300
C 	C 	0.49859 0.30991 0.83520 -0.17400
H 	H 	0.49540 0.30780 0.77000 0.13300
C 	C 	0.47238 0.44576 0.55670 0.03400
H 	H 	0.47880 0.42640 0.52890 -0.00600
C 	C 	0.44387 0.45397 0.50410 -0.04200
H 	H 	0.42870 0.44210 0.43740 0.04300
C 	C 	0.44353 0.48281 0.57150 -0.10200
H 	H 	0.42690 0.49430 0.55970 0.06600
C 	C 	0.47160 0.49292 0.66140 0.11100
C 	C 	0.47407 0.57975 0.71330 -0.16600
H 	H 	0.49920 0.59120 0.68690 0.09100
C 	C 	0.45220 0.60030 0.71660 0.07600
H 	H 	0.46380 0.62660 0.69410 0.01800
C 	C 	0.18589 0.42371 0.07390 0.82000
C 	C 	0.76829 0.51109 0.16090 0.83000
C 	C 	0.12402 0.86658 0.88030 0.78600
F 	F 	0.16316 0.43632 0.03380 -0.45600
F 	F 	0.18240 0.39432 0.00480 -0.45900
F 	F 	0.23059 0.46265 0.11050 -0.46700
F 	F 	0.80811 0.52231 0.15490 -0.46400
F 	F 	0.77265 0.54929 0.17280 -0.45900
F 	F 	0.73560 0.48120 0.07760 -0.46700
F 	F 	0.16045 0.91481 0.92260 -0.45300
F 	F 	0.09079 0.86481 0.82470 -0.44500
F 	F 	0.13154 0.83720 0.85560 -0.50200
Ga	Ga	0.16990 0.11935 0.10869 2.01700
Ga	Ga	0.94357 0.38815 0.59632 2.01700
N 	N 	0.12280 0.11446 0.00710 -0.36600
N 	N 	0.16326 0.15724 0.20810 -0.36400
N 	N 	0.05618 0.23782 0.09520 -0.18800
N 	N 	0.17828 0.08066 0.01220 -0.35300
N 	N 	0.22531 0.17779 0.08700 -0.36500
N 	N 	0.38670 0.17726 0.98120 -0.19300
N 	N 	0.21863 0.12549 0.21330 -0.34700
N 	N 	0.11894 0.05862 0.13090 -0.36300
N 	N 	0.16983 0.93549 0.26890 -0.17500
N 	N 	0.96279 0.40529 0.74010 -0.36800
N 	N 	0.92098 0.32124 0.59260 -0.35000
N 	N 	0.00245 0.29157 0.96190 -0.18600
N 	N 	0.96768 0.45432 0.60110 -0.36400
N 	N 	0.87890 0.36864 0.58710 -0.36500
N 	N 	0.49280 0.16802 0.95680 -0.19400
N 	N 	0.92615 0.36721 0.45270 -0.36800
N 	N 	0.00922 0.40724 0.60260 -0.35100
N 	N 	0.02786 0.30926 0.23380 -0.17800
N 	N 	0.30453 0.72381 0.39200 -0.37400
N 	N 	0.26648 0.64304 0.23490 -0.35300
N 	N 	0.34564 0.61432 0.61300 -0.19600
N 	N 	0.22206 0.68752 0.23414 -0.35800
N 	N 	0.57678 0.46720 0.85190 -0.35500
N 	N 	0.47695 0.41035 0.77380 -0.36700
N 	N 	0.49451 0.27399 0.95750 -0.19000
N 	N 	0.48866 0.46840 0.64850 -0.36200
O 	O 	0.19133 0.38631 0.19870 -0.19900
O 	O 	0.16740 0.43362 0.22690 -0.21400
O 	O 	0.11408 0.35650 0.10940 -0.23700
O 	O 	0.70647 0.47505 0.25000 -0.23000
O 	O 	0.79000 0.52302 0.33980 -0.24300
O 	O 	0.74823 0.44521 0.23260 -0.20000
O 	O 	0.06018 0.80052 0.94130 -0.24100
O 	O 	0.14080 0.85624 0.04950 -0.23000
O 	O 	0.09394 0.88362 0.00860 -0.14300
S 	S 	0.16215 0.39705 0.16234 0.31700
S 	S 	0.75087 0.48555 0.25659 0.31900
S 	S 	0.10459 0.84487 0.97395 0.32400
Ag	Ag	0.72238 0.97091 0.41149 0.57300
Ag	Ag	0.79915 0.54163 0.52109 0.55700
C 	C 	0.90763 0.89245 0.58680 0.02800
H 	H 	0.92640 0.88520 0.61390 -0.00200
C 	C 	0.89977 0.92027 0.64050 -0.04700
H 	H 	0.91280 0.93560 0.70710 0.04400
C 	C 	0.86928 0.92068 0.57640 -0.09700
H 	H 	0.85650 0.93570 0.59120 0.06500
C 	C 	0.86013 0.89393 0.48200 0.10700
C 	C 	0.83341 0.88613 0.39560 -0.18100
C 	C 	0.82616 0.86126 0.30570 0.12000
C 	C 	0.80114 0.85584 0.21500 -0.11100
H 	H 	0.78620 0.86900 0.20390 0.07200
C 	C 	0.80291 0.82863 0.14840 -0.03100
H 	H 	0.78970 0.81930 0.08150 0.03700
C 	C 	0.82806 0.81660 0.19640 0.01600
H 	H 	0.83390 0.79710 0.16610 0.00400
C 	C 	0.80908 0.90764 0.39870 0.16200
C 	C 	0.83355 0.95491 0.42390 -0.18100
H 	H 	0.86690 0.97610 0.43970 0.10200
C 	C 	0.80860 0.97232 0.42620 0.09600
H 	H 	0.82580 0.00540 0.44370 0.02900
C 	C 	0.73928 0.89842 0.37990 0.10500
H 	H 	0.70600 0.87760 0.36490 0.01600
C 	C 	0.76181 0.87923 0.37470 -0.19100
H 	H 	0.74360 0.84600 0.35400 0.10200
C 	C 	0.96572 0.85018 0.52550 0.05900
H 	H 	0.98640 0.88180 0.52450 0.00100
C 	C 	0.98118 0.82772 0.56820 -0.06200
H 	H 	0.01260 0.84120 0.60040 0.12400
C 	C 	0.94160 0.78346 0.55260 -0.06800
H 	H 	0.94020 0.75940 0.57040 0.07500
C 	C 	0.90214 0.77866 0.50540 0.10100
C 	C 	0.85426 0.73964 0.48080 -0.17600
C 	C 	0.81742 0.73862 0.44150 0.11600
C 	C 	0.76836 0.70242 0.42700 -0.10200
H 	H 	0.75460 0.67340 0.43970 0.07300
C 	C 	0.74440 0.71702 0.39100 -0.03700
H 	H 	0.71140 0.70040 0.37500 0.04300
C 	C 	0.77870 0.76126 0.38320 0.02400
H 	H 	0.77220 0.77960 0.35970 -0.00400
C 	C 	0.84285 0.69571 0.49570 0.17000
C 	C 	0.82782 0.68080 0.56630 -0.20600
H 	H 	0.82150 0.69670 0.60830 0.10300
C 	C 	0.82121 0.64039 0.57850 0.11500
H 	H 	0.81520 0.63300 0.63520 0.00100
C 	C 	0.83579 0.62765 0.44300 0.09300
H 	H 	0.83820 0.60880 0.39790 0.03400
C 	C 	0.84596 0.66840 0.42740 -0.17500
H 	H 	0.85450 0.67710 0.37320 0.11400
C 	C 	0.83585 0.73451 0.24570 0.03200
H 	H 	0.80530 0.72010 0.25100 0.00800
C 	C 	0.84881 0.71103 0.19450 -0.04900
H 	H 	0.82840 0.67840 0.15960 0.10200
C 	C 	0.89534 0.74292 0.20360 -0.07000
H 	H 	0.91350 0.73690 0.17700 0.07600
C 	C 	0.91223 0.78869 0.26270 0.10000
C 	C 	0.95686 0.83198 0.28580 -0.16300
C 	C 	0.97094 0.87556 0.33070 0.10900
C 	C 	0.01480 0.92116 0.35040 -0.09900
H 	H 	0.04160 0.92800 0.33510 0.06800
C 	C 	0.01179 0.95385 0.39560 -0.03500
H 	H 	0.03540 0.98720 0.41440 0.04200
C 	C 	0.96741 0.92879 0.40830 0.01500
H 	H 	0.95650 0.94290 0.44000 -0.00000
C 	C 	0.99413 0.83119 0.26200 0.13000
C 	C 	0.01189 0.81613 0.31660 -0.17100
H 	H 	0.00010 0.80530 0.36670 0.11600
C 	C 	0.04728 0.81678 0.29840 0.11200
H 	H 	0.05970 0.80670 0.33810 0.01400
C 	C 	0.05680 0.86220 0.18880 0.02300
H 	H 	0.07540 0.88080 0.15300 0.03800
C 	C 	0.02125 0.86115 0.20770 -0.12600
H 	H 	0.01460 0.87980 0.18560 0.07200
C 	C 	0.55364 0.02180 0.70000 0.01400
H 	H 	0.53070 0.02190 0.71970 0.00100
C 	C 	0.54974 0.00564 0.60510 -0.02700
H 	H 	0.52470 0.99410 0.55060 0.04000
C 	C 	0.58873 0.00953 0.60560 -0.10700
H 	H 	0.59560 0.00060 0.55210 0.07800
C 	C 	0.61711 0.03001 0.70370 0.12500
C 	C 	0.66043 0.04133 0.73760 -0.17500
C 	C 	0.68947 0.06407 0.83260 0.10200
C 	C 	0.73517 0.07705 0.86990 -0.06600
H 	H 	0.75120 0.07080 0.83530 0.06400
C 	C 	0.75078 0.10004 0.96450 -0.06500
H 	H 	0.78010 0.11330 0.00860 0.11300
C 	C 	0.71540 0.10048 0.98470 0.05400
H 	H 	0.71740 0.11440 0.04600 0.00300
C 	C 	0.67804 0.02644 0.66660 0.16200
C 	C 	0.71400 0.05848 0.63680 -0.19600
H 	H 	0.72910 0.09110 0.66000 0.09800
C 	C 	0.72820 0.04280 0.57220 0.09800
H 	H 	0.75310 0.06530 0.55110 0.00400
C 	C 	0.67398 0.96698 0.56940 0.10400
H 	H 	0.65980 0.93460 0.54650 0.04400
C 	C 	0.65796 0.97998 0.63330 -0.18500
H 	H 	0.63330 0.95710 0.65420 0.12700
C 	C 	0.50755 0.98721 0.88260 0.03100
H 	H 	0.50790 0.96170 0.87400 -0.00400
C 	C 	0.46737 0.98255 0.88000 -0.04400
H 	H 	0.43660 0.95400 0.86930 0.04300
C 	C 	0.48032 0.02652 0.89570 -0.10000
H 	H 	0.46040 0.03440 0.89820 0.06600
C 	C 	0.52996 0.05854 0.90770 0.11000
C 	C 	0.55826 0.10624 0.92080 -0.17400
C 	C 	0.60483 0.13659 0.92410 0.10700
C 	C 	0.63636 0.18676 0.94580 -0.10000
H 	H 	0.62840 0.20660 0.95760 0.06500
C 	C 	0.67974 0.20114 0.94650 -0.04200
H 	H 	0.70740 0.23260 0.95790 0.04000
C 	C 	0.67556 0.16050 0.92700 0.02700
H 	H 	0.70100 0.16080 0.92400 -0.00500
C 	C 	0.53519 0.12923 0.93310 0.14800
C 	C 	0.52465 0.13477 0.01670 -0.18300
H 	H 	0.53160 0.12480 0.06630 0.09600
C 	C 	0.50396 0.15504 0.02610 0.09300
H 	H 	0.49750 0.15990 0.08370 0.01300
C 	C 	0.50226 0.16214 0.87660 0.09100
H 	H 	0.49360 0.17100 0.82680 0.01500
C 	C 	0.52439 0.14341 0.86360 -0.18800
H 	H 	0.53190 0.14050 0.80650 0.10000
C 	C 	0.64543 0.11269 0.10840 0.02700
H 	H 	0.64260 0.13440 0.09020 -0.00100
C 	C 	0.66332 0.11706 0.20240 -0.03800
H 	H 	0.67440 0.14160 0.25770 0.04500
C 	C 	0.66187 0.07933 0.19920 -0.09500
H 	H 	0.67190 0.07270 0.25200 0.07400
C 	C 	0.64245 0.05163 0.10120 0.10900
C 	C 	0.63464 0.00980 0.06420 -0.16500
C 	C 	0.61094 0.98060 0.96840 0.10300
C 	C 	0.60031 0.93689 0.92930 -0.07300
H 	H 	0.60920 0.92220 0.96210 0.06300
C 	C 	0.57518 0.92010 0.83620 -0.06400
H 	H 	0.56230 0.89110 0.79170 0.10700
C 	C 	0.57202 0.95436 0.81870 0.05000
H 	H 	0.55690 0.95190 0.75810 0.00500
C 	C 	0.65295 0.99495 0.13130 0.14400
C 	C 	0.62463 0.95323 0.15280 -0.17700
H 	H 	0.59160 0.93160 0.12170 0.09200
C 	C 	0.64484 0.94328 0.22020 0.09100
H 	H 	0.62490 0.91450 0.23390 0.00900
C 	C 	0.71824 0.01200 0.24420 0.09100
H 	H 	0.75120 0.03280 0.27610 0.05300
C 	C 	0.70142 0.02452 0.17820 -0.16200
H 	H 	0.72260 0.05300 0.16450 0.12200
C 	C 	0.23734 0.68036 0.04390 0.03300
H 	H 	0.21330 0.67990 0.05900 -0.00400
C 	C 	0.23614 0.66494 0.95050 -0.03600
H 	H 	0.21210 0.65310 0.89330 0.04700
C 	C 	0.27603 0.67037 0.95850 -0.09600
H 	H 	0.28510 0.66250 0.90770 0.08000
C 	C 	0.30175 0.68995 0.05690 0.11500
C 	C 	0.34468 0.70106 0.09770 -0.17700
C 	C 	0.37122 0.72168 0.19230 0.10500
C 	C 	0.41665 0.73615 0.23400 -0.06600
H 	H 	0.43470 0.73230 0.20140 0.07400
C 	C 	0.42956 0.75658 0.32970 -0.06100
H 	H 	0.45840 0.77000 0.37590 0.13400
C 	C 	0.39242 0.75394 0.34610 0.05700
H 	H 	0.39210 0.76510 0.40720 0.01100
C 	C 	0.36256 0.68666 0.02900 0.15800
C 	C 	0.39154 0.71602 0.98280 -0.19500
H 	H 	0.40410 0.74790 0.99840 0.10000
C 	C 	0.40209 0.69789 0.91240 0.10800
H 	H 	0.42240 0.71840 0.88120 -0.00200
C 	C 	0.35918 0.62654 0.93410 0.10500
H 	H 	0.34810 0.59510 0.91740 0.02700
C 	C 	0.34676 0.64082 0.00690 -0.17500
H 	H 	0.32820 0.62000 0.03990 0.13100
C 	C 	0.35708 0.81658 0.28730 0.03500
H 	H 	0.38270 0.81650 0.29010 -0.00400
C 	C 	0.36184 0.85758 0.30540 -0.04500
H 	H 	0.39030 0.88910 0.32260 0.04300
C 	C 	0.31737 0.84305 0.29350 -0.10100
H 	H 	0.30910 0.86270 0.30040 0.06500
C 	C 	0.28558 0.79266 0.26860 0.11100
C 	C 	0.20842 0.80010 0.17440 -0.17800
H 	H 	0.21860 0.79680 0.12160 0.09300
C 	C 	0.18693 0.81985 0.17680 0.08300
H 	H 	0.18170 0.82890 0.12360 0.01400
C 	C 	0.50116 0.37700 0.61570 0.06600
H 	H 	0.47150 0.35950 0.62700 -0.00100
C 	C 	0.51568 0.35638 0.56270 -0.06600
H 	H 	0.49860 0.32380 0.53230 0.12900
C 	C 	0.55981 0.39355 0.56440 -0.06600
H 	H 	0.57980 0.39140 0.53580 0.07300
C 	C 	0.57055 0.43559 0.61630 0.10500
C 	C 	0.61143 0.48189 0.63170 -0.16700
C 	C 	0.62031 0.52299 0.68220 0.11000
C 	C 	0.66026 0.57036 0.69640 -0.09600
H 	H 	0.68610 0.58010 0.67310 0.07500
C 	C 	0.65527 0.59911 0.74860 -0.03600
H 	H 	0.67660 0.63260 0.76950 0.04400
C 	C 	0.61209 0.56923 0.76540 0.02700
H 	H 	0.59980 0.58040 0.80090 -0.00300
C 	C 	0.64968 0.48884 0.59670 0.14900
C 	C 	0.64929 0.48415 0.50390 -0.18600
H 	H 	0.62280 0.47500 0.45640 0.09500
C 	C 	0.68762 0.49282 0.47930 0.09600
H 	H 	0.68660 0.48960 0.41460 -0.00000
C 	C 	0.72565 0.50861 0.63090 0.10400
H 	H 	0.75230 0.51650 0.67560 0.02300
C 	C 	0.69009 0.50141 0.66480 -0.17400
H 	H 	0.69220 0.50460 0.73000 0.13300
C 	C 	0.55424 0.52762 0.94330 0.03400
H 	H 	0.57360 0.52120 0.97110 -0.00600
C 	C 	0.54603 0.55613 0.99590 -0.04200
H 	H 	0.55790 0.57130 0.06260 0.04300
C 	C 	0.51719 0.55647 0.92850 -0.10200
H 	H 	0.50570 0.57310 0.94030 0.06600
C 	C 	0.50708 0.52840 0.83860 0.11100
C 	C 	0.42025 0.52593 0.78670 -0.16600
H 	H 	0.40880 0.50080 0.81310 0.09100
C 	C 	0.39970 0.54780 0.78340 0.07600
H 	H 	0.37340 0.53620 0.80590 0.01800
C 	C 	0.57629 0.81411 0.42610 0.82000
C 	C 	0.48891 0.23171 0.33910 0.83000
C 	C 	0.13342 0.87598 0.61970 0.78700
F 	F 	0.56368 0.83684 0.46620 -0.45600
F 	F 	0.60568 0.81760 0.49520 -0.45900
F 	F 	0.53735 0.76941 0.38950 -0.46700
F 	F 	0.47769 0.19189 0.34510 -0.46400
F 	F 	0.45071 0.22735 0.32720 -0.45900
F 	F 	0.51880 0.26440 0.42240 -0.46700
F 	F 	0.08519 0.83955 0.57740 -0.45400
F 	F 	0.13519 0.90921 0.67530 -0.44500
F 	F 	0.16280 0.86846 0.64440 -0.50200
Ga	Ga	0.88065 0.83010 0.39131 2.01700
Ga	Ga	0.61185 0.05643 0.90368 2.01700
N 	N 	0.88554 0.87720 0.49290 -0.36600
N 	N 	0.84276 0.83674 0.29190 -0.36400
N 	N 	0.76218 0.94382 0.40480 -0.18800
N 	N 	0.91934 0.82172 0.48780 -0.35400
N 	N 	0.82221 0.77469 0.41300 -0.36500
N 	N 	0.82274 0.61330 0.51880 -0.19300
N 	N 	0.87451 0.78137 0.28670 -0.34700
N 	N 	0.94138 0.88106 0.36910 -0.36300
N 	N 	0.06451 0.83017 0.23110 -0.17500
N 	N 	0.59471 0.03721 0.75990 -0.36800
N 	N 	0.67876 0.07902 0.90740 -0.35000
N 	N 	0.70843 0.99755 0.53810 -0.18600
N 	N 	0.54568 0.03232 0.89890 -0.36400
N 	N 	0.63136 0.12110 0.91290 -0.36500
N 	N 	0.83198 0.50720 0.54320 -0.19300
N 	N 	0.63279 0.07385 0.04730 -0.36700
N 	N 	0.59276 0.99078 0.89740 -0.35100
N 	N 	0.69074 0.97214 0.26620 -0.17800
N 	N 	0.27619 0.69547 0.10800 -0.37400
N 	N 	0.35696 0.73352 0.26510 -0.35300
N 	N 	0.38568 0.65436 0.88700 -0.19600
N 	N 	0.31248 0.77794 0.26586 -0.35800
N 	N 	0.53280 0.42322 0.64810 -0.35500
N 	N 	0.58965 0.52305 0.72620 -0.36700
N 	N 	0.72601 0.50549 0.54250 -0.19000
N 	N 	0.53160 0.51134 0.85150 -0.36200
O 	O 	0.61369 0.80867 0.30130 -0.19900
O 	O 	0.56638 0.83260 0.27310 -0.21400
O 	O 	0.64350 0.88592 0.39060 -0.23700
O 	O 	0.52495 0.29353 0.25000 -0.23000
O 	O 	0.47698 0.21000 0.16020 -0.24200
O 	O 	0.55479 0.25177 0.26740 -0.20000
O 	O 	0.19948 0.93982 0.55870 -0.24100
O 	O 	0.14376 0.85920 0.45050 -0.22900
O 	O 	0.11638 0.90606 0.49140 -0.14200
S 	S 	0.60295 0.83785 0.33766 0.31700
S 	S 	0.51445 0.24913 0.24341 0.31900
S 	S 	0.15513 0.89541 0.52605 0.32300
Ag	Ag	0.97091 0.72238 0.91149 0.57300
Ag	Ag	0.54163 0.79915 0.02109 0.55700
C 	C 	0.89245 0.90763 0.08680 0.02700
H 	H 	0.88520 0.92640 0.11390 -0.00200
C 	C 	0.92027 0.89977 0.14050 -0.04700
H 	H 	0.93560 0.91280 0.20710 0.04400
C 	C 	0.92068 0.86928 0.07640 -0.09800
H 	H 	0.93570 0.85650 0.09120 0.06500
C 	C 	0.89393 0.86013 0.98200 0.10700
C 	C 	0.88613 0.83341 0.89560 -0.18100
C 	C 	0.86126 0.82616 0.80570 0.12000
C 	C 	0.85584 0.80114 0.71500 -0.11100
H 	H 	0.86900 0.78620 0.70390 0.07200
C 	C 	0.82863 0.80291 0.64840 -0.03100
H 	H 	0.81930 0.78970 0.58150 0.03700
C 	C 	0.81660 0.82806 0.69640 0.01700
H 	H 	0.79710 0.83390 0.66610 0.00500
C 	C 	0.90764 0.80908 0.89870 0.16200
C 	C 	0.95491 0.83355 0.92390 -0.18000
H 	H 	0.97610 0.86690 0.93970 0.10200
C 	C 	0.97232 0.80860 0.92620 0.09500
H 	H 	0.00540 0.82580 0.94370 0.02900
C 	C 	0.89842 0.73928 0.87990 0.10500
H 	H 	0.87760 0.70600 0.86490 0.01600
C 	C 	0.87923 0.76181 0.87470 -0.19100
H 	H 	0.84600 0.74360 0.85400 0.10200
C 	C 	0.85018 0.96572 0.02550 0.05900
H 	H 	0.88180 0.98640 0.02450 0.00000
C 	C 	0.82772 0.98118 0.06820 -0.06300
H 	H 	0.84120 0.01260 0.10040 0.12500
C 	C 	0.78346 0.94160 0.05260 -0.06800
H 	H 	0.75940 0.94020 0.07040 0.07500
C 	C 	0.77866 0.90214 0.00540 0.10000
C 	C 	0.73964 0.85426 0.98080 -0.17600
C 	C 	0.73862 0.81742 0.94150 0.11600
C 	C 	0.70242 0.76836 0.92700 -0.10200
H 	H 	0.67340 0.75460 0.93970 0.07300
C 	C 	0.71702 0.74440 0.89100 -0.03700
H 	H 	0.70040 0.71140 0.87500 0.04300
C 	C 	0.76126 0.77870 0.88320 0.02400
H 	H 	0.77960 0.77220 0.85970 -0.00400
C 	C 	0.69571 0.84285 0.99570 0.17000
C 	C 	0.68080 0.82782 0.06630 -0.20700
H 	H 	0.69670 0.82150 0.10830 0.10300
C 	C 	0.64039 0.82121 0.07850 0.11500
H 	H 	0.63300 0.81520 0.13520 0.00100
C 	C 	0.62765 0.83579 0.94300 0.09300
H 	H 	0.60880 0.83820 0.89790 0.03300
C 	C 	0.66840 0.84596 0.92740 -0.17500
H 	H 	0.67710 0.85450 0.87320 0.11400
C 	C 	0.73451 0.83585 0.74570 0.03200
H 	H 	0.72010 0.80530 0.75100 0.00800
C 	C 	0.71103 0.84881 0.69450 -0.04900
H 	H 	0.67840 0.82840 0.65960 0.10200
C 	C 	0.74292 0.89534 0.70360 -0.07000
H 	H 	0.73690 0.91350 0.67700 0.07700
C 	C 	0.78869 0.91223 0.76270 0.10100
C 	C 	0.83198 0.95686 0.78580 -0.16300
C 	C 	0.87556 0.97094 0.83070 0.11000
C 	C 	0.92116 0.01480 0.85040 -0.09900
H 	H 	0.92800 0.04160 0.83510 0.06800
C 	C 	0.95385 0.01179 0.89560 -0.03600
H 	H 	0.98720 0.03540 0.91440 0.04200
C 	C 	0.92879 0.96741 0.90830 0.01600
H 	H 	0.94290 0.95650 0.94000 -0.00000
C 	C 	0.83119 0.99413 0.76200 0.13100
C 	C 	0.81613 0.01189 0.81660 -0.17200
H 	H 	0.80530 0.00010 0.86670 0.11600
C 	C 	0.81678 0.04728 0.79840 0.11200
H 	H 	0.80670 0.05970 0.83810 0.01400
C 	C 	0.86220 0.05680 0.68880 0.02300
H 	H 	0.88080 0.07540 0.65300 0.03800
C 	C 	0.86115 0.02125 0.70770 -0.12700
H 	H 	0.87980 0.01460 0.68560 0.07200
C 	C 	0.02180 0.55364 0.20000 0.01400
H 	H 	0.02190 0.53070 0.21970 0.00100
C 	C 	0.00564 0.54974 0.10510 -0.02800
H 	H 	0.99410 0.52470 0.05060 0.04000
C 	C 	0.00953 0.58873 0.10560 -0.10700
H 	H 	0.00060 0.59560 0.05210 0.07800
C 	C 	0.03001 0.61711 0.20370 0.12400
C 	C 	0.04133 0.66043 0.23760 -0.17500
C 	C 	0.06407 0.68947 0.33260 0.10300
C 	C 	0.07705 0.73517 0.36990 -0.06700
H 	H 	0.07080 0.75120 0.33530 0.06400
C 	C 	0.10004 0.75078 0.46450 -0.06300
H 	H 	0.11330 0.78010 0.50860 0.11300
C 	C 	0.10048 0.71540 0.48470 0.05500
H 	H 	0.11440 0.71740 0.54600 0.00300
C 	C 	0.02644 0.67804 0.16660 0.16200
C 	C 	0.05848 0.71400 0.13680 -0.19600
H 	H 	0.09110 0.72910 0.16000 0.09800
C 	C 	0.04280 0.72820 0.07220 0.09800
H 	H 	0.06530 0.75310 0.05110 0.00300
C 	C 	0.96698 0.67398 0.06940 0.10400
H 	H 	0.93460 0.65980 0.04650 0.04400
C 	C 	0.97998 0.65796 0.13330 -0.18500
H 	H 	0.95710 0.63330 0.15420 0.12700
C 	C 	0.98721 0.50755 0.38260 0.03100
H 	H 	0.96170 0.50790 0.37400 -0.00400
C 	C 	0.98255 0.46737 0.38000 -0.04500
H 	H 	0.95400 0.43660 0.36930 0.04300
C 	C 	0.02652 0.48032 0.39570 -0.10000
H 	H 	0.03440 0.46040 0.39820 0.06600
C 	C 	0.05854 0.52996 0.40770 0.11000
C 	C 	0.10624 0.55826 0.42080 -0.17400
C 	C 	0.13659 0.60483 0.42410 0.10800
C 	C 	0.18676 0.63636 0.44580 -0.10000
H 	H 	0.20660 0.62840 0.45760 0.06500
C 	C 	0.20114 0.67974 0.44650 -0.04200
H 	H 	0.23260 0.70740 0.45790 0.04000
C 	C 	0.16050 0.67556 0.42700 0.02800
H 	H 	0.16080 0.70100 0.42400 -0.00500
C 	C 	0.12923 0.53519 0.43310 0.14900
C 	C 	0.13477 0.52465 0.51670 -0.18400
H 	H 	0.12480 0.53160 0.56630 0.09700
C 	C 	0.15504 0.50396 0.52610 0.09300
H 	H 	0.15990 0.49750 0.58370 0.01300
C 	C 	0.16214 0.50226 0.37660 0.09100
H 	H 	0.17100 0.49360 0.32680 0.01500
C 	C 	0.14341 0.52439 0.36360 -0.18800
H 	H 	0.14050 0.53190 0.30650 0.10000
C 	C 	0.11269 0.64543 0.60840 0.02600
H 	H 	0.13440 0.64260 0.59020 -0.00200
C 	C 	0.11706 0.66332 0.70240 -0.03800
H 	H 	0.14160 0.67440 0.75770 0.04500
C 	C 	0.07933 0.66187 0.69920 -0.09600
H 	H 	0.07270 0.67190 0.75200 0.07400
C 	C 	0.05163 0.64245 0.60120 0.11000
C 	C 	0.00980 0.63464 0.56420 -0.16600
C 	C 	0.98060 0.61094 0.46840 0.10300
C 	C 	0.93689 0.60031 0.42930 -0.07400
H 	H 	0.92220 0.60920 0.46210 0.06300
C 	C 	0.92010 0.57518 0.33620 -0.06400
H 	H 	0.89110 0.56230 0.29170 0.10700
C 	C 	0.95436 0.57202 0.31870 0.05000
H 	H 	0.95190 0.55690 0.25810 0.00500
C 	C 	0.99495 0.65295 0.63130 0.14600
C 	C 	0.95323 0.62463 0.65280 -0.17800
H 	H 	0.93160 0.59160 0.62170 0.09200
C 	C 	0.94328 0.64484 0.72020 0.09100
H 	H 	0.91450 0.62490 0.73390 0.00900
C 	C 	0.01200 0.71824 0.74420 0.09100
H 	H 	0.03280 0.75120 0.77610 0.05300
C 	C 	0.02452 0.70142 0.67820 -0.16300
H 	H 	0.05300 0.72260 0.66450 0.12200
C 	C 	0.68036 0.23734 0.54390 0.03300
H 	H 	0.67990 0.21330 0.55900 -0.00400
C 	C 	0.66494 0.23614 0.45050 -0.03600
H 	H 	0.65310 0.21210 0.39330 0.04700
C 	C 	0.67037 0.27603 0.45850 -0.09600
H 	H 	0.66250 0.28510 0.40770 0.08000
C 	C 	0.68995 0.30175 0.55690 0.11600
C 	C 	0.70106 0.34468 0.59770 -0.17700
C 	C 	0.72168 0.37122 0.69230 0.10500
C 	C 	0.73615 0.41665 0.73400 -0.06600
H 	H 	0.73230 0.43470 0.70140 0.07400
C 	C 	0.75658 0.42956 0.82970 -0.06100
H 	H 	0.77000 0.45840 0.87590 0.13400
C 	C 	0.75394 0.39242 0.84610 0.05700
H 	H 	0.76510 0.39210 0.90720 0.01000
C 	C 	0.68666 0.36256 0.52900 0.15900
C 	C 	0.71602 0.39154 0.48280 -0.19500
H 	H 	0.74790 0.40410 0.49840 0.10000
C 	C 	0.69789 0.40209 0.41240 0.10800
H 	H 	0.71840 0.42240 0.38120 -0.00300
C 	C 	0.62654 0.35918 0.43410 0.10500
H 	H 	0.59510 0.34810 0.41740 0.02700
C 	C 	0.64082 0.34676 0.50690 -0.17500
H 	H 	0.62000 0.32820 0.53990 0.13100
C 	C 	0.81658 0.35708 0.78730 0.03500
H 	H 	0.81650 0.38270 0.79010 -0.00400
C 	C 	0.85758 0.36184 0.80540 -0.04500
H 	H 	0.88910 0.39030 0.82260 0.04300
C 	C 	0.84305 0.31737 0.79350 -0.10100
H 	H 	0.86270 0.30910 0.80040 0.06500
C 	C 	0.79266 0.28558 0.76860 0.11100
C 	C 	0.80010 0.20842 0.67440 -0.17800
H 	H 	0.79680 0.21860 0.62160 0.09300
C 	C 	0.81985 0.18693 0.67680 0.08300
H 	H 	0.82890 0.18170 0.62360 0.01400
C 	C 	0.37700 0.50116 0.11570 0.06600
H 	H 	0.35950 0.47150 0.12700 -0.00100
C 	C 	0.35638 0.51568 0.06270 -0.06600
H 	H 	0.32380 0.49860 0.03230 0.12900
C 	C 	0.39355 0.55981 0.06440 -0.06600
H 	H 	0.39140 0.57980 0.03580 0.07300
C 	C 	0.43559 0.57055 0.11630 0.10500
C 	C 	0.48189 0.61143 0.13170 -0.16700
C 	C 	0.52299 0.62031 0.18220 0.11000
C 	C 	0.57036 0.66026 0.19640 -0.09600
H 	H 	0.58010 0.68610 0.17310 0.07500
C 	C 	0.59911 0.65527 0.24860 -0.03600
H 	H 	0.63260 0.67660 0.26950 0.04400
C 	C 	0.56923 0.61209 0.26540 0.02700
H 	H 	0.58040 0.59980 0.30090 -0.00300
C 	C 	0.48884 0.64968 0.09670 0.15000
C 	C 	0.48415 0.64929 0.00390 -0.18800
H 	H 	0.47500 0.62280 0.95640 0.09600
C 	C 	0.49282 0.68762 0.97930 0.09700
H 	H 	0.48960 0.68660 0.91460 -0.00000
C 	C 	0.50861 0.72565 0.13090 0.10400
H 	H 	0.51650 0.75230 0.17560 0.02300
C 	C 	0.50141 0.69009 0.16480 -0.17400
H 	H 	0.50460 0.69220 0.23000 0.13300
C 	C 	0.52762 0.55424 0.44330 0.03400
H 	H 	0.52120 0.57360 0.47110 -0.00600
C 	C 	0.55613 0.54603 0.49590 -0.04200
H 	H 	0.57130 0.55790 0.56260 0.04300
C 	C 	0.55647 0.51719 0.42850 -0.10200
H 	H 	0.57310 0.50570 0.44030 0.06600
C 	C 	0.52840 0.50708 0.33860 0.11100
C 	C 	0.52593 0.42025 0.28670 -0.16600
H 	H 	0.50080 0.40880 0.31310 0.09100
C 	C 	0.54780 0.39970 0.28340 0.07600
H 	H 	0.53620 0.37340 0.30590 0.01800
C 	C 	0.81411 0.57629 0.92610 0.82000
C 	C 	0.23171 0.48891 0.83910 0.83000
C 	C 	0.87598 0.13342 0.11970 0.78600
F 	F 	0.83684 0.56368 0.96620 -0.45600
F 	F 	0.81760 0.60568 0.99520 -0.45900
F 	F 	0.76941 0.53735 0.88950 -0.46700
F 	F 	0.19189 0.47769 0.84510 -0.46400
F 	F 	0.22735 0.45071 0.82720 -0.45900
F 	F 	0.26440 0.51880 0.92240 -0.46700
F 	F 	0.83955 0.08519 0.07740 -0.45300
F 	F 	0.90921 0.13519 0.17530 -0.44500
F 	F 	0.86846 0.16280 0.14440 -0.50200
Ga	Ga	0.83010 0.88065 0.89131 2.01700
Ga	Ga	0.05643 0.61185 0.40368 2.01700
N 	N 	0.87720 0.88554 0.99290 -0.36600
N 	N 	0.83674 0.84276 0.79190 -0.36400
N 	N 	0.94382 0.76218 0.90480 -0.18800
N 	N 	0.82172 0.91934 0.98780 -0.35300
N 	N 	0.77469 0.82221 0.91300 -0.36500
N 	N 	0.61330 0.82274 0.01880 -0.19300
N 	N 	0.78137 0.87451 0.78670 -0.34700
N 	N 	0.88106 0.94138 0.86910 -0.36300
N 	N 	0.83017 0.06451 0.73110 -0.17500
N 	N 	0.03721 0.59471 0.25990 -0.36800
N 	N 	0.07902 0.67876 0.40740 -0.35000
N 	N 	0.99755 0.70843 0.03810 -0.18600
N 	N 	0.03232 0.54568 0.39890 -0.36400
N 	N 	0.12110 0.63136 0.41290 -0.36500
N 	N 	0.50720 0.83198 0.04320 -0.19400
N 	N 	0.07385 0.63279 0.54730 -0.36800
N 	N 	0.99078 0.59276 0.39740 -0.35100
N 	N 	0.97214 0.69074 0.76620 -0.17800
N 	N 	0.69547 0.27619 0.60800 -0.37400
N 	N 	0.73352 0.35696 0.76510 -0.35300
N 	N 	0.65436 0.38568 0.38700 -0.19600
N 	N 	0.77794 0.31248 0.76586 -0.35800
N 	N 	0.42322 0.53280 0.14810 -0.35500
N 	N 	0.52305 0.58965 0.22620 -0.36700
N 	N 	0.50549 0.72601 0.04250 -0.19000
N 	N 	0.51134 0.53160 0.35150 -0.36200
O 	O 	0.80867 0.61369 0.80130 -0.19900
O 	O 	0.83260 0.56638 0.77310 -0.21400
O 	O 	0.88592 0.64350 0.89060 -0.23700
O 	O 	0.29353 0.52495 0.75000 -0.23000
O 	O 	0.21000 0.47698 0.66020 -0.24300
O 	O 	0.25177 0.55479 0.76740 -0.20000
O 	O 	0.93982 0.19948 0.05870 -0.24100
O 	O 	0.85920 0.14376 0.95050 -0.23000
O 	O 	0.90606 0.11638 0.99140 -0.14300
S 	S 	0.83785 0.60295 0.83766 0.31700
S 	S 	0.24913 0.51445 0.74341 0.31900
S 	S 	0.89541 0.15513 0.02605 0.32400
Ag	Ag	0.27762 0.02909 0.58851 0.57300
Ag	Ag	0.20085 0.45837 0.47891 0.55700
C 	C 	0.09237 0.10755 0.41320 0.02800
H 	H 	0.07360 0.11480 0.38610 -0.00200
C 	C 	0.10023 0.07973 0.35950 -0.04700
H 	H 	0.08720 0.06440 0.29290 0.04400
C 	C 	0.13072 0.07932 0.42360 -0.09700
H 	H 	0.14350 0.06430 0.40880 0.06500
C 	C 	0.13987 0.10607 0.51800 0.10700
C 	C 	0.16659 0.11387 0.60440 -0.18100
C 	C 	0.17384 0.13874 0.69430 0.12000
C 	C 	0.19886 0.14416 0.78500 -0.11100
H 	H 	0.21380 0.13100 0.79610 0.07200
C 	C 	0.19709 0.17137 0.85160 -0.03100
H 	H 	0.21030 0.18070 0.91850 0.03700
C 	C 	0.17194 0.18340 0.80360 0.01600
H 	H 	0.16610 0.20290 0.83390 0.00400
C 	C 	0.19092 0.09236 0.60130 0.16200
C 	C 	0.16645 0.04509 0.57610 -0.18100
H 	H 	0.13310 0.02390 0.56030 0.10200
C 	C 	0.19140 0.02768 0.57380 0.09600
H 	H 	0.17420 0.99460 0.55630 0.02900
C 	C 	0.26072 0.10158 0.62010 0.10500
H 	H 	0.29400 0.12240 0.63510 0.01600
C 	C 	0.23819 0.12077 0.62530 -0.19100
H 	H 	0.25640 0.15400 0.64600 0.10200
C 	C 	0.03428 0.14982 0.47450 0.05900
H 	H 	0.01360 0.11820 0.47550 0.00100
C 	C 	0.01882 0.17228 0.43180 -0.06200
H 	H 	0.98740 0.15880 0.39960 0.12400
C 	C 	0.05840 0.21654 0.44740 -0.06800
H 	H 	0.05980 0.24060 0.42960 0.07500
C 	C 	0.09786 0.22134 0.49460 0.10100
C 	C 	0.14574 0.26036 0.51920 -0.17600
C 	C 	0.18258 0.26138 0.55850 0.11600
C 	C 	0.23164 0.29758 0.57300 -0.10200
H 	H 	0.24540 0.32660 0.56030 0.07300
C 	C 	0.25560 0.28298 0.60900 -0.03700
H 	H 	0.28860 0.29960 0.62500 0.04300
C 	C 	0.22130 0.23874 0.61680 0.02400
H 	H 	0.22780 0.22040 0.64030 -0.00400
C 	C 	0.15715 0.30429 0.50430 0.17000
C 	C 	0.17218 0.31920 0.43370 -0.20600
H 	H 	0.17850 0.30330 0.39170 0.10300
C 	C 	0.17879 0.35961 0.42150 0.11500
H 	H 	0.18480 0.36700 0.36480 0.00100
C 	C 	0.16421 0.37235 0.55700 0.09300
H 	H 	0.16180 0.39120 0.60210 0.03400
C 	C 	0.15404 0.33160 0.57260 -0.17500
H 	H 	0.14550 0.32290 0.62680 0.11400
C 	C 	0.16415 0.26549 0.75430 0.03200
H 	H 	0.19470 0.27990 0.74900 0.00800
C 	C 	0.15119 0.28897 0.80550 -0.04900
H 	H 	0.17160 0.32160 0.84040 0.10200
C 	C 	0.10466 0.25708 0.79640 -0.07000
H 	H 	0.08650 0.26310 0.82300 0.07600
C 	C 	0.08777 0.21131 0.73730 0.10000
C 	C 	0.04314 0.16802 0.71420 -0.16300
C 	C 	0.02906 0.12444 0.66930 0.10900
C 	C 	0.98520 0.07884 0.64960 -0.09900
H 	H 	0.95840 0.07200 0.66490 0.06800
C 	C 	0.98821 0.04615 0.60440 -0.03500
H 	H 	0.96460 0.01280 0.58560 0.04200
C 	C 	0.03259 0.07121 0.59170 0.01500
H 	H 	0.04350 0.05710 0.56000 -0.00000
C 	C 	0.00587 0.16881 0.73800 0.13000
C 	C 	0.98811 0.18387 0.68340 -0.17100
H 	H 	0.99990 0.19470 0.63330 0.11600
C 	C 	0.95272 0.18322 0.70160 0.11200
H 	H 	0.94030 0.19330 0.66190 0.01400
C 	C 	0.94320 0.13780 0.81120 0.02300
H 	H 	0.92460 0.11920 0.84700 0.03800
C 	C 	0.97875 0.13885 0.79230 -0.12600
H 	H 	0.98540 0.12020 0.81440 0.07200
C 	C 	0.44636 0.97820 0.30000 0.01400
H 	H 	0.46930 0.97810 0.28030 0.00100
C 	C 	0.45026 0.99436 0.39490 -0.02700
H 	H 	0.47530 0.00590 0.44940 0.04000
C 	C 	0.41127 0.99047 0.39440 -0.10700
H 	H 	0.40440 0.99940 0.44790 0.07800
C 	C 	0.38289 0.96999 0.29630 0.12500
C 	C 	0.33957 0.95867 0.26240 -0.17500
C 	C 	0.31053 0.93593 0.16740 0.10200
C 	C 	0.26483 0.92295 0.13010 -0.06600
H 	H 	0.24880 0.92920 0.16470 0.06400
C 	C 	0.24922 0.89996 0.03550 -0.06500
H 	H 	0.21990 0.88670 0.99140 0.11300
C 	C 	0.28460 0.89952 0.01530 0.05400
H 	H 	0.28260 0.88560 0.95400 0.00300
C 	C 	0.32196 0.97356 0.33340 0.16200
C 	C 	0.28600 0.94152 0.36320 -0.19600
H 	H 	0.27090 0.90890 0.34000 0.09800
C 	C 	0.27180 0.95720 0.42780 0.09800
H 	H 	0.24690 0.93470 0.44890 0.00400
C 	C 	0.32602 0.03302 0.43060 0.10400
H 	H 	0.34020 0.06540 0.45350 0.04400
C 	C 	0.34204 0.02002 0.36670 -0.18500
H 	H 	0.36670 0.04290 0.34580 0.12700
C 	C 	0.49245 0.01279 0.11740 0.03100
H 	H 	0.49210 0.03830 0.12600 -0.00400
C 	C 	0.53263 0.01745 0.12000 -0.04400
H 	H 	0.56340 0.04600 0.13070 0.04300
C 	C 	0.51968 0.97348 0.10430 -0.10000
H 	H 	0.53960 0.96560 0.10180 0.06600
C 	C 	0.47004 0.94146 0.09230 0.11000
C 	C 	0.44174 0.89376 0.07920 -0.17400
C 	C 	0.39517 0.86341 0.07590 0.10700
C 	C 	0.36364 0.81324 0.05420 -0.10000
H 	H 	0.37160 0.79340 0.04240 0.06500
C 	C 	0.32026 0.79886 0.05350 -0.04200
H 	H 	0.29260 0.76740 0.04210 0.04000
C 	C 	0.32444 0.83950 0.07300 0.02700
H 	H 	0.29900 0.83920 0.07600 -0.00500
C 	C 	0.46481 0.87077 0.06690 0.14800
C 	C 	0.47535 0.86523 0.98330 -0.18300
H 	H 	0.46840 0.87520 0.93370 0.09600
C 	C 	0.49604 0.84496 0.97390 0.09300
H 	H 	0.50250 0.84010 0.91630 0.01300
C 	C 	0.49774 0.83786 0.12340 0.09100
H 	H 	0.50640 0.82900 0.17320 0.01500
C 	C 	0.47561 0.85659 0.13640 -0.18800
H 	H 	0.46810 0.85950 0.19350 0.10000
C 	C 	0.35457 0.88731 0.89160 0.02700
H 	H 	0.35740 0.86560 0.90980 -0.00100
C 	C 	0.33668 0.88294 0.79760 -0.03800
H 	H 	0.32560 0.85840 0.74230 0.04500
C 	C 	0.33813 0.92067 0.80080 -0.09500
H 	H 	0.32810 0.92730 0.74800 0.07400
C 	C 	0.35755 0.94837 0.89880 0.10900
C 	C 	0.36536 0.99020 0.93580 -0.16500
C 	C 	0.38906 0.01940 0.03160 0.10300
C 	C 	0.39969 0.06311 0.07070 -0.07300
H 	H 	0.39080 0.07780 0.03790 0.06300
C 	C 	0.42482 0.07990 0.16380 -0.06400
H 	H 	0.43770 0.10890 0.20830 0.10700
C 	C 	0.42798 0.04564 0.18130 0.05000
H 	H 	0.44310 0.04810 0.24190 0.00500
C 	C 	0.34705 0.00505 0.86870 0.14400
C 	C 	0.37537 0.04677 0.84720 -0.17700
H 	H 	0.40840 0.06840 0.87830 0.09200
C 	C 	0.35516 0.05672 0.77980 0.09100
H 	H 	0.37510 0.08550 0.76610 0.00900
C 	C 	0.28176 0.98800 0.75580 0.09100
H 	H 	0.24880 0.96720 0.72390 0.05300
C 	C 	0.29858 0.97548 0.82180 -0.16200
H 	H 	0.27740 0.94700 0.83550 0.12200
C 	C 	0.76266 0.31964 0.95610 0.03300
H 	H 	0.78670 0.32010 0.94100 -0.00400
C 	C 	0.76386 0.33506 0.04950 -0.03600
H 	H 	0.78790 0.34690 0.10670 0.04700
C 	C 	0.72397 0.32963 0.04150 -0.09600
H 	H 	0.71490 0.33750 0.09230 0.08000
C 	C 	0.69825 0.31005 0.94310 0.11500
C 	C 	0.65532 0.29894 0.90230 -0.17700
C 	C 	0.62878 0.27832 0.80770 0.10500
C 	C 	0.58335 0.26385 0.76600 -0.06600
H 	H 	0.56530 0.26770 0.79860 0.07400
C 	C 	0.57044 0.24342 0.67030 -0.06100
H 	H 	0.54160 0.23000 0.62410 0.13400
C 	C 	0.60758 0.24606 0.65390 0.05700
H 	H 	0.60790 0.23490 0.59280 0.01100
C 	C 	0.63744 0.31334 0.97100 0.15800
C 	C 	0.60846 0.28398 0.01720 -0.19500
H 	H 	0.59590 0.25210 0.00160 0.10000
C 	C 	0.59791 0.30211 0.08760 0.10800
H 	H 	0.57760 0.28160 0.11880 -0.00200
C 	C 	0.64082 0.37346 0.06590 0.10500
H 	H 	0.65190 0.40490 0.08260 0.02700
C 	C 	0.65324 0.35918 0.99310 -0.17500
H 	H 	0.67180 0.38000 0.96010 0.13100
C 	C 	0.64292 0.18342 0.71270 0.03500
H 	H 	0.61730 0.18350 0.70990 -0.00400
C 	C 	0.63816 0.14242 0.69460 -0.04500
H 	H 	0.60970 0.11090 0.67740 0.04300
C 	C 	0.68263 0.15695 0.70650 -0.10100
H 	H 	0.69090 0.13730 0.69960 0.06500
C 	C 	0.71442 0.20734 0.73140 0.11100
C 	C 	0.79158 0.19990 0.82560 -0.17800
H 	H 	0.78140 0.20320 0.87840 0.09300
C 	C 	0.81307 0.18015 0.82320 0.08300
H 	H 	0.81830 0.17110 0.87640 0.01400
C 	C 	0.49884 0.62300 0.38430 0.06600
H 	H 	0.52850 0.64050 0.37300 -0.00100
C 	C 	0.48432 0.64362 0.43730 -0.06600
H 	H 	0.50140 0.67620 0.46770 0.12900
C 	C 	0.44019 0.60645 0.43560 -0.06600
H 	H 	0.42020 0.60860 0.46420 0.07300
C 	C 	0.42945 0.56441 0.38370 0.10500
C 	C 	0.38857 0.51811 0.36830 -0.16700
C 	C 	0.37969 0.47701 0.31780 0.11000
C 	C 	0.33974 0.42964 0.30360 -0.09600
H 	H 	0.31390 0.41990 0.32690 0.07500
C 	C 	0.34473 0.40089 0.25140 -0.03600
H 	H 	0.32340 0.36740 0.23050 0.04400
C 	C 	0.38791 0.43077 0.23460 0.02700
H 	H 	0.40020 0.41960 0.19910 -0.00300
C 	C 	0.35032 0.51116 0.40330 0.14900
C 	C 	0.35071 0.51585 0.49610 -0.18600
H 	H 	0.37720 0.52500 0.54360 0.09500
C 	C 	0.31238 0.50718 0.52070 0.09600
H 	H 	0.31340 0.51040 0.58540 -0.00000
C 	C 	0.27435 0.49139 0.36910 0.10400
H 	H 	0.24770 0.48350 0.32440 0.02300
C 	C 	0.30991 0.49859 0.33520 -0.17400
H 	H 	0.30780 0.49540 0.27000 0.13300
C 	C 	0.44576 0.47238 0.05670 0.03400
H 	H 	0.42640 0.47880 0.02890 -0.00600
C 	C 	0.45397 0.44387 0.00410 -0.04200
H 	H 	0.44210 0.42870 0.93740 0.04300
C 	C 	0.48281 0.44353 0.07150 -0.10200
H 	H 	0.49430 0.42690 0.05970 0.06600
C 	C 	0.49292 0.47160 0.16140 0.11100
C 	C 	0.57975 0.47407 0.21330 -0.16600
H 	H 	0.59120 0.49920 0.18690 0.09100
C 	C 	0.60030 0.45220 0.21660 0.07600
H 	H 	0.62660 0.46380 0.19410 0.01800
C 	C 	0.42371 0.18589 0.57390 0.82000
C 	C 	0.51109 0.76829 0.66090 0.83000
C 	C 	0.86658 0.12402 0.38030 0.78700
F 	F 	0.43632 0.16316 0.53380 -0.45600
F 	F 	0.39432 0.18240 0.50480 -0.45900
F 	F 	0.46265 0.23059 0.61050 -0.46700
F 	F 	0.52231 0.80811 0.65490 -0.46400
F 	F 	0.54929 0.77265 0.67280 -0.45900
F 	F 	0.48120 0.73560 0.57760 -0.46700
F 	F 	0.91481 0.16045 0.42260 -0.45400
F 	F 	0.86481 0.09079 0.32470 -0.44500
F 	F 	0.83720 0.13154 0.35560 -0.50200
Ga	Ga	0.11935 0.16990 0.60869 2.01700
Ga	Ga	0.38815 0.94357 0.09632 2.01700
N 	N 	0.11446 0.12280 0.50710 -0.36600
N 	N 	0.15724 0.16326 0.70810 -0.36400
N 	N 	0.23782 0.05618 0.59520 -0.18800
N 	N 	0.08066 0.17828 0.51220 -0.35400
N 	N 	0.17779 0.22531 0.58700 -0.36500
N 	N 	0.17726 0.38670 0.48120 -0.19300
N 	N 	0.12549 0.21863 0.71330 -0.34700
N 	N 	0.05862 0.11894 0.63090 -0.36300
N 	N 	0.93549 0.16983 0.76890 -0.17500
N 	N 	0.40529 0.96279 0.24010 -0.36800
N 	N 	0.32124 0.92098 0.09260 -0.35000
N 	N 	0.29157 0.00245 0.46190 -0.18600
N 	N 	0.45432 0.96768 0.10110 -0.36400
N 	N 	0.36864 0.87890 0.08710 -0.36500
N 	N 	0.16802 0.49280 0.45680 -0.19300
N 	N 	0.36721 0.92615 0.95270 -0.36700
N 	N 	0.40724 0.00922 0.10260 -0.35100
N 	N 	0.30926 0.02786 0.73380 -0.17800
N 	N 	0.72381 0.30453 0.89200 -0.37400
N 	N 	0.64304 0.26648 0.73490 -0.35300
N 	N 	0.61432 0.34564 0.11300 -0.19600
N 	N 	0.68752 0.22206 0.73414 -0.35800
N 	N 	0.46720 0.57678 0.35190 -0.35500
N 	N 	0.41035 0.47695 0.27380 -0.36700
N 	N 	0.27399 0.49451 0.45750 -0.19000
N 	N 	0.46840 0.48866 0.14850 -0.36200
O 	O 	0.38631 0.19133 0.69870 -0.19900
O 	O 	0.43362 0.16740 0.72690 -0.21400
O 	O 	0.35650 0.11408 0.60940 -0.23700
O 	O 	0.47505 0.70647 0.75000 -0.23000
O 	O 	0.52302 0.79000 0.83980 -0.24200
O 	O 	0.44521 0.74823 0.73260 -0.20000
O 	O 	0.80052 0.06018 0.44130 -0.24100
O 	O 	0.85624 0.14080 0.54950 -0.22900
O 	O 	0.88362 0.09394 0.50860 -0.14200
S 	S 	0.39705 0.16215 0.66234 0.31700
S 	S 	0.48555 0.75087 0.75659 0.31900
S 	S 	0.84487 0.10459 0.47395 0.32300
Ag	Ag	0.14049 0.85951 0.25000 0.55800
C 	C 	0.23739 0.76261 0.25000 -0.18000
C 	C 	0.21501 0.78499 0.25000 0.14400
Ga	Ga	0.28939 0.71061 0.25000 2.01700
N 	N 	0.17311 0.82689 0.25000 -0.19600
Ag	Ag	0.85951 0.14049 0.75000 0.55800
C 	C 	0.76261 0.23739 0.75000 -0.18000
C 	C 	0.78499 0.21501 0.75000 0.14400
Ga	Ga	0.71061 0.28939 0.75000 2.01700
N 	N 	0.82689 0.17311 0.75000 -0.19600
Ag	Ag	0.38260 0.61740 0.75000 0.56100
N 	N 	0.41602 0.58398 0.75000 -0.18800
Ag	Ag	0.61740 0.38260 0.25000 0.56100
N 	N 	0.58398 0.41602 0.25000 -0.18800
C 	C 	0.48017 0.51983 0.75000 -0.17400
C 	C 	0.45773 0.54227 0.75000 0.13600
Ga	Ga	0.53219 0.46781 0.75000 2.01500
C 	C 	0.51983 0.48017 0.25000 -0.17400
C 	C 	0.54227 0.45773 0.25000 0.13600
Ga	Ga	0.46781 0.53219 0.25000 2.01500
