data_crystal

_cell_length_a 26.13150
_cell_length_b 26.13150
_cell_length_c 26.13150
_cell_angle_alpha 109.47100
_cell_angle_beta  109.47100
_cell_angle_gamma 109.47100

_symmetry_space_group_name_	'P 1'
_symmetry_space_group_name_H-M	'P 1'

loop_
_symmetry_equiv_pos_as_xyz
  x,y,z

loop_
_atom_site_label
_atom_site_type_symbol
_atom_site_fract_x
_atom_site_fract_y
_atom_site_fract_z
_atom_site_charge
Cd	Cd	0.35487 0.70974 0.85487 1.22800
Cd	Cd	0.85487 0.50000 0.14513 1.22800
Cd	Cd	0.14513 0.29026 0.64513 1.22800
Cd	Cd	0.64513 0.50000 0.35487 1.22800
Cd	Cd	0.64513 0.14513 0.29026 1.22800
Cd	Cd	0.35487 0.64513 0.50000 1.22800
Cd	Cd	0.85487 0.35487 0.70974 1.22800
Cd	Cd	0.14513 0.85487 0.50000 1.22800
Cd	Cd	0.50000 0.14513 0.85487 1.22800
Cd	Cd	0.70974 0.85487 0.35487 1.22900
Cd	Cd	0.50000 0.35487 0.64513 1.22800
Cd	Cd	0.29026 0.64513 0.14513 1.22800
Cd	Cd	0.64513 0.29026 0.14513 1.22800
Cd	Cd	0.14513 0.50000 0.85487 1.22800
Cd	Cd	0.85487 0.70974 0.35487 1.22900
Cd	Cd	0.35487 0.50000 0.64513 1.22800
Cd	Cd	0.35487 0.85487 0.70974 1.22800
Cd	Cd	0.64513 0.35487 0.50000 1.22800
Cd	Cd	0.14513 0.64513 0.29026 1.22800
Cd	Cd	0.85487 0.14513 0.50000 1.22800
Cd	Cd	0.50000 0.85487 0.14513 1.22800
Cd	Cd	0.29026 0.14513 0.64513 1.22800
Cd	Cd	0.50000 0.64513 0.35487 1.22800
Cd	Cd	0.70974 0.35487 0.85487 1.22800
H 	H 	0.21690 0.63130 0.71820 0.02700
H 	H 	0.28310 0.78300 0.90570 0.01900
H 	H 	0.91310 0.49870 0.28180 0.02800
H 	H 	0.87730 0.37740 0.09430 0.03000
H 	H 	0.08690 0.36870 0.58560 0.02500
H 	H 	0.12270 0.21700 0.50010 0.02000
H 	H 	0.78310 0.50130 0.41440 0.02600
H 	H 	0.71690 0.62260 0.49990 0.02200
H 	H 	0.58560 0.08690 0.36870 0.02400
H 	H 	0.50010 0.12270 0.21700 0.01900
H 	H 	0.41440 0.78310 0.50130 0.02600
H 	H 	0.49990 0.71690 0.62260 0.02200
H 	H 	0.71820 0.21690 0.63130 0.02600
H 	H 	0.90570 0.28310 0.78300 0.01500
H 	H 	0.28180 0.91310 0.49870 0.02700
H 	H 	0.09430 0.87730 0.37740 0.01800
H 	H 	0.49870 0.28180 0.91310 0.02600
H 	H 	0.37740 0.09430 0.87730 0.01700
H 	H 	0.63130 0.71820 0.21690 0.02600
H 	H 	0.78300 0.90570 0.28310 0.01500
H 	H 	0.50130 0.41440 0.78310 0.02600
H 	H 	0.62260 0.49990 0.71690 0.02100
H 	H 	0.36870 0.58560 0.08690 0.02500
H 	H 	0.21700 0.50010 0.12270 0.02000
H 	H 	0.36870 0.78310 0.28180 0.02600
H 	H 	0.21700 0.71690 0.09430 0.01900
H 	H 	0.50130 0.08690 0.71820 0.02500
H 	H 	0.62260 0.12270 0.90570 0.01700
H 	H 	0.63130 0.91310 0.41440 0.02700
H 	H 	0.78300 0.87730 0.49990 0.02200
H 	H 	0.49870 0.21690 0.58560 0.02500
H 	H 	0.37740 0.28310 0.50010 0.02000
H 	H 	0.91310 0.41440 0.63130 0.02700
H 	H 	0.87730 0.49990 0.78300 0.02200
H 	H 	0.21690 0.58560 0.49870 0.02500
H 	H 	0.28310 0.50010 0.37740 0.02000
H 	H 	0.78310 0.28180 0.36870 0.02600
H 	H 	0.71690 0.09430 0.21700 0.01700
H 	H 	0.08690 0.71820 0.50130 0.02500
H 	H 	0.12270 0.90570 0.62260 0.01400
H 	H 	0.71820 0.50130 0.08690 0.02500
H 	H 	0.90570 0.62260 0.12270 0.01500
H 	H 	0.28180 0.36870 0.78310 0.02600
H 	H 	0.09430 0.21700 0.71690 0.01700
H 	H 	0.58560 0.49870 0.21690 0.02500
H 	H 	0.50010 0.37740 0.28310 0.02000
H 	H 	0.41440 0.63130 0.91310 0.02700
H 	H 	0.49990 0.78300 0.87730 0.02200
H 	H 	0.78310 0.36870 0.28180 0.02600
H 	H 	0.71690 0.21700 0.09430 0.01900
H 	H 	0.08690 0.50130 0.71820 0.02500
H 	H 	0.12270 0.62260 0.90570 0.01700
H 	H 	0.91310 0.63130 0.41440 0.02700
H 	H 	0.87730 0.78300 0.49990 0.02200
H 	H 	0.21690 0.49870 0.58560 0.02500
H 	H 	0.28310 0.37740 0.50010 0.02000
H 	H 	0.41440 0.91310 0.63130 0.02700
H 	H 	0.49990 0.87730 0.78300 0.02200
H 	H 	0.58560 0.21690 0.49870 0.02500
H 	H 	0.50010 0.28310 0.37740 0.02000
H 	H 	0.28180 0.78310 0.36870 0.02600
H 	H 	0.09430 0.71690 0.21700 0.01700
H 	H 	0.71820 0.08690 0.50130 0.02500
H 	H 	0.90570 0.12270 0.62260 0.01400
H 	H 	0.50130 0.71820 0.08690 0.02500
H 	H 	0.62260 0.90570 0.12270 0.01500
H 	H 	0.36870 0.28180 0.78310 0.02600
H 	H 	0.21700 0.09430 0.71690 0.01700
H 	H 	0.49870 0.58560 0.21690 0.02500
H 	H 	0.37740 0.50010 0.28310 0.02000
H 	H 	0.63130 0.41440 0.91310 0.02700
H 	H 	0.78300 0.49990 0.87730 0.02200
H 	H 	0.63130 0.21690 0.71820 0.02500
H 	H 	0.78300 0.28310 0.90570 0.02700
H 	H 	0.49870 0.91310 0.28180 0.02700
H 	H 	0.37740 0.87730 0.09430 0.02000
H 	H 	0.36870 0.08690 0.58560 0.02400
H 	H 	0.21700 0.12270 0.50010 0.01900
H 	H 	0.50130 0.78310 0.41440 0.02600
H 	H 	0.62260 0.71690 0.49990 0.02200
H 	H 	0.08690 0.58560 0.36870 0.02400
H 	H 	0.12270 0.50010 0.21700 0.01900
H 	H 	0.78310 0.41440 0.50130 0.02600
H 	H 	0.71690 0.49990 0.62260 0.02200
H 	H 	0.21690 0.71820 0.63130 0.02600
H 	H 	0.28310 0.90570 0.78300 0.01500
H 	H 	0.91310 0.28180 0.49870 0.02700
H 	H 	0.87730 0.09430 0.37740 0.01800
H 	H 	0.28180 0.49870 0.91310 0.02600
H 	H 	0.09430 0.37740 0.87730 0.01800
H 	H 	0.71820 0.63130 0.21690 0.02600
H 	H 	0.90570 0.78300 0.28310 0.01500
H 	H 	0.41440 0.50130 0.78310 0.02600
H 	H 	0.49990 0.62260 0.71690 0.02100
H 	H 	0.58560 0.36870 0.08690 0.02500
H 	H 	0.50010 0.21700 0.12270 0.02000
H 	H 	0.16480 0.54920 0.61560 0.07800
H 	H 	0.93360 0.54920 0.38440 0.08100
H 	H 	0.06640 0.45080 0.61560 0.07700
H 	H 	0.83520 0.45080 0.38440 0.08000
H 	H 	0.61560 0.06640 0.45080 0.07700
H 	H 	0.38440 0.83520 0.45080 0.08000
H 	H 	0.61560 0.16480 0.54920 0.07800
H 	H 	0.38440 0.93360 0.54920 0.08100
H 	H 	0.54920 0.38440 0.93360 0.08000
H 	H 	0.54920 0.61560 0.16480 0.07800
H 	H 	0.45080 0.38440 0.83520 0.07900
H 	H 	0.45080 0.61560 0.06640 0.07800
H 	H 	0.45080 0.83520 0.38440 0.08000
H 	H 	0.45080 0.06640 0.61560 0.07700
H 	H 	0.54920 0.93360 0.38440 0.08100
H 	H 	0.54920 0.16480 0.61560 0.07800
H 	H 	0.93360 0.38440 0.54920 0.08100
H 	H 	0.16480 0.61560 0.54920 0.07800
H 	H 	0.83520 0.38440 0.45080 0.08000
H 	H 	0.06640 0.61560 0.45080 0.07700
H 	H 	0.61560 0.45080 0.06640 0.07800
H 	H 	0.38440 0.45080 0.83520 0.07900
H 	H 	0.61560 0.54920 0.16480 0.07800
H 	H 	0.38440 0.54920 0.93360 0.08000
H 	H 	0.29230 0.84450 -0.00000 0.09300
H 	H 	0.84450 0.29230 -0.00000 0.07300
H 	H 	0.15550 0.15550 0.44780 0.08600
H 	H 	0.70770 0.70770 0.55220 0.09000
H 	H 	0.44780 0.15550 0.15550 0.08700
H 	H 	0.55220 0.70770 0.70770 0.09000
H 	H 	-0.00000 0.29230 0.84450 0.09400
H 	H 	-0.00000 0.84450 0.29230 0.09500
H 	H 	0.29230 0.00000 0.84450 0.09400
H 	H 	0.84450 -0.00000 0.29230 0.09500
H 	H 	0.70770 0.55220 0.70770 0.09000
H 	H 	0.15550 0.44780 0.15550 0.08700
H 	H 	0.15550 0.70770 -0.00000 0.09100
H 	H 	0.70770 0.15550 -0.00000 0.09100
H 	H 	0.84450 0.84450 0.55220 0.09200
H 	H 	0.29230 0.29230 0.44780 0.08700
H 	H 	0.84450 0.55220 0.84450 0.09100
H 	H 	0.29230 0.44780 0.29230 0.08800
H 	H 	0.70770 -0.00000 0.15550 0.09400
H 	H 	0.15550 0.00000 0.70770 0.09300
H 	H 	0.00000 0.70770 0.15550 0.09400
H 	H 	0.00000 0.15550 0.70770 0.09300
H 	H 	0.44780 0.29230 0.29230 0.08800
H 	H 	0.55220 0.84450 0.84450 0.09100
C 	C 	0.23690 0.61060 0.70510 0.07100
C 	C 	0.31720 0.79700 0.94380 0.10300
C 	C 	0.90550 0.53180 0.29490 0.07300
C 	C 	0.85320 0.37340 0.05620 0.06600
C 	C 	0.09450 0.38940 0.62630 0.07000
C 	C 	0.14680 0.20300 0.52020 0.08800
C 	C 	0.76310 0.46820 0.37370 0.07200
C 	C 	0.68280 0.62660 0.47980 0.08900
C 	C 	0.62630 0.09450 0.38940 0.07000
C 	C 	0.52020 0.14680 0.20300 0.08800
C 	C 	0.37370 0.76310 0.46820 0.07200
C 	C 	0.47980 0.68280 0.62660 0.08900
C 	C 	0.70510 0.23690 0.61060 0.07100
C 	C 	0.94380 0.31720 0.79700 0.11200
C 	C 	0.29490 0.90550 0.53180 0.07300
C 	C 	0.05620 0.85320 0.37340 0.09800
C 	C 	0.53180 0.29490 0.90550 0.07200
C 	C 	0.37340 0.05620 0.85320 0.09800
C 	C 	0.61060 0.70510 0.23690 0.07100
C 	C 	0.79700 0.94380 0.31720 0.11200
C 	C 	0.46820 0.37370 0.76310 0.07200
C 	C 	0.62660 0.47980 0.68280 0.08900
C 	C 	0.38940 0.62630 0.09450 0.07100
C 	C 	0.20300 0.52020 0.14680 0.08800
C 	C 	0.38940 0.76310 0.29490 0.07200
C 	C 	0.20300 0.68280 0.05620 0.09300
C 	C 	0.46820 0.09450 0.70510 0.07000
C 	C 	0.62660 0.14680 0.94380 0.10100
C 	C 	0.61060 0.90550 0.37370 0.07300
C 	C 	0.79700 0.85320 0.47980 0.09100
C 	C 	0.53180 0.23690 0.62630 0.07100
C 	C 	0.37340 0.31720 0.52020 0.08900
C 	C 	0.90550 0.37370 0.61060 0.07300
C 	C 	0.85320 0.47980 0.79700 0.09000
C 	C 	0.23690 0.62630 0.53180 0.07100
C 	C 	0.31720 0.52020 0.37340 0.08900
C 	C 	0.76310 0.29490 0.38940 0.07200
C 	C 	0.68280 0.05620 0.20300 0.09700
C 	C 	0.09450 0.70510 0.46820 0.07000
C 	C 	0.14680 0.94380 0.62660 0.11100
C 	C 	0.70510 0.46820 0.09450 0.07100
C 	C 	0.94380 0.62660 0.14680 0.11100
C 	C 	0.29490 0.38940 0.76310 0.07200
C 	C 	0.05620 0.20300 0.68280 0.09700
C 	C 	0.62630 0.53180 0.23690 0.07100
C 	C 	0.52020 0.37340 0.31720 0.08900
C 	C 	0.37370 0.61060 0.90550 0.07200
C 	C 	0.47980 0.79700 0.85320 0.09000
C 	C 	0.76310 0.38940 0.29490 0.07200
C 	C 	0.68280 0.20300 0.05620 0.09300
C 	C 	0.09450 0.46820 0.70510 0.07000
C 	C 	0.14680 0.62660 0.94380 0.10100
C 	C 	0.90550 0.61060 0.37370 0.07300
C 	C 	0.85320 0.79700 0.47980 0.09100
C 	C 	0.23690 0.53180 0.62630 0.07100
C 	C 	0.31720 0.37340 0.52020 0.08900
C 	C 	0.37370 0.90550 0.61060 0.07300
C 	C 	0.47980 0.85320 0.79700 0.09000
C 	C 	0.62630 0.23690 0.53180 0.07100
C 	C 	0.52020 0.31720 0.37340 0.08900
C 	C 	0.29490 0.76310 0.38940 0.07200
C 	C 	0.05620 0.68280 0.20300 0.09700
C 	C 	0.70510 0.09450 0.46820 0.07000
C 	C 	0.94380 0.14680 0.62660 0.11100
C 	C 	0.46820 0.70510 0.09450 0.07100
C 	C 	0.62660 0.94380 0.14680 0.11100
C 	C 	0.38940 0.29490 0.76310 0.07200
C 	C 	0.20300 0.05620 0.68280 0.09700
C 	C 	0.53180 0.62630 0.23690 0.07100
C 	C 	0.37340 0.52020 0.31720 0.08900
C 	C 	0.61060 0.37370 0.90550 0.07200
C 	C 	0.79700 0.47980 0.85320 0.09000
C 	C 	0.61060 0.23690 0.70510 0.07100
C 	C 	0.79700 0.31720 0.94380 0.07400
C 	C 	0.53180 0.90550 0.29490 0.07300
C 	C 	0.37340 0.85320 0.05620 0.09500
C 	C 	0.38940 0.09450 0.62630 0.07000
C 	C 	0.20300 0.14680 0.52020 0.08800
C 	C 	0.46820 0.76310 0.37370 0.07200
C 	C 	0.62660 0.68280 0.47980 0.08900
C 	C 	0.09450 0.62630 0.38940 0.07000
C 	C 	0.14680 0.52020 0.20300 0.08800
C 	C 	0.76310 0.37370 0.46820 0.07200
C 	C 	0.68280 0.47980 0.62660 0.08900
C 	C 	0.23690 0.70510 0.61060 0.07100
C 	C 	0.31720 0.94380 0.79700 0.11200
C 	C 	0.90550 0.29490 0.53180 0.07300
C 	C 	0.85320 0.05620 0.37340 0.09800
C 	C 	0.29490 0.53180 0.90550 0.07300
C 	C 	0.05620 0.37340 0.85320 0.09800
C 	C 	0.70510 0.61060 0.23690 0.07100
C 	C 	0.94380 0.79700 0.31720 0.11200
C 	C 	0.37370 0.46820 0.76310 0.07200
C 	C 	0.47980 0.62660 0.68280 0.08900
C 	C 	0.62630 0.38940 0.09450 0.07100
C 	C 	0.52020 0.20300 0.14680 0.08800
C 	C 	0.38850 0.61750 0.77100 0.27800
C 	C 	0.32140 0.59690 0.72450 0.02200
C 	C 	0.20550 0.56160 0.64390 -0.12600
C 	C 	0.84650 0.61750 0.22900 0.27800
C 	C 	0.87240 0.59690 0.27550 0.02400
C 	C 	0.91770 0.56160 0.35610 -0.12500
C 	C 	0.15350 0.38250 0.77100 0.27800
C 	C 	0.12760 0.40310 0.72450 0.02200
C 	C 	0.08230 0.43840 0.64390 -0.12600
C 	C 	0.61150 0.38250 0.22900 0.27800
C 	C 	0.67860 0.40310 0.27550 0.02200
C 	C 	0.79450 0.43840 0.35610 -0.12600
C 	C 	0.77100 0.15350 0.38250 0.27800
C 	C 	0.72450 0.12760 0.40310 0.02200
C 	C 	0.64390 0.08230 0.43840 -0.12600
C 	C 	0.22900 0.61150 0.38250 0.27800
C 	C 	0.27550 0.67860 0.40310 0.02200
C 	C 	0.35610 0.79450 0.43840 -0.12600
C 	C 	0.77100 0.38850 0.61750 0.27800
C 	C 	0.72450 0.32140 0.59690 0.02200
C 	C 	0.64390 0.20550 0.56160 -0.12600
C 	C 	0.22900 0.84650 0.61750 0.27800
C 	C 	0.27550 0.87240 0.59690 0.02300
C 	C 	0.35610 0.91770 0.56160 -0.12500
C 	C 	0.61750 0.22900 0.84650 0.27800
C 	C 	0.59690 0.27550 0.87240 0.02300
C 	C 	0.56160 0.35610 0.91770 -0.12500
C 	C 	0.61750 0.77100 0.38850 0.27800
C 	C 	0.59690 0.72450 0.32140 0.02200
C 	C 	0.56160 0.64390 0.20550 -0.12600
C 	C 	0.38250 0.22900 0.61150 0.27800
C 	C 	0.40310 0.27550 0.67860 0.02200
C 	C 	0.43840 0.35610 0.79450 -0.12600
C 	C 	0.38250 0.77100 0.15350 0.27800
C 	C 	0.40310 0.72450 0.12760 0.02200
C 	C 	0.43840 0.64390 0.08230 -0.12600
C 	C 	0.38250 0.61150 0.22900 0.27800
C 	C 	0.40310 0.67860 0.27550 0.02200
C 	C 	0.43840 0.79450 0.35610 -0.12600
C 	C 	0.38250 0.15350 0.77100 0.27800
C 	C 	0.40310 0.12760 0.72450 0.02200
C 	C 	0.43840 0.08230 0.64390 -0.12700
C 	C 	0.61750 0.84650 0.22900 0.27800
C 	C 	0.59690 0.87240 0.27550 0.02400
C 	C 	0.56160 0.91770 0.35610 -0.12500
C 	C 	0.61750 0.38850 0.77100 0.27800
C 	C 	0.59690 0.32140 0.72450 0.02200
C 	C 	0.56160 0.20550 0.64390 -0.12600
C 	C 	0.84650 0.22900 0.61750 0.27800
C 	C 	0.87240 0.27550 0.59690 0.02300
C 	C 	0.91770 0.35610 0.56160 -0.12500
C 	C 	0.38850 0.77100 0.61750 0.27800
C 	C 	0.32140 0.72450 0.59690 0.02200
C 	C 	0.20550 0.64390 0.56160 -0.12600
C 	C 	0.61150 0.22900 0.38250 0.27800
C 	C 	0.67860 0.27550 0.40310 0.02200
C 	C 	0.79450 0.35610 0.43840 -0.12600
C 	C 	0.15350 0.77100 0.38250 0.27800
C 	C 	0.12760 0.72450 0.40310 0.02200
C 	C 	0.08230 0.64390 0.43840 -0.12600
C 	C 	0.77100 0.38250 0.15350 0.27800
C 	C 	0.72450 0.40310 0.12760 0.02200
C 	C 	0.64390 0.43840 0.08230 -0.12600
C 	C 	0.22900 0.38250 0.61150 0.27800
C 	C 	0.27550 0.40310 0.67860 0.02200
C 	C 	0.35610 0.43840 0.79450 -0.12600
C 	C 	0.77100 0.61750 0.38850 0.27800
C 	C 	0.72450 0.59690 0.32140 0.02200
C 	C 	0.64390 0.56160 0.20550 -0.12600
C 	C 	0.22900 0.61750 0.84650 0.27800
C 	C 	0.27550 0.59690 0.87240 0.02300
C 	C 	0.35610 0.56160 0.91770 -0.12500
C 	C 	0.46040 0.78760 -0.00000 0.28600
C 	C 	0.40860 0.80360 -0.00000 0.01400
C 	C 	0.32270 0.83330 -0.00000 -0.15300
C 	C 	0.78760 0.46040 1.00000 0.31000
C 	C 	0.80360 0.40860 -0.00000 0.00300
C 	C 	0.83330 0.32270 1.00000 -0.10300
C 	C 	0.21240 0.21240 0.67280 0.29300
C 	C 	0.19640 0.19640 0.60500 0.01600
C 	C 	0.16670 0.16670 0.48940 -0.14000
C 	C 	0.53960 0.53960 0.32720 0.29400
C 	C 	0.59140 0.59140 0.39500 0.01700
C 	C 	0.67730 0.67730 0.51060 -0.13900
C 	C 	0.67280 0.21240 0.21240 0.29300
C 	C 	0.60500 0.19640 0.19640 0.01700
C 	C 	0.48940 0.16670 0.16670 -0.14000
C 	C 	0.32720 0.53960 0.53960 0.29400
C 	C 	0.39500 0.59140 0.59140 0.01700
C 	C 	0.51060 0.67730 0.67730 -0.13900
C 	C 	0.00000 0.46040 0.78760 0.28000
C 	C 	0.00000 0.40860 0.80360 0.01100
C 	C 	0.00000 0.32270 0.83330 -0.16300
C 	C 	0.00000 0.78760 0.46040 0.28000
C 	C 	0.00000 0.80360 0.40860 0.01200
C 	C 	0.00000 0.83330 0.32270 -0.16300
C 	C 	0.46040 -0.00000 0.78760 0.28000
C 	C 	0.40860 0.00000 0.80360 0.01100
C 	C 	0.32270 -0.00000 0.83330 -0.16300
C 	C 	0.78760 -0.00000 0.46040 0.28000
C 	C 	0.80360 -0.00000 0.40860 0.01200
C 	C 	0.83330 0.00000 0.32270 -0.16300
C 	C 	0.53960 0.32720 0.53960 0.29400
C 	C 	0.59140 0.39500 0.59140 0.01700
C 	C 	0.67730 0.51060 0.67730 -0.13900
C 	C 	0.21240 0.67280 0.21240 0.29300
C 	C 	0.19640 0.60500 0.19640 0.01700
C 	C 	0.16670 0.48940 0.16670 -0.14000
C 	C 	0.21240 0.53960 -0.00000 0.28600
C 	C 	0.19640 0.59140 -0.00000 0.01300
C 	C 	0.16670 0.67730 -0.00000 -0.15300
C 	C 	0.53960 0.21240 -0.00000 0.28600
C 	C 	0.59140 0.19640 -0.00000 0.01300
C 	C 	0.67730 0.16670 -0.00000 -0.15300
C 	C 	0.78760 0.78760 0.32720 0.29400
C 	C 	0.80360 0.80360 0.39500 0.01900
C 	C 	0.83330 0.83330 0.51060 -0.13800
C 	C 	0.46040 0.46040 0.67280 0.29400
C 	C 	0.40860 0.40860 0.60500 0.01700
C 	C 	0.32270 0.32270 0.48940 -0.13900
C 	C 	0.78760 0.32720 0.78760 0.29400
C 	C 	0.80360 0.39500 0.80360 0.01800
C 	C 	0.83330 0.51060 0.83330 -0.13800
C 	C 	0.46040 0.67280 0.46040 0.29400
C 	C 	0.40860 0.60500 0.40860 0.01700
C 	C 	0.32270 0.48940 0.32270 -0.13900
C 	C 	0.53960 -0.00000 0.21240 0.28000
C 	C 	0.59140 -0.00000 0.19640 0.01100
C 	C 	0.67730 -0.00000 0.16670 -0.16300
C 	C 	0.21240 -0.00000 0.53960 0.28000
C 	C 	0.19640 0.00000 0.59140 0.01100
C 	C 	0.16670 -0.00000 0.67730 -0.16300
C 	C 	0.00000 0.53960 0.21240 0.28000
C 	C 	0.00000 0.59140 0.19640 0.01100
C 	C 	0.00000 0.67730 0.16670 -0.16300
C 	C 	0.00000 0.21240 0.53960 0.28000
C 	C 	-0.00000 0.19640 0.59140 0.01100
C 	C 	0.00000 0.16670 0.67730 -0.16300
C 	C 	0.67280 0.46040 0.46040 0.29400
C 	C 	0.60500 0.40860 0.40860 0.01700
C 	C 	0.48940 0.32270 0.32270 -0.13900
C 	C 	0.32720 0.78760 0.78760 0.29400
C 	C 	0.39500 0.80360 0.80360 0.01800
C 	C 	0.51060 0.83330 0.83330 -0.13800
N 	N 	0.29600 0.62870 0.74590 -0.19700
N 	N 	0.36100 0.78230 0.94510 -0.20100
N 	N 	0.88280 0.55010 0.25410 -0.19600
N 	N 	0.83720 0.41590 0.05490 -0.19600
N 	N 	0.11720 0.37130 0.66730 -0.19700
N 	N 	0.16280 0.21770 0.57870 -0.20200
N 	N 	0.70400 0.44990 0.33270 -0.19700
N 	N 	0.63900 0.58410 0.42130 -0.20200
N 	N 	0.66730 0.11720 0.37130 -0.19700
N 	N 	0.57870 0.16280 0.21770 -0.20200
N 	N 	0.33270 0.70400 0.44990 -0.19700
N 	N 	0.42130 0.63900 0.58410 -0.20200
N 	N 	0.74590 0.29600 0.62870 -0.19700
N 	N 	0.94510 0.36100 0.78230 -0.20000
N 	N 	0.25410 0.88280 0.55010 -0.19600
N 	N 	0.05490 0.83720 0.41590 -0.20300
N 	N 	0.55010 0.25410 0.88280 -0.19600
N 	N 	0.41590 0.05490 0.83720 -0.20300
N 	N 	0.62870 0.74590 0.29600 -0.19700
N 	N 	0.78230 0.94510 0.36100 -0.20000
N 	N 	0.44990 0.33270 0.70400 -0.19700
N 	N 	0.58410 0.42130 0.63900 -0.20200
N 	N 	0.37130 0.66730 0.11720 -0.19700
N 	N 	0.21770 0.57870 0.16280 -0.20200
N 	N 	0.37130 0.70400 0.25410 -0.19700
N 	N 	0.21770 0.63900 0.05490 -0.20300
N 	N 	0.44990 0.11720 0.74590 -0.19700
N 	N 	0.58410 0.16280 0.94510 -0.20100
N 	N 	0.62870 0.88280 0.33270 -0.19600
N 	N 	0.78230 0.83720 0.42130 -0.20200
N 	N 	0.55010 0.29600 0.66730 -0.19700
N 	N 	0.41590 0.36100 0.57870 -0.20200
N 	N 	0.88280 0.33270 0.62870 -0.19600
N 	N 	0.83720 0.42130 0.78230 -0.20200
N 	N 	0.29600 0.66730 0.55010 -0.19700
N 	N 	0.36100 0.57870 0.41590 -0.20200
N 	N 	0.70400 0.25410 0.37130 -0.19700
N 	N 	0.63900 0.05490 0.21770 -0.20400
N 	N 	0.11720 0.74590 0.44990 -0.19700
N 	N 	0.16280 0.94510 0.58410 -0.20000
N 	N 	0.74590 0.44990 0.11720 -0.19700
N 	N 	0.94510 0.58410 0.16280 -0.20000
N 	N 	0.25410 0.37130 0.70400 -0.19700
N 	N 	0.05490 0.21770 0.63900 -0.20400
N 	N 	0.66730 0.55010 0.29600 -0.19700
N 	N 	0.57870 0.41590 0.36100 -0.20200
N 	N 	0.33270 0.62870 0.88280 -0.19600
N 	N 	0.42130 0.78230 0.83720 -0.20200
N 	N 	0.70400 0.37130 0.25410 -0.19700
N 	N 	0.63900 0.21770 0.05490 -0.20300
N 	N 	0.11720 0.44990 0.74590 -0.19700
N 	N 	0.16280 0.58410 0.94510 -0.20100
N 	N 	0.88280 0.62870 0.33270 -0.19600
N 	N 	0.83720 0.78230 0.42130 -0.20200
N 	N 	0.29600 0.55010 0.66730 -0.19700
N 	N 	0.36100 0.41590 0.57870 -0.20200
N 	N 	0.33270 0.88280 0.62870 -0.19600
N 	N 	0.42130 0.83720 0.78230 -0.20200
N 	N 	0.66730 0.29600 0.55010 -0.19700
N 	N 	0.57870 0.36100 0.41590 -0.20200
N 	N 	0.25410 0.70400 0.37130 -0.19700
N 	N 	0.05490 0.63900 0.21770 -0.20400
N 	N 	0.74590 0.11720 0.44990 -0.19700
N 	N 	0.94510 0.16280 0.58410 -0.20000
N 	N 	0.44990 0.74590 0.11720 -0.19700
N 	N 	0.58410 0.94510 0.16280 -0.20000
N 	N 	0.37130 0.25410 0.70400 -0.19700
N 	N 	0.21770 0.05490 0.63900 -0.20400
N 	N 	0.55010 0.66730 0.29600 -0.19700
N 	N 	0.41590 0.57870 0.36100 -0.20200
N 	N 	0.62870 0.33270 0.88280 -0.19600
N 	N 	0.78230 0.42130 0.83720 -0.20200
N 	N 	0.62870 0.29600 0.74590 -0.19700
N 	N 	0.78230 0.36100 0.94510 -0.19400
N 	N 	0.55010 0.88280 0.25410 -0.19600
N 	N 	0.41590 0.83720 0.05490 -0.20300
N 	N 	0.37130 0.11720 0.66730 -0.19700
N 	N 	0.21770 0.16280 0.57870 -0.20200
N 	N 	0.44990 0.70400 0.33270 -0.19700
N 	N 	0.58410 0.63900 0.42130 -0.20200
N 	N 	0.11720 0.66730 0.37130 -0.19700
N 	N 	0.16280 0.57870 0.21770 -0.20200
N 	N 	0.70400 0.33270 0.44990 -0.19700
N 	N 	0.63900 0.42130 0.58410 -0.20200
N 	N 	0.29600 0.74590 0.62870 -0.19700
N 	N 	0.36100 0.94510 0.78230 -0.20000
N 	N 	0.88280 0.25410 0.55010 -0.19600
N 	N 	0.83720 0.05490 0.41590 -0.20300
N 	N 	0.25410 0.55010 0.88280 -0.19600
N 	N 	0.05490 0.41590 0.83720 -0.20300
N 	N 	0.74590 0.62870 0.29600 -0.19700
N 	N 	0.94510 0.78230 0.36100 -0.20000
N 	N 	0.33270 0.44990 0.70400 -0.19700
N 	N 	0.42130 0.58410 0.63900 -0.20200
N 	N 	0.66730 0.37130 0.11720 -0.19700
N 	N 	0.57870 0.21770 0.16280 -0.20200
O 	O 	0.41344 0.66188 0.82552 -0.33200
O 	O 	0.45273 0.75542 0.94801 -0.33900
O 	O 	0.83636 0.58792 0.17448 -0.33200
O 	O 	0.80741 0.50472 0.05199 -0.35400
O 	O 	0.16364 0.33812 0.75156 -0.33300
O 	O 	0.19259 0.24458 0.69731 -0.34700
O 	O 	0.58656 0.41208 0.24844 -0.33300
O 	O 	0.54727 0.49528 0.30269 -0.34700
O 	O 	0.75156 0.16364 0.33812 -0.33200
O 	O 	0.69731 0.19259 0.24458 -0.34700
O 	O 	0.24844 0.58656 0.41208 -0.33300
O 	O 	0.30269 0.54727 0.49528 -0.34700
O 	O 	0.82552 0.41344 0.66188 -0.33200
O 	O 	0.94801 0.45273 0.75542 -0.33500
O 	O 	0.17448 0.83636 0.58792 -0.33200
O 	O 	0.05199 0.80741 0.50472 -0.34400
O 	O 	0.58792 0.17448 0.83636 -0.33300
O 	O 	0.50472 0.05199 0.80741 -0.34500
O 	O 	0.66188 0.82552 0.41344 -0.33200
O 	O 	0.75542 0.94801 0.45273 -0.33500
O 	O 	0.41208 0.24844 0.58656 -0.33300
O 	O 	0.49528 0.30269 0.54727 -0.34700
O 	O 	0.33812 0.75156 0.16364 -0.33200
O 	O 	0.24458 0.69731 0.19259 -0.34700
O 	O 	0.33812 0.58656 0.17448 -0.33300
O 	O 	0.24458 0.54727 0.05199 -0.34600
O 	O 	0.41208 0.16364 0.82552 -0.33300
O 	O 	0.49528 0.19259 0.94801 -0.34100
O 	O 	0.66188 0.83636 0.24844 -0.33200
O 	O 	0.75542 0.80741 0.30269 -0.34500
O 	O 	0.58792 0.41344 0.75156 -0.33200
O 	O 	0.50472 0.45273 0.69731 -0.34600
O 	O 	0.83636 0.24844 0.66188 -0.33200
O 	O 	0.80741 0.30269 0.75542 -0.34600
O 	O 	0.41344 0.75156 0.58792 -0.33200
O 	O 	0.45273 0.69731 0.50472 -0.34600
O 	O 	0.58656 0.17448 0.33812 -0.33300
O 	O 	0.54727 0.05199 0.24458 -0.34500
O 	O 	0.16364 0.82552 0.41208 -0.33200
O 	O 	0.19259 0.94801 0.49528 -0.33600
O 	O 	0.82552 0.41208 0.16364 -0.33200
O 	O 	0.94801 0.49528 0.19259 -0.33600
O 	O 	0.17448 0.33812 0.58656 -0.33300
O 	O 	0.05199 0.24458 0.54727 -0.34600
O 	O 	0.75156 0.58792 0.41344 -0.33200
O 	O 	0.69731 0.50472 0.45273 -0.34600
O 	O 	0.24844 0.66188 0.83636 -0.33200
O 	O 	0.30269 0.75542 0.80741 -0.34600
O 	O 	0.58656 0.33812 0.17448 -0.33300
O 	O 	0.54727 0.24458 0.05199 -0.34600
O 	O 	0.16364 0.41208 0.82552 -0.33300
O 	O 	0.19259 0.49528 0.94801 -0.34000
O 	O 	0.83636 0.66188 0.24844 -0.33200
O 	O 	0.80741 0.75542 0.30269 -0.34500
O 	O 	0.41344 0.58792 0.75156 -0.33200
O 	O 	0.45273 0.50472 0.69731 -0.34600
O 	O 	0.24844 0.83636 0.66188 -0.33200
O 	O 	0.30269 0.80741 0.75542 -0.34600
O 	O 	0.75156 0.41344 0.58792 -0.33200
O 	O 	0.69731 0.45273 0.50472 -0.34600
O 	O 	0.17448 0.58656 0.33812 -0.33300
O 	O 	0.05199 0.54727 0.24458 -0.34500
O 	O 	0.82552 0.16364 0.41208 -0.33200
O 	O 	0.94801 0.19259 0.49528 -0.33600
O 	O 	0.41208 0.82552 0.16364 -0.33200
O 	O 	0.49528 0.94801 0.19259 -0.33600
O 	O 	0.33812 0.17448 0.58656 -0.33300
O 	O 	0.24458 0.05199 0.54727 -0.34600
O 	O 	0.58792 0.75156 0.41344 -0.33200
O 	O 	0.50472 0.69731 0.45273 -0.34600
O 	O 	0.66188 0.24844 0.83636 -0.33200
O 	O 	0.75542 0.30269 0.80741 -0.34600
O 	O 	0.66188 0.41344 0.82552 -0.33200
O 	O 	0.75542 0.45273 0.94801 -0.34900
O 	O 	0.58792 0.83636 0.17448 -0.33200
O 	O 	0.50472 0.80741 0.05199 -0.34500
O 	O 	0.33812 0.16364 0.75156 -0.33300
O 	O 	0.24458 0.19259 0.69731 -0.34700
O 	O 	0.41208 0.58656 0.24844 -0.33300
O 	O 	0.49528 0.54727 0.30269 -0.34700
O 	O 	0.16364 0.75156 0.33812 -0.33200
O 	O 	0.19259 0.69731 0.24458 -0.34700
O 	O 	0.58656 0.24844 0.41208 -0.33300
O 	O 	0.54727 0.30269 0.49528 -0.34700
O 	O 	0.41344 0.82552 0.66188 -0.33200
O 	O 	0.45273 0.94801 0.75542 -0.33500
O 	O 	0.83636 0.17448 0.58792 -0.33200
O 	O 	0.80741 0.05199 0.50472 -0.34400
O 	O 	0.17448 0.58792 0.83636 -0.33300
O 	O 	0.05199 0.50472 0.80741 -0.34500
O 	O 	0.82552 0.66188 0.41344 -0.33200
O 	O 	0.94801 0.75542 0.45273 -0.33500
O 	O 	0.24844 0.41208 0.58656 -0.33300
O 	O 	0.30269 0.49528 0.54727 -0.34700
O 	O 	0.75156 0.33812 0.16364 -0.33200
O 	O 	0.69731 0.24458 0.19259 -0.34700
