data_crystal

_cell_length_a 9.67010
_cell_length_b 11.74200
_cell_length_c 18.85200
_cell_angle_alpha 90.00000
_cell_angle_beta  97.91000
_cell_angle_gamma 90.00000

_symmetry_space_group_name_	'P 1'
_symmetry_space_group_name_H-M	'P 1'

loop_
_symmetry_equiv_pos_as_xyz
  x,y,z

loop_
_atom_site_label
_atom_site_type_symbol
_atom_site_fract_x
_atom_site_fract_y
_atom_site_fract_z
_atom_site_charge
Cu	Cu	0.96186 0.62483 0.88966 0.83300
Cu	Cu	0.27939 0.62714 0.78959 0.81100
Cu	Cu	0.03814 0.62483 0.61034 0.79100
Cu	Cu	0.72061 0.62714 0.71041 0.81200
Cu	Cu	0.03814 0.37517 0.11034 0.79100
Cu	Cu	0.72061 0.37286 0.21041 0.81200
Cu	Cu	0.96186 0.37517 0.38966 0.83500
Cu	Cu	0.27939 0.37286 0.28959 0.81200
Mo	Mo	0.00000 0.62719 0.75000 0.90700
Mo	Mo	0.00000 0.37281 0.25000 0.90700
H 	H 	0.57130 0.55700 0.85400 -0.04300
H 	H 	0.68780 0.42790 0.93270 0.10400
H 	H 	0.31670 0.30550 0.96820 0.10300
H 	H 	0.20760 0.44200 0.89200 -0.07600
H 	H 	0.52640 0.24040 0.04470 0.10500
H 	H 	0.67440 0.29440 0.03490 0.10100
H 	H 	0.68320 0.17600 0.93360 0.00300
H 	H 	0.53760 0.12010 0.94610 -0.01000
H 	H 	0.63790 0.04380 0.05460 0.11500
H 	H 	0.78140 0.10750 0.04880 0.13100
H 	H 	0.90510 0.92650 0.07040 0.11200
H 	H 	0.98610 0.76510 0.02260 0.00100
H 	H 	0.71170 0.80180 0.84820 -0.04600
H 	H 	0.62280 0.95910 0.89520 0.09900
H 	H 	0.42870 0.55700 0.64600 -0.04100
H 	H 	0.31220 0.42790 0.56730 0.08900
H 	H 	0.68330 0.30550 0.53180 0.10300
H 	H 	0.79240 0.44200 0.60800 -0.04500
H 	H 	0.47360 0.24040 0.45530 0.10500
H 	H 	0.32560 0.29440 0.46510 0.09000
H 	H 	0.31680 0.17600 0.56640 -0.01500
H 	H 	0.46240 0.12010 0.55390 -0.01100
H 	H 	0.36210 0.04380 0.44540 0.11500
H 	H 	0.21860 0.10750 0.45120 0.11200
H 	H 	0.09490 0.92650 0.42960 0.08600
H 	H 	0.01390 0.76510 0.47740 -0.04800
H 	H 	0.28830 0.80180 0.65180 -0.05000
H 	H 	0.37720 0.95910 0.60480 0.09800
H 	H 	0.42870 0.44300 0.14600 -0.04200
H 	H 	0.31220 0.57210 0.06730 0.09000
H 	H 	0.68330 0.69450 0.03180 0.10500
H 	H 	0.79240 0.55800 0.10800 -0.04500
H 	H 	0.47360 0.75960 0.95530 0.10700
H 	H 	0.32560 0.70560 0.96510 0.09200
H 	H 	0.31680 0.82400 0.06640 -0.01700
H 	H 	0.46240 0.87990 0.05390 -0.01200
H 	H 	0.36210 0.95620 0.94540 0.11600
H 	H 	0.21860 0.89250 0.95120 0.11300
H 	H 	0.09490 0.07350 0.92960 0.08700
H 	H 	0.01390 0.23490 0.97740 -0.04800
H 	H 	0.28830 0.19820 0.15180 -0.05000
H 	H 	0.37720 0.04090 0.10480 0.09800
H 	H 	0.57130 0.44300 0.35400 -0.04400
H 	H 	0.68780 0.57210 0.43270 0.10700
H 	H 	0.31670 0.69450 0.46820 0.10500
H 	H 	0.20760 0.55800 0.39200 -0.07700
H 	H 	0.52640 0.75960 0.54470 0.10900
H 	H 	0.67440 0.70560 0.53490 0.10400
H 	H 	0.68320 0.82400 0.43360 -0.00100
H 	H 	0.53760 0.87990 0.44610 -0.01400
H 	H 	0.63790 0.95620 0.55460 0.12000
H 	H 	0.78140 0.89250 0.54880 0.13600
H 	H 	0.90510 0.07350 0.57040 0.11700
H 	H 	0.98610 0.23490 0.52260 -0.00800
H 	H 	0.71170 0.19820 0.34820 -0.04800
H 	H 	0.62280 0.04090 0.39520 0.10200
C 	C 	0.44530 0.69910 0.75990 -0.19000
C 	C 	0.51810 0.50460 0.87750 0.12300
C 	C 	0.58860 0.42750 0.92450 -0.23100
C 	C 	0.51520 0.35040 0.95930 0.20400
C 	C 	0.37190 0.35720 0.94540 -0.23600
C 	C 	0.30670 0.43760 0.89890 0.12200
C 	C 	0.58780 0.26130 0.00890 -0.30400
C 	C 	0.62440 0.15500 0.97070 0.11000
C 	C 	0.70110 0.06870 0.02050 -0.31800
C 	C 	0.75450 0.96510 0.98760 0.19900
C 	C 	0.86360 0.90200 0.02430 -0.20100
C 	C 	0.91200 0.80560 0.99540 0.09900
C 	C 	0.75210 0.82650 0.89440 0.11400
C 	C 	0.69980 0.92150 0.92200 -0.22400
C 	C 	0.55470 0.69910 0.74010 -0.18700
C 	C 	0.48190 0.50460 0.62250 0.11700
C 	C 	0.41140 0.42750 0.57550 -0.22100
C 	C 	0.48480 0.35040 0.54070 0.19500
C 	C 	0.62810 0.35720 0.55460 -0.22200
C 	C 	0.69330 0.43760 0.60110 0.11500
C 	C 	0.41220 0.26130 0.49110 -0.30400
C 	C 	0.37560 0.15500 0.52930 0.11500
C 	C 	0.29890 0.06870 0.47950 -0.32400
C 	C 	0.24550 0.96510 0.51240 0.19500
C 	C 	0.13640 0.90200 0.47570 -0.23000
C 	C 	0.08800 0.80560 0.50460 0.09700
C 	C 	0.24790 0.82650 0.60560 0.10300
C 	C 	0.30020 0.92150 0.57800 -0.23300
C 	C 	0.55470 0.30090 0.24010 -0.18700
C 	C 	0.48190 0.49540 0.12250 0.11900
C 	C 	0.41140 0.57250 0.07550 -0.22400
C 	C 	0.48480 0.64960 0.04070 0.20000
C 	C 	0.62810 0.64280 0.05460 -0.22500
C 	C 	0.69330 0.56240 0.10110 0.11700
C 	C 	0.41220 0.73870 0.99110 -0.31300
C 	C 	0.37560 0.84500 0.02930 0.12200
C 	C 	0.29890 0.93130 0.97950 -0.32900
C 	C 	0.24550 0.03490 0.01240 0.19600
C 	C 	0.13640 0.09800 0.97570 -0.23200
C 	C 	0.08800 0.19440 0.00460 0.09800
C 	C 	0.24790 0.17350 0.10560 0.10400
C 	C 	0.30020 0.07850 0.07800 -0.23400
C 	C 	0.44530 0.30090 0.25990 -0.19000
C 	C 	0.51810 0.49540 0.37750 0.12600
C 	C 	0.58860 0.57250 0.42450 -0.23500
C 	C 	0.51520 0.64960 0.45930 0.21200
C 	C 	0.37190 0.64280 0.44540 -0.24100
C 	C 	0.30670 0.56240 0.39890 0.12500
C 	C 	0.58780 0.73870 0.50890 -0.31800
C 	C 	0.62440 0.84500 0.47070 0.12700
C 	C 	0.70110 0.93130 0.52050 -0.33600
C 	C 	0.75450 0.03490 0.48760 0.21700
C 	C 	0.86360 0.09800 0.52430 -0.22200
C 	C 	0.91200 0.19440 0.49540 0.11900
C 	C 	0.75210 0.17350 0.39440 0.12100
C 	C 	0.69980 0.07850 0.42200 -0.23400
S 	S 	0.11840 0.73280 0.83622 -0.70200
S 	S 	0.84680 0.52000 0.79839 -0.58500
S 	S 	0.88160 0.73280 0.66378 -0.58100
S 	S 	0.15320 0.52000 0.70161 -0.66300
S 	S 	0.88160 0.26720 0.16378 -0.57900
S 	S 	0.15320 0.48000 0.20161 -0.66300
S 	S 	0.11840 0.26720 0.33622 -0.70400
S 	S 	0.84680 0.48000 0.29839 -0.58400
N 	N 	0.99620 0.52960 0.97490 -0.14500
N 	N 	0.37920 0.50950 0.86320 -0.25900
N 	N 	0.85980 0.76480 0.92970 -0.23900
N 	N 	0.00380 0.52960 0.52510 -0.24900
N 	N 	0.62080 0.50950 0.63680 -0.25300
N 	N 	0.14020 0.76480 0.57030 -0.25700
N 	N 	0.00380 0.47040 0.02510 -0.24800
N 	N 	0.62080 0.49050 0.13680 -0.25400
N 	N 	0.14020 0.23520 0.07030 -0.25700
N 	N 	0.99620 0.47040 0.47490 -0.14200
N 	N 	0.37920 0.49050 0.36320 -0.26000
N 	N 	0.85980 0.23520 0.42970 -0.24200
