data_crystal

_cell_length_a 9.63620
_cell_length_b 11.46200
_cell_length_c 19.14700
_cell_angle_alpha 90.00000
_cell_angle_beta  97.98000
_cell_angle_gamma 90.00000

_symmetry_space_group_name_	'P 1'
_symmetry_space_group_name_H-M	'P 1'

loop_
_symmetry_equiv_pos_as_xyz
  x,y,z

loop_
_atom_site_label
_atom_site_type_symbol
_atom_site_fract_x
_atom_site_fract_y
_atom_site_fract_z
_atom_site_charge
Cu	Cu	0.27973 0.61769 0.78841 0.81000
Cu	Cu	0.95984 0.61678 0.88706 0.82900
Cu	Cu	0.72027 0.61769 0.71159 0.81200
Cu	Cu	0.04016 0.61678 0.61294 0.79600
Cu	Cu	0.72027 0.38231 0.21159 0.81300
Cu	Cu	0.04016 0.38322 0.11294 0.79700
Cu	Cu	0.27973 0.38231 0.28841 0.81100
Cu	Cu	0.95984 0.38322 0.38706 0.83100
Mo	Mo	0.00000 0.61647 0.75000 0.91600
Mo	Mo	-0.00000 0.38353 0.25000 0.91500
H 	H 	0.21190 0.42430 0.88760 -0.07000
H 	H 	0.31940 0.29730 0.97110 0.10000
H 	H 	0.69150 0.42550 0.93550 0.08800
H 	H 	0.57240 0.55020 0.85350 -0.03900
H 	H 	0.69470 0.29730 0.03090 0.08400
H 	H 	0.55420 0.24050 0.05150 0.08700
H 	H 	0.54580 0.11080 0.95310 0.01100
H 	H 	0.68870 0.16650 0.93420 0.02000
H 	H 	0.66110 0.04130 0.06130 0.09600
H 	H 	0.80260 0.10590 0.04880 0.11000
H 	H 	0.62730 0.95970 0.90050 0.08400
H 	H 	0.70510 0.78970 0.85040 -0.03400
H 	H 	0.00070 0.74700 0.02090 -0.07600
H 	H 	0.92290 0.91700 0.07090 0.11100
H 	H 	0.78810 0.42430 0.61240 -0.04800
H 	H 	0.68060 0.29730 0.52890 0.10500
H 	H 	0.30850 0.42550 0.56450 0.08600
H 	H 	0.42760 0.55020 0.64650 -0.03900
H 	H 	0.30530 0.29730 0.46910 0.08400
H 	H 	0.44580 0.24050 0.44850 0.09400
H 	H 	0.45420 0.11080 0.54690 0.00500
H 	H 	0.31130 0.16650 0.56580 0.00500
H 	H 	0.33890 0.04130 0.43870 0.09500
H 	H 	0.19740 0.10590 0.45120 0.09500
H 	H 	0.37270 0.95970 0.59950 0.07800
H 	H 	0.29490 0.78970 0.64960 -0.03200
H 	H 	0.99930 0.74700 0.47910 0.06900
H 	H 	0.07710 0.91700 0.42910 0.05200
H 	H 	0.78810 0.57570 0.11240 -0.05000
H 	H 	0.68060 0.70270 0.02890 0.11500
H 	H 	0.30850 0.57450 0.06450 0.09300
H 	H 	0.42760 0.44980 0.14650 -0.04100
H 	H 	0.30530 0.70270 0.96910 0.09600
H 	H 	0.44580 0.75950 0.94850 0.10600
H 	H 	0.45420 0.88920 0.04690 -0.00700
H 	H 	0.31130 0.83350 0.06580 -0.00800
H 	H 	0.33890 0.95870 0.93870 0.10900
H 	H 	0.19740 0.89410 0.95120 0.10900
H 	H 	0.37270 0.04030 0.09950 0.08600
H 	H 	0.29490 0.21030 0.14960 -0.03600
H 	H 	0.99930 0.25300 0.97910 0.04600
H 	H 	0.07710 0.08300 0.92910 0.06700
H 	H 	0.21190 0.57570 0.38760 -0.07300
H 	H 	0.31940 0.70270 0.47110 0.11000
H 	H 	0.69150 0.57450 0.43550 0.09600
H 	H 	0.57240 0.44980 0.35350 -0.04100
H 	H 	0.69470 0.70270 0.53090 0.09600
H 	H 	0.55420 0.75950 0.55150 0.10000
H 	H 	0.54580 0.88920 0.45310 -0.00200
H 	H 	0.68870 0.83350 0.43420 0.00600
H 	H 	0.66110 0.95870 0.56130 0.11200
H 	H 	0.80260 0.89410 0.54880 0.12500
H 	H 	0.62730 0.04030 0.40050 0.09400
H 	H 	0.70510 0.21030 0.35040 -0.04000
H 	H 	0.00070 0.25300 0.52090 -0.10000
H 	H 	0.92290 0.08300 0.57090 0.12800
C 	C 	0.44370 0.69500 0.75910 -0.19200
C 	C 	0.31120 0.42550 0.89760 0.12000
C 	C 	0.37500 0.34840 0.94750 -0.22200
C 	C 	0.51800 0.34530 0.96290 0.16300
C 	C 	0.59200 0.42330 0.92680 -0.20100
C 	C 	0.51970 0.49790 0.87790 0.10400
C 	C 	0.60500 0.25990 0.01150 -0.23400
C 	C 	0.63500 0.14800 0.97330 0.02900
C 	C 	0.71930 0.06430 0.02480 -0.24100
C 	C 	0.76780 0.95430 0.99040 0.14900
C 	C 	0.70310 0.91650 0.92490 -0.18100
C 	C 	0.74930 0.81560 0.89520 0.07500
C 	C 	0.92490 0.79020 0.99640 0.14900
C 	C 	0.87870 0.89110 0.02620 -0.18900
C 	C 	0.55630 0.69500 0.74090 -0.18900
C 	C 	0.68880 0.42550 0.60240 0.12000
C 	C 	0.62500 0.34840 0.55250 -0.22100
C 	C 	0.48200 0.34530 0.53710 0.17900
C 	C 	0.40800 0.42330 0.57320 -0.20600
C 	C 	0.48030 0.49790 0.62210 0.10700
C 	C 	0.39500 0.25990 0.48850 -0.26600
C 	C 	0.36500 0.14800 0.52670 0.06100
C 	C 	0.28070 0.06430 0.47520 -0.25400
C 	C 	0.23220 0.95430 0.50960 0.12300
C 	C 	0.29690 0.91650 0.57510 -0.16400
C 	C 	0.25070 0.81560 0.60480 0.05300
C 	C 	0.07510 0.79020 0.50360 -0.05800
C 	C 	0.12130 0.89110 0.47380 -0.12200
C 	C 	0.55630 0.30500 0.24090 -0.18800
C 	C 	0.68880 0.57450 0.10240 0.13100
C 	C 	0.62500 0.65160 0.05250 -0.23800
C 	C 	0.48200 0.65470 0.03710 0.20800
C 	C 	0.40800 0.57670 0.07320 -0.22100
C 	C 	0.48030 0.50210 0.12210 0.11700
C 	C 	0.39500 0.74010 0.98850 -0.31700
C 	C 	0.36500 0.85200 0.02670 0.11500
C 	C 	0.28070 0.93570 0.97520 -0.30300
C 	C 	0.23220 0.04570 0.00960 0.16300
C 	C 	0.29690 0.08350 0.07510 -0.18900
C 	C 	0.25070 0.18440 0.10480 0.06700
C 	C 	0.07510 0.20980 0.00360 -0.01200
C 	C 	0.12130 0.10890 0.97380 -0.17500
C 	C 	0.44370 0.30500 0.25910 -0.19200
C 	C 	0.31120 0.57450 0.39760 0.13100
C 	C 	0.37500 0.65160 0.44750 -0.24000
C 	C 	0.51800 0.65470 0.46290 0.19500
C 	C 	0.59200 0.57670 0.42680 -0.21700
C 	C 	0.51970 0.50210 0.37790 0.11400
C 	C 	0.60500 0.74010 0.51150 -0.28800
C 	C 	0.63500 0.85200 0.47330 0.08900
C 	C 	0.71930 0.93570 0.52480 -0.29800
C 	C 	0.76780 0.04570 0.49040 0.19800
C 	C 	0.70310 0.08350 0.42490 -0.21000
C 	C 	0.74930 0.18440 0.39520 0.09300
C 	C 	0.92490 0.20980 0.49640 0.20300
C 	C 	0.87870 0.10890 0.52620 -0.25200
S 	S 	0.11810 0.72550 0.83439 -0.69000
S 	S 	0.84620 0.50660 0.79772 -0.59900
S 	S 	0.88190 0.72550 0.66561 -0.60000
S 	S 	0.15380 0.50660 0.70228 -0.65400
S 	S 	0.88190 0.27450 0.16561 -0.59700
S 	S 	0.15380 0.49340 0.20228 -0.65300
S 	S 	0.11810 0.27450 0.33439 -0.68900
S 	S 	0.84620 0.49340 0.29772 -0.59700
N 	N 	0.37960 0.50070 0.86300 -0.25700
N 	N 	0.99460 0.52540 0.97420 -0.15600
N 	N 	0.86020 0.75240 0.93090 -0.24200
N 	N 	0.62040 0.50070 0.63700 -0.25500
N 	N 	0.00540 0.52540 0.52580 -0.23400
N 	N 	0.13980 0.75240 0.56910 -0.22200
N 	N 	0.62040 0.49930 0.13700 -0.25800
N 	N 	0.00540 0.47460 0.02580 -0.22800
N 	N 	0.13980 0.24760 0.06910 -0.23100
N 	N 	0.37960 0.49930 0.36300 -0.26000
N 	N 	0.99460 0.47460 0.47420 -0.14900
N 	N 	0.86020 0.24760 0.43090 -0.25200
