data_crystal

_cell_length_a 8.46530
_cell_length_b 9.93870
_cell_length_c 25.11500
_cell_angle_alpha 90.56000
_cell_angle_beta  90.00000
_cell_angle_gamma 90.00000

_symmetry_space_group_name_	'P 1'
_symmetry_space_group_name_H-M	'P 1'

loop_
_symmetry_equiv_pos_as_xyz
  x,y,z

loop_
_atom_site_label
_atom_site_type_symbol
_atom_site_fract_x
_atom_site_fract_y
_atom_site_fract_z
_atom_site_charge
Co	Co	0.67333 0.25494 0.91237 1.14100
Co	Co	0.29590 0.31571 0.90214 1.10300
Co	Co	0.17333 0.24506 0.58763 1.13300
Co	Co	0.79590 0.18429 0.59786 1.10700
Co	Co	0.32667 0.74506 0.08763 1.14600
Co	Co	0.70410 0.68429 0.09786 1.11500
Co	Co	0.82667 0.75494 0.41237 1.15100
Co	Co	0.20410 0.81571 0.40214 1.11200
Co	Co	0.50000 0.50000 1.00000 1.15300
Co	Co	0.00000 0.00000 0.50000 1.14200
H 	H 	0.01000 0.94880 0.81370 0.04000
H 	H 	0.96800 0.54710 0.83110 0.04200
H 	H 	0.72590 0.79980 0.92700 0.03500
H 	H 	0.19970 0.79690 0.76860 0.12100
H 	H 	0.19580 0.64130 0.77910 0.11500
H 	H 	0.01930 0.89080 0.70160 0.10100
H 	H 	0.84280 0.64650 0.58890 0.06000
H 	H 	0.05060 0.49130 0.71840 0.08600
H 	H 	0.46490 0.24870 0.98310 0.13800
H 	H 	0.51000 0.55120 0.68630 0.07700
H 	H 	0.46800 0.95290 0.66890 0.06700
H 	H 	0.22590 0.70020 0.57300 0.03900
H 	H 	0.69970 0.70310 0.73140 0.12800
H 	H 	0.69580 0.85870 0.72090 0.13100
H 	H 	0.51930 0.60920 0.79840 0.07600
H 	H 	0.34280 0.85350 0.91110 0.04100
H 	H 	0.55060 0.00870 0.78160 0.02900
H 	H 	0.96490 0.25130 0.51690 0.15900
H 	H 	0.99000 0.05120 0.18630 0.11700
H 	H 	0.03200 0.45290 0.16890 0.07800
H 	H 	0.27410 0.20020 0.07300 0.05400
H 	H 	0.80030 0.20310 0.23140 0.13400
H 	H 	0.80420 0.35870 0.22090 0.13500
H 	H 	0.98070 0.10920 0.29840 0.06400
H 	H 	0.15720 0.35350 0.41110 0.03100
H 	H 	0.94940 0.50870 0.28160 0.06500
H 	H 	0.53510 0.75130 0.01690 0.17100
H 	H 	0.49000 0.44880 0.31370 0.08200
H 	H 	0.53200 0.04710 0.33110 0.05200
H 	H 	0.77410 0.29980 0.42700 0.05300
H 	H 	0.30030 0.29690 0.26860 0.12900
H 	H 	0.30420 0.14130 0.27910 0.12000
H 	H 	0.48070 0.39080 0.20160 0.08700
H 	H 	0.65720 0.14650 0.08890 0.04800
H 	H 	0.44940 0.99130 0.21840 0.12400
H 	H 	0.03510 0.74870 0.48310 0.14900
C 	C 	0.86150 0.89370 0.87250 -0.04700
C 	C 	0.96740 0.87520 0.83120 -0.00400
C 	C 	0.01050 0.74160 0.81594 0.02600
C 	C 	0.94330 0.63450 0.84179 -0.02200
C 	C 	0.83700 0.65650 0.88451 -0.10300
C 	C 	0.79660 0.78520 0.89921 0.01500
C 	C 	0.80510 0.03510 0.88590 0.25900
C 	C 	0.75610 0.53900 0.91050 0.37100
C 	C 	0.13100 0.71910 0.77120 -0.27800
C 	C 	0.04610 0.69700 0.71947 0.14700
C 	C 	0.00070 0.80390 0.68900 -0.16100
C 	C 	0.92660 0.78600 0.63930 -0.01100
C 	C 	0.89410 0.65900 0.62131 -0.04600
C 	C 	0.93770 0.54810 0.65147 0.01000
C 	C 	0.01680 0.56580 0.69940 -0.16500
C 	C 	0.88330 0.90730 0.60740 0.36800
C 	C 	0.89980 0.40910 0.63202 0.30000
C 	C 	0.36150 0.60630 0.62750 -0.03600
C 	C 	0.46740 0.62480 0.66880 -0.10000
C 	C 	0.51050 0.75840 0.68406 0.11000
C 	C 	0.44330 0.86550 0.65821 -0.08700
C 	C 	0.33700 0.84350 0.61549 -0.08000
C 	C 	0.29660 0.71480 0.60079 -0.00700
C 	C 	0.30510 0.46490 0.61410 0.27500
C 	C 	0.25610 0.96100 0.58950 0.40100
C 	C 	0.63100 0.78090 0.72880 -0.29000
C 	C 	0.54610 0.80300 0.78053 0.09900
C 	C 	0.50070 0.69610 0.81100 -0.08800
C 	C 	0.42660 0.71400 0.86070 -0.07200
C 	C 	0.39410 0.84100 0.87869 -0.00000
C 	C 	0.43770 0.95190 0.84853 -0.04300
C 	C 	0.51680 0.93420 0.80060 -0.03600
C 	C 	0.38330 0.59270 0.89260 0.35200
C 	C 	0.39980 0.09090 0.86798 0.29400
C 	C 	0.13850 0.10630 0.12750 -0.02100
C 	C 	0.03260 0.12480 0.16880 -0.20200
C 	C 	0.98950 0.25840 0.18406 0.19700
C 	C 	0.05670 0.36550 0.15821 -0.16600
C 	C 	0.16300 0.34350 0.11549 -0.03300
C 	C 	0.20340 0.21480 0.10079 -0.04300
C 	C 	0.19490 0.96490 0.11410 0.29400
C 	C 	0.24390 0.46100 0.08950 0.34000
C 	C 	0.86900 0.28090 0.22880 -0.33100
C 	C 	0.95390 0.30300 0.28053 0.10500
C 	C 	0.99930 0.19610 0.31100 -0.05600
C 	C 	0.07340 0.21400 0.36070 -0.10000
C 	C 	0.10590 0.34100 0.37869 0.02300
C 	C 	0.06230 0.45190 0.34853 -0.09700
C 	C 	0.98320 0.43420 0.30060 -0.05200
C 	C 	0.11670 0.09270 0.39260 0.31300
C 	C 	0.10020 0.59090 0.36798 0.33000
C 	C 	0.63850 0.39370 0.37250 -0.02100
C 	C 	0.53260 0.37520 0.33120 -0.11400
C 	C 	0.48950 0.24160 0.31594 0.12100
C 	C 	0.55670 0.13450 0.34179 -0.10900
C 	C 	0.66300 0.15650 0.38451 -0.05300
C 	C 	0.70340 0.28520 0.39921 -0.02800
C 	C 	0.69490 0.53510 0.38590 0.26900
C 	C 	0.74390 0.03900 0.41050 0.31200
C 	C 	0.36900 0.21910 0.27120 -0.32000
C 	C 	0.45390 0.19700 0.21947 0.15100
C 	C 	0.49930 0.30390 0.18900 -0.12300
C 	C 	0.57340 0.28600 0.13930 -0.04700
C 	C 	0.60590 0.15900 0.12131 -0.01600
C 	C 	0.56230 0.04810 0.15147 -0.05300
C 	C 	0.48320 0.06580 0.19940 -0.17400
C 	C 	0.61670 0.40730 0.10740 0.34100
C 	C 	0.60020 0.90910 0.13202 0.33800
O 	O 	0.48620 0.31940 0.95716 -0.69600
O 	O 	0.84910 0.13750 0.86076 -0.36400
O 	O 	0.70430 0.05080 0.92394 -0.42000
O 	O 	0.70750 0.55710 0.95684 -0.47900
O 	O 	0.74300 0.43330 0.88297 -0.46300
O 	O 	0.86460 0.01600 0.63211 -0.50000
O 	O 	0.86740 0.89420 0.55718 -0.43900
O 	O 	0.78430 0.39250 0.60200 -0.43400
O 	O 	0.98170 0.30940 0.64536 -0.44200
O 	O 	0.98620 0.18060 0.54284 -0.68200
O 	O 	0.34910 0.36250 0.63924 -0.37200
O 	O 	0.20430 0.44920 0.57606 -0.41400
O 	O 	0.20750 0.94290 0.54316 -0.46500
O 	O 	0.24300 0.06670 0.61703 -0.50500
O 	O 	0.36460 0.48400 0.86789 -0.48200
O 	O 	0.36740 0.60580 0.94282 -0.47100
O 	O 	0.28430 0.10750 0.89800 -0.45700
O 	O 	0.48170 0.19060 0.85464 -0.45800
O 	O 	0.51380 0.68060 0.04284 -0.68200
O 	O 	0.15090 0.86250 0.13924 -0.36600
O 	O 	0.29570 0.94920 0.07606 -0.38800
O 	O 	0.29250 0.44290 0.04316 -0.44600
O 	O 	0.25700 0.56670 0.11703 -0.45400
O 	O 	0.13540 0.98400 0.36789 -0.44200
O 	O 	0.13260 0.10580 0.44282 -0.46400
O 	O 	0.21570 0.60750 0.39800 -0.44300
O 	O 	0.01830 0.69060 0.35464 -0.47100
O 	O 	0.01380 0.81940 0.45716 -0.68900
O 	O 	0.65090 0.63750 0.36076 -0.36100
O 	O 	0.79570 0.55080 0.42394 -0.39600
O 	O 	0.79250 0.05710 0.45684 -0.45600
O 	O 	0.75700 0.93330 0.38297 -0.41700
O 	O 	0.63540 0.51600 0.13211 -0.47000
O 	O 	0.63260 0.39420 0.05718 -0.43500
O 	O 	0.71570 0.89250 0.10200 -0.42400
O 	O 	0.51830 0.80940 0.14536 -0.46000
