data_crystal

_cell_length_a 26.04140
_cell_length_b 26.04140
_cell_length_c 26.04140
_cell_angle_alpha 109.47100
_cell_angle_beta  109.47100
_cell_angle_gamma 109.47100

_symmetry_space_group_name_	'P 1'
_symmetry_space_group_name_H-M	'P 1'

loop_
_symmetry_equiv_pos_as_xyz
  x,y,z

loop_
_atom_site_label
_atom_site_type_symbol
_atom_site_fract_x
_atom_site_fract_y
_atom_site_fract_z
_atom_site_charge
Cd	Cd	0.64518 0.29036 0.14518 1.22900
Cd	Cd	0.14518 0.50000 0.85482 1.22900
Cd	Cd	0.85482 0.70964 0.35482 1.22900
Cd	Cd	0.35482 0.50000 0.64518 1.22800
Cd	Cd	0.35482 0.85482 0.70964 1.22800
Cd	Cd	0.64518 0.35482 0.50000 1.22800
Cd	Cd	0.14518 0.64518 0.29036 1.22800
Cd	Cd	0.85482 0.14518 0.50000 1.22800
Cd	Cd	0.50000 0.85482 0.14518 1.22800
Cd	Cd	0.29036 0.14518 0.64518 1.22800
Cd	Cd	0.50000 0.64518 0.35482 1.22800
Cd	Cd	0.70964 0.35482 0.85482 1.22800
Cd	Cd	0.35482 0.70964 0.85482 1.22800
Cd	Cd	0.85482 0.50000 0.14518 1.22800
Cd	Cd	0.14518 0.29036 0.64518 1.22800
Cd	Cd	0.64518 0.50000 0.35482 1.22800
Cd	Cd	0.64518 0.14518 0.29036 1.22800
Cd	Cd	0.35482 0.64518 0.50000 1.22800
Cd	Cd	0.85482 0.35482 0.70964 1.22800
Cd	Cd	0.14518 0.85482 0.50000 1.22800
Cd	Cd	0.50000 0.14518 0.85482 1.22800
Cd	Cd	0.70964 0.85482 0.35482 1.22800
Cd	Cd	0.50000 0.35482 0.64518 1.22800
Cd	Cd	0.29036 0.64518 0.14518 1.22800
H 	H 	0.58540 0.36900 0.08660 0.02100
H 	H 	0.49920 0.21950 0.12570 0.01400
H 	H 	0.28240 0.49880 0.91340 0.02300
H 	H 	0.09380 0.37350 0.87430 0.01300
H 	H 	0.71760 0.63100 0.21640 0.02200
H 	H 	0.90620 0.78050 0.27970 0.01100
H 	H 	0.41460 0.50120 0.78360 0.02300
H 	H 	0.50080 0.62650 0.72030 0.01600
H 	H 	0.21640 0.71760 0.63100 0.02200
H 	H 	0.27970 0.90620 0.78050 0.01500
H 	H 	0.78360 0.41460 0.50120 0.02300
H 	H 	0.72030 0.50080 0.62650 0.01600
H 	H 	0.08660 0.58540 0.36900 0.02200
H 	H 	0.12570 0.49920 0.21950 0.01400
H 	H 	0.91340 0.28240 0.49880 0.02300
H 	H 	0.87430 0.09380 0.37350 0.01700
H 	H 	0.49880 0.91340 0.28240 0.02300
H 	H 	0.37350 0.87430 0.09380 0.01100
H 	H 	0.36900 0.08660 0.58540 0.02200
H 	H 	0.21950 0.12570 0.49920 0.01500
H 	H 	0.50120 0.78360 0.41460 0.02300
H 	H 	0.62650 0.72030 0.50080 0.01600
H 	H 	0.63100 0.21640 0.71760 0.02300
H 	H 	0.78050 0.27970 0.90620 0.01000
H 	H 	0.63100 0.41460 0.91340 0.02400
H 	H 	0.78050 0.50080 0.87430 0.01600
H 	H 	0.50120 0.71760 0.08660 0.02100
H 	H 	0.62650 0.90620 0.12570 0.01200
H 	H 	0.36900 0.28240 0.78360 0.02300
H 	H 	0.21950 0.09380 0.72030 0.01500
H 	H 	0.49880 0.58540 0.21640 0.02200
H 	H 	0.37350 0.49920 0.27970 0.01500
H 	H 	0.28240 0.78360 0.36900 0.02200
H 	H 	0.09380 0.72030 0.21950 0.01200
H 	H 	0.58540 0.21640 0.49880 0.02200
H 	H 	0.49920 0.27970 0.37350 0.01500
H 	H 	0.41460 0.91340 0.63100 0.02300
H 	H 	0.50080 0.87430 0.78050 0.01600
H 	H 	0.71760 0.08660 0.50120 0.02200
H 	H 	0.90620 0.12570 0.62650 0.00700
H 	H 	0.08660 0.50120 0.71760 0.02200
H 	H 	0.12570 0.62650 0.90620 0.00900
H 	H 	0.91340 0.63100 0.41460 0.02300
H 	H 	0.87430 0.78050 0.50080 0.01600
H 	H 	0.21640 0.49880 0.58540 0.02200
H 	H 	0.27970 0.37350 0.49920 0.01500
H 	H 	0.78360 0.36900 0.28240 0.02300
H 	H 	0.72030 0.21950 0.09380 0.01200
H 	H 	0.41460 0.63100 0.91340 0.02400
H 	H 	0.50080 0.78050 0.87430 0.01600
H 	H 	0.71760 0.50120 0.08660 0.02100
H 	H 	0.90620 0.62650 0.12570 0.01000
H 	H 	0.28240 0.36900 0.78360 0.02300
H 	H 	0.09380 0.21950 0.72030 0.00900
H 	H 	0.58540 0.49880 0.21640 0.02200
H 	H 	0.49920 0.37350 0.27970 0.01500
H 	H 	0.78360 0.28240 0.36900 0.02300
H 	H 	0.72030 0.09380 0.21950 0.01300
H 	H 	0.21640 0.58540 0.49880 0.02200
H 	H 	0.27970 0.49920 0.37350 0.01500
H 	H 	0.91340 0.41460 0.63100 0.02300
H 	H 	0.87430 0.50080 0.78050 0.01600
H 	H 	0.08660 0.71760 0.50120 0.02200
H 	H 	0.12570 0.90620 0.62650 0.01400
H 	H 	0.50120 0.08660 0.71760 0.02200
H 	H 	0.62650 0.12570 0.90620 0.01000
H 	H 	0.63100 0.91340 0.41460 0.02300
H 	H 	0.78050 0.87430 0.50080 0.01600
H 	H 	0.49880 0.21640 0.58540 0.02200
H 	H 	0.37350 0.27970 0.49920 0.01500
H 	H 	0.36900 0.78360 0.28240 0.02200
H 	H 	0.21950 0.72030 0.09380 0.01100
H 	H 	0.36900 0.58540 0.08660 0.02100
H 	H 	0.21950 0.49920 0.12570 0.01400
H 	H 	0.49880 0.28240 0.91340 0.02300
H 	H 	0.37350 0.09380 0.87430 0.01600
H 	H 	0.63100 0.71760 0.21640 0.02200
H 	H 	0.78050 0.90620 0.27970 0.01600
H 	H 	0.50120 0.41460 0.78360 0.02300
H 	H 	0.62650 0.50080 0.72030 0.01600
H 	H 	0.71760 0.21640 0.63100 0.02300
H 	H 	0.90620 0.27970 0.78050 0.01200
H 	H 	0.41460 0.78360 0.50120 0.02300
H 	H 	0.50080 0.72030 0.62650 0.01600
H 	H 	0.58540 0.08660 0.36900 0.02200
H 	H 	0.49920 0.12570 0.21950 0.01500
H 	H 	0.28240 0.91340 0.49880 0.02300
H 	H 	0.09380 0.87430 0.37350 0.01200
H 	H 	0.91340 0.49880 0.28240 0.02300
H 	H 	0.87430 0.37350 0.09380 0.01200
H 	H 	0.08660 0.36900 0.58540 0.02200
H 	H 	0.12570 0.21950 0.49920 0.01400
H 	H 	0.78360 0.50120 0.41460 0.02300
H 	H 	0.72030 0.62650 0.50080 0.01600
H 	H 	0.21640 0.63100 0.71760 0.02200
H 	H 	0.27970 0.78050 0.90620 0.01000
H 	H 	0.61440 0.44960 0.06400 0.07800
H 	H 	0.38560 0.55040 0.93600 0.08200
H 	H 	0.61440 0.55040 0.16480 0.07900
H 	H 	0.38560 0.44960 0.83520 0.08100
H 	H 	0.16480 0.61440 0.55040 0.07900
H 	H 	0.83520 0.38560 0.44960 0.08100
H 	H 	0.06400 0.61440 0.44960 0.07900
H 	H 	0.93600 0.38560 0.55040 0.08200
H 	H 	0.55040 0.93600 0.38560 0.08100
H 	H 	0.44960 0.06400 0.61440 0.08000
H 	H 	0.44960 0.83520 0.38560 0.08000
H 	H 	0.55040 0.16480 0.61440 0.08000
H 	H 	0.55040 0.38560 0.93600 0.08200
H 	H 	0.44960 0.61440 0.06400 0.07800
H 	H 	0.44960 0.38560 0.83520 0.08100
H 	H 	0.55040 0.61440 0.16480 0.07900
H 	H 	0.38560 0.83520 0.44960 0.08000
H 	H 	0.61440 0.16480 0.55040 0.08000
H 	H 	0.38560 0.93600 0.55040 0.08000
H 	H 	0.61440 0.06400 0.44960 0.08000
H 	H 	0.06400 0.44960 0.61440 0.07900
H 	H 	0.93600 0.55040 0.38560 0.08200
H 	H 	0.16480 0.55040 0.61440 0.07900
H 	H 	0.83520 0.44960 0.38560 0.08100
H 	H 	0.44720 0.15620 0.15620 0.09300
H 	H 	0.00000 0.29100 0.84380 0.09900
H 	H 	0.00000 0.84380 0.29100 0.09800
H 	H 	0.55280 0.70900 0.70900 0.09500
H 	H 	0.29100 0.00000 0.84380 0.09600
H 	H 	0.70900 0.55280 0.70900 0.09500
H 	H 	0.15620 0.44720 0.15620 0.09200
H 	H 	0.84380 1.00000 0.29100 0.09300
H 	H 	0.29100 0.84380 -0.00000 0.09900
H 	H 	0.15620 0.15620 0.44720 0.09300
H 	H 	0.70900 0.70900 0.55280 0.09500
H 	H 	0.84380 0.29100 -0.00000 0.10000
H 	H 	0.84380 0.55280 0.84380 0.09700
H 	H 	0.70900 1.00000 0.15620 0.09800
H 	H 	0.15620 0.00000 0.70900 0.09500
H 	H 	0.29100 0.44720 0.29100 0.09300
H 	H 	0.00000 0.70900 0.15620 0.09700
H 	H 	0.44720 0.29100 0.29100 0.09300
H 	H 	0.55280 0.84380 0.84380 0.09600
H 	H 	1.00000 0.15620 0.70900 0.11300
H 	H 	0.15620 0.70900 -0.00000 0.09900
H 	H 	0.84380 0.84380 0.55280 0.09600
H 	H 	0.29100 0.29100 0.44720 0.09300
H 	H 	0.70900 0.15620 -0.00000 0.10000
C 	C 	0.62680 0.38960 0.09380 0.08100
C 	C 	0.51970 0.20400 0.14890 0.10900
C 	C 	0.29580 0.53300 0.90620 0.08300
C 	C 	0.05510 0.37080 0.85110 0.11700
C 	C 	0.70420 0.61040 0.23720 0.08200
C 	C 	0.94490 0.79600 0.31570 0.12600
C 	C 	0.37320 0.46700 0.76280 0.08200
C 	C 	0.48030 0.62920 0.68430 0.11000
C 	C 	0.23720 0.70420 0.61040 0.08200
C 	C 	0.31570 0.94490 0.79600 0.11400
C 	C 	0.76280 0.37320 0.46700 0.08200
C 	C 	0.68430 0.48030 0.62920 0.11000
C 	C 	0.09380 0.62680 0.38960 0.08100
C 	C 	0.14890 0.51970 0.20400 0.10900
C 	C 	0.90620 0.29580 0.53300 0.08300
C 	C 	0.85110 0.05510 0.37080 0.10600
C 	C 	0.53300 0.90620 0.29580 0.08200
C 	C 	0.37080 0.85110 0.05510 0.12000
C 	C 	0.38960 0.09380 0.62680 0.08100
C 	C 	0.20400 0.14890 0.51970 0.11000
C 	C 	0.46700 0.76280 0.37320 0.08200
C 	C 	0.62920 0.68430 0.48030 0.11000
C 	C 	0.61040 0.23720 0.70420 0.08200
C 	C 	0.79600 0.31570 0.94490 0.13300
C 	C 	0.61040 0.37320 0.90620 0.08300
C 	C 	0.79600 0.48030 0.85110 0.11100
C 	C 	0.46700 0.70420 0.09380 0.08100
C 	C 	0.62920 0.94490 0.14890 0.11700
C 	C 	0.38960 0.29580 0.76280 0.08200
C 	C 	0.20400 0.05510 0.68430 0.11200
C 	C 	0.53300 0.62680 0.23720 0.08200
C 	C 	0.37080 0.51970 0.31570 0.11000
C 	C 	0.29580 0.76280 0.38960 0.08200
C 	C 	0.05510 0.68430 0.20400 0.11600
C 	C 	0.62680 0.23720 0.53300 0.08200
C 	C 	0.51970 0.31570 0.37080 0.11000
C 	C 	0.37320 0.90620 0.61040 0.08200
C 	C 	0.48030 0.85110 0.79600 0.11100
C 	C 	0.70420 0.09380 0.46700 0.08100
C 	C 	0.94490 0.14890 0.62920 0.13600
C 	C 	0.09380 0.46700 0.70420 0.08100
C 	C 	0.14890 0.62920 0.94490 0.13200
C 	C 	0.90620 0.61040 0.37320 0.08300
C 	C 	0.85110 0.79600 0.48030 0.11100
C 	C 	0.23720 0.53300 0.62680 0.08200
C 	C 	0.31570 0.37080 0.51970 0.11000
C 	C 	0.76280 0.38960 0.29580 0.08200
C 	C 	0.68430 0.20400 0.05510 0.12000
C 	C 	0.37320 0.61040 0.90620 0.08300
C 	C 	0.48030 0.79600 0.85110 0.11100
C 	C 	0.70420 0.46700 0.09380 0.08100
C 	C 	0.94490 0.62920 0.14890 0.12500
C 	C 	0.29580 0.38960 0.76280 0.08200
C 	C 	0.05510 0.20400 0.68430 0.12800
C 	C 	0.62680 0.53300 0.23720 0.08200
C 	C 	0.51970 0.37080 0.31570 0.11000
C 	C 	0.76280 0.29580 0.38960 0.08200
C 	C 	0.68430 0.05510 0.20400 0.11400
C 	C 	0.23720 0.62680 0.53300 0.08200
C 	C 	0.31570 0.51970 0.37080 0.11000
C 	C 	0.90620 0.37320 0.61040 0.08300
C 	C 	0.85110 0.48030 0.79600 0.11100
C 	C 	0.09380 0.70420 0.46700 0.08100
C 	C 	0.14890 0.94490 0.62920 0.11300
C 	C 	0.46700 0.09380 0.70420 0.08100
C 	C 	0.62920 0.14890 0.94490 0.13200
C 	C 	0.61040 0.90620 0.37320 0.08200
C 	C 	0.79600 0.85110 0.48030 0.11100
C 	C 	0.53300 0.23720 0.62680 0.08200
C 	C 	0.37080 0.31570 0.51970 0.11000
C 	C 	0.38960 0.76280 0.29580 0.08200
C 	C 	0.20400 0.68430 0.05510 0.11900
C 	C 	0.38960 0.62680 0.09380 0.08100
C 	C 	0.20400 0.51970 0.14890 0.10900
C 	C 	0.53300 0.29580 0.90620 0.08300
C 	C 	0.37080 0.05510 0.85110 0.11200
C 	C 	0.61040 0.70420 0.23720 0.08200
C 	C 	0.79600 0.94490 0.31570 0.10800
C 	C 	0.46700 0.37320 0.76280 0.08200
C 	C 	0.62920 0.48030 0.68430 0.11000
C 	C 	0.70420 0.23720 0.61040 0.08200
C 	C 	0.94490 0.31570 0.79600 0.12600
C 	C 	0.37320 0.76280 0.46700 0.08200
C 	C 	0.48030 0.68430 0.62920 0.11000
C 	C 	0.62680 0.09380 0.38960 0.08100
C 	C 	0.51970 0.14890 0.20400 0.10900
C 	C 	0.29580 0.90620 0.53300 0.08200
C 	C 	0.05510 0.85110 0.37080 0.11700
C 	C 	0.90620 0.53300 0.29580 0.08300
C 	C 	0.85110 0.37080 0.05510 0.12000
C 	C 	0.09380 0.38960 0.62680 0.08100
C 	C 	0.14890 0.20400 0.51970 0.11000
C 	C 	0.76280 0.46700 0.37320 0.08200
C 	C 	0.68430 0.62920 0.48030 0.11000
C 	C 	0.23720 0.61040 0.70420 0.08200
C 	C 	0.31570 0.79600 0.94490 0.13200
C 	C 	0.61210 0.38310 0.22900 0.30200
C 	C 	0.67720 0.40210 0.27510 0.00700
C 	C 	0.15410 0.38310 0.77100 0.30100
C 	C 	0.12700 0.40210 0.72490 0.00700
C 	C 	0.84590 0.61690 0.22900 0.30200
C 	C 	0.87300 0.59790 0.27510 0.00800
C 	C 	0.38790 0.61690 0.77100 0.30100
C 	C 	0.32280 0.59790 0.72490 0.00700
C 	C 	0.22900 0.84590 0.61690 0.30200
C 	C 	0.27510 0.87300 0.59790 0.00700
C 	C 	0.77100 0.38790 0.61690 0.30100
C 	C 	0.72490 0.32280 0.59790 0.00700
C 	C 	0.22900 0.61210 0.38310 0.30200
C 	C 	0.27510 0.67720 0.40210 0.00700
C 	C 	0.77100 0.15410 0.38310 0.30100
C 	C 	0.72490 0.12700 0.40210 0.00700
C 	C 	0.38310 0.77100 0.15410 0.30100
C 	C 	0.40210 0.72490 0.12700 0.00600
C 	C 	0.38310 0.22900 0.61210 0.30100
C 	C 	0.40210 0.27510 0.67720 0.00700
C 	C 	0.61690 0.77100 0.38790 0.30100
C 	C 	0.59790 0.72490 0.32280 0.00700
C 	C 	0.61690 0.22900 0.84590 0.30200
C 	C 	0.59790 0.27510 0.87300 0.00800
C 	C 	0.61690 0.38790 0.77100 0.30100
C 	C 	0.59790 0.32280 0.72490 0.00700
C 	C 	0.61690 0.84590 0.22900 0.30200
C 	C 	0.59790 0.87300 0.27510 0.00700
C 	C 	0.38310 0.15410 0.77100 0.30100
C 	C 	0.40210 0.12700 0.72490 0.00700
C 	C 	0.38310 0.61210 0.22900 0.30200
C 	C 	0.40210 0.67720 0.27510 0.00700
C 	C 	0.15410 0.77100 0.38310 0.30100
C 	C 	0.12700 0.72490 0.40210 0.00700
C 	C 	0.61210 0.22900 0.38310 0.30100
C 	C 	0.67720 0.27510 0.40210 0.00700
C 	C 	0.38790 0.77100 0.61690 0.30100
C 	C 	0.32280 0.72490 0.59790 0.00700
C 	C 	0.84590 0.22900 0.61690 0.30200
C 	C 	0.87300 0.27510 0.59790 0.00800
C 	C 	0.22900 0.61690 0.84590 0.30200
C 	C 	0.27510 0.59790 0.87300 0.00800
C 	C 	0.77100 0.61690 0.38790 0.30100
C 	C 	0.72490 0.59790 0.32280 0.00700
C 	C 	0.22900 0.38310 0.61210 0.30200
C 	C 	0.27510 0.40210 0.67720 0.00700
C 	C 	0.77100 0.38310 0.15410 0.30100
C 	C 	0.72490 0.40210 0.12700 0.00600
C 	C 	0.64350 0.43750 0.08100 -0.13600
C 	C 	0.35650 0.56250 0.91900 -0.13400
C 	C 	0.64350 0.56250 0.20600 -0.13500
C 	C 	0.35650 0.43750 0.79400 -0.13500
C 	C 	0.20600 0.64350 0.56250 -0.13500
C 	C 	0.79400 0.35650 0.43750 -0.13500
C 	C 	0.08100 0.64350 0.43750 -0.13600
C 	C 	0.91900 0.35650 0.56250 -0.13500
C 	C 	0.56250 0.91900 0.35650 -0.13500
C 	C 	0.43750 0.08100 0.64350 -0.13500
C 	C 	0.43750 0.79400 0.35650 -0.13500
C 	C 	0.56250 0.20600 0.64350 -0.13500
C 	C 	0.56250 0.35650 0.91900 -0.13400
C 	C 	0.43750 0.64350 0.08100 -0.13600
C 	C 	0.43750 0.35650 0.79400 -0.13500
C 	C 	0.56250 0.64350 0.20600 -0.13500
C 	C 	0.35650 0.79400 0.43750 -0.13500
C 	C 	0.64350 0.20600 0.56250 -0.13500
C 	C 	0.35650 0.91900 0.56250 -0.13500
C 	C 	0.64350 0.08100 0.43750 -0.13500
C 	C 	0.08100 0.43750 0.64350 -0.13600
C 	C 	0.91900 0.56250 0.35650 -0.13500
C 	C 	0.20600 0.56250 0.64350 -0.13500
C 	C 	0.79400 0.43750 0.35650 -0.13500
C 	C 	0.54150 0.21210 -0.00000 0.27300
C 	C 	0.59100 0.19580 -0.00000 0.00000
C 	C 	0.21210 0.54150 -0.00000 0.27300
C 	C 	0.19580 0.59100 -0.00000 -0.00000
C 	C 	0.78790 0.78790 0.32940 0.28500
C 	C 	0.80420 0.80420 0.39520 0.00600
C 	C 	0.45850 0.45850 0.67060 0.28500
C 	C 	0.40900 0.40900 0.60480 0.00500
C 	C 	0.32940 0.78790 0.78790 0.28500
C 	C 	0.39520 0.80420 0.80420 0.00600
C 	C 	0.67060 0.45850 0.45850 0.28500
C 	C 	0.60480 0.40900 0.40900 0.00500
C 	C 	0.00000 0.54150 0.21210 0.27600
C 	C 	0.00000 0.59100 0.19580 0.00100
C 	C 	0.00000 0.21210 0.54150 0.27600
C 	C 	0.00000 0.19580 0.59100 0.00300
C 	C 	0.54150 0.00000 0.21210 0.28300
C 	C 	0.59100 0.00000 0.19580 0.00400
C 	C 	0.21210 0.00000 0.54150 0.28100
C 	C 	0.19580 1.00000 0.59100 0.00900
C 	C 	0.45850 0.67060 0.45850 0.28500
C 	C 	0.40900 0.60480 0.40900 0.00500
C 	C 	0.78790 0.32940 0.78790 0.28500
C 	C 	0.80420 0.39520 0.80420 0.00700
C 	C 	0.78790 0.45850 -0.00000 0.27300
C 	C 	0.80420 0.40900 -0.00000 0.00100
C 	C 	0.45850 0.78790 -0.00000 0.27300
C 	C 	0.40900 0.80420 -0.00000 0.00000
C 	C 	0.21210 0.21210 0.67060 0.28500
C 	C 	0.19580 0.19580 0.60480 0.00500
C 	C 	0.54150 0.54150 0.32940 0.28500
C 	C 	0.59100 0.59100 0.39520 0.00500
C 	C 	0.21210 0.67060 0.21210 0.28500
C 	C 	0.19580 0.60480 0.19580 0.00500
C 	C 	0.54150 0.32940 0.54150 0.28500
C 	C 	0.59100 0.39520 0.59100 0.00500
C 	C 	0.45850 1.00000 0.78790 0.28900
C 	C 	0.40900 0.00000 0.80420 0.00300
C 	C 	0.78790 0.00000 0.45850 0.28300
C 	C 	0.80420 0.00000 0.40900 0.00400
C 	C 	0.00000 0.45850 0.78790 0.27700
C 	C 	-0.00000 0.40900 0.80420 0.00200
C 	C 	-0.00000 0.78790 0.45850 0.27600
C 	C 	-0.00000 0.80420 0.40900 0.00200
C 	C 	0.32940 0.54150 0.54150 0.28500
C 	C 	0.39520 0.59100 0.59100 0.00500
C 	C 	0.67060 0.21210 0.21210 0.28500
C 	C 	0.60480 0.19580 0.19580 0.00500
C 	C 	0.48980 0.16810 0.16810 -0.16200
C 	C 	0.00000 0.32170 0.83190 -0.17800
C 	C 	0.00000 0.83190 0.32170 -0.17900
C 	C 	0.51020 0.67830 0.67830 -0.16100
C 	C 	0.32170 0.00000 0.83190 -0.16500
C 	C 	0.67830 0.51020 0.67830 -0.16100
C 	C 	0.16810 0.48980 0.16810 -0.16200
C 	C 	0.83190 1.00000 0.32170 -0.15600
C 	C 	0.32170 0.83190 -0.00000 -0.18600
C 	C 	0.16810 0.16810 0.48980 -0.16200
C 	C 	0.67830 0.67830 0.51020 -0.16100
C 	C 	0.83190 0.32170 -0.00000 -0.18600
C 	C 	0.83190 0.51020 0.83190 -0.16100
C 	C 	0.67830 0.00000 0.16810 -0.17200
C 	C 	0.16810 0.00000 0.67830 -0.16600
C 	C 	0.32170 0.48980 0.32170 -0.16100
C 	C 	0.00000 0.67830 0.16810 -0.17900
C 	C 	0.48980 0.32170 0.32170 -0.16100
C 	C 	0.51020 0.83190 0.83190 -0.16100
C 	C 	0.00000 0.16810 0.67830 -0.20000
C 	C 	0.16810 0.67830 -0.00000 -0.18600
C 	C 	0.83190 0.83190 0.51020 -0.16100
C 	C 	0.32170 0.32170 0.48980 -0.16100
C 	C 	0.67830 0.16810 -0.00000 -0.18600
N 	N 	0.66690 0.37100 0.11630 -0.19600
N 	N 	0.57690 0.21730 0.16260 -0.20100
N 	N 	0.25470 0.55060 0.88370 -0.19500
N 	N 	0.05470 0.41430 0.83740 -0.20200
N 	N 	0.74530 0.62900 0.29590 -0.19600
N 	N 	0.94530 0.78270 0.35960 -0.20000
N 	N 	0.33310 0.44940 0.70410 -0.19600
N 	N 	0.42310 0.58570 0.64040 -0.20100
N 	N 	0.29590 0.74530 0.62900 -0.19600
N 	N 	0.35960 0.94530 0.78270 -0.20000
N 	N 	0.70410 0.33310 0.44940 -0.19600
N 	N 	0.64040 0.42310 0.58570 -0.20100
N 	N 	0.11630 0.66690 0.37100 -0.19600
N 	N 	0.16260 0.57690 0.21730 -0.20100
N 	N 	0.88370 0.25470 0.55060 -0.19600
N 	N 	0.83740 0.05470 0.41430 -0.20000
N 	N 	0.55060 0.88370 0.25470 -0.19600
N 	N 	0.41430 0.83740 0.05470 -0.20300
N 	N 	0.37100 0.11630 0.66690 -0.19600
N 	N 	0.21730 0.16260 0.57690 -0.20100
N 	N 	0.44940 0.70410 0.33310 -0.19600
N 	N 	0.58570 0.64040 0.42310 -0.20100
N 	N 	0.62900 0.29590 0.74530 -0.19600
N 	N 	0.78270 0.35960 0.94530 -0.20000
N 	N 	0.62900 0.33310 0.88370 -0.19500
N 	N 	0.78270 0.42310 0.83740 -0.20000
N 	N 	0.44940 0.74530 0.11630 -0.19600
N 	N 	0.58570 0.94530 0.16260 -0.20100
N 	N 	0.37100 0.25470 0.70410 -0.19600
N 	N 	0.21730 0.05470 0.64040 -0.20200
N 	N 	0.55060 0.66690 0.29590 -0.19600
N 	N 	0.41430 0.57690 0.35960 -0.20100
N 	N 	0.25470 0.70410 0.37100 -0.19600
N 	N 	0.05470 0.64040 0.21730 -0.20200
N 	N 	0.66690 0.29590 0.55060 -0.19600
N 	N 	0.57690 0.35960 0.41430 -0.20100
N 	N 	0.33310 0.88370 0.62900 -0.19600
N 	N 	0.42310 0.83740 0.78270 -0.20100
N 	N 	0.74530 0.11630 0.44940 -0.19600
N 	N 	0.94530 0.16260 0.58570 -0.20200
N 	N 	0.11630 0.44940 0.74530 -0.19600
N 	N 	0.16260 0.58570 0.94530 -0.20000
N 	N 	0.88370 0.62900 0.33310 -0.19600
N 	N 	0.83740 0.78270 0.42310 -0.20100
N 	N 	0.29590 0.55060 0.66690 -0.19600
N 	N 	0.35960 0.41430 0.57690 -0.20100
N 	N 	0.70410 0.37100 0.25470 -0.19600
N 	N 	0.64040 0.21730 0.05470 -0.20300
N 	N 	0.33310 0.62900 0.88370 -0.19500
N 	N 	0.42310 0.78270 0.83740 -0.20100
N 	N 	0.74530 0.44940 0.11630 -0.19600
N 	N 	0.94530 0.58570 0.16260 -0.20000
N 	N 	0.25470 0.37100 0.70410 -0.19600
N 	N 	0.05470 0.21730 0.64040 -0.20500
N 	N 	0.66690 0.55060 0.29590 -0.19600
N 	N 	0.57690 0.41430 0.35960 -0.20100
N 	N 	0.70410 0.25470 0.37100 -0.19600
N 	N 	0.64040 0.05470 0.21730 -0.20200
N 	N 	0.29590 0.66690 0.55060 -0.19600
N 	N 	0.35960 0.57690 0.41430 -0.20100
N 	N 	0.88370 0.33310 0.62900 -0.19600
N 	N 	0.83740 0.42310 0.78270 -0.20100
N 	N 	0.11630 0.74530 0.44940 -0.19600
N 	N 	0.16260 0.94530 0.58570 -0.20200
N 	N 	0.44940 0.11630 0.74530 -0.19600
N 	N 	0.58570 0.16260 0.94530 -0.20000
N 	N 	0.62900 0.88370 0.33310 -0.19600
N 	N 	0.78270 0.83740 0.42310 -0.20100
N 	N 	0.55060 0.29590 0.66690 -0.19600
N 	N 	0.41430 0.35960 0.57690 -0.20100
N 	N 	0.37100 0.70410 0.25470 -0.19600
N 	N 	0.21730 0.64040 0.05470 -0.20300
N 	N 	0.37100 0.66690 0.11630 -0.19600
N 	N 	0.21730 0.57690 0.16260 -0.20100
N 	N 	0.55060 0.25470 0.88370 -0.19500
N 	N 	0.41430 0.05470 0.83740 -0.20000
N 	N 	0.62900 0.74530 0.29590 -0.19600
N 	N 	0.78270 0.94530 0.35960 -0.19900
N 	N 	0.44940 0.33310 0.70410 -0.19600
N 	N 	0.58570 0.42310 0.64040 -0.20100
N 	N 	0.74530 0.29590 0.62900 -0.19600
N 	N 	0.94530 0.35960 0.78270 -0.20000
N 	N 	0.33310 0.70410 0.44940 -0.19600
N 	N 	0.42310 0.64040 0.58570 -0.20100
N 	N 	0.66690 0.11630 0.37100 -0.19600
N 	N 	0.57690 0.16260 0.21730 -0.20100
N 	N 	0.25470 0.88370 0.55060 -0.19600
N 	N 	0.05470 0.83740 0.41430 -0.20200
N 	N 	0.88370 0.55060 0.25470 -0.19600
N 	N 	0.83740 0.41430 0.05470 -0.20300
N 	N 	0.11630 0.37100 0.66690 -0.19600
N 	N 	0.16260 0.21730 0.57690 -0.20100
N 	N 	0.70410 0.44940 0.33310 -0.19600
N 	N 	0.64040 0.58570 0.42310 -0.20100
N 	N 	0.29590 0.62900 0.74530 -0.19600
N 	N 	0.35960 0.78270 0.94530 -0.20000
O 	O 	0.58740 0.33890 0.17510 -0.34500
O 	O 	0.54700 0.24330 0.05170 -0.34000
O 	O 	0.16380 0.41230 0.82490 -0.34400
O 	O 	0.19160 0.49530 0.94830 -0.33100
O 	O 	0.83620 0.66110 0.24850 -0.34400
O 	O 	0.80840 0.75670 0.30370 -0.34100
O 	O 	0.41260 0.58770 0.75150 -0.34400
O 	O 	0.45300 0.50470 0.69630 -0.34000
O 	O 	0.24850 0.83620 0.66110 -0.34400
O 	O 	0.30370 0.80840 0.75670 -0.34000
O 	O 	0.75150 0.41260 0.58770 -0.34400
O 	O 	0.69630 0.45300 0.50470 -0.34000
O 	O 	0.17510 0.58740 0.33890 -0.34500
O 	O 	0.05170 0.54700 0.24330 -0.34000
O 	O 	0.82490 0.16380 0.41230 -0.34400
O 	O 	0.94830 0.19160 0.49530 -0.33400
O 	O 	0.41230 0.82490 0.16380 -0.34500
O 	O 	0.49530 0.94830 0.19160 -0.33900
O 	O 	0.33890 0.17510 0.58740 -0.34500
O 	O 	0.24330 0.05170 0.54700 -0.34000
O 	O 	0.58770 0.75150 0.41260 -0.34400
O 	O 	0.50470 0.69630 0.45300 -0.34100
O 	O 	0.66110 0.24850 0.83620 -0.34300
O 	O 	0.75670 0.30370 0.80840 -0.34000
O 	O 	0.66110 0.41260 0.82490 -0.34400
O 	O 	0.75670 0.45300 0.94830 -0.33000
O 	O 	0.58770 0.83620 0.17510 -0.34500
O 	O 	0.50470 0.80840 0.05170 -0.34000
O 	O 	0.33890 0.16380 0.75150 -0.34400
O 	O 	0.24330 0.19160 0.69630 -0.34100
O 	O 	0.41230 0.58740 0.24850 -0.34500
O 	O 	0.49530 0.54700 0.30370 -0.34100
O 	O 	0.16380 0.75150 0.33890 -0.34400
O 	O 	0.19160 0.69630 0.24330 -0.34100
O 	O 	0.58740 0.24850 0.41230 -0.34400
O 	O 	0.54700 0.30370 0.49530 -0.34100
O 	O 	0.41260 0.82490 0.66110 -0.34400
O 	O 	0.45300 0.94830 0.75670 -0.34100
O 	O 	0.83620 0.17510 0.58770 -0.34400
O 	O 	0.80840 0.05170 0.50470 -0.34000
O 	O 	0.17510 0.58770 0.83620 -0.34400
O 	O 	0.05170 0.50470 0.80840 -0.33900
O 	O 	0.82490 0.66110 0.41260 -0.34400
O 	O 	0.94830 0.75670 0.45300 -0.33300
O 	O 	0.24850 0.41230 0.58740 -0.34500
O 	O 	0.30370 0.49530 0.54700 -0.34100
O 	O 	0.75150 0.33890 0.16380 -0.34400
O 	O 	0.69630 0.24330 0.19160 -0.34100
O 	O 	0.41260 0.66110 0.82490 -0.34400
O 	O 	0.45300 0.75670 0.94830 -0.33100
O 	O 	0.83620 0.58770 0.17510 -0.34400
O 	O 	0.80840 0.50470 0.05170 -0.33900
O 	O 	0.16380 0.33890 0.75150 -0.34400
O 	O 	0.19160 0.24330 0.69630 -0.34100
O 	O 	0.58740 0.41230 0.24850 -0.34500
O 	O 	0.54700 0.49530 0.30370 -0.34100
O 	O 	0.75150 0.16380 0.33890 -0.34400
O 	O 	0.69630 0.19160 0.24330 -0.34100
O 	O 	0.24850 0.58740 0.41230 -0.34500
O 	O 	0.30370 0.54700 0.49530 -0.34100
O 	O 	0.82490 0.41260 0.66110 -0.34400
O 	O 	0.94830 0.45300 0.75670 -0.33300
O 	O 	0.17510 0.83620 0.58770 -0.34500
O 	O 	0.05170 0.80840 0.50470 -0.34000
O 	O 	0.58770 0.17510 0.83620 -0.34400
O 	O 	0.50470 0.05170 0.80840 -0.34200
O 	O 	0.66110 0.82490 0.41260 -0.34400
O 	O 	0.75670 0.94830 0.45300 -0.33900
O 	O 	0.41230 0.24850 0.58740 -0.34400
O 	O 	0.49530 0.30370 0.54700 -0.34100
O 	O 	0.33890 0.75150 0.16380 -0.34500
O 	O 	0.24330 0.69630 0.19160 -0.34100
O 	O 	0.33890 0.58740 0.17510 -0.34500
O 	O 	0.24330 0.54700 0.05170 -0.34000
O 	O 	0.41230 0.16380 0.82490 -0.34400
O 	O 	0.49530 0.19160 0.94830 -0.33100
O 	O 	0.66110 0.83620 0.24850 -0.34400
O 	O 	0.75670 0.80840 0.30370 -0.34100
O 	O 	0.58770 0.41260 0.75150 -0.34400
O 	O 	0.50470 0.45300 0.69630 -0.34000
O 	O 	0.83620 0.24850 0.66110 -0.34400
O 	O 	0.80840 0.30370 0.75670 -0.34000
O 	O 	0.41260 0.75150 0.58770 -0.34400
O 	O 	0.45300 0.69630 0.50470 -0.34100
O 	O 	0.58740 0.17510 0.33890 -0.34400
O 	O 	0.54700 0.05170 0.24330 -0.34100
O 	O 	0.16380 0.82490 0.41230 -0.34400
O 	O 	0.19160 0.94830 0.49530 -0.33900
O 	O 	0.82490 0.41230 0.16380 -0.34400
O 	O 	0.94830 0.49530 0.19160 -0.33400
O 	O 	0.17510 0.33890 0.58740 -0.34500
O 	O 	0.05170 0.24330 0.54700 -0.34000
O 	O 	0.75150 0.58770 0.41260 -0.34400
O 	O 	0.69630 0.50470 0.45300 -0.34000
O 	O 	0.24850 0.66110 0.83620 -0.34400
O 	O 	0.30370 0.75670 0.80840 -0.34000
