data_crystal

_cell_length_a 14.10510
_cell_length_b 15.33650
_cell_length_c 17.81620
_cell_angle_alpha 89.98500
_cell_angle_beta  86.89000
_cell_angle_gamma 89.74700

_symmetry_space_group_name_	'P 1'
_symmetry_space_group_name_H-M	'P 1'

loop_
_symmetry_equiv_pos_as_xyz
  x,y,z

loop_
_atom_site_label
_atom_site_type_symbol
_atom_site_fract_x
_atom_site_fract_y
_atom_site_fract_z
_atom_site_charge
Ce	Ce	0.69358 0.57340 0.72371 2.14200
Ce	Ce	0.87092 0.84206 0.25232 2.11200
Ce	Ce	0.51654 0.24976 0.25303 2.17100
Ce	Ce	0.14472 0.65862 0.23740 2.12300
Ce	Ce	0.25934 0.92473 0.73800 2.14100
Ce	Ce	0.48346 0.75024 0.74697 2.17100
Ce	Ce	0.74066 0.07527 0.26200 2.14100
Ce	Ce	0.85528 0.34138 0.76260 2.12300
Ce	Ce	0.12908 0.15794 0.74768 2.11200
Ce	Ce	0.30642 0.42660 0.27629 2.14200
H 	H 	0.01960 0.12600 0.06810 0.05600
H 	H 	0.93910 0.39230 0.98320 0.03800
H 	H 	0.99450 0.45920 0.08440 0.05300
H 	H 	0.72360 0.56460 0.25210 0.04400
H 	H 	0.30120 0.94340 0.24070 0.04000
H 	H 	0.39920 0.06110 0.09290 0.04000
H 	H 	0.91290 0.82690 0.75660 0.07100
H 	H 	0.12770 0.41000 0.51970 0.04600
H 	H 	0.93340 0.33730 0.27850 0.06200
H 	H 	0.66250 0.00150 0.01190 0.04400
H 	H 	0.66920 0.41950 0.25010 0.02700
H 	H 	0.14770 0.93760 0.47170 0.04500
H 	H 	0.62830 0.92860 0.54220 0.05400
H 	H 	0.35710 0.98690 0.56150 0.03000
H 	H 	0.45350 0.36650 0.64120 0.03200
H 	H 	0.06660 0.66270 0.72150 0.06200
H 	H 	0.95410 0.03730 0.61950 0.03200
H 	H 	0.35460 0.24900 0.63570 0.03900
H 	H 	0.37170 0.07140 0.45780 0.05400
H 	H 	0.23480 0.33250 0.06810 0.04700
H 	H 	0.03180 0.03270 0.23260 0.03000
H 	H 	0.63540 0.57350 0.52600 0.04400
H 	H 	0.85230 0.06240 0.52830 0.04500
H 	H 	0.98040 0.87400 0.93190 0.05600
H 	H 	0.27640 0.43540 0.74790 0.04400
H 	H 	0.04590 0.96270 0.38050 0.03200
H 	H 	0.98820 0.48330 0.27250 0.03500
H 	H 	0.33080 0.58050 0.74990 0.02700
H 	H 	0.46200 0.88850 0.24410 0.07100
H 	H 	0.76520 0.66750 0.93190 0.04700
H 	H 	0.40750 0.62370 0.99530 0.04700
H 	H 	0.69880 0.05660 0.75930 0.04000
H 	H 	0.63420 0.23600 0.76040 -0.00500
H 	H 	0.87230 0.59000 0.48030 0.04600
H 	H 	0.11250 0.09980 0.96010 0.04100
H 	H 	0.53800 0.11150 0.75590 0.07100
H 	H 	0.63680 0.46660 0.43050 0.05300
H 	H 	0.96820 0.96730 0.76740 0.03000
H 	H 	0.64770 0.91200 0.76570 0.05200
H 	H 	0.81720 0.74560 0.03900 0.02400
H 	H 	0.36320 0.53340 0.56950 0.05300
H 	H 	0.64290 0.01310 0.43850 0.03000
H 	H 	0.00400 0.42390 0.61370 0.01600
H 	H 	0.60080 0.93890 0.90710 0.04000
H 	H 	0.99600 0.57610 0.38630 0.01600
H 	H 	0.36460 0.42650 0.47400 0.04400
H 	H 	0.40560 0.54350 0.10530 0.01800
H 	H 	0.64540 0.75100 0.36430 0.03900
H 	H 	0.18280 0.25440 0.96100 0.02400
H 	H 	0.01180 0.51670 0.72750 0.03500
H 	H 	0.33750 0.99850 0.98810 0.04400
H 	H 	0.06090 0.60770 0.01680 0.03800
H 	H 	0.35230 0.08800 0.23430 0.05200
H 	H 	0.59440 0.45650 0.89470 0.01800
H 	H 	0.88750 0.90020 0.03990 0.04100
H 	H 	0.59250 0.37630 0.00470 0.04700
H 	H 	0.08710 0.17310 0.24340 0.07100
H 	H 	0.36580 0.76400 0.23960 -0.00500
H 	H 	0.00550 0.54080 0.91560 0.05300
H 	H 	0.54650 0.63350 0.35880 0.03200
C 	C 	0.07230 0.49240 0.44600 -0.08200
C 	C 	0.51930 0.16400 0.73500 -0.06600
C 	C 	0.61290 0.39000 0.70350 0.41800
C 	C 	0.71240 0.92390 0.76270 -0.04900
C 	C 	0.09640 0.04270 0.23570 0.00700
C 	C 	0.42210 0.76170 0.26430 0.04400
C 	C 	0.10850 0.61730 0.73010 -0.03100
C 	C 	0.38710 0.61000 0.29650 0.41800
C 	C 	0.12930 0.12630 0.24040 -0.05600
C 	C 	0.47000 0.31520 0.66510 0.04300
C 	C 	0.90140 0.62790 0.26500 0.36900
C 	C 	0.13820 0.46430 0.73950 -0.09400
C 	C 	0.88170 0.03180 0.13620 0.33100
C 	C 	0.05730 0.98550 0.93500 -0.08500
C 	C 	0.92420 0.47110 0.26820 -0.00400
C 	C 	0.90360 0.95730 0.76430 0.00700
C 	C 	0.11830 0.96820 0.86380 0.33100
C 	C 	0.49730 0.43540 0.44520 -0.08600
C 	C 	0.79970 0.36600 0.25880 -0.05700
C 	C 	0.13340 0.97690 0.61830 0.31200
C 	C 	0.93320 0.01240 0.44230 -0.08900
C 	C 	0.84560 0.52440 0.61490 0.35700
C 	C 	0.06710 0.05900 0.97600 -0.00300
C 	C 	0.97360 0.02270 0.57040 -0.03500
C 	C 	0.85530 0.70370 0.01440 0.00300
C 	C 	0.41910 0.52060 0.54150 -0.01500
C 	C 	0.89150 0.38270 0.26990 -0.03100
C 	C 	0.77250 0.85960 0.75930 -0.02700
C 	C 	0.59720 0.00190 0.00730 -0.01000
C 	C 	0.48340 0.88350 0.62750 0.38600
C 	C 	0.57940 0.54470 0.51630 -0.00900
C 	C 	0.02640 0.97730 0.42960 -0.03500
C 	C 	0.86660 0.02310 0.38170 0.31200
C 	C 	0.53800 0.04210 0.06360 -0.13100
C 	C 	0.40910 0.24590 0.66280 -0.06400
C 	C 	0.09860 0.37210 0.73500 0.36900
C 	C 	0.49770 0.38970 0.13180 0.35300
C 	C 	0.83920 0.02880 0.76440 -0.09400
C 	C 	0.44040 0.03750 0.05570 0.00200
C 	C 	0.05150 0.31550 0.96360 -0.12000
C 	C 	0.00090 0.62200 0.00100 0.01000
C 	C 	0.96580 0.57900 0.94270 -0.02200
C 	C 	0.91070 0.03650 0.51580 -0.01900
C 	C 	0.55800 0.47450 0.93700 -0.01100
C 	C 	0.73600 0.76260 0.75290 0.28400
C 	C 	0.01140 0.07520 0.04080 -0.01900
C 	C 	0.49660 0.62640 0.61930 0.36300
C 	C 	0.55400 0.42550 0.00230 -0.02000
C 	C 	0.92390 0.55360 0.48790 -0.02200
C 	C 	0.42060 0.45530 0.48370 -0.00900
C 	C 	0.74260 0.01130 0.76170 0.00300
C 	C 	0.42490 0.04290 0.47470 -0.01600
C 	C 	0.15440 0.47560 0.38510 0.35700
C 	C 	0.83480 0.53740 0.86200 0.38100
C 	C 	0.23270 0.72780 0.73510 0.31100
C 	C 	0.41640 0.99130 0.53650 0.00200
C 	C 	0.57790 0.23830 0.73570 0.04400
C 	C 	0.86180 0.53570 0.26050 -0.09400
C 	C 	0.14470 0.29630 0.98560 0.00300
C 	C 	0.87300 0.12730 0.75900 0.38400
C 	C 	0.12700 0.87270 0.24100 0.38400
C 	C 	0.50420 0.55360 0.93670 -0.08700
C 	C 	0.76650 0.51860 0.25510 -0.00600
C 	C 	0.55960 0.96250 0.94430 0.00200
C 	C 	0.20030 0.63400 0.74120 -0.05700
C 	C 	0.93290 0.94100 0.02400 -0.00300
C 	C 	0.07610 0.44640 0.51210 -0.02200
C 	C 	0.98340 0.72840 0.10760 0.47700
C 	C 	0.48820 0.94690 0.56330 -0.09800
C 	C 	0.73330 0.43180 0.25390 -0.02200
C 	C 	0.51180 0.05310 0.43670 -0.09800
C 	C 	0.94850 0.68450 0.03640 -0.12000
C 	C 	0.46200 0.95790 0.93640 -0.13100
C 	C 	0.87070 0.87370 0.75960 -0.05600
C 	C 	0.99790 0.54590 0.43140 -0.02400
C 	C 	0.03420 0.42100 0.05730 -0.02200
C 	C 	0.49580 0.44640 0.06330 -0.08700
C 	C 	0.26670 0.56820 0.74610 -0.02200
C 	C 	0.16080 0.97120 0.23560 -0.09400
C 	C 	0.26400 0.23740 0.24710 0.28400
C 	C 	0.53000 0.68480 0.33490 0.04300
C 	C 	0.50340 0.37360 0.38070 0.36300
C 	C 	0.28760 0.07610 0.23730 -0.04900
C 	C 	0.99910 0.37800 0.99900 0.01000
C 	C 	0.87840 0.58920 0.92170 -0.08600
C 	C 	0.50270 0.56460 0.55480 -0.08600
C 	C 	0.48070 0.83600 0.26500 -0.06600
C 	C 	0.16520 0.46260 0.13800 0.38100
C 	C 	0.57880 0.08430 0.12830 0.49000
C 	C 	0.57510 0.95710 0.52530 -0.01600
C 	C 	0.44200 0.52550 0.06300 -0.01100
C 	C 	0.51660 0.11650 0.37250 0.38600
C 	C 	0.00210 0.45410 0.56860 -0.02400
C 	C 	0.59090 0.75410 0.33720 -0.06400
C 	C 	0.01660 0.27160 0.89240 0.47700
C 	C 	0.76730 0.27220 0.26490 0.31100
C 	C 	0.56890 0.82790 0.29860 -0.06300
C 	C 	0.23350 0.48140 0.74490 -0.00600
C 	C 	0.42120 0.91570 0.87170 0.49000
C 	C 	0.12160 0.41080 0.07830 -0.08600
C 	C 	0.22750 0.14040 0.24070 -0.02700
C 	C 	0.50230 0.61030 0.86820 0.35300
C 	C 	0.44700 0.68660 0.29950 -0.16600
C 	C 	0.92770 0.50760 0.55400 -0.08200
C 	C 	0.58090 0.47940 0.45850 -0.01500
C 	C 	0.82320 0.65500 0.95170 -0.02800
C 	C 	0.08930 0.96350 0.48420 -0.01900
C 	C 	0.25740 0.98870 0.23830 0.00300
C 	C 	0.62860 0.90520 0.29050 0.29900
C 	C 	0.37140 0.09480 0.70950 0.29900
C 	C 	0.40280 0.99810 0.99270 -0.01000
C 	C 	0.98860 0.92480 0.95920 -0.01900
C 	C 	0.43110 0.17210 0.70140 -0.06300
C 	C 	0.58360 0.00870 0.46350 0.00200
C 	C 	0.55300 0.31340 0.70050 -0.16600
C 	C 	0.44600 0.57450 0.99770 -0.02000
C 	C 	0.06680 0.98760 0.55770 -0.08900
C 	C 	0.07580 0.52890 0.73180 -0.00400
C 	C 	0.94270 0.01450 0.06500 -0.08500
C 	C 	0.17680 0.34500 0.04830 -0.02800
O 	O 	0.42630 0.35070 0.35170 -0.58500
O 	O 	0.40110 0.02880 0.74080 -0.43400
O 	O 	0.77830 0.56810 0.59700 -0.46700
O 	O 	0.11310 0.00470 0.68330 -0.57500
O 	O 	0.20690 0.92890 0.60170 -0.41100
O 	O 	0.69220 0.38630 0.73400 -0.63200
O 	O 	0.46360 0.68290 0.87420 -0.45700
O 	O 	0.40180 0.86690 0.66270 -0.57400
O 	O 	0.16530 0.31560 0.73430 -0.51000
O 	O 	0.42090 0.66060 0.64160 -0.43900
O 	O 	0.81230 0.18320 0.76470 -0.52000
O 	O 	0.54340 0.58640 0.80420 -0.55700
O 	O 	0.71810 0.90070 0.31240 -0.57500
O 	O 	0.93870 0.29460 0.87220 -0.52600
O 	O 	0.52580 0.12360 0.17060 -0.55000
O 	O 	0.15060 0.51230 0.32150 -0.57900
O 	O 	0.00710 0.35180 0.73400 -0.61000
O 	O 	0.35730 0.25300 0.23710 -0.58200
O 	O 	0.24600 0.44420 0.15720 -0.55300
O 	O 	0.45660 0.41360 0.19580 -0.55700
O 	O 	0.57910 0.33940 0.35840 -0.43900
O 	O 	0.06710 0.21230 0.86620 -0.54200
O 	O 	0.11430 0.52820 0.16340 -0.49100
O 	O 	0.79700 0.70690 0.72380 -0.42400
O 	O 	0.64270 0.74700 0.76290 -0.58200
O 	O 	0.18020 0.78310 0.70870 -0.42500
O 	O 	0.44640 0.15100 0.35100 -0.45900
O 	O 	0.84940 0.48770 0.67850 -0.57900
O 	O 	0.81980 0.21690 0.29130 -0.42500
O 	O 	0.32320 0.75130 0.75770 -0.57600
O 	O 	0.96780 0.14100 0.75300 -0.57100
O 	O 	0.57370 0.64930 0.64830 -0.58500
O 	O 	0.41420 0.54020 0.32370 -0.47800
O 	O 	0.99290 0.64820 0.26600 -0.61000
O 	O 	0.20300 0.29310 0.27620 -0.42400
O 	O 	0.75400 0.55580 0.84280 -0.55300
O 	O 	0.33520 0.91990 0.86180 -0.50700
O 	O 	0.12710 0.89220 0.83960 -0.41700
O 	O 	0.47420 0.87640 0.82940 -0.55000
O 	O 	0.83710 0.96740 0.17180 -0.60200
O 	O 	0.55360 0.84900 0.64900 -0.45900
O 	O 	0.28190 0.09930 0.68760 -0.57500
O 	O 	0.16290 0.03260 0.82820 -0.60200
O 	O 	0.79310 0.07110 0.39830 -0.41100
O 	O 	0.18770 0.81680 0.23530 -0.52000
O 	O 	0.83470 0.68440 0.26570 -0.51000
O 	O 	0.67680 0.24870 0.24230 -0.57600
O 	O 	0.22170 0.43190 0.40300 -0.46700
O 	O 	0.88690 0.99530 0.31670 -0.57500
O 	O 	0.87290 0.10780 0.16040 -0.41700
O 	O 	0.58580 0.45980 0.67630 -0.47800
O 	O 	0.59890 0.97120 0.25920 -0.43400
O 	O 	0.66480 0.08010 0.13820 -0.50700
O 	O 	0.93290 0.78770 0.13380 -0.54200
O 	O 	0.59820 0.13310 0.33730 -0.57400
O 	O 	0.03220 0.85900 0.24700 -0.57100
O 	O 	0.06130 0.70540 0.12780 -0.52600
O 	O 	0.53640 0.31710 0.12580 -0.45700
O 	O 	0.30780 0.61370 0.26600 -0.63200
O 	O 	0.88570 0.47180 0.83660 -0.49100
