data_crystal

_cell_length_a 33.33730
_cell_length_b 33.33730
_cell_length_c 33.33730
_cell_angle_alpha 90.00000
_cell_angle_beta  90.00000
_cell_angle_gamma 90.00000

_symmetry_space_group_name_	'P 1'
_symmetry_space_group_name_H-M	'P 1'

loop_
_symmetry_equiv_pos_as_xyz
  x,y,z

loop_
_atom_site_label
_atom_site_type_symbol
_atom_site_fract_x
_atom_site_fract_y
_atom_site_fract_z
_atom_site_charge
Cl	Cl	0.90007 0.10290 0.25210 -0.33200
Cl	Cl	0.59993 0.89710 0.75210 -0.33200
Cl	Cl	0.09993 0.60290 0.24790 -0.33200
Cl	Cl	0.40007 0.39710 0.74790 -0.33200
Cl	Cl	0.25210 0.90007 0.10290 -0.33200
Cl	Cl	0.75210 0.59993 0.89710 -0.33200
Cl	Cl	0.24790 0.09993 0.60290 -0.33200
Cl	Cl	0.74790 0.40007 0.39710 -0.33200
Cl	Cl	0.10290 0.25210 0.90007 -0.33200
Cl	Cl	0.89710 0.75210 0.59993 -0.33200
Cl	Cl	0.60290 0.24790 0.09993 -0.33200
Cl	Cl	0.39710 0.74790 0.40007 -0.33200
Cl	Cl	0.09993 0.89710 0.74790 -0.33200
Cl	Cl	0.40007 0.10290 0.24790 -0.33200
Cl	Cl	0.90007 0.39710 0.75210 -0.33200
Cl	Cl	0.59993 0.60290 0.25210 -0.33200
Cl	Cl	0.74790 0.09993 0.89710 -0.33200
Cl	Cl	0.24790 0.40007 0.10290 -0.33200
Cl	Cl	0.75210 0.90007 0.39710 -0.33200
Cl	Cl	0.25210 0.59993 0.60290 -0.33200
Cl	Cl	0.89710 0.74790 0.09993 -0.33200
Cl	Cl	0.10290 0.24790 0.40007 -0.33200
Cl	Cl	0.39710 0.75210 0.90007 -0.33200
Cl	Cl	0.60290 0.25210 0.59993 -0.33200
Cl	Cl	0.84451 0.14470 0.02732 -0.32500
Cl	Cl	0.65549 0.85530 0.52732 -0.32500
Cl	Cl	0.15549 0.64470 0.47268 -0.32500
Cl	Cl	0.34451 0.35530 0.97268 -0.32500
Cl	Cl	0.02732 0.84451 0.14470 -0.32600
Cl	Cl	0.52732 0.65549 0.85530 -0.32600
Cl	Cl	0.47268 0.15549 0.64470 -0.32600
Cl	Cl	0.97268 0.34451 0.35530 -0.32600
Cl	Cl	0.14470 0.02732 0.84451 -0.32600
Cl	Cl	0.85530 0.52732 0.65549 -0.32600
Cl	Cl	0.64470 0.47268 0.15549 -0.32600
Cl	Cl	0.35530 0.97268 0.34451 -0.32600
Cl	Cl	0.15549 0.85530 0.97268 -0.32600
Cl	Cl	0.34451 0.14470 0.47268 -0.32600
Cl	Cl	0.84451 0.35530 0.52732 -0.32600
Cl	Cl	0.65549 0.64470 0.02732 -0.32600
Cl	Cl	0.97268 0.15549 0.85530 -0.32600
Cl	Cl	0.47268 0.34451 0.14470 -0.32600
Cl	Cl	0.52732 0.84451 0.35530 -0.32600
Cl	Cl	0.02732 0.65549 0.64470 -0.32600
Cl	Cl	0.85530 0.97268 0.15549 -0.32600
Cl	Cl	0.14470 0.47268 0.34451 -0.32600
Cl	Cl	0.35530 0.52732 0.84451 -0.32600
Cl	Cl	0.64470 0.02732 0.65549 -0.32600
C 	C 	0.04805 0.18792 0.20530 0.29300
C 	C 	0.45195 0.81208 0.70530 0.29300
C 	C 	0.95195 0.68792 0.29470 0.29300
C 	C 	0.54805 0.31208 0.79470 0.29300
C 	C 	0.20530 0.04805 0.18792 0.29300
C 	C 	0.70530 0.45195 0.81208 0.29300
C 	C 	0.29470 0.95195 0.68792 0.29300
C 	C 	0.79470 0.54805 0.31208 0.29300
C 	C 	0.18792 0.20530 0.04805 0.29300
C 	C 	0.81208 0.70530 0.45195 0.29300
C 	C 	0.68792 0.29470 0.95195 0.29300
C 	C 	0.31208 0.79470 0.54805 0.29300
C 	C 	0.95195 0.81208 0.79470 0.29300
C 	C 	0.54805 0.18792 0.29470 0.29300
C 	C 	0.04805 0.31208 0.70530 0.29300
C 	C 	0.45195 0.68792 0.20530 0.29300
C 	C 	0.79470 0.95195 0.81208 0.29300
C 	C 	0.29470 0.54805 0.18792 0.29300
C 	C 	0.70530 0.04805 0.31208 0.29300
C 	C 	0.20530 0.45195 0.68792 0.29300
C 	C 	0.81208 0.79470 0.95195 0.29300
C 	C 	0.18792 0.29470 0.54805 0.29300
C 	C 	0.31208 0.70530 0.04805 0.29300
C 	C 	0.68792 0.20530 0.45195 0.29300
C 	C 	0.02527 0.23016 0.25626 0.10600
C 	C 	0.47473 0.76984 0.75626 0.10600
C 	C 	0.97473 0.73016 0.24374 0.10600
C 	C 	0.52527 0.26984 0.74374 0.10600
C 	C 	0.25626 0.02527 0.23016 0.10600
C 	C 	0.75626 0.47473 0.76984 0.10600
C 	C 	0.24374 0.97473 0.73016 0.10600
C 	C 	0.74374 0.52527 0.26984 0.10600
C 	C 	0.23016 0.25626 0.02527 0.10600
C 	C 	0.76984 0.75626 0.47473 0.10600
C 	C 	0.73016 0.24374 0.97473 0.10600
C 	C 	0.26984 0.74374 0.52527 0.10600
C 	C 	0.97473 0.76984 0.74374 0.10600
C 	C 	0.52527 0.23016 0.24374 0.10600
C 	C 	0.02527 0.26984 0.75626 0.10600
C 	C 	0.47473 0.73016 0.25626 0.10600
C 	C 	0.74374 0.97473 0.76984 0.10600
C 	C 	0.24374 0.52527 0.23016 0.10600
C 	C 	0.75626 0.02527 0.26984 0.10600
C 	C 	0.25626 0.47473 0.73016 0.10600
C 	C 	0.76984 0.74374 0.97473 0.10600
C 	C 	0.23016 0.24374 0.52527 0.10600
C 	C 	0.26984 0.75626 0.02527 0.10600
C 	C 	0.73016 0.25626 0.47473 0.10600
C 	C 	0.99131 0.19989 0.24536 0.12900
C 	C 	0.50869 0.80011 0.74536 0.12900
C 	C 	0.00869 0.69989 0.25464 0.12900
C 	C 	0.49131 0.30011 0.75464 0.12900
C 	C 	0.24536 0.99131 0.19989 0.12900
C 	C 	0.74536 0.50869 0.80011 0.12900
C 	C 	0.25464 0.00869 0.69989 0.12900
C 	C 	0.75464 0.49131 0.30011 0.12900
C 	C 	0.19989 0.24536 0.99131 0.12900
C 	C 	0.80011 0.74536 0.50869 0.12900
C 	C 	0.69989 0.25464 0.00869 0.12900
C 	C 	0.30011 0.75464 0.49131 0.12900
C 	C 	0.00869 0.80011 0.75464 0.12900
C 	C 	0.49131 0.19989 0.25464 0.12900
C 	C 	0.99131 0.30011 0.74536 0.12900
C 	C 	0.50869 0.69989 0.24536 0.12900
C 	C 	0.75464 0.00869 0.80011 0.12900
C 	C 	0.25464 0.49131 0.19989 0.12900
C 	C 	0.74536 0.99131 0.30011 0.12900
C 	C 	0.24536 0.50869 0.69989 0.12900
C 	C 	0.80011 0.75464 0.00869 0.12900
C 	C 	0.19989 0.25464 0.49131 0.12900
C 	C 	0.30011 0.74536 0.99131 0.12900
C 	C 	0.69989 0.24536 0.50869 0.12900
C 	C 	0.96772 0.26535 0.23321 0.27400
C 	C 	0.53228 0.73465 0.73321 0.27400
C 	C 	0.03228 0.76535 0.26679 0.27400
C 	C 	0.46772 0.23465 0.76679 0.27400
C 	C 	0.23321 0.96772 0.26535 0.27400
C 	C 	0.73321 0.53228 0.73465 0.27400
C 	C 	0.26679 0.03228 0.76535 0.27400
C 	C 	0.76679 0.46772 0.23465 0.27400
C 	C 	0.26535 0.23321 0.96772 0.27400
C 	C 	0.73465 0.73321 0.53228 0.27400
C 	C 	0.76535 0.26679 0.03228 0.27400
C 	C 	0.23465 0.76679 0.46772 0.27400
C 	C 	0.03228 0.73465 0.76679 0.27400
C 	C 	0.46772 0.26535 0.26679 0.27400
C 	C 	0.96772 0.23465 0.73321 0.27400
C 	C 	0.53228 0.76535 0.23321 0.27400
C 	C 	0.76679 0.03228 0.73465 0.27400
C 	C 	0.26679 0.46772 0.26535 0.27400
C 	C 	0.73321 0.96772 0.23465 0.27400
C 	C 	0.23321 0.53228 0.76535 0.27400
C 	C 	0.73465 0.76679 0.03228 0.27400
C 	C 	0.26535 0.26679 0.46772 0.27400
C 	C 	0.23465 0.73321 0.96772 0.27400
C 	C 	0.76535 0.23321 0.53228 0.27400
C 	C 	0.99118 0.14196 0.19260 0.03400
C 	C 	0.50882 0.85804 0.69260 0.03500
C 	C 	0.00882 0.64196 0.30740 0.03500
C 	C 	0.49118 0.35804 0.80740 0.03500
C 	C 	0.19260 0.99118 0.14196 0.03400
C 	C 	0.69260 0.50882 0.85804 0.03500
C 	C 	0.30740 0.00882 0.64196 0.03500
C 	C 	0.80740 0.49118 0.35804 0.03500
C 	C 	0.14196 0.19260 0.99118 0.03400
C 	C 	0.85804 0.69260 0.50882 0.03500
C 	C 	0.64196 0.30740 0.00882 0.03500
C 	C 	0.35804 0.80740 0.49118 0.03500
C 	C 	0.00882 0.85804 0.80740 0.03400
C 	C 	0.49118 0.14196 0.30740 0.03500
C 	C 	0.99118 0.35804 0.69260 0.03500
C 	C 	0.50882 0.64196 0.19260 0.03500
C 	C 	0.80740 0.00882 0.85804 0.03400
C 	C 	0.30740 0.49118 0.14196 0.03500
C 	C 	0.69260 0.99118 0.35804 0.03500
C 	C 	0.19260 0.50882 0.64196 0.03500
C 	C 	0.85804 0.80740 0.00882 0.03400
C 	C 	0.14196 0.30740 0.49118 0.03500
C 	C 	0.35804 0.69260 0.99118 0.03500
C 	C 	0.64196 0.19260 0.50882 0.03500
H 	H 	0.01200 0.12280 0.18590 0.04600
H 	H 	0.48800 0.87720 0.68590 0.04600
H 	H 	0.98800 0.62280 0.31410 0.04600
H 	H 	0.51200 0.37720 0.81410 0.04600
H 	H 	0.18590 0.01200 0.12280 0.04600
H 	H 	0.68590 0.48800 0.87720 0.04600
H 	H 	0.31410 0.98800 0.62280 0.04600
H 	H 	0.81410 0.51200 0.37720 0.04600
H 	H 	0.12280 0.18590 0.01200 0.04600
H 	H 	0.87720 0.68590 0.48800 0.04600
H 	H 	0.62280 0.31410 0.98800 0.04600
H 	H 	0.37720 0.81410 0.51200 0.04600
H 	H 	0.98800 0.87720 0.81410 0.04600
H 	H 	0.51200 0.12280 0.31410 0.04600
H 	H 	0.01200 0.37720 0.68590 0.04600
H 	H 	0.48800 0.62280 0.18590 0.04600
H 	H 	0.81410 0.98800 0.87720 0.04600
H 	H 	0.31410 0.51200 0.12280 0.04600
H 	H 	0.68590 0.01200 0.37720 0.04600
H 	H 	0.18590 0.48800 0.62280 0.04600
H 	H 	0.87720 0.81410 0.98800 0.04600
H 	H 	0.12280 0.31410 0.51200 0.04600
H 	H 	0.37720 0.68590 0.01200 0.04600
H 	H 	0.62280 0.18590 0.48800 0.04600
H 	H 	0.97270 0.12880 0.21080 0.05400
H 	H 	0.52730 0.87120 0.71080 0.05400
H 	H 	0.02730 0.62880 0.28920 0.05400
H 	H 	0.47270 0.37120 0.78920 0.05400
H 	H 	0.21080 0.97270 0.12880 0.05400
H 	H 	0.71080 0.52730 0.87120 0.05400
H 	H 	0.28920 0.02730 0.62880 0.05400
H 	H 	0.78920 0.47270 0.37120 0.05400
H 	H 	0.12880 0.21080 0.97270 0.05400
H 	H 	0.87120 0.71080 0.52730 0.05400
H 	H 	0.62880 0.28920 0.02730 0.05400
H 	H 	0.37120 0.78920 0.47270 0.05400
H 	H 	0.02730 0.87120 0.78920 0.05400
H 	H 	0.47270 0.12880 0.28920 0.05400
H 	H 	0.97270 0.37120 0.71080 0.05400
H 	H 	0.52730 0.62880 0.21080 0.05400
H 	H 	0.78920 0.02730 0.87120 0.05400
H 	H 	0.28920 0.47270 0.12880 0.05400
H 	H 	0.71080 0.97270 0.37120 0.05400
H 	H 	0.21080 0.52730 0.62880 0.05400
H 	H 	0.87120 0.78920 0.02730 0.05400
H 	H 	0.12880 0.28920 0.47270 0.05400
H 	H 	0.37120 0.71080 0.97270 0.05400
H 	H 	0.62880 0.21080 0.52730 0.05400
C 	C 	0.92012 0.21180 0.21598 0.03100
C 	C 	0.57988 0.78820 0.71598 0.03100
C 	C 	0.07988 0.71180 0.28402 0.03100
C 	C 	0.42012 0.28820 0.78402 0.03100
C 	C 	0.21598 0.92012 0.21180 0.03100
C 	C 	0.71598 0.57988 0.78820 0.03100
C 	C 	0.28402 0.07988 0.71180 0.03100
C 	C 	0.78402 0.42012 0.28820 0.03100
C 	C 	0.21180 0.21598 0.92012 0.03100
C 	C 	0.78820 0.71598 0.57988 0.03100
C 	C 	0.71180 0.28402 0.07988 0.03100
C 	C 	0.28820 0.78402 0.42012 0.03100
C 	C 	0.07988 0.78820 0.78402 0.03100
C 	C 	0.42012 0.21180 0.28402 0.03100
C 	C 	0.92012 0.28820 0.71598 0.03100
C 	C 	0.57988 0.71180 0.21598 0.03100
C 	C 	0.78402 0.07988 0.78820 0.03100
C 	C 	0.28402 0.42012 0.21180 0.03100
C 	C 	0.71598 0.92012 0.28820 0.03100
C 	C 	0.21598 0.57988 0.71180 0.03100
C 	C 	0.78820 0.78402 0.07988 0.03100
C 	C 	0.21180 0.28402 0.42012 0.03100
C 	C 	0.28820 0.71598 0.92012 0.03100
C 	C 	0.71180 0.21598 0.57988 0.03100
H 	H 	0.91230 0.18770 0.23020 0.04800
H 	H 	0.58770 0.81230 0.73020 0.04800
H 	H 	0.08770 0.68770 0.26980 0.04800
H 	H 	0.41230 0.31230 0.76980 0.04800
H 	H 	0.23020 0.91230 0.18770 0.04800
H 	H 	0.73020 0.58770 0.81230 0.04800
H 	H 	0.26980 0.08770 0.68770 0.04800
H 	H 	0.76980 0.41230 0.31230 0.04800
H 	H 	0.18770 0.23020 0.91230 0.04800
H 	H 	0.81230 0.73020 0.58770 0.04800
H 	H 	0.68770 0.26980 0.08770 0.04800
H 	H 	0.31230 0.76980 0.41230 0.04800
H 	H 	0.08770 0.81230 0.76980 0.04800
H 	H 	0.41230 0.18770 0.26980 0.04800
H 	H 	0.91230 0.31230 0.73020 0.04800
H 	H 	0.58770 0.68770 0.23020 0.04800
H 	H 	0.76980 0.08770 0.81230 0.04800
H 	H 	0.26980 0.41230 0.18770 0.04800
H 	H 	0.73020 0.91230 0.31230 0.04800
H 	H 	0.23020 0.58770 0.68770 0.04800
H 	H 	0.81230 0.76980 0.08770 0.04800
H 	H 	0.18770 0.26980 0.41230 0.04800
H 	H 	0.31230 0.73020 0.91230 0.04800
H 	H 	0.68770 0.23020 0.58770 0.04800
H 	H 	0.90000 0.23210 0.22140 0.05000
H 	H 	0.60000 0.76790 0.72140 0.05000
H 	H 	0.10000 0.73210 0.27860 0.05000
H 	H 	0.40000 0.26790 0.77860 0.05000
H 	H 	0.22140 0.90000 0.23210 0.05000
H 	H 	0.72140 0.60000 0.76790 0.05000
H 	H 	0.27860 0.10000 0.73210 0.05000
H 	H 	0.77860 0.40000 0.26790 0.05000
H 	H 	0.23210 0.22140 0.90000 0.05000
H 	H 	0.76790 0.72140 0.60000 0.05000
H 	H 	0.73210 0.27860 0.10000 0.05000
H 	H 	0.26790 0.77860 0.40000 0.05000
H 	H 	0.10000 0.76790 0.77860 0.05000
H 	H 	0.40000 0.23210 0.27860 0.05000
H 	H 	0.90000 0.26790 0.72140 0.05000
H 	H 	0.60000 0.73210 0.22140 0.05000
H 	H 	0.77860 0.10000 0.76790 0.05000
H 	H 	0.27860 0.40000 0.23210 0.05000
H 	H 	0.72140 0.90000 0.26790 0.05000
H 	H 	0.22140 0.60000 0.73210 0.05000
H 	H 	0.76790 0.77860 0.10000 0.05000
H 	H 	0.23210 0.27860 0.40000 0.05000
H 	H 	0.26790 0.72140 0.90000 0.05000
H 	H 	0.73210 0.22140 0.60000 0.05000
C 	C 	0.98533 0.15177 0.11894 0.27100
C 	C 	0.51467 0.84823 0.61894 0.27100
C 	C 	0.01467 0.65177 0.38106 0.27100
C 	C 	0.48533 0.34823 0.88106 0.27100
C 	C 	0.11894 0.98533 0.15177 0.27100
C 	C 	0.61894 0.51467 0.84823 0.27100
C 	C 	0.38106 0.01467 0.65177 0.27100
C 	C 	0.88106 0.48533 0.34823 0.27100
C 	C 	0.15177 0.11894 0.98533 0.27100
C 	C 	0.84823 0.61894 0.51467 0.27100
C 	C 	0.65177 0.38106 0.01467 0.27100
C 	C 	0.34823 0.88106 0.48533 0.27100
C 	C 	0.01467 0.84823 0.88106 0.27100
C 	C 	0.48533 0.15177 0.38106 0.27100
C 	C 	0.98533 0.34823 0.61894 0.27100
C 	C 	0.51467 0.65177 0.11894 0.27100
C 	C 	0.88106 0.01467 0.84823 0.27100
C 	C 	0.38106 0.48533 0.15177 0.27100
C 	C 	0.61894 0.98533 0.34823 0.27100
C 	C 	0.11894 0.51467 0.65177 0.27100
C 	C 	0.84823 0.88106 0.01467 0.27100
C 	C 	0.15177 0.38106 0.48533 0.27100
C 	C 	0.34823 0.61894 0.98533 0.27100
C 	C 	0.65177 0.11894 0.51467 0.27100
C 	C 	0.92837 0.16497 0.15633 0.05500
C 	C 	0.57163 0.83503 0.65633 0.05500
C 	C 	0.07163 0.66497 0.34367 0.05500
C 	C 	0.42837 0.33503 0.84367 0.05500
C 	C 	0.15633 0.92837 0.16497 0.05500
C 	C 	0.65633 0.57163 0.83503 0.05500
C 	C 	0.34367 0.07163 0.66497 0.05500
C 	C 	0.84367 0.42837 0.33503 0.05500
C 	C 	0.16497 0.15633 0.92837 0.05500
C 	C 	0.83503 0.65633 0.57163 0.05500
C 	C 	0.66497 0.34367 0.07163 0.05500
C 	C 	0.33503 0.84367 0.42837 0.05500
C 	C 	0.07163 0.83503 0.84367 0.05500
C 	C 	0.42837 0.16497 0.34367 0.05500
C 	C 	0.92837 0.33503 0.65633 0.05500
C 	C 	0.57163 0.66497 0.15633 0.05500
C 	C 	0.84367 0.07163 0.83503 0.05500
C 	C 	0.34367 0.42837 0.16497 0.05500
C 	C 	0.65633 0.92837 0.33503 0.05500
C 	C 	0.15633 0.57163 0.66497 0.05500
C 	C 	0.83503 0.84367 0.07163 0.05500
C 	C 	0.16497 0.34367 0.42837 0.05500
C 	C 	0.33503 0.65633 0.92837 0.05500
C 	C 	0.66497 0.15633 0.57163 0.05500
H 	H 	0.91110 0.14420 0.16790 0.04400
H 	H 	0.58890 0.85580 0.66790 0.04400
H 	H 	0.08890 0.64420 0.33210 0.04400
H 	H 	0.41110 0.35580 0.83210 0.04400
H 	H 	0.16790 0.91110 0.14420 0.04400
H 	H 	0.66790 0.58890 0.85580 0.04400
H 	H 	0.33210 0.08890 0.64420 0.04400
H 	H 	0.83210 0.41110 0.35580 0.04400
H 	H 	0.14420 0.16790 0.91110 0.04400
H 	H 	0.85580 0.66790 0.58890 0.04400
H 	H 	0.64420 0.33210 0.08890 0.04400
H 	H 	0.35580 0.83210 0.41110 0.04400
H 	H 	0.08890 0.85580 0.83210 0.04400
H 	H 	0.41110 0.14420 0.33210 0.04400
H 	H 	0.91110 0.35580 0.66790 0.04400
H 	H 	0.58890 0.64420 0.16790 0.04400
H 	H 	0.83210 0.08890 0.85580 0.04400
H 	H 	0.33210 0.41110 0.14420 0.04400
H 	H 	0.66790 0.91110 0.35580 0.04400
H 	H 	0.16790 0.58890 0.64420 0.04400
H 	H 	0.85580 0.83210 0.08890 0.04400
H 	H 	0.14420 0.33210 0.41110 0.04400
H 	H 	0.35580 0.66790 0.91110 0.04400
H 	H 	0.64420 0.16790 0.58890 0.04400
C 	C 	0.91968 0.17070 0.11167 0.05700
C 	C 	0.58032 0.82930 0.61167 0.05700
C 	C 	0.08032 0.67070 0.38833 0.05700
C 	C 	0.41968 0.32930 0.88833 0.05700
C 	C 	0.11167 0.91968 0.17070 0.05700
C 	C 	0.61167 0.58032 0.82930 0.05700
C 	C 	0.38833 0.08032 0.67070 0.05700
C 	C 	0.88833 0.41968 0.32930 0.05700
C 	C 	0.17070 0.11167 0.91968 0.05700
C 	C 	0.82930 0.61167 0.58032 0.05700
C 	C 	0.67070 0.38833 0.08032 0.05700
C 	C 	0.32930 0.88833 0.41968 0.05700
C 	C 	0.08032 0.82930 0.88833 0.05700
C 	C 	0.41968 0.17070 0.38833 0.05700
C 	C 	0.91968 0.32930 0.61167 0.05700
C 	C 	0.58032 0.67070 0.11167 0.05700
C 	C 	0.88833 0.08032 0.82930 0.05700
C 	C 	0.38833 0.41968 0.17070 0.05700
C 	C 	0.61167 0.91968 0.32930 0.05700
C 	C 	0.11167 0.58032 0.67070 0.05700
C 	C 	0.82930 0.88833 0.08032 0.05700
C 	C 	0.17070 0.38833 0.41968 0.05700
C 	C 	0.32930 0.61167 0.91968 0.05700
C 	C 	0.67070 0.11167 0.58032 0.05700
H 	H 	0.89940 0.15170 0.10210 0.04400
H 	H 	0.60060 0.84830 0.60210 0.04400
H 	H 	0.10060 0.65170 0.39790 0.04400
H 	H 	0.39940 0.34830 0.89790 0.04400
H 	H 	0.10210 0.89940 0.15170 0.04400
H 	H 	0.60210 0.60060 0.84830 0.04400
H 	H 	0.39790 0.10060 0.65170 0.04400
H 	H 	0.89790 0.39940 0.34830 0.04400
H 	H 	0.15170 0.10210 0.89940 0.04400
H 	H 	0.84830 0.60210 0.60060 0.04400
H 	H 	0.65170 0.39790 0.10060 0.04400
H 	H 	0.34830 0.89790 0.39940 0.04400
H 	H 	0.10060 0.84830 0.89790 0.04400
H 	H 	0.39940 0.15170 0.39790 0.04400
H 	H 	0.89940 0.34830 0.60210 0.04400
H 	H 	0.60060 0.65170 0.10210 0.04400
H 	H 	0.89790 0.10060 0.84830 0.04400
H 	H 	0.39790 0.39940 0.15170 0.04400
H 	H 	0.60210 0.89940 0.34830 0.04400
H 	H 	0.10210 0.60060 0.65170 0.04400
H 	H 	0.84830 0.89790 0.10060 0.04400
H 	H 	0.15170 0.39790 0.39940 0.04400
H 	H 	0.34830 0.60210 0.89940 0.04400
H 	H 	0.65170 0.10210 0.60060 0.04400
C 	C 	0.90445 0.22999 0.14617 0.26300
C 	C 	0.59555 0.77001 0.64617 0.26300
C 	C 	0.09555 0.72999 0.35383 0.26300
C 	C 	0.40445 0.27001 0.85383 0.26300
C 	C 	0.14617 0.90445 0.22999 0.26300
C 	C 	0.64617 0.59555 0.77001 0.26300
C 	C 	0.35383 0.09555 0.72999 0.26300
C 	C 	0.85383 0.40445 0.27001 0.26300
C 	C 	0.22999 0.14617 0.90445 0.26300
C 	C 	0.77001 0.64617 0.59555 0.26300
C 	C 	0.72999 0.35383 0.09555 0.26300
C 	C 	0.27001 0.85383 0.40445 0.26300
C 	C 	0.09555 0.77001 0.85383 0.26300
C 	C 	0.40445 0.22999 0.35383 0.26300
C 	C 	0.90445 0.27001 0.64617 0.26300
C 	C 	0.59555 0.72999 0.14617 0.26300
C 	C 	0.85383 0.09555 0.77001 0.26300
C 	C 	0.35383 0.40445 0.22999 0.26300
C 	C 	0.64617 0.90445 0.27001 0.26300
C 	C 	0.14617 0.59555 0.72999 0.26300
C 	C 	0.77001 0.85383 0.09555 0.26300
C 	C 	0.22999 0.35383 0.40445 0.26300
C 	C 	0.27001 0.64617 0.90445 0.26300
C 	C 	0.72999 0.14617 0.59555 0.26300
C 	C 	0.96359 0.16137 0.04903 0.02100
C 	C 	0.53641 0.83863 0.54903 0.02100
C 	C 	0.03641 0.66137 0.45097 0.02100
C 	C 	0.46359 0.33863 0.95097 0.02100
C 	C 	0.04903 0.96359 0.16137 0.02100
C 	C 	0.54903 0.53641 0.83863 0.02100
C 	C 	0.45097 0.03641 0.66137 0.02100
C 	C 	0.95097 0.46359 0.33863 0.02100
C 	C 	0.16137 0.04903 0.96359 0.02100
C 	C 	0.83863 0.54903 0.53641 0.02100
C 	C 	0.66137 0.45097 0.03641 0.02100
C 	C 	0.33863 0.95097 0.46359 0.02100
C 	C 	0.03641 0.83863 0.95097 0.02100
C 	C 	0.46359 0.16137 0.45097 0.02100
C 	C 	0.96359 0.33863 0.54903 0.02100
C 	C 	0.53641 0.66137 0.04903 0.02100
C 	C 	0.95097 0.03641 0.83863 0.02100
C 	C 	0.45097 0.46359 0.16137 0.02100
C 	C 	0.54903 0.96359 0.33863 0.02100
C 	C 	0.04903 0.53641 0.66137 0.02100
C 	C 	0.83863 0.95097 0.03641 0.02100
C 	C 	0.16137 0.45097 0.46359 0.02100
C 	C 	0.33863 0.54903 0.96359 0.02100
C 	C 	0.66137 0.04903 0.53641 0.02100
H 	H 	0.98480 0.14230 0.04340 0.05900
H 	H 	0.51520 0.85770 0.54340 0.06000
H 	H 	0.01520 0.64230 0.45660 0.06000
H 	H 	0.48480 0.35770 0.95660 0.06000
H 	H 	0.04340 0.98480 0.14230 0.05900
H 	H 	0.54340 0.51520 0.85770 0.06000
H 	H 	0.45660 0.01520 0.64230 0.06000
H 	H 	0.95660 0.48480 0.35770 0.06000
H 	H 	0.14230 0.04340 0.98480 0.05900
H 	H 	0.85770 0.54340 0.51520 0.06000
H 	H 	0.64230 0.45660 0.01520 0.06000
H 	H 	0.35770 0.95660 0.48480 0.06000
H 	H 	0.01520 0.85770 0.95660 0.05900
H 	H 	0.48480 0.14230 0.45660 0.06000
H 	H 	0.98480 0.35770 0.54340 0.06000
H 	H 	0.51520 0.64230 0.04340 0.06000
H 	H 	0.95660 0.01520 0.85770 0.05900
H 	H 	0.45660 0.48480 0.14230 0.06000
H 	H 	0.54340 0.98480 0.35770 0.06000
H 	H 	0.04340 0.51520 0.64230 0.06000
H 	H 	0.85770 0.95660 0.01520 0.05900
H 	H 	0.14230 0.45660 0.48480 0.06000
H 	H 	0.35770 0.54340 0.98480 0.06000
H 	H 	0.64230 0.04340 0.51520 0.06000
H 	H 	0.93910 0.15140 0.03680 0.05400
H 	H 	0.56090 0.84860 0.53680 0.05400
H 	H 	0.06090 0.65140 0.46320 0.05400
H 	H 	0.43910 0.34860 0.96320 0.05400
H 	H 	0.03680 0.93910 0.15140 0.05400
H 	H 	0.53680 0.56090 0.84860 0.05400
H 	H 	0.46320 0.06090 0.65140 0.05400
H 	H 	0.96320 0.43910 0.34860 0.05400
H 	H 	0.15140 0.03680 0.93910 0.05400
H 	H 	0.84860 0.53680 0.56090 0.05400
H 	H 	0.65140 0.46320 0.06090 0.05400
H 	H 	0.34860 0.96320 0.43910 0.05400
H 	H 	0.06090 0.84860 0.96320 0.05400
H 	H 	0.43910 0.15140 0.46320 0.05400
H 	H 	0.93910 0.34860 0.53680 0.05400
H 	H 	0.56090 0.65140 0.03680 0.05400
H 	H 	0.96320 0.06090 0.84860 0.05400
H 	H 	0.46320 0.43910 0.15140 0.05400
H 	H 	0.53680 0.93910 0.34860 0.05400
H 	H 	0.03680 0.56090 0.65140 0.05400
H 	H 	0.84860 0.96320 0.06090 0.05400
H 	H 	0.15140 0.46320 0.43910 0.05400
H 	H 	0.34860 0.53680 0.93910 0.05400
H 	H 	0.65140 0.03680 0.56090 0.05400
C 	C 	0.89078 0.23083 0.07250 0.02200
C 	C 	0.60922 0.76917 0.57250 0.02200
C 	C 	0.10922 0.73083 0.42750 0.02200
C 	C 	0.39078 0.26917 0.92750 0.02200
C 	C 	0.07250 0.89078 0.23083 0.02200
C 	C 	0.57250 0.60922 0.76917 0.02200
C 	C 	0.42750 0.10922 0.73083 0.02200
C 	C 	0.92750 0.39078 0.26917 0.02200
C 	C 	0.23083 0.07250 0.89078 0.02200
C 	C 	0.76917 0.57250 0.60922 0.02200
C 	C 	0.73083 0.42750 0.10922 0.02200
C 	C 	0.26917 0.92750 0.39078 0.02200
C 	C 	0.10922 0.76917 0.92750 0.02200
C 	C 	0.39078 0.23083 0.42750 0.02200
C 	C 	0.89078 0.26917 0.57250 0.02200
C 	C 	0.60922 0.73083 0.07250 0.02200
C 	C 	0.92750 0.10922 0.76917 0.02200
C 	C 	0.42750 0.39078 0.23083 0.02200
C 	C 	0.57250 0.89078 0.26917 0.02200
C 	C 	0.07250 0.60922 0.73083 0.02200
C 	C 	0.76917 0.92750 0.10922 0.02200
C 	C 	0.23083 0.42750 0.39078 0.02200
C 	C 	0.26917 0.57250 0.89078 0.02200
C 	C 	0.73083 0.07250 0.60922 0.02200
H 	H 	0.87720 0.21100 0.05620 0.06200
H 	H 	0.62280 0.78900 0.55620 0.06200
H 	H 	0.12280 0.71100 0.44380 0.06200
H 	H 	0.37720 0.28900 0.94380 0.06200
H 	H 	0.05620 0.87720 0.21100 0.06200
H 	H 	0.55620 0.62280 0.78900 0.06200
H 	H 	0.44380 0.12280 0.71100 0.06200
H 	H 	0.94380 0.37720 0.28900 0.06200
H 	H 	0.21100 0.05620 0.87720 0.06200
H 	H 	0.78900 0.55620 0.62280 0.06200
H 	H 	0.71100 0.44380 0.12280 0.06200
H 	H 	0.28900 0.94380 0.37720 0.06200
H 	H 	0.12280 0.78900 0.94380 0.06200
H 	H 	0.37720 0.21100 0.44380 0.06200
H 	H 	0.87720 0.28900 0.55620 0.06200
H 	H 	0.62280 0.71100 0.05620 0.06200
H 	H 	0.94380 0.12280 0.78900 0.06200
H 	H 	0.44380 0.37720 0.21100 0.06200
H 	H 	0.55620 0.87720 0.28900 0.06200
H 	H 	0.05620 0.62280 0.71100 0.06200
H 	H 	0.78900 0.94380 0.12280 0.06200
H 	H 	0.21100 0.44380 0.37720 0.06200
H 	H 	0.28900 0.55620 0.87720 0.06200
H 	H 	0.71100 0.05620 0.62280 0.06200
H 	H 	0.87140 0.25130 0.07960 0.05100
H 	H 	0.62860 0.74870 0.57960 0.05100
H 	H 	0.12860 0.75130 0.42040 0.05100
H 	H 	0.37140 0.24870 0.92040 0.05100
H 	H 	0.07960 0.87140 0.25130 0.05100
H 	H 	0.57960 0.62860 0.74870 0.05100
H 	H 	0.42040 0.12860 0.75130 0.05100
H 	H 	0.92040 0.37140 0.24870 0.05100
H 	H 	0.25130 0.07960 0.87140 0.05100
H 	H 	0.74870 0.57960 0.62860 0.05100
H 	H 	0.75130 0.42040 0.12860 0.05100
H 	H 	0.24870 0.92040 0.37140 0.05100
H 	H 	0.12860 0.74870 0.92040 0.05100
H 	H 	0.37140 0.25130 0.42040 0.05100
H 	H 	0.87140 0.24870 0.57960 0.05100
H 	H 	0.62860 0.75130 0.07960 0.05100
H 	H 	0.92040 0.12860 0.74870 0.05100
H 	H 	0.42040 0.37140 0.25130 0.05100
H 	H 	0.57960 0.87140 0.24870 0.05100
H 	H 	0.07960 0.62860 0.75130 0.05100
H 	H 	0.74870 0.92040 0.12860 0.05100
H 	H 	0.25130 0.42040 0.37140 0.05100
H 	H 	0.24870 0.57960 0.87140 0.05100
H 	H 	0.75130 0.07960 0.62860 0.05100
C 	C 	0.01193 0.21238 0.02456 0.27600
C 	C 	0.48807 0.78762 0.52456 0.27500
C 	C 	0.98807 0.71238 0.47544 0.27500
C 	C 	0.51193 0.28762 0.97544 0.27500
C 	C 	0.02456 0.01193 0.21238 0.27600
C 	C 	0.52456 0.48807 0.78762 0.27500
C 	C 	0.47544 0.98807 0.71238 0.27500
C 	C 	0.97544 0.51193 0.28762 0.27500
C 	C 	0.21238 0.02456 0.01193 0.27600
C 	C 	0.78762 0.52456 0.48807 0.27500
C 	C 	0.71238 0.47544 0.98807 0.27500
C 	C 	0.28762 0.97544 0.51193 0.27500
C 	C 	0.98807 0.78762 0.97544 0.27600
C 	C 	0.51193 0.21238 0.47544 0.27500
C 	C 	0.01193 0.28762 0.52456 0.27500
C 	C 	0.48807 0.71238 0.02456 0.27500
C 	C 	0.97544 0.98807 0.78762 0.27600
C 	C 	0.47544 0.51193 0.21238 0.27500
C 	C 	0.52456 0.01193 0.28762 0.27500
C 	C 	0.02456 0.48807 0.71238 0.27500
C 	C 	0.78762 0.97544 0.98807 0.27600
C 	C 	0.21238 0.47544 0.51193 0.27500
C 	C 	0.28762 0.52456 0.01193 0.27500
C 	C 	0.71238 0.02456 0.48807 0.27500
C 	C 	0.94449 0.22990 0.01660 0.12000
C 	C 	0.55551 0.77010 0.51660 0.12000
C 	C 	0.05551 0.72990 0.48340 0.12000
C 	C 	0.44449 0.27010 0.98340 0.12000
C 	C 	0.01660 0.94449 0.22990 0.12000
C 	C 	0.51660 0.55551 0.77010 0.12000
C 	C 	0.48340 0.05551 0.72990 0.12000
C 	C 	0.98340 0.44449 0.27010 0.12000
C 	C 	0.22990 0.01660 0.94449 0.12000
C 	C 	0.77010 0.51660 0.55551 0.12000
C 	C 	0.72990 0.48340 0.05551 0.12000
C 	C 	0.27010 0.98340 0.44449 0.12000
C 	C 	0.05551 0.77010 0.98340 0.12000
C 	C 	0.44449 0.22990 0.48340 0.12000
C 	C 	0.94449 0.27010 0.51660 0.12000
C 	C 	0.55551 0.72990 0.01660 0.12000
C 	C 	0.98340 0.05551 0.77010 0.12000
C 	C 	0.48340 0.44449 0.22990 0.12000
C 	C 	0.51660 0.94449 0.27010 0.12000
C 	C 	0.01660 0.55551 0.72990 0.12000
C 	C 	0.77010 0.98340 0.05551 0.12000
C 	C 	0.22990 0.48340 0.44449 0.12000
C 	C 	0.27010 0.51660 0.94449 0.12000
C 	C 	0.72990 0.01660 0.55551 0.12000
C 	C 	0.97236 0.26428 0.00027 0.11600
C 	C 	0.52764 0.73572 0.50027 0.11600
C 	C 	0.02764 0.76428 0.49973 0.11600
C 	C 	0.47236 0.23572 0.99973 0.11600
C 	C 	0.00027 0.97236 0.26428 0.11600
C 	C 	0.50027 0.52764 0.73572 0.11600
C 	C 	0.49973 0.02764 0.76428 0.11600
C 	C 	0.99973 0.47236 0.23572 0.11600
C 	C 	0.26428 0.00027 0.97236 0.11600
C 	C 	0.73572 0.50027 0.52764 0.11600
C 	C 	0.76428 0.49973 0.02764 0.11600
C 	C 	0.23572 0.99973 0.47236 0.11600
C 	C 	0.02764 0.73572 0.99973 0.11600
C 	C 	0.47236 0.26428 0.49973 0.11600
C 	C 	0.97236 0.23572 0.50027 0.11600
C 	C 	0.52764 0.76428 0.00027 0.11600
C 	C 	0.99973 0.02764 0.73572 0.11600
C 	C 	0.49973 0.47236 0.26428 0.11600
C 	C 	0.50027 0.97236 0.23572 0.11600
C 	C 	0.00027 0.52764 0.76428 0.11600
C 	C 	0.73572 0.99973 0.02764 0.11600
C 	C 	0.26428 0.49973 0.47236 0.11600
C 	C 	0.23572 0.50027 0.97236 0.11600
C 	C 	0.76428 0.00027 0.52764 0.11600
C 	C 	0.93259 0.28903 0.05368 0.28900
C 	C 	0.56741 0.71097 0.55368 0.29000
C 	C 	0.06741 0.78903 0.44632 0.29000
C 	C 	0.43259 0.21097 0.94632 0.29000
C 	C 	0.05368 0.93259 0.28903 0.28900
C 	C 	0.55368 0.56741 0.71097 0.29000
C 	C 	0.44632 0.06741 0.78903 0.29000
C 	C 	0.94632 0.43259 0.21097 0.29000
C 	C 	0.28903 0.05368 0.93259 0.28900
C 	C 	0.71097 0.55368 0.56741 0.29000
C 	C 	0.78903 0.44632 0.06741 0.29000
C 	C 	0.21097 0.94632 0.43259 0.29000
C 	C 	0.06741 0.71097 0.94632 0.28900
C 	C 	0.43259 0.28903 0.44632 0.29000
C 	C 	0.93259 0.21097 0.55368 0.29000
C 	C 	0.56741 0.78903 0.05368 0.29000
C 	C 	0.94632 0.06741 0.71097 0.28900
C 	C 	0.44632 0.43259 0.28903 0.29000
C 	C 	0.55368 0.93259 0.21097 0.29000
C 	C 	0.05368 0.56741 0.78903 0.29000
C 	C 	0.71097 0.94632 0.06741 0.28900
C 	C 	0.28903 0.44632 0.43259 0.29000
C 	C 	0.21097 0.55368 0.93259 0.29000
C 	C 	0.78903 0.05368 0.56741 0.29000
C 	C 	0.04909 0.26849 0.99735 0.03100
C 	C 	0.45091 0.73151 0.49735 0.03100
C 	C 	0.95091 0.76849 0.50265 0.03100
C 	C 	0.54909 0.23151 0.00265 0.03100
C 	C 	0.99735 0.04909 0.26849 0.03100
C 	C 	0.49735 0.45091 0.73151 0.03100
C 	C 	0.50265 0.95091 0.76849 0.03100
C 	C 	0.00265 0.54909 0.23151 0.03100
C 	C 	0.26849 0.99735 0.04909 0.03100
C 	C 	0.73151 0.49735 0.45091 0.03100
C 	C 	0.76849 0.50265 0.95091 0.03100
C 	C 	0.23151 0.00265 0.54909 0.03100
C 	C 	0.95091 0.73151 0.00265 0.03100
C 	C 	0.54909 0.26849 0.50265 0.03100
C 	C 	0.04909 0.23151 0.49735 0.03100
C 	C 	0.45091 0.76849 0.99735 0.03100
C 	C 	0.00265 0.95091 0.73151 0.03100
C 	C 	0.50265 0.54909 0.26849 0.03100
C 	C 	0.49735 0.04909 0.23151 0.03100
C 	C 	0.99735 0.45091 0.76849 0.03100
C 	C 	0.73151 0.00265 0.95091 0.03100
C 	C 	0.26849 0.50265 0.54909 0.03100
C 	C 	0.23151 0.49735 0.04909 0.03100
C 	C 	0.76849 0.99735 0.45091 0.03100
H 	H 	0.04550 0.28380 0.97290 0.04200
H 	H 	0.45450 0.71620 0.47290 0.04200
H 	H 	0.95450 0.78380 0.52710 0.04200
H 	H 	0.54550 0.21620 0.02710 0.04200
H 	H 	0.97290 0.04550 0.28380 0.04200
H 	H 	0.47290 0.45450 0.71620 0.04200
H 	H 	0.52710 0.95450 0.78380 0.04200
H 	H 	0.02710 0.54550 0.21620 0.04200
H 	H 	0.28380 0.97290 0.04550 0.04200
H 	H 	0.71620 0.47290 0.45450 0.04200
H 	H 	0.78380 0.52710 0.95450 0.04200
H 	H 	0.21620 0.02710 0.54550 0.04200
H 	H 	0.95450 0.71620 0.02710 0.04200
H 	H 	0.54550 0.28380 0.52710 0.04200
H 	H 	0.04550 0.21620 0.47290 0.04200
H 	H 	0.45450 0.78380 0.97290 0.04200
H 	H 	0.02710 0.95450 0.71620 0.04200
H 	H 	0.52710 0.54550 0.28380 0.04200
H 	H 	0.47290 0.04550 0.21620 0.04200
H 	H 	0.97290 0.45450 0.78380 0.04200
H 	H 	0.71620 0.02710 0.95450 0.04200
H 	H 	0.28380 0.52710 0.54550 0.04200
H 	H 	0.21620 0.47290 0.04550 0.04200
H 	H 	0.78380 0.97290 0.45450 0.04200
H 	H 	0.06960 0.24840 0.99230 0.05500
H 	H 	0.43040 0.75160 0.49230 0.05500
H 	H 	0.93040 0.74840 0.50770 0.05500
H 	H 	0.56960 0.25160 0.00770 0.05500
H 	H 	0.99230 0.06960 0.24840 0.05500
H 	H 	0.49230 0.43040 0.75160 0.05500
H 	H 	0.50770 0.93040 0.74840 0.05500
H 	H 	0.00770 0.56960 0.25160 0.05500
H 	H 	0.24840 0.99230 0.06960 0.05500
H 	H 	0.75160 0.49230 0.43040 0.05500
H 	H 	0.74840 0.50770 0.93040 0.05500
H 	H 	0.25160 0.00770 0.56960 0.05500
H 	H 	0.93040 0.75160 0.00770 0.05500
H 	H 	0.56960 0.24840 0.50770 0.05500
H 	H 	0.06960 0.25160 0.49230 0.05500
H 	H 	0.43040 0.74840 0.99230 0.05500
H 	H 	0.00770 0.93040 0.75160 0.05500
H 	H 	0.50770 0.56960 0.24840 0.05500
H 	H 	0.49230 0.06960 0.25160 0.05500
H 	H 	0.99230 0.43040 0.74840 0.05500
H 	H 	0.75160 0.00770 0.93040 0.05500
H 	H 	0.24840 0.50770 0.56960 0.05500
H 	H 	0.25160 0.49230 0.06960 0.05500
H 	H 	0.74840 0.99230 0.43040 0.05500
C 	C 	0.97711 0.33852 0.02305 0.03900
C 	C 	0.52289 0.66148 0.52305 0.03900
C 	C 	0.02289 0.83852 0.47695 0.03900
C 	C 	0.47711 0.16148 0.97695 0.03900
C 	C 	0.02305 0.97711 0.33852 0.03900
C 	C 	0.52305 0.52289 0.66148 0.03900
C 	C 	0.47695 0.02289 0.83852 0.03900
C 	C 	0.97695 0.47711 0.16148 0.03900
C 	C 	0.33852 0.02305 0.97711 0.03900
C 	C 	0.66148 0.52305 0.52289 0.03900
C 	C 	0.83852 0.47695 0.02289 0.03900
C 	C 	0.16148 0.97695 0.47711 0.03900
C 	C 	0.02289 0.66148 0.97695 0.03900
C 	C 	0.47711 0.33852 0.47695 0.03900
C 	C 	0.97711 0.16148 0.52305 0.03900
C 	C 	0.52289 0.83852 0.02305 0.03900
C 	C 	0.97695 0.02289 0.66148 0.03900
C 	C 	0.47695 0.47711 0.33852 0.03900
C 	C 	0.52305 0.97711 0.16148 0.03900
C 	C 	0.02305 0.52289 0.83852 0.03900
C 	C 	0.66148 0.97695 0.02289 0.03900
C 	C 	0.33852 0.47695 0.47711 0.03900
C 	C 	0.16148 0.52305 0.97711 0.03900
C 	C 	0.83852 0.02305 0.52289 0.03900
H 	H 	0.98260 0.34410 0.99500 0.02800
H 	H 	0.51740 0.65590 0.49500 0.02800
H 	H 	0.01740 0.84410 0.50500 0.02800
H 	H 	0.48260 0.15590 0.00500 0.02800
H 	H 	0.99500 0.98260 0.34410 0.02800
H 	H 	0.49500 0.51740 0.65590 0.02800
H 	H 	0.50500 0.01740 0.84410 0.02800
H 	H 	0.00500 0.48260 0.15590 0.02800
H 	H 	0.34410 0.99500 0.98260 0.02800
H 	H 	0.65590 0.49500 0.51740 0.02800
H 	H 	0.84410 0.50500 0.01740 0.02800
H 	H 	0.15590 0.00500 0.48260 0.02800
H 	H 	0.01740 0.65590 0.00500 0.02800
H 	H 	0.48260 0.34410 0.50500 0.02800
H 	H 	0.98260 0.15590 0.49500 0.02800
H 	H 	0.51740 0.84410 0.99500 0.02800
H 	H 	0.00500 0.01740 0.65590 0.02800
H 	H 	0.50500 0.48260 0.34410 0.02800
H 	H 	0.49500 0.98260 0.15590 0.02800
H 	H 	0.99500 0.51740 0.84410 0.02800
H 	H 	0.65590 0.00500 0.01740 0.02800
H 	H 	0.34410 0.50500 0.48260 0.02800
H 	H 	0.15590 0.49500 0.98260 0.02800
H 	H 	0.84410 0.99500 0.51740 0.02800
H 	H 	0.95620 0.35680 0.03180 0.05500
H 	H 	0.54380 0.64320 0.53180 0.05500
H 	H 	0.04380 0.85680 0.46820 0.05500
H 	H 	0.45620 0.14320 0.96820 0.05500
H 	H 	0.03180 0.95620 0.35680 0.05500
H 	H 	0.53180 0.54380 0.64320 0.05500
H 	H 	0.46820 0.04380 0.85680 0.05500
H 	H 	0.96820 0.45620 0.14320 0.05500
H 	H 	0.35680 0.03180 0.95620 0.05500
H 	H 	0.64320 0.53180 0.54380 0.05500
H 	H 	0.85680 0.46820 0.04380 0.05500
H 	H 	0.14320 0.96820 0.45620 0.05500
H 	H 	0.04380 0.64320 0.96820 0.05500
H 	H 	0.45620 0.35680 0.46820 0.05500
H 	H 	0.95620 0.14320 0.53180 0.05500
H 	H 	0.54380 0.85680 0.03180 0.05500
H 	H 	0.96820 0.04380 0.64320 0.05500
H 	H 	0.46820 0.45620 0.35680 0.05500
H 	H 	0.53180 0.95620 0.14320 0.05500
H 	H 	0.03180 0.54380 0.85680 0.05500
H 	H 	0.64320 0.96820 0.04380 0.05500
H 	H 	0.35680 0.46820 0.45620 0.05500
H 	H 	0.14320 0.53180 0.95620 0.05500
H 	H 	0.85680 0.03180 0.54380 0.05500
C 	C 	0.09194 0.28444 0.05536 0.27100
C 	C 	0.40806 0.71556 0.55536 0.27100
C 	C 	0.90806 0.78444 0.44464 0.27100
C 	C 	0.59194 0.21556 0.94464 0.27100
C 	C 	0.05536 0.09194 0.28444 0.27100
C 	C 	0.55536 0.40806 0.71556 0.27100
C 	C 	0.44464 0.90806 0.78444 0.27100
C 	C 	0.94464 0.59194 0.21556 0.27100
C 	C 	0.28444 0.05536 0.09194 0.27100
C 	C 	0.71556 0.55536 0.40806 0.27100
C 	C 	0.78444 0.44464 0.90806 0.27100
C 	C 	0.21556 0.94464 0.59194 0.27100
C 	C 	0.90806 0.71556 0.94464 0.27100
C 	C 	0.59194 0.28444 0.44464 0.27100
C 	C 	0.09194 0.21556 0.55536 0.27100
C 	C 	0.40806 0.78444 0.05536 0.27100
C 	C 	0.94464 0.90806 0.71556 0.27100
C 	C 	0.44464 0.59194 0.28444 0.27100
C 	C 	0.55536 0.09194 0.21556 0.27100
C 	C 	0.05536 0.40806 0.78444 0.27100
C 	C 	0.71556 0.94464 0.90806 0.27100
C 	C 	0.28444 0.44464 0.59194 0.27100
C 	C 	0.21556 0.55536 0.09194 0.27100
C 	C 	0.78444 0.05536 0.40806 0.27100
C 	C 	0.05292 0.33885 0.03293 0.05200
C 	C 	0.44708 0.66115 0.53293 0.05200
C 	C 	0.94708 0.83885 0.46707 0.05200
C 	C 	0.55292 0.16115 0.96707 0.05200
C 	C 	0.03293 0.05292 0.33885 0.05200
C 	C 	0.53293 0.44708 0.66115 0.05200
C 	C 	0.46707 0.94708 0.83885 0.05200
C 	C 	0.96707 0.55292 0.16115 0.05200
C 	C 	0.33885 0.03293 0.05292 0.05200
C 	C 	0.66115 0.53293 0.44708 0.05200
C 	C 	0.83885 0.46707 0.94708 0.05200
C 	C 	0.16115 0.96707 0.55292 0.05200
C 	C 	0.94708 0.66115 0.96707 0.05200
C 	C 	0.55292 0.33885 0.46707 0.05200
C 	C 	0.05292 0.16115 0.53293 0.05200
C 	C 	0.44708 0.83885 0.03293 0.05200
C 	C 	0.96707 0.94708 0.66115 0.05200
C 	C 	0.46707 0.55292 0.33885 0.05200
C 	C 	0.53293 0.05292 0.16115 0.05200
C 	C 	0.03293 0.44708 0.83885 0.05200
C 	C 	0.66115 0.96707 0.94708 0.05200
C 	C 	0.33885 0.46707 0.55292 0.05200
C 	C 	0.16115 0.53293 0.05292 0.05200
C 	C 	0.83885 0.03293 0.44708 0.05200
H 	H 	0.05920 0.35350 0.00820 0.02200
H 	H 	0.44080 0.64650 0.50820 0.02200
H 	H 	0.94080 0.85350 0.49180 0.02200
H 	H 	0.55920 0.14650 0.99180 0.02200
H 	H 	0.00820 0.05920 0.35350 0.02200
H 	H 	0.50820 0.44080 0.64650 0.02200
H 	H 	0.49180 0.94080 0.85350 0.02200
H 	H 	0.99180 0.55920 0.14650 0.02200
H 	H 	0.35350 0.00820 0.05920 0.02200
H 	H 	0.64650 0.50820 0.44080 0.02200
H 	H 	0.85350 0.49180 0.94080 0.02200
H 	H 	0.14650 0.99180 0.55920 0.02200
H 	H 	0.94080 0.64650 0.99180 0.02200
H 	H 	0.55920 0.35350 0.49180 0.02200
H 	H 	0.05920 0.14650 0.50820 0.02200
H 	H 	0.44080 0.85350 0.00820 0.02200
H 	H 	0.99180 0.94080 0.64650 0.02200
H 	H 	0.49180 0.55920 0.35350 0.02200
H 	H 	0.50820 0.05920 0.14650 0.02200
H 	H 	0.00820 0.44080 0.85350 0.02200
H 	H 	0.64650 0.99180 0.94080 0.02200
H 	H 	0.35350 0.49180 0.55920 0.02200
H 	H 	0.14650 0.50820 0.05920 0.02200
H 	H 	0.85350 0.00820 0.44080 0.02200
C 	C 	0.07873 0.35348 0.06805 0.06000
C 	C 	0.42127 0.64652 0.56805 0.06000
C 	C 	0.92127 0.85348 0.43195 0.06000
C 	C 	0.57873 0.14652 0.93195 0.06000
C 	C 	0.06805 0.07873 0.35348 0.06000
C 	C 	0.56805 0.42127 0.64652 0.06000
C 	C 	0.43195 0.92127 0.85348 0.06000
C 	C 	0.93195 0.57873 0.14652 0.06000
C 	C 	0.35348 0.06805 0.07873 0.06000
C 	C 	0.64652 0.56805 0.42127 0.06000
C 	C 	0.85348 0.43195 0.92127 0.06000
C 	C 	0.14652 0.93195 0.57873 0.06000
C 	C 	0.92127 0.64652 0.93195 0.06000
C 	C 	0.57873 0.35348 0.43195 0.06000
C 	C 	0.07873 0.14652 0.56805 0.06000
C 	C 	0.42127 0.85348 0.06805 0.06000
C 	C 	0.93195 0.92127 0.64652 0.06000
C 	C 	0.43195 0.57873 0.35348 0.06000
C 	C 	0.56805 0.07873 0.14652 0.06000
C 	C 	0.06805 0.42127 0.85348 0.06000
C 	C 	0.64652 0.93195 0.92127 0.06000
C 	C 	0.35348 0.43195 0.57873 0.06000
C 	C 	0.14652 0.56805 0.07873 0.06000
C 	C 	0.85348 0.06805 0.42127 0.06000
H 	H 	0.09610 0.37580 0.06020 0.01900
H 	H 	0.40390 0.62420 0.56020 0.01900
H 	H 	0.90390 0.87580 0.43980 0.01900
H 	H 	0.59610 0.12420 0.93980 0.01900
H 	H 	0.06020 0.09610 0.37580 0.01900
H 	H 	0.56020 0.40390 0.62420 0.01900
H 	H 	0.43980 0.90390 0.87580 0.01900
H 	H 	0.93980 0.59610 0.12420 0.01900
H 	H 	0.37580 0.06020 0.09610 0.01900
H 	H 	0.62420 0.56020 0.40390 0.01900
H 	H 	0.87580 0.43980 0.90390 0.01900
H 	H 	0.12420 0.93980 0.59610 0.01900
H 	H 	0.90390 0.62420 0.93980 0.01900
H 	H 	0.59610 0.37580 0.43980 0.01900
H 	H 	0.09610 0.12420 0.56020 0.01900
H 	H 	0.40390 0.87580 0.06020 0.01900
H 	H 	0.93980 0.90390 0.62420 0.01900
H 	H 	0.43980 0.59610 0.37580 0.01900
H 	H 	0.56020 0.09610 0.12420 0.01900
H 	H 	0.06020 0.40390 0.87580 0.01900
H 	H 	0.62420 0.93980 0.90390 0.01900
H 	H 	0.37580 0.43980 0.59610 0.01900
H 	H 	0.12420 0.56020 0.09610 0.01900
H 	H 	0.87580 0.06020 0.40390 0.01900
C 	C 	0.01136 0.36334 0.08361 0.27200
C 	C 	0.48864 0.63666 0.58361 0.27200
C 	C 	0.98864 0.86334 0.41639 0.27200
C 	C 	0.51136 0.13666 0.91639 0.27200
C 	C 	0.08361 0.01136 0.36334 0.27200
C 	C 	0.58361 0.48864 0.63666 0.27200
C 	C 	0.41639 0.98864 0.86334 0.27200
C 	C 	0.91639 0.51136 0.13666 0.27200
C 	C 	0.36334 0.08361 0.01136 0.27200
C 	C 	0.63666 0.58361 0.48864 0.27200
C 	C 	0.86334 0.41639 0.98864 0.27200
C 	C 	0.13666 0.91639 0.51136 0.27200
C 	C 	0.98864 0.63666 0.91639 0.27200
C 	C 	0.51136 0.36334 0.41639 0.27200
C 	C 	0.01136 0.13666 0.58361 0.27200
C 	C 	0.48864 0.86334 0.08361 0.27200
C 	C 	0.91639 0.98864 0.63666 0.27200
C 	C 	0.41639 0.51136 0.36334 0.27200
C 	C 	0.58361 0.01136 0.13666 0.27200
C 	C 	0.08361 0.48864 0.86334 0.27200
C 	C 	0.63666 0.91639 0.98864 0.27200
C 	C 	0.36334 0.41639 0.51136 0.27200
C 	C 	0.13666 0.58361 0.01136 0.27200
C 	C 	0.86334 0.08361 0.48864 0.27200
C 	C 	0.13162 0.31732 0.10915 0.04400
C 	C 	0.36838 0.68268 0.60915 0.04400
C 	C 	0.86838 0.81732 0.39085 0.04400
C 	C 	0.63162 0.18268 0.89085 0.04400
C 	C 	0.10915 0.13162 0.31732 0.04400
C 	C 	0.60915 0.36838 0.68268 0.04400
C 	C 	0.39085 0.86838 0.81732 0.04400
C 	C 	0.89085 0.63162 0.18268 0.04400
C 	C 	0.31732 0.10915 0.13162 0.04400
C 	C 	0.68268 0.60915 0.36838 0.04400
C 	C 	0.81732 0.39085 0.86838 0.04400
C 	C 	0.18268 0.89085 0.63162 0.04400
C 	C 	0.86838 0.68268 0.89085 0.04400
C 	C 	0.63162 0.31732 0.39085 0.04400
C 	C 	0.13162 0.18268 0.60915 0.04400
C 	C 	0.36838 0.81732 0.10915 0.04400
C 	C 	0.89085 0.86838 0.68268 0.04400
C 	C 	0.39085 0.63162 0.31732 0.04400
C 	C 	0.60915 0.13162 0.18268 0.04400
C 	C 	0.10915 0.36838 0.81732 0.04400
C 	C 	0.68268 0.89085 0.86838 0.04400
C 	C 	0.31732 0.39085 0.63162 0.04400
C 	C 	0.18268 0.60915 0.13162 0.04400
C 	C 	0.81732 0.10915 0.36838 0.04400
H 	H 	0.14500 0.34320 0.10930 0.03100
H 	H 	0.35500 0.65680 0.60930 0.03100
H 	H 	0.85500 0.84320 0.39070 0.03100
H 	H 	0.64500 0.15680 0.89070 0.03100
H 	H 	0.10930 0.14500 0.34320 0.03100
H 	H 	0.60930 0.35500 0.65680 0.03100
H 	H 	0.39070 0.85500 0.84320 0.03100
H 	H 	0.89070 0.64500 0.15680 0.03100
H 	H 	0.34320 0.10930 0.14500 0.03100
H 	H 	0.65680 0.60930 0.35500 0.03100
H 	H 	0.84320 0.39070 0.85500 0.03100
H 	H 	0.15680 0.89070 0.64500 0.03100
H 	H 	0.85500 0.65680 0.89070 0.03100
H 	H 	0.64500 0.34320 0.39070 0.03100
H 	H 	0.14500 0.15680 0.60930 0.03100
H 	H 	0.35500 0.84320 0.10930 0.03100
H 	H 	0.89070 0.85500 0.65680 0.03100
H 	H 	0.39070 0.64500 0.34320 0.03100
H 	H 	0.60930 0.14500 0.15680 0.03100
H 	H 	0.10930 0.35500 0.84320 0.03100
H 	H 	0.65680 0.89070 0.85500 0.03100
H 	H 	0.34320 0.39070 0.64500 0.03100
H 	H 	0.15680 0.60930 0.14500 0.03100
H 	H 	0.84320 0.10930 0.35500 0.03100
H 	H 	0.15150 0.29720 0.10240 0.04000
H 	H 	0.34850 0.70280 0.60240 0.04000
H 	H 	0.84850 0.79720 0.39760 0.04000
H 	H 	0.65150 0.20280 0.89760 0.04000
H 	H 	0.10240 0.15150 0.29720 0.04000
H 	H 	0.60240 0.34850 0.70280 0.04000
H 	H 	0.39760 0.84850 0.79720 0.04000
H 	H 	0.89760 0.65150 0.20280 0.04000
H 	H 	0.29720 0.10240 0.15150 0.04000
H 	H 	0.70280 0.60240 0.34850 0.04000
H 	H 	0.79720 0.39760 0.84850 0.04000
H 	H 	0.20280 0.89760 0.65150 0.04000
H 	H 	0.84850 0.70280 0.89760 0.04000
H 	H 	0.65150 0.29720 0.39760 0.04000
H 	H 	0.15150 0.20280 0.60240 0.04000
H 	H 	0.34850 0.79720 0.10240 0.04000
H 	H 	0.89760 0.84850 0.70280 0.04000
H 	H 	0.39760 0.65150 0.29720 0.04000
H 	H 	0.60240 0.15150 0.20280 0.04000
H 	H 	0.10240 0.34850 0.79720 0.04000
H 	H 	0.70280 0.89760 0.84850 0.04000
H 	H 	0.29720 0.39760 0.65150 0.04000
H 	H 	0.20280 0.60240 0.15150 0.04000
H 	H 	0.79720 0.10240 0.34850 0.04000
C 	C 	0.05899 0.38575 0.13397 0.04300
C 	C 	0.44101 0.61425 0.63397 0.04300
C 	C 	0.94101 0.88575 0.36603 0.04300
C 	C 	0.55899 0.11425 0.86603 0.04300
C 	C 	0.13397 0.05899 0.38575 0.04300
C 	C 	0.63397 0.44101 0.61425 0.04300
C 	C 	0.36603 0.94101 0.88575 0.04300
C 	C 	0.86603 0.55899 0.11425 0.04300
C 	C 	0.38575 0.13397 0.05899 0.04300
C 	C 	0.61425 0.63397 0.44101 0.04300
C 	C 	0.88575 0.36603 0.94101 0.04300
C 	C 	0.11425 0.86603 0.55899 0.04300
C 	C 	0.94101 0.61425 0.86603 0.04300
C 	C 	0.55899 0.38575 0.36603 0.04300
C 	C 	0.05899 0.11425 0.63397 0.04300
C 	C 	0.44101 0.88575 0.13397 0.04300
C 	C 	0.86603 0.94101 0.61425 0.04300
C 	C 	0.36603 0.55899 0.38575 0.04300
C 	C 	0.63397 0.05899 0.11425 0.04300
C 	C 	0.13397 0.44101 0.88575 0.04300
C 	C 	0.61425 0.86603 0.94101 0.04300
C 	C 	0.38575 0.36603 0.55899 0.04300
C 	C 	0.11425 0.63397 0.05899 0.04300
C 	C 	0.88575 0.13397 0.44101 0.04300
H 	H 	0.03700 0.40370 0.14040 0.03800
H 	H 	0.46300 0.59630 0.64040 0.03800
H 	H 	0.96300 0.90370 0.35960 0.03800
H 	H 	0.53700 0.09630 0.85960 0.03800
H 	H 	0.14040 0.03700 0.40370 0.03800
H 	H 	0.64040 0.46300 0.59630 0.03800
H 	H 	0.35960 0.96300 0.90370 0.03800
H 	H 	0.85960 0.53700 0.09630 0.03800
H 	H 	0.40370 0.14040 0.03700 0.03800
H 	H 	0.59630 0.64040 0.46300 0.03800
H 	H 	0.90370 0.35960 0.96300 0.03800
H 	H 	0.09630 0.85960 0.53700 0.03800
H 	H 	0.96300 0.59630 0.85960 0.03800
H 	H 	0.53700 0.40370 0.35960 0.03800
H 	H 	0.03700 0.09630 0.64040 0.03800
H 	H 	0.46300 0.90370 0.14040 0.03800
H 	H 	0.85960 0.96300 0.59630 0.03800
H 	H 	0.35960 0.53700 0.40370 0.03800
H 	H 	0.64040 0.03700 0.09630 0.03800
H 	H 	0.14040 0.46300 0.90370 0.03800
H 	H 	0.59630 0.85960 0.96300 0.03800
H 	H 	0.40370 0.35960 0.53700 0.03800
H 	H 	0.09630 0.64040 0.03700 0.03800
H 	H 	0.90370 0.14040 0.46300 0.03800
H 	H 	0.08290 0.40200 0.13010 0.02200
H 	H 	0.41710 0.59800 0.63010 0.02200
H 	H 	0.91710 0.90200 0.36990 0.02200
H 	H 	0.58290 0.09800 0.86990 0.02200
H 	H 	0.13010 0.08290 0.40200 0.02200
H 	H 	0.63010 0.41710 0.59800 0.02200
H 	H 	0.36990 0.91710 0.90200 0.02200
H 	H 	0.86990 0.58290 0.09800 0.02200
H 	H 	0.40200 0.13010 0.08290 0.02200
H 	H 	0.59800 0.63010 0.41710 0.02200
H 	H 	0.90200 0.36990 0.91710 0.02200
H 	H 	0.09800 0.86990 0.58290 0.02200
H 	H 	0.91710 0.59800 0.86990 0.02200
H 	H 	0.58290 0.40200 0.36990 0.02200
H 	H 	0.08290 0.09800 0.63010 0.02200
H 	H 	0.41710 0.90200 0.13010 0.02200
H 	H 	0.86990 0.91710 0.59800 0.02200
H 	H 	0.36990 0.58290 0.40200 0.02200
H 	H 	0.63010 0.08290 0.09800 0.02200
H 	H 	0.13010 0.41710 0.90200 0.02200
H 	H 	0.59800 0.86990 0.91710 0.02200
H 	H 	0.40200 0.36990 0.58290 0.02200
H 	H 	0.09800 0.63010 0.08290 0.02200
H 	H 	0.90200 0.13010 0.41710 0.02200
C 	C 	0.11613 0.27072 0.16593 0.28000
C 	C 	0.38387 0.72928 0.66593 0.28000
C 	C 	0.88387 0.77072 0.33407 0.28000
C 	C 	0.61613 0.22928 0.83407 0.28000
C 	C 	0.16593 0.11613 0.27072 0.28000
C 	C 	0.66593 0.38387 0.72928 0.28000
C 	C 	0.33407 0.88387 0.77072 0.28000
C 	C 	0.83407 0.61613 0.22928 0.28000
C 	C 	0.27072 0.16593 0.11613 0.28000
C 	C 	0.72928 0.66593 0.38387 0.28000
C 	C 	0.77072 0.33407 0.88387 0.28000
C 	C 	0.22928 0.83407 0.61613 0.28000
C 	C 	0.88387 0.72928 0.83407 0.28000
C 	C 	0.61613 0.27072 0.33407 0.28000
C 	C 	0.11613 0.22928 0.66593 0.28000
C 	C 	0.38387 0.77072 0.16593 0.28000
C 	C 	0.83407 0.88387 0.72928 0.28000
C 	C 	0.33407 0.61613 0.27072 0.28000
C 	C 	0.66593 0.11613 0.22928 0.28000
C 	C 	0.16593 0.38387 0.77072 0.28000
C 	C 	0.72928 0.83407 0.88387 0.28000
C 	C 	0.27072 0.33407 0.61613 0.28000
C 	C 	0.22928 0.66593 0.11613 0.28000
C 	C 	0.77072 0.16593 0.38387 0.28000
C 	C 	0.10317 0.33934 0.17816 0.11200
C 	C 	0.39683 0.66066 0.67816 0.11200
C 	C 	0.89683 0.83934 0.32184 0.11200
C 	C 	0.60317 0.16066 0.82184 0.11200
C 	C 	0.17816 0.10317 0.33934 0.11200
C 	C 	0.67816 0.39683 0.66066 0.11200
C 	C 	0.32184 0.89683 0.83934 0.11200
C 	C 	0.82184 0.60317 0.16066 0.11200
C 	C 	0.33934 0.17816 0.10317 0.11200
C 	C 	0.66066 0.67816 0.39683 0.11200
C 	C 	0.83934 0.32184 0.89683 0.11200
C 	C 	0.16066 0.82184 0.60317 0.11200
C 	C 	0.89683 0.66066 0.82184 0.11200
C 	C 	0.60317 0.33934 0.32184 0.11200
C 	C 	0.10317 0.16066 0.67816 0.11200
C 	C 	0.39683 0.83934 0.17816 0.11200
C 	C 	0.82184 0.89683 0.66066 0.11200
C 	C 	0.32184 0.60317 0.33934 0.11200
C 	C 	0.67816 0.10317 0.16066 0.11200
C 	C 	0.17816 0.39683 0.83934 0.11200
C 	C 	0.66066 0.82184 0.89683 0.11200
C 	C 	0.33934 0.32184 0.60317 0.11200
C 	C 	0.16066 0.67816 0.10317 0.11200
C 	C 	0.83934 0.17816 0.39683 0.11200
C 	C 	0.09114 0.31412 0.21663 0.11800
C 	C 	0.40886 0.68588 0.71663 0.11800
C 	C 	0.90886 0.81412 0.28337 0.11800
C 	C 	0.59114 0.18588 0.78337 0.11800
C 	C 	0.21663 0.09114 0.31412 0.11800
C 	C 	0.71663 0.40886 0.68588 0.11800
C 	C 	0.28337 0.90886 0.81412 0.11800
C 	C 	0.78337 0.59114 0.18588 0.11800
C 	C 	0.31412 0.21663 0.09114 0.11800
C 	C 	0.68588 0.71663 0.40886 0.11800
C 	C 	0.81412 0.28337 0.90886 0.11800
C 	C 	0.18588 0.78337 0.59114 0.11800
C 	C 	0.90886 0.68588 0.78337 0.11800
C 	C 	0.59114 0.31412 0.28337 0.11800
C 	C 	0.09114 0.18588 0.71663 0.11800
C 	C 	0.40886 0.81412 0.21663 0.11800
C 	C 	0.78337 0.90886 0.68588 0.11800
C 	C 	0.28337 0.59114 0.31412 0.11800
C 	C 	0.71663 0.09114 0.18588 0.11800
C 	C 	0.21663 0.40886 0.81412 0.11800
C 	C 	0.68588 0.78337 0.90886 0.11800
C 	C 	0.31412 0.28337 0.59114 0.11800
C 	C 	0.18588 0.71663 0.09114 0.11800
C 	C 	0.81412 0.21663 0.40886 0.11800
C 	C 	0.03558 0.34878 0.19360 0.26400
C 	C 	0.46442 0.65122 0.69360 0.26400
C 	C 	0.96442 0.84878 0.30640 0.26400
C 	C 	0.53558 0.15122 0.80640 0.26400
C 	C 	0.19360 0.03558 0.34878 0.26400
C 	C 	0.69360 0.46442 0.65122 0.26400
C 	C 	0.30640 0.96442 0.84878 0.26400
C 	C 	0.80640 0.53558 0.15122 0.26400
C 	C 	0.34878 0.19360 0.03558 0.26400
C 	C 	0.65122 0.69360 0.46442 0.26400
C 	C 	0.84878 0.30640 0.96442 0.26400
C 	C 	0.15122 0.80640 0.53558 0.26400
C 	C 	0.96442 0.65122 0.80640 0.26400
C 	C 	0.53558 0.34878 0.30640 0.26400
C 	C 	0.03558 0.15122 0.69360 0.26400
C 	C 	0.46442 0.84878 0.19360 0.26400
C 	C 	0.80640 0.96442 0.65122 0.26400
C 	C 	0.30640 0.53558 0.34878 0.26400
C 	C 	0.69360 0.03558 0.15122 0.26400
C 	C 	0.19360 0.46442 0.84878 0.26400
C 	C 	0.65122 0.80640 0.96442 0.26400
C 	C 	0.34878 0.30640 0.53558 0.26400
C 	C 	0.15122 0.69360 0.03558 0.26400
C 	C 	0.84878 0.19360 0.46442 0.26400
C 	C 	0.09652 0.23737 0.22879 0.03400
C 	C 	0.40348 0.76263 0.72879 0.03400
C 	C 	0.90348 0.73737 0.27121 0.03400
C 	C 	0.59652 0.26263 0.77121 0.03400
C 	C 	0.22879 0.09652 0.23737 0.03400
C 	C 	0.72879 0.40348 0.76263 0.03400
C 	C 	0.27121 0.90348 0.73737 0.03400
C 	C 	0.77121 0.59652 0.26263 0.03400
C 	C 	0.23737 0.22879 0.09652 0.03400
C 	C 	0.76263 0.72879 0.40348 0.03400
C 	C 	0.73737 0.27121 0.90348 0.03400
C 	C 	0.26263 0.77121 0.59652 0.03400
C 	C 	0.90348 0.76263 0.77121 0.03400
C 	C 	0.59652 0.23737 0.27121 0.03400
C 	C 	0.09652 0.26263 0.72879 0.03400
C 	C 	0.40348 0.73737 0.22879 0.03400
C 	C 	0.77121 0.90348 0.76263 0.03400
C 	C 	0.27121 0.59652 0.23737 0.03400
C 	C 	0.72879 0.09652 0.26263 0.03400
C 	C 	0.22879 0.40348 0.73737 0.03400
C 	C 	0.76263 0.77121 0.90348 0.03400
C 	C 	0.23737 0.27121 0.59652 0.03400
C 	C 	0.26263 0.72879 0.09652 0.03400
C 	C 	0.73737 0.22879 0.40348 0.03400
H 	H 	0.11580 0.21760 0.21960 0.05700
H 	H 	0.38420 0.78240 0.71960 0.05700
H 	H 	0.88420 0.71760 0.28040 0.05700
H 	H 	0.61580 0.28240 0.78040 0.05700
H 	H 	0.21960 0.11580 0.21760 0.05700
H 	H 	0.71960 0.38420 0.78240 0.05700
H 	H 	0.28040 0.88420 0.71760 0.05700
H 	H 	0.78040 0.61580 0.28240 0.05700
H 	H 	0.21760 0.21960 0.11580 0.05700
H 	H 	0.78240 0.71960 0.38420 0.05700
H 	H 	0.71760 0.28040 0.88420 0.05700
H 	H 	0.28240 0.78040 0.61580 0.05700
H 	H 	0.88420 0.78240 0.78040 0.05700
H 	H 	0.61580 0.21760 0.28040 0.05700
H 	H 	0.11580 0.28240 0.71960 0.05700
H 	H 	0.38420 0.71760 0.21960 0.05700
H 	H 	0.78040 0.88420 0.78240 0.05700
H 	H 	0.28040 0.61580 0.21760 0.05700
H 	H 	0.71960 0.11580 0.28240 0.05700
H 	H 	0.21960 0.38420 0.71760 0.05700
H 	H 	0.78240 0.78040 0.88420 0.05700
H 	H 	0.21760 0.28040 0.61580 0.05700
H 	H 	0.28240 0.71960 0.11580 0.05700
H 	H 	0.71760 0.21960 0.38420 0.05700
H 	H 	0.10360 0.24470 0.25600 0.03000
H 	H 	0.39640 0.75530 0.75600 0.03000
H 	H 	0.89640 0.74470 0.24400 0.03000
H 	H 	0.60360 0.25530 0.74400 0.03000
H 	H 	0.25600 0.10360 0.24470 0.03000
H 	H 	0.75600 0.39640 0.75530 0.03000
H 	H 	0.24400 0.89640 0.74470 0.03000
H 	H 	0.74400 0.60360 0.25530 0.03000
H 	H 	0.24470 0.25600 0.10360 0.03000
H 	H 	0.75530 0.75600 0.39640 0.03000
H 	H 	0.74470 0.24400 0.89640 0.03000
H 	H 	0.25530 0.74400 0.60360 0.03000
H 	H 	0.89640 0.75530 0.74400 0.03000
H 	H 	0.60360 0.24470 0.24400 0.03000
H 	H 	0.10360 0.25530 0.75600 0.03000
H 	H 	0.39640 0.74470 0.25600 0.03000
H 	H 	0.74400 0.89640 0.75530 0.03000
H 	H 	0.24400 0.60360 0.24470 0.03000
H 	H 	0.75600 0.10360 0.25530 0.03000
H 	H 	0.25600 0.39640 0.74470 0.03000
H 	H 	0.75530 0.74400 0.89640 0.03000
H 	H 	0.24470 0.24400 0.60360 0.03000
H 	H 	0.25530 0.75600 0.10360 0.03000
H 	H 	0.74470 0.25600 0.39640 0.03000
C 	C 	0.02457 0.30777 0.25342 0.04100
C 	C 	0.47543 0.69223 0.75342 0.04100
C 	C 	0.97543 0.80777 0.24658 0.04100
C 	C 	0.52457 0.19223 0.74658 0.04100
C 	C 	0.25342 0.02457 0.30777 0.04100
C 	C 	0.75342 0.47543 0.69223 0.04100
C 	C 	0.24658 0.97543 0.80777 0.04100
C 	C 	0.74658 0.52457 0.19223 0.04100
C 	C 	0.30777 0.25342 0.02457 0.04100
C 	C 	0.69223 0.75342 0.47543 0.04100
C 	C 	0.80777 0.24658 0.97543 0.04100
C 	C 	0.19223 0.74658 0.52457 0.04100
C 	C 	0.97543 0.69223 0.74658 0.04100
C 	C 	0.52457 0.30777 0.24658 0.04100
C 	C 	0.02457 0.19223 0.75342 0.04100
C 	C 	0.47543 0.80777 0.25342 0.04100
C 	C 	0.74658 0.97543 0.69223 0.04100
C 	C 	0.24658 0.52457 0.30777 0.04100
C 	C 	0.75342 0.02457 0.19223 0.04100
C 	C 	0.25342 0.47543 0.80777 0.04100
C 	C 	0.69223 0.74658 0.97543 0.04100
C 	C 	0.30777 0.24658 0.52457 0.04100
C 	C 	0.19223 0.75342 0.02457 0.04100
C 	C 	0.80777 0.25342 0.47543 0.04100
H 	H 	0.00340 0.32710 0.25830 0.04800
H 	H 	0.49660 0.67290 0.75830 0.04800
H 	H 	0.99660 0.82710 0.24170 0.04800
H 	H 	0.50340 0.17290 0.74170 0.04800
H 	H 	0.25830 0.00340 0.32710 0.04800
H 	H 	0.75830 0.49660 0.67290 0.04800
H 	H 	0.24170 0.99660 0.82710 0.04800
H 	H 	0.74170 0.50340 0.17290 0.04800
H 	H 	0.32710 0.25830 0.00340 0.04800
H 	H 	0.67290 0.75830 0.49660 0.04800
H 	H 	0.82710 0.24170 0.99660 0.04800
H 	H 	0.17290 0.74170 0.50340 0.04800
H 	H 	0.99660 0.67290 0.74170 0.04800
H 	H 	0.50340 0.32710 0.24170 0.04800
H 	H 	0.00340 0.17290 0.75830 0.04800
H 	H 	0.49660 0.82710 0.25830 0.04800
H 	H 	0.74170 0.99660 0.67290 0.04800
H 	H 	0.24170 0.50340 0.32710 0.04800
H 	H 	0.75830 0.00340 0.17290 0.04800
H 	H 	0.25830 0.49660 0.82710 0.04800
H 	H 	0.67290 0.74170 0.99660 0.04800
H 	H 	0.32710 0.24170 0.50340 0.04800
H 	H 	0.17290 0.75830 0.00340 0.04800
H 	H 	0.82710 0.25830 0.49660 0.04800
H 	H 	0.04070 0.30620 0.27760 0.03400
H 	H 	0.45930 0.69380 0.77760 0.03400
H 	H 	0.95930 0.80620 0.22240 0.03400
H 	H 	0.54070 0.19380 0.72240 0.03400
H 	H 	0.27760 0.04070 0.30620 0.03400
H 	H 	0.77760 0.45930 0.69380 0.03400
H 	H 	0.22240 0.95930 0.80620 0.03400
H 	H 	0.72240 0.54070 0.19380 0.03400
H 	H 	0.30620 0.27760 0.04070 0.03400
H 	H 	0.69380 0.77760 0.45930 0.03400
H 	H 	0.80620 0.22240 0.95930 0.03400
H 	H 	0.19380 0.72240 0.54070 0.03400
H 	H 	0.95930 0.69380 0.72240 0.03400
H 	H 	0.54070 0.30620 0.22240 0.03400
H 	H 	0.04070 0.19380 0.77760 0.03400
H 	H 	0.45930 0.80620 0.27760 0.03400
H 	H 	0.72240 0.95930 0.69380 0.03400
H 	H 	0.22240 0.54070 0.30620 0.03400
H 	H 	0.77760 0.04070 0.19380 0.03400
H 	H 	0.27760 0.45930 0.80620 0.03400
H 	H 	0.69380 0.72240 0.95930 0.03400
H 	H 	0.30620 0.22240 0.54070 0.03400
H 	H 	0.19380 0.77760 0.04070 0.03400
H 	H 	0.80620 0.27760 0.45930 0.03400
C 	C 	0.03857 0.22761 0.29990 -0.15800
C 	C 	0.46143 0.77239 0.79990 -0.15800
C 	C 	0.96143 0.72761 0.20010 -0.15800
C 	C 	0.53857 0.27239 0.70010 -0.15800
C 	C 	0.29990 0.03857 0.22761 -0.15800
C 	C 	0.79990 0.46143 0.77239 -0.15800
C 	C 	0.20010 0.96143 0.72761 -0.15800
C 	C 	0.70010 0.53857 0.27239 -0.15800
C 	C 	0.22761 0.29990 0.03857 -0.15800
C 	C 	0.77239 0.79990 0.46143 -0.15800
C 	C 	0.72761 0.20010 0.96143 -0.15800
C 	C 	0.27239 0.70010 0.53857 -0.15800
C 	C 	0.96143 0.77239 0.70010 -0.15800
C 	C 	0.53857 0.22761 0.20010 -0.15800
C 	C 	0.03857 0.27239 0.79990 -0.15800
C 	C 	0.46143 0.72761 0.29990 -0.15800
C 	C 	0.70010 0.96143 0.77239 -0.15800
C 	C 	0.20010 0.53857 0.22761 -0.15800
C 	C 	0.79990 0.03857 0.27239 -0.15800
C 	C 	0.29990 0.46143 0.72761 -0.15800
C 	C 	0.77239 0.70010 0.96143 -0.15800
C 	C 	0.22761 0.20010 0.53857 -0.15800
C 	C 	0.27239 0.79990 0.03857 -0.15800
C 	C 	0.72761 0.29990 0.46143 -0.15800
H 	H 	0.05670 0.24960 0.30560 0.09400
H 	H 	0.44330 0.75040 0.80560 0.09400
H 	H 	0.94330 0.74960 0.19440 0.09400
H 	H 	0.55670 0.25040 0.69440 0.09400
H 	H 	0.30560 0.05670 0.24960 0.09400
H 	H 	0.80560 0.44330 0.75040 0.09400
H 	H 	0.19440 0.94330 0.74960 0.09400
H 	H 	0.69440 0.55670 0.25040 0.09400
H 	H 	0.24960 0.30560 0.05670 0.09400
H 	H 	0.75040 0.80560 0.44330 0.09400
H 	H 	0.74960 0.19440 0.94330 0.09400
H 	H 	0.25040 0.69440 0.55670 0.09400
H 	H 	0.94330 0.75040 0.69440 0.09400
H 	H 	0.55670 0.24960 0.19440 0.09400
H 	H 	0.05670 0.25040 0.80560 0.09400
H 	H 	0.44330 0.74960 0.30560 0.09400
H 	H 	0.69440 0.94330 0.75040 0.09400
H 	H 	0.19440 0.55670 0.24960 0.09400
H 	H 	0.80560 0.05670 0.25040 0.09400
H 	H 	0.30560 0.44330 0.74960 0.09400
H 	H 	0.75040 0.69440 0.94330 0.09400
H 	H 	0.24960 0.19440 0.55670 0.09400
H 	H 	0.25040 0.80560 0.05670 0.09400
H 	H 	0.74960 0.30560 0.44330 0.09400
H 	H 	0.05320 0.20280 0.30400 0.08800
H 	H 	0.44680 0.79720 0.80400 0.08800
H 	H 	0.94680 0.70280 0.19600 0.08800
H 	H 	0.55320 0.29720 0.69600 0.08800
H 	H 	0.30400 0.05320 0.20280 0.08800
H 	H 	0.80400 0.44680 0.79720 0.08800
H 	H 	0.19600 0.94680 0.70280 0.08800
H 	H 	0.69600 0.55320 0.29720 0.08800
H 	H 	0.20280 0.30400 0.05320 0.08800
H 	H 	0.79720 0.80400 0.44680 0.08800
H 	H 	0.70280 0.19600 0.94680 0.08800
H 	H 	0.29720 0.69600 0.55320 0.08800
H 	H 	0.94680 0.79720 0.69600 0.08800
H 	H 	0.55320 0.20280 0.19600 0.08800
H 	H 	0.05320 0.29720 0.80400 0.08800
H 	H 	0.44680 0.70280 0.30400 0.08800
H 	H 	0.69600 0.94680 0.79720 0.08800
H 	H 	0.19600 0.55320 0.20280 0.08800
H 	H 	0.80400 0.05320 0.29720 0.08800
H 	H 	0.30400 0.44680 0.70280 0.08800
H 	H 	0.79720 0.69600 0.94680 0.08800
H 	H 	0.20280 0.19600 0.55320 0.08800
H 	H 	0.29720 0.80400 0.05320 0.08800
H 	H 	0.70280 0.30400 0.44680 0.08800
C 	C 	0.00254 0.22925 0.32965 -0.10900
C 	C 	0.49746 0.77075 0.82965 -0.10900
C 	C 	0.99746 0.72925 0.17035 -0.10900
C 	C 	0.50254 0.27075 0.67035 -0.10900
C 	C 	0.32965 0.00254 0.22925 -0.10900
C 	C 	0.82965 0.49746 0.77075 -0.10900
C 	C 	0.17035 0.99746 0.72925 -0.10900
C 	C 	0.67035 0.50254 0.27075 -0.10900
C 	C 	0.22925 0.32965 0.00254 -0.10900
C 	C 	0.77075 0.82965 0.49746 -0.10900
C 	C 	0.72925 0.17035 0.99746 -0.10900
C 	C 	0.27075 0.67035 0.50254 -0.10900
C 	C 	0.99746 0.77075 0.67035 -0.10900
C 	C 	0.50254 0.22925 0.17035 -0.10900
C 	C 	0.00254 0.27075 0.82965 -0.10900
C 	C 	0.49746 0.72925 0.32965 -0.10900
C 	C 	0.67035 0.99746 0.77075 -0.10900
C 	C 	0.17035 0.50254 0.22925 -0.10900
C 	C 	0.82965 0.00254 0.27075 -0.10900
C 	C 	0.32965 0.49746 0.72925 -0.10900
C 	C 	0.77075 0.67035 0.99746 -0.10900
C 	C 	0.22925 0.17035 0.50254 -0.10900
C 	C 	0.27075 0.82965 0.00254 -0.10900
C 	C 	0.72925 0.32965 0.49746 -0.10900
H 	H 	0.01190 0.22250 0.35640 0.07300
H 	H 	0.48810 0.77750 0.85640 0.07300
H 	H 	0.98810 0.72250 0.14360 0.07300
H 	H 	0.51190 0.27750 0.64360 0.07300
H 	H 	0.35640 0.01190 0.22250 0.07300
H 	H 	0.85640 0.48810 0.77750 0.07300
H 	H 	0.14360 0.98810 0.72250 0.07300
H 	H 	0.64360 0.51190 0.27750 0.07300
H 	H 	0.22250 0.35640 0.01190 0.07300
H 	H 	0.77750 0.85640 0.48810 0.07300
H 	H 	0.72250 0.14360 0.98810 0.07300
H 	H 	0.27750 0.64360 0.51190 0.07300
H 	H 	0.98810 0.77750 0.64360 0.07300
H 	H 	0.51190 0.22250 0.14360 0.07300
H 	H 	0.01190 0.27750 0.85640 0.07300
H 	H 	0.48810 0.72250 0.35640 0.07300
H 	H 	0.64360 0.98810 0.77750 0.07300
H 	H 	0.14360 0.51190 0.22250 0.07300
H 	H 	0.85640 0.01190 0.27750 0.07300
H 	H 	0.35640 0.48810 0.72250 0.07300
H 	H 	0.77750 0.64360 0.98810 0.07300
H 	H 	0.22250 0.14360 0.51190 0.07300
H 	H 	0.27750 0.85640 0.01190 0.07300
H 	H 	0.72250 0.35640 0.48810 0.07300
H 	H 	0.99210 0.25640 0.33050 0.08500
H 	H 	0.50790 0.74360 0.83050 0.08500
H 	H 	0.00790 0.75640 0.16950 0.08500
H 	H 	0.49210 0.24360 0.66950 0.08500
H 	H 	0.33050 0.99210 0.25640 0.08500
H 	H 	0.83050 0.50790 0.74360 0.08500
H 	H 	0.16950 0.00790 0.75640 0.08500
H 	H 	0.66950 0.49210 0.24360 0.08500
H 	H 	0.25640 0.33050 0.99210 0.08500
H 	H 	0.74360 0.83050 0.50790 0.08500
H 	H 	0.75640 0.16950 0.00790 0.08500
H 	H 	0.24360 0.66950 0.49210 0.08500
H 	H 	0.00790 0.74360 0.66950 0.08500
H 	H 	0.49210 0.25640 0.16950 0.08500
H 	H 	0.99210 0.24360 0.83050 0.08500
H 	H 	0.50790 0.75640 0.33050 0.08500
H 	H 	0.66950 0.00790 0.74360 0.08500
H 	H 	0.16950 0.49210 0.25640 0.08500
H 	H 	0.83050 0.99210 0.24360 0.08500
H 	H 	0.33050 0.50790 0.75640 0.08500
H 	H 	0.74360 0.66950 0.00790 0.08500
H 	H 	0.25640 0.16950 0.49210 0.08500
H 	H 	0.24360 0.83050 0.99210 0.08500
H 	H 	0.75640 0.33050 0.50790 0.08500
C 	C 	0.96828 0.20001 0.31765 -0.00800
C 	C 	0.53172 0.79999 0.81765 -0.00700
C 	C 	0.03172 0.70001 0.18235 -0.00700
C 	C 	0.46828 0.29999 0.68235 -0.00700
C 	C 	0.31765 0.96828 0.20001 -0.00800
C 	C 	0.81765 0.53172 0.79999 -0.00700
C 	C 	0.18235 0.03172 0.70001 -0.00700
C 	C 	0.68235 0.46828 0.29999 -0.00700
C 	C 	0.20001 0.31765 0.96828 -0.00800
C 	C 	0.79999 0.81765 0.53172 -0.00700
C 	C 	0.70001 0.18235 0.03172 -0.00700
C 	C 	0.29999 0.68235 0.46828 -0.00700
C 	C 	0.03172 0.79999 0.68235 -0.00800
C 	C 	0.46828 0.20001 0.18235 -0.00700
C 	C 	0.96828 0.29999 0.81765 -0.00700
C 	C 	0.53172 0.70001 0.31765 -0.00700
C 	C 	0.68235 0.03172 0.79999 -0.00800
C 	C 	0.18235 0.46828 0.20001 -0.00700
C 	C 	0.81765 0.96828 0.29999 -0.00700
C 	C 	0.31765 0.53172 0.70001 -0.00700
C 	C 	0.79999 0.68235 0.03172 -0.00800
C 	C 	0.20001 0.18235 0.46828 -0.00700
C 	C 	0.29999 0.81765 0.96828 -0.00700
C 	C 	0.70001 0.31765 0.53172 -0.00700
H 	H 	0.96240 0.18270 0.34030 0.02500
H 	H 	0.53760 0.81730 0.84030 0.02500
H 	H 	0.03760 0.68270 0.15970 0.02500
H 	H 	0.46240 0.31730 0.65970 0.02500
H 	H 	0.34030 0.96240 0.18270 0.02500
H 	H 	0.84030 0.53760 0.81730 0.02500
H 	H 	0.15970 0.03760 0.68270 0.02500
H 	H 	0.65970 0.46240 0.31730 0.02500
H 	H 	0.18270 0.34030 0.96240 0.02500
H 	H 	0.81730 0.84030 0.53760 0.02500
H 	H 	0.68270 0.15970 0.03760 0.02500
H 	H 	0.31730 0.65970 0.46240 0.02500
H 	H 	0.03760 0.81730 0.65970 0.02500
H 	H 	0.46240 0.18270 0.15970 0.02500
H 	H 	0.96240 0.31730 0.84030 0.02500
H 	H 	0.53760 0.68270 0.34030 0.02500
H 	H 	0.65970 0.03760 0.81730 0.02500
H 	H 	0.15970 0.46240 0.18270 0.02500
H 	H 	0.84030 0.96240 0.31730 0.02500
H 	H 	0.34030 0.53760 0.68270 0.02500
H 	H 	0.81730 0.65970 0.03760 0.02500
H 	H 	0.18270 0.15970 0.46240 0.02500
H 	H 	0.31730 0.84030 0.96240 0.02500
H 	H 	0.68270 0.34030 0.53760 0.02500
H 	H 	0.94430 0.21550 0.31190 0.03600
H 	H 	0.55570 0.78450 0.81190 0.03600
H 	H 	0.05570 0.71550 0.18810 0.03600
H 	H 	0.44430 0.28450 0.68810 0.03600
H 	H 	0.31190 0.94430 0.21550 0.03600
H 	H 	0.81190 0.55570 0.78450 0.03600
H 	H 	0.18810 0.05570 0.71550 0.03600
H 	H 	0.68810 0.44430 0.28450 0.03600
H 	H 	0.21550 0.31190 0.94430 0.03600
H 	H 	0.78450 0.81190 0.55570 0.03600
H 	H 	0.71550 0.18810 0.05570 0.03600
H 	H 	0.28450 0.68810 0.44430 0.03600
H 	H 	0.05570 0.78450 0.68810 0.03600
H 	H 	0.44430 0.21550 0.18810 0.03600
H 	H 	0.94430 0.28450 0.81190 0.03600
H 	H 	0.55570 0.71550 0.31190 0.03600
H 	H 	0.68810 0.05570 0.78450 0.03600
H 	H 	0.18810 0.44430 0.21550 0.03600
H 	H 	0.81190 0.94430 0.28450 0.03600
H 	H 	0.31190 0.55570 0.71550 0.03600
H 	H 	0.78450 0.68810 0.05570 0.03600
H 	H 	0.21550 0.18810 0.44430 0.03600
H 	H 	0.28450 0.81190 0.94430 0.03600
H 	H 	0.71550 0.31190 0.55570 0.03600
C 	C 	0.97821 0.17420 0.28153 -0.22700
C 	C 	0.52179 0.82580 0.78153 -0.22800
C 	C 	0.02179 0.67420 0.21847 -0.22800
C 	C 	0.47821 0.32580 0.71847 -0.22800
C 	C 	0.28153 0.97821 0.17420 -0.22700
C 	C 	0.78153 0.52179 0.82580 -0.22800
C 	C 	0.21847 0.02179 0.67420 -0.22800
C 	C 	0.71847 0.47821 0.32580 -0.22800
C 	C 	0.17420 0.28153 0.97821 -0.22700
C 	C 	0.82580 0.78153 0.52179 -0.22800
C 	C 	0.67420 0.21847 0.02179 -0.22800
C 	C 	0.32580 0.71847 0.47821 -0.22800
C 	C 	0.02179 0.82580 0.71847 -0.22700
C 	C 	0.47821 0.17420 0.21847 -0.22800
C 	C 	0.97821 0.32580 0.78153 -0.22800
C 	C 	0.52179 0.67420 0.28153 -0.22800
C 	C 	0.71847 0.02179 0.82580 -0.22700
C 	C 	0.21847 0.47821 0.17420 -0.22800
C 	C 	0.78153 0.97821 0.32580 -0.22800
C 	C 	0.28153 0.52179 0.67420 -0.22800
C 	C 	0.82580 0.71847 0.02179 -0.22700
C 	C 	0.17420 0.21847 0.47821 -0.22800
C 	C 	0.32580 0.78153 0.97821 -0.22800
C 	C 	0.67420 0.28153 0.52179 -0.22800
H 	H 	0.95480 0.15850 0.27420 0.12500
H 	H 	0.54520 0.84150 0.77420 0.12500
H 	H 	0.04520 0.65850 0.22580 0.12500
H 	H 	0.45480 0.34150 0.72580 0.12500
H 	H 	0.27420 0.95480 0.15850 0.12500
H 	H 	0.77420 0.54520 0.84150 0.12500
H 	H 	0.22580 0.04520 0.65850 0.12500
H 	H 	0.72580 0.45480 0.34150 0.12500
H 	H 	0.15850 0.27420 0.95480 0.12500
H 	H 	0.84150 0.77420 0.54520 0.12500
H 	H 	0.65850 0.22580 0.04520 0.12500
H 	H 	0.34150 0.72580 0.45480 0.12500
H 	H 	0.04520 0.84150 0.72580 0.12500
H 	H 	0.45480 0.15850 0.22580 0.12500
H 	H 	0.95480 0.34150 0.77420 0.12500
H 	H 	0.54520 0.65850 0.27420 0.12500
H 	H 	0.72580 0.04520 0.84150 0.12500
H 	H 	0.22580 0.45480 0.15850 0.12500
H 	H 	0.77420 0.95480 0.34150 0.12500
H 	H 	0.27420 0.54520 0.65850 0.12500
H 	H 	0.84150 0.72580 0.04520 0.12500
H 	H 	0.15850 0.22580 0.45480 0.12500
H 	H 	0.34150 0.77420 0.95480 0.12500
H 	H 	0.65850 0.27420 0.54520 0.12500
H 	H 	0.99960 0.15570 0.28850 0.11100
H 	H 	0.50040 0.84430 0.78850 0.11100
H 	H 	0.00040 0.65570 0.21150 0.11100
H 	H 	0.49960 0.34430 0.71150 0.11100
H 	H 	0.28850 0.99960 0.15570 0.11100
H 	H 	0.78850 0.50040 0.84430 0.11100
H 	H 	0.21150 0.00040 0.65570 0.11100
H 	H 	0.71150 0.49960 0.34430 0.11100
H 	H 	0.15570 0.28850 0.99960 0.11100
H 	H 	0.84430 0.78850 0.50040 0.11100
H 	H 	0.65570 0.21150 0.00040 0.11100
H 	H 	0.34430 0.71150 0.49960 0.11100
H 	H 	0.00040 0.84430 0.71150 0.11100
H 	H 	0.49960 0.15570 0.21150 0.11100
H 	H 	0.99960 0.34430 0.78850 0.11100
H 	H 	0.50040 0.65570 0.28850 0.11100
H 	H 	0.71150 0.00040 0.84430 0.11100
H 	H 	0.21150 0.49960 0.15570 0.11100
H 	H 	0.78850 0.99960 0.34430 0.11100
H 	H 	0.28850 0.50040 0.65570 0.11100
H 	H 	0.84430 0.71150 0.00040 0.11100
H 	H 	0.15570 0.21150 0.49960 0.11100
H 	H 	0.34430 0.78850 0.99960 0.11100
H 	H 	0.65570 0.28850 0.50040 0.11100
C 	C 	0.91654 0.21301 0.98421 -0.20100
C 	C 	0.58346 0.78699 0.48421 -0.20100
C 	C 	0.08346 0.71301 0.51579 -0.20100
C 	C 	0.41654 0.28699 0.01579 -0.20100
C 	C 	0.98421 0.91654 0.21301 -0.20100
C 	C 	0.48421 0.58346 0.78699 -0.20100
C 	C 	0.51579 0.08346 0.71301 -0.20100
C 	C 	0.01579 0.41654 0.28699 -0.20100
C 	C 	0.21301 0.98421 0.91654 -0.20100
C 	C 	0.78699 0.48421 0.58346 -0.20100
C 	C 	0.71301 0.51579 0.08346 -0.20100
C 	C 	0.28699 0.01579 0.41654 -0.20100
C 	C 	0.08346 0.78699 0.01579 -0.20100
C 	C 	0.41654 0.21301 0.51579 -0.20100
C 	C 	0.91654 0.28699 0.48421 -0.20100
C 	C 	0.58346 0.71301 0.98421 -0.20100
C 	C 	0.01579 0.08346 0.78699 -0.20100
C 	C 	0.51579 0.41654 0.21301 -0.20100
C 	C 	0.48421 0.91654 0.28699 -0.20100
C 	C 	0.98421 0.58346 0.71301 -0.20100
C 	C 	0.78699 0.01579 0.08346 -0.20100
C 	C 	0.21301 0.51579 0.41654 -0.20100
C 	C 	0.28699 0.48421 0.91654 -0.20100
C 	C 	0.71301 0.98421 0.58346 -0.20100
H 	H 	0.89690 0.23320 0.97690 0.10200
H 	H 	0.60310 0.76680 0.47690 0.10200
H 	H 	0.10310 0.73320 0.52310 0.10200
H 	H 	0.39690 0.26680 0.02310 0.10200
H 	H 	0.97690 0.89690 0.23320 0.10200
H 	H 	0.47690 0.60310 0.76680 0.10200
H 	H 	0.52310 0.10310 0.73320 0.10200
H 	H 	0.02310 0.39690 0.26680 0.10200
H 	H 	0.23320 0.97690 0.89690 0.10200
H 	H 	0.76680 0.47690 0.60310 0.10200
H 	H 	0.73320 0.52310 0.10310 0.10200
H 	H 	0.26680 0.02310 0.39690 0.10200
H 	H 	0.10310 0.76680 0.02310 0.10200
H 	H 	0.39690 0.23320 0.52310 0.10200
H 	H 	0.89690 0.26680 0.47690 0.10200
H 	H 	0.60310 0.73320 0.97690 0.10200
H 	H 	0.02310 0.10310 0.76680 0.10200
H 	H 	0.52310 0.39690 0.23320 0.10200
H 	H 	0.47690 0.89690 0.26680 0.10200
H 	H 	0.97690 0.60310 0.73320 0.10200
H 	H 	0.76680 0.02310 0.10310 0.10200
H 	H 	0.23320 0.52310 0.39690 0.10200
H 	H 	0.26680 0.47690 0.89690 0.10200
H 	H 	0.73320 0.97690 0.60310 0.10200
H 	H 	0.90230 0.18990 0.99470 0.12100
H 	H 	0.59770 0.81010 0.49470 0.12100
H 	H 	0.09770 0.68990 0.50530 0.12100
H 	H 	0.40230 0.31010 0.00530 0.12100
H 	H 	0.99470 0.90230 0.18990 0.12100
H 	H 	0.49470 0.59770 0.81010 0.12100
H 	H 	0.50530 0.09770 0.68990 0.12100
H 	H 	0.00530 0.40230 0.31010 0.12100
H 	H 	0.18990 0.99470 0.90230 0.12100
H 	H 	0.81010 0.49470 0.59770 0.12100
H 	H 	0.68990 0.50530 0.09770 0.12100
H 	H 	0.31010 0.00530 0.40230 0.12100
H 	H 	0.09770 0.81010 0.00530 0.12100
H 	H 	0.40230 0.18990 0.50530 0.12100
H 	H 	0.90230 0.31010 0.49470 0.12100
H 	H 	0.59770 0.68990 0.99470 0.12100
H 	H 	0.00530 0.09770 0.81010 0.12100
H 	H 	0.50530 0.40230 0.18990 0.12100
H 	H 	0.49470 0.90230 0.31010 0.12100
H 	H 	0.99470 0.59770 0.68990 0.12100
H 	H 	0.81010 0.00530 0.09770 0.12100
H 	H 	0.18990 0.50530 0.40230 0.12100
H 	H 	0.31010 0.49470 0.90230 0.12100
H 	H 	0.68990 0.99470 0.59770 0.12100
C 	C 	0.94085 0.20054 0.94655 -0.06100
C 	C 	0.55915 0.79946 0.44655 -0.06100
C 	C 	0.05915 0.70054 0.55345 -0.06100
C 	C 	0.44085 0.29946 0.05345 -0.06100
C 	C 	0.94655 0.94085 0.20054 -0.06100
C 	C 	0.44655 0.55915 0.79946 -0.06100
C 	C 	0.55345 0.05915 0.70054 -0.06100
C 	C 	0.05345 0.44085 0.29946 -0.06100
C 	C 	0.20054 0.94655 0.94085 -0.06100
C 	C 	0.79946 0.44655 0.55915 -0.06100
C 	C 	0.70054 0.55345 0.05915 -0.06100
C 	C 	0.29946 0.05345 0.44085 -0.06100
C 	C 	0.05915 0.79946 0.05345 -0.06100
C 	C 	0.44085 0.20054 0.55345 -0.06100
C 	C 	0.94085 0.29946 0.44655 -0.06100
C 	C 	0.55915 0.70054 0.94655 -0.06100
C 	C 	0.05345 0.05915 0.79946 -0.06100
C 	C 	0.55345 0.44085 0.20054 -0.06100
C 	C 	0.44655 0.94085 0.29946 -0.06100
C 	C 	0.94655 0.55915 0.70054 -0.06100
C 	C 	0.79946 0.05345 0.05915 -0.06100
C 	C 	0.20054 0.55345 0.44085 -0.06100
C 	C 	0.29946 0.44655 0.94085 -0.06100
C 	C 	0.70054 0.94655 0.55915 -0.06100
H 	H 	0.92250 0.19220 0.92560 0.06700
H 	H 	0.57750 0.80780 0.42560 0.06700
H 	H 	0.07750 0.69220 0.57440 0.06700
H 	H 	0.42250 0.30780 0.07440 0.06700
H 	H 	0.92560 0.92250 0.19220 0.06700
H 	H 	0.42560 0.57750 0.80780 0.06700
H 	H 	0.57440 0.07750 0.69220 0.06700
H 	H 	0.07440 0.42250 0.30780 0.06700
H 	H 	0.19220 0.92560 0.92250 0.06700
H 	H 	0.80780 0.42560 0.57750 0.06700
H 	H 	0.69220 0.57440 0.07750 0.06700
H 	H 	0.30780 0.07440 0.42250 0.06700
H 	H 	0.07750 0.80780 0.07440 0.06700
H 	H 	0.42250 0.19220 0.57440 0.06700
H 	H 	0.92250 0.30780 0.42560 0.06700
H 	H 	0.57750 0.69220 0.92560 0.06700
H 	H 	0.07440 0.07750 0.80780 0.06700
H 	H 	0.57440 0.42250 0.19220 0.06700
H 	H 	0.42560 0.92250 0.30780 0.06700
H 	H 	0.92560 0.57750 0.69220 0.06700
H 	H 	0.80780 0.07440 0.07750 0.06700
H 	H 	0.19220 0.57440 0.42250 0.06700
H 	H 	0.30780 0.42560 0.92250 0.06700
H 	H 	0.69220 0.92560 0.57750 0.06700
H 	H 	0.95780 0.17780 0.95320 0.07400
H 	H 	0.54220 0.82220 0.45320 0.07400
H 	H 	0.04220 0.67780 0.54680 0.07400
H 	H 	0.45780 0.32220 0.04680 0.07400
H 	H 	0.95320 0.95780 0.17780 0.07400
H 	H 	0.45320 0.54220 0.82220 0.07400
H 	H 	0.54680 0.04220 0.67780 0.07400
H 	H 	0.04680 0.45780 0.32220 0.07400
H 	H 	0.17780 0.95320 0.95780 0.07400
H 	H 	0.82220 0.45320 0.54220 0.07400
H 	H 	0.67780 0.54680 0.04220 0.07400
H 	H 	0.32220 0.04680 0.45780 0.07400
H 	H 	0.04220 0.82220 0.04680 0.07400
H 	H 	0.45780 0.17780 0.54680 0.07400
H 	H 	0.95780 0.32220 0.45320 0.07400
H 	H 	0.54220 0.67780 0.95320 0.07400
H 	H 	0.04680 0.04220 0.82220 0.07400
H 	H 	0.54680 0.45780 0.17780 0.07400
H 	H 	0.45320 0.95780 0.32220 0.07400
H 	H 	0.95320 0.54220 0.67780 0.07400
H 	H 	0.82220 0.04680 0.04220 0.07400
H 	H 	0.17780 0.54680 0.45780 0.07400
H 	H 	0.32220 0.45320 0.95780 0.07400
H 	H 	0.67780 0.95320 0.54220 0.07400
C 	C 	0.96780 0.23580 0.93051 -0.06300
C 	C 	0.53220 0.76420 0.43051 -0.06300
C 	C 	0.03220 0.73580 0.56949 -0.06300
C 	C 	0.46780 0.26420 0.06949 -0.06300
C 	C 	0.93051 0.96780 0.23580 -0.06300
C 	C 	0.43051 0.53220 0.76420 -0.06300
C 	C 	0.56949 0.03220 0.73580 -0.06300
C 	C 	0.06949 0.46780 0.26420 -0.06300
C 	C 	0.23580 0.93051 0.96780 -0.06300
C 	C 	0.76420 0.43051 0.53220 -0.06300
C 	C 	0.73580 0.56949 0.03220 -0.06300
C 	C 	0.26420 0.06949 0.46780 -0.06300
C 	C 	0.03220 0.76420 0.06949 -0.06300
C 	C 	0.46780 0.23580 0.56949 -0.06300
C 	C 	0.96780 0.26420 0.43051 -0.06300
C 	C 	0.53220 0.73580 0.93051 -0.06300
C 	C 	0.06949 0.03220 0.76420 -0.06300
C 	C 	0.56949 0.46780 0.23580 -0.06300
C 	C 	0.43051 0.96780 0.26420 -0.06300
C 	C 	0.93051 0.53220 0.73580 -0.06300
C 	C 	0.76420 0.06949 0.03220 -0.06300
C 	C 	0.23580 0.56949 0.46780 -0.06300
C 	C 	0.26420 0.43051 0.96780 -0.06300
C 	C 	0.73580 0.93051 0.53220 -0.06300
H 	H 	0.99560 0.22720 0.93010 0.07300
H 	H 	0.50440 0.77280 0.43010 0.07300
H 	H 	0.00440 0.72720 0.56990 0.07300
H 	H 	0.49560 0.27280 0.06990 0.07300
H 	H 	0.93010 0.99560 0.22720 0.07300
H 	H 	0.43010 0.50440 0.77280 0.07300
H 	H 	0.56990 0.00440 0.72720 0.07300
H 	H 	0.06990 0.49560 0.27280 0.07300
H 	H 	0.22720 0.93010 0.99560 0.07300
H 	H 	0.77280 0.43010 0.50440 0.07300
H 	H 	0.72720 0.56990 0.00440 0.07300
H 	H 	0.27280 0.06990 0.49560 0.07300
H 	H 	0.00440 0.77280 0.06990 0.07300
H 	H 	0.49560 0.22720 0.56990 0.07300
H 	H 	0.99560 0.27280 0.43010 0.07300
H 	H 	0.50440 0.72720 0.93010 0.07300
H 	H 	0.06990 0.00440 0.77280 0.07300
H 	H 	0.56990 0.49560 0.22720 0.07300
H 	H 	0.43010 0.99560 0.27280 0.07300
H 	H 	0.93010 0.50440 0.72720 0.07300
H 	H 	0.77280 0.06990 0.00440 0.07300
H 	H 	0.22720 0.56990 0.49560 0.07300
H 	H 	0.27280 0.43010 0.99560 0.07300
H 	H 	0.72720 0.93010 0.50440 0.07300
H 	H 	0.96000 0.24210 0.90320 0.05400
H 	H 	0.54000 0.75790 0.40320 0.05400
H 	H 	0.04000 0.74210 0.59680 0.05400
H 	H 	0.46000 0.25790 0.09680 0.05400
H 	H 	0.90320 0.96000 0.24210 0.05400
H 	H 	0.40320 0.54000 0.75790 0.05400
H 	H 	0.59680 0.04000 0.74210 0.05400
H 	H 	0.09680 0.46000 0.25790 0.05400
H 	H 	0.24210 0.90320 0.96000 0.05400
H 	H 	0.75790 0.40320 0.54000 0.05400
H 	H 	0.74210 0.59680 0.04000 0.05400
H 	H 	0.25790 0.09680 0.46000 0.05400
H 	H 	0.04000 0.75790 0.09680 0.05400
H 	H 	0.46000 0.24210 0.59680 0.05400
H 	H 	0.96000 0.25790 0.40320 0.05400
H 	H 	0.54000 0.74210 0.90320 0.05400
H 	H 	0.09680 0.04000 0.75790 0.05400
H 	H 	0.59680 0.46000 0.24210 0.05400
H 	H 	0.40320 0.96000 0.25790 0.05400
H 	H 	0.90320 0.54000 0.74210 0.05400
H 	H 	0.75790 0.09680 0.04000 0.05400
H 	H 	0.24210 0.59680 0.46000 0.05400
H 	H 	0.25790 0.40320 0.96000 0.05400
H 	H 	0.74210 0.90320 0.54000 0.05400
C 	C 	0.96413 0.27305 0.95590 -0.17800
C 	C 	0.53587 0.72695 0.45590 -0.17900
C 	C 	0.03587 0.77305 0.54410 -0.17900
C 	C 	0.46413 0.22695 0.04410 -0.17800
C 	C 	0.95590 0.96413 0.27305 -0.17800
C 	C 	0.45590 0.53587 0.72695 -0.17900
C 	C 	0.54410 0.03587 0.77305 -0.17900
C 	C 	0.04410 0.46413 0.22695 -0.17800
C 	C 	0.27305 0.95590 0.96413 -0.17800
C 	C 	0.72695 0.45590 0.53587 -0.17900
C 	C 	0.77305 0.54410 0.03587 -0.17900
C 	C 	0.22695 0.04410 0.46413 -0.17800
C 	C 	0.03587 0.72695 0.04410 -0.17800
C 	C 	0.46413 0.27305 0.54410 -0.17900
C 	C 	0.96413 0.22695 0.45590 -0.17900
C 	C 	0.53587 0.77305 0.95590 -0.17800
C 	C 	0.04410 0.03587 0.72695 -0.17800
C 	C 	0.54410 0.46413 0.27305 -0.17900
C 	C 	0.45590 0.96413 0.22695 -0.17900
C 	C 	0.95590 0.53587 0.77305 -0.17800
C 	C 	0.72695 0.04410 0.03587 -0.17800
C 	C 	0.27305 0.54410 0.46413 -0.17900
C 	C 	0.22695 0.45590 0.96413 -0.17900
C 	C 	0.77305 0.95590 0.53587 -0.17800
H 	H 	0.93730 0.28400 0.95310 0.08700
H 	H 	0.56270 0.71600 0.45310 0.08700
H 	H 	0.06270 0.78400 0.54690 0.08700
H 	H 	0.43730 0.21600 0.04690 0.08700
H 	H 	0.95310 0.93730 0.28400 0.08700
H 	H 	0.45310 0.56270 0.71600 0.08700
H 	H 	0.54690 0.06270 0.78400 0.08700
H 	H 	0.04690 0.43730 0.21600 0.08700
H 	H 	0.28400 0.95310 0.93730 0.08700
H 	H 	0.71600 0.45310 0.56270 0.08700
H 	H 	0.78400 0.54690 0.06270 0.08700
H 	H 	0.21600 0.04690 0.43730 0.08700
H 	H 	0.06270 0.71600 0.04690 0.08700
H 	H 	0.43730 0.28400 0.54690 0.08700
H 	H 	0.93730 0.21600 0.45310 0.08700
H 	H 	0.56270 0.78400 0.95310 0.08700
H 	H 	0.04690 0.06270 0.71600 0.08700
H 	H 	0.54690 0.43730 0.28400 0.08700
H 	H 	0.45310 0.93730 0.21600 0.08700
H 	H 	0.95310 0.56270 0.78400 0.08700
H 	H 	0.71600 0.04690 0.06270 0.08700
H 	H 	0.28400 0.54690 0.43730 0.08700
H 	H 	0.21600 0.45310 0.93730 0.08700
H 	H 	0.78400 0.95310 0.56270 0.08700
H 	H 	0.98300 0.29300 0.94640 0.08600
H 	H 	0.51700 0.70700 0.44640 0.08600
H 	H 	0.01700 0.79300 0.55360 0.08600
H 	H 	0.48300 0.20700 0.05360 0.08600
H 	H 	0.94640 0.98300 0.29300 0.08600
H 	H 	0.44640 0.51700 0.70700 0.08600
H 	H 	0.55360 0.01700 0.79300 0.08600
H 	H 	0.05360 0.48300 0.20700 0.08600
H 	H 	0.29300 0.94640 0.98300 0.08600
H 	H 	0.70700 0.44640 0.51700 0.08600
H 	H 	0.79300 0.55360 0.01700 0.08600
H 	H 	0.20700 0.05360 0.48300 0.08600
H 	H 	0.01700 0.70700 0.05360 0.08600
H 	H 	0.48300 0.29300 0.55360 0.08600
H 	H 	0.98300 0.20700 0.44640 0.08600
H 	H 	0.51700 0.79300 0.94640 0.08600
H 	H 	0.05360 0.01700 0.70700 0.08600
H 	H 	0.55360 0.48300 0.29300 0.08600
H 	H 	0.44640 0.98300 0.20700 0.08600
H 	H 	0.94640 0.51700 0.79300 0.08600
H 	H 	0.70700 0.05360 0.01700 0.08600
H 	H 	0.29300 0.55360 0.48300 0.08600
H 	H 	0.20700 0.44640 0.98300 0.08600
H 	H 	0.79300 0.94640 0.51700 0.08600
C 	C 	0.13554 0.36993 0.18880 -0.18100
C 	C 	0.36446 0.63007 0.68880 -0.18100
C 	C 	0.86446 0.86993 0.31120 -0.18100
C 	C 	0.63554 0.13007 0.81120 -0.18100
C 	C 	0.18880 0.13554 0.36993 -0.18100
C 	C 	0.68880 0.36446 0.63007 -0.18100
C 	C 	0.31120 0.86446 0.86993 -0.18100
C 	C 	0.81120 0.63554 0.13007 -0.18100
C 	C 	0.36993 0.18880 0.13554 -0.18100
C 	C 	0.63007 0.68880 0.36446 -0.18100
C 	C 	0.86993 0.31120 0.86446 -0.18100
C 	C 	0.13007 0.81120 0.63554 -0.18100
C 	C 	0.86446 0.63007 0.81120 -0.18100
C 	C 	0.63554 0.36993 0.31120 -0.18100
C 	C 	0.13554 0.13007 0.68880 -0.18100
C 	C 	0.36446 0.86993 0.18880 -0.18100
C 	C 	0.81120 0.86446 0.63007 -0.18100
C 	C 	0.31120 0.63554 0.36993 -0.18100
C 	C 	0.68880 0.13554 0.13007 -0.18100
C 	C 	0.18880 0.36446 0.86993 -0.18100
C 	C 	0.63007 0.81120 0.86446 -0.18100
C 	C 	0.36993 0.31120 0.63554 -0.18100
C 	C 	0.13007 0.68880 0.13554 -0.18100
C 	C 	0.86993 0.18880 0.36446 -0.18100
H 	H 	0.14360 0.38380 0.16450 0.08900
H 	H 	0.35640 0.61620 0.66450 0.08900
H 	H 	0.85640 0.88380 0.33550 0.08900
H 	H 	0.64360 0.11620 0.83550 0.08900
H 	H 	0.16450 0.14360 0.38380 0.08900
H 	H 	0.66450 0.35640 0.61620 0.08900
H 	H 	0.33550 0.85640 0.88380 0.08900
H 	H 	0.83550 0.64360 0.11620 0.08900
H 	H 	0.38380 0.16450 0.14360 0.08900
H 	H 	0.61620 0.66450 0.35640 0.08900
H 	H 	0.88380 0.33550 0.85640 0.08900
H 	H 	0.11620 0.83550 0.64360 0.08900
H 	H 	0.85640 0.61620 0.83550 0.08900
H 	H 	0.64360 0.38380 0.33550 0.08900
H 	H 	0.14360 0.11620 0.66450 0.08900
H 	H 	0.35640 0.88380 0.16450 0.08900
H 	H 	0.83550 0.85640 0.61620 0.08900
H 	H 	0.33550 0.64360 0.38380 0.08900
H 	H 	0.66450 0.14360 0.11620 0.08900
H 	H 	0.16450 0.35640 0.88380 0.08900
H 	H 	0.61620 0.83550 0.85640 0.08900
H 	H 	0.38380 0.33550 0.64360 0.08900
H 	H 	0.11620 0.66450 0.14360 0.08900
H 	H 	0.88380 0.16450 0.35640 0.08900
H 	H 	0.12410 0.38970 0.20680 0.08200
H 	H 	0.37590 0.61030 0.70680 0.08200
H 	H 	0.87590 0.88970 0.29320 0.08200
H 	H 	0.62410 0.11030 0.79320 0.08200
H 	H 	0.20680 0.12410 0.38970 0.08200
H 	H 	0.70680 0.37590 0.61030 0.08200
H 	H 	0.29320 0.87590 0.88970 0.08200
H 	H 	0.79320 0.62410 0.11030 0.08200
H 	H 	0.38970 0.20680 0.12410 0.08200
H 	H 	0.61030 0.70680 0.37590 0.08200
H 	H 	0.88970 0.29320 0.87590 0.08200
H 	H 	0.11030 0.79320 0.62410 0.08200
H 	H 	0.87590 0.61030 0.79320 0.08200
H 	H 	0.62410 0.38970 0.29320 0.08200
H 	H 	0.12410 0.11030 0.70680 0.08200
H 	H 	0.37590 0.88970 0.20680 0.08200
H 	H 	0.79320 0.87590 0.61030 0.08200
H 	H 	0.29320 0.62410 0.38970 0.08200
H 	H 	0.70680 0.12410 0.11030 0.08200
H 	H 	0.20680 0.37590 0.88970 0.08200
H 	H 	0.61030 0.79320 0.87590 0.08200
H 	H 	0.38970 0.29320 0.62410 0.08200
H 	H 	0.11030 0.70680 0.12410 0.08200
H 	H 	0.88970 0.20680 0.37590 0.08200
C 	C 	0.17167 0.35267 0.20780 -0.05200
C 	C 	0.32833 0.64733 0.70780 -0.05200
C 	C 	0.82833 0.85267 0.29220 -0.05200
C 	C 	0.67167 0.14733 0.79220 -0.05200
C 	C 	0.20780 0.17167 0.35267 -0.05200
C 	C 	0.70780 0.32833 0.64733 -0.05200
C 	C 	0.29220 0.82833 0.85267 -0.05200
C 	C 	0.79220 0.67167 0.14733 -0.05200
C 	C 	0.35267 0.20780 0.17167 -0.05200
C 	C 	0.64733 0.70780 0.32833 -0.05200
C 	C 	0.85267 0.29220 0.82833 -0.05200
C 	C 	0.14733 0.79220 0.67167 -0.05200
C 	C 	0.82833 0.64733 0.79220 -0.05200
C 	C 	0.67167 0.35267 0.29220 -0.05200
C 	C 	0.17167 0.14733 0.70780 -0.05200
C 	C 	0.32833 0.85267 0.20780 -0.05200
C 	C 	0.79220 0.82833 0.64733 -0.05200
C 	C 	0.29220 0.67167 0.35267 -0.05200
C 	C 	0.70780 0.17167 0.14733 -0.05200
C 	C 	0.20780 0.32833 0.85267 -0.05200
C 	C 	0.64733 0.79220 0.82833 -0.05200
C 	C 	0.35267 0.29220 0.67167 -0.05200
C 	C 	0.14733 0.70780 0.17167 -0.05200
C 	C 	0.85267 0.20780 0.32833 -0.05200
H 	H 	0.18810 0.37410 0.21860 0.04600
H 	H 	0.31190 0.62590 0.71860 0.04600
H 	H 	0.81190 0.87410 0.28140 0.04600
H 	H 	0.68810 0.12590 0.78140 0.04600
H 	H 	0.21860 0.18810 0.37410 0.04600
H 	H 	0.71860 0.31190 0.62590 0.04600
H 	H 	0.28140 0.81190 0.87410 0.04600
H 	H 	0.78140 0.68810 0.12590 0.04600
H 	H 	0.37410 0.21860 0.18810 0.04600
H 	H 	0.62590 0.71860 0.31190 0.04600
H 	H 	0.87410 0.28140 0.81190 0.04600
H 	H 	0.12590 0.78140 0.68810 0.04600
H 	H 	0.81190 0.62590 0.78140 0.04600
H 	H 	0.68810 0.37410 0.28140 0.04600
H 	H 	0.18810 0.12590 0.71860 0.04600
H 	H 	0.31190 0.87410 0.21860 0.04600
H 	H 	0.78140 0.81190 0.62590 0.04600
H 	H 	0.28140 0.68810 0.37410 0.04600
H 	H 	0.71860 0.18810 0.12590 0.04600
H 	H 	0.21860 0.31190 0.87410 0.04600
H 	H 	0.62590 0.78140 0.81190 0.04600
H 	H 	0.37410 0.28140 0.68810 0.04600
H 	H 	0.12590 0.71860 0.18810 0.04600
H 	H 	0.87410 0.21860 0.31190 0.04600
H 	H 	0.18740 0.33860 0.18770 0.05400
H 	H 	0.31260 0.66140 0.68770 0.05400
H 	H 	0.81260 0.83860 0.31230 0.05400
H 	H 	0.68740 0.16140 0.81230 0.05400
H 	H 	0.18770 0.18740 0.33860 0.05400
H 	H 	0.68770 0.31260 0.66140 0.05400
H 	H 	0.31230 0.81260 0.83860 0.05400
H 	H 	0.81230 0.68740 0.16140 0.05400
H 	H 	0.33860 0.18770 0.18740 0.05400
H 	H 	0.66140 0.68770 0.31260 0.05400
H 	H 	0.83860 0.31230 0.81260 0.05400
H 	H 	0.16140 0.81230 0.68740 0.05400
H 	H 	0.81260 0.66140 0.81230 0.05400
H 	H 	0.68740 0.33860 0.31230 0.05400
H 	H 	0.18740 0.16140 0.68770 0.05400
H 	H 	0.31260 0.83860 0.18770 0.05400
H 	H 	0.81230 0.81260 0.66140 0.05400
H 	H 	0.31230 0.68740 0.33860 0.05400
H 	H 	0.68770 0.18740 0.16140 0.05400
H 	H 	0.18770 0.31260 0.83860 0.05400
H 	H 	0.66140 0.81230 0.81260 0.05400
H 	H 	0.33860 0.31230 0.68740 0.05400
H 	H 	0.16140 0.68770 0.18740 0.05400
H 	H 	0.83860 0.18770 0.31260 0.05400
C 	C 	0.16085 0.32448 0.24041 -0.05900
C 	C 	0.33915 0.67552 0.74041 -0.05900
C 	C 	0.83915 0.82448 0.25959 -0.05900
C 	C 	0.66085 0.17552 0.75959 -0.05900
C 	C 	0.24041 0.16085 0.32448 -0.05900
C 	C 	0.74041 0.33915 0.67552 -0.05900
C 	C 	0.25959 0.83915 0.82448 -0.05900
C 	C 	0.75959 0.66085 0.17552 -0.05900
C 	C 	0.32448 0.24041 0.16085 -0.05900
C 	C 	0.67552 0.74041 0.33915 -0.05900
C 	C 	0.82448 0.25959 0.83915 -0.05900
C 	C 	0.17552 0.75959 0.66085 -0.05900
C 	C 	0.83915 0.67552 0.75959 -0.05900
C 	C 	0.66085 0.32448 0.25959 -0.05900
C 	C 	0.16085 0.17552 0.74041 -0.05900
C 	C 	0.33915 0.82448 0.24041 -0.05900
C 	C 	0.75959 0.83915 0.67552 -0.05900
C 	C 	0.25959 0.66085 0.32448 -0.05900
C 	C 	0.74041 0.16085 0.17552 -0.05900
C 	C 	0.24041 0.33915 0.82448 -0.05900
C 	C 	0.67552 0.75959 0.83915 -0.05900
C 	C 	0.32448 0.25959 0.66085 -0.05900
C 	C 	0.17552 0.74041 0.16085 -0.05900
C 	C 	0.82448 0.24041 0.33915 -0.05900
H 	H 	0.17720 0.33050 0.26370 0.05200
H 	H 	0.32280 0.66950 0.76370 0.05200
H 	H 	0.82280 0.83050 0.23630 0.05200
H 	H 	0.67720 0.16950 0.73630 0.05200
H 	H 	0.26370 0.17720 0.33050 0.05200
H 	H 	0.76370 0.32280 0.66950 0.05200
H 	H 	0.23630 0.82280 0.83050 0.05200
H 	H 	0.73630 0.67720 0.16950 0.05200
H 	H 	0.33050 0.26370 0.17720 0.05200
H 	H 	0.66950 0.76370 0.32280 0.05200
H 	H 	0.83050 0.23630 0.82280 0.05200
H 	H 	0.16950 0.73630 0.67720 0.05200
H 	H 	0.82280 0.66950 0.73630 0.05200
H 	H 	0.67720 0.33050 0.23630 0.05200
H 	H 	0.17720 0.16950 0.76370 0.05200
H 	H 	0.32280 0.83050 0.26370 0.05200
H 	H 	0.73630 0.82280 0.66950 0.05200
H 	H 	0.23630 0.67720 0.33050 0.05200
H 	H 	0.76370 0.17720 0.16950 0.05200
H 	H 	0.26370 0.32280 0.83050 0.05200
H 	H 	0.66950 0.73630 0.82280 0.05200
H 	H 	0.33050 0.23630 0.67720 0.05200
H 	H 	0.16950 0.76370 0.17720 0.05200
H 	H 	0.83050 0.26370 0.32280 0.05200
H 	H 	0.16740 0.29740 0.23190 0.05500
H 	H 	0.33260 0.70260 0.73190 0.05500
H 	H 	0.83260 0.79740 0.26810 0.05500
H 	H 	0.66740 0.20260 0.76810 0.05500
H 	H 	0.23190 0.16740 0.29740 0.05500
H 	H 	0.73190 0.33260 0.70260 0.05500
H 	H 	0.26810 0.83260 0.79740 0.05500
H 	H 	0.76810 0.66740 0.20260 0.05500
H 	H 	0.29740 0.23190 0.16740 0.05500
H 	H 	0.70260 0.73190 0.33260 0.05500
H 	H 	0.79740 0.26810 0.83260 0.05500
H 	H 	0.20260 0.76810 0.66740 0.05500
H 	H 	0.83260 0.70260 0.76810 0.05500
H 	H 	0.66740 0.29740 0.26810 0.05500
H 	H 	0.16740 0.20260 0.73190 0.05500
H 	H 	0.33260 0.79740 0.23190 0.05500
H 	H 	0.76810 0.83260 0.70260 0.05500
H 	H 	0.26810 0.66740 0.29740 0.05500
H 	H 	0.73190 0.16740 0.20260 0.05500
H 	H 	0.23190 0.33260 0.79740 0.05500
H 	H 	0.70260 0.76810 0.83260 0.05500
H 	H 	0.29740 0.26810 0.66740 0.05500
H 	H 	0.20260 0.73190 0.16740 0.05500
H 	H 	0.79740 0.23190 0.33260 0.05500
C 	C 	0.11679 0.32561 0.25281 -0.18800
C 	C 	0.38321 0.67439 0.75281 -0.18800
C 	C 	0.88321 0.82561 0.24719 -0.18800
C 	C 	0.61679 0.17439 0.74719 -0.18800
C 	C 	0.25281 0.11679 0.32561 -0.18800
C 	C 	0.75281 0.38321 0.67439 -0.18800
C 	C 	0.24719 0.88321 0.82561 -0.18800
C 	C 	0.74719 0.61679 0.17439 -0.18800
C 	C 	0.32561 0.25281 0.11679 -0.18800
C 	C 	0.67439 0.75281 0.38321 -0.18800
C 	C 	0.82561 0.24719 0.88321 -0.18800
C 	C 	0.17439 0.74719 0.61679 -0.18800
C 	C 	0.88321 0.67439 0.74719 -0.18800
C 	C 	0.61679 0.32561 0.24719 -0.18800
C 	C 	0.11679 0.17439 0.75281 -0.18800
C 	C 	0.38321 0.82561 0.25281 -0.18800
C 	C 	0.74719 0.88321 0.67439 -0.18800
C 	C 	0.24719 0.61679 0.32561 -0.18800
C 	C 	0.75281 0.11679 0.17439 -0.18800
C 	C 	0.25281 0.38321 0.82561 -0.18800
C 	C 	0.67439 0.74719 0.88321 -0.18800
C 	C 	0.32561 0.24719 0.61679 -0.18800
C 	C 	0.17439 0.75281 0.11679 -0.18800
C 	C 	0.82561 0.25281 0.38321 -0.18800
H 	H 	0.11210 0.30690 0.27460 0.09400
H 	H 	0.38790 0.69310 0.77460 0.09400
H 	H 	0.88790 0.80690 0.22540 0.09400
H 	H 	0.61210 0.19310 0.72540 0.09400
H 	H 	0.27460 0.11210 0.30690 0.09400
H 	H 	0.77460 0.38790 0.69310 0.09400
H 	H 	0.22540 0.88790 0.80690 0.09400
H 	H 	0.72540 0.61210 0.19310 0.09400
H 	H 	0.30690 0.27460 0.11210 0.09400
H 	H 	0.69310 0.77460 0.38790 0.09400
H 	H 	0.80690 0.22540 0.88790 0.09400
H 	H 	0.19310 0.72540 0.61210 0.09400
H 	H 	0.88790 0.69310 0.72540 0.09400
H 	H 	0.61210 0.30690 0.22540 0.09400
H 	H 	0.11210 0.19310 0.77460 0.09400
H 	H 	0.38790 0.80690 0.27460 0.09400
H 	H 	0.72540 0.88790 0.69310 0.09400
H 	H 	0.22540 0.61210 0.30690 0.09400
H 	H 	0.77460 0.11210 0.19310 0.09400
H 	H 	0.27460 0.38790 0.80690 0.09400
H 	H 	0.69310 0.72540 0.88790 0.09400
H 	H 	0.30690 0.22540 0.61210 0.09400
H 	H 	0.19310 0.77460 0.11210 0.09400
H 	H 	0.80690 0.27460 0.38790 0.09400
H 	H 	0.10970 0.35230 0.26190 0.09100
H 	H 	0.39030 0.64770 0.76190 0.09100
H 	H 	0.89030 0.85230 0.23810 0.09100
H 	H 	0.60970 0.14770 0.73810 0.09100
H 	H 	0.26190 0.10970 0.35230 0.09100
H 	H 	0.76190 0.39030 0.64770 0.09100
H 	H 	0.23810 0.89030 0.85230 0.09100
H 	H 	0.73810 0.60970 0.14770 0.09100
H 	H 	0.35230 0.26190 0.10970 0.09100
H 	H 	0.64770 0.76190 0.39030 0.09100
H 	H 	0.85230 0.23810 0.89030 0.09100
H 	H 	0.14770 0.73810 0.60970 0.09100
H 	H 	0.89030 0.64770 0.73810 0.09100
H 	H 	0.60970 0.35230 0.23810 0.09100
H 	H 	0.10970 0.14770 0.76190 0.09100
H 	H 	0.39030 0.85230 0.26190 0.09100
H 	H 	0.73810 0.89030 0.64770 0.09100
H 	H 	0.23810 0.60970 0.35230 0.09100
H 	H 	0.76190 0.10970 0.14770 0.09100
H 	H 	0.26190 0.39030 0.85230 0.09100
H 	H 	0.64770 0.73810 0.89030 0.09100
H 	H 	0.35230 0.23810 0.60970 0.09100
H 	H 	0.14770 0.76190 0.10970 0.09100
H 	H 	0.85230 0.26190 0.39030 0.09100
N 	N 	0.05699 0.21954 0.22888 -0.16400
N 	N 	0.44301 0.78046 0.72888 -0.16400
N 	N 	0.94301 0.71954 0.27112 -0.16400
N 	N 	0.55699 0.28046 0.77112 -0.16400
N 	N 	0.22888 0.05699 0.21954 -0.16400
N 	N 	0.72888 0.44301 0.78046 -0.16400
N 	N 	0.27112 0.94301 0.71954 -0.16400
N 	N 	0.77112 0.55699 0.28046 -0.16400
N 	N 	0.21954 0.22888 0.05699 -0.16400
N 	N 	0.78046 0.72888 0.44301 -0.16400
N 	N 	0.71954 0.27112 0.94301 -0.16400
N 	N 	0.28046 0.77112 0.55699 -0.16400
N 	N 	0.94301 0.78046 0.77112 -0.16400
N 	N 	0.55699 0.21954 0.27112 -0.16400
N 	N 	0.05699 0.28046 0.72888 -0.16400
N 	N 	0.44301 0.71954 0.22888 -0.16400
N 	N 	0.77112 0.94301 0.78046 -0.16400
N 	N 	0.27112 0.55699 0.21954 -0.16400
N 	N 	0.72888 0.05699 0.28046 -0.16400
N 	N 	0.22888 0.44301 0.71954 -0.16400
N 	N 	0.78046 0.77112 0.94301 -0.16400
N 	N 	0.21954 0.27112 0.55699 -0.16400
N 	N 	0.28046 0.72888 0.05699 -0.16400
N 	N 	0.71954 0.22888 0.44301 -0.16400
N 	N 	0.00951 0.17625 0.21325 -0.16000
N 	N 	0.49049 0.82375 0.71325 -0.16100
N 	N 	0.99049 0.67625 0.28675 -0.16100
N 	N 	0.50951 0.32375 0.78675 -0.16100
N 	N 	0.21325 0.00951 0.17625 -0.16000
N 	N 	0.71325 0.49049 0.82375 -0.16100
N 	N 	0.28675 0.99049 0.67625 -0.16100
N 	N 	0.78675 0.50951 0.32375 -0.16100
N 	N 	0.17625 0.21325 0.00951 -0.16000
N 	N 	0.82375 0.71325 0.49049 -0.16100
N 	N 	0.67625 0.28675 0.99049 -0.16100
N 	N 	0.32375 0.78675 0.50951 -0.16100
N 	N 	0.99049 0.82375 0.78675 -0.16000
N 	N 	0.50951 0.17625 0.28675 -0.16100
N 	N 	0.00951 0.32375 0.71325 -0.16100
N 	N 	0.49049 0.67625 0.21325 -0.16100
N 	N 	0.78675 0.99049 0.82375 -0.16000
N 	N 	0.28675 0.50951 0.17625 -0.16100
N 	N 	0.71325 0.00951 0.32375 -0.16100
N 	N 	0.21325 0.49049 0.67625 -0.16100
N 	N 	0.82375 0.78675 0.99049 -0.16000
N 	N 	0.17625 0.28675 0.50951 -0.16100
N 	N 	0.32375 0.71325 0.00951 -0.16100
N 	N 	0.67625 0.21325 0.49049 -0.16100
N 	N 	0.00647 0.26914 0.24665 -0.15500
N 	N 	0.49353 0.73086 0.74665 -0.15500
N 	N 	0.99353 0.76914 0.25335 -0.15500
N 	N 	0.50647 0.23086 0.75335 -0.15500
N 	N 	0.24665 0.00647 0.26914 -0.15500
N 	N 	0.74665 0.49353 0.73086 -0.15500
N 	N 	0.25335 0.99353 0.76914 -0.15500
N 	N 	0.75335 0.50647 0.23086 -0.15500
N 	N 	0.26914 0.24665 0.00647 -0.15500
N 	N 	0.73086 0.74665 0.49353 -0.15500
N 	N 	0.76914 0.25335 0.99353 -0.15500
N 	N 	0.23086 0.75335 0.50647 -0.15500
N 	N 	0.99353 0.73086 0.75335 -0.15500
N 	N 	0.50647 0.26914 0.25335 -0.15500
N 	N 	0.00647 0.23086 0.74665 -0.15500
N 	N 	0.49353 0.76914 0.24665 -0.15500
N 	N 	0.75335 0.99353 0.73086 -0.15500
N 	N 	0.25335 0.50647 0.26914 -0.15500
N 	N 	0.74665 0.00647 0.23086 -0.15500
N 	N 	0.24665 0.49353 0.76914 -0.15500
N 	N 	0.73086 0.75335 0.99353 -0.15500
N 	N 	0.26914 0.25335 0.50647 -0.15500
N 	N 	0.23086 0.74665 0.00647 -0.15500
N 	N 	0.76914 0.24665 0.49353 -0.15500
N 	N 	0.95852 0.22549 0.23171 -0.15900
N 	N 	0.54148 0.77451 0.73171 -0.15900
N 	N 	0.04148 0.72549 0.26829 -0.15900
N 	N 	0.45852 0.27451 0.76829 -0.15900
N 	N 	0.23171 0.95852 0.22549 -0.15900
N 	N 	0.73171 0.54148 0.77451 -0.15900
N 	N 	0.26829 0.04148 0.72549 -0.15900
N 	N 	0.76829 0.45852 0.27451 -0.15900
N 	N 	0.22549 0.23171 0.95852 -0.15900
N 	N 	0.77451 0.73171 0.54148 -0.15900
N 	N 	0.72549 0.26829 0.04148 -0.15900
N 	N 	0.27451 0.76829 0.45852 -0.15900
N 	N 	0.04148 0.77451 0.76829 -0.15900
N 	N 	0.45852 0.22549 0.26829 -0.15900
N 	N 	0.95852 0.27451 0.73171 -0.15900
N 	N 	0.54148 0.72549 0.23171 -0.15900
N 	N 	0.76829 0.04148 0.77451 -0.15900
N 	N 	0.26829 0.45852 0.22549 -0.15900
N 	N 	0.73171 0.95852 0.27451 -0.15900
N 	N 	0.23171 0.54148 0.72549 -0.15900
N 	N 	0.77451 0.76829 0.04148 -0.15900
N 	N 	0.22549 0.26829 0.45852 -0.15900
N 	N 	0.27451 0.73171 0.95852 -0.15900
N 	N 	0.72549 0.23171 0.54148 -0.15900
N 	N 	0.97001 0.15266 0.15660 -0.14700
N 	N 	0.52999 0.84734 0.65660 -0.14800
N 	N 	0.02999 0.65266 0.34340 -0.14800
N 	N 	0.47001 0.34734 0.84340 -0.14800
N 	N 	0.15660 0.97001 0.15266 -0.14700
N 	N 	0.65660 0.52999 0.84734 -0.14800
N 	N 	0.34340 0.02999 0.65266 -0.14800
N 	N 	0.84340 0.47001 0.34734 -0.14800
N 	N 	0.15266 0.15660 0.97001 -0.14700
N 	N 	0.84734 0.65660 0.52999 -0.14800
N 	N 	0.65266 0.34340 0.02999 -0.14800
N 	N 	0.34734 0.84340 0.47001 -0.14800
N 	N 	0.02999 0.84734 0.84340 -0.14700
N 	N 	0.47001 0.15266 0.34340 -0.14800
N 	N 	0.97001 0.34734 0.65660 -0.14800
N 	N 	0.52999 0.65266 0.15660 -0.14800
N 	N 	0.84340 0.02999 0.84734 -0.14700
N 	N 	0.34340 0.47001 0.15266 -0.14800
N 	N 	0.65660 0.97001 0.34734 -0.14800
N 	N 	0.15660 0.52999 0.65266 -0.14800
N 	N 	0.84734 0.84340 0.02999 -0.14700
N 	N 	0.15266 0.34340 0.47001 -0.14800
N 	N 	0.34734 0.65660 0.97001 -0.14800
N 	N 	0.65266 0.15660 0.52999 -0.14800
N 	N 	0.95779 0.16408 0.09275 -0.14800
N 	N 	0.54221 0.83592 0.59275 -0.14800
N 	N 	0.04221 0.66408 0.40725 -0.14800
N 	N 	0.45779 0.33592 0.90725 -0.14800
N 	N 	0.09275 0.95779 0.16408 -0.14800
N 	N 	0.59275 0.54221 0.83592 -0.14800
N 	N 	0.40725 0.04221 0.66408 -0.14800
N 	N 	0.90725 0.45779 0.33592 -0.14800
N 	N 	0.16408 0.09275 0.95779 -0.14800
N 	N 	0.83592 0.59275 0.54221 -0.14800
N 	N 	0.66408 0.40725 0.04221 -0.14800
N 	N 	0.33592 0.90725 0.45779 -0.14800
N 	N 	0.04221 0.83592 0.90725 -0.14800
N 	N 	0.45779 0.16408 0.40725 -0.14800
N 	N 	0.95779 0.33592 0.59275 -0.14800
N 	N 	0.54221 0.66408 0.09275 -0.14800
N 	N 	0.90725 0.04221 0.83592 -0.14800
N 	N 	0.40725 0.45779 0.16408 -0.14800
N 	N 	0.59275 0.95779 0.33592 -0.14800
N 	N 	0.09275 0.54221 0.66408 -0.14800
N 	N 	0.83592 0.90725 0.04221 -0.14800
N 	N 	0.16408 0.40725 0.45779 -0.14800
N 	N 	0.33592 0.59275 0.95779 -0.14800
N 	N 	0.66408 0.09275 0.54221 -0.14800
N 	N 	0.92031 0.20354 0.17407 -0.14500
N 	N 	0.57969 0.79646 0.67407 -0.14500
N 	N 	0.07969 0.70354 0.32593 -0.14500
N 	N 	0.42031 0.29646 0.82593 -0.14500
N 	N 	0.17407 0.92031 0.20354 -0.14500
N 	N 	0.67407 0.57969 0.79646 -0.14500
N 	N 	0.32593 0.07969 0.70354 -0.14500
N 	N 	0.82593 0.42031 0.29646 -0.14500
N 	N 	0.20354 0.17407 0.92031 -0.14500
N 	N 	0.79646 0.67407 0.57969 -0.14500
N 	N 	0.70354 0.32593 0.07969 -0.14500
N 	N 	0.29646 0.82593 0.42031 -0.14500
N 	N 	0.07969 0.79646 0.82593 -0.14500
N 	N 	0.42031 0.20354 0.32593 -0.14500
N 	N 	0.92031 0.29646 0.67407 -0.14500
N 	N 	0.57969 0.70354 0.17407 -0.14500
N 	N 	0.82593 0.07969 0.79646 -0.14500
N 	N 	0.32593 0.42031 0.20354 -0.14500
N 	N 	0.67407 0.92031 0.29646 -0.14500
N 	N 	0.17407 0.57969 0.70354 -0.14500
N 	N 	0.79646 0.82593 0.07969 -0.14500
N 	N 	0.20354 0.32593 0.42031 -0.14500
N 	N 	0.29646 0.67407 0.92031 -0.14500
N 	N 	0.70354 0.17407 0.57969 -0.14500
N 	N 	0.90551 0.21166 0.10909 -0.14200
N 	N 	0.59449 0.78834 0.60909 -0.14200
N 	N 	0.09449 0.71166 0.39091 -0.14200
N 	N 	0.40551 0.28834 0.89091 -0.14200
N 	N 	0.10909 0.90551 0.21166 -0.14200
N 	N 	0.60909 0.59449 0.78834 -0.14200
N 	N 	0.39091 0.09449 0.71166 -0.14200
N 	N 	0.89091 0.40551 0.28834 -0.14200
N 	N 	0.21166 0.10909 0.90551 -0.14200
N 	N 	0.78834 0.60909 0.59449 -0.14200
N 	N 	0.71166 0.39091 0.09449 -0.14200
N 	N 	0.28834 0.89091 0.40551 -0.14200
N 	N 	0.09449 0.78834 0.89091 -0.14200
N 	N 	0.40551 0.21166 0.39091 -0.14200
N 	N 	0.90551 0.28834 0.60909 -0.14200
N 	N 	0.59449 0.71166 0.10909 -0.14200
N 	N 	0.89091 0.09449 0.78834 -0.14200
N 	N 	0.39091 0.40551 0.21166 -0.14200
N 	N 	0.60909 0.90551 0.28834 -0.14200
N 	N 	0.10909 0.59449 0.71166 -0.14200
N 	N 	0.78834 0.89091 0.09449 -0.14200
N 	N 	0.21166 0.39091 0.40551 -0.14200
N 	N 	0.28834 0.60909 0.90551 -0.14200
N 	N 	0.71166 0.10909 0.59449 -0.14200
N 	N 	0.97393 0.20004 0.03088 -0.15600
N 	N 	0.52607 0.79996 0.53088 -0.15600
N 	N 	0.02607 0.70004 0.46912 -0.15600
N 	N 	0.47393 0.29996 0.96912 -0.15600
N 	N 	0.03088 0.97393 0.20004 -0.15600
N 	N 	0.53088 0.52607 0.79996 -0.15600
N 	N 	0.46912 0.02607 0.70004 -0.15600
N 	N 	0.96912 0.47393 0.29996 -0.15600
N 	N 	0.20004 0.03088 0.97393 -0.15600
N 	N 	0.79996 0.53088 0.52607 -0.15600
N 	N 	0.70004 0.46912 0.02607 -0.15600
N 	N 	0.29996 0.96912 0.47393 -0.15600
N 	N 	0.02607 0.79996 0.96912 -0.15600
N 	N 	0.47393 0.20004 0.46912 -0.15600
N 	N 	0.97393 0.29996 0.53088 -0.15600
N 	N 	0.52607 0.70004 0.03088 -0.15600
N 	N 	0.96912 0.02607 0.79996 -0.15600
N 	N 	0.46912 0.47393 0.20004 -0.15600
N 	N 	0.53088 0.97393 0.29996 -0.15600
N 	N 	0.03088 0.52607 0.70004 -0.15600
N 	N 	0.79996 0.96912 0.02607 -0.15600
N 	N 	0.20004 0.46912 0.47393 -0.15600
N 	N 	0.29996 0.53088 0.97393 -0.15600
N 	N 	0.70004 0.03088 0.52607 -0.15600
N 	N 	0.01191 0.24854 0.00702 -0.16100
N 	N 	0.48809 0.75146 0.50702 -0.16100
N 	N 	0.98809 0.74854 0.49298 -0.16100
N 	N 	0.51191 0.25146 0.99298 -0.16100
N 	N 	0.00702 0.01191 0.24854 -0.16100
N 	N 	0.50702 0.48809 0.75146 -0.16100
N 	N 	0.49298 0.98809 0.74854 -0.16100
N 	N 	0.99298 0.51191 0.25146 -0.16100
N 	N 	0.24854 0.00702 0.01191 -0.16100
N 	N 	0.75146 0.50702 0.48809 -0.16100
N 	N 	0.74854 0.49298 0.98809 -0.16100
N 	N 	0.25146 0.99298 0.51191 -0.16100
N 	N 	0.98809 0.75146 0.99298 -0.16100
N 	N 	0.51191 0.24854 0.49298 -0.16100
N 	N 	0.01191 0.25146 0.50702 -0.16100
N 	N 	0.48809 0.74854 0.00702 -0.16100
N 	N 	0.99298 0.98809 0.75146 -0.16100
N 	N 	0.49298 0.51191 0.24854 -0.16100
N 	N 	0.50702 0.01191 0.25146 -0.16100
N 	N 	0.00702 0.48809 0.74854 -0.16100
N 	N 	0.75146 0.99298 0.98809 -0.16100
N 	N 	0.24854 0.49298 0.51191 -0.16100
N 	N 	0.25146 0.50702 0.01191 -0.16100
N 	N 	0.74854 0.00702 0.48809 -0.16100
N 	N 	0.92273 0.24895 0.04918 -0.15700
N 	N 	0.57727 0.75105 0.54918 -0.15700
N 	N 	0.07727 0.74895 0.45082 -0.15700
N 	N 	0.42273 0.25105 0.95082 -0.15700
N 	N 	0.04918 0.92273 0.24895 -0.15700
N 	N 	0.54918 0.57727 0.75105 -0.15700
N 	N 	0.45082 0.07727 0.74895 -0.15700
N 	N 	0.95082 0.42273 0.25105 -0.15700
N 	N 	0.24895 0.04918 0.92273 -0.15700
N 	N 	0.75105 0.54918 0.57727 -0.15700
N 	N 	0.74895 0.45082 0.07727 -0.15700
N 	N 	0.25105 0.95082 0.42273 -0.15700
N 	N 	0.07727 0.75105 0.95082 -0.15700
N 	N 	0.42273 0.24895 0.45082 -0.15700
N 	N 	0.92273 0.25105 0.54918 -0.15700
N 	N 	0.57727 0.74895 0.04918 -0.15700
N 	N 	0.95082 0.07727 0.75105 -0.15700
N 	N 	0.45082 0.42273 0.24895 -0.15700
N 	N 	0.54918 0.92273 0.25105 -0.15700
N 	N 	0.04918 0.57727 0.74895 -0.15700
N 	N 	0.75105 0.95082 0.07727 -0.15700
N 	N 	0.24895 0.45082 0.42273 -0.15700
N 	N 	0.25105 0.54918 0.92273 -0.15700
N 	N 	0.74895 0.04918 0.57727 -0.15700
N 	N 	0.96249 0.29787 0.02654 -0.16100
N 	N 	0.53751 0.70213 0.52654 -0.16100
N 	N 	0.03751 0.79787 0.47346 -0.16100
N 	N 	0.46249 0.20213 0.97346 -0.16100
N 	N 	0.02654 0.96249 0.29787 -0.16100
N 	N 	0.52654 0.53751 0.70213 -0.16100
N 	N 	0.47346 0.03751 0.79787 -0.16100
N 	N 	0.97346 0.46249 0.20213 -0.16100
N 	N 	0.29787 0.02654 0.96249 -0.16100
N 	N 	0.70213 0.52654 0.53751 -0.16100
N 	N 	0.79787 0.47346 0.03751 -0.16100
N 	N 	0.20213 0.97346 0.46249 -0.16100
N 	N 	0.03751 0.70213 0.97346 -0.16100
N 	N 	0.46249 0.29787 0.47346 -0.16100
N 	N 	0.96249 0.20213 0.52654 -0.16100
N 	N 	0.53751 0.79787 0.02654 -0.16100
N 	N 	0.97346 0.03751 0.70213 -0.16100
N 	N 	0.47346 0.46249 0.29787 -0.16100
N 	N 	0.52654 0.96249 0.20213 -0.16100
N 	N 	0.02654 0.53751 0.79787 -0.16100
N 	N 	0.70213 0.97346 0.03751 -0.16100
N 	N 	0.29787 0.47346 0.46249 -0.16100
N 	N 	0.20213 0.52654 0.96249 -0.16100
N 	N 	0.79787 0.02654 0.53751 -0.16100
N 	N 	0.06288 0.29527 0.02900 -0.15100
N 	N 	0.43712 0.70473 0.52900 -0.15100
N 	N 	0.93712 0.79527 0.47100 -0.15100
N 	N 	0.56288 0.20473 0.97100 -0.15100
N 	N 	0.02900 0.06288 0.29527 -0.15100
N 	N 	0.52900 0.43712 0.70473 -0.15100
N 	N 	0.47100 0.93712 0.79527 -0.15100
N 	N 	0.97100 0.56288 0.20473 -0.15100
N 	N 	0.29527 0.02900 0.06288 -0.15100
N 	N 	0.70473 0.52900 0.43712 -0.15100
N 	N 	0.79527 0.47100 0.93712 -0.15100
N 	N 	0.20473 0.97100 0.56288 -0.15100
N 	N 	0.93712 0.70473 0.97100 -0.15100
N 	N 	0.56288 0.29527 0.47100 -0.15100
N 	N 	0.06288 0.20473 0.52900 -0.15100
N 	N 	0.43712 0.79527 0.02900 -0.15100
N 	N 	0.97100 0.93712 0.70473 -0.15100
N 	N 	0.47100 0.56288 0.29527 -0.15100
N 	N 	0.52900 0.06288 0.20473 -0.15100
N 	N 	0.02900 0.43712 0.79527 -0.15100
N 	N 	0.70473 0.97100 0.93712 -0.15100
N 	N 	0.29527 0.47100 0.56288 -0.15100
N 	N 	0.20473 0.52900 0.06288 -0.15100
N 	N 	0.79527 0.02900 0.43712 -0.15100
N 	N 	0.10215 0.31767 0.07920 -0.15200
N 	N 	0.39785 0.68233 0.57920 -0.15200
N 	N 	0.89785 0.81767 0.42080 -0.15200
N 	N 	0.60215 0.18233 0.92080 -0.15200
N 	N 	0.07920 0.10215 0.31767 -0.15200
N 	N 	0.57920 0.39785 0.68233 -0.15200
N 	N 	0.42080 0.89785 0.81767 -0.15200
N 	N 	0.92080 0.60215 0.18233 -0.15200
N 	N 	0.31767 0.07920 0.10215 -0.15200
N 	N 	0.68233 0.57920 0.39785 -0.15200
N 	N 	0.81767 0.42080 0.89785 -0.15200
N 	N 	0.18233 0.92080 0.60215 -0.15200
N 	N 	0.89785 0.68233 0.92080 -0.15200
N 	N 	0.60215 0.31767 0.42080 -0.15200
N 	N 	0.10215 0.18233 0.57920 -0.15200
N 	N 	0.39785 0.81767 0.07920 -0.15200
N 	N 	0.92080 0.89785 0.68233 -0.15200
N 	N 	0.42080 0.60215 0.31767 -0.15200
N 	N 	0.57920 0.10215 0.18233 -0.15200
N 	N 	0.07920 0.39785 0.81767 -0.15200
N 	N 	0.68233 0.92080 0.89785 -0.15200
N 	N 	0.31767 0.42080 0.60215 -0.15200
N 	N 	0.18233 0.57920 0.10215 -0.15200
N 	N 	0.81767 0.07920 0.39785 -0.15200
N 	N 	0.01257 0.34641 0.04582 -0.15000
N 	N 	0.48743 0.65359 0.54582 -0.15000
N 	N 	0.98743 0.84641 0.45418 -0.15000
N 	N 	0.51257 0.15359 0.95418 -0.15000
N 	N 	0.04582 0.01257 0.34641 -0.15000
N 	N 	0.54582 0.48743 0.65359 -0.15000
N 	N 	0.45418 0.98743 0.84641 -0.15000
N 	N 	0.95418 0.51257 0.15359 -0.15000
N 	N 	0.34641 0.04582 0.01257 -0.15000
N 	N 	0.65359 0.54582 0.48743 -0.15000
N 	N 	0.84641 0.45418 0.98743 -0.15000
N 	N 	0.15359 0.95418 0.51257 -0.15000
N 	N 	0.98743 0.65359 0.95418 -0.15000
N 	N 	0.51257 0.34641 0.45418 -0.15000
N 	N 	0.01257 0.15359 0.54582 -0.15000
N 	N 	0.48743 0.84641 0.04582 -0.15000
N 	N 	0.95418 0.98743 0.65359 -0.15000
N 	N 	0.45418 0.51257 0.34641 -0.15000
N 	N 	0.54582 0.01257 0.15359 -0.15000
N 	N 	0.04582 0.48743 0.84641 -0.15000
N 	N 	0.65359 0.95418 0.98743 -0.15000
N 	N 	0.34641 0.45418 0.51257 -0.15000
N 	N 	0.15359 0.54582 0.01257 -0.15000
N 	N 	0.84641 0.04582 0.48743 -0.15000
N 	N 	0.04996 0.36540 0.09702 -0.15400
N 	N 	0.45004 0.63460 0.59702 -0.15400
N 	N 	0.95004 0.86540 0.40298 -0.15400
N 	N 	0.54996 0.13460 0.90298 -0.15400
N 	N 	0.09702 0.04996 0.36540 -0.15400
N 	N 	0.59702 0.45004 0.63460 -0.15400
N 	N 	0.40298 0.95004 0.86540 -0.15400
N 	N 	0.90298 0.54996 0.13460 -0.15400
N 	N 	0.36540 0.09702 0.04996 -0.15400
N 	N 	0.63460 0.59702 0.45004 -0.15400
N 	N 	0.86540 0.40298 0.95004 -0.15400
N 	N 	0.13460 0.90298 0.54996 -0.15400
N 	N 	0.95004 0.63460 0.90298 -0.15400
N 	N 	0.54996 0.36540 0.40298 -0.15400
N 	N 	0.04996 0.13460 0.59702 -0.15400
N 	N 	0.45004 0.86540 0.09702 -0.15400
N 	N 	0.90298 0.95004 0.63460 -0.15400
N 	N 	0.40298 0.54996 0.36540 -0.15400
N 	N 	0.59702 0.04996 0.13460 -0.15400
N 	N 	0.09702 0.45004 0.86540 -0.15400
N 	N 	0.63460 0.90298 0.95004 -0.15400
N 	N 	0.36540 0.40298 0.54996 -0.15400
N 	N 	0.13460 0.59702 0.04996 -0.15400
N 	N 	0.86540 0.09702 0.45004 -0.15400
N 	N 	0.11637 0.30898 0.14977 -0.15700
N 	N 	0.38363 0.69102 0.64977 -0.15700
N 	N 	0.88363 0.80898 0.35023 -0.15700
N 	N 	0.61637 0.19102 0.85023 -0.15700
N 	N 	0.14977 0.11637 0.30898 -0.15700
N 	N 	0.64977 0.38363 0.69102 -0.15700
N 	N 	0.35023 0.88363 0.80898 -0.15700
N 	N 	0.85023 0.61637 0.19102 -0.15700
N 	N 	0.30898 0.14977 0.11637 -0.15700
N 	N 	0.69102 0.64977 0.38363 -0.15700
N 	N 	0.80898 0.35023 0.88363 -0.15700
N 	N 	0.19102 0.85023 0.61637 -0.15700
N 	N 	0.88363 0.69102 0.85023 -0.15700
N 	N 	0.61637 0.30898 0.35023 -0.15700
N 	N 	0.11637 0.19102 0.64977 -0.15700
N 	N 	0.38363 0.80898 0.14977 -0.15700
N 	N 	0.85023 0.88363 0.69102 -0.15700
N 	N 	0.35023 0.61637 0.30898 -0.15700
N 	N 	0.64977 0.11637 0.19102 -0.15700
N 	N 	0.14977 0.38363 0.80898 -0.15700
N 	N 	0.69102 0.85023 0.88363 -0.15700
N 	N 	0.30898 0.35023 0.61637 -0.15700
N 	N 	0.19102 0.64977 0.11637 -0.15700
N 	N 	0.80898 0.14977 0.38363 -0.15700
N 	N 	0.09958 0.27316 0.20315 -0.15900
N 	N 	0.40042 0.72684 0.70315 -0.15900
N 	N 	0.90042 0.77316 0.29685 -0.15900
N 	N 	0.59958 0.22684 0.79685 -0.15900
N 	N 	0.20315 0.09958 0.27316 -0.15900
N 	N 	0.70315 0.40042 0.72684 -0.15900
N 	N 	0.29685 0.90042 0.77316 -0.15900
N 	N 	0.79685 0.59958 0.22684 -0.15900
N 	N 	0.27316 0.20315 0.09958 -0.15900
N 	N 	0.72684 0.70315 0.40042 -0.15900
N 	N 	0.77316 0.29685 0.90042 -0.15900
N 	N 	0.22684 0.79685 0.59958 -0.15900
N 	N 	0.90042 0.72684 0.79685 -0.15900
N 	N 	0.59958 0.27316 0.29685 -0.15900
N 	N 	0.09958 0.22684 0.70315 -0.15900
N 	N 	0.40042 0.77316 0.20315 -0.15900
N 	N 	0.79685 0.90042 0.72684 -0.15900
N 	N 	0.29685 0.59958 0.27316 -0.15900
N 	N 	0.70315 0.09958 0.22684 -0.15900
N 	N 	0.20315 0.40042 0.77316 -0.15900
N 	N 	0.72684 0.79685 0.90042 -0.15900
N 	N 	0.27316 0.29685 0.59958 -0.15900
N 	N 	0.22684 0.70315 0.09958 -0.15900
N 	N 	0.77316 0.20315 0.40042 -0.15900
N 	N 	0.06549 0.35891 0.16780 -0.16400
N 	N 	0.43451 0.64109 0.66780 -0.16400
N 	N 	0.93451 0.85891 0.33220 -0.16400
N 	N 	0.56549 0.14109 0.83220 -0.16400
N 	N 	0.16780 0.06549 0.35891 -0.16400
N 	N 	0.66780 0.43451 0.64109 -0.16400
N 	N 	0.33220 0.93451 0.85891 -0.16400
N 	N 	0.83220 0.56549 0.14109 -0.16400
N 	N 	0.35891 0.16780 0.06549 -0.16400
N 	N 	0.64109 0.66780 0.43451 -0.16400
N 	N 	0.85891 0.33220 0.93451 -0.16400
N 	N 	0.14109 0.83220 0.56549 -0.16400
N 	N 	0.93451 0.64109 0.83220 -0.16400
N 	N 	0.56549 0.35891 0.33220 -0.16400
N 	N 	0.06549 0.14109 0.66780 -0.16400
N 	N 	0.43451 0.85891 0.16780 -0.16400
N 	N 	0.83220 0.93451 0.64109 -0.16400
N 	N 	0.33220 0.56549 0.35891 -0.16400
N 	N 	0.66780 0.06549 0.14109 -0.16400
N 	N 	0.16780 0.43451 0.85891 -0.16400
N 	N 	0.64109 0.83220 0.93451 -0.16400
N 	N 	0.35891 0.33220 0.56549 -0.16400
N 	N 	0.14109 0.66780 0.06549 -0.16400
N 	N 	0.85891 0.16780 0.43451 -0.16400
N 	N 	0.04936 0.32259 0.22142 -0.16600
N 	N 	0.45064 0.67741 0.72142 -0.16600
N 	N 	0.95064 0.82259 0.27858 -0.16600
N 	N 	0.54936 0.17741 0.77858 -0.16600
N 	N 	0.22142 0.04936 0.32259 -0.16600
N 	N 	0.72142 0.45064 0.67741 -0.16600
N 	N 	0.27858 0.95064 0.82259 -0.16600
N 	N 	0.77858 0.54936 0.17741 -0.16600
N 	N 	0.32259 0.22142 0.04936 -0.16600
N 	N 	0.67741 0.72142 0.45064 -0.16600
N 	N 	0.82259 0.27858 0.95064 -0.16600
N 	N 	0.17741 0.77858 0.54936 -0.16600
N 	N 	0.95064 0.67741 0.77858 -0.16600
N 	N 	0.54936 0.32259 0.27858 -0.16600
N 	N 	0.04936 0.17741 0.72142 -0.16600
N 	N 	0.45064 0.82259 0.22142 -0.16600
N 	N 	0.77858 0.95064 0.67741 -0.16600
N 	N 	0.27858 0.54936 0.32259 -0.16600
N 	N 	0.72142 0.04936 0.17741 -0.16600
N 	N 	0.22142 0.45064 0.82259 -0.16600
N 	N 	0.67741 0.77858 0.95064 -0.16600
N 	N 	0.32259 0.27858 0.54936 -0.16600
N 	N 	0.17741 0.72142 0.04936 -0.16600
N 	N 	0.82259 0.22142 0.45064 -0.16600
O 	O 	0.07008 0.17220 0.18047 -0.30000
O 	O 	0.42992 0.82780 0.68047 -0.30000
O 	O 	0.92992 0.67220 0.31953 -0.30000
O 	O 	0.57008 0.32780 0.81953 -0.30000
O 	O 	0.18047 0.07008 0.17220 -0.30000
O 	O 	0.68047 0.42992 0.82780 -0.30000
O 	O 	0.31953 0.92992 0.67220 -0.30000
O 	O 	0.81953 0.57008 0.32780 -0.30000
O 	O 	0.17220 0.18047 0.07008 -0.30000
O 	O 	0.82780 0.68047 0.42992 -0.30000
O 	O 	0.67220 0.31953 0.92992 -0.30000
O 	O 	0.32780 0.81953 0.57008 -0.30000
O 	O 	0.92992 0.82780 0.81953 -0.30000
O 	O 	0.57008 0.17220 0.31953 -0.30000
O 	O 	0.07008 0.32780 0.68047 -0.30000
O 	O 	0.42992 0.67220 0.18047 -0.30000
O 	O 	0.81953 0.92992 0.82780 -0.30000
O 	O 	0.31953 0.57008 0.17220 -0.30000
O 	O 	0.68047 0.07008 0.32780 -0.30000
O 	O 	0.18047 0.42992 0.67220 -0.30000
O 	O 	0.82780 0.81953 0.92992 -0.30000
O 	O 	0.17220 0.31953 0.57008 -0.30000
O 	O 	0.32780 0.68047 0.07008 -0.30000
O 	O 	0.67220 0.18047 0.42992 -0.30000
O 	O 	0.02037 0.14037 0.11054 -0.26000
O 	O 	0.47963 0.85963 0.61054 -0.26000
O 	O 	0.97963 0.64037 0.38946 -0.26000
O 	O 	0.52037 0.35963 0.88946 -0.26000
O 	O 	0.11054 0.02037 0.14037 -0.26000
O 	O 	0.61054 0.47963 0.85963 -0.26000
O 	O 	0.38946 0.97963 0.64037 -0.26000
O 	O 	0.88946 0.52037 0.35963 -0.26000
O 	O 	0.14037 0.11054 0.02037 -0.26000
O 	O 	0.85963 0.61054 0.47963 -0.26000
O 	O 	0.64037 0.38946 0.97963 -0.26000
O 	O 	0.35963 0.88946 0.52037 -0.26000
O 	O 	0.97963 0.85963 0.88946 -0.26000
O 	O 	0.52037 0.14037 0.38946 -0.26000
O 	O 	0.02037 0.35963 0.61054 -0.26000
O 	O 	0.47963 0.64037 0.11054 -0.26000
O 	O 	0.88946 0.97963 0.85963 -0.26000
O 	O 	0.38946 0.52037 0.14037 -0.26000
O 	O 	0.61054 0.02037 0.35963 -0.26000
O 	O 	0.11054 0.47963 0.64037 -0.26000
O 	O 	0.85963 0.88946 0.97963 -0.26000
O 	O 	0.14037 0.38946 0.52037 -0.26000
O 	O 	0.35963 0.61054 0.02037 -0.26000
O 	O 	0.64037 0.11054 0.47963 -0.26000
O 	O 	0.04266 0.19218 0.03264 -0.26600
O 	O 	0.45734 0.80782 0.53264 -0.26600
O 	O 	0.95734 0.69218 0.46736 -0.26600
O 	O 	0.54266 0.30782 0.96736 -0.26600
O 	O 	0.03264 0.04266 0.19218 -0.26600
O 	O 	0.53264 0.45734 0.80782 -0.26600
O 	O 	0.46736 0.95734 0.69218 -0.26600
O 	O 	0.96736 0.54266 0.30782 -0.26600
O 	O 	0.19218 0.03264 0.04266 -0.26600
O 	O 	0.80782 0.53264 0.45734 -0.26600
O 	O 	0.69218 0.46736 0.95734 -0.26600
O 	O 	0.30782 0.96736 0.54266 -0.26600
O 	O 	0.95734 0.80782 0.96736 -0.26600
O 	O 	0.54266 0.19218 0.46736 -0.26600
O 	O 	0.04266 0.30782 0.53264 -0.26600
O 	O 	0.45734 0.69218 0.03264 -0.26600
O 	O 	0.96736 0.95734 0.80782 -0.26600
O 	O 	0.46736 0.54266 0.19218 -0.26600
O 	O 	0.53264 0.04266 0.30782 -0.26600
O 	O 	0.03264 0.45734 0.69218 -0.26600
O 	O 	0.80782 0.96736 0.95734 -0.26600
O 	O 	0.19218 0.46736 0.54266 -0.26600
O 	O 	0.30782 0.53264 0.04266 -0.26600
O 	O 	0.69218 0.03264 0.45734 -0.26600
O 	O 	0.10763 0.25185 0.05836 -0.28000
O 	O 	0.39237 0.74815 0.55836 -0.28000
O 	O 	0.89237 0.75185 0.44164 -0.28000
O 	O 	0.60763 0.24815 0.94164 -0.28000
O 	O 	0.05836 0.10763 0.25185 -0.28000
O 	O 	0.55836 0.39237 0.74815 -0.28000
O 	O 	0.44164 0.89237 0.75185 -0.28000
O 	O 	0.94164 0.60763 0.24815 -0.28000
O 	O 	0.25185 0.05836 0.10763 -0.28000
O 	O 	0.74815 0.55836 0.39237 -0.28000
O 	O 	0.75185 0.44164 0.89237 -0.28000
O 	O 	0.24815 0.94164 0.60763 -0.28000
O 	O 	0.89237 0.74815 0.94164 -0.28000
O 	O 	0.60763 0.25185 0.44164 -0.28000
O 	O 	0.10763 0.24815 0.55836 -0.28000
O 	O 	0.39237 0.75185 0.05836 -0.28000
O 	O 	0.94164 0.89237 0.74815 -0.28000
O 	O 	0.44164 0.60763 0.25185 -0.28000
O 	O 	0.55836 0.10763 0.24815 -0.28000
O 	O 	0.05836 0.39237 0.75185 -0.28000
O 	O 	0.74815 0.94164 0.89237 -0.28000
O 	O 	0.25185 0.44164 0.60763 -0.28000
O 	O 	0.24815 0.55836 0.10763 -0.28000
O 	O 	0.75185 0.05836 0.39237 -0.28000
O 	O 	0.12802 0.24131 0.14890 -0.26200
O 	O 	0.37198 0.75869 0.64890 -0.26200
O 	O 	0.87198 0.74131 0.35110 -0.26200
O 	O 	0.62802 0.25869 0.85110 -0.26200
O 	O 	0.14890 0.12802 0.24131 -0.26200
O 	O 	0.64890 0.37198 0.75869 -0.26200
O 	O 	0.35110 0.87198 0.74131 -0.26200
O 	O 	0.85110 0.62802 0.25869 -0.26200
O 	O 	0.24131 0.14890 0.12802 -0.26200
O 	O 	0.75869 0.64890 0.37198 -0.26200
O 	O 	0.74131 0.35110 0.87198 -0.26200
O 	O 	0.25869 0.85110 0.62802 -0.26200
O 	O 	0.87198 0.75869 0.85110 -0.26200
O 	O 	0.62802 0.24131 0.35110 -0.26200
O 	O 	0.12802 0.25869 0.64890 -0.26200
O 	O 	0.37198 0.74131 0.14890 -0.26200
O 	O 	0.85110 0.87198 0.75869 -0.26200
O 	O 	0.35110 0.62802 0.24131 -0.26200
O 	O 	0.64890 0.12802 0.25869 -0.26200
O 	O 	0.14890 0.37198 0.74131 -0.26200
O 	O 	0.75869 0.85110 0.87198 -0.26200
O 	O 	0.24131 0.35110 0.62802 -0.26200
O 	O 	0.25869 0.64890 0.12802 -0.26200
O 	O 	0.74131 0.14890 0.37198 -0.26200
O 	O 	0.94528 0.29352 0.22505 -0.26800
O 	O 	0.55472 0.70648 0.72505 -0.26800
O 	O 	0.05472 0.79352 0.27495 -0.26800
O 	O 	0.44528 0.20648 0.77495 -0.26800
O 	O 	0.22505 0.94528 0.29352 -0.26800
O 	O 	0.72505 0.55472 0.70648 -0.26800
O 	O 	0.27495 0.05472 0.79352 -0.26800
O 	O 	0.77495 0.44528 0.20648 -0.26800
O 	O 	0.29352 0.22505 0.94528 -0.26800
O 	O 	0.70648 0.72505 0.55472 -0.26800
O 	O 	0.79352 0.27495 0.05472 -0.26800
O 	O 	0.20648 0.77495 0.44528 -0.26800
O 	O 	0.05472 0.70648 0.77495 -0.26800
O 	O 	0.44528 0.29352 0.27495 -0.26800
O 	O 	0.94528 0.20648 0.72505 -0.26800
O 	O 	0.55472 0.79352 0.22505 -0.26800
O 	O 	0.77495 0.05472 0.70648 -0.26800
O 	O 	0.27495 0.44528 0.29352 -0.26800
O 	O 	0.72505 0.94528 0.20648 -0.26800
O 	O 	0.22505 0.55472 0.79352 -0.26800
O 	O 	0.70648 0.77495 0.05472 -0.26800
O 	O 	0.29352 0.27495 0.44528 -0.26800
O 	O 	0.20648 0.72505 0.94528 -0.26800
O 	O 	0.79352 0.22505 0.55472 -0.26800
O 	O 	0.89209 0.26398 0.15368 -0.26200
O 	O 	0.60791 0.73602 0.65368 -0.26200
O 	O 	0.10791 0.76398 0.34632 -0.26200
O 	O 	0.39209 0.23602 0.84632 -0.26200
O 	O 	0.15368 0.89209 0.26398 -0.26200
O 	O 	0.65368 0.60791 0.73602 -0.26200
O 	O 	0.34632 0.10791 0.76398 -0.26200
O 	O 	0.84632 0.39209 0.23602 -0.26200
O 	O 	0.26398 0.15368 0.89209 -0.26200
O 	O 	0.73602 0.65368 0.60791 -0.26200
O 	O 	0.76398 0.34632 0.10791 -0.26200
O 	O 	0.23602 0.84632 0.39209 -0.26200
O 	O 	0.10791 0.73602 0.84632 -0.26200
O 	O 	0.39209 0.26398 0.34632 -0.26200
O 	O 	0.89209 0.23602 0.65368 -0.26200
O 	O 	0.60791 0.76398 0.15368 -0.26200
O 	O 	0.84632 0.10791 0.73602 -0.26200
O 	O 	0.34632 0.39209 0.26398 -0.26200
O 	O 	0.65368 0.89209 0.23602 -0.26200
O 	O 	0.15368 0.60791 0.76398 -0.26200
O 	O 	0.73602 0.84632 0.10791 -0.26200
O 	O 	0.26398 0.34632 0.39209 -0.26200
O 	O 	0.23602 0.65368 0.89209 -0.26200
O 	O 	0.76398 0.15368 0.60791 -0.26200
O 	O 	0.91705 0.31172 0.07753 -0.30900
O 	O 	0.58295 0.68828 0.57753 -0.30900
O 	O 	0.08295 0.81172 0.42247 -0.30900
O 	O 	0.41705 0.18828 0.92247 -0.30900
O 	O 	0.07753 0.91705 0.31172 -0.30900
O 	O 	0.57753 0.58295 0.68828 -0.30900
O 	O 	0.42247 0.08295 0.81172 -0.30900
O 	O 	0.92247 0.41705 0.18828 -0.30900
O 	O 	0.31172 0.07753 0.91705 -0.30900
O 	O 	0.68828 0.57753 0.58295 -0.30900
O 	O 	0.81172 0.42247 0.08295 -0.30900
O 	O 	0.18828 0.92247 0.41705 -0.30900
O 	O 	0.08295 0.68828 0.92247 -0.30900
O 	O 	0.41705 0.31172 0.42247 -0.30900
O 	O 	0.91705 0.18828 0.57753 -0.30900
O 	O 	0.58295 0.81172 0.07753 -0.30900
O 	O 	0.92247 0.08295 0.68828 -0.30900
O 	O 	0.42247 0.41705 0.31172 -0.30900
O 	O 	0.57753 0.91705 0.18828 -0.30900
O 	O 	0.07753 0.58295 0.81172 -0.30900
O 	O 	0.68828 0.92247 0.08295 -0.30900
O 	O 	0.31172 0.42247 0.41705 -0.30900
O 	O 	0.18828 0.57753 0.91705 -0.30900
O 	O 	0.81172 0.07753 0.58295 -0.30900
O 	O 	0.98147 0.37506 0.10105 -0.26100
O 	O 	0.51853 0.62494 0.60105 -0.26100
O 	O 	0.01853 0.87506 0.39895 -0.26100
O 	O 	0.48147 0.12494 0.89895 -0.26100
O 	O 	0.10105 0.98147 0.37506 -0.26100
O 	O 	0.60105 0.51853 0.62494 -0.26100
O 	O 	0.39895 0.01853 0.87506 -0.26100
O 	O 	0.89895 0.48147 0.12494 -0.26100
O 	O 	0.37506 0.10105 0.98147 -0.26100
O 	O 	0.62494 0.60105 0.51853 -0.26100
O 	O 	0.87506 0.39895 0.01853 -0.26100
O 	O 	0.12494 0.89895 0.48147 -0.26100
O 	O 	0.01853 0.62494 0.89895 -0.26100
O 	O 	0.48147 0.37506 0.39895 -0.26100
O 	O 	0.98147 0.12494 0.60105 -0.26100
O 	O 	0.51853 0.87506 0.10105 -0.26100
O 	O 	0.89895 0.01853 0.62494 -0.26100
O 	O 	0.39895 0.48147 0.37506 -0.26100
O 	O 	0.60105 0.98147 0.12494 -0.26100
O 	O 	0.10105 0.51853 0.87506 -0.26100
O 	O 	0.62494 0.89895 0.01853 -0.26100
O 	O 	0.37506 0.39895 0.48147 -0.26100
O 	O 	0.12494 0.60105 0.98147 -0.26100
O 	O 	0.87506 0.10105 0.51853 -0.26100
O 	O 	0.00067 0.36205 0.19212 -0.27100
O 	O 	0.49933 0.63795 0.69212 -0.27100
O 	O 	0.99933 0.86205 0.30788 -0.27100
O 	O 	0.50067 0.13795 0.80788 -0.27100
O 	O 	0.19212 0.00067 0.36205 -0.27100
O 	O 	0.69212 0.49933 0.63795 -0.27100
O 	O 	0.30788 0.99933 0.86205 -0.27100
O 	O 	0.80788 0.50067 0.13795 -0.27100
O 	O 	0.36205 0.19212 0.00067 -0.27100
O 	O 	0.63795 0.69212 0.49933 -0.27100
O 	O 	0.86205 0.30788 0.99933 -0.27100
O 	O 	0.13795 0.80788 0.50067 -0.27100
O 	O 	0.99933 0.63795 0.80788 -0.27100
O 	O 	0.50067 0.36205 0.30788 -0.27100
O 	O 	0.00067 0.13795 0.69212 -0.27100
O 	O 	0.49933 0.86205 0.19212 -0.27100
O 	O 	0.80788 0.99933 0.63795 -0.27100
O 	O 	0.30788 0.50067 0.36205 -0.27100
O 	O 	0.69212 0.00067 0.13795 -0.27100
O 	O 	0.19212 0.49933 0.86205 -0.27100
O 	O 	0.63795 0.80788 0.99933 -0.27100
O 	O 	0.36205 0.30788 0.50067 -0.27100
O 	O 	0.13795 0.69212 0.00067 -0.27100
O 	O 	0.86205 0.19212 0.49933 -0.27100
K 	K 	0.09164 0.18138 0.09758 0.67300
K 	K 	0.40836 0.81862 0.59758 0.67300
K 	K 	0.90836 0.68138 0.40242 0.67300
K 	K 	0.59164 0.31862 0.90242 0.67300
K 	K 	0.09758 0.09164 0.18138 0.67300
K 	K 	0.59758 0.40836 0.81862 0.67300
K 	K 	0.40242 0.90836 0.68138 0.67300
K 	K 	0.90242 0.59164 0.31862 0.67300
K 	K 	0.18138 0.09758 0.09164 0.67300
K 	K 	0.81862 0.59758 0.40836 0.67300
K 	K 	0.68138 0.40242 0.90836 0.67300
K 	K 	0.31862 0.90242 0.59164 0.67300
K 	K 	0.90836 0.81862 0.90242 0.67300
K 	K 	0.59164 0.18138 0.40242 0.67300
K 	K 	0.09164 0.31862 0.59758 0.67300
K 	K 	0.40836 0.68138 0.09758 0.67300
K 	K 	0.90242 0.90836 0.81862 0.67300
K 	K 	0.40242 0.59164 0.18138 0.67300
K 	K 	0.59758 0.09164 0.31862 0.67300
K 	K 	0.09758 0.40836 0.68138 0.67300
K 	K 	0.81862 0.90242 0.90836 0.67300
K 	K 	0.18138 0.40242 0.59164 0.67300
K 	K 	0.31862 0.59758 0.09164 0.67300
K 	K 	0.68138 0.09758 0.40836 0.67300
K 	K 	0.92911 0.34018 0.15565 0.67300
K 	K 	0.57089 0.65982 0.65565 0.67300
K 	K 	0.07089 0.84018 0.34435 0.67300
K 	K 	0.42911 0.15982 0.84435 0.67300
K 	K 	0.15565 0.92911 0.34018 0.67300
K 	K 	0.65565 0.57089 0.65982 0.67300
K 	K 	0.34435 0.07089 0.84018 0.67300
K 	K 	0.84435 0.42911 0.15982 0.67300
K 	K 	0.34018 0.15565 0.92911 0.67300
K 	K 	0.65982 0.65565 0.57089 0.67300
K 	K 	0.84018 0.34435 0.07089 0.67300
K 	K 	0.15982 0.84435 0.42911 0.67300
K 	K 	0.07089 0.65982 0.84435 0.67300
K 	K 	0.42911 0.34018 0.34435 0.67300
K 	K 	0.92911 0.15982 0.65565 0.67300
K 	K 	0.57089 0.84018 0.15565 0.67300
K 	K 	0.84435 0.07089 0.65982 0.67300
K 	K 	0.34435 0.42911 0.34018 0.67300
K 	K 	0.65565 0.92911 0.15982 0.67300
K 	K 	0.15565 0.57089 0.84018 0.67300
K 	K 	0.65982 0.84435 0.07089 0.67300
K 	K 	0.34018 0.34435 0.42911 0.67300
K 	K 	0.15982 0.65565 0.92911 0.67300
K 	K 	0.84018 0.15565 0.57089 0.67300
O 	O 	0.90041 0.40041 0.09959 -0.19400
O 	O 	0.59959 0.59959 0.59959 -0.19400
O 	O 	0.09959 0.90041 0.40041 -0.19400
O 	O 	0.40041 0.09959 0.90041 -0.19400
O 	O 	0.09959 0.59959 0.90041 -0.19400
O 	O 	0.40041 0.40041 0.40041 -0.19400
O 	O 	0.90041 0.09959 0.59959 -0.19400
O 	O 	0.59959 0.90041 0.09959 -0.19400
O 	O 	0.84116 0.34116 0.15884 -0.21700
O 	O 	0.65884 0.65884 0.65884 -0.21700
O 	O 	0.15884 0.84116 0.34116 -0.21700
O 	O 	0.34116 0.15884 0.84116 -0.21700
O 	O 	0.15884 0.65884 0.84116 -0.21700
O 	O 	0.34116 0.34116 0.34116 -0.21700
O 	O 	0.84116 0.15884 0.65884 -0.21700
O 	O 	0.65884 0.84116 0.15884 -0.21700
O 	O 	0.15904 0.15904 0.15904 -0.17100
O 	O 	0.34096 0.84096 0.65904 -0.17100
O 	O 	0.84096 0.65904 0.34096 -0.17100
O 	O 	0.65904 0.34096 0.84096 -0.17100
O 	O 	0.84096 0.84096 0.84096 -0.17100
O 	O 	0.65904 0.15904 0.34096 -0.17100
O 	O 	0.15904 0.34096 0.65904 -0.17100
O 	O 	0.34096 0.65904 0.15904 -0.17100
O 	O 	0.09761 0.09761 0.09761 -0.23000
O 	O 	0.40239 0.90239 0.59761 -0.23000
O 	O 	0.90239 0.59761 0.40239 -0.23000
O 	O 	0.59761 0.40239 0.90239 -0.23000
O 	O 	0.90239 0.90239 0.90239 -0.23000
O 	O 	0.59761 0.09761 0.40239 -0.23000
O 	O 	0.09761 0.40239 0.59761 -0.23000
O 	O 	0.40239 0.59761 0.09761 -0.23000
