data_crystal

_cell_length_a 45.70800
_cell_length_b 45.70800
_cell_length_c 7.98190
_cell_angle_alpha 90.00000
_cell_angle_beta  90.00000
_cell_angle_gamma 90.00000

_symmetry_space_group_name_	'P 1'
_symmetry_space_group_name_H-M	'P 1'

loop_
_symmetry_equiv_pos_as_xyz
  x,y,z

loop_
_atom_site_label
_atom_site_type_symbol
_atom_site_fract_x
_atom_site_fract_y
_atom_site_fract_z
_atom_site_charge
N 	N 	0.53740 0.27250 0.12100 -0.22900
C 	C 	0.54040 0.30420 0.11710 0.09300
C 	C 	0.57100 0.30930 0.07490 -0.08100
H 	H 	0.57930 0.32810 0.05860 0.06200
C 	C 	0.58590 0.28380 0.06190 -0.07900
H 	H 	0.60610 0.28170 0.03720 0.06000
C 	C 	0.56540 0.26060 0.09260 0.08600
C 	C 	0.57420 0.23100 0.10630 -0.13700
C 	C 	0.60460 0.22320 0.09200 0.13200
C 	C 	0.62460 0.23740 0.19110 -0.19100
H 	H 	0.61810 0.25130 0.27200 0.09900
C 	C 	0.65430 0.23150 0.17300 0.12400
H 	H 	0.66830 0.24030 0.24480 0.00000
C 	C 	0.66240 0.21300 0.05300 -0.19100
C 	C 	0.64320 0.19730 0.95530 0.11000
H 	H 	0.65020 0.18320 0.87740 0.01800
C 	C 	0.61350 0.20240 0.97400 -0.16600
H 	H 	0.59950 0.19210 0.90790 0.09100
S 	S 	0.70142 0.20580 0.00280 0.73200
O 	O 	0.71240 0.19770 0.15700 -0.32400
O 	O 	0.71340 0.23250 0.98100 -0.41400
O 	O 	0.70400 0.18570 0.89100 -0.33500
N 	N 	0.03740 0.77250 0.62100 -0.22700
C 	C 	0.04040 0.80420 0.61710 0.09500
C 	C 	0.07100 0.80930 0.57490 -0.07600
H 	H 	0.07930 0.82810 0.55860 0.06500
C 	C 	0.08590 0.78380 0.56190 -0.07800
H 	H 	0.10610 0.78170 0.53720 0.06400
C 	C 	0.06540 0.76060 0.59260 0.09400
C 	C 	0.07420 0.73100 0.60630 -0.14200
C 	C 	0.10460 0.72320 0.59200 0.15500
C 	C 	0.12460 0.73740 0.69110 -0.19800
H 	H 	0.11810 0.75130 0.77200 0.10600
C 	C 	0.15430 0.73150 0.67300 0.13400
H 	H 	0.16830 0.74030 0.74480 0.00200
C 	C 	0.16240 0.71300 0.55300 -0.18700
C 	C 	0.14320 0.69730 0.45530 0.10700
H 	H 	0.15020 0.68320 0.37740 0.01800
C 	C 	0.11350 0.70240 0.47400 -0.18600
H 	H 	0.09950 0.69210 0.40790 0.09600
S 	S 	0.20142 0.70580 0.50280 0.77800
O 	O 	0.21240 0.69770 0.65700 -0.32900
O 	O 	0.21340 0.73250 0.48100 -0.43600
O 	O 	0.20400 0.68570 0.39100 -0.35700
N 	N 	0.96260 0.72750 0.62100 -0.22500
C 	C 	0.95960 0.69580 0.61710 0.09000
C 	C 	0.92900 0.69070 0.57490 -0.07300
H 	H 	0.92070 0.67190 0.55860 0.06400
C 	C 	0.91410 0.71620 0.56190 -0.08000
H 	H 	0.89390 0.71830 0.53720 0.06500
C 	C 	0.93460 0.73940 0.59260 0.09400
C 	C 	0.92580 0.76900 0.60630 -0.14100
C 	C 	0.89540 0.77680 0.59200 0.15400
C 	C 	0.87540 0.76260 0.69110 -0.19800
H 	H 	0.88190 0.74870 0.77200 0.10600
C 	C 	0.84570 0.76850 0.67300 0.13300
H 	H 	0.83170 0.75970 0.74480 0.00200
C 	C 	0.83760 0.78700 0.55300 -0.18700
C 	C 	0.85680 0.80270 0.45530 0.10700
H 	H 	0.84980 0.81680 0.37740 0.01800
C 	C 	0.88650 0.79760 0.47400 -0.18600
H 	H 	0.90050 0.80790 0.40790 0.09600
S 	S 	0.79858 0.79420 0.50280 0.77800
O 	O 	0.78760 0.80230 0.65700 -0.32900
O 	O 	0.78660 0.76750 0.48100 -0.43600
O 	O 	0.79600 0.81430 0.39100 -0.35700
N 	N 	0.46260 0.22750 0.12100 -0.22800
C 	C 	0.45960 0.19580 0.11710 0.09400
C 	C 	0.42900 0.19070 0.07490 -0.08000
H 	H 	0.42070 0.17190 0.05860 0.06300
C 	C 	0.41410 0.21620 0.06190 -0.07800
H 	H 	0.39390 0.21830 0.03720 0.06100
C 	C 	0.43460 0.23940 0.09260 0.08700
C 	C 	0.42580 0.26900 0.10630 -0.13600
C 	C 	0.39540 0.27680 0.09200 0.13300
C 	C 	0.37540 0.26260 0.19110 -0.19000
H 	H 	0.38190 0.24870 0.27200 0.10000
C 	C 	0.34570 0.26850 0.17300 0.12500
H 	H 	0.33170 0.25970 0.24480 0.00100
C 	C 	0.33760 0.28700 0.05300 -0.19000
C 	C 	0.35680 0.30270 0.95530 0.11100
H 	H 	0.34980 0.31680 0.87740 0.01900
C 	C 	0.38650 0.29760 0.97400 -0.16500
H 	H 	0.40050 0.30790 0.90790 0.09200
S 	S 	0.29858 0.29420 0.00280 0.73200
O 	O 	0.28760 0.30230 0.15700 -0.32400
O 	O 	0.28660 0.26750 0.98100 -0.41400
O 	O 	0.29600 0.31430 0.89100 -0.33500
N 	N 	0.97750 0.28740 0.37100 -0.22700
C 	C 	0.94580 0.29040 0.36710 0.09000
C 	C 	0.94070 0.32100 0.32490 -0.07500
H 	H 	0.92190 0.32930 0.30860 0.06200
C 	C 	0.96620 0.33590 0.31190 -0.08300
H 	H 	0.96830 0.35610 0.28720 0.06500
C 	C 	0.98940 0.31540 0.34260 0.09800
C 	C 	0.01900 0.32420 0.35630 -0.15000
C 	C 	0.02680 0.35460 0.34200 0.16100
C 	C 	0.01260 0.37460 0.44110 -0.21300
H 	H 	0.99870 0.36810 0.52200 0.11000
C 	C 	0.01850 0.40430 0.42300 0.14100
H 	H 	0.00970 0.41830 0.49480 -0.00400
C 	C 	0.03700 0.41240 0.30300 -0.19400
C 	C 	0.05270 0.39320 0.20530 0.11100
H 	H 	0.06680 0.40020 0.12740 0.01500
C 	C 	0.04760 0.36350 0.22400 -0.19200
H 	H 	0.05790 0.34950 0.15790 0.09600
S 	S 	0.04420 0.45142 0.25280 0.78100
O 	O 	0.05230 0.46240 0.40700 -0.33100
O 	O 	0.01750 0.46340 0.23100 -0.44100
O 	O 	0.06430 0.45400 0.14100 -0.36000
N 	N 	0.47750 0.78740 0.87100 -0.22600
C 	C 	0.44580 0.79040 0.86710 0.09500
C 	C 	0.44070 0.82100 0.82490 -0.07700
H 	H 	0.42190 0.82930 0.80860 0.06700
C 	C 	0.46620 0.83590 0.81190 -0.07500
H 	H 	0.46830 0.85610 0.78720 0.06500
C 	C 	0.48940 0.81540 0.84260 0.09100
C 	C 	0.51900 0.82420 0.85630 -0.13300
C 	C 	0.52680 0.85460 0.84200 0.13700
C 	C 	0.51260 0.87460 0.94110 -0.16400
H 	H 	0.49870 0.86810 0.02200 0.08400
C 	C 	0.51850 0.90430 0.92300 0.11100
H 	H 	0.50970 0.91830 0.99480 0.01100
C 	C 	0.53700 0.91240 0.80300 -0.17300
C 	C 	0.55270 0.89320 0.70530 0.09400
H 	H 	0.56680 0.90020 0.62740 0.02200
C 	C 	0.54760 0.86350 0.72400 -0.17300
H 	H 	0.55790 0.84950 0.65790 0.09100
S 	S 	0.54420 0.95142 0.75280 0.77100
O 	O 	0.55230 0.96240 0.90700 -0.32500
O 	O 	0.51750 0.96340 0.73100 -0.43200
O 	O 	0.56430 0.95400 0.64100 -0.35400
N 	N 	0.52250 0.71260 0.87100 -0.22600
C 	C 	0.55420 0.70960 0.86710 0.09500
C 	C 	0.55930 0.67900 0.82490 -0.07700
H 	H 	0.57810 0.67070 0.80860 0.06700
C 	C 	0.53380 0.66410 0.81190 -0.07500
H 	H 	0.53170 0.64390 0.78720 0.06500
C 	C 	0.51060 0.68460 0.84260 0.09100
C 	C 	0.48100 0.67580 0.85630 -0.13300
C 	C 	0.47320 0.64540 0.84200 0.13700
C 	C 	0.48740 0.62540 0.94110 -0.16400
H 	H 	0.50130 0.63190 0.02200 0.08400
C 	C 	0.48150 0.59570 0.92300 0.11200
H 	H 	0.49030 0.58170 0.99480 0.01100
C 	C 	0.46300 0.58760 0.80300 -0.17400
C 	C 	0.44730 0.60680 0.70530 0.09400
H 	H 	0.43320 0.59980 0.62740 0.02200
C 	C 	0.45240 0.63650 0.72400 -0.17300
H 	H 	0.44210 0.65050 0.65790 0.09100
S 	S 	0.45580 0.54858 0.75280 0.77200
O 	O 	0.44770 0.53760 0.90700 -0.32600
O 	O 	0.48250 0.53660 0.73100 -0.43200
O 	O 	0.43570 0.54600 0.64100 -0.35500
N 	N 	0.02250 0.21260 0.37100 -0.22700
C 	C 	0.05420 0.20960 0.36710 0.09000
C 	C 	0.05930 0.17900 0.32490 -0.07800
H 	H 	0.07810 0.17070 0.30860 0.06300
C 	C 	0.03380 0.16410 0.31190 -0.07700
H 	H 	0.03170 0.14390 0.28720 0.06100
C 	C 	0.01060 0.18460 0.34260 0.08500
C 	C 	0.98100 0.17580 0.35630 -0.13500
C 	C 	0.97320 0.14540 0.34200 0.14600
C 	C 	0.98740 0.12540 0.44110 -0.18600
H 	H 	0.00130 0.13190 0.52200 0.09700
C 	C 	0.98150 0.09570 0.42300 0.12500
H 	H 	0.99030 0.08170 0.49480 0.00400
C 	C 	0.96300 0.08760 0.30300 -0.18300
C 	C 	0.94730 0.10680 0.20530 0.10100
H 	H 	0.93320 0.09980 0.12740 0.01900
C 	C 	0.95240 0.13650 0.22400 -0.18100
H 	H 	0.94210 0.15050 0.15790 0.09200
S 	S 	0.95580 0.04858 0.25280 0.77700
O 	O 	0.94770 0.03760 0.40700 -0.33000
O 	O 	0.98250 0.03660 0.23100 -0.43700
O 	O 	0.93570 0.04600 0.14100 -0.35900
N 	N 	0.96260 0.27250 0.87900 -0.22500
C 	C 	0.95960 0.30420 0.88290 0.08700
C 	C 	0.92900 0.30930 0.92510 -0.07000
H 	H 	0.92070 0.32810 0.94140 0.06500
C 	C 	0.91410 0.28380 0.93810 -0.08200
H 	H 	0.89390 0.28170 0.96280 0.06800
C 	C 	0.93460 0.26060 0.90740 0.09700
C 	C 	0.92580 0.23100 0.89370 -0.14700
C 	C 	0.89540 0.22320 0.90800 0.16800
C 	C 	0.87540 0.23740 0.80890 -0.20600
H 	H 	0.88190 0.25130 0.72800 0.10600
C 	C 	0.84570 0.23150 0.82700 0.13900
H 	H 	0.83170 0.24030 0.75520 -0.00100
C 	C 	0.83760 0.21300 0.94700 -0.18600
C 	C 	0.85680 0.19730 0.04470 0.10300
H 	H 	0.84980 0.18320 0.12260 0.01800
C 	C 	0.88650 0.20240 0.02600 -0.20100
H 	H 	0.90050 0.19210 0.09210 0.09800
S 	S 	0.79858 0.20580 0.99720 0.81900
O 	O 	0.78760 0.19770 0.84300 -0.33800
O 	O 	0.78660 0.23250 0.01900 -0.45500
O 	O 	0.79600 0.18570 0.10900 -0.37400
N 	N 	0.46260 0.77250 0.37900 -0.22800
C 	C 	0.45960 0.80420 0.38290 0.09000
C 	C 	0.42900 0.80930 0.42510 -0.07500
H 	H 	0.42070 0.82810 0.44140 0.06500
C 	C 	0.41410 0.78380 0.43810 -0.08000
H 	H 	0.39390 0.78170 0.46280 0.06500
C 	C 	0.43460 0.76060 0.40740 0.09200
C 	C 	0.42580 0.73100 0.39370 -0.14300
C 	C 	0.39540 0.72320 0.40800 0.15300
C 	C 	0.37540 0.73740 0.30890 -0.20000
H 	H 	0.38190 0.75130 0.22800 0.10200
C 	C 	0.34570 0.73150 0.32700 0.13200
H 	H 	0.33170 0.74030 0.25520 -0.00100
C 	C 	0.33760 0.71300 0.44700 -0.18700
C 	C 	0.35680 0.69730 0.54470 0.10600
H 	H 	0.34980 0.68320 0.62260 0.01900
C 	C 	0.38650 0.70240 0.52600 -0.18600
H 	H 	0.40050 0.69210 0.59210 0.09600
S 	S 	0.29858 0.70580 0.49720 0.77900
O 	O 	0.28760 0.69770 0.34300 -0.33300
O 	O 	0.28660 0.73250 0.51900 -0.43500
O 	O 	0.29600 0.68570 0.60900 -0.35500
N 	N 	0.53740 0.72750 0.37900 -0.22800
C 	C 	0.54040 0.69580 0.38290 0.09000
C 	C 	0.57100 0.69070 0.42510 -0.07500
H 	H 	0.57930 0.67190 0.44140 0.06500
C 	C 	0.58590 0.71620 0.43810 -0.08000
H 	H 	0.60610 0.71830 0.46280 0.06500
C 	C 	0.56540 0.73940 0.40740 0.09200
C 	C 	0.57420 0.76900 0.39370 -0.14300
C 	C 	0.60460 0.77680 0.40800 0.15300
C 	C 	0.62460 0.76260 0.30890 -0.20000
H 	H 	0.61810 0.74870 0.22800 0.10200
C 	C 	0.65430 0.76850 0.32700 0.13200
H 	H 	0.66830 0.75970 0.25520 -0.00100
C 	C 	0.66240 0.78700 0.44700 -0.18700
C 	C 	0.64320 0.80270 0.54470 0.10600
H 	H 	0.65020 0.81680 0.62260 0.02000
C 	C 	0.61350 0.79760 0.52600 -0.18600
H 	H 	0.59950 0.80790 0.59210 0.09600
S 	S 	0.70142 0.79420 0.49720 0.77900
O 	O 	0.71240 0.80230 0.34300 -0.33300
O 	O 	0.71340 0.76750 0.51900 -0.43500
O 	O 	0.70400 0.81430 0.60900 -0.35500
N 	N 	0.03740 0.22750 0.87900 -0.22700
C 	C 	0.04040 0.19580 0.88290 0.09100
C 	C 	0.07100 0.19070 0.92510 -0.07300
H 	H 	0.07930 0.17190 0.94140 0.06600
C 	C 	0.08590 0.21620 0.93810 -0.08000
H 	H 	0.10610 0.21830 0.96280 0.06700
C 	C 	0.06540 0.23940 0.90740 0.09700
C 	C 	0.07420 0.26900 0.89370 -0.14700
C 	C 	0.10460 0.27680 0.90800 0.16800
C 	C 	0.12460 0.26260 0.80890 -0.20600
H 	H 	0.11810 0.24870 0.72800 0.10600
C 	C 	0.15430 0.26850 0.82700 0.13900
H 	H 	0.16830 0.25970 0.75520 -0.00100
C 	C 	0.16240 0.28700 0.94700 -0.18600
C 	C 	0.14320 0.30270 0.04470 0.10300
H 	H 	0.15020 0.31680 0.12260 0.01800
C 	C 	0.11350 0.29760 0.02600 -0.20100
H 	H 	0.09950 0.30790 0.09210 0.09800
S 	S 	0.20142 0.29420 0.99720 0.81900
O 	O 	0.21240 0.30230 0.84300 -0.33800
O 	O 	0.21340 0.26750 0.01900 -0.45500
O 	O 	0.20400 0.31430 0.10900 -0.37400
N 	N 	0.52250 0.28740 0.62900 -0.22600
C 	C 	0.55420 0.29040 0.63290 0.09300
C 	C 	0.55930 0.32100 0.67510 -0.07400
H 	H 	0.57810 0.32930 0.69140 0.06700
C 	C 	0.53380 0.33590 0.68810 -0.07900
H 	H 	0.53170 0.35610 0.71280 0.06700
C 	C 	0.51060 0.31540 0.65740 0.09500
C 	C 	0.48100 0.32420 0.64370 -0.14200
C 	C 	0.47320 0.35460 0.65800 0.15400
C 	C 	0.48740 0.37460 0.55890 -0.19900
H 	H 	0.50130 0.36810 0.47800 0.10400
C 	C 	0.48150 0.40430 0.57700 0.13300
H 	H 	0.49030 0.41830 0.50520 0.00000
C 	C 	0.46300 0.41240 0.69700 -0.18500
C 	C 	0.44730 0.39320 0.79470 0.10700
H 	H 	0.43320 0.40020 0.87260 0.02100
C 	C 	0.45240 0.36350 0.77600 -0.18600
H 	H 	0.44210 0.34950 0.84210 0.09900
S 	S 	0.45580 0.45142 0.74720 0.77700
O 	O 	0.44770 0.46240 0.59300 -0.33200
O 	O 	0.48250 0.46340 0.76900 -0.43100
O 	O 	0.43570 0.45400 0.85900 -0.35200
N 	N 	0.02250 0.78740 0.12900 -0.22800
C 	C 	0.05420 0.79040 0.13290 0.08500
C 	C 	0.05930 0.82100 0.17510 -0.07500
H 	H 	0.07810 0.82930 0.19140 0.06100
C 	C 	0.03380 0.83590 0.18810 -0.08300
H 	H 	0.03170 0.85610 0.21280 0.06300
C 	C 	0.01060 0.81540 0.15740 0.08900
C 	C 	0.98100 0.82420 0.14370 -0.14600
C 	C 	0.97320 0.85460 0.15800 0.16700
C 	C 	0.98740 0.87460 0.05890 -0.23100
H 	H 	0.00130 0.86810 0.97800 0.12200
C 	C 	0.98150 0.90430 0.07700 0.15200
H 	H 	0.99030 0.91830 0.00520 -0.01000
C 	C 	0.96300 0.91240 0.19700 -0.19800
C 	C 	0.94730 0.89320 0.29470 0.11600
H 	H 	0.93320 0.90020 0.37260 0.01600
C 	C 	0.95240 0.86350 0.27600 -0.19700
H 	H 	0.94210 0.84950 0.34210 0.10000
S 	S 	0.95580 0.95142 0.24720 0.78300
O 	O 	0.94770 0.96240 0.09300 -0.33500
O 	O 	0.98250 0.96340 0.26900 -0.43600
O 	O 	0.93570 0.95400 0.35900 -0.35600
N 	N 	0.97750 0.71260 0.12900 -0.22800
C 	C 	0.94580 0.70960 0.13290 0.08500
C 	C 	0.94070 0.67900 0.17510 -0.07200
H 	H 	0.92190 0.67070 0.19140 0.06000
C 	C 	0.96620 0.66410 0.18810 -0.08800
H 	H 	0.96830 0.64390 0.21280 0.06600
C 	C 	0.98940 0.68460 0.15740 0.10100
C 	C 	0.01900 0.67580 0.14370 -0.16100
C 	C 	0.02680 0.64540 0.15800 0.18200
C 	C 	0.01260 0.62540 0.05890 -0.25700
H 	H 	0.99870 0.63190 0.97800 0.13500
C 	C 	0.01850 0.59570 0.07700 0.16700
H 	H 	0.00970 0.58170 0.00520 -0.01800
C 	C 	0.03700 0.58760 0.19700 -0.20900
C 	C 	0.05270 0.60680 0.29470 0.12600
H 	H 	0.06680 0.59980 0.37260 0.01300
C 	C 	0.04760 0.63650 0.27600 -0.20900
H 	H 	0.05790 0.65050 0.34210 0.10300
S 	S 	0.04420 0.54858 0.24720 0.78800
O 	O 	0.05230 0.53760 0.09300 -0.33700
O 	O 	0.01750 0.53660 0.26900 -0.44000
O 	O 	0.06430 0.54600 0.35900 -0.35800
N 	N 	0.47750 0.21260 0.62900 -0.22600
C 	C 	0.44580 0.20960 0.63290 0.09300
C 	C 	0.44070 0.17900 0.67510 -0.07400
H 	H 	0.42190 0.17070 0.69140 0.06700
C 	C 	0.46620 0.16410 0.68810 -0.07900
H 	H 	0.46830 0.14390 0.71280 0.06700
C 	C 	0.48940 0.18460 0.65740 0.09500
C 	C 	0.51900 0.17580 0.64370 -0.14200
C 	C 	0.52680 0.14540 0.65800 0.15400
C 	C 	0.51260 0.12540 0.55890 -0.19900
H 	H 	0.49870 0.13190 0.47800 0.10400
C 	C 	0.51850 0.09570 0.57700 0.13300
H 	H 	0.50970 0.08170 0.50520 -0.00000
C 	C 	0.53700 0.08760 0.69700 -0.18600
C 	C 	0.55270 0.10680 0.79470 0.10700
H 	H 	0.56680 0.09980 0.87260 0.02100
C 	C 	0.54760 0.13650 0.77600 -0.18600
H 	H 	0.55790 0.15050 0.84210 0.09900
S 	S 	0.54420 0.04858 0.74720 0.77800
O 	O 	0.55230 0.03760 0.59300 -0.33300
O 	O 	0.51750 0.03660 0.76900 -0.43200
O 	O 	0.56430 0.04600 0.85900 -0.35300
N 	N 	0.46260 0.72750 0.87900 -0.22600
C 	C 	0.45960 0.69580 0.88290 0.08900
C 	C 	0.42900 0.69070 0.92510 -0.07100
H 	H 	0.42070 0.67190 0.94140 0.06500
C 	C 	0.41410 0.71620 0.93810 -0.08100
H 	H 	0.39390 0.71830 0.96280 0.06700
C 	C 	0.43460 0.73940 0.90740 0.09700
C 	C 	0.42580 0.76900 0.89370 -0.14700
C 	C 	0.39540 0.77680 0.90800 0.16800
C 	C 	0.37540 0.76260 0.80890 -0.20600
H 	H 	0.38190 0.74870 0.72800 0.10600
C 	C 	0.34570 0.76850 0.82700 0.13900
H 	H 	0.33170 0.75970 0.75520 -0.00100
C 	C 	0.33760 0.78700 0.94700 -0.18600
C 	C 	0.35680 0.80270 0.04470 0.10300
H 	H 	0.34980 0.81680 0.12260 0.01800
C 	C 	0.38650 0.79760 0.02600 -0.20100
H 	H 	0.40050 0.80790 0.09210 0.09800
S 	S 	0.29858 0.79420 0.99720 0.81900
O 	O 	0.28760 0.80230 0.84300 -0.33800
O 	O 	0.28660 0.76750 0.01900 -0.45500
O 	O 	0.29600 0.81430 0.10900 -0.37400
N 	N 	0.96260 0.22750 0.37900 -0.22600
C 	C 	0.95960 0.19580 0.38290 0.08800
C 	C 	0.92900 0.19070 0.42510 -0.07400
H 	H 	0.92070 0.17190 0.44140 0.06400
C 	C 	0.91410 0.21620 0.43810 -0.08100
H 	H 	0.89390 0.21830 0.46280 0.06500
C 	C 	0.93460 0.23940 0.40740 0.09200
C 	C 	0.92580 0.26900 0.39370 -0.14300
C 	C 	0.89540 0.27680 0.40800 0.15300
C 	C 	0.87540 0.26260 0.30890 -0.20000
H 	H 	0.88190 0.24870 0.22800 0.10200
C 	C 	0.84570 0.26850 0.32700 0.13200
H 	H 	0.83170 0.25970 0.25520 -0.00100
C 	C 	0.83760 0.28700 0.44700 -0.18700
C 	C 	0.85680 0.30270 0.54470 0.10600
H 	H 	0.84980 0.31680 0.62260 0.01900
C 	C 	0.88650 0.29760 0.52600 -0.18600
H 	H 	0.90050 0.30790 0.59210 0.09600
S 	S 	0.79858 0.29420 0.49720 0.77900
O 	O 	0.78760 0.30230 0.34300 -0.33300
O 	O 	0.78660 0.26750 0.51900 -0.43500
O 	O 	0.79600 0.31430 0.60900 -0.35500
N 	N 	0.03740 0.27250 0.37900 -0.22800
C 	C 	0.04040 0.30420 0.38290 0.09300
C 	C 	0.07100 0.30930 0.42510 -0.07700
H 	H 	0.07930 0.32810 0.44140 0.06500
C 	C 	0.08590 0.28380 0.43810 -0.07900
H 	H 	0.10610 0.28170 0.46280 0.06500
C 	C 	0.06540 0.26060 0.40740 0.09200
C 	C 	0.07420 0.23100 0.39370 -0.14300
C 	C 	0.10460 0.22320 0.40800 0.15300
C 	C 	0.12460 0.23740 0.30890 -0.20000
H 	H 	0.11810 0.25130 0.22800 0.10200
C 	C 	0.15430 0.23150 0.32700 0.13200
H 	H 	0.16830 0.24030 0.25520 -0.00100
C 	C 	0.16240 0.21300 0.44700 -0.18700
C 	C 	0.14320 0.19730 0.54470 0.10600
H 	H 	0.15020 0.18320 0.62260 0.01900
C 	C 	0.11350 0.20240 0.52600 -0.18600
H 	H 	0.09950 0.19210 0.59210 0.09600
S 	S 	0.20142 0.20580 0.49720 0.77900
O 	O 	0.21240 0.19770 0.34300 -0.33300
O 	O 	0.21340 0.23250 0.51900 -0.43500
O 	O 	0.20400 0.18570 0.60900 -0.35500
N 	N 	0.53740 0.77250 0.87900 -0.22600
C 	C 	0.54040 0.80420 0.88290 0.08900
C 	C 	0.57100 0.80930 0.92510 -0.07100
H 	H 	0.57930 0.82810 0.94140 0.06500
C 	C 	0.58590 0.78380 0.93810 -0.08100
H 	H 	0.60610 0.78170 0.96280 0.06700
C 	C 	0.56540 0.76060 0.90740 0.09700
C 	C 	0.57420 0.73100 0.89370 -0.14700
C 	C 	0.60460 0.72320 0.90800 0.16800
C 	C 	0.62460 0.73740 0.80890 -0.20600
H 	H 	0.61810 0.75130 0.72800 0.10600
C 	C 	0.65430 0.73150 0.82700 0.13900
H 	H 	0.66830 0.74030 0.75520 -0.00100
C 	C 	0.66240 0.71300 0.94700 -0.18600
C 	C 	0.64320 0.69730 0.04470 0.10300
H 	H 	0.65020 0.68320 0.12260 0.01800
C 	C 	0.61350 0.70240 0.02600 -0.20100
H 	H 	0.59950 0.69210 0.09210 0.09800
S 	S 	0.70142 0.70580 0.99720 0.81900
O 	O 	0.71240 0.69770 0.84300 -0.33800
O 	O 	0.71340 0.73250 0.01900 -0.45500
O 	O 	0.70400 0.68570 0.10900 -0.37400
N 	N 	0.02250 0.71260 0.62900 -0.22600
C 	C 	0.05420 0.70960 0.63290 0.09300
C 	C 	0.05930 0.67900 0.67510 -0.07500
H 	H 	0.07810 0.67070 0.69140 0.06700
C 	C 	0.03380 0.66410 0.68810 -0.07600
H 	H 	0.03170 0.64390 0.71280 0.06500
C 	C 	0.01060 0.68460 0.65740 0.08900
C 	C 	0.98100 0.67580 0.64370 -0.13400
C 	C 	0.97320 0.64540 0.65800 0.14600
C 	C 	0.98740 0.62540 0.55890 -0.18600
H 	H 	0.00130 0.63190 0.47800 0.09700
C 	C 	0.98150 0.59570 0.57700 0.12400
H 	H 	0.99030 0.58170 0.50520 0.00400
C 	C 	0.96300 0.58760 0.69700 -0.18000
C 	C 	0.94730 0.60680 0.79470 0.10200
H 	H 	0.93320 0.59980 0.87260 0.02300
C 	C 	0.95240 0.63650 0.77600 -0.18000
H 	H 	0.94210 0.65050 0.84210 0.09700
S 	S 	0.95580 0.54858 0.74720 0.77500
O 	O 	0.94770 0.53760 0.59300 -0.33100
O 	O 	0.98250 0.53660 0.76900 -0.42900
O 	O 	0.93570 0.54600 0.85900 -0.35100
N 	N 	0.52250 0.21260 0.12900 -0.22800
C 	C 	0.55420 0.20960 0.13290 0.08500
C 	C 	0.55930 0.17900 0.17510 -0.07300
H 	H 	0.57810 0.17070 0.19140 0.06100
C 	C 	0.53380 0.16410 0.18810 -0.08500
H 	H 	0.53170 0.14390 0.21280 0.06400
C 	C 	0.51060 0.18460 0.15740 0.09500
C 	C 	0.48100 0.17580 0.14370 -0.15400
C 	C 	0.47320 0.14540 0.15800 0.17500
C 	C 	0.48740 0.12540 0.05890 -0.24500
H 	H 	0.50130 0.13190 0.97800 0.12900
C 	C 	0.48150 0.09570 0.07700 0.16000
H 	H 	0.49030 0.08170 0.00520 -0.01400
C 	C 	0.46300 0.08760 0.19700 -0.20400
C 	C 	0.44730 0.10680 0.29470 0.12200
H 	H 	0.43320 0.09980 0.37260 0.01400
C 	C 	0.45240 0.13650 0.27600 -0.20300
H 	H 	0.44210 0.15050 0.34210 0.10200
S 	S 	0.45580 0.04858 0.24720 0.78600
O 	O 	0.44770 0.03760 0.09300 -0.33700
O 	O 	0.48250 0.03660 0.26900 -0.43900
O 	O 	0.43570 0.04600 0.35900 -0.35800
N 	N 	0.47750 0.28740 0.12900 -0.22800
C 	C 	0.44580 0.29040 0.13290 0.08500
C 	C 	0.44070 0.32100 0.17510 -0.07300
H 	H 	0.42190 0.32930 0.19140 0.06100
C 	C 	0.46620 0.33590 0.18810 -0.08500
H 	H 	0.46830 0.35610 0.21280 0.06500
C 	C 	0.48940 0.31540 0.15740 0.09500
C 	C 	0.51900 0.32420 0.14370 -0.15400
C 	C 	0.52680 0.35460 0.15800 0.17500
C 	C 	0.51260 0.37460 0.05890 -0.24400
H 	H 	0.49870 0.36810 0.97800 0.12900
C 	C 	0.51850 0.40430 0.07700 0.16000
H 	H 	0.50970 0.41830 0.00520 -0.01400
C 	C 	0.53700 0.41240 0.19700 -0.20400
C 	C 	0.55270 0.39320 0.29470 0.12100
H 	H 	0.56680 0.40020 0.37260 0.01400
C 	C 	0.54760 0.36350 0.27600 -0.20300
H 	H 	0.55790 0.34950 0.34210 0.10200
S 	S 	0.54420 0.45142 0.24720 0.78600
O 	O 	0.55230 0.46240 0.09300 -0.33600
O 	O 	0.51750 0.46340 0.26900 -0.43900
O 	O 	0.56430 0.45400 0.35900 -0.35700
N 	N 	0.97750 0.78740 0.62900 -0.22600
C 	C 	0.94580 0.79040 0.63290 0.09200
C 	C 	0.94070 0.82100 0.67510 -0.07200
H 	H 	0.92190 0.82930 0.69140 0.06600
C 	C 	0.96620 0.83590 0.68810 -0.08200
H 	H 	0.96830 0.85610 0.71280 0.06900
C 	C 	0.98940 0.81540 0.65740 0.10100
C 	C 	0.01900 0.82420 0.64370 -0.14900
C 	C 	0.02680 0.85460 0.65800 0.16200
C 	C 	0.01260 0.87460 0.55890 -0.21200
H 	H 	0.99870 0.86810 0.47800 0.11000
C 	C 	0.01850 0.90430 0.57700 0.14000
H 	H 	0.00970 0.91830 0.50520 -0.00400
C 	C 	0.03700 0.91240 0.69700 -0.19000
C 	C 	0.05270 0.89320 0.79470 0.11200
H 	H 	0.06680 0.90020 0.87260 0.02000
C 	C 	0.04760 0.86350 0.77600 -0.19200
H 	H 	0.05790 0.84950 0.84210 0.10100
S 	S 	0.04420 0.95142 0.74720 0.77900
O 	O 	0.05230 0.96240 0.59300 -0.33200
O 	O 	0.01750 0.96340 0.76900 -0.43200
O 	O 	0.06430 0.95400 0.85900 -0.35200
N 	N 	0.03740 0.72750 0.12100 -0.22800
C 	C 	0.04040 0.69580 0.11710 0.09600
C 	C 	0.07100 0.69070 0.07490 -0.08200
H 	H 	0.07930 0.67190 0.05860 0.06400
C 	C 	0.08590 0.71620 0.06190 -0.07700
H 	H 	0.10610 0.71830 0.03720 0.06100
C 	C 	0.06540 0.73940 0.09260 0.08700
C 	C 	0.07420 0.76900 0.10630 -0.13600
C 	C 	0.10460 0.77680 0.09200 0.13300
C 	C 	0.12460 0.76260 0.19110 -0.19000
H 	H 	0.11810 0.74870 0.27200 0.10000
C 	C 	0.15430 0.76850 0.17300 0.12500
H 	H 	0.16830 0.75970 0.24480 0.00100
C 	C 	0.16240 0.78700 0.05300 -0.19000
C 	C 	0.14320 0.80270 0.95530 0.11100
H 	H 	0.15020 0.81680 0.87740 0.02000
C 	C 	0.11350 0.79760 0.97400 -0.16500
H 	H 	0.09950 0.80790 0.90790 0.09200
S 	S 	0.20142 0.79420 0.00280 0.73200
O 	O 	0.21240 0.80230 0.15700 -0.32400
O 	O 	0.21340 0.76750 0.98100 -0.41400
O 	O 	0.20400 0.81430 0.89100 -0.33500
N 	N 	0.53740 0.22750 0.62100 -0.22600
C 	C 	0.54040 0.19580 0.61710 0.09200
C 	C 	0.57100 0.19070 0.57490 -0.07500
H 	H 	0.57930 0.17190 0.55860 0.06400
C 	C 	0.58590 0.21620 0.56190 -0.07900
H 	H 	0.60610 0.21830 0.53720 0.06400
C 	C 	0.56540 0.23940 0.59260 0.09400
C 	C 	0.57420 0.26900 0.60630 -0.14100
C 	C 	0.60460 0.27680 0.59200 0.15500
C 	C 	0.62460 0.26260 0.69110 -0.19800
H 	H 	0.61810 0.24870 0.77200 0.10600
C 	C 	0.65430 0.26850 0.67300 0.13400
H 	H 	0.66830 0.25970 0.74480 0.00200
C 	C 	0.66240 0.28700 0.55300 -0.18700
C 	C 	0.64320 0.30270 0.45530 0.10700
H 	H 	0.65020 0.31680 0.37740 0.01800
C 	C 	0.61350 0.29760 0.47400 -0.18600
H 	H 	0.59950 0.30790 0.40790 0.09600
S 	S 	0.70142 0.29420 0.50280 0.77800
O 	O 	0.71240 0.30230 0.65700 -0.32900
O 	O 	0.71340 0.26750 0.48100 -0.43600
O 	O 	0.70400 0.31430 0.39100 -0.35700
N 	N 	0.46260 0.27250 0.62100 -0.22600
C 	C 	0.45960 0.30420 0.61710 0.09200
C 	C 	0.42900 0.30930 0.57490 -0.07500
H 	H 	0.42070 0.32810 0.55860 0.06400
C 	C 	0.41410 0.28380 0.56190 -0.07900
H 	H 	0.39390 0.28170 0.53720 0.06400
C 	C 	0.43460 0.26060 0.59260 0.09400
C 	C 	0.42580 0.23100 0.60630 -0.14100
C 	C 	0.39540 0.22320 0.59200 0.15500
C 	C 	0.37540 0.23740 0.69110 -0.19800
H 	H 	0.38190 0.25130 0.77200 0.10600
C 	C 	0.34570 0.23150 0.67300 0.13400
H 	H 	0.33170 0.24030 0.74480 0.00200
C 	C 	0.33760 0.21300 0.55300 -0.18700
C 	C 	0.35680 0.19730 0.45530 0.10700
H 	H 	0.34980 0.18320 0.37740 0.01800
C 	C 	0.38650 0.20240 0.47400 -0.18600
H 	H 	0.40050 0.19210 0.40790 0.09600
S 	S 	0.29858 0.20580 0.50280 0.77800
O 	O 	0.28760 0.19770 0.65700 -0.32900
O 	O 	0.28660 0.23250 0.48100 -0.43600
O 	O 	0.29600 0.18570 0.39100 -0.35700
N 	N 	0.96260 0.77250 0.12100 -0.22600
C 	C 	0.95960 0.80420 0.11710 0.09100
C 	C 	0.92900 0.80930 0.07490 -0.07900
H 	H 	0.92070 0.82810 0.05860 0.06300
C 	C 	0.91410 0.78380 0.06190 -0.07800
H 	H 	0.89390 0.78170 0.03720 0.06100
C 	C 	0.93460 0.76060 0.09260 0.08700
C 	C 	0.92580 0.73100 0.10630 -0.13600
C 	C 	0.89540 0.72320 0.09200 0.13300
C 	C 	0.87540 0.73740 0.19110 -0.19000
H 	H 	0.88190 0.75130 0.27200 0.10000
C 	C 	0.84570 0.73150 0.17300 0.12500
H 	H 	0.83170 0.74030 0.24480 0.00100
C 	C 	0.83760 0.71300 0.05300 -0.19000
C 	C 	0.85680 0.69730 0.95530 0.11100
H 	H 	0.84980 0.68320 0.87740 0.01900
C 	C 	0.88650 0.70240 0.97400 -0.16500
H 	H 	0.90050 0.69210 0.90790 0.09200
S 	S 	0.79858 0.70580 0.00280 0.73200
O 	O 	0.78760 0.69770 0.15700 -0.32400
O 	O 	0.78660 0.73250 0.98100 -0.41400
O 	O 	0.79600 0.68570 0.89100 -0.33500
N 	N 	0.47750 0.71260 0.37100 -0.22800
C 	C 	0.44580 0.70960 0.36710 0.09000
C 	C 	0.44070 0.67900 0.32490 -0.07600
H 	H 	0.42190 0.67070 0.30860 0.06300
C 	C 	0.46620 0.66410 0.31190 -0.08000
H 	H 	0.46830 0.64390 0.28720 0.06300
C 	C 	0.48940 0.68460 0.34260 0.09100
C 	C 	0.51900 0.67580 0.35630 -0.14300
C 	C 	0.52680 0.64540 0.34200 0.15300
C 	C 	0.51260 0.62540 0.44110 -0.19900
H 	H 	0.49870 0.63190 0.52200 0.10300
C 	C 	0.51850 0.59570 0.42300 0.13300
H 	H 	0.50970 0.58170 0.49480 -0.00000
C 	C 	0.53700 0.58760 0.30300 -0.18800
C 	C 	0.55270 0.60680 0.20530 0.10600
H 	H 	0.56680 0.59980 0.12740 0.01700
C 	C 	0.54760 0.63650 0.22400 -0.18600
H 	H 	0.55790 0.65050 0.15790 0.09400
S 	S 	0.54420 0.54858 0.25280 0.77900
O 	O 	0.55230 0.53760 0.40700 -0.33000
O 	O 	0.51750 0.53660 0.23100 -0.43900
O 	O 	0.56430 0.54600 0.14100 -0.35900
N 	N 	0.97750 0.21260 0.87100 -0.22600
C 	C 	0.94580 0.20960 0.86710 0.09500
C 	C 	0.94070 0.17900 0.82490 -0.07500
H 	H 	0.92190 0.17070 0.80860 0.06700
C 	C 	0.96620 0.16410 0.81190 -0.07800
H 	H 	0.96830 0.14390 0.78720 0.06700
C 	C 	0.98940 0.18460 0.84260 0.09700
C 	C 	0.01900 0.17580 0.85630 -0.14100
C 	C 	0.02680 0.14540 0.84200 0.14400
C 	C 	0.01260 0.12540 0.94110 -0.17700
H 	H 	0.99870 0.13190 0.02200 0.09100
C 	C 	0.01850 0.09570 0.92300 0.11900
H 	H 	0.00970 0.08170 0.99480 0.00800
C 	C 	0.03700 0.08760 0.80300 -0.17900
C 	C 	0.05270 0.10680 0.70530 0.09900
H 	H 	0.06680 0.09980 0.62740 0.02100
C 	C 	0.04760 0.13650 0.72400 -0.17800
H 	H 	0.05790 0.15050 0.65790 0.09300
S 	S 	0.04420 0.04858 0.75280 0.77400
O 	O 	0.05230 0.03760 0.90700 -0.32700
O 	O 	0.01750 0.03660 0.73100 -0.43400
O 	O 	0.06430 0.04600 0.64100 -0.35600
N 	N 	0.02250 0.28740 0.87100 -0.22600
C 	C 	0.05420 0.29040 0.86710 0.09600
C 	C 	0.05930 0.32100 0.82490 -0.07800
H 	H 	0.07810 0.32930 0.80860 0.06800
C 	C 	0.03380 0.33590 0.81190 -0.07200
H 	H 	0.03170 0.35610 0.78720 0.06300
C 	C 	0.01060 0.31540 0.84260 0.08500
C 	C 	0.98100 0.32420 0.85630 -0.12600
C 	C 	0.97320 0.35460 0.84200 0.12900
C 	C 	0.98740 0.37460 0.94110 -0.15100
H 	H 	0.00130 0.36810 0.02200 0.07800
C 	C 	0.98150 0.40430 0.92300 0.10400
H 	H 	0.99030 0.41830 0.99480 0.01500
C 	C 	0.96300 0.41240 0.80300 -0.16800
C 	C 	0.94730 0.39320 0.70530 0.08900
H 	H 	0.93320 0.40020 0.62740 0.02400
C 	C 	0.95240 0.36350 0.72400 -0.16700
H 	H 	0.94210 0.34950 0.65790 0.08900
S 	S 	0.95580 0.45142 0.75280 0.77000
O 	O 	0.94770 0.46240 0.90700 -0.32500
O 	O 	0.98250 0.46340 0.73100 -0.43000
O 	O 	0.93570 0.45400 0.64100 -0.35400
N 	N 	0.52250 0.78740 0.37100 -0.22800
C 	C 	0.55420 0.79040 0.36710 0.09000
C 	C 	0.55930 0.82100 0.32490 -0.07600
H 	H 	0.57810 0.82930 0.30860 0.06300
C 	C 	0.53380 0.83590 0.31190 -0.08000
H 	H 	0.53170 0.85610 0.28720 0.06300
C 	C 	0.51060 0.81540 0.34260 0.09100
C 	C 	0.48100 0.82420 0.35630 -0.14300
C 	C 	0.47320 0.85460 0.34200 0.15300
C 	C 	0.48740 0.87460 0.44110 -0.19900
H 	H 	0.50130 0.86810 0.52200 0.10300
C 	C 	0.48150 0.90430 0.42300 0.13300
H 	H 	0.49030 0.91830 0.49480 -0.00000
C 	C 	0.46300 0.91240 0.30300 -0.18800
C 	C 	0.44730 0.89320 0.20530 0.10600
H 	H 	0.43320 0.90020 0.12740 0.01700
C 	C 	0.45240 0.86350 0.22400 -0.18600
H 	H 	0.44210 0.84950 0.15790 0.09400
S 	S 	0.45580 0.95142 0.25280 0.77900
O 	O 	0.44770 0.96240 0.40700 -0.33000
O 	O 	0.48250 0.96340 0.23100 -0.43800
O 	O 	0.43570 0.95400 0.14100 -0.35800
Pd	Pd	0.50000 0.25000 0.12500 0.72800
Pd	Pd	0.00000 0.75000 0.62500 0.72900
Pd	Pd	-0.00000 0.25000 0.37500 0.72700
Pd	Pd	0.50000 0.75000 0.87500 0.73100
Pd	Pd	0.00000 0.25000 0.87500 0.72900
Pd	Pd	0.50000 0.75000 0.37500 0.72800
Pd	Pd	0.50000 0.25000 0.62500 0.73100
Pd	Pd	-0.00000 0.75000 0.12500 0.72600
K 	K 	0.75000 0.25000 0.75000 0.67100
K 	K 	0.75000 0.75000 0.25000 0.66900
K 	K 	-0.00000 0.50000 -0.00000 0.66600
K 	K 	0.50000 0.00000 0.50000 0.67000
K 	K 	0.50000 0.50000 0.50000 0.67000
K 	K 	-0.00000 0.00000 -0.00000 0.66600
K 	K 	0.75000 0.25000 0.25000 0.66900
K 	K 	0.75000 0.75000 0.75000 0.67100
K 	K 	0.50000 0.50000 -0.00000 0.66700
K 	K 	0.00000 0.00000 0.50000 0.66900
K 	K 	0.00000 0.50000 0.50000 0.66900
K 	K 	0.50000 0.00000 -0.00000 0.66700
K 	K 	0.25000 0.75000 0.25000 0.66900
K 	K 	0.25000 0.25000 0.75000 0.67100
K 	K 	0.25000 0.75000 0.75000 0.67100
K 	K 	0.25000 0.25000 0.25000 0.66900
