data_crystal

_cell_length_a 19.69390
_cell_length_b 27.45540
_cell_length_c 41.48940
_cell_angle_alpha 90.00000
_cell_angle_beta  90.00000
_cell_angle_gamma 90.00000

_symmetry_space_group_name_	'P 1'
_symmetry_space_group_name_H-M	'P 1'

loop_
_symmetry_equiv_pos_as_xyz
  x,y,z

loop_
_atom_site_label
_atom_site_type_symbol
_atom_site_fract_x
_atom_site_fract_y
_atom_site_fract_z
_atom_site_charge
Cu	Cu	0.18298 0.46137 0.09190 0.87500
Cu	Cu	0.14292 0.39080 0.02289 0.92100
Cl	Cl	0.22981 0.38199 0.05883 -0.53800
N 	N 	0.15010 0.49158 0.99683 -0.09700
N 	N 	0.15810 0.46257 0.02231 -0.15300
N 	N 	0.16800 0.48935 0.04824 -0.15700
N 	N 	0.16530 0.53643 0.04057 -0.10000
N 	N 	0.30960 0.65907 0.93444 -0.13200
N 	N 	0.34050 0.67851 0.90876 -0.14200
N 	N 	0.29810 0.68096 0.88483 -0.14400
N 	N 	0.23760 0.66356 0.89345 -0.09100
C 	C 	0.15410 0.53660 0.00893 0.04700
C 	C 	0.14120 0.58080 0.98832 0.16100
C 	C 	0.20270 0.59150 0.96674 -0.28500
H 	H 	0.24300 0.59830 0.98030 0.12000
H 	H 	0.21280 0.56280 0.95320 0.11800
C 	C 	0.18770 0.63550 0.94531 0.16200
H 	H 	0.13420 0.59660 0.91010 0.12100
H 	H 	0.08560 0.61750 0.02400 0.10200
C 	C 	0.07870 0.56980 0.96687 -0.26900
H 	H 	0.03910 0.56210 0.98060 0.10500
H 	H 	0.08830 0.54110 0.95310 0.10800
C 	C 	0.24580 0.65030 0.92433 0.06000
O 	O 	0.12190 0.32260 0.02230 -0.63300
N 	N 	0.13650 0.24360 0.00820 -0.01800
C 	C 	0.15630 0.28810 0.01330 -0.08800
H 	H 	0.20310 0.29460 0.00970 0.02000
C 	C 	0.06600 0.22900 0.00760 -0.31400
H 	H 	0.03950 0.25090 0.02140 0.14000
H 	H 	0.06190 0.19560 0.01560 0.12100
H 	H 	0.04880 0.23080 0.98550 0.13100
C 	C 	0.18730 0.20520 0.00260 -0.32700
H 	H 	0.17870 0.18960 0.98180 0.14400
H 	H 	0.18440 0.18090 0.01980 0.12400
H 	H 	0.23280 0.21970 0.00250 0.12600
O 	O 	0.07680 0.40610 0.98660 -0.11200
N 	N 	0.01530 0.40580 0.94070 -0.19100
C 	C 	0.04990 0.38430 0.96390 0.37900
H 	H 	0.05440 0.34990 0.96310 -0.05500
C 	C 	0.98610 0.37760 0.91410 -0.35900
H 	H 	0.01960 0.35390 0.90640 0.12800
H 	H 	0.97390 0.39970 0.89640 0.13900
H 	H 	0.94550 0.36050 0.92160 0.13400
C 	C 	0.00570 0.45900 0.94160 -0.03900
H 	H 	0.96900 0.46700 0.95660 0.09500
H 	H 	0.99380 0.47060 0.92000 0.01900
H 	H 	0.04780 0.47460 0.94870 0.07400
O 	O 	0.09270 0.38760 0.97810 -0.42200
N 	N 	0.07110 0.43750 0.93570 -0.11300
C 	C 	0.10490 0.41940 0.95910 0.19100
H 	H 	0.14820 0.43390 0.96200 -0.03300
C 	C 	0.10350 0.44930 0.90480 -0.24500
H 	H 	0.15300 0.44880 0.90730 0.09600
H 	H 	0.08910 0.48180 0.89780 0.09300
H 	H 	0.09000 0.42520 0.88850 0.09300
C 	C 	0.99870 0.44830 0.93680 -0.07300
H 	H 	0.97280 0.41790 0.93520 0.16400
H 	H 	0.98680 0.46960 0.91870 0.03700
H 	H 	0.98780 0.46470 0.95710 -0.05000
Cl	Cl	0.13550 0.31140 0.01440 0.44300
Cu	Cu	0.18298 0.96137 0.59190 0.87500
Cu	Cu	0.14292 0.89080 0.52289 0.92100
Cl	Cl	0.22981 0.88199 0.55883 -0.53800
N 	N 	0.15010 0.99158 0.49683 -0.09700
N 	N 	0.15810 0.96257 0.52231 -0.15300
N 	N 	0.16800 0.98935 0.54824 -0.15700
N 	N 	0.16530 0.03643 0.54057 -0.09900
N 	N 	0.30960 0.15907 0.43444 -0.13200
N 	N 	0.34050 0.17851 0.40876 -0.14200
N 	N 	0.29810 0.18096 0.38483 -0.14400
N 	N 	0.23760 0.16356 0.39345 -0.09100
C 	C 	0.15410 0.03660 0.50893 0.04700
C 	C 	0.14120 0.08080 0.48832 0.16100
C 	C 	0.20270 0.09150 0.46674 -0.28500
H 	H 	0.24300 0.09830 0.48030 0.12000
H 	H 	0.21280 0.06280 0.45320 0.11800
C 	C 	0.18770 0.13550 0.44531 0.16200
H 	H 	0.13420 0.09660 0.41010 0.12100
H 	H 	0.08560 0.11750 0.52400 0.10200
C 	C 	0.07870 0.06980 0.46687 -0.26900
H 	H 	0.03910 0.06210 0.48060 0.10500
H 	H 	0.08830 0.04110 0.45310 0.10800
C 	C 	0.24580 0.15030 0.42433 0.06000
O 	O 	0.12190 0.82260 0.52230 -0.63300
N 	N 	0.13650 0.74360 0.50820 -0.01800
C 	C 	0.15630 0.78810 0.51330 -0.08800
H 	H 	0.20310 0.79460 0.50970 0.01900
C 	C 	0.06600 0.72900 0.50760 -0.31400
H 	H 	0.03950 0.75090 0.52140 0.14000
H 	H 	0.06190 0.69560 0.51560 0.12100
H 	H 	0.04880 0.73080 0.48550 0.13200
C 	C 	0.18730 0.70520 0.50260 -0.32700
H 	H 	0.17870 0.68960 0.48180 0.14500
H 	H 	0.18440 0.68090 0.51980 0.12400
H 	H 	0.23280 0.71970 0.50250 0.12600
O 	O 	0.07680 0.90610 0.48660 -0.11200
N 	N 	0.01530 0.90580 0.44070 -0.19100
C 	C 	0.04990 0.88430 0.46390 0.37900
H 	H 	0.05440 0.84990 0.46310 -0.05500
C 	C 	0.98610 0.87760 0.41410 -0.35800
H 	H 	0.01960 0.85390 0.40640 0.12800
H 	H 	0.97390 0.89970 0.39640 0.13900
H 	H 	0.94550 0.86050 0.42160 0.13400
C 	C 	0.00570 0.95900 0.44160 -0.03900
H 	H 	0.96900 0.96700 0.45660 0.09500
H 	H 	0.99380 0.97060 0.42000 0.01900
H 	H 	0.04780 0.97460 0.44870 0.07300
O 	O 	0.09270 0.88760 0.47810 -0.42300
N 	N 	0.07110 0.93750 0.43570 -0.11400
C 	C 	0.10490 0.91940 0.45910 0.19000
H 	H 	0.14820 0.93390 0.46200 -0.03400
C 	C 	0.10350 0.94930 0.40480 -0.24600
H 	H 	0.15300 0.94880 0.40730 0.09500
H 	H 	0.08910 0.98180 0.39780 0.09200
H 	H 	0.09000 0.92520 0.38850 0.09200
C 	C 	0.99870 0.94830 0.43680 -0.07500
H 	H 	0.97280 0.91790 0.43520 0.16300
H 	H 	0.98680 0.96960 0.41870 0.03700
H 	H 	0.98780 0.96470 0.45710 -0.05100
Cl	Cl	0.13550 0.81140 0.51440 0.44200
Cu	Cu	0.68298 0.46137 0.59190 0.87400
Cu	Cu	0.64292 0.39080 0.52289 0.92000
Cl	Cl	0.72981 0.38199 0.55883 -0.53900
N 	N 	0.65010 0.49158 0.49683 -0.09800
N 	N 	0.65810 0.46257 0.52231 -0.15400
N 	N 	0.66800 0.48935 0.54824 -0.15800
N 	N 	0.66530 0.53643 0.54057 -0.10100
N 	N 	0.80960 0.65907 0.43444 -0.13300
N 	N 	0.84050 0.67851 0.40876 -0.14300
N 	N 	0.79810 0.68096 0.38483 -0.14500
N 	N 	0.73760 0.66356 0.39345 -0.09200
C 	C 	0.65410 0.53660 0.50893 0.04600
C 	C 	0.64120 0.58080 0.48832 0.16000
C 	C 	0.70270 0.59150 0.46674 -0.28600
H 	H 	0.74300 0.59830 0.48030 0.11900
H 	H 	0.71280 0.56280 0.45320 0.11700
C 	C 	0.68770 0.63550 0.44531 0.16100
H 	H 	0.63420 0.59660 0.41010 0.12000
H 	H 	0.58560 0.61750 0.52400 0.10100
C 	C 	0.57870 0.56980 0.46687 -0.27000
H 	H 	0.53910 0.56210 0.48060 0.10400
H 	H 	0.58830 0.54110 0.45310 0.10700
C 	C 	0.74580 0.65030 0.42433 0.05900
O 	O 	0.62190 0.32260 0.52230 -0.63400
N 	N 	0.63650 0.24360 0.50820 -0.01900
C 	C 	0.65630 0.28810 0.51330 -0.08900
H 	H 	0.70310 0.29460 0.50970 0.01800
C 	C 	0.56600 0.22900 0.50760 -0.31500
H 	H 	0.53950 0.25090 0.52140 0.13900
H 	H 	0.56190 0.19560 0.51560 0.12000
H 	H 	0.54880 0.23080 0.48550 0.13100
C 	C 	0.68730 0.20520 0.50260 -0.32800
H 	H 	0.67870 0.18960 0.48180 0.14400
H 	H 	0.68440 0.18090 0.51980 0.12300
H 	H 	0.73280 0.21970 0.50250 0.12500
O 	O 	0.57680 0.40610 0.48660 -0.11300
N 	N 	0.51530 0.40580 0.44070 -0.19200
C 	C 	0.54990 0.38430 0.46390 0.37800
H 	H 	0.55440 0.34990 0.46310 -0.05600
C 	C 	0.48610 0.37760 0.41410 -0.36000
H 	H 	0.51960 0.35390 0.40640 0.12700
H 	H 	0.47390 0.39970 0.39640 0.13800
H 	H 	0.44550 0.36050 0.42160 0.13300
C 	C 	0.50570 0.45900 0.44160 -0.04000
H 	H 	0.46900 0.46700 0.45660 0.09400
H 	H 	0.49380 0.47060 0.42000 0.01800
H 	H 	0.54780 0.47460 0.44870 0.07300
O 	O 	0.59270 0.38760 0.47810 -0.42300
N 	N 	0.57110 0.43750 0.43570 -0.11400
C 	C 	0.60490 0.41940 0.45910 0.19000
H 	H 	0.64820 0.43390 0.46200 -0.03400
C 	C 	0.60350 0.44930 0.40480 -0.24600
H 	H 	0.65300 0.44880 0.40730 0.09500
H 	H 	0.58910 0.48180 0.39780 0.09200
H 	H 	0.59000 0.42520 0.38850 0.09200
C 	C 	0.49870 0.44830 0.43680 -0.07400
H 	H 	0.47280 0.41790 0.43520 0.16300
H 	H 	0.48680 0.46960 0.41870 0.03600
H 	H 	0.48780 0.46470 0.45710 -0.05100
Cl	Cl	0.63550 0.31140 0.51440 0.44200
Cu	Cu	0.68298 0.96137 0.09190 0.87400
Cu	Cu	0.64292 0.89080 0.02289 0.92000
Cl	Cl	0.72981 0.88199 0.05883 -0.53900
N 	N 	0.65010 0.99158 0.99683 -0.09800
N 	N 	0.65810 0.96257 0.02231 -0.15400
N 	N 	0.66800 0.98935 0.04824 -0.15800
N 	N 	0.66530 0.03643 0.04057 -0.10100
N 	N 	0.80960 0.15907 0.93444 -0.13300
N 	N 	0.84050 0.17851 0.90876 -0.14300
N 	N 	0.79810 0.18096 0.88483 -0.14500
N 	N 	0.73760 0.16356 0.89345 -0.09200
C 	C 	0.65410 0.03660 0.00893 0.04600
C 	C 	0.64120 0.08080 0.98832 0.16000
C 	C 	0.70270 0.09150 0.96674 -0.28600
H 	H 	0.74300 0.09830 0.98030 0.11900
H 	H 	0.71280 0.06280 0.95320 0.11700
C 	C 	0.68770 0.13550 0.94531 0.16100
H 	H 	0.63420 0.09660 0.91010 0.12000
H 	H 	0.58560 0.11750 0.02400 0.10100
C 	C 	0.57870 0.06980 0.96687 -0.27000
H 	H 	0.53910 0.06210 0.98060 0.10400
H 	H 	0.58830 0.04110 0.95310 0.10700
C 	C 	0.74580 0.15030 0.92433 0.05900
O 	O 	0.62190 0.82260 0.02230 -0.63400
N 	N 	0.63650 0.74360 0.00820 -0.01900
C 	C 	0.65630 0.78810 0.01330 -0.08900
H 	H 	0.70310 0.79460 0.00970 0.01800
C 	C 	0.56600 0.72900 0.00760 -0.31600
H 	H 	0.53950 0.75090 0.02140 0.13900
H 	H 	0.56190 0.69560 0.01560 0.12000
H 	H 	0.54880 0.73080 0.98550 0.13100
C 	C 	0.68730 0.70520 0.00260 -0.32800
H 	H 	0.67870 0.68960 0.98180 0.14400
H 	H 	0.68440 0.68090 0.01980 0.12300
H 	H 	0.73280 0.71970 0.00250 0.12500
O 	O 	0.57680 0.90610 0.98660 -0.11300
N 	N 	0.51530 0.90580 0.94070 -0.19200
C 	C 	0.54990 0.88430 0.96390 0.37800
H 	H 	0.55440 0.84990 0.96310 -0.05600
C 	C 	0.48610 0.87760 0.91410 -0.36000
H 	H 	0.51960 0.85390 0.90640 0.12700
H 	H 	0.47390 0.89970 0.89640 0.13800
H 	H 	0.44550 0.86050 0.92160 0.13300
C 	C 	0.50570 0.95900 0.94160 -0.04000
H 	H 	0.46900 0.96700 0.95660 0.09400
H 	H 	0.49380 0.97060 0.92000 0.01800
H 	H 	0.54780 0.97460 0.94870 0.07300
O 	O 	0.59270 0.88760 0.97810 -0.42300
N 	N 	0.57110 0.93750 0.93570 -0.11400
C 	C 	0.60490 0.91940 0.95910 0.19000
H 	H 	0.64820 0.93390 0.96200 -0.03400
C 	C 	0.60350 0.94930 0.90480 -0.24600
H 	H 	0.65300 0.94880 0.90730 0.09500
H 	H 	0.58910 0.98180 0.89780 0.09200
H 	H 	0.59000 0.92520 0.88850 0.09200
C 	C 	0.49870 0.94830 0.93680 -0.07400
H 	H 	0.47280 0.91790 0.93520 0.16300
H 	H 	0.48680 0.96960 0.91870 0.03600
H 	H 	0.48780 0.96470 0.95710 -0.05100
Cl	Cl	0.63550 0.81140 0.01440 0.44200
Cu	Cu	0.56702 0.28863 0.09190 0.87400
Cu	Cu	0.60708 0.35920 0.02289 0.92000
Cl	Cl	0.52019 0.36801 0.05883 -0.53900
N 	N 	0.59990 0.25842 0.99683 -0.09800
N 	N 	0.59190 0.28743 0.02231 -0.15400
N 	N 	0.58200 0.26065 0.04824 -0.15800
N 	N 	0.58470 0.21357 0.04057 -0.10100
N 	N 	0.44040 0.09093 0.93444 -0.13300
N 	N 	0.40950 0.07149 0.90876 -0.14300
N 	N 	0.45190 0.06904 0.88483 -0.14500
N 	N 	0.51240 0.08644 0.89345 -0.09200
C 	C 	0.59590 0.21340 0.00893 0.04700
C 	C 	0.60880 0.16920 0.98832 0.16000
C 	C 	0.54730 0.15850 0.96674 -0.28600
H 	H 	0.50700 0.15170 0.98030 0.11900
H 	H 	0.53720 0.18720 0.95320 0.11700
C 	C 	0.56230 0.11450 0.94531 0.16100
H 	H 	0.61580 0.15340 0.91010 0.12000
H 	H 	0.66440 0.13250 0.02400 0.10100
C 	C 	0.67130 0.18020 0.96687 -0.27000
H 	H 	0.71090 0.18790 0.98060 0.10400
H 	H 	0.66170 0.20890 0.95310 0.10700
C 	C 	0.50420 0.09970 0.92433 0.05900
O 	O 	0.62810 0.42740 0.02230 -0.63400
N 	N 	0.61350 0.50640 0.00820 -0.01900
C 	C 	0.59370 0.46190 0.01330 -0.08900
H 	H 	0.54690 0.45540 0.00970 0.01900
C 	C 	0.68400 0.52100 0.00760 -0.31500
H 	H 	0.71050 0.49910 0.02140 0.13900
H 	H 	0.68810 0.55440 0.01560 0.12000
H 	H 	0.70120 0.51920 0.98550 0.13100
C 	C 	0.56270 0.54480 0.00260 -0.32800
H 	H 	0.57130 0.56040 0.98180 0.14400
H 	H 	0.56560 0.56910 0.01980 0.12300
H 	H 	0.51720 0.53030 0.00250 0.12500
O 	O 	0.67320 0.34390 0.98660 -0.11300
N 	N 	0.73470 0.34420 0.94070 -0.19200
C 	C 	0.70010 0.36570 0.96390 0.37800
H 	H 	0.69560 0.40010 0.96310 -0.05600
C 	C 	0.76390 0.37240 0.91410 -0.36000
H 	H 	0.73040 0.39610 0.90640 0.12700
H 	H 	0.77610 0.35030 0.89640 0.13800
H 	H 	0.80450 0.38950 0.92160 0.13300
C 	C 	0.74430 0.29100 0.94160 -0.04000
H 	H 	0.78100 0.28300 0.95660 0.09400
H 	H 	0.75620 0.27940 0.92000 0.01800
H 	H 	0.70220 0.27540 0.94870 0.07300
O 	O 	0.65730 0.36240 0.97810 -0.42300
N 	N 	0.67890 0.31250 0.93570 -0.11400
C 	C 	0.64510 0.33060 0.95910 0.19000
H 	H 	0.60180 0.31610 0.96200 -0.03400
C 	C 	0.64650 0.30070 0.90480 -0.24600
H 	H 	0.59700 0.30120 0.90730 0.09500
H 	H 	0.66090 0.26820 0.89780 0.09200
H 	H 	0.66000 0.32480 0.88850 0.09200
C 	C 	0.75130 0.30170 0.93680 -0.07400
H 	H 	0.77720 0.33210 0.93520 0.16300
H 	H 	0.76320 0.28040 0.91870 0.03600
H 	H 	0.76220 0.28530 0.95710 -0.05100
Cl	Cl	0.61450 0.43860 0.01440 0.44200
Cu	Cu	0.56702 0.78863 0.59190 0.87400
Cu	Cu	0.60708 0.85920 0.52289 0.92000
Cl	Cl	0.52019 0.86801 0.55883 -0.53900
N 	N 	0.59990 0.75842 0.49683 -0.09800
N 	N 	0.59190 0.78743 0.52231 -0.15400
N 	N 	0.58200 0.76065 0.54824 -0.15800
N 	N 	0.58470 0.71357 0.54057 -0.10100
N 	N 	0.44040 0.59093 0.43444 -0.13300
N 	N 	0.40950 0.57149 0.40876 -0.14300
N 	N 	0.45190 0.56904 0.38483 -0.14500
N 	N 	0.51240 0.58644 0.39345 -0.09200
C 	C 	0.59590 0.71340 0.50893 0.04600
C 	C 	0.60880 0.66920 0.48832 0.16000
C 	C 	0.54730 0.65850 0.46674 -0.28600
H 	H 	0.50700 0.65170 0.48030 0.11900
H 	H 	0.53720 0.68720 0.45320 0.11700
C 	C 	0.56230 0.61450 0.44531 0.16100
H 	H 	0.61580 0.65340 0.41010 0.12000
H 	H 	0.66440 0.63250 0.52400 0.10100
C 	C 	0.67130 0.68020 0.46687 -0.27000
H 	H 	0.71090 0.68790 0.48060 0.10400
H 	H 	0.66170 0.70890 0.45310 0.10700
C 	C 	0.50420 0.59970 0.42433 0.05900
O 	O 	0.62810 0.92740 0.52230 -0.63400
N 	N 	0.61350 0.00640 0.50820 -0.01900
C 	C 	0.59370 0.96190 0.51330 -0.08900
H 	H 	0.54690 0.95540 0.50970 0.01800
C 	C 	0.68400 0.02100 0.50760 -0.31600
H 	H 	0.71050 0.99910 0.52140 0.13900
H 	H 	0.68810 0.05440 0.51560 0.12000
H 	H 	0.70120 0.01920 0.48550 0.13100
C 	C 	0.56270 0.04480 0.50260 -0.32800
H 	H 	0.57130 0.06040 0.48180 0.14400
H 	H 	0.56560 0.06910 0.51980 0.12300
H 	H 	0.51720 0.03030 0.50250 0.12500
O 	O 	0.67320 0.84390 0.48660 -0.11300
N 	N 	0.73470 0.84420 0.44070 -0.19200
C 	C 	0.70010 0.86570 0.46390 0.37800
H 	H 	0.69560 0.90010 0.46310 -0.05600
C 	C 	0.76390 0.87240 0.41410 -0.36000
H 	H 	0.73040 0.89610 0.40640 0.12700
H 	H 	0.77610 0.85030 0.39640 0.13800
H 	H 	0.80450 0.88950 0.42160 0.13300
C 	C 	0.74430 0.79100 0.44160 -0.04000
H 	H 	0.78100 0.78300 0.45660 0.09400
H 	H 	0.75620 0.77940 0.42000 0.01800
H 	H 	0.70220 0.77540 0.44870 0.07300
O 	O 	0.65730 0.86240 0.47810 -0.42300
N 	N 	0.67890 0.81250 0.43570 -0.11400
C 	C 	0.64510 0.83060 0.45910 0.19000
H 	H 	0.60180 0.81610 0.46200 -0.03400
C 	C 	0.64650 0.80070 0.40480 -0.24600
H 	H 	0.59700 0.80120 0.40730 0.09500
H 	H 	0.66090 0.76820 0.39780 0.09200
H 	H 	0.66000 0.82480 0.38850 0.09200
C 	C 	0.75130 0.80170 0.43680 -0.07400
H 	H 	0.77720 0.83210 0.43520 0.16300
H 	H 	0.76320 0.78040 0.41870 0.03600
H 	H 	0.76220 0.78530 0.45710 -0.05100
Cl	Cl	0.61450 0.93860 0.51440 0.44200
Cu	Cu	0.06702 0.28863 0.59190 0.87400
Cu	Cu	0.10708 0.35920 0.52289 0.92000
Cl	Cl	0.02019 0.36801 0.55883 -0.53900
N 	N 	0.09990 0.25842 0.49683 -0.09800
N 	N 	0.09190 0.28743 0.52231 -0.15400
N 	N 	0.08200 0.26065 0.54824 -0.15800
N 	N 	0.08470 0.21357 0.54057 -0.10100
N 	N 	0.94040 0.09093 0.43444 -0.13300
N 	N 	0.90950 0.07149 0.40876 -0.14300
N 	N 	0.95190 0.06904 0.38483 -0.14500
N 	N 	0.01240 0.08644 0.39345 -0.09200
C 	C 	0.09590 0.21340 0.50893 0.04600
C 	C 	0.10880 0.16920 0.48832 0.16000
C 	C 	0.04730 0.15850 0.46674 -0.28600
H 	H 	0.00700 0.15170 0.48030 0.11900
H 	H 	0.03720 0.18720 0.45320 0.11700
C 	C 	0.06230 0.11450 0.44531 0.16100
H 	H 	0.11580 0.15340 0.41010 0.12000
H 	H 	0.16440 0.13250 0.52400 0.10100
C 	C 	0.17130 0.18020 0.46687 -0.27000
H 	H 	0.21090 0.18790 0.48060 0.10400
H 	H 	0.16170 0.20890 0.45310 0.10700
C 	C 	0.00420 0.09970 0.42433 0.05900
O 	O 	0.12810 0.42740 0.52230 -0.63400
N 	N 	0.11350 0.50640 0.50820 -0.01900
C 	C 	0.09370 0.46190 0.51330 -0.08900
H 	H 	0.04690 0.45540 0.50970 0.01800
C 	C 	0.18400 0.52100 0.50760 -0.31500
H 	H 	0.21050 0.49910 0.52140 0.13900
H 	H 	0.18810 0.55440 0.51560 0.12000
H 	H 	0.20120 0.51920 0.48550 0.13100
C 	C 	0.06270 0.54480 0.50260 -0.32800
H 	H 	0.07130 0.56040 0.48180 0.14400
H 	H 	0.06560 0.56910 0.51980 0.12300
H 	H 	0.01720 0.53030 0.50250 0.12500
O 	O 	0.17320 0.34390 0.48660 -0.11300
N 	N 	0.23470 0.34420 0.44070 -0.19200
C 	C 	0.20010 0.36570 0.46390 0.37800
H 	H 	0.19560 0.40010 0.46310 -0.05600
C 	C 	0.26390 0.37240 0.41410 -0.36000
H 	H 	0.23040 0.39610 0.40640 0.12700
H 	H 	0.27610 0.35030 0.39640 0.13800
H 	H 	0.30450 0.38950 0.42160 0.13300
C 	C 	0.24430 0.29100 0.44160 -0.04000
H 	H 	0.28100 0.28300 0.45660 0.09400
H 	H 	0.25620 0.27940 0.42000 0.01800
H 	H 	0.20220 0.27540 0.44870 0.07300
O 	O 	0.15730 0.36240 0.47810 -0.42300
N 	N 	0.17890 0.31250 0.43570 -0.11400
C 	C 	0.14510 0.33060 0.45910 0.19000
H 	H 	0.10180 0.31610 0.46200 -0.03400
C 	C 	0.14650 0.30070 0.40480 -0.24600
H 	H 	0.09700 0.30120 0.40730 0.09500
H 	H 	0.16090 0.26820 0.39780 0.09200
H 	H 	0.16000 0.32480 0.38850 0.09200
C 	C 	0.25130 0.30170 0.43680 -0.07400
H 	H 	0.27720 0.33210 0.43520 0.16300
H 	H 	0.26320 0.28040 0.41870 0.03600
H 	H 	0.26220 0.28530 0.45710 -0.05100
Cl	Cl	0.11450 0.43860 0.51440 0.44200
Cu	Cu	0.06702 0.78863 0.09190 0.87400
Cu	Cu	0.10708 0.85920 0.02289 0.92000
Cl	Cl	0.02019 0.86801 0.05883 -0.53900
N 	N 	0.09990 0.75842 0.99683 -0.09800
N 	N 	0.09190 0.78743 0.02231 -0.15400
N 	N 	0.08200 0.76065 0.04824 -0.15800
N 	N 	0.08470 0.71357 0.04057 -0.10100
N 	N 	0.94040 0.59093 0.93444 -0.13300
N 	N 	0.90950 0.57149 0.90876 -0.14300
N 	N 	0.95190 0.56904 0.88483 -0.14500
N 	N 	0.01240 0.58644 0.89345 -0.09200
C 	C 	0.09590 0.71340 0.00893 0.04600
C 	C 	0.10880 0.66920 0.98832 0.16000
C 	C 	0.04730 0.65850 0.96674 -0.28600
H 	H 	0.00700 0.65170 0.98030 0.11900
H 	H 	0.03720 0.68720 0.95320 0.11700
C 	C 	0.06230 0.61450 0.94531 0.16100
H 	H 	0.11580 0.65340 0.91010 0.12000
H 	H 	0.16440 0.63250 0.02400 0.10100
C 	C 	0.17130 0.68020 0.96687 -0.27000
H 	H 	0.21090 0.68790 0.98060 0.10400
H 	H 	0.16170 0.70890 0.95310 0.10700
C 	C 	0.00420 0.59970 0.92433 0.05900
O 	O 	0.12810 0.92740 0.02230 -0.63400
N 	N 	0.11350 0.00640 0.00820 -0.01900
C 	C 	0.09370 0.96190 0.01330 -0.08900
H 	H 	0.04690 0.95540 0.00970 0.01800
C 	C 	0.18400 0.02100 0.00760 -0.31400
H 	H 	0.21050 0.99910 0.02140 0.13800
H 	H 	0.18810 0.05440 0.01560 0.12000
H 	H 	0.20120 0.01920 0.98550 0.13000
C 	C 	0.06270 0.04480 0.00260 -0.32700
H 	H 	0.07130 0.06040 0.98180 0.14300
H 	H 	0.06560 0.06910 0.01980 0.12300
H 	H 	0.01720 0.03030 0.00250 0.12500
O 	O 	0.17320 0.84390 0.98660 -0.11300
N 	N 	0.23470 0.84420 0.94070 -0.19200
C 	C 	0.20010 0.86570 0.96390 0.37800
H 	H 	0.19560 0.90010 0.96310 -0.05600
C 	C 	0.26390 0.87240 0.91410 -0.36000
H 	H 	0.23040 0.89610 0.90640 0.12700
H 	H 	0.27610 0.85030 0.89640 0.13800
H 	H 	0.30450 0.88950 0.92160 0.13300
C 	C 	0.24430 0.79100 0.94160 -0.04000
H 	H 	0.28100 0.78300 0.95660 0.09400
H 	H 	0.25620 0.77940 0.92000 0.01800
H 	H 	0.20220 0.77540 0.94870 0.07300
O 	O 	0.15730 0.86240 0.97810 -0.42300
N 	N 	0.17890 0.81250 0.93570 -0.11400
C 	C 	0.14510 0.83060 0.95910 0.19000
H 	H 	0.10180 0.81610 0.96200 -0.03400
C 	C 	0.14650 0.80070 0.90480 -0.24600
H 	H 	0.09700 0.80120 0.90730 0.09500
H 	H 	0.16090 0.76820 0.89780 0.09200
H 	H 	0.16000 0.82480 0.88850 0.09200
C 	C 	0.25130 0.80170 0.93680 -0.07400
H 	H 	0.27720 0.83210 0.93520 0.16300
H 	H 	0.26320 0.78040 0.91870 0.03600
H 	H 	0.26220 0.78530 0.95710 -0.05100
Cl	Cl	0.11450 0.93860 0.01440 0.44200
Cu	Cu	0.56702 0.46137 0.65810 0.87400
Cu	Cu	0.60708 0.39080 0.72711 0.92000
Cl	Cl	0.52019 0.38199 0.69117 -0.53900
N 	N 	0.59990 0.49158 0.75317 -0.09800
N 	N 	0.59190 0.46257 0.72769 -0.15400
N 	N 	0.58200 0.48935 0.70176 -0.15800
N 	N 	0.58470 0.53643 0.70943 -0.10100
N 	N 	0.44040 0.65907 0.81556 -0.13300
N 	N 	0.40950 0.67851 0.84124 -0.14300
N 	N 	0.45190 0.68096 0.86517 -0.14500
N 	N 	0.51240 0.66356 0.85655 -0.09200
C 	C 	0.59590 0.53660 0.74107 0.04600
C 	C 	0.60880 0.58080 0.76168 0.16000
C 	C 	0.54730 0.59150 0.78326 -0.28600
H 	H 	0.50700 0.59830 0.76970 0.11900
H 	H 	0.53720 0.56280 0.79680 0.11700
C 	C 	0.56230 0.63550 0.80469 0.16100
H 	H 	0.61580 0.59660 0.83990 0.12000
H 	H 	0.66440 0.61750 0.72600 0.10100
C 	C 	0.67130 0.56980 0.78313 -0.27000
H 	H 	0.71090 0.56210 0.76940 0.10400
H 	H 	0.66170 0.54110 0.79690 0.10700
C 	C 	0.50420 0.65030 0.82567 0.05900
O 	O 	0.62810 0.32260 0.72770 -0.63400
N 	N 	0.61350 0.24360 0.74180 -0.01900
C 	C 	0.59370 0.28810 0.73670 -0.08900
H 	H 	0.54690 0.29460 0.74030 0.01800
C 	C 	0.68400 0.22900 0.74240 -0.31500
H 	H 	0.71050 0.25090 0.72860 0.13900
H 	H 	0.68810 0.19560 0.73440 0.12000
H 	H 	0.70120 0.23080 0.76450 0.13100
C 	C 	0.56270 0.20520 0.74740 -0.32800
H 	H 	0.57130 0.18960 0.76820 0.14400
H 	H 	0.56560 0.18090 0.73020 0.12300
H 	H 	0.51720 0.21970 0.74750 0.12500
O 	O 	0.67320 0.40610 0.76340 -0.11300
N 	N 	0.73470 0.40580 0.80930 -0.19200
C 	C 	0.70010 0.38430 0.78610 0.37800
H 	H 	0.69560 0.34990 0.78690 -0.05600
C 	C 	0.76390 0.37760 0.83590 -0.36000
H 	H 	0.73040 0.35390 0.84360 0.12700
H 	H 	0.77610 0.39970 0.85360 0.13800
H 	H 	0.80450 0.36050 0.82840 0.13300
C 	C 	0.74430 0.45900 0.80840 -0.04000
H 	H 	0.78100 0.46700 0.79340 0.09400
H 	H 	0.75620 0.47060 0.83000 0.01800
H 	H 	0.70220 0.47460 0.80130 0.07300
O 	O 	0.65730 0.38760 0.77190 -0.42300
N 	N 	0.67890 0.43750 0.81430 -0.11400
C 	C 	0.64510 0.41940 0.79090 0.19000
H 	H 	0.60180 0.43390 0.78800 -0.03400
C 	C 	0.64650 0.44930 0.84520 -0.24600
H 	H 	0.59700 0.44880 0.84270 0.09500
H 	H 	0.66090 0.48180 0.85220 0.09200
H 	H 	0.66000 0.42520 0.86150 0.09200
C 	C 	0.75130 0.44830 0.81320 -0.07400
H 	H 	0.77720 0.41790 0.81480 0.16300
H 	H 	0.76320 0.46960 0.83130 0.03600
H 	H 	0.76220 0.46470 0.79290 -0.05100
Cl	Cl	0.61450 0.31140 0.73560 0.44200
Cu	Cu	0.56702 0.96137 0.15810 0.87400
Cu	Cu	0.60708 0.89080 0.22711 0.92000
Cl	Cl	0.52019 0.88199 0.19117 -0.53900
N 	N 	0.59990 0.99158 0.25317 -0.09800
N 	N 	0.59190 0.96257 0.22769 -0.15400
N 	N 	0.58200 0.98935 0.20176 -0.15800
N 	N 	0.58470 0.03643 0.20943 -0.10000
N 	N 	0.44040 0.15907 0.31556 -0.13300
N 	N 	0.40950 0.17851 0.34124 -0.14300
N 	N 	0.45190 0.18096 0.36517 -0.14500
N 	N 	0.51240 0.16356 0.35655 -0.09200
C 	C 	0.59590 0.03660 0.24107 0.04600
C 	C 	0.60880 0.08080 0.26168 0.16000
C 	C 	0.54730 0.09150 0.28326 -0.28600
H 	H 	0.50700 0.09830 0.26970 0.11900
H 	H 	0.53720 0.06280 0.29680 0.11700
C 	C 	0.56230 0.13550 0.30469 0.16100
H 	H 	0.61580 0.09660 0.33990 0.12000
H 	H 	0.66440 0.11750 0.22600 0.10100
C 	C 	0.67130 0.06980 0.28313 -0.27000
H 	H 	0.71090 0.06210 0.26940 0.10400
H 	H 	0.66170 0.04110 0.29690 0.10700
C 	C 	0.50420 0.15030 0.32567 0.05900
O 	O 	0.62810 0.82260 0.22770 -0.63400
N 	N 	0.61350 0.74360 0.24180 -0.01900
C 	C 	0.59370 0.78810 0.23670 -0.08900
H 	H 	0.54690 0.79460 0.24030 0.01800
C 	C 	0.68400 0.72900 0.24240 -0.31500
H 	H 	0.71050 0.75090 0.22860 0.13900
H 	H 	0.68810 0.69560 0.23440 0.12000
H 	H 	0.70120 0.73080 0.26450 0.13100
C 	C 	0.56270 0.70520 0.24740 -0.32800
H 	H 	0.57130 0.68960 0.26820 0.14400
H 	H 	0.56560 0.68090 0.23020 0.12300
H 	H 	0.51720 0.71970 0.24750 0.12500
O 	O 	0.67320 0.90610 0.26340 -0.11300
N 	N 	0.73470 0.90580 0.30930 -0.19200
C 	C 	0.70010 0.88430 0.28610 0.37800
H 	H 	0.69560 0.84990 0.28690 -0.05600
C 	C 	0.76390 0.87760 0.33590 -0.36000
H 	H 	0.73040 0.85390 0.34360 0.12700
H 	H 	0.77610 0.89970 0.35360 0.13800
H 	H 	0.80450 0.86050 0.32840 0.13300
C 	C 	0.74430 0.95900 0.30840 -0.04000
H 	H 	0.78100 0.96700 0.29340 0.09400
H 	H 	0.75620 0.97060 0.33000 0.01800
H 	H 	0.70220 0.97460 0.30130 0.07300
O 	O 	0.65730 0.88760 0.27190 -0.42300
N 	N 	0.67890 0.93750 0.31430 -0.11400
C 	C 	0.64510 0.91940 0.29090 0.19000
H 	H 	0.60180 0.93390 0.28800 -0.03400
C 	C 	0.64650 0.94930 0.34520 -0.24600
H 	H 	0.59700 0.94880 0.34270 0.09500
H 	H 	0.66090 0.98180 0.35220 0.09200
H 	H 	0.66000 0.92520 0.36150 0.09200
C 	C 	0.75130 0.94830 0.31320 -0.07400
H 	H 	0.77720 0.91790 0.31480 0.16300
H 	H 	0.76320 0.96960 0.33130 0.03600
H 	H 	0.76220 0.96470 0.29290 -0.05100
Cl	Cl	0.61450 0.81140 0.23560 0.44200
Cu	Cu	0.06702 0.46137 0.15810 0.87400
Cu	Cu	0.10708 0.39080 0.22711 0.92000
Cl	Cl	0.02019 0.38199 0.19117 -0.53900
N 	N 	0.09990 0.49158 0.25317 -0.09800
N 	N 	0.09190 0.46257 0.22769 -0.15400
N 	N 	0.08200 0.48935 0.20176 -0.15800
N 	N 	0.08470 0.53643 0.20943 -0.10100
N 	N 	0.94040 0.65907 0.31556 -0.13300
N 	N 	0.90950 0.67851 0.34124 -0.14300
N 	N 	0.95190 0.68096 0.36517 -0.14500
N 	N 	0.01240 0.66356 0.35655 -0.09200
C 	C 	0.09590 0.53660 0.24107 0.04600
C 	C 	0.10880 0.58080 0.26168 0.16000
C 	C 	0.04730 0.59150 0.28326 -0.28600
H 	H 	0.00700 0.59830 0.26970 0.11900
H 	H 	0.03720 0.56280 0.29680 0.11700
C 	C 	0.06230 0.63550 0.30469 0.16100
H 	H 	0.11580 0.59660 0.33990 0.12000
H 	H 	0.16440 0.61750 0.22600 0.10100
C 	C 	0.17130 0.56980 0.28313 -0.27000
H 	H 	0.21090 0.56210 0.26940 0.10400
H 	H 	0.16170 0.54110 0.29690 0.10700
C 	C 	0.00420 0.65030 0.32567 0.05900
O 	O 	0.12810 0.32260 0.22770 -0.63400
N 	N 	0.11350 0.24360 0.24180 -0.01900
C 	C 	0.09370 0.28810 0.23670 -0.08900
H 	H 	0.04690 0.29460 0.24030 0.01900
C 	C 	0.18400 0.22900 0.24240 -0.31500
H 	H 	0.21050 0.25090 0.22860 0.13900
H 	H 	0.18810 0.19560 0.23440 0.12000
H 	H 	0.20120 0.23080 0.26450 0.13100
C 	C 	0.06270 0.20520 0.24740 -0.32800
H 	H 	0.07130 0.18960 0.26820 0.14400
H 	H 	0.06560 0.18090 0.23020 0.12300
H 	H 	0.01720 0.21970 0.24750 0.12500
O 	O 	0.17320 0.40610 0.26340 -0.11300
N 	N 	0.23470 0.40580 0.30930 -0.19200
C 	C 	0.20010 0.38430 0.28610 0.37800
H 	H 	0.19560 0.34990 0.28690 -0.05600
C 	C 	0.26390 0.37760 0.33590 -0.36000
H 	H 	0.23040 0.35390 0.34360 0.12700
H 	H 	0.27610 0.39970 0.35360 0.13800
H 	H 	0.30450 0.36050 0.32840 0.13300
C 	C 	0.24430 0.45900 0.30840 -0.04000
H 	H 	0.28100 0.46700 0.29340 0.09400
H 	H 	0.25620 0.47060 0.33000 0.01800
H 	H 	0.20220 0.47460 0.30130 0.07300
O 	O 	0.15730 0.38760 0.27190 -0.42300
N 	N 	0.17890 0.43750 0.31430 -0.11400
C 	C 	0.14510 0.41940 0.29090 0.19000
H 	H 	0.10180 0.43390 0.28800 -0.03400
C 	C 	0.14650 0.44930 0.34520 -0.24600
H 	H 	0.09700 0.44880 0.34270 0.09500
H 	H 	0.16090 0.48180 0.35220 0.09200
H 	H 	0.16000 0.42520 0.36150 0.09200
C 	C 	0.25130 0.44830 0.31320 -0.07400
H 	H 	0.27720 0.41790 0.31480 0.16300
H 	H 	0.26320 0.46960 0.33130 0.03600
H 	H 	0.26220 0.46470 0.29290 -0.05100
Cl	Cl	0.11450 0.31140 0.23560 0.44200
Cu	Cu	0.06702 0.96137 0.65810 0.87400
Cu	Cu	0.10708 0.89080 0.72711 0.92000
Cl	Cl	0.02019 0.88199 0.69117 -0.53900
N 	N 	0.09990 0.99158 0.75317 -0.09800
N 	N 	0.09190 0.96257 0.72769 -0.15400
N 	N 	0.08200 0.98935 0.70176 -0.15800
N 	N 	0.08470 0.03643 0.70943 -0.10000
N 	N 	0.94040 0.15907 0.81556 -0.13300
N 	N 	0.90950 0.17851 0.84124 -0.14300
N 	N 	0.95190 0.18096 0.86517 -0.14500
N 	N 	0.01240 0.16356 0.85655 -0.09200
C 	C 	0.09590 0.03660 0.74107 0.04600
C 	C 	0.10880 0.08080 0.76168 0.16000
C 	C 	0.04730 0.09150 0.78326 -0.28600
H 	H 	0.00700 0.09830 0.76970 0.11900
H 	H 	0.03720 0.06280 0.79680 0.11700
C 	C 	0.06230 0.13550 0.80469 0.16100
H 	H 	0.11580 0.09660 0.83990 0.12000
H 	H 	0.16440 0.11750 0.72600 0.10100
C 	C 	0.17130 0.06980 0.78313 -0.27000
H 	H 	0.21090 0.06210 0.76940 0.10400
H 	H 	0.16170 0.04110 0.79690 0.10700
C 	C 	0.00420 0.15030 0.82567 0.05900
O 	O 	0.12810 0.82260 0.72770 -0.63400
N 	N 	0.11350 0.74360 0.74180 -0.01900
C 	C 	0.09370 0.78810 0.73670 -0.08900
H 	H 	0.04690 0.79460 0.74030 0.01800
C 	C 	0.18400 0.72900 0.74240 -0.31500
H 	H 	0.21050 0.75090 0.72860 0.13900
H 	H 	0.18810 0.69560 0.73440 0.12000
H 	H 	0.20120 0.73080 0.76450 0.13100
C 	C 	0.06270 0.70520 0.74740 -0.32800
H 	H 	0.07130 0.68960 0.76820 0.14400
H 	H 	0.06560 0.68090 0.73020 0.12300
H 	H 	0.01720 0.71970 0.74750 0.12500
O 	O 	0.17320 0.90610 0.76340 -0.11300
N 	N 	0.23470 0.90580 0.80930 -0.19200
C 	C 	0.20010 0.88430 0.78610 0.37800
H 	H 	0.19560 0.84990 0.78690 -0.05600
C 	C 	0.26390 0.87760 0.83590 -0.36000
H 	H 	0.23040 0.85390 0.84360 0.12700
H 	H 	0.27610 0.89970 0.85360 0.13800
H 	H 	0.30450 0.86050 0.82840 0.13300
C 	C 	0.24430 0.95900 0.80840 -0.04000
H 	H 	0.28100 0.96700 0.79340 0.09400
H 	H 	0.25620 0.97060 0.83000 0.01800
H 	H 	0.20220 0.97460 0.80130 0.07300
O 	O 	0.15730 0.88760 0.77190 -0.42300
N 	N 	0.17890 0.93750 0.81430 -0.11400
C 	C 	0.14510 0.91940 0.79090 0.19000
H 	H 	0.10180 0.93390 0.78800 -0.03400
C 	C 	0.14650 0.94930 0.84520 -0.24600
H 	H 	0.09700 0.94880 0.84270 0.09500
H 	H 	0.16090 0.98180 0.85220 0.09200
H 	H 	0.16000 0.92520 0.86150 0.09200
C 	C 	0.25130 0.94830 0.81320 -0.07400
H 	H 	0.27720 0.91790 0.81480 0.16300
H 	H 	0.26320 0.96960 0.83130 0.03600
H 	H 	0.26220 0.96470 0.79290 -0.05100
Cl	Cl	0.11450 0.81140 0.73560 0.44200
Cu	Cu	0.18298 0.28863 0.65810 0.87400
Cu	Cu	0.14292 0.35920 0.72711 0.92000
Cl	Cl	0.22981 0.36801 0.69117 -0.53900
N 	N 	0.15010 0.25842 0.75317 -0.09800
N 	N 	0.15810 0.28743 0.72769 -0.15400
N 	N 	0.16800 0.26065 0.70176 -0.15800
N 	N 	0.16530 0.21357 0.70943 -0.10100
N 	N 	0.30960 0.09093 0.81556 -0.13300
N 	N 	0.34050 0.07149 0.84124 -0.14300
N 	N 	0.29810 0.06904 0.86517 -0.14500
N 	N 	0.23760 0.08644 0.85655 -0.09200
C 	C 	0.15410 0.21340 0.74107 0.04600
C 	C 	0.14120 0.16920 0.76168 0.16000
C 	C 	0.20270 0.15850 0.78326 -0.28600
H 	H 	0.24300 0.15170 0.76970 0.11900
H 	H 	0.21280 0.18720 0.79680 0.11700
C 	C 	0.18770 0.11450 0.80469 0.16100
H 	H 	0.13420 0.15340 0.83990 0.12000
H 	H 	0.08560 0.13250 0.72600 0.10100
C 	C 	0.07870 0.18020 0.78313 -0.27000
H 	H 	0.03910 0.18790 0.76940 0.10400
H 	H 	0.08830 0.20890 0.79690 0.10700
C 	C 	0.24580 0.09970 0.82567 0.05900
O 	O 	0.12190 0.42740 0.72770 -0.63400
N 	N 	0.13650 0.50640 0.74180 -0.01900
C 	C 	0.15630 0.46190 0.73670 -0.08900
H 	H 	0.20310 0.45540 0.74030 0.01800
C 	C 	0.06600 0.52100 0.74240 -0.31500
H 	H 	0.03950 0.49910 0.72860 0.13900
H 	H 	0.06190 0.55440 0.73440 0.12000
H 	H 	0.04880 0.51920 0.76450 0.13100
C 	C 	0.18730 0.54480 0.74740 -0.32800
H 	H 	0.17870 0.56040 0.76820 0.14400
H 	H 	0.18440 0.56910 0.73020 0.12300
H 	H 	0.23280 0.53030 0.74750 0.12500
O 	O 	0.07680 0.34390 0.76340 -0.11300
N 	N 	0.01530 0.34420 0.80930 -0.19200
C 	C 	0.04990 0.36570 0.78610 0.37800
H 	H 	0.05440 0.40010 0.78690 -0.05600
C 	C 	0.98610 0.37240 0.83590 -0.36000
H 	H 	0.01960 0.39610 0.84360 0.12700
H 	H 	0.97390 0.35030 0.85360 0.13800
H 	H 	0.94550 0.38950 0.82840 0.13300
C 	C 	0.00570 0.29100 0.80840 -0.04000
H 	H 	0.96900 0.28300 0.79340 0.09400
H 	H 	0.99380 0.27940 0.83000 0.01800
H 	H 	0.04780 0.27540 0.80130 0.07300
O 	O 	0.09270 0.36240 0.77190 -0.42300
N 	N 	0.07110 0.31250 0.81430 -0.11400
C 	C 	0.10490 0.33060 0.79090 0.19000
H 	H 	0.14820 0.31610 0.78800 -0.03400
C 	C 	0.10350 0.30070 0.84520 -0.24600
H 	H 	0.15300 0.30120 0.84270 0.09500
H 	H 	0.08910 0.26820 0.85220 0.09200
H 	H 	0.09000 0.32480 0.86150 0.09200
C 	C 	0.99870 0.30170 0.81320 -0.07400
H 	H 	0.97280 0.33210 0.81480 0.16300
H 	H 	0.98680 0.28040 0.83130 0.03600
H 	H 	0.98780 0.28530 0.79290 -0.05100
Cl	Cl	0.13550 0.43860 0.73560 0.44200
Cu	Cu	0.18298 0.78863 0.15810 0.87400
Cu	Cu	0.14292 0.85920 0.22711 0.92000
Cl	Cl	0.22981 0.86801 0.19117 -0.53900
N 	N 	0.15010 0.75842 0.25317 -0.09800
N 	N 	0.15810 0.78743 0.22769 -0.15400
N 	N 	0.16800 0.76065 0.20176 -0.15800
N 	N 	0.16530 0.71357 0.20943 -0.10100
N 	N 	0.30960 0.59093 0.31556 -0.13300
N 	N 	0.34050 0.57149 0.34124 -0.14300
N 	N 	0.29810 0.56904 0.36517 -0.14500
N 	N 	0.23760 0.58644 0.35655 -0.09200
C 	C 	0.15410 0.71340 0.24107 0.04600
C 	C 	0.14120 0.66920 0.26168 0.16000
C 	C 	0.20270 0.65850 0.28326 -0.28600
H 	H 	0.24300 0.65170 0.26970 0.11900
H 	H 	0.21280 0.68720 0.29680 0.11700
C 	C 	0.18770 0.61450 0.30469 0.16100
H 	H 	0.13420 0.65340 0.33990 0.12000
H 	H 	0.08560 0.63250 0.22600 0.10100
C 	C 	0.07870 0.68020 0.28313 -0.27000
H 	H 	0.03910 0.68790 0.26940 0.10400
H 	H 	0.08830 0.70890 0.29690 0.10700
C 	C 	0.24580 0.59970 0.32567 0.05900
O 	O 	0.12190 0.92740 0.22770 -0.63400
N 	N 	0.13650 0.00640 0.24180 -0.01900
C 	C 	0.15630 0.96190 0.23670 -0.08900
H 	H 	0.20310 0.95540 0.24030 0.01900
C 	C 	0.06600 0.02100 0.24240 -0.31500
H 	H 	0.03950 0.99910 0.22860 0.13800
H 	H 	0.06190 0.05440 0.23440 0.12000
H 	H 	0.04880 0.01920 0.26450 0.13100
C 	C 	0.18730 0.04480 0.24740 -0.32800
H 	H 	0.17870 0.06040 0.26820 0.14400
H 	H 	0.18440 0.06910 0.23020 0.12300
H 	H 	0.23280 0.03030 0.24750 0.12500
O 	O 	0.07680 0.84390 0.26340 -0.11300
N 	N 	0.01530 0.84420 0.30930 -0.19200
C 	C 	0.04990 0.86570 0.28610 0.37800
H 	H 	0.05440 0.90010 0.28690 -0.05600
C 	C 	0.98610 0.87240 0.33590 -0.35900
H 	H 	0.01960 0.89610 0.34360 0.12700
H 	H 	0.97390 0.85030 0.35360 0.13800
H 	H 	0.94550 0.88950 0.32840 0.13300
C 	C 	0.00570 0.79100 0.30840 -0.04000
H 	H 	0.96900 0.78300 0.29340 0.09400
H 	H 	0.99380 0.77940 0.33000 0.01800
H 	H 	0.04780 0.77540 0.30130 0.07300
O 	O 	0.09270 0.86240 0.27190 -0.42300
N 	N 	0.07110 0.81250 0.31430 -0.11400
C 	C 	0.10490 0.83060 0.29090 0.19000
H 	H 	0.14820 0.81610 0.28800 -0.03400
C 	C 	0.10350 0.80070 0.34520 -0.24600
H 	H 	0.15300 0.80120 0.34270 0.09500
H 	H 	0.08910 0.76820 0.35220 0.09200
H 	H 	0.09000 0.82480 0.36150 0.09200
C 	C 	0.99870 0.80170 0.31320 -0.07500
H 	H 	0.97280 0.83210 0.31480 0.16300
H 	H 	0.98680 0.78040 0.33130 0.03600
H 	H 	0.98780 0.78530 0.29290 -0.05100
Cl	Cl	0.13550 0.93860 0.23560 0.44200
Cu	Cu	0.68298 0.28863 0.15810 0.87400
Cu	Cu	0.64292 0.35920 0.22711 0.92000
Cl	Cl	0.72981 0.36801 0.19117 -0.53900
N 	N 	0.65010 0.25842 0.25317 -0.09800
N 	N 	0.65810 0.28743 0.22769 -0.15400
N 	N 	0.66800 0.26065 0.20176 -0.15800
N 	N 	0.66530 0.21357 0.20943 -0.10100
N 	N 	0.80960 0.09093 0.31556 -0.13300
N 	N 	0.84050 0.07149 0.34124 -0.14300
N 	N 	0.79810 0.06904 0.36517 -0.14500
N 	N 	0.73760 0.08644 0.35655 -0.09200
C 	C 	0.65410 0.21340 0.24107 0.04600
C 	C 	0.64120 0.16920 0.26168 0.16000
C 	C 	0.70270 0.15850 0.28326 -0.28600
H 	H 	0.74300 0.15170 0.26970 0.11900
H 	H 	0.71280 0.18720 0.29680 0.11700
C 	C 	0.68770 0.11450 0.30469 0.16100
H 	H 	0.63420 0.15340 0.33990 0.12000
H 	H 	0.58560 0.13250 0.22600 0.10100
C 	C 	0.57870 0.18020 0.28313 -0.27000
H 	H 	0.53910 0.18790 0.26940 0.10400
H 	H 	0.58830 0.20890 0.29690 0.10700
C 	C 	0.74580 0.09970 0.32567 0.05900
O 	O 	0.62190 0.42740 0.22770 -0.63400
N 	N 	0.63650 0.50640 0.24180 -0.01900
C 	C 	0.65630 0.46190 0.23670 -0.08900
H 	H 	0.70310 0.45540 0.24030 0.01800
C 	C 	0.56600 0.52100 0.24240 -0.31500
H 	H 	0.53950 0.49910 0.22860 0.13900
H 	H 	0.56190 0.55440 0.23440 0.12000
H 	H 	0.54880 0.51920 0.26450 0.13100
C 	C 	0.68730 0.54480 0.24740 -0.32800
H 	H 	0.67870 0.56040 0.26820 0.14400
H 	H 	0.68440 0.56910 0.23020 0.12300
H 	H 	0.73280 0.53030 0.24750 0.12500
O 	O 	0.57680 0.34390 0.26340 -0.11300
N 	N 	0.51530 0.34420 0.30930 -0.19200
C 	C 	0.54990 0.36570 0.28610 0.37800
H 	H 	0.55440 0.40010 0.28690 -0.05600
C 	C 	0.48610 0.37240 0.33590 -0.36000
H 	H 	0.51960 0.39610 0.34360 0.12700
H 	H 	0.47390 0.35030 0.35360 0.13800
H 	H 	0.44550 0.38950 0.32840 0.13300
C 	C 	0.50570 0.29100 0.30840 -0.04000
H 	H 	0.46900 0.28300 0.29340 0.09400
H 	H 	0.49380 0.27940 0.33000 0.01800
H 	H 	0.54780 0.27540 0.30130 0.07300
O 	O 	0.59270 0.36240 0.27190 -0.42300
N 	N 	0.57110 0.31250 0.31430 -0.11400
C 	C 	0.60490 0.33060 0.29090 0.19000
H 	H 	0.64820 0.31610 0.28800 -0.03400
C 	C 	0.60350 0.30070 0.34520 -0.24600
H 	H 	0.65300 0.30120 0.34270 0.09500
H 	H 	0.58910 0.26820 0.35220 0.09200
H 	H 	0.59000 0.32480 0.36150 0.09200
C 	C 	0.49870 0.30170 0.31320 -0.07400
H 	H 	0.47280 0.33210 0.31480 0.16300
H 	H 	0.48680 0.28040 0.33130 0.03600
H 	H 	0.48780 0.28530 0.29290 -0.05100
Cl	Cl	0.63550 0.43860 0.23560 0.44200
Cu	Cu	0.68298 0.78863 0.65810 0.87400
Cu	Cu	0.64292 0.85920 0.72711 0.92000
Cl	Cl	0.72981 0.86801 0.69117 -0.53900
N 	N 	0.65010 0.75842 0.75317 -0.09800
N 	N 	0.65810 0.78743 0.72769 -0.15400
N 	N 	0.66800 0.76065 0.70176 -0.15800
N 	N 	0.66530 0.71357 0.70943 -0.10100
N 	N 	0.80960 0.59093 0.81556 -0.13300
N 	N 	0.84050 0.57149 0.84124 -0.14300
N 	N 	0.79810 0.56904 0.86517 -0.14500
N 	N 	0.73760 0.58644 0.85655 -0.09200
C 	C 	0.65410 0.71340 0.74107 0.04600
C 	C 	0.64120 0.66920 0.76168 0.16000
C 	C 	0.70270 0.65850 0.78326 -0.28600
H 	H 	0.74300 0.65170 0.76970 0.11900
H 	H 	0.71280 0.68720 0.79680 0.11700
C 	C 	0.68770 0.61450 0.80469 0.16100
H 	H 	0.63420 0.65340 0.83990 0.12000
H 	H 	0.58560 0.63250 0.72600 0.10100
C 	C 	0.57870 0.68020 0.78313 -0.27000
H 	H 	0.53910 0.68790 0.76940 0.10400
H 	H 	0.58830 0.70890 0.79690 0.10700
C 	C 	0.74580 0.59970 0.82567 0.05900
O 	O 	0.62190 0.92740 0.72770 -0.63400
N 	N 	0.63650 0.00640 0.74180 -0.01900
C 	C 	0.65630 0.96190 0.73670 -0.08900
H 	H 	0.70310 0.95540 0.74030 0.01800
C 	C 	0.56600 0.02100 0.74240 -0.31600
H 	H 	0.53950 0.99910 0.72860 0.13900
H 	H 	0.56190 0.05440 0.73440 0.12000
H 	H 	0.54880 0.01920 0.76450 0.13100
C 	C 	0.68730 0.04480 0.74740 -0.32800
H 	H 	0.67870 0.06040 0.76820 0.14400
H 	H 	0.68440 0.06910 0.73020 0.12300
H 	H 	0.73280 0.03030 0.74750 0.12500
O 	O 	0.57680 0.84390 0.76340 -0.11300
N 	N 	0.51530 0.84420 0.80930 -0.19200
C 	C 	0.54990 0.86570 0.78610 0.37800
H 	H 	0.55440 0.90010 0.78690 -0.05600
C 	C 	0.48610 0.87240 0.83590 -0.36000
H 	H 	0.51960 0.89610 0.84360 0.12700
H 	H 	0.47390 0.85030 0.85360 0.13800
H 	H 	0.44550 0.88950 0.82840 0.13300
C 	C 	0.50570 0.79100 0.80840 -0.04000
H 	H 	0.46900 0.78300 0.79340 0.09400
H 	H 	0.49380 0.77940 0.83000 0.01800
H 	H 	0.54780 0.77540 0.80130 0.07300
O 	O 	0.59270 0.86240 0.77190 -0.42300
N 	N 	0.57110 0.81250 0.81430 -0.11400
C 	C 	0.60490 0.83060 0.79090 0.19000
H 	H 	0.64820 0.81610 0.78800 -0.03400
C 	C 	0.60350 0.80070 0.84520 -0.24600
H 	H 	0.65300 0.80120 0.84270 0.09500
H 	H 	0.58910 0.76820 0.85220 0.09200
H 	H 	0.59000 0.82480 0.86150 0.09200
C 	C 	0.49870 0.80170 0.81320 -0.07400
H 	H 	0.47280 0.83210 0.81480 0.16300
H 	H 	0.48680 0.78040 0.83130 0.03600
H 	H 	0.48780 0.78530 0.79290 -0.05100
Cl	Cl	0.63550 0.93860 0.73560 0.44200
Cu	Cu	0.81702 0.53863 0.90810 0.87400
Cu	Cu	0.85708 0.60920 0.97711 0.92000
Cl	Cl	0.77019 0.61801 0.94117 -0.53900
N 	N 	0.84990 0.50842 0.00317 -0.09800
N 	N 	0.84190 0.53743 0.97769 -0.15400
N 	N 	0.83200 0.51065 0.95176 -0.15800
N 	N 	0.83470 0.46357 0.95943 -0.10100
N 	N 	0.69040 0.34093 0.06556 -0.13300
N 	N 	0.65950 0.32149 0.09124 -0.14300
N 	N 	0.70190 0.31904 0.11517 -0.14500
N 	N 	0.76240 0.33644 0.10655 -0.09200
C 	C 	0.84590 0.46340 0.99107 0.04600
C 	C 	0.85880 0.41920 0.01168 0.16000
C 	C 	0.79730 0.40850 0.03326 -0.28600
H 	H 	0.75700 0.40170 0.01970 0.11900
H 	H 	0.78720 0.43720 0.04680 0.11700
C 	C 	0.81230 0.36450 0.05469 0.16100
H 	H 	0.86580 0.40340 0.08990 0.12000
H 	H 	0.91440 0.38250 0.97600 0.10100
C 	C 	0.92130 0.43020 0.03313 -0.27000
H 	H 	0.96090 0.43790 0.01940 0.10400
H 	H 	0.91170 0.45890 0.04690 0.10700
C 	C 	0.75420 0.34970 0.07567 0.05900
O 	O 	0.87810 0.67740 0.97770 -0.63400
N 	N 	0.86350 0.75640 0.99180 -0.01900
C 	C 	0.84370 0.71190 0.98670 -0.08900
H 	H 	0.79690 0.70540 0.99030 0.01900
C 	C 	0.93400 0.77100 0.99240 -0.31500
H 	H 	0.96050 0.74910 0.97860 0.13900
H 	H 	0.93810 0.80440 0.98440 0.12000
H 	H 	0.95120 0.76920 0.01450 0.13000
C 	C 	0.81270 0.79480 0.99740 -0.32800
H 	H 	0.82130 0.81040 0.01820 0.14300
H 	H 	0.81560 0.81910 0.98020 0.12300
H 	H 	0.76720 0.78030 0.99750 0.12500
O 	O 	0.92320 0.59390 0.01340 -0.11300
N 	N 	0.98470 0.59420 0.05930 -0.19200
C 	C 	0.95010 0.61570 0.03610 0.37800
H 	H 	0.94560 0.65010 0.03690 -0.05600
C 	C 	0.01390 0.62240 0.08590 -0.36000
H 	H 	0.98040 0.64610 0.09360 0.12700
H 	H 	0.02610 0.60030 0.10360 0.13800
H 	H 	0.05450 0.63950 0.07840 0.13300
C 	C 	0.99430 0.54100 0.05840 -0.04000
H 	H 	0.03100 0.53300 0.04340 0.09400
H 	H 	0.00620 0.52940 0.08000 0.01800
H 	H 	0.95220 0.52540 0.05130 0.07300
O 	O 	0.90730 0.61240 0.02190 -0.42300
N 	N 	0.92890 0.56250 0.06430 -0.11400
C 	C 	0.89510 0.58060 0.04090 0.19000
H 	H 	0.85180 0.56610 0.03800 -0.03400
C 	C 	0.89650 0.55070 0.09520 -0.24600
H 	H 	0.84700 0.55120 0.09270 0.09500
H 	H 	0.91090 0.51820 0.10220 0.09200
H 	H 	0.91000 0.57480 0.11150 0.09200
C 	C 	0.00130 0.55170 0.06320 -0.07400
H 	H 	0.02720 0.58210 0.06480 0.16300
H 	H 	0.01320 0.53040 0.08130 0.03600
H 	H 	0.01220 0.53530 0.04290 -0.05100
Cl	Cl	0.86450 0.68860 0.98560 0.44200
Cu	Cu	0.81702 0.03863 0.40810 0.87400
Cu	Cu	0.85708 0.10920 0.47711 0.92000
Cl	Cl	0.77019 0.11801 0.44117 -0.53900
N 	N 	0.84990 0.00842 0.50317 -0.09800
N 	N 	0.84190 0.03743 0.47769 -0.15400
N 	N 	0.83200 0.01065 0.45176 -0.15800
N 	N 	0.83470 0.96357 0.45943 -0.10000
N 	N 	0.69040 0.84093 0.56556 -0.13300
N 	N 	0.65950 0.82149 0.59124 -0.14300
N 	N 	0.70190 0.81904 0.61517 -0.14500
N 	N 	0.76240 0.83644 0.60655 -0.09200
C 	C 	0.84590 0.96340 0.49107 0.04600
C 	C 	0.85880 0.91920 0.51168 0.16000
C 	C 	0.79730 0.90850 0.53326 -0.28600
H 	H 	0.75700 0.90170 0.51970 0.11900
H 	H 	0.78720 0.93720 0.54680 0.11700
C 	C 	0.81230 0.86450 0.55469 0.16100
H 	H 	0.86580 0.90340 0.58990 0.12000
H 	H 	0.91440 0.88250 0.47600 0.10100
C 	C 	0.92130 0.93020 0.53313 -0.27000
H 	H 	0.96090 0.93790 0.51940 0.10400
H 	H 	0.91170 0.95890 0.54690 0.10700
C 	C 	0.75420 0.84970 0.57567 0.05900
O 	O 	0.87810 0.17740 0.47770 -0.63400
N 	N 	0.86350 0.25640 0.49180 -0.01900
C 	C 	0.84370 0.21190 0.48670 -0.08900
H 	H 	0.79690 0.20540 0.49030 0.01800
C 	C 	0.93400 0.27100 0.49240 -0.31500
H 	H 	0.96050 0.24910 0.47860 0.13900
H 	H 	0.93810 0.30440 0.48440 0.12000
H 	H 	0.95120 0.26920 0.51450 0.13100
C 	C 	0.81270 0.29480 0.49740 -0.32800
H 	H 	0.82130 0.31040 0.51820 0.14400
H 	H 	0.81560 0.31910 0.48020 0.12300
H 	H 	0.76720 0.28030 0.49750 0.12500
O 	O 	0.92320 0.09390 0.51340 -0.11300
N 	N 	0.98470 0.09420 0.55930 -0.19200
C 	C 	0.95010 0.11570 0.53610 0.37800
H 	H 	0.94560 0.15010 0.53690 -0.05600
C 	C 	0.01390 0.12240 0.58590 -0.35900
H 	H 	0.98040 0.14610 0.59360 0.12700
H 	H 	0.02610 0.10030 0.60360 0.13800
H 	H 	0.05450 0.13950 0.57840 0.13300
C 	C 	0.99430 0.04100 0.55840 -0.04000
H 	H 	0.03100 0.03300 0.54340 0.09400
H 	H 	0.00620 0.02940 0.58000 0.01800
H 	H 	0.95220 0.02540 0.55130 0.07300
O 	O 	0.90730 0.11240 0.52190 -0.42300
N 	N 	0.92890 0.06250 0.56430 -0.11400
C 	C 	0.89510 0.08060 0.54090 0.19000
H 	H 	0.85180 0.06610 0.53800 -0.03400
C 	C 	0.89650 0.05070 0.59520 -0.24600
H 	H 	0.84700 0.05120 0.59270 0.09500
H 	H 	0.91090 0.01820 0.60220 0.09200
H 	H 	0.91000 0.07480 0.61150 0.09200
C 	C 	0.00130 0.05170 0.56320 -0.07500
H 	H 	0.02720 0.08210 0.56480 0.16300
H 	H 	0.01320 0.03040 0.58130 0.03700
H 	H 	0.01220 0.03530 0.54290 -0.05100
Cl	Cl	0.86450 0.18860 0.48560 0.44200
Cu	Cu	0.31702 0.53863 0.40810 0.87400
Cu	Cu	0.35708 0.60920 0.47711 0.92000
Cl	Cl	0.27019 0.61801 0.44117 -0.53900
N 	N 	0.34990 0.50842 0.50317 -0.09800
N 	N 	0.34190 0.53743 0.47769 -0.15400
N 	N 	0.33200 0.51065 0.45176 -0.15800
N 	N 	0.33470 0.46357 0.45943 -0.10100
N 	N 	0.19040 0.34093 0.56556 -0.13300
N 	N 	0.15950 0.32149 0.59124 -0.14300
N 	N 	0.20190 0.31904 0.61517 -0.14500
N 	N 	0.26240 0.33644 0.60655 -0.09200
C 	C 	0.34590 0.46340 0.49107 0.04600
C 	C 	0.35880 0.41920 0.51168 0.16000
C 	C 	0.29730 0.40850 0.53326 -0.28600
H 	H 	0.25700 0.40170 0.51970 0.11900
H 	H 	0.28720 0.43720 0.54680 0.11700
C 	C 	0.31230 0.36450 0.55469 0.16100
H 	H 	0.36580 0.40340 0.58990 0.12000
H 	H 	0.41440 0.38250 0.47600 0.10100
C 	C 	0.42130 0.43020 0.53313 -0.27000
H 	H 	0.46090 0.43790 0.51940 0.10400
H 	H 	0.41170 0.45890 0.54690 0.10700
C 	C 	0.25420 0.34970 0.57567 0.05900
O 	O 	0.37810 0.67740 0.47770 -0.63400
N 	N 	0.36350 0.75640 0.49180 -0.01900
C 	C 	0.34370 0.71190 0.48670 -0.08900
H 	H 	0.29690 0.70540 0.49030 0.01800
C 	C 	0.43400 0.77100 0.49240 -0.31500
H 	H 	0.46050 0.74910 0.47860 0.13900
H 	H 	0.43810 0.80440 0.48440 0.12000
H 	H 	0.45120 0.76920 0.51450 0.13100
C 	C 	0.31270 0.79480 0.49740 -0.32800
H 	H 	0.32130 0.81040 0.51820 0.14400
H 	H 	0.31560 0.81910 0.48020 0.12300
H 	H 	0.26720 0.78030 0.49750 0.12500
O 	O 	0.42320 0.59390 0.51340 -0.11300
N 	N 	0.48470 0.59420 0.55930 -0.19200
C 	C 	0.45010 0.61570 0.53610 0.37800
H 	H 	0.44560 0.65010 0.53690 -0.05600
C 	C 	0.51390 0.62240 0.58590 -0.36000
H 	H 	0.48040 0.64610 0.59360 0.12700
H 	H 	0.52610 0.60030 0.60360 0.13800
H 	H 	0.55450 0.63950 0.57840 0.13300
C 	C 	0.49430 0.54100 0.55840 -0.04000
H 	H 	0.53100 0.53300 0.54340 0.09400
H 	H 	0.50620 0.52940 0.58000 0.01800
H 	H 	0.45220 0.52540 0.55130 0.07300
O 	O 	0.40730 0.61240 0.52190 -0.42300
N 	N 	0.42890 0.56250 0.56430 -0.11400
C 	C 	0.39510 0.58060 0.54090 0.19000
H 	H 	0.35180 0.56610 0.53800 -0.03400
C 	C 	0.39650 0.55070 0.59520 -0.24600
H 	H 	0.34700 0.55120 0.59270 0.09500
H 	H 	0.41090 0.51820 0.60220 0.09200
H 	H 	0.41000 0.57480 0.61150 0.09200
C 	C 	0.50130 0.55170 0.56320 -0.07400
H 	H 	0.52720 0.58210 0.56480 0.16300
H 	H 	0.51320 0.53040 0.58130 0.03600
H 	H 	0.51220 0.53530 0.54290 -0.05100
Cl	Cl	0.36450 0.68860 0.48560 0.44200
Cu	Cu	0.31702 0.03863 0.90810 0.87400
Cu	Cu	0.35708 0.10920 0.97711 0.92000
Cl	Cl	0.27019 0.11801 0.94117 -0.53900
N 	N 	0.34990 0.00842 0.00317 -0.09800
N 	N 	0.34190 0.03743 0.97769 -0.15400
N 	N 	0.33200 0.01065 0.95176 -0.15800
N 	N 	0.33470 0.96357 0.95943 -0.10100
N 	N 	0.19040 0.84093 0.06556 -0.13300
N 	N 	0.15950 0.82149 0.09124 -0.14300
N 	N 	0.20190 0.81904 0.11517 -0.14500
N 	N 	0.26240 0.83644 0.10655 -0.09200
C 	C 	0.34590 0.96340 0.99107 0.04600
C 	C 	0.35880 0.91920 0.01168 0.16000
C 	C 	0.29730 0.90850 0.03326 -0.28600
H 	H 	0.25700 0.90170 0.01970 0.11900
H 	H 	0.28720 0.93720 0.04680 0.11700
C 	C 	0.31230 0.86450 0.05469 0.16100
H 	H 	0.36580 0.90340 0.08990 0.12000
H 	H 	0.41440 0.88250 0.97600 0.10100
C 	C 	0.42130 0.93020 0.03313 -0.27000
H 	H 	0.46090 0.93790 0.01940 0.10400
H 	H 	0.41170 0.95890 0.04690 0.10700
C 	C 	0.25420 0.84970 0.07567 0.05900
O 	O 	0.37810 0.17740 0.97770 -0.63400
N 	N 	0.36350 0.25640 0.99180 -0.01900
C 	C 	0.34370 0.21190 0.98670 -0.08900
H 	H 	0.29690 0.20540 0.99030 0.01800
C 	C 	0.43400 0.27100 0.99240 -0.31600
H 	H 	0.46050 0.24910 0.97860 0.13900
H 	H 	0.43810 0.30440 0.98440 0.12000
H 	H 	0.45120 0.26920 0.01450 0.13100
C 	C 	0.31270 0.29480 0.99740 -0.32800
H 	H 	0.32130 0.31040 0.01820 0.14400
H 	H 	0.31560 0.31910 0.98020 0.12300
H 	H 	0.26720 0.28030 0.99750 0.12500
O 	O 	0.42320 0.09390 0.01340 -0.11300
N 	N 	0.48470 0.09420 0.05930 -0.19200
C 	C 	0.45010 0.11570 0.03610 0.37800
H 	H 	0.44560 0.15010 0.03690 -0.05600
C 	C 	0.51390 0.12240 0.08590 -0.36000
H 	H 	0.48040 0.14610 0.09360 0.12700
H 	H 	0.52610 0.10030 0.10360 0.13800
H 	H 	0.55450 0.13950 0.07840 0.13300
C 	C 	0.49430 0.04100 0.05840 -0.04000
H 	H 	0.53100 0.03300 0.04340 0.09400
H 	H 	0.50620 0.02940 0.08000 0.01800
H 	H 	0.45220 0.02540 0.05130 0.07300
O 	O 	0.40730 0.11240 0.02190 -0.42300
N 	N 	0.42890 0.06250 0.06430 -0.11400
C 	C 	0.39510 0.08060 0.04090 0.19000
H 	H 	0.35180 0.06610 0.03800 -0.03400
C 	C 	0.39650 0.05070 0.09520 -0.24600
H 	H 	0.34700 0.05120 0.09270 0.09500
H 	H 	0.41090 0.01820 0.10220 0.09200
H 	H 	0.41000 0.07480 0.11150 0.09200
C 	C 	0.50130 0.05170 0.06320 -0.07400
H 	H 	0.52720 0.08210 0.06480 0.16300
H 	H 	0.51320 0.03040 0.08130 0.03600
H 	H 	0.51220 0.03530 0.04290 -0.05100
Cl	Cl	0.36450 0.18860 0.98560 0.44200
Cu	Cu	0.43298 0.71137 0.90810 0.87400
Cu	Cu	0.39292 0.64080 0.97711 0.92000
Cl	Cl	0.47981 0.63199 0.94117 -0.53900
N 	N 	0.40010 0.74158 0.00317 -0.09800
N 	N 	0.40810 0.71257 0.97769 -0.15400
N 	N 	0.41800 0.73935 0.95176 -0.15800
N 	N 	0.41530 0.78643 0.95943 -0.10100
N 	N 	0.55960 0.90907 0.06556 -0.13300
N 	N 	0.59050 0.92851 0.09124 -0.14300
N 	N 	0.54810 0.93096 0.11517 -0.14500
N 	N 	0.48760 0.91356 0.10655 -0.09200
C 	C 	0.40410 0.78660 0.99107 0.04700
C 	C 	0.39120 0.83080 0.01168 0.16000
C 	C 	0.45270 0.84150 0.03326 -0.28600
H 	H 	0.49300 0.84830 0.01970 0.11900
H 	H 	0.46280 0.81280 0.04680 0.11700
C 	C 	0.43770 0.88550 0.05469 0.16100
H 	H 	0.38420 0.84660 0.08990 0.12000
H 	H 	0.33560 0.86750 0.97600 0.10100
C 	C 	0.32870 0.81980 0.03313 -0.27000
H 	H 	0.28910 0.81210 0.01940 0.10400
H 	H 	0.33830 0.79110 0.04690 0.10700
C 	C 	0.49580 0.90030 0.07567 0.05900
O 	O 	0.37190 0.57260 0.97770 -0.63400
N 	N 	0.38650 0.49360 0.99180 -0.01900
C 	C 	0.40630 0.53810 0.98670 -0.08900
H 	H 	0.45310 0.54460 0.99030 0.01900
C 	C 	0.31600 0.47900 0.99240 -0.31500
H 	H 	0.28950 0.50090 0.97860 0.13900
H 	H 	0.31190 0.44560 0.98440 0.12000
H 	H 	0.29880 0.48080 0.01450 0.13100
C 	C 	0.43730 0.45520 0.99740 -0.32800
H 	H 	0.42870 0.43960 0.01820 0.14400
H 	H 	0.43440 0.43090 0.98020 0.12300
H 	H 	0.48280 0.46970 0.99750 0.12500
O 	O 	0.32680 0.65610 0.01340 -0.11300
N 	N 	0.26530 0.65580 0.05930 -0.19200
C 	C 	0.29990 0.63430 0.03610 0.37800
H 	H 	0.30440 0.59990 0.03690 -0.05600
C 	C 	0.23610 0.62760 0.08590 -0.36000
H 	H 	0.26960 0.60390 0.09360 0.12700
H 	H 	0.22390 0.64970 0.10360 0.13800
H 	H 	0.19550 0.61050 0.07840 0.13300
C 	C 	0.25570 0.70900 0.05840 -0.04000
H 	H 	0.21900 0.71700 0.04340 0.09400
H 	H 	0.24380 0.72060 0.08000 0.01800
H 	H 	0.29780 0.72460 0.05130 0.07300
O 	O 	0.34270 0.63760 0.02190 -0.42300
N 	N 	0.32110 0.68750 0.06430 -0.11400
C 	C 	0.35490 0.66940 0.04090 0.19000
H 	H 	0.39820 0.68390 0.03800 -0.03400
C 	C 	0.35350 0.69930 0.09520 -0.24600
H 	H 	0.40300 0.69880 0.09270 0.09500
H 	H 	0.33910 0.73180 0.10220 0.09200
H 	H 	0.34000 0.67520 0.11150 0.09200
C 	C 	0.24870 0.69830 0.06320 -0.07400
H 	H 	0.22280 0.66790 0.06480 0.16300
H 	H 	0.23680 0.71960 0.08130 0.03600
H 	H 	0.23780 0.71470 0.04290 -0.05100
Cl	Cl	0.38550 0.56140 0.98560 0.44200
Cu	Cu	0.43298 0.21137 0.40810 0.87400
Cu	Cu	0.39292 0.14080 0.47711 0.92000
Cl	Cl	0.47981 0.13199 0.44117 -0.53900
N 	N 	0.40010 0.24158 0.50317 -0.09800
N 	N 	0.40810 0.21257 0.47769 -0.15400
N 	N 	0.41800 0.23935 0.45176 -0.15800
N 	N 	0.41530 0.28643 0.45943 -0.10100
N 	N 	0.55960 0.40907 0.56556 -0.13300
N 	N 	0.59050 0.42851 0.59124 -0.14300
N 	N 	0.54810 0.43096 0.61517 -0.14500
N 	N 	0.48760 0.41356 0.60655 -0.09200
C 	C 	0.40410 0.28660 0.49107 0.04600
C 	C 	0.39120 0.33080 0.51168 0.16000
C 	C 	0.45270 0.34150 0.53326 -0.28600
H 	H 	0.49300 0.34830 0.51970 0.11900
H 	H 	0.46280 0.31280 0.54680 0.11700
C 	C 	0.43770 0.38550 0.55469 0.16100
H 	H 	0.38420 0.34660 0.58990 0.12000
H 	H 	0.33560 0.36750 0.47600 0.10100
C 	C 	0.32870 0.31980 0.53313 -0.27000
H 	H 	0.28910 0.31210 0.51940 0.10400
H 	H 	0.33830 0.29110 0.54690 0.10700
C 	C 	0.49580 0.40030 0.57567 0.05900
O 	O 	0.37190 0.07260 0.47770 -0.63400
N 	N 	0.38650 0.99360 0.49180 -0.01900
C 	C 	0.40630 0.03810 0.48670 -0.08900
H 	H 	0.45310 0.04460 0.49030 0.01800
C 	C 	0.31600 0.97900 0.49240 -0.31600
H 	H 	0.28950 0.00090 0.47860 0.13900
H 	H 	0.31190 0.94560 0.48440 0.12000
H 	H 	0.29880 0.98080 0.51450 0.13100
C 	C 	0.43730 0.95520 0.49740 -0.32800
H 	H 	0.42870 0.93960 0.51820 0.14400
H 	H 	0.43440 0.93090 0.48020 0.12300
H 	H 	0.48280 0.96970 0.49750 0.12500
O 	O 	0.32680 0.15610 0.51340 -0.11300
N 	N 	0.26530 0.15580 0.55930 -0.19200
C 	C 	0.29990 0.13430 0.53610 0.37800
H 	H 	0.30440 0.09990 0.53690 -0.05600
C 	C 	0.23610 0.12760 0.58590 -0.36000
H 	H 	0.26960 0.10390 0.59360 0.12700
H 	H 	0.22390 0.14970 0.60360 0.13800
H 	H 	0.19550 0.11050 0.57840 0.13300
C 	C 	0.25570 0.20900 0.55840 -0.04000
H 	H 	0.21900 0.21700 0.54340 0.09400
H 	H 	0.24380 0.22060 0.58000 0.01800
H 	H 	0.29780 0.22460 0.55130 0.07300
O 	O 	0.34270 0.13760 0.52190 -0.42300
N 	N 	0.32110 0.18750 0.56430 -0.11400
C 	C 	0.35490 0.16940 0.54090 0.19000
H 	H 	0.39820 0.18390 0.53800 -0.03400
C 	C 	0.35350 0.19930 0.59520 -0.24600
H 	H 	0.40300 0.19880 0.59270 0.09500
H 	H 	0.33910 0.23180 0.60220 0.09200
H 	H 	0.34000 0.17520 0.61150 0.09200
C 	C 	0.24870 0.19830 0.56320 -0.07400
H 	H 	0.22280 0.16790 0.56480 0.16300
H 	H 	0.23680 0.21960 0.58130 0.03600
H 	H 	0.23780 0.21470 0.54290 -0.05100
Cl	Cl	0.38550 0.06140 0.48560 0.44200
Cu	Cu	0.93298 0.71137 0.40810 0.87400
Cu	Cu	0.89292 0.64080 0.47711 0.92000
Cl	Cl	0.97981 0.63199 0.44117 -0.53900
N 	N 	0.90010 0.74158 0.50317 -0.09800
N 	N 	0.90810 0.71257 0.47769 -0.15400
N 	N 	0.91800 0.73935 0.45176 -0.15800
N 	N 	0.91530 0.78643 0.45943 -0.10100
N 	N 	0.05960 0.90907 0.56556 -0.13300
N 	N 	0.09050 0.92851 0.59124 -0.14300
N 	N 	0.04810 0.93096 0.61517 -0.14500
N 	N 	0.98760 0.91356 0.60655 -0.09200
C 	C 	0.90410 0.78660 0.49107 0.04600
C 	C 	0.89120 0.83080 0.51168 0.16000
C 	C 	0.95270 0.84150 0.53326 -0.28600
H 	H 	0.99300 0.84830 0.51970 0.11900
H 	H 	0.96280 0.81280 0.54680 0.11700
C 	C 	0.93770 0.88550 0.55469 0.16100
H 	H 	0.88420 0.84660 0.58990 0.12000
H 	H 	0.83560 0.86750 0.47600 0.10100
C 	C 	0.82870 0.81980 0.53313 -0.27000
H 	H 	0.78910 0.81210 0.51940 0.10400
H 	H 	0.83830 0.79110 0.54690 0.10700
C 	C 	0.99580 0.90030 0.57567 0.05900
O 	O 	0.87190 0.57260 0.47770 -0.63400
N 	N 	0.88650 0.49360 0.49180 -0.01900
C 	C 	0.90630 0.53810 0.48670 -0.08900
H 	H 	0.95310 0.54460 0.49030 0.01800
C 	C 	0.81600 0.47900 0.49240 -0.31500
H 	H 	0.78950 0.50090 0.47860 0.13900
H 	H 	0.81190 0.44560 0.48440 0.12000
H 	H 	0.79880 0.48080 0.51450 0.13100
C 	C 	0.93730 0.45520 0.49740 -0.32800
H 	H 	0.92870 0.43960 0.51820 0.14400
H 	H 	0.93440 0.43090 0.48020 0.12300
H 	H 	0.98280 0.46970 0.49750 0.12500
O 	O 	0.82680 0.65610 0.51340 -0.11300
N 	N 	0.76530 0.65580 0.55930 -0.19200
C 	C 	0.79990 0.63430 0.53610 0.37800
H 	H 	0.80440 0.59990 0.53690 -0.05600
C 	C 	0.73610 0.62760 0.58590 -0.36000
H 	H 	0.76960 0.60390 0.59360 0.12700
H 	H 	0.72390 0.64970 0.60360 0.13800
H 	H 	0.69550 0.61050 0.57840 0.13300
C 	C 	0.75570 0.70900 0.55840 -0.04000
H 	H 	0.71900 0.71700 0.54340 0.09400
H 	H 	0.74380 0.72060 0.58000 0.01800
H 	H 	0.79780 0.72460 0.55130 0.07300
O 	O 	0.84270 0.63760 0.52190 -0.42300
N 	N 	0.82110 0.68750 0.56430 -0.11400
C 	C 	0.85490 0.66940 0.54090 0.19000
H 	H 	0.89820 0.68390 0.53800 -0.03400
C 	C 	0.85350 0.69930 0.59520 -0.24600
H 	H 	0.90300 0.69880 0.59270 0.09500
H 	H 	0.83910 0.73180 0.60220 0.09200
H 	H 	0.84000 0.67520 0.61150 0.09200
C 	C 	0.74870 0.69830 0.56320 -0.07400
H 	H 	0.72280 0.66790 0.56480 0.16300
H 	H 	0.73680 0.71960 0.58130 0.03600
H 	H 	0.73780 0.71470 0.54290 -0.05100
Cl	Cl	0.88550 0.56140 0.48560 0.44200
Cu	Cu	0.93298 0.21137 0.90810 0.87400
Cu	Cu	0.89292 0.14080 0.97711 0.92000
Cl	Cl	0.97981 0.13199 0.94117 -0.53900
N 	N 	0.90010 0.24158 0.00317 -0.09800
N 	N 	0.90810 0.21257 0.97769 -0.15400
N 	N 	0.91800 0.23935 0.95176 -0.15800
N 	N 	0.91530 0.28643 0.95943 -0.10100
N 	N 	0.05960 0.40907 0.06556 -0.13300
N 	N 	0.09050 0.42851 0.09124 -0.14300
N 	N 	0.04810 0.43096 0.11517 -0.14500
N 	N 	0.98760 0.41356 0.10655 -0.09200
C 	C 	0.90410 0.28660 0.99107 0.04600
C 	C 	0.89120 0.33080 0.01168 0.16000
C 	C 	0.95270 0.34150 0.03326 -0.28600
H 	H 	0.99300 0.34830 0.01970 0.11900
H 	H 	0.96280 0.31280 0.04680 0.11700
C 	C 	0.93770 0.38550 0.05469 0.16100
H 	H 	0.88420 0.34660 0.08990 0.12000
H 	H 	0.83560 0.36750 0.97600 0.10100
C 	C 	0.82870 0.31980 0.03313 -0.27000
H 	H 	0.78910 0.31210 0.01940 0.10400
H 	H 	0.83830 0.29110 0.04690 0.10700
C 	C 	0.99580 0.40030 0.07567 0.05900
O 	O 	0.87190 0.07260 0.97770 -0.63400
N 	N 	0.88650 0.99360 0.99180 -0.01900
C 	C 	0.90630 0.03810 0.98670 -0.08900
H 	H 	0.95310 0.04460 0.99030 0.01800
C 	C 	0.81600 0.97900 0.99240 -0.31400
H 	H 	0.78950 0.00090 0.97860 0.13800
H 	H 	0.81190 0.94560 0.98440 0.12000
H 	H 	0.79880 0.98080 0.01450 0.13000
C 	C 	0.93730 0.95520 0.99740 -0.32700
H 	H 	0.92870 0.93960 0.01820 0.14300
H 	H 	0.93440 0.93090 0.98020 0.12300
H 	H 	0.98280 0.96970 0.99750 0.12500
O 	O 	0.82680 0.15610 0.01340 -0.11300
N 	N 	0.76530 0.15580 0.05930 -0.19200
C 	C 	0.79990 0.13430 0.03610 0.37800
H 	H 	0.80440 0.09990 0.03690 -0.05600
C 	C 	0.73610 0.12760 0.08590 -0.36000
H 	H 	0.76960 0.10390 0.09360 0.12700
H 	H 	0.72390 0.14970 0.10360 0.13800
H 	H 	0.69550 0.11050 0.07840 0.13300
C 	C 	0.75570 0.20900 0.05840 -0.04000
H 	H 	0.71900 0.21700 0.04340 0.09400
H 	H 	0.74380 0.22060 0.08000 0.01800
H 	H 	0.79780 0.22460 0.05130 0.07300
O 	O 	0.84270 0.13760 0.02190 -0.42300
N 	N 	0.82110 0.18750 0.06430 -0.11400
C 	C 	0.85490 0.16940 0.04090 0.19000
H 	H 	0.89820 0.18390 0.03800 -0.03400
C 	C 	0.85350 0.19930 0.09520 -0.24600
H 	H 	0.90300 0.19880 0.09270 0.09500
H 	H 	0.83910 0.23180 0.10220 0.09200
H 	H 	0.84000 0.17520 0.11150 0.09200
C 	C 	0.74870 0.19830 0.06320 -0.07400
H 	H 	0.72280 0.16790 0.06480 0.16300
H 	H 	0.73680 0.21960 0.08130 0.03600
H 	H 	0.73780 0.21470 0.04290 -0.05100
Cl	Cl	0.88550 0.06140 0.98560 0.44200
Cu	Cu	0.43298 0.53863 0.34190 0.87400
Cu	Cu	0.39292 0.60920 0.27289 0.92000
Cl	Cl	0.47981 0.61801 0.30883 -0.53900
N 	N 	0.40010 0.50842 0.24683 -0.09800
N 	N 	0.40810 0.53743 0.27231 -0.15400
N 	N 	0.41800 0.51065 0.29824 -0.15800
N 	N 	0.41530 0.46357 0.29057 -0.10100
N 	N 	0.55960 0.34093 0.18444 -0.13300
N 	N 	0.59050 0.32149 0.15876 -0.14300
N 	N 	0.54810 0.31904 0.13483 -0.14500
N 	N 	0.48760 0.33644 0.14345 -0.09200
C 	C 	0.40410 0.46340 0.25893 0.04600
C 	C 	0.39120 0.41920 0.23832 0.16000
C 	C 	0.45270 0.40850 0.21674 -0.28600
H 	H 	0.49300 0.40170 0.23030 0.11900
H 	H 	0.46280 0.43720 0.20320 0.11700
C 	C 	0.43770 0.36450 0.19531 0.16100
H 	H 	0.38420 0.40340 0.16010 0.12000
H 	H 	0.33560 0.38250 0.27400 0.10100
C 	C 	0.32870 0.43020 0.21687 -0.27000
H 	H 	0.28910 0.43790 0.23060 0.10400
H 	H 	0.33830 0.45890 0.20310 0.10700
C 	C 	0.49580 0.34970 0.17433 0.05900
O 	O 	0.37190 0.67740 0.27230 -0.63400
N 	N 	0.38650 0.75640 0.25820 -0.01900
C 	C 	0.40630 0.71190 0.26330 -0.08900
H 	H 	0.45310 0.70540 0.25970 0.01800
C 	C 	0.31600 0.77100 0.25760 -0.31500
H 	H 	0.28950 0.74910 0.27140 0.13900
H 	H 	0.31190 0.80440 0.26560 0.12000
H 	H 	0.29880 0.76920 0.23550 0.13100
C 	C 	0.43730 0.79480 0.25260 -0.32800
H 	H 	0.42870 0.81040 0.23180 0.14400
H 	H 	0.43440 0.81910 0.26980 0.12300
H 	H 	0.48280 0.78030 0.25250 0.12500
O 	O 	0.32680 0.59390 0.23660 -0.11300
N 	N 	0.26530 0.59420 0.19070 -0.19200
C 	C 	0.29990 0.61570 0.21390 0.37800
H 	H 	0.30440 0.65010 0.21310 -0.05600
C 	C 	0.23610 0.62240 0.16410 -0.36000
H 	H 	0.26960 0.64610 0.15640 0.12700
H 	H 	0.22390 0.60030 0.14640 0.13800
H 	H 	0.19550 0.63950 0.17160 0.13300
C 	C 	0.25570 0.54100 0.19160 -0.04000
H 	H 	0.21900 0.53300 0.20660 0.09400
H 	H 	0.24380 0.52940 0.17000 0.01800
H 	H 	0.29780 0.52540 0.19870 0.07300
O 	O 	0.34270 0.61240 0.22810 -0.42300
N 	N 	0.32110 0.56250 0.18570 -0.11400
C 	C 	0.35490 0.58060 0.20910 0.19000
H 	H 	0.39820 0.56610 0.21200 -0.03400
C 	C 	0.35350 0.55070 0.15480 -0.24600
H 	H 	0.40300 0.55120 0.15730 0.09500
H 	H 	0.33910 0.51820 0.14780 0.09200
H 	H 	0.34000 0.57480 0.13850 0.09200
C 	C 	0.24870 0.55170 0.18680 -0.07400
H 	H 	0.22280 0.58210 0.18520 0.16300
H 	H 	0.23680 0.53040 0.16870 0.03600
H 	H 	0.23780 0.53530 0.20710 -0.05100
Cl	Cl	0.38550 0.68860 0.26440 0.44200
Cu	Cu	0.43298 0.03863 0.84190 0.87400
Cu	Cu	0.39292 0.10920 0.77289 0.92000
Cl	Cl	0.47981 0.11801 0.80883 -0.53900
N 	N 	0.40010 0.00842 0.74683 -0.09800
N 	N 	0.40810 0.03743 0.77231 -0.15400
N 	N 	0.41800 0.01065 0.79824 -0.15800
N 	N 	0.41530 0.96357 0.79057 -0.10000
N 	N 	0.55960 0.84093 0.68444 -0.13300
N 	N 	0.59050 0.82149 0.65876 -0.14300
N 	N 	0.54810 0.81904 0.63483 -0.14500
N 	N 	0.48760 0.83644 0.64345 -0.09200
C 	C 	0.40410 0.96340 0.75893 0.04600
C 	C 	0.39120 0.91920 0.73832 0.16000
C 	C 	0.45270 0.90850 0.71674 -0.28600
H 	H 	0.49300 0.90170 0.73030 0.11900
H 	H 	0.46280 0.93720 0.70320 0.11700
C 	C 	0.43770 0.86450 0.69531 0.16100
H 	H 	0.38420 0.90340 0.66010 0.12000
H 	H 	0.33560 0.88250 0.77400 0.10100
C 	C 	0.32870 0.93020 0.71687 -0.27000
H 	H 	0.28910 0.93790 0.73060 0.10400
H 	H 	0.33830 0.95890 0.70310 0.10700
C 	C 	0.49580 0.84970 0.67433 0.05900
O 	O 	0.37190 0.17740 0.77230 -0.63400
N 	N 	0.38650 0.25640 0.75820 -0.01900
C 	C 	0.40630 0.21190 0.76330 -0.08900
H 	H 	0.45310 0.20540 0.75970 0.01800
C 	C 	0.31600 0.27100 0.75760 -0.31500
H 	H 	0.28950 0.24910 0.77140 0.13900
H 	H 	0.31190 0.30440 0.76560 0.12000
H 	H 	0.29880 0.26920 0.73550 0.13100
C 	C 	0.43730 0.29480 0.75260 -0.32800
H 	H 	0.42870 0.31040 0.73180 0.14400
H 	H 	0.43440 0.31910 0.76980 0.12300
H 	H 	0.48280 0.28030 0.75250 0.12500
O 	O 	0.32680 0.09390 0.73660 -0.11300
N 	N 	0.26530 0.09420 0.69070 -0.19200
C 	C 	0.29990 0.11570 0.71390 0.37800
H 	H 	0.30440 0.15010 0.71310 -0.05600
C 	C 	0.23610 0.12240 0.66410 -0.36000
H 	H 	0.26960 0.14610 0.65640 0.12700
H 	H 	0.22390 0.10030 0.64640 0.13800
H 	H 	0.19550 0.13950 0.67160 0.13300
C 	C 	0.25570 0.04100 0.69160 -0.04000
H 	H 	0.21900 0.03300 0.70660 0.09400
H 	H 	0.24380 0.02940 0.67000 0.01800
H 	H 	0.29780 0.02540 0.69870 0.07300
O 	O 	0.34270 0.11240 0.72810 -0.42300
N 	N 	0.32110 0.06250 0.68570 -0.11400
C 	C 	0.35490 0.08060 0.70910 0.19000
H 	H 	0.39820 0.06610 0.71200 -0.03400
C 	C 	0.35350 0.05070 0.65480 -0.24600
H 	H 	0.40300 0.05120 0.65730 0.09500
H 	H 	0.33910 0.01820 0.64780 0.09200
H 	H 	0.34000 0.07480 0.63850 0.09200
C 	C 	0.24870 0.05170 0.68680 -0.07400
H 	H 	0.22280 0.08210 0.68520 0.16300
H 	H 	0.23680 0.03040 0.66870 0.03600
H 	H 	0.23780 0.03530 0.70710 -0.05100
Cl	Cl	0.38550 0.18860 0.76440 0.44200
Cu	Cu	0.93298 0.53863 0.84190 0.87400
Cu	Cu	0.89292 0.60920 0.77289 0.92000
Cl	Cl	0.97981 0.61801 0.80883 -0.53900
N 	N 	0.90010 0.50842 0.74683 -0.09800
N 	N 	0.90810 0.53743 0.77231 -0.15400
N 	N 	0.91800 0.51065 0.79824 -0.15800
N 	N 	0.91530 0.46357 0.79057 -0.10100
N 	N 	0.05960 0.34093 0.68444 -0.13300
N 	N 	0.09050 0.32149 0.65876 -0.14300
N 	N 	0.04810 0.31904 0.63483 -0.14500
N 	N 	0.98760 0.33644 0.64345 -0.09200
C 	C 	0.90410 0.46340 0.75893 0.04600
C 	C 	0.89120 0.41920 0.73832 0.16000
C 	C 	0.95270 0.40850 0.71674 -0.28600
H 	H 	0.99300 0.40170 0.73030 0.11900
H 	H 	0.96280 0.43720 0.70320 0.11700
C 	C 	0.93770 0.36450 0.69531 0.16100
H 	H 	0.88420 0.40340 0.66010 0.12000
H 	H 	0.83560 0.38250 0.77400 0.10100
C 	C 	0.82870 0.43020 0.71687 -0.27000
H 	H 	0.78910 0.43790 0.73060 0.10400
H 	H 	0.83830 0.45890 0.70310 0.10700
C 	C 	0.99580 0.34970 0.67433 0.05900
O 	O 	0.87190 0.67740 0.77230 -0.63400
N 	N 	0.88650 0.75640 0.75820 -0.01900
C 	C 	0.90630 0.71190 0.76330 -0.08900
H 	H 	0.95310 0.70540 0.75970 0.01900
C 	C 	0.81600 0.77100 0.75760 -0.31500
H 	H 	0.78950 0.74910 0.77140 0.13900
H 	H 	0.81190 0.80440 0.76560 0.12000
H 	H 	0.79880 0.76920 0.73550 0.13100
C 	C 	0.93730 0.79480 0.75260 -0.32800
H 	H 	0.92870 0.81040 0.73180 0.14400
H 	H 	0.93440 0.81910 0.76980 0.12300
H 	H 	0.98280 0.78030 0.75250 0.12500
O 	O 	0.82680 0.59390 0.73660 -0.11300
N 	N 	0.76530 0.59420 0.69070 -0.19200
C 	C 	0.79990 0.61570 0.71390 0.37800
H 	H 	0.80440 0.65010 0.71310 -0.05600
C 	C 	0.73610 0.62240 0.66410 -0.36000
H 	H 	0.76960 0.64610 0.65640 0.12700
H 	H 	0.72390 0.60030 0.64640 0.13800
H 	H 	0.69550 0.63950 0.67160 0.13300
C 	C 	0.75570 0.54100 0.69160 -0.04000
H 	H 	0.71900 0.53300 0.70660 0.09400
H 	H 	0.74380 0.52940 0.67000 0.01800
H 	H 	0.79780 0.52540 0.69870 0.07300
O 	O 	0.84270 0.61240 0.72810 -0.42300
N 	N 	0.82110 0.56250 0.68570 -0.11400
C 	C 	0.85490 0.58060 0.70910 0.19000
H 	H 	0.89820 0.56610 0.71200 -0.03400
C 	C 	0.85350 0.55070 0.65480 -0.24600
H 	H 	0.90300 0.55120 0.65730 0.09500
H 	H 	0.83910 0.51820 0.64780 0.09200
H 	H 	0.84000 0.57480 0.63850 0.09200
C 	C 	0.74870 0.55170 0.68680 -0.07400
H 	H 	0.72280 0.58210 0.68520 0.16300
H 	H 	0.73680 0.53040 0.66870 0.03600
H 	H 	0.73780 0.53530 0.70710 -0.05100
Cl	Cl	0.88550 0.68860 0.76440 0.44200
Cu	Cu	0.93298 0.03863 0.34190 0.87400
Cu	Cu	0.89292 0.10920 0.27289 0.92000
Cl	Cl	0.97981 0.11801 0.30883 -0.53900
N 	N 	0.90010 0.00842 0.24683 -0.09800
N 	N 	0.90810 0.03743 0.27231 -0.15400
N 	N 	0.91800 0.01065 0.29824 -0.15800
N 	N 	0.91530 0.96357 0.29057 -0.10000
N 	N 	0.05960 0.84093 0.18444 -0.13300
N 	N 	0.09050 0.82149 0.15876 -0.14300
N 	N 	0.04810 0.81904 0.13483 -0.14500
N 	N 	0.98760 0.83644 0.14345 -0.09200
C 	C 	0.90410 0.96340 0.25893 0.04600
C 	C 	0.89120 0.91920 0.23832 0.16000
C 	C 	0.95270 0.90850 0.21674 -0.28600
H 	H 	0.99300 0.90170 0.23030 0.11900
H 	H 	0.96280 0.93720 0.20320 0.11700
C 	C 	0.93770 0.86450 0.19531 0.16100
H 	H 	0.88420 0.90340 0.16010 0.12000
H 	H 	0.83560 0.88250 0.27400 0.10100
C 	C 	0.82870 0.93020 0.21687 -0.27000
H 	H 	0.78910 0.93790 0.23060 0.10400
H 	H 	0.83830 0.95890 0.20310 0.10700
C 	C 	0.99580 0.84970 0.17433 0.05900
O 	O 	0.87190 0.17740 0.27230 -0.63400
N 	N 	0.88650 0.25640 0.25820 -0.01900
C 	C 	0.90630 0.21190 0.26330 -0.08900
H 	H 	0.95310 0.20540 0.25970 0.01800
C 	C 	0.81600 0.27100 0.25760 -0.31500
H 	H 	0.78950 0.24910 0.27140 0.13900
H 	H 	0.81190 0.30440 0.26560 0.12000
H 	H 	0.79880 0.26920 0.23550 0.13100
C 	C 	0.93730 0.29480 0.25260 -0.32800
H 	H 	0.92870 0.31040 0.23180 0.14400
H 	H 	0.93440 0.31910 0.26980 0.12300
H 	H 	0.98280 0.28030 0.25250 0.12500
O 	O 	0.82680 0.09390 0.23660 -0.11300
N 	N 	0.76530 0.09420 0.19070 -0.19200
C 	C 	0.79990 0.11570 0.21390 0.37800
H 	H 	0.80440 0.15010 0.21310 -0.05600
C 	C 	0.73610 0.12240 0.16410 -0.36000
H 	H 	0.76960 0.14610 0.15640 0.12700
H 	H 	0.72390 0.10030 0.14640 0.13800
H 	H 	0.69550 0.13950 0.17160 0.13300
C 	C 	0.75570 0.04100 0.19160 -0.04000
H 	H 	0.71900 0.03300 0.20660 0.09400
H 	H 	0.74380 0.02940 0.17000 0.01800
H 	H 	0.79780 0.02540 0.19870 0.07300
O 	O 	0.84270 0.11240 0.22810 -0.42300
N 	N 	0.82110 0.06250 0.18570 -0.11400
C 	C 	0.85490 0.08060 0.20910 0.19000
H 	H 	0.89820 0.06610 0.21200 -0.03400
C 	C 	0.85350 0.05070 0.15480 -0.24600
H 	H 	0.90300 0.05120 0.15730 0.09500
H 	H 	0.83910 0.01820 0.14780 0.09200
H 	H 	0.84000 0.07480 0.13850 0.09200
C 	C 	0.74870 0.05170 0.18680 -0.07400
H 	H 	0.72280 0.08210 0.18520 0.16300
H 	H 	0.73680 0.03040 0.16870 0.03600
H 	H 	0.73780 0.03530 0.20710 -0.05100
Cl	Cl	0.88550 0.18860 0.26440 0.44200
Cu	Cu	0.81702 0.71137 0.34190 0.87400
Cu	Cu	0.85708 0.64080 0.27289 0.92000
Cl	Cl	0.77019 0.63199 0.30883 -0.53900
N 	N 	0.84990 0.74158 0.24683 -0.09800
N 	N 	0.84190 0.71257 0.27231 -0.15400
N 	N 	0.83200 0.73935 0.29824 -0.15800
N 	N 	0.83470 0.78643 0.29057 -0.10100
N 	N 	0.69040 0.90907 0.18444 -0.13300
N 	N 	0.65950 0.92851 0.15876 -0.14300
N 	N 	0.70190 0.93096 0.13483 -0.14500
N 	N 	0.76240 0.91356 0.14345 -0.09200
C 	C 	0.84590 0.78660 0.25893 0.04600
C 	C 	0.85880 0.83080 0.23832 0.16000
C 	C 	0.79730 0.84150 0.21674 -0.28600
H 	H 	0.75700 0.84830 0.23030 0.11900
H 	H 	0.78720 0.81280 0.20320 0.11700
C 	C 	0.81230 0.88550 0.19531 0.16100
H 	H 	0.86580 0.84660 0.16010 0.12000
H 	H 	0.91440 0.86750 0.27400 0.10100
C 	C 	0.92130 0.81980 0.21687 -0.27000
H 	H 	0.96090 0.81210 0.23060 0.10400
H 	H 	0.91170 0.79110 0.20310 0.10700
C 	C 	0.75420 0.90030 0.17433 0.05900
O 	O 	0.87810 0.57260 0.27230 -0.63400
N 	N 	0.86350 0.49360 0.25820 -0.01900
C 	C 	0.84370 0.53810 0.26330 -0.08900
H 	H 	0.79690 0.54460 0.25970 0.01800
C 	C 	0.93400 0.47900 0.25760 -0.31500
H 	H 	0.96050 0.50090 0.27140 0.13900
H 	H 	0.93810 0.44560 0.26560 0.12000
H 	H 	0.95120 0.48080 0.23550 0.13100
C 	C 	0.81270 0.45520 0.25260 -0.32800
H 	H 	0.82130 0.43960 0.23180 0.14400
H 	H 	0.81560 0.43090 0.26980 0.12300
H 	H 	0.76720 0.46970 0.25250 0.12500
O 	O 	0.92320 0.65610 0.23660 -0.11300
N 	N 	0.98470 0.65580 0.19070 -0.19200
C 	C 	0.95010 0.63430 0.21390 0.37800
H 	H 	0.94560 0.59990 0.21310 -0.05600
C 	C 	0.01390 0.62760 0.16410 -0.36000
H 	H 	0.98040 0.60390 0.15640 0.12700
H 	H 	0.02610 0.64970 0.14640 0.13800
H 	H 	0.05450 0.61050 0.17160 0.13300
C 	C 	0.99430 0.70900 0.19160 -0.04000
H 	H 	0.03100 0.71700 0.20660 0.09400
H 	H 	0.00620 0.72060 0.17000 0.01800
H 	H 	0.95220 0.72460 0.19870 0.07300
O 	O 	0.90730 0.63760 0.22810 -0.42300
N 	N 	0.92890 0.68750 0.18570 -0.11400
C 	C 	0.89510 0.66940 0.20910 0.19000
H 	H 	0.85180 0.68390 0.21200 -0.03400
C 	C 	0.89650 0.69930 0.15480 -0.24600
H 	H 	0.84700 0.69880 0.15730 0.09500
H 	H 	0.91090 0.73180 0.14780 0.09200
H 	H 	0.91000 0.67520 0.13850 0.09200
C 	C 	0.00130 0.69830 0.18680 -0.07400
H 	H 	0.02720 0.66790 0.18520 0.16300
H 	H 	0.01320 0.71960 0.16870 0.03600
H 	H 	0.01220 0.71470 0.20710 -0.05100
Cl	Cl	0.86450 0.56140 0.26440 0.44200
Cu	Cu	0.81702 0.21137 0.84190 0.87400
Cu	Cu	0.85708 0.14080 0.77289 0.92000
Cl	Cl	0.77019 0.13199 0.80883 -0.53900
N 	N 	0.84990 0.24158 0.74683 -0.09800
N 	N 	0.84190 0.21257 0.77231 -0.15400
N 	N 	0.83200 0.23935 0.79824 -0.15800
N 	N 	0.83470 0.28643 0.79057 -0.10100
N 	N 	0.69040 0.40907 0.68444 -0.13300
N 	N 	0.65950 0.42851 0.65876 -0.14300
N 	N 	0.70190 0.43096 0.63483 -0.14500
N 	N 	0.76240 0.41356 0.64345 -0.09200
C 	C 	0.84590 0.28660 0.75893 0.04600
C 	C 	0.85880 0.33080 0.73832 0.16000
C 	C 	0.79730 0.34150 0.71674 -0.28600
H 	H 	0.75700 0.34830 0.73030 0.11900
H 	H 	0.78720 0.31280 0.70320 0.11700
C 	C 	0.81230 0.38550 0.69531 0.16100
H 	H 	0.86580 0.34660 0.66010 0.12000
H 	H 	0.91440 0.36750 0.77400 0.10100
C 	C 	0.92130 0.31980 0.71687 -0.27000
H 	H 	0.96090 0.31210 0.73060 0.10400
H 	H 	0.91170 0.29110 0.70310 0.10700
C 	C 	0.75420 0.40030 0.67433 0.05900
O 	O 	0.87810 0.07260 0.77230 -0.63400
N 	N 	0.86350 0.99360 0.75820 -0.01900
C 	C 	0.84370 0.03810 0.76330 -0.08900
H 	H 	0.79690 0.04460 0.75970 0.01900
C 	C 	0.93400 0.97900 0.75760 -0.31500
H 	H 	0.96050 0.00090 0.77140 0.13800
H 	H 	0.93810 0.94560 0.76560 0.12000
H 	H 	0.95120 0.98080 0.73550 0.13100
C 	C 	0.81270 0.95520 0.75260 -0.32800
H 	H 	0.82130 0.93960 0.73180 0.14400
H 	H 	0.81560 0.93090 0.76980 0.12300
H 	H 	0.76720 0.96970 0.75250 0.12500
O 	O 	0.92320 0.15610 0.73660 -0.11300
N 	N 	0.98470 0.15580 0.69070 -0.19200
C 	C 	0.95010 0.13430 0.71390 0.37800
H 	H 	0.94560 0.09990 0.71310 -0.05600
C 	C 	0.01390 0.12760 0.66410 -0.35900
H 	H 	0.98040 0.10390 0.65640 0.12700
H 	H 	0.02610 0.14970 0.64640 0.13800
H 	H 	0.05450 0.11050 0.67160 0.13300
C 	C 	0.99430 0.20900 0.69160 -0.04000
H 	H 	0.03100 0.21700 0.70660 0.09400
H 	H 	0.00620 0.22060 0.67000 0.01800
H 	H 	0.95220 0.22460 0.69870 0.07300
O 	O 	0.90730 0.13760 0.72810 -0.42300
N 	N 	0.92890 0.18750 0.68570 -0.11400
C 	C 	0.89510 0.16940 0.70910 0.19000
H 	H 	0.85180 0.18390 0.71200 -0.03400
C 	C 	0.89650 0.19930 0.65480 -0.24600
H 	H 	0.84700 0.19880 0.65730 0.09500
H 	H 	0.91090 0.23180 0.64780 0.09200
H 	H 	0.91000 0.17520 0.63850 0.09200
C 	C 	0.00130 0.19830 0.68680 -0.07500
H 	H 	0.02720 0.16790 0.68520 0.16300
H 	H 	0.01320 0.21960 0.66870 0.03600
H 	H 	0.01220 0.21470 0.70710 -0.05100
Cl	Cl	0.86450 0.06140 0.76440 0.44200
Cu	Cu	0.31702 0.71137 0.84190 0.87400
Cu	Cu	0.35708 0.64080 0.77289 0.92000
Cl	Cl	0.27019 0.63199 0.80883 -0.53900
N 	N 	0.34990 0.74158 0.74683 -0.09800
N 	N 	0.34190 0.71257 0.77231 -0.15400
N 	N 	0.33200 0.73935 0.79824 -0.15800
N 	N 	0.33470 0.78643 0.79057 -0.10100
N 	N 	0.19040 0.90907 0.68444 -0.13300
N 	N 	0.15950 0.92851 0.65876 -0.14300
N 	N 	0.20190 0.93096 0.63483 -0.14500
N 	N 	0.26240 0.91356 0.64345 -0.09200
C 	C 	0.34590 0.78660 0.75893 0.04600
C 	C 	0.35880 0.83080 0.73832 0.16000
C 	C 	0.29730 0.84150 0.71674 -0.28600
H 	H 	0.25700 0.84830 0.73030 0.11900
H 	H 	0.28720 0.81280 0.70320 0.11700
C 	C 	0.31230 0.88550 0.69531 0.16100
H 	H 	0.36580 0.84660 0.66010 0.12000
H 	H 	0.41440 0.86750 0.77400 0.10100
C 	C 	0.42130 0.81980 0.71687 -0.27000
H 	H 	0.46090 0.81210 0.73060 0.10400
H 	H 	0.41170 0.79110 0.70310 0.10700
C 	C 	0.25420 0.90030 0.67433 0.05900
O 	O 	0.37810 0.57260 0.77230 -0.63400
N 	N 	0.36350 0.49360 0.75820 -0.01900
C 	C 	0.34370 0.53810 0.76330 -0.08900
H 	H 	0.29690 0.54460 0.75970 0.01800
C 	C 	0.43400 0.47900 0.75760 -0.31500
H 	H 	0.46050 0.50090 0.77140 0.13900
H 	H 	0.43810 0.44560 0.76560 0.12000
H 	H 	0.45120 0.48080 0.73550 0.13100
C 	C 	0.31270 0.45520 0.75260 -0.32800
H 	H 	0.32130 0.43960 0.73180 0.14400
H 	H 	0.31560 0.43090 0.76980 0.12300
H 	H 	0.26720 0.46970 0.75250 0.12500
O 	O 	0.42320 0.65610 0.73660 -0.11300
N 	N 	0.48470 0.65580 0.69070 -0.19200
C 	C 	0.45010 0.63430 0.71390 0.37800
H 	H 	0.44560 0.59990 0.71310 -0.05600
C 	C 	0.51390 0.62760 0.66410 -0.36000
H 	H 	0.48040 0.60390 0.65640 0.12700
H 	H 	0.52610 0.64970 0.64640 0.13800
H 	H 	0.55450 0.61050 0.67160 0.13300
C 	C 	0.49430 0.70900 0.69160 -0.04000
H 	H 	0.53100 0.71700 0.70660 0.09400
H 	H 	0.50620 0.72060 0.67000 0.01800
H 	H 	0.45220 0.72460 0.69870 0.07300
O 	O 	0.40730 0.63760 0.72810 -0.42300
N 	N 	0.42890 0.68750 0.68570 -0.11400
C 	C 	0.39510 0.66940 0.70910 0.19000
H 	H 	0.35180 0.68390 0.71200 -0.03400
C 	C 	0.39650 0.69930 0.65480 -0.24600
H 	H 	0.34700 0.69880 0.65730 0.09500
H 	H 	0.41090 0.73180 0.64780 0.09200
H 	H 	0.41000 0.67520 0.63850 0.09200
C 	C 	0.50130 0.69830 0.68680 -0.07400
H 	H 	0.52720 0.66790 0.68520 0.16300
H 	H 	0.51320 0.71960 0.66870 0.03600
H 	H 	0.51220 0.71470 0.70710 -0.05100
Cl	Cl	0.36450 0.56140 0.76440 0.44200
Cu	Cu	0.31702 0.21137 0.34190 0.87400
Cu	Cu	0.35708 0.14080 0.27289 0.92000
Cl	Cl	0.27019 0.13199 0.30883 -0.53900
N 	N 	0.34990 0.24158 0.24683 -0.09800
N 	N 	0.34190 0.21257 0.27231 -0.15400
N 	N 	0.33200 0.23935 0.29824 -0.15800
N 	N 	0.33470 0.28643 0.29057 -0.10100
N 	N 	0.19040 0.40907 0.18444 -0.13300
N 	N 	0.15950 0.42851 0.15876 -0.14300
N 	N 	0.20190 0.43096 0.13483 -0.14500
N 	N 	0.26240 0.41356 0.14345 -0.09200
C 	C 	0.34590 0.28660 0.25893 0.04600
C 	C 	0.35880 0.33080 0.23832 0.16000
C 	C 	0.29730 0.34150 0.21674 -0.28600
H 	H 	0.25700 0.34830 0.23030 0.11900
H 	H 	0.28720 0.31280 0.20320 0.11700
C 	C 	0.31230 0.38550 0.19531 0.16100
H 	H 	0.36580 0.34660 0.16010 0.12000
H 	H 	0.41440 0.36750 0.27400 0.10100
C 	C 	0.42130 0.31980 0.21687 -0.27000
H 	H 	0.46090 0.31210 0.23060 0.10400
H 	H 	0.41170 0.29110 0.20310 0.10700
C 	C 	0.25420 0.40030 0.17433 0.05900
O 	O 	0.37810 0.07260 0.27230 -0.63400
N 	N 	0.36350 0.99360 0.25820 -0.01900
C 	C 	0.34370 0.03810 0.26330 -0.08900
H 	H 	0.29690 0.04460 0.25970 0.01800
C 	C 	0.43400 0.97900 0.25760 -0.31600
H 	H 	0.46050 0.00090 0.27140 0.13900
H 	H 	0.43810 0.94560 0.26560 0.12000
H 	H 	0.45120 0.98080 0.23550 0.13100
C 	C 	0.31270 0.95520 0.25260 -0.32800
H 	H 	0.32130 0.93960 0.23180 0.14400
H 	H 	0.31560 0.93090 0.26980 0.12300
H 	H 	0.26720 0.96970 0.25250 0.12500
O 	O 	0.42320 0.15610 0.23660 -0.11300
N 	N 	0.48470 0.15580 0.19070 -0.19200
C 	C 	0.45010 0.13430 0.21390 0.37800
H 	H 	0.44560 0.09990 0.21310 -0.05600
C 	C 	0.51390 0.12760 0.16410 -0.36000
H 	H 	0.48040 0.10390 0.15640 0.12700
H 	H 	0.52610 0.14970 0.14640 0.13800
H 	H 	0.55450 0.11050 0.17160 0.13300
C 	C 	0.49430 0.20900 0.19160 -0.04000
H 	H 	0.53100 0.21700 0.20660 0.09400
H 	H 	0.50620 0.22060 0.17000 0.01800
H 	H 	0.45220 0.22460 0.19870 0.07300
O 	O 	0.40730 0.13760 0.22810 -0.42300
N 	N 	0.42890 0.18750 0.18570 -0.11400
C 	C 	0.39510 0.16940 0.20910 0.19000
H 	H 	0.35180 0.18390 0.21200 -0.03400
C 	C 	0.39650 0.19930 0.15480 -0.24600
H 	H 	0.34700 0.19880 0.15730 0.09500
H 	H 	0.41090 0.23180 0.14780 0.09200
H 	H 	0.41000 0.17520 0.13850 0.09200
C 	C 	0.50130 0.19830 0.18680 -0.07400
H 	H 	0.52720 0.16790 0.18520 0.16300
H 	H 	0.51320 0.21960 0.16870 0.03600
H 	H 	0.51220 0.21470 0.20710 -0.05100
Cl	Cl	0.36450 0.06140 0.26440 0.44200
Cl	Cl	0.12500 0.53016 0.12500 -0.56300
Cl	Cl	0.12500 0.03016 0.62500 -0.56300
Cl	Cl	0.62500 0.21984 0.12500 -0.56300
Cl	Cl	0.62500 0.71984 0.62500 -0.56300
Cl	Cl	0.62500 0.53016 0.62500 -0.56300
Cl	Cl	0.62500 0.03016 0.12500 -0.56300
Cl	Cl	0.12500 0.21984 0.62500 -0.56300
Cl	Cl	0.12500 0.71984 0.12500 -0.56300
Cl	Cl	0.87500 0.46984 0.87500 -0.56300
Cl	Cl	0.87500 0.96984 0.37500 -0.56300
Cl	Cl	0.37500 0.78016 0.87500 -0.56300
Cl	Cl	0.37500 0.28016 0.37500 -0.56300
Cl	Cl	0.37500 0.46984 0.37500 -0.56300
Cl	Cl	0.37500 0.96984 0.87500 -0.56300
Cl	Cl	0.87500 0.78016 0.37500 -0.56300
Cl	Cl	0.87500 0.28016 0.87500 -0.56300
C 	C 	0.12500 0.62500 0.92407 -0.27900
C 	C 	0.12500 0.62500 0.01000 -0.26900
C 	C 	0.12500 0.12500 0.42407 -0.27900
C 	C 	0.12500 0.12500 0.51000 -0.26900
C 	C 	0.62500 0.62500 0.42407 -0.27900
C 	C 	0.62500 0.62500 0.51000 -0.26900
C 	C 	0.62500 0.12500 0.92407 -0.27900
C 	C 	0.62500 0.12500 0.01000 -0.26800
C 	C 	0.62500 0.62500 0.82593 -0.27900
C 	C 	0.62500 0.62500 0.74000 -0.26900
C 	C 	0.62500 0.12500 0.32593 -0.27900
C 	C 	0.62500 0.12500 0.24000 -0.26900
C 	C 	0.12500 0.12500 0.82593 -0.27900
C 	C 	0.12500 0.12500 0.74000 -0.26900
C 	C 	0.12500 0.62500 0.32593 -0.27900
C 	C 	0.12500 0.62500 0.24000 -0.26900
C 	C 	0.87500 0.37500 0.07593 -0.27900
C 	C 	0.87500 0.37500 0.99000 -0.26900
C 	C 	0.87500 0.87500 0.57593 -0.27900
C 	C 	0.87500 0.87500 0.49000 -0.26900
C 	C 	0.37500 0.87500 0.07593 -0.27900
C 	C 	0.37500 0.87500 0.99000 -0.26800
C 	C 	0.37500 0.37500 0.57593 -0.27900
C 	C 	0.37500 0.37500 0.49000 -0.26900
C 	C 	0.37500 0.37500 0.17407 -0.27900
C 	C 	0.37500 0.37500 0.26000 -0.26900
C 	C 	0.37500 0.87500 0.67407 -0.27900
C 	C 	0.37500 0.87500 0.76000 -0.26900
C 	C 	0.87500 0.87500 0.17407 -0.27900
C 	C 	0.87500 0.87500 0.26000 -0.26900
C 	C 	0.87500 0.37500 0.67407 -0.27900
C 	C 	0.87500 0.37500 0.76000 -0.26900
