data_crystal

_cell_length_a 20.87260
_cell_length_b 27.51370
_cell_length_c 43.55300
_cell_angle_alpha 90.00000
_cell_angle_beta  90.00000
_cell_angle_gamma 90.00000

_symmetry_space_group_name_	'P 1'
_symmetry_space_group_name_H-M	'P 1'

loop_
_symmetry_equiv_pos_as_xyz
  x,y,z

loop_
_atom_site_label
_atom_site_type_symbol
_atom_site_fract_x
_atom_site_fract_y
_atom_site_fract_z
_atom_site_charge
Cd	Cd	0.68392 0.29306 0.15865 1.18400
Cd	Cd	0.62726 0.36947 0.22585 1.20200
Cl	Cl	0.72369 0.37235 0.18875 -0.64400
N 	N 	0.63320 0.25905 0.25331 -0.10400
N 	N 	0.64540 0.28718 0.22897 -0.16700
N 	N 	0.66320 0.25976 0.20586 -0.17800
N 	N 	0.66360 0.21344 0.21400 -0.10500
N 	N 	0.80220 0.10193 0.31489 -0.19500
N 	N 	0.83360 0.08459 0.33970 -0.17300
N 	N 	0.79310 0.08010 0.36218 -0.16900
N 	N 	0.73410 0.09376 0.35362 -0.10600
C 	C 	0.64490 0.21394 0.24342 0.05200
C 	C 	0.63540 0.16998 0.26314 0.13400
C 	C 	0.69480 0.16247 0.28355 -0.23900
H 	H 	0.70180 0.19160 0.29650 0.09500
H 	H 	0.73320 0.15770 0.27050 0.07000
C 	C 	0.68460 0.11747 0.30408 0.11800
H 	H 	0.63130 0.15370 0.33740 0.09800
H 	H 	0.58710 0.12990 0.22960 0.09600
C 	C 	0.57640 0.17773 0.28360 -0.23700
H 	H 	0.53820 0.18340 0.27060 0.07300
H 	H 	0.58290 0.20670 0.29670 0.09300
C 	C 	0.74100 0.10647 0.32402 0.06100
O 	O 	0.59940 0.44830 0.22890 -0.74700
N 	N 	0.62070 0.52090 0.25110 -0.04300
C 	C 	0.63750 0.47920 0.23910 -0.02400
H 	H 	0.68200 0.47190 0.23810 -0.04500
C 	C 	0.55340 0.53430 0.25390 -0.34300
H 	H 	0.52760 0.51390 0.24020 0.15500
H 	H 	0.54800 0.56850 0.24820 0.16900
H 	H 	0.53920 0.52950 0.27510 0.12100
C 	C 	0.66590 0.55520 0.26530 -0.32000
H 	H 	0.64870 0.56640 0.28500 0.13000
H 	H 	0.67210 0.58320 0.25170 0.13500
H 	H 	0.70710 0.53900 0.26870 0.10700
O 	O 	0.70340 0.37800 0.26730 -1.90400
C 	C 	0.69720 0.35170 0.28960 0.43300
H 	H 	0.66830 0.32620 0.28460 -0.11000
N 	N 	0.74340 0.34080 0.30900 -0.03200
C 	C 	0.73890 0.29610 0.32730 -0.10200
H 	H 	0.69920 0.27890 0.32220 0.00900
H 	H 	0.73880 0.30440 0.34920 0.06400
H 	H 	0.77570 0.27510 0.32280 0.05000
C 	C 	0.79860 0.37370 0.31180 0.17100
H 	H 	0.79330 0.40120 0.29780 -0.05300
H 	H 	0.83800 0.35610 0.30670 -0.01600
H 	H 	0.80130 0.38580 0.33300 0.07500
H 	H 	0.80500 0.36870 0.32270 -0.09000
Cl	Cl	0.61730 0.45870 0.22510 0.44400
Cl	Cl	0.69360 0.39490 0.27340 1.66500
N 	N 	0.71400 0.34660 0.31510 -0.19800
C 	C 	0.69080 0.31180 0.33840 -0.08100
C 	C 	0.76350 0.37210 0.33290 -0.18100
H 	H 	0.69720 0.27850 0.33100 0.05800
H 	H 	0.71480 0.31640 0.35750 -0.00000
H 	H 	0.64520 0.31730 0.34220 0.02300
H 	H 	0.76600 0.35800 0.35360 0.06400
H 	H 	0.75240 0.40660 0.33450 0.02400
Cd	Cd	0.68392 0.79306 0.65865 1.18500
Cd	Cd	0.62726 0.86947 0.72585 1.20300
Cl	Cl	0.72369 0.87235 0.68875 -0.64300
N 	N 	0.63320 0.75905 0.75331 -0.10300
N 	N 	0.64540 0.78718 0.72897 -0.16600
N 	N 	0.66320 0.75976 0.70586 -0.17700
N 	N 	0.66360 0.71344 0.71400 -0.10400
N 	N 	0.80220 0.60193 0.81489 -0.19400
N 	N 	0.83360 0.58459 0.83970 -0.17200
N 	N 	0.79310 0.58010 0.86218 -0.16800
N 	N 	0.73410 0.59376 0.85362 -0.10500
C 	C 	0.64490 0.71394 0.74342 0.05300
C 	C 	0.63540 0.66998 0.76314 0.13500
C 	C 	0.69480 0.66247 0.78355 -0.23800
H 	H 	0.70180 0.69160 0.79650 0.09600
H 	H 	0.73320 0.65770 0.77050 0.07100
C 	C 	0.68460 0.61747 0.80408 0.11900
H 	H 	0.63130 0.65370 0.83740 0.09900
H 	H 	0.58710 0.62990 0.72960 0.09600
C 	C 	0.57640 0.67773 0.78360 -0.23700
H 	H 	0.53820 0.68340 0.77060 0.07300
H 	H 	0.58290 0.70670 0.79670 0.09300
C 	C 	0.74100 0.60647 0.82402 0.06100
O 	O 	0.59940 0.94830 0.72890 -0.74700
N 	N 	0.62070 0.02090 0.75110 -0.04300
C 	C 	0.63750 0.97920 0.73910 -0.02400
H 	H 	0.68200 0.97190 0.73810 -0.04500
C 	C 	0.55340 0.03430 0.75390 -0.34300
H 	H 	0.52760 0.01390 0.74020 0.15500
H 	H 	0.54800 0.06850 0.74820 0.16900
H 	H 	0.53920 0.02950 0.77510 0.12100
C 	C 	0.66590 0.05520 0.76530 -0.32000
H 	H 	0.64870 0.06640 0.78500 0.13000
H 	H 	0.67210 0.08320 0.75170 0.13500
H 	H 	0.70710 0.03900 0.76870 0.10700
O 	O 	0.70340 0.87800 0.76730 -1.90400
C 	C 	0.69720 0.85170 0.78960 0.43300
H 	H 	0.66830 0.82620 0.78460 -0.11000
N 	N 	0.74340 0.84080 0.80900 -0.03200
C 	C 	0.73890 0.79610 0.82730 -0.10200
H 	H 	0.69920 0.77890 0.82220 0.00900
H 	H 	0.73880 0.80440 0.84920 0.06400
H 	H 	0.77570 0.77510 0.82280 0.05000
C 	C 	0.79860 0.87370 0.81180 0.17100
H 	H 	0.79330 0.90120 0.79780 -0.05300
H 	H 	0.83800 0.85610 0.80670 -0.01600
H 	H 	0.80130 0.88580 0.83300 0.07500
H 	H 	0.80500 0.86870 0.82270 -0.09000
Cl	Cl	0.61730 0.95870 0.72510 0.44400
Cl	Cl	0.69360 0.89490 0.77340 1.66500
N 	N 	0.71400 0.84660 0.81510 -0.19800
C 	C 	0.69080 0.81180 0.83840 -0.08100
C 	C 	0.76350 0.87210 0.83290 -0.18100
H 	H 	0.69720 0.77850 0.83100 0.05800
H 	H 	0.71480 0.81640 0.85750 -0.00000
H 	H 	0.64520 0.81730 0.84220 0.02300
H 	H 	0.76600 0.85800 0.85360 0.06400
H 	H 	0.75240 0.90660 0.83450 0.02400
Cd	Cd	0.18392 0.29306 0.65865 1.18500
Cd	Cd	0.12726 0.36947 0.72585 1.20300
Cl	Cl	0.22369 0.37235 0.68875 -0.64300
N 	N 	0.13320 0.25905 0.75331 -0.10300
N 	N 	0.14540 0.28718 0.72897 -0.16600
N 	N 	0.16320 0.25976 0.70586 -0.17700
N 	N 	0.16360 0.21344 0.71400 -0.10400
N 	N 	0.30220 0.10193 0.81489 -0.19400
N 	N 	0.33360 0.08459 0.83970 -0.17200
N 	N 	0.29310 0.08010 0.86218 -0.16800
N 	N 	0.23410 0.09376 0.85362 -0.10500
C 	C 	0.14490 0.21394 0.74342 0.05300
C 	C 	0.13540 0.16998 0.76314 0.13500
C 	C 	0.19480 0.16247 0.78355 -0.23800
H 	H 	0.20180 0.19160 0.79650 0.09600
H 	H 	0.23320 0.15770 0.77050 0.07100
C 	C 	0.18460 0.11747 0.80408 0.11900
H 	H 	0.13130 0.15370 0.83740 0.09900
H 	H 	0.08710 0.12990 0.72960 0.09600
C 	C 	0.07640 0.17773 0.78360 -0.23700
H 	H 	0.03820 0.18340 0.77060 0.07300
H 	H 	0.08290 0.20670 0.79670 0.09300
C 	C 	0.24100 0.10647 0.82402 0.06100
O 	O 	0.09940 0.44830 0.72890 -0.74700
N 	N 	0.12070 0.52090 0.75110 -0.04300
C 	C 	0.13750 0.47920 0.73910 -0.02400
H 	H 	0.18200 0.47190 0.73810 -0.04500
C 	C 	0.05340 0.53430 0.75390 -0.34300
H 	H 	0.02760 0.51390 0.74020 0.15500
H 	H 	0.04800 0.56850 0.74820 0.16900
H 	H 	0.03920 0.52950 0.77510 0.12100
C 	C 	0.16590 0.55520 0.76530 -0.32000
H 	H 	0.14870 0.56640 0.78500 0.13000
H 	H 	0.17210 0.58320 0.75170 0.13500
H 	H 	0.20710 0.53900 0.76870 0.10700
O 	O 	0.20340 0.37800 0.76730 -1.90400
C 	C 	0.19720 0.35170 0.78960 0.43300
H 	H 	0.16830 0.32620 0.78460 -0.11000
N 	N 	0.24340 0.34080 0.80900 -0.03200
C 	C 	0.23890 0.29610 0.82730 -0.10200
H 	H 	0.19920 0.27890 0.82220 0.00900
H 	H 	0.23880 0.30440 0.84920 0.06400
H 	H 	0.27570 0.27510 0.82280 0.05000
C 	C 	0.29860 0.37370 0.81180 0.17100
H 	H 	0.29330 0.40120 0.79780 -0.05300
H 	H 	0.33800 0.35610 0.80670 -0.01600
H 	H 	0.30130 0.38580 0.83300 0.07500
H 	H 	0.30500 0.36870 0.82270 -0.09000
Cl	Cl	0.11730 0.45870 0.72510 0.44400
Cl	Cl	0.19360 0.39490 0.77340 1.66500
N 	N 	0.21400 0.34660 0.81510 -0.19800
C 	C 	0.19080 0.31180 0.83840 -0.08100
C 	C 	0.26350 0.37210 0.83290 -0.18100
H 	H 	0.19720 0.27850 0.83100 0.05800
H 	H 	0.21480 0.31640 0.85750 -0.00000
H 	H 	0.14520 0.31730 0.84220 0.02300
H 	H 	0.26600 0.35800 0.85360 0.06400
H 	H 	0.25240 0.40660 0.83450 0.02400
Cd	Cd	0.18392 0.79306 0.15865 1.18500
Cd	Cd	0.12726 0.86947 0.22585 1.20300
Cl	Cl	0.22369 0.87235 0.18875 -0.64300
N 	N 	0.13320 0.75905 0.25331 -0.10300
N 	N 	0.14540 0.78718 0.22897 -0.16600
N 	N 	0.16320 0.75976 0.20586 -0.17700
N 	N 	0.16360 0.71344 0.21400 -0.10400
N 	N 	0.30220 0.60193 0.31489 -0.19400
N 	N 	0.33360 0.58459 0.33970 -0.17200
N 	N 	0.29310 0.58010 0.36218 -0.16800
N 	N 	0.23410 0.59376 0.35362 -0.10500
C 	C 	0.14490 0.71394 0.24342 0.05300
C 	C 	0.13540 0.66998 0.26314 0.13500
C 	C 	0.19480 0.66247 0.28355 -0.23800
H 	H 	0.20180 0.69160 0.29650 0.09600
H 	H 	0.23320 0.65770 0.27050 0.07100
C 	C 	0.18460 0.61747 0.30408 0.11900
H 	H 	0.13130 0.65370 0.33740 0.09900
H 	H 	0.08710 0.62990 0.22960 0.09600
C 	C 	0.07640 0.67773 0.28360 -0.23700
H 	H 	0.03820 0.68340 0.27060 0.07300
H 	H 	0.08290 0.70670 0.29670 0.09300
C 	C 	0.24100 0.60647 0.32402 0.06100
O 	O 	0.09940 0.94830 0.22890 -0.74700
N 	N 	0.12070 0.02090 0.25110 -0.04300
C 	C 	0.13750 0.97920 0.23910 -0.02400
H 	H 	0.18200 0.97190 0.23810 -0.04500
C 	C 	0.05340 0.03430 0.25390 -0.34300
H 	H 	0.02760 0.01390 0.24020 0.15500
H 	H 	0.04800 0.06850 0.24820 0.16900
H 	H 	0.03920 0.02950 0.27510 0.12100
C 	C 	0.16590 0.05520 0.26530 -0.32000
H 	H 	0.14870 0.06640 0.28500 0.13000
H 	H 	0.17210 0.08320 0.25170 0.13500
H 	H 	0.20710 0.03900 0.26870 0.10700
O 	O 	0.20340 0.87800 0.26730 -1.90400
C 	C 	0.19720 0.85170 0.28960 0.43300
H 	H 	0.16830 0.82620 0.28460 -0.11000
N 	N 	0.24340 0.84080 0.30900 -0.03200
C 	C 	0.23890 0.79610 0.32730 -0.10200
H 	H 	0.19920 0.77890 0.32220 0.00900
H 	H 	0.23880 0.80440 0.34920 0.06400
H 	H 	0.27570 0.77510 0.32280 0.05000
C 	C 	0.29860 0.87370 0.31180 0.17100
H 	H 	0.29330 0.90120 0.29780 -0.05300
H 	H 	0.33800 0.85610 0.30670 -0.01600
H 	H 	0.30130 0.88580 0.33300 0.07500
H 	H 	0.30500 0.86870 0.32270 -0.09000
Cl	Cl	0.11730 0.95870 0.22510 0.44400
Cl	Cl	0.19360 0.89490 0.27340 1.66500
N 	N 	0.21400 0.84660 0.31510 -0.19800
C 	C 	0.19080 0.81180 0.33840 -0.08100
C 	C 	0.26350 0.87210 0.33290 -0.18100
H 	H 	0.19720 0.77850 0.33100 0.05800
H 	H 	0.21480 0.81640 0.35750 -0.00100
H 	H 	0.14520 0.81730 0.34220 0.02200
H 	H 	0.26600 0.85800 0.35360 0.06400
H 	H 	0.25240 0.90660 0.33450 0.02400
Cd	Cd	0.06608 0.45694 0.15865 1.18500
Cd	Cd	0.12274 0.38053 0.22585 1.20300
Cl	Cl	0.02631 0.37765 0.18875 -0.64300
N 	N 	0.11680 0.49095 0.25331 -0.10300
N 	N 	0.10460 0.46282 0.22897 -0.16600
N 	N 	0.08680 0.49024 0.20586 -0.17700
N 	N 	0.08640 0.53656 0.21400 -0.10400
N 	N 	0.94780 0.64807 0.31489 -0.19400
N 	N 	0.91640 0.66541 0.33970 -0.17200
N 	N 	0.95690 0.66990 0.36218 -0.16800
N 	N 	0.01590 0.65624 0.35362 -0.10500
C 	C 	0.10510 0.53606 0.24342 0.05300
C 	C 	0.11460 0.58002 0.26314 0.13500
C 	C 	0.05520 0.58753 0.28355 -0.23800
H 	H 	0.04820 0.55840 0.29650 0.09600
H 	H 	0.01680 0.59230 0.27050 0.07100
C 	C 	0.06540 0.63253 0.30408 0.11900
H 	H 	0.11870 0.59630 0.33740 0.09900
H 	H 	0.16290 0.62010 0.22960 0.09600
C 	C 	0.17360 0.57227 0.28360 -0.23700
H 	H 	0.21180 0.56660 0.27060 0.07300
H 	H 	0.16710 0.54330 0.29670 0.09300
C 	C 	0.00900 0.64353 0.32402 0.06000
O 	O 	0.15060 0.30170 0.22890 -0.74700
N 	N 	0.12930 0.22910 0.25110 -0.04300
C 	C 	0.11250 0.27080 0.23910 -0.02400
H 	H 	0.06800 0.27810 0.23810 -0.04500
C 	C 	0.19660 0.21570 0.25390 -0.34300
H 	H 	0.22240 0.23610 0.24020 0.15500
H 	H 	0.20200 0.18150 0.24820 0.16900
H 	H 	0.21080 0.22050 0.27510 0.12100
C 	C 	0.08410 0.19480 0.26530 -0.32000
H 	H 	0.10130 0.18360 0.28500 0.13000
H 	H 	0.07790 0.16680 0.25170 0.13500
H 	H 	0.04290 0.21100 0.26870 0.10700
O 	O 	0.04660 0.37200 0.26730 -1.90400
C 	C 	0.05280 0.39830 0.28960 0.43300
H 	H 	0.08170 0.42380 0.28460 -0.11000
N 	N 	0.00660 0.40920 0.30900 -0.03200
C 	C 	0.01110 0.45390 0.32730 -0.10200
H 	H 	0.05080 0.47110 0.32220 0.00900
H 	H 	0.01120 0.44560 0.34920 0.06400
H 	H 	0.97430 0.47490 0.32280 0.05000
C 	C 	0.95140 0.37630 0.31180 0.17100
H 	H 	0.95670 0.34880 0.29780 -0.05400
H 	H 	0.91200 0.39390 0.30670 -0.01600
H 	H 	0.94870 0.36420 0.33300 0.07500
H 	H 	0.94500 0.38130 0.32270 -0.09000
Cl	Cl	0.13270 0.29130 0.22510 0.44400
Cl	Cl	0.05640 0.35510 0.27340 1.66500
N 	N 	0.03600 0.40340 0.31510 -0.19800
C 	C 	0.05920 0.43820 0.33840 -0.08100
C 	C 	0.98650 0.37790 0.33290 -0.18200
H 	H 	0.05280 0.47150 0.33100 0.05800
H 	H 	0.03520 0.43360 0.35750 -0.00100
H 	H 	0.10480 0.43270 0.34220 0.02300
H 	H 	0.98400 0.39200 0.35360 0.06400
H 	H 	0.99760 0.34340 0.33450 0.02400
Cd	Cd	0.06608 0.95694 0.65865 1.18500
Cd	Cd	0.12274 0.88053 0.72585 1.20300
Cl	Cl	0.02631 0.87765 0.68875 -0.64300
N 	N 	0.11680 0.99095 0.75331 -0.10300
N 	N 	0.10460 0.96282 0.72897 -0.16600
N 	N 	0.08680 0.99024 0.70586 -0.17700
N 	N 	0.08640 0.03656 0.71400 -0.10400
N 	N 	0.94780 0.14807 0.81489 -0.19400
N 	N 	0.91640 0.16541 0.83970 -0.17200
N 	N 	0.95690 0.16990 0.86218 -0.16800
N 	N 	0.01590 0.15624 0.85362 -0.10500
C 	C 	0.10510 0.03606 0.74342 0.05300
C 	C 	0.11460 0.08002 0.76314 0.13500
C 	C 	0.05520 0.08753 0.78355 -0.23800
H 	H 	0.04820 0.05840 0.79650 0.09600
H 	H 	0.01680 0.09230 0.77050 0.07100
C 	C 	0.06540 0.13253 0.80408 0.11900
H 	H 	0.11870 0.09630 0.83740 0.09900
H 	H 	0.16290 0.12010 0.72960 0.09600
C 	C 	0.17360 0.07227 0.78360 -0.23700
H 	H 	0.21180 0.06660 0.77060 0.07300
H 	H 	0.16710 0.04330 0.79670 0.09300
C 	C 	0.00900 0.14353 0.82402 0.06100
O 	O 	0.15060 0.80170 0.72890 -0.74700
N 	N 	0.12930 0.72910 0.75110 -0.04300
C 	C 	0.11250 0.77080 0.73910 -0.02400
H 	H 	0.06800 0.77810 0.73810 -0.04500
C 	C 	0.19660 0.71570 0.75390 -0.34300
H 	H 	0.22240 0.73610 0.74020 0.15500
H 	H 	0.20200 0.68150 0.74820 0.16900
H 	H 	0.21080 0.72050 0.77510 0.12100
C 	C 	0.08410 0.69480 0.76530 -0.32000
H 	H 	0.10130 0.68360 0.78500 0.13000
H 	H 	0.07790 0.66680 0.75170 0.13500
H 	H 	0.04290 0.71100 0.76870 0.10700
O 	O 	0.04660 0.87200 0.76730 -1.90400
C 	C 	0.05280 0.89830 0.78960 0.43300
H 	H 	0.08170 0.92380 0.78460 -0.11000
N 	N 	0.00660 0.90920 0.80900 -0.03200
C 	C 	0.01110 0.95390 0.82730 -0.10300
H 	H 	0.05080 0.97110 0.82220 0.00800
H 	H 	0.01120 0.94560 0.84920 0.06400
H 	H 	0.97430 0.97490 0.82280 0.05000
C 	C 	0.95140 0.87630 0.81180 0.17100
H 	H 	0.95670 0.84880 0.79780 -0.05300
H 	H 	0.91200 0.89390 0.80670 -0.01600
H 	H 	0.94870 0.86420 0.83300 0.07500
H 	H 	0.94500 0.88130 0.82270 -0.09000
Cl	Cl	0.13270 0.79130 0.72510 0.44400
Cl	Cl	0.05640 0.85510 0.77340 1.66500
N 	N 	0.03600 0.90340 0.81510 -0.19800
C 	C 	0.05920 0.93820 0.83840 -0.08000
C 	C 	0.98650 0.87790 0.83290 -0.18100
H 	H 	0.05280 0.97150 0.83100 0.05900
H 	H 	0.03520 0.93360 0.85750 -0.00100
H 	H 	0.10480 0.93270 0.84220 0.02200
H 	H 	0.98400 0.89200 0.85360 0.06400
H 	H 	0.99760 0.84340 0.83450 0.02400
Cd	Cd	0.56608 0.45694 0.65865 1.18500
Cd	Cd	0.62274 0.38053 0.72585 1.20300
Cl	Cl	0.52631 0.37765 0.68875 -0.64300
N 	N 	0.61680 0.49095 0.75331 -0.10300
N 	N 	0.60460 0.46282 0.72897 -0.16600
N 	N 	0.58680 0.49024 0.70586 -0.17700
N 	N 	0.58640 0.53656 0.71400 -0.10400
N 	N 	0.44780 0.64807 0.81489 -0.19400
N 	N 	0.41640 0.66541 0.83970 -0.17200
N 	N 	0.45690 0.66990 0.86218 -0.16800
N 	N 	0.51590 0.65624 0.85362 -0.10500
C 	C 	0.60510 0.53606 0.74342 0.05300
C 	C 	0.61460 0.58002 0.76314 0.13500
C 	C 	0.55520 0.58753 0.78355 -0.23800
H 	H 	0.54820 0.55840 0.79650 0.09600
H 	H 	0.51680 0.59230 0.77050 0.07100
C 	C 	0.56540 0.63253 0.80408 0.11900
H 	H 	0.61870 0.59630 0.83740 0.09900
H 	H 	0.66290 0.62010 0.72960 0.09600
C 	C 	0.67360 0.57227 0.78360 -0.23700
H 	H 	0.71180 0.56660 0.77060 0.07300
H 	H 	0.66710 0.54330 0.79670 0.09300
C 	C 	0.50900 0.64353 0.82402 0.06100
O 	O 	0.65060 0.30170 0.72890 -0.74700
N 	N 	0.62930 0.22910 0.75110 -0.04300
C 	C 	0.61250 0.27080 0.73910 -0.02400
H 	H 	0.56800 0.27810 0.73810 -0.04500
C 	C 	0.69660 0.21570 0.75390 -0.34300
H 	H 	0.72240 0.23610 0.74020 0.15500
H 	H 	0.70200 0.18150 0.74820 0.16900
H 	H 	0.71080 0.22050 0.77510 0.12100
C 	C 	0.58410 0.19480 0.76530 -0.32000
H 	H 	0.60130 0.18360 0.78500 0.13000
H 	H 	0.57790 0.16680 0.75170 0.13500
H 	H 	0.54290 0.21100 0.76870 0.10700
O 	O 	0.54660 0.37200 0.76730 -1.90400
C 	C 	0.55280 0.39830 0.78960 0.43300
H 	H 	0.58170 0.42380 0.78460 -0.11000
N 	N 	0.50660 0.40920 0.80900 -0.03200
C 	C 	0.51110 0.45390 0.82730 -0.10200
H 	H 	0.55080 0.47110 0.82220 0.00900
H 	H 	0.51120 0.44560 0.84920 0.06400
H 	H 	0.47430 0.47490 0.82280 0.05000
C 	C 	0.45140 0.37630 0.81180 0.17100
H 	H 	0.45670 0.34880 0.79780 -0.05300
H 	H 	0.41200 0.39390 0.80670 -0.01600
H 	H 	0.44870 0.36420 0.83300 0.07500
H 	H 	0.44500 0.38130 0.82270 -0.09000
Cl	Cl	0.63270 0.29130 0.72510 0.44400
Cl	Cl	0.55640 0.35510 0.77340 1.66500
N 	N 	0.53600 0.40340 0.81510 -0.19800
C 	C 	0.55920 0.43820 0.83840 -0.08100
C 	C 	0.48650 0.37790 0.83290 -0.18100
H 	H 	0.55280 0.47150 0.83100 0.05800
H 	H 	0.53520 0.43360 0.85750 -0.00000
H 	H 	0.60480 0.43270 0.84220 0.02300
H 	H 	0.48400 0.39200 0.85360 0.06400
H 	H 	0.49760 0.34340 0.83450 0.02400
Cd	Cd	0.56608 0.95694 0.15865 1.18500
Cd	Cd	0.62274 0.88053 0.22585 1.20300
Cl	Cl	0.52631 0.87765 0.18875 -0.64300
N 	N 	0.61680 0.99095 0.25331 -0.10300
N 	N 	0.60460 0.96282 0.22897 -0.16600
N 	N 	0.58680 0.99024 0.20586 -0.17700
N 	N 	0.58640 0.03656 0.21400 -0.10400
N 	N 	0.44780 0.14807 0.31489 -0.19400
N 	N 	0.41640 0.16541 0.33970 -0.17200
N 	N 	0.45690 0.16990 0.36218 -0.16800
N 	N 	0.51590 0.15624 0.35362 -0.10500
C 	C 	0.60510 0.03606 0.24342 0.05300
C 	C 	0.61460 0.08002 0.26314 0.13500
C 	C 	0.55520 0.08753 0.28355 -0.23800
H 	H 	0.54820 0.05840 0.29650 0.09600
H 	H 	0.51680 0.09230 0.27050 0.07100
C 	C 	0.56540 0.13253 0.30408 0.11900
H 	H 	0.61870 0.09630 0.33740 0.09900
H 	H 	0.66290 0.12010 0.22960 0.09600
C 	C 	0.67360 0.07227 0.28360 -0.23700
H 	H 	0.71180 0.06660 0.27060 0.07300
H 	H 	0.66710 0.04330 0.29670 0.09300
C 	C 	0.50900 0.14353 0.32402 0.06100
O 	O 	0.65060 0.80170 0.22890 -0.74700
N 	N 	0.62930 0.72910 0.25110 -0.04300
C 	C 	0.61250 0.77080 0.23910 -0.02400
H 	H 	0.56800 0.77810 0.23810 -0.04500
C 	C 	0.69660 0.71570 0.25390 -0.34300
H 	H 	0.72240 0.73610 0.24020 0.15500
H 	H 	0.70200 0.68150 0.24820 0.16900
H 	H 	0.71080 0.72050 0.27510 0.12100
C 	C 	0.58410 0.69480 0.26530 -0.32000
H 	H 	0.60130 0.68360 0.28500 0.13000
H 	H 	0.57790 0.66680 0.25170 0.13500
H 	H 	0.54290 0.71100 0.26870 0.10700
O 	O 	0.54660 0.87200 0.26730 -1.90400
C 	C 	0.55280 0.89830 0.28960 0.43300
H 	H 	0.58170 0.92380 0.28460 -0.11000
N 	N 	0.50660 0.90920 0.30900 -0.03200
C 	C 	0.51110 0.95390 0.32730 -0.10200
H 	H 	0.55080 0.97110 0.32220 0.00900
H 	H 	0.51120 0.94560 0.34920 0.06400
H 	H 	0.47430 0.97490 0.32280 0.05000
C 	C 	0.45140 0.87630 0.31180 0.17100
H 	H 	0.45670 0.84880 0.29780 -0.05300
H 	H 	0.41200 0.89390 0.30670 -0.01600
H 	H 	0.44870 0.86420 0.33300 0.07500
H 	H 	0.44500 0.88130 0.32270 -0.09000
Cl	Cl	0.63270 0.79130 0.22510 0.44400
Cl	Cl	0.55640 0.85510 0.27340 1.66500
N 	N 	0.53600 0.90340 0.31510 -0.19800
C 	C 	0.55920 0.93820 0.33840 -0.08100
C 	C 	0.48650 0.87790 0.33290 -0.18100
H 	H 	0.55280 0.97150 0.33100 0.05800
H 	H 	0.53520 0.93360 0.35750 -0.00000
H 	H 	0.60480 0.93270 0.34220 0.02300
H 	H 	0.48400 0.89200 0.35360 0.06400
H 	H 	0.49760 0.84340 0.33450 0.02400
Cd	Cd	0.06608 0.29306 0.59135 1.18500
Cd	Cd	0.12274 0.36947 0.52415 1.20300
Cl	Cl	0.02631 0.37235 0.56125 -0.64300
N 	N 	0.11680 0.25905 0.49669 -0.10300
N 	N 	0.10460 0.28718 0.52103 -0.16600
N 	N 	0.08680 0.25976 0.54414 -0.17700
N 	N 	0.08640 0.21344 0.53600 -0.10400
N 	N 	0.94780 0.10193 0.43511 -0.19400
N 	N 	0.91640 0.08459 0.41030 -0.17200
N 	N 	0.95690 0.08010 0.38782 -0.16800
N 	N 	0.01590 0.09376 0.39638 -0.10500
C 	C 	0.10510 0.21394 0.50658 0.05300
C 	C 	0.11460 0.16998 0.48686 0.13500
C 	C 	0.05520 0.16247 0.46645 -0.23800
H 	H 	0.04820 0.19160 0.45350 0.09600
H 	H 	0.01680 0.15770 0.47950 0.07100
C 	C 	0.06540 0.11747 0.44592 0.11900
H 	H 	0.11870 0.15370 0.41260 0.09900
H 	H 	0.16290 0.12990 0.52040 0.09600
C 	C 	0.17360 0.17773 0.46640 -0.23700
H 	H 	0.21180 0.18340 0.47940 0.07300
H 	H 	0.16710 0.20670 0.45330 0.09300
C 	C 	0.00900 0.10647 0.42598 0.06100
O 	O 	0.15060 0.44830 0.52110 -0.74700
N 	N 	0.12930 0.52090 0.49890 -0.04300
C 	C 	0.11250 0.47920 0.51090 -0.02400
H 	H 	0.06800 0.47190 0.51190 -0.04500
C 	C 	0.19660 0.53430 0.49610 -0.34300
H 	H 	0.22240 0.51390 0.50980 0.15500
H 	H 	0.20200 0.56850 0.50180 0.16900
H 	H 	0.21080 0.52950 0.47490 0.12100
C 	C 	0.08410 0.55520 0.48470 -0.32000
H 	H 	0.10130 0.56640 0.46500 0.13000
H 	H 	0.07790 0.58320 0.49830 0.13500
H 	H 	0.04290 0.53900 0.48130 0.10700
O 	O 	0.04660 0.37800 0.48270 -1.90400
C 	C 	0.05280 0.35170 0.46040 0.43300
H 	H 	0.08170 0.32620 0.46540 -0.11000
N 	N 	0.00660 0.34080 0.44100 -0.03200
C 	C 	0.01110 0.29610 0.42270 -0.10100
H 	H 	0.05080 0.27890 0.42780 0.00900
H 	H 	0.01120 0.30440 0.40080 0.06400
H 	H 	0.97430 0.27510 0.42720 0.05000
C 	C 	0.95140 0.37370 0.43820 0.17100
H 	H 	0.95670 0.40120 0.45220 -0.05400
H 	H 	0.91200 0.35610 0.44330 -0.01600
H 	H 	0.94870 0.38580 0.41700 0.07500
H 	H 	0.94500 0.36870 0.42730 -0.09000
Cl	Cl	0.13270 0.45870 0.52490 0.44400
Cl	Cl	0.05640 0.39490 0.47660 1.66500
N 	N 	0.03600 0.34660 0.43490 -0.19800
C 	C 	0.05920 0.31180 0.41160 -0.08100
C 	C 	0.98650 0.37210 0.41710 -0.18200
H 	H 	0.05280 0.27850 0.41900 0.05800
H 	H 	0.03520 0.31640 0.39250 -0.00000
H 	H 	0.10480 0.31730 0.40780 0.02300
H 	H 	0.98400 0.35800 0.39640 0.06400
H 	H 	0.99760 0.40660 0.41550 0.02400
Cd	Cd	0.06608 0.79306 0.09135 1.18500
Cd	Cd	0.12274 0.86947 0.02415 1.20300
Cl	Cl	0.02631 0.87235 0.06125 -0.64400
N 	N 	0.11680 0.75905 0.99669 -0.10300
N 	N 	0.10460 0.78718 0.02103 -0.16600
N 	N 	0.08680 0.75976 0.04414 -0.17700
N 	N 	0.08640 0.71344 0.03600 -0.10400
N 	N 	0.94780 0.60193 0.93511 -0.19400
N 	N 	0.91640 0.58459 0.91030 -0.17200
N 	N 	0.95690 0.58010 0.88782 -0.16800
N 	N 	0.01590 0.59376 0.89638 -0.10500
C 	C 	0.10510 0.71394 0.00658 0.05300
C 	C 	0.11460 0.66998 0.98686 0.13500
C 	C 	0.05520 0.66247 0.96645 -0.23800
H 	H 	0.04820 0.69160 0.95350 0.09600
H 	H 	0.01680 0.65770 0.97950 0.07100
C 	C 	0.06540 0.61747 0.94592 0.11900
H 	H 	0.11870 0.65370 0.91260 0.09900
H 	H 	0.16290 0.62990 0.02040 0.09600
C 	C 	0.17360 0.67773 0.96640 -0.23700
H 	H 	0.21180 0.68340 0.97940 0.07300
H 	H 	0.16710 0.70670 0.95330 0.09300
C 	C 	0.00900 0.60647 0.92598 0.06000
O 	O 	0.15060 0.94830 0.02110 -0.74700
N 	N 	0.12930 0.02090 0.99890 -0.04300
C 	C 	0.11250 0.97920 0.01090 -0.02500
H 	H 	0.06800 0.97190 0.01190 -0.04500
C 	C 	0.19660 0.03430 0.99610 -0.34300
H 	H 	0.22240 0.01390 0.00980 0.15500
H 	H 	0.20200 0.06850 0.00180 0.16900
H 	H 	0.21080 0.02950 0.97490 0.12100
C 	C 	0.08410 0.05520 0.98470 -0.32000
H 	H 	0.10130 0.06640 0.96500 0.13000
H 	H 	0.07790 0.08320 0.99830 0.13500
H 	H 	0.04290 0.03900 0.98130 0.10700
O 	O 	0.04660 0.87800 0.98270 -1.90400
C 	C 	0.05280 0.85170 0.96040 0.43300
H 	H 	0.08170 0.82620 0.96540 -0.11000
N 	N 	0.00660 0.84080 0.94100 -0.03200
C 	C 	0.01110 0.79610 0.92270 -0.10200
H 	H 	0.05080 0.77890 0.92780 0.00900
H 	H 	0.01120 0.80440 0.90080 0.06400
H 	H 	0.97430 0.77510 0.92720 0.05000
C 	C 	0.95140 0.87370 0.93820 0.17100
H 	H 	0.95670 0.90120 0.95220 -0.05300
H 	H 	0.91200 0.85610 0.94330 -0.01600
H 	H 	0.94870 0.88580 0.91700 0.07500
H 	H 	0.94500 0.86870 0.92730 -0.09000
Cl	Cl	0.13270 0.95870 0.02490 0.44400
Cl	Cl	0.05640 0.89490 0.97660 1.66500
N 	N 	0.03600 0.84660 0.93490 -0.19800
C 	C 	0.05920 0.81180 0.91160 -0.08100
C 	C 	0.98650 0.87210 0.91710 -0.18100
H 	H 	0.05280 0.77850 0.91900 0.05900
H 	H 	0.03520 0.81640 0.89250 -0.00100
H 	H 	0.10480 0.81730 0.90780 0.02200
H 	H 	0.98400 0.85800 0.89640 0.06400
H 	H 	0.99760 0.90660 0.91550 0.02400
Cd	Cd	0.56608 0.29306 0.09135 1.18500
Cd	Cd	0.62274 0.36947 0.02415 1.20300
Cl	Cl	0.52631 0.37235 0.06125 -0.64300
N 	N 	0.61680 0.25905 0.99669 -0.10300
N 	N 	0.60460 0.28718 0.02103 -0.16600
N 	N 	0.58680 0.25976 0.04414 -0.17700
N 	N 	0.58640 0.21344 0.03600 -0.10400
N 	N 	0.44780 0.10193 0.93511 -0.19400
N 	N 	0.41640 0.08459 0.91030 -0.17200
N 	N 	0.45690 0.08010 0.88782 -0.16800
N 	N 	0.51590 0.09376 0.89638 -0.10500
C 	C 	0.60510 0.21394 0.00658 0.05300
C 	C 	0.61460 0.16998 0.98686 0.13500
C 	C 	0.55520 0.16247 0.96645 -0.23800
H 	H 	0.54820 0.19160 0.95350 0.09600
H 	H 	0.51680 0.15770 0.97950 0.07100
C 	C 	0.56540 0.11747 0.94592 0.11900
H 	H 	0.61870 0.15370 0.91260 0.09900
H 	H 	0.66290 0.12990 0.02040 0.09600
C 	C 	0.67360 0.17773 0.96640 -0.23700
H 	H 	0.71180 0.18340 0.97940 0.07300
H 	H 	0.66710 0.20670 0.95330 0.09300
C 	C 	0.50900 0.10647 0.92598 0.06100
O 	O 	0.65060 0.44830 0.02110 -0.74700
N 	N 	0.62930 0.52090 0.99890 -0.04300
C 	C 	0.61250 0.47920 0.01090 -0.02400
H 	H 	0.56800 0.47190 0.01190 -0.04500
C 	C 	0.69660 0.53430 0.99610 -0.34300
H 	H 	0.72240 0.51390 0.00980 0.15500
H 	H 	0.70200 0.56850 0.00180 0.16900
H 	H 	0.71080 0.52950 0.97490 0.12100
C 	C 	0.58410 0.55520 0.98470 -0.32000
H 	H 	0.60130 0.56640 0.96500 0.13000
H 	H 	0.57790 0.58320 0.99830 0.13500
H 	H 	0.54290 0.53900 0.98130 0.10700
O 	O 	0.54660 0.37800 0.98270 -1.90400
C 	C 	0.55280 0.35170 0.96040 0.43300
H 	H 	0.58170 0.32620 0.96540 -0.11000
N 	N 	0.50660 0.34080 0.94100 -0.03200
C 	C 	0.51110 0.29610 0.92270 -0.10200
H 	H 	0.55080 0.27890 0.92780 0.00900
H 	H 	0.51120 0.30440 0.90080 0.06400
H 	H 	0.47430 0.27510 0.92720 0.05000
C 	C 	0.45140 0.37370 0.93820 0.17100
H 	H 	0.45670 0.40120 0.95220 -0.05300
H 	H 	0.41200 0.35610 0.94330 -0.01600
H 	H 	0.44870 0.38580 0.91700 0.07500
H 	H 	0.44500 0.36870 0.92730 -0.09000
Cl	Cl	0.63270 0.45870 0.02490 0.44400
Cl	Cl	0.55640 0.39490 0.97660 1.66500
N 	N 	0.53600 0.34660 0.93490 -0.19800
C 	C 	0.55920 0.31180 0.91160 -0.08100
C 	C 	0.48650 0.37210 0.91710 -0.18100
H 	H 	0.55280 0.27850 0.91900 0.05800
H 	H 	0.53520 0.31640 0.89250 -0.00000
H 	H 	0.60480 0.31730 0.90780 0.02300
H 	H 	0.48400 0.35800 0.89640 0.06400
H 	H 	0.49760 0.40660 0.91550 0.02400
Cd	Cd	0.56608 0.79306 0.59135 1.18500
Cd	Cd	0.62274 0.86947 0.52415 1.20300
Cl	Cl	0.52631 0.87235 0.56125 -0.64300
N 	N 	0.61680 0.75905 0.49669 -0.10300
N 	N 	0.60460 0.78718 0.52103 -0.16600
N 	N 	0.58680 0.75976 0.54414 -0.17700
N 	N 	0.58640 0.71344 0.53600 -0.10400
N 	N 	0.44780 0.60193 0.43511 -0.19400
N 	N 	0.41640 0.58459 0.41030 -0.17200
N 	N 	0.45690 0.58010 0.38782 -0.16800
N 	N 	0.51590 0.59376 0.39638 -0.10500
C 	C 	0.60510 0.71394 0.50658 0.05300
C 	C 	0.61460 0.66998 0.48686 0.13500
C 	C 	0.55520 0.66247 0.46645 -0.23800
H 	H 	0.54820 0.69160 0.45350 0.09600
H 	H 	0.51680 0.65770 0.47950 0.07100
C 	C 	0.56540 0.61747 0.44592 0.11900
H 	H 	0.61870 0.65370 0.41260 0.09900
H 	H 	0.66290 0.62990 0.52040 0.09600
C 	C 	0.67360 0.67773 0.46640 -0.23700
H 	H 	0.71180 0.68340 0.47940 0.07300
H 	H 	0.66710 0.70670 0.45330 0.09300
C 	C 	0.50900 0.60647 0.42598 0.06100
O 	O 	0.65060 0.94830 0.52110 -0.74700
N 	N 	0.62930 0.02090 0.49890 -0.04300
C 	C 	0.61250 0.97920 0.51090 -0.02400
H 	H 	0.56800 0.97190 0.51190 -0.04500
C 	C 	0.69660 0.03430 0.49610 -0.34300
H 	H 	0.72240 0.01390 0.50980 0.15500
H 	H 	0.70200 0.06850 0.50180 0.16900
H 	H 	0.71080 0.02950 0.47490 0.12100
C 	C 	0.58410 0.05520 0.48470 -0.32000
H 	H 	0.60130 0.06640 0.46500 0.13000
H 	H 	0.57790 0.08320 0.49830 0.13500
H 	H 	0.54290 0.03900 0.48130 0.10700
O 	O 	0.54660 0.87800 0.48270 -1.90400
C 	C 	0.55280 0.85170 0.46040 0.43300
H 	H 	0.58170 0.82620 0.46540 -0.11000
N 	N 	0.50660 0.84080 0.44100 -0.03200
C 	C 	0.51110 0.79610 0.42270 -0.10200
H 	H 	0.55080 0.77890 0.42780 0.00900
H 	H 	0.51120 0.80440 0.40080 0.06400
H 	H 	0.47430 0.77510 0.42720 0.05000
C 	C 	0.45140 0.87370 0.43820 0.17100
H 	H 	0.45670 0.90120 0.45220 -0.05300
H 	H 	0.41200 0.85610 0.44330 -0.01600
H 	H 	0.44870 0.88580 0.41700 0.07500
H 	H 	0.44500 0.86870 0.42730 -0.09000
Cl	Cl	0.63270 0.95870 0.52490 0.44400
Cl	Cl	0.55640 0.89490 0.47660 1.66500
N 	N 	0.53600 0.84660 0.43490 -0.19800
C 	C 	0.55920 0.81180 0.41160 -0.08100
C 	C 	0.48650 0.87210 0.41710 -0.18100
H 	H 	0.55280 0.77850 0.41900 0.05800
H 	H 	0.53520 0.81640 0.39250 -0.00000
H 	H 	0.60480 0.81730 0.40780 0.02300
H 	H 	0.48400 0.85800 0.39640 0.06400
H 	H 	0.49760 0.90660 0.41550 0.02400
Cd	Cd	0.68392 0.45694 0.59135 1.18500
Cd	Cd	0.62726 0.38053 0.52415 1.20300
Cl	Cl	0.72369 0.37765 0.56125 -0.64300
N 	N 	0.63320 0.49095 0.49669 -0.10300
N 	N 	0.64540 0.46282 0.52103 -0.16600
N 	N 	0.66320 0.49024 0.54414 -0.17700
N 	N 	0.66360 0.53656 0.53600 -0.10400
N 	N 	0.80220 0.64807 0.43511 -0.19400
N 	N 	0.83360 0.66541 0.41030 -0.17200
N 	N 	0.79310 0.66990 0.38782 -0.16800
N 	N 	0.73410 0.65624 0.39638 -0.10500
C 	C 	0.64490 0.53606 0.50658 0.05300
C 	C 	0.63540 0.58002 0.48686 0.13500
C 	C 	0.69480 0.58753 0.46645 -0.23800
H 	H 	0.70180 0.55840 0.45350 0.09600
H 	H 	0.73320 0.59230 0.47950 0.07100
C 	C 	0.68460 0.63253 0.44592 0.11900
H 	H 	0.63130 0.59630 0.41260 0.09900
H 	H 	0.58710 0.62010 0.52040 0.09600
C 	C 	0.57640 0.57227 0.46640 -0.23700
H 	H 	0.53820 0.56660 0.47940 0.07300
H 	H 	0.58290 0.54330 0.45330 0.09300
C 	C 	0.74100 0.64353 0.42598 0.06100
O 	O 	0.59940 0.30170 0.52110 -0.74700
N 	N 	0.62070 0.22910 0.49890 -0.04300
C 	C 	0.63750 0.27080 0.51090 -0.02400
H 	H 	0.68200 0.27810 0.51190 -0.04500
C 	C 	0.55340 0.21570 0.49610 -0.34300
H 	H 	0.52760 0.23610 0.50980 0.15500
H 	H 	0.54800 0.18150 0.50180 0.16900
H 	H 	0.53920 0.22050 0.47490 0.12100
C 	C 	0.66590 0.19480 0.48470 -0.32000
H 	H 	0.64870 0.18360 0.46500 0.13000
H 	H 	0.67210 0.16680 0.49830 0.13500
H 	H 	0.70710 0.21100 0.48130 0.10700
O 	O 	0.70340 0.37200 0.48270 -1.90400
C 	C 	0.69720 0.39830 0.46040 0.43300
H 	H 	0.66830 0.42380 0.46540 -0.11000
N 	N 	0.74340 0.40920 0.44100 -0.03200
C 	C 	0.73890 0.45390 0.42270 -0.10200
H 	H 	0.69920 0.47110 0.42780 0.00900
H 	H 	0.73880 0.44560 0.40080 0.06400
H 	H 	0.77570 0.47490 0.42720 0.05000
C 	C 	0.79860 0.37630 0.43820 0.17100
H 	H 	0.79330 0.34880 0.45220 -0.05300
H 	H 	0.83800 0.39390 0.44330 -0.01600
H 	H 	0.80130 0.36420 0.41700 0.07500
H 	H 	0.80500 0.38130 0.42730 -0.09000
Cl	Cl	0.61730 0.29130 0.52490 0.44400
Cl	Cl	0.69360 0.35510 0.47660 1.66500
N 	N 	0.71400 0.40340 0.43490 -0.19800
C 	C 	0.69080 0.43820 0.41160 -0.08100
C 	C 	0.76350 0.37790 0.41710 -0.18100
H 	H 	0.69720 0.47150 0.41900 0.05800
H 	H 	0.71480 0.43360 0.39250 -0.00000
H 	H 	0.64520 0.43270 0.40780 0.02300
H 	H 	0.76600 0.39200 0.39640 0.06400
H 	H 	0.75240 0.34340 0.41550 0.02400
Cd	Cd	0.68392 0.95694 0.09135 1.18500
Cd	Cd	0.62726 0.88053 0.02415 1.20300
Cl	Cl	0.72369 0.87765 0.06125 -0.64300
N 	N 	0.63320 0.99095 0.99669 -0.10300
N 	N 	0.64540 0.96282 0.02103 -0.16600
N 	N 	0.66320 0.99024 0.04414 -0.17700
N 	N 	0.66360 0.03656 0.03600 -0.10400
N 	N 	0.80220 0.14807 0.93511 -0.19400
N 	N 	0.83360 0.16541 0.91030 -0.17200
N 	N 	0.79310 0.16990 0.88782 -0.16800
N 	N 	0.73410 0.15624 0.89638 -0.10500
C 	C 	0.64490 0.03606 0.00658 0.05300
C 	C 	0.63540 0.08002 0.98686 0.13500
C 	C 	0.69480 0.08753 0.96645 -0.23800
H 	H 	0.70180 0.05840 0.95350 0.09600
H 	H 	0.73320 0.09230 0.97950 0.07100
C 	C 	0.68460 0.13253 0.94592 0.11900
H 	H 	0.63130 0.09630 0.91260 0.09900
H 	H 	0.58710 0.12010 0.02040 0.09600
C 	C 	0.57640 0.07227 0.96640 -0.23700
H 	H 	0.53820 0.06660 0.97940 0.07300
H 	H 	0.58290 0.04330 0.95330 0.09300
C 	C 	0.74100 0.14353 0.92598 0.06100
O 	O 	0.59940 0.80170 0.02110 -0.74700
N 	N 	0.62070 0.72910 0.99890 -0.04300
C 	C 	0.63750 0.77080 0.01090 -0.02400
H 	H 	0.68200 0.77810 0.01190 -0.04500
C 	C 	0.55340 0.71570 0.99610 -0.34300
H 	H 	0.52760 0.73610 0.00980 0.15500
H 	H 	0.54800 0.68150 0.00180 0.16900
H 	H 	0.53920 0.72050 0.97490 0.12100
C 	C 	0.66590 0.69480 0.98470 -0.32000
H 	H 	0.64870 0.68360 0.96500 0.13000
H 	H 	0.67210 0.66680 0.99830 0.13500
H 	H 	0.70710 0.71100 0.98130 0.10700
O 	O 	0.70340 0.87200 0.98270 -1.90400
C 	C 	0.69720 0.89830 0.96040 0.43300
H 	H 	0.66830 0.92380 0.96540 -0.11000
N 	N 	0.74340 0.90920 0.94100 -0.03200
C 	C 	0.73890 0.95390 0.92270 -0.10200
H 	H 	0.69920 0.97110 0.92780 0.00900
H 	H 	0.73880 0.94560 0.90080 0.06400
H 	H 	0.77570 0.97490 0.92720 0.05000
C 	C 	0.79860 0.87630 0.93820 0.17100
H 	H 	0.79330 0.84880 0.95220 -0.05300
H 	H 	0.83800 0.89390 0.94330 -0.01600
H 	H 	0.80130 0.86420 0.91700 0.07500
H 	H 	0.80500 0.88130 0.92730 -0.09000
Cl	Cl	0.61730 0.79130 0.02490 0.44400
Cl	Cl	0.69360 0.85510 0.97660 1.66500
N 	N 	0.71400 0.90340 0.93490 -0.19800
C 	C 	0.69080 0.93820 0.91160 -0.08100
C 	C 	0.76350 0.87790 0.91710 -0.18100
H 	H 	0.69720 0.97150 0.91900 0.05800
H 	H 	0.71480 0.93360 0.89250 -0.00000
H 	H 	0.64520 0.93270 0.90780 0.02300
H 	H 	0.76600 0.89200 0.89640 0.06400
H 	H 	0.75240 0.84340 0.91550 0.02400
Cd	Cd	0.18392 0.45694 0.09135 1.18500
Cd	Cd	0.12726 0.38053 0.02415 1.20300
Cl	Cl	0.22369 0.37765 0.06125 -0.64300
N 	N 	0.13320 0.49095 0.99669 -0.10300
N 	N 	0.14540 0.46282 0.02103 -0.16600
N 	N 	0.16320 0.49024 0.04414 -0.17700
N 	N 	0.16360 0.53656 0.03600 -0.10400
N 	N 	0.30220 0.64807 0.93511 -0.19400
N 	N 	0.33360 0.66541 0.91030 -0.17200
N 	N 	0.29310 0.66990 0.88782 -0.16800
N 	N 	0.23410 0.65624 0.89638 -0.10500
C 	C 	0.14490 0.53606 0.00658 0.05300
C 	C 	0.13540 0.58002 0.98686 0.13500
C 	C 	0.19480 0.58753 0.96645 -0.23800
H 	H 	0.20180 0.55840 0.95350 0.09600
H 	H 	0.23320 0.59230 0.97950 0.07200
C 	C 	0.18460 0.63253 0.94592 0.11900
H 	H 	0.13130 0.59630 0.91260 0.09900
H 	H 	0.08710 0.62010 0.02040 0.09600
C 	C 	0.07640 0.57227 0.96640 -0.23700
H 	H 	0.03820 0.56660 0.97940 0.07300
H 	H 	0.08290 0.54330 0.95330 0.09300
C 	C 	0.24100 0.64353 0.92598 0.06100
O 	O 	0.09940 0.30170 0.02110 -0.74700
N 	N 	0.12070 0.22910 0.99890 -0.04300
C 	C 	0.13750 0.27080 0.01090 -0.02400
H 	H 	0.18200 0.27810 0.01190 -0.04500
C 	C 	0.05340 0.21570 0.99610 -0.34200
H 	H 	0.02760 0.23610 0.00980 0.15500
H 	H 	0.04800 0.18150 0.00180 0.16900
H 	H 	0.03920 0.22050 0.97490 0.12100
C 	C 	0.16590 0.19480 0.98470 -0.32000
H 	H 	0.14870 0.18360 0.96500 0.13000
H 	H 	0.17210 0.16680 0.99830 0.13500
H 	H 	0.20710 0.21100 0.98130 0.10700
O 	O 	0.20340 0.37200 0.98270 -1.90400
C 	C 	0.19720 0.39830 0.96040 0.43300
H 	H 	0.16830 0.42380 0.96540 -0.11000
N 	N 	0.24340 0.40920 0.94100 -0.03200
C 	C 	0.23890 0.45390 0.92270 -0.10200
H 	H 	0.19920 0.47110 0.92780 0.00900
H 	H 	0.23880 0.44560 0.90080 0.06400
H 	H 	0.27570 0.47490 0.92720 0.05000
C 	C 	0.29860 0.37630 0.93820 0.17100
H 	H 	0.29330 0.34880 0.95220 -0.05300
H 	H 	0.33800 0.39390 0.94330 -0.01600
H 	H 	0.30130 0.36420 0.91700 0.07500
H 	H 	0.30500 0.38130 0.92730 -0.09000
Cl	Cl	0.11730 0.29130 0.02490 0.44400
Cl	Cl	0.19360 0.35510 0.97660 1.66500
N 	N 	0.21400 0.40340 0.93490 -0.19800
C 	C 	0.19080 0.43820 0.91160 -0.08100
C 	C 	0.26350 0.37790 0.91710 -0.18100
H 	H 	0.19720 0.47150 0.91900 0.05800
H 	H 	0.21480 0.43360 0.89250 -0.00000
H 	H 	0.14520 0.43270 0.90780 0.02300
H 	H 	0.26600 0.39200 0.89640 0.06400
H 	H 	0.25240 0.34340 0.91550 0.02400
Cd	Cd	0.18392 0.95694 0.59135 1.18500
Cd	Cd	0.12726 0.88053 0.52415 1.20300
Cl	Cl	0.22369 0.87765 0.56125 -0.64300
N 	N 	0.13320 0.99095 0.49669 -0.10300
N 	N 	0.14540 0.96282 0.52103 -0.16600
N 	N 	0.16320 0.99024 0.54414 -0.17700
N 	N 	0.16360 0.03656 0.53600 -0.10400
N 	N 	0.30220 0.14807 0.43511 -0.19400
N 	N 	0.33360 0.16541 0.41030 -0.17200
N 	N 	0.29310 0.16990 0.38782 -0.16800
N 	N 	0.23410 0.15624 0.39638 -0.10500
C 	C 	0.14490 0.03606 0.50658 0.05300
C 	C 	0.13540 0.08002 0.48686 0.13500
C 	C 	0.19480 0.08753 0.46645 -0.23800
H 	H 	0.20180 0.05840 0.45350 0.09600
H 	H 	0.23320 0.09230 0.47950 0.07100
C 	C 	0.18460 0.13253 0.44592 0.11900
H 	H 	0.13130 0.09630 0.41260 0.09900
H 	H 	0.08710 0.12010 0.52040 0.09600
C 	C 	0.07640 0.07227 0.46640 -0.23700
H 	H 	0.03820 0.06660 0.47940 0.07300
H 	H 	0.08290 0.04330 0.45330 0.09300
C 	C 	0.24100 0.14353 0.42598 0.06100
O 	O 	0.09940 0.80170 0.52110 -0.74700
N 	N 	0.12070 0.72910 0.49890 -0.04300
C 	C 	0.13750 0.77080 0.51090 -0.02400
H 	H 	0.18200 0.77810 0.51190 -0.04500
C 	C 	0.05340 0.71570 0.49610 -0.34200
H 	H 	0.02760 0.73610 0.50980 0.15500
H 	H 	0.04800 0.68150 0.50180 0.16900
H 	H 	0.03920 0.72050 0.47490 0.12100
C 	C 	0.16590 0.69480 0.48470 -0.32000
H 	H 	0.14870 0.68360 0.46500 0.13000
H 	H 	0.17210 0.66680 0.49830 0.13500
H 	H 	0.20710 0.71100 0.48130 0.10700
O 	O 	0.20340 0.87200 0.48270 -1.90400
C 	C 	0.19720 0.89830 0.46040 0.43300
H 	H 	0.16830 0.92380 0.46540 -0.11000
N 	N 	0.24340 0.90920 0.44100 -0.03200
C 	C 	0.23890 0.95390 0.42270 -0.10200
H 	H 	0.19920 0.97110 0.42780 0.00900
H 	H 	0.23880 0.94560 0.40080 0.06400
H 	H 	0.27570 0.97490 0.42720 0.05000
C 	C 	0.29860 0.87630 0.43820 0.17100
H 	H 	0.29330 0.84880 0.45220 -0.05300
H 	H 	0.33800 0.89390 0.44330 -0.01600
H 	H 	0.30130 0.86420 0.41700 0.07500
H 	H 	0.30500 0.88130 0.42730 -0.09000
Cl	Cl	0.11730 0.79130 0.52490 0.44400
Cl	Cl	0.19360 0.85510 0.47660 1.66500
N 	N 	0.21400 0.90340 0.43490 -0.19800
C 	C 	0.19080 0.93820 0.41160 -0.08100
C 	C 	0.26350 0.87790 0.41710 -0.18100
H 	H 	0.19720 0.97150 0.41900 0.05800
H 	H 	0.21480 0.93360 0.39250 -0.00100
H 	H 	0.14520 0.93270 0.40780 0.02200
H 	H 	0.26600 0.89200 0.39640 0.06400
H 	H 	0.25240 0.84340 0.41550 0.02400
Cd	Cd	0.31608 0.70694 0.84135 1.18500
Cd	Cd	0.37274 0.63053 0.77415 1.20300
Cl	Cl	0.27631 0.62765 0.81125 -0.64300
N 	N 	0.36680 0.74095 0.74669 -0.10300
N 	N 	0.35460 0.71282 0.77103 -0.16600
N 	N 	0.33680 0.74024 0.79414 -0.17700
N 	N 	0.33640 0.78656 0.78600 -0.10400
N 	N 	0.19780 0.89807 0.68511 -0.19400
N 	N 	0.16640 0.91541 0.66030 -0.17200
N 	N 	0.20690 0.91990 0.63782 -0.16800
N 	N 	0.26590 0.90624 0.64638 -0.10500
C 	C 	0.35510 0.78606 0.75658 0.05300
C 	C 	0.36460 0.83002 0.73686 0.13500
C 	C 	0.30520 0.83753 0.71645 -0.23800
H 	H 	0.29820 0.80840 0.70350 0.09600
H 	H 	0.26680 0.84230 0.72950 0.07100
C 	C 	0.31540 0.88253 0.69592 0.11900
H 	H 	0.36870 0.84630 0.66260 0.09900
H 	H 	0.41290 0.87010 0.77040 0.09600
C 	C 	0.42360 0.82227 0.71640 -0.23700
H 	H 	0.46180 0.81660 0.72940 0.07300
H 	H 	0.41710 0.79330 0.70330 0.09300
C 	C 	0.25900 0.89353 0.67598 0.06100
O 	O 	0.40060 0.55170 0.77110 -0.74700
N 	N 	0.37930 0.47910 0.74890 -0.04300
C 	C 	0.36250 0.52080 0.76090 -0.02400
H 	H 	0.31800 0.52810 0.76190 -0.04500
C 	C 	0.44660 0.46570 0.74610 -0.34300
H 	H 	0.47240 0.48610 0.75980 0.15500
H 	H 	0.45200 0.43150 0.75180 0.16900
H 	H 	0.46080 0.47050 0.72490 0.12100
C 	C 	0.33410 0.44480 0.73470 -0.32000
H 	H 	0.35130 0.43360 0.71500 0.13000
H 	H 	0.32790 0.41680 0.74830 0.13500
H 	H 	0.29290 0.46100 0.73130 0.10700
O 	O 	0.29660 0.62200 0.73270 -1.90400
C 	C 	0.30280 0.64830 0.71040 0.43300
H 	H 	0.33170 0.67380 0.71540 -0.11000
N 	N 	0.25660 0.65920 0.69100 -0.03200
C 	C 	0.26110 0.70390 0.67270 -0.10200
H 	H 	0.30080 0.72110 0.67780 0.00900
H 	H 	0.26120 0.69560 0.65080 0.06400
H 	H 	0.22430 0.72490 0.67720 0.05000
C 	C 	0.20140 0.62630 0.68820 0.17100
H 	H 	0.20670 0.59880 0.70220 -0.05300
H 	H 	0.16200 0.64390 0.69330 -0.01600
H 	H 	0.19870 0.61420 0.66700 0.07500
H 	H 	0.19500 0.63130 0.67730 -0.09000
Cl	Cl	0.38270 0.54130 0.77490 0.44400
Cl	Cl	0.30640 0.60510 0.72660 1.66500
N 	N 	0.28600 0.65340 0.68490 -0.19800
C 	C 	0.30920 0.68820 0.66160 -0.08100
C 	C 	0.23650 0.62790 0.66710 -0.18100
H 	H 	0.30280 0.72150 0.66900 0.05800
H 	H 	0.28520 0.68360 0.64250 -0.00000
H 	H 	0.35480 0.68270 0.65780 0.02300
H 	H 	0.23400 0.64200 0.64640 0.06400
H 	H 	0.24760 0.59340 0.66550 0.02400
Cd	Cd	0.31608 0.20694 0.34135 1.18500
Cd	Cd	0.37274 0.13053 0.27415 1.20300
Cl	Cl	0.27631 0.12765 0.31125 -0.64300
N 	N 	0.36680 0.24095 0.24669 -0.10300
N 	N 	0.35460 0.21282 0.27103 -0.16600
N 	N 	0.33680 0.24024 0.29414 -0.17700
N 	N 	0.33640 0.28656 0.28600 -0.10400
N 	N 	0.19780 0.39807 0.18511 -0.19400
N 	N 	0.16640 0.41541 0.16030 -0.17200
N 	N 	0.20690 0.41990 0.13782 -0.16800
N 	N 	0.26590 0.40624 0.14638 -0.10500
C 	C 	0.35510 0.28606 0.25658 0.05300
C 	C 	0.36460 0.33002 0.23686 0.13500
C 	C 	0.30520 0.33753 0.21645 -0.23800
H 	H 	0.29820 0.30840 0.20350 0.09600
H 	H 	0.26680 0.34230 0.22950 0.07100
C 	C 	0.31540 0.38253 0.19592 0.11900
H 	H 	0.36870 0.34630 0.16260 0.09900
H 	H 	0.41290 0.37010 0.27040 0.09600
C 	C 	0.42360 0.32227 0.21640 -0.23700
H 	H 	0.46180 0.31660 0.22940 0.07300
H 	H 	0.41710 0.29330 0.20330 0.09300
C 	C 	0.25900 0.39353 0.17598 0.06100
O 	O 	0.40060 0.05170 0.27110 -0.74700
N 	N 	0.37930 0.97910 0.24890 -0.04300
C 	C 	0.36250 0.02080 0.26090 -0.02400
H 	H 	0.31800 0.02810 0.26190 -0.04500
C 	C 	0.44660 0.96570 0.24610 -0.34300
H 	H 	0.47240 0.98610 0.25980 0.15500
H 	H 	0.45200 0.93150 0.25180 0.16900
H 	H 	0.46080 0.97050 0.22490 0.12100
C 	C 	0.33410 0.94480 0.23470 -0.32000
H 	H 	0.35130 0.93360 0.21500 0.13000
H 	H 	0.32790 0.91680 0.24830 0.13500
H 	H 	0.29290 0.96100 0.23130 0.10700
O 	O 	0.29660 0.12200 0.23270 -1.90400
C 	C 	0.30280 0.14830 0.21040 0.43300
H 	H 	0.33170 0.17380 0.21540 -0.11000
N 	N 	0.25660 0.15920 0.19100 -0.03200
C 	C 	0.26110 0.20390 0.17270 -0.10200
H 	H 	0.30080 0.22110 0.17780 0.00900
H 	H 	0.26120 0.19560 0.15080 0.06400
H 	H 	0.22430 0.22490 0.17720 0.05000
C 	C 	0.20140 0.12630 0.18820 0.17100
H 	H 	0.20670 0.09880 0.20220 -0.05300
H 	H 	0.16200 0.14390 0.19330 -0.01600
H 	H 	0.19870 0.11420 0.16700 0.07500
H 	H 	0.19500 0.13130 0.17730 -0.09000
Cl	Cl	0.38270 0.04130 0.27490 0.44400
Cl	Cl	0.30640 0.10510 0.22660 1.66500
N 	N 	0.28600 0.15340 0.18490 -0.19800
C 	C 	0.30920 0.18820 0.16160 -0.08100
C 	C 	0.23650 0.12790 0.16710 -0.18100
H 	H 	0.30280 0.22150 0.16900 0.05800
H 	H 	0.28520 0.18360 0.14250 -0.00000
H 	H 	0.35480 0.18270 0.15780 0.02300
H 	H 	0.23400 0.14200 0.14640 0.06400
H 	H 	0.24760 0.09340 0.16550 0.02400
Cd	Cd	0.81608 0.70694 0.34135 1.18500
Cd	Cd	0.87274 0.63053 0.27415 1.20300
Cl	Cl	0.77631 0.62765 0.31125 -0.64300
N 	N 	0.86680 0.74095 0.24669 -0.10300
N 	N 	0.85460 0.71282 0.27103 -0.16600
N 	N 	0.83680 0.74024 0.29414 -0.17700
N 	N 	0.83640 0.78656 0.28600 -0.10400
N 	N 	0.69780 0.89807 0.18511 -0.19400
N 	N 	0.66640 0.91541 0.16030 -0.17200
N 	N 	0.70690 0.91990 0.13782 -0.16800
N 	N 	0.76590 0.90624 0.14638 -0.10500
C 	C 	0.85510 0.78606 0.25658 0.05300
C 	C 	0.86460 0.83002 0.23686 0.13500
C 	C 	0.80520 0.83753 0.21645 -0.23800
H 	H 	0.79820 0.80840 0.20350 0.09600
H 	H 	0.76680 0.84230 0.22950 0.07100
C 	C 	0.81540 0.88253 0.19592 0.11900
H 	H 	0.86870 0.84630 0.16260 0.09900
H 	H 	0.91290 0.87010 0.27040 0.09600
C 	C 	0.92360 0.82227 0.21640 -0.23700
H 	H 	0.96180 0.81660 0.22940 0.07300
H 	H 	0.91710 0.79330 0.20330 0.09300
C 	C 	0.75900 0.89353 0.17598 0.06100
O 	O 	0.90060 0.55170 0.27110 -0.74700
N 	N 	0.87930 0.47910 0.24890 -0.04300
C 	C 	0.86250 0.52080 0.26090 -0.02400
H 	H 	0.81800 0.52810 0.26190 -0.04500
C 	C 	0.94660 0.46570 0.24610 -0.34300
H 	H 	0.97240 0.48610 0.25980 0.15500
H 	H 	0.95200 0.43150 0.25180 0.16900
H 	H 	0.96080 0.47050 0.22490 0.12100
C 	C 	0.83410 0.44480 0.23470 -0.32000
H 	H 	0.85130 0.43360 0.21500 0.13000
H 	H 	0.82790 0.41680 0.24830 0.13500
H 	H 	0.79290 0.46100 0.23130 0.10700
O 	O 	0.79660 0.62200 0.23270 -1.90400
C 	C 	0.80280 0.64830 0.21040 0.43300
H 	H 	0.83170 0.67380 0.21540 -0.11000
N 	N 	0.75660 0.65920 0.19100 -0.03200
C 	C 	0.76110 0.70390 0.17270 -0.10200
H 	H 	0.80080 0.72110 0.17780 0.00900
H 	H 	0.76120 0.69560 0.15080 0.06400
H 	H 	0.72430 0.72490 0.17720 0.05000
C 	C 	0.70140 0.62630 0.18820 0.17100
H 	H 	0.70670 0.59880 0.20220 -0.05300
H 	H 	0.66200 0.64390 0.19330 -0.01600
H 	H 	0.69870 0.61420 0.16700 0.07500
H 	H 	0.69500 0.63130 0.17730 -0.09000
Cl	Cl	0.88270 0.54130 0.27490 0.44400
Cl	Cl	0.80640 0.60510 0.22660 1.66500
N 	N 	0.78600 0.65340 0.18490 -0.19800
C 	C 	0.80920 0.68820 0.16160 -0.08100
C 	C 	0.73650 0.62790 0.16710 -0.18100
H 	H 	0.80280 0.72150 0.16900 0.05800
H 	H 	0.78520 0.68360 0.14250 -0.00000
H 	H 	0.85480 0.68270 0.15780 0.02300
H 	H 	0.73400 0.64200 0.14640 0.06400
H 	H 	0.74760 0.59340 0.16550 0.02400
Cd	Cd	0.81608 0.20694 0.84135 1.18500
Cd	Cd	0.87274 0.13053 0.77415 1.20300
Cl	Cl	0.77631 0.12765 0.81125 -0.64300
N 	N 	0.86680 0.24095 0.74669 -0.10300
N 	N 	0.85460 0.21282 0.77103 -0.16600
N 	N 	0.83680 0.24024 0.79414 -0.17700
N 	N 	0.83640 0.28656 0.78600 -0.10400
N 	N 	0.69780 0.39807 0.68511 -0.19400
N 	N 	0.66640 0.41541 0.66030 -0.17200
N 	N 	0.70690 0.41990 0.63782 -0.16800
N 	N 	0.76590 0.40624 0.64638 -0.10500
C 	C 	0.85510 0.28606 0.75658 0.05300
C 	C 	0.86460 0.33002 0.73686 0.13500
C 	C 	0.80520 0.33753 0.71645 -0.23800
H 	H 	0.79820 0.30840 0.70350 0.09600
H 	H 	0.76680 0.34230 0.72950 0.07100
C 	C 	0.81540 0.38253 0.69592 0.11900
H 	H 	0.86870 0.34630 0.66260 0.09900
H 	H 	0.91290 0.37010 0.77040 0.09600
C 	C 	0.92360 0.32227 0.71640 -0.23700
H 	H 	0.96180 0.31660 0.72940 0.07300
H 	H 	0.91710 0.29330 0.70330 0.09300
C 	C 	0.75900 0.39353 0.67598 0.06100
O 	O 	0.90060 0.05170 0.77110 -0.74700
N 	N 	0.87930 0.97910 0.74890 -0.04300
C 	C 	0.86250 0.02080 0.76090 -0.02400
H 	H 	0.81800 0.02810 0.76190 -0.04500
C 	C 	0.94660 0.96570 0.74610 -0.34300
H 	H 	0.97240 0.98610 0.75980 0.15500
H 	H 	0.95200 0.93150 0.75180 0.16900
H 	H 	0.96080 0.97050 0.72490 0.12100
C 	C 	0.83410 0.94480 0.73470 -0.32000
H 	H 	0.85130 0.93360 0.71500 0.13000
H 	H 	0.82790 0.91680 0.74830 0.13500
H 	H 	0.79290 0.96100 0.73130 0.10700
O 	O 	0.79660 0.12200 0.73270 -1.90400
C 	C 	0.80280 0.14830 0.71040 0.43300
H 	H 	0.83170 0.17380 0.71540 -0.11000
N 	N 	0.75660 0.15920 0.69100 -0.03200
C 	C 	0.76110 0.20390 0.67270 -0.10200
H 	H 	0.80080 0.22110 0.67780 0.00900
H 	H 	0.76120 0.19560 0.65080 0.06400
H 	H 	0.72430 0.22490 0.67720 0.05000
C 	C 	0.70140 0.12630 0.68820 0.17100
H 	H 	0.70670 0.09880 0.70220 -0.05300
H 	H 	0.66200 0.14390 0.69330 -0.01600
H 	H 	0.69870 0.11420 0.66700 0.07500
H 	H 	0.69500 0.13130 0.67730 -0.09000
Cl	Cl	0.88270 0.04130 0.77490 0.44400
Cl	Cl	0.80640 0.10510 0.72660 1.66500
N 	N 	0.78600 0.15340 0.68490 -0.19800
C 	C 	0.80920 0.18820 0.66160 -0.08100
C 	C 	0.73650 0.12790 0.66710 -0.18100
H 	H 	0.80280 0.22150 0.66900 0.05800
H 	H 	0.78520 0.18360 0.64250 -0.00100
H 	H 	0.85480 0.18270 0.65780 0.02200
H 	H 	0.73400 0.14200 0.64640 0.06400
H 	H 	0.74760 0.09340 0.66550 0.02400
Cd	Cd	0.93392 0.54306 0.84135 1.18500
Cd	Cd	0.87726 0.61947 0.77415 1.20300
Cl	Cl	0.97369 0.62235 0.81125 -0.64300
N 	N 	0.88320 0.50905 0.74669 -0.10300
N 	N 	0.89540 0.53718 0.77103 -0.16600
N 	N 	0.91320 0.50976 0.79414 -0.17700
N 	N 	0.91360 0.46344 0.78600 -0.10400
N 	N 	0.05220 0.35193 0.68511 -0.19400
N 	N 	0.08360 0.33459 0.66030 -0.17200
N 	N 	0.04310 0.33010 0.63782 -0.16800
N 	N 	0.98410 0.34376 0.64638 -0.10500
C 	C 	0.89490 0.46394 0.75658 0.05300
C 	C 	0.88540 0.41998 0.73686 0.13500
C 	C 	0.94480 0.41247 0.71645 -0.23800
H 	H 	0.95180 0.44160 0.70350 0.09600
H 	H 	0.98320 0.40770 0.72950 0.07100
C 	C 	0.93460 0.36747 0.69592 0.11900
H 	H 	0.88130 0.40370 0.66260 0.09900
H 	H 	0.83710 0.37990 0.77040 0.09600
C 	C 	0.82640 0.42773 0.71640 -0.23700
H 	H 	0.78820 0.43340 0.72940 0.07300
H 	H 	0.83290 0.45670 0.70330 0.09300
C 	C 	0.99100 0.35647 0.67598 0.06000
O 	O 	0.84940 0.69830 0.77110 -0.74700
N 	N 	0.87070 0.77090 0.74890 -0.04300
C 	C 	0.88750 0.72920 0.76090 -0.02400
H 	H 	0.93200 0.72190 0.76190 -0.04500
C 	C 	0.80340 0.78430 0.74610 -0.34300
H 	H 	0.77760 0.76390 0.75980 0.15500
H 	H 	0.79800 0.81850 0.75180 0.16900
H 	H 	0.78920 0.77950 0.72490 0.12100
C 	C 	0.91590 0.80520 0.73470 -0.32000
H 	H 	0.89870 0.81640 0.71500 0.13000
H 	H 	0.92210 0.83320 0.74830 0.13500
H 	H 	0.95710 0.78900 0.73130 0.10700
O 	O 	0.95340 0.62800 0.73270 -1.90400
C 	C 	0.94720 0.60170 0.71040 0.43300
H 	H 	0.91830 0.57620 0.71540 -0.11000
N 	N 	0.99340 0.59080 0.69100 -0.03200
C 	C 	0.98890 0.54610 0.67270 -0.10200
H 	H 	0.94920 0.52890 0.67780 0.00900
H 	H 	0.98880 0.55440 0.65080 0.06400
H 	H 	0.02570 0.52510 0.67720 0.05000
C 	C 	0.04860 0.62370 0.68820 0.17100
H 	H 	0.04330 0.65120 0.70220 -0.05400
H 	H 	0.08800 0.60610 0.69330 -0.01600
H 	H 	0.05130 0.63580 0.66700 0.07500
H 	H 	0.05500 0.61870 0.67730 -0.09000
Cl	Cl	0.86730 0.70870 0.77490 0.44400
Cl	Cl	0.94360 0.64490 0.72660 1.66500
N 	N 	0.96400 0.59660 0.68490 -0.19800
C 	C 	0.94080 0.56180 0.66160 -0.08100
C 	C 	0.01350 0.62210 0.66710 -0.18200
H 	H 	0.94720 0.52850 0.66900 0.05800
H 	H 	0.96480 0.56640 0.64250 -0.00100
H 	H 	0.89520 0.56730 0.65780 0.02300
H 	H 	0.01600 0.60800 0.64640 0.06400
H 	H 	0.00240 0.65660 0.66550 0.02400
Cd	Cd	0.93392 0.04306 0.34135 1.18500
Cd	Cd	0.87726 0.11947 0.27415 1.20300
Cl	Cl	0.97369 0.12235 0.31125 -0.64300
N 	N 	0.88320 0.00905 0.24669 -0.10300
N 	N 	0.89540 0.03718 0.27103 -0.16600
N 	N 	0.91320 0.00976 0.29414 -0.17700
N 	N 	0.91360 0.96344 0.28600 -0.10400
N 	N 	0.05220 0.85193 0.18511 -0.19400
N 	N 	0.08360 0.83459 0.16030 -0.17200
N 	N 	0.04310 0.83010 0.13782 -0.16800
N 	N 	0.98410 0.84376 0.14638 -0.10500
C 	C 	0.89490 0.96394 0.25658 0.05300
C 	C 	0.88540 0.91998 0.23686 0.13500
C 	C 	0.94480 0.91247 0.21645 -0.23800
H 	H 	0.95180 0.94160 0.20350 0.09600
H 	H 	0.98320 0.90770 0.22950 0.07100
C 	C 	0.93460 0.86747 0.19592 0.11900
H 	H 	0.88130 0.90370 0.16260 0.09900
H 	H 	0.83710 0.87990 0.27040 0.09600
C 	C 	0.82640 0.92773 0.21640 -0.23700
H 	H 	0.78820 0.93340 0.22940 0.07300
H 	H 	0.83290 0.95670 0.20330 0.09300
C 	C 	0.99100 0.85647 0.17598 0.06100
O 	O 	0.84940 0.19830 0.27110 -0.74700
N 	N 	0.87070 0.27090 0.24890 -0.04300
C 	C 	0.88750 0.22920 0.26090 -0.02400
H 	H 	0.93200 0.22190 0.26190 -0.04500
C 	C 	0.80340 0.28430 0.24610 -0.34300
H 	H 	0.77760 0.26390 0.25980 0.15500
H 	H 	0.79800 0.31850 0.25180 0.16900
H 	H 	0.78920 0.27950 0.22490 0.12100
C 	C 	0.91590 0.30520 0.23470 -0.32000
H 	H 	0.89870 0.31640 0.21500 0.13000
H 	H 	0.92210 0.33320 0.24830 0.13500
H 	H 	0.95710 0.28900 0.23130 0.10700
O 	O 	0.95340 0.12800 0.23270 -1.90400
C 	C 	0.94720 0.10170 0.21040 0.43300
H 	H 	0.91830 0.07620 0.21540 -0.11000
N 	N 	0.99340 0.09080 0.19100 -0.03200
C 	C 	0.98890 0.04610 0.17270 -0.10300
H 	H 	0.94920 0.02890 0.17780 0.00800
H 	H 	0.98880 0.05440 0.15080 0.06400
H 	H 	0.02570 0.02510 0.17720 0.05000
C 	C 	0.04860 0.12370 0.18820 0.17100
H 	H 	0.04330 0.15120 0.20220 -0.05300
H 	H 	0.08800 0.10610 0.19330 -0.01600
H 	H 	0.05130 0.13580 0.16700 0.07500
H 	H 	0.05500 0.11870 0.17730 -0.09000
Cl	Cl	0.86730 0.20870 0.27490 0.44400
Cl	Cl	0.94360 0.14490 0.22660 1.66500
N 	N 	0.96400 0.09660 0.18490 -0.19800
C 	C 	0.94080 0.06180 0.16160 -0.08000
C 	C 	0.01350 0.12210 0.16710 -0.18100
H 	H 	0.94720 0.02850 0.16900 0.05900
H 	H 	0.96480 0.06640 0.14250 -0.00100
H 	H 	0.89520 0.06730 0.15780 0.02200
H 	H 	0.01600 0.10800 0.14640 0.06400
H 	H 	0.00240 0.15660 0.16550 0.02400
Cd	Cd	0.43392 0.54306 0.34135 1.18500
Cd	Cd	0.37726 0.61947 0.27415 1.20300
Cl	Cl	0.47369 0.62235 0.31125 -0.64300
N 	N 	0.38320 0.50905 0.24669 -0.10300
N 	N 	0.39540 0.53718 0.27103 -0.16600
N 	N 	0.41320 0.50976 0.29414 -0.17700
N 	N 	0.41360 0.46344 0.28600 -0.10400
N 	N 	0.55220 0.35193 0.18511 -0.19400
N 	N 	0.58360 0.33459 0.16030 -0.17200
N 	N 	0.54310 0.33010 0.13782 -0.16800
N 	N 	0.48410 0.34376 0.14638 -0.10500
C 	C 	0.39490 0.46394 0.25658 0.05300
C 	C 	0.38540 0.41998 0.23686 0.13500
C 	C 	0.44480 0.41247 0.21645 -0.23800
H 	H 	0.45180 0.44160 0.20350 0.09600
H 	H 	0.48320 0.40770 0.22950 0.07100
C 	C 	0.43460 0.36747 0.19592 0.11900
H 	H 	0.38130 0.40370 0.16260 0.09900
H 	H 	0.33710 0.37990 0.27040 0.09600
C 	C 	0.32640 0.42773 0.21640 -0.23700
H 	H 	0.28820 0.43340 0.22940 0.07300
H 	H 	0.33290 0.45670 0.20330 0.09300
C 	C 	0.49100 0.35647 0.17598 0.06100
O 	O 	0.34940 0.69830 0.27110 -0.74700
N 	N 	0.37070 0.77090 0.24890 -0.04300
C 	C 	0.38750 0.72920 0.26090 -0.02400
H 	H 	0.43200 0.72190 0.26190 -0.04500
C 	C 	0.30340 0.78430 0.24610 -0.34300
H 	H 	0.27760 0.76390 0.25980 0.15500
H 	H 	0.29800 0.81850 0.25180 0.16900
H 	H 	0.28920 0.77950 0.22490 0.12100
C 	C 	0.41590 0.80520 0.23470 -0.32000
H 	H 	0.39870 0.81640 0.21500 0.13000
H 	H 	0.42210 0.83320 0.24830 0.13500
H 	H 	0.45710 0.78900 0.23130 0.10700
O 	O 	0.45340 0.62800 0.23270 -1.90400
C 	C 	0.44720 0.60170 0.21040 0.43300
H 	H 	0.41830 0.57620 0.21540 -0.11000
N 	N 	0.49340 0.59080 0.19100 -0.03200
C 	C 	0.48890 0.54610 0.17270 -0.10200
H 	H 	0.44920 0.52890 0.17780 0.00900
H 	H 	0.48880 0.55440 0.15080 0.06400
H 	H 	0.52570 0.52510 0.17720 0.05000
C 	C 	0.54860 0.62370 0.18820 0.17100
H 	H 	0.54330 0.65120 0.20220 -0.05300
H 	H 	0.58800 0.60610 0.19330 -0.01600
H 	H 	0.55130 0.63580 0.16700 0.07500
H 	H 	0.55500 0.61870 0.17730 -0.09000
Cl	Cl	0.36730 0.70870 0.27490 0.44400
Cl	Cl	0.44360 0.64490 0.22660 1.66500
N 	N 	0.46400 0.59660 0.18490 -0.19800
C 	C 	0.44080 0.56180 0.16160 -0.08100
C 	C 	0.51350 0.62210 0.16710 -0.18100
H 	H 	0.44720 0.52850 0.16900 0.05800
H 	H 	0.46480 0.56640 0.14250 -0.00000
H 	H 	0.39520 0.56730 0.15780 0.02300
H 	H 	0.51600 0.60800 0.14640 0.06400
H 	H 	0.50240 0.65660 0.16550 0.02400
Cd	Cd	0.43392 0.04306 0.84135 1.18500
Cd	Cd	0.37726 0.11947 0.77415 1.20300
Cl	Cl	0.47369 0.12235 0.81125 -0.64300
N 	N 	0.38320 0.00905 0.74669 -0.10300
N 	N 	0.39540 0.03718 0.77103 -0.16600
N 	N 	0.41320 0.00976 0.79414 -0.17700
N 	N 	0.41360 0.96344 0.78600 -0.10400
N 	N 	0.55220 0.85193 0.68511 -0.19400
N 	N 	0.58360 0.83459 0.66030 -0.17200
N 	N 	0.54310 0.83010 0.63782 -0.16800
N 	N 	0.48410 0.84376 0.64638 -0.10500
C 	C 	0.39490 0.96394 0.75658 0.05300
C 	C 	0.38540 0.91998 0.73686 0.13500
C 	C 	0.44480 0.91247 0.71645 -0.23800
H 	H 	0.45180 0.94160 0.70350 0.09600
H 	H 	0.48320 0.90770 0.72950 0.07100
C 	C 	0.43460 0.86747 0.69592 0.11900
H 	H 	0.38130 0.90370 0.66260 0.09900
H 	H 	0.33710 0.87990 0.77040 0.09600
C 	C 	0.32640 0.92773 0.71640 -0.23700
H 	H 	0.28820 0.93340 0.72940 0.07300
H 	H 	0.33290 0.95670 0.70330 0.09300
C 	C 	0.49100 0.85647 0.67598 0.06100
O 	O 	0.34940 0.19830 0.77110 -0.74700
N 	N 	0.37070 0.27090 0.74890 -0.04300
C 	C 	0.38750 0.22920 0.76090 -0.02400
H 	H 	0.43200 0.22190 0.76190 -0.04500
C 	C 	0.30340 0.28430 0.74610 -0.34300
H 	H 	0.27760 0.26390 0.75980 0.15500
H 	H 	0.29800 0.31850 0.75180 0.16900
H 	H 	0.28920 0.27950 0.72490 0.12100
C 	C 	0.41590 0.30520 0.73470 -0.32000
H 	H 	0.39870 0.31640 0.71500 0.13000
H 	H 	0.42210 0.33320 0.74830 0.13500
H 	H 	0.45710 0.28900 0.73130 0.10700
O 	O 	0.45340 0.12800 0.73270 -1.90400
C 	C 	0.44720 0.10170 0.71040 0.43300
H 	H 	0.41830 0.07620 0.71540 -0.11000
N 	N 	0.49340 0.09080 0.69100 -0.03200
C 	C 	0.48890 0.04610 0.67270 -0.10200
H 	H 	0.44920 0.02890 0.67780 0.00900
H 	H 	0.48880 0.05440 0.65080 0.06400
H 	H 	0.52570 0.02510 0.67720 0.05000
C 	C 	0.54860 0.12370 0.68820 0.17100
H 	H 	0.54330 0.15120 0.70220 -0.05300
H 	H 	0.58800 0.10610 0.69330 -0.01600
H 	H 	0.55130 0.13580 0.66700 0.07500
H 	H 	0.55500 0.11870 0.67730 -0.09000
Cl	Cl	0.36730 0.20870 0.77490 0.44400
Cl	Cl	0.44360 0.14490 0.72660 1.66500
N 	N 	0.46400 0.09660 0.68490 -0.19800
C 	C 	0.44080 0.06180 0.66160 -0.08100
C 	C 	0.51350 0.12210 0.66710 -0.18100
H 	H 	0.44720 0.02850 0.66900 0.05800
H 	H 	0.46480 0.06640 0.64250 -0.00000
H 	H 	0.39520 0.06730 0.65780 0.02300
H 	H 	0.51600 0.10800 0.64640 0.06400
H 	H 	0.50240 0.15660 0.66550 0.02400
Cd	Cd	0.93392 0.70694 0.40865 1.18500
Cd	Cd	0.87726 0.63053 0.47585 1.20300
Cl	Cl	0.97369 0.62765 0.43875 -0.64300
N 	N 	0.88320 0.74095 0.50331 -0.10300
N 	N 	0.89540 0.71282 0.47897 -0.16600
N 	N 	0.91320 0.74024 0.45586 -0.17700
N 	N 	0.91360 0.78656 0.46400 -0.10400
N 	N 	0.05220 0.89807 0.56489 -0.19400
N 	N 	0.08360 0.91541 0.58970 -0.17200
N 	N 	0.04310 0.91990 0.61218 -0.16800
N 	N 	0.98410 0.90624 0.60362 -0.10500
C 	C 	0.89490 0.78606 0.49342 0.05300
C 	C 	0.88540 0.83002 0.51314 0.13500
C 	C 	0.94480 0.83753 0.53355 -0.23800
H 	H 	0.95180 0.80840 0.54650 0.09600
H 	H 	0.98320 0.84230 0.52050 0.07100
C 	C 	0.93460 0.88253 0.55408 0.11900
H 	H 	0.88130 0.84630 0.58740 0.09900
H 	H 	0.83710 0.87010 0.47960 0.09600
C 	C 	0.82640 0.82227 0.53360 -0.23700
H 	H 	0.78820 0.81660 0.52060 0.07300
H 	H 	0.83290 0.79330 0.54670 0.09300
C 	C 	0.99100 0.89353 0.57402 0.06100
O 	O 	0.84940 0.55170 0.47890 -0.74700
N 	N 	0.87070 0.47910 0.50110 -0.04300
C 	C 	0.88750 0.52080 0.48910 -0.02400
H 	H 	0.93200 0.52810 0.48810 -0.04500
C 	C 	0.80340 0.46570 0.50390 -0.34300
H 	H 	0.77760 0.48610 0.49020 0.15500
H 	H 	0.79800 0.43150 0.49820 0.16900
H 	H 	0.78920 0.47050 0.52510 0.12100
C 	C 	0.91590 0.44480 0.51530 -0.32000
H 	H 	0.89870 0.43360 0.53500 0.13000
H 	H 	0.92210 0.41680 0.50170 0.13500
H 	H 	0.95710 0.46100 0.51870 0.10700
O 	O 	0.95340 0.62200 0.51730 -1.90400
C 	C 	0.94720 0.64830 0.53960 0.43300
H 	H 	0.91830 0.67380 0.53460 -0.11000
N 	N 	0.99340 0.65920 0.55900 -0.03200
C 	C 	0.98890 0.70390 0.57730 -0.10100
H 	H 	0.94920 0.72110 0.57220 0.00900
H 	H 	0.98880 0.69560 0.59920 0.06400
H 	H 	0.02570 0.72490 0.57280 0.05000
C 	C 	0.04860 0.62630 0.56180 0.17100
H 	H 	0.04330 0.59880 0.54780 -0.05400
H 	H 	0.08800 0.64390 0.55670 -0.01600
H 	H 	0.05130 0.61420 0.58300 0.07500
H 	H 	0.05500 0.63130 0.57270 -0.09000
Cl	Cl	0.86730 0.54130 0.47510 0.44400
Cl	Cl	0.94360 0.60510 0.52340 1.66500
N 	N 	0.96400 0.65340 0.56510 -0.19800
C 	C 	0.94080 0.68820 0.58840 -0.08100
C 	C 	0.01350 0.62790 0.58290 -0.18200
H 	H 	0.94720 0.72150 0.58100 0.05800
H 	H 	0.96480 0.68360 0.60750 -0.00000
H 	H 	0.89520 0.68270 0.59220 0.02300
H 	H 	0.01600 0.64200 0.60360 0.06400
H 	H 	0.00240 0.59340 0.58450 0.02400
Cd	Cd	0.93392 0.20694 0.90865 1.18500
Cd	Cd	0.87726 0.13053 0.97585 1.20300
Cl	Cl	0.97369 0.12765 0.93875 -0.64400
N 	N 	0.88320 0.24095 0.00331 -0.10300
N 	N 	0.89540 0.21282 0.97897 -0.16600
N 	N 	0.91320 0.24024 0.95586 -0.17700
N 	N 	0.91360 0.28656 0.96400 -0.10400
N 	N 	0.05220 0.39807 0.06489 -0.19400
N 	N 	0.08360 0.41541 0.08970 -0.17200
N 	N 	0.04310 0.41990 0.11218 -0.16800
N 	N 	0.98410 0.40624 0.10362 -0.10500
C 	C 	0.89490 0.28606 0.99342 0.05300
C 	C 	0.88540 0.33002 0.01314 0.13500
C 	C 	0.94480 0.33753 0.03355 -0.23800
H 	H 	0.95180 0.30840 0.04650 0.09600
H 	H 	0.98320 0.34230 0.02050 0.07100
C 	C 	0.93460 0.38253 0.05408 0.11900
H 	H 	0.88130 0.34630 0.08740 0.09900
H 	H 	0.83710 0.37010 0.97960 0.09600
C 	C 	0.82640 0.32227 0.03360 -0.23700
H 	H 	0.78820 0.31660 0.02060 0.07300
H 	H 	0.83290 0.29330 0.04670 0.09300
C 	C 	0.99100 0.39353 0.07402 0.06000
O 	O 	0.84940 0.05170 0.97890 -0.74700
N 	N 	0.87070 0.97910 0.00110 -0.04300
C 	C 	0.88750 0.02080 0.98910 -0.02500
H 	H 	0.93200 0.02810 0.98810 -0.04500
C 	C 	0.80340 0.96570 0.00390 -0.34300
H 	H 	0.77760 0.98610 0.99020 0.15500
H 	H 	0.79800 0.93150 0.99820 0.16900
H 	H 	0.78920 0.97050 0.02510 0.12100
C 	C 	0.91590 0.94480 0.01530 -0.32000
H 	H 	0.89870 0.93360 0.03500 0.13000
H 	H 	0.92210 0.91680 0.00170 0.13500
H 	H 	0.95710 0.96100 0.01870 0.10700
O 	O 	0.95340 0.12200 0.01730 -1.90400
C 	C 	0.94720 0.14830 0.03960 0.43300
H 	H 	0.91830 0.17380 0.03460 -0.11000
N 	N 	0.99340 0.15920 0.05900 -0.03200
C 	C 	0.98890 0.20390 0.07730 -0.10200
H 	H 	0.94920 0.22110 0.07220 0.00900
H 	H 	0.98880 0.19560 0.09920 0.06400
H 	H 	0.02570 0.22490 0.07280 0.05000
C 	C 	0.04860 0.12630 0.06180 0.17100
H 	H 	0.04330 0.09880 0.04780 -0.05300
H 	H 	0.08800 0.14390 0.05670 -0.01600
H 	H 	0.05130 0.11420 0.08300 0.07500
H 	H 	0.05500 0.13130 0.07270 -0.09000
Cl	Cl	0.86730 0.04130 0.97510 0.44400
Cl	Cl	0.94360 0.10510 0.02340 1.66500
N 	N 	0.96400 0.15340 0.06510 -0.19800
C 	C 	0.94080 0.18820 0.08840 -0.08100
C 	C 	0.01350 0.12790 0.08290 -0.18100
H 	H 	0.94720 0.22150 0.08100 0.05900
H 	H 	0.96480 0.18360 0.10750 -0.00100
H 	H 	0.89520 0.18270 0.09220 0.02200
H 	H 	0.01600 0.14200 0.10360 0.06400
H 	H 	0.00240 0.09340 0.08450 0.02400
Cd	Cd	0.43392 0.70694 0.90865 1.18500
Cd	Cd	0.37726 0.63053 0.97585 1.20300
Cl	Cl	0.47369 0.62765 0.93875 -0.64300
N 	N 	0.38320 0.74095 0.00331 -0.10300
N 	N 	0.39540 0.71282 0.97897 -0.16600
N 	N 	0.41320 0.74024 0.95586 -0.17700
N 	N 	0.41360 0.78656 0.96400 -0.10400
N 	N 	0.55220 0.89807 0.06489 -0.19400
N 	N 	0.58360 0.91541 0.08970 -0.17200
N 	N 	0.54310 0.91990 0.11218 -0.16800
N 	N 	0.48410 0.90624 0.10362 -0.10500
C 	C 	0.39490 0.78606 0.99342 0.05300
C 	C 	0.38540 0.83002 0.01314 0.13500
C 	C 	0.44480 0.83753 0.03355 -0.23800
H 	H 	0.45180 0.80840 0.04650 0.09600
H 	H 	0.48320 0.84230 0.02050 0.07100
C 	C 	0.43460 0.88253 0.05408 0.11900
H 	H 	0.38130 0.84630 0.08740 0.09900
H 	H 	0.33710 0.87010 0.97960 0.09600
C 	C 	0.32640 0.82227 0.03360 -0.23700
H 	H 	0.28820 0.81660 0.02060 0.07300
H 	H 	0.33290 0.79330 0.04670 0.09300
C 	C 	0.49100 0.89353 0.07402 0.06100
O 	O 	0.34940 0.55170 0.97890 -0.74700
N 	N 	0.37070 0.47910 0.00110 -0.04300
C 	C 	0.38750 0.52080 0.98910 -0.02400
H 	H 	0.43200 0.52810 0.98810 -0.04500
C 	C 	0.30340 0.46570 0.00390 -0.34300
H 	H 	0.27760 0.48610 0.99020 0.15500
H 	H 	0.29800 0.43150 0.99820 0.16900
H 	H 	0.28920 0.47050 0.02510 0.12100
C 	C 	0.41590 0.44480 0.01530 -0.32000
H 	H 	0.39870 0.43360 0.03500 0.13000
H 	H 	0.42210 0.41680 0.00170 0.13500
H 	H 	0.45710 0.46100 0.01870 0.10700
O 	O 	0.45340 0.62200 0.01730 -1.90400
C 	C 	0.44720 0.64830 0.03960 0.43300
H 	H 	0.41830 0.67380 0.03460 -0.11000
N 	N 	0.49340 0.65920 0.05900 -0.03200
C 	C 	0.48890 0.70390 0.07730 -0.10200
H 	H 	0.44920 0.72110 0.07220 0.00900
H 	H 	0.48880 0.69560 0.09920 0.06400
H 	H 	0.52570 0.72490 0.07280 0.05000
C 	C 	0.54860 0.62630 0.06180 0.17100
H 	H 	0.54330 0.59880 0.04780 -0.05300
H 	H 	0.58800 0.64390 0.05670 -0.01600
H 	H 	0.55130 0.61420 0.08300 0.07500
H 	H 	0.55500 0.63130 0.07270 -0.09000
Cl	Cl	0.36730 0.54130 0.97510 0.44400
Cl	Cl	0.44360 0.60510 0.02340 1.66500
N 	N 	0.46400 0.65340 0.06510 -0.19800
C 	C 	0.44080 0.68820 0.08840 -0.08100
C 	C 	0.51350 0.62790 0.08290 -0.18100
H 	H 	0.44720 0.72150 0.08100 0.05800
H 	H 	0.46480 0.68360 0.10750 -0.00000
H 	H 	0.39520 0.68270 0.09220 0.02300
H 	H 	0.51600 0.64200 0.10360 0.06400
H 	H 	0.50240 0.59340 0.08450 0.02400
Cd	Cd	0.43392 0.20694 0.40865 1.18500
Cd	Cd	0.37726 0.13053 0.47585 1.20300
Cl	Cl	0.47369 0.12765 0.43875 -0.64300
N 	N 	0.38320 0.24095 0.50331 -0.10300
N 	N 	0.39540 0.21282 0.47897 -0.16600
N 	N 	0.41320 0.24024 0.45586 -0.17700
N 	N 	0.41360 0.28656 0.46400 -0.10400
N 	N 	0.55220 0.39807 0.56489 -0.19400
N 	N 	0.58360 0.41541 0.58970 -0.17200
N 	N 	0.54310 0.41990 0.61218 -0.16800
N 	N 	0.48410 0.40624 0.60362 -0.10500
C 	C 	0.39490 0.28606 0.49342 0.05300
C 	C 	0.38540 0.33002 0.51314 0.13500
C 	C 	0.44480 0.33753 0.53355 -0.23800
H 	H 	0.45180 0.30840 0.54650 0.09600
H 	H 	0.48320 0.34230 0.52050 0.07100
C 	C 	0.43460 0.38253 0.55408 0.11900
H 	H 	0.38130 0.34630 0.58740 0.09900
H 	H 	0.33710 0.37010 0.47960 0.09600
C 	C 	0.32640 0.32227 0.53360 -0.23700
H 	H 	0.28820 0.31660 0.52060 0.07300
H 	H 	0.33290 0.29330 0.54670 0.09300
C 	C 	0.49100 0.39353 0.57402 0.06100
O 	O 	0.34940 0.05170 0.47890 -0.74700
N 	N 	0.37070 0.97910 0.50110 -0.04300
C 	C 	0.38750 0.02080 0.48910 -0.02400
H 	H 	0.43200 0.02810 0.48810 -0.04500
C 	C 	0.30340 0.96570 0.50390 -0.34300
H 	H 	0.27760 0.98610 0.49020 0.15500
H 	H 	0.29800 0.93150 0.49820 0.16900
H 	H 	0.28920 0.97050 0.52510 0.12100
C 	C 	0.41590 0.94480 0.51530 -0.32000
H 	H 	0.39870 0.93360 0.53500 0.13000
H 	H 	0.42210 0.91680 0.50170 0.13500
H 	H 	0.45710 0.96100 0.51870 0.10700
O 	O 	0.45340 0.12200 0.51730 -1.90400
C 	C 	0.44720 0.14830 0.53960 0.43300
H 	H 	0.41830 0.17380 0.53460 -0.11000
N 	N 	0.49340 0.15920 0.55900 -0.03200
C 	C 	0.48890 0.20390 0.57730 -0.10200
H 	H 	0.44920 0.22110 0.57220 0.00900
H 	H 	0.48880 0.19560 0.59920 0.06400
H 	H 	0.52570 0.22490 0.57280 0.05000
C 	C 	0.54860 0.12630 0.56180 0.17100
H 	H 	0.54330 0.09880 0.54780 -0.05300
H 	H 	0.58800 0.14390 0.55670 -0.01600
H 	H 	0.55130 0.11420 0.58300 0.07500
H 	H 	0.55500 0.13130 0.57270 -0.09000
Cl	Cl	0.36730 0.04130 0.47510 0.44400
Cl	Cl	0.44360 0.10510 0.52340 1.66500
N 	N 	0.46400 0.15340 0.56510 -0.19800
C 	C 	0.44080 0.18820 0.58840 -0.08100
C 	C 	0.51350 0.12790 0.58290 -0.18100
H 	H 	0.44720 0.22150 0.58100 0.05800
H 	H 	0.46480 0.18360 0.60750 -0.00000
H 	H 	0.39520 0.18270 0.59220 0.02300
H 	H 	0.51600 0.14200 0.60360 0.06400
H 	H 	0.50240 0.09340 0.58450 0.02400
Cd	Cd	0.31608 0.54306 0.40865 1.18500
Cd	Cd	0.37274 0.61947 0.47585 1.20300
Cl	Cl	0.27631 0.62235 0.43875 -0.64300
N 	N 	0.36680 0.50905 0.50331 -0.10300
N 	N 	0.35460 0.53718 0.47897 -0.16600
N 	N 	0.33680 0.50976 0.45586 -0.17700
N 	N 	0.33640 0.46344 0.46400 -0.10400
N 	N 	0.19780 0.35193 0.56489 -0.19400
N 	N 	0.16640 0.33459 0.58970 -0.17200
N 	N 	0.20690 0.33010 0.61218 -0.16800
N 	N 	0.26590 0.34376 0.60362 -0.10500
C 	C 	0.35510 0.46394 0.49342 0.05300
C 	C 	0.36460 0.41998 0.51314 0.13500
C 	C 	0.30520 0.41247 0.53355 -0.23800
H 	H 	0.29820 0.44160 0.54650 0.09600
H 	H 	0.26680 0.40770 0.52050 0.07100
C 	C 	0.31540 0.36747 0.55408 0.11900
H 	H 	0.36870 0.40370 0.58740 0.09900
H 	H 	0.41290 0.37990 0.47960 0.09600
C 	C 	0.42360 0.42773 0.53360 -0.23700
H 	H 	0.46180 0.43340 0.52060 0.07300
H 	H 	0.41710 0.45670 0.54670 0.09300
C 	C 	0.25900 0.35647 0.57402 0.06100
O 	O 	0.40060 0.69830 0.47890 -0.74700
N 	N 	0.37930 0.77090 0.50110 -0.04300
C 	C 	0.36250 0.72920 0.48910 -0.02400
H 	H 	0.31800 0.72190 0.48810 -0.04500
C 	C 	0.44660 0.78430 0.50390 -0.34300
H 	H 	0.47240 0.76390 0.49020 0.15500
H 	H 	0.45200 0.81850 0.49820 0.16900
H 	H 	0.46080 0.77950 0.52510 0.12100
C 	C 	0.33410 0.80520 0.51530 -0.32000
H 	H 	0.35130 0.81640 0.53500 0.13000
H 	H 	0.32790 0.83320 0.50170 0.13500
H 	H 	0.29290 0.78900 0.51870 0.10700
O 	O 	0.29660 0.62800 0.51730 -1.90400
C 	C 	0.30280 0.60170 0.53960 0.43300
H 	H 	0.33170 0.57620 0.53460 -0.11000
N 	N 	0.25660 0.59080 0.55900 -0.03200
C 	C 	0.26110 0.54610 0.57730 -0.10200
H 	H 	0.30080 0.52890 0.57220 0.00900
H 	H 	0.26120 0.55440 0.59920 0.06400
H 	H 	0.22430 0.52510 0.57280 0.05000
C 	C 	0.20140 0.62370 0.56180 0.17100
H 	H 	0.20670 0.65120 0.54780 -0.05300
H 	H 	0.16200 0.60610 0.55670 -0.01600
H 	H 	0.19870 0.63580 0.58300 0.07500
H 	H 	0.19500 0.61870 0.57270 -0.09000
Cl	Cl	0.38270 0.70870 0.47510 0.44400
Cl	Cl	0.30640 0.64490 0.52340 1.66500
N 	N 	0.28600 0.59660 0.56510 -0.19800
C 	C 	0.30920 0.56180 0.58840 -0.08100
C 	C 	0.23650 0.62210 0.58290 -0.18100
H 	H 	0.30280 0.52850 0.58100 0.05800
H 	H 	0.28520 0.56640 0.60750 -0.00000
H 	H 	0.35480 0.56730 0.59220 0.02300
H 	H 	0.23400 0.60800 0.60360 0.06400
H 	H 	0.24760 0.65660 0.58450 0.02400
Cd	Cd	0.31608 0.04306 0.90865 1.18500
Cd	Cd	0.37274 0.11947 0.97585 1.20300
Cl	Cl	0.27631 0.12235 0.93875 -0.64300
N 	N 	0.36680 0.00905 0.00331 -0.10300
N 	N 	0.35460 0.03718 0.97897 -0.16600
N 	N 	0.33680 0.00976 0.95586 -0.17700
N 	N 	0.33640 0.96344 0.96400 -0.10400
N 	N 	0.19780 0.85193 0.06489 -0.19400
N 	N 	0.16640 0.83459 0.08970 -0.17200
N 	N 	0.20690 0.83010 0.11218 -0.16800
N 	N 	0.26590 0.84376 0.10362 -0.10500
C 	C 	0.35510 0.96394 0.99342 0.05300
C 	C 	0.36460 0.91998 0.01314 0.13500
C 	C 	0.30520 0.91247 0.03355 -0.23800
H 	H 	0.29820 0.94160 0.04650 0.09600
H 	H 	0.26680 0.90770 0.02050 0.07100
C 	C 	0.31540 0.86747 0.05408 0.11900
H 	H 	0.36870 0.90370 0.08740 0.09900
H 	H 	0.41290 0.87990 0.97960 0.09600
C 	C 	0.42360 0.92773 0.03360 -0.23700
H 	H 	0.46180 0.93340 0.02060 0.07300
H 	H 	0.41710 0.95670 0.04670 0.09300
C 	C 	0.25900 0.85647 0.07402 0.06100
O 	O 	0.40060 0.19830 0.97890 -0.74700
N 	N 	0.37930 0.27090 0.00110 -0.04300
C 	C 	0.36250 0.22920 0.98910 -0.02400
H 	H 	0.31800 0.22190 0.98810 -0.04500
C 	C 	0.44660 0.28430 0.00390 -0.34300
H 	H 	0.47240 0.26390 0.99020 0.15500
H 	H 	0.45200 0.31850 0.99820 0.16900
H 	H 	0.46080 0.27950 0.02510 0.12100
C 	C 	0.33410 0.30520 0.01530 -0.32000
H 	H 	0.35130 0.31640 0.03500 0.13000
H 	H 	0.32790 0.33320 0.00170 0.13500
H 	H 	0.29290 0.28900 0.01870 0.10700
O 	O 	0.29660 0.12800 0.01730 -1.90400
C 	C 	0.30280 0.10170 0.03960 0.43300
H 	H 	0.33170 0.07620 0.03460 -0.11000
N 	N 	0.25660 0.09080 0.05900 -0.03200
C 	C 	0.26110 0.04610 0.07730 -0.10200
H 	H 	0.30080 0.02890 0.07220 0.00900
H 	H 	0.26120 0.05440 0.09920 0.06400
H 	H 	0.22430 0.02510 0.07280 0.05000
C 	C 	0.20140 0.12370 0.06180 0.17100
H 	H 	0.20670 0.15120 0.04780 -0.05300
H 	H 	0.16200 0.10610 0.05670 -0.01600
H 	H 	0.19870 0.13580 0.08300 0.07500
H 	H 	0.19500 0.11870 0.07270 -0.09000
Cl	Cl	0.38270 0.20870 0.97510 0.44400
Cl	Cl	0.30640 0.14490 0.02340 1.66500
N 	N 	0.28600 0.09660 0.06510 -0.19800
C 	C 	0.30920 0.06180 0.08840 -0.08100
C 	C 	0.23650 0.12210 0.08290 -0.18100
H 	H 	0.30280 0.02850 0.08100 0.05800
H 	H 	0.28520 0.06640 0.10750 -0.00000
H 	H 	0.35480 0.06730 0.09220 0.02300
H 	H 	0.23400 0.10800 0.10360 0.06400
H 	H 	0.24760 0.15660 0.08450 0.02400
Cd	Cd	0.81608 0.54306 0.90865 1.18500
Cd	Cd	0.87274 0.61947 0.97585 1.20300
Cl	Cl	0.77631 0.62235 0.93875 -0.64300
N 	N 	0.86680 0.50905 0.00331 -0.10300
N 	N 	0.85460 0.53718 0.97897 -0.16600
N 	N 	0.83680 0.50976 0.95586 -0.17700
N 	N 	0.83640 0.46344 0.96400 -0.10400
N 	N 	0.69780 0.35193 0.06489 -0.19400
N 	N 	0.66640 0.33459 0.08970 -0.17200
N 	N 	0.70690 0.33010 0.11218 -0.16800
N 	N 	0.76590 0.34376 0.10362 -0.10500
C 	C 	0.85510 0.46394 0.99342 0.05300
C 	C 	0.86460 0.41998 0.01314 0.13500
C 	C 	0.80520 0.41247 0.03355 -0.23800
H 	H 	0.79820 0.44160 0.04650 0.09600
H 	H 	0.76680 0.40770 0.02050 0.07200
C 	C 	0.81540 0.36747 0.05408 0.11900
H 	H 	0.86870 0.40370 0.08740 0.09900
H 	H 	0.91290 0.37990 0.97960 0.09600
C 	C 	0.92360 0.42773 0.03360 -0.23700
H 	H 	0.96180 0.43340 0.02060 0.07300
H 	H 	0.91710 0.45670 0.04670 0.09300
C 	C 	0.75900 0.35647 0.07402 0.06100
O 	O 	0.90060 0.69830 0.97890 -0.74700
N 	N 	0.87930 0.77090 0.00110 -0.04300
C 	C 	0.86250 0.72920 0.98910 -0.02400
H 	H 	0.81800 0.72190 0.98810 -0.04500
C 	C 	0.94660 0.78430 0.00390 -0.34200
H 	H 	0.97240 0.76390 0.99020 0.15500
H 	H 	0.95200 0.81850 0.99820 0.16900
H 	H 	0.96080 0.77950 0.02510 0.12100
C 	C 	0.83410 0.80520 0.01530 -0.32000
H 	H 	0.85130 0.81640 0.03500 0.13000
H 	H 	0.82790 0.83320 0.00170 0.13500
H 	H 	0.79290 0.78900 0.01870 0.10700
O 	O 	0.79660 0.62800 0.01730 -1.90400
C 	C 	0.80280 0.60170 0.03960 0.43300
H 	H 	0.83170 0.57620 0.03460 -0.11000
N 	N 	0.75660 0.59080 0.05900 -0.03200
C 	C 	0.76110 0.54610 0.07730 -0.10200
H 	H 	0.80080 0.52890 0.07220 0.00900
H 	H 	0.76120 0.55440 0.09920 0.06400
H 	H 	0.72430 0.52510 0.07280 0.05000
C 	C 	0.70140 0.62370 0.06180 0.17100
H 	H 	0.70670 0.65120 0.04780 -0.05300
H 	H 	0.66200 0.60610 0.05670 -0.01600
H 	H 	0.69870 0.63580 0.08300 0.07500
H 	H 	0.69500 0.61870 0.07270 -0.09000
Cl	Cl	0.88270 0.70870 0.97510 0.44400
Cl	Cl	0.80640 0.64490 0.02340 1.66500
N 	N 	0.78600 0.59660 0.06510 -0.19800
C 	C 	0.80920 0.56180 0.08840 -0.08100
C 	C 	0.73650 0.62210 0.08290 -0.18100
H 	H 	0.80280 0.52850 0.08100 0.05800
H 	H 	0.78520 0.56640 0.10750 -0.00000
H 	H 	0.85480 0.56730 0.09220 0.02300
H 	H 	0.73400 0.60800 0.10360 0.06400
H 	H 	0.74760 0.65660 0.08450 0.02400
Cd	Cd	0.81608 0.04306 0.40865 1.18500
Cd	Cd	0.87274 0.11947 0.47585 1.20300
Cl	Cl	0.77631 0.12235 0.43875 -0.64300
N 	N 	0.86680 0.00905 0.50331 -0.10300
N 	N 	0.85460 0.03718 0.47897 -0.16600
N 	N 	0.83680 0.00976 0.45586 -0.17700
N 	N 	0.83640 0.96344 0.46400 -0.10400
N 	N 	0.69780 0.85193 0.56489 -0.19400
N 	N 	0.66640 0.83459 0.58970 -0.17200
N 	N 	0.70690 0.83010 0.61218 -0.16800
N 	N 	0.76590 0.84376 0.60362 -0.10500
C 	C 	0.85510 0.96394 0.49342 0.05300
C 	C 	0.86460 0.91998 0.51314 0.13500
C 	C 	0.80520 0.91247 0.53355 -0.23800
H 	H 	0.79820 0.94160 0.54650 0.09600
H 	H 	0.76680 0.90770 0.52050 0.07100
C 	C 	0.81540 0.86747 0.55408 0.11900
H 	H 	0.86870 0.90370 0.58740 0.09900
H 	H 	0.91290 0.87990 0.47960 0.09600
C 	C 	0.92360 0.92773 0.53360 -0.23700
H 	H 	0.96180 0.93340 0.52060 0.07300
H 	H 	0.91710 0.95670 0.54670 0.09300
C 	C 	0.75900 0.85647 0.57402 0.06100
O 	O 	0.90060 0.19830 0.47890 -0.74700
N 	N 	0.87930 0.27090 0.50110 -0.04300
C 	C 	0.86250 0.22920 0.48910 -0.02400
H 	H 	0.81800 0.22190 0.48810 -0.04500
C 	C 	0.94660 0.28430 0.50390 -0.34200
H 	H 	0.97240 0.26390 0.49020 0.15500
H 	H 	0.95200 0.31850 0.49820 0.16900
H 	H 	0.96080 0.27950 0.52510 0.12100
C 	C 	0.83410 0.30520 0.51530 -0.32000
H 	H 	0.85130 0.31640 0.53500 0.13000
H 	H 	0.82790 0.33320 0.50170 0.13500
H 	H 	0.79290 0.28900 0.51870 0.10700
O 	O 	0.79660 0.12800 0.51730 -1.90400
C 	C 	0.80280 0.10170 0.53960 0.43300
H 	H 	0.83170 0.07620 0.53460 -0.11000
N 	N 	0.75660 0.09080 0.55900 -0.03200
C 	C 	0.76110 0.04610 0.57730 -0.10200
H 	H 	0.80080 0.02890 0.57220 0.00900
H 	H 	0.76120 0.05440 0.59920 0.06400
H 	H 	0.72430 0.02510 0.57280 0.05000
C 	C 	0.70140 0.12370 0.56180 0.17100
H 	H 	0.70670 0.15120 0.54780 -0.05300
H 	H 	0.66200 0.10610 0.55670 -0.01600
H 	H 	0.69870 0.13580 0.58300 0.07500
H 	H 	0.69500 0.11870 0.57270 -0.09000
Cl	Cl	0.88270 0.20870 0.47510 0.44400
Cl	Cl	0.80640 0.14490 0.52340 1.66500
N 	N 	0.78600 0.09660 0.56510 -0.19800
C 	C 	0.80920 0.06180 0.58840 -0.08100
C 	C 	0.73650 0.12210 0.58290 -0.18100
H 	H 	0.80280 0.02850 0.58100 0.05800
H 	H 	0.78520 0.06640 0.60750 -0.00100
H 	H 	0.85480 0.06730 0.59220 0.02200
H 	H 	0.73400 0.10800 0.60360 0.06400
H 	H 	0.74760 0.15660 0.58450 0.02400
Cl	Cl	0.62500 0.22842 0.12500 -0.67500
Cl	Cl	0.62500 0.72842 0.62500 -0.67500
Cl	Cl	0.12500 0.52158 0.12500 -0.67600
Cl	Cl	0.12500 0.02158 0.62500 -0.67500
Cl	Cl	0.62500 0.52158 0.62500 -0.67500
Cl	Cl	0.12500 0.22842 0.62500 -0.67600
Cl	Cl	0.12500 0.72842 0.12500 -0.67600
Cl	Cl	0.62500 0.02158 0.12500 -0.67600
Cl	Cl	0.37500 0.77158 0.87500 -0.67500
Cl	Cl	0.37500 0.27158 0.37500 -0.67500
Cl	Cl	0.87500 0.47842 0.87500 -0.67600
Cl	Cl	0.87500 0.97842 0.37500 -0.67500
Cl	Cl	0.87500 0.77158 0.37500 -0.67600
Cl	Cl	0.87500 0.27158 0.87500 -0.67600
Cl	Cl	0.37500 0.47842 0.37500 -0.67500
Cl	Cl	0.37500 0.97842 0.87500 -0.67600
C 	C 	0.62500 0.12500 0.32408 -0.23900
C 	C 	0.62500 0.12500 0.24288 -0.25300
C 	C 	0.62500 0.62500 0.82408 -0.23900
C 	C 	0.62500 0.62500 0.74288 -0.25300
C 	C 	0.12500 0.62500 0.32408 -0.23900
C 	C 	0.12500 0.62500 0.24288 -0.25300
C 	C 	0.12500 0.12500 0.82408 -0.23900
C 	C 	0.12500 0.12500 0.74288 -0.25300
C 	C 	0.12500 0.12500 0.42592 -0.23900
C 	C 	0.12500 0.12500 0.50712 -0.25300
C 	C 	0.12500 0.62500 0.92592 -0.23900
C 	C 	0.12500 0.62500 0.00712 -0.25300
C 	C 	0.62500 0.62500 0.42592 -0.23900
C 	C 	0.62500 0.62500 0.50712 -0.25300
C 	C 	0.62500 0.12500 0.92592 -0.23900
C 	C 	0.62500 0.12500 0.00712 -0.25200
C 	C 	0.37500 0.87500 0.67592 -0.23900
C 	C 	0.37500 0.87500 0.75712 -0.25300
C 	C 	0.37500 0.37500 0.17592 -0.23900
C 	C 	0.37500 0.37500 0.25712 -0.25300
C 	C 	0.87500 0.37500 0.67592 -0.23900
C 	C 	0.87500 0.37500 0.75712 -0.25300
C 	C 	0.87500 0.87500 0.17592 -0.23900
C 	C 	0.87500 0.87500 0.25712 -0.25300
C 	C 	0.87500 0.87500 0.57408 -0.23900
C 	C 	0.87500 0.87500 0.49288 -0.25300
C 	C 	0.87500 0.37500 0.07408 -0.23900
C 	C 	0.87500 0.37500 0.99288 -0.25300
C 	C 	0.37500 0.37500 0.57408 -0.23900
C 	C 	0.37500 0.37500 0.49288 -0.25300
C 	C 	0.37500 0.87500 0.07408 -0.23900
C 	C 	0.37500 0.87500 0.99288 -0.25200
