data_crystal

_cell_length_a 9.15610
_cell_length_b 28.10780
_cell_length_c 28.10780
_cell_angle_alpha 88.47980
_cell_angle_beta  80.62620
_cell_angle_gamma 80.62600

_symmetry_space_group_name_	'P 1'
_symmetry_space_group_name_H-M	'P 1'

loop_
_symmetry_equiv_pos_as_xyz
  x,y,z

loop_
_atom_site_label
_atom_site_type_symbol
_atom_site_fract_x
_atom_site_fract_y
_atom_site_fract_z
_atom_site_charge
Cd	Cd	-0.00000 -0.00000 0.50000 1.22400
Cd	Cd	-0.00000 0.00000 -0.00000 1.21600
Cd	Cd	0.00000 0.50000 -0.00000 1.22600
Cd	Cd	0.50000 0.50000 0.50000 1.23800
Co	Co	0.92002 0.73159 0.51361 1.17500
Co	Co	0.65161 0.01361 0.26841 1.16000
Co	Co	0.66522 0.76841 0.98639 1.18000
Co	Co	0.07998 0.26841 0.48639 1.16500
Co	Co	0.33478 0.23159 0.01361 1.16200
Co	Co	0.43363 0.48639 0.23159 1.17100
Co	Co	0.34839 0.98639 0.73159 1.18200
Co	Co	0.56637 0.51361 0.76841 1.17100
H 	H 	0.57040 0.29680 0.31080 0.20700
H 	H 	0.00550 0.53210 0.88470 -0.02800
H 	H 	0.74290 0.05750 0.07370 -0.00500
H 	H 	0.75000 0.44740 0.54560 -0.01600
H 	H 	0.38130 0.32630 0.65630 0.17100
H 	H 	0.47470 0.35080 0.86040 0.03900
H 	H 	0.75700 0.94740 0.04560 0.00100
H 	H 	0.32520 0.68980 0.52020 0.12000
H 	H 	0.66580 0.87610 0.06190 0.12100
H 	H 	0.33230 0.47460 0.60420 -0.00600
H 	H 	0.53590 0.39330 0.08610 0.10100
H 	H 	0.06350 0.60420 0.02540 0.01200
H 	H 	0.33890 0.19700 0.23980 -0.04400
H 	H 	0.52530 0.64920 0.13960 0.04700
H 	H 	0.07080 0.41390 0.39330 0.11900
H 	H 	0.59990 0.35580 0.70280 0.07200
H 	H 	0.28460 0.79140 0.94980 0.19900
H 	H 	0.71740 0.33400 0.11220 0.04500
H 	H 	0.18590 0.14920 0.63960 0.03300
H 	H 	0.07770 0.03210 0.38470 0.01100
H 	H 	0.49540 0.06840 0.85800 0.07300
H 	H 	0.51440 0.28450 0.59370 -0.07300
H 	H 	0.51530 0.10670 0.41390 0.10400
H 	H 	0.05140 0.61220 0.66600 0.05800
H 	H 	0.07730 0.11730 0.31290 -0.12100
H 	H 	0.98500 0.97980 0.68980 0.15900
H 	H 	0.99250 0.61730 0.81290 -0.11400
H 	H 	0.07600 0.44980 0.20860 0.18200
H 	H 	0.43620 0.64200 0.06840 0.07400
H 	H 	0.19460 0.81290 0.88270 -0.12600
H 	H 	0.89190 0.59370 0.21550 -0.17600
H 	H 	0.10380 0.62390 0.43810 0.13500
H 	H 	0.47420 0.29140 0.44980 0.19000
H 	H 	0.78910 0.16200 0.31180 0.08700
H 	H 	0.42130 0.23980 0.30300 -0.04500
H 	H 	0.56380 0.35800 0.93160 0.09300
H 	H 	0.87050 0.64380 0.34880 -0.03000
H 	H 	0.19960 0.42630 0.05750 -0.01200
H 	H 	0.89910 0.31180 0.33800 0.10100
H 	H 	0.04890 0.18820 0.16200 0.07700
H 	H 	0.03760 0.34370 0.82630 0.05800
H 	H 	0.53590 0.73980 0.80300 -0.04700
H 	H 	0.28770 0.97740 0.28800 0.17000
H 	H 	0.23440 0.05020 0.29140 0.18200
H 	H 	0.51430 0.84880 0.35620 -0.03700
H 	H 	0.08890 0.97460 0.10420 -0.01600
H 	H 	0.21090 0.83800 0.68820 0.07900
H 	H 	0.95570 0.20280 0.64420 0.09800
H 	H 	0.15850 0.14420 0.79720 0.06500
H 	H 	0.01970 0.99330 0.18350 0.15200
H 	H 	0.92400 0.55020 0.79140 0.19800
H 	H 	0.37410 0.44250 0.42630 0.00100
H 	H 	0.27230 0.06190 0.62390 0.14300
H 	H 	0.84540 0.47980 0.18980 0.12400
H 	H 	0.01500 0.02020 0.31020 0.06900
H 	H 	0.17450 0.63960 0.35080 0.04100
H 	H 	0.39020 0.68710 0.61730 -0.11800
H 	H 	0.88120 0.68920 0.79680 0.21000
H 	H 	0.25000 0.55260 0.45440 -0.01700
H 	H 	0.33070 0.91880 0.84660 0.12800
H 	H 	0.46240 0.61530 0.53210 -0.02100
H 	H 	0.89020 0.11530 0.03210 -0.05300
H 	H 	0.80260 0.95440 0.44740 -0.00500
H 	H 	0.35340 0.14200 0.56840 0.08700
H 	H 	0.19740 0.04560 0.55260 -0.02500
H 	H 	0.05310 0.52260 0.21200 0.22500
H 	H 	0.66110 0.80300 0.76020 -0.04600
H 	H 	0.33510 0.13960 0.85080 0.04700
H 	H 	0.92230 0.96790 0.61530 -0.04800
H 	H 	0.64660 0.85800 0.43160 0.08000
H 	H 	0.03520 0.81020 0.97980 0.06300
H 	H 	0.70440 0.54560 0.05260 -0.02200
H 	H 	0.10980 0.88470 0.96790 0.00800
H 	H 	0.62590 0.55750 0.57370 0.00200
H 	H 	0.42430 0.28800 0.52260 0.15800
H 	H 	0.37800 0.08610 0.10670 0.09900
H 	H 	0.17730 0.15340 0.41880 0.14100
H 	H 	0.76560 0.94980 0.70860 0.19800
H 	H 	0.20110 0.90630 0.28450 -0.08000
H 	H 	0.92270 0.88270 0.68710 -0.11500
H 	H 	0.98700 0.31650 0.99330 0.21900
H 	H 	0.46410 0.60670 0.91390 0.10500
H 	H 	0.75050 0.65340 0.91880 0.11700
H 	H 	0.73490 0.21200 0.97740 0.16800
H 	H 	0.10090 0.68820 0.66200 0.06700
H 	H 	0.11880 0.31080 0.20320 0.20300
H 	H 	0.57570 0.71200 0.47740 0.15700
H 	H 	0.60980 0.31290 0.38270 -0.11700
H 	H 	0.59610 0.58120 0.65340 0.13300
H 	H 	0.96240 0.65630 0.17370 0.28500
H 	H 	0.52580 0.70860 0.55020 0.19100
H 	H 	0.79680 0.18350 0.50670 0.13900
H 	H 	0.94860 0.38780 0.33400 0.02500
H 	H 	0.66930 0.08120 0.15340 0.13800
H 	H 	0.82270 0.84660 0.58120 0.12700
H 	H 	0.17040 0.11220 0.16600 0.03900
H 	H 	0.71540 0.20860 0.05020 0.18100
H 	H 	0.46410 0.26020 0.19700 -0.04300
H 	H 	0.20320 0.81650 0.49330 0.12900
H 	H 	0.57870 0.76020 0.69700 -0.04500
H 	H 	0.50460 0.93160 0.14200 0.09400
H 	H 	0.54190 0.56190 0.12390 0.13900
H 	H 	0.53760 0.38470 0.46790 -0.02200
H 	H 	0.25710 0.94250 0.92630 0.00900
H 	H 	0.93650 0.39580 0.97460 -0.02500
H 	H 	0.27570 0.30300 0.26020 -0.04500
H 	H 	0.48560 0.71550 0.40630 -0.07200
H 	H 	0.70760 0.15630 0.67370 0.17000
H 	H 	0.13280 0.18920 0.29680 0.20000
H 	H 	0.26510 0.78800 0.02260 0.14800
H 	H 	0.80540 0.18710 0.11730 -0.10900
H 	H 	0.81660 0.92630 0.55750 0.00500
H 	H 	0.21930 0.65120 0.14380 -0.08800
H 	H 	0.84150 0.85580 0.20280 0.07800
H 	H 	0.91110 0.02540 0.89580 0.00800
H 	H 	0.23710 0.66200 0.81180 0.07900
H 	H 	0.86390 0.17370 0.84370 0.17800
H 	H 	0.36310 0.85620 0.15120 -0.03400
H 	H 	0.33640 0.83400 0.61220 0.04400
H 	H 	0.89620 0.37610 0.56190 0.14400
H 	H 	0.67480 0.31020 0.47980 0.12100
H 	H 	0.10810 0.40630 0.78450 0.03100
H 	H 	0.61870 0.67370 0.34370 0.17200
H 	H 	0.96480 0.18980 0.02020 0.18300
H 	H 	0.92920 0.58610 0.60670 0.08800
H 	H 	0.28260 0.66600 0.88780 0.04100
H 	H 	0.79890 0.09370 0.71550 -0.06600
H 	H 	0.29240 0.84370 0.32630 0.17400
H 	H 	0.82960 0.88780 0.83400 0.04700
H 	H 	0.66770 0.52540 0.39580 -0.00400
H 	H 	0.80690 0.10420 0.52540 -0.00800
H 	H 	0.13610 0.82630 0.15630 0.16500
H 	H 	0.33420 0.12390 0.93810 0.15900
H 	H 	0.78070 0.34880 0.85620 0.01800
H 	H 	0.69730 0.70280 0.14420 0.06800
H 	H 	0.42960 0.70320 0.68920 0.20700
H 	H 	0.24300 0.05260 0.95440 -0.03300
H 	H 	0.32200 0.79680 0.81080 0.20900
H 	H 	0.40010 0.64420 0.29720 0.07100
H 	H 	0.86720 0.81080 0.70320 0.21200
H 	H 	0.12950 0.35620 0.65120 -0.04000
H 	H 	0.29560 0.45440 0.94740 -0.01000
H 	H 	0.95110 0.81180 0.83800 0.08800
H 	H 	0.94690 0.47740 0.78800 0.09000
H 	H 	0.40390 0.41880 0.34660 0.13300
H 	H 	0.92180 0.43160 0.64200 0.08700
H 	H 	0.48570 0.15120 0.64380 -0.03400
H 	H 	0.81410 0.85080 0.36040 0.05300
H 	H 	0.98030 0.00670 0.81650 0.11400
H 	H 	0.04430 0.79720 0.35580 0.04600
H 	H 	0.99450 0.46790 0.11530 -0.01400
H 	H 	0.19310 0.89580 0.47460 -0.00200
H 	H 	0.24950 0.34660 0.08120 0.15100
H 	H 	0.80040 0.57370 0.94250 0.01500
H 	H 	0.69650 0.50670 0.31650 0.13600
H 	H 	0.76290 0.33800 0.18820 0.08700
H 	H 	0.18340 0.07370 0.44250 -0.00200
H 	H 	0.72430 0.69700 0.73980 -0.04500
H 	H 	0.30350 0.49330 0.68350 0.13100
H 	H 	0.30270 0.29720 0.85580 0.07500
H 	H 	0.01300 0.68350 0.00670 0.05300
H 	H 	0.82550 0.36040 0.64920 0.04600
H 	H 	0.07820 0.56840 0.35800 0.07900
H 	H 	0.15460 0.52020 0.81020 0.11700
H 	H 	0.67800 0.20320 0.18920 0.20400
H 	H 	0.48470 0.89330 0.58610 0.10200
H 	H 	0.72770 0.93810 0.37610 0.13200
H 	H 	0.63690 0.14380 0.84880 -0.03600
H 	H 	0.10740 0.78450 0.09370 -0.07600
H 	H 	0.45810 0.43810 0.87610 0.14000
H 	H 	0.71230 0.02260 0.71200 0.14600
H 	H 	0.89260 0.21550 0.90630 -0.06900
H 	H 	0.66490 0.86040 0.14920 0.03900
H 	H 	0.00750 0.38270 0.18710 -0.12100
H 	H 	0.66360 0.16600 0.38780 0.04200
H 	H 	0.62200 0.91390 0.89330 0.10600
C 	C 	0.60950 0.38280 0.48800 0.17000
C 	C 	0.15120 0.03300 0.58100 0.16800
C 	C 	0.34220 0.85900 0.63260 0.03500
C 	C 	0.18610 0.35520 0.05860 -0.31200
C 	C 	0.16520 0.16830 0.61330 0.03300
C 	C 	0.91340 0.45030 0.80290 -0.17500
C 	C 	0.30660 0.63790 0.82290 -0.09200
C 	C 	0.77560 0.76950 0.07410 0.16100
C 	C 	0.18660 0.50540 0.83740 -0.26400
C 	C 	0.15380 0.40360 0.04460 0.17900
C 	C 	0.51220 0.24860 0.16700 0.23700
C 	C 	0.45020 0.95440 0.32480 0.30300
C 	C 	0.99710 0.61400 0.00380 0.07600
C 	C 	0.62520 0.39880 0.20740 0.03200
C 	C 	0.73480 0.53300 0.08100 0.16300
C 	C 	0.81340 0.49460 0.16260 -0.26200
C 	C 	0.80380 0.09420 0.24300 0.16500
C 	C 	0.10200 0.09640 0.45540 0.14000
C 	C 	0.84880 0.96700 0.41900 0.15000
C 	C 	0.44060 0.60580 0.88300 -0.10700
C 	C 	0.08190 0.38010 0.20610 0.44400
C 	C 	0.57220 0.74860 0.66700 0.24400
C 	C 	0.33960 0.84260 0.12420 0.22200
C 	C 	0.23490 0.19500 0.53440 0.03900
C 	C 	0.03230 0.33830 0.00770 -0.43300
C 	C 	0.71630 0.19710 0.95030 -0.38600
C 	C 	0.16810 0.11990 0.29390 0.44300
C 	C 	0.98880 0.59190 0.19850 0.64800
C 	C 	0.09990 0.14480 0.44140 -0.28900
C 	C 	0.19630 0.16230 0.28310 -0.45200
C 	C 	0.54130 0.55860 0.64480 -0.25600
C 	C 	0.66110 0.22000 0.07980 -0.45900
C 	C 	0.01330 0.82170 0.53950 0.21200
C 	C 	0.34560 0.29900 0.88340 -0.08300
C 	C 	0.49790 0.66450 0.07150 -0.07100
C 	C 	0.79660 0.33480 0.52300 0.22500
C 	C 	0.33990 0.20000 0.48780 0.16600
C 	C 	0.46010 0.01220 0.20000 0.13900
C 	C 	0.88510 0.11400 0.50380 0.18000
C 	C 	0.58370 0.42290 0.73030 0.02900
C 	C 	0.53620 0.12420 0.65740 0.22000
C 	C 	0.34230 0.32320 0.62820 -0.37500
C 	C 	0.48190 0.13930 0.02890 0.10700
C 	C 	0.66550 0.12820 0.67680 -0.36300
C 	C 	0.99910 0.00380 0.88600 0.13200
C 	C 	0.00660 0.23030 0.57710 0.02300
C 	C 	0.97600 0.29260 0.39880 0.06700
C 	C 	0.75870 0.87660 0.04280 -0.19500
C 	C 	0.81580 0.91900 0.03300 0.12700
C 	C 	0.50210 0.33550 0.92850 -0.10300
C 	C 	0.36370 0.30290 0.54970 -0.38400
C 	C 	0.00770 0.01200 0.38280 0.04900
C 	C 	0.62120 0.52890 0.86070 0.12100
C 	C 	0.66620 0.35900 0.13260 0.04100
C 	C 	0.81270 0.19850 0.90810 0.35100
C 	C 	0.74090 0.92020 0.72000 -0.47700
C 	C 	0.71200 0.20610 0.11990 0.43600
C 	C 	0.80160 0.04460 0.09640 0.15600
C 	C 	0.26740 0.86210 0.67710 -0.08800
C 	C 	0.02800 0.20100 0.61660 -0.11700
C 	C 	0.64460 0.38340 0.70100 -0.07600
C 	C 	0.14170 0.33770 0.21690 -0.45500
C 	C 	0.66660 0.04970 0.69710 -0.37500
C 	C 	0.37060 0.50770 0.66170 -0.26300
C 	C 	0.23070 0.53440 0.30500 0.03200
C 	C 	0.01120 0.40810 0.80150 0.03800
C 	C 	0.89800 0.90360 0.54460 0.15600
C 	C 	0.18730 0.80150 0.09190 0.33600
C 	C 	0.25910 0.07980 0.28000 -0.46800
C 	C 	0.23690 0.07710 0.76970 0.01900
C 	C 	0.47230 0.70000 0.98780 0.19200
C 	C 	0.17230 0.48780 0.30000 0.16800
C 	C 	0.87450 0.67830 0.96050 0.17300
C 	C 	0.39050 0.61720 0.51200 0.16700
C 	C 	0.10200 0.25700 0.09420 0.16500
C 	C 	0.42940 0.89420 0.61700 -0.10000
C 	C 	0.87050 0.82290 0.86210 -0.09200
C 	C 	0.90010 0.85520 0.55860 -0.22900
C 	C 	0.90250 0.48800 0.11720 0.16900
C 	C 	0.53800 0.29390 0.38010 0.44900
C 	C 	0.20340 0.66520 0.47700 0.21900
C 	C 	0.63530 0.54280 0.12340 -0.24900
C 	C 	0.91810 0.61990 0.79390 0.45600
C 	C 	0.56800 0.06950 0.35110 0.06600
C 	C 	0.12550 0.32170 0.03950 0.30900
C 	C 	0.22940 0.54560 0.17520 0.38300
C 	C 	0.02400 0.16260 0.00540 -0.42300
C 	C 	0.76510 0.80500 0.46560 0.03000
C 	C 	0.19850 0.04280 0.62340 -0.26700
C 	C 	0.37880 0.47110 0.13930 0.12700
C 	C 	0.59540 0.17520 0.95440 0.30000
C 	C 	0.51080 0.97110 0.63930 0.14500
C 	C 	0.28370 0.80290 0.04970 -0.38200
C 	C 	0.44260 0.45540 0.40360 0.14900
C 	C 	0.26860 0.89880 0.70740 0.02700
C 	C 	0.36250 0.14890 0.06950 0.06200
C 	C 	0.02400 0.70740 0.60120 0.00000
C 	C 	0.72080 0.09190 0.69850 0.33200
C 	C 	0.22900 0.11660 0.79900 -0.06700
C 	C 	0.27920 0.90810 0.30150 0.35600
C 	C 	0.65770 0.67680 0.37180 -0.37200
C 	C 	0.73390 0.83550 0.42850 -0.07300
C 	C 	0.08090 0.35110 0.43050 0.08100
C 	C 	0.30800 0.66260 0.50540 -0.26300
C 	C 	0.38340 0.08170 0.24990 0.29200
C 	C 	0.46200 0.70610 0.61990 0.45200
C 	C 	0.16240 0.57150 0.33550 -0.08600
C 	C 	0.96770 0.66170 0.99230 -0.10400
C 	C 	0.18420 0.08100 0.96700 0.19900
C 	C 	0.47940 0.71690 0.66230 -0.45800
C 	C 	0.54510 0.57410 0.23050 0.16100
C 	C 	0.46380 0.87580 0.34260 0.23100
C 	C 	0.85830 0.66230 0.78310 -0.45900
C 	C 	0.36470 0.45720 0.87660 -0.24500
C 	C 	0.84620 0.59640 0.95540 0.12000
C 	C 	0.63750 0.85110 0.93050 0.06000
C 	C 	0.57060 0.10580 0.38300 -0.11100
C 	C 	0.55320 0.66830 0.11330 0.00100
C 	C 	0.04000 0.99230 0.83830 -0.21900
C 	C 	0.83190 0.88010 0.70610 0.45800
C 	C 	0.11890 0.42020 0.22000 -0.46800
C 	C 	0.75530 0.05860 0.14480 -0.27200
C 	C 	0.77500 0.67520 0.45440 0.29600
C 	C 	0.20120 0.13260 0.14100 0.03800
C 	C 	0.35900 0.59420 0.74300 0.16500
C 	C 	0.76930 0.46560 0.69500 0.03600
C 	C 	0.79370 0.17680 0.87180 -0.37800
C 	C 	0.08660 0.54970 0.19710 -0.59200
C 	C 	0.98670 0.17830 0.46050 0.27200
C 	C 	0.63630 0.69710 0.45030 -0.38400
C 	C 	0.73220 0.41900 0.53300 0.16400
C 	C 	0.02940 0.99460 0.66260 -0.32400
C 	C 	0.28800 0.79390 0.88010 0.46400
C 	C 	0.19620 0.90580 0.75700 0.16600
C 	C 	0.45490 0.42590 0.76950 0.16100
C 	C 	0.18220 0.62420 0.15740 0.37000
C 	C 	0.69340 0.36210 0.17710 -0.09100
C 	C 	0.00290 0.38600 0.99620 0.26800
C 	C 	0.97050 0.37180 0.82320 -0.08200
C 	C 	0.33450 0.87180 0.32320 -0.38400
C 	C 	0.99340 0.76970 0.42290 0.03100
C 	C 	0.41630 0.57710 0.26970 0.02800
C 	C 	0.51810 0.86070 0.97110 0.14000
C 	C 	0.22500 0.32480 0.54560 0.29300
C 	C 	0.12950 0.17710 0.13790 -0.09200
C 	C 	0.97480 0.36740 0.35900 0.10700
C 	C 	0.44680 0.33170 0.88670 0.02300
C 	C 	0.26780 0.58100 0.46700 0.16000
C 	C 	0.81390 0.64480 0.94140 -0.20400
C 	C 	0.35860 0.78310 0.83770 -0.46900
C 	C 	0.00090 0.99620 0.11400 0.20100
C 	C 	0.66010 0.80000 0.51220 0.17100
C 	C 	0.46510 0.74990 0.91830 0.30300
C 	C 	0.20630 0.82320 0.12820 -0.36900
C 	C 	0.19360 0.34260 0.62420 0.22500
C 	C 	0.19840 0.95540 0.90360 0.14000
C 	C 	0.66650 0.88670 0.16830 0.02700
C 	C 	0.45870 0.44140 0.35520 -0.25700
C 	C 	0.95360 0.61700 0.60580 -0.05600
C 	C 	0.36670 0.24990 0.41830 0.29500
C 	C 	0.02520 0.63260 0.64100 -0.01800
C 	C 	0.95320 0.24300 0.40580 0.15800
C 	C 	0.91910 0.64890 0.56950 0.04400
C 	C 	0.84560 0.83480 0.02300 0.14400
C 	C 	0.22440 0.23050 0.92590 0.16100
C 	C 	0.63330 0.75010 0.58170 0.29800
C 	C 	0.61110 0.50380 0.38600 0.16800
C 	C 	0.17810 0.62340 0.45720 -0.24700
C 	C 	0.54980 0.04560 0.67520 0.28700
C 	C 	0.77060 0.45440 0.82480 0.20600
C 	C 	0.51140 0.56950 0.85110 0.06300
C 	C 	0.43200 0.93050 0.64890 0.05700
C 	C 	0.53570 0.69500 0.03440 0.00800
C 	C 	0.48780 0.75140 0.83300 0.24900
C 	C 	0.56940 0.92850 0.16450 -0.10600
C 	C 	0.53490 0.25010 0.08170 0.29000
C 	C 	0.41930 0.30150 0.59190 0.34400
C 	C 	0.97600 0.83740 0.99460 -0.11800
C 	C 	0.67920 0.83300 0.74860 0.24700
C 	C 	0.55940 0.39420 0.11700 -0.10400
C 	C 	0.15440 0.16520 0.97700 0.30800
C 	C 	0.73140 0.10120 0.29260 0.03500
C 	C 	0.33350 0.11330 0.83170 -0.00400
C 	C 	0.01970 0.88280 0.98800 0.08500
C 	C 	0.64100 0.40580 0.25700 0.16600
C 	C 	0.84990 0.63930 0.52890 0.13300
C 	C 	0.33380 0.64100 0.86740 0.04000
C 	C 	0.12170 0.83830 0.50770 -0.25200
C 	C 	0.38890 0.49620 0.61400 0.16600
C 	C 	0.24130 0.12340 0.95720 -0.30300
C 	C 	0.64140 0.21690 0.16230 -0.44300
C 	C 	0.78500 0.58170 0.74990 0.30000
C 	C 	0.83760 0.42850 0.66450 -0.08600
C 	C 	0.04640 0.38300 0.39420 -0.16300
C 	C 	0.96000 0.00770 0.16170 -0.30500
C 	C 	0.67640 0.88300 0.89420 -0.10300
C 	C 	0.94450 0.32290 0.36210 -0.13600
C 	C 	0.81780 0.37580 0.84260 0.08100
C 	C 	0.97200 0.79900 0.38340 -0.03700
C 	C 	0.52770 0.30000 0.01220 0.14400
C 	C 	0.80370 0.83770 0.71690 -0.46200
C 	C 	0.48860 0.43050 0.14890 0.05900
C 	C 	0.05550 0.67710 0.63790 -0.05300
C 	C 	0.88110 0.57980 0.78000 -0.47600
C 	C 	0.68600 0.73030 0.07710 0.02500
C 	C 	0.83480 0.83170 0.38670 -0.00900
C 	C 	0.42990 0.03440 0.80500 0.00300
C 	C 	0.55740 0.54460 0.59640 0.14800
C 	C 	0.44720 0.53950 0.67830 0.23800
C 	C 	0.40460 0.82480 0.04560 0.28900
C 	C 	0.15030 0.07410 0.73050 0.16100
C 	C 	0.43060 0.07150 0.83550 -0.06800
C 	C 	0.65440 0.70100 0.11660 -0.06900
C 	C 	0.23920 0.33300 0.24860 0.23900
C 	C 	0.73260 0.13790 0.32290 -0.09500
C 	C 	0.31960 0.47700 0.83480 0.22000
C 	C 	0.76310 0.92290 0.23030 0.03700
C 	C 	0.09750 0.51200 0.88280 0.16700
C 	C 	0.24470 0.94140 0.85520 -0.23900
C 	C 	0.22150 0.61330 0.33170 0.01000
C 	C 	0.26610 0.16450 0.57150 -0.10000
C 	C 	0.11490 0.88600 0.49620 0.15700
C 	C 	0.55280 0.46050 0.32170 0.24000
C 	C 	0.57010 0.96560 0.19500 0.06800
C 	C 	0.80150 0.95720 0.37660 -0.21800
C 	C 	0.87830 0.16170 0.49230 -0.27700
C 	C 	0.68040 0.52300 0.16520 0.22300
C 	C 	0.26520 0.46700 0.91900 0.16000
C 	C 	0.42780 0.25140 0.33300 0.24200
C 	C 	0.79880 0.86740 0.85900 0.04300
C 	C 	0.69200 0.33740 0.49460 -0.26400
C 	C 	0.33340 0.95030 0.30290 -0.39300
C 	C 	0.32080 0.16700 0.25140 0.24000
C 	C 	0.83260 0.79260 0.89880 0.03500
C 	C 	0.04680 0.75700 0.59420 0.17200
C 	C 	0.65780 0.14100 0.36740 0.04600
C 	C 	0.21500 0.41830 0.25010 0.29200
C 	C 	0.89800 0.74300 0.90580 0.16600
C 	C 	0.31400 0.26970 0.92290 0.03200
C 	C 	0.77850 0.38670 0.66830 0.01300
C 	C 	0.82190 0.37660 0.54280 -0.24700
C 	C 	0.98030 0.11720 0.01200 0.25800
C 	C 	0.80640 0.65740 0.37580 0.22600
C 	C 	0.46090 0.28000 0.42020 -0.47100
C 	C 	0.62940 0.49230 0.33830 -0.26400
C 	C 	0.99230 0.98800 0.61720 0.26900
C 	C 	0.88080 0.26950 0.57410 0.17400
C 	C 	0.13140 0.02300 0.66520 0.22400
C 	C 	0.02950 0.62820 0.17680 -0.66400
C 	C 	0.33890 0.78000 0.92020 -0.48500
C 	C 	0.16500 0.96050 0.82170 0.22100
C 	C 	0.11920 0.73050 0.42590 0.15000
C 	C 	0.84970 0.92590 0.26950 0.16200
C 	C 	0.58070 0.69850 0.40810 0.34300
C 	C 	0.82770 0.51220 0.70000 0.16900
C 	C 	0.53990 0.98780 0.80000 0.19700
C 	C 	0.83500 0.03950 0.17830 0.25600
C 	C 	0.48920 0.02890 0.36070 0.10300
C 	C 	0.15010 0.36070 0.47110 0.11400
C 	C 	0.16740 0.20740 0.10120 0.02600
C 	C 	0.37480 0.60120 0.79260 0.03000
C 	C 	0.53910 0.72000 0.57980 -0.47400
C 	C 	0.76080 0.66700 0.75140 0.24700
C 	C 	0.77100 0.88340 0.20100 -0.08500
C 	C 	0.32360 0.11700 0.10580 -0.10900
C 	C 	0.61660 0.91830 0.75010 0.30100
C 	C 	0.86860 0.97700 0.33480 0.20800
C 	C 	0.46430 0.30500 0.96560 0.06200
C 	C 	0.35540 0.61660 0.29900 -0.07600
C 	C 	0.97060 0.00540 0.33740 -0.17600
C 	C 	0.66040 0.15740 0.87580 0.23000
C 	C 	0.52060 0.28310 0.33770 -0.45600
N 	N 	0.35140 0.53840 0.27340 -0.25400
N 	N 	0.51540 0.96020 0.76500 -0.30500
N 	N 	0.48460 0.03980 0.23500 -0.30400
N 	N 	0.57790 0.53000 0.21000 -0.28600
N 	N 	0.16370 0.32340 0.50480 -0.29400
N 	N 	0.88980 0.77340 0.46160 -0.25100
N 	N 	0.25940 0.46020 0.26500 -0.30400
N 	N 	0.34020 0.23640 0.37520 -0.19600
N 	N 	0.11020 0.22660 0.53840 -0.25800
N 	N 	0.64860 0.46160 0.72660 -0.25400
N 	N 	0.51380 0.91620 0.34220 -0.20900
N 	N 	0.99620 0.08210 0.48550 -0.24400
N 	N 	0.56460 0.45060 0.27280 -0.29400
N 	N 	0.10790 0.71000 0.47000 -0.28900
N 	N 	0.83630 0.67660 0.49520 -0.29300
N 	N 	0.72780 0.41620 0.84220 -0.15800
N 	N 	0.14400 0.34220 0.58380 -0.21200
N 	N 	0.98480 0.22720 0.45060 -0.29200
N 	N 	0.48170 0.51450 0.58210 -0.25300
N 	N 	0.42340 0.12480 0.23640 -0.19200
N 	N 	0.37380 0.57790 0.49210 -0.25500
N 	N 	0.01520 0.77280 0.54940 -0.29600
N 	N 	0.86590 0.50790 0.07790 -0.25400
N 	N 	0.05620 0.07790 0.99210 -0.28000
N 	N 	0.49190 0.17660 0.99520 -0.28000
N 	N 	0.66320 0.96160 0.22660 -0.25400
N 	N 	0.21210 0.21000 0.97000 -0.29600
N 	N 	0.71540 0.80890 0.93290 -0.25100
N 	N 	0.81790 0.97000 0.29000 -0.27300
N 	N 	0.52440 0.73500 0.96020 -0.30500
N 	N 	0.95720 0.69110 0.56710 -0.23700
N 	N 	0.04830 0.00790 0.57790 -0.29800
N 	N 	0.89210 0.29000 0.53000 -0.28400
N 	N 	0.48710 0.00480 0.67660 -0.31000
N 	N 	0.50810 0.82340 0.00480 -0.30600
N 	N 	0.00380 0.91790 0.51450 -0.25800
N 	N 	0.43540 0.54940 0.72720 -0.29500
N 	N 	0.18210 0.03000 0.71000 -0.29700
N 	N 	0.28460 0.19110 0.06710 -0.25600
N 	N 	0.42210 0.47000 0.79000 -0.28700
N 	N 	0.33150 0.50480 0.17660 -0.31000
N 	N 	0.51830 0.48550 0.41790 -0.25400
N 	N 	0.47560 0.26500 0.03980 -0.30300
N 	N 	0.35170 0.93290 0.69110 -0.25000
N 	N 	0.13410 0.49210 0.92210 -0.25400
N 	N 	0.66850 0.49520 0.82340 -0.27700
N 	N 	0.94380 0.92210 0.00790 -0.22700
N 	N 	0.45180 0.26360 0.12480 -0.19200
N 	N 	0.78790 0.79000 0.03000 -0.27800
N 	N 	0.65980 0.76360 0.62480 -0.19200
N 	N 	0.57000 0.15780 0.91620 -0.20900
N 	N 	0.51290 0.99520 0.32340 -0.27600
N 	N 	0.52430 0.43290 0.19110 -0.25300
N 	N 	0.62480 0.72660 0.03840 -0.25400
N 	N 	0.47570 0.56710 0.80890 -0.25400
N 	N 	0.95170 0.99210 0.42210 -0.20400
N 	N 	0.27220 0.58380 0.15780 -0.25700
N 	N 	0.16260 0.27280 0.04940 -0.31200
N 	N 	0.54820 0.73640 0.87520 -0.19600
N 	N 	0.78800 0.04940 0.22720 -0.29900
N 	N 	0.28040 0.23500 0.46020 -0.30500
N 	N 	0.28460 0.37520 0.26360 -0.19300
N 	N 	0.71960 0.76500 0.53980 -0.30400
N 	N 	0.92170 0.01450 0.08210 -0.26600
N 	N 	0.62620 0.42210 0.50790 -0.25500
N 	N 	0.93620 0.58210 0.98550 -0.21400
N 	N 	0.43000 0.84220 0.08380 -0.20600
N 	N 	0.07830 0.98550 0.91790 -0.23600
N 	N 	0.74060 0.53980 0.73500 -0.30400
N 	N 	0.83740 0.72720 0.95060 -0.27700
N 	N 	0.37520 0.27340 0.96160 -0.25300
N 	N 	0.64830 0.06710 0.30890 -0.25800
N 	N 	0.04280 0.30890 0.43290 -0.27300
N 	N 	0.85600 0.65780 0.41620 -0.20400
N 	N 	0.57660 0.87520 0.76360 -0.19500
N 	N 	0.71540 0.62480 0.73640 -0.19400
N 	N 	0.06380 0.41790 0.01450 -0.29300
N 	N 	0.48620 0.08380 0.65780 -0.20600
N 	N 	0.33680 0.03840 0.77340 -0.25500
N 	N 	0.21200 0.95060 0.77280 -0.28900
Cl	Cl	0.21520 0.51850 0.02770 -0.48600
Cl	Cl	0.24290 0.97230 0.01850 -0.47000
Cl	Cl	0.73370 0.52770 0.48150 -0.46500
Cl	Cl	0.26630 0.47230 0.51850 -0.47400
Cl	Cl	0.73860 0.01850 0.52770 -0.48300
Cl	Cl	0.75710 0.02770 0.98150 -0.45700
Cl	Cl	0.26140 0.98150 0.47230 -0.44900
Cl	Cl	0.78480 0.48150 0.97230 -0.44700
O 	O 	0.20190 0.39970 0.47510 -0.15100
O 	O 	0.82760 0.78150 0.10930 -0.20900
O 	O 	0.93690 0.89070 0.28150 -0.20600
O 	O 	0.57670 0.10030 0.02490 -0.15800
O 	O 	0.78160 0.28150 0.60930 -0.21500
O 	O 	0.27980 0.62300 0.72100 -0.22400
O 	O 	0.06340 0.47810 0.32730 -0.22100
O 	O 	0.39840 0.02490 0.39970 -0.16000
O 	O 	0.60160 0.97510 0.60030 -0.14400
O 	O 	0.36880 0.02190 0.17270 -0.22000
O 	O 	0.67700 0.52490 0.89970 -0.14700
O 	O 	0.09720 0.77900 0.62300 -0.22800
O 	O 	0.63120 0.97810 0.82730 -0.21100
O 	O 	0.93660 0.52190 0.67270 -0.20900
O 	O 	0.42330 0.89970 0.97510 -0.14500
O 	O 	0.06310 0.10930 0.71850 -0.22300
O 	O 	0.12380 0.87700 0.77900 -0.22800
O 	O 	0.45850 0.17270 0.47810 -0.21500
O 	O 	0.60930 0.32730 0.02190 -0.21600
O 	O 	0.32300 0.47510 0.10030 -0.15600
O 	O 	0.79810 0.60030 0.52490 -0.15200
O 	O 	0.39090 0.39070 0.78150 -0.21800
O 	O 	0.54150 0.82730 0.52190 -0.21500
O 	O 	0.72020 0.37700 0.27900 -0.21800
O 	O 	0.87620 0.12300 0.22100 -0.21400
O 	O 	0.60910 0.60930 0.21850 -0.21100
O 	O 	0.21840 0.71850 0.39070 -0.21400
O 	O 	0.90280 0.22100 0.37700 -0.21400
O 	O 	0.39070 0.67270 0.97810 -0.21400
O 	O 	0.17240 0.21850 0.89070 -0.22000
O 	O 	0.99920 0.72100 0.87700 -0.21300
O 	O 	0.00080 0.27900 0.12300 -0.23100
