data_crystal

_cell_length_a 28.10500
_cell_length_b 28.10500
_cell_length_c 14.59800
_cell_angle_alpha 90.00000
_cell_angle_beta  90.00000
_cell_angle_gamma 120.00000

_symmetry_space_group_name_	'P 1'
_symmetry_space_group_name_H-M	'P 1'

loop_
_symmetry_equiv_pos_as_xyz
  x,y,z

loop_
_atom_site_label
_atom_site_type_symbol
_atom_site_fract_x
_atom_site_fract_y
_atom_site_fract_z
_atom_site_charge
C 	C 	0.35980 0.25240 0.87660 0.40200
C 	C 	0.34500 0.28770 0.82430 -0.07600
C 	C 	0.38100 0.32070 0.75700 -0.09400
H 	H 	0.41300 0.31980 0.74550 0.08500
C 	C 	0.36890 0.35560 0.70630 0.16300
C 	C 	0.32140 0.35730 0.72380 -0.11200
H 	H 	0.31280 0.38010 0.69020 0.07700
C 	C 	0.28670 0.32360 0.79320 -0.05300
C 	C 	0.29780 0.29080 0.84130 0.00800
H 	H 	0.27380 0.26930 0.88730 0.04900
C 	C 	0.23510 0.32750 0.81390 0.37100
C 	C 	0.39790 0.42370 0.59070 0.00000
H 	H 	0.38680 0.44390 0.63080 0.03900
H 	H 	0.36920 0.40410 0.54580 0.04500
C 	C 	0.45200 0.46280 0.54340 0.00600
H 	H 	0.45720 0.48670 0.71580 0.05400
C 	C 	0.38890 0.52780 0.80400 -0.11300
H 	H 	0.36460 0.49490 0.77530 0.07600
C 	C 	0.37640 0.54130 0.88850 -0.07200
C 	C 	0.31970 0.50180 0.93240 0.42400
O 	O 	0.32100 0.21530 0.92460 -0.44700
O 	O 	0.40615 0.25889 0.87050 -0.46300
O 	O 	0.20614 0.29967 0.87860 -0.44900
O 	O 	0.22570 0.35760 0.76200 -0.43000
O 	O 	0.40762 0.38633 0.64220 -0.21600
O 	O 	0.29080 0.45980 0.88170 -0.45800
O 	O 	0.30714 0.50780 0.00360 -0.46700
C 	C 	0.74760 0.10740 0.87660 0.40400
C 	C 	0.71230 0.05730 0.82430 -0.07500
C 	C 	0.67930 0.06030 0.75700 -0.09300
H 	H 	0.68020 0.09320 0.74550 0.08600
C 	C 	0.64440 0.01330 0.70630 0.16500
C 	C 	0.64270 0.96410 0.72380 -0.11100
H 	H 	0.61990 0.93270 0.69020 0.07800
C 	C 	0.67640 0.96310 0.79320 -0.05400
C 	C 	0.70920 0.00700 0.84130 0.01100
H 	H 	0.73070 0.00450 0.88730 0.04900
C 	C 	0.67250 0.90760 0.81390 0.37200
C 	C 	0.57630 0.97420 0.59070 -0.00000
H 	H 	0.55610 0.94290 0.63080 0.03900
H 	H 	0.59590 0.96510 0.54580 0.04600
C 	C 	0.53720 0.98920 0.54340 0.00600
H 	H 	0.51330 0.97050 0.71580 0.05300
C 	C 	0.47220 0.86110 0.80400 -0.11400
H 	H 	0.50510 0.86970 0.77530 0.07700
C 	C 	0.45870 0.83510 0.88850 -0.07100
C 	C 	0.49820 0.81790 0.93240 0.42300
O 	O 	0.78470 0.10570 0.92460 -0.44600
O 	O 	0.74111 0.14726 0.87050 -0.46300
O 	O 	0.70033 0.90647 0.87860 -0.45000
O 	O 	0.64240 0.86810 0.76200 -0.43000
O 	O 	0.61367 0.02129 0.64220 -0.21600
O 	O 	0.54020 0.83100 0.88170 -0.45800
O 	O 	0.49220 0.79934 0.00360 -0.46600
C 	C 	0.89260 0.64020 0.87660 0.40400
C 	C 	0.94270 0.65500 0.82430 -0.07600
C 	C 	0.93970 0.61900 0.75700 -0.09200
H 	H 	0.90680 0.58700 0.74550 0.08600
C 	C 	0.98670 0.63110 0.70630 0.16500
C 	C 	0.03590 0.67860 0.72380 -0.11100
H 	H 	0.06730 0.68720 0.69020 0.07800
C 	C 	0.03690 0.71330 0.79320 -0.05500
C 	C 	0.99300 0.70220 0.84130 0.01200
H 	H 	0.99550 0.72620 0.88730 0.04900
C 	C 	0.09240 0.76490 0.81390 0.37200
C 	C 	0.02580 0.60210 0.59070 -0.00100
H 	H 	0.05710 0.61320 0.63080 0.03900
H 	H 	0.03490 0.63080 0.54580 0.04600
C 	C 	0.01080 0.54800 0.54340 0.00600
H 	H 	0.02950 0.54280 0.71580 0.05300
C 	C 	0.13890 0.61110 0.80400 -0.11400
H 	H 	0.13030 0.63540 0.77530 0.07700
C 	C 	0.16490 0.62360 0.88850 -0.07100
C 	C 	0.18210 0.68030 0.93240 0.42200
O 	O 	0.89430 0.67900 0.92460 -0.44700
O 	O 	0.85274 0.59385 0.87050 -0.46300
O 	O 	0.09353 0.79386 0.87860 -0.45000
O 	O 	0.13190 0.77430 0.76200 -0.43100
O 	O 	0.97871 0.59238 0.64220 -0.21600
O 	O 	0.16900 0.70920 0.88170 -0.45800
O 	O 	0.20066 0.69286 0.00360 -0.46600
C 	C 	0.25240 0.35980 0.12340 0.40300
C 	C 	0.28770 0.34500 0.17570 -0.07500
C 	C 	0.32070 0.38100 0.24300 -0.09300
H 	H 	0.31980 0.41300 0.25450 0.08600
C 	C 	0.35560 0.36890 0.29370 0.16400
C 	C 	0.35730 0.32140 0.27620 -0.11100
H 	H 	0.38010 0.31280 0.30980 0.07800
C 	C 	0.32360 0.28670 0.20680 -0.05200
C 	C 	0.29080 0.29780 0.15870 0.00900
H 	H 	0.26930 0.27380 0.11270 0.05000
C 	C 	0.32750 0.23510 0.18610 0.37100
C 	C 	0.42370 0.39790 0.40930 0.00000
H 	H 	0.44390 0.38680 0.36920 0.03900
H 	H 	0.40410 0.36920 0.45420 0.04500
C 	C 	0.46280 0.45200 0.45660 0.00600
H 	H 	0.48670 0.45720 0.28420 0.05400
C 	C 	0.52780 0.38890 0.19600 -0.11300
H 	H 	0.49490 0.36460 0.22470 0.07600
C 	C 	0.54130 0.37640 0.11150 -0.07200
C 	C 	0.50180 0.31970 0.06760 0.42400
O 	O 	0.21530 0.32100 0.07540 -0.44700
O 	O 	0.25889 0.40615 0.12950 -0.46300
O 	O 	0.29967 0.20614 0.12140 -0.44900
O 	O 	0.35760 0.22570 0.23800 -0.43000
O 	O 	0.38633 0.40762 0.35780 -0.21600
O 	O 	0.45980 0.29080 0.11830 -0.45800
O 	O 	0.50780 0.30714 0.99640 -0.46700
C 	C 	0.10740 0.74760 0.12340 0.40400
C 	C 	0.05730 0.71230 0.17570 -0.07500
C 	C 	0.06030 0.67930 0.24300 -0.09300
H 	H 	0.09320 0.68020 0.25450 0.08600
C 	C 	0.01330 0.64440 0.29370 0.16500
C 	C 	0.96410 0.64270 0.27620 -0.11100
H 	H 	0.93270 0.61990 0.30980 0.07800
C 	C 	0.96310 0.67640 0.20680 -0.05400
C 	C 	0.00700 0.70920 0.15870 0.01100
H 	H 	0.00450 0.73070 0.11270 0.04900
C 	C 	0.90760 0.67250 0.18610 0.37200
C 	C 	0.97420 0.57630 0.40930 -0.00000
H 	H 	0.94290 0.55610 0.36920 0.03900
H 	H 	0.96510 0.59590 0.45420 0.04600
C 	C 	0.98920 0.53720 0.45660 0.00600
H 	H 	0.97050 0.51330 0.28420 0.05300
C 	C 	0.86110 0.47220 0.19600 -0.11400
H 	H 	0.86970 0.50510 0.22470 0.07700
C 	C 	0.83510 0.45870 0.11150 -0.07100
C 	C 	0.81790 0.49820 0.06760 0.42300
O 	O 	0.10570 0.78470 0.07540 -0.44600
O 	O 	0.14726 0.74111 0.12950 -0.46300
O 	O 	0.90647 0.70033 0.12140 -0.45000
O 	O 	0.86810 0.64240 0.23800 -0.43000
O 	O 	0.02129 0.61367 0.35780 -0.21600
O 	O 	0.83100 0.54020 0.11830 -0.45800
O 	O 	0.79934 0.49220 0.99640 -0.46600
C 	C 	0.64020 0.89260 0.12340 0.40400
C 	C 	0.65500 0.94270 0.17570 -0.07600
C 	C 	0.61900 0.93970 0.24300 -0.09200
H 	H 	0.58700 0.90680 0.25450 0.08600
C 	C 	0.63110 0.98670 0.29370 0.16500
C 	C 	0.67860 0.03590 0.27620 -0.11100
H 	H 	0.68720 0.06730 0.30980 0.07800
C 	C 	0.71330 0.03690 0.20680 -0.05500
C 	C 	0.70220 0.99300 0.15870 0.01200
H 	H 	0.72620 0.99550 0.11270 0.04900
C 	C 	0.76490 0.09240 0.18610 0.37200
C 	C 	0.60210 0.02580 0.40930 -0.00100
H 	H 	0.61320 0.05710 0.36920 0.03900
H 	H 	0.63080 0.03490 0.45420 0.04600
C 	C 	0.54800 0.01080 0.45660 0.00600
H 	H 	0.54280 0.02950 0.28420 0.05300
C 	C 	0.61110 0.13890 0.19600 -0.11400
H 	H 	0.63540 0.13030 0.22470 0.07700
C 	C 	0.62360 0.16490 0.11150 -0.07100
C 	C 	0.68030 0.18210 0.06760 0.42200
O 	O 	0.67900 0.89430 0.07540 -0.44700
O 	O 	0.59385 0.85274 0.12950 -0.46300
O 	O 	0.79386 0.09353 0.12140 -0.45000
O 	O 	0.77430 0.13190 0.23800 -0.43100
O 	O 	0.59238 0.97871 0.35780 -0.21600
O 	O 	0.70920 0.16900 0.11830 -0.45800
O 	O 	0.69286 0.20066 0.99640 -0.46600
C 	C 	0.64020 0.74760 0.12340 0.40300
C 	C 	0.65500 0.71230 0.17570 -0.07500
C 	C 	0.61900 0.67930 0.24300 -0.09300
H 	H 	0.58700 0.68020 0.25450 0.08600
C 	C 	0.63110 0.64440 0.29370 0.16400
C 	C 	0.67860 0.64270 0.27620 -0.11100
H 	H 	0.68720 0.61990 0.30980 0.07800
C 	C 	0.71330 0.67640 0.20680 -0.05200
C 	C 	0.70220 0.70920 0.15870 0.00900
H 	H 	0.72620 0.73070 0.11270 0.05000
C 	C 	0.76490 0.67250 0.18610 0.37100
C 	C 	0.60210 0.57630 0.40930 0.00000
H 	H 	0.61320 0.55610 0.36920 0.03900
H 	H 	0.63080 0.59590 0.45420 0.04500
C 	C 	0.54800 0.53720 0.45660 0.00600
H 	H 	0.54280 0.51330 0.28420 0.05400
C 	C 	0.61110 0.47220 0.19600 -0.11300
H 	H 	0.63540 0.50510 0.22470 0.07600
C 	C 	0.62360 0.45870 0.11150 -0.07200
C 	C 	0.68030 0.49820 0.06760 0.42400
O 	O 	0.67900 0.78470 0.07540 -0.44700
O 	O 	0.59385 0.74111 0.12950 -0.46300
O 	O 	0.79386 0.70033 0.12140 -0.44900
O 	O 	0.77430 0.64240 0.23800 -0.43000
O 	O 	0.59238 0.61367 0.35780 -0.21600
O 	O 	0.70920 0.54020 0.11830 -0.45800
O 	O 	0.69286 0.49220 0.99640 -0.46700
C 	C 	0.25240 0.89260 0.12340 0.40400
C 	C 	0.28770 0.94270 0.17570 -0.07500
C 	C 	0.32070 0.93970 0.24300 -0.09300
H 	H 	0.31980 0.90680 0.25450 0.08600
C 	C 	0.35560 0.98670 0.29370 0.16500
C 	C 	0.35730 0.03590 0.27620 -0.11100
H 	H 	0.38010 0.06730 0.30980 0.07800
C 	C 	0.32360 0.03690 0.20680 -0.05400
C 	C 	0.29080 0.99300 0.15870 0.01100
H 	H 	0.26930 0.99550 0.11270 0.04900
C 	C 	0.32750 0.09240 0.18610 0.37200
C 	C 	0.42370 0.02580 0.40930 -0.00000
H 	H 	0.44390 0.05710 0.36920 0.03900
H 	H 	0.40410 0.03490 0.45420 0.04600
C 	C 	0.46280 0.01080 0.45660 0.00600
H 	H 	0.48670 0.02950 0.28420 0.05300
C 	C 	0.52780 0.13890 0.19600 -0.11400
H 	H 	0.49490 0.13030 0.22470 0.07700
C 	C 	0.54130 0.16490 0.11150 -0.07100
C 	C 	0.50180 0.18210 0.06760 0.42300
O 	O 	0.21530 0.89430 0.07540 -0.44600
O 	O 	0.25889 0.85274 0.12950 -0.46300
O 	O 	0.29967 0.09353 0.12140 -0.45000
O 	O 	0.35760 0.13190 0.23800 -0.43000
O 	O 	0.38633 0.97871 0.35780 -0.21600
O 	O 	0.45980 0.16900 0.11830 -0.45800
O 	O 	0.50780 0.20066 0.99640 -0.46600
C 	C 	0.10740 0.35980 0.12340 0.40400
C 	C 	0.05730 0.34500 0.17570 -0.07600
C 	C 	0.06030 0.38100 0.24300 -0.09200
H 	H 	0.09320 0.41300 0.25450 0.08600
C 	C 	0.01330 0.36890 0.29370 0.16500
C 	C 	0.96410 0.32140 0.27620 -0.11100
H 	H 	0.93270 0.31280 0.30980 0.07800
C 	C 	0.96310 0.28670 0.20680 -0.05500
C 	C 	0.00700 0.29780 0.15870 0.01200
H 	H 	0.00450 0.27380 0.11270 0.04900
C 	C 	0.90760 0.23510 0.18610 0.37200
C 	C 	0.97420 0.39790 0.40930 -0.00100
H 	H 	0.94290 0.38680 0.36920 0.03900
H 	H 	0.96510 0.36920 0.45420 0.04600
C 	C 	0.98920 0.45200 0.45660 0.00600
H 	H 	0.97050 0.45720 0.28420 0.05300
C 	C 	0.86110 0.38890 0.19600 -0.11400
H 	H 	0.86970 0.36460 0.22470 0.07700
C 	C 	0.83510 0.37640 0.11150 -0.07100
C 	C 	0.81790 0.31970 0.06760 0.42200
O 	O 	0.10570 0.32100 0.07540 -0.44700
O 	O 	0.14726 0.40615 0.12950 -0.46300
O 	O 	0.90647 0.20614 0.12140 -0.45000
O 	O 	0.86810 0.22570 0.23800 -0.43100
O 	O 	0.02129 0.40762 0.35780 -0.21600
O 	O 	0.83100 0.29080 0.11830 -0.45800
O 	O 	0.79934 0.30714 0.99640 -0.46600
C 	C 	0.74760 0.64020 0.87660 0.40300
C 	C 	0.71230 0.65500 0.82430 -0.07500
C 	C 	0.67930 0.61900 0.75700 -0.09300
H 	H 	0.68020 0.58700 0.74550 0.08600
C 	C 	0.64440 0.63110 0.70630 0.16400
C 	C 	0.64270 0.67860 0.72380 -0.11100
H 	H 	0.61990 0.68720 0.69020 0.07800
C 	C 	0.67640 0.71330 0.79320 -0.05200
C 	C 	0.70920 0.70220 0.84130 0.00900
H 	H 	0.73070 0.72620 0.88730 0.05000
C 	C 	0.67250 0.76490 0.81390 0.37100
C 	C 	0.57630 0.60210 0.59070 0.00000
H 	H 	0.55610 0.61320 0.63080 0.03900
H 	H 	0.59590 0.63080 0.54580 0.04500
C 	C 	0.53720 0.54800 0.54340 0.00600
H 	H 	0.51330 0.54280 0.71580 0.05400
C 	C 	0.47220 0.61110 0.80400 -0.11300
H 	H 	0.50510 0.63540 0.77530 0.07600
C 	C 	0.45870 0.62360 0.88850 -0.07200
C 	C 	0.49820 0.68030 0.93240 0.42400
O 	O 	0.78470 0.67900 0.92460 -0.44700
O 	O 	0.74111 0.59385 0.87050 -0.46300
O 	O 	0.70033 0.79386 0.87860 -0.44900
O 	O 	0.64240 0.77430 0.76200 -0.43000
O 	O 	0.61367 0.59238 0.64220 -0.21600
O 	O 	0.54020 0.70920 0.88170 -0.45800
O 	O 	0.49220 0.69286 0.00360 -0.46700
C 	C 	0.89260 0.25240 0.87660 0.40400
C 	C 	0.94270 0.28770 0.82430 -0.07500
C 	C 	0.93970 0.32070 0.75700 -0.09300
H 	H 	0.90680 0.31980 0.74550 0.08600
C 	C 	0.98670 0.35560 0.70630 0.16500
C 	C 	0.03590 0.35730 0.72380 -0.11100
H 	H 	0.06730 0.38010 0.69020 0.07800
C 	C 	0.03690 0.32360 0.79320 -0.05400
C 	C 	0.99300 0.29080 0.84130 0.01100
H 	H 	0.99550 0.26930 0.88730 0.04900
C 	C 	0.09240 0.32750 0.81390 0.37200
C 	C 	0.02580 0.42370 0.59070 -0.00000
H 	H 	0.05710 0.44390 0.63080 0.03900
H 	H 	0.03490 0.40410 0.54580 0.04600
C 	C 	0.01080 0.46280 0.54340 0.00600
H 	H 	0.02950 0.48670 0.71580 0.05300
C 	C 	0.13890 0.52780 0.80400 -0.11400
H 	H 	0.13030 0.49490 0.77530 0.07700
C 	C 	0.16490 0.54130 0.88850 -0.07100
C 	C 	0.18210 0.50180 0.93240 0.42300
O 	O 	0.89430 0.21530 0.92460 -0.44600
O 	O 	0.85274 0.25889 0.87050 -0.46300
O 	O 	0.09353 0.29967 0.87860 -0.45000
O 	O 	0.13190 0.35760 0.76200 -0.43000
O 	O 	0.97871 0.38633 0.64220 -0.21600
O 	O 	0.16900 0.45980 0.88170 -0.45800
O 	O 	0.20066 0.50780 0.00360 -0.46600
C 	C 	0.35980 0.10740 0.87660 0.40400
C 	C 	0.34500 0.05730 0.82430 -0.07600
C 	C 	0.38100 0.06030 0.75700 -0.09200
H 	H 	0.41300 0.09320 0.74550 0.08600
C 	C 	0.36890 0.01330 0.70630 0.16500
C 	C 	0.32140 0.96410 0.72380 -0.11100
H 	H 	0.31280 0.93270 0.69020 0.07800
C 	C 	0.28670 0.96310 0.79320 -0.05500
C 	C 	0.29780 0.00700 0.84130 0.01200
H 	H 	0.27380 0.00450 0.88730 0.04900
C 	C 	0.23510 0.90760 0.81390 0.37200
C 	C 	0.39790 0.97420 0.59070 -0.00100
H 	H 	0.38680 0.94290 0.63080 0.03900
H 	H 	0.36920 0.96510 0.54580 0.04600
C 	C 	0.45200 0.98920 0.54340 0.00600
H 	H 	0.45720 0.97050 0.71580 0.05300
C 	C 	0.38890 0.86110 0.80400 -0.11400
H 	H 	0.36460 0.86970 0.77530 0.07700
C 	C 	0.37640 0.83510 0.88850 -0.07100
C 	C 	0.31970 0.81790 0.93240 0.42200
O 	O 	0.32100 0.10570 0.92460 -0.44700
O 	O 	0.40615 0.14726 0.87050 -0.46300
O 	O 	0.20614 0.90647 0.87860 -0.45000
O 	O 	0.22570 0.86810 0.76200 -0.43100
O 	O 	0.40762 0.02129 0.64220 -0.21600
O 	O 	0.29080 0.83100 0.88170 -0.45800
O 	O 	0.30714 0.79934 0.00360 -0.46600
Mn	Mn	0.31173 0.15586 0.02518 1.29700
Mn	Mn	0.45173 0.22586 0.93261 1.30100
Mn	Mn	0.42118 0.21059 0.18607 1.28200
O 	O 	0.39823 0.19911 0.04790 -0.59200
Mn	Mn	0.84414 0.15587 0.02518 1.29600
Mn	Mn	0.77414 0.22587 0.93261 1.30200
Mn	Mn	0.78941 0.21059 0.18607 1.28200
O 	O 	0.80089 0.19912 0.04790 -0.59200
Mn	Mn	0.84413 0.68827 0.02518 1.29700
Mn	Mn	0.77413 0.54827 0.93261 1.30100
Mn	Mn	0.78941 0.57882 0.18607 1.28200
O 	O 	0.80088 0.60177 0.04790 -0.59200
Mn	Mn	0.15586 0.31173 0.97482 1.29700
Mn	Mn	0.22586 0.45173 0.06739 1.30100
Mn	Mn	0.21059 0.42118 0.81393 1.28200
O 	O 	0.19911 0.39823 0.95210 -0.59200
Mn	Mn	0.15587 0.84414 0.97482 1.29600
Mn	Mn	0.22587 0.77414 0.06739 1.30200
Mn	Mn	0.21059 0.78941 0.81393 1.28200
O 	O 	0.19912 0.80089 0.95210 -0.59200
Mn	Mn	0.68827 0.84413 0.97482 1.29700
Mn	Mn	0.54827 0.77413 0.06739 1.30100
Mn	Mn	0.57882 0.78941 0.81393 1.28200
O 	O 	0.60177 0.80088 0.95210 -0.59200
C 	C 	0.48931 0.51069 0.58710 0.01200
C 	C 	0.47885 0.52115 0.68350 -0.01600
C 	C 	0.43697 0.56303 0.76460 0.16200
C 	C 	0.41116 0.58884 0.93140 0.00600
H 	H 	0.40270 0.59730 0.98850 0.04600
O 	O 	0.44945 0.55055 0.67760 -0.21500
C 	C 	0.48931 0.97862 0.58710 0.01200
C 	C 	0.47885 0.95770 0.68350 -0.01600
C 	C 	0.43697 0.87394 0.76460 0.16200
C 	C 	0.41116 0.82232 0.93140 0.00600
H 	H 	0.40270 0.80540 0.98850 0.04600
O 	O 	0.44945 0.89890 0.67760 -0.21600
C 	C 	0.02138 0.51069 0.58710 0.01200
C 	C 	0.04230 0.52115 0.68350 -0.01600
C 	C 	0.12606 0.56303 0.76460 0.16200
C 	C 	0.17768 0.58884 0.93140 0.00600
H 	H 	0.19460 0.59730 0.98850 0.04600
O 	O 	0.10110 0.55055 0.67760 -0.21600
C 	C 	0.51069 0.48931 0.41290 0.01200
C 	C 	0.52115 0.47885 0.31650 -0.01600
C 	C 	0.56303 0.43697 0.23540 0.16200
C 	C 	0.58884 0.41116 0.06860 0.00600
H 	H 	0.59730 0.40270 0.01150 0.04600
O 	O 	0.55055 0.44945 0.32240 -0.21500
C 	C 	0.97862 0.48931 0.41290 0.01200
C 	C 	0.95770 0.47885 0.31650 -0.01600
C 	C 	0.87394 0.43697 0.23540 0.16200
C 	C 	0.82232 0.41116 0.06860 0.00600
H 	H 	0.80540 0.40270 0.01150 0.04600
O 	O 	0.89890 0.44945 0.32240 -0.21600
C 	C 	0.51069 0.02138 0.41290 0.01200
C 	C 	0.52115 0.04230 0.31650 -0.01600
C 	C 	0.56303 0.12606 0.23540 0.16200
C 	C 	0.58884 0.17768 0.06860 0.00600
H 	H 	0.59730 0.19460 0.01150 0.04600
O 	O 	0.55055 0.10110 0.32240 -0.21600
