data_crystal

_cell_length_a 13.62570
_cell_length_b 25.26750
_cell_length_c 16.81850
_cell_angle_alpha 90.00000
_cell_angle_beta  105.81500
_cell_angle_gamma 90.00000

_symmetry_space_group_name_	'P 1'
_symmetry_space_group_name_H-M	'P 1'

loop_
_symmetry_equiv_pos_as_xyz
  x,y,z

loop_
_atom_site_label
_atom_site_type_symbol
_atom_site_fract_x
_atom_site_fract_y
_atom_site_fract_z
_atom_site_charge
Co	Co	0.10481 0.28176 0.09094 1.15500
Co	Co	0.25295 0.24425 0.26047 1.16800
O 	O 	0.74006 0.20592 0.71410 -0.26400
O 	O 	0.63580 0.17792 0.13712 -0.26100
O 	O 	0.16714 0.21257 0.13306 -0.52800
O 	O 	0.00394 0.20045 0.12490 -0.35600
O 	O 	0.13573 0.96147 0.10044 -0.29800
O 	O 	0.96634 0.82404 0.34638 -0.47900
O 	O 	0.85975 0.79601 0.22813 -0.47200
O 	O 	0.35007 0.17504 0.26578 -0.38200
O 	O 	0.21001 0.17393 0.30650 -0.39300
O 	O 	0.36134 0.94045 0.41064 -0.31000
O 	O 	0.77273 0.82277 0.41311 -0.47000
O 	O 	0.66672 0.78853 0.29831 -0.47300
N 	N 	0.02207 0.27599 0.97153 -0.27100
N 	N 	0.87264 0.26282 0.72019 -0.27100
H 	H 	0.89860 0.28320 0.68860 0.15900
N 	N 	0.47511 0.20411 0.13235 -0.26800
H 	H 	0.43320 0.20890 0.16340 0.14700
N 	N 	0.33595 0.23303 0.88117 -0.24400
C 	C 	0.94278 0.24257 0.94537 0.11200
H 	H 	0.92370 0.22140 0.98550 -0.01300
C 	C 	0.88767 0.23721 0.86392 -0.22200
H 	H 	0.83170 0.21340 0.84870 0.12700
C 	C 	0.91587 0.26750 0.80419 0.22400
C 	C 	0.99723 0.30292 0.83084 -0.22600
H 	H 	0.01740 0.32480 0.79220 0.12300
C 	C 	0.04758 0.30571 0.91348 0.11800
H 	H 	0.10300 0.32970 0.93060 -0.01200
C 	C 	0.79338 0.23004 0.67939 0.30100
C 	C 	0.78296 0.22752 0.58776 -0.28200
H 	H 	0.85140 0.22150 0.57960 0.11200
H 	H 	0.75830 0.26230 0.56300 0.12100
C 	C 	0.71140 0.18485 0.54162 -0.00500
H 	H 	0.64170 0.19130 0.54670 0.04700
H 	H 	0.73430 0.14980 0.56620 0.05000
C 	C 	0.71000 0.18485 0.45056 -0.09800
H 	H 	0.78100 0.18160 0.44660 0.05800
H 	H 	0.68300 0.21930 0.42590 0.05600
C 	C 	0.64620 0.14051 0.40001 -0.14400
H 	H 	0.57510 0.14350 0.40360 0.07600
H 	H 	0.67330 0.10600 0.42400 0.07600
C 	C 	0.64640 0.14209 0.30878 0.03700
H 	H 	0.71760 0.14080 0.30510 0.02800
H 	H 	0.61030 0.11060 0.28010 0.02400
C 	C 	0.59480 0.19196 0.26599 -0.31300
H 	H 	0.52990 0.19730 0.28070 0.13000
H 	H 	0.63920 0.22280 0.28690 0.13300
C 	C 	0.57265 0.19009 0.17318 0.30700
C 	C 	0.43332 0.21187 0.04739 0.22100
C 	C 	0.48904 0.21481 0.98915 -0.22000
H 	H 	0.56080 0.20960 0.00490 0.12300
C 	C 	0.43691 0.22544 0.90787 0.12600
H 	H 	0.47520 0.22750 0.86850 -0.01800
C 	C 	0.28357 0.22969 0.93783 0.12300
H 	H 	0.21190 0.23510 0.92040 -0.01500
C 	C 	0.32805 0.21878 0.01995 -0.22300
H 	H 	0.28740 0.21600 0.05750 0.10600
C 	C 	0.08936 0.18146 0.12960 0.34400
C 	C 	0.10511 0.12352 0.12658 -0.18500
C 	C 	0.02857 0.08992 0.13649 0.13700
H 	H 	0.96940 0.10440 0.14780 -0.00200
C 	C 	0.03760 0.03571 0.13002 -0.25300
H 	H 	0.98580 0.01280 0.13800 0.12500
C 	C 	0.12329 0.01517 0.11173 0.27500
C 	C 	0.20082 0.04796 0.10141 -0.24500
H 	H 	0.25920 0.03350 0.08890 0.12900
C 	C 	0.19138 0.10212 0.10964 0.13000
H 	H 	0.24440 0.12490 0.10370 0.00000
C 	C 	0.08461 0.92770 0.14149 0.28900
C 	C 	0.99950 0.90087 0.09653 -0.27000
H 	H 	0.97490 0.90570 0.03850 0.13800
C 	C 	0.95020 0.86671 0.13773 0.15600
H 	H 	0.89150 0.84790 0.10750 -0.01100
C 	C 	0.98587 0.85979 0.22266 -0.20500
C 	C 	0.07250 0.88723 0.26634 0.15800
H 	H 	0.09780 0.88250 0.32440 -0.00500
C 	C 	0.12200 0.92137 0.22578 -0.26900
H 	H 	0.18100 0.94020 0.25560 0.13600
C 	C 	0.93306 0.82387 0.26823 0.41600
C 	C 	0.28816 0.15044 0.29633 0.32600
C 	C 	0.30645 0.09407 0.32209 -0.16400
C 	C 	0.24012 0.06797 0.35925 0.12000
H 	H 	0.18110 0.08570 0.36530 0.00500
C 	C 	0.25961 0.01667 0.38732 -0.24000
H 	H 	0.21450 0.99910 0.41280 0.12100
C 	C 	0.34629 0.99083 0.37785 0.26700
C 	C 	0.41131 0.01538 0.33878 -0.25200
H 	H 	0.46880 0.99710 0.33070 0.12000
C 	C 	0.39084 0.06729 0.31156 0.11900
H 	H 	0.43540 0.08460 0.28530 0.00100
C 	C 	0.44246 0.91091 0.39756 0.29800
C 	C 	0.43000 0.88445 0.32420 -0.28100
H 	H 	0.36790 0.88730 0.28160 0.14500
C 	C 	0.50910 0.85362 0.31330 0.17100
H 	H 	0.50130 0.83490 0.26290 -0.01200
C 	C 	0.59973 0.84975 0.37520 -0.21500
C 	C 	0.60930 0.87564 0.44940 0.16400
H 	H 	0.67060 0.87240 0.49270 -0.00800
C 	C 	0.52990 0.90637 0.46102 -0.28100
H 	H 	0.53600 0.92400 0.51210 0.13700
C 	C 	0.68617 0.81806 0.36138 0.41600
Co	Co	0.89519 0.78176 0.40906 1.15600
Co	Co	0.74705 0.74425 0.23953 1.16800
O 	O 	0.25994 0.70592 0.78590 -0.26400
O 	O 	0.36420 0.67792 0.36288 -0.26100
O 	O 	0.83286 0.71257 0.36694 -0.52700
O 	O 	0.99606 0.70045 0.37510 -0.35600
O 	O 	0.86427 0.46147 0.39956 -0.29900
O 	O 	0.03366 0.32404 0.15362 -0.47900
O 	O 	0.14025 0.29601 0.27187 -0.47200
O 	O 	0.64993 0.67504 0.23422 -0.38200
O 	O 	0.78999 0.67393 0.19350 -0.39300
O 	O 	0.63866 0.44045 0.08936 -0.31000
O 	O 	0.22727 0.32277 0.08689 -0.47100
O 	O 	0.33328 0.28853 0.20169 -0.47300
N 	N 	0.97793 0.77599 0.52847 -0.27100
N 	N 	0.12736 0.76282 0.77981 -0.27100
H 	H 	0.10140 0.78320 0.81140 0.15900
N 	N 	0.52489 0.70411 0.36765 -0.26800
H 	H 	0.56680 0.70890 0.33660 0.14700
N 	N 	0.66405 0.73303 0.61883 -0.24400
C 	C 	0.05722 0.74257 0.55463 0.11200
H 	H 	0.07630 0.72140 0.51450 -0.01300
C 	C 	0.11233 0.73721 0.63608 -0.22200
H 	H 	0.16830 0.71340 0.65130 0.12700
C 	C 	0.08413 0.76750 0.69581 0.22400
C 	C 	0.00277 0.80292 0.66916 -0.22500
H 	H 	0.98260 0.82480 0.70780 0.12200
C 	C 	0.95242 0.80571 0.58652 0.11700
H 	H 	0.89700 0.82970 0.56940 -0.01200
C 	C 	0.20662 0.73004 0.82061 0.30100
C 	C 	0.21704 0.72752 0.91224 -0.28200
H 	H 	0.14860 0.72150 0.92040 0.11200
H 	H 	0.24170 0.76230 0.93700 0.12100
C 	C 	0.28860 0.68485 0.95838 -0.00500
H 	H 	0.35830 0.69130 0.95330 0.04700
H 	H 	0.26570 0.64980 0.93380 0.05000
C 	C 	0.29000 0.68485 0.04944 -0.09800
H 	H 	0.21900 0.68160 0.05340 0.05800
H 	H 	0.31700 0.71930 0.07410 0.05600
C 	C 	0.35380 0.64051 0.09999 -0.14400
H 	H 	0.42490 0.64350 0.09640 0.07600
H 	H 	0.32670 0.60600 0.07600 0.07600
C 	C 	0.35360 0.64209 0.19122 0.03700
H 	H 	0.28240 0.64080 0.19490 0.02800
H 	H 	0.38970 0.61060 0.21990 0.02400
C 	C 	0.40520 0.69196 0.23401 -0.31300
H 	H 	0.47010 0.69730 0.21930 0.13000
H 	H 	0.36080 0.72280 0.21310 0.13300
C 	C 	0.42735 0.69009 0.32682 0.30700
C 	C 	0.56668 0.71187 0.45261 0.22200
C 	C 	0.51096 0.71481 0.51085 -0.22200
H 	H 	0.43920 0.70960 0.49510 0.12400
C 	C 	0.56309 0.72544 0.59213 0.12600
H 	H 	0.52480 0.72750 0.63150 -0.01800
C 	C 	0.71643 0.72969 0.56217 0.12200
H 	H 	0.78810 0.73510 0.57960 -0.01500
C 	C 	0.67195 0.71878 0.48005 -0.22300
H 	H 	0.71260 0.71600 0.44250 0.10600
C 	C 	0.91064 0.68146 0.37040 0.34400
C 	C 	0.89489 0.62352 0.37342 -0.18500
C 	C 	0.97143 0.58992 0.36351 0.13800
H 	H 	0.03060 0.60440 0.35220 -0.00200
C 	C 	0.96240 0.53571 0.36998 -0.25400
H 	H 	0.01420 0.51280 0.36200 0.12600
C 	C 	0.87671 0.51517 0.38827 0.27600
C 	C 	0.79918 0.54796 0.39859 -0.24600
H 	H 	0.74080 0.53350 0.41110 0.12900
C 	C 	0.80862 0.60212 0.39036 0.13000
H 	H 	0.75560 0.62490 0.39630 0.00000
C 	C 	0.91539 0.42770 0.35851 0.29100
C 	C 	0.00050 0.40087 0.40347 -0.27400
H 	H 	0.02510 0.40570 0.46150 0.13900
C 	C 	0.04980 0.36671 0.36227 0.15900
H 	H 	0.10850 0.34790 0.39250 -0.01200
C 	C 	0.01413 0.35979 0.27734 -0.20800
C 	C 	0.92750 0.38723 0.23366 0.16100
H 	H 	0.90220 0.38250 0.17560 -0.00600
C 	C 	0.87800 0.42137 0.27422 -0.27100
H 	H 	0.81900 0.44020 0.24440 0.13600
C 	C 	0.06694 0.32387 0.23177 0.41700
C 	C 	0.71184 0.65044 0.20367 0.32600
C 	C 	0.69355 0.59407 0.17791 -0.16500
C 	C 	0.75988 0.56797 0.14075 0.12000
H 	H 	0.81890 0.58570 0.13470 0.00500
C 	C 	0.74039 0.51667 0.11268 -0.24200
H 	H 	0.78550 0.49910 0.08720 0.12200
C 	C 	0.65371 0.49083 0.12215 0.26800
C 	C 	0.58869 0.51538 0.16122 -0.25200
H 	H 	0.53120 0.49710 0.16930 0.12000
C 	C 	0.60916 0.56729 0.18844 0.11900
H 	H 	0.56460 0.58460 0.21470 0.00100
C 	C 	0.55754 0.41091 0.10244 0.29800
C 	C 	0.57000 0.38445 0.17580 -0.28200
H 	H 	0.63210 0.38730 0.21840 0.14500
C 	C 	0.49090 0.35362 0.18670 0.17100
H 	H 	0.49870 0.33490 0.23710 -0.01200
C 	C 	0.40027 0.34975 0.12480 -0.21600
C 	C 	0.39070 0.37564 0.05060 0.16500
H 	H 	0.32940 0.37240 0.00730 -0.00800
C 	C 	0.47010 0.40637 0.03898 -0.28200
H 	H 	0.46400 0.42400 0.98790 0.13800
C 	C 	0.31383 0.31806 0.13862 0.41600
Co	Co	0.89519 0.71824 0.90906 1.15500
Co	Co	0.74705 0.75575 0.73953 1.16800
O 	O 	0.25994 0.79408 0.28590 -0.26400
O 	O 	0.36420 0.82208 0.86288 -0.26100
O 	O 	0.83286 0.78743 0.86694 -0.52800
O 	O 	0.99606 0.79955 0.87510 -0.35600
O 	O 	0.86427 0.03853 0.89956 -0.29800
O 	O 	0.03366 0.17596 0.65362 -0.47900
O 	O 	0.14025 0.20399 0.77187 -0.47200
O 	O 	0.64993 0.82496 0.73422 -0.38200
O 	O 	0.78999 0.82607 0.69350 -0.39300
O 	O 	0.63866 0.05955 0.58936 -0.31000
O 	O 	0.22727 0.17723 0.58689 -0.47000
O 	O 	0.33328 0.21147 0.70169 -0.47300
N 	N 	0.97793 0.72401 0.02847 -0.27100
N 	N 	0.12736 0.73718 0.27981 -0.27100
H 	H 	0.10140 0.71680 0.31140 0.15900
N 	N 	0.52489 0.79589 0.86765 -0.26800
H 	H 	0.56680 0.79110 0.83660 0.14700
N 	N 	0.66405 0.76697 0.11883 -0.24400
C 	C 	0.05722 0.75743 0.05463 0.11200
H 	H 	0.07630 0.77860 0.01450 -0.01300
C 	C 	0.11233 0.76279 0.13608 -0.22200
H 	H 	0.16830 0.78660 0.15130 0.12700
C 	C 	0.08413 0.73250 0.19581 0.22400
C 	C 	0.00277 0.69708 0.16916 -0.22600
H 	H 	0.98260 0.67520 0.20780 0.12300
C 	C 	0.95242 0.69429 0.08652 0.11800
H 	H 	0.89700 0.67030 0.06940 -0.01200
C 	C 	0.20662 0.76996 0.32061 0.30100
C 	C 	0.21704 0.77248 0.41224 -0.28200
H 	H 	0.14860 0.77850 0.42040 0.11200
H 	H 	0.24170 0.73770 0.43700 0.12100
C 	C 	0.28860 0.81515 0.45838 -0.00500
H 	H 	0.35830 0.80870 0.45330 0.04700
H 	H 	0.26570 0.85020 0.43380 0.05000
C 	C 	0.29000 0.81515 0.54944 -0.09800
H 	H 	0.21900 0.81840 0.55340 0.05800
H 	H 	0.31700 0.78070 0.57410 0.05600
C 	C 	0.35380 0.85949 0.59999 -0.14400
H 	H 	0.42490 0.85650 0.59640 0.07600
H 	H 	0.32670 0.89400 0.57600 0.07600
C 	C 	0.35360 0.85791 0.69122 0.03700
H 	H 	0.28240 0.85920 0.69490 0.02800
H 	H 	0.38970 0.88940 0.71990 0.02400
C 	C 	0.40520 0.80804 0.73401 -0.31300
H 	H 	0.47010 0.80270 0.71930 0.13000
H 	H 	0.36080 0.77720 0.71310 0.13300
C 	C 	0.42735 0.80991 0.82682 0.30700
C 	C 	0.56668 0.78813 0.95261 0.22100
C 	C 	0.51096 0.78519 0.01085 -0.22000
H 	H 	0.43920 0.79040 0.99510 0.12300
C 	C 	0.56309 0.77456 0.09213 0.12600
H 	H 	0.52480 0.77250 0.13150 -0.01800
C 	C 	0.71643 0.77031 0.06217 0.12300
H 	H 	0.78810 0.76490 0.07960 -0.01500
C 	C 	0.67195 0.78122 0.98005 -0.22300
H 	H 	0.71260 0.78400 0.94250 0.10600
C 	C 	0.91064 0.81854 0.87040 0.34400
C 	C 	0.89489 0.87648 0.87342 -0.18500
C 	C 	0.97143 0.91008 0.86351 0.13700
H 	H 	0.03060 0.89560 0.85220 -0.00200
C 	C 	0.96240 0.96429 0.86998 -0.25300
H 	H 	0.01420 0.98720 0.86200 0.12500
C 	C 	0.87671 0.98483 0.88827 0.27500
C 	C 	0.79918 0.95204 0.89859 -0.24500
H 	H 	0.74080 0.96650 0.91110 0.12900
C 	C 	0.80862 0.89788 0.89036 0.13000
H 	H 	0.75560 0.87510 0.89630 0.00000
C 	C 	0.91539 0.07230 0.85851 0.28900
C 	C 	0.00050 0.09913 0.90347 -0.27000
H 	H 	0.02510 0.09430 0.96150 0.13800
C 	C 	0.04980 0.13329 0.86227 0.15600
H 	H 	0.10850 0.15210 0.89250 -0.01100
C 	C 	0.01413 0.14021 0.77734 -0.20500
C 	C 	0.92750 0.11277 0.73366 0.15800
H 	H 	0.90220 0.11750 0.67560 -0.00500
C 	C 	0.87800 0.07863 0.77422 -0.26900
H 	H 	0.81900 0.05980 0.74440 0.13600
C 	C 	0.06694 0.17613 0.73177 0.41600
C 	C 	0.71184 0.84956 0.70367 0.32600
C 	C 	0.69355 0.90593 0.67791 -0.16400
C 	C 	0.75988 0.93203 0.64075 0.12000
H 	H 	0.81890 0.91430 0.63470 0.00500
C 	C 	0.74039 0.98333 0.61268 -0.24000
H 	H 	0.78550 0.00090 0.58720 0.12100
C 	C 	0.65371 0.00917 0.62215 0.26700
C 	C 	0.58869 0.98462 0.66122 -0.25200
H 	H 	0.53120 0.00290 0.66930 0.12000
C 	C 	0.60916 0.93271 0.68844 0.11900
H 	H 	0.56460 0.91540 0.71470 0.00100
C 	C 	0.55754 0.08909 0.60244 0.29800
C 	C 	0.57000 0.11555 0.67580 -0.28100
H 	H 	0.63210 0.11270 0.71840 0.14500
C 	C 	0.49090 0.14638 0.68670 0.17100
H 	H 	0.49870 0.16510 0.73710 -0.01200
C 	C 	0.40027 0.15025 0.62480 -0.21500
C 	C 	0.39070 0.12436 0.55060 0.16400
H 	H 	0.32940 0.12760 0.50730 -0.00800
C 	C 	0.47010 0.09363 0.53898 -0.28100
H 	H 	0.46400 0.07600 0.48790 0.13700
C 	C 	0.31383 0.18194 0.63862 0.41600
Co	Co	0.10481 0.21824 0.59094 1.15600
Co	Co	0.25295 0.25575 0.76047 1.16800
O 	O 	0.74006 0.29408 0.21410 -0.26400
O 	O 	0.63580 0.32208 0.63712 -0.26100
O 	O 	0.16714 0.28743 0.63306 -0.52700
O 	O 	0.00394 0.29955 0.62490 -0.35600
O 	O 	0.13573 0.53853 0.60044 -0.29900
O 	O 	0.96634 0.67596 0.84638 -0.47900
O 	O 	0.85975 0.70399 0.72813 -0.47200
O 	O 	0.35007 0.32496 0.76578 -0.38200
O 	O 	0.21001 0.32607 0.80650 -0.39300
O 	O 	0.36134 0.55955 0.91064 -0.31000
O 	O 	0.77273 0.67723 0.91311 -0.47100
O 	O 	0.66672 0.71147 0.79831 -0.47300
N 	N 	0.02207 0.22401 0.47153 -0.27100
N 	N 	0.87264 0.23718 0.22019 -0.27100
H 	H 	0.89860 0.21680 0.18860 0.15900
N 	N 	0.47511 0.29589 0.63235 -0.26800
H 	H 	0.43320 0.29110 0.66340 0.14700
N 	N 	0.33595 0.26697 0.38117 -0.24400
C 	C 	0.94278 0.25743 0.44537 0.11200
H 	H 	0.92370 0.27860 0.48550 -0.01300
C 	C 	0.88767 0.26279 0.36392 -0.22200
H 	H 	0.83170 0.28660 0.34870 0.12700
C 	C 	0.91587 0.23250 0.30419 0.22400
C 	C 	0.99723 0.19708 0.33084 -0.22500
H 	H 	0.01740 0.17520 0.29220 0.12200
C 	C 	0.04758 0.19429 0.41348 0.11700
H 	H 	0.10300 0.17030 0.43060 -0.01200
C 	C 	0.79338 0.26996 0.17939 0.30100
C 	C 	0.78296 0.27248 0.08776 -0.28200
H 	H 	0.85140 0.27850 0.07960 0.11200
H 	H 	0.75830 0.23770 0.06300 0.12100
C 	C 	0.71140 0.31515 0.04162 -0.00500
H 	H 	0.64170 0.30870 0.04670 0.04700
H 	H 	0.73430 0.35020 0.06620 0.05000
C 	C 	0.71000 0.31515 0.95056 -0.09800
H 	H 	0.78100 0.31840 0.94660 0.05800
H 	H 	0.68300 0.28070 0.92590 0.05600
C 	C 	0.64620 0.35949 0.90001 -0.14400
H 	H 	0.57510 0.35650 0.90360 0.07600
H 	H 	0.67330 0.39400 0.92400 0.07600
C 	C 	0.64640 0.35791 0.80878 0.03700
H 	H 	0.71760 0.35920 0.80510 0.02800
H 	H 	0.61030 0.38940 0.78010 0.02400
C 	C 	0.59480 0.30804 0.76599 -0.31300
H 	H 	0.52990 0.30270 0.78070 0.13000
H 	H 	0.63920 0.27720 0.78690 0.13300
C 	C 	0.57265 0.30991 0.67318 0.30700
C 	C 	0.43332 0.28813 0.54739 0.22200
C 	C 	0.48904 0.28519 0.48915 -0.22200
H 	H 	0.56080 0.29040 0.50490 0.12400
C 	C 	0.43691 0.27456 0.40787 0.12600
H 	H 	0.47520 0.27250 0.36850 -0.01800
C 	C 	0.28357 0.27031 0.43783 0.12200
H 	H 	0.21190 0.26490 0.42040 -0.01500
C 	C 	0.32805 0.28122 0.51995 -0.22300
H 	H 	0.28740 0.28400 0.55750 0.10600
C 	C 	0.08936 0.31854 0.62960 0.34400
C 	C 	0.10511 0.37648 0.62658 -0.18500
C 	C 	0.02857 0.41008 0.63649 0.13800
H 	H 	0.96940 0.39560 0.64780 -0.00200
C 	C 	0.03760 0.46429 0.63002 -0.25400
H 	H 	0.98580 0.48720 0.63800 0.12600
C 	C 	0.12329 0.48483 0.61173 0.27600
C 	C 	0.20082 0.45204 0.60141 -0.24600
H 	H 	0.25920 0.46650 0.58890 0.12900
C 	C 	0.19138 0.39788 0.60964 0.13000
H 	H 	0.24440 0.37510 0.60370 0.00000
C 	C 	0.08461 0.57230 0.64149 0.29100
C 	C 	0.99950 0.59913 0.59653 -0.27400
H 	H 	0.97490 0.59430 0.53850 0.13900
C 	C 	0.95020 0.63329 0.63773 0.15900
H 	H 	0.89150 0.65210 0.60750 -0.01200
C 	C 	0.98587 0.64021 0.72266 -0.20800
C 	C 	0.07250 0.61277 0.76634 0.16100
H 	H 	0.09780 0.61750 0.82440 -0.00600
C 	C 	0.12200 0.57863 0.72578 -0.27100
H 	H 	0.18100 0.55980 0.75560 0.13600
C 	C 	0.93306 0.67613 0.76823 0.41700
C 	C 	0.28816 0.34956 0.79633 0.32600
C 	C 	0.30645 0.40593 0.82209 -0.16500
C 	C 	0.24012 0.43203 0.85925 0.12000
H 	H 	0.18110 0.41430 0.86530 0.00500
C 	C 	0.25961 0.48333 0.88732 -0.24200
H 	H 	0.21450 0.50090 0.91280 0.12200
C 	C 	0.34629 0.50917 0.87785 0.26800
C 	C 	0.41131 0.48462 0.83878 -0.25200
H 	H 	0.46880 0.50290 0.83070 0.12000
C 	C 	0.39084 0.43271 0.81156 0.11900
H 	H 	0.43540 0.41540 0.78530 0.00100
C 	C 	0.44246 0.58909 0.89756 0.29800
C 	C 	0.43000 0.61555 0.82420 -0.28200
H 	H 	0.36790 0.61270 0.78160 0.14500
C 	C 	0.50910 0.64638 0.81330 0.17100
H 	H 	0.50130 0.66510 0.76290 -0.01200
C 	C 	0.59973 0.65025 0.87520 -0.21600
C 	C 	0.60930 0.62436 0.94940 0.16500
H 	H 	0.67060 0.62760 0.99270 -0.00800
C 	C 	0.52990 0.59363 0.96102 -0.28200
H 	H 	0.53600 0.57600 0.01210 0.13800
C 	C 	0.68617 0.68194 0.86138 0.41600
