data_crystal

_cell_length_a 16.06850
_cell_length_b 14.62580
_cell_length_c 9.34570
_cell_angle_alpha 90.00000
_cell_angle_beta  117.79800
_cell_angle_gamma 90.00000

_symmetry_space_group_name_	'P 1'
_symmetry_space_group_name_H-M	'P 1'

loop_
_symmetry_equiv_pos_as_xyz
  x,y,z

loop_
_atom_site_label
_atom_site_type_symbol
_atom_site_fract_x
_atom_site_fract_y
_atom_site_fract_z
_atom_site_charge
O 	O 	0.60729 0.94682 0.98070 -0.52700
O 	O 	0.60016 0.03281 0.17100 -0.51700
C 	C 	0.63410 0.96890 0.12420 0.46200
C 	C 	0.71560 0.91560 0.25190 -0.17300
C 	C 	0.74170 0.83150 0.21550 0.08800
H 	H 	0.71180 0.80990 0.10980 0.00600
C 	C 	0.81200 0.77960 0.33560 -0.13800
H 	H 	0.82810 0.72300 0.31010 0.08400
C 	C 	0.85860 0.81190 0.49440 0.07600
C 	C 	0.83270 0.89670 0.52890 -0.12600
H 	H 	0.86390 0.91960 0.63370 0.10700
C 	C 	0.76150 0.94740 0.40970 0.07600
H 	H 	0.74420 0.00330 0.43560 0.02300
C 	C 	0.93410 0.75870 0.62710 0.09000
C 	C 	0.93590 0.66370 0.62640 0.09500
H 	H 	0.89090 0.63260 0.53690 0.01000
O 	O 	0.10729 0.44682 0.98070 -0.55700
O 	O 	0.10016 0.53281 0.17100 -0.54900
C 	C 	0.13410 0.46890 0.12420 0.47200
C 	C 	0.21560 0.41560 0.25190 -0.19100
C 	C 	0.24170 0.33150 0.21550 0.09600
H 	H 	0.21180 0.30990 0.10980 -0.00700
C 	C 	0.31200 0.27960 0.33560 -0.15800
H 	H 	0.32810 0.22300 0.31010 0.08100
C 	C 	0.35860 0.31190 0.49440 0.08400
C 	C 	0.33270 0.39670 0.52890 -0.14800
H 	H 	0.36390 0.41960 0.63370 0.09100
C 	C 	0.26150 0.44740 0.40970 0.08600
H 	H 	0.24420 0.50330 0.43560 0.01300
C 	C 	0.43410 0.25870 0.62710 0.02000
C 	C 	0.43590 0.16370 0.62640 -0.00600
H 	H 	0.39090 0.13260 0.53690 0.03200
O 	O 	0.39271 0.94682 0.51930 -0.52800
O 	O 	0.39984 0.03281 0.32900 -0.52100
C 	C 	0.36590 0.96890 0.37580 0.46100
C 	C 	0.28440 0.91560 0.24810 -0.17500
C 	C 	0.25830 0.83150 0.28450 0.08000
H 	H 	0.28820 0.80990 0.39020 0.00300
C 	C 	0.18800 0.77960 0.16440 -0.14900
H 	H 	0.17190 0.72300 0.18990 0.07200
C 	C 	0.14140 0.81190 0.00560 0.06400
C 	C 	0.16730 0.89670 0.97110 -0.13300
H 	H 	0.13610 0.91960 0.86630 0.07300
C 	C 	0.23850 0.94740 0.09030 0.06000
H 	H 	0.25580 0.00330 0.06440 0.02000
C 	C 	0.06590 0.75870 0.87290 0.00800
C 	C 	0.06410 0.66370 0.87360 -0.02800
H 	H 	0.10910 0.63260 0.96310 0.03300
O 	O 	0.89271 0.44682 0.51930 -0.49100
O 	O 	0.89984 0.53281 0.32900 -0.48300
C 	C 	0.86590 0.46890 0.37580 0.46600
C 	C 	0.78440 0.41560 0.24810 -0.17900
C 	C 	0.75830 0.33150 0.28450 0.09700
H 	H 	0.78820 0.30990 0.39020 0.01000
C 	C 	0.68800 0.27960 0.16440 -0.15800
H 	H 	0.67190 0.22300 0.18990 0.08600
C 	C 	0.64140 0.31190 0.00560 0.09400
C 	C 	0.66730 0.39670 0.97110 -0.16100
H 	H 	0.63610 0.41960 0.86630 0.09500
C 	C 	0.73850 0.44740 0.09030 0.09200
H 	H 	0.75580 0.50330 0.06440 0.01300
C 	C 	0.56590 0.25870 0.87290 0.01400
C 	C 	0.56410 0.16370 0.87360 -0.00500
H 	H 	0.60910 0.13260 0.96310 0.03000
O 	O 	0.39271 0.05318 0.01930 -0.52400
O 	O 	0.39984 0.96719 0.82900 -0.52000
C 	C 	0.36590 0.03110 0.87580 0.45800
C 	C 	0.28440 0.08440 0.74810 -0.17900
C 	C 	0.25830 0.16850 0.78450 0.08300
H 	H 	0.28820 0.19010 0.89020 0.00100
C 	C 	0.18800 0.22040 0.66440 -0.15300
H 	H 	0.17190 0.27700 0.68990 0.07300
C 	C 	0.14140 0.18810 0.50560 0.06800
C 	C 	0.16730 0.10330 0.47110 -0.14100
H 	H 	0.13610 0.08040 0.36630 0.07600
C 	C 	0.23850 0.05260 0.59030 0.07000
H 	H 	0.25580 0.99670 0.56440 0.01400
C 	C 	0.06590 0.24130 0.37290 0.00700
C 	C 	0.06410 0.33630 0.37360 -0.02900
H 	H 	0.10910 0.36740 0.46310 0.03300
O 	O 	0.89271 0.55318 0.01930 -0.48600
O 	O 	0.89984 0.46719 0.82900 -0.48200
C 	C 	0.86590 0.53110 0.87580 0.45700
C 	C 	0.78440 0.58440 0.74810 -0.16800
C 	C 	0.75830 0.66850 0.78450 0.08400
H 	H 	0.78820 0.69010 0.89020 0.01300
C 	C 	0.68800 0.72040 0.66440 -0.14600
H 	H 	0.67190 0.77700 0.68990 0.08100
C 	C 	0.64140 0.68810 0.50560 0.07600
C 	C 	0.66730 0.60330 0.47110 -0.13800
H 	H 	0.63610 0.58040 0.36630 0.08800
C 	C 	0.73850 0.55260 0.59030 0.07300
H 	H 	0.75580 0.49670 0.56440 0.01900
C 	C 	0.56590 0.74130 0.37290 0.02300
C 	C 	0.56410 0.83630 0.37360 -0.00900
H 	H 	0.60910 0.86740 0.46310 0.03400
O 	O 	0.60729 0.05318 0.48070 -0.52500
O 	O 	0.60016 0.96719 0.67100 -0.51900
C 	C 	0.63410 0.03110 0.62420 0.45900
C 	C 	0.71560 0.08440 0.75190 -0.15900
C 	C 	0.74170 0.16850 0.71550 0.07100
H 	H 	0.71180 0.19010 0.60980 0.01200
C 	C 	0.81200 0.22040 0.83560 -0.11900
H 	H 	0.82810 0.27700 0.81010 0.07600
C 	C 	0.85860 0.18810 0.99440 0.04700
C 	C 	0.83270 0.10330 0.02890 -0.09200
H 	H 	0.86390 0.08040 0.13370 0.09700
C 	C 	0.76150 0.05260 0.90970 0.04800
H 	H 	0.74420 0.99670 0.93560 0.03100
C 	C 	0.93410 0.24130 0.12710 0.10600
C 	C 	0.93590 0.33630 0.12640 0.09100
H 	H 	0.89090 0.36740 0.03690 0.01300
O 	O 	0.10729 0.55318 0.48070 -0.55500
O 	O 	0.10016 0.46719 0.67100 -0.54900
C 	C 	0.13410 0.53110 0.62420 0.46900
C 	C 	0.21560 0.58440 0.75190 -0.18800
C 	C 	0.24170 0.66850 0.71550 0.09300
H 	H 	0.21180 0.69010 0.60980 -0.00600
C 	C 	0.31200 0.72040 0.83560 -0.15500
H 	H 	0.32810 0.77700 0.81010 0.08000
C 	C 	0.35860 0.68810 0.99440 0.07900
C 	C 	0.33270 0.60330 0.02890 -0.14100
H 	H 	0.36390 0.58040 0.13370 0.09000
C 	C 	0.26150 0.55260 0.90970 0.08100
H 	H 	0.24420 0.49670 0.93560 0.01400
C 	C 	0.43410 0.74130 0.12710 0.02200
C 	C 	0.43590 0.83630 0.12640 -0.00800
H 	H 	0.39090 0.86740 0.03690 0.03300
Mg	Mg	0.50000 0.95728 0.75000 1.46800
Mg	Mg	-0.00000 0.45728 0.75000 1.45900
Mg	Mg	0.50000 0.04272 0.25000 1.46800
Mg	Mg	0.00000 0.54272 0.25000 1.45900
N 	N 	-0.00000 0.80620 0.75000 -0.18100
N 	N 	-0.00000 0.61580 0.75000 -0.27900
N 	N 	0.50000 0.30620 0.75000 -0.11200
N 	N 	0.50000 0.11580 0.75000 -0.20700
N 	N 	0.00000 0.19380 0.25000 -0.18400
N 	N 	0.00000 0.38420 0.25000 -0.27900
N 	N 	0.50000 0.69380 0.25000 -0.11300
N 	N 	0.50000 0.88420 0.25000 -0.20600
