data_crystal

_cell_length_a 32.59900
_cell_length_b 8.84490
_cell_length_c 34.24600
_cell_angle_alpha 90.00000
_cell_angle_beta  116.45700
_cell_angle_gamma 90.00000

_symmetry_space_group_name_	'P 1'
_symmetry_space_group_name_H-M	'P 1'

loop_
_symmetry_equiv_pos_as_xyz
  x,y,z

loop_
_atom_site_label
_atom_site_type_symbol
_atom_site_fract_x
_atom_site_fract_y
_atom_site_fract_z
_atom_site_charge
Sm	Sm	0.49338 0.87809 0.11836 1.81000
C 	C 	0.88943 0.64800 0.47635 -0.11300
C 	C 	0.58010 0.71820 0.24924 -0.04400
C 	C 	0.81170 0.89120 0.33292 -0.00600
H 	H 	0.80000 0.80310 0.31440 0.02500
H 	H 	0.84080 0.91870 0.33370 0.02600
C 	C 	0.57600 0.77510 0.28478 -0.01800
H 	H 	0.55470 0.84970 0.28170 0.05200
C 	C 	0.61096 0.60210 0.25313 -0.11100
H 	H 	0.61190 0.56250 0.22840 0.07100
C 	C 	0.68260 0.38430 0.26568 -0.01300
H 	H 	0.69590 0.46760 0.25670 0.02400
H 	H 	0.65530 0.35100 0.24050 0.02800
C 	C 	0.71630 0.25680 0.28240 -0.08700
C 	C 	0.76350 0.28890 0.30380 0.09200
C 	C 	0.77820 0.02110 0.31489 -0.10900
C 	C 	0.70040 0.10430 0.27876 0.08000
N 	N 	0.67064 0.43450 0.29975 -0.20800
H 	H 	0.68360 0.39110 0.32480 0.12300
C 	C 	0.85010 0.75740 0.40400 0.08600
C 	C 	0.85630 0.74330 0.44690 -0.06200
H 	H 	0.83790 0.79900 0.45590 0.07300
C 	C 	0.60520 0.71660 0.32570 -0.07700
N 	N 	0.81766 0.85730 0.37626 -0.20600
H 	H 	0.80010 0.90180 0.38540 0.12300
C 	C 	0.63990 0.54680 0.29390 0.10500
C 	C 	0.91780 0.56500 0.46308 0.01300
H 	H 	0.94090 0.50350 0.48280 0.03900
C 	C 	0.87770 0.67040 0.39113 -0.08900
H 	H 	0.87360 0.67610 0.36250 0.06100
C 	C 	0.79470 0.16650 0.32060 0.10100
C 	C 	0.73170 0.99020 0.29530 0.11600
C 	C 	0.89570 0.63550 0.52180 0.46400
C 	C 	0.78050 0.44990 0.31130 -0.57900
H 	H 	0.75560 0.51720 0.29510 0.19600
H 	H 	0.80400 0.46180 0.30190 0.19200
H 	H 	0.79280 0.47330 0.34190 0.19600
C 	C 	0.63640 0.60470 0.33015 -0.09600
H 	H 	0.65540 0.56720 0.35780 0.07200
C 	C 	0.71420 0.83080 0.29170 -0.61600
H 	H 	0.68640 0.83090 0.29490 0.20800
H 	H 	0.73680 0.76990 0.31420 0.21100
H 	H 	0.70820 0.79000 0.26370 0.20400
C 	C 	0.64910 0.07460 0.25810 -0.57000
H 	H 	0.63860 0.04760 0.22800 0.19500
H 	H 	0.63340 0.16410 0.26000 0.20200
H 	H 	0.64280 0.99330 0.27320 0.19300
C 	C 	0.84590 0.20210 0.34490 -0.59500
H 	H 	0.86110 0.12360 0.36570 0.20600
H 	H 	0.85010 0.29700 0.35980 0.20300
H 	H 	0.85850 0.20800 0.32440 0.19900
C 	C 	0.55034 0.77970 0.20400 0.29200
O 	O 	0.53003 0.90710 0.19979 -0.39900
O 	O 	0.54556 0.70330 0.17131 -0.44800
O 	O 	0.86433 0.70610 0.52807 -0.53600
H 	H 	0.87360 0.72240 0.55420 0.32300
C 	C 	0.60120 0.76950 0.36580 0.39700
O 	O 	0.63494 0.74890 0.40216 -0.32000
C 	C 	0.91090 0.57600 0.42032 -0.06900
O 	O 	0.92816 0.56990 0.54989 -0.52700
C 	C 	0.94080 0.48850 0.40530 0.30700
O 	O 	0.97213 0.40790 0.43189 -0.43800
O 	O 	0.93365 0.49750 0.36640 -0.44700
O 	O 	0.56481 0.82520 0.36111 -0.51100
Sm	Sm	0.99338 0.37809 0.11836 1.80900
C 	C 	0.38943 0.14800 0.47635 -0.11400
C 	C 	0.08010 0.21820 0.24924 -0.04500
C 	C 	0.31170 0.39120 0.33292 -0.00500
H 	H 	0.30000 0.30310 0.31440 0.02300
H 	H 	0.34080 0.41870 0.33370 0.02500
C 	C 	0.07600 0.27510 0.28478 -0.01900
H 	H 	0.05470 0.34970 0.28170 0.05100
C 	C 	0.11096 0.10210 0.25313 -0.11200
H 	H 	0.11190 0.06250 0.22840 0.07000
C 	C 	0.18260 0.88430 0.26568 -0.01400
H 	H 	0.19590 0.96760 0.25670 0.02300
H 	H 	0.15530 0.85100 0.24050 0.02700
C 	C 	0.21630 0.75680 0.28240 -0.08700
C 	C 	0.26350 0.78890 0.30380 0.09000
C 	C 	0.27820 0.52110 0.31489 -0.11200
C 	C 	0.20040 0.60430 0.27876 0.07800
N 	N 	0.17064 0.93450 0.29975 -0.20800
H 	H 	0.18360 0.89110 0.32480 0.12300
C 	C 	0.35010 0.25740 0.40400 0.08600
C 	C 	0.35630 0.24330 0.44690 -0.06200
H 	H 	0.33790 0.29900 0.45590 0.07400
C 	C 	0.10520 0.21660 0.32570 -0.07700
N 	N 	0.31766 0.35730 0.37626 -0.20600
H 	H 	0.30010 0.40180 0.38540 0.12300
C 	C 	0.13990 0.04680 0.29390 0.10500
C 	C 	0.41780 0.06500 0.46308 0.01300
H 	H 	0.44090 0.00350 0.48280 0.03900
C 	C 	0.37770 0.17040 0.39113 -0.09000
H 	H 	0.37360 0.17610 0.36250 0.06100
C 	C 	0.29470 0.66650 0.32060 0.10200
C 	C 	0.23170 0.49020 0.29530 0.11800
C 	C 	0.39570 0.13550 0.52180 0.46400
C 	C 	0.28050 0.94990 0.31130 -0.57800
H 	H 	0.25560 0.01720 0.29510 0.19600
H 	H 	0.30400 0.96180 0.30190 0.19100
H 	H 	0.29280 0.97330 0.34190 0.19500
C 	C 	0.13640 0.10470 0.33015 -0.09600
H 	H 	0.15540 0.06720 0.35780 0.07100
C 	C 	0.21420 0.33080 0.29170 -0.61900
H 	H 	0.18640 0.33090 0.29490 0.20900
H 	H 	0.23680 0.26990 0.31420 0.21200
H 	H 	0.20820 0.29000 0.26370 0.20400
C 	C 	0.14910 0.57460 0.25810 -0.57300
H 	H 	0.13860 0.54760 0.22800 0.19600
H 	H 	0.13340 0.66410 0.26000 0.20300
H 	H 	0.14280 0.49330 0.27320 0.19500
C 	C 	0.34590 0.70210 0.34490 -0.59600
H 	H 	0.36110 0.62360 0.36570 0.20600
H 	H 	0.35010 0.79700 0.35980 0.20400
H 	H 	0.35850 0.70800 0.32440 0.20000
C 	C 	0.05034 0.27970 0.20400 0.29200
O 	O 	0.03003 0.40710 0.19979 -0.39800
O 	O 	0.04556 0.20330 0.17131 -0.44800
O 	O 	0.36433 0.20610 0.52807 -0.53600
H 	H 	0.37360 0.22240 0.55420 0.32300
C 	C 	0.10120 0.26950 0.36580 0.39700
O 	O 	0.13494 0.24890 0.40216 -0.32000
C 	C 	0.41090 0.07600 0.42032 -0.06800
O 	O 	0.42816 0.06990 0.54989 -0.52700
C 	C 	0.44080 0.98850 0.40530 0.30600
O 	O 	0.47213 0.90790 0.43189 -0.43800
O 	O 	0.43365 0.99750 0.36640 -0.44700
O 	O 	0.06481 0.32520 0.36111 -0.51100
Sm	Sm	0.50662 0.87809 0.38164 1.80900
C 	C 	0.11057 0.64800 0.02365 -0.11300
C 	C 	0.41990 0.71820 0.25076 -0.04500
C 	C 	0.18830 0.89120 0.16708 -0.00700
H 	H 	0.20000 0.80310 0.18560 0.02400
H 	H 	0.15920 0.91870 0.16630 0.02500
C 	C 	0.42400 0.77510 0.21522 -0.01900
H 	H 	0.44530 0.84970 0.21830 0.05100
C 	C 	0.38904 0.60210 0.24687 -0.11200
H 	H 	0.38810 0.56250 0.27160 0.07000
C 	C 	0.31740 0.38430 0.23432 -0.01400
H 	H 	0.30410 0.46760 0.24330 0.02300
H 	H 	0.34470 0.35100 0.25950 0.02700
C 	C 	0.28370 0.25680 0.21760 -0.08800
C 	C 	0.23650 0.28890 0.19620 0.09100
C 	C 	0.22180 0.02110 0.18511 -0.11000
C 	C 	0.29960 0.10430 0.22124 0.07900
N 	N 	0.32936 0.43450 0.20025 -0.20900
H 	H 	0.31640 0.39110 0.17520 0.12300
C 	C 	0.14990 0.75740 0.09600 0.08600
C 	C 	0.14370 0.74330 0.05310 -0.06200
H 	H 	0.16210 0.79900 0.04410 0.07400
C 	C 	0.39480 0.71660 0.17430 -0.07700
N 	N 	0.18234 0.85730 0.12374 -0.20600
H 	H 	0.19990 0.90180 0.11460 0.12300
C 	C 	0.36010 0.54680 0.20610 0.10500
C 	C 	0.08220 0.56500 0.03692 0.01300
H 	H 	0.05910 0.50350 0.01720 0.04000
C 	C 	0.12230 0.67040 0.10887 -0.09000
H 	H 	0.12640 0.67610 0.13750 0.06100
C 	C 	0.20530 0.16650 0.17940 0.10100
C 	C 	0.26830 0.99020 0.20470 0.11600
C 	C 	0.10430 0.63550 0.97820 0.46300
C 	C 	0.21950 0.44990 0.18870 -0.57900
H 	H 	0.24440 0.51720 0.20490 0.19600
H 	H 	0.19600 0.46180 0.19810 0.19200
H 	H 	0.20720 0.47330 0.15810 0.19600
C 	C 	0.36360 0.60470 0.16985 -0.09600
H 	H 	0.34460 0.56720 0.14220 0.07200
C 	C 	0.28580 0.83080 0.20830 -0.61600
H 	H 	0.31360 0.83090 0.20510 0.20800
H 	H 	0.26320 0.76990 0.18580 0.21100
H 	H 	0.29180 0.79000 0.23630 0.20400
C 	C 	0.35090 0.07460 0.24190 -0.56900
H 	H 	0.36140 0.04760 0.27200 0.19500
H 	H 	0.36660 0.16410 0.24000 0.20200
H 	H 	0.35720 0.99330 0.22680 0.19300
C 	C 	0.15410 0.20210 0.15510 -0.59500
H 	H 	0.13890 0.12360 0.13430 0.20600
H 	H 	0.14990 0.29700 0.14020 0.20300
H 	H 	0.14150 0.20800 0.17560 0.20000
C 	C 	0.44966 0.77970 0.29600 0.29200
O 	O 	0.46997 0.90710 0.30021 -0.39900
O 	O 	0.45444 0.70330 0.32869 -0.44800
O 	O 	0.13567 0.70610 0.97193 -0.53600
H 	H 	0.12640 0.72240 0.94580 0.32300
C 	C 	0.39880 0.76950 0.13420 0.39700
O 	O 	0.36506 0.74890 0.09784 -0.32000
C 	C 	0.08910 0.57600 0.07968 -0.06800
O 	O 	0.07184 0.56990 0.95011 -0.52700
C 	C 	0.05920 0.48850 0.09470 0.30600
O 	O 	0.02787 0.40790 0.06811 -0.43800
O 	O 	0.06635 0.49750 0.13360 -0.44700
O 	O 	0.43519 0.82520 0.13889 -0.51100
Sm	Sm	0.00662 0.37809 0.38164 1.81200
C 	C 	0.61057 0.14800 0.02365 -0.11500
C 	C 	0.91990 0.21820 0.25076 -0.04500
C 	C 	0.68830 0.39120 0.16708 -0.00500
H 	H 	0.70000 0.30310 0.18560 0.02300
H 	H 	0.65920 0.41870 0.16630 0.02500
C 	C 	0.92400 0.27510 0.21522 -0.01900
H 	H 	0.94530 0.34970 0.21830 0.05100
C 	C 	0.88904 0.10210 0.24687 -0.11200
H 	H 	0.88810 0.06250 0.27160 0.07000
C 	C 	0.81740 0.88430 0.23432 -0.01400
H 	H 	0.80410 0.96760 0.24330 0.02300
H 	H 	0.84470 0.85100 0.25950 0.02700
C 	C 	0.78370 0.75680 0.21760 -0.08700
C 	C 	0.73650 0.78890 0.19620 0.09000
C 	C 	0.72180 0.52110 0.18511 -0.11200
C 	C 	0.79960 0.60430 0.22124 0.07800
N 	N 	0.82936 0.93450 0.20025 -0.20800
H 	H 	0.81640 0.89110 0.17520 0.12300
C 	C 	0.64990 0.25740 0.09600 0.08600
C 	C 	0.64370 0.24330 0.05310 -0.06200
H 	H 	0.66210 0.29900 0.04410 0.07300
C 	C 	0.89480 0.21660 0.17430 -0.07700
N 	N 	0.68234 0.35730 0.12374 -0.20600
H 	H 	0.69990 0.40180 0.11460 0.12300
C 	C 	0.86010 0.04680 0.20610 0.10500
C 	C 	0.58220 0.06500 0.03692 0.01300
H 	H 	0.55910 0.00350 0.01720 0.03900
C 	C 	0.62230 0.17040 0.10887 -0.09000
H 	H 	0.62640 0.17610 0.13750 0.06100
C 	C 	0.70530 0.66650 0.17940 0.10200
C 	C 	0.76830 0.49020 0.20470 0.11800
C 	C 	0.60430 0.13550 0.97820 0.46400
C 	C 	0.71950 0.94990 0.18870 -0.57800
H 	H 	0.74440 0.01720 0.20490 0.19600
H 	H 	0.69600 0.96180 0.19810 0.19100
H 	H 	0.70720 0.97330 0.15810 0.19500
C 	C 	0.86360 0.10470 0.16985 -0.09500
H 	H 	0.84460 0.06720 0.14220 0.07100
C 	C 	0.78580 0.33080 0.20830 -0.61900
H 	H 	0.81360 0.33090 0.20510 0.20900
H 	H 	0.76320 0.26990 0.18580 0.21200
H 	H 	0.79180 0.29000 0.23630 0.20400
C 	C 	0.85090 0.57460 0.24190 -0.57300
H 	H 	0.86140 0.54760 0.27200 0.19600
H 	H 	0.86660 0.66410 0.24000 0.20300
H 	H 	0.85720 0.49330 0.22680 0.19500
C 	C 	0.65410 0.70210 0.15510 -0.59600
H 	H 	0.63890 0.62360 0.13430 0.20600
H 	H 	0.64990 0.79700 0.14020 0.20400
H 	H 	0.64150 0.70800 0.17560 0.20000
C 	C 	0.94966 0.27970 0.29600 0.29200
O 	O 	0.96997 0.40710 0.30021 -0.39900
O 	O 	0.95444 0.20330 0.32869 -0.44800
O 	O 	0.63567 0.20610 0.97193 -0.53600
H 	H 	0.62640 0.22240 0.94580 0.32300
C 	C 	0.89880 0.26950 0.13420 0.39700
O 	O 	0.86506 0.24890 0.09784 -0.32000
C 	C 	0.58910 0.07600 0.07968 -0.06800
O 	O 	0.57184 0.06990 0.95011 -0.52800
C 	C 	0.55920 0.98850 0.09470 0.30600
O 	O 	0.52787 0.90790 0.06811 -0.43800
O 	O 	0.56635 0.99750 0.13360 -0.44700
O 	O 	0.93519 0.32520 0.13889 -0.51100
Sm	Sm	0.50662 0.12191 0.88164 1.80900
C 	C 	0.11057 0.35200 0.52365 -0.11400
C 	C 	0.41990 0.28180 0.75076 -0.04500
C 	C 	0.18830 0.10880 0.66708 -0.00700
H 	H 	0.20000 0.19690 0.68560 0.02400
H 	H 	0.15920 0.08130 0.66630 0.02500
C 	C 	0.42400 0.22490 0.71522 -0.01900
H 	H 	0.44530 0.15030 0.71830 0.05100
C 	C 	0.38904 0.39790 0.74687 -0.11200
H 	H 	0.38810 0.43750 0.77160 0.07000
C 	C 	0.31740 0.61570 0.73432 -0.01400
H 	H 	0.30410 0.53240 0.74330 0.02300
H 	H 	0.34470 0.64900 0.75950 0.02700
C 	C 	0.28370 0.74320 0.71760 -0.08800
C 	C 	0.23650 0.71110 0.69620 0.09100
C 	C 	0.22180 0.97890 0.68511 -0.11000
C 	C 	0.29960 0.89570 0.72124 0.07900
N 	N 	0.32936 0.56550 0.70025 -0.20900
H 	H 	0.31640 0.60890 0.67520 0.12300
C 	C 	0.14990 0.24260 0.59600 0.08600
C 	C 	0.14370 0.25670 0.55310 -0.06200
H 	H 	0.16210 0.20100 0.54410 0.07300
C 	C 	0.39480 0.28340 0.67430 -0.07700
N 	N 	0.18234 0.14270 0.62374 -0.20600
H 	H 	0.19990 0.09820 0.61460 0.12300
C 	C 	0.36010 0.45320 0.70610 0.10500
C 	C 	0.08220 0.43500 0.53692 0.01300
H 	H 	0.05910 0.49650 0.51720 0.03900
C 	C 	0.12230 0.32960 0.60887 -0.08900
H 	H 	0.12640 0.32390 0.63750 0.06100
C 	C 	0.20530 0.83350 0.67940 0.10100
C 	C 	0.26830 0.00980 0.70470 0.11600
C 	C 	0.10430 0.36450 0.47820 0.46400
C 	C 	0.21950 0.55010 0.68870 -0.57900
H 	H 	0.24440 0.48280 0.70490 0.19600
H 	H 	0.19600 0.53820 0.69810 0.19200
H 	H 	0.20720 0.52670 0.65810 0.19600
C 	C 	0.36360 0.39530 0.66985 -0.09600
H 	H 	0.34460 0.43280 0.64220 0.07200
C 	C 	0.28580 0.16920 0.70830 -0.61600
H 	H 	0.31360 0.16910 0.70510 0.20800
H 	H 	0.26320 0.23010 0.68580 0.21100
H 	H 	0.29180 0.21000 0.73630 0.20400
C 	C 	0.35090 0.92540 0.74190 -0.57000
H 	H 	0.36140 0.95240 0.77200 0.19500
H 	H 	0.36660 0.83590 0.74000 0.20200
H 	H 	0.35720 0.00670 0.72680 0.19300
C 	C 	0.15410 0.79790 0.65510 -0.59500
H 	H 	0.13890 0.87640 0.63430 0.20600
H 	H 	0.14990 0.70300 0.64020 0.20300
H 	H 	0.14150 0.79200 0.67560 0.19900
C 	C 	0.44966 0.22030 0.79600 0.29200
O 	O 	0.46997 0.09290 0.80021 -0.39900
O 	O 	0.45444 0.29670 0.82869 -0.44800
O 	O 	0.13567 0.29390 0.47193 -0.53600
H 	H 	0.12640 0.27760 0.44580 0.32300
C 	C 	0.39880 0.23050 0.63420 0.39700
O 	O 	0.36506 0.25110 0.59784 -0.32000
C 	C 	0.08910 0.42400 0.57968 -0.06900
O 	O 	0.07184 0.43010 0.45011 -0.52700
C 	C 	0.05920 0.51150 0.59470 0.30700
O 	O 	0.02787 0.59210 0.56811 -0.43800
O 	O 	0.06635 0.50250 0.63360 -0.44700
O 	O 	0.43519 0.17480 0.63889 -0.51100
Sm	Sm	0.00662 0.62191 0.88164 1.80900
C 	C 	0.61057 0.85200 0.52365 -0.11400
C 	C 	0.91990 0.78180 0.75076 -0.04500
C 	C 	0.68830 0.60880 0.66708 -0.00500
H 	H 	0.70000 0.69690 0.68560 0.02300
H 	H 	0.65920 0.58130 0.66630 0.02500
C 	C 	0.92400 0.72490 0.71522 -0.01900
H 	H 	0.94530 0.65030 0.71830 0.05100
C 	C 	0.88904 0.89790 0.74687 -0.11200
H 	H 	0.88810 0.93750 0.77160 0.07000
C 	C 	0.81740 0.11570 0.73432 -0.01400
H 	H 	0.80410 0.03240 0.74330 0.02300
H 	H 	0.84470 0.14900 0.75950 0.02700
C 	C 	0.78370 0.24320 0.71760 -0.08700
C 	C 	0.73650 0.21110 0.69620 0.09000
C 	C 	0.72180 0.47890 0.68511 -0.11200
C 	C 	0.79960 0.39570 0.72124 0.07800
N 	N 	0.82936 0.06550 0.70025 -0.20800
H 	H 	0.81640 0.10890 0.67520 0.12300
C 	C 	0.64990 0.74260 0.59600 0.08600
C 	C 	0.64370 0.75670 0.55310 -0.06200
H 	H 	0.66210 0.70100 0.54410 0.07400
C 	C 	0.89480 0.78340 0.67430 -0.07700
N 	N 	0.68234 0.64270 0.62374 -0.20600
H 	H 	0.69990 0.59820 0.61460 0.12300
C 	C 	0.86010 0.95320 0.70610 0.10500
C 	C 	0.58220 0.93500 0.53692 0.01300
H 	H 	0.55910 0.99650 0.51720 0.03900
C 	C 	0.62230 0.82960 0.60887 -0.09000
H 	H 	0.62640 0.82390 0.63750 0.06100
C 	C 	0.70530 0.33350 0.67940 0.10200
C 	C 	0.76830 0.50980 0.70470 0.11800
C 	C 	0.60430 0.86450 0.47820 0.46400
C 	C 	0.71950 0.05010 0.68870 -0.57800
H 	H 	0.74440 0.98280 0.70490 0.19600
H 	H 	0.69600 0.03820 0.69810 0.19100
H 	H 	0.70720 0.02670 0.65810 0.19500
C 	C 	0.86360 0.89530 0.66985 -0.09600
H 	H 	0.84460 0.93280 0.64220 0.07100
C 	C 	0.78580 0.66920 0.70830 -0.61900
H 	H 	0.81360 0.66910 0.70510 0.20900
H 	H 	0.76320 0.73010 0.68580 0.21200
H 	H 	0.79180 0.71000 0.73630 0.20400
C 	C 	0.85090 0.42540 0.74190 -0.57300
H 	H 	0.86140 0.45240 0.77200 0.19600
H 	H 	0.86660 0.33590 0.74000 0.20300
H 	H 	0.85720 0.50670 0.72680 0.19500
C 	C 	0.65410 0.29790 0.65510 -0.59600
H 	H 	0.63890 0.37640 0.63430 0.20600
H 	H 	0.64990 0.20300 0.64020 0.20400
H 	H 	0.64150 0.29200 0.67560 0.20000
C 	C 	0.94966 0.72030 0.79600 0.29200
O 	O 	0.96997 0.59290 0.80021 -0.39800
O 	O 	0.95444 0.79670 0.82869 -0.44800
O 	O 	0.63567 0.79390 0.47193 -0.53600
H 	H 	0.62640 0.77760 0.44580 0.32300
C 	C 	0.89880 0.73050 0.63420 0.39700
O 	O 	0.86506 0.75110 0.59784 -0.32000
C 	C 	0.58910 0.92400 0.57968 -0.06800
O 	O 	0.57184 0.93010 0.45011 -0.52700
C 	C 	0.55920 0.01150 0.59470 0.30600
O 	O 	0.52787 0.09210 0.56811 -0.43800
O 	O 	0.56635 0.00250 0.63360 -0.44700
O 	O 	0.93519 0.67480 0.63889 -0.51100
Sm	Sm	0.49338 0.12191 0.61836 1.80900
C 	C 	0.88943 0.35200 0.97635 -0.11300
C 	C 	0.58010 0.28180 0.74924 -0.04500
C 	C 	0.81170 0.10880 0.83292 -0.00700
H 	H 	0.80000 0.19690 0.81440 0.02400
H 	H 	0.84080 0.08130 0.83370 0.02500
C 	C 	0.57600 0.22490 0.78478 -0.01900
H 	H 	0.55470 0.15030 0.78170 0.05100
C 	C 	0.61096 0.39790 0.75313 -0.11200
H 	H 	0.61190 0.43750 0.72840 0.07000
C 	C 	0.68260 0.61570 0.76568 -0.01400
H 	H 	0.69590 0.53240 0.75670 0.02300
H 	H 	0.65530 0.64900 0.74050 0.02700
C 	C 	0.71630 0.74320 0.78240 -0.08800
C 	C 	0.76350 0.71110 0.80380 0.09100
C 	C 	0.77820 0.97890 0.81489 -0.11000
C 	C 	0.70040 0.89570 0.77876 0.07900
N 	N 	0.67064 0.56550 0.79975 -0.20900
H 	H 	0.68360 0.60890 0.82480 0.12300
C 	C 	0.85010 0.24260 0.90400 0.08600
C 	C 	0.85630 0.25670 0.94690 -0.06200
H 	H 	0.83790 0.20100 0.95590 0.07400
C 	C 	0.60520 0.28340 0.82570 -0.07700
N 	N 	0.81766 0.14270 0.87626 -0.20600
H 	H 	0.80010 0.09820 0.88540 0.12300
C 	C 	0.63990 0.45320 0.79390 0.10500
C 	C 	0.91780 0.43500 0.96308 0.01300
H 	H 	0.94090 0.49650 0.98280 0.04000
C 	C 	0.87770 0.32960 0.89113 -0.09000
H 	H 	0.87360 0.32390 0.86250 0.06100
C 	C 	0.79470 0.83350 0.82060 0.10100
C 	C 	0.73170 0.00980 0.79530 0.11600
C 	C 	0.89570 0.36450 0.02180 0.46300
C 	C 	0.78050 0.55010 0.81130 -0.57900
H 	H 	0.75560 0.48280 0.79510 0.19600
H 	H 	0.80400 0.53820 0.80190 0.19200
H 	H 	0.79280 0.52670 0.84190 0.19600
C 	C 	0.63640 0.39530 0.83015 -0.09600
H 	H 	0.65540 0.43280 0.85780 0.07200
C 	C 	0.71420 0.16920 0.79170 -0.61600
H 	H 	0.68640 0.16910 0.79490 0.20800
H 	H 	0.73680 0.23010 0.81420 0.21100
H 	H 	0.70820 0.21000 0.76370 0.20400
C 	C 	0.64910 0.92540 0.75810 -0.56900
H 	H 	0.63860 0.95240 0.72800 0.19500
H 	H 	0.63340 0.83590 0.76000 0.20200
H 	H 	0.64280 0.00670 0.77320 0.19300
C 	C 	0.84590 0.79790 0.84490 -0.59500
H 	H 	0.86110 0.87640 0.86570 0.20600
H 	H 	0.85010 0.70300 0.85980 0.20300
H 	H 	0.85850 0.79200 0.82440 0.20000
C 	C 	0.55034 0.22030 0.70400 0.29200
O 	O 	0.53003 0.09290 0.69979 -0.39900
O 	O 	0.54556 0.29670 0.67131 -0.44800
O 	O 	0.86433 0.29390 0.02807 -0.53600
H 	H 	0.87360 0.27760 0.05420 0.32300
C 	C 	0.60120 0.23050 0.86580 0.39700
O 	O 	0.63494 0.25110 0.90216 -0.32000
C 	C 	0.91090 0.42400 0.92032 -0.06800
O 	O 	0.92816 0.43010 0.04989 -0.52700
C 	C 	0.94080 0.51150 0.90530 0.30600
O 	O 	0.97213 0.59210 0.93189 -0.43800
O 	O 	0.93365 0.50250 0.86640 -0.44700
O 	O 	0.56481 0.17480 0.86111 -0.51100
Sm	Sm	0.99338 0.62191 0.61836 1.81200
C 	C 	0.38943 0.85200 0.97635 -0.11500
C 	C 	0.08010 0.78180 0.74924 -0.04500
C 	C 	0.31170 0.60880 0.83292 -0.00500
H 	H 	0.30000 0.69690 0.81440 0.02300
H 	H 	0.34080 0.58130 0.83370 0.02500
C 	C 	0.07600 0.72490 0.78478 -0.01900
H 	H 	0.05470 0.65030 0.78170 0.05100
C 	C 	0.11096 0.89790 0.75313 -0.11200
H 	H 	0.11190 0.93750 0.72840 0.07000
C 	C 	0.18260 0.11570 0.76568 -0.01400
H 	H 	0.19590 0.03240 0.75670 0.02300
H 	H 	0.15530 0.14900 0.74050 0.02700
C 	C 	0.21630 0.24320 0.78240 -0.08700
C 	C 	0.26350 0.21110 0.80380 0.09000
C 	C 	0.27820 0.47890 0.81489 -0.11200
C 	C 	0.20040 0.39570 0.77876 0.07800
N 	N 	0.17064 0.06550 0.79975 -0.20800
H 	H 	0.18360 0.10890 0.82480 0.12300
C 	C 	0.35010 0.74260 0.90400 0.08600
C 	C 	0.35630 0.75670 0.94690 -0.06200
H 	H 	0.33790 0.70100 0.95590 0.07300
C 	C 	0.10520 0.78340 0.82570 -0.07700
N 	N 	0.31766 0.64270 0.87626 -0.20600
H 	H 	0.30010 0.59820 0.88540 0.12300
C 	C 	0.13990 0.95320 0.79390 0.10500
C 	C 	0.41780 0.93500 0.96308 0.01300
H 	H 	0.44090 0.99650 0.98280 0.03900
C 	C 	0.37770 0.82960 0.89113 -0.09000
H 	H 	0.37360 0.82390 0.86250 0.06100
C 	C 	0.29470 0.33350 0.82060 0.10200
C 	C 	0.23170 0.50980 0.79530 0.11800
C 	C 	0.39570 0.86450 0.02180 0.46400
C 	C 	0.28050 0.05010 0.81130 -0.57800
H 	H 	0.25560 0.98280 0.79510 0.19600
H 	H 	0.30400 0.03820 0.80190 0.19100
H 	H 	0.29280 0.02670 0.84190 0.19500
C 	C 	0.13640 0.89530 0.83015 -0.09500
H 	H 	0.15540 0.93280 0.85780 0.07100
C 	C 	0.21420 0.66920 0.79170 -0.61900
H 	H 	0.18640 0.66910 0.79490 0.20900
H 	H 	0.23680 0.73010 0.81420 0.21200
H 	H 	0.20820 0.71000 0.76370 0.20400
C 	C 	0.14910 0.42540 0.75810 -0.57300
H 	H 	0.13860 0.45240 0.72800 0.19600
H 	H 	0.13340 0.33590 0.76000 0.20300
H 	H 	0.14280 0.50670 0.77320 0.19500
C 	C 	0.34590 0.29790 0.84490 -0.59600
H 	H 	0.36110 0.37640 0.86570 0.20600
H 	H 	0.35010 0.20300 0.85980 0.20400
H 	H 	0.35850 0.29200 0.82440 0.20000
C 	C 	0.05034 0.72030 0.70400 0.29200
O 	O 	0.03003 0.59290 0.69979 -0.39900
O 	O 	0.04556 0.79670 0.67131 -0.44800
O 	O 	0.36433 0.79390 0.02807 -0.53600
H 	H 	0.37360 0.77760 0.05420 0.32300
C 	C 	0.10120 0.73050 0.86580 0.39700
O 	O 	0.13494 0.75110 0.90216 -0.32000
C 	C 	0.41090 0.92400 0.92032 -0.06800
O 	O 	0.42816 0.93010 0.04989 -0.52800
C 	C 	0.44080 0.01150 0.90530 0.30600
O 	O 	0.47213 0.09210 0.93189 -0.43800
O 	O 	0.43365 0.00250 0.86640 -0.44700
O 	O 	0.06481 0.67480 0.86111 -0.51100
