data_crystal

_cell_length_a 28.90580
_cell_length_b 28.90580
_cell_length_c 28.90580
_cell_angle_alpha 90.00000
_cell_angle_beta  90.00000
_cell_angle_gamma 90.00000

_symmetry_space_group_name_	'P 1'
_symmetry_space_group_name_H-M	'P 1'

loop_
_symmetry_equiv_pos_as_xyz
  x,y,z

loop_
_atom_site_label
_atom_site_type_symbol
_atom_site_fract_x
_atom_site_fract_y
_atom_site_fract_z
_atom_site_charge
O 	O 	0.35850 0.92010 0.54720 -0.20900
N 	N 	0.42940 0.80700 0.49600 -0.23500
N 	N 	0.29390 0.87660 0.55840 -0.21300
H 	H 	0.27810 0.85270 0.55040 0.12400
C 	C 	0.40560 0.77540 0.47230 0.07700
H 	H 	0.42150 0.75250 0.45620 -0.02300
C 	C 	0.35760 0.77590 0.47100 -0.14200
H 	H 	0.34180 0.75290 0.45500 0.07400
C 	C 	0.33400 0.80920 0.49270 0.05100
H 	H 	0.30190 0.80980 0.49170 0.00700
C 	C 	0.35850 0.84290 0.51680 -0.10200
C 	C 	0.40550 0.84050 0.51780 0.06600
H 	H 	0.42170 0.86300 0.53420 0.01000
C 	C 	0.33690 0.88310 0.54110 0.22200
C 	C 	0.27460 0.91060 0.59020 -0.04700
H 	H 	0.28530 0.90400 0.62130 0.05400
H 	H 	0.28540 0.94120 0.58180 0.07400
O 	O 	0.85850 0.42010 0.04720 -0.21500
N 	N 	0.92940 0.30700 0.99600 -0.22100
N 	N 	0.79390 0.37660 0.05840 -0.21400
H 	H 	0.77810 0.35270 0.05040 0.12100
C 	C 	0.90560 0.27540 0.97230 0.09200
H 	H 	0.92150 0.25250 0.95620 -0.01900
C 	C 	0.85760 0.27590 0.97100 -0.15800
H 	H 	0.84180 0.25290 0.95500 0.08400
C 	C 	0.83400 0.30920 0.99270 0.09000
H 	H 	0.80190 0.30980 0.99170 0.00100
C 	C 	0.85850 0.34290 0.01680 -0.12600
C 	C 	0.90550 0.34050 0.01780 0.05800
H 	H 	0.92170 0.36300 0.03420 0.01200
C 	C 	0.83690 0.38310 0.04110 0.22600
C 	C 	0.77460 0.41060 0.09020 -0.04700
H 	H 	0.78530 0.40400 0.12130 0.05300
H 	H 	0.78540 0.44120 0.08180 0.06900
O 	O 	0.64150 0.07990 0.54720 -0.21700
N 	N 	0.57060 0.19300 0.49600 -0.23500
N 	N 	0.70610 0.12340 0.55840 -0.21400
H 	H 	0.72190 0.14730 0.55040 0.12500
C 	C 	0.59440 0.22460 0.47230 0.07900
H 	H 	0.57850 0.24750 0.45620 -0.02200
C 	C 	0.64240 0.22410 0.47100 -0.14200
H 	H 	0.65820 0.24710 0.45500 0.07500
C 	C 	0.66600 0.19080 0.49270 0.05300
H 	H 	0.69810 0.19020 0.49170 0.00700
C 	C 	0.64150 0.15710 0.51680 -0.10400
C 	C 	0.59450 0.15950 0.51780 0.06800
H 	H 	0.57830 0.13700 0.53420 0.00700
C 	C 	0.66310 0.11690 0.54110 0.22200
C 	C 	0.72540 0.08940 0.59020 -0.04100
H 	H 	0.71470 0.09600 0.62130 0.05000
H 	H 	0.71460 0.05880 0.58180 0.06600
O 	O 	0.14150 0.57990 0.04720 -0.22000
N 	N 	0.07060 0.69300 0.99600 -0.22600
N 	N 	0.20610 0.62340 0.05840 -0.21500
H 	H 	0.22190 0.64730 0.05040 0.12100
C 	C 	0.09440 0.72460 0.97230 0.09300
H 	H 	0.07850 0.74750 0.95620 -0.02600
C 	C 	0.14240 0.72410 0.97100 -0.16200
H 	H 	0.15820 0.74710 0.95500 0.08500
C 	C 	0.16600 0.69080 0.99270 0.09200
H 	H 	0.19810 0.69020 0.99170 0.00000
C 	C 	0.14150 0.65710 0.01680 -0.13000
C 	C 	0.09450 0.65950 0.01780 0.05900
H 	H 	0.07830 0.63700 0.03420 0.00600
C 	C 	0.16310 0.61690 0.04110 0.22600
C 	C 	0.22540 0.58940 0.09020 -0.04500
H 	H 	0.21470 0.59600 0.12130 0.05100
H 	H 	0.21460 0.55880 0.08180 0.06800
O 	O 	0.64150 0.92010 0.45280 -0.20800
N 	N 	0.57060 0.80700 0.50400 -0.23400
N 	N 	0.70610 0.87660 0.44160 -0.21300
H 	H 	0.72190 0.85270 0.44960 0.12500
C 	C 	0.59440 0.77540 0.52770 0.07800
H 	H 	0.57850 0.75250 0.54380 -0.02100
C 	C 	0.64240 0.77590 0.52900 -0.14100
H 	H 	0.65820 0.75290 0.54500 0.07500
C 	C 	0.66600 0.80920 0.50730 0.05200
H 	H 	0.69810 0.80980 0.50830 0.00800
C 	C 	0.64150 0.84290 0.48320 -0.10100
C 	C 	0.59450 0.84050 0.48220 0.06700
H 	H 	0.57830 0.86300 0.46580 0.01000
C 	C 	0.66310 0.88310 0.45890 0.22200
C 	C 	0.72540 0.91060 0.40980 -0.04600
H 	H 	0.71470 0.90400 0.37870 0.05400
H 	H 	0.71460 0.94120 0.41820 0.07400
O 	O 	0.14150 0.42010 0.95280 -0.20900
N 	N 	0.07060 0.30700 0.00400 -0.24400
N 	N 	0.20610 0.37660 0.94160 -0.21200
H 	H 	0.22190 0.35270 0.94960 0.12800
C 	C 	0.09440 0.27540 0.02770 0.06400
H 	H 	0.07850 0.25250 0.04380 -0.02400
C 	C 	0.14240 0.27590 0.02900 -0.12400
H 	H 	0.15820 0.25290 0.04500 0.06400
C 	C 	0.16600 0.30920 0.00730 0.01400
H 	H 	0.19810 0.30980 0.00830 0.01300
C 	C 	0.14150 0.34290 0.98320 -0.07800
C 	C 	0.09450 0.34050 0.98220 0.07700
H 	H 	0.07830 0.36300 0.96580 0.00600
C 	C 	0.16310 0.38310 0.95890 0.21800
C 	C 	0.22540 0.41060 0.90980 -0.04200
H 	H 	0.21470 0.40400 0.87870 0.05100
H 	H 	0.21460 0.44120 0.91820 0.07100
O 	O 	0.35850 0.07990 0.45280 -0.21700
N 	N 	0.42940 0.19300 0.50400 -0.23500
N 	N 	0.29390 0.12340 0.44160 -0.21400
H 	H 	0.27810 0.14730 0.44960 0.12400
C 	C 	0.40560 0.22460 0.52770 0.07900
H 	H 	0.42150 0.24750 0.54380 -0.02200
C 	C 	0.35760 0.22410 0.52900 -0.14200
H 	H 	0.34180 0.24710 0.54500 0.07500
C 	C 	0.33400 0.19080 0.50730 0.05300
H 	H 	0.30190 0.19020 0.50830 0.00600
C 	C 	0.35850 0.15710 0.48320 -0.10400
C 	C 	0.40550 0.15950 0.48220 0.06800
H 	H 	0.42170 0.13700 0.46580 0.00700
C 	C 	0.33690 0.11690 0.45890 0.22200
C 	C 	0.27460 0.08940 0.40980 -0.04200
H 	H 	0.28530 0.09600 0.37870 0.05000
H 	H 	0.28540 0.05880 0.41820 0.06600
O 	O 	0.85850 0.57990 0.95280 -0.20500
N 	N 	0.92940 0.69300 0.00400 -0.23800
N 	N 	0.79390 0.62340 0.94160 -0.21200
H 	H 	0.77810 0.64730 0.94960 0.12800
C 	C 	0.90560 0.72460 0.02770 0.06500
H 	H 	0.92150 0.74750 0.04380 -0.01500
C 	C 	0.85760 0.72410 0.02900 -0.12100
H 	H 	0.84180 0.74710 0.04500 0.06600
C 	C 	0.83400 0.69080 0.00730 0.01400
H 	H 	0.80190 0.69020 0.00830 0.01500
C 	C 	0.85850 0.65710 0.98320 -0.07500
C 	C 	0.90550 0.65950 0.98220 0.07500
H 	H 	0.92170 0.63700 0.96580 0.01300
C 	C 	0.83690 0.61690 0.95890 0.21700
C 	C 	0.77460 0.58940 0.90980 -0.04300
H 	H 	0.78530 0.59600 0.87870 0.05300
H 	H 	0.78540 0.55880 0.91820 0.07200
O 	O 	0.54720 0.35850 0.92010 -0.20800
N 	N 	0.49600 0.42940 0.80700 -0.23400
N 	N 	0.55840 0.29390 0.87660 -0.21200
H 	H 	0.55040 0.27810 0.85270 0.12500
C 	C 	0.47230 0.40560 0.77540 0.07800
H 	H 	0.45620 0.42150 0.75250 -0.02200
C 	C 	0.47100 0.35760 0.77590 -0.14100
H 	H 	0.45500 0.34180 0.75290 0.07500
C 	C 	0.49270 0.33400 0.80920 0.05200
H 	H 	0.49170 0.30190 0.80980 0.00800
C 	C 	0.51680 0.35850 0.84290 -0.10100
C 	C 	0.51780 0.40550 0.84050 0.06700
H 	H 	0.53420 0.42170 0.86300 0.01000
C 	C 	0.54110 0.33690 0.88310 0.22200
C 	C 	0.59020 0.27460 0.91060 -0.04700
H 	H 	0.62130 0.28530 0.90400 0.05400
H 	H 	0.58180 0.28540 0.94120 0.07400
O 	O 	0.04720 0.85850 0.42010 -0.21500
N 	N 	0.99600 0.92940 0.30700 -0.22100
N 	N 	0.05840 0.79390 0.37660 -0.21400
H 	H 	0.05040 0.77810 0.35270 0.12100
C 	C 	0.97230 0.90560 0.27540 0.09200
H 	H 	0.95620 0.92150 0.25250 -0.01900
C 	C 	0.97100 0.85760 0.27590 -0.15800
H 	H 	0.95500 0.84180 0.25290 0.08400
C 	C 	0.99270 0.83400 0.30920 0.09000
H 	H 	0.99170 0.80190 0.30980 0.00100
C 	C 	0.01680 0.85850 0.34290 -0.12600
C 	C 	0.01780 0.90550 0.34050 0.05800
H 	H 	0.03420 0.92170 0.36300 0.01200
C 	C 	0.04110 0.83690 0.38310 0.22600
C 	C 	0.09020 0.77460 0.41060 -0.04700
H 	H 	0.12130 0.78530 0.40400 0.05300
H 	H 	0.08180 0.78540 0.44120 0.06900
O 	O 	0.54720 0.64150 0.07990 -0.21700
N 	N 	0.49600 0.57060 0.19300 -0.23500
N 	N 	0.55840 0.70610 0.12340 -0.21400
H 	H 	0.55040 0.72190 0.14730 0.12500
C 	C 	0.47230 0.59440 0.22460 0.07900
H 	H 	0.45620 0.57850 0.24750 -0.02200
C 	C 	0.47100 0.64240 0.22410 -0.14200
H 	H 	0.45500 0.65820 0.24710 0.07500
C 	C 	0.49270 0.66600 0.19080 0.05300
H 	H 	0.49170 0.69810 0.19020 0.00700
C 	C 	0.51680 0.64150 0.15710 -0.10400
C 	C 	0.51780 0.59450 0.15950 0.06800
H 	H 	0.53420 0.57830 0.13700 0.00700
C 	C 	0.54110 0.66310 0.11690 0.22200
C 	C 	0.59020 0.72540 0.08940 -0.04100
H 	H 	0.62130 0.71470 0.09600 0.05000
H 	H 	0.58180 0.71460 0.05880 0.06600
O 	O 	0.04720 0.14150 0.57990 -0.22000
N 	N 	0.99600 0.07060 0.69300 -0.22600
N 	N 	0.05840 0.20610 0.62340 -0.21500
H 	H 	0.05040 0.22190 0.64730 0.12100
C 	C 	0.97230 0.09440 0.72460 0.09300
H 	H 	0.95620 0.07850 0.74750 -0.02600
C 	C 	0.97100 0.14240 0.72410 -0.16200
H 	H 	0.95500 0.15820 0.74710 0.08500
C 	C 	0.99270 0.16600 0.69080 0.09200
H 	H 	0.99170 0.19810 0.69020 0.00000
C 	C 	0.01680 0.14150 0.65710 -0.13000
C 	C 	0.01780 0.09450 0.65950 0.05900
H 	H 	0.03420 0.07830 0.63700 0.00600
C 	C 	0.04110 0.16310 0.61690 0.22600
C 	C 	0.09020 0.22540 0.58940 -0.04500
H 	H 	0.12130 0.21470 0.59600 0.05100
H 	H 	0.08180 0.21460 0.55880 0.06800
O 	O 	0.45280 0.64150 0.92010 -0.20800
N 	N 	0.50400 0.57060 0.80700 -0.23400
N 	N 	0.44160 0.70610 0.87660 -0.21300
H 	H 	0.44960 0.72190 0.85270 0.12500
C 	C 	0.52770 0.59440 0.77540 0.07800
H 	H 	0.54380 0.57850 0.75250 -0.02100
C 	C 	0.52900 0.64240 0.77590 -0.14100
H 	H 	0.54500 0.65820 0.75290 0.07500
C 	C 	0.50730 0.66600 0.80920 0.05200
H 	H 	0.50830 0.69810 0.80980 0.00800
C 	C 	0.48320 0.64150 0.84290 -0.10100
C 	C 	0.48220 0.59450 0.84050 0.06700
H 	H 	0.46580 0.57830 0.86300 0.01000
C 	C 	0.45890 0.66310 0.88310 0.22200
C 	C 	0.40980 0.72540 0.91060 -0.04600
H 	H 	0.37870 0.71470 0.90400 0.05400
H 	H 	0.41820 0.71460 0.94120 0.07400
O 	O 	0.95280 0.14150 0.42010 -0.20900
N 	N 	0.00400 0.07060 0.30700 -0.24400
N 	N 	0.94160 0.20610 0.37660 -0.21200
H 	H 	0.94960 0.22190 0.35270 0.12800
C 	C 	0.02770 0.09440 0.27540 0.06400
H 	H 	0.04380 0.07850 0.25250 -0.02400
C 	C 	0.02900 0.14240 0.27590 -0.12400
H 	H 	0.04500 0.15820 0.25290 0.06400
C 	C 	0.00730 0.16600 0.30920 0.01400
H 	H 	0.00830 0.19810 0.30980 0.01300
C 	C 	0.98320 0.14150 0.34290 -0.07800
C 	C 	0.98220 0.09450 0.34050 0.07700
H 	H 	0.96580 0.07830 0.36300 0.00600
C 	C 	0.95890 0.16310 0.38310 0.21800
C 	C 	0.90980 0.22540 0.41060 -0.04200
H 	H 	0.87870 0.21470 0.40400 0.05100
H 	H 	0.91820 0.21460 0.44120 0.07100
O 	O 	0.45280 0.35850 0.07990 -0.21700
N 	N 	0.50400 0.42940 0.19300 -0.23500
N 	N 	0.44160 0.29390 0.12340 -0.21400
H 	H 	0.44960 0.27810 0.14730 0.12400
C 	C 	0.52770 0.40560 0.22460 0.07900
H 	H 	0.54380 0.42150 0.24750 -0.02200
C 	C 	0.52900 0.35760 0.22410 -0.14200
H 	H 	0.54500 0.34180 0.24710 0.07500
C 	C 	0.50730 0.33400 0.19080 0.05300
H 	H 	0.50830 0.30190 0.19020 0.00600
C 	C 	0.48320 0.35850 0.15710 -0.10400
C 	C 	0.48220 0.40550 0.15950 0.06800
H 	H 	0.46580 0.42170 0.13700 0.00700
C 	C 	0.45890 0.33690 0.11690 0.22200
C 	C 	0.40980 0.27460 0.08940 -0.04200
H 	H 	0.37870 0.28530 0.09600 0.05000
H 	H 	0.41820 0.28540 0.05880 0.06600
O 	O 	0.95280 0.85850 0.57990 -0.20500
N 	N 	0.00400 0.92940 0.69300 -0.23800
N 	N 	0.94160 0.79390 0.62340 -0.21200
H 	H 	0.94960 0.77810 0.64730 0.12800
C 	C 	0.02770 0.90560 0.72460 0.06500
H 	H 	0.04380 0.92150 0.74750 -0.01500
C 	C 	0.02900 0.85760 0.72410 -0.12100
H 	H 	0.04500 0.84180 0.74710 0.06600
C 	C 	0.00730 0.83400 0.69080 0.01400
H 	H 	0.00830 0.80190 0.69020 0.01500
C 	C 	0.98320 0.85850 0.65710 -0.07500
C 	C 	0.98220 0.90550 0.65950 0.07500
H 	H 	0.96580 0.92170 0.63700 0.01300
C 	C 	0.95890 0.83690 0.61690 0.21700
C 	C 	0.90980 0.77460 0.58940 -0.04300
H 	H 	0.87870 0.78530 0.59600 0.05300
H 	H 	0.91820 0.78540 0.55880 0.07200
O 	O 	0.92010 0.54720 0.35850 -0.20800
N 	N 	0.80700 0.49600 0.42940 -0.23400
N 	N 	0.87660 0.55840 0.29390 -0.21200
H 	H 	0.85270 0.55040 0.27810 0.12500
C 	C 	0.77540 0.47230 0.40560 0.07800
H 	H 	0.75250 0.45620 0.42150 -0.02200
C 	C 	0.77590 0.47100 0.35760 -0.14100
H 	H 	0.75290 0.45500 0.34180 0.07500
C 	C 	0.80920 0.49270 0.33400 0.05200
H 	H 	0.80980 0.49170 0.30190 0.00800
C 	C 	0.84290 0.51680 0.35850 -0.10100
C 	C 	0.84050 0.51780 0.40550 0.06700
H 	H 	0.86300 0.53420 0.42170 0.01000
C 	C 	0.88310 0.54110 0.33690 0.22200
C 	C 	0.91060 0.59020 0.27460 -0.04700
H 	H 	0.90400 0.62130 0.28530 0.05400
H 	H 	0.94120 0.58180 0.28540 0.07400
O 	O 	0.42010 0.04720 0.85850 -0.21500
N 	N 	0.30700 0.99600 0.92940 -0.22100
N 	N 	0.37660 0.05840 0.79390 -0.21400
H 	H 	0.35270 0.05040 0.77810 0.12100
C 	C 	0.27540 0.97230 0.90560 0.09200
H 	H 	0.25250 0.95620 0.92150 -0.01900
C 	C 	0.27590 0.97100 0.85760 -0.15800
H 	H 	0.25290 0.95500 0.84180 0.08400
C 	C 	0.30920 0.99270 0.83400 0.09000
H 	H 	0.30980 0.99170 0.80190 0.00100
C 	C 	0.34290 0.01680 0.85850 -0.12600
C 	C 	0.34050 0.01780 0.90550 0.05800
H 	H 	0.36300 0.03420 0.92170 0.01200
C 	C 	0.38310 0.04110 0.83690 0.22600
C 	C 	0.41060 0.09020 0.77460 -0.04700
H 	H 	0.40400 0.12130 0.78530 0.05300
H 	H 	0.44120 0.08180 0.78540 0.06900
O 	O 	0.07990 0.54720 0.64150 -0.21700
N 	N 	0.19300 0.49600 0.57060 -0.23500
N 	N 	0.12340 0.55840 0.70610 -0.21400
H 	H 	0.14730 0.55040 0.72190 0.12500
C 	C 	0.22460 0.47230 0.59440 0.07900
H 	H 	0.24750 0.45620 0.57850 -0.02200
C 	C 	0.22410 0.47100 0.64240 -0.14200
H 	H 	0.24710 0.45500 0.65820 0.07500
C 	C 	0.19080 0.49270 0.66600 0.05300
H 	H 	0.19020 0.49170 0.69810 0.00700
C 	C 	0.15710 0.51680 0.64150 -0.10400
C 	C 	0.15950 0.51780 0.59450 0.06800
H 	H 	0.13700 0.53420 0.57830 0.00700
C 	C 	0.11690 0.54110 0.66310 0.22200
C 	C 	0.08940 0.59020 0.72540 -0.04100
H 	H 	0.09600 0.62130 0.71470 0.05000
H 	H 	0.05880 0.58180 0.71460 0.06600
O 	O 	0.57990 0.04720 0.14150 -0.22000
N 	N 	0.69300 0.99600 0.07060 -0.22600
N 	N 	0.62340 0.05840 0.20610 -0.21500
H 	H 	0.64730 0.05040 0.22190 0.12100
C 	C 	0.72460 0.97230 0.09440 0.09300
H 	H 	0.74750 0.95620 0.07850 -0.02600
C 	C 	0.72410 0.97100 0.14240 -0.16200
H 	H 	0.74710 0.95500 0.15820 0.08500
C 	C 	0.69080 0.99270 0.16600 0.09200
H 	H 	0.69020 0.99170 0.19810 0.00000
C 	C 	0.65710 0.01680 0.14150 -0.13000
C 	C 	0.65950 0.01780 0.09450 0.05900
H 	H 	0.63700 0.03420 0.07830 0.00600
C 	C 	0.61690 0.04110 0.16310 0.22600
C 	C 	0.58940 0.09020 0.22540 -0.04500
H 	H 	0.59600 0.12130 0.21470 0.05100
H 	H 	0.55880 0.08180 0.21460 0.06800
O 	O 	0.92010 0.45280 0.64150 -0.20800
N 	N 	0.80700 0.50400 0.57060 -0.23400
N 	N 	0.87660 0.44160 0.70610 -0.21300
H 	H 	0.85270 0.44960 0.72190 0.12500
C 	C 	0.77540 0.52770 0.59440 0.07800
H 	H 	0.75250 0.54380 0.57850 -0.02100
C 	C 	0.77590 0.52900 0.64240 -0.14100
H 	H 	0.75290 0.54500 0.65820 0.07500
C 	C 	0.80920 0.50730 0.66600 0.05200
H 	H 	0.80980 0.50830 0.69810 0.00800
C 	C 	0.84290 0.48320 0.64150 -0.10100
C 	C 	0.84050 0.48220 0.59450 0.06700
H 	H 	0.86300 0.46580 0.57830 0.01000
C 	C 	0.88310 0.45890 0.66310 0.22200
C 	C 	0.91060 0.40980 0.72540 -0.04600
H 	H 	0.90400 0.37870 0.71470 0.05400
H 	H 	0.94120 0.41820 0.71460 0.07400
O 	O 	0.42010 0.95280 0.14150 -0.20900
N 	N 	0.30700 0.00400 0.07060 -0.24400
N 	N 	0.37660 0.94160 0.20610 -0.21200
H 	H 	0.35270 0.94960 0.22190 0.12800
C 	C 	0.27540 0.02770 0.09440 0.06400
H 	H 	0.25250 0.04380 0.07850 -0.02400
C 	C 	0.27590 0.02900 0.14240 -0.12400
H 	H 	0.25290 0.04500 0.15820 0.06400
C 	C 	0.30920 0.00730 0.16600 0.01400
H 	H 	0.30980 0.00830 0.19810 0.01300
C 	C 	0.34290 0.98320 0.14150 -0.07800
C 	C 	0.34050 0.98220 0.09450 0.07700
H 	H 	0.36300 0.96580 0.07830 0.00600
C 	C 	0.38310 0.95890 0.16310 0.21800
C 	C 	0.41060 0.90980 0.22540 -0.04200
H 	H 	0.40400 0.87870 0.21470 0.05100
H 	H 	0.44120 0.91820 0.21460 0.07100
O 	O 	0.07990 0.45280 0.35850 -0.21700
N 	N 	0.19300 0.50400 0.42940 -0.23500
N 	N 	0.12340 0.44160 0.29390 -0.21400
H 	H 	0.14730 0.44960 0.27810 0.12400
C 	C 	0.22460 0.52770 0.40560 0.07900
H 	H 	0.24750 0.54380 0.42150 -0.02200
C 	C 	0.22410 0.52900 0.35760 -0.14200
H 	H 	0.24710 0.54500 0.34180 0.07500
C 	C 	0.19080 0.50730 0.33400 0.05300
H 	H 	0.19020 0.50830 0.30190 0.00600
C 	C 	0.15710 0.48320 0.35850 -0.10400
C 	C 	0.15950 0.48220 0.40550 0.06800
H 	H 	0.13700 0.46580 0.42170 0.00700
C 	C 	0.11690 0.45890 0.33690 0.22200
C 	C 	0.08940 0.40980 0.27460 -0.04200
H 	H 	0.09600 0.37870 0.28530 0.05000
H 	H 	0.05880 0.41820 0.28540 0.06600
O 	O 	0.57990 0.95280 0.85850 -0.20500
N 	N 	0.69300 0.00400 0.92940 -0.23800
N 	N 	0.62340 0.94160 0.79390 -0.21200
H 	H 	0.64730 0.94960 0.77810 0.12800
C 	C 	0.72460 0.02770 0.90560 0.06500
H 	H 	0.74750 0.04380 0.92150 -0.01500
C 	C 	0.72410 0.02900 0.85760 -0.12100
H 	H 	0.74710 0.04500 0.84180 0.06600
C 	C 	0.69080 0.00730 0.83400 0.01400
H 	H 	0.69020 0.00830 0.80190 0.01500
C 	C 	0.65710 0.98320 0.85850 -0.07500
C 	C 	0.65950 0.98220 0.90550 0.07500
H 	H 	0.63700 0.96580 0.92170 0.01300
C 	C 	0.61690 0.95890 0.83690 0.21700
C 	C 	0.58940 0.90980 0.77460 -0.04300
H 	H 	0.59600 0.87870 0.78530 0.05300
H 	H 	0.55880 0.91820 0.78540 0.07200
O 	O 	0.92010 0.35850 0.45280 -0.20800
N 	N 	0.80700 0.42940 0.50400 -0.23400
N 	N 	0.87660 0.29390 0.44160 -0.21200
H 	H 	0.85270 0.27810 0.44960 0.12500
C 	C 	0.77540 0.40560 0.52770 0.07800
H 	H 	0.75250 0.42150 0.54380 -0.02100
C 	C 	0.77590 0.35760 0.52900 -0.14100
H 	H 	0.75290 0.34180 0.54500 0.07500
C 	C 	0.80920 0.33400 0.50730 0.05200
H 	H 	0.80980 0.30190 0.50830 0.00800
C 	C 	0.84290 0.35850 0.48320 -0.10100
C 	C 	0.84050 0.40550 0.48220 0.06700
H 	H 	0.86300 0.42170 0.46580 0.01000
C 	C 	0.88310 0.33690 0.45890 0.22200
C 	C 	0.91060 0.27460 0.40980 -0.04700
H 	H 	0.90400 0.28530 0.37870 0.05400
H 	H 	0.94120 0.28540 0.41820 0.07400
O 	O 	0.42010 0.85850 0.95280 -0.20500
N 	N 	0.30700 0.92940 0.00400 -0.23800
N 	N 	0.37660 0.79390 0.94160 -0.21200
H 	H 	0.35270 0.77810 0.94960 0.12800
C 	C 	0.27540 0.90560 0.02770 0.06400
H 	H 	0.25250 0.92150 0.04380 -0.01600
C 	C 	0.27590 0.85760 0.02900 -0.12100
H 	H 	0.25290 0.84180 0.04500 0.06500
C 	C 	0.30920 0.83400 0.00730 0.01300
H 	H 	0.30980 0.80190 0.00830 0.01400
C 	C 	0.34290 0.85850 0.98320 -0.07500
C 	C 	0.34050 0.90550 0.98220 0.07500
H 	H 	0.36300 0.92170 0.96580 0.01300
C 	C 	0.38310 0.83690 0.95890 0.21700
C 	C 	0.41060 0.77460 0.90980 -0.04300
H 	H 	0.40400 0.78530 0.87870 0.05300
H 	H 	0.44120 0.78540 0.91820 0.07200
O 	O 	0.07990 0.64150 0.45280 -0.21700
N 	N 	0.19300 0.57060 0.50400 -0.23500
N 	N 	0.12340 0.70610 0.44160 -0.21500
H 	H 	0.14730 0.72190 0.44960 0.12500
C 	C 	0.22460 0.59440 0.52770 0.07900
H 	H 	0.24750 0.57850 0.54380 -0.02200
C 	C 	0.22410 0.64240 0.52900 -0.14200
H 	H 	0.24710 0.65820 0.54500 0.07500
C 	C 	0.19080 0.66600 0.50730 0.05300
H 	H 	0.19020 0.69810 0.50830 0.00700
C 	C 	0.15710 0.64150 0.48320 -0.10400
C 	C 	0.15950 0.59450 0.48220 0.06800
H 	H 	0.13700 0.57830 0.46580 0.00700
C 	C 	0.11690 0.66310 0.45890 0.22200
C 	C 	0.08940 0.72540 0.40980 -0.04100
H 	H 	0.09600 0.71470 0.37870 0.05000
H 	H 	0.05880 0.71460 0.41820 0.06600
O 	O 	0.57990 0.14150 0.95280 -0.20900
N 	N 	0.69300 0.07060 0.00400 -0.24400
N 	N 	0.62340 0.20610 0.94160 -0.21200
H 	H 	0.64730 0.22190 0.94960 0.12800
C 	C 	0.72460 0.09440 0.02770 0.06500
H 	H 	0.74750 0.07850 0.04380 -0.02200
C 	C 	0.72410 0.14240 0.02900 -0.12400
H 	H 	0.74710 0.15820 0.04500 0.06500
C 	C 	0.69080 0.16600 0.00730 0.01500
H 	H 	0.69020 0.19810 0.00830 0.01400
C 	C 	0.65710 0.14150 0.98320 -0.07800
C 	C 	0.65950 0.09450 0.98220 0.07700
H 	H 	0.63700 0.07830 0.96580 0.00600
C 	C 	0.61690 0.16310 0.95890 0.21800
C 	C 	0.58940 0.22540 0.90980 -0.04200
H 	H 	0.59600 0.21470 0.87870 0.05100
H 	H 	0.55880 0.21460 0.91820 0.07100
O 	O 	0.92010 0.64150 0.54720 -0.20800
N 	N 	0.80700 0.57060 0.49600 -0.23400
N 	N 	0.87660 0.70610 0.55840 -0.21300
H 	H 	0.85270 0.72190 0.55040 0.12500
C 	C 	0.77540 0.59440 0.47230 0.07800
H 	H 	0.75250 0.57850 0.45620 -0.02100
C 	C 	0.77590 0.64240 0.47100 -0.14100
H 	H 	0.75290 0.65820 0.45500 0.07500
C 	C 	0.80920 0.66600 0.49270 0.05200
H 	H 	0.80980 0.69810 0.49170 0.00800
C 	C 	0.84290 0.64150 0.51680 -0.10100
C 	C 	0.84050 0.59450 0.51780 0.06700
H 	H 	0.86300 0.57830 0.53420 0.01000
C 	C 	0.88310 0.66310 0.54110 0.22200
C 	C 	0.91060 0.72540 0.59020 -0.04600
H 	H 	0.90400 0.71470 0.62130 0.05400
H 	H 	0.94120 0.71460 0.58180 0.07400
O 	O 	0.42010 0.14150 0.04720 -0.22000
N 	N 	0.30700 0.07060 0.99600 -0.22700
N 	N 	0.37660 0.20610 0.05840 -0.21500
H 	H 	0.35270 0.22190 0.05040 0.12100
C 	C 	0.27540 0.09440 0.97230 0.09300
H 	H 	0.25250 0.07850 0.95620 -0.02700
C 	C 	0.27590 0.14240 0.97100 -0.16200
H 	H 	0.25290 0.15820 0.95500 0.08400
C 	C 	0.30920 0.16600 0.99270 0.09200
H 	H 	0.30980 0.19810 0.99170 -0.00000
C 	C 	0.34290 0.14150 0.01680 -0.13000
C 	C 	0.34050 0.09450 0.01780 0.05900
H 	H 	0.36300 0.07830 0.03420 0.00600
C 	C 	0.38310 0.16310 0.04110 0.22600
C 	C 	0.41060 0.22540 0.09020 -0.04500
H 	H 	0.40400 0.21470 0.12130 0.05100
H 	H 	0.44120 0.21460 0.08180 0.06800
O 	O 	0.07990 0.35850 0.54720 -0.21700
N 	N 	0.19300 0.42940 0.49600 -0.23500
N 	N 	0.12340 0.29390 0.55840 -0.21400
H 	H 	0.14730 0.27810 0.55040 0.12400
C 	C 	0.22460 0.40560 0.47230 0.07900
H 	H 	0.24750 0.42150 0.45620 -0.02200
C 	C 	0.22410 0.35760 0.47100 -0.14200
H 	H 	0.24710 0.34180 0.45500 0.07500
C 	C 	0.19080 0.33400 0.49270 0.05300
H 	H 	0.19020 0.30190 0.49170 0.00600
C 	C 	0.15710 0.35850 0.51680 -0.10400
C 	C 	0.15950 0.40550 0.51780 0.06800
H 	H 	0.13700 0.42170 0.53420 0.00700
C 	C 	0.11690 0.33690 0.54110 0.22200
C 	C 	0.08940 0.27460 0.59020 -0.04200
H 	H 	0.09600 0.28530 0.62130 0.05000
H 	H 	0.05880 0.28540 0.58180 0.06600
O 	O 	0.57990 0.85850 0.04720 -0.21500
N 	N 	0.69300 0.92940 0.99600 -0.22100
N 	N 	0.62340 0.79390 0.05840 -0.21400
H 	H 	0.64730 0.77810 0.05040 0.12100
C 	C 	0.72460 0.90560 0.97230 0.09200
H 	H 	0.74750 0.92150 0.95620 -0.01800
C 	C 	0.72410 0.85760 0.97100 -0.15800
H 	H 	0.74710 0.84180 0.95500 0.08500
C 	C 	0.69080 0.83400 0.99270 0.08900
H 	H 	0.69020 0.80190 0.99170 0.00200
C 	C 	0.65710 0.85850 0.01680 -0.12600
C 	C 	0.65950 0.90550 0.01780 0.05800
H 	H 	0.63700 0.92170 0.03420 0.01200
C 	C 	0.61690 0.83690 0.04110 0.22600
C 	C 	0.58940 0.77460 0.09020 -0.04600
H 	H 	0.59600 0.78530 0.12130 0.05300
H 	H 	0.55880 0.78540 0.08180 0.06900
O 	O 	0.35850 0.54720 0.07990 -0.21700
N 	N 	0.42940 0.49600 0.19300 -0.23500
N 	N 	0.29390 0.55840 0.12340 -0.21400
H 	H 	0.27810 0.55040 0.14730 0.12400
C 	C 	0.40560 0.47230 0.22460 0.07900
H 	H 	0.42150 0.45620 0.24750 -0.02200
C 	C 	0.35760 0.47100 0.22410 -0.14200
H 	H 	0.34180 0.45500 0.24710 0.07500
C 	C 	0.33400 0.49270 0.19080 0.05300
H 	H 	0.30190 0.49170 0.19020 0.00600
C 	C 	0.35850 0.51680 0.15710 -0.10400
C 	C 	0.40550 0.51780 0.15950 0.06800
H 	H 	0.42170 0.53420 0.13700 0.00700
C 	C 	0.33690 0.54110 0.11690 0.22200
C 	C 	0.27460 0.59020 0.08940 -0.04200
H 	H 	0.28530 0.62130 0.09600 0.05000
H 	H 	0.28540 0.58180 0.05880 0.06600
O 	O 	0.85850 0.04720 0.57990 -0.21500
N 	N 	0.92940 0.99600 0.69300 -0.22100
N 	N 	0.79390 0.05840 0.62340 -0.21400
H 	H 	0.77810 0.05040 0.64730 0.12100
C 	C 	0.90560 0.97230 0.72460 0.09200
H 	H 	0.92150 0.95620 0.74750 -0.01800
C 	C 	0.85760 0.97100 0.72410 -0.15800
H 	H 	0.84180 0.95500 0.74710 0.08500
C 	C 	0.83400 0.99270 0.69080 0.08900
H 	H 	0.80190 0.99170 0.69020 0.00200
C 	C 	0.85850 0.01680 0.65710 -0.12600
C 	C 	0.90550 0.01780 0.65950 0.05800
H 	H 	0.92170 0.03420 0.63700 0.01200
C 	C 	0.83690 0.04110 0.61690 0.22600
C 	C 	0.77460 0.09020 0.58940 -0.04600
H 	H 	0.78530 0.12130 0.59600 0.05300
H 	H 	0.78540 0.08180 0.55880 0.06900
O 	O 	0.64150 0.54720 0.92010 -0.20800
N 	N 	0.57060 0.49600 0.80700 -0.23400
N 	N 	0.70610 0.55840 0.87660 -0.21300
H 	H 	0.72190 0.55040 0.85270 0.12500
C 	C 	0.59440 0.47230 0.77540 0.07800
H 	H 	0.57850 0.45620 0.75250 -0.02100
C 	C 	0.64240 0.47100 0.77590 -0.14100
H 	H 	0.65820 0.45500 0.75290 0.07500
C 	C 	0.66600 0.49270 0.80920 0.05200
H 	H 	0.69810 0.49170 0.80980 0.00800
C 	C 	0.64150 0.51680 0.84290 -0.10100
C 	C 	0.59450 0.51780 0.84050 0.06700
H 	H 	0.57830 0.53420 0.86300 0.01000
C 	C 	0.66310 0.54110 0.88310 0.22200
C 	C 	0.72540 0.59020 0.91060 -0.04600
H 	H 	0.71470 0.62130 0.90400 0.05400
H 	H 	0.71460 0.58180 0.94120 0.07400
O 	O 	0.14150 0.04720 0.42010 -0.22000
N 	N 	0.07060 0.99600 0.30700 -0.22700
N 	N 	0.20610 0.05840 0.37660 -0.21500
H 	H 	0.22190 0.05040 0.35270 0.12100
C 	C 	0.09440 0.97230 0.27540 0.09300
H 	H 	0.07850 0.95620 0.25250 -0.02700
C 	C 	0.14240 0.97100 0.27590 -0.16200
H 	H 	0.15820 0.95500 0.25290 0.08400
C 	C 	0.16600 0.99270 0.30920 0.09200
H 	H 	0.19810 0.99170 0.30980 -0.00000
C 	C 	0.14150 0.01680 0.34290 -0.13000
C 	C 	0.09450 0.01780 0.34050 0.05900
H 	H 	0.07830 0.03420 0.36300 0.00600
C 	C 	0.16310 0.04110 0.38310 0.22600
C 	C 	0.22540 0.09020 0.41060 -0.04500
H 	H 	0.21470 0.12130 0.40400 0.05100
H 	H 	0.21460 0.08180 0.44120 0.06800
O 	O 	0.64150 0.45280 0.07990 -0.21700
N 	N 	0.57060 0.50400 0.19300 -0.23500
N 	N 	0.70610 0.44160 0.12340 -0.21500
H 	H 	0.72190 0.44960 0.14730 0.12500
C 	C 	0.59440 0.52770 0.22460 0.07900
H 	H 	0.57850 0.54380 0.24750 -0.02200
C 	C 	0.64240 0.52900 0.22410 -0.14200
H 	H 	0.65820 0.54500 0.24710 0.07500
C 	C 	0.66600 0.50730 0.19080 0.05300
H 	H 	0.69810 0.50830 0.19020 0.00700
C 	C 	0.64150 0.48320 0.15710 -0.10400
C 	C 	0.59450 0.48220 0.15950 0.06800
H 	H 	0.57830 0.46580 0.13700 0.00700
C 	C 	0.66310 0.45890 0.11690 0.22200
C 	C 	0.72540 0.40980 0.08940 -0.04100
H 	H 	0.71470 0.37870 0.09600 0.05000
H 	H 	0.71460 0.41820 0.05880 0.06600
O 	O 	0.14150 0.95280 0.57990 -0.20900
N 	N 	0.07060 0.00400 0.69300 -0.24400
N 	N 	0.20610 0.94160 0.62340 -0.21200
H 	H 	0.22190 0.94960 0.64730 0.12800
C 	C 	0.09440 0.02770 0.72460 0.06500
H 	H 	0.07850 0.04380 0.74750 -0.02200
C 	C 	0.14240 0.02900 0.72410 -0.12400
H 	H 	0.15820 0.04500 0.74710 0.06500
C 	C 	0.16600 0.00730 0.69080 0.01500
H 	H 	0.19810 0.00830 0.69020 0.01400
C 	C 	0.14150 0.98320 0.65710 -0.07800
C 	C 	0.09450 0.98220 0.65950 0.07700
H 	H 	0.07830 0.96580 0.63700 0.00600
C 	C 	0.16310 0.95890 0.61690 0.21800
C 	C 	0.22540 0.90980 0.58940 -0.04200
H 	H 	0.21470 0.87870 0.59600 0.05100
H 	H 	0.21460 0.91820 0.55880 0.07100
O 	O 	0.35850 0.45280 0.92010 -0.20800
N 	N 	0.42940 0.50400 0.80700 -0.23400
N 	N 	0.29390 0.44160 0.87660 -0.21200
H 	H 	0.27810 0.44960 0.85270 0.12500
C 	C 	0.40560 0.52770 0.77540 0.07800
H 	H 	0.42150 0.54380 0.75250 -0.02100
C 	C 	0.35760 0.52900 0.77590 -0.14100
H 	H 	0.34180 0.54500 0.75290 0.07500
C 	C 	0.33400 0.50730 0.80920 0.05200
H 	H 	0.30190 0.50830 0.80980 0.00800
C 	C 	0.35850 0.48320 0.84290 -0.10100
C 	C 	0.40550 0.48220 0.84050 0.06700
H 	H 	0.42170 0.46580 0.86300 0.01000
C 	C 	0.33690 0.45890 0.88310 0.22200
C 	C 	0.27460 0.40980 0.91060 -0.04700
H 	H 	0.28530 0.37870 0.90400 0.05400
H 	H 	0.28540 0.41820 0.94120 0.07400
O 	O 	0.85850 0.95280 0.42010 -0.20500
N 	N 	0.92940 0.00400 0.30700 -0.23800
N 	N 	0.79390 0.94160 0.37660 -0.21200
H 	H 	0.77810 0.94960 0.35270 0.12800
C 	C 	0.90560 0.02770 0.27540 0.06400
H 	H 	0.92150 0.04380 0.25250 -0.01600
C 	C 	0.85760 0.02900 0.27590 -0.12100
H 	H 	0.84180 0.04500 0.25290 0.06500
C 	C 	0.83400 0.00730 0.30920 0.01300
H 	H 	0.80190 0.00830 0.30980 0.01400
C 	C 	0.85850 0.98320 0.34290 -0.07500
C 	C 	0.90550 0.98220 0.34050 0.07500
H 	H 	0.92170 0.96580 0.36300 0.01300
C 	C 	0.83690 0.95890 0.38310 0.21700
C 	C 	0.77460 0.90980 0.41060 -0.04300
H 	H 	0.78530 0.87870 0.40400 0.05300
H 	H 	0.78540 0.91820 0.44120 0.07200
O 	O 	0.54720 0.92010 0.64150 -0.20800
N 	N 	0.49600 0.80700 0.57060 -0.23400
N 	N 	0.55840 0.87660 0.70610 -0.21300
H 	H 	0.55040 0.85270 0.72190 0.12500
C 	C 	0.47230 0.77540 0.59440 0.07800
H 	H 	0.45620 0.75250 0.57850 -0.02100
C 	C 	0.47100 0.77590 0.64240 -0.14100
H 	H 	0.45500 0.75290 0.65820 0.07500
C 	C 	0.49270 0.80920 0.66600 0.05200
H 	H 	0.49170 0.80980 0.69810 0.00800
C 	C 	0.51680 0.84290 0.64150 -0.10100
C 	C 	0.51780 0.84050 0.59450 0.06700
H 	H 	0.53420 0.86300 0.57830 0.01000
C 	C 	0.54110 0.88310 0.66310 0.22200
C 	C 	0.59020 0.91060 0.72540 -0.04600
H 	H 	0.62130 0.90400 0.71470 0.05400
H 	H 	0.58180 0.94120 0.71460 0.07400
O 	O 	0.04720 0.42010 0.14150 -0.22000
N 	N 	0.99600 0.30700 0.07060 -0.22700
N 	N 	0.05840 0.37660 0.20610 -0.21500
H 	H 	0.05040 0.35270 0.22190 0.12100
C 	C 	0.97230 0.27540 0.09440 0.09300
H 	H 	0.95620 0.25250 0.07850 -0.02700
C 	C 	0.97100 0.27590 0.14240 -0.16200
H 	H 	0.95500 0.25290 0.15820 0.08400
C 	C 	0.99270 0.30920 0.16600 0.09200
H 	H 	0.99170 0.30980 0.19810 -0.00000
C 	C 	0.01680 0.34290 0.14150 -0.13000
C 	C 	0.01780 0.34050 0.09450 0.05900
H 	H 	0.03420 0.36300 0.07830 0.00600
C 	C 	0.04110 0.38310 0.16310 0.22600
C 	C 	0.09020 0.41060 0.22540 -0.04500
H 	H 	0.12130 0.40400 0.21470 0.05100
H 	H 	0.08180 0.44120 0.21460 0.06800
O 	O 	0.54720 0.07990 0.35850 -0.21700
N 	N 	0.49600 0.19300 0.42940 -0.23500
N 	N 	0.55840 0.12340 0.29390 -0.21400
H 	H 	0.55040 0.14730 0.27810 0.12400
C 	C 	0.47230 0.22460 0.40560 0.07900
H 	H 	0.45620 0.24750 0.42150 -0.02200
C 	C 	0.47100 0.22410 0.35760 -0.14200
H 	H 	0.45500 0.24710 0.34180 0.07500
C 	C 	0.49270 0.19080 0.33400 0.05300
H 	H 	0.49170 0.19020 0.30190 0.00600
C 	C 	0.51680 0.15710 0.35850 -0.10400
C 	C 	0.51780 0.15950 0.40550 0.06800
H 	H 	0.53420 0.13700 0.42170 0.00700
C 	C 	0.54110 0.11690 0.33690 0.22200
C 	C 	0.59020 0.08940 0.27460 -0.04200
H 	H 	0.62130 0.09600 0.28530 0.05000
H 	H 	0.58180 0.05880 0.28540 0.06600
O 	O 	0.04720 0.57990 0.85850 -0.21500
N 	N 	0.99600 0.69300 0.92940 -0.22100
N 	N 	0.05840 0.62340 0.79390 -0.21400
H 	H 	0.05040 0.64730 0.77810 0.12100
C 	C 	0.97230 0.72460 0.90560 0.09200
H 	H 	0.95620 0.74750 0.92150 -0.01800
C 	C 	0.97100 0.72410 0.85760 -0.15800
H 	H 	0.95500 0.74710 0.84180 0.08500
C 	C 	0.99270 0.69080 0.83400 0.08900
H 	H 	0.99170 0.69020 0.80190 0.00200
C 	C 	0.01680 0.65710 0.85850 -0.12600
C 	C 	0.01780 0.65950 0.90550 0.05800
H 	H 	0.03420 0.63700 0.92170 0.01200
C 	C 	0.04110 0.61690 0.83690 0.22600
C 	C 	0.09020 0.58940 0.77460 -0.04600
H 	H 	0.12130 0.59600 0.78530 0.05300
H 	H 	0.08180 0.55880 0.78540 0.06900
O 	O 	0.45280 0.92010 0.35850 -0.20800
N 	N 	0.50400 0.80700 0.42940 -0.23400
N 	N 	0.44160 0.87660 0.29390 -0.21200
H 	H 	0.44960 0.85270 0.27810 0.12500
C 	C 	0.52770 0.77540 0.40560 0.07800
H 	H 	0.54380 0.75250 0.42150 -0.02100
C 	C 	0.52900 0.77590 0.35760 -0.14100
H 	H 	0.54500 0.75290 0.34180 0.07500
C 	C 	0.50730 0.80920 0.33400 0.05200
H 	H 	0.50830 0.80980 0.30190 0.00800
C 	C 	0.48320 0.84290 0.35850 -0.10100
C 	C 	0.48220 0.84050 0.40550 0.06700
H 	H 	0.46580 0.86300 0.42170 0.01000
C 	C 	0.45890 0.88310 0.33690 0.22200
C 	C 	0.40980 0.91060 0.27460 -0.04700
H 	H 	0.37870 0.90400 0.28530 0.05400
H 	H 	0.41820 0.94120 0.28540 0.07400
O 	O 	0.95280 0.42010 0.85850 -0.20500
N 	N 	0.00400 0.30700 0.92940 -0.23800
N 	N 	0.94160 0.37660 0.79390 -0.21200
H 	H 	0.94960 0.35270 0.77810 0.12800
C 	C 	0.02770 0.27540 0.90560 0.06400
H 	H 	0.04380 0.25250 0.92150 -0.01600
C 	C 	0.02900 0.27590 0.85760 -0.12100
H 	H 	0.04500 0.25290 0.84180 0.06500
C 	C 	0.00730 0.30920 0.83400 0.01300
H 	H 	0.00830 0.30980 0.80190 0.01400
C 	C 	0.98320 0.34290 0.85850 -0.07500
C 	C 	0.98220 0.34050 0.90550 0.07500
H 	H 	0.96580 0.36300 0.92170 0.01300
C 	C 	0.95890 0.38310 0.83690 0.21700
C 	C 	0.90980 0.41060 0.77460 -0.04300
H 	H 	0.87870 0.40400 0.78530 0.05300
H 	H 	0.91820 0.44120 0.78540 0.07200
O 	O 	0.45280 0.07990 0.64150 -0.21700
N 	N 	0.50400 0.19300 0.57060 -0.23500
N 	N 	0.44160 0.12340 0.70610 -0.21500
H 	H 	0.44960 0.14730 0.72190 0.12500
C 	C 	0.52770 0.22460 0.59440 0.07900
H 	H 	0.54380 0.24750 0.57850 -0.02200
C 	C 	0.52900 0.22410 0.64240 -0.14200
H 	H 	0.54500 0.24710 0.65820 0.07500
C 	C 	0.50730 0.19080 0.66600 0.05300
H 	H 	0.50830 0.19020 0.69810 0.00700
C 	C 	0.48320 0.15710 0.64150 -0.10400
C 	C 	0.48220 0.15950 0.59450 0.06800
H 	H 	0.46580 0.13700 0.57830 0.00700
C 	C 	0.45890 0.11690 0.66310 0.22200
C 	C 	0.40980 0.08940 0.72540 -0.04100
H 	H 	0.37870 0.09600 0.71470 0.05000
H 	H 	0.41820 0.05880 0.71460 0.06600
O 	O 	0.95280 0.57990 0.14150 -0.20900
N 	N 	0.00400 0.69300 0.07060 -0.24400
N 	N 	0.94160 0.62340 0.20610 -0.21200
H 	H 	0.94960 0.64730 0.22190 0.12800
C 	C 	0.02770 0.72460 0.09440 0.06500
H 	H 	0.04380 0.74750 0.07850 -0.02200
C 	C 	0.02900 0.72410 0.14240 -0.12400
H 	H 	0.04500 0.74710 0.15820 0.06500
C 	C 	0.00730 0.69080 0.16600 0.01500
H 	H 	0.00830 0.69020 0.19810 0.01400
C 	C 	0.98320 0.65710 0.14150 -0.07800
C 	C 	0.98220 0.65950 0.09450 0.07700
H 	H 	0.96580 0.63700 0.07830 0.00600
C 	C 	0.95890 0.61690 0.16310 0.21800
C 	C 	0.90980 0.58940 0.22540 -0.04200
H 	H 	0.87870 0.59600 0.21470 0.05100
H 	H 	0.91820 0.55880 0.21460 0.07100
Cu	Cu	0.50000 0.80544 0.50000 0.85000
Cu	Cu	-0.00000 0.30544 -0.00000 0.83400
Cu	Cu	0.50000 0.19456 0.50000 0.85000
Cu	Cu	-0.00000 0.69456 -0.00000 0.83500
Cu	Cu	0.50000 0.50000 0.80544 0.85000
Cu	Cu	-0.00000 0.00000 0.30544 0.83400
Cu	Cu	0.50000 0.50000 0.19456 0.85000
Cu	Cu	0.00000 0.00000 0.69456 0.83500
Cu	Cu	0.80544 0.50000 0.50000 0.85000
Cu	Cu	0.30544 0.00000 -0.00000 0.83400
Cu	Cu	0.19456 0.50000 0.50000 0.85000
Cu	Cu	0.69456 0.00000 -0.00000 0.83500
