data_crystal

_cell_length_a 32.98500
_cell_length_b 8.99010
_cell_length_c 34.43200
_cell_angle_alpha 90.00000
_cell_angle_beta  115.59100
_cell_angle_gamma 90.00000

_symmetry_space_group_name_	'P 1'
_symmetry_space_group_name_H-M	'P 1'

loop_
_symmetry_equiv_pos_as_xyz
  x,y,z

loop_
_atom_site_label
_atom_site_type_symbol
_atom_site_fract_x
_atom_site_fract_y
_atom_site_fract_z
_atom_site_charge
La	La	0.99640 0.64250 0.11903 1.56900
O 	O 	0.04928 0.81900 0.17394 -0.40900
O 	O 	0.03234 0.62180 0.20213 -0.37500
O 	O 	0.42873 0.01790 0.36586 -0.40500
O 	O 	0.46766 0.09740 0.43149 -0.40100
O 	O 	0.42924 0.90690 0.54928 -0.46300
O 	O 	0.36753 0.76890 0.52932 -0.51800
H 	H 	0.37820 0.74440 0.55470 0.31100
O 	O 	0.06515 0.70100 0.36154 -0.45200
O 	O 	0.13330 0.77520 0.40144 -0.29600
N 	N 	0.17170 0.08280 0.30080 -0.21000
H 	H 	0.18520 0.12230 0.32590 0.12300
N 	N 	0.31570 0.65780 0.37540 -0.20800
H 	H 	0.29880 0.61260 0.38480 0.12500
C 	C 	0.30820 0.62800 0.33175 -0.00700
H 	H 	0.33640 0.60310 0.33090 0.02700
H 	H 	0.29600 0.71580 0.31420 0.02100
C 	C 	0.27540 0.49920 0.31402 -0.09500
C 	C 	0.22930 0.52780 0.29424 0.08900
C 	C 	0.19880 0.40920 0.27854 0.11100
C 	C 	0.21560 0.26320 0.28328 -0.10900
C 	C 	0.26220 0.23440 0.30426 0.11100
C 	C 	0.29230 0.35400 0.31950 0.08900
C 	C 	0.18240 0.13620 0.26675 -0.00200
H 	H 	0.15520 0.16980 0.24270 0.02400
H 	H 	0.19530 0.05610 0.25680 0.01800
C 	C 	0.14880 0.43770 0.25790 -0.62300
H 	H 	0.14280 0.53080 0.26800 0.21300
H 	H 	0.13380 0.35900 0.26550 0.21700
H 	H 	0.13800 0.44120 0.22720 0.21000
C 	C 	0.21160 0.68500 0.29100 -0.57800
H 	H 	0.23420 0.75420 0.29200 0.19500
H 	H 	0.20410 0.70380 0.31450 0.20300
H 	H 	0.18520 0.69660 0.26420 0.18900
C 	C 	0.34240 0.32220 0.34190 -0.58300
H 	H 	0.35560 0.34010 0.32230 0.19500
H 	H 	0.34710 0.22020 0.35110 0.19800
H 	H 	0.35620 0.38610 0.36650 0.20300
C 	C 	0.27900 0.07680 0.31060 -0.60700
H 	H 	0.25480 0.01110 0.29380 0.20400
H 	H 	0.29020 0.05080 0.34050 0.20500
H 	H 	0.30260 0.06760 0.30160 0.20000
C 	C 	0.14090 0.97130 0.29484 0.10400
C 	C 	0.11320 0.91410 0.25493 -0.10700
H 	H 	0.11540 0.95010 0.23060 0.06700
C 	C 	0.08213 0.80420 0.25046 -0.05100
C 	C 	0.07773 0.74900 0.28628 -0.02200
H 	H 	0.05650 0.67640 0.28330 0.05200
C 	C 	0.10600 0.80550 0.32647 -0.06800
C 	C 	0.13720 0.91300 0.33062 -0.09700
H 	H 	0.15630 0.94740 0.35790 0.07300
C 	C 	0.05273 0.74500 0.20613 0.29200
C 	C 	0.43592 0.02110 0.40461 0.29400
C 	C 	0.40731 0.93080 0.41928 -0.06300
C 	C 	0.41610 0.93010 0.46256 -0.00400
H 	H 	0.43930 0.98710 0.48250 0.04600
C 	C 	0.38900 0.84110 0.47565 -0.08600
C 	C 	0.35550 0.75530 0.44624 -0.07700
H 	H 	0.33770 0.69800 0.45530 0.07900
C 	C 	0.34750 0.75190 0.40293 0.09900
C 	C 	0.37380 0.84200 0.38974 -0.09500
H 	H 	0.36880 0.84240 0.36100 0.06300
C 	C 	0.39710 0.84130 0.52199 0.41900
C 	C 	0.10000 0.75500 0.36512 0.36200
La	La	0.49640 0.14250 0.11903 1.57000
O 	O 	0.54928 0.31900 0.17394 -0.40800
O 	O 	0.53234 0.12180 0.20213 -0.37500
O 	O 	0.92873 0.51790 0.36586 -0.40400
O 	O 	0.96766 0.59740 0.43149 -0.40000
O 	O 	0.92924 0.40690 0.54928 -0.46200
O 	O 	0.86753 0.26890 0.52932 -0.51700
H 	H 	0.87820 0.24440 0.55470 0.31200
O 	O 	0.56515 0.20100 0.36154 -0.45100
O 	O 	0.63330 0.27520 0.40144 -0.29500
N 	N 	0.67170 0.58280 0.30080 -0.20900
H 	H 	0.68520 0.62230 0.32590 0.12400
N 	N 	0.81570 0.15780 0.37540 -0.20700
H 	H 	0.79880 0.11260 0.38480 0.12500
C 	C 	0.80820 0.12800 0.33175 -0.01200
H 	H 	0.83640 0.10310 0.33090 0.02800
H 	H 	0.79600 0.21580 0.31420 0.02200
C 	C 	0.77540 0.99920 0.31402 -0.08700
C 	C 	0.72930 0.02780 0.29424 0.08100
C 	C 	0.69880 0.90920 0.27854 0.11500
C 	C 	0.71560 0.76320 0.28328 -0.11200
C 	C 	0.76220 0.73440 0.30426 0.11500
C 	C 	0.79230 0.85400 0.31950 0.08500
C 	C 	0.68240 0.63620 0.26675 -0.00100
H 	H 	0.65520 0.66980 0.24270 0.02400
H 	H 	0.69530 0.55610 0.25680 0.01900
C 	C 	0.64880 0.93770 0.25790 -0.61900
H 	H 	0.64280 0.03080 0.26800 0.21000
H 	H 	0.63380 0.85900 0.26550 0.21700
H 	H 	0.63800 0.94120 0.22720 0.21000
C 	C 	0.71160 0.18500 0.29100 -0.56900
H 	H 	0.73420 0.25420 0.29200 0.19200
H 	H 	0.70410 0.20380 0.31450 0.20000
H 	H 	0.68520 0.19660 0.26420 0.18600
C 	C 	0.84240 0.82220 0.34190 -0.57900
H 	H 	0.85560 0.84010 0.32230 0.19400
H 	H 	0.84710 0.72020 0.35110 0.19700
H 	H 	0.85620 0.88610 0.36650 0.20200
C 	C 	0.77900 0.57680 0.31060 -0.61200
H 	H 	0.75480 0.51110 0.29380 0.20600
H 	H 	0.79020 0.55080 0.34050 0.20700
H 	H 	0.80260 0.56760 0.30160 0.20200
C 	C 	0.64090 0.47130 0.29484 0.10300
C 	C 	0.61320 0.41410 0.25493 -0.10600
H 	H 	0.61540 0.45010 0.23060 0.06600
C 	C 	0.58213 0.30420 0.25046 -0.05100
C 	C 	0.57773 0.24900 0.28628 -0.02100
H 	H 	0.55650 0.17640 0.28330 0.05100
C 	C 	0.60600 0.30550 0.32647 -0.06800
C 	C 	0.63720 0.41300 0.33062 -0.09600
H 	H 	0.65630 0.44740 0.35790 0.07300
C 	C 	0.55273 0.24500 0.20613 0.29200
C 	C 	0.93592 0.52110 0.40461 0.29600
C 	C 	0.90731 0.43080 0.41928 -0.06500
C 	C 	0.91610 0.43010 0.46256 -0.00300
H 	H 	0.93930 0.48710 0.48250 0.04600
C 	C 	0.88900 0.34110 0.47565 -0.08600
C 	C 	0.85550 0.25530 0.44624 -0.07700
H 	H 	0.83770 0.19800 0.45530 0.07900
C 	C 	0.84750 0.25190 0.40293 0.09800
C 	C 	0.87380 0.34200 0.38974 -0.09400
H 	H 	0.86880 0.34240 0.36100 0.06200
C 	C 	0.89710 0.34130 0.52199 0.41900
C 	C 	0.60000 0.25500 0.36512 0.36200
La	La	0.00360 0.64250 0.38097 1.57100
O 	O 	0.95072 0.81900 0.32606 -0.40800
O 	O 	0.96766 0.62180 0.29787 -0.37400
O 	O 	0.57127 0.01790 0.13414 -0.40400
O 	O 	0.53234 0.09740 0.06851 -0.40000
O 	O 	0.57076 0.90690 0.95072 -0.46200
O 	O 	0.63247 0.76890 0.97068 -0.51700
H 	H 	0.62180 0.74440 0.94530 0.31200
O 	O 	0.93485 0.70100 0.13846 -0.45100
O 	O 	0.86670 0.77520 0.09856 -0.29500
N 	N 	0.82830 0.08280 0.19920 -0.21000
H 	H 	0.81480 0.12230 0.17410 0.12300
N 	N 	0.68430 0.65780 0.12460 -0.20800
H 	H 	0.70120 0.61260 0.11520 0.12500
C 	C 	0.69180 0.62800 0.16825 -0.00700
H 	H 	0.66360 0.60310 0.16910 0.02700
H 	H 	0.70400 0.71580 0.18580 0.02100
C 	C 	0.72460 0.49920 0.18598 -0.09500
C 	C 	0.77070 0.52780 0.20576 0.08900
C 	C 	0.80120 0.40920 0.22146 0.11100
C 	C 	0.78440 0.26320 0.21672 -0.10900
C 	C 	0.73780 0.23440 0.19574 0.11100
C 	C 	0.70770 0.35400 0.18050 0.08900
C 	C 	0.81760 0.13620 0.23325 -0.00200
H 	H 	0.84480 0.16980 0.25730 0.02400
H 	H 	0.80470 0.05610 0.24320 0.01800
C 	C 	0.85120 0.43770 0.24210 -0.62300
H 	H 	0.85720 0.53080 0.23200 0.21300
H 	H 	0.86620 0.35900 0.23450 0.21700
H 	H 	0.86200 0.44120 0.27280 0.21000
C 	C 	0.78840 0.68500 0.20900 -0.57800
H 	H 	0.76580 0.75420 0.20800 0.19500
H 	H 	0.79590 0.70380 0.18550 0.20300
H 	H 	0.81480 0.69660 0.23580 0.18900
C 	C 	0.65760 0.32220 0.15810 -0.58300
H 	H 	0.64440 0.34010 0.17770 0.19500
H 	H 	0.65290 0.22020 0.14890 0.19800
H 	H 	0.64380 0.38610 0.13350 0.20200
C 	C 	0.72100 0.07680 0.18940 -0.60700
H 	H 	0.74520 0.01110 0.20620 0.20400
H 	H 	0.70980 0.05080 0.15950 0.20500
H 	H 	0.69740 0.06760 0.19840 0.20000
C 	C 	0.85910 0.97130 0.20516 0.10400
C 	C 	0.88680 0.91410 0.24507 -0.10700
H 	H 	0.88460 0.95010 0.26940 0.06700
C 	C 	0.91787 0.80420 0.24954 -0.05100
C 	C 	0.92227 0.74900 0.21372 -0.02200
H 	H 	0.94350 0.67640 0.21670 0.05200
C 	C 	0.89400 0.80550 0.17353 -0.06800
C 	C 	0.86280 0.91300 0.16938 -0.09700
H 	H 	0.84370 0.94740 0.14210 0.07300
C 	C 	0.94727 0.74500 0.29387 0.29200
C 	C 	0.56408 0.02110 0.09539 0.29400
C 	C 	0.59269 0.93080 0.08072 -0.06300
C 	C 	0.58390 0.93010 0.03744 -0.00400
H 	H 	0.56070 0.98710 0.01750 0.04600
C 	C 	0.61100 0.84110 0.02435 -0.08600
C 	C 	0.64450 0.75530 0.05376 -0.07700
H 	H 	0.66230 0.69800 0.04470 0.07900
C 	C 	0.65250 0.75190 0.09707 0.09900
C 	C 	0.62620 0.84200 0.11026 -0.09500
H 	H 	0.63120 0.84240 0.13900 0.06300
C 	C 	0.60290 0.84130 0.97801 0.41900
C 	C 	0.90000 0.75500 0.13488 0.36200
La	La	0.50360 0.14250 0.38097 1.57000
O 	O 	0.45072 0.31900 0.32606 -0.40800
O 	O 	0.46766 0.12180 0.29787 -0.37500
O 	O 	0.07127 0.51790 0.13414 -0.40400
O 	O 	0.03234 0.59740 0.06851 -0.39900
O 	O 	0.07076 0.40690 0.95072 -0.46200
O 	O 	0.13247 0.26890 0.97068 -0.51700
H 	H 	0.12180 0.24440 0.94530 0.31200
O 	O 	0.43485 0.20100 0.13846 -0.45100
O 	O 	0.36670 0.27520 0.09856 -0.29500
N 	N 	0.32830 0.58280 0.19920 -0.20900
H 	H 	0.31480 0.62230 0.17410 0.12400
N 	N 	0.18430 0.15780 0.12460 -0.20700
H 	H 	0.20120 0.11260 0.11520 0.12500
C 	C 	0.19180 0.12800 0.16825 -0.01200
H 	H 	0.16360 0.10310 0.16910 0.02800
H 	H 	0.20400 0.21580 0.18580 0.02200
C 	C 	0.22460 0.99920 0.18598 -0.08700
C 	C 	0.27070 0.02780 0.20576 0.08100
C 	C 	0.30120 0.90920 0.22146 0.11500
C 	C 	0.28440 0.76320 0.21672 -0.11200
C 	C 	0.23780 0.73440 0.19574 0.11500
C 	C 	0.20770 0.85400 0.18050 0.08500
C 	C 	0.31760 0.63620 0.23325 -0.00100
H 	H 	0.34480 0.66980 0.25730 0.02400
H 	H 	0.30470 0.55610 0.24320 0.01900
C 	C 	0.35120 0.93770 0.24210 -0.61900
H 	H 	0.35720 0.03080 0.23200 0.21000
H 	H 	0.36620 0.85900 0.23450 0.21700
H 	H 	0.36200 0.94120 0.27280 0.21000
C 	C 	0.28840 0.18500 0.20900 -0.56900
H 	H 	0.26580 0.25420 0.20800 0.19200
H 	H 	0.29590 0.20380 0.18550 0.20000
H 	H 	0.31480 0.19660 0.23580 0.18600
C 	C 	0.15760 0.82220 0.15810 -0.57900
H 	H 	0.14440 0.84010 0.17770 0.19400
H 	H 	0.15290 0.72020 0.14890 0.19700
H 	H 	0.14380 0.88610 0.13350 0.20200
C 	C 	0.22100 0.57680 0.18940 -0.61200
H 	H 	0.24520 0.51110 0.20620 0.20600
H 	H 	0.20980 0.55080 0.15950 0.20700
H 	H 	0.19740 0.56760 0.19840 0.20200
C 	C 	0.35910 0.47130 0.20516 0.10300
C 	C 	0.38680 0.41410 0.24507 -0.10600
H 	H 	0.38460 0.45010 0.26940 0.06600
C 	C 	0.41787 0.30420 0.24954 -0.05100
C 	C 	0.42227 0.24900 0.21372 -0.02100
H 	H 	0.44350 0.17640 0.21670 0.05100
C 	C 	0.39400 0.30550 0.17353 -0.06800
C 	C 	0.36280 0.41300 0.16938 -0.09600
H 	H 	0.34370 0.44740 0.14210 0.07300
C 	C 	0.44727 0.24500 0.29387 0.29200
C 	C 	0.06408 0.52110 0.09539 0.29500
C 	C 	0.09269 0.43080 0.08072 -0.06400
C 	C 	0.08390 0.43010 0.03744 -0.00400
H 	H 	0.06070 0.48710 0.01750 0.04600
C 	C 	0.11100 0.34110 0.02435 -0.08600
C 	C 	0.14450 0.25530 0.05376 -0.07700
H 	H 	0.16230 0.19800 0.04470 0.07900
C 	C 	0.15250 0.25190 0.09707 0.09800
C 	C 	0.12620 0.34200 0.11026 -0.09400
H 	H 	0.13120 0.34240 0.13900 0.06200
C 	C 	0.10290 0.34130 0.97801 0.41800
C 	C 	0.40000 0.25500 0.13488 0.36200
La	La	0.00360 0.35750 0.88097 1.57000
O 	O 	0.95072 0.18100 0.82606 -0.40800
O 	O 	0.96766 0.37820 0.79787 -0.37400
O 	O 	0.57127 0.98210 0.63414 -0.40400
O 	O 	0.53234 0.90260 0.56851 -0.40000
O 	O 	0.57076 0.09310 0.45072 -0.46200
O 	O 	0.63247 0.23110 0.47068 -0.51700
H 	H 	0.62180 0.25560 0.44530 0.31200
O 	O 	0.93485 0.29900 0.63846 -0.45100
O 	O 	0.86670 0.22480 0.59856 -0.29500
N 	N 	0.82830 0.91720 0.69920 -0.21000
H 	H 	0.81480 0.87770 0.67410 0.12300
N 	N 	0.68430 0.34220 0.62460 -0.20800
H 	H 	0.70120 0.38740 0.61520 0.12500
C 	C 	0.69180 0.37200 0.66825 -0.00700
H 	H 	0.66360 0.39690 0.66910 0.02700
H 	H 	0.70400 0.28420 0.68580 0.02100
C 	C 	0.72460 0.50080 0.68598 -0.09500
C 	C 	0.77070 0.47220 0.70576 0.08900
C 	C 	0.80120 0.59080 0.72146 0.11100
C 	C 	0.78440 0.73680 0.71672 -0.10900
C 	C 	0.73780 0.76560 0.69574 0.11100
C 	C 	0.70770 0.64600 0.68050 0.08900
C 	C 	0.81760 0.86380 0.73325 -0.00200
H 	H 	0.84480 0.83020 0.75730 0.02400
H 	H 	0.80470 0.94390 0.74320 0.01800
C 	C 	0.85120 0.56230 0.74210 -0.62300
H 	H 	0.85720 0.46920 0.73200 0.21300
H 	H 	0.86620 0.64100 0.73450 0.21700
H 	H 	0.86200 0.55880 0.77280 0.21000
C 	C 	0.78840 0.31500 0.70900 -0.57800
H 	H 	0.76580 0.24580 0.70800 0.19500
H 	H 	0.79590 0.29620 0.68550 0.20300
H 	H 	0.81480 0.30340 0.73580 0.18900
C 	C 	0.65760 0.67780 0.65810 -0.58300
H 	H 	0.64440 0.65990 0.67770 0.19500
H 	H 	0.65290 0.77980 0.64890 0.19800
H 	H 	0.64380 0.61390 0.63350 0.20300
C 	C 	0.72100 0.92320 0.68940 -0.60700
H 	H 	0.74520 0.98890 0.70620 0.20400
H 	H 	0.70980 0.94920 0.65950 0.20500
H 	H 	0.69740 0.93240 0.69840 0.20000
C 	C 	0.85910 0.02870 0.70516 0.10400
C 	C 	0.88680 0.08590 0.74507 -0.10700
H 	H 	0.88460 0.04990 0.76940 0.06700
C 	C 	0.91787 0.19580 0.74954 -0.05100
C 	C 	0.92227 0.25100 0.71372 -0.02200
H 	H 	0.94350 0.32360 0.71670 0.05200
C 	C 	0.89400 0.19450 0.67353 -0.06800
C 	C 	0.86280 0.08700 0.66938 -0.09700
H 	H 	0.84370 0.05260 0.64210 0.07300
C 	C 	0.94727 0.25500 0.79387 0.29200
C 	C 	0.56408 0.97890 0.59539 0.29400
C 	C 	0.59269 0.06920 0.58072 -0.06300
C 	C 	0.58390 0.06990 0.53744 -0.00400
H 	H 	0.56070 0.01290 0.51750 0.04600
C 	C 	0.61100 0.15890 0.52435 -0.08600
C 	C 	0.64450 0.24470 0.55376 -0.07700
H 	H 	0.66230 0.30200 0.54470 0.07900
C 	C 	0.65250 0.24810 0.59707 0.09900
C 	C 	0.62620 0.15800 0.61026 -0.09500
H 	H 	0.63120 0.15760 0.63900 0.06300
C 	C 	0.60290 0.15870 0.47801 0.41900
C 	C 	0.90000 0.24500 0.63488 0.36200
La	La	0.50360 0.85750 0.88097 1.57000
O 	O 	0.45072 0.68100 0.82606 -0.40800
O 	O 	0.46766 0.87820 0.79787 -0.37500
O 	O 	0.07127 0.48210 0.63414 -0.40400
O 	O 	0.03234 0.40260 0.56851 -0.40000
O 	O 	0.07076 0.59310 0.45072 -0.46200
O 	O 	0.13247 0.73110 0.47068 -0.51700
H 	H 	0.12180 0.75560 0.44530 0.31200
O 	O 	0.43485 0.79900 0.63846 -0.45100
O 	O 	0.36670 0.72480 0.59856 -0.29500
N 	N 	0.32830 0.41720 0.69920 -0.20900
H 	H 	0.31480 0.37770 0.67410 0.12400
N 	N 	0.18430 0.84220 0.62460 -0.20700
H 	H 	0.20120 0.88740 0.61520 0.12500
C 	C 	0.19180 0.87200 0.66825 -0.01200
H 	H 	0.16360 0.89690 0.66910 0.02800
H 	H 	0.20400 0.78420 0.68580 0.02200
C 	C 	0.22460 0.00080 0.68598 -0.08700
C 	C 	0.27070 0.97220 0.70576 0.08100
C 	C 	0.30120 0.09080 0.72146 0.11500
C 	C 	0.28440 0.23680 0.71672 -0.11200
C 	C 	0.23780 0.26560 0.69574 0.11500
C 	C 	0.20770 0.14600 0.68050 0.08500
C 	C 	0.31760 0.36380 0.73325 -0.00100
H 	H 	0.34480 0.33020 0.75730 0.02400
H 	H 	0.30470 0.44390 0.74320 0.01900
C 	C 	0.35120 0.06230 0.74210 -0.61900
H 	H 	0.35720 0.96920 0.73200 0.21000
H 	H 	0.36620 0.14100 0.73450 0.21700
H 	H 	0.36200 0.05880 0.77280 0.21000
C 	C 	0.28840 0.81500 0.70900 -0.56900
H 	H 	0.26580 0.74580 0.70800 0.19200
H 	H 	0.29590 0.79620 0.68550 0.20000
H 	H 	0.31480 0.80340 0.73580 0.18600
C 	C 	0.15760 0.17780 0.65810 -0.57900
H 	H 	0.14440 0.15990 0.67770 0.19400
H 	H 	0.15290 0.27980 0.64890 0.19700
H 	H 	0.14380 0.11390 0.63350 0.20200
C 	C 	0.22100 0.42320 0.68940 -0.61200
H 	H 	0.24520 0.48890 0.70620 0.20600
H 	H 	0.20980 0.44920 0.65950 0.20700
H 	H 	0.19740 0.43240 0.69840 0.20200
C 	C 	0.35910 0.52870 0.70516 0.10300
C 	C 	0.38680 0.58590 0.74507 -0.10600
H 	H 	0.38460 0.54990 0.76940 0.06600
C 	C 	0.41787 0.69580 0.74954 -0.05100
C 	C 	0.42227 0.75100 0.71372 -0.02100
H 	H 	0.44350 0.82360 0.71670 0.05100
C 	C 	0.39400 0.69450 0.67353 -0.06800
C 	C 	0.36280 0.58700 0.66938 -0.09600
H 	H 	0.34370 0.55260 0.64210 0.07300
C 	C 	0.44727 0.75500 0.79387 0.29200
C 	C 	0.06408 0.47890 0.59539 0.29600
C 	C 	0.09269 0.56920 0.58072 -0.06500
C 	C 	0.08390 0.56990 0.53744 -0.00300
H 	H 	0.06070 0.51290 0.51750 0.04600
C 	C 	0.11100 0.65890 0.52435 -0.08600
C 	C 	0.14450 0.74470 0.55376 -0.07700
H 	H 	0.16230 0.80200 0.54470 0.07900
C 	C 	0.15250 0.74810 0.59707 0.09800
C 	C 	0.12620 0.65800 0.61026 -0.09400
H 	H 	0.13120 0.65760 0.63900 0.06200
C 	C 	0.10290 0.65870 0.47801 0.41900
C 	C 	0.40000 0.74500 0.63488 0.36200
La	La	0.99640 0.35750 0.61903 1.57100
O 	O 	0.04928 0.18100 0.67394 -0.40800
O 	O 	0.03234 0.37820 0.70213 -0.37400
O 	O 	0.42873 0.98210 0.86586 -0.40400
O 	O 	0.46766 0.90260 0.93149 -0.40000
O 	O 	0.42924 0.09310 0.04928 -0.46200
O 	O 	0.36753 0.23110 0.02932 -0.51700
H 	H 	0.37820 0.25560 0.05470 0.31200
O 	O 	0.06515 0.29900 0.86154 -0.45100
O 	O 	0.13330 0.22480 0.90144 -0.29500
N 	N 	0.17170 0.91720 0.80080 -0.21000
H 	H 	0.18520 0.87770 0.82590 0.12300
N 	N 	0.31570 0.34220 0.87540 -0.20800
H 	H 	0.29880 0.38740 0.88480 0.12500
C 	C 	0.30820 0.37200 0.83175 -0.00700
H 	H 	0.33640 0.39690 0.83090 0.02700
H 	H 	0.29600 0.28420 0.81420 0.02100
C 	C 	0.27540 0.50080 0.81402 -0.09500
C 	C 	0.22930 0.47220 0.79424 0.08900
C 	C 	0.19880 0.59080 0.77854 0.11100
C 	C 	0.21560 0.73680 0.78328 -0.10900
C 	C 	0.26220 0.76560 0.80426 0.11100
C 	C 	0.29230 0.64600 0.81950 0.08900
C 	C 	0.18240 0.86380 0.76675 -0.00200
H 	H 	0.15520 0.83020 0.74270 0.02400
H 	H 	0.19530 0.94390 0.75680 0.01800
C 	C 	0.14880 0.56230 0.75790 -0.62300
H 	H 	0.14280 0.46920 0.76800 0.21300
H 	H 	0.13380 0.64100 0.76550 0.21700
H 	H 	0.13800 0.55880 0.72720 0.21000
C 	C 	0.21160 0.31500 0.79100 -0.57800
H 	H 	0.23420 0.24580 0.79200 0.19500
H 	H 	0.20410 0.29620 0.81450 0.20300
H 	H 	0.18520 0.30340 0.76420 0.18900
C 	C 	0.34240 0.67780 0.84190 -0.58300
H 	H 	0.35560 0.65990 0.82230 0.19500
H 	H 	0.34710 0.77980 0.85110 0.19800
H 	H 	0.35620 0.61390 0.86650 0.20200
C 	C 	0.27900 0.92320 0.81060 -0.60700
H 	H 	0.25480 0.98890 0.79380 0.20400
H 	H 	0.29020 0.94920 0.84050 0.20500
H 	H 	0.30260 0.93240 0.80160 0.20000
C 	C 	0.14090 0.02870 0.79484 0.10400
C 	C 	0.11320 0.08590 0.75493 -0.10700
H 	H 	0.11540 0.04990 0.73060 0.06700
C 	C 	0.08213 0.19580 0.75046 -0.05100
C 	C 	0.07773 0.25100 0.78628 -0.02200
H 	H 	0.05650 0.32360 0.78330 0.05200
C 	C 	0.10600 0.19450 0.82647 -0.06800
C 	C 	0.13720 0.08700 0.83062 -0.09700
H 	H 	0.15630 0.05260 0.85790 0.07300
C 	C 	0.05273 0.25500 0.70613 0.29200
C 	C 	0.43592 0.97890 0.90461 0.29400
C 	C 	0.40731 0.06920 0.91928 -0.06300
C 	C 	0.41610 0.06990 0.96256 -0.00400
H 	H 	0.43930 0.01290 0.98250 0.04600
C 	C 	0.38900 0.15890 0.97565 -0.08600
C 	C 	0.35550 0.24470 0.94624 -0.07700
H 	H 	0.33770 0.30200 0.95530 0.07900
C 	C 	0.34750 0.24810 0.90293 0.09900
C 	C 	0.37380 0.15800 0.88974 -0.09500
H 	H 	0.36880 0.15760 0.86100 0.06300
C 	C 	0.39710 0.15870 0.02199 0.41900
C 	C 	0.10000 0.24500 0.86512 0.36200
La	La	0.49640 0.85750 0.61903 1.57000
O 	O 	0.54928 0.68100 0.67394 -0.40800
O 	O 	0.53234 0.87820 0.70213 -0.37500
O 	O 	0.92873 0.48210 0.86586 -0.40400
O 	O 	0.96766 0.40260 0.93149 -0.39900
O 	O 	0.92924 0.59310 0.04928 -0.46200
O 	O 	0.86753 0.73110 0.02932 -0.51700
H 	H 	0.87820 0.75560 0.05470 0.31200
O 	O 	0.56515 0.79900 0.86154 -0.45100
O 	O 	0.63330 0.72480 0.90144 -0.29500
N 	N 	0.67170 0.41720 0.80080 -0.20900
H 	H 	0.68520 0.37770 0.82590 0.12400
N 	N 	0.81570 0.84220 0.87540 -0.20700
H 	H 	0.79880 0.88740 0.88480 0.12500
C 	C 	0.80820 0.87200 0.83175 -0.01200
H 	H 	0.83640 0.89690 0.83090 0.02800
H 	H 	0.79600 0.78420 0.81420 0.02200
C 	C 	0.77540 0.00080 0.81402 -0.08700
C 	C 	0.72930 0.97220 0.79424 0.08100
C 	C 	0.69880 0.09080 0.77854 0.11500
C 	C 	0.71560 0.23680 0.78328 -0.11200
C 	C 	0.76220 0.26560 0.80426 0.11500
C 	C 	0.79230 0.14600 0.81950 0.08500
C 	C 	0.68240 0.36380 0.76675 -0.00100
H 	H 	0.65520 0.33020 0.74270 0.02400
H 	H 	0.69530 0.44390 0.75680 0.01900
C 	C 	0.64880 0.06230 0.75790 -0.61900
H 	H 	0.64280 0.96920 0.76800 0.21000
H 	H 	0.63380 0.14100 0.76550 0.21700
H 	H 	0.63800 0.05880 0.72720 0.21000
C 	C 	0.71160 0.81500 0.79100 -0.56900
H 	H 	0.73420 0.74580 0.79200 0.19200
H 	H 	0.70410 0.79620 0.81450 0.20000
H 	H 	0.68520 0.80340 0.76420 0.18600
C 	C 	0.84240 0.17780 0.84190 -0.57900
H 	H 	0.85560 0.15990 0.82230 0.19400
H 	H 	0.84710 0.27980 0.85110 0.19700
H 	H 	0.85620 0.11390 0.86650 0.20200
C 	C 	0.77900 0.42320 0.81060 -0.61200
H 	H 	0.75480 0.48890 0.79380 0.20600
H 	H 	0.79020 0.44920 0.84050 0.20700
H 	H 	0.80260 0.43240 0.80160 0.20200
C 	C 	0.64090 0.52870 0.79484 0.10300
C 	C 	0.61320 0.58590 0.75493 -0.10600
H 	H 	0.61540 0.54990 0.73060 0.06600
C 	C 	0.58213 0.69580 0.75046 -0.05100
C 	C 	0.57773 0.75100 0.78628 -0.02100
H 	H 	0.55650 0.82360 0.78330 0.05100
C 	C 	0.60600 0.69450 0.82647 -0.06800
C 	C 	0.63720 0.58700 0.83062 -0.09600
H 	H 	0.65630 0.55260 0.85790 0.07300
C 	C 	0.55273 0.75500 0.70613 0.29200
C 	C 	0.93592 0.47890 0.90461 0.29500
C 	C 	0.90731 0.56920 0.91928 -0.06400
C 	C 	0.91610 0.56990 0.96256 -0.00400
H 	H 	0.93930 0.51290 0.98250 0.04600
C 	C 	0.88900 0.65890 0.97565 -0.08600
C 	C 	0.85550 0.74470 0.94624 -0.07700
H 	H 	0.83770 0.80200 0.95530 0.07900
C 	C 	0.84750 0.74810 0.90293 0.09800
C 	C 	0.87380 0.65800 0.88974 -0.09400
H 	H 	0.86880 0.65760 0.86100 0.06200
C 	C 	0.89710 0.65870 0.02199 0.41800
C 	C 	0.60000 0.74500 0.86512 0.36200
