data_crystal

_cell_length_a 32.14000
_cell_length_b 9.15600
_cell_length_c 26.86400
_cell_angle_alpha 90.00000
_cell_angle_beta  112.85900
_cell_angle_gamma 90.00000

_symmetry_space_group_name_	'P 1'
_symmetry_space_group_name_H-M	'P 1'

loop_
_symmetry_equiv_pos_as_xyz
  x,y,z

loop_
_atom_site_label
_atom_site_type_symbol
_atom_site_fract_x
_atom_site_fract_y
_atom_site_fract_z
_atom_site_charge
Sm	Sm	0.11166 0.89489 0.90881 1.79200
O 	O 	0.42300 0.41620 0.69280 -0.40300
O 	O 	0.37670 0.23660 0.65650 -0.42000
O 	O 	0.53780 0.30720 0.88410 -0.50300
O 	O 	0.52260 0.12500 0.92930 -0.32200
O 	O 	0.17110 0.03310 0.89730 -0.45800
O 	O 	0.19220 0.91430 0.97190 -0.44100
O 	O 	0.40550 0.01360 0.03010 -0.53600
H 	H 	0.42430 0.94790 0.03680 0.32100
O 	O 	0.36750 0.84140 0.04960 -0.49600
N 	N 	0.37120 0.93840 0.81170 -0.20300
H 	H 	0.38040 0.89330 0.84220 0.12000
N 	N 	0.29820 0.37110 0.91290 -0.19200
H 	H 	0.32320 0.41900 0.92550 0.10100
C 	C 	0.51280 0.20940 0.88910 0.38500
C 	C 	0.46740 0.18810 0.84300 -0.07700
C 	C 	0.45580 0.26160 0.79400 0.00000
H 	H 	0.47490 0.33330 0.79040 0.04500
C 	C 	0.41630 0.22930 0.75090 -0.06500
C 	C 	0.38750 0.11970 0.75570 -0.08900
H 	H 	0.36140 0.09470 0.72610 0.06400
C 	C 	0.39840 0.04780 0.80570 0.09500
C 	C 	0.43810 0.08040 0.84790 -0.08900
H 	H 	0.44570 0.03040 0.88040 0.07000
C 	C 	0.40420 0.29750 0.69740 0.31300
C 	C 	0.32890 0.89410 0.77100 -0.00400
H 	H 	0.33320 0.86450 0.73860 0.02400
H 	H 	0.30780 0.97510 0.76190 0.02100
C 	C 	0.31010 0.76650 0.79260 -0.10400
C 	C 	0.32070 0.62390 0.78470 0.10100
C 	C 	0.30490 0.50990 0.80790 0.08400
C 	C 	0.27880 0.54380 0.83820 -0.10200
C 	C 	0.26920 0.68640 0.84650 0.11700
C 	C 	0.28560 0.79760 0.82300 0.08600
C 	C 	0.27680 0.95540 0.83570 -0.58700
H 	H 	0.28940 0.02170 0.81760 0.20100
H 	H 	0.29070 0.97150 0.87390 0.20300
H 	H 	0.24490 0.97150 0.82340 0.19100
C 	C 	0.24270 0.71860 0.88030 -0.63300
H 	H 	0.21770 0.65220 0.87090 0.22200
H 	H 	0.23160 0.81700 0.87380 0.21300
H 	H 	0.26180 0.70720 0.91780 0.22500
C 	C 	0.31590 0.35010 0.80110 -0.55900
H 	H 	0.31040 0.33190 0.76380 0.18300
H 	H 	0.29710 0.28730 0.81200 0.19200
H 	H 	0.34710 0.33110 0.82300 0.19200
C 	C 	0.34790 0.58830 0.75110 -0.59500
H 	H 	0.34170 0.65940 0.72290 0.20600
H 	H 	0.33980 0.49290 0.73550 0.19600
H 	H 	0.37950 0.59000 0.77370 0.20700
C 	C 	0.26160 0.41950 0.86350 -0.01400
H 	H 	0.23640 0.45350 0.87170 0.02900
H 	H 	0.25130 0.33880 0.83830 0.02500
C 	C 	0.29240 0.24770 0.93930 0.07000
C 	C 	0.25070 0.18610 0.92910 -0.07000
H 	H 	0.22510 0.22950 0.90380 0.06100
C 	C 	0.24600 0.06170 0.95560 -0.08300
C 	C 	0.28460 0.98970 0.99110 0.01700
H 	H 	0.28210 0.90520 0.00890 0.03200
C 	C 	0.32650 0.04680 0.99920 -0.13000
C 	C 	0.33120 0.17690 0.97540 -0.05000
H 	H 	0.35960 0.21700 0.98330 0.04000
C 	C 	0.36720 0.96010 0.02870 0.45800
C 	C 	0.20080 0.99900 0.94210 0.33700
Sm	Sm	0.61166 0.39489 0.90881 1.79400
O 	O 	0.92300 0.91620 0.69280 -0.40400
O 	O 	0.87670 0.73660 0.65650 -0.42100
O 	O 	0.03780 0.80720 0.88410 -0.50400
O 	O 	0.02260 0.62500 0.92930 -0.32300
O 	O 	0.67110 0.53310 0.89730 -0.46600
O 	O 	0.69220 0.41430 0.97190 -0.44500
O 	O 	0.90550 0.51360 0.03010 -0.54400
H 	H 	0.92430 0.44790 0.03680 0.32300
O 	O 	0.86750 0.34140 0.04960 -0.50000
N 	N 	0.87120 0.43840 0.81170 -0.20400
H 	H 	0.88040 0.39330 0.84220 0.11900
N 	N 	0.79820 0.87110 0.91290 -0.19100
H 	H 	0.82320 0.91900 0.92550 0.10100
C 	C 	0.01280 0.70940 0.88910 0.38400
C 	C 	0.96740 0.68810 0.84300 -0.07700
C 	C 	0.95580 0.76160 0.79400 -0.00100
H 	H 	0.97490 0.83330 0.79040 0.04400
C 	C 	0.91630 0.72930 0.75090 -0.06500
C 	C 	0.88750 0.61970 0.75570 -0.08900
H 	H 	0.86140 0.59470 0.72610 0.06500
C 	C 	0.89840 0.54780 0.80570 0.09600
C 	C 	0.93810 0.58040 0.84790 -0.08900
H 	H 	0.94570 0.53040 0.88040 0.07000
C 	C 	0.90420 0.79750 0.69740 0.31300
C 	C 	0.82890 0.39410 0.77100 -0.00600
H 	H 	0.83320 0.36450 0.73860 0.02500
H 	H 	0.80780 0.47510 0.76190 0.02200
C 	C 	0.81010 0.26650 0.79260 -0.09900
C 	C 	0.82070 0.12390 0.78470 0.09500
C 	C 	0.80490 0.00990 0.80790 0.08900
C 	C 	0.77880 0.04380 0.83820 -0.10600
C 	C 	0.76920 0.18640 0.84650 0.12000
C 	C 	0.78560 0.29760 0.82300 0.08100
C 	C 	0.77680 0.45540 0.83570 -0.57900
H 	H 	0.78940 0.52170 0.81760 0.19700
H 	H 	0.79070 0.47150 0.87390 0.20100
H 	H 	0.74490 0.47150 0.82340 0.18900
C 	C 	0.74270 0.21860 0.88030 -0.63700
H 	H 	0.71770 0.15220 0.87090 0.22300
H 	H 	0.73160 0.31700 0.87380 0.21400
H 	H 	0.76180 0.20720 0.91780 0.22600
C 	C 	0.81590 0.85010 0.80110 -0.56500
H 	H 	0.81040 0.83190 0.76380 0.18500
H 	H 	0.79710 0.78730 0.81200 0.19400
H 	H 	0.84710 0.83110 0.82300 0.19300
C 	C 	0.84790 0.08830 0.75110 -0.57900
H 	H 	0.84170 0.15940 0.72290 0.20100
H 	H 	0.83980 0.99290 0.73550 0.19000
H 	H 	0.87950 0.09000 0.77370 0.20300
C 	C 	0.76160 0.91950 0.86350 -0.01200
H 	H 	0.73640 0.95350 0.87170 0.02900
H 	H 	0.75130 0.83880 0.83830 0.02400
C 	C 	0.79240 0.74770 0.93930 0.06300
C 	C 	0.75070 0.68610 0.92910 -0.05800
H 	H 	0.72510 0.72950 0.90380 0.05700
C 	C 	0.74600 0.56170 0.95560 -0.10200
C 	C 	0.78460 0.48970 0.99110 0.04000
H 	H 	0.78210 0.40520 0.00890 0.02400
C 	C 	0.82650 0.54680 0.99920 -0.14700
C 	C 	0.83120 0.67690 0.97540 -0.03900
H 	H 	0.85960 0.71700 0.98330 0.03700
C 	C 	0.86720 0.46010 0.02870 0.46900
C 	C 	0.70080 0.49900 0.94210 0.35100
Sm	Sm	0.88834 0.89489 0.59119 1.79100
O 	O 	0.57700 0.41620 0.80720 -0.40400
O 	O 	0.62330 0.23660 0.84350 -0.42100
O 	O 	0.46220 0.30720 0.61590 -0.50400
O 	O 	0.47740 0.12500 0.57070 -0.32300
O 	O 	0.82890 0.03310 0.60270 -0.45900
O 	O 	0.80780 0.91430 0.52810 -0.44200
O 	O 	0.59450 0.01360 0.46990 -0.53700
H 	H 	0.57570 0.94790 0.46320 0.32000
O 	O 	0.63250 0.84140 0.45040 -0.49700
N 	N 	0.62880 0.93840 0.68830 -0.20400
H 	H 	0.61960 0.89330 0.65780 0.11900
N 	N 	0.70180 0.37110 0.58710 -0.19300
H 	H 	0.67680 0.41900 0.57450 0.10100
C 	C 	0.48720 0.20940 0.61090 0.38400
C 	C 	0.53260 0.18810 0.65700 -0.07800
C 	C 	0.54420 0.26160 0.70600 -0.00100
H 	H 	0.52510 0.33330 0.70960 0.04400
C 	C 	0.58370 0.22930 0.74910 -0.06500
C 	C 	0.61250 0.11970 0.74430 -0.08900
H 	H 	0.63860 0.09470 0.77390 0.06400
C 	C 	0.60160 0.04780 0.69430 0.09500
C 	C 	0.56190 0.08040 0.65210 -0.08900
H 	H 	0.55430 0.03040 0.61960 0.07000
C 	C 	0.59580 0.29750 0.80260 0.31300
C 	C 	0.67110 0.89410 0.72900 -0.00400
H 	H 	0.66680 0.86450 0.76140 0.02400
H 	H 	0.69220 0.97510 0.73810 0.02100
C 	C 	0.68990 0.76650 0.70740 -0.10400
C 	C 	0.67930 0.62390 0.71530 0.10100
C 	C 	0.69510 0.50990 0.69210 0.08400
C 	C 	0.72120 0.54380 0.66180 -0.10200
C 	C 	0.73080 0.68640 0.65350 0.11700
C 	C 	0.71440 0.79760 0.67700 0.08600
C 	C 	0.72320 0.95540 0.66430 -0.58700
H 	H 	0.71060 0.02170 0.68240 0.20100
H 	H 	0.70930 0.97150 0.62610 0.20300
H 	H 	0.75510 0.97150 0.67660 0.19100
C 	C 	0.75730 0.71860 0.61970 -0.63400
H 	H 	0.78230 0.65220 0.62910 0.22200
H 	H 	0.76840 0.81700 0.62620 0.21300
H 	H 	0.73820 0.70720 0.58220 0.22500
C 	C 	0.68410 0.35010 0.69890 -0.55900
H 	H 	0.68960 0.33190 0.73620 0.18300
H 	H 	0.70290 0.28730 0.68800 0.19200
H 	H 	0.65290 0.33110 0.67700 0.19200
C 	C 	0.65210 0.58830 0.74890 -0.59500
H 	H 	0.65830 0.65940 0.77710 0.20600
H 	H 	0.66020 0.49290 0.76450 0.19600
H 	H 	0.62050 0.59000 0.72630 0.20700
C 	C 	0.73840 0.41950 0.63650 -0.01400
H 	H 	0.76360 0.45350 0.62830 0.02900
H 	H 	0.74870 0.33880 0.66170 0.02500
C 	C 	0.70760 0.24770 0.56070 0.07000
C 	C 	0.74930 0.18610 0.57090 -0.06900
H 	H 	0.77490 0.22950 0.59620 0.06100
C 	C 	0.75400 0.06170 0.54440 -0.08400
C 	C 	0.71540 0.98970 0.50890 0.01900
H 	H 	0.71790 0.90520 0.49110 0.03100
C 	C 	0.67350 0.04680 0.50080 -0.13100
C 	C 	0.66880 0.17690 0.52460 -0.04900
H 	H 	0.64040 0.21700 0.51670 0.04000
C 	C 	0.63280 0.96010 0.47130 0.45800
C 	C 	0.79920 0.99900 0.55790 0.33700
Sm	Sm	0.38834 0.39489 0.59119 1.79400
O 	O 	0.07700 0.91620 0.80720 -0.40400
O 	O 	0.12330 0.73660 0.84350 -0.42100
O 	O 	0.96220 0.80720 0.61590 -0.50400
O 	O 	0.97740 0.62500 0.57070 -0.32300
O 	O 	0.32890 0.53310 0.60270 -0.46600
O 	O 	0.30780 0.41430 0.52810 -0.44500
O 	O 	0.09450 0.51360 0.46990 -0.54400
H 	H 	0.07570 0.44790 0.46320 0.32300
O 	O 	0.13250 0.34140 0.45040 -0.50000
N 	N 	0.12880 0.43840 0.68830 -0.20400
H 	H 	0.11960 0.39330 0.65780 0.11900
N 	N 	0.20180 0.87110 0.58710 -0.19100
H 	H 	0.17680 0.91900 0.57450 0.10100
C 	C 	0.98720 0.70940 0.61090 0.38400
C 	C 	0.03260 0.68810 0.65700 -0.07700
C 	C 	0.04420 0.76160 0.70600 -0.00100
H 	H 	0.02510 0.83330 0.70960 0.04400
C 	C 	0.08370 0.72930 0.74910 -0.06500
C 	C 	0.11250 0.61970 0.74430 -0.08900
H 	H 	0.13860 0.59470 0.77390 0.06500
C 	C 	0.10160 0.54780 0.69430 0.09600
C 	C 	0.06190 0.58040 0.65210 -0.08900
H 	H 	0.05430 0.53040 0.61960 0.07000
C 	C 	0.09580 0.79750 0.80260 0.31300
C 	C 	0.17110 0.39410 0.72900 -0.00600
H 	H 	0.16680 0.36450 0.76140 0.02500
H 	H 	0.19220 0.47510 0.73810 0.02200
C 	C 	0.18990 0.26650 0.70740 -0.09900
C 	C 	0.17930 0.12390 0.71530 0.09500
C 	C 	0.19510 0.00990 0.69210 0.08900
C 	C 	0.22120 0.04380 0.66180 -0.10600
C 	C 	0.23080 0.18640 0.65350 0.12000
C 	C 	0.21440 0.29760 0.67700 0.08100
C 	C 	0.22320 0.45540 0.66430 -0.57900
H 	H 	0.21060 0.52170 0.68240 0.19700
H 	H 	0.20930 0.47150 0.62610 0.20100
H 	H 	0.25510 0.47150 0.67660 0.18900
C 	C 	0.25730 0.21860 0.61970 -0.63700
H 	H 	0.28230 0.15220 0.62910 0.22300
H 	H 	0.26840 0.31700 0.62620 0.21400
H 	H 	0.23820 0.20720 0.58220 0.22500
C 	C 	0.18410 0.85010 0.69890 -0.56500
H 	H 	0.18960 0.83190 0.73620 0.18400
H 	H 	0.20290 0.78730 0.68800 0.19400
H 	H 	0.15290 0.83110 0.67700 0.19300
C 	C 	0.15210 0.08830 0.74890 -0.57900
H 	H 	0.15830 0.15940 0.77710 0.20100
H 	H 	0.16020 0.99290 0.76450 0.19000
H 	H 	0.12050 0.09000 0.72630 0.20300
C 	C 	0.23840 0.91950 0.63650 -0.01200
H 	H 	0.26360 0.95350 0.62830 0.02900
H 	H 	0.24870 0.83880 0.66170 0.02400
C 	C 	0.20760 0.74770 0.56070 0.06300
C 	C 	0.24930 0.68610 0.57090 -0.05800
H 	H 	0.27490 0.72950 0.59620 0.05700
C 	C 	0.25400 0.56170 0.54440 -0.10100
C 	C 	0.21540 0.48970 0.50890 0.04000
H 	H 	0.21790 0.40520 0.49110 0.02500
C 	C 	0.17350 0.54680 0.50080 -0.14700
C 	C 	0.16880 0.67690 0.52460 -0.03900
H 	H 	0.14040 0.71700 0.51670 0.03700
C 	C 	0.13280 0.46010 0.47130 0.46900
C 	C 	0.29920 0.49900 0.55790 0.35100
Sm	Sm	0.88834 0.10511 0.09119 1.79100
O 	O 	0.57700 0.58380 0.30720 -0.40400
O 	O 	0.62330 0.76340 0.34350 -0.42100
O 	O 	0.46220 0.69280 0.11590 -0.50400
O 	O 	0.47740 0.87500 0.07070 -0.32300
O 	O 	0.82890 0.96690 0.10270 -0.45900
O 	O 	0.80780 0.08570 0.02810 -0.44200
O 	O 	0.59450 0.98640 0.96990 -0.53700
H 	H 	0.57570 0.05210 0.96320 0.32000
O 	O 	0.63250 0.15860 0.95040 -0.49700
N 	N 	0.62880 0.06160 0.18830 -0.20400
H 	H 	0.61960 0.10670 0.15780 0.11900
N 	N 	0.70180 0.62890 0.08710 -0.19300
H 	H 	0.67680 0.58100 0.07450 0.10000
C 	C 	0.48720 0.79060 0.11090 0.38400
C 	C 	0.53260 0.81190 0.15700 -0.07800
C 	C 	0.54420 0.73840 0.20600 -0.00100
H 	H 	0.52510 0.66670 0.20960 0.04400
C 	C 	0.58370 0.77070 0.24910 -0.06500
C 	C 	0.61250 0.88030 0.24430 -0.08900
H 	H 	0.63860 0.90530 0.27390 0.06400
C 	C 	0.60160 0.95220 0.19430 0.09500
C 	C 	0.56190 0.91960 0.15210 -0.08900
H 	H 	0.55430 0.96960 0.11960 0.07000
C 	C 	0.59580 0.70250 0.30260 0.31300
C 	C 	0.67110 0.10590 0.22900 -0.00400
H 	H 	0.66680 0.13550 0.26140 0.02400
H 	H 	0.69220 0.02490 0.23810 0.02100
C 	C 	0.68990 0.23350 0.20740 -0.10400
C 	C 	0.67930 0.37610 0.21530 0.10100
C 	C 	0.69510 0.49010 0.19210 0.08400
C 	C 	0.72120 0.45620 0.16180 -0.10200
C 	C 	0.73080 0.31360 0.15350 0.11700
C 	C 	0.71440 0.20240 0.17700 0.08600
C 	C 	0.72320 0.04460 0.16430 -0.58700
H 	H 	0.71060 0.97830 0.18240 0.20100
H 	H 	0.70930 0.02850 0.12610 0.20300
H 	H 	0.75510 0.02850 0.17660 0.19100
C 	C 	0.75730 0.28140 0.11970 -0.63300
H 	H 	0.78230 0.34780 0.12910 0.22200
H 	H 	0.76840 0.18300 0.12620 0.21300
H 	H 	0.73820 0.29280 0.08220 0.22500
C 	C 	0.68410 0.64990 0.19890 -0.55900
H 	H 	0.68960 0.66810 0.23620 0.18300
H 	H 	0.70290 0.71270 0.18800 0.19200
H 	H 	0.65290 0.66890 0.17700 0.19200
C 	C 	0.65210 0.41170 0.24890 -0.59500
H 	H 	0.65830 0.34060 0.27710 0.20600
H 	H 	0.66020 0.50710 0.26450 0.19600
H 	H 	0.62050 0.41000 0.22630 0.20700
C 	C 	0.73840 0.58050 0.13650 -0.01400
H 	H 	0.76360 0.54650 0.12830 0.02900
H 	H 	0.74870 0.66120 0.16170 0.02500
C 	C 	0.70760 0.75230 0.06070 0.07000
C 	C 	0.74930 0.81390 0.07090 -0.07000
H 	H 	0.77490 0.77050 0.09620 0.06100
C 	C 	0.75400 0.93830 0.04440 -0.08300
C 	C 	0.71540 0.01030 0.00890 0.01700
H 	H 	0.71790 0.09480 0.99110 0.03200
C 	C 	0.67350 0.95320 0.00080 -0.13000
C 	C 	0.66880 0.82310 0.02460 -0.05000
H 	H 	0.64040 0.78300 0.01670 0.04000
C 	C 	0.63280 0.03990 0.97130 0.45800
C 	C 	0.79920 0.00100 0.05790 0.33700
Sm	Sm	0.38834 0.60511 0.09119 1.79400
O 	O 	0.07700 0.08380 0.30720 -0.40400
O 	O 	0.12330 0.26340 0.34350 -0.42100
O 	O 	0.96220 0.19280 0.11590 -0.50400
O 	O 	0.97740 0.37500 0.07070 -0.32300
O 	O 	0.32890 0.46690 0.10270 -0.46600
O 	O 	0.30780 0.58570 0.02810 -0.44500
O 	O 	0.09450 0.48640 0.96990 -0.54400
H 	H 	0.07570 0.55210 0.96320 0.32300
O 	O 	0.13250 0.65860 0.95040 -0.50000
N 	N 	0.12880 0.56160 0.18830 -0.20400
H 	H 	0.11960 0.60670 0.15780 0.11900
N 	N 	0.20180 0.12890 0.08710 -0.19100
H 	H 	0.17680 0.08100 0.07450 0.10100
C 	C 	0.98720 0.29060 0.11090 0.38400
C 	C 	0.03260 0.31190 0.15700 -0.07700
C 	C 	0.04420 0.23840 0.20600 -0.00100
H 	H 	0.02510 0.16670 0.20960 0.04400
C 	C 	0.08370 0.27070 0.24910 -0.06500
C 	C 	0.11250 0.38030 0.24430 -0.08900
H 	H 	0.13860 0.40530 0.27390 0.06500
C 	C 	0.10160 0.45220 0.19430 0.09600
C 	C 	0.06190 0.41960 0.15210 -0.08900
H 	H 	0.05430 0.46960 0.11960 0.07000
C 	C 	0.09580 0.20250 0.30260 0.31300
C 	C 	0.17110 0.60590 0.22900 -0.00600
H 	H 	0.16680 0.63550 0.26140 0.02500
H 	H 	0.19220 0.52490 0.23810 0.02200
C 	C 	0.18990 0.73350 0.20740 -0.09900
C 	C 	0.17930 0.87610 0.21530 0.09500
C 	C 	0.19510 0.99010 0.19210 0.08900
C 	C 	0.22120 0.95620 0.16180 -0.10600
C 	C 	0.23080 0.81360 0.15350 0.12000
C 	C 	0.21440 0.70240 0.17700 0.08100
C 	C 	0.22320 0.54460 0.16430 -0.57900
H 	H 	0.21060 0.47830 0.18240 0.19700
H 	H 	0.20930 0.52850 0.12610 0.20100
H 	H 	0.25510 0.52850 0.17660 0.18900
C 	C 	0.25730 0.78140 0.11970 -0.63700
H 	H 	0.28230 0.84780 0.12910 0.22300
H 	H 	0.26840 0.68300 0.12620 0.21400
H 	H 	0.23820 0.79280 0.08220 0.22600
C 	C 	0.18410 0.14990 0.19890 -0.56500
H 	H 	0.18960 0.16810 0.23620 0.18500
H 	H 	0.20290 0.21270 0.18800 0.19400
H 	H 	0.15290 0.16890 0.17700 0.19300
C 	C 	0.15210 0.91170 0.24890 -0.57900
H 	H 	0.15830 0.84060 0.27710 0.20100
H 	H 	0.16020 0.00710 0.26450 0.19000
H 	H 	0.12050 0.91000 0.22630 0.20300
C 	C 	0.23840 0.08050 0.13650 -0.01200
H 	H 	0.26360 0.04650 0.12830 0.02900
H 	H 	0.24870 0.16120 0.16170 0.02400
C 	C 	0.20760 0.25230 0.06070 0.06300
C 	C 	0.24930 0.31390 0.07090 -0.05800
H 	H 	0.27490 0.27050 0.09620 0.05700
C 	C 	0.25400 0.43830 0.04440 -0.10200
C 	C 	0.21540 0.51030 0.00890 0.04000
H 	H 	0.21790 0.59480 0.99110 0.02400
C 	C 	0.17350 0.45320 0.00080 -0.14700
C 	C 	0.16880 0.32310 0.02460 -0.03900
H 	H 	0.14040 0.28300 0.01670 0.03700
C 	C 	0.13280 0.53990 0.97130 0.46900
C 	C 	0.29920 0.50100 0.05790 0.35100
Sm	Sm	0.11166 0.10511 0.40881 1.79100
O 	O 	0.42300 0.58380 0.19280 -0.40400
O 	O 	0.37670 0.76340 0.15650 -0.42100
O 	O 	0.53780 0.69280 0.38410 -0.50400
O 	O 	0.52260 0.87500 0.42930 -0.32300
O 	O 	0.17110 0.96690 0.39730 -0.45900
O 	O 	0.19220 0.08570 0.47190 -0.44200
O 	O 	0.40550 0.98640 0.53010 -0.53700
H 	H 	0.42430 0.05210 0.53680 0.32000
O 	O 	0.36750 0.15860 0.54960 -0.49700
N 	N 	0.37120 0.06160 0.31170 -0.20400
H 	H 	0.38040 0.10670 0.34220 0.11900
N 	N 	0.29820 0.62890 0.41290 -0.19300
H 	H 	0.32320 0.58100 0.42550 0.10100
C 	C 	0.51280 0.79060 0.38910 0.38400
C 	C 	0.46740 0.81190 0.34300 -0.07800
C 	C 	0.45580 0.73840 0.29400 -0.00100
H 	H 	0.47490 0.66670 0.29040 0.04400
C 	C 	0.41630 0.77070 0.25090 -0.06500
C 	C 	0.38750 0.88030 0.25570 -0.08900
H 	H 	0.36140 0.90530 0.22610 0.06400
C 	C 	0.39840 0.95220 0.30570 0.09500
C 	C 	0.43810 0.91960 0.34790 -0.08900
H 	H 	0.44570 0.96960 0.38040 0.07000
C 	C 	0.40420 0.70250 0.19740 0.31300
C 	C 	0.32890 0.10590 0.27100 -0.00400
H 	H 	0.33320 0.13550 0.23860 0.02400
H 	H 	0.30780 0.02490 0.26190 0.02100
C 	C 	0.31010 0.23350 0.29260 -0.10400
C 	C 	0.32070 0.37610 0.28470 0.10100
C 	C 	0.30490 0.49010 0.30790 0.08400
C 	C 	0.27880 0.45620 0.33820 -0.10200
C 	C 	0.26920 0.31360 0.34650 0.11700
C 	C 	0.28560 0.20240 0.32300 0.08600
C 	C 	0.27680 0.04460 0.33570 -0.58700
H 	H 	0.28940 0.97830 0.31760 0.20100
H 	H 	0.29070 0.02850 0.37390 0.20300
H 	H 	0.24490 0.02850 0.32340 0.19100
C 	C 	0.24270 0.28140 0.38030 -0.63400
H 	H 	0.21770 0.34780 0.37090 0.22200
H 	H 	0.23160 0.18300 0.37380 0.21300
H 	H 	0.26180 0.29280 0.41780 0.22500
C 	C 	0.31590 0.64990 0.30110 -0.55900
H 	H 	0.31040 0.66810 0.26380 0.18300
H 	H 	0.29710 0.71270 0.31200 0.19200
H 	H 	0.34710 0.66890 0.32300 0.19200
C 	C 	0.34790 0.41170 0.25110 -0.59500
H 	H 	0.34170 0.34060 0.22290 0.20600
H 	H 	0.33980 0.50710 0.23550 0.19600
H 	H 	0.37950 0.41000 0.27370 0.20700
C 	C 	0.26160 0.58050 0.36350 -0.01400
H 	H 	0.23640 0.54650 0.37170 0.02900
H 	H 	0.25130 0.66120 0.33830 0.02500
C 	C 	0.29240 0.75230 0.43930 0.07000
C 	C 	0.25070 0.81390 0.42910 -0.06900
H 	H 	0.22510 0.77050 0.40380 0.06100
C 	C 	0.24600 0.93830 0.45560 -0.08400
C 	C 	0.28460 0.01030 0.49110 0.01900
H 	H 	0.28210 0.09480 0.50890 0.03100
C 	C 	0.32650 0.95320 0.49920 -0.13100
C 	C 	0.33120 0.82310 0.47540 -0.04900
H 	H 	0.35960 0.78300 0.48330 0.04000
C 	C 	0.36720 0.03990 0.52870 0.45800
C 	C 	0.20080 0.00100 0.44210 0.33700
Sm	Sm	0.61166 0.60511 0.40881 1.79400
O 	O 	0.92300 0.08380 0.19280 -0.40400
O 	O 	0.87670 0.26340 0.15650 -0.42100
O 	O 	0.03780 0.19280 0.38410 -0.50400
O 	O 	0.02260 0.37500 0.42930 -0.32300
O 	O 	0.67110 0.46690 0.39730 -0.46600
O 	O 	0.69220 0.58570 0.47190 -0.44500
O 	O 	0.90550 0.48640 0.53010 -0.54400
H 	H 	0.92430 0.55210 0.53680 0.32300
O 	O 	0.86750 0.65860 0.54960 -0.50000
N 	N 	0.87120 0.56160 0.31170 -0.20400
H 	H 	0.88040 0.60670 0.34220 0.11900
N 	N 	0.79820 0.12890 0.41290 -0.19100
H 	H 	0.82320 0.08100 0.42550 0.10100
C 	C 	0.01280 0.29060 0.38910 0.38400
C 	C 	0.96740 0.31190 0.34300 -0.07700
C 	C 	0.95580 0.23840 0.29400 -0.00100
H 	H 	0.97490 0.16670 0.29040 0.04400
C 	C 	0.91630 0.27070 0.25090 -0.06500
C 	C 	0.88750 0.38030 0.25570 -0.08900
H 	H 	0.86140 0.40530 0.22610 0.06500
C 	C 	0.89840 0.45220 0.30570 0.09600
C 	C 	0.93810 0.41960 0.34790 -0.08900
H 	H 	0.94570 0.46960 0.38040 0.07000
C 	C 	0.90420 0.20250 0.19740 0.31300
C 	C 	0.82890 0.60590 0.27100 -0.00600
H 	H 	0.83320 0.63550 0.23860 0.02500
H 	H 	0.80780 0.52490 0.26190 0.02200
C 	C 	0.81010 0.73350 0.29260 -0.09900
C 	C 	0.82070 0.87610 0.28470 0.09500
C 	C 	0.80490 0.99010 0.30790 0.08900
C 	C 	0.77880 0.95620 0.33820 -0.10600
C 	C 	0.76920 0.81360 0.34650 0.12000
C 	C 	0.78560 0.70240 0.32300 0.08100
C 	C 	0.77680 0.54460 0.33570 -0.57900
H 	H 	0.78940 0.47830 0.31760 0.19700
H 	H 	0.79070 0.52850 0.37390 0.20100
H 	H 	0.74490 0.52850 0.32340 0.18900
C 	C 	0.74270 0.78140 0.38030 -0.63700
H 	H 	0.71770 0.84780 0.37090 0.22300
H 	H 	0.73160 0.68300 0.37380 0.21400
H 	H 	0.76180 0.79280 0.41780 0.22500
C 	C 	0.81590 0.14990 0.30110 -0.56500
H 	H 	0.81040 0.16810 0.26380 0.18400
H 	H 	0.79710 0.21270 0.31200 0.19400
H 	H 	0.84710 0.16890 0.32300 0.19300
C 	C 	0.84790 0.91170 0.25110 -0.57900
H 	H 	0.84170 0.84060 0.22290 0.20100
H 	H 	0.83980 0.00710 0.23550 0.19000
H 	H 	0.87950 0.91000 0.27370 0.20300
C 	C 	0.76160 0.08050 0.36350 -0.01200
H 	H 	0.73640 0.04650 0.37170 0.02900
H 	H 	0.75130 0.16120 0.33830 0.02400
C 	C 	0.79240 0.25230 0.43930 0.06300
C 	C 	0.75070 0.31390 0.42910 -0.05800
H 	H 	0.72510 0.27050 0.40380 0.05700
C 	C 	0.74600 0.43830 0.45560 -0.10100
C 	C 	0.78460 0.51030 0.49110 0.04000
H 	H 	0.78210 0.59480 0.50890 0.02500
C 	C 	0.82650 0.45320 0.49920 -0.14700
C 	C 	0.83120 0.32310 0.47540 -0.03900
H 	H 	0.85960 0.28300 0.48330 0.03700
C 	C 	0.86720 0.53990 0.52870 0.46900
C 	C 	0.70080 0.50100 0.44210 0.35100
