data_crystal

_cell_length_a 12.35880
_cell_length_b 15.50110
_cell_length_c 34.30500
_cell_angle_alpha 90.00000
_cell_angle_beta  90.00000
_cell_angle_gamma 90.00000

_symmetry_space_group_name_	'P 1'
_symmetry_space_group_name_H-M	'P 1'

loop_
_symmetry_equiv_pos_as_xyz
  x,y,z

loop_
_atom_site_label
_atom_site_type_symbol
_atom_site_fract_x
_atom_site_fract_y
_atom_site_fract_z
_atom_site_charge
Cu	Cu	0.65009 0.64229 0.51370 0.90000
S 	S 	0.88049 0.62863 0.30933 -0.06800
C 	C 	0.81540 0.23170 0.33330 -0.61300
H 	H 	0.87710 0.19380 0.32810 0.16700
H 	H 	0.75030 0.20790 0.32110 0.18600
H 	H 	0.80410 0.23600 0.36160 0.19800
C 	C 	0.83740 0.31840 0.31720 0.24600
C 	C 	0.82560 0.45720 0.30660 0.10300
C 	C 	0.78930 0.54640 0.30610 -0.04000
C 	C 	0.68810 0.57520 0.29880 -0.03500
H 	H 	0.62690 0.53870 0.29580 0.03800
C 	C 	0.68430 0.66660 0.29600 -0.04100
H 	H 	0.61960 0.69820 0.29160 0.04100
C 	C 	0.78270 0.70380 0.30040 -0.03500
C 	C 	0.81400 0.79430 0.29560 0.10400
C 	C 	0.81750 0.93390 0.30230 0.28400
C 	C 	0.79550 0.02190 0.31640 -0.66500
H 	H 	0.83960 0.06310 0.30170 0.17100
H 	H 	0.81360 0.02570 0.34420 0.20300
H 	H 	0.71870 0.03530 0.31270 0.19900
C 	C 	0.70230 0.40190 0.35830 0.10900
C 	C 	0.60070 0.36280 0.35630 -0.12600
H 	H 	0.58060 0.32900 0.33440 0.06300
C 	C 	0.52960 0.37480 0.38750 0.00200
H 	H 	0.46170 0.34610 0.38760 0.01900
C 	C 	0.55790 0.42900 0.41850 -0.05200
H 	H 	0.50730 0.43970 0.43870 0.05600
C 	C 	0.66120 0.46800 0.41980 -0.03900
C 	C 	0.73060 0.45350 0.38920 -0.09500
H 	H 	0.80000 0.47990 0.38940 0.08100
C 	C 	0.69220 0.52780 0.45080 0.31900
C 	C 	0.69750 0.85370 0.34880 0.12500
C 	C 	0.59380 0.88780 0.34680 -0.13200
H 	H 	0.56830 0.91440 0.32360 0.07400
C 	C 	0.52890 0.88180 0.37930 0.02300
H 	H 	0.45880 0.90690 0.37880 0.03700
C 	C 	0.56340 0.84010 0.41300 -0.06000
H 	H 	0.51670 0.83520 0.43480 0.07600
C 	C 	0.66760 0.80560 0.41410 -0.02600
C 	C 	0.73490 0.81230 0.38160 -0.10200
H 	H 	0.80580 0.78860 0.38200 0.08700
C 	C 	0.70200 0.75360 0.44830 0.32400
N 	N 	0.77960 0.39120 0.32700 -0.18100
N 	N 	0.91340 0.33820 0.29230 -0.24100
N 	N 	0.90810 0.42720 0.28590 -0.20600
N 	N 	0.76840 0.86160 0.31556 -0.19000
N 	N 	0.88990 0.82300 0.27180 -0.20300
N 	N 	0.89130 0.91280 0.27560 -0.23800
O 	O 	0.61880 0.55540 0.47413 -0.39600
O 	O 	0.79030 0.55300 0.45210 -0.39600
O 	O 	0.63330 0.73280 0.47364 -0.40100
O 	O 	0.80120 0.73020 0.44900 -0.39000
Cu	Cu	0.15009 0.14229 0.01370 0.89800
S 	S 	0.38049 0.12863 0.80933 -0.08600
C 	C 	0.31540 0.73170 0.83330 -0.60600
H 	H 	0.37710 0.69380 0.82810 0.16200
H 	H 	0.25030 0.70790 0.82110 0.18400
H 	H 	0.30410 0.73600 0.86160 0.19500
C 	C 	0.33740 0.81840 0.81720 0.24300
C 	C 	0.32560 0.95720 0.80660 0.13100
C 	C 	0.28930 0.04640 0.80610 -0.07200
C 	C 	0.18810 0.07520 0.79880 -0.02000
H 	H 	0.12690 0.03870 0.79580 0.02000
C 	C 	0.18430 0.16660 0.79600 -0.05300
H 	H 	0.11960 0.19820 0.79160 0.03900
C 	C 	0.28270 0.20380 0.80040 -0.02900
C 	C 	0.31400 0.29430 0.79560 0.09700
C 	C 	0.31750 0.43390 0.80230 0.23900
C 	C 	0.29550 0.52190 0.81640 -0.59400
H 	H 	0.33960 0.56310 0.80170 0.15200
H 	H 	0.31360 0.52570 0.84420 0.18700
H 	H 	0.21870 0.53530 0.81270 0.18500
C 	C 	0.20230 0.90190 0.85830 0.10600
C 	C 	0.10070 0.86280 0.85630 -0.10000
H 	H 	0.08060 0.82900 0.83440 0.05100
C 	C 	0.02960 0.87480 0.88750 -0.05100
H 	H 	0.96170 0.84610 0.88760 0.05600
C 	C 	0.05790 0.92900 0.91850 -0.03400
H 	H 	0.00730 0.93970 0.93870 0.05200
C 	C 	0.16120 0.96800 0.91980 -0.01800
C 	C 	0.23060 0.95350 0.88920 -0.09500
H 	H 	0.30000 0.97990 0.88940 0.08800
C 	C 	0.19220 0.02780 0.95080 0.29400
C 	C 	0.19750 0.35370 0.84880 0.09300
C 	C 	0.09380 0.38780 0.84680 -0.09000
H 	H 	0.06830 0.41440 0.82360 0.04800
C 	C 	0.02890 0.38180 0.87930 -0.05900
H 	H 	0.95880 0.40690 0.87880 0.07100
C 	C 	0.06340 0.34010 0.91300 -0.01900
H 	H 	0.01670 0.33520 0.93480 0.05000
C 	C 	0.16760 0.30560 0.91410 -0.05700
C 	C 	0.23490 0.31230 0.88160 -0.07800
H 	H 	0.30580 0.28860 0.88200 0.07300
C 	C 	0.20200 0.25360 0.94830 0.33300
N 	N 	0.27960 0.89120 0.82700 -0.18300
N 	N 	0.41340 0.83820 0.79230 -0.24700
N 	N 	0.40810 0.92720 0.78590 -0.21000
N 	N 	0.26840 0.36160 0.81556 -0.18000
N 	N 	0.38990 0.32300 0.77180 -0.21000
N 	N 	0.39130 0.41280 0.77560 -0.24300
O 	O 	0.11880 0.05540 0.97413 -0.40300
O 	O 	0.29030 0.05300 0.95210 -0.40200
O 	O 	0.13330 0.23280 0.97364 -0.41200
O 	O 	0.30120 0.23020 0.94900 -0.39900
Cu	Cu	0.84991 0.35771 0.01370 0.90400
S 	S 	0.61951 0.37137 0.80933 -0.08400
C 	C 	0.68460 0.76830 0.83330 -0.61700
H 	H 	0.62290 0.80620 0.82810 0.16700
H 	H 	0.74970 0.79210 0.82110 0.19200
H 	H 	0.69590 0.76400 0.86160 0.20100
C 	C 	0.66260 0.68160 0.81720 0.24700
C 	C 	0.67440 0.54280 0.80660 0.10100
C 	C 	0.71070 0.45360 0.80610 -0.03700
C 	C 	0.81190 0.42480 0.79880 -0.03600
H 	H 	0.87310 0.46130 0.79580 0.04200
C 	C 	0.81570 0.33340 0.79600 -0.04100
H 	H 	0.88040 0.30180 0.79160 0.04500
C 	C 	0.71730 0.29620 0.80040 -0.03300
C 	C 	0.68600 0.20570 0.79560 0.10000
C 	C 	0.68250 0.06610 0.80230 0.20900
C 	C 	0.70450 0.97810 0.81640 -0.54700
H 	H 	0.66040 0.93690 0.80170 0.14500
H 	H 	0.68640 0.97430 0.84420 0.18400
H 	H 	0.78130 0.96470 0.81270 0.18400
C 	C 	0.79770 0.59810 0.85830 0.12800
C 	C 	0.89930 0.63720 0.85630 -0.16300
H 	H 	0.91940 0.67100 0.83440 0.08200
C 	C 	0.97040 0.62520 0.88750 0.07400
H 	H 	0.03830 0.65390 0.88760 -0.01900
C 	C 	0.94210 0.57100 0.91850 -0.08900
H 	H 	0.99270 0.56030 0.93870 0.07800
C 	C 	0.83880 0.53200 0.91980 -0.01700
C 	C 	0.76940 0.54650 0.88920 -0.11400
H 	H 	0.70000 0.52010 0.88940 0.08400
C 	C 	0.80780 0.47220 0.95080 0.31200
C 	C 	0.80250 0.14630 0.84880 0.13200
C 	C 	0.90620 0.11220 0.84680 -0.17100
H 	H 	0.93170 0.08560 0.82360 0.08300
C 	C 	0.97110 0.11820 0.87930 0.08800
H 	H 	0.04120 0.09310 0.87880 -0.00900
C 	C 	0.93660 0.15990 0.91300 -0.09900
H 	H 	0.98330 0.16480 0.93480 0.09500
C 	C 	0.83240 0.19440 0.91410 -0.01000
C 	C 	0.76510 0.18770 0.88160 -0.11900
H 	H 	0.69420 0.21140 0.88200 0.08600
C 	C 	0.79800 0.24640 0.94830 0.31600
N 	N 	0.72040 0.60880 0.82700 -0.18400
N 	N 	0.58660 0.66180 0.79230 -0.24900
N 	N 	0.59190 0.57280 0.78590 -0.21200
N 	N 	0.73160 0.13840 0.81556 -0.18200
N 	N 	0.61010 0.17700 0.77180 -0.21100
N 	N 	0.60870 0.08720 0.77560 -0.24200
O 	O 	0.88120 0.44460 0.97413 -0.38700
O 	O 	0.70970 0.44700 0.95210 -0.39700
O 	O 	0.86670 0.26720 0.97364 -0.39500
O 	O 	0.69880 0.26980 0.94900 -0.39500
Cu	Cu	0.34991 0.85771 0.51370 0.90300
S 	S 	0.11951 0.87137 0.30933 -0.09500
C 	C 	0.18460 0.26830 0.33330 -0.59800
H 	H 	0.12290 0.30620 0.32810 0.15400
H 	H 	0.24970 0.29210 0.32110 0.18300
H 	H 	0.19590 0.26400 0.36160 0.19000
C 	C 	0.16260 0.18160 0.31720 0.23700
C 	C 	0.17440 0.04280 0.30660 0.06700
C 	C 	0.21070 0.95360 0.30610 -0.00000
C 	C 	0.31190 0.92480 0.29880 -0.05300
H 	H 	0.37310 0.96130 0.29580 0.05300
C 	C 	0.31570 0.83340 0.29600 -0.03200
H 	H 	0.38040 0.80180 0.29160 0.03900
C 	C 	0.21730 0.79620 0.30040 -0.03500
C 	C 	0.18600 0.70570 0.29560 0.09900
C 	C 	0.18250 0.56610 0.30230 0.23800
C 	C 	0.20450 0.47810 0.31640 -0.59200
H 	H 	0.16040 0.43690 0.30170 0.14900
H 	H 	0.18640 0.47430 0.34420 0.18400
H 	H 	0.28130 0.46470 0.31270 0.18700
C 	C 	0.29770 0.09810 0.35830 0.08600
C 	C 	0.39930 0.13720 0.35630 -0.11100
H 	H 	0.41940 0.17100 0.33440 0.05600
C 	C 	0.47040 0.12520 0.38750 -0.02100
H 	H 	0.53830 0.15390 0.38760 0.02600
C 	C 	0.44210 0.07100 0.41850 -0.02900
H 	H 	0.49270 0.06030 0.43870 0.04200
C 	C 	0.33880 0.03200 0.41980 -0.08800
C 	C 	0.26940 0.04650 0.38920 -0.07000
H 	H 	0.20000 0.02010 0.38940 0.05800
C 	C 	0.30780 0.97220 0.45080 0.35500
C 	C 	0.30250 0.64630 0.34880 0.11400
C 	C 	0.40620 0.61220 0.34680 -0.12900
H 	H 	0.43170 0.58560 0.32360 0.06800
C 	C 	0.47110 0.61820 0.37930 0.01600
H 	H 	0.54120 0.59310 0.37880 0.03300
C 	C 	0.43660 0.65990 0.41300 -0.05900
H 	H 	0.48330 0.66480 0.43480 0.07300
C 	C 	0.33240 0.69440 0.41410 -0.03300
C 	C 	0.26510 0.68770 0.38160 -0.09800
H 	H 	0.19420 0.71140 0.38200 0.07800
C 	C 	0.29800 0.74640 0.44830 0.32500
N 	N 	0.22040 0.10880 0.32700 -0.17400
N 	N 	0.08660 0.16180 0.29230 -0.25200
N 	N 	0.09190 0.07280 0.28590 -0.21700
N 	N 	0.23160 0.63840 0.31556 -0.18400
N 	N 	0.11010 0.67700 0.27180 -0.21400
N 	N 	0.10870 0.58720 0.27560 -0.24600
O 	O 	0.38120 0.94460 0.47413 -0.39500
O 	O 	0.20970 0.94700 0.45210 -0.40200
O 	O 	0.36670 0.76720 0.47364 -0.40300
O 	O 	0.19880 0.76980 0.44900 -0.39800
Cu	Cu	0.34991 0.14229 0.98630 0.90000
S 	S 	0.11951 0.12863 0.19067 -0.09900
C 	C 	0.18460 0.73170 0.16670 -0.60100
H 	H 	0.12290 0.69380 0.17190 0.15600
H 	H 	0.24970 0.70790 0.17890 0.18400
H 	H 	0.19590 0.73600 0.13840 0.19200
C 	C 	0.16260 0.81840 0.18280 0.24000
C 	C 	0.17440 0.95720 0.19340 0.12900
C 	C 	0.21070 0.04640 0.19390 -0.07000
C 	C 	0.31190 0.07520 0.20120 -0.02000
H 	H 	0.37310 0.03870 0.20420 0.02400
C 	C 	0.31570 0.16660 0.20400 -0.05300
H 	H 	0.38040 0.19820 0.20840 0.04400
C 	C 	0.21730 0.20380 0.19960 -0.02700
C 	C 	0.18600 0.29430 0.20440 0.09600
C 	C 	0.18250 0.43390 0.19770 0.23800
C 	C 	0.20450 0.52190 0.18360 -0.59300
H 	H 	0.16040 0.56310 0.19830 0.14900
H 	H 	0.18640 0.52570 0.15580 0.18500
H 	H 	0.28130 0.53530 0.18730 0.18700
C 	C 	0.29770 0.90190 0.14170 0.12500
C 	C 	0.39930 0.86280 0.14370 -0.13700
H 	H 	0.41940 0.82900 0.16560 0.06900
C 	C 	0.47040 0.87480 0.11250 0.02100
H 	H 	0.53830 0.84610 0.11240 0.01700
C 	C 	0.44210 0.92900 0.08150 -0.07100
H 	H 	0.49270 0.93970 0.06130 0.07300
C 	C 	0.33880 0.96800 0.08020 0.00300
C 	C 	0.26940 0.95350 0.11080 -0.11500
H 	H 	0.20000 0.97990 0.11060 0.09100
C 	C 	0.30780 0.02780 0.04920 0.28600
C 	C 	0.30250 0.35370 0.15120 0.11300
C 	C 	0.40620 0.38780 0.15320 -0.12900
H 	H 	0.43170 0.41440 0.17640 0.06800
C 	C 	0.47110 0.38180 0.12070 0.01600
H 	H 	0.54120 0.40690 0.12120 0.03300
C 	C 	0.43660 0.34010 0.08700 -0.05800
H 	H 	0.48330 0.33520 0.06520 0.07300
C 	C 	0.33240 0.30560 0.08590 -0.03500
C 	C 	0.26510 0.31230 0.11840 -0.09800
H 	H 	0.19420 0.28860 0.11800 0.07600
C 	C 	0.29800 0.25360 0.05170 0.32600
N 	N 	0.22040 0.89120 0.17300 -0.18600
N 	N 	0.08660 0.83820 0.20770 -0.25100
N 	N 	0.09190 0.92720 0.21410 -0.21600
N 	N 	0.23160 0.36160 0.18444 -0.18300
N 	N 	0.11010 0.32300 0.22820 -0.21300
N 	N 	0.10870 0.41280 0.22440 -0.24600
O 	O 	0.38120 0.05540 0.02587 -0.39500
O 	O 	0.20970 0.05300 0.04790 -0.40200
O 	O 	0.36670 0.23280 0.02636 -0.40400
O 	O 	0.19880 0.23020 0.05100 -0.40100
Cu	Cu	0.84991 0.64229 0.48630 0.90400
S 	S 	0.61951 0.62863 0.69067 -0.08400
C 	C 	0.68460 0.23170 0.66670 -0.60700
H 	H 	0.62290 0.19380 0.67190 0.16000
H 	H 	0.74970 0.20790 0.67890 0.18600
H 	H 	0.69590 0.23600 0.63840 0.19400
C 	C 	0.66260 0.31840 0.68280 0.24300
C 	C 	0.67440 0.45720 0.69340 0.10100
C 	C 	0.71070 0.54640 0.69390 -0.03700
C 	C 	0.81190 0.57520 0.70120 -0.03500
H 	H 	0.87310 0.53870 0.70420 0.04200
C 	C 	0.81570 0.66660 0.70400 -0.04100
H 	H 	0.88040 0.69820 0.70840 0.04600
C 	C 	0.71730 0.70380 0.69960 -0.03300
C 	C 	0.68600 0.79430 0.70440 0.10200
C 	C 	0.68250 0.93390 0.69770 0.28200
C 	C 	0.70450 0.02190 0.68360 -0.66300
H 	H 	0.66040 0.06310 0.69830 0.16800
H 	H 	0.68640 0.02570 0.65580 0.20000
H 	H 	0.78130 0.03530 0.68730 0.20100
C 	C 	0.79770 0.40190 0.64170 0.12700
C 	C 	0.89930 0.36280 0.64370 -0.16200
H 	H 	0.91940 0.32900 0.66560 0.08000
C 	C 	0.97040 0.37480 0.61250 0.07100
H 	H 	0.03830 0.34610 0.61240 -0.01800
C 	C 	0.94210 0.42900 0.58150 -0.08800
H 	H 	0.99270 0.43970 0.56130 0.07700
C 	C 	0.83880 0.46800 0.58020 -0.01900
C 	C 	0.76940 0.45350 0.61080 -0.11300
H 	H 	0.70000 0.47990 0.61060 0.08400
C 	C 	0.80780 0.52780 0.54920 0.31200
C 	C 	0.80250 0.85370 0.65120 0.14600
C 	C 	0.90620 0.88780 0.65320 -0.17300
H 	H 	0.93170 0.91440 0.67640 0.09500
C 	C 	0.97110 0.88180 0.62070 0.10100
H 	H 	0.04120 0.90690 0.62120 -0.00300
C 	C 	0.93660 0.84010 0.58700 -0.10000
H 	H 	0.98330 0.83520 0.56520 0.10000
C 	C 	0.83240 0.80560 0.58590 -0.00200
C 	C 	0.76510 0.81230 0.61840 -0.12300
H 	H 	0.69420 0.78860 0.61800 0.09000
C 	C 	0.79800 0.75360 0.55170 0.31600
N 	N 	0.72040 0.39120 0.67300 -0.18300
N 	N 	0.58660 0.33820 0.70770 -0.24800
N 	N 	0.59190 0.42720 0.71410 -0.21200
N 	N 	0.73160 0.86160 0.68444 -0.19300
N 	N 	0.61010 0.82300 0.72820 -0.21000
N 	N 	0.60870 0.91280 0.72440 -0.24200
O 	O 	0.88120 0.55540 0.52587 -0.38800
O 	O 	0.70970 0.55300 0.54790 -0.39700
O 	O 	0.86670 0.73280 0.52636 -0.39200
O 	O 	0.69880 0.73020 0.55100 -0.39200
Cu	Cu	0.15009 0.85771 0.48630 0.90000
S 	S 	0.38049 0.87137 0.69067 -0.08000
C 	C 	0.31540 0.26830 0.66670 -0.60200
H 	H 	0.37710 0.30620 0.67190 0.16000
H 	H 	0.25030 0.29210 0.67890 0.18300
H 	H 	0.30410 0.26400 0.63840 0.19300
C 	C 	0.33740 0.18160 0.68280 0.23900
C 	C 	0.32560 0.04280 0.69340 0.06800
C 	C 	0.28930 0.95360 0.69390 -0.00200
C 	C 	0.18810 0.92480 0.70120 -0.05300
H 	H 	0.12690 0.96130 0.70420 0.04800
C 	C 	0.18430 0.83340 0.70400 -0.03200
H 	H 	0.11960 0.80180 0.70840 0.03300
C 	C 	0.28270 0.79620 0.69960 -0.03700
C 	C 	0.31400 0.70570 0.70440 0.10000
C 	C 	0.31750 0.56610 0.69770 0.23900
C 	C 	0.29550 0.47810 0.68360 -0.59300
H 	H 	0.33960 0.43690 0.69830 0.15200
H 	H 	0.31360 0.47430 0.65580 0.18700
H 	H 	0.21870 0.46470 0.68730 0.18500
C 	C 	0.20230 0.09810 0.64170 0.07000
C 	C 	0.10070 0.13720 0.64370 -0.07600
H 	H 	0.08060 0.17100 0.66560 0.03900
C 	C 	0.02960 0.12520 0.61250 -0.08700
H 	H 	0.96170 0.15390 0.61240 0.06200
C 	C 	0.05790 0.07100 0.58150 0.00600
H 	H 	0.00730 0.06030 0.56130 0.02300
C 	C 	0.16120 0.03200 0.58020 -0.10700
C 	C 	0.23060 0.04650 0.61080 -0.05300
H 	H 	0.30000 0.02010 0.61060 0.05500
C 	C 	0.19220 0.97220 0.54920 0.36200
C 	C 	0.19750 0.64630 0.65120 0.09400
C 	C 	0.09380 0.61220 0.65320 -0.08900
H 	H 	0.06830 0.58560 0.67640 0.04800
C 	C 	0.02890 0.61820 0.62070 -0.06000
H 	H 	0.95880 0.59310 0.62120 0.07200
C 	C 	0.06340 0.65990 0.58700 -0.01900
H 	H 	0.01670 0.66480 0.56520 0.04900
C 	C 	0.16760 0.69440 0.58590 -0.05700
C 	C 	0.23490 0.68770 0.61840 -0.07900
H 	H 	0.30580 0.71140 0.61800 0.07500
C 	C 	0.20200 0.74640 0.55170 0.33300
N 	N 	0.27960 0.10880 0.67300 -0.17200
N 	N 	0.41340 0.16180 0.70770 -0.24800
N 	N 	0.40810 0.07280 0.71410 -0.21100
N 	N 	0.26840 0.63840 0.68444 -0.18100
N 	N 	0.38990 0.67700 0.72820 -0.21100
N 	N 	0.39130 0.58720 0.72440 -0.24300
O 	O 	0.11880 0.94460 0.52587 -0.40400
O 	O 	0.29030 0.94700 0.54790 -0.40100
O 	O 	0.13330 0.76720 0.52636 -0.41100
O 	O 	0.30120 0.76980 0.55100 -0.39700
Cu	Cu	0.65009 0.35771 0.98630 0.90100
S 	S 	0.88049 0.37137 0.19067 -0.06800
C 	C 	0.81540 0.76830 0.16670 -0.62200
H 	H 	0.87710 0.80620 0.17190 0.17400
H 	H 	0.75030 0.79210 0.17890 0.19200
H 	H 	0.80410 0.76400 0.13840 0.20500
C 	C 	0.83740 0.68160 0.18280 0.25000
C 	C 	0.82560 0.54280 0.19340 0.10300
C 	C 	0.78930 0.45360 0.19390 -0.03900
C 	C 	0.68810 0.42480 0.20120 -0.03500
H 	H 	0.62690 0.46130 0.20420 0.03800
C 	C 	0.68430 0.33340 0.20400 -0.04100
H 	H 	0.61960 0.30180 0.20840 0.04000
C 	C 	0.78270 0.29620 0.19960 -0.03500
C 	C 	0.81400 0.20570 0.20440 0.10200
C 	C 	0.81750 0.06610 0.19770 0.21000
C 	C 	0.79550 0.97810 0.18360 -0.54800
H 	H 	0.83960 0.93690 0.19830 0.14700
H 	H 	0.81360 0.97430 0.15580 0.18700
H 	H 	0.71870 0.96470 0.18730 0.18200
C 	C 	0.70230 0.59810 0.14170 0.11000
C 	C 	0.60070 0.63720 0.14370 -0.12700
H 	H 	0.58060 0.67100 0.16560 0.06400
C 	C 	0.52960 0.62520 0.11250 0.00300
H 	H 	0.46170 0.65390 0.11240 0.02000
C 	C 	0.55790 0.57100 0.08150 -0.05200
H 	H 	0.50730 0.56030 0.06130 0.05700
C 	C 	0.66120 0.53200 0.08020 -0.03800
C 	C 	0.73060 0.54650 0.11080 -0.09500
H 	H 	0.80000 0.52010 0.11060 0.08100
C 	C 	0.69220 0.47220 0.04920 0.31900
C 	C 	0.69750 0.14630 0.15120 0.11300
C 	C 	0.59380 0.11220 0.15320 -0.13300
H 	H 	0.56830 0.08560 0.17640 0.06400
C 	C 	0.52890 0.11820 0.12070 0.01600
H 	H 	0.45880 0.09310 0.12120 0.02700
C 	C 	0.56340 0.15990 0.08700 -0.06200
H 	H 	0.51670 0.16480 0.06520 0.07300
C 	C 	0.66760 0.19440 0.08590 -0.03100
C 	C 	0.73490 0.18770 0.11840 -0.10000
H 	H 	0.80580 0.21140 0.11800 0.08300
C 	C 	0.70200 0.24640 0.05170 0.32300
N 	N 	0.77960 0.60880 0.17300 -0.18200
N 	N 	0.91340 0.66180 0.20770 -0.24200
N 	N 	0.90810 0.57280 0.21410 -0.20500
N 	N 	0.76840 0.13840 0.18444 -0.18000
N 	N 	0.88990 0.17700 0.22820 -0.20500
N 	N 	0.89130 0.08720 0.22440 -0.23800
O 	O 	0.61880 0.44460 0.02587 -0.39500
O 	O 	0.79030 0.44700 0.04790 -0.39600
O 	O 	0.63330 0.26720 0.02636 -0.40300
O 	O 	0.80120 0.26980 0.05100 -0.39300
Cu	Cu	0.00000 0.25000 0.26001 0.82600
Cu	Cu	0.50000 0.75000 0.76001 0.83800
Cu	Cu	0.00000 0.75000 0.23999 0.82700
Cu	Cu	0.50000 0.25000 0.73999 0.83700
Cu	Cu	0.00537 0.50000 0.25000 0.82900
Cu	Cu	0.49463 0.50000 0.75000 0.84000
Cu	Cu	0.99463 0.00000 0.25000 0.83900
Cu	Cu	0.50537 0.00000 0.75000 0.82800
