data_crystal

_cell_length_a 18.48300
_cell_length_b 18.48300
_cell_length_c 46.75800
_cell_angle_alpha 90.00000
_cell_angle_beta  90.00000
_cell_angle_gamma 120.00000

_symmetry_space_group_name_	'P 1'
_symmetry_space_group_name_H-M	'P 1'

loop_
_symmetry_equiv_pos_as_xyz
  x,y,z

loop_
_atom_site_label
_atom_site_type_symbol
_atom_site_fract_x
_atom_site_fract_y
_atom_site_fract_z
_atom_site_charge
O 	O 	0.29610 0.44380 0.83124 -0.40400
O 	O 	0.25460 0.36240 0.86997 -0.41300
C 	C 	0.30680 0.42590 0.85661 0.37000
C 	C 	0.38500 0.48390 0.87041 -0.10800
C 	C 	0.39860 0.47110 0.89876 0.00100
H 	H 	0.35920 0.42330 0.90820 0.04400
C 	C 	0.46340 0.43030 0.98240 -0.01600
H 	H 	0.44310 0.37550 0.99030 0.02100
C 	C 	0.45450 0.44200 0.95340 -0.16900
H 	H 	0.42970 0.39500 0.94070 0.09500
C 	C 	0.53300 0.57990 0.98960 -0.02000
H 	H 	0.56350 0.62780 0.00170 0.02800
C 	C 	0.51700 0.58910 0.96110 -0.12200
H 	H 	0.53710 0.64380 0.95320 0.07800
O 	O 	0.96277 0.77713 0.16457 -0.40400
O 	O 	0.92127 0.69573 0.20330 -0.41300
C 	C 	0.97347 0.75923 0.18994 0.36900
C 	C 	0.05167 0.81723 0.20374 -0.10600
C 	C 	0.06527 0.80443 0.23209 0.00000
H 	H 	0.02587 0.75663 0.24153 0.04500
C 	C 	0.13007 0.76363 0.31573 -0.01600
H 	H 	0.10977 0.70883 0.32363 0.02100
C 	C 	0.12117 0.77533 0.28673 -0.17000
H 	H 	0.09637 0.72833 0.27403 0.09500
C 	C 	0.19967 0.91323 0.32293 -0.02000
H 	H 	0.23017 0.96113 0.33503 0.02800
C 	C 	0.18367 0.92243 0.29443 -0.12200
H 	H 	0.20377 0.97713 0.28653 0.07800
O 	O 	0.62943 0.11047 0.49791 -0.40400
O 	O 	0.58793 0.02907 0.53664 -0.41300
C 	C 	0.64013 0.09257 0.52328 0.37000
C 	C 	0.71833 0.15057 0.53708 -0.10800
C 	C 	0.73193 0.13777 0.56543 0.00100
H 	H 	0.69253 0.08997 0.57487 0.04400
C 	C 	0.79673 0.09697 0.64907 -0.01600
H 	H 	0.77643 0.04217 0.65697 0.02100
C 	C 	0.78783 0.10867 0.62007 -0.17000
H 	H 	0.76303 0.06167 0.60737 0.09500
C 	C 	0.86633 0.24657 0.65627 -0.02000
H 	H 	0.89683 0.29447 0.66837 0.02800
C 	C 	0.85033 0.25577 0.62777 -0.12200
H 	H 	0.87043 0.31047 0.61987 0.07800
O 	O 	0.55620 0.85230 0.83124 -0.40400
O 	O 	0.63760 0.89220 0.86997 -0.41300
C 	C 	0.57410 0.88090 0.85661 0.37000
C 	C 	0.51610 0.90110 0.87041 -0.10800
C 	C 	0.52890 0.92750 0.89876 0.00000
H 	H 	0.57670 0.93590 0.90820 0.04400
C 	C 	0.56970 0.03310 0.98240 -0.01600
H 	H 	0.62450 0.06760 0.99030 0.02100
C 	C 	0.55800 0.01250 0.95340 -0.16600
H 	H 	0.60500 0.03470 0.94070 0.09400
C 	C 	0.42010 0.95310 0.98960 -0.02100
H 	H 	0.37220 0.93570 0.00170 0.02900
C 	C 	0.41090 0.92790 0.96110 -0.12100
H 	H 	0.35620 0.89330 0.95320 0.07700
O 	O 	0.22287 0.18563 0.16457 -0.40400
O 	O 	0.30427 0.22553 0.20330 -0.41300
C 	C 	0.24077 0.21423 0.18994 0.37000
C 	C 	0.18277 0.23443 0.20374 -0.10700
C 	C 	0.19557 0.26083 0.23209 0.00000
H 	H 	0.24337 0.26923 0.24153 0.04400
C 	C 	0.23637 0.36643 0.31573 -0.01600
H 	H 	0.29117 0.40093 0.32363 0.02100
C 	C 	0.22467 0.34583 0.28673 -0.17000
H 	H 	0.27167 0.36803 0.27403 0.09400
C 	C 	0.08677 0.28643 0.32293 -0.02100
H 	H 	0.03887 0.26903 0.33503 0.02700
C 	C 	0.07757 0.26123 0.29443 -0.12300
H 	H 	0.02287 0.22663 0.28653 0.07700
O 	O 	0.88953 0.51897 0.49791 -0.40500
O 	O 	0.97093 0.55887 0.53664 -0.41400
C 	C 	0.90743 0.54757 0.52328 0.36900
C 	C 	0.84943 0.56777 0.53708 -0.10900
C 	C 	0.86223 0.59417 0.56543 -0.00000
H 	H 	0.91003 0.60257 0.57487 0.04300
C 	C 	0.90303 0.69977 0.64907 -0.01700
H 	H 	0.95783 0.73427 0.65697 0.02000
C 	C 	0.89133 0.67917 0.62007 -0.17100
H 	H 	0.93833 0.70137 0.60737 0.09400
C 	C 	0.75343 0.61977 0.65627 -0.02100
H 	H 	0.70553 0.60237 0.66837 0.02700
C 	C 	0.74423 0.59457 0.62777 -0.12300
H 	H 	0.68953 0.55997 0.61987 0.07700
O 	O 	0.14770 0.70390 0.83124 -0.40500
O 	O 	0.10780 0.74540 0.86997 -0.41400
C 	C 	0.11910 0.69320 0.85661 0.36900
C 	C 	0.09890 0.61500 0.87041 -0.10900
C 	C 	0.07250 0.60140 0.89876 -0.00000
H 	H 	0.06410 0.64080 0.90820 0.04300
C 	C 	0.96690 0.53660 0.98240 -0.01800
H 	H 	0.93240 0.55690 0.99030 0.01900
C 	C 	0.98750 0.54550 0.95340 -0.17100
H 	H 	0.96530 0.57030 0.94070 0.09400
C 	C 	0.04690 0.46700 0.98960 -0.02200
H 	H 	0.06430 0.43650 0.00170 0.02700
C 	C 	0.07210 0.48300 0.96110 -0.12300
H 	H 	0.10670 0.46290 0.95320 0.07700
O 	O 	0.81437 0.03723 0.16457 -0.40500
O 	O 	0.77447 0.07873 0.20330 -0.41400
C 	C 	0.78577 0.02653 0.18994 0.36900
C 	C 	0.76557 0.94833 0.20374 -0.10900
C 	C 	0.73917 0.93473 0.23209 -0.00000
H 	H 	0.73077 0.97413 0.24153 0.04300
C 	C 	0.63357 0.86993 0.31573 -0.01700
H 	H 	0.59907 0.89023 0.32363 0.02000
C 	C 	0.65417 0.87883 0.28673 -0.17100
H 	H 	0.63197 0.90363 0.27403 0.09400
C 	C 	0.71357 0.80033 0.32293 -0.02100
H 	H 	0.73097 0.76983 0.33503 0.02700
C 	C 	0.73877 0.81633 0.29443 -0.12400
H 	H 	0.77337 0.79623 0.28653 0.07700
O 	O 	0.48103 0.37057 0.49791 -0.40500
O 	O 	0.44113 0.41207 0.53664 -0.41400
C 	C 	0.45243 0.35987 0.52328 0.36900
C 	C 	0.43223 0.28167 0.53708 -0.10900
C 	C 	0.40583 0.26807 0.56543 -0.00000
H 	H 	0.39743 0.30747 0.57487 0.04300
C 	C 	0.30023 0.20327 0.64907 -0.01700
H 	H 	0.26573 0.22357 0.65697 0.02000
C 	C 	0.32083 0.21217 0.62007 -0.17100
H 	H 	0.29863 0.23697 0.60737 0.09400
C 	C 	0.38023 0.13367 0.65627 -0.02100
H 	H 	0.39763 0.10317 0.66837 0.02700
C 	C 	0.40543 0.14967 0.62777 -0.12300
H 	H 	0.44003 0.12957 0.61987 0.07700
O 	O 	0.44380 0.29610 0.16876 -0.40500
O 	O 	0.36240 0.25460 0.13003 -0.41400
C 	C 	0.42590 0.30680 0.14339 0.36900
C 	C 	0.48390 0.38500 0.12959 -0.10900
C 	C 	0.47110 0.39860 0.10124 -0.00000
H 	H 	0.42330 0.35920 0.09180 0.04300
C 	C 	0.43030 0.46340 0.01760 -0.01700
H 	H 	0.37550 0.44310 0.00970 0.02000
C 	C 	0.44200 0.45450 0.04660 -0.17000
H 	H 	0.39500 0.42970 0.05930 0.09400
C 	C 	0.57990 0.53300 0.01040 -0.02100
H 	H 	0.62780 0.56350 0.99830 0.02800
C 	C 	0.58910 0.51700 0.03890 -0.12300
H 	H 	0.64380 0.53710 0.04680 0.07700
O 	O 	0.11047 0.62943 0.50209 -0.40500
O 	O 	0.02907 0.58793 0.46336 -0.41400
C 	C 	0.09257 0.64013 0.47672 0.36900
C 	C 	0.15057 0.71833 0.46292 -0.10900
C 	C 	0.13777 0.73193 0.43457 -0.00000
H 	H 	0.08997 0.69253 0.42513 0.04300
C 	C 	0.09697 0.79673 0.35093 -0.01700
H 	H 	0.04217 0.77643 0.34303 0.02000
C 	C 	0.10867 0.78783 0.37993 -0.17100
H 	H 	0.06167 0.76303 0.39263 0.09400
C 	C 	0.24657 0.86633 0.34373 -0.02100
H 	H 	0.29447 0.89683 0.33163 0.02700
C 	C 	0.25577 0.85033 0.37223 -0.12300
H 	H 	0.31047 0.87043 0.38013 0.07700
O 	O 	0.77713 0.96277 0.83543 -0.40500
O 	O 	0.69573 0.92127 0.79670 -0.41400
C 	C 	0.75923 0.97347 0.81006 0.36800
C 	C 	0.81723 0.05167 0.79626 -0.10800
C 	C 	0.80443 0.06527 0.76791 -0.00100
H 	H 	0.75663 0.02587 0.75847 0.04400
C 	C 	0.76363 0.13007 0.68427 -0.01700
H 	H 	0.70883 0.10977 0.67637 0.02000
C 	C 	0.77533 0.12117 0.71327 -0.17100
H 	H 	0.72833 0.09637 0.72597 0.09400
C 	C 	0.91323 0.19967 0.67707 -0.02100
H 	H 	0.96113 0.23017 0.66497 0.02700
C 	C 	0.92243 0.18367 0.70557 -0.12300
H 	H 	0.97713 0.20377 0.71347 0.07700
O 	O 	0.85230 0.55620 0.16876 -0.40500
O 	O 	0.89220 0.63760 0.13003 -0.41400
C 	C 	0.88090 0.57410 0.14339 0.36900
C 	C 	0.90110 0.51610 0.12959 -0.10900
C 	C 	0.92750 0.52890 0.10124 -0.00100
H 	H 	0.93590 0.57670 0.09180 0.04300
C 	C 	0.03310 0.56970 0.01760 -0.01800
H 	H 	0.06760 0.62450 0.00970 0.02100
C 	C 	0.01250 0.55800 0.04660 -0.16700
H 	H 	0.03470 0.60500 0.05930 0.09300
C 	C 	0.95310 0.42010 0.01040 -0.02200
H 	H 	0.93570 0.37220 0.99830 0.02800
C 	C 	0.92790 0.41090 0.03890 -0.12200
H 	H 	0.89330 0.35620 0.04680 0.07600
O 	O 	0.51897 0.88953 0.50209 -0.40500
O 	O 	0.55887 0.97093 0.46336 -0.41400
C 	C 	0.54757 0.90743 0.47672 0.36900
C 	C 	0.56777 0.84943 0.46292 -0.10900
C 	C 	0.59417 0.86223 0.43457 -0.00000
H 	H 	0.60257 0.91003 0.42513 0.04300
C 	C 	0.69977 0.90303 0.35093 -0.01700
H 	H 	0.73427 0.95783 0.34303 0.02000
C 	C 	0.67917 0.89133 0.37993 -0.17100
H 	H 	0.70137 0.93833 0.39263 0.09400
C 	C 	0.61977 0.75343 0.34373 -0.02100
H 	H 	0.60237 0.70553 0.33163 0.02700
C 	C 	0.59457 0.74423 0.37223 -0.12300
H 	H 	0.55997 0.68953 0.38013 0.07700
O 	O 	0.18563 0.22287 0.83543 -0.40500
O 	O 	0.22553 0.30427 0.79670 -0.41400
C 	C 	0.21423 0.24077 0.81006 0.36900
C 	C 	0.23443 0.18277 0.79626 -0.10900
C 	C 	0.26083 0.19557 0.76791 -0.00100
H 	H 	0.26923 0.24337 0.75847 0.04300
C 	C 	0.36643 0.23637 0.68427 -0.01700
H 	H 	0.40093 0.29117 0.67637 0.02000
C 	C 	0.34583 0.22467 0.71327 -0.17100
H 	H 	0.36803 0.27167 0.72597 0.09400
C 	C 	0.28643 0.08677 0.67707 -0.02100
H 	H 	0.26903 0.03887 0.66497 0.02700
C 	C 	0.26123 0.07757 0.70557 -0.12300
H 	H 	0.22663 0.02287 0.71347 0.07700
O 	O 	0.70390 0.14770 0.16876 -0.40500
O 	O 	0.74540 0.10780 0.13003 -0.41400
C 	C 	0.69320 0.11910 0.14339 0.36900
C 	C 	0.61500 0.09890 0.12959 -0.10900
C 	C 	0.60140 0.07250 0.10124 -0.00000
H 	H 	0.64080 0.06410 0.09180 0.04300
C 	C 	0.53660 0.96690 0.01760 -0.01800
H 	H 	0.55690 0.93240 0.00970 0.02000
C 	C 	0.54550 0.98750 0.04660 -0.17100
H 	H 	0.57030 0.96530 0.05930 0.09400
C 	C 	0.46700 0.04690 0.01040 -0.02100
H 	H 	0.43650 0.06430 0.99830 0.02700
C 	C 	0.48300 0.07210 0.03890 -0.12300
H 	H 	0.46290 0.10670 0.04680 0.07700
O 	O 	0.37057 0.48103 0.50209 -0.40500
O 	O 	0.41207 0.44113 0.46336 -0.41400
C 	C 	0.35987 0.45243 0.47672 0.36900
C 	C 	0.28167 0.43223 0.46292 -0.10900
C 	C 	0.26807 0.40583 0.43457 -0.00000
H 	H 	0.30747 0.39743 0.42513 0.04300
C 	C 	0.20327 0.30023 0.35093 -0.01700
H 	H 	0.22357 0.26573 0.34303 0.02000
C 	C 	0.21217 0.32083 0.37993 -0.17100
H 	H 	0.23697 0.29863 0.39263 0.09400
C 	C 	0.13367 0.38023 0.34373 -0.02100
H 	H 	0.10317 0.39763 0.33163 0.02700
C 	C 	0.14967 0.40543 0.37223 -0.12300
H 	H 	0.12957 0.44003 0.38013 0.07700
O 	O 	0.03723 0.81437 0.83543 -0.40500
O 	O 	0.07873 0.77447 0.79670 -0.41400
C 	C 	0.02653 0.78577 0.81006 0.36900
C 	C 	0.94833 0.76557 0.79626 -0.10900
C 	C 	0.93473 0.73917 0.76791 -0.00000
H 	H 	0.97413 0.73077 0.75847 0.04300
C 	C 	0.86993 0.63357 0.68427 -0.01700
H 	H 	0.89023 0.59907 0.67637 0.02000
C 	C 	0.87883 0.65417 0.71327 -0.17100
H 	H 	0.90363 0.63197 0.72597 0.09400
C 	C 	0.80033 0.71357 0.67707 -0.02100
H 	H 	0.76983 0.73097 0.66497 0.02700
C 	C 	0.81633 0.73877 0.70557 -0.12400
H 	H 	0.79623 0.77337 0.71347 0.07700
O 	O 	0.70390 0.55620 0.16876 -0.40500
O 	O 	0.74540 0.63760 0.13003 -0.41400
C 	C 	0.69320 0.57410 0.14339 0.36900
C 	C 	0.61500 0.51610 0.12959 -0.10900
C 	C 	0.60140 0.52890 0.10124 -0.00000
H 	H 	0.64080 0.57670 0.09180 0.04300
C 	C 	0.53660 0.56970 0.01760 -0.01700
H 	H 	0.55690 0.62450 0.00970 0.02000
C 	C 	0.54550 0.55800 0.04660 -0.17000
H 	H 	0.57030 0.60500 0.05930 0.09400
C 	C 	0.46700 0.42010 0.01040 -0.02100
H 	H 	0.43650 0.37220 0.99830 0.02800
C 	C 	0.48300 0.41090 0.03890 -0.12300
H 	H 	0.46290 0.35620 0.04680 0.07700
O 	O 	0.37057 0.88953 0.50209 -0.40500
O 	O 	0.41207 0.97093 0.46336 -0.41400
C 	C 	0.35987 0.90743 0.47672 0.36900
C 	C 	0.28167 0.84943 0.46292 -0.10900
C 	C 	0.26807 0.86223 0.43457 -0.00000
H 	H 	0.30747 0.91003 0.42513 0.04300
C 	C 	0.20327 0.90303 0.35093 -0.01700
H 	H 	0.22357 0.95783 0.34303 0.02000
C 	C 	0.21217 0.89133 0.37993 -0.17100
H 	H 	0.23697 0.93833 0.39263 0.09400
C 	C 	0.13367 0.75343 0.34373 -0.02100
H 	H 	0.10317 0.70553 0.33163 0.02700
C 	C 	0.14967 0.74423 0.37223 -0.12300
H 	H 	0.12957 0.68953 0.38013 0.07700
O 	O 	0.03723 0.22287 0.83543 -0.40500
O 	O 	0.07873 0.30427 0.79670 -0.41400
C 	C 	0.02653 0.24077 0.81006 0.36900
C 	C 	0.94833 0.18277 0.79626 -0.10900
C 	C 	0.93473 0.19557 0.76791 -0.00100
H 	H 	0.97413 0.24337 0.75847 0.04300
C 	C 	0.86993 0.23637 0.68427 -0.01700
H 	H 	0.89023 0.29117 0.67637 0.02000
C 	C 	0.87883 0.22467 0.71327 -0.17100
H 	H 	0.90363 0.27167 0.72597 0.09400
C 	C 	0.80033 0.08677 0.67707 -0.02100
H 	H 	0.76983 0.03887 0.66497 0.02700
C 	C 	0.81633 0.07757 0.70557 -0.12300
H 	H 	0.79623 0.02287 0.71347 0.07700
O 	O 	0.44380 0.14770 0.16876 -0.40500
O 	O 	0.36240 0.10780 0.13003 -0.41400
C 	C 	0.42590 0.11910 0.14339 0.36900
C 	C 	0.48390 0.09890 0.12959 -0.10900
C 	C 	0.47110 0.07250 0.10124 -0.00000
H 	H 	0.42330 0.06410 0.09180 0.04300
C 	C 	0.43030 0.96690 0.01760 -0.01800
H 	H 	0.37550 0.93240 0.00970 0.02000
C 	C 	0.44200 0.98750 0.04660 -0.17100
H 	H 	0.39500 0.96530 0.05930 0.09400
C 	C 	0.57990 0.04690 0.01040 -0.02100
H 	H 	0.62780 0.06430 0.99830 0.02700
C 	C 	0.58910 0.07210 0.03890 -0.12300
H 	H 	0.64380 0.10670 0.04680 0.07700
O 	O 	0.11047 0.48103 0.50209 -0.40500
O 	O 	0.02907 0.44113 0.46336 -0.41300
C 	C 	0.09257 0.45243 0.47672 0.36900
C 	C 	0.15057 0.43223 0.46292 -0.10900
C 	C 	0.13777 0.40583 0.43457 -0.00000
H 	H 	0.08997 0.39743 0.42513 0.04300
C 	C 	0.09697 0.30023 0.35093 -0.01700
H 	H 	0.04217 0.26573 0.34303 0.02000
C 	C 	0.10867 0.32083 0.37993 -0.17100
H 	H 	0.06167 0.29863 0.39263 0.09400
C 	C 	0.24657 0.38023 0.34373 -0.02100
H 	H 	0.29447 0.39763 0.33163 0.02700
C 	C 	0.25577 0.40543 0.37223 -0.12300
H 	H 	0.31047 0.44003 0.38013 0.07700
O 	O 	0.77713 0.81437 0.83543 -0.40500
O 	O 	0.69573 0.77447 0.79670 -0.41400
C 	C 	0.75923 0.78577 0.81006 0.36900
C 	C 	0.81723 0.76557 0.79626 -0.10900
C 	C 	0.80443 0.73917 0.76791 -0.00000
H 	H 	0.75663 0.73077 0.75847 0.04300
C 	C 	0.76363 0.63357 0.68427 -0.01700
H 	H 	0.70883 0.59907 0.67637 0.02000
C 	C 	0.77533 0.65417 0.71327 -0.17100
H 	H 	0.72833 0.63197 0.72597 0.09400
C 	C 	0.91323 0.71357 0.67707 -0.02100
H 	H 	0.96113 0.73097 0.66497 0.02700
C 	C 	0.92243 0.73877 0.70557 -0.12400
H 	H 	0.97713 0.77337 0.71347 0.07700
O 	O 	0.85230 0.29610 0.16876 -0.40500
O 	O 	0.89220 0.25460 0.13003 -0.41400
C 	C 	0.88090 0.30680 0.14339 0.36900
C 	C 	0.90110 0.38500 0.12959 -0.10900
C 	C 	0.92750 0.39860 0.10124 -0.00100
H 	H 	0.93590 0.35920 0.09180 0.04300
C 	C 	0.03310 0.46340 0.01760 -0.01800
H 	H 	0.06760 0.44310 0.00970 0.02100
C 	C 	0.01250 0.45450 0.04660 -0.16700
H 	H 	0.03470 0.42970 0.05930 0.09300
C 	C 	0.95310 0.53300 0.01040 -0.02200
H 	H 	0.93570 0.56350 0.99830 0.02800
C 	C 	0.92790 0.51700 0.03890 -0.12200
H 	H 	0.89330 0.53710 0.04680 0.07600
O 	O 	0.51897 0.62943 0.50209 -0.40500
O 	O 	0.55887 0.58793 0.46336 -0.41400
C 	C 	0.54757 0.64013 0.47672 0.36900
C 	C 	0.56777 0.71833 0.46292 -0.10900
C 	C 	0.59417 0.73193 0.43457 -0.00000
H 	H 	0.60257 0.69253 0.42513 0.04300
C 	C 	0.69977 0.79673 0.35093 -0.01700
H 	H 	0.73427 0.77643 0.34303 0.02000
C 	C 	0.67917 0.78783 0.37993 -0.17100
H 	H 	0.70137 0.76303 0.39263 0.09400
C 	C 	0.61977 0.86633 0.34373 -0.02100
H 	H 	0.60237 0.89683 0.33163 0.02700
C 	C 	0.59457 0.85033 0.37223 -0.12300
H 	H 	0.55997 0.87043 0.38013 0.07700
O 	O 	0.18563 0.96277 0.83543 -0.40500
O 	O 	0.22553 0.92127 0.79670 -0.41400
C 	C 	0.21423 0.97347 0.81006 0.36800
C 	C 	0.23443 0.05167 0.79626 -0.10700
C 	C 	0.26083 0.06527 0.76791 -0.00100
H 	H 	0.26923 0.02587 0.75847 0.04400
C 	C 	0.36643 0.13007 0.68427 -0.01700
H 	H 	0.40093 0.10977 0.67637 0.02000
C 	C 	0.34583 0.12117 0.71327 -0.17100
H 	H 	0.36803 0.09637 0.72597 0.09400
C 	C 	0.28643 0.19967 0.67707 -0.02100
H 	H 	0.26903 0.23017 0.66497 0.02700
C 	C 	0.26123 0.18367 0.70557 -0.12300
H 	H 	0.22663 0.20377 0.71347 0.07700
O 	O 	0.55620 0.70390 0.83124 -0.40500
O 	O 	0.63760 0.74540 0.86997 -0.41400
C 	C 	0.57410 0.69320 0.85661 0.36900
C 	C 	0.51610 0.61500 0.87041 -0.10900
C 	C 	0.52890 0.60140 0.89876 -0.00000
H 	H 	0.57670 0.64080 0.90820 0.04300
C 	C 	0.56970 0.53660 0.98240 -0.01700
H 	H 	0.62450 0.55690 0.99030 0.01900
C 	C 	0.55800 0.54550 0.95340 -0.17000
H 	H 	0.60500 0.57030 0.94070 0.09400
C 	C 	0.42010 0.46700 0.98960 -0.02100
H 	H 	0.37220 0.43650 0.00170 0.02700
C 	C 	0.41090 0.48300 0.96110 -0.12300
H 	H 	0.35620 0.46290 0.95320 0.07700
O 	O 	0.22287 0.03723 0.16457 -0.40500
O 	O 	0.30427 0.07873 0.20330 -0.41400
C 	C 	0.24077 0.02653 0.18994 0.36900
C 	C 	0.18277 0.94833 0.20374 -0.10900
C 	C 	0.19557 0.93473 0.23209 -0.00100
H 	H 	0.24337 0.97413 0.24153 0.04300
C 	C 	0.23637 0.86993 0.31573 -0.01700
H 	H 	0.29117 0.89023 0.32363 0.02000
C 	C 	0.22467 0.87883 0.28673 -0.17100
H 	H 	0.27167 0.90363 0.27403 0.09400
C 	C 	0.08677 0.80033 0.32293 -0.02100
H 	H 	0.03887 0.76983 0.33503 0.02700
C 	C 	0.07757 0.81633 0.29443 -0.12300
H 	H 	0.02287 0.79623 0.28653 0.07700
O 	O 	0.88953 0.37057 0.49791 -0.40500
O 	O 	0.97093 0.41207 0.53664 -0.41400
C 	C 	0.90743 0.35987 0.52328 0.36900
C 	C 	0.84943 0.28167 0.53708 -0.10900
C 	C 	0.86223 0.26807 0.56543 -0.00000
H 	H 	0.91003 0.30747 0.57487 0.04300
C 	C 	0.90303 0.20327 0.64907 -0.01700
H 	H 	0.95783 0.22357 0.65697 0.02000
C 	C 	0.89133 0.21217 0.62007 -0.17100
H 	H 	0.93833 0.23697 0.60737 0.09400
C 	C 	0.75343 0.13367 0.65627 -0.02100
H 	H 	0.70553 0.10317 0.66837 0.02700
C 	C 	0.74423 0.14967 0.62777 -0.12300
H 	H 	0.68953 0.12957 0.61987 0.07700
O 	O 	0.14770 0.44380 0.83124 -0.40500
O 	O 	0.10780 0.36240 0.86997 -0.41400
C 	C 	0.11910 0.42590 0.85661 0.36900
C 	C 	0.09890 0.48390 0.87041 -0.10900
C 	C 	0.07250 0.47110 0.89876 -0.00000
H 	H 	0.06410 0.42330 0.90820 0.04300
C 	C 	0.96690 0.43030 0.98240 -0.01800
H 	H 	0.93240 0.37550 0.99030 0.01900
C 	C 	0.98750 0.44200 0.95340 -0.17100
H 	H 	0.96530 0.39500 0.94070 0.09400
C 	C 	0.04690 0.57990 0.98960 -0.02200
H 	H 	0.06430 0.62780 0.00170 0.02700
C 	C 	0.07210 0.58910 0.96110 -0.12300
H 	H 	0.10670 0.64380 0.95320 0.07700
O 	O 	0.81437 0.77713 0.16457 -0.40500
O 	O 	0.77447 0.69573 0.20330 -0.41400
C 	C 	0.78577 0.75923 0.18994 0.36900
C 	C 	0.76557 0.81723 0.20374 -0.10900
C 	C 	0.73917 0.80443 0.23209 -0.00000
H 	H 	0.73077 0.75663 0.24153 0.04300
C 	C 	0.63357 0.76363 0.31573 -0.01700
H 	H 	0.59907 0.70883 0.32363 0.02000
C 	C 	0.65417 0.77533 0.28673 -0.17100
H 	H 	0.63197 0.72833 0.27403 0.09400
C 	C 	0.71357 0.91323 0.32293 -0.02100
H 	H 	0.73097 0.96113 0.33503 0.02700
C 	C 	0.73877 0.92243 0.29443 -0.12400
H 	H 	0.77337 0.97713 0.28653 0.07700
O 	O 	0.48103 0.11047 0.49791 -0.40500
O 	O 	0.44113 0.02907 0.53664 -0.41300
C 	C 	0.45243 0.09257 0.52328 0.36900
C 	C 	0.43223 0.15057 0.53708 -0.10900
C 	C 	0.40583 0.13777 0.56543 -0.00000
H 	H 	0.39743 0.08997 0.57487 0.04300
C 	C 	0.30023 0.09697 0.64907 -0.01700
H 	H 	0.26573 0.04217 0.65697 0.02000
C 	C 	0.32083 0.10867 0.62007 -0.17100
H 	H 	0.29863 0.06167 0.60737 0.09400
C 	C 	0.38023 0.24657 0.65627 -0.02100
H 	H 	0.39763 0.29447 0.66837 0.02700
C 	C 	0.40543 0.25577 0.62777 -0.12300
H 	H 	0.44003 0.31047 0.61987 0.07700
O 	O 	0.29610 0.85230 0.83124 -0.40500
O 	O 	0.25460 0.89220 0.86997 -0.41400
C 	C 	0.30680 0.88090 0.85661 0.36900
C 	C 	0.38500 0.90110 0.87041 -0.10900
C 	C 	0.39860 0.92750 0.89876 -0.00100
H 	H 	0.35920 0.93590 0.90820 0.04300
C 	C 	0.46340 0.03310 0.98240 -0.01700
H 	H 	0.44310 0.06760 0.99030 0.02000
C 	C 	0.45450 0.01250 0.95340 -0.16700
H 	H 	0.42970 0.03470 0.94070 0.09300
C 	C 	0.53300 0.95310 0.98960 -0.02200
H 	H 	0.56350 0.93570 0.00170 0.02800
C 	C 	0.51700 0.92790 0.96110 -0.12200
H 	H 	0.53710 0.89330 0.95320 0.07600
O 	O 	0.96277 0.18563 0.16457 -0.40500
O 	O 	0.92127 0.22553 0.20330 -0.41400
C 	C 	0.97347 0.21423 0.18994 0.36800
C 	C 	0.05167 0.23443 0.20374 -0.10700
C 	C 	0.06527 0.26083 0.23209 -0.00100
H 	H 	0.02587 0.26923 0.24153 0.04400
C 	C 	0.13007 0.36643 0.31573 -0.01700
H 	H 	0.10977 0.40093 0.32363 0.02000
C 	C 	0.12117 0.34583 0.28673 -0.17100
H 	H 	0.09637 0.36803 0.27403 0.09400
C 	C 	0.19967 0.28643 0.32293 -0.02100
H 	H 	0.23017 0.26903 0.33503 0.02700
C 	C 	0.18367 0.26123 0.29443 -0.12300
H 	H 	0.20377 0.22663 0.28653 0.07700
O 	O 	0.62943 0.51897 0.49791 -0.40500
O 	O 	0.58793 0.55887 0.53664 -0.41400
C 	C 	0.64013 0.54757 0.52328 0.36900
C 	C 	0.71833 0.56777 0.53708 -0.10900
C 	C 	0.73193 0.59417 0.56543 -0.00000
H 	H 	0.69253 0.60257 0.57487 0.04300
C 	C 	0.79673 0.69977 0.64907 -0.01700
H 	H 	0.77643 0.73427 0.65697 0.02000
C 	C 	0.78783 0.67917 0.62007 -0.17100
H 	H 	0.76303 0.70137 0.60737 0.09400
C 	C 	0.86633 0.61977 0.65627 -0.02100
H 	H 	0.89683 0.60237 0.66837 0.02700
C 	C 	0.85033 0.59457 0.62777 -0.12300
H 	H 	0.87043 0.55997 0.61987 0.07700
Cu	Cu	0.38183 0.19092 0.18975 0.90700
Cu	Cu	0.04850 0.52425 0.52309 0.90800
Cu	Cu	0.71516 0.85758 0.85642 0.90700
Cu	Cu	0.80908 0.19092 0.18975 0.90700
Cu	Cu	0.47575 0.52425 0.52309 0.90700
Cu	Cu	0.14242 0.85758 0.85642 0.90700
Cu	Cu	0.80908 0.61817 0.18975 0.90700
Cu	Cu	0.47575 0.95150 0.52309 0.90700
Cu	Cu	0.14242 0.28484 0.85642 0.90700
Cu	Cu	0.19092 0.38183 0.81025 0.90700
Cu	Cu	0.85758 0.71516 0.14358 0.90700
Cu	Cu	0.52425 0.04850 0.47691 0.90800
Cu	Cu	0.19092 0.80908 0.81025 0.90700
Cu	Cu	0.85758 0.14242 0.14358 0.90700
Cu	Cu	0.52425 0.47575 0.47691 0.90700
Cu	Cu	0.61817 0.80908 0.81025 0.90700
Cu	Cu	0.28484 0.14242 0.14358 0.90700
Cu	Cu	0.95150 0.47575 0.47691 0.90700
C 	C 	0.44460 0.55540 0.85656 0.05100
H 	H 	0.43630 0.56370 0.83750 0.04400
C 	C 	0.47060 0.52940 0.91320 -0.02000
C 	C 	0.47920 0.52080 0.94370 0.03100
C 	C 	0.51550 0.48450 0.05790 0.01900
C 	C 	0.50870 0.49130 0.03330 0.25500
C 	C 	0.11127 0.88873 0.18989 0.05000
H 	H 	0.10297 0.89703 0.17083 0.04500
C 	C 	0.13727 0.86273 0.24653 -0.01900
C 	C 	0.14587 0.85413 0.27703 0.03100
C 	C 	0.18217 0.81783 0.39123 0.01900
C 	C 	0.17537 0.82463 0.36663 0.25500
C 	C 	0.77793 0.22207 0.52323 0.05100
H 	H 	0.76963 0.23037 0.50417 0.04400
C 	C 	0.80393 0.19607 0.57987 -0.02000
C 	C 	0.81253 0.18747 0.61037 0.03100
C 	C 	0.84883 0.15117 0.72457 0.01900
C 	C 	0.84203 0.15797 0.69997 0.25500
C 	C 	0.44460 0.88920 0.85656 0.05100
H 	H 	0.43630 0.87260 0.83750 0.04400
C 	C 	0.47060 0.94120 0.91320 -0.01900
C 	C 	0.47920 0.95840 0.94370 0.02900
C 	C 	0.51550 0.03100 0.05790 0.01900
C 	C 	0.50870 0.01740 0.03330 0.25600
C 	C 	0.11127 0.22253 0.18989 0.05000
H 	H 	0.10297 0.20593 0.17083 0.04500
C 	C 	0.13727 0.27453 0.24653 -0.01900
C 	C 	0.14587 0.29173 0.27703 0.03100
C 	C 	0.18217 0.36433 0.39123 0.01900
C 	C 	0.17537 0.35073 0.36663 0.25500
C 	C 	0.77793 0.55587 0.52323 0.05100
H 	H 	0.76963 0.53927 0.50417 0.04400
C 	C 	0.80393 0.60787 0.57987 -0.02000
C 	C 	0.81253 0.62507 0.61037 0.03100
C 	C 	0.84883 0.69767 0.72457 0.01900
C 	C 	0.84203 0.68407 0.69997 0.25500
C 	C 	0.11080 0.55540 0.85656 0.05100
H 	H 	0.12740 0.56370 0.83750 0.04400
C 	C 	0.05880 0.52940 0.91320 -0.02000
C 	C 	0.04160 0.52080 0.94370 0.03100
C 	C 	0.96900 0.48450 0.05790 0.01800
C 	C 	0.98260 0.49130 0.03330 0.25000
C 	C 	0.77747 0.88873 0.18989 0.05100
H 	H 	0.79407 0.89703 0.17083 0.04400
C 	C 	0.72547 0.86273 0.24653 -0.02000
C 	C 	0.70827 0.85413 0.27703 0.03100
C 	C 	0.63567 0.81783 0.39123 0.01900
C 	C 	0.64927 0.82463 0.36663 0.25500
C 	C 	0.44413 0.22207 0.52323 0.05100
H 	H 	0.46073 0.23037 0.50417 0.04400
C 	C 	0.39213 0.19607 0.57987 -0.02000
C 	C 	0.37493 0.18747 0.61037 0.03100
C 	C 	0.30233 0.15117 0.72457 0.01900
C 	C 	0.31593 0.15797 0.69997 0.25500
C 	C 	0.55540 0.44460 0.14344 0.05100
H 	H 	0.56370 0.43630 0.16250 0.04400
C 	C 	0.52940 0.47060 0.08680 -0.02000
C 	C 	0.52080 0.47920 0.05630 0.03100
C 	C 	0.48450 0.51550 0.94210 0.01900
C 	C 	0.49130 0.50870 0.96670 0.25500
C 	C 	0.22207 0.77793 0.47677 0.05100
H 	H 	0.23037 0.76963 0.49583 0.04400
C 	C 	0.19607 0.80393 0.42013 -0.02000
C 	C 	0.18747 0.81253 0.38963 0.03100
C 	C 	0.15117 0.84883 0.27543 0.01900
C 	C 	0.15797 0.84203 0.30003 0.25500
C 	C 	0.88873 0.11127 0.81011 0.05000
H 	H 	0.89703 0.10297 0.82917 0.04500
C 	C 	0.86273 0.13727 0.75347 -0.01900
C 	C 	0.85413 0.14587 0.72297 0.03100
C 	C 	0.81783 0.18217 0.60877 0.01900
C 	C 	0.82463 0.17537 0.63337 0.25500
C 	C 	0.88920 0.44460 0.14344 0.05100
H 	H 	0.87260 0.43630 0.16250 0.04400
C 	C 	0.94120 0.47060 0.08680 -0.01900
C 	C 	0.95840 0.47920 0.05630 0.02900
C 	C 	0.03100 0.51550 0.94210 0.01800
C 	C 	0.01740 0.50870 0.96670 0.25500
C 	C 	0.55587 0.77793 0.47677 0.05100
H 	H 	0.53927 0.76963 0.49583 0.04400
C 	C 	0.60787 0.80393 0.42013 -0.02000
C 	C 	0.62507 0.81253 0.38963 0.03100
C 	C 	0.69767 0.84883 0.27543 0.01900
C 	C 	0.68407 0.84203 0.30003 0.25500
C 	C 	0.22253 0.11127 0.81011 0.05000
H 	H 	0.20593 0.10297 0.82917 0.04500
C 	C 	0.27453 0.13727 0.75347 -0.01900
C 	C 	0.29173 0.14587 0.72297 0.03100
C 	C 	0.36433 0.18217 0.60877 0.01900
C 	C 	0.35073 0.17537 0.63337 0.25500
C 	C 	0.55540 0.11080 0.14344 0.05100
H 	H 	0.56370 0.12740 0.16250 0.04400
C 	C 	0.52940 0.05880 0.08680 -0.02000
C 	C 	0.52080 0.04160 0.05630 0.03100
C 	C 	0.48450 0.96900 0.94210 0.01800
C 	C 	0.49130 0.98260 0.96670 0.25100
C 	C 	0.22207 0.44413 0.47677 0.05100
H 	H 	0.23037 0.46073 0.49583 0.04400
C 	C 	0.19607 0.39213 0.42013 -0.02000
C 	C 	0.18747 0.37493 0.38963 0.03100
C 	C 	0.15117 0.30233 0.27543 0.01900
C 	C 	0.15797 0.31593 0.30003 0.25500
C 	C 	0.88873 0.77747 0.81011 0.05100
H 	H 	0.89703 0.79407 0.82917 0.04400
C 	C 	0.86273 0.72547 0.75347 -0.02000
C 	C 	0.85413 0.70827 0.72297 0.03100
C 	C 	0.81783 0.63567 0.60877 0.01900
C 	C 	0.82463 0.64927 0.63337 0.25500
C 	C 	0.50000 0.50000 -0.00000 -0.06100
C 	C 	0.16667 0.83333 0.33333 -0.06200
C 	C 	0.83333 0.16667 0.66667 -0.06200
C 	C 	0.50000 0.00000 -0.00000 -0.05700
C 	C 	0.16667 0.33333 0.33333 -0.06200
C 	C 	0.83333 0.66667 0.66667 -0.06200
C 	C 	-0.00000 0.50000 -0.00000 -0.05700
C 	C 	0.66667 0.83333 0.33333 -0.06200
C 	C 	0.33333 0.16667 0.66667 -0.06200
