data_crystal

_cell_length_a 16.86870
_cell_length_b 16.86870
_cell_length_c 28.56130
_cell_angle_alpha 90.00000
_cell_angle_beta  90.00000
_cell_angle_gamma 90.00000

_symmetry_space_group_name_	'P 1'
_symmetry_space_group_name_H-M	'P 1'

loop_
_symmetry_equiv_pos_as_xyz
  x,y,z

loop_
_atom_site_label
_atom_site_type_symbol
_atom_site_fract_x
_atom_site_fract_y
_atom_site_fract_z
_atom_site_charge
Cd	Cd	0.69351 0.21804 0.00658 1.17500
S 	S 	0.60080 0.23465 0.77212 -0.08100
S 	S 	0.82340 0.31468 0.22680 -0.06700
N 	N 	0.66851 0.35400 0.99977 -0.25400
N 	N 	0.66403 0.21316 0.92605 -0.25300
N 	N 	0.33361 0.26396 0.75657 -0.24000
N 	N 	0.71496 0.23738 0.08801 -0.25000
N 	N 	0.80432 0.58287 0.23719 -0.26100
C 	C 	0.60360 0.38080 0.97900 0.08200
H 	H 	0.56970 0.34350 0.96420 -0.03000
C 	C 	0.58220 0.46060 0.97767 -0.15900
H 	H 	0.53540 0.47760 0.96210 0.07900
C 	C 	0.63190 0.51410 0.99991 0.09500
C 	C 	0.70120 0.48750 0.02094 -0.15500
H 	H 	0.73650 0.52350 0.03570 0.08400
C 	C 	0.71720 0.40750 0.01973 0.07900
H 	H 	0.76500 0.38910 0.03360 -0.01900
C 	C 	0.69980 0.26500 0.89767 0.08300
H 	H 	0.74090 0.29690 0.91040 -0.02300
C 	C 	0.68090 0.27490 0.85136 -0.16100
H 	H 	0.70750 0.31320 0.83270 0.08500
C 	C 	0.62170 0.22740 0.83256 0.09700
C 	C 	0.58440 0.17200 0.86098 -0.16200
H 	H 	0.54420 0.13830 0.84890 0.07900
C 	C 	0.60770 0.16740 0.90751 0.07900
H 	H 	0.58220 0.12970 0.92710 -0.02900
C 	C 	0.37080 0.29120 0.79490 0.08100
H 	H 	0.34000 0.31770 0.81790 -0.02000
C 	C 	0.45080 0.28310 0.80286 -0.15800
H 	H 	0.47420 0.30450 0.83030 0.08100
C 	C 	0.49680 0.24340 0.77043 0.09500
C 	C 	0.45900 0.21310 0.73072 -0.15100
H 	H 	0.48830 0.18450 0.70780 0.07800
C 	C 	0.37930 0.22510 0.72530 0.07500
H 	H 	0.35460 0.20480 0.69790 -0.01400
C 	C 	0.68440 0.29910 0.11150 0.07900
H 	H 	0.64030 0.32590 0.09820 -0.02400
C 	C 	0.71330 0.32590 0.15372 -0.16000
H 	H 	0.68920 0.36940 0.16930 0.08300
C 	C 	0.77850 0.28760 0.17305 0.09800
C 	C 	0.80910 0.22180 0.15016 -0.15800
H 	H 	0.85230 0.19310 0.16300 0.08700
C 	C 	0.77540 0.19920 0.10845 0.08000
H 	H 	0.79630 0.15380 0.09320 -0.02100
C 	C 	0.82640 0.54760 0.19696 0.07300
H 	H 	0.84040 0.58020 0.17120 -0.02800
C 	C 	0.82990 0.46700 0.19130 -0.15500
H 	H 	0.84530 0.44470 0.16210 0.07900
C 	C 	0.81040 0.41820 0.22888 0.09200
C 	C 	0.78650 0.45330 0.27022 -0.15400
H 	H 	0.77160 0.42170 0.29630 0.08100
C 	C 	0.78450 0.53560 0.27314 0.07500
H 	H 	0.76850 0.55930 0.30180 -0.02200
Cd	Cd	0.30649 0.78196 0.50658 1.17400
S 	S 	0.39920 0.76535 0.27212 -0.08200
S 	S 	0.17660 0.68532 0.72680 -0.06800
N 	N 	0.33149 0.64600 0.49977 -0.25500
N 	N 	0.33597 0.78684 0.42605 -0.25400
N 	N 	0.66639 0.73604 0.25657 -0.24100
N 	N 	0.28504 0.76262 0.58801 -0.25100
N 	N 	0.19568 0.41713 0.73719 -0.26200
C 	C 	0.39640 0.61920 0.47900 0.08100
H 	H 	0.43030 0.65650 0.46420 -0.03100
C 	C 	0.41780 0.53940 0.47767 -0.16100
H 	H 	0.46460 0.52240 0.46210 0.08000
C 	C 	0.36810 0.48590 0.49991 0.09600
C 	C 	0.29880 0.51250 0.52094 -0.15600
H 	H 	0.26350 0.47650 0.53570 0.08500
C 	C 	0.28280 0.59250 0.51973 0.07900
H 	H 	0.23500 0.61090 0.53360 -0.01900
C 	C 	0.30020 0.73500 0.39767 0.08300
H 	H 	0.25910 0.70310 0.41040 -0.02300
C 	C 	0.31910 0.72510 0.35136 -0.16100
H 	H 	0.29250 0.68680 0.33270 0.08500
C 	C 	0.37830 0.77260 0.33256 0.09700
C 	C 	0.41560 0.82800 0.36098 -0.16200
H 	H 	0.45580 0.86170 0.34890 0.07900
C 	C 	0.39230 0.83260 0.40751 0.07900
H 	H 	0.41780 0.87030 0.42710 -0.02900
C 	C 	0.62920 0.70880 0.29490 0.08100
H 	H 	0.66000 0.68230 0.31790 -0.02000
C 	C 	0.54920 0.71690 0.30286 -0.15800
H 	H 	0.52580 0.69550 0.33030 0.08100
C 	C 	0.50320 0.75660 0.27043 0.09500
C 	C 	0.54100 0.78690 0.23072 -0.15100
H 	H 	0.51170 0.81550 0.20780 0.07800
C 	C 	0.62070 0.77490 0.22530 0.07500
H 	H 	0.64540 0.79520 0.19790 -0.01400
C 	C 	0.31560 0.70090 0.61150 0.07900
H 	H 	0.35970 0.67410 0.59820 -0.02400
C 	C 	0.28670 0.67410 0.65372 -0.16000
H 	H 	0.31080 0.63060 0.66930 0.08300
C 	C 	0.22150 0.71240 0.67305 0.09800
C 	C 	0.19090 0.77820 0.65016 -0.15800
H 	H 	0.14770 0.80690 0.66300 0.08700
C 	C 	0.22460 0.80080 0.60845 0.08000
H 	H 	0.20370 0.84620 0.59320 -0.02100
C 	C 	0.17360 0.45240 0.69696 0.07300
H 	H 	0.15960 0.41980 0.67120 -0.02800
C 	C 	0.17010 0.53300 0.69130 -0.15500
H 	H 	0.15470 0.55530 0.66210 0.07900
C 	C 	0.18960 0.58180 0.72888 0.09200
C 	C 	0.21350 0.54670 0.77022 -0.15400
H 	H 	0.22840 0.57830 0.79630 0.08100
C 	C 	0.21550 0.46440 0.77314 0.07500
H 	H 	0.23150 0.44070 0.80180 -0.02200
Cd	Cd	0.28196 0.19351 0.25658 1.17400
S 	S 	0.26535 0.10080 0.02212 -0.08200
S 	S 	0.18532 0.32340 0.47680 -0.06800
N 	N 	0.14600 0.16851 0.24977 -0.25400
N 	N 	0.28684 0.16403 0.17605 -0.25400
N 	N 	0.23604 0.83361 0.00657 -0.23900
N 	N 	0.26262 0.21496 0.33801 -0.25100
N 	N 	0.91713 0.30432 0.48719 -0.26200
C 	C 	0.11920 0.10360 0.22900 0.07900
H 	H 	0.15650 0.06970 0.21420 -0.03000
C 	C 	0.03940 0.08220 0.22767 -0.15600
H 	H 	0.02240 0.03540 0.21210 0.07900
C 	C 	0.98590 0.13190 0.24991 0.09100
C 	C 	0.01250 0.20120 0.27094 -0.15000
H 	H 	0.97650 0.23650 0.28570 0.08200
C 	C 	0.09250 0.21720 0.26973 0.07600
H 	H 	0.11090 0.26500 0.28360 -0.01800
C 	C 	0.23500 0.19980 0.14767 0.08300
H 	H 	0.20310 0.24090 0.16040 -0.02200
C 	C 	0.22510 0.18090 0.10136 -0.16100
H 	H 	0.18680 0.20750 0.08270 0.08500
C 	C 	0.27260 0.12170 0.08256 0.09700
C 	C 	0.32800 0.08440 0.11098 -0.16200
H 	H 	0.36170 0.04420 0.09890 0.07900
C 	C 	0.33260 0.10770 0.15751 0.07900
H 	H 	0.37030 0.08220 0.17710 -0.02900
C 	C 	0.20880 0.87080 0.04490 0.08200
H 	H 	0.18230 0.84000 0.06790 -0.02000
C 	C 	0.21690 0.95080 0.05286 -0.15900
H 	H 	0.19550 0.97420 0.08030 0.08200
C 	C 	0.25660 0.99680 0.02043 0.09700
C 	C 	0.28690 0.95900 0.98072 -0.15400
H 	H 	0.31550 0.98830 0.95780 0.07800
C 	C 	0.27490 0.87930 0.97530 0.07400
H 	H 	0.29520 0.85460 0.94790 -0.01400
C 	C 	0.20090 0.18440 0.36150 0.07900
H 	H 	0.17410 0.14030 0.34820 -0.02400
C 	C 	0.17410 0.21330 0.40372 -0.16000
H 	H 	0.13060 0.18920 0.41930 0.08300
C 	C 	0.21240 0.27850 0.42305 0.09800
C 	C 	0.27820 0.30910 0.40016 -0.15800
H 	H 	0.30690 0.35230 0.41300 0.08800
C 	C 	0.30080 0.27540 0.35845 0.08000
H 	H 	0.34620 0.29630 0.34320 -0.02100
C 	C 	0.95240 0.32640 0.44696 0.07100
H 	H 	0.91980 0.34040 0.42120 -0.02700
C 	C 	0.03300 0.32990 0.44130 -0.15300
H 	H 	0.05530 0.34530 0.41210 0.07900
C 	C 	0.08180 0.31040 0.47888 0.09200
C 	C 	0.04670 0.28650 0.52022 -0.15200
H 	H 	0.07830 0.27160 0.54630 0.08000
C 	C 	0.96440 0.28450 0.52314 0.07300
H 	H 	0.94070 0.26850 0.55180 -0.02200
Cd	Cd	0.71804 0.80649 0.75658 1.17400
S 	S 	0.73465 0.89920 0.52212 -0.08200
S 	S 	0.81468 0.67660 0.97680 -0.06800
N 	N 	0.85400 0.83149 0.74977 -0.25400
N 	N 	0.71316 0.83597 0.67605 -0.25400
N 	N 	0.76396 0.16639 0.50657 -0.24000
N 	N 	0.73738 0.78504 0.83801 -0.25100
N 	N 	0.08287 0.69568 0.98719 -0.26300
C 	C 	0.88080 0.89640 0.72900 0.07900
H 	H 	0.84350 0.93030 0.71420 -0.03000
C 	C 	0.96060 0.91780 0.72767 -0.15700
H 	H 	0.97760 0.96460 0.71210 0.07900
C 	C 	0.01410 0.86810 0.74991 0.09100
C 	C 	0.98750 0.79880 0.77094 -0.15000
H 	H 	0.02350 0.76350 0.78570 0.08200
C 	C 	0.90750 0.78280 0.76973 0.07600
H 	H 	0.88910 0.73500 0.78360 -0.01800
C 	C 	0.76500 0.80020 0.64767 0.08300
H 	H 	0.79690 0.75910 0.66040 -0.02300
C 	C 	0.77490 0.81910 0.60136 -0.16100
H 	H 	0.81320 0.79250 0.58270 0.08500
C 	C 	0.72740 0.87830 0.58256 0.09700
C 	C 	0.67200 0.91560 0.61098 -0.16200
H 	H 	0.63830 0.95580 0.59890 0.07900
C 	C 	0.66740 0.89230 0.65751 0.07900
H 	H 	0.62970 0.91780 0.67710 -0.02900
C 	C 	0.79120 0.12920 0.54490 0.08000
H 	H 	0.81770 0.16000 0.56790 -0.02000
C 	C 	0.78310 0.04920 0.55286 -0.15700
H 	H 	0.80450 0.02580 0.58030 0.08100
C 	C 	0.74340 0.00320 0.52043 0.09400
C 	C 	0.71310 0.04100 0.48072 -0.15100
H 	H 	0.68450 0.01170 0.45780 0.07800
C 	C 	0.72510 0.12070 0.47530 0.07500
H 	H 	0.70480 0.14540 0.44790 -0.01400
C 	C 	0.79910 0.81560 0.86150 0.07900
H 	H 	0.82590 0.85970 0.84820 -0.02400
C 	C 	0.82590 0.78670 0.90372 -0.16000
H 	H 	0.86940 0.81080 0.91930 0.08300
C 	C 	0.78760 0.72150 0.92305 0.09800
C 	C 	0.72180 0.69090 0.90016 -0.15800
H 	H 	0.69310 0.64770 0.91300 0.08700
C 	C 	0.69920 0.72460 0.85845 0.08000
H 	H 	0.65380 0.70370 0.84320 -0.02100
C 	C 	0.04760 0.67360 0.94696 0.07000
H 	H 	0.08020 0.65960 0.92120 -0.02700
C 	C 	0.96700 0.67010 0.94130 -0.15300
H 	H 	0.94470 0.65470 0.91210 0.07900
C 	C 	0.91820 0.68960 0.97888 0.09200
C 	C 	0.95330 0.71350 0.02022 -0.15400
H 	H 	0.92170 0.72840 0.04630 0.08100
C 	C 	0.03560 0.71550 0.02314 0.07700
H 	H 	0.05930 0.73150 0.05180 -0.02300
Cd	Cd	0.80649 0.71804 0.24342 1.17400
S 	S 	0.89920 0.73465 0.47788 -0.08200
S 	S 	0.67660 0.81468 0.02320 -0.06800
N 	N 	0.83149 0.85400 0.25023 -0.25400
N 	N 	0.83597 0.71316 0.32395 -0.25400
N 	N 	0.16639 0.76396 0.49343 -0.24000
N 	N 	0.78504 0.73738 0.16199 -0.25100
N 	N 	0.69568 0.08287 0.01281 -0.26200
C 	C 	0.89640 0.88080 0.27100 0.07900
H 	H 	0.93030 0.84350 0.28580 -0.03000
C 	C 	0.91780 0.96060 0.27233 -0.15600
H 	H 	0.96460 0.97760 0.28790 0.07900
C 	C 	0.86810 0.01410 0.25009 0.09100
C 	C 	0.79880 0.98750 0.22906 -0.15000
H 	H 	0.76350 0.02350 0.21430 0.08200
C 	C 	0.78280 0.90750 0.23027 0.07600
H 	H 	0.73500 0.88910 0.21640 -0.01800
C 	C 	0.80020 0.76500 0.35233 0.08300
H 	H 	0.75910 0.79690 0.33960 -0.02300
C 	C 	0.81910 0.77490 0.39864 -0.16100
H 	H 	0.79250 0.81320 0.41730 0.08500
C 	C 	0.87830 0.72740 0.41744 0.09700
C 	C 	0.91560 0.67200 0.38902 -0.16200
H 	H 	0.95580 0.63830 0.40110 0.07900
C 	C 	0.89230 0.66740 0.34249 0.07900
H 	H 	0.91780 0.62970 0.32290 -0.02900
C 	C 	0.12920 0.79120 0.45510 0.08000
H 	H 	0.16000 0.81770 0.43210 -0.02000
C 	C 	0.04920 0.78310 0.44714 -0.15700
H 	H 	0.02580 0.80450 0.41970 0.08100
C 	C 	0.00320 0.74340 0.47957 0.09400
C 	C 	0.04100 0.71310 0.51928 -0.15100
H 	H 	0.01170 0.68450 0.54220 0.07800
C 	C 	0.12070 0.72510 0.52470 0.07500
H 	H 	0.14540 0.70480 0.55210 -0.01400
C 	C 	0.81560 0.79910 0.13850 0.07900
H 	H 	0.85970 0.82590 0.15180 -0.02400
C 	C 	0.78670 0.82590 0.09628 -0.16000
H 	H 	0.81080 0.86940 0.08070 0.08300
C 	C 	0.72150 0.78760 0.07695 0.09800
C 	C 	0.69090 0.72180 0.09984 -0.15800
H 	H 	0.64770 0.69310 0.08700 0.08800
C 	C 	0.72460 0.69920 0.14155 0.08000
H 	H 	0.70370 0.65380 0.15680 -0.02100
C 	C 	0.67360 0.04760 0.05304 0.07100
H 	H 	0.65960 0.08020 0.07880 -0.02700
C 	C 	0.67010 0.96700 0.05870 -0.15300
H 	H 	0.65470 0.94470 0.08790 0.07900
C 	C 	0.68960 0.91820 0.02112 0.09400
C 	C 	0.71350 0.95330 0.97978 -0.15600
H 	H 	0.72840 0.92170 0.95370 0.08100
C 	C 	0.71550 0.03560 0.97686 0.07600
H 	H 	0.73150 0.05930 0.94820 -0.02300
Cd	Cd	0.19351 0.28196 0.74342 1.17400
S 	S 	0.10080 0.26535 0.97788 -0.08300
S 	S 	0.32340 0.18532 0.52320 -0.06800
N 	N 	0.16851 0.14600 0.75023 -0.25400
N 	N 	0.16403 0.28684 0.82395 -0.25400
N 	N 	0.83361 0.23604 0.99343 -0.24000
N 	N 	0.21496 0.26262 0.66199 -0.25100
N 	N 	0.30432 0.91713 0.51281 -0.26200
C 	C 	0.10360 0.11920 0.77100 0.07900
H 	H 	0.06970 0.15650 0.78580 -0.03000
C 	C 	0.08220 0.03940 0.77233 -0.15600
H 	H 	0.03540 0.02240 0.78790 0.07900
C 	C 	0.13190 0.98590 0.75009 0.09100
C 	C 	0.20120 0.01250 0.72906 -0.15000
H 	H 	0.23650 0.97650 0.71430 0.08200
C 	C 	0.21720 0.09250 0.73027 0.07600
H 	H 	0.26500 0.11090 0.71640 -0.01800
C 	C 	0.19980 0.23500 0.85233 0.08300
H 	H 	0.24090 0.20310 0.83960 -0.02300
C 	C 	0.18090 0.22510 0.89864 -0.16100
H 	H 	0.20750 0.18680 0.91730 0.08500
C 	C 	0.12170 0.27260 0.91744 0.09700
C 	C 	0.08440 0.32800 0.88902 -0.16200
H 	H 	0.04420 0.36170 0.90110 0.07900
C 	C 	0.10770 0.33260 0.84249 0.07900
H 	H 	0.08220 0.37030 0.82290 -0.02900
C 	C 	0.87080 0.20880 0.95510 0.08100
H 	H 	0.84000 0.18230 0.93210 -0.02000
C 	C 	0.95080 0.21690 0.94714 -0.15800
H 	H 	0.97420 0.19550 0.91970 0.08100
C 	C 	0.99680 0.25660 0.97957 0.09500
C 	C 	0.95900 0.28690 0.01928 -0.15200
H 	H 	0.98830 0.31550 0.04220 0.07800
C 	C 	0.87930 0.27490 0.02470 0.07500
H 	H 	0.85460 0.29520 0.05210 -0.01400
C 	C 	0.18440 0.20090 0.63850 0.07900
H 	H 	0.14030 0.17410 0.65180 -0.02400
C 	C 	0.21330 0.17410 0.59628 -0.16000
H 	H 	0.18920 0.13060 0.58070 0.08300
C 	C 	0.27850 0.21240 0.57695 0.09800
C 	C 	0.30910 0.27820 0.59984 -0.15800
H 	H 	0.35230 0.30690 0.58700 0.08800
C 	C 	0.27540 0.30080 0.64155 0.08000
H 	H 	0.29630 0.34620 0.65680 -0.02100
C 	C 	0.32640 0.95240 0.55304 0.07100
H 	H 	0.34040 0.91980 0.57880 -0.02700
C 	C 	0.32990 0.03300 0.55870 -0.15300
H 	H 	0.34530 0.05530 0.58790 0.07900
C 	C 	0.31040 0.08180 0.52112 0.09200
C 	C 	0.28650 0.04670 0.47978 -0.15200
H 	H 	0.27160 0.07830 0.45370 0.08000
C 	C 	0.28450 0.96440 0.47686 0.07300
H 	H 	0.26850 0.94070 0.44820 -0.02200
Cd	Cd	0.21804 0.69351 0.99342 1.17300
S 	S 	0.23465 0.60080 0.22788 -0.08200
S 	S 	0.31468 0.82340 0.77320 -0.06800
N 	N 	0.35400 0.66851 0.00023 -0.25400
N 	N 	0.21316 0.66403 0.07395 -0.25400
N 	N 	0.26396 0.33361 0.24343 -0.24000
N 	N 	0.23738 0.71496 0.91199 -0.25100
N 	N 	0.58287 0.80432 0.76281 -0.26200
C 	C 	0.38080 0.60360 0.02100 0.08200
H 	H 	0.34350 0.56970 0.03580 -0.03100
C 	C 	0.46060 0.58220 0.02233 -0.16100
H 	H 	0.47760 0.53540 0.03790 0.08000
C 	C 	0.51410 0.63190 0.00009 0.09800
C 	C 	0.48750 0.70120 0.97906 -0.15700
H 	H 	0.52350 0.73650 0.96430 0.08500
C 	C 	0.40750 0.71720 0.98027 0.07800
H 	H 	0.38910 0.76500 0.96640 -0.01900
C 	C 	0.26500 0.69980 0.10233 0.08300
H 	H 	0.29690 0.74090 0.08960 -0.02200
C 	C 	0.27490 0.68090 0.14864 -0.16100
H 	H 	0.31320 0.70750 0.16730 0.08500
C 	C 	0.22740 0.62170 0.16744 0.09700
C 	C 	0.17200 0.58440 0.13902 -0.16200
H 	H 	0.13830 0.54420 0.15110 0.07900
C 	C 	0.16740 0.60770 0.09249 0.07900
H 	H 	0.12970 0.58220 0.07290 -0.02900
C 	C 	0.29120 0.37080 0.20510 0.08100
H 	H 	0.31770 0.34000 0.18210 -0.02000
C 	C 	0.28310 0.45080 0.19714 -0.15800
H 	H 	0.30450 0.47420 0.16970 0.08100
C 	C 	0.24340 0.49680 0.22957 0.09500
C 	C 	0.21310 0.45900 0.26928 -0.15100
H 	H 	0.18450 0.48830 0.29220 0.07800
C 	C 	0.22510 0.37930 0.27470 0.07500
H 	H 	0.20480 0.35460 0.30210 -0.01400
C 	C 	0.29910 0.68440 0.88850 0.07900
H 	H 	0.32590 0.64030 0.90180 -0.02500
C 	C 	0.32590 0.71330 0.84628 -0.16000
H 	H 	0.36940 0.68920 0.83070 0.08300
C 	C 	0.28760 0.77850 0.82695 0.09800
C 	C 	0.22180 0.80910 0.84984 -0.15800
H 	H 	0.19310 0.85230 0.83700 0.08700
C 	C 	0.19920 0.77540 0.89155 0.08000
H 	H 	0.15380 0.79630 0.90680 -0.02200
C 	C 	0.54760 0.82640 0.80304 0.07300
H 	H 	0.58020 0.84040 0.82880 -0.02800
C 	C 	0.46700 0.82990 0.80870 -0.15500
H 	H 	0.44470 0.84530 0.83790 0.07900
C 	C 	0.41820 0.81040 0.77112 0.09200
C 	C 	0.45330 0.78650 0.72978 -0.15400
H 	H 	0.42170 0.77160 0.70370 0.08100
C 	C 	0.53560 0.78450 0.72686 0.07500
H 	H 	0.55930 0.76850 0.69820 -0.02200
Cd	Cd	0.78196 0.30649 0.49342 1.17400
S 	S 	0.76535 0.39920 0.72788 -0.08200
S 	S 	0.68532 0.17660 0.27320 -0.06800
N 	N 	0.64600 0.33149 0.50023 -0.25500
N 	N 	0.78684 0.33597 0.57395 -0.25400
N 	N 	0.73604 0.66639 0.74343 -0.24100
N 	N 	0.76262 0.28504 0.41199 -0.25100
N 	N 	0.41713 0.19568 0.26281 -0.26200
C 	C 	0.61920 0.39640 0.52100 0.08100
H 	H 	0.65650 0.43030 0.53580 -0.03100
C 	C 	0.53940 0.41780 0.52233 -0.16100
H 	H 	0.52240 0.46460 0.53790 0.08000
C 	C 	0.48590 0.36810 0.50009 0.09600
C 	C 	0.51250 0.29880 0.47906 -0.15600
H 	H 	0.47650 0.26350 0.46430 0.08500
C 	C 	0.59250 0.28280 0.48027 0.07900
H 	H 	0.61090 0.23500 0.46640 -0.01900
C 	C 	0.73500 0.30020 0.60233 0.08300
H 	H 	0.70310 0.25910 0.58960 -0.02300
C 	C 	0.72510 0.31910 0.64864 -0.16100
H 	H 	0.68680 0.29250 0.66730 0.08500
C 	C 	0.77260 0.37830 0.66744 0.09700
C 	C 	0.82800 0.41560 0.63902 -0.16200
H 	H 	0.86170 0.45580 0.65110 0.07900
C 	C 	0.83260 0.39230 0.59249 0.07900
H 	H 	0.87030 0.41780 0.57290 -0.02900
C 	C 	0.70880 0.62920 0.70510 0.08100
H 	H 	0.68230 0.66000 0.68210 -0.02000
C 	C 	0.71690 0.54920 0.69714 -0.15800
H 	H 	0.69550 0.52580 0.66970 0.08100
C 	C 	0.75660 0.50320 0.72957 0.09500
C 	C 	0.78690 0.54100 0.76928 -0.15100
H 	H 	0.81550 0.51170 0.79220 0.07800
C 	C 	0.77490 0.62070 0.77470 0.07500
H 	H 	0.79520 0.64540 0.80210 -0.01400
C 	C 	0.70090 0.31560 0.38850 0.07900
H 	H 	0.67410 0.35970 0.40180 -0.02400
C 	C 	0.67410 0.28670 0.34628 -0.16000
H 	H 	0.63060 0.31080 0.33070 0.08300
C 	C 	0.71240 0.22150 0.32695 0.09800
C 	C 	0.77820 0.19090 0.34984 -0.15800
H 	H 	0.80690 0.14770 0.33700 0.08700
C 	C 	0.80080 0.22460 0.39155 0.08000
H 	H 	0.84620 0.20370 0.40680 -0.02100
C 	C 	0.45240 0.17360 0.30304 0.07300
H 	H 	0.41980 0.15960 0.32880 -0.02800
C 	C 	0.53300 0.17010 0.30870 -0.15500
H 	H 	0.55530 0.15470 0.33790 0.07900
C 	C 	0.58180 0.18960 0.27112 0.09200
C 	C 	0.54670 0.21350 0.22978 -0.15400
H 	H 	0.57830 0.22840 0.20370 0.08100
C 	C 	0.46440 0.21550 0.22686 0.07500
H 	H 	0.44070 0.23150 0.19820 -0.02200
S 	S 	0.61752 0.61752 -0.00000 -0.07400
S 	S 	0.38248 0.38248 0.50000 -0.07500
S 	S 	0.88248 0.11752 0.25000 -0.07300
S 	S 	0.11752 0.88248 0.75000 -0.07300
