data_crystal

_cell_length_a 16.24700
_cell_length_b 25.78270
_cell_length_c 41.22820
_cell_angle_alpha 86.44080
_cell_angle_beta  78.63640
_cell_angle_gamma 71.63460

_symmetry_space_group_name_	'P 1'
_symmetry_space_group_name_H-M	'P 1'

loop_
_symmetry_equiv_pos_as_xyz
  x,y,z

loop_
_atom_site_label
_atom_site_type_symbol
_atom_site_fract_x
_atom_site_fract_y
_atom_site_fract_z
_atom_site_charge
Yb	Yb	0.11968 0.25000 0.26064 1.58400
Yb	Yb	0.63032 0.25000 0.23936 1.58400
Yb	Yb	0.88032 0.75000 0.73936 1.58400
Yb	Yb	0.36968 0.75000 0.76064 1.58400
Yb	Yb	0.40970 0.18060 0.25000 1.56100
Yb	Yb	0.84030 0.31940 0.25000 1.56100
Yb	Yb	0.59030 0.81940 0.75000 1.56100
Yb	Yb	0.15970 0.68060 0.75000 1.56100
H 	H 	0.37510 0.29180 0.32600 0.01000
H 	H 	0.35660 0.34460 0.37200 0.09500
H 	H 	0.10830 0.42580 0.36100 0.10500
H 	H 	0.12680 0.37300 0.31500 0.00400
H 	H 	0.27180 0.40940 0.40980 0.07000
H 	H 	0.10140 0.46520 0.41480 0.05200
H 	H 	0.03900 0.57200 0.50580 0.05600
H 	H 	0.27300 0.42380 0.46000 0.07600
H 	H 	0.19960 0.51560 0.55620 0.04000
H 	H 	0.05150 0.59820 0.55340 0.08800
H 	H 	0.20160 0.54160 0.60800 0.11000
H 	H 	0.18540 0.57540 0.66060 -0.00900
H 	H 	0.96450 0.69300 0.64680 -0.00200
H 	H 	0.98070 0.65920 0.59420 0.10200
H 	H 	0.17930 0.12800 0.17520 -0.00700
H 	H 	0.23040 0.08260 0.12480 0.10300
H 	H 	0.45820 0.11740 0.11560 0.11200
H 	H 	0.40710 0.16280 0.16600 -0.02200
H 	H 	0.34040 0.04900 0.07740 0.07700
H 	H 	0.49320 0.07440 0.06500 0.04400
H 	H 	0.40130 0.97740 0.04400 0.06500
H 	H 	0.90390 0.61420 0.46080 0.12500
H 	H 	0.93490 0.58060 0.49160 0.12100
H 	H 	0.98660 0.61920 0.47300 0.11500
H 	H 	0.65770 0.11880 0.97800 0.12000
H 	H 	0.67980 0.05540 0.97440 0.12000
H 	H 	0.60520 0.09540 0.95780 0.11500
H 	H 	0.39590 0.38260 0.51020 0.12800
H 	H 	0.32130 0.37760 0.49280 0.11700
H 	H 	0.37720 0.41600 0.47800 0.11900
H 	H 	0.79890 0.20820 0.32600 0.01100
H 	H 	0.77140 0.15540 0.37200 0.09600
H 	H 	0.03070 0.07420 0.36100 0.10600
H 	H 	0.05820 0.12700 0.31500 0.00500
H 	H 	0.81840 0.09060 0.40980 0.07100
H 	H 	0.98380 0.03480 0.41480 0.05300
H 	H 	0.95520 0.92800 0.50580 0.05700
H 	H 	0.76700 0.07620 0.46000 0.07700
H 	H 	0.74420 0.98440 0.55620 0.04100
H 	H 	0.89510 0.90180 0.55340 0.08900
H 	H 	0.69040 0.95840 0.60800 0.11100
H 	H 	0.65400 0.92460 0.66060 -0.00800
H 	H 	0.88870 0.80700 0.64680 -0.00100
H 	H 	0.92510 0.84080 0.59420 0.10300
H 	H 	0.14550 0.37200 0.17520 -0.00600
H 	H 	0.14480 0.41740 0.12480 0.10400
H 	H 	0.92620 0.38260 0.11560 0.11300
H 	H 	0.92690 0.33720 0.16600 -0.02100
H 	H 	0.08220 0.45100 0.07740 0.07700
H 	H 	0.94180 0.42560 0.06500 0.04400
H 	H 	0.05470 0.52260 0.04400 0.06500
H 	H 	0.13530 0.88580 0.46080 0.12500
H 	H 	0.07350 0.91940 0.49160 0.12200
H 	H 	0.04040 0.88080 0.47300 0.11500
H 	H 	0.86430 0.38120 0.97800 0.12000
H 	H 	0.84580 0.44460 0.97440 0.12000
H 	H 	0.93700 0.40460 0.95780 0.11500
H 	H 	0.59390 0.11740 0.51020 0.12800
H 	H 	0.68590 0.12240 0.49280 0.11700
H 	H 	0.64480 0.08400 0.47800 0.11900
H 	H 	0.33310 0.29180 0.17400 0.01100
H 	H 	0.29880 0.34460 0.12800 0.09600
H 	H 	0.46590 0.42580 0.13900 0.10600
H 	H 	0.50020 0.37300 0.18500 0.00500
H 	H 	0.31880 0.40940 0.09020 0.07100
H 	H 	0.43340 0.46520 0.08520 0.05300
H 	H 	0.38900 0.57200 0.99420 0.05700
H 	H 	0.30320 0.42380 0.04000 0.07700
H 	H 	0.28480 0.51560 0.94380 0.04100
H 	H 	0.35030 0.59820 0.94660 0.08900
H 	H 	0.25680 0.54160 0.89200 0.11100
H 	H 	0.23920 0.57540 0.83940 -0.00800
H 	H 	0.34250 0.69300 0.85320 -0.00100
H 	H 	0.36010 0.65920 0.90580 0.10300
H 	H 	0.69270 0.12800 0.32480 -0.00600
H 	H 	0.68700 0.08260 0.37520 0.10400
H 	H 	0.42440 0.11740 0.38440 0.11300
H 	H 	0.43010 0.16280 0.33400 -0.02100
H 	H 	0.61060 0.04900 0.42260 0.07700
H 	H 	0.43240 0.07440 0.43500 0.04400
H 	H 	0.62130 0.97740 0.45600 0.06500
H 	H 	0.48190 0.61420 0.03920 0.12500
H 	H 	0.48450 0.58060 0.00840 0.12100
H 	H 	0.39420 0.61920 0.02700 0.11500
H 	H 	0.22350 0.11880 0.52200 0.12000
H 	H 	0.26480 0.05540 0.52560 0.12000
H 	H 	0.29940 0.09540 0.54220 0.11500
H 	H 	0.22150 0.38260 0.98980 0.12800
H 	H 	0.30110 0.37760 0.00720 0.11700
H 	H 	0.20680 0.41600 0.02200 0.11900
H 	H 	0.99290 0.20820 0.17400 0.01100
H 	H 	0.07320 0.15540 0.12800 0.09600
H 	H 	0.89510 0.07420 0.13900 0.10600
H 	H 	0.81480 0.12700 0.18500 0.00500
H 	H 	0.09100 0.09060 0.09020 0.07100
H 	H 	0.98140 0.03480 0.08520 0.05300
H 	H 	0.11680 0.92800 0.99420 0.05700
H 	H 	0.15680 0.07620 0.04000 0.07700
H 	H 	0.27140 0.98440 0.94380 0.04100
H 	H 	0.20310 0.90180 0.94660 0.08900
H 	H 	0.35120 0.95840 0.89200 0.11100
H 	H 	0.42140 0.92460 0.83940 -0.00800
H 	H 	0.30430 0.80700 0.85320 -0.00100
H 	H 	0.23410 0.84080 0.90580 0.10300
H 	H 	0.48250 0.37200 0.32480 -0.00600
H 	H 	0.43780 0.41740 0.37520 0.10400
H 	H 	0.69120 0.38260 0.38440 0.11300
H 	H 	0.73590 0.33720 0.33400 -0.02100
H 	H 	0.46680 0.45100 0.42260 0.07700
H 	H 	0.63260 0.42560 0.43500 0.04400
H 	H 	0.42270 0.52260 0.45600 0.06500
H 	H 	0.97890 0.88580 0.03920 0.12400
H 	H 	0.00710 0.91940 0.00840 0.12100
H 	H 	0.07880 0.88080 0.02700 0.11500
H 	H 	0.75450 0.38120 0.52200 0.12000
H 	H 	0.70960 0.44460 0.52560 0.12000
H 	H 	0.65840 0.40460 0.54220 0.11500
H 	H 	0.28870 0.11740 0.98980 0.12800
H 	H 	0.19170 0.12240 0.00720 0.11700
H 	H 	0.27120 0.08400 0.02200 0.11900
H 	H 	0.62490 0.70820 0.67400 0.01100
H 	H 	0.64340 0.65540 0.62800 0.09600
H 	H 	0.89170 0.57420 0.63900 0.10600
H 	H 	0.87320 0.62700 0.68500 0.00500
H 	H 	0.72820 0.59060 0.59020 0.07100
H 	H 	0.89860 0.53480 0.58520 0.05300
H 	H 	0.96100 0.42800 0.49420 0.05700
H 	H 	0.72700 0.57620 0.54000 0.07700
H 	H 	0.80040 0.48440 0.44380 0.04100
H 	H 	0.94850 0.40180 0.44660 0.08900
H 	H 	0.79840 0.45840 0.39200 0.11100
H 	H 	0.81460 0.42460 0.33940 -0.00800
H 	H 	0.03550 0.30700 0.35320 -0.00100
H 	H 	0.01930 0.34080 0.40580 0.10300
H 	H 	0.82070 0.87200 0.82480 -0.00600
H 	H 	0.76960 0.91740 0.87520 0.10400
H 	H 	0.54180 0.88260 0.88440 0.11300
H 	H 	0.59290 0.83720 0.83400 -0.02100
H 	H 	0.65960 0.95100 0.92260 0.07700
H 	H 	0.50680 0.92560 0.93500 0.04400
H 	H 	0.59870 0.02260 0.95600 0.06500
H 	H 	0.09610 0.38580 0.53920 0.12500
H 	H 	0.06510 0.41940 0.50840 0.12100
H 	H 	0.01340 0.38080 0.52700 0.11500
H 	H 	0.34230 0.88120 0.02200 0.12000
H 	H 	0.32020 0.94460 0.02560 0.12000
H 	H 	0.39480 0.90460 0.04220 0.11500
H 	H 	0.60410 0.61740 0.48980 0.12800
H 	H 	0.67870 0.62240 0.50720 0.11700
H 	H 	0.62280 0.58400 0.52200 0.11900
H 	H 	0.20110 0.79180 0.67400 0.01100
H 	H 	0.22860 0.84460 0.62800 0.09600
H 	H 	0.96930 0.92580 0.63900 0.10600
H 	H 	0.94180 0.87300 0.68500 0.00500
H 	H 	0.18160 0.90940 0.59020 0.07100
H 	H 	0.01620 0.96520 0.58520 0.05300
H 	H 	0.04480 0.07200 0.49420 0.05700
H 	H 	0.23300 0.92380 0.54000 0.07700
H 	H 	0.25580 0.01560 0.44380 0.04100
H 	H 	0.10490 0.09820 0.44660 0.08900
H 	H 	0.30960 0.04160 0.39200 0.11100
H 	H 	0.34600 0.07540 0.33940 -0.00800
H 	H 	0.11130 0.19300 0.35320 -0.00100
H 	H 	0.07490 0.15920 0.40580 0.10300
H 	H 	0.85450 0.62800 0.82480 -0.00600
H 	H 	0.85520 0.58260 0.87520 0.10400
H 	H 	0.07380 0.61740 0.88440 0.11300
H 	H 	0.07310 0.66280 0.83400 -0.02100
H 	H 	0.91780 0.54900 0.92260 0.07700
H 	H 	0.05820 0.57440 0.93500 0.04400
H 	H 	0.94530 0.47740 0.95600 0.06500
H 	H 	0.86470 0.11420 0.53920 0.12500
H 	H 	0.92650 0.08060 0.50840 0.12200
H 	H 	0.95960 0.11920 0.52700 0.11500
H 	H 	0.13570 0.61880 0.02200 0.12000
H 	H 	0.15420 0.55540 0.02560 0.12000
H 	H 	0.06300 0.59540 0.04220 0.11500
H 	H 	0.40610 0.88260 0.48980 0.12800
H 	H 	0.31410 0.87760 0.50720 0.11700
H 	H 	0.35520 0.91600 0.52200 0.11900
H 	H 	0.66690 0.70820 0.82600 0.01100
H 	H 	0.70120 0.65540 0.87200 0.09600
H 	H 	0.53410 0.57420 0.86100 0.10600
H 	H 	0.49980 0.62700 0.81500 0.00500
H 	H 	0.68120 0.59060 0.90980 0.07100
H 	H 	0.56660 0.53480 0.91480 0.05300
H 	H 	0.61100 0.42800 0.00580 0.05700
H 	H 	0.69680 0.57620 0.96000 0.07700
H 	H 	0.71520 0.48440 0.05620 0.04100
H 	H 	0.64970 0.40180 0.05340 0.08900
H 	H 	0.74320 0.45840 0.10800 0.11100
H 	H 	0.76080 0.42460 0.16060 -0.00800
H 	H 	0.65750 0.30700 0.14680 -0.00100
H 	H 	0.63990 0.34080 0.09420 0.10300
H 	H 	0.30730 0.87200 0.67520 -0.00600
H 	H 	0.31300 0.91740 0.62480 0.10400
H 	H 	0.57560 0.88260 0.61560 0.11300
H 	H 	0.56990 0.83720 0.66600 -0.02100
H 	H 	0.38940 0.95100 0.57740 0.07700
H 	H 	0.56760 0.92560 0.56500 0.04400
H 	H 	0.37870 0.02260 0.54400 0.06500
H 	H 	0.51810 0.38580 0.96080 0.12500
H 	H 	0.51550 0.41940 0.99160 0.12100
H 	H 	0.60580 0.38080 0.97300 0.11500
H 	H 	0.77650 0.88120 0.47800 0.12000
H 	H 	0.73520 0.94460 0.47440 0.12000
H 	H 	0.70060 0.90460 0.45780 0.11500
H 	H 	0.77850 0.61740 0.01020 0.12800
H 	H 	0.69890 0.62240 0.99280 0.11700
H 	H 	0.79320 0.58400 0.97800 0.11900
H 	H 	0.00710 0.79180 0.82600 0.01100
H 	H 	0.92680 0.84460 0.87200 0.09600
H 	H 	0.10490 0.92580 0.86100 0.10600
H 	H 	0.18520 0.87300 0.81500 0.00500
H 	H 	0.90900 0.90940 0.90980 0.07100
H 	H 	0.01860 0.96520 0.91480 0.05300
H 	H 	0.88320 0.07200 0.00580 0.05700
H 	H 	0.84320 0.92380 0.96000 0.07700
H 	H 	0.72860 0.01560 0.05620 0.04100
H 	H 	0.79690 0.09820 0.05340 0.08900
H 	H 	0.64880 0.04160 0.10800 0.11100
H 	H 	0.57860 0.07540 0.16060 -0.00800
H 	H 	0.69570 0.19300 0.14680 -0.00100
H 	H 	0.76590 0.15920 0.09420 0.10300
H 	H 	0.51750 0.62800 0.67520 -0.00600
H 	H 	0.56220 0.58260 0.62480 0.10400
H 	H 	0.30880 0.61740 0.61560 0.11300
H 	H 	0.26410 0.66280 0.66600 -0.02100
H 	H 	0.53320 0.54900 0.57740 0.07700
H 	H 	0.36740 0.57440 0.56500 0.04400
H 	H 	0.57730 0.47740 0.54400 0.06500
H 	H 	0.02110 0.11420 0.96080 0.12400
H 	H 	0.99290 0.08060 0.99160 0.12100
H 	H 	0.92120 0.11920 0.97300 0.11500
H 	H 	0.24550 0.61880 0.47800 0.12000
H 	H 	0.29040 0.55540 0.47440 0.12000
H 	H 	0.34160 0.59540 0.45780 0.11500
H 	H 	0.71130 0.88260 0.01020 0.12800
H 	H 	0.80830 0.87760 0.99280 0.11700
H 	H 	0.72880 0.91600 0.97800 0.11900
C 	C 	0.26573 0.28920 0.28874 0.44900
C 	C 	0.25273 0.32722 0.31592 -0.19200
C 	C 	0.32164 0.31872 0.33300 0.11600
C 	C 	0.31053 0.35036 0.36058 -0.19500
C 	C 	0.23062 0.39050 0.37106 0.14800
C 	C 	0.16170 0.39900 0.35400 -0.19600
C 	C 	0.17280 0.36738 0.32642 0.11800
C 	C 	0.21923 0.41880 0.40194 -0.13500
C 	C 	0.15560 0.45380 0.42160 -0.02200
C 	C 	0.15699 0.47720 0.45242 0.01400
C 	C 	0.08694 0.52160 0.46612 0.07800
C 	C 	0.08596 0.54230 0.49658 -0.08500
C 	C 	0.15504 0.51860 0.51332 -0.03600
C 	C 	0.22519 0.47420 0.49962 0.15100
C 	C 	0.22617 0.45350 0.46916 -0.15500
C 	C 	0.15342 0.53660 0.54616 0.03600
C 	C 	0.09727 0.57760 0.56386 -0.17500
C 	C 	0.09272 0.59702 0.59594 0.18000
C 	C 	0.15415 0.57190 0.61580 -0.22000
C 	C 	0.14439 0.59218 0.64724 0.12800
C 	C 	0.07339 0.63758 0.65884 -0.19600
C 	C 	0.01195 0.66270 0.63900 0.12200
C 	C 	0.02172 0.64242 0.60754 -0.21500
C 	C 	0.05430 0.66200 0.69280 0.44500
C 	C 	0.25148 0.17780 0.20704 0.52200
C 	C 	0.28818 0.14986 0.17558 -0.26000
C 	C 	0.23530 0.12580 0.16320 0.15400
C 	C 	0.26588 0.09862 0.13302 -0.22400
C 	C 	0.34945 0.09550 0.11520 0.16600
C 	C 	0.40233 0.11954 0.12760 -0.22400
C 	C 	0.37175 0.14672 0.15778 0.15700
C 	C 	0.37934 0.06560 0.08252 -0.14900
C 	C 	0.45148 0.05960 0.06044 0.00100
C 	C 	0.47148 0.03040 0.02864 -0.00500
C 	C 	0.43982 0.98660 0.02636 -0.10700
C 	C 	0.53237 0.04260 0.00306 0.09900
C 	C 	0.95430 0.59480 0.47040 -0.28200
C 	C 	0.63330 0.08980 0.97660 -0.27400
C 	C 	0.35080 0.40200 0.49800 -0.29200
C 	C 	0.94553 0.21080 0.28874 0.44900
C 	C 	0.93135 0.17278 0.31592 -0.19200
C 	C 	0.84536 0.18128 0.33300 0.11500
C 	C 	0.82889 0.14964 0.36058 -0.19400
C 	C 	0.89832 0.10950 0.37106 0.14800
C 	C 	0.98430 0.10100 0.35400 -0.19600
C 	C 	0.00078 0.13262 0.32642 0.11800
C 	C 	0.87883 0.08120 0.40194 -0.13500
C 	C 	0.92280 0.04620 0.42160 -0.02200
C 	C 	0.89059 0.02280 0.45242 0.01500
C 	C 	0.94694 0.97840 0.46612 0.07700
C 	C 	0.91746 0.95770 0.49658 -0.08500
C 	C 	0.83164 0.98140 0.51332 -0.03700
C 	C 	0.77519 0.02580 0.49962 0.15200
C 	C 	0.80467 0.04650 0.46916 -0.15600
C 	C 	0.80042 0.96340 0.54616 0.03700
C 	C 	0.83887 0.92240 0.56386 -0.17600
C 	C 	0.81134 0.90298 0.59594 0.18000
C 	C 	0.73005 0.92810 0.61580 -0.22000
C 	C 	0.70837 0.90782 0.64724 0.12800
C 	C 	0.76777 0.86242 0.65884 -0.19600
C 	C 	0.84905 0.83730 0.63900 0.12200
C 	C 	0.87074 0.85758 0.60754 -0.21500
C 	C 	0.75290 0.83800 0.69280 0.44500
C 	C 	0.04148 0.32220 0.20704 0.52200
C 	C 	0.03624 0.35014 0.17558 -0.26000
C 	C 	0.10150 0.37420 0.16320 0.15400
C 	C 	0.10110 0.40138 0.13302 -0.22400
C 	C 	0.03535 0.40450 0.11520 0.16600
C 	C 	0.97007 0.38046 0.12760 -0.22400
C 	C 	0.97047 0.35328 0.15778 0.15700
C 	C 	0.03814 0.43440 0.08252 -0.14900
C 	C 	0.98808 0.44040 0.06044 0.00000
C 	C 	0.99988 0.46960 0.02864 -0.00500
C 	C 	0.03382 0.51340 0.02636 -0.10700
C 	C 	0.96457 0.45740 0.00306 0.09900
C 	C 	0.07530 0.90520 0.47040 -0.28200
C 	C 	0.89010 0.41020 0.97660 -0.27400
C 	C 	0.65120 0.09800 0.49800 -0.29200
C 	C 	0.44507 0.28920 0.21126 0.44900
C 	C 	0.42005 0.32722 0.18408 -0.19200
C 	C 	0.35964 0.31872 0.16700 0.11600
C 	C 	0.33911 0.35036 0.13942 -0.19500
C 	C 	0.37888 0.39050 0.12894 0.14800
C 	C 	0.43930 0.39900 0.14600 -0.19600
C 	C 	0.45982 0.36738 0.17358 0.11800
C 	C 	0.36197 0.41880 0.09806 -0.13500
C 	C 	0.39060 0.45380 0.07840 -0.02200
C 	C 	0.36581 0.47720 0.04758 0.01400
C 	C 	0.39146 0.52160 0.03388 0.07800
C 	C 	0.37174 0.54230 0.00342 -0.08500
C 	C 	0.32636 0.51860 0.98668 -0.03600
C 	C 	0.30061 0.47420 0.00038 0.15100
C 	C 	0.32033 0.45350 0.03084 -0.15500
C 	C 	0.30998 0.53660 0.95384 0.03600
C 	C 	0.32513 0.57760 0.93614 -0.17500
C 	C 	0.31026 0.59702 0.90406 0.18000
C 	C 	0.27395 0.57190 0.88420 -0.22000
C 	C 	0.26343 0.59218 0.85276 0.12800
C 	C 	0.28903 0.63758 0.84116 -0.19600
C 	C 	0.32535 0.66270 0.86100 0.12200
C 	C 	0.33586 0.64242 0.89246 -0.21500
C 	C 	0.28370 0.66200 0.80720 0.44500
C 	C 	0.57072 0.17780 0.29296 0.52200
C 	C 	0.56196 0.14986 0.32442 -0.26000
C 	C 	0.63890 0.12580 0.33680 0.15400
C 	C 	0.63550 0.09862 0.36698 -0.22400
C 	C 	0.55505 0.09550 0.38480 0.16600
C 	C 	0.47813 0.11954 0.37240 -0.22400
C 	C 	0.48153 0.14672 0.34222 0.15700
C 	C 	0.55506 0.06560 0.41748 -0.14900
C 	C 	0.48892 0.05960 0.43956 0.00100
C 	C 	0.49812 0.03040 0.47136 -0.00500
C 	C 	0.57358 0.98660 0.47364 -0.10700
C 	C 	0.42503 0.04260 0.49694 0.09900
C 	C 	0.45090 0.59480 0.02960 -0.28200
C 	C 	0.27690 0.08980 0.52340 -0.27400
C 	C 	0.24720 0.40200 0.00200 -0.29200
C 	C 	0.84367 0.21080 0.21126 0.44900
C 	C 	0.89587 0.17278 0.18408 -0.19200
C 	C 	0.97336 0.18128 0.16700 0.11500
C 	C 	0.02147 0.14964 0.13942 -0.19500
C 	C 	0.99218 0.10950 0.12894 0.14800
C 	C 	0.91470 0.10100 0.14600 -0.19600
C 	C 	0.86660 0.13262 0.17358 0.11800
C 	C 	0.03997 0.08120 0.09806 -0.13500
C 	C 	0.03100 0.04620 0.07840 -0.02200
C 	C 	0.08661 0.02280 0.04758 0.01400
C 	C 	0.07466 0.97840 0.03388 0.07900
C 	C 	0.12484 0.95770 0.00342 -0.08500
C 	C 	0.18696 0.98140 0.98668 -0.03600
C 	C 	0.19901 0.02580 0.00038 0.15100
C 	C 	0.14883 0.04650 0.03084 -0.15500
C 	C 	0.23618 0.96340 0.95384 0.03600
C 	C 	0.23873 0.92240 0.93614 -0.17500
C 	C 	0.28568 0.90298 0.90406 0.18000
C 	C 	0.34185 0.92810 0.88420 -0.22000
C 	C 	0.38381 0.90782 0.85276 0.12800
C 	C 	0.36981 0.86242 0.84116 -0.19600
C 	C 	0.31365 0.83730 0.86100 0.12200
C 	C 	0.27168 0.85758 0.89246 -0.21500
C 	C 	0.40910 0.83800 0.80720 0.44500
C 	C 	0.63632 0.32220 0.29296 0.52200
C 	C 	0.61362 0.35014 0.32442 -0.26000
C 	C 	0.52430 0.37420 0.33680 0.15400
C 	C 	0.49752 0.40138 0.36698 -0.22400
C 	C 	0.56015 0.40450 0.38480 0.16600
C 	C 	0.64947 0.38046 0.37240 -0.22400
C 	C 	0.67625 0.35328 0.34222 0.15700
C 	C 	0.52746 0.43440 0.41748 -0.14900
C 	C 	0.57152 0.44040 0.43956 0.00100
C 	C 	0.53052 0.46960 0.47136 -0.00500
C 	C 	0.45278 0.51340 0.47364 -0.10700
C 	C 	0.57803 0.45740 0.49694 0.09900
C 	C 	0.01950 0.90520 0.02960 -0.28100
C 	C 	0.69970 0.41020 0.52340 -0.27400
C 	C 	0.25080 0.09800 0.00200 -0.29200
C 	C 	0.73427 0.71080 0.71126 0.44900
C 	C 	0.74727 0.67278 0.68408 -0.19200
C 	C 	0.67836 0.68128 0.66700 0.11600
C 	C 	0.68947 0.64964 0.63942 -0.19500
C 	C 	0.76938 0.60950 0.62894 0.14800
C 	C 	0.83830 0.60100 0.64600 -0.19600
C 	C 	0.82720 0.63262 0.67358 0.11800
C 	C 	0.78077 0.58120 0.59806 -0.13500
C 	C 	0.84440 0.54620 0.57840 -0.02200
C 	C 	0.84301 0.52280 0.54758 0.01400
C 	C 	0.91306 0.47840 0.53388 0.07800
C 	C 	0.91404 0.45770 0.50342 -0.08500
C 	C 	0.84496 0.48140 0.48668 -0.03600
C 	C 	0.77481 0.52580 0.50038 0.15100
C 	C 	0.77383 0.54650 0.53084 -0.15500
C 	C 	0.84658 0.46340 0.45384 0.03600
C 	C 	0.90273 0.42240 0.43614 -0.17500
C 	C 	0.90728 0.40298 0.40406 0.18000
C 	C 	0.84585 0.42810 0.38420 -0.22000
C 	C 	0.85561 0.40782 0.35276 0.12800
C 	C 	0.92661 0.36242 0.34116 -0.19600
C 	C 	0.98805 0.33730 0.36100 0.12200
C 	C 	0.97828 0.35758 0.39246 -0.21500
C 	C 	0.94570 0.33800 0.30720 0.44500
C 	C 	0.74852 0.82220 0.79296 0.52200
C 	C 	0.71182 0.85014 0.82442 -0.26000
C 	C 	0.76470 0.87420 0.83680 0.15400
C 	C 	0.73412 0.90138 0.86698 -0.22400
C 	C 	0.65055 0.90450 0.88480 0.16600
C 	C 	0.59767 0.88046 0.87240 -0.22400
C 	C 	0.62825 0.85328 0.84222 0.15700
C 	C 	0.62066 0.93440 0.91748 -0.14900
C 	C 	0.54852 0.94040 0.93956 0.00100
C 	C 	0.52852 0.96960 0.97136 -0.00500
C 	C 	0.56018 0.01340 0.97364 -0.10700
C 	C 	0.46763 0.95740 0.99694 0.09900
C 	C 	0.04570 0.40520 0.52960 -0.28200
C 	C 	0.36670 0.91020 0.02340 -0.27400
C 	C 	0.64920 0.59800 0.50200 -0.29200
C 	C 	0.05447 0.78920 0.71126 0.44900
C 	C 	0.06865 0.82722 0.68408 -0.19200
C 	C 	0.15464 0.81872 0.66700 0.11500
C 	C 	0.17111 0.85036 0.63942 -0.19400
C 	C 	0.10168 0.89050 0.62894 0.14800
C 	C 	0.01570 0.89900 0.64600 -0.19600
C 	C 	0.99922 0.86738 0.67358 0.11800
C 	C 	0.12117 0.91880 0.59806 -0.13500
C 	C 	0.07720 0.95380 0.57840 -0.02200
C 	C 	0.10941 0.97720 0.54758 0.01500
C 	C 	0.05306 0.02160 0.53388 0.07700
C 	C 	0.08254 0.04230 0.50342 -0.08500
C 	C 	0.16836 0.01860 0.48668 -0.03700
C 	C 	0.22481 0.97420 0.50038 0.15200
C 	C 	0.19533 0.95350 0.53084 -0.15600
C 	C 	0.19958 0.03660 0.45384 0.03700
C 	C 	0.16113 0.07760 0.43614 -0.17600
C 	C 	0.18866 0.09702 0.40406 0.18000
C 	C 	0.26995 0.07190 0.38420 -0.22000
C 	C 	0.29163 0.09218 0.35276 0.12800
C 	C 	0.23223 0.13758 0.34116 -0.19600
C 	C 	0.15095 0.16270 0.36100 0.12200
C 	C 	0.12926 0.14242 0.39246 -0.21500
C 	C 	0.24710 0.16200 0.30720 0.44500
C 	C 	0.95852 0.67780 0.79296 0.52200
C 	C 	0.96376 0.64986 0.82442 -0.26000
C 	C 	0.89850 0.62580 0.83680 0.15400
C 	C 	0.89890 0.59862 0.86698 -0.22400
C 	C 	0.96465 0.59550 0.88480 0.16600
C 	C 	0.02993 0.61954 0.87240 -0.22400
C 	C 	0.02953 0.64672 0.84222 0.15700
C 	C 	0.96186 0.56560 0.91748 -0.14900
C 	C 	0.01192 0.55960 0.93956 0.00000
C 	C 	0.00012 0.53040 0.97136 -0.00500
C 	C 	0.96618 0.48660 0.97364 -0.10700
C 	C 	0.03543 0.54260 0.99694 0.09900
C 	C 	0.92470 0.09480 0.52960 -0.28200
C 	C 	0.10990 0.58980 0.02340 -0.27400
C 	C 	0.34880 0.90200 0.50200 -0.29200
C 	C 	0.55493 0.71080 0.78874 0.44900
C 	C 	0.57995 0.67278 0.81592 -0.19200
C 	C 	0.64036 0.68128 0.83300 0.11600
C 	C 	0.66089 0.64964 0.86058 -0.19500
C 	C 	0.62112 0.60950 0.87106 0.14800
C 	C 	0.56070 0.60100 0.85400 -0.19600
C 	C 	0.54018 0.63262 0.82642 0.11800
C 	C 	0.63803 0.58120 0.90194 -0.13500
C 	C 	0.60940 0.54620 0.92160 -0.02200
C 	C 	0.63419 0.52280 0.95242 0.01400
C 	C 	0.60854 0.47840 0.96612 0.07800
C 	C 	0.62826 0.45770 0.99658 -0.08500
C 	C 	0.67364 0.48140 0.01332 -0.03600
C 	C 	0.69939 0.52580 0.99962 0.15100
C 	C 	0.67967 0.54650 0.96916 -0.15500
C 	C 	0.69002 0.46340 0.04616 0.03600
C 	C 	0.67487 0.42240 0.06386 -0.17500
C 	C 	0.68974 0.40298 0.09594 0.18000
C 	C 	0.72605 0.42810 0.11580 -0.22000
C 	C 	0.73657 0.40782 0.14724 0.12800
C 	C 	0.71097 0.36242 0.15884 -0.19600
C 	C 	0.67465 0.33730 0.13900 0.12200
C 	C 	0.66414 0.35758 0.10754 -0.21500
C 	C 	0.71630 0.33800 0.19280 0.44500
C 	C 	0.42928 0.82220 0.70704 0.52200
C 	C 	0.43804 0.85014 0.67558 -0.26000
C 	C 	0.36110 0.87420 0.66320 0.15400
C 	C 	0.36450 0.90138 0.63302 -0.22400
C 	C 	0.44495 0.90450 0.61520 0.16600
C 	C 	0.52187 0.88046 0.62760 -0.22400
C 	C 	0.51847 0.85328 0.65778 0.15700
C 	C 	0.44494 0.93440 0.58252 -0.14900
C 	C 	0.51108 0.94040 0.56044 0.00100
C 	C 	0.50188 0.96960 0.52864 -0.00500
C 	C 	0.42642 0.01340 0.52636 -0.10700
C 	C 	0.57497 0.95740 0.50306 0.09900
C 	C 	0.54910 0.40520 0.97040 -0.28200
C 	C 	0.72310 0.91020 0.47660 -0.27400
C 	C 	0.75280 0.59800 0.99800 -0.29200
C 	C 	0.15633 0.78920 0.78874 0.44900
C 	C 	0.10413 0.82722 0.81592 -0.19200
C 	C 	0.02664 0.81872 0.83300 0.11500
C 	C 	0.97853 0.85036 0.86058 -0.19500
C 	C 	0.00782 0.89050 0.87106 0.14800
C 	C 	0.08530 0.89900 0.85400 -0.19600
C 	C 	0.13340 0.86738 0.82642 0.11800
C 	C 	0.96003 0.91880 0.90194 -0.13500
C 	C 	0.96900 0.95380 0.92160 -0.02200
C 	C 	0.91339 0.97720 0.95242 0.01400
C 	C 	0.92534 0.02160 0.96612 0.07900
C 	C 	0.87516 0.04230 0.99658 -0.08500
C 	C 	0.81304 0.01860 0.01332 -0.03600
C 	C 	0.80099 0.97420 0.99962 0.15100
C 	C 	0.85117 0.95350 0.96916 -0.15500
C 	C 	0.76382 0.03660 0.04616 0.03600
C 	C 	0.76127 0.07760 0.06386 -0.17500
C 	C 	0.71432 0.09702 0.09594 0.18000
C 	C 	0.65815 0.07190 0.11580 -0.22000
C 	C 	0.61619 0.09218 0.14724 0.12800
C 	C 	0.63019 0.13758 0.15884 -0.19600
C 	C 	0.68635 0.16270 0.13900 0.12200
C 	C 	0.72832 0.14242 0.10754 -0.21500
C 	C 	0.59090 0.16200 0.19280 0.44500
C 	C 	0.36368 0.67780 0.70704 0.52200
C 	C 	0.38638 0.64986 0.67558 -0.26000
C 	C 	0.47570 0.62580 0.66320 0.15400
C 	C 	0.50248 0.59862 0.63302 -0.22400
C 	C 	0.43985 0.59550 0.61520 0.16600
C 	C 	0.35053 0.61954 0.62760 -0.22400
C 	C 	0.32375 0.64672 0.65778 0.15700
C 	C 	0.47254 0.56560 0.58252 -0.14900
C 	C 	0.42848 0.55960 0.56044 0.00100
C 	C 	0.46948 0.53040 0.52864 -0.00500
C 	C 	0.54722 0.48660 0.52636 -0.10700
C 	C 	0.42197 0.54260 0.50306 0.09900
C 	C 	0.98050 0.09480 0.97040 -0.28100
C 	C 	0.30030 0.58980 0.47660 -0.27400
C 	C 	0.74920 0.90200 0.99800 -0.29200
O 	O 	0.33555 0.25086 0.28284 -0.44500
O 	O 	0.20487 0.29654 0.27292 -0.44000
O 	O 	0.11661 0.64710 0.70888 -0.45800
O 	O 	0.98050 0.69498 0.70282 -0.46900
O 	O 	0.01561 0.54640 0.44698 -0.14900
O 	O 	0.27888 0.45280 0.52044 -0.18000
O 	O 	0.17220 0.19086 0.21754 -0.46000
O 	O 	0.29699 0.18874 0.22328 -0.52900
O 	O 	0.56473 0.08900 0.00834 -0.15200
O 	O 	0.88161 0.24914 0.28284 -0.44500
O 	O 	0.02221 0.20346 0.27292 -0.44000
O 	O 	0.67451 0.85290 0.70888 -0.45800
O 	O 	0.81668 0.80502 0.70282 -0.46900
O 	O 	0.03741 0.95360 0.44698 -0.14800
O 	O 	0.70068 0.04720 0.52044 -0.18000
O 	O 	0.11026 0.30914 0.21754 -0.46000
O 	O 	0.97973 0.31126 0.22328 -0.53000
O 	O 	0.92693 0.41100 0.00834 -0.15200
O 	O 	0.41359 0.25086 0.21716 -0.44500
O 	O 	0.49859 0.29654 0.22708 -0.44000
O 	O 	0.23629 0.64710 0.79112 -0.45800
O 	O 	0.32452 0.69498 0.79718 -0.46900
O 	O 	0.43799 0.54640 0.05302 -0.14900
O 	O 	0.26832 0.45280 0.97956 -0.18000
O 	O 	0.63694 0.19086 0.28246 -0.46000
O 	O 	0.51427 0.18874 0.27672 -0.52900
O 	O 	0.34627 0.08900 0.49166 -0.15200
O 	O 	0.86925 0.24914 0.21716 -0.44500
O 	O 	0.77433 0.20346 0.22708 -0.44000
O 	O 	0.47259 0.85290 0.79112 -0.45800
O 	O 	0.37830 0.80502 0.79718 -0.46900
O 	O 	0.00899 0.95360 0.05302 -0.14900
O 	O 	0.25212 0.04720 0.97956 -0.18000
O 	O 	0.58060 0.30914 0.28246 -0.46000
O 	O 	0.70901 0.31126 0.27672 -0.52900
O 	O 	0.66207 0.41100 0.49166 -0.15200
O 	O 	0.66445 0.74914 0.71716 -0.44500
O 	O 	0.79513 0.70346 0.72708 -0.44000
O 	O 	0.88339 0.35290 0.29112 -0.45800
O 	O 	0.01950 0.30502 0.29718 -0.46900
O 	O 	0.98439 0.45360 0.55302 -0.14900
O 	O 	0.72112 0.54720 0.47956 -0.18000
O 	O 	0.82780 0.80914 0.78246 -0.46000
O 	O 	0.70301 0.81126 0.77672 -0.52900
O 	O 	0.43527 0.91100 0.99166 -0.15200
O 	O 	0.11839 0.75086 0.71716 -0.44500
O 	O 	0.97779 0.79654 0.72708 -0.44000
O 	O 	0.32549 0.14710 0.29112 -0.45800
O 	O 	0.18332 0.19498 0.29718 -0.46900
O 	O 	0.96259 0.04640 0.55302 -0.14800
O 	O 	0.29932 0.95280 0.47956 -0.18000
O 	O 	0.88974 0.69086 0.78246 -0.46000
O 	O 	0.02027 0.68874 0.77672 -0.53000
O 	O 	0.07307 0.58900 0.99166 -0.15200
O 	O 	0.58641 0.74914 0.78284 -0.44500
O 	O 	0.50141 0.70346 0.77292 -0.44000
O 	O 	0.76371 0.35290 0.20888 -0.45800
O 	O 	0.67548 0.30502 0.20282 -0.46900
O 	O 	0.56201 0.45360 0.94698 -0.14900
O 	O 	0.73168 0.54720 0.02044 -0.18000
O 	O 	0.36306 0.80914 0.71754 -0.46000
O 	O 	0.48573 0.81126 0.72328 -0.52900
O 	O 	0.65373 0.91100 0.50834 -0.15200
O 	O 	0.13075 0.75086 0.78284 -0.44500
O 	O 	0.22567 0.79654 0.77292 -0.44000
O 	O 	0.52741 0.14710 0.20888 -0.45800
O 	O 	0.62170 0.19498 0.20282 -0.46900
O 	O 	0.99101 0.04640 0.94698 -0.14900
O 	O 	0.74788 0.95280 0.02044 -0.18000
O 	O 	0.41940 0.69086 0.71754 -0.46000
O 	O 	0.29099 0.68874 0.72328 -0.52900
O 	O 	0.33793 0.58900 0.50834 -0.15200
