data_crystal

_cell_length_a 12.53000
_cell_length_b 16.13040
_cell_length_c 20.89280
_cell_angle_alpha 67.39710
_cell_angle_beta  72.55060
_cell_angle_gamma 67.14520

_symmetry_space_group_name_	'P 1'
_symmetry_space_group_name_H-M	'P 1'

loop_
_symmetry_equiv_pos_as_xyz
  x,y,z

loop_
_atom_site_label
_atom_site_type_symbol
_atom_site_fract_x
_atom_site_fract_y
_atom_site_fract_z
_atom_site_charge
Cd	Cd	0.36683 0.74016 0.76034 1.21500
Cd	Cd	0.63818 0.66440 0.84534 1.21300
Cd	Cd	0.86733 0.75984 0.73966 1.21600
Cd	Cd	0.14792 0.83560 0.65466 1.21300
Cd	Cd	0.63317 0.25984 0.23966 1.21400
Cd	Cd	0.36182 0.33560 0.15466 1.21100
Cd	Cd	0.13267 0.24016 0.26034 1.21300
Cd	Cd	0.85208 0.16440 0.34534 1.21100
Cd	Cd	0.50000 0.00000 -0.00000 1.11300
Cd	Cd	0.50000 0.50000 0.50000 1.13300
H 	H 	0.31400 0.62800 0.92600 0.05100
H 	H 	0.40080 0.51560 0.01900 0.01300
H 	H 	0.18830 0.36830 0.05930 0.03400
H 	H 	0.10380 0.47480 0.96160 0.05600
H 	H 	0.37950 0.35280 0.84320 0.08900
H 	H 	0.61460 0.29900 0.95860 0.11000
H 	H 	0.59930 0.14540 0.01300 -0.05900
H 	H 	0.37860 0.19930 0.89510 -0.04600
H 	H 	0.86800 0.87200 0.57400 0.09300
H 	H 	0.93540 0.98440 0.48100 -0.01100
H 	H 	0.61590 0.13170 0.44070 0.00600
H 	H 	0.54020 0.02520 0.53840 0.09000
H 	H 	0.57550 0.14720 0.65680 0.08000
H 	H 	0.87220 0.20100 0.54140 0.09200
H 	H 	0.75770 0.35460 0.48700 -0.01100
H 	H 	0.47300 0.30070 0.60490 -0.04500
H 	H 	0.68600 0.37200 0.07400 0.09500
H 	H 	0.59920 0.48440 0.98100 -0.01700
H 	H 	0.81170 0.63170 0.94070 0.00300
H 	H 	0.89620 0.52520 0.03840 0.09600
H 	H 	0.62050 0.64720 0.15680 0.08100
H 	H 	0.38540 0.70100 0.04140 0.07300
H 	H 	0.40070 0.85460 0.98700 0.03600
H 	H 	0.62140 0.80070 0.10490 -0.03600
H 	H 	0.13200 0.12800 0.42600 0.05200
H 	H 	0.06460 0.01560 0.51900 0.00700
H 	H 	0.38410 0.86830 0.55930 0.03100
H 	H 	0.45980 0.97480 0.46160 0.06200
H 	H 	0.42450 0.85280 0.34320 0.08900
H 	H 	0.12780 0.79900 0.45860 0.08900
H 	H 	0.24230 0.64540 0.51300 -0.01000
H 	H 	0.52700 0.69930 0.39510 -0.03900
C 	C 	0.14500 0.63210 0.87450 0.11700
C 	C 	0.19760 0.56500 0.93220 -0.01400
C 	C 	0.28720 0.57480 0.95160 -0.02700
C 	C 	0.33800 0.50750 0.00790 0.00500
C 	C 	0.21590 0.42080 0.03120 -0.01200
C 	C 	0.16400 0.48560 0.97320 -0.01400
C 	C 	0.51330 0.43740 0.85740 0.08800
C 	C 	0.50520 0.34030 0.89170 0.08400
C 	C 	0.42960 0.31070 0.87630 -0.15700
C 	C 	0.56550 0.27990 0.94390 -0.15800
C 	C 	0.55540 0.18750 0.97670 0.12600
C 	C 	0.42760 0.21880 0.90960 0.10500
C 	C 	0.65160 0.86790 0.62550 0.07700
C 	C 	0.69480 0.93500 0.56780 0.11300
C 	C 	0.81360 0.92520 0.54840 -0.16300
C 	C 	0.85340 0.99250 0.49210 0.14700
C 	C 	0.66790 0.07920 0.46880 0.08800
C 	C 	0.62280 0.01440 0.52680 -0.17800
C 	C 	0.80810 0.06260 0.64260 0.05900
C 	C 	0.73720 0.15970 0.60830 0.07200
C 	C 	0.61660 0.18930 0.62370 -0.15200
C 	C 	0.78930 0.22010 0.55610 -0.13100
C 	C 	0.71960 0.31250 0.52330 0.06000
C 	C 	0.55600 0.28120 0.59040 0.09800
C 	C 	0.85500 0.36790 0.12550 0.07400
C 	C 	0.80240 0.43500 0.06780 0.08900
C 	C 	0.71280 0.42520 0.04840 -0.19600
C 	C 	0.66200 0.49250 0.99210 0.15100
C 	C 	0.78410 0.57920 0.96880 0.12500
C 	C 	0.83600 0.51440 0.02680 -0.17500
C 	C 	0.48670 0.56260 0.14260 0.09600
C 	C 	0.49480 0.65970 0.10830 0.04500
C 	C 	0.57040 0.68930 0.12370 -0.13200
C 	C 	0.43450 0.72010 0.05610 -0.09200
C 	C 	0.44460 0.81250 0.02330 -0.00300
C 	C 	0.57240 0.78120 0.09040 0.08700
C 	C 	0.34840 0.13210 0.37450 0.11400
C 	C 	0.30520 0.06500 0.43220 -0.03900
C 	C 	0.18640 0.07480 0.45160 -0.06100
C 	C 	0.14660 0.00750 0.50790 0.00700
C 	C 	0.33210 0.92080 0.53120 0.02700
C 	C 	0.37720 0.98560 0.47320 -0.01200
C 	C 	0.19190 0.93740 0.35740 0.12800
C 	C 	0.26280 0.84030 0.39170 0.05500
C 	C 	0.38340 0.81070 0.37630 -0.13700
C 	C 	0.21070 0.77990 0.44390 -0.11700
C 	C 	0.28040 0.68750 0.47670 0.05600
C 	C 	0.44400 0.71880 0.40960 0.09400
N 	N 	0.19030 0.69450 0.81810 -0.17500
N 	N 	0.10990 0.74110 0.77670 -0.15200
N 	N 	0.01560 0.71170 0.80510 -0.14300
N 	N 	0.03190 0.64480 0.86660 -0.08400
N 	N 	0.30430 0.43180 0.04760 -0.20200
N 	N 	0.59160 0.46280 0.87160 -0.09300
N 	N 	0.56590 0.55700 0.83520 -0.15800
N 	N 	0.47670 0.58200 0.80240 -0.15500
N 	N 	0.44320 0.50740 0.81520 -0.09300
N 	N 	0.48550 0.15660 0.95840 -0.28600
N 	N 	0.70290 0.80550 0.68190 -0.16800
N 	N 	0.62770 0.75890 0.72330 -0.15200
N 	N 	0.53240 0.78830 0.69490 -0.14300
N 	N 	0.54330 0.85520 0.63340 -0.07500
N 	N 	0.78370 0.06820 0.45240 -0.25300
N 	N 	0.92600 0.03720 0.62840 -0.10600
N 	N 	0.95810 0.94300 0.66480 -0.14300
N 	N 	0.86110 0.91800 0.69760 -0.15100
N 	N 	0.76580 0.99260 0.68480 -0.07000
N 	N 	0.60050 0.34340 0.54160 -0.27900
N 	N 	0.80970 0.30550 0.18190 -0.17000
N 	N 	0.89010 0.25890 0.22330 -0.15400
N 	N 	0.98440 0.28830 0.19490 -0.14300
N 	N 	0.96810 0.35520 0.13340 -0.08100
N 	N 	0.69570 0.56820 0.95240 -0.24000
N 	N 	0.40840 0.53720 0.12840 -0.09900
N 	N 	0.43410 0.44300 0.16480 -0.15900
N 	N 	0.52330 0.41800 0.19760 -0.15500
N 	N 	0.55680 0.49260 0.18480 -0.09500
N 	N 	0.51450 0.84340 0.04160 -0.26400
N 	N 	0.29710 0.19450 0.31810 -0.17800
N 	N 	0.37230 0.24110 0.27670 -0.15400
N 	N 	0.46760 0.21170 0.30510 -0.14500
N 	N 	0.45670 0.14480 0.36660 -0.09000
N 	N 	0.21630 0.93180 0.54760 -0.18900
N 	N 	0.07400 0.96280 0.37160 -0.08400
N 	N 	0.04190 0.05700 0.33520 -0.17700
N 	N 	0.13890 0.08200 0.30240 -0.15900
N 	N 	0.23420 0.00740 0.31520 -0.11900
N 	N 	0.39950 0.65660 0.45840 -0.27700
Cl	Cl	0.41346 0.76140 0.86768 -0.59400
Cl	Cl	0.35051 0.70330 0.65068 -0.62500
Cl	Cl	0.22873 0.90940 0.71754 -0.57800
Cl	Cl	0.04254 0.73860 0.63232 -0.61100
Cl	Cl	0.70449 0.79670 0.84932 -0.60900
Cl	Cl	0.85567 0.59060 0.78246 -0.59100
Cl	Cl	0.58654 0.23860 0.13232 -0.62300
Cl	Cl	0.64949 0.29670 0.34932 -0.62600
Cl	Cl	0.77127 0.09060 0.28246 -0.60900
Cl	Cl	0.95746 0.26140 0.36768 -0.60500
Cl	Cl	0.29551 0.20330 0.15068 -0.64100
Cl	Cl	0.14433 0.40940 0.21754 -0.59800
