data_crystal

_cell_length_a 41.59470
_cell_length_b 41.59470
_cell_length_c 41.59470
_cell_angle_alpha 90.00000
_cell_angle_beta  90.00000
_cell_angle_gamma 90.00000

_symmetry_space_group_name_	'P 1'
_symmetry_space_group_name_H-M	'P 1'

loop_
_symmetry_equiv_pos_as_xyz
  x,y,z

loop_
_atom_site_label
_atom_site_type_symbol
_atom_site_fract_x
_atom_site_fract_y
_atom_site_fract_z
_atom_site_charge
Cd	Cd	0.44864 0.32570 0.17909 1.14700
Cd	Cd	0.40612 0.24310 0.21271 1.16700
Cd	Cd	0.51984 0.17030 0.99353 1.17100
Cd	Cd	0.55674 0.28399 0.41298 1.14100
Cd	Cd	0.05136 0.67430 0.67909 1.14700
Cd	Cd	0.09388 0.75690 0.71271 1.16700
Cd	Cd	0.98016 0.82970 0.49353 1.17100
Cd	Cd	0.94326 0.71601 0.91298 1.14100
Cd	Cd	0.55136 0.82570 0.32091 1.14700
Cd	Cd	0.59388 0.74310 0.28729 1.16700
Cd	Cd	0.48016 0.67030 0.50647 1.17100
Cd	Cd	0.44326 0.78399 0.08702 1.14100
Cd	Cd	0.94864 0.17430 0.82091 1.14700
Cd	Cd	0.90612 0.25690 0.78729 1.16700
Cd	Cd	0.01984 0.32970 0.00647 1.17100
Cd	Cd	0.05674 0.21601 0.58702 1.14100
Cd	Cd	0.17909 0.44864 0.32570 1.14700
Cd	Cd	0.21271 0.40612 0.24310 1.16700
Cd	Cd	0.99353 0.51984 0.17030 1.17100
Cd	Cd	0.41298 0.55674 0.28399 1.14100
Cd	Cd	0.67909 0.05136 0.67430 1.14700
Cd	Cd	0.71271 0.09388 0.75690 1.16700
Cd	Cd	0.49353 0.98016 0.82970 1.17100
Cd	Cd	0.91298 0.94326 0.71601 1.14100
Cd	Cd	0.32091 0.55136 0.82570 1.14700
Cd	Cd	0.28729 0.59388 0.74310 1.16700
Cd	Cd	0.50647 0.48016 0.67030 1.17100
Cd	Cd	0.08702 0.44326 0.78399 1.14100
Cd	Cd	0.82091 0.94864 0.17430 1.14700
Cd	Cd	0.78729 0.90612 0.25690 1.16700
Cd	Cd	0.00647 0.01984 0.32970 1.17100
Cd	Cd	0.58702 0.05674 0.21601 1.14100
Cd	Cd	0.32570 0.17909 0.44864 1.14700
Cd	Cd	0.24310 0.21271 0.40612 1.16700
Cd	Cd	0.17030 0.99353 0.51984 1.17100
Cd	Cd	0.28399 0.41298 0.55674 1.14100
Cd	Cd	0.67430 0.67909 0.05136 1.14700
Cd	Cd	0.75690 0.71271 0.09388 1.16700
Cd	Cd	0.82970 0.49353 0.98016 1.17100
Cd	Cd	0.71601 0.91298 0.94326 1.14100
Cd	Cd	0.82570 0.32091 0.55136 1.14700
Cd	Cd	0.74310 0.28729 0.59388 1.16700
Cd	Cd	0.67030 0.50647 0.48016 1.17100
Cd	Cd	0.78399 0.08702 0.44326 1.14100
Cd	Cd	0.17430 0.82091 0.94864 1.14700
Cd	Cd	0.25690 0.78729 0.90612 1.16700
Cd	Cd	0.32970 0.00647 0.01984 1.17100
Cd	Cd	0.21601 0.58702 0.05674 1.14100
Cd	Cd	0.55136 0.67430 0.82091 1.14800
Cd	Cd	0.59388 0.75690 0.78729 1.16800
Cd	Cd	0.48016 0.82970 0.00647 1.17200
Cd	Cd	0.44326 0.71601 0.58702 1.14200
Cd	Cd	0.94864 0.32570 0.32091 1.14800
Cd	Cd	0.90612 0.24310 0.28729 1.16800
Cd	Cd	0.01984 0.17030 0.50647 1.17200
Cd	Cd	0.05674 0.28399 0.08702 1.14200
Cd	Cd	0.44864 0.17430 0.67909 1.14800
Cd	Cd	0.40612 0.25690 0.71271 1.16800
Cd	Cd	0.51984 0.32970 0.49353 1.17200
Cd	Cd	0.55674 0.21601 0.91298 1.14200
Cd	Cd	0.05136 0.82570 0.17909 1.14800
Cd	Cd	0.09388 0.74310 0.21271 1.16800
Cd	Cd	0.98016 0.67030 0.99353 1.17200
Cd	Cd	0.94326 0.78399 0.41298 1.14200
Cd	Cd	0.82091 0.55136 0.67430 1.14800
Cd	Cd	0.78729 0.59388 0.75690 1.16800
Cd	Cd	0.00647 0.48016 0.82970 1.17200
Cd	Cd	0.58702 0.44326 0.71601 1.14200
Cd	Cd	0.32091 0.94864 0.32570 1.14800
Cd	Cd	0.28729 0.90612 0.24310 1.16800
Cd	Cd	0.50647 0.01984 0.17030 1.17200
Cd	Cd	0.08702 0.05674 0.28399 1.14200
Cd	Cd	0.67909 0.44864 0.17430 1.14800
Cd	Cd	0.71271 0.40612 0.25690 1.16800
Cd	Cd	0.49353 0.51984 0.32970 1.17200
Cd	Cd	0.91298 0.55674 0.21601 1.14200
Cd	Cd	0.17909 0.05136 0.82570 1.14800
Cd	Cd	0.21271 0.09388 0.74310 1.16800
Cd	Cd	0.99353 0.98016 0.67030 1.17200
Cd	Cd	0.41298 0.94326 0.78399 1.14200
Cd	Cd	0.67430 0.82091 0.55136 1.14800
Cd	Cd	0.75690 0.78729 0.59388 1.16800
Cd	Cd	0.82970 0.00647 0.48016 1.17200
Cd	Cd	0.71601 0.58702 0.44326 1.14200
Cd	Cd	0.32570 0.32091 0.94864 1.14800
Cd	Cd	0.24310 0.28729 0.90612 1.16800
Cd	Cd	0.17030 0.50647 0.01984 1.17200
Cd	Cd	0.28399 0.08702 0.05674 1.14200
Cd	Cd	0.17430 0.67909 0.44864 1.14800
Cd	Cd	0.25690 0.71271 0.40612 1.16800
Cd	Cd	0.32970 0.49353 0.51984 1.17200
Cd	Cd	0.21601 0.91298 0.55674 1.14200
Cd	Cd	0.82570 0.17909 0.05136 1.14800
Cd	Cd	0.74310 0.21271 0.09388 1.16800
Cd	Cd	0.67030 0.99353 0.98016 1.17200
Cd	Cd	0.78399 0.41298 0.94326 1.14200
H 	H 	0.47640 0.24540 0.32320 0.06900
H 	H 	0.52640 0.32470 0.29650 0.06400
H 	H 	0.50600 0.24390 0.37000 -0.02800
H 	H 	0.55210 0.32170 0.34640 -0.03200
H 	H 	0.33200 0.39080 0.20180 0.06700
H 	H 	0.29310 0.30890 0.23450 0.06400
H 	H 	0.28460 0.41640 0.21570 -0.01100
H 	H 	0.24860 0.33780 0.25130 -0.02200
H 	H 	0.47770 0.17860 0.11200 0.07000
H 	H 	0.49240 0.26510 0.07070 0.06100
H 	H 	0.52010 0.23800 0.03050 -0.02300
H 	H 	0.49660 0.15530 0.06460 -0.03900
H 	H 	0.41390 0.44350 0.20420 0.06100
H 	H 	0.49180 0.41440 0.25510 0.06600
H 	H 	0.48850 0.36520 0.22700 -0.02800
H 	H 	0.41070 0.39300 0.18150 -0.03200
H 	H 	0.43710 0.12380 0.19560 0.07500
H 	H 	0.50950 0.17270 0.23010 0.07200
H 	H 	0.40500 0.16790 0.20330 -0.05600
H 	H 	0.47270 0.21590 0.23770 -0.02400
H 	H 	0.49930 0.05990 0.92560 0.06500
H 	H 	0.52530 0.10190 0.84340 0.06700
H 	H 	0.48600 0.01480 0.89780 -0.02500
H 	H 	0.51210 0.05610 0.81710 -0.00400
H 	H 	0.02360 0.75460 0.82320 0.06900
H 	H 	0.97360 0.67530 0.79650 0.06400
H 	H 	0.99400 0.75610 0.87000 -0.02800
H 	H 	0.94790 0.67830 0.84640 -0.03200
H 	H 	0.16800 0.60920 0.70180 0.06700
H 	H 	0.20690 0.69110 0.73450 0.06400
H 	H 	0.21540 0.58360 0.71570 -0.01100
H 	H 	0.25140 0.66220 0.75130 -0.02200
H 	H 	0.02230 0.82140 0.61200 0.07000
H 	H 	0.00760 0.73490 0.57070 0.06100
H 	H 	0.97990 0.76200 0.53050 -0.02300
H 	H 	0.00340 0.84470 0.56460 -0.03900
H 	H 	0.08610 0.55650 0.70420 0.06100
H 	H 	0.00820 0.58560 0.75510 0.06600
H 	H 	0.01150 0.63480 0.72700 -0.02800
H 	H 	0.08930 0.60700 0.68150 -0.03200
H 	H 	0.06290 0.87620 0.69560 0.07500
H 	H 	0.99050 0.82730 0.73010 0.07200
H 	H 	0.09500 0.83210 0.70330 -0.05600
H 	H 	0.02730 0.78410 0.73770 -0.02400
H 	H 	0.00070 0.94010 0.42560 0.06500
H 	H 	0.97470 0.89810 0.34340 0.06700
H 	H 	0.01400 0.98520 0.39780 -0.02500
H 	H 	0.98790 0.94390 0.31710 -0.00400
H 	H 	0.52360 0.74540 0.17680 0.06900
H 	H 	0.47360 0.82470 0.20350 0.06400
H 	H 	0.49400 0.74390 0.13000 -0.02800
H 	H 	0.44790 0.82170 0.15360 -0.03200
H 	H 	0.66800 0.89080 0.29820 0.06700
H 	H 	0.70690 0.80890 0.26550 0.06400
H 	H 	0.71540 0.91640 0.28430 -0.01100
H 	H 	0.75140 0.83780 0.24870 -0.02200
H 	H 	0.52230 0.67860 0.38800 0.07000
H 	H 	0.50760 0.76510 0.42930 0.06100
H 	H 	0.47990 0.73800 0.46950 -0.02300
H 	H 	0.50340 0.65530 0.43540 -0.03900
H 	H 	0.58610 0.94350 0.29580 0.06100
H 	H 	0.50820 0.91440 0.24490 0.06600
H 	H 	0.51150 0.86520 0.27300 -0.02800
H 	H 	0.58930 0.89300 0.31850 -0.03200
H 	H 	0.56290 0.62380 0.30440 0.07500
H 	H 	0.49050 0.67270 0.26990 0.07200
H 	H 	0.59500 0.66790 0.29670 -0.05600
H 	H 	0.52730 0.71590 0.26230 -0.02400
H 	H 	0.50070 0.55990 0.57440 0.06500
H 	H 	0.47470 0.60190 0.65660 0.06700
H 	H 	0.51400 0.51480 0.60220 -0.02500
H 	H 	0.48790 0.55610 0.68290 -0.00400
H 	H 	0.97640 0.25460 0.67680 0.06900
H 	H 	0.02640 0.17530 0.70350 0.06400
H 	H 	0.00600 0.25610 0.63000 -0.02800
H 	H 	0.05210 0.17830 0.65360 -0.03200
H 	H 	0.83200 0.10920 0.79820 0.06700
H 	H 	0.79310 0.19110 0.76550 0.06400
H 	H 	0.78460 0.08360 0.78430 -0.01100
H 	H 	0.74860 0.16220 0.74870 -0.02200
H 	H 	0.97770 0.32140 0.88800 0.07000
H 	H 	0.99240 0.23490 0.92930 0.06100
H 	H 	0.02010 0.26200 0.96950 -0.02300
H 	H 	0.99660 0.34470 0.93540 -0.03900
H 	H 	0.91390 0.05650 0.79580 0.06100
H 	H 	0.99180 0.08560 0.74490 0.06600
H 	H 	0.98850 0.13480 0.77300 -0.02800
H 	H 	0.91070 0.10700 0.81850 -0.03200
H 	H 	0.93710 0.37620 0.80440 0.07500
H 	H 	0.00950 0.32730 0.76990 0.07200
H 	H 	0.90500 0.33210 0.79670 -0.05600
H 	H 	0.97270 0.28410 0.76230 -0.02400
H 	H 	0.99930 0.44010 0.07440 0.06500
H 	H 	0.02530 0.39810 0.15660 0.06700
H 	H 	0.98600 0.48520 0.10220 -0.02500
H 	H 	0.01210 0.44390 0.18290 -0.00400
H 	H 	0.32320 0.47640 0.24540 0.06900
H 	H 	0.29650 0.52640 0.32470 0.06400
H 	H 	0.37000 0.50600 0.24390 -0.02800
H 	H 	0.34640 0.55210 0.32170 -0.03200
H 	H 	0.20180 0.33200 0.39080 0.06700
H 	H 	0.23450 0.29310 0.30890 0.06400
H 	H 	0.21570 0.28460 0.41640 -0.01100
H 	H 	0.25130 0.24860 0.33780 -0.02200
H 	H 	0.11200 0.47770 0.17860 0.07000
H 	H 	0.07070 0.49240 0.26510 0.06100
H 	H 	0.03050 0.52010 0.23800 -0.02300
H 	H 	0.06460 0.49660 0.15530 -0.03900
H 	H 	0.20420 0.41390 0.44350 0.06100
H 	H 	0.25510 0.49180 0.41440 0.06600
H 	H 	0.22700 0.48850 0.36520 -0.02800
H 	H 	0.18150 0.41070 0.39300 -0.03200
H 	H 	0.19560 0.43710 0.12380 0.07500
H 	H 	0.23010 0.50950 0.17270 0.07200
H 	H 	0.20330 0.40500 0.16790 -0.05600
H 	H 	0.23770 0.47270 0.21590 -0.02400
H 	H 	0.92560 0.49930 0.05990 0.06500
H 	H 	0.84340 0.52530 0.10190 0.06700
H 	H 	0.89780 0.48600 0.01480 -0.02500
H 	H 	0.81710 0.51210 0.05610 -0.00400
H 	H 	0.82320 0.02360 0.75460 0.06900
H 	H 	0.79650 0.97360 0.67530 0.06400
H 	H 	0.87000 0.99400 0.75610 -0.02800
H 	H 	0.84640 0.94790 0.67830 -0.03200
H 	H 	0.70180 0.16800 0.60920 0.06700
H 	H 	0.73450 0.20690 0.69110 0.06400
H 	H 	0.71570 0.21540 0.58360 -0.01100
H 	H 	0.75130 0.25140 0.66220 -0.02200
H 	H 	0.61200 0.02230 0.82140 0.07000
H 	H 	0.57070 0.00760 0.73490 0.06100
H 	H 	0.53050 0.97990 0.76200 -0.02300
H 	H 	0.56460 0.00340 0.84470 -0.03900
H 	H 	0.70420 0.08610 0.55650 0.06100
H 	H 	0.75510 0.00820 0.58560 0.06600
H 	H 	0.72700 0.01150 0.63480 -0.02800
H 	H 	0.68150 0.08930 0.60700 -0.03200
H 	H 	0.69560 0.06290 0.87620 0.07500
H 	H 	0.73010 0.99050 0.82730 0.07200
H 	H 	0.70330 0.09500 0.83210 -0.05600
H 	H 	0.73770 0.02730 0.78410 -0.02400
H 	H 	0.42560 0.00070 0.94010 0.06500
H 	H 	0.34340 0.97470 0.89810 0.06700
H 	H 	0.39780 0.01400 0.98520 -0.02500
H 	H 	0.31710 0.98790 0.94390 -0.00400
H 	H 	0.17680 0.52360 0.74540 0.06900
H 	H 	0.20350 0.47360 0.82470 0.06400
H 	H 	0.13000 0.49400 0.74390 -0.02800
H 	H 	0.15360 0.44790 0.82170 -0.03200
H 	H 	0.29820 0.66800 0.89080 0.06700
H 	H 	0.26550 0.70690 0.80890 0.06400
H 	H 	0.28430 0.71540 0.91640 -0.01100
H 	H 	0.24870 0.75140 0.83780 -0.02200
H 	H 	0.38800 0.52230 0.67860 0.07000
H 	H 	0.42930 0.50760 0.76510 0.06100
H 	H 	0.46950 0.47990 0.73800 -0.02300
H 	H 	0.43540 0.50340 0.65530 -0.03900
H 	H 	0.29580 0.58610 0.94350 0.06100
H 	H 	0.24490 0.50820 0.91440 0.06600
H 	H 	0.27300 0.51150 0.86520 -0.02800
H 	H 	0.31850 0.58930 0.89300 -0.03200
H 	H 	0.30440 0.56290 0.62380 0.07500
H 	H 	0.26990 0.49050 0.67270 0.07200
H 	H 	0.29670 0.59500 0.66790 -0.05600
H 	H 	0.26230 0.52730 0.71590 -0.02400
H 	H 	0.57440 0.50070 0.55990 0.06500
H 	H 	0.65660 0.47470 0.60190 0.06700
H 	H 	0.60220 0.51400 0.51480 -0.02500
H 	H 	0.68290 0.48790 0.55610 -0.00400
H 	H 	0.67680 0.97640 0.25460 0.06900
H 	H 	0.70350 0.02640 0.17530 0.06400
H 	H 	0.63000 0.00600 0.25610 -0.02800
H 	H 	0.65360 0.05210 0.17830 -0.03200
H 	H 	0.79820 0.83200 0.10920 0.06700
H 	H 	0.76550 0.79310 0.19110 0.06400
H 	H 	0.78430 0.78460 0.08360 -0.01100
H 	H 	0.74870 0.74860 0.16220 -0.02200
H 	H 	0.88800 0.97770 0.32140 0.07000
H 	H 	0.92930 0.99240 0.23490 0.06100
H 	H 	0.96950 0.02010 0.26200 -0.02300
H 	H 	0.93540 0.99660 0.34470 -0.03900
H 	H 	0.79580 0.91390 0.05650 0.06100
H 	H 	0.74490 0.99180 0.08560 0.06600
H 	H 	0.77300 0.98850 0.13480 -0.02800
H 	H 	0.81850 0.91070 0.10700 -0.03200
H 	H 	0.80440 0.93710 0.37620 0.07500
H 	H 	0.76990 0.00950 0.32730 0.07200
H 	H 	0.79670 0.90500 0.33210 -0.05600
H 	H 	0.76230 0.97270 0.28410 -0.02400
H 	H 	0.07440 0.99930 0.44010 0.06500
H 	H 	0.15660 0.02530 0.39810 0.06700
H 	H 	0.10220 0.98600 0.48520 -0.02500
H 	H 	0.18290 0.01210 0.44390 -0.00400
H 	H 	0.24540 0.32320 0.47640 0.06900
H 	H 	0.32470 0.29650 0.52640 0.06400
H 	H 	0.24390 0.37000 0.50600 -0.02800
H 	H 	0.32170 0.34640 0.55210 -0.03200
H 	H 	0.39080 0.20180 0.33200 0.06700
H 	H 	0.30890 0.23450 0.29310 0.06400
H 	H 	0.41640 0.21570 0.28460 -0.01100
H 	H 	0.33780 0.25130 0.24860 -0.02200
H 	H 	0.17860 0.11200 0.47770 0.07000
H 	H 	0.26510 0.07070 0.49240 0.06100
H 	H 	0.23800 0.03050 0.52010 -0.02300
H 	H 	0.15530 0.06460 0.49660 -0.03900
H 	H 	0.44350 0.20420 0.41390 0.06100
H 	H 	0.41440 0.25510 0.49180 0.06600
H 	H 	0.36520 0.22700 0.48850 -0.02800
H 	H 	0.39300 0.18150 0.41070 -0.03200
H 	H 	0.12380 0.19560 0.43710 0.07500
H 	H 	0.17270 0.23010 0.50950 0.07200
H 	H 	0.16790 0.20330 0.40500 -0.05600
H 	H 	0.21590 0.23770 0.47270 -0.02400
H 	H 	0.05990 0.92560 0.49930 0.06500
H 	H 	0.10190 0.84340 0.52530 0.06700
H 	H 	0.01480 0.89780 0.48600 -0.02500
H 	H 	0.05610 0.81710 0.51210 -0.00400
H 	H 	0.75460 0.82320 0.02360 0.06900
H 	H 	0.67530 0.79650 0.97360 0.06400
H 	H 	0.75610 0.87000 0.99400 -0.02800
H 	H 	0.67830 0.84640 0.94790 -0.03200
H 	H 	0.60920 0.70180 0.16800 0.06700
H 	H 	0.69110 0.73450 0.20690 0.06400
H 	H 	0.58360 0.71570 0.21540 -0.01100
H 	H 	0.66220 0.75130 0.25140 -0.02200
H 	H 	0.82140 0.61200 0.02230 0.07000
H 	H 	0.73490 0.57070 0.00760 0.06100
H 	H 	0.76200 0.53050 0.97990 -0.02300
H 	H 	0.84470 0.56460 0.00340 -0.03900
H 	H 	0.55650 0.70420 0.08610 0.06100
H 	H 	0.58560 0.75510 0.00820 0.06600
H 	H 	0.63480 0.72700 0.01150 -0.02800
H 	H 	0.60700 0.68150 0.08930 -0.03200
H 	H 	0.87620 0.69560 0.06290 0.07500
H 	H 	0.82730 0.73010 0.99050 0.07200
H 	H 	0.83210 0.70330 0.09500 -0.05600
H 	H 	0.78410 0.73770 0.02730 -0.02400
H 	H 	0.94010 0.42560 0.00070 0.06500
H 	H 	0.89810 0.34340 0.97470 0.06700
H 	H 	0.98520 0.39780 0.01400 -0.02500
H 	H 	0.94390 0.31710 0.98790 -0.00400
H 	H 	0.74540 0.17680 0.52360 0.06900
H 	H 	0.82470 0.20350 0.47360 0.06400
H 	H 	0.74390 0.13000 0.49400 -0.02800
H 	H 	0.82170 0.15360 0.44790 -0.03200
H 	H 	0.89080 0.29820 0.66800 0.06700
H 	H 	0.80890 0.26550 0.70690 0.06400
H 	H 	0.91640 0.28430 0.71540 -0.01100
H 	H 	0.83780 0.24870 0.75140 -0.02200
H 	H 	0.67860 0.38800 0.52230 0.07000
H 	H 	0.76510 0.42930 0.50760 0.06100
H 	H 	0.73800 0.46950 0.47990 -0.02300
H 	H 	0.65530 0.43540 0.50340 -0.03900
H 	H 	0.94350 0.29580 0.58610 0.06100
H 	H 	0.91440 0.24490 0.50820 0.06600
H 	H 	0.86520 0.27300 0.51150 -0.02800
H 	H 	0.89300 0.31850 0.58930 -0.03200
H 	H 	0.62380 0.30440 0.56290 0.07500
H 	H 	0.67270 0.26990 0.49050 0.07200
H 	H 	0.66790 0.29670 0.59500 -0.05600
H 	H 	0.71590 0.26230 0.52730 -0.02400
H 	H 	0.55990 0.57440 0.50070 0.06500
H 	H 	0.60190 0.65660 0.47470 0.06700
H 	H 	0.51480 0.60220 0.51400 -0.02500
H 	H 	0.55610 0.68290 0.48790 -0.00400
H 	H 	0.25460 0.67680 0.97640 0.06900
H 	H 	0.17530 0.70350 0.02640 0.06400
H 	H 	0.25610 0.63000 0.00600 -0.02800
H 	H 	0.17830 0.65360 0.05210 -0.03200
H 	H 	0.10920 0.79820 0.83200 0.06700
H 	H 	0.19110 0.76550 0.79310 0.06400
H 	H 	0.08360 0.78430 0.78460 -0.01100
H 	H 	0.16220 0.74870 0.74860 -0.02200
H 	H 	0.32140 0.88800 0.97770 0.07000
H 	H 	0.23490 0.92930 0.99240 0.06100
H 	H 	0.26200 0.96950 0.02010 -0.02300
H 	H 	0.34470 0.93540 0.99660 -0.03900
H 	H 	0.05650 0.79580 0.91390 0.06100
H 	H 	0.08560 0.74490 0.99180 0.06600
H 	H 	0.13480 0.77300 0.98850 -0.02800
H 	H 	0.10700 0.81850 0.91070 -0.03200
H 	H 	0.37620 0.80440 0.93710 0.07500
H 	H 	0.32730 0.76990 0.00950 0.07200
H 	H 	0.33210 0.79670 0.90500 -0.05600
H 	H 	0.28410 0.76230 0.97270 -0.02400
H 	H 	0.44010 0.07440 0.99930 0.06500
H 	H 	0.39810 0.15660 0.02530 0.06700
H 	H 	0.48520 0.10220 0.98600 -0.02500
H 	H 	0.44390 0.18290 0.01210 -0.00400
H 	H 	0.52360 0.75460 0.67680 0.06900
H 	H 	0.47360 0.67530 0.70350 0.06400
H 	H 	0.49400 0.75610 0.63000 -0.02800
H 	H 	0.44790 0.67830 0.65360 -0.03200
H 	H 	0.66800 0.60920 0.79820 0.06700
H 	H 	0.70690 0.69110 0.76550 0.06400
H 	H 	0.71540 0.58360 0.78430 -0.01100
H 	H 	0.75140 0.66220 0.74870 -0.02200
H 	H 	0.52230 0.82140 0.88800 0.07000
H 	H 	0.50760 0.73490 0.92930 0.06100
H 	H 	0.47990 0.76200 0.96950 -0.02300
H 	H 	0.50340 0.84470 0.93540 -0.03900
H 	H 	0.58610 0.55650 0.79580 0.06100
H 	H 	0.50820 0.58560 0.74490 0.06600
H 	H 	0.51150 0.63480 0.77300 -0.02800
H 	H 	0.58930 0.60700 0.81850 -0.03200
H 	H 	0.56290 0.87620 0.80440 0.07500
H 	H 	0.49050 0.82730 0.76990 0.07200
H 	H 	0.59500 0.83210 0.79670 -0.05600
H 	H 	0.52730 0.78410 0.76230 -0.02400
H 	H 	0.50070 0.94010 0.07440 0.06500
H 	H 	0.47470 0.89810 0.15660 0.06700
H 	H 	0.51400 0.98520 0.10220 -0.02500
H 	H 	0.48790 0.94390 0.18290 -0.00400
H 	H 	0.97640 0.24540 0.17680 0.06900
H 	H 	0.02640 0.32470 0.20350 0.06400
H 	H 	0.00600 0.24390 0.13000 -0.02800
H 	H 	0.05210 0.32170 0.15360 -0.03200
H 	H 	0.83200 0.39080 0.29820 0.06700
H 	H 	0.79310 0.30890 0.26550 0.06400
H 	H 	0.78460 0.41640 0.28430 -0.01100
H 	H 	0.74860 0.33780 0.24870 -0.02200
H 	H 	0.97770 0.17860 0.38800 0.07000
H 	H 	0.99240 0.26510 0.42930 0.06100
H 	H 	0.02010 0.23800 0.46950 -0.02300
H 	H 	0.99660 0.15530 0.43540 -0.03900
H 	H 	0.91390 0.44350 0.29580 0.06100
H 	H 	0.99180 0.41440 0.24490 0.06600
H 	H 	0.98850 0.36520 0.27300 -0.02800
H 	H 	0.91070 0.39300 0.31850 -0.03200
H 	H 	0.93710 0.12380 0.30440 0.07500
H 	H 	0.00950 0.17270 0.26990 0.07200
H 	H 	0.90500 0.16790 0.29670 -0.05600
H 	H 	0.97270 0.21590 0.26230 -0.02400
H 	H 	0.99930 0.05990 0.57440 0.06500
H 	H 	0.02530 0.10190 0.65660 0.06700
H 	H 	0.98600 0.01480 0.60220 -0.02500
H 	H 	0.01210 0.05610 0.68290 -0.00400
H 	H 	0.47640 0.25460 0.82320 0.06900
H 	H 	0.52640 0.17530 0.79650 0.06400
H 	H 	0.50600 0.25610 0.87000 -0.02800
H 	H 	0.55210 0.17830 0.84640 -0.03200
H 	H 	0.33200 0.10920 0.70180 0.06700
H 	H 	0.29310 0.19110 0.73450 0.06400
H 	H 	0.28460 0.08360 0.71570 -0.01100
H 	H 	0.24860 0.16220 0.75130 -0.02200
H 	H 	0.47770 0.32140 0.61200 0.07000
H 	H 	0.49240 0.23490 0.57070 0.06100
H 	H 	0.52010 0.26200 0.53050 -0.02300
H 	H 	0.49660 0.34470 0.56460 -0.03900
H 	H 	0.41390 0.05650 0.70420 0.06100
H 	H 	0.49180 0.08560 0.75510 0.06600
H 	H 	0.48850 0.13480 0.72700 -0.02800
H 	H 	0.41070 0.10700 0.68150 -0.03200
H 	H 	0.43710 0.37620 0.69560 0.07500
H 	H 	0.50950 0.32730 0.73010 0.07200
H 	H 	0.40500 0.33210 0.70330 -0.05600
H 	H 	0.47270 0.28410 0.73770 -0.02400
H 	H 	0.49930 0.44010 0.42560 0.06500
H 	H 	0.52530 0.39810 0.34340 0.06700
H 	H 	0.48600 0.48520 0.39780 -0.02500
H 	H 	0.51210 0.44390 0.31710 -0.00400
H 	H 	0.02360 0.74540 0.32320 0.06900
H 	H 	0.97360 0.82470 0.29650 0.06400
H 	H 	0.99400 0.74390 0.37000 -0.02800
H 	H 	0.94790 0.82170 0.34640 -0.03200
H 	H 	0.16800 0.89080 0.20180 0.06700
H 	H 	0.20690 0.80890 0.23450 0.06400
H 	H 	0.21540 0.91640 0.21570 -0.01100
H 	H 	0.25140 0.83780 0.25130 -0.02200
H 	H 	0.02230 0.67860 0.11200 0.07000
H 	H 	0.00760 0.76510 0.07070 0.06100
H 	H 	0.97990 0.73800 0.03050 -0.02300
H 	H 	0.00340 0.65530 0.06460 -0.03900
H 	H 	0.08610 0.94350 0.20420 0.06100
H 	H 	0.00820 0.91440 0.25510 0.06600
H 	H 	0.01150 0.86520 0.22700 -0.02800
H 	H 	0.08930 0.89300 0.18150 -0.03200
H 	H 	0.06290 0.62380 0.19560 0.07500
H 	H 	0.99050 0.67270 0.23010 0.07200
H 	H 	0.09500 0.66790 0.20330 -0.05600
H 	H 	0.02730 0.71590 0.23770 -0.02400
H 	H 	0.00070 0.55990 0.92560 0.06500
H 	H 	0.97470 0.60190 0.84340 0.06700
H 	H 	0.01400 0.51480 0.89780 -0.02500
H 	H 	0.98790 0.55610 0.81710 -0.00400
H 	H 	0.67680 0.52360 0.75460 0.06900
H 	H 	0.70350 0.47360 0.67530 0.06400
H 	H 	0.63000 0.49400 0.75610 -0.02800
H 	H 	0.65360 0.44790 0.67830 -0.03200
H 	H 	0.79820 0.66800 0.60920 0.06700
H 	H 	0.76550 0.70690 0.69110 0.06400
H 	H 	0.78430 0.71540 0.58360 -0.01100
H 	H 	0.74870 0.75140 0.66220 -0.02200
H 	H 	0.88800 0.52230 0.82140 0.07000
H 	H 	0.92930 0.50760 0.73490 0.06100
H 	H 	0.96950 0.47990 0.76200 -0.02300
H 	H 	0.93540 0.50340 0.84470 -0.03900
H 	H 	0.79580 0.58610 0.55650 0.06100
H 	H 	0.74490 0.50820 0.58560 0.06600
H 	H 	0.77300 0.51150 0.63480 -0.02800
H 	H 	0.81850 0.58930 0.60700 -0.03200
H 	H 	0.80440 0.56290 0.87620 0.07500
H 	H 	0.76990 0.49050 0.82730 0.07200
H 	H 	0.79670 0.59500 0.83210 -0.05600
H 	H 	0.76230 0.52730 0.78410 -0.02400
H 	H 	0.07440 0.50070 0.94010 0.06500
H 	H 	0.15660 0.47470 0.89810 0.06700
H 	H 	0.10220 0.51400 0.98520 -0.02500
H 	H 	0.18290 0.48790 0.94390 -0.00400
H 	H 	0.17680 0.97640 0.24540 0.06900
H 	H 	0.20350 0.02640 0.32470 0.06400
H 	H 	0.13000 0.00600 0.24390 -0.02800
H 	H 	0.15360 0.05210 0.32170 -0.03200
H 	H 	0.29820 0.83200 0.39080 0.06700
H 	H 	0.26550 0.79310 0.30890 0.06400
H 	H 	0.28430 0.78460 0.41640 -0.01100
H 	H 	0.24870 0.74860 0.33780 -0.02200
H 	H 	0.38800 0.97770 0.17860 0.07000
H 	H 	0.42930 0.99240 0.26510 0.06100
H 	H 	0.46950 0.02010 0.23800 -0.02300
H 	H 	0.43540 0.99660 0.15530 -0.03900
H 	H 	0.29580 0.91390 0.44350 0.06100
H 	H 	0.24490 0.99180 0.41440 0.06600
H 	H 	0.27300 0.98850 0.36520 -0.02800
H 	H 	0.31850 0.91070 0.39300 -0.03200
H 	H 	0.30440 0.93710 0.12380 0.07500
H 	H 	0.26990 0.00950 0.17270 0.07200
H 	H 	0.29670 0.90500 0.16790 -0.05600
H 	H 	0.26230 0.97270 0.21590 -0.02400
H 	H 	0.57440 0.99930 0.05990 0.06500
H 	H 	0.65660 0.02530 0.10190 0.06700
H 	H 	0.60220 0.98600 0.01480 -0.02500
H 	H 	0.68290 0.01210 0.05610 -0.00400
H 	H 	0.82320 0.47640 0.25460 0.06900
H 	H 	0.79650 0.52640 0.17530 0.06400
H 	H 	0.87000 0.50600 0.25610 -0.02800
H 	H 	0.84640 0.55210 0.17830 -0.03200
H 	H 	0.70180 0.33200 0.10920 0.06700
H 	H 	0.73450 0.29310 0.19110 0.06400
H 	H 	0.71570 0.28460 0.08360 -0.01100
H 	H 	0.75130 0.24860 0.16220 -0.02200
H 	H 	0.61200 0.47770 0.32140 0.07000
H 	H 	0.57070 0.49240 0.23490 0.06100
H 	H 	0.53050 0.52010 0.26200 -0.02300
H 	H 	0.56460 0.49660 0.34470 -0.03900
H 	H 	0.70420 0.41390 0.05650 0.06100
H 	H 	0.75510 0.49180 0.08560 0.06600
H 	H 	0.72700 0.48850 0.13480 -0.02800
H 	H 	0.68150 0.41070 0.10700 -0.03200
H 	H 	0.69560 0.43710 0.37620 0.07500
H 	H 	0.73010 0.50950 0.32730 0.07200
H 	H 	0.70330 0.40500 0.33210 -0.05600
H 	H 	0.73770 0.47270 0.28410 -0.02400
H 	H 	0.42560 0.49930 0.44010 0.06500
H 	H 	0.34340 0.52530 0.39810 0.06700
H 	H 	0.39780 0.48600 0.48520 -0.02500
H 	H 	0.31710 0.51210 0.44390 -0.00400
H 	H 	0.32320 0.02360 0.74540 0.06900
H 	H 	0.29650 0.97360 0.82470 0.06400
H 	H 	0.37000 0.99400 0.74390 -0.02800
H 	H 	0.34640 0.94790 0.82170 -0.03200
H 	H 	0.20180 0.16800 0.89080 0.06700
H 	H 	0.23450 0.20690 0.80890 0.06400
H 	H 	0.21570 0.21540 0.91640 -0.01100
H 	H 	0.25130 0.25140 0.83780 -0.02200
H 	H 	0.11200 0.02230 0.67860 0.07000
H 	H 	0.07070 0.00760 0.76510 0.06100
H 	H 	0.03050 0.97990 0.73800 -0.02300
H 	H 	0.06460 0.00340 0.65530 -0.03900
H 	H 	0.20420 0.08610 0.94350 0.06100
H 	H 	0.25510 0.00820 0.91440 0.06600
H 	H 	0.22700 0.01150 0.86520 -0.02800
H 	H 	0.18150 0.08930 0.89300 -0.03200
H 	H 	0.19560 0.06290 0.62380 0.07500
H 	H 	0.23010 0.99050 0.67270 0.07200
H 	H 	0.20330 0.09500 0.66790 -0.05600
H 	H 	0.23770 0.02730 0.71590 -0.02400
H 	H 	0.92560 0.00070 0.55990 0.06500
H 	H 	0.84340 0.97470 0.60190 0.06700
H 	H 	0.89780 0.01400 0.51480 -0.02500
H 	H 	0.81710 0.98790 0.55610 -0.00400
H 	H 	0.75460 0.67680 0.52360 0.06900
H 	H 	0.67530 0.70350 0.47360 0.06400
H 	H 	0.75610 0.63000 0.49400 -0.02800
H 	H 	0.67830 0.65360 0.44790 -0.03200
H 	H 	0.60920 0.79820 0.66800 0.06700
H 	H 	0.69110 0.76550 0.70690 0.06400
H 	H 	0.58360 0.78430 0.71540 -0.01100
H 	H 	0.66220 0.74870 0.75140 -0.02200
H 	H 	0.82140 0.88800 0.52230 0.07000
H 	H 	0.73490 0.92930 0.50760 0.06100
H 	H 	0.76200 0.96950 0.47990 -0.02300
H 	H 	0.84470 0.93540 0.50340 -0.03900
H 	H 	0.55650 0.79580 0.58610 0.06100
H 	H 	0.58560 0.74490 0.50820 0.06600
H 	H 	0.63480 0.77300 0.51150 -0.02800
H 	H 	0.60700 0.81850 0.58930 -0.03200
H 	H 	0.87620 0.80440 0.56290 0.07500
H 	H 	0.82730 0.76990 0.49050 0.07200
H 	H 	0.83210 0.79670 0.59500 -0.05600
H 	H 	0.78410 0.76230 0.52730 -0.02400
H 	H 	0.94010 0.07440 0.50070 0.06500
H 	H 	0.89810 0.15660 0.47470 0.06700
H 	H 	0.98520 0.10220 0.51400 -0.02500
H 	H 	0.94390 0.18290 0.48790 -0.00400
H 	H 	0.24540 0.17680 0.97640 0.06900
H 	H 	0.32470 0.20350 0.02640 0.06400
H 	H 	0.24390 0.13000 0.00600 -0.02800
H 	H 	0.32170 0.15360 0.05210 -0.03200
H 	H 	0.39080 0.29820 0.83200 0.06700
H 	H 	0.30890 0.26550 0.79310 0.06400
H 	H 	0.41640 0.28430 0.78460 -0.01100
H 	H 	0.33780 0.24870 0.74860 -0.02200
H 	H 	0.17860 0.38800 0.97770 0.07000
H 	H 	0.26510 0.42930 0.99240 0.06100
H 	H 	0.23800 0.46950 0.02010 -0.02300
H 	H 	0.15530 0.43540 0.99660 -0.03900
H 	H 	0.44350 0.29580 0.91390 0.06100
H 	H 	0.41440 0.24490 0.99180 0.06600
H 	H 	0.36520 0.27300 0.98850 -0.02800
H 	H 	0.39300 0.31850 0.91070 -0.03200
H 	H 	0.12380 0.30440 0.93710 0.07500
H 	H 	0.17270 0.26990 0.00950 0.07200
H 	H 	0.16790 0.29670 0.90500 -0.05600
H 	H 	0.21590 0.26230 0.97270 -0.02400
H 	H 	0.05990 0.57440 0.99930 0.06500
H 	H 	0.10190 0.65660 0.02530 0.06700
H 	H 	0.01480 0.60220 0.98600 -0.02500
H 	H 	0.05610 0.68290 0.01210 -0.00400
H 	H 	0.25460 0.82320 0.47640 0.06900
H 	H 	0.17530 0.79650 0.52640 0.06400
H 	H 	0.25610 0.87000 0.50600 -0.02800
H 	H 	0.17830 0.84640 0.55210 -0.03200
H 	H 	0.10920 0.70180 0.33200 0.06700
H 	H 	0.19110 0.73450 0.29310 0.06400
H 	H 	0.08360 0.71570 0.28460 -0.01100
H 	H 	0.16220 0.75130 0.24860 -0.02200
H 	H 	0.32140 0.61200 0.47770 0.07000
H 	H 	0.23490 0.57070 0.49240 0.06100
H 	H 	0.26200 0.53050 0.52010 -0.02300
H 	H 	0.34470 0.56460 0.49660 -0.03900
H 	H 	0.05650 0.70420 0.41390 0.06100
H 	H 	0.08560 0.75510 0.49180 0.06600
H 	H 	0.13480 0.72700 0.48850 -0.02800
H 	H 	0.10700 0.68150 0.41070 -0.03200
H 	H 	0.37620 0.69560 0.43710 0.07500
H 	H 	0.32730 0.73010 0.50950 0.07200
H 	H 	0.33210 0.70330 0.40500 -0.05600
H 	H 	0.28410 0.73770 0.47270 -0.02400
H 	H 	0.44010 0.42560 0.49930 0.06500
H 	H 	0.39810 0.34340 0.52530 0.06700
H 	H 	0.48520 0.39780 0.48600 -0.02500
H 	H 	0.44390 0.31710 0.51210 -0.00400
H 	H 	0.74540 0.32320 0.02360 0.06900
H 	H 	0.82470 0.29650 0.97360 0.06400
H 	H 	0.74390 0.37000 0.99400 -0.02800
H 	H 	0.82170 0.34640 0.94790 -0.03200
H 	H 	0.89080 0.20180 0.16800 0.06700
H 	H 	0.80890 0.23450 0.20690 0.06400
H 	H 	0.91640 0.21570 0.21540 -0.01100
H 	H 	0.83780 0.25130 0.25140 -0.02200
H 	H 	0.67860 0.11200 0.02230 0.07000
H 	H 	0.76510 0.07070 0.00760 0.06100
H 	H 	0.73800 0.03050 0.97990 -0.02300
H 	H 	0.65530 0.06460 0.00340 -0.03900
H 	H 	0.94350 0.20420 0.08610 0.06100
H 	H 	0.91440 0.25510 0.00820 0.06600
H 	H 	0.86520 0.22700 0.01150 -0.02800
H 	H 	0.89300 0.18150 0.08930 -0.03200
H 	H 	0.62380 0.19560 0.06290 0.07500
H 	H 	0.67270 0.23010 0.99050 0.07200
H 	H 	0.66790 0.20330 0.09500 -0.05600
H 	H 	0.71590 0.23770 0.02730 -0.02400
H 	H 	0.55990 0.92560 0.00070 0.06500
H 	H 	0.60190 0.84340 0.97470 0.06700
H 	H 	0.51480 0.89780 0.01400 -0.02500
H 	H 	0.55610 0.81710 0.98790 -0.00400
C 	C 	0.47960 0.28640 0.27440 0.09100
C 	C 	0.49820 0.28520 0.30410 0.03900
C 	C 	0.49240 0.26120 0.32700 -0.12300
C 	C 	0.52120 0.30800 0.31120 -0.12300
C 	C 	0.51000 0.26080 0.35510 0.06000
C 	C 	0.53690 0.30550 0.34120 0.06100
C 	C 	0.34740 0.32880 0.20850 0.08800
C 	C 	0.31830 0.34700 0.21780 0.04400
C 	C 	0.31510 0.37900 0.21170 -0.12300
C 	C 	0.29240 0.33150 0.23130 -0.12300
C 	C 	0.28650 0.39410 0.22030 0.06200
C 	C 	0.26530 0.34890 0.24030 0.05900
C 	C 	0.46470 0.24040 0.12270 0.08100
C 	C 	0.48080 0.22440 0.09520 0.04800
C 	C 	0.48390 0.19160 0.09430 -0.13900
C 	C 	0.49370 0.24230 0.07070 -0.13800
C 	C 	0.50880 0.22570 0.04610 0.08000
C 	C 	0.49670 0.17810 0.06640 0.07900
C 	C 	0.45240 0.46380 0.25280 0.10100
C 	C 	0.45100 0.43360 0.23410 0.03300
C 	C 	0.42870 0.42730 0.21050 -0.12300
C 	C 	0.47500 0.41050 0.24020 -0.11300
C 	C 	0.47280 0.38130 0.22310 0.04700
C 	C 	0.42770 0.39770 0.19600 0.06300
C 	C 	0.49680 0.11420 0.21270 0.06900
C 	C 	0.47660 0.14260 0.21650 0.07800
C 	C 	0.44570 0.14240 0.20560 -0.16600
C 	C 	0.48740 0.16980 0.22540 -0.16500
C 	C 	0.42700 0.16970 0.20910 0.10400
C 	C 	0.46470 0.19670 0.22810 0.10500
C 	C 	0.52440 0.11470 0.90620 0.09000
C 	C 	0.51490 0.08640 0.88830 0.03900
C 	C 	0.50250 0.05960 0.90300 -0.12200
C 	C 	0.51770 0.08400 0.85540 -0.11700
C 	C 	0.49470 0.03250 0.88620 0.06200
C 	C 	0.50970 0.05660 0.83980 0.06000
C 	C 	0.02040 0.71360 0.77440 0.09100
C 	C 	0.00180 0.71480 0.80410 0.03900
C 	C 	0.00760 0.73880 0.82700 -0.12300
C 	C 	0.97880 0.69200 0.81120 -0.12300
C 	C 	0.99000 0.73920 0.85510 0.06000
C 	C 	0.96310 0.69450 0.84120 0.06100
C 	C 	0.15260 0.67120 0.70850 0.08800
C 	C 	0.18170 0.65300 0.71780 0.04400
C 	C 	0.18490 0.62100 0.71170 -0.12300
C 	C 	0.20760 0.66850 0.73130 -0.12300
C 	C 	0.21350 0.60590 0.72030 0.06200
C 	C 	0.23470 0.65110 0.74030 0.05900
C 	C 	0.03530 0.75960 0.62270 0.08100
C 	C 	0.01920 0.77560 0.59520 0.04800
C 	C 	0.01610 0.80840 0.59430 -0.13900
C 	C 	0.00630 0.75770 0.57070 -0.13800
C 	C 	0.99120 0.77430 0.54610 0.08000
C 	C 	0.00330 0.82190 0.56640 0.07900
C 	C 	0.04760 0.53620 0.75280 0.10100
C 	C 	0.04900 0.56640 0.73410 0.03300
C 	C 	0.07130 0.57270 0.71050 -0.12300
C 	C 	0.02500 0.58950 0.74020 -0.11300
C 	C 	0.02720 0.61870 0.72310 0.04700
C 	C 	0.07230 0.60230 0.69600 0.06300
C 	C 	0.00320 0.88580 0.71270 0.06900
C 	C 	0.02340 0.85740 0.71650 0.07800
C 	C 	0.05430 0.85760 0.70560 -0.16600
C 	C 	0.01260 0.83020 0.72540 -0.16500
C 	C 	0.07300 0.83030 0.70910 0.10400
C 	C 	0.03530 0.80330 0.72810 0.10500
C 	C 	0.97560 0.88530 0.40620 0.09000
C 	C 	0.98510 0.91360 0.38830 0.03900
C 	C 	0.99750 0.94040 0.40300 -0.12200
C 	C 	0.98230 0.91600 0.35540 -0.11700
C 	C 	0.00530 0.96750 0.38620 0.06200
C 	C 	0.99030 0.94340 0.33980 0.06000
C 	C 	0.52040 0.78640 0.22560 0.09100
C 	C 	0.50180 0.78520 0.19590 0.03900
C 	C 	0.50760 0.76120 0.17300 -0.12300
C 	C 	0.47880 0.80800 0.18880 -0.12300
C 	C 	0.49000 0.76080 0.14490 0.06000
C 	C 	0.46310 0.80550 0.15880 0.06100
C 	C 	0.65260 0.82880 0.29150 0.08800
C 	C 	0.68170 0.84700 0.28220 0.04400
C 	C 	0.68490 0.87900 0.28830 -0.12300
C 	C 	0.70760 0.83150 0.26870 -0.12300
C 	C 	0.71350 0.89410 0.27970 0.06200
C 	C 	0.73470 0.84890 0.25970 0.05900
C 	C 	0.53530 0.74040 0.37730 0.08100
C 	C 	0.51920 0.72440 0.40480 0.04800
C 	C 	0.51610 0.69160 0.40570 -0.13900
C 	C 	0.50630 0.74230 0.42930 -0.13800
C 	C 	0.49120 0.72570 0.45390 0.08000
C 	C 	0.50330 0.67810 0.43360 0.07900
C 	C 	0.54760 0.96380 0.24720 0.10100
C 	C 	0.54900 0.93360 0.26590 0.03300
C 	C 	0.57130 0.92730 0.28950 -0.12300
C 	C 	0.52500 0.91050 0.25980 -0.11300
C 	C 	0.52720 0.88130 0.27690 0.04700
C 	C 	0.57230 0.89770 0.30400 0.06300
C 	C 	0.50320 0.61420 0.28730 0.06900
C 	C 	0.52340 0.64260 0.28350 0.07800
C 	C 	0.55430 0.64240 0.29440 -0.16600
C 	C 	0.51260 0.66980 0.27460 -0.16500
C 	C 	0.57300 0.66970 0.29090 0.10400
C 	C 	0.53530 0.69670 0.27190 0.10500
C 	C 	0.47560 0.61470 0.59380 0.09000
C 	C 	0.48510 0.58640 0.61170 0.03900
C 	C 	0.49750 0.55960 0.59700 -0.12200
C 	C 	0.48230 0.58400 0.64460 -0.11700
C 	C 	0.50530 0.53250 0.61380 0.06200
C 	C 	0.49030 0.55660 0.66020 0.06000
C 	C 	0.97960 0.21360 0.72560 0.09100
C 	C 	0.99820 0.21480 0.69590 0.03900
C 	C 	0.99240 0.23880 0.67300 -0.12300
C 	C 	0.02120 0.19200 0.68880 -0.12300
C 	C 	0.01000 0.23920 0.64490 0.06000
C 	C 	0.03690 0.19450 0.65880 0.06100
C 	C 	0.84740 0.17120 0.79150 0.08800
C 	C 	0.81830 0.15300 0.78220 0.04400
C 	C 	0.81510 0.12100 0.78830 -0.12300
C 	C 	0.79240 0.16850 0.76870 -0.12300
C 	C 	0.78650 0.10590 0.77970 0.06200
C 	C 	0.76530 0.15110 0.75970 0.05900
C 	C 	0.96470 0.25960 0.87730 0.08100
C 	C 	0.98080 0.27560 0.90480 0.04800
C 	C 	0.98390 0.30840 0.90570 -0.13900
C 	C 	0.99370 0.25770 0.92930 -0.13800
C 	C 	0.00880 0.27430 0.95390 0.08000
C 	C 	0.99670 0.32190 0.93360 0.07900
C 	C 	0.95240 0.03620 0.74720 0.10100
C 	C 	0.95100 0.06640 0.76590 0.03300
C 	C 	0.92870 0.07270 0.78950 -0.12300
C 	C 	0.97500 0.08950 0.75980 -0.11300
C 	C 	0.97280 0.11870 0.77690 0.04700
C 	C 	0.92770 0.10230 0.80400 0.06300
C 	C 	0.99680 0.38580 0.78730 0.06900
C 	C 	0.97660 0.35740 0.78350 0.07800
C 	C 	0.94570 0.35760 0.79440 -0.16600
C 	C 	0.98740 0.33020 0.77460 -0.16500
C 	C 	0.92700 0.33030 0.79090 0.10400
C 	C 	0.96470 0.30330 0.77190 0.10500
C 	C 	0.02440 0.38530 0.09380 0.09000
C 	C 	0.01490 0.41360 0.11170 0.03900
C 	C 	0.00250 0.44040 0.09700 -0.12200
C 	C 	0.01770 0.41600 0.14460 -0.11700
C 	C 	0.99470 0.46750 0.11380 0.06200
C 	C 	0.00970 0.44340 0.16020 0.06000
C 	C 	0.27440 0.47960 0.28640 0.09100
C 	C 	0.30410 0.49820 0.28520 0.03900
C 	C 	0.32700 0.49240 0.26120 -0.12300
C 	C 	0.31120 0.52120 0.30800 -0.12300
C 	C 	0.35510 0.51000 0.26080 0.06000
C 	C 	0.34120 0.53690 0.30550 0.06100
C 	C 	0.20850 0.34740 0.32880 0.08800
C 	C 	0.21780 0.31830 0.34700 0.04400
C 	C 	0.21170 0.31510 0.37900 -0.12300
C 	C 	0.23130 0.29240 0.33150 -0.12300
C 	C 	0.22030 0.28650 0.39410 0.06200
C 	C 	0.24030 0.26530 0.34890 0.05900
C 	C 	0.12270 0.46470 0.24040 0.08100
C 	C 	0.09520 0.48080 0.22440 0.04800
C 	C 	0.09430 0.48390 0.19160 -0.13900
C 	C 	0.07070 0.49370 0.24230 -0.13800
C 	C 	0.04610 0.50880 0.22570 0.08000
C 	C 	0.06640 0.49670 0.17810 0.07900
C 	C 	0.25280 0.45240 0.46380 0.10100
C 	C 	0.23410 0.45100 0.43360 0.03300
C 	C 	0.21050 0.42870 0.42730 -0.12300
C 	C 	0.24020 0.47500 0.41050 -0.11300
C 	C 	0.22310 0.47280 0.38130 0.04700
C 	C 	0.19600 0.42770 0.39770 0.06300
C 	C 	0.21270 0.49680 0.11420 0.06900
C 	C 	0.21650 0.47660 0.14260 0.07800
C 	C 	0.20560 0.44570 0.14240 -0.16600
C 	C 	0.22540 0.48740 0.16980 -0.16500
C 	C 	0.20910 0.42700 0.16970 0.10400
C 	C 	0.22810 0.46470 0.19670 0.10500
C 	C 	0.90620 0.52440 0.11470 0.09000
C 	C 	0.88830 0.51490 0.08640 0.03900
C 	C 	0.90300 0.50250 0.05960 -0.12200
C 	C 	0.85540 0.51770 0.08400 -0.11700
C 	C 	0.88620 0.49470 0.03250 0.06200
C 	C 	0.83980 0.50970 0.05660 0.06000
C 	C 	0.77440 0.02040 0.71360 0.09100
C 	C 	0.80410 0.00180 0.71480 0.03900
C 	C 	0.82700 0.00760 0.73880 -0.12300
C 	C 	0.81120 0.97880 0.69200 -0.12300
C 	C 	0.85510 0.99000 0.73920 0.06000
C 	C 	0.84120 0.96310 0.69450 0.06100
C 	C 	0.70850 0.15260 0.67120 0.08800
C 	C 	0.71780 0.18170 0.65300 0.04400
C 	C 	0.71170 0.18490 0.62100 -0.12300
C 	C 	0.73130 0.20760 0.66850 -0.12300
C 	C 	0.72030 0.21350 0.60590 0.06200
C 	C 	0.74030 0.23470 0.65110 0.05900
C 	C 	0.62270 0.03530 0.75960 0.08100
C 	C 	0.59520 0.01920 0.77560 0.04800
C 	C 	0.59430 0.01610 0.80840 -0.13900
C 	C 	0.57070 0.00630 0.75770 -0.13800
C 	C 	0.54610 0.99120 0.77430 0.08000
C 	C 	0.56640 0.00330 0.82190 0.07900
C 	C 	0.75280 0.04760 0.53620 0.10100
C 	C 	0.73410 0.04900 0.56640 0.03300
C 	C 	0.71050 0.07130 0.57270 -0.12300
C 	C 	0.74020 0.02500 0.58950 -0.11300
C 	C 	0.72310 0.02720 0.61870 0.04700
C 	C 	0.69600 0.07230 0.60230 0.06300
C 	C 	0.71270 0.00320 0.88580 0.06900
C 	C 	0.71650 0.02340 0.85740 0.07800
C 	C 	0.70560 0.05430 0.85760 -0.16600
C 	C 	0.72540 0.01260 0.83020 -0.16500
C 	C 	0.70910 0.07300 0.83030 0.10400
C 	C 	0.72810 0.03530 0.80330 0.10500
C 	C 	0.40620 0.97560 0.88530 0.09000
C 	C 	0.38830 0.98510 0.91360 0.03900
C 	C 	0.40300 0.99750 0.94040 -0.12200
C 	C 	0.35540 0.98230 0.91600 -0.11700
C 	C 	0.38620 0.00530 0.96750 0.06200
C 	C 	0.33980 0.99030 0.94340 0.06000
C 	C 	0.22560 0.52040 0.78640 0.09100
C 	C 	0.19590 0.50180 0.78520 0.03900
C 	C 	0.17300 0.50760 0.76120 -0.12300
C 	C 	0.18880 0.47880 0.80800 -0.12300
C 	C 	0.14490 0.49000 0.76080 0.06000
C 	C 	0.15880 0.46310 0.80550 0.06100
C 	C 	0.29150 0.65260 0.82880 0.08800
C 	C 	0.28220 0.68170 0.84700 0.04400
C 	C 	0.28830 0.68490 0.87900 -0.12300
C 	C 	0.26870 0.70760 0.83150 -0.12300
C 	C 	0.27970 0.71350 0.89410 0.06200
C 	C 	0.25970 0.73470 0.84890 0.05900
C 	C 	0.37730 0.53530 0.74040 0.08100
C 	C 	0.40480 0.51920 0.72440 0.04800
C 	C 	0.40570 0.51610 0.69160 -0.13900
C 	C 	0.42930 0.50630 0.74230 -0.13800
C 	C 	0.45390 0.49120 0.72570 0.08000
C 	C 	0.43360 0.50330 0.67810 0.07900
C 	C 	0.24720 0.54760 0.96380 0.10100
C 	C 	0.26590 0.54900 0.93360 0.03300
C 	C 	0.28950 0.57130 0.92730 -0.12300
C 	C 	0.25980 0.52500 0.91050 -0.11300
C 	C 	0.27690 0.52720 0.88130 0.04700
C 	C 	0.30400 0.57230 0.89770 0.06300
C 	C 	0.28730 0.50320 0.61420 0.06900
C 	C 	0.28350 0.52340 0.64260 0.07800
C 	C 	0.29440 0.55430 0.64240 -0.16600
C 	C 	0.27460 0.51260 0.66980 -0.16500
C 	C 	0.29090 0.57300 0.66970 0.10400
C 	C 	0.27190 0.53530 0.69670 0.10500
C 	C 	0.59380 0.47560 0.61470 0.09000
C 	C 	0.61170 0.48510 0.58640 0.03900
C 	C 	0.59700 0.49750 0.55960 -0.12200
C 	C 	0.64460 0.48230 0.58400 -0.11700
C 	C 	0.61380 0.50530 0.53250 0.06200
C 	C 	0.66020 0.49030 0.55660 0.06000
C 	C 	0.72560 0.97960 0.21360 0.09100
C 	C 	0.69590 0.99820 0.21480 0.03900
C 	C 	0.67300 0.99240 0.23880 -0.12300
C 	C 	0.68880 0.02120 0.19200 -0.12300
C 	C 	0.64490 0.01000 0.23920 0.06000
C 	C 	0.65880 0.03690 0.19450 0.06100
C 	C 	0.79150 0.84740 0.17120 0.08800
C 	C 	0.78220 0.81830 0.15300 0.04400
C 	C 	0.78830 0.81510 0.12100 -0.12300
C 	C 	0.76870 0.79240 0.16850 -0.12300
C 	C 	0.77970 0.78650 0.10590 0.06200
C 	C 	0.75970 0.76530 0.15110 0.05900
C 	C 	0.87730 0.96470 0.25960 0.08100
C 	C 	0.90480 0.98080 0.27560 0.04800
C 	C 	0.90570 0.98390 0.30840 -0.13900
C 	C 	0.92930 0.99370 0.25770 -0.13800
C 	C 	0.95390 0.00880 0.27430 0.08000
C 	C 	0.93360 0.99670 0.32190 0.07900
C 	C 	0.74720 0.95240 0.03620 0.10100
C 	C 	0.76590 0.95100 0.06640 0.03300
C 	C 	0.78950 0.92870 0.07270 -0.12300
C 	C 	0.75980 0.97500 0.08950 -0.11300
C 	C 	0.77690 0.97280 0.11870 0.04700
C 	C 	0.80400 0.92770 0.10230 0.06300
C 	C 	0.78730 0.99680 0.38580 0.06900
C 	C 	0.78350 0.97660 0.35740 0.07800
C 	C 	0.79440 0.94570 0.35760 -0.16600
C 	C 	0.77460 0.98740 0.33020 -0.16500
C 	C 	0.79090 0.92700 0.33030 0.10400
C 	C 	0.77190 0.96470 0.30330 0.10500
C 	C 	0.09380 0.02440 0.38530 0.09000
C 	C 	0.11170 0.01490 0.41360 0.03900
C 	C 	0.09700 0.00250 0.44040 -0.12200
C 	C 	0.14460 0.01770 0.41600 -0.11700
C 	C 	0.11380 0.99470 0.46750 0.06200
C 	C 	0.16020 0.00970 0.44340 0.06000
C 	C 	0.28640 0.27440 0.47960 0.09100
C 	C 	0.28520 0.30410 0.49820 0.03900
C 	C 	0.26120 0.32700 0.49240 -0.12300
C 	C 	0.30800 0.31120 0.52120 -0.12300
C 	C 	0.26080 0.35510 0.51000 0.06000
C 	C 	0.30550 0.34120 0.53690 0.06100
C 	C 	0.32880 0.20850 0.34740 0.08800
C 	C 	0.34700 0.21780 0.31830 0.04400
C 	C 	0.37900 0.21170 0.31510 -0.12300
C 	C 	0.33150 0.23130 0.29240 -0.12300
C 	C 	0.39410 0.22030 0.28650 0.06200
C 	C 	0.34890 0.24030 0.26530 0.05900
C 	C 	0.24040 0.12270 0.46470 0.08100
C 	C 	0.22440 0.09520 0.48080 0.04800
C 	C 	0.19160 0.09430 0.48390 -0.13900
C 	C 	0.24230 0.07070 0.49370 -0.13800
C 	C 	0.22570 0.04610 0.50880 0.08000
C 	C 	0.17810 0.06640 0.49670 0.07900
C 	C 	0.46380 0.25280 0.45240 0.10100
C 	C 	0.43360 0.23410 0.45100 0.03300
C 	C 	0.42730 0.21050 0.42870 -0.12300
C 	C 	0.41050 0.24020 0.47500 -0.11300
C 	C 	0.38130 0.22310 0.47280 0.04700
C 	C 	0.39770 0.19600 0.42770 0.06300
C 	C 	0.11420 0.21270 0.49680 0.06900
C 	C 	0.14260 0.21650 0.47660 0.07800
C 	C 	0.14240 0.20560 0.44570 -0.16600
C 	C 	0.16980 0.22540 0.48740 -0.16500
C 	C 	0.16970 0.20910 0.42700 0.10400
C 	C 	0.19670 0.22810 0.46470 0.10500
C 	C 	0.11470 0.90620 0.52440 0.09000
C 	C 	0.08640 0.88830 0.51490 0.03900
C 	C 	0.05960 0.90300 0.50250 -0.12200
C 	C 	0.08400 0.85540 0.51770 -0.11700
C 	C 	0.03250 0.88620 0.49470 0.06200
C 	C 	0.05660 0.83980 0.50970 0.06000
C 	C 	0.71360 0.77440 0.02040 0.09100
C 	C 	0.71480 0.80410 0.00180 0.03900
C 	C 	0.73880 0.82700 0.00760 -0.12300
C 	C 	0.69200 0.81120 0.97880 -0.12300
C 	C 	0.73920 0.85510 0.99000 0.06000
C 	C 	0.69450 0.84120 0.96310 0.06100
C 	C 	0.67120 0.70850 0.15260 0.08800
C 	C 	0.65300 0.71780 0.18170 0.04400
C 	C 	0.62100 0.71170 0.18490 -0.12300
C 	C 	0.66850 0.73130 0.20760 -0.12300
C 	C 	0.60590 0.72030 0.21350 0.06200
C 	C 	0.65110 0.74030 0.23470 0.05900
C 	C 	0.75960 0.62270 0.03530 0.08100
C 	C 	0.77560 0.59520 0.01920 0.04800
C 	C 	0.80840 0.59430 0.01610 -0.13900
C 	C 	0.75770 0.57070 0.00630 -0.13800
C 	C 	0.77430 0.54610 0.99120 0.08000
C 	C 	0.82190 0.56640 0.00330 0.07900
C 	C 	0.53620 0.75280 0.04760 0.10100
C 	C 	0.56640 0.73410 0.04900 0.03300
C 	C 	0.57270 0.71050 0.07130 -0.12300
C 	C 	0.58950 0.74020 0.02500 -0.11300
C 	C 	0.61870 0.72310 0.02720 0.04700
C 	C 	0.60230 0.69600 0.07230 0.06300
C 	C 	0.88580 0.71270 0.00320 0.06900
C 	C 	0.85740 0.71650 0.02340 0.07800
C 	C 	0.85760 0.70560 0.05430 -0.16600
C 	C 	0.83020 0.72540 0.01260 -0.16500
C 	C 	0.83030 0.70910 0.07300 0.10400
C 	C 	0.80330 0.72810 0.03530 0.10500
C 	C 	0.88530 0.40620 0.97560 0.09000
C 	C 	0.91360 0.38830 0.98510 0.03900
C 	C 	0.94040 0.40300 0.99750 -0.12200
C 	C 	0.91600 0.35540 0.98230 -0.11700
C 	C 	0.96750 0.38620 0.00530 0.06200
C 	C 	0.94340 0.33980 0.99030 0.06000
C 	C 	0.78640 0.22560 0.52040 0.09100
C 	C 	0.78520 0.19590 0.50180 0.03900
C 	C 	0.76120 0.17300 0.50760 -0.12300
C 	C 	0.80800 0.18880 0.47880 -0.12300
C 	C 	0.76080 0.14490 0.49000 0.06000
C 	C 	0.80550 0.15880 0.46310 0.06100
C 	C 	0.82880 0.29150 0.65260 0.08800
C 	C 	0.84700 0.28220 0.68170 0.04400
C 	C 	0.87900 0.28830 0.68490 -0.12300
C 	C 	0.83150 0.26870 0.70760 -0.12300
C 	C 	0.89410 0.27970 0.71350 0.06200
C 	C 	0.84890 0.25970 0.73470 0.05900
C 	C 	0.74040 0.37730 0.53530 0.08100
C 	C 	0.72440 0.40480 0.51920 0.04800
C 	C 	0.69160 0.40570 0.51610 -0.13900
C 	C 	0.74230 0.42930 0.50630 -0.13800
C 	C 	0.72570 0.45390 0.49120 0.08000
C 	C 	0.67810 0.43360 0.50330 0.07900
C 	C 	0.96380 0.24720 0.54760 0.10100
C 	C 	0.93360 0.26590 0.54900 0.03300
C 	C 	0.92730 0.28950 0.57130 -0.12300
C 	C 	0.91050 0.25980 0.52500 -0.11300
C 	C 	0.88130 0.27690 0.52720 0.04700
C 	C 	0.89770 0.30400 0.57230 0.06300
C 	C 	0.61420 0.28730 0.50320 0.06900
C 	C 	0.64260 0.28350 0.52340 0.07800
C 	C 	0.64240 0.29440 0.55430 -0.16600
C 	C 	0.66980 0.27460 0.51260 -0.16500
C 	C 	0.66970 0.29090 0.57300 0.10400
C 	C 	0.69670 0.27190 0.53530 0.10500
C 	C 	0.61470 0.59380 0.47560 0.09000
C 	C 	0.58640 0.61170 0.48510 0.03900
C 	C 	0.55960 0.59700 0.49750 -0.12200
C 	C 	0.58400 0.64460 0.48230 -0.11700
C 	C 	0.53250 0.61380 0.50530 0.06200
C 	C 	0.55660 0.66020 0.49030 0.06000
C 	C 	0.21360 0.72560 0.97960 0.09100
C 	C 	0.21480 0.69590 0.99820 0.03900
C 	C 	0.23880 0.67300 0.99240 -0.12300
C 	C 	0.19200 0.68880 0.02120 -0.12300
C 	C 	0.23920 0.64490 0.01000 0.06000
C 	C 	0.19450 0.65880 0.03690 0.06100
C 	C 	0.17120 0.79150 0.84740 0.08800
C 	C 	0.15300 0.78220 0.81830 0.04400
C 	C 	0.12100 0.78830 0.81510 -0.12300
C 	C 	0.16850 0.76870 0.79240 -0.12300
C 	C 	0.10590 0.77970 0.78650 0.06200
C 	C 	0.15110 0.75970 0.76530 0.05900
C 	C 	0.25960 0.87730 0.96470 0.08100
C 	C 	0.27560 0.90480 0.98080 0.04800
C 	C 	0.30840 0.90570 0.98390 -0.13900
C 	C 	0.25770 0.92930 0.99370 -0.13800
C 	C 	0.27430 0.95390 0.00880 0.08000
C 	C 	0.32190 0.93360 0.99670 0.07900
C 	C 	0.03620 0.74720 0.95240 0.10100
C 	C 	0.06640 0.76590 0.95100 0.03300
C 	C 	0.07270 0.78950 0.92870 -0.12300
C 	C 	0.08950 0.75980 0.97500 -0.11300
C 	C 	0.11870 0.77690 0.97280 0.04700
C 	C 	0.10230 0.80400 0.92770 0.06300
C 	C 	0.38580 0.78730 0.99680 0.06900
C 	C 	0.35740 0.78350 0.97660 0.07800
C 	C 	0.35760 0.79440 0.94570 -0.16600
C 	C 	0.33020 0.77460 0.98740 -0.16500
C 	C 	0.33030 0.79090 0.92700 0.10400
C 	C 	0.30330 0.77190 0.96470 0.10500
C 	C 	0.38530 0.09380 0.02440 0.09000
C 	C 	0.41360 0.11170 0.01490 0.03900
C 	C 	0.44040 0.09700 0.00250 -0.12200
C 	C 	0.41600 0.14460 0.01770 -0.11700
C 	C 	0.46750 0.11380 0.99470 0.06200
C 	C 	0.44340 0.16020 0.00970 0.06000
C 	C 	0.52040 0.71360 0.72560 0.09100
C 	C 	0.50180 0.71480 0.69590 0.03900
C 	C 	0.50760 0.73880 0.67300 -0.12300
C 	C 	0.47880 0.69200 0.68880 -0.12300
C 	C 	0.49000 0.73920 0.64490 0.06000
C 	C 	0.46310 0.69450 0.65880 0.06100
C 	C 	0.65260 0.67120 0.79150 0.08800
C 	C 	0.68170 0.65300 0.78220 0.04400
C 	C 	0.68490 0.62100 0.78830 -0.12300
C 	C 	0.70760 0.66850 0.76870 -0.12300
C 	C 	0.71350 0.60590 0.77970 0.06200
C 	C 	0.73470 0.65110 0.75970 0.05900
C 	C 	0.53530 0.75960 0.87730 0.08100
C 	C 	0.51920 0.77560 0.90480 0.04800
C 	C 	0.51610 0.80840 0.90570 -0.13900
C 	C 	0.50630 0.75770 0.92930 -0.13800
C 	C 	0.49120 0.77430 0.95390 0.08000
C 	C 	0.50330 0.82190 0.93360 0.07900
C 	C 	0.54760 0.53620 0.74720 0.10100
C 	C 	0.54900 0.56640 0.76590 0.03300
C 	C 	0.57130 0.57270 0.78950 -0.12300
C 	C 	0.52500 0.58950 0.75980 -0.11300
C 	C 	0.52720 0.61870 0.77690 0.04700
C 	C 	0.57230 0.60230 0.80400 0.06300
C 	C 	0.50320 0.88580 0.78730 0.06900
C 	C 	0.52340 0.85740 0.78350 0.07800
C 	C 	0.55430 0.85760 0.79440 -0.16600
C 	C 	0.51260 0.83020 0.77460 -0.16500
C 	C 	0.57300 0.83030 0.79090 0.10400
C 	C 	0.53530 0.80330 0.77190 0.10500
C 	C 	0.47560 0.88530 0.09380 0.09000
C 	C 	0.48510 0.91360 0.11170 0.03900
C 	C 	0.49750 0.94040 0.09700 -0.12200
C 	C 	0.48230 0.91600 0.14460 -0.11700
C 	C 	0.50530 0.96750 0.11380 0.06200
C 	C 	0.49030 0.94340 0.16020 0.06000
C 	C 	0.97960 0.28640 0.22560 0.09100
C 	C 	0.99820 0.28520 0.19590 0.03900
C 	C 	0.99240 0.26120 0.17300 -0.12300
C 	C 	0.02120 0.30800 0.18880 -0.12300
C 	C 	0.01000 0.26080 0.14490 0.06000
C 	C 	0.03690 0.30550 0.15880 0.06100
C 	C 	0.84740 0.32880 0.29150 0.08800
C 	C 	0.81830 0.34700 0.28220 0.04400
C 	C 	0.81510 0.37900 0.28830 -0.12300
C 	C 	0.79240 0.33150 0.26870 -0.12300
C 	C 	0.78650 0.39410 0.27970 0.06200
C 	C 	0.76530 0.34890 0.25970 0.05900
C 	C 	0.96470 0.24040 0.37730 0.08100
C 	C 	0.98080 0.22440 0.40480 0.04800
C 	C 	0.98390 0.19160 0.40570 -0.13900
C 	C 	0.99370 0.24230 0.42930 -0.13800
C 	C 	0.00880 0.22570 0.45390 0.08000
C 	C 	0.99670 0.17810 0.43360 0.07900
C 	C 	0.95240 0.46380 0.24720 0.10100
C 	C 	0.95100 0.43360 0.26590 0.03300
C 	C 	0.92870 0.42730 0.28950 -0.12300
C 	C 	0.97500 0.41050 0.25980 -0.11300
C 	C 	0.97280 0.38130 0.27690 0.04700
C 	C 	0.92770 0.39770 0.30400 0.06300
C 	C 	0.99680 0.11420 0.28730 0.06900
C 	C 	0.97660 0.14260 0.28350 0.07800
C 	C 	0.94570 0.14240 0.29440 -0.16600
C 	C 	0.98740 0.16980 0.27460 -0.16500
C 	C 	0.92700 0.16970 0.29090 0.10400
C 	C 	0.96470 0.19670 0.27190 0.10500
C 	C 	0.02440 0.11470 0.59380 0.09000
C 	C 	0.01490 0.08640 0.61170 0.03900
C 	C 	0.00250 0.05960 0.59700 -0.12200
C 	C 	0.01770 0.08400 0.64460 -0.11700
C 	C 	0.99470 0.03250 0.61380 0.06200
C 	C 	0.00970 0.05660 0.66020 0.06000
C 	C 	0.47960 0.21360 0.77440 0.09100
C 	C 	0.49820 0.21480 0.80410 0.03900
C 	C 	0.49240 0.23880 0.82700 -0.12300
C 	C 	0.52120 0.19200 0.81120 -0.12300
C 	C 	0.51000 0.23920 0.85510 0.06000
C 	C 	0.53690 0.19450 0.84120 0.06100
C 	C 	0.34740 0.17120 0.70850 0.08800
C 	C 	0.31830 0.15300 0.71780 0.04400
C 	C 	0.31510 0.12100 0.71170 -0.12300
C 	C 	0.29240 0.16850 0.73130 -0.12300
C 	C 	0.28650 0.10590 0.72030 0.06200
C 	C 	0.26530 0.15110 0.74030 0.05900
C 	C 	0.46470 0.25960 0.62270 0.08100
C 	C 	0.48080 0.27560 0.59520 0.04800
C 	C 	0.48390 0.30840 0.59430 -0.13900
C 	C 	0.49370 0.25770 0.57070 -0.13800
C 	C 	0.50880 0.27430 0.54610 0.08000
C 	C 	0.49670 0.32190 0.56640 0.07900
C 	C 	0.45240 0.03620 0.75280 0.10100
C 	C 	0.45100 0.06640 0.73410 0.03300
C 	C 	0.42870 0.07270 0.71050 -0.12300
C 	C 	0.47500 0.08950 0.74020 -0.11300
C 	C 	0.47280 0.11870 0.72310 0.04700
C 	C 	0.42770 0.10230 0.69600 0.06300
C 	C 	0.49680 0.38580 0.71270 0.06900
C 	C 	0.47660 0.35740 0.71650 0.07800
C 	C 	0.44570 0.35760 0.70560 -0.16600
C 	C 	0.48740 0.33020 0.72540 -0.16500
C 	C 	0.42700 0.33030 0.70910 0.10400
C 	C 	0.46470 0.30330 0.72810 0.10500
C 	C 	0.52440 0.38530 0.40620 0.09000
C 	C 	0.51490 0.41360 0.38830 0.03900
C 	C 	0.50250 0.44040 0.40300 -0.12200
C 	C 	0.51770 0.41600 0.35540 -0.11700
C 	C 	0.49470 0.46750 0.38620 0.06200
C 	C 	0.50970 0.44340 0.33980 0.06000
C 	C 	0.02040 0.78640 0.27440 0.09100
C 	C 	0.00180 0.78520 0.30410 0.03900
C 	C 	0.00760 0.76120 0.32700 -0.12300
C 	C 	0.97880 0.80800 0.31120 -0.12300
C 	C 	0.99000 0.76080 0.35510 0.06000
C 	C 	0.96310 0.80550 0.34120 0.06100
C 	C 	0.15260 0.82880 0.20850 0.08800
C 	C 	0.18170 0.84700 0.21780 0.04400
C 	C 	0.18490 0.87900 0.21170 -0.12300
C 	C 	0.20760 0.83150 0.23130 -0.12300
C 	C 	0.21350 0.89410 0.22030 0.06200
C 	C 	0.23470 0.84890 0.24030 0.05900
C 	C 	0.03530 0.74040 0.12270 0.08100
C 	C 	0.01920 0.72440 0.09520 0.04800
C 	C 	0.01610 0.69160 0.09430 -0.13900
C 	C 	0.00630 0.74230 0.07070 -0.13800
C 	C 	0.99120 0.72570 0.04610 0.08000
C 	C 	0.00330 0.67810 0.06640 0.07900
C 	C 	0.04760 0.96380 0.25280 0.10100
C 	C 	0.04900 0.93360 0.23410 0.03300
C 	C 	0.07130 0.92730 0.21050 -0.12300
C 	C 	0.02500 0.91050 0.24020 -0.11300
C 	C 	0.02720 0.88130 0.22310 0.04700
C 	C 	0.07230 0.89770 0.19600 0.06300
C 	C 	0.00320 0.61420 0.21270 0.06900
C 	C 	0.02340 0.64260 0.21650 0.07800
C 	C 	0.05430 0.64240 0.20560 -0.16600
C 	C 	0.01260 0.66980 0.22540 -0.16500
C 	C 	0.07300 0.66970 0.20910 0.10400
C 	C 	0.03530 0.69670 0.22810 0.10500
C 	C 	0.97560 0.61470 0.90620 0.09000
C 	C 	0.98510 0.58640 0.88830 0.03900
C 	C 	0.99750 0.55960 0.90300 -0.12200
C 	C 	0.98230 0.58400 0.85540 -0.11700
C 	C 	0.00530 0.53250 0.88620 0.06200
C 	C 	0.99030 0.55660 0.83980 0.06000
C 	C 	0.72560 0.52040 0.71360 0.09100
C 	C 	0.69590 0.50180 0.71480 0.03900
C 	C 	0.67300 0.50760 0.73880 -0.12300
C 	C 	0.68880 0.47880 0.69200 -0.12300
C 	C 	0.64490 0.49000 0.73920 0.06000
C 	C 	0.65880 0.46310 0.69450 0.06100
C 	C 	0.79150 0.65260 0.67120 0.08800
C 	C 	0.78220 0.68170 0.65300 0.04400
C 	C 	0.78830 0.68490 0.62100 -0.12300
C 	C 	0.76870 0.70760 0.66850 -0.12300
C 	C 	0.77970 0.71350 0.60590 0.06200
C 	C 	0.75970 0.73470 0.65110 0.05900
C 	C 	0.87730 0.53530 0.75960 0.08100
C 	C 	0.90480 0.51920 0.77560 0.04800
C 	C 	0.90570 0.51610 0.80840 -0.13900
C 	C 	0.92930 0.50630 0.75770 -0.13800
C 	C 	0.95390 0.49120 0.77430 0.08000
C 	C 	0.93360 0.50330 0.82190 0.07900
C 	C 	0.74720 0.54760 0.53620 0.10100
C 	C 	0.76590 0.54900 0.56640 0.03300
C 	C 	0.78950 0.57130 0.57270 -0.12300
C 	C 	0.75980 0.52500 0.58950 -0.11300
C 	C 	0.77690 0.52720 0.61870 0.04700
C 	C 	0.80400 0.57230 0.60230 0.06300
C 	C 	0.78730 0.50320 0.88580 0.06900
C 	C 	0.78350 0.52340 0.85740 0.07800
C 	C 	0.79440 0.55430 0.85760 -0.16600
C 	C 	0.77460 0.51260 0.83020 -0.16500
C 	C 	0.79090 0.57300 0.83030 0.10400
C 	C 	0.77190 0.53530 0.80330 0.10500
C 	C 	0.09380 0.47560 0.88530 0.09000
C 	C 	0.11170 0.48510 0.91360 0.03900
C 	C 	0.09700 0.49750 0.94040 -0.12200
C 	C 	0.14460 0.48230 0.91600 -0.11700
C 	C 	0.11380 0.50530 0.96750 0.06200
C 	C 	0.16020 0.49030 0.94340 0.06000
C 	C 	0.22560 0.97960 0.28640 0.09100
C 	C 	0.19590 0.99820 0.28520 0.03900
C 	C 	0.17300 0.99240 0.26120 -0.12300
C 	C 	0.18880 0.02120 0.30800 -0.12300
C 	C 	0.14490 0.01000 0.26080 0.06000
C 	C 	0.15880 0.03690 0.30550 0.06100
C 	C 	0.29150 0.84740 0.32880 0.08800
C 	C 	0.28220 0.81830 0.34700 0.04400
C 	C 	0.28830 0.81510 0.37900 -0.12300
C 	C 	0.26870 0.79240 0.33150 -0.12300
C 	C 	0.27970 0.78650 0.39410 0.06200
C 	C 	0.25970 0.76530 0.34890 0.05900
C 	C 	0.37730 0.96470 0.24040 0.08100
C 	C 	0.40480 0.98080 0.22440 0.04800
C 	C 	0.40570 0.98390 0.19160 -0.13900
C 	C 	0.42930 0.99370 0.24230 -0.13800
C 	C 	0.45390 0.00880 0.22570 0.08000
C 	C 	0.43360 0.99670 0.17810 0.07900
C 	C 	0.24720 0.95240 0.46380 0.10100
C 	C 	0.26590 0.95100 0.43360 0.03300
C 	C 	0.28950 0.92870 0.42730 -0.12300
C 	C 	0.25980 0.97500 0.41050 -0.11300
C 	C 	0.27690 0.97280 0.38130 0.04700
C 	C 	0.30400 0.92770 0.39770 0.06300
C 	C 	0.28730 0.99680 0.11420 0.06900
C 	C 	0.28350 0.97660 0.14260 0.07800
C 	C 	0.29440 0.94570 0.14240 -0.16600
C 	C 	0.27460 0.98740 0.16980 -0.16500
C 	C 	0.29090 0.92700 0.16970 0.10400
C 	C 	0.27190 0.96470 0.19670 0.10500
C 	C 	0.59380 0.02440 0.11470 0.09000
C 	C 	0.61170 0.01490 0.08640 0.03900
C 	C 	0.59700 0.00250 0.05960 -0.12200
C 	C 	0.64460 0.01770 0.08400 -0.11700
C 	C 	0.61380 0.99470 0.03250 0.06200
C 	C 	0.66020 0.00970 0.05660 0.06000
C 	C 	0.77440 0.47960 0.21360 0.09100
C 	C 	0.80410 0.49820 0.21480 0.03900
C 	C 	0.82700 0.49240 0.23880 -0.12300
C 	C 	0.81120 0.52120 0.19200 -0.12300
C 	C 	0.85510 0.51000 0.23920 0.06000
C 	C 	0.84120 0.53690 0.19450 0.06100
C 	C 	0.70850 0.34740 0.17120 0.08800
C 	C 	0.71780 0.31830 0.15300 0.04400
C 	C 	0.71170 0.31510 0.12100 -0.12300
C 	C 	0.73130 0.29240 0.16850 -0.12300
C 	C 	0.72030 0.28650 0.10590 0.06200
C 	C 	0.74030 0.26530 0.15110 0.05900
C 	C 	0.62270 0.46470 0.25960 0.08100
C 	C 	0.59520 0.48080 0.27560 0.04800
C 	C 	0.59430 0.48390 0.30840 -0.13900
C 	C 	0.57070 0.49370 0.25770 -0.13800
C 	C 	0.54610 0.50880 0.27430 0.08000
C 	C 	0.56640 0.49670 0.32190 0.07900
C 	C 	0.75280 0.45240 0.03620 0.10100
C 	C 	0.73410 0.45100 0.06640 0.03300
C 	C 	0.71050 0.42870 0.07270 -0.12300
C 	C 	0.74020 0.47500 0.08950 -0.11300
C 	C 	0.72310 0.47280 0.11870 0.04700
C 	C 	0.69600 0.42770 0.10230 0.06300
C 	C 	0.71270 0.49680 0.38580 0.06900
C 	C 	0.71650 0.47660 0.35740 0.07800
C 	C 	0.70560 0.44570 0.35760 -0.16600
C 	C 	0.72540 0.48740 0.33020 -0.16500
C 	C 	0.70910 0.42700 0.33030 0.10400
C 	C 	0.72810 0.46470 0.30330 0.10500
C 	C 	0.40620 0.52440 0.38530 0.09000
C 	C 	0.38830 0.51490 0.41360 0.03900
C 	C 	0.40300 0.50250 0.44040 -0.12200
C 	C 	0.35540 0.51770 0.41600 -0.11700
C 	C 	0.38620 0.49470 0.46750 0.06200
C 	C 	0.33980 0.50970 0.44340 0.06000
C 	C 	0.27440 0.02040 0.78640 0.09100
C 	C 	0.30410 0.00180 0.78520 0.03900
C 	C 	0.32700 0.00760 0.76120 -0.12300
C 	C 	0.31120 0.97880 0.80800 -0.12300
C 	C 	0.35510 0.99000 0.76080 0.06000
C 	C 	0.34120 0.96310 0.80550 0.06100
C 	C 	0.20850 0.15260 0.82880 0.08800
C 	C 	0.21780 0.18170 0.84700 0.04400
C 	C 	0.21170 0.18490 0.87900 -0.12300
C 	C 	0.23130 0.20760 0.83150 -0.12300
C 	C 	0.22030 0.21350 0.89410 0.06200
C 	C 	0.24030 0.23470 0.84890 0.05900
C 	C 	0.12270 0.03530 0.74040 0.08100
C 	C 	0.09520 0.01920 0.72440 0.04800
C 	C 	0.09430 0.01610 0.69160 -0.13900
C 	C 	0.07070 0.00630 0.74230 -0.13800
C 	C 	0.04610 0.99120 0.72570 0.08000
C 	C 	0.06640 0.00330 0.67810 0.07900
C 	C 	0.25280 0.04760 0.96380 0.10100
C 	C 	0.23410 0.04900 0.93360 0.03300
C 	C 	0.21050 0.07130 0.92730 -0.12300
C 	C 	0.24020 0.02500 0.91050 -0.11300
C 	C 	0.22310 0.02720 0.88130 0.04700
C 	C 	0.19600 0.07230 0.89770 0.06300
C 	C 	0.21270 0.00320 0.61420 0.06900
C 	C 	0.21650 0.02340 0.64260 0.07800
C 	C 	0.20560 0.05430 0.64240 -0.16600
C 	C 	0.22540 0.01260 0.66980 -0.16500
C 	C 	0.20910 0.07300 0.66970 0.10400
C 	C 	0.22810 0.03530 0.69670 0.10500
C 	C 	0.90620 0.97560 0.61470 0.09000
C 	C 	0.88830 0.98510 0.58640 0.03900
C 	C 	0.90300 0.99750 0.55960 -0.12200
C 	C 	0.85540 0.98230 0.58400 -0.11700
C 	C 	0.88620 0.00530 0.53250 0.06200
C 	C 	0.83980 0.99030 0.55660 0.06000
C 	C 	0.71360 0.72560 0.52040 0.09100
C 	C 	0.71480 0.69590 0.50180 0.03900
C 	C 	0.73880 0.67300 0.50760 -0.12300
C 	C 	0.69200 0.68880 0.47880 -0.12300
C 	C 	0.73920 0.64490 0.49000 0.06000
C 	C 	0.69450 0.65880 0.46310 0.06100
C 	C 	0.67120 0.79150 0.65260 0.08800
C 	C 	0.65300 0.78220 0.68170 0.04400
C 	C 	0.62100 0.78830 0.68490 -0.12300
C 	C 	0.66850 0.76870 0.70760 -0.12300
C 	C 	0.60590 0.77970 0.71350 0.06200
C 	C 	0.65110 0.75970 0.73470 0.05900
C 	C 	0.75960 0.87730 0.53530 0.08100
C 	C 	0.77560 0.90480 0.51920 0.04800
C 	C 	0.80840 0.90570 0.51610 -0.13900
C 	C 	0.75770 0.92930 0.50630 -0.13800
C 	C 	0.77430 0.95390 0.49120 0.08000
C 	C 	0.82190 0.93360 0.50330 0.07900
C 	C 	0.53620 0.74720 0.54760 0.10100
C 	C 	0.56640 0.76590 0.54900 0.03300
C 	C 	0.57270 0.78950 0.57130 -0.12300
C 	C 	0.58950 0.75980 0.52500 -0.11300
C 	C 	0.61870 0.77690 0.52720 0.04700
C 	C 	0.60230 0.80400 0.57230 0.06300
C 	C 	0.88580 0.78730 0.50320 0.06900
C 	C 	0.85740 0.78350 0.52340 0.07800
C 	C 	0.85760 0.79440 0.55430 -0.16600
C 	C 	0.83020 0.77460 0.51260 -0.16500
C 	C 	0.83030 0.79090 0.57300 0.10400
C 	C 	0.80330 0.77190 0.53530 0.10500
C 	C 	0.88530 0.09380 0.47560 0.09000
C 	C 	0.91360 0.11170 0.48510 0.03900
C 	C 	0.94040 0.09700 0.49750 -0.12200
C 	C 	0.91600 0.14460 0.48230 -0.11700
C 	C 	0.96750 0.11380 0.50530 0.06200
C 	C 	0.94340 0.16020 0.49030 0.06000
C 	C 	0.28640 0.22560 0.97960 0.09100
C 	C 	0.28520 0.19590 0.99820 0.03900
C 	C 	0.26120 0.17300 0.99240 -0.12300
C 	C 	0.30800 0.18880 0.02120 -0.12300
C 	C 	0.26080 0.14490 0.01000 0.06000
C 	C 	0.30550 0.15880 0.03690 0.06100
C 	C 	0.32880 0.29150 0.84740 0.08800
C 	C 	0.34700 0.28220 0.81830 0.04400
C 	C 	0.37900 0.28830 0.81510 -0.12300
C 	C 	0.33150 0.26870 0.79240 -0.12300
C 	C 	0.39410 0.27970 0.78650 0.06200
C 	C 	0.34890 0.25970 0.76530 0.05900
C 	C 	0.24040 0.37730 0.96470 0.08100
C 	C 	0.22440 0.40480 0.98080 0.04800
C 	C 	0.19160 0.40570 0.98390 -0.13900
C 	C 	0.24230 0.42930 0.99370 -0.13800
C 	C 	0.22570 0.45390 0.00880 0.08000
C 	C 	0.17810 0.43360 0.99670 0.07900
C 	C 	0.46380 0.24720 0.95240 0.10100
C 	C 	0.43360 0.26590 0.95100 0.03300
C 	C 	0.42730 0.28950 0.92870 -0.12300
C 	C 	0.41050 0.25980 0.97500 -0.11300
C 	C 	0.38130 0.27690 0.97280 0.04700
C 	C 	0.39770 0.30400 0.92770 0.06300
C 	C 	0.11420 0.28730 0.99680 0.06900
C 	C 	0.14260 0.28350 0.97660 0.07800
C 	C 	0.14240 0.29440 0.94570 -0.16600
C 	C 	0.16980 0.27460 0.98740 -0.16500
C 	C 	0.16970 0.29090 0.92700 0.10400
C 	C 	0.19670 0.27190 0.96470 0.10500
C 	C 	0.11470 0.59380 0.02440 0.09000
C 	C 	0.08640 0.61170 0.01490 0.03900
C 	C 	0.05960 0.59700 0.00250 -0.12200
C 	C 	0.08400 0.64460 0.01770 -0.11700
C 	C 	0.03250 0.61380 0.99470 0.06200
C 	C 	0.05660 0.66020 0.00970 0.06000
C 	C 	0.21360 0.77440 0.47960 0.09100
C 	C 	0.21480 0.80410 0.49820 0.03900
C 	C 	0.23880 0.82700 0.49240 -0.12300
C 	C 	0.19200 0.81120 0.52120 -0.12300
C 	C 	0.23920 0.85510 0.51000 0.06000
C 	C 	0.19450 0.84120 0.53690 0.06100
C 	C 	0.17120 0.70850 0.34740 0.08800
C 	C 	0.15300 0.71780 0.31830 0.04400
C 	C 	0.12100 0.71170 0.31510 -0.12300
C 	C 	0.16850 0.73130 0.29240 -0.12300
C 	C 	0.10590 0.72030 0.28650 0.06200
C 	C 	0.15110 0.74030 0.26530 0.05900
C 	C 	0.25960 0.62270 0.46470 0.08100
C 	C 	0.27560 0.59520 0.48080 0.04800
C 	C 	0.30840 0.59430 0.48390 -0.13900
C 	C 	0.25770 0.57070 0.49370 -0.13800
C 	C 	0.27430 0.54610 0.50880 0.08000
C 	C 	0.32190 0.56640 0.49670 0.07900
C 	C 	0.03620 0.75280 0.45240 0.10100
C 	C 	0.06640 0.73410 0.45100 0.03300
C 	C 	0.07270 0.71050 0.42870 -0.12300
C 	C 	0.08950 0.74020 0.47500 -0.11300
C 	C 	0.11870 0.72310 0.47280 0.04700
C 	C 	0.10230 0.69600 0.42770 0.06300
C 	C 	0.38580 0.71270 0.49680 0.06900
C 	C 	0.35740 0.71650 0.47660 0.07800
C 	C 	0.35760 0.70560 0.44570 -0.16600
C 	C 	0.33020 0.72540 0.48740 -0.16500
C 	C 	0.33030 0.70910 0.42700 0.10400
C 	C 	0.30330 0.72810 0.46470 0.10500
C 	C 	0.38530 0.40620 0.52440 0.09000
C 	C 	0.41360 0.38830 0.51490 0.03900
C 	C 	0.44040 0.40300 0.50250 -0.12200
C 	C 	0.41600 0.35540 0.51770 -0.11700
C 	C 	0.46750 0.38620 0.49470 0.06200
C 	C 	0.44340 0.33980 0.50970 0.06000
C 	C 	0.78640 0.27440 0.02040 0.09100
C 	C 	0.78520 0.30410 0.00180 0.03900
C 	C 	0.76120 0.32700 0.00760 -0.12300
C 	C 	0.80800 0.31120 0.97880 -0.12300
C 	C 	0.76080 0.35510 0.99000 0.06000
C 	C 	0.80550 0.34120 0.96310 0.06100
C 	C 	0.82880 0.20850 0.15260 0.08800
C 	C 	0.84700 0.21780 0.18170 0.04400
C 	C 	0.87900 0.21170 0.18490 -0.12300
C 	C 	0.83150 0.23130 0.20760 -0.12300
C 	C 	0.89410 0.22030 0.21350 0.06200
C 	C 	0.84890 0.24030 0.23470 0.05900
C 	C 	0.74040 0.12270 0.03530 0.08100
C 	C 	0.72440 0.09520 0.01920 0.04800
C 	C 	0.69160 0.09430 0.01610 -0.13900
C 	C 	0.74230 0.07070 0.00630 -0.13800
C 	C 	0.72570 0.04610 0.99120 0.08000
C 	C 	0.67810 0.06640 0.00330 0.07900
C 	C 	0.96380 0.25280 0.04760 0.10100
C 	C 	0.93360 0.23410 0.04900 0.03300
C 	C 	0.92730 0.21050 0.07130 -0.12300
C 	C 	0.91050 0.24020 0.02500 -0.11300
C 	C 	0.88130 0.22310 0.02720 0.04700
C 	C 	0.89770 0.19600 0.07230 0.06300
C 	C 	0.61420 0.21270 0.00320 0.06900
C 	C 	0.64260 0.21650 0.02340 0.07800
C 	C 	0.64240 0.20560 0.05430 -0.16600
C 	C 	0.66980 0.22540 0.01260 -0.16500
C 	C 	0.66970 0.20910 0.07300 0.10400
C 	C 	0.69670 0.22810 0.03530 0.10500
C 	C 	0.61470 0.90620 0.97560 0.09000
C 	C 	0.58640 0.88830 0.98510 0.03900
C 	C 	0.55960 0.90300 0.99750 -0.12200
C 	C 	0.58400 0.85540 0.98230 -0.11700
C 	C 	0.53250 0.88620 0.00530 0.06200
C 	C 	0.55660 0.83980 0.99030 0.06000
N 	N 	0.46140 0.29960 0.22910 -0.17100
N 	N 	0.48260 0.30880 0.25160 -0.11100
N 	N 	0.44600 0.27310 0.23850 -0.17400
N 	N 	0.45750 0.26420 0.26709 -0.10700
N 	N 	0.53220 0.28260 0.36260 -0.26500
N 	N 	0.39420 0.31870 0.19320 -0.18100
N 	N 	0.37370 0.34350 0.19590 -0.11500
N 	N 	0.38100 0.29140 0.20250 -0.19100
N 	N 	0.35060 0.29720 0.21280 -0.11900
N 	N 	0.26130 0.37990 0.23450 -0.25000
N 	N 	0.43770 0.24900 0.16480 -0.17800
N 	N 	0.44670 0.22600 0.14440 -0.11200
N 	N 	0.45010 0.27760 0.15440 -0.21100
N 	N 	0.46700 0.27230 0.12780 -0.13000
N 	N 	0.50870 0.19460 0.04290 -0.25800
N 	N 	0.46530 0.49890 0.28620 -0.17400
N 	N 	0.43970 0.50940 0.27130 -0.18300
N 	N 	0.43080 0.48780 0.24920 -0.11700
N 	N 	0.47340 0.46970 0.27400 -0.11600
N 	N 	0.44960 0.37540 0.20170 -0.26800
N 	N 	0.53040 0.14710 0.94440 -0.18700
N 	N 	0.54194 0.16090 0.91780 -0.17900
N 	N 	0.52000 0.11760 0.93780 -0.11700
N 	N 	0.53840 0.14050 0.89337 -0.11200
N 	N 	0.49840 0.02950 0.85470 -0.24800
N 	N 	0.51110 0.06750 0.19840 -0.18700
N 	N 	0.53570 0.08170 0.21210 -0.18900
N 	N 	0.48550 0.08730 0.19840 -0.12100
N 	N 	0.52770 0.11160 0.22100 -0.12600
N 	N 	0.43650 0.19700 0.21930 -0.27600
N 	N 	0.03860 0.70040 0.72910 -0.17100
N 	N 	0.01740 0.69120 0.75160 -0.11100
N 	N 	0.05400 0.72690 0.73850 -0.17400
N 	N 	0.04250 0.73580 0.76709 -0.10700
N 	N 	0.96780 0.71740 0.86260 -0.26500
N 	N 	0.10580 0.68130 0.69320 -0.18100
N 	N 	0.12630 0.65650 0.69590 -0.11500
N 	N 	0.11900 0.70860 0.70250 -0.19100
N 	N 	0.14940 0.70280 0.71280 -0.11900
N 	N 	0.23870 0.62010 0.73450 -0.25000
N 	N 	0.06230 0.75100 0.66480 -0.17800
N 	N 	0.05330 0.77400 0.64440 -0.11200
N 	N 	0.04990 0.72240 0.65440 -0.21100
N 	N 	0.03300 0.72770 0.62780 -0.13000
N 	N 	0.99130 0.80540 0.54290 -0.25800
N 	N 	0.03470 0.50110 0.78620 -0.17400
N 	N 	0.06030 0.49060 0.77130 -0.18300
N 	N 	0.06920 0.51220 0.74920 -0.11700
N 	N 	0.02660 0.53030 0.77400 -0.11600
N 	N 	0.05040 0.62460 0.70170 -0.26800
N 	N 	0.96960 0.85290 0.44440 -0.18700
N 	N 	0.95806 0.83910 0.41780 -0.17900
N 	N 	0.98000 0.88240 0.43780 -0.11700
N 	N 	0.96160 0.85950 0.39337 -0.11200
N 	N 	0.00160 0.97050 0.35470 -0.24800
N 	N 	0.98890 0.93250 0.69840 -0.18700
N 	N 	0.96430 0.91830 0.71210 -0.18900
N 	N 	0.01450 0.91270 0.69840 -0.12100
N 	N 	0.97230 0.88840 0.72100 -0.12600
N 	N 	0.06350 0.80300 0.71930 -0.27600
N 	N 	0.53860 0.79960 0.27090 -0.17100
N 	N 	0.51740 0.80880 0.24840 -0.11100
N 	N 	0.55400 0.77310 0.26150 -0.17400
N 	N 	0.54250 0.76420 0.23291 -0.10700
N 	N 	0.46780 0.78260 0.13740 -0.26500
N 	N 	0.60580 0.81870 0.30680 -0.18100
N 	N 	0.62630 0.84350 0.30410 -0.11500
N 	N 	0.61900 0.79140 0.29750 -0.19100
N 	N 	0.64940 0.79720 0.28720 -0.11900
N 	N 	0.73870 0.87990 0.26550 -0.25000
N 	N 	0.56230 0.74900 0.33520 -0.17800
N 	N 	0.55330 0.72600 0.35560 -0.11200
N 	N 	0.54990 0.77760 0.34560 -0.21100
N 	N 	0.53300 0.77230 0.37220 -0.13000
N 	N 	0.49130 0.69460 0.45710 -0.25800
N 	N 	0.53470 0.99890 0.21380 -0.17400
N 	N 	0.56030 0.00940 0.22870 -0.18300
N 	N 	0.56920 0.98780 0.25080 -0.11700
N 	N 	0.52660 0.96970 0.22600 -0.11600
N 	N 	0.55040 0.87540 0.29830 -0.26800
N 	N 	0.46960 0.64710 0.55560 -0.18700
N 	N 	0.45806 0.66090 0.58220 -0.17900
N 	N 	0.48000 0.61760 0.56220 -0.11700
N 	N 	0.46160 0.64050 0.60663 -0.11200
N 	N 	0.50160 0.52950 0.64530 -0.24800
N 	N 	0.48890 0.56750 0.30160 -0.18700
N 	N 	0.46430 0.58170 0.28790 -0.18900
N 	N 	0.51450 0.58730 0.30160 -0.12100
N 	N 	0.47230 0.61160 0.27900 -0.12600
N 	N 	0.56350 0.69700 0.28070 -0.27600
N 	N 	0.96140 0.20040 0.77090 -0.17100
N 	N 	0.98260 0.19120 0.74840 -0.11100
N 	N 	0.94600 0.22690 0.76150 -0.17400
N 	N 	0.95750 0.23580 0.73291 -0.10700
N 	N 	0.03220 0.21740 0.63740 -0.26500
N 	N 	0.89420 0.18130 0.80680 -0.18100
N 	N 	0.87370 0.15650 0.80410 -0.11500
N 	N 	0.88100 0.20860 0.79750 -0.19100
N 	N 	0.85060 0.20280 0.78720 -0.11900
N 	N 	0.76130 0.12010 0.76550 -0.25000
N 	N 	0.93770 0.25100 0.83520 -0.17800
N 	N 	0.94670 0.27400 0.85560 -0.11200
N 	N 	0.95010 0.22240 0.84560 -0.21100
N 	N 	0.96700 0.22770 0.87220 -0.13000
N 	N 	0.00870 0.30540 0.95710 -0.25800
N 	N 	0.96530 0.00110 0.71380 -0.17400
N 	N 	0.93970 0.99060 0.72870 -0.18300
N 	N 	0.93080 0.01220 0.75080 -0.11700
N 	N 	0.97340 0.03030 0.72600 -0.11600
N 	N 	0.94960 0.12460 0.79830 -0.26800
N 	N 	0.03040 0.35290 0.05560 -0.18700
N 	N 	0.04194 0.33910 0.08220 -0.17900
N 	N 	0.02000 0.38240 0.06220 -0.11700
N 	N 	0.03840 0.35950 0.10663 -0.11200
N 	N 	0.99840 0.47050 0.14530 -0.24800
N 	N 	0.01110 0.43250 0.80160 -0.18700
N 	N 	0.03570 0.41830 0.78790 -0.18900
N 	N 	0.98550 0.41270 0.80160 -0.12100
N 	N 	0.02770 0.38840 0.77900 -0.12600
N 	N 	0.93650 0.30300 0.78070 -0.27600
N 	N 	0.22910 0.46140 0.29960 -0.17100
N 	N 	0.25160 0.48260 0.30880 -0.11100
N 	N 	0.23850 0.44600 0.27310 -0.17400
N 	N 	0.26709 0.45750 0.26420 -0.10700
N 	N 	0.36260 0.53220 0.28260 -0.26500
N 	N 	0.19320 0.39420 0.31870 -0.18100
N 	N 	0.19590 0.37370 0.34350 -0.11500
N 	N 	0.20250 0.38100 0.29140 -0.19100
N 	N 	0.21280 0.35060 0.29720 -0.11900
N 	N 	0.23450 0.26130 0.37990 -0.25000
N 	N 	0.16480 0.43770 0.24900 -0.17800
N 	N 	0.14440 0.44670 0.22600 -0.11200
N 	N 	0.15440 0.45010 0.27760 -0.21100
N 	N 	0.12780 0.46700 0.27230 -0.13000
N 	N 	0.04290 0.50870 0.19460 -0.25800
N 	N 	0.28620 0.46530 0.49890 -0.17400
N 	N 	0.27130 0.43970 0.50940 -0.18300
N 	N 	0.24920 0.43080 0.48780 -0.11700
N 	N 	0.27400 0.47340 0.46970 -0.11600
N 	N 	0.20170 0.44960 0.37540 -0.26800
N 	N 	0.94440 0.53040 0.14710 -0.18700
N 	N 	0.91780 0.54194 0.16090 -0.17900
N 	N 	0.93780 0.52000 0.11760 -0.11700
N 	N 	0.89337 0.53840 0.14050 -0.11200
N 	N 	0.85470 0.49840 0.02950 -0.24800
N 	N 	0.19840 0.51110 0.06750 -0.18700
N 	N 	0.21210 0.53570 0.08170 -0.18900
N 	N 	0.19840 0.48550 0.08730 -0.12100
N 	N 	0.22100 0.52770 0.11160 -0.12600
N 	N 	0.21930 0.43650 0.19700 -0.27600
N 	N 	0.72910 0.03860 0.70040 -0.17100
N 	N 	0.75160 0.01740 0.69120 -0.11100
N 	N 	0.73850 0.05400 0.72690 -0.17400
N 	N 	0.76709 0.04250 0.73580 -0.10700
N 	N 	0.86260 0.96780 0.71740 -0.26500
N 	N 	0.69320 0.10580 0.68130 -0.18100
N 	N 	0.69590 0.12630 0.65650 -0.11500
N 	N 	0.70250 0.11900 0.70860 -0.19100
N 	N 	0.71280 0.14940 0.70280 -0.11900
N 	N 	0.73450 0.23870 0.62010 -0.25000
N 	N 	0.66480 0.06230 0.75100 -0.17800
N 	N 	0.64440 0.05330 0.77400 -0.11200
N 	N 	0.65440 0.04990 0.72240 -0.21100
N 	N 	0.62780 0.03300 0.72770 -0.13000
N 	N 	0.54290 0.99130 0.80540 -0.25800
N 	N 	0.78620 0.03470 0.50110 -0.17400
N 	N 	0.77130 0.06030 0.49060 -0.18300
N 	N 	0.74920 0.06920 0.51220 -0.11700
N 	N 	0.77400 0.02660 0.53030 -0.11600
N 	N 	0.70170 0.05040 0.62460 -0.26800
N 	N 	0.44440 0.96960 0.85290 -0.18700
N 	N 	0.41780 0.95806 0.83910 -0.17900
N 	N 	0.43780 0.98000 0.88240 -0.11700
N 	N 	0.39337 0.96160 0.85950 -0.11200
N 	N 	0.35470 0.00160 0.97050 -0.24800
N 	N 	0.69840 0.98890 0.93250 -0.18700
N 	N 	0.71210 0.96430 0.91830 -0.18900
N 	N 	0.69840 0.01450 0.91270 -0.12100
N 	N 	0.72100 0.97230 0.88840 -0.12600
N 	N 	0.71930 0.06350 0.80300 -0.27600
N 	N 	0.27090 0.53860 0.79960 -0.17100
N 	N 	0.24840 0.51740 0.80880 -0.11100
N 	N 	0.26150 0.55400 0.77310 -0.17400
N 	N 	0.23291 0.54250 0.76420 -0.10700
N 	N 	0.13740 0.46780 0.78260 -0.26500
N 	N 	0.30680 0.60580 0.81870 -0.18100
N 	N 	0.30410 0.62630 0.84350 -0.11500
N 	N 	0.29750 0.61900 0.79140 -0.19100
N 	N 	0.28720 0.64940 0.79720 -0.11900
N 	N 	0.26550 0.73870 0.87990 -0.25000
N 	N 	0.33520 0.56230 0.74900 -0.17800
N 	N 	0.35560 0.55330 0.72600 -0.11200
N 	N 	0.34560 0.54990 0.77760 -0.21100
N 	N 	0.37220 0.53300 0.77230 -0.13000
N 	N 	0.45710 0.49130 0.69460 -0.25800
N 	N 	0.21380 0.53470 0.99890 -0.17400
N 	N 	0.22870 0.56030 0.00940 -0.18300
N 	N 	0.25080 0.56920 0.98780 -0.11700
N 	N 	0.22600 0.52660 0.96970 -0.11600
N 	N 	0.29830 0.55040 0.87540 -0.26800
N 	N 	0.55560 0.46960 0.64710 -0.18700
N 	N 	0.58220 0.45806 0.66090 -0.17900
N 	N 	0.56220 0.48000 0.61760 -0.11700
N 	N 	0.60663 0.46160 0.64050 -0.11200
N 	N 	0.64530 0.50160 0.52950 -0.24800
N 	N 	0.30160 0.48890 0.56750 -0.18700
N 	N 	0.28790 0.46430 0.58170 -0.18900
N 	N 	0.30160 0.51450 0.58730 -0.12100
N 	N 	0.27900 0.47230 0.61160 -0.12600
N 	N 	0.28070 0.56350 0.69700 -0.27600
N 	N 	0.77090 0.96140 0.20040 -0.17100
N 	N 	0.74840 0.98260 0.19120 -0.11100
N 	N 	0.76150 0.94600 0.22690 -0.17400
N 	N 	0.73291 0.95750 0.23580 -0.10700
N 	N 	0.63740 0.03220 0.21740 -0.26500
N 	N 	0.80680 0.89420 0.18130 -0.18100
N 	N 	0.80410 0.87370 0.15650 -0.11500
N 	N 	0.79750 0.88100 0.20860 -0.19100
N 	N 	0.78720 0.85060 0.20280 -0.11900
N 	N 	0.76550 0.76130 0.12010 -0.25000
N 	N 	0.83520 0.93770 0.25100 -0.17800
N 	N 	0.85560 0.94670 0.27400 -0.11200
N 	N 	0.84560 0.95010 0.22240 -0.21100
N 	N 	0.87220 0.96700 0.22770 -0.13000
N 	N 	0.95710 0.00870 0.30540 -0.25800
N 	N 	0.71380 0.96530 0.00110 -0.17400
N 	N 	0.72870 0.93970 0.99060 -0.18300
N 	N 	0.75080 0.93080 0.01220 -0.11700
N 	N 	0.72600 0.97340 0.03030 -0.11600
N 	N 	0.79830 0.94960 0.12460 -0.26800
N 	N 	0.05560 0.03040 0.35290 -0.18700
N 	N 	0.08220 0.04194 0.33910 -0.17900
N 	N 	0.06220 0.02000 0.38240 -0.11700
N 	N 	0.10663 0.03840 0.35950 -0.11200
N 	N 	0.14530 0.99840 0.47050 -0.24800
N 	N 	0.80160 0.01110 0.43250 -0.18700
N 	N 	0.78790 0.03570 0.41830 -0.18900
N 	N 	0.80160 0.98550 0.41270 -0.12100
N 	N 	0.77900 0.02770 0.38840 -0.12600
N 	N 	0.78070 0.93650 0.30300 -0.27600
N 	N 	0.29960 0.22910 0.46140 -0.17100
N 	N 	0.30880 0.25160 0.48260 -0.11100
N 	N 	0.27310 0.23850 0.44600 -0.17400
N 	N 	0.26420 0.26709 0.45750 -0.10700
N 	N 	0.28260 0.36260 0.53220 -0.26500
N 	N 	0.31870 0.19320 0.39420 -0.18100
N 	N 	0.34350 0.19590 0.37370 -0.11500
N 	N 	0.29140 0.20250 0.38100 -0.19100
N 	N 	0.29720 0.21280 0.35060 -0.11900
N 	N 	0.37990 0.23450 0.26130 -0.25000
N 	N 	0.24900 0.16480 0.43770 -0.17800
N 	N 	0.22600 0.14440 0.44670 -0.11200
N 	N 	0.27760 0.15440 0.45010 -0.21100
N 	N 	0.27230 0.12780 0.46700 -0.13000
N 	N 	0.19460 0.04290 0.50870 -0.25800
N 	N 	0.49890 0.28620 0.46530 -0.17400
N 	N 	0.50940 0.27130 0.43970 -0.18300
N 	N 	0.48780 0.24920 0.43080 -0.11700
N 	N 	0.46970 0.27400 0.47340 -0.11600
N 	N 	0.37540 0.20170 0.44960 -0.26800
N 	N 	0.14710 0.94440 0.53040 -0.18700
N 	N 	0.16090 0.91780 0.54194 -0.17900
N 	N 	0.11760 0.93780 0.52000 -0.11700
N 	N 	0.14050 0.89337 0.53840 -0.11200
N 	N 	0.02950 0.85470 0.49840 -0.24800
N 	N 	0.06750 0.19840 0.51110 -0.18700
N 	N 	0.08170 0.21210 0.53570 -0.18900
N 	N 	0.08730 0.19840 0.48550 -0.12100
N 	N 	0.11160 0.22100 0.52770 -0.12600
N 	N 	0.19700 0.21930 0.43650 -0.27600
N 	N 	0.70040 0.72910 0.03860 -0.17100
N 	N 	0.69120 0.75160 0.01740 -0.11100
N 	N 	0.72690 0.73850 0.05400 -0.17400
N 	N 	0.73580 0.76709 0.04250 -0.10700
N 	N 	0.71740 0.86260 0.96780 -0.26500
N 	N 	0.68130 0.69320 0.10580 -0.18100
N 	N 	0.65650 0.69590 0.12630 -0.11500
N 	N 	0.70860 0.70250 0.11900 -0.19100
N 	N 	0.70280 0.71280 0.14940 -0.11900
N 	N 	0.62010 0.73450 0.23870 -0.25000
N 	N 	0.75100 0.66480 0.06230 -0.17800
N 	N 	0.77400 0.64440 0.05330 -0.11200
N 	N 	0.72240 0.65440 0.04990 -0.21100
N 	N 	0.72770 0.62780 0.03300 -0.13000
N 	N 	0.80540 0.54290 0.99130 -0.25800
N 	N 	0.50110 0.78620 0.03470 -0.17400
N 	N 	0.49060 0.77130 0.06030 -0.18300
N 	N 	0.51220 0.74920 0.06920 -0.11700
N 	N 	0.53030 0.77400 0.02660 -0.11600
N 	N 	0.62460 0.70170 0.05040 -0.26800
N 	N 	0.85290 0.44440 0.96960 -0.18700
N 	N 	0.83910 0.41780 0.95806 -0.17900
N 	N 	0.88240 0.43780 0.98000 -0.11700
N 	N 	0.85950 0.39337 0.96160 -0.11200
N 	N 	0.97050 0.35470 0.00160 -0.24800
N 	N 	0.93250 0.69840 0.98890 -0.18700
N 	N 	0.91830 0.71210 0.96430 -0.18900
N 	N 	0.91270 0.69840 0.01450 -0.12100
N 	N 	0.88840 0.72100 0.97230 -0.12600
N 	N 	0.80300 0.71930 0.06350 -0.27600
N 	N 	0.79960 0.27090 0.53860 -0.17100
N 	N 	0.80880 0.24840 0.51740 -0.11100
N 	N 	0.77310 0.26150 0.55400 -0.17400
N 	N 	0.76420 0.23291 0.54250 -0.10700
N 	N 	0.78260 0.13740 0.46780 -0.26500
N 	N 	0.81870 0.30680 0.60580 -0.18100
N 	N 	0.84350 0.30410 0.62630 -0.11500
N 	N 	0.79140 0.29750 0.61900 -0.19100
N 	N 	0.79720 0.28720 0.64940 -0.11900
N 	N 	0.87990 0.26550 0.73870 -0.25000
N 	N 	0.74900 0.33520 0.56230 -0.17800
N 	N 	0.72600 0.35560 0.55330 -0.11200
N 	N 	0.77760 0.34560 0.54990 -0.21100
N 	N 	0.77230 0.37220 0.53300 -0.13000
N 	N 	0.69460 0.45710 0.49130 -0.25800
N 	N 	0.99890 0.21380 0.53470 -0.17400
N 	N 	0.00940 0.22870 0.56030 -0.18300
N 	N 	0.98780 0.25080 0.56920 -0.11700
N 	N 	0.96970 0.22600 0.52660 -0.11600
N 	N 	0.87540 0.29830 0.55040 -0.26800
N 	N 	0.64710 0.55560 0.46960 -0.18700
N 	N 	0.66090 0.58220 0.45806 -0.17900
N 	N 	0.61760 0.56220 0.48000 -0.11700
N 	N 	0.64050 0.60663 0.46160 -0.11200
N 	N 	0.52950 0.64530 0.50160 -0.24800
N 	N 	0.56750 0.30160 0.48890 -0.18700
N 	N 	0.58170 0.28790 0.46430 -0.18900
N 	N 	0.58730 0.30160 0.51450 -0.12100
N 	N 	0.61160 0.27900 0.47230 -0.12600
N 	N 	0.69700 0.28070 0.56350 -0.27600
N 	N 	0.20040 0.77090 0.96140 -0.17100
N 	N 	0.19120 0.74840 0.98260 -0.11100
N 	N 	0.22690 0.76150 0.94600 -0.17400
N 	N 	0.23580 0.73291 0.95750 -0.10700
N 	N 	0.21740 0.63740 0.03220 -0.26500
N 	N 	0.18130 0.80680 0.89420 -0.18100
N 	N 	0.15650 0.80410 0.87370 -0.11500
N 	N 	0.20860 0.79750 0.88100 -0.19100
N 	N 	0.20280 0.78720 0.85060 -0.11900
N 	N 	0.12010 0.76550 0.76130 -0.25000
N 	N 	0.25100 0.83520 0.93770 -0.17800
N 	N 	0.27400 0.85560 0.94670 -0.11200
N 	N 	0.22240 0.84560 0.95010 -0.21100
N 	N 	0.22770 0.87220 0.96700 -0.13000
N 	N 	0.30540 0.95710 0.00870 -0.25800
N 	N 	0.00110 0.71380 0.96530 -0.17400
N 	N 	0.99060 0.72870 0.93970 -0.18300
N 	N 	0.01220 0.75080 0.93080 -0.11700
N 	N 	0.03030 0.72600 0.97340 -0.11600
N 	N 	0.12460 0.79830 0.94960 -0.26800
N 	N 	0.35290 0.05560 0.03040 -0.18700
N 	N 	0.33910 0.08220 0.04194 -0.17900
N 	N 	0.38240 0.06220 0.02000 -0.11700
N 	N 	0.35950 0.10663 0.03840 -0.11200
N 	N 	0.47050 0.14530 0.99840 -0.24800
N 	N 	0.43250 0.80160 0.01110 -0.18700
N 	N 	0.41830 0.78790 0.03570 -0.18900
N 	N 	0.41270 0.80160 0.98550 -0.12100
N 	N 	0.38840 0.77900 0.02770 -0.12600
N 	N 	0.30300 0.78070 0.93650 -0.27600
N 	N 	0.53860 0.70040 0.77090 -0.17100
N 	N 	0.51740 0.69120 0.74840 -0.11100
N 	N 	0.55400 0.72690 0.76150 -0.17400
N 	N 	0.54250 0.73580 0.73291 -0.10700
N 	N 	0.46780 0.71740 0.63740 -0.26500
N 	N 	0.60580 0.68130 0.80680 -0.18100
N 	N 	0.62630 0.65650 0.80410 -0.11500
N 	N 	0.61900 0.70860 0.79750 -0.19100
N 	N 	0.64940 0.70280 0.78720 -0.11900
N 	N 	0.73870 0.62010 0.76550 -0.25000
N 	N 	0.56230 0.75100 0.83520 -0.17800
N 	N 	0.55330 0.77400 0.85560 -0.11200
N 	N 	0.54990 0.72240 0.84560 -0.21100
N 	N 	0.53300 0.72770 0.87220 -0.13000
N 	N 	0.49130 0.80540 0.95710 -0.25800
N 	N 	0.53470 0.50110 0.71380 -0.17400
N 	N 	0.56030 0.49060 0.72870 -0.18300
N 	N 	0.56920 0.51220 0.75080 -0.11700
N 	N 	0.52660 0.53030 0.72600 -0.11600
N 	N 	0.55040 0.62460 0.79830 -0.26800
N 	N 	0.46960 0.85290 0.05560 -0.18700
N 	N 	0.45806 0.83910 0.08220 -0.17900
N 	N 	0.48000 0.88240 0.06220 -0.11700
N 	N 	0.46160 0.85950 0.10663 -0.11200
N 	N 	0.50160 0.97050 0.14530 -0.24800
N 	N 	0.48890 0.93250 0.80160 -0.18700
N 	N 	0.46430 0.91830 0.78790 -0.18900
N 	N 	0.51450 0.91270 0.80160 -0.12100
N 	N 	0.47230 0.88840 0.77900 -0.12600
N 	N 	0.56350 0.80300 0.78070 -0.27600
N 	N 	0.96140 0.29960 0.27090 -0.17100
N 	N 	0.98260 0.30880 0.24840 -0.11100
N 	N 	0.94600 0.27310 0.26150 -0.17400
N 	N 	0.95750 0.26420 0.23291 -0.10700
N 	N 	0.03220 0.28260 0.13740 -0.26500
N 	N 	0.89420 0.31870 0.30680 -0.18100
N 	N 	0.87370 0.34350 0.30410 -0.11500
N 	N 	0.88100 0.29140 0.29750 -0.19100
N 	N 	0.85060 0.29720 0.28720 -0.11900
N 	N 	0.76130 0.37990 0.26550 -0.25000
N 	N 	0.93770 0.24900 0.33520 -0.17800
N 	N 	0.94670 0.22600 0.35560 -0.11200
N 	N 	0.95010 0.27760 0.34560 -0.21100
N 	N 	0.96700 0.27230 0.37220 -0.13000
N 	N 	0.00870 0.19460 0.45710 -0.25800
N 	N 	0.96530 0.49890 0.21380 -0.17400
N 	N 	0.93970 0.50940 0.22870 -0.18300
N 	N 	0.93080 0.48780 0.25080 -0.11700
N 	N 	0.97340 0.46970 0.22600 -0.11600
N 	N 	0.94960 0.37540 0.29830 -0.26800
N 	N 	0.03040 0.14710 0.55560 -0.18700
N 	N 	0.04194 0.16090 0.58220 -0.17900
N 	N 	0.02000 0.11760 0.56220 -0.11700
N 	N 	0.03840 0.14050 0.60663 -0.11200
N 	N 	0.99840 0.02950 0.64530 -0.24800
N 	N 	0.01110 0.06750 0.30160 -0.18700
N 	N 	0.03570 0.08170 0.28790 -0.18900
N 	N 	0.98550 0.08730 0.30160 -0.12100
N 	N 	0.02770 0.11160 0.27900 -0.12600
N 	N 	0.93650 0.19700 0.28070 -0.27600
N 	N 	0.46140 0.20040 0.72910 -0.17100
N 	N 	0.48260 0.19120 0.75160 -0.11100
N 	N 	0.44600 0.22690 0.73850 -0.17400
N 	N 	0.45750 0.23580 0.76709 -0.10700
N 	N 	0.53220 0.21740 0.86260 -0.26500
N 	N 	0.39420 0.18130 0.69320 -0.18100
N 	N 	0.37370 0.15650 0.69590 -0.11500
N 	N 	0.38100 0.20860 0.70250 -0.19100
N 	N 	0.35060 0.20280 0.71280 -0.11900
N 	N 	0.26130 0.12010 0.73450 -0.25000
N 	N 	0.43770 0.25100 0.66480 -0.17800
N 	N 	0.44670 0.27400 0.64440 -0.11200
N 	N 	0.45010 0.22240 0.65440 -0.21100
N 	N 	0.46700 0.22770 0.62780 -0.13000
N 	N 	0.50870 0.30540 0.54290 -0.25800
N 	N 	0.46530 0.00110 0.78620 -0.17400
N 	N 	0.43970 0.99060 0.77130 -0.18300
N 	N 	0.43080 0.01220 0.74920 -0.11700
N 	N 	0.47340 0.03030 0.77400 -0.11600
N 	N 	0.44960 0.12460 0.70170 -0.26800
N 	N 	0.53040 0.35290 0.44440 -0.18700
N 	N 	0.54194 0.33910 0.41780 -0.17900
N 	N 	0.52000 0.38240 0.43780 -0.11700
N 	N 	0.53840 0.35950 0.39337 -0.11200
N 	N 	0.49840 0.47050 0.35470 -0.24800
N 	N 	0.51110 0.43250 0.69840 -0.18700
N 	N 	0.53570 0.41830 0.71210 -0.18900
N 	N 	0.48550 0.41270 0.69840 -0.12100
N 	N 	0.52770 0.38840 0.72100 -0.12600
N 	N 	0.43650 0.30300 0.71930 -0.27600
N 	N 	0.03860 0.79960 0.22910 -0.17100
N 	N 	0.01740 0.80880 0.25160 -0.11100
N 	N 	0.05400 0.77310 0.23850 -0.17400
N 	N 	0.04250 0.76420 0.26709 -0.10700
N 	N 	0.96780 0.78260 0.36260 -0.26500
N 	N 	0.10580 0.81870 0.19320 -0.18100
N 	N 	0.12630 0.84350 0.19590 -0.11500
N 	N 	0.11900 0.79140 0.20250 -0.19100
N 	N 	0.14940 0.79720 0.21280 -0.11900
N 	N 	0.23870 0.87990 0.23450 -0.25000
N 	N 	0.06230 0.74900 0.16480 -0.17800
N 	N 	0.05330 0.72600 0.14440 -0.11200
N 	N 	0.04990 0.77760 0.15440 -0.21100
N 	N 	0.03300 0.77230 0.12780 -0.13000
N 	N 	0.99130 0.69460 0.04290 -0.25800
N 	N 	0.03470 0.99890 0.28620 -0.17400
N 	N 	0.06030 0.00940 0.27130 -0.18300
N 	N 	0.06920 0.98780 0.24920 -0.11700
N 	N 	0.02660 0.96970 0.27400 -0.11600
N 	N 	0.05040 0.87540 0.20170 -0.26800
N 	N 	0.96960 0.64710 0.94440 -0.18700
N 	N 	0.95806 0.66090 0.91780 -0.17900
N 	N 	0.98000 0.61760 0.93780 -0.11700
N 	N 	0.96160 0.64050 0.89337 -0.11200
N 	N 	0.00160 0.52950 0.85470 -0.24800
N 	N 	0.98890 0.56750 0.19840 -0.18700
N 	N 	0.96430 0.58170 0.21210 -0.18900
N 	N 	0.01450 0.58730 0.19840 -0.12100
N 	N 	0.97230 0.61160 0.22100 -0.12600
N 	N 	0.06350 0.69700 0.21930 -0.27600
N 	N 	0.77090 0.53860 0.70040 -0.17100
N 	N 	0.74840 0.51740 0.69120 -0.11100
N 	N 	0.76150 0.55400 0.72690 -0.17400
N 	N 	0.73291 0.54250 0.73580 -0.10700
N 	N 	0.63740 0.46780 0.71740 -0.26500
N 	N 	0.80680 0.60580 0.68130 -0.18100
N 	N 	0.80410 0.62630 0.65650 -0.11500
N 	N 	0.79750 0.61900 0.70860 -0.19100
N 	N 	0.78720 0.64940 0.70280 -0.11900
N 	N 	0.76550 0.73870 0.62010 -0.25000
N 	N 	0.83520 0.56230 0.75100 -0.17800
N 	N 	0.85560 0.55330 0.77400 -0.11200
N 	N 	0.84560 0.54990 0.72240 -0.21100
N 	N 	0.87220 0.53300 0.72770 -0.13000
N 	N 	0.95710 0.49130 0.80540 -0.25800
N 	N 	0.71380 0.53470 0.50110 -0.17400
N 	N 	0.72870 0.56030 0.49060 -0.18300
N 	N 	0.75080 0.56920 0.51220 -0.11700
N 	N 	0.72600 0.52660 0.53030 -0.11600
N 	N 	0.79830 0.55040 0.62460 -0.26800
N 	N 	0.05560 0.46960 0.85290 -0.18700
N 	N 	0.08220 0.45806 0.83910 -0.17900
N 	N 	0.06220 0.48000 0.88240 -0.11700
N 	N 	0.10663 0.46160 0.85950 -0.11200
N 	N 	0.14530 0.50160 0.97050 -0.24800
N 	N 	0.80160 0.48890 0.93250 -0.18700
N 	N 	0.78790 0.46430 0.91830 -0.18900
N 	N 	0.80160 0.51450 0.91270 -0.12100
N 	N 	0.77900 0.47230 0.88840 -0.12600
N 	N 	0.78070 0.56350 0.80300 -0.27600
N 	N 	0.27090 0.96140 0.29960 -0.17100
N 	N 	0.24840 0.98260 0.30880 -0.11100
N 	N 	0.26150 0.94600 0.27310 -0.17400
N 	N 	0.23291 0.95750 0.26420 -0.10700
N 	N 	0.13740 0.03220 0.28260 -0.26500
N 	N 	0.30680 0.89420 0.31870 -0.18100
N 	N 	0.30410 0.87370 0.34350 -0.11500
N 	N 	0.29750 0.88100 0.29140 -0.19100
N 	N 	0.28720 0.85060 0.29720 -0.11900
N 	N 	0.26550 0.76130 0.37990 -0.25000
N 	N 	0.33520 0.93770 0.24900 -0.17800
N 	N 	0.35560 0.94670 0.22600 -0.11200
N 	N 	0.34560 0.95010 0.27760 -0.21100
N 	N 	0.37220 0.96700 0.27230 -0.13000
N 	N 	0.45710 0.00870 0.19460 -0.25800
N 	N 	0.21380 0.96530 0.49890 -0.17400
N 	N 	0.22870 0.93970 0.50940 -0.18300
N 	N 	0.25080 0.93080 0.48780 -0.11700
N 	N 	0.22600 0.97340 0.46970 -0.11600
N 	N 	0.29830 0.94960 0.37540 -0.26800
N 	N 	0.55560 0.03040 0.14710 -0.18700
N 	N 	0.58220 0.04194 0.16090 -0.17900
N 	N 	0.56220 0.02000 0.11760 -0.11700
N 	N 	0.60663 0.03840 0.14050 -0.11200
N 	N 	0.64530 0.99840 0.02950 -0.24800
N 	N 	0.30160 0.01110 0.06750 -0.18700
N 	N 	0.28790 0.03570 0.08170 -0.18900
N 	N 	0.30160 0.98550 0.08730 -0.12100
N 	N 	0.27900 0.02770 0.11160 -0.12600
N 	N 	0.28070 0.93650 0.19700 -0.27600
N 	N 	0.72910 0.46140 0.20040 -0.17100
N 	N 	0.75160 0.48260 0.19120 -0.11100
N 	N 	0.73850 0.44600 0.22690 -0.17400
N 	N 	0.76709 0.45750 0.23580 -0.10700
N 	N 	0.86260 0.53220 0.21740 -0.26500
N 	N 	0.69320 0.39420 0.18130 -0.18100
N 	N 	0.69590 0.37370 0.15650 -0.11500
N 	N 	0.70250 0.38100 0.20860 -0.19100
N 	N 	0.71280 0.35060 0.20280 -0.11900
N 	N 	0.73450 0.26130 0.12010 -0.25000
N 	N 	0.66480 0.43770 0.25100 -0.17800
N 	N 	0.64440 0.44670 0.27400 -0.11200
N 	N 	0.65440 0.45010 0.22240 -0.21100
N 	N 	0.62780 0.46700 0.22770 -0.13000
N 	N 	0.54290 0.50870 0.30540 -0.25800
N 	N 	0.78620 0.46530 0.00110 -0.17400
N 	N 	0.77130 0.43970 0.99060 -0.18300
N 	N 	0.74920 0.43080 0.01220 -0.11700
N 	N 	0.77400 0.47340 0.03030 -0.11600
N 	N 	0.70170 0.44960 0.12460 -0.26800
N 	N 	0.44440 0.53040 0.35290 -0.18700
N 	N 	0.41780 0.54194 0.33910 -0.17900
N 	N 	0.43780 0.52000 0.38240 -0.11700
N 	N 	0.39337 0.53840 0.35950 -0.11200
N 	N 	0.35470 0.49840 0.47050 -0.24800
N 	N 	0.69840 0.51110 0.43250 -0.18700
N 	N 	0.71210 0.53570 0.41830 -0.18900
N 	N 	0.69840 0.48550 0.41270 -0.12100
N 	N 	0.72100 0.52770 0.38840 -0.12600
N 	N 	0.71930 0.43650 0.30300 -0.27600
N 	N 	0.22910 0.03860 0.79960 -0.17100
N 	N 	0.25160 0.01740 0.80880 -0.11100
N 	N 	0.23850 0.05400 0.77310 -0.17400
N 	N 	0.26709 0.04250 0.76420 -0.10700
N 	N 	0.36260 0.96780 0.78260 -0.26500
N 	N 	0.19320 0.10580 0.81870 -0.18100
N 	N 	0.19590 0.12630 0.84350 -0.11500
N 	N 	0.20250 0.11900 0.79140 -0.19100
N 	N 	0.21280 0.14940 0.79720 -0.11900
N 	N 	0.23450 0.23870 0.87990 -0.25000
N 	N 	0.16480 0.06230 0.74900 -0.17800
N 	N 	0.14440 0.05330 0.72600 -0.11200
N 	N 	0.15440 0.04990 0.77760 -0.21100
N 	N 	0.12780 0.03300 0.77230 -0.13000
N 	N 	0.04290 0.99130 0.69460 -0.25800
N 	N 	0.28620 0.03470 0.99890 -0.17400
N 	N 	0.27130 0.06030 0.00940 -0.18300
N 	N 	0.24920 0.06920 0.98780 -0.11700
N 	N 	0.27400 0.02660 0.96970 -0.11600
N 	N 	0.20170 0.05040 0.87540 -0.26800
N 	N 	0.94440 0.96960 0.64710 -0.18700
N 	N 	0.91780 0.95806 0.66090 -0.17900
N 	N 	0.93780 0.98000 0.61760 -0.11700
N 	N 	0.89337 0.96160 0.64050 -0.11200
N 	N 	0.85470 0.00160 0.52950 -0.24800
N 	N 	0.19840 0.98890 0.56750 -0.18700
N 	N 	0.21210 0.96430 0.58170 -0.18900
N 	N 	0.19840 0.01450 0.58730 -0.12100
N 	N 	0.22100 0.97230 0.61160 -0.12600
N 	N 	0.21930 0.06350 0.69700 -0.27600
N 	N 	0.70040 0.77090 0.53860 -0.17100
N 	N 	0.69120 0.74840 0.51740 -0.11100
N 	N 	0.72690 0.76150 0.55400 -0.17400
N 	N 	0.73580 0.73291 0.54250 -0.10700
N 	N 	0.71740 0.63740 0.46780 -0.26500
N 	N 	0.68130 0.80680 0.60580 -0.18100
N 	N 	0.65650 0.80410 0.62630 -0.11500
N 	N 	0.70860 0.79750 0.61900 -0.19100
N 	N 	0.70280 0.78720 0.64940 -0.11900
N 	N 	0.62010 0.76550 0.73870 -0.25000
N 	N 	0.75100 0.83520 0.56230 -0.17800
N 	N 	0.77400 0.85560 0.55330 -0.11200
N 	N 	0.72240 0.84560 0.54990 -0.21100
N 	N 	0.72770 0.87220 0.53300 -0.13000
N 	N 	0.80540 0.95710 0.49130 -0.25800
N 	N 	0.50110 0.71380 0.53470 -0.17400
N 	N 	0.49060 0.72870 0.56030 -0.18300
N 	N 	0.51220 0.75080 0.56920 -0.11700
N 	N 	0.53030 0.72600 0.52660 -0.11600
N 	N 	0.62460 0.79830 0.55040 -0.26800
N 	N 	0.85290 0.05560 0.46960 -0.18700
N 	N 	0.83910 0.08220 0.45806 -0.17900
N 	N 	0.88240 0.06220 0.48000 -0.11700
N 	N 	0.85950 0.10663 0.46160 -0.11200
N 	N 	0.97050 0.14530 0.50160 -0.24800
N 	N 	0.93250 0.80160 0.48890 -0.18700
N 	N 	0.91830 0.78790 0.46430 -0.18900
N 	N 	0.91270 0.80160 0.51450 -0.12100
N 	N 	0.88840 0.77900 0.47230 -0.12600
N 	N 	0.80300 0.78070 0.56350 -0.27600
N 	N 	0.29960 0.27090 0.96140 -0.17100
N 	N 	0.30880 0.24840 0.98260 -0.11100
N 	N 	0.27310 0.26150 0.94600 -0.17400
N 	N 	0.26420 0.23291 0.95750 -0.10700
N 	N 	0.28260 0.13740 0.03220 -0.26500
N 	N 	0.31870 0.30680 0.89420 -0.18100
N 	N 	0.34350 0.30410 0.87370 -0.11500
N 	N 	0.29140 0.29750 0.88100 -0.19100
N 	N 	0.29720 0.28720 0.85060 -0.11900
N 	N 	0.37990 0.26550 0.76130 -0.25000
N 	N 	0.24900 0.33520 0.93770 -0.17800
N 	N 	0.22600 0.35560 0.94670 -0.11200
N 	N 	0.27760 0.34560 0.95010 -0.21100
N 	N 	0.27230 0.37220 0.96700 -0.13000
N 	N 	0.19460 0.45710 0.00870 -0.25800
N 	N 	0.49890 0.21380 0.96530 -0.17400
N 	N 	0.50940 0.22870 0.93970 -0.18300
N 	N 	0.48780 0.25080 0.93080 -0.11700
N 	N 	0.46970 0.22600 0.97340 -0.11600
N 	N 	0.37540 0.29830 0.94960 -0.26800
N 	N 	0.14710 0.55560 0.03040 -0.18700
N 	N 	0.16090 0.58220 0.04194 -0.17900
N 	N 	0.11760 0.56220 0.02000 -0.11700
N 	N 	0.14050 0.60663 0.03840 -0.11200
N 	N 	0.02950 0.64530 0.99840 -0.24800
N 	N 	0.06750 0.30160 0.01110 -0.18700
N 	N 	0.08170 0.28790 0.03570 -0.18900
N 	N 	0.08730 0.30160 0.98550 -0.12100
N 	N 	0.11160 0.27900 0.02770 -0.12600
N 	N 	0.19700 0.28070 0.93650 -0.27600
N 	N 	0.20040 0.72910 0.46140 -0.17100
N 	N 	0.19120 0.75160 0.48260 -0.11100
N 	N 	0.22690 0.73850 0.44600 -0.17400
N 	N 	0.23580 0.76709 0.45750 -0.10700
N 	N 	0.21740 0.86260 0.53220 -0.26500
N 	N 	0.18130 0.69320 0.39420 -0.18100
N 	N 	0.15650 0.69590 0.37370 -0.11500
N 	N 	0.20860 0.70250 0.38100 -0.19100
N 	N 	0.20280 0.71280 0.35060 -0.11900
N 	N 	0.12010 0.73450 0.26130 -0.25000
N 	N 	0.25100 0.66480 0.43770 -0.17800
N 	N 	0.27400 0.64440 0.44670 -0.11200
N 	N 	0.22240 0.65440 0.45010 -0.21100
N 	N 	0.22770 0.62780 0.46700 -0.13000
N 	N 	0.30540 0.54290 0.50870 -0.25800
N 	N 	0.00110 0.78620 0.46530 -0.17400
N 	N 	0.99060 0.77130 0.43970 -0.18300
N 	N 	0.01220 0.74920 0.43080 -0.11700
N 	N 	0.03030 0.77400 0.47340 -0.11600
N 	N 	0.12460 0.70170 0.44960 -0.26800
N 	N 	0.35290 0.44440 0.53040 -0.18700
N 	N 	0.33910 0.41780 0.54194 -0.17900
N 	N 	0.38240 0.43780 0.52000 -0.11700
N 	N 	0.35950 0.39337 0.53840 -0.11200
N 	N 	0.47050 0.35470 0.49840 -0.24800
N 	N 	0.43250 0.69840 0.51110 -0.18700
N 	N 	0.41830 0.71210 0.53570 -0.18900
N 	N 	0.41270 0.69840 0.48550 -0.12100
N 	N 	0.38840 0.72100 0.52770 -0.12600
N 	N 	0.30300 0.71930 0.43650 -0.27600
N 	N 	0.79960 0.22910 0.03860 -0.17100
N 	N 	0.80880 0.25160 0.01740 -0.11100
N 	N 	0.77310 0.23850 0.05400 -0.17400
N 	N 	0.76420 0.26709 0.04250 -0.10700
N 	N 	0.78260 0.36260 0.96780 -0.26500
N 	N 	0.81870 0.19320 0.10580 -0.18100
N 	N 	0.84350 0.19590 0.12630 -0.11500
N 	N 	0.79140 0.20250 0.11900 -0.19100
N 	N 	0.79720 0.21280 0.14940 -0.11900
N 	N 	0.87990 0.23450 0.23870 -0.25000
N 	N 	0.74900 0.16480 0.06230 -0.17800
N 	N 	0.72600 0.14440 0.05330 -0.11200
N 	N 	0.77760 0.15440 0.04990 -0.21100
N 	N 	0.77230 0.12780 0.03300 -0.13000
N 	N 	0.69460 0.04290 0.99130 -0.25800
N 	N 	0.99890 0.28620 0.03470 -0.17400
N 	N 	0.00940 0.27130 0.06030 -0.18300
N 	N 	0.98780 0.24920 0.06920 -0.11700
N 	N 	0.96970 0.27400 0.02660 -0.11600
N 	N 	0.87540 0.20170 0.05040 -0.26800
N 	N 	0.64710 0.94440 0.96960 -0.18700
N 	N 	0.66090 0.91780 0.95806 -0.17900
N 	N 	0.61760 0.93780 0.98000 -0.11700
N 	N 	0.64050 0.89337 0.96160 -0.11200
N 	N 	0.52950 0.85470 0.00160 -0.24800
N 	N 	0.56750 0.19840 0.98890 -0.18700
N 	N 	0.58170 0.21210 0.96430 -0.18900
N 	N 	0.58730 0.19840 0.01450 -0.12100
N 	N 	0.61160 0.22100 0.97230 -0.12600
N 	N 	0.69700 0.21930 0.06350 -0.27600
