data_crystal

_cell_length_a 16.07980
_cell_length_b 22.70960
_cell_length_c 38.48400
_cell_angle_alpha 90.00000
_cell_angle_beta  90.00000
_cell_angle_gamma 90.00000

_symmetry_space_group_name_	'P 1'
_symmetry_space_group_name_H-M	'P 1'

loop_
_symmetry_equiv_pos_as_xyz
  x,y,z

loop_
_atom_site_label
_atom_site_type_symbol
_atom_site_fract_x
_atom_site_fract_y
_atom_site_fract_z
_atom_site_charge
Yb	Yb	0.25000 0.50000 0.53258 1.57700
Yb	Yb	0.25000 0.00000 0.96742 1.54800
Yb	Yb	0.75000 0.50000 0.46742 1.57700
Yb	Yb	0.75000 0.00000 0.03258 1.54100
Yb	Yb	0.50000 0.50000 0.50000 1.57500
Yb	Yb	-0.00000 0.50000 0.50000 1.56500
Yb	Yb	-0.00000 0.00000 -0.00000 1.52800
Yb	Yb	0.50000 0.00000 -0.00000 1.53700
H 	H 	0.43710 0.64070 0.42490 0.00600
H 	H 	0.39350 0.70370 0.38110 0.10200
H 	H 	0.15530 0.67200 0.40660 0.10100
H 	H 	0.19900 0.60890 0.45040 0.00500
H 	H 	0.29410 0.74290 0.34420 0.08800
H 	H 	0.13440 0.73170 0.36100 0.04100
H 	H 	0.99140 0.81600 0.27270 0.09100
H 	H 	0.27240 0.79620 0.29740 0.09100
H 	H 	0.87540 0.75540 0.33740 0.12300
H 	H 	0.89660 0.78050 0.30050 0.11400
H 	H 	0.91030 0.81950 0.33360 0.12300
H 	H 	0.12840 0.86190 0.20430 0.04100
H 	H 	0.96800 0.85800 0.22180 0.10600
H 	H 	0.88540 0.90110 0.18540 0.09300
H 	H 	0.83760 0.93490 0.13110 0.02800
H 	H 	0.06910 0.92850 0.09650 0.01200
H 	H 	0.11300 0.89330 0.14880 0.10800
H 	H 	0.46330 0.35780 0.48100 0.00500
H 	H 	0.50880 0.26190 0.47260 0.08700
H 	H 	0.38590 0.21110 0.55840 0.08500
H 	H 	0.34050 0.30690 0.56680 0.01500
H 	H 	0.51390 0.16070 0.48800 0.05700
H 	H 	0.40770 0.12000 0.53380 0.06800
H 	H 	0.55060 0.07680 0.46770 0.12400
H 	H 	0.34230 0.00010 0.59800 -0.03900
H 	H 	0.34950 0.95070 0.56970 0.01700
H 	H 	0.42630 0.96610 0.59310 0.02100
H 	H 	0.06290 0.35930 0.42490 0.00200
H 	H 	0.10650 0.29630 0.38110 0.09400
H 	H 	0.34470 0.32800 0.40660 0.09900
H 	H 	0.30100 0.39110 0.45040 0.00600
H 	H 	0.20590 0.25710 0.34420 0.07900
H 	H 	0.36560 0.26830 0.36100 0.04400
H 	H 	0.50860 0.18400 0.27270 0.06000
H 	H 	0.22760 0.20380 0.29740 0.08800
H 	H 	0.62460 0.24460 0.33740 0.11700
H 	H 	0.60340 0.21950 0.30050 0.10800
H 	H 	0.58970 0.18050 0.33360 0.10900
H 	H 	0.37160 0.13810 0.20430 0.02800
H 	H 	0.53200 0.14200 0.22180 0.09300
H 	H 	0.61460 0.09890 0.18540 0.10400
H 	H 	0.66240 0.06510 0.13110 -0.00900
H 	H 	0.43090 0.07150 0.09650 -0.02700
H 	H 	0.38700 0.10670 0.14880 0.12300
H 	H 	0.03670 0.64220 0.48100 -0.03400
H 	H 	0.99120 0.73810 0.47260 0.15300
H 	H 	0.11410 0.78890 0.55840 0.13300
H 	H 	0.15950 0.69310 0.56680 -0.01200
H 	H 	0.98610 0.83930 0.48800 0.16300
H 	H 	0.09230 0.88000 0.53380 -0.02500
H 	H 	0.94940 0.92320 0.46770 -0.00500
H 	H 	0.15770 0.99990 0.59800 0.22300
H 	H 	0.15050 0.04930 0.56970 0.16500
H 	H 	0.07370 0.03390 0.59310 0.16300
H 	H 	0.06290 0.14070 0.07510 -0.00300
H 	H 	0.10650 0.20370 0.11890 0.09500
H 	H 	0.34470 0.17200 0.09340 0.10100
H 	H 	0.30100 0.10890 0.04960 0.00000
H 	H 	0.20590 0.24290 0.15580 0.08100
H 	H 	0.36560 0.23170 0.13900 0.04400
H 	H 	0.50860 0.31600 0.22730 0.06300
H 	H 	0.22760 0.29620 0.20260 0.08900
H 	H 	0.62460 0.25540 0.16260 0.12100
H 	H 	0.60340 0.28050 0.19950 0.11300
H 	H 	0.58970 0.31950 0.16640 0.11700
H 	H 	0.37160 0.36190 0.29570 0.03200
H 	H 	0.53200 0.35800 0.27820 0.09400
H 	H 	0.61460 0.40110 0.31460 0.10800
H 	H 	0.66240 0.43490 0.36890 -0.00100
H 	H 	0.43090 0.42850 0.40350 -0.01900
H 	H 	0.38700 0.39330 0.35120 0.12500
H 	H 	0.03670 0.85780 0.01900 -0.01900
H 	H 	0.99120 0.76190 0.02740 0.13700
H 	H 	0.11410 0.71110 0.94160 0.11300
H 	H 	0.15950 0.80690 0.93320 0.00200
H 	H 	0.98610 0.66070 0.01200 0.11400
H 	H 	0.09230 0.62000 0.96620 0.01800
H 	H 	0.94940 0.57680 0.03230 0.05800
H 	H 	0.15770 0.50010 0.90200 0.09100
H 	H 	0.15050 0.45070 0.93030 0.09000
H 	H 	0.07370 0.46610 0.90690 0.09000
H 	H 	0.43710 0.85930 0.07510 0.01200
H 	H 	0.39350 0.79630 0.11890 0.10100
H 	H 	0.15530 0.82800 0.09340 0.09800
H 	H 	0.19900 0.89110 0.04960 0.00900
H 	H 	0.29410 0.75710 0.15580 0.08600
H 	H 	0.13440 0.76830 0.13900 0.04000
H 	H 	0.99140 0.68400 0.22730 0.08800
H 	H 	0.27240 0.70380 0.20260 0.08900
H 	H 	0.87540 0.74460 0.16260 0.11900
H 	H 	0.89660 0.71950 0.19950 0.11000
H 	H 	0.91030 0.68050 0.16640 0.11500
H 	H 	0.12840 0.63810 0.29570 0.03700
H 	H 	0.96800 0.64200 0.27820 0.10500
H 	H 	0.88540 0.59890 0.31460 0.08900
H 	H 	0.83760 0.56510 0.36890 0.01800
H 	H 	0.06910 0.57150 0.40350 0.00400
H 	H 	0.11300 0.60670 0.35120 0.10500
H 	H 	0.46330 0.14220 0.01900 0.00500
H 	H 	0.50880 0.23810 0.02740 0.09300
H 	H 	0.38590 0.28890 0.94160 0.09100
H 	H 	0.34050 0.19310 0.93320 0.01400
H 	H 	0.51390 0.33930 0.01200 0.05800
H 	H 	0.40770 0.38000 0.96620 0.05700
H 	H 	0.55060 0.42320 0.03230 0.09400
H 	H 	0.34230 0.49990 0.90200 0.09800
H 	H 	0.34950 0.54930 0.93030 0.09900
H 	H 	0.42630 0.53390 0.90690 0.10100
H 	H 	0.56290 0.35930 0.57510 0.00800
H 	H 	0.60650 0.29630 0.61890 0.09600
H 	H 	0.84470 0.32800 0.59340 0.09900
H 	H 	0.80100 0.39110 0.54960 0.00800
H 	H 	0.70590 0.25710 0.65580 0.07900
H 	H 	0.86560 0.26830 0.63900 0.04900
H 	H 	0.00860 0.18400 0.72730 0.03200
H 	H 	0.72760 0.20380 0.70260 0.09400
H 	H 	0.12460 0.24460 0.66260 0.12000
H 	H 	0.10340 0.21950 0.69950 0.11300
H 	H 	0.08970 0.18050 0.66640 0.11200
H 	H 	0.87160 0.13810 0.79570 0.02400
H 	H 	0.03200 0.14200 0.77820 0.08100
H 	H 	0.11460 0.09890 0.81460 0.12400
H 	H 	0.16240 0.06510 0.86890 -0.02900
H 	H 	0.93090 0.07150 0.90350 -0.05000
H 	H 	0.88700 0.10670 0.85120 0.14300
H 	H 	0.53670 0.64220 0.51900 -0.00700
H 	H 	0.49120 0.73810 0.52740 0.10900
H 	H 	0.61410 0.78890 0.44160 0.11200
H 	H 	0.65950 0.69310 0.43320 0.00600
H 	H 	0.48610 0.83930 0.51200 0.10900
H 	H 	0.59230 0.88000 0.46620 0.01400
H 	H 	0.44940 0.92320 0.53230 0.02900
H 	H 	0.65770 0.99990 0.40200 0.23000
H 	H 	0.65050 0.04930 0.43030 0.17400
H 	H 	0.57370 0.03390 0.40690 0.17400
H 	H 	0.93710 0.64070 0.57510 0.01200
H 	H 	0.89350 0.70370 0.61890 0.10400
H 	H 	0.65530 0.67200 0.59340 0.10100
H 	H 	0.69900 0.60890 0.54960 0.00700
H 	H 	0.79410 0.74290 0.65580 0.08700
H 	H 	0.63440 0.73170 0.63900 0.04500
H 	H 	0.49140 0.81600 0.72730 0.06500
H 	H 	0.77240 0.79620 0.70260 0.09600
H 	H 	0.37540 0.75540 0.66260 0.12600
H 	H 	0.39660 0.78050 0.69950 0.11800
H 	H 	0.41030 0.81950 0.66640 0.12600
H 	H 	0.62840 0.86190 0.79570 0.03600
H 	H 	0.46800 0.85800 0.77820 0.09500
H 	H 	0.38540 0.90110 0.81460 0.11100
H 	H 	0.33760 0.93490 0.86890 0.01000
H 	H 	0.56910 0.92850 0.90350 -0.00900
H 	H 	0.61300 0.89330 0.85120 0.12700
H 	H 	0.96330 0.35780 0.51900 0.03400
H 	H 	0.00880 0.26190 0.52740 0.04000
H 	H 	0.88590 0.21110 0.44160 0.06200
H 	H 	0.84050 0.30690 0.43320 0.03400
H 	H 	0.01390 0.16070 0.51200 0.00000
H 	H 	0.90770 0.12000 0.46620 0.10800
H 	H 	0.05060 0.07680 0.53230 0.15900
H 	H 	0.84230 0.00010 0.40200 -0.02800
H 	H 	0.84950 0.95070 0.43030 0.02700
H 	H 	0.92630 0.96610 0.40690 0.03300
H 	H 	0.93710 0.85930 0.92490 0.01800
H 	H 	0.89350 0.79630 0.88110 0.10200
H 	H 	0.65530 0.82800 0.90660 0.09800
H 	H 	0.69900 0.89110 0.95040 0.01400
H 	H 	0.79410 0.75710 0.84420 0.08500
H 	H 	0.63440 0.76830 0.86100 0.04500
H 	H 	0.49140 0.68400 0.77270 0.06200
H 	H 	0.77240 0.70380 0.79740 0.09500
H 	H 	0.37540 0.74460 0.83740 0.12200
H 	H 	0.39660 0.71950 0.80050 0.11300
H 	H 	0.41030 0.68050 0.83360 0.11800
H 	H 	0.62840 0.63810 0.70430 0.03200
H 	H 	0.46800 0.64200 0.72180 0.09400
H 	H 	0.38540 0.59890 0.68540 0.10700
H 	H 	0.33760 0.56510 0.63110 -0.00100
H 	H 	0.56910 0.57150 0.59650 -0.01900
H 	H 	0.61300 0.60670 0.64880 0.12500
H 	H 	0.96330 0.14220 0.98100 0.02100
H 	H 	0.00880 0.23810 0.97260 0.05600
H 	H 	0.88590 0.28890 0.05840 0.08200
H 	H 	0.84050 0.19310 0.06680 0.02100
H 	H 	0.01390 0.33930 0.98800 0.05100
H 	H 	0.90770 0.38000 0.03380 0.06400
H 	H 	0.05060 0.42320 0.96770 0.09500
H 	H 	0.84230 0.49990 0.09800 0.10100
H 	H 	0.84950 0.54930 0.06970 0.10100
H 	H 	0.92630 0.53390 0.09310 0.10500
H 	H 	0.56290 0.14070 0.92490 0.00400
H 	H 	0.60650 0.20370 0.88110 0.09600
H 	H 	0.84470 0.17200 0.90660 0.10100
H 	H 	0.80100 0.10890 0.95040 0.00600
H 	H 	0.70590 0.24290 0.84420 0.08000
H 	H 	0.86560 0.23170 0.86100 0.04900
H 	H 	0.00860 0.31600 0.77270 0.03500
H 	H 	0.72760 0.29620 0.79740 0.09500
H 	H 	0.12460 0.25540 0.83740 0.12400
H 	H 	0.10340 0.28050 0.80050 0.11700
H 	H 	0.08970 0.31950 0.83360 0.12100
H 	H 	0.87160 0.36190 0.70430 0.02700
H 	H 	0.03200 0.35800 0.72180 0.08300
H 	H 	0.11460 0.40110 0.68540 0.12800
H 	H 	0.16240 0.43490 0.63110 -0.02000
H 	H 	0.93090 0.42850 0.59650 -0.04300
H 	H 	0.88700 0.39330 0.64880 0.14600
H 	H 	0.53670 0.85780 0.98100 -0.00400
H 	H 	0.49120 0.76190 0.97260 0.10100
H 	H 	0.61410 0.71110 0.05840 0.10500
H 	H 	0.65950 0.80690 0.06680 0.00900
H 	H 	0.48610 0.66070 0.98800 0.10700
H 	H 	0.59230 0.62000 0.03380 0.02500
H 	H 	0.44940 0.57680 0.96770 0.05900
H 	H 	0.65770 0.50010 0.09800 0.09400
H 	H 	0.65050 0.45070 0.06970 0.09200
H 	H 	0.57370 0.46610 0.09310 0.09400
C 	C 	0.34760 0.57560 0.46952 0.44700
C 	C 	0.32240 0.61850 0.44200 -0.18600
C 	C 	0.38060 0.64690 0.42120 0.11600
C 	C 	0.35450 0.68470 0.39500 -0.19200
C 	C 	0.27010 0.69410 0.38950 0.15100
C 	C 	0.21180 0.66570 0.41030 -0.19200
C 	C 	0.23800 0.62790 0.43650 0.11300
C 	C 	0.24940 0.72980 0.35740 -0.14400
C 	C 	0.17870 0.74330 0.34700 0.01100
C 	C 	0.15710 0.77600 0.31470 -0.00100
C 	C 	0.07290 0.78200 0.30730 0.10900
C 	C 	0.04770 0.81200 0.27760 -0.12900
C 	C 	0.10670 0.83620 0.25540 -0.01100
C 	C 	0.19090 0.83020 0.26280 0.13300
C 	C 	0.21610 0.80020 0.29250 -0.11600
C 	C 	0.91270 0.78020 0.32450 -0.27000
C 	C 	0.08450 0.85670 0.21970 0.03800
C 	C 	0.01450 0.86740 0.20860 -0.17600
C 	C 	0.00400 0.89590 0.17320 0.15300
C 	C 	0.92320 0.90680 0.16740 -0.15400
C 	C 	0.89370 0.92680 0.13450 0.08500
C 	C 	0.95050 0.93380 0.10789 -0.14400
C 	C 	0.03050 0.92260 0.11410 0.09600
C 	C 	0.05710 0.90260 0.14580 -0.18900
C 	C 	0.91850 0.95350 0.07321 0.41600
C 	C 	0.36380 0.40160 0.52909 0.37100
C 	C 	0.39740 0.34190 0.52474 -0.16000
C 	C 	0.44780 0.32840 0.49650 0.08400
C 	C 	0.47510 0.27100 0.49150 -0.16200
C 	C 	0.45190 0.22700 0.51460 0.11000
C 	C 	0.40150 0.24050 0.54290 -0.16200
C 	C 	0.37420 0.29790 0.54792 0.08400
C 	C 	0.47440 0.16430 0.50550 -0.08600
C 	C 	0.44950 0.11740 0.51720 -0.06900
C 	C 	0.47750 0.05680 0.50830 0.09400
C 	C 	0.52840 0.04570 0.48050 -0.28900
C 	C 	0.45360 0.01120 0.52850 0.00800
C 	C 	0.37900 0.98190 0.58130 0.10600
C 	C 	0.15240 0.42440 0.46952 0.44700
C 	C 	0.17760 0.38150 0.44200 -0.18600
C 	C 	0.11940 0.35310 0.42120 0.11200
C 	C 	0.14550 0.31530 0.39500 -0.18900
C 	C 	0.22990 0.30590 0.38950 0.14200
C 	C 	0.28820 0.33430 0.41030 -0.18900
C 	C 	0.26200 0.37210 0.43650 0.10900
C 	C 	0.25060 0.27020 0.35740 -0.13600
C 	C 	0.32130 0.25670 0.34700 -0.00400
C 	C 	0.34290 0.22400 0.31470 0.00900
C 	C 	0.42710 0.21800 0.30730 0.08700
C 	C 	0.45230 0.18800 0.27760 -0.08600
C 	C 	0.39330 0.16380 0.25540 -0.03900
C 	C 	0.30910 0.16980 0.26280 0.14200
C 	C 	0.28390 0.19980 0.29250 -0.13300
C 	C 	0.58730 0.21980 0.32450 -0.27400
C 	C 	0.41550 0.14330 0.21970 0.05100
C 	C 	0.48550 0.13260 0.20860 -0.18700
C 	C 	0.49600 0.10410 0.17320 0.20400
C 	C 	0.57680 0.09320 0.16740 -0.23200
C 	C 	0.60630 0.07320 0.13450 0.13800
C 	C 	0.54950 0.06620 0.10789 -0.22800
C 	C 	0.46950 0.07740 0.11410 0.17700
C 	C 	0.44290 0.09740 0.14580 -0.26000
C 	C 	0.58150 0.04650 0.07321 0.44100
C 	C 	0.13620 0.59840 0.52909 0.39500
C 	C 	0.10260 0.65810 0.52474 -0.22800
C 	C 	0.05220 0.67160 0.49650 0.18300
C 	C 	0.02490 0.72900 0.49150 -0.30800
C 	C 	0.04810 0.77300 0.51460 0.26500
C 	C 	0.09850 0.75950 0.54290 -0.27400
C 	C 	0.12580 0.70210 0.54792 0.17000
C 	C 	0.02560 0.83570 0.50550 -0.34300
C 	C 	0.05050 0.88260 0.51720 0.22000
C 	C 	0.02250 0.94320 0.50830 -0.22600
C 	C 	0.97160 0.95430 0.48050 0.14000
C 	C 	0.04640 0.98880 0.52850 0.33700
C 	C 	0.12100 0.01810 0.58130 -0.50100
C 	C 	0.15240 0.07560 0.03048 0.44600
C 	C 	0.17760 0.11850 0.05800 -0.19500
C 	C 	0.11940 0.14690 0.07880 0.11400
C 	C 	0.14550 0.18470 0.10500 -0.19500
C 	C 	0.22990 0.19410 0.11050 0.14500
C 	C 	0.28820 0.16570 0.08970 -0.19600
C 	C 	0.26200 0.12790 0.06350 0.11200
C 	C 	0.25060 0.22980 0.14260 -0.14000
C 	C 	0.32130 0.24330 0.15300 -0.00000
C 	C 	0.34290 0.27600 0.18530 0.00900
C 	C 	0.42710 0.28200 0.19270 0.09000
C 	C 	0.45230 0.31200 0.22240 -0.08600
C 	C 	0.39330 0.33620 0.24460 -0.03300
C 	C 	0.30910 0.33020 0.23720 0.14200
C 	C 	0.28390 0.30020 0.20750 -0.12900
C 	C 	0.58730 0.28020 0.17550 -0.28200
C 	C 	0.41550 0.35670 0.28030 0.05100
C 	C 	0.48550 0.36740 0.29140 -0.18100
C 	C 	0.49600 0.39590 0.32680 0.20600
C 	C 	0.57680 0.40680 0.33260 -0.22600
C 	C 	0.60630 0.42680 0.36550 0.13800
C 	C 	0.54950 0.43380 0.39211 -0.21800
C 	C 	0.46950 0.42260 0.38590 0.17500
C 	C 	0.44290 0.40260 0.35420 -0.25300
C 	C 	0.58150 0.45350 0.42679 0.44200
C 	C 	0.13620 0.90160 0.97091 0.37700
C 	C 	0.10260 0.84190 0.97526 -0.18700
C 	C 	0.05220 0.82840 0.00350 0.13600
C 	C 	0.02490 0.77100 0.00850 -0.27200
C 	C 	0.04810 0.72700 0.98540 0.21100
C 	C 	0.09850 0.74050 0.95710 -0.22900
C 	C 	0.12580 0.79790 0.95208 0.13100
C 	C 	0.02560 0.66430 0.99450 -0.22700
C 	C 	0.05050 0.61740 0.98280 0.08500
C 	C 	0.02250 0.55680 0.99170 -0.07000
C 	C 	0.97160 0.54570 0.01950 -0.07100
C 	C 	0.04640 0.51120 0.97150 0.17500
C 	C 	0.12100 0.48190 0.91870 -0.19500
C 	C 	0.34760 0.92440 0.03048 0.44200
C 	C 	0.32240 0.88150 0.05800 -0.17600
C 	C 	0.38060 0.85310 0.07880 0.11200
C 	C 	0.35450 0.81530 0.10500 -0.18500
C 	C 	0.27010 0.80590 0.11050 0.14600
C 	C 	0.21180 0.83430 0.08970 -0.18600
C 	C 	0.23800 0.87210 0.06350 0.10800
C 	C 	0.24940 0.77020 0.14260 -0.14100
C 	C 	0.17870 0.75670 0.15300 0.00700
C 	C 	0.15710 0.72400 0.18530 -0.00100
C 	C 	0.07290 0.71800 0.19270 0.10600
C 	C 	0.04770 0.68800 0.22240 -0.12900
C 	C 	0.10670 0.66380 0.24460 -0.01700
C 	C 	0.19090 0.66980 0.23720 0.13300
C 	C 	0.21610 0.69980 0.20750 -0.12000
C 	C 	0.91270 0.71980 0.17550 -0.26200
C 	C 	0.08450 0.64330 0.28030 0.03900
C 	C 	0.01450 0.63260 0.29140 -0.18200
C 	C 	0.00400 0.60410 0.32680 0.15100
C 	C 	0.92320 0.59320 0.33260 -0.16000
C 	C 	0.89370 0.57320 0.36550 0.08600
C 	C 	0.95050 0.56620 0.39211 -0.15500
C 	C 	0.03050 0.57740 0.38590 0.09800
C 	C 	0.05710 0.59740 0.35420 -0.19600
C 	C 	0.91850 0.54650 0.42679 0.42100
C 	C 	0.36380 0.09840 0.97091 0.37100
C 	C 	0.39740 0.15810 0.97526 -0.15400
C 	C 	0.44780 0.17160 0.00350 0.07900
C 	C 	0.47510 0.22900 0.00850 -0.17900
C 	C 	0.45190 0.27300 0.98540 0.13200
C 	C 	0.40150 0.25950 0.95710 -0.17100
C 	C 	0.37420 0.20210 0.95208 0.08900
C 	C 	0.47440 0.33570 0.99450 -0.09700
C 	C 	0.44950 0.38260 0.98280 -0.03000
C 	C 	0.47750 0.44320 0.99170 0.03900
C 	C 	0.52840 0.45430 0.01950 -0.17800
C 	C 	0.45360 0.48880 0.97150 0.09900
C 	C 	0.37900 0.51810 0.91870 -0.21900
C 	C 	0.65240 0.42440 0.53048 0.44600
C 	C 	0.67760 0.38150 0.55800 -0.18200
C 	C 	0.61940 0.35310 0.57880 0.11000
C 	C 	0.64550 0.31530 0.60500 -0.18500
C 	C 	0.72990 0.30590 0.61050 0.13900
C 	C 	0.78820 0.33430 0.58970 -0.18600
C 	C 	0.76200 0.37210 0.56350 0.10700
C 	C 	0.75060 0.27020 0.64260 -0.12900
C 	C 	0.82130 0.25670 0.65300 -0.01200
C 	C 	0.84290 0.22400 0.68530 0.02200
C 	C 	0.92710 0.21800 0.69270 0.06900
C 	C 	0.95230 0.18800 0.72240 -0.03900
C 	C 	0.89330 0.16380 0.74460 -0.05700
C 	C 	0.80910 0.16980 0.73720 0.15200
C 	C 	0.78390 0.19980 0.70750 -0.14400
C 	C 	0.08730 0.21980 0.67550 -0.29800
C 	C 	0.91550 0.14330 0.78030 0.06300
C 	C 	0.98550 0.13260 0.79140 -0.18400
C 	C 	0.99600 0.10410 0.82680 0.26100
C 	C 	0.07680 0.09320 0.83260 -0.30100
C 	C 	0.10630 0.07320 0.86550 0.19200
C 	C 	0.04950 0.06620 0.89211 -0.29200
C 	C 	0.96950 0.07740 0.88590 0.25700
C 	C 	0.94290 0.09740 0.85420 -0.31900
C 	C 	0.08150 0.04650 0.92679 0.46100
C 	C 	0.63620 0.59840 0.47091 0.38100
C 	C 	0.60260 0.65810 0.47526 -0.18600
C 	C 	0.55220 0.67160 0.50350 0.12200
C 	C 	0.52490 0.72900 0.50850 -0.21200
C 	C 	0.54810 0.77300 0.48540 0.18400
C 	C 	0.59850 0.75950 0.45710 -0.21100
C 	C 	0.62580 0.70210 0.45208 0.12300
C 	C 	0.52560 0.83570 0.49450 -0.21500
C 	C 	0.55050 0.88260 0.48280 0.10700
C 	C 	0.52250 0.94320 0.49170 -0.12100
C 	C 	0.47160 0.95430 0.51950 0.04000
C 	C 	0.54640 0.98880 0.47150 0.26300
C 	C 	0.62100 0.01810 0.41870 -0.52300
C 	C 	0.84760 0.57560 0.53048 0.44500
C 	C 	0.82240 0.61850 0.55800 -0.18200
C 	C 	0.88060 0.64690 0.57880 0.11400
C 	C 	0.85450 0.68470 0.60500 -0.18700
C 	C 	0.77010 0.69410 0.61050 0.14800
C 	C 	0.71180 0.66570 0.58970 -0.18900
C 	C 	0.73800 0.62790 0.56350 0.11000
C 	C 	0.74940 0.72980 0.64260 -0.13800
C 	C 	0.67870 0.74330 0.65300 0.00300
C 	C 	0.65710 0.77600 0.68530 0.01100
C 	C 	0.57290 0.78200 0.69270 0.09300
C 	C 	0.54770 0.81200 0.72240 -0.08600
C 	C 	0.60670 0.83620 0.74460 -0.02700
C 	C 	0.69090 0.83020 0.73720 0.14300
C 	C 	0.71610 0.80020 0.70750 -0.12600
C 	C 	0.41270 0.78020 0.67550 -0.29200
C 	C 	0.58450 0.85670 0.78030 0.04900
C 	C 	0.51450 0.86740 0.79140 -0.17400
C 	C 	0.50400 0.89590 0.82680 0.20400
C 	C 	0.42320 0.90680 0.83260 -0.21600
C 	C 	0.39370 0.92680 0.86550 0.13300
C 	C 	0.45050 0.93380 0.89211 -0.20200
C 	C 	0.53050 0.92260 0.88590 0.16900
C 	C 	0.55710 0.90260 0.85420 -0.24200
C 	C 	0.41850 0.95350 0.92679 0.43500
C 	C 	0.86380 0.40160 0.47091 0.35500
C 	C 	0.89740 0.34190 0.47526 -0.11500
C 	C 	0.94780 0.32840 0.50350 0.01900
C 	C 	0.97510 0.27100 0.50850 -0.06000
C 	C 	0.95190 0.22700 0.48540 0.02500
C 	C 	0.90150 0.24050 0.45710 -0.09600
C 	C 	0.87420 0.29790 0.45208 0.03500
C 	C 	0.97440 0.16430 0.49450 0.04900
C 	C 	0.94950 0.11740 0.48280 -0.18700
C 	C 	0.97750 0.05680 0.49170 0.20300
C 	C 	0.02840 0.04570 0.51950 -0.39500
C 	C 	0.95360 0.01120 0.47150 -0.06500
C 	C 	0.87900 0.98190 0.41870 0.07400
C 	C 	0.84760 0.92440 0.96952 0.43900
C 	C 	0.82240 0.88150 0.94200 -0.16800
C 	C 	0.88060 0.85310 0.92120 0.10800
C 	C 	0.85450 0.81530 0.89500 -0.17900
C 	C 	0.77010 0.80590 0.88950 0.14300
C 	C 	0.71180 0.83430 0.91030 -0.18000
C 	C 	0.73800 0.87210 0.93650 0.10400
C 	C 	0.74940 0.77020 0.85740 -0.13300
C 	C 	0.67870 0.75670 0.84700 -0.00200
C 	C 	0.65710 0.72400 0.81470 0.01200
C 	C 	0.57290 0.71800 0.80730 0.08900
C 	C 	0.54770 0.68800 0.77760 -0.08500
C 	C 	0.60670 0.66380 0.75540 -0.03400
C 	C 	0.69090 0.66980 0.76280 0.14300
C 	C 	0.71610 0.69980 0.79250 -0.13000
C 	C 	0.41270 0.71980 0.82450 -0.28400
C 	C 	0.58450 0.64330 0.71970 0.05100
C 	C 	0.51450 0.63260 0.70860 -0.18100
C 	C 	0.50400 0.60410 0.67320 0.20500
C 	C 	0.42320 0.59320 0.66740 -0.22600
C 	C 	0.39370 0.57320 0.63450 0.13700
C 	C 	0.45050 0.56620 0.60789 -0.21700
C 	C 	0.53050 0.57740 0.61410 0.17500
C 	C 	0.55710 0.59740 0.64580 -0.25300
C 	C 	0.41850 0.54650 0.57321 0.44100
C 	C 	0.86380 0.09840 0.02909 0.36900
C 	C 	0.89740 0.15810 0.02474 -0.15300
C 	C 	0.94780 0.17160 0.99650 0.06500
C 	C 	0.97510 0.22900 0.99150 -0.09400
C 	C 	0.95190 0.27300 0.01460 0.07900
C 	C 	0.90150 0.25950 0.04290 -0.14000
C 	C 	0.87420 0.20210 0.04792 0.07100
C 	C 	0.97440 0.33570 0.00550 -0.06900
C 	C 	0.94950 0.38260 0.01720 -0.05000
C 	C 	0.97750 0.44320 0.00830 0.04500
C 	C 	0.02840 0.45430 0.98050 -0.18000
C 	C 	0.95360 0.48880 0.02850 0.09500
C 	C 	0.87900 0.51810 0.08130 -0.22400
C 	C 	0.65240 0.07560 0.96952 0.44300
C 	C 	0.67760 0.11850 0.94200 -0.18700
C 	C 	0.61940 0.14690 0.92120 0.11100
C 	C 	0.64550 0.18470 0.89500 -0.18900
C 	C 	0.72990 0.19410 0.88950 0.14200
C 	C 	0.78820 0.16570 0.91030 -0.18900
C 	C 	0.76200 0.12790 0.93650 0.10800
C 	C 	0.75060 0.22980 0.85740 -0.13100
C 	C 	0.82130 0.24330 0.84700 -0.00900
C 	C 	0.84290 0.27600 0.81470 0.02300
C 	C 	0.92710 0.28200 0.80730 0.07200
C 	C 	0.95230 0.31200 0.77760 -0.03900
C 	C 	0.89330 0.33620 0.75540 -0.05100
C 	C 	0.80910 0.33020 0.76280 0.15300
C 	C 	0.78390 0.30020 0.79250 -0.14000
C 	C 	0.08730 0.28020 0.82450 -0.30600
C 	C 	0.91550 0.35670 0.71970 0.06300
C 	C 	0.98550 0.36740 0.70860 -0.18000
C 	C 	0.99600 0.39590 0.67320 0.26200
C 	C 	0.07680 0.40680 0.66740 -0.29400
C 	C 	0.10630 0.42680 0.63450 0.19000
C 	C 	0.04950 0.43380 0.60789 -0.28200
C 	C 	0.96950 0.42260 0.61410 0.25300
C 	C 	0.94290 0.40260 0.64580 -0.31100
C 	C 	0.08150 0.45350 0.57321 0.46200
C 	C 	0.63620 0.90160 0.02909 0.37600
C 	C 	0.60260 0.84190 0.02474 -0.18700
C 	C 	0.55220 0.82840 0.99650 0.12300
C 	C 	0.52490 0.77100 0.99150 -0.19200
C 	C 	0.54810 0.72700 0.01460 0.16000
C 	C 	0.59850 0.74050 0.04290 -0.20000
C 	C 	0.62580 0.79790 0.04792 0.11500
C 	C 	0.52560 0.66430 0.00550 -0.20100
C 	C 	0.55050 0.61740 0.01720 0.06600
C 	C 	0.52250 0.55680 0.00830 -0.06500
C 	C 	0.47160 0.54570 0.98050 -0.07300
C 	C 	0.54640 0.51120 0.02850 0.17100
C 	C 	0.62100 0.48190 0.08130 -0.20000
O 	O 	0.00730 0.75500 0.32800 -0.16900
O 	O 	0.25290 0.85420 0.24120 -0.17400
O 	O 	0.40570 0.02630 0.55560 -0.23300
O 	O 	0.29650 0.55830 0.49106 -0.47400
O 	O 	0.42350 0.56090 0.46973 -0.46300
O 	O 	0.84400 0.96720 0.06993 -0.42000
O 	O 	0.97160 0.95450 0.04871 -0.42800
O 	O 	0.38860 0.44460 0.51021 -0.49500
O 	O 	0.30600 0.40990 0.55051 -0.38400
O 	O 	0.49270 0.24500 0.32800 -0.15900
O 	O 	0.24710 0.14580 0.24120 -0.19700
O 	O 	0.09430 0.97370 0.55560 -0.15000
O 	O 	0.20350 0.44170 0.49106 -0.47400
O 	O 	0.07650 0.43910 0.46973 -0.46800
O 	O 	0.65600 0.03280 0.06993 -0.46900
O 	O 	0.52840 0.04550 0.04871 -0.47600
O 	O 	0.11140 0.55540 0.51021 -0.50300
O 	O 	0.19400 0.59010 0.55051 -0.39000
O 	O 	0.49270 0.25500 0.17200 -0.15600
O 	O 	0.24710 0.35420 0.25880 -0.18800
O 	O 	0.09430 0.52630 0.94440 -0.19300
O 	O 	0.20350 0.05830 0.00894 -0.49000
O 	O 	0.07650 0.06090 0.03027 -0.48300
O 	O 	0.65600 0.46720 0.43007 -0.45300
O 	O 	0.52840 0.45450 0.45129 -0.46400
O 	O 	0.11140 0.94460 0.98979 -0.46500
O 	O 	0.19400 0.90990 0.94949 -0.36900
O 	O 	0.00730 0.74500 0.17200 -0.17200
O 	O 	0.25290 0.64580 0.25880 -0.18400
O 	O 	0.40570 0.47370 0.94440 -0.17000
O 	O 	0.29650 0.94170 0.00894 -0.45600
O 	O 	0.42350 0.93910 0.03027 -0.44000
O 	O 	0.84400 0.53280 0.43007 -0.44600
O 	O 	0.97160 0.54550 0.45129 -0.44800
O 	O 	0.38860 0.05540 0.98979 -0.50300
O 	O 	0.30600 0.09010 0.94949 -0.39000
O 	O 	0.99270 0.24500 0.67200 -0.14200
O 	O 	0.74710 0.14580 0.75880 -0.19700
O 	O 	0.59430 0.97370 0.44440 -0.12800
O 	O 	0.70350 0.44170 0.50894 -0.47300
O 	O 	0.57650 0.43910 0.53027 -0.46300
O 	O 	0.15600 0.03280 0.93007 -0.47300
O 	O 	0.02840 0.04550 0.95129 -0.48400
O 	O 	0.61140 0.55540 0.48979 -0.49700
O 	O 	0.69400 0.59010 0.44949 -0.38600
O 	O 	0.50730 0.75500 0.67200 -0.15400
O 	O 	0.75290 0.85420 0.75880 -0.17400
O 	O 	0.90570 0.02630 0.44440 -0.20900
O 	O 	0.79650 0.55830 0.50894 -0.47200
O 	O 	0.92350 0.56090 0.53027 -0.45400
O 	O 	0.34400 0.96720 0.93007 -0.42400
O 	O 	0.47160 0.95450 0.95129 -0.43800
O 	O 	0.88860 0.44460 0.48979 -0.48600
O 	O 	0.80600 0.40990 0.44949 -0.37900
O 	O 	0.50730 0.74500 0.82800 -0.15600
O 	O 	0.75290 0.64580 0.74120 -0.18300
O 	O 	0.90570 0.47370 0.05560 -0.16800
O 	O 	0.79650 0.94170 0.99106 -0.44400
O 	O 	0.92350 0.93910 0.96973 -0.42700
O 	O 	0.34400 0.53280 0.56993 -0.45200
O 	O 	0.47160 0.54550 0.54871 -0.46300
O 	O 	0.88860 0.05540 0.01021 -0.50700
O 	O 	0.80600 0.09010 0.05051 -0.39100
O 	O 	0.99270 0.25500 0.82800 -0.14000
O 	O 	0.74710 0.35420 0.74120 -0.18800
O 	O 	0.59430 0.52630 0.05560 -0.19100
O 	O 	0.70350 0.05830 0.99106 -0.47700
O 	O 	0.57650 0.06090 0.96973 -0.47100
O 	O 	0.15600 0.46720 0.56993 -0.45900
O 	O 	0.02840 0.45450 0.54871 -0.47700
O 	O 	0.61140 0.94460 0.01021 -0.47200
O 	O 	0.69400 0.90990 0.05051 -0.37000
