data_crystal

_cell_length_a 15.49010
_cell_length_b 15.49010
_cell_length_c 15.49010
_cell_angle_alpha 90.00000
_cell_angle_beta  90.00000
_cell_angle_gamma 90.00000

_symmetry_space_group_name_	'P 1'
_symmetry_space_group_name_H-M	'P 1'

loop_
_symmetry_equiv_pos_as_xyz
  x,y,z

loop_
_atom_site_label
_atom_site_type_symbol
_atom_site_fract_x
_atom_site_fract_y
_atom_site_fract_z
_atom_site_charge
Mn	Mn	0.85350 0.35350 0.14650 1.36200
Mn	Mn	0.64650 0.64650 0.64650 1.36200
Mn	Mn	0.14650 0.85350 0.35350 1.36200
Mn	Mn	0.35350 0.14650 0.85350 1.36200
Cr	Cr	0.59730 0.40270 0.90270 1.48900
Cr	Cr	0.90270 0.59730 0.40270 1.48900
Cr	Cr	0.40270 0.90270 0.59730 1.48900
Cr	Cr	0.09730 0.09730 0.09730 1.48800
C 	C 	0.76300 0.37800 0.99300 0.23800
C 	C 	0.69500 0.37500 0.06600 0.20200
C 	C 	0.73700 0.62200 0.49300 0.24200
C 	C 	0.80500 0.62500 0.56600 0.20000
C 	C 	0.23700 0.87800 0.50700 0.24200
C 	C 	0.30500 0.87500 0.43400 0.20000
C 	C 	0.26300 0.12200 0.00700 0.23700
C 	C 	0.19500 0.12500 0.93400 0.20200
C 	C 	0.99300 0.76300 0.37800 0.23800
C 	C 	0.06600 0.69500 0.37500 0.20200
C 	C 	0.49300 0.73700 0.62200 0.24200
C 	C 	0.56600 0.80500 0.62500 0.20000
C 	C 	0.50700 0.23700 0.87800 0.24200
C 	C 	0.43400 0.30500 0.87500 0.20000
C 	C 	0.00700 0.26300 0.12200 0.23700
C 	C 	0.93400 0.19500 0.12500 0.20200
C 	C 	0.37800 0.99300 0.76300 0.23800
C 	C 	0.37500 0.06600 0.69500 0.20200
C 	C 	0.62200 0.49300 0.73700 0.24200
C 	C 	0.62500 0.56600 0.80500 0.20000
C 	C 	0.87800 0.50700 0.23700 0.24200
C 	C 	0.87500 0.43400 0.30500 0.20000
C 	C 	0.12200 0.00700 0.26300 0.23700
C 	C 	0.12500 0.93400 0.19500 0.20200
O 	O 	0.84210 0.36580 0.02030 -0.34600
O 	O 	0.72600 0.35930 0.14330 -0.33800
O 	O 	0.74000 0.38730 0.91980 -0.36200
O 	O 	0.61800 0.38960 0.04740 -0.34400
O 	O 	0.65790 0.63420 0.52030 -0.34800
O 	O 	0.77400 0.64070 0.64330 -0.33900
O 	O 	0.76000 0.61270 0.41980 -0.36200
O 	O 	0.88200 0.61040 0.54740 -0.34400
O 	O 	0.15790 0.86580 0.47970 -0.34800
O 	O 	0.27400 0.85930 0.35670 -0.33800
O 	O 	0.26000 0.88730 0.58020 -0.36200
O 	O 	0.38200 0.88960 0.45260 -0.34400
O 	O 	0.34210 0.13420 0.97970 -0.34600
O 	O 	0.22600 0.14070 0.85670 -0.33800
O 	O 	0.24000 0.11270 0.08020 -0.36200
O 	O 	0.11800 0.11040 0.95260 -0.34300
O 	O 	0.02030 0.84210 0.36580 -0.34600
O 	O 	0.14330 0.72600 0.35930 -0.33800
O 	O 	0.91980 0.74000 0.38730 -0.36200
O 	O 	0.04740 0.61800 0.38960 -0.34400
O 	O 	0.52030 0.65790 0.63420 -0.34800
O 	O 	0.64330 0.77400 0.64070 -0.33900
O 	O 	0.41980 0.76000 0.61270 -0.36200
O 	O 	0.54740 0.88200 0.61040 -0.34400
O 	O 	0.47970 0.15790 0.86580 -0.34800
O 	O 	0.35670 0.27400 0.85930 -0.33800
O 	O 	0.58020 0.26000 0.88730 -0.36200
O 	O 	0.45260 0.38200 0.88960 -0.34400
O 	O 	0.97970 0.34210 0.13420 -0.34600
O 	O 	0.85670 0.22600 0.14070 -0.33800
O 	O 	0.08020 0.24000 0.11270 -0.36200
O 	O 	0.95260 0.11800 0.11040 -0.34300
O 	O 	0.36580 0.02030 0.84210 -0.34600
O 	O 	0.35930 0.14330 0.72600 -0.33800
O 	O 	0.38730 0.91980 0.74000 -0.36200
O 	O 	0.38960 0.04740 0.61800 -0.34400
O 	O 	0.63420 0.52030 0.65790 -0.34800
O 	O 	0.64070 0.64330 0.77400 -0.33900
O 	O 	0.61270 0.41980 0.76000 -0.36200
O 	O 	0.61040 0.54740 0.88200 -0.34400
O 	O 	0.86580 0.47970 0.15790 -0.34800
O 	O 	0.85930 0.35670 0.27400 -0.33800
O 	O 	0.88730 0.58020 0.26000 -0.36200
O 	O 	0.88960 0.45260 0.38200 -0.34400
O 	O 	0.13420 0.97970 0.34210 -0.34600
O 	O 	0.14070 0.85670 0.22600 -0.33800
O 	O 	0.11270 0.08020 0.24000 -0.36200
O 	O 	0.11040 0.95260 0.11800 -0.34300
