data_crystal

_cell_length_a 22.02230
_cell_length_b 22.02230
_cell_length_c 21.62800
_cell_angle_alpha 90.00000
_cell_angle_beta  90.00000
_cell_angle_gamma 90.00000

_symmetry_space_group_name_	'P 1'
_symmetry_space_group_name_H-M	'P 1'

loop_
_symmetry_equiv_pos_as_xyz
  x,y,z

loop_
_atom_site_label
_atom_site_type_symbol
_atom_site_fract_x
_atom_site_fract_y
_atom_site_fract_z
_atom_site_charge
Cd	Cd	0.20639 0.81047 0.07110 1.21800
O 	O 	0.21190 0.70818 0.07630 -0.52100
N 	N 	0.18880 0.77114 0.97150 -0.19100
C 	C 	0.20420 0.67750 0.02520 0.25400
O 	O 	0.25437 0.90900 0.06760 -0.37800
C 	C 	0.20870 0.61460 0.02100 -0.27400
H 	H 	0.21870 0.59200 0.05640 0.12100
O 	O 	0.30600 0.82770 0.04000 -0.38500
C 	C 	0.19850 0.58400 0.96490 0.15200
H 	H 	0.20150 0.54140 0.96390 -0.02400
C 	C 	0.18480 0.61320 0.91380 -0.21100
H 	H 	0.17770 0.59120 0.87730 0.10300
C 	C 	0.18060 0.67750 0.91300 0.11300
C 	C 	0.19110 0.70930 0.96890 -0.08000
C 	C 	0.16980 0.71210 0.85980 -0.09000
H 	H 	0.16250 0.69240 0.82200 0.06700
C 	C 	0.16950 0.77480 0.86220 -0.05000
H 	H 	0.16340 0.79780 0.82610 0.05900
C 	C 	0.17840 0.80350 0.91910 0.05900
C 	C 	0.17890 0.86890 0.92760 -0.03700
H 	H 	0.19190 0.88280 0.96650 0.00800
C 	C 	0.16320 0.91140 0.88710 -0.12800
H 	H 	0.14930 0.89840 0.84820 0.07800
C 	C 	0.16570 0.97640 0.89800 0.15600
C 	C 	0.13960 0.01670 0.85790 -0.19300
H 	H 	0.12080 0.00230 0.82170 0.10200
C 	C 	0.14060 0.07900 0.87000 0.10100
H 	H 	0.12020 0.10520 0.84270 -0.01900
C 	C 	0.19520 0.06360 0.95600 0.11900
H 	H 	0.21730 0.07920 0.98970 -0.02400
C 	C 	0.19280 0.00190 0.94980 -0.20200
H 	H 	0.20950 0.97670 0.98050 0.11000
C 	C 	0.30330 0.88320 0.05090 0.29900
C 	C 	0.36080 0.92040 0.04460 -0.08700
C 	C 	0.41250 0.89160 0.02250 0.01000
H 	H 	0.41050 0.85100 0.00950 0.03800
C 	C 	0.46720 0.92330 0.01950 -0.09400
H 	H 	0.50220 0.90380 0.00450 0.06000
C 	C 	0.47040 0.98420 0.03880 0.03200
C 	C 	0.41780 0.01280 0.05700 -0.09700
H 	H 	0.41880 0.05420 0.06720 0.06400
C 	C 	0.36260 0.98100 0.06050 0.01300
H 	H 	0.32710 0.00100 0.07360 0.03700
N 	N 	0.16940 0.10290 0.91900 -0.25800
Cd	Cd	0.70639 0.31047 0.57110 1.21700
O 	O 	0.71190 0.20818 0.57630 -0.52200
N 	N 	0.68880 0.27114 0.47150 -0.19200
C 	C 	0.70420 0.17750 0.52520 0.25300
O 	O 	0.75437 0.40900 0.56760 -0.37900
C 	C 	0.70870 0.11460 0.52100 -0.27500
H 	H 	0.71870 0.09200 0.55640 0.12000
O 	O 	0.80600 0.32770 0.54000 -0.38600
C 	C 	0.69850 0.08400 0.46490 0.15100
H 	H 	0.70150 0.04140 0.46390 -0.02500
C 	C 	0.68480 0.11320 0.41380 -0.21200
H 	H 	0.67770 0.09120 0.37730 0.10200
C 	C 	0.68060 0.17750 0.41300 0.11200
C 	C 	0.69110 0.20930 0.46890 -0.08100
C 	C 	0.66980 0.21210 0.35980 -0.09100
H 	H 	0.66250 0.19240 0.32200 0.06600
C 	C 	0.66950 0.27480 0.36220 -0.05100
H 	H 	0.66340 0.29780 0.32610 0.05800
C 	C 	0.67840 0.30350 0.41910 0.05800
C 	C 	0.67890 0.36890 0.42760 -0.03800
H 	H 	0.69190 0.38280 0.46650 0.00700
C 	C 	0.66320 0.41140 0.38710 -0.12900
H 	H 	0.64930 0.39840 0.34820 0.07700
C 	C 	0.66570 0.47640 0.39800 0.15500
C 	C 	0.63960 0.51670 0.35790 -0.19400
H 	H 	0.62080 0.50230 0.32170 0.10100
C 	C 	0.64060 0.57900 0.37000 0.10000
H 	H 	0.62020 0.60520 0.34270 -0.02000
C 	C 	0.69520 0.56360 0.45600 0.11800
H 	H 	0.71730 0.57920 0.48970 -0.02500
C 	C 	0.69280 0.50190 0.44980 -0.20300
H 	H 	0.70950 0.47670 0.48050 0.10900
C 	C 	0.80330 0.38320 0.55090 0.29900
C 	C 	0.86080 0.42040 0.54460 -0.08700
C 	C 	0.91250 0.39160 0.52250 0.01000
H 	H 	0.91050 0.35100 0.50950 0.03800
C 	C 	0.96720 0.42330 0.51950 -0.09400
H 	H 	0.00220 0.40380 0.50450 0.06000
C 	C 	0.97040 0.48420 0.53880 0.03200
C 	C 	0.91780 0.51280 0.55700 -0.09700
H 	H 	0.91880 0.55420 0.56720 0.06400
C 	C 	0.86260 0.48100 0.56050 0.01300
H 	H 	0.82710 0.50100 0.57360 0.03700
N 	N 	0.66940 0.60290 0.41900 -0.25800
Cd	Cd	0.79361 0.18953 0.07110 1.21700
O 	O 	0.78810 0.29182 0.07630 -0.52200
N 	N 	0.81120 0.22886 0.97150 -0.19200
C 	C 	0.79580 0.32250 0.02520 0.25300
O 	O 	0.74563 0.09100 0.06760 -0.37900
C 	C 	0.79130 0.38540 0.02100 -0.27500
H 	H 	0.78130 0.40800 0.05640 0.12000
O 	O 	0.69400 0.17230 0.04000 -0.38600
C 	C 	0.80150 0.41600 0.96490 0.15100
H 	H 	0.79850 0.45860 0.96390 -0.02500
C 	C 	0.81520 0.38680 0.91380 -0.21200
H 	H 	0.82230 0.40880 0.87730 0.10200
C 	C 	0.81940 0.32250 0.91300 0.11200
C 	C 	0.80890 0.29070 0.96890 -0.08100
C 	C 	0.83020 0.28790 0.85980 -0.09100
H 	H 	0.83750 0.30760 0.82200 0.06600
C 	C 	0.83050 0.22520 0.86220 -0.05100
H 	H 	0.83660 0.20220 0.82610 0.05800
C 	C 	0.82160 0.19650 0.91910 0.05800
C 	C 	0.82110 0.13110 0.92760 -0.03800
H 	H 	0.80810 0.11720 0.96650 0.00700
C 	C 	0.83680 0.08860 0.88710 -0.12900
H 	H 	0.85070 0.10160 0.84820 0.07700
C 	C 	0.83430 0.02360 0.89800 0.15500
C 	C 	0.86040 0.98330 0.85790 -0.19400
H 	H 	0.87920 0.99770 0.82170 0.10100
C 	C 	0.85940 0.92100 0.87000 0.10000
H 	H 	0.87980 0.89480 0.84270 -0.02000
C 	C 	0.80480 0.93640 0.95600 0.11800
H 	H 	0.78270 0.92080 0.98970 -0.02500
C 	C 	0.80720 0.99810 0.94980 -0.20300
H 	H 	0.79050 0.02330 0.98050 0.10900
C 	C 	0.69670 0.11680 0.05090 0.29900
C 	C 	0.63920 0.07960 0.04460 -0.08700
C 	C 	0.58750 0.10840 0.02250 0.01000
H 	H 	0.58950 0.14900 0.00950 0.03800
C 	C 	0.53280 0.07670 0.01950 -0.09400
H 	H 	0.49780 0.09620 0.00450 0.06000
C 	C 	0.52960 0.01580 0.03880 0.03200
C 	C 	0.58220 0.98720 0.05700 -0.09700
H 	H 	0.58120 0.94580 0.06720 0.06400
C 	C 	0.63740 0.01900 0.06050 0.01300
H 	H 	0.67290 0.99900 0.07360 0.03700
N 	N 	0.83060 0.89710 0.91900 -0.25800
Cd	Cd	0.29361 0.68953 0.57110 1.21700
O 	O 	0.28810 0.79182 0.57630 -0.52200
N 	N 	0.31120 0.72886 0.47150 -0.19200
C 	C 	0.29580 0.82250 0.52520 0.25300
O 	O 	0.24563 0.59100 0.56760 -0.37900
C 	C 	0.29130 0.88540 0.52100 -0.27500
H 	H 	0.28130 0.90800 0.55640 0.12000
O 	O 	0.19400 0.67230 0.54000 -0.38600
C 	C 	0.30150 0.91600 0.46490 0.15100
H 	H 	0.29850 0.95860 0.46390 -0.02500
C 	C 	0.31520 0.88680 0.41380 -0.21200
H 	H 	0.32230 0.90880 0.37730 0.10200
C 	C 	0.31940 0.82250 0.41300 0.11200
C 	C 	0.30890 0.79070 0.46890 -0.08100
C 	C 	0.33020 0.78790 0.35980 -0.09100
H 	H 	0.33750 0.80760 0.32200 0.06600
C 	C 	0.33050 0.72520 0.36220 -0.05100
H 	H 	0.33660 0.70220 0.32610 0.05800
C 	C 	0.32160 0.69650 0.41910 0.05800
C 	C 	0.32110 0.63110 0.42760 -0.03800
H 	H 	0.30810 0.61720 0.46650 0.00700
C 	C 	0.33680 0.58860 0.38710 -0.12900
H 	H 	0.35070 0.60160 0.34820 0.07700
C 	C 	0.33430 0.52360 0.39800 0.15500
C 	C 	0.36040 0.48330 0.35790 -0.19400
H 	H 	0.37920 0.49770 0.32170 0.10100
C 	C 	0.35940 0.42100 0.37000 0.10000
H 	H 	0.37980 0.39480 0.34270 -0.02000
C 	C 	0.30480 0.43640 0.45600 0.11800
H 	H 	0.28270 0.42080 0.48970 -0.02500
C 	C 	0.30720 0.49810 0.44980 -0.20300
H 	H 	0.29050 0.52330 0.48050 0.10900
C 	C 	0.19670 0.61680 0.55090 0.29900
C 	C 	0.13920 0.57960 0.54460 -0.08700
C 	C 	0.08750 0.60840 0.52250 0.01000
H 	H 	0.08950 0.64900 0.50950 0.03800
C 	C 	0.03280 0.57670 0.51950 -0.09400
H 	H 	0.99780 0.59620 0.50450 0.06000
C 	C 	0.02960 0.51580 0.53880 0.03200
C 	C 	0.08220 0.48720 0.55700 -0.09700
H 	H 	0.08120 0.44580 0.56720 0.06400
C 	C 	0.13740 0.51900 0.56050 0.01300
H 	H 	0.17290 0.49900 0.57360 0.03700
N 	N 	0.33060 0.39710 0.41900 -0.25800
Cd	Cd	0.81047 0.79361 0.92890 1.21700
O 	O 	0.70818 0.78810 0.92370 -0.52200
N 	N 	0.77114 0.81120 0.02850 -0.19200
C 	C 	0.67750 0.79580 0.97480 0.25300
O 	O 	0.90900 0.74563 0.93240 -0.37900
C 	C 	0.61460 0.79130 0.97900 -0.27500
H 	H 	0.59200 0.78130 0.94360 0.12000
O 	O 	0.82770 0.69400 0.96000 -0.38600
C 	C 	0.58400 0.80150 0.03510 0.15100
H 	H 	0.54140 0.79850 0.03610 -0.02500
C 	C 	0.61320 0.81520 0.08620 -0.21200
H 	H 	0.59120 0.82230 0.12270 0.10200
C 	C 	0.67750 0.81940 0.08700 0.11200
C 	C 	0.70930 0.80890 0.03110 -0.08100
C 	C 	0.71210 0.83020 0.14020 -0.09100
H 	H 	0.69240 0.83750 0.17800 0.06600
C 	C 	0.77480 0.83050 0.13780 -0.05100
H 	H 	0.79780 0.83660 0.17390 0.05800
C 	C 	0.80350 0.82160 0.08090 0.05800
C 	C 	0.86890 0.82110 0.07240 -0.03800
H 	H 	0.88280 0.80810 0.03350 0.00700
C 	C 	0.91140 0.83680 0.11290 -0.12900
H 	H 	0.89840 0.85070 0.15180 0.07700
C 	C 	0.97640 0.83430 0.10200 0.15500
C 	C 	0.01670 0.86040 0.14210 -0.19400
H 	H 	0.00230 0.87920 0.17830 0.10100
C 	C 	0.07900 0.85940 0.13000 0.10000
H 	H 	0.10520 0.87980 0.15730 -0.02000
C 	C 	0.06360 0.80480 0.04400 0.11800
H 	H 	0.07920 0.78270 0.01030 -0.02500
C 	C 	0.00190 0.80720 0.05020 -0.20300
H 	H 	0.97670 0.79050 0.01950 0.10900
C 	C 	0.88320 0.69670 0.94910 0.29900
C 	C 	0.92040 0.63920 0.95540 -0.08700
C 	C 	0.89160 0.58750 0.97750 0.01000
H 	H 	0.85100 0.58950 0.99050 0.03800
C 	C 	0.92330 0.53280 0.98050 -0.09400
H 	H 	0.90380 0.49780 0.99550 0.06000
C 	C 	0.98420 0.52960 0.96120 0.03200
C 	C 	0.01280 0.58220 0.94300 -0.09700
H 	H 	0.05420 0.58120 0.93280 0.06400
C 	C 	0.98100 0.63740 0.93950 0.01300
H 	H 	0.00100 0.67290 0.92640 0.03700
N 	N 	0.10290 0.83060 0.08100 -0.25800
Cd	Cd	0.31047 0.29361 0.42890 1.21700
O 	O 	0.20818 0.28810 0.42370 -0.52200
N 	N 	0.27114 0.31120 0.52850 -0.19200
C 	C 	0.17750 0.29580 0.47480 0.25300
O 	O 	0.40900 0.24563 0.43240 -0.37900
C 	C 	0.11460 0.29130 0.47900 -0.27500
H 	H 	0.09200 0.28130 0.44360 0.12000
O 	O 	0.32770 0.19400 0.46000 -0.38600
C 	C 	0.08400 0.30150 0.53510 0.15100
H 	H 	0.04140 0.29850 0.53610 -0.02500
C 	C 	0.11320 0.31520 0.58620 -0.21200
H 	H 	0.09120 0.32230 0.62270 0.10200
C 	C 	0.17750 0.31940 0.58700 0.11200
C 	C 	0.20930 0.30890 0.53110 -0.08100
C 	C 	0.21210 0.33020 0.64020 -0.09100
H 	H 	0.19240 0.33750 0.67800 0.06600
C 	C 	0.27480 0.33050 0.63780 -0.05100
H 	H 	0.29780 0.33660 0.67390 0.05800
C 	C 	0.30350 0.32160 0.58090 0.05800
C 	C 	0.36890 0.32110 0.57240 -0.03800
H 	H 	0.38280 0.30810 0.53350 0.00700
C 	C 	0.41140 0.33680 0.61290 -0.12900
H 	H 	0.39840 0.35070 0.65180 0.07700
C 	C 	0.47640 0.33430 0.60200 0.15500
C 	C 	0.51670 0.36040 0.64210 -0.19400
H 	H 	0.50230 0.37920 0.67830 0.10100
C 	C 	0.57900 0.35940 0.63000 0.10000
H 	H 	0.60520 0.37980 0.65730 -0.02000
C 	C 	0.56360 0.30480 0.54400 0.11800
H 	H 	0.57920 0.28270 0.51030 -0.02500
C 	C 	0.50190 0.30720 0.55020 -0.20300
H 	H 	0.47670 0.29050 0.51950 0.10900
C 	C 	0.38320 0.19670 0.44910 0.29900
C 	C 	0.42040 0.13920 0.45540 -0.08700
C 	C 	0.39160 0.08750 0.47750 0.01000
H 	H 	0.35100 0.08950 0.49050 0.03800
C 	C 	0.42330 0.03280 0.48050 -0.09400
H 	H 	0.40380 0.99780 0.49550 0.06000
C 	C 	0.48420 0.02960 0.46120 0.03200
C 	C 	0.51280 0.08220 0.44300 -0.09700
H 	H 	0.55420 0.08120 0.43280 0.06400
C 	C 	0.48100 0.13740 0.43950 0.01300
H 	H 	0.50100 0.17290 0.42640 0.03700
N 	N 	0.60290 0.33060 0.58100 -0.25800
Cd	Cd	0.18953 0.20639 0.92890 1.21700
O 	O 	0.29182 0.21190 0.92370 -0.52200
N 	N 	0.22886 0.18880 0.02850 -0.19200
C 	C 	0.32250 0.20420 0.97480 0.25300
O 	O 	0.09100 0.25437 0.93240 -0.37900
C 	C 	0.38540 0.20870 0.97900 -0.27500
H 	H 	0.40800 0.21870 0.94360 0.12000
O 	O 	0.17230 0.30600 0.96000 -0.38600
C 	C 	0.41600 0.19850 0.03510 0.15100
H 	H 	0.45860 0.20150 0.03610 -0.02500
C 	C 	0.38680 0.18480 0.08620 -0.21200
H 	H 	0.40880 0.17770 0.12270 0.10200
C 	C 	0.32250 0.18060 0.08700 0.11200
C 	C 	0.29070 0.19110 0.03110 -0.08100
C 	C 	0.28790 0.16980 0.14020 -0.09100
H 	H 	0.30760 0.16250 0.17800 0.06600
C 	C 	0.22520 0.16950 0.13780 -0.05100
H 	H 	0.20220 0.16340 0.17390 0.05800
C 	C 	0.19650 0.17840 0.08090 0.05800
C 	C 	0.13110 0.17890 0.07240 -0.03800
H 	H 	0.11720 0.19190 0.03350 0.00700
C 	C 	0.08860 0.16320 0.11290 -0.12900
H 	H 	0.10160 0.14930 0.15180 0.07700
C 	C 	0.02360 0.16570 0.10200 0.15500
C 	C 	0.98330 0.13960 0.14210 -0.19400
H 	H 	0.99770 0.12080 0.17830 0.10100
C 	C 	0.92100 0.14060 0.13000 0.10000
H 	H 	0.89480 0.12020 0.15730 -0.02000
C 	C 	0.93640 0.19520 0.04400 0.11800
H 	H 	0.92080 0.21730 0.01030 -0.02500
C 	C 	0.99810 0.19280 0.05020 -0.20300
H 	H 	0.02330 0.20950 0.01950 0.10900
C 	C 	0.11680 0.30330 0.94910 0.29900
C 	C 	0.07960 0.36080 0.95540 -0.08700
C 	C 	0.10840 0.41250 0.97750 0.01000
H 	H 	0.14900 0.41050 0.99050 0.03800
C 	C 	0.07670 0.46720 0.98050 -0.09400
H 	H 	0.09620 0.50220 0.99550 0.06000
C 	C 	0.01580 0.47040 0.96120 0.03200
C 	C 	0.98720 0.41780 0.94300 -0.09700
H 	H 	0.94580 0.41880 0.93280 0.06400
C 	C 	0.01900 0.36260 0.93950 0.01300
H 	H 	0.99900 0.32710 0.92640 0.03700
N 	N 	0.89710 0.16940 0.08100 -0.25800
Cd	Cd	0.68953 0.70639 0.42890 1.21700
O 	O 	0.79182 0.71190 0.42370 -0.52200
N 	N 	0.72886 0.68880 0.52850 -0.19200
C 	C 	0.82250 0.70420 0.47480 0.25300
O 	O 	0.59100 0.75437 0.43240 -0.37900
C 	C 	0.88540 0.70870 0.47900 -0.27500
H 	H 	0.90800 0.71870 0.44360 0.12000
O 	O 	0.67230 0.80600 0.46000 -0.38600
C 	C 	0.91600 0.69850 0.53510 0.15100
H 	H 	0.95860 0.70150 0.53610 -0.02500
C 	C 	0.88680 0.68480 0.58620 -0.21200
H 	H 	0.90880 0.67770 0.62270 0.10200
C 	C 	0.82250 0.68060 0.58700 0.11200
C 	C 	0.79070 0.69110 0.53110 -0.08100
C 	C 	0.78790 0.66980 0.64020 -0.09100
H 	H 	0.80760 0.66250 0.67800 0.06600
C 	C 	0.72520 0.66950 0.63780 -0.05100
H 	H 	0.70220 0.66340 0.67390 0.05800
C 	C 	0.69650 0.67840 0.58090 0.05800
C 	C 	0.63110 0.67890 0.57240 -0.03800
H 	H 	0.61720 0.69190 0.53350 0.00700
C 	C 	0.58860 0.66320 0.61290 -0.12900
H 	H 	0.60160 0.64930 0.65180 0.07700
C 	C 	0.52360 0.66570 0.60200 0.15500
C 	C 	0.48330 0.63960 0.64210 -0.19400
H 	H 	0.49770 0.62080 0.67830 0.10100
C 	C 	0.42100 0.64060 0.63000 0.10000
H 	H 	0.39480 0.62020 0.65730 -0.02000
C 	C 	0.43640 0.69520 0.54400 0.11800
H 	H 	0.42080 0.71730 0.51030 -0.02500
C 	C 	0.49810 0.69280 0.55020 -0.20300
H 	H 	0.52330 0.70950 0.51950 0.10900
C 	C 	0.61680 0.80330 0.44910 0.29900
C 	C 	0.57960 0.86080 0.45540 -0.08700
C 	C 	0.60840 0.91250 0.47750 0.01000
H 	H 	0.64900 0.91050 0.49050 0.03800
C 	C 	0.57670 0.96720 0.48050 -0.09400
H 	H 	0.59620 0.00220 0.49550 0.06000
C 	C 	0.51580 0.97040 0.46120 0.03200
C 	C 	0.48720 0.91780 0.44300 -0.09700
H 	H 	0.44580 0.91880 0.43280 0.06400
C 	C 	0.51900 0.86260 0.43950 0.01300
H 	H 	0.49900 0.82710 0.42640 0.03700
N 	N 	0.39710 0.66940 0.58100 -0.25800
Cd	Cd	0.29361 0.81047 0.67890 1.21700
O 	O 	0.28810 0.70818 0.67370 -0.52200
N 	N 	0.31120 0.77114 0.77850 -0.19200
C 	C 	0.29580 0.67750 0.72480 0.25300
O 	O 	0.24563 0.90900 0.68240 -0.37900
C 	C 	0.29130 0.61460 0.72900 -0.27500
H 	H 	0.28130 0.59200 0.69360 0.12000
O 	O 	0.19400 0.82770 0.71000 -0.38600
C 	C 	0.30150 0.58400 0.78510 0.15100
H 	H 	0.29850 0.54140 0.78610 -0.02500
C 	C 	0.31520 0.61320 0.83620 -0.21200
H 	H 	0.32230 0.59120 0.87270 0.10200
C 	C 	0.31940 0.67750 0.83700 0.11200
C 	C 	0.30890 0.70930 0.78110 -0.08100
C 	C 	0.33020 0.71210 0.89020 -0.09100
H 	H 	0.33750 0.69240 0.92800 0.06600
C 	C 	0.33050 0.77480 0.88780 -0.05100
H 	H 	0.33660 0.79780 0.92390 0.05800
C 	C 	0.32160 0.80350 0.83090 0.05800
C 	C 	0.32110 0.86890 0.82240 -0.03800
H 	H 	0.30810 0.88280 0.78350 0.00700
C 	C 	0.33680 0.91140 0.86290 -0.12900
H 	H 	0.35070 0.89840 0.90180 0.07700
C 	C 	0.33430 0.97640 0.85200 0.15500
C 	C 	0.36040 0.01670 0.89210 -0.19400
H 	H 	0.37920 0.00230 0.92830 0.10100
C 	C 	0.35940 0.07900 0.88000 0.10000
H 	H 	0.37980 0.10520 0.90730 -0.02000
C 	C 	0.30480 0.06360 0.79400 0.11800
H 	H 	0.28270 0.07920 0.76030 -0.02500
C 	C 	0.30720 0.00190 0.80020 -0.20300
H 	H 	0.29050 0.97670 0.76950 0.10900
C 	C 	0.19670 0.88320 0.69910 0.29900
C 	C 	0.13920 0.92040 0.70540 -0.08700
C 	C 	0.08750 0.89160 0.72750 0.01000
H 	H 	0.08950 0.85100 0.74050 0.03800
C 	C 	0.03280 0.92330 0.73050 -0.09400
H 	H 	0.99780 0.90380 0.74550 0.06000
C 	C 	0.02960 0.98420 0.71120 0.03200
C 	C 	0.08220 0.01280 0.69300 -0.09700
H 	H 	0.08120 0.05420 0.68280 0.06400
C 	C 	0.13740 0.98100 0.68950 0.01300
H 	H 	0.17290 0.00100 0.67640 0.03700
N 	N 	0.33060 0.10290 0.83100 -0.25800
Cd	Cd	0.79361 0.31047 0.17890 1.21700
O 	O 	0.78810 0.20818 0.17370 -0.52200
N 	N 	0.81120 0.27114 0.27850 -0.19200
C 	C 	0.79580 0.17750 0.22480 0.25300
O 	O 	0.74563 0.40900 0.18240 -0.37900
C 	C 	0.79130 0.11460 0.22900 -0.27500
H 	H 	0.78130 0.09200 0.19360 0.12000
O 	O 	0.69400 0.32770 0.21000 -0.38600
C 	C 	0.80150 0.08400 0.28510 0.15100
H 	H 	0.79850 0.04140 0.28610 -0.02500
C 	C 	0.81520 0.11320 0.33620 -0.21200
H 	H 	0.82230 0.09120 0.37270 0.10200
C 	C 	0.81940 0.17750 0.33700 0.11200
C 	C 	0.80890 0.20930 0.28110 -0.08100
C 	C 	0.83020 0.21210 0.39020 -0.09100
H 	H 	0.83750 0.19240 0.42800 0.06600
C 	C 	0.83050 0.27480 0.38780 -0.05100
H 	H 	0.83660 0.29780 0.42390 0.05800
C 	C 	0.82160 0.30350 0.33090 0.05800
C 	C 	0.82110 0.36890 0.32240 -0.03800
H 	H 	0.80810 0.38280 0.28350 0.00700
C 	C 	0.83680 0.41140 0.36290 -0.12900
H 	H 	0.85070 0.39840 0.40180 0.07700
C 	C 	0.83430 0.47640 0.35200 0.15500
C 	C 	0.86040 0.51670 0.39210 -0.19400
H 	H 	0.87920 0.50230 0.42830 0.10100
C 	C 	0.85940 0.57900 0.38000 0.10000
H 	H 	0.87980 0.60520 0.40730 -0.02000
C 	C 	0.80480 0.56360 0.29400 0.11800
H 	H 	0.78270 0.57920 0.26030 -0.02500
C 	C 	0.80720 0.50190 0.30020 -0.20300
H 	H 	0.79050 0.47670 0.26950 0.10900
C 	C 	0.69670 0.38320 0.19910 0.29900
C 	C 	0.63920 0.42040 0.20540 -0.08700
C 	C 	0.58750 0.39160 0.22750 0.01000
H 	H 	0.58950 0.35100 0.24050 0.03800
C 	C 	0.53280 0.42330 0.23050 -0.09400
H 	H 	0.49780 0.40380 0.24550 0.06000
C 	C 	0.52960 0.48420 0.21120 0.03200
C 	C 	0.58220 0.51280 0.19300 -0.09700
H 	H 	0.58120 0.55420 0.18280 0.06400
C 	C 	0.63740 0.48100 0.18950 0.01300
H 	H 	0.67290 0.50100 0.17640 0.03700
N 	N 	0.83060 0.60290 0.33100 -0.25800
Cd	Cd	0.70639 0.18953 0.67890 1.21700
O 	O 	0.71190 0.29182 0.67370 -0.52200
N 	N 	0.68880 0.22886 0.77850 -0.19200
C 	C 	0.70420 0.32250 0.72480 0.25300
O 	O 	0.75437 0.09100 0.68240 -0.37900
C 	C 	0.70870 0.38540 0.72900 -0.27500
H 	H 	0.71870 0.40800 0.69360 0.12000
O 	O 	0.80600 0.17230 0.71000 -0.38600
C 	C 	0.69850 0.41600 0.78510 0.15100
H 	H 	0.70150 0.45860 0.78610 -0.02500
C 	C 	0.68480 0.38680 0.83620 -0.21200
H 	H 	0.67770 0.40880 0.87270 0.10200
C 	C 	0.68060 0.32250 0.83700 0.11200
C 	C 	0.69110 0.29070 0.78110 -0.08100
C 	C 	0.66980 0.28790 0.89020 -0.09100
H 	H 	0.66250 0.30760 0.92800 0.06600
C 	C 	0.66950 0.22520 0.88780 -0.05100
H 	H 	0.66340 0.20220 0.92390 0.05800
C 	C 	0.67840 0.19650 0.83090 0.05800
C 	C 	0.67890 0.13110 0.82240 -0.03800
H 	H 	0.69190 0.11720 0.78350 0.00700
C 	C 	0.66320 0.08860 0.86290 -0.12900
H 	H 	0.64930 0.10160 0.90180 0.07700
C 	C 	0.66570 0.02360 0.85200 0.15500
C 	C 	0.63960 0.98330 0.89210 -0.19400
H 	H 	0.62080 0.99770 0.92830 0.10100
C 	C 	0.64060 0.92100 0.88000 0.10000
H 	H 	0.62020 0.89480 0.90730 -0.02000
C 	C 	0.69520 0.93640 0.79400 0.11800
H 	H 	0.71730 0.92080 0.76030 -0.02500
C 	C 	0.69280 0.99810 0.80020 -0.20300
H 	H 	0.70950 0.02330 0.76950 0.10900
C 	C 	0.80330 0.11680 0.69910 0.29900
C 	C 	0.86080 0.07960 0.70540 -0.08700
C 	C 	0.91250 0.10840 0.72750 0.01000
H 	H 	0.91050 0.14900 0.74050 0.03800
C 	C 	0.96720 0.07670 0.73050 -0.09400
H 	H 	0.00220 0.09620 0.74550 0.06000
C 	C 	0.97040 0.01580 0.71120 0.03200
C 	C 	0.91780 0.98720 0.69300 -0.09700
H 	H 	0.91880 0.94580 0.68280 0.06400
C 	C 	0.86260 0.01900 0.68950 0.01300
H 	H 	0.82710 0.99900 0.67640 0.03700
N 	N 	0.66940 0.89710 0.83100 -0.25800
Cd	Cd	0.20639 0.68953 0.17890 1.21700
O 	O 	0.21190 0.79182 0.17370 -0.52200
N 	N 	0.18880 0.72886 0.27850 -0.19200
C 	C 	0.20420 0.82250 0.22480 0.25300
O 	O 	0.25437 0.59100 0.18240 -0.37900
C 	C 	0.20870 0.88540 0.22900 -0.27500
H 	H 	0.21870 0.90800 0.19360 0.12000
O 	O 	0.30600 0.67230 0.21000 -0.38600
C 	C 	0.19850 0.91600 0.28510 0.15100
H 	H 	0.20150 0.95860 0.28610 -0.02500
C 	C 	0.18480 0.88680 0.33620 -0.21200
H 	H 	0.17770 0.90880 0.37270 0.10200
C 	C 	0.18060 0.82250 0.33700 0.11200
C 	C 	0.19110 0.79070 0.28110 -0.08100
C 	C 	0.16980 0.78790 0.39020 -0.09100
H 	H 	0.16250 0.80760 0.42800 0.06600
C 	C 	0.16950 0.72520 0.38780 -0.05100
H 	H 	0.16340 0.70220 0.42390 0.05800
C 	C 	0.17840 0.69650 0.33090 0.05800
C 	C 	0.17890 0.63110 0.32240 -0.03800
H 	H 	0.19190 0.61720 0.28350 0.00700
C 	C 	0.16320 0.58860 0.36290 -0.12900
H 	H 	0.14930 0.60160 0.40180 0.07700
C 	C 	0.16570 0.52360 0.35200 0.15500
C 	C 	0.13960 0.48330 0.39210 -0.19400
H 	H 	0.12080 0.49770 0.42830 0.10100
C 	C 	0.14060 0.42100 0.38000 0.10000
H 	H 	0.12020 0.39480 0.40730 -0.02000
C 	C 	0.19520 0.43640 0.29400 0.11800
H 	H 	0.21730 0.42080 0.26030 -0.02500
C 	C 	0.19280 0.49810 0.30020 -0.20300
H 	H 	0.20950 0.52330 0.26950 0.10900
C 	C 	0.30330 0.61680 0.19910 0.29900
C 	C 	0.36080 0.57960 0.20540 -0.08700
C 	C 	0.41250 0.60840 0.22750 0.01000
H 	H 	0.41050 0.64900 0.24050 0.03800
C 	C 	0.46720 0.57670 0.23050 -0.09400
H 	H 	0.50220 0.59620 0.24550 0.06000
C 	C 	0.47040 0.51580 0.21120 0.03200
C 	C 	0.41780 0.48720 0.19300 -0.09700
H 	H 	0.41880 0.44580 0.18280 0.06400
C 	C 	0.36260 0.51900 0.18950 0.01300
H 	H 	0.32710 0.49900 0.17640 0.03700
N 	N 	0.16940 0.39710 0.33100 -0.25800
Cd	Cd	0.68953 0.79361 0.82110 1.21700
O 	O 	0.79182 0.78810 0.82630 -0.52200
N 	N 	0.72886 0.81120 0.72150 -0.19200
C 	C 	0.82250 0.79580 0.77520 0.25300
O 	O 	0.59100 0.74563 0.81760 -0.37900
C 	C 	0.88540 0.79130 0.77100 -0.27500
H 	H 	0.90800 0.78130 0.80640 0.12000
O 	O 	0.67230 0.69400 0.79000 -0.38600
C 	C 	0.91600 0.80150 0.71490 0.15100
H 	H 	0.95860 0.79850 0.71390 -0.02500
C 	C 	0.88680 0.81520 0.66380 -0.21200
H 	H 	0.90880 0.82230 0.62730 0.10200
C 	C 	0.82250 0.81940 0.66300 0.11200
C 	C 	0.79070 0.80890 0.71890 -0.08100
C 	C 	0.78790 0.83020 0.60980 -0.09100
H 	H 	0.80760 0.83750 0.57200 0.06600
C 	C 	0.72520 0.83050 0.61220 -0.05100
H 	H 	0.70220 0.83660 0.57610 0.05800
C 	C 	0.69650 0.82160 0.66910 0.05800
C 	C 	0.63110 0.82110 0.67760 -0.03800
H 	H 	0.61720 0.80810 0.71650 0.00700
C 	C 	0.58860 0.83680 0.63710 -0.12900
H 	H 	0.60160 0.85070 0.59820 0.07700
C 	C 	0.52360 0.83430 0.64800 0.15500
C 	C 	0.48330 0.86040 0.60790 -0.19400
H 	H 	0.49770 0.87920 0.57170 0.10100
C 	C 	0.42100 0.85940 0.62000 0.10000
H 	H 	0.39480 0.87980 0.59270 -0.02000
C 	C 	0.43640 0.80480 0.70600 0.11800
H 	H 	0.42080 0.78270 0.73970 -0.02500
C 	C 	0.49810 0.80720 0.69980 -0.20300
H 	H 	0.52330 0.79050 0.73050 0.10900
C 	C 	0.61680 0.69670 0.80090 0.29900
C 	C 	0.57960 0.63920 0.79460 -0.08700
C 	C 	0.60840 0.58750 0.77250 0.01000
H 	H 	0.64900 0.58950 0.75950 0.03800
C 	C 	0.57670 0.53280 0.76950 -0.09400
H 	H 	0.59620 0.49780 0.75450 0.06000
C 	C 	0.51580 0.52960 0.78880 0.03200
C 	C 	0.48720 0.58220 0.80700 -0.09700
H 	H 	0.44580 0.58120 0.81720 0.06400
C 	C 	0.51900 0.63740 0.81050 0.01300
H 	H 	0.49900 0.67290 0.82360 0.03700
N 	N 	0.39710 0.83060 0.66900 -0.25800
Cd	Cd	0.18953 0.29361 0.32110 1.21700
O 	O 	0.29182 0.28810 0.32630 -0.52200
N 	N 	0.22886 0.31120 0.22150 -0.19200
C 	C 	0.32250 0.29580 0.27520 0.25300
O 	O 	0.09100 0.24563 0.31760 -0.37900
C 	C 	0.38540 0.29130 0.27100 -0.27500
H 	H 	0.40800 0.28130 0.30640 0.12000
O 	O 	0.17230 0.19400 0.29000 -0.38600
C 	C 	0.41600 0.30150 0.21490 0.15100
H 	H 	0.45860 0.29850 0.21390 -0.02500
C 	C 	0.38680 0.31520 0.16380 -0.21200
H 	H 	0.40880 0.32230 0.12730 0.10200
C 	C 	0.32250 0.31940 0.16300 0.11200
C 	C 	0.29070 0.30890 0.21890 -0.08100
C 	C 	0.28790 0.33020 0.10980 -0.09100
H 	H 	0.30760 0.33750 0.07200 0.06600
C 	C 	0.22520 0.33050 0.11220 -0.05100
H 	H 	0.20220 0.33660 0.07610 0.05800
C 	C 	0.19650 0.32160 0.16910 0.05800
C 	C 	0.13110 0.32110 0.17760 -0.03800
H 	H 	0.11720 0.30810 0.21650 0.00700
C 	C 	0.08860 0.33680 0.13710 -0.12900
H 	H 	0.10160 0.35070 0.09820 0.07700
C 	C 	0.02360 0.33430 0.14800 0.15500
C 	C 	0.98330 0.36040 0.10790 -0.19400
H 	H 	0.99770 0.37920 0.07170 0.10100
C 	C 	0.92100 0.35940 0.12000 0.10000
H 	H 	0.89480 0.37980 0.09270 -0.02000
C 	C 	0.93640 0.30480 0.20600 0.11800
H 	H 	0.92080 0.28270 0.23970 -0.02500
C 	C 	0.99810 0.30720 0.19980 -0.20300
H 	H 	0.02330 0.29050 0.23050 0.10900
C 	C 	0.11680 0.19670 0.30090 0.29900
C 	C 	0.07960 0.13920 0.29460 -0.08700
C 	C 	0.10840 0.08750 0.27250 0.01000
H 	H 	0.14900 0.08950 0.25950 0.03800
C 	C 	0.07670 0.03280 0.26950 -0.09400
H 	H 	0.09620 0.99780 0.25450 0.06000
C 	C 	0.01580 0.02960 0.28880 0.03200
C 	C 	0.98720 0.08220 0.30700 -0.09700
H 	H 	0.94580 0.08120 0.31720 0.06400
C 	C 	0.01900 0.13740 0.31050 0.01300
H 	H 	0.99900 0.17290 0.32360 0.03700
N 	N 	0.89710 0.33060 0.16900 -0.25800
Cd	Cd	0.31047 0.20639 0.82110 1.21700
O 	O 	0.20818 0.21190 0.82630 -0.52200
N 	N 	0.27114 0.18880 0.72150 -0.19200
C 	C 	0.17750 0.20420 0.77520 0.25300
O 	O 	0.40900 0.25437 0.81760 -0.37900
C 	C 	0.11460 0.20870 0.77100 -0.27500
H 	H 	0.09200 0.21870 0.80640 0.12000
O 	O 	0.32770 0.30600 0.79000 -0.38600
C 	C 	0.08400 0.19850 0.71490 0.15100
H 	H 	0.04140 0.20150 0.71390 -0.02500
C 	C 	0.11320 0.18480 0.66380 -0.21200
H 	H 	0.09120 0.17770 0.62730 0.10200
C 	C 	0.17750 0.18060 0.66300 0.11200
C 	C 	0.20930 0.19110 0.71890 -0.08100
C 	C 	0.21210 0.16980 0.60980 -0.09100
H 	H 	0.19240 0.16250 0.57200 0.06600
C 	C 	0.27480 0.16950 0.61220 -0.05100
H 	H 	0.29780 0.16340 0.57610 0.05800
C 	C 	0.30350 0.17840 0.66910 0.05800
C 	C 	0.36890 0.17890 0.67760 -0.03800
H 	H 	0.38280 0.19190 0.71650 0.00700
C 	C 	0.41140 0.16320 0.63710 -0.12900
H 	H 	0.39840 0.14930 0.59820 0.07700
C 	C 	0.47640 0.16570 0.64800 0.15500
C 	C 	0.51670 0.13960 0.60790 -0.19400
H 	H 	0.50230 0.12080 0.57170 0.10100
C 	C 	0.57900 0.14060 0.62000 0.10000
H 	H 	0.60520 0.12020 0.59270 -0.02000
C 	C 	0.56360 0.19520 0.70600 0.11800
H 	H 	0.57920 0.21730 0.73970 -0.02500
C 	C 	0.50190 0.19280 0.69980 -0.20300
H 	H 	0.47670 0.20950 0.73050 0.10900
C 	C 	0.38320 0.30330 0.80090 0.29900
C 	C 	0.42040 0.36080 0.79460 -0.08700
C 	C 	0.39160 0.41250 0.77250 0.01000
H 	H 	0.35100 0.41050 0.75950 0.03800
C 	C 	0.42330 0.46720 0.76950 -0.09400
H 	H 	0.40380 0.50220 0.75450 0.06000
C 	C 	0.48420 0.47040 0.78880 0.03200
C 	C 	0.51280 0.41780 0.80700 -0.09700
H 	H 	0.55420 0.41880 0.81720 0.06400
C 	C 	0.48100 0.36260 0.81050 0.01300
H 	H 	0.50100 0.32710 0.82360 0.03700
N 	N 	0.60290 0.16940 0.66900 -0.25800
Cd	Cd	0.81047 0.70639 0.32110 1.21700
O 	O 	0.70818 0.71190 0.32630 -0.52200
N 	N 	0.77114 0.68880 0.22150 -0.19200
C 	C 	0.67750 0.70420 0.27520 0.25300
O 	O 	0.90900 0.75437 0.31760 -0.37900
C 	C 	0.61460 0.70870 0.27100 -0.27500
H 	H 	0.59200 0.71870 0.30640 0.12000
O 	O 	0.82770 0.80600 0.29000 -0.38600
C 	C 	0.58400 0.69850 0.21490 0.15100
H 	H 	0.54140 0.70150 0.21390 -0.02500
C 	C 	0.61320 0.68480 0.16380 -0.21200
H 	H 	0.59120 0.67770 0.12730 0.10200
C 	C 	0.67750 0.68060 0.16300 0.11200
C 	C 	0.70930 0.69110 0.21890 -0.08100
C 	C 	0.71210 0.66980 0.10980 -0.09100
H 	H 	0.69240 0.66250 0.07200 0.06600
C 	C 	0.77480 0.66950 0.11220 -0.05100
H 	H 	0.79780 0.66340 0.07610 0.05800
C 	C 	0.80350 0.67840 0.16910 0.05800
C 	C 	0.86890 0.67890 0.17760 -0.03800
H 	H 	0.88280 0.69190 0.21650 0.00700
C 	C 	0.91140 0.66320 0.13710 -0.12900
H 	H 	0.89840 0.64930 0.09820 0.07700
C 	C 	0.97640 0.66570 0.14800 0.15500
C 	C 	0.01670 0.63960 0.10790 -0.19400
H 	H 	0.00230 0.62080 0.07170 0.10100
C 	C 	0.07900 0.64060 0.12000 0.10000
H 	H 	0.10520 0.62020 0.09270 -0.02000
C 	C 	0.06360 0.69520 0.20600 0.11800
H 	H 	0.07920 0.71730 0.23970 -0.02500
C 	C 	0.00190 0.69280 0.19980 -0.20300
H 	H 	0.97670 0.70950 0.23050 0.10900
C 	C 	0.88320 0.80330 0.30090 0.29900
C 	C 	0.92040 0.86080 0.29460 -0.08700
C 	C 	0.89160 0.91250 0.27250 0.01000
H 	H 	0.85100 0.91050 0.25950 0.03800
C 	C 	0.92330 0.96720 0.26950 -0.09400
H 	H 	0.90380 0.00220 0.25450 0.06000
C 	C 	0.98420 0.97040 0.28880 0.03200
C 	C 	0.01280 0.91780 0.30700 -0.09700
H 	H 	0.05420 0.91880 0.31720 0.06400
C 	C 	0.98100 0.86260 0.31050 0.01300
H 	H 	0.00100 0.82710 0.32360 0.03700
N 	N 	0.10290 0.66940 0.16900 -0.25800
