data_crystal

_cell_length_a 30.55390
_cell_length_b 30.55390
_cell_length_c 30.55390
_cell_angle_alpha 90.00000
_cell_angle_beta  90.00000
_cell_angle_gamma 90.00000

_symmetry_space_group_name_	'P 1'
_symmetry_space_group_name_H-M	'P 1'

loop_
_symmetry_equiv_pos_as_xyz
  x,y,z

loop_
_atom_site_label
_atom_site_type_symbol
_atom_site_fract_x
_atom_site_fract_y
_atom_site_fract_z
_atom_site_charge
N 	N 	0.72870 0.53750 0.11680 -0.31300
N 	N 	0.80890 0.61990 0.13760 -0.26000
C 	C 	0.69350 0.52310 0.13970 -0.02200
H 	H 	0.67220 0.54120 0.15340 0.00500
C 	C 	0.85180 0.61120 0.11380 -0.04500
H 	H 	0.85570 0.60660 0.08330 0.00200
C 	C 	0.83240 0.66290 0.13060 -0.03000
H 	H 	0.82650 0.68480 0.10930 0.00100
H 	H 	0.80490 0.46980 0.08380 0.12000
H 	H 	0.81400 0.51540 0.10780 0.14500
H 	H 	0.79540 0.51480 0.05890 0.14200
N 	N 	0.22870 0.03750 0.61680 -0.31100
N 	N 	0.30890 0.11990 0.63760 -0.26000
C 	C 	0.19350 0.02310 0.63970 0.00600
H 	H 	0.17220 0.04120 0.65340 -0.00100
C 	C 	0.35180 0.11120 0.61380 -0.04200
H 	H 	0.35570 0.10660 0.58330 0.00400
C 	C 	0.33240 0.16290 0.63060 -0.03100
H 	H 	0.32650 0.18480 0.60930 0.00100
H 	H 	0.30490 0.96980 0.58380 0.09400
H 	H 	0.31400 0.01540 0.60780 0.13000
H 	H 	0.29540 0.01480 0.55890 0.12500
N 	N 	0.27130 0.46250 0.11680 -0.31300
N 	N 	0.19110 0.38010 0.13760 -0.26100
C 	C 	0.30650 0.47690 0.13970 -0.02200
H 	H 	0.32780 0.45880 0.15340 0.00500
C 	C 	0.14820 0.38880 0.11380 -0.04400
H 	H 	0.14430 0.39340 0.08330 0.00400
C 	C 	0.16760 0.33710 0.13060 -0.02900
H 	H 	0.17350 0.31520 0.10930 0.00300
H 	H 	0.19510 0.53020 0.08380 0.12200
H 	H 	0.18600 0.48460 0.10780 0.14600
H 	H 	0.20460 0.48520 0.05890 0.14300
N 	N 	0.77130 0.96250 0.61680 -0.31000
N 	N 	0.69110 0.88010 0.63760 -0.26000
C 	C 	0.80650 0.97690 0.63970 -0.05300
H 	H 	0.82780 0.95880 0.65340 0.01000
C 	C 	0.64820 0.88880 0.61380 -0.04300
H 	H 	0.64430 0.89340 0.58330 0.00200
C 	C 	0.66760 0.83710 0.63060 -0.03000
H 	H 	0.67350 0.81520 0.60930 0.00100
H 	H 	0.69510 0.03020 0.58380 0.08400
H 	H 	0.68600 0.98460 0.60780 0.10000
H 	H 	0.70460 0.98520 0.55890 0.09300
N 	N 	0.27130 0.53750 0.88320 -0.31200
N 	N 	0.19110 0.61990 0.86240 -0.26100
C 	C 	0.30650 0.52310 0.86030 -0.02300
H 	H 	0.32780 0.54120 0.84660 0.00500
C 	C 	0.14820 0.61120 0.88620 -0.04400
H 	H 	0.14430 0.60660 0.91670 0.00000
C 	C 	0.16760 0.66290 0.86940 -0.03000
H 	H 	0.17350 0.68480 0.89070 -0.00100
H 	H 	0.19510 0.46980 0.91620 0.11500
H 	H 	0.18600 0.51540 0.89220 0.14000
H 	H 	0.20460 0.51480 0.94110 0.13300
N 	N 	0.77130 0.03750 0.38320 -0.31100
N 	N 	0.69110 0.11990 0.36240 -0.26000
C 	C 	0.80650 0.02310 0.36030 0.00500
H 	H 	0.82780 0.04120 0.34660 -0.00200
C 	C 	0.64820 0.11120 0.38620 -0.04200
H 	H 	0.64430 0.10660 0.41670 0.00500
C 	C 	0.66760 0.16290 0.36940 -0.03000
H 	H 	0.67350 0.18480 0.39070 0.00200
H 	H 	0.69510 0.96980 0.41620 0.09500
H 	H 	0.68600 0.01540 0.39220 0.13100
H 	H 	0.70460 0.01480 0.44110 0.12600
N 	N 	0.72870 0.46250 0.88320 -0.31100
N 	N 	0.80890 0.38010 0.86240 -0.25900
C 	C 	0.69350 0.47690 0.86030 -0.02200
H 	H 	0.67220 0.45880 0.84660 0.00600
C 	C 	0.85180 0.38880 0.88620 -0.04400
H 	H 	0.85570 0.39340 0.91670 -0.00000
C 	C 	0.83240 0.33710 0.86940 -0.03000
H 	H 	0.82650 0.31520 0.89070 -0.00100
H 	H 	0.80490 0.53020 0.91620 0.11500
H 	H 	0.81400 0.48460 0.89220 0.14000
H 	H 	0.79540 0.48520 0.94110 0.13300
N 	N 	0.22870 0.96250 0.38320 -0.30900
N 	N 	0.30890 0.88010 0.36240 -0.25900
C 	C 	0.19350 0.97690 0.36030 -0.05100
H 	H 	0.17220 0.95880 0.34660 0.01300
C 	C 	0.35180 0.88880 0.38620 -0.04200
H 	H 	0.35570 0.89340 0.41670 0.00300
C 	C 	0.33240 0.83710 0.36940 -0.02900
H 	H 	0.32650 0.81520 0.39070 0.00200
H 	H 	0.30490 0.03020 0.41620 0.08500
H 	H 	0.31400 0.98460 0.39220 0.10100
H 	H 	0.29540 0.98520 0.44110 0.09400
N 	N 	0.11680 0.72870 0.53750 -0.31200
N 	N 	0.13760 0.80890 0.61990 -0.25900
C 	C 	0.13970 0.69350 0.52310 -0.02100
H 	H 	0.15340 0.67220 0.54120 0.00600
C 	C 	0.11380 0.85180 0.61120 -0.04400
H 	H 	0.08330 0.85570 0.60660 0.00300
C 	C 	0.13060 0.83240 0.66290 -0.02900
H 	H 	0.10930 0.82650 0.68480 0.00200
H 	H 	0.08380 0.80490 0.46980 0.12100
H 	H 	0.10780 0.81400 0.51540 0.14600
H 	H 	0.05890 0.79540 0.51480 0.14300
N 	N 	0.61680 0.22870 0.03750 -0.31000
N 	N 	0.63760 0.30890 0.11990 -0.25900
C 	C 	0.63970 0.19350 0.02310 0.00700
H 	H 	0.65340 0.17220 0.04120 -0.00000
C 	C 	0.61380 0.35180 0.11120 -0.04100
H 	H 	0.58330 0.35570 0.10660 0.00500
C 	C 	0.63060 0.33240 0.16290 -0.03000
H 	H 	0.60930 0.32650 0.18480 0.00200
H 	H 	0.58380 0.30490 0.96980 0.09500
H 	H 	0.60780 0.31400 0.01540 0.13100
H 	H 	0.55890 0.29540 0.01480 0.12600
N 	N 	0.11680 0.27130 0.46250 -0.31200
N 	N 	0.13760 0.19110 0.38010 -0.26000
C 	C 	0.13970 0.30650 0.47690 -0.02100
H 	H 	0.15340 0.32780 0.45880 0.00600
C 	C 	0.11380 0.14820 0.38880 -0.04300
H 	H 	0.08330 0.14430 0.39340 0.00500
C 	C 	0.13060 0.16760 0.33710 -0.02800
H 	H 	0.10930 0.17350 0.31520 0.00400
H 	H 	0.08380 0.19510 0.53020 0.12300
H 	H 	0.10780 0.18600 0.48460 0.14700
H 	H 	0.05890 0.20460 0.48520 0.14400
N 	N 	0.61680 0.77130 0.96250 -0.30900
N 	N 	0.63760 0.69110 0.88010 -0.25900
C 	C 	0.63970 0.80650 0.97690 -0.05200
H 	H 	0.65340 0.82780 0.95880 0.01100
C 	C 	0.61380 0.64820 0.88880 -0.04200
H 	H 	0.58330 0.64430 0.89340 0.00300
C 	C 	0.63060 0.66760 0.83710 -0.02900
H 	H 	0.60930 0.67350 0.81520 0.00200
H 	H 	0.58380 0.69510 0.03020 0.08500
H 	H 	0.60780 0.68600 0.98460 0.10100
H 	H 	0.55890 0.70460 0.98520 0.09400
N 	N 	0.88320 0.27130 0.53750 -0.31100
N 	N 	0.86240 0.19110 0.61990 -0.26000
C 	C 	0.86030 0.30650 0.52310 -0.02200
H 	H 	0.84660 0.32780 0.54120 0.00600
C 	C 	0.88620 0.14820 0.61120 -0.04300
H 	H 	0.91670 0.14430 0.60660 0.00100
C 	C 	0.86940 0.16760 0.66290 -0.02900
H 	H 	0.89070 0.17350 0.68480 0.00000
H 	H 	0.91620 0.19510 0.46980 0.11600
H 	H 	0.89220 0.18600 0.51540 0.14100
H 	H 	0.94110 0.20460 0.51480 0.13400
N 	N 	0.38320 0.77130 0.03750 -0.31000
N 	N 	0.36240 0.69110 0.11990 -0.25900
C 	C 	0.36030 0.80650 0.02310 0.00600
H 	H 	0.34660 0.82780 0.04120 -0.00100
C 	C 	0.38620 0.64820 0.11120 -0.04100
H 	H 	0.41670 0.64430 0.10660 0.00500
C 	C 	0.36940 0.66760 0.16290 -0.03000
H 	H 	0.39070 0.67350 0.18480 0.00200
H 	H 	0.41620 0.69510 0.96980 0.09500
H 	H 	0.39220 0.68600 0.01540 0.13100
H 	H 	0.44110 0.70460 0.01480 0.12600
N 	N 	0.88320 0.72870 0.46250 -0.31100
N 	N 	0.86240 0.80890 0.38010 -0.25900
C 	C 	0.86030 0.69350 0.47690 -0.02200
H 	H 	0.84660 0.67220 0.45880 0.00600
C 	C 	0.88620 0.85180 0.38880 -0.04400
H 	H 	0.91670 0.85570 0.39340 -0.00000
C 	C 	0.86940 0.83240 0.33710 -0.03000
H 	H 	0.89070 0.82650 0.31520 -0.00100
H 	H 	0.91620 0.80490 0.53020 0.11500
H 	H 	0.89220 0.81400 0.48460 0.14000
H 	H 	0.94110 0.79540 0.48520 0.13300
N 	N 	0.38320 0.22870 0.96250 -0.30900
N 	N 	0.36240 0.30890 0.88010 -0.25900
C 	C 	0.36030 0.19350 0.97690 -0.05100
H 	H 	0.34660 0.17220 0.95880 0.01300
C 	C 	0.38620 0.35180 0.88880 -0.04200
H 	H 	0.41670 0.35570 0.89340 0.00300
C 	C 	0.36940 0.33240 0.83710 -0.02900
H 	H 	0.39070 0.32650 0.81520 0.00200
H 	H 	0.41620 0.30490 0.03020 0.08500
H 	H 	0.39220 0.31400 0.98460 0.10100
H 	H 	0.44110 0.29540 0.98520 0.09400
N 	N 	0.53750 0.11680 0.72870 -0.31200
N 	N 	0.61990 0.13760 0.80890 -0.25900
C 	C 	0.52310 0.13970 0.69350 -0.02100
H 	H 	0.54120 0.15340 0.67220 0.00600
C 	C 	0.61120 0.11380 0.85180 -0.04400
H 	H 	0.60660 0.08330 0.85570 0.00300
C 	C 	0.66290 0.13060 0.83240 -0.02900
H 	H 	0.68480 0.10930 0.82650 0.00200
H 	H 	0.46980 0.08380 0.80490 0.12100
H 	H 	0.51540 0.10780 0.81400 0.14600
H 	H 	0.51480 0.05890 0.79540 0.14300
N 	N 	0.03750 0.61680 0.22870 -0.31000
N 	N 	0.11990 0.63760 0.30890 -0.25900
C 	C 	0.02310 0.63970 0.19350 0.00700
H 	H 	0.04120 0.65340 0.17220 -0.00000
C 	C 	0.11120 0.61380 0.35180 -0.04100
H 	H 	0.10660 0.58330 0.35570 0.00500
C 	C 	0.16290 0.63060 0.33240 -0.03000
H 	H 	0.18480 0.60930 0.32650 0.00200
H 	H 	0.96980 0.58380 0.30490 0.09500
H 	H 	0.01540 0.60780 0.31400 0.13100
H 	H 	0.01480 0.55890 0.29540 0.12600
N 	N 	0.46250 0.11680 0.27130 -0.31200
N 	N 	0.38010 0.13760 0.19110 -0.26000
C 	C 	0.47690 0.13970 0.30650 -0.02100
H 	H 	0.45880 0.15340 0.32780 0.00600
C 	C 	0.38880 0.11380 0.14820 -0.04300
H 	H 	0.39340 0.08330 0.14430 0.00500
C 	C 	0.33710 0.13060 0.16760 -0.02800
H 	H 	0.31520 0.10930 0.17350 0.00400
H 	H 	0.53020 0.08380 0.19510 0.12300
H 	H 	0.48460 0.10780 0.18600 0.14700
H 	H 	0.48520 0.05890 0.20460 0.14400
N 	N 	0.96250 0.61680 0.77130 -0.30900
N 	N 	0.88010 0.63760 0.69110 -0.25900
C 	C 	0.97690 0.63970 0.80650 -0.05200
H 	H 	0.95880 0.65340 0.82780 0.01100
C 	C 	0.88880 0.61380 0.64820 -0.04200
H 	H 	0.89340 0.58330 0.64430 0.00300
C 	C 	0.83710 0.63060 0.66760 -0.02900
H 	H 	0.81520 0.60930 0.67350 0.00200
H 	H 	0.03020 0.58380 0.69510 0.08500
H 	H 	0.98460 0.60780 0.68600 0.10100
H 	H 	0.98520 0.55890 0.70460 0.09400
N 	N 	0.53750 0.88320 0.27130 -0.31100
N 	N 	0.61990 0.86240 0.19110 -0.26000
C 	C 	0.52310 0.86030 0.30650 -0.02200
H 	H 	0.54120 0.84660 0.32780 0.00600
C 	C 	0.61120 0.88620 0.14820 -0.04300
H 	H 	0.60660 0.91670 0.14430 0.00100
C 	C 	0.66290 0.86940 0.16760 -0.02900
H 	H 	0.68480 0.89070 0.17350 0.00000
H 	H 	0.46980 0.91620 0.19510 0.11600
H 	H 	0.51540 0.89220 0.18600 0.14100
H 	H 	0.51480 0.94110 0.20460 0.13400
N 	N 	0.03750 0.38320 0.77130 -0.31000
N 	N 	0.11990 0.36240 0.69110 -0.25900
C 	C 	0.02310 0.36030 0.80650 0.00600
H 	H 	0.04120 0.34660 0.82780 -0.00100
C 	C 	0.11120 0.38620 0.64820 -0.04100
H 	H 	0.10660 0.41670 0.64430 0.00500
C 	C 	0.16290 0.36940 0.66760 -0.03000
H 	H 	0.18480 0.39070 0.67350 0.00200
H 	H 	0.96980 0.41620 0.69510 0.09500
H 	H 	0.01540 0.39220 0.68600 0.13100
H 	H 	0.01480 0.44110 0.70460 0.12600
N 	N 	0.46250 0.88320 0.72870 -0.31100
N 	N 	0.38010 0.86240 0.80890 -0.25900
C 	C 	0.47690 0.86030 0.69350 -0.02200
H 	H 	0.45880 0.84660 0.67220 0.00600
C 	C 	0.38880 0.88620 0.85180 -0.04400
H 	H 	0.39340 0.91670 0.85570 -0.00000
C 	C 	0.33710 0.86940 0.83240 -0.03000
H 	H 	0.31520 0.89070 0.82650 -0.00100
H 	H 	0.53020 0.91620 0.80490 0.11500
H 	H 	0.48460 0.89220 0.81400 0.14000
H 	H 	0.48520 0.94110 0.79540 0.13300
N 	N 	0.96250 0.38320 0.22870 -0.30900
N 	N 	0.88010 0.36240 0.30890 -0.25900
C 	C 	0.97690 0.36030 0.19350 -0.05100
H 	H 	0.95880 0.34660 0.17220 0.01300
C 	C 	0.88880 0.38620 0.35180 -0.04200
H 	H 	0.89340 0.41670 0.35570 0.00300
C 	C 	0.83710 0.36940 0.33240 -0.02900
H 	H 	0.81520 0.39070 0.32650 0.00200
H 	H 	0.03020 0.41620 0.30490 0.08500
H 	H 	0.98460 0.39220 0.31400 0.10100
H 	H 	0.98520 0.44110 0.29540 0.09400
N 	N 	0.53750 0.72870 0.88320 -0.31100
N 	N 	0.61990 0.80890 0.86240 -0.25900
C 	C 	0.52310 0.69350 0.86030 -0.02200
H 	H 	0.54120 0.67220 0.84660 0.00600
C 	C 	0.61120 0.85180 0.88620 -0.04400
H 	H 	0.60660 0.85570 0.91670 -0.00000
C 	C 	0.66290 0.83240 0.86940 -0.03000
H 	H 	0.68480 0.82650 0.89070 -0.00100
H 	H 	0.46980 0.80490 0.91620 0.11500
H 	H 	0.51540 0.81400 0.89220 0.14000
H 	H 	0.51480 0.79540 0.94110 0.13300
N 	N 	0.03750 0.22870 0.38320 -0.31000
N 	N 	0.11990 0.30890 0.36240 -0.25900
C 	C 	0.02310 0.19350 0.36030 0.00700
H 	H 	0.04120 0.17220 0.34660 0.00000
C 	C 	0.11120 0.35180 0.38620 -0.04100
H 	H 	0.10660 0.35570 0.41670 0.00500
C 	C 	0.16290 0.33240 0.36940 -0.02900
H 	H 	0.18480 0.32650 0.39070 0.00200
H 	H 	0.96980 0.30490 0.41620 0.09500
H 	H 	0.01540 0.31400 0.39220 0.13100
H 	H 	0.01480 0.29540 0.44110 0.12600
N 	N 	0.46250 0.27130 0.88320 -0.31100
N 	N 	0.38010 0.19110 0.86240 -0.26000
C 	C 	0.47690 0.30650 0.86030 -0.02200
H 	H 	0.45880 0.32780 0.84660 0.00600
C 	C 	0.38880 0.14820 0.88620 -0.04300
H 	H 	0.39340 0.14430 0.91670 0.00200
C 	C 	0.33710 0.16760 0.86940 -0.02900
H 	H 	0.31520 0.17350 0.89070 0.00100
H 	H 	0.53020 0.19510 0.91620 0.11600
H 	H 	0.48460 0.18600 0.89220 0.14100
H 	H 	0.48520 0.20460 0.94110 0.13400
N 	N 	0.96250 0.77130 0.38320 -0.30900
N 	N 	0.88010 0.69110 0.36240 -0.25900
C 	C 	0.97690 0.80650 0.36030 -0.05100
H 	H 	0.95880 0.82780 0.34660 0.01100
C 	C 	0.88880 0.64820 0.38620 -0.04200
H 	H 	0.89340 0.64430 0.41670 0.00300
C 	C 	0.83710 0.66760 0.36940 -0.02900
H 	H 	0.81520 0.67350 0.39070 0.00200
H 	H 	0.03020 0.69510 0.41620 0.08500
H 	H 	0.98460 0.68600 0.39220 0.10100
H 	H 	0.98520 0.70460 0.44110 0.09400
N 	N 	0.53750 0.27130 0.11680 -0.31200
N 	N 	0.61990 0.19110 0.13760 -0.26000
C 	C 	0.52310 0.30650 0.13970 -0.02100
H 	H 	0.54120 0.32780 0.15340 0.00600
C 	C 	0.61120 0.14820 0.11380 -0.04300
H 	H 	0.60660 0.14430 0.08330 0.00500
C 	C 	0.66290 0.16760 0.13060 -0.02800
H 	H 	0.68480 0.17350 0.10930 0.00300
H 	H 	0.46980 0.19510 0.08380 0.12300
H 	H 	0.51540 0.18600 0.10780 0.14700
H 	H 	0.51480 0.20460 0.05890 0.14400
N 	N 	0.03750 0.77130 0.61680 -0.31000
N 	N 	0.11990 0.69110 0.63760 -0.25900
C 	C 	0.02310 0.80650 0.63970 0.00600
H 	H 	0.04120 0.82780 0.65340 -0.00200
C 	C 	0.11120 0.64820 0.61380 -0.04100
H 	H 	0.10660 0.64430 0.58330 0.00500
C 	C 	0.16290 0.66760 0.63060 -0.03000
H 	H 	0.18480 0.67350 0.60930 0.00200
H 	H 	0.96980 0.69510 0.58380 0.09500
H 	H 	0.01540 0.68600 0.60780 0.13100
H 	H 	0.01480 0.70460 0.55890 0.12600
N 	N 	0.46250 0.72870 0.11680 -0.31200
N 	N 	0.38010 0.80890 0.13760 -0.25900
C 	C 	0.47690 0.69350 0.13970 -0.02100
H 	H 	0.45880 0.67220 0.15340 0.00600
C 	C 	0.38880 0.85180 0.11380 -0.04400
H 	H 	0.39340 0.85570 0.08330 0.00300
C 	C 	0.33710 0.83240 0.13060 -0.02900
H 	H 	0.31520 0.82650 0.10930 0.00300
H 	H 	0.53020 0.80490 0.08380 0.12100
H 	H 	0.48460 0.81400 0.10780 0.14600
H 	H 	0.48520 0.79540 0.05890 0.14300
N 	N 	0.96250 0.22870 0.61680 -0.30900
N 	N 	0.88010 0.30890 0.63760 -0.25900
C 	C 	0.97690 0.19350 0.63970 -0.05100
H 	H 	0.95880 0.17220 0.65340 0.01200
C 	C 	0.88880 0.35180 0.61380 -0.04200
H 	H 	0.89340 0.35570 0.58330 0.00300
C 	C 	0.83710 0.33240 0.63060 -0.02900
H 	H 	0.81520 0.32650 0.60930 0.00200
H 	H 	0.03020 0.30490 0.58380 0.08500
H 	H 	0.98460 0.31400 0.60780 0.10100
H 	H 	0.98520 0.29540 0.55890 0.09400
N 	N 	0.72870 0.11680 0.46250 -0.31200
N 	N 	0.80890 0.13760 0.38010 -0.25900
C 	C 	0.69350 0.13970 0.47690 -0.02100
H 	H 	0.67220 0.15340 0.45880 0.00600
C 	C 	0.85180 0.11380 0.38880 -0.04400
H 	H 	0.85570 0.08330 0.39340 0.00300
C 	C 	0.83240 0.13060 0.33710 -0.02900
H 	H 	0.82650 0.10930 0.31520 0.00300
H 	H 	0.80490 0.08380 0.53020 0.12100
H 	H 	0.81400 0.10780 0.48460 0.14600
H 	H 	0.79540 0.05890 0.48520 0.14300
N 	N 	0.22870 0.61680 0.96250 -0.30900
N 	N 	0.30890 0.63760 0.88010 -0.25900
C 	C 	0.19350 0.63970 0.97690 -0.05100
H 	H 	0.17220 0.65340 0.95880 0.01200
C 	C 	0.35180 0.61380 0.88880 -0.04200
H 	H 	0.35570 0.58330 0.89340 0.00300
C 	C 	0.33240 0.63060 0.83710 -0.02900
H 	H 	0.32650 0.60930 0.81520 0.00200
H 	H 	0.30490 0.58380 0.03020 0.08500
H 	H 	0.31400 0.60780 0.98460 0.10100
H 	H 	0.29540 0.55890 0.98520 0.09400
N 	N 	0.27130 0.11680 0.53750 -0.31200
N 	N 	0.19110 0.13760 0.61990 -0.26000
C 	C 	0.30650 0.13970 0.52310 -0.02100
H 	H 	0.32780 0.15340 0.54120 0.00600
C 	C 	0.14820 0.11380 0.61120 -0.04300
H 	H 	0.14430 0.08330 0.60660 0.00500
C 	C 	0.16760 0.13060 0.66290 -0.02800
H 	H 	0.17350 0.10930 0.68480 0.00300
H 	H 	0.19510 0.08380 0.46980 0.12300
H 	H 	0.18600 0.10780 0.51540 0.14700
H 	H 	0.20460 0.05890 0.51480 0.14400
N 	N 	0.77130 0.61680 0.03750 -0.31000
N 	N 	0.69110 0.63760 0.11990 -0.25900
C 	C 	0.80650 0.63970 0.02310 0.00600
H 	H 	0.82780 0.65340 0.04120 -0.00200
C 	C 	0.64820 0.61380 0.11120 -0.04100
H 	H 	0.64430 0.58330 0.10660 0.00500
C 	C 	0.66760 0.63060 0.16290 -0.03000
H 	H 	0.67350 0.60930 0.18480 0.00200
H 	H 	0.69510 0.58380 0.96980 0.09500
H 	H 	0.68600 0.60780 0.01540 0.13100
H 	H 	0.70460 0.55890 0.01480 0.12600
N 	N 	0.27130 0.88320 0.46250 -0.31100
N 	N 	0.19110 0.86240 0.38010 -0.26000
C 	C 	0.30650 0.86030 0.47690 -0.02200
H 	H 	0.32780 0.84660 0.45880 0.00600
C 	C 	0.14820 0.88620 0.38880 -0.04300
H 	H 	0.14430 0.91670 0.39340 0.00200
C 	C 	0.16760 0.86940 0.33710 -0.02900
H 	H 	0.17350 0.89070 0.31520 0.00100
H 	H 	0.19510 0.91620 0.53020 0.11600
H 	H 	0.18600 0.89220 0.48460 0.14100
H 	H 	0.20460 0.94110 0.48520 0.13400
N 	N 	0.77130 0.38320 0.96250 -0.30900
N 	N 	0.69110 0.36240 0.88010 -0.25900
C 	C 	0.80650 0.36030 0.97690 -0.05100
H 	H 	0.82780 0.34660 0.95880 0.01100
C 	C 	0.64820 0.38620 0.88880 -0.04200
H 	H 	0.64430 0.41670 0.89340 0.00300
C 	C 	0.66760 0.36940 0.83710 -0.02900
H 	H 	0.67350 0.39070 0.81520 0.00200
H 	H 	0.69510 0.41620 0.03020 0.08500
H 	H 	0.68600 0.39220 0.98460 0.10100
H 	H 	0.70460 0.44110 0.98520 0.09400
N 	N 	0.72870 0.88320 0.53750 -0.31100
N 	N 	0.80890 0.86240 0.61990 -0.25900
C 	C 	0.69350 0.86030 0.52310 -0.02200
H 	H 	0.67220 0.84660 0.54120 0.00600
C 	C 	0.85180 0.88620 0.61120 -0.04400
H 	H 	0.85570 0.91670 0.60660 -0.00000
C 	C 	0.83240 0.86940 0.66290 -0.03000
H 	H 	0.82650 0.89070 0.68480 -0.00100
H 	H 	0.80490 0.91620 0.46980 0.11500
H 	H 	0.81400 0.89220 0.51540 0.14000
H 	H 	0.79540 0.94110 0.51480 0.13300
N 	N 	0.22870 0.38320 0.03750 -0.31000
N 	N 	0.30890 0.36240 0.11990 -0.25900
C 	C 	0.19350 0.36030 0.02310 0.00700
H 	H 	0.17220 0.34660 0.04120 0.00000
C 	C 	0.35180 0.38620 0.11120 -0.04100
H 	H 	0.35570 0.41670 0.10660 0.00500
C 	C 	0.33240 0.36940 0.16290 -0.02900
H 	H 	0.32650 0.39070 0.18480 0.00200
H 	H 	0.30490 0.41620 0.96980 0.09500
H 	H 	0.31400 0.39220 0.01540 0.13100
H 	H 	0.29540 0.44110 0.01480 0.12600
N 	N 	0.11680 0.53750 0.27130 -0.31200
N 	N 	0.13760 0.61990 0.19110 -0.26000
C 	C 	0.13970 0.52310 0.30650 -0.02100
H 	H 	0.15340 0.54120 0.32780 0.00600
C 	C 	0.11380 0.61120 0.14820 -0.04300
H 	H 	0.08330 0.60660 0.14430 0.00500
C 	C 	0.13060 0.66290 0.16760 -0.02800
H 	H 	0.10930 0.68480 0.17350 0.00300
H 	H 	0.08380 0.46980 0.19510 0.12300
H 	H 	0.10780 0.51540 0.18600 0.14700
H 	H 	0.05890 0.51480 0.20460 0.14400
N 	N 	0.61680 0.03750 0.77130 -0.31000
N 	N 	0.63760 0.11990 0.69110 -0.25900
C 	C 	0.63970 0.02310 0.80650 0.00600
H 	H 	0.65340 0.04120 0.82780 -0.00200
C 	C 	0.61380 0.11120 0.64820 -0.04100
H 	H 	0.58330 0.10660 0.64430 0.00500
C 	C 	0.63060 0.16290 0.66760 -0.03000
H 	H 	0.60930 0.18480 0.67350 0.00200
H 	H 	0.58380 0.96980 0.69510 0.09500
H 	H 	0.60780 0.01540 0.68600 0.13100
H 	H 	0.55890 0.01480 0.70460 0.12600
N 	N 	0.11680 0.46250 0.72870 -0.31200
N 	N 	0.13760 0.38010 0.80890 -0.25900
C 	C 	0.13970 0.47690 0.69350 -0.02100
H 	H 	0.15340 0.45880 0.67220 0.00600
C 	C 	0.11380 0.38880 0.85180 -0.04400
H 	H 	0.08330 0.39340 0.85570 0.00300
C 	C 	0.13060 0.33710 0.83240 -0.02900
H 	H 	0.10930 0.31520 0.82650 0.00300
H 	H 	0.08380 0.53020 0.80490 0.12100
H 	H 	0.10780 0.48460 0.81400 0.14600
H 	H 	0.05890 0.48520 0.79540 0.14300
N 	N 	0.61680 0.96250 0.22870 -0.30900
N 	N 	0.63760 0.88010 0.30890 -0.25900
C 	C 	0.63970 0.97690 0.19350 -0.05100
H 	H 	0.65340 0.95880 0.17220 0.01200
C 	C 	0.61380 0.88880 0.35180 -0.04200
H 	H 	0.58330 0.89340 0.35570 0.00300
C 	C 	0.63060 0.83710 0.33240 -0.02900
H 	H 	0.60930 0.81520 0.32650 0.00200
H 	H 	0.58380 0.03020 0.30490 0.08500
H 	H 	0.60780 0.98460 0.31400 0.10100
H 	H 	0.55890 0.98520 0.29540 0.09400
N 	N 	0.88320 0.53750 0.72870 -0.31100
N 	N 	0.86240 0.61990 0.80890 -0.25900
C 	C 	0.86030 0.52310 0.69350 -0.02200
H 	H 	0.84660 0.54120 0.67220 0.00600
C 	C 	0.88620 0.61120 0.85180 -0.04400
H 	H 	0.91670 0.60660 0.85570 -0.00000
C 	C 	0.86940 0.66290 0.83240 -0.03000
H 	H 	0.89070 0.68480 0.82650 -0.00100
H 	H 	0.91620 0.46980 0.80490 0.11500
H 	H 	0.89220 0.51540 0.81400 0.14000
H 	H 	0.94110 0.51480 0.79540 0.13300
N 	N 	0.38320 0.03750 0.22870 -0.31000
N 	N 	0.36240 0.11990 0.30890 -0.25900
C 	C 	0.36030 0.02310 0.19350 0.00700
H 	H 	0.34660 0.04120 0.17220 0.00000
C 	C 	0.38620 0.11120 0.35180 -0.04100
H 	H 	0.41670 0.10660 0.35570 0.00500
C 	C 	0.36940 0.16290 0.33240 -0.02900
H 	H 	0.39070 0.18480 0.32650 0.00200
H 	H 	0.41620 0.96980 0.30490 0.09500
H 	H 	0.39220 0.01540 0.31400 0.13100
H 	H 	0.44110 0.01480 0.29540 0.12600
N 	N 	0.88320 0.46250 0.27130 -0.31100
N 	N 	0.86240 0.38010 0.19110 -0.26000
C 	C 	0.86030 0.47690 0.30650 -0.02200
H 	H 	0.84660 0.45880 0.32780 0.00600
C 	C 	0.88620 0.38880 0.14820 -0.04300
H 	H 	0.91670 0.39340 0.14430 0.00200
C 	C 	0.86940 0.33710 0.16760 -0.02900
H 	H 	0.89070 0.31520 0.17350 0.00100
H 	H 	0.91620 0.53020 0.19510 0.11600
H 	H 	0.89220 0.48460 0.18600 0.14100
H 	H 	0.94110 0.48520 0.20460 0.13400
N 	N 	0.38320 0.96250 0.77130 -0.30900
N 	N 	0.36240 0.88010 0.69110 -0.25900
C 	C 	0.36030 0.97690 0.80650 -0.05100
H 	H 	0.34660 0.95880 0.82780 0.01100
C 	C 	0.38620 0.88880 0.64820 -0.04200
H 	H 	0.41670 0.89340 0.64430 0.00300
C 	C 	0.36940 0.83710 0.66760 -0.02900
H 	H 	0.39070 0.81520 0.67350 0.00200
H 	H 	0.41620 0.03020 0.69510 0.08500
H 	H 	0.39220 0.98460 0.68600 0.10100
H 	H 	0.44110 0.98520 0.70460 0.09400
N 	N 	0.27130 0.46250 0.88320 -0.31100
N 	N 	0.19110 0.38010 0.86240 -0.26000
C 	C 	0.30650 0.47690 0.86030 -0.02200
H 	H 	0.32780 0.45880 0.84660 0.00600
C 	C 	0.14820 0.38880 0.88620 -0.04300
H 	H 	0.14430 0.39340 0.91670 0.00200
C 	C 	0.16760 0.33710 0.86940 -0.02900
H 	H 	0.17350 0.31520 0.89070 0.00100
H 	H 	0.19510 0.53020 0.91620 0.11600
H 	H 	0.18600 0.48460 0.89220 0.14100
H 	H 	0.20460 0.48520 0.94110 0.13400
N 	N 	0.77130 0.96250 0.38320 -0.30900
N 	N 	0.69110 0.88010 0.36240 -0.25900
C 	C 	0.80650 0.97690 0.36030 -0.05100
H 	H 	0.82780 0.95880 0.34660 0.01100
C 	C 	0.64820 0.88880 0.38620 -0.04200
H 	H 	0.64430 0.89340 0.41670 0.00300
C 	C 	0.66760 0.83710 0.36940 -0.02900
H 	H 	0.67350 0.81520 0.39070 0.00200
H 	H 	0.69510 0.03020 0.41620 0.08500
H 	H 	0.68600 0.98460 0.39220 0.10100
H 	H 	0.70460 0.98520 0.44110 0.09400
N 	N 	0.72870 0.53750 0.88320 -0.31100
N 	N 	0.80890 0.61990 0.86240 -0.25900
C 	C 	0.69350 0.52310 0.86030 -0.02200
H 	H 	0.67220 0.54120 0.84660 0.00600
C 	C 	0.85180 0.61120 0.88620 -0.04400
H 	H 	0.85570 0.60660 0.91670 -0.00000
C 	C 	0.83240 0.66290 0.86940 -0.03000
H 	H 	0.82650 0.68480 0.89070 -0.00100
H 	H 	0.80490 0.46980 0.91620 0.11500
H 	H 	0.81400 0.51540 0.89220 0.14000
H 	H 	0.79540 0.51480 0.94110 0.13300
N 	N 	0.22870 0.03750 0.38320 -0.31000
N 	N 	0.30890 0.11990 0.36240 -0.25900
C 	C 	0.19350 0.02310 0.36030 0.00700
H 	H 	0.17220 0.04120 0.34660 0.00000
C 	C 	0.35180 0.11120 0.38620 -0.04100
H 	H 	0.35570 0.10660 0.41670 0.00500
C 	C 	0.33240 0.16290 0.36940 -0.02900
H 	H 	0.32650 0.18480 0.39070 0.00200
H 	H 	0.30490 0.96980 0.41620 0.09500
H 	H 	0.31400 0.01540 0.39220 0.13100
H 	H 	0.29540 0.01480 0.44110 0.12600
N 	N 	0.72870 0.46250 0.11680 -0.31200
N 	N 	0.80890 0.38010 0.13760 -0.25900
C 	C 	0.69350 0.47690 0.13970 -0.02100
H 	H 	0.67220 0.45880 0.15340 0.00600
C 	C 	0.85180 0.38880 0.11380 -0.04400
H 	H 	0.85570 0.39340 0.08330 0.00300
C 	C 	0.83240 0.33710 0.13060 -0.02900
H 	H 	0.82650 0.31520 0.10930 0.00300
H 	H 	0.80490 0.53020 0.08380 0.12100
H 	H 	0.81400 0.48460 0.10780 0.14600
H 	H 	0.79540 0.48520 0.05890 0.14300
N 	N 	0.22870 0.96250 0.61680 -0.30900
N 	N 	0.30890 0.88010 0.63760 -0.25900
C 	C 	0.19350 0.97690 0.63970 -0.05100
H 	H 	0.17220 0.95880 0.65340 0.01200
C 	C 	0.35180 0.88880 0.61380 -0.04200
H 	H 	0.35570 0.89340 0.58330 0.00300
C 	C 	0.33240 0.83710 0.63060 -0.02900
H 	H 	0.32650 0.81520 0.60930 0.00200
H 	H 	0.30490 0.03020 0.58380 0.08500
H 	H 	0.31400 0.98460 0.60780 0.10100
H 	H 	0.29540 0.98520 0.55890 0.09400
N 	N 	0.27130 0.53750 0.11680 -0.31200
N 	N 	0.19110 0.61990 0.13760 -0.26000
C 	C 	0.30650 0.52310 0.13970 -0.02100
H 	H 	0.32780 0.54120 0.15340 0.00600
C 	C 	0.14820 0.61120 0.11380 -0.04300
H 	H 	0.14430 0.60660 0.08330 0.00500
C 	C 	0.16760 0.66290 0.13060 -0.02800
H 	H 	0.17350 0.68480 0.10930 0.00300
H 	H 	0.19510 0.46980 0.08380 0.12300
H 	H 	0.18600 0.51540 0.10780 0.14700
H 	H 	0.20460 0.51480 0.05890 0.14400
N 	N 	0.77130 0.03750 0.61680 -0.31000
N 	N 	0.69110 0.11990 0.63760 -0.25900
C 	C 	0.80650 0.02310 0.63970 0.00600
H 	H 	0.82780 0.04120 0.65340 -0.00200
C 	C 	0.64820 0.11120 0.61380 -0.04100
H 	H 	0.64430 0.10660 0.58330 0.00500
C 	C 	0.66760 0.16290 0.63060 -0.03000
H 	H 	0.67350 0.18480 0.60930 0.00200
H 	H 	0.69510 0.96980 0.58380 0.09500
H 	H 	0.68600 0.01540 0.60780 0.13100
H 	H 	0.70460 0.01480 0.55890 0.12600
N 	N 	0.88320 0.27130 0.46250 -0.31100
N 	N 	0.86240 0.19110 0.38010 -0.26000
C 	C 	0.86030 0.30650 0.47690 -0.02200
H 	H 	0.84660 0.32780 0.45880 0.00600
C 	C 	0.88620 0.14820 0.38880 -0.04300
H 	H 	0.91670 0.14430 0.39340 0.00200
C 	C 	0.86940 0.16760 0.33710 -0.02900
H 	H 	0.89070 0.17350 0.31520 0.00100
H 	H 	0.91620 0.19510 0.53020 0.11600
H 	H 	0.89220 0.18600 0.48460 0.14100
H 	H 	0.94110 0.20460 0.48520 0.13400
N 	N 	0.38320 0.77130 0.96250 -0.30900
N 	N 	0.36240 0.69110 0.88010 -0.25900
C 	C 	0.36030 0.80650 0.97690 -0.05100
H 	H 	0.34660 0.82780 0.95880 0.01100
C 	C 	0.38620 0.64820 0.88880 -0.04200
H 	H 	0.41670 0.64430 0.89340 0.00300
C 	C 	0.36940 0.66760 0.83710 -0.02900
H 	H 	0.39070 0.67350 0.81520 0.00200
H 	H 	0.41620 0.69510 0.03020 0.08500
H 	H 	0.39220 0.68600 0.98460 0.10100
H 	H 	0.44110 0.70460 0.98520 0.09400
N 	N 	0.88320 0.72870 0.53750 -0.31100
N 	N 	0.86240 0.80890 0.61990 -0.25900
C 	C 	0.86030 0.69350 0.52310 -0.02200
H 	H 	0.84660 0.67220 0.54120 0.00600
C 	C 	0.88620 0.85180 0.61120 -0.04400
H 	H 	0.91670 0.85570 0.60660 -0.00000
C 	C 	0.86940 0.83240 0.66290 -0.03000
H 	H 	0.89070 0.82650 0.68480 -0.00100
H 	H 	0.91620 0.80490 0.46980 0.11500
H 	H 	0.89220 0.81400 0.51540 0.14000
H 	H 	0.94110 0.79540 0.51480 0.13300
N 	N 	0.38320 0.22870 0.03750 -0.31000
N 	N 	0.36240 0.30890 0.11990 -0.25900
C 	C 	0.36030 0.19350 0.02310 0.00700
H 	H 	0.34660 0.17220 0.04120 0.00000
C 	C 	0.38620 0.35180 0.11120 -0.04100
H 	H 	0.41670 0.35570 0.10660 0.00500
C 	C 	0.36940 0.33240 0.16290 -0.02900
H 	H 	0.39070 0.32650 0.18480 0.00200
H 	H 	0.41620 0.30490 0.96980 0.09500
H 	H 	0.39220 0.31400 0.01540 0.13100
H 	H 	0.44110 0.29540 0.01480 0.12600
N 	N 	0.11680 0.72870 0.46250 -0.31200
N 	N 	0.13760 0.80890 0.38010 -0.25900
C 	C 	0.13970 0.69350 0.47690 -0.02100
H 	H 	0.15340 0.67220 0.45880 0.00600
C 	C 	0.11380 0.85180 0.38880 -0.04400
H 	H 	0.08330 0.85570 0.39340 0.00300
C 	C 	0.13060 0.83240 0.33710 -0.02900
H 	H 	0.10930 0.82650 0.31520 0.00300
H 	H 	0.08380 0.80490 0.53020 0.12100
H 	H 	0.10780 0.81400 0.48460 0.14600
H 	H 	0.05890 0.79540 0.48520 0.14300
N 	N 	0.61680 0.22870 0.96250 -0.30900
N 	N 	0.63760 0.30890 0.88010 -0.25900
C 	C 	0.63970 0.19350 0.97690 -0.05100
H 	H 	0.65340 0.17220 0.95880 0.01200
C 	C 	0.61380 0.35180 0.88880 -0.04200
H 	H 	0.58330 0.35570 0.89340 0.00300
C 	C 	0.63060 0.33240 0.83710 -0.02900
H 	H 	0.60930 0.32650 0.81520 0.00200
H 	H 	0.58380 0.30490 0.03020 0.08500
H 	H 	0.60780 0.31400 0.98460 0.10100
H 	H 	0.55890 0.29540 0.98520 0.09400
N 	N 	0.11680 0.27130 0.53750 -0.31200
N 	N 	0.13760 0.19110 0.61990 -0.26000
C 	C 	0.13970 0.30650 0.52310 -0.02100
H 	H 	0.15340 0.32780 0.54120 0.00600
C 	C 	0.11380 0.14820 0.61120 -0.04300
H 	H 	0.08330 0.14430 0.60660 0.00500
C 	C 	0.13060 0.16760 0.66290 -0.02800
H 	H 	0.10930 0.17350 0.68480 0.00300
H 	H 	0.08380 0.19510 0.46980 0.12300
H 	H 	0.10780 0.18600 0.51540 0.14700
H 	H 	0.05890 0.20460 0.51480 0.14400
N 	N 	0.61680 0.77130 0.03750 -0.31000
N 	N 	0.63760 0.69110 0.11990 -0.25900
C 	C 	0.63970 0.80650 0.02310 0.00600
H 	H 	0.65340 0.82780 0.04120 -0.00200
C 	C 	0.61380 0.64820 0.11120 -0.04100
H 	H 	0.58330 0.64430 0.10660 0.00500
C 	C 	0.63060 0.66760 0.16290 -0.03000
H 	H 	0.60930 0.67350 0.18480 0.00200
H 	H 	0.58380 0.69510 0.96980 0.09500
H 	H 	0.60780 0.68600 0.01540 0.13100
H 	H 	0.55890 0.70460 0.01480 0.12600
N 	N 	0.46250 0.88320 0.27130 -0.31100
N 	N 	0.38010 0.86240 0.19110 -0.26000
C 	C 	0.47690 0.86030 0.30650 -0.02200
H 	H 	0.45880 0.84660 0.32780 0.00600
C 	C 	0.38880 0.88620 0.14820 -0.04300
H 	H 	0.39340 0.91670 0.14430 0.00200
C 	C 	0.33710 0.86940 0.16760 -0.02900
H 	H 	0.31520 0.89070 0.17350 0.00100
H 	H 	0.53020 0.91620 0.19510 0.11600
H 	H 	0.48460 0.89220 0.18600 0.14100
H 	H 	0.48520 0.94110 0.20460 0.13400
N 	N 	0.96250 0.38320 0.77130 -0.30900
N 	N 	0.88010 0.36240 0.69110 -0.25900
C 	C 	0.97690 0.36030 0.80650 -0.05100
H 	H 	0.95880 0.34660 0.82780 0.01100
C 	C 	0.88880 0.38620 0.64820 -0.04200
H 	H 	0.89340 0.41670 0.64430 0.00300
C 	C 	0.83710 0.36940 0.66760 -0.02900
H 	H 	0.81520 0.39070 0.67350 0.00200
H 	H 	0.03020 0.41620 0.69510 0.08500
H 	H 	0.98460 0.39220 0.68600 0.10100
H 	H 	0.98520 0.44110 0.70460 0.09400
N 	N 	0.53750 0.88320 0.72870 -0.31100
N 	N 	0.61990 0.86240 0.80890 -0.25900
C 	C 	0.52310 0.86030 0.69350 -0.02200
H 	H 	0.54120 0.84660 0.67220 0.00600
C 	C 	0.61120 0.88620 0.85180 -0.04400
H 	H 	0.60660 0.91670 0.85570 -0.00000
C 	C 	0.66290 0.86940 0.83240 -0.03000
H 	H 	0.68480 0.89070 0.82650 -0.00100
H 	H 	0.46980 0.91620 0.80490 0.11500
H 	H 	0.51540 0.89220 0.81400 0.14000
H 	H 	0.51480 0.94110 0.79540 0.13300
N 	N 	0.03750 0.38320 0.22870 -0.31000
N 	N 	0.11990 0.36240 0.30890 -0.25900
C 	C 	0.02310 0.36030 0.19350 0.00700
H 	H 	0.04120 0.34660 0.17220 0.00000
C 	C 	0.11120 0.38620 0.35180 -0.04100
H 	H 	0.10660 0.41670 0.35570 0.00500
C 	C 	0.16290 0.36940 0.33240 -0.02900
H 	H 	0.18480 0.39070 0.32650 0.00200
H 	H 	0.96980 0.41620 0.30490 0.09500
H 	H 	0.01540 0.39220 0.31400 0.13100
H 	H 	0.01480 0.44110 0.29540 0.12600
N 	N 	0.46250 0.11680 0.72870 -0.31200
N 	N 	0.38010 0.13760 0.80890 -0.25900
C 	C 	0.47690 0.13970 0.69350 -0.02100
H 	H 	0.45880 0.15340 0.67220 0.00600
C 	C 	0.38880 0.11380 0.85180 -0.04400
H 	H 	0.39340 0.08330 0.85570 0.00300
C 	C 	0.33710 0.13060 0.83240 -0.02900
H 	H 	0.31520 0.10930 0.82650 0.00300
H 	H 	0.53020 0.08380 0.80490 0.12100
H 	H 	0.48460 0.10780 0.81400 0.14600
H 	H 	0.48520 0.05890 0.79540 0.14300
N 	N 	0.96250 0.61680 0.22870 -0.30900
N 	N 	0.88010 0.63760 0.30890 -0.25900
C 	C 	0.97690 0.63970 0.19350 -0.05100
H 	H 	0.95880 0.65340 0.17220 0.01200
C 	C 	0.88880 0.61380 0.35180 -0.04200
H 	H 	0.89340 0.58330 0.35570 0.00300
C 	C 	0.83710 0.63060 0.33240 -0.02900
H 	H 	0.81520 0.60930 0.32650 0.00200
H 	H 	0.03020 0.58380 0.30490 0.08500
H 	H 	0.98460 0.60780 0.31400 0.10100
H 	H 	0.98520 0.55890 0.29540 0.09400
N 	N 	0.53750 0.11680 0.27130 -0.31200
N 	N 	0.61990 0.13760 0.19110 -0.26000
C 	C 	0.52310 0.13970 0.30650 -0.02100
H 	H 	0.54120 0.15340 0.32780 0.00600
C 	C 	0.61120 0.11380 0.14820 -0.04300
H 	H 	0.60660 0.08330 0.14430 0.00500
C 	C 	0.66290 0.13060 0.16760 -0.02800
H 	H 	0.68480 0.10930 0.17350 0.00300
H 	H 	0.46980 0.08380 0.19510 0.12300
H 	H 	0.51540 0.10780 0.18600 0.14700
H 	H 	0.51480 0.05890 0.20460 0.14400
N 	N 	0.03750 0.61680 0.77130 -0.31000
N 	N 	0.11990 0.63760 0.69110 -0.25900
C 	C 	0.02310 0.63970 0.80650 0.00600
H 	H 	0.04120 0.65340 0.82780 -0.00200
C 	C 	0.11120 0.61380 0.64820 -0.04100
H 	H 	0.10660 0.58330 0.64430 0.00500
C 	C 	0.16290 0.63060 0.66760 -0.03000
H 	H 	0.18480 0.60930 0.67350 0.00200
H 	H 	0.96980 0.58380 0.69510 0.09500
H 	H 	0.01540 0.60780 0.68600 0.13100
H 	H 	0.01480 0.55890 0.70460 0.12600
N 	N 	0.46250 0.27130 0.11680 -0.31200
N 	N 	0.38010 0.19110 0.13760 -0.26000
C 	C 	0.47690 0.30650 0.13970 -0.02100
H 	H 	0.45880 0.32780 0.15340 0.00600
C 	C 	0.38880 0.14820 0.11380 -0.04300
H 	H 	0.39340 0.14430 0.08330 0.00500
C 	C 	0.33710 0.16760 0.13060 -0.02800
H 	H 	0.31520 0.17350 0.10930 0.00400
H 	H 	0.53020 0.19510 0.08380 0.12300
H 	H 	0.48460 0.18600 0.10780 0.14700
H 	H 	0.48520 0.20460 0.05890 0.14400
N 	N 	0.96250 0.77130 0.61680 -0.30900
N 	N 	0.88010 0.69110 0.63760 -0.25900
C 	C 	0.97690 0.80650 0.63970 -0.05200
H 	H 	0.95880 0.82780 0.65340 0.01100
C 	C 	0.88880 0.64820 0.61380 -0.04200
H 	H 	0.89340 0.64430 0.58330 0.00300
C 	C 	0.83710 0.66760 0.63060 -0.02900
H 	H 	0.81520 0.67350 0.60930 0.00200
H 	H 	0.03020 0.69510 0.58380 0.08500
H 	H 	0.98460 0.68600 0.60780 0.10100
H 	H 	0.98520 0.70460 0.55890 0.09400
N 	N 	0.53750 0.72870 0.11680 -0.31200
N 	N 	0.61990 0.80890 0.13760 -0.25900
C 	C 	0.52310 0.69350 0.13970 -0.02100
H 	H 	0.54120 0.67220 0.15340 0.00600
C 	C 	0.61120 0.85180 0.11380 -0.04400
H 	H 	0.60660 0.85570 0.08330 0.00300
C 	C 	0.66290 0.83240 0.13060 -0.02900
H 	H 	0.68480 0.82650 0.10930 0.00200
H 	H 	0.46980 0.80490 0.08380 0.12100
H 	H 	0.51540 0.81400 0.10780 0.14600
H 	H 	0.51480 0.79540 0.05890 0.14300
N 	N 	0.03750 0.22870 0.61680 -0.31000
N 	N 	0.11990 0.30890 0.63760 -0.25900
C 	C 	0.02310 0.19350 0.63970 0.00700
H 	H 	0.04120 0.17220 0.65340 -0.00000
C 	C 	0.11120 0.35180 0.61380 -0.04100
H 	H 	0.10660 0.35570 0.58330 0.00500
C 	C 	0.16290 0.33240 0.63060 -0.03000
H 	H 	0.18480 0.32650 0.60930 0.00200
H 	H 	0.96980 0.30490 0.58380 0.09500
H 	H 	0.01540 0.31400 0.60780 0.13100
H 	H 	0.01480 0.29540 0.55890 0.12600
N 	N 	0.46250 0.72870 0.88320 -0.31100
N 	N 	0.38010 0.80890 0.86240 -0.25900
C 	C 	0.47690 0.69350 0.86030 -0.02200
H 	H 	0.45880 0.67220 0.84660 0.00600
C 	C 	0.38880 0.85180 0.88620 -0.04400
H 	H 	0.39340 0.85570 0.91670 -0.00000
C 	C 	0.33710 0.83240 0.86940 -0.03000
H 	H 	0.31520 0.82650 0.89070 -0.00100
H 	H 	0.53020 0.80490 0.91620 0.11500
H 	H 	0.48460 0.81400 0.89220 0.14000
H 	H 	0.48520 0.79540 0.94110 0.13300
N 	N 	0.96250 0.22870 0.38320 -0.30900
N 	N 	0.88010 0.30890 0.36240 -0.25900
C 	C 	0.97690 0.19350 0.36030 -0.05100
H 	H 	0.95880 0.17220 0.34660 0.01300
C 	C 	0.88880 0.35180 0.38620 -0.04200
H 	H 	0.89340 0.35570 0.41670 0.00300
C 	C 	0.83710 0.33240 0.36940 -0.02900
H 	H 	0.81520 0.32650 0.39070 0.00200
H 	H 	0.03020 0.30490 0.41620 0.08500
H 	H 	0.98460 0.31400 0.39220 0.10100
H 	H 	0.98520 0.29540 0.44110 0.09400
N 	N 	0.53750 0.27130 0.88320 -0.31100
N 	N 	0.61990 0.19110 0.86240 -0.26000
C 	C 	0.52310 0.30650 0.86030 -0.02200
H 	H 	0.54120 0.32780 0.84660 0.00600
C 	C 	0.61120 0.14820 0.88620 -0.04300
H 	H 	0.60660 0.14430 0.91670 0.00100
C 	C 	0.66290 0.16760 0.86940 -0.02900
H 	H 	0.68480 0.17350 0.89070 0.00000
H 	H 	0.46980 0.19510 0.91620 0.11600
H 	H 	0.51540 0.18600 0.89220 0.14100
H 	H 	0.51480 0.20460 0.94110 0.13400
N 	N 	0.03750 0.77130 0.38320 -0.31000
N 	N 	0.11990 0.69110 0.36240 -0.25900
C 	C 	0.02310 0.80650 0.36030 0.00600
H 	H 	0.04120 0.82780 0.34660 -0.00100
C 	C 	0.11120 0.64820 0.38620 -0.04100
H 	H 	0.10660 0.64430 0.41670 0.00500
C 	C 	0.16290 0.66760 0.36940 -0.03000
H 	H 	0.18480 0.67350 0.39070 0.00200
H 	H 	0.96980 0.69510 0.41620 0.09500
H 	H 	0.01540 0.68600 0.39220 0.13100
H 	H 	0.01480 0.70460 0.44110 0.12600
N 	N 	0.27130 0.88320 0.53750 -0.31100
N 	N 	0.19110 0.86240 0.61990 -0.26000
C 	C 	0.30650 0.86030 0.52310 -0.02200
H 	H 	0.32780 0.84660 0.54120 0.00600
C 	C 	0.14820 0.88620 0.61120 -0.04300
H 	H 	0.14430 0.91670 0.60660 0.00100
C 	C 	0.16760 0.86940 0.66290 -0.02900
H 	H 	0.17350 0.89070 0.68480 0.00000
H 	H 	0.19510 0.91620 0.46980 0.11600
H 	H 	0.18600 0.89220 0.51540 0.14100
H 	H 	0.20460 0.94110 0.51480 0.13400
N 	N 	0.77130 0.38320 0.03750 -0.31000
N 	N 	0.69110 0.36240 0.11990 -0.25900
C 	C 	0.80650 0.36030 0.02310 0.00600
H 	H 	0.82780 0.34660 0.04120 -0.00100
C 	C 	0.64820 0.38620 0.11120 -0.04100
H 	H 	0.64430 0.41670 0.10660 0.00500
C 	C 	0.66760 0.36940 0.16290 -0.03000
H 	H 	0.67350 0.39070 0.18480 0.00200
H 	H 	0.69510 0.41620 0.96980 0.09500
H 	H 	0.68600 0.39220 0.01540 0.13100
H 	H 	0.70460 0.44110 0.01480 0.12600
N 	N 	0.72870 0.88320 0.46250 -0.31100
N 	N 	0.80890 0.86240 0.38010 -0.25900
C 	C 	0.69350 0.86030 0.47690 -0.02200
H 	H 	0.67220 0.84660 0.45880 0.00600
C 	C 	0.85180 0.88620 0.38880 -0.04400
H 	H 	0.85570 0.91670 0.39340 -0.00000
C 	C 	0.83240 0.86940 0.33710 -0.03000
H 	H 	0.82650 0.89070 0.31520 -0.00100
H 	H 	0.80490 0.91620 0.53020 0.11500
H 	H 	0.81400 0.89220 0.48460 0.14000
H 	H 	0.79540 0.94110 0.48520 0.13300
N 	N 	0.22870 0.38320 0.96250 -0.30900
N 	N 	0.30890 0.36240 0.88010 -0.25900
C 	C 	0.19350 0.36030 0.97690 -0.05100
H 	H 	0.17220 0.34660 0.95880 0.01300
C 	C 	0.35180 0.38620 0.88880 -0.04200
H 	H 	0.35570 0.41670 0.89340 0.00300
C 	C 	0.33240 0.36940 0.83710 -0.02900
H 	H 	0.32650 0.39070 0.81520 0.00200
H 	H 	0.30490 0.41620 0.03020 0.08500
H 	H 	0.31400 0.39220 0.98460 0.10100
H 	H 	0.29540 0.44110 0.98520 0.09400
N 	N 	0.72870 0.11680 0.53750 -0.31200
N 	N 	0.80890 0.13760 0.61990 -0.25900
C 	C 	0.69350 0.13970 0.52310 -0.02100
H 	H 	0.67220 0.15340 0.54120 0.00600
C 	C 	0.85180 0.11380 0.61120 -0.04400
H 	H 	0.85570 0.08330 0.60660 0.00300
C 	C 	0.83240 0.13060 0.66290 -0.02900
H 	H 	0.82650 0.10930 0.68480 0.00200
H 	H 	0.80490 0.08380 0.46980 0.12100
H 	H 	0.81400 0.10780 0.51540 0.14600
H 	H 	0.79540 0.05890 0.51480 0.14300
N 	N 	0.22870 0.61680 0.03750 -0.31000
N 	N 	0.30890 0.63760 0.11990 -0.25900
C 	C 	0.19350 0.63970 0.02310 0.00700
H 	H 	0.17220 0.65340 0.04120 -0.00000
C 	C 	0.35180 0.61380 0.11120 -0.04100
H 	H 	0.35570 0.58330 0.10660 0.00500
C 	C 	0.33240 0.63060 0.16290 -0.03000
H 	H 	0.32650 0.60930 0.18480 0.00200
H 	H 	0.30490 0.58380 0.96980 0.09500
H 	H 	0.31400 0.60780 0.01540 0.13100
H 	H 	0.29540 0.55890 0.01480 0.12600
N 	N 	0.27130 0.11680 0.46250 -0.31200
N 	N 	0.19110 0.13760 0.38010 -0.26000
C 	C 	0.30650 0.13970 0.47690 -0.02100
H 	H 	0.32780 0.15340 0.45880 0.00600
C 	C 	0.14820 0.11380 0.38880 -0.04300
H 	H 	0.14430 0.08330 0.39340 0.00500
C 	C 	0.16760 0.13060 0.33710 -0.02800
H 	H 	0.17350 0.10930 0.31520 0.00400
H 	H 	0.19510 0.08380 0.53020 0.12300
H 	H 	0.18600 0.10780 0.48460 0.14700
H 	H 	0.20460 0.05890 0.48520 0.14400
N 	N 	0.77130 0.61680 0.96250 -0.30900
N 	N 	0.69110 0.63760 0.88010 -0.25900
C 	C 	0.80650 0.63970 0.97690 -0.05200
H 	H 	0.82780 0.65340 0.95880 0.01100
C 	C 	0.64820 0.61380 0.88880 -0.04200
H 	H 	0.64430 0.58330 0.89340 0.00300
C 	C 	0.66760 0.63060 0.83710 -0.02900
H 	H 	0.67350 0.60930 0.81520 0.00200
H 	H 	0.69510 0.58380 0.03020 0.08500
H 	H 	0.68600 0.60780 0.98460 0.10100
H 	H 	0.70460 0.55890 0.98520 0.09400
N 	N 	0.88320 0.46250 0.72870 -0.31100
N 	N 	0.86240 0.38010 0.80890 -0.25900
C 	C 	0.86030 0.47690 0.69350 -0.02200
H 	H 	0.84660 0.45880 0.67220 0.00600
C 	C 	0.88620 0.38880 0.85180 -0.04400
H 	H 	0.91670 0.39340 0.85570 -0.00000
C 	C 	0.86940 0.33710 0.83240 -0.03000
H 	H 	0.89070 0.31520 0.82650 -0.00100
H 	H 	0.91620 0.53020 0.80490 0.11500
H 	H 	0.89220 0.48460 0.81400 0.14000
H 	H 	0.94110 0.48520 0.79540 0.13300
N 	N 	0.38320 0.96250 0.22870 -0.30900
N 	N 	0.36240 0.88010 0.30890 -0.25900
C 	C 	0.36030 0.97690 0.19350 -0.05100
H 	H 	0.34660 0.95880 0.17220 0.01300
C 	C 	0.38620 0.88880 0.35180 -0.04200
H 	H 	0.41670 0.89340 0.35570 0.00300
C 	C 	0.36940 0.83710 0.33240 -0.02900
H 	H 	0.39070 0.81520 0.32650 0.00200
H 	H 	0.41620 0.03020 0.30490 0.08500
H 	H 	0.39220 0.98460 0.31400 0.10100
H 	H 	0.44110 0.98520 0.29540 0.09400
N 	N 	0.88320 0.53750 0.27130 -0.31100
N 	N 	0.86240 0.61990 0.19110 -0.26000
C 	C 	0.86030 0.52310 0.30650 -0.02200
H 	H 	0.84660 0.54120 0.32780 0.00600
C 	C 	0.88620 0.61120 0.14820 -0.04300
H 	H 	0.91670 0.60660 0.14430 0.00100
C 	C 	0.86940 0.66290 0.16760 -0.02900
H 	H 	0.89070 0.68480 0.17350 0.00000
H 	H 	0.91620 0.46980 0.19510 0.11600
H 	H 	0.89220 0.51540 0.18600 0.14100
H 	H 	0.94110 0.51480 0.20460 0.13400
N 	N 	0.38320 0.03750 0.77130 -0.31000
N 	N 	0.36240 0.11990 0.69110 -0.25900
C 	C 	0.36030 0.02310 0.80650 0.00600
H 	H 	0.34660 0.04120 0.82780 -0.00100
C 	C 	0.38620 0.11120 0.64820 -0.04100
H 	H 	0.41670 0.10660 0.64430 0.00500
C 	C 	0.36940 0.16290 0.66760 -0.03000
H 	H 	0.39070 0.18480 0.67350 0.00200
H 	H 	0.41620 0.96980 0.69510 0.09500
H 	H 	0.39220 0.01540 0.68600 0.13100
H 	H 	0.44110 0.01480 0.70460 0.12600
N 	N 	0.11680 0.46250 0.27130 -0.31200
N 	N 	0.13760 0.38010 0.19110 -0.26000
C 	C 	0.13970 0.47690 0.30650 -0.02100
H 	H 	0.15340 0.45880 0.32780 0.00600
C 	C 	0.11380 0.38880 0.14820 -0.04300
H 	H 	0.08330 0.39340 0.14430 0.00500
C 	C 	0.13060 0.33710 0.16760 -0.02800
H 	H 	0.10930 0.31520 0.17350 0.00400
H 	H 	0.08380 0.53020 0.19510 0.12300
H 	H 	0.10780 0.48460 0.18600 0.14700
H 	H 	0.05890 0.48520 0.20460 0.14400
N 	N 	0.61680 0.96250 0.77130 -0.30900
N 	N 	0.63760 0.88010 0.69110 -0.25900
C 	C 	0.63970 0.97690 0.80650 -0.05200
H 	H 	0.65340 0.95880 0.82780 0.01100
C 	C 	0.61380 0.88880 0.64820 -0.04200
H 	H 	0.58330 0.89340 0.64430 0.00300
C 	C 	0.63060 0.83710 0.66760 -0.02900
H 	H 	0.60930 0.81520 0.67350 0.00200
H 	H 	0.58380 0.03020 0.69510 0.08500
H 	H 	0.60780 0.98460 0.68600 0.10100
H 	H 	0.55890 0.98520 0.70460 0.09400
N 	N 	0.11680 0.53750 0.72870 -0.31200
N 	N 	0.13760 0.61990 0.80890 -0.25900
C 	C 	0.13970 0.52310 0.69350 -0.02100
H 	H 	0.15340 0.54120 0.67220 0.00600
C 	C 	0.11380 0.61120 0.85180 -0.04400
H 	H 	0.08330 0.60660 0.85570 0.00300
C 	C 	0.13060 0.66290 0.83240 -0.02900
H 	H 	0.10930 0.68480 0.82650 0.00200
H 	H 	0.08380 0.46980 0.80490 0.12100
H 	H 	0.10780 0.51540 0.81400 0.14600
H 	H 	0.05890 0.51480 0.79540 0.14300
N 	N 	0.61680 0.03750 0.22870 -0.31000
N 	N 	0.63760 0.11990 0.30890 -0.25900
C 	C 	0.63970 0.02310 0.19350 0.00700
H 	H 	0.65340 0.04120 0.17220 -0.00000
C 	C 	0.61380 0.11120 0.35180 -0.04100
H 	H 	0.58330 0.10660 0.35570 0.00500
C 	C 	0.63060 0.16290 0.33240 -0.03000
H 	H 	0.60930 0.18480 0.32650 0.00200
H 	H 	0.58380 0.96980 0.30490 0.09500
H 	H 	0.60780 0.01540 0.31400 0.13100
H 	H 	0.55890 0.01480 0.29540 0.12600
Cd	Cd	0.75000 0.60413 0.10413 1.17800
Cd	Cd	0.25000 0.39587 0.10413 1.17800
Cd	Cd	0.25000 0.60413 0.89587 1.17700
Cd	Cd	0.75000 0.39587 0.89587 1.17700
Cd	Cd	0.10413 0.75000 0.60413 1.17800
Cd	Cd	0.10413 0.25000 0.39587 1.17800
Cd	Cd	0.89587 0.25000 0.60413 1.17700
Cd	Cd	0.89587 0.75000 0.39587 1.17700
Cd	Cd	0.60413 0.10413 0.75000 1.17800
Cd	Cd	0.39587 0.10413 0.25000 1.17800
Cd	Cd	0.60413 0.89587 0.25000 1.17700
Cd	Cd	0.39587 0.89587 0.75000 1.17700
Cd	Cd	0.60413 0.75000 0.89587 1.17700
Cd	Cd	0.39587 0.25000 0.89587 1.17700
Cd	Cd	0.60413 0.25000 0.10413 1.17800
Cd	Cd	0.39587 0.75000 0.10413 1.17800
Cd	Cd	0.75000 0.10413 0.39587 1.17800
Cd	Cd	0.25000 0.10413 0.60413 1.17800
Cd	Cd	0.25000 0.89587 0.39587 1.17700
Cd	Cd	0.75000 0.89587 0.60413 1.17700
Cd	Cd	0.10413 0.60413 0.25000 1.17800
Cd	Cd	0.10413 0.39587 0.75000 1.17800
Cd	Cd	0.89587 0.60413 0.75000 1.17700
Cd	Cd	0.89587 0.39587 0.25000 1.17700
Cd	Cd	0.25000 0.39587 0.89587 1.17700
Cd	Cd	0.75000 0.60413 0.89587 1.17700
Cd	Cd	0.75000 0.39587 0.10413 1.17800
Cd	Cd	0.25000 0.60413 0.10413 1.17800
Cd	Cd	0.89587 0.25000 0.39587 1.17700
Cd	Cd	0.89587 0.75000 0.60413 1.17700
Cd	Cd	0.10413 0.75000 0.39587 1.17800
Cd	Cd	0.10413 0.25000 0.60413 1.17800
Cd	Cd	0.39587 0.89587 0.25000 1.17700
Cd	Cd	0.60413 0.89587 0.75000 1.17700
Cd	Cd	0.39587 0.10413 0.75000 1.17800
Cd	Cd	0.60413 0.10413 0.25000 1.17800
Cd	Cd	0.39587 0.25000 0.10413 1.17800
Cd	Cd	0.60413 0.75000 0.10413 1.17800
Cd	Cd	0.39587 0.75000 0.89587 1.17700
Cd	Cd	0.60413 0.25000 0.89587 1.17700
Cd	Cd	0.25000 0.89587 0.60413 1.17700
Cd	Cd	0.75000 0.89587 0.39587 1.17700
Cd	Cd	0.75000 0.10413 0.60413 1.17800
Cd	Cd	0.25000 0.10413 0.39587 1.17800
Cd	Cd	0.89587 0.39587 0.75000 1.17700
Cd	Cd	0.89587 0.60413 0.25000 1.17700
Cd	Cd	0.10413 0.39587 0.25000 1.17800
Cd	Cd	0.10413 0.60413 0.75000 1.17800
C 	C 	0.74800 0.50000 0.10520 0.26100
C 	C 	0.79480 0.50000 0.08730 -0.93600
C 	C 	0.24800 0.00000 0.60520 0.23500
C 	C 	0.29480 0.00000 0.58730 -0.75400
C 	C 	0.25200 0.50000 0.10520 0.26200
C 	C 	0.20520 0.50000 0.08730 -0.94100
C 	C 	0.75200 0.00000 0.60520 0.23400
C 	C 	0.70520 0.00000 0.58730 -0.75400
C 	C 	0.25200 0.50000 0.89480 0.25200
C 	C 	0.20520 0.50000 0.91270 -0.90700
C 	C 	0.75200 0.00000 0.39480 0.23400
C 	C 	0.70520 0.00000 0.41270 -0.75400
C 	C 	0.74800 0.50000 0.89480 0.25100
C 	C 	0.79480 0.50000 0.91270 -0.90200
C 	C 	0.24800 0.00000 0.39480 0.23500
C 	C 	0.29480 0.00000 0.41270 -0.75500
C 	C 	0.10520 0.74800 0.50000 0.26100
C 	C 	0.08730 0.79480 0.50000 -0.93600
C 	C 	0.60520 0.24800 -0.00000 0.23500
C 	C 	0.58730 0.29480 -0.00000 -0.75400
C 	C 	0.10520 0.25200 0.50000 0.26200
C 	C 	0.08730 0.20520 0.50000 -0.94100
C 	C 	0.60520 0.75200 -0.00000 0.23400
C 	C 	0.58730 0.70520 -0.00000 -0.75400
C 	C 	0.89480 0.25200 0.50000 0.25200
C 	C 	0.91270 0.20520 0.50000 -0.90700
C 	C 	0.39480 0.75200 -0.00000 0.23400
C 	C 	0.41270 0.70520 -0.00000 -0.75400
C 	C 	0.89480 0.74800 0.50000 0.25100
C 	C 	0.91270 0.79480 0.50000 -0.90200
C 	C 	0.39480 0.24800 -0.00000 0.23500
C 	C 	0.41270 0.29480 -0.00000 -0.75500
C 	C 	0.50000 0.10520 0.74800 0.26100
C 	C 	0.50000 0.08730 0.79480 -0.93600
C 	C 	0.00000 0.60520 0.24800 0.23500
C 	C 	0.00000 0.58730 0.29480 -0.75400
C 	C 	0.50000 0.10520 0.25200 0.26200
C 	C 	0.50000 0.08730 0.20520 -0.94100
C 	C 	0.00000 0.60520 0.75200 0.23400
C 	C 	0.00000 0.58730 0.70520 -0.75400
C 	C 	0.50000 0.89480 0.25200 0.25200
C 	C 	0.50000 0.91270 0.20520 -0.90700
C 	C 	0.00000 0.39480 0.75200 0.23400
C 	C 	-0.00000 0.41270 0.70520 -0.75400
C 	C 	0.50000 0.89480 0.74800 0.25100
C 	C 	0.50000 0.91270 0.79480 -0.90200
C 	C 	0.00000 0.39480 0.24800 0.23500
C 	C 	0.00000 0.41270 0.29480 -0.75500
C 	C 	0.50000 0.74800 0.89480 0.25100
C 	C 	0.50000 0.79480 0.91270 -0.90200
C 	C 	0.00000 0.24800 0.39480 0.23500
C 	C 	0.00000 0.29480 0.41270 -0.75500
C 	C 	0.50000 0.25200 0.89480 0.25200
C 	C 	0.50000 0.20520 0.91270 -0.90700
C 	C 	0.00000 0.75200 0.39480 0.23400
C 	C 	-0.00000 0.70520 0.41270 -0.75400
C 	C 	0.50000 0.25200 0.10520 0.26200
C 	C 	0.50000 0.20520 0.08730 -0.94100
C 	C 	0.00000 0.75200 0.60520 0.23400
C 	C 	0.00000 0.70520 0.58730 -0.75400
C 	C 	0.50000 0.74800 0.10520 0.26100
C 	C 	0.50000 0.79480 0.08730 -0.93600
C 	C 	0.00000 0.24800 0.60520 0.23500
C 	C 	0.00000 0.29480 0.58730 -0.75400
C 	C 	0.74800 0.10520 0.50000 0.26100
C 	C 	0.79480 0.08730 0.50000 -0.93600
C 	C 	0.24800 0.60520 -0.00000 0.23500
C 	C 	0.29480 0.58730 -0.00000 -0.75400
C 	C 	0.25200 0.10520 0.50000 0.26200
C 	C 	0.20520 0.08730 0.50000 -0.94100
C 	C 	0.75200 0.60520 -0.00000 0.23400
C 	C 	0.70520 0.58730 -0.00000 -0.75400
C 	C 	0.25200 0.89480 0.50000 0.25200
C 	C 	0.20520 0.91270 0.50000 -0.90700
C 	C 	0.75200 0.39480 -0.00000 0.23400
C 	C 	0.70520 0.41270 -0.00000 -0.75400
C 	C 	0.74800 0.89480 0.50000 0.25100
C 	C 	0.79480 0.91270 0.50000 -0.90200
C 	C 	0.24800 0.39480 -0.00000 0.23500
C 	C 	0.29480 0.41270 -0.00000 -0.75500
C 	C 	0.10520 0.50000 0.25200 0.26200
C 	C 	0.08730 0.50000 0.20520 -0.94100
C 	C 	0.60520 0.00000 0.75200 0.23400
C 	C 	0.58730 0.00000 0.70520 -0.75400
C 	C 	0.10520 0.50000 0.74800 0.26100
C 	C 	0.08730 0.50000 0.79480 -0.93600
C 	C 	0.60520 0.00000 0.24800 0.23500
C 	C 	0.58730 0.00000 0.29480 -0.75400
C 	C 	0.89480 0.50000 0.74800 0.25100
C 	C 	0.91270 0.50000 0.79480 -0.90200
C 	C 	0.39480 0.00000 0.24800 0.23500
C 	C 	0.41270 0.00000 0.29480 -0.75500
C 	C 	0.89480 0.50000 0.25200 0.25200
C 	C 	0.91270 0.50000 0.20520 -0.90700
C 	C 	0.39480 0.00000 0.75200 0.23400
C 	C 	0.41270 0.00000 0.70520 -0.75400
C 	C 	0.82160 0.60870 0.17840 0.00400
C 	C 	0.32160 0.10870 0.67840 0.00800
C 	C 	0.17840 0.39130 0.17840 0.00400
C 	C 	0.67840 0.89130 0.67840 0.00300
C 	C 	0.17840 0.60870 0.82160 0.00400
C 	C 	0.67840 0.10870 0.32160 0.00800
C 	C 	0.82160 0.39130 0.82160 0.00400
C 	C 	0.32160 0.89130 0.32160 0.00400
C 	C 	0.17840 0.82160 0.60870 0.00400
C 	C 	0.67840 0.32160 0.10870 0.00800
C 	C 	0.17840 0.17840 0.39130 0.00400
C 	C 	0.67840 0.67840 0.89130 0.00300
C 	C 	0.82160 0.17840 0.60870 0.00400
C 	C 	0.32160 0.67840 0.10870 0.00800
C 	C 	0.82160 0.82160 0.39130 0.00400
C 	C 	0.32160 0.32160 0.89130 0.00400
C 	C 	0.60870 0.17840 0.82160 0.00400
C 	C 	0.10870 0.67840 0.32160 0.00800
C 	C 	0.39130 0.17840 0.17840 0.00400
C 	C 	0.89130 0.67840 0.67840 0.00300
C 	C 	0.60870 0.82160 0.17840 0.00400
C 	C 	0.10870 0.32160 0.67840 0.00800
C 	C 	0.39130 0.82160 0.82160 0.00400
C 	C 	0.89130 0.32160 0.32160 0.00400
C 	C 	0.60870 0.82160 0.82160 0.00400
C 	C 	0.10870 0.32160 0.32160 0.00800
C 	C 	0.39130 0.17840 0.82160 0.00400
C 	C 	0.89130 0.67840 0.32160 0.00400
C 	C 	0.60870 0.17840 0.17840 0.00400
C 	C 	0.10870 0.67840 0.67840 0.00700
C 	C 	0.39130 0.82160 0.17840 0.00400
C 	C 	0.89130 0.32160 0.67840 0.00400
C 	C 	0.82160 0.17840 0.39130 0.00400
C 	C 	0.32160 0.67840 0.89130 0.00400
C 	C 	0.17840 0.17840 0.60870 0.00400
C 	C 	0.67840 0.67840 0.10870 0.00700
C 	C 	0.17840 0.82160 0.39130 0.00400
C 	C 	0.67840 0.32160 0.89130 0.00400
C 	C 	0.82160 0.82160 0.60870 0.00400
C 	C 	0.32160 0.32160 0.10870 0.00800
C 	C 	0.17840 0.60870 0.17840 0.00400
C 	C 	0.67840 0.10870 0.67840 0.00700
C 	C 	0.17840 0.39130 0.82160 0.00400
C 	C 	0.67840 0.89130 0.32160 0.00400
C 	C 	0.82160 0.60870 0.82160 0.00400
C 	C 	0.32160 0.10870 0.32160 0.00800
C 	C 	0.82160 0.39130 0.17840 0.00400
C 	C 	0.32160 0.89130 0.67840 0.00400
