data_crystal

_cell_length_a 10.74020
_cell_length_b 28.55900
_cell_length_c 42.64200
_cell_angle_alpha 90.00000
_cell_angle_beta  90.00000
_cell_angle_gamma 90.00000

_symmetry_space_group_name_	'P 1'
_symmetry_space_group_name_H-M	'P 1'

loop_
_symmetry_equiv_pos_as_xyz
  x,y,z

loop_
_atom_site_label
_atom_site_type_symbol
_atom_site_fract_x
_atom_site_fract_y
_atom_site_fract_z
_atom_site_charge
C 	C 	0.75770 0.99810 0.41430 0.38000
C 	C 	0.70620 0.03780 0.43270 -0.05000
C 	C 	0.73030 0.08350 0.42260 -0.01000
H 	H 	0.77930 0.08880 0.40440 0.06300
C 	C 	0.68300 0.12080 0.43910 -0.03800
C 	C 	0.70400 0.17020 0.42748 0.35100
C 	C 	0.61330 0.11380 0.46640 -0.12400
H 	H 	0.58250 0.13960 0.47810 0.08600
C 	C 	0.59000 0.06770 0.47600 0.17500
C 	C 	0.63450 0.03010 0.45870 -0.10400
H 	H 	0.61520 0.99900 0.46490 0.09900
C 	C 	0.51100 0.08920 0.52440 0.20000
H 	H 	0.48260 0.07660 0.54460 -0.01100
H 	H 	0.44150 0.10530 0.51400 -0.11800
H 	H 	0.57900 0.11140 0.52790 0.02600
C 	C 	0.55090 0.30210 0.37469 0.37100
C 	C 	0.43660 0.30850 0.35460 -0.05500
C 	C 	0.32460 0.28800 0.36330 -0.00500
H 	H 	0.32090 0.26810 0.38120 0.06400
C 	C 	0.21840 0.29650 0.34580 -0.04000
C 	C 	0.09360 0.27790 0.35620 0.36500
C 	C 	0.21590 0.33810 0.32320 0.04000
H 	H 	0.14040 0.34880 0.31400 0.03400
C 	C 	0.32530 0.35900 0.31680 0.09600
C 	C 	0.43380 0.34630 0.33270 -0.06900
H 	H 	0.50820 0.36340 0.32880 0.06000
C 	C 	0.23600 0.41710 0.28220 0.19600
C 	C 	0.67240 0.34350 0.46130 0.36300
C 	C 	0.63820 0.37340 0.48860 -0.11400
C 	C 	0.59210 0.35270 0.51640 0.04600
H 	H 	0.57900 0.31990 0.51740 0.03200
C 	C 	0.56640 0.38040 0.54190 -0.11300
C 	C 	0.53060 0.35850 0.57270 0.34100
C 	C 	0.60300 0.43040 0.54040 0.13000
H 	H 	0.59560 0.44960 0.55850 -0.08300
C 	C 	0.64800 0.44860 0.51390 0.40200
C 	C 	0.68500 0.41940 0.48810 0.19100
H 	H 	0.73860 0.43040 0.47190 -0.04400
C 	C 	0.65700 0.52670 0.53410 -4.02800
H 	H 	0.68520 0.55800 0.52790 1.21600
H 	H 	0.70160 0.51690 0.55310 0.17200
H 	H 	0.56750 0.52730 0.53830 1.37900
C 	C 	0.27600 0.29700 0.66344 0.37700
C 	C 	0.19560 0.33400 0.67730 -0.10100
C 	C 	0.22840 0.38110 0.67260 0.08100
H 	H 	0.30400 0.38800 0.66200 0.02600
C 	C 	0.15500 0.41740 0.68280 -0.19500
C 	C 	0.19180 0.46780 0.67470 0.61500
C 	C 	0.04960 0.40590 0.69810 0.00600
H 	H 	0.99650 0.43050 0.70490 0.01400
C 	C 	0.01270 0.35800 0.70470 0.08200
C 	C 	0.08730 0.32200 0.69340 -0.04300
H 	H 	0.06510 0.29010 0.69660 0.06400
C 	C 	0.81600 0.38700 0.72650 -0.20500
H 	H 	0.74370 0.37460 0.73770 0.09300
H 	H 	0.78910 0.40080 0.70660 0.09100
H 	H 	0.85700 0.41090 0.73930 0.08900
C 	C 	0.01660 0.60920 0.61940 0.36600
C 	C 	0.90200 0.62020 0.60170 -0.07000
C 	C 	0.78970 0.59830 0.60940 0.01000
H 	H 	0.78690 0.57590 0.62590 0.06000
C 	C 	0.68300 0.60930 0.59300 -0.09700
C 	C 	0.56170 0.58670 0.60220 0.36400
C 	C 	0.68530 0.64230 0.56910 -0.11000
H 	H 	0.61110 0.64970 0.55800 0.06400
C 	C 	0.79460 0.66440 0.56160 0.12400
C 	C 	0.90390 0.65280 0.57780 -0.08100
H 	H 	0.98020 0.66750 0.57230 0.07200
C 	C 	0.70160 0.70690 0.51990 -0.16000
H 	H 	0.63140 0.68770 0.52690 0.07700
H 	H 	0.71920 0.70040 0.49780 0.08200
H 	H 	0.68070 0.74010 0.52240 0.08300
C 	C 	0.14140 0.63640 0.70408 0.38900
C 	C 	0.06980 0.66360 0.72811 -0.13800
C 	C 	0.07360 0.71290 0.72810 0.02300
C 	C 	0.02490 0.73620 0.74970 0.04700
C 	C 	0.99100 0.81180 0.77340 0.03700
O 	O 	0.71200 0.95817 0.41809 -0.46600
O 	O 	0.83790 0.27179 0.39994 -0.65300
O 	O 	0.84620 0.00800 0.39620 -0.48500
O 	O 	0.30840 0.57435 0.64483 -0.65900
O 	O 	0.75500 0.17550 0.40180 -0.43600
O 	O 	0.66240 0.20290 0.44439 -0.46400
O 	O 	0.55000 0.05470 0.50650 -0.16100
O 	O 	0.54460 0.27270 0.39619 -0.46200
O 	O 	0.64360 0.32797 0.36866 -0.50800
O 	O 	0.09180 0.24450 0.37555 -0.43400
O 	O 	0.99940 0.29800 0.34501 -0.45500
O 	O 	0.34120 0.39590 0.29570 -0.19600
O 	O 	0.63700 0.30120 0.46244 -0.46000
O 	O 	0.73930 0.35900 0.43941 -0.47000
O 	O 	0.49270 0.31620 0.57125 -0.45400
O 	O 	0.54110 0.38080 0.59781 -0.30600
O 	O 	0.68200 0.49540 0.51020 0.66100
O 	O 	0.37980 0.30920 0.65245 -0.45900
O 	O 	0.23520 0.25575 0.66399 -0.45500
O 	O 	0.29000 0.47200 0.66080 -0.36000
O 	O 	0.11260 0.49510 0.67660 -0.76800
O 	O 	0.90540 0.34820 0.72010 -0.13800
O 	O 	0.01100 0.57690 0.63973 -0.45700
O 	O 	0.11630 0.63180 0.61375 -0.51300
O 	O 	0.56890 0.55500 0.62290 -0.49400
O 	O 	0.46680 0.60030 0.58890 -0.49000
O 	O 	0.80540 0.69650 0.53774 -0.16700
O 	O 	0.12820 0.59210 0.70515 -0.45900
O 	O 	0.20670 0.65630 0.68366 -0.44900
O 	O 	0.03760 0.78460 0.74840 -0.14800
Zn	Zn	0.92914 0.98155 0.35801 1.20000
Zn	Zn	0.68615 0.26415 0.42564 1.22800
Zn	Zn	0.43194 0.28819 0.60983 1.23100
Zn	Zn	0.31629 0.19882 0.64469 1.23500
Zn	Zn	0.15271 0.55830 0.66575 1.23700
Zn	Zn	0.28623 0.60079 0.59965 1.23500
H 	H 	0.04800 0.48800 0.69080 0.26600
C 	C 	0.45000 0.09660 0.51700 0.08600
H 	H 	0.38610 0.08480 0.53150 0.01800
H 	H 	0.41240 0.11980 0.50290 0.06400
H 	H 	0.51720 0.11120 0.52900 -0.10000
C 	C 	0.23190 0.31290 0.31650 -0.14800
H 	H 	0.16180 0.31370 0.30290 0.08900
C 	C 	0.34800 0.32900 0.30540 0.10400
C 	C 	0.45220 0.32520 0.32410 -0.03200
H 	H 	0.53210 0.33370 0.31640 0.05300
C 	C 	0.46100 0.36530 0.26170 0.06100
C 	C 	0.55700 0.42830 0.54040 -0.04400
H 	H 	0.52580 0.44600 0.55750 0.07300
C 	C 	0.59600 0.45020 0.51240 -0.51300
C 	C 	0.63100 0.42270 0.48640 -0.22400
H 	H 	0.65040 0.43750 0.46700 0.08900
C 	C 	0.58500 0.52590 0.53280 -0.37400
H 	H 	0.59660 0.55900 0.52740 0.22600
H 	H 	0.64170 0.51750 0.54990 1.62900
H 	H 	0.49880 0.52070 0.53940 -0.52100
C 	C 	0.86740 0.30340 0.72560 -0.18100
H 	H 	0.78800 0.30390 0.73690 0.09700
H 	H 	0.93010 0.28720 0.73830 0.08800
H 	H 	0.85680 0.28700 0.70560 0.09600
C 	C 	0.94400 0.81270 0.77030 0.06000
O 	O 	0.49860 0.05830 0.49880 -0.12100
O 	O 	0.34510 0.35010 0.27570 -0.17700
O 	O 	0.61140 0.49780 0.50620 0.03500
O 	O 	0.30540 0.47720 0.67530 -0.21900
O 	O 	0.21300 0.43890 0.30800 -0.21200
H 	H 	0.97400 0.70040 0.52300 0.06900
H 	H 	0.88450 0.74130 0.51070 0.08500
H 	H 	0.93330 0.74180 0.54610 0.07600
C 	C 	0.90600 0.72180 0.52880 -0.14100
C 	C 	0.74230 0.50190 0.91430 0.37900
C 	C 	0.79380 0.46220 0.93270 -0.05100
C 	C 	0.76970 0.41650 0.92260 -0.01100
H 	H 	0.72070 0.41120 0.90440 0.06200
C 	C 	0.81700 0.37920 0.93910 -0.03900
C 	C 	0.79600 0.32980 0.92748 0.35000
C 	C 	0.88670 0.38620 0.96640 -0.12500
H 	H 	0.91750 0.36040 0.97810 0.08500
C 	C 	0.91000 0.43230 0.97600 0.17400
C 	C 	0.86550 0.46990 0.95870 -0.10500
H 	H 	0.88480 0.50100 0.96490 0.09800
C 	C 	0.98900 0.41080 0.02440 0.19400
H 	H 	0.01740 0.42340 0.04460 -0.01200
H 	H 	0.05850 0.39470 0.01400 -0.11800
H 	H 	0.92100 0.38860 0.02790 0.02500
C 	C 	0.94910 0.19790 0.87469 0.37200
C 	C 	0.06340 0.19150 0.85460 -0.05600
C 	C 	0.17540 0.21200 0.86330 -0.00500
H 	H 	0.17910 0.23190 0.88120 0.06400
C 	C 	0.28160 0.20350 0.84580 -0.04000
C 	C 	0.40640 0.22210 0.85620 0.36600
C 	C 	0.28410 0.16190 0.82320 0.04000
H 	H 	0.35960 0.15120 0.81400 0.03400
C 	C 	0.17470 0.14100 0.81680 0.09600
C 	C 	0.06620 0.15370 0.83270 -0.07000
H 	H 	0.99180 0.13660 0.82880 0.06100
C 	C 	0.26400 0.08290 0.78220 0.19600
C 	C 	0.82760 0.15650 0.96130 0.36300
C 	C 	0.86180 0.12660 0.98860 -0.11400
C 	C 	0.90790 0.14730 0.01640 0.04700
H 	H 	0.92100 0.18010 0.01740 0.03200
C 	C 	0.93360 0.11960 0.04190 -0.11400
C 	C 	0.96940 0.14150 0.07270 0.34200
C 	C 	0.89700 0.06960 0.04040 0.13200
H 	H 	0.90440 0.05040 0.05850 -0.08400
C 	C 	0.85200 0.05140 0.01390 0.40600
C 	C 	0.81500 0.08060 0.98810 0.19400
H 	H 	0.76140 0.06960 0.97190 -0.04500
C 	C 	0.84300 0.97330 0.03410 -4.05400
H 	H 	0.81480 0.94200 0.02790 1.22400
H 	H 	0.79840 0.98310 0.05310 0.17300
H 	H 	0.93250 0.97270 0.03830 1.38900
C 	C 	0.22400 0.20300 0.16344 0.37700
C 	C 	0.30440 0.16600 0.17730 -0.10100
C 	C 	0.27160 0.11890 0.17260 0.08100
H 	H 	0.19600 0.11200 0.16200 0.02600
C 	C 	0.34500 0.08260 0.18280 -0.19500
C 	C 	0.30820 0.03220 0.17470 0.61600
C 	C 	0.45040 0.09410 0.19810 0.00800
H 	H 	0.50350 0.06950 0.20490 0.01300
C 	C 	0.48730 0.14200 0.20470 0.08300
C 	C 	0.41270 0.17800 0.19340 -0.04300
H 	H 	0.43490 0.20990 0.19660 0.06400
C 	C 	0.68400 0.11300 0.22650 -0.20500
H 	H 	0.75630 0.12540 0.23770 0.09300
H 	H 	0.71090 0.09920 0.20660 0.09100
H 	H 	0.64300 0.08910 0.23930 0.08900
C 	C 	0.48340 0.89080 0.11940 0.36800
C 	C 	0.59800 0.87980 0.10170 -0.07200
C 	C 	0.71030 0.90170 0.10940 0.01100
H 	H 	0.71310 0.92410 0.12590 0.06000
C 	C 	0.81700 0.89070 0.09300 -0.09800
C 	C 	0.93830 0.91330 0.10220 0.36500
C 	C 	0.81470 0.85770 0.06910 -0.10900
H 	H 	0.88890 0.85030 0.05800 0.06300
C 	C 	0.70540 0.83560 0.06160 0.12300
C 	C 	0.59610 0.84720 0.07780 -0.08000
H 	H 	0.51980 0.83250 0.07230 0.07200
C 	C 	0.79840 0.79310 0.01990 -0.16000
H 	H 	0.86860 0.81230 0.02690 0.07700
H 	H 	0.78080 0.79960 0.99780 0.08200
H 	H 	0.81930 0.75990 0.02240 0.08300
C 	C 	0.35860 0.86360 0.20408 0.39000
C 	C 	0.43020 0.83640 0.22811 -0.13900
C 	C 	0.42640 0.78710 0.22810 0.02500
C 	C 	0.47510 0.76380 0.24970 0.04300
C 	C 	0.50900 0.68820 0.27340 0.03900
O 	O 	0.78800 0.54183 0.91809 -0.46600
O 	O 	0.66210 0.22821 0.89994 -0.65300
O 	O 	0.65380 0.49200 0.89620 -0.48600
O 	O 	0.19160 0.92565 0.14483 -0.65900
O 	O 	0.74500 0.32450 0.90180 -0.43600
O 	O 	0.83760 0.29710 0.94439 -0.46400
O 	O 	0.95000 0.44530 0.00650 -0.15300
O 	O 	0.95540 0.22730 0.89619 -0.46200
O 	O 	0.85640 0.17203 0.86866 -0.50800
O 	O 	0.40820 0.25550 0.87555 -0.43400
O 	O 	0.50060 0.20200 0.84501 -0.45600
O 	O 	0.15880 0.10410 0.79570 -0.19600
O 	O 	0.86300 0.19880 0.96244 -0.46000
O 	O 	0.76070 0.14100 0.93941 -0.47100
O 	O 	0.00730 0.18380 0.07125 -0.45500
O 	O 	0.95890 0.11920 0.09781 -0.30600
O 	O 	0.81800 0.00460 0.01020 0.66500
O 	O 	0.12020 0.19080 0.15245 -0.46000
O 	O 	0.26480 0.24425 0.16399 -0.45500
O 	O 	0.21000 0.02800 0.16080 -0.36000
O 	O 	0.38740 0.00490 0.17660 -0.76800
O 	O 	0.59460 0.15180 0.22010 -0.13900
O 	O 	0.48900 0.92310 0.13973 -0.45700
O 	O 	0.38370 0.86820 0.11375 -0.51400
O 	O 	0.93110 0.94500 0.12290 -0.49400
O 	O 	0.03320 0.89970 0.08890 -0.49100
O 	O 	0.69460 0.80350 0.03774 -0.16600
O 	O 	0.37180 0.90790 0.20515 -0.45900
O 	O 	0.29330 0.84370 0.18366 -0.45000
O 	O 	0.46240 0.71540 0.24840 -0.14700
Zn	Zn	0.57086 0.51845 0.85801 1.20000
Zn	Zn	0.81385 0.23585 0.92564 1.22800
Zn	Zn	0.06806 0.21181 0.10983 1.23100
Zn	Zn	0.18371 0.30118 0.14469 1.23500
Zn	Zn	0.34729 0.94170 0.16575 1.23700
Zn	Zn	0.21377 0.89921 0.09965 1.23500
H 	H 	0.45200 0.01200 0.19080 0.26700
C 	C 	0.05000 0.40340 0.01700 0.08500
H 	H 	0.11390 0.41520 0.03150 0.01800
H 	H 	0.08760 0.38020 0.00290 0.06300
H 	H 	0.98280 0.38880 0.02900 -0.09700
C 	C 	0.26810 0.18710 0.81650 -0.14800
H 	H 	0.33820 0.18630 0.80290 0.09000
C 	C 	0.15200 0.17100 0.80540 0.10400
C 	C 	0.04780 0.17480 0.82410 -0.03300
H 	H 	0.96790 0.16630 0.81640 0.05400
C 	C 	0.03900 0.13470 0.76170 0.05900
C 	C 	0.94300 0.07170 0.04040 -0.04400
H 	H 	0.97420 0.05400 0.05750 0.07400
C 	C 	0.90400 0.04980 0.01240 -0.51800
C 	C 	0.86900 0.07730 0.98640 -0.22700
H 	H 	0.84960 0.06250 0.96700 0.08900
C 	C 	0.91500 0.97410 0.03280 -0.37700
H 	H 	0.90340 0.94100 0.02740 0.22700
H 	H 	0.85830 0.98250 0.04990 1.63900
H 	H 	0.00120 0.97930 0.03940 -0.52500
C 	C 	0.63260 0.19660 0.22560 -0.17900
H 	H 	0.71200 0.19610 0.23690 0.09600
H 	H 	0.56990 0.21280 0.23830 0.08800
H 	H 	0.64320 0.21300 0.20560 0.09600
C 	C 	0.55600 0.68730 0.27030 0.05800
O 	O 	0.00140 0.44170 0.99880 -0.12800
O 	O 	0.15490 0.14990 0.77570 -0.17700
O 	O 	0.88860 0.00220 0.00620 0.03600
O 	O 	0.19460 0.02280 0.17530 -0.22000
O 	O 	0.28700 0.06110 0.80800 -0.21200
H 	H 	0.52600 0.79960 0.02300 0.06900
H 	H 	0.61550 0.75870 0.01070 0.08400
H 	H 	0.56670 0.75820 0.04610 0.07600
C 	C 	0.59400 0.77820 0.02880 -0.14100
C 	C 	0.24230 0.99810 0.08570 0.37900
C 	C 	0.29380 0.03780 0.06730 -0.05100
C 	C 	0.26970 0.08350 0.07740 -0.01100
H 	H 	0.22070 0.08880 0.09560 0.06200
C 	C 	0.31700 0.12080 0.06090 -0.04000
C 	C 	0.29600 0.17020 0.07252 0.35000
C 	C 	0.38670 0.11380 0.03360 -0.12500
H 	H 	0.41750 0.13960 0.02190 0.08500
C 	C 	0.41000 0.06770 0.02400 0.17400
C 	C 	0.36550 0.03010 0.04130 -0.10500
H 	H 	0.38480 0.99900 0.03510 0.09800
C 	C 	0.48900 0.08920 0.97560 0.19900
H 	H 	0.51740 0.07660 0.95540 -0.01200
H 	H 	0.55850 0.10530 0.98600 -0.11900
H 	H 	0.42100 0.11140 0.97210 0.02600
C 	C 	0.44910 0.30210 0.12531 0.37200
C 	C 	0.56340 0.30850 0.14540 -0.05500
C 	C 	0.67540 0.28800 0.13670 -0.00500
H 	H 	0.67910 0.26810 0.11880 0.06400
C 	C 	0.78160 0.29650 0.15420 -0.04000
C 	C 	0.90640 0.27790 0.14380 0.36700
C 	C 	0.78410 0.33810 0.17680 0.04000
H 	H 	0.85960 0.34880 0.18600 0.03400
C 	C 	0.67470 0.35900 0.18320 0.09500
C 	C 	0.56620 0.34630 0.16730 -0.06900
H 	H 	0.49180 0.36340 0.17120 0.06000
C 	C 	0.76400 0.41710 0.21780 0.19600
C 	C 	0.32760 0.34350 0.03870 0.36300
C 	C 	0.36180 0.37340 0.01140 -0.11400
C 	C 	0.40790 0.35270 0.98360 0.04600
H 	H 	0.42100 0.31990 0.98260 0.03200
C 	C 	0.43360 0.38040 0.95810 -0.11300
C 	C 	0.46940 0.35850 0.92730 0.34100
C 	C 	0.39700 0.43040 0.95960 0.13000
H 	H 	0.40440 0.44960 0.94150 -0.08300
C 	C 	0.35200 0.44860 0.98610 0.40200
C 	C 	0.31500 0.41940 0.01190 0.19100
H 	H 	0.26140 0.43040 0.02810 -0.04400
C 	C 	0.34300 0.52670 0.96590 -4.03000
H 	H 	0.31480 0.55800 0.97210 1.21700
H 	H 	0.29840 0.51690 0.94690 0.17200
H 	H 	0.43250 0.52730 0.96170 1.38000
C 	C 	0.72400 0.29700 0.83656 0.37700
C 	C 	0.80440 0.33400 0.82270 -0.10100
C 	C 	0.77160 0.38110 0.82740 0.08200
H 	H 	0.69600 0.38800 0.83800 0.02600
C 	C 	0.84500 0.41740 0.81720 -0.19600
C 	C 	0.80820 0.46780 0.82530 0.61600
C 	C 	0.95040 0.40590 0.80190 0.00900
H 	H 	0.00350 0.43050 0.79510 0.01100
C 	C 	0.98730 0.35800 0.79530 0.08300
C 	C 	0.91270 0.32200 0.80660 -0.04300
H 	H 	0.93490 0.29010 0.80340 0.06400
C 	C 	0.18400 0.38700 0.77350 -0.20400
H 	H 	0.25630 0.37460 0.76230 0.09200
H 	H 	0.21090 0.40080 0.79340 0.09000
H 	H 	0.14300 0.41090 0.76070 0.08900
C 	C 	0.98340 0.60920 0.88060 0.36900
C 	C 	0.09800 0.62020 0.89830 -0.07300
C 	C 	0.21030 0.59830 0.89060 0.01100
H 	H 	0.21310 0.57590 0.87410 0.05900
C 	C 	0.31700 0.60930 0.90700 -0.09800
C 	C 	0.43830 0.58670 0.89780 0.36500
C 	C 	0.31470 0.64230 0.93090 -0.10900
H 	H 	0.38890 0.64970 0.94200 0.06300
C 	C 	0.20540 0.66440 0.93840 0.12300
C 	C 	0.09610 0.65280 0.92220 -0.07900
H 	H 	0.01980 0.66750 0.92770 0.07100
C 	C 	0.29840 0.70690 0.98010 -0.15900
H 	H 	0.36860 0.68770 0.97310 0.07700
H 	H 	0.28080 0.70040 0.00220 0.08100
H 	H 	0.31930 0.74010 0.97760 0.08300
C 	C 	0.85860 0.63640 0.79592 0.39000
C 	C 	0.93020 0.66360 0.77189 -0.13800
C 	C 	0.92640 0.71290 0.77190 0.02600
C 	C 	0.97510 0.73620 0.75030 0.04000
C 	C 	0.00900 0.81180 0.72660 0.04100
O 	O 	0.28800 0.95817 0.08191 -0.46600
O 	O 	0.16210 0.27179 0.10006 -0.65300
O 	O 	0.15380 0.00800 0.10380 -0.48600
O 	O 	0.69160 0.57435 0.85517 -0.65900
O 	O 	0.24500 0.17550 0.09820 -0.43600
O 	O 	0.33760 0.20290 0.05561 -0.46400
O 	O 	0.45000 0.05470 0.99350 -0.16100
O 	O 	0.45540 0.27270 0.10381 -0.46200
O 	O 	0.35640 0.32797 0.13134 -0.50800
O 	O 	0.90820 0.24450 0.12445 -0.43400
O 	O 	0.00060 0.29800 0.15499 -0.45700
O 	O 	0.65880 0.39590 0.20430 -0.19600
O 	O 	0.36300 0.30120 0.03756 -0.46000
O 	O 	0.26070 0.35900 0.06059 -0.47100
O 	O 	0.50730 0.31620 0.92875 -0.45400
O 	O 	0.45890 0.38080 0.90219 -0.30600
O 	O 	0.31800 0.49540 0.98980 0.66100
O 	O 	0.62020 0.30920 0.84755 -0.45900
O 	O 	0.76480 0.25575 0.83601 -0.45500
O 	O 	0.71000 0.47200 0.83920 -0.36000
O 	O 	0.88740 0.49510 0.82340 -0.76800
O 	O 	0.09460 0.34820 0.77990 -0.14000
O 	O 	0.98900 0.57690 0.86027 -0.45700
O 	O 	0.88370 0.63180 0.88625 -0.51400
O 	O 	0.43110 0.55500 0.87710 -0.49400
O 	O 	0.53320 0.60030 0.91110 -0.49000
O 	O 	0.19460 0.69650 0.96226 -0.16700
O 	O 	0.87180 0.59210 0.79485 -0.45800
O 	O 	0.79330 0.65630 0.81634 -0.44900
O 	O 	0.96240 0.78460 0.75160 -0.14500
Zn	Zn	0.07086 0.98155 0.14199 1.20000
Zn	Zn	0.31385 0.26415 0.07436 1.22800
Zn	Zn	0.56806 0.28819 0.89017 1.23100
Zn	Zn	0.68371 0.19882 0.85531 1.23500
Zn	Zn	0.84729 0.55830 0.83425 1.23700
Zn	Zn	0.71377 0.60079 0.90035 1.23500
H 	H 	0.95200 0.48800 0.80920 0.26700
C 	C 	0.55000 0.09660 0.98300 0.08600
H 	H 	0.61390 0.08480 0.96850 0.01800
H 	H 	0.58760 0.11980 0.99710 0.06400
H 	H 	0.48280 0.11120 0.97100 -0.10000
C 	C 	0.76810 0.31290 0.18350 -0.14800
H 	H 	0.83820 0.31370 0.19710 0.09000
C 	C 	0.65200 0.32900 0.19460 0.10400
C 	C 	0.54780 0.32520 0.17590 -0.03200
H 	H 	0.46790 0.33370 0.18360 0.05300
C 	C 	0.53900 0.36530 0.23830 0.06100
C 	C 	0.44300 0.42830 0.95960 -0.04400
H 	H 	0.47420 0.44600 0.94250 0.07300
C 	C 	0.40400 0.45020 0.98760 -0.51300
C 	C 	0.36900 0.42270 0.01360 -0.22400
H 	H 	0.34960 0.43750 0.03300 0.08800
C 	C 	0.41500 0.52590 0.96720 -0.37400
H 	H 	0.40340 0.55900 0.97260 0.22600
H 	H 	0.35830 0.51750 0.95010 1.63000
H 	H 	0.50120 0.52070 0.96060 -0.52100
C 	C 	0.13260 0.30340 0.77440 -0.17800
H 	H 	0.21200 0.30390 0.76310 0.09600
H 	H 	0.06990 0.28720 0.76170 0.08700
H 	H 	0.14320 0.28700 0.79440 0.09500
C 	C 	0.05600 0.81270 0.72970 0.05500
O 	O 	0.50140 0.05830 0.00120 -0.12200
O 	O 	0.65490 0.35010 0.22430 -0.17700
O 	O 	0.38860 0.49780 0.99380 0.03500
O 	O 	0.69460 0.47720 0.82470 -0.21900
O 	O 	0.78700 0.43890 0.19200 -0.21200
H 	H 	0.02600 0.70040 0.97700 0.06800
H 	H 	0.11550 0.74130 0.98930 0.08400
H 	H 	0.06670 0.74180 0.95390 0.07600
C 	C 	0.09400 0.72180 0.97120 -0.14000
C 	C 	0.25770 0.50190 0.58570 0.37900
C 	C 	0.20620 0.46220 0.56730 -0.05100
C 	C 	0.23030 0.41650 0.57740 -0.01100
H 	H 	0.27930 0.41120 0.59560 0.06200
C 	C 	0.18300 0.37920 0.56090 -0.04000
C 	C 	0.20400 0.32980 0.57252 0.35000
C 	C 	0.11330 0.38620 0.53360 -0.12500
H 	H 	0.08250 0.36040 0.52190 0.08400
C 	C 	0.09000 0.43230 0.52400 0.17400
C 	C 	0.13450 0.46990 0.54130 -0.10500
H 	H 	0.11520 0.50100 0.53510 0.09800
C 	C 	0.01100 0.41080 0.47560 0.20300
H 	H 	0.98260 0.42340 0.45540 -0.01300
H 	H 	0.94150 0.39470 0.48600 -0.12100
H 	H 	0.07900 0.38860 0.47210 0.02600
C 	C 	0.05090 0.19790 0.62531 0.37100
C 	C 	0.93660 0.19150 0.64540 -0.05500
C 	C 	0.82460 0.21200 0.63670 -0.00500
H 	H 	0.82090 0.23190 0.61880 0.06400
C 	C 	0.71840 0.20350 0.65420 -0.04000
C 	C 	0.59360 0.22210 0.64380 0.36600
C 	C 	0.71590 0.16190 0.67680 0.04000
H 	H 	0.64040 0.15120 0.68600 0.03400
C 	C 	0.82530 0.14100 0.68320 0.09500
C 	C 	0.93380 0.15370 0.66730 -0.06800
H 	H 	0.00820 0.13660 0.67120 0.06000
C 	C 	0.73600 0.08290 0.71780 0.19600
C 	C 	0.17240 0.15650 0.53870 0.36300
C 	C 	0.13820 0.12660 0.51140 -0.11400
C 	C 	0.09210 0.14730 0.48360 0.04600
H 	H 	0.07900 0.18010 0.48260 0.03200
C 	C 	0.06640 0.11960 0.45810 -0.11300
C 	C 	0.03060 0.14150 0.42730 0.34000
C 	C 	0.10300 0.06960 0.45960 0.12900
H 	H 	0.09560 0.05040 0.44150 -0.08200
C 	C 	0.14800 0.05140 0.48610 0.39900
C 	C 	0.18500 0.08060 0.51190 0.18800
H 	H 	0.23860 0.06960 0.52810 -0.04300
C 	C 	0.15700 0.97330 0.46590 -4.00800
H 	H 	0.18520 0.94200 0.47210 1.21000
H 	H 	0.20160 0.98310 0.44690 0.17100
H 	H 	0.06750 0.97270 0.46170 1.37100
C 	C 	0.77600 0.20300 0.33656 0.37700
C 	C 	0.69560 0.16600 0.32270 -0.10100
C 	C 	0.72840 0.11890 0.32740 0.08100
H 	H 	0.80400 0.11200 0.33800 0.02600
C 	C 	0.65500 0.08260 0.31720 -0.19500
C 	C 	0.69180 0.03220 0.32530 0.61600
C 	C 	0.54960 0.09410 0.30190 0.00800
H 	H 	0.49650 0.06950 0.29510 0.01300
C 	C 	0.51270 0.14200 0.29530 0.08300
C 	C 	0.58730 0.17800 0.30660 -0.04300
H 	H 	0.56510 0.20990 0.30340 0.06400
C 	C 	0.31600 0.11300 0.27350 -0.20500
H 	H 	0.24370 0.12540 0.26230 0.09300
H 	H 	0.28910 0.09920 0.29340 0.09000
H 	H 	0.35700 0.08910 0.26070 0.08900
C 	C 	0.51660 0.89080 0.38060 0.36700
C 	C 	0.40200 0.87980 0.39830 -0.07200
C 	C 	0.28970 0.90170 0.39060 0.01000
H 	H 	0.28690 0.92410 0.37410 0.06000
C 	C 	0.18300 0.89070 0.40700 -0.09700
C 	C 	0.06170 0.91330 0.39780 0.36300
C 	C 	0.18530 0.85770 0.43090 -0.10900
H 	H 	0.11110 0.85030 0.44200 0.06300
C 	C 	0.29460 0.83560 0.43840 0.12400
C 	C 	0.40390 0.84720 0.42220 -0.08000
H 	H 	0.48020 0.83250 0.42770 0.07200
C 	C 	0.20160 0.79310 0.48010 -0.15900
H 	H 	0.13140 0.81230 0.47310 0.07700
H 	H 	0.21920 0.79960 0.50220 0.08100
H 	H 	0.18070 0.75990 0.47760 0.08200
C 	C 	0.64140 0.86360 0.29592 0.39000
C 	C 	0.56980 0.83640 0.27189 -0.13900
C 	C 	0.57360 0.78710 0.27190 0.02500
C 	C 	0.52490 0.76380 0.25030 0.04300
C 	C 	0.49100 0.68820 0.22660 0.03900
O 	O 	0.21200 0.54183 0.58191 -0.46600
O 	O 	0.33790 0.22821 0.60006 -0.65300
O 	O 	0.34620 0.49200 0.60380 -0.48600
O 	O 	0.80840 0.92565 0.35517 -0.65800
O 	O 	0.25500 0.32450 0.59820 -0.43600
O 	O 	0.16240 0.29710 0.55561 -0.46400
O 	O 	0.05000 0.44530 0.49350 -0.16700
O 	O 	0.04460 0.22730 0.60381 -0.46200
O 	O 	0.14360 0.17203 0.63134 -0.50800
O 	O 	0.59180 0.25550 0.62445 -0.43400
O 	O 	0.49940 0.20200 0.65499 -0.45600
O 	O 	0.84120 0.10410 0.70430 -0.19600
O 	O 	0.13700 0.19880 0.53756 -0.46000
O 	O 	0.23930 0.14100 0.56059 -0.47100
O 	O 	0.99270 0.18380 0.42875 -0.45300
O 	O 	0.04110 0.11920 0.40219 -0.30600
O 	O 	0.18200 0.00460 0.48980 0.65800
O 	O 	0.87980 0.19080 0.34755 -0.45900
O 	O 	0.73520 0.24425 0.33601 -0.45500
O 	O 	0.79000 0.02800 0.33920 -0.36000
O 	O 	0.61260 0.00490 0.32340 -0.76800
O 	O 	0.40540 0.15180 0.27990 -0.13900
O 	O 	0.51100 0.92310 0.36027 -0.45700
O 	O 	0.61630 0.86820 0.38625 -0.51400
O 	O 	0.06890 0.94500 0.37710 -0.49400
O 	O 	0.96680 0.89970 0.41110 -0.48900
O 	O 	0.30540 0.80350 0.46226 -0.16700
O 	O 	0.62820 0.90790 0.29485 -0.45900
O 	O 	0.70670 0.84370 0.31634 -0.44900
O 	O 	0.53760 0.71540 0.25160 -0.14700
Zn	Zn	0.42914 0.51845 0.64199 1.20000
Zn	Zn	0.18615 0.23585 0.57436 1.22800
Zn	Zn	0.93194 0.21181 0.39017 1.23100
Zn	Zn	0.81629 0.30118 0.35531 1.23500
Zn	Zn	0.65271 0.94170 0.33425 1.23700
Zn	Zn	0.78623 0.89921 0.40035 1.23500
H 	H 	0.54800 0.01200 0.30920 0.26700
C 	C 	0.95000 0.40340 0.48300 0.08600
H 	H 	0.88610 0.41520 0.46850 0.01800
H 	H 	0.91240 0.38020 0.49710 0.06500
H 	H 	0.01720 0.38880 0.47100 -0.10300
C 	C 	0.73190 0.18710 0.68350 -0.14800
H 	H 	0.66180 0.18630 0.69710 0.08900
C 	C 	0.84800 0.17100 0.69460 0.10400
C 	C 	0.95220 0.17480 0.67590 -0.03200
H 	H 	0.03210 0.16630 0.68360 0.05200
C 	C 	0.96100 0.13470 0.73830 0.06200
C 	C 	0.05700 0.07170 0.45960 -0.04300
H 	H 	0.02580 0.05400 0.44250 0.07300
C 	C 	0.09600 0.04980 0.48760 -0.50800
C 	C 	0.13100 0.07730 0.51360 -0.22200
H 	H 	0.15040 0.06250 0.53300 0.08800
C 	C 	0.08500 0.97410 0.46720 -0.37200
H 	H 	0.09660 0.94100 0.47260 0.22500
H 	H 	0.14170 0.98250 0.45010 1.62100
H 	H 	0.99880 0.97930 0.46060 -0.51700
C 	C 	0.36740 0.19660 0.27440 -0.17900
H 	H 	0.28800 0.19610 0.26310 0.09600
H 	H 	0.43010 0.21280 0.26170 0.08800
H 	H 	0.35680 0.21300 0.29440 0.09600
C 	C 	0.44400 0.68730 0.22970 0.05800
O 	O 	0.99860 0.44170 0.50120 -0.11600
O 	O 	0.84510 0.14990 0.72430 -0.17700
O 	O 	0.11140 0.00220 0.49380 0.03400
O 	O 	0.80540 0.02280 0.32470 -0.21900
O 	O 	0.71300 0.06110 0.69200 -0.21200
H 	H 	0.47400 0.79960 0.47700 0.06900
H 	H 	0.38450 0.75870 0.48930 0.08400
H 	H 	0.43330 0.75820 0.45390 0.07600
C 	C 	0.40600 0.77820 0.47120 -0.14100
C 	C 	0.24230 0.00190 0.58570 0.37900
C 	C 	0.29380 0.96220 0.56730 -0.05100
C 	C 	0.26970 0.91650 0.57740 -0.01100
H 	H 	0.22070 0.91120 0.59560 0.06200
C 	C 	0.31700 0.87920 0.56090 -0.04000
C 	C 	0.29600 0.82980 0.57252 0.35000
C 	C 	0.38670 0.88620 0.53360 -0.12500
H 	H 	0.41750 0.86040 0.52190 0.08500
C 	C 	0.41000 0.93230 0.52400 0.17400
C 	C 	0.36550 0.96990 0.54130 -0.10500
H 	H 	0.38480 0.00100 0.53510 0.09800
C 	C 	0.48900 0.91080 0.47560 0.19900
H 	H 	0.51740 0.92340 0.45540 -0.01200
H 	H 	0.55850 0.89470 0.48600 -0.11900
H 	H 	0.42100 0.88860 0.47210 0.02600
C 	C 	0.44910 0.69790 0.62531 0.37200
C 	C 	0.56340 0.69150 0.64540 -0.05500
C 	C 	0.67540 0.71200 0.63670 -0.00500
H 	H 	0.67910 0.73190 0.61880 0.06400
C 	C 	0.78160 0.70350 0.65420 -0.04000
C 	C 	0.90640 0.72210 0.64380 0.36700
C 	C 	0.78410 0.66190 0.67680 0.04000
H 	H 	0.85960 0.65120 0.68600 0.03400
C 	C 	0.67470 0.64100 0.68320 0.09500
C 	C 	0.56620 0.65370 0.66730 -0.06900
H 	H 	0.49180 0.63660 0.67120 0.06000
C 	C 	0.76400 0.58290 0.71780 0.19600
C 	C 	0.32760 0.65650 0.53870 0.36300
C 	C 	0.36180 0.62660 0.51140 -0.11400
C 	C 	0.40790 0.64730 0.48360 0.04600
H 	H 	0.42100 0.68010 0.48260 0.03200
C 	C 	0.43360 0.61960 0.45810 -0.11300
C 	C 	0.46940 0.64150 0.42730 0.34100
C 	C 	0.39700 0.56960 0.45960 0.13000
H 	H 	0.40440 0.55040 0.44150 -0.08300
C 	C 	0.35200 0.55140 0.48610 0.40200
C 	C 	0.31500 0.58060 0.51190 0.19100
H 	H 	0.26140 0.56960 0.52810 -0.04400
C 	C 	0.34300 0.47330 0.46590 -4.03100
H 	H 	0.31480 0.44200 0.47210 1.21700
H 	H 	0.29840 0.48310 0.44690 0.17200
H 	H 	0.43250 0.47270 0.46170 1.38000
C 	C 	0.72400 0.70300 0.33656 0.37700
C 	C 	0.80440 0.66600 0.32270 -0.10100
C 	C 	0.77160 0.61890 0.32740 0.08200
H 	H 	0.69600 0.61200 0.33800 0.02600
C 	C 	0.84500 0.58260 0.31720 -0.19600
C 	C 	0.80820 0.53220 0.32530 0.61600
C 	C 	0.95040 0.59410 0.30190 0.00900
H 	H 	0.00350 0.56950 0.29510 0.01100
C 	C 	0.98730 0.64200 0.29530 0.08300
C 	C 	0.91270 0.67800 0.30660 -0.04300
H 	H 	0.93490 0.70990 0.30340 0.06400
C 	C 	0.18400 0.61300 0.27350 -0.20400
H 	H 	0.25630 0.62540 0.26230 0.09200
H 	H 	0.21090 0.59920 0.29340 0.09000
H 	H 	0.14300 0.58910 0.26070 0.08900
C 	C 	0.98340 0.39080 0.38060 0.36900
C 	C 	0.09800 0.37980 0.39830 -0.07300
C 	C 	0.21030 0.40170 0.39060 0.01100
H 	H 	0.21310 0.42410 0.37410 0.05900
C 	C 	0.31700 0.39070 0.40700 -0.09800
C 	C 	0.43830 0.41330 0.39780 0.36500
C 	C 	0.31470 0.35770 0.43090 -0.10900
H 	H 	0.38890 0.35030 0.44200 0.06300
C 	C 	0.20540 0.33560 0.43840 0.12300
C 	C 	0.09610 0.34720 0.42220 -0.07900
H 	H 	0.01980 0.33250 0.42770 0.07100
C 	C 	0.29840 0.29310 0.48010 -0.16000
H 	H 	0.36860 0.31230 0.47310 0.07700
H 	H 	0.28080 0.29960 0.50220 0.08200
H 	H 	0.31930 0.25990 0.47760 0.08300
C 	C 	0.85860 0.36360 0.29592 0.39000
C 	C 	0.93020 0.33640 0.27189 -0.13800
C 	C 	0.92640 0.28710 0.27190 0.02600
C 	C 	0.97510 0.26380 0.25030 0.04000
C 	C 	0.00900 0.18820 0.22660 0.04100
O 	O 	0.28800 0.04183 0.58191 -0.46600
O 	O 	0.16210 0.72821 0.60006 -0.65300
O 	O 	0.15380 0.99200 0.60380 -0.48600
O 	O 	0.69160 0.42565 0.35517 -0.65900
O 	O 	0.24500 0.82450 0.59820 -0.43600
O 	O 	0.33760 0.79710 0.55561 -0.46400
O 	O 	0.45000 0.94530 0.49350 -0.16100
O 	O 	0.45540 0.72730 0.60381 -0.46200
O 	O 	0.35640 0.67203 0.63134 -0.50800
O 	O 	0.90820 0.75550 0.62445 -0.43400
O 	O 	0.00060 0.70200 0.65499 -0.45700
O 	O 	0.65880 0.60410 0.70430 -0.19600
O 	O 	0.36300 0.69880 0.53756 -0.46000
O 	O 	0.26070 0.64100 0.56059 -0.47100
O 	O 	0.50730 0.68380 0.42875 -0.45400
O 	O 	0.45890 0.61920 0.40219 -0.30600
O 	O 	0.31800 0.50460 0.48980 0.66200
O 	O 	0.62020 0.69080 0.34755 -0.45900
O 	O 	0.76480 0.74425 0.33601 -0.45500
O 	O 	0.71000 0.52800 0.33920 -0.36000
O 	O 	0.88740 0.50490 0.32340 -0.76800
O 	O 	0.09460 0.65180 0.27990 -0.14000
O 	O 	0.98900 0.42310 0.36027 -0.45700
O 	O 	0.88370 0.36820 0.38625 -0.51400
O 	O 	0.43110 0.44500 0.37710 -0.49400
O 	O 	0.53320 0.39970 0.41110 -0.49000
O 	O 	0.19460 0.30350 0.46226 -0.16700
O 	O 	0.87180 0.40790 0.29485 -0.45800
O 	O 	0.79330 0.34370 0.31634 -0.44900
O 	O 	0.96240 0.21540 0.25160 -0.14600
Zn	Zn	0.07086 0.01845 0.64199 1.20000
Zn	Zn	0.31385 0.73585 0.57436 1.22800
Zn	Zn	0.56806 0.71181 0.39017 1.23100
Zn	Zn	0.68371 0.80118 0.35531 1.23500
Zn	Zn	0.84729 0.44170 0.33425 1.23700
Zn	Zn	0.71377 0.39921 0.40035 1.23500
H 	H 	0.95200 0.51200 0.30920 0.26700
C 	C 	0.55000 0.90340 0.48300 0.08600
H 	H 	0.61390 0.91520 0.46850 0.01800
H 	H 	0.58760 0.88020 0.49710 0.06400
H 	H 	0.48280 0.88880 0.47100 -0.10000
C 	C 	0.76810 0.68710 0.68350 -0.14800
H 	H 	0.83820 0.68630 0.69710 0.09000
C 	C 	0.65200 0.67100 0.69460 0.10400
C 	C 	0.54780 0.67480 0.67590 -0.03200
H 	H 	0.46790 0.66630 0.68360 0.05300
C 	C 	0.53900 0.63470 0.73830 0.06100
C 	C 	0.44300 0.57170 0.45960 -0.04400
H 	H 	0.47420 0.55400 0.44250 0.07300
C 	C 	0.40400 0.54980 0.48760 -0.51300
C 	C 	0.36900 0.57730 0.51360 -0.22400
H 	H 	0.34960 0.56250 0.53300 0.08800
C 	C 	0.41500 0.47410 0.46720 -0.37500
H 	H 	0.40340 0.44100 0.47260 0.22600
H 	H 	0.35830 0.48250 0.45010 1.63000
H 	H 	0.50120 0.47930 0.46060 -0.52100
C 	C 	0.13260 0.69660 0.27440 -0.17800
H 	H 	0.21200 0.69610 0.26310 0.09600
H 	H 	0.06990 0.71280 0.26170 0.08700
H 	H 	0.14320 0.71300 0.29440 0.09500
C 	C 	0.05600 0.18730 0.22970 0.05500
O 	O 	0.50140 0.94170 0.50120 -0.12200
O 	O 	0.65490 0.64990 0.72430 -0.17700
O 	O 	0.38860 0.50220 0.49380 0.03500
O 	O 	0.69460 0.52280 0.32470 -0.21900
O 	O 	0.78700 0.56110 0.69200 -0.21200
H 	H 	0.02600 0.29960 0.47700 0.06800
H 	H 	0.11550 0.25870 0.48930 0.08400
H 	H 	0.06670 0.25820 0.45390 0.07600
C 	C 	0.09400 0.27820 0.47120 -0.14000
C 	C 	0.25770 0.49810 0.08570 0.37900
C 	C 	0.20620 0.53780 0.06730 -0.05100
C 	C 	0.23030 0.58350 0.07740 -0.01100
H 	H 	0.27930 0.58880 0.09560 0.06200
C 	C 	0.18300 0.62080 0.06090 -0.04000
C 	C 	0.20400 0.67020 0.07252 0.35000
C 	C 	0.11330 0.61380 0.03360 -0.12500
H 	H 	0.08250 0.63960 0.02190 0.08400
C 	C 	0.09000 0.56770 0.02400 0.17400
C 	C 	0.13450 0.53010 0.04130 -0.10500
H 	H 	0.11520 0.49900 0.03510 0.09800
C 	C 	0.01100 0.58920 0.97560 0.20400
H 	H 	0.98260 0.57660 0.95540 -0.01300
H 	H 	0.94150 0.60530 0.98600 -0.12100
H 	H 	0.07900 0.61140 0.97210 0.02600
C 	C 	0.05090 0.80210 0.12531 0.37100
C 	C 	0.93660 0.80850 0.14540 -0.05500
C 	C 	0.82460 0.78800 0.13670 -0.00500
H 	H 	0.82090 0.76810 0.11880 0.06400
C 	C 	0.71840 0.79650 0.15420 -0.04000
C 	C 	0.59360 0.77790 0.14380 0.36600
C 	C 	0.71590 0.83810 0.17680 0.04000
H 	H 	0.64040 0.84880 0.18600 0.03400
C 	C 	0.82530 0.85900 0.18320 0.09500
C 	C 	0.93380 0.84630 0.16730 -0.06800
H 	H 	0.00820 0.86340 0.17120 0.06000
C 	C 	0.73600 0.91710 0.21780 0.19600
C 	C 	0.17240 0.84350 0.03870 0.36300
C 	C 	0.13820 0.87340 0.01140 -0.11400
C 	C 	0.09210 0.85270 0.98360 0.04600
H 	H 	0.07900 0.81990 0.98260 0.03200
C 	C 	0.06640 0.88040 0.95810 -0.11300
C 	C 	0.03060 0.85850 0.92730 0.33900
C 	C 	0.10300 0.93040 0.95960 0.12900
H 	H 	0.09560 0.94960 0.94150 -0.08200
C 	C 	0.14800 0.94860 0.98610 0.39900
C 	C 	0.18500 0.91940 0.01190 0.18900
H 	H 	0.23860 0.93040 0.02810 -0.04300
C 	C 	0.15700 0.02670 0.96590 -4.00900
H 	H 	0.18520 0.05800 0.97210 1.21100
H 	H 	0.20160 0.01690 0.94690 0.17100
H 	H 	0.06750 0.02730 0.96170 1.37200
C 	C 	0.77600 0.79700 0.83656 0.37700
C 	C 	0.69560 0.83400 0.82270 -0.10100
C 	C 	0.72840 0.88110 0.82740 0.08100
H 	H 	0.80400 0.88800 0.83800 0.02600
C 	C 	0.65500 0.91740 0.81720 -0.19500
C 	C 	0.69180 0.96780 0.82530 0.61600
C 	C 	0.54960 0.90590 0.80190 0.00800
H 	H 	0.49650 0.93050 0.79510 0.01300
C 	C 	0.51270 0.85800 0.79530 0.08300
C 	C 	0.58730 0.82200 0.80660 -0.04300
H 	H 	0.56510 0.79010 0.80340 0.06400
C 	C 	0.31600 0.88700 0.77350 -0.20500
H 	H 	0.24370 0.87460 0.76230 0.09300
H 	H 	0.28910 0.90080 0.79340 0.09000
H 	H 	0.35700 0.91090 0.76070 0.08900
C 	C 	0.51660 0.10920 0.88060 0.36700
C 	C 	0.40200 0.12020 0.89830 -0.07200
C 	C 	0.28970 0.09830 0.89060 0.01000
H 	H 	0.28690 0.07590 0.87410 0.06000
C 	C 	0.18300 0.10930 0.90700 -0.09700
C 	C 	0.06170 0.08670 0.89780 0.36300
C 	C 	0.18530 0.14230 0.93090 -0.10900
H 	H 	0.11110 0.14970 0.94200 0.06300
C 	C 	0.29460 0.16440 0.93840 0.12400
C 	C 	0.40390 0.15280 0.92220 -0.08000
H 	H 	0.48020 0.16750 0.92770 0.07200
C 	C 	0.20160 0.20690 0.98010 -0.15900
H 	H 	0.13140 0.18770 0.97310 0.07700
H 	H 	0.21920 0.20040 0.00220 0.08100
H 	H 	0.18070 0.24010 0.97760 0.08200
C 	C 	0.64140 0.13640 0.79592 0.39000
C 	C 	0.56980 0.16360 0.77189 -0.13900
C 	C 	0.57360 0.21290 0.77190 0.02500
C 	C 	0.52490 0.23620 0.75030 0.04300
C 	C 	0.49100 0.31180 0.72660 0.03900
O 	O 	0.21200 0.45817 0.08191 -0.46600
O 	O 	0.33790 0.77179 0.10006 -0.65300
O 	O 	0.34620 0.50800 0.10380 -0.48600
O 	O 	0.80840 0.07435 0.85517 -0.65800
O 	O 	0.25500 0.67550 0.09820 -0.43600
O 	O 	0.16240 0.70290 0.05561 -0.46400
O 	O 	0.05000 0.55470 0.99350 -0.16700
O 	O 	0.04460 0.77270 0.10381 -0.46200
O 	O 	0.14360 0.82797 0.13134 -0.50800
O 	O 	0.59180 0.74450 0.12445 -0.43400
O 	O 	0.49940 0.79800 0.15499 -0.45600
O 	O 	0.84120 0.89590 0.20430 -0.19600
O 	O 	0.13700 0.80120 0.03756 -0.46000
O 	O 	0.23930 0.85900 0.06059 -0.47100
O 	O 	0.99270 0.81620 0.92875 -0.45300
O 	O 	0.04110 0.88080 0.90219 -0.30600
O 	O 	0.18200 0.99540 0.98980 0.65800
O 	O 	0.87980 0.80920 0.84755 -0.45900
O 	O 	0.73520 0.75575 0.83601 -0.45500
O 	O 	0.79000 0.97200 0.83920 -0.36000
O 	O 	0.61260 0.99510 0.82340 -0.76800
O 	O 	0.40540 0.84820 0.77990 -0.13900
O 	O 	0.51100 0.07690 0.86027 -0.45700
O 	O 	0.61630 0.13180 0.88625 -0.51400
O 	O 	0.06890 0.05500 0.87710 -0.49400
O 	O 	0.96680 0.10030 0.91110 -0.48900
O 	O 	0.30540 0.19650 0.96226 -0.16700
O 	O 	0.62820 0.09210 0.79485 -0.45900
O 	O 	0.70670 0.15630 0.81634 -0.44900
O 	O 	0.53760 0.28460 0.75160 -0.14700
Zn	Zn	0.42914 0.48155 0.14199 1.20000
Zn	Zn	0.18615 0.76415 0.07436 1.22800
Zn	Zn	0.93194 0.78819 0.89017 1.23100
Zn	Zn	0.81629 0.69882 0.85531 1.23500
Zn	Zn	0.65271 0.05830 0.83425 1.23700
Zn	Zn	0.78623 0.10079 0.90035 1.23500
H 	H 	0.54800 0.98800 0.80920 0.26700
C 	C 	0.95000 0.59660 0.98300 0.08600
H 	H 	0.88610 0.58480 0.96850 0.01800
H 	H 	0.91240 0.61980 0.99710 0.06500
H 	H 	0.01720 0.61120 0.97100 -0.10400
C 	C 	0.73190 0.81290 0.18350 -0.14800
H 	H 	0.66180 0.81370 0.19710 0.08900
C 	C 	0.84800 0.82900 0.19460 0.10400
C 	C 	0.95220 0.82520 0.17590 -0.03200
H 	H 	0.03210 0.83370 0.18360 0.05200
C 	C 	0.96100 0.86530 0.23830 0.06200
C 	C 	0.05700 0.92830 0.95960 -0.04300
H 	H 	0.02580 0.94600 0.94250 0.07300
C 	C 	0.09600 0.95020 0.98760 -0.50800
C 	C 	0.13100 0.92270 0.01360 -0.22200
H 	H 	0.15040 0.93750 0.03300 0.08800
C 	C 	0.08500 0.02590 0.96720 -0.37300
H 	H 	0.09660 0.05900 0.97260 0.22500
H 	H 	0.14170 0.01750 0.95010 1.62100
H 	H 	0.99880 0.02070 0.96060 -0.51700
C 	C 	0.36740 0.80340 0.77440 -0.17900
H 	H 	0.28800 0.80390 0.76310 0.09600
H 	H 	0.43010 0.78720 0.76170 0.08800
H 	H 	0.35680 0.78700 0.79440 0.09600
C 	C 	0.44400 0.31270 0.72970 0.05800
O 	O 	0.99860 0.55830 0.00120 -0.11600
O 	O 	0.84510 0.85010 0.22430 -0.17700
O 	O 	0.11140 0.99780 0.99380 0.03400
O 	O 	0.80540 0.97720 0.82470 -0.21900
O 	O 	0.71300 0.93890 0.19200 -0.21200
H 	H 	0.47400 0.20040 0.97700 0.06900
H 	H 	0.38450 0.24130 0.98930 0.08400
H 	H 	0.43330 0.24180 0.95390 0.07600
C 	C 	0.40600 0.22180 0.97120 -0.14100
C 	C 	0.75770 0.00190 0.91430 0.37900
C 	C 	0.70620 0.96220 0.93270 -0.05100
C 	C 	0.73030 0.91650 0.92260 -0.01100
H 	H 	0.77930 0.91120 0.90440 0.06200
C 	C 	0.68300 0.87920 0.93910 -0.03900
C 	C 	0.70400 0.82980 0.92748 0.35000
C 	C 	0.61330 0.88620 0.96640 -0.12500
H 	H 	0.58250 0.86040 0.97810 0.08500
C 	C 	0.59000 0.93230 0.97600 0.17400
C 	C 	0.63450 0.96990 0.95870 -0.10500
H 	H 	0.61520 0.00100 0.96490 0.09800
C 	C 	0.51100 0.91080 0.02440 0.19900
H 	H 	0.48260 0.92340 0.04460 -0.01200
H 	H 	0.44150 0.89470 0.01400 -0.11900
H 	H 	0.57900 0.88860 0.02790 0.02500
C 	C 	0.55090 0.69790 0.87469 0.37100
C 	C 	0.43660 0.69150 0.85460 -0.05500
C 	C 	0.32460 0.71200 0.86330 -0.00500
H 	H 	0.32090 0.73190 0.88120 0.06400
C 	C 	0.21840 0.70350 0.84580 -0.04000
C 	C 	0.09360 0.72210 0.85620 0.36500
C 	C 	0.21590 0.66190 0.82320 0.04000
H 	H 	0.14040 0.65120 0.81400 0.03400
C 	C 	0.32530 0.64100 0.81680 0.09600
C 	C 	0.43380 0.65370 0.83270 -0.06900
H 	H 	0.50820 0.63660 0.82880 0.06000
C 	C 	0.23600 0.58290 0.78220 0.19600
C 	C 	0.67240 0.65650 0.96130 0.36300
C 	C 	0.63820 0.62660 0.98860 -0.11400
C 	C 	0.59210 0.64730 0.01640 0.04600
H 	H 	0.57900 0.68010 0.01740 0.03200
C 	C 	0.56640 0.61960 0.04190 -0.11300
C 	C 	0.53060 0.64150 0.07270 0.34100
C 	C 	0.60300 0.56960 0.04040 0.13000
H 	H 	0.59560 0.55040 0.05850 -0.08300
C 	C 	0.64800 0.55140 0.01390 0.40200
C 	C 	0.68500 0.58060 0.98810 0.19100
H 	H 	0.73860 0.56960 0.97190 -0.04400
C 	C 	0.65700 0.47330 0.03410 -4.02800
H 	H 	0.68520 0.44200 0.02790 1.21600
H 	H 	0.70160 0.48310 0.05310 0.17200
H 	H 	0.56750 0.47270 0.03830 1.37900
C 	C 	0.27600 0.70300 0.16344 0.37700
C 	C 	0.19560 0.66600 0.17730 -0.10100
C 	C 	0.22840 0.61890 0.17260 0.08100
H 	H 	0.30400 0.61200 0.16200 0.02600
C 	C 	0.15500 0.58260 0.18280 -0.19500
C 	C 	0.19180 0.53220 0.17470 0.61500
C 	C 	0.04960 0.59410 0.19810 0.00600
H 	H 	0.99650 0.56950 0.20490 0.01400
C 	C 	0.01270 0.64200 0.20470 0.08200
C 	C 	0.08730 0.67800 0.19340 -0.04300
H 	H 	0.06510 0.70990 0.19660 0.06400
C 	C 	0.81600 0.61300 0.22650 -0.20500
H 	H 	0.74370 0.62540 0.23770 0.09300
H 	H 	0.78910 0.59920 0.20660 0.09100
H 	H 	0.85700 0.58910 0.23930 0.08900
C 	C 	0.01660 0.39080 0.11940 0.36600
C 	C 	0.90200 0.37980 0.10170 -0.07000
C 	C 	0.78970 0.40170 0.10940 0.01000
H 	H 	0.78690 0.42410 0.12590 0.06000
C 	C 	0.68300 0.39070 0.09300 -0.09700
C 	C 	0.56170 0.41330 0.10220 0.36400
C 	C 	0.68530 0.35770 0.06910 -0.11000
H 	H 	0.61110 0.35030 0.05800 0.06400
C 	C 	0.79460 0.33560 0.06160 0.12400
C 	C 	0.90390 0.34720 0.07780 -0.08100
H 	H 	0.98020 0.33250 0.07230 0.07200
C 	C 	0.70160 0.29310 0.01990 -0.16000
H 	H 	0.63140 0.31230 0.02690 0.07700
H 	H 	0.71920 0.29960 0.99780 0.08200
H 	H 	0.68070 0.25990 0.02240 0.08300
C 	C 	0.14140 0.36360 0.20408 0.38900
C 	C 	0.06980 0.33640 0.22811 -0.13800
C 	C 	0.07360 0.28710 0.22810 0.02300
C 	C 	0.02490 0.26380 0.24970 0.04700
C 	C 	0.99100 0.18820 0.27340 0.03700
O 	O 	0.71200 0.04183 0.91809 -0.46600
O 	O 	0.83790 0.72821 0.89994 -0.65300
O 	O 	0.84620 0.99200 0.89620 -0.48500
O 	O 	0.30840 0.42565 0.14483 -0.65900
O 	O 	0.75500 0.82450 0.90180 -0.43600
O 	O 	0.66240 0.79710 0.94439 -0.46400
O 	O 	0.55000 0.94530 0.00650 -0.16200
O 	O 	0.54460 0.72730 0.89619 -0.46200
O 	O 	0.64360 0.67203 0.86866 -0.50800
O 	O 	0.09180 0.75550 0.87555 -0.43400
O 	O 	0.99940 0.70200 0.84501 -0.45500
O 	O 	0.34120 0.60410 0.79570 -0.19600
O 	O 	0.63700 0.69880 0.96244 -0.46000
O 	O 	0.73930 0.64100 0.93941 -0.47000
O 	O 	0.49270 0.68380 0.07125 -0.45400
O 	O 	0.54110 0.61920 0.09781 -0.30600
O 	O 	0.68200 0.50460 0.01020 0.66000
O 	O 	0.37980 0.69080 0.15245 -0.45900
O 	O 	0.23520 0.74425 0.16399 -0.45500
O 	O 	0.29000 0.52800 0.16080 -0.36000
O 	O 	0.11260 0.50490 0.17660 -0.76800
O 	O 	0.90540 0.65180 0.22010 -0.13800
O 	O 	0.01100 0.42310 0.13973 -0.45700
O 	O 	0.11630 0.36820 0.11375 -0.51400
O 	O 	0.56890 0.44500 0.12290 -0.49400
O 	O 	0.46680 0.39970 0.08890 -0.49000
O 	O 	0.80540 0.30350 0.03774 -0.16700
O 	O 	0.12820 0.40790 0.20515 -0.45900
O 	O 	0.20670 0.34370 0.18366 -0.44900
O 	O 	0.03760 0.21540 0.24840 -0.14800
Zn	Zn	0.92914 0.01845 0.85801 1.20000
Zn	Zn	0.68615 0.73585 0.92564 1.22800
Zn	Zn	0.43194 0.71181 0.10983 1.23100
Zn	Zn	0.31629 0.80118 0.14469 1.23500
Zn	Zn	0.15271 0.44170 0.16575 1.23700
Zn	Zn	0.28623 0.39921 0.09965 1.23500
H 	H 	0.04800 0.51200 0.19080 0.26600
C 	C 	0.45000 0.90340 0.01700 0.08600
H 	H 	0.38610 0.91520 0.03150 0.01800
H 	H 	0.41240 0.88020 0.00290 0.06400
H 	H 	0.51720 0.88880 0.02900 -0.10000
C 	C 	0.23190 0.68710 0.81650 -0.14800
H 	H 	0.16180 0.68630 0.80290 0.08900
C 	C 	0.34800 0.67100 0.80540 0.10400
C 	C 	0.45220 0.67480 0.82410 -0.03200
H 	H 	0.53210 0.66630 0.81640 0.05300
C 	C 	0.46100 0.63470 0.76170 0.06100
C 	C 	0.55700 0.57170 0.04040 -0.04400
H 	H 	0.52580 0.55400 0.05750 0.07300
C 	C 	0.59600 0.54980 0.01240 -0.51300
C 	C 	0.63100 0.57730 0.98640 -0.22400
H 	H 	0.65040 0.56250 0.96700 0.08900
C 	C 	0.58500 0.47410 0.03280 -0.37400
H 	H 	0.59660 0.44100 0.02740 0.22600
H 	H 	0.64170 0.48250 0.04990 1.62900
H 	H 	0.49880 0.47930 0.03940 -0.52100
C 	C 	0.86740 0.69660 0.22560 -0.18100
H 	H 	0.78800 0.69610 0.23690 0.09700
H 	H 	0.93010 0.71280 0.23830 0.08800
H 	H 	0.85680 0.71300 0.20560 0.09600
C 	C 	0.94400 0.18730 0.27030 0.06000
O 	O 	0.49860 0.94170 0.99880 -0.12100
O 	O 	0.34510 0.64990 0.77570 -0.17700
O 	O 	0.61140 0.50220 0.00620 0.03500
O 	O 	0.30540 0.52280 0.17530 -0.21900
O 	O 	0.21300 0.56110 0.80800 -0.21200
H 	H 	0.97400 0.29960 0.02300 0.06900
H 	H 	0.88450 0.25870 0.01070 0.08500
H 	H 	0.93330 0.25820 0.04610 0.07600
C 	C 	0.90600 0.27820 0.02880 -0.14100
C 	C 	0.74230 0.49810 0.41430 0.37900
C 	C 	0.79380 0.53780 0.43270 -0.05100
C 	C 	0.76970 0.58350 0.42260 -0.01100
H 	H 	0.72070 0.58880 0.40440 0.06200
C 	C 	0.81700 0.62080 0.43910 -0.03900
C 	C 	0.79600 0.67020 0.42748 0.35000
C 	C 	0.88670 0.61380 0.46640 -0.12500
H 	H 	0.91750 0.63960 0.47810 0.08500
C 	C 	0.91000 0.56770 0.47600 0.17400
C 	C 	0.86550 0.53010 0.45870 -0.10500
H 	H 	0.88480 0.49900 0.46490 0.09800
C 	C 	0.98900 0.58920 0.52440 0.19400
H 	H 	0.01740 0.57660 0.54460 -0.01200
H 	H 	0.05850 0.60530 0.51400 -0.11800
H 	H 	0.92100 0.61140 0.52790 0.02500
C 	C 	0.94910 0.80210 0.37469 0.37200
C 	C 	0.06340 0.80850 0.35460 -0.05600
C 	C 	0.17540 0.78800 0.36330 -0.00500
H 	H 	0.17910 0.76810 0.38120 0.06400
C 	C 	0.28160 0.79650 0.34580 -0.04000
C 	C 	0.40640 0.77790 0.35620 0.36600
C 	C 	0.28410 0.83810 0.32320 0.04000
H 	H 	0.35960 0.84880 0.31400 0.03400
C 	C 	0.17470 0.85900 0.31680 0.09600
C 	C 	0.06620 0.84630 0.33270 -0.07000
H 	H 	0.99180 0.86340 0.32880 0.06100
C 	C 	0.26400 0.91710 0.28220 0.19600
C 	C 	0.82760 0.84350 0.46130 0.36300
C 	C 	0.86180 0.87340 0.48860 -0.11400
C 	C 	0.90790 0.85270 0.51640 0.04700
H 	H 	0.92100 0.81990 0.51740 0.03200
C 	C 	0.93360 0.88040 0.54190 -0.11400
C 	C 	0.96940 0.85850 0.57270 0.34200
C 	C 	0.89700 0.93040 0.54040 0.13200
H 	H 	0.90440 0.94960 0.55850 -0.08400
C 	C 	0.85200 0.94860 0.51390 0.40600
C 	C 	0.81500 0.91940 0.48810 0.19400
H 	H 	0.76140 0.93040 0.47190 -0.04500
C 	C 	0.84300 0.02670 0.53410 -4.05300
H 	H 	0.81480 0.05800 0.52790 1.22300
H 	H 	0.79840 0.01690 0.55310 0.17300
H 	H 	0.93250 0.02730 0.53830 1.38800
C 	C 	0.22400 0.79700 0.66344 0.37800
C 	C 	0.30440 0.83400 0.67730 -0.10100
C 	C 	0.27160 0.88110 0.67260 0.08100
H 	H 	0.19600 0.88800 0.66200 0.02600
C 	C 	0.34500 0.91740 0.68280 -0.19500
C 	C 	0.30820 0.96780 0.67470 0.61600
C 	C 	0.45040 0.90590 0.69810 0.00800
H 	H 	0.50350 0.93050 0.70490 0.01300
C 	C 	0.48730 0.85800 0.70470 0.08300
C 	C 	0.41270 0.82200 0.69340 -0.04300
H 	H 	0.43490 0.79010 0.69660 0.06400
C 	C 	0.68400 0.88700 0.72650 -0.20500
H 	H 	0.75630 0.87460 0.73770 0.09300
H 	H 	0.71090 0.90080 0.70660 0.09100
H 	H 	0.64300 0.91090 0.73930 0.08900
C 	C 	0.48340 0.10920 0.61940 0.36800
C 	C 	0.59800 0.12020 0.60170 -0.07200
C 	C 	0.71030 0.09830 0.60940 0.01100
H 	H 	0.71310 0.07590 0.62590 0.06000
C 	C 	0.81700 0.10930 0.59300 -0.09800
C 	C 	0.93830 0.08670 0.60220 0.36500
C 	C 	0.81470 0.14230 0.56910 -0.10900
H 	H 	0.88890 0.14970 0.55800 0.06300
C 	C 	0.70540 0.16440 0.56160 0.12300
C 	C 	0.59610 0.15280 0.57780 -0.08000
H 	H 	0.51980 0.16750 0.57230 0.07200
C 	C 	0.79840 0.20690 0.51990 -0.16000
H 	H 	0.86860 0.18770 0.52690 0.07700
H 	H 	0.78080 0.20040 0.49780 0.08200
H 	H 	0.81930 0.24010 0.52240 0.08300
C 	C 	0.35860 0.13640 0.70408 0.39000
C 	C 	0.43020 0.16360 0.72811 -0.13900
C 	C 	0.42640 0.21290 0.72810 0.02500
C 	C 	0.47510 0.23620 0.74970 0.04300
C 	C 	0.50900 0.31180 0.77340 0.03900
O 	O 	0.78800 0.45817 0.41809 -0.46600
O 	O 	0.66210 0.77179 0.39994 -0.65300
O 	O 	0.65380 0.50800 0.39620 -0.48600
O 	O 	0.19160 0.07435 0.64483 -0.65900
O 	O 	0.74500 0.67550 0.40180 -0.43600
O 	O 	0.83760 0.70290 0.44439 -0.46400
O 	O 	0.95000 0.55470 0.50650 -0.15300
O 	O 	0.95540 0.77270 0.39619 -0.46200
O 	O 	0.85640 0.82797 0.36866 -0.50800
O 	O 	0.40820 0.74450 0.37555 -0.43400
O 	O 	0.50060 0.79800 0.34501 -0.45600
O 	O 	0.15880 0.89590 0.29570 -0.19600
O 	O 	0.86300 0.80120 0.46244 -0.46000
O 	O 	0.76070 0.85900 0.43941 -0.47100
O 	O 	0.00730 0.81620 0.57125 -0.45500
O 	O 	0.95890 0.88080 0.59781 -0.30600
O 	O 	0.81800 0.99540 0.51020 0.66500
O 	O 	0.12020 0.80920 0.65245 -0.46000
O 	O 	0.26480 0.75575 0.66399 -0.45500
O 	O 	0.21000 0.97200 0.66080 -0.36000
O 	O 	0.38740 0.99510 0.67660 -0.76800
O 	O 	0.59460 0.84820 0.72010 -0.13900
O 	O 	0.48900 0.07690 0.63973 -0.45700
O 	O 	0.38370 0.13180 0.61375 -0.51400
O 	O 	0.93110 0.05500 0.62290 -0.49400
O 	O 	0.03320 0.10030 0.58890 -0.49100
O 	O 	0.69460 0.19650 0.53774 -0.16700
O 	O 	0.37180 0.09210 0.70515 -0.45900
O 	O 	0.29330 0.15630 0.68366 -0.45000
O 	O 	0.46240 0.28460 0.74840 -0.14700
Zn	Zn	0.57086 0.48155 0.35801 1.20000
Zn	Zn	0.81385 0.76415 0.42564 1.22800
Zn	Zn	0.06806 0.78819 0.60983 1.23100
Zn	Zn	0.18371 0.69882 0.64469 1.23500
Zn	Zn	0.34729 0.05830 0.66575 1.23700
Zn	Zn	0.21377 0.10079 0.59965 1.23500
H 	H 	0.45200 0.98800 0.69080 0.26700
C 	C 	0.05000 0.59660 0.51700 0.08500
H 	H 	0.11390 0.58480 0.53150 0.01800
H 	H 	0.08760 0.61980 0.50290 0.06300
H 	H 	0.98280 0.61120 0.52900 -0.09700
C 	C 	0.26810 0.81290 0.31650 -0.14800
H 	H 	0.33820 0.81370 0.30290 0.09000
C 	C 	0.15200 0.82900 0.30540 0.10400
C 	C 	0.04780 0.82520 0.32410 -0.03300
H 	H 	0.96790 0.83370 0.31640 0.05300
C 	C 	0.03900 0.86530 0.26170 0.05900
C 	C 	0.94300 0.92830 0.54040 -0.04400
H 	H 	0.97420 0.94600 0.55750 0.07400
C 	C 	0.90400 0.95020 0.51240 -0.51800
C 	C 	0.86900 0.92270 0.48640 -0.22700
H 	H 	0.84960 0.93750 0.46700 0.08900
C 	C 	0.91500 0.02590 0.53280 -0.37700
H 	H 	0.90340 0.05900 0.52740 0.22700
H 	H 	0.85830 0.01750 0.54990 1.63900
H 	H 	0.00120 0.02070 0.53940 -0.52500
C 	C 	0.63260 0.80340 0.72560 -0.17900
H 	H 	0.71200 0.80390 0.73690 0.09600
H 	H 	0.56990 0.78720 0.73830 0.08800
H 	H 	0.64320 0.78700 0.70560 0.09600
C 	C 	0.55600 0.31270 0.77030 0.05800
O 	O 	0.00140 0.55830 0.49880 -0.12900
O 	O 	0.15490 0.85010 0.27570 -0.17700
O 	O 	0.88860 0.99780 0.50620 0.03600
O 	O 	0.19460 0.97720 0.67530 -0.22000
O 	O 	0.28700 0.93890 0.30800 -0.21200
H 	H 	0.52600 0.20040 0.52300 0.06900
H 	H 	0.61550 0.24130 0.51070 0.08500
H 	H 	0.56670 0.24180 0.54610 0.07600
C 	C 	0.59400 0.22180 0.52880 -0.14100
C 	C 	-0.00000 0.63920 0.75000 0.10200
C 	C 	0.50000 0.86080 0.25000 0.10300
C 	C 	0.00000 0.36080 0.25000 0.10200
C 	C 	0.50000 0.13920 0.75000 0.10300
