data_crystal

_cell_length_a 44.06120
_cell_length_b 44.06120
_cell_length_c 44.06120
_cell_angle_alpha 60.00000
_cell_angle_beta  60.00000
_cell_angle_gamma 60.00000

_symmetry_space_group_name_	'P 1'
_symmetry_space_group_name_H-M	'P 1'

loop_
_symmetry_equiv_pos_as_xyz
  x,y,z

loop_
_atom_site_label
_atom_site_type_symbol
_atom_site_fract_x
_atom_site_fract_y
_atom_site_fract_z
_atom_site_charge
Cu	Cu	0.99474 0.85230 0.24016 0.71200
Cu	Cu	0.35230 0.49474 0.91280 0.71200
Cu	Cu	0.74016 0.91280 0.49474 0.71200
Cu	Cu	0.41280 0.24016 0.85230 0.71200
Cu	Cu	0.99474 0.24016 0.91280 0.71200
Cu	Cu	0.35230 0.91280 0.24016 0.71200
Cu	Cu	0.74016 0.49474 0.85230 0.71200
Cu	Cu	0.41280 0.85230 0.49474 0.71200
Cu	Cu	0.99474 0.91280 0.85230 0.71200
Cu	Cu	0.35230 0.24016 0.49474 0.71200
Cu	Cu	0.74016 0.85230 0.91280 0.71200
Cu	Cu	0.41280 0.49474 0.24016 0.71200
Cu	Cu	0.64770 0.50526 0.75984 0.71200
Cu	Cu	0.00526 0.14770 0.08720 0.71200
Cu	Cu	0.58720 0.75984 0.50526 0.71200
Cu	Cu	0.25984 0.08720 0.14770 0.71200
Cu	Cu	0.25984 0.50526 0.08720 0.71200
Cu	Cu	0.58720 0.14770 0.75984 0.71200
Cu	Cu	0.00526 0.75984 0.14770 0.71200
Cu	Cu	0.64770 0.08720 0.50526 0.71200
Cu	Cu	0.58720 0.50526 0.14770 0.71200
Cu	Cu	0.25984 0.14770 0.50526 0.71200
Cu	Cu	0.64770 0.75984 0.08720 0.71200
Cu	Cu	0.00526 0.08720 0.75984 0.71200
Cu	Cu	0.00526 0.14770 0.75984 0.71200
Cu	Cu	0.64770 0.50526 0.08720 0.71200
Cu	Cu	0.25984 0.08720 0.50526 0.71200
Cu	Cu	0.58720 0.75984 0.14770 0.71200
Cu	Cu	0.00526 0.75984 0.08720 0.71200
Cu	Cu	0.64770 0.08720 0.75984 0.71200
Cu	Cu	0.25984 0.50526 0.14770 0.71200
Cu	Cu	0.58720 0.14770 0.50526 0.71200
Cu	Cu	0.00526 0.08720 0.14770 0.71200
Cu	Cu	0.64770 0.75984 0.50526 0.71200
Cu	Cu	0.25984 0.14770 0.08720 0.71200
Cu	Cu	0.58720 0.50526 0.75984 0.71200
Cu	Cu	0.35230 0.49474 0.24016 0.71200
Cu	Cu	0.99474 0.85230 0.91280 0.71200
Cu	Cu	0.41280 0.24016 0.49474 0.71200
Cu	Cu	0.74016 0.91280 0.85230 0.71200
Cu	Cu	0.74016 0.49474 0.91280 0.71200
Cu	Cu	0.41280 0.85230 0.24016 0.71200
Cu	Cu	0.99474 0.24016 0.85230 0.71200
Cu	Cu	0.35230 0.91280 0.49474 0.71200
Cu	Cu	0.41280 0.49474 0.85230 0.71200
Cu	Cu	0.74016 0.85230 0.49474 0.71200
Cu	Cu	0.35230 0.24016 0.91280 0.71200
Cu	Cu	0.99474 0.91280 0.24016 0.71200
Cu	Cu	0.14011 0.64011 0.57967 0.71400
Cu	Cu	0.20256 0.70256 0.39232 0.71800
Cu	Cu	0.14011 0.64011 0.64011 0.71400
Cu	Cu	0.20256 0.70256 0.70256 0.71800
Cu	Cu	0.07967 0.64011 0.64011 0.71400
Cu	Cu	0.89232 0.70256 0.70256 0.71800
Cu	Cu	0.14011 0.57967 0.64011 0.71400
Cu	Cu	0.20256 0.39232 0.70256 0.71800
Cu	Cu	0.85989 0.35989 0.42033 0.71400
Cu	Cu	0.79744 0.29744 0.60768 0.71800
Cu	Cu	0.85989 0.35989 0.35989 0.71400
Cu	Cu	0.79744 0.29744 0.29744 0.71800
Cu	Cu	0.85989 0.42033 0.35989 0.71400
Cu	Cu	0.79744 0.60768 0.29744 0.71800
Cu	Cu	0.92033 0.35989 0.35989 0.71400
Cu	Cu	0.10768 0.29744 0.29744 0.71800
Cu	Cu	0.18281 0.74297 0.33125 0.71300
Cu	Cu	0.03079 0.84599 0.27723 0.71700
Cu	Cu	0.95569 0.87153 0.30125 0.72000
Cu	Cu	0.24297 0.68281 0.74297 0.71300
Cu	Cu	0.34599 0.53079 0.84599 0.71700
Cu	Cu	0.37153 0.45569 0.87153 0.72000
Cu	Cu	0.83125 0.74297 0.68281 0.71300
Cu	Cu	0.77723 0.84599 0.53079 0.71700
Cu	Cu	0.80125 0.87153 0.45569 0.72000
Cu	Cu	0.24297 0.33125 0.74297 0.71300
Cu	Cu	0.34599 0.27723 0.84599 0.71700
Cu	Cu	0.37153 0.30125 0.87153 0.72000
Cu	Cu	0.18281 0.33125 0.74297 0.71300
Cu	Cu	0.03079 0.27723 0.84599 0.71700
Cu	Cu	0.95569 0.30125 0.87153 0.72000
Cu	Cu	0.24297 0.74297 0.33125 0.71300
Cu	Cu	0.34599 0.84599 0.27723 0.71700
Cu	Cu	0.37153 0.87153 0.30125 0.72000
Cu	Cu	0.83125 0.68281 0.74297 0.71300
Cu	Cu	0.77723 0.53079 0.84599 0.71700
Cu	Cu	0.80125 0.45569 0.87153 0.72000
Cu	Cu	0.24297 0.74297 0.68281 0.71300
Cu	Cu	0.34599 0.84599 0.53079 0.71700
Cu	Cu	0.37153 0.87153 0.45569 0.72000
Cu	Cu	0.18281 0.74297 0.74297 0.71300
Cu	Cu	0.03079 0.84599 0.84599 0.71700
Cu	Cu	0.95569 0.87153 0.87153 0.72000
Cu	Cu	0.24297 0.33125 0.68281 0.71300
Cu	Cu	0.34599 0.27723 0.53079 0.71700
Cu	Cu	0.37153 0.30125 0.45569 0.72000
Cu	Cu	0.83125 0.74297 0.74297 0.71300
Cu	Cu	0.77723 0.84599 0.84599 0.71700
Cu	Cu	0.80125 0.87153 0.87153 0.72000
Cu	Cu	0.24297 0.68281 0.33125 0.71300
Cu	Cu	0.34599 0.53079 0.27723 0.71700
Cu	Cu	0.37153 0.45569 0.30125 0.72000
Cu	Cu	0.75703 0.31719 0.66875 0.71300
Cu	Cu	0.65401 0.46921 0.72277 0.71700
Cu	Cu	0.62847 0.54431 0.69875 0.72000
Cu	Cu	0.81719 0.25703 0.25703 0.71300
Cu	Cu	0.96921 0.15401 0.15401 0.71700
Cu	Cu	0.04431 0.12847 0.12847 0.72000
Cu	Cu	0.75703 0.66875 0.31719 0.71300
Cu	Cu	0.65401 0.72277 0.46921 0.71700
Cu	Cu	0.62847 0.69875 0.54431 0.72000
Cu	Cu	0.16875 0.25703 0.25703 0.71300
Cu	Cu	0.22277 0.15401 0.15401 0.71700
Cu	Cu	0.19875 0.12847 0.12847 0.72000
Cu	Cu	0.16875 0.31719 0.25703 0.71300
Cu	Cu	0.22277 0.46921 0.15401 0.71700
Cu	Cu	0.19875 0.54431 0.12847 0.72000
Cu	Cu	0.75703 0.25703 0.66875 0.71300
Cu	Cu	0.65401 0.15401 0.72277 0.71700
Cu	Cu	0.62847 0.12847 0.69875 0.72000
Cu	Cu	0.81719 0.66875 0.25703 0.71300
Cu	Cu	0.96921 0.72277 0.15401 0.71700
Cu	Cu	0.04431 0.69875 0.12847 0.71900
Cu	Cu	0.75703 0.25703 0.31719 0.71200
Cu	Cu	0.65401 0.15401 0.46921 0.71600
Cu	Cu	0.62847 0.12847 0.54431 0.71900
Cu	Cu	0.75703 0.31719 0.25703 0.71200
Cu	Cu	0.65401 0.46921 0.15401 0.71600
Cu	Cu	0.62847 0.54431 0.12847 0.71900
Cu	Cu	0.16875 0.25703 0.31719 0.71200
Cu	Cu	0.22277 0.15401 0.46921 0.71600
Cu	Cu	0.19875 0.12847 0.54431 0.71900
Cu	Cu	0.75703 0.66875 0.25703 0.71200
Cu	Cu	0.65401 0.72277 0.15401 0.71600
Cu	Cu	0.62847 0.69875 0.12847 0.71900
Cu	Cu	0.81719 0.25703 0.66875 0.71200
Cu	Cu	0.96921 0.15401 0.72277 0.71600
Cu	Cu	0.04431 0.12847 0.69875 0.71900
H 	H 	0.20420 0.67020 0.51200 0.05700
H 	H 	0.18920 0.72460 0.45120 0.03400
H 	H 	0.10080 0.78640 0.36140 0.05400
H 	H 	0.13790 0.82750 0.30270 0.04800
H 	H 	0.16100 0.81680 0.26620 0.04900
H 	H 	0.05220 0.78620 0.34000 0.03600
H 	H 	0.11200 0.84920 0.24860 0.04400
H 	H 	0.08900 0.85980 0.28480 0.04000
H 	H 	0.97850 0.87090 0.16970 0.03500
H 	H 	0.02190 0.85530 0.15690 0.03900
H 	H 	0.05530 0.80010 0.19530 0.04800
H 	H 	0.03310 0.77570 0.23250 0.04700
H 	H 	0.94310 0.83570 0.22630 0.03300
H 	H 	0.96350 0.79850 0.25170 0.03300
H 	H 	0.89660 0.92340 0.35000 0.04400
H 	H 	0.87460 0.92820 0.32800 0.04300
H 	H 	0.17020 0.70420 0.61360 0.05700
H 	H 	0.22460 0.68920 0.63500 0.03400
H 	H 	0.28640 0.60080 0.75140 0.05400
H 	H 	0.32750 0.63790 0.73190 0.04800
H 	H 	0.31680 0.66100 0.75600 0.04900
H 	H 	0.28620 0.55220 0.82160 0.03600
H 	H 	0.34920 0.61200 0.79020 0.04400
H 	H 	0.35980 0.58900 0.76640 0.04000
H 	H 	0.37090 0.47850 0.98090 0.03500
H 	H 	0.35530 0.52190 0.96590 0.03900
H 	H 	0.30010 0.55530 0.94930 0.04800
H 	H 	0.27570 0.53310 0.95870 0.04700
H 	H 	0.33570 0.44310 0.99490 0.03300
H 	H 	0.29850 0.46350 0.98630 0.03300
H 	H 	0.42340 0.39660 0.83000 0.04400
H 	H 	0.42820 0.37460 0.86920 0.04300
H 	H 	0.01200 0.61360 0.70420 0.05700
H 	H 	0.95120 0.63500 0.68920 0.03400
H 	H 	0.86140 0.75140 0.60080 0.05400
H 	H 	0.80270 0.73190 0.63790 0.04800
H 	H 	0.76620 0.75600 0.66100 0.04900
H 	H 	0.84000 0.82160 0.55220 0.03600
H 	H 	0.74860 0.79020 0.61200 0.04400
H 	H 	0.78480 0.76640 0.58900 0.04000
H 	H 	0.66970 0.98090 0.47850 0.03500
H 	H 	0.65690 0.96590 0.52190 0.03900
H 	H 	0.69530 0.94930 0.55530 0.04800
H 	H 	0.73250 0.95870 0.53310 0.04700
H 	H 	0.72630 0.99490 0.44310 0.03300
H 	H 	0.75170 0.98630 0.46350 0.03300
H 	H 	0.85000 0.83000 0.39660 0.04400
H 	H 	0.82800 0.86920 0.37460 0.04300
H 	H 	0.11360 0.51200 0.67020 0.05700
H 	H 	0.13500 0.45120 0.72460 0.03400
H 	H 	0.25140 0.36140 0.78640 0.05400
H 	H 	0.23190 0.30270 0.82750 0.04800
H 	H 	0.25600 0.26620 0.81680 0.04900
H 	H 	0.32160 0.34000 0.78620 0.03600
H 	H 	0.29020 0.24860 0.84920 0.04400
H 	H 	0.26640 0.28480 0.85980 0.04000
H 	H 	0.48090 0.16970 0.87090 0.03500
H 	H 	0.46590 0.15690 0.85530 0.03900
H 	H 	0.44930 0.19530 0.80010 0.04800
H 	H 	0.45870 0.23250 0.77570 0.04700
H 	H 	0.49490 0.22630 0.83570 0.03300
H 	H 	0.48630 0.25170 0.79850 0.03300
H 	H 	0.33000 0.35000 0.92340 0.04400
H 	H 	0.36920 0.32800 0.92820 0.04300
H 	H 	0.20420 0.51200 0.61360 0.05700
H 	H 	0.18920 0.45120 0.63500 0.03400
H 	H 	0.10080 0.36140 0.75140 0.05400
H 	H 	0.13790 0.30270 0.73190 0.04800
H 	H 	0.16100 0.26620 0.75600 0.04900
H 	H 	0.05220 0.34000 0.82160 0.03600
H 	H 	0.11200 0.24860 0.79020 0.04400
H 	H 	0.08900 0.28480 0.76640 0.04000
H 	H 	0.97850 0.16970 0.98090 0.03500
H 	H 	0.02190 0.15690 0.96590 0.03900
H 	H 	0.05530 0.19530 0.94930 0.04800
H 	H 	0.03310 0.23250 0.95870 0.04700
H 	H 	0.94310 0.22630 0.99490 0.03300
H 	H 	0.96350 0.25170 0.98630 0.03300
H 	H 	0.89660 0.35000 0.83000 0.04400
H 	H 	0.87460 0.32800 0.86920 0.04300
H 	H 	0.17020 0.61360 0.51200 0.05700
H 	H 	0.22460 0.63500 0.45120 0.03400
H 	H 	0.28640 0.75140 0.36140 0.05400
H 	H 	0.32750 0.73190 0.30270 0.04800
H 	H 	0.31680 0.75600 0.26620 0.04900
H 	H 	0.28620 0.82160 0.34000 0.03600
H 	H 	0.34920 0.79020 0.24860 0.04400
H 	H 	0.35980 0.76640 0.28480 0.04000
H 	H 	0.37090 0.98090 0.16970 0.03500
H 	H 	0.35530 0.96590 0.15690 0.03900
H 	H 	0.30010 0.94930 0.19530 0.04800
H 	H 	0.27570 0.95870 0.23250 0.04700
H 	H 	0.33570 0.99490 0.22630 0.03300
H 	H 	0.29850 0.98630 0.25170 0.03300
H 	H 	0.42340 0.83000 0.35000 0.04400
H 	H 	0.42820 0.86920 0.32800 0.04300
H 	H 	0.01200 0.70420 0.67020 0.05700
H 	H 	0.95120 0.68920 0.72460 0.03400
H 	H 	0.86140 0.60080 0.78640 0.05400
H 	H 	0.80270 0.63790 0.82750 0.04800
H 	H 	0.76620 0.66100 0.81680 0.04900
H 	H 	0.84000 0.55220 0.78620 0.03600
H 	H 	0.74860 0.61200 0.84920 0.04400
H 	H 	0.78480 0.58900 0.85980 0.04000
H 	H 	0.66970 0.47850 0.87090 0.03500
H 	H 	0.65690 0.52190 0.85530 0.03900
H 	H 	0.69530 0.55530 0.80010 0.04800
H 	H 	0.73250 0.53310 0.77570 0.04700
H 	H 	0.72630 0.44310 0.83570 0.03300
H 	H 	0.75170 0.46350 0.79850 0.03300
H 	H 	0.85000 0.39660 0.92340 0.04400
H 	H 	0.82800 0.37460 0.92820 0.04300
H 	H 	0.11360 0.67020 0.70420 0.05700
H 	H 	0.13500 0.72460 0.68920 0.03400
H 	H 	0.25140 0.78640 0.60080 0.05400
H 	H 	0.23190 0.82750 0.63790 0.04800
H 	H 	0.25600 0.81680 0.66100 0.04900
H 	H 	0.32160 0.78620 0.55220 0.03600
H 	H 	0.29020 0.84920 0.61200 0.04400
H 	H 	0.26640 0.85980 0.58900 0.04000
H 	H 	0.48090 0.87090 0.47850 0.03500
H 	H 	0.46590 0.85530 0.52190 0.03900
H 	H 	0.44930 0.80010 0.55530 0.04800
H 	H 	0.45870 0.77570 0.53310 0.04700
H 	H 	0.49490 0.83570 0.44310 0.03300
H 	H 	0.48630 0.79850 0.46350 0.03300
H 	H 	0.33000 0.92340 0.39660 0.04400
H 	H 	0.36920 0.92820 0.37460 0.04300
H 	H 	0.20420 0.61360 0.67020 0.05700
H 	H 	0.18920 0.63500 0.72460 0.03400
H 	H 	0.10080 0.75140 0.78640 0.05400
H 	H 	0.13790 0.73190 0.82750 0.04800
H 	H 	0.16100 0.75600 0.81680 0.04900
H 	H 	0.05220 0.82160 0.78620 0.03600
H 	H 	0.11200 0.79020 0.84920 0.04400
H 	H 	0.08900 0.76640 0.85980 0.04000
H 	H 	0.97850 0.98090 0.87090 0.03500
H 	H 	0.02190 0.96590 0.85530 0.03900
H 	H 	0.05530 0.94930 0.80010 0.04800
H 	H 	0.03310 0.95870 0.77570 0.04700
H 	H 	0.94310 0.99490 0.83570 0.03300
H 	H 	0.96350 0.98630 0.79850 0.03300
H 	H 	0.89660 0.83000 0.92340 0.04400
H 	H 	0.87460 0.86920 0.92820 0.04300
H 	H 	0.17020 0.51200 0.70420 0.05700
H 	H 	0.22460 0.45120 0.68920 0.03400
H 	H 	0.28640 0.36140 0.60080 0.05400
H 	H 	0.32750 0.30270 0.63790 0.04800
H 	H 	0.31680 0.26620 0.66100 0.04900
H 	H 	0.28620 0.34000 0.55220 0.03600
H 	H 	0.34920 0.24860 0.61200 0.04400
H 	H 	0.35980 0.28480 0.58900 0.04000
H 	H 	0.37090 0.16970 0.47850 0.03500
H 	H 	0.35530 0.15690 0.52190 0.03900
H 	H 	0.30010 0.19530 0.55530 0.04800
H 	H 	0.27570 0.23250 0.53310 0.04700
H 	H 	0.33570 0.22630 0.44310 0.03300
H 	H 	0.29850 0.25170 0.46350 0.03300
H 	H 	0.42340 0.35000 0.39660 0.04400
H 	H 	0.42820 0.32800 0.37460 0.04300
H 	H 	0.01200 0.67020 0.61360 0.05700
H 	H 	0.95120 0.72460 0.63500 0.03400
H 	H 	0.86140 0.78640 0.75140 0.05400
H 	H 	0.80270 0.82750 0.73190 0.04800
H 	H 	0.76620 0.81680 0.75600 0.04900
H 	H 	0.84000 0.78620 0.82160 0.03600
H 	H 	0.74860 0.84920 0.79020 0.04400
H 	H 	0.78480 0.85980 0.76640 0.04000
H 	H 	0.66970 0.87090 0.98090 0.03500
H 	H 	0.65690 0.85530 0.96590 0.03900
H 	H 	0.69530 0.80010 0.94930 0.04800
H 	H 	0.73250 0.77570 0.95870 0.04700
H 	H 	0.72630 0.83570 0.99490 0.03300
H 	H 	0.75170 0.79850 0.98630 0.03300
H 	H 	0.85000 0.92340 0.83000 0.04400
H 	H 	0.82800 0.92820 0.86920 0.04300
H 	H 	0.11360 0.70420 0.51200 0.05700
H 	H 	0.13500 0.68920 0.45120 0.03400
H 	H 	0.25140 0.60080 0.36140 0.05400
H 	H 	0.23190 0.63790 0.30270 0.04800
H 	H 	0.25600 0.66100 0.26620 0.04900
H 	H 	0.32160 0.55220 0.34000 0.03600
H 	H 	0.29020 0.61200 0.24860 0.04400
H 	H 	0.26640 0.58900 0.28480 0.04000
H 	H 	0.48090 0.47850 0.16970 0.03500
H 	H 	0.46590 0.52190 0.15690 0.03900
H 	H 	0.44930 0.55530 0.19530 0.04800
H 	H 	0.45870 0.53310 0.23250 0.04700
H 	H 	0.49490 0.44310 0.22630 0.03300
H 	H 	0.48630 0.46350 0.25170 0.03300
H 	H 	0.33000 0.39660 0.35000 0.04400
H 	H 	0.36920 0.37460 0.32800 0.04300
H 	H 	0.82980 0.29580 0.48800 0.05700
H 	H 	0.77540 0.31080 0.54880 0.03400
H 	H 	0.71360 0.39920 0.63860 0.05400
H 	H 	0.67250 0.36210 0.69730 0.04800
H 	H 	0.68320 0.33900 0.73380 0.04900
H 	H 	0.71380 0.44780 0.66000 0.03600
H 	H 	0.65080 0.38800 0.75140 0.04400
H 	H 	0.64020 0.41100 0.71520 0.04000
H 	H 	0.62910 0.52150 0.83030 0.03500
H 	H 	0.64470 0.47810 0.84310 0.03900
H 	H 	0.69990 0.44470 0.80470 0.04800
H 	H 	0.72430 0.46690 0.76750 0.04700
H 	H 	0.66430 0.55690 0.77370 0.03300
H 	H 	0.70150 0.53650 0.74830 0.03300
H 	H 	0.57660 0.60340 0.65000 0.04400
H 	H 	0.57180 0.62540 0.67200 0.04300
H 	H 	0.79580 0.32980 0.38640 0.05700
H 	H 	0.81080 0.27540 0.36500 0.03400
H 	H 	0.89920 0.21360 0.24860 0.05400
H 	H 	0.86210 0.17250 0.26810 0.04800
H 	H 	0.83900 0.18320 0.24400 0.04900
H 	H 	0.94780 0.21380 0.17840 0.03600
H 	H 	0.88800 0.15080 0.20980 0.04400
H 	H 	0.91100 0.14020 0.23360 0.04000
H 	H 	0.02150 0.12910 0.01910 0.03500
H 	H 	0.97810 0.14470 0.03410 0.03900
H 	H 	0.94470 0.19990 0.05070 0.04800
H 	H 	0.96690 0.22430 0.04130 0.04700
H 	H 	0.05690 0.16430 0.00510 0.03300
H 	H 	0.03650 0.20150 0.01370 0.03300
H 	H 	0.10340 0.07660 0.17000 0.04400
H 	H 	0.12540 0.07180 0.13080 0.04300
H 	H 	0.88640 0.48800 0.29580 0.05700
H 	H 	0.86500 0.54880 0.31080 0.03400
H 	H 	0.74860 0.63860 0.39920 0.05400
H 	H 	0.76810 0.69730 0.36210 0.04800
H 	H 	0.74400 0.73380 0.33900 0.04900
H 	H 	0.67840 0.66000 0.44780 0.03600
H 	H 	0.70980 0.75140 0.38800 0.04400
H 	H 	0.73360 0.71520 0.41100 0.04000
H 	H 	0.51910 0.83030 0.52150 0.03500
H 	H 	0.53410 0.84310 0.47810 0.03900
H 	H 	0.55070 0.80470 0.44470 0.04800
H 	H 	0.54130 0.76750 0.46690 0.04700
H 	H 	0.50510 0.77370 0.55690 0.03300
H 	H 	0.51370 0.74830 0.53650 0.03300
H 	H 	0.67000 0.65000 0.60340 0.04400
H 	H 	0.63080 0.67200 0.62540 0.04300
H 	H 	0.98800 0.38640 0.32980 0.05700
H 	H 	0.04880 0.36500 0.27540 0.03400
H 	H 	0.13860 0.24860 0.21360 0.05400
H 	H 	0.19730 0.26810 0.17250 0.04800
H 	H 	0.23380 0.24400 0.18320 0.04900
H 	H 	0.16000 0.17840 0.21380 0.03600
H 	H 	0.25140 0.20980 0.15080 0.04400
H 	H 	0.21520 0.23360 0.14020 0.04000
H 	H 	0.33030 0.01910 0.12910 0.03500
H 	H 	0.34310 0.03410 0.14470 0.03900
H 	H 	0.30470 0.05070 0.19990 0.04800
H 	H 	0.26750 0.04130 0.22430 0.04700
H 	H 	0.27370 0.00510 0.16430 0.03300
H 	H 	0.24830 0.01370 0.20150 0.03300
H 	H 	0.15000 0.17000 0.07660 0.04400
H 	H 	0.17200 0.13080 0.07180 0.04300
H 	H 	0.98800 0.29580 0.38640 0.05700
H 	H 	0.04880 0.31080 0.36500 0.03400
H 	H 	0.13860 0.39920 0.24860 0.05400
H 	H 	0.19730 0.36210 0.26810 0.04800
H 	H 	0.23380 0.33900 0.24400 0.04900
H 	H 	0.16000 0.44780 0.17840 0.03600
H 	H 	0.25140 0.38800 0.20980 0.04400
H 	H 	0.21520 0.41100 0.23360 0.04000
H 	H 	0.33030 0.52150 0.01910 0.03500
H 	H 	0.34310 0.47810 0.03410 0.03900
H 	H 	0.30470 0.44470 0.05070 0.04800
H 	H 	0.26750 0.46690 0.04130 0.04700
H 	H 	0.27370 0.55690 0.00510 0.03300
H 	H 	0.24830 0.53650 0.01370 0.03300
H 	H 	0.15000 0.60340 0.17000 0.04400
H 	H 	0.17200 0.62540 0.13080 0.04300
H 	H 	0.88640 0.32980 0.48800 0.05700
H 	H 	0.86500 0.27540 0.54880 0.03400
H 	H 	0.74860 0.21360 0.63860 0.05400
H 	H 	0.76810 0.17250 0.69730 0.04800
H 	H 	0.74400 0.18320 0.73380 0.04900
H 	H 	0.67840 0.21380 0.66000 0.03600
H 	H 	0.70980 0.15080 0.75140 0.04400
H 	H 	0.73360 0.14020 0.71520 0.04000
H 	H 	0.51910 0.12910 0.83030 0.03500
H 	H 	0.53410 0.14470 0.84310 0.03900
H 	H 	0.55070 0.19990 0.80470 0.04800
H 	H 	0.54130 0.22430 0.76750 0.04700
H 	H 	0.50510 0.16430 0.77370 0.03300
H 	H 	0.51370 0.20150 0.74830 0.03300
H 	H 	0.67000 0.07660 0.65000 0.04400
H 	H 	0.63080 0.07180 0.67200 0.04300
H 	H 	0.79580 0.48800 0.32980 0.05700
H 	H 	0.81080 0.54880 0.27540 0.03400
H 	H 	0.89920 0.63860 0.21360 0.05400
H 	H 	0.86210 0.69730 0.17250 0.04800
H 	H 	0.83900 0.73380 0.18320 0.04900
H 	H 	0.94780 0.66000 0.21380 0.03600
H 	H 	0.88800 0.75140 0.15080 0.04400
H 	H 	0.91100 0.71520 0.14020 0.04000
H 	H 	0.02150 0.83030 0.12910 0.03500
H 	H 	0.97810 0.84310 0.14470 0.03900
H 	H 	0.94470 0.80470 0.19990 0.04800
H 	H 	0.96690 0.76750 0.22430 0.04700
H 	H 	0.05690 0.77370 0.16430 0.03300
H 	H 	0.03650 0.74830 0.20150 0.03300
H 	H 	0.10340 0.65000 0.07660 0.04400
H 	H 	0.12540 0.67200 0.07180 0.04300
H 	H 	0.82980 0.38640 0.29580 0.05700
H 	H 	0.77540 0.36500 0.31080 0.03400
H 	H 	0.71360 0.24860 0.39920 0.05400
H 	H 	0.67250 0.26810 0.36210 0.04800
H 	H 	0.68320 0.24400 0.33900 0.04900
H 	H 	0.71380 0.17840 0.44780 0.03600
H 	H 	0.65080 0.20980 0.38800 0.04400
H 	H 	0.64020 0.23360 0.41100 0.04000
H 	H 	0.62910 0.01910 0.52150 0.03500
H 	H 	0.64470 0.03410 0.47810 0.03900
H 	H 	0.69990 0.05070 0.44470 0.04800
H 	H 	0.72430 0.04130 0.46690 0.04700
H 	H 	0.66430 0.00510 0.55690 0.03300
H 	H 	0.70150 0.01370 0.53650 0.03300
H 	H 	0.57660 0.17000 0.60340 0.04400
H 	H 	0.57180 0.13080 0.62540 0.04300
H 	H 	0.88640 0.29580 0.32980 0.05700
H 	H 	0.86500 0.31080 0.27540 0.03400
H 	H 	0.74860 0.39920 0.21360 0.05400
H 	H 	0.76810 0.36210 0.17250 0.04800
H 	H 	0.74400 0.33900 0.18320 0.04900
H 	H 	0.67840 0.44780 0.21380 0.03600
H 	H 	0.70980 0.38800 0.15080 0.04400
H 	H 	0.73360 0.41100 0.14020 0.04000
H 	H 	0.51910 0.52150 0.12910 0.03500
H 	H 	0.53410 0.47810 0.14470 0.03900
H 	H 	0.55070 0.44470 0.19990 0.04800
H 	H 	0.54130 0.46690 0.22430 0.04700
H 	H 	0.50510 0.55690 0.16430 0.03300
H 	H 	0.51370 0.53650 0.20150 0.03300
H 	H 	0.67000 0.60340 0.07660 0.04400
H 	H 	0.63080 0.62540 0.07180 0.04300
H 	H 	0.98800 0.32980 0.29580 0.05700
H 	H 	0.04880 0.27540 0.31080 0.03400
H 	H 	0.13860 0.21360 0.39920 0.05400
H 	H 	0.19730 0.17250 0.36210 0.04800
H 	H 	0.23380 0.18320 0.33900 0.04900
H 	H 	0.16000 0.21380 0.44780 0.03600
H 	H 	0.25140 0.15080 0.38800 0.04400
H 	H 	0.21520 0.14020 0.41100 0.04000
H 	H 	0.33030 0.12910 0.52150 0.03500
H 	H 	0.34310 0.14470 0.47810 0.03900
H 	H 	0.30470 0.19990 0.44470 0.04800
H 	H 	0.26750 0.22430 0.46690 0.04700
H 	H 	0.27370 0.16430 0.55690 0.03300
H 	H 	0.24830 0.20150 0.53650 0.03300
H 	H 	0.15000 0.07660 0.60340 0.04400
H 	H 	0.17200 0.07180 0.62540 0.04300
H 	H 	0.82980 0.48800 0.38640 0.05700
H 	H 	0.77540 0.54880 0.36500 0.03400
H 	H 	0.71360 0.63860 0.24860 0.05400
H 	H 	0.67250 0.69730 0.26810 0.04800
H 	H 	0.68320 0.73380 0.24400 0.04900
H 	H 	0.71380 0.66000 0.17840 0.03600
H 	H 	0.65080 0.75140 0.20980 0.04400
H 	H 	0.64020 0.71520 0.23360 0.04000
H 	H 	0.62910 0.83030 0.01910 0.03500
H 	H 	0.64470 0.84310 0.03410 0.03900
H 	H 	0.69990 0.80470 0.05070 0.04800
H 	H 	0.72430 0.76750 0.04130 0.04700
H 	H 	0.66430 0.77370 0.00510 0.03300
H 	H 	0.70150 0.74830 0.01370 0.03300
H 	H 	0.57660 0.65000 0.17000 0.04400
H 	H 	0.57180 0.67200 0.13080 0.04300
H 	H 	0.79580 0.38640 0.48800 0.05700
H 	H 	0.81080 0.36500 0.54880 0.03400
H 	H 	0.89920 0.24860 0.63860 0.05400
H 	H 	0.86210 0.26810 0.69730 0.04800
H 	H 	0.83900 0.24400 0.73380 0.04900
H 	H 	0.94780 0.17840 0.66000 0.03600
H 	H 	0.88800 0.20980 0.75140 0.04400
H 	H 	0.91100 0.23360 0.71520 0.04000
H 	H 	0.02150 0.01910 0.83030 0.03500
H 	H 	0.97810 0.03410 0.84310 0.03900
H 	H 	0.94470 0.05070 0.80470 0.04800
H 	H 	0.96690 0.04130 0.76750 0.04700
H 	H 	0.05690 0.00510 0.77370 0.03300
H 	H 	0.03650 0.01370 0.74830 0.03300
H 	H 	0.10340 0.17000 0.65000 0.04400
H 	H 	0.12540 0.13080 0.67200 0.04300
H 	H 	0.79580 0.32980 0.48800 0.05700
H 	H 	0.81080 0.27540 0.54880 0.03400
H 	H 	0.89920 0.21360 0.63860 0.05400
H 	H 	0.86210 0.17250 0.69730 0.04800
H 	H 	0.83900 0.18320 0.73380 0.04900
H 	H 	0.94780 0.21380 0.66000 0.03600
H 	H 	0.88800 0.15080 0.75140 0.04400
H 	H 	0.91100 0.14020 0.71520 0.04000
H 	H 	0.02150 0.12910 0.83030 0.03500
H 	H 	0.97810 0.14470 0.84310 0.03900
H 	H 	0.94470 0.19990 0.80470 0.04800
H 	H 	0.96690 0.22430 0.76750 0.04700
H 	H 	0.05690 0.16430 0.77370 0.03300
H 	H 	0.03650 0.20150 0.74830 0.03300
H 	H 	0.10340 0.07660 0.65000 0.04400
H 	H 	0.12540 0.07180 0.67200 0.04300
H 	H 	0.82980 0.29580 0.38640 0.05700
H 	H 	0.77540 0.31080 0.36500 0.03400
H 	H 	0.71360 0.39920 0.24860 0.05400
H 	H 	0.67250 0.36210 0.26810 0.04800
H 	H 	0.68320 0.33900 0.24400 0.04900
H 	H 	0.71380 0.44780 0.17840 0.03600
H 	H 	0.65080 0.38800 0.20980 0.04400
H 	H 	0.64020 0.41100 0.23360 0.04000
H 	H 	0.62910 0.52150 0.01910 0.03500
H 	H 	0.64470 0.47810 0.03410 0.03900
H 	H 	0.69990 0.44470 0.05070 0.04800
H 	H 	0.72430 0.46690 0.04130 0.04700
H 	H 	0.66430 0.55690 0.00510 0.03300
H 	H 	0.70150 0.53650 0.01370 0.03300
H 	H 	0.57660 0.60340 0.17000 0.04400
H 	H 	0.57180 0.62540 0.13080 0.04300
H 	H 	0.98800 0.38640 0.29580 0.05700
H 	H 	0.04880 0.36500 0.31080 0.03400
H 	H 	0.13860 0.24860 0.39920 0.05400
H 	H 	0.19730 0.26810 0.36210 0.04800
H 	H 	0.23380 0.24400 0.33900 0.04900
H 	H 	0.16000 0.17840 0.44780 0.03600
H 	H 	0.25140 0.20980 0.38800 0.04400
H 	H 	0.21520 0.23360 0.41100 0.04000
H 	H 	0.33030 0.01910 0.52150 0.03500
H 	H 	0.34310 0.03410 0.47810 0.03900
H 	H 	0.30470 0.05070 0.44470 0.04800
H 	H 	0.26750 0.04130 0.46690 0.04700
H 	H 	0.27370 0.00510 0.55690 0.03300
H 	H 	0.24830 0.01370 0.53650 0.03300
H 	H 	0.15000 0.17000 0.60340 0.04400
H 	H 	0.17200 0.13080 0.62540 0.04300
H 	H 	0.88640 0.48800 0.32980 0.05700
H 	H 	0.86500 0.54880 0.27540 0.03400
H 	H 	0.74860 0.63860 0.21360 0.05400
H 	H 	0.76810 0.69730 0.17250 0.04800
H 	H 	0.74400 0.73380 0.18320 0.04900
H 	H 	0.67840 0.66000 0.21380 0.03600
H 	H 	0.70980 0.75140 0.15080 0.04400
H 	H 	0.73360 0.71520 0.14020 0.04000
H 	H 	0.51910 0.83030 0.12910 0.03500
H 	H 	0.53410 0.84310 0.14470 0.03900
H 	H 	0.55070 0.80470 0.19990 0.04800
H 	H 	0.54130 0.76750 0.22430 0.04700
H 	H 	0.50510 0.77370 0.16430 0.03300
H 	H 	0.51370 0.74830 0.20150 0.03300
H 	H 	0.67000 0.65000 0.07660 0.04400
H 	H 	0.63080 0.67200 0.07180 0.04300
H 	H 	0.79580 0.48800 0.38640 0.05700
H 	H 	0.81080 0.54880 0.36500 0.03400
H 	H 	0.89920 0.63860 0.24860 0.05400
H 	H 	0.86210 0.69730 0.26810 0.04800
H 	H 	0.83900 0.73380 0.24400 0.04900
H 	H 	0.94780 0.66000 0.17840 0.03600
H 	H 	0.88800 0.75140 0.20980 0.04400
H 	H 	0.91100 0.71520 0.23360 0.04000
H 	H 	0.02150 0.83030 0.01910 0.03500
H 	H 	0.97810 0.84310 0.03410 0.03900
H 	H 	0.94470 0.80470 0.05070 0.04800
H 	H 	0.96690 0.76750 0.04130 0.04700
H 	H 	0.05690 0.77370 0.00510 0.03300
H 	H 	0.03650 0.74830 0.01370 0.03300
H 	H 	0.10340 0.65000 0.17000 0.04400
H 	H 	0.12540 0.67200 0.13080 0.04300
H 	H 	0.82980 0.38640 0.48800 0.05700
H 	H 	0.77540 0.36500 0.54880 0.03400
H 	H 	0.71360 0.24860 0.63860 0.05400
H 	H 	0.67250 0.26810 0.69730 0.04800
H 	H 	0.68320 0.24400 0.73380 0.04900
H 	H 	0.71380 0.17840 0.66000 0.03600
H 	H 	0.65080 0.20980 0.75140 0.04400
H 	H 	0.64020 0.23360 0.71520 0.04000
H 	H 	0.62910 0.01910 0.83030 0.03500
H 	H 	0.64470 0.03410 0.84310 0.03900
H 	H 	0.69990 0.05070 0.80470 0.04800
H 	H 	0.72430 0.04130 0.76750 0.04700
H 	H 	0.66430 0.00510 0.77370 0.03300
H 	H 	0.70150 0.01370 0.74830 0.03300
H 	H 	0.57660 0.17000 0.65000 0.04400
H 	H 	0.57180 0.13080 0.67200 0.04300
H 	H 	0.98800 0.29580 0.32980 0.05700
H 	H 	0.04880 0.31080 0.27540 0.03400
H 	H 	0.13860 0.39920 0.21360 0.05400
H 	H 	0.19730 0.36210 0.17250 0.04800
H 	H 	0.23380 0.33900 0.18320 0.04900
H 	H 	0.16000 0.44780 0.21380 0.03600
H 	H 	0.25140 0.38800 0.15080 0.04400
H 	H 	0.21520 0.41100 0.14020 0.04000
H 	H 	0.33030 0.52150 0.12910 0.03500
H 	H 	0.34310 0.47810 0.14470 0.03900
H 	H 	0.30470 0.44470 0.19990 0.04800
H 	H 	0.26750 0.46690 0.22430 0.04700
H 	H 	0.27370 0.55690 0.16430 0.03300
H 	H 	0.24830 0.53650 0.20150 0.03300
H 	H 	0.15000 0.60340 0.07660 0.04400
H 	H 	0.17200 0.62540 0.07180 0.04300
H 	H 	0.88640 0.32980 0.29580 0.05700
H 	H 	0.86500 0.27540 0.31080 0.03400
H 	H 	0.74860 0.21360 0.39920 0.05400
H 	H 	0.76810 0.17250 0.36210 0.04800
H 	H 	0.74400 0.18320 0.33900 0.04900
H 	H 	0.67840 0.21380 0.44780 0.03600
H 	H 	0.70980 0.15080 0.38800 0.04400
H 	H 	0.73360 0.14020 0.41100 0.04000
H 	H 	0.51910 0.12910 0.52150 0.03500
H 	H 	0.53410 0.14470 0.47810 0.03900
H 	H 	0.55070 0.19990 0.44470 0.04800
H 	H 	0.54130 0.22430 0.46690 0.04700
H 	H 	0.50510 0.16430 0.55690 0.03300
H 	H 	0.51370 0.20150 0.53650 0.03300
H 	H 	0.67000 0.07660 0.60340 0.04400
H 	H 	0.63080 0.07180 0.62540 0.04300
H 	H 	0.79580 0.38640 0.32980 0.05700
H 	H 	0.81080 0.36500 0.27540 0.03400
H 	H 	0.89920 0.24860 0.21360 0.05400
H 	H 	0.86210 0.26810 0.17250 0.04800
H 	H 	0.83900 0.24400 0.18320 0.04900
H 	H 	0.94780 0.17840 0.21380 0.03600
H 	H 	0.88800 0.20980 0.15080 0.04400
H 	H 	0.91100 0.23360 0.14020 0.04000
H 	H 	0.02150 0.01910 0.12910 0.03500
H 	H 	0.97810 0.03410 0.14470 0.03900
H 	H 	0.94470 0.05070 0.19990 0.04800
H 	H 	0.96690 0.04130 0.22430 0.04700
H 	H 	0.05690 0.00510 0.16430 0.03300
H 	H 	0.03650 0.01370 0.20150 0.03300
H 	H 	0.10340 0.17000 0.07660 0.04400
H 	H 	0.12540 0.13080 0.07180 0.04300
H 	H 	0.82980 0.48800 0.29580 0.05700
H 	H 	0.77540 0.54880 0.31080 0.03400
H 	H 	0.71360 0.63860 0.39920 0.05400
H 	H 	0.67250 0.69730 0.36210 0.04800
H 	H 	0.68320 0.73380 0.33900 0.04900
H 	H 	0.71380 0.66000 0.44780 0.03600
H 	H 	0.65080 0.75140 0.38800 0.04400
H 	H 	0.64020 0.71520 0.41100 0.04000
H 	H 	0.62910 0.83030 0.52150 0.03500
H 	H 	0.64470 0.84310 0.47810 0.03900
H 	H 	0.69990 0.80470 0.44470 0.04800
H 	H 	0.72430 0.76750 0.46690 0.04700
H 	H 	0.66430 0.77370 0.55690 0.03300
H 	H 	0.70150 0.74830 0.53650 0.03300
H 	H 	0.57660 0.65000 0.60340 0.04400
H 	H 	0.57180 0.67200 0.62540 0.04300
H 	H 	0.98800 0.32980 0.38640 0.05700
H 	H 	0.04880 0.27540 0.36500 0.03400
H 	H 	0.13860 0.21360 0.24860 0.05400
H 	H 	0.19730 0.17250 0.26810 0.04800
H 	H 	0.23380 0.18320 0.24400 0.04900
H 	H 	0.16000 0.21380 0.17840 0.03600
H 	H 	0.25140 0.15080 0.20980 0.04400
H 	H 	0.21520 0.14020 0.23360 0.04000
H 	H 	0.33030 0.12910 0.01910 0.03500
H 	H 	0.34310 0.14470 0.03410 0.03900
H 	H 	0.30470 0.19990 0.05070 0.04800
H 	H 	0.26750 0.22430 0.04130 0.04700
H 	H 	0.27370 0.16430 0.00510 0.03300
H 	H 	0.24830 0.20150 0.01370 0.03300
H 	H 	0.15000 0.07660 0.17000 0.04400
H 	H 	0.17200 0.07180 0.13080 0.04300
H 	H 	0.88640 0.29580 0.48800 0.05700
H 	H 	0.86500 0.31080 0.54880 0.03400
H 	H 	0.74860 0.39920 0.63860 0.05400
H 	H 	0.76810 0.36210 0.69730 0.04800
H 	H 	0.74400 0.33900 0.73380 0.04900
H 	H 	0.67840 0.44780 0.66000 0.03600
H 	H 	0.70980 0.38800 0.75140 0.04400
H 	H 	0.73360 0.41100 0.71520 0.04000
H 	H 	0.51910 0.52150 0.83030 0.03500
H 	H 	0.53410 0.47810 0.84310 0.03900
H 	H 	0.55070 0.44470 0.80470 0.04800
H 	H 	0.54130 0.46690 0.76750 0.04700
H 	H 	0.50510 0.55690 0.77370 0.03300
H 	H 	0.51370 0.53650 0.74830 0.03300
H 	H 	0.67000 0.60340 0.65000 0.04400
H 	H 	0.63080 0.62540 0.67200 0.04300
H 	H 	0.17020 0.70420 0.51200 0.05700
H 	H 	0.22460 0.68920 0.45120 0.03400
H 	H 	0.28640 0.60080 0.36140 0.05400
H 	H 	0.32750 0.63790 0.30270 0.04800
H 	H 	0.31680 0.66100 0.26620 0.04900
H 	H 	0.28620 0.55220 0.34000 0.03600
H 	H 	0.34920 0.61200 0.24860 0.04400
H 	H 	0.35980 0.58900 0.28480 0.04000
H 	H 	0.37090 0.47850 0.16970 0.03500
H 	H 	0.35530 0.52190 0.15690 0.03900
H 	H 	0.30010 0.55530 0.19530 0.04800
H 	H 	0.27570 0.53310 0.23250 0.04700
H 	H 	0.33570 0.44310 0.22630 0.03300
H 	H 	0.29850 0.46350 0.25170 0.03300
H 	H 	0.42340 0.39660 0.35000 0.04400
H 	H 	0.42820 0.37460 0.32800 0.04300
H 	H 	0.20420 0.67020 0.61360 0.05700
H 	H 	0.18920 0.72460 0.63500 0.03400
H 	H 	0.10080 0.78640 0.75140 0.05400
H 	H 	0.13790 0.82750 0.73190 0.04800
H 	H 	0.16100 0.81680 0.75600 0.04900
H 	H 	0.05220 0.78620 0.82160 0.03600
H 	H 	0.11200 0.84920 0.79020 0.04400
H 	H 	0.08900 0.85980 0.76640 0.04000
H 	H 	0.97850 0.87090 0.98090 0.03500
H 	H 	0.02190 0.85530 0.96590 0.03900
H 	H 	0.05530 0.80010 0.94930 0.04800
H 	H 	0.03310 0.77570 0.95870 0.04700
H 	H 	0.94310 0.83570 0.99490 0.03300
H 	H 	0.96350 0.79850 0.98630 0.03300
H 	H 	0.89660 0.92340 0.83000 0.04400
H 	H 	0.87460 0.92820 0.86920 0.04300
H 	H 	0.11360 0.51200 0.70420 0.05700
H 	H 	0.13500 0.45120 0.68920 0.03400
H 	H 	0.25140 0.36140 0.60080 0.05400
H 	H 	0.23190 0.30270 0.63790 0.04800
H 	H 	0.25600 0.26620 0.66100 0.04900
H 	H 	0.32160 0.34000 0.55220 0.03600
H 	H 	0.29020 0.24860 0.61200 0.04400
H 	H 	0.26640 0.28480 0.58900 0.04000
H 	H 	0.48090 0.16970 0.47850 0.03500
H 	H 	0.46590 0.15690 0.52190 0.03900
H 	H 	0.44930 0.19530 0.55530 0.04800
H 	H 	0.45870 0.23250 0.53310 0.04700
H 	H 	0.49490 0.22630 0.44310 0.03300
H 	H 	0.48630 0.25170 0.46350 0.03300
H 	H 	0.33000 0.35000 0.39660 0.04400
H 	H 	0.36920 0.32800 0.37460 0.04300
H 	H 	0.01200 0.61360 0.67020 0.05700
H 	H 	0.95120 0.63500 0.72460 0.03400
H 	H 	0.86140 0.75140 0.78640 0.05400
H 	H 	0.80270 0.73190 0.82750 0.04800
H 	H 	0.76620 0.75600 0.81680 0.04900
H 	H 	0.84000 0.82160 0.78620 0.03600
H 	H 	0.74860 0.79020 0.84920 0.04400
H 	H 	0.78480 0.76640 0.85980 0.04000
H 	H 	0.66970 0.98090 0.87090 0.03500
H 	H 	0.65690 0.96590 0.85530 0.03900
H 	H 	0.69530 0.94930 0.80010 0.04800
H 	H 	0.73250 0.95870 0.77570 0.04700
H 	H 	0.72630 0.99490 0.83570 0.03300
H 	H 	0.75170 0.98630 0.79850 0.03300
H 	H 	0.85000 0.83000 0.92340 0.04400
H 	H 	0.82800 0.86920 0.92820 0.04300
H 	H 	0.01200 0.70420 0.61360 0.05700
H 	H 	0.95120 0.68920 0.63500 0.03400
H 	H 	0.86140 0.60080 0.75140 0.05400
H 	H 	0.80270 0.63790 0.73190 0.04800
H 	H 	0.76620 0.66100 0.75600 0.04900
H 	H 	0.84000 0.55220 0.82160 0.03600
H 	H 	0.74860 0.61200 0.79020 0.04400
H 	H 	0.78480 0.58900 0.76640 0.04000
H 	H 	0.66970 0.47850 0.98090 0.03500
H 	H 	0.65690 0.52190 0.96590 0.03900
H 	H 	0.69530 0.55530 0.94930 0.04800
H 	H 	0.73250 0.53310 0.95870 0.04700
H 	H 	0.72630 0.44310 0.99490 0.03300
H 	H 	0.75170 0.46350 0.98630 0.03300
H 	H 	0.85000 0.39660 0.83000 0.04400
H 	H 	0.82800 0.37460 0.86920 0.04300
H 	H 	0.11360 0.67020 0.51200 0.05700
H 	H 	0.13500 0.72460 0.45120 0.03400
H 	H 	0.25140 0.78640 0.36140 0.05400
H 	H 	0.23190 0.82750 0.30270 0.04800
H 	H 	0.25600 0.81680 0.26620 0.04900
H 	H 	0.32160 0.78620 0.34000 0.03600
H 	H 	0.29020 0.84920 0.24860 0.04400
H 	H 	0.26640 0.85980 0.28480 0.04000
H 	H 	0.48090 0.87090 0.16970 0.03500
H 	H 	0.46590 0.85530 0.15690 0.03900
H 	H 	0.44930 0.80010 0.19530 0.04800
H 	H 	0.45870 0.77570 0.23250 0.04700
H 	H 	0.49490 0.83570 0.22630 0.03300
H 	H 	0.48630 0.79850 0.25170 0.03300
H 	H 	0.33000 0.92340 0.35000 0.04400
H 	H 	0.36920 0.92820 0.32800 0.04300
H 	H 	0.20420 0.51200 0.67020 0.05700
H 	H 	0.18920 0.45120 0.72460 0.03400
H 	H 	0.10080 0.36140 0.78640 0.05400
H 	H 	0.13790 0.30270 0.82750 0.04800
H 	H 	0.16100 0.26620 0.81680 0.04900
H 	H 	0.05220 0.34000 0.78620 0.03600
H 	H 	0.11200 0.24860 0.84920 0.04400
H 	H 	0.08900 0.28480 0.85980 0.04000
H 	H 	0.97850 0.16970 0.87090 0.03500
H 	H 	0.02190 0.15690 0.85530 0.03900
H 	H 	0.05530 0.19530 0.80010 0.04800
H 	H 	0.03310 0.23250 0.77570 0.04700
H 	H 	0.94310 0.22630 0.83570 0.03300
H 	H 	0.96350 0.25170 0.79850 0.03300
H 	H 	0.89660 0.35000 0.92340 0.04400
H 	H 	0.87460 0.32800 0.92820 0.04300
H 	H 	0.17020 0.61360 0.70420 0.05700
H 	H 	0.22460 0.63500 0.68920 0.03400
H 	H 	0.28640 0.75140 0.60080 0.05400
H 	H 	0.32750 0.73190 0.63790 0.04800
H 	H 	0.31680 0.75600 0.66100 0.04900
H 	H 	0.28620 0.82160 0.55220 0.03600
H 	H 	0.34920 0.79020 0.61200 0.04400
H 	H 	0.35980 0.76640 0.58900 0.04000
H 	H 	0.37090 0.98090 0.47850 0.03500
H 	H 	0.35530 0.96590 0.52190 0.03900
H 	H 	0.30010 0.94930 0.55530 0.04800
H 	H 	0.27570 0.95870 0.53310 0.04700
H 	H 	0.33570 0.99490 0.44310 0.03300
H 	H 	0.29850 0.98630 0.46350 0.03300
H 	H 	0.42340 0.83000 0.39660 0.04400
H 	H 	0.42820 0.86920 0.37460 0.04300
H 	H 	0.11360 0.70420 0.67020 0.05700
H 	H 	0.13500 0.68920 0.72460 0.03400
H 	H 	0.25140 0.60080 0.78640 0.05400
H 	H 	0.23190 0.63790 0.82750 0.04800
H 	H 	0.25600 0.66100 0.81680 0.04900
H 	H 	0.32160 0.55220 0.78620 0.03600
H 	H 	0.29020 0.61200 0.84920 0.04400
H 	H 	0.26640 0.58900 0.85980 0.04000
H 	H 	0.48090 0.47850 0.87090 0.03500
H 	H 	0.46590 0.52190 0.85530 0.03900
H 	H 	0.44930 0.55530 0.80010 0.04800
H 	H 	0.45870 0.53310 0.77570 0.04700
H 	H 	0.49490 0.44310 0.83570 0.03300
H 	H 	0.48630 0.46350 0.79850 0.03300
H 	H 	0.33000 0.39660 0.92340 0.04400
H 	H 	0.36920 0.37460 0.92820 0.04300
H 	H 	0.01200 0.67020 0.70420 0.05700
H 	H 	0.95120 0.72460 0.68920 0.03400
H 	H 	0.86140 0.78640 0.60080 0.05400
H 	H 	0.80270 0.82750 0.63790 0.04800
H 	H 	0.76620 0.81680 0.66100 0.04900
H 	H 	0.84000 0.78620 0.55220 0.03600
H 	H 	0.74860 0.84920 0.61200 0.04400
H 	H 	0.78480 0.85980 0.58900 0.04000
H 	H 	0.66970 0.87090 0.47850 0.03500
H 	H 	0.65690 0.85530 0.52190 0.03900
H 	H 	0.69530 0.80010 0.55530 0.04800
H 	H 	0.73250 0.77570 0.53310 0.04700
H 	H 	0.72630 0.83570 0.44310 0.03300
H 	H 	0.75170 0.79850 0.46350 0.03300
H 	H 	0.85000 0.92340 0.39660 0.04400
H 	H 	0.82800 0.92820 0.37460 0.04300
H 	H 	0.17020 0.51200 0.61360 0.05700
H 	H 	0.22460 0.45120 0.63500 0.03400
H 	H 	0.28640 0.36140 0.75140 0.05400
H 	H 	0.32750 0.30270 0.73190 0.04800
H 	H 	0.31680 0.26620 0.75600 0.04900
H 	H 	0.28620 0.34000 0.82160 0.03600
H 	H 	0.34920 0.24860 0.79020 0.04400
H 	H 	0.35980 0.28480 0.76640 0.04000
H 	H 	0.37090 0.16970 0.98090 0.03500
H 	H 	0.35530 0.15690 0.96590 0.03900
H 	H 	0.30010 0.19530 0.94930 0.04800
H 	H 	0.27570 0.23250 0.95870 0.04700
H 	H 	0.33570 0.22630 0.99490 0.03300
H 	H 	0.29850 0.25170 0.98630 0.03300
H 	H 	0.42340 0.35000 0.83000 0.04400
H 	H 	0.42820 0.32800 0.86920 0.04300
H 	H 	0.20420 0.61360 0.51200 0.05700
H 	H 	0.18920 0.63500 0.45120 0.03400
H 	H 	0.10080 0.75140 0.36140 0.05400
H 	H 	0.13790 0.73190 0.30270 0.04800
H 	H 	0.16100 0.75600 0.26620 0.04900
H 	H 	0.05220 0.82160 0.34000 0.03600
H 	H 	0.11200 0.79020 0.24860 0.04400
H 	H 	0.08900 0.76640 0.28480 0.04000
H 	H 	0.97850 0.98090 0.16970 0.03500
H 	H 	0.02190 0.96590 0.15690 0.03900
H 	H 	0.05530 0.94930 0.19530 0.04800
H 	H 	0.03310 0.95870 0.23250 0.04700
H 	H 	0.94310 0.99490 0.22630 0.03300
H 	H 	0.96350 0.98630 0.25170 0.03300
H 	H 	0.89660 0.83000 0.35000 0.04400
H 	H 	0.87460 0.86920 0.32800 0.04300
C 	C 	0.13850 0.81670 0.28770 -0.08800
C 	C 	0.10390 0.83910 0.27550 -0.06200
C 	C 	0.99980 0.84840 0.17000 -0.05200
C 	C 	0.03380 0.79240 0.20740 -0.09300
C 	C 	0.96530 0.81390 0.22610 -0.04600
C 	C 	0.88210 0.91270 0.34990 -0.06800
C 	C 	0.31670 0.63850 0.75710 -0.08800
C 	C 	0.33910 0.60390 0.78150 -0.06200
C 	C 	0.34840 0.49980 0.98180 -0.05200
C 	C 	0.29240 0.53380 0.96640 -0.09300
C 	C 	0.31390 0.46530 0.99470 -0.04600
C 	C 	0.41270 0.38210 0.85530 -0.06800
C 	C 	0.78770 0.75710 0.63850 -0.08800
C 	C 	0.77550 0.78150 0.60390 -0.06200
C 	C 	0.67000 0.98180 0.49980 -0.05200
C 	C 	0.70740 0.96640 0.53380 -0.09300
C 	C 	0.72610 0.99470 0.46530 -0.04600
C 	C 	0.84990 0.85530 0.38210 -0.06800
C 	C 	0.25710 0.28770 0.81670 -0.08800
C 	C 	0.28150 0.27550 0.83910 -0.06200
C 	C 	0.48180 0.17000 0.84840 -0.05200
C 	C 	0.46640 0.20740 0.79240 -0.09300
C 	C 	0.49470 0.22610 0.81390 -0.04600
C 	C 	0.35530 0.34990 0.91270 -0.06800
C 	C 	0.13850 0.28770 0.75710 -0.08800
C 	C 	0.10390 0.27550 0.78150 -0.06200
C 	C 	0.99980 0.17000 0.98180 -0.05200
C 	C 	0.03380 0.20740 0.96640 -0.09300
C 	C 	0.96530 0.22610 0.99470 -0.04600
C 	C 	0.88210 0.34990 0.85530 -0.06800
C 	C 	0.31670 0.75710 0.28770 -0.08800
C 	C 	0.33910 0.78150 0.27550 -0.06200
C 	C 	0.34840 0.98180 0.17000 -0.05200
C 	C 	0.29240 0.96640 0.20740 -0.09300
C 	C 	0.31390 0.99470 0.22610 -0.04600
C 	C 	0.41270 0.85530 0.34990 -0.06800
C 	C 	0.78770 0.63850 0.81670 -0.08800
C 	C 	0.77550 0.60390 0.83910 -0.06200
C 	C 	0.67000 0.49980 0.84840 -0.05200
C 	C 	0.70740 0.53380 0.79240 -0.09300
C 	C 	0.72610 0.46530 0.81390 -0.04600
C 	C 	0.84990 0.38210 0.91270 -0.06800
C 	C 	0.25710 0.81670 0.63850 -0.08800
C 	C 	0.28150 0.83910 0.60390 -0.06200
C 	C 	0.48180 0.84840 0.49980 -0.05200
C 	C 	0.46640 0.79240 0.53380 -0.09300
C 	C 	0.49470 0.81390 0.46530 -0.04600
C 	C 	0.35530 0.91270 0.38210 -0.06800
C 	C 	0.13850 0.75710 0.81670 -0.08800
C 	C 	0.10390 0.78150 0.83910 -0.06200
C 	C 	0.99980 0.98180 0.84840 -0.05200
C 	C 	0.03380 0.96640 0.79240 -0.09300
C 	C 	0.96530 0.99470 0.81390 -0.04600
C 	C 	0.88210 0.85530 0.91270 -0.06800
C 	C 	0.31670 0.28770 0.63850 -0.08800
C 	C 	0.33910 0.27550 0.60390 -0.06200
C 	C 	0.34840 0.17000 0.49980 -0.05200
C 	C 	0.29240 0.20740 0.53380 -0.09300
C 	C 	0.31390 0.22610 0.46530 -0.04600
C 	C 	0.41270 0.34990 0.38210 -0.06800
C 	C 	0.78770 0.81670 0.75710 -0.08800
C 	C 	0.77550 0.83910 0.78150 -0.06200
C 	C 	0.67000 0.84840 0.98180 -0.05200
C 	C 	0.70740 0.79240 0.96640 -0.09300
C 	C 	0.72610 0.81390 0.99470 -0.04600
C 	C 	0.84990 0.91270 0.85530 -0.06800
C 	C 	0.25710 0.63850 0.28770 -0.08800
C 	C 	0.28150 0.60390 0.27550 -0.06200
C 	C 	0.48180 0.49980 0.17000 -0.05200
C 	C 	0.46640 0.53380 0.20740 -0.09300
C 	C 	0.49470 0.46530 0.22610 -0.04600
C 	C 	0.35530 0.38210 0.34990 -0.06800
C 	C 	0.68330 0.36150 0.71230 -0.08800
C 	C 	0.66090 0.39610 0.72450 -0.06200
C 	C 	0.65160 0.50020 0.83000 -0.05200
C 	C 	0.70760 0.46620 0.79260 -0.09300
C 	C 	0.68610 0.53470 0.77390 -0.04600
C 	C 	0.58730 0.61790 0.65010 -0.06800
C 	C 	0.86150 0.18330 0.24290 -0.08800
C 	C 	0.89610 0.16090 0.21850 -0.06200
C 	C 	0.00020 0.15160 0.01820 -0.05200
C 	C 	0.96620 0.20760 0.03360 -0.09300
C 	C 	0.03470 0.18610 0.00530 -0.04600
C 	C 	0.11790 0.08730 0.14470 -0.06800
C 	C 	0.74290 0.71230 0.36150 -0.08800
C 	C 	0.71850 0.72450 0.39610 -0.06200
C 	C 	0.51820 0.83000 0.50020 -0.05200
C 	C 	0.53360 0.79260 0.46620 -0.09300
C 	C 	0.50530 0.77390 0.53470 -0.04600
C 	C 	0.64470 0.65010 0.61790 -0.06800
C 	C 	0.21230 0.24290 0.18330 -0.08800
C 	C 	0.22450 0.21850 0.16090 -0.06200
C 	C 	0.33000 0.01820 0.15160 -0.05200
C 	C 	0.29260 0.03360 0.20760 -0.09300
C 	C 	0.27390 0.00530 0.18610 -0.04600
C 	C 	0.15010 0.14470 0.08730 -0.06800
C 	C 	0.21230 0.36150 0.24290 -0.08800
C 	C 	0.22450 0.39610 0.21850 -0.06200
C 	C 	0.33000 0.50020 0.01820 -0.05200
C 	C 	0.29260 0.46620 0.03360 -0.09300
C 	C 	0.27390 0.53470 0.00530 -0.04600
C 	C 	0.15010 0.61790 0.14470 -0.06800
C 	C 	0.74290 0.18330 0.71230 -0.08800
C 	C 	0.71850 0.16090 0.72450 -0.06200
C 	C 	0.51820 0.15160 0.83000 -0.05200
C 	C 	0.53360 0.20760 0.79260 -0.09300
C 	C 	0.50530 0.18610 0.77390 -0.04600
C 	C 	0.64470 0.08730 0.65010 -0.06800
C 	C 	0.86150 0.71230 0.18330 -0.08800
C 	C 	0.89610 0.72450 0.16090 -0.06200
C 	C 	0.00020 0.83000 0.15160 -0.05200
C 	C 	0.96620 0.79260 0.20760 -0.09300
C 	C 	0.03470 0.77390 0.18610 -0.04600
C 	C 	0.11790 0.65010 0.08730 -0.06800
C 	C 	0.68330 0.24290 0.36150 -0.08800
C 	C 	0.66090 0.21850 0.39610 -0.06200
C 	C 	0.65160 0.01820 0.50020 -0.05200
C 	C 	0.70760 0.03360 0.46620 -0.09300
C 	C 	0.68610 0.00530 0.53470 -0.04600
C 	C 	0.58730 0.14470 0.61790 -0.06800
C 	C 	0.74290 0.36150 0.18330 -0.08800
C 	C 	0.71850 0.39610 0.16090 -0.06200
C 	C 	0.51820 0.50020 0.15160 -0.05200
C 	C 	0.53360 0.46620 0.20760 -0.09300
C 	C 	0.50530 0.53470 0.18610 -0.04600
C 	C 	0.64470 0.61790 0.08730 -0.06800
C 	C 	0.21230 0.18330 0.36150 -0.08800
C 	C 	0.22450 0.16090 0.39610 -0.06200
C 	C 	0.33000 0.15160 0.50020 -0.05200
C 	C 	0.29260 0.20760 0.46620 -0.09300
C 	C 	0.27390 0.18610 0.53470 -0.04600
C 	C 	0.15010 0.08730 0.61790 -0.06800
C 	C 	0.68330 0.71230 0.24290 -0.08800
C 	C 	0.66090 0.72450 0.21850 -0.06200
C 	C 	0.65160 0.83000 0.01820 -0.05200
C 	C 	0.70760 0.79260 0.03360 -0.09300
C 	C 	0.68610 0.77390 0.00530 -0.04600
C 	C 	0.58730 0.65010 0.14470 -0.06800
C 	C 	0.86150 0.24290 0.71230 -0.08800
C 	C 	0.89610 0.21850 0.72450 -0.06200
C 	C 	0.00020 0.01820 0.83000 -0.05200
C 	C 	0.96620 0.03360 0.79260 -0.09300
C 	C 	0.03470 0.00530 0.77390 -0.04600
C 	C 	0.11790 0.14470 0.65010 -0.06800
C 	C 	0.86150 0.18330 0.71230 -0.08800
C 	C 	0.89610 0.16090 0.72450 -0.06200
C 	C 	0.00020 0.15160 0.83000 -0.05200
C 	C 	0.96620 0.20760 0.79260 -0.09300
C 	C 	0.03470 0.18610 0.77390 -0.04600
C 	C 	0.11790 0.08730 0.65010 -0.06800
C 	C 	0.68330 0.36150 0.24290 -0.08800
C 	C 	0.66090 0.39610 0.21850 -0.06200
C 	C 	0.65160 0.50020 0.01820 -0.05200
C 	C 	0.70760 0.46620 0.03360 -0.09300
C 	C 	0.68610 0.53470 0.00530 -0.04600
C 	C 	0.58730 0.61790 0.14470 -0.06800
C 	C 	0.21230 0.24290 0.36150 -0.08800
C 	C 	0.22450 0.21850 0.39610 -0.06200
C 	C 	0.33000 0.01820 0.50020 -0.05200
C 	C 	0.29260 0.03360 0.46620 -0.09300
C 	C 	0.27390 0.00530 0.53470 -0.04600
C 	C 	0.15010 0.14470 0.61790 -0.06800
C 	C 	0.74290 0.71230 0.18330 -0.08800
C 	C 	0.71850 0.72450 0.16090 -0.06200
C 	C 	0.51820 0.83000 0.15160 -0.05200
C 	C 	0.53360 0.79260 0.20760 -0.09300
C 	C 	0.50530 0.77390 0.18610 -0.04600
C 	C 	0.64470 0.65010 0.08730 -0.06800
C 	C 	0.86150 0.71230 0.24290 -0.08800
C 	C 	0.89610 0.72450 0.21850 -0.06200
C 	C 	0.00020 0.83000 0.01820 -0.05200
C 	C 	0.96620 0.79260 0.03360 -0.09300
C 	C 	0.03470 0.77390 0.00530 -0.04600
C 	C 	0.11790 0.65010 0.14470 -0.06800
C 	C 	0.68330 0.24290 0.71230 -0.08800
C 	C 	0.66090 0.21850 0.72450 -0.06200
C 	C 	0.65160 0.01820 0.83000 -0.05200
C 	C 	0.70760 0.03360 0.79260 -0.09300
C 	C 	0.68610 0.00530 0.77390 -0.04600
C 	C 	0.58730 0.14470 0.65010 -0.06800
C 	C 	0.21230 0.36150 0.18330 -0.08800
C 	C 	0.22450 0.39610 0.16090 -0.06200
C 	C 	0.33000 0.50020 0.15160 -0.05200
C 	C 	0.29260 0.46620 0.20760 -0.09300
C 	C 	0.27390 0.53470 0.18610 -0.04600
C 	C 	0.15010 0.61790 0.08730 -0.06800
C 	C 	0.74290 0.18330 0.36150 -0.08800
C 	C 	0.71850 0.16090 0.39610 -0.06200
C 	C 	0.51820 0.15160 0.50020 -0.05200
C 	C 	0.53360 0.20760 0.46620 -0.09300
C 	C 	0.50530 0.18610 0.53470 -0.04600
C 	C 	0.64470 0.08730 0.61790 -0.06800
C 	C 	0.86150 0.24290 0.18330 -0.08800
C 	C 	0.89610 0.21850 0.16090 -0.06200
C 	C 	0.00020 0.01820 0.15160 -0.05200
C 	C 	0.96620 0.03360 0.20760 -0.09300
C 	C 	0.03470 0.00530 0.18610 -0.04600
C 	C 	0.11790 0.14470 0.08730 -0.06800
C 	C 	0.68330 0.71230 0.36150 -0.08800
C 	C 	0.66090 0.72450 0.39610 -0.06200
C 	C 	0.65160 0.83000 0.50020 -0.05200
C 	C 	0.70760 0.79260 0.46620 -0.09300
C 	C 	0.68610 0.77390 0.53470 -0.04600
C 	C 	0.58730 0.65010 0.61790 -0.06800
C 	C 	0.21230 0.18330 0.24290 -0.08800
C 	C 	0.22450 0.16090 0.21850 -0.06200
C 	C 	0.33000 0.15160 0.01820 -0.05200
C 	C 	0.29260 0.20760 0.03360 -0.09300
C 	C 	0.27390 0.18610 0.00530 -0.04600
C 	C 	0.15010 0.08730 0.14470 -0.06800
C 	C 	0.74290 0.36150 0.71230 -0.08800
C 	C 	0.71850 0.39610 0.72450 -0.06200
C 	C 	0.51820 0.50020 0.83000 -0.05200
C 	C 	0.53360 0.46620 0.79260 -0.09300
C 	C 	0.50530 0.53470 0.77390 -0.04600
C 	C 	0.64470 0.61790 0.65010 -0.06800
C 	C 	0.31670 0.63850 0.28770 -0.08800
C 	C 	0.33910 0.60390 0.27550 -0.06200
C 	C 	0.34840 0.49980 0.17000 -0.05200
C 	C 	0.29240 0.53380 0.20740 -0.09300
C 	C 	0.31390 0.46530 0.22610 -0.04600
C 	C 	0.41270 0.38210 0.34990 -0.06800
C 	C 	0.13850 0.81670 0.75710 -0.08800
C 	C 	0.10390 0.83910 0.78150 -0.06200
C 	C 	0.99980 0.84840 0.98180 -0.05200
C 	C 	0.03380 0.79240 0.96640 -0.09300
C 	C 	0.96530 0.81390 0.99470 -0.04600
C 	C 	0.88210 0.91270 0.85530 -0.06800
C 	C 	0.25710 0.28770 0.63850 -0.08800
C 	C 	0.28150 0.27550 0.60390 -0.06200
C 	C 	0.48180 0.17000 0.49980 -0.05200
C 	C 	0.46640 0.20740 0.53380 -0.09300
C 	C 	0.49470 0.22610 0.46530 -0.04600
C 	C 	0.35530 0.34990 0.38210 -0.06800
C 	C 	0.78770 0.75710 0.81670 -0.08800
C 	C 	0.77550 0.78150 0.83910 -0.06200
C 	C 	0.67000 0.98180 0.84840 -0.05200
C 	C 	0.70740 0.96640 0.79240 -0.09300
C 	C 	0.72610 0.99470 0.81390 -0.04600
C 	C 	0.84990 0.85530 0.91270 -0.06800
C 	C 	0.78770 0.63850 0.75710 -0.08800
C 	C 	0.77550 0.60390 0.78150 -0.06200
C 	C 	0.67000 0.49980 0.98180 -0.05200
C 	C 	0.70740 0.53380 0.96640 -0.09300
C 	C 	0.72610 0.46530 0.99470 -0.04600
C 	C 	0.84990 0.38210 0.85530 -0.06800
C 	C 	0.25710 0.81670 0.28770 -0.08800
C 	C 	0.28150 0.83910 0.27550 -0.06200
C 	C 	0.48180 0.84840 0.17000 -0.05200
C 	C 	0.46640 0.79240 0.20740 -0.09300
C 	C 	0.49470 0.81390 0.22610 -0.04600
C 	C 	0.35530 0.91270 0.34990 -0.06800
C 	C 	0.13850 0.28770 0.81670 -0.08800
C 	C 	0.10390 0.27550 0.83910 -0.06200
C 	C 	0.99980 0.17000 0.84840 -0.05200
C 	C 	0.03380 0.20740 0.79240 -0.09300
C 	C 	0.96530 0.22610 0.81390 -0.04600
C 	C 	0.88210 0.34990 0.91270 -0.06800
C 	C 	0.31670 0.75710 0.63850 -0.08800
C 	C 	0.33910 0.78150 0.60390 -0.06200
C 	C 	0.34840 0.98180 0.49980 -0.05200
C 	C 	0.29240 0.96640 0.53380 -0.09300
C 	C 	0.31390 0.99470 0.46530 -0.04600
C 	C 	0.41270 0.85530 0.38210 -0.06800
C 	C 	0.25710 0.63850 0.81670 -0.08800
C 	C 	0.28150 0.60390 0.83910 -0.06200
C 	C 	0.48180 0.49980 0.84840 -0.05200
C 	C 	0.46640 0.53380 0.79240 -0.09300
C 	C 	0.49470 0.46530 0.81390 -0.04600
C 	C 	0.35530 0.38210 0.91270 -0.06800
C 	C 	0.78770 0.81670 0.63850 -0.08800
C 	C 	0.77550 0.83910 0.60390 -0.06200
C 	C 	0.67000 0.84840 0.49980 -0.05200
C 	C 	0.70740 0.79240 0.53380 -0.09300
C 	C 	0.72610 0.81390 0.46530 -0.04600
C 	C 	0.84990 0.91270 0.38210 -0.06800
C 	C 	0.31670 0.28770 0.75710 -0.08800
C 	C 	0.33910 0.27550 0.78150 -0.06200
C 	C 	0.34840 0.17000 0.98180 -0.05200
C 	C 	0.29240 0.20740 0.96640 -0.09300
C 	C 	0.31390 0.22610 0.99470 -0.04600
C 	C 	0.41270 0.34990 0.85530 -0.06800
C 	C 	0.13850 0.75710 0.28770 -0.08800
C 	C 	0.10390 0.78150 0.27550 -0.06200
C 	C 	0.99980 0.98180 0.17000 -0.05200
C 	C 	0.03380 0.96640 0.20740 -0.09300
C 	C 	0.96530 0.99470 0.22610 -0.04600
C 	C 	0.88210 0.85530 0.34990 -0.06800
C 	C 	0.18370 0.68370 0.50410 -0.10000
C 	C 	0.19790 0.69790 0.46050 -0.05400
C 	C 	0.18370 0.68370 0.62850 -0.10000
C 	C 	0.19790 0.69790 0.64370 -0.05400
C 	C 	0.00410 0.62850 0.68370 -0.10000
C 	C 	0.96050 0.64370 0.69790 -0.05400
C 	C 	0.12850 0.50410 0.68370 -0.10000
C 	C 	0.14370 0.46050 0.69790 -0.05400
C 	C 	0.18370 0.50410 0.62850 -0.10000
C 	C 	0.19790 0.46050 0.64370 -0.05400
C 	C 	0.18370 0.62850 0.50410 -0.10000
C 	C 	0.19790 0.64370 0.46050 -0.05400
C 	C 	0.00410 0.68370 0.68370 -0.10000
C 	C 	0.96050 0.69790 0.69790 -0.05400
C 	C 	0.12850 0.68370 0.68370 -0.10000
C 	C 	0.14370 0.69790 0.69790 -0.05400
C 	C 	0.18370 0.62850 0.68370 -0.10000
C 	C 	0.19790 0.64370 0.69790 -0.05400
C 	C 	0.18370 0.50410 0.68370 -0.10000
C 	C 	0.19790 0.46050 0.69790 -0.05400
C 	C 	0.00410 0.68370 0.62850 -0.10000
C 	C 	0.96050 0.69790 0.64370 -0.05400
C 	C 	0.12850 0.68370 0.50410 -0.10000
C 	C 	0.14370 0.69790 0.46050 -0.05400
C 	C 	0.81630 0.31630 0.49590 -0.10000
C 	C 	0.80210 0.30210 0.53950 -0.05400
C 	C 	0.81630 0.31630 0.37150 -0.10000
C 	C 	0.80210 0.30210 0.35630 -0.05400
C 	C 	0.87150 0.49590 0.31630 -0.10000
C 	C 	0.85630 0.53950 0.30210 -0.05400
C 	C 	0.99590 0.37150 0.31630 -0.10000
C 	C 	0.03950 0.35630 0.30210 -0.05400
C 	C 	0.99590 0.31630 0.37150 -0.10000
C 	C 	0.03950 0.30210 0.35630 -0.05400
C 	C 	0.87150 0.31630 0.49590 -0.10000
C 	C 	0.85630 0.30210 0.53950 -0.05400
C 	C 	0.81630 0.49590 0.31630 -0.10000
C 	C 	0.80210 0.53950 0.30210 -0.05400
C 	C 	0.81630 0.37150 0.31630 -0.10000
C 	C 	0.80210 0.35630 0.30210 -0.05400
C 	C 	0.87150 0.31630 0.31630 -0.10000
C 	C 	0.85630 0.30210 0.30210 -0.05400
C 	C 	0.99590 0.31630 0.31630 -0.10000
C 	C 	0.03950 0.30210 0.30210 -0.05400
C 	C 	0.81630 0.49590 0.37150 -0.10000
C 	C 	0.80210 0.53950 0.35630 -0.05400
C 	C 	0.81630 0.37150 0.49590 -0.10000
C 	C 	0.80210 0.35630 0.53950 -0.05400
C 	C 	0.10190 0.77590 0.34630 -0.10300
C 	C 	0.06740 0.80100 0.33060 -0.05600
C 	C 	0.27590 0.60190 0.77590 -0.10300
C 	C 	0.30100 0.56740 0.80100 -0.05600
C 	C 	0.84630 0.77590 0.60190 -0.10300
C 	C 	0.83060 0.80100 0.56740 -0.05600
C 	C 	0.27590 0.34630 0.77590 -0.10300
C 	C 	0.30100 0.33060 0.80100 -0.05600
C 	C 	0.10190 0.34630 0.77590 -0.10300
C 	C 	0.06740 0.33060 0.80100 -0.05600
C 	C 	0.27590 0.77590 0.34630 -0.10300
C 	C 	0.30100 0.80100 0.33060 -0.05600
C 	C 	0.84630 0.60190 0.77590 -0.10300
C 	C 	0.83060 0.56740 0.80100 -0.05600
C 	C 	0.27590 0.77590 0.60190 -0.10300
C 	C 	0.30100 0.80100 0.56740 -0.05600
C 	C 	0.10190 0.77590 0.77590 -0.10300
C 	C 	0.06740 0.80100 0.80100 -0.05600
C 	C 	0.27590 0.34630 0.60190 -0.10300
C 	C 	0.30100 0.33060 0.56740 -0.05600
C 	C 	0.84630 0.77590 0.77590 -0.10300
C 	C 	0.83060 0.80100 0.80100 -0.05600
C 	C 	0.27590 0.60190 0.34630 -0.10300
C 	C 	0.30100 0.56740 0.33060 -0.05600
C 	C 	0.72410 0.39810 0.65370 -0.10300
C 	C 	0.69900 0.43260 0.66940 -0.05600
C 	C 	0.89810 0.22410 0.22410 -0.10300
C 	C 	0.93260 0.19900 0.19900 -0.05600
C 	C 	0.72410 0.65370 0.39810 -0.10300
C 	C 	0.69900 0.66940 0.43260 -0.05600
C 	C 	0.15370 0.22410 0.22410 -0.10300
C 	C 	0.16940 0.19900 0.19900 -0.05600
C 	C 	0.15370 0.39810 0.22410 -0.10300
C 	C 	0.16940 0.43260 0.19900 -0.05600
C 	C 	0.72410 0.22410 0.65370 -0.10300
C 	C 	0.69900 0.19900 0.66940 -0.05600
C 	C 	0.89810 0.65370 0.22410 -0.10300
C 	C 	0.93260 0.66940 0.19900 -0.05600
C 	C 	0.72410 0.22410 0.39810 -0.10300
C 	C 	0.69900 0.19900 0.43260 -0.05600
C 	C 	0.72410 0.39810 0.22410 -0.10300
C 	C 	0.69900 0.43260 0.19900 -0.05600
C 	C 	0.15370 0.22410 0.39810 -0.10300
C 	C 	0.16940 0.19900 0.43260 -0.05600
C 	C 	0.72410 0.65370 0.22410 -0.10300
C 	C 	0.69900 0.66940 0.19900 -0.05600
C 	C 	0.89810 0.22410 0.65370 -0.10300
C 	C 	0.93260 0.19900 0.66940 -0.05600
I 	I 	0.99306 0.79904 0.30794 -0.57900
I 	I 	0.29904 0.49306 0.89996 -0.57900
I 	I 	0.80794 0.89996 0.49306 -0.57900
I 	I 	0.39996 0.30794 0.79904 -0.57900
I 	I 	0.99306 0.30794 0.89996 -0.57900
I 	I 	0.29904 0.89996 0.30794 -0.57900
I 	I 	0.80794 0.49306 0.79904 -0.57900
I 	I 	0.39996 0.79904 0.49306 -0.57900
I 	I 	0.99306 0.89996 0.79904 -0.57900
I 	I 	0.29904 0.30794 0.49306 -0.57900
I 	I 	0.80794 0.79904 0.89996 -0.57900
I 	I 	0.39996 0.49306 0.30794 -0.57900
I 	I 	0.70096 0.50694 0.69206 -0.57900
I 	I 	0.00694 0.20096 0.10004 -0.57900
I 	I 	0.60004 0.69206 0.50694 -0.57900
I 	I 	0.19206 0.10004 0.20096 -0.57900
I 	I 	0.19206 0.50694 0.10004 -0.57900
I 	I 	0.60004 0.20096 0.69206 -0.57900
I 	I 	0.00694 0.69206 0.20096 -0.57900
I 	I 	0.70096 0.10004 0.50694 -0.57900
I 	I 	0.60004 0.50694 0.20096 -0.57900
I 	I 	0.19206 0.20096 0.50694 -0.57900
I 	I 	0.70096 0.69206 0.10004 -0.57900
I 	I 	0.00694 0.10004 0.69206 -0.57900
I 	I 	0.00694 0.20096 0.69206 -0.57900
I 	I 	0.70096 0.50694 0.10004 -0.57900
I 	I 	0.19206 0.10004 0.50694 -0.57900
I 	I 	0.60004 0.69206 0.20096 -0.57900
I 	I 	0.00694 0.69206 0.10004 -0.57900
I 	I 	0.70096 0.10004 0.69206 -0.57900
I 	I 	0.19206 0.50694 0.20096 -0.57900
I 	I 	0.60004 0.20096 0.50694 -0.57900
I 	I 	0.00694 0.10004 0.20096 -0.57900
I 	I 	0.70096 0.69206 0.50694 -0.57900
I 	I 	0.19206 0.20096 0.10004 -0.57900
I 	I 	0.60004 0.50694 0.69206 -0.57900
I 	I 	0.29904 0.49306 0.30794 -0.57900
I 	I 	0.99306 0.79904 0.89996 -0.57900
I 	I 	0.39996 0.30794 0.49306 -0.57900
I 	I 	0.80794 0.89996 0.79904 -0.57900
I 	I 	0.80794 0.49306 0.89996 -0.57900
I 	I 	0.39996 0.79904 0.30794 -0.57900
I 	I 	0.99306 0.30794 0.79904 -0.57900
I 	I 	0.29904 0.89996 0.49306 -0.57900
I 	I 	0.39996 0.49306 0.79904 -0.57900
I 	I 	0.80794 0.79904 0.49306 -0.57900
I 	I 	0.29904 0.30794 0.89996 -0.57900
I 	I 	0.99306 0.89996 0.30794 -0.57900
I 	I 	0.09931 0.70207 0.59931 -0.58400
I 	I 	0.20207 0.59931 0.59931 -0.58400
I 	I 	0.09931 0.59931 0.59931 -0.58400
I 	I 	0.09931 0.59931 0.70207 -0.58400
I 	I 	0.79793 0.40069 0.40069 -0.58400
I 	I 	0.90069 0.29793 0.40069 -0.58400
I 	I 	0.90069 0.40069 0.40069 -0.58400
I 	I 	0.90069 0.40069 0.29793 -0.58400
I 	I 	0.24339 0.74339 0.26983 -0.59300
I 	I 	0.24339 0.74339 0.74339 -0.59300
I 	I 	0.76983 0.74339 0.74339 -0.59300
I 	I 	0.24339 0.26983 0.74339 -0.59300
I 	I 	0.75661 0.25661 0.73017 -0.59300
I 	I 	0.75661 0.25661 0.25661 -0.59300
I 	I 	0.75661 0.73017 0.25661 -0.59300
I 	I 	0.23017 0.25661 0.25661 -0.59300
I 	I 	0.17479 0.77787 0.37255 -0.57700
I 	I 	0.27787 0.67479 0.67479 -0.57700
I 	I 	0.87255 0.67479 0.67479 -0.57700
I 	I 	0.17479 0.37255 0.77787 -0.57700
I 	I 	0.17479 0.37255 0.67479 -0.57700
I 	I 	0.27787 0.67479 0.37255 -0.57700
I 	I 	0.87255 0.67479 0.77787 -0.57700
I 	I 	0.17479 0.77787 0.67479 -0.57700
I 	I 	0.17479 0.67479 0.77787 -0.57700
I 	I 	0.27787 0.37255 0.67479 -0.57700
I 	I 	0.87255 0.77787 0.67479 -0.57700
I 	I 	0.17479 0.67479 0.37255 -0.57700
I 	I 	0.72213 0.32521 0.62745 -0.57700
I 	I 	0.82521 0.22213 0.32521 -0.57700
I 	I 	0.82521 0.62745 0.32521 -0.57700
I 	I 	0.12745 0.32521 0.22213 -0.57700
I 	I 	0.12745 0.32521 0.32521 -0.57700
I 	I 	0.82521 0.22213 0.62745 -0.57700
I 	I 	0.82521 0.62745 0.22213 -0.57700
I 	I 	0.72213 0.32521 0.32521 -0.57700
I 	I 	0.82521 0.32521 0.22213 -0.57700
I 	I 	0.12745 0.22213 0.32521 -0.57700
I 	I 	0.72213 0.62745 0.32521 -0.57700
I 	I 	0.82521 0.32521 0.62745 -0.57700
I 	I 	0.05820 0.86992 0.20196 -0.57900
I 	I 	0.93357 0.91263 0.24117 -0.59700
I 	I 	0.36992 0.55820 0.86992 -0.57900
I 	I 	0.41263 0.43357 0.91263 -0.59700
I 	I 	0.70196 0.86992 0.55820 -0.57900
I 	I 	0.74117 0.91263 0.43357 -0.59700
I 	I 	0.36992 0.20196 0.86992 -0.57900
I 	I 	0.41263 0.24117 0.91263 -0.59700
I 	I 	0.05820 0.20196 0.86992 -0.57900
I 	I 	0.93357 0.24117 0.91263 -0.59700
I 	I 	0.36992 0.86992 0.20196 -0.57900
I 	I 	0.41263 0.91263 0.24117 -0.59700
I 	I 	0.70196 0.55820 0.86992 -0.57900
I 	I 	0.74117 0.43357 0.91263 -0.59700
I 	I 	0.36992 0.86992 0.55820 -0.57900
I 	I 	0.41263 0.91263 0.43357 -0.59700
I 	I 	0.05820 0.86992 0.86992 -0.57900
I 	I 	0.93357 0.91263 0.91263 -0.59700
I 	I 	0.36992 0.20196 0.55820 -0.57900
I 	I 	0.41263 0.24117 0.43357 -0.59700
I 	I 	0.70196 0.86992 0.86992 -0.57900
I 	I 	0.74117 0.91263 0.91263 -0.59700
I 	I 	0.36992 0.55820 0.20196 -0.57900
I 	I 	0.41263 0.43357 0.24117 -0.59700
I 	I 	0.63008 0.44180 0.79804 -0.57900
I 	I 	0.58737 0.56643 0.75883 -0.59700
I 	I 	0.94180 0.13008 0.13008 -0.57900
I 	I 	0.06643 0.08737 0.08737 -0.59700
I 	I 	0.63008 0.79804 0.44180 -0.57900
I 	I 	0.58737 0.75883 0.56643 -0.59700
I 	I 	0.29804 0.13008 0.13008 -0.57900
I 	I 	0.25883 0.08737 0.08737 -0.59700
I 	I 	0.29804 0.44180 0.13008 -0.57900
I 	I 	0.25883 0.56643 0.08737 -0.59700
I 	I 	0.63008 0.13008 0.79804 -0.57900
I 	I 	0.58737 0.08737 0.75883 -0.59700
I 	I 	0.94180 0.79804 0.13008 -0.57900
I 	I 	0.06643 0.75883 0.08737 -0.59700
I 	I 	0.63008 0.13008 0.44180 -0.57900
I 	I 	0.58737 0.08737 0.56643 -0.59700
I 	I 	0.63008 0.44180 0.13008 -0.57900
I 	I 	0.58737 0.56643 0.08737 -0.59700
I 	I 	0.29804 0.13008 0.44180 -0.57900
I 	I 	0.25883 0.08737 0.56643 -0.59700
I 	I 	0.63008 0.79804 0.13008 -0.57900
I 	I 	0.58737 0.75883 0.08737 -0.59700
I 	I 	0.94180 0.13008 0.79804 -0.57900
I 	I 	0.06643 0.08737 0.75883 -0.59700
N 	N 	0.99830 0.82590 0.20790 -0.16900
N 	N 	0.32590 0.49830 0.96790 -0.16900
N 	N 	0.70790 0.96790 0.49830 -0.16900
N 	N 	0.46790 0.20790 0.82590 -0.16900
N 	N 	0.99830 0.20790 0.96790 -0.16900
N 	N 	0.32590 0.96790 0.20790 -0.16900
N 	N 	0.70790 0.49830 0.82590 -0.16900
N 	N 	0.46790 0.82590 0.49830 -0.16900
N 	N 	0.99830 0.96790 0.82590 -0.16900
N 	N 	0.32590 0.20790 0.49830 -0.16900
N 	N 	0.70790 0.82590 0.96790 -0.16900
N 	N 	0.46790 0.49830 0.20790 -0.16900
N 	N 	0.67410 0.50170 0.79210 -0.16900
N 	N 	0.00170 0.17410 0.03210 -0.16900
N 	N 	0.53210 0.79210 0.50170 -0.16900
N 	N 	0.29210 0.03210 0.17410 -0.16900
N 	N 	0.29210 0.50170 0.03210 -0.16900
N 	N 	0.53210 0.17410 0.79210 -0.16900
N 	N 	0.00170 0.79210 0.17410 -0.16900
N 	N 	0.67410 0.03210 0.50170 -0.16900
N 	N 	0.53210 0.50170 0.17410 -0.16900
N 	N 	0.29210 0.17410 0.50170 -0.16900
N 	N 	0.67410 0.79210 0.03210 -0.16900
N 	N 	0.00170 0.03210 0.79210 -0.16900
N 	N 	0.00170 0.17410 0.79210 -0.16900
N 	N 	0.67410 0.50170 0.03210 -0.16900
N 	N 	0.29210 0.03210 0.50170 -0.16900
N 	N 	0.53210 0.79210 0.17410 -0.16900
N 	N 	0.00170 0.79210 0.03210 -0.16900
N 	N 	0.67410 0.03210 0.79210 -0.16900
N 	N 	0.29210 0.50170 0.17410 -0.16900
N 	N 	0.53210 0.17410 0.50170 -0.16900
N 	N 	0.00170 0.03210 0.17410 -0.16900
N 	N 	0.67410 0.79210 0.50170 -0.16900
N 	N 	0.29210 0.17410 0.03210 -0.16900
N 	N 	0.53210 0.50170 0.79210 -0.16900
N 	N 	0.32590 0.49830 0.20790 -0.16900
N 	N 	0.99830 0.82590 0.96790 -0.16900
N 	N 	0.46790 0.20790 0.49830 -0.16900
N 	N 	0.70790 0.96790 0.82590 -0.16900
N 	N 	0.70790 0.49830 0.96790 -0.16900
N 	N 	0.46790 0.82590 0.20790 -0.16900
N 	N 	0.99830 0.20790 0.82590 -0.16900
N 	N 	0.32590 0.96790 0.49830 -0.16900
N 	N 	0.46790 0.49830 0.82590 -0.16900
N 	N 	0.70790 0.82590 0.49830 -0.16900
N 	N 	0.32590 0.20790 0.96790 -0.16900
N 	N 	0.99830 0.96790 0.20790 -0.16900
N 	N 	0.15940 0.65940 0.52180 -0.16900
N 	N 	0.18400 0.68400 0.44800 -0.18300
N 	N 	0.15940 0.65940 0.65940 -0.16900
N 	N 	0.18400 0.68400 0.68400 -0.18300
N 	N 	0.02180 0.65940 0.65940 -0.16900
N 	N 	0.94800 0.68400 0.68400 -0.18300
N 	N 	0.15940 0.52180 0.65940 -0.16900
N 	N 	0.18400 0.44800 0.68400 -0.18300
N 	N 	0.84060 0.34060 0.47820 -0.16900
N 	N 	0.81600 0.31600 0.55200 -0.18300
N 	N 	0.84060 0.34060 0.34060 -0.16900
N 	N 	0.81600 0.31600 0.31600 -0.18300
N 	N 	0.84060 0.47820 0.34060 -0.16900
N 	N 	0.81600 0.55200 0.31600 -0.18300
N 	N 	0.97820 0.34060 0.34060 -0.16900
N 	N 	0.05200 0.31600 0.31600 -0.18300
N 	N 	0.13730 0.77570 0.31130 -0.16300
N 	N 	0.07890 0.81590 0.28930 -0.18200
N 	N 	0.90740 0.87280 0.34700 -0.18400
N 	N 	0.27570 0.63730 0.77570 -0.16300
N 	N 	0.31590 0.57890 0.81590 -0.18200
N 	N 	0.37280 0.40740 0.87280 -0.18400
N 	N 	0.81130 0.77570 0.63730 -0.16300
N 	N 	0.78930 0.81590 0.57890 -0.18200
N 	N 	0.84700 0.87280 0.40740 -0.18400
N 	N 	0.27570 0.31130 0.77570 -0.16300
N 	N 	0.31590 0.28930 0.81590 -0.18200
N 	N 	0.37280 0.34700 0.87280 -0.18400
N 	N 	0.13730 0.31130 0.77570 -0.16300
N 	N 	0.07890 0.28930 0.81590 -0.18200
N 	N 	0.90740 0.34700 0.87280 -0.18400
N 	N 	0.27570 0.77570 0.31130 -0.16300
N 	N 	0.31590 0.81590 0.28930 -0.18200
N 	N 	0.37280 0.87280 0.34700 -0.18400
N 	N 	0.81130 0.63730 0.77570 -0.16300
N 	N 	0.78930 0.57890 0.81590 -0.18200
N 	N 	0.84700 0.40740 0.87280 -0.18400
N 	N 	0.27570 0.77570 0.63730 -0.16300
N 	N 	0.31590 0.81590 0.57890 -0.18200
N 	N 	0.37280 0.87280 0.40740 -0.18400
N 	N 	0.13730 0.77570 0.77570 -0.16300
N 	N 	0.07890 0.81590 0.81590 -0.18200
N 	N 	0.90740 0.87280 0.87280 -0.18400
N 	N 	0.27570 0.31130 0.63730 -0.16300
N 	N 	0.31590 0.28930 0.57890 -0.18200
N 	N 	0.37280 0.34700 0.40740 -0.18400
N 	N 	0.81130 0.77570 0.77570 -0.16300
N 	N 	0.78930 0.81590 0.81590 -0.18200
N 	N 	0.84700 0.87280 0.87280 -0.18400
N 	N 	0.27570 0.63730 0.31130 -0.16300
N 	N 	0.31590 0.57890 0.28930 -0.18200
N 	N 	0.37280 0.40740 0.34700 -0.18400
N 	N 	0.72430 0.36270 0.68870 -0.16300
N 	N 	0.68410 0.42110 0.71070 -0.18200
N 	N 	0.62720 0.59260 0.65300 -0.18400
N 	N 	0.86270 0.22430 0.22430 -0.16300
N 	N 	0.92110 0.18410 0.18410 -0.18200
N 	N 	0.09260 0.12720 0.12720 -0.18400
N 	N 	0.72430 0.68870 0.36270 -0.16300
N 	N 	0.68410 0.71070 0.42110 -0.18200
N 	N 	0.62720 0.65300 0.59260 -0.18400
N 	N 	0.18870 0.22430 0.22430 -0.16300
N 	N 	0.21070 0.18410 0.18410 -0.18200
N 	N 	0.15300 0.12720 0.12720 -0.18400
N 	N 	0.18870 0.36270 0.22430 -0.16300
N 	N 	0.21070 0.42110 0.18410 -0.18200
N 	N 	0.15300 0.59260 0.12720 -0.18400
N 	N 	0.72430 0.22430 0.68870 -0.16300
N 	N 	0.68410 0.18410 0.71070 -0.18200
N 	N 	0.62720 0.12720 0.65300 -0.18400
N 	N 	0.86270 0.68870 0.22430 -0.16300
N 	N 	0.92110 0.71070 0.18410 -0.18200
N 	N 	0.09260 0.65300 0.12720 -0.18400
N 	N 	0.72430 0.22430 0.36270 -0.16300
N 	N 	0.68410 0.18410 0.42110 -0.18200
N 	N 	0.62720 0.12720 0.59260 -0.18400
N 	N 	0.72430 0.36270 0.22430 -0.16300
N 	N 	0.68410 0.42110 0.18410 -0.18200
N 	N 	0.62720 0.59260 0.12720 -0.18400
N 	N 	0.18870 0.22430 0.36270 -0.16300
N 	N 	0.21070 0.18410 0.42110 -0.18200
N 	N 	0.15300 0.12720 0.59260 -0.18400
N 	N 	0.72430 0.68870 0.22430 -0.16300
N 	N 	0.68410 0.71070 0.18410 -0.18200
N 	N 	0.62720 0.65300 0.12720 -0.18400
N 	N 	0.86270 0.22430 0.68870 -0.16300
N 	N 	0.92110 0.18410 0.71070 -0.18200
N 	N 	0.09260 0.12720 0.65300 -0.18400
