data_crystal

_cell_length_a 30.88710
_cell_length_b 30.88710
_cell_length_c 30.88710
_cell_angle_alpha 90.00000
_cell_angle_beta  90.00000
_cell_angle_gamma 90.00000

_symmetry_space_group_name_	'P 1'
_symmetry_space_group_name_H-M	'P 1'

loop_
_symmetry_equiv_pos_as_xyz
  x,y,z

loop_
_atom_site_label
_atom_site_type_symbol
_atom_site_fract_x
_atom_site_fract_y
_atom_site_fract_z
_atom_site_charge
N 	N 	0.77010 0.61380 0.03550 -0.28600
N 	N 	0.80870 0.61950 0.14070 -0.27100
C 	C 	0.80580 0.63230 0.02240 0.00700
H 	H 	0.82740 0.64350 0.04010 -0.00500
H 	H 	0.68970 0.62730 0.02560 0.05600
H 	H 	0.69160 0.55010 0.02540 0.01300
C 	C 	0.84890 0.61150 0.11930 -0.02700
H 	H 	0.85310 0.60720 0.08980 0.00500
H 	H 	0.76210 0.64220 0.20120 0.02100
H 	H 	0.80320 0.56480 0.23290 0.13200
H 	H 	0.72180 0.54800 0.97450 0.04000
H 	H 	0.66740 0.60260 0.97460 0.00200
H 	H 	0.82300 0.55200 0.21290 -0.03400
H 	H 	0.75540 0.55280 0.24720 -0.01700
H 	H 	0.77790 0.59720 0.25660 -0.00100
H 	H 	0.74170 0.59420 0.22120 0.02100
C 	C 	0.15720 0.36610 0.33570 -0.01600
H 	H 	0.17780 0.38780 0.33230 0.00100
N 	N 	0.27010 0.11380 0.53550 -0.28300
N 	N 	0.30870 0.11950 0.64070 -0.27100
C 	C 	0.30580 0.13230 0.52240 -0.00600
H 	H 	0.32740 0.14350 0.54010 -0.00000
H 	H 	0.18970 0.12730 0.52560 0.05800
H 	H 	0.19160 0.05010 0.52540 0.01600
C 	C 	0.34890 0.11150 0.61930 -0.02600
H 	H 	0.35310 0.10720 0.58980 0.00600
H 	H 	0.26210 0.14220 0.70120 0.02100
H 	H 	0.30320 0.06480 0.73290 0.13400
H 	H 	0.22180 0.04800 0.47450 0.04600
H 	H 	0.16740 0.10260 0.47460 0.00700
H 	H 	0.32300 0.05200 0.71290 -0.03300
H 	H 	0.25540 0.05280 0.74720 -0.01600
H 	H 	0.27790 0.09720 0.75660 -0.00000
H 	H 	0.24170 0.09420 0.72120 0.02300
C 	C 	0.65720 0.86610 0.83570 -0.01500
H 	H 	0.67780 0.88780 0.83230 0.00100
N 	N 	0.22990 0.38620 0.03550 -0.28500
N 	N 	0.19130 0.38050 0.14070 -0.27000
C 	C 	0.19420 0.36770 0.02240 0.00800
H 	H 	0.17260 0.35650 0.04010 -0.00300
H 	H 	0.31030 0.37270 0.02560 0.05700
H 	H 	0.30840 0.44990 0.02540 0.01400
C 	C 	0.15110 0.38850 0.11930 -0.02600
H 	H 	0.14690 0.39280 0.08980 0.00600
H 	H 	0.23790 0.35780 0.20120 0.02200
H 	H 	0.19680 0.43520 0.23290 0.13300
H 	H 	0.27820 0.45200 0.97450 0.04100
H 	H 	0.33260 0.39740 0.97460 0.00300
H 	H 	0.17700 0.44800 0.21290 -0.03400
H 	H 	0.24460 0.44720 0.24720 -0.01600
H 	H 	0.22210 0.40280 0.25660 -0.00000
H 	H 	0.25830 0.40580 0.22120 0.02200
C 	C 	0.84280 0.63390 0.33570 -0.01400
H 	H 	0.82220 0.61220 0.33230 0.00200
N 	N 	0.72990 0.88620 0.53550 -0.28300
N 	N 	0.69130 0.88050 0.64070 -0.27000
C 	C 	0.69420 0.86770 0.52240 -0.00500
H 	H 	0.67260 0.85650 0.54010 -0.00100
H 	H 	0.81030 0.87270 0.52560 0.05900
H 	H 	0.80840 0.94990 0.52540 0.01400
C 	C 	0.65110 0.88850 0.61930 -0.02600
H 	H 	0.64690 0.89280 0.58980 0.00500
H 	H 	0.73790 0.85780 0.70120 0.02200
H 	H 	0.69680 0.93520 0.73290 0.13200
H 	H 	0.77820 0.95200 0.47450 0.04500
H 	H 	0.83260 0.89740 0.47460 0.00700
H 	H 	0.67700 0.94800 0.71290 -0.03400
H 	H 	0.74460 0.94720 0.74720 -0.01700
H 	H 	0.72210 0.90280 0.75660 -0.00100
H 	H 	0.75830 0.90580 0.72120 0.02200
C 	C 	0.34280 0.13390 0.83570 -0.01400
H 	H 	0.32220 0.11220 0.83230 0.00200
N 	N 	0.22990 0.61380 0.96450 -0.28300
N 	N 	0.19130 0.61950 0.85930 -0.27000
C 	C 	0.19420 0.63230 0.97760 -0.01800
H 	H 	0.17260 0.64350 0.95990 0.00300
H 	H 	0.31030 0.62730 0.97440 0.05400
H 	H 	0.30840 0.55010 0.97460 0.01100
C 	C 	0.15110 0.61150 0.88070 -0.02600
H 	H 	0.14690 0.60720 0.91020 0.00500
H 	H 	0.23790 0.64220 0.79880 0.02200
H 	H 	0.19680 0.56480 0.76710 0.13300
H 	H 	0.27820 0.54800 0.02550 0.04500
H 	H 	0.33260 0.60260 0.02540 0.00600
H 	H 	0.17700 0.55200 0.78710 -0.03300
H 	H 	0.24460 0.55280 0.75280 -0.01600
H 	H 	0.22210 0.59720 0.74340 -0.00000
H 	H 	0.25830 0.59420 0.77880 0.02200
C 	C 	0.84280 0.36610 0.66430 -0.01400
H 	H 	0.82220 0.38780 0.66770 0.00200
N 	N 	0.72990 0.11380 0.46450 -0.28300
N 	N 	0.69130 0.11950 0.35930 -0.27000
C 	C 	0.69420 0.13230 0.47760 -0.00500
H 	H 	0.67260 0.14350 0.45990 -0.00000
H 	H 	0.81030 0.12730 0.47440 0.05800
H 	H 	0.80840 0.05010 0.47460 0.01600
C 	C 	0.65110 0.11150 0.38070 -0.02600
H 	H 	0.64690 0.10720 0.41020 0.00600
H 	H 	0.73790 0.14220 0.29880 0.02100
H 	H 	0.69680 0.06480 0.26710 0.13400
H 	H 	0.77820 0.04800 0.52550 0.04700
H 	H 	0.83260 0.10260 0.52540 0.00700
H 	H 	0.67700 0.05200 0.28710 -0.03300
H 	H 	0.74460 0.05280 0.25280 -0.01600
H 	H 	0.72210 0.09720 0.24340 -0.00000
H 	H 	0.75830 0.09420 0.27880 0.02300
C 	C 	0.34280 0.86610 0.16430 -0.01400
H 	H 	0.32220 0.88780 0.16770 0.00200
N 	N 	0.77010 0.38620 0.96450 -0.28300
N 	N 	0.80870 0.38050 0.85930 -0.27000
C 	C 	0.80580 0.36770 0.97760 -0.01800
H 	H 	0.82740 0.35650 0.95990 0.00200
H 	H 	0.68970 0.37270 0.97440 0.05400
H 	H 	0.69160 0.44990 0.97460 0.01100
C 	C 	0.84890 0.38850 0.88070 -0.02600
H 	H 	0.85310 0.39280 0.91020 0.00400
H 	H 	0.76210 0.35780 0.79880 0.02200
H 	H 	0.80320 0.43520 0.76710 0.13300
H 	H 	0.72180 0.45200 0.02550 0.04400
H 	H 	0.66740 0.39740 0.02540 0.00600
H 	H 	0.82300 0.44800 0.78710 -0.03300
H 	H 	0.75540 0.44720 0.75280 -0.01600
H 	H 	0.77790 0.40280 0.74340 -0.00000
H 	H 	0.74170 0.40580 0.77880 0.02200
C 	C 	0.15720 0.63390 0.66430 -0.01400
H 	H 	0.17780 0.61220 0.66770 0.00200
N 	N 	0.27010 0.88620 0.46450 -0.28200
N 	N 	0.30870 0.88050 0.35930 -0.27100
C 	C 	0.30580 0.86770 0.47760 -0.00500
H 	H 	0.32740 0.85650 0.45990 -0.00100
H 	H 	0.18970 0.87270 0.47440 0.05900
H 	H 	0.19160 0.94990 0.47460 0.01400
C 	C 	0.34890 0.88850 0.38070 -0.02600
H 	H 	0.35310 0.89280 0.41020 0.00500
H 	H 	0.26210 0.85780 0.29880 0.02200
H 	H 	0.30320 0.93520 0.26710 0.13100
H 	H 	0.22180 0.95200 0.52550 0.04400
H 	H 	0.16740 0.89740 0.52540 0.00700
H 	H 	0.32300 0.94800 0.28710 -0.03300
H 	H 	0.25540 0.94720 0.25280 -0.01700
H 	H 	0.27790 0.90280 0.24340 -0.00100
H 	H 	0.24170 0.90580 0.27880 0.02200
C 	C 	0.65720 0.13390 0.16430 -0.01400
H 	H 	0.67780 0.11220 0.16770 0.00300
N 	N 	0.03550 0.77010 0.61380 -0.28500
N 	N 	0.14070 0.80870 0.61950 -0.27000
C 	C 	0.02240 0.80580 0.63230 0.00800
H 	H 	0.04010 0.82740 0.64350 -0.00400
H 	H 	0.02560 0.68970 0.62730 0.05700
H 	H 	0.02540 0.69160 0.55010 0.01400
C 	C 	0.11930 0.84890 0.61150 -0.02600
H 	H 	0.08980 0.85310 0.60720 0.00600
H 	H 	0.20120 0.76210 0.64220 0.02200
H 	H 	0.23290 0.80320 0.56480 0.13300
H 	H 	0.97450 0.72180 0.54800 0.04100
H 	H 	0.97460 0.66740 0.60260 0.00300
H 	H 	0.21290 0.82300 0.55200 -0.03300
H 	H 	0.24720 0.75540 0.55280 -0.01600
H 	H 	0.25660 0.77790 0.59720 -0.00000
H 	H 	0.22120 0.74170 0.59420 0.02200
C 	C 	0.33570 0.15720 0.36610 -0.01500
H 	H 	0.33230 0.17780 0.38780 0.00200
N 	N 	0.53550 0.27010 0.11380 -0.28200
N 	N 	0.64070 0.30870 0.11950 -0.27000
C 	C 	0.52240 0.30580 0.13230 -0.00500
H 	H 	0.54010 0.32740 0.14350 -0.00000
H 	H 	0.52560 0.18970 0.12730 0.05800
H 	H 	0.52540 0.19160 0.05010 0.01600
C 	C 	0.61930 0.34890 0.11150 -0.02600
H 	H 	0.58980 0.35310 0.10720 0.00600
H 	H 	0.70120 0.26210 0.14220 0.02100
H 	H 	0.73290 0.30320 0.06480 0.13400
H 	H 	0.47450 0.22180 0.04800 0.04600
H 	H 	0.47460 0.16740 0.10260 0.00700
H 	H 	0.71290 0.32300 0.05200 -0.03300
H 	H 	0.74720 0.25540 0.05280 -0.01600
H 	H 	0.75660 0.27790 0.09720 -0.00000
H 	H 	0.72120 0.24170 0.09420 0.02300
C 	C 	0.83570 0.65720 0.86610 -0.01500
H 	H 	0.83230 0.67780 0.88780 0.00100
N 	N 	0.03550 0.22990 0.38620 -0.28500
N 	N 	0.14070 0.19130 0.38050 -0.27000
C 	C 	0.02240 0.19420 0.36770 0.00800
H 	H 	0.04010 0.17260 0.35650 -0.00300
H 	H 	0.02560 0.31030 0.37270 0.05700
H 	H 	0.02540 0.30840 0.44990 0.01400
C 	C 	0.11930 0.15110 0.38850 -0.02600
H 	H 	0.08980 0.14690 0.39280 0.00600
H 	H 	0.20120 0.23790 0.35780 0.02200
H 	H 	0.23290 0.19680 0.43520 0.13300
H 	H 	0.97450 0.27820 0.45200 0.04100
H 	H 	0.97460 0.33260 0.39740 0.00300
H 	H 	0.21290 0.17700 0.44800 -0.03400
H 	H 	0.24720 0.24460 0.44720 -0.01600
H 	H 	0.25660 0.22210 0.40280 -0.00000
H 	H 	0.22120 0.25830 0.40580 0.02200
C 	C 	0.33570 0.84280 0.63390 -0.01400
H 	H 	0.33230 0.82220 0.61220 0.00200
N 	N 	0.53550 0.72990 0.88620 -0.28300
N 	N 	0.64070 0.69130 0.88050 -0.27000
C 	C 	0.52240 0.69420 0.86770 -0.00500
H 	H 	0.54010 0.67260 0.85650 -0.00100
H 	H 	0.52560 0.81030 0.87270 0.05900
H 	H 	0.52540 0.80840 0.94990 0.01400
C 	C 	0.61930 0.65110 0.88850 -0.02600
H 	H 	0.58980 0.64690 0.89280 0.00500
H 	H 	0.70120 0.73790 0.85780 0.02200
H 	H 	0.73290 0.69680 0.93520 0.13200
H 	H 	0.47450 0.77820 0.95200 0.04500
H 	H 	0.47460 0.83260 0.89740 0.00700
H 	H 	0.71290 0.67700 0.94800 -0.03400
H 	H 	0.74720 0.74460 0.94720 -0.01700
H 	H 	0.75660 0.72210 0.90280 -0.00100
H 	H 	0.72120 0.75830 0.90580 0.02200
C 	C 	0.83570 0.34280 0.13390 -0.01400
H 	H 	0.83230 0.32220 0.11220 0.00200
N 	N 	0.96450 0.22990 0.61380 -0.28300
N 	N 	0.85930 0.19130 0.61950 -0.27000
C 	C 	0.97760 0.19420 0.63230 -0.01800
H 	H 	0.95990 0.17260 0.64350 0.00300
H 	H 	0.97440 0.31030 0.62730 0.05400
H 	H 	0.97460 0.30840 0.55010 0.01100
C 	C 	0.88070 0.15110 0.61150 -0.02600
H 	H 	0.91020 0.14690 0.60720 0.00500
H 	H 	0.79880 0.23790 0.64220 0.02200
H 	H 	0.76710 0.19680 0.56480 0.13300
H 	H 	0.02550 0.27820 0.54800 0.04500
H 	H 	0.02540 0.33260 0.60260 0.00600
H 	H 	0.78710 0.17700 0.55200 -0.03300
H 	H 	0.75280 0.24460 0.55280 -0.01600
H 	H 	0.74340 0.22210 0.59720 -0.00000
H 	H 	0.77880 0.25830 0.59420 0.02200
C 	C 	0.66430 0.84280 0.36610 -0.01400
H 	H 	0.66770 0.82220 0.38780 0.00200
N 	N 	0.46450 0.72990 0.11380 -0.28300
N 	N 	0.35930 0.69130 0.11950 -0.27000
C 	C 	0.47760 0.69420 0.13230 -0.00500
H 	H 	0.45990 0.67260 0.14350 -0.00000
H 	H 	0.47440 0.81030 0.12730 0.05800
H 	H 	0.47460 0.80840 0.05010 0.01600
C 	C 	0.38070 0.65110 0.11150 -0.02600
H 	H 	0.41020 0.64690 0.10720 0.00600
H 	H 	0.29880 0.73790 0.14220 0.02100
H 	H 	0.26710 0.69680 0.06480 0.13400
H 	H 	0.52550 0.77820 0.04800 0.04700
H 	H 	0.52540 0.83260 0.10260 0.00700
H 	H 	0.28710 0.67700 0.05200 -0.03300
H 	H 	0.25280 0.74460 0.05280 -0.01600
H 	H 	0.24340 0.72210 0.09720 -0.00000
H 	H 	0.27880 0.75830 0.09420 0.02300
C 	C 	0.16430 0.34280 0.86610 -0.01400
H 	H 	0.16770 0.32220 0.88780 0.00200
N 	N 	0.96450 0.77010 0.38620 -0.28300
N 	N 	0.85930 0.80870 0.38050 -0.27000
C 	C 	0.97760 0.80580 0.36770 -0.01800
H 	H 	0.95990 0.82740 0.35650 0.00200
H 	H 	0.97440 0.68970 0.37270 0.05400
H 	H 	0.97460 0.69160 0.44990 0.01100
C 	C 	0.88070 0.84890 0.38850 -0.02600
H 	H 	0.91020 0.85310 0.39280 0.00400
H 	H 	0.79880 0.76210 0.35780 0.02200
H 	H 	0.76710 0.80320 0.43520 0.13300
H 	H 	0.02550 0.72180 0.45200 0.04400
H 	H 	0.02540 0.66740 0.39740 0.00600
H 	H 	0.78710 0.82300 0.44800 -0.03300
H 	H 	0.75280 0.75540 0.44720 -0.01600
H 	H 	0.74340 0.77790 0.40280 -0.00000
H 	H 	0.77880 0.74170 0.40580 0.02200
C 	C 	0.66430 0.15720 0.63390 -0.01400
H 	H 	0.66770 0.17780 0.61220 0.00200
N 	N 	0.46450 0.27010 0.88620 -0.28200
N 	N 	0.35930 0.30870 0.88050 -0.27100
C 	C 	0.47760 0.30580 0.86770 -0.00500
H 	H 	0.45990 0.32740 0.85650 -0.00100
H 	H 	0.47440 0.18970 0.87270 0.05900
H 	H 	0.47460 0.19160 0.94990 0.01400
C 	C 	0.38070 0.34890 0.88850 -0.02600
H 	H 	0.41020 0.35310 0.89280 0.00500
H 	H 	0.29880 0.26210 0.85780 0.02200
H 	H 	0.26710 0.30320 0.93520 0.13100
H 	H 	0.52550 0.22180 0.95200 0.04400
H 	H 	0.52540 0.16740 0.89740 0.00700
H 	H 	0.28710 0.32300 0.94800 -0.03300
H 	H 	0.25280 0.25540 0.94720 -0.01700
H 	H 	0.24340 0.27790 0.90280 -0.00100
H 	H 	0.27880 0.24170 0.90580 0.02200
C 	C 	0.16430 0.65720 0.13390 -0.01400
H 	H 	0.16770 0.67780 0.11220 0.00300
N 	N 	0.61380 0.03550 0.77010 -0.28500
N 	N 	0.61950 0.14070 0.80870 -0.27000
C 	C 	0.63230 0.02240 0.80580 0.00800
H 	H 	0.64350 0.04010 0.82740 -0.00400
H 	H 	0.62730 0.02560 0.68970 0.05700
H 	H 	0.55010 0.02540 0.69160 0.01400
C 	C 	0.61150 0.11930 0.84890 -0.02600
H 	H 	0.60720 0.08980 0.85310 0.00600
H 	H 	0.64220 0.20120 0.76210 0.02200
H 	H 	0.56480 0.23290 0.80320 0.13300
H 	H 	0.54800 0.97450 0.72180 0.04100
H 	H 	0.60260 0.97460 0.66740 0.00300
H 	H 	0.55200 0.21290 0.82300 -0.03300
H 	H 	0.55280 0.24720 0.75540 -0.01600
H 	H 	0.59720 0.25660 0.77790 -0.00000
H 	H 	0.59420 0.22120 0.74170 0.02200
C 	C 	0.36610 0.33570 0.15720 -0.01500
H 	H 	0.38780 0.33230 0.17780 0.00200
N 	N 	0.11380 0.53550 0.27010 -0.28200
N 	N 	0.11950 0.64070 0.30870 -0.27000
C 	C 	0.13230 0.52240 0.30580 -0.00500
H 	H 	0.14350 0.54010 0.32740 -0.00000
H 	H 	0.12730 0.52560 0.18970 0.05800
H 	H 	0.05010 0.52540 0.19160 0.01600
C 	C 	0.11150 0.61930 0.34890 -0.02600
H 	H 	0.10720 0.58980 0.35310 0.00600
H 	H 	0.14220 0.70120 0.26210 0.02100
H 	H 	0.06480 0.73290 0.30320 0.13400
H 	H 	0.04800 0.47450 0.22180 0.04600
H 	H 	0.10260 0.47460 0.16740 0.00700
H 	H 	0.05200 0.71290 0.32300 -0.03300
H 	H 	0.05280 0.74720 0.25540 -0.01600
H 	H 	0.09720 0.75660 0.27790 -0.00000
H 	H 	0.09420 0.72120 0.24170 0.02300
C 	C 	0.86610 0.83570 0.65720 -0.01500
H 	H 	0.88780 0.83230 0.67780 0.00100
N 	N 	0.38620 0.03550 0.22990 -0.28500
N 	N 	0.38050 0.14070 0.19130 -0.27000
C 	C 	0.36770 0.02240 0.19420 0.00800
H 	H 	0.35650 0.04010 0.17260 -0.00300
H 	H 	0.37270 0.02560 0.31030 0.05700
H 	H 	0.44990 0.02540 0.30840 0.01400
C 	C 	0.38850 0.11930 0.15110 -0.02600
H 	H 	0.39280 0.08980 0.14690 0.00600
H 	H 	0.35780 0.20120 0.23790 0.02200
H 	H 	0.43520 0.23290 0.19680 0.13300
H 	H 	0.45200 0.97450 0.27820 0.04100
H 	H 	0.39740 0.97460 0.33260 0.00300
H 	H 	0.44800 0.21290 0.17700 -0.03400
H 	H 	0.44720 0.24720 0.24460 -0.01600
H 	H 	0.40280 0.25660 0.22210 -0.00000
H 	H 	0.40580 0.22120 0.25830 0.02200
C 	C 	0.63390 0.33570 0.84280 -0.01400
H 	H 	0.61220 0.33230 0.82220 0.00200
N 	N 	0.88620 0.53550 0.72990 -0.28300
N 	N 	0.88050 0.64070 0.69130 -0.27000
C 	C 	0.86770 0.52240 0.69420 -0.00500
H 	H 	0.85650 0.54010 0.67260 -0.00100
H 	H 	0.87270 0.52560 0.81030 0.05900
H 	H 	0.94990 0.52540 0.80840 0.01400
C 	C 	0.88850 0.61930 0.65110 -0.02600
H 	H 	0.89280 0.58980 0.64690 0.00500
H 	H 	0.85780 0.70120 0.73790 0.02200
H 	H 	0.93520 0.73290 0.69680 0.13200
H 	H 	0.95200 0.47450 0.77820 0.04500
H 	H 	0.89740 0.47460 0.83260 0.00700
H 	H 	0.94800 0.71290 0.67700 -0.03400
H 	H 	0.94720 0.74720 0.74460 -0.01700
H 	H 	0.90280 0.75660 0.72210 -0.00100
H 	H 	0.90580 0.72120 0.75830 0.02200
C 	C 	0.13390 0.83570 0.34280 -0.01400
H 	H 	0.11220 0.83230 0.32220 0.00200
N 	N 	0.61380 0.96450 0.22990 -0.28300
N 	N 	0.61950 0.85930 0.19130 -0.27000
C 	C 	0.63230 0.97760 0.19420 -0.01800
H 	H 	0.64350 0.95990 0.17260 0.00300
H 	H 	0.62730 0.97440 0.31030 0.05400
H 	H 	0.55010 0.97460 0.30840 0.01100
C 	C 	0.61150 0.88070 0.15110 -0.02600
H 	H 	0.60720 0.91020 0.14690 0.00500
H 	H 	0.64220 0.79880 0.23790 0.02200
H 	H 	0.56480 0.76710 0.19680 0.13300
H 	H 	0.54800 0.02550 0.27820 0.04500
H 	H 	0.60260 0.02540 0.33260 0.00600
H 	H 	0.55200 0.78710 0.17700 -0.03300
H 	H 	0.55280 0.75280 0.24460 -0.01600
H 	H 	0.59720 0.74340 0.22210 -0.00000
H 	H 	0.59420 0.77880 0.25830 0.02200
C 	C 	0.36610 0.66430 0.84280 -0.01400
H 	H 	0.38780 0.66770 0.82220 0.00200
N 	N 	0.11380 0.46450 0.72990 -0.28300
N 	N 	0.11950 0.35930 0.69130 -0.27000
C 	C 	0.13230 0.47760 0.69420 -0.00500
H 	H 	0.14350 0.45990 0.67260 -0.00000
H 	H 	0.12730 0.47440 0.81030 0.05800
H 	H 	0.05010 0.47460 0.80840 0.01600
C 	C 	0.11150 0.38070 0.65110 -0.02600
H 	H 	0.10720 0.41020 0.64690 0.00600
H 	H 	0.14220 0.29880 0.73790 0.02100
H 	H 	0.06480 0.26710 0.69680 0.13400
H 	H 	0.04800 0.52550 0.77820 0.04700
H 	H 	0.10260 0.52540 0.83260 0.00700
H 	H 	0.05200 0.28710 0.67700 -0.03300
H 	H 	0.05280 0.25280 0.74460 -0.01600
H 	H 	0.09720 0.24340 0.72210 -0.00000
H 	H 	0.09420 0.27880 0.75830 0.02300
C 	C 	0.86610 0.16430 0.34280 -0.01400
H 	H 	0.88780 0.16770 0.32220 0.00200
N 	N 	0.38620 0.96450 0.77010 -0.28300
N 	N 	0.38050 0.85930 0.80870 -0.27000
C 	C 	0.36770 0.97760 0.80580 -0.01800
H 	H 	0.35650 0.95990 0.82740 0.00200
H 	H 	0.37270 0.97440 0.68970 0.05400
H 	H 	0.44990 0.97460 0.69160 0.01100
C 	C 	0.38850 0.88070 0.84890 -0.02600
H 	H 	0.39280 0.91020 0.85310 0.00400
H 	H 	0.35780 0.79880 0.76210 0.02200
H 	H 	0.43520 0.76710 0.80320 0.13300
H 	H 	0.45200 0.02550 0.72180 0.04400
H 	H 	0.39740 0.02540 0.66740 0.00600
H 	H 	0.44800 0.78710 0.82300 -0.03300
H 	H 	0.44720 0.75280 0.75540 -0.01600
H 	H 	0.40280 0.74340 0.77790 -0.00000
H 	H 	0.40580 0.77880 0.74170 0.02200
C 	C 	0.63390 0.66430 0.15720 -0.01400
H 	H 	0.61220 0.66770 0.17780 0.00200
N 	N 	0.88620 0.46450 0.27010 -0.28200
N 	N 	0.88050 0.35930 0.30870 -0.27100
C 	C 	0.86770 0.47760 0.30580 -0.00500
H 	H 	0.85650 0.45990 0.32740 -0.00100
H 	H 	0.87270 0.47440 0.18970 0.05900
H 	H 	0.94990 0.47460 0.19160 0.01400
C 	C 	0.88850 0.38070 0.34890 -0.02600
H 	H 	0.89280 0.41020 0.35310 0.00500
H 	H 	0.85780 0.29880 0.26210 0.02200
H 	H 	0.93520 0.26710 0.30320 0.13100
H 	H 	0.95200 0.52550 0.22180 0.04400
H 	H 	0.89740 0.52540 0.16740 0.00700
H 	H 	0.94800 0.28710 0.32300 -0.03300
H 	H 	0.94720 0.25280 0.25540 -0.01700
H 	H 	0.90280 0.24340 0.27790 -0.00100
H 	H 	0.90580 0.27880 0.24170 0.02200
C 	C 	0.13390 0.16430 0.65720 -0.01400
H 	H 	0.11220 0.16770 0.67780 0.00300
N 	N 	0.61380 0.77010 0.96450 -0.28300
N 	N 	0.61950 0.80870 0.85930 -0.27000
C 	C 	0.63230 0.80580 0.97760 -0.01800
H 	H 	0.64350 0.82740 0.95990 0.00200
H 	H 	0.62730 0.68970 0.97440 0.05400
H 	H 	0.55010 0.69160 0.97460 0.01100
C 	C 	0.61150 0.84890 0.88070 -0.02600
H 	H 	0.60720 0.85310 0.91020 0.00400
H 	H 	0.64220 0.76210 0.79880 0.02200
H 	H 	0.56480 0.80320 0.76710 0.13300
H 	H 	0.54800 0.72180 0.02550 0.04400
H 	H 	0.60260 0.66740 0.02540 0.00600
H 	H 	0.55200 0.82300 0.78710 -0.03300
H 	H 	0.55280 0.75540 0.75280 -0.01600
H 	H 	0.59720 0.77790 0.74340 -0.00000
H 	H 	0.59420 0.74170 0.77880 0.02200
C 	C 	0.36610 0.15720 0.66430 -0.01400
H 	H 	0.38780 0.17780 0.66770 0.00200
N 	N 	0.11380 0.27010 0.46450 -0.28200
N 	N 	0.11950 0.30870 0.35930 -0.27000
C 	C 	0.13230 0.30580 0.47760 -0.00500
H 	H 	0.14350 0.32740 0.45990 -0.00000
H 	H 	0.12730 0.18970 0.47440 0.05800
H 	H 	0.05010 0.19160 0.47460 0.01600
C 	C 	0.11150 0.34890 0.38070 -0.02600
H 	H 	0.10720 0.35310 0.41020 0.00600
H 	H 	0.14220 0.26210 0.29880 0.02200
H 	H 	0.06480 0.30320 0.26710 0.13400
H 	H 	0.04800 0.22180 0.52550 0.04600
H 	H 	0.10260 0.16740 0.52540 0.00700
H 	H 	0.05200 0.32300 0.28710 -0.03300
H 	H 	0.05280 0.25540 0.25280 -0.01600
H 	H 	0.09720 0.27790 0.24340 -0.00000
H 	H 	0.09420 0.24170 0.27880 0.02300
C 	C 	0.86610 0.65720 0.16430 -0.01400
H 	H 	0.88780 0.67780 0.16770 0.00200
N 	N 	0.38620 0.22990 0.96450 -0.28300
N 	N 	0.38050 0.19130 0.85930 -0.27000
C 	C 	0.36770 0.19420 0.97760 -0.01800
H 	H 	0.35650 0.17260 0.95990 0.00300
H 	H 	0.37270 0.31030 0.97440 0.05400
H 	H 	0.44990 0.30840 0.97460 0.01100
C 	C 	0.38850 0.15110 0.88070 -0.02600
H 	H 	0.39280 0.14690 0.91020 0.00500
H 	H 	0.35780 0.23790 0.79880 0.02200
H 	H 	0.43520 0.19680 0.76710 0.13300
H 	H 	0.45200 0.27820 0.02550 0.04500
H 	H 	0.39740 0.33260 0.02540 0.00600
H 	H 	0.44800 0.17700 0.78710 -0.03300
H 	H 	0.44720 0.24460 0.75280 -0.01600
H 	H 	0.40280 0.22210 0.74340 -0.00000
H 	H 	0.40580 0.25830 0.77880 0.02200
C 	C 	0.63390 0.84280 0.66430 -0.01400
H 	H 	0.61220 0.82220 0.66770 0.00200
N 	N 	0.88620 0.72990 0.46450 -0.28300
N 	N 	0.88050 0.69130 0.35930 -0.27000
C 	C 	0.86770 0.69420 0.47760 -0.00500
H 	H 	0.85650 0.67260 0.45990 -0.00100
H 	H 	0.87270 0.81030 0.47440 0.05900
H 	H 	0.94990 0.80840 0.47460 0.01400
C 	C 	0.88850 0.65110 0.38070 -0.02600
H 	H 	0.89280 0.64690 0.41020 0.00500
H 	H 	0.85780 0.73790 0.29880 0.02200
H 	H 	0.93520 0.69680 0.26710 0.13200
H 	H 	0.95200 0.77820 0.52550 0.04500
H 	H 	0.89740 0.83260 0.52540 0.00700
H 	H 	0.94800 0.67700 0.28710 -0.03400
H 	H 	0.94720 0.74460 0.25280 -0.01700
H 	H 	0.90280 0.72210 0.24340 -0.00100
H 	H 	0.90580 0.75830 0.27880 0.02200
C 	C 	0.13390 0.34280 0.16430 -0.01400
H 	H 	0.11220 0.32220 0.16770 0.00300
N 	N 	0.61380 0.22990 0.03550 -0.28500
N 	N 	0.61950 0.19130 0.14070 -0.27000
C 	C 	0.63230 0.19420 0.02240 0.00800
H 	H 	0.64350 0.17260 0.04010 -0.00400
H 	H 	0.62730 0.31030 0.02560 0.05700
H 	H 	0.55010 0.30840 0.02540 0.01400
C 	C 	0.61150 0.15110 0.11930 -0.02600
H 	H 	0.60720 0.14690 0.08980 0.00600
H 	H 	0.64220 0.23790 0.20120 0.02200
H 	H 	0.56480 0.19680 0.23290 0.13300
H 	H 	0.54800 0.27820 0.97450 0.04100
H 	H 	0.60260 0.33260 0.97460 0.00300
H 	H 	0.55200 0.17700 0.21290 -0.03400
H 	H 	0.55280 0.24460 0.24720 -0.01600
H 	H 	0.59720 0.22210 0.25660 -0.00000
H 	H 	0.59420 0.25830 0.22120 0.02200
C 	C 	0.36610 0.84280 0.33570 -0.01500
H 	H 	0.38780 0.82220 0.33230 0.00200
N 	N 	0.11380 0.72990 0.53550 -0.28300
N 	N 	0.11950 0.69130 0.64070 -0.27000
C 	C 	0.13230 0.69420 0.52240 -0.00500
H 	H 	0.14350 0.67260 0.54010 -0.00000
H 	H 	0.12730 0.81030 0.52560 0.05800
H 	H 	0.05010 0.80840 0.52540 0.01600
C 	C 	0.11150 0.65110 0.61930 -0.02600
H 	H 	0.10720 0.64690 0.58980 0.00600
H 	H 	0.14220 0.73790 0.70120 0.02100
H 	H 	0.06480 0.69680 0.73290 0.13400
H 	H 	0.04800 0.77820 0.47450 0.04700
H 	H 	0.10260 0.83260 0.47460 0.00700
H 	H 	0.05200 0.67700 0.71290 -0.03400
H 	H 	0.05280 0.74460 0.74720 -0.01600
H 	H 	0.09720 0.72210 0.75660 -0.00000
H 	H 	0.09420 0.75830 0.72120 0.02300
C 	C 	0.86610 0.34280 0.83570 -0.01500
H 	H 	0.88780 0.32220 0.83230 0.00100
N 	N 	0.38620 0.77010 0.03550 -0.28500
N 	N 	0.38050 0.80870 0.14070 -0.27000
C 	C 	0.36770 0.80580 0.02240 0.00800
H 	H 	0.35650 0.82740 0.04010 -0.00400
H 	H 	0.37270 0.68970 0.02560 0.05700
H 	H 	0.44990 0.69160 0.02540 0.01400
C 	C 	0.38850 0.84890 0.11930 -0.02600
H 	H 	0.39280 0.85310 0.08980 0.00600
H 	H 	0.35780 0.76210 0.20120 0.02200
H 	H 	0.43520 0.80320 0.23290 0.13300
H 	H 	0.45200 0.72180 0.97450 0.04100
H 	H 	0.39740 0.66740 0.97460 0.00300
H 	H 	0.44800 0.82300 0.21290 -0.03300
H 	H 	0.44720 0.75540 0.24720 -0.01600
H 	H 	0.40280 0.77790 0.25660 -0.00000
H 	H 	0.40580 0.74170 0.22120 0.02200
C 	C 	0.63390 0.15720 0.33570 -0.01400
H 	H 	0.61220 0.17780 0.33230 0.00200
N 	N 	0.88620 0.27010 0.53550 -0.28200
N 	N 	0.88050 0.30870 0.64070 -0.27000
C 	C 	0.86770 0.30580 0.52240 -0.00500
H 	H 	0.85650 0.32740 0.54010 -0.00100
H 	H 	0.87270 0.18970 0.52560 0.05900
H 	H 	0.94990 0.19160 0.52540 0.01400
C 	C 	0.88850 0.34890 0.61930 -0.02600
H 	H 	0.89280 0.35310 0.58980 0.00500
H 	H 	0.85780 0.26210 0.70120 0.02200
H 	H 	0.93520 0.30320 0.73290 0.13200
H 	H 	0.95200 0.22180 0.47450 0.04400
H 	H 	0.89740 0.16740 0.47460 0.00700
H 	H 	0.94800 0.32300 0.71290 -0.03400
H 	H 	0.94720 0.25540 0.74720 -0.01700
H 	H 	0.90280 0.27790 0.75660 -0.00100
H 	H 	0.90580 0.24170 0.72120 0.02200
C 	C 	0.13390 0.65720 0.83570 -0.01500
H 	H 	0.11220 0.67780 0.83230 0.00200
N 	N 	0.77010 0.03550 0.38620 -0.28500
N 	N 	0.80870 0.14070 0.38050 -0.27000
C 	C 	0.80580 0.02240 0.36770 0.00800
H 	H 	0.82740 0.04010 0.35650 -0.00400
H 	H 	0.68970 0.02560 0.37270 0.05700
H 	H 	0.69160 0.02540 0.44990 0.01400
C 	C 	0.84890 0.11930 0.38850 -0.02600
H 	H 	0.85310 0.08980 0.39280 0.00600
H 	H 	0.76210 0.20120 0.35780 0.02200
H 	H 	0.80320 0.23290 0.43520 0.13300
H 	H 	0.72180 0.97450 0.45200 0.04100
H 	H 	0.66740 0.97460 0.39740 0.00300
H 	H 	0.82300 0.21290 0.44800 -0.03300
H 	H 	0.75540 0.24720 0.44720 -0.01600
H 	H 	0.77790 0.25660 0.40280 -0.00000
H 	H 	0.74170 0.22120 0.40580 0.02200
C 	C 	0.15720 0.33570 0.63390 -0.01400
H 	H 	0.17780 0.33230 0.61220 0.00200
N 	N 	0.27010 0.53550 0.88620 -0.28200
N 	N 	0.30870 0.64070 0.88050 -0.27000
C 	C 	0.30580 0.52240 0.86770 -0.00500
H 	H 	0.32740 0.54010 0.85650 -0.00100
H 	H 	0.18970 0.52560 0.87270 0.05900
H 	H 	0.19160 0.52540 0.94990 0.01400
C 	C 	0.34890 0.61930 0.88850 -0.02600
H 	H 	0.35310 0.58980 0.89280 0.00500
H 	H 	0.26210 0.70120 0.85780 0.02200
H 	H 	0.30320 0.73290 0.93520 0.13200
H 	H 	0.22180 0.47450 0.95200 0.04400
H 	H 	0.16740 0.47460 0.89740 0.00700
H 	H 	0.32300 0.71290 0.94800 -0.03400
H 	H 	0.25540 0.74720 0.94720 -0.01700
H 	H 	0.27790 0.75660 0.90280 -0.00100
H 	H 	0.24170 0.72120 0.90580 0.02200
C 	C 	0.65720 0.83570 0.13390 -0.01500
H 	H 	0.67780 0.83230 0.11220 0.00200
N 	N 	0.22990 0.03550 0.61380 -0.28500
N 	N 	0.19130 0.14070 0.61950 -0.27000
C 	C 	0.19420 0.02240 0.63230 0.00800
H 	H 	0.17260 0.04010 0.64350 -0.00400
H 	H 	0.31030 0.02560 0.62730 0.05700
H 	H 	0.30840 0.02540 0.55010 0.01400
C 	C 	0.15110 0.11930 0.61150 -0.02600
H 	H 	0.14690 0.08980 0.60720 0.00600
H 	H 	0.23790 0.20120 0.64220 0.02200
H 	H 	0.19680 0.23290 0.56480 0.13300
H 	H 	0.27820 0.97450 0.54800 0.04100
H 	H 	0.33260 0.97460 0.60260 0.00300
H 	H 	0.17700 0.21290 0.55200 -0.03400
H 	H 	0.24460 0.24720 0.55280 -0.01600
H 	H 	0.22210 0.25660 0.59720 -0.00000
H 	H 	0.25830 0.22120 0.59420 0.02200
C 	C 	0.84280 0.33570 0.36610 -0.01500
H 	H 	0.82220 0.33230 0.38780 0.00200
N 	N 	0.72990 0.53550 0.11380 -0.28300
N 	N 	0.69130 0.64070 0.11950 -0.27000
C 	C 	0.69420 0.52240 0.13230 -0.00500
H 	H 	0.67260 0.54010 0.14350 -0.00000
H 	H 	0.81030 0.52560 0.12730 0.05800
H 	H 	0.80840 0.52540 0.05010 0.01600
C 	C 	0.65110 0.61930 0.11150 -0.02600
H 	H 	0.64690 0.58980 0.10720 0.00600
H 	H 	0.73790 0.70120 0.14220 0.02100
H 	H 	0.69680 0.73290 0.06480 0.13400
H 	H 	0.77820 0.47450 0.04800 0.04700
H 	H 	0.83260 0.47460 0.10260 0.00700
H 	H 	0.67700 0.71290 0.05200 -0.03400
H 	H 	0.74460 0.74720 0.05280 -0.01600
H 	H 	0.72210 0.75660 0.09720 -0.00000
H 	H 	0.75830 0.72120 0.09420 0.02300
C 	C 	0.34280 0.83570 0.86610 -0.01500
H 	H 	0.32220 0.83230 0.88780 0.00100
N 	N 	0.22990 0.96450 0.38620 -0.28300
N 	N 	0.19130 0.85930 0.38050 -0.27000
C 	C 	0.19420 0.97760 0.36770 -0.01800
H 	H 	0.17260 0.95990 0.35650 0.00300
H 	H 	0.31030 0.97440 0.37270 0.05400
H 	H 	0.30840 0.97460 0.44990 0.01100
C 	C 	0.15110 0.88070 0.38850 -0.02600
H 	H 	0.14690 0.91020 0.39280 0.00500
H 	H 	0.23790 0.79880 0.35780 0.02200
H 	H 	0.19680 0.76710 0.43520 0.13300
H 	H 	0.27820 0.02550 0.45200 0.04500
H 	H 	0.33260 0.02540 0.39740 0.00600
H 	H 	0.17700 0.78710 0.44800 -0.03300
H 	H 	0.24460 0.75280 0.44720 -0.01600
H 	H 	0.22210 0.74340 0.40280 -0.00000
H 	H 	0.25830 0.77880 0.40580 0.02200
C 	C 	0.84280 0.66430 0.63390 -0.01400
H 	H 	0.82220 0.66770 0.61220 0.00200
N 	N 	0.72990 0.46450 0.88620 -0.28300
N 	N 	0.69130 0.35930 0.88050 -0.27000
C 	C 	0.69420 0.47760 0.86770 -0.00500
H 	H 	0.67260 0.45990 0.85650 -0.00100
H 	H 	0.81030 0.47440 0.87270 0.05900
H 	H 	0.80840 0.47460 0.94990 0.01400
C 	C 	0.65110 0.38070 0.88850 -0.02600
H 	H 	0.64690 0.41020 0.89280 0.00500
H 	H 	0.73790 0.29880 0.85780 0.02200
H 	H 	0.69680 0.26710 0.93520 0.13200
H 	H 	0.77820 0.52550 0.95200 0.04500
H 	H 	0.83260 0.52540 0.89740 0.00700
H 	H 	0.67700 0.28710 0.94800 -0.03400
H 	H 	0.74460 0.25280 0.94720 -0.01700
H 	H 	0.72210 0.24340 0.90280 -0.00100
H 	H 	0.75830 0.27880 0.90580 0.02200
C 	C 	0.34280 0.16430 0.13390 -0.01400
H 	H 	0.32220 0.16770 0.11220 0.00300
N 	N 	0.77010 0.96450 0.61380 -0.28300
N 	N 	0.80870 0.85930 0.61950 -0.27000
C 	C 	0.80580 0.97760 0.63230 -0.01800
H 	H 	0.82740 0.95990 0.64350 0.00200
H 	H 	0.68970 0.97440 0.62730 0.05400
H 	H 	0.69160 0.97460 0.55010 0.01100
C 	C 	0.84890 0.88070 0.61150 -0.02600
H 	H 	0.85310 0.91020 0.60720 0.00400
H 	H 	0.76210 0.79880 0.64220 0.02200
H 	H 	0.80320 0.76710 0.56480 0.13300
H 	H 	0.72180 0.02550 0.54800 0.04400
H 	H 	0.66740 0.02540 0.60260 0.00600
H 	H 	0.82300 0.78710 0.55200 -0.03300
H 	H 	0.75540 0.75280 0.55280 -0.01600
H 	H 	0.77790 0.74340 0.59720 -0.00000
H 	H 	0.74170 0.77880 0.59420 0.02200
C 	C 	0.15720 0.66430 0.36610 -0.01400
H 	H 	0.17780 0.66770 0.38780 0.00200
N 	N 	0.27010 0.46450 0.11380 -0.28200
N 	N 	0.30870 0.35930 0.11950 -0.27000
C 	C 	0.30580 0.47760 0.13230 -0.00500
H 	H 	0.32740 0.45990 0.14350 -0.00000
H 	H 	0.18970 0.47440 0.12730 0.05800
H 	H 	0.19160 0.47460 0.05010 0.01600
C 	C 	0.34890 0.38070 0.11150 -0.02600
H 	H 	0.35310 0.41020 0.10720 0.00600
H 	H 	0.26210 0.29880 0.14220 0.02200
H 	H 	0.30320 0.26710 0.06480 0.13400
H 	H 	0.22180 0.52550 0.04800 0.04600
H 	H 	0.16740 0.52540 0.10260 0.00700
H 	H 	0.32300 0.28710 0.05200 -0.03300
H 	H 	0.25540 0.25280 0.05280 -0.01600
H 	H 	0.27790 0.24340 0.09720 -0.00000
H 	H 	0.24170 0.27880 0.09420 0.02300
C 	C 	0.65720 0.16430 0.86610 -0.01400
H 	H 	0.67780 0.16770 0.88780 0.00200
N 	N 	0.03550 0.61380 0.22990 -0.28500
N 	N 	0.14070 0.61950 0.19130 -0.27000
C 	C 	0.02240 0.63230 0.19420 0.00800
H 	H 	0.04010 0.64350 0.17260 -0.00400
H 	H 	0.02560 0.62730 0.31030 0.05700
H 	H 	0.02540 0.55010 0.30840 0.01400
C 	C 	0.11930 0.61150 0.15110 -0.02600
H 	H 	0.08980 0.60720 0.14690 0.00600
H 	H 	0.20120 0.64220 0.23790 0.02200
H 	H 	0.23290 0.56480 0.19680 0.13300
H 	H 	0.97450 0.54800 0.27820 0.04100
H 	H 	0.97460 0.60260 0.33260 0.00300
H 	H 	0.21290 0.55200 0.17700 -0.03400
H 	H 	0.24720 0.55280 0.24460 -0.01600
H 	H 	0.25660 0.59720 0.22210 -0.00000
H 	H 	0.22120 0.59420 0.25830 0.02200
C 	C 	0.33570 0.36610 0.84280 -0.01500
H 	H 	0.33230 0.38780 0.82220 0.00200
N 	N 	0.53550 0.11380 0.72990 -0.28300
N 	N 	0.64070 0.11950 0.69130 -0.27000
C 	C 	0.52240 0.13230 0.69420 -0.00500
H 	H 	0.54010 0.14350 0.67260 -0.00000
H 	H 	0.52560 0.12730 0.81030 0.05800
H 	H 	0.52540 0.05010 0.80840 0.01600
C 	C 	0.61930 0.11150 0.65110 -0.02600
H 	H 	0.58980 0.10720 0.64690 0.00600
H 	H 	0.70120 0.14220 0.73790 0.02100
H 	H 	0.73290 0.06480 0.69680 0.13400
H 	H 	0.47450 0.04800 0.77820 0.04700
H 	H 	0.47460 0.10260 0.83260 0.00700
H 	H 	0.71290 0.05200 0.67700 -0.03400
H 	H 	0.74720 0.05280 0.74460 -0.01600
H 	H 	0.75660 0.09720 0.72210 -0.00000
H 	H 	0.72120 0.09420 0.75830 0.02300
C 	C 	0.83570 0.86610 0.34280 -0.01500
H 	H 	0.83230 0.88780 0.32220 0.00100
N 	N 	0.03550 0.38620 0.77010 -0.28500
N 	N 	0.14070 0.38050 0.80870 -0.27000
C 	C 	0.02240 0.36770 0.80580 0.00800
H 	H 	0.04010 0.35650 0.82740 -0.00400
H 	H 	0.02560 0.37270 0.68970 0.05700
H 	H 	0.02540 0.44990 0.69160 0.01400
C 	C 	0.11930 0.38850 0.84890 -0.02600
H 	H 	0.08980 0.39280 0.85310 0.00600
H 	H 	0.20120 0.35780 0.76210 0.02200
H 	H 	0.23290 0.43520 0.80320 0.13300
H 	H 	0.97450 0.45200 0.72180 0.04100
H 	H 	0.97460 0.39740 0.66740 0.00300
H 	H 	0.21290 0.44800 0.82300 -0.03300
H 	H 	0.24720 0.44720 0.75540 -0.01600
H 	H 	0.25660 0.40280 0.77790 -0.00000
H 	H 	0.22120 0.40580 0.74170 0.02200
C 	C 	0.33570 0.63390 0.15720 -0.01400
H 	H 	0.33230 0.61220 0.17780 0.00200
N 	N 	0.53550 0.88620 0.27010 -0.28200
N 	N 	0.64070 0.88050 0.30870 -0.27000
C 	C 	0.52240 0.86770 0.30580 -0.00500
H 	H 	0.54010 0.85650 0.32740 -0.00100
H 	H 	0.52560 0.87270 0.18970 0.05900
H 	H 	0.52540 0.94990 0.19160 0.01400
C 	C 	0.61930 0.88850 0.34890 -0.02600
H 	H 	0.58980 0.89280 0.35310 0.00500
H 	H 	0.70120 0.85780 0.26210 0.02200
H 	H 	0.73290 0.93520 0.30320 0.13200
H 	H 	0.47450 0.95200 0.22180 0.04400
H 	H 	0.47460 0.89740 0.16740 0.00700
H 	H 	0.71290 0.94800 0.32300 -0.03400
H 	H 	0.74720 0.94720 0.25540 -0.01700
H 	H 	0.75660 0.90280 0.27790 -0.00100
H 	H 	0.72120 0.90580 0.24170 0.02200
C 	C 	0.83570 0.13390 0.65720 -0.01500
H 	H 	0.83230 0.11220 0.67780 0.00200
N 	N 	0.96450 0.61380 0.77010 -0.28300
N 	N 	0.85930 0.61950 0.80870 -0.27000
C 	C 	0.97760 0.63230 0.80580 -0.01800
H 	H 	0.95990 0.64350 0.82740 0.00200
H 	H 	0.97440 0.62730 0.68970 0.05400
H 	H 	0.97460 0.55010 0.69160 0.01100
C 	C 	0.88070 0.61150 0.84890 -0.02600
H 	H 	0.91020 0.60720 0.85310 0.00400
H 	H 	0.79880 0.64220 0.76210 0.02200
H 	H 	0.76710 0.56480 0.80320 0.13300
H 	H 	0.02550 0.54800 0.72180 0.04400
H 	H 	0.02540 0.60260 0.66740 0.00600
H 	H 	0.78710 0.55200 0.82300 -0.03300
H 	H 	0.75280 0.55280 0.75540 -0.01600
H 	H 	0.74340 0.59720 0.77790 -0.00000
H 	H 	0.77880 0.59420 0.74170 0.02200
C 	C 	0.66430 0.36610 0.15720 -0.01400
H 	H 	0.66770 0.38780 0.17780 0.00200
N 	N 	0.46450 0.11380 0.27010 -0.28200
N 	N 	0.35930 0.11950 0.30870 -0.27000
C 	C 	0.47760 0.13230 0.30580 -0.00500
H 	H 	0.45990 0.14350 0.32740 -0.00000
H 	H 	0.47440 0.12730 0.18970 0.05800
H 	H 	0.47460 0.05010 0.19160 0.01600
C 	C 	0.38070 0.11150 0.34890 -0.02600
H 	H 	0.41020 0.10720 0.35310 0.00600
H 	H 	0.29880 0.14220 0.26210 0.02200
H 	H 	0.26710 0.06480 0.30320 0.13400
H 	H 	0.52550 0.04800 0.22180 0.04600
H 	H 	0.52540 0.10260 0.16740 0.00700
H 	H 	0.28710 0.05200 0.32300 -0.03300
H 	H 	0.25280 0.05280 0.25540 -0.01600
H 	H 	0.24340 0.09720 0.27790 -0.00000
H 	H 	0.27880 0.09420 0.24170 0.02300
C 	C 	0.16430 0.86610 0.65720 -0.01400
H 	H 	0.16770 0.88780 0.67780 0.00200
N 	N 	0.96450 0.38620 0.22990 -0.28300
N 	N 	0.85930 0.38050 0.19130 -0.27000
C 	C 	0.97760 0.36770 0.19420 -0.01800
H 	H 	0.95990 0.35650 0.17260 0.00300
H 	H 	0.97440 0.37270 0.31030 0.05400
H 	H 	0.97460 0.44990 0.30840 0.01100
C 	C 	0.88070 0.38850 0.15110 -0.02600
H 	H 	0.91020 0.39280 0.14690 0.00500
H 	H 	0.79880 0.35780 0.23790 0.02200
H 	H 	0.76710 0.43520 0.19680 0.13300
H 	H 	0.02550 0.45200 0.27820 0.04500
H 	H 	0.02540 0.39740 0.33260 0.00600
H 	H 	0.78710 0.44800 0.17700 -0.03300
H 	H 	0.75280 0.44720 0.24460 -0.01600
H 	H 	0.74340 0.40280 0.22210 -0.00000
H 	H 	0.77880 0.40580 0.25830 0.02200
C 	C 	0.66430 0.63390 0.84280 -0.01400
H 	H 	0.66770 0.61220 0.82220 0.00200
N 	N 	0.46450 0.88620 0.72990 -0.28300
N 	N 	0.35930 0.88050 0.69130 -0.27000
C 	C 	0.47760 0.86770 0.69420 -0.00500
H 	H 	0.45990 0.85650 0.67260 -0.00100
H 	H 	0.47440 0.87270 0.81030 0.05900
H 	H 	0.47460 0.94990 0.80840 0.01400
C 	C 	0.38070 0.88850 0.65110 -0.02600
H 	H 	0.41020 0.89280 0.64690 0.00500
H 	H 	0.29880 0.85780 0.73790 0.02200
H 	H 	0.26710 0.93520 0.69680 0.13200
H 	H 	0.52550 0.95200 0.77820 0.04500
H 	H 	0.52540 0.89740 0.83260 0.00700
H 	H 	0.28710 0.94800 0.67700 -0.03400
H 	H 	0.25280 0.94720 0.74460 -0.01700
H 	H 	0.24340 0.90280 0.72210 -0.00100
H 	H 	0.27880 0.90580 0.75830 0.02200
C 	C 	0.16430 0.13390 0.34280 -0.01400
H 	H 	0.16770 0.11220 0.32220 0.00300
N 	N 	0.22990 0.38620 0.96450 -0.28300
N 	N 	0.19130 0.38050 0.85930 -0.27000
C 	C 	0.19420 0.36770 0.97760 -0.01800
H 	H 	0.17260 0.35650 0.95990 0.00300
H 	H 	0.31030 0.37270 0.97440 0.05400
H 	H 	0.30840 0.44990 0.97460 0.01100
C 	C 	0.15110 0.38850 0.88070 -0.02600
H 	H 	0.14690 0.39280 0.91020 0.00500
H 	H 	0.23790 0.35780 0.79880 0.02200
H 	H 	0.19680 0.43520 0.76710 0.13300
H 	H 	0.27820 0.45200 0.02550 0.04500
H 	H 	0.33260 0.39740 0.02540 0.00600
H 	H 	0.17700 0.44800 0.78710 -0.03300
H 	H 	0.24460 0.44720 0.75280 -0.01600
H 	H 	0.22210 0.40280 0.74340 -0.00000
H 	H 	0.25830 0.40580 0.77880 0.02200
C 	C 	0.84280 0.63390 0.66430 -0.01400
H 	H 	0.82220 0.61220 0.66770 0.00200
N 	N 	0.72990 0.88620 0.46450 -0.28300
N 	N 	0.69130 0.88050 0.35930 -0.27000
C 	C 	0.69420 0.86770 0.47760 -0.00500
H 	H 	0.67260 0.85650 0.45990 -0.00100
H 	H 	0.81030 0.87270 0.47440 0.05900
H 	H 	0.80840 0.94990 0.47460 0.01400
C 	C 	0.65110 0.88850 0.38070 -0.02600
H 	H 	0.64690 0.89280 0.41020 0.00500
H 	H 	0.73790 0.85780 0.29880 0.02200
H 	H 	0.69680 0.93520 0.26710 0.13200
H 	H 	0.77820 0.95200 0.52550 0.04500
H 	H 	0.83260 0.89740 0.52540 0.00700
H 	H 	0.67700 0.94800 0.28710 -0.03400
H 	H 	0.74460 0.94720 0.25280 -0.01700
H 	H 	0.72210 0.90280 0.24340 -0.00100
H 	H 	0.75830 0.90580 0.27880 0.02200
C 	C 	0.34280 0.13390 0.16430 -0.01400
H 	H 	0.32220 0.11220 0.16770 0.00300
N 	N 	0.77010 0.61380 0.96450 -0.28300
N 	N 	0.80870 0.61950 0.85930 -0.27000
C 	C 	0.80580 0.63230 0.97760 -0.01800
H 	H 	0.82740 0.64350 0.95990 0.00200
H 	H 	0.68970 0.62730 0.97440 0.05400
H 	H 	0.69160 0.55010 0.97460 0.01100
C 	C 	0.84890 0.61150 0.88070 -0.02600
H 	H 	0.85310 0.60720 0.91020 0.00400
H 	H 	0.76210 0.64220 0.79880 0.02200
H 	H 	0.80320 0.56480 0.76710 0.13300
H 	H 	0.72180 0.54800 0.02550 0.04400
H 	H 	0.66740 0.60260 0.02540 0.00600
H 	H 	0.82300 0.55200 0.78710 -0.03300
H 	H 	0.75540 0.55280 0.75280 -0.01600
H 	H 	0.77790 0.59720 0.74340 -0.00000
H 	H 	0.74170 0.59420 0.77880 0.02200
C 	C 	0.15720 0.36610 0.66430 -0.01400
H 	H 	0.17780 0.38780 0.66770 0.00200
N 	N 	0.27010 0.11380 0.46450 -0.28200
N 	N 	0.30870 0.11950 0.35930 -0.27000
C 	C 	0.30580 0.13230 0.47760 -0.00500
H 	H 	0.32740 0.14350 0.45990 -0.00000
H 	H 	0.18970 0.12730 0.47440 0.05800
H 	H 	0.19160 0.05010 0.47460 0.01600
C 	C 	0.34890 0.11150 0.38070 -0.02600
H 	H 	0.35310 0.10720 0.41020 0.00600
H 	H 	0.26210 0.14220 0.29880 0.02200
H 	H 	0.30320 0.06480 0.26710 0.13400
H 	H 	0.22180 0.04800 0.52550 0.04600
H 	H 	0.16740 0.10260 0.52540 0.00700
H 	H 	0.32300 0.05200 0.28710 -0.03300
H 	H 	0.25540 0.05280 0.25280 -0.01600
H 	H 	0.27790 0.09720 0.24340 -0.00000
H 	H 	0.24170 0.09420 0.27880 0.02300
C 	C 	0.65720 0.86610 0.16430 -0.01400
H 	H 	0.67780 0.88780 0.16770 0.00200
N 	N 	0.77010 0.38620 0.03550 -0.28500
N 	N 	0.80870 0.38050 0.14070 -0.27000
C 	C 	0.80580 0.36770 0.02240 0.00800
H 	H 	0.82740 0.35650 0.04010 -0.00400
H 	H 	0.68970 0.37270 0.02560 0.05700
H 	H 	0.69160 0.44990 0.02540 0.01400
C 	C 	0.84890 0.38850 0.11930 -0.02600
H 	H 	0.85310 0.39280 0.08980 0.00600
H 	H 	0.76210 0.35780 0.20120 0.02200
H 	H 	0.80320 0.43520 0.23290 0.13300
H 	H 	0.72180 0.45200 0.97450 0.04100
H 	H 	0.66740 0.39740 0.97460 0.00300
H 	H 	0.82300 0.44800 0.21290 -0.03300
H 	H 	0.75540 0.44720 0.24720 -0.01600
H 	H 	0.77790 0.40280 0.25660 -0.00000
H 	H 	0.74170 0.40580 0.22120 0.02200
C 	C 	0.15720 0.63390 0.33570 -0.01400
H 	H 	0.17780 0.61220 0.33230 0.00200
N 	N 	0.27010 0.88620 0.53550 -0.28200
N 	N 	0.30870 0.88050 0.64070 -0.27000
C 	C 	0.30580 0.86770 0.52240 -0.00500
H 	H 	0.32740 0.85650 0.54010 -0.00100
H 	H 	0.18970 0.87270 0.52560 0.05900
H 	H 	0.19160 0.94990 0.52540 0.01400
C 	C 	0.34890 0.88850 0.61930 -0.02600
H 	H 	0.35310 0.89280 0.58980 0.00500
H 	H 	0.26210 0.85780 0.70120 0.02200
H 	H 	0.30320 0.93520 0.73290 0.13200
H 	H 	0.22180 0.95200 0.47450 0.04400
H 	H 	0.16740 0.89740 0.47460 0.00700
H 	H 	0.32300 0.94800 0.71290 -0.03400
H 	H 	0.25540 0.94720 0.74720 -0.01700
H 	H 	0.27790 0.90280 0.75660 -0.00100
H 	H 	0.24170 0.90580 0.72120 0.02200
C 	C 	0.65720 0.13390 0.83570 -0.01500
H 	H 	0.67780 0.11220 0.83230 0.00200
N 	N 	0.22990 0.61380 0.03550 -0.28500
N 	N 	0.19130 0.61950 0.14070 -0.27000
C 	C 	0.19420 0.63230 0.02240 0.00800
H 	H 	0.17260 0.64350 0.04010 -0.00400
H 	H 	0.31030 0.62730 0.02560 0.05700
H 	H 	0.30840 0.55010 0.02540 0.01400
C 	C 	0.15110 0.61150 0.11930 -0.02600
H 	H 	0.14690 0.60720 0.08980 0.00600
H 	H 	0.23790 0.64220 0.20120 0.02200
H 	H 	0.19680 0.56480 0.23290 0.13300
H 	H 	0.27820 0.54800 0.97450 0.04100
H 	H 	0.33260 0.60260 0.97460 0.00300
H 	H 	0.17700 0.55200 0.21290 -0.03400
H 	H 	0.24460 0.55280 0.24720 -0.01600
H 	H 	0.22210 0.59720 0.25660 -0.00000
H 	H 	0.25830 0.59420 0.22120 0.02200
C 	C 	0.84280 0.36610 0.33570 -0.01500
H 	H 	0.82220 0.38780 0.33230 0.00200
N 	N 	0.72990 0.11380 0.53550 -0.28300
N 	N 	0.69130 0.11950 0.64070 -0.27000
C 	C 	0.69420 0.13230 0.52240 -0.00500
H 	H 	0.67260 0.14350 0.54010 -0.00000
H 	H 	0.81030 0.12730 0.52560 0.05800
H 	H 	0.80840 0.05010 0.52540 0.01600
C 	C 	0.65110 0.11150 0.61930 -0.02600
H 	H 	0.64690 0.10720 0.58980 0.00600
H 	H 	0.73790 0.14220 0.70120 0.02100
H 	H 	0.69680 0.06480 0.73290 0.13400
H 	H 	0.77820 0.04800 0.47450 0.04700
H 	H 	0.83260 0.10260 0.47460 0.00700
H 	H 	0.67700 0.05200 0.71290 -0.03400
H 	H 	0.74460 0.05280 0.74720 -0.01600
H 	H 	0.72210 0.09720 0.75660 -0.00000
H 	H 	0.75830 0.09420 0.72120 0.02300
C 	C 	0.34280 0.86610 0.83570 -0.01500
H 	H 	0.32220 0.88780 0.83230 0.00100
N 	N 	0.96450 0.22990 0.38620 -0.28300
N 	N 	0.85930 0.19130 0.38050 -0.27000
C 	C 	0.97760 0.19420 0.36770 -0.01800
H 	H 	0.95990 0.17260 0.35650 0.00300
H 	H 	0.97440 0.31030 0.37270 0.05400
H 	H 	0.97460 0.30840 0.44990 0.01100
C 	C 	0.88070 0.15110 0.38850 -0.02600
H 	H 	0.91020 0.14690 0.39280 0.00500
H 	H 	0.79880 0.23790 0.35780 0.02200
H 	H 	0.76710 0.19680 0.43520 0.13300
H 	H 	0.02550 0.27820 0.45200 0.04500
H 	H 	0.02540 0.33260 0.39740 0.00600
H 	H 	0.78710 0.17700 0.44800 -0.03300
H 	H 	0.75280 0.24460 0.44720 -0.01600
H 	H 	0.74340 0.22210 0.40280 -0.00000
H 	H 	0.77880 0.25830 0.40580 0.02200
C 	C 	0.66430 0.84280 0.63390 -0.01400
H 	H 	0.66770 0.82220 0.61220 0.00200
N 	N 	0.46450 0.72990 0.88620 -0.28300
N 	N 	0.35930 0.69130 0.88050 -0.27000
C 	C 	0.47760 0.69420 0.86770 -0.00500
H 	H 	0.45990 0.67260 0.85650 -0.00100
H 	H 	0.47440 0.81030 0.87270 0.05900
H 	H 	0.47460 0.80840 0.94990 0.01400
C 	C 	0.38070 0.65110 0.88850 -0.02600
H 	H 	0.41020 0.64690 0.89280 0.00500
H 	H 	0.29880 0.73790 0.85780 0.02200
H 	H 	0.26710 0.69680 0.93520 0.13200
H 	H 	0.52550 0.77820 0.95200 0.04500
H 	H 	0.52540 0.83260 0.89740 0.00700
H 	H 	0.28710 0.67700 0.94800 -0.03400
H 	H 	0.25280 0.74460 0.94720 -0.01700
H 	H 	0.24340 0.72210 0.90280 -0.00100
H 	H 	0.27880 0.75830 0.90580 0.02200
C 	C 	0.16430 0.34280 0.13390 -0.01400
H 	H 	0.16770 0.32220 0.11220 0.00300
N 	N 	0.96450 0.77010 0.61380 -0.28300
N 	N 	0.85930 0.80870 0.61950 -0.27000
C 	C 	0.97760 0.80580 0.63230 -0.01800
H 	H 	0.95990 0.82740 0.64350 0.00200
H 	H 	0.97440 0.68970 0.62730 0.05400
H 	H 	0.97460 0.69160 0.55010 0.01100
C 	C 	0.88070 0.84890 0.61150 -0.02600
H 	H 	0.91020 0.85310 0.60720 0.00400
H 	H 	0.79880 0.76210 0.64220 0.02200
H 	H 	0.76710 0.80320 0.56480 0.13300
H 	H 	0.02550 0.72180 0.54800 0.04400
H 	H 	0.02540 0.66740 0.60260 0.00600
H 	H 	0.78710 0.82300 0.55200 -0.03300
H 	H 	0.75280 0.75540 0.55280 -0.01600
H 	H 	0.74340 0.77790 0.59720 -0.00000
H 	H 	0.77880 0.74170 0.59420 0.02200
C 	C 	0.66430 0.15720 0.36610 -0.01400
H 	H 	0.66770 0.17780 0.38780 0.00200
N 	N 	0.46450 0.27010 0.11380 -0.28200
N 	N 	0.35930 0.30870 0.11950 -0.27000
C 	C 	0.47760 0.30580 0.13230 -0.00500
H 	H 	0.45990 0.32740 0.14350 -0.00000
H 	H 	0.47440 0.18970 0.12730 0.05800
H 	H 	0.47460 0.19160 0.05010 0.01600
C 	C 	0.38070 0.34890 0.11150 -0.02600
H 	H 	0.41020 0.35310 0.10720 0.00600
H 	H 	0.29880 0.26210 0.14220 0.02200
H 	H 	0.26710 0.30320 0.06480 0.13400
H 	H 	0.52550 0.22180 0.04800 0.04600
H 	H 	0.52540 0.16740 0.10260 0.00700
H 	H 	0.28710 0.32300 0.05200 -0.03300
H 	H 	0.25280 0.25540 0.05280 -0.01600
H 	H 	0.24340 0.27790 0.09720 -0.00000
H 	H 	0.27880 0.24170 0.09420 0.02300
C 	C 	0.16430 0.65720 0.86610 -0.01400
H 	H 	0.16770 0.67780 0.88780 0.00200
N 	N 	0.03550 0.77010 0.38620 -0.28500
N 	N 	0.14070 0.80870 0.38050 -0.27000
C 	C 	0.02240 0.80580 0.36770 0.00800
H 	H 	0.04010 0.82740 0.35650 -0.00400
H 	H 	0.02560 0.68970 0.37270 0.05700
H 	H 	0.02540 0.69160 0.44990 0.01400
C 	C 	0.11930 0.84890 0.38850 -0.02600
H 	H 	0.08980 0.85310 0.39280 0.00600
H 	H 	0.20120 0.76210 0.35780 0.02200
H 	H 	0.23290 0.80320 0.43520 0.13300
H 	H 	0.97450 0.72180 0.45200 0.04100
H 	H 	0.97460 0.66740 0.39740 0.00300
H 	H 	0.21290 0.82300 0.44800 -0.03300
H 	H 	0.24720 0.75540 0.44720 -0.01600
H 	H 	0.25660 0.77790 0.40280 -0.00000
H 	H 	0.22120 0.74170 0.40580 0.02200
C 	C 	0.33570 0.15720 0.63390 -0.01400
H 	H 	0.33230 0.17780 0.61220 0.00200
N 	N 	0.53550 0.27010 0.88620 -0.28200
N 	N 	0.64070 0.30870 0.88050 -0.27000
C 	C 	0.52240 0.30580 0.86770 -0.00500
H 	H 	0.54010 0.32740 0.85650 -0.00100
H 	H 	0.52560 0.18970 0.87270 0.05900
H 	H 	0.52540 0.19160 0.94990 0.01400
C 	C 	0.61930 0.34890 0.88850 -0.02600
H 	H 	0.58980 0.35310 0.89280 0.00500
H 	H 	0.70120 0.26210 0.85780 0.02200
H 	H 	0.73290 0.30320 0.93520 0.13200
H 	H 	0.47450 0.22180 0.95200 0.04400
H 	H 	0.47460 0.16740 0.89740 0.00700
H 	H 	0.71290 0.32300 0.94800 -0.03400
H 	H 	0.74720 0.25540 0.94720 -0.01700
H 	H 	0.75660 0.27790 0.90280 -0.00100
H 	H 	0.72120 0.24170 0.90580 0.02200
C 	C 	0.83570 0.65720 0.13390 -0.01500
H 	H 	0.83230 0.67780 0.11220 0.00200
N 	N 	0.03550 0.22990 0.61380 -0.28500
N 	N 	0.14070 0.19130 0.61950 -0.27000
C 	C 	0.02240 0.19420 0.63230 0.00800
H 	H 	0.04010 0.17260 0.64350 -0.00400
H 	H 	0.02560 0.31030 0.62730 0.05700
H 	H 	0.02540 0.30840 0.55010 0.01400
C 	C 	0.11930 0.15110 0.61150 -0.02600
H 	H 	0.08980 0.14690 0.60720 0.00600
H 	H 	0.20120 0.23790 0.64220 0.02200
H 	H 	0.23290 0.19680 0.56480 0.13300
H 	H 	0.97450 0.27820 0.54800 0.04100
H 	H 	0.97460 0.33260 0.60260 0.00300
H 	H 	0.21290 0.17700 0.55200 -0.03400
H 	H 	0.24720 0.24460 0.55280 -0.01600
H 	H 	0.25660 0.22210 0.59720 -0.00000
H 	H 	0.22120 0.25830 0.59420 0.02200
C 	C 	0.33570 0.84280 0.36610 -0.01500
H 	H 	0.33230 0.82220 0.38780 0.00200
N 	N 	0.53550 0.72990 0.11380 -0.28300
N 	N 	0.64070 0.69130 0.11950 -0.27000
C 	C 	0.52240 0.69420 0.13230 -0.00500
H 	H 	0.54010 0.67260 0.14350 -0.00000
H 	H 	0.52560 0.81030 0.12730 0.05800
H 	H 	0.52540 0.80840 0.05010 0.01600
C 	C 	0.61930 0.65110 0.11150 -0.02600
H 	H 	0.58980 0.64690 0.10720 0.00600
H 	H 	0.70120 0.73790 0.14220 0.02100
H 	H 	0.73290 0.69680 0.06480 0.13400
H 	H 	0.47450 0.77820 0.04800 0.04700
H 	H 	0.47460 0.83260 0.10260 0.00700
H 	H 	0.71290 0.67700 0.05200 -0.03400
H 	H 	0.74720 0.74460 0.05280 -0.01600
H 	H 	0.75660 0.72210 0.09720 -0.00000
H 	H 	0.72120 0.75830 0.09420 0.02300
C 	C 	0.83570 0.34280 0.86610 -0.01500
H 	H 	0.83230 0.32220 0.88780 0.00100
N 	N 	0.38620 0.96450 0.22990 -0.28300
N 	N 	0.38050 0.85930 0.19130 -0.27000
C 	C 	0.36770 0.97760 0.19420 -0.01800
H 	H 	0.35650 0.95990 0.17260 0.00300
H 	H 	0.37270 0.97440 0.31030 0.05400
H 	H 	0.44990 0.97460 0.30840 0.01100
C 	C 	0.38850 0.88070 0.15110 -0.02600
H 	H 	0.39280 0.91020 0.14690 0.00500
H 	H 	0.35780 0.79880 0.23790 0.02200
H 	H 	0.43520 0.76710 0.19680 0.13300
H 	H 	0.45200 0.02550 0.27820 0.04500
H 	H 	0.39740 0.02540 0.33260 0.00600
H 	H 	0.44800 0.78710 0.17700 -0.03300
H 	H 	0.44720 0.75280 0.24460 -0.01600
H 	H 	0.40280 0.74340 0.22210 -0.00000
H 	H 	0.40580 0.77880 0.25830 0.02200
C 	C 	0.63390 0.66430 0.84280 -0.01400
H 	H 	0.61220 0.66770 0.82220 0.00200
N 	N 	0.88620 0.46450 0.72990 -0.28300
N 	N 	0.88050 0.35930 0.69130 -0.27000
C 	C 	0.86770 0.47760 0.69420 -0.00500
H 	H 	0.85650 0.45990 0.67260 -0.00100
H 	H 	0.87270 0.47440 0.81030 0.05900
H 	H 	0.94990 0.47460 0.80840 0.01400
C 	C 	0.88850 0.38070 0.65110 -0.02600
H 	H 	0.89280 0.41020 0.64690 0.00500
H 	H 	0.85780 0.29880 0.73790 0.02200
H 	H 	0.93520 0.26710 0.69680 0.13200
H 	H 	0.95200 0.52550 0.77820 0.04500
H 	H 	0.89740 0.52540 0.83260 0.00700
H 	H 	0.94800 0.28710 0.67700 -0.03400
H 	H 	0.94720 0.25280 0.74460 -0.01700
H 	H 	0.90280 0.24340 0.72210 -0.00100
H 	H 	0.90580 0.27880 0.75830 0.02200
C 	C 	0.13390 0.16430 0.34280 -0.01400
H 	H 	0.11220 0.16770 0.32220 0.00300
N 	N 	0.61380 0.96450 0.77010 -0.28300
N 	N 	0.61950 0.85930 0.80870 -0.27000
C 	C 	0.63230 0.97760 0.80580 -0.01800
H 	H 	0.64350 0.95990 0.82740 0.00200
H 	H 	0.62730 0.97440 0.68970 0.05400
H 	H 	0.55010 0.97460 0.69160 0.01100
C 	C 	0.61150 0.88070 0.84890 -0.02600
H 	H 	0.60720 0.91020 0.85310 0.00400
H 	H 	0.64220 0.79880 0.76210 0.02200
H 	H 	0.56480 0.76710 0.80320 0.13300
H 	H 	0.54800 0.02550 0.72180 0.04400
H 	H 	0.60260 0.02540 0.66740 0.00600
H 	H 	0.55200 0.78710 0.82300 -0.03300
H 	H 	0.55280 0.75280 0.75540 -0.01600
H 	H 	0.59720 0.74340 0.77790 -0.00000
H 	H 	0.59420 0.77880 0.74170 0.02200
C 	C 	0.36610 0.66430 0.15720 -0.01400
H 	H 	0.38780 0.66770 0.17780 0.00200
N 	N 	0.11380 0.46450 0.27010 -0.28200
N 	N 	0.11950 0.35930 0.30870 -0.27000
C 	C 	0.13230 0.47760 0.30580 -0.00500
H 	H 	0.14350 0.45990 0.32740 -0.00000
H 	H 	0.12730 0.47440 0.18970 0.05800
H 	H 	0.05010 0.47460 0.19160 0.01600
C 	C 	0.11150 0.38070 0.34890 -0.02600
H 	H 	0.10720 0.41020 0.35310 0.00600
H 	H 	0.14220 0.29880 0.26210 0.02200
H 	H 	0.06480 0.26710 0.30320 0.13400
H 	H 	0.04800 0.52550 0.22180 0.04600
H 	H 	0.10260 0.52540 0.16740 0.00700
H 	H 	0.05200 0.28710 0.32300 -0.03300
H 	H 	0.05280 0.25280 0.25540 -0.01600
H 	H 	0.09720 0.24340 0.27790 -0.00000
H 	H 	0.09420 0.27880 0.24170 0.02300
C 	C 	0.86610 0.16430 0.65720 -0.01400
H 	H 	0.88780 0.16770 0.67780 0.00200
N 	N 	0.38620 0.03550 0.77010 -0.28500
N 	N 	0.38050 0.14070 0.80870 -0.27000
C 	C 	0.36770 0.02240 0.80580 0.00800
H 	H 	0.35650 0.04010 0.82740 -0.00400
H 	H 	0.37270 0.02560 0.68970 0.05700
H 	H 	0.44990 0.02540 0.69160 0.01400
C 	C 	0.38850 0.11930 0.84890 -0.02600
H 	H 	0.39280 0.08980 0.85310 0.00600
H 	H 	0.35780 0.20120 0.76210 0.02200
H 	H 	0.43520 0.23290 0.80320 0.13300
H 	H 	0.45200 0.97450 0.72180 0.04100
H 	H 	0.39740 0.97460 0.66740 0.00300
H 	H 	0.44800 0.21290 0.82300 -0.03300
H 	H 	0.44720 0.24720 0.75540 -0.01600
H 	H 	0.40280 0.25660 0.77790 -0.00000
H 	H 	0.40580 0.22120 0.74170 0.02200
C 	C 	0.63390 0.33570 0.15720 -0.01400
H 	H 	0.61220 0.33230 0.17780 0.00200
N 	N 	0.88620 0.53550 0.27010 -0.28200
N 	N 	0.88050 0.64070 0.30870 -0.27000
C 	C 	0.86770 0.52240 0.30580 -0.00500
H 	H 	0.85650 0.54010 0.32740 -0.00100
H 	H 	0.87270 0.52560 0.18970 0.05900
H 	H 	0.94990 0.52540 0.19160 0.01400
C 	C 	0.88850 0.61930 0.34890 -0.02600
H 	H 	0.89280 0.58980 0.35310 0.00500
H 	H 	0.85780 0.70120 0.26210 0.02200
H 	H 	0.93520 0.73290 0.30320 0.13200
H 	H 	0.95200 0.47450 0.22180 0.04400
H 	H 	0.89740 0.47460 0.16740 0.00700
H 	H 	0.94800 0.71290 0.32300 -0.03400
H 	H 	0.94720 0.74720 0.25540 -0.01700
H 	H 	0.90280 0.75660 0.27790 -0.00100
H 	H 	0.90580 0.72120 0.24170 0.02200
C 	C 	0.13390 0.83570 0.65720 -0.01500
H 	H 	0.11220 0.83230 0.67780 0.00200
N 	N 	0.61380 0.03550 0.22990 -0.28500
N 	N 	0.61950 0.14070 0.19130 -0.27000
C 	C 	0.63230 0.02240 0.19420 0.00800
H 	H 	0.64350 0.04010 0.17260 -0.00400
H 	H 	0.62730 0.02560 0.31030 0.05700
H 	H 	0.55010 0.02540 0.30840 0.01400
C 	C 	0.61150 0.11930 0.15110 -0.02600
H 	H 	0.60720 0.08980 0.14690 0.00600
H 	H 	0.64220 0.20120 0.23790 0.02200
H 	H 	0.56480 0.23290 0.19680 0.13300
H 	H 	0.54800 0.97450 0.27820 0.04100
H 	H 	0.60260 0.97460 0.33260 0.00300
H 	H 	0.55200 0.21290 0.17700 -0.03400
H 	H 	0.55280 0.24720 0.24460 -0.01600
H 	H 	0.59720 0.25660 0.22210 -0.00000
H 	H 	0.59420 0.22120 0.25830 0.02200
C 	C 	0.36610 0.33570 0.84280 -0.01500
H 	H 	0.38780 0.33230 0.82220 0.00200
N 	N 	0.11380 0.53550 0.72990 -0.28300
N 	N 	0.11950 0.64070 0.69130 -0.27000
C 	C 	0.13230 0.52240 0.69420 -0.00500
H 	H 	0.14350 0.54010 0.67260 -0.00000
H 	H 	0.12730 0.52560 0.81030 0.05800
H 	H 	0.05010 0.52540 0.80840 0.01600
C 	C 	0.11150 0.61930 0.65110 -0.02600
H 	H 	0.10720 0.58980 0.64690 0.00600
H 	H 	0.14220 0.70120 0.73790 0.02100
H 	H 	0.06480 0.73290 0.69680 0.13400
H 	H 	0.04800 0.47450 0.77820 0.04700
H 	H 	0.10260 0.47460 0.83260 0.00700
H 	H 	0.05200 0.71290 0.67700 -0.03400
H 	H 	0.05280 0.74720 0.74460 -0.01600
H 	H 	0.09720 0.75660 0.72210 -0.00000
H 	H 	0.09420 0.72120 0.75830 0.02300
C 	C 	0.86610 0.83570 0.34280 -0.01500
H 	H 	0.88780 0.83230 0.32220 0.00100
N 	N 	0.38620 0.22990 0.03550 -0.28500
N 	N 	0.38050 0.19130 0.14070 -0.27000
C 	C 	0.36770 0.19420 0.02240 0.00800
H 	H 	0.35650 0.17260 0.04010 -0.00300
H 	H 	0.37270 0.31030 0.02560 0.05700
H 	H 	0.44990 0.30840 0.02540 0.01400
C 	C 	0.38850 0.15110 0.11930 -0.02600
H 	H 	0.39280 0.14690 0.08980 0.00600
H 	H 	0.35780 0.23790 0.20120 0.02200
H 	H 	0.43520 0.19680 0.23290 0.13300
H 	H 	0.45200 0.27820 0.97450 0.04100
H 	H 	0.39740 0.33260 0.97460 0.00300
H 	H 	0.44800 0.17700 0.21290 -0.03400
H 	H 	0.44720 0.24460 0.24720 -0.01600
H 	H 	0.40280 0.22210 0.25660 -0.00000
H 	H 	0.40580 0.25830 0.22120 0.02200
C 	C 	0.63390 0.84280 0.33570 -0.01400
H 	H 	0.61220 0.82220 0.33230 0.00200
N 	N 	0.88620 0.72990 0.53550 -0.28300
N 	N 	0.88050 0.69130 0.64070 -0.27000
C 	C 	0.86770 0.69420 0.52240 -0.00500
H 	H 	0.85650 0.67260 0.54010 -0.00100
H 	H 	0.87270 0.81030 0.52560 0.05900
H 	H 	0.94990 0.80840 0.52540 0.01400
C 	C 	0.88850 0.65110 0.61930 -0.02600
H 	H 	0.89280 0.64690 0.58980 0.00500
H 	H 	0.85780 0.73790 0.70120 0.02200
H 	H 	0.93520 0.69680 0.73290 0.13200
H 	H 	0.95200 0.77820 0.47450 0.04500
H 	H 	0.89740 0.83260 0.47460 0.00700
H 	H 	0.94800 0.67700 0.71290 -0.03400
H 	H 	0.94720 0.74460 0.74720 -0.01700
H 	H 	0.90280 0.72210 0.75660 -0.00100
H 	H 	0.90580 0.75830 0.72120 0.02200
C 	C 	0.13390 0.34280 0.83570 -0.01400
H 	H 	0.11220 0.32220 0.83230 0.00200
N 	N 	0.61380 0.77010 0.03550 -0.28500
N 	N 	0.61950 0.80870 0.14070 -0.27000
C 	C 	0.63230 0.80580 0.02240 0.00800
H 	H 	0.64350 0.82740 0.04010 -0.00400
H 	H 	0.62730 0.68970 0.02560 0.05700
H 	H 	0.55010 0.69160 0.02540 0.01400
C 	C 	0.61150 0.84890 0.11930 -0.02600
H 	H 	0.60720 0.85310 0.08980 0.00600
H 	H 	0.64220 0.76210 0.20120 0.02200
H 	H 	0.56480 0.80320 0.23290 0.13300
H 	H 	0.54800 0.72180 0.97450 0.04100
H 	H 	0.60260 0.66740 0.97460 0.00300
H 	H 	0.55200 0.82300 0.21290 -0.03300
H 	H 	0.55280 0.75540 0.24720 -0.01600
H 	H 	0.59720 0.77790 0.25660 -0.00000
H 	H 	0.59420 0.74170 0.22120 0.02200
C 	C 	0.36610 0.15720 0.33570 -0.01500
H 	H 	0.38780 0.17780 0.33230 0.00200
N 	N 	0.11380 0.27010 0.53550 -0.28200
N 	N 	0.11950 0.30870 0.64070 -0.27000
C 	C 	0.13230 0.30580 0.52240 -0.00500
H 	H 	0.14350 0.32740 0.54010 -0.00000
H 	H 	0.12730 0.18970 0.52560 0.05800
H 	H 	0.05010 0.19160 0.52540 0.01600
C 	C 	0.11150 0.34890 0.61930 -0.02600
H 	H 	0.10720 0.35310 0.58980 0.00600
H 	H 	0.14220 0.26210 0.70120 0.02100
H 	H 	0.06480 0.30320 0.73290 0.13400
H 	H 	0.04800 0.22180 0.47450 0.04600
H 	H 	0.10260 0.16740 0.47460 0.00700
H 	H 	0.05200 0.32300 0.71290 -0.03300
H 	H 	0.05280 0.25540 0.74720 -0.01600
H 	H 	0.09720 0.27790 0.75660 -0.00000
H 	H 	0.09420 0.24170 0.72120 0.02300
C 	C 	0.86610 0.65720 0.83570 -0.01500
H 	H 	0.88780 0.67780 0.83230 0.00100
N 	N 	0.38620 0.77010 0.96450 -0.28300
N 	N 	0.38050 0.80870 0.85930 -0.27000
C 	C 	0.36770 0.80580 0.97760 -0.01800
H 	H 	0.35650 0.82740 0.95990 0.00200
H 	H 	0.37270 0.68970 0.97440 0.05400
H 	H 	0.44990 0.69160 0.97460 0.01100
C 	C 	0.38850 0.84890 0.88070 -0.02600
H 	H 	0.39280 0.85310 0.91020 0.00400
H 	H 	0.35780 0.76210 0.79880 0.02200
H 	H 	0.43520 0.80320 0.76710 0.13300
H 	H 	0.45200 0.72180 0.02550 0.04400
H 	H 	0.39740 0.66740 0.02540 0.00600
H 	H 	0.44800 0.82300 0.78710 -0.03300
H 	H 	0.44720 0.75540 0.75280 -0.01600
H 	H 	0.40280 0.77790 0.74340 -0.00000
H 	H 	0.40580 0.74170 0.77880 0.02200
C 	C 	0.63390 0.15720 0.66430 -0.01400
H 	H 	0.61220 0.17780 0.66770 0.00200
N 	N 	0.88620 0.27010 0.46450 -0.28200
N 	N 	0.88050 0.30870 0.35930 -0.27100
C 	C 	0.86770 0.30580 0.47760 -0.00500
H 	H 	0.85650 0.32740 0.45990 -0.00100
H 	H 	0.87270 0.18970 0.47440 0.05900
H 	H 	0.94990 0.19160 0.47460 0.01400
C 	C 	0.88850 0.34890 0.38070 -0.02600
H 	H 	0.89280 0.35310 0.41020 0.00500
H 	H 	0.85780 0.26210 0.29880 0.02200
H 	H 	0.93520 0.30320 0.26710 0.13100
H 	H 	0.95200 0.22180 0.52550 0.04400
H 	H 	0.89740 0.16740 0.52540 0.00700
H 	H 	0.94800 0.32300 0.28710 -0.03300
H 	H 	0.94720 0.25540 0.25280 -0.01700
H 	H 	0.90280 0.27790 0.24340 -0.00100
H 	H 	0.90580 0.24170 0.27880 0.02200
C 	C 	0.13390 0.65720 0.16430 -0.01400
H 	H 	0.11220 0.67780 0.16770 0.00300
N 	N 	0.61380 0.22990 0.96450 -0.28300
N 	N 	0.61950 0.19130 0.85930 -0.27000
C 	C 	0.63230 0.19420 0.97760 -0.01800
H 	H 	0.64350 0.17260 0.95990 0.00300
H 	H 	0.62730 0.31030 0.97440 0.05400
H 	H 	0.55010 0.30840 0.97460 0.01100
C 	C 	0.61150 0.15110 0.88070 -0.02600
H 	H 	0.60720 0.14690 0.91020 0.00500
H 	H 	0.64220 0.23790 0.79880 0.02200
H 	H 	0.56480 0.19680 0.76710 0.13300
H 	H 	0.54800 0.27820 0.02550 0.04500
H 	H 	0.60260 0.33260 0.02540 0.00600
H 	H 	0.55200 0.17700 0.78710 -0.03300
H 	H 	0.55280 0.24460 0.75280 -0.01600
H 	H 	0.59720 0.22210 0.74340 -0.00000
H 	H 	0.59420 0.25830 0.77880 0.02200
C 	C 	0.36610 0.84280 0.66430 -0.01400
H 	H 	0.38780 0.82220 0.66770 0.00200
N 	N 	0.11380 0.72990 0.46450 -0.28300
N 	N 	0.11950 0.69130 0.35930 -0.27000
C 	C 	0.13230 0.69420 0.47760 -0.00500
H 	H 	0.14350 0.67260 0.45990 -0.00000
H 	H 	0.12730 0.81030 0.47440 0.05800
H 	H 	0.05010 0.80840 0.47460 0.01600
C 	C 	0.11150 0.65110 0.38070 -0.02600
H 	H 	0.10720 0.64690 0.41020 0.00600
H 	H 	0.14220 0.73790 0.29880 0.02100
H 	H 	0.06480 0.69680 0.26710 0.13400
H 	H 	0.04800 0.77820 0.52550 0.04700
H 	H 	0.10260 0.83260 0.52540 0.00700
H 	H 	0.05200 0.67700 0.28710 -0.03300
H 	H 	0.05280 0.74460 0.25280 -0.01600
H 	H 	0.09720 0.72210 0.24340 -0.00000
H 	H 	0.09420 0.75830 0.27880 0.02300
C 	C 	0.86610 0.34280 0.16430 -0.01400
H 	H 	0.88780 0.32220 0.16770 0.00200
N 	N 	0.22990 0.96450 0.61380 -0.28300
N 	N 	0.19130 0.85930 0.61950 -0.27000
C 	C 	0.19420 0.97760 0.63230 -0.01800
H 	H 	0.17260 0.95990 0.64350 0.00300
H 	H 	0.31030 0.97440 0.62730 0.05400
H 	H 	0.30840 0.97460 0.55010 0.01100
C 	C 	0.15110 0.88070 0.61150 -0.02600
H 	H 	0.14690 0.91020 0.60720 0.00500
H 	H 	0.23790 0.79880 0.64220 0.02200
H 	H 	0.19680 0.76710 0.56480 0.13300
H 	H 	0.27820 0.02550 0.54800 0.04500
H 	H 	0.33260 0.02540 0.60260 0.00600
H 	H 	0.17700 0.78710 0.55200 -0.03300
H 	H 	0.24460 0.75280 0.55280 -0.01600
H 	H 	0.22210 0.74340 0.59720 -0.00000
H 	H 	0.25830 0.77880 0.59420 0.02200
C 	C 	0.84280 0.66430 0.36610 -0.01400
H 	H 	0.82220 0.66770 0.38780 0.00200
N 	N 	0.72990 0.46450 0.11380 -0.28300
N 	N 	0.69130 0.35930 0.11950 -0.27000
C 	C 	0.69420 0.47760 0.13230 -0.00500
H 	H 	0.67260 0.45990 0.14350 -0.00000
H 	H 	0.81030 0.47440 0.12730 0.05800
H 	H 	0.80840 0.47460 0.05010 0.01600
C 	C 	0.65110 0.38070 0.11150 -0.02600
H 	H 	0.64690 0.41020 0.10720 0.00600
H 	H 	0.73790 0.29880 0.14220 0.02100
H 	H 	0.69680 0.26710 0.06480 0.13400
H 	H 	0.77820 0.52550 0.04800 0.04700
H 	H 	0.83260 0.52540 0.10260 0.00700
H 	H 	0.67700 0.28710 0.05200 -0.03300
H 	H 	0.74460 0.25280 0.05280 -0.01600
H 	H 	0.72210 0.24340 0.09720 -0.00000
H 	H 	0.75830 0.27880 0.09420 0.02300
C 	C 	0.34280 0.16430 0.86610 -0.01400
H 	H 	0.32220 0.16770 0.88780 0.00200
N 	N 	0.77010 0.96450 0.38620 -0.28300
N 	N 	0.80870 0.85930 0.38050 -0.27000
C 	C 	0.80580 0.97760 0.36770 -0.01800
H 	H 	0.82740 0.95990 0.35650 0.00200
H 	H 	0.68970 0.97440 0.37270 0.05400
H 	H 	0.69160 0.97460 0.44990 0.01100
C 	C 	0.84890 0.88070 0.38850 -0.02600
H 	H 	0.85310 0.91020 0.39280 0.00400
H 	H 	0.76210 0.79880 0.35780 0.02200
H 	H 	0.80320 0.76710 0.43520 0.13300
H 	H 	0.72180 0.02550 0.45200 0.04400
H 	H 	0.66740 0.02540 0.39740 0.00600
H 	H 	0.82300 0.78710 0.44800 -0.03300
H 	H 	0.75540 0.75280 0.44720 -0.01600
H 	H 	0.77790 0.74340 0.40280 -0.00000
H 	H 	0.74170 0.77880 0.40580 0.02200
C 	C 	0.15720 0.66430 0.63390 -0.01400
H 	H 	0.17780 0.66770 0.61220 0.00200
N 	N 	0.27010 0.46450 0.88620 -0.28200
N 	N 	0.30870 0.35930 0.88050 -0.27100
C 	C 	0.30580 0.47760 0.86770 -0.00500
H 	H 	0.32740 0.45990 0.85650 -0.00100
H 	H 	0.18970 0.47440 0.87270 0.05900
H 	H 	0.19160 0.47460 0.94990 0.01400
C 	C 	0.34890 0.38070 0.88850 -0.02600
H 	H 	0.35310 0.41020 0.89280 0.00500
H 	H 	0.26210 0.29880 0.85780 0.02200
H 	H 	0.30320 0.26710 0.93520 0.13100
H 	H 	0.22180 0.52550 0.95200 0.04400
H 	H 	0.16740 0.52540 0.89740 0.00700
H 	H 	0.32300 0.28710 0.94800 -0.03300
H 	H 	0.25540 0.25280 0.94720 -0.01700
H 	H 	0.27790 0.24340 0.90280 -0.00100
H 	H 	0.24170 0.27880 0.90580 0.02200
C 	C 	0.65720 0.16430 0.13390 -0.01400
H 	H 	0.67780 0.16770 0.11220 0.00300
N 	N 	0.77010 0.03550 0.61380 -0.28500
N 	N 	0.80870 0.14070 0.61950 -0.27000
C 	C 	0.80580 0.02240 0.63230 0.00800
H 	H 	0.82740 0.04010 0.64350 -0.00400
H 	H 	0.68970 0.02560 0.62730 0.05700
H 	H 	0.69160 0.02540 0.55010 0.01400
C 	C 	0.84890 0.11930 0.61150 -0.02600
H 	H 	0.85310 0.08980 0.60720 0.00600
H 	H 	0.76210 0.20120 0.64220 0.02200
H 	H 	0.80320 0.23290 0.56480 0.13300
H 	H 	0.72180 0.97450 0.54800 0.04100
H 	H 	0.66740 0.97460 0.60260 0.00300
H 	H 	0.82300 0.21290 0.55200 -0.03300
H 	H 	0.75540 0.24720 0.55280 -0.01600
H 	H 	0.77790 0.25660 0.59720 -0.00000
H 	H 	0.74170 0.22120 0.59420 0.02200
C 	C 	0.15720 0.33570 0.36610 -0.01500
H 	H 	0.17780 0.33230 0.38780 0.00200
N 	N 	0.27010 0.53550 0.11380 -0.28200
N 	N 	0.30870 0.64070 0.11950 -0.27000
C 	C 	0.30580 0.52240 0.13230 -0.00500
H 	H 	0.32740 0.54010 0.14350 -0.00000
H 	H 	0.18970 0.52560 0.12730 0.05800
H 	H 	0.19160 0.52540 0.05010 0.01600
C 	C 	0.34890 0.61930 0.11150 -0.02600
H 	H 	0.35310 0.58980 0.10720 0.00600
H 	H 	0.26210 0.70120 0.14220 0.02100
H 	H 	0.30320 0.73290 0.06480 0.13400
H 	H 	0.22180 0.47450 0.04800 0.04600
H 	H 	0.16740 0.47460 0.10260 0.00700
H 	H 	0.32300 0.71290 0.05200 -0.03300
H 	H 	0.25540 0.74720 0.05280 -0.01600
H 	H 	0.27790 0.75660 0.09720 -0.00000
H 	H 	0.24170 0.72120 0.09420 0.02300
C 	C 	0.65720 0.83570 0.86610 -0.01500
H 	H 	0.67780 0.83230 0.88780 0.00100
N 	N 	0.22990 0.03550 0.38620 -0.28500
N 	N 	0.19130 0.14070 0.38050 -0.27000
C 	C 	0.19420 0.02240 0.36770 0.00800
H 	H 	0.17260 0.04010 0.35650 -0.00300
H 	H 	0.31030 0.02560 0.37270 0.05700
H 	H 	0.30840 0.02540 0.44990 0.01400
C 	C 	0.15110 0.11930 0.38850 -0.02600
H 	H 	0.14690 0.08980 0.39280 0.00600
H 	H 	0.23790 0.20120 0.35780 0.02200
H 	H 	0.19680 0.23290 0.43520 0.13300
H 	H 	0.27820 0.97450 0.45200 0.04100
H 	H 	0.33260 0.97460 0.39740 0.00300
H 	H 	0.17700 0.21290 0.44800 -0.03400
H 	H 	0.24460 0.24720 0.44720 -0.01600
H 	H 	0.22210 0.25660 0.40280 -0.00000
H 	H 	0.25830 0.22120 0.40580 0.02200
C 	C 	0.84280 0.33570 0.63390 -0.01400
H 	H 	0.82220 0.33230 0.61220 0.00200
N 	N 	0.72990 0.53550 0.88620 -0.28300
N 	N 	0.69130 0.64070 0.88050 -0.27000
C 	C 	0.69420 0.52240 0.86770 -0.00500
H 	H 	0.67260 0.54010 0.85650 -0.00100
H 	H 	0.81030 0.52560 0.87270 0.05900
H 	H 	0.80840 0.52540 0.94990 0.01400
C 	C 	0.65110 0.61930 0.88850 -0.02600
H 	H 	0.64690 0.58980 0.89280 0.00500
H 	H 	0.73790 0.70120 0.85780 0.02200
H 	H 	0.69680 0.73290 0.93520 0.13200
H 	H 	0.77820 0.47450 0.95200 0.04500
H 	H 	0.83260 0.47460 0.89740 0.00700
H 	H 	0.67700 0.71290 0.94800 -0.03400
H 	H 	0.74460 0.74720 0.94720 -0.01700
H 	H 	0.72210 0.75660 0.90280 -0.00100
H 	H 	0.75830 0.72120 0.90580 0.02200
C 	C 	0.34280 0.83570 0.13390 -0.01400
H 	H 	0.32220 0.83230 0.11220 0.00200
N 	N 	0.96450 0.38620 0.77010 -0.28300
N 	N 	0.85930 0.38050 0.80870 -0.27000
C 	C 	0.97760 0.36770 0.80580 -0.01800
H 	H 	0.95990 0.35650 0.82740 0.00200
H 	H 	0.97440 0.37270 0.68970 0.05400
H 	H 	0.97460 0.44990 0.69160 0.01100
C 	C 	0.88070 0.38850 0.84890 -0.02600
H 	H 	0.91020 0.39280 0.85310 0.00400
H 	H 	0.79880 0.35780 0.76210 0.02200
H 	H 	0.76710 0.43520 0.80320 0.13300
H 	H 	0.02550 0.45200 0.72180 0.04400
H 	H 	0.02540 0.39740 0.66740 0.00600
H 	H 	0.78710 0.44800 0.82300 -0.03300
H 	H 	0.75280 0.44720 0.75540 -0.01600
H 	H 	0.74340 0.40280 0.77790 -0.00000
H 	H 	0.77880 0.40580 0.74170 0.02200
C 	C 	0.66430 0.63390 0.15720 -0.01400
H 	H 	0.66770 0.61220 0.17780 0.00200
N 	N 	0.46450 0.88620 0.27010 -0.28200
N 	N 	0.35930 0.88050 0.30870 -0.27100
C 	C 	0.47760 0.86770 0.30580 -0.00500
H 	H 	0.45990 0.85650 0.32740 -0.00100
H 	H 	0.47440 0.87270 0.18970 0.05900
H 	H 	0.47460 0.94990 0.19160 0.01400
C 	C 	0.38070 0.88850 0.34890 -0.02600
H 	H 	0.41020 0.89280 0.35310 0.00500
H 	H 	0.29880 0.85780 0.26210 0.02200
H 	H 	0.26710 0.93520 0.30320 0.13100
H 	H 	0.52550 0.95200 0.22180 0.04400
H 	H 	0.52540 0.89740 0.16740 0.00700
H 	H 	0.28710 0.94800 0.32300 -0.03300
H 	H 	0.25280 0.94720 0.25540 -0.01700
H 	H 	0.24340 0.90280 0.27790 -0.00100
H 	H 	0.27880 0.90580 0.24170 0.02200
C 	C 	0.16430 0.13390 0.65720 -0.01400
H 	H 	0.16770 0.11220 0.67780 0.00300
N 	N 	0.96450 0.61380 0.22990 -0.28300
N 	N 	0.85930 0.61950 0.19130 -0.27000
C 	C 	0.97760 0.63230 0.19420 -0.01800
H 	H 	0.95990 0.64350 0.17260 0.00300
H 	H 	0.97440 0.62730 0.31030 0.05400
H 	H 	0.97460 0.55010 0.30840 0.01100
C 	C 	0.88070 0.61150 0.15110 -0.02600
H 	H 	0.91020 0.60720 0.14690 0.00500
H 	H 	0.79880 0.64220 0.23790 0.02200
H 	H 	0.76710 0.56480 0.19680 0.13300
H 	H 	0.02550 0.54800 0.27820 0.04500
H 	H 	0.02540 0.60260 0.33260 0.00600
H 	H 	0.78710 0.55200 0.17700 -0.03300
H 	H 	0.75280 0.55280 0.24460 -0.01600
H 	H 	0.74340 0.59720 0.22210 -0.00000
H 	H 	0.77880 0.59420 0.25830 0.02200
C 	C 	0.66430 0.36610 0.84280 -0.01400
H 	H 	0.66770 0.38780 0.82220 0.00200
N 	N 	0.46450 0.11380 0.72990 -0.28300
N 	N 	0.35930 0.11950 0.69130 -0.27000
C 	C 	0.47760 0.13230 0.69420 -0.00500
H 	H 	0.45990 0.14350 0.67260 -0.00000
H 	H 	0.47440 0.12730 0.81030 0.05800
H 	H 	0.47460 0.05010 0.80840 0.01600
C 	C 	0.38070 0.11150 0.65110 -0.02600
H 	H 	0.41020 0.10720 0.64690 0.00600
H 	H 	0.29880 0.14220 0.73790 0.02100
H 	H 	0.26710 0.06480 0.69680 0.13400
H 	H 	0.52550 0.04800 0.77820 0.04700
H 	H 	0.52540 0.10260 0.83260 0.00700
H 	H 	0.28710 0.05200 0.67700 -0.03300
H 	H 	0.25280 0.05280 0.74460 -0.01600
H 	H 	0.24340 0.09720 0.72210 -0.00000
H 	H 	0.27880 0.09420 0.75830 0.02300
C 	C 	0.16430 0.86610 0.34280 -0.01400
H 	H 	0.16770 0.88780 0.32220 0.00200
N 	N 	0.03550 0.38620 0.22990 -0.28500
N 	N 	0.14070 0.38050 0.19130 -0.27000
C 	C 	0.02240 0.36770 0.19420 0.00800
H 	H 	0.04010 0.35650 0.17260 -0.00300
H 	H 	0.02560 0.37270 0.31030 0.05700
H 	H 	0.02540 0.44990 0.30840 0.01400
C 	C 	0.11930 0.38850 0.15110 -0.02600
H 	H 	0.08980 0.39280 0.14690 0.00600
H 	H 	0.20120 0.35780 0.23790 0.02200
H 	H 	0.23290 0.43520 0.19680 0.13300
H 	H 	0.97450 0.45200 0.27820 0.04100
H 	H 	0.97460 0.39740 0.33260 0.00300
H 	H 	0.21290 0.44800 0.17700 -0.03400
H 	H 	0.24720 0.44720 0.24460 -0.01600
H 	H 	0.25660 0.40280 0.22210 -0.00000
H 	H 	0.22120 0.40580 0.25830 0.02200
C 	C 	0.33570 0.63390 0.84280 -0.01400
H 	H 	0.33230 0.61220 0.82220 0.00200
N 	N 	0.53550 0.88620 0.72990 -0.28300
N 	N 	0.64070 0.88050 0.69130 -0.27000
C 	C 	0.52240 0.86770 0.69420 -0.00500
H 	H 	0.54010 0.85650 0.67260 -0.00100
H 	H 	0.52560 0.87270 0.81030 0.05900
H 	H 	0.52540 0.94990 0.80840 0.01400
C 	C 	0.61930 0.88850 0.65110 -0.02600
H 	H 	0.58980 0.89280 0.64690 0.00500
H 	H 	0.70120 0.85780 0.73790 0.02200
H 	H 	0.73290 0.93520 0.69680 0.13200
H 	H 	0.47450 0.95200 0.77820 0.04500
H 	H 	0.47460 0.89740 0.83260 0.00700
H 	H 	0.71290 0.94800 0.67700 -0.03400
H 	H 	0.74720 0.94720 0.74460 -0.01700
H 	H 	0.75660 0.90280 0.72210 -0.00100
H 	H 	0.72120 0.90580 0.75830 0.02200
C 	C 	0.83570 0.13390 0.34280 -0.01400
H 	H 	0.83230 0.11220 0.32220 0.00200
N 	N 	0.03550 0.61380 0.77010 -0.28500
N 	N 	0.14070 0.61950 0.80870 -0.27000
C 	C 	0.02240 0.63230 0.80580 0.00800
H 	H 	0.04010 0.64350 0.82740 -0.00400
H 	H 	0.02560 0.62730 0.68970 0.05700
H 	H 	0.02540 0.55010 0.69160 0.01400
C 	C 	0.11930 0.61150 0.84890 -0.02600
H 	H 	0.08980 0.60720 0.85310 0.00600
H 	H 	0.20120 0.64220 0.76210 0.02200
H 	H 	0.23290 0.56480 0.80320 0.13300
H 	H 	0.97450 0.54800 0.72180 0.04100
H 	H 	0.97460 0.60260 0.66740 0.00300
H 	H 	0.21290 0.55200 0.82300 -0.03300
H 	H 	0.24720 0.55280 0.75540 -0.01600
H 	H 	0.25660 0.59720 0.77790 -0.00000
H 	H 	0.22120 0.59420 0.74170 0.02200
C 	C 	0.33570 0.36610 0.15720 -0.01500
H 	H 	0.33230 0.38780 0.17780 0.00200
N 	N 	0.53550 0.11380 0.27010 -0.28200
N 	N 	0.64070 0.11950 0.30870 -0.27000
C 	C 	0.52240 0.13230 0.30580 -0.00500
H 	H 	0.54010 0.14350 0.32740 -0.00000
H 	H 	0.52560 0.12730 0.18970 0.05800
H 	H 	0.52540 0.05010 0.19160 0.01600
C 	C 	0.61930 0.11150 0.34890 -0.02600
H 	H 	0.58980 0.10720 0.35310 0.00600
H 	H 	0.70120 0.14220 0.26210 0.02100
H 	H 	0.73290 0.06480 0.30320 0.13400
H 	H 	0.47450 0.04800 0.22180 0.04600
H 	H 	0.47460 0.10260 0.16740 0.00700
H 	H 	0.71290 0.05200 0.32300 -0.03300
H 	H 	0.74720 0.05280 0.25540 -0.01600
H 	H 	0.75660 0.09720 0.27790 -0.00000
H 	H 	0.72120 0.09420 0.24170 0.02300
C 	C 	0.83570 0.86610 0.65720 -0.01500
H 	H 	0.83230 0.88780 0.67780 0.00100
Cd	Cd	0.75000 0.60389 0.10389 1.17900
Cd	Cd	0.25000 0.39611 0.10389 1.17900
Cd	Cd	0.25000 0.60389 0.89611 1.17900
Cd	Cd	0.75000 0.39611 0.89611 1.17900
Cd	Cd	0.10389 0.75000 0.60389 1.17900
Cd	Cd	0.10389 0.25000 0.39611 1.17900
Cd	Cd	0.89611 0.25000 0.60389 1.17900
Cd	Cd	0.89611 0.75000 0.39611 1.17900
Cd	Cd	0.60389 0.10389 0.75000 1.17900
Cd	Cd	0.39611 0.10389 0.25000 1.17900
Cd	Cd	0.60389 0.89611 0.25000 1.17900
Cd	Cd	0.39611 0.89611 0.75000 1.17900
Cd	Cd	0.60389 0.75000 0.89611 1.17900
Cd	Cd	0.39611 0.25000 0.89611 1.17900
Cd	Cd	0.60389 0.25000 0.10389 1.17900
Cd	Cd	0.39611 0.75000 0.10389 1.17900
Cd	Cd	0.75000 0.10389 0.39611 1.17900
Cd	Cd	0.25000 0.10389 0.60389 1.17900
Cd	Cd	0.25000 0.89611 0.39611 1.17900
Cd	Cd	0.75000 0.89611 0.60389 1.17900
Cd	Cd	0.10389 0.60389 0.25000 1.17900
Cd	Cd	0.10389 0.39611 0.75000 1.17900
Cd	Cd	0.89611 0.60389 0.75000 1.17900
Cd	Cd	0.89611 0.39611 0.25000 1.17900
Cd	Cd	0.25000 0.39611 0.89611 1.17900
Cd	Cd	0.75000 0.60389 0.89611 1.17900
Cd	Cd	0.75000 0.39611 0.10389 1.17900
Cd	Cd	0.25000 0.89611 0.60389 1.17900
Cd	Cd	0.25000 0.60389 0.10389 1.17900
Cd	Cd	0.89611 0.25000 0.39611 1.17900
Cd	Cd	0.89611 0.75000 0.60389 1.17900
Cd	Cd	0.10389 0.75000 0.39611 1.17900
Cd	Cd	0.60389 0.25000 0.89611 1.17900
Cd	Cd	0.10389 0.25000 0.60389 1.17900
Cd	Cd	0.39611 0.89611 0.25000 1.17900
Cd	Cd	0.60389 0.89611 0.75000 1.17900
Cd	Cd	0.39611 0.10389 0.75000 1.17900
Cd	Cd	0.89611 0.60389 0.25000 1.17900
Cd	Cd	0.60389 0.10389 0.25000 1.17900
Cd	Cd	0.39611 0.25000 0.10389 1.17900
Cd	Cd	0.60389 0.75000 0.10389 1.17900
Cd	Cd	0.39611 0.75000 0.89611 1.17900
Cd	Cd	0.75000 0.89611 0.39611 1.17900
Cd	Cd	0.75000 0.10389 0.60389 1.17900
Cd	Cd	0.25000 0.10389 0.39611 1.17900
Cd	Cd	0.89611 0.39611 0.75000 1.17900
Cd	Cd	0.10389 0.39611 0.25000 1.17900
Cd	Cd	0.10389 0.60389 0.75000 1.17900
C 	C 	0.81960 0.61060 0.18040 0.14900
C 	C 	0.78630 0.62660 0.21370 -0.11000
C 	C 	0.77730 0.57850 0.22270 -0.35300
H 	H 	0.75535 0.57600 0.24465 0.14300
C 	C 	0.80010 0.56910 0.19990 -0.06100
C 	C 	0.76550 0.57900 0.23450 -0.04100
C 	C 	0.31960 0.11060 0.68040 0.14800
C 	C 	0.28630 0.12660 0.71370 -0.10900
C 	C 	0.27730 0.07850 0.72270 -0.35500
H 	H 	0.25535 0.07600 0.74465 0.14400
C 	C 	0.30010 0.06910 0.69990 -0.06000
C 	C 	0.26550 0.07900 0.73450 -0.04200
C 	C 	0.18040 0.38940 0.18040 0.14900
C 	C 	0.21370 0.37340 0.21370 -0.11000
C 	C 	0.22270 0.42150 0.22270 -0.35300
H 	H 	0.24465 0.42400 0.24465 0.14300
C 	C 	0.19990 0.43090 0.19990 -0.06100
C 	C 	0.23450 0.42100 0.23450 -0.04100
C 	C 	0.68040 0.88940 0.68040 0.14900
C 	C 	0.71370 0.87340 0.71370 -0.11100
C 	C 	0.72270 0.92150 0.72270 -0.35100
H 	H 	0.74465 0.92400 0.74465 0.14200
C 	C 	0.69990 0.93090 0.69990 -0.06100
C 	C 	0.73450 0.92100 0.73450 -0.04000
C 	C 	0.18040 0.61060 0.81960 0.14900
C 	C 	0.21370 0.62660 0.78630 -0.11000
C 	C 	0.22270 0.57850 0.77730 -0.35300
H 	H 	0.24465 0.57600 0.75535 0.14300
C 	C 	0.19990 0.56910 0.80010 -0.06100
C 	C 	0.23450 0.57900 0.76550 -0.04100
C 	C 	0.68040 0.11060 0.31960 0.14800
C 	C 	0.71370 0.12660 0.28630 -0.10900
C 	C 	0.72270 0.07850 0.27730 -0.35500
H 	H 	0.74465 0.07600 0.25535 0.14400
C 	C 	0.69990 0.06910 0.30010 -0.06000
C 	C 	0.73450 0.07900 0.26550 -0.04200
C 	C 	0.81960 0.38940 0.81960 0.14900
C 	C 	0.78630 0.37340 0.78630 -0.11000
C 	C 	0.77730 0.42150 0.77730 -0.35300
H 	H 	0.75535 0.42400 0.75535 0.14300
C 	C 	0.80010 0.43090 0.80010 -0.06100
C 	C 	0.76550 0.42100 0.76550 -0.04100
C 	C 	0.31960 0.88940 0.31960 0.15000
C 	C 	0.28630 0.87340 0.28630 -0.11200
C 	C 	0.27730 0.92150 0.27730 -0.34800
H 	H 	0.25535 0.92400 0.25535 0.14100
C 	C 	0.30010 0.93090 0.30010 -0.06400
C 	C 	0.26550 0.92100 0.26550 -0.03800
C 	C 	0.18040 0.81960 0.61060 0.14900
C 	C 	0.21370 0.78630 0.62660 -0.11000
C 	C 	0.22270 0.77730 0.57850 -0.35300
H 	H 	0.24465 0.75535 0.57600 0.14300
C 	C 	0.19990 0.80010 0.56910 -0.06100
C 	C 	0.23450 0.76550 0.57900 -0.04100
C 	C 	0.68040 0.31960 0.11060 0.14800
C 	C 	0.71370 0.28630 0.12660 -0.10900
C 	C 	0.72270 0.27730 0.07850 -0.35500
H 	H 	0.74465 0.25535 0.07600 0.14400
C 	C 	0.69990 0.30010 0.06910 -0.06000
C 	C 	0.73450 0.26550 0.07900 -0.04200
C 	C 	0.18040 0.18040 0.38940 0.14900
C 	C 	0.21370 0.21370 0.37340 -0.11000
C 	C 	0.22270 0.22270 0.42150 -0.35300
H 	H 	0.24465 0.24465 0.42400 0.14300
C 	C 	0.19990 0.19990 0.43090 -0.06100
C 	C 	0.23450 0.23450 0.42100 -0.04100
C 	C 	0.68040 0.68040 0.88940 0.14900
C 	C 	0.71370 0.71370 0.87340 -0.11100
C 	C 	0.72270 0.72270 0.92150 -0.35100
H 	H 	0.74465 0.74465 0.92400 0.14200
C 	C 	0.69990 0.69990 0.93090 -0.06100
C 	C 	0.73450 0.73450 0.92100 -0.04000
C 	C 	0.81960 0.18040 0.61060 0.14900
C 	C 	0.78630 0.21370 0.62660 -0.11000
C 	C 	0.77730 0.22270 0.57850 -0.35300
H 	H 	0.75535 0.24465 0.57600 0.14300
C 	C 	0.80010 0.19990 0.56910 -0.06100
C 	C 	0.76550 0.23450 0.57900 -0.04100
C 	C 	0.31960 0.68040 0.11060 0.14800
C 	C 	0.28630 0.71370 0.12660 -0.10900
C 	C 	0.27730 0.72270 0.07850 -0.35500
H 	H 	0.25535 0.74465 0.07600 0.14400
C 	C 	0.30010 0.69990 0.06910 -0.06000
C 	C 	0.26550 0.73450 0.07900 -0.04200
C 	C 	0.81960 0.81960 0.38940 0.14900
C 	C 	0.78630 0.78630 0.37340 -0.11000
C 	C 	0.77730 0.77730 0.42150 -0.35300
H 	H 	0.75535 0.75535 0.42400 0.14300
C 	C 	0.80010 0.80010 0.43090 -0.06100
C 	C 	0.76550 0.76550 0.42100 -0.04100
C 	C 	0.31960 0.31960 0.88940 0.15000
C 	C 	0.28630 0.28630 0.87340 -0.11200
C 	C 	0.27730 0.27730 0.92150 -0.34800
H 	H 	0.25535 0.25535 0.92400 0.14100
C 	C 	0.30010 0.30010 0.93090 -0.06400
C 	C 	0.26550 0.26550 0.92100 -0.03800
C 	C 	0.61060 0.18040 0.81960 0.14900
C 	C 	0.62660 0.21370 0.78630 -0.11000
C 	C 	0.57850 0.22270 0.77730 -0.35300
H 	H 	0.57600 0.24465 0.75535 0.14300
C 	C 	0.56910 0.19990 0.80010 -0.06100
C 	C 	0.57900 0.23450 0.76550 -0.04100
C 	C 	0.11060 0.68040 0.31960 0.14800
C 	C 	0.12660 0.71370 0.28630 -0.10900
C 	C 	0.07850 0.72270 0.27730 -0.35500
H 	H 	0.07600 0.74465 0.25535 0.14400
C 	C 	0.06910 0.69990 0.30010 -0.06000
C 	C 	0.07900 0.73450 0.26550 -0.04200
C 	C 	0.38940 0.18040 0.18040 0.14900
C 	C 	0.37340 0.21370 0.21370 -0.11000
C 	C 	0.42150 0.22270 0.22270 -0.35300
H 	H 	0.42400 0.24465 0.24465 0.14300
C 	C 	0.43090 0.19990 0.19990 -0.06100
C 	C 	0.42100 0.23450 0.23450 -0.04100
C 	C 	0.88940 0.68040 0.68040 0.14900
C 	C 	0.87340 0.71370 0.71370 -0.11100
C 	C 	0.92150 0.72270 0.72270 -0.35100
H 	H 	0.92400 0.74465 0.74465 0.14200
C 	C 	0.93090 0.69990 0.69990 -0.06100
C 	C 	0.92100 0.73450 0.73450 -0.04000
C 	C 	0.61060 0.81960 0.18040 0.14900
C 	C 	0.62660 0.78630 0.21370 -0.11000
C 	C 	0.57850 0.77730 0.22270 -0.35300
H 	H 	0.57600 0.75535 0.24465 0.14300
C 	C 	0.56910 0.80010 0.19990 -0.06100
C 	C 	0.57900 0.76550 0.23450 -0.04100
C 	C 	0.11060 0.31960 0.68040 0.14800
C 	C 	0.12660 0.28630 0.71370 -0.10900
C 	C 	0.07850 0.27730 0.72270 -0.35500
H 	H 	0.07600 0.25535 0.74465 0.14400
C 	C 	0.06910 0.30010 0.69990 -0.06000
C 	C 	0.07900 0.26550 0.73450 -0.04200
C 	C 	0.38940 0.81960 0.81960 0.14900
C 	C 	0.37340 0.78630 0.78630 -0.11000
C 	C 	0.42150 0.77730 0.77730 -0.35300
H 	H 	0.42400 0.75535 0.75535 0.14300
C 	C 	0.43090 0.80010 0.80010 -0.06100
C 	C 	0.42100 0.76550 0.76550 -0.04100
C 	C 	0.88940 0.31960 0.31960 0.15000
C 	C 	0.87340 0.28630 0.28630 -0.11200
C 	C 	0.92150 0.27730 0.27730 -0.34800
H 	H 	0.92400 0.25535 0.25535 0.14100
C 	C 	0.93090 0.30010 0.30010 -0.06400
C 	C 	0.92100 0.26550 0.26550 -0.03800
C 	C 	0.61060 0.81960 0.81960 0.14900
C 	C 	0.62660 0.78630 0.78630 -0.11000
C 	C 	0.57850 0.77730 0.77730 -0.35300
H 	H 	0.57600 0.75535 0.75535 0.14300
C 	C 	0.56910 0.80010 0.80010 -0.06100
C 	C 	0.57900 0.76550 0.76550 -0.04000
C 	C 	0.11060 0.31960 0.31960 0.14900
C 	C 	0.12660 0.28630 0.28630 -0.10900
C 	C 	0.07850 0.27730 0.27730 -0.35400
H 	H 	0.07600 0.25535 0.25535 0.14400
C 	C 	0.06910 0.30010 0.30010 -0.06100
C 	C 	0.07900 0.26550 0.26550 -0.04100
C 	C 	0.38940 0.18040 0.81960 0.14900
C 	C 	0.37340 0.21370 0.78630 -0.11000
C 	C 	0.42150 0.22270 0.77730 -0.35300
H 	H 	0.42400 0.24465 0.75535 0.14300
C 	C 	0.43090 0.19990 0.80010 -0.06100
C 	C 	0.42100 0.23450 0.76550 -0.04100
C 	C 	0.88940 0.68040 0.31960 0.14900
C 	C 	0.87340 0.71370 0.28630 -0.11100
C 	C 	0.92150 0.72270 0.27730 -0.34900
H 	H 	0.92400 0.74465 0.25535 0.14100
C 	C 	0.93090 0.69990 0.30010 -0.06200
C 	C 	0.92100 0.73450 0.26550 -0.03900
C 	C 	0.61060 0.18040 0.18040 0.14900
C 	C 	0.62660 0.21370 0.21370 -0.11000
C 	C 	0.57850 0.22270 0.22270 -0.35300
H 	H 	0.57600 0.24465 0.24465 0.14300
C 	C 	0.56910 0.19990 0.19990 -0.06100
C 	C 	0.57900 0.23450 0.23450 -0.04100
C 	C 	0.11060 0.68040 0.68040 0.14800
C 	C 	0.12660 0.71370 0.71370 -0.10800
C 	C 	0.07850 0.72270 0.72270 -0.35600
H 	H 	0.07600 0.74465 0.74465 0.14500
C 	C 	0.06910 0.69990 0.69990 -0.05800
C 	C 	0.07900 0.73450 0.73450 -0.04200
C 	C 	0.38940 0.81960 0.18040 0.14900
C 	C 	0.37340 0.78630 0.21370 -0.11000
C 	C 	0.42150 0.77730 0.22270 -0.35300
H 	H 	0.42400 0.75535 0.24465 0.14300
C 	C 	0.43090 0.80010 0.19990 -0.06100
C 	C 	0.42100 0.76550 0.23450 -0.04100
C 	C 	0.88940 0.31960 0.68040 0.14900
C 	C 	0.87340 0.28630 0.71370 -0.11100
C 	C 	0.92150 0.27730 0.72270 -0.34900
H 	H 	0.92400 0.25535 0.74465 0.14100
C 	C 	0.93090 0.30010 0.69990 -0.06200
C 	C 	0.92100 0.26550 0.73450 -0.03900
C 	C 	0.81960 0.18040 0.38940 0.14900
C 	C 	0.78630 0.21370 0.37340 -0.11000
C 	C 	0.77730 0.22270 0.42150 -0.35300
H 	H 	0.75535 0.24465 0.42400 0.14300
C 	C 	0.80010 0.19990 0.43090 -0.06100
C 	C 	0.76550 0.23450 0.42100 -0.04100
C 	C 	0.31960 0.68040 0.88940 0.14900
C 	C 	0.28630 0.71370 0.87340 -0.11100
C 	C 	0.27730 0.72270 0.92150 -0.34900
H 	H 	0.25535 0.74465 0.92400 0.14100
C 	C 	0.30010 0.69990 0.93090 -0.06200
C 	C 	0.26550 0.73450 0.92100 -0.03900
C 	C 	0.18040 0.18040 0.61060 0.14900
C 	C 	0.21370 0.21370 0.62660 -0.11000
C 	C 	0.22270 0.22270 0.57850 -0.35300
H 	H 	0.24465 0.24465 0.57600 0.14300
C 	C 	0.19990 0.19990 0.56910 -0.06100
C 	C 	0.23450 0.23450 0.57900 -0.04100
C 	C 	0.68040 0.68040 0.11060 0.14800
C 	C 	0.71370 0.71370 0.12660 -0.10800
C 	C 	0.72270 0.72270 0.07850 -0.35600
H 	H 	0.74465 0.74465 0.07600 0.14500
C 	C 	0.69990 0.69990 0.06910 -0.05800
C 	C 	0.73450 0.73450 0.07900 -0.04200
C 	C 	0.18040 0.81960 0.38940 0.14900
C 	C 	0.21370 0.78630 0.37340 -0.11000
C 	C 	0.22270 0.77730 0.42150 -0.35300
H 	H 	0.24465 0.75535 0.42400 0.14300
C 	C 	0.19990 0.80010 0.43090 -0.06100
C 	C 	0.23450 0.76550 0.42100 -0.04100
C 	C 	0.68040 0.31960 0.88940 0.14900
C 	C 	0.71370 0.28630 0.87340 -0.11100
C 	C 	0.72270 0.27730 0.92150 -0.34900
H 	H 	0.74465 0.25535 0.92400 0.14100
C 	C 	0.69990 0.30010 0.93090 -0.06200
C 	C 	0.73450 0.26550 0.92100 -0.03900
C 	C 	0.81960 0.81960 0.61060 0.14900
C 	C 	0.78630 0.78630 0.62660 -0.11000
C 	C 	0.77730 0.77730 0.57850 -0.35300
H 	H 	0.75535 0.75535 0.57600 0.14300
C 	C 	0.80010 0.80010 0.56910 -0.06100
C 	C 	0.76550 0.76550 0.57900 -0.04000
C 	C 	0.31960 0.31960 0.11060 0.14900
C 	C 	0.28630 0.28630 0.12660 -0.10900
C 	C 	0.27730 0.27730 0.07850 -0.35400
H 	H 	0.25535 0.25535 0.07600 0.14400
C 	C 	0.30010 0.30010 0.06910 -0.06100
C 	C 	0.26550 0.26550 0.07900 -0.04100
C 	C 	0.18040 0.61060 0.18040 0.14900
C 	C 	0.21370 0.62660 0.21370 -0.11000
C 	C 	0.22270 0.57850 0.22270 -0.35300
H 	H 	0.24465 0.57600 0.24465 0.14300
C 	C 	0.19990 0.56910 0.19990 -0.06100
C 	C 	0.23450 0.57900 0.23450 -0.04100
C 	C 	0.68040 0.11060 0.68040 0.14800
C 	C 	0.71370 0.12660 0.71370 -0.10800
C 	C 	0.72270 0.07850 0.72270 -0.35600
H 	H 	0.74465 0.07600 0.74465 0.14500
C 	C 	0.69990 0.06910 0.69990 -0.05800
C 	C 	0.73450 0.07900 0.73450 -0.04200
C 	C 	0.18040 0.38940 0.81960 0.14900
C 	C 	0.21370 0.37340 0.78630 -0.11000
C 	C 	0.22270 0.42150 0.77730 -0.35300
H 	H 	0.24465 0.42400 0.75535 0.14300
C 	C 	0.19990 0.43090 0.80010 -0.06100
C 	C 	0.23450 0.42100 0.76550 -0.04100
C 	C 	0.68040 0.88940 0.31960 0.14900
C 	C 	0.71370 0.87340 0.28630 -0.11100
C 	C 	0.72270 0.92150 0.27730 -0.34900
H 	H 	0.74465 0.92400 0.25535 0.14100
C 	C 	0.69990 0.93090 0.30010 -0.06200
C 	C 	0.73450 0.92100 0.26550 -0.03900
C 	C 	0.81960 0.61060 0.81960 0.14900
C 	C 	0.78630 0.62660 0.78630 -0.11000
C 	C 	0.77730 0.57850 0.77730 -0.35300
H 	H 	0.75535 0.57600 0.75535 0.14300
C 	C 	0.80010 0.56910 0.80010 -0.06100
C 	C 	0.76550 0.57900 0.76550 -0.04000
C 	C 	0.31960 0.11060 0.31960 0.14900
C 	C 	0.28630 0.12660 0.28630 -0.10900
C 	C 	0.27730 0.07850 0.27730 -0.35400
H 	H 	0.25535 0.07600 0.25535 0.14400
C 	C 	0.30010 0.06910 0.30010 -0.06100
C 	C 	0.26550 0.07900 0.26550 -0.04100
C 	C 	0.81960 0.38940 0.18040 0.14900
C 	C 	0.78630 0.37340 0.21370 -0.11000
C 	C 	0.77730 0.42150 0.22270 -0.35300
H 	H 	0.75535 0.42400 0.24465 0.14300
C 	C 	0.80010 0.43090 0.19990 -0.06100
C 	C 	0.76550 0.42100 0.23450 -0.04100
C 	C 	0.31960 0.88940 0.68040 0.14900
C 	C 	0.28630 0.87340 0.71370 -0.11100
C 	C 	0.27730 0.92150 0.72270 -0.34900
H 	H 	0.25535 0.92400 0.74465 0.14100
C 	C 	0.30010 0.93090 0.69990 -0.06200
C 	C 	0.26550 0.92100 0.73450 -0.03900
C 	C 	0.74860 0.60490 -0.00000 0.19200
C 	C 	0.69900 0.61160 -0.00000 -0.21700
C 	C 	0.68150 0.56500 -0.00000 0.00300
H 	H 	0.65040 0.56560 -0.00000 -0.00200
C 	C 	0.71730 0.56570 -0.00000 -0.20400
C 	C 	0.67130 0.58500 -0.00000 0.02600
H 	H 	0.65040 0.56200 -0.00000 -0.00400
C 	C 	0.24860 0.10490 0.50000 0.18900
C 	C 	0.19900 0.11160 0.50000 -0.22500
C 	C 	0.18150 0.06500 0.50000 -0.00100
H 	H 	0.15040 0.06560 0.50000 -0.00200
C 	C 	0.21730 0.06570 0.50000 -0.21200
C 	C 	0.17130 0.08500 0.50000 0.02300
H 	H 	0.15040 0.06200 0.50000 -0.00300
C 	C 	0.25140 0.39510 -0.00000 0.19200
C 	C 	0.30100 0.38840 -0.00000 -0.21700
C 	C 	0.31850 0.43500 -0.00000 0.00300
H 	H 	0.34960 0.43440 -0.00000 -0.00200
C 	C 	0.28270 0.43430 -0.00000 -0.20400
C 	C 	0.32870 0.41500 -0.00000 0.02600
H 	H 	0.34960 0.43800 -0.00000 -0.00400
C 	C 	0.75140 0.89510 0.50000 0.18900
C 	C 	0.80100 0.88840 0.50000 -0.22700
C 	C 	0.81850 0.93500 0.50000 0.00200
H 	H 	0.84960 0.93440 0.50000 -0.00400
C 	C 	0.78270 0.93430 0.50000 -0.21000
C 	C 	0.82870 0.91500 0.50000 0.02400
H 	H 	0.84960 0.93800 0.50000 -0.00500
C 	C 	0.25140 0.60490 -0.00000 0.19200
C 	C 	0.30100 0.61160 -0.00000 -0.21700
C 	C 	0.31850 0.56500 -0.00000 0.00300
H 	H 	0.34960 0.56560 -0.00000 -0.00200
C 	C 	0.28270 0.56570 -0.00000 -0.20400
C 	C 	0.32870 0.58500 -0.00000 0.02600
H 	H 	0.34960 0.56200 -0.00000 -0.00400
C 	C 	0.75140 0.10490 0.50000 0.19000
C 	C 	0.80100 0.11160 0.50000 -0.22500
C 	C 	0.81850 0.06500 0.50000 -0.00000
H 	H 	0.84960 0.06560 0.50000 -0.00200
C 	C 	0.78270 0.06570 0.50000 -0.21300
C 	C 	0.82870 0.08500 0.50000 0.02400
H 	H 	0.84960 0.06200 0.50000 -0.00400
C 	C 	0.74860 0.39510 -0.00000 0.19200
C 	C 	0.69900 0.38840 -0.00000 -0.21700
C 	C 	0.68150 0.43500 -0.00000 0.00300
H 	H 	0.65040 0.43440 -0.00000 -0.00200
C 	C 	0.71730 0.43430 -0.00000 -0.20300
C 	C 	0.67130 0.41500 -0.00000 0.02600
H 	H 	0.65040 0.43800 -0.00000 -0.00400
C 	C 	0.24860 0.89510 0.50000 0.18900
C 	C 	0.19900 0.88840 0.50000 -0.22600
C 	C 	0.18150 0.93500 0.50000 0.00100
H 	H 	0.15040 0.93440 0.50000 -0.00300
C 	C 	0.21730 0.93430 0.50000 -0.20900
C 	C 	0.17130 0.91500 0.50000 0.02300
H 	H 	0.15040 0.93800 0.50000 -0.00400
C 	C 	0.00000 0.74860 0.60490 0.19200
C 	C 	0.00000 0.69900 0.61160 -0.21700
C 	C 	-0.00000 0.68150 0.56500 0.00300
H 	H 	0.00000 0.65040 0.56560 -0.00200
C 	C 	-0.00000 0.71730 0.56570 -0.20400
C 	C 	-0.00000 0.67130 0.58500 0.02600
H 	H 	-0.00000 0.65040 0.56200 -0.00400
C 	C 	0.50000 0.24860 0.10490 0.18900
C 	C 	0.50000 0.19900 0.11160 -0.22500
C 	C 	0.50000 0.18150 0.06500 -0.00100
H 	H 	0.50000 0.15040 0.06560 -0.00200
C 	C 	0.50000 0.21730 0.06570 -0.21200
C 	C 	0.50000 0.17130 0.08500 0.02300
H 	H 	0.50000 0.15040 0.06200 -0.00300
C 	C 	-0.00000 0.25140 0.39510 0.19200
C 	C 	-0.00000 0.30100 0.38840 -0.21700
C 	C 	-0.00000 0.31850 0.43500 0.00300
H 	H 	-0.00000 0.34960 0.43440 -0.00200
C 	C 	-0.00000 0.28270 0.43430 -0.20400
C 	C 	-0.00000 0.32870 0.41500 0.02600
H 	H 	-0.00000 0.34960 0.43800 -0.00400
C 	C 	0.50000 0.75140 0.89510 0.18900
C 	C 	0.50000 0.80100 0.88840 -0.22700
C 	C 	0.50000 0.81850 0.93500 0.00200
H 	H 	0.50000 0.84960 0.93440 -0.00400
C 	C 	0.50000 0.78270 0.93430 -0.21000
C 	C 	0.50000 0.82870 0.91500 0.02400
H 	H 	0.50000 0.84960 0.93800 -0.00500
C 	C 	0.00000 0.25140 0.60490 0.19200
C 	C 	-0.00000 0.30100 0.61160 -0.21700
C 	C 	-0.00000 0.31850 0.56500 0.00300
H 	H 	-0.00000 0.34960 0.56560 -0.00200
C 	C 	-0.00000 0.28270 0.56570 -0.20400
C 	C 	-0.00000 0.32870 0.58500 0.02600
H 	H 	-0.00000 0.34960 0.56200 -0.00400
C 	C 	0.50000 0.75140 0.10490 0.19000
C 	C 	0.50000 0.80100 0.11160 -0.22500
C 	C 	0.50000 0.81850 0.06500 -0.00000
H 	H 	0.50000 0.84960 0.06560 -0.00200
C 	C 	0.50000 0.78270 0.06570 -0.21300
C 	C 	0.50000 0.82870 0.08500 0.02400
H 	H 	0.50000 0.84960 0.06200 -0.00400
C 	C 	-0.00000 0.74860 0.39510 0.19200
C 	C 	-0.00000 0.69900 0.38840 -0.21700
C 	C 	-0.00000 0.68150 0.43500 0.00300
H 	H 	0.00000 0.65040 0.43440 -0.00200
C 	C 	0.00000 0.71730 0.43430 -0.20300
C 	C 	-0.00000 0.67130 0.41500 0.02600
H 	H 	-0.00000 0.65040 0.43800 -0.00400
C 	C 	0.50000 0.24860 0.89510 0.18900
C 	C 	0.50000 0.19900 0.88840 -0.22600
C 	C 	0.50000 0.18150 0.93500 0.00100
H 	H 	0.50000 0.15040 0.93440 -0.00300
C 	C 	0.50000 0.21730 0.93430 -0.20900
C 	C 	0.50000 0.17130 0.91500 0.02300
H 	H 	0.50000 0.15040 0.93800 -0.00400
C 	C 	0.60490 0.00000 0.74860 0.19200
C 	C 	0.61160 -0.00000 0.69900 -0.21700
C 	C 	0.56500 -0.00000 0.68150 0.00300
H 	H 	0.56560 -0.00000 0.65040 -0.00200
C 	C 	0.56570 0.00000 0.71730 -0.20400
C 	C 	0.58500 -0.00000 0.67130 0.02600
H 	H 	0.56200 -0.00000 0.65040 -0.00400
C 	C 	0.10490 0.50000 0.24860 0.18900
C 	C 	0.11160 0.50000 0.19900 -0.22500
C 	C 	0.06500 0.50000 0.18150 -0.00100
H 	H 	0.06560 0.50000 0.15040 -0.00200
C 	C 	0.06570 0.50000 0.21730 -0.21200
C 	C 	0.08500 0.50000 0.17130 0.02300
H 	H 	0.06200 0.50000 0.15040 -0.00300
C 	C 	0.39510 0.00000 0.25140 0.19200
C 	C 	0.38840 -0.00000 0.30100 -0.21700
C 	C 	0.43500 -0.00000 0.31850 0.00300
H 	H 	0.43440 -0.00000 0.34960 -0.00200
C 	C 	0.43430 -0.00000 0.28270 -0.20400
C 	C 	0.41500 0.00000 0.32870 0.02600
H 	H 	0.43800 -0.00000 0.34960 -0.00400
C 	C 	0.89510 0.50000 0.75140 0.18900
C 	C 	0.88840 0.50000 0.80100 -0.22700
C 	C 	0.93500 0.50000 0.81850 0.00200
H 	H 	0.93440 0.50000 0.84960 -0.00400
C 	C 	0.93430 0.50000 0.78270 -0.21000
C 	C 	0.91500 0.50000 0.82870 0.02400
H 	H 	0.93800 0.50000 0.84960 -0.00500
C 	C 	0.60490 0.00000 0.25140 0.19200
C 	C 	0.61160 -0.00000 0.30100 -0.21700
C 	C 	0.56500 -0.00000 0.31850 0.00300
H 	H 	0.56560 -0.00000 0.34960 -0.00200
C 	C 	0.56570 -0.00000 0.28270 -0.20400
C 	C 	0.58500 0.00000 0.32870 0.02600
H 	H 	0.56200 -0.00000 0.34960 -0.00400
C 	C 	0.10490 0.50000 0.75140 0.19000
C 	C 	0.11160 0.50000 0.80100 -0.22500
C 	C 	0.06500 0.50000 0.81850 -0.00000
H 	H 	0.06560 0.50000 0.84960 -0.00200
C 	C 	0.06570 0.50000 0.78270 -0.21300
C 	C 	0.08500 0.50000 0.82870 0.02400
H 	H 	0.06200 0.50000 0.84960 -0.00400
C 	C 	0.39510 0.00000 0.74860 0.19200
C 	C 	0.38840 -0.00000 0.69900 -0.21700
C 	C 	0.43500 -0.00000 0.68150 0.00300
H 	H 	0.43440 -0.00000 0.65040 -0.00200
C 	C 	0.43430 0.00000 0.71730 -0.20300
C 	C 	0.41500 -0.00000 0.67130 0.02600
H 	H 	0.43800 -0.00000 0.65040 -0.00400
C 	C 	0.89510 0.50000 0.24860 0.18900
C 	C 	0.88840 0.50000 0.19900 -0.22600
C 	C 	0.93500 0.50000 0.18150 0.00100
H 	H 	0.93440 0.50000 0.15040 -0.00300
C 	C 	0.93430 0.50000 0.21730 -0.20900
C 	C 	0.91500 0.50000 0.17130 0.02300
H 	H 	0.93800 0.50000 0.15040 -0.00400
C 	C 	0.60490 0.74860 -0.00000 0.19200
C 	C 	0.61160 0.69900 -0.00000 -0.21700
C 	C 	0.56500 0.68150 -0.00000 0.00300
H 	H 	0.56560 0.65040 -0.00000 -0.00200
C 	C 	0.56570 0.71730 -0.00000 -0.20400
C 	C 	0.58500 0.67130 -0.00000 0.02600
H 	H 	0.56200 0.65040 -0.00000 -0.00400
C 	C 	0.10490 0.24860 0.50000 0.18900
C 	C 	0.11160 0.19900 0.50000 -0.22500
C 	C 	0.06500 0.18150 0.50000 -0.00100
H 	H 	0.06560 0.15040 0.50000 -0.00200
C 	C 	0.06570 0.21730 0.50000 -0.21200
C 	C 	0.08500 0.17130 0.50000 0.02300
H 	H 	0.06200 0.15040 0.50000 -0.00300
C 	C 	0.39510 0.25140 -0.00000 0.19200
C 	C 	0.38840 0.30100 -0.00000 -0.21700
C 	C 	0.43500 0.31850 -0.00000 0.00300
H 	H 	0.43440 0.34960 -0.00000 -0.00200
C 	C 	0.43430 0.28270 -0.00000 -0.20400
C 	C 	0.41500 0.32870 -0.00000 0.02600
H 	H 	0.43800 0.34960 -0.00000 -0.00400
C 	C 	0.89510 0.75140 0.50000 0.18900
C 	C 	0.88840 0.80100 0.50000 -0.22700
C 	C 	0.93500 0.81850 0.50000 0.00200
H 	H 	0.93440 0.84960 0.50000 -0.00400
C 	C 	0.93430 0.78270 0.50000 -0.21000
C 	C 	0.91500 0.82870 0.50000 0.02400
H 	H 	0.93800 0.84960 0.50000 -0.00500
C 	C 	0.60490 0.25140 -0.00000 0.19200
C 	C 	0.61160 0.30100 -0.00000 -0.21700
C 	C 	0.56500 0.31850 -0.00000 0.00300
H 	H 	0.56560 0.34960 -0.00000 -0.00200
C 	C 	0.56570 0.28270 -0.00000 -0.20400
C 	C 	0.58500 0.32870 -0.00000 0.02600
H 	H 	0.56200 0.34960 -0.00000 -0.00400
C 	C 	0.10490 0.75140 0.50000 0.19000
C 	C 	0.11160 0.80100 0.50000 -0.22500
C 	C 	0.06500 0.81850 0.50000 -0.00000
H 	H 	0.06560 0.84960 0.50000 -0.00200
C 	C 	0.06570 0.78270 0.50000 -0.21300
C 	C 	0.08500 0.82870 0.50000 0.02400
H 	H 	0.06200 0.84960 0.50000 -0.00400
C 	C 	0.39510 0.74860 -0.00000 0.19200
C 	C 	0.38840 0.69900 -0.00000 -0.21700
C 	C 	0.43500 0.68150 -0.00000 0.00300
H 	H 	0.43440 0.65040 -0.00000 -0.00200
C 	C 	0.43430 0.71730 -0.00000 -0.20300
C 	C 	0.41500 0.67130 -0.00000 0.02600
H 	H 	0.43800 0.65040 -0.00000 -0.00400
C 	C 	0.89510 0.24860 0.50000 0.18900
C 	C 	0.88840 0.19900 0.50000 -0.22600
C 	C 	0.93500 0.18150 0.50000 0.00100
H 	H 	0.93440 0.15040 0.50000 -0.00300
C 	C 	0.93430 0.21730 0.50000 -0.20900
C 	C 	0.91500 0.17130 0.50000 0.02300
H 	H 	0.93800 0.15040 0.50000 -0.00400
C 	C 	0.74860 0.00000 0.39510 0.19200
C 	C 	0.69900 0.00000 0.38840 -0.21700
C 	C 	0.68150 0.00000 0.43500 0.00300
H 	H 	0.65040 0.00000 0.43440 -0.00200
C 	C 	0.71730 0.00000 0.43430 -0.20300
C 	C 	0.67130 -0.00000 0.41500 0.02600
H 	H 	0.65040 -0.00000 0.43800 -0.00400
C 	C 	0.24860 0.50000 0.89510 0.18900
C 	C 	0.19900 0.50000 0.88840 -0.22600
C 	C 	0.18150 0.50000 0.93500 0.00100
H 	H 	0.15040 0.50000 0.93440 -0.00300
C 	C 	0.21730 0.50000 0.93430 -0.20900
C 	C 	0.17130 0.50000 0.91500 0.02300
H 	H 	0.15040 0.50000 0.93800 -0.00400
C 	C 	0.25140 0.00000 0.60490 0.19200
C 	C 	0.30100 0.00000 0.61160 -0.21700
C 	C 	0.31850 0.00000 0.56500 0.00300
H 	H 	0.34960 0.00000 0.56560 -0.00200
C 	C 	0.28270 0.00000 0.56570 -0.20400
C 	C 	0.32870 -0.00000 0.58500 0.02600
H 	H 	0.34960 -0.00000 0.56200 -0.00400
C 	C 	0.75140 0.50000 0.10490 0.19000
C 	C 	0.80100 0.50000 0.11160 -0.22500
C 	C 	0.81850 0.50000 0.06500 -0.00000
H 	H 	0.84960 0.50000 0.06560 -0.00200
C 	C 	0.78270 0.50000 0.06570 -0.21300
C 	C 	0.82870 0.50000 0.08500 0.02400
H 	H 	0.84960 0.50000 0.06200 -0.00400
C 	C 	0.25140 0.00000 0.39510 0.19200
C 	C 	0.30100 0.00000 0.38840 -0.21700
C 	C 	0.31850 0.00000 0.43500 0.00300
H 	H 	0.34960 0.00000 0.43440 -0.00200
C 	C 	0.28270 0.00000 0.43430 -0.20400
C 	C 	0.32870 -0.00000 0.41500 0.02600
H 	H 	0.34960 -0.00000 0.43800 -0.00400
C 	C 	0.75140 0.50000 0.89510 0.18900
C 	C 	0.80100 0.50000 0.88840 -0.22700
C 	C 	0.81850 0.50000 0.93500 0.00200
H 	H 	0.84960 0.50000 0.93440 -0.00400
C 	C 	0.78270 0.50000 0.93430 -0.21000
C 	C 	0.82870 0.50000 0.91500 0.02400
H 	H 	0.84960 0.50000 0.93800 -0.00500
C 	C 	0.74860 0.00000 0.60490 0.19200
C 	C 	0.69900 0.00000 0.61160 -0.21700
C 	C 	0.68150 0.00000 0.56500 0.00300
H 	H 	0.65040 0.00000 0.56560 -0.00200
C 	C 	0.71730 0.00000 0.56570 -0.20400
C 	C 	0.67130 -0.00000 0.58500 0.02600
H 	H 	0.65040 -0.00000 0.56200 -0.00400
C 	C 	0.24860 0.50000 0.10490 0.18900
C 	C 	0.19900 0.50000 0.11160 -0.22500
C 	C 	0.18150 0.50000 0.06500 -0.00100
H 	H 	0.15040 0.50000 0.06560 -0.00200
C 	C 	0.21730 0.50000 0.06570 -0.21200
C 	C 	0.17130 0.50000 0.08500 0.02300
H 	H 	0.15040 0.50000 0.06200 -0.00300
C 	C 	0.00000 0.60490 0.25140 0.19200
C 	C 	-0.00000 0.61160 0.30100 -0.21700
C 	C 	-0.00000 0.56500 0.31850 0.00300
H 	H 	-0.00000 0.56560 0.34960 -0.00200
C 	C 	-0.00000 0.56570 0.28270 -0.20400
C 	C 	-0.00000 0.58500 0.32870 0.02600
H 	H 	-0.00000 0.56200 0.34960 -0.00400
C 	C 	0.50000 0.10490 0.75140 0.19000
C 	C 	0.50000 0.11160 0.80100 -0.22500
C 	C 	0.50000 0.06500 0.81850 -0.00000
H 	H 	0.50000 0.06560 0.84960 -0.00200
C 	C 	0.50000 0.06570 0.78270 -0.21300
C 	C 	0.50000 0.08500 0.82870 0.02400
H 	H 	0.50000 0.06200 0.84960 -0.00400
C 	C 	-0.00000 0.39510 0.74860 0.19200
C 	C 	-0.00000 0.38840 0.69900 -0.21700
C 	C 	-0.00000 0.43500 0.68150 0.00300
H 	H 	0.00000 0.43440 0.65040 -0.00200
C 	C 	0.00000 0.43430 0.71730 -0.20300
C 	C 	-0.00000 0.41500 0.67130 0.02600
H 	H 	-0.00000 0.43800 0.65040 -0.00400
C 	C 	0.50000 0.89510 0.24860 0.18900
C 	C 	0.50000 0.88840 0.19900 -0.22600
C 	C 	0.50000 0.93500 0.18150 0.00100
H 	H 	0.50000 0.93440 0.15040 -0.00300
C 	C 	0.50000 0.93430 0.21730 -0.20900
C 	C 	0.50000 0.91500 0.17130 0.02300
H 	H 	0.50000 0.93800 0.15040 -0.00400
C 	C 	0.00000 0.60490 0.74860 0.19200
C 	C 	0.00000 0.61160 0.69900 -0.21700
C 	C 	-0.00000 0.56500 0.68150 0.00300
H 	H 	0.00000 0.56560 0.65040 -0.00200
C 	C 	-0.00000 0.56570 0.71730 -0.20400
C 	C 	-0.00000 0.58500 0.67130 0.02600
H 	H 	-0.00000 0.56200 0.65040 -0.00400
C 	C 	0.50000 0.10490 0.24860 0.18900
C 	C 	0.50000 0.11160 0.19900 -0.22500
C 	C 	0.50000 0.06500 0.18150 -0.00100
H 	H 	0.50000 0.06560 0.15040 -0.00200
C 	C 	0.50000 0.06570 0.21730 -0.21200
C 	C 	0.50000 0.08500 0.17130 0.02300
H 	H 	0.50000 0.06200 0.15040 -0.00300
C 	C 	0.00000 0.39510 0.25140 0.19200
C 	C 	-0.00000 0.38840 0.30100 -0.21700
C 	C 	-0.00000 0.43500 0.31850 0.00300
H 	H 	-0.00000 0.43440 0.34960 -0.00200
C 	C 	-0.00000 0.43430 0.28270 -0.20400
C 	C 	-0.00000 0.41500 0.32870 0.02600
H 	H 	-0.00000 0.43800 0.34960 -0.00400
C 	C 	0.50000 0.89510 0.75140 0.18900
C 	C 	0.50000 0.88840 0.80100 -0.22700
C 	C 	0.50000 0.93500 0.81850 0.00200
H 	H 	0.50000 0.93440 0.84960 -0.00400
C 	C 	0.50000 0.93430 0.78270 -0.21000
C 	C 	0.50000 0.91500 0.82870 0.02400
H 	H 	0.50000 0.93800 0.84960 -0.00500
