data_crystal

_cell_length_a 8.60610
_cell_length_b 9.36560
_cell_length_c 13.01600
_cell_angle_alpha 90.00000
_cell_angle_beta  105.80300
_cell_angle_gamma 90.00000

_symmetry_space_group_name_	'P 1'
_symmetry_space_group_name_H-M	'P 1'

loop_
_symmetry_equiv_pos_as_xyz
  x,y,z

loop_
_atom_site_label
_atom_site_type_symbol
_atom_site_fract_x
_atom_site_fract_y
_atom_site_fract_z
_atom_site_charge
Cd	Cd	0.24515 0.25160 0.99082 1.20000
N 	N 	0.16680 0.19740 0.80690 -0.17700
N 	N 	0.23240 0.19470 0.73929 -0.03000
N 	N 	0.29690 0.18580 0.67150 -0.18100
N 	N 	0.01220 0.12470 0.99630 -0.18600
N 	N 	0.46820 0.37970 0.97960 -0.19500
N 	N 	0.39460 0.04430 0.03230 -0.18000
N 	N 	0.07190 0.44860 0.94390 -0.18300
Cd	Cd	0.75485 0.75160 0.50918 1.20000
N 	N 	0.83320 0.69740 0.69310 -0.18200
N 	N 	0.76760 0.69470 0.76071 -0.03300
N 	N 	0.70310 0.68580 0.82850 -0.18500
N 	N 	0.98780 0.62470 0.50370 -0.18500
N 	N 	0.53180 0.87970 0.52040 -0.19300
N 	N 	0.60540 0.54430 0.46770 -0.18600
N 	N 	0.92810 0.94860 0.55610 -0.18900
Cd	Cd	0.75485 0.74840 0.00918 1.20200
N 	N 	0.83320 0.80260 0.19310 -0.18200
N 	N 	0.76760 0.80530 0.26071 -0.03300
N 	N 	0.70310 0.81420 0.32850 -0.18400
N 	N 	0.98780 0.87530 0.00370 -0.19100
N 	N 	0.53180 0.62030 0.02040 -0.18700
N 	N 	0.60540 0.95570 0.96770 -0.19800
N 	N 	0.92810 0.55140 0.05610 -0.18300
Cd	Cd	0.24515 0.24840 0.49082 1.20200
N 	N 	0.16680 0.30260 0.30690 -0.17600
N 	N 	0.23240 0.30530 0.23929 -0.02900
N 	N 	0.29690 0.31420 0.17150 -0.17800
N 	N 	0.01220 0.37530 0.49630 -0.17500
N 	N 	0.46820 0.12030 0.47960 -0.18800
N 	N 	0.39460 0.45570 0.53230 -0.18600
N 	N 	0.07190 0.05140 0.44390 -0.17400
N 	N 	-0.00000 0.00000 -0.00000 -0.02000
N 	N 	0.00000 0.50000 0.50000 -0.03800
N 	N 	0.50000 0.50000 -0.00000 -0.03400
N 	N 	0.50000 0.00000 0.50000 -0.03600
N 	N 	0.50000 0.00000 -0.00000 -0.02600
N 	N 	0.50000 0.50000 0.50000 -0.03900
N 	N 	-0.00000 0.50000 -0.00000 -0.02900
N 	N 	0.00000 0.00000 0.50000 -0.03300
