data_crystal

_cell_length_a 23.83300
_cell_length_b 23.83300
_cell_length_c 23.83300
_cell_angle_alpha 109.47100
_cell_angle_beta  109.47100
_cell_angle_gamma 109.47100

_symmetry_space_group_name_	'P 1'
_symmetry_space_group_name_H-M	'P 1'

loop_
_symmetry_equiv_pos_as_xyz
  x,y,z

loop_
_atom_site_label
_atom_site_type_symbol
_atom_site_fract_x
_atom_site_fract_y
_atom_site_fract_z
_atom_site_charge
Eu	Eu	0.45234 0.45234 0.95234 2.14300
Eu	Eu	-0.00000 0.50000 0.54766 2.02500
Eu	Eu	0.50000 0.04766 0.50000 2.05300
Eu	Eu	0.04766 0.00000 -0.00000 1.92500
Eu	Eu	-0.00000 0.50000 0.04766 1.99300
Eu	Eu	0.95234 0.95234 0.45234 2.18300
Eu	Eu	0.50000 0.54766 0.50000 2.09900
Eu	Eu	0.54766 0.00000 -0.00000 1.97600
H 	H 	0.64600 0.50080 0.18080 0.15600
H 	H 	0.70120 0.38060 0.22140 0.06300
H 	H 	0.63020 0.31250 0.16650 0.05700
H 	H 	0.67380 0.31490 0.10450 0.08300
H 	H 	0.69090 0.30420 0.00910 0.07000
H 	H 	0.65930 0.35640 0.95290 0.02700
H 	H 	0.60710 0.41450 0.98320 0.09500
H 	H 	0.61850 0.59470 0.17540 0.09900
H 	H 	0.54280 0.53280 0.13580 0.09300
H 	H 	0.51920 0.46770 0.21190 0.08500
H 	H 	0.54700 0.53010 0.33450 0.06300
H 	H 	0.65050 0.64870 0.39280 0.04600
H 	H 	0.82000 0.46520 0.31920 0.16000
H 	H 	0.65920 0.47980 0.27860 0.05700
H 	H 	0.64600 0.46370 0.33350 0.05100
H 	H 	0.71040 0.56930 0.39550 0.14200
H 	H 	0.79510 0.68180 0.49090 -0.01900
H 	H 	0.90350 0.70640 0.54710 0.14600
H 	H 	0.93130 0.62390 0.51680 -0.01300
H 	H 	0.91930 0.44310 0.32460 0.10800
H 	H 	0.89700 0.40700 0.36420 0.09700
H 	H 	0.75580 0.30730 0.28810 0.08500
H 	H 	0.69560 0.21250 0.16550 0.06300
H 	H 	0.75590 0.25770 0.10720 0.04000
H 	H 	0.68000 0.99920 0.64520 0.16500
H 	H 	0.84080 0.11940 0.82060 0.05600
H 	H 	0.85400 0.18750 0.81770 0.05200
H 	H 	0.78960 0.18510 0.85890 0.14200
H 	H 	0.70490 0.19580 0.88670 -0.01700
H 	H 	0.59650 0.14360 0.80290 0.14000
H 	H 	0.56870 0.08550 0.69260 -0.02500
H 	H 	0.58070 0.90530 0.52380 0.09600
H 	H 	0.60300 0.96720 0.51000 0.09600
H 	H 	0.74420 0.03230 0.55150 0.04900
H 	H 	0.80440 0.96990 0.51690 0.07900
H 	H 	0.74410 0.85130 0.50180 0.04200
H 	H 	0.85400 0.03480 0.85480 0.15600
H 	H 	0.79880 0.02020 0.67940 0.04400
H 	H 	0.86980 0.03630 0.68230 0.04200
H 	H 	0.82620 0.93070 0.64110 0.15500
H 	H 	0.80910 0.81820 0.61330 -0.02600
H 	H 	0.84070 0.79360 0.69710 0.14900
H 	H 	0.89290 0.87610 0.80740 -0.02400
H 	H 	0.88150 0.05690 0.97620 0.10700
H 	H 	0.95720 0.09300 0.99000 0.11200
H 	H 	0.98080 0.19270 0.94850 0.09700
H 	H 	0.95300 0.28750 0.98310 0.07400
H 	H 	0.84950 0.24230 0.99820 0.05200
H 	H 	0.14520 0.68000 0.49920 0.15900
H 	H 	0.32060 0.84080 0.61940 0.05800
H 	H 	0.31770 0.85400 0.68750 0.05300
H 	H 	0.35890 0.78960 0.68510 0.14300
H 	H 	0.38670 0.70490 0.69580 -0.02100
H 	H 	0.30290 0.59650 0.64360 0.14300
H 	H 	0.19260 0.56870 0.58550 -0.02400
H 	H 	0.02380 0.58070 0.40530 0.09000
H 	H 	0.01000 0.60300 0.46720 0.08300
H 	H 	0.05150 0.74420 0.53230 0.08100
H 	H 	0.01690 0.80440 0.46990 0.05900
H 	H 	0.00180 0.74410 0.35130 0.04000
H 	H 	0.35480 0.85400 0.53480 0.15800
H 	H 	0.17940 0.79880 0.52020 0.05800
H 	H 	0.18230 0.86980 0.53630 0.05300
H 	H 	0.14110 0.82620 0.43070 0.14200
H 	H 	0.11330 0.80910 0.31820 -0.02200
H 	H 	0.19710 0.84070 0.29360 0.14400
H 	H 	0.30740 0.89290 0.37610 -0.02100
H 	H 	0.47620 0.88150 0.55690 0.10200
H 	H 	0.49000 0.95720 0.59300 0.10200
H 	H 	0.44850 0.98080 0.69270 0.09200
H 	H 	0.48310 0.95300 0.78750 0.06900
H 	H 	0.49820 0.84950 0.74230 0.04600
H 	H 	0.68080 0.64600 0.00080 0.15300
H 	H 	0.72140 0.70120 0.88060 0.05900
H 	H 	0.66650 0.63020 0.81250 0.05100
H 	H 	0.60450 0.67380 0.81490 0.14600
H 	H 	0.50910 0.69090 0.80420 -0.02300
H 	H 	0.45290 0.65930 0.85640 0.14800
H 	H 	0.48320 0.60710 0.91450 -0.02400
H 	H 	0.67540 0.61850 0.09470 0.10200
H 	H 	0.63580 0.54280 0.03280 0.08800
H 	H 	0.71190 0.51920 0.96770 0.12300
H 	H 	0.83450 0.54700 0.03010 0.04600
H 	H 	0.89280 0.65050 0.14870 0.05600
H 	H 	0.81920 0.82000 0.96520 0.16500
H 	H 	0.77860 0.65920 0.97980 0.06700
H 	H 	0.83350 0.64600 0.96370 0.05700
H 	H 	0.89550 0.71040 0.06930 0.18400
H 	H 	0.99090 0.79510 0.18180 -0.09400
H 	H 	0.04710 0.90350 0.20640 0.24800
H 	H 	0.01680 0.93130 0.12390 -0.11600
H 	H 	0.82460 0.91930 0.94310 0.11200
H 	H 	0.86420 0.89700 0.90700 0.10100
H 	H 	0.78810 0.75580 0.80730 0.08700
H 	H 	0.66550 0.69560 0.71250 0.06200
H 	H 	0.60720 0.75590 0.75770 0.04700
H 	H 	0.46520 0.81920 0.32000 0.16400
H 	H 	0.47980 0.77860 0.15920 0.05100
H 	H 	0.46370 0.83350 0.14600 0.04400
H 	H 	0.56930 0.89550 0.21040 0.20300
H 	H 	0.68180 0.99090 0.29510 -0.10900
H 	H 	0.70640 0.04710 0.40350 0.25800
H 	H 	0.62390 0.01680 0.43130 -0.14000
H 	H 	0.44310 0.82460 0.41930 0.09800
H 	H 	0.40700 0.86420 0.39700 0.09100
H 	H 	0.30730 0.78810 0.25580 0.08500
H 	H 	0.21250 0.66550 0.19560 0.06400
H 	H 	0.25770 0.60720 0.25590 0.04500
H 	H 	0.50080 0.68080 0.14600 0.16000
H 	H 	0.38060 0.72140 0.20120 0.05600
H 	H 	0.31250 0.66650 0.13020 0.04800
H 	H 	0.31490 0.60450 0.17380 0.14500
H 	H 	0.30420 0.50910 0.19090 -0.02400
H 	H 	0.35640 0.45290 0.15930 0.14500
H 	H 	0.41450 0.48320 0.10710 -0.02800
H 	H 	0.59470 0.67540 0.11850 0.09500
H 	H 	0.53280 0.63580 0.04280 0.08200
H 	H 	0.46770 0.71190 0.01920 0.07800
H 	H 	0.53010 0.83450 0.04700 0.05800
H 	H 	0.64870 0.89280 0.15050 0.05000
H 	H 	0.03480 0.35480 0.35400 0.15600
H 	H 	0.02020 0.17940 0.29880 0.03900
H 	H 	0.03630 0.18230 0.36980 0.03600
H 	H 	0.93070 0.14110 0.32620 0.16300
H 	H 	0.81820 0.11330 0.30910 -0.03500
H 	H 	0.79360 0.19710 0.34070 0.15500
H 	H 	0.87610 0.30740 0.39290 -0.03300
H 	H 	0.05690 0.47620 0.38150 0.09100
H 	H 	0.09300 0.49000 0.45720 0.08800
H 	H 	0.19270 0.44850 0.48080 0.08400
H 	H 	0.28750 0.48310 0.45300 0.06300
H 	H 	0.24230 0.49820 0.34950 0.04500
H 	H 	0.99920 0.14520 0.18000 0.16600
H 	H 	0.11940 0.32060 0.34080 0.05400
H 	H 	0.18750 0.31770 0.35400 0.05000
H 	H 	0.18510 0.35890 0.28960 0.14100
H 	H 	0.19580 0.38670 0.20490 -0.02000
H 	H 	0.14360 0.30290 0.09650 0.13400
H 	H 	0.08550 0.19260 0.06870 -0.03200
H 	H 	0.90530 0.02380 0.08070 0.08100
H 	H 	0.96720 0.01000 0.10300 0.08700
H 	H 	0.03230 0.05150 0.24420 0.03400
H 	H 	0.96990 0.01690 0.30440 0.08200
H 	H 	0.85130 0.00180 0.24410 0.03400
H 	H 	0.96520 0.32000 0.81920 0.16500
H 	H 	0.97980 0.15920 0.77860 0.06800
H 	H 	0.96370 0.14600 0.83350 0.05800
H 	H 	0.06930 0.21040 0.89550 0.18600
H 	H 	0.18180 0.29510 0.99090 -0.10000
H 	H 	0.20640 0.40350 0.04710 0.24900
H 	H 	0.12390 0.43130 0.01680 -0.13200
H 	H 	0.94310 0.41930 0.82460 0.10600
H 	H 	0.90700 0.39700 0.86420 0.09800
H 	H 	0.80730 0.25580 0.78810 0.08600
H 	H 	0.71250 0.19560 0.66550 0.06300
H 	H 	0.75770 0.25590 0.60720 0.04600
H 	H 	0.00080 0.14600 0.68080 0.15100
H 	H 	0.88060 0.20120 0.72140 0.05800
H 	H 	0.81250 0.13020 0.66650 0.04900
H 	H 	0.81490 0.17380 0.60450 0.14700
H 	H 	0.80420 0.19090 0.50910 -0.02600
H 	H 	0.85640 0.15930 0.45290 0.14900
H 	H 	0.91450 0.10710 0.48320 -0.02700
H 	H 	0.09470 0.11850 0.67540 0.09800
H 	H 	0.03280 0.04280 0.63580 0.07700
H 	H 	0.96770 0.01920 0.71190 0.12400
H 	H 	0.03010 0.04700 0.83450 0.03700
H 	H 	0.14870 0.15050 0.89280 0.05500
H 	H 	0.53480 0.35400 0.35480 0.15800
H 	H 	0.52020 0.29880 0.17940 0.05700
H 	H 	0.53630 0.36980 0.18230 0.05000
H 	H 	0.43070 0.32620 0.14110 0.14400
H 	H 	0.31820 0.30910 0.11330 -0.02500
H 	H 	0.29360 0.34070 0.19710 0.14400
H 	H 	0.37610 0.39290 0.30740 -0.02500
H 	H 	0.55690 0.38150 0.47620 0.09800
H 	H 	0.59300 0.45720 0.49000 0.09200
H 	H 	0.69270 0.48080 0.44850 0.08500
H 	H 	0.78750 0.45300 0.48310 0.06400
H 	H 	0.74230 0.34950 0.49820 0.04600
H 	H 	0.49920 0.18000 0.14520 0.15700
H 	H 	0.61940 0.34080 0.32060 0.05700
H 	H 	0.68750 0.35400 0.31770 0.05100
H 	H 	0.68510 0.28960 0.35890 0.14300
H 	H 	0.69580 0.20490 0.38670 -0.02200
H 	H 	0.64360 0.09650 0.30290 0.13900
H 	H 	0.58550 0.06870 0.19260 -0.03100
H 	H 	0.40530 0.08070 0.02380 0.08300
H 	H 	0.46720 0.10300 0.01000 0.08100
H 	H 	0.53230 0.24420 0.05150 0.08100
H 	H 	0.46990 0.30440 0.01690 0.05900
H 	H 	0.35130 0.24410 0.00180 0.03900
H 	H 	0.14600 0.18080 0.50080 0.15400
H 	H 	0.20120 0.22140 0.38060 0.06100
H 	H 	0.13020 0.16650 0.31250 0.05400
H 	H 	0.17380 0.10450 0.31490 0.07600
H 	H 	0.19090 0.00910 0.30420 0.07700
H 	H 	0.15930 0.95290 0.35640 0.01300
H 	H 	0.10710 0.98320 0.41450 0.10400
H 	H 	0.11850 0.17540 0.59470 0.09400
H 	H 	0.04280 0.13580 0.53280 0.08100
H 	H 	0.01920 0.21190 0.46770 0.07600
H 	H 	0.04700 0.33450 0.53010 0.05600
H 	H 	0.15050 0.39280 0.64870 0.04500
H 	H 	0.32000 0.31920 0.46520 0.15900
H 	H 	0.15920 0.27860 0.47980 0.05500
H 	H 	0.14600 0.33350 0.46370 0.04900
H 	H 	0.21040 0.39550 0.56930 0.14400
H 	H 	0.29510 0.49090 0.68180 -0.02100
H 	H 	0.40350 0.54710 0.70640 0.14400
H 	H 	0.43130 0.51680 0.62390 -0.02400
H 	H 	0.41930 0.32460 0.44310 0.09800
H 	H 	0.39700 0.36420 0.40700 0.09200
H 	H 	0.25580 0.28810 0.30730 0.08500
H 	H 	0.19560 0.16550 0.21250 0.06400
H 	H 	0.25590 0.10720 0.25770 0.03900
H 	H 	0.18000 0.64520 0.99920 0.16400
H 	H 	0.34080 0.82060 0.11940 0.05400
H 	H 	0.35400 0.81770 0.18750 0.05000
H 	H 	0.28960 0.85890 0.18510 0.14200
H 	H 	0.20490 0.88670 0.19580 -0.01800
H 	H 	0.09650 0.80290 0.14360 0.13600
H 	H 	0.06870 0.69260 0.08550 -0.03300
H 	H 	0.08070 0.52380 0.90530 0.08700
H 	H 	0.10300 0.51000 0.96720 0.09400
H 	H 	0.24420 0.55150 0.03230 0.04700
H 	H 	0.30440 0.51690 0.96990 0.08100
H 	H 	0.24410 0.50180 0.85130 0.04100
H 	H 	0.35400 0.85480 0.03480 0.15600
H 	H 	0.29880 0.67940 0.02020 0.04200
H 	H 	0.36980 0.68230 0.03630 0.03900
H 	H 	0.32620 0.64110 0.93070 0.15800
H 	H 	0.30910 0.61330 0.81820 -0.02900
H 	H 	0.34070 0.69710 0.79360 0.15100
H 	H 	0.39290 0.80740 0.87610 -0.02900
H 	H 	0.38150 0.97620 0.05690 0.10200
H 	H 	0.45720 0.99000 0.09300 0.10000
H 	H 	0.48080 0.94850 0.19270 0.08800
H 	H 	0.45300 0.98310 0.28750 0.06700
H 	H 	0.34950 0.99820 0.24230 0.05200
H 	H 	0.64520 0.49920 0.68000 0.15900
H 	H 	0.82060 0.61940 0.84080 0.05700
H 	H 	0.81770 0.68750 0.85400 0.05200
H 	H 	0.85890 0.68510 0.78960 0.14400
H 	H 	0.88670 0.69580 0.70490 -0.01900
H 	H 	0.80290 0.64360 0.59650 0.14400
H 	H 	0.69260 0.58550 0.56870 -0.02400
H 	H 	0.52380 0.40530 0.58070 0.09800
H 	H 	0.51000 0.46720 0.60300 0.09200
H 	H 	0.55150 0.53230 0.74420 0.08500
H 	H 	0.51690 0.46990 0.80440 0.06200
H 	H 	0.50180 0.35130 0.74410 0.04500
H 	H 	0.85480 0.53480 0.85400 0.15700
H 	H 	0.67940 0.52020 0.79880 0.05700
H 	H 	0.68230 0.53630 0.86980 0.05200
H 	H 	0.64110 0.43070 0.82620 0.14200
H 	H 	0.61330 0.31820 0.80910 -0.01800
H 	H 	0.69710 0.29360 0.84070 0.14200
H 	H 	0.80740 0.37610 0.89290 -0.01800
H 	H 	0.97620 0.55690 0.88150 0.11200
H 	H 	0.99000 0.59300 0.95720 0.11300
H 	H 	0.94850 0.69270 0.98080 0.09600
H 	H 	0.98310 0.78750 0.95300 0.07300
H 	H 	0.99820 0.74230 0.84950 0.05200
H 	H 	0.18080 0.00080 0.64600 0.14800
H 	H 	0.22140 0.88060 0.70120 0.06400
H 	H 	0.16650 0.81250 0.63020 0.05700
H 	H 	0.10450 0.81490 0.67380 0.08500
H 	H 	0.00910 0.80420 0.69090 0.06500
H 	H 	0.95290 0.85640 0.65930 0.03200
H 	H 	0.98320 0.91450 0.60710 0.09300
H 	H 	0.17540 0.09470 0.61850 0.10200
H 	H 	0.13580 0.03280 0.54280 0.08800
H 	H 	0.21190 0.96770 0.51920 0.12600
H 	H 	0.33450 0.03010 0.54700 0.04400
H 	H 	0.39280 0.14870 0.65050 0.05000
H 	H 	0.31920 0.96520 0.82000 0.16100
H 	H 	0.27860 0.97980 0.65920 0.07200
H 	H 	0.33350 0.96370 0.64600 0.06300
H 	H 	0.39550 0.06930 0.71040 0.12500
H 	H 	0.49090 0.18180 0.79510 -0.00900
H 	H 	0.54710 0.20640 0.90350 0.13600
H 	H 	0.51680 0.12390 0.93130 -0.00400
H 	H 	0.32460 0.94310 0.91930 0.11300
H 	H 	0.36420 0.90700 0.89700 0.10200
H 	H 	0.28810 0.80730 0.75580 0.08600
H 	H 	0.16550 0.71250 0.69560 0.06300
H 	H 	0.10720 0.75770 0.75590 0.04100
C 	C 	0.65180 0.36130 0.19750 -0.03000
C 	C 	0.64280 0.38460 0.10500 0.16400
C 	C 	0.66450 0.33900 0.08250 -0.11200
C 	C 	0.67210 0.33070 0.02340 -0.07100
C 	C 	0.65290 0.36020 0.99010 0.06000
C 	C 	0.62290 0.39670 0.01020 -0.09400
C 	C 	0.61370 0.40990 0.06480 -0.10800
C 	C 	0.58700 0.46010 0.08550 0.34600
C 	C 	0.58970 0.55130 0.17040 -0.16600
C 	C 	0.59370 0.56080 0.23110 0.17600
C 	C 	0.55210 0.51360 0.24390 -0.12400
C 	C 	0.56900 0.54800 0.31380 -0.03400
C 	C 	0.62670 0.61590 0.34640 0.07200
C 	C 	0.66380 0.45430 0.30250 -0.01900
C 	C 	0.77960 0.53780 0.39500 0.27000
C 	C 	0.75650 0.58200 0.41750 -0.28000
C 	C 	0.80730 0.64870 0.47660 0.20600
C 	C 	0.87010 0.66280 0.50990 -0.28200
C 	C 	0.88650 0.61270 0.48980 0.20000
C 	C 	0.84510 0.54890 0.43520 -0.24400
C 	C 	0.87460 0.50150 0.41450 0.38700
C 	C 	0.88090 0.41930 0.32960 -0.16900
C 	C 	0.82970 0.36260 0.26890 0.17900
C 	C 	0.76970 0.30820 0.25610 -0.12400
C 	C 	0.73420 0.25520 0.18620 -0.03500
C 	C 	0.76950 0.28030 0.15360 0.07500
C 	C 	0.83620 0.13870 0.79050 -0.01700
C 	C 	0.72040 0.11540 0.75820 0.26600
C 	C 	0.74350 0.16100 0.82550 -0.28000
C 	C 	0.69270 0.16930 0.84140 0.20300
C 	C 	0.62990 0.13980 0.79270 -0.28400
C 	C 	0.61350 0.10330 0.72620 0.19700
C 	C 	0.65490 0.09010 0.70380 -0.24600
C 	C 	0.62540 0.03990 0.62690 0.36800
C 	C 	0.61910 0.94870 0.53840 -0.14900
C 	C 	0.67030 0.93920 0.53290 0.15600
C 	C 	0.73030 0.98640 0.53850 -0.06100
C 	C 	0.76580 0.95200 0.52100 -0.06100
C 	C 	0.73050 0.88410 0.51080 0.08300
C 	C 	0.84820 0.04570 0.70950 -0.00600
C 	C 	0.85720 0.96220 0.74180 0.30300
C 	C 	0.83550 0.91800 0.67450 -0.30000
C 	C 	0.82790 0.85130 0.65860 0.22900
C 	C 	0.84710 0.83720 0.70730 -0.30000
C 	C 	0.87710 0.88730 0.77380 0.21700
C 	C 	0.88630 0.95110 0.79620 -0.25400
C 	C 	0.91300 0.99850 0.87310 0.40500
C 	C 	0.91030 0.08070 0.96160 -0.18100
C 	C 	0.90630 0.13740 0.96710 0.18900
C 	C 	0.94790 0.19180 0.96150 -0.12300
C 	C 	0.93100 0.24480 0.97900 -0.02700
C 	C 	0.87330 0.21970 0.98920 0.07600
C 	C 	0.29050 0.83620 0.63870 -0.02300
C 	C 	0.25820 0.72040 0.61540 0.27100
C 	C 	0.32550 0.74350 0.66100 -0.28400
C 	C 	0.34140 0.69270 0.66930 0.20900
C 	C 	0.29270 0.62990 0.63980 -0.28900
C 	C 	0.22620 0.61350 0.60330 0.20400
C 	C 	0.20380 0.65490 0.59010 -0.25000
C 	C 	0.12690 0.62540 0.53990 0.38900
C 	C 	0.03840 0.61910 0.44870 -0.15400
C 	C 	0.03290 0.67030 0.43920 0.16800
C 	C 	0.03850 0.73030 0.48640 -0.12300
C 	C 	0.02100 0.76580 0.45200 -0.03800
C 	C 	0.01080 0.73050 0.38410 0.07000
C 	C 	0.20950 0.84820 0.54570 -0.02300
C 	C 	0.24180 0.85720 0.46220 0.27100
C 	C 	0.17450 0.83550 0.41800 -0.28300
C 	C 	0.15860 0.82790 0.35130 0.21100
C 	C 	0.20730 0.84710 0.33720 -0.28400
C 	C 	0.27380 0.87710 0.38730 0.20300
C 	C 	0.29620 0.88630 0.45110 -0.24500
C 	C 	0.37310 0.91300 0.49850 0.38900
C 	C 	0.46160 0.91030 0.58070 -0.17100
C 	C 	0.46710 0.90630 0.63740 0.18100
C 	C 	0.46150 0.94790 0.69180 -0.12300
C 	C 	0.47900 0.93100 0.74480 -0.03200
C 	C 	0.48920 0.87330 0.71970 0.07400
C 	C 	0.69750 0.65180 0.86130 -0.01900
C 	C 	0.60500 0.64280 0.88460 0.27900
C 	C 	0.58250 0.66450 0.83900 -0.28900
C 	C 	0.52340 0.67210 0.83070 0.21700
C 	C 	0.49010 0.65290 0.86020 -0.29600
C 	C 	0.51020 0.62290 0.89670 0.21400
C 	C 	0.56480 0.61370 0.90990 -0.25800
C 	C 	0.58550 0.58700 0.96010 0.41700
C 	C 	0.67040 0.58970 0.05130 -0.17800
C 	C 	0.73110 0.59370 0.06080 0.19500
C 	C 	0.74390 0.55210 0.01360 -0.19000
C 	C 	0.81380 0.56900 0.04800 -0.00400
C 	C 	0.84640 0.62670 0.11590 0.05600
C 	C 	0.80250 0.66380 0.95430 -0.02200
C 	C 	0.89500 0.77960 0.03780 0.33100
C 	C 	0.91750 0.75650 0.08200 -0.41600
C 	C 	0.97660 0.80730 0.14870 0.44300
C 	C 	0.00990 0.87010 0.16280 -0.58400
C 	C 	0.98980 0.88650 0.11270 0.45400
C 	C 	0.93520 0.84510 0.04890 -0.35900
C 	C 	0.91450 0.87460 0.00150 0.39700
C 	C 	0.82960 0.88090 0.91930 -0.17100
C 	C 	0.76890 0.82970 0.86260 0.18000
C 	C 	0.75610 0.76970 0.80820 -0.12600
C 	C 	0.68620 0.73420 0.75520 -0.03200
C 	C 	0.65360 0.76950 0.78030 0.07100
C 	C 	0.45430 0.80250 0.16380 -0.00100
C 	C 	0.53780 0.89500 0.27960 0.37800
C 	C 	0.58200 0.91750 0.25650 -0.45200
C 	C 	0.64870 0.97660 0.30730 0.48400
C 	C 	0.66280 0.00990 0.37010 -0.63000
C 	C 	0.61270 0.98980 0.38650 0.49600
C 	C 	0.54890 0.93520 0.34510 -0.39200
C 	C 	0.50150 0.91450 0.37460 0.43600
C 	C 	0.41930 0.82960 0.38090 -0.16000
C 	C 	0.36260 0.76890 0.32970 0.17400
C 	C 	0.30820 0.75610 0.26970 -0.12200
C 	C 	0.25520 0.68620 0.23420 -0.03500
C 	C 	0.28030 0.65360 0.26950 0.07200
C 	C 	0.36130 0.69750 0.15180 -0.01200
C 	C 	0.38460 0.60500 0.14280 0.27500
C 	C 	0.33900 0.58250 0.16450 -0.28900
C 	C 	0.33070 0.52340 0.17210 0.21300
C 	C 	0.36020 0.49010 0.15290 -0.29900
C 	C 	0.39670 0.51020 0.12290 0.21000
C 	C 	0.40990 0.56480 0.11370 -0.26100
C 	C 	0.46010 0.58550 0.08700 0.39500
C 	C 	0.55130 0.67040 0.08970 -0.15500
C 	C 	0.56080 0.73110 0.09370 0.16800
C 	C 	0.51360 0.74390 0.05210 -0.12300
C 	C 	0.54800 0.81380 0.06900 -0.03600
C 	C 	0.61590 0.84640 0.12670 0.06700
C 	C 	0.04570 0.20950 0.34820 0.00200
C 	C 	0.96220 0.24180 0.35720 0.32200
C 	C 	0.91800 0.17450 0.33550 -0.31800
C 	C 	0.85130 0.15860 0.32790 0.24500
C 	C 	0.83720 0.20730 0.34710 -0.32300
C 	C 	0.88730 0.27380 0.37710 0.23500
C 	C 	0.95110 0.29620 0.38630 -0.27400
C 	C 	0.99850 0.37310 0.41300 0.42500
C 	C 	0.08070 0.46160 0.41030 -0.15900
C 	C 	0.13740 0.46710 0.40630 0.17200
C 	C 	0.19180 0.46150 0.44790 -0.12200
C 	C 	0.24480 0.47900 0.43100 -0.03500
C 	C 	0.21970 0.48920 0.37330 0.07200
C 	C 	0.13870 0.29050 0.33620 -0.01400
C 	C 	0.11540 0.25820 0.22040 0.26400
C 	C 	0.16100 0.32550 0.24350 -0.28000
C 	C 	0.16930 0.34140 0.19270 0.20200
C 	C 	0.13980 0.29270 0.12990 -0.28500
C 	C 	0.10330 0.22620 0.11350 0.19400
C 	C 	0.09010 0.20380 0.15490 -0.24600
C 	C 	0.03990 0.12690 0.12540 0.35500
C 	C 	0.94870 0.03840 0.11910 -0.13400
C 	C 	0.93920 0.03290 0.17030 0.14100
C 	C 	0.98640 0.03850 0.23030 -0.03800
C 	C 	0.95200 0.02100 0.26580 -0.07500
C 	C 	0.88410 0.01080 0.23050 0.08600
C 	C 	0.95430 0.16380 0.80250 -0.02100
C 	C 	0.03780 0.27960 0.89500 0.33100
C 	C 	0.08200 0.25650 0.91750 -0.42400
C 	C 	0.14870 0.30730 0.97660 0.45700
C 	C 	0.16280 0.37010 0.00990 -0.60500
C 	C 	0.11270 0.38650 0.98980 0.47200
C 	C 	0.04890 0.34510 0.93520 -0.37000
C 	C 	0.00150 0.37460 0.91450 0.39700
C 	C 	0.91930 0.38090 0.82960 -0.16700
C 	C 	0.86260 0.32970 0.76890 0.17800
C 	C 	0.80820 0.26970 0.75610 -0.12400
C 	C 	0.75520 0.23420 0.68620 -0.03300
C 	C 	0.78030 0.26950 0.65360 0.07100
C 	C 	0.86130 0.15180 0.69750 -0.01600
C 	C 	0.88460 0.14280 0.60500 0.28200
C 	C 	0.83900 0.16450 0.58250 -0.29300
C 	C 	0.83070 0.17210 0.52340 0.22000
C 	C 	0.86020 0.15290 0.49010 -0.30400
C 	C 	0.89670 0.12290 0.51020 0.21900
C 	C 	0.90990 0.11370 0.56480 -0.26600
C 	C 	0.96010 0.08700 0.58550 0.42500
C 	C 	0.05130 0.08970 0.67040 -0.17400
C 	C 	0.06080 0.09370 0.73110 0.19200
C 	C 	0.01360 0.05210 0.74390 -0.20400
C 	C 	0.04800 0.06900 0.81380 -0.00100
C 	C 	0.11590 0.12670 0.84640 0.05200
C 	C 	0.54570 0.34820 0.20950 -0.01800
C 	C 	0.46220 0.35720 0.24180 0.27300
C 	C 	0.41800 0.33550 0.17450 -0.28700
C 	C 	0.35130 0.32790 0.15860 0.21200
C 	C 	0.33720 0.34710 0.20730 -0.29300
C 	C 	0.38730 0.37710 0.27380 0.20700
C 	C 	0.45110 0.38630 0.29620 -0.25300
C 	C 	0.49850 0.41300 0.37310 0.39200
C 	C 	0.58070 0.41030 0.46160 -0.16300
C 	C 	0.63740 0.40630 0.46710 0.17500
C 	C 	0.69180 0.44790 0.46150 -0.12300
C 	C 	0.74480 0.43100 0.47900 -0.03400
C 	C 	0.71970 0.37330 0.48920 0.07200
C 	C 	0.63870 0.33620 0.29050 -0.01900
C 	C 	0.61540 0.22040 0.25820 0.27100
C 	C 	0.66100 0.24350 0.32550 -0.28500
C 	C 	0.66930 0.19270 0.34140 0.20900
C 	C 	0.63980 0.12990 0.29270 -0.29100
C 	C 	0.60330 0.11350 0.22620 0.20400
C 	C 	0.59010 0.15490 0.20380 -0.25200
C 	C 	0.53990 0.12540 0.12690 0.38500
C 	C 	0.44870 0.11910 0.03840 -0.15200
C 	C 	0.43920 0.17030 0.03290 0.16600
C 	C 	0.48640 0.23030 0.03850 -0.12200
C 	C 	0.45200 0.26580 0.02100 -0.03900
C 	C 	0.38410 0.23050 0.01080 0.07000
C 	C 	0.15180 0.19750 0.36130 -0.02700
C 	C 	0.14280 0.10500 0.38460 0.15400
C 	C 	0.16450 0.08250 0.33900 -0.09700
C 	C 	0.17210 0.02340 0.33070 -0.10200
C 	C 	0.15290 0.99010 0.36020 0.09200
C 	C 	0.12290 0.01020 0.39670 -0.12400
C 	C 	0.11370 0.06480 0.40990 -0.10000
C 	C 	0.08700 0.08550 0.46010 0.34300
C 	C 	0.08970 0.17040 0.55130 -0.15700
C 	C 	0.09370 0.23110 0.56080 0.16800
C 	C 	0.05210 0.24390 0.51360 -0.12300
C 	C 	0.06900 0.31380 0.54800 -0.03800
C 	C 	0.12670 0.34640 0.61590 0.06900
C 	C 	0.16380 0.30250 0.45430 -0.01400
C 	C 	0.27960 0.39500 0.53780 0.27300
C 	C 	0.25650 0.41750 0.58200 -0.28500
C 	C 	0.30730 0.47660 0.64870 0.21100
C 	C 	0.37010 0.50990 0.66280 -0.29100
C 	C 	0.38650 0.48980 0.61270 0.20600
C 	C 	0.34510 0.43520 0.54890 -0.25200
C 	C 	0.37460 0.41450 0.50150 0.39200
C 	C 	0.38090 0.32960 0.41930 -0.16300
C 	C 	0.32970 0.26890 0.36260 0.17400
C 	C 	0.26970 0.25610 0.30820 -0.12200
C 	C 	0.23420 0.18620 0.25520 -0.03700
C 	C 	0.26950 0.15360 0.28030 0.07500
C 	C 	0.33620 0.79050 0.13870 -0.01200
C 	C 	0.22040 0.75820 0.11540 0.26600
C 	C 	0.24350 0.82550 0.16100 -0.28100
C 	C 	0.19270 0.84140 0.16930 0.20300
C 	C 	0.12990 0.79270 0.13980 -0.28600
C 	C 	0.11350 0.72620 0.10330 0.19700
C 	C 	0.15490 0.70380 0.09010 -0.24800
C 	C 	0.12540 0.62690 0.03990 0.36300
C 	C 	0.11910 0.53840 0.94870 -0.14400
C 	C 	0.17030 0.53290 0.93920 0.15200
C 	C 	0.23030 0.53850 0.98640 -0.05500
C 	C 	0.26580 0.52100 0.95200 -0.06400
C 	C 	0.23050 0.51080 0.88410 0.08400
C 	C 	0.34820 0.70950 0.04570 0.00000
C 	C 	0.35720 0.74180 0.96220 0.30900
C 	C 	0.33550 0.67450 0.91800 -0.30800
C 	C 	0.32790 0.65860 0.85130 0.23300
C 	C 	0.34710 0.70730 0.83720 -0.31100
C 	C 	0.37710 0.77380 0.88730 0.22400
C 	C 	0.38630 0.79620 0.95110 -0.26500
C 	C 	0.41300 0.87310 0.99850 0.41200
C 	C 	0.41030 0.96160 0.08070 -0.17200
C 	C 	0.40630 0.96710 0.13740 0.18100
C 	C 	0.44790 0.96150 0.19180 -0.12300
C 	C 	0.43100 0.97900 0.24480 -0.03000
C 	C 	0.37330 0.98920 0.21970 0.07300
C 	C 	0.79050 0.63870 0.83620 -0.01900
C 	C 	0.75820 0.61540 0.72040 0.27200
C 	C 	0.82550 0.66100 0.74350 -0.28300
C 	C 	0.84140 0.66930 0.69270 0.20900
C 	C 	0.79270 0.63980 0.62990 -0.28900
C 	C 	0.72620 0.60330 0.61350 0.20500
C 	C 	0.70380 0.59010 0.65490 -0.25200
C 	C 	0.62690 0.53990 0.62540 0.39200
C 	C 	0.53840 0.44870 0.61910 -0.16300
C 	C 	0.53290 0.43920 0.67030 0.17500
C 	C 	0.53850 0.48640 0.73030 -0.12300
C 	C 	0.52100 0.45200 0.76580 -0.03400
C 	C 	0.51080 0.38410 0.73050 0.07100
C 	C 	0.70950 0.54570 0.84820 -0.02000
C 	C 	0.74180 0.46220 0.85720 0.26800
C 	C 	0.67450 0.41800 0.83550 -0.27900
C 	C 	0.65860 0.35130 0.82790 0.20700
C 	C 	0.70730 0.33720 0.84710 -0.27900
C 	C 	0.77380 0.38730 0.87710 0.19800
C 	C 	0.79620 0.45110 0.88630 -0.24100
C 	C 	0.87310 0.49850 0.91300 0.38300
C 	C 	0.96160 0.58070 0.91030 -0.18200
C 	C 	0.96710 0.63740 0.90630 0.19000
C 	C 	0.96150 0.69180 0.94790 -0.12400
C 	C 	0.97900 0.74480 0.93100 -0.02700
C 	C 	0.98920 0.71970 0.87330 0.07500
C 	C 	0.19750 0.86130 0.65180 -0.03400
C 	C 	0.10500 0.88460 0.64280 0.17300
C 	C 	0.08250 0.83900 0.66450 -0.12000
C 	C 	0.02340 0.83070 0.67210 -0.05900
C 	C 	0.99010 0.86020 0.65290 0.04800
C 	C 	0.01020 0.89670 0.62290 -0.07800
C 	C 	0.06480 0.90990 0.61370 -0.11700
C 	C 	0.08550 0.96010 0.58700 0.37400
C 	C 	0.17040 0.05130 0.58970 -0.18200
C 	C 	0.23110 0.06080 0.59370 0.19700
C 	C 	0.24390 0.01360 0.55210 -0.19600
C 	C 	0.31380 0.04800 0.56900 -0.00200
C 	C 	0.34640 0.11590 0.62670 0.05800
C 	C 	0.30250 0.95430 0.66380 -0.03600
C 	C 	0.39500 0.03780 0.77960 0.22600
C 	C 	0.41750 0.08200 0.75650 -0.25200
C 	C 	0.47660 0.14870 0.80730 0.17600
C 	C 	0.50990 0.16280 0.87010 -0.25200
C 	C 	0.48980 0.11270 0.88650 0.17200
C 	C 	0.43520 0.04890 0.84510 -0.22200
C 	C 	0.41450 0.00150 0.87460 0.35300
C 	C 	0.32960 0.91930 0.88090 -0.17400
C 	C 	0.26890 0.86260 0.82970 0.18200
C 	C 	0.25610 0.80820 0.76970 -0.12600
C 	C 	0.18620 0.75520 0.73420 -0.03400
C 	C 	0.15360 0.78030 0.76950 0.07400
C 	C 	0.62500 0.37500 0.25000 0.04800
C 	C 	0.87500 0.12500 0.75000 0.04400
C 	C 	0.25000 0.87500 0.62500 0.05500
C 	C 	0.75000 0.62500 0.87500 0.04900
C 	C 	0.37500 0.75000 0.12500 0.03600
C 	C 	0.12500 0.25000 0.37500 0.04000
N 	N 	0.61470 0.50170 0.15040 -0.24000
N 	N 	0.34740 0.36170 0.96410 0.07700
N 	N 	0.85130 0.46430 0.34960 -0.24700
N 	N 	0.89760 0.38330 0.53590 0.06300
N 	N 	0.64870 0.99830 0.61300 -0.23800
N 	N 	0.60240 0.13830 0.48570 0.06500
N 	N 	0.88530 0.03570 0.88700 -0.25700
N 	N 	0.15260 0.11670 0.01430 0.05200
N 	N 	0.11300 0.64870 0.49830 -0.25100
N 	N 	0.98570 0.60240 0.63830 0.07800
N 	N 	0.38700 0.88530 0.53570 -0.24800
N 	N 	0.51430 0.15260 0.61670 0.06500
N 	N 	0.65040 0.61470 0.00170 -0.26400
N 	N 	0.46410 0.34740 0.86170 0.06500
N 	N 	0.84960 0.85130 0.96430 -0.24000
N 	N 	0.03590 0.89760 0.88330 0.05000
N 	N 	0.46430 0.84960 0.35130 -0.26100
N 	N 	0.38330 0.03590 0.39760 0.05200
N 	N 	0.50170 0.65040 0.11470 -0.25400
N 	N 	0.36170 0.46410 0.84740 0.06400
N 	N 	0.03570 0.38700 0.38530 -0.26900
N 	N 	0.11670 0.51430 0.65260 0.06400
N 	N 	0.99830 0.11300 0.14870 -0.23500
N 	N 	0.13830 0.98570 0.10240 0.07900
N 	N 	0.96430 0.35130 0.84960 -0.24000
N 	N 	0.88330 0.39760 0.03590 0.05200
N 	N 	0.00170 0.11470 0.65040 -0.27000
N 	N 	0.86170 0.84740 0.46410 0.06400
N 	N 	0.53570 0.38530 0.38700 -0.25100
N 	N 	0.61670 0.65260 0.51430 0.06500
N 	N 	0.49830 0.14870 0.11300 -0.25200
N 	N 	0.63830 0.10240 0.98570 0.07800
N 	N 	0.11470 0.15040 0.50170 -0.24200
N 	N 	0.84740 0.96410 0.36170 0.07500
N 	N 	0.35130 0.34960 0.46430 -0.25100
N 	N 	0.39760 0.53590 0.38330 0.06500
N 	N 	0.14870 0.61300 0.99830 -0.23800
N 	N 	0.10240 0.48570 0.13830 0.06500
N 	N 	0.38530 0.88700 0.03570 -0.26200
N 	N 	0.65260 0.01430 0.11670 0.05100
N 	N 	0.61300 0.49830 0.64870 -0.25100
N 	N 	0.48570 0.63830 0.60240 0.06500
N 	N 	0.88700 0.53570 0.88530 -0.24400
N 	N 	0.01430 0.61670 0.15260 0.05100
N 	N 	0.15040 0.00170 0.61470 -0.25500
N 	N 	0.96410 0.86170 0.34740 0.07700
N 	N 	0.34960 0.96430 0.85130 -0.22900
N 	N 	0.53590 0.88330 0.89760 0.06300
O 	O 	0.54540 0.46260 0.04060 -0.48500
O 	O 	0.64070 0.62400 0.29510 -0.20000
O 	O 	0.63230 0.39580 0.16030 -0.21700
O 	O 	0.40870 0.38670 0.00600 -0.30000
O 	O 	0.33250 0.38290 0.92340 -0.26800
O 	O 	0.30110 0.32180 0.96930 -0.09700
O 	O 	0.92200 0.50480 0.45940 -0.46300
O 	O 	0.82890 0.34560 0.20490 -0.19900
O 	O 	0.73550 0.47200 0.33970 -0.24100
O 	O 	0.88070 0.40270 0.49400 -0.26700
O 	O 	0.95950 0.40910 0.57660 -0.24800
O 	O 	0.85250 0.33180 0.53070 -0.10600
O 	O 	0.57800 0.03740 0.58280 -0.48200
O 	O 	0.67110 0.87600 0.51670 -0.19800
O 	O 	0.76450 0.10420 0.73650 -0.24500
O 	O 	0.61930 0.11330 0.52200 -0.27400
O 	O 	0.54050 0.11710 0.44960 -0.27100
O 	O 	0.64750 0.17820 0.47930 -0.11000
O 	O 	0.95460 0.99520 0.91720 -0.44100
O 	O 	0.85930 0.15440 0.98330 -0.19700
O 	O 	0.86770 0.02800 0.76350 -0.26000
O 	O 	0.09130 0.09730 0.97800 -0.25400
O 	O 	0.16750 0.09090 0.05040 -0.26600
O 	O 	0.19890 0.16820 0.02070 -0.11900
O 	O 	0.08280 0.57800 0.53740 -0.47900
O 	O 	0.01670 0.67110 0.37600 -0.20400
O 	O 	0.23650 0.76450 0.60420 -0.24200
O 	O 	0.02200 0.61930 0.61330 -0.29200
O 	O 	0.94960 0.54050 0.61710 -0.25500
O 	O 	0.97930 0.64750 0.67820 -0.10000
O 	O 	0.41720 0.95460 0.49520 -0.46700
O 	O 	0.48330 0.85930 0.65440 -0.20000
O 	O 	0.26350 0.86770 0.52800 -0.24000
O 	O 	0.47800 0.09130 0.59730 -0.28000
O 	O 	0.55040 0.16750 0.59090 -0.26500
O 	O 	0.52070 0.19890 0.66820 -0.10900
O 	O 	0.54060 0.54540 0.96260 -0.48400
O 	O 	0.79510 0.64070 0.12400 -0.20000
O 	O 	0.66030 0.63230 0.89580 -0.23900
O 	O 	0.50600 0.40870 0.88670 -0.28000
O 	O 	0.42340 0.33250 0.88290 -0.26500
O 	O 	0.46930 0.30110 0.82180 -0.10800
O 	O 	0.95940 0.92200 0.00480 -0.45700
O 	O 	0.70490 0.82890 0.84560 -0.19600
O 	O 	0.83970 0.73550 0.97200 -0.24000
O 	O 	0.99400 0.88070 0.90270 -0.23400
O 	O 	0.07660 0.95950 0.90910 -0.23700
O 	O 	0.03070 0.85250 0.83180 -0.11700
O 	O 	0.50480 0.95940 0.42200 -0.48100
O 	O 	0.34560 0.70490 0.32890 -0.20000
O 	O 	0.47200 0.83970 0.23550 -0.26700
O 	O 	0.40270 0.99400 0.38070 -0.25300
O 	O 	0.40910 0.07660 0.45950 -0.26800
O 	O 	0.33180 0.03070 0.35250 -0.12200
O 	O 	0.46260 0.54060 0.04540 -0.49800
O 	O 	0.62400 0.79510 0.14070 -0.19800
O 	O 	0.39580 0.66030 0.13230 -0.24600
O 	O 	0.38670 0.50600 0.90870 -0.27400
O 	O 	0.38290 0.42340 0.83250 -0.27100
O 	O 	0.32180 0.46930 0.80110 -0.10800
O 	O 	0.99520 0.41720 0.45460 -0.46900
O 	O 	0.15440 0.48330 0.35930 -0.20200
O 	O 	0.02800 0.26350 0.36770 -0.27300
O 	O 	0.09730 0.47800 0.59130 -0.27800
O 	O 	0.09090 0.55040 0.66750 -0.26900
O 	O 	0.16820 0.52070 0.69890 -0.11000
O 	O 	0.03740 0.08280 0.07800 -0.47800
O 	O 	0.87600 0.01670 0.17110 -0.20300
O 	O 	0.10420 0.23650 0.26450 -0.24600
O 	O 	0.11330 0.02200 0.11930 -0.28700
O 	O 	0.11710 0.94960 0.04050 -0.26100
O 	O 	0.17820 0.97930 0.14750 -0.10300
O 	O 	0.00480 0.42200 0.95940 -0.47600
O 	O 	0.84560 0.32890 0.70490 -0.19800
O 	O 	0.97200 0.23550 0.83970 -0.23800
O 	O 	0.90270 0.38070 0.99400 -0.24100
O 	O 	0.90910 0.45950 0.07660 -0.25300
O 	O 	0.83180 0.35250 0.03070 -0.11800
O 	O 	0.96260 0.04540 0.54060 -0.49700
O 	O 	0.12400 0.14070 0.79510 -0.20100
O 	O 	0.89580 0.13230 0.66030 -0.24100
O 	O 	0.88670 0.90870 0.50600 -0.27700
O 	O 	0.88290 0.83250 0.42340 -0.26800
O 	O 	0.82180 0.80110 0.46930 -0.10600
O 	O 	0.49520 0.45460 0.41720 -0.48300
O 	O 	0.65440 0.35930 0.48330 -0.20000
O 	O 	0.52800 0.36770 0.26350 -0.24300
O 	O 	0.59730 0.59130 0.47800 -0.27700
O 	O 	0.59090 0.66750 0.55040 -0.26700
O 	O 	0.66820 0.69890 0.52070 -0.10800
O 	O 	0.53740 0.07800 0.08280 -0.48000
O 	O 	0.37600 0.17110 0.01670 -0.20700
O 	O 	0.60420 0.26450 0.23650 -0.24200
O 	O 	0.61330 0.11930 0.02200 -0.28800
O 	O 	0.61710 0.04050 0.94960 -0.26000
O 	O 	0.67820 0.14750 0.97930 -0.10200
O 	O 	0.04540 0.04060 0.46260 -0.50000
O 	O 	0.14070 0.29510 0.62400 -0.20000
O 	O 	0.13230 0.16030 0.39580 -0.21800
O 	O 	0.90870 0.00600 0.38670 -0.29300
O 	O 	0.83250 0.92340 0.38290 -0.27100
O 	O 	0.80110 0.96930 0.32180 -0.09700
O 	O 	0.42200 0.45940 0.50480 -0.48300
O 	O 	0.32890 0.20490 0.34560 -0.20200
O 	O 	0.23550 0.33970 0.47200 -0.24300
O 	O 	0.38070 0.49400 0.40270 -0.27700
O 	O 	0.45950 0.57660 0.40910 -0.26800
O 	O 	0.35250 0.53070 0.33180 -0.10900
O 	O 	0.07800 0.58280 0.03740 -0.48200
O 	O 	0.17110 0.51670 0.87600 -0.20100
O 	O 	0.26450 0.73650 0.10420 -0.24600
O 	O 	0.11930 0.52200 0.11330 -0.27000
O 	O 	0.04050 0.44960 0.11710 -0.27600
O 	O 	0.14750 0.47930 0.17820 -0.11200
O 	O 	0.45460 0.91720 0.99520 -0.45800
O 	O 	0.35930 0.98330 0.15440 -0.19800
O 	O 	0.36770 0.76350 0.02800 -0.26600
O 	O 	0.59130 0.97800 0.09730 -0.25200
O 	O 	0.66750 0.05040 0.09090 -0.26800
O 	O 	0.69890 0.02070 0.16820 -0.11700
O 	O 	0.58280 0.53740 0.57800 -0.48300
O 	O 	0.51670 0.37600 0.67110 -0.20000
O 	O 	0.73650 0.60420 0.76450 -0.24200
O 	O 	0.52200 0.61330 0.61930 -0.27700
O 	O 	0.44960 0.61710 0.54050 -0.26800
O 	O 	0.47930 0.67820 0.64750 -0.10800
O 	O 	0.91720 0.49520 0.95460 -0.45300
O 	O 	0.98330 0.65440 0.85930 -0.19600
O 	O 	0.76350 0.52800 0.86770 -0.23900
O 	O 	0.97800 0.59730 0.09130 -0.25200
O 	O 	0.05040 0.59090 0.16750 -0.26400
O 	O 	0.02070 0.66820 0.19890 -0.11700
O 	O 	0.04060 0.96260 0.54540 -0.48500
O 	O 	0.29510 0.12400 0.64070 -0.20200
O 	O 	0.16030 0.89580 0.63230 -0.21500
O 	O 	0.00600 0.88670 0.40870 -0.30200
O 	O 	0.92340 0.88290 0.33250 -0.26600
O 	O 	0.96930 0.82180 0.30110 -0.09500
O 	O 	0.45940 0.00480 0.92200 -0.46000
O 	O 	0.20490 0.84560 0.82890 -0.19800
O 	O 	0.33970 0.97200 0.73550 -0.21600
O 	O 	0.49400 0.90270 0.88070 -0.25700
O 	O 	0.57660 0.90910 0.95950 -0.23900
O 	O 	0.53070 0.83180 0.85250 -0.10400
