data_crystal

_cell_length_a 26.01190
_cell_length_b 26.01190
_cell_length_c 26.01190
_cell_angle_alpha 90.00000
_cell_angle_beta  90.00000
_cell_angle_gamma 90.00000

_symmetry_space_group_name_	'P 1'
_symmetry_space_group_name_H-M	'P 1'

loop_
_symmetry_equiv_pos_as_xyz
  x,y,z

loop_
_atom_site_label
_atom_site_type_symbol
_atom_site_fract_x
_atom_site_fract_y
_atom_site_fract_z
_atom_site_charge
Zn	Zn	0.45548 0.54749 0.54579 1.23200
C 	C 	0.37070 0.60150 0.50860 0.52800
C 	C 	0.33050 0.61540 0.47000 -0.43600
C 	C 	0.31770 0.58260 0.42930 0.48700
C 	C 	0.27740 0.59570 0.39640 -0.45500
H 	H 	0.26870 0.57310 0.37010 0.20200
C 	C 	0.25020 0.64020 0.40130 0.34300
C 	C 	0.26300 0.67200 0.44230 -0.47400
H 	H 	0.24500 0.70250 0.44720 0.20800
C 	C 	0.30180 0.65940 0.47590 0.51700
C 	C 	0.20610 0.65400 0.36740 -0.16500
C 	C 	0.19450 0.62130 0.32570 0.08300
H 	H 	0.21510 0.59270 0.31920 -0.00700
C 	C 	0.15180 0.63170 0.29380 -0.15700
C 	C 	0.12100 0.67360 0.30550 0.08500
H 	H 	0.09220 0.68010 0.28530 -0.00200
C 	C 	0.13190 0.70570 0.34600 -0.15400
C 	C 	0.17510 0.69510 0.37640 0.08900
H 	H 	0.18290 0.71690 0.40360 -0.00400
C 	C 	0.13880 0.59620 0.25050 0.33500
C 	C 	0.17490 0.56030 0.23320 -0.44600
H 	H 	0.20720 0.55910 0.24840 0.20900
C 	C 	0.16310 0.52670 0.19390 0.48800
C 	C 	0.11440 0.52750 0.17020 -0.48100
C 	C 	0.07830 0.56260 0.18830 0.59100
C 	C 	0.09070 0.59650 0.22820 -0.48300
H 	H 	0.06610 0.61970 0.23980 0.23400
C 	C 	0.10050 0.49020 0.12890 0.54300
C 	C 	0.09710 0.74850 0.35990 0.30300
C 	C 	0.06050 0.76630 0.32380 -0.41500
H 	H 	0.05940 0.75190 0.29110 0.19000
C 	C 	0.02650 0.80470 0.33650 0.46200
C 	C 	0.02720 0.82680 0.38530 -0.42900
C 	C 	0.06330 0.80980 0.42090 0.50300
C 	C 	0.09710 0.77120 0.40900 -0.44700
H 	H 	0.12040 0.75980 0.43370 0.21600
C 	C 	0.99020 0.86830 0.39980 0.53000
O 	O 	0.39670 0.56020 0.50020 -0.47600
O 	O 	0.37810 0.63020 0.54540 -0.47900
O 	O 	0.13170 0.45430 0.12090 -0.51200
O 	O 	0.06150 0.49820 0.10260 -0.50500
O 	O 	0.95410 0.87850 0.36880 -0.49200
O 	O 	0.99820 0.89300 0.44010 -0.48800
O 	O 	0.31420 0.69500 0.50860 -0.51300
H 	H 	0.29790 0.69090 0.53530 0.28500
O 	O 	0.19960 0.49170 0.18200 -0.49600
H 	H 	0.18680 0.46880 0.16440 0.31300
O 	O 	0.99240 0.81780 0.29920 -0.49000
H 	H 	0.96660 0.83010 0.31240 0.32200
O 	O 	0.03700 0.56100 0.18100 -0.35100
O 	O 	0.06250 0.82680 0.46880 -0.48700
H 	H 	0.04310 0.80880 0.48600 0.30000
O 	O 	0.35100 0.54720 0.41430 -0.49100
H 	H 	0.35080 0.52320 0.43470 0.29600
Zn	Zn	0.04452 0.45251 0.04579 1.23300
C 	C 	0.12930 0.39850 0.00860 0.52900
C 	C 	0.16950 0.38460 0.97000 -0.43500
C 	C 	0.18230 0.41740 0.92930 0.48800
C 	C 	0.22260 0.40430 0.89640 -0.45400
H 	H 	0.23130 0.42690 0.87010 0.20300
C 	C 	0.24980 0.35980 0.90130 0.34400
C 	C 	0.23700 0.32800 0.94230 -0.47300
H 	H 	0.25500 0.29750 0.94720 0.20900
C 	C 	0.19820 0.34060 0.97590 0.51800
C 	C 	0.29390 0.34600 0.86740 -0.16400
C 	C 	0.30550 0.37870 0.82570 0.08400
H 	H 	0.28490 0.40730 0.81920 -0.00600
C 	C 	0.34820 0.36830 0.79380 -0.15600
C 	C 	0.37900 0.32640 0.80550 0.08600
H 	H 	0.40780 0.31990 0.78530 -0.00100
C 	C 	0.36810 0.29430 0.84600 -0.15300
C 	C 	0.32490 0.30490 0.87640 0.09000
H 	H 	0.31710 0.28310 0.90360 -0.00300
C 	C 	0.36120 0.40380 0.75050 0.33600
C 	C 	0.32510 0.43970 0.73320 -0.44500
H 	H 	0.29280 0.44090 0.74840 0.21000
C 	C 	0.33690 0.47330 0.69390 0.48900
C 	C 	0.38560 0.47250 0.67020 -0.48000
C 	C 	0.42170 0.43740 0.68830 0.59200
C 	C 	0.40930 0.40350 0.72820 -0.48200
H 	H 	0.43390 0.38030 0.73980 0.23500
C 	C 	0.39950 0.50980 0.62890 0.54400
C 	C 	0.40290 0.25150 0.85990 0.30300
C 	C 	0.43950 0.23370 0.82380 -0.41500
H 	H 	0.44060 0.24810 0.79110 0.19000
C 	C 	0.47350 0.19530 0.83650 0.46200
C 	C 	0.47280 0.17320 0.88530 -0.42900
C 	C 	0.43670 0.19020 0.92090 0.50300
C 	C 	0.40290 0.22880 0.90900 -0.44700
H 	H 	0.37960 0.24020 0.93370 0.21600
C 	C 	0.50980 0.13170 0.89980 0.53000
O 	O 	0.10330 0.43980 0.00020 -0.47600
O 	O 	0.12190 0.36980 0.04540 -0.47900
O 	O 	0.36830 0.54570 0.62090 -0.51200
O 	O 	0.43850 0.50180 0.60260 -0.50500
O 	O 	0.54590 0.12150 0.86880 -0.49200
O 	O 	0.50180 0.10700 0.94010 -0.48800
O 	O 	0.18580 0.30500 0.00860 -0.51300
H 	H 	0.20210 0.30910 0.03530 0.28500
O 	O 	0.30040 0.50830 0.68200 -0.49600
H 	H 	0.31320 0.53120 0.66440 0.31300
O 	O 	0.50760 0.18220 0.79920 -0.49000
H 	H 	0.53340 0.16990 0.81240 0.32200
O 	O 	0.46300 0.43900 0.68100 -0.35100
O 	O 	0.43750 0.17320 0.96880 -0.48700
H 	H 	0.45690 0.19120 0.98600 0.30000
O 	O 	0.14900 0.45280 0.91430 -0.49100
H 	H 	0.14920 0.47680 0.93470 0.29600
Zn	Zn	0.54452 0.04749 0.95421 1.23300
C 	C 	0.62930 0.10150 0.99140 0.52900
C 	C 	0.66950 0.11540 0.03000 -0.43400
C 	C 	0.68230 0.08260 0.07070 0.48800
C 	C 	0.72260 0.09570 0.10360 -0.45400
H 	H 	0.73130 0.07310 0.12990 0.20300
C 	C 	0.74980 0.14020 0.09870 0.34400
C 	C 	0.73700 0.17200 0.05770 -0.47300
H 	H 	0.75500 0.20250 0.05280 0.20900
C 	C 	0.69820 0.15940 0.02410 0.51800
C 	C 	0.79390 0.15400 0.13260 -0.16400
C 	C 	0.80550 0.12130 0.17430 0.08400
H 	H 	0.78490 0.09270 0.18080 -0.00600
C 	C 	0.84820 0.13170 0.20620 -0.15600
C 	C 	0.87900 0.17360 0.19450 0.08600
H 	H 	0.90780 0.18010 0.21470 -0.00100
C 	C 	0.86810 0.20570 0.15400 -0.15300
C 	C 	0.82490 0.19510 0.12360 0.09000
H 	H 	0.81710 0.21690 0.09640 -0.00300
C 	C 	0.86120 0.09620 0.24950 0.33600
C 	C 	0.82510 0.06030 0.26680 -0.44500
H 	H 	0.79280 0.05910 0.25160 0.21000
C 	C 	0.83690 0.02670 0.30610 0.48900
C 	C 	0.88560 0.02750 0.32980 -0.48000
C 	C 	0.92170 0.06260 0.31170 0.59200
C 	C 	0.90930 0.09650 0.27180 -0.48300
H 	H 	0.93390 0.11970 0.26020 0.23500
C 	C 	0.89950 0.99020 0.37110 0.54400
C 	C 	0.90290 0.24850 0.14010 0.30300
C 	C 	0.93950 0.26630 0.17620 -0.41500
H 	H 	0.94060 0.25190 0.20890 0.19000
C 	C 	0.97350 0.30470 0.16350 0.46200
C 	C 	0.97280 0.32680 0.11470 -0.42900
C 	C 	0.93670 0.30980 0.07910 0.50300
C 	C 	0.90290 0.27120 0.09100 -0.44700
H 	H 	0.87960 0.25980 0.06630 0.21600
C 	C 	0.00980 0.36830 0.10020 0.53000
O 	O 	0.60330 0.06020 0.99980 -0.47600
O 	O 	0.62190 0.13020 0.95460 -0.47900
O 	O 	0.86830 0.95430 0.37910 -0.51200
O 	O 	0.93850 0.99820 0.39740 -0.50500
O 	O 	0.04590 0.37850 0.13120 -0.49200
O 	O 	0.00180 0.39300 0.05990 -0.48800
O 	O 	0.68580 0.19500 0.99140 -0.51300
H 	H 	0.70210 0.19090 0.96470 0.28600
O 	O 	0.80040 0.99170 0.31800 -0.49600
H 	H 	0.81320 0.96880 0.33560 0.31300
O 	O 	0.00760 0.31780 0.20080 -0.49000
H 	H 	0.03340 0.33010 0.18760 0.32200
O 	O 	0.96300 0.06100 0.31900 -0.35100
O 	O 	0.93750 0.32680 0.03120 -0.48700
H 	H 	0.95690 0.30880 0.01400 0.30000
O 	O 	0.64900 0.04720 0.08570 -0.49100
H 	H 	0.64920 0.02320 0.06530 0.29600
Zn	Zn	0.95548 0.95251 0.45421 1.23300
C 	C 	0.87070 0.89850 0.49140 0.52900
C 	C 	0.83050 0.88460 0.53000 -0.43500
C 	C 	0.81770 0.91740 0.57070 0.48800
C 	C 	0.77740 0.90430 0.60360 -0.45400
H 	H 	0.76870 0.92690 0.62990 0.20300
C 	C 	0.75020 0.85980 0.59870 0.34400
C 	C 	0.76300 0.82800 0.55770 -0.47300
H 	H 	0.74500 0.79750 0.55280 0.20900
C 	C 	0.80180 0.84060 0.52410 0.51800
C 	C 	0.70610 0.84600 0.63260 -0.16400
C 	C 	0.69450 0.87870 0.67430 0.08400
H 	H 	0.71510 0.90730 0.68080 -0.00600
C 	C 	0.65180 0.86830 0.70620 -0.15600
C 	C 	0.62100 0.82640 0.69450 0.08600
H 	H 	0.59220 0.81990 0.71470 -0.00100
C 	C 	0.63190 0.79430 0.65400 -0.15300
C 	C 	0.67510 0.80490 0.62360 0.09000
H 	H 	0.68290 0.78310 0.59640 -0.00300
C 	C 	0.63880 0.90380 0.74950 0.33600
C 	C 	0.67490 0.93970 0.76680 -0.44600
H 	H 	0.70720 0.94090 0.75160 0.21000
C 	C 	0.66310 0.97330 0.80610 0.48900
C 	C 	0.61440 0.97250 0.82980 -0.48000
C 	C 	0.57830 0.93740 0.81170 0.59200
C 	C 	0.59070 0.90350 0.77180 -0.48200
H 	H 	0.56610 0.88030 0.76020 0.23500
C 	C 	0.60050 0.00980 0.87110 0.54400
C 	C 	0.59710 0.75150 0.64010 0.30300
C 	C 	0.56050 0.73370 0.67620 -0.41500
H 	H 	0.55940 0.74810 0.70890 0.19000
C 	C 	0.52650 0.69530 0.66350 0.46200
C 	C 	0.52720 0.67320 0.61470 -0.42900
C 	C 	0.56330 0.69020 0.57910 0.50300
C 	C 	0.59710 0.72880 0.59100 -0.44700
H 	H 	0.62040 0.74020 0.56630 0.21600
C 	C 	0.49020 0.63170 0.60020 0.53000
O 	O 	0.89670 0.93980 0.49980 -0.47600
O 	O 	0.87810 0.86980 0.45460 -0.47900
O 	O 	0.63170 0.04570 0.87910 -0.51200
O 	O 	0.56150 0.00180 0.89740 -0.50500
O 	O 	0.45410 0.62150 0.63120 -0.49200
O 	O 	0.49820 0.60700 0.55990 -0.48800
O 	O 	0.81420 0.80500 0.49140 -0.51300
H 	H 	0.79790 0.80910 0.46470 0.28500
O 	O 	0.69960 0.00830 0.81800 -0.49700
H 	H 	0.68680 0.03120 0.83560 0.31300
O 	O 	0.49240 0.68220 0.70080 -0.49000
H 	H 	0.46660 0.66990 0.68760 0.32200
O 	O 	0.53700 0.93900 0.81900 -0.35100
O 	O 	0.56250 0.67320 0.53120 -0.48700
H 	H 	0.54310 0.69120 0.51400 0.30000
O 	O 	0.85100 0.95280 0.58570 -0.49100
H 	H 	0.85080 0.97680 0.56530 0.29600
Zn	Zn	0.54579 0.45548 0.54749 1.23300
C 	C 	0.50860 0.37070 0.60150 0.52900
C 	C 	0.47000 0.33050 0.61540 -0.43500
C 	C 	0.42930 0.31770 0.58260 0.48800
C 	C 	0.39640 0.27740 0.59570 -0.45400
H 	H 	0.37010 0.26870 0.57310 0.20300
C 	C 	0.40130 0.25020 0.64020 0.34400
C 	C 	0.44230 0.26300 0.67200 -0.47300
H 	H 	0.44720 0.24500 0.70250 0.20900
C 	C 	0.47590 0.30180 0.65940 0.51800
C 	C 	0.36740 0.20610 0.65400 -0.16400
C 	C 	0.32570 0.19450 0.62130 0.08400
H 	H 	0.31920 0.21510 0.59270 -0.00600
C 	C 	0.29380 0.15180 0.63170 -0.15600
C 	C 	0.30550 0.12100 0.67360 0.08600
H 	H 	0.28530 0.09220 0.68010 -0.00100
C 	C 	0.34600 0.13190 0.70570 -0.15300
C 	C 	0.37640 0.17510 0.69510 0.09000
H 	H 	0.40360 0.18290 0.71690 -0.00300
C 	C 	0.25050 0.13880 0.59620 0.33600
C 	C 	0.23320 0.17490 0.56030 -0.44500
H 	H 	0.24840 0.20720 0.55910 0.21000
C 	C 	0.19390 0.16310 0.52670 0.48900
C 	C 	0.17020 0.11440 0.52750 -0.48000
C 	C 	0.18830 0.07830 0.56260 0.59200
C 	C 	0.22820 0.09070 0.59650 -0.48200
H 	H 	0.23980 0.06610 0.61970 0.23500
C 	C 	0.12890 0.10050 0.49020 0.54400
C 	C 	0.35990 0.09710 0.74850 0.30300
C 	C 	0.32380 0.06050 0.76630 -0.41500
H 	H 	0.29110 0.05940 0.75190 0.19000
C 	C 	0.33650 0.02650 0.80470 0.46200
C 	C 	0.38530 0.02720 0.82680 -0.42900
C 	C 	0.42090 0.06330 0.80980 0.50300
C 	C 	0.40900 0.09710 0.77120 -0.44700
H 	H 	0.43370 0.12040 0.75980 0.21600
C 	C 	0.39980 0.99020 0.86830 0.53000
O 	O 	0.50020 0.39670 0.56020 -0.47600
O 	O 	0.54540 0.37810 0.63020 -0.47900
O 	O 	0.12090 0.13170 0.45430 -0.51200
O 	O 	0.10260 0.06150 0.49820 -0.50500
O 	O 	0.36880 0.95410 0.87850 -0.49200
O 	O 	0.44010 0.99820 0.89300 -0.48800
O 	O 	0.50860 0.31420 0.69500 -0.51300
H 	H 	0.53530 0.29790 0.69090 0.28500
O 	O 	0.18200 0.19960 0.49170 -0.49600
H 	H 	0.16440 0.18680 0.46880 0.31300
O 	O 	0.29920 0.99240 0.81780 -0.49000
H 	H 	0.31240 0.96660 0.83010 0.32200
O 	O 	0.18100 0.03700 0.56100 -0.35100
O 	O 	0.46880 0.06250 0.82680 -0.48700
H 	H 	0.48600 0.04310 0.80880 0.30000
O 	O 	0.41430 0.35100 0.54720 -0.49100
H 	H 	0.43470 0.35080 0.52320 0.29600
Zn	Zn	0.04579 0.04452 0.45251 1.23300
C 	C 	0.00860 0.12930 0.39850 0.52900
C 	C 	0.97000 0.16950 0.38460 -0.43500
C 	C 	0.92930 0.18230 0.41740 0.48800
C 	C 	0.89640 0.22260 0.40430 -0.45400
H 	H 	0.87010 0.23130 0.42690 0.20300
C 	C 	0.90130 0.24980 0.35980 0.34400
C 	C 	0.94230 0.23700 0.32800 -0.47300
H 	H 	0.94720 0.25500 0.29750 0.20900
C 	C 	0.97590 0.19820 0.34060 0.51800
C 	C 	0.86740 0.29390 0.34600 -0.16400
C 	C 	0.82570 0.30550 0.37870 0.08400
H 	H 	0.81920 0.28490 0.40730 -0.00600
C 	C 	0.79380 0.34820 0.36830 -0.15600
C 	C 	0.80550 0.37900 0.32640 0.08600
H 	H 	0.78530 0.40780 0.31990 -0.00100
C 	C 	0.84600 0.36810 0.29430 -0.15300
C 	C 	0.87640 0.32490 0.30490 0.09000
H 	H 	0.90360 0.31710 0.28310 -0.00300
C 	C 	0.75050 0.36120 0.40380 0.33600
C 	C 	0.73320 0.32510 0.43970 -0.44500
H 	H 	0.74840 0.29280 0.44090 0.21000
C 	C 	0.69390 0.33690 0.47330 0.48900
C 	C 	0.67020 0.38560 0.47250 -0.48000
C 	C 	0.68830 0.42170 0.43740 0.59200
C 	C 	0.72820 0.40930 0.40350 -0.48200
H 	H 	0.73980 0.43390 0.38030 0.23500
C 	C 	0.62890 0.39950 0.50980 0.54400
C 	C 	0.85990 0.40290 0.25150 0.30300
C 	C 	0.82380 0.43950 0.23370 -0.41500
H 	H 	0.79110 0.44060 0.24810 0.19000
C 	C 	0.83650 0.47350 0.19530 0.46200
C 	C 	0.88530 0.47280 0.17320 -0.42900
C 	C 	0.92090 0.43670 0.19020 0.50300
C 	C 	0.90900 0.40290 0.22880 -0.44700
H 	H 	0.93370 0.37960 0.24020 0.21600
C 	C 	0.89980 0.50980 0.13170 0.53000
O 	O 	0.00020 0.10330 0.43980 -0.47600
O 	O 	0.04540 0.12190 0.36980 -0.47900
O 	O 	0.62090 0.36830 0.54570 -0.51200
O 	O 	0.60260 0.43850 0.50180 -0.50500
O 	O 	0.86880 0.54590 0.12150 -0.49200
O 	O 	0.94010 0.50180 0.10700 -0.48800
O 	O 	0.00860 0.18580 0.30500 -0.51300
H 	H 	0.03530 0.20210 0.30910 0.28500
O 	O 	0.68200 0.30040 0.50830 -0.49600
H 	H 	0.66440 0.31320 0.53120 0.31300
O 	O 	0.79920 0.50760 0.18220 -0.49000
H 	H 	0.81240 0.53340 0.16990 0.32200
O 	O 	0.68100 0.46300 0.43900 -0.35100
O 	O 	0.96880 0.43750 0.17320 -0.48700
H 	H 	0.98600 0.45690 0.19120 0.30000
O 	O 	0.91430 0.14900 0.45280 -0.49100
H 	H 	0.93470 0.14920 0.47680 0.29600
Zn	Zn	0.95421 0.54452 0.04749 1.23300
C 	C 	0.99140 0.62930 0.10150 0.52900
C 	C 	0.03000 0.66950 0.11540 -0.43400
C 	C 	0.07070 0.68230 0.08260 0.48800
C 	C 	0.10360 0.72260 0.09570 -0.45400
H 	H 	0.12990 0.73130 0.07310 0.20300
C 	C 	0.09870 0.74980 0.14020 0.34400
C 	C 	0.05770 0.73700 0.17200 -0.47300
H 	H 	0.05280 0.75500 0.20250 0.20900
C 	C 	0.02410 0.69820 0.15940 0.51800
C 	C 	0.13260 0.79390 0.15400 -0.16400
C 	C 	0.17430 0.80550 0.12130 0.08400
H 	H 	0.18080 0.78490 0.09270 -0.00600
C 	C 	0.20620 0.84820 0.13170 -0.15600
C 	C 	0.19450 0.87900 0.17360 0.08600
H 	H 	0.21470 0.90780 0.18010 -0.00100
C 	C 	0.15400 0.86810 0.20570 -0.15300
C 	C 	0.12360 0.82490 0.19510 0.09000
H 	H 	0.09640 0.81710 0.21690 -0.00300
C 	C 	0.24950 0.86120 0.09620 0.33600
C 	C 	0.26680 0.82510 0.06030 -0.44500
H 	H 	0.25160 0.79280 0.05910 0.21000
C 	C 	0.30610 0.83690 0.02670 0.48900
C 	C 	0.32980 0.88560 0.02750 -0.48000
C 	C 	0.31170 0.92170 0.06260 0.59200
C 	C 	0.27180 0.90930 0.09650 -0.48300
H 	H 	0.26020 0.93390 0.11970 0.23500
C 	C 	0.37110 0.89950 0.99020 0.54400
C 	C 	0.14010 0.90290 0.24850 0.30300
C 	C 	0.17620 0.93950 0.26630 -0.41500
H 	H 	0.20890 0.94060 0.25190 0.19000
C 	C 	0.16350 0.97350 0.30470 0.46200
C 	C 	0.11470 0.97280 0.32680 -0.42900
C 	C 	0.07910 0.93670 0.30980 0.50300
C 	C 	0.09100 0.90290 0.27120 -0.44700
H 	H 	0.06630 0.87960 0.25980 0.21600
C 	C 	0.10020 0.00980 0.36830 0.53000
O 	O 	0.99980 0.60330 0.06020 -0.47600
O 	O 	0.95460 0.62190 0.13020 -0.47900
O 	O 	0.37910 0.86830 0.95430 -0.51200
O 	O 	0.39740 0.93850 0.99820 -0.50500
O 	O 	0.13120 0.04590 0.37850 -0.49200
O 	O 	0.05990 0.00180 0.39300 -0.48800
O 	O 	0.99140 0.68580 0.19500 -0.51300
H 	H 	0.96470 0.70210 0.19090 0.28600
O 	O 	0.31800 0.80040 0.99170 -0.49600
H 	H 	0.33560 0.81320 0.96880 0.31300
O 	O 	0.20080 0.00760 0.31780 -0.49000
H 	H 	0.18760 0.03340 0.33010 0.32200
O 	O 	0.31900 0.96300 0.06100 -0.35100
O 	O 	0.03120 0.93750 0.32680 -0.48700
H 	H 	0.01400 0.95690 0.30880 0.30000
O 	O 	0.08570 0.64900 0.04720 -0.49100
H 	H 	0.06530 0.64920 0.02320 0.29600
Zn	Zn	0.45421 0.95548 0.95251 1.23300
C 	C 	0.49140 0.87070 0.89850 0.52900
C 	C 	0.53000 0.83050 0.88460 -0.43500
C 	C 	0.57070 0.81770 0.91740 0.48800
C 	C 	0.60360 0.77740 0.90430 -0.45400
H 	H 	0.62990 0.76870 0.92690 0.20300
C 	C 	0.59870 0.75020 0.85980 0.34400
C 	C 	0.55770 0.76300 0.82800 -0.47300
H 	H 	0.55280 0.74500 0.79750 0.20900
C 	C 	0.52410 0.80180 0.84060 0.51800
C 	C 	0.63260 0.70610 0.84600 -0.16400
C 	C 	0.67430 0.69450 0.87870 0.08400
H 	H 	0.68080 0.71510 0.90730 -0.00600
C 	C 	0.70620 0.65180 0.86830 -0.15600
C 	C 	0.69450 0.62100 0.82640 0.08600
H 	H 	0.71470 0.59220 0.81990 -0.00100
C 	C 	0.65400 0.63190 0.79430 -0.15300
C 	C 	0.62360 0.67510 0.80490 0.09000
H 	H 	0.59640 0.68290 0.78310 -0.00300
C 	C 	0.74950 0.63880 0.90380 0.33600
C 	C 	0.76680 0.67490 0.93970 -0.44600
H 	H 	0.75160 0.70720 0.94090 0.21000
C 	C 	0.80610 0.66310 0.97330 0.48900
C 	C 	0.82980 0.61440 0.97250 -0.48000
C 	C 	0.81170 0.57830 0.93740 0.59200
C 	C 	0.77180 0.59070 0.90350 -0.48200
H 	H 	0.76020 0.56610 0.88030 0.23500
C 	C 	0.87110 0.60050 0.00980 0.54400
C 	C 	0.64010 0.59710 0.75150 0.30300
C 	C 	0.67620 0.56050 0.73370 -0.41500
H 	H 	0.70890 0.55940 0.74810 0.19000
C 	C 	0.66350 0.52650 0.69530 0.46200
C 	C 	0.61470 0.52720 0.67320 -0.42900
C 	C 	0.57910 0.56330 0.69020 0.50300
C 	C 	0.59100 0.59710 0.72880 -0.44700
H 	H 	0.56630 0.62040 0.74020 0.21600
C 	C 	0.60020 0.49020 0.63170 0.53000
O 	O 	0.49980 0.89670 0.93980 -0.47600
O 	O 	0.45460 0.87810 0.86980 -0.47900
O 	O 	0.87910 0.63170 0.04570 -0.51200
O 	O 	0.89740 0.56150 0.00180 -0.50500
O 	O 	0.63120 0.45410 0.62150 -0.49200
O 	O 	0.55990 0.49820 0.60700 -0.48800
O 	O 	0.49140 0.81420 0.80500 -0.51300
H 	H 	0.46470 0.79790 0.80910 0.28500
O 	O 	0.81800 0.69960 0.00830 -0.49700
H 	H 	0.83560 0.68680 0.03120 0.31300
O 	O 	0.70080 0.49240 0.68220 -0.49000
H 	H 	0.68760 0.46660 0.66990 0.32200
O 	O 	0.81900 0.53700 0.93900 -0.35100
O 	O 	0.53120 0.56250 0.67320 -0.48700
H 	H 	0.51400 0.54310 0.69120 0.30000
O 	O 	0.58570 0.85100 0.95280 -0.49100
H 	H 	0.56530 0.85080 0.97680 0.29600
Zn	Zn	0.54749 0.54579 0.45548 1.23300
C 	C 	0.60150 0.50860 0.37070 0.52900
C 	C 	0.61540 0.47000 0.33050 -0.43500
C 	C 	0.58260 0.42930 0.31770 0.48800
C 	C 	0.59570 0.39640 0.27740 -0.45400
H 	H 	0.57310 0.37010 0.26870 0.20300
C 	C 	0.64020 0.40130 0.25020 0.34400
C 	C 	0.67200 0.44230 0.26300 -0.47300
H 	H 	0.70250 0.44720 0.24500 0.20900
C 	C 	0.65940 0.47590 0.30180 0.51800
C 	C 	0.65400 0.36740 0.20610 -0.16400
C 	C 	0.62130 0.32570 0.19450 0.08400
H 	H 	0.59270 0.31920 0.21510 -0.00600
C 	C 	0.63170 0.29380 0.15180 -0.15600
C 	C 	0.67360 0.30550 0.12100 0.08600
H 	H 	0.68010 0.28530 0.09220 -0.00100
C 	C 	0.70570 0.34600 0.13190 -0.15300
C 	C 	0.69510 0.37640 0.17510 0.09000
H 	H 	0.71690 0.40360 0.18290 -0.00300
C 	C 	0.59620 0.25050 0.13880 0.33600
C 	C 	0.56030 0.23320 0.17490 -0.44500
H 	H 	0.55910 0.24840 0.20720 0.21000
C 	C 	0.52670 0.19390 0.16310 0.48900
C 	C 	0.52750 0.17020 0.11440 -0.48000
C 	C 	0.56260 0.18830 0.07830 0.59200
C 	C 	0.59650 0.22820 0.09070 -0.48200
H 	H 	0.61970 0.23980 0.06610 0.23500
C 	C 	0.49020 0.12890 0.10050 0.54400
C 	C 	0.74850 0.35990 0.09710 0.30300
C 	C 	0.76630 0.32380 0.06050 -0.41500
H 	H 	0.75190 0.29110 0.05940 0.19000
C 	C 	0.80470 0.33650 0.02650 0.46200
C 	C 	0.82680 0.38530 0.02720 -0.42900
C 	C 	0.80980 0.42090 0.06330 0.50300
C 	C 	0.77120 0.40900 0.09710 -0.44700
H 	H 	0.75980 0.43370 0.12040 0.21600
C 	C 	0.86830 0.39980 0.99020 0.53000
O 	O 	0.56020 0.50020 0.39670 -0.47600
O 	O 	0.63020 0.54540 0.37810 -0.47900
O 	O 	0.45430 0.12090 0.13170 -0.51200
O 	O 	0.49820 0.10260 0.06150 -0.50500
O 	O 	0.87850 0.36880 0.95410 -0.49200
O 	O 	0.89300 0.44010 0.99820 -0.48800
O 	O 	0.69500 0.50860 0.31420 -0.51300
H 	H 	0.69090 0.53530 0.29790 0.28500
O 	O 	0.49170 0.18200 0.19960 -0.49600
H 	H 	0.46880 0.16440 0.18680 0.31300
O 	O 	0.81780 0.29920 0.99240 -0.49000
H 	H 	0.83010 0.31240 0.96660 0.32200
O 	O 	0.56100 0.18100 0.03700 -0.35100
O 	O 	0.82680 0.46880 0.06250 -0.48700
H 	H 	0.80880 0.48600 0.04310 0.30000
O 	O 	0.54720 0.41430 0.35100 -0.49100
H 	H 	0.52320 0.43470 0.35080 0.29600
Zn	Zn	0.45251 0.04579 0.04452 1.23300
C 	C 	0.39850 0.00860 0.12930 0.52900
C 	C 	0.38460 0.97000 0.16950 -0.43500
C 	C 	0.41740 0.92930 0.18230 0.48800
C 	C 	0.40430 0.89640 0.22260 -0.45400
H 	H 	0.42690 0.87010 0.23130 0.20300
C 	C 	0.35980 0.90130 0.24980 0.34400
C 	C 	0.32800 0.94230 0.23700 -0.47300
H 	H 	0.29750 0.94720 0.25500 0.20900
C 	C 	0.34060 0.97590 0.19820 0.51800
C 	C 	0.34600 0.86740 0.29390 -0.16400
C 	C 	0.37870 0.82570 0.30550 0.08400
H 	H 	0.40730 0.81920 0.28490 -0.00600
C 	C 	0.36830 0.79380 0.34820 -0.15600
C 	C 	0.32640 0.80550 0.37900 0.08600
H 	H 	0.31990 0.78530 0.40780 -0.00100
C 	C 	0.29430 0.84600 0.36810 -0.15300
C 	C 	0.30490 0.87640 0.32490 0.09000
H 	H 	0.28310 0.90360 0.31710 -0.00300
C 	C 	0.40380 0.75050 0.36120 0.33600
C 	C 	0.43970 0.73320 0.32510 -0.44500
H 	H 	0.44090 0.74840 0.29280 0.21000
C 	C 	0.47330 0.69390 0.33690 0.48900
C 	C 	0.47250 0.67020 0.38560 -0.48000
C 	C 	0.43740 0.68830 0.42170 0.59200
C 	C 	0.40350 0.72820 0.40930 -0.48200
H 	H 	0.38030 0.73980 0.43390 0.23500
C 	C 	0.50980 0.62890 0.39950 0.54400
C 	C 	0.25150 0.85990 0.40290 0.30300
C 	C 	0.23370 0.82380 0.43950 -0.41500
H 	H 	0.24810 0.79110 0.44060 0.19000
C 	C 	0.19530 0.83650 0.47350 0.46200
C 	C 	0.17320 0.88530 0.47280 -0.42900
C 	C 	0.19020 0.92090 0.43670 0.50300
C 	C 	0.22880 0.90900 0.40290 -0.44700
H 	H 	0.24020 0.93370 0.37960 0.21600
C 	C 	0.13170 0.89980 0.50980 0.53000
O 	O 	0.43980 0.00020 0.10330 -0.47600
O 	O 	0.36980 0.04540 0.12190 -0.47900
O 	O 	0.54570 0.62090 0.36830 -0.51200
O 	O 	0.50180 0.60260 0.43850 -0.50500
O 	O 	0.12150 0.86880 0.54590 -0.49200
O 	O 	0.10700 0.94010 0.50180 -0.48800
O 	O 	0.30500 0.00860 0.18580 -0.51300
H 	H 	0.30910 0.03530 0.20210 0.28500
O 	O 	0.50830 0.68200 0.30040 -0.49600
H 	H 	0.53120 0.66440 0.31320 0.31300
O 	O 	0.18220 0.79920 0.50760 -0.49000
H 	H 	0.16990 0.81240 0.53340 0.32200
O 	O 	0.43900 0.68100 0.46300 -0.35100
O 	O 	0.17320 0.96880 0.43750 -0.48700
H 	H 	0.19120 0.98600 0.45690 0.30000
O 	O 	0.45280 0.91430 0.14900 -0.49100
H 	H 	0.47680 0.93470 0.14920 0.29600
Zn	Zn	0.04749 0.95421 0.54452 1.23300
C 	C 	0.10150 0.99140 0.62930 0.52900
C 	C 	0.11540 0.03000 0.66950 -0.43400
C 	C 	0.08260 0.07070 0.68230 0.48800
C 	C 	0.09570 0.10360 0.72260 -0.45400
H 	H 	0.07310 0.12990 0.73130 0.20300
C 	C 	0.14020 0.09870 0.74980 0.34400
C 	C 	0.17200 0.05770 0.73700 -0.47300
H 	H 	0.20250 0.05280 0.75500 0.20900
C 	C 	0.15940 0.02410 0.69820 0.51800
C 	C 	0.15400 0.13260 0.79390 -0.16400
C 	C 	0.12130 0.17430 0.80550 0.08400
H 	H 	0.09270 0.18080 0.78490 -0.00600
C 	C 	0.13170 0.20620 0.84820 -0.15600
C 	C 	0.17360 0.19450 0.87900 0.08600
H 	H 	0.18010 0.21470 0.90780 -0.00100
C 	C 	0.20570 0.15400 0.86810 -0.15300
C 	C 	0.19510 0.12360 0.82490 0.09000
H 	H 	0.21690 0.09640 0.81710 -0.00300
C 	C 	0.09620 0.24950 0.86120 0.33600
C 	C 	0.06030 0.26680 0.82510 -0.44500
H 	H 	0.05910 0.25160 0.79280 0.21000
C 	C 	0.02670 0.30610 0.83690 0.48900
C 	C 	0.02750 0.32980 0.88560 -0.48000
C 	C 	0.06260 0.31170 0.92170 0.59200
C 	C 	0.09650 0.27180 0.90930 -0.48300
H 	H 	0.11970 0.26020 0.93390 0.23500
C 	C 	0.99020 0.37110 0.89950 0.54400
C 	C 	0.24850 0.14010 0.90290 0.30300
C 	C 	0.26630 0.17620 0.93950 -0.41500
H 	H 	0.25190 0.20890 0.94060 0.19000
C 	C 	0.30470 0.16350 0.97350 0.46200
C 	C 	0.32680 0.11470 0.97280 -0.42900
C 	C 	0.30980 0.07910 0.93670 0.50300
C 	C 	0.27120 0.09100 0.90290 -0.44700
H 	H 	0.25980 0.06630 0.87960 0.21600
C 	C 	0.36830 0.10020 0.00980 0.53000
O 	O 	0.06020 0.99980 0.60330 -0.47600
O 	O 	0.13020 0.95460 0.62190 -0.47900
O 	O 	0.95430 0.37910 0.86830 -0.51200
O 	O 	0.99820 0.39740 0.93850 -0.50500
O 	O 	0.37850 0.13120 0.04590 -0.49200
O 	O 	0.39300 0.05990 0.00180 -0.48800
O 	O 	0.19500 0.99140 0.68580 -0.51300
H 	H 	0.19090 0.96470 0.70210 0.28600
O 	O 	0.99170 0.31800 0.80040 -0.49600
H 	H 	0.96880 0.33560 0.81320 0.31300
O 	O 	0.31780 0.20080 0.00760 -0.49000
H 	H 	0.33010 0.18760 0.03340 0.32200
O 	O 	0.06100 0.31900 0.96300 -0.35100
O 	O 	0.32680 0.03120 0.93750 -0.48700
H 	H 	0.30880 0.01400 0.95690 0.30000
O 	O 	0.04720 0.08570 0.64900 -0.49100
H 	H 	0.02320 0.06530 0.64920 0.29600
Zn	Zn	0.95251 0.45421 0.95548 1.23300
C 	C 	0.89850 0.49140 0.87070 0.52900
C 	C 	0.88460 0.53000 0.83050 -0.43500
C 	C 	0.91740 0.57070 0.81770 0.48800
C 	C 	0.90430 0.60360 0.77740 -0.45400
H 	H 	0.92690 0.62990 0.76870 0.20300
C 	C 	0.85980 0.59870 0.75020 0.34400
C 	C 	0.82800 0.55770 0.76300 -0.47300
H 	H 	0.79750 0.55280 0.74500 0.20900
C 	C 	0.84060 0.52410 0.80180 0.51800
C 	C 	0.84600 0.63260 0.70610 -0.16400
C 	C 	0.87870 0.67430 0.69450 0.08400
H 	H 	0.90730 0.68080 0.71510 -0.00600
C 	C 	0.86830 0.70620 0.65180 -0.15600
C 	C 	0.82640 0.69450 0.62100 0.08600
H 	H 	0.81990 0.71470 0.59220 -0.00100
C 	C 	0.79430 0.65400 0.63190 -0.15300
C 	C 	0.80490 0.62360 0.67510 0.09000
H 	H 	0.78310 0.59640 0.68290 -0.00300
C 	C 	0.90380 0.74950 0.63880 0.33600
C 	C 	0.93970 0.76680 0.67490 -0.44600
H 	H 	0.94090 0.75160 0.70720 0.21000
C 	C 	0.97330 0.80610 0.66310 0.48900
C 	C 	0.97250 0.82980 0.61440 -0.48000
C 	C 	0.93740 0.81170 0.57830 0.59200
C 	C 	0.90350 0.77180 0.59070 -0.48200
H 	H 	0.88030 0.76020 0.56610 0.23500
C 	C 	0.00980 0.87110 0.60050 0.54400
C 	C 	0.75150 0.64010 0.59710 0.30300
C 	C 	0.73370 0.67620 0.56050 -0.41500
H 	H 	0.74810 0.70890 0.55940 0.19000
C 	C 	0.69530 0.66350 0.52650 0.46200
C 	C 	0.67320 0.61470 0.52720 -0.42900
C 	C 	0.69020 0.57910 0.56330 0.50300
C 	C 	0.72880 0.59100 0.59710 -0.44700
H 	H 	0.74020 0.56630 0.62040 0.21600
C 	C 	0.63170 0.60020 0.49020 0.53000
O 	O 	0.93980 0.49980 0.89670 -0.47600
O 	O 	0.86980 0.45460 0.87810 -0.47900
O 	O 	0.04570 0.87910 0.63170 -0.51200
O 	O 	0.00180 0.89740 0.56150 -0.50500
O 	O 	0.62150 0.63120 0.45410 -0.49200
O 	O 	0.60700 0.55990 0.49820 -0.48800
O 	O 	0.80500 0.49140 0.81420 -0.51300
H 	H 	0.80910 0.46470 0.79790 0.28500
O 	O 	0.00830 0.81800 0.69960 -0.49700
H 	H 	0.03120 0.83560 0.68680 0.31300
O 	O 	0.68220 0.70080 0.49240 -0.49000
H 	H 	0.66990 0.68760 0.46660 0.32200
O 	O 	0.93900 0.81900 0.53700 -0.35100
O 	O 	0.67320 0.53120 0.56250 -0.48700
H 	H 	0.69120 0.51400 0.54310 0.30000
O 	O 	0.95280 0.58570 0.85100 -0.49100
H 	H 	0.97680 0.56530 0.85080 0.29600
Zn	Zn	0.29749 0.70548 0.70421 1.23300
C 	C 	0.35150 0.62070 0.74140 0.52900
C 	C 	0.36540 0.58050 0.78000 -0.43500
C 	C 	0.33260 0.56770 0.82070 0.48800
C 	C 	0.34570 0.52740 0.85360 -0.45400
H 	H 	0.32310 0.51870 0.87990 0.20300
C 	C 	0.39020 0.50020 0.84870 0.34400
C 	C 	0.42200 0.51300 0.80770 -0.47300
H 	H 	0.45250 0.49500 0.80280 0.20900
C 	C 	0.40940 0.55180 0.77410 0.51800
C 	C 	0.40400 0.45610 0.88260 -0.16400
C 	C 	0.37130 0.44450 0.92430 0.08400
H 	H 	0.34270 0.46510 0.93080 -0.00600
C 	C 	0.38170 0.40180 0.95620 -0.15600
C 	C 	0.42360 0.37100 0.94450 0.08600
H 	H 	0.43010 0.34220 0.96470 -0.00100
C 	C 	0.45570 0.38190 0.90400 -0.15300
C 	C 	0.44510 0.42510 0.87360 0.09000
H 	H 	0.46690 0.43290 0.84640 -0.00300
C 	C 	0.34620 0.38880 0.99950 0.33500
C 	C 	0.31030 0.42490 0.01680 -0.44500
H 	H 	0.30910 0.45720 0.00160 0.21000
C 	C 	0.27670 0.41310 0.05610 0.48800
C 	C 	0.27750 0.36440 0.07980 -0.48000
C 	C 	0.31260 0.32830 0.06170 0.59200
C 	C 	0.34650 0.34070 0.02180 -0.48200
H 	H 	0.36970 0.31610 0.01020 0.23500
C 	C 	0.24020 0.35050 0.12110 0.54400
C 	C 	0.49850 0.34710 0.89010 0.30300
C 	C 	0.51630 0.31050 0.92620 -0.41500
H 	H 	0.50190 0.30940 0.95890 0.19000
C 	C 	0.55470 0.27650 0.91350 0.46200
C 	C 	0.57680 0.27720 0.86470 -0.42900
C 	C 	0.55980 0.31330 0.82910 0.50300
C 	C 	0.52120 0.34710 0.84100 -0.44700
H 	H 	0.50980 0.37040 0.81630 0.21600
C 	C 	0.61830 0.24020 0.85020 0.53000
O 	O 	0.31020 0.64670 0.74980 -0.47600
O 	O 	0.38020 0.62810 0.70460 -0.47900
O 	O 	0.20430 0.38170 0.12910 -0.51200
O 	O 	0.24820 0.31150 0.14740 -0.50500
O 	O 	0.62850 0.20410 0.88120 -0.49200
O 	O 	0.64300 0.24820 0.80990 -0.48800
O 	O 	0.44500 0.56420 0.74140 -0.51300
H 	H 	0.44090 0.54790 0.71470 0.28500
O 	O 	0.24170 0.44960 0.06800 -0.49600
H 	H 	0.21880 0.43680 0.08560 0.31300
O 	O 	0.56780 0.24240 0.95080 -0.49000
H 	H 	0.58010 0.21660 0.93760 0.32200
O 	O 	0.31100 0.28700 0.06900 -0.35100
O 	O 	0.57680 0.31250 0.78120 -0.48700
H 	H 	0.55880 0.29310 0.76400 0.30000
O 	O 	0.29720 0.60100 0.83570 -0.49100
H 	H 	0.27320 0.60080 0.81530 0.29600
Zn	Zn	0.20251 0.29452 0.20421 1.23300
C 	C 	0.14850 0.37930 0.24140 0.52900
C 	C 	0.13460 0.41950 0.28000 -0.43500
C 	C 	0.16740 0.43230 0.32070 0.48800
C 	C 	0.15430 0.47260 0.35360 -0.45400
H 	H 	0.17690 0.48130 0.37990 0.20300
C 	C 	0.10980 0.49980 0.34870 0.34400
C 	C 	0.07800 0.48700 0.30770 -0.47300
H 	H 	0.04750 0.50500 0.30280 0.20900
C 	C 	0.09060 0.44820 0.27410 0.51800
C 	C 	0.09600 0.54390 0.38260 -0.16400
C 	C 	0.12870 0.55550 0.42430 0.08400
H 	H 	0.15730 0.53490 0.43080 -0.00600
C 	C 	0.11830 0.59820 0.45620 -0.15600
C 	C 	0.07640 0.62900 0.44450 0.08600
H 	H 	0.06990 0.65780 0.46470 -0.00100
C 	C 	0.04430 0.61810 0.40400 -0.15300
C 	C 	0.05490 0.57490 0.37360 0.09000
H 	H 	0.03310 0.56710 0.34640 -0.00300
C 	C 	0.15380 0.61120 0.49950 0.33600
C 	C 	0.18970 0.57510 0.51680 -0.44500
H 	H 	0.19090 0.54280 0.50160 0.21000
C 	C 	0.22330 0.58690 0.55610 0.48900
C 	C 	0.22250 0.63560 0.57980 -0.48000
C 	C 	0.18740 0.67170 0.56170 0.59200
C 	C 	0.15350 0.65930 0.52180 -0.48200
H 	H 	0.13030 0.68390 0.51020 0.23500
C 	C 	0.25980 0.64950 0.62110 0.54400
C 	C 	0.00150 0.65290 0.39010 0.30300
C 	C 	0.98370 0.68950 0.42620 -0.41500
H 	H 	0.99810 0.69060 0.45890 0.19000
C 	C 	0.94530 0.72350 0.41350 0.46200
C 	C 	0.92320 0.72280 0.36470 -0.42900
C 	C 	0.94020 0.68670 0.32910 0.50300
C 	C 	0.97880 0.65290 0.34100 -0.44700
H 	H 	0.99020 0.62960 0.31630 0.21600
C 	C 	0.88170 0.75980 0.35020 0.53000
O 	O 	0.18980 0.35330 0.24980 -0.47600
O 	O 	0.11980 0.37190 0.20460 -0.47900
O 	O 	0.29570 0.61830 0.62910 -0.51200
O 	O 	0.25180 0.68850 0.64740 -0.50500
O 	O 	0.87150 0.79590 0.38120 -0.49200
O 	O 	0.85700 0.75180 0.30990 -0.48800
O 	O 	0.05500 0.43580 0.24140 -0.51300
H 	H 	0.05910 0.45210 0.21470 0.28600
O 	O 	0.25830 0.55040 0.56800 -0.49600
H 	H 	0.28120 0.56320 0.58560 0.31300
O 	O 	0.93220 0.75760 0.45080 -0.49000
H 	H 	0.91990 0.78340 0.43760 0.32200
O 	O 	0.18900 0.71300 0.56900 -0.35100
O 	O 	0.92320 0.68750 0.28120 -0.48700
H 	H 	0.94120 0.70690 0.26400 0.30000
O 	O 	0.20280 0.39900 0.33570 -0.49100
H 	H 	0.22680 0.39920 0.31530 0.29600
Zn	Zn	0.79749 0.79452 0.29579 1.23300
C 	C 	0.85150 0.87930 0.25860 0.52900
C 	C 	0.86540 0.91950 0.22000 -0.43400
C 	C 	0.83260 0.93230 0.17930 0.48800
C 	C 	0.84570 0.97260 0.14640 -0.45300
H 	H 	0.82310 0.98130 0.12010 0.20300
C 	C 	0.89020 0.99980 0.15130 0.34300
C 	C 	0.92200 0.98700 0.19230 -0.47300
H 	H 	0.95250 0.00500 0.19720 0.20900
C 	C 	0.90940 0.94820 0.22590 0.51800
C 	C 	0.90400 0.04390 0.11740 -0.16400
C 	C 	0.87130 0.05550 0.07570 0.08400
H 	H 	0.84270 0.03490 0.06920 -0.00600
C 	C 	0.88170 0.09820 0.04380 -0.15600
C 	C 	0.92360 0.12900 0.05550 0.08600
H 	H 	0.93010 0.15780 0.03530 -0.00100
C 	C 	0.95570 0.11810 0.09600 -0.15300
C 	C 	0.94510 0.07490 0.12640 0.09000
H 	H 	0.96690 0.06710 0.15360 -0.00300
C 	C 	0.84620 0.11120 0.00050 0.33600
C 	C 	0.81030 0.07510 0.98320 -0.44500
H 	H 	0.80910 0.04280 0.99840 0.21000
C 	C 	0.77670 0.08690 0.94390 0.48900
C 	C 	0.77750 0.13560 0.92020 -0.48000
C 	C 	0.81260 0.17170 0.93830 0.59200
C 	C 	0.84650 0.15930 0.97820 -0.48200
H 	H 	0.86970 0.18390 0.98980 0.23500
C 	C 	0.74020 0.14950 0.87890 0.54400
C 	C 	0.99850 0.15290 0.10990 0.30200
C 	C 	0.01630 0.18950 0.07380 -0.41400
H 	H 	0.00190 0.19060 0.04110 0.19000
C 	C 	0.05470 0.22350 0.08650 0.46200
C 	C 	0.07680 0.22280 0.13530 -0.42900
C 	C 	0.05980 0.18670 0.17090 0.50300
C 	C 	0.02120 0.15290 0.15900 -0.44600
H 	H 	0.00980 0.12960 0.18370 0.21500
C 	C 	0.11830 0.25980 0.14980 0.52900
O 	O 	0.81020 0.85330 0.25020 -0.47600
O 	O 	0.88020 0.87190 0.29540 -0.47900
O 	O 	0.70430 0.11830 0.87090 -0.51200
O 	O 	0.74820 0.18850 0.85260 -0.50500
O 	O 	0.12850 0.29590 0.11880 -0.49200
O 	O 	0.14300 0.25180 0.19010 -0.48800
O 	O 	0.94500 0.93580 0.25860 -0.51300
H 	H 	0.94090 0.95210 0.28530 0.28500
O 	O 	0.74170 0.05040 0.93200 -0.49600
H 	H 	0.71880 0.06320 0.91440 0.31300
O 	O 	0.06780 0.25760 0.04920 -0.49000
H 	H 	0.08010 0.28340 0.06240 0.32200
O 	O 	0.81100 0.21300 0.93100 -0.35100
O 	O 	0.07680 0.18750 0.21880 -0.48700
H 	H 	0.05880 0.20690 0.23600 0.30000
O 	O 	0.79720 0.89900 0.16430 -0.49100
H 	H 	0.77320 0.89920 0.18470 0.29600
Zn	Zn	0.70251 0.20548 0.79579 1.23300
C 	C 	0.64850 0.12070 0.75860 0.52900
C 	C 	0.63460 0.08050 0.72000 -0.43500
C 	C 	0.66740 0.06770 0.67930 0.48800
C 	C 	0.65430 0.02740 0.64640 -0.45400
H 	H 	0.67690 0.01870 0.62010 0.20300
C 	C 	0.60980 0.00020 0.65130 0.34300
C 	C 	0.57800 0.01300 0.69230 -0.47300
H 	H 	0.54750 0.99500 0.69720 0.20900
C 	C 	0.59060 0.05180 0.72590 0.51800
C 	C 	0.59600 0.95610 0.61740 -0.16400
C 	C 	0.62870 0.94450 0.57570 0.08400
H 	H 	0.65730 0.96510 0.56920 -0.00600
C 	C 	0.61830 0.90180 0.54380 -0.15600
C 	C 	0.57640 0.87100 0.55550 0.08600
H 	H 	0.56990 0.84220 0.53530 -0.00100
C 	C 	0.54430 0.88190 0.59600 -0.15300
C 	C 	0.55490 0.92510 0.62640 0.09000
H 	H 	0.53310 0.93290 0.65360 -0.00300
C 	C 	0.65380 0.88880 0.50050 0.33600
C 	C 	0.68970 0.92490 0.48320 -0.44500
H 	H 	0.69090 0.95720 0.49840 0.21000
C 	C 	0.72330 0.91310 0.44390 0.48900
C 	C 	0.72250 0.86440 0.42020 -0.48000
C 	C 	0.68740 0.82830 0.43830 0.59200
C 	C 	0.65350 0.84070 0.47820 -0.48200
H 	H 	0.63030 0.81610 0.48980 0.23500
C 	C 	0.75980 0.85050 0.37890 0.54400
C 	C 	0.50150 0.84710 0.60990 0.30300
C 	C 	0.48370 0.81050 0.57380 -0.41500
H 	H 	0.49810 0.80940 0.54110 0.19000
C 	C 	0.44530 0.77650 0.58650 0.46200
C 	C 	0.42320 0.77720 0.63530 -0.42900
C 	C 	0.44020 0.81330 0.67090 0.50300
C 	C 	0.47880 0.84710 0.65900 -0.44700
H 	H 	0.49020 0.87040 0.68370 0.21600
C 	C 	0.38170 0.74020 0.64980 0.53000
O 	O 	0.68980 0.14670 0.75020 -0.47600
O 	O 	0.61980 0.12810 0.79540 -0.47900
O 	O 	0.79570 0.88170 0.37090 -0.51200
O 	O 	0.75180 0.81150 0.35260 -0.50500
O 	O 	0.37150 0.70410 0.61880 -0.49200
O 	O 	0.35700 0.74820 0.69010 -0.48800
O 	O 	0.55500 0.06420 0.75860 -0.51300
H 	H 	0.55910 0.04790 0.78530 0.28500
O 	O 	0.75830 0.94960 0.43200 -0.49600
H 	H 	0.78120 0.93680 0.41440 0.31300
O 	O 	0.43220 0.74240 0.54920 -0.49000
H 	H 	0.41990 0.71660 0.56240 0.32200
O 	O 	0.68900 0.78700 0.43100 -0.35100
O 	O 	0.42320 0.81250 0.71880 -0.48700
H 	H 	0.44120 0.79310 0.73600 0.30000
O 	O 	0.70280 0.10100 0.66430 -0.49100
H 	H 	0.72680 0.10080 0.68470 0.29600
Zn	Zn	0.20548 0.79579 0.70251 1.23300
C 	C 	0.12070 0.75860 0.64850 0.52900
C 	C 	0.08050 0.72000 0.63460 -0.43500
C 	C 	0.06770 0.67930 0.66740 0.48800
C 	C 	0.02740 0.64640 0.65430 -0.45400
H 	H 	0.01870 0.62010 0.67690 0.20300
C 	C 	0.00020 0.65130 0.60980 0.34300
C 	C 	0.01300 0.69230 0.57800 -0.47300
H 	H 	0.99500 0.69720 0.54750 0.20900
C 	C 	0.05180 0.72590 0.59060 0.51800
C 	C 	0.95610 0.61740 0.59600 -0.16400
C 	C 	0.94450 0.57570 0.62870 0.08400
H 	H 	0.96510 0.56920 0.65730 -0.00600
C 	C 	0.90180 0.54380 0.61830 -0.15600
C 	C 	0.87100 0.55550 0.57640 0.08600
H 	H 	0.84220 0.53530 0.56990 -0.00100
C 	C 	0.88190 0.59600 0.54430 -0.15300
C 	C 	0.92510 0.62640 0.55490 0.09000
H 	H 	0.93290 0.65360 0.53310 -0.00300
C 	C 	0.88880 0.50050 0.65380 0.33600
C 	C 	0.92490 0.48320 0.68970 -0.44500
H 	H 	0.95720 0.49840 0.69090 0.21000
C 	C 	0.91310 0.44390 0.72330 0.48900
C 	C 	0.86440 0.42020 0.72250 -0.48000
C 	C 	0.82830 0.43830 0.68740 0.59200
C 	C 	0.84070 0.47820 0.65350 -0.48200
H 	H 	0.81610 0.48980 0.63030 0.23500
C 	C 	0.85050 0.37890 0.75980 0.54400
C 	C 	0.84710 0.60990 0.50150 0.30300
C 	C 	0.81050 0.57380 0.48370 -0.41500
H 	H 	0.80940 0.54110 0.49810 0.19000
C 	C 	0.77650 0.58650 0.44530 0.46200
C 	C 	0.77720 0.63530 0.42320 -0.42900
C 	C 	0.81330 0.67090 0.44020 0.50300
C 	C 	0.84710 0.65900 0.47880 -0.44700
H 	H 	0.87040 0.68370 0.49020 0.21600
C 	C 	0.74020 0.64980 0.38170 0.53000
O 	O 	0.14670 0.75020 0.68980 -0.47600
O 	O 	0.12810 0.79540 0.61980 -0.47900
O 	O 	0.88170 0.37090 0.79570 -0.51200
O 	O 	0.81150 0.35260 0.75180 -0.50500
O 	O 	0.70410 0.61880 0.37150 -0.49200
O 	O 	0.74820 0.69010 0.35700 -0.48800
O 	O 	0.06420 0.75860 0.55500 -0.51300
H 	H 	0.04790 0.78530 0.55910 0.28500
O 	O 	0.94960 0.43200 0.75830 -0.49600
H 	H 	0.93680 0.41440 0.78120 0.31300
O 	O 	0.74240 0.54920 0.43220 -0.49000
H 	H 	0.71660 0.56240 0.41990 0.32200
O 	O 	0.78700 0.43100 0.68900 -0.35100
O 	O 	0.81250 0.71880 0.42320 -0.48700
H 	H 	0.79310 0.73600 0.44120 0.30000
O 	O 	0.10100 0.66430 0.70280 -0.49100
H 	H 	0.10080 0.68470 0.72680 0.29600
Zn	Zn	0.79452 0.29579 0.79749 1.23300
C 	C 	0.87930 0.25860 0.85150 0.52900
C 	C 	0.91950 0.22000 0.86540 -0.43400
C 	C 	0.93230 0.17930 0.83260 0.48800
C 	C 	0.97260 0.14640 0.84570 -0.45300
H 	H 	0.98130 0.12010 0.82310 0.20300
C 	C 	0.99980 0.15130 0.89020 0.34300
C 	C 	0.98700 0.19230 0.92200 -0.47300
H 	H 	0.00500 0.19720 0.95250 0.20900
C 	C 	0.94820 0.22590 0.90940 0.51800
C 	C 	0.04390 0.11740 0.90400 -0.16400
C 	C 	0.05550 0.07570 0.87130 0.08400
H 	H 	0.03490 0.06920 0.84270 -0.00600
C 	C 	0.09820 0.04380 0.88170 -0.15600
C 	C 	0.12900 0.05550 0.92360 0.08600
H 	H 	0.15780 0.03530 0.93010 -0.00100
C 	C 	0.11810 0.09600 0.95570 -0.15300
C 	C 	0.07490 0.12640 0.94510 0.09000
H 	H 	0.06710 0.15360 0.96690 -0.00300
C 	C 	0.11120 0.00050 0.84620 0.33600
C 	C 	0.07510 0.98320 0.81030 -0.44500
H 	H 	0.04280 0.99840 0.80910 0.21000
C 	C 	0.08690 0.94390 0.77670 0.48900
C 	C 	0.13560 0.92020 0.77750 -0.48000
C 	C 	0.17170 0.93830 0.81260 0.59200
C 	C 	0.15930 0.97820 0.84650 -0.48200
H 	H 	0.18390 0.98980 0.86970 0.23500
C 	C 	0.14950 0.87890 0.74020 0.54400
C 	C 	0.15290 0.10990 0.99850 0.30200
C 	C 	0.18950 0.07380 0.01630 -0.41400
H 	H 	0.19060 0.04110 0.00190 0.19000
C 	C 	0.22350 0.08650 0.05470 0.46200
C 	C 	0.22280 0.13530 0.07680 -0.42900
C 	C 	0.18670 0.17090 0.05980 0.50300
C 	C 	0.15290 0.15900 0.02120 -0.44600
H 	H 	0.12960 0.18370 0.00980 0.21500
C 	C 	0.25980 0.14980 0.11830 0.52900
O 	O 	0.85330 0.25020 0.81020 -0.47600
O 	O 	0.87190 0.29540 0.88020 -0.47900
O 	O 	0.11830 0.87090 0.70430 -0.51200
O 	O 	0.18850 0.85260 0.74820 -0.50500
O 	O 	0.29590 0.11880 0.12850 -0.49200
O 	O 	0.25180 0.19010 0.14300 -0.48800
O 	O 	0.93580 0.25860 0.94500 -0.51300
H 	H 	0.95210 0.28530 0.94090 0.28500
O 	O 	0.05040 0.93200 0.74170 -0.49600
H 	H 	0.06320 0.91440 0.71880 0.31300
O 	O 	0.25760 0.04920 0.06780 -0.49000
H 	H 	0.28340 0.06240 0.08010 0.32200
O 	O 	0.21300 0.93100 0.81100 -0.35100
O 	O 	0.18750 0.21880 0.07680 -0.48700
H 	H 	0.20690 0.23600 0.05880 0.30000
O 	O 	0.89900 0.16430 0.79720 -0.49100
H 	H 	0.89920 0.18470 0.77320 0.29600
Zn	Zn	0.29452 0.20421 0.20251 1.23300
C 	C 	0.37930 0.24140 0.14850 0.52900
C 	C 	0.41950 0.28000 0.13460 -0.43500
C 	C 	0.43230 0.32070 0.16740 0.48800
C 	C 	0.47260 0.35360 0.15430 -0.45400
H 	H 	0.48130 0.37990 0.17690 0.20300
C 	C 	0.49980 0.34870 0.10980 0.34400
C 	C 	0.48700 0.30770 0.07800 -0.47300
H 	H 	0.50500 0.30280 0.04750 0.20900
C 	C 	0.44820 0.27410 0.09060 0.51800
C 	C 	0.54390 0.38260 0.09600 -0.16400
C 	C 	0.55550 0.42430 0.12870 0.08400
H 	H 	0.53490 0.43080 0.15730 -0.00600
C 	C 	0.59820 0.45620 0.11830 -0.15600
C 	C 	0.62900 0.44450 0.07640 0.08600
H 	H 	0.65780 0.46470 0.06990 -0.00100
C 	C 	0.61810 0.40400 0.04430 -0.15300
C 	C 	0.57490 0.37360 0.05490 0.09000
H 	H 	0.56710 0.34640 0.03310 -0.00300
C 	C 	0.61120 0.49950 0.15380 0.33600
C 	C 	0.57510 0.51680 0.18970 -0.44500
H 	H 	0.54280 0.50160 0.19090 0.21000
C 	C 	0.58690 0.55610 0.22330 0.48900
C 	C 	0.63560 0.57980 0.22250 -0.48000
C 	C 	0.67170 0.56170 0.18740 0.59200
C 	C 	0.65930 0.52180 0.15350 -0.48200
H 	H 	0.68390 0.51020 0.13030 0.23500
C 	C 	0.64950 0.62110 0.25980 0.54400
C 	C 	0.65290 0.39010 0.00150 0.30300
C 	C 	0.68950 0.42620 0.98370 -0.41500
H 	H 	0.69060 0.45890 0.99810 0.19000
C 	C 	0.72350 0.41350 0.94530 0.46200
C 	C 	0.72280 0.36470 0.92320 -0.42900
C 	C 	0.68670 0.32910 0.94020 0.50300
C 	C 	0.65290 0.34100 0.97880 -0.44700
H 	H 	0.62960 0.31630 0.99020 0.21600
C 	C 	0.75980 0.35020 0.88170 0.53000
O 	O 	0.35330 0.24980 0.18980 -0.47600
O 	O 	0.37190 0.20460 0.11980 -0.47900
O 	O 	0.61830 0.62910 0.29570 -0.51200
O 	O 	0.68850 0.64740 0.25180 -0.50500
O 	O 	0.79590 0.38120 0.87150 -0.49200
O 	O 	0.75180 0.30990 0.85700 -0.48800
O 	O 	0.43580 0.24140 0.05500 -0.51300
H 	H 	0.45210 0.21470 0.05910 0.28600
O 	O 	0.55040 0.56800 0.25830 -0.49600
H 	H 	0.56320 0.58560 0.28120 0.31300
O 	O 	0.75760 0.45080 0.93220 -0.49000
H 	H 	0.78340 0.43760 0.91990 0.32200
O 	O 	0.71300 0.56900 0.18900 -0.35100
O 	O 	0.68750 0.28120 0.92320 -0.48700
H 	H 	0.70690 0.26400 0.94120 0.30000
O 	O 	0.39900 0.33570 0.20280 -0.49100
H 	H 	0.39920 0.31530 0.22680 0.29600
Zn	Zn	0.70548 0.70421 0.29749 1.23300
C 	C 	0.62070 0.74140 0.35150 0.52900
C 	C 	0.58050 0.78000 0.36540 -0.43500
C 	C 	0.56770 0.82070 0.33260 0.48800
C 	C 	0.52740 0.85360 0.34570 -0.45400
H 	H 	0.51870 0.87990 0.32310 0.20300
C 	C 	0.50020 0.84870 0.39020 0.34400
C 	C 	0.51300 0.80770 0.42200 -0.47300
H 	H 	0.49500 0.80280 0.45250 0.20900
C 	C 	0.55180 0.77410 0.40940 0.51800
C 	C 	0.45610 0.88260 0.40400 -0.16400
C 	C 	0.44450 0.92430 0.37130 0.08400
H 	H 	0.46510 0.93080 0.34270 -0.00600
C 	C 	0.40180 0.95620 0.38170 -0.15600
C 	C 	0.37100 0.94450 0.42360 0.08600
H 	H 	0.34220 0.96470 0.43010 -0.00100
C 	C 	0.38190 0.90400 0.45570 -0.15300
C 	C 	0.42510 0.87360 0.44510 0.09000
H 	H 	0.43290 0.84640 0.46690 -0.00300
C 	C 	0.38880 0.99950 0.34620 0.33500
C 	C 	0.42490 0.01680 0.31030 -0.44500
H 	H 	0.45720 0.00160 0.30910 0.21000
C 	C 	0.41310 0.05610 0.27670 0.48800
C 	C 	0.36440 0.07980 0.27750 -0.48000
C 	C 	0.32830 0.06170 0.31260 0.59200
C 	C 	0.34070 0.02180 0.34650 -0.48200
H 	H 	0.31610 0.01020 0.36970 0.23500
C 	C 	0.35050 0.12110 0.24020 0.54400
C 	C 	0.34710 0.89010 0.49850 0.30300
C 	C 	0.31050 0.92620 0.51630 -0.41500
H 	H 	0.30940 0.95890 0.50190 0.19000
C 	C 	0.27650 0.91350 0.55470 0.46200
C 	C 	0.27720 0.86470 0.57680 -0.42900
C 	C 	0.31330 0.82910 0.55980 0.50300
C 	C 	0.34710 0.84100 0.52120 -0.44700
H 	H 	0.37040 0.81630 0.50980 0.21600
C 	C 	0.24020 0.85020 0.61830 0.53000
O 	O 	0.64670 0.74980 0.31020 -0.47600
O 	O 	0.62810 0.70460 0.38020 -0.47900
O 	O 	0.38170 0.12910 0.20430 -0.51200
O 	O 	0.31150 0.14740 0.24820 -0.50500
O 	O 	0.20410 0.88120 0.62850 -0.49200
O 	O 	0.24820 0.80990 0.64300 -0.48800
O 	O 	0.56420 0.74140 0.44500 -0.51300
H 	H 	0.54790 0.71470 0.44090 0.28500
O 	O 	0.44960 0.06800 0.24170 -0.49600
H 	H 	0.43680 0.08560 0.21880 0.31300
O 	O 	0.24240 0.95080 0.56780 -0.49000
H 	H 	0.21660 0.93760 0.58010 0.32200
O 	O 	0.28700 0.06900 0.31100 -0.35100
O 	O 	0.31250 0.78120 0.57680 -0.48700
H 	H 	0.29310 0.76400 0.55880 0.30000
O 	O 	0.60100 0.83570 0.29720 -0.49100
H 	H 	0.60080 0.81530 0.27320 0.29600
Zn	Zn	0.29579 0.79749 0.79452 1.23300
C 	C 	0.25860 0.85150 0.87930 0.52900
C 	C 	0.22000 0.86540 0.91950 -0.43400
C 	C 	0.17930 0.83260 0.93230 0.48800
C 	C 	0.14640 0.84570 0.97260 -0.45300
H 	H 	0.12010 0.82310 0.98130 0.20300
C 	C 	0.15130 0.89020 0.99980 0.34300
C 	C 	0.19230 0.92200 0.98700 -0.47300
H 	H 	0.19720 0.95250 0.00500 0.20900
C 	C 	0.22590 0.90940 0.94820 0.51800
C 	C 	0.11740 0.90400 0.04390 -0.16400
C 	C 	0.07570 0.87130 0.05550 0.08400
H 	H 	0.06920 0.84270 0.03490 -0.00600
C 	C 	0.04380 0.88170 0.09820 -0.15600
C 	C 	0.05550 0.92360 0.12900 0.08600
H 	H 	0.03530 0.93010 0.15780 -0.00100
C 	C 	0.09600 0.95570 0.11810 -0.15300
C 	C 	0.12640 0.94510 0.07490 0.09000
H 	H 	0.15360 0.96690 0.06710 -0.00300
C 	C 	0.00050 0.84620 0.11120 0.33600
C 	C 	0.98320 0.81030 0.07510 -0.44500
H 	H 	0.99840 0.80910 0.04280 0.21000
C 	C 	0.94390 0.77670 0.08690 0.48900
C 	C 	0.92020 0.77750 0.13560 -0.48000
C 	C 	0.93830 0.81260 0.17170 0.59200
C 	C 	0.97820 0.84650 0.15930 -0.48200
H 	H 	0.98980 0.86970 0.18390 0.23500
C 	C 	0.87890 0.74020 0.14950 0.54400
C 	C 	0.10990 0.99850 0.15290 0.30200
C 	C 	0.07380 0.01630 0.18950 -0.41400
H 	H 	0.04110 0.00190 0.19060 0.19000
C 	C 	0.08650 0.05470 0.22350 0.46200
C 	C 	0.13530 0.07680 0.22280 -0.42900
C 	C 	0.17090 0.05980 0.18670 0.50300
C 	C 	0.15900 0.02120 0.15290 -0.44600
H 	H 	0.18370 0.00980 0.12960 0.21500
C 	C 	0.14980 0.11830 0.25980 0.52900
O 	O 	0.25020 0.81020 0.85330 -0.47600
O 	O 	0.29540 0.88020 0.87190 -0.47900
O 	O 	0.87090 0.70430 0.11830 -0.51200
O 	O 	0.85260 0.74820 0.18850 -0.50500
O 	O 	0.11880 0.12850 0.29590 -0.49200
O 	O 	0.19010 0.14300 0.25180 -0.48800
O 	O 	0.25860 0.94500 0.93580 -0.51300
H 	H 	0.28530 0.94090 0.95210 0.28500
O 	O 	0.93200 0.74170 0.05040 -0.49600
H 	H 	0.91440 0.71880 0.06320 0.31300
O 	O 	0.04920 0.06780 0.25760 -0.49000
H 	H 	0.06240 0.08010 0.28340 0.32200
O 	O 	0.93100 0.81100 0.21300 -0.35100
O 	O 	0.21880 0.07680 0.18750 -0.48700
H 	H 	0.23600 0.05880 0.20690 0.30000
O 	O 	0.16430 0.79720 0.89900 -0.49100
H 	H 	0.18470 0.77320 0.89920 0.29600
Zn	Zn	0.79579 0.70251 0.20548 1.23300
C 	C 	0.75860 0.64850 0.12070 0.52900
C 	C 	0.72000 0.63460 0.08050 -0.43500
C 	C 	0.67930 0.66740 0.06770 0.48800
C 	C 	0.64640 0.65430 0.02740 -0.45400
H 	H 	0.62010 0.67690 0.01870 0.20300
C 	C 	0.65130 0.60980 0.00020 0.34300
C 	C 	0.69230 0.57800 0.01300 -0.47300
H 	H 	0.69720 0.54750 0.99500 0.20900
C 	C 	0.72590 0.59060 0.05180 0.51800
C 	C 	0.61740 0.59600 0.95610 -0.16400
C 	C 	0.57570 0.62870 0.94450 0.08400
H 	H 	0.56920 0.65730 0.96510 -0.00600
C 	C 	0.54380 0.61830 0.90180 -0.15600
C 	C 	0.55550 0.57640 0.87100 0.08600
H 	H 	0.53530 0.56990 0.84220 -0.00100
C 	C 	0.59600 0.54430 0.88190 -0.15300
C 	C 	0.62640 0.55490 0.92510 0.09000
H 	H 	0.65360 0.53310 0.93290 -0.00300
C 	C 	0.50050 0.65380 0.88880 0.33600
C 	C 	0.48320 0.68970 0.92490 -0.44500
H 	H 	0.49840 0.69090 0.95720 0.21000
C 	C 	0.44390 0.72330 0.91310 0.48900
C 	C 	0.42020 0.72250 0.86440 -0.48000
C 	C 	0.43830 0.68740 0.82830 0.59200
C 	C 	0.47820 0.65350 0.84070 -0.48200
H 	H 	0.48980 0.63030 0.81610 0.23500
C 	C 	0.37890 0.75980 0.85050 0.54400
C 	C 	0.60990 0.50150 0.84710 0.30300
C 	C 	0.57380 0.48370 0.81050 -0.41500
H 	H 	0.54110 0.49810 0.80940 0.19000
C 	C 	0.58650 0.44530 0.77650 0.46200
C 	C 	0.63530 0.42320 0.77720 -0.42900
C 	C 	0.67090 0.44020 0.81330 0.50300
C 	C 	0.65900 0.47880 0.84710 -0.44700
H 	H 	0.68370 0.49020 0.87040 0.21600
C 	C 	0.64980 0.38170 0.74020 0.53000
O 	O 	0.75020 0.68980 0.14670 -0.47600
O 	O 	0.79540 0.61980 0.12810 -0.47900
O 	O 	0.37090 0.79570 0.88170 -0.51200
O 	O 	0.35260 0.75180 0.81150 -0.50500
O 	O 	0.61880 0.37150 0.70410 -0.49200
O 	O 	0.69010 0.35700 0.74820 -0.48800
O 	O 	0.75860 0.55500 0.06420 -0.51300
H 	H 	0.78530 0.55910 0.04790 0.28500
O 	O 	0.43200 0.75830 0.94960 -0.49600
H 	H 	0.41440 0.78120 0.93680 0.31300
O 	O 	0.54920 0.43220 0.74240 -0.49000
H 	H 	0.56240 0.41990 0.71660 0.32200
O 	O 	0.43100 0.68900 0.78700 -0.35100
O 	O 	0.71880 0.42320 0.81250 -0.48700
H 	H 	0.73600 0.44120 0.79310 0.30000
O 	O 	0.66430 0.70280 0.10100 -0.49100
H 	H 	0.68470 0.72680 0.10080 0.29600
Zn	Zn	0.70421 0.29749 0.70548 1.23300
C 	C 	0.74140 0.35150 0.62070 0.52900
C 	C 	0.78000 0.36540 0.58050 -0.43500
C 	C 	0.82070 0.33260 0.56770 0.48800
C 	C 	0.85360 0.34570 0.52740 -0.45400
H 	H 	0.87990 0.32310 0.51870 0.20300
C 	C 	0.84870 0.39020 0.50020 0.34400
C 	C 	0.80770 0.42200 0.51300 -0.47300
H 	H 	0.80280 0.45250 0.49500 0.20900
C 	C 	0.77410 0.40940 0.55180 0.51800
C 	C 	0.88260 0.40400 0.45610 -0.16400
C 	C 	0.92430 0.37130 0.44450 0.08400
H 	H 	0.93080 0.34270 0.46510 -0.00600
C 	C 	0.95620 0.38170 0.40180 -0.15600
C 	C 	0.94450 0.42360 0.37100 0.08600
H 	H 	0.96470 0.43010 0.34220 -0.00100
C 	C 	0.90400 0.45570 0.38190 -0.15300
C 	C 	0.87360 0.44510 0.42510 0.09000
H 	H 	0.84640 0.46690 0.43290 -0.00300
C 	C 	0.99950 0.34620 0.38880 0.33500
C 	C 	0.01680 0.31030 0.42490 -0.44500
H 	H 	0.00160 0.30910 0.45720 0.21000
C 	C 	0.05610 0.27670 0.41310 0.48800
C 	C 	0.07980 0.27750 0.36440 -0.48000
C 	C 	0.06170 0.31260 0.32830 0.59200
C 	C 	0.02180 0.34650 0.34070 -0.48200
H 	H 	0.01020 0.36970 0.31610 0.23500
C 	C 	0.12110 0.24020 0.35050 0.54400
C 	C 	0.89010 0.49850 0.34710 0.30300
C 	C 	0.92620 0.51630 0.31050 -0.41500
H 	H 	0.95890 0.50190 0.30940 0.19000
C 	C 	0.91350 0.55470 0.27650 0.46200
C 	C 	0.86470 0.57680 0.27720 -0.42900
C 	C 	0.82910 0.55980 0.31330 0.50300
C 	C 	0.84100 0.52120 0.34710 -0.44700
H 	H 	0.81630 0.50980 0.37040 0.21600
C 	C 	0.85020 0.61830 0.24020 0.53000
O 	O 	0.74980 0.31020 0.64670 -0.47600
O 	O 	0.70460 0.38020 0.62810 -0.47900
O 	O 	0.12910 0.20430 0.38170 -0.51200
O 	O 	0.14740 0.24820 0.31150 -0.50500
O 	O 	0.88120 0.62850 0.20410 -0.49200
O 	O 	0.80990 0.64300 0.24820 -0.48800
O 	O 	0.74140 0.44500 0.56420 -0.51300
H 	H 	0.71470 0.44090 0.54790 0.28500
O 	O 	0.06800 0.24170 0.44960 -0.49600
H 	H 	0.08560 0.21880 0.43680 0.31300
O 	O 	0.95080 0.56780 0.24240 -0.49000
H 	H 	0.93760 0.58010 0.21660 0.32200
O 	O 	0.06900 0.31100 0.28700 -0.35100
O 	O 	0.78120 0.57680 0.31250 -0.48700
H 	H 	0.76400 0.55880 0.29310 0.30000
O 	O 	0.83570 0.29720 0.60100 -0.49100
H 	H 	0.81530 0.27320 0.60080 0.29600
Zn	Zn	0.20421 0.20251 0.29452 1.23300
C 	C 	0.24140 0.14850 0.37930 0.52900
C 	C 	0.28000 0.13460 0.41950 -0.43500
C 	C 	0.32070 0.16740 0.43230 0.48800
C 	C 	0.35360 0.15430 0.47260 -0.45400
H 	H 	0.37990 0.17690 0.48130 0.20300
C 	C 	0.34870 0.10980 0.49980 0.34400
C 	C 	0.30770 0.07800 0.48700 -0.47300
H 	H 	0.30280 0.04750 0.50500 0.20900
C 	C 	0.27410 0.09060 0.44820 0.51800
C 	C 	0.38260 0.09600 0.54390 -0.16400
C 	C 	0.42430 0.12870 0.55550 0.08400
H 	H 	0.43080 0.15730 0.53490 -0.00600
C 	C 	0.45620 0.11830 0.59820 -0.15600
C 	C 	0.44450 0.07640 0.62900 0.08600
H 	H 	0.46470 0.06990 0.65780 -0.00100
C 	C 	0.40400 0.04430 0.61810 -0.15300
C 	C 	0.37360 0.05490 0.57490 0.09000
H 	H 	0.34640 0.03310 0.56710 -0.00300
C 	C 	0.49950 0.15380 0.61120 0.33600
C 	C 	0.51680 0.18970 0.57510 -0.44500
H 	H 	0.50160 0.19090 0.54280 0.21000
C 	C 	0.55610 0.22330 0.58690 0.48900
C 	C 	0.57980 0.22250 0.63560 -0.48000
C 	C 	0.56170 0.18740 0.67170 0.59200
C 	C 	0.52180 0.15350 0.65930 -0.48200
H 	H 	0.51020 0.13030 0.68390 0.23500
C 	C 	0.62110 0.25980 0.64950 0.54400
C 	C 	0.39010 0.00150 0.65290 0.30300
C 	C 	0.42620 0.98370 0.68950 -0.41500
H 	H 	0.45890 0.99810 0.69060 0.19000
C 	C 	0.41350 0.94530 0.72350 0.46200
C 	C 	0.36470 0.92320 0.72280 -0.42900
C 	C 	0.32910 0.94020 0.68670 0.50300
C 	C 	0.34100 0.97880 0.65290 -0.44700
H 	H 	0.31630 0.99020 0.62960 0.21600
C 	C 	0.35020 0.88170 0.75980 0.53000
O 	O 	0.24980 0.18980 0.35330 -0.47600
O 	O 	0.20460 0.11980 0.37190 -0.47900
O 	O 	0.62910 0.29570 0.61830 -0.51200
O 	O 	0.64740 0.25180 0.68850 -0.50500
O 	O 	0.38120 0.87150 0.79590 -0.49200
O 	O 	0.30990 0.85700 0.75180 -0.48800
O 	O 	0.24140 0.05500 0.43580 -0.51300
H 	H 	0.21470 0.05910 0.45210 0.28600
O 	O 	0.56800 0.25830 0.55040 -0.49600
H 	H 	0.58560 0.28120 0.56320 0.31300
O 	O 	0.45080 0.93220 0.75760 -0.49000
H 	H 	0.43760 0.91990 0.78340 0.32200
O 	O 	0.56900 0.18900 0.71300 -0.35100
O 	O 	0.28120 0.92320 0.68750 -0.48700
H 	H 	0.26400 0.94120 0.70690 0.30000
O 	O 	0.33570 0.20280 0.39900 -0.49100
H 	H 	0.31530 0.22680 0.39920 0.29600
Zn	Zn	0.12428 0.37428 0.12500 1.24800
Zn	Zn	0.37572 0.62572 0.62500 1.24800
Zn	Zn	0.87572 0.87428 0.37500 1.24800
Zn	Zn	0.62428 0.12572 0.87500 1.24800
Zn	Zn	0.12500 0.12428 0.37428 1.24800
Zn	Zn	0.62500 0.37572 0.62572 1.24800
Zn	Zn	0.37500 0.87572 0.87428 1.24800
Zn	Zn	0.87500 0.62428 0.12572 1.24800
Zn	Zn	0.37428 0.12500 0.12428 1.24800
Zn	Zn	0.62572 0.62500 0.37572 1.24800
Zn	Zn	0.87428 0.37500 0.87572 1.24800
Zn	Zn	0.12572 0.87500 0.62428 1.24800
O 	O 	0.50320 0.50320 0.50320 -0.62800
O 	O 	0.99680 0.49680 0.00320 -0.62900
O 	O 	0.49680 0.00320 0.99680 -0.62900
O 	O 	0.00320 0.99680 0.49680 -0.62900
O 	O 	0.25320 0.75320 0.74680 -0.62800
O 	O 	0.24680 0.24680 0.24680 -0.62800
O 	O 	0.75320 0.74680 0.25320 -0.62800
O 	O 	0.74680 0.25320 0.75320 -0.62800
