data_crystal

_cell_length_a 24.04200
_cell_length_b 12.49000
_cell_length_c 31.15000
_cell_angle_alpha 90.00000
_cell_angle_beta  107.80000
_cell_angle_gamma 90.00000

_symmetry_space_group_name_	'P 1'
_symmetry_space_group_name_H-M	'P 1'

loop_
_symmetry_equiv_pos_as_xyz
  x,y,z

loop_
_atom_site_label
_atom_site_type_symbol
_atom_site_fract_x
_atom_site_fract_y
_atom_site_fract_z
_atom_site_charge
Pt	Pt	0.28217 0.49248 0.39029 0.37200
Cu	Cu	0.53736 0.80281 0.45702 0.88300
Cu	Cu	0.59980 0.87048 0.57071 0.88900
N 	N 	0.29200 0.53440 0.33030 -0.26500
H 	H 	0.27060 0.59280 0.31920 0.10000
H 	H 	0.32970 0.54880 0.33340 0.09700
N 	N 	0.27330 0.34160 0.36430 -0.26300
H 	H 	0.29970 0.29800 0.38280 0.08300
H 	H 	0.23740 0.31650 0.36190 0.09800
N 	N 	0.29460 0.64460 0.41430 -0.18800
N 	N 	0.77570 0.94290 0.45010 -0.19400
N 	N 	0.52920 0.61240 0.79530 -0.26600
H 	H 	0.56720 0.62220 0.81050 0.10100
H 	H 	0.50870 0.61100 0.81510 0.09900
N 	N 	0.46920 0.84570 0.70160 -0.19300
O 	O 	0.42270 0.93520 0.46740 -0.43900
O 	O 	0.45140 0.78820 0.43810 -0.44300
O 	O 	0.62010 0.83550 0.46690 -0.45500
O 	O 	0.66000 0.84930 0.54210 -0.45400
O 	O 	0.47760 0.00240 0.56720 -0.46100
O 	O 	0.54800 0.89440 0.60630 -0.46800
O 	O 	0.53450 0.85800 0.51520 -0.52500
C 	C 	0.27130 0.44000 0.29920 -0.06000
H 	H 	0.22960 0.44680 0.28480 0.03100
H 	H 	0.29000 0.44290 0.27560 0.02900
C 	C 	0.28210 0.34300 0.31930 -0.03400
H 	H 	0.32210 0.32210 0.32240 0.01400
H 	H 	0.25650 0.29010 0.30020 0.01700
C 	C 	0.34410 0.69570 0.42080 0.11000
H 	H 	0.37420 0.66160 0.41310 -0.01500
C 	C 	0.35380 0.79790 0.43850 -0.18000
C 	C 	0.31010 0.85150 0.44780 0.09700
H 	H 	0.31580 0.91990 0.46030 0.00800
C 	C 	0.25690 0.80110 0.43820 -0.16900
H 	H 	0.22520 0.83800 0.44210 0.08900
C 	C 	0.24970 0.69880 0.42300 0.08900
H 	H 	0.21380 0.66500 0.41850 -0.00700
C 	C 	0.41420 0.84510 0.44840 0.39300
C 	C 	0.72530 0.90590 0.45540 0.10500
H 	H 	0.69310 0.89650 0.43000 -0.00400
C 	C 	0.71980 0.88130 0.49790 -0.17400
C 	C 	0.76860 0.88970 0.53500 0.11200
H 	H 	0.76740 0.87110 0.56360 -0.00700
C 	C 	0.81920 0.92650 0.52840 -0.18800
H 	H 	0.85290 0.93410 0.55270 0.08100
C 	C 	0.81990 0.95220 0.48540 0.12000
H 	H 	0.85460 0.97780 0.48190 -0.02800
C 	C 	0.66060 0.85290 0.50110 0.41900
C 	C 	0.52100 0.50860 0.76890 -0.04800
H 	H 	0.55710 0.49160 0.76290 0.02700
H 	H 	0.51350 0.45190 0.78770 0.02400
C 	C 	0.49350 0.85790 0.66850 0.13000
H 	H 	0.52430 0.81380 0.66760 -0.02100
C 	C 	0.47370 0.93380 0.63630 -0.21700
C 	C 	0.42530 0.99580 0.63640 0.14800
H 	H 	0.40960 0.04530 0.61360 -0.03200
C 	C 	0.40240 0.98300 0.66970 -0.17800
H 	H 	0.37160 0.02590 0.67110 0.06500
C 	C 	0.42360 0.90500 0.70200 0.10100
H 	H 	0.40580 0.89500 0.72440 -0.01800
C 	C 	0.50160 0.94710 0.59970 0.46400
Pt	Pt	0.78217 0.99248 0.39029 0.38900
Cu	Cu	0.03736 0.30281 0.45702 0.87600
Cu	Cu	0.09980 0.37048 0.57071 0.88400
N 	N 	0.79200 0.03440 0.33030 -0.27500
H 	H 	0.77060 0.09280 0.31920 0.09900
H 	H 	0.82970 0.04880 0.33340 0.09700
N 	N 	0.77330 0.84160 0.36430 -0.26100
H 	H 	0.79970 0.79800 0.38280 0.08600
H 	H 	0.73740 0.81650 0.36190 0.10100
N 	N 	0.79460 0.14460 0.41430 -0.19300
N 	N 	0.27570 0.44290 0.45010 -0.19400
N 	N 	0.02920 0.11240 0.79530 -0.24500
H 	H 	0.06720 0.12220 0.81050 0.09100
H 	H 	0.00870 0.11100 0.81510 0.08400
N 	N 	0.96920 0.34570 0.70160 -0.18900
O 	O 	0.92270 0.43520 0.46740 -0.44100
O 	O 	0.95140 0.28820 0.43810 -0.43200
O 	O 	0.12010 0.33550 0.46690 -0.45800
O 	O 	0.16000 0.34930 0.54210 -0.45800
O 	O 	0.97760 0.50240 0.56720 -0.39800
O 	O 	0.04800 0.39440 0.60630 -0.45500
O 	O 	0.03450 0.35800 0.51520 -0.54000
C 	C 	0.77130 0.94000 0.29920 -0.04000
H 	H 	0.72960 0.94680 0.28480 0.03100
H 	H 	0.79000 0.94290 0.27560 0.03000
C 	C 	0.78210 0.84300 0.31930 -0.04600
H 	H 	0.82210 0.82210 0.32240 0.02300
H 	H 	0.75650 0.79010 0.30020 0.02500
C 	C 	0.84410 0.19570 0.42080 0.10900
H 	H 	0.87420 0.16160 0.41310 -0.01600
C 	C 	0.85380 0.29790 0.43850 -0.18200
C 	C 	0.81010 0.35150 0.44780 0.09700
H 	H 	0.81580 0.41990 0.46030 0.00200
C 	C 	0.75690 0.30110 0.43820 -0.17100
H 	H 	0.72520 0.33800 0.44210 0.08600
C 	C 	0.74970 0.19880 0.42300 0.08800
H 	H 	0.71380 0.16500 0.41850 -0.01100
C 	C 	0.91420 0.34510 0.44840 0.39400
C 	C 	0.22530 0.40590 0.45540 0.10200
H 	H 	0.19310 0.39650 0.43000 -0.00500
C 	C 	0.21980 0.38130 0.49790 -0.17600
C 	C 	0.26860 0.38970 0.53500 0.11000
H 	H 	0.26740 0.37110 0.56360 -0.00900
C 	C 	0.31920 0.42650 0.52840 -0.19000
H 	H 	0.35290 0.43410 0.55270 0.07500
C 	C 	0.31990 0.45220 0.48540 0.11700
H 	H 	0.35460 0.47780 0.48190 -0.03500
C 	C 	0.16060 0.35290 0.50110 0.41900
C 	C 	0.02100 0.00860 0.76890 -0.19400
H 	H 	0.05710 0.99160 0.76290 0.07700
H 	H 	0.01350 0.95190 0.78770 0.07000
C 	C 	0.99350 0.35790 0.66850 0.16100
H 	H 	0.02430 0.31380 0.66760 -0.05100
C 	C 	0.97370 0.43380 0.63630 -0.17300
C 	C 	0.92530 0.49580 0.63640 0.10400
H 	H 	0.90960 0.54530 0.61360 -0.00400
C 	C 	0.90240 0.48300 0.66970 -0.18800
H 	H 	0.87160 0.52590 0.67110 0.08200
C 	C 	0.92360 0.40500 0.70200 0.10600
H 	H 	0.90580 0.39500 0.72440 -0.01800
C 	C 	0.00160 0.44710 0.59970 0.36900
Pt	Pt	0.71783 0.49248 0.10971 0.37300
Cu	Cu	0.46264 0.80281 0.04298 0.88100
Cu	Cu	0.40020 0.87048 0.92929 0.89100
N 	N 	0.70800 0.53440 0.16970 -0.26400
H 	H 	0.72940 0.59280 0.18080 0.10200
H 	H 	0.67030 0.54880 0.16660 0.09800
N 	N 	0.72670 0.34160 0.13570 -0.26300
H 	H 	0.70030 0.29800 0.11720 0.08300
H 	H 	0.76260 0.31650 0.13810 0.10100
N 	N 	0.70540 0.64460 0.08570 -0.18800
N 	N 	0.22430 0.94290 0.04990 -0.19400
N 	N 	0.47080 0.61240 0.70470 -0.26500
H 	H 	0.43280 0.62220 0.68950 0.10100
H 	H 	0.49130 0.61100 0.68490 0.09900
N 	N 	0.53080 0.84570 0.79840 -0.19300
O 	O 	0.57730 0.93520 0.03260 -0.44200
O 	O 	0.54860 0.78820 0.06190 -0.44500
O 	O 	0.37990 0.83550 0.03310 -0.47400
O 	O 	0.34000 0.84930 0.95790 -0.46100
O 	O 	0.52240 0.00240 0.93280 -0.45700
O 	O 	0.45200 0.89440 0.89370 -0.46700
O 	O 	0.46550 0.85800 0.98480 -0.51700
C 	C 	0.72870 0.44000 0.20080 -0.06200
H 	H 	0.77040 0.44680 0.21520 0.03400
H 	H 	0.71000 0.44290 0.22440 0.03000
C 	C 	0.71790 0.34300 0.18070 -0.03200
H 	H 	0.67790 0.32210 0.17760 0.01300
H 	H 	0.74350 0.29010 0.19980 0.01800
C 	C 	0.65590 0.69570 0.07920 0.10900
H 	H 	0.62580 0.66160 0.08690 -0.01600
C 	C 	0.64620 0.79790 0.06150 -0.18200
C 	C 	0.68990 0.85150 0.05220 0.09700
H 	H 	0.68420 0.91990 0.03970 0.00600
C 	C 	0.74310 0.80110 0.06180 -0.17100
H 	H 	0.77480 0.83800 0.05790 0.08900
C 	C 	0.75030 0.69880 0.07700 0.08900
H 	H 	0.78620 0.66500 0.08150 -0.00700
C 	C 	0.58580 0.84510 0.05160 0.39300
C 	C 	0.27470 0.90590 0.04460 0.11800
H 	H 	0.30690 0.89650 0.07000 -0.00900
C 	C 	0.28020 0.88130 0.00210 -0.21500
C 	C 	0.23140 0.88970 0.96500 0.14100
H 	H 	0.23260 0.87110 0.93640 -0.01700
C 	C 	0.18080 0.92650 0.97160 -0.18300
H 	H 	0.14710 0.93410 0.94730 0.07600
C 	C 	0.18010 0.95220 0.01460 0.10600
H 	H 	0.14540 0.97780 0.01810 -0.03200
C 	C 	0.33940 0.85290 0.99890 0.45800
C 	C 	0.47900 0.50860 0.73110 -0.04800
H 	H 	0.44290 0.49160 0.73710 0.02700
H 	H 	0.48650 0.45190 0.71230 0.02300
C 	C 	0.50650 0.85790 0.83150 0.12900
H 	H 	0.47570 0.81380 0.83240 -0.02000
C 	C 	0.52630 0.93380 0.86370 -0.21500
C 	C 	0.57470 0.99580 0.86360 0.14700
H 	H 	0.59040 0.04530 0.88640 -0.03200
C 	C 	0.59760 0.98300 0.83030 -0.17700
H 	H 	0.62840 0.02590 0.82890 0.06500
C 	C 	0.57640 0.90500 0.79800 0.10100
H 	H 	0.59420 0.89500 0.77560 -0.01800
C 	C 	0.49840 0.94710 0.90030 0.46200
Pt	Pt	0.21783 0.99248 0.10971 0.38600
Cu	Cu	0.96264 0.30281 0.04298 0.88700
Cu	Cu	0.90020 0.37048 0.92929 0.89000
N 	N 	0.20800 0.03440 0.16970 -0.27300
H 	H 	0.22940 0.09280 0.18080 0.09800
H 	H 	0.17030 0.04880 0.16660 0.09100
N 	N 	0.22670 0.84160 0.13570 -0.26100
H 	H 	0.20030 0.79800 0.11720 0.08300
H 	H 	0.26260 0.81650 0.13810 0.10100
N 	N 	0.20540 0.14460 0.08570 -0.19500
N 	N 	0.72430 0.44290 0.04990 -0.19500
N 	N 	0.97080 0.11240 0.70470 -0.26700
H 	H 	0.93280 0.12220 0.68950 0.10100
H 	H 	0.99130 0.11100 0.68490 0.10500
N 	N 	0.03080 0.34570 0.79840 -0.19000
O 	O 	0.07730 0.43520 0.03260 -0.45800
O 	O 	0.04860 0.28820 0.06190 -0.46300
O 	O 	0.87990 0.33550 0.03310 -0.47500
O 	O 	0.84000 0.34930 0.95790 -0.46400
O 	O 	0.02240 0.50240 0.93280 -0.47200
O 	O 	0.95200 0.39440 0.89370 -0.47200
O 	O 	0.96550 0.35800 0.98480 -0.50900
C 	C 	0.22870 0.94000 0.20080 -0.04300
H 	H 	0.27040 0.94680 0.21520 0.03100
H 	H 	0.21000 0.94290 0.22440 0.02800
C 	C 	0.21790 0.84300 0.18070 -0.04300
H 	H 	0.17790 0.82210 0.17760 0.01700
H 	H 	0.24350 0.79010 0.19980 0.02300
C 	C 	0.15590 0.19570 0.07920 0.11100
H 	H 	0.12580 0.16160 0.08690 -0.02300
C 	C 	0.14620 0.29790 0.06150 -0.19000
C 	C 	0.18990 0.35150 0.05220 0.09900
H 	H 	0.18420 0.41990 0.03970 -0.00100
C 	C 	0.24310 0.30110 0.06180 -0.17600
H 	H 	0.27480 0.33800 0.05790 0.08500
C 	C 	0.25030 0.19880 0.07700 0.08800
H 	H 	0.28620 0.16500 0.08150 -0.01200
C 	C 	0.08580 0.34510 0.05160 0.39500
C 	C 	0.77470 0.40590 0.04460 0.11700
H 	H 	0.80690 0.39650 0.07000 -0.01000
C 	C 	0.78020 0.38130 0.00210 -0.21700
C 	C 	0.73140 0.38970 0.96500 0.14000
H 	H 	0.73260 0.37110 0.93640 -0.01800
C 	C 	0.68080 0.42650 0.97160 -0.18300
H 	H 	0.64710 0.43410 0.94730 0.07500
C 	C 	0.68010 0.45220 0.01460 0.10200
H 	H 	0.64540 0.47780 0.01810 -0.03300
C 	C 	0.83940 0.35290 0.99890 0.45800
C 	C 	0.97900 0.00860 0.73110 0.01300
H 	H 	0.94290 0.99160 0.73710 0.02800
H 	H 	0.98650 0.95190 0.71230 0.02400
C 	C 	0.00650 0.35790 0.83150 0.08100
H 	H 	0.97570 0.31380 0.83240 0.01500
C 	C 	0.02630 0.43380 0.86370 -0.22800
C 	C 	0.07470 0.49580 0.86360 0.13300
H 	H 	0.09040 0.54530 0.88640 -0.01900
C 	C 	0.09760 0.48300 0.83030 -0.20900
H 	H 	0.12840 0.52590 0.82890 0.08600
C 	C 	0.07640 0.40500 0.79800 0.10900
H 	H 	0.09420 0.39500 0.77560 -0.02700
C 	C 	0.99840 0.44710 0.90030 0.49700
Pt	Pt	0.71783 0.50752 0.60971 0.37300
Cu	Cu	0.46264 0.19719 0.54298 0.88300
Cu	Cu	0.40020 0.12952 0.42929 0.88400
N 	N 	0.70800 0.46560 0.66970 -0.26300
H 	H 	0.72940 0.40720 0.68080 0.10000
H 	H 	0.67030 0.45120 0.66660 0.09700
N 	N 	0.72670 0.65840 0.63570 -0.26300
H 	H 	0.70030 0.70200 0.61720 0.08600
H 	H 	0.76260 0.68350 0.63810 0.10300
N 	N 	0.70540 0.35540 0.58570 -0.18800
N 	N 	0.22430 0.05710 0.54990 -0.19500
N 	N 	0.47080 0.38760 0.20470 -0.26500
H 	H 	0.43280 0.37780 0.18950 0.10000
H 	H 	0.49130 0.38900 0.18490 0.09800
N 	N 	0.53080 0.15430 0.29840 -0.19300
O 	O 	0.57730 0.06480 0.53260 -0.45700
O 	O 	0.54860 0.21180 0.56190 -0.44700
O 	O 	0.37990 0.16450 0.53310 -0.45700
O 	O 	0.34000 0.15070 0.45790 -0.46000
O 	O 	0.52240 0.99760 0.43280 -0.41400
O 	O 	0.45200 0.10560 0.39370 -0.46000
O 	O 	0.46550 0.14200 0.48480 -0.53300
C 	C 	0.72870 0.56000 0.70080 -0.06100
H 	H 	0.77040 0.55320 0.71520 0.03400
H 	H 	0.71000 0.55710 0.72440 0.03000
C 	C 	0.71790 0.65700 0.68070 -0.03400
H 	H 	0.67790 0.67790 0.67760 0.01600
H 	H 	0.74350 0.70990 0.69980 0.02200
C 	C 	0.65590 0.30430 0.57920 0.11200
H 	H 	0.62580 0.33840 0.58690 -0.01600
C 	C 	0.64620 0.20210 0.56150 -0.18700
C 	C 	0.68990 0.14850 0.55220 0.10000
H 	H 	0.68420 0.08010 0.53970 -0.00400
C 	C 	0.74310 0.19890 0.56180 -0.17400
H 	H 	0.77480 0.16200 0.55790 0.08400
C 	C 	0.75030 0.30120 0.57700 0.09000
H 	H 	0.78620 0.33500 0.58150 -0.00700
C 	C 	0.58580 0.15490 0.55160 0.39600
C 	C 	0.27470 0.09410 0.54460 0.09900
H 	H 	0.30690 0.10350 0.57000 -0.00600
C 	C 	0.28020 0.11870 0.50210 -0.17700
C 	C 	0.23140 0.11030 0.46500 0.10700
H 	H 	0.23260 0.12890 0.43640 -0.01100
C 	C 	0.18080 0.07350 0.47160 -0.19200
H 	H 	0.14710 0.06590 0.44730 0.07000
C 	C 	0.18010 0.04780 0.51460 0.11500
H 	H 	0.14540 0.02220 0.51810 -0.04100
C 	C 	0.33940 0.14710 0.49890 0.41700
C 	C 	0.47900 0.49140 0.23110 -0.04900
H 	H 	0.44290 0.50840 0.23710 0.02800
H 	H 	0.48650 0.54810 0.21230 0.02500
C 	C 	0.50650 0.14210 0.33150 0.11300
H 	H 	0.47570 0.18620 0.33240 -0.01600
C 	C 	0.52630 0.06620 0.36370 -0.18700
C 	C 	0.57470 0.00420 0.36360 0.09000
H 	H 	0.59040 0.95470 0.38640 0.00900
C 	C 	0.59760 0.01700 0.33030 -0.22200
H 	H 	0.62840 0.97410 0.32890 0.10400
C 	C 	0.57640 0.09500 0.29800 0.11700
H 	H 	0.59420 0.10500 0.27560 -0.03000
C 	C 	0.49840 0.05290 0.40030 0.40300
Pt	Pt	0.21783 0.00752 0.60971 0.35800
Cu	Cu	0.96264 0.69719 0.54298 0.89200
Cu	Cu	0.90020 0.62952 0.42929 0.88900
N 	N 	0.20800 0.96560 0.66970 -0.25200
H 	H 	0.22940 0.90720 0.68080 0.10200
H 	H 	0.17030 0.95120 0.66660 0.09900
N 	N 	0.22670 0.15840 0.63570 -0.26500
H 	H 	0.20030 0.20200 0.61720 0.08400
H 	H 	0.26260 0.18350 0.63810 0.10100
N 	N 	0.20540 0.85540 0.58570 -0.18300
N 	N 	0.72430 0.55710 0.54990 -0.19400
N 	N 	0.97080 0.88760 0.20470 -0.28000
H 	H 	0.93280 0.87780 0.18950 0.11100
H 	H 	0.99130 0.88900 0.18490 0.11500
N 	N 	0.03080 0.65430 0.29840 -0.19000
O 	O 	0.07730 0.56480 0.53260 -0.45400
O 	O 	0.04860 0.71180 0.56190 -0.45800
O 	O 	0.87990 0.66450 0.53310 -0.45400
O 	O 	0.84000 0.65070 0.45790 -0.45600
O 	O 	0.02240 0.49760 0.43280 -0.47600
O 	O 	0.95200 0.60560 0.39370 -0.47200
O 	O 	0.96550 0.64200 0.48480 -0.51600
C 	C 	0.22870 0.06000 0.70080 -0.08000
H 	H 	0.27040 0.05320 0.71520 0.03300
H 	H 	0.21000 0.05710 0.72440 0.02900
C 	C 	0.21790 0.15700 0.68070 -0.02200
H 	H 	0.17790 0.17790 0.67760 0.00800
H 	H 	0.24350 0.20990 0.69980 0.01500
C 	C 	0.15590 0.80430 0.57920 0.11100
H 	H 	0.12580 0.83840 0.58690 -0.01500
C 	C 	0.14620 0.70210 0.56150 -0.18500
C 	C 	0.18990 0.64850 0.55220 0.09900
H 	H 	0.18420 0.58010 0.53970 0.00200
C 	C 	0.24310 0.69890 0.56180 -0.17100
H 	H 	0.27480 0.66200 0.55790 0.08700
C 	C 	0.25030 0.80120 0.57700 0.09000
H 	H 	0.28620 0.83500 0.58150 -0.00400
C 	C 	0.08580 0.65490 0.55160 0.39500
C 	C 	0.77470 0.59410 0.54460 0.10200
H 	H 	0.80690 0.60350 0.57000 -0.00400
C 	C 	0.78020 0.61870 0.50210 -0.17500
C 	C 	0.73140 0.61030 0.46500 0.10900
H 	H 	0.73260 0.62890 0.43640 -0.00800
C 	C 	0.68080 0.57350 0.47160 -0.19000
H 	H 	0.64710 0.56590 0.44730 0.07500
C 	C 	0.68010 0.54780 0.51460 0.11700
H 	H 	0.64540 0.52220 0.51810 -0.03500
C 	C 	0.83940 0.64710 0.49890 0.41700
C 	C 	0.97900 0.99140 0.23110 0.10300
H 	H 	0.94290 0.00840 0.23710 -0.02400
H 	H 	0.98650 0.04810 0.21230 -0.02200
C 	C 	0.00650 0.64210 0.33150 0.08100
H 	H 	0.97570 0.68620 0.33240 0.01600
C 	C 	0.02630 0.56620 0.36370 -0.22900
C 	C 	0.07470 0.50420 0.36360 0.13300
H 	H 	0.09040 0.45470 0.38640 -0.01900
C 	C 	0.09760 0.51700 0.33030 -0.20900
H 	H 	0.12840 0.47410 0.32890 0.08600
C 	C 	0.07640 0.59500 0.29800 0.11000
H 	H 	0.09420 0.60500 0.27560 -0.02700
C 	C 	0.99840 0.55290 0.40030 0.49900
Pt	Pt	0.28217 0.50752 0.89029 0.37400
Cu	Cu	0.53736 0.19719 0.95702 0.88600
Cu	Cu	0.59980 0.12952 0.07071 0.88300
N 	N 	0.29200 0.46560 0.83030 -0.26300
H 	H 	0.27060 0.40720 0.81920 0.10000
H 	H 	0.32970 0.45120 0.83340 0.09700
N 	N 	0.27330 0.65840 0.86430 -0.26300
H 	H 	0.29970 0.70200 0.88280 0.08600
H 	H 	0.23740 0.68350 0.86190 0.10100
N 	N 	0.29460 0.35540 0.91430 -0.18800
N 	N 	0.77570 0.05710 0.95010 -0.19300
N 	N 	0.52920 0.38760 0.29530 -0.26500
H 	H 	0.56720 0.37780 0.31050 0.10100
H 	H 	0.50870 0.38900 0.31510 0.09900
N 	N 	0.46920 0.15430 0.20160 -0.19300
O 	O 	0.42270 0.06480 0.96740 -0.45200
O 	O 	0.45140 0.21180 0.93810 -0.44500
O 	O 	0.62010 0.16450 0.96690 -0.43600
O 	O 	0.66000 0.15070 0.04210 -0.45200
O 	O 	0.47760 0.99760 0.06720 -0.41600
O 	O 	0.54800 0.10560 0.10630 -0.46000
O 	O 	0.53450 0.14200 0.01520 -0.54000
C 	C 	0.27130 0.56000 0.79920 -0.05900
H 	H 	0.22960 0.55320 0.78480 0.03100
H 	H 	0.29000 0.55710 0.77560 0.02900
C 	C 	0.28210 0.65700 0.81930 -0.03500
H 	H 	0.32210 0.67790 0.82240 0.01600
H 	H 	0.25650 0.70990 0.80020 0.02000
C 	C 	0.34410 0.30430 0.92080 0.11200
H 	H 	0.37420 0.33840 0.91310 -0.01600
C 	C 	0.35380 0.20210 0.93850 -0.18500
C 	C 	0.31010 0.14850 0.94780 0.09900
H 	H 	0.31580 0.08010 0.96030 -0.00100
C 	C 	0.25690 0.19890 0.93820 -0.17200
H 	H 	0.22520 0.16200 0.94210 0.08500
C 	C 	0.24970 0.30120 0.92300 0.09000
H 	H 	0.21380 0.33500 0.91850 -0.00700
C 	C 	0.41420 0.15490 0.94840 0.39600
C 	C 	0.72530 0.09410 0.95540 0.08500
H 	H 	0.69310 0.10350 0.93000 0.00000
C 	C 	0.71980 0.11870 0.99790 -0.13300
C 	C 	0.76860 0.11030 0.03500 0.07700
H 	H 	0.76740 0.12890 0.06360 -0.00000
C 	C 	0.81920 0.07350 0.02840 -0.19800
H 	H 	0.85290 0.06590 0.05270 0.07400
C 	C 	0.81990 0.04780 0.98540 0.13000
H 	H 	0.85460 0.02220 0.98190 -0.03700
C 	C 	0.66060 0.14710 0.00110 0.37500
C 	C 	0.52100 0.49140 0.26890 -0.04900
H 	H 	0.55710 0.50840 0.26290 0.02800
H 	H 	0.51350 0.54810 0.28770 0.02600
C 	C 	0.49350 0.14210 0.16850 0.11200
H 	H 	0.52430 0.18620 0.16760 -0.01600
C 	C 	0.47370 0.06620 0.13630 -0.18700
C 	C 	0.42530 0.00420 0.13640 0.08900
H 	H 	0.40960 0.95470 0.11360 0.00900
C 	C 	0.40240 0.01700 0.16970 -0.22200
H 	H 	0.37160 0.97410 0.17110 0.10400
C 	C 	0.42360 0.09500 0.20200 0.11600
H 	H 	0.40580 0.10500 0.22440 -0.03000
C 	C 	0.50160 0.05290 0.09970 0.40300
Pt	Pt	0.78217 0.00752 0.89029 0.36100
Cu	Cu	0.03736 0.69719 0.95702 0.88000
Cu	Cu	0.09980 0.62952 0.07071 0.88400
N 	N 	0.79200 0.96560 0.83030 -0.25400
H 	H 	0.77060 0.90720 0.81920 0.10400
H 	H 	0.82970 0.95120 0.83340 0.10500
N 	N 	0.77330 0.15840 0.86430 -0.26400
H 	H 	0.79970 0.20200 0.88280 0.08600
H 	H 	0.73740 0.18350 0.86190 0.10100
N 	N 	0.79460 0.85540 0.91430 -0.18100
N 	N 	0.27570 0.55710 0.95010 -0.19300
N 	N 	0.02920 0.88760 0.29530 -0.25700
H 	H 	0.06720 0.87780 0.31050 0.10200
H 	H 	0.00870 0.88900 0.31510 0.09400
N 	N 	0.96920 0.65430 0.20160 -0.18900
O 	O 	0.92270 0.56480 0.96740 -0.43500
O 	O 	0.95140 0.71180 0.93810 -0.42600
O 	O 	0.12010 0.66450 0.96690 -0.43700
O 	O 	0.16000 0.65070 0.04210 -0.45000
O 	O 	0.97760 0.49760 0.06720 -0.40000
O 	O 	0.04800 0.60560 0.10630 -0.45400
O 	O 	0.03450 0.64200 0.01520 -0.54500
C 	C 	0.77130 0.06000 0.79920 -0.07700
H 	H 	0.72960 0.05320 0.78480 0.03200
H 	H 	0.79000 0.05710 0.77560 0.03100
C 	C 	0.78210 0.15700 0.81930 -0.02500
H 	H 	0.82210 0.17790 0.82240 0.01300
H 	H 	0.75650 0.20990 0.80020 0.01600
C 	C 	0.84410 0.80430 0.92080 0.11000
H 	H 	0.87420 0.83840 0.91310 -0.00800
C 	C 	0.85380 0.70210 0.93850 -0.17700
C 	C 	0.81010 0.64850 0.94780 0.09700
H 	H 	0.81580 0.58010 0.96030 0.00500
C 	C 	0.75690 0.69890 0.93820 -0.16700
H 	H 	0.72520 0.66200 0.94210 0.08800
C 	C 	0.74970 0.80120 0.92300 0.09000
H 	H 	0.71380 0.83500 0.91850 -0.00200
C 	C 	0.91420 0.65490 0.94840 0.39300
C 	C 	0.22530 0.59410 0.95540 0.08800
H 	H 	0.19310 0.60350 0.93000 0.00100
C 	C 	0.21980 0.61870 0.99790 -0.13400
C 	C 	0.26860 0.61030 0.03500 0.08000
H 	H 	0.26740 0.62890 0.06360 0.00100
C 	C 	0.31920 0.57350 0.02840 -0.19700
H 	H 	0.35290 0.56590 0.05270 0.07500
C 	C 	0.31990 0.54780 0.98540 0.13200
H 	H 	0.35460 0.52220 0.98190 -0.03600
C 	C 	0.16060 0.64710 0.00110 0.37900
C 	C 	0.02100 0.99140 0.26890 -0.10900
H 	H 	0.05710 0.00840 0.26290 0.02700
H 	H 	0.01350 0.04810 0.28770 0.02500
C 	C 	0.99350 0.64210 0.16850 0.16100
H 	H 	0.02430 0.68620 0.16760 -0.04900
C 	C 	0.97370 0.56620 0.13630 -0.17400
C 	C 	0.92530 0.50420 0.13640 0.10400
H 	H 	0.90960 0.45470 0.11360 -0.00400
C 	C 	0.90240 0.51700 0.16970 -0.18800
H 	H 	0.87160 0.47410 0.17110 0.08100
C 	C 	0.92360 0.59500 0.20200 0.10600
H 	H 	0.90580 0.60500 0.22440 -0.01700
C 	C 	0.00160 0.55290 0.09970 0.37000
Pt	Pt	0.50000 0.73117 0.75000 0.37500
Pt	Pt	0.00000 0.23117 0.75000 0.34800
Pt	Pt	0.50000 0.26883 0.25000 0.37300
Pt	Pt	-0.00000 0.76883 0.25000 0.35000
Cu	Cu	0.50000 -0.00000 0.50000 0.92100
Cu	Cu	-0.00000 0.50000 0.50000 0.91700
Cu	Cu	0.50000 0.00000 -0.00000 0.91500
Cu	Cu	-0.00000 0.50000 -0.00000 0.91100
