data_crystal

_cell_length_a 27.74200
_cell_length_b 13.87190
_cell_length_c 44.52200
_cell_angle_alpha 90.00000
_cell_angle_beta  90.00000
_cell_angle_gamma 90.00000

_symmetry_space_group_name_	'P 1'
_symmetry_space_group_name_H-M	'P 1'

loop_
_symmetry_equiv_pos_as_xyz
  x,y,z

loop_
_atom_site_label
_atom_site_type_symbol
_atom_site_fract_x
_atom_site_fract_y
_atom_site_fract_z
_atom_site_charge
Zn	Zn	0.52440 0.88176 0.58515 1.16300
Zn	Zn	0.54604 0.64231 0.41230 1.16300
Zn	Zn	0.26057 0.18140 0.81989 1.16400
I 	I 	0.50673 0.80430 0.53406 -0.39300
I 	I 	0.57321 0.79744 0.62516 -0.37200
I 	I 	0.48084 0.55568 0.38298 -0.36500
I 	I 	0.55651 0.82418 0.41514 -0.38500
I 	I 	0.17167 0.17832 0.83433 -0.37400
I 	I 	0.30272 0.34292 0.81252 -0.37300
C 	C 	0.54949 0.05730 0.54983 0.07700
H 	H 	0.53500 0.02170 0.53400 -0.00900
C 	C 	0.56437 0.15030 0.54406 -0.13200
H 	H 	0.56060 0.17780 0.52470 0.09200
C 	C 	0.57504 0.06620 0.59874 0.07400
H 	H 	0.57900 0.03660 0.61780 -0.00700
C 	C 	0.59063 0.15960 0.59508 -0.13300
H 	H 	0.60490 0.19360 0.61130 0.09900
C 	C 	0.58512 0.20300 0.56741 0.05500
C 	C 	0.59890 0.30570 0.56270 0.08800
C 	C 	0.69950 0.50480 0.65009 0.07500
H 	H 	0.71330 0.47240 0.66680 -0.01300
C 	C 	0.67720 0.45060 0.62825 -0.12300
H 	H 	0.67540 0.38240 0.63000 0.08400
C 	C 	0.68320 0.64490 0.62542 0.07700
H 	H 	0.68480 0.71320 0.62440 -0.01300
C 	C 	0.66040 0.59620 0.60231 -0.11700
H 	H 	0.64710 0.63040 0.58580 0.08100
C 	C 	0.65754 0.49680 0.60376 0.06500
C 	C 	0.63244 0.44230 0.57966 0.10300
C 	C 	0.57100 0.63400 0.47768 0.06400
H 	H 	0.57600 0.70130 0.47540 -0.00300
C 	C 	0.58430 0.59060 0.50453 -0.11100
H 	H 	0.59810 0.62780 0.52030 0.07700
C 	C 	0.54244 0.48980 0.45889 0.06400
H 	H 	0.52690 0.45510 0.44320 -0.01200
C 	C 	0.55489 0.44130 0.48485 -0.11800
H 	H 	0.54850 0.37440 0.48690 0.09000
C 	C 	0.57704 0.49270 0.50808 0.05100
C 	C 	0.59312 0.44140 0.53565 0.09800
C 	C 	0.11239 0.93660 0.63372 0.05600
H 	H 	0.08300 0.94610 0.64420 -0.00800
C 	C 	0.15513 0.95470 0.64838 -0.11300
H 	H 	0.15510 0.97500 0.66870 0.07900
C 	C 	0.15249 0.89590 0.59018 0.06800
H 	H 	0.15150 0.87530 0.56980 -0.01300
C 	C 	0.19698 0.91400 0.60311 -0.11700
H 	H 	0.22590 0.90710 0.59190 0.07800
C 	C 	0.19809 0.94270 0.63309 0.05000
C 	C 	0.24456 0.95770 0.64892 0.10400
C 	C 	0.41766 0.90610 0.59070 0.07000
H 	H 	0.41820 0.88810 0.57010 -0.00900
C 	C 	0.37313 0.92140 0.60446 -0.11000
H 	H 	0.34400 0.91400 0.59350 0.07900
C 	C 	0.45825 0.94280 0.63419 0.06800
H 	H 	0.48790 0.95080 0.64460 -0.00800
C 	C 	0.41572 0.95940 0.64960 -0.11000
H 	H 	0.41620 0.97860 0.67010 0.07900
C 	C 	0.37222 0.94750 0.63457 0.05200
C 	C 	0.32571 0.96010 0.65006 0.10100
C 	C 	0.31320 0.10550 0.76672 0.06700
H 	H 	0.34020 0.13190 0.77690 -0.01000
C 	C 	0.31948 0.06890 0.73839 -0.11800
H 	H 	0.35040 0.06910 0.72930 0.08000
C 	C 	0.23269 0.06680 0.76665 0.06000
H 	H 	0.20260 0.06430 0.77680 0.00100
C 	C 	0.23582 0.02960 0.73758 -0.11000
H 	H 	0.20820 0.00360 0.72790 0.08000
C 	C 	0.28007 0.03160 0.72324 0.05100
C 	C 	0.28329 0.99810 0.69165 0.10200
N 	N 	0.55450 0.01490 0.57657 -0.27400
N 	N 	0.70279 0.60160 0.64890 -0.27700
N 	N 	0.55151 0.58470 0.45488 -0.27000
N 	N 	0.62529 0.34820 0.58407 -0.13400
N 	N 	0.61780 0.49270 0.55574 -0.13900
N 	N 	0.58172 0.34840 0.53809 -0.14400
N 	N 	0.11071 0.90600 0.60502 -0.27000
N 	N 	0.45943 0.91590 0.60519 -0.26800
N 	N 	0.27037 0.10560 0.78072 -0.27200
N 	N 	0.28566 0.94500 0.63402 -0.13900
N 	N 	0.32709 0.98700 0.67923 -0.13800
N 	N 	0.24137 0.98370 0.67777 -0.14000
Zn	Zn	0.97560 0.11824 0.08515 1.16400
Zn	Zn	0.95396 0.35769 0.91230 1.16400
Zn	Zn	0.23943 0.81860 0.31989 1.16500
I 	I 	0.99327 0.19570 0.03406 -0.39300
I 	I 	0.92679 0.20256 0.12516 -0.37200
I 	I 	0.01916 0.44432 0.88298 -0.36300
I 	I 	0.94349 0.17582 0.91514 -0.38400
I 	I 	0.32833 0.82168 0.33433 -0.37300
I 	I 	0.19728 0.65708 0.31252 -0.37200
C 	C 	0.95051 0.94270 0.04983 0.07800
H 	H 	0.96500 0.97830 0.03400 -0.00800
C 	C 	0.93563 0.84970 0.04406 -0.13100
H 	H 	0.93940 0.82220 0.02470 0.09300
C 	C 	0.92496 0.93380 0.09874 0.07500
H 	H 	0.92100 0.96340 0.11780 -0.00600
C 	C 	0.90937 0.84040 0.09508 -0.13200
H 	H 	0.89510 0.80640 0.11130 0.09900
C 	C 	0.91488 0.79700 0.06741 0.05500
C 	C 	0.90110 0.69430 0.06270 0.08800
C 	C 	0.80050 0.49520 0.15009 0.07500
H 	H 	0.78670 0.52760 0.16680 -0.01300
C 	C 	0.82280 0.54940 0.12825 -0.12300
H 	H 	0.82460 0.61760 0.13000 0.08400
C 	C 	0.81680 0.35510 0.12542 0.07700
H 	H 	0.81520 0.28680 0.12440 -0.01300
C 	C 	0.83960 0.40380 0.10231 -0.11700
H 	H 	0.85290 0.36960 0.08580 0.08100
C 	C 	0.84246 0.50320 0.10376 0.06500
C 	C 	0.86756 0.55770 0.07966 0.10300
C 	C 	0.92900 0.36600 0.97768 0.06400
H 	H 	0.92400 0.29870 0.97540 -0.00300
C 	C 	0.91570 0.40940 0.00453 -0.11100
H 	H 	0.90190 0.37220 0.02030 0.07700
C 	C 	0.95756 0.51020 0.95889 0.06400
H 	H 	0.97310 0.54490 0.94320 -0.01200
C 	C 	0.94511 0.55870 0.98485 -0.11800
H 	H 	0.95150 0.62560 0.98690 0.09000
C 	C 	0.92296 0.50730 0.00808 0.05100
C 	C 	0.90688 0.55860 0.03565 0.09800
C 	C 	0.38761 0.06340 0.13372 0.05700
H 	H 	0.41700 0.05390 0.14420 -0.00800
C 	C 	0.34487 0.04530 0.14838 -0.11300
H 	H 	0.34490 0.02500 0.16870 0.07900
C 	C 	0.34751 0.10410 0.09018 0.06800
H 	H 	0.34850 0.12470 0.06980 -0.01300
C 	C 	0.30302 0.08600 0.10311 -0.11700
H 	H 	0.27410 0.09290 0.09190 0.07800
C 	C 	0.30191 0.05730 0.13309 0.05000
C 	C 	0.25544 0.04230 0.14892 0.10400
C 	C 	0.08234 0.09390 0.09070 0.07000
H 	H 	0.08180 0.11190 0.07010 -0.00900
C 	C 	0.12687 0.07860 0.10446 -0.11000
H 	H 	0.15600 0.08600 0.09350 0.07900
C 	C 	0.04175 0.05720 0.13419 0.06800
H 	H 	0.01210 0.04920 0.14460 -0.00800
C 	C 	0.08428 0.04060 0.14960 -0.11000
H 	H 	0.08380 0.02140 0.17010 0.08000
C 	C 	0.12778 0.05250 0.13457 0.05200
C 	C 	0.17429 0.03990 0.15006 0.10100
C 	C 	0.18680 0.89450 0.26672 0.06700
H 	H 	0.15980 0.86810 0.27690 -0.01000
C 	C 	0.18052 0.93110 0.23839 -0.11700
H 	H 	0.14960 0.93090 0.22930 0.08000
C 	C 	0.26731 0.93320 0.26665 0.05900
H 	H 	0.29740 0.93570 0.27680 0.00100
C 	C 	0.26418 0.97040 0.23758 -0.11000
H 	H 	0.29180 0.99640 0.22790 0.08000
C 	C 	0.21993 0.96840 0.22324 0.05000
C 	C 	0.21671 0.00190 0.19165 0.10300
N 	N 	0.94550 0.98510 0.07657 -0.27300
N 	N 	0.79721 0.39840 0.14890 -0.27700
N 	N 	0.94849 0.41530 0.95488 -0.27000
N 	N 	0.87471 0.65180 0.08407 -0.13400
N 	N 	0.88220 0.50730 0.05574 -0.13900
N 	N 	0.91828 0.65160 0.03809 -0.14400
N 	N 	0.38929 0.09400 0.10502 -0.27000
N 	N 	0.04057 0.08410 0.10519 -0.26700
N 	N 	0.22963 0.89440 0.28072 -0.27200
N 	N 	0.21434 0.05500 0.13402 -0.13900
N 	N 	0.17291 0.01300 0.17923 -0.13800
N 	N 	0.25863 0.01630 0.17777 -0.14000
Zn	Zn	0.47560 0.38176 0.91485 1.16400
Zn	Zn	0.45396 0.14231 0.08770 1.16400
Zn	Zn	0.73943 0.68140 0.68011 1.16500
I 	I 	0.49327 0.30430 0.96594 -0.39200
I 	I 	0.42679 0.29744 0.87484 -0.37100
I 	I 	0.51916 0.05568 0.11702 -0.36400
I 	I 	0.44349 0.32418 0.08486 -0.38400
I 	I 	0.82833 0.67832 0.66567 -0.37300
I 	I 	0.69728 0.84292 0.68748 -0.37200
C 	C 	0.45051 0.55730 0.95017 0.07800
H 	H 	0.46500 0.52170 0.96600 -0.00800
C 	C 	0.43563 0.65030 0.95594 -0.13100
H 	H 	0.43940 0.67780 0.97530 0.09300
C 	C 	0.42496 0.56620 0.90126 0.07500
H 	H 	0.42100 0.53660 0.88220 -0.00600
C 	C 	0.40937 0.65960 0.90492 -0.13200
H 	H 	0.39510 0.69360 0.88870 0.09900
C 	C 	0.41488 0.70300 0.93259 0.05500
C 	C 	0.40110 0.80570 0.93730 0.08800
C 	C 	0.30050 0.00480 0.84991 0.07700
H 	H 	0.28670 0.97240 0.83320 -0.01400
C 	C 	0.32280 0.95060 0.87175 -0.12400
H 	H 	0.32460 0.88240 0.87000 0.08400
C 	C 	0.31680 0.14490 0.87458 0.07700
H 	H 	0.31520 0.21320 0.87560 -0.01300
C 	C 	0.33960 0.09620 0.89769 -0.11700
H 	H 	0.35290 0.13040 0.91420 0.08100
C 	C 	0.34246 0.99680 0.89624 0.06400
C 	C 	0.36756 0.94230 0.92034 0.10300
C 	C 	0.42900 0.13400 0.02232 0.06400
H 	H 	0.42400 0.20130 0.02460 -0.00300
C 	C 	0.41570 0.09060 0.99547 -0.11100
H 	H 	0.40190 0.12780 0.97970 0.07700
C 	C 	0.45756 0.98980 0.04111 0.06400
H 	H 	0.47310 0.95510 0.05680 -0.01200
C 	C 	0.44511 0.94130 0.01515 -0.11800
H 	H 	0.45150 0.87440 0.01310 0.09000
C 	C 	0.42296 0.99270 0.99192 0.05000
C 	C 	0.40688 0.94140 0.96435 0.09800
C 	C 	0.88761 0.43660 0.86628 0.05600
H 	H 	0.91700 0.44610 0.85580 -0.00800
C 	C 	0.84487 0.45470 0.85162 -0.11300
H 	H 	0.84490 0.47500 0.83130 0.07900
C 	C 	0.84751 0.39590 0.90982 0.06800
H 	H 	0.84850 0.37530 0.93020 -0.01300
C 	C 	0.80302 0.41400 0.89689 -0.11700
H 	H 	0.77410 0.40710 0.90810 0.07800
C 	C 	0.80191 0.44270 0.86691 0.05000
C 	C 	0.75544 0.45770 0.85108 0.10400
C 	C 	0.58234 0.40610 0.90930 0.07000
H 	H 	0.58180 0.38810 0.92990 -0.00900
C 	C 	0.62687 0.42140 0.89554 -0.11000
H 	H 	0.65600 0.41400 0.90650 0.07900
C 	C 	0.54175 0.44280 0.86581 0.06800
H 	H 	0.51210 0.45080 0.85540 -0.00800
C 	C 	0.58428 0.45940 0.85040 -0.11000
H 	H 	0.58380 0.47860 0.82990 0.07900
C 	C 	0.62778 0.44750 0.86543 0.05200
C 	C 	0.67429 0.46010 0.84994 0.10100
C 	C 	0.68680 0.60550 0.73328 0.06700
H 	H 	0.65980 0.63190 0.72310 -0.01000
C 	C 	0.68052 0.56890 0.76161 -0.11700
H 	H 	0.64960 0.56910 0.77070 0.08000
C 	C 	0.76731 0.56680 0.73335 0.05900
H 	H 	0.79740 0.56430 0.72320 0.00100
C 	C 	0.76418 0.52960 0.76242 -0.11000
H 	H 	0.79180 0.50360 0.77210 0.08000
C 	C 	0.71993 0.53160 0.77676 0.05000
C 	C 	0.71671 0.49810 0.80835 0.10200
N 	N 	0.44550 0.51490 0.92343 -0.27400
N 	N 	0.29721 0.10160 0.85110 -0.27700
N 	N 	0.44849 0.08470 0.04512 -0.27000
N 	N 	0.37471 0.84820 0.91593 -0.13400
N 	N 	0.38220 0.99270 0.94426 -0.13900
N 	N 	0.41828 0.84840 0.96191 -0.14400
N 	N 	0.88929 0.40600 0.89498 -0.27000
N 	N 	0.54057 0.41590 0.89481 -0.26800
N 	N 	0.72963 0.60560 0.71928 -0.27200
N 	N 	0.71434 0.44500 0.86598 -0.13900
N 	N 	0.67291 0.48700 0.82077 -0.13800
N 	N 	0.75863 0.48370 0.82223 -0.14000
Zn	Zn	0.02440 0.61824 0.41485 1.16400
Zn	Zn	0.04604 0.85769 0.58770 1.16400
Zn	Zn	0.76057 0.31860 0.18011 1.16500
I 	I 	0.00673 0.69570 0.46594 -0.39200
I 	I 	0.07321 0.70256 0.37484 -0.37100
I 	I 	0.98084 0.94432 0.61702 -0.36300
I 	I 	0.05651 0.67582 0.58486 -0.38400
I 	I 	0.67167 0.32168 0.16567 -0.37300
I 	I 	0.80272 0.15708 0.18748 -0.37200
C 	C 	0.04949 0.44270 0.45017 0.07800
H 	H 	0.03500 0.47830 0.46600 -0.00800
C 	C 	0.06437 0.34970 0.45594 -0.13100
H 	H 	0.06060 0.32220 0.47530 0.09300
C 	C 	0.07504 0.43380 0.40126 0.07500
H 	H 	0.07900 0.46340 0.38220 -0.00600
C 	C 	0.09063 0.34040 0.40492 -0.13200
H 	H 	0.10490 0.30640 0.38870 0.09900
C 	C 	0.08512 0.29700 0.43259 0.05500
C 	C 	0.09890 0.19430 0.43730 0.08800
C 	C 	0.19950 0.99520 0.34991 0.07400
H 	H 	0.21330 0.02760 0.33320 -0.01200
C 	C 	0.17720 0.04940 0.37175 -0.12200
H 	H 	0.17540 0.11760 0.37000 0.08400
C 	C 	0.18320 0.85510 0.37458 0.07700
H 	H 	0.18480 0.78680 0.37560 -0.01300
C 	C 	0.16040 0.90380 0.39769 -0.11800
H 	H 	0.14710 0.86960 0.41420 0.08100
C 	C 	0.15754 0.00320 0.39624 0.06500
C 	C 	0.13244 0.05770 0.42034 0.10300
C 	C 	0.07100 0.86600 0.52232 0.06500
H 	H 	0.07600 0.79870 0.52460 -0.00300
C 	C 	0.08430 0.90940 0.49547 -0.11300
H 	H 	0.09810 0.87220 0.47970 0.07800
C 	C 	0.04244 0.01020 0.54111 0.06500
H 	H 	0.02690 0.04490 0.55680 -0.01200
C 	C 	0.05489 0.05870 0.51515 -0.11900
H 	H 	0.04850 0.12560 0.51310 0.09100
C 	C 	0.07704 0.00730 0.49192 0.05200
C 	C 	0.09312 0.05860 0.46435 0.09800
C 	C 	0.61239 0.56340 0.36628 0.05700
H 	H 	0.58300 0.55390 0.35580 -0.00800
C 	C 	0.65513 0.54530 0.35162 -0.11300
H 	H 	0.65510 0.52500 0.33130 0.07900
C 	C 	0.65249 0.60410 0.40982 0.06800
H 	H 	0.65150 0.62470 0.43020 -0.01300
C 	C 	0.69698 0.58600 0.39689 -0.11700
H 	H 	0.72590 0.59290 0.40810 0.07800
C 	C 	0.69809 0.55730 0.36691 0.05000
C 	C 	0.74456 0.54230 0.35108 0.10400
C 	C 	0.91766 0.59390 0.40930 0.07000
H 	H 	0.91820 0.61190 0.42990 -0.00900
C 	C 	0.87313 0.57860 0.39554 -0.11000
H 	H 	0.84400 0.58600 0.40650 0.07900
C 	C 	0.95825 0.55720 0.36581 0.06800
H 	H 	0.98790 0.54920 0.35540 -0.00800
C 	C 	0.91572 0.54060 0.35040 -0.11000
H 	H 	0.91620 0.52140 0.32990 0.07900
C 	C 	0.87222 0.55250 0.36543 0.05200
C 	C 	0.82571 0.53990 0.34994 0.10100
C 	C 	0.81320 0.39450 0.23328 0.06700
H 	H 	0.84020 0.36810 0.22310 -0.01000
C 	C 	0.81948 0.43110 0.26161 -0.11700
H 	H 	0.85040 0.43090 0.27070 0.08000
C 	C 	0.73269 0.43320 0.23335 0.05900
H 	H 	0.70260 0.43570 0.22320 0.00100
C 	C 	0.73582 0.47040 0.26242 -0.11000
H 	H 	0.70820 0.49640 0.27210 0.08000
C 	C 	0.78007 0.46840 0.27676 0.05000
C 	C 	0.78329 0.50190 0.30835 0.10200
N 	N 	0.05450 0.48510 0.42343 -0.27400
N 	N 	0.20279 0.89840 0.35110 -0.27600
N 	N 	0.05151 0.91530 0.54512 -0.27100
N 	N 	0.12529 0.15180 0.41593 -0.13400
N 	N 	0.11780 0.00730 0.44426 -0.13900
N 	N 	0.08172 0.15160 0.46191 -0.14400
N 	N 	0.61071 0.59400 0.39498 -0.27000
N 	N 	0.95943 0.58410 0.39481 -0.26700
N 	N 	0.77037 0.39440 0.21928 -0.27200
N 	N 	0.78566 0.55500 0.36598 -0.13900
N 	N 	0.82709 0.51300 0.32077 -0.13800
N 	N 	0.74137 0.51630 0.32223 -0.14000
Zn	Zn	0.47560 0.11824 0.41485 1.16400
Zn	Zn	0.45396 0.35769 0.58770 1.16400
Zn	Zn	0.73943 0.81860 0.18011 1.16500
I 	I 	0.49327 0.19570 0.46594 -0.39200
I 	I 	0.42679 0.20256 0.37484 -0.37100
I 	I 	0.51916 0.44432 0.61702 -0.36400
I 	I 	0.44349 0.17582 0.58486 -0.38400
I 	I 	0.82833 0.82168 0.16567 -0.37300
I 	I 	0.69728 0.65708 0.18748 -0.37200
C 	C 	0.45051 0.94270 0.45017 0.07800
H 	H 	0.46500 0.97830 0.46600 -0.00800
C 	C 	0.43563 0.84970 0.45594 -0.13100
H 	H 	0.43940 0.82220 0.47530 0.09300
C 	C 	0.42496 0.93380 0.40126 0.07500
H 	H 	0.42100 0.96340 0.38220 -0.00600
C 	C 	0.40937 0.84040 0.40492 -0.13200
H 	H 	0.39510 0.80640 0.38870 0.09900
C 	C 	0.41488 0.79700 0.43259 0.05500
C 	C 	0.40110 0.69430 0.43730 0.08800
C 	C 	0.30050 0.49520 0.34991 0.07500
H 	H 	0.28670 0.52760 0.33320 -0.01300
C 	C 	0.32280 0.54940 0.37175 -0.12300
H 	H 	0.32460 0.61760 0.37000 0.08400
C 	C 	0.31680 0.35510 0.37458 0.07700
H 	H 	0.31520 0.28680 0.37560 -0.01300
C 	C 	0.33960 0.40380 0.39769 -0.11700
H 	H 	0.35290 0.36960 0.41420 0.08100
C 	C 	0.34246 0.50320 0.39624 0.06500
C 	C 	0.36756 0.55770 0.42034 0.10300
C 	C 	0.42900 0.36600 0.52232 0.06400
H 	H 	0.42400 0.29870 0.52460 -0.00300
C 	C 	0.41570 0.40940 0.49547 -0.11100
H 	H 	0.40190 0.37220 0.47970 0.07700
C 	C 	0.45756 0.51020 0.54111 0.06400
H 	H 	0.47310 0.54490 0.55680 -0.01200
C 	C 	0.44511 0.55870 0.51515 -0.11800
H 	H 	0.45150 0.62560 0.51310 0.09000
C 	C 	0.42296 0.50730 0.49192 0.05100
C 	C 	0.40688 0.55860 0.46435 0.09800
C 	C 	0.88761 0.06340 0.36628 0.05600
H 	H 	0.91700 0.05390 0.35580 -0.00800
C 	C 	0.84487 0.04530 0.35162 -0.11300
H 	H 	0.84490 0.02500 0.33130 0.07900
C 	C 	0.84751 0.10410 0.40982 0.06800
H 	H 	0.84850 0.12470 0.43020 -0.01300
C 	C 	0.80302 0.08600 0.39689 -0.11700
H 	H 	0.77410 0.09290 0.40810 0.07800
C 	C 	0.80191 0.05730 0.36691 0.05000
C 	C 	0.75544 0.04230 0.35108 0.10400
C 	C 	0.58234 0.09390 0.40930 0.07000
H 	H 	0.58180 0.11190 0.42990 -0.00900
C 	C 	0.62687 0.07860 0.39554 -0.11000
H 	H 	0.65600 0.08600 0.40650 0.07900
C 	C 	0.54175 0.05720 0.36581 0.06800
H 	H 	0.51210 0.04920 0.35540 -0.00800
C 	C 	0.58428 0.04060 0.35040 -0.11000
H 	H 	0.58380 0.02140 0.32990 0.07900
C 	C 	0.62778 0.05250 0.36543 0.05200
C 	C 	0.67429 0.03990 0.34994 0.10100
C 	C 	0.68680 0.89450 0.23328 0.06700
H 	H 	0.65980 0.86810 0.22310 -0.01000
C 	C 	0.68052 0.93110 0.26161 -0.11800
H 	H 	0.64960 0.93090 0.27070 0.08000
C 	C 	0.76731 0.93320 0.23335 0.06000
H 	H 	0.79740 0.93570 0.22320 0.00100
C 	C 	0.76418 0.97040 0.26242 -0.11000
H 	H 	0.79180 0.99640 0.27210 0.08000
C 	C 	0.71993 0.96840 0.27676 0.05100
C 	C 	0.71671 0.00190 0.30835 0.10200
N 	N 	0.44550 0.98510 0.42343 -0.27400
N 	N 	0.29721 0.39840 0.35110 -0.27700
N 	N 	0.44849 0.41530 0.54512 -0.27000
N 	N 	0.37471 0.65180 0.41593 -0.13400
N 	N 	0.38220 0.50730 0.44426 -0.13900
N 	N 	0.41828 0.65160 0.46191 -0.14400
N 	N 	0.88929 0.09400 0.39498 -0.27000
N 	N 	0.54057 0.08410 0.39481 -0.26800
N 	N 	0.72963 0.89440 0.21928 -0.27200
N 	N 	0.71434 0.05500 0.36598 -0.13900
N 	N 	0.67291 0.01300 0.32077 -0.13800
N 	N 	0.75863 0.01630 0.32223 -0.14000
Zn	Zn	0.02440 0.88176 0.91485 1.16400
Zn	Zn	0.04604 0.64231 0.08770 1.16400
Zn	Zn	0.76057 0.18140 0.68011 1.16500
I 	I 	0.00673 0.80430 0.96594 -0.39300
I 	I 	0.07321 0.79744 0.87484 -0.37200
I 	I 	0.98084 0.55568 0.11702 -0.36300
I 	I 	0.05651 0.82418 0.08486 -0.38400
I 	I 	0.67167 0.17832 0.66567 -0.37300
I 	I 	0.80272 0.34292 0.68748 -0.37200
C 	C 	0.04949 0.05730 0.95017 0.07800
H 	H 	0.03500 0.02170 0.96600 -0.00800
C 	C 	0.06437 0.15030 0.95594 -0.13100
H 	H 	0.06060 0.17780 0.97530 0.09300
C 	C 	0.07504 0.06620 0.90126 0.07500
H 	H 	0.07900 0.03660 0.88220 -0.00600
C 	C 	0.09063 0.15960 0.90492 -0.13200
H 	H 	0.10490 0.19360 0.88870 0.09900
C 	C 	0.08512 0.20300 0.93259 0.05500
C 	C 	0.09890 0.30570 0.93730 0.08800
C 	C 	0.19950 0.50480 0.84991 0.07500
H 	H 	0.21330 0.47240 0.83320 -0.01300
C 	C 	0.17720 0.45060 0.87175 -0.12300
H 	H 	0.17540 0.38240 0.87000 0.08400
C 	C 	0.18320 0.64490 0.87458 0.07700
H 	H 	0.18480 0.71320 0.87560 -0.01300
C 	C 	0.16040 0.59620 0.89769 -0.11700
H 	H 	0.14710 0.63040 0.91420 0.08100
C 	C 	0.15754 0.49680 0.89624 0.06500
C 	C 	0.13244 0.44230 0.92034 0.10300
C 	C 	0.07100 0.63400 0.02232 0.06400
H 	H 	0.07600 0.70130 0.02460 -0.00300
C 	C 	0.08430 0.59060 0.99547 -0.11100
H 	H 	0.09810 0.62780 0.97970 0.07700
C 	C 	0.04244 0.48980 0.04111 0.06400
H 	H 	0.02690 0.45510 0.05680 -0.01200
C 	C 	0.05489 0.44130 0.01515 -0.11800
H 	H 	0.04850 0.37440 0.01310 0.09000
C 	C 	0.07704 0.49270 0.99192 0.05100
C 	C 	0.09312 0.44140 0.96435 0.09800
C 	C 	0.61239 0.93660 0.86628 0.05700
H 	H 	0.58300 0.94610 0.85580 -0.00800
C 	C 	0.65513 0.95470 0.85162 -0.11300
H 	H 	0.65510 0.97500 0.83130 0.07900
C 	C 	0.65249 0.89590 0.90982 0.06800
H 	H 	0.65150 0.87530 0.93020 -0.01300
C 	C 	0.69698 0.91400 0.89689 -0.11700
H 	H 	0.72590 0.90710 0.90810 0.07800
C 	C 	0.69809 0.94270 0.86691 0.05000
C 	C 	0.74456 0.95770 0.85108 0.10400
C 	C 	0.91766 0.90610 0.90930 0.07000
H 	H 	0.91820 0.88810 0.92990 -0.00900
C 	C 	0.87313 0.92140 0.89554 -0.11000
H 	H 	0.84400 0.91400 0.90650 0.07900
C 	C 	0.95825 0.94280 0.86581 0.06800
H 	H 	0.98790 0.95080 0.85540 -0.00800
C 	C 	0.91572 0.95940 0.85040 -0.11000
H 	H 	0.91620 0.97860 0.82990 0.08000
C 	C 	0.87222 0.94750 0.86543 0.05200
C 	C 	0.82571 0.96010 0.84994 0.10100
C 	C 	0.81320 0.10550 0.73328 0.06700
H 	H 	0.84020 0.13190 0.72310 -0.01000
C 	C 	0.81948 0.06890 0.76161 -0.11700
H 	H 	0.85040 0.06910 0.77070 0.08000
C 	C 	0.73269 0.06680 0.73335 0.05900
H 	H 	0.70260 0.06430 0.72320 0.00100
C 	C 	0.73582 0.02960 0.76242 -0.11000
H 	H 	0.70820 0.00360 0.77210 0.08000
C 	C 	0.78007 0.03160 0.77676 0.05000
C 	C 	0.78329 0.99810 0.80835 0.10300
N 	N 	0.05450 0.01490 0.92343 -0.27300
N 	N 	0.20279 0.60160 0.85110 -0.27700
N 	N 	0.05151 0.58470 0.04512 -0.27000
N 	N 	0.12529 0.34820 0.91593 -0.13400
N 	N 	0.11780 0.49270 0.94426 -0.13900
N 	N 	0.08172 0.34840 0.96191 -0.14400
N 	N 	0.61071 0.90600 0.89498 -0.27000
N 	N 	0.95943 0.91590 0.89481 -0.26700
N 	N 	0.77037 0.10560 0.71928 -0.27200
N 	N 	0.78566 0.94500 0.86598 -0.13900
N 	N 	0.82709 0.98700 0.82077 -0.13800
N 	N 	0.74137 0.98370 0.82223 -0.14000
Zn	Zn	0.52440 0.61824 0.08515 1.16400
Zn	Zn	0.54604 0.85769 0.91230 1.16400
Zn	Zn	0.26057 0.31860 0.31989 1.16500
I 	I 	0.50673 0.69570 0.03406 -0.39200
I 	I 	0.57321 0.70256 0.12516 -0.37100
I 	I 	0.48084 0.94432 0.88298 -0.36400
I 	I 	0.55651 0.67582 0.91514 -0.38400
I 	I 	0.17167 0.32168 0.33433 -0.37300
I 	I 	0.30272 0.15708 0.31252 -0.37200
C 	C 	0.54949 0.44270 0.04983 0.07800
H 	H 	0.53500 0.47830 0.03400 -0.00800
C 	C 	0.56437 0.34970 0.04406 -0.13100
H 	H 	0.56060 0.32220 0.02470 0.09300
C 	C 	0.57504 0.43380 0.09874 0.07500
H 	H 	0.57900 0.46340 0.11780 -0.00600
C 	C 	0.59063 0.34040 0.09508 -0.13200
H 	H 	0.60490 0.30640 0.11130 0.09900
C 	C 	0.58512 0.29700 0.06741 0.05500
C 	C 	0.59890 0.19430 0.06270 0.08800
C 	C 	0.69950 0.99520 0.15009 0.07700
H 	H 	0.71330 0.02760 0.16680 -0.01400
C 	C 	0.67720 0.04940 0.12825 -0.12400
H 	H 	0.67540 0.11760 0.13000 0.08400
C 	C 	0.68320 0.85510 0.12542 0.07700
H 	H 	0.68480 0.78680 0.12440 -0.01300
C 	C 	0.66040 0.90380 0.10231 -0.11700
H 	H 	0.64710 0.86960 0.08580 0.08100
C 	C 	0.65754 0.00320 0.10376 0.06400
C 	C 	0.63244 0.05770 0.07966 0.10300
C 	C 	0.57100 0.86600 0.97768 0.06400
H 	H 	0.57600 0.79870 0.97540 -0.00300
C 	C 	0.58430 0.90940 0.00453 -0.11100
H 	H 	0.59810 0.87220 0.02030 0.07700
C 	C 	0.54244 0.01020 0.95889 0.06400
H 	H 	0.52690 0.04490 0.94320 -0.01200
C 	C 	0.55489 0.05870 0.98485 -0.11800
H 	H 	0.54850 0.12560 0.98690 0.09000
C 	C 	0.57704 0.00730 0.00808 0.05000
C 	C 	0.59312 0.05860 0.03565 0.09800
C 	C 	0.11239 0.56340 0.13372 0.05600
H 	H 	0.08300 0.55390 0.14420 -0.00800
C 	C 	0.15513 0.54530 0.14838 -0.11300
H 	H 	0.15510 0.52500 0.16870 0.07900
C 	C 	0.15249 0.60410 0.09018 0.06800
H 	H 	0.15150 0.62470 0.06980 -0.01300
C 	C 	0.19698 0.58600 0.10311 -0.11700
H 	H 	0.22590 0.59290 0.09190 0.07800
C 	C 	0.19809 0.55730 0.13309 0.05000
C 	C 	0.24456 0.54230 0.14892 0.10400
C 	C 	0.41766 0.59390 0.09070 0.07000
H 	H 	0.41820 0.61190 0.07010 -0.00900
C 	C 	0.37313 0.57860 0.10446 -0.11000
H 	H 	0.34400 0.58600 0.09350 0.07900
C 	C 	0.45825 0.55720 0.13419 0.06800
H 	H 	0.48790 0.54920 0.14460 -0.00800
C 	C 	0.41572 0.54060 0.14960 -0.11000
H 	H 	0.41620 0.52140 0.17010 0.07900
C 	C 	0.37222 0.55250 0.13457 0.05200
C 	C 	0.32571 0.53990 0.15006 0.10100
C 	C 	0.31320 0.39450 0.26672 0.06700
H 	H 	0.34020 0.36810 0.27690 -0.01000
C 	C 	0.31948 0.43110 0.23839 -0.11700
H 	H 	0.35040 0.43090 0.22930 0.08000
C 	C 	0.23269 0.43320 0.26665 0.05900
H 	H 	0.20260 0.43570 0.27680 0.00100
C 	C 	0.23582 0.47040 0.23758 -0.11000
H 	H 	0.20820 0.49640 0.22790 0.08000
C 	C 	0.28007 0.46840 0.22324 0.05000
C 	C 	0.28329 0.50190 0.19165 0.10200
N 	N 	0.55450 0.48510 0.07657 -0.27400
N 	N 	0.70279 0.89840 0.14890 -0.27700
N 	N 	0.55151 0.91530 0.95488 -0.27000
N 	N 	0.62529 0.15180 0.08407 -0.13400
N 	N 	0.61780 0.00730 0.05574 -0.13900
N 	N 	0.58172 0.15160 0.03809 -0.14400
N 	N 	0.11071 0.59400 0.10502 -0.27000
N 	N 	0.45943 0.58410 0.10519 -0.26800
N 	N 	0.27037 0.39440 0.28072 -0.27200
N 	N 	0.28566 0.55500 0.13402 -0.13900
N 	N 	0.32709 0.51300 0.17923 -0.13800
N 	N 	0.24137 0.51630 0.17777 -0.14000
Zn	Zn	0.97560 0.38176 0.58515 1.16400
Zn	Zn	0.95396 0.14231 0.41230 1.16400
Zn	Zn	0.23943 0.68140 0.81989 1.16500
I 	I 	0.99327 0.30430 0.53406 -0.39200
I 	I 	0.92679 0.29744 0.62516 -0.37100
I 	I 	0.01916 0.05568 0.38298 -0.36300
I 	I 	0.94349 0.32418 0.41514 -0.38400
I 	I 	0.32833 0.67832 0.83433 -0.37300
I 	I 	0.19728 0.84292 0.81252 -0.37200
C 	C 	0.95051 0.55730 0.54983 0.07800
H 	H 	0.96500 0.52170 0.53400 -0.00800
C 	C 	0.93563 0.65030 0.54406 -0.13100
H 	H 	0.93940 0.67780 0.52470 0.09300
C 	C 	0.92496 0.56620 0.59874 0.07500
H 	H 	0.92100 0.53660 0.61780 -0.00600
C 	C 	0.90937 0.65960 0.59508 -0.13200
H 	H 	0.89510 0.69360 0.61130 0.09900
C 	C 	0.91488 0.70300 0.56741 0.05500
C 	C 	0.90110 0.80570 0.56270 0.08800
C 	C 	0.80050 0.00480 0.65009 0.07400
H 	H 	0.78670 0.97240 0.66680 -0.01200
C 	C 	0.82280 0.95060 0.62825 -0.12200
H 	H 	0.82460 0.88240 0.63000 0.08400
C 	C 	0.81680 0.14490 0.62542 0.07700
H 	H 	0.81520 0.21320 0.62440 -0.01300
C 	C 	0.83960 0.09620 0.60231 -0.11800
H 	H 	0.85290 0.13040 0.58580 0.08100
C 	C 	0.84246 0.99680 0.60376 0.06500
C 	C 	0.86756 0.94230 0.57966 0.10300
C 	C 	0.92900 0.13400 0.47768 0.06500
H 	H 	0.92400 0.20130 0.47540 -0.00300
C 	C 	0.91570 0.09060 0.50453 -0.11300
H 	H 	0.90190 0.12780 0.52030 0.07800
C 	C 	0.95756 0.98980 0.45889 0.06500
H 	H 	0.97310 0.95510 0.44320 -0.01200
C 	C 	0.94511 0.94130 0.48485 -0.11900
H 	H 	0.95150 0.87440 0.48690 0.09100
C 	C 	0.92296 0.99270 0.50808 0.05200
C 	C 	0.90688 0.94140 0.53565 0.09800
C 	C 	0.38761 0.43660 0.63372 0.05700
H 	H 	0.41700 0.44610 0.64420 -0.00800
C 	C 	0.34487 0.45470 0.64838 -0.11300
H 	H 	0.34490 0.47500 0.66870 0.07900
C 	C 	0.34751 0.39590 0.59018 0.06800
H 	H 	0.34850 0.37530 0.56980 -0.01300
C 	C 	0.30302 0.41400 0.60311 -0.11700
H 	H 	0.27410 0.40710 0.59190 0.07800
C 	C 	0.30191 0.44270 0.63309 0.05000
C 	C 	0.25544 0.45770 0.64892 0.10400
C 	C 	0.08234 0.40610 0.59070 0.07000
H 	H 	0.08180 0.38810 0.57010 -0.00900
C 	C 	0.12687 0.42140 0.60446 -0.11000
H 	H 	0.15600 0.41400 0.59350 0.07900
C 	C 	0.04175 0.44280 0.63419 0.06800
H 	H 	0.01210 0.45080 0.64460 -0.00800
C 	C 	0.08428 0.45940 0.64960 -0.11000
H 	H 	0.08380 0.47860 0.67010 0.07900
C 	C 	0.12778 0.44750 0.63457 0.05200
C 	C 	0.17429 0.46010 0.65006 0.10100
C 	C 	0.18680 0.60550 0.76672 0.06700
H 	H 	0.15980 0.63190 0.77690 -0.01000
C 	C 	0.18052 0.56890 0.73839 -0.11700
H 	H 	0.14960 0.56910 0.72930 0.08000
C 	C 	0.26731 0.56680 0.76665 0.05900
H 	H 	0.29740 0.56430 0.77680 0.00100
C 	C 	0.26418 0.52960 0.73758 -0.11000
H 	H 	0.29180 0.50360 0.72790 0.08000
C 	C 	0.21993 0.53160 0.72324 0.05000
C 	C 	0.21671 0.49810 0.69165 0.10200
N 	N 	0.94550 0.51490 0.57657 -0.27400
N 	N 	0.79721 0.10160 0.64890 -0.27600
N 	N 	0.94849 0.08470 0.45488 -0.27100
N 	N 	0.87471 0.84820 0.58407 -0.13400
N 	N 	0.88220 0.99270 0.55574 -0.13900
N 	N 	0.91828 0.84840 0.53809 -0.14400
N 	N 	0.38929 0.40600 0.60502 -0.27000
N 	N 	0.04057 0.41590 0.60519 -0.26700
N 	N 	0.22963 0.60560 0.78072 -0.27200
N 	N 	0.21434 0.44500 0.63402 -0.13900
N 	N 	0.17291 0.48700 0.67923 -0.13800
N 	N 	0.25863 0.48370 0.67777 -0.14000
