data_crystal

_cell_length_a 13.72870
_cell_length_b 27.80000
_cell_length_c 45.48100
_cell_angle_alpha 90.00000
_cell_angle_beta  90.00000
_cell_angle_gamma 90.00000

_symmetry_space_group_name_	'P 1'
_symmetry_space_group_name_H-M	'P 1'

loop_
_symmetry_equiv_pos_as_xyz
  x,y,z

loop_
_atom_site_label
_atom_site_type_symbol
_atom_site_fract_x
_atom_site_fract_y
_atom_site_fract_z
_atom_site_charge
Zn	Zn	0.85673 0.74391 0.81282 1.16500
Zn	Zn	0.64231 0.52700 0.91574 1.16300
Zn	Zn	0.66441 0.05664 0.92612 1.16400
Zn	Zn	0.14327 0.75609 0.31282 1.16600
Zn	Zn	0.35769 0.97300 0.41574 1.16400
Zn	Zn	0.33559 0.44336 0.42612 1.16400
Zn	Zn	0.35673 0.25609 0.68718 1.16600
Zn	Zn	0.14231 0.47300 0.58426 1.16400
Zn	Zn	0.16441 0.94336 0.57388 1.16300
Zn	Zn	0.64327 0.24391 0.18718 1.16600
Zn	Zn	0.85769 0.02700 0.08426 1.16400
Zn	Zn	0.83559 0.55664 0.07388 1.16400
H 	H 	0.06500 0.71310 0.82650 -0.01400
H 	H 	0.14960 0.67410 0.86430 0.08500
H 	H 	0.81600 0.69060 0.86630 -0.01200
H 	H 	0.89490 0.65470 0.90580 0.08500
H 	H 	0.80360 0.59850 0.01340 -0.01100
H 	H 	0.88830 0.61560 0.97090 0.08000
H 	H 	0.03570 0.54140 0.04910 -0.01500
H 	H 	0.12850 0.55950 0.00830 0.09400
H 	H 	0.49270 0.53460 0.96450 -0.00300
H 	H 	0.33360 0.56200 0.97130 0.08600
H 	H 	0.49150 0.58260 0.88300 -0.00600
H 	H 	0.33690 0.61390 0.88890 0.09500
H 	H 	0.58950 0.48930 0.85580 -0.01100
H 	H 	0.57510 0.41710 0.82980 0.08000
H 	H 	0.62200 0.42380 0.93080 -0.00900
H 	H 	0.59750 0.34940 0.90800 0.08000
H 	H 	0.65780 0.16300 0.93590 -0.01900
H 	H 	0.62920 0.23430 0.91070 0.08200
H 	H 	0.58280 0.08720 0.86670 -0.00700
H 	H 	0.55190 0.15540 0.84020 0.08000
H 	H 	0.47080 0.19740 0.73050 -0.00200
H 	H 	0.52990 0.20630 0.77930 0.08400
H 	H 	0.41710 0.33520 0.72570 -0.01600
H 	H 	0.48420 0.34720 0.77250 0.08300
H 	H 	0.93500 0.78690 0.32650 -0.01400
H 	H 	0.85040 0.82590 0.36430 0.08600
H 	H 	0.18400 0.80940 0.36630 -0.01200
H 	H 	0.10510 0.84530 0.40580 0.08500
H 	H 	0.19640 0.90150 0.51340 -0.01100
H 	H 	0.11170 0.88440 0.47090 0.08100
H 	H 	0.96430 0.95860 0.54910 -0.01500
H 	H 	0.87150 0.94050 0.50830 0.09400
H 	H 	0.50730 0.96540 0.46450 -0.00300
H 	H 	0.66640 0.93800 0.47130 0.08600
H 	H 	0.50850 0.91740 0.38300 -0.00600
H 	H 	0.66310 0.88610 0.38890 0.09500
H 	H 	0.41050 0.01070 0.35580 -0.01100
H 	H 	0.42490 0.08290 0.32980 0.08000
H 	H 	0.37800 0.07620 0.43080 -0.00900
H 	H 	0.40250 0.15060 0.40800 0.08100
H 	H 	0.34220 0.33700 0.43590 -0.01900
H 	H 	0.37080 0.26570 0.41070 0.08200
H 	H 	0.41720 0.41280 0.36670 -0.00700
H 	H 	0.44810 0.34460 0.34020 0.08000
H 	H 	0.52920 0.30260 0.23050 -0.00200
H 	H 	0.47010 0.29370 0.27930 0.08400
H 	H 	0.58290 0.16480 0.22570 -0.01600
H 	H 	0.51580 0.15280 0.27250 0.08300
H 	H 	0.56500 0.28690 0.67350 -0.01400
H 	H 	0.64960 0.32590 0.63570 0.08500
H 	H 	0.31600 0.30940 0.63370 -0.01200
H 	H 	0.39490 0.34530 0.59420 0.08500
H 	H 	0.30360 0.40150 0.48660 -0.01100
H 	H 	0.38830 0.38440 0.52910 0.08000
H 	H 	0.53570 0.45860 0.45090 -0.01500
H 	H 	0.62850 0.44050 0.49170 0.09400
H 	H 	0.99270 0.46540 0.53550 -0.00200
H 	H 	0.83360 0.43800 0.52870 0.08600
H 	H 	0.99150 0.41740 0.61700 -0.00600
H 	H 	0.83690 0.38610 0.61110 0.09500
H 	H 	0.08950 0.51070 0.64420 -0.01100
H 	H 	0.07510 0.58290 0.67020 0.08000
H 	H 	0.12200 0.57620 0.56920 -0.00900
H 	H 	0.09750 0.65060 0.59200 0.08000
H 	H 	0.15780 0.83700 0.56410 -0.01900
H 	H 	0.12920 0.76570 0.58930 0.08200
H 	H 	0.08280 0.91280 0.63330 -0.00700
H 	H 	0.05190 0.84460 0.65980 0.08000
H 	H 	0.97080 0.80260 0.76950 -0.00200
H 	H 	0.02990 0.79370 0.72070 0.08400
H 	H 	0.91710 0.66480 0.77430 -0.01600
H 	H 	0.98420 0.65280 0.72750 0.08300
H 	H 	0.43500 0.21310 0.17350 -0.01400
H 	H 	0.35040 0.17410 0.13570 0.08500
H 	H 	0.68400 0.19060 0.13370 -0.01200
H 	H 	0.60510 0.15470 0.09420 0.08500
H 	H 	0.69640 0.09850 0.98660 -0.01100
H 	H 	0.61170 0.11560 0.02910 0.08000
H 	H 	0.46430 0.04140 0.95090 -0.01500
H 	H 	0.37150 0.05950 0.99170 0.09400
H 	H 	0.00730 0.03460 0.03550 -0.00300
H 	H 	0.16640 0.06200 0.02870 0.08600
H 	H 	0.00850 0.08260 0.11700 -0.00700
H 	H 	0.16310 0.11390 0.11110 0.09500
H 	H 	0.91050 0.98930 0.14420 -0.01100
H 	H 	0.92490 0.91710 0.17020 0.08100
H 	H 	0.87800 0.92380 0.06920 -0.00900
H 	H 	0.90250 0.84940 0.09200 0.08100
H 	H 	0.84220 0.66300 0.06410 -0.01900
H 	H 	0.87080 0.73430 0.08930 0.08200
H 	H 	0.91720 0.58720 0.13330 -0.00700
H 	H 	0.94810 0.65540 0.15980 0.08000
H 	H 	0.02920 0.69740 0.26950 -0.00200
H 	H 	0.97010 0.70630 0.22070 0.08400
H 	H 	0.08290 0.83520 0.27430 -0.01600
H 	H 	0.01580 0.84720 0.22750 0.08300
C 	C 	0.02960 0.70080 0.84290 0.07800
C 	C 	0.08110 0.67820 0.86550 -0.12700
C 	C 	0.88500 0.68830 0.86610 0.07400
C 	C 	0.93150 0.66660 0.88960 -0.11700
C 	C 	0.03080 0.66240 0.88940 0.06600
C 	C 	0.08240 0.63980 0.91440 0.10600
C 	C 	0.87050 0.59000 0.01230 0.07900
C 	C 	0.92080 0.60160 0.98730 -0.12600
C 	C 	0.00550 0.55730 0.03300 0.07900
C 	C 	0.06180 0.56840 0.00910 -0.13500
C 	C 	0.01940 0.59280 0.98630 0.06200
C 	C 	0.07510 0.60620 0.96000 0.09400
C 	C 	0.46010 0.55030 0.94880 0.06800
C 	C 	0.36550 0.56730 0.95300 -0.12400
C 	C 	0.45950 0.57880 0.90140 0.06900
C 	C 	0.36720 0.59730 0.90470 -0.12300
C 	C 	0.31860 0.59160 0.93100 0.05100
C 	C 	0.21570 0.60670 0.93460 0.10400
C 	C 	0.59520 0.45990 0.86630 0.07300
C 	C 	0.58380 0.41700 0.85050 -0.11700
C 	C 	0.61270 0.42250 0.91010 0.07200
C 	C 	0.59850 0.37780 0.89640 -0.11200
C 	C 	0.58590 0.37440 0.86630 0.05100
C 	C 	0.57390 0.32750 0.85190 0.10400
C 	C 	0.63640 0.16140 0.91610 0.07800
C 	C 	0.62000 0.20430 0.90120 -0.12400
C 	C 	0.59260 0.11760 0.87580 0.06100
C 	C 	0.57480 0.15790 0.85990 -0.11800
C 	C 	0.59010 0.20240 0.87240 0.05500
C 	C 	0.57570 0.24650 0.85530 0.10300
C 	C 	0.47140 0.22830 0.73940 0.07000
C 	C 	0.50770 0.23350 0.76860 -0.12000
C 	C 	0.44150 0.30850 0.73650 0.07400
C 	C 	0.47960 0.31560 0.76470 -0.12500
C 	C 	0.51010 0.27740 0.78080 0.06200
C 	C 	0.54110 0.28260 0.81220 0.10000
C 	C 	0.97040 0.79920 0.34290 0.07900
C 	C 	0.91890 0.82180 0.36550 -0.12800
C 	C 	0.11500 0.81170 0.36610 0.07400
C 	C 	0.06850 0.83340 0.38960 -0.11900
C 	C 	0.96920 0.83760 0.38940 0.06700
C 	C 	0.91760 0.86020 0.41440 0.10600
C 	C 	0.12950 0.91000 0.51230 0.08000
C 	C 	0.07920 0.89840 0.48730 -0.12800
C 	C 	0.99450 0.94270 0.53300 0.08000
C 	C 	0.93820 0.93160 0.50910 -0.13600
C 	C 	0.98060 0.90720 0.48630 0.06300
C 	C 	0.92490 0.89380 0.46000 0.09400
C 	C 	0.53990 0.94970 0.44880 0.06800
C 	C 	0.63450 0.93270 0.45300 -0.12400
C 	C 	0.54050 0.92120 0.40140 0.06900
C 	C 	0.63280 0.90270 0.40470 -0.12300
C 	C 	0.68140 0.90840 0.43100 0.05100
C 	C 	0.78430 0.89330 0.43460 0.10400
C 	C 	0.40480 0.04010 0.36630 0.07300
C 	C 	0.41620 0.08300 0.35050 -0.11700
C 	C 	0.38730 0.07750 0.41010 0.07200
C 	C 	0.40150 0.12220 0.39640 -0.11200
C 	C 	0.41410 0.12560 0.36630 0.05100
C 	C 	0.42610 0.17250 0.35190 0.10400
C 	C 	0.36360 0.33860 0.41610 0.07800
C 	C 	0.38000 0.29570 0.40120 -0.12400
C 	C 	0.40740 0.38240 0.37580 0.06100
C 	C 	0.42520 0.34210 0.35990 -0.11700
C 	C 	0.40990 0.29760 0.37240 0.05500
C 	C 	0.42430 0.25350 0.35530 0.10300
C 	C 	0.52860 0.27170 0.23940 0.07000
C 	C 	0.49230 0.26650 0.26860 -0.12000
C 	C 	0.55850 0.19150 0.23650 0.07400
C 	C 	0.52040 0.18440 0.26470 -0.12500
C 	C 	0.48990 0.22260 0.28080 0.06200
C 	C 	0.45890 0.21740 0.31220 0.10000
C 	C 	0.52960 0.29920 0.65710 0.07800
C 	C 	0.58110 0.32180 0.63450 -0.12700
C 	C 	0.38500 0.31170 0.63390 0.07400
C 	C 	0.43150 0.33340 0.61040 -0.11700
C 	C 	0.53080 0.33760 0.61060 0.06600
C 	C 	0.58240 0.36020 0.58560 0.10600
C 	C 	0.37050 0.41000 0.48770 0.07900
C 	C 	0.42080 0.39840 0.51270 -0.12600
C 	C 	0.50550 0.44270 0.46700 0.07900
C 	C 	0.56180 0.43160 0.49090 -0.13500
C 	C 	0.51940 0.40720 0.51370 0.06200
C 	C 	0.57510 0.39380 0.54000 0.09400
C 	C 	0.96010 0.44970 0.55120 0.06700
C 	C 	0.86550 0.43270 0.54700 -0.12300
C 	C 	0.95950 0.42120 0.59860 0.06900
C 	C 	0.86720 0.40270 0.59530 -0.12300
C 	C 	0.81860 0.40840 0.56900 0.05100
C 	C 	0.71570 0.39330 0.56540 0.10400
C 	C 	0.09520 0.54010 0.63370 0.07300
C 	C 	0.08380 0.58300 0.64950 -0.11700
C 	C 	0.11270 0.57750 0.58990 0.07200
C 	C 	0.09850 0.62220 0.60360 -0.11200
C 	C 	0.08590 0.62560 0.63370 0.05100
C 	C 	0.07390 0.67250 0.64810 0.10400
C 	C 	0.13640 0.83860 0.58390 0.07800
C 	C 	0.12000 0.79570 0.59880 -0.12400
C 	C 	0.09260 0.88240 0.62420 0.06100
C 	C 	0.07480 0.84210 0.64010 -0.11800
C 	C 	0.09010 0.79760 0.62760 0.05500
C 	C 	0.07570 0.75350 0.64470 0.10300
C 	C 	0.97140 0.77170 0.76060 0.07000
C 	C 	0.00770 0.76650 0.73140 -0.12000
C 	C 	0.94150 0.69150 0.76350 0.07400
C 	C 	0.97960 0.68440 0.73530 -0.12600
C 	C 	0.01010 0.72260 0.71920 0.06200
C 	C 	0.04110 0.71740 0.68780 0.10000
C 	C 	0.47040 0.20080 0.15710 0.07800
C 	C 	0.41890 0.17820 0.13450 -0.12700
C 	C 	0.61500 0.18830 0.13390 0.07400
C 	C 	0.56850 0.16660 0.11040 -0.11700
C 	C 	0.46920 0.16240 0.11060 0.06600
C 	C 	0.41760 0.13980 0.08560 0.10600
C 	C 	0.62950 0.09000 0.98770 0.07900
C 	C 	0.57920 0.10160 0.01270 -0.12600
C 	C 	0.49450 0.05730 0.96700 0.07900
C 	C 	0.43820 0.06840 0.99090 -0.13500
C 	C 	0.48060 0.09280 0.01370 0.06200
C 	C 	0.42490 0.10620 0.04000 0.09400
C 	C 	0.03990 0.05030 0.05120 0.06800
C 	C 	0.13450 0.06730 0.04700 -0.12400
C 	C 	0.04050 0.07880 0.09860 0.07000
C 	C 	0.13280 0.09730 0.09530 -0.12400
C 	C 	0.18140 0.09160 0.06900 0.05100
C 	C 	0.28430 0.10670 0.06540 0.10400
C 	C 	0.90480 0.95990 0.13370 0.07300
C 	C 	0.91620 0.91700 0.14950 -0.11700
C 	C 	0.88730 0.92250 0.08990 0.07300
C 	C 	0.90150 0.87780 0.10360 -0.11200
C 	C 	0.91410 0.87440 0.13370 0.05100
C 	C 	0.92610 0.82750 0.14810 0.10500
C 	C 	0.86360 0.66140 0.08390 0.07800
C 	C 	0.88000 0.70430 0.09880 -0.12400
C 	C 	0.90740 0.61760 0.12420 0.06100
C 	C 	0.92520 0.65790 0.14010 -0.11700
C 	C 	0.90990 0.70240 0.12760 0.05500
C 	C 	0.92430 0.74650 0.14470 0.10300
C 	C 	0.02860 0.72830 0.26060 0.06900
C 	C 	0.99230 0.73350 0.23140 -0.12000
C 	C 	0.05850 0.80850 0.26350 0.07400
C 	C 	0.02040 0.81560 0.23530 -0.12600
C 	C 	0.98990 0.77740 0.21920 0.06300
C 	C 	0.95890 0.78260 0.18780 0.10000
I 	I 	0.69599 0.70065 0.80357 -0.37300
I 	I 	0.85385 0.83149 0.82768 -0.37800
I 	I 	0.72597 0.57926 0.87788 -0.37100
I 	I 	0.71542 0.50721 0.96577 -0.39400
I 	I 	0.84517 0.06894 0.93552 -0.38400
I 	I 	0.58365 0.98882 0.89813 -0.36600
I 	I 	0.30401 0.79935 0.30357 -0.37300
I 	I 	0.14615 0.66851 0.32768 -0.37800
I 	I 	0.27403 0.92074 0.37788 -0.37100
I 	I 	0.28458 0.99279 0.46577 -0.39400
I 	I 	0.15483 0.43106 0.43552 -0.38400
I 	I 	0.41635 0.51118 0.39813 -0.36600
I 	I 	0.19599 0.29935 0.69643 -0.37300
I 	I 	0.35385 0.16851 0.67232 -0.37800
I 	I 	0.22597 0.42074 0.62212 -0.37100
I 	I 	0.21542 0.49279 0.53423 -0.39400
I 	I 	0.34517 0.93106 0.56448 -0.38400
I 	I 	0.08365 0.01118 0.60187 -0.36600
I 	I 	0.80401 0.20065 0.19643 -0.37300
I 	I 	0.64615 0.33149 0.17232 -0.37800
I 	I 	0.77403 0.07926 0.12212 -0.37100
I 	I 	0.78458 0.00721 0.03423 -0.39400
I 	I 	0.65483 0.56894 0.06448 -0.38300
I 	I 	0.91635 0.48882 0.10187 -0.36600
N 	N 	0.93290 0.70590 0.84320 -0.28000
N 	N 	0.91030 0.56750 0.03500 -0.27600
N 	N 	0.50580 0.55580 0.92300 -0.27300
N 	N 	0.02860 0.62840 0.93763 -0.13600
N 	N 	0.17050 0.59480 0.95886 -0.14300
N 	N 	0.17760 0.62980 0.91190 -0.13500
N 	N 	0.61330 0.46220 0.89480 -0.27300
N 	N 	0.62370 0.11870 0.90413 -0.27300
N 	N 	0.43890 0.26550 0.72478 -0.27400
N 	N 	0.58670 0.28870 0.86850 -0.14100
N 	N 	0.55320 0.24140 0.82687 -0.14000
N 	N 	0.55110 0.32650 0.82338 -0.14000
N 	N 	0.06710 0.79410 0.34320 -0.28000
N 	N 	0.08970 0.93250 0.53500 -0.27700
N 	N 	0.49420 0.94420 0.42300 -0.27300
N 	N 	0.97140 0.87160 0.43763 -0.13600
N 	N 	0.82950 0.90520 0.45886 -0.14300
N 	N 	0.82240 0.87020 0.41190 -0.13500
N 	N 	0.38670 0.03780 0.39480 -0.27300
N 	N 	0.37630 0.38130 0.40413 -0.27300
N 	N 	0.56110 0.23450 0.22478 -0.27400
N 	N 	0.41330 0.21130 0.36850 -0.14100
N 	N 	0.44680 0.25860 0.32687 -0.14000
N 	N 	0.44890 0.17350 0.32338 -0.14000
N 	N 	0.43290 0.29410 0.65680 -0.27900
N 	N 	0.41030 0.43250 0.46500 -0.27600
N 	N 	0.00580 0.44420 0.57700 -0.27200
N 	N 	0.52860 0.37160 0.56237 -0.13600
N 	N 	0.67050 0.40520 0.54114 -0.14300
N 	N 	0.67760 0.37020 0.58810 -0.13500
N 	N 	0.11330 0.53780 0.60520 -0.27300
N 	N 	0.12370 0.88130 0.59587 -0.27300
N 	N 	0.93890 0.73450 0.77522 -0.27400
N 	N 	0.08670 0.71130 0.63150 -0.14100
N 	N 	0.05320 0.75860 0.67313 -0.14000
N 	N 	0.05110 0.67350 0.67662 -0.14000
N 	N 	0.56710 0.20590 0.15680 -0.27900
N 	N 	0.58970 0.06750 0.96500 -0.27600
N 	N 	0.99420 0.05580 0.07700 -0.27300
N 	N 	0.47140 0.12840 0.06237 -0.13600
N 	N 	0.32950 0.09480 0.04114 -0.14300
N 	N 	0.32240 0.12980 0.08810 -0.13500
N 	N 	0.88670 0.96220 0.10520 -0.27200
N 	N 	0.87630 0.61870 0.09587 -0.27300
N 	N 	0.06110 0.76550 0.27522 -0.27400
N 	N 	0.91330 0.78870 0.13150 -0.14100
N 	N 	0.94680 0.74140 0.17313 -0.14000
N 	N 	0.94890 0.82650 0.17662 -0.14000
Zn	Zn	0.14327 0.25609 0.18718 1.16600
Zn	Zn	0.35769 0.47300 0.08426 1.16400
Zn	Zn	0.33559 0.94336 0.07388 1.16400
Zn	Zn	0.85673 0.24391 0.68718 1.16600
Zn	Zn	0.64231 0.02700 0.58426 1.16400
Zn	Zn	0.66441 0.55664 0.57388 1.16400
Zn	Zn	0.64327 0.74391 0.31282 1.16600
Zn	Zn	0.85769 0.52700 0.41574 1.16400
Zn	Zn	0.83559 0.05664 0.42612 1.16300
Zn	Zn	0.35673 0.75609 0.81282 1.16600
Zn	Zn	0.14231 0.97300 0.91574 1.16400
Zn	Zn	0.16441 0.44336 0.92612 1.16400
H 	H 	0.93500 0.28690 0.17350 -0.01400
H 	H 	0.85040 0.32590 0.13570 0.08500
H 	H 	0.18400 0.30940 0.13370 -0.01200
H 	H 	0.10510 0.34530 0.09420 0.08500
H 	H 	0.19640 0.40150 0.98660 -0.01100
H 	H 	0.11170 0.38440 0.02910 0.08000
H 	H 	0.96430 0.45860 0.95090 -0.01500
H 	H 	0.87150 0.44050 0.99170 0.09400
H 	H 	0.50730 0.46540 0.03550 -0.00300
H 	H 	0.66640 0.43800 0.02870 0.08600
H 	H 	0.50850 0.41740 0.11700 -0.00600
H 	H 	0.66310 0.38610 0.11110 0.09500
H 	H 	0.41050 0.51070 0.14420 -0.01100
H 	H 	0.42490 0.58290 0.17020 0.08000
H 	H 	0.37800 0.57620 0.06920 -0.00900
H 	H 	0.40250 0.65060 0.09200 0.08000
H 	H 	0.34220 0.83700 0.06410 -0.01900
H 	H 	0.37080 0.76570 0.08930 0.08200
H 	H 	0.41720 0.91280 0.13330 -0.00700
H 	H 	0.44810 0.84460 0.15980 0.08000
H 	H 	0.52920 0.80260 0.26950 -0.00200
H 	H 	0.47010 0.79370 0.22070 0.08400
H 	H 	0.58290 0.66480 0.27430 -0.01600
H 	H 	0.51580 0.65280 0.22750 0.08300
H 	H 	0.06500 0.21310 0.67350 -0.01400
H 	H 	0.14960 0.17410 0.63570 0.08600
H 	H 	0.81600 0.19060 0.63370 -0.01200
H 	H 	0.89490 0.15470 0.59420 0.08500
H 	H 	0.80360 0.09850 0.48660 -0.01100
H 	H 	0.88830 0.11560 0.52910 0.08100
H 	H 	0.03570 0.04140 0.45090 -0.01500
H 	H 	0.12850 0.05950 0.49170 0.09400
H 	H 	0.49270 0.03460 0.53550 -0.00300
H 	H 	0.33360 0.06200 0.52870 0.08600
H 	H 	0.49150 0.08260 0.61700 -0.00600
H 	H 	0.33690 0.11390 0.61110 0.09500
H 	H 	0.58950 0.98930 0.64420 -0.01100
H 	H 	0.57510 0.91710 0.67020 0.08000
H 	H 	0.62200 0.92380 0.56920 -0.00900
H 	H 	0.59750 0.84940 0.59200 0.08100
H 	H 	0.65780 0.66300 0.56410 -0.01900
H 	H 	0.62920 0.73430 0.58930 0.08200
H 	H 	0.58280 0.58720 0.63330 -0.00700
H 	H 	0.55190 0.65540 0.65980 0.08000
H 	H 	0.47080 0.69740 0.76950 -0.00200
H 	H 	0.52990 0.70630 0.72070 0.08400
H 	H 	0.41710 0.83520 0.77430 -0.01600
H 	H 	0.48420 0.84720 0.72750 0.08300
H 	H 	0.43500 0.71310 0.32650 -0.01400
H 	H 	0.35040 0.67410 0.36430 0.08500
H 	H 	0.68400 0.69060 0.36630 -0.01200
H 	H 	0.60510 0.65470 0.40580 0.08500
H 	H 	0.69640 0.59850 0.51340 -0.01100
H 	H 	0.61170 0.61560 0.47090 0.08000
H 	H 	0.46430 0.54140 0.54910 -0.01500
H 	H 	0.37150 0.55950 0.50830 0.09400
H 	H 	0.00730 0.53460 0.46450 -0.00200
H 	H 	0.16640 0.56200 0.47130 0.08600
H 	H 	0.00850 0.58260 0.38300 -0.00600
H 	H 	0.16310 0.61390 0.38890 0.09500
H 	H 	0.91050 0.48930 0.35580 -0.01100
H 	H 	0.92490 0.41710 0.32980 0.08000
H 	H 	0.87800 0.42380 0.43080 -0.00900
H 	H 	0.90250 0.34940 0.40800 0.08000
H 	H 	0.84220 0.16300 0.43590 -0.01900
H 	H 	0.87080 0.23430 0.41070 0.08200
H 	H 	0.91720 0.08720 0.36670 -0.00700
H 	H 	0.94810 0.15540 0.34020 0.08000
H 	H 	0.02920 0.19740 0.23050 -0.00200
H 	H 	0.97010 0.20630 0.27930 0.08400
H 	H 	0.08290 0.33520 0.22570 -0.01600
H 	H 	0.01580 0.34720 0.27250 0.08300
H 	H 	0.56500 0.78690 0.82650 -0.01400
H 	H 	0.64960 0.82590 0.86430 0.08500
H 	H 	0.31600 0.80940 0.86630 -0.01200
H 	H 	0.39490 0.84530 0.90580 0.08500
H 	H 	0.30360 0.90150 0.01340 -0.01100
H 	H 	0.38830 0.88440 0.97090 0.08000
H 	H 	0.53570 0.95860 0.04910 -0.01500
H 	H 	0.62850 0.94050 0.00830 0.09400
H 	H 	0.99270 0.96540 0.96450 -0.00300
H 	H 	0.83360 0.93800 0.97130 0.08600
H 	H 	0.99150 0.91740 0.88300 -0.00700
H 	H 	0.83690 0.88610 0.88890 0.09500
H 	H 	0.08950 0.01070 0.85580 -0.01100
H 	H 	0.07510 0.08290 0.82980 0.08100
H 	H 	0.12200 0.07620 0.93080 -0.00900
H 	H 	0.09750 0.15060 0.90800 0.08100
H 	H 	0.15780 0.33700 0.93590 -0.01900
H 	H 	0.12920 0.26570 0.91070 0.08200
H 	H 	0.08280 0.41280 0.86670 -0.00700
H 	H 	0.05190 0.34460 0.84020 0.08000
H 	H 	0.97080 0.30260 0.73050 -0.00200
H 	H 	0.02990 0.29370 0.77930 0.08400
H 	H 	0.91710 0.16480 0.72570 -0.01600
H 	H 	0.98420 0.15280 0.77250 0.08300
C 	C 	0.97040 0.29920 0.15710 0.07800
C 	C 	0.91890 0.32180 0.13450 -0.12700
C 	C 	0.11500 0.31170 0.13390 0.07400
C 	C 	0.06850 0.33340 0.11040 -0.11700
C 	C 	0.96920 0.33760 0.11060 0.06600
C 	C 	0.91760 0.36020 0.08560 0.10600
C 	C 	0.12950 0.41000 0.98770 0.07900
C 	C 	0.07920 0.39840 0.01270 -0.12600
C 	C 	0.99450 0.44270 0.96700 0.07900
C 	C 	0.93820 0.43160 0.99090 -0.13500
C 	C 	0.98060 0.40720 0.01370 0.06200
C 	C 	0.92490 0.39380 0.04000 0.09400
C 	C 	0.53990 0.44970 0.05120 0.06800
C 	C 	0.63450 0.43270 0.04700 -0.12400
C 	C 	0.54050 0.42120 0.09860 0.06900
C 	C 	0.63280 0.40270 0.09530 -0.12300
C 	C 	0.68140 0.40840 0.06900 0.05100
C 	C 	0.78430 0.39330 0.06540 0.10400
C 	C 	0.40480 0.54010 0.13370 0.07300
C 	C 	0.41620 0.58300 0.14950 -0.11700
C 	C 	0.38730 0.57750 0.08990 0.07200
C 	C 	0.40150 0.62220 0.10360 -0.11200
C 	C 	0.41410 0.62560 0.13370 0.05100
C 	C 	0.42610 0.67250 0.14810 0.10400
C 	C 	0.36360 0.83860 0.08390 0.07800
C 	C 	0.38000 0.79570 0.09880 -0.12400
C 	C 	0.40740 0.88240 0.12420 0.06100
C 	C 	0.42520 0.84210 0.14010 -0.11800
C 	C 	0.40990 0.79760 0.12760 0.05500
C 	C 	0.42430 0.75350 0.14470 0.10300
C 	C 	0.52860 0.77170 0.26060 0.07000
C 	C 	0.49230 0.76650 0.23140 -0.12000
C 	C 	0.55850 0.69150 0.26350 0.07400
C 	C 	0.52040 0.68440 0.23530 -0.12500
C 	C 	0.48990 0.72260 0.21920 0.06200
C 	C 	0.45890 0.71740 0.18780 0.10000
C 	C 	0.02960 0.20080 0.65710 0.07900
C 	C 	0.08110 0.17820 0.63450 -0.12800
C 	C 	0.88500 0.18830 0.63390 0.07400
C 	C 	0.93150 0.16660 0.61040 -0.11900
C 	C 	0.03080 0.16240 0.61060 0.06700
C 	C 	0.08240 0.13980 0.58560 0.10600
C 	C 	0.87050 0.09000 0.48770 0.08000
C 	C 	0.92080 0.10160 0.51270 -0.12800
C 	C 	0.00550 0.05730 0.46700 0.08000
C 	C 	0.06180 0.06840 0.49090 -0.13600
C 	C 	0.01940 0.09280 0.51370 0.06300
C 	C 	0.07510 0.10620 0.54000 0.09400
C 	C 	0.46010 0.05030 0.55120 0.06800
C 	C 	0.36550 0.06730 0.54700 -0.12400
C 	C 	0.45950 0.07880 0.59860 0.06900
C 	C 	0.36720 0.09730 0.59530 -0.12300
C 	C 	0.31860 0.09160 0.56900 0.05100
C 	C 	0.21570 0.10670 0.56540 0.10400
C 	C 	0.59520 0.95990 0.63370 0.07300
C 	C 	0.58380 0.91700 0.64950 -0.11700
C 	C 	0.61270 0.92250 0.58990 0.07200
C 	C 	0.59850 0.87780 0.60360 -0.11200
C 	C 	0.58590 0.87440 0.63370 0.05100
C 	C 	0.57390 0.82750 0.64810 0.10400
C 	C 	0.63640 0.66140 0.58390 0.07800
C 	C 	0.62000 0.70430 0.59880 -0.12400
C 	C 	0.59260 0.61760 0.62420 0.06100
C 	C 	0.57480 0.65790 0.64010 -0.11700
C 	C 	0.59010 0.70240 0.62760 0.05500
C 	C 	0.57570 0.74650 0.64470 0.10300
C 	C 	0.47140 0.72830 0.76060 0.07000
C 	C 	0.50770 0.73350 0.73140 -0.12000
C 	C 	0.44150 0.80850 0.76350 0.07400
C 	C 	0.47960 0.81560 0.73530 -0.12500
C 	C 	0.51010 0.77740 0.71920 0.06200
C 	C 	0.54110 0.78260 0.68780 0.10000
C 	C 	0.47040 0.70080 0.34290 0.07800
C 	C 	0.41890 0.67820 0.36550 -0.12700
C 	C 	0.61500 0.68830 0.36610 0.07400
C 	C 	0.56850 0.66660 0.38960 -0.11700
C 	C 	0.46920 0.66240 0.38940 0.06600
C 	C 	0.41760 0.63980 0.41440 0.10600
C 	C 	0.62950 0.59000 0.51230 0.07900
C 	C 	0.57920 0.60160 0.48730 -0.12600
C 	C 	0.49450 0.55730 0.53300 0.07900
C 	C 	0.43820 0.56840 0.50910 -0.13500
C 	C 	0.48060 0.59280 0.48630 0.06200
C 	C 	0.42490 0.60620 0.46000 0.09400
C 	C 	0.03990 0.55030 0.44880 0.06700
C 	C 	0.13450 0.56730 0.45300 -0.12300
C 	C 	0.04050 0.57880 0.40140 0.06900
C 	C 	0.13280 0.59730 0.40470 -0.12300
C 	C 	0.18140 0.59160 0.43100 0.05100
C 	C 	0.28430 0.60670 0.43460 0.10400
C 	C 	0.90480 0.45990 0.36630 0.07300
C 	C 	0.91620 0.41700 0.35050 -0.11700
C 	C 	0.88730 0.42250 0.41010 0.07200
C 	C 	0.90150 0.37780 0.39640 -0.11200
C 	C 	0.91410 0.37440 0.36630 0.05100
C 	C 	0.92610 0.32750 0.35190 0.10400
C 	C 	0.86360 0.16140 0.41610 0.07800
C 	C 	0.88000 0.20430 0.40120 -0.12400
C 	C 	0.90740 0.11760 0.37580 0.06100
C 	C 	0.92520 0.15790 0.35990 -0.11800
C 	C 	0.90990 0.20240 0.37240 0.05500
C 	C 	0.92430 0.24650 0.35530 0.10300
C 	C 	0.02860 0.22830 0.23940 0.07000
C 	C 	0.99230 0.23350 0.26860 -0.12000
C 	C 	0.05850 0.30850 0.23650 0.07400
C 	C 	0.02040 0.31560 0.26470 -0.12600
C 	C 	0.98990 0.27740 0.28080 0.06200
C 	C 	0.95890 0.28260 0.31220 0.10000
C 	C 	0.52960 0.79920 0.84290 0.07800
C 	C 	0.58110 0.82180 0.86550 -0.12700
C 	C 	0.38500 0.81170 0.86610 0.07400
C 	C 	0.43150 0.83340 0.88960 -0.11700
C 	C 	0.53080 0.83760 0.88940 0.06600
C 	C 	0.58240 0.86020 0.91440 0.10600
C 	C 	0.37050 0.91000 0.01230 0.07900
C 	C 	0.42080 0.89840 0.98730 -0.12600
C 	C 	0.50550 0.94270 0.03300 0.07900
C 	C 	0.56180 0.93160 0.00910 -0.13500
C 	C 	0.51940 0.90720 0.98630 0.06200
C 	C 	0.57510 0.89380 0.96000 0.09400
C 	C 	0.96010 0.94970 0.94880 0.06800
C 	C 	0.86550 0.93270 0.95300 -0.12400
C 	C 	0.95950 0.92120 0.90140 0.07000
C 	C 	0.86720 0.90270 0.90470 -0.12400
C 	C 	0.81860 0.90840 0.93100 0.05100
C 	C 	0.71570 0.89330 0.93460 0.10400
C 	C 	0.09520 0.04010 0.86630 0.07300
C 	C 	0.08380 0.08300 0.85050 -0.11700
C 	C 	0.11270 0.07750 0.91010 0.07300
C 	C 	0.09850 0.12220 0.89640 -0.11200
C 	C 	0.08590 0.12560 0.86630 0.05100
C 	C 	0.07390 0.17250 0.85190 0.10500
C 	C 	0.13640 0.33860 0.91610 0.07800
C 	C 	0.12000 0.29570 0.90120 -0.12400
C 	C 	0.09260 0.38240 0.87580 0.06100
C 	C 	0.07480 0.34210 0.85990 -0.11700
C 	C 	0.09010 0.29760 0.87240 0.05500
C 	C 	0.07570 0.25350 0.85530 0.10300
C 	C 	0.97140 0.27170 0.73940 0.06900
C 	C 	0.00770 0.26650 0.76860 -0.12000
C 	C 	0.94150 0.19150 0.73650 0.07400
C 	C 	0.97960 0.18440 0.76470 -0.12600
C 	C 	0.01010 0.22260 0.78080 0.06300
C 	C 	0.04110 0.21740 0.81220 0.10000
I 	I 	0.30401 0.29935 0.19643 -0.37300
I 	I 	0.14615 0.16851 0.17232 -0.37800
I 	I 	0.27403 0.42074 0.12212 -0.37100
I 	I 	0.28458 0.49279 0.03423 -0.39400
I 	I 	0.15483 0.93106 0.06448 -0.38400
I 	I 	0.41635 0.01118 0.10187 -0.36600
I 	I 	0.69599 0.20065 0.69643 -0.37300
I 	I 	0.85385 0.33149 0.67232 -0.37800
I 	I 	0.72597 0.07926 0.62212 -0.37100
I 	I 	0.71542 0.00721 0.53423 -0.39400
I 	I 	0.84517 0.56894 0.56448 -0.38400
I 	I 	0.58365 0.48882 0.60187 -0.36600
I 	I 	0.80401 0.70065 0.30357 -0.37300
I 	I 	0.64615 0.83149 0.32768 -0.37800
I 	I 	0.77403 0.57926 0.37788 -0.37100
I 	I 	0.78458 0.50721 0.46577 -0.39400
I 	I 	0.65483 0.06894 0.43552 -0.38400
I 	I 	0.91635 0.98882 0.39813 -0.36600
I 	I 	0.19599 0.79935 0.80357 -0.37300
I 	I 	0.35385 0.66851 0.82768 -0.37800
I 	I 	0.22597 0.92074 0.87788 -0.37100
I 	I 	0.21542 0.99279 0.96577 -0.39400
I 	I 	0.34517 0.43106 0.93552 -0.38300
I 	I 	0.08365 0.51118 0.89813 -0.36600
N 	N 	0.06710 0.29410 0.15680 -0.28000
N 	N 	0.08970 0.43250 0.96500 -0.27600
N 	N 	0.49420 0.44420 0.07700 -0.27300
N 	N 	0.97140 0.37160 0.06237 -0.13600
N 	N 	0.82950 0.40520 0.04114 -0.14300
N 	N 	0.82240 0.37020 0.08810 -0.13500
N 	N 	0.38670 0.53780 0.10520 -0.27300
N 	N 	0.37630 0.88130 0.09587 -0.27300
N 	N 	0.56110 0.73450 0.27522 -0.27400
N 	N 	0.41330 0.71130 0.13150 -0.14100
N 	N 	0.44680 0.75860 0.17313 -0.14000
N 	N 	0.44890 0.67350 0.17662 -0.14000
N 	N 	0.93290 0.20590 0.65680 -0.28000
N 	N 	0.91030 0.06750 0.46500 -0.27700
N 	N 	0.50580 0.05580 0.57700 -0.27300
N 	N 	0.02860 0.12840 0.56237 -0.13600
N 	N 	0.17050 0.09480 0.54114 -0.14300
N 	N 	0.17760 0.12980 0.58810 -0.13500
N 	N 	0.61330 0.96220 0.60520 -0.27300
N 	N 	0.62370 0.61870 0.59587 -0.27300
N 	N 	0.43890 0.76550 0.77522 -0.27400
N 	N 	0.58670 0.78870 0.63150 -0.14100
N 	N 	0.55320 0.74140 0.67313 -0.14000
N 	N 	0.55110 0.82650 0.67662 -0.14000
N 	N 	0.56710 0.70590 0.34320 -0.27900
N 	N 	0.58970 0.56750 0.53500 -0.27600
N 	N 	0.99420 0.55580 0.42300 -0.27200
N 	N 	0.47140 0.62840 0.43763 -0.13600
N 	N 	0.32950 0.59480 0.45886 -0.14300
N 	N 	0.32240 0.62980 0.41190 -0.13500
N 	N 	0.88670 0.46220 0.39480 -0.27300
N 	N 	0.87630 0.11870 0.40413 -0.27300
N 	N 	0.06110 0.26550 0.22478 -0.27400
N 	N 	0.91330 0.28870 0.36850 -0.14100
N 	N 	0.94680 0.24140 0.32687 -0.14000
N 	N 	0.94890 0.32650 0.32338 -0.14000
N 	N 	0.43290 0.79410 0.84320 -0.27900
N 	N 	0.41030 0.93250 0.03500 -0.27600
N 	N 	0.00580 0.94420 0.92300 -0.27300
N 	N 	0.52860 0.87160 0.93763 -0.13600
N 	N 	0.67050 0.90520 0.95886 -0.14300
N 	N 	0.67760 0.87020 0.91190 -0.13500
N 	N 	0.11330 0.03780 0.89480 -0.27200
N 	N 	0.12370 0.38130 0.90413 -0.27300
N 	N 	0.93890 0.23450 0.72478 -0.27400
N 	N 	0.08670 0.21130 0.86850 -0.14100
N 	N 	0.05320 0.25860 0.82687 -0.14000
N 	N 	0.05110 0.17350 0.82338 -0.14000
