data_crystal

_cell_length_a 26.71270
_cell_length_b 17.97480
_cell_length_c 17.80240
_cell_angle_alpha 90.00000
_cell_angle_beta  90.00000
_cell_angle_gamma 90.00000

_symmetry_space_group_name_	'P 1'
_symmetry_space_group_name_H-M	'P 1'

loop_
_symmetry_equiv_pos_as_xyz
  x,y,z

loop_
_atom_site_label
_atom_site_type_symbol
_atom_site_fract_x
_atom_site_fract_y
_atom_site_fract_z
_atom_site_charge
O 	O 	0.92637 0.29610 0.43320 -0.56100
N 	N 	0.04515 0.13350 0.33310 -0.23200
C 	C 	0.94057 0.26660 0.37430 0.56000
O 	O 	0.93019 0.28790 0.30980 -0.52200
C 	C 	0.97421 0.19980 0.38050 -0.24100
O 	O 	0.11357 0.02812 0.34120 -0.44300
C 	C 	0.01284 0.18960 0.33140 0.17600
H 	H 	0.01690 0.22480 0.29360 -0.01500
O 	O 	0.06840 0.96350 0.42120 -0.24500
C 	C 	0.96830 0.14780 0.43350 0.13200
H 	H 	0.94300 0.15230 0.46920 0.01200
C 	C 	0.00010 0.08740 0.43450 -0.12800
H 	H 	0.99540 0.05000 0.46990 0.09800
C 	C 	0.03850 0.08180 0.38420 0.02000
C 	C 	0.07640 0.01900 0.38300 0.33400
O 	O 	0.92637 0.79610 0.93320 -0.56000
N 	N 	0.04515 0.63350 0.83310 -0.23300
C 	C 	0.94057 0.76660 0.87430 0.55800
O 	O 	0.93019 0.78790 0.80980 -0.52200
C 	C 	0.97421 0.69980 0.88050 -0.24100
O 	O 	0.11357 0.52812 0.84120 -0.44300
C 	C 	0.01284 0.68960 0.83140 0.17500
H 	H 	0.01690 0.72480 0.79360 -0.01500
O 	O 	0.06840 0.46350 0.92120 -0.24500
C 	C 	0.96830 0.64780 0.93350 0.13400
H 	H 	0.94300 0.65230 0.96920 0.01200
C 	C 	0.00010 0.58740 0.93450 -0.13200
H 	H 	0.99540 0.55000 0.96990 0.10000
C 	C 	0.03850 0.58180 0.88420 0.02200
C 	C 	0.07640 0.51900 0.88300 0.33400
O 	O 	0.42637 0.29610 0.93320 -0.56300
N 	N 	0.54515 0.13350 0.83310 -0.23300
C 	C 	0.44057 0.26660 0.87430 0.55900
O 	O 	0.43019 0.28790 0.80980 -0.52300
C 	C 	0.47421 0.19980 0.88050 -0.24200
O 	O 	0.61357 0.02812 0.84120 -0.44300
C 	C 	0.51284 0.18960 0.83140 0.17500
H 	H 	0.51690 0.22480 0.79360 -0.01500
O 	O 	0.56840 0.96350 0.92120 -0.24000
C 	C 	0.46830 0.14780 0.93350 0.13000
H 	H 	0.44300 0.15230 0.96920 0.01200
C 	C 	0.50010 0.08740 0.93450 -0.12700
H 	H 	0.49540 0.05000 0.96990 0.09600
C 	C 	0.53850 0.08180 0.88420 0.02100
C 	C 	0.57640 0.01900 0.88300 0.33100
O 	O 	0.42637 0.79610 0.43320 -0.56200
N 	N 	0.54515 0.63350 0.33310 -0.23300
C 	C 	0.44057 0.76660 0.37430 0.55900
O 	O 	0.43019 0.78790 0.30980 -0.52300
C 	C 	0.47421 0.69980 0.38050 -0.24100
O 	O 	0.61357 0.52812 0.34120 -0.44400
C 	C 	0.51284 0.68960 0.33140 0.17500
H 	H 	0.51690 0.72480 0.29360 -0.01500
O 	O 	0.56840 0.46350 0.42120 -0.24500
C 	C 	0.46830 0.64780 0.43350 0.13000
H 	H 	0.44300 0.65230 0.46920 0.01300
C 	C 	0.50010 0.58740 0.43450 -0.12600
H 	H 	0.49540 0.55000 0.46990 0.09700
C 	C 	0.53850 0.58180 0.38420 0.02000
C 	C 	0.57640 0.51900 0.38300 0.33500
O 	O 	0.82363 0.45390 0.43320 -0.56200
N 	N 	0.70485 0.61650 0.33310 -0.23300
C 	C 	0.80943 0.48340 0.37430 0.55900
O 	O 	0.81981 0.46210 0.30980 -0.52300
C 	C 	0.77579 0.55020 0.38050 -0.24100
O 	O 	0.63643 0.72188 0.34120 -0.44400
C 	C 	0.73716 0.56040 0.33140 0.17500
H 	H 	0.73310 0.52520 0.29360 -0.01500
O 	O 	0.68160 0.78650 0.42120 -0.24500
C 	C 	0.78170 0.60220 0.43350 0.13000
H 	H 	0.80700 0.59770 0.46920 0.01300
C 	C 	0.74990 0.66260 0.43450 -0.12600
H 	H 	0.75460 0.70000 0.46990 0.09700
C 	C 	0.71150 0.66820 0.38420 0.02000
C 	C 	0.67360 0.73100 0.38300 0.33500
O 	O 	0.82363 0.95390 0.93320 -0.56000
N 	N 	0.70485 0.11650 0.83310 -0.23300
C 	C 	0.80943 0.98340 0.87430 0.56100
O 	O 	0.81981 0.96210 0.80980 -0.52300
C 	C 	0.77579 0.05020 0.88050 -0.24400
O 	O 	0.63643 0.22188 0.84120 -0.44300
C 	C 	0.73716 0.06040 0.83140 0.17600
H 	H 	0.73310 0.02520 0.79360 -0.01600
O 	O 	0.68160 0.28650 0.92120 -0.24500
C 	C 	0.78170 0.10220 0.93350 0.13100
H 	H 	0.80700 0.09770 0.96920 0.01200
C 	C 	0.74990 0.16260 0.93450 -0.12700
H 	H 	0.75460 0.20000 0.96990 0.09700
C 	C 	0.71150 0.16820 0.88420 0.02000
C 	C 	0.67360 0.23100 0.88300 0.33500
O 	O 	0.32363 0.45390 0.93320 -0.56300
N 	N 	0.20485 0.61650 0.83310 -0.23300
C 	C 	0.30943 0.48340 0.87430 0.55900
O 	O 	0.31981 0.46210 0.80980 -0.52300
C 	C 	0.27579 0.55020 0.88050 -0.24100
O 	O 	0.13643 0.72188 0.84120 -0.44300
C 	C 	0.23716 0.56040 0.83140 0.17500
H 	H 	0.23310 0.52520 0.79360 -0.01500
O 	O 	0.18160 0.78650 0.92120 -0.24400
C 	C 	0.28170 0.60220 0.93350 0.13000
H 	H 	0.30700 0.59770 0.96920 0.01300
C 	C 	0.24990 0.66260 0.93450 -0.12600
H 	H 	0.25460 0.70000 0.96990 0.09800
C 	C 	0.21150 0.66820 0.88420 0.02000
C 	C 	0.17360 0.73100 0.88300 0.33500
O 	O 	0.32363 0.95390 0.43320 -0.56200
N 	N 	0.20485 0.11650 0.33310 -0.23200
C 	C 	0.30943 0.98340 0.37430 0.55800
O 	O 	0.31981 0.96210 0.30980 -0.52300
C 	C 	0.27579 0.05020 0.38050 -0.24000
O 	O 	0.13643 0.22188 0.34120 -0.44400
C 	C 	0.23716 0.06040 0.33140 0.17500
H 	H 	0.23310 0.02520 0.29360 -0.01400
O 	O 	0.18160 0.28650 0.42120 -0.24500
C 	C 	0.28170 0.10220 0.43350 0.12900
H 	H 	0.30700 0.09770 0.46920 0.01300
C 	C 	0.24990 0.16260 0.43450 -0.12500
H 	H 	0.25460 0.20000 0.46990 0.09700
C 	C 	0.21150 0.16820 0.38420 0.01900
C 	C 	0.17360 0.23100 0.38300 0.33500
O 	O 	0.82363 0.29610 0.31680 -0.56200
N 	N 	0.70485 0.13350 0.41690 -0.23200
C 	C 	0.80943 0.26660 0.37570 0.55900
O 	O 	0.81981 0.28790 0.44020 -0.52300
C 	C 	0.77579 0.19980 0.36950 -0.24100
O 	O 	0.63643 0.02812 0.40880 -0.44400
C 	C 	0.73716 0.18960 0.41860 0.17500
H 	H 	0.73310 0.22480 0.45640 -0.01500
O 	O 	0.68160 0.96350 0.32880 -0.24600
C 	C 	0.78170 0.14780 0.31650 0.13000
H 	H 	0.80700 0.15230 0.28080 0.01300
C 	C 	0.74990 0.08740 0.31550 -0.12500
H 	H 	0.75460 0.05000 0.28010 0.09700
C 	C 	0.71150 0.08180 0.36580 0.01900
C 	C 	0.67360 0.01900 0.36700 0.33700
O 	O 	0.82363 0.79610 0.81680 -0.56200
N 	N 	0.70485 0.63350 0.91690 -0.23200
C 	C 	0.80943 0.76660 0.87570 0.55800
O 	O 	0.81981 0.78790 0.94020 -0.52000
C 	C 	0.77579 0.69980 0.86950 -0.24000
O 	O 	0.63643 0.52812 0.90880 -0.44400
C 	C 	0.73716 0.68960 0.91860 0.17500
H 	H 	0.73310 0.72480 0.95640 -0.01400
O 	O 	0.68160 0.46350 0.82880 -0.24500
C 	C 	0.78170 0.64780 0.81650 0.12900
H 	H 	0.80700 0.65230 0.78080 0.01300
C 	C 	0.74990 0.58740 0.81550 -0.12500
H 	H 	0.75460 0.55000 0.78010 0.09700
C 	C 	0.71150 0.58180 0.86580 0.01900
C 	C 	0.67360 0.51900 0.86700 0.33500
O 	O 	0.32363 0.29610 0.81680 -0.56300
N 	N 	0.20485 0.13350 0.91690 -0.23300
C 	C 	0.30943 0.26660 0.87570 0.55900
O 	O 	0.31981 0.28790 0.94020 -0.52400
C 	C 	0.27579 0.19980 0.86950 -0.24100
O 	O 	0.13643 0.02812 0.90880 -0.44300
C 	C 	0.23716 0.18960 0.91860 0.17500
H 	H 	0.23310 0.22480 0.95640 -0.01600
O 	O 	0.18160 0.96350 0.82880 -0.24100
C 	C 	0.28170 0.14780 0.81650 0.13000
H 	H 	0.30700 0.15230 0.78080 0.01300
C 	C 	0.24990 0.08740 0.81550 -0.12700
H 	H 	0.25460 0.05000 0.78010 0.09600
C 	C 	0.21150 0.08180 0.86580 0.02000
C 	C 	0.17360 0.01900 0.86700 0.33100
O 	O 	0.32363 0.79610 0.31680 -0.56200
N 	N 	0.20485 0.63350 0.41690 -0.23300
C 	C 	0.30943 0.76660 0.37570 0.55900
O 	O 	0.31981 0.78790 0.44020 -0.52300
C 	C 	0.27579 0.69980 0.36950 -0.24100
O 	O 	0.13643 0.52812 0.40880 -0.44400
C 	C 	0.23716 0.68960 0.41860 0.17500
H 	H 	0.23310 0.72480 0.45640 -0.01500
O 	O 	0.18160 0.46350 0.32880 -0.24500
C 	C 	0.28170 0.64780 0.31650 0.13000
H 	H 	0.30700 0.65230 0.28080 0.01300
C 	C 	0.24990 0.58740 0.31550 -0.12600
H 	H 	0.25460 0.55000 0.28010 0.09700
C 	C 	0.21150 0.58180 0.36580 0.02000
C 	C 	0.17360 0.51900 0.36700 0.33500
O 	O 	0.92637 0.45390 0.31680 -0.56200
N 	N 	0.04515 0.61650 0.41690 -0.23200
C 	C 	0.94057 0.48340 0.37570 0.55800
O 	O 	0.93019 0.46210 0.44020 -0.52300
C 	C 	0.97421 0.55020 0.36950 -0.24000
O 	O 	0.11357 0.72188 0.40880 -0.44400
C 	C 	0.01284 0.56040 0.41860 0.17500
H 	H 	0.01690 0.52520 0.45640 -0.01500
O 	O 	0.06840 0.78650 0.32880 -0.24500
C 	C 	0.96830 0.60220 0.31650 0.12600
H 	H 	0.94300 0.59770 0.28080 0.01400
C 	C 	0.00010 0.66260 0.31550 -0.12100
H 	H 	0.99540 0.70000 0.28010 0.09400
C 	C 	0.03850 0.66820 0.36580 0.01800
C 	C 	0.07640 0.73100 0.36700 0.33600
O 	O 	0.92637 0.95390 0.81680 -0.56200
N 	N 	0.04515 0.11650 0.91690 -0.23300
C 	C 	0.94057 0.98340 0.87570 0.56100
O 	O 	0.93019 0.96210 0.94020 -0.52000
C 	C 	0.97421 0.05020 0.86950 -0.24300
O 	O 	0.11357 0.22188 0.90880 -0.44300
C 	C 	0.01284 0.06040 0.91860 0.17400
H 	H 	0.01690 0.02520 0.95640 -0.01600
O 	O 	0.06840 0.28650 0.82880 -0.24500
C 	C 	0.96830 0.10220 0.81650 0.13600
H 	H 	0.94300 0.09770 0.78080 0.01100
C 	C 	0.00010 0.16260 0.81550 -0.13400
H 	H 	0.99540 0.20000 0.78010 0.10000
C 	C 	0.03850 0.16820 0.86580 0.02200
C 	C 	0.07640 0.23100 0.86700 0.33400
O 	O 	0.42637 0.45390 0.81680 -0.56200
N 	N 	0.54515 0.61650 0.91690 -0.23300
C 	C 	0.44057 0.48340 0.87570 0.55900
O 	O 	0.43019 0.46210 0.94020 -0.52300
C 	C 	0.47421 0.55020 0.86950 -0.24100
O 	O 	0.61357 0.72188 0.90880 -0.44300
C 	C 	0.51284 0.56040 0.91860 0.17500
H 	H 	0.51690 0.52520 0.95640 -0.01500
O 	O 	0.56840 0.78650 0.82880 -0.24400
C 	C 	0.46830 0.60220 0.81650 0.13000
H 	H 	0.44300 0.59770 0.78080 0.01300
C 	C 	0.50010 0.66260 0.81550 -0.12600
H 	H 	0.49540 0.70000 0.78010 0.09700
C 	C 	0.53850 0.66820 0.86580 0.02000
C 	C 	0.57640 0.73100 0.86700 0.33500
O 	O 	0.42637 0.95390 0.31680 -0.56200
N 	N 	0.54515 0.11650 0.41690 -0.23200
C 	C 	0.44057 0.98340 0.37570 0.55700
O 	O 	0.43019 0.96210 0.44020 -0.52300
C 	C 	0.47421 0.05020 0.36950 -0.23900
O 	O 	0.61357 0.22188 0.40880 -0.44400
C 	C 	0.51284 0.06040 0.41860 0.17500
H 	H 	0.51690 0.02520 0.45640 -0.01500
O 	O 	0.56840 0.28650 0.32880 -0.24500
C 	C 	0.46830 0.10220 0.31650 0.12900
H 	H 	0.44300 0.09770 0.28080 0.01400
C 	C 	0.50010 0.16260 0.31550 -0.12500
H 	H 	0.49540 0.20000 0.28010 0.09700
C 	C 	0.53850 0.16820 0.36580 0.01900
C 	C 	0.57640 0.23100 0.36700 0.33500
O 	O 	0.07363 0.70390 0.56680 -0.56200
N 	N 	0.95485 0.86650 0.66690 -0.23300
C 	C 	0.05943 0.73340 0.62570 0.55900
O 	O 	0.06981 0.71210 0.69020 -0.52300
C 	C 	0.02579 0.80020 0.61950 -0.24200
O 	O 	0.88643 0.97188 0.65880 -0.44300
C 	C 	0.98716 0.81040 0.66860 0.17600
H 	H 	0.98310 0.77520 0.70640 -0.01500
O 	O 	0.93160 0.03650 0.57880 -0.24500
C 	C 	0.03170 0.85220 0.56650 0.13200
H 	H 	0.05700 0.84770 0.53080 0.01200
C 	C 	0.99990 0.91260 0.56550 -0.12800
H 	H 	0.00460 0.95000 0.53010 0.09800
C 	C 	0.96150 0.91820 0.61580 0.02000
C 	C 	0.92360 0.98100 0.61700 0.33400
O 	O 	0.07363 0.20390 0.06680 -0.56000
N 	N 	0.95485 0.36650 0.16690 -0.23300
C 	C 	0.05943 0.23340 0.12570 0.55800
O 	O 	0.06981 0.21210 0.19020 -0.52200
C 	C 	0.02579 0.30020 0.11950 -0.24100
O 	O 	0.88643 0.47188 0.15880 -0.44300
C 	C 	0.98716 0.31040 0.16860 0.17500
H 	H 	0.98310 0.27520 0.20640 -0.01500
O 	O 	0.93160 0.53650 0.07880 -0.24500
C 	C 	0.03170 0.35220 0.06650 0.13400
H 	H 	0.05700 0.34770 0.03080 0.01200
C 	C 	0.99990 0.41260 0.06550 -0.13200
H 	H 	0.00460 0.45000 0.03010 0.10000
C 	C 	0.96150 0.41820 0.11580 0.02200
C 	C 	0.92360 0.48100 0.11700 0.33400
O 	O 	0.57363 0.70390 0.06680 -0.56300
N 	N 	0.45485 0.86650 0.16690 -0.23300
C 	C 	0.55943 0.73340 0.12570 0.55900
O 	O 	0.56981 0.71210 0.19020 -0.52300
C 	C 	0.52579 0.80020 0.11950 -0.24200
O 	O 	0.38643 0.97188 0.15880 -0.44300
C 	C 	0.48716 0.81040 0.16860 0.17500
H 	H 	0.48310 0.77520 0.20640 -0.01500
O 	O 	0.43160 0.03650 0.07880 -0.24000
C 	C 	0.53170 0.85220 0.06650 0.13000
H 	H 	0.55700 0.84770 0.03080 0.01200
C 	C 	0.49990 0.91260 0.06550 -0.12700
H 	H 	0.50460 0.95000 0.03010 0.09600
C 	C 	0.46150 0.91820 0.11580 0.02100
C 	C 	0.42360 0.98100 0.11700 0.33100
O 	O 	0.57363 0.20390 0.56680 -0.56200
N 	N 	0.45485 0.36650 0.66690 -0.23300
C 	C 	0.55943 0.23340 0.62570 0.55900
O 	O 	0.56981 0.21210 0.69020 -0.52300
C 	C 	0.52579 0.30020 0.61950 -0.24100
O 	O 	0.38643 0.47188 0.65880 -0.44400
C 	C 	0.48716 0.31040 0.66860 0.17500
H 	H 	0.48310 0.27520 0.70640 -0.01500
O 	O 	0.43160 0.53650 0.57880 -0.24500
C 	C 	0.53170 0.35220 0.56650 0.13000
H 	H 	0.55700 0.34770 0.53080 0.01300
C 	C 	0.49990 0.41260 0.56550 -0.12600
H 	H 	0.50460 0.45000 0.53010 0.09700
C 	C 	0.46150 0.41820 0.61580 0.02000
C 	C 	0.42360 0.48100 0.61700 0.33500
O 	O 	0.17637 0.54610 0.56680 -0.56200
N 	N 	0.29515 0.38350 0.66690 -0.23300
C 	C 	0.19057 0.51660 0.62570 0.55900
O 	O 	0.18019 0.53790 0.69020 -0.52300
C 	C 	0.22421 0.44980 0.61950 -0.24100
O 	O 	0.36357 0.27812 0.65880 -0.44400
C 	C 	0.26284 0.43960 0.66860 0.17500
H 	H 	0.26690 0.47480 0.70640 -0.01500
O 	O 	0.31840 0.21350 0.57880 -0.24500
C 	C 	0.21830 0.39780 0.56650 0.13000
H 	H 	0.19300 0.40230 0.53080 0.01300
C 	C 	0.25010 0.33740 0.56550 -0.12600
H 	H 	0.24540 0.30000 0.53010 0.09700
C 	C 	0.28850 0.33180 0.61580 0.02000
C 	C 	0.32640 0.26900 0.61700 0.33500
O 	O 	0.17637 0.04610 0.06680 -0.56000
N 	N 	0.29515 0.88350 0.16690 -0.23300
C 	C 	0.19057 0.01660 0.12570 0.56100
O 	O 	0.18019 0.03790 0.19020 -0.52300
C 	C 	0.22421 0.94980 0.11950 -0.24400
O 	O 	0.36357 0.77812 0.15880 -0.44300
C 	C 	0.26284 0.93960 0.16860 0.17600
H 	H 	0.26690 0.97480 0.20640 -0.01600
O 	O 	0.31840 0.71350 0.07880 -0.24400
C 	C 	0.21830 0.89780 0.06650 0.13100
H 	H 	0.19300 0.90230 0.03080 0.01200
C 	C 	0.25010 0.83740 0.06550 -0.12700
H 	H 	0.24540 0.80000 0.03010 0.09700
C 	C 	0.28850 0.83180 0.11580 0.02000
C 	C 	0.32640 0.76900 0.11700 0.33500
O 	O 	0.67637 0.54610 0.06680 -0.56300
N 	N 	0.79515 0.38350 0.16690 -0.23300
C 	C 	0.69057 0.51660 0.12570 0.55900
O 	O 	0.68019 0.53790 0.19020 -0.52300
C 	C 	0.72421 0.44980 0.11950 -0.24100
O 	O 	0.86357 0.27812 0.15880 -0.44300
C 	C 	0.76284 0.43960 0.16860 0.17500
H 	H 	0.76690 0.47480 0.20640 -0.01500
O 	O 	0.81840 0.21350 0.07880 -0.24400
C 	C 	0.71830 0.39780 0.06650 0.13000
H 	H 	0.69300 0.40230 0.03080 0.01300
C 	C 	0.75010 0.33740 0.06550 -0.12600
H 	H 	0.74540 0.30000 0.03010 0.09800
C 	C 	0.78850 0.33180 0.11580 0.02000
C 	C 	0.82640 0.26900 0.11700 0.33500
O 	O 	0.67637 0.04610 0.56680 -0.56200
N 	N 	0.79515 0.88350 0.66690 -0.23200
C 	C 	0.69057 0.01660 0.62570 0.55800
O 	O 	0.68019 0.03790 0.69020 -0.52300
C 	C 	0.72421 0.94980 0.61950 -0.24000
O 	O 	0.86357 0.77812 0.65880 -0.44400
C 	C 	0.76284 0.93960 0.66860 0.17500
H 	H 	0.76690 0.97480 0.70640 -0.01400
O 	O 	0.81840 0.71350 0.57880 -0.24500
C 	C 	0.71830 0.89780 0.56650 0.12900
H 	H 	0.69300 0.90230 0.53080 0.01300
C 	C 	0.75010 0.83740 0.56550 -0.12500
H 	H 	0.74540 0.80000 0.53010 0.09700
C 	C 	0.78850 0.83180 0.61580 0.01900
C 	C 	0.82640 0.76900 0.61700 0.33500
O 	O 	0.17637 0.70390 0.68320 -0.56200
N 	N 	0.29515 0.86650 0.58310 -0.23200
C 	C 	0.19057 0.73340 0.62430 0.55900
O 	O 	0.18019 0.71210 0.55980 -0.52300
C 	C 	0.22421 0.80020 0.63050 -0.24100
O 	O 	0.36357 0.97188 0.59120 -0.44400
C 	C 	0.26284 0.81040 0.58140 0.17500
H 	H 	0.26690 0.77520 0.54360 -0.01500
O 	O 	0.31840 0.03650 0.67120 -0.24600
C 	C 	0.21830 0.85220 0.68350 0.13000
H 	H 	0.19300 0.84770 0.71920 0.01300
C 	C 	0.25010 0.91260 0.68450 -0.12500
H 	H 	0.24540 0.95000 0.71990 0.09700
C 	C 	0.28850 0.91820 0.63420 0.01900
C 	C 	0.32640 0.98100 0.63300 0.33700
O 	O 	0.17637 0.20390 0.18320 -0.56200
N 	N 	0.29515 0.36650 0.08310 -0.23200
C 	C 	0.19057 0.23340 0.12430 0.55800
O 	O 	0.18019 0.21210 0.05980 -0.52000
C 	C 	0.22421 0.30020 0.13050 -0.24000
O 	O 	0.36357 0.47188 0.09120 -0.44400
C 	C 	0.26284 0.31040 0.08140 0.17500
H 	H 	0.26690 0.27520 0.04360 -0.01400
O 	O 	0.31840 0.53650 0.17120 -0.24500
C 	C 	0.21830 0.35220 0.18350 0.12900
H 	H 	0.19300 0.34770 0.21920 0.01300
C 	C 	0.25010 0.41260 0.18450 -0.12500
H 	H 	0.24540 0.45000 0.21990 0.09700
C 	C 	0.28850 0.41820 0.13420 0.01900
C 	C 	0.32640 0.48100 0.13300 0.33500
O 	O 	0.67637 0.70390 0.18320 -0.56300
N 	N 	0.79515 0.86650 0.08310 -0.23300
C 	C 	0.69057 0.73340 0.12430 0.55900
O 	O 	0.68019 0.71210 0.05980 -0.52400
C 	C 	0.72421 0.80020 0.13050 -0.24100
O 	O 	0.86357 0.97188 0.09120 -0.44300
C 	C 	0.76284 0.81040 0.08140 0.17500
H 	H 	0.76690 0.77520 0.04360 -0.01600
O 	O 	0.81840 0.03650 0.17120 -0.24100
C 	C 	0.71830 0.85220 0.18350 0.13000
H 	H 	0.69300 0.84770 0.21920 0.01300
C 	C 	0.75010 0.91260 0.18450 -0.12700
H 	H 	0.74540 0.95000 0.21990 0.09600
C 	C 	0.78850 0.91820 0.13420 0.02000
C 	C 	0.82640 0.98100 0.13300 0.33100
O 	O 	0.67637 0.20390 0.68320 -0.56200
N 	N 	0.79515 0.36650 0.58310 -0.23300
C 	C 	0.69057 0.23340 0.62430 0.55900
O 	O 	0.68019 0.21210 0.55980 -0.52300
C 	C 	0.72421 0.30020 0.63050 -0.24100
O 	O 	0.86357 0.47188 0.59120 -0.44400
C 	C 	0.76284 0.31040 0.58140 0.17500
H 	H 	0.76690 0.27520 0.54360 -0.01500
O 	O 	0.81840 0.53650 0.67120 -0.24500
C 	C 	0.71830 0.35220 0.68350 0.13000
H 	H 	0.69300 0.34770 0.71920 0.01300
C 	C 	0.75010 0.41260 0.68450 -0.12600
H 	H 	0.74540 0.45000 0.71990 0.09700
C 	C 	0.78850 0.41820 0.63420 0.02000
C 	C 	0.82640 0.48100 0.63300 0.33500
O 	O 	0.07363 0.54610 0.68320 -0.56200
N 	N 	0.95485 0.38350 0.58310 -0.23200
C 	C 	0.05943 0.51660 0.62430 0.55800
O 	O 	0.06981 0.53790 0.55980 -0.52300
C 	C 	0.02579 0.44980 0.63050 -0.24000
O 	O 	0.88643 0.27812 0.59120 -0.44400
C 	C 	0.98716 0.43960 0.58140 0.17500
H 	H 	0.98310 0.47480 0.54360 -0.01500
O 	O 	0.93160 0.21350 0.67120 -0.24500
C 	C 	0.03170 0.39780 0.68350 0.12600
H 	H 	0.05700 0.40230 0.71920 0.01400
C 	C 	0.99990 0.33740 0.68450 -0.12100
H 	H 	0.00460 0.30000 0.71990 0.09400
C 	C 	0.96150 0.33180 0.63420 0.01800
C 	C 	0.92360 0.26900 0.63300 0.33600
O 	O 	0.07363 0.04610 0.18320 -0.56200
N 	N 	0.95485 0.88350 0.08310 -0.23300
C 	C 	0.05943 0.01660 0.12430 0.56100
O 	O 	0.06981 0.03790 0.05980 -0.52000
C 	C 	0.02579 0.94980 0.13050 -0.24300
O 	O 	0.88643 0.77812 0.09120 -0.44300
C 	C 	0.98716 0.93960 0.08140 0.17400
H 	H 	0.98310 0.97480 0.04360 -0.01600
O 	O 	0.93160 0.71350 0.17120 -0.24500
C 	C 	0.03170 0.89780 0.18350 0.13600
H 	H 	0.05700 0.90230 0.21920 0.01100
C 	C 	0.99990 0.83740 0.18450 -0.13400
H 	H 	0.00460 0.80000 0.21990 0.10000
C 	C 	0.96150 0.83180 0.13420 0.02200
C 	C 	0.92360 0.76900 0.13300 0.33400
O 	O 	0.57363 0.54610 0.18320 -0.56200
N 	N 	0.45485 0.38350 0.08310 -0.23300
C 	C 	0.55943 0.51660 0.12430 0.55900
O 	O 	0.56981 0.53790 0.05980 -0.52300
C 	C 	0.52579 0.44980 0.13050 -0.24100
O 	O 	0.38643 0.27812 0.09120 -0.44300
C 	C 	0.48716 0.43960 0.08140 0.17500
H 	H 	0.48310 0.47480 0.04360 -0.01500
O 	O 	0.43160 0.21350 0.17120 -0.24400
C 	C 	0.53170 0.39780 0.18350 0.13000
H 	H 	0.55700 0.40230 0.21920 0.01300
C 	C 	0.49990 0.33740 0.18450 -0.12600
H 	H 	0.50460 0.30000 0.21990 0.09700
C 	C 	0.46150 0.33180 0.13420 0.02000
C 	C 	0.42360 0.26900 0.13300 0.33500
O 	O 	0.57363 0.04610 0.68320 -0.56200
N 	N 	0.45485 0.88350 0.58310 -0.23200
C 	C 	0.55943 0.01660 0.62430 0.55700
O 	O 	0.56981 0.03790 0.55980 -0.52300
C 	C 	0.52579 0.94980 0.63050 -0.23900
O 	O 	0.38643 0.77812 0.59120 -0.44400
C 	C 	0.48716 0.93960 0.58140 0.17500
H 	H 	0.48310 0.97480 0.54360 -0.01500
O 	O 	0.43160 0.71350 0.67120 -0.24500
C 	C 	0.53170 0.89780 0.68350 0.12900
H 	H 	0.55700 0.90230 0.71920 0.01400
C 	C 	0.49990 0.83740 0.68450 -0.12500
H 	H 	0.50460 0.80000 0.71990 0.09700
C 	C 	0.46150 0.83180 0.63420 0.01900
C 	C 	0.42360 0.76900 0.63300 0.33500
Eu	Eu	0.87500 0.37500 0.50205 2.11900
Eu	Eu	0.87500 0.87500 0.00205 2.11000
Eu	Eu	0.37500 0.37500 0.00205 2.12400
Eu	Eu	0.37500 0.87500 0.50205 2.11800
Eu	Eu	0.87500 0.37500 0.24795 2.11800
Eu	Eu	0.87500 0.87500 0.74796 2.11900
Eu	Eu	0.37500 0.37500 0.74796 2.11900
Eu	Eu	0.37500 0.87500 0.24795 2.11800
Eu	Eu	0.12500 0.62500 0.49795 2.11900
Eu	Eu	0.12500 0.12500 0.99796 2.11000
Eu	Eu	0.62500 0.62500 0.99796 2.12400
Eu	Eu	0.62500 0.12500 0.49795 2.11800
Eu	Eu	0.12500 0.62500 0.75205 2.11800
Eu	Eu	0.12500 0.12500 0.25205 2.11900
Eu	Eu	0.62500 0.62500 0.25205 2.11900
Eu	Eu	0.62500 0.12500 0.75205 2.11800
