data_crystal

_cell_length_a 17.72600
_cell_length_b 17.72600
_cell_length_c 38.49100
_cell_angle_alpha 90.00000
_cell_angle_beta  90.00000
_cell_angle_gamma 90.00000

_symmetry_space_group_name_	'P 1'
_symmetry_space_group_name_H-M	'P 1'

loop_
_symmetry_equiv_pos_as_xyz
  x,y,z

loop_
_atom_site_label
_atom_site_type_symbol
_atom_site_fract_x
_atom_site_fract_y
_atom_site_fract_z
_atom_site_charge
C 	C 	0.25940 0.65250 0.01200 0.34300
C 	C 	0.27590 0.71080 0.03835 -0.01200
C 	C 	0.40070 0.52990 0.13182 0.37900
C 	C 	0.46090 0.54910 0.10622 -0.00500
Co	Co	0.31579 0.56676 0.07005 1.15400
F 	F 	0.34760 0.68670 0.13870 -0.32100
F 	F 	0.29970 0.79680 0.14310 -0.32200
F 	F 	0.40980 0.78150 0.12710 -0.30400
F 	F 	0.56070 0.62880 0.00720 -0.34800
F 	F 	0.45760 0.57170 0.99950 -0.31800
F 	F 	0.45640 0.67850 0.01840 -0.27400
N 	N 	0.30090 0.68620 0.06969 -0.14300
N 	N 	0.43670 0.57250 0.07441 -0.12800
O 	O 	0.28000 0.58603 0.01933 -0.34400
O 	O 	0.22490 0.66730 0.98413 -0.37300
O 	O 	0.33419 0.53620 0.12097 -0.37300
O 	O 	0.41540 0.50840 0.16203 -0.37900
C 	C 	0.75940 0.15250 0.51200 0.34400
C 	C 	0.77590 0.21080 0.53835 -0.00500
C 	C 	0.90070 0.02990 0.63182 0.32900
C 	C 	0.96090 0.04910 0.60622 0.17300
Co	Co	0.81579 0.06676 0.57005 1.15800
F 	F 	0.84760 0.18670 0.63870 -0.31400
F 	F 	0.79970 0.29680 0.64310 -0.31100
F 	F 	0.90980 0.28150 0.62710 -0.27700
F 	F 	0.06070 0.12880 0.50720 -0.31300
F 	F 	0.95760 0.07170 0.49950 -0.22500
F 	F 	0.95640 0.17850 0.51840 -0.18800
N 	N 	0.80090 0.18620 0.56969 -0.14000
N 	N 	0.93670 0.07250 0.57441 -0.08900
O 	O 	0.78000 0.08603 0.51933 -0.33400
O 	O 	0.72490 0.16730 0.48413 -0.35700
O 	O 	0.83419 0.03620 0.62097 -0.35200
O 	O 	0.91540 0.00840 0.66203 -0.31200
C 	C 	0.24060 0.34750 0.51200 0.34200
C 	C 	0.22410 0.28920 0.53835 -0.00900
C 	C 	0.09930 0.47010 0.63182 0.42000
C 	C 	0.03910 0.45090 0.60622 -0.17800
Co	Co	0.18421 0.43324 0.57005 1.15500
F 	F 	0.15240 0.31330 0.63870 -0.32800
F 	F 	0.20030 0.20320 0.64310 -0.31900
F 	F 	0.09020 0.21850 0.62710 -0.32400
F 	F 	0.93930 0.37120 0.50720 -0.30700
F 	F 	0.04240 0.42830 0.49950 -0.34700
F 	F 	0.04360 0.32150 0.51840 -0.30600
N 	N 	0.19910 0.31380 0.56969 -0.14000
N 	N 	0.06330 0.42750 0.57441 -0.10000
O 	O 	0.22000 0.41397 0.51933 -0.34000
O 	O 	0.27510 0.33270 0.48413 -0.36200
O 	O 	0.16581 0.46380 0.62097 -0.38400
O 	O 	0.08460 0.49160 0.66203 -0.42000
C 	C 	0.74060 0.84750 0.01200 0.34500
C 	C 	0.72410 0.78920 0.03835 -0.00100
C 	C 	0.59930 0.97010 0.13182 0.37600
C 	C 	0.53910 0.95090 0.10622 -0.00500
Co	Co	0.68421 0.93324 0.07005 1.15900
F 	F 	0.65240 0.81330 0.13870 -0.32200
F 	F 	0.70030 0.70320 0.14310 -0.30700
F 	F 	0.59020 0.71850 0.12710 -0.30300
F 	F 	0.43930 0.87120 0.00720 -0.34800
F 	F 	0.54240 0.92830 0.99950 -0.31800
F 	F 	0.54360 0.82150 0.01840 -0.27500
N 	N 	0.69910 0.81380 0.06969 -0.13900
N 	N 	0.56330 0.92750 0.07441 -0.12800
O 	O 	0.72000 0.91397 0.01933 -0.33100
O 	O 	0.77510 0.83270 0.98413 -0.34700
O 	O 	0.66581 0.96380 0.12097 -0.36500
O 	O 	0.58460 0.99160 0.16203 -0.37700
C 	C 	0.59750 0.00940 0.26200 0.34300
C 	C 	0.53920 0.02590 0.28835 -0.00600
C 	C 	0.72010 0.15070 0.38182 0.37900
C 	C 	0.70090 0.21090 0.35622 -0.00200
Co	Co	0.68324 0.06579 0.32005 1.15800
F 	F 	0.56330 0.09760 0.38870 -0.32200
F 	F 	0.45320 0.04970 0.39310 -0.31500
F 	F 	0.46850 0.15980 0.37710 -0.30300
F 	F 	0.62120 0.31070 0.25720 -0.34800
F 	F 	0.67830 0.20760 0.24950 -0.31800
F 	F 	0.57150 0.20640 0.26840 -0.27500
N 	N 	0.56380 0.05090 0.31969 -0.14100
N 	N 	0.67750 0.18670 0.32441 -0.12700
O 	O 	0.66397 0.03000 0.26933 -0.33500
O 	O 	0.58270 0.97490 0.23413 -0.35800
O 	O 	0.71380 0.08419 0.37097 -0.36600
O 	O 	0.74160 0.16540 0.41203 -0.37200
C 	C 	0.09750 0.50940 0.76200 0.38700
C 	C 	0.03920 0.52590 0.78835 -0.18000
C 	C 	0.22010 0.65070 0.88182 0.37600
C 	C 	0.20090 0.71090 0.85622 -0.00900
Co	Co	0.18324 0.56579 0.82005 1.15500
F 	F 	0.06330 0.59760 0.88870 -0.28700
F 	F 	0.95320 0.54970 0.89310 -0.22500
F 	F 	0.96850 0.65980 0.87710 -0.17800
F 	F 	0.12120 0.81070 0.75720 -0.35200
F 	F 	0.17830 0.70760 0.74950 -0.32400
F 	F 	0.07150 0.70640 0.76840 -0.30800
N 	N 	0.06380 0.55090 0.81969 -0.11400
N 	N 	0.17750 0.68670 0.82441 -0.12700
O 	O 	0.16397 0.53000 0.76933 -0.35300
O 	O 	0.08270 0.47490 0.73413 -0.40300
O 	O 	0.21380 0.58419 0.87097 -0.37400
O 	O 	0.24160 0.66540 0.91203 -0.38400
C 	C 	0.90250 0.99060 0.76200 0.29600
C 	C 	0.96080 0.97410 0.78835 0.17200
C 	C 	0.77990 0.84930 0.88182 0.37600
C 	C 	0.79910 0.78910 0.85622 -0.00300
Co	Co	0.81676 0.93421 0.82005 1.15900
F 	F 	0.93670 0.90240 0.88870 -0.29200
F 	F 	0.04680 0.95030 0.89310 -0.34700
F 	F 	0.03150 0.84020 0.87710 -0.36700
F 	F 	0.87880 0.68930 0.75720 -0.34200
F 	F 	0.82170 0.79240 0.74950 -0.31100
F 	F 	0.92850 0.79360 0.76840 -0.23700
N 	N 	0.93620 0.94910 0.81969 -0.10200
N 	N 	0.82250 0.81330 0.82441 -0.12600
O 	O 	0.83603 0.97000 0.76933 -0.31900
O 	O 	0.91730 0.02510 0.73413 -0.29200
O 	O 	0.78620 0.91581 0.87097 -0.36200
O 	O 	0.75840 0.83460 0.91203 -0.37400
C 	C 	0.40250 0.49060 0.26200 0.34400
C 	C 	0.46080 0.47410 0.28835 -0.00700
C 	C 	0.27990 0.34930 0.38182 0.37500
C 	C 	0.29910 0.28910 0.35622 -0.00900
Co	Co	0.31676 0.43421 0.32005 1.15500
F 	F 	0.43670 0.40240 0.38870 -0.32200
F 	F 	0.54680 0.45030 0.39310 -0.31500
F 	F 	0.53150 0.34020 0.37710 -0.30300
F 	F 	0.37880 0.18930 0.25720 -0.34800
F 	F 	0.32170 0.29240 0.24950 -0.31800
F 	F 	0.42850 0.29360 0.26840 -0.27400
N 	N 	0.43620 0.44910 0.31969 -0.14100
N 	N 	0.32250 0.31330 0.32441 -0.12800
O 	O 	0.33603 0.47000 0.26933 -0.33900
O 	O 	0.41730 0.52510 0.23413 -0.36000
O 	O 	0.28620 0.41581 0.37097 -0.37100
O 	O 	0.25840 0.33460 0.41203 -0.38500
C 	C 	0.75940 0.34750 0.51200 0.34400
C 	C 	0.77590 0.28920 0.53835 -0.00500
C 	C 	0.90070 0.47010 0.63182 0.32800
C 	C 	0.96090 0.45090 0.60622 0.17600
Co	Co	0.81579 0.43324 0.57005 1.15800
F 	F 	0.84760 0.31330 0.63870 -0.31400
F 	F 	0.79970 0.20320 0.64310 -0.31100
F 	F 	0.90980 0.21850 0.62710 -0.27700
F 	F 	0.06070 0.37120 0.50720 -0.31200
F 	F 	0.95760 0.42830 0.49950 -0.22400
F 	F 	0.95640 0.32150 0.51840 -0.18700
N 	N 	0.80090 0.31380 0.56969 -0.14000
N 	N 	0.93670 0.42750 0.57441 -0.08900
O 	O 	0.78000 0.41397 0.51933 -0.33400
O 	O 	0.72490 0.33270 0.48413 -0.35700
O 	O 	0.83419 0.46380 0.62097 -0.35200
O 	O 	0.91540 0.49160 0.66203 -0.31100
C 	C 	0.25940 0.84750 0.01200 0.34200
C 	C 	0.27590 0.78920 0.03835 -0.01300
C 	C 	0.40070 0.97010 0.13182 0.37800
C 	C 	0.46090 0.95090 0.10622 -0.00600
Co	Co	0.31579 0.93324 0.07005 1.15400
F 	F 	0.34760 0.81330 0.13870 -0.32100
F 	F 	0.29970 0.70320 0.14310 -0.32200
F 	F 	0.40980 0.71850 0.12710 -0.30400
F 	F 	0.56070 0.87120 0.00720 -0.34800
F 	F 	0.45760 0.92830 0.99950 -0.31800
F 	F 	0.45640 0.82150 0.01840 -0.27400
N 	N 	0.30090 0.81380 0.06969 -0.14300
N 	N 	0.43670 0.92750 0.07441 -0.12800
O 	O 	0.28000 0.91397 0.01933 -0.34400
O 	O 	0.22490 0.83270 0.98413 -0.37300
O 	O 	0.33419 0.96380 0.12097 -0.37200
O 	O 	0.41540 0.99160 0.16203 -0.37900
C 	C 	0.74060 0.65250 0.01200 0.34500
C 	C 	0.72410 0.71080 0.03835 -0.00100
C 	C 	0.59930 0.52990 0.13182 0.37600
C 	C 	0.53910 0.54910 0.10622 -0.00500
Co	Co	0.68421 0.56676 0.07005 1.15900
F 	F 	0.65240 0.68670 0.13870 -0.32200
F 	F 	0.70030 0.79680 0.14310 -0.30700
F 	F 	0.59020 0.78150 0.12710 -0.30300
F 	F 	0.43930 0.62880 0.00720 -0.34800
F 	F 	0.54240 0.57170 0.99950 -0.31800
F 	F 	0.54360 0.67850 0.01840 -0.27500
N 	N 	0.69910 0.68620 0.06969 -0.13900
N 	N 	0.56330 0.57250 0.07441 -0.12800
O 	O 	0.72000 0.58603 0.01933 -0.33100
O 	O 	0.77510 0.66730 0.98413 -0.34700
O 	O 	0.66581 0.53620 0.12097 -0.36500
O 	O 	0.58460 0.50840 0.16203 -0.37700
C 	C 	0.24060 0.15250 0.51200 0.34200
C 	C 	0.22410 0.21080 0.53835 -0.00900
C 	C 	0.09930 0.02990 0.63182 0.42000
C 	C 	0.03910 0.04910 0.60622 -0.17600
Co	Co	0.18421 0.06676 0.57005 1.15600
F 	F 	0.15240 0.18670 0.63870 -0.32800
F 	F 	0.20030 0.29680 0.64310 -0.31900
F 	F 	0.09020 0.28150 0.62710 -0.32400
F 	F 	0.93930 0.12880 0.50720 -0.30800
F 	F 	0.04240 0.07170 0.49950 -0.34700
F 	F 	0.04360 0.17850 0.51840 -0.30600
N 	N 	0.19910 0.18620 0.56969 -0.14000
N 	N 	0.06330 0.07250 0.57441 -0.10100
O 	O 	0.22000 0.08603 0.51933 -0.34000
O 	O 	0.27510 0.16730 0.48413 -0.36200
O 	O 	0.16581 0.03620 0.62097 -0.38400
O 	O 	0.08460 0.00840 0.66203 -0.41900
C 	C 	0.09750 0.99060 0.76200 0.38600
C 	C 	0.03920 0.97410 0.78835 -0.17700
C 	C 	0.22010 0.84930 0.88182 0.37600
C 	C 	0.20090 0.78910 0.85622 -0.00800
Co	Co	0.18324 0.93421 0.82005 1.15500
F 	F 	0.06330 0.90240 0.88870 -0.28800
F 	F 	0.95320 0.95030 0.89310 -0.22600
F 	F 	0.96850 0.84020 0.87710 -0.17900
F 	F 	0.12120 0.68930 0.75720 -0.35200
F 	F 	0.17830 0.79240 0.74950 -0.32400
F 	F 	0.07150 0.79360 0.76840 -0.30800
N 	N 	0.06380 0.94910 0.81969 -0.11400
N 	N 	0.17750 0.81330 0.82441 -0.12700
O 	O 	0.16397 0.97000 0.76933 -0.35300
O 	O 	0.08270 0.02510 0.73413 -0.40200
O 	O 	0.21380 0.91581 0.87097 -0.37400
O 	O 	0.24160 0.83460 0.91203 -0.38300
C 	C 	0.59750 0.49060 0.26200 0.34300
C 	C 	0.53920 0.47410 0.28835 -0.00600
C 	C 	0.72010 0.34930 0.38182 0.37900
C 	C 	0.70090 0.28910 0.35622 -0.00200
Co	Co	0.68324 0.43421 0.32005 1.15800
F 	F 	0.56330 0.40240 0.38870 -0.32200
F 	F 	0.45320 0.45030 0.39310 -0.31500
F 	F 	0.46850 0.34020 0.37710 -0.30300
F 	F 	0.62120 0.18930 0.25720 -0.34800
F 	F 	0.67830 0.29240 0.24950 -0.31800
F 	F 	0.57150 0.29360 0.26840 -0.27500
N 	N 	0.56380 0.44910 0.31969 -0.14100
N 	N 	0.67750 0.31330 0.32441 -0.12700
O 	O 	0.66397 0.47000 0.26933 -0.33500
O 	O 	0.58270 0.52510 0.23413 -0.35800
O 	O 	0.71380 0.41581 0.37097 -0.36600
O 	O 	0.74160 0.33460 0.41203 -0.37200
C 	C 	0.40250 0.00940 0.26200 0.34400
C 	C 	0.46080 0.02590 0.28835 -0.00700
C 	C 	0.27990 0.15070 0.38182 0.37500
C 	C 	0.29910 0.21090 0.35622 -0.00900
Co	Co	0.31676 0.06579 0.32005 1.15500
F 	F 	0.43670 0.09760 0.38870 -0.32200
F 	F 	0.54680 0.04970 0.39310 -0.31500
F 	F 	0.53150 0.15980 0.37710 -0.30300
F 	F 	0.37880 0.31070 0.25720 -0.34800
F 	F 	0.32170 0.20760 0.24950 -0.31800
F 	F 	0.42850 0.20640 0.26840 -0.27400
N 	N 	0.43620 0.05090 0.31969 -0.14100
N 	N 	0.32250 0.18670 0.32441 -0.12800
O 	O 	0.33603 0.03000 0.26933 -0.33900
O 	O 	0.41730 0.97490 0.23413 -0.36000
O 	O 	0.28620 0.08419 0.37097 -0.37100
O 	O 	0.25840 0.16540 0.41203 -0.38500
C 	C 	0.90250 0.50940 0.76200 0.29600
C 	C 	0.96080 0.52590 0.78835 0.17400
C 	C 	0.77990 0.65070 0.88182 0.37600
C 	C 	0.79910 0.71090 0.85622 -0.00300
Co	Co	0.81676 0.56579 0.82005 1.15900
F 	F 	0.93670 0.59760 0.88870 -0.29100
F 	F 	0.04680 0.54970 0.89310 -0.34800
F 	F 	0.03150 0.65980 0.87710 -0.36700
F 	F 	0.87880 0.81070 0.75720 -0.34200
F 	F 	0.82170 0.70760 0.74950 -0.31100
F 	F 	0.92850 0.70640 0.76840 -0.23700
N 	N 	0.93620 0.55090 0.81969 -0.10200
N 	N 	0.82250 0.68670 0.82441 -0.12600
O 	O 	0.83603 0.53000 0.76933 -0.31900
O 	O 	0.91730 0.47490 0.73413 -0.29100
O 	O 	0.78620 0.58419 0.87097 -0.36200
O 	O 	0.75840 0.66540 0.91203 -0.37400
C 	C 	0.31460 0.75000 0.08741 -0.06800
C 	C 	0.34230 0.75000 0.12410 1.16700
C 	C 	0.18540 0.25000 0.58741 -0.07100
C 	C 	0.15770 0.25000 0.62410 1.17800
C 	C 	0.50000 0.06460 0.33741 -0.06300
C 	C 	0.50000 0.09230 0.37410 1.16500
C 	C 	0.00000 0.56460 0.83741 -0.15400
C 	C 	0.00000 0.59230 0.87410 0.99400
C 	C 	0.00000 0.93540 0.83741 -0.15200
C 	C 	0.00000 0.90770 0.87410 0.99500
C 	C 	0.50000 0.43540 0.33741 -0.06400
C 	C 	0.50000 0.40770 0.37410 1.16500
C 	C 	0.81460 0.25000 0.58741 -0.05200
C 	C 	0.84230 0.25000 0.62410 1.14900
C 	C 	0.68540 0.75000 0.08741 -0.05800
C 	C 	0.65770 0.75000 0.12410 1.16300
C 	C 	0.50000 0.58590 0.05670 -0.05200
C 	C 	0.50000 0.61550 0.02040 1.21300
Co	Co	0.50000 0.51855 0.19757 1.19300
C 	C 	0.00000 0.08590 0.55670 -0.14100
C 	C 	0.00000 0.11550 0.52040 1.03600
Co	Co	0.00000 0.01855 0.69757 1.13500
C 	C 	0.00000 0.41410 0.55670 -0.14300
C 	C 	0.00000 0.38450 0.52040 1.03400
Co	Co	0.00000 0.48145 0.69757 1.13300
C 	C 	0.50000 0.91410 0.05670 -0.05200
C 	C 	0.50000 0.88450 0.02040 1.21300
Co	Co	0.50000 0.98145 0.19757 1.19300
C 	C 	0.66410 0.25000 0.30670 -0.05000
C 	C 	0.63450 0.25000 0.27040 1.21300
Co	Co	0.73145 0.25000 0.44757 1.19500
C 	C 	0.83590 0.75000 0.80670 -0.03800
C 	C 	0.86550 0.75000 0.77040 1.19600
Co	Co	0.76855 0.75000 0.94757 1.19600
C 	C 	0.16410 0.75000 0.80670 -0.06300
C 	C 	0.13450 0.75000 0.77040 1.22900
Co	Co	0.23145 0.75000 0.94757 1.18800
C 	C 	0.33590 0.25000 0.30670 -0.05400
C 	C 	0.36550 0.25000 0.27040 1.21300
Co	Co	0.26855 0.25000 0.44757 1.18900
C 	C 	0.24060 0.65250 0.48800 0.34200
C 	C 	0.22410 0.71080 0.46165 -0.00900
C 	C 	0.09930 0.52990 0.36818 0.42000
C 	C 	0.03910 0.54910 0.39378 -0.17800
Co	Co	0.18421 0.56676 0.42995 1.15500
F 	F 	0.15240 0.68670 0.36130 -0.32800
F 	F 	0.20030 0.79680 0.35690 -0.31900
F 	F 	0.09020 0.78150 0.37290 -0.32400
F 	F 	0.93930 0.62880 0.49280 -0.30700
F 	F 	0.04240 0.57170 0.50050 -0.34700
F 	F 	0.04360 0.67850 0.48160 -0.30600
N 	N 	0.19910 0.68620 0.43031 -0.14000
N 	N 	0.06330 0.57250 0.42559 -0.10000
O 	O 	0.22000 0.58603 0.48067 -0.34000
O 	O 	0.27510 0.66730 0.51587 -0.36200
O 	O 	0.16581 0.53620 0.37903 -0.38400
O 	O 	0.08460 0.50840 0.33797 -0.42000
C 	C 	0.74060 0.15250 0.98800 0.34500
C 	C 	0.72410 0.21080 0.96165 -0.00100
C 	C 	0.59930 0.02990 0.86818 0.37600
C 	C 	0.53910 0.04910 0.89378 -0.00500
Co	Co	0.68421 0.06676 0.92995 1.15900
F 	F 	0.65240 0.18670 0.86130 -0.32200
F 	F 	0.70030 0.29680 0.85690 -0.30700
F 	F 	0.59020 0.28150 0.87290 -0.30300
F 	F 	0.43930 0.12880 0.99280 -0.34800
F 	F 	0.54240 0.07170 0.00050 -0.31800
F 	F 	0.54360 0.17850 0.98160 -0.27500
N 	N 	0.69910 0.18620 0.93031 -0.13900
N 	N 	0.56330 0.07250 0.92559 -0.12800
O 	O 	0.72000 0.08603 0.98067 -0.33100
O 	O 	0.77510 0.16730 0.01587 -0.34700
O 	O 	0.66581 0.03620 0.87903 -0.36500
O 	O 	0.58460 0.00840 0.83797 -0.37700
C 	C 	0.25940 0.34750 0.98800 0.34200
C 	C 	0.27590 0.28920 0.96165 -0.01300
C 	C 	0.40070 0.47010 0.86818 0.37800
C 	C 	0.46090 0.45090 0.89378 -0.00600
Co	Co	0.31579 0.43324 0.92995 1.15400
F 	F 	0.34760 0.31330 0.86130 -0.32100
F 	F 	0.29970 0.20320 0.85690 -0.32200
F 	F 	0.40980 0.21850 0.87290 -0.30400
F 	F 	0.56070 0.37120 0.99280 -0.34800
F 	F 	0.45760 0.42830 0.00050 -0.31800
F 	F 	0.45640 0.32150 0.98160 -0.27400
N 	N 	0.30090 0.31380 0.93031 -0.14300
N 	N 	0.43670 0.42750 0.92559 -0.12800
O 	O 	0.28000 0.41397 0.98067 -0.34400
O 	O 	0.22490 0.33270 0.01587 -0.37300
O 	O 	0.33419 0.46380 0.87903 -0.37300
O 	O 	0.41540 0.49160 0.83797 -0.37900
C 	C 	0.75940 0.84750 0.48800 0.34400
C 	C 	0.77590 0.78920 0.46165 -0.00500
C 	C 	0.90070 0.97010 0.36818 0.32900
C 	C 	0.96090 0.95090 0.39378 0.17300
Co	Co	0.81579 0.93324 0.42995 1.15800
F 	F 	0.84760 0.81330 0.36130 -0.31400
F 	F 	0.79970 0.70320 0.35690 -0.31100
F 	F 	0.90980 0.71850 0.37290 -0.27700
F 	F 	0.06070 0.87120 0.49280 -0.31300
F 	F 	0.95760 0.92830 0.50050 -0.22500
F 	F 	0.95640 0.82150 0.48160 -0.18800
N 	N 	0.80090 0.81380 0.43031 -0.14000
N 	N 	0.93670 0.92750 0.42559 -0.08900
O 	O 	0.78000 0.91397 0.48067 -0.33400
O 	O 	0.72490 0.83270 0.51587 -0.35700
O 	O 	0.83419 0.96380 0.37903 -0.35200
O 	O 	0.91540 0.99160 0.33797 -0.31200
C 	C 	0.90250 0.00940 0.23800 0.29600
C 	C 	0.96080 0.02590 0.21165 0.17200
C 	C 	0.77990 0.15070 0.11818 0.37600
C 	C 	0.79910 0.21090 0.14378 -0.00300
Co	Co	0.81676 0.06579 0.17995 1.15900
F 	F 	0.93670 0.09760 0.11130 -0.29200
F 	F 	0.04680 0.04970 0.10690 -0.34700
F 	F 	0.03150 0.15980 0.12290 -0.36700
F 	F 	0.87880 0.31070 0.24280 -0.34200
F 	F 	0.82170 0.20760 0.25050 -0.31100
F 	F 	0.92850 0.20640 0.23160 -0.23700
N 	N 	0.93620 0.05090 0.18031 -0.10200
N 	N 	0.82250 0.18670 0.17559 -0.12600
O 	O 	0.83603 0.03000 0.23067 -0.31900
O 	O 	0.91730 0.97490 0.26587 -0.29200
O 	O 	0.78620 0.08419 0.12903 -0.36200
O 	O 	0.75840 0.16540 0.08797 -0.37400
C 	C 	0.40250 0.50940 0.73800 0.34400
C 	C 	0.46080 0.52590 0.71165 -0.00700
C 	C 	0.27990 0.65070 0.61818 0.37500
C 	C 	0.29910 0.71090 0.64378 -0.00900
Co	Co	0.31676 0.56579 0.67995 1.15500
F 	F 	0.43670 0.59760 0.61130 -0.32200
F 	F 	0.54680 0.54970 0.60690 -0.31500
F 	F 	0.53150 0.65980 0.62290 -0.30300
F 	F 	0.37880 0.81070 0.74280 -0.34800
F 	F 	0.32170 0.70760 0.75050 -0.31800
F 	F 	0.42850 0.70640 0.73160 -0.27400
N 	N 	0.43620 0.55090 0.68031 -0.14100
N 	N 	0.32250 0.68670 0.67559 -0.12800
O 	O 	0.33603 0.53000 0.73067 -0.33900
O 	O 	0.41730 0.47490 0.76587 -0.36000
O 	O 	0.28620 0.58419 0.62903 -0.37100
O 	O 	0.25840 0.66540 0.58797 -0.38500
C 	C 	0.59750 0.99060 0.73800 0.34300
C 	C 	0.53920 0.97410 0.71165 -0.00600
C 	C 	0.72010 0.84930 0.61818 0.37900
C 	C 	0.70090 0.78910 0.64378 -0.00200
Co	Co	0.68324 0.93421 0.67995 1.15800
F 	F 	0.56330 0.90240 0.61130 -0.32200
F 	F 	0.45320 0.95030 0.60690 -0.31500
F 	F 	0.46850 0.84020 0.62290 -0.30300
F 	F 	0.62120 0.68930 0.74280 -0.34800
F 	F 	0.67830 0.79240 0.75050 -0.31800
F 	F 	0.57150 0.79360 0.73160 -0.27500
N 	N 	0.56380 0.94910 0.68031 -0.14100
N 	N 	0.67750 0.81330 0.67559 -0.12700
O 	O 	0.66397 0.97000 0.73067 -0.33500
O 	O 	0.58270 0.02510 0.76587 -0.35800
O 	O 	0.71380 0.91581 0.62903 -0.36600
O 	O 	0.74160 0.83460 0.58797 -0.37200
C 	C 	0.09750 0.49060 0.23800 0.38700
C 	C 	0.03920 0.47410 0.21165 -0.18000
C 	C 	0.22010 0.34930 0.11818 0.37600
C 	C 	0.20090 0.28910 0.14378 -0.00900
Co	Co	0.18324 0.43421 0.17995 1.15500
F 	F 	0.06330 0.40240 0.11130 -0.28700
F 	F 	0.95320 0.45030 0.10690 -0.22500
F 	F 	0.96850 0.34020 0.12290 -0.17800
F 	F 	0.12120 0.18930 0.24280 -0.35200
F 	F 	0.17830 0.29240 0.25050 -0.32400
F 	F 	0.07150 0.29360 0.23160 -0.30800
N 	N 	0.06380 0.44910 0.18031 -0.11400
N 	N 	0.17750 0.31330 0.17559 -0.12700
O 	O 	0.16397 0.47000 0.23067 -0.35300
O 	O 	0.08270 0.52510 0.26587 -0.40300
O 	O 	0.21380 0.41581 0.12903 -0.37400
O 	O 	0.24160 0.33460 0.08797 -0.38400
C 	C 	0.74060 0.34750 0.98800 0.34500
C 	C 	0.72410 0.28920 0.96165 -0.00100
C 	C 	0.59930 0.47010 0.86818 0.37600
C 	C 	0.53910 0.45090 0.89378 -0.00500
Co	Co	0.68421 0.43324 0.92995 1.15900
F 	F 	0.65240 0.31330 0.86130 -0.32200
F 	F 	0.70030 0.20320 0.85690 -0.30700
F 	F 	0.59020 0.21850 0.87290 -0.30300
F 	F 	0.43930 0.37120 0.99280 -0.34800
F 	F 	0.54240 0.42830 0.00050 -0.31800
F 	F 	0.54360 0.32150 0.98160 -0.27500
N 	N 	0.69910 0.31380 0.93031 -0.13900
N 	N 	0.56330 0.42750 0.92559 -0.12800
O 	O 	0.72000 0.41397 0.98067 -0.33100
O 	O 	0.77510 0.33270 0.01587 -0.34700
O 	O 	0.66581 0.46380 0.87903 -0.36500
O 	O 	0.58460 0.49160 0.83797 -0.37700
C 	C 	0.24060 0.84750 0.48800 0.34200
C 	C 	0.22410 0.78920 0.46165 -0.00900
C 	C 	0.09930 0.97010 0.36818 0.42000
C 	C 	0.03910 0.95090 0.39378 -0.17600
Co	Co	0.18421 0.93324 0.42995 1.15600
F 	F 	0.15240 0.81330 0.36130 -0.32800
F 	F 	0.20030 0.70320 0.35690 -0.31900
F 	F 	0.09020 0.71850 0.37290 -0.32400
F 	F 	0.93930 0.87120 0.49280 -0.30800
F 	F 	0.04240 0.92830 0.50050 -0.34700
F 	F 	0.04360 0.82150 0.48160 -0.30600
N 	N 	0.19910 0.81380 0.43031 -0.14000
N 	N 	0.06330 0.92750 0.42559 -0.10100
O 	O 	0.22000 0.91397 0.48067 -0.34000
O 	O 	0.27510 0.83270 0.51587 -0.36200
O 	O 	0.16581 0.96380 0.37903 -0.38400
O 	O 	0.08460 0.99160 0.33797 -0.41900
C 	C 	0.75940 0.65250 0.48800 0.34400
C 	C 	0.77590 0.71080 0.46165 -0.00500
C 	C 	0.90070 0.52990 0.36818 0.32800
C 	C 	0.96090 0.54910 0.39378 0.17600
Co	Co	0.81579 0.56676 0.42995 1.15800
F 	F 	0.84760 0.68670 0.36130 -0.31400
F 	F 	0.79970 0.79680 0.35690 -0.31100
F 	F 	0.90980 0.78150 0.37290 -0.27700
F 	F 	0.06070 0.62880 0.49280 -0.31200
F 	F 	0.95760 0.57170 0.50050 -0.22400
F 	F 	0.95640 0.67850 0.48160 -0.18700
N 	N 	0.80090 0.68620 0.43031 -0.14000
N 	N 	0.93670 0.57250 0.42559 -0.08900
O 	O 	0.78000 0.58603 0.48067 -0.33400
O 	O 	0.72490 0.66730 0.51587 -0.35700
O 	O 	0.83419 0.53620 0.37903 -0.35200
O 	O 	0.91540 0.50840 0.33797 -0.31100
C 	C 	0.25940 0.15250 0.98800 0.34200
C 	C 	0.27590 0.21080 0.96165 -0.01300
C 	C 	0.40070 0.02990 0.86818 0.37800
C 	C 	0.46090 0.04910 0.89378 -0.00600
Co	Co	0.31579 0.06676 0.92995 1.15400
F 	F 	0.34760 0.18670 0.86130 -0.32100
F 	F 	0.29970 0.29680 0.85690 -0.32200
F 	F 	0.40980 0.28150 0.87290 -0.30400
F 	F 	0.56070 0.12880 0.99280 -0.34800
F 	F 	0.45760 0.07170 0.00050 -0.31800
F 	F 	0.45640 0.17850 0.98160 -0.27400
N 	N 	0.30090 0.18620 0.93031 -0.14300
N 	N 	0.43670 0.07250 0.92559 -0.12800
O 	O 	0.28000 0.08603 0.98067 -0.34400
O 	O 	0.22490 0.16730 0.01587 -0.37300
O 	O 	0.33419 0.03620 0.87903 -0.37200
O 	O 	0.41540 0.00840 0.83797 -0.37900
C 	C 	0.40250 0.99060 0.73800 0.34400
C 	C 	0.46080 0.97410 0.71165 -0.00700
C 	C 	0.27990 0.84930 0.61818 0.37500
C 	C 	0.29910 0.78910 0.64378 -0.00900
Co	Co	0.31676 0.93421 0.67995 1.15500
F 	F 	0.43670 0.90240 0.61130 -0.32200
F 	F 	0.54680 0.95030 0.60690 -0.31500
F 	F 	0.53150 0.84020 0.62290 -0.30300
F 	F 	0.37880 0.68930 0.74280 -0.34800
F 	F 	0.32170 0.79240 0.75050 -0.31800
F 	F 	0.42850 0.79360 0.73160 -0.27400
N 	N 	0.43620 0.94910 0.68031 -0.14100
N 	N 	0.32250 0.81330 0.67559 -0.12800
O 	O 	0.33603 0.97000 0.73067 -0.33900
O 	O 	0.41730 0.02510 0.76587 -0.36000
O 	O 	0.28620 0.91581 0.62903 -0.37100
O 	O 	0.25840 0.83460 0.58797 -0.38500
C 	C 	0.90250 0.49060 0.23800 0.29600
C 	C 	0.96080 0.47410 0.21165 0.17400
C 	C 	0.77990 0.34930 0.11818 0.37600
C 	C 	0.79910 0.28910 0.14378 -0.00300
Co	Co	0.81676 0.43421 0.17995 1.15900
F 	F 	0.93670 0.40240 0.11130 -0.29100
F 	F 	0.04680 0.45030 0.10690 -0.34800
F 	F 	0.03150 0.34020 0.12290 -0.36700
F 	F 	0.87880 0.18930 0.24280 -0.34200
F 	F 	0.82170 0.29240 0.25050 -0.31100
F 	F 	0.92850 0.29360 0.23160 -0.23700
N 	N 	0.93620 0.44910 0.18031 -0.10200
N 	N 	0.82250 0.31330 0.17559 -0.12600
O 	O 	0.83603 0.47000 0.23067 -0.31900
O 	O 	0.91730 0.52510 0.26587 -0.29100
O 	O 	0.78620 0.41581 0.12903 -0.36200
O 	O 	0.75840 0.33460 0.08797 -0.37400
C 	C 	0.09750 0.00940 0.23800 0.38600
C 	C 	0.03920 0.02590 0.21165 -0.17700
C 	C 	0.22010 0.15070 0.11818 0.37600
C 	C 	0.20090 0.21090 0.14378 -0.00800
Co	Co	0.18324 0.06579 0.17995 1.15500
F 	F 	0.06330 0.09760 0.11130 -0.28800
F 	F 	0.95320 0.04970 0.10690 -0.22600
F 	F 	0.96850 0.15980 0.12290 -0.17900
F 	F 	0.12120 0.31070 0.24280 -0.35200
F 	F 	0.17830 0.20760 0.25050 -0.32400
F 	F 	0.07150 0.20640 0.23160 -0.30800
N 	N 	0.06380 0.05090 0.18031 -0.11400
N 	N 	0.17750 0.18670 0.17559 -0.12700
O 	O 	0.16397 0.03000 0.23067 -0.35300
O 	O 	0.08270 0.97490 0.26587 -0.40200
O 	O 	0.21380 0.08419 0.12903 -0.37400
O 	O 	0.24160 0.16540 0.08797 -0.38300
C 	C 	0.59750 0.50940 0.73800 0.34300
C 	C 	0.53920 0.52590 0.71165 -0.00600
C 	C 	0.72010 0.65070 0.61818 0.37900
C 	C 	0.70090 0.71090 0.64378 -0.00200
Co	Co	0.68324 0.56579 0.67995 1.15800
F 	F 	0.56330 0.59760 0.61130 -0.32200
F 	F 	0.45320 0.54970 0.60690 -0.31500
F 	F 	0.46850 0.65980 0.62290 -0.30300
F 	F 	0.62120 0.81070 0.74280 -0.34800
F 	F 	0.67830 0.70760 0.75050 -0.31800
F 	F 	0.57150 0.70640 0.73160 -0.27500
N 	N 	0.56380 0.55090 0.68031 -0.14100
N 	N 	0.67750 0.68670 0.67559 -0.12700
O 	O 	0.66397 0.53000 0.73067 -0.33500
O 	O 	0.58270 0.47490 0.76587 -0.35800
O 	O 	0.71380 0.58419 0.62903 -0.36600
O 	O 	0.74160 0.66540 0.58797 -0.37200
C 	C 	0.18540 0.75000 0.41259 -0.07100
C 	C 	0.15770 0.75000 0.37590 1.17800
C 	C 	0.31460 0.25000 0.91259 -0.06800
C 	C 	0.34230 0.25000 0.87590 1.16700
C 	C 	0.00000 0.06460 0.16259 -0.15200
C 	C 	0.00000 0.09230 0.12590 0.99500
C 	C 	0.50000 0.56460 0.66259 -0.06400
C 	C 	0.50000 0.59230 0.62590 1.16500
C 	C 	0.50000 0.93540 0.66259 -0.06300
C 	C 	0.50000 0.90770 0.62590 1.16500
C 	C 	0.00000 0.43540 0.16259 -0.15400
C 	C 	-0.00000 0.40770 0.12590 0.99400
C 	C 	0.68540 0.25000 0.91259 -0.05800
C 	C 	0.65770 0.25000 0.87590 1.16300
C 	C 	0.81460 0.75000 0.41259 -0.05200
C 	C 	0.84230 0.75000 0.37590 1.14900
C 	C 	0.00000 0.58590 0.44330 -0.14300
C 	C 	0.00000 0.61550 0.47960 1.03400
Co	Co	0.00000 0.51855 0.30243 1.13300
C 	C 	0.50000 0.08590 0.94330 -0.05200
C 	C 	0.50000 0.11550 0.97960 1.21300
Co	Co	0.50000 0.01855 0.80243 1.19300
C 	C 	0.50000 0.41410 0.94330 -0.05200
C 	C 	0.50000 0.38450 0.97960 1.21300
Co	Co	0.50000 0.48145 0.80243 1.19300
C 	C 	-0.00000 0.91410 0.44330 -0.14100
C 	C 	0.00000 0.88450 0.47960 1.03600
Co	Co	0.00000 0.98145 0.30243 1.13500
C 	C 	0.83590 0.25000 0.19330 -0.03800
C 	C 	0.86550 0.25000 0.22960 1.19600
Co	Co	0.76855 0.25000 0.05243 1.19600
C 	C 	0.66410 0.75000 0.69330 -0.05000
C 	C 	0.63450 0.75000 0.72960 1.21300
Co	Co	0.73145 0.75000 0.55243 1.19500
C 	C 	0.33590 0.75000 0.69330 -0.05400
C 	C 	0.36550 0.75000 0.72960 1.21300
Co	Co	0.26855 0.75000 0.55243 1.18900
C 	C 	0.16410 0.25000 0.19330 -0.06300
C 	C 	0.13450 0.25000 0.22960 1.22900
Co	Co	0.23145 0.25000 0.05243 1.18800
