data_crystal

_cell_length_a 41.82750
_cell_length_b 41.82750
_cell_length_c 41.82750
_cell_angle_alpha 60.00000
_cell_angle_beta  60.00000
_cell_angle_gamma 60.00000

_symmetry_space_group_name_	'P 1'
_symmetry_space_group_name_H-M	'P 1'

loop_
_symmetry_equiv_pos_as_xyz
  x,y,z

loop_
_atom_site_label
_atom_site_type_symbol
_atom_site_fract_x
_atom_site_fract_y
_atom_site_fract_z
_atom_site_charge
Cu	Cu	0.80926 1.00000 -0.00000 0.91200
Cu	Cu	0.74600 0.00000 -0.00000 0.89100
Cu	Cu	-0.00000 0.80926 0.19074 0.90500
Cu	Cu	-0.00000 0.74600 0.25400 0.90000
Cu	Cu	-0.00000 0.19074 0.80926 0.90500
Cu	Cu	1.00000 0.25400 0.74600 0.91700
Cu	Cu	0.19074 1.00000 -0.00000 0.91100
Cu	Cu	0.25400 0.00000 -0.00000 0.89200
Cu	Cu	0.80926 0.00000 0.19074 0.90800
Cu	Cu	0.74600 0.00000 0.25400 0.90200
Cu	Cu	-0.00000 0.19074 -0.00000 0.89600
Cu	Cu	-0.00000 0.25400 -0.00000 0.89100
Cu	Cu	-0.00000 0.80926 -0.00000 0.89700
Cu	Cu	-0.00000 0.74600 -0.00000 0.89100
Cu	Cu	0.19074 0.00000 0.80926 0.90800
Cu	Cu	0.25400 0.00000 0.74600 0.90200
Cu	Cu	0.80926 0.19074 -0.00000 0.90500
Cu	Cu	0.74600 0.25400 -0.00000 0.90000
Cu	Cu	-0.00000 0.00000 0.80926 0.90000
Cu	Cu	-0.00000 0.00000 0.74600 0.89400
Cu	Cu	-0.00000 0.00000 0.19074 0.89900
Cu	Cu	-0.00000 0.00000 0.25400 0.89400
Cu	Cu	0.19074 0.80926 -0.00000 0.90500
Cu	Cu	0.25400 0.74600 -0.00000 0.90000
H 	H 	0.68090 0.97610 0.12310 0.05500
H 	H 	0.56870 0.95150 0.19150 0.05700
H 	H 	0.50880 0.94040 0.22700 0.04800
H 	H 	0.97610 0.68090 0.21990 0.05700
H 	H 	0.95150 0.56870 0.28830 0.05900
H 	H 	0.94040 0.50880 0.32380 0.04900
H 	H 	0.12310 0.21990 0.68090 0.05200
H 	H 	0.19150 0.28830 0.56870 0.05500
H 	H 	0.22700 0.32380 0.50880 0.04600
H 	H 	0.21990 0.12310 0.97610 0.05600
H 	H 	0.28830 0.19150 0.95150 0.05800
H 	H 	0.32380 0.22700 0.94040 0.04800
H 	H 	0.68090 0.12310 0.21990 0.05300
H 	H 	0.56870 0.19150 0.28830 0.05600
H 	H 	0.50880 0.22700 0.32380 0.04600
H 	H 	0.97610 0.21990 0.12310 0.05500
H 	H 	0.95150 0.28830 0.19150 0.05700
H 	H 	0.94040 0.32380 0.22700 0.04800
H 	H 	0.12310 0.68090 0.97610 0.05600
H 	H 	0.19150 0.56870 0.95150 0.05800
H 	H 	0.22700 0.50880 0.94040 0.04800
H 	H 	0.21990 0.97610 0.68090 0.05700
H 	H 	0.28830 0.95150 0.56870 0.05800
H 	H 	0.32380 0.94040 0.50880 0.04800
H 	H 	0.68090 0.21990 0.97610 0.05800
H 	H 	0.56870 0.28830 0.95150 0.05900
H 	H 	0.50880 0.32380 0.94040 0.04900
H 	H 	0.97610 0.12310 0.68090 0.05600
H 	H 	0.95150 0.19150 0.56870 0.05800
H 	H 	0.94040 0.22700 0.50880 0.04800
H 	H 	0.12310 0.97610 0.21990 0.05500
H 	H 	0.19150 0.95150 0.28830 0.05700
H 	H 	0.22700 0.94040 0.32380 0.04800
H 	H 	0.21990 0.68090 0.12310 0.05200
H 	H 	0.28830 0.56870 0.19150 0.05500
H 	H 	0.32380 0.50880 0.22700 0.04600
H 	H 	0.02390 0.31910 0.87690 0.05500
H 	H 	0.04850 0.43130 0.80850 0.05700
H 	H 	0.05960 0.49120 0.77300 0.04700
H 	H 	0.31910 0.02390 0.78010 0.05300
H 	H 	0.43130 0.04850 0.71170 0.05600
H 	H 	0.49120 0.05960 0.67620 0.04700
H 	H 	0.78010 0.87690 0.31910 0.05700
H 	H 	0.71170 0.80850 0.43130 0.05800
H 	H 	0.67620 0.77300 0.49120 0.04900
H 	H 	0.87690 0.78010 0.02390 0.05500
H 	H 	0.80850 0.71170 0.04850 0.05700
H 	H 	0.77300 0.67620 0.05960 0.04700
H 	H 	0.87690 0.31910 0.78010 0.05700
H 	H 	0.80850 0.43130 0.71170 0.05900
H 	H 	0.77300 0.49120 0.67620 0.04900
H 	H 	0.78010 0.02390 0.87690 0.05600
H 	H 	0.71170 0.04850 0.80850 0.05700
H 	H 	0.67620 0.05960 0.77300 0.04800
H 	H 	0.31910 0.87690 0.02390 0.05400
H 	H 	0.43130 0.80850 0.04850 0.05600
H 	H 	0.49120 0.77300 0.05960 0.04700
H 	H 	0.02390 0.78010 0.31910 0.05300
H 	H 	0.04850 0.71170 0.43130 0.05600
H 	H 	0.05960 0.67620 0.49120 0.04600
H 	H 	0.78010 0.31910 0.02390 0.05300
H 	H 	0.71170 0.43130 0.04850 0.05500
H 	H 	0.67620 0.49120 0.05960 0.04600
H 	H 	0.87690 0.02390 0.31910 0.05500
H 	H 	0.80850 0.04850 0.43130 0.05700
H 	H 	0.77300 0.05960 0.49120 0.04800
H 	H 	0.02390 0.87690 0.78010 0.05500
H 	H 	0.04850 0.80850 0.71170 0.05700
H 	H 	0.05960 0.77300 0.67620 0.04700
H 	H 	0.31910 0.78010 0.87690 0.05800
H 	H 	0.43130 0.71170 0.80850 0.05900
H 	H 	0.49120 0.67620 0.77300 0.04900
H 	H 	0.31910 0.02390 0.87690 0.05500
H 	H 	0.43130 0.04850 0.80850 0.05700
H 	H 	0.49120 0.05960 0.77300 0.04800
H 	H 	0.02390 0.31910 0.78010 0.05300
H 	H 	0.04850 0.43130 0.71170 0.05600
H 	H 	0.05960 0.49120 0.67620 0.04600
H 	H 	0.87690 0.78010 0.31910 0.05700
H 	H 	0.80850 0.71170 0.43130 0.05900
H 	H 	0.77300 0.67620 0.49120 0.04900
H 	H 	0.78010 0.87690 0.02390 0.05400
H 	H 	0.71170 0.80850 0.04850 0.05600
H 	H 	0.67620 0.77300 0.05960 0.04700
H 	H 	0.31910 0.87690 0.78010 0.05700
H 	H 	0.43130 0.80850 0.71170 0.05900
H 	H 	0.49120 0.77300 0.67620 0.04900
H 	H 	0.02390 0.78010 0.87690 0.05500
H 	H 	0.04850 0.71170 0.80850 0.05700
H 	H 	0.05960 0.67620 0.77300 0.04800
H 	H 	0.87690 0.31910 0.02390 0.05400
H 	H 	0.80850 0.43130 0.04850 0.05600
H 	H 	0.77300 0.49120 0.05960 0.04700
H 	H 	0.78010 0.02390 0.31910 0.05300
H 	H 	0.71170 0.04850 0.43130 0.05600
H 	H 	0.67620 0.05960 0.49120 0.04700
H 	H 	0.31910 0.78010 0.02390 0.05200
H 	H 	0.43130 0.71170 0.04850 0.05500
H 	H 	0.49120 0.67620 0.05960 0.04600
H 	H 	0.02390 0.87690 0.31910 0.05400
H 	H 	0.04850 0.80850 0.43130 0.05700
H 	H 	0.05960 0.77300 0.49120 0.04700
H 	H 	0.87690 0.02390 0.78010 0.05600
H 	H 	0.80850 0.04850 0.71170 0.05700
H 	H 	0.77300 0.05960 0.67620 0.04800
H 	H 	0.78010 0.31910 0.87690 0.05800
H 	H 	0.71170 0.43130 0.80850 0.05900
H 	H 	0.67620 0.49120 0.77300 0.04900
H 	H 	0.97610 0.68090 0.12310 0.05600
H 	H 	0.95150 0.56870 0.19150 0.05700
H 	H 	0.94040 0.50880 0.22700 0.04800
H 	H 	0.68090 0.97610 0.21990 0.05600
H 	H 	0.56870 0.95150 0.28830 0.05800
H 	H 	0.50880 0.94040 0.32380 0.04800
H 	H 	0.21990 0.12310 0.68090 0.05300
H 	H 	0.28830 0.19150 0.56870 0.05600
H 	H 	0.32380 0.22700 0.50880 0.04600
H 	H 	0.12310 0.21990 0.97610 0.05600
H 	H 	0.19150 0.28830 0.95150 0.05800
H 	H 	0.22700 0.32380 0.94040 0.04800
H 	H 	0.12310 0.68090 0.21990 0.05200
H 	H 	0.19150 0.56870 0.28830 0.05500
H 	H 	0.22700 0.50880 0.32380 0.04600
H 	H 	0.21990 0.97610 0.12310 0.05400
H 	H 	0.28830 0.95150 0.19150 0.05700
H 	H 	0.32380 0.94040 0.22700 0.04700
H 	H 	0.68090 0.12310 0.97610 0.05700
H 	H 	0.56870 0.19150 0.95150 0.05800
H 	H 	0.50880 0.22700 0.94040 0.04800
H 	H 	0.97610 0.21990 0.68090 0.05700
H 	H 	0.95150 0.28830 0.56870 0.05900
H 	H 	0.94040 0.32380 0.50880 0.04900
H 	H 	0.21990 0.68090 0.97610 0.05800
H 	H 	0.28830 0.56870 0.95150 0.05900
H 	H 	0.32380 0.50880 0.94040 0.04900
H 	H 	0.12310 0.97610 0.68090 0.05500
H 	H 	0.19150 0.95150 0.56870 0.05700
H 	H 	0.22700 0.94040 0.50880 0.04800
H 	H 	0.97610 0.12310 0.21990 0.05600
H 	H 	0.95150 0.19150 0.28830 0.05800
H 	H 	0.94040 0.22700 0.32380 0.04800
H 	H 	0.68090 0.21990 0.12310 0.05200
H 	H 	0.56870 0.28830 0.19150 0.05500
H 	H 	0.50880 0.32380 0.22700 0.04600
H 	H 	0.77090 0.99130 0.11890 0.05100
H 	H 	0.99130 0.77090 0.11890 0.05100
H 	H 	0.11890 0.11890 0.77090 0.04600
H 	H 	0.11890 0.11890 0.99130 0.05000
H 	H 	0.77090 0.11890 0.11890 0.04600
H 	H 	0.99130 0.11890 0.11890 0.05000
H 	H 	0.11890 0.77090 0.99130 0.05300
H 	H 	0.11890 0.99130 0.77090 0.05100
H 	H 	0.77090 0.11890 0.99130 0.05300
H 	H 	0.99130 0.11890 0.77090 0.05200
H 	H 	0.11890 0.99130 0.11890 0.04800
H 	H 	0.11890 0.77090 0.11890 0.04600
H 	H 	0.00870 0.22910 0.88110 0.04800
H 	H 	0.22910 0.00870 0.88110 0.04800
H 	H 	0.88110 0.88110 0.22910 0.05300
H 	H 	0.88110 0.88110 0.00870 0.04900
H 	H 	0.88110 0.22910 0.88110 0.05300
H 	H 	0.88110 0.00870 0.88110 0.05100
H 	H 	0.22910 0.88110 0.00870 0.04700
H 	H 	0.00870 0.88110 0.22910 0.04700
H 	H 	0.88110 0.22910 0.00870 0.04700
H 	H 	0.88110 0.00870 0.22910 0.04800
H 	H 	0.00870 0.88110 0.88110 0.05000
H 	H 	0.22910 0.88110 0.88110 0.05300
H 	H 	0.39200 0.92040 0.39200 0.09600
H 	H 	0.92040 0.39200 0.29560 0.09500
H 	H 	0.39200 0.29560 0.39200 0.09400
H 	H 	0.29560 0.39200 0.92040 0.09600
H 	H 	0.39200 0.39200 0.29560 0.09400
H 	H 	0.92040 0.29560 0.39200 0.09600
H 	H 	0.39200 0.39200 0.92040 0.09600
H 	H 	0.29560 0.92040 0.39200 0.09500
H 	H 	0.39200 0.29560 0.92040 0.09600
H 	H 	0.92040 0.39200 0.39200 0.09600
H 	H 	0.39200 0.92040 0.29560 0.09500
H 	H 	0.29560 0.39200 0.39200 0.09400
H 	H 	0.07960 0.60800 0.60800 0.09400
H 	H 	0.60800 0.07960 0.70440 0.09500
H 	H 	0.70440 0.60800 0.60800 0.09600
H 	H 	0.60800 0.70440 0.07960 0.09400
H 	H 	0.60800 0.60800 0.70440 0.09600
H 	H 	0.70440 0.07960 0.60800 0.09500
H 	H 	0.60800 0.60800 0.07960 0.09400
H 	H 	0.07960 0.70440 0.60800 0.09500
H 	H 	0.70440 0.60800 0.07960 0.09500
H 	H 	0.60800 0.07960 0.60800 0.09500
H 	H 	0.07960 0.60800 0.70440 0.09500
H 	H 	0.60800 0.70440 0.60800 0.09600
C 	C 	0.74770 0.98890 0.07210 0.36600
C 	C 	0.72905 0.98475 0.11437 -0.09000
C 	C 	0.69325 0.97795 0.13563 -0.01600
C 	C 	0.55660 0.94920 0.21840 -0.06700
C 	C 	0.52090 0.94270 0.23950 -0.04200
C 	C 	0.98890 0.74770 0.19130 0.36500
C 	C 	0.98475 0.72905 0.17183 -0.08800
C 	C 	0.97795 0.69325 0.19317 -0.01700
C 	C 	0.94920 0.55660 0.27580 -0.06700
C 	C 	0.94270 0.52090 0.29690 -0.04200
C 	C 	0.07210 0.19130 0.74770 0.36800
C 	C 	0.11437 0.17183 0.72905 -0.09500
C 	C 	0.13563 0.19317 0.69325 -0.01400
C 	C 	0.21840 0.27580 0.55660 -0.06800
C 	C 	0.23950 0.29690 0.52090 -0.04300
C 	C 	0.19130 0.07210 0.98890 0.36600
C 	C 	0.17183 0.11437 0.98475 -0.08900
C 	C 	0.19317 0.13563 0.97795 -0.01600
C 	C 	0.27580 0.21840 0.94920 -0.06700
C 	C 	0.29690 0.23950 0.94270 -0.04200
C 	C 	0.74770 0.07210 0.19130 0.36700
C 	C 	0.72905 0.11437 0.17183 -0.09500
C 	C 	0.69325 0.13563 0.19317 -0.01400
C 	C 	0.55660 0.21840 0.27580 -0.06800
C 	C 	0.52090 0.23950 0.29690 -0.04300
C 	C 	0.98890 0.19130 0.07210 0.36500
C 	C 	0.98475 0.17183 0.11437 -0.09000
C 	C 	0.97795 0.19317 0.13563 -0.01600
C 	C 	0.94920 0.27580 0.21840 -0.06700
C 	C 	0.94270 0.29690 0.23950 -0.04200
C 	C 	0.07210 0.74770 0.98890 0.36500
C 	C 	0.11437 0.72905 0.98475 -0.08700
C 	C 	0.13563 0.69325 0.97795 -0.01700
C 	C 	0.21840 0.55660 0.94920 -0.06700
C 	C 	0.23950 0.52090 0.94270 -0.04200
C 	C 	0.19130 0.98890 0.74770 0.36500
C 	C 	0.17183 0.98475 0.72905 -0.08800
C 	C 	0.19317 0.97795 0.69325 -0.01700
C 	C 	0.27580 0.94920 0.55660 -0.06700
C 	C 	0.29690 0.94270 0.52090 -0.04200
C 	C 	0.74770 0.19130 0.98890 0.36500
C 	C 	0.72905 0.17183 0.98475 -0.08600
C 	C 	0.69325 0.19317 0.97795 -0.01700
C 	C 	0.55660 0.27580 0.94920 -0.06700
C 	C 	0.52090 0.29690 0.94270 -0.04100
C 	C 	0.98890 0.07210 0.74770 0.36500
C 	C 	0.98475 0.11437 0.72905 -0.08800
C 	C 	0.97795 0.13563 0.69325 -0.01700
C 	C 	0.94920 0.21840 0.55660 -0.06700
C 	C 	0.94270 0.23950 0.52090 -0.04200
C 	C 	0.07210 0.98890 0.19130 0.36600
C 	C 	0.11437 0.98475 0.17183 -0.09200
C 	C 	0.13563 0.97795 0.19317 -0.01600
C 	C 	0.21840 0.94920 0.27580 -0.06700
C 	C 	0.23950 0.94270 0.29690 -0.04200
C 	C 	0.19130 0.74770 0.07210 0.36700
C 	C 	0.17183 0.72905 0.11437 -0.09600
C 	C 	0.19317 0.69325 0.13563 -0.01400
C 	C 	0.27580 0.55660 0.21840 -0.06800
C 	C 	0.29690 0.52090 0.23950 -0.04300
C 	C 	0.01110 0.25230 0.92790 0.36500
C 	C 	0.01525 0.27095 0.88563 -0.09200
C 	C 	0.02205 0.30675 0.86437 -0.01600
C 	C 	0.05080 0.44340 0.78160 -0.06800
C 	C 	0.05730 0.47910 0.76050 -0.04300
C 	C 	0.25230 0.01110 0.80870 0.36700
C 	C 	0.27095 0.01525 0.82817 -0.09300
C 	C 	0.30675 0.02205 0.80683 -0.01500
C 	C 	0.44340 0.05080 0.72420 -0.06800
C 	C 	0.47910 0.05730 0.70310 -0.04300
C 	C 	0.80870 0.92790 0.25230 0.36500
C 	C 	0.82817 0.88563 0.27095 -0.08700
C 	C 	0.80683 0.86437 0.30675 -0.01700
C 	C 	0.72420 0.78160 0.44340 -0.06700
C 	C 	0.70310 0.76050 0.47910 -0.04100
C 	C 	0.92790 0.80870 0.01110 0.36500
C 	C 	0.88563 0.82817 0.01525 -0.09100
C 	C 	0.86437 0.80683 0.02205 -0.01600
C 	C 	0.78160 0.72420 0.05080 -0.06800
C 	C 	0.76050 0.70310 0.05730 -0.04300
C 	C 	0.92790 0.25230 0.80870 0.36600
C 	C 	0.88563 0.27095 0.82817 -0.08600
C 	C 	0.86437 0.30675 0.80683 -0.01700
C 	C 	0.78160 0.44340 0.72420 -0.06700
C 	C 	0.76050 0.47910 0.70310 -0.04100
C 	C 	0.80870 0.01110 0.92790 0.36500
C 	C 	0.82817 0.01525 0.88563 -0.08900
C 	C 	0.80683 0.02205 0.86437 -0.01700
C 	C 	0.72420 0.05080 0.78160 -0.06700
C 	C 	0.70310 0.05730 0.76050 -0.04200
C 	C 	0.25230 0.92790 0.01110 0.36700
C 	C 	0.27095 0.88563 0.01525 -0.09400
C 	C 	0.30675 0.86437 0.02205 -0.01500
C 	C 	0.44340 0.78160 0.05080 -0.06800
C 	C 	0.47910 0.76050 0.05730 -0.04300
C 	C 	0.01110 0.80870 0.25230 0.36700
C 	C 	0.01525 0.82817 0.27095 -0.09400
C 	C 	0.02205 0.80683 0.30675 -0.01500
C 	C 	0.05080 0.72420 0.44340 -0.06800
C 	C 	0.05730 0.70310 0.47910 -0.04300
C 	C 	0.80870 0.25230 0.01110 0.36700
C 	C 	0.82817 0.27095 0.01525 -0.09400
C 	C 	0.80683 0.30675 0.02205 -0.01500
C 	C 	0.72420 0.44340 0.05080 -0.06800
C 	C 	0.70310 0.47910 0.05730 -0.04300
C 	C 	0.92790 0.01110 0.25230 0.36600
C 	C 	0.88563 0.01525 0.27095 -0.09100
C 	C 	0.86437 0.02205 0.30675 -0.01600
C 	C 	0.78160 0.05080 0.44340 -0.06800
C 	C 	0.76050 0.05730 0.47910 -0.04200
C 	C 	0.01110 0.92790 0.80870 0.36500
C 	C 	0.01525 0.88563 0.82817 -0.09000
C 	C 	0.02205 0.86437 0.80683 -0.01700
C 	C 	0.05080 0.78160 0.72420 -0.06800
C 	C 	0.05730 0.76050 0.70310 -0.04200
C 	C 	0.25230 0.80870 0.92790 0.36500
C 	C 	0.27095 0.82817 0.88563 -0.08600
C 	C 	0.30675 0.80683 0.86437 -0.01700
C 	C 	0.44340 0.72420 0.78160 -0.06700
C 	C 	0.47910 0.70310 0.76050 -0.04100
C 	C 	0.25230 0.01110 0.92790 0.36600
C 	C 	0.27095 0.01525 0.88563 -0.09100
C 	C 	0.30675 0.02205 0.86437 -0.01600
C 	C 	0.44340 0.05080 0.78160 -0.06800
C 	C 	0.47910 0.05730 0.76050 -0.04200
C 	C 	0.01110 0.25230 0.80870 0.36800
C 	C 	0.01525 0.27095 0.82817 -0.09400
C 	C 	0.02205 0.30675 0.80683 -0.01500
C 	C 	0.05080 0.44340 0.72420 -0.06800
C 	C 	0.05730 0.47910 0.70310 -0.04300
C 	C 	0.92790 0.80870 0.25230 0.36500
C 	C 	0.88563 0.82817 0.27095 -0.08700
C 	C 	0.86437 0.80683 0.30675 -0.01700
C 	C 	0.78160 0.72420 0.44340 -0.06700
C 	C 	0.76050 0.70310 0.47910 -0.04100
C 	C 	0.80870 0.92790 0.01110 0.36600
C 	C 	0.82817 0.88563 0.01525 -0.09200
C 	C 	0.80683 0.86437 0.02205 -0.01600
C 	C 	0.72420 0.78160 0.05080 -0.06800
C 	C 	0.70310 0.76050 0.05730 -0.04300
C 	C 	0.25230 0.92790 0.80870 0.36500
C 	C 	0.27095 0.88563 0.82817 -0.08700
C 	C 	0.30675 0.86437 0.80683 -0.01700
C 	C 	0.44340 0.78160 0.72420 -0.06700
C 	C 	0.47910 0.76050 0.70310 -0.04100
C 	C 	0.01110 0.80870 0.92790 0.36500
C 	C 	0.01525 0.82817 0.88563 -0.09000
C 	C 	0.02205 0.80683 0.86437 -0.01700
C 	C 	0.05080 0.72420 0.78160 -0.06700
C 	C 	0.05730 0.70310 0.76050 -0.04200
C 	C 	0.92790 0.25230 0.01110 0.36600
C 	C 	0.88563 0.27095 0.01525 -0.09300
C 	C 	0.86437 0.30675 0.02205 -0.01500
C 	C 	0.78160 0.44340 0.05080 -0.06800
C 	C 	0.76050 0.47910 0.05730 -0.04300
C 	C 	0.80870 0.01110 0.25230 0.36700
C 	C 	0.82817 0.01525 0.27095 -0.09300
C 	C 	0.80683 0.02205 0.30675 -0.01500
C 	C 	0.72420 0.05080 0.44340 -0.06800
C 	C 	0.70310 0.05730 0.47910 -0.04300
C 	C 	0.25230 0.80870 0.01110 0.36700
C 	C 	0.27095 0.82817 0.01525 -0.09500
C 	C 	0.30675 0.80683 0.02205 -0.01500
C 	C 	0.44340 0.72420 0.05080 -0.06800
C 	C 	0.47910 0.70310 0.05730 -0.04300
C 	C 	0.01110 0.92790 0.25230 0.36600
C 	C 	0.01525 0.88563 0.27095 -0.09300
C 	C 	0.02205 0.86437 0.30675 -0.01500
C 	C 	0.05080 0.78160 0.44340 -0.06800
C 	C 	0.05730 0.76050 0.47910 -0.04300
C 	C 	0.92790 0.01110 0.80870 0.36500
C 	C 	0.88563 0.01525 0.82817 -0.08900
C 	C 	0.86437 0.02205 0.80683 -0.01700
C 	C 	0.78160 0.05080 0.72420 -0.06700
C 	C 	0.76050 0.05730 0.70310 -0.04200
C 	C 	0.80870 0.25230 0.92790 0.36500
C 	C 	0.82817 0.27095 0.88563 -0.08600
C 	C 	0.80683 0.30675 0.86437 -0.01700
C 	C 	0.72420 0.44340 0.78160 -0.06700
C 	C 	0.70310 0.47910 0.76050 -0.04100
C 	C 	0.98890 0.74770 0.07210 0.36500
C 	C 	0.98475 0.72905 0.11437 -0.08900
C 	C 	0.97795 0.69325 0.13563 -0.01700
C 	C 	0.94920 0.55660 0.21840 -0.06700
C 	C 	0.94270 0.52090 0.23950 -0.04200
C 	C 	0.74770 0.98890 0.19130 0.36600
C 	C 	0.72905 0.98475 0.17183 -0.08900
C 	C 	0.69325 0.97795 0.19317 -0.01600
C 	C 	0.55660 0.94920 0.27580 -0.06700
C 	C 	0.52090 0.94270 0.29690 -0.04200
C 	C 	0.19130 0.07210 0.74770 0.36700
C 	C 	0.17183 0.11437 0.72905 -0.09500
C 	C 	0.19317 0.13563 0.69325 -0.01400
C 	C 	0.27580 0.21840 0.55660 -0.06800
C 	C 	0.29690 0.23950 0.52090 -0.04300
C 	C 	0.07210 0.19130 0.98890 0.36500
C 	C 	0.11437 0.17183 0.98475 -0.08900
C 	C 	0.13563 0.19317 0.97795 -0.01600
C 	C 	0.21840 0.27580 0.94920 -0.06700
C 	C 	0.23950 0.29690 0.94270 -0.04200
C 	C 	0.07210 0.74770 0.19130 0.36700
C 	C 	0.11437 0.72905 0.17183 -0.09600
C 	C 	0.13563 0.69325 0.19317 -0.01400
C 	C 	0.21840 0.55660 0.27580 -0.06800
C 	C 	0.23950 0.52090 0.29690 -0.04300
C 	C 	0.19130 0.98890 0.07210 0.36700
C 	C 	0.17183 0.98475 0.11437 -0.09200
C 	C 	0.19317 0.97795 0.13563 -0.01500
C 	C 	0.27580 0.94920 0.21840 -0.06700
C 	C 	0.29690 0.94270 0.23950 -0.04200
C 	C 	0.74770 0.07210 0.98890 0.36500
C 	C 	0.72905 0.11437 0.98475 -0.08700
C 	C 	0.69325 0.13563 0.97795 -0.01700
C 	C 	0.55660 0.21840 0.94920 -0.06700
C 	C 	0.52090 0.23950 0.94270 -0.04100
C 	C 	0.98890 0.19130 0.74770 0.36600
C 	C 	0.98475 0.17183 0.72905 -0.08700
C 	C 	0.97795 0.19317 0.69325 -0.01700
C 	C 	0.94920 0.27580 0.55660 -0.06700
C 	C 	0.94270 0.29690 0.52090 -0.04100
C 	C 	0.19130 0.74770 0.98890 0.36500
C 	C 	0.17183 0.72905 0.98475 -0.08600
C 	C 	0.19317 0.69325 0.97795 -0.01700
C 	C 	0.27580 0.55660 0.94920 -0.06700
C 	C 	0.29690 0.52090 0.94270 -0.04100
C 	C 	0.07210 0.98890 0.74770 0.36500
C 	C 	0.11437 0.98475 0.72905 -0.08900
C 	C 	0.13563 0.97795 0.69325 -0.01700
C 	C 	0.21840 0.94920 0.55660 -0.06700
C 	C 	0.23950 0.94270 0.52090 -0.04200
C 	C 	0.98890 0.07210 0.19130 0.36500
C 	C 	0.98475 0.11437 0.17183 -0.09000
C 	C 	0.97795 0.13563 0.19317 -0.01600
C 	C 	0.94920 0.21840 0.27580 -0.06700
C 	C 	0.94270 0.23950 0.29690 -0.04200
C 	C 	0.74770 0.19130 0.07210 0.36700
C 	C 	0.72905 0.17183 0.11437 -0.09500
C 	C 	0.69325 0.19317 0.13563 -0.01400
C 	C 	0.55660 0.27580 0.21840 -0.06800
C 	C 	0.52090 0.29690 0.23950 -0.04300
C 	C 	0.74620 0.98740 0.13320 0.03800
C 	C 	0.67578 0.97402 0.17510 0.00700
C 	C 	0.63910 0.96710 0.19690 -0.00200
C 	C 	0.61090 0.95930 0.21490 -0.02900
C 	C 	0.57450 0.95250 0.23650 0.04400
C 	C 	0.50290 0.93930 0.27890 0.01300
C 	C 	0.46610 0.93250 0.30070 0.00600
C 	C 	0.43560 0.92680 0.31880 -0.05900
C 	C 	0.39590 0.92750 0.33830 0.12100
C 	C 	0.98740 0.74620 0.13320 0.03800
C 	C 	0.97402 0.67578 0.17510 0.00800
C 	C 	0.96710 0.63910 0.19690 -0.00200
C 	C 	0.95930 0.61090 0.21490 -0.02900
C 	C 	0.95250 0.57450 0.23650 0.04400
C 	C 	0.93930 0.50290 0.27890 0.01300
C 	C 	0.93250 0.46610 0.30070 0.00700
C 	C 	0.92680 0.43560 0.31880 -0.05900
C 	C 	0.92750 0.39590 0.33830 0.12100
C 	C 	0.13320 0.13320 0.74620 0.04100
C 	C 	0.17510 0.17510 0.67578 0.00300
C 	C 	0.19690 0.19690 0.63910 -0.00300
C 	C 	0.21490 0.21490 0.61090 -0.03100
C 	C 	0.23650 0.23650 0.57450 0.04300
C 	C 	0.27890 0.27890 0.50290 0.01200
C 	C 	0.30070 0.30070 0.46610 0.00400
C 	C 	0.31880 0.31880 0.43560 -0.06000
C 	C 	0.33830 0.33830 0.39590 0.11900
C 	C 	0.13320 0.13320 0.98740 0.03800
C 	C 	0.17510 0.17510 0.97402 0.00700
C 	C 	0.19690 0.19690 0.96710 -0.00200
C 	C 	0.21490 0.21490 0.95930 -0.02900
C 	C 	0.23650 0.23650 0.95250 0.04400
C 	C 	0.27890 0.27890 0.93930 0.01300
C 	C 	0.30070 0.30070 0.93250 0.00700
C 	C 	0.31880 0.31880 0.92680 -0.05900
C 	C 	0.33830 0.33830 0.92750 0.12200
C 	C 	0.74620 0.13320 0.13320 0.04100
C 	C 	0.67578 0.17510 0.17510 0.00300
C 	C 	0.63910 0.19690 0.19690 -0.00300
C 	C 	0.61090 0.21490 0.21490 -0.03200
C 	C 	0.57450 0.23650 0.23650 0.04300
C 	C 	0.50290 0.27890 0.27890 0.01200
C 	C 	0.46610 0.30070 0.30070 0.00400
C 	C 	0.43560 0.31880 0.31880 -0.06000
C 	C 	0.39590 0.33830 0.33830 0.11900
C 	C 	0.98740 0.13320 0.13320 0.03900
C 	C 	0.97402 0.17510 0.17510 0.00700
C 	C 	0.96710 0.19690 0.19690 -0.00200
C 	C 	0.95930 0.21490 0.21490 -0.02900
C 	C 	0.95250 0.23650 0.23650 0.04400
C 	C 	0.93930 0.27890 0.27890 0.01300
C 	C 	0.93250 0.30070 0.30070 0.00600
C 	C 	0.92680 0.31880 0.31880 -0.05900
C 	C 	0.92750 0.33830 0.33830 0.12100
C 	C 	0.13320 0.74620 0.98740 0.03700
C 	C 	0.17510 0.67578 0.97402 0.00900
C 	C 	0.19690 0.63910 0.96710 -0.00100
C 	C 	0.21490 0.61090 0.95930 -0.02800
C 	C 	0.23650 0.57450 0.95250 0.04400
C 	C 	0.27890 0.50290 0.93930 0.01300
C 	C 	0.30070 0.46610 0.93250 0.00700
C 	C 	0.31880 0.43560 0.92680 -0.05900
C 	C 	0.33830 0.39590 0.92750 0.12200
C 	C 	0.13320 0.98740 0.74620 0.03800
C 	C 	0.17510 0.97402 0.67578 0.00700
C 	C 	0.19690 0.96710 0.63910 -0.00200
C 	C 	0.21490 0.95930 0.61090 -0.02900
C 	C 	0.23650 0.95250 0.57450 0.04400
C 	C 	0.27890 0.93930 0.50290 0.01300
C 	C 	0.30070 0.93250 0.46610 0.00600
C 	C 	0.31880 0.92680 0.43560 -0.05900
C 	C 	0.33830 0.92750 0.39590 0.12100
C 	C 	0.74620 0.13320 0.98740 0.03700
C 	C 	0.67578 0.17510 0.97402 0.00900
C 	C 	0.63910 0.19690 0.96710 -0.00100
C 	C 	0.61090 0.21490 0.95930 -0.02800
C 	C 	0.57450 0.23650 0.95250 0.04500
C 	C 	0.50290 0.27890 0.93930 0.01300
C 	C 	0.46610 0.30070 0.93250 0.00700
C 	C 	0.43560 0.31880 0.92680 -0.05900
C 	C 	0.39590 0.33830 0.92750 0.12200
C 	C 	0.98740 0.13320 0.74620 0.03800
C 	C 	0.97402 0.17510 0.67578 0.00800
C 	C 	0.96710 0.19690 0.63910 -0.00200
C 	C 	0.95930 0.21490 0.61090 -0.02900
C 	C 	0.95250 0.23650 0.57450 0.04400
C 	C 	0.93930 0.27890 0.50290 0.01300
C 	C 	0.93250 0.30070 0.46610 0.00700
C 	C 	0.92680 0.31880 0.43560 -0.05900
C 	C 	0.92750 0.33830 0.39590 0.12100
C 	C 	0.13320 0.98740 0.13320 0.03900
C 	C 	0.17510 0.97402 0.17510 0.00600
C 	C 	0.19690 0.96710 0.19690 -0.00200
C 	C 	0.21490 0.95930 0.21490 -0.03000
C 	C 	0.23650 0.95250 0.23650 0.04400
C 	C 	0.27890 0.93930 0.27890 0.01300
C 	C 	0.30070 0.93250 0.30070 0.00600
C 	C 	0.31880 0.92680 0.31880 -0.05900
C 	C 	0.33830 0.92750 0.33830 0.12100
C 	C 	0.13320 0.74620 0.13320 0.04100
C 	C 	0.17510 0.67578 0.17510 0.00300
C 	C 	0.19690 0.63910 0.19690 -0.00400
C 	C 	0.21490 0.61090 0.21490 -0.03200
C 	C 	0.23650 0.57450 0.23650 0.04200
C 	C 	0.27890 0.50290 0.27890 0.01200
C 	C 	0.30070 0.46610 0.30070 0.00400
C 	C 	0.31880 0.43560 0.31880 -0.06000
C 	C 	0.33830 0.39590 0.33830 0.11900
C 	C 	0.01260 0.25380 0.86680 0.04000
C 	C 	0.02598 0.32422 0.82490 0.00500
C 	C 	0.03290 0.36090 0.80310 -0.00300
C 	C 	0.04070 0.38910 0.78510 -0.03100
C 	C 	0.04750 0.42550 0.76350 0.04300
C 	C 	0.06070 0.49710 0.72110 0.01300
C 	C 	0.06750 0.53390 0.69930 0.00500
C 	C 	0.07320 0.56440 0.68120 -0.06000
C 	C 	0.07250 0.60410 0.66170 0.12000
C 	C 	0.25380 0.01260 0.86680 0.04000
C 	C 	0.32422 0.02598 0.82490 0.00500
C 	C 	0.36090 0.03290 0.80310 -0.00300
C 	C 	0.38910 0.04070 0.78510 -0.03000
C 	C 	0.42550 0.04750 0.76350 0.04300
C 	C 	0.49710 0.06070 0.72110 0.01300
C 	C 	0.53390 0.06750 0.69930 0.00500
C 	C 	0.56440 0.07320 0.68120 -0.05900
C 	C 	0.60410 0.07250 0.66170 0.12000
C 	C 	0.86680 0.86680 0.25380 0.03700
C 	C 	0.82490 0.82490 0.32422 0.00900
C 	C 	0.80310 0.80310 0.36090 -0.00100
C 	C 	0.78510 0.78510 0.38910 -0.02800
C 	C 	0.76350 0.76350 0.42550 0.04500
C 	C 	0.72110 0.72110 0.49710 0.01300
C 	C 	0.69930 0.69930 0.53390 0.00700
C 	C 	0.68120 0.68120 0.56440 -0.05900
C 	C 	0.66170 0.66170 0.60410 0.12200
C 	C 	0.86680 0.86680 0.01260 0.03900
C 	C 	0.82490 0.82490 0.02598 0.00600
C 	C 	0.80310 0.80310 0.03290 -0.00300
C 	C 	0.78510 0.78510 0.04070 -0.03000
C 	C 	0.76350 0.76350 0.04750 0.04300
C 	C 	0.72110 0.72110 0.06070 0.01300
C 	C 	0.69930 0.69930 0.06750 0.00500
C 	C 	0.68120 0.68120 0.07320 -0.05900
C 	C 	0.66170 0.66170 0.07250 0.11900
C 	C 	0.86680 0.25380 0.86680 0.03700
C 	C 	0.82490 0.32422 0.82490 0.00900
C 	C 	0.80310 0.36090 0.80310 -0.00100
C 	C 	0.78510 0.38910 0.78510 -0.02800
C 	C 	0.76350 0.42550 0.76350 0.04500
C 	C 	0.72110 0.49710 0.72110 0.01300
C 	C 	0.69930 0.53390 0.69930 0.00700
C 	C 	0.68120 0.56440 0.68120 -0.05900
C 	C 	0.66170 0.60410 0.66170 0.12200
C 	C 	0.86680 0.01260 0.86680 0.03800
C 	C 	0.82490 0.02598 0.82490 0.00700
C 	C 	0.80310 0.03290 0.80310 -0.00200
C 	C 	0.78510 0.04070 0.78510 -0.02900
C 	C 	0.76350 0.04750 0.76350 0.04400
C 	C 	0.72110 0.06070 0.72110 0.01300
C 	C 	0.69930 0.06750 0.69930 0.00600
C 	C 	0.68120 0.07320 0.68120 -0.05900
C 	C 	0.66170 0.07250 0.66170 0.12000
C 	C 	0.25380 0.86680 0.01260 0.04100
C 	C 	0.32422 0.82490 0.02598 0.00400
C 	C 	0.36090 0.80310 0.03290 -0.00300
C 	C 	0.38910 0.78510 0.04070 -0.03100
C 	C 	0.42550 0.76350 0.04750 0.04300
C 	C 	0.49710 0.72110 0.06070 0.01200
C 	C 	0.53390 0.69930 0.06750 0.00500
C 	C 	0.56440 0.68120 0.07320 -0.06000
C 	C 	0.60410 0.66170 0.07250 0.11900
C 	C 	0.01260 0.86680 0.25380 0.04000
C 	C 	0.02598 0.82490 0.32422 0.00400
C 	C 	0.03290 0.80310 0.36090 -0.00300
C 	C 	0.04070 0.78510 0.38910 -0.03100
C 	C 	0.04750 0.76350 0.42550 0.04300
C 	C 	0.06070 0.72110 0.49710 0.01200
C 	C 	0.06750 0.69930 0.53390 0.00500
C 	C 	0.07320 0.68120 0.56440 -0.06000
C 	C 	0.07250 0.66170 0.60410 0.12000
C 	C 	0.86680 0.25380 0.01260 0.04000
C 	C 	0.82490 0.32422 0.02598 0.00400
C 	C 	0.80310 0.36090 0.03290 -0.00300
C 	C 	0.78510 0.38910 0.04070 -0.03100
C 	C 	0.76350 0.42550 0.04750 0.04300
C 	C 	0.72110 0.49710 0.06070 0.01200
C 	C 	0.69930 0.53390 0.06750 0.00500
C 	C 	0.68120 0.56440 0.07320 -0.06000
C 	C 	0.66170 0.60410 0.07250 0.11900
C 	C 	0.86680 0.01260 0.25380 0.04000
C 	C 	0.82490 0.02598 0.32422 0.00500
C 	C 	0.80310 0.03290 0.36090 -0.00300
C 	C 	0.78510 0.04070 0.38910 -0.03000
C 	C 	0.76350 0.04750 0.42550 0.04300
C 	C 	0.72110 0.06070 0.49710 0.01300
C 	C 	0.69930 0.06750 0.53390 0.00500
C 	C 	0.68120 0.07320 0.56440 -0.05900
C 	C 	0.66170 0.07250 0.60410 0.12000
C 	C 	0.01260 0.86680 0.86680 0.03800
C 	C 	0.02598 0.82490 0.82490 0.00600
C 	C 	0.03290 0.80310 0.80310 -0.00300
C 	C 	0.04070 0.78510 0.78510 -0.03000
C 	C 	0.04750 0.76350 0.76350 0.04300
C 	C 	0.06070 0.72110 0.72110 0.01300
C 	C 	0.06750 0.69930 0.69930 0.00500
C 	C 	0.07320 0.68120 0.68120 -0.05900
C 	C 	0.07250 0.66170 0.66170 0.12000
C 	C 	0.25380 0.86680 0.86680 0.03700
C 	C 	0.32422 0.82490 0.82490 0.00900
C 	C 	0.36090 0.80310 0.80310 -0.00100
C 	C 	0.38910 0.78510 0.78510 -0.02800
C 	C 	0.42550 0.76350 0.76350 0.04500
C 	C 	0.49710 0.72110 0.72110 0.01300
C 	C 	0.53390 0.69930 0.69930 0.00700
C 	C 	0.56440 0.68120 0.68120 -0.05900
C 	C 	0.60410 0.66170 0.66170 0.12200
C 	C 	0.37770 0.92450 0.37770 -0.17400
C 	C 	0.92450 0.37770 0.32010 -0.17400
C 	C 	0.37770 0.32010 0.37770 -0.17300
C 	C 	0.32010 0.37770 0.92450 -0.17400
C 	C 	0.37770 0.37770 0.32010 -0.17300
C 	C 	0.92450 0.32010 0.37770 -0.17400
C 	C 	0.37770 0.37770 0.92450 -0.17400
C 	C 	0.32010 0.92450 0.37770 -0.17400
C 	C 	0.37770 0.32010 0.92450 -0.17400
C 	C 	0.92450 0.37770 0.37770 -0.17400
C 	C 	0.37770 0.92450 0.32010 -0.17400
C 	C 	0.32010 0.37770 0.37770 -0.17300
C 	C 	0.07550 0.62230 0.62230 -0.17400
C 	C 	0.62230 0.07550 0.67990 -0.17400
C 	C 	0.67990 0.62230 0.62230 -0.17400
C 	C 	0.62230 0.67990 0.07550 -0.17400
C 	C 	0.62230 0.62230 0.67990 -0.17400
C 	C 	0.67990 0.07550 0.62230 -0.17400
C 	C 	0.62230 0.62230 0.07550 -0.17400
C 	C 	0.07550 0.67990 0.62230 -0.17400
C 	C 	0.67990 0.62230 0.07550 -0.17300
C 	C 	0.62230 0.07550 0.62230 -0.17400
C 	C 	0.07550 0.62230 0.67990 -0.17400
C 	C 	0.62230 0.67990 0.62230 -0.17400
O 	O 	0.78113 0.99107 0.05533 -0.41300
O 	O 	0.72820 0.99000 0.05580 -0.40500
O 	O 	0.99107 0.78113 0.17247 -0.40400
O 	O 	0.99000 0.72820 0.22600 -0.39800
O 	O 	0.05533 0.17247 0.78113 -0.41800
O 	O 	0.05580 0.22600 0.72820 -0.41500
O 	O 	0.17247 0.05533 0.99107 -0.41000
O 	O 	0.22600 0.05580 0.99000 -0.40000
O 	O 	0.78113 0.05533 0.17247 -0.41700
O 	O 	0.72820 0.05580 0.22600 -0.41100
O 	O 	0.99107 0.17247 0.05533 -0.40900
O 	O 	0.99000 0.22600 0.05580 -0.40300
O 	O 	0.05533 0.78113 0.99107 -0.40600
O 	O 	0.05580 0.72820 0.99000 -0.40000
O 	O 	0.17247 0.99107 0.78113 -0.40600
O 	O 	0.22600 0.99000 0.72820 -0.39900
O 	O 	0.78113 0.17247 0.99107 -0.40300
O 	O 	0.72820 0.22600 0.99000 -0.39600
O 	O 	0.99107 0.05533 0.78113 -0.40700
O 	O 	0.99000 0.05580 0.72820 -0.40100
O 	O 	0.05533 0.99107 0.17247 -0.41100
O 	O 	0.05580 0.99000 0.22600 -0.40400
O 	O 	0.17247 0.78113 0.05533 -0.41900
O 	O 	0.22600 0.72820 0.05580 -0.41200
O 	O 	0.00893 0.21887 0.94467 -0.40800
O 	O 	0.01000 0.27180 0.94420 -0.40100
O 	O 	0.21887 0.00893 0.82753 -0.41600
O 	O 	0.27180 0.01000 0.77400 -0.41000
O 	O 	0.82753 0.94467 0.21887 -0.40500
O 	O 	0.77400 0.94420 0.27180 -0.39900
O 	O 	0.94467 0.82753 0.00893 -0.40900
O 	O 	0.94420 0.77400 0.01000 -0.40300
O 	O 	0.94467 0.21887 0.82753 -0.40400
O 	O 	0.94420 0.27180 0.77400 -0.40100
O 	O 	0.82753 0.00893 0.94467 -0.40900
O 	O 	0.77400 0.01000 0.94420 -0.40100
O 	O 	0.21887 0.94467 0.00893 -0.41500
O 	O 	0.27180 0.94420 0.01000 -0.40600
O 	O 	0.00893 0.82753 0.21887 -0.41700
O 	O 	0.01000 0.77400 0.27180 -0.41100
O 	O 	0.82753 0.21887 0.00893 -0.41800
O 	O 	0.77400 0.27180 0.01000 -0.41200
O 	O 	0.94467 0.00893 0.21887 -0.40900
O 	O 	0.94420 0.01000 0.27180 -0.40200
O 	O 	0.00893 0.94467 0.82753 -0.40900
O 	O 	0.01000 0.94420 0.77400 -0.40400
O 	O 	0.21887 0.82753 0.94467 -0.40200
O 	O 	0.27180 0.77400 0.94420 -0.39600
O 	O 	0.21887 0.00893 0.94467 -0.41000
O 	O 	0.27180 0.01000 0.94420 -0.40100
O 	O 	0.00893 0.21887 0.82753 -0.41800
O 	O 	0.01000 0.27180 0.77400 -0.41400
O 	O 	0.94467 0.82753 0.21887 -0.40400
O 	O 	0.94420 0.77400 0.27180 -0.39800
O 	O 	0.82753 0.94467 0.00893 -0.41300
O 	O 	0.77400 0.94420 0.01000 -0.40500
O 	O 	0.21887 0.94467 0.82753 -0.40500
O 	O 	0.27180 0.94420 0.77400 -0.39900
O 	O 	0.00893 0.82753 0.94467 -0.40700
O 	O 	0.01000 0.77400 0.94420 -0.40100
O 	O 	0.94467 0.21887 0.00893 -0.41000
O 	O 	0.94420 0.27180 0.01000 -0.40300
O 	O 	0.82753 0.00893 0.21887 -0.41600
O 	O 	0.77400 0.01000 0.27180 -0.41000
O 	O 	0.21887 0.82753 0.00893 -0.41800
O 	O 	0.27180 0.77400 0.01000 -0.41200
O 	O 	0.00893 0.94467 0.21887 -0.41100
O 	O 	0.01000 0.94420 0.27180 -0.40400
O 	O 	0.94467 0.00893 0.82753 -0.40700
O 	O 	0.94420 0.01000 0.77400 -0.40200
O 	O 	0.82753 0.21887 0.94467 -0.40200
O 	O 	0.77400 0.27180 0.94420 -0.39600
O 	O 	0.99107 0.78113 0.05533 -0.40800
O 	O 	0.99000 0.72820 0.05580 -0.40200
O 	O 	0.78113 0.99107 0.17247 -0.40600
O 	O 	0.72820 0.99000 0.22600 -0.39900
O 	O 	0.17247 0.05533 0.78113 -0.41700
O 	O 	0.22600 0.05580 0.72820 -0.41000
O 	O 	0.05533 0.17247 0.99107 -0.40700
O 	O 	0.05580 0.22600 0.99000 -0.40000
O 	O 	0.05533 0.78113 0.17247 -0.41800
O 	O 	0.05580 0.72820 0.22600 -0.41100
O 	O 	0.17247 0.99107 0.05533 -0.41400
O 	O 	0.22600 0.99000 0.05580 -0.40500
O 	O 	0.78113 0.05533 0.99107 -0.40800
O 	O 	0.72820 0.05580 0.99000 -0.40000
O 	O 	0.99107 0.17247 0.78113 -0.40500
O 	O 	0.99000 0.22600 0.72820 -0.40100
O 	O 	0.17247 0.78113 0.99107 -0.40300
O 	O 	0.22600 0.72820 0.99000 -0.39600
O 	O 	0.05533 0.99107 0.78113 -0.40900
O 	O 	0.05580 0.99000 0.72820 -0.40300
O 	O 	0.99107 0.05533 0.17247 -0.40800
O 	O 	0.99000 0.05580 0.22600 -0.40100
O 	O 	0.78113 0.17247 0.05533 -0.41800
O 	O 	0.72820 0.22600 0.05580 -0.41200
