data_crystal

_cell_length_a 18.70690
_cell_length_b 18.70690
_cell_length_c 41.01490
_cell_angle_alpha 90.00000
_cell_angle_beta  90.00000
_cell_angle_gamma 120.00000

_symmetry_space_group_name_	'P 1'
_symmetry_space_group_name_H-M	'P 1'

loop_
_symmetry_equiv_pos_as_xyz
  x,y,z

loop_
_atom_site_label
_atom_site_type_symbol
_atom_site_fract_x
_atom_site_fract_y
_atom_site_fract_z
_atom_site_charge
O 	O 	0.44300 0.14760 0.16522 -0.42900
O 	O 	0.36300 0.10730 0.20912 -0.42700
O 	O 	0.36730 0.97470 0.29800 -0.21700
H 	H 	0.54570 0.00750 0.29830 0.03500
C 	C 	0.42610 0.11830 0.19373 0.35900
C 	C 	0.48470 0.09680 0.20991 -0.05100
C 	C 	0.46850 0.06810 0.24120 -0.07700
H 	H 	0.42030 0.06040 0.25200 0.08700
C 	C 	0.43880 0.99600 0.30750 0.19300
C 	C 	0.44610 0.97280 0.34210 -0.23000
C 	C 	0.37240 0.92370 0.35850 0.03800
H 	H 	0.32140 0.91100 0.34860 0.05300
C 	C 	0.37320 0.89330 0.38930 -0.02800
H 	H 	0.32280 0.85970 0.40050 0.06400
N 	N 	0.44780 0.91190 0.40374 -0.00600
C 	C 	0.52160 0.96100 0.38730 -0.07300
H 	H 	0.57250 0.97370 0.39720 0.07600
C 	C 	0.52070 0.99140 0.35650 0.14700
H 	H 	0.57110 0.02500 0.34530 0.05400
O 	O 	0.10967 0.48093 0.49855 -0.43000
O 	O 	0.02967 0.44063 0.54245 -0.42800
O 	O 	0.03397 0.30803 0.63133 -0.21700
H 	H 	0.21237 0.34083 0.63163 0.03500
C 	C 	0.09277 0.45163 0.52706 0.35800
C 	C 	0.15137 0.43013 0.54324 -0.05200
C 	C 	0.13517 0.40143 0.57453 -0.07700
H 	H 	0.08697 0.39373 0.58533 0.08700
C 	C 	0.10547 0.32933 0.64083 0.19200
C 	C 	0.11277 0.30613 0.67543 -0.22800
C 	C 	0.03907 0.25703 0.69183 0.03800
H 	H 	0.98807 0.24433 0.68193 0.05300
C 	C 	0.03987 0.22663 0.72263 -0.02700
H 	H 	0.98947 0.19303 0.73383 0.06400
N 	N 	0.11447 0.24523 0.73707 -0.00600
C 	C 	0.18827 0.29433 0.72063 -0.07300
H 	H 	0.23917 0.30703 0.73053 0.07600
C 	C 	0.18737 0.32473 0.68983 0.14600
H 	H 	0.23777 0.35833 0.67863 0.05400
O 	O 	0.77633 0.81427 0.83189 -0.43000
O 	O 	0.69633 0.77397 0.87579 -0.42800
O 	O 	0.70063 0.64137 0.96467 -0.21700
H 	H 	0.87903 0.67417 0.96497 0.03500
C 	C 	0.75943 0.78497 0.86040 0.35800
C 	C 	0.81803 0.76347 0.87658 -0.05200
C 	C 	0.80183 0.73477 0.90787 -0.07700
H 	H 	0.75363 0.72707 0.91867 0.08700
C 	C 	0.77213 0.66267 0.97417 0.19200
C 	C 	0.77943 0.63947 0.00877 -0.22800
C 	C 	0.70573 0.59037 0.02517 0.03700
H 	H 	0.65473 0.57767 0.01527 0.05300
C 	C 	0.70653 0.55997 0.05597 -0.02800
H 	H 	0.65613 0.52637 0.06717 0.06400
N 	N 	0.78113 0.57857 0.07041 -0.00600
C 	C 	0.85493 0.62767 0.05397 -0.07300
H 	H 	0.90583 0.64037 0.06387 0.07600
C 	C 	0.85403 0.65807 0.02317 0.14500
H 	H 	0.90443 0.69167 0.01197 0.05400
O 	O 	0.85240 0.29540 0.16522 -0.43000
O 	O 	0.89270 0.25570 0.20912 -0.42800
O 	O 	0.02530 0.39260 0.29800 -0.21800
H 	H 	0.99250 0.53820 0.29830 0.03400
C 	C 	0.88170 0.30780 0.19373 0.35800
C 	C 	0.90320 0.38790 0.20991 -0.05200
C 	C 	0.93190 0.40040 0.24120 -0.07700
H 	H 	0.93960 0.35990 0.25200 0.08700
C 	C 	0.00400 0.44280 0.30750 0.19300
C 	C 	0.02720 0.47330 0.34210 -0.23000
C 	C 	0.07630 0.44870 0.35850 0.03800
H 	H 	0.08900 0.41040 0.34860 0.05300
C 	C 	0.10670 0.47990 0.38930 -0.02800
H 	H 	0.14030 0.46310 0.40050 0.06400
N 	N 	0.08810 0.53590 0.40374 -0.00600
C 	C 	0.03900 0.56060 0.38730 -0.07300
H 	H 	0.02630 0.59880 0.39720 0.07600
C 	C 	0.00860 0.52930 0.35650 0.14700
H 	H 	0.97500 0.54610 0.34530 0.05400
O 	O 	0.51907 0.62873 0.49855 -0.43000
O 	O 	0.55937 0.58903 0.54245 -0.42800
O 	O 	0.69197 0.72593 0.63133 -0.21700
H 	H 	0.65917 0.87153 0.63163 0.03500
C 	C 	0.54837 0.64113 0.52706 0.35800
C 	C 	0.56987 0.72123 0.54324 -0.05200
C 	C 	0.59857 0.73373 0.57453 -0.07700
H 	H 	0.60627 0.69323 0.58533 0.08700
C 	C 	0.67067 0.77613 0.64083 0.19200
C 	C 	0.69387 0.80663 0.67543 -0.22800
C 	C 	0.74297 0.78203 0.69183 0.03700
H 	H 	0.75567 0.74373 0.68193 0.05300
C 	C 	0.77337 0.81323 0.72263 -0.02800
H 	H 	0.80697 0.79643 0.73383 0.06400
N 	N 	0.75477 0.86923 0.73707 -0.00600
C 	C 	0.70567 0.89393 0.72063 -0.07300
H 	H 	0.69297 0.93213 0.73053 0.07600
C 	C 	0.67527 0.86263 0.68983 0.14500
H 	H 	0.64167 0.87943 0.67863 0.05400
O 	O 	0.18573 0.96207 0.83189 -0.43000
O 	O 	0.22603 0.92237 0.87579 -0.42800
O 	O 	0.35863 0.05927 0.96467 -0.21700
H 	H 	0.32583 0.20487 0.96497 0.03500
C 	C 	0.21503 0.97447 0.86040 0.35900
C 	C 	0.23653 0.05457 0.87658 -0.05300
C 	C 	0.26523 0.06707 0.90787 -0.07700
H 	H 	0.27293 0.02657 0.91867 0.08700
C 	C 	0.33733 0.10947 0.97417 0.19200
C 	C 	0.36053 0.13997 0.00877 -0.22800
C 	C 	0.40963 0.11537 0.02517 0.03700
H 	H 	0.42233 0.07707 0.01527 0.05300
C 	C 	0.44003 0.14657 0.05597 -0.02800
H 	H 	0.47363 0.12977 0.06717 0.06400
N 	N 	0.42143 0.20257 0.07041 -0.00600
C 	C 	0.37233 0.22727 0.05397 -0.07300
H 	H 	0.35963 0.26547 0.06387 0.07600
C 	C 	0.34193 0.19597 0.02317 0.14500
H 	H 	0.30833 0.21277 0.01197 0.05400
O 	O 	0.70460 0.55700 0.16522 -0.43000
O 	O 	0.74430 0.63700 0.20912 -0.42800
O 	O 	0.60740 0.63270 0.29800 -0.21700
H 	H 	0.46180 0.45430 0.29830 0.03500
C 	C 	0.69220 0.57390 0.19373 0.35800
C 	C 	0.61210 0.51530 0.20991 -0.05200
C 	C 	0.59960 0.53150 0.24120 -0.07700
H 	H 	0.64010 0.57970 0.25200 0.08700
C 	C 	0.55720 0.56120 0.30750 0.19200
C 	C 	0.52670 0.55390 0.34210 -0.22800
C 	C 	0.55130 0.62760 0.35850 0.03700
H 	H 	0.58960 0.67860 0.34860 0.05300
C 	C 	0.52010 0.62680 0.38930 -0.02800
H 	H 	0.53690 0.67720 0.40050 0.06400
N 	N 	0.46410 0.55220 0.40374 -0.00600
C 	C 	0.43940 0.47840 0.38730 -0.07300
H 	H 	0.40120 0.42750 0.39720 0.07600
C 	C 	0.47070 0.47930 0.35650 0.14500
H 	H 	0.45390 0.42890 0.34530 0.05400
O 	O 	0.37127 0.89033 0.49855 -0.43000
O 	O 	0.41097 0.97033 0.54245 -0.42800
O 	O 	0.27407 0.96603 0.63133 -0.21700
H 	H 	0.12847 0.78763 0.63163 0.03500
C 	C 	0.35887 0.90723 0.52706 0.35800
C 	C 	0.27877 0.84863 0.54324 -0.05200
C 	C 	0.26627 0.86483 0.57453 -0.07700
H 	H 	0.30677 0.91303 0.58533 0.08700
C 	C 	0.22387 0.89453 0.64083 0.19200
C 	C 	0.19337 0.88723 0.67543 -0.22800
C 	C 	0.21797 0.96093 0.69183 0.03800
H 	H 	0.25627 0.01193 0.68193 0.05300
C 	C 	0.18677 0.96013 0.72263 -0.02700
H 	H 	0.20357 0.01053 0.73383 0.06400
N 	N 	0.13077 0.88553 0.73707 -0.00600
C 	C 	0.10607 0.81173 0.72063 -0.07300
H 	H 	0.06787 0.76083 0.73053 0.07600
C 	C 	0.13737 0.81263 0.68983 0.14600
H 	H 	0.12057 0.76223 0.67863 0.05400
O 	O 	0.03793 0.22367 0.83189 -0.43000
O 	O 	0.07763 0.30367 0.87579 -0.42800
O 	O 	0.94073 0.29937 0.96467 -0.21700
H 	H 	0.79513 0.12097 0.96497 0.03500
C 	C 	0.02553 0.24057 0.86040 0.35900
C 	C 	0.94543 0.18197 0.87658 -0.05300
C 	C 	0.93293 0.19817 0.90787 -0.07600
H 	H 	0.97343 0.24637 0.91867 0.08600
C 	C 	0.89053 0.22787 0.97417 0.19200
C 	C 	0.86003 0.22057 0.00877 -0.22800
C 	C 	0.88463 0.29427 0.02517 0.03700
H 	H 	0.92293 0.34527 0.01527 0.05300
C 	C 	0.85343 0.29347 0.05597 -0.02800
H 	H 	0.87023 0.34387 0.06717 0.06400
N 	N 	0.79743 0.21887 0.07041 -0.00600
C 	C 	0.77273 0.14507 0.05397 -0.07300
H 	H 	0.73453 0.09417 0.06387 0.07600
C 	C 	0.80403 0.14597 0.02317 0.14500
H 	H 	0.78723 0.09557 0.01197 0.05400
O 	O 	0.14760 0.44300 0.83478 -0.43000
O 	O 	0.10730 0.36300 0.79088 -0.42800
O 	O 	0.97470 0.36730 0.70200 -0.21800
H 	H 	0.00750 0.54570 0.70170 0.03400
C 	C 	0.11830 0.42610 0.80627 0.35800
C 	C 	0.09680 0.48470 0.79009 -0.05200
C 	C 	0.06810 0.46850 0.75880 -0.07700
H 	H 	0.06040 0.42030 0.74800 0.08700
C 	C 	0.99600 0.43880 0.69250 0.19300
C 	C 	0.97280 0.44610 0.65790 -0.23000
C 	C 	0.92370 0.37240 0.64150 0.03800
H 	H 	0.91100 0.32140 0.65140 0.05300
C 	C 	0.89330 0.37320 0.61070 -0.02800
H 	H 	0.85970 0.32280 0.59950 0.06400
N 	N 	0.91190 0.44780 0.59626 -0.00600
C 	C 	0.96100 0.52160 0.61270 -0.07300
H 	H 	0.97370 0.57250 0.60280 0.07600
C 	C 	0.99140 0.52070 0.64350 0.14700
H 	H 	0.02500 0.57110 0.65470 0.05400
O 	O 	0.81427 0.77633 0.16811 -0.43000
O 	O 	0.77397 0.69633 0.12421 -0.42800
O 	O 	0.64137 0.70063 0.03533 -0.21700
H 	H 	0.67417 0.87903 0.03503 0.03500
C 	C 	0.78497 0.75943 0.13960 0.35800
C 	C 	0.76347 0.81803 0.12342 -0.05200
C 	C 	0.73477 0.80183 0.09213 -0.07700
H 	H 	0.72707 0.75363 0.08133 0.08700
C 	C 	0.66267 0.77213 0.02583 0.19200
C 	C 	0.63947 0.77943 0.99123 -0.22800
C 	C 	0.59037 0.70573 0.97483 0.03700
H 	H 	0.57767 0.65473 0.98473 0.05300
C 	C 	0.55997 0.70653 0.94403 -0.02800
H 	H 	0.52637 0.65613 0.93283 0.06400
N 	N 	0.57857 0.78113 0.92959 -0.00600
C 	C 	0.62767 0.85493 0.94603 -0.07300
H 	H 	0.64037 0.90583 0.93613 0.07600
C 	C 	0.65807 0.85403 0.97683 0.14500
H 	H 	0.69167 0.90443 0.98803 0.05400
O 	O 	0.48093 0.10967 0.50145 -0.43000
O 	O 	0.44063 0.02967 0.45755 -0.42800
O 	O 	0.30803 0.03397 0.36867 -0.21700
H 	H 	0.34083 0.21237 0.36837 0.03500
C 	C 	0.45163 0.09277 0.47294 0.35800
C 	C 	0.43013 0.15137 0.45676 -0.05200
C 	C 	0.40143 0.13517 0.42547 -0.07700
H 	H 	0.39373 0.08697 0.41467 0.08700
C 	C 	0.32933 0.10547 0.35917 0.19200
C 	C 	0.30613 0.11277 0.32457 -0.22800
C 	C 	0.25703 0.03907 0.30817 0.03800
H 	H 	0.24433 0.98807 0.31807 0.05300
C 	C 	0.22663 0.03987 0.27737 -0.02700
H 	H 	0.19303 0.98947 0.26617 0.06400
N 	N 	0.24523 0.11447 0.26293 -0.00600
C 	C 	0.29433 0.18827 0.27937 -0.07300
H 	H 	0.30703 0.23917 0.26947 0.07600
C 	C 	0.32473 0.18737 0.31017 0.14600
H 	H 	0.35833 0.23777 0.32137 0.05400
O 	O 	0.29540 0.85240 0.83478 -0.43000
O 	O 	0.25570 0.89270 0.79088 -0.42800
O 	O 	0.39260 0.02530 0.70200 -0.21800
H 	H 	0.53820 0.99250 0.70170 0.03400
C 	C 	0.30780 0.88170 0.80627 0.35800
C 	C 	0.38790 0.90320 0.79009 -0.05200
C 	C 	0.40040 0.93190 0.75880 -0.07700
H 	H 	0.35990 0.93960 0.74800 0.08700
C 	C 	0.44280 0.00400 0.69250 0.19300
C 	C 	0.47330 0.02720 0.65790 -0.23000
C 	C 	0.44870 0.07630 0.64150 0.03800
H 	H 	0.41040 0.08900 0.65140 0.05300
C 	C 	0.47990 0.10670 0.61070 -0.02800
H 	H 	0.46310 0.14030 0.59950 0.06400
N 	N 	0.53590 0.08810 0.59626 -0.00600
C 	C 	0.56060 0.03900 0.61270 -0.07300
H 	H 	0.59880 0.02630 0.60280 0.07600
C 	C 	0.52930 0.00860 0.64350 0.14700
H 	H 	0.54610 0.97500 0.65470 0.05400
O 	O 	0.96207 0.18573 0.16811 -0.43000
O 	O 	0.92237 0.22603 0.12421 -0.42800
O 	O 	0.05927 0.35863 0.03533 -0.21700
H 	H 	0.20487 0.32583 0.03503 0.03500
C 	C 	0.97447 0.21503 0.13960 0.35900
C 	C 	0.05457 0.23653 0.12342 -0.05300
C 	C 	0.06707 0.26523 0.09213 -0.07700
H 	H 	0.02657 0.27293 0.08133 0.08700
C 	C 	0.10947 0.33733 0.02583 0.19200
C 	C 	0.13997 0.36053 0.99123 -0.22800
C 	C 	0.11537 0.40963 0.97483 0.03700
H 	H 	0.07707 0.42233 0.98473 0.05300
C 	C 	0.14657 0.44003 0.94403 -0.02800
H 	H 	0.12977 0.47363 0.93283 0.06400
N 	N 	0.20257 0.42143 0.92959 -0.00600
C 	C 	0.22727 0.37233 0.94603 -0.07300
H 	H 	0.26547 0.35963 0.93613 0.07600
C 	C 	0.19597 0.34193 0.97683 0.14500
H 	H 	0.21277 0.30833 0.98803 0.05400
O 	O 	0.62873 0.51907 0.50145 -0.43000
O 	O 	0.58903 0.55937 0.45755 -0.42800
O 	O 	0.72593 0.69197 0.36867 -0.21700
H 	H 	0.87153 0.65917 0.36837 0.03500
C 	C 	0.64113 0.54837 0.47294 0.35800
C 	C 	0.72123 0.56987 0.45676 -0.05200
C 	C 	0.73373 0.59857 0.42547 -0.07700
H 	H 	0.69323 0.60627 0.41467 0.08700
C 	C 	0.77613 0.67067 0.35917 0.19200
C 	C 	0.80663 0.69387 0.32457 -0.22800
C 	C 	0.78203 0.74297 0.30817 0.03700
H 	H 	0.74373 0.75567 0.31807 0.05300
C 	C 	0.81323 0.77337 0.27737 -0.02800
H 	H 	0.79643 0.80697 0.26617 0.06400
N 	N 	0.86923 0.75477 0.26293 -0.00600
C 	C 	0.89393 0.70567 0.27937 -0.07300
H 	H 	0.93213 0.69297 0.26947 0.07600
C 	C 	0.86263 0.67527 0.31017 0.14500
H 	H 	0.87943 0.64167 0.32137 0.05400
O 	O 	0.55700 0.70460 0.83478 -0.43000
O 	O 	0.63700 0.74430 0.79088 -0.42800
O 	O 	0.63270 0.60740 0.70200 -0.21700
H 	H 	0.45430 0.46180 0.70170 0.03500
C 	C 	0.57390 0.69220 0.80627 0.35800
C 	C 	0.51530 0.61210 0.79009 -0.05200
C 	C 	0.53150 0.59960 0.75880 -0.07700
H 	H 	0.57970 0.64010 0.74800 0.08700
C 	C 	0.56120 0.55720 0.69250 0.19200
C 	C 	0.55390 0.52670 0.65790 -0.22800
C 	C 	0.62760 0.55130 0.64150 0.03700
H 	H 	0.67860 0.58960 0.65140 0.05300
C 	C 	0.62680 0.52010 0.61070 -0.02800
H 	H 	0.67720 0.53690 0.59950 0.06400
N 	N 	0.55220 0.46410 0.59626 -0.00600
C 	C 	0.47840 0.43940 0.61270 -0.07300
H 	H 	0.42750 0.40120 0.60280 0.07600
C 	C 	0.47930 0.47070 0.64350 0.14500
H 	H 	0.42890 0.45390 0.65470 0.05400
O 	O 	0.22367 0.03793 0.16811 -0.43000
O 	O 	0.30367 0.07763 0.12421 -0.42800
O 	O 	0.29937 0.94073 0.03533 -0.21700
H 	H 	0.12097 0.79513 0.03503 0.03500
C 	C 	0.24057 0.02553 0.13960 0.35900
C 	C 	0.18197 0.94543 0.12342 -0.05300
C 	C 	0.19817 0.93293 0.09213 -0.07600
H 	H 	0.24637 0.97343 0.08133 0.08600
C 	C 	0.22787 0.89053 0.02583 0.19200
C 	C 	0.22057 0.86003 0.99123 -0.22800
C 	C 	0.29427 0.88463 0.97483 0.03700
H 	H 	0.34527 0.92293 0.98473 0.05300
C 	C 	0.29347 0.85343 0.94403 -0.02800
H 	H 	0.34387 0.87023 0.93283 0.06400
N 	N 	0.21887 0.79743 0.92959 -0.00600
C 	C 	0.14507 0.77273 0.94603 -0.07300
H 	H 	0.09417 0.73453 0.93613 0.07600
C 	C 	0.14597 0.80403 0.97683 0.14500
H 	H 	0.09557 0.78723 0.98803 0.05400
O 	O 	0.89033 0.37127 0.50145 -0.43000
O 	O 	0.97033 0.41097 0.45755 -0.42800
O 	O 	0.96603 0.27407 0.36867 -0.21700
H 	H 	0.78763 0.12847 0.36837 0.03500
C 	C 	0.90723 0.35887 0.47294 0.35800
C 	C 	0.84863 0.27877 0.45676 -0.05200
C 	C 	0.86483 0.26627 0.42547 -0.07700
H 	H 	0.91303 0.30677 0.41467 0.08700
C 	C 	0.89453 0.22387 0.35917 0.19200
C 	C 	0.88723 0.19337 0.32457 -0.22800
C 	C 	0.96093 0.21797 0.30817 0.03800
H 	H 	0.01193 0.25627 0.31807 0.05300
C 	C 	0.96013 0.18677 0.27737 -0.02700
H 	H 	0.01053 0.20357 0.26617 0.06400
N 	N 	0.88553 0.13077 0.26293 -0.00600
C 	C 	0.81173 0.10607 0.27937 -0.07300
H 	H 	0.76083 0.06787 0.26947 0.07600
C 	C 	0.81263 0.13737 0.31017 0.14600
H 	H 	0.76223 0.12057 0.32137 0.05400
O 	O 	0.55700 0.85240 0.83478 -0.43000
O 	O 	0.63700 0.89270 0.79088 -0.42800
O 	O 	0.63270 0.02530 0.70200 -0.21800
H 	H 	0.45430 0.99250 0.70170 0.03400
C 	C 	0.57390 0.88170 0.80627 0.35800
C 	C 	0.51530 0.90320 0.79009 -0.05200
C 	C 	0.53150 0.93190 0.75880 -0.07700
H 	H 	0.57970 0.93960 0.74800 0.08700
C 	C 	0.56120 0.00400 0.69250 0.19300
C 	C 	0.55390 0.02720 0.65790 -0.23000
C 	C 	0.62760 0.07630 0.64150 0.03800
H 	H 	0.67860 0.08900 0.65140 0.05300
C 	C 	0.62680 0.10670 0.61070 -0.02800
H 	H 	0.67720 0.14030 0.59950 0.06400
N 	N 	0.55220 0.08810 0.59626 -0.00600
C 	C 	0.47840 0.03900 0.61270 -0.07300
H 	H 	0.42750 0.02630 0.60280 0.07600
C 	C 	0.47930 0.00860 0.64350 0.14700
H 	H 	0.42890 0.97500 0.65470 0.05400
O 	O 	0.22367 0.18573 0.16811 -0.43000
O 	O 	0.30367 0.22603 0.12421 -0.42800
O 	O 	0.29937 0.35863 0.03533 -0.21700
H 	H 	0.12097 0.32583 0.03503 0.03500
C 	C 	0.24057 0.21503 0.13960 0.35800
C 	C 	0.18197 0.23653 0.12342 -0.05200
C 	C 	0.19817 0.26523 0.09213 -0.07700
H 	H 	0.24637 0.27293 0.08133 0.08700
C 	C 	0.22787 0.33733 0.02583 0.19200
C 	C 	0.22057 0.36053 0.99123 -0.22800
C 	C 	0.29427 0.40963 0.97483 0.03700
H 	H 	0.34527 0.42233 0.98473 0.05300
C 	C 	0.29347 0.44003 0.94403 -0.02800
H 	H 	0.34387 0.47363 0.93283 0.06400
N 	N 	0.21887 0.42143 0.92959 -0.00600
C 	C 	0.14507 0.37233 0.94603 -0.07300
H 	H 	0.09417 0.35963 0.93613 0.07600
C 	C 	0.14597 0.34193 0.97683 0.14500
H 	H 	0.09557 0.30833 0.98803 0.05400
O 	O 	0.89033 0.51907 0.50145 -0.43000
O 	O 	0.97033 0.55937 0.45755 -0.42800
O 	O 	0.96603 0.69197 0.36867 -0.21700
H 	H 	0.78763 0.65917 0.36837 0.03500
C 	C 	0.90723 0.54837 0.47294 0.35800
C 	C 	0.84863 0.56987 0.45676 -0.05200
C 	C 	0.86483 0.59857 0.42547 -0.07700
H 	H 	0.91303 0.60627 0.41467 0.08700
C 	C 	0.89453 0.67067 0.35917 0.19200
C 	C 	0.88723 0.69387 0.32457 -0.22800
C 	C 	0.96093 0.74297 0.30817 0.03800
H 	H 	0.01193 0.75567 0.31807 0.05300
C 	C 	0.96013 0.77337 0.27737 -0.02700
H 	H 	0.01053 0.80697 0.26617 0.06400
N 	N 	0.88553 0.75477 0.26293 -0.00600
C 	C 	0.81173 0.70567 0.27937 -0.07300
H 	H 	0.76083 0.69297 0.26947 0.07600
C 	C 	0.81263 0.67527 0.31017 0.14600
H 	H 	0.76223 0.64167 0.32137 0.05400
O 	O 	0.14760 0.70460 0.83478 -0.43000
O 	O 	0.10730 0.74430 0.79088 -0.42800
O 	O 	0.97470 0.60740 0.70200 -0.21800
H 	H 	0.00750 0.46180 0.70170 0.03400
C 	C 	0.11830 0.69220 0.80627 0.35800
C 	C 	0.09680 0.61210 0.79009 -0.05200
C 	C 	0.06810 0.59960 0.75880 -0.07700
H 	H 	0.06040 0.64010 0.74800 0.08700
C 	C 	0.99600 0.55720 0.69250 0.19300
C 	C 	0.97280 0.52670 0.65790 -0.23000
C 	C 	0.92370 0.55130 0.64150 0.03800
H 	H 	0.91100 0.58960 0.65140 0.05300
C 	C 	0.89330 0.52010 0.61070 -0.02800
H 	H 	0.85970 0.53690 0.59950 0.06400
N 	N 	0.91190 0.46410 0.59626 -0.00600
C 	C 	0.96100 0.43940 0.61270 -0.07300
H 	H 	0.97370 0.40120 0.60280 0.07600
C 	C 	0.99140 0.47070 0.64350 0.14700
H 	H 	0.02500 0.45390 0.65470 0.05400
O 	O 	0.81427 0.03793 0.16811 -0.43000
O 	O 	0.77397 0.07763 0.12421 -0.42800
O 	O 	0.64137 0.94073 0.03533 -0.21700
H 	H 	0.67417 0.79513 0.03503 0.03500
C 	C 	0.78497 0.02553 0.13960 0.35900
C 	C 	0.76347 0.94543 0.12342 -0.05300
C 	C 	0.73477 0.93293 0.09213 -0.07700
H 	H 	0.72707 0.97343 0.08133 0.08700
C 	C 	0.66267 0.89053 0.02583 0.19200
C 	C 	0.63947 0.86003 0.99123 -0.22800
C 	C 	0.59037 0.88463 0.97483 0.03700
H 	H 	0.57767 0.92293 0.98473 0.05300
C 	C 	0.55997 0.85343 0.94403 -0.02800
H 	H 	0.52637 0.87023 0.93283 0.06400
N 	N 	0.57857 0.79743 0.92959 -0.00600
C 	C 	0.62767 0.77273 0.94603 -0.07300
H 	H 	0.64037 0.73453 0.93613 0.07600
C 	C 	0.65807 0.80403 0.97683 0.14500
H 	H 	0.69167 0.78723 0.98803 0.05400
O 	O 	0.48093 0.37127 0.50145 -0.43000
O 	O 	0.44063 0.41097 0.45755 -0.42800
O 	O 	0.30803 0.27407 0.36867 -0.21700
H 	H 	0.34083 0.12847 0.36837 0.03500
C 	C 	0.45163 0.35887 0.47294 0.35800
C 	C 	0.43013 0.27877 0.45676 -0.05200
C 	C 	0.40143 0.26627 0.42547 -0.07700
H 	H 	0.39373 0.30677 0.41467 0.08700
C 	C 	0.32933 0.22387 0.35917 0.19200
C 	C 	0.30613 0.19337 0.32457 -0.22800
C 	C 	0.25703 0.21797 0.30817 0.03700
H 	H 	0.24433 0.25627 0.31807 0.05300
C 	C 	0.22663 0.18677 0.27737 -0.02800
H 	H 	0.19303 0.20357 0.26617 0.06400
N 	N 	0.24523 0.13077 0.26293 -0.00600
C 	C 	0.29433 0.10607 0.27937 -0.07300
H 	H 	0.30703 0.06787 0.26947 0.07600
C 	C 	0.32473 0.13737 0.31017 0.14500
H 	H 	0.35833 0.12057 0.32137 0.05400
O 	O 	0.29540 0.44300 0.83478 -0.43000
O 	O 	0.25570 0.36300 0.79088 -0.42800
O 	O 	0.39260 0.36730 0.70200 -0.21700
H 	H 	0.53820 0.54570 0.70170 0.03500
C 	C 	0.30780 0.42610 0.80627 0.35800
C 	C 	0.38790 0.48470 0.79009 -0.05200
C 	C 	0.40040 0.46850 0.75880 -0.07700
H 	H 	0.35990 0.42030 0.74800 0.08700
C 	C 	0.44280 0.43880 0.69250 0.19200
C 	C 	0.47330 0.44610 0.65790 -0.22800
C 	C 	0.44870 0.37240 0.64150 0.03700
H 	H 	0.41040 0.32140 0.65140 0.05300
C 	C 	0.47990 0.37320 0.61070 -0.02800
H 	H 	0.46310 0.32280 0.59950 0.06400
N 	N 	0.53590 0.44780 0.59626 -0.00600
C 	C 	0.56060 0.52160 0.61270 -0.07300
H 	H 	0.59880 0.57250 0.60280 0.07600
C 	C 	0.52930 0.52070 0.64350 0.14500
H 	H 	0.54610 0.57110 0.65470 0.05400
O 	O 	0.96207 0.77633 0.16811 -0.43000
O 	O 	0.92237 0.69633 0.12421 -0.42800
O 	O 	0.05927 0.70063 0.03533 -0.21700
H 	H 	0.20487 0.87903 0.03503 0.03500
C 	C 	0.97447 0.75943 0.13960 0.35900
C 	C 	0.05457 0.81803 0.12342 -0.05300
C 	C 	0.06707 0.80183 0.09213 -0.07600
H 	H 	0.02657 0.75363 0.08133 0.08600
C 	C 	0.10947 0.77213 0.02583 0.19200
C 	C 	0.13997 0.77943 0.99123 -0.22800
C 	C 	0.11537 0.70573 0.97483 0.03700
H 	H 	0.07707 0.65473 0.98473 0.05300
C 	C 	0.14657 0.70653 0.94403 -0.02800
H 	H 	0.12977 0.65613 0.93283 0.06400
N 	N 	0.20257 0.78113 0.92959 -0.00600
C 	C 	0.22727 0.85493 0.94603 -0.07300
H 	H 	0.26547 0.90583 0.93613 0.07600
C 	C 	0.19597 0.85403 0.97683 0.14500
H 	H 	0.21277 0.90443 0.98803 0.05400
O 	O 	0.62873 0.10967 0.50145 -0.43000
O 	O 	0.58903 0.02967 0.45755 -0.42800
O 	O 	0.72593 0.03397 0.36867 -0.21700
H 	H 	0.87153 0.21237 0.36837 0.03500
C 	C 	0.64113 0.09277 0.47294 0.35800
C 	C 	0.72123 0.15137 0.45676 -0.05200
C 	C 	0.73373 0.13517 0.42547 -0.07700
H 	H 	0.69323 0.08697 0.41467 0.08700
C 	C 	0.77613 0.10547 0.35917 0.19200
C 	C 	0.80663 0.11277 0.32457 -0.22800
C 	C 	0.78203 0.03907 0.30817 0.03800
H 	H 	0.74373 0.98807 0.31807 0.05300
C 	C 	0.81323 0.03987 0.27737 -0.02700
H 	H 	0.79643 0.98947 0.26617 0.06400
N 	N 	0.86923 0.11447 0.26293 -0.00600
C 	C 	0.89393 0.18827 0.27937 -0.07300
H 	H 	0.93213 0.23917 0.26947 0.07600
C 	C 	0.86263 0.18737 0.31017 0.14600
H 	H 	0.87943 0.23777 0.32137 0.05400
O 	O 	0.85240 0.55700 0.16522 -0.43000
O 	O 	0.89270 0.63700 0.20912 -0.42800
O 	O 	0.02530 0.63270 0.29800 -0.21800
H 	H 	0.99250 0.45430 0.29830 0.03400
C 	C 	0.88170 0.57390 0.19373 0.35800
C 	C 	0.90320 0.51530 0.20991 -0.05200
C 	C 	0.93190 0.53150 0.24120 -0.07700
H 	H 	0.93960 0.57970 0.25200 0.08700
C 	C 	0.00400 0.56120 0.30750 0.19300
C 	C 	0.02720 0.55390 0.34210 -0.23000
C 	C 	0.07630 0.62760 0.35850 0.03800
H 	H 	0.08900 0.67860 0.34860 0.05300
C 	C 	0.10670 0.62680 0.38930 -0.02800
H 	H 	0.14030 0.67720 0.40050 0.06400
N 	N 	0.08810 0.55220 0.40374 -0.00600
C 	C 	0.03900 0.47840 0.38730 -0.07300
H 	H 	0.02630 0.42750 0.39720 0.07600
C 	C 	0.00860 0.47930 0.35650 0.14700
H 	H 	0.97500 0.42890 0.34530 0.05400
O 	O 	0.51907 0.89033 0.49855 -0.43000
O 	O 	0.55937 0.97033 0.54245 -0.42800
O 	O 	0.69197 0.96603 0.63133 -0.21700
H 	H 	0.65917 0.78763 0.63163 0.03500
C 	C 	0.54837 0.90723 0.52706 0.35800
C 	C 	0.56987 0.84863 0.54324 -0.05200
C 	C 	0.59857 0.86483 0.57453 -0.07700
H 	H 	0.60627 0.91303 0.58533 0.08700
C 	C 	0.67067 0.89453 0.64083 0.19200
C 	C 	0.69387 0.88723 0.67543 -0.22800
C 	C 	0.74297 0.96093 0.69183 0.03800
H 	H 	0.75567 0.01193 0.68193 0.05300
C 	C 	0.77337 0.96013 0.72263 -0.02700
H 	H 	0.80697 0.01053 0.73383 0.06400
N 	N 	0.75477 0.88553 0.73707 -0.00600
C 	C 	0.70567 0.81173 0.72063 -0.07300
H 	H 	0.69297 0.76083 0.73053 0.07600
C 	C 	0.67527 0.81263 0.68983 0.14600
H 	H 	0.64167 0.76223 0.67863 0.05400
O 	O 	0.18573 0.22367 0.83189 -0.43000
O 	O 	0.22603 0.30367 0.87579 -0.42800
O 	O 	0.35863 0.29937 0.96467 -0.21700
H 	H 	0.32583 0.12097 0.96497 0.03500
C 	C 	0.21503 0.24057 0.86040 0.35800
C 	C 	0.23653 0.18197 0.87658 -0.05200
C 	C 	0.26523 0.19817 0.90787 -0.07700
H 	H 	0.27293 0.24637 0.91867 0.08700
C 	C 	0.33733 0.22787 0.97417 0.19200
C 	C 	0.36053 0.22057 0.00877 -0.22800
C 	C 	0.40963 0.29427 0.02517 0.03700
H 	H 	0.42233 0.34527 0.01527 0.05300
C 	C 	0.44003 0.29347 0.05597 -0.02800
H 	H 	0.47363 0.34387 0.06717 0.06400
N 	N 	0.42143 0.21887 0.07041 -0.00600
C 	C 	0.37233 0.14507 0.05397 -0.07300
H 	H 	0.35963 0.09417 0.06387 0.07600
C 	C 	0.34193 0.14597 0.02317 0.14500
H 	H 	0.30833 0.09557 0.01197 0.05400
O 	O 	0.70460 0.14760 0.16522 -0.43000
O 	O 	0.74430 0.10730 0.20912 -0.42800
O 	O 	0.60740 0.97470 0.29800 -0.21800
H 	H 	0.46180 0.00750 0.29830 0.03400
C 	C 	0.69220 0.11830 0.19373 0.35800
C 	C 	0.61210 0.09680 0.20991 -0.05200
C 	C 	0.59960 0.06810 0.24120 -0.07700
H 	H 	0.64010 0.06040 0.25200 0.08700
C 	C 	0.55720 0.99600 0.30750 0.19300
C 	C 	0.52670 0.97280 0.34210 -0.23000
C 	C 	0.55130 0.92370 0.35850 0.03800
H 	H 	0.58960 0.91100 0.34860 0.05300
C 	C 	0.52010 0.89330 0.38930 -0.02800
H 	H 	0.53690 0.85970 0.40050 0.06400
N 	N 	0.46410 0.91190 0.40374 -0.00600
C 	C 	0.43940 0.96100 0.38730 -0.07300
H 	H 	0.40120 0.97370 0.39720 0.07600
C 	C 	0.47070 0.99140 0.35650 0.14700
H 	H 	0.45390 0.02500 0.34530 0.05400
O 	O 	0.37127 0.48093 0.49855 -0.43000
O 	O 	0.41097 0.44063 0.54245 -0.42800
O 	O 	0.27407 0.30803 0.63133 -0.21700
H 	H 	0.12847 0.34083 0.63163 0.03500
C 	C 	0.35887 0.45163 0.52706 0.35800
C 	C 	0.27877 0.43013 0.54324 -0.05200
C 	C 	0.26627 0.40143 0.57453 -0.07700
H 	H 	0.30677 0.39373 0.58533 0.08700
C 	C 	0.22387 0.32933 0.64083 0.19200
C 	C 	0.19337 0.30613 0.67543 -0.22800
C 	C 	0.21797 0.25703 0.69183 0.03700
H 	H 	0.25627 0.24433 0.68193 0.05300
C 	C 	0.18677 0.22663 0.72263 -0.02800
H 	H 	0.20357 0.19303 0.73383 0.06400
N 	N 	0.13077 0.24523 0.73707 -0.00600
C 	C 	0.10607 0.29433 0.72063 -0.07300
H 	H 	0.06787 0.30703 0.73053 0.07600
C 	C 	0.13737 0.32473 0.68983 0.14500
H 	H 	0.12057 0.35833 0.67863 0.05400
O 	O 	0.03793 0.81427 0.83189 -0.43000
O 	O 	0.07763 0.77397 0.87579 -0.42800
O 	O 	0.94073 0.64137 0.96467 -0.21700
H 	H 	0.79513 0.67417 0.96497 0.03500
C 	C 	0.02553 0.78497 0.86040 0.35900
C 	C 	0.94543 0.76347 0.87658 -0.05300
C 	C 	0.93293 0.73477 0.90787 -0.07700
H 	H 	0.97343 0.72707 0.91867 0.08700
C 	C 	0.89053 0.66267 0.97417 0.19200
C 	C 	0.86003 0.63947 0.00877 -0.22800
C 	C 	0.88463 0.59037 0.02517 0.03700
H 	H 	0.92293 0.57767 0.01527 0.05300
C 	C 	0.85343 0.55997 0.05597 -0.02800
H 	H 	0.87023 0.52637 0.06717 0.06400
N 	N 	0.79743 0.57857 0.07041 -0.00600
C 	C 	0.77273 0.62767 0.05397 -0.07300
H 	H 	0.73453 0.64037 0.06387 0.07600
C 	C 	0.80403 0.65807 0.02317 0.14500
H 	H 	0.78723 0.69167 0.01197 0.05400
O 	O 	0.44300 0.29540 0.16522 -0.43000
O 	O 	0.36300 0.25570 0.20912 -0.42800
O 	O 	0.36730 0.39260 0.29800 -0.21700
H 	H 	0.54570 0.53820 0.29830 0.03500
C 	C 	0.42610 0.30780 0.19373 0.35800
C 	C 	0.48470 0.38790 0.20991 -0.05200
C 	C 	0.46850 0.40040 0.24120 -0.07700
H 	H 	0.42030 0.35990 0.25200 0.08700
C 	C 	0.43880 0.44280 0.30750 0.19200
C 	C 	0.44610 0.47330 0.34210 -0.22800
C 	C 	0.37240 0.44870 0.35850 0.03700
H 	H 	0.32140 0.41040 0.34860 0.05300
C 	C 	0.37320 0.47990 0.38930 -0.02800
H 	H 	0.32280 0.46310 0.40050 0.06400
N 	N 	0.44780 0.53590 0.40374 -0.00600
C 	C 	0.52160 0.56060 0.38730 -0.07300
H 	H 	0.57250 0.59880 0.39720 0.07600
C 	C 	0.52070 0.52930 0.35650 0.14500
H 	H 	0.57110 0.54610 0.34530 0.05400
O 	O 	0.10967 0.62873 0.49855 -0.43000
O 	O 	0.02967 0.58903 0.54245 -0.42800
O 	O 	0.03397 0.72593 0.63133 -0.21700
H 	H 	0.21237 0.87153 0.63163 0.03500
C 	C 	0.09277 0.64113 0.52706 0.35800
C 	C 	0.15137 0.72123 0.54324 -0.05200
C 	C 	0.13517 0.73373 0.57453 -0.07700
H 	H 	0.08697 0.69323 0.58533 0.08700
C 	C 	0.10547 0.77613 0.64083 0.19200
C 	C 	0.11277 0.80663 0.67543 -0.22800
C 	C 	0.03907 0.78203 0.69183 0.03800
H 	H 	0.98807 0.74373 0.68193 0.05300
C 	C 	0.03987 0.81323 0.72263 -0.02700
H 	H 	0.98947 0.79643 0.73383 0.06400
N 	N 	0.11447 0.86923 0.73707 -0.00600
C 	C 	0.18827 0.89393 0.72063 -0.07300
H 	H 	0.23917 0.93213 0.73053 0.07600
C 	C 	0.18737 0.86263 0.68983 0.14600
H 	H 	0.23777 0.87943 0.67863 0.05400
O 	O 	0.77633 0.96207 0.83189 -0.43000
O 	O 	0.69633 0.92237 0.87579 -0.42800
O 	O 	0.70063 0.05927 0.96467 -0.21700
H 	H 	0.87903 0.20487 0.96497 0.03500
C 	C 	0.75943 0.97447 0.86040 0.35900
C 	C 	0.81803 0.05457 0.87658 -0.05300
C 	C 	0.80183 0.06707 0.90787 -0.07600
H 	H 	0.75363 0.02657 0.91867 0.08600
C 	C 	0.77213 0.10947 0.97417 0.19200
C 	C 	0.77943 0.13997 0.00877 -0.22800
C 	C 	0.70573 0.11537 0.02517 0.03700
H 	H 	0.65473 0.07707 0.01527 0.05300
C 	C 	0.70653 0.14657 0.05597 -0.02800
H 	H 	0.65613 0.12977 0.06717 0.06400
N 	N 	0.78113 0.20257 0.07041 -0.00600
C 	C 	0.85493 0.22727 0.05397 -0.07300
H 	H 	0.90583 0.26547 0.06387 0.07600
C 	C 	0.85403 0.19597 0.02317 0.14500
H 	H 	0.90443 0.21277 0.01197 0.05400
Co	Co	0.38660 0.19330 0.13821 1.18100
Co	Co	0.05327 0.52663 0.47154 1.18100
Co	Co	0.71993 0.85997 0.80488 1.18100
Co	Co	0.80670 0.19330 0.13821 1.18100
Co	Co	0.47337 0.52663 0.47154 1.18100
Co	Co	0.14003 0.85997 0.80488 1.18100
Co	Co	0.80670 0.61340 0.13821 1.18100
Co	Co	0.47337 0.94673 0.47154 1.18100
Co	Co	0.14003 0.28007 0.80488 1.18100
Co	Co	0.19330 0.38660 0.86179 1.18100
Co	Co	0.85997 0.71993 0.19512 1.18100
Co	Co	0.52663 0.05327 0.52846 1.18100
Co	Co	0.19330 0.80670 0.86179 1.18100
Co	Co	0.85997 0.14003 0.19512 1.18100
Co	Co	0.52663 0.47337 0.52846 1.18100
Co	Co	0.61340 0.80670 0.86179 1.18100
Co	Co	0.28007 0.14003 0.19512 1.18100
Co	Co	0.94673 0.47337 0.52846 1.18100
O 	O 	0.43935 0.87870 0.43154 -0.28400
N 	N 	0.50815 0.01630 0.28930 -0.21300
C 	C 	0.55640 0.11280 0.19460 0.00200
H 	H 	0.56765 0.13530 0.17320 0.06600
C 	C 	0.52480 0.04960 0.25750 0.12200
O 	O 	0.10602 0.21203 0.76487 -0.28300
N 	N 	0.17482 0.34963 0.62263 -0.21300
C 	C 	0.22307 0.44613 0.52793 0.00200
H 	H 	0.23432 0.46863 0.50653 0.06600
C 	C 	0.19147 0.38293 0.59083 0.12200
O 	O 	0.77268 0.54537 0.09821 -0.28400
N 	N 	0.84148 0.68297 0.95597 -0.21300
C 	C 	0.88973 0.77947 0.86127 0.00200
H 	H 	0.90098 0.80197 0.83987 0.06600
C 	C 	0.85813 0.71627 0.92417 0.12200
O 	O 	0.12130 0.56065 0.43154 -0.28400
N 	N 	0.98370 0.49185 0.28930 -0.21300
C 	C 	0.88720 0.44360 0.19460 0.00200
H 	H 	0.86470 0.43235 0.17320 0.06600
C 	C 	0.95040 0.47520 0.25750 0.12200
O 	O 	0.78797 0.89398 0.76487 -0.28300
N 	N 	0.65037 0.82518 0.62263 -0.21300
C 	C 	0.55387 0.77693 0.52793 0.00200
H 	H 	0.53137 0.76568 0.50653 0.06600
C 	C 	0.61707 0.80853 0.59083 0.12200
O 	O 	0.45463 0.22732 0.09821 -0.28400
N 	N 	0.31703 0.15852 0.95597 -0.21300
C 	C 	0.22053 0.11027 0.86127 0.00200
H 	H 	0.19803 0.09902 0.83987 0.06600
C 	C 	0.28373 0.14187 0.92417 0.12200
O 	O 	0.43935 0.56065 0.43154 -0.28400
N 	N 	0.50815 0.49185 0.28930 -0.21300
C 	C 	0.55640 0.44360 0.19460 0.00200
H 	H 	0.56765 0.43235 0.17320 0.06600
C 	C 	0.52480 0.47520 0.25750 0.12200
O 	O 	0.10602 0.89398 0.76487 -0.28300
N 	N 	0.17482 0.82518 0.62263 -0.21300
C 	C 	0.22307 0.77693 0.52793 0.00200
H 	H 	0.23432 0.76568 0.50653 0.06600
C 	C 	0.19147 0.80853 0.59083 0.12200
O 	O 	0.77268 0.22732 0.09821 -0.28400
N 	N 	0.84148 0.15852 0.95597 -0.21300
C 	C 	0.88973 0.11027 0.86127 0.00200
H 	H 	0.90098 0.09902 0.83987 0.06600
C 	C 	0.85813 0.14187 0.92417 0.12200
O 	O 	0.87870 0.43935 0.56846 -0.28400
N 	N 	0.01630 0.50815 0.71070 -0.21300
C 	C 	0.11280 0.55640 0.80540 0.00200
H 	H 	0.13530 0.56765 0.82680 0.06600
C 	C 	0.04960 0.52480 0.74250 0.12200
O 	O 	0.54537 0.77268 0.90179 -0.28400
N 	N 	0.68297 0.84148 0.04403 -0.21300
C 	C 	0.77947 0.88973 0.13873 0.00200
H 	H 	0.80197 0.90098 0.16013 0.06600
C 	C 	0.71627 0.85813 0.07583 0.12200
O 	O 	0.21203 0.10602 0.23513 -0.28300
N 	N 	0.34963 0.17482 0.37737 -0.21300
C 	C 	0.44613 0.22307 0.47207 0.00200
H 	H 	0.46863 0.23432 0.49347 0.06600
C 	C 	0.38293 0.19147 0.40917 0.12200
O 	O 	0.56065 0.12130 0.56846 -0.28400
N 	N 	0.49185 0.98370 0.71070 -0.21300
C 	C 	0.44360 0.88720 0.80540 0.00200
H 	H 	0.43235 0.86470 0.82680 0.06600
C 	C 	0.47520 0.95040 0.74250 0.12200
O 	O 	0.22732 0.45463 0.90179 -0.28400
N 	N 	0.15852 0.31703 0.04403 -0.21300
C 	C 	0.11027 0.22053 0.13873 0.00200
H 	H 	0.09902 0.19803 0.16013 0.06600
C 	C 	0.14187 0.28373 0.07583 0.12200
O 	O 	0.89398 0.78797 0.23513 -0.28300
N 	N 	0.82518 0.65037 0.37737 -0.21300
C 	C 	0.77693 0.55387 0.47207 0.00200
H 	H 	0.76568 0.53137 0.49347 0.06600
C 	C 	0.80853 0.61707 0.40917 0.12200
O 	O 	0.56065 0.43935 0.56846 -0.28400
N 	N 	0.49185 0.50815 0.71070 -0.21300
C 	C 	0.44360 0.55640 0.80540 0.00200
H 	H 	0.43235 0.56765 0.82680 0.06600
C 	C 	0.47520 0.52480 0.74250 0.12200
O 	O 	0.22732 0.77268 0.90179 -0.28400
N 	N 	0.15852 0.84148 0.04403 -0.21300
C 	C 	0.11027 0.88973 0.13873 0.00200
H 	H 	0.09902 0.90098 0.16013 0.06600
C 	C 	0.14187 0.85813 0.07583 0.12200
O 	O 	0.89398 0.10602 0.23513 -0.28300
N 	N 	0.82518 0.17482 0.37737 -0.21300
C 	C 	0.77693 0.22307 0.47207 0.00200
H 	H 	0.76568 0.23432 0.49347 0.06600
C 	C 	0.80853 0.19147 0.40917 0.12200
