data_crystal

_cell_length_a 18.73760
_cell_length_b 18.73760
_cell_length_c 40.98920
_cell_angle_alpha 90.00000
_cell_angle_beta  90.00000
_cell_angle_gamma 120.00000

_symmetry_space_group_name_	'P 1'
_symmetry_space_group_name_H-M	'P 1'

loop_
_symmetry_equiv_pos_as_xyz
  x,y,z

loop_
_atom_site_label
_atom_site_type_symbol
_atom_site_fract_x
_atom_site_fract_y
_atom_site_fract_z
_atom_site_charge
O 	O 	0.70380 0.14800 0.16483 -0.44500
O 	O 	0.74360 0.10750 0.20896 -0.45000
H 	H 	0.45960 0.00340 0.29680 -0.28300
C 	C 	0.69270 0.11900 0.19328 0.38300
C 	C 	0.61380 0.09820 0.20940 -0.06900
C 	C 	0.60010 0.06750 0.24067 -0.04600
H 	H 	0.63980 0.05850 0.25150 0.10200
O 	O 	0.63010 0.02700 0.30420 -0.22000
C 	C 	0.55470 0.99360 0.30710 0.54500
C 	C 	0.53090 0.97790 0.34260 0.56200
C 	C 	0.56200 0.93590 0.36020 -0.16400
H 	H 	0.60580 0.93010 0.35150 0.12300
C 	C 	0.52890 0.90250 0.39050 -0.23300
H 	H 	0.55010 0.87390 0.40250 0.14400
N 	N 	0.46490 0.91110 0.40325 -0.06500
C 	C 	0.43380 0.95310 0.38570 0.33100
H 	H 	0.39010 0.95890 0.39440 0.04200
C 	C 	0.46690 0.98650 0.35540 -0.50800
H 	H 	0.44570 0.01510 0.34330 -0.08600
O 	O 	0.57800 0.94900 0.29430 -0.23200
O 	O 	0.37047 0.48133 0.49816 -0.44500
O 	O 	0.41027 0.44083 0.54229 -0.45000
H 	H 	0.12627 0.33673 0.63013 -0.24900
C 	C 	0.35937 0.45233 0.52661 0.38200
C 	C 	0.28047 0.43153 0.54273 -0.06800
C 	C 	0.26677 0.40083 0.57400 -0.05000
H 	H 	0.30647 0.39183 0.58483 0.10100
O 	O 	0.29677 0.36033 0.63753 -0.21600
C 	C 	0.22137 0.32693 0.64043 0.50500
C 	C 	0.19757 0.31123 0.67593 0.52200
C 	C 	0.22867 0.26923 0.69353 -0.15400
H 	H 	0.27247 0.26343 0.68483 0.12100
C 	C 	0.19557 0.23583 0.72383 -0.22900
H 	H 	0.21677 0.20723 0.73583 0.14200
N 	N 	0.13157 0.24443 0.73658 -0.06100
C 	C 	0.10047 0.28643 0.71903 0.30600
H 	H 	0.05677 0.29223 0.72773 0.04500
C 	C 	0.13357 0.31983 0.68873 -0.47500
H 	H 	0.11237 0.34843 0.67663 -0.07700
O 	O 	0.24467 0.28233 0.62763 -0.22300
O 	O 	0.03713 0.81467 0.83150 -0.44500
O 	O 	0.07693 0.77417 0.87563 -0.45000
H 	H 	0.79293 0.67007 0.96347 -0.24400
C 	C 	0.02603 0.78567 0.85995 0.38500
C 	C 	0.94713 0.76487 0.87607 -0.07100
C 	C 	0.93343 0.73417 0.90734 -0.04800
H 	H 	0.97313 0.72517 0.91817 0.10000
O 	O 	0.96343 0.69367 0.97087 -0.21600
C 	C 	0.88803 0.66027 0.97377 0.50200
C 	C 	0.86423 0.64457 0.00927 0.51700
C 	C 	0.89533 0.60257 0.02687 -0.15200
H 	H 	0.93913 0.59677 0.01817 0.12100
C 	C 	0.86223 0.56917 0.05717 -0.22700
H 	H 	0.88343 0.54057 0.06917 0.14200
N 	N 	0.79823 0.57777 0.06992 -0.06100
C 	C 	0.76713 0.61977 0.05237 0.30900
H 	H 	0.72343 0.62557 0.06107 0.04600
C 	C 	0.80023 0.65317 0.02207 -0.46900
H 	H 	0.77903 0.68177 0.00997 -0.07500
O 	O 	0.91133 0.61567 0.96097 -0.22200
O 	O 	0.85200 0.55580 0.16483 -0.44500
O 	O 	0.89250 0.63610 0.20896 -0.45000
H 	H 	0.99660 0.45620 0.29680 -0.28300
C 	C 	0.88100 0.57370 0.19328 0.38300
C 	C 	0.90180 0.51560 0.20940 -0.06900
C 	C 	0.93250 0.53260 0.24067 -0.04600
H 	H 	0.94150 0.58130 0.25150 0.10200
O 	O 	0.97300 0.60310 0.30420 -0.22000
C 	C 	0.00640 0.56110 0.30710 0.54500
C 	C 	0.02210 0.55300 0.34260 0.56200
C 	C 	0.06410 0.62610 0.36020 -0.16400
H 	H 	0.06990 0.67570 0.35150 0.12300
C 	C 	0.09750 0.62640 0.39050 -0.23300
H 	H 	0.12610 0.67620 0.40250 0.14400
N 	N 	0.08890 0.55380 0.40325 -0.06500
C 	C 	0.04690 0.48070 0.38570 0.33100
H 	H 	0.04110 0.43120 0.39440 0.04200
C 	C 	0.01350 0.48040 0.35540 -0.50800
H 	H 	0.98490 0.43060 0.34330 -0.08600
O 	O 	0.05100 0.62900 0.29430 -0.23300
O 	O 	0.51867 0.88913 0.49816 -0.44600
O 	O 	0.55917 0.96943 0.54229 -0.45000
H 	H 	0.66327 0.78953 0.63013 -0.24600
C 	C 	0.54767 0.90703 0.52661 0.38200
C 	C 	0.56847 0.84893 0.54273 -0.06800
C 	C 	0.59917 0.86593 0.57400 -0.05000
H 	H 	0.60817 0.91463 0.58483 0.10200
O 	O 	0.63967 0.93643 0.63753 -0.21500
C 	C 	0.67307 0.89443 0.64043 0.50900
C 	C 	0.68877 0.88633 0.67593 0.52500
C 	C 	0.73077 0.95943 0.69353 -0.15100
H 	H 	0.73657 0.00903 0.68483 0.11800
C 	C 	0.76417 0.95973 0.72383 -0.21800
H 	H 	0.79277 0.00953 0.73583 0.13600
N 	N 	0.75557 0.88713 0.73658 -0.06100
C 	C 	0.71357 0.81403 0.71903 0.31400
H 	H 	0.70777 0.76453 0.72773 0.04500
C 	C 	0.68017 0.81373 0.68873 -0.47200
H 	H 	0.65157 0.76393 0.67663 -0.07600
O 	O 	0.71767 0.96233 0.62763 -0.22300
O 	O 	0.18533 0.22247 0.83150 -0.44600
O 	O 	0.22583 0.30277 0.87563 -0.45000
H 	H 	0.32993 0.12287 0.96347 -0.24300
C 	C 	0.21433 0.24037 0.85995 0.38300
C 	C 	0.23513 0.18227 0.87607 -0.06900
C 	C 	0.26583 0.19927 0.90734 -0.04900
H 	H 	0.27483 0.24797 0.91817 0.10100
O 	O 	0.30633 0.26977 0.97087 -0.21600
C 	C 	0.33973 0.22777 0.97377 0.50300
C 	C 	0.35543 0.21967 0.00927 0.51700
C 	C 	0.39743 0.29277 0.02687 -0.15200
H 	H 	0.40323 0.34237 0.01817 0.12100
C 	C 	0.43083 0.29307 0.05717 -0.22600
H 	H 	0.45943 0.34287 0.06917 0.14200
N 	N 	0.42223 0.22047 0.06992 -0.06100
C 	C 	0.38023 0.14737 0.05237 0.31000
H 	H 	0.37443 0.09787 0.06107 0.04600
C 	C 	0.34683 0.14707 0.02207 -0.46900
H 	H 	0.31823 0.09727 0.00997 -0.07400
O 	O 	0.38433 0.29567 0.96097 -0.22200
O 	O 	0.44420 0.29620 0.16483 -0.44500
O 	O 	0.36390 0.25640 0.20896 -0.45000
H 	H 	0.54380 0.54040 0.29680 -0.24400
C 	C 	0.42630 0.30730 0.19328 0.38200
C 	C 	0.48440 0.38620 0.20940 -0.06800
C 	C 	0.46740 0.39990 0.24067 -0.05000
H 	H 	0.41870 0.36020 0.25150 0.10100
O 	O 	0.39690 0.36990 0.30420 -0.21600
C 	C 	0.43890 0.44530 0.30710 0.50300
C 	C 	0.44700 0.46910 0.34260 0.51700
C 	C 	0.37390 0.43800 0.36020 -0.15200
H 	H 	0.32430 0.39420 0.35150 0.12000
C 	C 	0.37360 0.47110 0.39050 -0.22700
H 	H 	0.32380 0.44990 0.40250 0.14200
N 	N 	0.44620 0.53510 0.40325 -0.06100
C 	C 	0.51930 0.56620 0.38570 0.31000
H 	H 	0.56880 0.60990 0.39440 0.04500
C 	C 	0.51960 0.53310 0.35540 -0.46900
H 	H 	0.56940 0.55430 0.34330 -0.07500
O 	O 	0.37100 0.42200 0.29430 -0.22200
O 	O 	0.11087 0.62953 0.49816 -0.44600
O 	O 	0.03057 0.58973 0.54229 -0.45000
H 	H 	0.21047 0.87373 0.63013 -0.25000
C 	C 	0.09297 0.64063 0.52661 0.38200
C 	C 	0.15107 0.71953 0.54273 -0.06800
C 	C 	0.13407 0.73323 0.57400 -0.04900
H 	H 	0.08537 0.69353 0.58483 0.10200
O 	O 	0.06357 0.70323 0.63753 -0.21500
C 	C 	0.10557 0.77863 0.64043 0.51000
C 	C 	0.11367 0.80243 0.67593 0.52900
C 	C 	0.04057 0.77133 0.69353 -0.15200
H 	H 	0.99097 0.72753 0.68483 0.11800
C 	C 	0.04027 0.80443 0.72383 -0.22000
H 	H 	0.99047 0.78323 0.73583 0.13800
N 	N 	0.11287 0.86843 0.73658 -0.06200
C 	C 	0.18597 0.89953 0.71903 0.31100
H 	H 	0.23547 0.94323 0.72773 0.04500
C 	C 	0.18627 0.86643 0.68873 -0.47700
H 	H 	0.23607 0.88763 0.67663 -0.07800
O 	O 	0.03767 0.75533 0.62763 -0.22300
O 	O 	0.77753 0.96287 0.83150 -0.44500
O 	O 	0.69723 0.92307 0.87563 -0.45000
H 	H 	0.87713 0.20707 0.96347 -0.24300
C 	C 	0.75963 0.97397 0.85995 0.38500
C 	C 	0.81773 0.05287 0.87607 -0.07200
C 	C 	0.80073 0.06657 0.90734 -0.04700
H 	H 	0.75203 0.02687 0.91817 0.10000
O 	O 	0.73023 0.03657 0.97087 -0.21600
C 	C 	0.77223 0.11197 0.97377 0.50300
C 	C 	0.78033 0.13577 0.00927 0.51700
C 	C 	0.70723 0.10467 0.02687 -0.15200
H 	H 	0.65763 0.06087 0.01817 0.12100
C 	C 	0.70693 0.13777 0.05717 -0.22700
H 	H 	0.65713 0.11657 0.06917 0.14200
N 	N 	0.77953 0.20177 0.06992 -0.06100
C 	C 	0.85263 0.23287 0.05237 0.31000
H 	H 	0.90213 0.27657 0.06107 0.04600
C 	C 	0.85293 0.19977 0.02207 -0.46800
H 	H 	0.90273 0.22097 0.00997 -0.07400
O 	O 	0.70433 0.08867 0.96097 -0.22200
O 	O 	0.14800 0.70380 0.83517 -0.44500
O 	O 	0.10750 0.74360 0.79104 -0.45000
H 	H 	0.00340 0.45960 0.70320 -0.28300
C 	C 	0.11900 0.69270 0.80672 0.38300
C 	C 	0.09820 0.61380 0.79060 -0.06900
C 	C 	0.06750 0.60010 0.75933 -0.04600
H 	H 	0.05850 0.63980 0.74850 0.10200
O 	O 	0.02700 0.63010 0.69580 -0.22000
C 	C 	0.99360 0.55470 0.69290 0.54500
C 	C 	0.97790 0.53090 0.65740 0.56200
C 	C 	0.93590 0.56200 0.63980 -0.16400
H 	H 	0.93010 0.60580 0.64850 0.12300
C 	C 	0.90250 0.52890 0.60950 -0.23300
H 	H 	0.87390 0.55010 0.59750 0.14400
N 	N 	0.91110 0.46490 0.59675 -0.06500
C 	C 	0.95310 0.43380 0.61430 0.33100
H 	H 	0.95890 0.39010 0.60560 0.04200
C 	C 	0.98650 0.46690 0.64460 -0.50800
H 	H 	0.01510 0.44570 0.65670 -0.08600
O 	O 	0.94900 0.57800 0.70570 -0.23200
O 	O 	0.81467 0.03713 0.16850 -0.44500
O 	O 	0.77417 0.07693 0.12437 -0.45000
H 	H 	0.67007 0.79293 0.03653 -0.24400
C 	C 	0.78567 0.02603 0.14005 0.38500
C 	C 	0.76487 0.94713 0.12393 -0.07100
C 	C 	0.73417 0.93343 0.09266 -0.04800
H 	H 	0.72517 0.97313 0.08183 0.10000
O 	O 	0.69367 0.96343 0.02913 -0.21600
C 	C 	0.66027 0.88803 0.02623 0.50200
C 	C 	0.64457 0.86423 0.99073 0.51700
C 	C 	0.60257 0.89533 0.97313 -0.15200
H 	H 	0.59677 0.93913 0.98183 0.12100
C 	C 	0.56917 0.86223 0.94283 -0.22700
H 	H 	0.54057 0.88343 0.93083 0.14200
N 	N 	0.57777 0.79823 0.93008 -0.06100
C 	C 	0.61977 0.76713 0.94763 0.30900
H 	H 	0.62557 0.72343 0.93893 0.04600
C 	C 	0.65317 0.80023 0.97793 -0.46900
H 	H 	0.68177 0.77903 0.99003 -0.07500
O 	O 	0.61567 0.91133 0.03903 -0.22200
O 	O 	0.48133 0.37047 0.50184 -0.44500
O 	O 	0.44083 0.41027 0.45771 -0.45000
H 	H 	0.33673 0.12627 0.36987 -0.24900
C 	C 	0.45233 0.35937 0.47339 0.38200
C 	C 	0.43153 0.28047 0.45727 -0.06800
C 	C 	0.40083 0.26677 0.42600 -0.05000
H 	H 	0.39183 0.30647 0.41517 0.10100
O 	O 	0.36033 0.29677 0.36247 -0.21600
C 	C 	0.32693 0.22137 0.35957 0.50500
C 	C 	0.31123 0.19757 0.32407 0.52200
C 	C 	0.26923 0.22867 0.30647 -0.15400
H 	H 	0.26343 0.27247 0.31517 0.12100
C 	C 	0.23583 0.19557 0.27617 -0.22900
H 	H 	0.20723 0.21677 0.26417 0.14200
N 	N 	0.24443 0.13157 0.26342 -0.06100
C 	C 	0.28643 0.10047 0.28097 0.30600
H 	H 	0.29223 0.05677 0.27227 0.04500
C 	C 	0.31983 0.13357 0.31127 -0.47500
H 	H 	0.34843 0.11237 0.32337 -0.07700
O 	O 	0.28233 0.24467 0.37237 -0.22300
O 	O 	0.55580 0.85200 0.83517 -0.44500
O 	O 	0.63610 0.89250 0.79104 -0.45000
H 	H 	0.45620 0.99660 0.70320 -0.28300
C 	C 	0.57370 0.88100 0.80672 0.38300
C 	C 	0.51560 0.90180 0.79060 -0.06900
C 	C 	0.53260 0.93250 0.75933 -0.04600
H 	H 	0.58130 0.94150 0.74850 0.10200
O 	O 	0.60310 0.97300 0.69580 -0.22000
C 	C 	0.56110 0.00640 0.69290 0.54500
C 	C 	0.55300 0.02210 0.65740 0.56200
C 	C 	0.62610 0.06410 0.63980 -0.16400
H 	H 	0.67570 0.06990 0.64850 0.12300
C 	C 	0.62640 0.09750 0.60950 -0.23300
H 	H 	0.67620 0.12610 0.59750 0.14400
N 	N 	0.55380 0.08890 0.59675 -0.06500
C 	C 	0.48070 0.04690 0.61430 0.33100
H 	H 	0.43120 0.04110 0.60560 0.04200
C 	C 	0.48040 0.01350 0.64460 -0.50800
H 	H 	0.43060 0.98490 0.65670 -0.08600
O 	O 	0.62900 0.05100 0.70570 -0.23300
O 	O 	0.22247 0.18533 0.16850 -0.44600
O 	O 	0.30277 0.22583 0.12437 -0.45000
H 	H 	0.12287 0.32993 0.03653 -0.24300
C 	C 	0.24037 0.21433 0.14005 0.38300
C 	C 	0.18227 0.23513 0.12393 -0.06900
C 	C 	0.19927 0.26583 0.09266 -0.04900
H 	H 	0.24797 0.27483 0.08183 0.10100
O 	O 	0.26977 0.30633 0.02913 -0.21600
C 	C 	0.22777 0.33973 0.02623 0.50300
C 	C 	0.21967 0.35543 0.99073 0.51700
C 	C 	0.29277 0.39743 0.97313 -0.15200
H 	H 	0.34237 0.40323 0.98183 0.12100
C 	C 	0.29307 0.43083 0.94283 -0.22600
H 	H 	0.34287 0.45943 0.93083 0.14200
N 	N 	0.22047 0.42223 0.93008 -0.06100
C 	C 	0.14737 0.38023 0.94763 0.31000
H 	H 	0.09787 0.37443 0.93893 0.04600
C 	C 	0.14707 0.34683 0.97793 -0.46900
H 	H 	0.09727 0.31823 0.99003 -0.07400
O 	O 	0.29567 0.38433 0.03903 -0.22200
O 	O 	0.88913 0.51867 0.50184 -0.44600
O 	O 	0.96943 0.55917 0.45771 -0.45000
H 	H 	0.78953 0.66327 0.36987 -0.24600
C 	C 	0.90703 0.54767 0.47339 0.38200
C 	C 	0.84893 0.56847 0.45727 -0.06800
C 	C 	0.86593 0.59917 0.42600 -0.05000
H 	H 	0.91463 0.60817 0.41517 0.10200
O 	O 	0.93643 0.63967 0.36247 -0.21500
C 	C 	0.89443 0.67307 0.35957 0.50900
C 	C 	0.88633 0.68877 0.32407 0.52500
C 	C 	0.95943 0.73077 0.30647 -0.15100
H 	H 	0.00903 0.73657 0.31517 0.11800
C 	C 	0.95973 0.76417 0.27617 -0.21800
H 	H 	0.00953 0.79277 0.26417 0.13600
N 	N 	0.88713 0.75557 0.26342 -0.06100
C 	C 	0.81403 0.71357 0.28097 0.31400
H 	H 	0.76453 0.70777 0.27227 0.04500
C 	C 	0.81373 0.68017 0.31127 -0.47200
H 	H 	0.76393 0.65157 0.32337 -0.07600
O 	O 	0.96233 0.71767 0.37237 -0.22300
O 	O 	0.29620 0.44420 0.83517 -0.44500
O 	O 	0.25640 0.36390 0.79104 -0.45000
H 	H 	0.54040 0.54380 0.70320 -0.24400
C 	C 	0.30730 0.42630 0.80672 0.38200
C 	C 	0.38620 0.48440 0.79060 -0.06800
C 	C 	0.39990 0.46740 0.75933 -0.05000
H 	H 	0.36020 0.41870 0.74850 0.10100
O 	O 	0.36990 0.39690 0.69580 -0.21600
C 	C 	0.44530 0.43890 0.69290 0.50300
C 	C 	0.46910 0.44700 0.65740 0.51700
C 	C 	0.43800 0.37390 0.63980 -0.15200
H 	H 	0.39420 0.32430 0.64850 0.12000
C 	C 	0.47110 0.37360 0.60950 -0.22700
H 	H 	0.44990 0.32380 0.59750 0.14200
N 	N 	0.53510 0.44620 0.59675 -0.06100
C 	C 	0.56620 0.51930 0.61430 0.31000
H 	H 	0.60990 0.56880 0.60560 0.04500
C 	C 	0.53310 0.51960 0.64460 -0.46900
H 	H 	0.55430 0.56940 0.65670 -0.07500
O 	O 	0.42200 0.37100 0.70570 -0.22200
O 	O 	0.96287 0.77753 0.16850 -0.44500
O 	O 	0.92307 0.69723 0.12437 -0.45000
H 	H 	0.20707 0.87713 0.03653 -0.24300
C 	C 	0.97397 0.75963 0.14005 0.38500
C 	C 	0.05287 0.81773 0.12393 -0.07200
C 	C 	0.06657 0.80073 0.09266 -0.04700
H 	H 	0.02687 0.75203 0.08183 0.10000
O 	O 	0.03657 0.73023 0.02913 -0.21600
C 	C 	0.11197 0.77223 0.02623 0.50300
C 	C 	0.13577 0.78033 0.99073 0.51700
C 	C 	0.10467 0.70723 0.97313 -0.15200
H 	H 	0.06087 0.65763 0.98183 0.12100
C 	C 	0.13777 0.70693 0.94283 -0.22700
H 	H 	0.11657 0.65713 0.93083 0.14200
N 	N 	0.20177 0.77953 0.93008 -0.06100
C 	C 	0.23287 0.85263 0.94763 0.31000
H 	H 	0.27657 0.90213 0.93893 0.04600
C 	C 	0.19977 0.85293 0.97793 -0.46800
H 	H 	0.22097 0.90273 0.99003 -0.07400
O 	O 	0.08867 0.70433 0.03903 -0.22200
O 	O 	0.62953 0.11087 0.50184 -0.44600
O 	O 	0.58973 0.03057 0.45771 -0.45000
H 	H 	0.87373 0.21047 0.36987 -0.25000
C 	C 	0.64063 0.09297 0.47339 0.38200
C 	C 	0.71953 0.15107 0.45727 -0.06800
C 	C 	0.73323 0.13407 0.42600 -0.04900
H 	H 	0.69353 0.08537 0.41517 0.10200
O 	O 	0.70323 0.06357 0.36247 -0.21500
C 	C 	0.77863 0.10557 0.35957 0.51000
C 	C 	0.80243 0.11367 0.32407 0.52900
C 	C 	0.77133 0.04057 0.30647 -0.15200
H 	H 	0.72753 0.99097 0.31517 0.11800
C 	C 	0.80443 0.04027 0.27617 -0.22000
H 	H 	0.78323 0.99047 0.26417 0.13800
N 	N 	0.86843 0.11287 0.26342 -0.06200
C 	C 	0.89953 0.18597 0.28097 0.31100
H 	H 	0.94323 0.23547 0.27227 0.04500
C 	C 	0.86643 0.18627 0.31127 -0.47700
H 	H 	0.88763 0.23607 0.32337 -0.07800
O 	O 	0.75533 0.03767 0.37237 -0.22300
O 	O 	0.29620 0.85200 0.83517 -0.44500
O 	O 	0.25640 0.89250 0.79104 -0.45000
H 	H 	0.54040 0.99660 0.70320 -0.28300
C 	C 	0.30730 0.88100 0.80672 0.38300
C 	C 	0.38620 0.90180 0.79060 -0.06900
C 	C 	0.39990 0.93250 0.75933 -0.04600
H 	H 	0.36020 0.94150 0.74850 0.10200
O 	O 	0.36990 0.97300 0.69580 -0.22000
C 	C 	0.44530 0.00640 0.69290 0.54500
C 	C 	0.46910 0.02210 0.65740 0.56200
C 	C 	0.43800 0.06410 0.63980 -0.16400
H 	H 	0.39420 0.06990 0.64850 0.12300
C 	C 	0.47110 0.09750 0.60950 -0.23300
H 	H 	0.44990 0.12610 0.59750 0.14400
N 	N 	0.53510 0.08890 0.59675 -0.06500
C 	C 	0.56620 0.04690 0.61430 0.33100
H 	H 	0.60990 0.04110 0.60560 0.04200
C 	C 	0.53310 0.01350 0.64460 -0.50800
H 	H 	0.55430 0.98490 0.65670 -0.08600
O 	O 	0.42200 0.05100 0.70570 -0.23200
O 	O 	0.96287 0.18533 0.16850 -0.44500
O 	O 	0.92307 0.22583 0.12437 -0.45000
H 	H 	0.20707 0.32993 0.03653 -0.24400
C 	C 	0.97397 0.21433 0.14005 0.38500
C 	C 	0.05287 0.23513 0.12393 -0.07100
C 	C 	0.06657 0.26583 0.09266 -0.04800
H 	H 	0.02687 0.27483 0.08183 0.10000
O 	O 	0.03657 0.30633 0.02913 -0.21600
C 	C 	0.11197 0.33973 0.02623 0.50200
C 	C 	0.13577 0.35543 0.99073 0.51700
C 	C 	0.10467 0.39743 0.97313 -0.15200
H 	H 	0.06087 0.40323 0.98183 0.12100
C 	C 	0.13777 0.43083 0.94283 -0.22700
H 	H 	0.11657 0.45943 0.93083 0.14200
N 	N 	0.20177 0.42223 0.93008 -0.06100
C 	C 	0.23287 0.38023 0.94763 0.30900
H 	H 	0.27657 0.37443 0.93893 0.04600
C 	C 	0.19977 0.34683 0.97793 -0.46900
H 	H 	0.22097 0.31823 0.99003 -0.07500
O 	O 	0.08867 0.38433 0.03903 -0.22200
O 	O 	0.62953 0.51867 0.50184 -0.44500
O 	O 	0.58973 0.55917 0.45771 -0.45000
H 	H 	0.87373 0.66327 0.36987 -0.24900
C 	C 	0.64063 0.54767 0.47339 0.38200
C 	C 	0.71953 0.56847 0.45727 -0.06800
C 	C 	0.73323 0.59917 0.42600 -0.05000
H 	H 	0.69353 0.60817 0.41517 0.10100
O 	O 	0.70323 0.63967 0.36247 -0.21600
C 	C 	0.77863 0.67307 0.35957 0.50500
C 	C 	0.80243 0.68877 0.32407 0.52200
C 	C 	0.77133 0.73077 0.30647 -0.15400
H 	H 	0.72753 0.73657 0.31517 0.12100
C 	C 	0.80443 0.76417 0.27617 -0.22900
H 	H 	0.78323 0.79277 0.26417 0.14200
N 	N 	0.86843 0.75557 0.26342 -0.06100
C 	C 	0.89953 0.71357 0.28097 0.30600
H 	H 	0.94323 0.70777 0.27227 0.04500
C 	C 	0.86643 0.68017 0.31127 -0.47500
H 	H 	0.88763 0.65157 0.32337 -0.07700
O 	O 	0.75533 0.71767 0.37237 -0.22300
O 	O 	0.14800 0.44420 0.83517 -0.44500
O 	O 	0.10750 0.36390 0.79104 -0.45000
H 	H 	0.00340 0.54380 0.70320 -0.28300
C 	C 	0.11900 0.42630 0.80672 0.38300
C 	C 	0.09820 0.48440 0.79060 -0.06900
C 	C 	0.06750 0.46740 0.75933 -0.04600
H 	H 	0.05850 0.41870 0.74850 0.10200
O 	O 	0.02700 0.39690 0.69580 -0.22000
C 	C 	0.99360 0.43890 0.69290 0.54500
C 	C 	0.97790 0.44700 0.65740 0.56200
C 	C 	0.93590 0.37390 0.63980 -0.16400
H 	H 	0.93010 0.32430 0.64850 0.12300
C 	C 	0.90250 0.37360 0.60950 -0.23300
H 	H 	0.87390 0.32380 0.59750 0.14400
N 	N 	0.91110 0.44620 0.59675 -0.06500
C 	C 	0.95310 0.51930 0.61430 0.33100
H 	H 	0.95890 0.56880 0.60560 0.04200
C 	C 	0.98650 0.51960 0.64460 -0.50800
H 	H 	0.01510 0.56940 0.65670 -0.08600
O 	O 	0.94900 0.37100 0.70570 -0.23300
O 	O 	0.81467 0.77753 0.16850 -0.44600
O 	O 	0.77417 0.69723 0.12437 -0.45000
H 	H 	0.67007 0.87713 0.03653 -0.24300
C 	C 	0.78567 0.75963 0.14005 0.38300
C 	C 	0.76487 0.81773 0.12393 -0.06900
C 	C 	0.73417 0.80073 0.09266 -0.04900
H 	H 	0.72517 0.75203 0.08183 0.10100
O 	O 	0.69367 0.73023 0.02913 -0.21600
C 	C 	0.66027 0.77223 0.02623 0.50300
C 	C 	0.64457 0.78033 0.99073 0.51700
C 	C 	0.60257 0.70723 0.97313 -0.15200
H 	H 	0.59677 0.65763 0.98183 0.12100
C 	C 	0.56917 0.70693 0.94283 -0.22600
H 	H 	0.54057 0.65713 0.93083 0.14200
N 	N 	0.57777 0.77953 0.93008 -0.06100
C 	C 	0.61977 0.85263 0.94763 0.31000
H 	H 	0.62557 0.90213 0.93893 0.04600
C 	C 	0.65317 0.85293 0.97793 -0.46900
H 	H 	0.68177 0.90273 0.99003 -0.07400
O 	O 	0.61567 0.70433 0.03903 -0.22200
O 	O 	0.48133 0.11087 0.50184 -0.44600
O 	O 	0.44083 0.03057 0.45771 -0.45000
H 	H 	0.33673 0.21047 0.36987 -0.24600
C 	C 	0.45233 0.09297 0.47339 0.38200
C 	C 	0.43153 0.15107 0.45727 -0.06800
C 	C 	0.40083 0.13407 0.42600 -0.05000
H 	H 	0.39183 0.08537 0.41517 0.10200
O 	O 	0.36033 0.06357 0.36247 -0.21500
C 	C 	0.32693 0.10557 0.35957 0.50900
C 	C 	0.31123 0.11367 0.32407 0.52500
C 	C 	0.26923 0.04057 0.30647 -0.15100
H 	H 	0.26343 0.99097 0.31517 0.11800
C 	C 	0.23583 0.04027 0.27617 -0.21800
H 	H 	0.20723 0.99047 0.26417 0.13600
N 	N 	0.24443 0.11287 0.26342 -0.06100
C 	C 	0.28643 0.18597 0.28097 0.31400
H 	H 	0.29223 0.23547 0.27227 0.04500
C 	C 	0.31983 0.18627 0.31127 -0.47200
H 	H 	0.34843 0.23607 0.32337 -0.07600
O 	O 	0.28233 0.03767 0.37237 -0.22300
O 	O 	0.55580 0.70380 0.83517 -0.44500
O 	O 	0.63610 0.74360 0.79104 -0.45000
H 	H 	0.45620 0.45960 0.70320 -0.24400
C 	C 	0.57370 0.69270 0.80672 0.38200
C 	C 	0.51560 0.61380 0.79060 -0.06800
C 	C 	0.53260 0.60010 0.75933 -0.05000
H 	H 	0.58130 0.63980 0.74850 0.10100
O 	O 	0.60310 0.63010 0.69580 -0.21600
C 	C 	0.56110 0.55470 0.69290 0.50300
C 	C 	0.55300 0.53090 0.65740 0.51700
C 	C 	0.62610 0.56200 0.63980 -0.15200
H 	H 	0.67570 0.60580 0.64850 0.12000
C 	C 	0.62640 0.52890 0.60950 -0.22700
H 	H 	0.67620 0.55010 0.59750 0.14200
N 	N 	0.55380 0.46490 0.59675 -0.06100
C 	C 	0.48070 0.43380 0.61430 0.31000
H 	H 	0.43120 0.39010 0.60560 0.04500
C 	C 	0.48040 0.46690 0.64460 -0.46900
H 	H 	0.43060 0.44570 0.65670 -0.07500
O 	O 	0.62900 0.57800 0.70570 -0.22200
O 	O 	0.22247 0.03713 0.16850 -0.44500
O 	O 	0.30277 0.07693 0.12437 -0.45000
H 	H 	0.12287 0.79293 0.03653 -0.24300
C 	C 	0.24037 0.02603 0.14005 0.38500
C 	C 	0.18227 0.94713 0.12393 -0.07200
C 	C 	0.19927 0.93343 0.09266 -0.04700
H 	H 	0.24797 0.97313 0.08183 0.10000
O 	O 	0.26977 0.96343 0.02913 -0.21600
C 	C 	0.22777 0.88803 0.02623 0.50300
C 	C 	0.21967 0.86423 0.99073 0.51700
C 	C 	0.29277 0.89533 0.97313 -0.15200
H 	H 	0.34237 0.93913 0.98183 0.12100
C 	C 	0.29307 0.86223 0.94283 -0.22700
H 	H 	0.34287 0.88343 0.93083 0.14200
N 	N 	0.22047 0.79823 0.93008 -0.06100
C 	C 	0.14737 0.76713 0.94763 0.31000
H 	H 	0.09787 0.72343 0.93893 0.04600
C 	C 	0.14707 0.80023 0.97793 -0.46800
H 	H 	0.09727 0.77903 0.99003 -0.07400
O 	O 	0.29567 0.91133 0.03903 -0.22200
O 	O 	0.88913 0.37047 0.50184 -0.44600
O 	O 	0.96943 0.41027 0.45771 -0.45000
H 	H 	0.78953 0.12627 0.36987 -0.25000
C 	C 	0.90703 0.35937 0.47339 0.38200
C 	C 	0.84893 0.28047 0.45727 -0.06800
C 	C 	0.86593 0.26677 0.42600 -0.04900
H 	H 	0.91463 0.30647 0.41517 0.10200
O 	O 	0.93643 0.29677 0.36247 -0.21500
C 	C 	0.89443 0.22137 0.35957 0.51000
C 	C 	0.88633 0.19757 0.32407 0.52900
C 	C 	0.95943 0.22867 0.30647 -0.15200
H 	H 	0.00903 0.27247 0.31517 0.11800
C 	C 	0.95973 0.19557 0.27617 -0.22000
H 	H 	0.00953 0.21677 0.26417 0.13800
N 	N 	0.88713 0.13157 0.26342 -0.06200
C 	C 	0.81403 0.10047 0.28097 0.31100
H 	H 	0.76453 0.05677 0.27227 0.04500
C 	C 	0.81373 0.13357 0.31127 -0.47700
H 	H 	0.76393 0.11237 0.32337 -0.07800
O 	O 	0.96233 0.24467 0.37237 -0.22300
O 	O 	0.85200 0.29620 0.16483 -0.44500
O 	O 	0.89250 0.25640 0.20896 -0.45000
H 	H 	0.99660 0.54040 0.29680 -0.28300
C 	C 	0.88100 0.30730 0.19328 0.38300
C 	C 	0.90180 0.38620 0.20940 -0.06900
C 	C 	0.93250 0.39990 0.24067 -0.04600
H 	H 	0.94150 0.36020 0.25150 0.10200
O 	O 	0.97300 0.36990 0.30420 -0.22000
C 	C 	0.00640 0.44530 0.30710 0.54500
C 	C 	0.02210 0.46910 0.34260 0.56200
C 	C 	0.06410 0.43800 0.36020 -0.16400
H 	H 	0.06990 0.39420 0.35150 0.12300
C 	C 	0.09750 0.47110 0.39050 -0.23300
H 	H 	0.12610 0.44990 0.40250 0.14400
N 	N 	0.08890 0.53510 0.40325 -0.06500
C 	C 	0.04690 0.56620 0.38570 0.33100
H 	H 	0.04110 0.60990 0.39440 0.04200
C 	C 	0.01350 0.53310 0.35540 -0.50800
H 	H 	0.98490 0.55430 0.34330 -0.08600
O 	O 	0.05100 0.42200 0.29430 -0.23200
O 	O 	0.51867 0.62953 0.49816 -0.44500
O 	O 	0.55917 0.58973 0.54229 -0.45000
H 	H 	0.66327 0.87373 0.63013 -0.24900
C 	C 	0.54767 0.64063 0.52661 0.38200
C 	C 	0.56847 0.71953 0.54273 -0.06800
C 	C 	0.59917 0.73323 0.57400 -0.05000
H 	H 	0.60817 0.69353 0.58483 0.10100
O 	O 	0.63967 0.70323 0.63753 -0.21600
C 	C 	0.67307 0.77863 0.64043 0.50500
C 	C 	0.68877 0.80243 0.67593 0.52200
C 	C 	0.73077 0.77133 0.69353 -0.15400
H 	H 	0.73657 0.72753 0.68483 0.12100
C 	C 	0.76417 0.80443 0.72383 -0.22900
H 	H 	0.79277 0.78323 0.73583 0.14200
N 	N 	0.75557 0.86843 0.73658 -0.06100
C 	C 	0.71357 0.89953 0.71903 0.30600
H 	H 	0.70777 0.94323 0.72773 0.04500
C 	C 	0.68017 0.86643 0.68873 -0.47500
H 	H 	0.65157 0.88763 0.67663 -0.07700
O 	O 	0.71767 0.75533 0.62763 -0.22300
O 	O 	0.18533 0.96287 0.83150 -0.44500
O 	O 	0.22583 0.92307 0.87563 -0.45000
H 	H 	0.32993 0.20707 0.96347 -0.24400
C 	C 	0.21433 0.97397 0.85995 0.38500
C 	C 	0.23513 0.05287 0.87607 -0.07100
C 	C 	0.26583 0.06657 0.90734 -0.04800
H 	H 	0.27483 0.02687 0.91817 0.10000
O 	O 	0.30633 0.03657 0.97087 -0.21600
C 	C 	0.33973 0.11197 0.97377 0.50200
C 	C 	0.35543 0.13577 0.00927 0.51700
C 	C 	0.39743 0.10467 0.02687 -0.15200
H 	H 	0.40323 0.06087 0.01817 0.12100
C 	C 	0.43083 0.13777 0.05717 -0.22700
H 	H 	0.45943 0.11657 0.06917 0.14200
N 	N 	0.42223 0.20177 0.06992 -0.06100
C 	C 	0.38023 0.23287 0.05237 0.30900
H 	H 	0.37443 0.27657 0.06107 0.04600
C 	C 	0.34683 0.19977 0.02207 -0.46900
H 	H 	0.31823 0.22097 0.00997 -0.07500
O 	O 	0.38433 0.08867 0.96097 -0.22200
O 	O 	0.44420 0.14800 0.16483 -0.44500
O 	O 	0.36390 0.10750 0.20896 -0.45000
H 	H 	0.54380 0.00340 0.29680 -0.28300
C 	C 	0.42630 0.11900 0.19328 0.38300
C 	C 	0.48440 0.09820 0.20940 -0.06900
C 	C 	0.46740 0.06750 0.24067 -0.04600
H 	H 	0.41870 0.05850 0.25150 0.10200
O 	O 	0.39690 0.02700 0.30420 -0.22000
C 	C 	0.43890 0.99360 0.30710 0.54500
C 	C 	0.44700 0.97790 0.34260 0.56200
C 	C 	0.37390 0.93590 0.36020 -0.16400
H 	H 	0.32430 0.93010 0.35150 0.12300
C 	C 	0.37360 0.90250 0.39050 -0.23300
H 	H 	0.32380 0.87390 0.40250 0.14400
N 	N 	0.44620 0.91110 0.40325 -0.06500
C 	C 	0.51930 0.95310 0.38570 0.33100
H 	H 	0.56880 0.95890 0.39440 0.04200
C 	C 	0.51960 0.98650 0.35540 -0.50800
H 	H 	0.56940 0.01510 0.34330 -0.08600
O 	O 	0.37100 0.94900 0.29430 -0.23300
O 	O 	0.11087 0.48133 0.49816 -0.44600
O 	O 	0.03057 0.44083 0.54229 -0.45000
H 	H 	0.21047 0.33673 0.63013 -0.24600
C 	C 	0.09297 0.45233 0.52661 0.38200
C 	C 	0.15107 0.43153 0.54273 -0.06800
C 	C 	0.13407 0.40083 0.57400 -0.05000
H 	H 	0.08537 0.39183 0.58483 0.10200
O 	O 	0.06357 0.36033 0.63753 -0.21500
C 	C 	0.10557 0.32693 0.64043 0.50900
C 	C 	0.11367 0.31123 0.67593 0.52500
C 	C 	0.04057 0.26923 0.69353 -0.15100
H 	H 	0.99097 0.26343 0.68483 0.11800
C 	C 	0.04027 0.23583 0.72383 -0.21800
H 	H 	0.99047 0.20723 0.73583 0.13600
N 	N 	0.11287 0.24443 0.73658 -0.06100
C 	C 	0.18597 0.28643 0.71903 0.31400
H 	H 	0.23547 0.29223 0.72773 0.04500
C 	C 	0.18627 0.31983 0.68873 -0.47200
H 	H 	0.23607 0.34843 0.67663 -0.07600
O 	O 	0.03767 0.28233 0.62763 -0.22300
O 	O 	0.77753 0.81467 0.83150 -0.44600
O 	O 	0.69723 0.77417 0.87563 -0.45000
H 	H 	0.87713 0.67007 0.96347 -0.24300
C 	C 	0.75963 0.78567 0.85995 0.38300
C 	C 	0.81773 0.76487 0.87607 -0.06900
C 	C 	0.80073 0.73417 0.90734 -0.04900
H 	H 	0.75203 0.72517 0.91817 0.10100
O 	O 	0.73023 0.69367 0.97087 -0.21600
C 	C 	0.77223 0.66027 0.97377 0.50300
C 	C 	0.78033 0.64457 0.00927 0.51700
C 	C 	0.70723 0.60257 0.02687 -0.15200
H 	H 	0.65763 0.59677 0.01817 0.12100
C 	C 	0.70693 0.56917 0.05717 -0.22600
H 	H 	0.65713 0.54057 0.06917 0.14200
N 	N 	0.77953 0.57777 0.06992 -0.06100
C 	C 	0.85263 0.61977 0.05237 0.31000
H 	H 	0.90213 0.62557 0.06107 0.04600
C 	C 	0.85293 0.65317 0.02207 -0.46900
H 	H 	0.90273 0.68177 0.00997 -0.07400
O 	O 	0.70433 0.61567 0.96097 -0.22200
O 	O 	0.70380 0.55580 0.16483 -0.44500
O 	O 	0.74360 0.63610 0.20896 -0.45000
H 	H 	0.45960 0.45620 0.29680 -0.24400
C 	C 	0.69270 0.57370 0.19328 0.38200
C 	C 	0.61380 0.51560 0.20940 -0.06800
C 	C 	0.60010 0.53260 0.24067 -0.05000
H 	H 	0.63980 0.58130 0.25150 0.10100
O 	O 	0.63010 0.60310 0.30420 -0.21600
C 	C 	0.55470 0.56110 0.30710 0.50300
C 	C 	0.53090 0.55300 0.34260 0.51700
C 	C 	0.56200 0.62610 0.36020 -0.15200
H 	H 	0.60580 0.67570 0.35150 0.12000
C 	C 	0.52890 0.62640 0.39050 -0.22700
H 	H 	0.55010 0.67620 0.40250 0.14200
N 	N 	0.46490 0.55380 0.40325 -0.06100
C 	C 	0.43380 0.48070 0.38570 0.31000
H 	H 	0.39010 0.43120 0.39440 0.04500
C 	C 	0.46690 0.48040 0.35540 -0.46900
H 	H 	0.44570 0.43060 0.34330 -0.07500
O 	O 	0.57800 0.62900 0.29430 -0.22200
O 	O 	0.37047 0.88913 0.49816 -0.44600
O 	O 	0.41027 0.96943 0.54229 -0.45000
H 	H 	0.12627 0.78953 0.63013 -0.25000
C 	C 	0.35937 0.90703 0.52661 0.38200
C 	C 	0.28047 0.84893 0.54273 -0.06800
C 	C 	0.26677 0.86593 0.57400 -0.04900
H 	H 	0.30647 0.91463 0.58483 0.10200
O 	O 	0.29677 0.93643 0.63753 -0.21500
C 	C 	0.22137 0.89443 0.64043 0.51000
C 	C 	0.19757 0.88633 0.67593 0.52900
C 	C 	0.22867 0.95943 0.69353 -0.15200
H 	H 	0.27247 0.00903 0.68483 0.11800
C 	C 	0.19557 0.95973 0.72383 -0.22000
H 	H 	0.21677 0.00953 0.73583 0.13800
N 	N 	0.13157 0.88713 0.73658 -0.06200
C 	C 	0.10047 0.81403 0.71903 0.31100
H 	H 	0.05677 0.76453 0.72773 0.04500
C 	C 	0.13357 0.81373 0.68873 -0.47700
H 	H 	0.11237 0.76393 0.67663 -0.07800
O 	O 	0.24467 0.96233 0.62763 -0.22300
O 	O 	0.03713 0.22247 0.83150 -0.44500
O 	O 	0.07693 0.30277 0.87563 -0.45000
H 	H 	0.79293 0.12287 0.96347 -0.24300
C 	C 	0.02603 0.24037 0.85995 0.38500
C 	C 	0.94713 0.18227 0.87607 -0.07200
C 	C 	0.93343 0.19927 0.90734 -0.04700
H 	H 	0.97313 0.24797 0.91817 0.10000
O 	O 	0.96343 0.26977 0.97087 -0.21600
C 	C 	0.88803 0.22777 0.97377 0.50300
C 	C 	0.86423 0.21967 0.00927 0.51700
C 	C 	0.89533 0.29277 0.02687 -0.15200
H 	H 	0.93913 0.34237 0.01817 0.12100
C 	C 	0.86223 0.29307 0.05717 -0.22700
H 	H 	0.88343 0.34287 0.06917 0.14200
N 	N 	0.79823 0.22047 0.06992 -0.06100
C 	C 	0.76713 0.14737 0.05237 0.31000
H 	H 	0.72343 0.09787 0.06107 0.04600
C 	C 	0.80023 0.14707 0.02207 -0.46800
H 	H 	0.77903 0.09727 0.00997 -0.07400
O 	O 	0.91133 0.29567 0.96097 -0.22200
Zn	Zn	0.80677 0.19323 0.13739 1.22900
Zn	Zn	0.47344 0.52656 0.47072 1.22900
Zn	Zn	0.14010 0.85990 0.80406 1.22900
Zn	Zn	0.80677 0.61354 0.13739 1.22900
Zn	Zn	0.47344 0.94687 0.47072 1.22900
Zn	Zn	0.14010 0.28021 0.80406 1.22900
Zn	Zn	0.38646 0.19323 0.13739 1.22900
Zn	Zn	0.05313 0.52656 0.47072 1.22900
Zn	Zn	0.71979 0.85990 0.80406 1.22900
Zn	Zn	0.19323 0.80677 0.86261 1.22900
Zn	Zn	0.85990 0.14010 0.19594 1.22900
Zn	Zn	0.52656 0.47344 0.52928 1.22900
Zn	Zn	0.61354 0.80677 0.86261 1.22900
Zn	Zn	0.28021 0.14010 0.19594 1.22900
Zn	Zn	0.94687 0.47344 0.52928 1.22900
Zn	Zn	0.19323 0.38646 0.86261 1.22900
Zn	Zn	0.85990 0.71979 0.19594 1.22900
Zn	Zn	0.52656 0.05313 0.52928 1.22900
O 	O 	0.43865 0.87730 0.43101 -0.26600
N 	N 	0.50685 0.01370 0.28828 -0.01900
C 	C 	0.55725 0.11450 0.19394 0.02200
H 	H 	0.56855 0.13710 0.17250 0.06300
C 	C 	0.52455 0.04910 0.25680 0.10700
O 	O 	0.10532 0.21063 0.76434 -0.26700
N 	N 	0.17352 0.34703 0.62161 -0.04100
C 	C 	0.22392 0.44783 0.52727 0.02100
H 	H 	0.23522 0.47043 0.50583 0.06300
C 	C 	0.19122 0.38243 0.59013 0.11100
O 	O 	0.77198 0.54397 0.09768 -0.26700
N 	N 	0.84018 0.68037 0.95495 -0.04400
C 	C 	0.89058 0.78117 0.86061 0.02200
H 	H 	0.90188 0.80377 0.83917 0.06200
C 	C 	0.85788 0.71577 0.92347 0.11000
O 	O 	0.12270 0.56135 0.43101 -0.26600
N 	N 	0.98630 0.49315 0.28828 -0.01900
C 	C 	0.88550 0.44275 0.19394 0.02200
H 	H 	0.86290 0.43145 0.17250 0.06300
C 	C 	0.95090 0.47545 0.25680 0.10700
O 	O 	0.78937 0.89468 0.76434 -0.26700
N 	N 	0.65297 0.82648 0.62161 -0.04100
C 	C 	0.55217 0.77608 0.52727 0.02100
H 	H 	0.52957 0.76478 0.50583 0.06300
C 	C 	0.61757 0.80878 0.59013 0.11100
O 	O 	0.45603 0.22802 0.09768 -0.26700
N 	N 	0.31963 0.15982 0.95495 -0.04400
C 	C 	0.21883 0.10942 0.86061 0.02200
H 	H 	0.19623 0.09812 0.83917 0.06200
C 	C 	0.28423 0.14212 0.92347 0.11000
O 	O 	0.43865 0.56135 0.43101 -0.26700
N 	N 	0.50685 0.49315 0.28828 -0.04400
C 	C 	0.55725 0.44275 0.19394 0.02100
H 	H 	0.56855 0.43145 0.17250 0.06300
C 	C 	0.52455 0.47545 0.25680 0.11100
O 	O 	0.10532 0.89468 0.76434 -0.26600
N 	N 	0.17352 0.82648 0.62161 -0.03900
C 	C 	0.22392 0.77608 0.52727 0.02100
H 	H 	0.23522 0.76478 0.50583 0.06300
C 	C 	0.19122 0.80878 0.59013 0.11100
O 	O 	0.77198 0.22802 0.09768 -0.26700
N 	N 	0.84018 0.15982 0.95495 -0.04400
C 	C 	0.89058 0.10942 0.86061 0.02400
H 	H 	0.90188 0.09812 0.83917 0.06100
C 	C 	0.85788 0.14212 0.92347 0.10900
O 	O 	0.87730 0.43865 0.56899 -0.26600
N 	N 	0.01370 0.50685 0.71172 -0.01900
C 	C 	0.11450 0.55725 0.80606 0.02200
H 	H 	0.13710 0.56855 0.82750 0.06300
C 	C 	0.04910 0.52455 0.74320 0.10700
O 	O 	0.54397 0.77198 0.90232 -0.26700
N 	N 	0.68037 0.84018 0.04505 -0.04400
C 	C 	0.78117 0.89058 0.13939 0.02200
H 	H 	0.80377 0.90188 0.16083 0.06200
C 	C 	0.71577 0.85788 0.07653 0.11000
O 	O 	0.21063 0.10532 0.23566 -0.26700
N 	N 	0.34703 0.17352 0.37839 -0.04100
C 	C 	0.44783 0.22392 0.47273 0.02100
H 	H 	0.47043 0.23522 0.49417 0.06300
C 	C 	0.38243 0.19122 0.40987 0.11100
O 	O 	0.56135 0.12270 0.56899 -0.26600
N 	N 	0.49315 0.98630 0.71172 -0.01900
C 	C 	0.44275 0.88550 0.80606 0.02200
H 	H 	0.43145 0.86290 0.82750 0.06300
C 	C 	0.47545 0.95090 0.74320 0.10700
O 	O 	0.22802 0.45603 0.90232 -0.26700
N 	N 	0.15982 0.31963 0.04505 -0.04400
C 	C 	0.10942 0.21883 0.13939 0.02200
H 	H 	0.09812 0.19623 0.16083 0.06200
C 	C 	0.14212 0.28423 0.07653 0.11000
O 	O 	0.89468 0.78937 0.23566 -0.26700
N 	N 	0.82648 0.65297 0.37839 -0.04100
C 	C 	0.77608 0.55217 0.47273 0.02100
H 	H 	0.76478 0.52957 0.49417 0.06300
C 	C 	0.80878 0.61757 0.40987 0.11100
O 	O 	0.56135 0.43865 0.56899 -0.26700
N 	N 	0.49315 0.50685 0.71172 -0.04400
C 	C 	0.44275 0.55725 0.80606 0.02100
H 	H 	0.43145 0.56855 0.82750 0.06300
C 	C 	0.47545 0.52455 0.74320 0.11100
O 	O 	0.22802 0.77198 0.90232 -0.26700
N 	N 	0.15982 0.84018 0.04505 -0.04400
C 	C 	0.10942 0.89058 0.13939 0.02400
H 	H 	0.09812 0.90188 0.16083 0.06100
C 	C 	0.14212 0.85788 0.07653 0.10900
O 	O 	0.89468 0.10532 0.23566 -0.26600
N 	N 	0.82648 0.17352 0.37839 -0.03900
C 	C 	0.77608 0.22392 0.47273 0.02100
H 	H 	0.76478 0.23522 0.49417 0.06300
C 	C 	0.80878 0.19122 0.40987 0.11100
