data_crystal

_cell_length_a 19.34110
_cell_length_b 19.34110
_cell_length_c 37.85170
_cell_angle_alpha 90.00000
_cell_angle_beta  90.00000
_cell_angle_gamma 120.00000

_symmetry_space_group_name_	'P 1'
_symmetry_space_group_name_H-M	'P 1'

loop_
_symmetry_equiv_pos_as_xyz
  x,y,z

loop_
_atom_site_label
_atom_site_type_symbol
_atom_site_fract_x
_atom_site_fract_y
_atom_site_fract_z
_atom_site_charge
O 	O 	0.21900 0.29170 0.87030 -0.48200
O 	O 	0.18200 0.21751 0.82129 -0.44600
H 	H 	0.34030 0.12980 0.95950 0.09600
C 	C 	0.27450 0.19960 0.90058 -0.09700
H 	H 	0.28750 0.24770 0.91140 0.08200
C 	C 	0.23650 0.18000 0.86837 -0.04800
C 	C 	0.21050 0.23420 0.85185 0.37600
N 	N 	0.39860 0.20440 0.07988 -0.09700
C 	C 	0.40950 0.27550 0.06577 -0.64800
H 	H 	0.42390 0.31920 0.08040 0.23900
C 	C 	0.39870 0.28110 0.02980 -0.31600
H 	H 	0.40600 0.32870 0.02040 0.18500
C 	C 	0.37720 0.21570 0.00793 -0.46200
C 	C 	0.36630 0.14460 0.02204 0.55600
H 	H 	0.35190 0.10080 0.00740 0.01400
C 	C 	0.37700 0.13890 0.05801 0.37800
H 	H 	0.36980 0.09140 0.06740 0.13600
O 	O 	0.38210 0.31240 0.95890 -0.18200
C 	C 	0.35660 0.22760 0.96950 0.13700
O 	O 	0.88567 0.62503 0.20363 -0.48000
O 	O 	0.84867 0.55084 0.15462 -0.44500
H 	H 	0.00697 0.46313 0.29283 0.09600
C 	C 	0.94117 0.53293 0.23391 -0.09700
H 	H 	0.95417 0.58103 0.24473 0.08300
C 	C 	0.90317 0.51333 0.20170 -0.04800
C 	C 	0.87717 0.56753 0.18518 0.37600
N 	N 	0.06527 0.53773 0.41321 -0.09700
C 	C 	0.07617 0.60883 0.39910 -0.64700
H 	H 	0.09057 0.65253 0.41373 0.23900
C 	C 	0.06537 0.61443 0.36313 -0.31600
H 	H 	0.07267 0.66203 0.35373 0.18400
C 	C 	0.04387 0.54903 0.34126 -0.46200
C 	C 	0.03297 0.47793 0.35537 0.55600
H 	H 	0.01857 0.43413 0.34073 0.01400
C 	C 	0.04367 0.47223 0.39134 0.37800
H 	H 	0.03647 0.42473 0.40073 0.13500
O 	O 	0.04877 0.64573 0.29223 -0.18200
C 	C 	0.02327 0.56093 0.30283 0.13700
O 	O 	0.55233 0.95837 0.53697 -0.48000
O 	O 	0.51533 0.88418 0.48796 -0.44500
H 	H 	0.67363 0.79647 0.62617 0.09600
C 	C 	0.60783 0.86627 0.56725 -0.09700
H 	H 	0.62083 0.91437 0.57807 0.08200
C 	C 	0.56983 0.84667 0.53504 -0.04800
C 	C 	0.54383 0.90087 0.51852 0.37600
N 	N 	0.73193 0.87107 0.74655 -0.09700
C 	C 	0.74283 0.94217 0.73244 -0.64700
H 	H 	0.75723 0.98587 0.74707 0.23900
C 	C 	0.73203 0.94777 0.69647 -0.31600
H 	H 	0.73933 0.99537 0.68707 0.18500
C 	C 	0.71053 0.88237 0.67460 -0.46200
C 	C 	0.69963 0.81127 0.68871 0.55600
H 	H 	0.68523 0.76747 0.67407 0.01400
C 	C 	0.71033 0.80557 0.72468 0.37800
H 	H 	0.70313 0.75807 0.73407 0.13500
O 	O 	0.71543 0.97907 0.62557 -0.18200
C 	C 	0.68993 0.89427 0.63617 0.13700
O 	O 	0.70830 0.92730 0.87030 -0.48000
O 	O 	0.78249 0.96449 0.82129 -0.44500
H 	H 	0.87020 0.21050 0.95950 0.09600
C 	C 	0.80040 0.07490 0.90058 -0.09600
H 	H 	0.75230 0.03980 0.91140 0.08200
C 	C 	0.82000 0.05650 0.86837 -0.04800
C 	C 	0.76580 0.97630 0.85185 0.37600
N 	N 	0.79560 0.19420 0.07988 -0.09700
C 	C 	0.72450 0.13400 0.06577 -0.64800
H 	H 	0.68080 0.10470 0.08040 0.23900
C 	C 	0.71890 0.11760 0.02980 -0.31600
H 	H 	0.67130 0.07730 0.02040 0.18500
C 	C 	0.78430 0.16150 0.00793 -0.46200
C 	C 	0.85540 0.22170 0.02204 0.55700
H 	H 	0.89920 0.25110 0.00740 0.01400
C 	C 	0.86110 0.23810 0.05801 0.37800
H 	H 	0.90860 0.27840 0.06740 0.13600
O 	O 	0.68760 0.06970 0.95890 -0.18200
C 	C 	0.77240 0.12900 0.96950 0.13700
O 	O 	0.37497 0.26063 0.20363 -0.48100
O 	O 	0.44916 0.29782 0.15462 -0.44500
H 	H 	0.53687 0.54383 0.29283 0.09600
C 	C 	0.46707 0.40823 0.23391 -0.09700
H 	H 	0.41897 0.37313 0.24473 0.08200
C 	C 	0.48667 0.38983 0.20170 -0.04800
C 	C 	0.43247 0.30963 0.18518 0.37600
N 	N 	0.46227 0.52753 0.41321 -0.09700
C 	C 	0.39117 0.46733 0.39910 -0.64800
H 	H 	0.34747 0.43803 0.41373 0.23900
C 	C 	0.38557 0.45093 0.36313 -0.31600
H 	H 	0.33797 0.41063 0.35373 0.18500
C 	C 	0.45097 0.49483 0.34126 -0.46200
C 	C 	0.52207 0.55503 0.35537 0.55600
H 	H 	0.56587 0.58443 0.34073 0.01400
C 	C 	0.52777 0.57143 0.39134 0.37800
H 	H 	0.57527 0.61173 0.40073 0.13600
O 	O 	0.35427 0.40303 0.29223 -0.18200
C 	C 	0.43907 0.46233 0.30283 0.13700
O 	O 	0.04163 0.59397 0.53697 -0.48000
O 	O 	0.11582 0.63116 0.48796 -0.44500
H 	H 	0.20353 0.87717 0.62617 0.09600
C 	C 	0.13373 0.74157 0.56725 -0.09700
H 	H 	0.08563 0.70647 0.57807 0.08300
C 	C 	0.15333 0.72317 0.53504 -0.04800
C 	C 	0.09913 0.64297 0.51852 0.37600
N 	N 	0.12893 0.86087 0.74655 -0.09700
C 	C 	0.05783 0.80067 0.73244 -0.64700
H 	H 	0.01413 0.77137 0.74707 0.23900
C 	C 	0.05223 0.78427 0.69647 -0.31600
H 	H 	0.00463 0.74397 0.68707 0.18500
C 	C 	0.11763 0.82817 0.67460 -0.46200
C 	C 	0.18873 0.88837 0.68871 0.55600
H 	H 	0.23253 0.91777 0.67407 0.01400
C 	C 	0.19443 0.90477 0.72468 0.37800
H 	H 	0.24193 0.94507 0.73407 0.13500
O 	O 	0.02093 0.73637 0.62557 -0.18200
C 	C 	0.10573 0.79567 0.63617 0.13700
O 	O 	0.07270 0.78100 0.87030 -0.48000
O 	O 	0.03551 0.81800 0.82129 -0.44500
H 	H 	0.78950 0.65970 0.95950 0.09600
C 	C 	0.92510 0.72550 0.90058 -0.09600
H 	H 	0.96020 0.71250 0.91140 0.08200
C 	C 	0.94350 0.76350 0.86837 -0.04800
C 	C 	0.02370 0.78950 0.85185 0.37600
N 	N 	0.80580 0.60140 0.07988 -0.09700
C 	C 	0.86600 0.59050 0.06577 -0.64800
H 	H 	0.89530 0.57610 0.08040 0.23900
C 	C 	0.88240 0.60130 0.02980 -0.31600
H 	H 	0.92270 0.59400 0.02040 0.18500
C 	C 	0.83850 0.62280 0.00793 -0.46200
C 	C 	0.77830 0.63370 0.02204 0.55600
H 	H 	0.74890 0.64810 0.00740 0.01400
C 	C 	0.76190 0.62300 0.05801 0.37800
H 	H 	0.72160 0.63020 0.06740 0.13600
O 	O 	0.93030 0.61790 0.95890 -0.18200
C 	C 	0.87100 0.64340 0.96950 0.13700
O 	O 	0.73937 0.11433 0.20363 -0.48000
O 	O 	0.70218 0.15133 0.15462 -0.44500
H 	H 	0.45617 0.99303 0.29283 0.09600
C 	C 	0.59177 0.05883 0.23391 -0.09700
H 	H 	0.62687 0.04583 0.24473 0.08300
C 	C 	0.61017 0.09683 0.20170 -0.04800
C 	C 	0.69037 0.12283 0.18518 0.37600
N 	N 	0.47247 0.93473 0.41321 -0.09700
C 	C 	0.53267 0.92383 0.39910 -0.64700
H 	H 	0.56197 0.90943 0.41373 0.23900
C 	C 	0.54907 0.93463 0.36313 -0.31600
H 	H 	0.58937 0.92733 0.35373 0.18400
C 	C 	0.50517 0.95613 0.34126 -0.46200
C 	C 	0.44497 0.96703 0.35537 0.55600
H 	H 	0.41557 0.98143 0.34073 0.01400
C 	C 	0.42857 0.95633 0.39134 0.37800
H 	H 	0.38827 0.96353 0.40073 0.13500
O 	O 	0.59697 0.95123 0.29223 -0.18200
C 	C 	0.53767 0.97673 0.30283 0.13700
O 	O 	0.40603 0.44767 0.53697 -0.48000
O 	O 	0.36884 0.48467 0.48796 -0.44500
H 	H 	0.12283 0.32637 0.62617 0.09600
C 	C 	0.25843 0.39217 0.56725 -0.09700
H 	H 	0.29353 0.37917 0.57807 0.08200
C 	C 	0.27683 0.43017 0.53504 -0.04800
C 	C 	0.35703 0.45617 0.51852 0.37600
N 	N 	0.13913 0.26807 0.74655 -0.09700
C 	C 	0.19933 0.25717 0.73244 -0.64800
H 	H 	0.22863 0.24277 0.74707 0.23900
C 	C 	0.21573 0.26797 0.69647 -0.31600
H 	H 	0.25603 0.26067 0.68707 0.18500
C 	C 	0.17183 0.28947 0.67460 -0.46200
C 	C 	0.11163 0.30037 0.68871 0.55600
H 	H 	0.08223 0.31477 0.67407 0.01400
C 	C 	0.09523 0.28967 0.72468 0.37800
H 	H 	0.05493 0.29687 0.73407 0.13600
O 	O 	0.26363 0.28457 0.62557 -0.18200
C 	C 	0.20433 0.31007 0.63617 0.13700
O 	O 	0.29170 0.21900 0.12970 -0.48100
O 	O 	0.21751 0.18200 0.17871 -0.44500
H 	H 	0.12980 0.34030 0.04050 0.09600
C 	C 	0.19960 0.27450 0.09942 -0.09700
H 	H 	0.24770 0.28750 0.08860 0.08200
C 	C 	0.18000 0.23650 0.13163 -0.04800
C 	C 	0.23420 0.21050 0.14815 0.37600
N 	N 	0.20440 0.39860 0.92012 -0.09700
C 	C 	0.27550 0.40950 0.93423 -0.64800
H 	H 	0.31920 0.42390 0.91960 0.23900
C 	C 	0.28110 0.39870 0.97020 -0.31600
H 	H 	0.32870 0.40600 0.97960 0.18500
C 	C 	0.21570 0.37720 0.99207 -0.46200
C 	C 	0.14460 0.36630 0.97796 0.55600
H 	H 	0.10080 0.35190 0.99260 0.01400
C 	C 	0.13890 0.37700 0.94199 0.37800
H 	H 	0.09140 0.36980 0.93260 0.13600
O 	O 	0.31240 0.38210 0.04110 -0.18200
C 	C 	0.22760 0.35660 0.03050 0.13700
O 	O 	0.95837 0.55233 0.46303 -0.48000
O 	O 	0.88418 0.51533 0.51204 -0.44500
H 	H 	0.79647 0.67363 0.37383 0.09600
C 	C 	0.86627 0.60783 0.43275 -0.09700
H 	H 	0.91437 0.62083 0.42193 0.08200
C 	C 	0.84667 0.56983 0.46496 -0.04800
C 	C 	0.90087 0.54383 0.48148 0.37600
N 	N 	0.87107 0.73193 0.25345 -0.09700
C 	C 	0.94217 0.74283 0.26756 -0.64700
H 	H 	0.98587 0.75723 0.25293 0.23900
C 	C 	0.94777 0.73203 0.30353 -0.31600
H 	H 	0.99537 0.73933 0.31293 0.18500
C 	C 	0.88237 0.71053 0.32540 -0.46200
C 	C 	0.81127 0.69963 0.31129 0.55600
H 	H 	0.76747 0.68523 0.32593 0.01400
C 	C 	0.80557 0.71033 0.27532 0.37800
H 	H 	0.75807 0.70313 0.26593 0.13500
O 	O 	0.97907 0.71543 0.37443 -0.18200
C 	C 	0.89427 0.68993 0.36383 0.13700
O 	O 	0.62503 0.88567 0.79637 -0.48000
O 	O 	0.55084 0.84867 0.84538 -0.44500
H 	H 	0.46313 0.00697 0.70717 0.09600
C 	C 	0.53293 0.94117 0.76609 -0.09700
H 	H 	0.58103 0.95417 0.75527 0.08300
C 	C 	0.51333 0.90317 0.79830 -0.04800
C 	C 	0.56753 0.87717 0.81482 0.37600
N 	N 	0.53773 0.06527 0.58679 -0.09700
C 	C 	0.60883 0.07617 0.60090 -0.64700
H 	H 	0.65253 0.09057 0.58627 0.23900
C 	C 	0.61443 0.06537 0.63687 -0.31600
H 	H 	0.66203 0.07267 0.64627 0.18400
C 	C 	0.54903 0.04387 0.65874 -0.46200
C 	C 	0.47793 0.03297 0.64463 0.55600
H 	H 	0.43413 0.01857 0.65927 0.01400
C 	C 	0.47223 0.04367 0.60866 0.37800
H 	H 	0.42473 0.03647 0.59927 0.13500
O 	O 	0.64573 0.04877 0.70777 -0.18200
C 	C 	0.56093 0.02327 0.69717 0.13700
O 	O 	0.92730 0.70830 0.12970 -0.48000
O 	O 	0.96449 0.78249 0.17871 -0.44500
H 	H 	0.21050 0.87020 0.04050 0.09600
C 	C 	0.07490 0.80040 0.09942 -0.09600
H 	H 	0.03980 0.75230 0.08860 0.08200
C 	C 	0.05650 0.82000 0.13163 -0.04800
C 	C 	0.97630 0.76580 0.14815 0.37600
N 	N 	0.19420 0.79560 0.92012 -0.09700
C 	C 	0.13400 0.72450 0.93423 -0.64800
H 	H 	0.10470 0.68080 0.91960 0.23900
C 	C 	0.11760 0.71890 0.97020 -0.31600
H 	H 	0.07730 0.67130 0.97960 0.18500
C 	C 	0.16150 0.78430 0.99207 -0.46200
C 	C 	0.22170 0.85540 0.97796 0.55700
H 	H 	0.25110 0.89920 0.99260 0.01400
C 	C 	0.23810 0.86110 0.94199 0.37800
H 	H 	0.27840 0.90860 0.93260 0.13600
O 	O 	0.06970 0.68760 0.04110 -0.18200
C 	C 	0.12900 0.77240 0.03050 0.13700
O 	O 	0.59397 0.04163 0.46303 -0.48000
O 	O 	0.63116 0.11582 0.51204 -0.44500
H 	H 	0.87717 0.20353 0.37383 0.09600
C 	C 	0.74157 0.13373 0.43275 -0.09700
H 	H 	0.70647 0.08563 0.42193 0.08300
C 	C 	0.72317 0.15333 0.46496 -0.04800
C 	C 	0.64297 0.09913 0.48148 0.37600
N 	N 	0.86087 0.12893 0.25345 -0.09700
C 	C 	0.80067 0.05783 0.26756 -0.64700
H 	H 	0.77137 0.01413 0.25293 0.23900
C 	C 	0.78427 0.05223 0.30353 -0.31600
H 	H 	0.74397 0.00463 0.31293 0.18500
C 	C 	0.82817 0.11763 0.32540 -0.46200
C 	C 	0.88837 0.18873 0.31129 0.55600
H 	H 	0.91777 0.23253 0.32593 0.01400
C 	C 	0.90477 0.19443 0.27532 0.37800
H 	H 	0.94507 0.24193 0.26593 0.13500
O 	O 	0.73637 0.02093 0.37443 -0.18200
C 	C 	0.79567 0.10573 0.36383 0.13700
O 	O 	0.26063 0.37497 0.79637 -0.48100
O 	O 	0.29782 0.44916 0.84538 -0.44500
H 	H 	0.54383 0.53687 0.70717 0.09600
C 	C 	0.40823 0.46707 0.76609 -0.09700
H 	H 	0.37313 0.41897 0.75527 0.08200
C 	C 	0.38983 0.48667 0.79830 -0.04800
C 	C 	0.30963 0.43247 0.81482 0.37600
N 	N 	0.52753 0.46227 0.58679 -0.09700
C 	C 	0.46733 0.39117 0.60090 -0.64800
H 	H 	0.43803 0.34747 0.58627 0.23900
C 	C 	0.45093 0.38557 0.63687 -0.31600
H 	H 	0.41063 0.33797 0.64627 0.18500
C 	C 	0.49483 0.45097 0.65874 -0.46200
C 	C 	0.55503 0.52207 0.64463 0.55600
H 	H 	0.58443 0.56587 0.65927 0.01400
C 	C 	0.57143 0.52777 0.60866 0.37800
H 	H 	0.61173 0.57527 0.59927 0.13600
O 	O 	0.40303 0.35427 0.70777 -0.18200
C 	C 	0.46233 0.43907 0.69717 0.13700
O 	O 	0.78100 0.07270 0.12970 -0.48000
O 	O 	0.81800 0.03551 0.17871 -0.44500
H 	H 	0.65970 0.78950 0.04050 0.09600
C 	C 	0.72550 0.92510 0.09942 -0.09600
H 	H 	0.71250 0.96020 0.08860 0.08200
C 	C 	0.76350 0.94350 0.13163 -0.04800
C 	C 	0.78950 0.02370 0.14815 0.37600
N 	N 	0.60140 0.80580 0.92012 -0.09700
C 	C 	0.59050 0.86600 0.93423 -0.64800
H 	H 	0.57610 0.89530 0.91960 0.23900
C 	C 	0.60130 0.88240 0.97020 -0.31600
H 	H 	0.59400 0.92270 0.97960 0.18500
C 	C 	0.62280 0.83850 0.99207 -0.46200
C 	C 	0.63370 0.77830 0.97796 0.55600
H 	H 	0.64810 0.74890 0.99260 0.01400
C 	C 	0.62300 0.76190 0.94199 0.37800
H 	H 	0.63020 0.72160 0.93260 0.13600
O 	O 	0.61790 0.93030 0.04110 -0.18200
C 	C 	0.64340 0.87100 0.03050 0.13700
O 	O 	0.44767 0.40603 0.46303 -0.48000
O 	O 	0.48467 0.36884 0.51204 -0.44500
H 	H 	0.32637 0.12283 0.37383 0.09600
C 	C 	0.39217 0.25843 0.43275 -0.09700
H 	H 	0.37917 0.29353 0.42193 0.08200
C 	C 	0.43017 0.27683 0.46496 -0.04800
C 	C 	0.45617 0.35703 0.48148 0.37600
N 	N 	0.26807 0.13913 0.25345 -0.09700
C 	C 	0.25717 0.19933 0.26756 -0.64800
H 	H 	0.24277 0.22863 0.25293 0.23900
C 	C 	0.26797 0.21573 0.30353 -0.31600
H 	H 	0.26067 0.25603 0.31293 0.18500
C 	C 	0.28947 0.17183 0.32540 -0.46200
C 	C 	0.30037 0.11163 0.31129 0.55600
H 	H 	0.31477 0.08223 0.32593 0.01400
C 	C 	0.28967 0.09523 0.27532 0.37800
H 	H 	0.29687 0.05493 0.26593 0.13600
O 	O 	0.28457 0.26363 0.37443 -0.18200
C 	C 	0.31007 0.20433 0.36383 0.13700
O 	O 	0.11433 0.73937 0.79637 -0.48000
O 	O 	0.15133 0.70218 0.84538 -0.44500
H 	H 	0.99303 0.45617 0.70717 0.09600
C 	C 	0.05883 0.59177 0.76609 -0.09700
H 	H 	0.04583 0.62687 0.75527 0.08300
C 	C 	0.09683 0.61017 0.79830 -0.04800
C 	C 	0.12283 0.69037 0.81482 0.37600
N 	N 	0.93473 0.47247 0.58679 -0.09700
C 	C 	0.92383 0.53267 0.60090 -0.64700
H 	H 	0.90943 0.56197 0.58627 0.23900
C 	C 	0.93463 0.54907 0.63687 -0.31600
H 	H 	0.92733 0.58937 0.64627 0.18400
C 	C 	0.95613 0.50517 0.65874 -0.46200
C 	C 	0.96703 0.44497 0.64463 0.55600
H 	H 	0.98143 0.41557 0.65927 0.01400
C 	C 	0.95633 0.42857 0.60866 0.37800
H 	H 	0.96353 0.38827 0.59927 0.13500
O 	O 	0.95123 0.59697 0.70777 -0.18200
C 	C 	0.97673 0.53767 0.69717 0.13700
O 	O 	0.78100 0.70830 0.12970 -0.48100
O 	O 	0.81800 0.78249 0.17871 -0.44500
H 	H 	0.65970 0.87020 0.04050 0.09600
C 	C 	0.72550 0.80040 0.09942 -0.09700
H 	H 	0.71250 0.75230 0.08860 0.08200
C 	C 	0.76350 0.82000 0.13163 -0.04800
C 	C 	0.78950 0.76580 0.14815 0.37600
N 	N 	0.60140 0.79560 0.92012 -0.09700
C 	C 	0.59050 0.72450 0.93423 -0.64800
H 	H 	0.57610 0.68080 0.91960 0.23900
C 	C 	0.60130 0.71890 0.97020 -0.31600
H 	H 	0.59400 0.67130 0.97960 0.18500
C 	C 	0.62280 0.78430 0.99207 -0.46200
C 	C 	0.63370 0.85540 0.97796 0.55600
H 	H 	0.64810 0.89920 0.99260 0.01400
C 	C 	0.62300 0.86110 0.94199 0.37800
H 	H 	0.63020 0.90860 0.93260 0.13600
O 	O 	0.61790 0.68760 0.04110 -0.18200
C 	C 	0.64340 0.77240 0.03050 0.13700
O 	O 	0.44767 0.04163 0.46303 -0.48000
O 	O 	0.48467 0.11582 0.51204 -0.44500
H 	H 	0.32637 0.20353 0.37383 0.09600
C 	C 	0.39217 0.13373 0.43275 -0.09700
H 	H 	0.37917 0.08563 0.42193 0.08200
C 	C 	0.43017 0.15333 0.46496 -0.04800
C 	C 	0.45617 0.09913 0.48148 0.37600
N 	N 	0.26807 0.12893 0.25345 -0.09700
C 	C 	0.25717 0.05783 0.26756 -0.64700
H 	H 	0.24277 0.01413 0.25293 0.23900
C 	C 	0.26797 0.05223 0.30353 -0.31600
H 	H 	0.26067 0.00463 0.31293 0.18500
C 	C 	0.28947 0.11763 0.32540 -0.46200
C 	C 	0.30037 0.18873 0.31129 0.55600
H 	H 	0.31477 0.23253 0.32593 0.01400
C 	C 	0.28967 0.19443 0.27532 0.37800
H 	H 	0.29687 0.24193 0.26593 0.13500
O 	O 	0.28457 0.02093 0.37443 -0.18200
C 	C 	0.31007 0.10573 0.36383 0.13700
O 	O 	0.11433 0.37497 0.79637 -0.48000
O 	O 	0.15133 0.44916 0.84538 -0.44500
H 	H 	0.99303 0.53687 0.70717 0.09600
C 	C 	0.05883 0.46707 0.76609 -0.09700
H 	H 	0.04583 0.41897 0.75527 0.08300
C 	C 	0.09683 0.48667 0.79830 -0.04800
C 	C 	0.12283 0.43247 0.81482 0.37600
N 	N 	0.93473 0.46227 0.58679 -0.09700
C 	C 	0.92383 0.39117 0.60090 -0.64700
H 	H 	0.90943 0.34747 0.58627 0.23900
C 	C 	0.93463 0.38557 0.63687 -0.31600
H 	H 	0.92733 0.33797 0.64627 0.18400
C 	C 	0.95613 0.45097 0.65874 -0.46200
C 	C 	0.96703 0.52207 0.64463 0.55600
H 	H 	0.98143 0.56587 0.65927 0.01400
C 	C 	0.95633 0.52777 0.60866 0.37800
H 	H 	0.96353 0.57527 0.59927 0.13500
O 	O 	0.95123 0.35427 0.70777 -0.18200
C 	C 	0.97673 0.43907 0.69717 0.13700
O 	O 	0.29170 0.07270 0.12970 -0.48000
O 	O 	0.21751 0.03551 0.17871 -0.44500
H 	H 	0.12980 0.78950 0.04050 0.09600
C 	C 	0.19960 0.92510 0.09942 -0.09600
H 	H 	0.24770 0.96020 0.08860 0.08200
C 	C 	0.18000 0.94350 0.13163 -0.04800
C 	C 	0.23420 0.02370 0.14815 0.37600
N 	N 	0.20440 0.80580 0.92012 -0.09700
C 	C 	0.27550 0.86600 0.93423 -0.64800
H 	H 	0.31920 0.89530 0.91960 0.23900
C 	C 	0.28110 0.88240 0.97020 -0.31600
H 	H 	0.32870 0.92270 0.97960 0.18500
C 	C 	0.21570 0.83850 0.99207 -0.46200
C 	C 	0.14460 0.77830 0.97796 0.55700
H 	H 	0.10080 0.74890 0.99260 0.01400
C 	C 	0.13890 0.76190 0.94199 0.37800
H 	H 	0.09140 0.72160 0.93260 0.13600
O 	O 	0.31240 0.93030 0.04110 -0.18200
C 	C 	0.22760 0.87100 0.03050 0.13700
O 	O 	0.95837 0.40603 0.46303 -0.48000
O 	O 	0.88418 0.36884 0.51204 -0.44500
H 	H 	0.79647 0.12283 0.37383 0.09600
C 	C 	0.86627 0.25843 0.43275 -0.09700
H 	H 	0.91437 0.29353 0.42193 0.08300
C 	C 	0.84667 0.27683 0.46496 -0.04800
C 	C 	0.90087 0.35703 0.48148 0.37600
N 	N 	0.87107 0.13913 0.25345 -0.09700
C 	C 	0.94217 0.19933 0.26756 -0.64700
H 	H 	0.98587 0.22863 0.25293 0.23900
C 	C 	0.94777 0.21573 0.30353 -0.31600
H 	H 	0.99537 0.25603 0.31293 0.18500
C 	C 	0.88237 0.17183 0.32540 -0.46200
C 	C 	0.81127 0.11163 0.31129 0.55600
H 	H 	0.76747 0.08223 0.32593 0.01400
C 	C 	0.80557 0.09523 0.27532 0.37800
H 	H 	0.75807 0.05493 0.26593 0.13500
O 	O 	0.97907 0.26363 0.37443 -0.18200
C 	C 	0.89427 0.20433 0.36383 0.13700
O 	O 	0.62503 0.73937 0.79637 -0.48100
O 	O 	0.55084 0.70218 0.84538 -0.44500
H 	H 	0.46313 0.45617 0.70717 0.09600
C 	C 	0.53293 0.59177 0.76609 -0.09700
H 	H 	0.58103 0.62687 0.75527 0.08200
C 	C 	0.51333 0.61017 0.79830 -0.04800
C 	C 	0.56753 0.69037 0.81482 0.37600
N 	N 	0.53773 0.47247 0.58679 -0.09700
C 	C 	0.60883 0.53267 0.60090 -0.64800
H 	H 	0.65253 0.56197 0.58627 0.23900
C 	C 	0.61443 0.54907 0.63687 -0.31600
H 	H 	0.66203 0.58937 0.64627 0.18500
C 	C 	0.54903 0.50517 0.65874 -0.46200
C 	C 	0.47793 0.44497 0.64463 0.55600
H 	H 	0.43413 0.41557 0.65927 0.01400
C 	C 	0.47223 0.42857 0.60866 0.37800
H 	H 	0.42473 0.38827 0.59927 0.13600
O 	O 	0.64573 0.59697 0.70777 -0.18200
C 	C 	0.56093 0.53767 0.69717 0.13700
O 	O 	0.92730 0.21900 0.12970 -0.48000
O 	O 	0.96449 0.18200 0.17871 -0.44500
H 	H 	0.21050 0.34030 0.04050 0.09600
C 	C 	0.07490 0.27450 0.09942 -0.09600
H 	H 	0.03980 0.28750 0.08860 0.08200
C 	C 	0.05650 0.23650 0.13163 -0.04800
C 	C 	0.97630 0.21050 0.14815 0.37600
N 	N 	0.19420 0.39860 0.92012 -0.09700
C 	C 	0.13400 0.40950 0.93423 -0.64800
H 	H 	0.10470 0.42390 0.91960 0.23900
C 	C 	0.11760 0.39870 0.97020 -0.31600
H 	H 	0.07730 0.40600 0.97960 0.18500
C 	C 	0.16150 0.37720 0.99207 -0.46200
C 	C 	0.22170 0.36630 0.97796 0.55600
H 	H 	0.25110 0.35190 0.99260 0.01400
C 	C 	0.23810 0.37700 0.94199 0.37800
H 	H 	0.27840 0.36980 0.93260 0.13600
O 	O 	0.06970 0.38210 0.04110 -0.18200
C 	C 	0.12900 0.35660 0.03050 0.13700
O 	O 	0.59397 0.55233 0.46303 -0.48000
O 	O 	0.63116 0.51533 0.51204 -0.44500
H 	H 	0.87717 0.67363 0.37383 0.09600
C 	C 	0.74157 0.60783 0.43275 -0.09700
H 	H 	0.70647 0.62083 0.42193 0.08200
C 	C 	0.72317 0.56983 0.46496 -0.04800
C 	C 	0.64297 0.54383 0.48148 0.37600
N 	N 	0.86087 0.73193 0.25345 -0.09700
C 	C 	0.80067 0.74283 0.26756 -0.64800
H 	H 	0.77137 0.75723 0.25293 0.23900
C 	C 	0.78427 0.73203 0.30353 -0.31600
H 	H 	0.74397 0.73933 0.31293 0.18500
C 	C 	0.82817 0.71053 0.32540 -0.46200
C 	C 	0.88837 0.69963 0.31129 0.55600
H 	H 	0.91777 0.68523 0.32593 0.01400
C 	C 	0.90477 0.71033 0.27532 0.37800
H 	H 	0.94507 0.70313 0.26593 0.13600
O 	O 	0.73637 0.71543 0.37443 -0.18200
C 	C 	0.79567 0.68993 0.36383 0.13700
O 	O 	0.26063 0.88567 0.79637 -0.48000
O 	O 	0.29782 0.84867 0.84538 -0.44500
H 	H 	0.54383 0.00697 0.70717 0.09600
C 	C 	0.40823 0.94117 0.76609 -0.09700
H 	H 	0.37313 0.95417 0.75527 0.08300
C 	C 	0.38983 0.90317 0.79830 -0.04800
C 	C 	0.30963 0.87717 0.81482 0.37600
N 	N 	0.52753 0.06527 0.58679 -0.09700
C 	C 	0.46733 0.07617 0.60090 -0.64700
H 	H 	0.43803 0.09057 0.58627 0.23900
C 	C 	0.45093 0.06537 0.63687 -0.31600
H 	H 	0.41063 0.07267 0.64627 0.18400
C 	C 	0.49483 0.04387 0.65874 -0.46200
C 	C 	0.55503 0.03297 0.64463 0.55600
H 	H 	0.58443 0.01857 0.65927 0.01400
C 	C 	0.57143 0.04367 0.60866 0.37800
H 	H 	0.61173 0.03647 0.59927 0.13500
O 	O 	0.40303 0.04877 0.70777 -0.18200
C 	C 	0.46233 0.02327 0.69717 0.13700
O 	O 	0.70830 0.78100 0.87030 -0.48100
O 	O 	0.78249 0.81800 0.82129 -0.44500
H 	H 	0.87020 0.65970 0.95950 0.09600
C 	C 	0.80040 0.72550 0.90058 -0.09700
H 	H 	0.75230 0.71250 0.91140 0.08200
C 	C 	0.82000 0.76350 0.86837 -0.04800
C 	C 	0.76580 0.78950 0.85185 0.37600
N 	N 	0.79560 0.60140 0.07988 -0.09700
C 	C 	0.72450 0.59050 0.06577 -0.64800
H 	H 	0.68080 0.57610 0.08040 0.23900
C 	C 	0.71890 0.60130 0.02980 -0.31600
H 	H 	0.67130 0.59400 0.02040 0.18500
C 	C 	0.78430 0.62280 0.00793 -0.46200
C 	C 	0.85540 0.63370 0.02204 0.55600
H 	H 	0.89920 0.64810 0.00740 0.01400
C 	C 	0.86110 0.62300 0.05801 0.37800
H 	H 	0.90860 0.63020 0.06740 0.13600
O 	O 	0.68760 0.61790 0.95890 -0.18200
C 	C 	0.77240 0.64340 0.96950 0.13700
O 	O 	0.37497 0.11433 0.20363 -0.48000
O 	O 	0.44916 0.15133 0.15462 -0.44500
H 	H 	0.53687 0.99303 0.29283 0.09600
C 	C 	0.46707 0.05883 0.23391 -0.09700
H 	H 	0.41897 0.04583 0.24473 0.08300
C 	C 	0.48667 0.09683 0.20170 -0.04800
C 	C 	0.43247 0.12283 0.18518 0.37600
N 	N 	0.46227 0.93473 0.41321 -0.09700
C 	C 	0.39117 0.92383 0.39910 -0.64700
H 	H 	0.34747 0.90943 0.41373 0.23900
C 	C 	0.38557 0.93463 0.36313 -0.31600
H 	H 	0.33797 0.92733 0.35373 0.18400
C 	C 	0.45097 0.95613 0.34126 -0.46200
C 	C 	0.52207 0.96703 0.35537 0.55600
H 	H 	0.56587 0.98143 0.34073 0.01400
C 	C 	0.52777 0.95633 0.39134 0.37800
H 	H 	0.57527 0.96353 0.40073 0.13500
O 	O 	0.35427 0.95123 0.29223 -0.18200
C 	C 	0.43907 0.97673 0.30283 0.13700
O 	O 	0.04163 0.44767 0.53697 -0.48000
O 	O 	0.11582 0.48467 0.48796 -0.44500
H 	H 	0.20353 0.32637 0.62617 0.09600
C 	C 	0.13373 0.39217 0.56725 -0.09700
H 	H 	0.08563 0.37917 0.57807 0.08200
C 	C 	0.15333 0.43017 0.53504 -0.04800
C 	C 	0.09913 0.45617 0.51852 0.37600
N 	N 	0.12893 0.26807 0.74655 -0.09700
C 	C 	0.05783 0.25717 0.73244 -0.64700
H 	H 	0.01413 0.24277 0.74707 0.23900
C 	C 	0.05223 0.26797 0.69647 -0.31600
H 	H 	0.00463 0.26067 0.68707 0.18500
C 	C 	0.11763 0.28947 0.67460 -0.46200
C 	C 	0.18873 0.30037 0.68871 0.55600
H 	H 	0.23253 0.31477 0.67407 0.01400
C 	C 	0.19443 0.28967 0.72468 0.37800
H 	H 	0.24193 0.29687 0.73407 0.13500
O 	O 	0.02093 0.28457 0.62557 -0.18200
C 	C 	0.10573 0.31007 0.63617 0.13700
O 	O 	0.07270 0.29170 0.87030 -0.48000
O 	O 	0.03551 0.21751 0.82129 -0.44500
H 	H 	0.78950 0.12980 0.95950 0.09600
C 	C 	0.92510 0.19960 0.90058 -0.09600
H 	H 	0.96020 0.24770 0.91140 0.08200
C 	C 	0.94350 0.18000 0.86837 -0.04800
C 	C 	0.02370 0.23420 0.85185 0.37600
N 	N 	0.80580 0.20440 0.07988 -0.09700
C 	C 	0.86600 0.27550 0.06577 -0.64800
H 	H 	0.89530 0.31920 0.08040 0.23900
C 	C 	0.88240 0.28110 0.02980 -0.31600
H 	H 	0.92270 0.32870 0.02040 0.18500
C 	C 	0.83850 0.21570 0.00793 -0.46200
C 	C 	0.77830 0.14460 0.02204 0.55700
H 	H 	0.74890 0.10080 0.00740 0.01400
C 	C 	0.76190 0.13890 0.05801 0.37800
H 	H 	0.72160 0.09140 0.06740 0.13600
O 	O 	0.93030 0.31240 0.95890 -0.18200
C 	C 	0.87100 0.22760 0.96950 0.13700
O 	O 	0.73937 0.62503 0.20363 -0.48100
O 	O 	0.70218 0.55084 0.15462 -0.44500
H 	H 	0.45617 0.46313 0.29283 0.09600
C 	C 	0.59177 0.53293 0.23391 -0.09700
H 	H 	0.62687 0.58103 0.24473 0.08200
C 	C 	0.61017 0.51333 0.20170 -0.04800
C 	C 	0.69037 0.56753 0.18518 0.37600
N 	N 	0.47247 0.53773 0.41321 -0.09700
C 	C 	0.53267 0.60883 0.39910 -0.64800
H 	H 	0.56197 0.65253 0.41373 0.23900
C 	C 	0.54907 0.61443 0.36313 -0.31600
H 	H 	0.58937 0.66203 0.35373 0.18500
C 	C 	0.50517 0.54903 0.34126 -0.46200
C 	C 	0.44497 0.47793 0.35537 0.55600
H 	H 	0.41557 0.43413 0.34073 0.01400
C 	C 	0.42857 0.47223 0.39134 0.37800
H 	H 	0.38827 0.42473 0.40073 0.13600
O 	O 	0.59697 0.64573 0.29223 -0.18200
C 	C 	0.53767 0.56093 0.30283 0.13700
O 	O 	0.40603 0.95837 0.53697 -0.48000
O 	O 	0.36884 0.88418 0.48796 -0.44500
H 	H 	0.12283 0.79647 0.62617 0.09600
C 	C 	0.25843 0.86627 0.56725 -0.09700
H 	H 	0.29353 0.91437 0.57807 0.08300
C 	C 	0.27683 0.84667 0.53504 -0.04800
C 	C 	0.35703 0.90087 0.51852 0.37600
N 	N 	0.13913 0.87107 0.74655 -0.09700
C 	C 	0.19933 0.94217 0.73244 -0.64700
H 	H 	0.22863 0.98587 0.74707 0.23900
C 	C 	0.21573 0.94777 0.69647 -0.31600
H 	H 	0.25603 0.99537 0.68707 0.18500
C 	C 	0.17183 0.88237 0.67460 -0.46200
C 	C 	0.11163 0.81127 0.68871 0.55600
H 	H 	0.08223 0.76747 0.67407 0.01400
C 	C 	0.09523 0.80557 0.72468 0.37800
H 	H 	0.05493 0.75807 0.73407 0.13500
O 	O 	0.26363 0.97907 0.62557 -0.18200
C 	C 	0.20433 0.89427 0.63617 0.13700
O 	O 	0.21900 0.92730 0.87030 -0.48000
O 	O 	0.18200 0.96449 0.82129 -0.44500
H 	H 	0.34030 0.21050 0.95950 0.09600
C 	C 	0.27450 0.07490 0.90058 -0.09600
H 	H 	0.28750 0.03980 0.91140 0.08200
C 	C 	0.23650 0.05650 0.86837 -0.04800
C 	C 	0.21050 0.97630 0.85185 0.37600
N 	N 	0.39860 0.19420 0.07988 -0.09700
C 	C 	0.40950 0.13400 0.06577 -0.64800
H 	H 	0.42390 0.10470 0.08040 0.23900
C 	C 	0.39870 0.11760 0.02980 -0.31600
H 	H 	0.40600 0.07730 0.02040 0.18500
C 	C 	0.37720 0.16150 0.00793 -0.46200
C 	C 	0.36630 0.22170 0.02204 0.55600
H 	H 	0.35190 0.25110 0.00740 0.01400
C 	C 	0.37700 0.23810 0.05801 0.37800
H 	H 	0.36980 0.27840 0.06740 0.13600
O 	O 	0.38210 0.06970 0.95890 -0.18200
C 	C 	0.35660 0.12900 0.96950 0.13700
O 	O 	0.88567 0.26063 0.20363 -0.48000
O 	O 	0.84867 0.29782 0.15462 -0.44500
H 	H 	0.00697 0.54383 0.29283 0.09600
C 	C 	0.94117 0.40823 0.23391 -0.09700
H 	H 	0.95417 0.37313 0.24473 0.08300
C 	C 	0.90317 0.38983 0.20170 -0.04800
C 	C 	0.87717 0.30963 0.18518 0.37600
N 	N 	0.06527 0.52753 0.41321 -0.09700
C 	C 	0.07617 0.46733 0.39910 -0.64700
H 	H 	0.09057 0.43803 0.41373 0.23900
C 	C 	0.06537 0.45093 0.36313 -0.31600
H 	H 	0.07267 0.41063 0.35373 0.18400
C 	C 	0.04387 0.49483 0.34126 -0.46200
C 	C 	0.03297 0.55503 0.35537 0.55600
H 	H 	0.01857 0.58443 0.34073 0.01400
C 	C 	0.04367 0.57143 0.39134 0.37800
H 	H 	0.03647 0.61173 0.40073 0.13500
O 	O 	0.04877 0.40303 0.29223 -0.18200
C 	C 	0.02327 0.46233 0.30283 0.13700
O 	O 	0.55233 0.59397 0.53697 -0.48000
O 	O 	0.51533 0.63116 0.48796 -0.44500
H 	H 	0.67363 0.87717 0.62617 0.09600
C 	C 	0.60783 0.74157 0.56725 -0.09700
H 	H 	0.62083 0.70647 0.57807 0.08200
C 	C 	0.56983 0.72317 0.53504 -0.04800
C 	C 	0.54383 0.64297 0.51852 0.37600
N 	N 	0.73193 0.86087 0.74655 -0.09700
C 	C 	0.74283 0.80067 0.73244 -0.64800
H 	H 	0.75723 0.77137 0.74707 0.23900
C 	C 	0.73203 0.78427 0.69647 -0.31600
H 	H 	0.73933 0.74397 0.68707 0.18500
C 	C 	0.71053 0.82817 0.67460 -0.46200
C 	C 	0.69963 0.88837 0.68871 0.55600
H 	H 	0.68523 0.91777 0.67407 0.01400
C 	C 	0.71033 0.90477 0.72468 0.37800
H 	H 	0.70313 0.94507 0.73407 0.13600
O 	O 	0.71543 0.73637 0.62557 -0.18200
C 	C 	0.68993 0.79567 0.63617 0.13700
Zn	Zn	0.37969 0.18985 0.13305 1.22000
N 	N 	0.33230 0.16615 0.95068 -0.26700
C 	C 	0.29310 0.14655 0.91672 0.13500
C 	C 	0.21800 0.10900 0.85170 -0.01000
H 	H 	0.19340 0.09670 0.82970 0.07300
Zn	Zn	0.04636 0.52318 0.46638 1.22000
N 	N 	0.99897 0.49948 0.28401 -0.26700
C 	C 	0.95977 0.47988 0.25005 0.13600
C 	C 	0.88467 0.44233 0.18503 -0.01000
H 	H 	0.86007 0.43003 0.16303 0.07300
Zn	Zn	0.71302 0.85651 0.79972 1.22000
N 	N 	0.66563 0.83282 0.61735 -0.26700
C 	C 	0.62643 0.81322 0.58339 0.13600
C 	C 	0.55133 0.77567 0.51837 -0.01000
H 	H 	0.52673 0.76337 0.49637 0.07300
Zn	Zn	0.81015 0.18985 0.13305 1.22000
N 	N 	0.83385 0.16615 0.95068 -0.26700
C 	C 	0.85345 0.14655 0.91672 0.13500
C 	C 	0.89100 0.10900 0.85170 -0.01000
H 	H 	0.90330 0.09670 0.82970 0.07300
Zn	Zn	0.47682 0.52318 0.46638 1.22000
N 	N 	0.50052 0.49948 0.28401 -0.26700
C 	C 	0.52012 0.47988 0.25005 0.13600
C 	C 	0.55767 0.44233 0.18503 -0.01000
H 	H 	0.56997 0.43003 0.16303 0.07300
Zn	Zn	0.14349 0.85651 0.79972 1.22000
N 	N 	0.16718 0.83282 0.61735 -0.26700
C 	C 	0.18678 0.81322 0.58339 0.13600
C 	C 	0.22433 0.77567 0.51837 -0.01000
H 	H 	0.23663 0.76337 0.49637 0.07300
Zn	Zn	0.81015 0.62031 0.13305 1.22000
N 	N 	0.83385 0.66770 0.95068 -0.26700
C 	C 	0.85345 0.70690 0.91672 0.13500
C 	C 	0.89100 0.78200 0.85170 -0.01000
H 	H 	0.90330 0.80660 0.82970 0.07300
Zn	Zn	0.47682 0.95364 0.46638 1.22000
N 	N 	0.50052 0.00103 0.28401 -0.26700
C 	C 	0.52012 0.04023 0.25005 0.13600
C 	C 	0.55767 0.11533 0.18503 -0.01000
H 	H 	0.56997 0.13993 0.16303 0.07300
Zn	Zn	0.14349 0.28698 0.79972 1.22000
N 	N 	0.16718 0.33437 0.61735 -0.26700
C 	C 	0.18678 0.37357 0.58339 0.13600
C 	C 	0.22433 0.44867 0.51837 -0.01000
H 	H 	0.23663 0.47327 0.49637 0.07300
Zn	Zn	0.18985 0.37969 0.86695 1.22000
N 	N 	0.16615 0.33230 0.04932 -0.26700
C 	C 	0.14655 0.29310 0.08328 0.13500
C 	C 	0.10900 0.21800 0.14830 -0.01000
H 	H 	0.09670 0.19340 0.17030 0.07300
Zn	Zn	0.85651 0.71302 0.20028 1.22000
N 	N 	0.83282 0.66563 0.38265 -0.26700
C 	C 	0.81322 0.62643 0.41661 0.13600
C 	C 	0.77567 0.55133 0.48163 -0.01000
H 	H 	0.76337 0.52673 0.50363 0.07300
Zn	Zn	0.52318 0.04636 0.53362 1.22000
N 	N 	0.49948 0.99897 0.71599 -0.26700
C 	C 	0.47988 0.95977 0.74995 0.13600
C 	C 	0.44233 0.88467 0.81497 -0.01000
H 	H 	0.43003 0.86007 0.83697 0.07300
Zn	Zn	0.18985 0.81015 0.86695 1.22000
N 	N 	0.16615 0.83385 0.04932 -0.26700
C 	C 	0.14655 0.85345 0.08328 0.13500
C 	C 	0.10900 0.89100 0.14830 -0.01000
H 	H 	0.09670 0.90330 0.17030 0.07300
Zn	Zn	0.85651 0.14349 0.20028 1.22000
N 	N 	0.83282 0.16718 0.38265 -0.26700
C 	C 	0.81322 0.18678 0.41661 0.13600
C 	C 	0.77567 0.22433 0.48163 -0.01000
H 	H 	0.76337 0.23663 0.50363 0.07300
Zn	Zn	0.52318 0.47682 0.53362 1.22000
N 	N 	0.49948 0.50052 0.71599 -0.26700
C 	C 	0.47988 0.52012 0.74995 0.13600
C 	C 	0.44233 0.55767 0.81497 -0.01000
H 	H 	0.43003 0.56997 0.83697 0.07300
Zn	Zn	0.62031 0.81015 0.86695 1.22000
N 	N 	0.66770 0.83385 0.04932 -0.26700
C 	C 	0.70690 0.85345 0.08328 0.13500
C 	C 	0.78200 0.89100 0.14830 -0.01000
H 	H 	0.80660 0.90330 0.17030 0.07300
Zn	Zn	0.28698 0.14349 0.20028 1.22000
N 	N 	0.33437 0.16718 0.38265 -0.26700
C 	C 	0.37357 0.18678 0.41661 0.13600
C 	C 	0.44867 0.22433 0.48163 -0.01000
H 	H 	0.47327 0.23663 0.50363 0.07300
Zn	Zn	0.95364 0.47682 0.53362 1.22000
N 	N 	0.00103 0.50052 0.71599 -0.26700
C 	C 	0.04023 0.52012 0.74995 0.13600
C 	C 	0.11533 0.55767 0.81497 -0.01000
H 	H 	0.13993 0.56997 0.83697 0.07300
