data_crystal

_cell_length_a 19.47240
_cell_length_b 19.47240
_cell_length_c 37.75400
_cell_angle_alpha 90.00000
_cell_angle_beta  90.00000
_cell_angle_gamma 120.00000

_symmetry_space_group_name_	'P 1'
_symmetry_space_group_name_H-M	'P 1'

loop_
_symmetry_equiv_pos_as_xyz
  x,y,z

loop_
_atom_site_label
_atom_site_type_symbol
_atom_site_fract_x
_atom_site_fract_y
_atom_site_fract_z
_atom_site_charge
N 	N 	0.19020 0.39320 0.91897 -0.11500
C 	C 	0.12660 0.39840 0.93250 0.40500
H 	H 	0.09510 0.41000 0.91710 -0.04900
C 	C 	0.10920 0.38680 0.96840 -0.06200
H 	H 	0.06580 0.39050 0.97770 0.07400
C 	C 	0.15550 0.37000 0.99089 0.22000
C 	C 	0.21910 0.36470 0.97740 -0.24800
H 	H 	0.25060 0.35310 0.99270 0.06400
C 	C 	0.23650 0.37630 0.94140 -0.09800
H 	H 	0.27990 0.37270 0.93220 -0.14500
C 	C 	0.12500 0.34660 0.02940 0.05800
O 	O 	0.07850 0.38960 0.04250 -0.15700
C 	C 	0.19930 0.27400 0.10018 -0.07600
H 	H 	0.24850 0.28760 0.08940 0.10100
C 	C 	0.17920 0.23570 0.13247 -0.04200
C 	C 	0.23350 0.21100 0.14893 0.35500
O 	O 	0.21790 0.18370 0.17995 -0.43000
O 	O 	0.28980 0.21780 0.13008 -0.43500
N 	N 	0.85687 0.72653 0.25230 -0.11500
C 	C 	0.79327 0.73173 0.26583 0.40500
H 	H 	0.76177 0.74333 0.25043 -0.04900
C 	C 	0.77587 0.72013 0.30173 -0.06200
H 	H 	0.73247 0.72383 0.31103 0.07400
C 	C 	0.82217 0.70333 0.32422 0.22000
C 	C 	0.88577 0.69803 0.31073 -0.24800
H 	H 	0.91727 0.68643 0.32603 0.06400
C 	C 	0.90317 0.70963 0.27473 -0.09800
H 	H 	0.94657 0.70603 0.26553 -0.14500
C 	C 	0.79167 0.67993 0.36273 0.05800
O 	O 	0.74517 0.72293 0.37583 -0.15700
C 	C 	0.86597 0.60733 0.43351 -0.07600
H 	H 	0.91517 0.62093 0.42273 0.10100
C 	C 	0.84587 0.56903 0.46580 -0.04300
C 	C 	0.90017 0.54433 0.48226 0.35500
O 	O 	0.88457 0.51703 0.51328 -0.43000
O 	O 	0.95647 0.55113 0.46341 -0.43500
N 	N 	0.52353 0.05987 0.58564 -0.11500
C 	C 	0.45993 0.06507 0.59917 0.40500
H 	H 	0.42843 0.07667 0.58377 -0.04900
C 	C 	0.44253 0.05347 0.63507 -0.06200
H 	H 	0.39913 0.05717 0.64437 0.07400
C 	C 	0.48883 0.03667 0.65756 0.22000
C 	C 	0.55243 0.03137 0.64407 -0.24800
H 	H 	0.58393 0.01977 0.65937 0.06400
C 	C 	0.56983 0.04297 0.60807 -0.09800
H 	H 	0.61323 0.03937 0.59887 -0.14500
C 	C 	0.45833 0.01327 0.69607 0.05800
O 	O 	0.41183 0.05627 0.70917 -0.15700
C 	C 	0.53263 0.94067 0.76685 -0.07600
H 	H 	0.58183 0.95427 0.75607 0.10100
C 	C 	0.51253 0.90237 0.79914 -0.04300
C 	C 	0.56683 0.87767 0.81560 0.35500
O 	O 	0.55123 0.85037 0.84662 -0.43000
O 	O 	0.62313 0.88447 0.79675 -0.43500
N 	N 	0.60680 0.79700 0.91897 -0.11500
C 	C 	0.60160 0.72820 0.93250 0.40500
H 	H 	0.59000 0.68510 0.91710 -0.04900
C 	C 	0.61320 0.72240 0.96840 -0.06200
H 	H 	0.60950 0.67530 0.97770 0.07400
C 	C 	0.63000 0.78550 0.99089 0.22000
C 	C 	0.63530 0.85440 0.97740 -0.24900
H 	H 	0.64690 0.89750 0.99270 0.06300
C 	C 	0.62370 0.86020 0.94140 -0.09900
H 	H 	0.62730 0.90720 0.93220 -0.14600
C 	C 	0.65340 0.77840 0.02940 0.05700
O 	O 	0.61040 0.68890 0.04250 -0.15800
C 	C 	0.72600 0.92530 0.10018 -0.07700
H 	H 	0.71240 0.96090 0.08940 0.10000
C 	C 	0.76430 0.94350 0.13247 -0.04300
C 	C 	0.78900 0.02250 0.14893 0.35400
O 	O 	0.81630 0.03420 0.17995 -0.43100
O 	O 	0.78220 0.07200 0.13008 -0.43600
N 	N 	0.27347 0.13033 0.25230 -0.11600
C 	C 	0.26827 0.06153 0.26583 0.40400
H 	H 	0.25667 0.01843 0.25043 -0.05000
C 	C 	0.27987 0.05573 0.30173 -0.06300
H 	H 	0.27617 0.00863 0.31103 0.07300
C 	C 	0.29667 0.11883 0.32422 0.21900
C 	C 	0.30197 0.18773 0.31073 -0.24900
H 	H 	0.31357 0.23083 0.32603 0.06300
C 	C 	0.29037 0.19353 0.27473 -0.09900
H 	H 	0.29397 0.24053 0.26553 -0.14600
C 	C 	0.32007 0.11173 0.36273 0.05700
O 	O 	0.27707 0.02223 0.37583 -0.15800
C 	C 	0.39267 0.25863 0.43351 -0.07700
H 	H 	0.37907 0.29423 0.42273 0.10000
C 	C 	0.43097 0.27683 0.46580 -0.04400
C 	C 	0.45567 0.35583 0.48226 0.35400
O 	O 	0.48297 0.36753 0.51328 -0.43100
O 	O 	0.44887 0.40533 0.46341 -0.43600
N 	N 	0.94013 0.46367 0.58564 -0.11600
C 	C 	0.93493 0.39487 0.59917 0.40400
H 	H 	0.92333 0.35177 0.58377 -0.05000
C 	C 	0.94653 0.38907 0.63507 -0.06300
H 	H 	0.94283 0.34197 0.64437 0.07300
C 	C 	0.96333 0.45217 0.65756 0.21900
C 	C 	0.96863 0.52107 0.64407 -0.24900
H 	H 	0.98023 0.56417 0.65937 0.06300
C 	C 	0.95703 0.52687 0.60807 -0.09900
H 	H 	0.96063 0.57387 0.59887 -0.14600
C 	C 	0.98673 0.44507 0.69607 0.05700
O 	O 	0.94373 0.35557 0.70917 -0.15800
C 	C 	0.05933 0.59197 0.76685 -0.07700
H 	H 	0.04573 0.62757 0.75607 0.10000
C 	C 	0.09763 0.61017 0.79914 -0.04400
C 	C 	0.12233 0.68917 0.81560 0.35400
O 	O 	0.14963 0.70087 0.84662 -0.43100
O 	O 	0.11553 0.73867 0.79675 -0.43600
N 	N 	0.20300 0.80980 0.91897 -0.11600
C 	C 	0.27180 0.87340 0.93250 0.40400
H 	H 	0.31490 0.90490 0.91710 -0.05000
C 	C 	0.27760 0.89080 0.96840 -0.06300
H 	H 	0.32470 0.93420 0.97770 0.07300
C 	C 	0.21450 0.84450 0.99089 0.21900
C 	C 	0.14560 0.78090 0.97740 -0.24900
H 	H 	0.10250 0.74940 0.99270 0.06300
C 	C 	0.13980 0.76350 0.94140 -0.09900
H 	H 	0.09280 0.72010 0.93220 -0.14600
C 	C 	0.22160 0.87500 0.02940 0.05700
O 	O 	0.31110 0.92150 0.04250 -0.15800
C 	C 	0.07470 0.80070 0.10018 -0.07700
H 	H 	0.03910 0.75150 0.08940 0.10000
C 	C 	0.05650 0.82080 0.13247 -0.04400
C 	C 	0.97750 0.76650 0.14893 0.35400
O 	O 	0.96580 0.78210 0.17995 -0.43100
O 	O 	0.92800 0.71020 0.13008 -0.43600
N 	N 	0.86967 0.14313 0.25230 -0.11600
C 	C 	0.93847 0.20673 0.26583 0.40400
H 	H 	0.98157 0.23823 0.25043 -0.05000
C 	C 	0.94427 0.22413 0.30173 -0.06300
H 	H 	0.99137 0.26753 0.31103 0.07300
C 	C 	0.88117 0.17783 0.32422 0.21900
C 	C 	0.81227 0.11423 0.31073 -0.24900
H 	H 	0.76917 0.08273 0.32603 0.06300
C 	C 	0.80647 0.09683 0.27473 -0.09900
H 	H 	0.75947 0.05343 0.26553 -0.14600
C 	C 	0.88827 0.20833 0.36273 0.05700
O 	O 	0.97777 0.25483 0.37583 -0.15800
C 	C 	0.74137 0.13403 0.43351 -0.07700
H 	H 	0.70577 0.08483 0.42273 0.10000
C 	C 	0.72317 0.15413 0.46580 -0.04400
C 	C 	0.64417 0.09983 0.48226 0.35400
O 	O 	0.63247 0.11543 0.51328 -0.43100
O 	O 	0.59467 0.04353 0.46341 -0.43600
N 	N 	0.53633 0.47647 0.58564 -0.11600
C 	C 	0.60513 0.54007 0.59917 0.40400
H 	H 	0.64823 0.57157 0.58377 -0.05000
C 	C 	0.61093 0.55747 0.63507 -0.06300
H 	H 	0.65803 0.60087 0.64437 0.07300
C 	C 	0.54783 0.51117 0.65756 0.21900
C 	C 	0.47893 0.44757 0.64407 -0.24900
H 	H 	0.43583 0.41607 0.65937 0.06300
C 	C 	0.47313 0.43017 0.60807 -0.09900
H 	H 	0.42613 0.38677 0.59887 -0.14600
C 	C 	0.55493 0.54167 0.69607 0.05700
O 	O 	0.64443 0.58817 0.70917 -0.15800
C 	C 	0.40803 0.46737 0.76685 -0.07700
H 	H 	0.37243 0.41817 0.75607 0.10000
C 	C 	0.38983 0.48747 0.79914 -0.04300
C 	C 	0.31083 0.43317 0.81560 0.35400
O 	O 	0.29913 0.44877 0.84662 -0.43100
O 	O 	0.26133 0.37687 0.79675 -0.43600
N 	N 	0.39320 0.19020 0.08103 -0.11600
C 	C 	0.39840 0.12660 0.06750 0.40400
H 	H 	0.41000 0.09510 0.08290 -0.05000
C 	C 	0.38680 0.10920 0.03160 -0.06300
H 	H 	0.39050 0.06580 0.02230 0.07300
C 	C 	0.37000 0.15550 0.00911 0.21900
C 	C 	0.36470 0.21910 0.02260 -0.24900
H 	H 	0.35310 0.25060 0.00730 0.06300
C 	C 	0.37630 0.23650 0.05860 -0.09900
H 	H 	0.37270 0.27990 0.06780 -0.14600
C 	C 	0.34660 0.12500 0.97060 0.05700
O 	O 	0.38960 0.07850 0.95750 -0.15800
C 	C 	0.27400 0.19930 0.89982 -0.07700
H 	H 	0.28760 0.24850 0.91060 0.10000
C 	C 	0.23570 0.17920 0.86753 -0.04300
C 	C 	0.21100 0.23350 0.85107 0.35400
O 	O 	0.18370 0.21790 0.82005 -0.43100
O 	O 	0.21780 0.28980 0.86992 -0.43600
N 	N 	0.05987 0.52353 0.41436 -0.11600
C 	C 	0.06507 0.45993 0.40083 0.40400
H 	H 	0.07667 0.42843 0.41623 -0.05000
C 	C 	0.05347 0.44253 0.36493 -0.06300
H 	H 	0.05717 0.39913 0.35563 0.07300
C 	C 	0.03667 0.48883 0.34244 0.21900
C 	C 	0.03137 0.55243 0.35593 -0.24900
H 	H 	0.01977 0.58393 0.34063 0.06300
C 	C 	0.04297 0.56983 0.39193 -0.09900
H 	H 	0.03937 0.61323 0.40113 -0.14600
C 	C 	0.01327 0.45833 0.30393 0.05700
O 	O 	0.05627 0.41183 0.29083 -0.15800
C 	C 	0.94067 0.53263 0.23315 -0.07700
H 	H 	0.95427 0.58183 0.24393 0.10000
C 	C 	0.90237 0.51253 0.20086 -0.04400
C 	C 	0.87767 0.56683 0.18440 0.35400
O 	O 	0.85037 0.55123 0.15338 -0.43100
O 	O 	0.88447 0.62313 0.20325 -0.43600
N 	N 	0.72653 0.85687 0.74770 -0.11600
C 	C 	0.73173 0.79327 0.73417 0.40400
H 	H 	0.74333 0.76177 0.74957 -0.05000
C 	C 	0.72013 0.77587 0.69827 -0.06300
H 	H 	0.72383 0.73247 0.68897 0.07300
C 	C 	0.70333 0.82217 0.67578 0.21900
C 	C 	0.69803 0.88577 0.68927 -0.24900
H 	H 	0.68643 0.91727 0.67397 0.06300
C 	C 	0.70963 0.90317 0.72527 -0.09900
H 	H 	0.70603 0.94657 0.73447 -0.14600
C 	C 	0.67993 0.79167 0.63727 0.05700
O 	O 	0.72293 0.74517 0.62417 -0.15800
C 	C 	0.60733 0.86597 0.56649 -0.07700
H 	H 	0.62093 0.91517 0.57727 0.10000
C 	C 	0.56903 0.84587 0.53420 -0.04400
C 	C 	0.54433 0.90017 0.51774 0.35400
O 	O 	0.51703 0.88457 0.48672 -0.43100
O 	O 	0.55113 0.95647 0.53659 -0.43600
N 	N 	0.79700 0.60680 0.08103 -0.11600
C 	C 	0.72820 0.60160 0.06750 0.40400
H 	H 	0.68510 0.59000 0.08290 -0.05000
C 	C 	0.72240 0.61320 0.03160 -0.06300
H 	H 	0.67530 0.60950 0.02230 0.07300
C 	C 	0.78550 0.63000 0.00911 0.21900
C 	C 	0.85440 0.63530 0.02260 -0.24900
H 	H 	0.89750 0.64690 0.00730 0.06300
C 	C 	0.86020 0.62370 0.05860 -0.09900
H 	H 	0.90720 0.62730 0.06780 -0.14600
C 	C 	0.77840 0.65340 0.97060 0.05700
O 	O 	0.68890 0.61040 0.95750 -0.15800
C 	C 	0.92530 0.72600 0.89982 -0.07700
H 	H 	0.96090 0.71240 0.91060 0.10000
C 	C 	0.94350 0.76430 0.86753 -0.04300
C 	C 	0.02250 0.78900 0.85107 0.35400
O 	O 	0.03420 0.81630 0.82005 -0.43100
O 	O 	0.07200 0.78220 0.86992 -0.43600
N 	N 	0.46367 0.94013 0.41436 -0.11600
C 	C 	0.39487 0.93493 0.40083 0.40400
H 	H 	0.35177 0.92333 0.41623 -0.05000
C 	C 	0.38907 0.94653 0.36493 -0.06300
H 	H 	0.34197 0.94283 0.35563 0.07300
C 	C 	0.45217 0.96333 0.34244 0.21900
C 	C 	0.52107 0.96863 0.35593 -0.24900
H 	H 	0.56417 0.98023 0.34063 0.06300
C 	C 	0.52687 0.95703 0.39193 -0.09900
H 	H 	0.57387 0.96063 0.40113 -0.14600
C 	C 	0.44507 0.98673 0.30393 0.05700
O 	O 	0.35557 0.94373 0.29083 -0.15800
C 	C 	0.59197 0.05933 0.23315 -0.07700
H 	H 	0.62757 0.04573 0.24393 0.10000
C 	C 	0.61017 0.09763 0.20086 -0.04400
C 	C 	0.68917 0.12233 0.18440 0.35400
O 	O 	0.70087 0.14963 0.15338 -0.43100
O 	O 	0.73867 0.11553 0.20325 -0.43600
N 	N 	0.13033 0.27347 0.74770 -0.11600
C 	C 	0.06153 0.26827 0.73417 0.40400
H 	H 	0.01843 0.25667 0.74957 -0.05000
C 	C 	0.05573 0.27987 0.69827 -0.06300
H 	H 	0.00863 0.27617 0.68897 0.07300
C 	C 	0.11883 0.29667 0.67578 0.21900
C 	C 	0.18773 0.30197 0.68927 -0.24900
H 	H 	0.23083 0.31357 0.67397 0.06300
C 	C 	0.19353 0.29037 0.72527 -0.09900
H 	H 	0.24053 0.29397 0.73447 -0.14600
C 	C 	0.11173 0.32007 0.63727 0.05700
O 	O 	0.02223 0.27707 0.62417 -0.15800
C 	C 	0.25863 0.39267 0.56649 -0.07700
H 	H 	0.29423 0.37907 0.57727 0.10000
C 	C 	0.27683 0.43097 0.53420 -0.04400
C 	C 	0.35583 0.45567 0.51774 0.35400
O 	O 	0.36753 0.48297 0.48672 -0.43100
O 	O 	0.40533 0.44887 0.53659 -0.43600
N 	N 	0.80980 0.20300 0.08103 -0.11600
C 	C 	0.87340 0.27180 0.06750 0.40400
H 	H 	0.90490 0.31490 0.08290 -0.05000
C 	C 	0.89080 0.27760 0.03160 -0.06300
H 	H 	0.93420 0.32470 0.02230 0.07300
C 	C 	0.84450 0.21450 0.00911 0.21900
C 	C 	0.78090 0.14560 0.02260 -0.24900
H 	H 	0.74940 0.10250 0.00730 0.06300
C 	C 	0.76350 0.13980 0.05860 -0.09900
H 	H 	0.72010 0.09280 0.06780 -0.14600
C 	C 	0.87500 0.22160 0.97060 0.05700
O 	O 	0.92150 0.31110 0.95750 -0.15800
C 	C 	0.80070 0.07470 0.89982 -0.07700
H 	H 	0.75150 0.03910 0.91060 0.10000
C 	C 	0.82080 0.05650 0.86753 -0.04400
C 	C 	0.76650 0.97750 0.85107 0.35400
O 	O 	0.78210 0.96580 0.82005 -0.43100
O 	O 	0.71020 0.92800 0.86992 -0.43600
N 	N 	0.47647 0.53633 0.41436 -0.11600
C 	C 	0.54007 0.60513 0.40083 0.40400
H 	H 	0.57157 0.64823 0.41623 -0.05000
C 	C 	0.55747 0.61093 0.36493 -0.06300
H 	H 	0.60087 0.65803 0.35563 0.07300
C 	C 	0.51117 0.54783 0.34244 0.21900
C 	C 	0.44757 0.47893 0.35593 -0.24900
H 	H 	0.41607 0.43583 0.34063 0.06300
C 	C 	0.43017 0.47313 0.39193 -0.09900
H 	H 	0.38677 0.42613 0.40113 -0.14600
C 	C 	0.54167 0.55493 0.30393 0.05700
O 	O 	0.58817 0.64443 0.29083 -0.15800
C 	C 	0.46737 0.40803 0.23315 -0.07700
H 	H 	0.41817 0.37243 0.24393 0.10000
C 	C 	0.48747 0.38983 0.20086 -0.04300
C 	C 	0.43317 0.31083 0.18440 0.35400
O 	O 	0.44877 0.29913 0.15338 -0.43100
O 	O 	0.37687 0.26133 0.20325 -0.43600
N 	N 	0.14313 0.86967 0.74770 -0.11600
C 	C 	0.20673 0.93847 0.73417 0.40400
H 	H 	0.23823 0.98157 0.74957 -0.05000
C 	C 	0.22413 0.94427 0.69827 -0.06300
H 	H 	0.26753 0.99137 0.68897 0.07300
C 	C 	0.17783 0.88117 0.67578 0.21900
C 	C 	0.11423 0.81227 0.68927 -0.24900
H 	H 	0.08273 0.76917 0.67397 0.06300
C 	C 	0.09683 0.80647 0.72527 -0.09900
H 	H 	0.05343 0.75947 0.73447 -0.14600
C 	C 	0.20833 0.88827 0.63727 0.05700
O 	O 	0.25483 0.97777 0.62417 -0.15800
C 	C 	0.13403 0.74137 0.56649 -0.07700
H 	H 	0.08483 0.70577 0.57727 0.10000
C 	C 	0.15413 0.72317 0.53420 -0.04400
C 	C 	0.09983 0.64417 0.51774 0.35400
O 	O 	0.11543 0.63247 0.48672 -0.43100
O 	O 	0.04353 0.59467 0.53659 -0.43600
N 	N 	0.80980 0.60680 0.08103 -0.11600
C 	C 	0.87340 0.60160 0.06750 0.40400
H 	H 	0.90490 0.59000 0.08290 -0.05000
C 	C 	0.89080 0.61320 0.03160 -0.06300
H 	H 	0.93420 0.60950 0.02230 0.07300
C 	C 	0.84450 0.63000 0.00911 0.21900
C 	C 	0.78090 0.63530 0.02260 -0.24900
H 	H 	0.74940 0.64690 0.00730 0.06300
C 	C 	0.76350 0.62370 0.05860 -0.09900
H 	H 	0.72010 0.62730 0.06780 -0.14600
C 	C 	0.87500 0.65340 0.97060 0.05700
O 	O 	0.92150 0.61040 0.95750 -0.15800
C 	C 	0.80070 0.72600 0.89982 -0.07700
H 	H 	0.75150 0.71240 0.91060 0.10000
C 	C 	0.82080 0.76430 0.86753 -0.04300
C 	C 	0.76650 0.78900 0.85107 0.35400
O 	O 	0.78210 0.81630 0.82005 -0.43100
O 	O 	0.71020 0.78220 0.86992 -0.43600
N 	N 	0.47647 0.94013 0.41436 -0.11600
C 	C 	0.54007 0.93493 0.40083 0.40400
H 	H 	0.57157 0.92333 0.41623 -0.05000
C 	C 	0.55747 0.94653 0.36493 -0.06300
H 	H 	0.60087 0.94283 0.35563 0.07300
C 	C 	0.51117 0.96333 0.34244 0.21900
C 	C 	0.44757 0.96863 0.35593 -0.24900
H 	H 	0.41607 0.98023 0.34063 0.06300
C 	C 	0.43017 0.95703 0.39193 -0.09900
H 	H 	0.38677 0.96063 0.40113 -0.14600
C 	C 	0.54167 0.98673 0.30393 0.05700
O 	O 	0.58817 0.94373 0.29083 -0.15800
C 	C 	0.46737 0.05933 0.23315 -0.07700
H 	H 	0.41817 0.04573 0.24393 0.10000
C 	C 	0.48747 0.09763 0.20086 -0.04400
C 	C 	0.43317 0.12233 0.18440 0.35400
O 	O 	0.44877 0.14963 0.15338 -0.43100
O 	O 	0.37687 0.11553 0.20325 -0.43600
N 	N 	0.14313 0.27347 0.74770 -0.11600
C 	C 	0.20673 0.26827 0.73417 0.40400
H 	H 	0.23823 0.25667 0.74957 -0.05000
C 	C 	0.22413 0.27987 0.69827 -0.06300
H 	H 	0.26753 0.27617 0.68897 0.07300
C 	C 	0.17783 0.29667 0.67578 0.21900
C 	C 	0.11423 0.30197 0.68927 -0.24900
H 	H 	0.08273 0.31357 0.67397 0.06300
C 	C 	0.09683 0.29037 0.72527 -0.09900
H 	H 	0.05343 0.29397 0.73447 -0.14600
C 	C 	0.20833 0.32007 0.63727 0.05700
O 	O 	0.25483 0.27707 0.62417 -0.15800
C 	C 	0.13403 0.39267 0.56649 -0.07700
H 	H 	0.08483 0.37907 0.57727 0.10000
C 	C 	0.15413 0.43097 0.53420 -0.04400
C 	C 	0.09983 0.45567 0.51774 0.35400
O 	O 	0.11543 0.48297 0.48672 -0.43100
O 	O 	0.04353 0.44887 0.53659 -0.43600
N 	N 	0.39320 0.20300 0.08103 -0.11600
C 	C 	0.39840 0.27180 0.06750 0.40400
H 	H 	0.41000 0.31490 0.08290 -0.05000
C 	C 	0.38680 0.27760 0.03160 -0.06300
H 	H 	0.39050 0.32470 0.02230 0.07300
C 	C 	0.37000 0.21450 0.00911 0.21900
C 	C 	0.36470 0.14560 0.02260 -0.24900
H 	H 	0.35310 0.10250 0.00730 0.06300
C 	C 	0.37630 0.13980 0.05860 -0.09900
H 	H 	0.37270 0.09280 0.06780 -0.14600
C 	C 	0.34660 0.22160 0.97060 0.05700
O 	O 	0.38960 0.31110 0.95750 -0.15800
C 	C 	0.27400 0.07470 0.89982 -0.07700
H 	H 	0.28760 0.03910 0.91060 0.10000
C 	C 	0.23570 0.05650 0.86753 -0.04300
C 	C 	0.21100 0.97750 0.85107 0.35400
O 	O 	0.18370 0.96580 0.82005 -0.43100
O 	O 	0.21780 0.92800 0.86992 -0.43600
N 	N 	0.05987 0.53633 0.41436 -0.11600
C 	C 	0.06507 0.60513 0.40083 0.40400
H 	H 	0.07667 0.64823 0.41623 -0.05000
C 	C 	0.05347 0.61093 0.36493 -0.06300
H 	H 	0.05717 0.65803 0.35563 0.07300
C 	C 	0.03667 0.54783 0.34244 0.21900
C 	C 	0.03137 0.47893 0.35593 -0.24900
H 	H 	0.01977 0.43583 0.34063 0.06300
C 	C 	0.04297 0.47313 0.39193 -0.09900
H 	H 	0.03937 0.42613 0.40113 -0.14600
C 	C 	0.01327 0.55493 0.30393 0.05700
O 	O 	0.05627 0.64443 0.29083 -0.15800
C 	C 	0.94067 0.40803 0.23315 -0.07700
H 	H 	0.95427 0.37243 0.24393 0.10000
C 	C 	0.90237 0.38983 0.20086 -0.04400
C 	C 	0.87767 0.31083 0.18440 0.35400
O 	O 	0.85037 0.29913 0.15338 -0.43100
O 	O 	0.88447 0.26133 0.20325 -0.43600
N 	N 	0.72653 0.86967 0.74770 -0.11600
C 	C 	0.73173 0.93847 0.73417 0.40400
H 	H 	0.74333 0.98157 0.74957 -0.05000
C 	C 	0.72013 0.94427 0.69827 -0.06300
H 	H 	0.72383 0.99137 0.68897 0.07300
C 	C 	0.70333 0.88117 0.67578 0.21900
C 	C 	0.69803 0.81227 0.68927 -0.24900
H 	H 	0.68643 0.76917 0.67397 0.06300
C 	C 	0.70963 0.80647 0.72527 -0.09900
H 	H 	0.70603 0.75947 0.73447 -0.14600
C 	C 	0.67993 0.88827 0.63727 0.05700
O 	O 	0.72293 0.97777 0.62417 -0.15800
C 	C 	0.60733 0.74137 0.56649 -0.07700
H 	H 	0.62093 0.70577 0.57727 0.10000
C 	C 	0.56903 0.72317 0.53420 -0.04400
C 	C 	0.54433 0.64417 0.51774 0.35400
O 	O 	0.51703 0.63247 0.48672 -0.43100
O 	O 	0.55113 0.59467 0.53659 -0.43600
N 	N 	0.79700 0.19020 0.08103 -0.11600
C 	C 	0.72820 0.12660 0.06750 0.40400
H 	H 	0.68510 0.09510 0.08290 -0.05000
C 	C 	0.72240 0.10920 0.03160 -0.06300
H 	H 	0.67530 0.06580 0.02230 0.07300
C 	C 	0.78550 0.15550 0.00911 0.21900
C 	C 	0.85440 0.21910 0.02260 -0.24900
H 	H 	0.89750 0.25060 0.00730 0.06300
C 	C 	0.86020 0.23650 0.05860 -0.09900
H 	H 	0.90720 0.27990 0.06780 -0.14600
C 	C 	0.77840 0.12500 0.97060 0.05700
O 	O 	0.68890 0.07850 0.95750 -0.15800
C 	C 	0.92530 0.19930 0.89982 -0.07700
H 	H 	0.96090 0.24850 0.91060 0.10000
C 	C 	0.94350 0.17920 0.86753 -0.04400
C 	C 	0.02250 0.23350 0.85107 0.35400
O 	O 	0.03420 0.21790 0.82005 -0.43100
O 	O 	0.07200 0.28980 0.86992 -0.43600
N 	N 	0.46367 0.52353 0.41436 -0.11600
C 	C 	0.39487 0.45993 0.40083 0.40400
H 	H 	0.35177 0.42843 0.41623 -0.05000
C 	C 	0.38907 0.44253 0.36493 -0.06300
H 	H 	0.34197 0.39913 0.35563 0.07300
C 	C 	0.45217 0.48883 0.34244 0.21900
C 	C 	0.52107 0.55243 0.35593 -0.24900
H 	H 	0.56417 0.58393 0.34063 0.06300
C 	C 	0.52687 0.56983 0.39193 -0.09900
H 	H 	0.57387 0.61323 0.40113 -0.14600
C 	C 	0.44507 0.45833 0.30393 0.05700
O 	O 	0.35557 0.41183 0.29083 -0.15800
C 	C 	0.59197 0.53263 0.23315 -0.07700
H 	H 	0.62757 0.58183 0.24393 0.10000
C 	C 	0.61017 0.51253 0.20086 -0.04300
C 	C 	0.68917 0.56683 0.18440 0.35400
O 	O 	0.70087 0.55123 0.15338 -0.43100
O 	O 	0.73867 0.62313 0.20325 -0.43600
N 	N 	0.13033 0.85687 0.74770 -0.11600
C 	C 	0.06153 0.79327 0.73417 0.40400
H 	H 	0.01843 0.76177 0.74957 -0.05000
C 	C 	0.05573 0.77587 0.69827 -0.06300
H 	H 	0.00863 0.73247 0.68897 0.07300
C 	C 	0.11883 0.82217 0.67578 0.21900
C 	C 	0.18773 0.88577 0.68927 -0.24900
H 	H 	0.23083 0.91727 0.67397 0.06300
C 	C 	0.19353 0.90317 0.72527 -0.09900
H 	H 	0.24053 0.94657 0.73447 -0.14600
C 	C 	0.11173 0.79167 0.63727 0.05700
O 	O 	0.02223 0.74517 0.62417 -0.15800
C 	C 	0.25863 0.86597 0.56649 -0.07700
H 	H 	0.29423 0.91517 0.57727 0.10000
C 	C 	0.27683 0.84587 0.53420 -0.04400
C 	C 	0.35583 0.90017 0.51774 0.35400
O 	O 	0.36753 0.88457 0.48672 -0.43100
O 	O 	0.40533 0.95647 0.53659 -0.43600
N 	N 	0.60680 0.80980 0.91897 -0.11600
C 	C 	0.60160 0.87340 0.93250 0.40400
H 	H 	0.59000 0.90490 0.91710 -0.05000
C 	C 	0.61320 0.89080 0.96840 -0.06300
H 	H 	0.60950 0.93420 0.97770 0.07300
C 	C 	0.63000 0.84450 0.99089 0.21900
C 	C 	0.63530 0.78090 0.97740 -0.24900
H 	H 	0.64690 0.74940 0.99270 0.06300
C 	C 	0.62370 0.76350 0.94140 -0.09900
H 	H 	0.62730 0.72010 0.93220 -0.14600
C 	C 	0.65340 0.87500 0.02940 0.05700
O 	O 	0.61040 0.92150 0.04250 -0.15800
C 	C 	0.72600 0.80070 0.10018 -0.07700
H 	H 	0.71240 0.75150 0.08940 0.10000
C 	C 	0.76430 0.82080 0.13247 -0.04300
C 	C 	0.78900 0.76650 0.14893 0.35400
O 	O 	0.81630 0.78210 0.17995 -0.43100
O 	O 	0.78220 0.71020 0.13008 -0.43600
N 	N 	0.27347 0.14313 0.25230 -0.11600
C 	C 	0.26827 0.20673 0.26583 0.40400
H 	H 	0.25667 0.23823 0.25043 -0.05000
C 	C 	0.27987 0.22413 0.30173 -0.06300
H 	H 	0.27617 0.26753 0.31103 0.07300
C 	C 	0.29667 0.17783 0.32422 0.21900
C 	C 	0.30197 0.11423 0.31073 -0.24900
H 	H 	0.31357 0.08273 0.32603 0.06300
C 	C 	0.29037 0.09683 0.27473 -0.09900
H 	H 	0.29397 0.05343 0.26553 -0.14600
C 	C 	0.32007 0.20833 0.36273 0.05700
O 	O 	0.27707 0.25483 0.37583 -0.15800
C 	C 	0.39267 0.13403 0.43351 -0.07700
H 	H 	0.37907 0.08483 0.42273 0.10000
C 	C 	0.43097 0.15413 0.46580 -0.04400
C 	C 	0.45567 0.09983 0.48226 0.35400
O 	O 	0.48297 0.11543 0.51328 -0.43100
O 	O 	0.44887 0.04353 0.46341 -0.43600
N 	N 	0.94013 0.47647 0.58564 -0.11600
C 	C 	0.93493 0.54007 0.59917 0.40400
H 	H 	0.92333 0.57157 0.58377 -0.05000
C 	C 	0.94653 0.55747 0.63507 -0.06300
H 	H 	0.94283 0.60087 0.64437 0.07300
C 	C 	0.96333 0.51117 0.65756 0.21900
C 	C 	0.96863 0.44757 0.64407 -0.24900
H 	H 	0.98023 0.41607 0.65937 0.06300
C 	C 	0.95703 0.43017 0.60807 -0.09900
H 	H 	0.96063 0.38677 0.59887 -0.14600
C 	C 	0.98673 0.54167 0.69607 0.05700
O 	O 	0.94373 0.58817 0.70917 -0.15800
C 	C 	0.05933 0.46737 0.76685 -0.07700
H 	H 	0.04573 0.41817 0.75607 0.10000
C 	C 	0.09763 0.48747 0.79914 -0.04400
C 	C 	0.12233 0.43317 0.81560 0.35400
O 	O 	0.14963 0.44877 0.84662 -0.43100
O 	O 	0.11553 0.37687 0.79675 -0.43600
N 	N 	0.20300 0.39320 0.91897 -0.11600
C 	C 	0.27180 0.39840 0.93250 0.40400
H 	H 	0.31490 0.41000 0.91710 -0.05000
C 	C 	0.27760 0.38680 0.96840 -0.06300
H 	H 	0.32470 0.39050 0.97770 0.07300
C 	C 	0.21450 0.37000 0.99089 0.21900
C 	C 	0.14560 0.36470 0.97740 -0.24900
H 	H 	0.10250 0.35310 0.99270 0.06300
C 	C 	0.13980 0.37630 0.94140 -0.09900
H 	H 	0.09280 0.37270 0.93220 -0.14600
C 	C 	0.22160 0.34660 0.02940 0.05700
O 	O 	0.31110 0.38960 0.04250 -0.15800
C 	C 	0.07470 0.27400 0.10018 -0.07700
H 	H 	0.03910 0.28760 0.08940 0.10000
C 	C 	0.05650 0.23570 0.13247 -0.04300
C 	C 	0.97750 0.21100 0.14893 0.35400
O 	O 	0.96580 0.18370 0.17995 -0.43100
O 	O 	0.92800 0.21780 0.13008 -0.43600
N 	N 	0.86967 0.72653 0.25230 -0.11600
C 	C 	0.93847 0.73173 0.26583 0.40400
H 	H 	0.98157 0.74333 0.25043 -0.05000
C 	C 	0.94427 0.72013 0.30173 -0.06300
H 	H 	0.99137 0.72383 0.31103 0.07300
C 	C 	0.88117 0.70333 0.32422 0.21900
C 	C 	0.81227 0.69803 0.31073 -0.24900
H 	H 	0.76917 0.68643 0.32603 0.06300
C 	C 	0.80647 0.70963 0.27473 -0.09900
H 	H 	0.75947 0.70603 0.26553 -0.14600
C 	C 	0.88827 0.67993 0.36273 0.05700
O 	O 	0.97777 0.72293 0.37583 -0.15800
C 	C 	0.74137 0.60733 0.43351 -0.07700
H 	H 	0.70577 0.62093 0.42273 0.10000
C 	C 	0.72317 0.56903 0.46580 -0.04400
C 	C 	0.64417 0.54433 0.48226 0.35400
O 	O 	0.63247 0.51703 0.51328 -0.43100
O 	O 	0.59467 0.55113 0.46341 -0.43600
N 	N 	0.53633 0.05987 0.58564 -0.11600
C 	C 	0.60513 0.06507 0.59917 0.40400
H 	H 	0.64823 0.07667 0.58377 -0.05000
C 	C 	0.61093 0.05347 0.63507 -0.06300
H 	H 	0.65803 0.05717 0.64437 0.07300
C 	C 	0.54783 0.03667 0.65756 0.21900
C 	C 	0.47893 0.03137 0.64407 -0.24900
H 	H 	0.43583 0.01977 0.65937 0.06300
C 	C 	0.47313 0.04297 0.60807 -0.09900
H 	H 	0.42613 0.03937 0.59887 -0.14600
C 	C 	0.55493 0.01327 0.69607 0.05700
O 	O 	0.64443 0.05627 0.70917 -0.15800
C 	C 	0.40803 0.94067 0.76685 -0.07700
H 	H 	0.37243 0.95427 0.75607 0.10000
C 	C 	0.38983 0.90237 0.79914 -0.04400
C 	C 	0.31083 0.87767 0.81560 0.35400
O 	O 	0.29913 0.85037 0.84662 -0.43100
O 	O 	0.26133 0.88447 0.79675 -0.43600
N 	N 	0.19020 0.79700 0.91897 -0.11600
C 	C 	0.12660 0.72820 0.93250 0.40400
H 	H 	0.09510 0.68510 0.91710 -0.05000
C 	C 	0.10920 0.72240 0.96840 -0.06300
H 	H 	0.06580 0.67530 0.97770 0.07300
C 	C 	0.15550 0.78550 0.99089 0.21900
C 	C 	0.21910 0.85440 0.97740 -0.24900
H 	H 	0.25060 0.89750 0.99270 0.06300
C 	C 	0.23650 0.86020 0.94140 -0.09900
H 	H 	0.27990 0.90720 0.93220 -0.14600
C 	C 	0.12500 0.77840 0.02940 0.05700
O 	O 	0.07850 0.68890 0.04250 -0.15800
C 	C 	0.19930 0.92530 0.10018 -0.07700
H 	H 	0.24850 0.96090 0.08940 0.10000
C 	C 	0.17920 0.94350 0.13247 -0.04400
C 	C 	0.23350 0.02250 0.14893 0.35400
O 	O 	0.21790 0.03420 0.17995 -0.43100
O 	O 	0.28980 0.07200 0.13008 -0.43600
N 	N 	0.85687 0.13033 0.25230 -0.11600
C 	C 	0.79327 0.06153 0.26583 0.40400
H 	H 	0.76177 0.01843 0.25043 -0.05000
C 	C 	0.77587 0.05573 0.30173 -0.06300
H 	H 	0.73247 0.00863 0.31103 0.07300
C 	C 	0.82217 0.11883 0.32422 0.21900
C 	C 	0.88577 0.18773 0.31073 -0.24900
H 	H 	0.91727 0.23083 0.32603 0.06300
C 	C 	0.90317 0.19353 0.27473 -0.09900
H 	H 	0.94657 0.24053 0.26553 -0.14600
C 	C 	0.79167 0.11173 0.36273 0.05700
O 	O 	0.74517 0.02223 0.37583 -0.15800
C 	C 	0.86597 0.25863 0.43351 -0.07700
H 	H 	0.91517 0.29423 0.42273 0.10000
C 	C 	0.84587 0.27683 0.46580 -0.04400
C 	C 	0.90017 0.35583 0.48226 0.35400
O 	O 	0.88457 0.36753 0.51328 -0.43100
O 	O 	0.95647 0.40533 0.46341 -0.43600
N 	N 	0.52353 0.46367 0.58564 -0.11600
C 	C 	0.45993 0.39487 0.59917 0.40400
H 	H 	0.42843 0.35177 0.58377 -0.05000
C 	C 	0.44253 0.38907 0.63507 -0.06300
H 	H 	0.39913 0.34197 0.64437 0.07300
C 	C 	0.48883 0.45217 0.65756 0.21900
C 	C 	0.55243 0.52107 0.64407 -0.24900
H 	H 	0.58393 0.56417 0.65937 0.06300
C 	C 	0.56983 0.52687 0.60807 -0.09900
H 	H 	0.61323 0.57387 0.59887 -0.14600
C 	C 	0.45833 0.44507 0.69607 0.05700
O 	O 	0.41183 0.35557 0.70917 -0.15800
C 	C 	0.53263 0.59197 0.76685 -0.07700
H 	H 	0.58183 0.62757 0.75607 0.10000
C 	C 	0.51253 0.61017 0.79914 -0.04300
C 	C 	0.56683 0.68917 0.81560 0.35400
O 	O 	0.55123 0.70087 0.84662 -0.43100
O 	O 	0.62313 0.73867 0.79675 -0.43600
Co	Co	0.18883 0.37767 0.86491 1.15100
C 	C 	0.14645 0.29290 0.08340 0.12100
C 	C 	0.10905 0.21810 0.14930 -0.00400
H 	H 	0.09710 0.19420 0.17200 0.06500
N 	N 	0.16475 0.32950 0.04910 -0.13900
Co	Co	0.85550 0.71100 0.19824 1.15100
C 	C 	0.81312 0.62623 0.41673 0.12100
C 	C 	0.77572 0.55143 0.48263 -0.00400
H 	H 	0.76377 0.52753 0.50533 0.06500
N 	N 	0.83142 0.66283 0.38243 -0.13900
Co	Co	0.52217 0.04434 0.53158 1.15100
C 	C 	0.47978 0.95957 0.75007 0.12100
C 	C 	0.44238 0.88477 0.81597 -0.00400
H 	H 	0.43043 0.86087 0.83867 0.06500
N 	N 	0.49808 0.99617 0.71577 -0.13900
Co	Co	0.62233 0.81117 0.86491 1.15100
C 	C 	0.70710 0.85355 0.08340 0.12100
C 	C 	0.78190 0.89095 0.14930 -0.00400
H 	H 	0.80580 0.90290 0.17200 0.06500
N 	N 	0.67050 0.83525 0.04910 -0.13900
Co	Co	0.28900 0.14450 0.19824 1.15100
C 	C 	0.37377 0.18688 0.41673 0.12100
C 	C 	0.44857 0.22428 0.48263 -0.00400
H 	H 	0.47247 0.23623 0.50533 0.06500
N 	N 	0.33717 0.16858 0.38243 -0.13900
Co	Co	0.95566 0.47783 0.53158 1.15100
C 	C 	0.04043 0.52022 0.75007 0.12100
C 	C 	0.11523 0.55762 0.81597 -0.00400
H 	H 	0.13913 0.56957 0.83867 0.06500
N 	N 	0.00383 0.50192 0.71577 -0.13900
Co	Co	0.18883 0.81117 0.86491 1.15100
C 	C 	0.14645 0.85355 0.08340 0.12100
C 	C 	0.10905 0.89095 0.14930 -0.00400
H 	H 	0.09710 0.90290 0.17200 0.06500
N 	N 	0.16475 0.83525 0.04910 -0.13900
Co	Co	0.85550 0.14450 0.19824 1.15100
C 	C 	0.81312 0.18688 0.41673 0.12100
C 	C 	0.77572 0.22428 0.48263 -0.00400
H 	H 	0.76377 0.23623 0.50533 0.06500
N 	N 	0.83142 0.16858 0.38243 -0.13900
Co	Co	0.52217 0.47783 0.53158 1.15100
C 	C 	0.47978 0.52022 0.75007 0.12100
C 	C 	0.44238 0.55762 0.81597 -0.00400
H 	H 	0.43043 0.56957 0.83867 0.06500
N 	N 	0.49808 0.50192 0.71577 -0.13900
Co	Co	0.37767 0.18883 0.13509 1.15100
C 	C 	0.29290 0.14645 0.91660 0.12100
C 	C 	0.21810 0.10905 0.85070 -0.00400
H 	H 	0.19420 0.09710 0.82800 0.06500
N 	N 	0.32950 0.16475 0.95090 -0.13900
Co	Co	0.04434 0.52217 0.46842 1.15100
C 	C 	0.95957 0.47978 0.24993 0.12100
C 	C 	0.88477 0.44238 0.18403 -0.00400
H 	H 	0.86087 0.43043 0.16133 0.06500
N 	N 	0.99617 0.49808 0.28423 -0.13900
Co	Co	0.71100 0.85550 0.80176 1.15100
C 	C 	0.62623 0.81312 0.58327 0.12100
C 	C 	0.55143 0.77572 0.51737 -0.00400
H 	H 	0.52753 0.76377 0.49467 0.06500
N 	N 	0.66283 0.83142 0.61757 -0.13900
Co	Co	0.81117 0.62233 0.13509 1.15100
C 	C 	0.85355 0.70710 0.91660 0.12100
C 	C 	0.89095 0.78190 0.85070 -0.00400
H 	H 	0.90290 0.80580 0.82800 0.06500
N 	N 	0.83525 0.67050 0.95090 -0.13900
Co	Co	0.47783 0.95566 0.46842 1.15100
C 	C 	0.52022 0.04043 0.24993 0.12100
C 	C 	0.55762 0.11523 0.18403 -0.00400
H 	H 	0.56957 0.13913 0.16133 0.06500
N 	N 	0.50192 0.00383 0.28423 -0.13900
Co	Co	0.14450 0.28900 0.80176 1.15100
C 	C 	0.18688 0.37377 0.58327 0.12100
C 	C 	0.22428 0.44857 0.51737 -0.00400
H 	H 	0.23623 0.47247 0.49467 0.06500
N 	N 	0.16858 0.33717 0.61757 -0.13900
Co	Co	0.81117 0.18883 0.13509 1.15100
C 	C 	0.85355 0.14645 0.91660 0.12100
C 	C 	0.89095 0.10905 0.85070 -0.00400
H 	H 	0.90290 0.09710 0.82800 0.06500
N 	N 	0.83525 0.16475 0.95090 -0.13900
Co	Co	0.47783 0.52217 0.46842 1.15100
C 	C 	0.52022 0.47978 0.24993 0.12100
C 	C 	0.55762 0.44238 0.18403 -0.00400
H 	H 	0.56957 0.43043 0.16133 0.06500
N 	N 	0.50192 0.49808 0.28423 -0.13900
Co	Co	0.14450 0.85550 0.80176 1.15100
C 	C 	0.18688 0.81312 0.58327 0.12100
C 	C 	0.22428 0.77572 0.51737 -0.00400
H 	H 	0.23623 0.76377 0.49467 0.06500
N 	N 	0.16858 0.83142 0.61757 -0.13900
