data_crystal

_cell_length_a 23.53030
_cell_length_b 23.53030
_cell_length_c 23.53030
_cell_angle_alpha 109.47100
_cell_angle_beta  109.47100
_cell_angle_gamma 109.47100

_symmetry_space_group_name_	'P 1'
_symmetry_space_group_name_H-M	'P 1'

loop_
_symmetry_equiv_pos_as_xyz
  x,y,z

loop_
_atom_site_label
_atom_site_type_symbol
_atom_site_fract_x
_atom_site_fract_y
_atom_site_fract_z
_atom_site_charge
Zn	Zn	0.27414 0.00000 -0.00000 1.17400
Zn	Zn	0.50000 0.27414 0.50000 1.18300
Zn	Zn	0.00000 0.50000 0.77414 1.17300
Zn	Zn	0.22586 0.22586 0.72586 1.18300
Zn	Zn	0.77414 0.00000 1.00000 1.17600
Zn	Zn	0.50000 0.77414 0.50000 1.18400
Zn	Zn	0.72586 0.72586 0.22586 1.18400
Zn	Zn	-0.00000 0.50000 0.27414 1.17700
Zn	Zn	0.62500 0.37500 0.25000 1.18000
Zn	Zn	0.87500 0.12500 0.75000 1.18000
Zn	Zn	0.25000 0.87500 0.62500 1.18100
Zn	Zn	0.75000 0.62500 0.87500 1.18000
Zn	Zn	0.37500 0.75000 0.12500 1.18000
Zn	Zn	0.12500 0.25000 0.37500 1.17900
H 	H 	0.42700 0.02670 0.09430 -0.01000
H 	H 	0.54050 0.11870 0.16140 0.06700
H 	H 	0.56280 0.22980 0.18900 -0.01400
H 	H 	0.16790 0.05770 0.97120 -0.01800
H 	H 	0.17200 0.16430 0.00250 0.06100
H 	H 	0.28100 0.26790 0.07290 0.04100
H 	H 	0.52430 0.42700 0.20710 -0.01200
H 	H 	0.43240 0.33270 0.40570 -0.00200
H 	H 	0.45730 0.37910 0.33860 0.06900
H 	H 	0.54080 0.37380 0.31100 -0.01400
H 	H 	0.58650 0.19670 0.52880 -0.00400
H 	H 	0.66180 0.16950 0.49750 0.05900
H 	H 	0.69500 0.20810 0.42710 0.04100
H 	H 	0.71990 0.31720 0.29290 -0.01100
H 	H 	0.06760 0.47330 0.90030 -0.00300
H 	H 	0.04270 0.38130 0.92180 0.07900
H 	H 	0.95920 0.27020 0.83300 -0.02400
H 	H 	0.91350 0.44230 0.61020 0.00100
H 	H 	0.83820 0.33570 0.50770 0.06300
H 	H 	0.80500 0.23210 0.51310 0.04200
H 	H 	0.78010 0.07300 0.59730 -0.01800
H 	H 	0.07300 0.16730 0.59970 0.00500
H 	H 	0.95950 0.12090 0.57820 0.05900
H 	H 	0.93720 0.12620 0.66700 -0.01800
H 	H 	0.33210 0.30330 0.88980 -0.00300
H 	H 	0.32800 0.33050 0.99230 0.06100
H 	H 	0.21900 0.29190 0.98690 0.04000
H 	H 	0.97570 0.18280 0.90270 0.02800
H 	H 	0.40030 0.06760 0.97330 -0.00400
H 	H 	0.42180 0.04270 0.88130 0.07900
H 	H 	0.33300 0.95920 0.77020 -0.02400
H 	H 	0.11020 0.91350 0.94230 -0.00300
H 	H 	0.00770 0.83820 0.83570 0.05500
H 	H 	0.01310 0.80500 0.73210 0.03500
H 	H 	0.09730 0.78010 0.57300 -0.01500
H 	H 	0.09970 0.07300 0.66730 0.00200
H 	H 	0.07820 0.95950 0.62090 0.05700
H 	H 	0.16700 0.93720 0.62620 -0.01700
H 	H 	0.38980 0.33210 0.80330 -0.00300
H 	H 	0.49230 0.32800 0.83050 0.06200
H 	H 	0.48690 0.21900 0.79190 0.04100
H 	H 	0.40270 0.97570 0.68280 0.02900
H 	H 	0.59430 0.42700 0.52670 -0.00200
H 	H 	0.66140 0.54050 0.61870 0.07000
H 	H 	0.68900 0.56280 0.72980 -0.01400
H 	H 	0.47120 0.16790 0.55770 -0.00500
H 	H 	0.50250 0.17200 0.66430 0.05900
H 	H 	0.57290 0.28100 0.76790 0.04200
H 	H 	0.70710 0.52430 0.92700 -0.01200
H 	H 	0.90570 0.43240 0.83270 0.00200
H 	H 	0.83860 0.45730 0.87910 0.07000
H 	H 	0.81100 0.54080 0.87380 -0.01300
H 	H 	0.02880 0.58650 0.69670 -0.04200
H 	H 	0.99750 0.66180 0.66950 0.08200
H 	H 	0.92710 0.69500 0.70810 0.04200
H 	H 	0.79290 0.71990 0.81720 -0.01000
H 	H 	0.33270 0.90570 0.93240 0.00100
H 	H 	0.37910 0.83860 0.95730 0.07200
H 	H 	0.37380 0.81100 0.04080 -0.01400
H 	H 	0.19670 0.02880 0.08650 -0.04200
H 	H 	0.16950 0.99750 0.16180 0.07900
H 	H 	0.20810 0.92710 0.19500 0.04000
H 	H 	0.31720 0.79290 0.21990 -0.01100
H 	H 	0.02670 0.59430 0.92700 -0.01000
H 	H 	0.11870 0.66140 0.04050 0.06600
H 	H 	0.22980 0.68900 0.06280 -0.01400
H 	H 	0.05770 0.47120 0.66790 -0.01100
H 	H 	0.16430 0.50250 0.67200 0.06000
H 	H 	0.26790 0.57290 0.78100 0.04200
H 	H 	0.42700 0.70710 0.02430 -0.00600
H 	H 	0.16730 0.09970 0.57300 -0.00700
H 	H 	0.12090 0.07820 0.45950 0.06000
H 	H 	0.12620 0.16700 0.43720 -0.01700
H 	H 	0.30330 0.38980 0.83210 -0.00300
H 	H 	0.33050 0.49230 0.82800 0.06200
H 	H 	0.29190 0.48690 0.71900 0.04200
H 	H 	0.18280 0.40270 0.47570 -0.01200
H 	H 	0.47330 0.40030 0.56760 -0.00200
H 	H 	0.38130 0.42180 0.54270 0.06900
H 	H 	0.27020 0.33300 0.45920 -0.01300
H 	H 	0.44230 0.11020 0.41350 -0.00600
H 	H 	0.33570 0.00770 0.33820 0.05400
H 	H 	0.23210 0.01310 0.30500 0.03300
H 	H 	0.07300 0.09730 0.28010 -0.02200
H 	H 	0.83270 0.93240 0.90570 -0.00100
H 	H 	0.87910 0.95730 0.83860 0.06300
H 	H 	0.87380 0.04080 0.81100 -0.00100
H 	H 	0.69670 0.08650 0.02880 0.00100
H 	H 	0.66950 0.16180 0.99750 0.05800
H 	H 	0.70810 0.19500 0.92710 0.04200
H 	H 	0.81720 0.21990 0.79290 -0.01200
H 	H 	0.52670 0.92700 0.59430 -0.01000
H 	H 	0.61870 0.04050 0.66140 0.07600
H 	H 	0.72980 0.06280 0.68900 -0.01100
H 	H 	0.55770 0.66790 0.47120 -0.00300
H 	H 	0.66430 0.67200 0.50250 0.06200
H 	H 	0.76790 0.78100 0.57290 0.04600
H 	H 	0.92700 0.02430 0.70710 -0.04500
H 	H 	0.66730 0.57300 0.09970 -0.00200
H 	H 	0.62090 0.45950 0.07820 0.07000
H 	H 	0.62620 0.43720 0.16700 -0.01300
H 	H 	0.80330 0.83210 0.38980 0.00100
H 	H 	0.83050 0.82800 0.49230 0.06700
H 	H 	0.79190 0.71900 0.48690 0.04400
H 	H 	0.68280 0.47570 0.40270 -0.01100
H 	H 	0.97330 0.56760 0.40030 0.00800
H 	H 	0.88130 0.54270 0.42180 0.07200
H 	H 	0.77020 0.45920 0.33300 -0.01300
H 	H 	0.94230 0.41350 0.11020 0.00600
H 	H 	0.83570 0.33820 0.00770 0.06500
H 	H 	0.73210 0.30500 0.01310 0.04300
H 	H 	0.57300 0.28010 0.09730 -0.01200
H 	H 	0.92700 0.09430 0.02670 -0.01200
H 	H 	0.04050 0.16140 0.11870 0.07500
H 	H 	0.06280 0.18900 0.22980 -0.01200
H 	H 	0.66790 0.97120 0.05770 0.03600
H 	H 	0.67200 0.00250 0.16430 0.04300
H 	H 	0.78100 0.07290 0.26790 0.04500
H 	H 	0.02430 0.20710 0.42700 -0.05400
H 	H 	0.93240 0.40570 0.33270 -0.00100
H 	H 	0.95730 0.33860 0.37910 0.05800
H 	H 	0.04080 0.31100 0.37380 -0.00200
H 	H 	0.08650 0.52880 0.19670 -0.00600
H 	H 	0.16180 0.49750 0.16950 0.06100
H 	H 	0.19500 0.42710 0.20810 0.04100
H 	H 	0.21990 0.29290 0.31720 -0.01300
H 	H 	0.56760 0.90030 0.47330 0.00100
H 	H 	0.54270 0.92180 0.38130 0.07500
H 	H 	0.45920 0.83300 0.27020 -0.01300
H 	H 	0.41350 0.61020 0.44230 -0.00300
H 	H 	0.33820 0.50770 0.33570 0.06200
H 	H 	0.30500 0.51310 0.23210 0.04200
H 	H 	0.28010 0.59730 0.07300 -0.01100
H 	H 	0.57300 0.59970 0.16730 -0.00200
H 	H 	0.45950 0.57820 0.12090 0.07000
H 	H 	0.43720 0.66700 0.12620 -0.01300
H 	H 	0.83210 0.88980 0.30330 0.00200
H 	H 	0.82800 0.99230 0.33050 0.07200
H 	H 	0.71900 0.98690 0.29190 0.05100
H 	H 	0.47570 0.90270 0.18280 -0.00800
H 	H 	0.90030 0.97330 0.06760 0.01000
H 	H 	0.92180 0.88130 0.04270 0.07600
H 	H 	0.83300 0.77020 0.95920 -0.01100
H 	H 	0.61020 0.94230 0.91350 0.00500
H 	H 	0.50770 0.83570 0.83820 0.06300
H 	H 	0.51310 0.73210 0.80500 0.04200
H 	H 	0.59730 0.57300 0.78010 -0.01200
H 	H 	0.59970 0.66730 0.07300 -0.00300
H 	H 	0.57820 0.62090 0.95950 0.07000
H 	H 	0.66700 0.62620 0.93720 -0.01300
H 	H 	0.88980 0.80330 0.33210 0.00100
H 	H 	0.99230 0.83050 0.32800 0.07300
H 	H 	0.98690 0.79190 0.21900 0.05200
H 	H 	0.90270 0.68280 0.97570 -0.01200
H 	H 	0.09430 0.52670 0.42700 -0.00600
H 	H 	0.16140 0.61870 0.54050 0.06700
H 	H 	0.18900 0.72980 0.56280 -0.01400
H 	H 	0.97120 0.55770 0.16790 0.03800
H 	H 	0.00250 0.66430 0.17200 0.04200
H 	H 	0.07290 0.76790 0.28100 0.04500
H 	H 	0.20710 0.92700 0.52430 -0.00600
H 	H 	0.40570 0.83270 0.43240 -0.00100
H 	H 	0.33860 0.87910 0.45730 0.07300
H 	H 	0.31100 0.87380 0.54080 -0.01100
H 	H 	0.52880 0.69670 0.58650 -0.00200
H 	H 	0.49750 0.66950 0.66180 0.06200
H 	H 	0.42710 0.70810 0.69500 0.04200
H 	H 	0.29290 0.81720 0.71990 -0.01200
C 	C 	0.43500 0.07210 0.10450 0.06600
C 	C 	0.50310 0.12710 0.14520 -0.11600
C 	C 	0.51620 0.19230 0.16170 0.02000
C 	C 	0.46030 0.20530 0.13820 -0.06200
C 	C 	0.39150 0.14460 0.09530 0.03900
C 	C 	0.21190 0.09910 0.00200 0.05700
C 	C 	0.21380 0.16280 0.01920 -0.09300
C 	C 	0.27790 0.22380 0.06110 -0.01500
C 	C 	0.33840 0.21851 0.08591 -0.01600
C 	C 	0.33197 0.15289 0.06886 0.01700
C 	C 	0.49600 0.37800 0.18560 0.07600
C 	C 	0.40740 0.27770 0.12870 0.03400
C 	C 	0.46520 0.27030 0.15150 0.04400
C 	C 	0.46760 0.33050 0.39550 0.06600
C 	C 	0.48190 0.35790 0.35480 -0.11400
C 	C 	0.53060 0.35450 0.33830 0.02000
C 	C 	0.56710 0.32210 0.36180 -0.06200
C 	C 	0.54930 0.29620 0.40470 0.03900
C 	C 	0.59710 0.20990 0.49800 0.04900
C 	C 	0.64360 0.19460 0.48080 -0.08700
C 	C 	0.66270 0.21680 0.43890 -0.01800
C 	C 	0.63260 0.25249 0.41409 -0.01500
C 	C 	0.58403 0.26311 0.43114 0.01700
C 	C 	0.69240 0.31040 0.31440 0.07600
C 	C 	0.64900 0.27870 0.37130 0.03300
C 	C 	0.61880 0.31370 0.34850 0.04400
C 	C 	0.03240 0.42790 0.86290 0.05600
C 	C 	0.01810 0.37290 0.87600 -0.16400
C 	C 	0.96940 0.30770 0.82390 0.07400
C 	C 	0.93290 0.29470 0.75500 -0.07600
C 	C 	0.95070 0.35540 0.74690 0.05000
C 	C 	0.90290 0.40090 0.61280 0.05200
C 	C 	0.85640 0.33720 0.55100 -0.08500
C 	C 	0.83730 0.27620 0.55410 -0.01600
C 	C 	0.86740 0.28149 0.61989 -0.01200
C 	C 	0.91597 0.34711 0.67908 0.01700
C 	C 	0.80760 0.12200 0.61800 0.07600
C 	C 	0.85100 0.22230 0.62970 0.03100
C 	C 	0.88120 0.22970 0.69490 0.05200
C 	C 	0.06500 0.16950 0.63710 0.02400
C 	C 	0.99690 0.14210 0.62400 -0.07600
C 	C 	0.98380 0.14550 0.67610 0.03600
C 	C 	0.03970 0.17790 0.74500 -0.08300
C 	C 	0.10850 0.20380 0.75310 0.03900
C 	C 	0.28810 0.29010 0.88720 0.04900
C 	C 	0.28620 0.30540 0.94900 -0.08800
C 	C 	0.22210 0.28320 0.94590 -0.01700
C 	C 	0.16160 0.24751 0.88011 -0.01800
C 	C 	0.16803 0.23689 0.82092 0.01700
C 	C 	0.00400 0.18960 0.88200 0.00200
C 	C 	0.09260 0.22130 0.87030 0.03600
C 	C 	0.03480 0.18630 0.80510 0.02600
C 	C 	0.36290 0.03240 0.92790 0.05700
C 	C 	0.37600 0.01810 0.87290 -0.16500
C 	C 	0.32390 0.96940 0.80770 0.07500
C 	C 	0.25500 0.93290 0.79470 -0.07700
C 	C 	0.24690 0.95070 0.85540 0.05000
C 	C 	0.11280 0.90290 0.90090 0.05000
C 	C 	0.05100 0.85640 0.83720 -0.08700
C 	C 	0.05410 0.83730 0.77620 -0.01900
C 	C 	0.11989 0.86740 0.78149 -0.01400
C 	C 	0.17908 0.91597 0.84711 0.01600
C 	C 	0.11800 0.80760 0.62200 0.07500
C 	C 	0.12970 0.85100 0.72230 0.03000
C 	C 	0.19490 0.88120 0.72970 0.05200
C 	C 	0.13710 0.06500 0.66950 0.02500
C 	C 	0.12400 0.99690 0.64210 -0.07600
C 	C 	0.17610 0.98380 0.64550 0.03600
C 	C 	0.24500 0.03970 0.67790 -0.08300
C 	C 	0.25310 0.10850 0.70380 0.03900
C 	C 	0.38720 0.28810 0.79010 0.05000
C 	C 	0.44900 0.28620 0.80540 -0.08700
C 	C 	0.44590 0.22210 0.78320 -0.01600
C 	C 	0.38011 0.16160 0.74751 -0.01800
C 	C 	0.32092 0.16803 0.73689 0.01700
C 	C 	0.38200 0.00400 0.68960 0.00300
C 	C 	0.37030 0.09260 0.72130 0.03700
C 	C 	0.30510 0.03480 0.68630 0.02600
C 	C 	0.60450 0.43500 0.57210 0.06700
C 	C 	0.64520 0.50310 0.62710 -0.11400
C 	C 	0.66170 0.51620 0.69230 0.02000
C 	C 	0.63820 0.46030 0.70530 -0.06200
C 	C 	0.59530 0.39150 0.64460 0.04000
C 	C 	0.50200 0.21190 0.59910 0.04900
C 	C 	0.51920 0.21380 0.66280 -0.08600
C 	C 	0.56110 0.27790 0.72380 -0.01700
C 	C 	0.58591 0.33840 0.71851 -0.01500
C 	C 	0.56886 0.33197 0.65289 0.01700
C 	C 	0.68560 0.49600 0.87800 0.07600
C 	C 	0.62870 0.40740 0.77770 0.03400
C 	C 	0.65150 0.46520 0.77030 0.04400
C 	C 	0.89550 0.46760 0.83050 0.06900
C 	C 	0.85480 0.48190 0.85790 -0.11200
C 	C 	0.83830 0.53060 0.85450 0.02100
C 	C 	0.86180 0.56710 0.82210 -0.05900
C 	C 	0.90470 0.54930 0.79620 0.04200
C 	C 	0.99800 0.59710 0.70990 0.11200
C 	C 	0.98080 0.64360 0.69460 -0.11700
C 	C 	0.93890 0.66270 0.71680 0.00400
C 	C 	0.91409 0.63260 0.75249 -0.02200
C 	C 	0.93114 0.58403 0.76311 0.02500
C 	C 	0.81440 0.69240 0.81040 0.07700
C 	C 	0.87130 0.64900 0.77870 0.03900
C 	C 	0.84850 0.61880 0.81370 0.04300
C 	C 	0.33050 0.89550 0.96760 0.06800
C 	C 	0.35790 0.85480 0.98190 -0.11800
C 	C 	0.35450 0.83830 0.03060 0.02700
C 	C 	0.32210 0.86180 0.06710 -0.06100
C 	C 	0.29620 0.90470 0.04930 0.04200
C 	C 	0.20990 0.99800 0.09710 0.11000
C 	C 	0.19460 0.98080 0.14360 -0.11700
C 	C 	0.21680 0.93890 0.16270 0.00300
C 	C 	0.25249 0.91409 0.13260 -0.02200
C 	C 	0.26311 0.93114 0.08403 0.02400
C 	C 	0.31040 0.81440 0.19240 0.07700
C 	C 	0.27870 0.87130 0.14900 0.03800
C 	C 	0.31370 0.84850 0.11880 0.04400
C 	C 	0.07210 0.60450 0.93500 0.06100
C 	C 	0.12710 0.64520 0.00310 -0.11200
C 	C 	0.19230 0.66170 0.01620 0.02200
C 	C 	0.20530 0.63820 0.96030 -0.06400
C 	C 	0.14460 0.59530 0.89150 0.03800
C 	C 	0.09910 0.50200 0.71190 0.04900
C 	C 	0.16280 0.51920 0.71380 -0.08800
C 	C 	0.22380 0.56110 0.77790 -0.01700
C 	C 	0.21851 0.58591 0.83840 -0.01500
C 	C 	0.15289 0.56886 0.83197 0.01600
C 	C 	0.37800 0.68560 0.99600 0.06700
C 	C 	0.27770 0.62870 0.90740 0.03400
C 	C 	0.27030 0.65150 0.96520 0.04200
C 	C 	0.16950 0.13710 0.56500 0.06400
C 	C 	0.14210 0.12400 0.49690 -0.11600
C 	C 	0.14550 0.17610 0.48380 0.01700
C 	C 	0.17790 0.24500 0.53970 -0.06200
C 	C 	0.20380 0.25310 0.60850 0.03900
C 	C 	0.29010 0.38720 0.78810 0.04900
C 	C 	0.30540 0.44900 0.78620 -0.08600
C 	C 	0.28320 0.44590 0.72210 -0.01700
C 	C 	0.24751 0.38011 0.66160 -0.01500
C 	C 	0.23689 0.32092 0.66803 0.01700
C 	C 	0.18960 0.38200 0.50400 0.07400
C 	C 	0.22130 0.37030 0.59260 0.03300
C 	C 	0.18630 0.30510 0.53480 0.04300
C 	C 	0.42790 0.36290 0.53240 0.06700
C 	C 	0.37290 0.37600 0.51810 -0.11400
C 	C 	0.30770 0.32390 0.46940 0.02000
C 	C 	0.29470 0.25500 0.43290 -0.06200
C 	C 	0.35540 0.24690 0.45070 0.03900
C 	C 	0.40090 0.11280 0.40290 0.04800
C 	C 	0.33720 0.05100 0.35640 -0.09000
C 	C 	0.27620 0.05410 0.33730 -0.01900
C 	C 	0.28149 0.11989 0.36740 -0.01800
C 	C 	0.34711 0.17908 0.41597 0.01700
C 	C 	0.12200 0.11800 0.30760 0.07400
C 	C 	0.22230 0.12970 0.35100 0.03200
C 	C 	0.22970 0.19490 0.38120 0.04300
C 	C 	0.83050 0.96760 0.89550 0.07800
C 	C 	0.85790 0.98190 0.85480 -0.06400
C 	C 	0.85450 0.03060 0.83830 -0.03300
C 	C 	0.82210 0.06710 0.86180 -0.04700
C 	C 	0.79620 0.04930 0.90470 0.03000
C 	C 	0.70990 0.09710 0.99800 0.03800
C 	C 	0.69460 0.14360 0.98080 -0.08300
C 	C 	0.71680 0.16270 0.93890 -0.02000
C 	C 	0.75249 0.13260 0.91409 -0.01600
C 	C 	0.76311 0.08403 0.93114 0.01700
C 	C 	0.81040 0.19240 0.81440 0.07700
C 	C 	0.77870 0.14900 0.87130 0.03600
C 	C 	0.81370 0.11880 0.84850 0.03600
C 	C 	0.57210 0.93500 0.60450 0.10700
C 	C 	0.62710 0.00310 0.64520 -0.15200
C 	C 	0.69230 0.01620 0.66170 0.00300
C 	C 	0.70530 0.96030 0.63820 -0.04000
C 	C 	0.64460 0.89150 0.59530 0.04000
C 	C 	0.59910 0.71190 0.50200 0.04900
C 	C 	0.66280 0.71380 0.51920 -0.08400
C 	C 	0.72380 0.77790 0.56110 -0.01800
C 	C 	0.71851 0.83840 0.58591 -0.01100
C 	C 	0.65289 0.83197 0.56886 0.01700
C 	C 	0.87800 0.99600 0.68560 0.14800
C 	C 	0.77770 0.90740 0.62870 0.03100
C 	C 	0.77030 0.96520 0.65150 0.06100
C 	C 	0.66950 0.56500 0.13710 0.06700
C 	C 	0.64210 0.49690 0.12400 -0.11400
C 	C 	0.64550 0.48380 0.17610 0.02100
C 	C 	0.67790 0.53970 0.24500 -0.06100
C 	C 	0.70380 0.60850 0.25310 0.04000
C 	C 	0.79010 0.78810 0.38720 0.05200
C 	C 	0.80540 0.78620 0.44900 -0.08500
C 	C 	0.78320 0.72210 0.44590 -0.01500
C 	C 	0.74751 0.66160 0.38011 -0.01400
C 	C 	0.73689 0.66803 0.32092 0.01800
C 	C 	0.68960 0.50400 0.38200 0.07600
C 	C 	0.72130 0.59260 0.37030 0.03500
C 	C 	0.68630 0.53480 0.30510 0.04400
C 	C 	0.92790 0.53240 0.36290 0.06800
C 	C 	0.87290 0.51810 0.37600 -0.11200
C 	C 	0.80770 0.46940 0.32390 0.02100
C 	C 	0.79470 0.43290 0.25500 -0.06100
C 	C 	0.85540 0.45070 0.24690 0.04200
C 	C 	0.90090 0.40290 0.11280 0.05100
C 	C 	0.83720 0.35640 0.05100 -0.08400
C 	C 	0.77620 0.33730 0.05410 -0.01600
C 	C 	0.78149 0.36740 0.11989 -0.01400
C 	C 	0.84711 0.41597 0.17908 0.02000
C 	C 	0.62200 0.30760 0.11800 0.07600
C 	C 	0.72230 0.35100 0.12970 0.03400
C 	C 	0.72970 0.38120 0.19490 0.04400
C 	C 	0.93500 0.10450 0.07210 0.10500
C 	C 	0.00310 0.14520 0.12710 -0.15400
C 	C 	0.01620 0.16170 0.19230 0.00100
C 	C 	0.96030 0.13820 0.20530 -0.04200
C 	C 	0.89150 0.09530 0.14460 0.03900
C 	C 	0.71190 0.00200 0.09910 -0.00900
C 	C 	0.71380 0.01920 0.16280 -0.05600
C 	C 	0.77790 0.06110 0.22380 -0.03800
C 	C 	0.83840 0.08591 0.21851 -0.00500
C 	C 	0.83197 0.06886 0.15289 0.01100
C 	C 	0.99600 0.18560 0.37800 0.14900
C 	C 	0.90740 0.12870 0.27770 0.02600
C 	C 	0.96520 0.15150 0.27030 0.06200
C 	C 	0.96760 0.39550 0.33050 0.07700
C 	C 	0.98190 0.35480 0.35790 -0.06200
C 	C 	0.03060 0.33830 0.35450 -0.03600
C 	C 	0.06710 0.36180 0.32210 -0.04600
C 	C 	0.04930 0.40470 0.29620 0.03000
C 	C 	0.09710 0.49800 0.20990 0.04700
C 	C 	0.14360 0.48080 0.19460 -0.08800
C 	C 	0.16270 0.43890 0.21680 -0.01700
C 	C 	0.13260 0.41409 0.25249 -0.01800
C 	C 	0.08403 0.43114 0.26311 0.01800
C 	C 	0.19240 0.31440 0.31040 0.07500
C 	C 	0.14900 0.37130 0.27870 0.03600
C 	C 	0.11880 0.34850 0.31370 0.03500
C 	C 	0.53240 0.86290 0.42790 0.06800
C 	C 	0.51810 0.87600 0.37290 -0.11400
C 	C 	0.46940 0.82390 0.30770 0.02200
C 	C 	0.43290 0.75500 0.29470 -0.06100
C 	C 	0.45070 0.74690 0.35540 0.04000
C 	C 	0.40290 0.61280 0.40090 0.05000
C 	C 	0.35640 0.55100 0.33720 -0.08600
C 	C 	0.33730 0.55410 0.27620 -0.01700
C 	C 	0.36740 0.61989 0.28149 -0.01400
C 	C 	0.41597 0.67908 0.34711 0.01700
C 	C 	0.30760 0.61800 0.12200 0.07600
C 	C 	0.35100 0.62970 0.22230 0.03400
C 	C 	0.38120 0.69490 0.22970 0.04400
C 	C 	0.56500 0.63710 0.16950 0.06700
C 	C 	0.49690 0.62400 0.14210 -0.11400
C 	C 	0.48380 0.67610 0.14550 0.02000
C 	C 	0.53970 0.74500 0.17790 -0.06100
C 	C 	0.60850 0.75310 0.20380 0.04000
C 	C 	0.78810 0.88720 0.29010 0.05200
C 	C 	0.78620 0.94900 0.30540 -0.08300
C 	C 	0.72210 0.94590 0.28320 -0.01400
C 	C 	0.66160 0.88011 0.24751 -0.01200
C 	C 	0.66803 0.82092 0.23689 0.01800
C 	C 	0.50400 0.88200 0.18960 0.07700
C 	C 	0.59260 0.87030 0.22130 0.03600
C 	C 	0.53480 0.80510 0.18630 0.04400
C 	C 	0.86290 0.92790 0.03240 0.07000
C 	C 	0.87600 0.87290 0.01810 -0.10600
C 	C 	0.82390 0.80770 0.96940 0.01600
C 	C 	0.75500 0.79470 0.93290 -0.05900
C 	C 	0.74690 0.85540 0.95070 0.04100
C 	C 	0.61280 0.90090 0.90290 0.05000
C 	C 	0.55100 0.83720 0.85640 -0.08400
C 	C 	0.55410 0.77620 0.83730 -0.01700
C 	C 	0.61989 0.78149 0.86740 -0.01400
C 	C 	0.67908 0.84711 0.91597 0.02000
C 	C 	0.61800 0.62200 0.80760 0.07600
C 	C 	0.62970 0.72230 0.85100 0.03400
C 	C 	0.69490 0.72970 0.88120 0.04300
C 	C 	0.63710 0.66950 0.06500 0.07200
C 	C 	0.62400 0.64210 0.99690 -0.11900
C 	C 	0.67610 0.64550 0.98380 0.01800
C 	C 	0.74500 0.67790 0.03970 -0.05800
C 	C 	0.75310 0.70380 0.10850 0.04100
C 	C 	0.88720 0.79010 0.28810 0.05300
C 	C 	0.94900 0.80540 0.28620 -0.08200
C 	C 	0.94590 0.78320 0.22210 -0.01400
C 	C 	0.88011 0.74751 0.16160 -0.01100
C 	C 	0.82092 0.73689 0.16803 0.01900
C 	C 	0.88200 0.68960 0.00400 0.08600
C 	C 	0.87030 0.72130 0.09260 0.03600
C 	C 	0.80510 0.68630 0.03480 0.04600
C 	C 	0.10450 0.57210 0.43500 0.06400
C 	C 	0.14520 0.62710 0.50310 -0.11600
C 	C 	0.16170 0.69230 0.51620 0.01900
C 	C 	0.13820 0.70530 0.46030 -0.06400
C 	C 	0.09530 0.64460 0.39150 0.03900
C 	C 	0.00200 0.59910 0.21190 -0.01300
C 	C 	0.01920 0.66280 0.21380 -0.05400
C 	C 	0.06110 0.72380 0.27790 -0.03900
C 	C 	0.08591 0.71851 0.33840 -0.00600
C 	C 	0.06886 0.65289 0.33197 0.01000
C 	C 	0.18560 0.87800 0.49600 0.07500
C 	C 	0.12870 0.77770 0.40740 0.02900
C 	C 	0.15150 0.77030 0.46520 0.04400
C 	C 	0.39550 0.83050 0.46760 0.06800
C 	C 	0.35480 0.85790 0.48190 -0.11300
C 	C 	0.33830 0.85450 0.53060 0.02200
C 	C 	0.36180 0.82210 0.56710 -0.06100
C 	C 	0.40470 0.79620 0.54930 0.04100
C 	C 	0.49800 0.70990 0.59710 0.05000
C 	C 	0.48080 0.69460 0.64360 -0.08600
C 	C 	0.43890 0.71680 0.66270 -0.01700
C 	C 	0.41409 0.75249 0.63260 -0.01400
C 	C 	0.43114 0.76311 0.58403 0.01800
C 	C 	0.31440 0.81040 0.69240 0.07700
C 	C 	0.37130 0.77870 0.64900 0.03400
C 	C 	0.34850 0.81370 0.61880 0.04500
N 	N 	0.38082 0.08041 0.07925 -0.24400
N 	N 	0.26884 0.09335 0.02657 -0.24500
N 	N 	0.52429 0.33649 0.19020 -0.28400
N 	N 	0.42700 0.34640 0.14980 -0.12400
N 	N 	0.50116 0.30157 0.42075 -0.24000
N 	N 	0.56678 0.24227 0.47343 -0.24000
N 	N 	0.64629 0.33409 0.30980 -0.28400
N 	N 	0.69660 0.27720 0.35020 -0.12400
N 	N 	0.99884 0.41959 0.80041 -0.22500
N 	N 	0.93322 0.40665 0.67549 -0.23500
N 	N 	0.85371 0.16351 0.68780 -0.28500
N 	N 	0.80340 0.15360 0.58060 -0.12600
N 	N 	0.11918 0.19843 0.69959 -0.23500
N 	N 	0.23116 0.25773 0.82451 -0.24100
N 	N 	0.97571 0.16591 0.81220 -0.25300
N 	N 	0.07300 0.22280 0.91940 -0.11700
N 	N 	0.30041 0.99884 0.91959 -0.22600
N 	N 	0.17549 0.93322 0.90665 -0.23600
N 	N 	0.18780 0.85371 0.66351 -0.28500
N 	N 	0.08060 0.80340 0.65360 -0.12800
N 	N 	0.19959 0.11918 0.69843 -0.23500
N 	N 	0.32451 0.23116 0.75773 -0.24100
N 	N 	0.31220 0.97571 0.66591 -0.25200
N 	N 	0.41940 0.07300 0.72280 -0.11600
N 	N 	0.57925 0.38082 0.58041 -0.24000
N 	N 	0.52657 0.26884 0.59335 -0.24000
N 	N 	0.69020 0.52429 0.83649 -0.28400
N 	N 	0.64980 0.42700 0.84640 -0.12400
N 	N 	0.92075 0.50116 0.80157 -0.23500
N 	N 	0.97343 0.56678 0.74227 -0.24500
N 	N 	0.80980 0.64629 0.83409 -0.28300
N 	N 	0.85020 0.69660 0.77720 -0.12100
N 	N 	0.30157 0.92075 0.00116 -0.23400
N 	N 	0.24227 0.97343 0.06678 -0.24400
N 	N 	0.33409 0.80980 0.14629 -0.28300
N 	N 	0.27720 0.85020 0.19660 -0.12200
N 	N 	0.08041 0.57925 0.88082 -0.24400
N 	N 	0.09335 0.52657 0.76884 -0.24400
N 	N 	0.33649 0.69020 0.02429 -0.28000
N 	N 	0.34640 0.64980 0.92700 -0.12300
N 	N 	0.19843 0.19959 0.61918 -0.24000
N 	N 	0.25773 0.32451 0.73116 -0.24000
N 	N 	0.16591 0.31220 0.47571 -0.28400
N 	N 	0.22280 0.41940 0.57300 -0.12400
N 	N 	0.41959 0.30041 0.49884 -0.24000
N 	N 	0.40665 0.17549 0.43322 -0.24100
N 	N 	0.16351 0.18780 0.35371 -0.28500
N 	N 	0.15360 0.08060 0.30340 -0.13100
N 	N 	0.80157 0.00116 0.92075 -0.25400
N 	N 	0.74227 0.06678 0.97343 -0.24200
N 	N 	0.83409 0.14629 0.80980 -0.28300
N 	N 	0.77720 0.19660 0.85020 -0.12400
N 	N 	0.58041 0.88082 0.57925 -0.24400
N 	N 	0.59335 0.76884 0.52657 -0.24000
N 	N 	0.83649 0.02429 0.69020 -0.31400
N 	N 	0.84640 0.92700 0.64980 -0.12800
N 	N 	0.69843 0.61918 0.19959 -0.24000
N 	N 	0.75773 0.73116 0.32451 -0.24000
N 	N 	0.66591 0.47571 0.31220 -0.28400
N 	N 	0.72280 0.57300 0.41940 -0.12300
N 	N 	0.91959 0.49884 0.30041 -0.23300
N 	N 	0.90665 0.43322 0.17549 -0.23400
N 	N 	0.66351 0.35371 0.18780 -0.28400
N 	N 	0.65360 0.30340 0.08060 -0.12300
N 	N 	0.88082 0.07925 0.08041 -0.24600
N 	N 	0.76884 0.02657 0.09335 -0.23200
N 	N 	0.02429 0.19020 0.33649 -0.31600
N 	N 	0.92700 0.14980 0.34640 -0.13300
N 	N 	0.00116 0.42075 0.30157 -0.25300
N 	N 	0.06678 0.47343 0.24227 -0.24300
N 	N 	0.14629 0.30980 0.33409 -0.28300
N 	N 	0.19660 0.35020 0.27720 -0.12500
N 	N 	0.49884 0.80041 0.41959 -0.24000
N 	N 	0.43322 0.67549 0.40665 -0.24000
N 	N 	0.35371 0.68780 0.16351 -0.28400
N 	N 	0.30340 0.58060 0.15360 -0.12400
N 	N 	0.61918 0.69959 0.19843 -0.24000
N 	N 	0.73116 0.82451 0.25773 -0.23900
N 	N 	0.47571 0.81220 0.16591 -0.28300
N 	N 	0.57300 0.91940 0.22280 -0.11900
N 	N 	0.80041 0.91959 0.99884 -0.23500
N 	N 	0.67549 0.90665 0.93322 -0.23400
N 	N 	0.68780 0.66351 0.85371 -0.28400
N 	N 	0.58060 0.65360 0.80340 -0.12400
N 	N 	0.69959 0.69843 0.11918 -0.24000
N 	N 	0.82451 0.75773 0.23116 -0.23900
N 	N 	0.81220 0.66591 0.97571 -0.28700
N 	N 	0.91940 0.72280 0.07300 -0.11900
N 	N 	0.07925 0.58041 0.38082 -0.24300
N 	N 	0.02657 0.59335 0.26884 -0.23300
N 	N 	0.19020 0.83649 0.52429 -0.28300
N 	N 	0.14980 0.84640 0.42700 -0.12300
N 	N 	0.42075 0.80157 0.50116 -0.24000
N 	N 	0.47343 0.74227 0.56678 -0.24000
N 	N 	0.30980 0.83409 0.64629 -0.28300
N 	N 	0.35020 0.77720 0.69660 -0.12300
