data_crystal

_cell_length_a 6.88500
_cell_length_b 8.52290
_cell_length_c 11.38400
_cell_angle_alpha 95.41100
_cell_angle_beta  90.80000
_cell_angle_gamma 108.87000

_symmetry_space_group_name_	'P 1'
_symmetry_space_group_name_H-M	'P 1'

loop_
_symmetry_equiv_pos_as_xyz
  x,y,z

loop_
_atom_site_label
_atom_site_type_symbol
_atom_site_fract_x
_atom_site_fract_y
_atom_site_fract_z
_atom_site_charge
U 	U 	0.34297 0.16988 0.32921 -0.02100
O 	O 	0.97180 0.09040 0.34670 -0.13000
O 	O 	0.75910 0.08360 0.58950 -0.14600
O 	O 	0.66120 0.11240 0.34340 -0.17100
O 	O 	0.79150 0.64510 0.77035 -0.20800
O 	O 	0.02470 0.53130 0.81941 -0.42700
C 	C 	0.88360 0.36840 0.56090 -0.05200
O 	O 	0.67080 0.26340 0.71581 -0.19800
C 	C 	0.95290 0.53150 0.61610 0.05800
C 	C 	0.75960 0.22910 0.62880 0.30700
C 	C 	0.84750 0.16620 0.37640 0.25300
C 	C 	0.91620 0.56880 0.74520 0.38600
C 	C 	0.93060 0.33760 0.44420 0.09900
U 	U 	0.65703 0.83012 0.67079 0.02400
O 	O 	0.02820 0.90960 0.65330 -0.20100
O 	O 	0.24090 0.91640 0.41050 -0.18100
O 	O 	0.33880 0.88760 0.65660 -0.17400
O 	O 	0.20850 0.35490 0.22965 -0.26800
O 	O 	0.97530 0.46870 0.18059 -0.37100
C 	C 	0.11640 0.63160 0.43910 0.02600
O 	O 	0.32920 0.73660 0.28419 -0.24100
C 	C 	0.04710 0.46850 0.38390 -0.12300
C 	C 	0.24040 0.77090 0.37120 0.27200
C 	C 	0.15250 0.83380 0.62360 0.30100
C 	C 	0.08380 0.43120 0.25480 0.28600
C 	C 	0.06940 0.66240 0.55580 -0.09700
Co	Co	-0.00000 0.50000 -0.00000 0.99700
