data_crystal

_cell_length_a 8.29650
_cell_length_b 8.58330
_cell_length_c 9.87600
_cell_angle_alpha 96.56400
_cell_angle_beta  102.93800
_cell_angle_gamma 94.19900

_symmetry_space_group_name_	'P 1'
_symmetry_space_group_name_H-M	'P 1'

loop_
_symmetry_equiv_pos_as_xyz
  x,y,z

loop_
_atom_site_label
_atom_site_type_symbol
_atom_site_fract_x
_atom_site_fract_y
_atom_site_fract_z
_atom_site_charge
O 	O 	0.17720 0.69540 0.51770 -0.49400
O 	O 	0.31320 0.59120 0.36810 -0.28300
C 	C 	0.39940 0.85600 0.47450 -0.07800
C 	C 	0.28870 0.70280 0.45140 0.34700
O 	O 	0.28280 0.77820 0.15360 -0.30300
O 	O 	0.17330 0.00160 0.19170 -0.56400
C 	C 	0.39590 0.95030 0.36800 0.02100
C 	C 	0.27570 0.90650 0.22660 0.39100
O 	O 	0.52790 0.66780 0.70040 -0.18100
C 	C 	0.50270 0.90770 0.60750 0.05900
O 	O 	0.48560 0.87580 0.83750 -0.18200
C 	C 	0.50420 0.81020 0.72610 0.26000
O 	O 	0.43140 0.62100 0.95250 -0.05500
U 	U 	0.42066 0.54345 0.16583 -0.03000
O 	O 	0.82280 0.30460 0.48230 -0.32600
O 	O 	0.68680 0.40880 0.63190 -0.20500
C 	C 	0.60060 0.14400 0.52550 0.00900
C 	C 	0.71130 0.29720 0.54860 0.30500
O 	O 	0.71720 0.22180 0.84640 -0.17800
O 	O 	0.82670 0.99840 0.80830 -0.25100
C 	C 	0.60410 0.04970 0.63200 -0.09300
C 	C 	0.72430 0.09350 0.77340 0.26600
O 	O 	0.47210 0.33220 0.29960 -0.21800
C 	C 	0.49730 0.09230 0.39250 -0.09700
O 	O 	0.51440 0.12420 0.16250 -0.25300
C 	C 	0.49580 0.18980 0.27390 0.30900
O 	O 	0.56860 0.37900 0.04750 -0.10400
U 	U 	0.57934 0.45655 0.83417 0.01300
Co	Co	0.00000 0.50000 0.50000 0.97900
Co	Co	-0.00000 0.00000 -0.00000 0.93600
