data_crystal

_cell_length_a 18.13910
_cell_length_b 18.13910
_cell_length_c 48.68610
_cell_angle_alpha 90.00000
_cell_angle_beta  90.00000
_cell_angle_gamma 120.00000

_symmetry_space_group_name_	'P 1'
_symmetry_space_group_name_H-M	'P 1'

loop_
_symmetry_equiv_pos_as_xyz
  x,y,z

loop_
_atom_site_label
_atom_site_type_symbol
_atom_site_fract_x
_atom_site_fract_y
_atom_site_fract_z
_atom_site_charge
Cu	Cu	0.50730 0.44510 0.52000 0.92900
C 	C 	0.62360 0.54730 0.47370 0.30100
O 	O 	0.60650 0.51240 0.49770 -0.38000
O 	O 	0.56790 0.55900 0.46100 -0.33000
C 	C 	0.79980 0.63770 0.42230 0.15800
C 	C 	0.86020 0.62300 0.43490 -0.12100
H 	H 	0.91080 0.63900 0.42610 0.09000
C 	C 	0.84420 0.58600 0.46070 -0.00400
C 	C 	0.76780 0.56200 0.47390 -0.05200
H 	H 	0.75720 0.53800 0.49100 0.08400
C 	C 	0.70740 0.57690 0.46136 -0.00800
C 	C 	0.72340 0.61450 0.43550 -0.12800
H 	H 	0.68340 0.62400 0.42720 0.11400
C 	C 	0.89700 0.55730 0.47690 0.30200
O 	O 	0.87540 0.53100 0.50180 -0.39700
O 	O 	0.97120 0.57600 0.46780 -0.38300
N 	N 	0.84020 0.67960 0.39710 -0.24300
C 	C 	0.79500 0.69600 0.37930 0.22900
O 	O 	0.71900 0.67000 0.38210 -0.24200
H 	H 	0.89330 0.69900 0.39260 0.13000
C 	C 	0.83250 0.72910 0.35065 -0.05700
C 	C 	0.78240 0.73510 0.33010 0.02200
C 	C 	0.81670 0.76500 0.30430 -0.02300
C 	C 	0.90100 0.78900 0.29890 0.06000
C 	C 	0.95110 0.78310 0.31940 -0.07100
C 	C 	0.91690 0.75320 0.34530 -0.03000
H 	H 	0.72660 0.71900 0.33370 0.02500
H 	H 	0.78400 0.76900 0.29070 0.04300
H 	H 	0.00690 0.79900 0.31580 0.05100
H 	H 	0.95000 0.74900 0.35880 0.02900
C 	C 	0.93680 0.82030 0.27185 -0.04900
C 	C 	0.89930 0.77580 0.24630 0.04400
N 	N 	0.93360 0.80310 0.22150 -0.18500
C 	C 	0.01070 0.87920 0.21840 0.07600
N 	N 	0.05080 0.92580 0.24200 -0.11000
C 	C 	0.01650 0.89850 0.26680 0.04100
H 	H 	0.04370 0.92980 0.28220 0.02400
H 	H 	0.03400 0.89720 0.20110 0.02600
H 	H 	0.84850 0.72520 0.24650 0.03100
C 	C 	0.78080 0.69940 0.32750 -0.03200
C 	C 	0.81510 0.72900 0.30160 -0.07800
C 	C 	0.95270 0.81870 0.32200 -0.02500
C 	C 	0.91850 0.78880 0.34790 0.01700
H 	H 	0.72400 0.66000 0.32940 0.04900
H 	H 	0.78100 0.71000 0.28630 0.06800
H 	H 	0.00960 0.85800 0.32020 0.03400
H 	H 	0.95270 0.80800 0.36320 0.01600
Cu	Cu	0.17397 0.77843 0.85333 0.92800
C 	C 	0.29027 0.88063 0.80703 0.30000
O 	O 	0.27317 0.84573 0.83103 -0.38100
O 	O 	0.23457 0.89233 0.79433 -0.33100
C 	C 	0.46647 0.97103 0.75563 0.15800
C 	C 	0.52687 0.95633 0.76823 -0.12200
H 	H 	0.57747 0.97233 0.75943 0.09000
C 	C 	0.51087 0.91933 0.79403 -0.00500
C 	C 	0.43447 0.89533 0.80723 -0.05400
H 	H 	0.42387 0.87133 0.82433 0.08300
C 	C 	0.37407 0.91023 0.79469 -0.00900
C 	C 	0.39007 0.94783 0.76883 -0.12900
H 	H 	0.35007 0.95733 0.76053 0.11300
C 	C 	0.56367 0.89063 0.81023 0.30100
O 	O 	0.54207 0.86433 0.83513 -0.39800
O 	O 	0.63787 0.90933 0.80113 -0.38400
N 	N 	0.50687 0.01293 0.73043 -0.24400
C 	C 	0.46167 0.02933 0.71263 0.22800
O 	O 	0.38567 0.00333 0.71543 -0.24300
H 	H 	0.55997 0.03233 0.72593 0.12900
C 	C 	0.49917 0.06243 0.68398 -0.05800
C 	C 	0.44907 0.06843 0.66343 0.01900
C 	C 	0.48337 0.09833 0.63763 -0.02600
C 	C 	0.56767 0.12233 0.63223 0.06000
C 	C 	0.61777 0.11643 0.65273 -0.07100
C 	C 	0.58357 0.08653 0.67863 -0.03000
H 	H 	0.39327 0.05233 0.66703 0.02500
H 	H 	0.45067 0.10233 0.62403 0.04300
H 	H 	0.67357 0.13233 0.64913 0.05000
H 	H 	0.61667 0.08233 0.69213 0.02700
C 	C 	0.60347 0.15363 0.60518 -0.05100
C 	C 	0.56597 0.10913 0.57963 0.04300
N 	N 	0.60027 0.13643 0.55483 -0.18700
C 	C 	0.67737 0.21253 0.55173 0.07500
N 	N 	0.71747 0.25913 0.57533 -0.11100
C 	C 	0.68317 0.23183 0.60013 0.04000
H 	H 	0.71037 0.26313 0.61553 0.02300
H 	H 	0.70067 0.23053 0.53443 0.02500
H 	H 	0.51517 0.05853 0.57983 0.03000
C 	C 	0.44747 0.03273 0.66083 -0.03000
C 	C 	0.48177 0.06233 0.63493 -0.07800
C 	C 	0.61937 0.15203 0.65533 -0.02800
C 	C 	0.58517 0.12213 0.68123 0.01500
H 	H 	0.39067 0.99333 0.66273 0.04800
H 	H 	0.44767 0.04333 0.61963 0.06700
H 	H 	0.67627 0.19133 0.65353 0.03400
H 	H 	0.61937 0.14133 0.69653 0.01600
Cu	Cu	0.84063 0.11177 0.18667 0.92800
C 	C 	0.95693 0.21397 0.14037 0.30000
O 	O 	0.93983 0.17907 0.16437 -0.38100
O 	O 	0.90123 0.22567 0.12767 -0.33100
C 	C 	0.13313 0.30437 0.08897 0.15700
C 	C 	0.19353 0.28967 0.10157 -0.12200
H 	H 	0.24413 0.30567 0.09277 0.08900
C 	C 	0.17753 0.25267 0.12737 -0.00500
C 	C 	0.10113 0.22867 0.14057 -0.05300
H 	H 	0.09053 0.20467 0.15767 0.08200
C 	C 	0.04073 0.24357 0.12803 -0.01000
C 	C 	0.05673 0.28117 0.10217 -0.12900
H 	H 	0.01673 0.29067 0.09387 0.11300
C 	C 	0.23033 0.22397 0.14357 0.30100
O 	O 	0.20873 0.19767 0.16847 -0.39800
O 	O 	0.30453 0.24267 0.13447 -0.38400
N 	N 	0.17353 0.34627 0.06377 -0.24400
C 	C 	0.12833 0.36267 0.04597 0.22800
O 	O 	0.05233 0.33667 0.04877 -0.24300
H 	H 	0.22663 0.36567 0.05927 0.12900
C 	C 	0.16583 0.39577 0.01732 -0.05800
C 	C 	0.11573 0.40177 0.99677 0.02100
C 	C 	0.15003 0.43167 0.97097 -0.02400
C 	C 	0.23433 0.45567 0.96557 0.06000
C 	C 	0.28443 0.44977 0.98607 -0.07200
C 	C 	0.25023 0.41987 0.01197 -0.03100
H 	H 	0.05993 0.38567 0.00037 0.02400
H 	H 	0.11733 0.43567 0.95737 0.04200
H 	H 	0.34023 0.46567 0.98247 0.05000
H 	H 	0.28333 0.41567 0.02547 0.02800
C 	C 	0.27013 0.48697 0.93852 -0.05100
C 	C 	0.23263 0.44247 0.91297 0.04300
N 	N 	0.26693 0.46977 0.88817 -0.18700
C 	C 	0.34403 0.54587 0.88507 0.07500
N 	N 	0.38413 0.59247 0.90867 -0.11100
C 	C 	0.34983 0.56517 0.93347 0.04000
H 	H 	0.37703 0.59647 0.94887 0.02300
H 	H 	0.36733 0.56387 0.86777 0.02500
H 	H 	0.18183 0.39187 0.91317 0.03000
C 	C 	0.11413 0.36607 0.99417 -0.03200
C 	C 	0.14843 0.39567 0.96827 -0.08000
C 	C 	0.28603 0.48537 0.98867 -0.02700
C 	C 	0.25183 0.45547 0.01457 0.01600
H 	H 	0.05733 0.32667 0.99607 0.04800
H 	H 	0.11433 0.37667 0.95297 0.06700
H 	H 	0.34293 0.52467 0.98687 0.03300
H 	H 	0.28603 0.47467 0.02987 0.01600
Cu	Cu	0.55490 0.06220 0.52000 0.92800
C 	C 	0.45270 0.07630 0.47370 0.30000
O 	O 	0.48760 0.09410 0.49770 -0.38100
O 	O 	0.44100 0.00890 0.46100 -0.33100
C 	C 	0.36230 0.16210 0.42230 0.15700
C 	C 	0.37700 0.23720 0.43490 -0.12200
H 	H 	0.36100 0.27180 0.42610 0.08900
C 	C 	0.41400 0.25820 0.46070 -0.00500
C 	C 	0.43800 0.20580 0.47390 -0.05300
H 	H 	0.46200 0.21920 0.49100 0.08300
C 	C 	0.42310 0.13050 0.46136 -0.00900
C 	C 	0.38550 0.10890 0.43550 -0.12900
H 	H 	0.37600 0.05940 0.42720 0.11300
C 	C 	0.44270 0.33970 0.47690 0.30100
O 	O 	0.46900 0.34440 0.50180 -0.39800
O 	O 	0.42400 0.39520 0.46780 -0.38400
N 	N 	0.32040 0.16060 0.39710 -0.24400
C 	C 	0.30400 0.09900 0.37930 0.22800
O 	O 	0.33000 0.04900 0.38210 -0.24300
H 	H 	0.30100 0.19430 0.39260 0.12900
C 	C 	0.27090 0.10340 0.35065 -0.05800
C 	C 	0.26490 0.04730 0.33010 0.02100
C 	C 	0.23500 0.05170 0.30430 -0.02500
C 	C 	0.21100 0.11200 0.29890 0.06000
C 	C 	0.21690 0.16800 0.31940 -0.07200
C 	C 	0.24680 0.16370 0.34530 -0.03100
H 	H 	0.28100 0.00760 0.33370 0.02500
H 	H 	0.23100 0.01500 0.29070 0.04200
H 	H 	0.20100 0.20790 0.31580 0.05000
H 	H 	0.25100 0.20100 0.35880 0.02800
C 	C 	0.17970 0.11650 0.27185 -0.05100
C 	C 	0.22420 0.12350 0.24630 0.04300
N 	N 	0.19690 0.13050 0.22150 -0.18700
C 	C 	0.12080 0.13150 0.21840 0.07500
N 	N 	0.07420 0.12500 0.24200 -0.11100
C 	C 	0.10150 0.11800 0.26680 0.04000
H 	H 	0.07020 0.11390 0.28220 0.02300
H 	H 	0.10280 0.13680 0.20110 0.02500
H 	H 	0.27480 0.12330 0.24650 0.03000
C 	C 	0.30060 0.08140 0.32750 -0.03200
C 	C 	0.27100 0.08610 0.30160 -0.07900
C 	C 	0.18130 0.13400 0.32200 -0.02700
C 	C 	0.21120 0.12970 0.34790 0.01600
H 	H 	0.34000 0.06400 0.32940 0.04800
H 	H 	0.29000 0.07100 0.28630 0.06700
H 	H 	0.14200 0.15160 0.32020 0.03300
H 	H 	0.19200 0.14470 0.36320 0.01600
Cu	Cu	0.22157 0.39553 0.85333 0.92800
C 	C 	0.11937 0.40963 0.80703 0.30000
O 	O 	0.15427 0.42743 0.83103 -0.38100
O 	O 	0.10767 0.34223 0.79433 -0.33100
C 	C 	0.02897 0.49543 0.75563 0.15800
C 	C 	0.04367 0.57053 0.76823 -0.12200
H 	H 	0.02767 0.60513 0.75943 0.08900
C 	C 	0.08067 0.59153 0.79403 -0.00500
C 	C 	0.10467 0.53913 0.80723 -0.05400
H 	H 	0.12867 0.55253 0.82433 0.08300
C 	C 	0.08977 0.46383 0.79469 -0.00900
C 	C 	0.05217 0.44223 0.76883 -0.12900
H 	H 	0.04267 0.39273 0.76053 0.11300
C 	C 	0.10937 0.67303 0.81023 0.30100
O 	O 	0.13567 0.67773 0.83513 -0.39800
O 	O 	0.09067 0.72853 0.80113 -0.38400
N 	N 	0.98707 0.49393 0.73043 -0.24400
C 	C 	0.97067 0.43233 0.71263 0.22800
O 	O 	0.99667 0.38233 0.71543 -0.24300
H 	H 	0.96767 0.52763 0.72593 0.12900
C 	C 	0.93757 0.43673 0.68398 -0.05800
C 	C 	0.93157 0.38063 0.66343 0.01900
C 	C 	0.90167 0.38503 0.63763 -0.02600
C 	C 	0.87767 0.44533 0.63223 0.06000
C 	C 	0.88357 0.50133 0.65273 -0.07100
C 	C 	0.91347 0.49703 0.67863 -0.03000
H 	H 	0.94767 0.34093 0.66703 0.02500
H 	H 	0.89767 0.34833 0.62403 0.04300
H 	H 	0.86767 0.54123 0.64913 0.05000
H 	H 	0.91767 0.53433 0.69213 0.02700
C 	C 	0.84637 0.44983 0.60518 -0.05100
C 	C 	0.89087 0.45683 0.57963 0.04300
N 	N 	0.86357 0.46383 0.55483 -0.18700
C 	C 	0.78747 0.46483 0.55173 0.07500
N 	N 	0.74087 0.45833 0.57533 -0.11100
C 	C 	0.76817 0.45133 0.60013 0.04000
H 	H 	0.73687 0.44723 0.61553 0.02300
H 	H 	0.76947 0.47013 0.53443 0.02500
H 	H 	0.94147 0.45663 0.57983 0.03000
C 	C 	0.96727 0.41473 0.66083 -0.03100
C 	C 	0.93767 0.41943 0.63493 -0.07800
C 	C 	0.84797 0.46733 0.65533 -0.02800
C 	C 	0.87787 0.46303 0.68123 0.01500
H 	H 	0.00667 0.39733 0.66273 0.04800
H 	H 	0.95667 0.40433 0.61963 0.06700
H 	H 	0.80867 0.48493 0.65353 0.03300
H 	H 	0.85867 0.47803 0.69653 0.01600
Cu	Cu	0.88823 0.72887 0.18667 0.92800
C 	C 	0.78603 0.74297 0.14037 0.30000
O 	O 	0.82093 0.76077 0.16437 -0.38100
O 	O 	0.77433 0.67557 0.12767 -0.33100
C 	C 	0.69563 0.82877 0.08897 0.15700
C 	C 	0.71033 0.90387 0.10157 -0.12200
H 	H 	0.69433 0.93847 0.09277 0.08900
C 	C 	0.74733 0.92487 0.12737 -0.00500
C 	C 	0.77133 0.87247 0.14057 -0.05300
H 	H 	0.79533 0.88587 0.15767 0.08200
C 	C 	0.75643 0.79717 0.12803 -0.00900
C 	C 	0.71883 0.77557 0.10217 -0.12900
H 	H 	0.70933 0.72607 0.09387 0.11300
C 	C 	0.77603 0.00637 0.14357 0.30200
O 	O 	0.80233 0.01107 0.16847 -0.39800
O 	O 	0.75733 0.06187 0.13447 -0.38400
N 	N 	0.65373 0.82727 0.06377 -0.24400
C 	C 	0.63733 0.76567 0.04597 0.22800
O 	O 	0.66333 0.71567 0.04877 -0.24300
H 	H 	0.63433 0.86097 0.05927 0.12900
C 	C 	0.60423 0.77007 0.01732 -0.05800
C 	C 	0.59823 0.71397 0.99677 0.02100
C 	C 	0.56833 0.71837 0.97097 -0.02400
C 	C 	0.54433 0.77867 0.96557 0.06000
C 	C 	0.55023 0.83467 0.98607 -0.07200
C 	C 	0.58013 0.83037 0.01197 -0.03100
H 	H 	0.61433 0.67427 0.00037 0.02400
H 	H 	0.56433 0.68167 0.95737 0.04200
H 	H 	0.53433 0.87457 0.98247 0.05000
H 	H 	0.58433 0.86767 0.02547 0.02800
C 	C 	0.51303 0.78317 0.93852 -0.05100
C 	C 	0.55753 0.79017 0.91297 0.04300
N 	N 	0.53023 0.79717 0.88817 -0.18700
C 	C 	0.45413 0.79817 0.88507 0.07500
N 	N 	0.40753 0.79167 0.90867 -0.11100
C 	C 	0.43483 0.78467 0.93347 0.04000
H 	H 	0.40353 0.78057 0.94887 0.02300
H 	H 	0.43613 0.80347 0.86777 0.02500
H 	H 	0.60813 0.78997 0.91317 0.03000
C 	C 	0.63393 0.74807 0.99417 -0.03200
C 	C 	0.60433 0.75277 0.96827 -0.08000
C 	C 	0.51463 0.80067 0.98867 -0.02700
C 	C 	0.54453 0.79637 0.01457 0.01600
H 	H 	0.67333 0.73067 0.99607 0.04800
H 	H 	0.62333 0.73767 0.95297 0.06700
H 	H 	0.47533 0.81827 0.98687 0.03300
H 	H 	0.52533 0.81137 0.02987 0.01600
Cu	Cu	0.93780 0.49270 0.52000 0.92800
C 	C 	0.92370 0.37640 0.47370 0.30000
O 	O 	0.90590 0.39350 0.49770 -0.38100
O 	O 	0.99110 0.43210 0.46100 -0.33100
C 	C 	0.83790 0.20020 0.42230 0.15700
C 	C 	0.76280 0.13980 0.43490 -0.12200
H 	H 	0.72820 0.08920 0.42610 0.08900
C 	C 	0.74180 0.15580 0.46070 -0.00500
C 	C 	0.79420 0.23220 0.47390 -0.05300
H 	H 	0.78080 0.24280 0.49100 0.08300
C 	C 	0.86950 0.29260 0.46136 -0.00900
C 	C 	0.89110 0.27660 0.43550 -0.12900
H 	H 	0.94060 0.31660 0.42720 0.11300
C 	C 	0.66030 0.10300 0.47690 0.30100
O 	O 	0.65560 0.12460 0.50180 -0.39800
O 	O 	0.60480 0.02880 0.46780 -0.38400
N 	N 	0.83940 0.15980 0.39710 -0.24400
C 	C 	0.90100 0.20500 0.37930 0.22800
O 	O 	0.95100 0.28100 0.38210 -0.24300
H 	H 	0.80570 0.10670 0.39260 0.12900
C 	C 	0.89660 0.16750 0.35065 -0.05800
C 	C 	0.95270 0.21760 0.33010 0.02100
C 	C 	0.94830 0.18330 0.30430 -0.02500
C 	C 	0.88800 0.09900 0.29890 0.06000
C 	C 	0.83200 0.04890 0.31940 -0.07200
C 	C 	0.83630 0.08310 0.34530 -0.03100
H 	H 	0.99240 0.27340 0.33370 0.02500
H 	H 	0.98500 0.21600 0.29070 0.04200
H 	H 	0.79210 0.99310 0.31580 0.05000
H 	H 	0.79900 0.05000 0.35880 0.02800
C 	C 	0.88350 0.06320 0.27185 -0.05100
C 	C 	0.87650 0.10070 0.24630 0.04300
N 	N 	0.86950 0.06640 0.22150 -0.18600
C 	C 	0.86850 0.98930 0.21840 0.07500
N 	N 	0.87500 0.94920 0.24200 -0.11100
C 	C 	0.88200 0.98350 0.26680 0.04000
H 	H 	0.88610 0.95630 0.28220 0.02300
H 	H 	0.86320 0.96600 0.20110 0.02500
H 	H 	0.87670 0.15150 0.24650 0.03000
C 	C 	0.91860 0.21920 0.32750 -0.03200
C 	C 	0.91390 0.18490 0.30160 -0.07900
C 	C 	0.86600 0.04730 0.32200 -0.02700
C 	C 	0.87030 0.08150 0.34790 0.01600
H 	H 	0.93600 0.27600 0.32940 0.04800
H 	H 	0.92900 0.21900 0.28630 0.06700
H 	H 	0.84840 0.99040 0.32020 0.03300
H 	H 	0.85530 0.04730 0.36320 0.01600
Cu	Cu	0.60447 0.82603 0.85333 0.92800
C 	C 	0.59037 0.70973 0.80703 0.30000
O 	O 	0.57257 0.72683 0.83103 -0.38100
O 	O 	0.65777 0.76543 0.79433 -0.33100
C 	C 	0.50457 0.53353 0.75563 0.15700
C 	C 	0.42947 0.47313 0.76823 -0.12200
H 	H 	0.39487 0.42253 0.75943 0.08900
C 	C 	0.40847 0.48913 0.79403 -0.00500
C 	C 	0.46087 0.56553 0.80723 -0.05300
H 	H 	0.44747 0.57613 0.82433 0.08300
C 	C 	0.53617 0.62593 0.79469 -0.00900
C 	C 	0.55777 0.60993 0.76883 -0.12900
H 	H 	0.60727 0.64993 0.76053 0.11300
C 	C 	0.32697 0.43633 0.81023 0.30100
O 	O 	0.32227 0.45793 0.83513 -0.39800
O 	O 	0.27147 0.36213 0.80113 -0.38400
N 	N 	0.50607 0.49313 0.73043 -0.24400
C 	C 	0.56767 0.53833 0.71263 0.22800
O 	O 	0.61767 0.61433 0.71543 -0.24300
H 	H 	0.47237 0.44003 0.72593 0.12900
C 	C 	0.56327 0.50083 0.68398 -0.05800
C 	C 	0.61937 0.55093 0.66343 0.02100
C 	C 	0.61497 0.51663 0.63763 -0.02400
C 	C 	0.55467 0.43233 0.63223 0.06000
C 	C 	0.49867 0.38223 0.65273 -0.07200
C 	C 	0.50297 0.41643 0.67863 -0.03100
H 	H 	0.65907 0.60673 0.66703 0.02400
H 	H 	0.65167 0.54933 0.62403 0.04200
H 	H 	0.45877 0.32643 0.64913 0.05000
H 	H 	0.46567 0.38333 0.69213 0.02800
C 	C 	0.55017 0.39653 0.60518 -0.05100
C 	C 	0.54317 0.43403 0.57963 0.04300
N 	N 	0.53617 0.39973 0.55483 -0.18700
C 	C 	0.53517 0.32263 0.55173 0.07500
N 	N 	0.54167 0.28253 0.57533 -0.11100
C 	C 	0.54867 0.31683 0.60013 0.04000
H 	H 	0.55277 0.28963 0.61553 0.02300
H 	H 	0.52987 0.29933 0.53443 0.02500
H 	H 	0.54337 0.48483 0.57983 0.03000
C 	C 	0.58527 0.55253 0.66083 -0.03200
C 	C 	0.58057 0.51823 0.63493 -0.08000
C 	C 	0.53267 0.38063 0.65533 -0.02700
C 	C 	0.53697 0.41483 0.68123 0.01600
H 	H 	0.60267 0.60933 0.66273 0.04800
H 	H 	0.59567 0.55233 0.61963 0.06700
H 	H 	0.51507 0.32373 0.65353 0.03300
H 	H 	0.52197 0.38063 0.69653 0.01600
Cu	Cu	0.27113 0.15937 0.18667 0.92800
C 	C 	0.25703 0.04307 0.14037 0.30000
O 	O 	0.23923 0.06017 0.16437 -0.38100
O 	O 	0.32443 0.09877 0.12767 -0.33100
C 	C 	0.17123 0.86687 0.08897 0.15700
C 	C 	0.09613 0.80647 0.10157 -0.12200
H 	H 	0.06153 0.75587 0.09277 0.08900
C 	C 	0.07513 0.82247 0.12737 -0.00500
C 	C 	0.12753 0.89887 0.14057 -0.05300
H 	H 	0.11413 0.90947 0.15767 0.08200
C 	C 	0.20283 0.95927 0.12803 -0.01000
C 	C 	0.22443 0.94327 0.10217 -0.12900
H 	H 	0.27393 0.98327 0.09387 0.11300
C 	C 	0.99363 0.76967 0.14357 0.30200
O 	O 	0.98893 0.79127 0.16847 -0.39800
O 	O 	0.93813 0.69547 0.13447 -0.38400
N 	N 	0.17273 0.82647 0.06377 -0.24400
C 	C 	0.23433 0.87167 0.04597 0.22800
O 	O 	0.28433 0.94767 0.04877 -0.24300
H 	H 	0.13903 0.77337 0.05927 0.12900
C 	C 	0.22993 0.83417 0.01732 -0.05900
C 	C 	0.28603 0.88427 0.99677 0.02100
C 	C 	0.28163 0.84997 0.97097 -0.02400
C 	C 	0.22133 0.76567 0.96557 0.06000
C 	C 	0.16533 0.71557 0.98607 -0.07200
C 	C 	0.16963 0.74977 0.01197 -0.03100
H 	H 	0.32573 0.94007 0.00037 0.02400
H 	H 	0.31833 0.88267 0.95737 0.04200
H 	H 	0.12543 0.65977 0.98247 0.05000
H 	H 	0.13233 0.71667 0.02547 0.02800
C 	C 	0.21683 0.72987 0.93852 -0.05100
C 	C 	0.20983 0.76737 0.91297 0.04300
N 	N 	0.20283 0.73307 0.88817 -0.18700
C 	C 	0.20183 0.65597 0.88507 0.07500
N 	N 	0.20833 0.61587 0.90867 -0.11100
C 	C 	0.21533 0.65017 0.93347 0.04000
H 	H 	0.21943 0.62297 0.94887 0.02300
H 	H 	0.19653 0.63267 0.86777 0.02500
H 	H 	0.21003 0.81817 0.91317 0.03000
C 	C 	0.25193 0.88587 0.99417 -0.03200
C 	C 	0.24723 0.85157 0.96827 -0.08000
C 	C 	0.19933 0.71397 0.98867 -0.02700
C 	C 	0.20363 0.74817 0.01457 0.01600
H 	H 	0.26933 0.94267 0.99607 0.04800
H 	H 	0.26233 0.88567 0.95297 0.06700
H 	H 	0.18173 0.65707 0.98687 0.03300
H 	H 	0.18863 0.71397 0.02987 0.01600
Cu	Cu	0.44510 0.50730 0.48000 0.92800
C 	C 	0.54730 0.62360 0.52630 0.30000
O 	O 	0.51240 0.60650 0.50230 -0.38100
O 	O 	0.55900 0.56790 0.53900 -0.33100
C 	C 	0.63770 0.79980 0.57770 0.15700
C 	C 	0.62300 0.86020 0.56510 -0.12200
H 	H 	0.63900 0.91080 0.57390 0.08900
C 	C 	0.58600 0.84420 0.53930 -0.00500
C 	C 	0.56200 0.76780 0.52610 -0.05300
H 	H 	0.53800 0.75720 0.50900 0.08300
C 	C 	0.57690 0.70740 0.53864 -0.00900
C 	C 	0.61450 0.72340 0.56450 -0.12900
H 	H 	0.62400 0.68340 0.57280 0.11300
C 	C 	0.55730 0.89700 0.52310 0.30100
O 	O 	0.53100 0.87540 0.49820 -0.39800
O 	O 	0.57600 0.97120 0.53220 -0.38400
N 	N 	0.67960 0.84020 0.60290 -0.24400
C 	C 	0.69600 0.79500 0.62070 0.22800
O 	O 	0.67000 0.71900 0.61790 -0.24300
H 	H 	0.69900 0.89330 0.60740 0.12900
C 	C 	0.72910 0.83250 0.64935 -0.05800
C 	C 	0.73510 0.78240 0.66990 0.02100
C 	C 	0.76500 0.81670 0.69570 -0.02400
C 	C 	0.78900 0.90100 0.70110 0.05900
C 	C 	0.78310 0.95110 0.68060 -0.07200
C 	C 	0.75320 0.91690 0.65470 -0.03100
H 	H 	0.71900 0.72660 0.66630 0.02400
H 	H 	0.76900 0.78400 0.70930 0.04200
H 	H 	0.79900 0.00690 0.68420 0.05000
H 	H 	0.74900 0.95000 0.64120 0.02800
C 	C 	0.82030 0.93680 0.72815 -0.05000
C 	C 	0.77580 0.89930 0.75370 0.04300
N 	N 	0.80310 0.93360 0.77850 -0.18600
C 	C 	0.87920 0.01070 0.78160 0.07500
N 	N 	0.92580 0.05080 0.75800 -0.11100
C 	C 	0.89850 0.01650 0.73320 0.04000
H 	H 	0.92980 0.04370 0.71780 0.02300
H 	H 	0.89720 0.03400 0.79890 0.02500
H 	H 	0.72520 0.84850 0.75350 0.03000
C 	C 	0.69940 0.78080 0.67250 -0.03300
C 	C 	0.72900 0.81510 0.69840 -0.07900
C 	C 	0.81870 0.95270 0.67800 -0.02600
C 	C 	0.78880 0.91850 0.65210 0.01600
H 	H 	0.66000 0.72400 0.67060 0.04800
H 	H 	0.71000 0.78100 0.71370 0.06700
H 	H 	0.85800 0.00960 0.67980 0.03300
H 	H 	0.80800 0.95270 0.63680 0.01600
Cu	Cu	0.11177 0.84063 0.81333 0.92800
C 	C 	0.21397 0.95693 0.85963 0.30000
O 	O 	0.17907 0.93983 0.83563 -0.38100
O 	O 	0.22567 0.90123 0.87233 -0.33100
C 	C 	0.30437 0.13313 0.91103 0.15700
C 	C 	0.28967 0.19353 0.89843 -0.12200
H 	H 	0.30567 0.24413 0.90723 0.08900
C 	C 	0.25267 0.17753 0.87263 -0.00500
C 	C 	0.22867 0.10113 0.85943 -0.05300
H 	H 	0.20467 0.09053 0.84233 0.08200
C 	C 	0.24357 0.04073 0.87197 -0.01000
C 	C 	0.28117 0.05673 0.89783 -0.12900
H 	H 	0.29067 0.01673 0.90613 0.11300
C 	C 	0.22397 0.23033 0.85643 0.30100
O 	O 	0.19767 0.20873 0.83153 -0.39800
O 	O 	0.24267 0.30453 0.86553 -0.38400
N 	N 	0.34627 0.17353 0.93623 -0.24400
C 	C 	0.36267 0.12833 0.95403 0.22800
O 	O 	0.33667 0.05233 0.95123 -0.24300
H 	H 	0.36567 0.22663 0.94073 0.12900
C 	C 	0.39577 0.16583 0.98268 -0.05800
C 	C 	0.40177 0.11573 0.00323 0.02100
C 	C 	0.43167 0.15003 0.02903 -0.02400
C 	C 	0.45567 0.23433 0.03443 0.06000
C 	C 	0.44977 0.28443 0.01393 -0.07200
C 	C 	0.41987 0.25023 0.98803 -0.03100
H 	H 	0.38567 0.05993 0.99963 0.02400
H 	H 	0.43567 0.11733 0.04263 0.04200
H 	H 	0.46567 0.34023 0.01753 0.05000
H 	H 	0.41567 0.28333 0.97453 0.02800
C 	C 	0.48697 0.27013 0.06148 -0.05100
C 	C 	0.44247 0.23263 0.08703 0.04300
N 	N 	0.46977 0.26693 0.11183 -0.18700
C 	C 	0.54587 0.34403 0.11493 0.07500
N 	N 	0.59247 0.38413 0.09133 -0.11100
C 	C 	0.56517 0.34983 0.06653 0.04000
H 	H 	0.59647 0.37703 0.05113 0.02300
H 	H 	0.56387 0.36733 0.13223 0.02500
H 	H 	0.39187 0.18183 0.08683 0.03000
C 	C 	0.36607 0.11413 0.00583 -0.03200
C 	C 	0.39567 0.14843 0.03173 -0.08000
C 	C 	0.48537 0.28603 0.01133 -0.02700
C 	C 	0.45547 0.25183 0.98543 0.01600
H 	H 	0.32667 0.05733 0.00393 0.04800
H 	H 	0.37667 0.11433 0.04703 0.06700
H 	H 	0.52467 0.34293 0.01313 0.03300
H 	H 	0.47467 0.28603 0.97013 0.01600
Cu	Cu	0.77843 0.17397 0.14667 0.92800
C 	C 	0.88063 0.29027 0.19297 0.30000
O 	O 	0.84573 0.27317 0.16897 -0.38100
O 	O 	0.89233 0.23457 0.20567 -0.33100
C 	C 	0.97103 0.46647 0.24437 0.15800
C 	C 	0.95633 0.52687 0.23177 -0.12200
H 	H 	0.97233 0.57747 0.24057 0.09000
C 	C 	0.91933 0.51087 0.20597 -0.00500
C 	C 	0.89533 0.43447 0.19277 -0.05400
H 	H 	0.87133 0.42387 0.17567 0.08300
C 	C 	0.91023 0.37407 0.20531 -0.00900
C 	C 	0.94783 0.39007 0.23117 -0.12900
H 	H 	0.95733 0.35007 0.23947 0.11300
C 	C 	0.89063 0.56367 0.18977 0.30100
O 	O 	0.86433 0.54207 0.16487 -0.39800
O 	O 	0.90933 0.63787 0.19887 -0.38400
N 	N 	0.01293 0.50687 0.26957 -0.24400
C 	C 	0.02933 0.46167 0.28737 0.22800
O 	O 	0.00333 0.38567 0.28457 -0.24300
H 	H 	0.03233 0.55997 0.27407 0.12900
C 	C 	0.06243 0.49917 0.31602 -0.05800
C 	C 	0.06843 0.44907 0.33657 0.01900
C 	C 	0.09833 0.48337 0.36237 -0.02600
C 	C 	0.12233 0.56767 0.36777 0.06000
C 	C 	0.11643 0.61777 0.34727 -0.07100
C 	C 	0.08653 0.58357 0.32137 -0.03000
H 	H 	0.05233 0.39327 0.33297 0.02500
H 	H 	0.10233 0.45067 0.37597 0.04300
H 	H 	0.13233 0.67357 0.35087 0.05000
H 	H 	0.08233 0.61667 0.30787 0.02700
C 	C 	0.15363 0.60347 0.39482 -0.05100
C 	C 	0.10913 0.56597 0.42037 0.04300
N 	N 	0.13643 0.60027 0.44517 -0.18700
C 	C 	0.21253 0.67737 0.44827 0.07500
N 	N 	0.25913 0.71747 0.42467 -0.11100
C 	C 	0.23183 0.68317 0.39987 0.04000
H 	H 	0.26313 0.71037 0.38447 0.02300
H 	H 	0.23053 0.70067 0.46557 0.02500
H 	H 	0.05853 0.51517 0.42017 0.03000
C 	C 	0.03273 0.44747 0.33917 -0.03000
C 	C 	0.06233 0.48177 0.36507 -0.07800
C 	C 	0.15203 0.61937 0.34467 -0.02800
C 	C 	0.12213 0.58517 0.31877 0.01500
H 	H 	0.99333 0.39067 0.33727 0.04800
H 	H 	0.04333 0.44767 0.38037 0.06700
H 	H 	0.19133 0.67627 0.34647 0.03400
H 	H 	0.14133 0.61937 0.30347 0.01600
Cu	Cu	0.06220 0.55490 0.48000 0.92800
C 	C 	0.07630 0.45270 0.52630 0.30000
O 	O 	0.09410 0.48760 0.50230 -0.38100
O 	O 	0.00890 0.44100 0.53900 -0.33100
C 	C 	0.16210 0.36230 0.57770 0.15700
C 	C 	0.23720 0.37700 0.56510 -0.12200
H 	H 	0.27180 0.36100 0.57390 0.08900
C 	C 	0.25820 0.41400 0.53930 -0.00500
C 	C 	0.20580 0.43800 0.52610 -0.05300
H 	H 	0.21920 0.46200 0.50900 0.08300
C 	C 	0.13050 0.42310 0.53864 -0.00900
C 	C 	0.10890 0.38550 0.56450 -0.12900
H 	H 	0.05940 0.37600 0.57280 0.11300
C 	C 	0.33970 0.44270 0.52310 0.30100
O 	O 	0.34440 0.46900 0.49820 -0.39800
O 	O 	0.39520 0.42400 0.53220 -0.38400
N 	N 	0.16060 0.32040 0.60290 -0.24400
C 	C 	0.09900 0.30400 0.62070 0.22800
O 	O 	0.04900 0.33000 0.61790 -0.24300
H 	H 	0.19430 0.30100 0.60740 0.12900
C 	C 	0.10340 0.27090 0.64935 -0.05800
C 	C 	0.04730 0.26490 0.66990 0.02100
C 	C 	0.05170 0.23500 0.69570 -0.02500
C 	C 	0.11200 0.21100 0.70110 0.06000
C 	C 	0.16800 0.21690 0.68060 -0.07200
C 	C 	0.16370 0.24680 0.65470 -0.03100
H 	H 	0.00760 0.28100 0.66630 0.02500
H 	H 	0.01500 0.23100 0.70930 0.04200
H 	H 	0.20790 0.20100 0.68420 0.05000
H 	H 	0.20100 0.25100 0.64120 0.02800
C 	C 	0.11650 0.17970 0.72815 -0.05100
C 	C 	0.12350 0.22420 0.75370 0.04300
N 	N 	0.13050 0.19690 0.77850 -0.18700
C 	C 	0.13150 0.12080 0.78160 0.07500
N 	N 	0.12500 0.07420 0.75800 -0.11100
C 	C 	0.11800 0.10150 0.73320 0.04000
H 	H 	0.11390 0.07020 0.71780 0.02300
H 	H 	0.13680 0.10280 0.79890 0.02500
H 	H 	0.12330 0.27480 0.75350 0.03000
C 	C 	0.08140 0.30060 0.67250 -0.03200
C 	C 	0.08610 0.27100 0.69840 -0.07900
C 	C 	0.13400 0.18130 0.67800 -0.02700
C 	C 	0.12970 0.21120 0.65210 0.01600
H 	H 	0.06400 0.34000 0.67060 0.04800
H 	H 	0.07100 0.29000 0.71370 0.06700
H 	H 	0.15160 0.14200 0.67980 0.03300
H 	H 	0.14470 0.19200 0.63680 0.01600
Cu	Cu	0.72887 0.88823 0.81333 0.92800
C 	C 	0.74297 0.78603 0.85963 0.30000
O 	O 	0.76077 0.82093 0.83563 -0.38100
O 	O 	0.67557 0.77433 0.87233 -0.33100
C 	C 	0.82877 0.69563 0.91103 0.15700
C 	C 	0.90387 0.71033 0.89843 -0.12200
H 	H 	0.93847 0.69433 0.90723 0.08900
C 	C 	0.92487 0.74733 0.87263 -0.00500
C 	C 	0.87247 0.77133 0.85943 -0.05300
H 	H 	0.88587 0.79533 0.84233 0.08200
C 	C 	0.79717 0.75643 0.87197 -0.00900
C 	C 	0.77557 0.71883 0.89783 -0.12900
H 	H 	0.72607 0.70933 0.90613 0.11300
C 	C 	0.00637 0.77603 0.85643 0.30200
O 	O 	0.01107 0.80233 0.83153 -0.39800
O 	O 	0.06187 0.75733 0.86553 -0.38400
N 	N 	0.82727 0.65373 0.93623 -0.24400
C 	C 	0.76567 0.63733 0.95403 0.22800
O 	O 	0.71567 0.66333 0.95123 -0.24300
H 	H 	0.86097 0.63433 0.94073 0.12900
C 	C 	0.77007 0.60423 0.98268 -0.05800
C 	C 	0.71397 0.59823 0.00323 0.02100
C 	C 	0.71837 0.56833 0.02903 -0.02400
C 	C 	0.77867 0.54433 0.03443 0.06000
C 	C 	0.83467 0.55023 0.01393 -0.07200
C 	C 	0.83037 0.58013 0.98803 -0.03100
H 	H 	0.67427 0.61433 0.99963 0.02400
H 	H 	0.68167 0.56433 0.04263 0.04200
H 	H 	0.87457 0.53433 0.01753 0.05000
H 	H 	0.86767 0.58433 0.97453 0.02800
C 	C 	0.78317 0.51303 0.06148 -0.05100
C 	C 	0.79017 0.55753 0.08703 0.04300
N 	N 	0.79717 0.53023 0.11183 -0.18700
C 	C 	0.79817 0.45413 0.11493 0.07500
N 	N 	0.79167 0.40753 0.09133 -0.11100
C 	C 	0.78467 0.43483 0.06653 0.04000
H 	H 	0.78057 0.40353 0.05113 0.02300
H 	H 	0.80347 0.43613 0.13223 0.02500
H 	H 	0.78997 0.60813 0.08683 0.03000
C 	C 	0.74807 0.63393 0.00583 -0.03200
C 	C 	0.75277 0.60433 0.03173 -0.08000
C 	C 	0.80067 0.51463 0.01133 -0.02700
C 	C 	0.79637 0.54453 0.98543 0.01600
H 	H 	0.73067 0.67333 0.00393 0.04800
H 	H 	0.73767 0.62333 0.04703 0.06700
H 	H 	0.81827 0.47533 0.01313 0.03300
H 	H 	0.81137 0.52533 0.97013 0.01600
Cu	Cu	0.39553 0.22157 0.14667 0.92800
C 	C 	0.40963 0.11937 0.19297 0.30000
O 	O 	0.42743 0.15427 0.16897 -0.38100
O 	O 	0.34223 0.10767 0.20567 -0.33100
C 	C 	0.49543 0.02897 0.24437 0.15800
C 	C 	0.57053 0.04367 0.23177 -0.12200
H 	H 	0.60513 0.02767 0.24057 0.08900
C 	C 	0.59153 0.08067 0.20597 -0.00500
C 	C 	0.53913 0.10467 0.19277 -0.05400
H 	H 	0.55253 0.12867 0.17567 0.08300
C 	C 	0.46383 0.08977 0.20531 -0.00900
C 	C 	0.44223 0.05217 0.23117 -0.12900
H 	H 	0.39273 0.04267 0.23947 0.11300
C 	C 	0.67303 0.10937 0.18977 0.30100
O 	O 	0.67773 0.13567 0.16487 -0.39800
O 	O 	0.72853 0.09067 0.19887 -0.38400
N 	N 	0.49393 0.98707 0.26957 -0.24400
C 	C 	0.43233 0.97067 0.28737 0.22800
O 	O 	0.38233 0.99667 0.28457 -0.24300
H 	H 	0.52763 0.96767 0.27407 0.12900
C 	C 	0.43673 0.93757 0.31602 -0.05800
C 	C 	0.38063 0.93157 0.33657 0.01900
C 	C 	0.38503 0.90167 0.36237 -0.02600
C 	C 	0.44533 0.87767 0.36777 0.06000
C 	C 	0.50133 0.88357 0.34727 -0.07100
C 	C 	0.49703 0.91347 0.32137 -0.03000
H 	H 	0.34093 0.94767 0.33297 0.02500
H 	H 	0.34833 0.89767 0.37597 0.04300
H 	H 	0.54123 0.86767 0.35087 0.05000
H 	H 	0.53433 0.91767 0.30787 0.02700
C 	C 	0.44983 0.84637 0.39482 -0.05100
C 	C 	0.45683 0.89087 0.42037 0.04300
N 	N 	0.46383 0.86357 0.44517 -0.18700
C 	C 	0.46483 0.78747 0.44827 0.07500
N 	N 	0.45833 0.74087 0.42467 -0.11100
C 	C 	0.45133 0.76817 0.39987 0.04000
H 	H 	0.44723 0.73687 0.38447 0.02300
H 	H 	0.47013 0.76947 0.46557 0.02500
H 	H 	0.45663 0.94147 0.42017 0.03000
C 	C 	0.41473 0.96727 0.33917 -0.03100
C 	C 	0.41943 0.93767 0.36507 -0.07800
C 	C 	0.46733 0.84797 0.34467 -0.02800
C 	C 	0.46303 0.87787 0.31877 0.01500
H 	H 	0.39733 0.00667 0.33727 0.04800
H 	H 	0.40433 0.95667 0.38037 0.06700
H 	H 	0.48493 0.80867 0.34647 0.03300
H 	H 	0.47803 0.85867 0.30347 0.01600
Cu	Cu	0.49270 0.93780 0.48000 0.92800
C 	C 	0.37640 0.92370 0.52630 0.30000
O 	O 	0.39350 0.90590 0.50230 -0.38100
O 	O 	0.43210 0.99110 0.53900 -0.33100
C 	C 	0.20020 0.83790 0.57770 0.15700
C 	C 	0.13980 0.76280 0.56510 -0.12200
H 	H 	0.08920 0.72820 0.57390 0.08900
C 	C 	0.15580 0.74180 0.53930 -0.00500
C 	C 	0.23220 0.79420 0.52610 -0.05300
H 	H 	0.24280 0.78080 0.50900 0.08300
C 	C 	0.29260 0.86950 0.53864 -0.00900
C 	C 	0.27660 0.89110 0.56450 -0.12900
H 	H 	0.31660 0.94060 0.57280 0.11300
C 	C 	0.10300 0.66030 0.52310 0.30100
O 	O 	0.12460 0.65560 0.49820 -0.39800
O 	O 	0.02880 0.60480 0.53220 -0.38400
N 	N 	0.15980 0.83940 0.60290 -0.24400
C 	C 	0.20500 0.90100 0.62070 0.22800
O 	O 	0.28100 0.95100 0.61790 -0.24300
H 	H 	0.10670 0.80570 0.60740 0.12900
C 	C 	0.16750 0.89660 0.64935 -0.05800
C 	C 	0.21760 0.95270 0.66990 0.02100
C 	C 	0.18330 0.94830 0.69570 -0.02500
C 	C 	0.09900 0.88800 0.70110 0.06000
C 	C 	0.04890 0.83200 0.68060 -0.07200
C 	C 	0.08310 0.83630 0.65470 -0.03100
H 	H 	0.27340 0.99240 0.66630 0.02500
H 	H 	0.21600 0.98500 0.70930 0.04200
H 	H 	0.99310 0.79210 0.68420 0.05000
H 	H 	0.05000 0.79900 0.64120 0.02800
C 	C 	0.06320 0.88350 0.72815 -0.05100
C 	C 	0.10070 0.87650 0.75370 0.04300
N 	N 	0.06640 0.86950 0.77850 -0.18600
C 	C 	0.98930 0.86850 0.78160 0.07500
N 	N 	0.94920 0.87500 0.75800 -0.11100
C 	C 	0.98350 0.88200 0.73320 0.04000
H 	H 	0.95630 0.88610 0.71780 0.02300
H 	H 	0.96600 0.86320 0.79890 0.02500
H 	H 	0.15150 0.87670 0.75350 0.03000
C 	C 	0.21920 0.91860 0.67250 -0.03200
C 	C 	0.18490 0.91390 0.69840 -0.07900
C 	C 	0.04730 0.86600 0.67800 -0.02700
C 	C 	0.08150 0.87030 0.65210 0.01600
H 	H 	0.27600 0.93600 0.67060 0.04800
H 	H 	0.21900 0.92900 0.71370 0.06700
H 	H 	0.99040 0.84840 0.67980 0.03300
H 	H 	0.04730 0.85530 0.63680 0.01600
Cu	Cu	0.15937 0.27113 0.81333 0.92800
C 	C 	0.04307 0.25703 0.85963 0.30000
O 	O 	0.06017 0.23923 0.83563 -0.38100
O 	O 	0.09877 0.32443 0.87233 -0.33100
C 	C 	0.86687 0.17123 0.91103 0.15700
C 	C 	0.80647 0.09613 0.89843 -0.12200
H 	H 	0.75587 0.06153 0.90723 0.08900
C 	C 	0.82247 0.07513 0.87263 -0.00500
C 	C 	0.89887 0.12753 0.85943 -0.05300
H 	H 	0.90947 0.11413 0.84233 0.08200
C 	C 	0.95927 0.20283 0.87197 -0.01000
C 	C 	0.94327 0.22443 0.89783 -0.12900
H 	H 	0.98327 0.27393 0.90613 0.11300
C 	C 	0.76967 0.99363 0.85643 0.30200
O 	O 	0.79127 0.98893 0.83153 -0.39800
O 	O 	0.69547 0.93813 0.86553 -0.38400
N 	N 	0.82647 0.17273 0.93623 -0.24400
C 	C 	0.87167 0.23433 0.95403 0.22800
O 	O 	0.94767 0.28433 0.95123 -0.24300
H 	H 	0.77337 0.13903 0.94073 0.12900
C 	C 	0.83417 0.22993 0.98268 -0.05900
C 	C 	0.88427 0.28603 0.00323 0.02100
C 	C 	0.84997 0.28163 0.02903 -0.02400
C 	C 	0.76567 0.22133 0.03443 0.06000
C 	C 	0.71557 0.16533 0.01393 -0.07200
C 	C 	0.74977 0.16963 0.98803 -0.03100
H 	H 	0.94007 0.32573 0.99963 0.02400
H 	H 	0.88267 0.31833 0.04263 0.04200
H 	H 	0.65977 0.12543 0.01753 0.05000
H 	H 	0.71667 0.13233 0.97453 0.02800
C 	C 	0.72987 0.21683 0.06148 -0.05100
C 	C 	0.76737 0.20983 0.08703 0.04300
N 	N 	0.73307 0.20283 0.11183 -0.18700
C 	C 	0.65597 0.20183 0.11493 0.07500
N 	N 	0.61587 0.20833 0.09133 -0.11100
C 	C 	0.65017 0.21533 0.06653 0.04000
H 	H 	0.62297 0.21943 0.05113 0.02300
H 	H 	0.63267 0.19653 0.13223 0.02500
H 	H 	0.81817 0.21003 0.08683 0.03000
C 	C 	0.88587 0.25193 0.00583 -0.03200
C 	C 	0.85157 0.24723 0.03173 -0.08000
C 	C 	0.71397 0.19933 0.01133 -0.02700
C 	C 	0.74817 0.20363 0.98543 0.01600
H 	H 	0.94267 0.26933 0.00393 0.04800
H 	H 	0.88567 0.26233 0.04703 0.06700
H 	H 	0.65707 0.18173 0.01313 0.03300
H 	H 	0.71397 0.18863 0.97013 0.01600
Cu	Cu	0.82603 0.60447 0.14667 0.92800
C 	C 	0.70973 0.59037 0.19297 0.30000
O 	O 	0.72683 0.57257 0.16897 -0.38100
O 	O 	0.76543 0.65777 0.20567 -0.33100
C 	C 	0.53353 0.50457 0.24437 0.15700
C 	C 	0.47313 0.42947 0.23177 -0.12200
H 	H 	0.42253 0.39487 0.24057 0.08900
C 	C 	0.48913 0.40847 0.20597 -0.00500
C 	C 	0.56553 0.46087 0.19277 -0.05300
H 	H 	0.57613 0.44747 0.17567 0.08300
C 	C 	0.62593 0.53617 0.20531 -0.00900
C 	C 	0.60993 0.55777 0.23117 -0.12900
H 	H 	0.64993 0.60727 0.23947 0.11300
C 	C 	0.43633 0.32697 0.18977 0.30100
O 	O 	0.45793 0.32227 0.16487 -0.39800
O 	O 	0.36213 0.27147 0.19887 -0.38400
N 	N 	0.49313 0.50607 0.26957 -0.24400
C 	C 	0.53833 0.56767 0.28737 0.22800
O 	O 	0.61433 0.61767 0.28457 -0.24300
H 	H 	0.44003 0.47237 0.27407 0.12900
C 	C 	0.50083 0.56327 0.31602 -0.05800
C 	C 	0.55093 0.61937 0.33657 0.02100
C 	C 	0.51663 0.61497 0.36237 -0.02400
C 	C 	0.43233 0.55467 0.36777 0.06000
C 	C 	0.38223 0.49867 0.34727 -0.07200
C 	C 	0.41643 0.50297 0.32137 -0.03100
H 	H 	0.60673 0.65907 0.33297 0.02400
H 	H 	0.54933 0.65167 0.37597 0.04200
H 	H 	0.32643 0.45877 0.35087 0.05000
H 	H 	0.38333 0.46567 0.30787 0.02800
C 	C 	0.39653 0.55017 0.39482 -0.05100
C 	C 	0.43403 0.54317 0.42037 0.04300
N 	N 	0.39973 0.53617 0.44517 -0.18700
C 	C 	0.32263 0.53517 0.44827 0.07500
N 	N 	0.28253 0.54167 0.42467 -0.11100
C 	C 	0.31683 0.54867 0.39987 0.04000
H 	H 	0.28963 0.55277 0.38447 0.02300
H 	H 	0.29933 0.52987 0.46557 0.02500
H 	H 	0.48483 0.54337 0.42017 0.03000
C 	C 	0.55253 0.58527 0.33917 -0.03200
C 	C 	0.51823 0.58057 0.36507 -0.08000
C 	C 	0.38063 0.53267 0.34467 -0.02700
C 	C 	0.41483 0.53697 0.31877 0.01600
H 	H 	0.60933 0.60267 0.33727 0.04800
H 	H 	0.55233 0.59567 0.38037 0.06700
H 	H 	0.32373 0.51507 0.34647 0.03300
H 	H 	0.38063 0.52197 0.30347 0.01600
