data_crystal

_cell_length_a 18.15680
_cell_length_b 18.15680
_cell_length_c 48.66030
_cell_angle_alpha 90.00000
_cell_angle_beta  90.00000
_cell_angle_gamma 120.00000

_symmetry_space_group_name_	'P 1'
_symmetry_space_group_name_H-M	'P 1'

loop_
_symmetry_equiv_pos_as_xyz
  x,y,z

loop_
_atom_site_label
_atom_site_type_symbol
_atom_site_fract_x
_atom_site_fract_y
_atom_site_fract_z
_atom_site_charge
Cu	Cu	0.51130 0.44710 0.52000 0.93300
C 	C 	0.62540 0.54560 0.47210 0.32100
O 	O 	0.60900 0.51380 0.49620 -0.39100
O 	O 	0.56870 0.55100 0.45850 -0.33900
C 	C 	0.80510 0.63900 0.42260 0.14700
C 	C 	0.86760 0.62900 0.43580 -0.11200
H 	H 	0.91930 0.64700 0.42740 0.08200
C 	C 	0.85190 0.59200 0.46170 -0.02200
C 	C 	0.77380 0.56400 0.47440 -0.03900
H 	H 	0.76350 0.54000 0.49150 0.07700
C 	C 	0.71140 0.57410 0.46110 -0.02300
C 	C 	0.72710 0.61120 0.43520 -0.12000
H 	H 	0.68570 0.61800 0.42640 0.10800
C 	C 	0.90750 0.56790 0.47910 0.33600
O 	O 	0.87660 0.53100 0.50180 -0.40400
O 	O 	0.97970 0.58100 0.47120 -0.40700
N 	N 	0.84040 0.68040 0.39680 -0.24200
C 	C 	0.79500 0.69700 0.37890 0.23200
O 	O 	0.71900 0.66900 0.38120 -0.24500
H 	H 	0.89350 0.69900 0.39240 0.12700
C 	C 	0.83230 0.72970 0.35070 -0.06300
C 	C 	0.78150 0.73300 0.33000 0.00500
C 	C 	0.81500 0.76300 0.30410 -0.04200
C 	C 	0.90000 0.78950 0.29890 0.05800
C 	C 	0.95120 0.78600 0.31960 -0.05700
C 	C 	0.91720 0.75600 0.34550 -0.01700
H 	H 	0.72530 0.71600 0.33350 0.02800
H 	H 	0.78200 0.76600 0.29040 0.04500
H 	H 	0.00740 0.80300 0.31610 0.04300
H 	H 	0.95090 0.75400 0.35920 0.02100
C 	C 	0.93560 0.82050 0.27200 -0.05300
C 	C 	0.89880 0.77880 0.24580 0.04000
N 	N 	0.93200 0.80670 0.22090 -0.19800
C 	C 	0.00600 0.87930 0.21950 0.10200
N 	N 	0.04900 0.92620 0.24110 -0.12100
C 	C 	0.01570 0.89830 0.26600 0.03900
H 	H 	0.04370 0.92900 0.28140 0.02300
H 	H 	0.03100 0.90000 0.20270 0.01300
H 	H 	0.84790 0.72850 0.24550 0.03000
C 	C 	0.78040 0.70050 0.32770 -0.01400
C 	C 	0.81400 0.73000 0.30170 -0.06100
C 	C 	0.95230 0.81870 0.32200 -0.03900
C 	C 	0.91830 0.78880 0.34790 0.00400
H 	H 	0.72350 0.66100 0.32950 0.04200
H 	H 	0.78000 0.71100 0.28650 0.06100
H 	H 	0.00920 0.85800 0.32010 0.03700
H 	H 	0.95270 0.80800 0.36320 0.01900
Cu	Cu	0.17797 0.78043 0.85333 0.93400
C 	C 	0.29207 0.87893 0.80543 0.32200
O 	O 	0.27567 0.84713 0.82953 -0.39000
O 	O 	0.23537 0.88433 0.79183 -0.33800
C 	C 	0.47177 0.97233 0.75593 0.14900
C 	C 	0.53427 0.96233 0.76913 -0.11200
H 	H 	0.58597 0.98033 0.76073 0.08300
C 	C 	0.51857 0.92533 0.79503 -0.02100
C 	C 	0.44047 0.89733 0.80773 -0.03800
H 	H 	0.43017 0.87333 0.82483 0.07800
C 	C 	0.37807 0.90743 0.79443 -0.02200
C 	C 	0.39377 0.94453 0.76853 -0.11900
H 	H 	0.35237 0.95133 0.75973 0.10900
C 	C 	0.57417 0.90123 0.81243 0.33700
O 	O 	0.54327 0.86433 0.83513 -0.40300
O 	O 	0.64637 0.91433 0.80453 -0.40600
N 	N 	0.50707 0.01373 0.73013 -0.24200
C 	C 	0.46167 0.03033 0.71223 0.23300
O 	O 	0.38567 0.00233 0.71453 -0.24400
H 	H 	0.56017 0.03233 0.72573 0.12800
C 	C 	0.49897 0.06303 0.68403 -0.06300
C 	C 	0.44817 0.06633 0.66333 0.00500
C 	C 	0.48167 0.09633 0.63743 -0.04200
C 	C 	0.56667 0.12283 0.63223 0.06000
C 	C 	0.61787 0.11933 0.65293 -0.05700
C 	C 	0.58387 0.08933 0.67883 -0.01500
H 	H 	0.39197 0.04933 0.66683 0.02900
H 	H 	0.44867 0.09933 0.62373 0.04700
H 	H 	0.67407 0.13633 0.64943 0.04400
H 	H 	0.61757 0.08733 0.69253 0.02100
C 	C 	0.60227 0.15383 0.60533 -0.05200
C 	C 	0.56547 0.11213 0.57913 0.04100
N 	N 	0.59867 0.14003 0.55423 -0.19700
C 	C 	0.67267 0.21263 0.55283 0.10400
N 	N 	0.71567 0.25953 0.57443 -0.12100
C 	C 	0.68237 0.23163 0.59933 0.04100
H 	H 	0.71037 0.26233 0.61473 0.02400
H 	H 	0.69767 0.23333 0.53603 0.01400
H 	H 	0.51457 0.06183 0.57883 0.03100
C 	C 	0.44707 0.03383 0.66103 -0.01200
C 	C 	0.48067 0.06333 0.63503 -0.06100
C 	C 	0.61897 0.15203 0.65533 -0.04000
C 	C 	0.58497 0.12213 0.68123 0.00400
H 	H 	0.39017 0.99433 0.66283 0.04200
H 	H 	0.44667 0.04433 0.61983 0.06100
H 	H 	0.67587 0.19133 0.65343 0.03700
H 	H 	0.61937 0.14133 0.69653 0.01900
Cu	Cu	0.84463 0.11377 0.18667 0.93400
C 	C 	0.95873 0.21227 0.13877 0.32200
O 	O 	0.94233 0.18047 0.16287 -0.39000
O 	O 	0.90203 0.21767 0.12517 -0.33800
C 	C 	0.13843 0.30567 0.08927 0.14800
C 	C 	0.20093 0.29567 0.10247 -0.11100
H 	H 	0.25263 0.31367 0.09407 0.08300
C 	C 	0.18523 0.25867 0.12837 -0.02100
C 	C 	0.10713 0.23067 0.14107 -0.03800
H 	H 	0.09683 0.20667 0.15817 0.07800
C 	C 	0.04473 0.24077 0.12777 -0.02200
C 	C 	0.06043 0.27787 0.10187 -0.11900
H 	H 	0.01903 0.28467 0.09307 0.10900
C 	C 	0.24083 0.23457 0.14577 0.33700
O 	O 	0.20993 0.19767 0.16847 -0.40300
O 	O 	0.31303 0.24767 0.13787 -0.40700
N 	N 	0.17373 0.34707 0.06347 -0.24100
C 	C 	0.12833 0.36367 0.04557 0.23300
O 	O 	0.05233 0.33567 0.04787 -0.24400
H 	H 	0.22683 0.36567 0.05907 0.12800
C 	C 	0.16563 0.39637 0.01737 -0.06300
C 	C 	0.11483 0.39967 0.99667 0.00600
C 	C 	0.14833 0.42967 0.97077 -0.04100
C 	C 	0.23333 0.45617 0.96557 0.06000
C 	C 	0.28453 0.45267 0.98627 -0.05700
C 	C 	0.25053 0.42267 0.01217 -0.01500
H 	H 	0.05863 0.38267 0.00017 0.02900
H 	H 	0.11533 0.43267 0.95707 0.04600
H 	H 	0.34073 0.46967 0.98277 0.04400
H 	H 	0.28423 0.42067 0.02587 0.02100
C 	C 	0.26893 0.48717 0.93867 -0.05200
C 	C 	0.23213 0.44547 0.91247 0.04100
N 	N 	0.26533 0.47337 0.88757 -0.19700
C 	C 	0.33933 0.54597 0.88617 0.10400
N 	N 	0.38233 0.59287 0.90777 -0.12100
C 	C 	0.34903 0.56497 0.93267 0.04100
H 	H 	0.37703 0.59567 0.94807 0.02400
H 	H 	0.36433 0.56667 0.86937 0.01400
H 	H 	0.18123 0.39517 0.91217 0.03100
C 	C 	0.11373 0.36717 0.99437 -0.01300
C 	C 	0.14733 0.39667 0.96837 -0.06100
C 	C 	0.28563 0.48537 0.98867 -0.04000
C 	C 	0.25163 0.45547 0.01457 0.00400
H 	H 	0.05683 0.32767 0.99617 0.04200
H 	H 	0.11333 0.37767 0.95317 0.06100
H 	H 	0.34253 0.52467 0.98677 0.03700
H 	H 	0.28603 0.47467 0.02987 0.01900
Cu	Cu	0.55290 0.06420 0.52000 0.93400
C 	C 	0.45440 0.07980 0.47210 0.32200
O 	O 	0.48620 0.09520 0.49620 -0.39000
O 	O 	0.44900 0.01770 0.45850 -0.33800
C 	C 	0.36100 0.16610 0.42260 0.14800
C 	C 	0.37100 0.23860 0.43580 -0.11100
H 	H 	0.35300 0.27230 0.42740 0.08300
C 	C 	0.40800 0.25990 0.46170 -0.02100
C 	C 	0.43600 0.20980 0.47440 -0.03800
H 	H 	0.46000 0.22350 0.49150 0.07800
C 	C 	0.42590 0.13730 0.46110 -0.02200
C 	C 	0.38880 0.11590 0.43520 -0.11900
H 	H 	0.38200 0.06770 0.42640 0.10900
C 	C 	0.43210 0.33960 0.47910 0.33700
O 	O 	0.46900 0.34560 0.50180 -0.40300
O 	O 	0.41900 0.39870 0.47120 -0.40700
N 	N 	0.31960 0.16000 0.39680 -0.24100
C 	C 	0.30300 0.09800 0.37890 0.23300
O 	O 	0.33100 0.05000 0.38120 -0.24400
H 	H 	0.30100 0.19450 0.39240 0.12800
C 	C 	0.27030 0.10260 0.35070 -0.06300
C 	C 	0.26700 0.04850 0.33000 0.00600
C 	C 	0.23700 0.05200 0.30410 -0.04100
C 	C 	0.21050 0.11050 0.29890 0.06000
C 	C 	0.21400 0.16520 0.31960 -0.05700
C 	C 	0.24400 0.16120 0.34550 -0.01500
H 	H 	0.28400 0.00930 0.33350 0.02900
H 	H 	0.23400 0.01600 0.29040 0.04700
H 	H 	0.19700 0.20440 0.31610 0.04400
H 	H 	0.24600 0.19690 0.35920 0.02100
C 	C 	0.17950 0.11510 0.27200 -0.05200
C 	C 	0.22120 0.12000 0.24580 0.04100
N 	N 	0.19330 0.12530 0.22090 -0.19700
C 	C 	0.12070 0.12670 0.21950 0.10400
N 	N 	0.07380 0.12280 0.24110 -0.12100
C 	C 	0.10170 0.11740 0.26600 0.04100
H 	H 	0.07100 0.11470 0.28140 0.02400
H 	H 	0.10000 0.13100 0.20270 0.01400
H 	H 	0.27150 0.11940 0.24550 0.03100
C 	C 	0.29950 0.07990 0.32770 -0.01300
C 	C 	0.27000 0.08400 0.30170 -0.06100
C 	C 	0.18130 0.13360 0.32200 -0.04000
C 	C 	0.21120 0.12950 0.34790 0.00400
H 	H 	0.33900 0.06250 0.32950 0.04200
H 	H 	0.28900 0.06900 0.28650 0.06100
H 	H 	0.14200 0.15120 0.32010 0.03700
H 	H 	0.19200 0.14470 0.36320 0.01900
Cu	Cu	0.21957 0.39753 0.85333 0.93400
C 	C 	0.12107 0.41313 0.80543 0.32200
O 	O 	0.15287 0.42853 0.82953 -0.39000
O 	O 	0.11567 0.35103 0.79183 -0.33800
C 	C 	0.02767 0.49943 0.75593 0.14900
C 	C 	0.03767 0.57193 0.76913 -0.11200
H 	H 	0.01967 0.60563 0.76073 0.08300
C 	C 	0.07467 0.59323 0.79503 -0.02100
C 	C 	0.10267 0.54313 0.80773 -0.03800
H 	H 	0.12667 0.55683 0.82483 0.07800
C 	C 	0.09257 0.47063 0.79443 -0.02200
C 	C 	0.05547 0.44923 0.76853 -0.11900
H 	H 	0.04867 0.40103 0.75973 0.10900
C 	C 	0.09877 0.67293 0.81243 0.33700
O 	O 	0.13567 0.67893 0.83513 -0.40300
O 	O 	0.08567 0.73203 0.80453 -0.40600
N 	N 	0.98627 0.49333 0.73013 -0.24200
C 	C 	0.96967 0.43133 0.71223 0.23300
O 	O 	0.99767 0.38333 0.71453 -0.24400
H 	H 	0.96767 0.52783 0.72573 0.12800
C 	C 	0.93697 0.43593 0.68403 -0.06300
C 	C 	0.93367 0.38183 0.66333 0.00500
C 	C 	0.90367 0.38533 0.63743 -0.04200
C 	C 	0.87717 0.44383 0.63223 0.06000
C 	C 	0.88067 0.49853 0.65293 -0.05700
C 	C 	0.91067 0.49453 0.67883 -0.01500
H 	H 	0.95067 0.34263 0.66683 0.02900
H 	H 	0.90067 0.34933 0.62373 0.04700
H 	H 	0.86367 0.53773 0.64943 0.04400
H 	H 	0.91267 0.53023 0.69253 0.02100
C 	C 	0.84617 0.44843 0.60533 -0.05200
C 	C 	0.88787 0.45333 0.57913 0.04100
N 	N 	0.85997 0.45863 0.55423 -0.19700
C 	C 	0.78737 0.46003 0.55283 0.10400
N 	N 	0.74047 0.45613 0.57443 -0.12100
C 	C 	0.76837 0.45073 0.59933 0.04100
H 	H 	0.73767 0.44803 0.61473 0.02400
H 	H 	0.76667 0.46433 0.53603 0.01400
H 	H 	0.93817 0.45273 0.57883 0.03100
C 	C 	0.96617 0.41323 0.66103 -0.01200
C 	C 	0.93667 0.41733 0.63503 -0.06100
C 	C 	0.84797 0.46693 0.65533 -0.04000
C 	C 	0.87787 0.46283 0.68123 0.00400
H 	H 	0.00567 0.39583 0.66283 0.04200
H 	H 	0.95567 0.40233 0.61983 0.06100
H 	H 	0.80867 0.48453 0.65343 0.03700
H 	H 	0.85867 0.47803 0.69653 0.01900
Cu	Cu	0.88623 0.73087 0.18667 0.93400
C 	C 	0.78773 0.74647 0.13877 0.32200
O 	O 	0.81953 0.76187 0.16287 -0.39000
O 	O 	0.78233 0.68437 0.12517 -0.33800
C 	C 	0.69433 0.83277 0.08927 0.14800
C 	C 	0.70433 0.90527 0.10247 -0.11100
H 	H 	0.68633 0.93897 0.09407 0.08300
C 	C 	0.74133 0.92657 0.12837 -0.02100
C 	C 	0.76933 0.87647 0.14107 -0.03800
H 	H 	0.79333 0.89017 0.15817 0.07800
C 	C 	0.75923 0.80397 0.12777 -0.02200
C 	C 	0.72213 0.78257 0.10187 -0.11900
H 	H 	0.71533 0.73437 0.09307 0.10900
C 	C 	0.76543 0.00627 0.14577 0.33700
O 	O 	0.80233 0.01227 0.16847 -0.40300
O 	O 	0.75233 0.06537 0.13787 -0.40700
N 	N 	0.65293 0.82667 0.06347 -0.24100
C 	C 	0.63633 0.76467 0.04557 0.23300
O 	O 	0.66433 0.71667 0.04787 -0.24400
H 	H 	0.63433 0.86117 0.05907 0.12800
C 	C 	0.60363 0.76927 0.01737 -0.06300
C 	C 	0.60033 0.71517 0.99667 0.00600
C 	C 	0.57033 0.71867 0.97077 -0.04100
C 	C 	0.54383 0.77717 0.96557 0.06000
C 	C 	0.54733 0.83187 0.98627 -0.05700
C 	C 	0.57733 0.82787 0.01217 -0.01500
H 	H 	0.61733 0.67597 0.00017 0.02900
H 	H 	0.56733 0.68267 0.95707 0.04600
H 	H 	0.53033 0.87107 0.98277 0.04400
H 	H 	0.57933 0.86357 0.02587 0.02100
C 	C 	0.51283 0.78177 0.93867 -0.05200
C 	C 	0.55453 0.78667 0.91247 0.04100
N 	N 	0.52663 0.79197 0.88757 -0.19700
C 	C 	0.45403 0.79337 0.88617 0.10400
N 	N 	0.40713 0.78947 0.90777 -0.12100
C 	C 	0.43503 0.78407 0.93267 0.04100
H 	H 	0.40433 0.78137 0.94807 0.02400
H 	H 	0.43333 0.79767 0.86937 0.01400
H 	H 	0.60483 0.78607 0.91217 0.03100
C 	C 	0.63283 0.74657 0.99437 -0.01300
C 	C 	0.60333 0.75067 0.96837 -0.06100
C 	C 	0.51463 0.80027 0.98867 -0.04000
C 	C 	0.54453 0.79617 0.01457 0.00400
H 	H 	0.67233 0.72917 0.99617 0.04200
H 	H 	0.62233 0.73567 0.95317 0.06100
H 	H 	0.47533 0.81787 0.98677 0.03700
H 	H 	0.52533 0.81137 0.02987 0.01900
Cu	Cu	0.93580 0.48870 0.52000 0.93400
C 	C 	0.92020 0.37460 0.47210 0.32200
O 	O 	0.90480 0.39100 0.49620 -0.39000
O 	O 	0.98230 0.43130 0.45850 -0.33800
C 	C 	0.83390 0.19490 0.42260 0.14800
C 	C 	0.76140 0.13240 0.43580 -0.11200
H 	H 	0.72770 0.08070 0.42740 0.08300
C 	C 	0.74010 0.14810 0.46170 -0.02100
C 	C 	0.79020 0.22620 0.47440 -0.03800
H 	H 	0.77650 0.23650 0.49150 0.07800
C 	C 	0.86270 0.28860 0.46110 -0.02200
C 	C 	0.88410 0.27290 0.43520 -0.11900
H 	H 	0.93230 0.31430 0.42640 0.10900
C 	C 	0.66040 0.09250 0.47910 0.33700
O 	O 	0.65440 0.12340 0.50180 -0.40300
O 	O 	0.60130 0.02030 0.47120 -0.40700
N 	N 	0.84000 0.15960 0.39680 -0.24100
C 	C 	0.90200 0.20500 0.37890 0.23300
O 	O 	0.95000 0.28100 0.38120 -0.24400
H 	H 	0.80550 0.10650 0.39240 0.12800
C 	C 	0.89740 0.16770 0.35070 -0.06200
C 	C 	0.95150 0.21850 0.33000 0.00600
C 	C 	0.94800 0.18500 0.30410 -0.04100
C 	C 	0.88950 0.10000 0.29890 0.05900
C 	C 	0.83480 0.04880 0.31960 -0.05600
C 	C 	0.83880 0.08280 0.34550 -0.01600
H 	H 	0.99070 0.27470 0.33350 0.02900
H 	H 	0.98400 0.21800 0.29040 0.04700
H 	H 	0.79560 0.99260 0.31610 0.04400
H 	H 	0.80310 0.04910 0.35920 0.02200
C 	C 	0.88490 0.06440 0.27200 -0.05200
C 	C 	0.88000 0.10120 0.24580 0.04100
N 	N 	0.87470 0.06800 0.22090 -0.19700
C 	C 	0.87330 0.99400 0.21950 0.10300
N 	N 	0.87720 0.95100 0.24110 -0.12000
C 	C 	0.88260 0.98430 0.26600 0.04000
H 	H 	0.88530 0.95630 0.28140 0.02400
H 	H 	0.86900 0.96900 0.20270 0.01400
H 	H 	0.88060 0.15210 0.24550 0.03100
C 	C 	0.92010 0.21960 0.32770 -0.01300
C 	C 	0.91600 0.18600 0.30170 -0.06100
C 	C 	0.86640 0.04770 0.32200 -0.03900
C 	C 	0.87050 0.08170 0.34790 0.00400
H 	H 	0.93750 0.27650 0.32950 0.04200
H 	H 	0.93100 0.22000 0.28650 0.06100
H 	H 	0.84880 0.99080 0.32010 0.03700
H 	H 	0.85530 0.04730 0.36320 0.01900
Cu	Cu	0.60247 0.82203 0.85333 0.93400
C 	C 	0.58687 0.70793 0.80543 0.32200
O 	O 	0.57147 0.72433 0.82953 -0.39000
O 	O 	0.64897 0.76463 0.79183 -0.33800
C 	C 	0.50057 0.52823 0.75593 0.14800
C 	C 	0.42807 0.46573 0.76913 -0.11100
H 	H 	0.39437 0.41403 0.76073 0.08300
C 	C 	0.40677 0.48143 0.79503 -0.02100
C 	C 	0.45687 0.55953 0.80773 -0.03800
H 	H 	0.44317 0.56983 0.82483 0.07800
C 	C 	0.52937 0.62193 0.79443 -0.02200
C 	C 	0.55077 0.60623 0.76853 -0.11900
H 	H 	0.59897 0.64763 0.75973 0.10900
C 	C 	0.32707 0.42583 0.81243 0.33700
O 	O 	0.32107 0.45673 0.83513 -0.40300
O 	O 	0.26797 0.35363 0.80453 -0.40700
N 	N 	0.50667 0.49293 0.73013 -0.24100
C 	C 	0.56867 0.53833 0.71223 0.23300
O 	O 	0.61667 0.61433 0.71453 -0.24400
H 	H 	0.47217 0.43983 0.72573 0.12800
C 	C 	0.56407 0.50103 0.68403 -0.06300
C 	C 	0.61817 0.55183 0.66333 0.00600
C 	C 	0.61467 0.51833 0.63743 -0.04100
C 	C 	0.55617 0.43333 0.63223 0.06000
C 	C 	0.50147 0.38213 0.65293 -0.05700
C 	C 	0.50547 0.41613 0.67883 -0.01500
H 	H 	0.65737 0.60803 0.66683 0.02900
H 	H 	0.65067 0.55133 0.62373 0.04600
H 	H 	0.46227 0.32593 0.64943 0.04400
H 	H 	0.46977 0.38243 0.69253 0.02100
C 	C 	0.55157 0.39773 0.60533 -0.05200
C 	C 	0.54667 0.43453 0.57913 0.04100
N 	N 	0.54137 0.40133 0.55423 -0.19700
C 	C 	0.53997 0.32733 0.55283 0.10400
N 	N 	0.54387 0.28433 0.57443 -0.12100
C 	C 	0.54927 0.31763 0.59933 0.04100
H 	H 	0.55197 0.28963 0.61473 0.02400
H 	H 	0.53567 0.30233 0.53603 0.01400
H 	H 	0.54727 0.48543 0.57883 0.03100
C 	C 	0.58677 0.55293 0.66103 -0.01300
C 	C 	0.58267 0.51933 0.63503 -0.06100
C 	C 	0.53307 0.38103 0.65533 -0.04000
C 	C 	0.53717 0.41503 0.68123 0.00400
H 	H 	0.60417 0.60983 0.66283 0.04200
H 	H 	0.59767 0.55333 0.61983 0.06100
H 	H 	0.51547 0.32413 0.65343 0.03700
H 	H 	0.52197 0.38063 0.69653 0.01900
Cu	Cu	0.26913 0.15537 0.18667 0.93400
C 	C 	0.25353 0.04127 0.13877 0.32200
O 	O 	0.23813 0.05767 0.16287 -0.39000
O 	O 	0.31563 0.09797 0.12517 -0.33800
C 	C 	0.16723 0.86157 0.08927 0.14800
C 	C 	0.09473 0.79907 0.10247 -0.11100
H 	H 	0.06103 0.74737 0.09407 0.08300
C 	C 	0.07343 0.81477 0.12837 -0.02200
C 	C 	0.12353 0.89287 0.14107 -0.03800
H 	H 	0.10983 0.90317 0.15817 0.07800
C 	C 	0.19603 0.95527 0.12777 -0.02300
C 	C 	0.21743 0.93957 0.10187 -0.11900
H 	H 	0.26563 0.98097 0.09307 0.10800
C 	C 	0.99373 0.75917 0.14577 0.33700
O 	O 	0.98773 0.79007 0.16847 -0.40300
O 	O 	0.93463 0.68697 0.13787 -0.40700
N 	N 	0.17333 0.82627 0.06347 -0.24100
C 	C 	0.23533 0.87167 0.04557 0.23300
O 	O 	0.28333 0.94767 0.04787 -0.24400
H 	H 	0.13883 0.77317 0.05907 0.12800
C 	C 	0.23073 0.83437 0.01737 -0.06300
C 	C 	0.28483 0.88517 0.99667 0.00600
C 	C 	0.28133 0.85167 0.97077 -0.04100
C 	C 	0.22283 0.76667 0.96557 0.06000
C 	C 	0.16813 0.71547 0.98627 -0.05700
C 	C 	0.17213 0.74947 0.01217 -0.01500
H 	H 	0.32403 0.94137 0.00017 0.02900
H 	H 	0.31733 0.88467 0.95707 0.04700
H 	H 	0.12893 0.65927 0.98277 0.04400
H 	H 	0.13643 0.71577 0.02587 0.02100
C 	C 	0.21823 0.73107 0.93867 -0.05200
C 	C 	0.21333 0.76787 0.91247 0.04100
N 	N 	0.20803 0.73467 0.88757 -0.19700
C 	C 	0.20663 0.66067 0.88617 0.10400
N 	N 	0.21053 0.61767 0.90777 -0.12100
C 	C 	0.21593 0.65097 0.93267 0.04100
H 	H 	0.21863 0.62297 0.94807 0.02400
H 	H 	0.20233 0.63567 0.86937 0.01400
H 	H 	0.21393 0.81877 0.91217 0.03100
C 	C 	0.25343 0.88627 0.99437 -0.01300
C 	C 	0.24933 0.85267 0.96837 -0.06100
C 	C 	0.19973 0.71437 0.98867 -0.04000
C 	C 	0.20383 0.74837 0.01457 0.00400
H 	H 	0.27083 0.94317 0.99617 0.04200
H 	H 	0.26433 0.88667 0.95317 0.06100
H 	H 	0.18213 0.65747 0.98677 0.03700
H 	H 	0.18863 0.71397 0.02987 0.01900
Cu	Cu	0.44710 0.51130 0.48000 0.93400
C 	C 	0.54560 0.62540 0.52790 0.32200
O 	O 	0.51380 0.60900 0.50380 -0.39000
O 	O 	0.55100 0.56870 0.54150 -0.33800
C 	C 	0.63900 0.80510 0.57740 0.14800
C 	C 	0.62900 0.86760 0.56420 -0.11100
H 	H 	0.64700 0.91930 0.57260 0.08300
C 	C 	0.59200 0.85190 0.53830 -0.02100
C 	C 	0.56400 0.77380 0.52560 -0.03800
H 	H 	0.54000 0.76350 0.50850 0.07800
C 	C 	0.57410 0.71140 0.53890 -0.02200
C 	C 	0.61120 0.72710 0.56480 -0.11900
H 	H 	0.61800 0.68570 0.57360 0.10900
C 	C 	0.56790 0.90750 0.52090 0.33700
O 	O 	0.53100 0.87660 0.49820 -0.40300
O 	O 	0.58100 0.97970 0.52880 -0.40600
N 	N 	0.68040 0.84040 0.60320 -0.24100
C 	C 	0.69700 0.79500 0.62110 0.23300
O 	O 	0.66900 0.71900 0.61880 -0.24400
H 	H 	0.69900 0.89350 0.60760 0.12800
C 	C 	0.72970 0.83230 0.64930 -0.06200
C 	C 	0.73300 0.78150 0.67000 0.00600
C 	C 	0.76300 0.81500 0.69590 -0.04100
C 	C 	0.78950 0.90000 0.70110 0.05900
C 	C 	0.78600 0.95120 0.68040 -0.05600
C 	C 	0.75600 0.91720 0.65450 -0.01600
H 	H 	0.71600 0.72530 0.66650 0.02900
H 	H 	0.76600 0.78200 0.70960 0.04600
H 	H 	0.80300 0.00740 0.68390 0.04400
H 	H 	0.75400 0.95090 0.64080 0.02200
C 	C 	0.82050 0.93560 0.72800 -0.05200
C 	C 	0.77880 0.89880 0.75420 0.04100
N 	N 	0.80670 0.93200 0.77910 -0.19700
C 	C 	0.87930 0.00600 0.78050 0.10300
N 	N 	0.92620 0.04900 0.75890 -0.12000
C 	C 	0.89830 0.01570 0.73400 0.04000
H 	H 	0.92900 0.04370 0.71860 0.02400
H 	H 	0.90000 0.03100 0.79730 0.01400
H 	H 	0.72850 0.84790 0.75450 0.03100
C 	C 	0.70050 0.78040 0.67230 -0.01300
C 	C 	0.73000 0.81400 0.69830 -0.06100
C 	C 	0.81870 0.95230 0.67800 -0.03900
C 	C 	0.78880 0.91830 0.65210 0.00400
H 	H 	0.66100 0.72350 0.67050 0.04200
H 	H 	0.71100 0.78000 0.71350 0.06100
H 	H 	0.85800 0.00920 0.67990 0.03700
H 	H 	0.80800 0.95270 0.63680 0.01900
Cu	Cu	0.11377 0.84463 0.81333 0.93400
C 	C 	0.21227 0.95873 0.86123 0.32200
O 	O 	0.18047 0.94233 0.83713 -0.39000
O 	O 	0.21767 0.90203 0.87483 -0.33800
C 	C 	0.30567 0.13843 0.91073 0.14800
C 	C 	0.29567 0.20093 0.89753 -0.11100
H 	H 	0.31367 0.25263 0.90593 0.08300
C 	C 	0.25867 0.18523 0.87163 -0.02100
C 	C 	0.23067 0.10713 0.85893 -0.03800
H 	H 	0.20667 0.09683 0.84183 0.07800
C 	C 	0.24077 0.04473 0.87223 -0.02200
C 	C 	0.27787 0.06043 0.89813 -0.11900
H 	H 	0.28467 0.01903 0.90693 0.10900
C 	C 	0.23457 0.24083 0.85423 0.33700
O 	O 	0.19767 0.20993 0.83153 -0.40300
O 	O 	0.24767 0.31303 0.86213 -0.40700
N 	N 	0.34707 0.17373 0.93653 -0.24100
C 	C 	0.36367 0.12833 0.95443 0.23300
O 	O 	0.33567 0.05233 0.95213 -0.24400
H 	H 	0.36567 0.22683 0.94093 0.12800
C 	C 	0.39637 0.16563 0.98263 -0.06300
C 	C 	0.39967 0.11483 0.00333 0.00600
C 	C 	0.42967 0.14833 0.02923 -0.04100
C 	C 	0.45617 0.23333 0.03443 0.06000
C 	C 	0.45267 0.28453 0.01373 -0.05700
C 	C 	0.42267 0.25053 0.98783 -0.01500
H 	H 	0.38267 0.05863 0.99983 0.02900
H 	H 	0.43267 0.11533 0.04293 0.04600
H 	H 	0.46967 0.34073 0.01723 0.04400
H 	H 	0.42067 0.28423 0.97413 0.02100
C 	C 	0.48717 0.26893 0.06133 -0.05200
C 	C 	0.44547 0.23213 0.08753 0.04100
N 	N 	0.47337 0.26533 0.11243 -0.19700
C 	C 	0.54597 0.33933 0.11383 0.10400
N 	N 	0.59287 0.38233 0.09223 -0.12100
C 	C 	0.56497 0.34903 0.06733 0.04100
H 	H 	0.59567 0.37703 0.05193 0.02400
H 	H 	0.56667 0.36433 0.13063 0.01400
H 	H 	0.39517 0.18123 0.08783 0.03100
C 	C 	0.36717 0.11373 0.00563 -0.01300
C 	C 	0.39667 0.14733 0.03163 -0.06100
C 	C 	0.48537 0.28563 0.01133 -0.04000
C 	C 	0.45547 0.25163 0.98543 0.00400
H 	H 	0.32767 0.05683 0.00383 0.04200
H 	H 	0.37767 0.11333 0.04683 0.06100
H 	H 	0.52467 0.34253 0.01323 0.03700
H 	H 	0.47467 0.28603 0.97013 0.01900
Cu	Cu	0.78043 0.17797 0.14667 0.93400
C 	C 	0.87893 0.29207 0.19457 0.32200
O 	O 	0.84713 0.27567 0.17047 -0.39000
O 	O 	0.88433 0.23537 0.20817 -0.33800
C 	C 	0.97233 0.47177 0.24407 0.14900
C 	C 	0.96233 0.53427 0.23087 -0.11200
H 	H 	0.98033 0.58597 0.23927 0.08300
C 	C 	0.92533 0.51857 0.20497 -0.02100
C 	C 	0.89733 0.44047 0.19227 -0.03800
H 	H 	0.87333 0.43017 0.17517 0.07800
C 	C 	0.90743 0.37807 0.20557 -0.02200
C 	C 	0.94453 0.39377 0.23147 -0.11900
H 	H 	0.95133 0.35237 0.24027 0.10900
C 	C 	0.90123 0.57417 0.18757 0.33700
O 	O 	0.86433 0.54327 0.16487 -0.40300
O 	O 	0.91433 0.64637 0.19547 -0.40600
N 	N 	0.01373 0.50707 0.26987 -0.24200
C 	C 	0.03033 0.46167 0.28777 0.23300
O 	O 	0.00233 0.38567 0.28547 -0.24400
H 	H 	0.03233 0.56017 0.27427 0.12800
C 	C 	0.06303 0.49897 0.31597 -0.06300
C 	C 	0.06633 0.44817 0.33667 0.00500
C 	C 	0.09633 0.48167 0.36257 -0.04200
C 	C 	0.12283 0.56667 0.36777 0.06000
C 	C 	0.11933 0.61787 0.34707 -0.05700
C 	C 	0.08933 0.58387 0.32117 -0.01500
H 	H 	0.04933 0.39197 0.33317 0.02900
H 	H 	0.09933 0.44867 0.37627 0.04700
H 	H 	0.13633 0.67407 0.35057 0.04400
H 	H 	0.08733 0.61757 0.30747 0.02100
C 	C 	0.15383 0.60227 0.39467 -0.05200
C 	C 	0.11213 0.56547 0.42087 0.04100
N 	N 	0.14003 0.59867 0.44577 -0.19700
C 	C 	0.21263 0.67267 0.44717 0.10400
N 	N 	0.25953 0.71567 0.42557 -0.12100
C 	C 	0.23163 0.68237 0.40067 0.04100
H 	H 	0.26233 0.71037 0.38527 0.02400
H 	H 	0.23333 0.69767 0.46397 0.01400
H 	H 	0.06183 0.51457 0.42117 0.03100
C 	C 	0.03383 0.44707 0.33897 -0.01200
C 	C 	0.06333 0.48067 0.36497 -0.06100
C 	C 	0.15203 0.61897 0.34467 -0.04000
C 	C 	0.12213 0.58497 0.31877 0.00400
H 	H 	0.99433 0.39017 0.33717 0.04200
H 	H 	0.04433 0.44667 0.38017 0.06100
H 	H 	0.19133 0.67587 0.34657 0.03700
H 	H 	0.14133 0.61937 0.30347 0.01900
Cu	Cu	0.06420 0.55290 0.48000 0.93400
C 	C 	0.07980 0.45440 0.52790 0.32200
O 	O 	0.09520 0.48620 0.50380 -0.39000
O 	O 	0.01770 0.44900 0.54150 -0.33800
C 	C 	0.16610 0.36100 0.57740 0.14800
C 	C 	0.23860 0.37100 0.56420 -0.11100
H 	H 	0.27230 0.35300 0.57260 0.08300
C 	C 	0.25990 0.40800 0.53830 -0.02100
C 	C 	0.20980 0.43600 0.52560 -0.03800
H 	H 	0.22350 0.46000 0.50850 0.07800
C 	C 	0.13730 0.42590 0.53890 -0.02200
C 	C 	0.11590 0.38880 0.56480 -0.11900
H 	H 	0.06770 0.38200 0.57360 0.10900
C 	C 	0.33960 0.43210 0.52090 0.33700
O 	O 	0.34560 0.46900 0.49820 -0.40300
O 	O 	0.39870 0.41900 0.52880 -0.40700
N 	N 	0.16000 0.31960 0.60320 -0.24100
C 	C 	0.09800 0.30300 0.62110 0.23300
O 	O 	0.05000 0.33100 0.61880 -0.24400
H 	H 	0.19450 0.30100 0.60760 0.12800
C 	C 	0.10260 0.27030 0.64930 -0.06300
C 	C 	0.04850 0.26700 0.67000 0.00600
C 	C 	0.05200 0.23700 0.69590 -0.04100
C 	C 	0.11050 0.21050 0.70110 0.06000
C 	C 	0.16520 0.21400 0.68040 -0.05700
C 	C 	0.16120 0.24400 0.65450 -0.01500
H 	H 	0.00930 0.28400 0.66650 0.02900
H 	H 	0.01600 0.23400 0.70960 0.04700
H 	H 	0.20440 0.19700 0.68390 0.04400
H 	H 	0.19690 0.24600 0.64080 0.02100
C 	C 	0.11510 0.17950 0.72800 -0.05200
C 	C 	0.12000 0.22120 0.75420 0.04100
N 	N 	0.12530 0.19330 0.77910 -0.19700
C 	C 	0.12670 0.12070 0.78050 0.10400
N 	N 	0.12280 0.07380 0.75890 -0.12100
C 	C 	0.11740 0.10170 0.73400 0.04100
H 	H 	0.11470 0.07100 0.71860 0.02400
H 	H 	0.13100 0.10000 0.79730 0.01400
H 	H 	0.11940 0.27150 0.75450 0.03100
C 	C 	0.07990 0.29950 0.67230 -0.01300
C 	C 	0.08400 0.27000 0.69830 -0.06100
C 	C 	0.13360 0.18130 0.67800 -0.04000
C 	C 	0.12950 0.21120 0.65210 0.00400
H 	H 	0.06250 0.33900 0.67050 0.04200
H 	H 	0.06900 0.28900 0.71350 0.06100
H 	H 	0.15120 0.14200 0.67990 0.03700
H 	H 	0.14470 0.19200 0.63680 0.01900
Cu	Cu	0.73087 0.88623 0.81333 0.93400
C 	C 	0.74647 0.78773 0.86123 0.32200
O 	O 	0.76187 0.81953 0.83713 -0.39000
O 	O 	0.68437 0.78233 0.87483 -0.33800
C 	C 	0.83277 0.69433 0.91073 0.14800
C 	C 	0.90527 0.70433 0.89753 -0.11100
H 	H 	0.93897 0.68633 0.90593 0.08300
C 	C 	0.92657 0.74133 0.87163 -0.02100
C 	C 	0.87647 0.76933 0.85893 -0.03800
H 	H 	0.89017 0.79333 0.84183 0.07800
C 	C 	0.80397 0.75923 0.87223 -0.02200
C 	C 	0.78257 0.72213 0.89813 -0.11900
H 	H 	0.73437 0.71533 0.90693 0.10900
C 	C 	0.00627 0.76543 0.85423 0.33700
O 	O 	0.01227 0.80233 0.83153 -0.40300
O 	O 	0.06537 0.75233 0.86213 -0.40700
N 	N 	0.82667 0.65293 0.93653 -0.24100
C 	C 	0.76467 0.63633 0.95443 0.23300
O 	O 	0.71667 0.66433 0.95213 -0.24400
H 	H 	0.86117 0.63433 0.94093 0.12800
C 	C 	0.76927 0.60363 0.98263 -0.06300
C 	C 	0.71517 0.60033 0.00333 0.00600
C 	C 	0.71867 0.57033 0.02923 -0.04100
C 	C 	0.77717 0.54383 0.03443 0.06000
C 	C 	0.83187 0.54733 0.01373 -0.05700
C 	C 	0.82787 0.57733 0.98783 -0.01500
H 	H 	0.67597 0.61733 0.99983 0.02900
H 	H 	0.68267 0.56733 0.04293 0.04600
H 	H 	0.87107 0.53033 0.01723 0.04400
H 	H 	0.86357 0.57933 0.97413 0.02100
C 	C 	0.78177 0.51283 0.06133 -0.05200
C 	C 	0.78667 0.55453 0.08753 0.04100
N 	N 	0.79197 0.52663 0.11243 -0.19700
C 	C 	0.79337 0.45403 0.11383 0.10400
N 	N 	0.78947 0.40713 0.09223 -0.12100
C 	C 	0.78407 0.43503 0.06733 0.04100
H 	H 	0.78137 0.40433 0.05193 0.02400
H 	H 	0.79767 0.43333 0.13063 0.01400
H 	H 	0.78607 0.60483 0.08783 0.03100
C 	C 	0.74657 0.63283 0.00563 -0.01300
C 	C 	0.75067 0.60333 0.03163 -0.06100
C 	C 	0.80027 0.51463 0.01133 -0.04000
C 	C 	0.79617 0.54453 0.98543 0.00400
H 	H 	0.72917 0.67233 0.00383 0.04200
H 	H 	0.73567 0.62233 0.04683 0.06100
H 	H 	0.81787 0.47533 0.01323 0.03700
H 	H 	0.81137 0.52533 0.97013 0.01900
Cu	Cu	0.39753 0.21957 0.14667 0.93400
C 	C 	0.41313 0.12107 0.19457 0.32200
O 	O 	0.42853 0.15287 0.17047 -0.39000
O 	O 	0.35103 0.11567 0.20817 -0.33800
C 	C 	0.49943 0.02767 0.24407 0.14900
C 	C 	0.57193 0.03767 0.23087 -0.11200
H 	H 	0.60563 0.01967 0.23927 0.08300
C 	C 	0.59323 0.07467 0.20497 -0.02100
C 	C 	0.54313 0.10267 0.19227 -0.03800
H 	H 	0.55683 0.12667 0.17517 0.07800
C 	C 	0.47063 0.09257 0.20557 -0.02200
C 	C 	0.44923 0.05547 0.23147 -0.11900
H 	H 	0.40103 0.04867 0.24027 0.10900
C 	C 	0.67293 0.09877 0.18757 0.33700
O 	O 	0.67893 0.13567 0.16487 -0.40300
O 	O 	0.73203 0.08567 0.19547 -0.40600
N 	N 	0.49333 0.98627 0.26987 -0.24200
C 	C 	0.43133 0.96967 0.28777 0.23300
O 	O 	0.38333 0.99767 0.28547 -0.24400
H 	H 	0.52783 0.96767 0.27427 0.12800
C 	C 	0.43593 0.93697 0.31597 -0.06300
C 	C 	0.38183 0.93367 0.33667 0.00500
C 	C 	0.38533 0.90367 0.36257 -0.04200
C 	C 	0.44383 0.87717 0.36777 0.06000
C 	C 	0.49853 0.88067 0.34707 -0.05700
C 	C 	0.49453 0.91067 0.32117 -0.01500
H 	H 	0.34263 0.95067 0.33317 0.02900
H 	H 	0.34933 0.90067 0.37627 0.04700
H 	H 	0.53773 0.86367 0.35057 0.04400
H 	H 	0.53023 0.91267 0.30747 0.02100
C 	C 	0.44843 0.84617 0.39467 -0.05200
C 	C 	0.45333 0.88787 0.42087 0.04100
N 	N 	0.45863 0.85997 0.44577 -0.19700
C 	C 	0.46003 0.78737 0.44717 0.10400
N 	N 	0.45613 0.74047 0.42557 -0.12100
C 	C 	0.45073 0.76837 0.40067 0.04100
H 	H 	0.44803 0.73767 0.38527 0.02400
H 	H 	0.46433 0.76667 0.46397 0.01400
H 	H 	0.45273 0.93817 0.42117 0.03100
C 	C 	0.41323 0.96617 0.33897 -0.01200
C 	C 	0.41733 0.93667 0.36497 -0.06100
C 	C 	0.46693 0.84797 0.34467 -0.04000
C 	C 	0.46283 0.87787 0.31877 0.00400
H 	H 	0.39583 0.00567 0.33717 0.04200
H 	H 	0.40233 0.95567 0.38017 0.06100
H 	H 	0.48453 0.80867 0.34657 0.03700
H 	H 	0.47803 0.85867 0.30347 0.01900
Cu	Cu	0.48870 0.93580 0.48000 0.93400
C 	C 	0.37460 0.92020 0.52790 0.32200
O 	O 	0.39100 0.90480 0.50380 -0.39000
O 	O 	0.43130 0.98230 0.54150 -0.33800
C 	C 	0.19490 0.83390 0.57740 0.14800
C 	C 	0.13240 0.76140 0.56420 -0.11200
H 	H 	0.08070 0.72770 0.57260 0.08300
C 	C 	0.14810 0.74010 0.53830 -0.02100
C 	C 	0.22620 0.79020 0.52560 -0.03800
H 	H 	0.23650 0.77650 0.50850 0.07800
C 	C 	0.28860 0.86270 0.53890 -0.02200
C 	C 	0.27290 0.88410 0.56480 -0.11900
H 	H 	0.31430 0.93230 0.57360 0.10900
C 	C 	0.09250 0.66040 0.52090 0.33700
O 	O 	0.12340 0.65440 0.49820 -0.40300
O 	O 	0.02030 0.60130 0.52880 -0.40700
N 	N 	0.15960 0.84000 0.60320 -0.24100
C 	C 	0.20500 0.90200 0.62110 0.23300
O 	O 	0.28100 0.95000 0.61880 -0.24400
H 	H 	0.10650 0.80550 0.60760 0.12800
C 	C 	0.16770 0.89740 0.64930 -0.06200
C 	C 	0.21850 0.95150 0.67000 0.00600
C 	C 	0.18500 0.94800 0.69590 -0.04100
C 	C 	0.10000 0.88950 0.70110 0.05900
C 	C 	0.04880 0.83480 0.68040 -0.05600
C 	C 	0.08280 0.83880 0.65450 -0.01600
H 	H 	0.27470 0.99070 0.66650 0.02900
H 	H 	0.21800 0.98400 0.70960 0.04700
H 	H 	0.99260 0.79560 0.68390 0.04400
H 	H 	0.04910 0.80310 0.64080 0.02200
C 	C 	0.06440 0.88490 0.72800 -0.05200
C 	C 	0.10120 0.88000 0.75420 0.04100
N 	N 	0.06800 0.87470 0.77910 -0.19700
C 	C 	0.99400 0.87330 0.78050 0.10300
N 	N 	0.95100 0.87720 0.75890 -0.12000
C 	C 	0.98430 0.88260 0.73400 0.04000
H 	H 	0.95630 0.88530 0.71860 0.02400
H 	H 	0.96900 0.86900 0.79730 0.01400
H 	H 	0.15210 0.88060 0.75450 0.03100
C 	C 	0.21960 0.92010 0.67230 -0.01300
C 	C 	0.18600 0.91600 0.69830 -0.06100
C 	C 	0.04770 0.86640 0.67800 -0.03900
C 	C 	0.08170 0.87050 0.65210 0.00400
H 	H 	0.27650 0.93750 0.67050 0.04200
H 	H 	0.22000 0.93100 0.71350 0.06100
H 	H 	0.99080 0.84880 0.67990 0.03700
H 	H 	0.04730 0.85530 0.63680 0.01900
Cu	Cu	0.15537 0.26913 0.81333 0.93400
C 	C 	0.04127 0.25353 0.86123 0.32200
O 	O 	0.05767 0.23813 0.83713 -0.39000
O 	O 	0.09797 0.31563 0.87483 -0.33800
C 	C 	0.86157 0.16723 0.91073 0.14800
C 	C 	0.79907 0.09473 0.89753 -0.11100
H 	H 	0.74737 0.06103 0.90593 0.08300
C 	C 	0.81477 0.07343 0.87163 -0.02200
C 	C 	0.89287 0.12353 0.85893 -0.03800
H 	H 	0.90317 0.10983 0.84183 0.07800
C 	C 	0.95527 0.19603 0.87223 -0.02300
C 	C 	0.93957 0.21743 0.89813 -0.11900
H 	H 	0.98097 0.26563 0.90693 0.10800
C 	C 	0.75917 0.99373 0.85423 0.33700
O 	O 	0.79007 0.98773 0.83153 -0.40300
O 	O 	0.68697 0.93463 0.86213 -0.40700
N 	N 	0.82627 0.17333 0.93653 -0.24100
C 	C 	0.87167 0.23533 0.95443 0.23300
O 	O 	0.94767 0.28333 0.95213 -0.24400
H 	H 	0.77317 0.13883 0.94093 0.12800
C 	C 	0.83437 0.23073 0.98263 -0.06300
C 	C 	0.88517 0.28483 0.00333 0.00600
C 	C 	0.85167 0.28133 0.02923 -0.04100
C 	C 	0.76667 0.22283 0.03443 0.06000
C 	C 	0.71547 0.16813 0.01373 -0.05700
C 	C 	0.74947 0.17213 0.98783 -0.01500
H 	H 	0.94137 0.32403 0.99983 0.02900
H 	H 	0.88467 0.31733 0.04293 0.04700
H 	H 	0.65927 0.12893 0.01723 0.04400
H 	H 	0.71577 0.13643 0.97413 0.02100
C 	C 	0.73107 0.21823 0.06133 -0.05200
C 	C 	0.76787 0.21333 0.08753 0.04100
N 	N 	0.73467 0.20803 0.11243 -0.19700
C 	C 	0.66067 0.20663 0.11383 0.10400
N 	N 	0.61767 0.21053 0.09223 -0.12100
C 	C 	0.65097 0.21593 0.06733 0.04100
H 	H 	0.62297 0.21863 0.05193 0.02400
H 	H 	0.63567 0.20233 0.13063 0.01400
H 	H 	0.81877 0.21393 0.08783 0.03100
C 	C 	0.88627 0.25343 0.00563 -0.01300
C 	C 	0.85267 0.24933 0.03163 -0.06100
C 	C 	0.71437 0.19973 0.01133 -0.04000
C 	C 	0.74837 0.20383 0.98543 0.00400
H 	H 	0.94317 0.27083 0.00383 0.04200
H 	H 	0.88667 0.26433 0.04683 0.06100
H 	H 	0.65747 0.18213 0.01323 0.03700
H 	H 	0.71397 0.18863 0.97013 0.01900
Cu	Cu	0.82203 0.60247 0.14667 0.93400
C 	C 	0.70793 0.58687 0.19457 0.32200
O 	O 	0.72433 0.57147 0.17047 -0.39000
O 	O 	0.76463 0.64897 0.20817 -0.33800
C 	C 	0.52823 0.50057 0.24407 0.14800
C 	C 	0.46573 0.42807 0.23087 -0.11100
H 	H 	0.41403 0.39437 0.23927 0.08300
C 	C 	0.48143 0.40677 0.20497 -0.02100
C 	C 	0.55953 0.45687 0.19227 -0.03800
H 	H 	0.56983 0.44317 0.17517 0.07800
C 	C 	0.62193 0.52937 0.20557 -0.02200
C 	C 	0.60623 0.55077 0.23147 -0.11900
H 	H 	0.64763 0.59897 0.24027 0.10900
C 	C 	0.42583 0.32707 0.18757 0.33700
O 	O 	0.45673 0.32107 0.16487 -0.40300
O 	O 	0.35363 0.26797 0.19547 -0.40700
N 	N 	0.49293 0.50667 0.26987 -0.24100
C 	C 	0.53833 0.56867 0.28777 0.23300
O 	O 	0.61433 0.61667 0.28547 -0.24400
H 	H 	0.43983 0.47217 0.27427 0.12800
C 	C 	0.50103 0.56407 0.31597 -0.06300
C 	C 	0.55183 0.61817 0.33667 0.00600
C 	C 	0.51833 0.61467 0.36257 -0.04100
C 	C 	0.43333 0.55617 0.36777 0.06000
C 	C 	0.38213 0.50147 0.34707 -0.05700
C 	C 	0.41613 0.50547 0.32117 -0.01500
H 	H 	0.60803 0.65737 0.33317 0.02900
H 	H 	0.55133 0.65067 0.37627 0.04600
H 	H 	0.32593 0.46227 0.35057 0.04400
H 	H 	0.38243 0.46977 0.30747 0.02100
C 	C 	0.39773 0.55157 0.39467 -0.05200
C 	C 	0.43453 0.54667 0.42087 0.04100
N 	N 	0.40133 0.54137 0.44577 -0.19700
C 	C 	0.32733 0.53997 0.44717 0.10400
N 	N 	0.28433 0.54387 0.42557 -0.12100
C 	C 	0.31763 0.54927 0.40067 0.04100
H 	H 	0.28963 0.55197 0.38527 0.02400
H 	H 	0.30233 0.53567 0.46397 0.01400
H 	H 	0.48543 0.54727 0.42117 0.03100
C 	C 	0.55293 0.58677 0.33897 -0.01300
C 	C 	0.51933 0.58267 0.36497 -0.06100
C 	C 	0.38103 0.53307 0.34467 -0.04000
C 	C 	0.41503 0.53717 0.31877 0.00400
H 	H 	0.60983 0.60417 0.33717 0.04200
H 	H 	0.55333 0.59767 0.38017 0.06100
H 	H 	0.32413 0.51547 0.34657 0.03700
H 	H 	0.38063 0.52197 0.30347 0.01900
