data_crystal

_cell_length_a 18.08040
_cell_length_b 18.08040
_cell_length_c 48.72310
_cell_angle_alpha 90.00000
_cell_angle_beta  90.00000
_cell_angle_gamma 120.00000

_symmetry_space_group_name_	'P 1'
_symmetry_space_group_name_H-M	'P 1'

loop_
_symmetry_equiv_pos_as_xyz
  x,y,z

loop_
_atom_site_label
_atom_site_type_symbol
_atom_site_fract_x
_atom_site_fract_y
_atom_site_fract_z
_atom_site_charge
Cu	Cu	0.50470 0.45110 0.52170 0.91300
C 	C 	0.62750 0.54330 0.47160 0.26000
O 	O 	0.62300 0.51800 0.49700 -0.32700
O 	O 	0.56680 0.55400 0.46140 -0.35000
C 	C 	0.80460 0.63300 0.42140 0.18000
C 	C 	0.86100 0.61400 0.43420 -0.15500
H 	H 	0.90900 0.62200 0.42500 0.10400
C 	C 	0.84600 0.58200 0.46090 0.03200
C 	C 	0.77400 0.57000 0.47480 -0.09300
H 	H 	0.76300 0.54900 0.49240 0.09800
C 	C 	0.71680 0.58970 0.46200 0.02900
C 	C 	0.73220 0.62110 0.43530 -0.16100
H 	H 	0.69500 0.63400 0.42680 0.11900
C 	C 	0.88610 0.54100 0.47770 0.26600
O 	O 	0.87530 0.52500 0.50400 -0.39000
O 	O 	0.96130 0.56900 0.46670 -0.37400
N 	N 	0.83980 0.68030 0.39700 -0.24700
C 	C 	0.79400 0.69700 0.37920 0.21900
O 	O 	0.71600 0.65600 0.37830 -0.24100
H 	H 	0.89310 0.70000 0.39250 0.13000
C 	C 	0.83160 0.72960 0.35050 -0.04900
C 	C 	0.78110 0.73540 0.33000 0.19700
C 	C 	0.81510 0.76500 0.30410 0.15900
C 	C 	0.89960 0.78910 0.29860 0.04900
C 	C 	0.95010 0.78330 0.31910 -0.25000
C 	C 	0.91610 0.75360 0.34500 -0.21900
H 	H 	0.72510 0.72000 0.33370 -0.03400
H 	H 	0.78200 0.76900 0.29060 -0.02100
H 	H 	0.00600 0.79900 0.31540 0.10900
H 	H 	0.94950 0.75000 0.35850 0.09300
C 	C 	0.93580 0.82080 0.27100 -0.04100
C 	C 	0.89540 0.77380 0.24600 0.03700
N 	N 	0.93040 0.80130 0.22132 -0.18100
C 	C 	0.01100 0.87970 0.21790 0.06000
N 	N 	0.05150 0.92710 0.24260 -0.10700
C 	C 	0.01660 0.89960 0.26730 0.03400
H 	H 	0.04370 0.93080 0.28280 0.01700
H 	H 	0.03400 0.89730 0.20070 0.03600
H 	H 	0.84420 0.72350 0.24700 0.03100
C 	C 	0.77970 0.69840 0.32740 -0.21700
C 	C 	0.81370 0.72800 0.30150 -0.25300
C 	C 	0.95140 0.82040 0.32170 0.16100
C 	C 	0.91740 0.79060 0.34760 0.19600
H 	H 	0.72290 0.65800 0.32930 0.11700
H 	H 	0.77900 0.70700 0.28620 0.12600
H 	H 	0.00820 0.86100 0.31980 -0.03600
H 	H 	0.95170 0.81100 0.36290 -0.04800
Cu	Cu	0.17137 0.78443 0.85503 0.91400
C 	C 	0.29417 0.87663 0.80493 0.26100
O 	O 	0.28967 0.85133 0.83033 -0.32600
O 	O 	0.23347 0.88733 0.79473 -0.34900
C 	C 	0.47127 0.96633 0.75473 0.18300
C 	C 	0.52767 0.94733 0.76753 -0.15500
H 	H 	0.57567 0.95533 0.75833 0.10500
C 	C 	0.51267 0.91533 0.79423 0.03400
C 	C 	0.44067 0.90333 0.80813 -0.09200
H 	H 	0.42967 0.88233 0.82573 0.09900
C 	C 	0.38347 0.92303 0.79533 0.03000
C 	C 	0.39887 0.95443 0.76863 -0.16000
H 	H 	0.36167 0.96733 0.76013 0.12100
C 	C 	0.55277 0.87433 0.81103 0.26700
O 	O 	0.54197 0.85833 0.83733 -0.38900
O 	O 	0.62797 0.90233 0.80003 -0.37300
N 	N 	0.50647 0.01363 0.73033 -0.24700
C 	C 	0.46067 0.03033 0.71253 0.21900
O 	O 	0.38267 0.98933 0.71163 -0.23800
H 	H 	0.55977 0.03333 0.72583 0.13100
C 	C 	0.49827 0.06293 0.68383 -0.04800
C 	C 	0.44777 0.06873 0.66333 0.17800
C 	C 	0.48177 0.09833 0.63743 0.14100
C 	C 	0.56627 0.12243 0.63193 0.05100
C 	C 	0.61677 0.11663 0.65243 -0.23700
C 	C 	0.58277 0.08693 0.67833 -0.20300
H 	H 	0.39177 0.05333 0.66703 -0.02900
H 	H 	0.44867 0.10233 0.62393 -0.01500
H 	H 	0.67267 0.13233 0.64873 0.10500
H 	H 	0.61617 0.08333 0.69183 0.08700
C 	C 	0.60247 0.15413 0.60433 -0.04400
C 	C 	0.56207 0.10713 0.57933 0.03700
N 	N 	0.59707 0.13463 0.55465 -0.18200
C 	C 	0.67767 0.21303 0.55123 0.06200
N 	N 	0.71817 0.26043 0.57593 -0.10700
C 	C 	0.68327 0.23293 0.60063 0.03700
H 	H 	0.71037 0.26413 0.61613 0.01700
H 	H 	0.70067 0.23063 0.53403 0.03600
H 	H 	0.51087 0.05683 0.58033 0.03000
C 	C 	0.44637 0.03173 0.66073 -0.19800
C 	C 	0.48037 0.06133 0.63483 -0.23500
C 	C 	0.61807 0.15373 0.65503 0.14400
C 	C 	0.58407 0.12393 0.68093 0.18100
H 	H 	0.38957 0.99133 0.66263 0.11200
H 	H 	0.44567 0.04033 0.61953 0.12000
H 	H 	0.67487 0.19433 0.65313 -0.02900
H 	H 	0.61837 0.14433 0.69623 -0.04300
Cu	Cu	0.83803 0.11777 0.18837 0.91400
C 	C 	0.96083 0.20997 0.13827 0.26200
O 	O 	0.95633 0.18467 0.16367 -0.32600
O 	O 	0.90013 0.22067 0.12807 -0.35000
C 	C 	0.13793 0.29967 0.08807 0.18100
C 	C 	0.19433 0.28067 0.10087 -0.15400
H 	H 	0.24233 0.28867 0.09167 0.10400
C 	C 	0.17933 0.24867 0.12757 0.03300
C 	C 	0.10733 0.23667 0.14147 -0.09100
H 	H 	0.09633 0.21567 0.15907 0.09800
C 	C 	0.05013 0.25637 0.12867 0.02800
C 	C 	0.06553 0.28777 0.10197 -0.15900
H 	H 	0.02833 0.30067 0.09347 0.12000
C 	C 	0.21943 0.20767 0.14437 0.26700
O 	O 	0.20863 0.19167 0.17067 -0.38900
O 	O 	0.29463 0.23567 0.13337 -0.37300
N 	N 	0.17313 0.34697 0.06367 -0.24600
C 	C 	0.12733 0.36367 0.04587 0.22100
O 	O 	0.04933 0.32267 0.04497 -0.24000
H 	H 	0.22643 0.36667 0.05917 0.13100
C 	C 	0.16493 0.39627 0.01717 -0.04900
C 	C 	0.11443 0.40207 0.99667 0.20100
C 	C 	0.14843 0.43167 0.97077 0.16100
C 	C 	0.23293 0.45577 0.96527 0.05100
C 	C 	0.28343 0.44997 0.98577 -0.25500
C 	C 	0.24943 0.42027 0.01167 -0.22100
H 	H 	0.05843 0.38667 0.00037 -0.03500
H 	H 	0.11533 0.43567 0.95727 -0.02100
H 	H 	0.33933 0.46567 0.98207 0.11100
H 	H 	0.28283 0.41667 0.02517 0.09400
C 	C 	0.26913 0.48747 0.93767 -0.04400
C 	C 	0.22873 0.44047 0.91267 0.03800
N 	N 	0.26373 0.46797 0.88799 -0.18200
C 	C 	0.34433 0.54637 0.88457 0.06200
N 	N 	0.38483 0.59377 0.90927 -0.10700
C 	C 	0.34993 0.56627 0.93397 0.03700
H 	H 	0.37703 0.59747 0.94947 0.01600
H 	H 	0.36733 0.56397 0.86737 0.03600
H 	H 	0.17753 0.39017 0.91367 0.03100
C 	C 	0.11303 0.36507 0.99407 -0.22000
C 	C 	0.14703 0.39467 0.96817 -0.25600
C 	C 	0.28473 0.48707 0.98837 0.16200
C 	C 	0.25073 0.45727 0.01427 0.19900
H 	H 	0.05623 0.32467 0.99597 0.11800
H 	H 	0.11233 0.37367 0.95287 0.12800
H 	H 	0.34153 0.52767 0.98647 -0.03600
H 	H 	0.28503 0.47767 0.02957 -0.05000
Cu	Cu	0.54890 0.05360 0.52170 0.91300
C 	C 	0.45670 0.08420 0.47160 0.26100
O 	O 	0.48200 0.10500 0.49700 -0.32600
O 	O 	0.44600 0.01280 0.46140 -0.34900
C 	C 	0.36700 0.17160 0.42140 0.18200
C 	C 	0.38600 0.24700 0.43420 -0.15400
H 	H 	0.37800 0.28700 0.42500 0.10500
C 	C 	0.41800 0.26400 0.46090 0.03300
C 	C 	0.43000 0.20400 0.47480 -0.09200
H 	H 	0.45100 0.21400 0.49240 0.09900
C 	C 	0.41030 0.12710 0.46200 0.03000
C 	C 	0.37890 0.11110 0.43530 -0.16000
H 	H 	0.36600 0.06100 0.42680 0.12000
C 	C 	0.45900 0.34510 0.47770 0.26700
O 	O 	0.47500 0.35030 0.50400 -0.38900
O 	O 	0.43100 0.39230 0.46670 -0.37300
N 	N 	0.31970 0.15950 0.39700 -0.24600
C 	C 	0.30300 0.09700 0.37920 0.22100
O 	O 	0.34400 0.06000 0.37830 -0.23900
H 	H 	0.30000 0.19310 0.39250 0.13100
C 	C 	0.27040 0.10200 0.35050 -0.04900
C 	C 	0.26460 0.04570 0.33000 0.19400
C 	C 	0.23500 0.05010 0.30410 0.15400
C 	C 	0.21090 0.11050 0.29860 0.05100
C 	C 	0.21670 0.16680 0.31910 -0.24800
C 	C 	0.24640 0.16250 0.34500 -0.21500
H 	H 	0.28000 0.00510 0.33370 -0.03300
H 	H 	0.23100 0.01300 0.29060 -0.01900
H 	H 	0.20100 0.20700 0.31540 0.10900
H 	H 	0.25000 0.19950 0.35850 0.09100
C 	C 	0.17920 0.11500 0.27100 -0.04400
C 	C 	0.22620 0.12160 0.24600 0.03800
N 	N 	0.19870 0.12910 0.22132 -0.18200
C 	C 	0.12030 0.13130 0.21790 0.06200
N 	N 	0.07290 0.12440 0.24260 -0.10700
C 	C 	0.10040 0.11700 0.26730 0.03700
H 	H 	0.06920 0.11290 0.28280 0.01600
H 	H 	0.10270 0.13670 0.20070 0.03600
H 	H 	0.27650 0.12070 0.24700 0.03100
C 	C 	0.30160 0.08130 0.32740 -0.21300
C 	C 	0.27200 0.08570 0.30150 -0.24900
C 	C 	0.17960 0.13100 0.32170 0.15500
C 	C 	0.20940 0.12680 0.34760 0.19300
H 	H 	0.34200 0.06490 0.32930 0.11600
H 	H 	0.29300 0.07200 0.28620 0.12500
H 	H 	0.13900 0.14720 0.31980 -0.03400
H 	H 	0.18900 0.14070 0.36290 -0.04700
Cu	Cu	0.21557 0.38693 0.85503 0.91400
C 	C 	0.12337 0.41753 0.80493 0.26100
O 	O 	0.14867 0.43833 0.83033 -0.32600
O 	O 	0.11267 0.34613 0.79473 -0.34900
C 	C 	0.03367 0.50493 0.75473 0.18300
C 	C 	0.05267 0.58033 0.76753 -0.15500
H 	H 	0.04467 0.62033 0.75833 0.10500
C 	C 	0.08467 0.59733 0.79423 0.03400
C 	C 	0.09667 0.53733 0.80813 -0.09200
H 	H 	0.11767 0.54733 0.82573 0.09900
C 	C 	0.07697 0.46043 0.79533 0.03000
C 	C 	0.04557 0.44443 0.76863 -0.16000
H 	H 	0.03267 0.39433 0.76013 0.12100
C 	C 	0.12567 0.67843 0.81103 0.26700
O 	O 	0.14167 0.68363 0.83733 -0.38900
O 	O 	0.09767 0.72563 0.80003 -0.37300
N 	N 	0.98637 0.49283 0.73033 -0.24700
C 	C 	0.96967 0.43033 0.71253 0.21900
O 	O 	0.01067 0.39333 0.71163 -0.23800
H 	H 	0.96667 0.52643 0.72583 0.13100
C 	C 	0.93707 0.43533 0.68383 -0.04800
C 	C 	0.93127 0.37903 0.66333 0.17800
C 	C 	0.90167 0.38343 0.63743 0.14000
C 	C 	0.87757 0.44383 0.63193 0.05100
C 	C 	0.88337 0.50013 0.65243 -0.23600
C 	C 	0.91307 0.49583 0.67833 -0.20300
H 	H 	0.94667 0.33843 0.66703 -0.02900
H 	H 	0.89767 0.34633 0.62393 -0.01500
H 	H 	0.86767 0.54033 0.64873 0.10500
H 	H 	0.91667 0.53283 0.69183 0.08700
C 	C 	0.84587 0.44833 0.60433 -0.04400
C 	C 	0.89287 0.45493 0.57933 0.03800
N 	N 	0.86537 0.46243 0.55465 -0.18200
C 	C 	0.78697 0.46463 0.55123 0.06200
N 	N 	0.73957 0.45773 0.57593 -0.10700
C 	C 	0.76707 0.45033 0.60063 0.03700
H 	H 	0.73587 0.44623 0.61613 0.01600
H 	H 	0.76937 0.47003 0.53403 0.03600
H 	H 	0.94317 0.45403 0.58033 0.03000
C 	C 	0.96827 0.41463 0.66073 -0.19800
C 	C 	0.93867 0.41903 0.63483 -0.23500
C 	C 	0.84627 0.46433 0.65503 0.14300
C 	C 	0.87607 0.46013 0.68093 0.18100
H 	H 	0.00867 0.39823 0.66263 0.11200
H 	H 	0.95967 0.40533 0.61953 0.12000
H 	H 	0.80567 0.48053 0.65313 -0.03000
H 	H 	0.85567 0.47403 0.69623 -0.04300
Cu	Cu	0.88223 0.72027 0.18837 0.91400
C 	C 	0.79003 0.75087 0.13827 0.26100
O 	O 	0.81533 0.77167 0.16367 -0.32600
O 	O 	0.77933 0.67947 0.12807 -0.35000
C 	C 	0.70033 0.83827 0.08807 0.18100
C 	C 	0.71933 0.91367 0.10087 -0.15300
H 	H 	0.71133 0.95367 0.09167 0.10400
C 	C 	0.75133 0.93067 0.12757 0.03200
C 	C 	0.76333 0.87067 0.14147 -0.09100
H 	H 	0.78433 0.88067 0.15907 0.09800
C 	C 	0.74363 0.79377 0.12867 0.02900
C 	C 	0.71223 0.77777 0.10197 -0.15900
H 	H 	0.69933 0.72767 0.09347 0.12000
C 	C 	0.79233 0.01177 0.14437 0.26800
O 	O 	0.80833 0.01697 0.17067 -0.38900
O 	O 	0.76433 0.05897 0.13337 -0.37300
N 	N 	0.65303 0.82617 0.06367 -0.24600
C 	C 	0.63633 0.76367 0.04587 0.22100
O 	O 	0.67733 0.72667 0.04497 -0.23900
H 	H 	0.63333 0.85977 0.05917 0.13100
C 	C 	0.60373 0.76867 0.01717 -0.04900
C 	C 	0.59793 0.71237 0.99667 0.20100
C 	C 	0.56833 0.71677 0.97077 0.16100
C 	C 	0.54423 0.77717 0.96527 0.05100
C 	C 	0.55003 0.83347 0.98577 -0.25500
C 	C 	0.57973 0.82917 0.01167 -0.22100
H 	H 	0.61333 0.67177 0.00037 -0.03500
H 	H 	0.56433 0.67967 0.95727 -0.02100
H 	H 	0.53433 0.87367 0.98207 0.11100
H 	H 	0.58333 0.86617 0.02517 0.09400
C 	C 	0.51253 0.78167 0.93767 -0.04400
C 	C 	0.55953 0.78827 0.91267 0.03800
N 	N 	0.53203 0.79577 0.88799 -0.18200
C 	C 	0.45363 0.79797 0.88457 0.06200
N 	N 	0.40623 0.79107 0.90927 -0.10700
C 	C 	0.43373 0.78367 0.93397 0.03700
H 	H 	0.40253 0.77957 0.94947 0.01600
H 	H 	0.43603 0.80337 0.86737 0.03600
H 	H 	0.60983 0.78737 0.91367 0.03100
C 	C 	0.63493 0.74797 0.99407 -0.22000
C 	C 	0.60533 0.75237 0.96817 -0.25600
C 	C 	0.51293 0.79767 0.98837 0.16200
C 	C 	0.54273 0.79347 0.01427 0.19900
H 	H 	0.67533 0.73157 0.99597 0.11800
H 	H 	0.62633 0.73867 0.95287 0.12700
H 	H 	0.47233 0.81387 0.98647 -0.03600
H 	H 	0.52233 0.80737 0.02957 -0.05000
Cu	Cu	0.94640 0.49530 0.52170 0.91300
C 	C 	0.91580 0.37250 0.47160 0.26100
O 	O 	0.89500 0.37700 0.49700 -0.32600
O 	O 	0.98720 0.43320 0.46140 -0.34900
C 	C 	0.82840 0.19540 0.42140 0.18100
C 	C 	0.75300 0.13900 0.43420 -0.15400
H 	H 	0.71300 0.09100 0.42500 0.10500
C 	C 	0.73600 0.15400 0.46090 0.03300
C 	C 	0.79600 0.22600 0.47480 -0.09200
H 	H 	0.78600 0.23700 0.49240 0.09900
C 	C 	0.87290 0.28320 0.46200 0.03000
C 	C 	0.88890 0.26780 0.43530 -0.16000
H 	H 	0.93900 0.30500 0.42680 0.12000
C 	C 	0.65490 0.11390 0.47770 0.26700
O 	O 	0.64970 0.12470 0.50400 -0.38900
O 	O 	0.60770 0.03870 0.46670 -0.37300
N 	N 	0.84050 0.16020 0.39700 -0.24600
C 	C 	0.90300 0.20600 0.37920 0.22100
O 	O 	0.94000 0.28400 0.37830 -0.23900
H 	H 	0.80690 0.10690 0.39250 0.13100
C 	C 	0.89800 0.16840 0.35050 -0.04800
C 	C 	0.95430 0.21890 0.33000 0.19100
C 	C 	0.94990 0.18490 0.30410 0.15200
C 	C 	0.88950 0.10040 0.29860 0.05000
C 	C 	0.83320 0.04990 0.31910 -0.24300
C 	C 	0.83750 0.08390 0.34500 -0.21200
H 	H 	0.99490 0.27490 0.33370 -0.03200
H 	H 	0.98700 0.21800 0.29060 -0.01800
H 	H 	0.79300 0.99400 0.31540 0.10600
H 	H 	0.80050 0.05050 0.35850 0.09100
C 	C 	0.88500 0.06420 0.27100 -0.04200
C 	C 	0.87840 0.10460 0.24600 0.03700
N 	N 	0.87090 0.06960 0.22132 -0.18100
C 	C 	0.86870 0.98900 0.21790 0.06000
N 	N 	0.87560 0.94850 0.24260 -0.10600
C 	C 	0.88300 0.98340 0.26730 0.03500
H 	H 	0.88710 0.95630 0.28280 0.01700
H 	H 	0.86330 0.96600 0.20070 0.03600
H 	H 	0.87930 0.15580 0.24700 0.03100
C 	C 	0.91870 0.22030 0.32740 -0.21000
C 	C 	0.91430 0.18630 0.30150 -0.24600
C 	C 	0.86900 0.04860 0.32170 0.15400
C 	C 	0.87320 0.08260 0.34760 0.18900
H 	H 	0.93510 0.27710 0.32930 0.11500
H 	H 	0.92800 0.22100 0.28620 0.12400
H 	H 	0.85280 0.99180 0.31980 -0.03400
H 	H 	0.85930 0.04830 0.36290 -0.04600
Cu	Cu	0.61307 0.82863 0.85503 0.91400
C 	C 	0.58247 0.70583 0.80493 0.26100
O 	O 	0.56167 0.71033 0.83033 -0.32600
O 	O 	0.65387 0.76653 0.79473 -0.34900
C 	C 	0.49507 0.52873 0.75473 0.18100
C 	C 	0.41967 0.47233 0.76753 -0.15400
H 	H 	0.37967 0.42433 0.75833 0.10500
C 	C 	0.40267 0.48733 0.79423 0.03300
C 	C 	0.46267 0.55933 0.80813 -0.09200
H 	H 	0.45267 0.57033 0.82573 0.09900
C 	C 	0.53957 0.61653 0.79533 0.03000
C 	C 	0.55557 0.60113 0.76863 -0.16000
H 	H 	0.60567 0.63833 0.76013 0.12000
C 	C 	0.32157 0.44723 0.81103 0.26700
O 	O 	0.31637 0.45803 0.83733 -0.38900
O 	O 	0.27437 0.37203 0.80003 -0.37300
N 	N 	0.50717 0.49353 0.73033 -0.24600
C 	C 	0.56967 0.53933 0.71253 0.22100
O 	O 	0.60667 0.61733 0.71163 -0.24000
H 	H 	0.47357 0.44023 0.72583 0.13100
C 	C 	0.56467 0.50173 0.68383 -0.04900
C 	C 	0.62097 0.55223 0.66333 0.19700
C 	C 	0.61657 0.51823 0.63743 0.15700
C 	C 	0.55617 0.43373 0.63193 0.05100
C 	C 	0.49987 0.38323 0.65243 -0.25100
C 	C 	0.50417 0.41723 0.67833 -0.21700
H 	H 	0.66157 0.60823 0.66703 -0.03400
H 	H 	0.65367 0.55133 0.62393 -0.02000
H 	H 	0.45967 0.32733 0.64873 0.11000
H 	H 	0.46717 0.38383 0.69183 0.09200
C 	C 	0.55167 0.39753 0.60433 -0.04400
C 	C 	0.54507 0.43793 0.57933 0.03800
N 	N 	0.53757 0.40293 0.55465 -0.18200
C 	C 	0.53537 0.32233 0.55123 0.06200
N 	N 	0.54227 0.28183 0.57593 -0.10700
C 	C 	0.54967 0.31673 0.60063 0.03600
H 	H 	0.55377 0.28963 0.61613 0.01700
H 	H 	0.52997 0.29933 0.53403 0.03600
H 	H 	0.54597 0.48913 0.58033 0.03100
C 	C 	0.58537 0.55363 0.66073 -0.21600
C 	C 	0.58097 0.51963 0.63483 -0.25200
C 	C 	0.53567 0.38193 0.65503 0.15800
C 	C 	0.53987 0.41593 0.68093 0.19500
H 	H 	0.60177 0.61043 0.66263 0.11600
H 	H 	0.59467 0.55433 0.61953 0.12600
H 	H 	0.51947 0.32513 0.65313 -0.03400
H 	H 	0.52597 0.38163 0.69623 -0.04800
Cu	Cu	0.27973 0.16197 0.18837 0.91400
C 	C 	0.24913 0.03917 0.13827 0.26200
O 	O 	0.22833 0.04367 0.16367 -0.32600
O 	O 	0.32053 0.09987 0.12807 -0.35000
C 	C 	0.16173 0.86207 0.08807 0.18000
C 	C 	0.08633 0.80567 0.10087 -0.15300
H 	H 	0.04633 0.75767 0.09167 0.10400
C 	C 	0.06933 0.82067 0.12757 0.03100
C 	C 	0.12933 0.89267 0.14147 -0.09000
H 	H 	0.11933 0.90367 0.15907 0.09800
C 	C 	0.20623 0.94987 0.12867 0.02800
C 	C 	0.22223 0.93447 0.10197 -0.15800
H 	H 	0.27233 0.97167 0.09347 0.11900
C 	C 	0.98823 0.78057 0.14437 0.26800
O 	O 	0.98303 0.79137 0.17067 -0.38900
O 	O 	0.94103 0.70537 0.13337 -0.37300
N 	N 	0.17383 0.82687 0.06367 -0.24600
C 	C 	0.23633 0.87267 0.04587 0.22100
O 	O 	0.27333 0.95067 0.04497 -0.24000
H 	H 	0.14023 0.77357 0.05917 0.13100
C 	C 	0.23133 0.83507 0.01717 -0.04900
C 	C 	0.28763 0.88557 0.99667 0.20100
C 	C 	0.28323 0.85157 0.97077 0.16100
C 	C 	0.22283 0.76707 0.96527 0.05100
C 	C 	0.16653 0.71657 0.98577 -0.25500
C 	C 	0.17083 0.75057 0.01167 -0.22100
H 	H 	0.32823 0.94157 0.00037 -0.03600
H 	H 	0.32033 0.88467 0.95727 -0.02100
H 	H 	0.12633 0.66067 0.98207 0.11100
H 	H 	0.13383 0.71717 0.02517 0.09400
C 	C 	0.21833 0.73087 0.93767 -0.04400
C 	C 	0.21173 0.77127 0.91267 0.03800
N 	N 	0.20423 0.73627 0.88799 -0.18200
C 	C 	0.20203 0.65567 0.88457 0.06200
N 	N 	0.20893 0.61517 0.90927 -0.10700
C 	C 	0.21633 0.65007 0.93397 0.03700
H 	H 	0.22043 0.62297 0.94947 0.01600
H 	H 	0.19663 0.63267 0.86737 0.03600
H 	H 	0.21263 0.82247 0.91367 0.03100
C 	C 	0.25203 0.88697 0.99407 -0.22000
C 	C 	0.24763 0.85297 0.96817 -0.25600
C 	C 	0.20233 0.71527 0.98837 0.16200
C 	C 	0.20653 0.74927 0.01427 0.20000
H 	H 	0.26843 0.94377 0.99597 0.11800
H 	H 	0.26133 0.88767 0.95287 0.12800
H 	H 	0.18613 0.65847 0.98647 -0.03600
H 	H 	0.19263 0.71497 0.02957 -0.05000
Cu	Cu	0.45110 0.50470 0.47830 0.91400
C 	C 	0.54330 0.62750 0.52840 0.26100
O 	O 	0.51800 0.62300 0.50300 -0.32600
O 	O 	0.55400 0.56680 0.53860 -0.34900
C 	C 	0.63300 0.80460 0.57860 0.18100
C 	C 	0.61400 0.86100 0.56580 -0.15400
H 	H 	0.62200 0.90900 0.57500 0.10500
C 	C 	0.58200 0.84600 0.53910 0.03300
C 	C 	0.57000 0.77400 0.52520 -0.09200
H 	H 	0.54900 0.76300 0.50760 0.09900
C 	C 	0.58970 0.71680 0.53800 0.03000
C 	C 	0.62110 0.73220 0.56470 -0.16000
H 	H 	0.63400 0.69500 0.57320 0.12000
C 	C 	0.54100 0.88610 0.52230 0.26700
O 	O 	0.52500 0.87530 0.49600 -0.38900
O 	O 	0.56900 0.96130 0.53330 -0.37300
N 	N 	0.68030 0.83980 0.60300 -0.24600
C 	C 	0.69700 0.79400 0.62080 0.22000
O 	O 	0.65600 0.71600 0.62170 -0.24000
H 	H 	0.70000 0.89310 0.60750 0.13100
C 	C 	0.72960 0.83160 0.64950 -0.04800
C 	C 	0.73540 0.78110 0.67000 0.19800
C 	C 	0.76500 0.81510 0.69590 0.15900
C 	C 	0.78910 0.89960 0.70140 0.04900
C 	C 	0.78330 0.95010 0.68090 -0.25000
C 	C 	0.75360 0.91610 0.65500 -0.21900
H 	H 	0.72000 0.72510 0.66630 -0.03400
H 	H 	0.76900 0.78200 0.70940 -0.02100
H 	H 	0.79900 0.00600 0.68460 0.10900
H 	H 	0.75000 0.94950 0.64150 0.09300
C 	C 	0.82080 0.93580 0.72900 -0.04100
C 	C 	0.77380 0.89540 0.75400 0.03700
N 	N 	0.80130 0.93040 0.77868 -0.18100
C 	C 	0.87970 0.01100 0.78210 0.06000
N 	N 	0.92710 0.05150 0.75740 -0.10700
C 	C 	0.89960 0.01660 0.73270 0.03400
H 	H 	0.93080 0.04370 0.71720 0.01700
H 	H 	0.89730 0.03400 0.79930 0.03600
H 	H 	0.72350 0.84420 0.75300 0.03100
C 	C 	0.69840 0.77970 0.67260 -0.21700
C 	C 	0.72800 0.81370 0.69850 -0.25300
C 	C 	0.82040 0.95140 0.67830 0.16100
C 	C 	0.79060 0.91740 0.65240 0.19600
H 	H 	0.65800 0.72290 0.67070 0.11700
H 	H 	0.70700 0.77900 0.71380 0.12600
H 	H 	0.86100 0.00820 0.68020 -0.03600
H 	H 	0.81100 0.95170 0.63710 -0.04800
Cu	Cu	0.11777 0.83803 0.81163 0.91400
C 	C 	0.20997 0.96083 0.86173 0.26200
O 	O 	0.18467 0.95633 0.83633 -0.32600
O 	O 	0.22067 0.90013 0.87193 -0.35000
C 	C 	0.29967 0.13793 0.91193 0.18100
C 	C 	0.28067 0.19433 0.89913 -0.15400
H 	H 	0.28867 0.24233 0.90833 0.10400
C 	C 	0.24867 0.17933 0.87243 0.03300
C 	C 	0.23667 0.10733 0.85853 -0.09100
H 	H 	0.21567 0.09633 0.84093 0.09800
C 	C 	0.25637 0.05013 0.87133 0.02800
C 	C 	0.28777 0.06553 0.89803 -0.15900
H 	H 	0.30067 0.02833 0.90653 0.12000
C 	C 	0.20767 0.21943 0.85563 0.26700
O 	O 	0.19167 0.20863 0.82933 -0.38900
O 	O 	0.23567 0.29463 0.86663 -0.37300
N 	N 	0.34697 0.17313 0.93633 -0.24600
C 	C 	0.36367 0.12733 0.95413 0.22100
O 	O 	0.32267 0.04933 0.95503 -0.24000
H 	H 	0.36667 0.22643 0.94083 0.13100
C 	C 	0.39627 0.16493 0.98283 -0.04900
C 	C 	0.40207 0.11443 0.00333 0.20100
C 	C 	0.43167 0.14843 0.02923 0.16100
C 	C 	0.45577 0.23293 0.03473 0.05100
C 	C 	0.44997 0.28343 0.01423 -0.25500
C 	C 	0.42027 0.24943 0.98833 -0.22100
H 	H 	0.38667 0.05843 0.99963 -0.03500
H 	H 	0.43567 0.11533 0.04273 -0.02100
H 	H 	0.46567 0.33933 0.01793 0.11100
H 	H 	0.41667 0.28283 0.97483 0.09400
C 	C 	0.48747 0.26913 0.06233 -0.04400
C 	C 	0.44047 0.22873 0.08733 0.03800
N 	N 	0.46797 0.26373 0.11201 -0.18200
C 	C 	0.54637 0.34433 0.11543 0.06200
N 	N 	0.59377 0.38483 0.09073 -0.10700
C 	C 	0.56627 0.34993 0.06603 0.03700
H 	H 	0.59747 0.37703 0.05053 0.01600
H 	H 	0.56397 0.36733 0.13263 0.03600
H 	H 	0.39017 0.17753 0.08633 0.03100
C 	C 	0.36507 0.11303 0.00593 -0.22000
C 	C 	0.39467 0.14703 0.03183 -0.25600
C 	C 	0.48707 0.28473 0.01163 0.16200
C 	C 	0.45727 0.25073 0.98573 0.19900
H 	H 	0.32467 0.05623 0.00403 0.11800
H 	H 	0.37367 0.11233 0.04713 0.12800
H 	H 	0.52767 0.34153 0.01353 -0.03600
H 	H 	0.47767 0.28503 0.97043 -0.05000
Cu	Cu	0.78443 0.17137 0.14497 0.91400
C 	C 	0.87663 0.29417 0.19507 0.26100
O 	O 	0.85133 0.28967 0.16967 -0.32600
O 	O 	0.88733 0.23347 0.20527 -0.34900
C 	C 	0.96633 0.47127 0.24527 0.18300
C 	C 	0.94733 0.52767 0.23247 -0.15500
H 	H 	0.95533 0.57567 0.24167 0.10500
C 	C 	0.91533 0.51267 0.20577 0.03400
C 	C 	0.90333 0.44067 0.19187 -0.09200
H 	H 	0.88233 0.42967 0.17427 0.09900
C 	C 	0.92303 0.38347 0.20467 0.03000
C 	C 	0.95443 0.39887 0.23137 -0.16000
H 	H 	0.96733 0.36167 0.23987 0.12100
C 	C 	0.87433 0.55277 0.18897 0.26700
O 	O 	0.85833 0.54197 0.16267 -0.38900
O 	O 	0.90233 0.62797 0.19997 -0.37300
N 	N 	0.01363 0.50647 0.26967 -0.24700
C 	C 	0.03033 0.46067 0.28747 0.21900
O 	O 	0.98933 0.38267 0.28837 -0.23800
H 	H 	0.03333 0.55977 0.27417 0.13100
C 	C 	0.06293 0.49827 0.31617 -0.04800
C 	C 	0.06873 0.44777 0.33667 0.17800
C 	C 	0.09833 0.48177 0.36257 0.14100
C 	C 	0.12243 0.56627 0.36807 0.05100
C 	C 	0.11663 0.61677 0.34757 -0.23700
C 	C 	0.08693 0.58277 0.32167 -0.20300
H 	H 	0.05333 0.39177 0.33297 -0.02900
H 	H 	0.10233 0.44867 0.37607 -0.01500
H 	H 	0.13233 0.67267 0.35127 0.10500
H 	H 	0.08333 0.61617 0.30817 0.08700
C 	C 	0.15413 0.60247 0.39567 -0.04400
C 	C 	0.10713 0.56207 0.42067 0.03700
N 	N 	0.13463 0.59707 0.44535 -0.18200
C 	C 	0.21303 0.67767 0.44877 0.06200
N 	N 	0.26043 0.71817 0.42407 -0.10700
C 	C 	0.23293 0.68327 0.39937 0.03700
H 	H 	0.26413 0.71037 0.38387 0.01700
H 	H 	0.23063 0.70067 0.46597 0.03600
H 	H 	0.05683 0.51087 0.41967 0.03000
C 	C 	0.03173 0.44637 0.33927 -0.19800
C 	C 	0.06133 0.48037 0.36517 -0.23500
C 	C 	0.15373 0.61807 0.34497 0.14400
C 	C 	0.12393 0.58407 0.31907 0.18100
H 	H 	0.99133 0.38957 0.33737 0.11200
H 	H 	0.04033 0.44567 0.38047 0.12000
H 	H 	0.19433 0.67487 0.34687 -0.02900
H 	H 	0.14433 0.61837 0.30377 -0.04300
Cu	Cu	0.05360 0.54890 0.47830 0.91300
C 	C 	0.08420 0.45670 0.52840 0.26100
O 	O 	0.10500 0.48200 0.50300 -0.32600
O 	O 	0.01280 0.44600 0.53860 -0.34900
C 	C 	0.17160 0.36700 0.57860 0.18200
C 	C 	0.24700 0.38600 0.56580 -0.15400
H 	H 	0.28700 0.37800 0.57500 0.10500
C 	C 	0.26400 0.41800 0.53910 0.03300
C 	C 	0.20400 0.43000 0.52520 -0.09200
H 	H 	0.21400 0.45100 0.50760 0.09900
C 	C 	0.12710 0.41030 0.53800 0.03000
C 	C 	0.11110 0.37890 0.56470 -0.16000
H 	H 	0.06100 0.36600 0.57320 0.12000
C 	C 	0.34510 0.45900 0.52230 0.26700
O 	O 	0.35030 0.47500 0.49600 -0.38900
O 	O 	0.39230 0.43100 0.53330 -0.37300
N 	N 	0.15950 0.31970 0.60300 -0.24600
C 	C 	0.09700 0.30300 0.62080 0.22100
O 	O 	0.06000 0.34400 0.62170 -0.23900
H 	H 	0.19310 0.30000 0.60750 0.13100
C 	C 	0.10200 0.27040 0.64950 -0.04900
C 	C 	0.04570 0.26460 0.67000 0.19400
C 	C 	0.05010 0.23500 0.69590 0.15400
C 	C 	0.11050 0.21090 0.70140 0.05100
C 	C 	0.16680 0.21670 0.68090 -0.24800
C 	C 	0.16250 0.24640 0.65500 -0.21500
H 	H 	0.00510 0.28000 0.66630 -0.03300
H 	H 	0.01300 0.23100 0.70940 -0.01900
H 	H 	0.20700 0.20100 0.68460 0.10900
H 	H 	0.19950 0.25000 0.64150 0.09100
C 	C 	0.11500 0.17920 0.72900 -0.04400
C 	C 	0.12160 0.22620 0.75400 0.03800
N 	N 	0.12910 0.19870 0.77868 -0.18200
C 	C 	0.13130 0.12030 0.78210 0.06200
N 	N 	0.12440 0.07290 0.75740 -0.10700
C 	C 	0.11700 0.10040 0.73270 0.03700
H 	H 	0.11290 0.06920 0.71720 0.01600
H 	H 	0.13670 0.10270 0.79930 0.03600
H 	H 	0.12070 0.27650 0.75300 0.03100
C 	C 	0.08130 0.30160 0.67260 -0.21300
C 	C 	0.08570 0.27200 0.69850 -0.24900
C 	C 	0.13100 0.17960 0.67830 0.15500
C 	C 	0.12680 0.20940 0.65240 0.19300
H 	H 	0.06490 0.34200 0.67070 0.11600
H 	H 	0.07200 0.29300 0.71380 0.12500
H 	H 	0.14720 0.13900 0.68020 -0.03400
H 	H 	0.14070 0.18900 0.63710 -0.04700
Cu	Cu	0.72027 0.88223 0.81163 0.91400
C 	C 	0.75087 0.79003 0.86173 0.26100
O 	O 	0.77167 0.81533 0.83633 -0.32600
O 	O 	0.67947 0.77933 0.87193 -0.35000
C 	C 	0.83827 0.70033 0.91193 0.18100
C 	C 	0.91367 0.71933 0.89913 -0.15300
H 	H 	0.95367 0.71133 0.90833 0.10400
C 	C 	0.93067 0.75133 0.87243 0.03200
C 	C 	0.87067 0.76333 0.85853 -0.09100
H 	H 	0.88067 0.78433 0.84093 0.09800
C 	C 	0.79377 0.74363 0.87133 0.02900
C 	C 	0.77777 0.71223 0.89803 -0.15900
H 	H 	0.72767 0.69933 0.90653 0.12000
C 	C 	0.01177 0.79233 0.85563 0.26800
O 	O 	0.01697 0.80833 0.82933 -0.38900
O 	O 	0.05897 0.76433 0.86663 -0.37300
N 	N 	0.82617 0.65303 0.93633 -0.24600
C 	C 	0.76367 0.63633 0.95413 0.22100
O 	O 	0.72667 0.67733 0.95503 -0.23900
H 	H 	0.85977 0.63333 0.94083 0.13100
C 	C 	0.76867 0.60373 0.98283 -0.04900
C 	C 	0.71237 0.59793 0.00333 0.20100
C 	C 	0.71677 0.56833 0.02923 0.16100
C 	C 	0.77717 0.54423 0.03473 0.05100
C 	C 	0.83347 0.55003 0.01423 -0.25500
C 	C 	0.82917 0.57973 0.98833 -0.22100
H 	H 	0.67177 0.61333 0.99963 -0.03500
H 	H 	0.67967 0.56433 0.04273 -0.02100
H 	H 	0.87367 0.53433 0.01793 0.11100
H 	H 	0.86617 0.58333 0.97483 0.09400
C 	C 	0.78167 0.51253 0.06233 -0.04400
C 	C 	0.78827 0.55953 0.08733 0.03800
N 	N 	0.79577 0.53203 0.11201 -0.18200
C 	C 	0.79797 0.45363 0.11543 0.06200
N 	N 	0.79107 0.40623 0.09073 -0.10700
C 	C 	0.78367 0.43373 0.06603 0.03700
H 	H 	0.77957 0.40253 0.05053 0.01600
H 	H 	0.80337 0.43603 0.13263 0.03600
H 	H 	0.78737 0.60983 0.08633 0.03100
C 	C 	0.74797 0.63493 0.00593 -0.22000
C 	C 	0.75237 0.60533 0.03183 -0.25600
C 	C 	0.79767 0.51293 0.01163 0.16200
C 	C 	0.79347 0.54273 0.98573 0.19900
H 	H 	0.73157 0.67533 0.00403 0.11800
H 	H 	0.73867 0.62633 0.04713 0.12700
H 	H 	0.81387 0.47233 0.01353 -0.03600
H 	H 	0.80737 0.52233 0.97043 -0.05000
Cu	Cu	0.38693 0.21557 0.14497 0.91400
C 	C 	0.41753 0.12337 0.19507 0.26100
O 	O 	0.43833 0.14867 0.16967 -0.32600
O 	O 	0.34613 0.11267 0.20527 -0.34900
C 	C 	0.50493 0.03367 0.24527 0.18300
C 	C 	0.58033 0.05267 0.23247 -0.15500
H 	H 	0.62033 0.04467 0.24167 0.10500
C 	C 	0.59733 0.08467 0.20577 0.03400
C 	C 	0.53733 0.09667 0.19187 -0.09200
H 	H 	0.54733 0.11767 0.17427 0.09900
C 	C 	0.46043 0.07697 0.20467 0.03000
C 	C 	0.44443 0.04557 0.23137 -0.16000
H 	H 	0.39433 0.03267 0.23987 0.12100
C 	C 	0.67843 0.12567 0.18897 0.26700
O 	O 	0.68363 0.14167 0.16267 -0.38900
O 	O 	0.72563 0.09767 0.19997 -0.37300
N 	N 	0.49283 0.98637 0.26967 -0.24700
C 	C 	0.43033 0.96967 0.28747 0.21900
O 	O 	0.39333 0.01067 0.28837 -0.23800
H 	H 	0.52643 0.96667 0.27417 0.13100
C 	C 	0.43533 0.93707 0.31617 -0.04800
C 	C 	0.37903 0.93127 0.33667 0.17800
C 	C 	0.38343 0.90167 0.36257 0.14000
C 	C 	0.44383 0.87757 0.36807 0.05100
C 	C 	0.50013 0.88337 0.34757 -0.23600
C 	C 	0.49583 0.91307 0.32167 -0.20300
H 	H 	0.33843 0.94667 0.33297 -0.02900
H 	H 	0.34633 0.89767 0.37607 -0.01500
H 	H 	0.54033 0.86767 0.35127 0.10500
H 	H 	0.53283 0.91667 0.30817 0.08700
C 	C 	0.44833 0.84587 0.39567 -0.04400
C 	C 	0.45493 0.89287 0.42067 0.03800
N 	N 	0.46243 0.86537 0.44535 -0.18200
C 	C 	0.46463 0.78697 0.44877 0.06200
N 	N 	0.45773 0.73957 0.42407 -0.10700
C 	C 	0.45033 0.76707 0.39937 0.03700
H 	H 	0.44623 0.73587 0.38387 0.01600
H 	H 	0.47003 0.76937 0.46597 0.03600
H 	H 	0.45403 0.94317 0.41967 0.03000
C 	C 	0.41463 0.96827 0.33927 -0.19800
C 	C 	0.41903 0.93867 0.36517 -0.23500
C 	C 	0.46433 0.84627 0.34497 0.14300
C 	C 	0.46013 0.87607 0.31907 0.18100
H 	H 	0.39823 0.00867 0.33737 0.11200
H 	H 	0.40533 0.95967 0.38047 0.12000
H 	H 	0.48053 0.80567 0.34687 -0.03000
H 	H 	0.47403 0.85567 0.30377 -0.04300
Cu	Cu	0.49530 0.94640 0.47830 0.91300
C 	C 	0.37250 0.91580 0.52840 0.26100
O 	O 	0.37700 0.89500 0.50300 -0.32600
O 	O 	0.43320 0.98720 0.53860 -0.34900
C 	C 	0.19540 0.82840 0.57860 0.18100
C 	C 	0.13900 0.75300 0.56580 -0.15400
H 	H 	0.09100 0.71300 0.57500 0.10500
C 	C 	0.15400 0.73600 0.53910 0.03300
C 	C 	0.22600 0.79600 0.52520 -0.09200
H 	H 	0.23700 0.78600 0.50760 0.09900
C 	C 	0.28320 0.87290 0.53800 0.03000
C 	C 	0.26780 0.88890 0.56470 -0.16000
H 	H 	0.30500 0.93900 0.57320 0.12000
C 	C 	0.11390 0.65490 0.52230 0.26700
O 	O 	0.12470 0.64970 0.49600 -0.38900
O 	O 	0.03870 0.60770 0.53330 -0.37300
N 	N 	0.16020 0.84050 0.60300 -0.24600
C 	C 	0.20600 0.90300 0.62080 0.22100
O 	O 	0.28400 0.94000 0.62170 -0.23900
H 	H 	0.10690 0.80690 0.60750 0.13100
C 	C 	0.16840 0.89800 0.64950 -0.04800
C 	C 	0.21890 0.95430 0.67000 0.19100
C 	C 	0.18490 0.94990 0.69590 0.15200
C 	C 	0.10040 0.88950 0.70140 0.05000
C 	C 	0.04990 0.83320 0.68090 -0.24300
C 	C 	0.08390 0.83750 0.65500 -0.21200
H 	H 	0.27490 0.99490 0.66630 -0.03200
H 	H 	0.21800 0.98700 0.70940 -0.01800
H 	H 	0.99400 0.79300 0.68460 0.10600
H 	H 	0.05050 0.80050 0.64150 0.09100
C 	C 	0.06420 0.88500 0.72900 -0.04200
C 	C 	0.10460 0.87840 0.75400 0.03700
N 	N 	0.06960 0.87090 0.77868 -0.18100
C 	C 	0.98900 0.86870 0.78210 0.06000
N 	N 	0.94850 0.87560 0.75740 -0.10600
C 	C 	0.98340 0.88300 0.73270 0.03500
H 	H 	0.95630 0.88710 0.71720 0.01700
H 	H 	0.96600 0.86330 0.79930 0.03600
H 	H 	0.15580 0.87930 0.75300 0.03100
C 	C 	0.22030 0.91870 0.67260 -0.21000
C 	C 	0.18630 0.91430 0.69850 -0.24600
C 	C 	0.04860 0.86900 0.67830 0.15400
C 	C 	0.08260 0.87320 0.65240 0.18900
H 	H 	0.27710 0.93510 0.67070 0.11500
H 	H 	0.22100 0.92800 0.71380 0.12400
H 	H 	0.99180 0.85280 0.68020 -0.03400
H 	H 	0.04830 0.85930 0.63710 -0.04600
Cu	Cu	0.16197 0.27973 0.81163 0.91400
C 	C 	0.03917 0.24913 0.86173 0.26200
O 	O 	0.04367 0.22833 0.83633 -0.32600
O 	O 	0.09987 0.32053 0.87193 -0.35000
C 	C 	0.86207 0.16173 0.91193 0.18000
C 	C 	0.80567 0.08633 0.89913 -0.15300
H 	H 	0.75767 0.04633 0.90833 0.10400
C 	C 	0.82067 0.06933 0.87243 0.03100
C 	C 	0.89267 0.12933 0.85853 -0.09000
H 	H 	0.90367 0.11933 0.84093 0.09800
C 	C 	0.94987 0.20623 0.87133 0.02800
C 	C 	0.93447 0.22223 0.89803 -0.15800
H 	H 	0.97167 0.27233 0.90653 0.11900
C 	C 	0.78057 0.98823 0.85563 0.26800
O 	O 	0.79137 0.98303 0.82933 -0.38900
O 	O 	0.70537 0.94103 0.86663 -0.37300
N 	N 	0.82687 0.17383 0.93633 -0.24600
C 	C 	0.87267 0.23633 0.95413 0.22100
O 	O 	0.95067 0.27333 0.95503 -0.24000
H 	H 	0.77357 0.14023 0.94083 0.13100
C 	C 	0.83507 0.23133 0.98283 -0.04900
C 	C 	0.88557 0.28763 0.00333 0.20100
C 	C 	0.85157 0.28323 0.02923 0.16100
C 	C 	0.76707 0.22283 0.03473 0.05100
C 	C 	0.71657 0.16653 0.01423 -0.25500
C 	C 	0.75057 0.17083 0.98833 -0.22100
H 	H 	0.94157 0.32823 0.99963 -0.03600
H 	H 	0.88467 0.32033 0.04273 -0.02100
H 	H 	0.66067 0.12633 0.01793 0.11100
H 	H 	0.71717 0.13383 0.97483 0.09400
C 	C 	0.73087 0.21833 0.06233 -0.04400
C 	C 	0.77127 0.21173 0.08733 0.03800
N 	N 	0.73627 0.20423 0.11201 -0.18200
C 	C 	0.65567 0.20203 0.11543 0.06200
N 	N 	0.61517 0.20893 0.09073 -0.10700
C 	C 	0.65007 0.21633 0.06603 0.03700
H 	H 	0.62297 0.22043 0.05053 0.01600
H 	H 	0.63267 0.19663 0.13263 0.03600
H 	H 	0.82247 0.21263 0.08633 0.03100
C 	C 	0.88697 0.25203 0.00593 -0.22000
C 	C 	0.85297 0.24763 0.03183 -0.25600
C 	C 	0.71527 0.20233 0.01163 0.16200
C 	C 	0.74927 0.20653 0.98573 0.20000
H 	H 	0.94377 0.26843 0.00403 0.11800
H 	H 	0.88767 0.26133 0.04713 0.12800
H 	H 	0.65847 0.18613 0.01353 -0.03600
H 	H 	0.71497 0.19263 0.97043 -0.05000
Cu	Cu	0.82863 0.61307 0.14497 0.91400
C 	C 	0.70583 0.58247 0.19507 0.26100
O 	O 	0.71033 0.56167 0.16967 -0.32600
O 	O 	0.76653 0.65387 0.20527 -0.34900
C 	C 	0.52873 0.49507 0.24527 0.18100
C 	C 	0.47233 0.41967 0.23247 -0.15400
H 	H 	0.42433 0.37967 0.24167 0.10500
C 	C 	0.48733 0.40267 0.20577 0.03300
C 	C 	0.55933 0.46267 0.19187 -0.09200
H 	H 	0.57033 0.45267 0.17427 0.09900
C 	C 	0.61653 0.53957 0.20467 0.03000
C 	C 	0.60113 0.55557 0.23137 -0.16000
H 	H 	0.63833 0.60567 0.23987 0.12000
C 	C 	0.44723 0.32157 0.18897 0.26700
O 	O 	0.45803 0.31637 0.16267 -0.38900
O 	O 	0.37203 0.27437 0.19997 -0.37300
N 	N 	0.49353 0.50717 0.26967 -0.24600
C 	C 	0.53933 0.56967 0.28747 0.22100
O 	O 	0.61733 0.60667 0.28837 -0.24000
H 	H 	0.44023 0.47357 0.27417 0.13100
C 	C 	0.50173 0.56467 0.31617 -0.04900
C 	C 	0.55223 0.62097 0.33667 0.19700
C 	C 	0.51823 0.61657 0.36257 0.15700
C 	C 	0.43373 0.55617 0.36807 0.05100
C 	C 	0.38323 0.49987 0.34757 -0.25100
C 	C 	0.41723 0.50417 0.32167 -0.21700
H 	H 	0.60823 0.66157 0.33297 -0.03400
H 	H 	0.55133 0.65367 0.37607 -0.02000
H 	H 	0.32733 0.45967 0.35127 0.11000
H 	H 	0.38383 0.46717 0.30817 0.09200
C 	C 	0.39753 0.55167 0.39567 -0.04400
C 	C 	0.43793 0.54507 0.42067 0.03800
N 	N 	0.40293 0.53757 0.44535 -0.18200
C 	C 	0.32233 0.53537 0.44877 0.06200
N 	N 	0.28183 0.54227 0.42407 -0.10700
C 	C 	0.31673 0.54967 0.39937 0.03600
H 	H 	0.28963 0.55377 0.38387 0.01700
H 	H 	0.29933 0.52997 0.46597 0.03600
H 	H 	0.48913 0.54597 0.41967 0.03100
C 	C 	0.55363 0.58537 0.33927 -0.21600
C 	C 	0.51963 0.58097 0.36517 -0.25200
C 	C 	0.38193 0.53567 0.34497 0.15800
C 	C 	0.41593 0.53987 0.31907 0.19500
H 	H 	0.61043 0.60177 0.33737 0.11600
H 	H 	0.55433 0.59467 0.38047 0.12600
H 	H 	0.32513 0.51947 0.34687 -0.03400
H 	H 	0.38163 0.52597 0.30377 -0.04800
