data_crystal

_cell_length_a 18.73180
_cell_length_b 18.73180
_cell_length_c 18.73180
_cell_angle_alpha 60.00000
_cell_angle_beta  60.00000
_cell_angle_gamma 60.00000

_symmetry_space_group_name_	'P 1'
_symmetry_space_group_name_H-M	'P 1'

loop_
_symmetry_equiv_pos_as_xyz
  x,y,z

loop_
_atom_site_label
_atom_site_type_symbol
_atom_site_fract_x
_atom_site_fract_y
_atom_site_fract_z
_atom_site_charge
Ni	Ni	0.84004 0.05332 0.05332 0.78000
Ni	Ni	0.05332 0.84004 0.05332 0.77900
Ni	Ni	0.05332 0.05332 0.84004 0.77900
Ni	Ni	0.05332 0.05332 0.05332 0.78200
Ni	Ni	0.94668 0.15996 0.94668 0.77600
Ni	Ni	0.15996 0.94668 0.94668 0.77500
Ni	Ni	0.94668 0.94668 0.15996 0.77700
Ni	Ni	0.94668 0.94668 0.94668 0.77400
H 	H 	0.62940 0.07564 0.07564 0.01300
H 	H 	0.07564 0.62940 0.21932 0.00900
H 	H 	0.07564 0.21932 0.62940 0.01000
H 	H 	0.21932 0.07564 0.07564 0.01300
H 	H 	0.62940 0.07564 0.21932 0.01100
H 	H 	0.07564 0.21932 0.07564 0.01200
H 	H 	0.07564 0.62940 0.07564 0.01300
H 	H 	0.21932 0.07564 0.62940 0.01100
H 	H 	0.62940 0.21932 0.07564 0.01100
H 	H 	0.07564 0.07564 0.62940 0.01300
H 	H 	0.07564 0.07564 0.21932 0.00700
H 	H 	0.21932 0.62940 0.07564 0.01100
H 	H 	0.92436 0.37060 0.92436 0.01300
H 	H 	0.37060 0.92436 0.78068 0.01100
H 	H 	0.78068 0.92436 0.37060 0.01100
H 	H 	0.92436 0.78068 0.92436 0.01300
H 	H 	0.92436 0.37060 0.78068 0.01000
H 	H 	0.78068 0.92436 0.92436 0.01400
H 	H 	0.37060 0.92436 0.92436 0.01400
H 	H 	0.92436 0.78068 0.37060 0.00900
H 	H 	0.78068 0.37060 0.92436 0.01200
H 	H 	0.92436 0.92436 0.37060 0.00800
H 	H 	0.92436 0.92436 0.78068 0.01300
H 	H 	0.37060 0.78068 0.92436 0.01100
C 	C 	0.53710 0.00000 -0.00000 -0.01000
C 	C 	0.60384 0.00000 -0.00000 -0.01400
C 	C 	0.67804 0.00000 -0.00000 -0.01100
C 	C 	-0.00000 0.53710 0.46290 -0.01200
C 	C 	1.00000 0.60384 0.39616 -0.01300
C 	C 	1.00000 0.67804 0.32196 -0.03400
C 	C 	0.00000 0.46290 0.53710 -0.01500
C 	C 	0.00000 0.39616 0.60384 -0.01000
C 	C 	-0.00000 0.32196 0.67804 -0.02900
C 	C 	0.46290 0.00000 -0.00000 -0.01000
C 	C 	0.39616 0.00000 -0.00000 -0.01400
C 	C 	0.32196 0.00000 -0.00000 -0.01100
C 	C 	0.53710 0.00000 0.46290 -0.01300
C 	C 	0.60384 0.00000 0.39616 -0.01200
C 	C 	0.67804 0.00000 0.32196 -0.02300
C 	C 	-0.00000 0.46290 -0.00000 -0.00900
C 	C 	0.00000 0.39616 -0.00000 -0.01400
C 	C 	-0.00000 0.32196 -0.00000 -0.01500
C 	C 	1.00000 0.53710 -0.00000 -0.01400
C 	C 	1.00000 0.60384 -0.00000 -0.01600
C 	C 	-0.00000 0.67804 -0.00000 -0.01400
C 	C 	0.46290 0.00000 0.53710 -0.01300
C 	C 	0.39616 0.00000 0.60384 -0.01200
C 	C 	0.32196 0.00000 0.67804 -0.02300
C 	C 	0.53710 0.46290 -0.00000 -0.01200
C 	C 	0.60384 0.39616 -0.00000 -0.01200
C 	C 	0.67804 0.32196 -0.00000 -0.02000
C 	C 	-0.00000 0.00000 0.53710 -0.00500
C 	C 	1.00000 0.00000 0.60384 -0.02200
C 	C 	-0.00000 0.00000 0.67804 -0.01300
C 	C 	-0.00000 0.00000 0.46290 -0.01700
C 	C 	1.00000 0.00000 0.39616 -0.00400
C 	C 	-0.00000 1.00000 0.32196 -0.04200
C 	C 	0.46290 0.53710 -0.00000 -0.01200
C 	C 	0.39616 0.60384 -0.00000 -0.01200
C 	C 	0.32196 0.67804 -0.00000 -0.02000
C 	C 	0.67919 0.04153 0.04153 0.02000
C 	C 	0.04153 0.67919 0.23775 0.02900
C 	C 	0.04153 0.23775 0.67919 0.02500
C 	C 	0.23775 0.04153 0.04153 0.02000
C 	C 	0.67919 0.04153 0.23775 0.02300
C 	C 	0.04153 0.23775 0.04153 0.02100
C 	C 	0.04153 0.67919 0.04153 0.02000
C 	C 	0.23775 0.04153 0.67919 0.02300
C 	C 	0.67919 0.23775 0.04153 0.02200
C 	C 	0.04153 0.04153 0.67919 0.01900
C 	C 	0.04153 0.04153 0.23775 0.03600
C 	C 	0.23775 0.67919 0.04153 0.02200
C 	C 	0.95847 0.32081 0.95847 0.00900
C 	C 	0.32081 0.95847 0.76225 0.01600
C 	C 	0.76225 0.95847 0.32081 0.01600
C 	C 	0.95847 0.76225 0.95847 0.00800
C 	C 	0.95847 0.32081 0.76225 0.02200
C 	C 	0.76225 0.95847 0.95847 0.00400
C 	C 	0.32081 0.95847 0.95847 0.00400
C 	C 	0.95847 0.76225 0.32081 0.02600
C 	C 	0.76225 0.32081 0.95847 0.01300
C 	C 	0.95847 0.95847 0.32081 0.02700
C 	C 	0.95847 0.95847 0.76225 0.01000
C 	C 	0.32081 0.76225 0.95847 0.01300
N 	N 	0.76409 0.02567 0.02567 -0.26100
N 	N 	0.02567 0.76409 0.18457 -0.26600
N 	N 	0.02567 0.18457 0.76409 -0.26600
N 	N 	0.18457 0.02567 0.02567 -0.26100
N 	N 	0.76409 0.02567 0.18457 -0.26400
N 	N 	0.02567 0.18457 0.02567 -0.26200
N 	N 	0.02567 0.76409 0.02567 -0.26200
N 	N 	0.18457 0.02567 0.76409 -0.26500
N 	N 	0.76409 0.18457 0.02567 -0.26300
N 	N 	0.02567 0.02567 0.76409 -0.26300
N 	N 	0.02567 0.02567 0.18457 -0.26500
N 	N 	0.18457 0.76409 0.02567 -0.26400
N 	N 	0.97433 0.23591 0.97433 -0.26900
N 	N 	0.23591 0.97433 0.81543 -0.26900
N 	N 	0.81543 0.97433 0.23591 -0.26800
N 	N 	0.97433 0.81543 0.97433 -0.26900
N 	N 	0.97433 0.23591 0.81543 -0.26800
N 	N 	0.81543 0.97433 0.97433 -0.27000
N 	N 	0.23591 0.97433 0.97433 -0.27000
N 	N 	0.97433 0.81543 0.23591 -0.26800
N 	N 	0.81543 0.23591 0.97433 -0.26900
N 	N 	0.97433 0.97433 0.23591 -0.27100
N 	N 	0.97433 0.97433 0.81543 -0.26900
N 	N 	0.23591 0.81543 0.97433 -0.26900
