data_crystal

_cell_length_a 21.59900
_cell_length_b 21.59900
_cell_length_c 12.19600
_cell_angle_alpha 90.00000
_cell_angle_beta  90.00000
_cell_angle_gamma 120.00000

_symmetry_space_group_name_	'P 1'
_symmetry_space_group_name_H-M	'P 1'

loop_
_symmetry_equiv_pos_as_xyz
  x,y,z

loop_
_atom_site_label
_atom_site_type_symbol
_atom_site_fract_x
_atom_site_fract_y
_atom_site_fract_z
_atom_site_charge
C 	C 	0.11760 0.49920 0.63440 0.08100
C 	C 	0.15800 0.60270 0.56790 0.10600
C 	C 	0.07030 0.42550 0.66670 -0.02300
C 	C 	0.00130 0.40270 0.70920 -0.11700
H 	H 	0.98450 0.43480 0.71270 0.04500
C 	C 	0.95900 0.33430 0.74520 -0.00300
H 	H 	0.91470 0.32070 0.77620 0.02600
C 	C 	0.98110 0.28750 0.73590 -0.03700
H 	H 	0.94890 0.24000 0.75220 0.04000
C 	C 	0.04740 0.30460 0.70420 -0.05500
H 	H 	0.06360 0.27210 0.70830 0.03700
C 	C 	0.09190 0.37610 0.66360 -0.05700
H 	H 	0.13650 0.38900 0.63450 0.03200
C 	C 	0.16270 0.66740 0.51650 -0.07100
C 	C 	0.10870 0.68480 0.54040 -0.04800
H 	H 	0.06920 0.65360 0.58190 0.02400
C 	C 	0.11470 0.74760 0.50220 -0.05600
H 	H 	0.08060 0.76030 0.51960 0.04000
C 	C 	0.17740 0.79450 0.43210 -0.04200
H 	H 	0.18250 0.83680 0.40390 0.03900
C 	C 	0.22560 0.77580 0.41030 -0.05200
H 	H 	0.26430 0.80530 0.36580 0.03800
C 	C 	0.22040 0.71330 0.45170 -0.04100
H 	H 	0.25590 0.70220 0.43580 0.01100
N 	N 	0.21400 0.60270 0.60730 -0.19500
N 	N 	0.18780 0.53410 0.65010 -0.17700
N 	N 	0.09720 0.54340 0.58290 -0.21200
C 	C 	0.50080 0.61840 0.63440 0.09700
C 	C 	0.39730 0.55530 0.56790 0.10600
C 	C 	0.57450 0.64480 0.66670 -0.06300
C 	C 	0.59730 0.59860 0.70920 -0.02500
H 	H 	0.56520 0.54970 0.71270 0.00300
C 	C 	0.66570 0.62470 0.74520 -0.08300
H 	H 	0.67930 0.59400 0.77620 0.05300
C 	C 	0.71250 0.69360 0.73590 -0.00000
H 	H 	0.76000 0.70890 0.75220 0.02700
C 	C 	0.69540 0.74280 0.70420 -0.07600
H 	H 	0.72790 0.79150 0.70830 0.05100
C 	C 	0.62390 0.71580 0.66360 -0.02400
H 	H 	0.61100 0.74750 0.63450 0.02200
C 	C 	0.33260 0.49530 0.51650 -0.07000
C 	C 	0.31520 0.42390 0.54040 -0.04800
H 	H 	0.34640 0.41560 0.58190 0.02700
C 	C 	0.25240 0.36710 0.50220 -0.05500
H 	H 	0.23970 0.32030 0.51960 0.04100
C 	C 	0.20550 0.38290 0.43210 -0.04300
H 	H 	0.16320 0.34570 0.40390 0.03700
C 	C 	0.22420 0.44980 0.41030 -0.05100
H 	H 	0.19470 0.45900 0.36580 0.03700
C 	C 	0.28670 0.50710 0.45170 -0.04200
H 	H 	0.29780 0.55370 0.43580 0.01100
N 	N 	0.39730 0.61130 0.60730 -0.19500
N 	N 	0.46590 0.65370 0.65010 -0.18000
N 	N 	0.45660 0.55380 0.58290 -0.21300
C 	C 	0.38160 0.88240 0.63440 0.11200
C 	C 	0.44470 0.84200 0.56790 0.10600
C 	C 	0.35520 0.92970 0.66670 -0.10000
C 	C 	0.40140 0.99870 0.70920 0.06400
H 	H 	0.45030 0.01550 0.71270 -0.03600
C 	C 	0.37530 0.04100 0.74520 -0.16000
H 	H 	0.40600 0.08530 0.77620 0.07900
C 	C 	0.30640 0.01890 0.73590 0.03200
H 	H 	0.29110 0.05110 0.75220 0.01000
C 	C 	0.25720 0.95260 0.70420 -0.09500
H 	H 	0.20850 0.93640 0.70830 0.05800
C 	C 	0.28420 0.90810 0.66360 0.00400
H 	H 	0.25250 0.86350 0.63450 0.01200
C 	C 	0.50470 0.83730 0.51650 -0.06800
C 	C 	0.57610 0.89130 0.54040 -0.04700
H 	H 	0.58440 0.93080 0.58190 0.03000
C 	C 	0.63290 0.88530 0.50220 -0.05400
H 	H 	0.67970 0.91940 0.51960 0.04500
C 	C 	0.61710 0.82260 0.43210 -0.04200
H 	H 	0.65430 0.81750 0.40390 0.03900
C 	C 	0.55020 0.77440 0.41030 -0.05000
H 	H 	0.54100 0.73570 0.36580 0.03700
C 	C 	0.49290 0.77960 0.45170 -0.04200
H 	H 	0.44630 0.74410 0.43580 0.01200
N 	N 	0.38870 0.78600 0.60730 -0.19500
N 	N 	0.34630 0.81220 0.65010 -0.18200
N 	N 	0.44620 0.90280 0.58290 -0.21100
C 	C 	0.88240 0.50080 0.13440 0.11100
C 	C 	0.84200 0.39730 0.06790 0.12200
C 	C 	0.92970 0.57450 0.16670 -0.10700
C 	C 	0.99870 0.59730 0.20920 0.07400
H 	H 	0.01550 0.56520 0.21270 -0.04200
C 	C 	0.04100 0.66570 0.24520 -0.17200
H 	H 	0.08530 0.67930 0.27620 0.08100
C 	C 	0.01890 0.71250 0.23590 0.03700
H 	H 	0.05110 0.76000 0.25220 0.00500
C 	C 	0.95260 0.69540 0.20420 -0.10100
H 	H 	0.93640 0.72790 0.20830 0.05900
C 	C 	0.90810 0.62390 0.16360 0.00800
H 	H 	0.86350 0.61100 0.13450 0.00700
C 	C 	0.83730 0.33260 0.01650 -0.13500
C 	C 	0.89130 0.31520 0.04040 0.01200
H 	H 	0.93080 0.34640 0.08190 0.00700
C 	C 	0.88530 0.25240 0.00220 -0.13700
H 	H 	0.91940 0.23970 0.01960 0.06700
C 	C 	0.82260 0.20550 0.93210 0.04900
H 	H 	0.81750 0.16320 0.90390 0.01100
C 	C 	0.77440 0.22420 0.91030 -0.13100
H 	H 	0.73570 0.19470 0.86580 0.06800
C 	C 	0.77960 0.28670 0.95170 0.04600
H 	H 	0.74410 0.29780 0.93580 -0.01100
N 	N 	0.78600 0.39730 0.10730 -0.20100
N 	N 	0.81220 0.46590 0.15010 -0.18400
N 	N 	0.90280 0.45660 0.08290 -0.21600
C 	C 	0.49920 0.38160 0.13440 0.09500
C 	C 	0.60270 0.44470 0.06790 0.12300
C 	C 	0.42550 0.35520 0.16670 -0.06600
C 	C 	0.40270 0.40140 0.20920 -0.02400
H 	H 	0.43480 0.45030 0.21270 0.00100
C 	C 	0.33430 0.37530 0.24520 -0.08700
H 	H 	0.32070 0.40600 0.27620 0.05200
C 	C 	0.28750 0.30640 0.23590 -0.00100
H 	H 	0.24000 0.29110 0.25220 0.02000
C 	C 	0.30460 0.25720 0.20420 -0.08000
H 	H 	0.27210 0.20850 0.20830 0.04500
C 	C 	0.37610 0.28420 0.16360 -0.02500
H 	H 	0.38900 0.25250 0.13450 0.01800
C 	C 	0.66740 0.50470 0.01650 -0.13800
C 	C 	0.68480 0.57610 0.04040 0.01300
H 	H 	0.65360 0.58440 0.08190 0.00300
C 	C 	0.74760 0.63290 0.00220 -0.13900
H 	H 	0.76030 0.67970 0.01960 0.06600
C 	C 	0.79450 0.61710 0.93210 0.05200
H 	H 	0.83680 0.65430 0.90390 0.01100
C 	C 	0.77580 0.55020 0.91030 -0.13400
H 	H 	0.80530 0.54100 0.86580 0.07100
C 	C 	0.71330 0.49290 0.95170 0.04900
H 	H 	0.70220 0.44630 0.93580 -0.01200
N 	N 	0.60270 0.38870 0.10730 -0.20100
N 	N 	0.53410 0.34630 0.15010 -0.18100
N 	N 	0.54340 0.44620 0.08290 -0.21700
C 	C 	0.61840 0.11760 0.13440 0.08000
C 	C 	0.55530 0.15800 0.06790 0.12400
C 	C 	0.64480 0.07030 0.16670 -0.02700
C 	C 	0.59860 0.00130 0.20920 -0.11400
H 	H 	0.54970 0.98450 0.21270 0.04200
C 	C 	0.62470 0.95900 0.24520 -0.00900
H 	H 	0.59400 0.91470 0.27620 0.02600
C 	C 	0.69360 0.98110 0.23590 -0.03500
H 	H 	0.70890 0.94890 0.25220 0.03700
C 	C 	0.74280 0.04740 0.20420 -0.06000
H 	H 	0.79150 0.06360 0.20830 0.03700
C 	C 	0.71580 0.09190 0.16360 -0.05500
H 	H 	0.74750 0.13650 0.13450 0.02800
C 	C 	0.49530 0.16270 0.01650 -0.14000
C 	C 	0.42390 0.10870 0.04040 0.01400
H 	H 	0.41560 0.06920 0.08190 0.00000
C 	C 	0.36710 0.11470 0.00220 -0.14300
H 	H 	0.32030 0.08060 0.01960 0.06300
C 	C 	0.38290 0.17740 0.93210 0.05400
H 	H 	0.34570 0.18250 0.90390 0.00900
C 	C 	0.44980 0.22560 0.91030 -0.13700
H 	H 	0.45900 0.26430 0.86580 0.07100
C 	C 	0.50710 0.22040 0.95170 0.05100
H 	H 	0.55370 0.25590 0.93580 -0.01300
N 	N 	0.61130 0.21400 0.10730 -0.20100
N 	N 	0.65370 0.18780 0.15010 -0.17800
N 	N 	0.55380 0.09720 0.08290 -0.21700
C 	C 	0.49920 0.11760 0.36560 0.08200
C 	C 	0.60270 0.15800 0.43210 0.10700
C 	C 	0.42550 0.07030 0.33330 -0.02300
C 	C 	0.40270 0.00130 0.29080 -0.11600
H 	H 	0.43480 0.98450 0.28730 0.04300
C 	C 	0.33430 0.95900 0.25480 -0.00500
H 	H 	0.32070 0.91470 0.22380 0.02200
C 	C 	0.28750 0.98110 0.26410 -0.03900
H 	H 	0.24000 0.94890 0.24780 0.03700
C 	C 	0.30460 0.04740 0.29580 -0.05600
H 	H 	0.27210 0.06360 0.29170 0.03500
C 	C 	0.37610 0.09190 0.33640 -0.05700
H 	H 	0.38900 0.13650 0.36550 0.03200
C 	C 	0.66740 0.16270 0.48350 -0.07000
C 	C 	0.68480 0.10870 0.45960 -0.04800
H 	H 	0.65360 0.06920 0.41810 0.02500
C 	C 	0.74760 0.11470 0.49780 -0.05600
H 	H 	0.76030 0.08060 0.48040 0.04000
C 	C 	0.79450 0.17740 0.56790 -0.04200
H 	H 	0.83680 0.18250 0.59610 0.03900
C 	C 	0.77580 0.22560 0.58970 -0.05200
H 	H 	0.80530 0.26430 0.63420 0.03900
C 	C 	0.71330 0.22040 0.54830 -0.04100
H 	H 	0.70220 0.25590 0.56420 0.01200
N 	N 	0.60270 0.21400 0.39270 -0.19500
N 	N 	0.53410 0.18780 0.34990 -0.17700
N 	N 	0.54340 0.09720 0.41710 -0.21200
C 	C 	0.61840 0.50080 0.36560 0.09700
C 	C 	0.55530 0.39730 0.43210 0.10700
C 	C 	0.64480 0.57450 0.33330 -0.06200
C 	C 	0.59860 0.59730 0.29080 -0.02500
H 	H 	0.54970 0.56520 0.28730 0.00200
C 	C 	0.62470 0.66570 0.25480 -0.08400
H 	H 	0.59400 0.67930 0.22380 0.04900
C 	C 	0.69360 0.71250 0.26410 -0.00300
H 	H 	0.70890 0.76000 0.24780 0.02300
C 	C 	0.74280 0.69540 0.29580 -0.07600
H 	H 	0.79150 0.72790 0.29170 0.04800
C 	C 	0.71580 0.62390 0.33640 -0.02500
H 	H 	0.74750 0.61100 0.36550 0.02200
C 	C 	0.49530 0.33260 0.48350 -0.06900
C 	C 	0.42390 0.31520 0.45960 -0.04800
H 	H 	0.41560 0.34640 0.41810 0.02700
C 	C 	0.36710 0.25240 0.49780 -0.05500
H 	H 	0.32030 0.23970 0.48040 0.04100
C 	C 	0.38290 0.20550 0.56790 -0.04300
H 	H 	0.34570 0.16320 0.59610 0.03800
C 	C 	0.44980 0.22420 0.58970 -0.05100
H 	H 	0.45900 0.19470 0.63420 0.03800
C 	C 	0.50710 0.28670 0.54830 -0.04200
H 	H 	0.55370 0.29780 0.56420 0.01200
N 	N 	0.61130 0.39730 0.39270 -0.19500
N 	N 	0.65370 0.46590 0.34990 -0.18000
N 	N 	0.55380 0.45660 0.41710 -0.21300
C 	C 	0.88240 0.38160 0.36560 0.11300
C 	C 	0.84200 0.44470 0.43210 0.10700
C 	C 	0.92970 0.35520 0.33330 -0.10300
C 	C 	0.99870 0.40140 0.29080 0.07200
H 	H 	0.01550 0.45030 0.28730 -0.04100
C 	C 	0.04100 0.37530 0.25480 -0.16700
H 	H 	0.08530 0.40600 0.22380 0.07700
C 	C 	0.01890 0.30640 0.26410 0.03300
H 	H 	0.05110 0.29110 0.24780 0.00500
C 	C 	0.95260 0.25720 0.29580 -0.09600
H 	H 	0.93640 0.20850 0.29170 0.05600
C 	C 	0.90810 0.28420 0.33640 0.00600
H 	H 	0.86350 0.25250 0.36550 0.01100
C 	C 	0.83730 0.50470 0.48350 -0.06800
C 	C 	0.89130 0.57610 0.45960 -0.04700
H 	H 	0.93080 0.58440 0.41810 0.03100
C 	C 	0.88530 0.63290 0.49780 -0.05400
H 	H 	0.91940 0.67970 0.48040 0.04500
C 	C 	0.82260 0.61710 0.56790 -0.04300
H 	H 	0.81750 0.65430 0.59610 0.04000
C 	C 	0.77440 0.55020 0.58970 -0.05000
H 	H 	0.73570 0.54100 0.63420 0.03800
C 	C 	0.77960 0.49290 0.54830 -0.04200
H 	H 	0.74410 0.44630 0.56420 0.01300
N 	N 	0.78600 0.38870 0.39270 -0.19500
N 	N 	0.81220 0.34630 0.34990 -0.18200
N 	N 	0.90280 0.44620 0.41710 -0.21100
C 	C 	0.50080 0.88240 0.86560 0.11400
C 	C 	0.39730 0.84200 0.93210 0.08900
C 	C 	0.57450 0.92970 0.83330 -0.09500
C 	C 	0.59730 0.99870 0.79080 0.06100
H 	H 	0.56520 0.01550 0.78730 -0.03400
C 	C 	0.66570 0.04100 0.75480 -0.15500
H 	H 	0.67930 0.08530 0.72380 0.07500
C 	C 	0.71250 0.01890 0.76410 0.02800
H 	H 	0.76000 0.05110 0.74780 0.01300
C 	C 	0.69540 0.95260 0.79580 -0.08900
H 	H 	0.72790 0.93640 0.79170 0.05900
C 	C 	0.62390 0.90810 0.83640 0.00300
H 	H 	0.61100 0.86350 0.86550 0.01700
C 	C 	0.33260 0.83730 0.98350 0.00400
C 	C 	0.31520 0.89130 0.95960 -0.11100
H 	H 	0.34640 0.93080 0.91810 0.05600
C 	C 	0.25240 0.88530 0.99780 0.03400
H 	H 	0.23970 0.91940 0.98040 0.02000
C 	C 	0.20550 0.82260 0.06790 -0.14100
H 	H 	0.16320 0.81750 0.09610 0.06800
C 	C 	0.22420 0.77440 0.08970 0.03600
H 	H 	0.19470 0.73570 0.13420 0.00400
C 	C 	0.28670 0.77960 0.04830 -0.13600
H 	H 	0.29780 0.74410 0.06420 0.03700
N 	N 	0.39730 0.78600 0.89270 -0.18900
N 	N 	0.46590 0.81220 0.84990 -0.18100
N 	N 	0.45660 0.90280 0.91710 -0.20300
C 	C 	0.38160 0.49920 0.86560 0.09900
C 	C 	0.44470 0.60270 0.93210 0.09000
C 	C 	0.35520 0.42550 0.83330 -0.05700
C 	C 	0.40140 0.40270 0.79080 -0.02800
H 	H 	0.45030 0.43480 0.78730 0.00600
C 	C 	0.37530 0.33430 0.75480 -0.07800
H 	H 	0.40600 0.32070 0.72380 0.04900
C 	C 	0.30640 0.28750 0.76410 -0.00600
H 	H 	0.29110 0.24000 0.74780 0.02600
C 	C 	0.25720 0.30460 0.79580 -0.07000
H 	H 	0.20850 0.27210 0.79170 0.04600
C 	C 	0.28420 0.37610 0.83640 -0.02800
H 	H 	0.25250 0.38900 0.86550 0.02600
C 	C 	0.50470 0.66740 0.98350 0.00100
C 	C 	0.57610 0.68480 0.95960 -0.10900
H 	H 	0.58440 0.65360 0.91810 0.05200
C 	C 	0.63290 0.74760 0.99780 0.03100
H 	H 	0.67970 0.76030 0.98040 0.01900
C 	C 	0.61710 0.79450 0.06790 -0.13800
H 	H 	0.65430 0.83680 0.09610 0.06900
C 	C 	0.55020 0.77580 0.08970 0.03300
H 	H 	0.54100 0.80530 0.13420 0.00700
C 	C 	0.49290 0.71330 0.04830 -0.13300
H 	H 	0.44630 0.70220 0.06420 0.03600
N 	N 	0.38870 0.60270 0.89270 -0.18900
N 	N 	0.34630 0.53410 0.84990 -0.17800
N 	N 	0.44620 0.54340 0.91710 -0.20500
C 	C 	0.11760 0.61840 0.86560 0.08400
C 	C 	0.15800 0.55530 0.93210 0.08900
C 	C 	0.07030 0.64480 0.83330 -0.01800
C 	C 	0.00130 0.59860 0.79080 -0.11800
H 	H 	0.98450 0.54970 0.78730 0.04600
C 	C 	0.95900 0.62470 0.75480 0.00100
H 	H 	0.91470 0.59400 0.72380 0.02300
C 	C 	0.98110 0.69360 0.76410 -0.04100
H 	H 	0.94890 0.70890 0.74780 0.04300
C 	C 	0.04740 0.74280 0.79580 -0.05000
H 	H 	0.06360 0.79150 0.79170 0.03800
C 	C 	0.09190 0.71580 0.83640 -0.05800
H 	H 	0.13650 0.74750 0.86550 0.03600
C 	C 	0.16270 0.49530 0.98350 0.00300
C 	C 	0.10870 0.42390 0.95960 -0.11300
H 	H 	0.06920 0.41560 0.91810 0.05100
C 	C 	0.11470 0.36710 0.99780 0.03400
H 	H 	0.08060 0.32030 0.98040 0.01400
C 	C 	0.17740 0.38290 0.06790 -0.14400
H 	H 	0.18250 0.34570 0.09610 0.06800
C 	C 	0.22560 0.44980 0.08970 0.03600
H 	H 	0.26430 0.45900 0.13420 0.00500
C 	C 	0.22040 0.50710 0.04830 -0.13800
H 	H 	0.25590 0.55370 0.06420 0.03800
N 	N 	0.21400 0.61130 0.89270 -0.18900
N 	N 	0.18780 0.65370 0.84990 -0.17600
N 	N 	0.09720 0.55380 0.91710 -0.20300
Ag	Ag	0.33333 0.66667 0.60130 0.46700
Ag	Ag	0.66667 0.33333 0.10130 0.46400
Ag	Ag	0.66667 0.33333 0.39870 0.46700
Ag	Ag	0.33333 0.66667 0.89870 0.47100
Ag	Ag	0.25981 0.51962 0.75000 0.49400
Ag	Ag	0.48038 0.74019 0.75000 0.49500
Ag	Ag	0.25981 0.74019 0.75000 0.49500
Ag	Ag	0.74019 0.48038 0.25000 0.49400
Ag	Ag	0.51962 0.25981 0.25000 0.49300
Ag	Ag	0.74019 0.25981 0.25000 0.49300
Ag	Ag	0.50121 0.50121 -0.00000 0.51000
Ag	Ag	0.49879 0.00000 -0.00000 0.50300
Ag	Ag	0.00000 0.49879 -0.00000 0.50200
Ag	Ag	0.49879 0.49879 0.50000 0.52100
Ag	Ag	0.50121 0.00000 0.50000 0.51400
Ag	Ag	-0.00000 0.50121 0.50000 0.51300
