data_crystal

_cell_length_a 10.94630
_cell_length_b 15.04630
_cell_length_c 15.04630
_cell_angle_alpha 65.68270
_cell_angle_beta  75.96580
_cell_angle_gamma 104.03400

_symmetry_space_group_name_	'P 1'
_symmetry_space_group_name_H-M	'P 1'

loop_
_symmetry_equiv_pos_as_xyz
  x,y,z

loop_
_atom_site_label
_atom_site_type_symbol
_atom_site_fract_x
_atom_site_fract_y
_atom_site_fract_z
_atom_site_charge
Fe	Fe	0.50000 0.50000 0.50000 1.10500
H 	H 	0.22950 0.34110 0.53640 0.09200
H 	H 	0.47580 0.68890 0.29470 0.17000
H 	H 	0.34690 0.70900 0.27160 0.16200
H 	H 	0.44310 0.67830 0.20070 0.15600
H 	H 	0.03100 0.23750 0.53240 0.23000
H 	H 	0.04170 0.27250 0.41410 0.22800
H 	H 	0.94980 0.30700 0.48340 0.28700
H 	H 	0.02680 0.71520 0.23700 0.14600
H 	H 	0.16400 0.71820 0.25770 0.14800
H 	H 	0.01910 0.63230 0.34940 0.14600
H 	H 	0.12860 0.36920 0.14660 0.14300
H 	H 	0.11870 0.32490 0.26580 0.15200
H 	H 	0.25910 0.41240 0.16970 0.15900
H 	H 	0.99160 0.63160 0.13390 0.15000
H 	H 	0.77050 0.65890 0.46360 0.09300
H 	H 	0.52420 0.31110 0.70530 0.17700
H 	H 	0.65310 0.29100 0.72840 0.17200
H 	H 	0.55690 0.32170 0.79930 0.17900
H 	H 	0.96900 0.76250 0.46760 0.13200
H 	H 	0.95830 0.72750 0.58590 0.12500
H 	H 	0.05020 0.69300 0.51660 0.07800
H 	H 	0.97320 0.28480 0.76300 0.22800
H 	H 	0.83600 0.28180 0.74230 0.19300
H 	H 	0.98090 0.36770 0.65060 0.21700
H 	H 	0.87140 0.63080 0.85340 0.20800
H 	H 	0.88130 0.67510 0.73420 0.20500
H 	H 	0.74090 0.58760 0.83030 0.20200
H 	H 	0.00840 0.36840 0.86610 0.05900
C 	C 	0.27501 0.34864 0.73831 0.05900
C 	C 	0.31539 0.55226 0.34679 0.19900
C 	C 	0.19975 0.49150 0.34075 -0.16900
C 	C 	0.15280 0.39172 0.42802 0.26900
C 	C 	0.40274 0.66695 0.27203 -0.54500
C 	C 	0.03371 0.29389 0.46786 -0.80800
C 	C 	0.08337 0.59690 0.23399 0.17300
C 	C 	0.13992 0.52154 0.26018 -0.11100
C 	C 	0.11615 0.47259 0.19974 0.15900
C 	C 	0.07236 0.67203 0.27285 -0.51700
C 	C 	0.15934 0.38747 0.19505 -0.51600
C 	C 	0.72499 0.65136 0.26169 0.07300
C 	C 	0.68461 0.44774 0.65321 0.18800
C 	C 	0.80025 0.50850 0.65925 -0.09100
C 	C 	0.84720 0.60828 0.57198 0.15500
C 	C 	0.59726 0.33305 0.72797 -0.55500
C 	C 	0.96629 0.70611 0.53214 -0.35000
C 	C 	0.91663 0.40310 0.76601 0.24400
C 	C 	0.86008 0.47846 0.73982 -0.14700
C 	C 	0.88385 0.52741 0.80026 0.23100
C 	C 	0.92764 0.32797 0.72715 -0.62300
C 	C 	0.84066 0.61253 0.80495 -0.61100
S 	S 	0.18200 0.28038 0.86505 -0.10500
S 	S 	0.81800 0.71962 0.13495 -0.11700
N 	N 	0.34346 0.39652 0.64813 -0.27300
N 	N 	0.33886 0.49328 0.43100 -0.22100
N 	N 	0.23805 0.39567 0.47868 -0.22000
N 	N 	0.04883 0.51429 0.14076 -0.22400
N 	N 	0.03200 0.59050 0.16300 -0.25300
N 	N 	0.65654 0.60348 0.35187 -0.27400
N 	N 	0.66114 0.50672 0.56900 -0.21800
N 	N 	0.76195 0.60433 0.52132 -0.19000
N 	N 	0.95117 0.48571 0.85924 -0.18100
N 	N 	0.96800 0.40950 0.83700 -0.15300
Fe	Fe	-0.00000 0.50000 -0.00000 1.04100
H 	H 	0.76590 0.53640 0.12250 0.08700
H 	H 	0.77050 0.29470 0.01640 0.14600
H 	H 	0.61850 0.27160 0.01940 0.13500
H 	H 	0.64380 0.20070 0.12100 0.14000
H 	H 	0.56340 0.53240 0.23010 0.17000
H 	H 	0.45580 0.41410 0.31340 0.17100
H 	H 	0.43320 0.48340 0.20960 0.17100
H 	H 	0.26380 0.23700 0.04780 0.13600
H 	H 	0.42170 0.25770 0.02410 0.12700
H 	H 	0.36850 0.34940 0.01830 0.13700
H 	H 	0.27520 0.14660 0.48420 0.16600
H 	H 	0.38450 0.26580 0.40930 0.17500
H 	H 	0.42880 0.16970 0.41790 0.17100
H 	H 	0.12550 0.13390 0.23450 0.06700
H 	H 	0.23410 0.46360 0.87750 0.10300
H 	H 	0.22950 0.70530 0.98360 0.20600
H 	H 	0.38150 0.72840 0.98060 0.20100
H 	H 	0.35620 0.79930 0.87900 0.19500
H 	H 	0.43660 0.46760 0.76990 0.18700
H 	H 	0.54420 0.58590 0.68660 0.17700
H 	H 	0.56680 0.51660 0.79040 0.19200
H 	H 	0.73620 0.76300 0.95220 0.23800
H 	H 	0.57830 0.74230 0.97590 0.21400
H 	H 	0.63150 0.65060 0.98170 0.22600
H 	H 	0.72480 0.85340 0.51580 0.18600
H 	H 	0.61550 0.73420 0.59070 0.18100
H 	H 	0.57120 0.83030 0.58210 0.19100
H 	H 	0.87450 0.86610 0.76550 0.13800
C 	C 	0.01332 0.73831 0.91305 -0.01000
C 	C 	0.66218 0.34679 0.10095 0.17100
C 	C 	0.54050 0.34075 0.16775 -0.12900
C 	C 	0.58082 0.42802 0.18026 0.19900
C 	C 	0.67477 0.27203 0.06102 -0.50100
C 	C 	0.50157 0.46786 0.23825 -0.56300
C 	C 	0.31736 0.23399 0.16911 0.16900
C 	C 	0.40010 0.26018 0.21828 -0.12000
C 	C 	0.31589 0.19974 0.32767 0.18300
C 	C 	0.34521 0.27285 0.05512 -0.48900
C 	C 	0.35439 0.19505 0.41748 -0.55200
C 	C 	0.98668 0.26169 0.08695 0.14400
C 	C 	0.33782 0.65321 0.89905 0.21600
C 	C 	0.45950 0.65925 0.83225 -0.13000
C 	C 	0.41918 0.57198 0.81974 0.22300
C 	C 	0.32523 0.72797 0.93898 -0.59900
C 	C 	0.49843 0.53214 0.76175 -0.58700
C 	C 	0.68264 0.76601 0.83089 0.24800
C 	C 	0.59990 0.73982 0.78172 -0.13800
C 	C 	0.68411 0.80026 0.67233 0.20700
C 	C 	0.65479 0.72715 0.94488 -0.65100
C 	C 	0.64561 0.80495 0.58252 -0.57500
S 	S 	0.04705 0.86505 0.85457 -0.07400
S 	S 	0.95295 0.13495 0.14543 -0.14400
N 	N 	0.99159 0.64813 0.95535 -0.18700
N 	N 	0.76986 0.43100 0.07572 -0.21700
N 	N 	0.71673 0.47868 0.12565 -0.20600
N 	N 	0.18959 0.14076 0.34495 -0.22200
N 	N 	0.19500 0.16300 0.24650 -0.19500
N 	N 	0.00841 0.35187 0.04465 -0.34600
N 	N 	0.23014 0.56900 0.92428 -0.20700
N 	N 	0.28327 0.52132 0.87435 -0.20300
N 	N 	0.81041 0.85924 0.65505 -0.18300
N 	N 	0.80500 0.83700 0.75350 -0.20900
Fe	Fe	0.00000 0.00000 0.50000 1.04800
H 	H 	0.88840 0.12250 0.34110 0.09700
H 	H 	0.78690 0.01640 0.68890 0.16900
H 	H 	0.63790 0.01940 0.70900 0.15500
H 	H 	0.76480 0.12100 0.67830 0.17100
H 	H 	0.79350 0.23010 0.23750 0.18200
H 	H 	0.76920 0.31340 0.27250 0.18300
H 	H 	0.64280 0.20960 0.30700 0.17600
H 	H 	0.31160 0.04780 0.71520 0.16500
H 	H 	0.44580 0.02410 0.71820 0.14900
H 	H 	0.38680 0.01830 0.63230 0.15400
H 	H 	0.75940 0.48420 0.36920 0.19100
H 	H 	0.79380 0.40930 0.32490 0.19700
H 	H 	0.84670 0.41790 0.41240 0.20200
H 	H 	0.36000 0.23450 0.63160 0.10200
H 	H 	0.11160 0.87750 0.65890 0.09300
H 	H 	0.21310 0.98360 0.31110 0.18100
H 	H 	0.36210 0.98060 0.29100 0.18000
H 	H 	0.23520 0.87900 0.32170 0.16400
H 	H 	0.20650 0.76990 0.76250 0.17900
H 	H 	0.23080 0.68660 0.72750 0.17000
H 	H 	0.35720 0.79040 0.69300 0.18800
H 	H 	0.68840 0.95220 0.28480 0.20900
H 	H 	0.55420 0.97590 0.28180 0.19200
H 	H 	0.61320 0.98170 0.36770 0.20900
H 	H 	0.24060 0.51580 0.63080 0.15800
H 	H 	0.20620 0.59070 0.67510 0.16100
H 	H 	0.15330 0.58210 0.58760 0.15900
H 	H 	0.64000 0.76550 0.36840 0.10300
C 	C 	0.92637 0.91305 0.34864 0.08400
C 	C 	0.76313 0.10095 0.55226 0.18900
C 	C 	0.70825 0.16775 0.49150 -0.13200
C 	C 	0.76108 0.18026 0.39172 0.21200
C 	C 	0.73579 0.06102 0.66695 -0.54100
C 	C 	0.73982 0.23825 0.29389 -0.57800
C 	C 	0.48647 0.16911 0.59690 0.19600
C 	C 	0.61838 0.21828 0.52154 -0.12800
C 	C 	0.64356 0.32767 0.47259 0.20300
C 	C 	0.40033 0.05512 0.67203 -0.53100
C 	C 	0.77187 0.41748 0.38747 -0.59400
C 	C 	0.07363 0.08695 0.65136 0.04500
C 	C 	0.23687 0.89905 0.44774 0.19700
C 	C 	0.29175 0.83225 0.50850 -0.12800
C 	C 	0.23892 0.81974 0.60828 0.21200
C 	C 	0.26421 0.93898 0.33305 -0.55800
C 	C 	0.26018 0.76175 0.70611 -0.57700
C 	C 	0.51353 0.83089 0.40310 0.22100
C 	C 	0.38162 0.78172 0.47846 -0.13000
C 	C 	0.35644 0.67233 0.52741 0.18700
C 	C 	0.59967 0.94488 0.32797 -0.60900
C 	C 	0.22813 0.58252 0.61253 -0.53500
S 	S 	0.90162 0.85457 0.28038 -0.07100
S 	S 	0.09838 0.14543 0.71962 -0.15200
N 	N 	0.94694 0.95535 0.39652 -0.23400
N 	N 	0.84558 0.07572 0.49328 -0.21300
N 	N 	0.84238 0.12565 0.39567 -0.20500
N 	N 	0.53454 0.34495 0.51429 -0.20900
N 	N 	0.44150 0.24650 0.59050 -0.19900
N 	N 	0.05306 0.04465 0.60348 -0.29800
N 	N 	0.15442 0.92428 0.50672 -0.21300
N 	N 	0.15762 0.87435 0.60433 -0.20400
N 	N 	0.46546 0.65505 0.48571 -0.20700
N 	N 	0.55850 0.75350 0.40950 -0.20500
