data_crystal

_cell_length_a 10.98600
_cell_length_b 15.10940
_cell_length_c 15.10940
_cell_angle_alpha 65.67650
_cell_angle_beta  75.97380
_cell_angle_gamma 104.02600

_symmetry_space_group_name_	'P 1'
_symmetry_space_group_name_H-M	'P 1'

loop_
_symmetry_equiv_pos_as_xyz
  x,y,z

loop_
_atom_site_label
_atom_site_type_symbol
_atom_site_fract_x
_atom_site_fract_y
_atom_site_fract_z
_atom_site_charge
Fe	Fe	0.50000 0.50000 0.50000 1.10100
H 	H 	0.23300 0.34480 0.53200 0.10100
H 	H 	0.47740 0.68740 0.29200 0.23300
H 	H 	0.35190 0.70710 0.26910 0.22300
H 	H 	0.44540 0.67620 0.20070 0.21500
H 	H 	0.03430 0.24170 0.52970 0.31900
H 	H 	0.04390 0.27570 0.41430 0.31800
H 	H 	0.95540 0.31000 0.48190 0.37300
H 	H 	0.02630 0.71100 0.24240 0.20100
H 	H 	0.15960 0.71340 0.26370 0.19900
H 	H 	0.01800 0.62860 0.35170 0.19900
H 	H 	0.13500 0.37520 0.14450 0.19700
H 	H 	0.12780 0.33080 0.26030 0.20600
H 	H 	0.26280 0.41860 0.16600 0.21000
H 	H 	0.99100 0.62850 0.13950 0.15500
H 	H 	0.76700 0.65520 0.46800 0.09600
H 	H 	0.52260 0.31260 0.70800 0.23700
H 	H 	0.64810 0.29290 0.73090 0.22800
H 	H 	0.55460 0.32380 0.79930 0.23500
H 	H 	0.96570 0.75830 0.47030 0.17100
H 	H 	0.95610 0.72430 0.58570 0.16400
H 	H 	0.04460 0.69000 0.51810 0.11800
H 	H 	0.97370 0.28900 0.75760 0.29500
H 	H 	0.84040 0.28660 0.73630 0.25900
H 	H 	0.98200 0.37140 0.64830 0.28300
H 	H 	0.86500 0.62480 0.85550 0.27700
H 	H 	0.87220 0.66920 0.73970 0.27700
H 	H 	0.73720 0.58140 0.83400 0.27000
H 	H 	0.00900 0.37150 0.86050 0.06600
C 	C 	0.27546 0.34882 0.73564 0.05800
C 	C 	0.31890 0.55260 0.34470 0.25800
C 	C 	0.20211 0.49242 0.33969 -0.22100
C 	C 	0.15580 0.39350 0.42650 0.35700
C 	C 	0.40610 0.66580 0.27010 -0.74400
C 	C 	0.03700 0.29680 0.46660 -1.09200
C 	C 	0.08380 0.59580 0.23640 0.22300
C 	C 	0.14229 0.52241 0.26024 -0.13800
C 	C 	0.11950 0.47460 0.19980 0.20600
C 	C 	0.07080 0.66860 0.27710 -0.69100
C 	C 	0.16520 0.39250 0.19210 -0.69000
C 	C 	0.72454 0.65118 0.26436 0.07200
C 	C 	0.68110 0.44740 0.65530 0.23700
C 	C 	0.79789 0.50758 0.66031 -0.11400
C 	C 	0.84420 0.60650 0.57350 0.19100
C 	C 	0.59390 0.33420 0.72990 -0.74600
C 	C 	0.96300 0.70320 0.53340 -0.48500
C 	C 	0.91620 0.40420 0.76360 0.31100
C 	C 	0.85771 0.47759 0.73976 -0.19900
C 	C 	0.88050 0.52540 0.80020 0.30000
C 	C 	0.92920 0.33140 0.72290 -0.84500
C 	C 	0.83480 0.60750 0.80790 -0.83800
S 	S 	0.18420 0.28247 0.86072 -0.12400
S 	S 	0.81580 0.71753 0.13928 -0.13700
N 	N 	0.34377 0.39634 0.64723 -0.28100
N 	N 	0.34173 0.49387 0.42838 -0.23400
N 	N 	0.24121 0.39784 0.47581 -0.24800
N 	N 	0.05103 0.51529 0.14230 -0.23100
N 	N 	0.03216 0.58934 0.16646 -0.27100
N 	N 	0.65623 0.60366 0.35277 -0.28200
N 	N 	0.65827 0.50613 0.57162 -0.23000
N 	N 	0.75879 0.60216 0.52419 -0.20700
N 	N 	0.94897 0.48471 0.85770 -0.19400
N 	N 	0.96784 0.41066 0.83354 -0.17800
Fe	Fe	-0.00000 0.50000 -0.00000 1.03800
H 	H 	0.76500 0.53200 0.12320 0.09200
H 	H 	0.76940 0.29200 0.02060 0.20100
H 	H 	0.62100 0.26910 0.02380 0.18700
H 	H 	0.64610 0.20070 0.12310 0.19100
H 	H 	0.56400 0.52970 0.22860 0.23300
H 	H 	0.45820 0.41430 0.31000 0.23400
H 	H 	0.43730 0.48190 0.20810 0.23100
H 	H 	0.26870 0.24240 0.04660 0.18800
H 	H 	0.42330 0.26370 0.02290 0.17500
H 	H 	0.36970 0.35170 0.01970 0.18700
H 	H 	0.27950 0.14450 0.48030 0.22400
H 	H 	0.38810 0.26030 0.40890 0.23500
H 	H 	0.42880 0.16600 0.41540 0.22700
H 	H 	0.13050 0.13950 0.23200 0.07500
H 	H 	0.23500 0.46800 0.87680 0.10900
H 	H 	0.23060 0.70800 0.97940 0.27400
H 	H 	0.37900 0.73090 0.97620 0.26600
H 	H 	0.35390 0.79930 0.87690 0.26000
H 	H 	0.43600 0.47030 0.77140 0.25400
H 	H 	0.54180 0.58570 0.69000 0.24400
H 	H 	0.56270 0.51810 0.79190 0.25600
H 	H 	0.73130 0.75760 0.95340 0.30800
H 	H 	0.57670 0.73630 0.97710 0.28300
H 	H 	0.63030 0.64830 0.98030 0.29600
H 	H 	0.72050 0.85550 0.51970 0.25000
H 	H 	0.61190 0.73970 0.59110 0.24700
H 	H 	0.57120 0.83400 0.58460 0.25300
H 	H 	0.86950 0.86050 0.76800 0.14400
C 	C 	0.01110 0.73564 0.91554 -0.01000
C 	C 	0.66360 0.34470 0.10270 0.22000
C 	C 	0.54180 0.33969 0.16789 -0.16500
C 	C 	0.58230 0.42650 0.18000 0.25900
C 	C 	0.67620 0.27010 0.06410 -0.67500
C 	C 	0.50360 0.46660 0.23660 -0.76500
C 	C 	0.32020 0.23640 0.16780 0.21800
C 	C 	0.40253 0.26024 0.21735 -0.15500
C 	C 	0.31930 0.19980 0.32560 0.23700
C 	C 	0.34790 0.27710 0.05430 -0.65400
C 	C 	0.35730 0.19210 0.41540 -0.74300
C 	C 	0.98890 0.26436 0.08446 0.14200
C 	C 	0.33640 0.65530 0.89730 0.27600
C 	C 	0.45820 0.66031 0.83211 -0.16900
C 	C 	0.41770 0.57350 0.82000 0.28600
C 	C 	0.32380 0.72990 0.93590 -0.81600
C 	C 	0.49640 0.53340 0.76340 -0.80100
C 	C 	0.67980 0.76360 0.83220 0.31600
C 	C 	0.59747 0.73976 0.78265 -0.18300
C 	C 	0.68070 0.80020 0.67440 0.26900
C 	C 	0.65210 0.72290 0.94570 -0.88200
C 	C 	0.64270 0.80790 0.58460 -0.78500
S 	S 	0.04492 0.86072 0.85681 -0.09300
S 	S 	0.95508 0.13928 0.14319 -0.16500
N 	N 	0.99100 0.64723 0.95643 -0.19700
N 	N 	0.77011 0.42838 0.07775 -0.22900
N 	N 	0.71702 0.47581 0.12635 -0.22700
N 	N 	0.19333 0.14230 0.34241 -0.23100
N 	N 	0.19862 0.16646 0.24420 -0.21400
N 	N 	0.00900 0.35277 0.04357 -0.35200
N 	N 	0.22989 0.57162 0.92225 -0.22200
N 	N 	0.28298 0.52419 0.87365 -0.22700
N 	N 	0.80667 0.85770 0.65759 -0.19500
N 	N 	0.80138 0.83354 0.75580 -0.23300
Fe	Fe	0.00000 0.00000 0.50000 1.04400
H 	H 	0.88820 0.12320 0.34480 0.10100
H 	H 	0.79000 0.02060 0.68740 0.22900
H 	H 	0.64480 0.02380 0.70710 0.21300
H 	H 	0.76920 0.12310 0.67620 0.22600
H 	H 	0.79260 0.22860 0.24170 0.24600
H 	H 	0.76820 0.31000 0.27570 0.24700
H 	H 	0.64540 0.20810 0.31000 0.23900
H 	H 	0.31530 0.04660 0.71100 0.22100
H 	H 	0.44620 0.02290 0.71340 0.20100
H 	H 	0.38940 0.01970 0.62860 0.20800
H 	H 	0.75980 0.48030 0.37520 0.25500
H 	H 	0.79700 0.40890 0.33080 0.26200
H 	H 	0.84420 0.41540 0.41860 0.26200
H 	H 	0.36250 0.23200 0.62850 0.10800
H 	H 	0.11180 0.87680 0.65520 0.09900
H 	H 	0.21000 0.97940 0.31260 0.24400
H 	H 	0.35520 0.97620 0.29290 0.23900
H 	H 	0.23080 0.87690 0.32380 0.22400
H 	H 	0.20740 0.77140 0.75830 0.24500
H 	H 	0.23180 0.69000 0.72430 0.23500
H 	H 	0.35460 0.79190 0.69000 0.25100
H 	H 	0.68470 0.95340 0.28900 0.27500
H 	H 	0.55380 0.97710 0.28660 0.25600
H 	H 	0.61060 0.98030 0.37140 0.27400
H 	H 	0.24020 0.51970 0.62480 0.21700
H 	H 	0.20300 0.59110 0.66920 0.22100
H 	H 	0.15580 0.58460 0.58140 0.21800
H 	H 	0.63750 0.76800 0.37150 0.11000
C 	C 	0.92664 0.91554 0.34882 0.08300
C 	C 	0.76630 0.10270 0.55260 0.24100
C 	C 	0.70969 0.16789 0.49242 -0.17000
C 	C 	0.76230 0.18000 0.39350 0.27200
C 	C 	0.74030 0.06410 0.66580 -0.73200
C 	C 	0.74020 0.23660 0.29680 -0.78600
C 	C 	0.48800 0.16780 0.59580 0.24900
C 	C 	0.61988 0.21735 0.52241 -0.16700
C 	C 	0.64490 0.32560 0.47460 0.26300
C 	C 	0.40220 0.05430 0.66860 -0.71100
C 	C 	0.77270 0.41540 0.39250 -0.80300
C 	C 	0.07336 0.08446 0.65118 0.04400
C 	C 	0.23370 0.89730 0.44740 0.25400
C 	C 	0.29031 0.83211 0.50758 -0.16500
C 	C 	0.23770 0.82000 0.60650 0.27500
C 	C 	0.25970 0.93590 0.33420 -0.75700
C 	C 	0.25980 0.76340 0.70320 -0.78700
C 	C 	0.51200 0.83220 0.40420 0.28400
C 	C 	0.38012 0.78265 0.47759 -0.17000
C 	C 	0.35510 0.67440 0.52540 0.24300
C 	C 	0.59780 0.94570 0.33140 -0.82500
C 	C 	0.22730 0.58460 0.60750 -0.72600
S 	S 	0.90173 0.85681 0.28247 -0.09000
S 	S 	0.09827 0.14319 0.71753 -0.17000
N 	N 	0.94743 0.95643 0.39634 -0.24300
N 	N 	0.84786 0.07775 0.49387 -0.22600
N 	N 	0.84337 0.12635 0.39784 -0.22800
N 	N 	0.53574 0.34241 0.51529 -0.21900
N 	N 	0.44282 0.24420 0.58934 -0.22000
N 	N 	0.05257 0.04357 0.60366 -0.30400
N 	N 	0.15214 0.92225 0.50613 -0.22500
N 	N 	0.15663 0.87365 0.60216 -0.22600
N 	N 	0.46426 0.65759 0.48471 -0.21600
N 	N 	0.55718 0.75580 0.41066 -0.22800
