data_crystal

_cell_length_a 11.02150
_cell_length_b 15.14860
_cell_length_c 15.14860
_cell_angle_alpha 65.68350
_cell_angle_beta  75.96470
_cell_angle_gamma 104.03500

_symmetry_space_group_name_	'P 1'
_symmetry_space_group_name_H-M	'P 1'

loop_
_symmetry_equiv_pos_as_xyz
  x,y,z

loop_
_atom_site_label
_atom_site_type_symbol
_atom_site_fract_x
_atom_site_fract_y
_atom_site_fract_z
_atom_site_charge
Fe	Fe	0.50000 0.50000 0.50000 1.10400
H 	H 	0.47700 0.68720 0.29180 0.22600
H 	H 	0.35210 0.70720 0.26860 0.21600
H 	H 	0.44520 0.67610 0.20060 0.20800
H 	H 	0.03450 0.24160 0.52870 0.31200
H 	H 	0.04490 0.27580 0.41350 0.30800
H 	H 	0.95560 0.30940 0.48100 0.36200
H 	H 	0.02660 0.71120 0.24170 0.20600
H 	H 	0.15970 0.71390 0.26240 0.20400
H 	H 	0.01860 0.62950 0.35050 0.20700
H 	H 	0.13540 0.37540 0.14500 0.20300
H 	H 	0.12790 0.33130 0.26050 0.20900
H 	H 	0.26270 0.41900 0.16640 0.21300
H 	H 	0.99090 0.62810 0.13940 0.16100
H 	H 	0.52300 0.31280 0.70820 0.23100
H 	H 	0.64790 0.29280 0.73140 0.22200
H 	H 	0.55480 0.32390 0.79940 0.23000
H 	H 	0.96550 0.75840 0.47130 0.16500
H 	H 	0.95510 0.72420 0.58650 0.15500
H 	H 	0.04440 0.69060 0.51900 0.10800
H 	H 	0.97340 0.28880 0.75830 0.30000
H 	H 	0.84030 0.28610 0.73760 0.26300
H 	H 	0.98140 0.37050 0.64950 0.29100
H 	H 	0.86460 0.62460 0.85500 0.28100
H 	H 	0.87210 0.66870 0.73950 0.27800
H 	H 	0.73730 0.58100 0.83360 0.27200
H 	H 	0.00910 0.37190 0.86060 0.07200
C 	C 	0.27609 0.34923 0.73596 0.05700
C 	C 	0.31858 0.55269 0.34455 0.24600
C 	C 	0.20202 0.49232 0.33986 -0.20400
C 	C 	0.15574 0.39388 0.42616 0.32500
C 	C 	0.40590 0.66580 0.26980 -0.72100
C 	C 	0.03720 0.29660 0.46580 -1.04900
C 	C 	0.08360 0.59560 0.23590 0.22800
C 	C 	0.14155 0.52265 0.26030 -0.14600
C 	C 	0.11940 0.47509 0.19969 0.20800
C 	C 	0.07100 0.66900 0.27630 -0.70400
C 	C 	0.16540 0.39290 0.19220 -0.69500
C 	C 	0.72391 0.65077 0.26404 0.07100
C 	C 	0.68142 0.44731 0.65545 0.22600
C 	C 	0.79798 0.50768 0.66014 -0.10100
C 	C 	0.84426 0.60612 0.57384 0.16500
C 	C 	0.59410 0.33420 0.73020 -0.72500
C 	C 	0.96280 0.70340 0.53420 -0.44800
C 	C 	0.91640 0.40440 0.76410 0.31400
C 	C 	0.85845 0.47735 0.73970 -0.20300
C 	C 	0.88060 0.52491 0.80031 0.29900
C 	C 	0.92900 0.33100 0.72370 -0.85700
C 	C 	0.83460 0.60710 0.80780 -0.83800
S 	S 	0.18452 0.28280 0.86063 -0.11100
S 	S 	0.81548 0.71720 0.13937 -0.12600
N 	N 	0.34325 0.39624 0.64659 -0.27400
N 	N 	0.34162 0.49396 0.42820 -0.23400
N 	N 	0.24124 0.39797 0.47615 -0.17600
N 	N 	0.05055 0.51523 0.14218 -0.22800
N 	N 	0.03197 0.58917 0.16626 -0.27300
N 	N 	0.65675 0.60376 0.35341 -0.27500
N 	N 	0.65838 0.50604 0.57180 -0.23000
N 	N 	0.75876 0.60203 0.52385 -0.13900
N 	N 	0.94945 0.48477 0.85782 -0.19000
N 	N 	0.96803 0.41083 0.83374 -0.17900
Fe	Fe	-0.00000 0.50000 -0.00000 1.04100
H 	H 	0.76880 0.29180 0.02100 0.19500
H 	H 	0.62070 0.26860 0.02420 0.18100
H 	H 	0.64580 0.20060 0.12330 0.18500
H 	H 	0.56320 0.52870 0.22970 0.22600
H 	H 	0.45840 0.41350 0.31070 0.22500
H 	H 	0.43660 0.48100 0.20960 0.22200
H 	H 	0.26830 0.24170 0.04710 0.19300
H 	H 	0.42210 0.26240 0.02370 0.18000
H 	H 	0.36910 0.35050 0.02000 0.19500
H 	H 	0.28040 0.14500 0.47960 0.22900
H 	H 	0.38840 0.26050 0.40820 0.23800
H 	H 	0.42910 0.16640 0.41460 0.22900
H 	H 	0.13030 0.13940 0.23250 0.08000
H 	H 	0.23120 0.70820 0.97900 0.26600
H 	H 	0.37930 0.73140 0.97580 0.25900
H 	H 	0.35420 0.79940 0.87670 0.25300
H 	H 	0.43680 0.47130 0.77030 0.24600
H 	H 	0.54160 0.58650 0.68930 0.23300
H 	H 	0.56340 0.51900 0.79040 0.24400
H 	H 	0.73170 0.75830 0.95290 0.31300
H 	H 	0.57790 0.73760 0.97630 0.28800
H 	H 	0.63090 0.64950 0.98000 0.30400
H 	H 	0.71960 0.85500 0.52040 0.25600
H 	H 	0.61160 0.73950 0.59180 0.25000
H 	H 	0.57090 0.83360 0.58540 0.25500
H 	H 	0.86970 0.86060 0.76750 0.14900
C 	C 	0.01205 0.73596 0.91481 -0.00900
C 	C 	0.66313 0.34455 0.10276 0.20900
C 	C 	0.54188 0.33986 0.16782 -0.15100
C 	C 	0.58190 0.42616 0.17996 0.23100
C 	C 	0.67570 0.26980 0.06440 -0.65500
C 	C 	0.50300 0.46580 0.23760 -0.72700
C 	C 	0.31950 0.23590 0.16850 0.22200
C 	C 	0.40185 0.26030 0.21705 -0.16000
C 	C 	0.31909 0.19969 0.32522 0.23800
C 	C 	0.34730 0.27630 0.05470 -0.66600
C 	C 	0.35760 0.19220 0.41490 -0.74600
C 	C 	0.98795 0.26404 0.08519 0.14000
C 	C 	0.33687 0.65545 0.89724 0.26400
C 	C 	0.45812 0.66014 0.83218 -0.15300
C 	C 	0.41810 0.57384 0.82004 0.25500
C 	C 	0.32430 0.73020 0.93560 -0.79300
C 	C 	0.49700 0.53420 0.76240 -0.75800
C 	C 	0.68050 0.76410 0.83150 0.32000
C 	C 	0.59815 0.73970 0.78295 -0.18900
C 	C 	0.68091 0.80031 0.67478 0.27000
C 	C 	0.65270 0.72370 0.94530 -0.89500
C 	C 	0.64240 0.80780 0.58510 -0.78700
S 	S 	0.04515 0.86063 0.85657 -0.08100
S 	S 	0.95485 0.13937 0.14343 -0.15200
N 	N 	0.98984 0.64659 0.95717 -0.19100
N 	N 	0.76982 0.42820 0.07784 -0.22800
N 	N 	0.71739 0.47615 0.12588 -0.16200
N 	N 	0.19273 0.14218 0.34259 -0.22800
N 	N 	0.19823 0.16626 0.24457 -0.21500
N 	N 	0.01016 0.35341 0.04283 -0.34400
N 	N 	0.23018 0.57180 0.92216 -0.22200
N 	N 	0.28261 0.52385 0.87412 -0.14900
N 	N 	0.80727 0.85782 0.65741 -0.19100
N 	N 	0.80177 0.83374 0.75543 -0.23400
Fe	Fe	-0.00000 0.00000 0.50000 1.04700
H 	H 	0.78980 0.02100 0.68720 0.22300
H 	H 	0.64490 0.02420 0.70720 0.20700
H 	H 	0.76910 0.12330 0.67610 0.22000
H 	H 	0.79290 0.22970 0.24160 0.23900
H 	H 	0.76910 0.31070 0.27580 0.23700
H 	H 	0.64620 0.20960 0.30940 0.22800
H 	H 	0.31540 0.04710 0.71120 0.22600
H 	H 	0.44580 0.02370 0.71390 0.20600
H 	H 	0.38910 0.02000 0.62950 0.21600
H 	H 	0.76000 0.47960 0.37540 0.25900
H 	H 	0.79660 0.40820 0.33130 0.26500
H 	H 	0.84370 0.41460 0.41900 0.26400
H 	H 	0.36280 0.23250 0.62810 0.11300
H 	H 	0.21020 0.97900 0.31280 0.23700
H 	H 	0.35510 0.97580 0.29280 0.23200
H 	H 	0.23090 0.87670 0.32390 0.21800
H 	H 	0.20710 0.77030 0.75840 0.23800
H 	H 	0.23090 0.68930 0.72420 0.22600
H 	H 	0.35380 0.79040 0.69060 0.24000
H 	H 	0.68460 0.95290 0.28880 0.28000
H 	H 	0.55420 0.97630 0.28610 0.26100
H 	H 	0.61090 0.98000 0.37050 0.28200
H 	H 	0.24000 0.52040 0.62460 0.22300
H 	H 	0.20340 0.59180 0.66870 0.22400
H 	H 	0.15630 0.58540 0.58100 0.22100
H 	H 	0.63720 0.76750 0.37190 0.11500
C 	C 	0.92686 0.91481 0.34923 0.08200
C 	C 	0.76589 0.10276 0.55269 0.23000
C 	C 	0.70970 0.16782 0.49232 -0.15500
C 	C 	0.76186 0.17996 0.39388 0.24300
C 	C 	0.74010 0.06440 0.66580 -0.71100
C 	C 	0.74060 0.23760 0.29660 -0.74600
C 	C 	0.48800 0.16850 0.59560 0.25300
C 	C 	0.61890 0.21705 0.52265 -0.17300
C 	C 	0.64431 0.32522 0.47509 0.26300
C 	C 	0.40200 0.05470 0.66900 -0.72300
C 	C 	0.77250 0.41490 0.39290 -0.80500
C 	C 	0.07314 0.08519 0.65077 0.04300
C 	C 	0.23411 0.89724 0.44731 0.24300
C 	C 	0.29030 0.83218 0.50768 -0.15000
C 	C 	0.23814 0.82004 0.60612 0.24500
C 	C 	0.25990 0.93560 0.33420 -0.73500
C 	C 	0.25940 0.76240 0.70340 -0.74700
C 	C 	0.51200 0.83150 0.40440 0.28800
C 	C 	0.38110 0.78295 0.47735 -0.17600
C 	C 	0.35569 0.67478 0.52491 0.24400
C 	C 	0.59800 0.94530 0.33100 -0.83700
C 	C 	0.22750 0.58510 0.60710 -0.73000
S 	S 	0.90172 0.85657 0.28280 -0.07900
S 	S 	0.09828 0.14343 0.71720 -0.15800
N 	N 	0.94701 0.95717 0.39624 -0.23500
N 	N 	0.84766 0.07784 0.49396 -0.22600
N 	N 	0.84327 0.12588 0.39797 -0.15600
N 	N 	0.53532 0.34259 0.51523 -0.21600
N 	N 	0.44280 0.24457 0.58917 -0.22100
N 	N 	0.05299 0.04283 0.60376 -0.29700
N 	N 	0.15234 0.92216 0.50604 -0.22500
N 	N 	0.15673 0.87412 0.60203 -0.15600
N 	N 	0.46468 0.65741 0.48477 -0.21300
N 	N 	0.55720 0.75543 0.41083 -0.22900
