data_crystal

_cell_length_a 26.40220
_cell_length_b 26.40220
_cell_length_c 26.40220
_cell_angle_alpha 90.00000
_cell_angle_beta  90.00000
_cell_angle_gamma 90.00000

_symmetry_space_group_name_	'P 1'
_symmetry_space_group_name_H-M	'P 1'

loop_
_symmetry_equiv_pos_as_xyz
  x,y,z

loop_
_atom_site_label
_atom_site_type_symbol
_atom_site_fract_x
_atom_site_fract_y
_atom_site_fract_z
_atom_site_charge
O 	O 	0.81666 0.94744 0.24319 -0.36900
O 	O 	0.81666 0.44744 0.74319 -0.39700
O 	O 	0.31666 0.94744 0.74319 -0.37100
O 	O 	0.31666 0.44744 0.24319 -0.40600
O 	O 	0.18334 0.05256 0.24319 -0.42700
O 	O 	0.18334 0.55256 0.74319 -0.40700
O 	O 	0.68334 0.05256 0.74319 -0.41900
O 	O 	0.68334 0.55256 0.24319 -0.40600
O 	O 	0.18334 0.94744 0.75681 -0.37700
O 	O 	0.18334 0.44744 0.25681 -0.41200
O 	O 	0.68334 0.94744 0.25681 -0.37600
O 	O 	0.68334 0.44744 0.75681 -0.40400
O 	O 	0.81666 0.05256 0.75681 -0.41500
O 	O 	0.81666 0.55256 0.25681 -0.40200
O 	O 	0.31666 0.05256 0.25681 -0.42400
O 	O 	0.31666 0.55256 0.75681 -0.40400
O 	O 	0.24319 0.81666 0.94744 -0.37000
O 	O 	0.24319 0.31666 0.44744 -0.40700
O 	O 	0.74319 0.81666 0.44744 -0.39800
O 	O 	0.74319 0.31666 0.94744 -0.37200
O 	O 	0.24319 0.18334 0.05256 -0.42800
O 	O 	0.24319 0.68334 0.55256 -0.40700
O 	O 	0.74319 0.18334 0.55256 -0.40800
O 	O 	0.74319 0.68334 0.05256 -0.42000
O 	O 	0.75681 0.18334 0.94744 -0.37800
O 	O 	0.75681 0.68334 0.44744 -0.40400
O 	O 	0.25681 0.18334 0.44744 -0.41200
O 	O 	0.25681 0.68334 0.94744 -0.37600
O 	O 	0.75681 0.81666 0.05256 -0.41500
O 	O 	0.75681 0.31666 0.55256 -0.40400
O 	O 	0.25681 0.81666 0.55256 -0.40200
O 	O 	0.25681 0.31666 0.05256 -0.42400
O 	O 	0.94744 0.24319 0.81666 -0.37000
O 	O 	0.94744 0.74319 0.31666 -0.37200
O 	O 	0.44744 0.24319 0.31666 -0.40700
O 	O 	0.44744 0.74319 0.81666 -0.39800
O 	O 	0.05256 0.24319 0.18334 -0.42800
O 	O 	0.05256 0.74319 0.68334 -0.42000
O 	O 	0.55256 0.24319 0.68334 -0.40700
O 	O 	0.55256 0.74319 0.18334 -0.40800
O 	O 	0.94744 0.75681 0.18334 -0.37800
O 	O 	0.94744 0.25681 0.68334 -0.37600
O 	O 	0.44744 0.75681 0.68334 -0.40400
O 	O 	0.44744 0.25681 0.18334 -0.41200
O 	O 	0.05256 0.75681 0.81666 -0.41500
O 	O 	0.05256 0.25681 0.31666 -0.42400
O 	O 	0.55256 0.75681 0.31666 -0.40400
O 	O 	0.55256 0.25681 0.81666 -0.40200
O 	O 	0.94744 0.81666 0.75681 -0.36700
O 	O 	0.94744 0.31666 0.25681 -0.37600
O 	O 	0.44744 0.81666 0.25681 -0.40200
O 	O 	0.44744 0.31666 0.75681 -0.40400
O 	O 	0.05256 0.18334 0.75681 -0.42500
O 	O 	0.05256 0.68334 0.25681 -0.42400
O 	O 	0.55256 0.18334 0.25681 -0.41200
O 	O 	0.55256 0.68334 0.75681 -0.40400
O 	O 	0.94744 0.18334 0.24319 -0.38000
O 	O 	0.94744 0.68334 0.74319 -0.37200
O 	O 	0.44744 0.18334 0.74319 -0.40800
O 	O 	0.44744 0.68334 0.24319 -0.40700
O 	O 	0.05256 0.81666 0.24319 -0.41800
O 	O 	0.05256 0.31666 0.74319 -0.42000
O 	O 	0.55256 0.81666 0.74319 -0.39800
O 	O 	0.55256 0.31666 0.24319 -0.40700
O 	O 	0.81666 0.24319 0.05256 -0.41800
O 	O 	0.81666 0.74319 0.55256 -0.39800
O 	O 	0.31666 0.24319 0.55256 -0.40700
O 	O 	0.31666 0.74319 0.05256 -0.42000
O 	O 	0.18334 0.24319 0.94744 -0.38000
O 	O 	0.18334 0.74319 0.44744 -0.40800
O 	O 	0.68334 0.24319 0.44744 -0.40700
O 	O 	0.68334 0.74319 0.94744 -0.37200
O 	O 	0.18334 0.75681 0.05256 -0.42500
O 	O 	0.18334 0.25681 0.55256 -0.41200
O 	O 	0.68334 0.75681 0.55256 -0.40400
O 	O 	0.68334 0.25681 0.05256 -0.42400
O 	O 	0.81666 0.75681 0.94744 -0.36700
O 	O 	0.81666 0.25681 0.44744 -0.40200
O 	O 	0.31666 0.75681 0.44744 -0.40400
O 	O 	0.31666 0.25681 0.94744 -0.37600
O 	O 	0.24319 0.94744 0.18334 -0.38000
O 	O 	0.24319 0.44744 0.68334 -0.40700
O 	O 	0.74319 0.94744 0.68334 -0.37200
O 	O 	0.74319 0.44744 0.18334 -0.40800
O 	O 	0.24319 0.05256 0.81666 -0.41800
O 	O 	0.24319 0.55256 0.31666 -0.40700
O 	O 	0.74319 0.05256 0.31666 -0.42000
O 	O 	0.74319 0.55256 0.81666 -0.39800
O 	O 	0.75681 0.94744 0.81666 -0.36700
O 	O 	0.75681 0.44744 0.31666 -0.40400
O 	O 	0.25681 0.94744 0.31666 -0.37600
O 	O 	0.25681 0.44744 0.81666 -0.40200
O 	O 	0.75681 0.05256 0.18334 -0.42500
O 	O 	0.75681 0.55256 0.68334 -0.40400
O 	O 	0.25681 0.05256 0.68334 -0.42400
O 	O 	0.25681 0.55256 0.18334 -0.41200
O 	O 	0.18334 0.05256 0.75681 -0.42500
O 	O 	0.18334 0.55256 0.25681 -0.41200
O 	O 	0.68334 0.05256 0.25681 -0.42400
O 	O 	0.68334 0.55256 0.75681 -0.40400
O 	O 	0.81666 0.94744 0.75681 -0.36700
O 	O 	0.81666 0.44744 0.25681 -0.40200
O 	O 	0.31666 0.94744 0.25681 -0.37600
O 	O 	0.31666 0.44744 0.75681 -0.40400
O 	O 	0.81666 0.05256 0.24319 -0.41800
O 	O 	0.81666 0.55256 0.74319 -0.39800
O 	O 	0.31666 0.05256 0.74319 -0.42000
O 	O 	0.31666 0.55256 0.24319 -0.40700
O 	O 	0.18334 0.94744 0.24319 -0.38000
O 	O 	0.18334 0.44744 0.74319 -0.40800
O 	O 	0.68334 0.94744 0.74319 -0.37200
O 	O 	0.68334 0.44744 0.24319 -0.40700
O 	O 	0.75681 0.18334 0.05256 -0.42500
O 	O 	0.75681 0.68334 0.55256 -0.40400
O 	O 	0.25681 0.18334 0.55256 -0.41200
O 	O 	0.25681 0.68334 0.05256 -0.42400
O 	O 	0.75681 0.81666 0.94744 -0.36700
O 	O 	0.75681 0.31666 0.44744 -0.40400
O 	O 	0.25681 0.81666 0.44744 -0.40200
O 	O 	0.25681 0.31666 0.94744 -0.37600
O 	O 	0.24319 0.81666 0.05256 -0.41800
O 	O 	0.24319 0.31666 0.55256 -0.40700
O 	O 	0.74319 0.81666 0.55256 -0.39800
O 	O 	0.74319 0.31666 0.05256 -0.42000
O 	O 	0.24319 0.18334 0.94744 -0.38000
O 	O 	0.24319 0.68334 0.44744 -0.40700
O 	O 	0.74319 0.18334 0.44744 -0.40800
O 	O 	0.74319 0.68334 0.94744 -0.37200
O 	O 	0.05256 0.75681 0.18334 -0.42500
O 	O 	0.05256 0.25681 0.68334 -0.42400
O 	O 	0.55256 0.75681 0.68334 -0.40400
O 	O 	0.55256 0.25681 0.18334 -0.41200
O 	O 	0.94744 0.75681 0.81666 -0.36700
O 	O 	0.94744 0.25681 0.31666 -0.37600
O 	O 	0.44744 0.75681 0.31666 -0.40400
O 	O 	0.44744 0.25681 0.81666 -0.40200
O 	O 	0.05256 0.24319 0.81666 -0.41800
O 	O 	0.05256 0.74319 0.31666 -0.42000
O 	O 	0.55256 0.24319 0.31666 -0.40700
O 	O 	0.55256 0.74319 0.81666 -0.39800
O 	O 	0.94744 0.24319 0.18334 -0.38000
O 	O 	0.94744 0.74319 0.68334 -0.37200
O 	O 	0.44744 0.24319 0.68334 -0.40700
O 	O 	0.44744 0.74319 0.18334 -0.40800
O 	O 	0.05256 0.18334 0.24319 -0.42800
O 	O 	0.05256 0.68334 0.74319 -0.42000
O 	O 	0.55256 0.18334 0.74319 -0.40800
O 	O 	0.55256 0.68334 0.24319 -0.40700
O 	O 	0.94744 0.81666 0.24319 -0.37000
O 	O 	0.94744 0.31666 0.74319 -0.37200
O 	O 	0.44744 0.81666 0.74319 -0.39800
O 	O 	0.44744 0.31666 0.24319 -0.40700
O 	O 	0.05256 0.81666 0.75681 -0.41500
O 	O 	0.05256 0.31666 0.25681 -0.42400
O 	O 	0.55256 0.81666 0.25681 -0.40200
O 	O 	0.55256 0.31666 0.75681 -0.40400
O 	O 	0.94744 0.18334 0.75681 -0.37800
O 	O 	0.94744 0.68334 0.25681 -0.37600
O 	O 	0.44744 0.18334 0.25681 -0.41200
O 	O 	0.44744 0.68334 0.75681 -0.40400
O 	O 	0.18334 0.75681 0.94744 -0.37800
O 	O 	0.18334 0.25681 0.44744 -0.41200
O 	O 	0.68334 0.75681 0.44744 -0.40400
O 	O 	0.68334 0.25681 0.94744 -0.37600
O 	O 	0.81666 0.75681 0.05256 -0.41500
O 	O 	0.81666 0.25681 0.55256 -0.40200
O 	O 	0.31666 0.75681 0.55256 -0.40400
O 	O 	0.31666 0.25681 0.05256 -0.42400
O 	O 	0.81666 0.24319 0.94744 -0.37000
O 	O 	0.81666 0.74319 0.44744 -0.39800
O 	O 	0.31666 0.24319 0.44744 -0.40700
O 	O 	0.31666 0.74319 0.94744 -0.37200
O 	O 	0.18334 0.24319 0.05256 -0.42800
O 	O 	0.18334 0.74319 0.55256 -0.40800
O 	O 	0.68334 0.24319 0.55256 -0.40700
O 	O 	0.68334 0.74319 0.05256 -0.42000
O 	O 	0.75681 0.05256 0.81666 -0.41500
O 	O 	0.75681 0.55256 0.31666 -0.40400
O 	O 	0.25681 0.05256 0.31666 -0.42400
O 	O 	0.25681 0.55256 0.81666 -0.40200
O 	O 	0.75681 0.94744 0.18334 -0.37800
O 	O 	0.75681 0.44744 0.68334 -0.40400
O 	O 	0.25681 0.94744 0.68334 -0.37600
O 	O 	0.25681 0.44744 0.18334 -0.41200
O 	O 	0.24319 0.05256 0.18334 -0.42800
O 	O 	0.24319 0.55256 0.68334 -0.40700
O 	O 	0.74319 0.05256 0.68334 -0.42000
O 	O 	0.74319 0.55256 0.18334 -0.40800
O 	O 	0.24319 0.94744 0.81666 -0.37000
O 	O 	0.24319 0.44744 0.31666 -0.40700
O 	O 	0.74319 0.94744 0.31666 -0.37200
O 	O 	0.74319 0.44744 0.81666 -0.39800
Cu	Cu	0.78491 -0.00000 0.28491 0.87700
Cu	Cu	0.78491 0.50000 0.78491 0.90800
Cu	Cu	0.21509 -0.00000 0.28491 0.87400
Cu	Cu	0.21509 0.50000 0.78491 0.90400
Cu	Cu	0.21509 0.00000 0.71509 0.87400
Cu	Cu	0.21509 0.50000 0.21509 0.90100
Cu	Cu	0.78491 0.00000 0.71509 0.87700
Cu	Cu	0.78491 0.50000 0.21509 0.90400
Cu	Cu	0.28491 0.78491 -0.00000 0.87700
Cu	Cu	0.28491 0.28491 0.50000 0.90400
Cu	Cu	0.28491 0.21509 -0.00000 0.87400
Cu	Cu	0.28491 0.71509 0.50000 0.90400
Cu	Cu	0.71509 0.21509 -0.00000 0.87400
Cu	Cu	0.71509 0.71509 0.50000 0.90400
Cu	Cu	0.71509 0.78491 -0.00000 0.87700
Cu	Cu	0.71509 0.28491 0.50000 0.90400
Cu	Cu	0.00000 0.28491 0.78491 0.87700
Cu	Cu	0.50000 0.28491 0.28491 0.90400
Cu	Cu	0.00000 0.28491 0.21509 0.87400
Cu	Cu	0.50000 0.28491 0.71509 0.90400
Cu	Cu	0.00000 0.71509 0.21509 0.87400
Cu	Cu	0.50000 0.71509 0.71509 0.90400
Cu	Cu	0.00000 0.71509 0.78491 0.87700
Cu	Cu	0.50000 0.71509 0.28491 0.90400
Cu	Cu	0.00000 0.78491 0.71509 0.87700
Cu	Cu	0.50000 0.78491 0.21509 0.90400
Cu	Cu	-0.00000 0.21509 0.71509 0.87400
Cu	Cu	0.50000 0.21509 0.21509 0.90100
Cu	Cu	0.00000 0.21509 0.28491 0.87400
Cu	Cu	0.50000 0.21509 0.78491 0.90400
Cu	Cu	0.00000 0.78491 0.28491 0.87700
Cu	Cu	0.50000 0.78491 0.78491 0.90800
Cu	Cu	0.78491 0.28491 -0.00000 0.87700
Cu	Cu	0.78491 0.78491 0.50000 0.90800
Cu	Cu	0.21509 0.28491 -0.00000 0.87400
Cu	Cu	0.21509 0.78491 0.50000 0.90400
Cu	Cu	0.21509 0.71509 -0.00000 0.87400
Cu	Cu	0.21509 0.21509 0.50000 0.90100
Cu	Cu	0.78491 0.71509 -0.00000 0.87700
Cu	Cu	0.78491 0.21509 0.50000 0.90400
Cu	Cu	0.28491 0.00000 0.21509 0.87400
Cu	Cu	0.28491 0.50000 0.71509 0.90400
Cu	Cu	0.28491 0.00000 0.78491 0.87700
Cu	Cu	0.28491 0.50000 0.28491 0.90400
Cu	Cu	0.71509 0.00000 0.78491 0.87700
Cu	Cu	0.71509 0.50000 0.28491 0.90400
Cu	Cu	0.71509 0.00000 0.21509 0.87400
Cu	Cu	0.71509 0.50000 0.71509 0.90400
C 	C 	0.79723 0.93140 0.20277 0.36300
C 	C 	0.82256 0.88770 0.17744 -0.09800
C 	C 	0.79723 0.43140 0.70277 0.36700
C 	C 	0.82256 0.38770 0.67744 -0.10400
C 	C 	0.29723 0.93140 0.70277 0.36300
C 	C 	0.32256 0.88770 0.67744 -0.09900
C 	C 	0.29723 0.43140 0.20277 0.37200
C 	C 	0.32256 0.38770 0.17744 -0.12100
C 	C 	0.20277 0.06860 0.20277 0.37300
C 	C 	0.17744 0.11230 0.17744 -0.13500
C 	C 	0.20277 0.56860 0.70277 0.37000
C 	C 	0.17744 0.61230 0.67744 -0.11700
C 	C 	0.70277 0.06860 0.70277 0.36900
C 	C 	0.67744 0.11230 0.67744 -0.12000
C 	C 	0.70277 0.56860 0.20277 0.37000
C 	C 	0.67744 0.61230 0.17744 -0.11700
C 	C 	0.20277 0.93140 0.79723 0.36300
C 	C 	0.17744 0.88770 0.82256 -0.09800
C 	C 	0.20277 0.43140 0.29723 0.37200
C 	C 	0.17744 0.38770 0.32256 -0.12100
C 	C 	0.70277 0.93140 0.29723 0.36300
C 	C 	0.67744 0.88770 0.32256 -0.09900
C 	C 	0.70277 0.43140 0.79723 0.36700
C 	C 	0.67744 0.38770 0.82256 -0.10400
C 	C 	0.79723 0.06860 0.79723 0.36800
C 	C 	0.82256 0.11230 0.82256 -0.10800
C 	C 	0.79723 0.56860 0.29723 0.36900
C 	C 	0.82256 0.61230 0.32256 -0.10600
C 	C 	0.29723 0.06860 0.29723 0.37200
C 	C 	0.32256 0.11230 0.32256 -0.12500
C 	C 	0.29723 0.56860 0.79723 0.36900
C 	C 	0.32256 0.61230 0.82256 -0.10600
C 	C 	0.20277 0.79723 0.93140 0.36300
C 	C 	0.17744 0.82256 0.88770 -0.09800
C 	C 	0.20277 0.29723 0.43140 0.37200
C 	C 	0.17744 0.32256 0.38770 -0.12100
C 	C 	0.70277 0.79723 0.43140 0.36700
C 	C 	0.67744 0.82256 0.38770 -0.10400
C 	C 	0.70277 0.29723 0.93140 0.36300
C 	C 	0.67744 0.32256 0.88770 -0.09900
C 	C 	0.20277 0.20277 0.06860 0.37300
C 	C 	0.17744 0.17744 0.11230 -0.13500
C 	C 	0.20277 0.70277 0.56860 0.37000
C 	C 	0.17744 0.67744 0.61230 -0.11700
C 	C 	0.70277 0.20277 0.56860 0.37000
C 	C 	0.67744 0.17744 0.61230 -0.11700
C 	C 	0.70277 0.70277 0.06860 0.36900
C 	C 	0.67744 0.67744 0.11230 -0.12000
C 	C 	0.79723 0.20277 0.93140 0.36300
C 	C 	0.82256 0.17744 0.88770 -0.09800
C 	C 	0.79723 0.70277 0.43140 0.36700
C 	C 	0.82256 0.67744 0.38770 -0.10400
C 	C 	0.29723 0.20277 0.43140 0.37200
C 	C 	0.32256 0.17744 0.38770 -0.12100
C 	C 	0.29723 0.70277 0.93140 0.36300
C 	C 	0.32256 0.67744 0.88770 -0.09900
C 	C 	0.79723 0.79723 0.06860 0.36800
C 	C 	0.82256 0.82256 0.11230 -0.10800
C 	C 	0.79723 0.29723 0.56860 0.36900
C 	C 	0.82256 0.32256 0.61230 -0.10600
C 	C 	0.29723 0.79723 0.56860 0.36900
C 	C 	0.32256 0.82256 0.61230 -0.10600
C 	C 	0.29723 0.29723 0.06860 0.37200
C 	C 	0.32256 0.32256 0.11230 -0.12500
C 	C 	0.93140 0.20277 0.79723 0.36300
C 	C 	0.88770 0.17744 0.82256 -0.09800
C 	C 	0.93140 0.70277 0.29723 0.36300
C 	C 	0.88770 0.67744 0.32256 -0.09900
C 	C 	0.43140 0.20277 0.29723 0.37200
C 	C 	0.38770 0.17744 0.32256 -0.12100
C 	C 	0.43140 0.70277 0.79723 0.36700
C 	C 	0.38770 0.67744 0.82256 -0.10400
C 	C 	0.06860 0.20277 0.20277 0.37300
C 	C 	0.11230 0.17744 0.17744 -0.13500
C 	C 	0.06860 0.70277 0.70277 0.36900
C 	C 	0.11230 0.67744 0.67744 -0.12000
C 	C 	0.56860 0.20277 0.70277 0.37000
C 	C 	0.61230 0.17744 0.67744 -0.11700
C 	C 	0.56860 0.70277 0.20277 0.37000
C 	C 	0.61230 0.67744 0.17744 -0.11700
C 	C 	0.93140 0.79723 0.20277 0.36300
C 	C 	0.88770 0.82256 0.17744 -0.09800
C 	C 	0.93140 0.29723 0.70277 0.36300
C 	C 	0.88770 0.32256 0.67744 -0.09900
C 	C 	0.43140 0.79723 0.70277 0.36700
C 	C 	0.38770 0.82256 0.67744 -0.10400
C 	C 	0.43140 0.29723 0.20277 0.37200
C 	C 	0.38770 0.32256 0.17744 -0.12100
C 	C 	0.06860 0.79723 0.79723 0.36800
C 	C 	0.11230 0.82256 0.82256 -0.10800
C 	C 	0.06860 0.29723 0.29723 0.37200
C 	C 	0.11230 0.32256 0.32256 -0.12500
C 	C 	0.56860 0.79723 0.29723 0.36900
C 	C 	0.61230 0.82256 0.32256 -0.10600
C 	C 	0.56860 0.29723 0.79723 0.36900
C 	C 	0.61230 0.32256 0.82256 -0.10600
C 	C 	0.93140 0.79723 0.79723 0.36000
C 	C 	0.88770 0.82256 0.82256 -0.08400
C 	C 	0.93140 0.29723 0.29723 0.36500
C 	C 	0.88770 0.32256 0.32256 -0.10200
C 	C 	0.43140 0.79723 0.29723 0.36900
C 	C 	0.38770 0.82256 0.32256 -0.10700
C 	C 	0.43140 0.29723 0.79723 0.36900
C 	C 	0.38770 0.32256 0.82256 -0.10700
C 	C 	0.06860 0.20277 0.79723 0.37000
C 	C 	0.11230 0.17744 0.82256 -0.12200
C 	C 	0.06860 0.70277 0.29723 0.37100
C 	C 	0.11230 0.67744 0.32256 -0.12300
C 	C 	0.56860 0.20277 0.29723 0.37100
C 	C 	0.61230 0.17744 0.32256 -0.12000
C 	C 	0.56860 0.70277 0.79723 0.36700
C 	C 	0.61230 0.67744 0.82256 -0.10300
C 	C 	0.93140 0.20277 0.20277 0.36500
C 	C 	0.88770 0.17744 0.17744 -0.11200
C 	C 	0.93140 0.70277 0.70277 0.36100
C 	C 	0.88770 0.67744 0.67744 -0.09700
C 	C 	0.43140 0.20277 0.70277 0.37000
C 	C 	0.38770 0.17744 0.67744 -0.11800
C 	C 	0.43140 0.70277 0.20277 0.37000
C 	C 	0.38770 0.67744 0.17744 -0.11800
C 	C 	0.06860 0.79723 0.20277 0.37000
C 	C 	0.11230 0.82256 0.17744 -0.12200
C 	C 	0.06860 0.29723 0.70277 0.37100
C 	C 	0.11230 0.32256 0.67744 -0.12300
C 	C 	0.56860 0.79723 0.70277 0.36700
C 	C 	0.61230 0.82256 0.67744 -0.10300
C 	C 	0.56860 0.29723 0.20277 0.37100
C 	C 	0.61230 0.32256 0.17744 -0.12000
C 	C 	0.79723 0.20277 0.06860 0.37000
C 	C 	0.82256 0.17744 0.11230 -0.12200
C 	C 	0.79723 0.70277 0.56860 0.36700
C 	C 	0.82256 0.67744 0.61230 -0.10300
C 	C 	0.29723 0.20277 0.56860 0.37100
C 	C 	0.32256 0.17744 0.61230 -0.12000
C 	C 	0.29723 0.70277 0.06860 0.37100
C 	C 	0.32256 0.67744 0.11230 -0.12300
C 	C 	0.20277 0.20277 0.93140 0.36500
C 	C 	0.17744 0.17744 0.88770 -0.11200
C 	C 	0.20277 0.70277 0.43140 0.37000
C 	C 	0.17744 0.67744 0.38770 -0.11800
C 	C 	0.70277 0.20277 0.43140 0.37000
C 	C 	0.67744 0.17744 0.38770 -0.11800
C 	C 	0.70277 0.70277 0.93140 0.36100
C 	C 	0.67744 0.67744 0.88770 -0.09700
C 	C 	0.20277 0.79723 0.06860 0.37000
C 	C 	0.17744 0.82256 0.11230 -0.12200
C 	C 	0.20277 0.29723 0.56860 0.37100
C 	C 	0.17744 0.32256 0.61230 -0.12000
C 	C 	0.70277 0.79723 0.56860 0.36700
C 	C 	0.67744 0.82256 0.61230 -0.10300
C 	C 	0.70277 0.29723 0.06860 0.37100
C 	C 	0.67744 0.32256 0.11230 -0.12300
C 	C 	0.79723 0.79723 0.93140 0.36000
C 	C 	0.82256 0.82256 0.88770 -0.08400
C 	C 	0.79723 0.29723 0.43140 0.36900
C 	C 	0.82256 0.32256 0.38770 -0.10700
C 	C 	0.29723 0.79723 0.43140 0.36900
C 	C 	0.32256 0.82256 0.38770 -0.10700
C 	C 	0.29723 0.29723 0.93140 0.36500
C 	C 	0.32256 0.32256 0.88770 -0.10200
C 	C 	0.20277 0.93140 0.20277 0.36500
C 	C 	0.17744 0.88770 0.17744 -0.11200
C 	C 	0.20277 0.43140 0.70277 0.37000
C 	C 	0.17744 0.38770 0.67744 -0.11800
C 	C 	0.70277 0.93140 0.70277 0.36100
C 	C 	0.67744 0.88770 0.67744 -0.09700
C 	C 	0.70277 0.43140 0.20277 0.37000
C 	C 	0.67744 0.38770 0.17744 -0.11800
C 	C 	0.20277 0.06860 0.79723 0.37000
C 	C 	0.17744 0.11230 0.82256 -0.12200
C 	C 	0.20277 0.56860 0.29723 0.37100
C 	C 	0.17744 0.61230 0.32256 -0.12000
C 	C 	0.70277 0.06860 0.29723 0.37100
C 	C 	0.67744 0.11230 0.32256 -0.12300
C 	C 	0.70277 0.56860 0.79723 0.36700
C 	C 	0.67744 0.61230 0.82256 -0.10300
C 	C 	0.79723 0.93140 0.79723 0.36000
C 	C 	0.82256 0.88770 0.82256 -0.08400
C 	C 	0.79723 0.43140 0.29723 0.36900
C 	C 	0.82256 0.38770 0.32256 -0.10700
C 	C 	0.29723 0.93140 0.29723 0.36500
C 	C 	0.32256 0.88770 0.32256 -0.10200
C 	C 	0.29723 0.43140 0.79723 0.36900
C 	C 	0.32256 0.38770 0.82256 -0.10700
C 	C 	0.79723 0.06860 0.20277 0.37000
C 	C 	0.82256 0.11230 0.17744 -0.12200
C 	C 	0.79723 0.56860 0.70277 0.36700
C 	C 	0.82256 0.61230 0.67744 -0.10300
C 	C 	0.29723 0.06860 0.70277 0.37100
C 	C 	0.32256 0.11230 0.67744 -0.12300
C 	C 	0.29723 0.56860 0.20277 0.37100
C 	C 	0.32256 0.61230 0.17744 -0.12000
C 	C 	0.86595 0.86595 0.19910 0.04900
H 	H 	0.88030 0.88030 0.22790 0.06000
C 	C 	0.86595 0.36595 0.69910 0.05100
H 	H 	0.88030 0.38030 0.72790 0.05500
C 	C 	0.36595 0.86595 0.69910 0.05100
H 	H 	0.38030 0.88030 0.72790 0.05500
C 	C 	0.36595 0.36595 0.19910 0.06100
H 	H 	0.38030 0.38030 0.22790 0.04300
C 	C 	0.13405 0.13405 0.19910 0.06600
H 	H 	0.11970 0.11970 0.22790 0.02900
C 	C 	0.13405 0.63405 0.69910 0.05800
H 	H 	0.11970 0.61970 0.72790 0.04100
C 	C 	0.63405 0.13405 0.69910 0.05800
H 	H 	0.61970 0.11970 0.72790 0.04100
C 	C 	0.63405 0.63405 0.19910 0.05800
H 	H 	0.61970 0.61970 0.22790 0.04400
C 	C 	0.13405 0.86595 0.80090 0.05100
H 	H 	0.11970 0.88030 0.77210 0.04900
C 	C 	0.13405 0.36595 0.30090 0.06200
H 	H 	0.11970 0.38030 0.27210 0.03600
C 	C 	0.63405 0.86595 0.30090 0.05100
H 	H 	0.61970 0.88030 0.27210 0.05200
C 	C 	0.63405 0.36595 0.80090 0.05300
H 	H 	0.61970 0.38030 0.77210 0.04800
C 	C 	0.86595 0.13405 0.80090 0.05100
H 	H 	0.88030 0.11970 0.77210 0.04900
C 	C 	0.86595 0.63405 0.30090 0.05100
H 	H 	0.88030 0.61970 0.27210 0.05200
C 	C 	0.36595 0.13405 0.30090 0.06200
H 	H 	0.38030 0.11970 0.27210 0.03600
C 	C 	0.36595 0.63405 0.80090 0.05300
H 	H 	0.38030 0.61970 0.77210 0.04800
C 	C 	0.19910 0.86595 0.86595 0.04900
H 	H 	0.22790 0.88030 0.88030 0.06000
C 	C 	0.19910 0.36595 0.36595 0.06100
H 	H 	0.22790 0.38030 0.38030 0.04300
C 	C 	0.69910 0.86595 0.36595 0.05100
H 	H 	0.72790 0.88030 0.38030 0.05500
C 	C 	0.69910 0.36595 0.86595 0.05100
H 	H 	0.72790 0.38030 0.88030 0.05500
C 	C 	0.19910 0.13405 0.13405 0.06600
H 	H 	0.22790 0.11970 0.11970 0.02900
C 	C 	0.19910 0.63405 0.63405 0.05800
H 	H 	0.22790 0.61970 0.61970 0.04400
C 	C 	0.69910 0.13405 0.63405 0.05800
H 	H 	0.72790 0.11970 0.61970 0.04100
C 	C 	0.69910 0.63405 0.13405 0.05800
H 	H 	0.72790 0.61970 0.11970 0.04100
C 	C 	0.80090 0.13405 0.86595 0.05100
H 	H 	0.77210 0.11970 0.88030 0.04900
C 	C 	0.80090 0.63405 0.36595 0.05300
H 	H 	0.77210 0.61970 0.38030 0.04800
C 	C 	0.30090 0.13405 0.36595 0.06200
H 	H 	0.27210 0.11970 0.38030 0.03600
C 	C 	0.30090 0.63405 0.86595 0.05100
H 	H 	0.27210 0.61970 0.88030 0.05200
C 	C 	0.80090 0.86595 0.13405 0.05100
H 	H 	0.77210 0.88030 0.11970 0.04900
C 	C 	0.80090 0.36595 0.63405 0.05300
H 	H 	0.77210 0.38030 0.61970 0.04800
C 	C 	0.30090 0.86595 0.63405 0.05100
H 	H 	0.27210 0.88030 0.61970 0.05200
C 	C 	0.30090 0.36595 0.13405 0.06200
H 	H 	0.27210 0.38030 0.11970 0.03600
C 	C 	0.86595 0.19910 0.86595 0.04900
H 	H 	0.88030 0.22790 0.88030 0.06000
C 	C 	0.86595 0.69910 0.36595 0.05100
H 	H 	0.88030 0.72790 0.38030 0.05500
C 	C 	0.36595 0.19910 0.36595 0.06100
H 	H 	0.38030 0.22790 0.38030 0.04300
C 	C 	0.36595 0.69910 0.86595 0.05100
H 	H 	0.38030 0.72790 0.88030 0.05500
C 	C 	0.13405 0.19910 0.13405 0.06600
H 	H 	0.11970 0.22790 0.11970 0.02900
C 	C 	0.13405 0.69910 0.63405 0.05800
H 	H 	0.11970 0.72790 0.61970 0.04100
C 	C 	0.63405 0.19910 0.63405 0.05800
H 	H 	0.61970 0.22790 0.61970 0.04400
C 	C 	0.63405 0.69910 0.13405 0.05800
H 	H 	0.61970 0.72790 0.11970 0.04100
C 	C 	0.86595 0.80090 0.13405 0.05100
H 	H 	0.88030 0.77210 0.11970 0.04900
C 	C 	0.86595 0.30090 0.63405 0.05100
H 	H 	0.88030 0.27210 0.61970 0.05200
C 	C 	0.36595 0.80090 0.63405 0.05300
H 	H 	0.38030 0.77210 0.61970 0.04800
C 	C 	0.36595 0.30090 0.13405 0.06200
H 	H 	0.38030 0.27210 0.11970 0.03600
C 	C 	0.13405 0.80090 0.86595 0.05100
H 	H 	0.11970 0.77210 0.88030 0.04900
C 	C 	0.13405 0.30090 0.36595 0.06200
H 	H 	0.11970 0.27210 0.38030 0.03600
C 	C 	0.63405 0.80090 0.36595 0.05300
H 	H 	0.61970 0.77210 0.38030 0.04800
C 	C 	0.63405 0.30090 0.86595 0.05100
H 	H 	0.61970 0.27210 0.88030 0.05200
C 	C 	0.86595 0.86595 0.80090 0.04200
H 	H 	0.88030 0.88030 0.77210 0.06400
C 	C 	0.86595 0.36595 0.30090 0.05300
H 	H 	0.88030 0.38030 0.27210 0.05100
C 	C 	0.36595 0.86595 0.30090 0.05300
H 	H 	0.38030 0.88030 0.27210 0.05100
C 	C 	0.36595 0.36595 0.80090 0.05400
H 	H 	0.38030 0.38030 0.77210 0.04700
C 	C 	0.13405 0.13405 0.80090 0.06000
H 	H 	0.11970 0.11970 0.77210 0.03400
C 	C 	0.13405 0.63405 0.30090 0.06000
H 	H 	0.11970 0.61970 0.27210 0.03700
C 	C 	0.63405 0.13405 0.30090 0.06000
H 	H 	0.61970 0.11970 0.27210 0.03700
C 	C 	0.63405 0.63405 0.80090 0.05100
H 	H 	0.61970 0.61970 0.77210 0.04800
C 	C 	0.86595 0.13405 0.19910 0.05700
H 	H 	0.88030 0.11970 0.22790 0.04400
C 	C 	0.86595 0.63405 0.69910 0.04900
H 	H 	0.88030 0.61970 0.72790 0.05600
C 	C 	0.36595 0.13405 0.69910 0.05900
H 	H 	0.38030 0.11970 0.72790 0.04000
C 	C 	0.36595 0.63405 0.19910 0.05900
H 	H 	0.38030 0.61970 0.22790 0.04300
C 	C 	0.13405 0.86595 0.19910 0.05700
H 	H 	0.11970 0.88030 0.22790 0.04400
C 	C 	0.13405 0.36595 0.69910 0.05900
H 	H 	0.11970 0.38030 0.72790 0.04000
C 	C 	0.63405 0.86595 0.69910 0.04900
H 	H 	0.61970 0.88030 0.72790 0.05600
C 	C 	0.63405 0.36595 0.19910 0.05900
H 	H 	0.61970 0.38030 0.22790 0.04300
C 	C 	0.86595 0.19910 0.13405 0.05700
H 	H 	0.88030 0.22790 0.11970 0.04400
C 	C 	0.86595 0.69910 0.63405 0.04900
H 	H 	0.88030 0.72790 0.61970 0.05600
C 	C 	0.36595 0.19910 0.63405 0.05900
H 	H 	0.38030 0.22790 0.61970 0.04300
C 	C 	0.36595 0.69910 0.13405 0.05900
H 	H 	0.38030 0.72790 0.11970 0.04000
C 	C 	0.13405 0.19910 0.86595 0.05700
H 	H 	0.11970 0.22790 0.88030 0.04400
C 	C 	0.13405 0.69910 0.36595 0.05900
H 	H 	0.11970 0.72790 0.38030 0.04000
C 	C 	0.63405 0.19910 0.36595 0.05900
H 	H 	0.61970 0.22790 0.38030 0.04300
C 	C 	0.63405 0.69910 0.86595 0.04900
H 	H 	0.61970 0.72790 0.88030 0.05600
C 	C 	0.13405 0.80090 0.13405 0.06000
H 	H 	0.11970 0.77210 0.11970 0.03400
C 	C 	0.13405 0.30090 0.63405 0.06000
H 	H 	0.11970 0.27210 0.61970 0.03700
C 	C 	0.63405 0.80090 0.63405 0.05100
H 	H 	0.61970 0.77210 0.61970 0.04800
C 	C 	0.63405 0.30090 0.13405 0.06000
H 	H 	0.61970 0.27210 0.11970 0.03700
C 	C 	0.86595 0.80090 0.86595 0.04200
H 	H 	0.88030 0.77210 0.88030 0.06400
C 	C 	0.86595 0.30090 0.36595 0.05300
H 	H 	0.88030 0.27210 0.38030 0.05100
C 	C 	0.36595 0.80090 0.36595 0.05400
H 	H 	0.38030 0.77210 0.38030 0.04700
C 	C 	0.36595 0.30090 0.86595 0.05300
H 	H 	0.38030 0.27210 0.88030 0.05100
C 	C 	0.19910 0.86595 0.13405 0.05700
H 	H 	0.22790 0.88030 0.11970 0.04400
C 	C 	0.19910 0.36595 0.63405 0.05900
H 	H 	0.22790 0.38030 0.61970 0.04300
C 	C 	0.69910 0.86595 0.63405 0.04900
H 	H 	0.72790 0.88030 0.61970 0.05600
C 	C 	0.69910 0.36595 0.13405 0.05900
H 	H 	0.72790 0.38030 0.11970 0.04000
C 	C 	0.19910 0.13405 0.86595 0.05700
H 	H 	0.22790 0.11970 0.88030 0.04400
C 	C 	0.19910 0.63405 0.36595 0.05900
H 	H 	0.22790 0.61970 0.38030 0.04300
C 	C 	0.69910 0.13405 0.36595 0.05900
H 	H 	0.72790 0.11970 0.38030 0.04000
C 	C 	0.69910 0.63405 0.86595 0.04900
H 	H 	0.72790 0.61970 0.88030 0.05600
C 	C 	0.80090 0.86595 0.86595 0.04200
H 	H 	0.77210 0.88030 0.88030 0.06400
C 	C 	0.80090 0.36595 0.36595 0.05400
H 	H 	0.77210 0.38030 0.38030 0.04700
C 	C 	0.30090 0.86595 0.36595 0.05300
H 	H 	0.27210 0.88030 0.38030 0.05100
C 	C 	0.30090 0.36595 0.86595 0.05300
H 	H 	0.27210 0.38030 0.88030 0.05100
C 	C 	0.80090 0.13405 0.13405 0.06000
H 	H 	0.77210 0.11970 0.11970 0.03400
C 	C 	0.80090 0.63405 0.63405 0.05100
H 	H 	0.77210 0.61970 0.61970 0.04800
C 	C 	0.30090 0.13405 0.63405 0.06000
H 	H 	0.27210 0.11970 0.61970 0.03700
C 	C 	0.30090 0.63405 0.13405 0.06000
H 	H 	0.27210 0.61970 0.11970 0.03700
