data_crystal

_cell_length_a 30.43800
_cell_length_b 44.98500
_cell_length_c 30.39920
_cell_angle_alpha 90.00000
_cell_angle_beta  90.00000
_cell_angle_gamma 90.00000

_symmetry_space_group_name_	'P 1'
_symmetry_space_group_name_H-M	'P 1'

loop_
_symmetry_equiv_pos_as_xyz
  x,y,z

loop_
_atom_site_label
_atom_site_type_symbol
_atom_site_fract_x
_atom_site_fract_y
_atom_site_fract_z
_atom_site_charge
Cu	Cu	0.49870 0.25012 0.61646 0.85400
N 	N 	0.26640 0.45300 0.43840 -0.05800
N 	N 	0.41810 0.28970 0.59440 -0.06100
N 	N 	0.52290 0.21120 0.53540 -0.05400
N 	N 	0.68110 0.04930 0.38570 -0.06000
C 	C 	0.25760 0.47100 0.41540 -0.19200
C 	C 	0.28610 0.42890 0.46300 -0.10100
C 	C 	0.32870 0.41970 0.44910 0.17500
C 	C 	0.34740 0.39700 0.47010 -0.23300
H 	H 	0.37580 0.39060 0.46100 0.09600
C 	C 	0.32740 0.38240 0.50410 0.09700
C 	C 	0.28470 0.39110 0.51670 -0.20500
H 	H 	0.27000 0.38010 0.53900 0.08700
C 	C 	0.26410 0.41450 0.49800 0.14600
C 	C 	0.22130 0.42580 0.51550 -0.27300
C 	C 	0.22340 0.44810 0.54960 0.28700
C 	C 	0.18140 0.45720 0.56990 -0.38400
H 	H 	0.18140 0.47130 0.59310 0.13200
C 	C 	0.14370 0.44580 0.55600 0.30700
C 	C 	0.14160 0.42150 0.52530 -0.35300
H 	H 	0.11470 0.41240 0.51710 0.11300
C 	C 	0.18430 0.41190 0.50750 0.28900
C 	C 	0.17980 0.38450 0.47840 -0.59600
H 	H 	0.14890 0.37820 0.47760 0.17400
H 	H 	0.18960 0.38930 0.44850 0.17400
H 	H 	0.19780 0.36840 0.49020 0.17800
C 	C 	0.26680 0.46070 0.56470 -0.61900
H 	H 	0.26170 0.47540 0.58790 0.17800
H 	H 	0.28530 0.44470 0.57610 0.19500
H 	H 	0.28160 0.47030 0.53980 0.18500
C 	C 	0.09840 0.45590 0.57460 -0.59700
H 	H 	0.07490 0.44480 0.56000 0.16700
H 	H 	0.09750 0.45210 0.60640 0.16900
H 	H 	0.09450 0.47720 0.56920 0.16300
C 	C 	0.35080 0.43450 0.41020 -0.36000
C 	C 	0.36040 0.41590 0.37240 0.40700
C 	C 	0.38490 0.42810 0.33850 -0.54600
H 	H 	0.39420 0.41560 0.31510 0.18300
C 	C 	0.39660 0.45890 0.33730 0.58500
C 	C 	0.39050 0.47360 0.37440 -0.61000
H 	H 	0.40130 0.49330 0.37610 0.22200
C 	C 	0.36870 0.46180 0.41170 0.44800
C 	C 	0.36280 0.48200 0.45210 -0.74900
H 	H 	0.37810 0.50090 0.44720 0.23100
H 	H 	0.33140 0.48580 0.45680 0.23400
H 	H 	0.37510 0.47220 0.47810 0.22400
C 	C 	0.41480 0.47210 0.29770 -0.95700
H 	H 	0.41630 0.45700 0.27450 0.27100
H 	H 	0.39600 0.48850 0.28810 0.28500
H 	H 	0.44440 0.47960 0.30390 0.26400
C 	C 	0.34490 0.38390 0.36990 -0.74100
H 	H 	0.32820 0.37900 0.39650 0.22900
H 	H 	0.32620 0.38130 0.34400 0.21400
H 	H 	0.37040 0.37070 0.36760 0.22600
C 	C 	0.34910 0.35700 0.52760 0.00800
C 	C 	0.38760 0.34430 0.51010 -0.16200
H 	H 	0.39820 0.35080 0.48240 0.07000
C 	C 	0.40990 0.32270 0.53300 0.12400
C 	C 	0.39350 0.31160 0.57210 -0.08400
C 	C 	0.35460 0.32310 0.59080 0.11900
C 	C 	0.33470 0.34600 0.56820 -0.09300
C 	C 	0.33760 0.31320 0.63420 -0.34900
C 	C 	0.35860 0.32110 0.67130 0.39800
C 	C 	0.34310 0.31390 0.71320 -0.54400
H 	H 	0.35960 0.31930 0.73850 0.17900
C 	C 	0.30660 0.30000 0.71720 0.45700
C 	C 	0.28320 0.29190 0.67970 -0.48500
H 	H 	0.25690 0.28080 0.68350 0.16800
C 	C 	0.29650 0.29940 0.63520 0.43300
C 	C 	0.26980 0.29260 0.59780 -0.81500
H 	H 	0.24260 0.28290 0.60750 0.23500
H 	H 	0.26270 0.31090 0.58200 0.24900
H 	H 	0.28590 0.27910 0.57820 0.22800
C 	C 	0.40250 0.33980 0.66910 -0.66700
H 	H 	0.41320 0.34350 0.69900 0.19600
H 	H 	0.42470 0.32860 0.65260 0.21300
H 	H 	0.39680 0.35880 0.65430 0.19800
C 	C 	0.28960 0.29000 0.76410 -0.70400
H 	H 	0.26140 0.27970 0.76100 0.20000
H 	H 	0.31110 0.27650 0.77750 0.19500
H 	H 	0.28590 0.30750 0.78290 0.20100
C 	C 	0.45000 0.28890 0.48070 0.33800
C 	C 	0.48880 0.27670 0.46460 -0.42400
H 	H 	0.48780 0.26240 0.44160 0.16200
C 	C 	0.52890 0.28530 0.48220 0.38800
C 	C 	0.53040 0.30620 0.51580 -0.46900
H 	H 	0.55780 0.31220 0.52790 0.18000
C 	C 	0.49160 0.31850 0.53190 0.40000
C 	C 	0.45150 0.30980 0.51440 -0.30700
C 	C 	0.40580 0.27930 0.45890 -0.62400
H 	H 	0.38130 0.28950 0.47340 0.19100
H 	H 	0.40620 0.28450 0.42760 0.18700
H 	H 	0.40200 0.25770 0.46210 0.18900
C 	C 	0.57100 0.27110 0.46150 -0.64700
H 	H 	0.56240 0.25700 0.43840 0.18300
H 	H 	0.58950 0.28670 0.44870 0.19000
H 	H 	0.58760 0.26060 0.48440 0.19700
C 	C 	0.49270 0.33960 0.56910 -0.74000
H 	H 	0.46260 0.34600 0.57610 0.22900
H 	H 	0.50570 0.32990 0.59490 0.23100
H 	H 	0.51030 0.35700 0.56100 0.21200
C 	C 	0.44550 0.27380 0.60580 -0.19200
C 	C 	0.51200 0.22740 0.56350 -0.19100
C 	C 	0.54430 0.18830 0.51200 -0.11500
C 	C 	0.58500 0.17890 0.53020 0.18200
C 	C 	0.60620 0.15680 0.50690 -0.20700
H 	H 	0.63360 0.14990 0.51780 0.08000
C 	C 	0.59020 0.14410 0.46870 0.05700
C 	C 	0.55010 0.15490 0.45110 -0.19600
H 	H 	0.53830 0.14680 0.42480 0.07700
C 	C 	0.52840 0.17750 0.47290 0.16000
C 	C 	0.48490 0.18800 0.45410 -0.34900
C 	C 	0.48080 0.20190 0.41510 0.40700
C 	C 	0.43960 0.21080 0.39900 -0.50200
H 	H 	0.43780 0.22260 0.37310 0.17200
C 	C 	0.40180 0.20250 0.42050 0.48600
C 	C 	0.40520 0.18630 0.45840 -0.58200
H 	H 	0.37900 0.18050 0.47310 0.19000
C 	C 	0.44410 0.17830 0.47590 0.47400
C 	C 	0.44610 0.15850 0.51430 -0.83400
H 	H 	0.47690 0.15510 0.52240 0.25500
H 	H 	0.43060 0.16770 0.53900 0.25500
H 	H 	0.43220 0.13950 0.50700 0.23900
C 	C 	0.52240 0.21000 0.39020 -0.71000
H 	H 	0.51450 0.21990 0.36260 0.20800
H 	H 	0.54030 0.22340 0.40810 0.20600
H 	H 	0.53910 0.19190 0.38370 0.21500
C 	C 	0.36270 0.21140 0.39260 -0.78100
H 	H 	0.37290 0.22310 0.36740 0.22400
H 	H 	0.34770 0.19350 0.38200 0.22400
H 	H 	0.34230 0.22320 0.41030 0.21700
C 	C 	0.60470 0.19040 0.57290 -0.44500
C 	C 	0.58420 0.18220 0.61040 0.50400
C 	C 	0.54450 0.16100 0.61240 -0.78900
H 	H 	0.53540 0.15840 0.64310 0.23800
H 	H 	0.52010 0.16950 0.59550 0.24400
H 	H 	0.55270 0.14170 0.59990 0.23400
C 	C 	0.60310 0.19150 0.65010 -0.64700
H 	H 	0.58920 0.18650 0.67710 0.22900
C 	C 	0.64340 0.20850 0.65110 0.78400
C 	C 	0.65480 0.21780 0.61470 -0.79100
H 	H 	0.67410 0.23440 0.61450 0.26100
C 	C 	0.64210 0.20620 0.57280 0.53900
C 	C 	0.66450 0.21580 0.52940 -0.81200
H 	H 	0.69120 0.22710 0.53610 0.23400
H 	H 	0.67210 0.19820 0.51220 0.24400
H 	H 	0.64430 0.22830 0.51250 0.24500
C 	C 	0.66830 0.21680 0.68970 -1.15800
H 	H 	0.65510 0.20770 0.71580 0.33600
H 	H 	0.69870 0.20990 0.68650 0.32700
H 	H 	0.66810 0.23850 0.69290 0.32200
C 	C 	0.61330 0.12000 0.44520 0.07500
C 	C 	0.60560 0.11140 0.40510 -0.21800
H 	H 	0.58350 0.12200 0.38940 0.08100
C 	C 	0.62620 0.08880 0.38310 0.16200
C 	C 	0.66040 0.07350 0.40500 -0.10700
C 	C 	0.67160 0.08180 0.44780 0.16200
C 	C 	0.64650 0.10410 0.46880 -0.20200
H 	H 	0.65180 0.10850 0.49890 0.08300
C 	C 	0.70810 0.06860 0.47210 -0.35600
C 	C 	0.70790 0.03970 0.48550 0.41800
C 	C 	0.74280 0.03040 0.51330 -0.50700
H 	H 	0.73920 0.01280 0.53030 0.17600
C 	C 	0.78090 0.04550 0.51650 0.46000
C 	C 	0.78070 0.07360 0.50400 -0.54600
H 	H 	0.80550 0.08550 0.51110 0.18300
C 	C 	0.74660 0.08670 0.48100 0.44100
C 	C 	0.75010 0.11740 0.46460 -0.80200
H 	H 	0.72300 0.12280 0.44920 0.24500
H 	H 	0.75480 0.13090 0.48940 0.24000
H 	H 	0.77500 0.11880 0.44420 0.22900
C 	C 	0.66970 0.01880 0.48010 -0.74400
H 	H 	0.67740 0.99930 0.49220 0.22800
H 	H 	0.64410 0.02680 0.49570 0.21800
H 	H 	0.66270 0.01680 0.44870 0.22800
C 	C 	0.82420 0.03170 0.53870 -0.71300
H 	H 	0.81890 0.01080 0.54600 0.20000
H 	H 	0.84880 0.03310 0.51800 0.20700
H 	H 	0.83130 0.04280 0.56550 0.20200
C 	C 	0.60710 0.07820 0.33980 -0.36300
C 	C 	0.61670 0.09190 0.30000 0.42400
C 	C 	0.59710 0.08190 0.26140 -0.48700
H 	H 	0.60370 0.09130 0.23420 0.16700
C 	C 	0.56790 0.05820 0.26270 0.39300
C 	C 	0.55830 0.04450 0.30250 -0.48000
H 	H 	0.53830 0.02820 0.30340 0.15400
C 	C 	0.57790 0.05450 0.34100 0.43800
C 	C 	0.64480 0.11850 0.30150 -0.76400
H 	H 	0.63810 0.13130 0.27630 0.22100
H 	H 	0.67570 0.11250 0.30030 0.22400
H 	H 	0.63930 0.12940 0.32890 0.22900
C 	C 	0.56740 0.03760 0.38090 -0.80000
H 	H 	0.55580 0.05250 0.39840 0.26300
H 	H 	0.54620 0.02120 0.37530 0.20800
H 	H 	0.59370 0.02800 0.39540 0.22200
C 	C 	0.54710 0.04910 0.21760 -0.66400
H 	H 	0.52710 0.03220 0.22210 0.18300
H 	H 	0.53070 0.06590 0.20550 0.19000
H 	H 	0.57040 0.04330 0.19710 0.18800
C 	C 	0.70500 0.02970 0.37740 -0.20100
Cu	Cu	0.49870 0.75012 0.11646 0.85300
N 	N 	0.26640 0.95300 0.93840 -0.06200
N 	N 	0.41810 0.78970 0.09440 -0.06500
N 	N 	0.52290 0.71120 0.03540 -0.05800
N 	N 	0.68110 0.54930 0.88570 -0.06200
C 	C 	0.25760 0.97100 0.91540 -0.19500
C 	C 	0.28610 0.92890 0.96300 -0.09900
C 	C 	0.32870 0.91970 0.94910 0.18000
C 	C 	0.34740 0.89700 0.97010 -0.26600
H 	H 	0.37580 0.89060 0.96100 0.10200
C 	C 	0.32740 0.88240 0.00410 0.12300
C 	C 	0.28470 0.89110 0.01670 -0.17900
H 	H 	0.27000 0.88010 0.03900 0.07900
C 	C 	0.26410 0.91450 0.99800 0.10500
C 	C 	0.22130 0.92580 0.01550 -0.25400
C 	C 	0.22340 0.94810 0.04960 0.28600
C 	C 	0.18140 0.95720 0.06990 -0.38500
H 	H 	0.18140 0.97130 0.09310 0.13200
C 	C 	0.14370 0.94580 0.05600 0.31400
C 	C 	0.14160 0.92150 0.02530 -0.35800
H 	H 	0.11470 0.91240 0.01710 0.11900
C 	C 	0.18430 0.91190 0.00750 0.30500
C 	C 	0.17980 0.88450 0.97840 -0.62400
H 	H 	0.14890 0.87820 0.97760 0.17500
H 	H 	0.18960 0.88930 0.94850 0.17900
H 	H 	0.19780 0.86840 0.99020 0.17800
C 	C 	0.26680 0.96070 0.06470 -0.62200
H 	H 	0.26170 0.97540 0.08790 0.17900
H 	H 	0.28530 0.94470 0.07610 0.19700
H 	H 	0.28160 0.97030 0.03980 0.19000
C 	C 	0.09840 0.95590 0.07460 -0.60700
H 	H 	0.07490 0.94480 0.06000 0.17200
H 	H 	0.09750 0.95210 0.10640 0.17200
H 	H 	0.09450 0.97720 0.06920 0.17000
C 	C 	0.35080 0.93450 0.91020 -0.36100
C 	C 	0.36040 0.91590 0.87240 0.40700
C 	C 	0.38490 0.92810 0.83850 -0.54500
H 	H 	0.39420 0.91560 0.81510 0.18300
C 	C 	0.39660 0.95890 0.83730 0.58400
C 	C 	0.39050 0.97360 0.87440 -0.60700
H 	H 	0.40130 0.99330 0.87610 0.22200
C 	C 	0.36870 0.96180 0.91170 0.44400
C 	C 	0.36280 0.98200 0.95210 -0.73800
H 	H 	0.37810 0.00090 0.94720 0.22500
H 	H 	0.33140 0.98580 0.95680 0.22700
H 	H 	0.37510 0.97220 0.97810 0.21500
C 	C 	0.41480 0.97210 0.79770 -0.95600
H 	H 	0.41630 0.95700 0.77450 0.27100
H 	H 	0.39600 0.98850 0.78810 0.28500
H 	H 	0.44440 0.97960 0.80390 0.26400
C 	C 	0.34490 0.88390 0.86990 -0.73900
H 	H 	0.32820 0.87900 0.89650 0.22800
H 	H 	0.32620 0.88130 0.84400 0.21300
H 	H 	0.37040 0.87070 0.86760 0.22500
C 	C 	0.34910 0.85700 0.02760 -0.01700
C 	C 	0.38760 0.84430 0.01010 -0.09800
H 	H 	0.39820 0.85080 0.98240 0.03600
C 	C 	0.40990 0.82270 0.03300 0.08800
C 	C 	0.39350 0.81160 0.07210 -0.06500
C 	C 	0.35460 0.82310 0.09080 0.10900
C 	C 	0.33470 0.84600 0.06820 -0.08100
C 	C 	0.33760 0.81320 0.13420 -0.34500
C 	C 	0.35860 0.82110 0.17130 0.39600
C 	C 	0.34310 0.81390 0.21320 -0.54200
H 	H 	0.35960 0.81930 0.23850 0.17800
C 	C 	0.30660 0.80000 0.21720 0.45600
C 	C 	0.28320 0.79190 0.17970 -0.48500
H 	H 	0.25690 0.78080 0.18350 0.16800
C 	C 	0.29650 0.79940 0.13520 0.43100
C 	C 	0.26980 0.79260 0.09780 -0.81600
H 	H 	0.24260 0.78290 0.10750 0.23500
H 	H 	0.26270 0.81090 0.08200 0.25000
H 	H 	0.28590 0.77910 0.07820 0.23000
C 	C 	0.40250 0.83980 0.16910 -0.66500
H 	H 	0.41320 0.84350 0.19900 0.19600
H 	H 	0.42470 0.82860 0.15260 0.21200
H 	H 	0.39680 0.85880 0.15430 0.19800
C 	C 	0.28960 0.79000 0.26410 -0.70300
H 	H 	0.26140 0.77970 0.26100 0.20000
H 	H 	0.31110 0.77650 0.27750 0.19500
H 	H 	0.28590 0.80750 0.28290 0.20100
C 	C 	0.45000 0.78890 0.98070 0.27300
C 	C 	0.48880 0.77670 0.96460 -0.37100
H 	H 	0.48780 0.76240 0.94160 0.14400
C 	C 	0.52890 0.78530 0.98220 0.31900
C 	C 	0.53040 0.80620 0.01580 -0.39500
H 	H 	0.55780 0.81220 0.02790 0.16000
C 	C 	0.49160 0.81850 0.03190 0.34900
C 	C 	0.45150 0.80980 0.01440 -0.24200
C 	C 	0.40580 0.77930 0.95890 -0.56900
H 	H 	0.38130 0.78950 0.97340 0.16800
H 	H 	0.40620 0.78450 0.92760 0.17100
H 	H 	0.40200 0.75770 0.96210 0.17000
C 	C 	0.57100 0.77110 0.96150 -0.58900
H 	H 	0.56240 0.75700 0.93840 0.16600
H 	H 	0.58950 0.78670 0.94870 0.17100
H 	H 	0.58760 0.76060 0.98440 0.17300
C 	C 	0.49270 0.83960 0.06910 -0.69200
H 	H 	0.46260 0.84600 0.07610 0.21600
H 	H 	0.50570 0.82990 0.09490 0.21800
H 	H 	0.51030 0.85700 0.06100 0.20000
C 	C 	0.44550 0.77380 0.10580 -0.18900
C 	C 	0.51200 0.72740 0.06350 -0.18400
C 	C 	0.54430 0.68830 0.01200 -0.07300
C 	C 	0.58500 0.67890 0.03020 0.15600
C 	C 	0.60620 0.65680 0.00690 -0.15700
H 	H 	0.63360 0.64990 0.01780 0.07000
C 	C 	0.59020 0.64410 0.96870 0.01200
C 	C 	0.55010 0.65490 0.95110 -0.16300
H 	H 	0.53830 0.64680 0.92480 0.06500
C 	C 	0.52840 0.67750 0.97290 0.11100
C 	C 	0.48490 0.68800 0.95410 -0.31800
C 	C 	0.48080 0.70190 0.91510 0.38500
C 	C 	0.43960 0.71080 0.89900 -0.47800
H 	H 	0.43780 0.72260 0.87310 0.16500
C 	C 	0.40180 0.70250 0.92050 0.45800
C 	C 	0.40520 0.68630 0.95840 -0.54400
H 	H 	0.37900 0.68050 0.97310 0.17100
C 	C 	0.44410 0.67830 0.97590 0.42000
C 	C 	0.44610 0.65850 0.01430 -0.76400
H 	H 	0.47690 0.65510 0.02240 0.24000
H 	H 	0.43060 0.66770 0.03900 0.23800
H 	H 	0.43220 0.63950 0.00700 0.22600
C 	C 	0.52240 0.71000 0.89020 -0.69000
H 	H 	0.51450 0.71990 0.86260 0.20300
H 	H 	0.54030 0.72340 0.90810 0.20100
H 	H 	0.53910 0.69190 0.88370 0.20900
C 	C 	0.36270 0.71140 0.89260 -0.75400
H 	H 	0.37290 0.72310 0.86740 0.21700
H 	H 	0.34770 0.69350 0.88200 0.21600
H 	H 	0.34230 0.72320 0.91030 0.20700
C 	C 	0.60470 0.69040 0.07290 -0.43600
C 	C 	0.58420 0.68220 0.11040 0.50000
C 	C 	0.54450 0.66100 0.11240 -0.78800
H 	H 	0.53540 0.65840 0.14310 0.23700
H 	H 	0.52010 0.66950 0.09550 0.24400
H 	H 	0.55270 0.64170 0.09990 0.23500
C 	C 	0.60310 0.69150 0.15010 -0.64500
H 	H 	0.58920 0.68650 0.17710 0.22900
C 	C 	0.64340 0.70850 0.15110 0.78400
C 	C 	0.65480 0.71780 0.11470 -0.79100
H 	H 	0.67410 0.73440 0.11450 0.26200
C 	C 	0.64210 0.70620 0.07280 0.54000
C 	C 	0.66450 0.71580 0.02940 -0.82400
H 	H 	0.69120 0.72710 0.03610 0.24100
H 	H 	0.67210 0.69820 0.01220 0.25200
H 	H 	0.64430 0.72830 0.01250 0.25500
C 	C 	0.66830 0.71680 0.18970 -1.15700
H 	H 	0.65510 0.70770 0.21580 0.33600
H 	H 	0.69870 0.70990 0.18650 0.32700
H 	H 	0.66810 0.73850 0.19290 0.32200
C 	C 	0.61330 0.62000 0.94520 0.08800
C 	C 	0.60560 0.61140 0.90510 -0.22600
H 	H 	0.58350 0.62200 0.88940 0.08400
C 	C 	0.62620 0.58880 0.88310 0.16300
C 	C 	0.66040 0.57350 0.90500 -0.10200
C 	C 	0.67160 0.58180 0.94780 0.14800
C 	C 	0.64650 0.60410 0.96880 -0.20200
H 	H 	0.65180 0.60850 0.99890 0.07700
C 	C 	0.70810 0.56860 0.97210 -0.31400
C 	C 	0.70790 0.53970 0.98550 0.35300
C 	C 	0.74280 0.53040 0.01330 -0.43300
H 	H 	0.73920 0.51280 0.03030 0.15600
C 	C 	0.78090 0.54550 0.01650 0.40800
C 	C 	0.78070 0.57360 0.00400 -0.46600
H 	H 	0.80550 0.58550 0.01110 0.16500
C 	C 	0.74660 0.58670 0.98100 0.37200
C 	C 	0.75010 0.61740 0.96460 -0.73200
H 	H 	0.72300 0.62280 0.94920 0.22400
H 	H 	0.75480 0.63090 0.98940 0.21400
H 	H 	0.77500 0.61880 0.94420 0.20800
C 	C 	0.66970 0.51880 0.98010 -0.68200
H 	H 	0.67740 0.49930 0.99220 0.20400
H 	H 	0.64410 0.52680 0.99570 0.19500
H 	H 	0.66270 0.51680 0.94870 0.21000
C 	C 	0.82420 0.53170 0.03870 -0.67600
H 	H 	0.81890 0.51080 0.04600 0.19200
H 	H 	0.84880 0.53310 0.01800 0.20300
H 	H 	0.83130 0.54280 0.06550 0.19300
C 	C 	0.60710 0.57820 0.83980 -0.36300
C 	C 	0.61670 0.59190 0.80000 0.42400
C 	C 	0.59710 0.58190 0.76140 -0.48600
H 	H 	0.60370 0.59130 0.73420 0.16700
C 	C 	0.56790 0.55820 0.76270 0.39300
C 	C 	0.55830 0.54450 0.80250 -0.48000
H 	H 	0.53830 0.52820 0.80340 0.15400
C 	C 	0.57790 0.55450 0.84100 0.43700
C 	C 	0.64480 0.61850 0.80150 -0.76400
H 	H 	0.63810 0.63130 0.77630 0.22100
H 	H 	0.67570 0.61250 0.80030 0.22400
H 	H 	0.63930 0.62940 0.82890 0.22900
C 	C 	0.56740 0.53760 0.88090 -0.80000
H 	H 	0.55580 0.55250 0.89840 0.26200
H 	H 	0.54620 0.52120 0.87530 0.20800
H 	H 	0.59370 0.52800 0.89540 0.22200
C 	C 	0.54710 0.54910 0.71760 -0.66300
H 	H 	0.52710 0.53220 0.72210 0.18200
H 	H 	0.53070 0.56590 0.70550 0.18900
H 	H 	0.57040 0.54330 0.69710 0.18700
C 	C 	0.70500 0.52970 0.87740 -0.20000
Cu	Cu	0.99870 0.25012 0.11646 0.85300
N 	N 	0.76640 0.45300 0.93840 -0.06200
N 	N 	0.91810 0.28970 0.09440 -0.06500
N 	N 	0.02290 0.21120 0.03540 -0.05800
N 	N 	0.18110 0.04930 0.88570 -0.06200
C 	C 	0.75760 0.47100 0.91540 -0.19500
C 	C 	0.78610 0.42890 0.96300 -0.09900
C 	C 	0.82870 0.41970 0.94910 0.18000
C 	C 	0.84740 0.39700 0.97010 -0.26600
H 	H 	0.87580 0.39060 0.96100 0.10200
C 	C 	0.82740 0.38240 0.00410 0.12300
C 	C 	0.78470 0.39110 0.01670 -0.17900
H 	H 	0.77000 0.38010 0.03900 0.07900
C 	C 	0.76410 0.41450 0.99800 0.10500
C 	C 	0.72130 0.42580 0.01550 -0.25400
C 	C 	0.72340 0.44810 0.04960 0.28600
C 	C 	0.68140 0.45720 0.06990 -0.38500
H 	H 	0.68140 0.47130 0.09310 0.13200
C 	C 	0.64370 0.44580 0.05600 0.31400
C 	C 	0.64160 0.42150 0.02530 -0.35800
H 	H 	0.61470 0.41240 0.01710 0.12000
C 	C 	0.68430 0.41190 0.00750 0.30500
C 	C 	0.67980 0.38450 0.97840 -0.62500
H 	H 	0.64890 0.37820 0.97760 0.17500
H 	H 	0.68960 0.38930 0.94850 0.17900
H 	H 	0.69780 0.36840 0.99020 0.17800
C 	C 	0.76680 0.46070 0.06470 -0.62200
H 	H 	0.76170 0.47540 0.08790 0.17900
H 	H 	0.78530 0.44470 0.07610 0.19700
H 	H 	0.78160 0.47030 0.03980 0.19000
C 	C 	0.59840 0.45590 0.07460 -0.60700
H 	H 	0.57490 0.44480 0.06000 0.17200
H 	H 	0.59750 0.45210 0.10640 0.17200
H 	H 	0.59450 0.47720 0.06920 0.17000
C 	C 	0.85080 0.43450 0.91020 -0.36100
C 	C 	0.86040 0.41590 0.87240 0.40700
C 	C 	0.88490 0.42810 0.83850 -0.54500
H 	H 	0.89420 0.41560 0.81510 0.18300
C 	C 	0.89660 0.45890 0.83730 0.58400
C 	C 	0.89050 0.47360 0.87440 -0.60700
H 	H 	0.90130 0.49330 0.87610 0.22100
C 	C 	0.86870 0.46180 0.91170 0.44400
C 	C 	0.86280 0.48200 0.95210 -0.73800
H 	H 	0.87810 0.50090 0.94720 0.22500
H 	H 	0.83140 0.48580 0.95680 0.22700
H 	H 	0.87510 0.47220 0.97810 0.21500
C 	C 	0.91480 0.47210 0.79770 -0.95600
H 	H 	0.91630 0.45700 0.77450 0.27100
H 	H 	0.89600 0.48850 0.78810 0.28500
H 	H 	0.94440 0.47960 0.80390 0.26400
C 	C 	0.84490 0.38390 0.86990 -0.73900
H 	H 	0.82820 0.37900 0.89650 0.22800
H 	H 	0.82620 0.38130 0.84400 0.21300
H 	H 	0.87040 0.37070 0.86760 0.22500
C 	C 	0.84910 0.35700 0.02760 -0.01700
C 	C 	0.88760 0.34430 0.01010 -0.09900
H 	H 	0.89820 0.35080 0.98240 0.03700
C 	C 	0.90990 0.32270 0.03300 0.08800
C 	C 	0.89350 0.31160 0.07210 -0.06600
C 	C 	0.85460 0.32310 0.09080 0.10900
C 	C 	0.83470 0.34600 0.06820 -0.08100
C 	C 	0.83760 0.31320 0.13420 -0.34500
C 	C 	0.85860 0.32110 0.17130 0.39600
C 	C 	0.84310 0.31390 0.21320 -0.54200
H 	H 	0.85960 0.31930 0.23850 0.17800
C 	C 	0.80660 0.30000 0.21720 0.45600
C 	C 	0.78320 0.29190 0.17970 -0.48500
H 	H 	0.75690 0.28080 0.18350 0.16800
C 	C 	0.79650 0.29940 0.13520 0.43100
C 	C 	0.76980 0.29260 0.09780 -0.81600
H 	H 	0.74260 0.28290 0.10750 0.23500
H 	H 	0.76270 0.31090 0.08200 0.25000
H 	H 	0.78590 0.27910 0.07820 0.23000
C 	C 	0.90250 0.33980 0.16910 -0.66500
H 	H 	0.91320 0.34350 0.19900 0.19600
H 	H 	0.92470 0.32860 0.15260 0.21200
H 	H 	0.89680 0.35880 0.15430 0.19800
C 	C 	0.78960 0.29000 0.26410 -0.70300
H 	H 	0.76140 0.27970 0.26100 0.20000
H 	H 	0.81110 0.27650 0.27750 0.19500
H 	H 	0.78590 0.30750 0.28290 0.20100
C 	C 	0.95000 0.28890 0.98070 0.27300
C 	C 	0.98880 0.27670 0.96460 -0.37100
H 	H 	0.98780 0.26240 0.94160 0.14400
C 	C 	0.02890 0.28530 0.98220 0.32000
C 	C 	0.03040 0.30620 0.01580 -0.39600
H 	H 	0.05780 0.31220 0.02790 0.16000
C 	C 	0.99160 0.31850 0.03190 0.35000
C 	C 	0.95150 0.30980 0.01440 -0.24200
C 	C 	0.90580 0.27930 0.95890 -0.56900
H 	H 	0.88130 0.28950 0.97340 0.16900
H 	H 	0.90620 0.28450 0.92760 0.17100
H 	H 	0.90200 0.25770 0.96210 0.17000
C 	C 	0.07100 0.27110 0.96150 -0.59000
H 	H 	0.06240 0.25700 0.93840 0.16600
H 	H 	0.08950 0.28670 0.94870 0.17100
H 	H 	0.08760 0.26060 0.98440 0.17300
C 	C 	0.99270 0.33960 0.06910 -0.69200
H 	H 	0.96260 0.34600 0.07610 0.21600
H 	H 	0.00570 0.32990 0.09490 0.21800
H 	H 	0.01030 0.35700 0.06100 0.20000
C 	C 	0.94550 0.27380 0.10580 -0.18900
C 	C 	0.01200 0.22740 0.06350 -0.18400
C 	C 	0.04430 0.18830 0.01200 -0.07300
C 	C 	0.08500 0.17890 0.03020 0.15700
C 	C 	0.10620 0.15680 0.00690 -0.15700
H 	H 	0.13360 0.14990 0.01780 0.07100
C 	C 	0.09020 0.14410 0.96870 0.01200
C 	C 	0.05010 0.15490 0.95110 -0.16300
H 	H 	0.03830 0.14680 0.92480 0.06500
C 	C 	0.02840 0.17750 0.97290 0.11200
C 	C 	0.98490 0.18800 0.95410 -0.31800
C 	C 	0.98080 0.20190 0.91510 0.38500
C 	C 	0.93960 0.21080 0.89900 -0.47800
H 	H 	0.93780 0.22260 0.87310 0.16500
C 	C 	0.90180 0.20250 0.92050 0.45800
C 	C 	0.90520 0.18630 0.95840 -0.54400
H 	H 	0.87900 0.18050 0.97310 0.17200
C 	C 	0.94410 0.17830 0.97590 0.42100
C 	C 	0.94610 0.15850 0.01430 -0.76400
H 	H 	0.97690 0.15510 0.02240 0.24000
H 	H 	0.93060 0.16770 0.03900 0.23800
H 	H 	0.93220 0.13950 0.00700 0.22600
C 	C 	0.02240 0.21000 0.89020 -0.69000
H 	H 	0.01450 0.21990 0.86260 0.20300
H 	H 	0.04030 0.22340 0.90810 0.20100
H 	H 	0.03910 0.19190 0.88370 0.21000
C 	C 	0.86270 0.21140 0.89260 -0.75500
H 	H 	0.87290 0.22310 0.86740 0.21700
H 	H 	0.84770 0.19350 0.88200 0.21600
H 	H 	0.84230 0.22320 0.91030 0.20800
C 	C 	0.10470 0.19040 0.07290 -0.43600
C 	C 	0.08420 0.18220 0.11040 0.50000
C 	C 	0.04450 0.16100 0.11240 -0.78800
H 	H 	0.03540 0.15840 0.14310 0.23700
H 	H 	0.02010 0.16950 0.09550 0.24400
H 	H 	0.05270 0.14170 0.09990 0.23500
C 	C 	0.10310 0.19150 0.15010 -0.64500
H 	H 	0.08920 0.18650 0.17710 0.22900
C 	C 	0.14340 0.20850 0.15110 0.78400
C 	C 	0.15480 0.21780 0.11470 -0.79100
H 	H 	0.17410 0.23440 0.11450 0.26200
C 	C 	0.14210 0.20620 0.07280 0.54100
C 	C 	0.16450 0.21580 0.02940 -0.82400
H 	H 	0.19120 0.22710 0.03610 0.24100
H 	H 	0.17210 0.19820 0.01220 0.25200
H 	H 	0.14430 0.22830 0.01250 0.25500
C 	C 	0.16830 0.21680 0.18970 -1.15700
H 	H 	0.15510 0.20770 0.21580 0.33600
H 	H 	0.19870 0.20990 0.18650 0.32700
H 	H 	0.16810 0.23850 0.19290 0.32200
C 	C 	0.11330 0.12000 0.94520 0.08800
C 	C 	0.10560 0.11140 0.90510 -0.22600
H 	H 	0.08350 0.12200 0.88940 0.08400
C 	C 	0.12620 0.08880 0.88310 0.16300
C 	C 	0.16040 0.07350 0.90500 -0.10200
C 	C 	0.17160 0.08180 0.94780 0.14800
C 	C 	0.14650 0.10410 0.96880 -0.20200
H 	H 	0.15180 0.10850 0.99890 0.07700
C 	C 	0.20810 0.06860 0.97210 -0.31400
C 	C 	0.20790 0.03970 0.98550 0.35300
C 	C 	0.24280 0.03040 0.01330 -0.43300
H 	H 	0.23920 0.01280 0.03030 0.15600
C 	C 	0.28090 0.04550 0.01650 0.40800
C 	C 	0.28070 0.07360 0.00400 -0.46600
H 	H 	0.30550 0.08550 0.01110 0.16500
C 	C 	0.24660 0.08670 0.98100 0.37200
C 	C 	0.25010 0.11740 0.96460 -0.73300
H 	H 	0.22300 0.12280 0.94920 0.22400
H 	H 	0.25480 0.13090 0.98940 0.21400
H 	H 	0.27500 0.11880 0.94420 0.20800
C 	C 	0.16970 0.01880 0.98010 -0.68200
H 	H 	0.17740 0.99930 0.99220 0.20400
H 	H 	0.14410 0.02680 0.99570 0.19500
H 	H 	0.16270 0.01680 0.94870 0.21000
C 	C 	0.32420 0.03170 0.03870 -0.67700
H 	H 	0.31890 0.01080 0.04600 0.19200
H 	H 	0.34880 0.03310 0.01800 0.20300
H 	H 	0.33130 0.04280 0.06550 0.19300
C 	C 	0.10710 0.07820 0.83980 -0.36300
C 	C 	0.11670 0.09190 0.80000 0.42400
C 	C 	0.09710 0.08190 0.76140 -0.48600
H 	H 	0.10370 0.09130 0.73420 0.16700
C 	C 	0.06790 0.05820 0.76270 0.39300
C 	C 	0.05830 0.04450 0.80250 -0.48000
H 	H 	0.03830 0.02820 0.80340 0.15400
C 	C 	0.07790 0.05450 0.84100 0.43800
C 	C 	0.14480 0.11850 0.80150 -0.76400
H 	H 	0.13810 0.13130 0.77630 0.22100
H 	H 	0.17570 0.11250 0.80030 0.22400
H 	H 	0.13930 0.12940 0.82890 0.22900
C 	C 	0.06740 0.03760 0.88090 -0.80000
H 	H 	0.05580 0.05250 0.89840 0.26200
H 	H 	0.04620 0.02120 0.87530 0.20800
H 	H 	0.09370 0.02800 0.89540 0.22200
C 	C 	0.04710 0.04910 0.71760 -0.66300
H 	H 	0.02710 0.03220 0.72210 0.18200
H 	H 	0.03070 0.06590 0.70550 0.18900
H 	H 	0.07040 0.04330 0.69710 0.18700
C 	C 	0.20500 0.02970 0.87740 -0.20000
Cu	Cu	0.99870 0.75012 0.61646 0.85300
N 	N 	0.76640 0.95300 0.43840 -0.05900
N 	N 	0.91810 0.78970 0.59440 -0.06200
N 	N 	0.02290 0.71120 0.53540 -0.05500
N 	N 	0.18110 0.54930 0.38570 -0.06100
C 	C 	0.75760 0.97100 0.41540 -0.19300
C 	C 	0.78610 0.92890 0.46300 -0.10200
C 	C 	0.82870 0.91970 0.44910 0.17400
C 	C 	0.84740 0.89700 0.47010 -0.23400
H 	H 	0.87580 0.89060 0.46100 0.09500
C 	C 	0.82740 0.88240 0.50410 0.09600
C 	C 	0.78470 0.89110 0.51670 -0.20600
H 	H 	0.77000 0.88010 0.53900 0.08600
C 	C 	0.76410 0.91450 0.49800 0.14500
C 	C 	0.72130 0.92580 0.51550 -0.27400
C 	C 	0.72340 0.94810 0.54960 0.28600
C 	C 	0.68140 0.95720 0.56990 -0.38500
H 	H 	0.68140 0.97130 0.59310 0.13100
C 	C 	0.64370 0.94580 0.55600 0.30600
C 	C 	0.64160 0.92150 0.52530 -0.35400
H 	H 	0.61470 0.91240 0.51710 0.11200
C 	C 	0.68430 0.91190 0.50750 0.28800
C 	C 	0.67980 0.88450 0.47840 -0.59700
H 	H 	0.64890 0.87820 0.47760 0.17300
H 	H 	0.68960 0.88930 0.44850 0.17300
H 	H 	0.69780 0.86840 0.49020 0.17700
C 	C 	0.76680 0.96070 0.56470 -0.62000
H 	H 	0.76170 0.97540 0.58790 0.17700
H 	H 	0.78530 0.94470 0.57610 0.19400
H 	H 	0.78160 0.97030 0.53980 0.18400
C 	C 	0.59840 0.95590 0.57460 -0.59800
H 	H 	0.57490 0.94480 0.56000 0.16600
H 	H 	0.59750 0.95210 0.60640 0.16900
H 	H 	0.59450 0.97720 0.56920 0.16300
C 	C 	0.85080 0.93450 0.41020 -0.36000
C 	C 	0.86040 0.91590 0.37240 0.40700
C 	C 	0.88490 0.92810 0.33850 -0.54600
H 	H 	0.89420 0.91560 0.31510 0.18300
C 	C 	0.89660 0.95890 0.33730 0.58500
C 	C 	0.89050 0.97360 0.37440 -0.61000
H 	H 	0.90130 0.99330 0.37610 0.22200
C 	C 	0.86870 0.96180 0.41170 0.44800
C 	C 	0.86280 0.98200 0.45210 -0.74900
H 	H 	0.87810 0.00090 0.44720 0.23100
H 	H 	0.83140 0.98580 0.45680 0.23400
H 	H 	0.87510 0.97220 0.47810 0.22400
C 	C 	0.91480 0.97210 0.29770 -0.95700
H 	H 	0.91630 0.95700 0.27450 0.27100
H 	H 	0.89600 0.98850 0.28810 0.28500
H 	H 	0.94440 0.97960 0.30390 0.26400
C 	C 	0.84490 0.88390 0.36990 -0.74100
H 	H 	0.82820 0.87900 0.39650 0.22900
H 	H 	0.82620 0.88130 0.34400 0.21400
H 	H 	0.87040 0.87070 0.36760 0.22600
C 	C 	0.84910 0.85700 0.52760 0.00800
C 	C 	0.88760 0.84430 0.51010 -0.16200
H 	H 	0.89820 0.85080 0.48240 0.07000
C 	C 	0.90990 0.82270 0.53300 0.12400
C 	C 	0.89350 0.81160 0.57210 -0.08400
C 	C 	0.85460 0.82310 0.59080 0.11900
C 	C 	0.83470 0.84600 0.56820 -0.09300
C 	C 	0.83760 0.81320 0.63420 -0.34900
C 	C 	0.85860 0.82110 0.67130 0.39900
C 	C 	0.84310 0.81390 0.71320 -0.54400
H 	H 	0.85960 0.81930 0.73850 0.17900
C 	C 	0.80660 0.80000 0.71720 0.45700
C 	C 	0.78320 0.79190 0.67970 -0.48500
H 	H 	0.75690 0.78080 0.68350 0.16800
C 	C 	0.79650 0.79940 0.63520 0.43300
C 	C 	0.76980 0.79260 0.59780 -0.81500
H 	H 	0.74260 0.78290 0.60750 0.23500
H 	H 	0.76270 0.81090 0.58200 0.24900
H 	H 	0.78590 0.77910 0.57820 0.22800
C 	C 	0.90250 0.83980 0.66910 -0.66700
H 	H 	0.91320 0.84350 0.69900 0.19600
H 	H 	0.92470 0.82860 0.65260 0.21300
H 	H 	0.89680 0.85880 0.65430 0.19800
C 	C 	0.78960 0.79000 0.76410 -0.70400
H 	H 	0.76140 0.77970 0.76100 0.20000
H 	H 	0.81110 0.77650 0.77750 0.19500
H 	H 	0.78590 0.80750 0.78290 0.20100
C 	C 	0.95000 0.78890 0.48070 0.33800
C 	C 	0.98880 0.77670 0.46460 -0.42400
H 	H 	0.98780 0.76240 0.44160 0.16200
C 	C 	0.02890 0.78530 0.48220 0.38800
C 	C 	0.03040 0.80620 0.51580 -0.46900
H 	H 	0.05780 0.81220 0.52790 0.18000
C 	C 	0.99160 0.81850 0.53190 0.40000
C 	C 	0.95150 0.80980 0.51440 -0.30700
C 	C 	0.90580 0.77930 0.45890 -0.62400
H 	H 	0.88130 0.78950 0.47340 0.19100
H 	H 	0.90620 0.78450 0.42760 0.18700
H 	H 	0.90200 0.75770 0.46210 0.18900
C 	C 	0.07100 0.77110 0.46150 -0.64700
H 	H 	0.06240 0.75700 0.43840 0.18300
H 	H 	0.08950 0.78670 0.44870 0.19000
H 	H 	0.08760 0.76060 0.48440 0.19700
C 	C 	0.99270 0.83960 0.56910 -0.74000
H 	H 	0.96260 0.84600 0.57610 0.22900
H 	H 	0.00570 0.82990 0.59490 0.23100
H 	H 	0.01030 0.85700 0.56100 0.21200
C 	C 	0.94550 0.77380 0.60580 -0.19200
C 	C 	0.01200 0.72740 0.56350 -0.19100
C 	C 	0.04430 0.68830 0.51200 -0.11500
C 	C 	0.08500 0.67890 0.53020 0.18200
C 	C 	0.10620 0.65680 0.50690 -0.20700
H 	H 	0.13360 0.64990 0.51780 0.08000
C 	C 	0.09020 0.64410 0.46870 0.05700
C 	C 	0.05010 0.65490 0.45110 -0.19600
H 	H 	0.03830 0.64680 0.42480 0.07700
C 	C 	0.02840 0.67750 0.47290 0.16000
C 	C 	0.98490 0.68800 0.45410 -0.34900
C 	C 	0.98080 0.70190 0.41510 0.40700
C 	C 	0.93960 0.71080 0.39900 -0.50200
H 	H 	0.93780 0.72260 0.37310 0.17200
C 	C 	0.90180 0.70250 0.42050 0.48600
C 	C 	0.90520 0.68630 0.45840 -0.58200
H 	H 	0.87900 0.68050 0.47310 0.19000
C 	C 	0.94410 0.67830 0.47590 0.47400
C 	C 	0.94610 0.65850 0.51430 -0.83400
H 	H 	0.97690 0.65510 0.52240 0.25500
H 	H 	0.93060 0.66770 0.53900 0.25500
H 	H 	0.93220 0.63950 0.50700 0.23900
C 	C 	0.02240 0.71000 0.39020 -0.71000
H 	H 	0.01450 0.71990 0.36260 0.20800
H 	H 	0.04030 0.72340 0.40810 0.20600
H 	H 	0.03910 0.69190 0.38370 0.21500
C 	C 	0.86270 0.71140 0.39260 -0.78100
H 	H 	0.87290 0.72310 0.36740 0.22400
H 	H 	0.84770 0.69350 0.38200 0.22400
H 	H 	0.84230 0.72320 0.41030 0.21700
C 	C 	0.10470 0.69040 0.57290 -0.44500
C 	C 	0.08420 0.68220 0.61040 0.50400
C 	C 	0.04450 0.66100 0.61240 -0.79000
H 	H 	0.03540 0.65840 0.64310 0.23800
H 	H 	0.02010 0.66950 0.59550 0.24400
H 	H 	0.05270 0.64170 0.59990 0.23400
C 	C 	0.10310 0.69150 0.65010 -0.64700
H 	H 	0.08920 0.68650 0.67710 0.22900
C 	C 	0.14340 0.70850 0.65110 0.78400
C 	C 	0.15480 0.71780 0.61470 -0.79100
H 	H 	0.17410 0.73440 0.61450 0.26100
C 	C 	0.14210 0.70620 0.57280 0.53900
C 	C 	0.16450 0.71580 0.52940 -0.81200
H 	H 	0.19120 0.72710 0.53610 0.23400
H 	H 	0.17210 0.69820 0.51220 0.24400
H 	H 	0.14430 0.72830 0.51250 0.24500
C 	C 	0.16830 0.71680 0.68970 -1.15800
H 	H 	0.15510 0.70770 0.71580 0.33600
H 	H 	0.19870 0.70990 0.68650 0.32700
H 	H 	0.16810 0.73850 0.69290 0.32200
C 	C 	0.11330 0.62000 0.44520 0.07500
C 	C 	0.10560 0.61140 0.40510 -0.21800
H 	H 	0.08350 0.62200 0.38940 0.08100
C 	C 	0.12620 0.58880 0.38310 0.16200
C 	C 	0.16040 0.57350 0.40500 -0.10700
C 	C 	0.17160 0.58180 0.44780 0.16200
C 	C 	0.14650 0.60410 0.46880 -0.20200
H 	H 	0.15180 0.60850 0.49890 0.08300
C 	C 	0.20810 0.56860 0.47210 -0.35600
C 	C 	0.20790 0.53970 0.48550 0.41800
C 	C 	0.24280 0.53040 0.51330 -0.50700
H 	H 	0.23920 0.51280 0.53030 0.17500
C 	C 	0.28090 0.54550 0.51650 0.46000
C 	C 	0.28070 0.57360 0.50400 -0.54600
H 	H 	0.30550 0.58550 0.51110 0.18300
C 	C 	0.24660 0.58670 0.48100 0.44100
C 	C 	0.25010 0.61740 0.46460 -0.80200
H 	H 	0.22300 0.62280 0.44920 0.24500
H 	H 	0.25480 0.63090 0.48940 0.24000
H 	H 	0.27500 0.61880 0.44420 0.22900
C 	C 	0.16970 0.51880 0.48010 -0.74400
H 	H 	0.17740 0.49930 0.49220 0.22800
H 	H 	0.14410 0.52680 0.49570 0.21800
H 	H 	0.16270 0.51680 0.44870 0.22800
C 	C 	0.32420 0.53170 0.53870 -0.71300
H 	H 	0.31890 0.51080 0.54600 0.20000
H 	H 	0.34880 0.53310 0.51800 0.20700
H 	H 	0.33130 0.54280 0.56550 0.20200
C 	C 	0.10710 0.57820 0.33980 -0.36300
C 	C 	0.11670 0.59190 0.30000 0.42400
C 	C 	0.09710 0.58190 0.26140 -0.48700
H 	H 	0.10370 0.59130 0.23420 0.16700
C 	C 	0.06790 0.55820 0.26270 0.39300
C 	C 	0.05830 0.54450 0.30250 -0.48000
H 	H 	0.03830 0.52820 0.30340 0.15400
C 	C 	0.07790 0.55450 0.34100 0.43800
C 	C 	0.14480 0.61850 0.30150 -0.76400
H 	H 	0.13810 0.63130 0.27630 0.22100
H 	H 	0.17570 0.61250 0.30030 0.22400
H 	H 	0.13930 0.62940 0.32890 0.22900
C 	C 	0.06740 0.53760 0.38090 -0.80000
H 	H 	0.05580 0.55250 0.39840 0.26300
H 	H 	0.04620 0.52120 0.37530 0.20800
H 	H 	0.09370 0.52800 0.39540 0.22200
C 	C 	0.04710 0.54910 0.21760 -0.66400
H 	H 	0.02710 0.53220 0.22210 0.18300
H 	H 	0.03070 0.56590 0.20550 0.19000
H 	H 	0.07040 0.54330 0.19710 0.18800
C 	C 	0.20500 0.52970 0.37740 -0.20100
Cu	Cu	0.75130 0.50012 0.86646 0.85300
N 	N 	0.98360 0.70300 0.68840 -0.05900
N 	N 	0.83190 0.53970 0.84440 -0.06200
N 	N 	0.72710 0.46120 0.78540 -0.05500
N 	N 	0.56890 0.29930 0.63570 -0.06100
C 	C 	0.99240 0.72100 0.66540 -0.19300
C 	C 	0.96390 0.67890 0.71300 -0.10200
C 	C 	0.92130 0.66970 0.69910 0.17400
C 	C 	0.90260 0.64700 0.72010 -0.23400
H 	H 	0.87420 0.64060 0.71100 0.09500
C 	C 	0.92260 0.63240 0.75410 0.09600
C 	C 	0.96530 0.64110 0.76670 -0.20700
H 	H 	0.98000 0.63010 0.78900 0.08600
C 	C 	0.98590 0.66450 0.74800 0.14600
C 	C 	0.02870 0.67580 0.76550 -0.27400
C 	C 	0.02660 0.69810 0.79960 0.28600
C 	C 	0.06860 0.70720 0.81990 -0.38500
H 	H 	0.06860 0.72130 0.84310 0.13200
C 	C 	0.10630 0.69580 0.80600 0.30700
C 	C 	0.10840 0.67150 0.77530 -0.35400
H 	H 	0.13530 0.66240 0.76710 0.11200
C 	C 	0.06570 0.66190 0.75750 0.28900
C 	C 	0.07020 0.63450 0.72840 -0.59700
H 	H 	0.10110 0.62820 0.72760 0.17300
H 	H 	0.06040 0.63930 0.69850 0.17300
H 	H 	0.05220 0.61840 0.74020 0.17700
C 	C 	0.98320 0.71070 0.81470 -0.62100
H 	H 	0.98830 0.72540 0.83790 0.17800
H 	H 	0.96470 0.69470 0.82610 0.19400
H 	H 	0.96840 0.72030 0.78980 0.18400
C 	C 	0.15160 0.70590 0.82460 -0.59700
H 	H 	0.17510 0.69480 0.81000 0.16600
H 	H 	0.15250 0.70210 0.85640 0.16800
H 	H 	0.15550 0.72720 0.81920 0.16300
C 	C 	0.89920 0.68450 0.66020 -0.36000
C 	C 	0.88960 0.66590 0.62240 0.40700
C 	C 	0.86510 0.67810 0.58850 -0.54600
H 	H 	0.85580 0.66560 0.56510 0.18300
C 	C 	0.85340 0.70890 0.58730 0.58500
C 	C 	0.85950 0.72360 0.62440 -0.61000
H 	H 	0.84870 0.74330 0.62610 0.22200
C 	C 	0.88130 0.71180 0.66170 0.44800
C 	C 	0.88720 0.73200 0.70210 -0.74900
H 	H 	0.87190 0.75090 0.69720 0.23100
H 	H 	0.91860 0.73580 0.70680 0.23400
H 	H 	0.87490 0.72220 0.72810 0.22400
C 	C 	0.83520 0.72210 0.54770 -0.95700
H 	H 	0.83370 0.70700 0.52450 0.27100
H 	H 	0.85400 0.73850 0.53810 0.28500
H 	H 	0.80560 0.72960 0.55390 0.26400
C 	C 	0.90510 0.63390 0.61990 -0.74100
H 	H 	0.92180 0.62900 0.64650 0.23000
H 	H 	0.92380 0.63130 0.59400 0.21400
H 	H 	0.87960 0.62070 0.61760 0.22600
C 	C 	0.90090 0.60700 0.77760 0.00700
C 	C 	0.86240 0.59430 0.76010 -0.16100
H 	H 	0.85180 0.60080 0.73240 0.07000
C 	C 	0.84010 0.57270 0.78300 0.12300
C 	C 	0.85650 0.56160 0.82210 -0.08200
C 	C 	0.89540 0.57310 0.84080 0.11400
C 	C 	0.91530 0.59600 0.81820 -0.09100
C 	C 	0.91240 0.56320 0.88420 -0.33600
C 	C 	0.89140 0.57110 0.92130 0.37900
C 	C 	0.90690 0.56390 0.96320 -0.51500
H 	H 	0.89040 0.56930 0.98850 0.16200
C 	C 	0.94340 0.55000 0.96720 0.41600
C 	C 	0.96680 0.54190 0.92970 -0.46300
H 	H 	0.99310 0.53080 0.93350 0.15800
C 	C 	0.95350 0.54940 0.88520 0.41700
C 	C 	0.98020 0.54260 0.84780 -0.79800
H 	H 	0.00740 0.53290 0.85750 0.23000
H 	H 	0.98730 0.56090 0.83200 0.24400
H 	H 	0.96410 0.52910 0.82820 0.22400
C 	C 	0.84750 0.58980 0.91910 -0.64900
H 	H 	0.83680 0.59350 0.94900 0.18800
H 	H 	0.82530 0.57860 0.90260 0.20700
H 	H 	0.85320 0.60880 0.90430 0.19300
C 	C 	0.96040 0.54000 0.01410 -0.65800
H 	H 	0.98860 0.52970 0.01100 0.19400
H 	H 	0.93890 0.52650 0.02750 0.18800
H 	H 	0.96410 0.55750 0.03290 0.19300
C 	C 	0.80000 0.53890 0.73070 0.33800
C 	C 	0.76120 0.52670 0.71460 -0.42400
H 	H 	0.76220 0.51240 0.69160 0.16200
C 	C 	0.72110 0.53530 0.73220 0.38800
C 	C 	0.71960 0.55620 0.76580 -0.46900
H 	H 	0.69220 0.56220 0.77790 0.18000
C 	C 	0.75840 0.56850 0.78190 0.40000
C 	C 	0.79850 0.55980 0.76440 -0.30600
C 	C 	0.84420 0.52930 0.70890 -0.62400
H 	H 	0.86870 0.53950 0.72340 0.19100
H 	H 	0.84380 0.53450 0.67760 0.18700
H 	H 	0.84800 0.50770 0.71210 0.18900
C 	C 	0.67900 0.52110 0.71150 -0.64800
H 	H 	0.68760 0.50700 0.68840 0.18300
H 	H 	0.66050 0.53670 0.69870 0.19000
H 	H 	0.66240 0.51060 0.73440 0.19800
C 	C 	0.75730 0.58960 0.81910 -0.74000
H 	H 	0.78740 0.59600 0.82610 0.22900
H 	H 	0.74430 0.57990 0.84490 0.23200
H 	H 	0.73970 0.60700 0.81100 0.21200
C 	C 	0.80450 0.52380 0.85580 -0.19200
C 	C 	0.73800 0.47740 0.81350 -0.19100
C 	C 	0.70570 0.43830 0.76200 -0.11400
C 	C 	0.66500 0.42890 0.78020 0.18100
C 	C 	0.64380 0.40680 0.75690 -0.20600
H 	H 	0.61640 0.39990 0.76780 0.08000
C 	C 	0.65980 0.39410 0.71870 0.05600
C 	C 	0.69990 0.40490 0.70110 -0.19600
H 	H 	0.71170 0.39680 0.67480 0.07700
C 	C 	0.72160 0.42750 0.72290 0.16000
C 	C 	0.76510 0.43800 0.70410 -0.34900
C 	C 	0.76920 0.45190 0.66510 0.40700
C 	C 	0.81040 0.46080 0.64900 -0.50200
H 	H 	0.81220 0.47260 0.62310 0.17200
C 	C 	0.84820 0.45250 0.67050 0.48600
C 	C 	0.84480 0.43630 0.70840 -0.58200
H 	H 	0.87100 0.43050 0.72310 0.19000
C 	C 	0.80590 0.42830 0.72590 0.47400
C 	C 	0.80390 0.40850 0.76430 -0.83400
H 	H 	0.77310 0.40510 0.77240 0.25500
H 	H 	0.81940 0.41770 0.78900 0.25500
H 	H 	0.81780 0.38950 0.75700 0.23900
C 	C 	0.72760 0.46000 0.64020 -0.71000
H 	H 	0.73550 0.46990 0.61260 0.20800
H 	H 	0.70970 0.47340 0.65810 0.20600
H 	H 	0.71090 0.44190 0.63370 0.21500
C 	C 	0.88730 0.46140 0.64260 -0.78100
H 	H 	0.87710 0.47310 0.61740 0.22400
H 	H 	0.90230 0.44350 0.63200 0.22400
H 	H 	0.90770 0.47320 0.66030 0.21700
C 	C 	0.64530 0.44040 0.82290 -0.44100
C 	C 	0.66580 0.43220 0.86040 0.49700
C 	C 	0.70550 0.41100 0.86240 -0.78300
H 	H 	0.71460 0.40840 0.89310 0.23500
H 	H 	0.72990 0.41950 0.84550 0.24200
H 	H 	0.69730 0.39170 0.84990 0.23200
C 	C 	0.64690 0.44150 0.90010 -0.63900
H 	H 	0.66080 0.43650 0.92710 0.22400
C 	C 	0.60660 0.45850 0.90110 0.77100
C 	C 	0.59520 0.46780 0.86470 -0.78000
H 	H 	0.57590 0.48440 0.86450 0.25800
C 	C 	0.60790 0.45620 0.82280 0.53300
C 	C 	0.58550 0.46580 0.77940 -0.80700
H 	H 	0.55880 0.47710 0.78610 0.23300
H 	H 	0.57790 0.44820 0.76220 0.24200
H 	H 	0.60570 0.47830 0.76250 0.24400
C 	C 	0.58170 0.46680 0.93970 -1.13700
H 	H 	0.59490 0.45770 0.96580 0.32500
H 	H 	0.55130 0.45990 0.93650 0.31800
H 	H 	0.58190 0.48850 0.94290 0.31500
C 	C 	0.63670 0.37000 0.69520 0.07500
C 	C 	0.64440 0.36140 0.65510 -0.21800
H 	H 	0.66650 0.37200 0.63940 0.08100
C 	C 	0.62380 0.33880 0.63310 0.16200
C 	C 	0.58960 0.32350 0.65500 -0.10700
C 	C 	0.57840 0.33180 0.69780 0.16200
C 	C 	0.60350 0.35410 0.71880 -0.20200
H 	H 	0.59820 0.35850 0.74890 0.08300
C 	C 	0.54190 0.31860 0.72210 -0.35600
C 	C 	0.54210 0.28970 0.73550 0.41800
C 	C 	0.50720 0.28040 0.76330 -0.50700
H 	H 	0.51080 0.26280 0.78030 0.17600
C 	C 	0.46910 0.29550 0.76650 0.46000
C 	C 	0.46930 0.32360 0.75400 -0.54600
H 	H 	0.44450 0.33550 0.76110 0.18300
C 	C 	0.50340 0.33670 0.73100 0.44100
C 	C 	0.49990 0.36740 0.71460 -0.80200
H 	H 	0.52700 0.37280 0.69920 0.24500
H 	H 	0.49520 0.38090 0.73940 0.24000
H 	H 	0.47500 0.36880 0.69420 0.22900
C 	C 	0.58030 0.26880 0.73010 -0.74400
H 	H 	0.57260 0.24930 0.74220 0.22800
H 	H 	0.60590 0.27680 0.74570 0.21800
H 	H 	0.58730 0.26680 0.69870 0.22800
C 	C 	0.42580 0.28170 0.78870 -0.71300
H 	H 	0.43110 0.26080 0.79600 0.20000
H 	H 	0.40120 0.28310 0.76800 0.20600
H 	H 	0.41870 0.29280 0.81550 0.20200
C 	C 	0.64290 0.32820 0.58980 -0.36300
C 	C 	0.63330 0.34190 0.55000 0.42400
C 	C 	0.65290 0.33190 0.51140 -0.48600
H 	H 	0.64630 0.34130 0.48420 0.16700
C 	C 	0.68210 0.30820 0.51270 0.39200
C 	C 	0.69170 0.29450 0.55250 -0.48000
H 	H 	0.71170 0.27820 0.55340 0.15300
C 	C 	0.67210 0.30450 0.59100 0.43700
C 	C 	0.60520 0.36850 0.55150 -0.76300
H 	H 	0.61190 0.38130 0.52630 0.22100
H 	H 	0.57430 0.36250 0.55030 0.22400
H 	H 	0.61070 0.37940 0.57890 0.22900
C 	C 	0.68260 0.28760 0.63090 -0.80000
H 	H 	0.69420 0.30250 0.64840 0.26300
H 	H 	0.70380 0.27120 0.62530 0.20800
H 	H 	0.65630 0.27800 0.64540 0.22200
C 	C 	0.70290 0.29910 0.46760 -0.66300
H 	H 	0.72290 0.28220 0.47210 0.18200
H 	H 	0.71930 0.31590 0.45550 0.18900
H 	H 	0.67960 0.29330 0.44710 0.18700
C 	C 	0.54500 0.27970 0.62740 -0.20100
Cu	Cu	0.75130 0.00012 0.36646 0.85300
N 	N 	0.98360 0.20300 0.18840 -0.05900
N 	N 	0.83190 0.03970 0.34440 -0.06200
N 	N 	0.72710 0.96120 0.28540 -0.05500
N 	N 	0.56890 0.79930 0.13570 -0.06100
C 	C 	0.99240 0.22100 0.16540 -0.19300
C 	C 	0.96390 0.17890 0.21300 -0.10300
C 	C 	0.92130 0.16970 0.19910 0.17600
C 	C 	0.90260 0.14700 0.22010 -0.23500
H 	H 	0.87420 0.14060 0.21100 0.09500
C 	C 	0.92260 0.13240 0.25410 0.09600
C 	C 	0.96530 0.14110 0.26670 -0.20700
H 	H 	0.98000 0.13010 0.28900 0.08600
C 	C 	0.98590 0.16450 0.24800 0.14600
C 	C 	0.02870 0.17580 0.26550 -0.27400
C 	C 	0.02660 0.19810 0.29960 0.28600
C 	C 	0.06860 0.20720 0.31990 -0.38500
H 	H 	0.06860 0.22130 0.34310 0.13100
C 	C 	0.10630 0.19580 0.30600 0.30600
C 	C 	0.10840 0.17150 0.27530 -0.35400
H 	H 	0.13530 0.16240 0.26710 0.11200
C 	C 	0.06570 0.16190 0.25750 0.28900
C 	C 	0.07020 0.13450 0.22840 -0.59800
H 	H 	0.10110 0.12820 0.22760 0.17300
H 	H 	0.06040 0.13930 0.19850 0.17400
H 	H 	0.05220 0.11840 0.24020 0.17700
C 	C 	0.98320 0.21070 0.31470 -0.62000
H 	H 	0.98830 0.22540 0.33790 0.17700
H 	H 	0.96470 0.19470 0.32610 0.19400
H 	H 	0.96840 0.22030 0.28980 0.18300
C 	C 	0.15160 0.20590 0.32460 -0.59800
H 	H 	0.17510 0.19480 0.31000 0.16600
H 	H 	0.15250 0.20210 0.35640 0.16900
H 	H 	0.15550 0.22720 0.31920 0.16300
C 	C 	0.89920 0.18450 0.16020 -0.36400
C 	C 	0.88960 0.16590 0.12240 0.41400
C 	C 	0.86510 0.17810 0.08850 -0.55300
H 	H 	0.85580 0.16560 0.06510 0.18900
C 	C 	0.85340 0.20890 0.08730 0.59900
C 	C 	0.85950 0.22360 0.12440 -0.61900
H 	H 	0.84870 0.24330 0.12610 0.22500
C 	C 	0.88130 0.21180 0.16170 0.45300
C 	C 	0.88720 0.23200 0.20210 -0.75300
H 	H 	0.87190 0.25090 0.19720 0.23200
H 	H 	0.91860 0.23580 0.20680 0.23600
H 	H 	0.87490 0.22220 0.22810 0.22500
C 	C 	0.83520 0.22210 0.04770 -0.98000
H 	H 	0.83370 0.20700 0.02450 0.28400
H 	H 	0.85400 0.23850 0.03810 0.29700
H 	H 	0.80560 0.22960 0.05390 0.27200
C 	C 	0.90510 0.13390 0.11990 -0.74700
H 	H 	0.92180 0.12900 0.14650 0.23100
H 	H 	0.92380 0.13130 0.09400 0.21700
H 	H 	0.87960 0.12070 0.11760 0.22800
C 	C 	0.90090 0.10700 0.27760 0.00700
C 	C 	0.86240 0.09430 0.26010 -0.16200
H 	H 	0.85180 0.10080 0.23240 0.07000
C 	C 	0.84010 0.07270 0.28300 0.12400
C 	C 	0.85650 0.06160 0.32210 -0.08400
C 	C 	0.89540 0.07310 0.34080 0.11900
C 	C 	0.91530 0.09600 0.31820 -0.09300
C 	C 	0.91240 0.06320 0.38420 -0.34900
C 	C 	0.89140 0.07110 0.42130 0.39900
C 	C 	0.90690 0.06390 0.46320 -0.54400
H 	H 	0.89040 0.06930 0.48850 0.17900
C 	C 	0.94340 0.05000 0.46720 0.45700
C 	C 	0.96680 0.04190 0.42970 -0.48600
H 	H 	0.99310 0.03080 0.43350 0.16800
C 	C 	0.95350 0.04940 0.38520 0.43300
C 	C 	0.98020 0.04260 0.34780 -0.81500
H 	H 	0.00740 0.03290 0.35750 0.23500
H 	H 	0.98730 0.06090 0.33200 0.24900
H 	H 	0.96410 0.02910 0.32820 0.22800
C 	C 	0.84750 0.08980 0.41910 -0.66700
H 	H 	0.83680 0.09350 0.44900 0.19600
H 	H 	0.82530 0.07860 0.40260 0.21300
H 	H 	0.85320 0.10880 0.40430 0.19800
C 	C 	0.96040 0.04000 0.51410 -0.70400
H 	H 	0.98860 0.02970 0.51100 0.20000
H 	H 	0.93890 0.02650 0.52750 0.19500
H 	H 	0.96410 0.05750 0.53290 0.20200
C 	C 	0.80000 0.03890 0.23070 0.33800
C 	C 	0.76120 0.02670 0.21460 -0.42400
H 	H 	0.76220 0.01240 0.19160 0.16200
C 	C 	0.72110 0.03530 0.23220 0.38800
C 	C 	0.71960 0.05620 0.26580 -0.46900
H 	H 	0.69220 0.06220 0.27790 0.18000
C 	C 	0.75840 0.06850 0.28190 0.40000
C 	C 	0.79850 0.05980 0.26440 -0.30700
C 	C 	0.84420 0.02930 0.20890 -0.62400
H 	H 	0.86870 0.03950 0.22340 0.19100
H 	H 	0.84380 0.03450 0.17760 0.18700
H 	H 	0.84800 0.00770 0.21210 0.18900
C 	C 	0.67900 0.02110 0.21150 -0.64800
H 	H 	0.68760 0.00700 0.18840 0.18400
H 	H 	0.66050 0.03670 0.19870 0.19100
H 	H 	0.66240 0.01060 0.23440 0.19800
C 	C 	0.75730 0.08960 0.31910 -0.74000
H 	H 	0.78740 0.09600 0.32610 0.22900
H 	H 	0.74430 0.07990 0.34490 0.23100
H 	H 	0.73970 0.10700 0.31100 0.21200
C 	C 	0.80450 0.02380 0.35580 -0.19200
C 	C 	0.73800 0.97740 0.31350 -0.19100
C 	C 	0.70570 0.93830 0.26200 -0.11500
C 	C 	0.66500 0.92890 0.28020 0.18300
C 	C 	0.64380 0.90680 0.25690 -0.20700
H 	H 	0.61640 0.89990 0.26780 0.08000
C 	C 	0.65980 0.89410 0.21870 0.05800
C 	C 	0.69990 0.90490 0.20110 -0.19700
H 	H 	0.71170 0.89680 0.17480 0.07800
C 	C 	0.72160 0.92750 0.22290 0.16100
C 	C 	0.76510 0.93800 0.20410 -0.35100
C 	C 	0.76920 0.95190 0.16510 0.41100
C 	C 	0.81040 0.96080 0.14900 -0.50500
H 	H 	0.81220 0.97260 0.12310 0.17400
C 	C 	0.84820 0.95250 0.17050 0.49000
C 	C 	0.84480 0.93630 0.20840 -0.58500
H 	H 	0.87100 0.93050 0.22310 0.19100
C 	C 	0.80590 0.92830 0.22590 0.47700
C 	C 	0.80390 0.90850 0.26430 -0.83700
H 	H 	0.77310 0.90510 0.27240 0.25500
H 	H 	0.81940 0.91770 0.28900 0.25500
H 	H 	0.81780 0.88950 0.25700 0.24000
C 	C 	0.72760 0.96000 0.14020 -0.71400
H 	H 	0.73550 0.96990 0.11260 0.21100
H 	H 	0.70970 0.97340 0.15810 0.20800
H 	H 	0.71090 0.94190 0.13370 0.21700
C 	C 	0.88730 0.96140 0.14260 -0.78800
H 	H 	0.87710 0.97310 0.11740 0.22900
H 	H 	0.90230 0.94350 0.13200 0.22800
H 	H 	0.90770 0.97320 0.16030 0.22000
C 	C 	0.64530 0.94040 0.32290 -0.44600
C 	C 	0.66580 0.93220 0.36040 0.50400
C 	C 	0.70550 0.91100 0.36240 -0.79000
H 	H 	0.71460 0.90840 0.39310 0.23800
H 	H 	0.72990 0.91950 0.34550 0.24400
H 	H 	0.69730 0.89170 0.34990 0.23400
C 	C 	0.64690 0.94150 0.40010 -0.64700
H 	H 	0.66080 0.93650 0.42710 0.22900
C 	C 	0.60660 0.95850 0.40110 0.78400
C 	C 	0.59520 0.96780 0.36470 -0.79100
H 	H 	0.57590 0.98440 0.36450 0.26100
C 	C 	0.60790 0.95620 0.32280 0.54000
C 	C 	0.58550 0.96580 0.27940 -0.81300
H 	H 	0.55880 0.97710 0.28610 0.23400
H 	H 	0.57790 0.94820 0.26220 0.24400
H 	H 	0.60570 0.97830 0.26250 0.24600
C 	C 	0.58170 0.96680 0.43970 -1.15800
H 	H 	0.59490 0.95770 0.46580 0.33600
H 	H 	0.55130 0.95990 0.43650 0.32700
H 	H 	0.58190 0.98850 0.44290 0.32200
C 	C 	0.63670 0.87000 0.19520 0.07500
C 	C 	0.64440 0.86140 0.15510 -0.21700
H 	H 	0.66650 0.87200 0.13940 0.08100
C 	C 	0.62380 0.83880 0.13310 0.16000
C 	C 	0.58960 0.82350 0.15500 -0.10600
C 	C 	0.57840 0.83180 0.19780 0.16100
C 	C 	0.60350 0.85410 0.21880 -0.20200
H 	H 	0.59820 0.85850 0.24890 0.08300
C 	C 	0.54190 0.81860 0.22210 -0.35600
C 	C 	0.54210 0.78970 0.23550 0.41800
C 	C 	0.50720 0.78040 0.26330 -0.50700
H 	H 	0.51080 0.76280 0.28030 0.17500
C 	C 	0.46910 0.79550 0.26650 0.46000
C 	C 	0.46930 0.82360 0.25400 -0.54600
H 	H 	0.44450 0.83550 0.26110 0.18300
C 	C 	0.50340 0.83670 0.23100 0.44100
C 	C 	0.49990 0.86740 0.21460 -0.80300
H 	H 	0.52700 0.87280 0.19920 0.24600
H 	H 	0.49520 0.88090 0.23940 0.24000
H 	H 	0.47500 0.86880 0.19420 0.23000
C 	C 	0.58030 0.76880 0.23010 -0.74400
H 	H 	0.57260 0.74930 0.24220 0.22800
H 	H 	0.60590 0.77680 0.24570 0.21700
H 	H 	0.58730 0.76680 0.19870 0.22800
C 	C 	0.42580 0.78170 0.28870 -0.71300
H 	H 	0.43110 0.76080 0.29600 0.20000
H 	H 	0.40120 0.78310 0.26800 0.20700
H 	H 	0.41870 0.79280 0.31550 0.20200
C 	C 	0.64290 0.82820 0.08980 -0.35800
C 	C 	0.63330 0.84190 0.05000 0.41500
C 	C 	0.65290 0.83190 0.01140 -0.45100
H 	H 	0.64630 0.84130 0.98420 0.14400
C 	C 	0.68210 0.80820 0.01270 0.40300
C 	C 	0.69170 0.79450 0.05250 -0.48000
H 	H 	0.71170 0.77820 0.05340 0.15600
C 	C 	0.67210 0.80450 0.09100 0.43700
C 	C 	0.60520 0.86850 0.05150 -0.76000
H 	H 	0.61190 0.88130 0.02630 0.22700
H 	H 	0.57430 0.86250 0.05030 0.22600
H 	H 	0.61070 0.87940 0.07890 0.23000
C 	C 	0.68260 0.78760 0.13090 -0.79900
H 	H 	0.69420 0.80250 0.14840 0.26300
H 	H 	0.70380 0.77120 0.12530 0.20800
H 	H 	0.65630 0.77800 0.14540 0.22200
C 	C 	0.70290 0.79910 0.96760 -0.68500
H 	H 	0.72290 0.78220 0.97210 0.18200
H 	H 	0.71930 0.81590 0.95550 0.19200
H 	H 	0.67960 0.79330 0.94710 0.19100
C 	C 	0.54500 0.77970 0.12740 -0.20000
Cu	Cu	0.25130 0.50012 0.36646 0.85300
N 	N 	0.48360 0.70300 0.18840 -0.05900
N 	N 	0.33190 0.53970 0.34440 -0.06200
N 	N 	0.22710 0.46120 0.28540 -0.05500
N 	N 	0.06890 0.29930 0.13570 -0.06100
C 	C 	0.49240 0.72100 0.16540 -0.19300
C 	C 	0.46390 0.67890 0.21300 -0.10300
C 	C 	0.42130 0.66970 0.19910 0.17600
C 	C 	0.40260 0.64700 0.22010 -0.23500
H 	H 	0.37420 0.64060 0.21100 0.09500
C 	C 	0.42260 0.63240 0.25410 0.09600
C 	C 	0.46530 0.64110 0.26670 -0.20700
H 	H 	0.48000 0.63010 0.28900 0.08600
C 	C 	0.48590 0.66450 0.24800 0.14600
C 	C 	0.52870 0.67580 0.26550 -0.27400
C 	C 	0.52660 0.69810 0.29960 0.28600
C 	C 	0.56860 0.70720 0.31990 -0.38500
H 	H 	0.56860 0.72130 0.34310 0.13100
C 	C 	0.60630 0.69580 0.30600 0.30600
C 	C 	0.60840 0.67150 0.27530 -0.35400
H 	H 	0.63530 0.66240 0.26710 0.11200
C 	C 	0.56570 0.66190 0.25750 0.28900
C 	C 	0.57020 0.63450 0.22840 -0.59800
H 	H 	0.60110 0.62820 0.22760 0.17300
H 	H 	0.56040 0.63930 0.19850 0.17400
H 	H 	0.55220 0.61840 0.24020 0.17700
C 	C 	0.48320 0.71070 0.31470 -0.62000
H 	H 	0.48830 0.72540 0.33790 0.17700
H 	H 	0.46470 0.69470 0.32610 0.19400
H 	H 	0.46840 0.72030 0.28980 0.18300
C 	C 	0.65160 0.70590 0.32460 -0.59800
H 	H 	0.67510 0.69480 0.31000 0.16600
H 	H 	0.65250 0.70210 0.35640 0.16900
H 	H 	0.65550 0.72720 0.31920 0.16300
C 	C 	0.39920 0.68450 0.16020 -0.36400
C 	C 	0.38960 0.66590 0.12240 0.41400
C 	C 	0.36510 0.67810 0.08850 -0.55300
H 	H 	0.35580 0.66560 0.06510 0.18900
C 	C 	0.35340 0.70890 0.08730 0.59900
C 	C 	0.35950 0.72360 0.12440 -0.61900
H 	H 	0.34870 0.74330 0.12610 0.22500
C 	C 	0.38130 0.71180 0.16170 0.45300
C 	C 	0.38720 0.73200 0.20210 -0.75300
H 	H 	0.37190 0.75090 0.19720 0.23200
H 	H 	0.41860 0.73580 0.20680 0.23600
H 	H 	0.37490 0.72220 0.22810 0.22500
C 	C 	0.33520 0.72210 0.04770 -0.98000
H 	H 	0.33370 0.70700 0.02450 0.28400
H 	H 	0.35400 0.73850 0.03810 0.29700
H 	H 	0.30560 0.72960 0.05390 0.27200
C 	C 	0.40510 0.63390 0.11990 -0.74700
H 	H 	0.42180 0.62900 0.14650 0.23100
H 	H 	0.42380 0.63130 0.09400 0.21700
H 	H 	0.37960 0.62070 0.11760 0.22800
C 	C 	0.40090 0.60700 0.27760 0.00700
C 	C 	0.36240 0.59430 0.26010 -0.16200
H 	H 	0.35180 0.60080 0.23240 0.07000
C 	C 	0.34010 0.57270 0.28300 0.12400
C 	C 	0.35650 0.56160 0.32210 -0.08400
C 	C 	0.39540 0.57310 0.34080 0.11900
C 	C 	0.41530 0.59600 0.31820 -0.09300
C 	C 	0.41240 0.56320 0.38420 -0.34900
C 	C 	0.39140 0.57110 0.42130 0.39900
C 	C 	0.40690 0.56390 0.46320 -0.54400
H 	H 	0.39040 0.56930 0.48850 0.17900
C 	C 	0.44340 0.55000 0.46720 0.45700
C 	C 	0.46680 0.54190 0.42970 -0.48600
H 	H 	0.49310 0.53080 0.43350 0.16800
C 	C 	0.45350 0.54940 0.38520 0.43300
C 	C 	0.48020 0.54260 0.34780 -0.81500
H 	H 	0.50740 0.53290 0.35750 0.23500
H 	H 	0.48730 0.56090 0.33200 0.24900
H 	H 	0.46410 0.52910 0.32820 0.22800
C 	C 	0.34750 0.58980 0.41910 -0.66700
H 	H 	0.33680 0.59350 0.44900 0.19600
H 	H 	0.32530 0.57860 0.40260 0.21300
H 	H 	0.35320 0.60880 0.40430 0.19800
C 	C 	0.46040 0.54000 0.51410 -0.70400
H 	H 	0.48860 0.52970 0.51100 0.20000
H 	H 	0.43890 0.52650 0.52750 0.19500
H 	H 	0.46410 0.55750 0.53290 0.20200
C 	C 	0.30000 0.53890 0.23070 0.33800
C 	C 	0.26120 0.52670 0.21460 -0.42400
H 	H 	0.26220 0.51240 0.19160 0.16200
C 	C 	0.22110 0.53530 0.23220 0.38800
C 	C 	0.21960 0.55620 0.26580 -0.46900
H 	H 	0.19220 0.56220 0.27790 0.18000
C 	C 	0.25840 0.56850 0.28190 0.40000
C 	C 	0.29850 0.55980 0.26440 -0.30700
C 	C 	0.34420 0.52930 0.20890 -0.62400
H 	H 	0.36870 0.53950 0.22340 0.19100
H 	H 	0.34380 0.53450 0.17760 0.18700
H 	H 	0.34800 0.50770 0.21210 0.18900
C 	C 	0.17900 0.52110 0.21150 -0.64800
H 	H 	0.18760 0.50700 0.18840 0.18400
H 	H 	0.16050 0.53670 0.19870 0.19100
H 	H 	0.16240 0.51060 0.23440 0.19800
C 	C 	0.25730 0.58960 0.31910 -0.74000
H 	H 	0.28740 0.59600 0.32610 0.22900
H 	H 	0.24430 0.57990 0.34490 0.23100
H 	H 	0.23970 0.60700 0.31100 0.21200
C 	C 	0.30450 0.52380 0.35580 -0.19200
C 	C 	0.23800 0.47740 0.31350 -0.19100
C 	C 	0.20570 0.43830 0.26200 -0.11500
C 	C 	0.16500 0.42890 0.28020 0.18300
C 	C 	0.14380 0.40680 0.25690 -0.20700
H 	H 	0.11640 0.39990 0.26780 0.08000
C 	C 	0.15980 0.39410 0.21870 0.05700
C 	C 	0.19990 0.40490 0.20110 -0.19700
H 	H 	0.21170 0.39680 0.17480 0.07800
C 	C 	0.22160 0.42750 0.22290 0.16100
C 	C 	0.26510 0.43800 0.20410 -0.35100
C 	C 	0.26920 0.45190 0.16510 0.41000
C 	C 	0.31040 0.46080 0.14900 -0.50500
H 	H 	0.31220 0.47260 0.12310 0.17400
C 	C 	0.34820 0.45250 0.17050 0.49000
C 	C 	0.34480 0.43630 0.20840 -0.58500
H 	H 	0.37100 0.43050 0.22310 0.19100
C 	C 	0.30590 0.42830 0.22590 0.47700
C 	C 	0.30390 0.40850 0.26430 -0.83700
H 	H 	0.27310 0.40510 0.27240 0.25500
H 	H 	0.31940 0.41770 0.28900 0.25500
H 	H 	0.31780 0.38950 0.25700 0.24000
C 	C 	0.22760 0.46000 0.14020 -0.71400
H 	H 	0.23550 0.46990 0.11260 0.21100
H 	H 	0.20970 0.47340 0.15810 0.20800
H 	H 	0.21090 0.44190 0.13370 0.21700
C 	C 	0.38730 0.46140 0.14260 -0.78800
H 	H 	0.37710 0.47310 0.11740 0.22900
H 	H 	0.40230 0.44350 0.13200 0.22800
H 	H 	0.40770 0.47320 0.16030 0.22000
C 	C 	0.14530 0.44040 0.32290 -0.44600
C 	C 	0.16580 0.43220 0.36040 0.50400
C 	C 	0.20550 0.41100 0.36240 -0.79000
H 	H 	0.21460 0.40840 0.39310 0.23800
H 	H 	0.22990 0.41950 0.34550 0.24400
H 	H 	0.19730 0.39170 0.34990 0.23400
C 	C 	0.14690 0.44150 0.40010 -0.64700
H 	H 	0.16080 0.43650 0.42710 0.22900
C 	C 	0.10660 0.45850 0.40110 0.78400
C 	C 	0.09520 0.46780 0.36470 -0.79100
H 	H 	0.07590 0.48440 0.36450 0.26100
C 	C 	0.10790 0.45620 0.32280 0.54000
C 	C 	0.08550 0.46580 0.27940 -0.81300
H 	H 	0.05880 0.47710 0.28610 0.23400
H 	H 	0.07790 0.44820 0.26220 0.24400
H 	H 	0.10570 0.47830 0.26250 0.24500
C 	C 	0.08170 0.46680 0.43970 -1.15800
H 	H 	0.09490 0.45770 0.46580 0.33600
H 	H 	0.05130 0.45990 0.43650 0.32700
H 	H 	0.08190 0.48850 0.44290 0.32200
C 	C 	0.13670 0.37000 0.19520 0.07500
C 	C 	0.14440 0.36140 0.15510 -0.21700
H 	H 	0.16650 0.37200 0.13940 0.08100
C 	C 	0.12380 0.33880 0.13310 0.16000
C 	C 	0.08960 0.32350 0.15500 -0.10600
C 	C 	0.07840 0.33180 0.19780 0.16100
C 	C 	0.10350 0.35410 0.21880 -0.20200
H 	H 	0.09820 0.35850 0.24890 0.08300
C 	C 	0.04190 0.31860 0.22210 -0.35600
C 	C 	0.04210 0.28970 0.23550 0.41800
C 	C 	0.00720 0.28040 0.26330 -0.50700
H 	H 	0.01080 0.26280 0.28030 0.17500
C 	C 	0.96910 0.29550 0.26650 0.46000
C 	C 	0.96930 0.32360 0.25400 -0.54600
H 	H 	0.94450 0.33550 0.26110 0.18300
C 	C 	0.00340 0.33670 0.23100 0.44100
C 	C 	0.99990 0.36740 0.21460 -0.80300
H 	H 	0.02700 0.37280 0.19920 0.24600
H 	H 	0.99520 0.38090 0.23940 0.24000
H 	H 	0.97500 0.36880 0.19420 0.23000
C 	C 	0.08030 0.26880 0.23010 -0.74400
H 	H 	0.07260 0.24930 0.24220 0.22800
H 	H 	0.10590 0.27680 0.24570 0.21700
H 	H 	0.08730 0.26680 0.19870 0.22800
C 	C 	0.92580 0.28170 0.28870 -0.71300
H 	H 	0.93110 0.26080 0.29600 0.20000
H 	H 	0.90120 0.28310 0.26800 0.20700
H 	H 	0.91870 0.29280 0.31550 0.20200
C 	C 	0.14290 0.32820 0.08980 -0.35800
C 	C 	0.13330 0.34190 0.05000 0.41500
C 	C 	0.15290 0.33190 0.01140 -0.45100
H 	H 	0.14630 0.34130 0.98420 0.14400
C 	C 	0.18210 0.30820 0.01270 0.40300
C 	C 	0.19170 0.29450 0.05250 -0.48100
H 	H 	0.21170 0.27820 0.05340 0.15600
C 	C 	0.17210 0.30450 0.09100 0.43700
C 	C 	0.10520 0.36850 0.05150 -0.76000
H 	H 	0.11190 0.38130 0.02630 0.22700
H 	H 	0.07430 0.36250 0.05030 0.22600
H 	H 	0.11070 0.37940 0.07890 0.23000
C 	C 	0.18260 0.28760 0.13090 -0.79900
H 	H 	0.19420 0.30250 0.14840 0.26300
H 	H 	0.20380 0.27120 0.12530 0.20800
H 	H 	0.15630 0.27800 0.14540 0.22200
C 	C 	0.20290 0.29910 0.96760 -0.68500
H 	H 	0.22290 0.28220 0.97210 0.18200
H 	H 	0.21930 0.31590 0.95550 0.19200
H 	H 	0.17960 0.29330 0.94710 0.19100
C 	C 	0.04500 0.27970 0.12740 -0.20000
Cu	Cu	0.25130 0.00012 0.86646 0.85300
N 	N 	0.48360 0.20300 0.68840 -0.05900
N 	N 	0.33190 0.03970 0.84440 -0.06200
N 	N 	0.22710 0.96120 0.78540 -0.05500
N 	N 	0.06890 0.79930 0.63570 -0.06100
C 	C 	0.49240 0.22100 0.66540 -0.19300
C 	C 	0.46390 0.17890 0.71300 -0.10200
C 	C 	0.42130 0.16970 0.69910 0.17400
C 	C 	0.40260 0.14700 0.72010 -0.23400
H 	H 	0.37420 0.14060 0.71100 0.09500
C 	C 	0.42260 0.13240 0.75410 0.09600
C 	C 	0.46530 0.14110 0.76670 -0.20700
H 	H 	0.48000 0.13010 0.78900 0.08600
C 	C 	0.48590 0.16450 0.74800 0.14600
C 	C 	0.52870 0.17580 0.76550 -0.27400
C 	C 	0.52660 0.19810 0.79960 0.28600
C 	C 	0.56860 0.20720 0.81990 -0.38500
H 	H 	0.56860 0.22130 0.84310 0.13200
C 	C 	0.60630 0.19580 0.80600 0.30700
C 	C 	0.60840 0.17150 0.77530 -0.35400
H 	H 	0.63530 0.16240 0.76710 0.11200
C 	C 	0.56570 0.16190 0.75750 0.28900
C 	C 	0.57020 0.13450 0.72840 -0.59700
H 	H 	0.60110 0.12820 0.72760 0.17300
H 	H 	0.56040 0.13930 0.69850 0.17300
H 	H 	0.55220 0.11840 0.74020 0.17700
C 	C 	0.48320 0.21070 0.81470 -0.62100
H 	H 	0.48830 0.22540 0.83790 0.17800
H 	H 	0.46470 0.19470 0.82610 0.19400
H 	H 	0.46840 0.22030 0.78980 0.18400
C 	C 	0.65160 0.20590 0.82460 -0.59700
H 	H 	0.67510 0.19480 0.81000 0.16600
H 	H 	0.65250 0.20210 0.85640 0.16800
H 	H 	0.65550 0.22720 0.81920 0.16300
C 	C 	0.39920 0.18450 0.66020 -0.36000
C 	C 	0.38960 0.16590 0.62240 0.40700
C 	C 	0.36510 0.17810 0.58850 -0.54600
H 	H 	0.35580 0.16560 0.56510 0.18300
C 	C 	0.35340 0.20890 0.58730 0.58500
C 	C 	0.35950 0.22360 0.62440 -0.61000
H 	H 	0.34870 0.24330 0.62610 0.22200
C 	C 	0.38130 0.21180 0.66170 0.44800
C 	C 	0.38720 0.23200 0.70210 -0.74900
H 	H 	0.37190 0.25090 0.69720 0.23100
H 	H 	0.41860 0.23580 0.70680 0.23400
H 	H 	0.37490 0.22220 0.72810 0.22400
C 	C 	0.33520 0.22210 0.54770 -0.95700
H 	H 	0.33370 0.20700 0.52450 0.27100
H 	H 	0.35400 0.23850 0.53810 0.28500
H 	H 	0.30560 0.22960 0.55390 0.26400
C 	C 	0.40510 0.13390 0.61990 -0.74100
H 	H 	0.42180 0.12900 0.64650 0.23000
H 	H 	0.42380 0.13130 0.59400 0.21400
H 	H 	0.37960 0.12070 0.61760 0.22600
C 	C 	0.40090 0.10700 0.77760 0.00700
C 	C 	0.36240 0.09430 0.76010 -0.16100
H 	H 	0.35180 0.10080 0.73240 0.07000
C 	C 	0.34010 0.07270 0.78300 0.12300
C 	C 	0.35650 0.06160 0.82210 -0.08200
C 	C 	0.39540 0.07310 0.84080 0.11400
C 	C 	0.41530 0.09600 0.81820 -0.09100
C 	C 	0.41240 0.06320 0.88420 -0.33600
C 	C 	0.39140 0.07110 0.92130 0.37900
C 	C 	0.40690 0.06390 0.96320 -0.51500
H 	H 	0.39040 0.06930 0.98850 0.16200
C 	C 	0.44340 0.05000 0.96720 0.41600
C 	C 	0.46680 0.04190 0.92970 -0.46300
H 	H 	0.49310 0.03080 0.93350 0.15800
C 	C 	0.45350 0.04940 0.88520 0.41600
C 	C 	0.48020 0.04260 0.84780 -0.79800
H 	H 	0.50740 0.03290 0.85750 0.23000
H 	H 	0.48730 0.06090 0.83200 0.24400
H 	H 	0.46410 0.02910 0.82820 0.22300
C 	C 	0.34750 0.08980 0.91910 -0.64900
H 	H 	0.33680 0.09350 0.94900 0.18800
H 	H 	0.32530 0.07860 0.90260 0.20700
H 	H 	0.35320 0.10880 0.90430 0.19300
C 	C 	0.46040 0.04000 0.01410 -0.65800
H 	H 	0.48860 0.02970 0.01100 0.19400
H 	H 	0.43890 0.02650 0.02750 0.18800
H 	H 	0.46410 0.05750 0.03290 0.19300
C 	C 	0.30000 0.03890 0.73070 0.33800
C 	C 	0.26120 0.02670 0.71460 -0.42400
H 	H 	0.26220 0.01240 0.69160 0.16200
C 	C 	0.22110 0.03530 0.73220 0.38800
C 	C 	0.21960 0.05620 0.76580 -0.46900
H 	H 	0.19220 0.06220 0.77790 0.18000
C 	C 	0.25840 0.06850 0.78190 0.40000
C 	C 	0.29850 0.05980 0.76440 -0.30600
C 	C 	0.34420 0.02930 0.70890 -0.62400
H 	H 	0.36870 0.03950 0.72340 0.19100
H 	H 	0.34380 0.03450 0.67760 0.18700
H 	H 	0.34800 0.00770 0.71210 0.18900
C 	C 	0.17900 0.02110 0.71150 -0.64800
H 	H 	0.18760 0.00700 0.68840 0.18300
H 	H 	0.16050 0.03670 0.69870 0.19000
H 	H 	0.16240 0.01060 0.73440 0.19800
C 	C 	0.25730 0.08960 0.81910 -0.74000
H 	H 	0.28740 0.09600 0.82610 0.22900
H 	H 	0.24430 0.07990 0.84490 0.23200
H 	H 	0.23970 0.10700 0.81100 0.21200
C 	C 	0.30450 0.02380 0.85580 -0.19200
C 	C 	0.23800 0.97740 0.81350 -0.19100
C 	C 	0.20570 0.93830 0.76200 -0.11400
C 	C 	0.16500 0.92890 0.78020 0.18100
C 	C 	0.14380 0.90680 0.75690 -0.20600
H 	H 	0.11640 0.89990 0.76780 0.08000
C 	C 	0.15980 0.89410 0.71870 0.05600
C 	C 	0.19990 0.90490 0.70110 -0.19600
H 	H 	0.21170 0.89680 0.67480 0.07700
C 	C 	0.22160 0.92750 0.72290 0.16000
C 	C 	0.26510 0.93800 0.70410 -0.34900
C 	C 	0.26920 0.95190 0.66510 0.40700
C 	C 	0.31040 0.96080 0.64900 -0.50200
H 	H 	0.31220 0.97260 0.62310 0.17200
C 	C 	0.34820 0.95250 0.67050 0.48600
C 	C 	0.34480 0.93630 0.70840 -0.58200
H 	H 	0.37100 0.93050 0.72310 0.19000
C 	C 	0.30590 0.92830 0.72590 0.47400
C 	C 	0.30390 0.90850 0.76430 -0.83400
H 	H 	0.27310 0.90510 0.77240 0.25500
H 	H 	0.31940 0.91770 0.78900 0.25500
H 	H 	0.31780 0.88950 0.75700 0.23900
C 	C 	0.22760 0.96000 0.64020 -0.71000
H 	H 	0.23550 0.96990 0.61260 0.20800
H 	H 	0.20970 0.97340 0.65810 0.20600
H 	H 	0.21090 0.94190 0.63370 0.21500
C 	C 	0.38730 0.96140 0.64260 -0.78100
H 	H 	0.37710 0.97310 0.61740 0.22400
H 	H 	0.40230 0.94350 0.63200 0.22400
H 	H 	0.40770 0.97320 0.66030 0.21700
C 	C 	0.14530 0.94040 0.82290 -0.44100
C 	C 	0.16580 0.93220 0.86040 0.49800
C 	C 	0.20550 0.91100 0.86240 -0.78300
H 	H 	0.21460 0.90840 0.89310 0.23500
H 	H 	0.22990 0.91950 0.84550 0.24200
H 	H 	0.19730 0.89170 0.84990 0.23200
C 	C 	0.14690 0.94150 0.90010 -0.63900
H 	H 	0.16080 0.93650 0.92710 0.22400
C 	C 	0.10660 0.95850 0.90110 0.77100
C 	C 	0.09520 0.96780 0.86470 -0.78000
H 	H 	0.07590 0.98440 0.86450 0.25800
C 	C 	0.10790 0.95620 0.82280 0.53300
C 	C 	0.08550 0.96580 0.77940 -0.80700
H 	H 	0.05880 0.97710 0.78610 0.23300
H 	H 	0.07790 0.94820 0.76220 0.24200
H 	H 	0.10570 0.97830 0.76250 0.24400
C 	C 	0.08170 0.96680 0.93970 -1.13700
H 	H 	0.09490 0.95770 0.96580 0.32500
H 	H 	0.05130 0.95990 0.93650 0.31900
H 	H 	0.08190 0.98850 0.94290 0.31500
C 	C 	0.13670 0.87000 0.69520 0.07500
C 	C 	0.14440 0.86140 0.65510 -0.21800
H 	H 	0.16650 0.87200 0.63940 0.08100
C 	C 	0.12380 0.83880 0.63310 0.16200
C 	C 	0.08960 0.82350 0.65500 -0.10700
C 	C 	0.07840 0.83180 0.69780 0.16200
C 	C 	0.10350 0.85410 0.71880 -0.20200
H 	H 	0.09820 0.85850 0.74890 0.08300
C 	C 	0.04190 0.81860 0.72210 -0.35600
C 	C 	0.04210 0.78970 0.73550 0.41800
C 	C 	0.00720 0.78040 0.76330 -0.50700
H 	H 	0.01080 0.76280 0.78030 0.17600
C 	C 	0.96910 0.79550 0.76650 0.46000
C 	C 	0.96930 0.82360 0.75400 -0.54600
H 	H 	0.94450 0.83550 0.76110 0.18300
C 	C 	0.00340 0.83670 0.73100 0.44100
C 	C 	0.99990 0.86740 0.71460 -0.80200
H 	H 	0.02700 0.87280 0.69920 0.24500
H 	H 	0.99520 0.88090 0.73940 0.24000
H 	H 	0.97500 0.86880 0.69420 0.22900
C 	C 	0.08030 0.76880 0.73010 -0.74400
H 	H 	0.07260 0.74930 0.74220 0.22800
H 	H 	0.10590 0.77680 0.74570 0.21800
H 	H 	0.08730 0.76680 0.69870 0.22800
C 	C 	0.92580 0.78170 0.78870 -0.71300
H 	H 	0.93110 0.76080 0.79600 0.20000
H 	H 	0.90120 0.78310 0.76800 0.20600
H 	H 	0.91870 0.79280 0.81550 0.20200
C 	C 	0.14290 0.82820 0.58980 -0.36300
C 	C 	0.13330 0.84190 0.55000 0.42400
C 	C 	0.15290 0.83190 0.51140 -0.48600
H 	H 	0.14630 0.84130 0.48420 0.16700
C 	C 	0.18210 0.80820 0.51270 0.39200
C 	C 	0.19170 0.79450 0.55250 -0.48000
H 	H 	0.21170 0.77820 0.55340 0.15300
C 	C 	0.17210 0.80450 0.59100 0.43700
C 	C 	0.10520 0.86850 0.55150 -0.76300
H 	H 	0.11190 0.88130 0.52630 0.22100
H 	H 	0.07430 0.86250 0.55030 0.22400
H 	H 	0.11070 0.87940 0.57890 0.22900
C 	C 	0.18260 0.78760 0.63090 -0.80000
H 	H 	0.19420 0.80250 0.64840 0.26300
H 	H 	0.20380 0.77120 0.62530 0.20800
H 	H 	0.15630 0.77800 0.64540 0.22200
C 	C 	0.20290 0.79910 0.46760 -0.66300
H 	H 	0.22290 0.78220 0.47210 0.18200
H 	H 	0.21930 0.81590 0.45550 0.18900
H 	H 	0.17960 0.79330 0.44710 0.18700
C 	C 	0.04500 0.77970 0.62740 -0.20100
Cu	Cu	0.50130 0.74988 0.61646 0.85300
N 	N 	0.73360 0.54700 0.43840 -0.05900
N 	N 	0.58190 0.71030 0.59440 -0.06200
N 	N 	0.47710 0.78880 0.53540 -0.05500
N 	N 	0.31890 0.95070 0.38570 -0.06100
C 	C 	0.74240 0.52900 0.41540 -0.19300
C 	C 	0.71390 0.57110 0.46300 -0.10200
C 	C 	0.67130 0.58030 0.44910 0.17400
C 	C 	0.65260 0.60300 0.47010 -0.23400
H 	H 	0.62420 0.60940 0.46100 0.09500
C 	C 	0.67260 0.61760 0.50410 0.09600
C 	C 	0.71530 0.60890 0.51670 -0.20600
H 	H 	0.73000 0.61990 0.53900 0.08600
C 	C 	0.73590 0.58550 0.49800 0.14500
C 	C 	0.77870 0.57420 0.51550 -0.27400
C 	C 	0.77660 0.55190 0.54960 0.28600
C 	C 	0.81860 0.54280 0.56990 -0.38500
H 	H 	0.81860 0.52870 0.59310 0.13100
C 	C 	0.85630 0.55420 0.55600 0.30600
C 	C 	0.85840 0.57850 0.52530 -0.35400
H 	H 	0.88530 0.58760 0.51710 0.11200
C 	C 	0.81570 0.58810 0.50750 0.28800
C 	C 	0.82020 0.61550 0.47840 -0.59700
H 	H 	0.85110 0.62180 0.47760 0.17300
H 	H 	0.81040 0.61070 0.44850 0.17300
H 	H 	0.80220 0.63160 0.49020 0.17700
C 	C 	0.73320 0.53930 0.56470 -0.62000
H 	H 	0.73830 0.52460 0.58790 0.17700
H 	H 	0.71470 0.55530 0.57610 0.19400
H 	H 	0.71840 0.52970 0.53980 0.18400
C 	C 	0.90160 0.54410 0.57460 -0.59800
H 	H 	0.92510 0.55520 0.56000 0.16600
H 	H 	0.90250 0.54790 0.60640 0.16900
H 	H 	0.90550 0.52280 0.56920 0.16300
C 	C 	0.64920 0.56550 0.41020 -0.36000
C 	C 	0.63960 0.58410 0.37240 0.40700
C 	C 	0.61510 0.57190 0.33850 -0.54600
H 	H 	0.60580 0.58440 0.31510 0.18300
C 	C 	0.60340 0.54110 0.33730 0.58500
C 	C 	0.60950 0.52640 0.37440 -0.61000
H 	H 	0.59870 0.50670 0.37610 0.22200
C 	C 	0.63130 0.53820 0.41170 0.44800
C 	C 	0.63720 0.51800 0.45210 -0.74900
H 	H 	0.62190 0.49910 0.44720 0.23100
H 	H 	0.66860 0.51420 0.45680 0.23400
H 	H 	0.62490 0.52780 0.47810 0.22400
C 	C 	0.58520 0.52790 0.29770 -0.95700
H 	H 	0.58370 0.54300 0.27450 0.27100
H 	H 	0.60400 0.51150 0.28810 0.28500
H 	H 	0.55560 0.52040 0.30390 0.26400
C 	C 	0.65510 0.61610 0.36990 -0.74100
H 	H 	0.67180 0.62100 0.39650 0.22900
H 	H 	0.67380 0.61870 0.34400 0.21400
H 	H 	0.62960 0.62930 0.36760 0.22600
C 	C 	0.65090 0.64300 0.52760 0.00800
C 	C 	0.61240 0.65570 0.51010 -0.16200
H 	H 	0.60180 0.64920 0.48240 0.07000
C 	C 	0.59010 0.67730 0.53300 0.12400
C 	C 	0.60650 0.68840 0.57210 -0.08400
C 	C 	0.64540 0.67690 0.59080 0.11900
C 	C 	0.66530 0.65400 0.56820 -0.09300
C 	C 	0.66240 0.68680 0.63420 -0.34900
C 	C 	0.64140 0.67890 0.67130 0.39800
C 	C 	0.65690 0.68610 0.71320 -0.54400
H 	H 	0.64040 0.68070 0.73850 0.17900
C 	C 	0.69340 0.70000 0.71720 0.45700
C 	C 	0.71680 0.70810 0.67970 -0.48500
H 	H 	0.74310 0.71920 0.68350 0.16800
C 	C 	0.70350 0.70060 0.63520 0.43300
C 	C 	0.73020 0.70740 0.59780 -0.81500
H 	H 	0.75740 0.71710 0.60750 0.23500
H 	H 	0.73730 0.68910 0.58200 0.24900
H 	H 	0.71410 0.72090 0.57820 0.22800
C 	C 	0.59750 0.66020 0.66910 -0.66700
H 	H 	0.58680 0.65650 0.69900 0.19600
H 	H 	0.57530 0.67140 0.65260 0.21300
H 	H 	0.60320 0.64120 0.65430 0.19800
C 	C 	0.71040 0.71000 0.76410 -0.70400
H 	H 	0.73860 0.72030 0.76100 0.20000
H 	H 	0.68890 0.72350 0.77750 0.19500
H 	H 	0.71410 0.69250 0.78290 0.20100
C 	C 	0.55000 0.71110 0.48070 0.33800
C 	C 	0.51120 0.72330 0.46460 -0.42400
H 	H 	0.51220 0.73760 0.44160 0.16200
C 	C 	0.47110 0.71470 0.48220 0.38800
C 	C 	0.46960 0.69380 0.51580 -0.46900
H 	H 	0.44220 0.68780 0.52790 0.18000
C 	C 	0.50840 0.68150 0.53190 0.40000
C 	C 	0.54850 0.69020 0.51440 -0.30700
C 	C 	0.59420 0.72070 0.45890 -0.62400
H 	H 	0.61870 0.71050 0.47340 0.19100
H 	H 	0.59380 0.71550 0.42760 0.18700
H 	H 	0.59800 0.74230 0.46210 0.18900
C 	C 	0.42900 0.72890 0.46150 -0.64700
H 	H 	0.43760 0.74300 0.43840 0.18300
H 	H 	0.41050 0.71330 0.44870 0.19000
H 	H 	0.41240 0.73940 0.48440 0.19700
C 	C 	0.50730 0.66040 0.56910 -0.74000
H 	H 	0.53740 0.65400 0.57610 0.22900
H 	H 	0.49430 0.67010 0.59490 0.23100
H 	H 	0.48970 0.64300 0.56100 0.21200
C 	C 	0.55450 0.72620 0.60580 -0.19200
C 	C 	0.48800 0.77260 0.56350 -0.19100
C 	C 	0.45570 0.81170 0.51200 -0.11500
C 	C 	0.41500 0.82110 0.53020 0.18200
C 	C 	0.39380 0.84320 0.50690 -0.20700
H 	H 	0.36640 0.85010 0.51780 0.08000
C 	C 	0.40980 0.85590 0.46870 0.05700
C 	C 	0.44990 0.84510 0.45110 -0.19600
H 	H 	0.46170 0.85320 0.42480 0.07700
C 	C 	0.47160 0.82250 0.47290 0.16000
C 	C 	0.51510 0.81200 0.45410 -0.34900
C 	C 	0.51920 0.79810 0.41510 0.40700
C 	C 	0.56040 0.78920 0.39900 -0.50200
H 	H 	0.56220 0.77740 0.37310 0.17200
C 	C 	0.59820 0.79750 0.42050 0.48600
C 	C 	0.59480 0.81370 0.45840 -0.58200
H 	H 	0.62100 0.81950 0.47310 0.19000
C 	C 	0.55590 0.82170 0.47590 0.47400
C 	C 	0.55390 0.84150 0.51430 -0.83400
H 	H 	0.52310 0.84490 0.52240 0.25500
H 	H 	0.56940 0.83230 0.53900 0.25500
H 	H 	0.56780 0.86050 0.50700 0.23900
C 	C 	0.47760 0.79000 0.39020 -0.71000
H 	H 	0.48550 0.78010 0.36260 0.20800
H 	H 	0.45970 0.77660 0.40810 0.20600
H 	H 	0.46090 0.80810 0.38370 0.21500
C 	C 	0.63730 0.78860 0.39260 -0.78100
H 	H 	0.62710 0.77690 0.36740 0.22400
H 	H 	0.65230 0.80650 0.38200 0.22400
H 	H 	0.65770 0.77680 0.41030 0.21700
C 	C 	0.39530 0.80960 0.57290 -0.44500
C 	C 	0.41580 0.81780 0.61040 0.50400
C 	C 	0.45550 0.83900 0.61240 -0.78900
H 	H 	0.46460 0.84160 0.64310 0.23800
H 	H 	0.47990 0.83050 0.59550 0.24400
H 	H 	0.44730 0.85830 0.59990 0.23400
C 	C 	0.39690 0.80850 0.65010 -0.64700
H 	H 	0.41080 0.81350 0.67710 0.22900
C 	C 	0.35660 0.79150 0.65110 0.78400
C 	C 	0.34520 0.78220 0.61470 -0.79100
H 	H 	0.32590 0.76560 0.61450 0.26100
C 	C 	0.35790 0.79380 0.57280 0.53900
C 	C 	0.33550 0.78420 0.52940 -0.81200
H 	H 	0.30880 0.77290 0.53610 0.23400
H 	H 	0.32790 0.80180 0.51220 0.24400
H 	H 	0.35570 0.77170 0.51250 0.24500
C 	C 	0.33170 0.78320 0.68970 -1.15800
H 	H 	0.34490 0.79230 0.71580 0.33600
H 	H 	0.30130 0.79010 0.68650 0.32700
H 	H 	0.33190 0.76150 0.69290 0.32200
C 	C 	0.38670 0.88000 0.44520 0.07500
C 	C 	0.39440 0.88860 0.40510 -0.21800
H 	H 	0.41650 0.87800 0.38940 0.08100
C 	C 	0.37380 0.91120 0.38310 0.16200
C 	C 	0.33960 0.92650 0.40500 -0.10700
C 	C 	0.32840 0.91820 0.44780 0.16200
C 	C 	0.35350 0.89590 0.46880 -0.20200
H 	H 	0.34820 0.89150 0.49890 0.08300
C 	C 	0.29190 0.93140 0.47210 -0.35600
C 	C 	0.29210 0.96030 0.48550 0.41800
C 	C 	0.25720 0.96960 0.51330 -0.50700
H 	H 	0.26080 0.98720 0.53030 0.17600
C 	C 	0.21910 0.95450 0.51650 0.46000
C 	C 	0.21930 0.92640 0.50400 -0.54600
H 	H 	0.19450 0.91450 0.51110 0.18300
C 	C 	0.25340 0.91330 0.48100 0.44100
C 	C 	0.24990 0.88260 0.46460 -0.80200
H 	H 	0.27700 0.87720 0.44920 0.24500
H 	H 	0.24520 0.86910 0.48940 0.24000
H 	H 	0.22500 0.88120 0.44420 0.22900
C 	C 	0.33030 0.98120 0.48010 -0.74400
H 	H 	0.32260 0.00070 0.49220 0.22800
H 	H 	0.35590 0.97320 0.49570 0.21800
H 	H 	0.33730 0.98320 0.44870 0.22800
C 	C 	0.17580 0.96830 0.53870 -0.71300
H 	H 	0.18110 0.98920 0.54600 0.20000
H 	H 	0.15120 0.96690 0.51800 0.20700
H 	H 	0.16870 0.95720 0.56550 0.20200
C 	C 	0.39290 0.92180 0.33980 -0.36300
C 	C 	0.38330 0.90810 0.30000 0.42400
C 	C 	0.40290 0.91810 0.26140 -0.48700
H 	H 	0.39630 0.90870 0.23420 0.16700
C 	C 	0.43210 0.94180 0.26270 0.39300
C 	C 	0.44170 0.95550 0.30250 -0.48000
H 	H 	0.46170 0.97180 0.30340 0.15400
C 	C 	0.42210 0.94550 0.34100 0.43800
C 	C 	0.35520 0.88150 0.30150 -0.76400
H 	H 	0.36190 0.86870 0.27630 0.22100
H 	H 	0.32430 0.88750 0.30030 0.22400
H 	H 	0.36070 0.87060 0.32890 0.22900
C 	C 	0.43260 0.96240 0.38090 -0.80000
H 	H 	0.44420 0.94750 0.39840 0.26300
H 	H 	0.45380 0.97880 0.37530 0.20800
H 	H 	0.40630 0.97200 0.39540 0.22200
C 	C 	0.45290 0.95090 0.21760 -0.66400
H 	H 	0.47290 0.96780 0.22210 0.18300
H 	H 	0.46930 0.93410 0.20550 0.19000
H 	H 	0.42960 0.95670 0.19710 0.18800
C 	C 	0.29500 0.97030 0.37740 -0.20100
Cu	Cu	0.50130 0.24988 0.11646 0.85300
N 	N 	0.73360 0.04700 0.93840 -0.06200
N 	N 	0.58190 0.21030 0.09440 -0.06500
N 	N 	0.47710 0.28880 0.03540 -0.05800
N 	N 	0.31890 0.45070 0.88570 -0.06200
C 	C 	0.74240 0.02900 0.91540 -0.19500
C 	C 	0.71390 0.07110 0.96300 -0.09900
C 	C 	0.67130 0.08030 0.94910 0.18000
C 	C 	0.65260 0.10300 0.97010 -0.26600
H 	H 	0.62420 0.10940 0.96100 0.10200
C 	C 	0.67260 0.11760 0.00410 0.12300
C 	C 	0.71530 0.10890 0.01670 -0.17900
H 	H 	0.73000 0.11990 0.03900 0.07900
C 	C 	0.73590 0.08550 0.99800 0.10500
C 	C 	0.77870 0.07420 0.01550 -0.25400
C 	C 	0.77660 0.05190 0.04960 0.28600
C 	C 	0.81860 0.04280 0.06990 -0.38500
H 	H 	0.81860 0.02870 0.09310 0.13200
C 	C 	0.85630 0.05420 0.05600 0.31400
C 	C 	0.85840 0.07850 0.02530 -0.35800
H 	H 	0.88530 0.08760 0.01710 0.11900
C 	C 	0.81570 0.08810 0.00750 0.30500
C 	C 	0.82020 0.11550 0.97840 -0.62400
H 	H 	0.85110 0.12180 0.97760 0.17500
H 	H 	0.81040 0.11070 0.94850 0.17900
H 	H 	0.80220 0.13160 0.99020 0.17800
C 	C 	0.73320 0.03930 0.06470 -0.62200
H 	H 	0.73830 0.02460 0.08790 0.17900
H 	H 	0.71470 0.05530 0.07610 0.19700
H 	H 	0.71840 0.02970 0.03980 0.19000
C 	C 	0.90160 0.04410 0.07460 -0.60700
H 	H 	0.92510 0.05520 0.06000 0.17200
H 	H 	0.90250 0.04790 0.10640 0.17200
H 	H 	0.90550 0.02280 0.06920 0.17000
C 	C 	0.64920 0.06550 0.91020 -0.36100
C 	C 	0.63960 0.08410 0.87240 0.40700
C 	C 	0.61510 0.07190 0.83850 -0.54500
H 	H 	0.60580 0.08440 0.81510 0.18300
C 	C 	0.60340 0.04110 0.83730 0.58400
C 	C 	0.60950 0.02640 0.87440 -0.60700
H 	H 	0.59870 0.00670 0.87610 0.22200
C 	C 	0.63130 0.03820 0.91170 0.44400
C 	C 	0.63720 0.01800 0.95210 -0.73800
H 	H 	0.62190 0.99910 0.94720 0.22500
H 	H 	0.66860 0.01420 0.95680 0.22700
H 	H 	0.62490 0.02780 0.97810 0.21500
C 	C 	0.58520 0.02790 0.79770 -0.95600
H 	H 	0.58370 0.04300 0.77450 0.27100
H 	H 	0.60400 0.01150 0.78810 0.28500
H 	H 	0.55560 0.02040 0.80390 0.26400
C 	C 	0.65510 0.11610 0.86990 -0.73900
H 	H 	0.67180 0.12100 0.89650 0.22800
H 	H 	0.67380 0.11870 0.84400 0.21300
H 	H 	0.62960 0.12930 0.86760 0.22500
C 	C 	0.65090 0.14300 0.02760 -0.01700
C 	C 	0.61240 0.15570 0.01010 -0.09800
H 	H 	0.60180 0.14920 0.98240 0.03600
C 	C 	0.59010 0.17730 0.03300 0.08800
C 	C 	0.60650 0.18840 0.07210 -0.06500
C 	C 	0.64540 0.17690 0.09080 0.10900
C 	C 	0.66530 0.15400 0.06820 -0.08100
C 	C 	0.66240 0.18680 0.13420 -0.34500
C 	C 	0.64140 0.17890 0.17130 0.39600
C 	C 	0.65690 0.18610 0.21320 -0.54200
H 	H 	0.64040 0.18070 0.23850 0.17800
C 	C 	0.69340 0.20000 0.21720 0.45600
C 	C 	0.71680 0.20810 0.17970 -0.48500
H 	H 	0.74310 0.21920 0.18350 0.16800
C 	C 	0.70350 0.20060 0.13520 0.43100
C 	C 	0.73020 0.20740 0.09780 -0.81600
H 	H 	0.75740 0.21710 0.10750 0.23500
H 	H 	0.73730 0.18910 0.08200 0.25000
H 	H 	0.71410 0.22090 0.07820 0.23000
C 	C 	0.59750 0.16020 0.16910 -0.66500
H 	H 	0.58680 0.15650 0.19900 0.19600
H 	H 	0.57530 0.17140 0.15260 0.21200
H 	H 	0.60320 0.14120 0.15430 0.19800
C 	C 	0.71040 0.21000 0.26410 -0.70300
H 	H 	0.73860 0.22030 0.26100 0.20000
H 	H 	0.68890 0.22350 0.27750 0.19500
H 	H 	0.71410 0.19250 0.28290 0.20100
C 	C 	0.55000 0.21110 0.98070 0.27300
C 	C 	0.51120 0.22330 0.96460 -0.37100
H 	H 	0.51220 0.23760 0.94160 0.14400
C 	C 	0.47110 0.21470 0.98220 0.31900
C 	C 	0.46960 0.19380 0.01580 -0.39500
H 	H 	0.44220 0.18780 0.02790 0.16000
C 	C 	0.50840 0.18150 0.03190 0.34900
C 	C 	0.54850 0.19020 0.01440 -0.24200
C 	C 	0.59420 0.22070 0.95890 -0.56900
H 	H 	0.61870 0.21050 0.97340 0.16800
H 	H 	0.59380 0.21550 0.92760 0.17100
H 	H 	0.59800 0.24230 0.96210 0.17000
C 	C 	0.42900 0.22890 0.96150 -0.58900
H 	H 	0.43760 0.24300 0.93840 0.16600
H 	H 	0.41050 0.21330 0.94870 0.17100
H 	H 	0.41240 0.23940 0.98440 0.17300
C 	C 	0.50730 0.16040 0.06910 -0.69200
H 	H 	0.53740 0.15400 0.07610 0.21600
H 	H 	0.49430 0.17010 0.09490 0.21800
H 	H 	0.48970 0.14300 0.06100 0.20000
C 	C 	0.55450 0.22620 0.10580 -0.18900
C 	C 	0.48800 0.27260 0.06350 -0.18400
C 	C 	0.45570 0.31170 0.01200 -0.07300
C 	C 	0.41500 0.32110 0.03020 0.15600
C 	C 	0.39380 0.34320 0.00690 -0.15700
H 	H 	0.36640 0.35010 0.01780 0.07000
C 	C 	0.40980 0.35590 0.96870 0.01200
C 	C 	0.44990 0.34510 0.95110 -0.16300
H 	H 	0.46170 0.35320 0.92480 0.06500
C 	C 	0.47160 0.32250 0.97290 0.11100
C 	C 	0.51510 0.31200 0.95410 -0.31800
C 	C 	0.51920 0.29810 0.91510 0.38500
C 	C 	0.56040 0.28920 0.89900 -0.47800
H 	H 	0.56220 0.27740 0.87310 0.16500
C 	C 	0.59820 0.29750 0.92050 0.45800
C 	C 	0.59480 0.31370 0.95840 -0.54400
H 	H 	0.62100 0.31950 0.97310 0.17100
C 	C 	0.55590 0.32170 0.97590 0.42000
C 	C 	0.55390 0.34150 0.01430 -0.76400
H 	H 	0.52310 0.34490 0.02240 0.24000
H 	H 	0.56940 0.33230 0.03900 0.23800
H 	H 	0.56780 0.36050 0.00700 0.22600
C 	C 	0.47760 0.29000 0.89020 -0.69000
H 	H 	0.48550 0.28010 0.86260 0.20300
H 	H 	0.45970 0.27660 0.90810 0.20100
H 	H 	0.46090 0.30810 0.88370 0.20900
C 	C 	0.63730 0.28860 0.89260 -0.75400
H 	H 	0.62710 0.27690 0.86740 0.21700
H 	H 	0.65230 0.30650 0.88200 0.21600
H 	H 	0.65770 0.27680 0.91030 0.20700
C 	C 	0.39530 0.30960 0.07290 -0.43600
C 	C 	0.41580 0.31780 0.11040 0.50000
C 	C 	0.45550 0.33900 0.11240 -0.78800
H 	H 	0.46460 0.34160 0.14310 0.23700
H 	H 	0.47990 0.33050 0.09550 0.24400
H 	H 	0.44730 0.35830 0.09990 0.23500
C 	C 	0.39690 0.30850 0.15010 -0.64500
H 	H 	0.41080 0.31350 0.17710 0.22900
C 	C 	0.35660 0.29150 0.15110 0.78400
C 	C 	0.34520 0.28220 0.11470 -0.79100
H 	H 	0.32590 0.26560 0.11450 0.26200
C 	C 	0.35790 0.29380 0.07280 0.54000
C 	C 	0.33550 0.28420 0.02940 -0.82400
H 	H 	0.30880 0.27290 0.03610 0.24100
H 	H 	0.32790 0.30180 0.01220 0.25200
H 	H 	0.35570 0.27170 0.01250 0.25500
C 	C 	0.33170 0.28320 0.18970 -1.15700
H 	H 	0.34490 0.29230 0.21580 0.33600
H 	H 	0.30130 0.29010 0.18650 0.32700
H 	H 	0.33190 0.26150 0.19290 0.32200
C 	C 	0.38670 0.38000 0.94520 0.08800
C 	C 	0.39440 0.38860 0.90510 -0.22600
H 	H 	0.41650 0.37800 0.88940 0.08400
C 	C 	0.37380 0.41120 0.88310 0.16300
C 	C 	0.33960 0.42650 0.90500 -0.10200
C 	C 	0.32840 0.41820 0.94780 0.14800
C 	C 	0.35350 0.39590 0.96880 -0.20200
H 	H 	0.34820 0.39150 0.99890 0.07700
C 	C 	0.29190 0.43140 0.97210 -0.31400
C 	C 	0.29210 0.46030 0.98550 0.35300
C 	C 	0.25720 0.46960 0.01330 -0.43300
H 	H 	0.26080 0.48720 0.03030 0.15600
C 	C 	0.21910 0.45450 0.01650 0.40800
C 	C 	0.21930 0.42640 0.00400 -0.46600
H 	H 	0.19450 0.41450 0.01110 0.16500
C 	C 	0.25340 0.41330 0.98100 0.37200
C 	C 	0.24990 0.38260 0.96460 -0.73200
H 	H 	0.27700 0.37720 0.94920 0.22400
H 	H 	0.24520 0.36910 0.98940 0.21400
H 	H 	0.22500 0.38120 0.94420 0.20800
C 	C 	0.33030 0.48120 0.98010 -0.68200
H 	H 	0.32260 0.50070 0.99220 0.20400
H 	H 	0.35590 0.47320 0.99570 0.19500
H 	H 	0.33730 0.48320 0.94870 0.21000
C 	C 	0.17580 0.46830 0.03870 -0.67600
H 	H 	0.18110 0.48920 0.04600 0.19200
H 	H 	0.15120 0.46690 0.01800 0.20300
H 	H 	0.16870 0.45720 0.06550 0.19300
C 	C 	0.39290 0.42180 0.83980 -0.36300
C 	C 	0.38330 0.40810 0.80000 0.42400
C 	C 	0.40290 0.41810 0.76140 -0.48600
H 	H 	0.39630 0.40870 0.73420 0.16700
C 	C 	0.43210 0.44180 0.76270 0.39300
C 	C 	0.44170 0.45550 0.80250 -0.48000
H 	H 	0.46170 0.47180 0.80340 0.15400
C 	C 	0.42210 0.44550 0.84100 0.43700
C 	C 	0.35520 0.38150 0.80150 -0.76400
H 	H 	0.36190 0.36870 0.77630 0.22100
H 	H 	0.32430 0.38750 0.80030 0.22400
H 	H 	0.36070 0.37060 0.82890 0.22900
C 	C 	0.43260 0.46240 0.88090 -0.80000
H 	H 	0.44420 0.44750 0.89840 0.26200
H 	H 	0.45380 0.47880 0.87530 0.20800
H 	H 	0.40630 0.47200 0.89540 0.22200
C 	C 	0.45290 0.45090 0.71760 -0.66300
H 	H 	0.47290 0.46780 0.72210 0.18200
H 	H 	0.46930 0.43410 0.70550 0.18900
H 	H 	0.42960 0.45670 0.69710 0.18700
C 	C 	0.29500 0.47030 0.87740 -0.20000
Cu	Cu	0.00130 0.74988 0.11646 0.85300
N 	N 	0.23360 0.54700 0.93840 -0.06200
N 	N 	0.08190 0.71030 0.09440 -0.06500
N 	N 	0.97710 0.78880 0.03540 -0.05800
N 	N 	0.81890 0.95070 0.88570 -0.06200
C 	C 	0.24240 0.52900 0.91540 -0.19500
C 	C 	0.21390 0.57110 0.96300 -0.09900
C 	C 	0.17130 0.58030 0.94910 0.18000
C 	C 	0.15260 0.60300 0.97010 -0.26600
H 	H 	0.12420 0.60940 0.96100 0.10200
C 	C 	0.17260 0.61760 0.00410 0.12300
C 	C 	0.21530 0.60890 0.01670 -0.17900
H 	H 	0.23000 0.61990 0.03900 0.07900
C 	C 	0.23590 0.58550 0.99800 0.10500
C 	C 	0.27870 0.57420 0.01550 -0.25400
C 	C 	0.27660 0.55190 0.04960 0.28600
C 	C 	0.31860 0.54280 0.06990 -0.38500
H 	H 	0.31860 0.52870 0.09310 0.13200
C 	C 	0.35630 0.55420 0.05600 0.31400
C 	C 	0.35840 0.57850 0.02530 -0.35800
H 	H 	0.38530 0.58760 0.01710 0.12000
C 	C 	0.31570 0.58810 0.00750 0.30500
C 	C 	0.32020 0.61550 0.97840 -0.62500
H 	H 	0.35110 0.62180 0.97760 0.17500
H 	H 	0.31040 0.61070 0.94850 0.17900
H 	H 	0.30220 0.63160 0.99020 0.17800
C 	C 	0.23320 0.53930 0.06470 -0.62200
H 	H 	0.23830 0.52460 0.08790 0.17900
H 	H 	0.21470 0.55530 0.07610 0.19700
H 	H 	0.21840 0.52970 0.03980 0.19000
C 	C 	0.40160 0.54410 0.07460 -0.60700
H 	H 	0.42510 0.55520 0.06000 0.17200
H 	H 	0.40250 0.54790 0.10640 0.17200
H 	H 	0.40550 0.52280 0.06920 0.17000
C 	C 	0.14920 0.56550 0.91020 -0.36100
C 	C 	0.13960 0.58410 0.87240 0.40700
C 	C 	0.11510 0.57190 0.83850 -0.54500
H 	H 	0.10580 0.58440 0.81510 0.18300
C 	C 	0.10340 0.54110 0.83730 0.58400
C 	C 	0.10950 0.52640 0.87440 -0.60700
H 	H 	0.09870 0.50670 0.87610 0.22100
C 	C 	0.13130 0.53820 0.91170 0.44400
C 	C 	0.13720 0.51800 0.95210 -0.73800
H 	H 	0.12190 0.49910 0.94720 0.22500
H 	H 	0.16860 0.51420 0.95680 0.22700
H 	H 	0.12490 0.52780 0.97810 0.21500
C 	C 	0.08520 0.52790 0.79770 -0.95600
H 	H 	0.08370 0.54300 0.77450 0.27100
H 	H 	0.10400 0.51150 0.78810 0.28500
H 	H 	0.05560 0.52040 0.80390 0.26400
C 	C 	0.15510 0.61610 0.86990 -0.73900
H 	H 	0.17180 0.62100 0.89650 0.22800
H 	H 	0.17380 0.61870 0.84400 0.21300
H 	H 	0.12960 0.62930 0.86760 0.22500
C 	C 	0.15090 0.64300 0.02760 -0.01700
C 	C 	0.11240 0.65570 0.01010 -0.09900
H 	H 	0.10180 0.64920 0.98240 0.03700
C 	C 	0.09010 0.67730 0.03300 0.08800
C 	C 	0.10650 0.68840 0.07210 -0.06600
C 	C 	0.14540 0.67690 0.09080 0.10900
C 	C 	0.16530 0.65400 0.06820 -0.08100
C 	C 	0.16240 0.68680 0.13420 -0.34500
C 	C 	0.14140 0.67890 0.17130 0.39600
C 	C 	0.15690 0.68610 0.21320 -0.54200
H 	H 	0.14040 0.68070 0.23850 0.17800
C 	C 	0.19340 0.70000 0.21720 0.45600
C 	C 	0.21680 0.70810 0.17970 -0.48500
H 	H 	0.24310 0.71920 0.18350 0.16800
C 	C 	0.20350 0.70060 0.13520 0.43100
C 	C 	0.23020 0.70740 0.09780 -0.81600
H 	H 	0.25740 0.71710 0.10750 0.23500
H 	H 	0.23730 0.68910 0.08200 0.25000
H 	H 	0.21410 0.72090 0.07820 0.23000
C 	C 	0.09750 0.66020 0.16910 -0.66500
H 	H 	0.08680 0.65650 0.19900 0.19600
H 	H 	0.07530 0.67140 0.15260 0.21200
H 	H 	0.10320 0.64120 0.15430 0.19800
C 	C 	0.21040 0.71000 0.26410 -0.70300
H 	H 	0.23860 0.72030 0.26100 0.20000
H 	H 	0.18890 0.72350 0.27750 0.19500
H 	H 	0.21410 0.69250 0.28290 0.20100
C 	C 	0.05000 0.71110 0.98070 0.27300
C 	C 	0.01120 0.72330 0.96460 -0.37100
H 	H 	0.01220 0.73760 0.94160 0.14400
C 	C 	0.97110 0.71470 0.98220 0.32000
C 	C 	0.96960 0.69380 0.01580 -0.39600
H 	H 	0.94220 0.68780 0.02790 0.16000
C 	C 	0.00840 0.68150 0.03190 0.35000
C 	C 	0.04850 0.69020 0.01440 -0.24200
C 	C 	0.09420 0.72070 0.95890 -0.56900
H 	H 	0.11870 0.71050 0.97340 0.16900
H 	H 	0.09380 0.71550 0.92760 0.17100
H 	H 	0.09800 0.74230 0.96210 0.17000
C 	C 	0.92900 0.72890 0.96150 -0.59000
H 	H 	0.93760 0.74300 0.93840 0.16600
H 	H 	0.91050 0.71330 0.94870 0.17100
H 	H 	0.91240 0.73940 0.98440 0.17300
C 	C 	0.00730 0.66040 0.06910 -0.69200
H 	H 	0.03740 0.65400 0.07610 0.21600
H 	H 	0.99430 0.67010 0.09490 0.21800
H 	H 	0.98970 0.64300 0.06100 0.20000
C 	C 	0.05450 0.72620 0.10580 -0.18900
C 	C 	0.98800 0.77260 0.06350 -0.18400
C 	C 	0.95570 0.81170 0.01200 -0.07300
C 	C 	0.91500 0.82110 0.03020 0.15700
C 	C 	0.89380 0.84320 0.00690 -0.15700
H 	H 	0.86640 0.85010 0.01780 0.07100
C 	C 	0.90980 0.85590 0.96870 0.01200
C 	C 	0.94990 0.84510 0.95110 -0.16300
H 	H 	0.96170 0.85320 0.92480 0.06500
C 	C 	0.97160 0.82250 0.97290 0.11200
C 	C 	0.01510 0.81200 0.95410 -0.31800
C 	C 	0.01920 0.79810 0.91510 0.38500
C 	C 	0.06040 0.78920 0.89900 -0.47800
H 	H 	0.06220 0.77740 0.87310 0.16500
C 	C 	0.09820 0.79750 0.92050 0.45800
C 	C 	0.09480 0.81370 0.95840 -0.54400
H 	H 	0.12100 0.81950 0.97310 0.17200
C 	C 	0.05590 0.82170 0.97590 0.42100
C 	C 	0.05390 0.84150 0.01430 -0.76400
H 	H 	0.02310 0.84490 0.02240 0.24000
H 	H 	0.06940 0.83230 0.03900 0.23800
H 	H 	0.06780 0.86050 0.00700 0.22600
C 	C 	0.97760 0.79000 0.89020 -0.69000
H 	H 	0.98550 0.78010 0.86260 0.20300
H 	H 	0.95970 0.77660 0.90810 0.20100
H 	H 	0.96090 0.80810 0.88370 0.21000
C 	C 	0.13730 0.78860 0.89260 -0.75500
H 	H 	0.12710 0.77690 0.86740 0.21700
H 	H 	0.15230 0.80650 0.88200 0.21600
H 	H 	0.15770 0.77680 0.91030 0.20800
C 	C 	0.89530 0.80960 0.07290 -0.43600
C 	C 	0.91580 0.81780 0.11040 0.50000
C 	C 	0.95550 0.83900 0.11240 -0.78800
H 	H 	0.96460 0.84160 0.14310 0.23700
H 	H 	0.97990 0.83050 0.09550 0.24400
H 	H 	0.94730 0.85830 0.09990 0.23500
C 	C 	0.89690 0.80850 0.15010 -0.64500
H 	H 	0.91080 0.81350 0.17710 0.22900
C 	C 	0.85660 0.79150 0.15110 0.78400
C 	C 	0.84520 0.78220 0.11470 -0.79100
H 	H 	0.82590 0.76560 0.11450 0.26200
C 	C 	0.85790 0.79380 0.07280 0.54100
C 	C 	0.83550 0.78420 0.02940 -0.82400
H 	H 	0.80880 0.77290 0.03610 0.24100
H 	H 	0.82790 0.80180 0.01220 0.25200
H 	H 	0.85570 0.77170 0.01250 0.25500
C 	C 	0.83170 0.78320 0.18970 -1.15700
H 	H 	0.84490 0.79230 0.21580 0.33600
H 	H 	0.80130 0.79010 0.18650 0.32700
H 	H 	0.83190 0.76150 0.19290 0.32200
C 	C 	0.88670 0.88000 0.94520 0.08800
C 	C 	0.89440 0.88860 0.90510 -0.22600
H 	H 	0.91650 0.87800 0.88940 0.08400
C 	C 	0.87380 0.91120 0.88310 0.16300
C 	C 	0.83960 0.92650 0.90500 -0.10200
C 	C 	0.82840 0.91820 0.94780 0.14800
C 	C 	0.85350 0.89590 0.96880 -0.20200
H 	H 	0.84820 0.89150 0.99890 0.07700
C 	C 	0.79190 0.93140 0.97210 -0.31400
C 	C 	0.79210 0.96030 0.98550 0.35300
C 	C 	0.75720 0.96960 0.01330 -0.43300
H 	H 	0.76080 0.98720 0.03030 0.15600
C 	C 	0.71910 0.95450 0.01650 0.40800
C 	C 	0.71930 0.92640 0.00400 -0.46600
H 	H 	0.69450 0.91450 0.01110 0.16500
C 	C 	0.75340 0.91330 0.98100 0.37200
C 	C 	0.74990 0.88260 0.96460 -0.73300
H 	H 	0.77700 0.87720 0.94920 0.22400
H 	H 	0.74520 0.86910 0.98940 0.21400
H 	H 	0.72500 0.88120 0.94420 0.20800
C 	C 	0.83030 0.98120 0.98010 -0.68200
H 	H 	0.82260 0.00070 0.99220 0.20400
H 	H 	0.85590 0.97320 0.99570 0.19500
H 	H 	0.83730 0.98320 0.94870 0.21000
C 	C 	0.67580 0.96830 0.03870 -0.67700
H 	H 	0.68110 0.98920 0.04600 0.19200
H 	H 	0.65120 0.96690 0.01800 0.20300
H 	H 	0.66870 0.95720 0.06550 0.19300
C 	C 	0.89290 0.92180 0.83980 -0.36300
C 	C 	0.88330 0.90810 0.80000 0.42400
C 	C 	0.90290 0.91810 0.76140 -0.48600
H 	H 	0.89630 0.90870 0.73420 0.16700
C 	C 	0.93210 0.94180 0.76270 0.39300
C 	C 	0.94170 0.95550 0.80250 -0.48000
H 	H 	0.96170 0.97180 0.80340 0.15400
C 	C 	0.92210 0.94550 0.84100 0.43800
C 	C 	0.85520 0.88150 0.80150 -0.76400
H 	H 	0.86190 0.86870 0.77630 0.22100
H 	H 	0.82430 0.88750 0.80030 0.22400
H 	H 	0.86070 0.87060 0.82890 0.22900
C 	C 	0.93260 0.96240 0.88090 -0.80000
H 	H 	0.94420 0.94750 0.89840 0.26200
H 	H 	0.95380 0.97880 0.87530 0.20800
H 	H 	0.90630 0.97200 0.89540 0.22200
C 	C 	0.95290 0.95090 0.71760 -0.66300
H 	H 	0.97290 0.96780 0.72210 0.18200
H 	H 	0.96930 0.93410 0.70550 0.18900
H 	H 	0.92960 0.95670 0.69710 0.18700
C 	C 	0.79500 0.97030 0.87740 -0.20000
Cu	Cu	0.00130 0.24988 0.61646 0.85300
N 	N 	0.23360 0.04700 0.43840 -0.05900
N 	N 	0.08190 0.21030 0.59440 -0.06200
N 	N 	0.97710 0.28880 0.53540 -0.05500
N 	N 	0.81890 0.45070 0.38570 -0.06100
C 	C 	0.24240 0.02900 0.41540 -0.19300
C 	C 	0.21390 0.07110 0.46300 -0.10200
C 	C 	0.17130 0.08030 0.44910 0.17400
C 	C 	0.15260 0.10300 0.47010 -0.23400
H 	H 	0.12420 0.10940 0.46100 0.09500
C 	C 	0.17260 0.11760 0.50410 0.09600
C 	C 	0.21530 0.10890 0.51670 -0.20600
H 	H 	0.23000 0.11990 0.53900 0.08600
C 	C 	0.23590 0.08550 0.49800 0.14500
C 	C 	0.27870 0.07420 0.51550 -0.27400
C 	C 	0.27660 0.05190 0.54960 0.28600
C 	C 	0.31860 0.04280 0.56990 -0.38500
H 	H 	0.31860 0.02870 0.59310 0.13100
C 	C 	0.35630 0.05420 0.55600 0.30600
C 	C 	0.35840 0.07850 0.52530 -0.35400
H 	H 	0.38530 0.08760 0.51710 0.11200
C 	C 	0.31570 0.08810 0.50750 0.28800
C 	C 	0.32020 0.11550 0.47840 -0.59700
H 	H 	0.35110 0.12180 0.47760 0.17300
H 	H 	0.31040 0.11070 0.44850 0.17300
H 	H 	0.30220 0.13160 0.49020 0.17700
C 	C 	0.23320 0.03930 0.56470 -0.62000
H 	H 	0.23830 0.02460 0.58790 0.17700
H 	H 	0.21470 0.05530 0.57610 0.19400
H 	H 	0.21840 0.02970 0.53980 0.18400
C 	C 	0.40160 0.04410 0.57460 -0.59800
H 	H 	0.42510 0.05520 0.56000 0.16600
H 	H 	0.40250 0.04790 0.60640 0.16900
H 	H 	0.40550 0.02280 0.56920 0.16300
C 	C 	0.14920 0.06550 0.41020 -0.36000
C 	C 	0.13960 0.08410 0.37240 0.40700
C 	C 	0.11510 0.07190 0.33850 -0.54600
H 	H 	0.10580 0.08440 0.31510 0.18300
C 	C 	0.10340 0.04110 0.33730 0.58500
C 	C 	0.10950 0.02640 0.37440 -0.61000
H 	H 	0.09870 0.00670 0.37610 0.22200
C 	C 	0.13130 0.03820 0.41170 0.44800
C 	C 	0.13720 0.01800 0.45210 -0.74900
H 	H 	0.12190 0.99910 0.44720 0.23100
H 	H 	0.16860 0.01420 0.45680 0.23400
H 	H 	0.12490 0.02780 0.47810 0.22400
C 	C 	0.08520 0.02790 0.29770 -0.95700
H 	H 	0.08370 0.04300 0.27450 0.27100
H 	H 	0.10400 0.01150 0.28810 0.28500
H 	H 	0.05560 0.02040 0.30390 0.26400
C 	C 	0.15510 0.11610 0.36990 -0.74100
H 	H 	0.17180 0.12100 0.39650 0.22900
H 	H 	0.17380 0.11870 0.34400 0.21400
H 	H 	0.12960 0.12930 0.36760 0.22600
C 	C 	0.15090 0.14300 0.52760 0.00800
C 	C 	0.11240 0.15570 0.51010 -0.16200
H 	H 	0.10180 0.14920 0.48240 0.07000
C 	C 	0.09010 0.17730 0.53300 0.12400
C 	C 	0.10650 0.18840 0.57210 -0.08400
C 	C 	0.14540 0.17690 0.59080 0.11900
C 	C 	0.16530 0.15400 0.56820 -0.09300
C 	C 	0.16240 0.18680 0.63420 -0.34900
C 	C 	0.14140 0.17890 0.67130 0.39900
C 	C 	0.15690 0.18610 0.71320 -0.54400
H 	H 	0.14040 0.18070 0.73850 0.17900
C 	C 	0.19340 0.20000 0.71720 0.45700
C 	C 	0.21680 0.20810 0.67970 -0.48500
H 	H 	0.24310 0.21920 0.68350 0.16800
C 	C 	0.20350 0.20060 0.63520 0.43300
C 	C 	0.23020 0.20740 0.59780 -0.81500
H 	H 	0.25740 0.21710 0.60750 0.23500
H 	H 	0.23730 0.18910 0.58200 0.24900
H 	H 	0.21410 0.22090 0.57820 0.22800
C 	C 	0.09750 0.16020 0.66910 -0.66700
H 	H 	0.08680 0.15650 0.69900 0.19600
H 	H 	0.07530 0.17140 0.65260 0.21300
H 	H 	0.10320 0.14120 0.65430 0.19800
C 	C 	0.21040 0.21000 0.76410 -0.70400
H 	H 	0.23860 0.22030 0.76100 0.20000
H 	H 	0.18890 0.22350 0.77750 0.19500
H 	H 	0.21410 0.19250 0.78290 0.20100
C 	C 	0.05000 0.21110 0.48070 0.33800
C 	C 	0.01120 0.22330 0.46460 -0.42400
H 	H 	0.01220 0.23760 0.44160 0.16200
C 	C 	0.97110 0.21470 0.48220 0.38800
C 	C 	0.96960 0.19380 0.51580 -0.46900
H 	H 	0.94220 0.18780 0.52790 0.18000
C 	C 	0.00840 0.18150 0.53190 0.40000
C 	C 	0.04850 0.19020 0.51440 -0.30700
C 	C 	0.09420 0.22070 0.45890 -0.62400
H 	H 	0.11870 0.21050 0.47340 0.19100
H 	H 	0.09380 0.21550 0.42760 0.18700
H 	H 	0.09800 0.24230 0.46210 0.18900
C 	C 	0.92900 0.22890 0.46150 -0.64700
H 	H 	0.93760 0.24300 0.43840 0.18300
H 	H 	0.91050 0.21330 0.44870 0.19000
H 	H 	0.91240 0.23940 0.48440 0.19700
C 	C 	0.00730 0.16040 0.56910 -0.74000
H 	H 	0.03740 0.15400 0.57610 0.22900
H 	H 	0.99430 0.17010 0.59490 0.23100
H 	H 	0.98970 0.14300 0.56100 0.21200
C 	C 	0.05450 0.22620 0.60580 -0.19200
C 	C 	0.98800 0.27260 0.56350 -0.19100
C 	C 	0.95570 0.31170 0.51200 -0.11500
C 	C 	0.91500 0.32110 0.53020 0.18200
C 	C 	0.89380 0.34320 0.50690 -0.20700
H 	H 	0.86640 0.35010 0.51780 0.08000
C 	C 	0.90980 0.35590 0.46870 0.05700
C 	C 	0.94990 0.34510 0.45110 -0.19600
H 	H 	0.96170 0.35320 0.42480 0.07700
C 	C 	0.97160 0.32250 0.47290 0.16000
C 	C 	0.01510 0.31200 0.45410 -0.34900
C 	C 	0.01920 0.29810 0.41510 0.40700
C 	C 	0.06040 0.28920 0.39900 -0.50200
H 	H 	0.06220 0.27740 0.37310 0.17200
C 	C 	0.09820 0.29750 0.42050 0.48600
C 	C 	0.09480 0.31370 0.45840 -0.58200
H 	H 	0.12100 0.31950 0.47310 0.19000
C 	C 	0.05590 0.32170 0.47590 0.47400
C 	C 	0.05390 0.34150 0.51430 -0.83400
H 	H 	0.02310 0.34490 0.52240 0.25500
H 	H 	0.06940 0.33230 0.53900 0.25500
H 	H 	0.06780 0.36050 0.50700 0.23900
C 	C 	0.97760 0.29000 0.39020 -0.71000
H 	H 	0.98550 0.28010 0.36260 0.20800
H 	H 	0.95970 0.27660 0.40810 0.20600
H 	H 	0.96090 0.30810 0.38370 0.21500
C 	C 	0.13730 0.28860 0.39260 -0.78100
H 	H 	0.12710 0.27690 0.36740 0.22400
H 	H 	0.15230 0.30650 0.38200 0.22400
H 	H 	0.15770 0.27680 0.41030 0.21700
C 	C 	0.89530 0.30960 0.57290 -0.44500
C 	C 	0.91580 0.31780 0.61040 0.50400
C 	C 	0.95550 0.33900 0.61240 -0.79000
H 	H 	0.96460 0.34160 0.64310 0.23800
H 	H 	0.97990 0.33050 0.59550 0.24400
H 	H 	0.94730 0.35830 0.59990 0.23400
C 	C 	0.89690 0.30850 0.65010 -0.64700
H 	H 	0.91080 0.31350 0.67710 0.22900
C 	C 	0.85660 0.29150 0.65110 0.78400
C 	C 	0.84520 0.28220 0.61470 -0.79100
H 	H 	0.82590 0.26560 0.61450 0.26100
C 	C 	0.85790 0.29380 0.57280 0.53900
C 	C 	0.83550 0.28420 0.52940 -0.81200
H 	H 	0.80880 0.27290 0.53610 0.23400
H 	H 	0.82790 0.30180 0.51220 0.24400
H 	H 	0.85570 0.27170 0.51250 0.24500
C 	C 	0.83170 0.28320 0.68970 -1.15800
H 	H 	0.84490 0.29230 0.71580 0.33600
H 	H 	0.80130 0.29010 0.68650 0.32700
H 	H 	0.83190 0.26150 0.69290 0.32200
C 	C 	0.88670 0.38000 0.44520 0.07500
C 	C 	0.89440 0.38860 0.40510 -0.21800
H 	H 	0.91650 0.37800 0.38940 0.08100
C 	C 	0.87380 0.41120 0.38310 0.16200
C 	C 	0.83960 0.42650 0.40500 -0.10700
C 	C 	0.82840 0.41820 0.44780 0.16200
C 	C 	0.85350 0.39590 0.46880 -0.20200
H 	H 	0.84820 0.39150 0.49890 0.08300
C 	C 	0.79190 0.43140 0.47210 -0.35600
C 	C 	0.79210 0.46030 0.48550 0.41800
C 	C 	0.75720 0.46960 0.51330 -0.50700
H 	H 	0.76080 0.48720 0.53030 0.17500
C 	C 	0.71910 0.45450 0.51650 0.46000
C 	C 	0.71930 0.42640 0.50400 -0.54600
H 	H 	0.69450 0.41450 0.51110 0.18300
C 	C 	0.75340 0.41330 0.48100 0.44100
C 	C 	0.74990 0.38260 0.46460 -0.80200
H 	H 	0.77700 0.37720 0.44920 0.24500
H 	H 	0.74520 0.36910 0.48940 0.24000
H 	H 	0.72500 0.38120 0.44420 0.22900
C 	C 	0.83030 0.48120 0.48010 -0.74400
H 	H 	0.82260 0.50070 0.49220 0.22800
H 	H 	0.85590 0.47320 0.49570 0.21800
H 	H 	0.83730 0.48320 0.44870 0.22800
C 	C 	0.67580 0.46830 0.53870 -0.71300
H 	H 	0.68110 0.48920 0.54600 0.20000
H 	H 	0.65120 0.46690 0.51800 0.20700
H 	H 	0.66870 0.45720 0.56550 0.20200
C 	C 	0.89290 0.42180 0.33980 -0.36300
C 	C 	0.88330 0.40810 0.30000 0.42400
C 	C 	0.90290 0.41810 0.26140 -0.48700
H 	H 	0.89630 0.40870 0.23420 0.16700
C 	C 	0.93210 0.44180 0.26270 0.39300
C 	C 	0.94170 0.45550 0.30250 -0.48000
H 	H 	0.96170 0.47180 0.30340 0.15400
C 	C 	0.92210 0.44550 0.34100 0.43800
C 	C 	0.85520 0.38150 0.30150 -0.76400
H 	H 	0.86190 0.36870 0.27630 0.22100
H 	H 	0.82430 0.38750 0.30030 0.22400
H 	H 	0.86070 0.37060 0.32890 0.22900
C 	C 	0.93260 0.46240 0.38090 -0.80000
H 	H 	0.94420 0.44750 0.39840 0.26300
H 	H 	0.95380 0.47880 0.37530 0.20800
H 	H 	0.90630 0.47200 0.39540 0.22200
C 	C 	0.95290 0.45090 0.21760 -0.66400
H 	H 	0.97290 0.46780 0.22210 0.18300
H 	H 	0.96930 0.43410 0.20550 0.19000
H 	H 	0.92960 0.45670 0.19710 0.18800
C 	C 	0.79500 0.47030 0.37740 -0.20100
Cu	Cu	0.74870 0.99988 0.86646 0.85300
N 	N 	0.51640 0.79700 0.68840 -0.05900
N 	N 	0.66810 0.96030 0.84440 -0.06200
N 	N 	0.77290 0.03880 0.78540 -0.05500
N 	N 	0.93110 0.20070 0.63570 -0.06100
C 	C 	0.50760 0.77900 0.66540 -0.19300
C 	C 	0.53610 0.82110 0.71300 -0.10200
C 	C 	0.57870 0.83030 0.69910 0.17400
C 	C 	0.59740 0.85300 0.72010 -0.23400
H 	H 	0.62580 0.85940 0.71100 0.09500
C 	C 	0.57740 0.86760 0.75410 0.09600
C 	C 	0.53470 0.85890 0.76670 -0.20700
H 	H 	0.52000 0.86990 0.78900 0.08600
C 	C 	0.51410 0.83550 0.74800 0.14600
C 	C 	0.47130 0.82420 0.76550 -0.27400
C 	C 	0.47340 0.80190 0.79960 0.28600
C 	C 	0.43140 0.79280 0.81990 -0.38500
H 	H 	0.43140 0.77870 0.84310 0.13200
C 	C 	0.39370 0.80420 0.80600 0.30700
C 	C 	0.39160 0.82850 0.77530 -0.35400
H 	H 	0.36470 0.83760 0.76710 0.11200
C 	C 	0.43430 0.83810 0.75750 0.28900
C 	C 	0.42980 0.86550 0.72840 -0.59700
H 	H 	0.39890 0.87180 0.72760 0.17300
H 	H 	0.43960 0.86070 0.69850 0.17300
H 	H 	0.44780 0.88160 0.74020 0.17700
C 	C 	0.51680 0.78930 0.81470 -0.62100
H 	H 	0.51170 0.77460 0.83790 0.17800
H 	H 	0.53530 0.80530 0.82610 0.19400
H 	H 	0.53160 0.77970 0.78980 0.18400
C 	C 	0.34840 0.79410 0.82460 -0.59700
H 	H 	0.32490 0.80520 0.81000 0.16600
H 	H 	0.34750 0.79790 0.85640 0.16800
H 	H 	0.34450 0.77280 0.81920 0.16300
C 	C 	0.60080 0.81550 0.66020 -0.36000
C 	C 	0.61040 0.83410 0.62240 0.40700
C 	C 	0.63490 0.82190 0.58850 -0.54600
H 	H 	0.64420 0.83440 0.56510 0.18300
C 	C 	0.64660 0.79110 0.58730 0.58500
C 	C 	0.64050 0.77640 0.62440 -0.61000
H 	H 	0.65130 0.75670 0.62610 0.22200
C 	C 	0.61870 0.78820 0.66170 0.44800
C 	C 	0.61280 0.76800 0.70210 -0.74900
H 	H 	0.62810 0.74910 0.69720 0.23100
H 	H 	0.58140 0.76420 0.70680 0.23400
H 	H 	0.62510 0.77780 0.72810 0.22400
C 	C 	0.66480 0.77790 0.54770 -0.95700
H 	H 	0.66630 0.79300 0.52450 0.27100
H 	H 	0.64600 0.76150 0.53810 0.28500
H 	H 	0.69440 0.77040 0.55390 0.26400
C 	C 	0.59490 0.86610 0.61990 -0.74100
H 	H 	0.57820 0.87100 0.64650 0.23000
H 	H 	0.57620 0.86870 0.59400 0.21400
H 	H 	0.62040 0.87930 0.61760 0.22600
C 	C 	0.59910 0.89300 0.77760 0.00700
C 	C 	0.63760 0.90570 0.76010 -0.16100
H 	H 	0.64820 0.89920 0.73240 0.07000
C 	C 	0.65990 0.92730 0.78300 0.12300
C 	C 	0.64350 0.93840 0.82210 -0.08200
C 	C 	0.60460 0.92690 0.84080 0.11400
C 	C 	0.58470 0.90400 0.81820 -0.09100
C 	C 	0.58760 0.93680 0.88420 -0.33600
C 	C 	0.60860 0.92890 0.92130 0.37900
C 	C 	0.59310 0.93610 0.96320 -0.51500
H 	H 	0.60960 0.93070 0.98850 0.16200
C 	C 	0.55660 0.95000 0.96720 0.41600
C 	C 	0.53320 0.95810 0.92970 -0.46300
H 	H 	0.50690 0.96920 0.93350 0.15800
C 	C 	0.54650 0.95060 0.88520 0.41600
C 	C 	0.51980 0.95740 0.84780 -0.79800
H 	H 	0.49260 0.96710 0.85750 0.23000
H 	H 	0.51270 0.93910 0.83200 0.24400
H 	H 	0.53590 0.97090 0.82820 0.22300
C 	C 	0.65250 0.91020 0.91910 -0.64900
H 	H 	0.66320 0.90650 0.94900 0.18800
H 	H 	0.67470 0.92140 0.90260 0.20700
H 	H 	0.64680 0.89120 0.90430 0.19300
C 	C 	0.53960 0.96000 0.01410 -0.65800
H 	H 	0.51140 0.97030 0.01100 0.19400
H 	H 	0.56110 0.97350 0.02750 0.18800
H 	H 	0.53590 0.94250 0.03290 0.19300
C 	C 	0.70000 0.96110 0.73070 0.33800
C 	C 	0.73880 0.97330 0.71460 -0.42400
H 	H 	0.73780 0.98760 0.69160 0.16200
C 	C 	0.77890 0.96470 0.73220 0.38800
C 	C 	0.78040 0.94380 0.76580 -0.46900
H 	H 	0.80780 0.93780 0.77790 0.18000
C 	C 	0.74160 0.93150 0.78190 0.40000
C 	C 	0.70150 0.94020 0.76440 -0.30600
C 	C 	0.65580 0.97070 0.70890 -0.62400
H 	H 	0.63130 0.96050 0.72340 0.19100
H 	H 	0.65620 0.96550 0.67760 0.18700
H 	H 	0.65200 0.99230 0.71210 0.18900
C 	C 	0.82100 0.97890 0.71150 -0.64800
H 	H 	0.81240 0.99300 0.68840 0.18300
H 	H 	0.83950 0.96330 0.69870 0.19000
H 	H 	0.83760 0.98940 0.73440 0.19800
C 	C 	0.74270 0.91040 0.81910 -0.74000
H 	H 	0.71260 0.90400 0.82610 0.22900
H 	H 	0.75570 0.92010 0.84490 0.23200
H 	H 	0.76030 0.89300 0.81100 0.21200
C 	C 	0.69550 0.97620 0.85580 -0.19200
C 	C 	0.76200 0.02260 0.81350 -0.19100
C 	C 	0.79430 0.06170 0.76200 -0.11400
C 	C 	0.83500 0.07110 0.78020 0.18100
C 	C 	0.85620 0.09320 0.75690 -0.20600
H 	H 	0.88360 0.10010 0.76780 0.08000
C 	C 	0.84020 0.10590 0.71870 0.05600
C 	C 	0.80010 0.09510 0.70110 -0.19600
H 	H 	0.78830 0.10320 0.67480 0.07700
C 	C 	0.77840 0.07250 0.72290 0.16000
C 	C 	0.73490 0.06200 0.70410 -0.34900
C 	C 	0.73080 0.04810 0.66510 0.40700
C 	C 	0.68960 0.03920 0.64900 -0.50200
H 	H 	0.68780 0.02740 0.62310 0.17200
C 	C 	0.65180 0.04750 0.67050 0.48600
C 	C 	0.65520 0.06370 0.70840 -0.58200
H 	H 	0.62900 0.06950 0.72310 0.19000
C 	C 	0.69410 0.07170 0.72590 0.47400
C 	C 	0.69610 0.09150 0.76430 -0.83400
H 	H 	0.72690 0.09490 0.77240 0.25500
H 	H 	0.68060 0.08230 0.78900 0.25500
H 	H 	0.68220 0.11050 0.75700 0.23900
C 	C 	0.77240 0.04000 0.64020 -0.71000
H 	H 	0.76450 0.03010 0.61260 0.20800
H 	H 	0.79030 0.02660 0.65810 0.20600
H 	H 	0.78910 0.05810 0.63370 0.21500
C 	C 	0.61270 0.03860 0.64260 -0.78100
H 	H 	0.62290 0.02690 0.61740 0.22400
H 	H 	0.59770 0.05650 0.63200 0.22400
H 	H 	0.59230 0.02680 0.66030 0.21700
C 	C 	0.85470 0.05960 0.82290 -0.44100
C 	C 	0.83420 0.06780 0.86040 0.49800
C 	C 	0.79450 0.08900 0.86240 -0.78300
H 	H 	0.78540 0.09160 0.89310 0.23500
H 	H 	0.77010 0.08050 0.84550 0.24200
H 	H 	0.80270 0.10830 0.84990 0.23200
C 	C 	0.85310 0.05850 0.90010 -0.63900
H 	H 	0.83920 0.06350 0.92710 0.22400
C 	C 	0.89340 0.04150 0.90110 0.77100
C 	C 	0.90480 0.03220 0.86470 -0.78000
H 	H 	0.92410 0.01560 0.86450 0.25800
C 	C 	0.89210 0.04380 0.82280 0.53300
C 	C 	0.91450 0.03420 0.77940 -0.80700
H 	H 	0.94120 0.02290 0.78610 0.23300
H 	H 	0.92210 0.05180 0.76220 0.24200
H 	H 	0.89430 0.02170 0.76250 0.24400
C 	C 	0.91830 0.03320 0.93970 -1.13700
H 	H 	0.90510 0.04230 0.96580 0.32500
H 	H 	0.94870 0.04010 0.93650 0.31900
H 	H 	0.91810 0.01150 0.94290 0.31500
C 	C 	0.86330 0.13000 0.69520 0.07500
C 	C 	0.85560 0.13860 0.65510 -0.21800
H 	H 	0.83350 0.12800 0.63940 0.08100
C 	C 	0.87620 0.16120 0.63310 0.16200
C 	C 	0.91040 0.17650 0.65500 -0.10700
C 	C 	0.92160 0.16820 0.69780 0.16200
C 	C 	0.89650 0.14590 0.71880 -0.20200
H 	H 	0.90180 0.14150 0.74890 0.08300
C 	C 	0.95810 0.18140 0.72210 -0.35600
C 	C 	0.95790 0.21030 0.73550 0.41800
C 	C 	0.99280 0.21960 0.76330 -0.50700
H 	H 	0.98920 0.23720 0.78030 0.17600
C 	C 	0.03090 0.20450 0.76650 0.46000
C 	C 	0.03070 0.17640 0.75400 -0.54600
H 	H 	0.05550 0.16450 0.76110 0.18300
C 	C 	0.99660 0.16330 0.73100 0.44100
C 	C 	0.00010 0.13260 0.71460 -0.80200
H 	H 	0.97300 0.12720 0.69920 0.24500
H 	H 	0.00480 0.11910 0.73940 0.24000
H 	H 	0.02500 0.13120 0.69420 0.22900
C 	C 	0.91970 0.23120 0.73010 -0.74400
H 	H 	0.92740 0.25070 0.74220 0.22800
H 	H 	0.89410 0.22320 0.74570 0.21800
H 	H 	0.91270 0.23320 0.69870 0.22800
C 	C 	0.07420 0.21830 0.78870 -0.71300
H 	H 	0.06890 0.23920 0.79600 0.20000
H 	H 	0.09880 0.21690 0.76800 0.20600
H 	H 	0.08130 0.20720 0.81550 0.20200
C 	C 	0.85710 0.17180 0.58980 -0.36300
C 	C 	0.86670 0.15810 0.55000 0.42400
C 	C 	0.84710 0.16810 0.51140 -0.48600
H 	H 	0.85370 0.15870 0.48420 0.16700
C 	C 	0.81790 0.19180 0.51270 0.39200
C 	C 	0.80830 0.20550 0.55250 -0.48000
H 	H 	0.78830 0.22180 0.55340 0.15300
C 	C 	0.82790 0.19550 0.59100 0.43700
C 	C 	0.89480 0.13150 0.55150 -0.76300
H 	H 	0.88810 0.11870 0.52630 0.22100
H 	H 	0.92570 0.13750 0.55030 0.22400
H 	H 	0.88930 0.12060 0.57890 0.22900
C 	C 	0.81740 0.21240 0.63090 -0.80000
H 	H 	0.80580 0.19750 0.64840 0.26300
H 	H 	0.79620 0.22880 0.62530 0.20800
H 	H 	0.84370 0.22200 0.64540 0.22200
C 	C 	0.79710 0.20090 0.46760 -0.66300
H 	H 	0.77710 0.21780 0.47210 0.18200
H 	H 	0.78070 0.18410 0.45550 0.18900
H 	H 	0.82040 0.20670 0.44710 0.18700
C 	C 	0.95500 0.22030 0.62740 -0.20100
Cu	Cu	0.74870 0.49988 0.36646 0.85300
N 	N 	0.51640 0.29700 0.18840 -0.05900
N 	N 	0.66810 0.46030 0.34440 -0.06200
N 	N 	0.77290 0.53880 0.28540 -0.05500
N 	N 	0.93110 0.70070 0.13570 -0.06100
C 	C 	0.50760 0.27900 0.16540 -0.19300
C 	C 	0.53610 0.32110 0.21300 -0.10300
C 	C 	0.57870 0.33030 0.19910 0.17600
C 	C 	0.59740 0.35300 0.22010 -0.23500
H 	H 	0.62580 0.35940 0.21100 0.09500
C 	C 	0.57740 0.36760 0.25410 0.09600
C 	C 	0.53470 0.35890 0.26670 -0.20700
H 	H 	0.52000 0.36990 0.28900 0.08600
C 	C 	0.51410 0.33550 0.24800 0.14600
C 	C 	0.47130 0.32420 0.26550 -0.27400
C 	C 	0.47340 0.30190 0.29960 0.28600
C 	C 	0.43140 0.29280 0.31990 -0.38500
H 	H 	0.43140 0.27870 0.34310 0.13100
C 	C 	0.39370 0.30420 0.30600 0.30600
C 	C 	0.39160 0.32850 0.27530 -0.35400
H 	H 	0.36470 0.33760 0.26710 0.11200
C 	C 	0.43430 0.33810 0.25750 0.28900
C 	C 	0.42980 0.36550 0.22840 -0.59800
H 	H 	0.39890 0.37180 0.22760 0.17300
H 	H 	0.43960 0.36070 0.19850 0.17400
H 	H 	0.44780 0.38160 0.24020 0.17700
C 	C 	0.51680 0.28930 0.31470 -0.62000
H 	H 	0.51170 0.27460 0.33790 0.17700
H 	H 	0.53530 0.30530 0.32610 0.19400
H 	H 	0.53160 0.27970 0.28980 0.18300
C 	C 	0.34840 0.29410 0.32460 -0.59800
H 	H 	0.32490 0.30520 0.31000 0.16600
H 	H 	0.34750 0.29790 0.35640 0.16900
H 	H 	0.34450 0.27280 0.31920 0.16300
C 	C 	0.60080 0.31550 0.16020 -0.36400
C 	C 	0.61040 0.33410 0.12240 0.41400
C 	C 	0.63490 0.32190 0.08850 -0.55300
H 	H 	0.64420 0.33440 0.06510 0.18900
C 	C 	0.64660 0.29110 0.08730 0.59900
C 	C 	0.64050 0.27640 0.12440 -0.61900
H 	H 	0.65130 0.25670 0.12610 0.22500
C 	C 	0.61870 0.28820 0.16170 0.45300
C 	C 	0.61280 0.26800 0.20210 -0.75300
H 	H 	0.62810 0.24910 0.19720 0.23200
H 	H 	0.58140 0.26420 0.20680 0.23600
H 	H 	0.62510 0.27780 0.22810 0.22500
C 	C 	0.66480 0.27790 0.04770 -0.98000
H 	H 	0.66630 0.29300 0.02450 0.28400
H 	H 	0.64600 0.26150 0.03810 0.29700
H 	H 	0.69440 0.27040 0.05390 0.27200
C 	C 	0.59490 0.36610 0.11990 -0.74700
H 	H 	0.57820 0.37100 0.14650 0.23100
H 	H 	0.57620 0.36870 0.09400 0.21700
H 	H 	0.62040 0.37930 0.11760 0.22800
C 	C 	0.59910 0.39300 0.27760 0.00700
C 	C 	0.63760 0.40570 0.26010 -0.16200
H 	H 	0.64820 0.39920 0.23240 0.07000
C 	C 	0.65990 0.42730 0.28300 0.12400
C 	C 	0.64350 0.43840 0.32210 -0.08400
C 	C 	0.60460 0.42690 0.34080 0.11900
C 	C 	0.58470 0.40400 0.31820 -0.09300
C 	C 	0.58760 0.43680 0.38420 -0.34900
C 	C 	0.60860 0.42890 0.42130 0.39900
C 	C 	0.59310 0.43610 0.46320 -0.54400
H 	H 	0.60960 0.43070 0.48850 0.17900
C 	C 	0.55660 0.45000 0.46720 0.45700
C 	C 	0.53320 0.45810 0.42970 -0.48600
H 	H 	0.50690 0.46920 0.43350 0.16800
C 	C 	0.54650 0.45060 0.38520 0.43300
C 	C 	0.51980 0.45740 0.34780 -0.81500
H 	H 	0.49260 0.46710 0.35750 0.23500
H 	H 	0.51270 0.43910 0.33200 0.24900
H 	H 	0.53590 0.47090 0.32820 0.22800
C 	C 	0.65250 0.41020 0.41910 -0.66700
H 	H 	0.66320 0.40650 0.44900 0.19600
H 	H 	0.67470 0.42140 0.40260 0.21300
H 	H 	0.64680 0.39120 0.40430 0.19800
C 	C 	0.53960 0.46000 0.51410 -0.70400
H 	H 	0.51140 0.47030 0.51100 0.20000
H 	H 	0.56110 0.47350 0.52750 0.19500
H 	H 	0.53590 0.44250 0.53290 0.20200
C 	C 	0.70000 0.46110 0.23070 0.33800
C 	C 	0.73880 0.47330 0.21460 -0.42400
H 	H 	0.73780 0.48760 0.19160 0.16200
C 	C 	0.77890 0.46470 0.23220 0.38800
C 	C 	0.78040 0.44380 0.26580 -0.46900
H 	H 	0.80780 0.43780 0.27790 0.18000
C 	C 	0.74160 0.43150 0.28190 0.40000
C 	C 	0.70150 0.44020 0.26440 -0.30700
C 	C 	0.65580 0.47070 0.20890 -0.62400
H 	H 	0.63130 0.46050 0.22340 0.19100
H 	H 	0.65620 0.46550 0.17760 0.18700
H 	H 	0.65200 0.49230 0.21210 0.18900
C 	C 	0.82100 0.47890 0.21150 -0.64800
H 	H 	0.81240 0.49300 0.18840 0.18400
H 	H 	0.83950 0.46330 0.19870 0.19100
H 	H 	0.83760 0.48940 0.23440 0.19800
C 	C 	0.74270 0.41040 0.31910 -0.74000
H 	H 	0.71260 0.40400 0.32610 0.22900
H 	H 	0.75570 0.42010 0.34490 0.23100
H 	H 	0.76030 0.39300 0.31100 0.21200
C 	C 	0.69550 0.47620 0.35580 -0.19200
C 	C 	0.76200 0.52260 0.31350 -0.19100
C 	C 	0.79430 0.56170 0.26200 -0.11500
C 	C 	0.83500 0.57110 0.28020 0.18300
C 	C 	0.85620 0.59320 0.25690 -0.20700
H 	H 	0.88360 0.60010 0.26780 0.08000
C 	C 	0.84020 0.60590 0.21870 0.05700
C 	C 	0.80010 0.59510 0.20110 -0.19700
H 	H 	0.78830 0.60320 0.17480 0.07800
C 	C 	0.77840 0.57250 0.22290 0.16100
C 	C 	0.73490 0.56200 0.20410 -0.35100
C 	C 	0.73080 0.54810 0.16510 0.41000
C 	C 	0.68960 0.53920 0.14900 -0.50500
H 	H 	0.68780 0.52740 0.12310 0.17400
C 	C 	0.65180 0.54750 0.17050 0.49000
C 	C 	0.65520 0.56370 0.20840 -0.58500
H 	H 	0.62900 0.56950 0.22310 0.19100
C 	C 	0.69410 0.57170 0.22590 0.47700
C 	C 	0.69610 0.59150 0.26430 -0.83700
H 	H 	0.72690 0.59490 0.27240 0.25500
H 	H 	0.68060 0.58230 0.28900 0.25500
H 	H 	0.68220 0.61050 0.25700 0.24000
C 	C 	0.77240 0.54000 0.14020 -0.71400
H 	H 	0.76450 0.53010 0.11260 0.21100
H 	H 	0.79030 0.52660 0.15810 0.20800
H 	H 	0.78910 0.55810 0.13370 0.21700
C 	C 	0.61270 0.53860 0.14260 -0.78800
H 	H 	0.62290 0.52690 0.11740 0.22900
H 	H 	0.59770 0.55650 0.13200 0.22800
H 	H 	0.59230 0.52680 0.16030 0.22000
C 	C 	0.85470 0.55960 0.32290 -0.44600
C 	C 	0.83420 0.56780 0.36040 0.50400
C 	C 	0.79450 0.58900 0.36240 -0.79000
H 	H 	0.78540 0.59160 0.39310 0.23800
H 	H 	0.77010 0.58050 0.34550 0.24400
H 	H 	0.80270 0.60830 0.34990 0.23400
C 	C 	0.85310 0.55850 0.40010 -0.64700
H 	H 	0.83920 0.56350 0.42710 0.22900
C 	C 	0.89340 0.54150 0.40110 0.78400
C 	C 	0.90480 0.53220 0.36470 -0.79100
H 	H 	0.92410 0.51560 0.36450 0.26100
C 	C 	0.89210 0.54380 0.32280 0.54000
C 	C 	0.91450 0.53420 0.27940 -0.81300
H 	H 	0.94120 0.52290 0.28610 0.23400
H 	H 	0.92210 0.55180 0.26220 0.24400
H 	H 	0.89430 0.52170 0.26250 0.24500
C 	C 	0.91830 0.53320 0.43970 -1.15800
H 	H 	0.90510 0.54230 0.46580 0.33600
H 	H 	0.94870 0.54010 0.43650 0.32700
H 	H 	0.91810 0.51150 0.44290 0.32200
C 	C 	0.86330 0.63000 0.19520 0.07500
C 	C 	0.85560 0.63860 0.15510 -0.21700
H 	H 	0.83350 0.62800 0.13940 0.08100
C 	C 	0.87620 0.66120 0.13310 0.16000
C 	C 	0.91040 0.67650 0.15500 -0.10600
C 	C 	0.92160 0.66820 0.19780 0.16100
C 	C 	0.89650 0.64590 0.21880 -0.20200
H 	H 	0.90180 0.64150 0.24890 0.08300
C 	C 	0.95810 0.68140 0.22210 -0.35600
C 	C 	0.95790 0.71030 0.23550 0.41800
C 	C 	0.99280 0.71960 0.26330 -0.50700
H 	H 	0.98920 0.73720 0.28030 0.17500
C 	C 	0.03090 0.70450 0.26650 0.46000
C 	C 	0.03070 0.67640 0.25400 -0.54600
H 	H 	0.05550 0.66450 0.26110 0.18300
C 	C 	0.99660 0.66330 0.23100 0.44100
C 	C 	0.00010 0.63260 0.21460 -0.80300
H 	H 	0.97300 0.62720 0.19920 0.24600
H 	H 	0.00480 0.61910 0.23940 0.24000
H 	H 	0.02500 0.63120 0.19420 0.23000
C 	C 	0.91970 0.73120 0.23010 -0.74400
H 	H 	0.92740 0.75070 0.24220 0.22800
H 	H 	0.89410 0.72320 0.24570 0.21700
H 	H 	0.91270 0.73320 0.19870 0.22800
C 	C 	0.07420 0.71830 0.28870 -0.71300
H 	H 	0.06890 0.73920 0.29600 0.20000
H 	H 	0.09880 0.71690 0.26800 0.20700
H 	H 	0.08130 0.70720 0.31550 0.20200
C 	C 	0.85710 0.67180 0.08980 -0.35800
C 	C 	0.86670 0.65810 0.05000 0.41500
C 	C 	0.84710 0.66810 0.01140 -0.45100
H 	H 	0.85370 0.65870 0.98420 0.14400
C 	C 	0.81790 0.69180 0.01270 0.40300
C 	C 	0.80830 0.70550 0.05250 -0.48100
H 	H 	0.78830 0.72180 0.05340 0.15600
C 	C 	0.82790 0.69550 0.09100 0.43700
C 	C 	0.89480 0.63150 0.05150 -0.76000
H 	H 	0.88810 0.61870 0.02630 0.22700
H 	H 	0.92570 0.63750 0.05030 0.22600
H 	H 	0.88930 0.62060 0.07890 0.23000
C 	C 	0.81740 0.71240 0.13090 -0.79900
H 	H 	0.80580 0.69750 0.14840 0.26300
H 	H 	0.79620 0.72880 0.12530 0.20800
H 	H 	0.84370 0.72200 0.14540 0.22200
C 	C 	0.79710 0.70090 0.96760 -0.68500
H 	H 	0.77710 0.71780 0.97210 0.18200
H 	H 	0.78070 0.68410 0.95550 0.19200
H 	H 	0.82040 0.70670 0.94710 0.19100
C 	C 	0.95500 0.72030 0.12740 -0.20000
Cu	Cu	0.24870 0.99988 0.36646 0.85300
N 	N 	0.01640 0.79700 0.18840 -0.05900
N 	N 	0.16810 0.96030 0.34440 -0.06200
N 	N 	0.27290 0.03880 0.28540 -0.05500
N 	N 	0.43110 0.20070 0.13570 -0.06100
C 	C 	0.00760 0.77900 0.16540 -0.19300
C 	C 	0.03610 0.82110 0.21300 -0.10300
C 	C 	0.07870 0.83030 0.19910 0.17600
C 	C 	0.09740 0.85300 0.22010 -0.23500
H 	H 	0.12580 0.85940 0.21100 0.09500
C 	C 	0.07740 0.86760 0.25410 0.09600
C 	C 	0.03470 0.85890 0.26670 -0.20700
H 	H 	0.02000 0.86990 0.28900 0.08600
C 	C 	0.01410 0.83550 0.24800 0.14600
C 	C 	0.97130 0.82420 0.26550 -0.27400
C 	C 	0.97340 0.80190 0.29960 0.28600
C 	C 	0.93140 0.79280 0.31990 -0.38500
H 	H 	0.93140 0.77870 0.34310 0.13100
C 	C 	0.89370 0.80420 0.30600 0.30600
C 	C 	0.89160 0.82850 0.27530 -0.35400
H 	H 	0.86470 0.83760 0.26710 0.11200
C 	C 	0.93430 0.83810 0.25750 0.28900
C 	C 	0.92980 0.86550 0.22840 -0.59800
H 	H 	0.89890 0.87180 0.22760 0.17300
H 	H 	0.93960 0.86070 0.19850 0.17400
H 	H 	0.94780 0.88160 0.24020 0.17700
C 	C 	0.01680 0.78930 0.31470 -0.62000
H 	H 	0.01170 0.77460 0.33790 0.17700
H 	H 	0.03530 0.80530 0.32610 0.19400
H 	H 	0.03160 0.77970 0.28980 0.18300
C 	C 	0.84840 0.79410 0.32460 -0.59800
H 	H 	0.82490 0.80520 0.31000 0.16600
H 	H 	0.84750 0.79790 0.35640 0.16900
H 	H 	0.84450 0.77280 0.31920 0.16300
C 	C 	0.10080 0.81550 0.16020 -0.36400
C 	C 	0.11040 0.83410 0.12240 0.41400
C 	C 	0.13490 0.82190 0.08850 -0.55300
H 	H 	0.14420 0.83440 0.06510 0.18900
C 	C 	0.14660 0.79110 0.08730 0.59900
C 	C 	0.14050 0.77640 0.12440 -0.61900
H 	H 	0.15130 0.75670 0.12610 0.22500
C 	C 	0.11870 0.78820 0.16170 0.45300
C 	C 	0.11280 0.76800 0.20210 -0.75300
H 	H 	0.12810 0.74910 0.19720 0.23200
H 	H 	0.08140 0.76420 0.20680 0.23600
H 	H 	0.12510 0.77780 0.22810 0.22500
C 	C 	0.16480 0.77790 0.04770 -0.98000
H 	H 	0.16630 0.79300 0.02450 0.28400
H 	H 	0.14600 0.76150 0.03810 0.29700
H 	H 	0.19440 0.77040 0.05390 0.27200
C 	C 	0.09490 0.86610 0.11990 -0.74700
H 	H 	0.07820 0.87100 0.14650 0.23100
H 	H 	0.07620 0.86870 0.09400 0.21700
H 	H 	0.12040 0.87930 0.11760 0.22800
C 	C 	0.09910 0.89300 0.27760 0.00700
C 	C 	0.13760 0.90570 0.26010 -0.16200
H 	H 	0.14820 0.89920 0.23240 0.07000
C 	C 	0.15990 0.92730 0.28300 0.12400
C 	C 	0.14350 0.93840 0.32210 -0.08400
C 	C 	0.10460 0.92690 0.34080 0.11900
C 	C 	0.08470 0.90400 0.31820 -0.09300
C 	C 	0.08760 0.93680 0.38420 -0.34900
C 	C 	0.10860 0.92890 0.42130 0.39900
C 	C 	0.09310 0.93610 0.46320 -0.54400
H 	H 	0.10960 0.93070 0.48850 0.17900
C 	C 	0.05660 0.95000 0.46720 0.45700
C 	C 	0.03320 0.95810 0.42970 -0.48600
H 	H 	0.00690 0.96920 0.43350 0.16800
C 	C 	0.04650 0.95060 0.38520 0.43300
C 	C 	0.01980 0.95740 0.34780 -0.81500
H 	H 	0.99260 0.96710 0.35750 0.23500
H 	H 	0.01270 0.93910 0.33200 0.24900
H 	H 	0.03590 0.97090 0.32820 0.22800
C 	C 	0.15250 0.91020 0.41910 -0.66700
H 	H 	0.16320 0.90650 0.44900 0.19600
H 	H 	0.17470 0.92140 0.40260 0.21300
H 	H 	0.14680 0.89120 0.40430 0.19800
C 	C 	0.03960 0.96000 0.51410 -0.70400
H 	H 	0.01140 0.97030 0.51100 0.20000
H 	H 	0.06110 0.97350 0.52750 0.19500
H 	H 	0.03590 0.94250 0.53290 0.20200
C 	C 	0.20000 0.96110 0.23070 0.33800
C 	C 	0.23880 0.97330 0.21460 -0.42400
H 	H 	0.23780 0.98760 0.19160 0.16200
C 	C 	0.27890 0.96470 0.23220 0.38800
C 	C 	0.28040 0.94380 0.26580 -0.46900
H 	H 	0.30780 0.93780 0.27790 0.18000
C 	C 	0.24160 0.93150 0.28190 0.40000
C 	C 	0.20150 0.94020 0.26440 -0.30700
C 	C 	0.15580 0.97070 0.20890 -0.62400
H 	H 	0.13130 0.96050 0.22340 0.19100
H 	H 	0.15620 0.96550 0.17760 0.18700
H 	H 	0.15200 0.99230 0.21210 0.18900
C 	C 	0.32100 0.97890 0.21150 -0.64800
H 	H 	0.31240 0.99300 0.18840 0.18400
H 	H 	0.33950 0.96330 0.19870 0.19100
H 	H 	0.33760 0.98940 0.23440 0.19800
C 	C 	0.24270 0.91040 0.31910 -0.74000
H 	H 	0.21260 0.90400 0.32610 0.22900
H 	H 	0.25570 0.92010 0.34490 0.23100
H 	H 	0.26030 0.89300 0.31100 0.21200
C 	C 	0.19550 0.97620 0.35580 -0.19200
C 	C 	0.26200 0.02260 0.31350 -0.19100
C 	C 	0.29430 0.06170 0.26200 -0.11500
C 	C 	0.33500 0.07110 0.28020 0.18300
C 	C 	0.35620 0.09320 0.25690 -0.20700
H 	H 	0.38360 0.10010 0.26780 0.08000
C 	C 	0.34020 0.10590 0.21870 0.05800
C 	C 	0.30010 0.09510 0.20110 -0.19700
H 	H 	0.28830 0.10320 0.17480 0.07800
C 	C 	0.27840 0.07250 0.22290 0.16100
C 	C 	0.23490 0.06200 0.20410 -0.35100
C 	C 	0.23080 0.04810 0.16510 0.41100
C 	C 	0.18960 0.03920 0.14900 -0.50500
H 	H 	0.18780 0.02740 0.12310 0.17400
C 	C 	0.15180 0.04750 0.17050 0.49000
C 	C 	0.15520 0.06370 0.20840 -0.58500
H 	H 	0.12900 0.06950 0.22310 0.19100
C 	C 	0.19410 0.07170 0.22590 0.47700
C 	C 	0.19610 0.09150 0.26430 -0.83700
H 	H 	0.22690 0.09490 0.27240 0.25500
H 	H 	0.18060 0.08230 0.28900 0.25500
H 	H 	0.18220 0.11050 0.25700 0.24000
C 	C 	0.27240 0.04000 0.14020 -0.71400
H 	H 	0.26450 0.03010 0.11260 0.21100
H 	H 	0.29030 0.02660 0.15810 0.20800
H 	H 	0.28910 0.05810 0.13370 0.21700
C 	C 	0.11270 0.03860 0.14260 -0.78800
H 	H 	0.12290 0.02690 0.11740 0.22900
H 	H 	0.09770 0.05650 0.13200 0.22800
H 	H 	0.09230 0.02680 0.16030 0.22000
C 	C 	0.35470 0.05960 0.32290 -0.44600
C 	C 	0.33420 0.06780 0.36040 0.50400
C 	C 	0.29450 0.08900 0.36240 -0.79000
H 	H 	0.28540 0.09160 0.39310 0.23800
H 	H 	0.27010 0.08050 0.34550 0.24400
H 	H 	0.30270 0.10830 0.34990 0.23400
C 	C 	0.35310 0.05850 0.40010 -0.64700
H 	H 	0.33920 0.06350 0.42710 0.22900
C 	C 	0.39340 0.04150 0.40110 0.78400
C 	C 	0.40480 0.03220 0.36470 -0.79100
H 	H 	0.42410 0.01560 0.36450 0.26100
C 	C 	0.39210 0.04380 0.32280 0.54000
C 	C 	0.41450 0.03420 0.27940 -0.81300
H 	H 	0.44120 0.02290 0.28610 0.23400
H 	H 	0.42210 0.05180 0.26220 0.24400
H 	H 	0.39430 0.02170 0.26250 0.24600
C 	C 	0.41830 0.03320 0.43970 -1.15800
H 	H 	0.40510 0.04230 0.46580 0.33600
H 	H 	0.44870 0.04010 0.43650 0.32700
H 	H 	0.41810 0.01150 0.44290 0.32200
C 	C 	0.36330 0.13000 0.19520 0.07500
C 	C 	0.35560 0.13860 0.15510 -0.21700
H 	H 	0.33350 0.12800 0.13940 0.08100
C 	C 	0.37620 0.16120 0.13310 0.16000
C 	C 	0.41040 0.17650 0.15500 -0.10600
C 	C 	0.42160 0.16820 0.19780 0.16100
C 	C 	0.39650 0.14590 0.21880 -0.20200
H 	H 	0.40180 0.14150 0.24890 0.08300
C 	C 	0.45810 0.18140 0.22210 -0.35600
C 	C 	0.45790 0.21030 0.23550 0.41800
C 	C 	0.49280 0.21960 0.26330 -0.50700
H 	H 	0.48920 0.23720 0.28030 0.17500
C 	C 	0.53090 0.20450 0.26650 0.46000
C 	C 	0.53070 0.17640 0.25400 -0.54600
H 	H 	0.55550 0.16450 0.26110 0.18300
C 	C 	0.49660 0.16330 0.23100 0.44100
C 	C 	0.50010 0.13260 0.21460 -0.80300
H 	H 	0.47300 0.12720 0.19920 0.24600
H 	H 	0.50480 0.11910 0.23940 0.24000
H 	H 	0.52500 0.13120 0.19420 0.23000
C 	C 	0.41970 0.23120 0.23010 -0.74400
H 	H 	0.42740 0.25070 0.24220 0.22800
H 	H 	0.39410 0.22320 0.24570 0.21700
H 	H 	0.41270 0.23320 0.19870 0.22800
C 	C 	0.57420 0.21830 0.28870 -0.71300
H 	H 	0.56890 0.23920 0.29600 0.20000
H 	H 	0.59880 0.21690 0.26800 0.20700
H 	H 	0.58130 0.20720 0.31550 0.20200
C 	C 	0.35710 0.17180 0.08980 -0.35800
C 	C 	0.36670 0.15810 0.05000 0.41500
C 	C 	0.34710 0.16810 0.01140 -0.45100
H 	H 	0.35370 0.15870 0.98420 0.14400
C 	C 	0.31790 0.19180 0.01270 0.40300
C 	C 	0.30830 0.20550 0.05250 -0.48000
H 	H 	0.28830 0.22180 0.05340 0.15600
C 	C 	0.32790 0.19550 0.09100 0.43700
C 	C 	0.39480 0.13150 0.05150 -0.76000
H 	H 	0.38810 0.11870 0.02630 0.22700
H 	H 	0.42570 0.13750 0.05030 0.22600
H 	H 	0.38930 0.12060 0.07890 0.23000
C 	C 	0.31740 0.21240 0.13090 -0.79900
H 	H 	0.30580 0.19750 0.14840 0.26300
H 	H 	0.29620 0.22880 0.12530 0.20800
H 	H 	0.34370 0.22200 0.14540 0.22200
C 	C 	0.29710 0.20090 0.96760 -0.68500
H 	H 	0.27710 0.21780 0.97210 0.18200
H 	H 	0.28070 0.18410 0.95550 0.19200
H 	H 	0.32040 0.20670 0.94710 0.19100
C 	C 	0.45500 0.22030 0.12740 -0.20000
Cu	Cu	0.24870 0.49988 0.86646 0.85300
N 	N 	0.01640 0.29700 0.68840 -0.05900
N 	N 	0.16810 0.46030 0.84440 -0.06200
N 	N 	0.27290 0.53880 0.78540 -0.05500
N 	N 	0.43110 0.70070 0.63570 -0.06100
C 	C 	0.00760 0.27900 0.66540 -0.19300
C 	C 	0.03610 0.32110 0.71300 -0.10200
C 	C 	0.07870 0.33030 0.69910 0.17400
C 	C 	0.09740 0.35300 0.72010 -0.23400
H 	H 	0.12580 0.35940 0.71100 0.09500
C 	C 	0.07740 0.36760 0.75410 0.09600
C 	C 	0.03470 0.35890 0.76670 -0.20700
H 	H 	0.02000 0.36990 0.78900 0.08600
C 	C 	0.01410 0.33550 0.74800 0.14600
C 	C 	0.97130 0.32420 0.76550 -0.27400
C 	C 	0.97340 0.30190 0.79960 0.28600
C 	C 	0.93140 0.29280 0.81990 -0.38500
H 	H 	0.93140 0.27870 0.84310 0.13200
C 	C 	0.89370 0.30420 0.80600 0.30700
C 	C 	0.89160 0.32850 0.77530 -0.35400
H 	H 	0.86470 0.33760 0.76710 0.11200
C 	C 	0.93430 0.33810 0.75750 0.28900
C 	C 	0.92980 0.36550 0.72840 -0.59700
H 	H 	0.89890 0.37180 0.72760 0.17300
H 	H 	0.93960 0.36070 0.69850 0.17300
H 	H 	0.94780 0.38160 0.74020 0.17700
C 	C 	0.01680 0.28930 0.81470 -0.62100
H 	H 	0.01170 0.27460 0.83790 0.17800
H 	H 	0.03530 0.30530 0.82610 0.19400
H 	H 	0.03160 0.27970 0.78980 0.18400
C 	C 	0.84840 0.29410 0.82460 -0.59700
H 	H 	0.82490 0.30520 0.81000 0.16600
H 	H 	0.84750 0.29790 0.85640 0.16800
H 	H 	0.84450 0.27280 0.81920 0.16300
C 	C 	0.10080 0.31550 0.66020 -0.36000
C 	C 	0.11040 0.33410 0.62240 0.40700
C 	C 	0.13490 0.32190 0.58850 -0.54600
H 	H 	0.14420 0.33440 0.56510 0.18300
C 	C 	0.14660 0.29110 0.58730 0.58500
C 	C 	0.14050 0.27640 0.62440 -0.61000
H 	H 	0.15130 0.25670 0.62610 0.22200
C 	C 	0.11870 0.28820 0.66170 0.44800
C 	C 	0.11280 0.26800 0.70210 -0.74900
H 	H 	0.12810 0.24910 0.69720 0.23100
H 	H 	0.08140 0.26420 0.70680 0.23400
H 	H 	0.12510 0.27780 0.72810 0.22400
C 	C 	0.16480 0.27790 0.54770 -0.95700
H 	H 	0.16630 0.29300 0.52450 0.27100
H 	H 	0.14600 0.26150 0.53810 0.28500
H 	H 	0.19440 0.27040 0.55390 0.26400
C 	C 	0.09490 0.36610 0.61990 -0.74100
H 	H 	0.07820 0.37100 0.64650 0.23000
H 	H 	0.07620 0.36870 0.59400 0.21400
H 	H 	0.12040 0.37930 0.61760 0.22600
C 	C 	0.09910 0.39300 0.77760 0.00700
C 	C 	0.13760 0.40570 0.76010 -0.16100
H 	H 	0.14820 0.39920 0.73240 0.07000
C 	C 	0.15990 0.42730 0.78300 0.12300
C 	C 	0.14350 0.43840 0.82210 -0.08200
C 	C 	0.10460 0.42690 0.84080 0.11400
C 	C 	0.08470 0.40400 0.81820 -0.09100
C 	C 	0.08760 0.43680 0.88420 -0.33600
C 	C 	0.10860 0.42890 0.92130 0.37900
C 	C 	0.09310 0.43610 0.96320 -0.51500
H 	H 	0.10960 0.43070 0.98850 0.16200
C 	C 	0.05660 0.45000 0.96720 0.41600
C 	C 	0.03320 0.45810 0.92970 -0.46300
H 	H 	0.00690 0.46920 0.93350 0.15800
C 	C 	0.04650 0.45060 0.88520 0.41700
C 	C 	0.01980 0.45740 0.84780 -0.79800
H 	H 	0.99260 0.46710 0.85750 0.23000
H 	H 	0.01270 0.43910 0.83200 0.24400
H 	H 	0.03590 0.47090 0.82820 0.22400
C 	C 	0.15250 0.41020 0.91910 -0.64900
H 	H 	0.16320 0.40650 0.94900 0.18800
H 	H 	0.17470 0.42140 0.90260 0.20700
H 	H 	0.14680 0.39120 0.90430 0.19300
C 	C 	0.03960 0.46000 0.01410 -0.65800
H 	H 	0.01140 0.47030 0.01100 0.19400
H 	H 	0.06110 0.47350 0.02750 0.18800
H 	H 	0.03590 0.44250 0.03290 0.19300
C 	C 	0.20000 0.46110 0.73070 0.33800
C 	C 	0.23880 0.47330 0.71460 -0.42400
H 	H 	0.23780 0.48760 0.69160 0.16200
C 	C 	0.27890 0.46470 0.73220 0.38800
C 	C 	0.28040 0.44380 0.76580 -0.46900
H 	H 	0.30780 0.43780 0.77790 0.18000
C 	C 	0.24160 0.43150 0.78190 0.40000
C 	C 	0.20150 0.44020 0.76440 -0.30600
C 	C 	0.15580 0.47070 0.70890 -0.62400
H 	H 	0.13130 0.46050 0.72340 0.19100
H 	H 	0.15620 0.46550 0.67760 0.18700
H 	H 	0.15200 0.49230 0.71210 0.18900
C 	C 	0.32100 0.47890 0.71150 -0.64800
H 	H 	0.31240 0.49300 0.68840 0.18300
H 	H 	0.33950 0.46330 0.69870 0.19000
H 	H 	0.33760 0.48940 0.73440 0.19800
C 	C 	0.24270 0.41040 0.81910 -0.74000
H 	H 	0.21260 0.40400 0.82610 0.22900
H 	H 	0.25570 0.42010 0.84490 0.23200
H 	H 	0.26030 0.39300 0.81100 0.21200
C 	C 	0.19550 0.47620 0.85580 -0.19200
C 	C 	0.26200 0.52260 0.81350 -0.19100
C 	C 	0.29430 0.56170 0.76200 -0.11400
C 	C 	0.33500 0.57110 0.78020 0.18100
C 	C 	0.35620 0.59320 0.75690 -0.20600
H 	H 	0.38360 0.60010 0.76780 0.08000
C 	C 	0.34020 0.60590 0.71870 0.05600
C 	C 	0.30010 0.59510 0.70110 -0.19600
H 	H 	0.28830 0.60320 0.67480 0.07700
C 	C 	0.27840 0.57250 0.72290 0.16000
C 	C 	0.23490 0.56200 0.70410 -0.34900
C 	C 	0.23080 0.54810 0.66510 0.40700
C 	C 	0.18960 0.53920 0.64900 -0.50200
H 	H 	0.18780 0.52740 0.62310 0.17200
C 	C 	0.15180 0.54750 0.67050 0.48600
C 	C 	0.15520 0.56370 0.70840 -0.58200
H 	H 	0.12900 0.56950 0.72310 0.19000
C 	C 	0.19410 0.57170 0.72590 0.47400
C 	C 	0.19610 0.59150 0.76430 -0.83400
H 	H 	0.22690 0.59490 0.77240 0.25500
H 	H 	0.18060 0.58230 0.78900 0.25500
H 	H 	0.18220 0.61050 0.75700 0.23900
C 	C 	0.27240 0.54000 0.64020 -0.71000
H 	H 	0.26450 0.53010 0.61260 0.20800
H 	H 	0.29030 0.52660 0.65810 0.20600
H 	H 	0.28910 0.55810 0.63370 0.21500
C 	C 	0.11270 0.53860 0.64260 -0.78100
H 	H 	0.12290 0.52690 0.61740 0.22400
H 	H 	0.09770 0.55650 0.63200 0.22400
H 	H 	0.09230 0.52680 0.66030 0.21700
C 	C 	0.35470 0.55960 0.82290 -0.44100
C 	C 	0.33420 0.56780 0.86040 0.49700
C 	C 	0.29450 0.58900 0.86240 -0.78300
H 	H 	0.28540 0.59160 0.89310 0.23500
H 	H 	0.27010 0.58050 0.84550 0.24200
H 	H 	0.30270 0.60830 0.84990 0.23200
C 	C 	0.35310 0.55850 0.90010 -0.63900
H 	H 	0.33920 0.56350 0.92710 0.22400
C 	C 	0.39340 0.54150 0.90110 0.77100
C 	C 	0.40480 0.53220 0.86470 -0.78000
H 	H 	0.42410 0.51560 0.86450 0.25800
C 	C 	0.39210 0.54380 0.82280 0.53300
C 	C 	0.41450 0.53420 0.77940 -0.80700
H 	H 	0.44120 0.52290 0.78610 0.23300
H 	H 	0.42210 0.55180 0.76220 0.24200
H 	H 	0.39430 0.52170 0.76250 0.24400
C 	C 	0.41830 0.53320 0.93970 -1.13700
H 	H 	0.40510 0.54230 0.96580 0.32500
H 	H 	0.44870 0.54010 0.93650 0.31800
H 	H 	0.41810 0.51150 0.94290 0.31500
C 	C 	0.36330 0.63000 0.69520 0.07500
C 	C 	0.35560 0.63860 0.65510 -0.21800
H 	H 	0.33350 0.62800 0.63940 0.08100
C 	C 	0.37620 0.66120 0.63310 0.16200
C 	C 	0.41040 0.67650 0.65500 -0.10700
C 	C 	0.42160 0.66820 0.69780 0.16200
C 	C 	0.39650 0.64590 0.71880 -0.20200
H 	H 	0.40180 0.64150 0.74890 0.08300
C 	C 	0.45810 0.68140 0.72210 -0.35600
C 	C 	0.45790 0.71030 0.73550 0.41800
C 	C 	0.49280 0.71960 0.76330 -0.50700
H 	H 	0.48920 0.73720 0.78030 0.17600
C 	C 	0.53090 0.70450 0.76650 0.46000
C 	C 	0.53070 0.67640 0.75400 -0.54600
H 	H 	0.55550 0.66450 0.76110 0.18300
C 	C 	0.49660 0.66330 0.73100 0.44100
C 	C 	0.50010 0.63260 0.71460 -0.80200
H 	H 	0.47300 0.62720 0.69920 0.24500
H 	H 	0.50480 0.61910 0.73940 0.24000
H 	H 	0.52500 0.63120 0.69420 0.22900
C 	C 	0.41970 0.73120 0.73010 -0.74400
H 	H 	0.42740 0.75070 0.74220 0.22800
H 	H 	0.39410 0.72320 0.74570 0.21800
H 	H 	0.41270 0.73320 0.69870 0.22800
C 	C 	0.57420 0.71830 0.78870 -0.71300
H 	H 	0.56890 0.73920 0.79600 0.20000
H 	H 	0.59880 0.71690 0.76800 0.20600
H 	H 	0.58130 0.70720 0.81550 0.20200
C 	C 	0.35710 0.67180 0.58980 -0.36300
C 	C 	0.36670 0.65810 0.55000 0.42400
C 	C 	0.34710 0.66810 0.51140 -0.48600
H 	H 	0.35370 0.65870 0.48420 0.16700
C 	C 	0.31790 0.69180 0.51270 0.39200
C 	C 	0.30830 0.70550 0.55250 -0.48000
H 	H 	0.28830 0.72180 0.55340 0.15300
C 	C 	0.32790 0.69550 0.59100 0.43700
C 	C 	0.39480 0.63150 0.55150 -0.76300
H 	H 	0.38810 0.61870 0.52630 0.22100
H 	H 	0.42570 0.63750 0.55030 0.22400
H 	H 	0.38930 0.62060 0.57890 0.22900
C 	C 	0.31740 0.71240 0.63090 -0.80000
H 	H 	0.30580 0.69750 0.64840 0.26300
H 	H 	0.29620 0.72880 0.62530 0.20800
H 	H 	0.34370 0.72200 0.64540 0.22200
C 	C 	0.29710 0.70090 0.46760 -0.66300
H 	H 	0.27710 0.71780 0.47210 0.18200
H 	H 	0.28070 0.68410 0.45550 0.18900
H 	H 	0.32040 0.70670 0.44710 0.18700
C 	C 	0.45500 0.72030 0.62740 -0.20100
