data_crystal

_cell_length_a 10.28200
_cell_length_b 11.26100
_cell_length_c 12.17100
_cell_angle_alpha 92.57500
_cell_angle_beta  109.11400
_cell_angle_gamma 109.75200

_symmetry_space_group_name_	'P 1'
_symmetry_space_group_name_H-M	'P 1'

loop_
_symmetry_equiv_pos_as_xyz
  x,y,z

loop_
_atom_site_label
_atom_site_type_symbol
_atom_site_fract_x
_atom_site_fract_y
_atom_site_fract_z
_atom_site_charge
O 	O 	0.58960 0.68760 0.56220 -0.40700
O 	O 	0.69700 0.48320 0.51930 -0.96200
O 	O 	0.56550 0.46230 0.68210 -0.47700
C 	C 	0.71170 0.75240 0.64250 0.35200
Ni	Ni	0.79181 0.52637 0.70290 1.15300
H 	H 	0.72360 0.41930 0.52650 0.37900
H 	H 	0.73790 0.52780 0.47670 0.40300
C 	C 	0.74620 0.89340 0.67240 -0.04800
O 	O 	0.80840 0.71120 0.69810 -0.38700
O 	O 	0.86780 0.58130 0.88550 -0.93600
O 	O 	0.78480 0.34680 0.70030 -0.43200
O 	O 	0.00680 0.58550 0.70670 -0.39200
C 	C 	0.88790 0.97970 0.68960 -0.07500
C 	C 	0.64000 0.93960 0.68530 -0.01100
H 	H 	0.92360 0.64880 0.93650 0.38700
H 	H 	0.78040 0.56190 0.88550 0.39400
C 	C 	0.93180 0.11200 0.72130 0.09400
H 	H 	0.95650 0.94780 0.67940 0.08400
C 	C 	0.68250 0.07090 0.71520 0.00500
C 	C 	0.48730 0.85600 0.67030 0.08700
O 	O 	0.92650 0.33990 0.88160 -0.41900
C 	C 	0.08400 0.19800 0.73300 -0.01900
C 	C 	0.82390 0.15660 0.73590 -0.11300
H 	H 	0.61220 0.10270 0.72160 0.04500
C 	C 	0.45730 0.76270 0.73760 -0.12700
C 	C 	0.36880 0.87460 0.58680 -0.13100
C 	C 	0.17670 0.29520 0.83230 -0.05500
C 	C 	0.14210 0.18330 0.64720 -0.05800
C 	C 	0.85020 0.29460 0.77520 0.41600
H 	H 	0.53550 0.74950 0.79360 0.09400
C 	C 	0.31180 0.68760 0.72340 0.04400
H 	H 	0.38730 0.93860 0.54190 0.08500
C 	C 	0.22440 0.79910 0.57020 0.04500
C 	C 	0.31460 0.37420 0.84180 0.00600
H 	H 	0.14260 0.30550 0.89270 0.06000
C 	C 	0.28130 0.26480 0.65600 0.00700
H 	H 	0.08600 0.11730 0.58250 0.04200
H 	H 	0.29320 0.62490 0.76940 0.03100
C 	C 	0.19420 0.70760 0.63920 -0.11200
H 	H 	0.14650 0.81010 0.51170 0.02100
C 	C 	0.36890 0.36140 0.75180 -0.10000
H 	H 	0.37350 0.43720 0.90840 0.07200
H 	H 	0.31630 0.25430 0.59620 0.03900
C 	C 	0.03710 0.63030 0.62200 0.29900
C 	C 	0.52220 0.44880 0.76880 0.36000
O 	O 	0.94080 0.61750 0.51990 -0.26600
O 	O 	0.60620 0.50190 0.87200 -0.32600
O 	O 	0.41040 0.31240 0.43780 -0.41300
O 	O 	0.30300 0.51680 0.48070 -0.96200
O 	O 	0.43450 0.53770 0.31790 -0.48900
C 	C 	0.28830 0.24760 0.35750 0.36900
Ni	Ni	0.20819 0.47363 0.29710 1.14000
H 	H 	0.27640 0.58070 0.47350 0.37300
H 	H 	0.26210 0.47220 0.52330 0.40200
C 	C 	0.25380 0.10660 0.32760 -0.10100
O 	O 	0.19160 0.28880 0.30190 -0.41800
O 	O 	0.13220 0.41870 0.11450 -0.94200
O 	O 	0.21520 0.65320 0.29970 -0.44600
O 	O 	0.99320 0.41450 0.29330 -0.38100
C 	C 	0.11210 0.02030 0.31040 0.00000
C 	C 	0.36000 0.06040 0.31470 0.01800
H 	H 	0.07640 0.35120 0.06350 0.31000
H 	H 	0.21960 0.43810 0.11450 0.36900
C 	C 	0.06820 0.88800 0.27870 -0.05800
H 	H 	0.04350 0.05220 0.32060 0.02600
C 	C 	0.31750 0.92910 0.28480 -0.04600
C 	C 	0.51270 0.14400 0.32970 0.06900
O 	O 	0.07350 0.66010 0.11840 -0.51400
C 	C 	0.91600 0.80200 0.26700 0.14100
C 	C 	0.17610 0.84340 0.26410 -0.08100
H 	H 	0.38780 0.89730 0.27840 0.04900
C 	C 	0.54270 0.23730 0.26240 -0.12700
C 	C 	0.63120 0.12540 0.41320 -0.12700
C 	C 	0.82330 0.70480 0.16770 -0.17200
C 	C 	0.85790 0.81670 0.35280 -0.17000
C 	C 	0.14980 0.70540 0.22480 0.40200
H 	H 	0.46450 0.25050 0.20640 0.07200
C 	C 	0.68820 0.31240 0.27660 0.04500
H 	H 	0.61270 0.06140 0.45810 0.08400
C 	C 	0.77560 0.20090 0.42980 0.05400
C 	C 	0.68540 0.62580 0.15820 0.09200
H 	H 	0.85740 0.69450 0.10730 0.08100
C 	C 	0.71870 0.73520 0.34400 0.09500
H 	H 	0.91400 0.88270 0.41750 0.10500
H 	H 	0.70680 0.37510 0.23060 0.01800
C 	C 	0.80580 0.29240 0.36080 -0.13100
H 	H 	0.85350 0.18990 0.48830 0.03700
C 	C 	0.63110 0.63860 0.24820 -0.18000
H 	H 	0.62650 0.56280 0.09160 -0.00200
H 	H 	0.68370 0.74570 0.40380 0.00800
C 	C 	0.96290 0.36970 0.37800 0.39200
C 	C 	0.47780 0.55120 0.23120 0.39300
O 	O 	0.05920 0.38250 0.48010 -0.34400
O 	O 	0.39380 0.49810 0.12800 -0.38300
Ni	Ni	0.50000 0.50000 0.50000 1.15200
Ni	Ni	0.00000 0.50000 -0.00000 1.04000
