data_crystal

_cell_length_a 13.86180
_cell_length_b 13.86180
_cell_length_c 18.50790
_cell_angle_alpha 90.00000
_cell_angle_beta  90.00000
_cell_angle_gamma 120.00000

_symmetry_space_group_name_	'P 1'
_symmetry_space_group_name_H-M	'P 1'

loop_
_symmetry_equiv_pos_as_xyz
  x,y,z

loop_
_atom_site_label
_atom_site_type_symbol
_atom_site_fract_x
_atom_site_fract_y
_atom_site_fract_z
_atom_site_charge
O 	O 	0.64830 0.13550 0.16450 -0.55600
C 	C 	0.59880 0.02660 0.03330 -0.37100
H 	H 	0.66620 0.04460 0.05500 0.13700
O 	O 	0.86450 0.51280 0.16450 -0.58400
C 	C 	0.97340 0.57220 0.03330 0.35400
H 	H 	0.95540 0.62160 0.05500 -0.07200
O 	O 	0.48720 0.35170 0.16450 -0.57800
C 	C 	0.42780 0.40120 0.03330 -0.01300
H 	H 	0.37840 0.33380 0.05500 0.01700
O 	O 	0.35170 0.86450 0.66450 -0.58900
C 	C 	0.40120 0.97340 0.53330 0.36000
H 	H 	0.33380 0.95540 0.55500 -0.08200
O 	O 	0.13550 0.48720 0.66450 -0.56200
C 	C 	0.02660 0.42780 0.53330 -0.38300
H 	H 	0.04460 0.37840 0.55500 0.12700
O 	O 	0.51280 0.64830 0.66450 -0.56900
C 	C 	0.57220 0.59880 0.53330 -0.00800
H 	H 	0.62160 0.66620 0.55500 0.03600
O 	O 	0.13550 0.64830 0.83550 -0.55700
C 	C 	0.02660 0.59880 0.96670 -0.37200
H 	H 	0.04460 0.66620 0.94500 0.13600
O 	O 	0.51280 0.86450 0.83550 -0.58500
C 	C 	0.57220 0.97340 0.96670 0.35400
H 	H 	0.62160 0.95540 0.94500 -0.07200
O 	O 	0.35170 0.48720 0.83550 -0.57800
C 	C 	0.40120 0.42780 0.96670 -0.01300
H 	H 	0.33380 0.37840 0.94500 0.01700
O 	O 	0.86450 0.35170 0.33550 -0.58900
C 	C 	0.97340 0.40120 0.46670 0.36000
H 	H 	0.95540 0.33380 0.44500 -0.08200
O 	O 	0.48720 0.13550 0.33550 -0.56200
C 	C 	0.42780 0.02660 0.46670 -0.38300
H 	H 	0.37840 0.04460 0.44500 0.12700
O 	O 	0.64830 0.51280 0.33550 -0.56900
C 	C 	0.59880 0.57220 0.46670 -0.00800
H 	H 	0.66620 0.62160 0.44500 0.03600
O 	O 	0.35170 0.86450 0.83550 -0.58900
C 	C 	0.40120 0.97340 0.96670 0.35600
H 	H 	0.33380 0.95540 0.94500 -0.08100
O 	O 	0.13550 0.48720 0.83550 -0.56200
C 	C 	0.02660 0.42780 0.96670 -0.37800
H 	H 	0.04460 0.37840 0.94500 0.12600
O 	O 	0.51280 0.64830 0.83550 -0.57000
C 	C 	0.57220 0.59880 0.96670 -0.00800
H 	H 	0.62160 0.66620 0.94500 0.03600
O 	O 	0.64830 0.13550 0.33550 -0.55700
C 	C 	0.59880 0.02660 0.46670 -0.37700
H 	H 	0.66620 0.04460 0.44500 0.13700
O 	O 	0.86450 0.51280 0.33550 -0.58500
C 	C 	0.97340 0.57220 0.46670 0.35900
H 	H 	0.95540 0.62160 0.44500 -0.07300
O 	O 	0.48720 0.35170 0.33550 -0.57800
C 	C 	0.42780 0.40120 0.46670 -0.01300
H 	H 	0.37840 0.33380 0.44500 0.01700
O 	O 	0.86450 0.35170 0.16450 -0.58900
C 	C 	0.97340 0.40120 0.03330 0.35600
H 	H 	0.95540 0.33380 0.05500 -0.08100
O 	O 	0.48720 0.13550 0.16450 -0.56200
C 	C 	0.42780 0.02660 0.03330 -0.37800
H 	H 	0.37840 0.04460 0.05500 0.12600
O 	O 	0.64830 0.51280 0.16450 -0.57000
C 	C 	0.59880 0.57220 0.03330 -0.00800
H 	H 	0.66620 0.62160 0.05500 0.03600
O 	O 	0.13550 0.64830 0.66450 -0.55700
C 	C 	0.02660 0.59880 0.53330 -0.37700
H 	H 	0.04460 0.66620 0.55500 0.13700
O 	O 	0.51280 0.86450 0.66450 -0.58500
C 	C 	0.57220 0.97340 0.53330 0.35900
H 	H 	0.62160 0.95540 0.55500 -0.07300
O 	O 	0.35170 0.48720 0.66450 -0.57800
C 	C 	0.40120 0.42780 0.53330 -0.01300
H 	H 	0.33380 0.37840 0.55500 0.01700
In	In	0.75136 0.24864 0.25000 1.99600
N 	N 	0.84120 0.15880 0.25000 -0.32000
In	In	0.75136 0.50272 0.25000 1.99700
N 	N 	0.84120 0.68240 0.25000 -0.31500
In	In	0.49728 0.24864 0.25000 1.99400
N 	N 	0.31760 0.15880 0.25000 -0.32600
In	In	0.24864 0.75136 0.75000 1.99600
N 	N 	0.15880 0.84120 0.75000 -0.32000
In	In	0.24864 0.49728 0.75000 1.99400
N 	N 	0.15880 0.31760 0.75000 -0.32600
In	In	0.50272 0.75136 0.75000 1.99700
N 	N 	0.68240 0.84120 0.75000 -0.31500
O 	O 	0.66667 0.33333 0.25000 -1.04400
O 	O 	0.33333 0.66667 0.75000 -1.04400
C 	C 	0.55670 0.11340 0.13780 0.35400
C 	C 	0.52670 0.05340 0.06780 0.11200
C 	C 	0.88660 0.44330 0.13780 0.54400
C 	C 	0.94660 0.47330 0.06780 -0.34600
C 	C 	0.55670 0.44330 0.13780 0.44900
C 	C 	0.52670 0.47330 0.06780 -0.11700
C 	C 	0.44330 0.88660 0.63780 0.54500
C 	C 	0.47330 0.94660 0.56780 -0.34900
C 	C 	0.11340 0.55670 0.63780 0.35300
C 	C 	0.05340 0.52670 0.56780 0.11600
C 	C 	0.44330 0.55670 0.63780 0.44900
C 	C 	0.47330 0.52670 0.56780 -0.11700
C 	C 	0.11340 0.55670 0.86220 0.35400
C 	C 	0.05340 0.52670 0.93220 0.11200
C 	C 	0.44330 0.88660 0.86220 0.54400
C 	C 	0.47330 0.94660 0.93220 -0.34600
C 	C 	0.44330 0.55670 0.86220 0.44900
C 	C 	0.47330 0.52670 0.93220 -0.11700
C 	C 	0.88660 0.44330 0.36220 0.54500
C 	C 	0.94660 0.47330 0.43220 -0.34900
C 	C 	0.55670 0.11340 0.36220 0.35300
C 	C 	0.52670 0.05340 0.43220 0.11600
C 	C 	0.55670 0.44330 0.36220 0.44900
C 	C 	0.52670 0.47330 0.43220 -0.11700
C 	C 	0.87480 0.12520 0.30700 0.10400
H 	H 	0.86210 0.13790 0.35450 -0.05300
N 	N 	0.92790 0.07210 0.28930 -0.22200
C 	C 	0.87480 0.74960 0.30700 0.11600
H 	H 	0.86210 0.72420 0.35450 -0.03600
N 	N 	0.92790 0.85580 0.28930 -0.18500
C 	C 	0.25040 0.12520 0.30700 0.09000
H 	H 	0.27580 0.13790 0.35450 -0.07200
N 	N 	0.14420 0.07210 0.28930 -0.26600
C 	C 	0.12520 0.87480 0.80700 0.10400
H 	H 	0.13790 0.86210 0.85450 -0.05300
N 	N 	0.07210 0.92790 0.78930 -0.22200
C 	C 	0.12520 0.25040 0.80700 0.09000
H 	H 	0.13790 0.27580 0.85450 -0.07200
N 	N 	0.07210 0.14420 0.78930 -0.26600
C 	C 	0.74960 0.87480 0.80700 0.11600
H 	H 	0.72420 0.86210 0.85450 -0.03700
N 	N 	0.85580 0.92790 0.78930 -0.18500
C 	C 	0.12520 0.87480 0.69300 0.10400
H 	H 	0.13790 0.86210 0.64550 -0.05300
N 	N 	0.07210 0.92790 0.71070 -0.22200
C 	C 	0.74960 0.87480 0.69300 0.11600
H 	H 	0.72420 0.86210 0.64550 -0.03600
N 	N 	0.85580 0.92790 0.71070 -0.18500
C 	C 	0.12520 0.25040 0.69300 0.09000
H 	H 	0.13790 0.27580 0.64550 -0.07200
N 	N 	0.07210 0.14420 0.71070 -0.26600
C 	C 	0.87480 0.12520 0.19300 0.10400
H 	H 	0.86210 0.13790 0.14550 -0.05300
N 	N 	0.92790 0.07210 0.21070 -0.22200
C 	C 	0.25040 0.12520 0.19300 0.09000
H 	H 	0.27580 0.13790 0.14550 -0.07200
N 	N 	0.14420 0.07210 0.21070 -0.26600
C 	C 	0.87480 0.74960 0.19300 0.11600
H 	H 	0.86210 0.72420 0.14550 -0.03700
N 	N 	0.92790 0.85580 0.21070 -0.18500
Ni	Ni	-0.00000 -0.00000 0.36051 0.87600
Ni	Ni	0.00000 0.00000 0.86051 0.87600
Ni	Ni	0.00000 -0.00000 0.63949 0.87600
Ni	Ni	0.00000 0.00000 0.13949 0.87600
