data_crystal

_cell_length_a 13.85700
_cell_length_b 13.85700
_cell_length_c 17.92500
_cell_angle_alpha 90.00000
_cell_angle_beta  90.00000
_cell_angle_gamma 120.00000

_symmetry_space_group_name_	'P 1'
_symmetry_space_group_name_H-M	'P 1'

loop_
_symmetry_equiv_pos_as_xyz
  x,y,z

loop_
_atom_site_label
_atom_site_type_symbol
_atom_site_fract_x
_atom_site_fract_y
_atom_site_fract_z
_atom_site_charge
O 	O 	0.64970 0.50590 0.33240 -0.45400
C 	C 	0.59870 0.56980 0.46600 -0.01300
H 	H 	0.66610 0.61880 0.44330 0.03500
O 	O 	0.49410 0.14380 0.33240 -0.43200
C 	C 	0.43020 0.02890 0.46600 -0.67200
H 	H 	0.38120 0.04730 0.44330 0.20100
O 	O 	0.85620 0.35030 0.33240 -0.49300
C 	C 	0.97110 0.40130 0.46600 0.63500
H 	H 	0.95270 0.33390 0.44330 -0.17500
O 	O 	0.35030 0.49410 0.83240 -0.46500
C 	C 	0.40130 0.43020 0.96600 -0.02100
H 	H 	0.33390 0.38120 0.94330 0.00500
O 	O 	0.50590 0.85620 0.83240 -0.48700
C 	C 	0.56980 0.97110 0.96600 0.62300
H 	H 	0.61880 0.95270 0.94330 -0.15800
O 	O 	0.14380 0.64970 0.83240 -0.42600
C 	C 	0.02890 0.59870 0.96600 -0.65300
H 	H 	0.04730 0.66610 0.94330 0.21400
O 	O 	0.50590 0.64970 0.66760 -0.45400
C 	C 	0.56980 0.59870 0.53400 -0.01300
H 	H 	0.61880 0.66610 0.55670 0.03500
O 	O 	0.14380 0.49410 0.66760 -0.43200
C 	C 	0.02890 0.43020 0.53400 -0.67200
H 	H 	0.04730 0.38120 0.55670 0.20100
O 	O 	0.35030 0.85620 0.66760 -0.49300
C 	C 	0.40130 0.97110 0.53400 0.63500
H 	H 	0.33390 0.95270 0.55670 -0.17500
O 	O 	0.49410 0.35030 0.16760 -0.46500
C 	C 	0.43020 0.40130 0.03400 -0.02100
H 	H 	0.38120 0.33390 0.05670 0.00500
O 	O 	0.85620 0.50590 0.16760 -0.48700
C 	C 	0.97110 0.56980 0.03400 0.62300
H 	H 	0.95270 0.61880 0.05670 -0.15800
O 	O 	0.64970 0.14380 0.16760 -0.42600
C 	C 	0.59870 0.02890 0.03400 -0.65300
H 	H 	0.66610 0.04730 0.05670 0.21400
O 	O 	0.35030 0.49410 0.66760 -0.46500
C 	C 	0.40130 0.43020 0.53400 -0.02100
H 	H 	0.33390 0.38120 0.55670 0.00500
O 	O 	0.50590 0.85620 0.66760 -0.48700
C 	C 	0.56980 0.97110 0.53400 0.63200
H 	H 	0.61880 0.95270 0.55670 -0.16100
O 	O 	0.14380 0.64970 0.66760 -0.42500
C 	C 	0.02890 0.59870 0.53400 -0.66200
H 	H 	0.04730 0.66610 0.55670 0.21600
O 	O 	0.64970 0.50590 0.16760 -0.45400
C 	C 	0.59870 0.56980 0.03400 -0.01400
H 	H 	0.66610 0.61880 0.05670 0.03400
O 	O 	0.49410 0.14380 0.16760 -0.43200
C 	C 	0.43020 0.02890 0.03400 -0.66300
H 	H 	0.38120 0.04730 0.05670 0.19900
O 	O 	0.85620 0.35030 0.16760 -0.49200
C 	C 	0.97110 0.40130 0.03400 0.62700
H 	H 	0.95270 0.33390 0.05670 -0.17200
O 	O 	0.49410 0.35030 0.33240 -0.46500
C 	C 	0.43020 0.40130 0.46600 -0.02100
H 	H 	0.38120 0.33390 0.44330 0.00500
O 	O 	0.85620 0.50590 0.33240 -0.48700
C 	C 	0.97110 0.56980 0.46600 0.63200
H 	H 	0.95270 0.61880 0.44330 -0.16100
O 	O 	0.64970 0.14380 0.33240 -0.42500
C 	C 	0.59870 0.02890 0.46600 -0.66200
H 	H 	0.66610 0.04730 0.44330 0.21600
O 	O 	0.50590 0.64970 0.83240 -0.45400
C 	C 	0.56980 0.59870 0.96600 -0.01400
H 	H 	0.61880 0.66610 0.94330 0.03400
O 	O 	0.14380 0.49410 0.83240 -0.43200
C 	C 	0.02890 0.43020 0.96600 -0.66300
H 	H 	0.04730 0.38120 0.94330 0.19900
O 	O 	0.35030 0.85620 0.83240 -0.49200
C 	C 	0.40130 0.97110 0.96600 0.62700
H 	H 	0.33390 0.95270 0.94330 -0.17200
Fe	Fe	0.74670 0.49340 0.25000 1.23800
N 	N 	0.83705 0.67410 0.25000 -0.21400
Fe	Fe	0.50660 0.25330 0.25000 1.22500
N 	N 	0.32590 0.16295 0.25000 -0.22800
Fe	Fe	0.74670 0.25330 0.25000 1.23200
N 	N 	0.83705 0.16295 0.25000 -0.22100
Fe	Fe	0.25330 0.50660 0.75000 1.22500
N 	N 	0.16295 0.32590 0.75000 -0.22800
Fe	Fe	0.49340 0.74670 0.75000 1.23800
N 	N 	0.67410 0.83705 0.75000 -0.21400
Fe	Fe	0.25330 0.74670 0.75000 1.23200
N 	N 	0.16295 0.83705 0.75000 -0.22100
O 	O 	0.66667 0.33333 0.25000 -0.65500
O 	O 	0.33333 0.66667 0.75000 -0.65500
C 	C 	0.56160 0.43840 0.35910 0.43800
C 	C 	0.52890 0.47110 0.43310 -0.10100
C 	C 	0.56160 0.12320 0.35910 0.26900
C 	C 	0.52890 0.05780 0.43310 0.33000
C 	C 	0.87680 0.43840 0.35910 0.60800
C 	C 	0.94220 0.47110 0.43310 -0.53200
C 	C 	0.43840 0.56160 0.85910 0.43800
C 	C 	0.47110 0.52890 0.93310 -0.10100
C 	C 	0.43840 0.87680 0.85910 0.60600
C 	C 	0.47110 0.94220 0.93310 -0.52600
C 	C 	0.12320 0.56160 0.85910 0.27100
C 	C 	0.05780 0.52890 0.93310 0.32400
C 	C 	0.43840 0.56160 0.64090 0.43800
C 	C 	0.47110 0.52890 0.56690 -0.10100
C 	C 	0.12320 0.56160 0.64090 0.26900
C 	C 	0.05780 0.52890 0.56690 0.33000
C 	C 	0.43840 0.87680 0.64090 0.60800
C 	C 	0.47110 0.94220 0.56690 -0.53200
C 	C 	0.56160 0.43840 0.14090 0.43800
C 	C 	0.52890 0.47110 0.06690 -0.10100
C 	C 	0.87680 0.43840 0.14090 0.60600
C 	C 	0.94220 0.47110 0.06690 -0.52600
C 	C 	0.56160 0.12320 0.14090 0.27100
C 	C 	0.52890 0.05780 0.06690 0.32400
C 	C 	0.87060 0.74120 0.30610 0.12000
N 	N 	0.92730 0.85460 0.29100 -0.26800
H 	H 	0.85735 0.71470 0.35490 -0.02800
C 	C 	0.25880 0.12940 0.30610 0.07400
N 	N 	0.14540 0.07270 0.29100 -0.39800
H 	H 	0.28530 0.14265 0.35490 -0.08100
C 	C 	0.87060 0.12940 0.30610 0.09900
N 	N 	0.92730 0.07270 0.29100 -0.32700
H 	H 	0.85735 0.14265 0.35490 -0.05300
C 	C 	0.12940 0.25880 0.80610 0.07400
N 	N 	0.07270 0.14540 0.79100 -0.39800
H 	H 	0.14265 0.28530 0.85490 -0.08100
C 	C 	0.74120 0.87060 0.80610 0.11900
N 	N 	0.85460 0.92730 0.79100 -0.26900
H 	H 	0.71470 0.85735 0.85490 -0.02900
C 	C 	0.12940 0.87060 0.80610 0.09900
N 	N 	0.07270 0.92730 0.79100 -0.32700
H 	H 	0.14265 0.85735 0.85490 -0.05200
C 	C 	0.74120 0.87060 0.69390 0.12000
N 	N 	0.85460 0.92730 0.70900 -0.26800
H 	H 	0.71470 0.85735 0.64510 -0.02800
C 	C 	0.12940 0.25880 0.69390 0.07400
N 	N 	0.07270 0.14540 0.70900 -0.39800
H 	H 	0.14265 0.28530 0.64510 -0.08100
C 	C 	0.12940 0.87060 0.69390 0.09900
N 	N 	0.07270 0.92730 0.70900 -0.32700
H 	H 	0.14265 0.85735 0.64510 -0.05300
C 	C 	0.25880 0.12940 0.19390 0.07400
N 	N 	0.14540 0.07270 0.20900 -0.39800
H 	H 	0.28530 0.14265 0.14510 -0.08100
C 	C 	0.87060 0.74120 0.19390 0.11900
N 	N 	0.92730 0.85460 0.20900 -0.26900
H 	H 	0.85735 0.71470 0.14510 -0.02900
C 	C 	0.87060 0.12940 0.19390 0.09900
N 	N 	0.92730 0.07270 0.20900 -0.32700
H 	H 	0.85735 0.14265 0.14510 -0.05200
Mg	Mg	-0.00000 0.00000 0.35520 1.39800
Mg	Mg	0.00000 0.00000 0.85520 1.39800
Mg	Mg	-0.00000 -0.00000 0.64480 1.39800
Mg	Mg	-0.00000 0.00000 0.14480 1.39800
