data_crystal

_cell_length_a 13.90500
_cell_length_b 13.90500
_cell_length_c 18.46630
_cell_angle_alpha 90.00000
_cell_angle_beta  90.00000
_cell_angle_gamma 120.00000

_symmetry_space_group_name_	'P 1'
_symmetry_space_group_name_H-M	'P 1'

loop_
_symmetry_equiv_pos_as_xyz
  x,y,z

loop_
_atom_site_label
_atom_site_type_symbol
_atom_site_fract_x
_atom_site_fract_y
_atom_site_fract_z
_atom_site_charge
O 	O 	0.86320 0.35150 0.33547 -0.59400
C 	C 	0.97290 0.57130 0.46680 0.40000
H 	H 	0.95490 0.62040 0.44480 -0.08900
O 	O 	0.64850 0.51170 0.33547 -0.57200
C 	C 	0.42870 0.40160 0.46680 -0.01400
H 	H 	0.37960 0.33450 0.44480 0.01500
O 	O 	0.48830 0.13680 0.33547 -0.56300
C 	C 	0.59840 0.02710 0.46680 -0.42100
H 	H 	0.66550 0.04510 0.44480 0.15000
O 	O 	0.13680 0.64850 0.83547 -0.55700
C 	C 	0.02710 0.42870 0.96680 -0.42100
H 	H 	0.04510 0.37960 0.94480 0.13900
O 	O 	0.35150 0.48830 0.83547 -0.58000
C 	C 	0.57130 0.59840 0.96680 -0.00900
H 	H 	0.62040 0.66550 0.94480 0.03600
O 	O 	0.51170 0.86320 0.83547 -0.58900
C 	C 	0.40160 0.97290 0.96680 0.39800
H 	H 	0.33450 0.95490 0.94480 -0.09600
O 	O 	0.35150 0.86320 0.66453 -0.59300
C 	C 	0.57130 0.97290 0.53320 0.40100
H 	H 	0.62040 0.95490 0.55520 -0.08800
O 	O 	0.51170 0.64850 0.66453 -0.57100
C 	C 	0.40160 0.42870 0.53320 -0.01300
H 	H 	0.33450 0.37960 0.55520 0.01600
O 	O 	0.13680 0.48830 0.66453 -0.56200
C 	C 	0.02710 0.59840 0.53320 -0.42000
H 	H 	0.04510 0.66550 0.55520 0.15000
O 	O 	0.64850 0.13680 0.16453 -0.55700
C 	C 	0.42870 0.02710 0.03320 -0.42100
H 	H 	0.37960 0.04510 0.05520 0.13900
O 	O 	0.48830 0.35150 0.16453 -0.58000
C 	C 	0.59840 0.57130 0.03320 -0.00900
H 	H 	0.66550 0.62040 0.05520 0.03600
O 	O 	0.86320 0.51170 0.16453 -0.58900
C 	C 	0.97290 0.40160 0.03320 0.39800
H 	H 	0.95490 0.33450 0.05520 -0.09600
O 	O 	0.13680 0.64850 0.66453 -0.55700
C 	C 	0.02710 0.42870 0.53320 -0.42700
H 	H 	0.04510 0.37960 0.55520 0.14000
O 	O 	0.35150 0.48830 0.66453 -0.58000
C 	C 	0.57130 0.59840 0.53320 -0.00900
H 	H 	0.62040 0.66550 0.55520 0.03600
O 	O 	0.51170 0.86320 0.66453 -0.59000
C 	C 	0.40160 0.97290 0.53320 0.40200
H 	H 	0.33450 0.95490 0.55520 -0.09700
O 	O 	0.86320 0.35150 0.16453 -0.59300
C 	C 	0.97290 0.57130 0.03320 0.39500
H 	H 	0.95490 0.62040 0.05520 -0.08600
O 	O 	0.64850 0.51170 0.16453 -0.57100
C 	C 	0.42870 0.40160 0.03320 -0.01400
H 	H 	0.37960 0.33450 0.05520 0.01600
O 	O 	0.48830 0.13680 0.16453 -0.56200
C 	C 	0.59840 0.02710 0.03320 -0.41500
H 	H 	0.66550 0.04510 0.05520 0.14900
O 	O 	0.64850 0.13680 0.33547 -0.55700
C 	C 	0.42870 0.02710 0.46680 -0.42700
H 	H 	0.37960 0.04510 0.44480 0.14000
O 	O 	0.48830 0.35150 0.33547 -0.58000
C 	C 	0.59840 0.57130 0.46680 -0.00900
H 	H 	0.66550 0.62040 0.44480 0.03600
O 	O 	0.86320 0.51170 0.33547 -0.59000
C 	C 	0.97290 0.40160 0.46680 0.40200
H 	H 	0.95490 0.33450 0.44480 -0.09700
O 	O 	0.35150 0.86320 0.83547 -0.59300
C 	C 	0.57130 0.97290 0.96680 0.39500
H 	H 	0.62040 0.95490 0.94480 -0.08600
O 	O 	0.51170 0.64850 0.83547 -0.57100
C 	C 	0.40160 0.42870 0.96680 -0.01400
H 	H 	0.33450 0.37960 0.94480 0.01600
O 	O 	0.13680 0.48830 0.83547 -0.56200
C 	C 	0.02710 0.59840 0.96680 -0.41500
H 	H 	0.04510 0.66550 0.94480 0.14900
In	In	0.75095 0.24905 0.25000 1.99700
N 	N 	0.84070 0.15930 0.25000 -0.31800
In	In	0.75095 0.50190 0.25000 1.99900
N 	N 	0.84070 0.68140 0.25000 -0.31200
In	In	0.49810 0.24905 0.25000 1.99500
N 	N 	0.31860 0.15930 0.25000 -0.32300
In	In	0.24905 0.75095 0.75000 1.99700
N 	N 	0.15930 0.84070 0.75000 -0.31800
In	In	0.24905 0.49810 0.75000 1.99500
N 	N 	0.15930 0.31860 0.75000 -0.32300
In	In	0.50190 0.75095 0.75000 1.99900
N 	N 	0.68140 0.84070 0.75000 -0.31200
O 	O 	0.66667 0.33333 0.25000 -1.04300
O 	O 	0.33333 0.66667 0.75000 -1.04300
C 	C 	0.88610 0.44305 0.36220 0.55600
C 	C 	0.94580 0.47290 0.43340 -0.38100
C 	C 	0.55695 0.44305 0.36220 0.44900
C 	C 	0.52710 0.47290 0.43340 -0.11500
C 	C 	0.55695 0.11390 0.36220 0.34300
C 	C 	0.52710 0.05420 0.43340 0.15200
C 	C 	0.11390 0.55695 0.86220 0.34400
C 	C 	0.05420 0.52710 0.93340 0.14800
C 	C 	0.44305 0.55695 0.86220 0.44900
C 	C 	0.47290 0.52710 0.93340 -0.11500
C 	C 	0.44305 0.88610 0.86220 0.55500
C 	C 	0.47290 0.94580 0.93340 -0.37800
C 	C 	0.44305 0.88610 0.63780 0.55600
C 	C 	0.47290 0.94580 0.56660 -0.38100
C 	C 	0.44305 0.55695 0.63780 0.44900
C 	C 	0.47290 0.52710 0.56660 -0.11500
C 	C 	0.11390 0.55695 0.63780 0.34300
C 	C 	0.05420 0.52710 0.56660 0.15200
C 	C 	0.55695 0.11390 0.13780 0.34400
C 	C 	0.52710 0.05420 0.06660 0.14800
C 	C 	0.55695 0.44305 0.13780 0.44900
C 	C 	0.52710 0.47290 0.06660 -0.11500
C 	C 	0.88610 0.44305 0.13780 0.55500
C 	C 	0.94580 0.47290 0.06660 -0.37800
C 	C 	0.87490 0.12510 0.30680 0.09900
H 	H 	0.86300 0.13700 0.35470 -0.05400
N 	N 	0.92751 0.07249 0.28740 -0.22800
C 	C 	0.87490 0.74980 0.30680 0.11200
H 	H 	0.86300 0.72600 0.35470 -0.03700
N 	N 	0.92751 0.85502 0.28740 -0.19100
C 	C 	0.25020 0.12510 0.30680 0.08400
H 	H 	0.27400 0.13700 0.35470 -0.07500
N 	N 	0.14498 0.07249 0.28740 -0.27300
C 	C 	0.12510 0.87490 0.80680 0.09900
H 	H 	0.13700 0.86300 0.85470 -0.05400
N 	N 	0.07249 0.92751 0.78740 -0.22800
C 	C 	0.12510 0.25020 0.80680 0.08400
H 	H 	0.13700 0.27400 0.85470 -0.07500
N 	N 	0.07249 0.14498 0.78740 -0.27300
C 	C 	0.74980 0.87490 0.80680 0.11200
H 	H 	0.72600 0.86300 0.85470 -0.03700
N 	N 	0.85502 0.92751 0.78740 -0.19200
C 	C 	0.12510 0.87490 0.69320 0.09900
H 	H 	0.13700 0.86300 0.64530 -0.05400
N 	N 	0.07249 0.92751 0.71260 -0.22800
C 	C 	0.74980 0.87490 0.69320 0.11200
H 	H 	0.72600 0.86300 0.64530 -0.03700
N 	N 	0.85502 0.92751 0.71260 -0.19100
C 	C 	0.12510 0.25020 0.69320 0.08400
H 	H 	0.13700 0.27400 0.64530 -0.07500
N 	N 	0.07249 0.14498 0.71260 -0.27300
C 	C 	0.87490 0.12510 0.19320 0.09900
H 	H 	0.86300 0.13700 0.14530 -0.05400
N 	N 	0.92751 0.07249 0.21260 -0.22800
C 	C 	0.25020 0.12510 0.19320 0.08400
H 	H 	0.27400 0.13700 0.14530 -0.07500
N 	N 	0.14498 0.07249 0.21260 -0.27300
C 	C 	0.87490 0.74980 0.19320 0.11200
H 	H 	0.86300 0.72600 0.14530 -0.03700
N 	N 	0.92751 0.85502 0.21260 -0.19200
Co	Co	0.00000 -0.00000 0.35738 0.92500
Co	Co	-0.00000 0.00000 0.85738 0.92600
Co	Co	-0.00000 -0.00000 0.64262 0.92500
Co	Co	-0.00000 -0.00000 0.14262 0.92600
