data_crystal

_cell_length_a 13.89300
_cell_length_b 13.89300
_cell_length_c 18.36800
_cell_angle_alpha 90.00000
_cell_angle_beta  90.00000
_cell_angle_gamma 120.00000

_symmetry_space_group_name_	'P 1'
_symmetry_space_group_name_H-M	'P 1'

loop_
_symmetry_equiv_pos_as_xyz
  x,y,z

loop_
_atom_site_label
_atom_site_type_symbol
_atom_site_fract_x
_atom_site_fract_y
_atom_site_fract_z
_atom_site_charge
O 	O 	0.86100 0.34990 0.33470 -0.56100
C 	C 	0.97160 0.57130 0.46590 0.34500
O 	O 	0.94400 0.64100 0.44220 -0.17900
O 	O 	0.65010 0.51110 0.33470 -0.55700
C 	C 	0.42870 0.40030 0.46590 0.15500
O 	O 	0.35900 0.30300 0.44220 -0.20200
O 	O 	0.48890 0.13900 0.33470 -0.56000
C 	C 	0.59970 0.02840 0.46590 -0.03000
O 	O 	0.69700 0.05600 0.44220 -0.16600
O 	O 	0.13900 0.65010 0.83470 -0.55700
C 	C 	0.02840 0.42870 0.96590 -0.03100
O 	O 	0.05600 0.35900 0.94220 -0.18600
O 	O 	0.34990 0.48890 0.83470 -0.56300
C 	C 	0.57130 0.59970 0.96590 0.15800
O 	O 	0.64100 0.69700 0.94220 -0.16400
O 	O 	0.51110 0.86100 0.83470 -0.56000
C 	C 	0.40030 0.97160 0.96590 0.34400
O 	O 	0.30300 0.94400 0.94220 -0.19500
O 	O 	0.34990 0.86100 0.66530 -0.56200
C 	C 	0.57130 0.97160 0.53410 0.34400
O 	O 	0.64100 0.94400 0.55780 -0.17900
O 	O 	0.51110 0.65010 0.66530 -0.55700
C 	C 	0.40030 0.42870 0.53410 0.15500
O 	O 	0.30300 0.35900 0.55780 -0.20200
O 	O 	0.13900 0.48890 0.66530 -0.56000
C 	C 	0.02840 0.59970 0.53410 -0.03000
O 	O 	0.05600 0.69700 0.55780 -0.16600
O 	O 	0.65010 0.13900 0.16530 -0.55700
C 	C 	0.42870 0.02840 0.03410 -0.03100
O 	O 	0.35900 0.05600 0.05780 -0.18600
O 	O 	0.48890 0.34990 0.16530 -0.56300
C 	C 	0.59970 0.57130 0.03410 0.15800
O 	O 	0.69700 0.64100 0.05780 -0.16400
O 	O 	0.86100 0.51110 0.16530 -0.56000
C 	C 	0.97160 0.40030 0.03410 0.34400
O 	O 	0.94400 0.30300 0.05780 -0.19500
O 	O 	0.13900 0.65010 0.66530 -0.55700
C 	C 	0.02840 0.42870 0.53410 -0.03400
O 	O 	0.05600 0.35900 0.55780 -0.18600
O 	O 	0.34990 0.48890 0.66530 -0.56300
C 	C 	0.57130 0.59970 0.53410 0.15800
O 	O 	0.64100 0.69700 0.55780 -0.16300
O 	O 	0.51110 0.86100 0.66530 -0.56000
C 	C 	0.40030 0.97160 0.53410 0.34600
O 	O 	0.30300 0.94400 0.55780 -0.19600
O 	O 	0.86100 0.34990 0.16530 -0.56200
C 	C 	0.97160 0.57130 0.03410 0.34200
O 	O 	0.94400 0.64100 0.05780 -0.17900
O 	O 	0.65010 0.51110 0.16530 -0.55700
C 	C 	0.42870 0.40030 0.03410 0.15500
O 	O 	0.35900 0.30300 0.05780 -0.20200
O 	O 	0.48890 0.13900 0.16530 -0.56000
C 	C 	0.59970 0.02840 0.03410 -0.02700
O 	O 	0.69700 0.05600 0.05780 -0.16600
O 	O 	0.65010 0.13900 0.33470 -0.55700
C 	C 	0.42870 0.02840 0.46590 -0.03400
O 	O 	0.35900 0.05600 0.44220 -0.18600
O 	O 	0.48890 0.34990 0.33470 -0.56300
C 	C 	0.59970 0.57130 0.46590 0.15800
O 	O 	0.69700 0.64100 0.44220 -0.16300
O 	O 	0.86100 0.51110 0.33470 -0.56000
C 	C 	0.97160 0.40030 0.46590 0.34600
O 	O 	0.94400 0.30300 0.44220 -0.19600
O 	O 	0.34990 0.86100 0.83470 -0.56200
C 	C 	0.57130 0.97160 0.96590 0.34200
O 	O 	0.64100 0.94400 0.94220 -0.17900
O 	O 	0.51110 0.65010 0.83470 -0.55700
C 	C 	0.40030 0.42870 0.96590 0.15500
O 	O 	0.30300 0.35900 0.94220 -0.20200
O 	O 	0.13900 0.48890 0.83470 -0.56000
C 	C 	0.02840 0.59970 0.96590 -0.02700
O 	O 	0.05600 0.69700 0.94220 -0.16600
In	In	0.75152 0.24848 0.25000 2.00700
N 	N 	0.84100 0.15900 0.25000 -0.32900
In	In	0.75152 0.50304 0.25000 2.00800
N 	N 	0.84100 0.68200 0.25000 -0.32600
In	In	0.49696 0.24848 0.25000 2.00500
N 	N 	0.31800 0.15900 0.25000 -0.33300
In	In	0.24848 0.75152 0.75000 2.00700
N 	N 	0.15900 0.84100 0.75000 -0.32900
In	In	0.24848 0.49696 0.75000 2.00500
N 	N 	0.15900 0.31800 0.75000 -0.33300
In	In	0.50304 0.75152 0.75000 2.00800
N 	N 	0.68200 0.84100 0.75000 -0.32600
O 	O 	0.66667 0.33333 0.25000 -1.01100
O 	O 	0.33333 0.66667 0.75000 -1.01100
C 	C 	0.88540 0.44270 0.36160 0.54200
C 	C 	0.94490 0.47245 0.43240 -0.30300
C 	C 	0.55730 0.44270 0.36160 0.49700
C 	C 	0.52755 0.47245 0.43240 -0.20600
C 	C 	0.55730 0.11460 0.36160 0.45200
C 	C 	0.52755 0.05510 0.43240 -0.10800
C 	C 	0.11460 0.55730 0.86160 0.45300
C 	C 	0.05510 0.52755 0.93240 -0.11000
C 	C 	0.44270 0.55730 0.86160 0.49700
C 	C 	0.47245 0.52755 0.93240 -0.20600
C 	C 	0.44270 0.88540 0.86160 0.54200
C 	C 	0.47245 0.94490 0.93240 -0.30100
C 	C 	0.44270 0.88540 0.63840 0.54200
C 	C 	0.47245 0.94490 0.56760 -0.30300
C 	C 	0.44270 0.55730 0.63840 0.49700
C 	C 	0.47245 0.52755 0.56760 -0.20600
C 	C 	0.11460 0.55730 0.63840 0.45200
C 	C 	0.05510 0.52755 0.56760 -0.10800
C 	C 	0.55730 0.11460 0.13840 0.45300
C 	C 	0.52755 0.05510 0.06760 -0.11000
C 	C 	0.55730 0.44270 0.13840 0.49700
C 	C 	0.52755 0.47245 0.06760 -0.20600
C 	C 	0.88540 0.44270 0.13840 0.54200
C 	C 	0.94490 0.47245 0.06760 -0.30100
C 	C 	0.87370 0.12630 0.30330 0.14200
H 	H 	0.86070 0.13930 0.35090 -0.01700
N 	N 	0.92760 0.07240 0.28840 -0.22800
C 	C 	0.87370 0.74740 0.30330 0.15800
H 	H 	0.86070 0.72140 0.35090 -0.00100
N 	N 	0.92760 0.85520 0.28840 -0.18100
C 	C 	0.25260 0.12630 0.30330 0.12500
H 	H 	0.27860 0.13930 0.35090 -0.03500
N 	N 	0.14480 0.07240 0.28840 -0.28300
C 	C 	0.12630 0.87370 0.80330 0.14200
H 	H 	0.13930 0.86070 0.85090 -0.01700
N 	N 	0.07240 0.92760 0.78840 -0.22800
C 	C 	0.12630 0.25260 0.80330 0.12500
H 	H 	0.13930 0.27860 0.85090 -0.03500
N 	N 	0.07240 0.14480 0.78840 -0.28300
C 	C 	0.74740 0.87370 0.80330 0.15800
H 	H 	0.72140 0.86070 0.85090 -0.00200
N 	N 	0.85520 0.92760 0.78840 -0.18100
C 	C 	0.12630 0.87370 0.69670 0.14200
H 	H 	0.13930 0.86070 0.64910 -0.01700
N 	N 	0.07240 0.92760 0.71160 -0.22800
C 	C 	0.74740 0.87370 0.69670 0.15800
H 	H 	0.72140 0.86070 0.64910 -0.00100
N 	N 	0.85520 0.92760 0.71160 -0.18100
C 	C 	0.12630 0.25260 0.69670 0.12500
H 	H 	0.13930 0.27860 0.64910 -0.03500
N 	N 	0.07240 0.14480 0.71160 -0.28300
C 	C 	0.87370 0.12630 0.19670 0.14200
H 	H 	0.86070 0.13930 0.14910 -0.01700
N 	N 	0.92760 0.07240 0.21160 -0.22800
C 	C 	0.25260 0.12630 0.19670 0.12500
H 	H 	0.27860 0.13930 0.14910 -0.03500
N 	N 	0.14480 0.07240 0.21160 -0.28300
C 	C 	0.87370 0.74740 0.19670 0.15800
H 	H 	0.86070 0.72140 0.14910 -0.00200
N 	N 	0.92760 0.85520 0.21160 -0.18100
Co	Co	-0.00000 -0.00000 0.35323 0.94600
Co	Co	-0.00000 0.00000 0.85323 0.94600
Co	Co	-0.00000 0.00000 0.64677 0.94600
Co	Co	-0.00000 0.00000 0.14677 0.94600
