data_crystal

_cell_length_a 13.80400
_cell_length_b 13.80400
_cell_length_c 18.43500
_cell_angle_alpha 90.00000
_cell_angle_beta  90.00000
_cell_angle_gamma 120.00000

_symmetry_space_group_name_	'P 1'
_symmetry_space_group_name_H-M	'P 1'

loop_
_symmetry_equiv_pos_as_xyz
  x,y,z

loop_
_atom_site_label
_atom_site_type_symbol
_atom_site_fract_x
_atom_site_fract_y
_atom_site_fract_z
_atom_site_charge
O 	O 	0.48850 0.35030 0.33460 -0.56400
C 	C 	0.42860 0.40220 0.46620 0.13900
O 	O 	0.34970 0.30520 0.43490 -0.19300
O 	O 	0.64970 0.13820 0.33460 -0.55800
C 	C 	0.59780 0.02640 0.46620 -0.05100
O 	O 	0.69480 0.04450 0.43490 -0.16400
O 	O 	0.86180 0.51150 0.33460 -0.56400
C 	C 	0.97360 0.57140 0.46620 0.33400
O 	O 	0.95550 0.65030 0.43490 -0.16300
O 	O 	0.51150 0.64970 0.83460 -0.55900
C 	C 	0.57140 0.59780 0.96620 0.14200
O 	O 	0.65030 0.69480 0.93490 -0.15500
O 	O 	0.35030 0.86180 0.83460 -0.56600
C 	C 	0.40220 0.97360 0.96620 0.33200
O 	O 	0.30520 0.95550 0.93490 -0.17900
O 	O 	0.13820 0.48850 0.83460 -0.56100
C 	C 	0.02640 0.42860 0.96620 -0.05300
O 	O 	0.04450 0.34970 0.93490 -0.18400
O 	O 	0.35030 0.48850 0.66540 -0.56500
C 	C 	0.40220 0.42860 0.53380 0.13800
O 	O 	0.30520 0.34970 0.56510 -0.19300
O 	O 	0.13820 0.64970 0.66540 -0.55800
C 	C 	0.02640 0.59780 0.53380 -0.05100
O 	O 	0.04450 0.69480 0.56510 -0.16400
O 	O 	0.51150 0.86180 0.66540 -0.56400
C 	C 	0.57140 0.97360 0.53380 0.33400
O 	O 	0.65030 0.95550 0.56510 -0.16300
O 	O 	0.64970 0.51150 0.16540 -0.55900
C 	C 	0.59780 0.57140 0.03380 0.14200
O 	O 	0.69480 0.65030 0.06510 -0.15500
O 	O 	0.86180 0.35030 0.16540 -0.56600
C 	C 	0.97360 0.40220 0.03380 0.33200
O 	O 	0.95550 0.30520 0.06510 -0.17900
O 	O 	0.48850 0.13820 0.16540 -0.56100
C 	C 	0.42860 0.02640 0.03380 -0.05300
O 	O 	0.34970 0.04450 0.06510 -0.18400
O 	O 	0.51150 0.64970 0.66540 -0.55900
C 	C 	0.57140 0.59780 0.53380 0.14200
O 	O 	0.65030 0.69480 0.56510 -0.15400
O 	O 	0.35030 0.86180 0.66540 -0.56600
C 	C 	0.40220 0.97360 0.53380 0.33500
O 	O 	0.30520 0.95550 0.56510 -0.17900
O 	O 	0.13820 0.48850 0.66540 -0.56100
C 	C 	0.02640 0.42860 0.53380 -0.05600
O 	O 	0.04450 0.34970 0.56510 -0.18400
O 	O 	0.48850 0.35030 0.16540 -0.56500
C 	C 	0.42860 0.40220 0.03380 0.13800
O 	O 	0.34970 0.30520 0.06510 -0.19300
O 	O 	0.64970 0.13820 0.16540 -0.55800
C 	C 	0.59780 0.02640 0.03380 -0.04800
O 	O 	0.69480 0.04450 0.06510 -0.16400
O 	O 	0.86180 0.51150 0.16540 -0.56300
C 	C 	0.97360 0.57140 0.03380 0.33100
O 	O 	0.95550 0.65030 0.06510 -0.16300
O 	O 	0.64970 0.51150 0.33460 -0.55900
C 	C 	0.59780 0.57140 0.46620 0.14200
O 	O 	0.69480 0.65030 0.43490 -0.15400
O 	O 	0.86180 0.35030 0.33460 -0.56600
C 	C 	0.97360 0.40220 0.46620 0.33500
O 	O 	0.95550 0.30520 0.43490 -0.17900
O 	O 	0.48850 0.13820 0.33460 -0.56100
C 	C 	0.42860 0.02640 0.46620 -0.05600
O 	O 	0.34970 0.04450 0.43490 -0.18400
O 	O 	0.35030 0.48850 0.83460 -0.56500
C 	C 	0.40220 0.42860 0.96620 0.13800
O 	O 	0.30520 0.34970 0.93490 -0.19300
O 	O 	0.13820 0.64970 0.83460 -0.55800
C 	C 	0.02640 0.59780 0.96620 -0.04800
O 	O 	0.04450 0.69480 0.93490 -0.16400
O 	O 	0.51150 0.86180 0.83460 -0.56300
C 	C 	0.57140 0.97360 0.96620 0.33100
O 	O 	0.65030 0.95550 0.93490 -0.16300
In	In	0.49766 0.24883 0.25000 2.00600
N 	N 	0.31760 0.15880 0.25000 -0.32400
In	In	0.75117 0.24883 0.25000 2.00800
N 	N 	0.84120 0.15880 0.25000 -0.32000
In	In	0.75117 0.50234 0.25000 2.00900
N 	N 	0.84120 0.68240 0.25000 -0.31700
In	In	0.50234 0.75117 0.75000 2.00900
N 	N 	0.68240 0.84120 0.75000 -0.31700
In	In	0.24883 0.75117 0.75000 2.00800
N 	N 	0.15880 0.84120 0.75000 -0.32000
In	In	0.24883 0.49766 0.75000 2.00600
N 	N 	0.15880 0.31760 0.75000 -0.32400
O 	O 	0.66667 0.33333 0.25000 -1.03500
O 	O 	0.33333 0.66667 0.75000 -1.03500
C 	C 	0.55700 0.44300 0.36130 0.50100
C 	C 	0.52870 0.47130 0.43400 -0.19300
C 	C 	0.55700 0.11400 0.36130 0.45300
C 	C 	0.52870 0.05740 0.43400 -0.08500
C 	C 	0.88600 0.44300 0.36130 0.54900
C 	C 	0.94260 0.47130 0.43400 -0.30000
C 	C 	0.44300 0.55700 0.86130 0.50100
C 	C 	0.47130 0.52870 0.93400 -0.19300
C 	C 	0.44300 0.88600 0.86130 0.54800
C 	C 	0.47130 0.94260 0.93400 -0.29800
C 	C 	0.11400 0.55700 0.86130 0.45400
C 	C 	0.05740 0.52870 0.93400 -0.08700
C 	C 	0.44300 0.55700 0.63870 0.50100
C 	C 	0.47130 0.52870 0.56600 -0.19300
C 	C 	0.11400 0.55700 0.63870 0.45300
C 	C 	0.05740 0.52870 0.56600 -0.08500
C 	C 	0.44300 0.88600 0.63870 0.54900
C 	C 	0.47130 0.94260 0.56600 -0.30000
C 	C 	0.55700 0.44300 0.13870 0.50100
C 	C 	0.52870 0.47130 0.06600 -0.19300
C 	C 	0.88600 0.44300 0.13870 0.54800
C 	C 	0.94260 0.47130 0.06600 -0.29800
C 	C 	0.55700 0.11400 0.13870 0.45400
C 	C 	0.52870 0.05740 0.06600 -0.08700
C 	C 	0.25210 0.12605 0.30460 0.11700
N 	N 	0.14540 0.07270 0.28740 -0.27600
H 	H 	0.27750 0.13875 0.35220 -0.03100
C 	C 	0.87395 0.12605 0.30460 0.13500
N 	N 	0.92730 0.07270 0.28740 -0.22300
H 	H 	0.86125 0.13875 0.35220 -0.01400
C 	C 	0.87395 0.74790 0.30460 0.15100
N 	N 	0.92730 0.85460 0.28740 -0.17800
H 	H 	0.86125 0.72250 0.35220 0.00100
C 	C 	0.74790 0.87395 0.80460 0.15000
N 	N 	0.85460 0.92730 0.78740 -0.17900
H 	H 	0.72250 0.86125 0.85220 0.00100
C 	C 	0.12605 0.87395 0.80460 0.13500
N 	N 	0.07270 0.92730 0.78740 -0.22300
H 	H 	0.13875 0.86125 0.85220 -0.01400
C 	C 	0.12605 0.25210 0.80460 0.11700
N 	N 	0.07270 0.14540 0.78740 -0.27600
H 	H 	0.13875 0.27750 0.85220 -0.03100
C 	C 	0.12605 0.25210 0.69540 0.11700
N 	N 	0.07270 0.14540 0.71260 -0.27600
H 	H 	0.13875 0.27750 0.64780 -0.03100
C 	C 	0.12605 0.87395 0.69540 0.13500
N 	N 	0.07270 0.92730 0.71260 -0.22300
H 	H 	0.13875 0.86125 0.64780 -0.01400
C 	C 	0.74790 0.87395 0.69540 0.15100
N 	N 	0.85460 0.92730 0.71260 -0.17800
H 	H 	0.72250 0.86125 0.64780 0.00100
C 	C 	0.87395 0.74790 0.19540 0.15000
N 	N 	0.92730 0.85460 0.21260 -0.17900
H 	H 	0.86125 0.72250 0.14780 0.00100
C 	C 	0.87395 0.12605 0.19540 0.13500
N 	N 	0.92730 0.07270 0.21260 -0.22300
H 	H 	0.86125 0.13875 0.14780 -0.01400
C 	C 	0.25210 0.12605 0.19540 0.11700
N 	N 	0.14540 0.07270 0.21260 -0.27600
H 	H 	0.27750 0.13875 0.14780 -0.03100
Co	Co	-0.00000 0.00000 0.35263 0.94800
Co	Co	-0.00000 0.00000 0.85263 0.94800
Co	Co	0.00000 0.00000 0.64737 0.94800
Co	Co	-0.00000 0.00000 0.14737 0.94800
