data_crystal

_cell_length_a 15.76720
_cell_length_b 15.76720
_cell_length_c 16.68140
_cell_angle_alpha 90.00000
_cell_angle_beta  90.00000
_cell_angle_gamma 120.00000

_symmetry_space_group_name_	'P 1'
_symmetry_space_group_name_H-M	'P 1'

loop_
_symmetry_equiv_pos_as_xyz
  x,y,z

loop_
_atom_site_label
_atom_site_type_symbol
_atom_site_fract_x
_atom_site_fract_y
_atom_site_fract_z
_atom_site_charge
O 	O 	0.83700 0.48830 0.65960 -0.40800
C 	C 	0.96960 0.56070 0.53270 0.06600
O 	O 	0.93400 0.62010 0.56040 -0.15900
O 	O 	0.51170 0.34870 0.65960 -0.40900
C 	C 	0.43930 0.40890 0.53270 0.11900
O 	O 	0.37990 0.31390 0.56040 -0.15500
O 	O 	0.65130 0.16300 0.65960 -0.41300
C 	C 	0.59110 0.03040 0.53270 0.17100
O 	O 	0.68610 0.06600 0.56040 -0.16200
O 	O 	0.16300 0.51170 0.15960 -0.41200
C 	C 	0.03040 0.43930 0.03270 0.17100
O 	O 	0.06600 0.37990 0.06040 -0.15800
O 	O 	0.48830 0.65130 0.15960 -0.41100
C 	C 	0.56070 0.59110 0.03270 0.11700
O 	O 	0.62010 0.68610 0.06040 -0.16400
O 	O 	0.34870 0.83700 0.15960 -0.40800
C 	C 	0.40890 0.96960 0.03270 0.06600
O 	O 	0.31390 0.93400 0.06040 -0.15600
O 	O 	0.48830 0.83700 0.34040 -0.40900
C 	C 	0.56070 0.96960 0.46730 0.06500
O 	O 	0.62010 0.93400 0.43960 -0.16000
O 	O 	0.34870 0.51170 0.34040 -0.41000
C 	C 	0.40890 0.43930 0.46730 0.11900
O 	O 	0.31390 0.37990 0.43960 -0.15500
O 	O 	0.16300 0.65130 0.34040 -0.41300
C 	C 	0.03040 0.59110 0.46730 0.17100
O 	O 	0.06600 0.68610 0.43960 -0.16200
O 	O 	0.51170 0.16300 0.84040 -0.41200
C 	C 	0.43930 0.03040 0.96730 0.17100
O 	O 	0.37990 0.06600 0.93960 -0.15800
O 	O 	0.65130 0.48830 0.84040 -0.41100
C 	C 	0.59110 0.56070 0.96730 0.11700
O 	O 	0.68610 0.62010 0.93960 -0.16400
O 	O 	0.83700 0.34870 0.84040 -0.40800
C 	C 	0.96960 0.40890 0.96730 0.06600
O 	O 	0.93400 0.31390 0.93960 -0.15600
O 	O 	0.16300 0.51170 0.34040 -0.41200
C 	C 	0.03040 0.43930 0.46730 0.17200
O 	O 	0.06600 0.37990 0.43960 -0.15800
O 	O 	0.48830 0.65130 0.34040 -0.41100
C 	C 	0.56070 0.59110 0.46730 0.11800
O 	O 	0.62010 0.68610 0.43960 -0.16400
O 	O 	0.34870 0.83700 0.34040 -0.40800
C 	C 	0.40890 0.96960 0.46730 0.06400
O 	O 	0.31390 0.93400 0.43960 -0.15600
O 	O 	0.83700 0.48830 0.84040 -0.40900
C 	C 	0.96960 0.56070 0.96730 0.06500
O 	O 	0.93400 0.62010 0.93960 -0.16000
O 	O 	0.51170 0.34870 0.84040 -0.41000
C 	C 	0.43930 0.40890 0.96730 0.11800
O 	O 	0.37990 0.31390 0.93960 -0.15500
O 	O 	0.65130 0.16300 0.84040 -0.41300
C 	C 	0.59110 0.03040 0.96730 0.17100
O 	O 	0.68610 0.06600 0.93960 -0.16100
O 	O 	0.51170 0.16300 0.65960 -0.41200
C 	C 	0.43930 0.03040 0.53270 0.17200
O 	O 	0.37990 0.06600 0.56040 -0.15800
O 	O 	0.65130 0.48830 0.65960 -0.41100
C 	C 	0.59110 0.56070 0.53270 0.11800
O 	O 	0.68610 0.62010 0.56040 -0.16400
O 	O 	0.83700 0.34870 0.65960 -0.40800
C 	C 	0.96960 0.40890 0.53270 0.06400
O 	O 	0.93400 0.31390 0.56040 -0.15600
O 	O 	0.48830 0.83700 0.15960 -0.40900
C 	C 	0.56070 0.96960 0.03270 0.06500
O 	O 	0.62010 0.93400 0.06040 -0.16000
O 	O 	0.34870 0.51170 0.15960 -0.41000
C 	C 	0.40890 0.43930 0.03270 0.11800
O 	O 	0.31390 0.37990 0.06040 -0.15500
O 	O 	0.16300 0.65130 0.15960 -0.41300
C 	C 	0.03040 0.59110 0.03270 0.17100
O 	O 	0.06600 0.68610 0.06040 -0.16100
Fe	Fe	0.74206 0.48411 0.75000 1.21700
N 	N 	0.82170 0.64340 0.75000 -0.25200
Fe	Fe	0.51589 0.25794 0.75000 1.21800
N 	N 	0.35660 0.17830 0.75000 -0.25100
Fe	Fe	0.74206 0.25794 0.75000 1.21700
N 	N 	0.82170 0.17830 0.75000 -0.25200
Fe	Fe	0.25794 0.51589 0.25000 1.21800
N 	N 	0.17830 0.35660 0.25000 -0.25100
Fe	Fe	0.48411 0.74206 0.25000 1.21700
N 	N 	0.64340 0.82170 0.25000 -0.25200
Fe	Fe	0.25794 0.74206 0.25000 1.21700
N 	N 	0.17830 0.82170 0.25000 -0.25200
O 	O 	0.66667 0.33333 0.75000 -0.56600
O 	O 	0.33333 0.66667 0.25000 -0.56600
C 	C 	0.86330 0.43165 0.63330 0.42300
C 	C 	0.93450 0.46725 0.56440 -0.12700
C 	C 	0.56835 0.43165 0.63330 0.43400
C 	C 	0.53275 0.46725 0.56440 -0.15400
C 	C 	0.56835 0.13670 0.63330 0.44600
C 	C 	0.53275 0.06550 0.56440 -0.18200
C 	C 	0.13670 0.56835 0.13330 0.44600
C 	C 	0.06550 0.53275 0.06440 -0.18100
C 	C 	0.43165 0.56835 0.13330 0.43400
C 	C 	0.46725 0.53275 0.06440 -0.15400
C 	C 	0.43165 0.86330 0.13330 0.42300
C 	C 	0.46725 0.93450 0.06440 -0.12700
C 	C 	0.43165 0.86330 0.36670 0.42300
C 	C 	0.46725 0.93450 0.43560 -0.12700
C 	C 	0.43165 0.56835 0.36670 0.43400
C 	C 	0.46725 0.53275 0.43560 -0.15400
C 	C 	0.13670 0.56835 0.36670 0.44600
C 	C 	0.06550 0.53275 0.43560 -0.18200
C 	C 	0.56835 0.13670 0.86670 0.44600
C 	C 	0.53275 0.06550 0.93560 -0.18100
C 	C 	0.56835 0.43165 0.86670 0.43400
C 	C 	0.53275 0.46725 0.93560 -0.15400
C 	C 	0.86330 0.43165 0.86670 0.42300
C 	C 	0.93450 0.46725 0.93560 -0.12700
N 	N 	0.94040 0.79450 0.75000 -0.23700
C 	C 	0.90900 0.70020 0.75000 0.16700
H 	H 	0.95310 0.67740 0.75000 -0.03400
N 	N 	0.20550 0.14590 0.75000 -0.22000
C 	C 	0.29980 0.20880 0.75000 0.17100
H 	H 	0.32260 0.27570 0.75000 -0.02600
N 	N 	0.85410 0.05960 0.75000 -0.22000
C 	C 	0.79120 0.09100 0.75000 0.16900
H 	H 	0.72430 0.04690 0.75000 -0.02100
N 	N 	0.05960 0.20550 0.25000 -0.21400
C 	C 	0.09100 0.29980 0.25000 0.17100
H 	H 	0.04690 0.32260 0.25000 -0.02000
N 	N 	0.79450 0.85410 0.25000 -0.23200
C 	C 	0.70020 0.79120 0.25000 0.16600
H 	H 	0.67740 0.72430 0.25000 -0.02900
N 	N 	0.14590 0.94040 0.25000 -0.23200
C 	C 	0.20880 0.90900 0.25000 0.16900
H 	H 	0.27570 0.95310 0.25000 -0.03300
N 	N 	0.79450 0.94040 0.25000 -0.23700
C 	C 	0.70020 0.90900 0.25000 0.16700
H 	H 	0.67740 0.95310 0.25000 -0.03400
N 	N 	0.14590 0.20550 0.25000 -0.22000
C 	C 	0.20880 0.29980 0.25000 0.17100
H 	H 	0.27570 0.32260 0.25000 -0.02600
N 	N 	0.05960 0.85410 0.25000 -0.22000
C 	C 	0.09100 0.79120 0.25000 0.16900
H 	H 	0.04690 0.72430 0.25000 -0.02100
N 	N 	0.20550 0.05960 0.75000 -0.21400
C 	C 	0.29980 0.09100 0.75000 0.17100
H 	H 	0.32260 0.04690 0.75000 -0.02000
N 	N 	0.85410 0.79450 0.75000 -0.23200
C 	C 	0.79120 0.70020 0.75000 0.16600
H 	H 	0.72430 0.67740 0.75000 -0.02900
N 	N 	0.94040 0.14590 0.75000 -0.23200
C 	C 	0.90900 0.20880 0.75000 0.16900
H 	H 	0.95310 0.27570 0.75000 -0.03300
Cu	Cu	0.07467 0.92533 0.75000 0.81400
Cu	Cu	0.07467 0.14934 0.75000 0.83300
Cu	Cu	0.85066 0.92533 0.75000 0.80000
Cu	Cu	0.92533 0.07467 0.25000 0.81400
Cu	Cu	0.92533 0.85066 0.25000 0.80000
Cu	Cu	0.14934 0.07467 0.25000 0.83300
O 	O 	-0.00000 0.00000 0.75000 -0.53800
O 	O 	0.00000 0.00000 0.25000 -0.53800
