data_crystal

_cell_length_a 13.16960
_cell_length_b 13.16960
_cell_length_c 14.79730
_cell_angle_alpha 90.00000
_cell_angle_beta  90.00000
_cell_angle_gamma 120.00000

_symmetry_space_group_name_	'P 1'
_symmetry_space_group_name_H-M	'P 1'

loop_
_symmetry_equiv_pos_as_xyz
  x,y,z

loop_
_atom_site_label
_atom_site_type_symbol
_atom_site_fract_x
_atom_site_fract_y
_atom_site_fract_z
_atom_site_charge
O 	O 	0.88220 0.49010 0.64780 -0.49500
O 	O 	0.76230 0.56510 0.65270 -0.50900
C 	C 	0.92760 0.75910 0.55430 0.13300
H 	H 	0.87500 0.76810 0.59050 -0.01800
C 	C 	0.92780 0.65420 0.55870 -0.11800
C 	C 	0.84850 0.56010 0.62600 0.44900
O 	O 	0.50990 0.39210 0.64780 -0.51500
O 	O 	0.43490 0.19720 0.65270 -0.52800
C 	C 	0.24090 0.16850 0.55430 0.09900
H 	H 	0.23190 0.10690 0.59050 -0.04100
C 	C 	0.34580 0.27360 0.55870 -0.19100
C 	C 	0.43990 0.28840 0.62600 0.46500
O 	O 	0.60790 0.11780 0.64780 -0.52000
O 	O 	0.80280 0.23770 0.65270 -0.50800
C 	C 	0.83150 0.07240 0.55430 0.08100
H 	H 	0.89310 0.12500 0.59050 -0.00700
C 	C 	0.72640 0.07220 0.55870 -0.15600
C 	C 	0.71160 0.15150 0.62600 0.45300
O 	O 	0.88220 0.49010 0.85220 -0.49200
O 	O 	0.76230 0.56510 0.84730 -0.50700
C 	C 	0.92760 0.75910 0.94570 0.13600
H 	H 	0.87500 0.76810 0.90950 -0.01800
C 	C 	0.92780 0.65420 0.94130 -0.10900
C 	C 	0.84850 0.56010 0.87400 0.44700
O 	O 	0.50990 0.39210 0.85220 -0.51200
O 	O 	0.43490 0.19720 0.84730 -0.52600
C 	C 	0.24090 0.16850 0.94570 0.10600
H 	H 	0.23190 0.10690 0.90950 -0.04100
C 	C 	0.34580 0.27360 0.94130 -0.18000
C 	C 	0.43990 0.28840 0.87400 0.46300
O 	O 	0.60790 0.11780 0.85220 -0.51800
O 	O 	0.80280 0.23770 0.84730 -0.50700
C 	C 	0.83150 0.07240 0.94570 0.08600
H 	H 	0.89310 0.12500 0.90950 -0.00800
C 	C 	0.72640 0.07220 0.94130 -0.14500
C 	C 	0.71160 0.15150 0.87400 0.45000
O 	O 	0.49010 0.88220 0.35220 -0.49400
O 	O 	0.56510 0.76230 0.34730 -0.50900
C 	C 	0.75910 0.92760 0.44570 0.13400
H 	H 	0.76810 0.87500 0.40950 -0.01800
C 	C 	0.65420 0.92780 0.44130 -0.11600
C 	C 	0.56010 0.84850 0.37400 0.44900
O 	O 	0.39210 0.50990 0.35220 -0.51500
O 	O 	0.19720 0.43490 0.34730 -0.52800
C 	C 	0.16850 0.24090 0.44570 0.09900
H 	H 	0.10690 0.23190 0.40950 -0.04100
C 	C 	0.27360 0.34580 0.44130 -0.19100
C 	C 	0.28840 0.43990 0.37400 0.46600
O 	O 	0.11780 0.60790 0.35220 -0.52100
O 	O 	0.23770 0.80280 0.34730 -0.50800
C 	C 	0.07240 0.83150 0.44570 0.08200
H 	H 	0.12500 0.89310 0.40950 -0.00700
C 	C 	0.07220 0.72640 0.44130 -0.15700
C 	C 	0.15150 0.71160 0.37400 0.45300
O 	O 	0.49010 0.88220 0.14780 -0.49400
O 	O 	0.56510 0.76230 0.15270 -0.50900
C 	C 	0.75910 0.92760 0.05430 0.13000
H 	H 	0.76810 0.87500 0.09050 -0.01800
C 	C 	0.65420 0.92780 0.05870 -0.11100
C 	C 	0.56010 0.84850 0.12600 0.44700
O 	O 	0.39210 0.50990 0.14780 -0.51500
O 	O 	0.19720 0.43490 0.15270 -0.52800
C 	C 	0.16850 0.24090 0.05430 0.09500
H 	H 	0.10690 0.23190 0.09050 -0.04100
C 	C 	0.27360 0.34580 0.05870 -0.18700
C 	C 	0.28840 0.43990 0.12600 0.46400
O 	O 	0.11780 0.60790 0.14780 -0.52100
O 	O 	0.23770 0.80280 0.15270 -0.50900
C 	C 	0.07240 0.83150 0.05430 0.07900
H 	H 	0.12500 0.89310 0.09050 -0.00700
C 	C 	0.07220 0.72640 0.05870 -0.15400
C 	C 	0.15150 0.71160 0.12600 0.45100
Cu	Cu	-0.00000 0.00000 0.50000 0.78800
Cu	Cu	-0.00000 0.00000 -0.00000 0.78600
Mg	Mg	0.83400 0.36465 0.75000 1.47200
Mg	Mg	0.63535 0.46935 0.75000 1.47100
Mg	Mg	0.53065 0.16600 0.75000 1.47000
Mg	Mg	0.36465 0.83400 0.25000 1.47200
Mg	Mg	0.46935 0.63535 0.25000 1.47100
Mg	Mg	0.16600 0.53065 0.25000 1.47000
O 	O 	0.66667 0.33333 0.75000 -0.75400
O 	O 	0.33333 0.66667 0.25000 -0.75400
N 	N 	0.00000 0.84900 0.50000 -0.27300
C 	C 	0.00000 0.63680 0.50000 0.03000
H 	H 	0.00000 0.56620 0.50000 0.02300
N 	N 	0.15100 0.15100 0.50000 -0.28000
C 	C 	0.36320 0.36320 0.50000 0.11600
H 	H 	0.43380 0.43380 0.50000 0.01200
N 	N 	0.84900 0.00000 0.50000 -0.27500
C 	C 	0.63680 0.00000 0.50000 0.02700
H 	H 	0.56620 0.00000 0.50000 0.02400
N 	N 	0.00000 0.84900 -0.00000 -0.27700
C 	C 	-0.00000 0.63680 -0.00000 0.01800
H 	H 	-0.00000 0.56620 -0.00000 0.02500
N 	N 	0.15100 0.15100 -0.00000 -0.28500
C 	C 	0.36320 0.36320 -0.00000 0.10100
H 	H 	0.43380 0.43380 -0.00000 0.01400
N 	N 	0.84900 0.00000 -0.00000 -0.27900
C 	C 	0.63680 0.00000 -0.00000 0.01200
H 	H 	0.56620 0.00000 -0.00000 0.02600
