data_crystal

_cell_length_a 10.07000
_cell_length_b 13.10700
_cell_length_c 15.21600
_cell_angle_alpha 78.42000
_cell_angle_beta  76.52700
_cell_angle_gamma 68.20400

_symmetry_space_group_name_	'P 1'
_symmetry_space_group_name_H-M	'P 1'

loop_
_symmetry_equiv_pos_as_xyz
  x,y,z

loop_
_atom_site_label
_atom_site_type_symbol
_atom_site_fract_x
_atom_site_fract_y
_atom_site_fract_z
_atom_site_charge
Ni	Ni	0.01571 0.57777 0.34037 1.08700
Ni	Ni	0.73771 0.80245 0.26034 1.11200
C 	C 	0.24800 0.62920 0.20360 0.35600
C 	C 	0.40480 0.59990 0.16120 -0.12500
C 	C 	0.44530 0.62710 0.06920 0.05600
H 	H 	0.37450 0.66270 0.03290 0.03000
C 	C 	0.59020 0.60210 0.03050 -0.12600
H 	H 	0.61580 0.61970 0.96800 0.08100
C 	C 	0.51090 0.54650 0.21340 0.05800
H 	H 	0.48490 0.52510 0.27510 0.02500
C 	C 	0.65510 0.52430 0.17550 -0.12500
H 	H 	0.72550 0.49050 0.21240 0.08200
C 	C 	0.69700 0.55180 0.08236 0.07400
C 	C 	0.85240 0.52770 0.04055 0.02000
C 	C 	0.90490 0.48070 0.95986 -0.03300
H 	H 	0.84090 0.46730 0.93210 0.05600
C 	C 	0.95030 0.54670 0.08057 -0.07600
C 	C 	0.90650 0.60010 0.16613 0.39000
C 	C 	0.69710 0.61730 0.40770 0.40000
C 	C 	0.59370 0.55940 0.45945 -0.10200
C 	C 	0.63000 0.44970 0.44842 -0.02700
H 	H 	0.71920 0.41530 0.41350 0.03900
C 	C 	0.53940 0.38840 0.48709 0.01500
C 	C 	0.58560 0.27240 0.46698 0.06600
C 	C 	0.72970 0.20410 0.46650 -0.12200
H 	H 	0.79430 0.22970 0.48270 0.07100
C 	C 	0.77700 0.09920 0.44240 0.05400
H 	H 	0.87330 0.05430 0.44290 0.02800
C 	C 	0.49230 0.23120 0.44440 -0.11500
H 	H 	0.39510 0.27480 0.44600 0.07000
C 	C 	0.54100 0.12590 0.41950 0.05200
H 	H 	0.47670 0.09950 0.40390 0.02800
C 	C 	0.68480 0.05970 0.41750 -0.12100
C 	C 	0.74180 0.94840 0.38340 0.36300
O 	O 	0.15840 0.71055 0.16631 -0.31100
O 	O 	0.21800 0.56941 0.27525 -0.43900
O 	O 	0.81250 0.69541 0.16506 -0.40800
O 	O 	0.97070 0.54418 0.22986 -0.43100
O 	O 	0.82650 0.56983 0.41990 -0.47200
O 	O 	0.64990 0.70293 0.35602 -0.43600
O 	O 	0.86690 0.88792 0.39769 -0.34300
O 	O 	0.66420 0.92624 0.34258 -0.42100
O 	O 	0.93637 0.74297 0.29644 -0.99700
H 	H 	0.01360 0.74450 0.25970 0.39900
H 	H 	0.92900 0.77550 0.34130 0.38500
O 	O 	0.81120 0.91610 0.15849 -0.49200
H 	H 	0.73070 0.90530 0.16730 0.12900
H 	H 	0.82820 0.91820 0.21010 0.19600
Ni	Ni	0.98429 0.42223 0.65963 1.08700
Ni	Ni	0.26229 0.19755 0.73966 1.11200
C 	C 	0.75200 0.37080 0.79640 0.35600
C 	C 	0.59520 0.40010 0.83880 -0.12500
C 	C 	0.55470 0.37290 0.93080 0.05600
H 	H 	0.62550 0.33730 0.96710 0.03000
C 	C 	0.40980 0.39790 0.96950 -0.12600
H 	H 	0.38420 0.38030 0.03200 0.08100
C 	C 	0.48910 0.45350 0.78660 0.05800
H 	H 	0.51510 0.47490 0.72490 0.02500
C 	C 	0.34490 0.47570 0.82450 -0.12500
H 	H 	0.27450 0.50950 0.78760 0.08200
C 	C 	0.30300 0.44820 0.91764 0.07400
C 	C 	0.14760 0.47230 0.95945 0.02000
C 	C 	0.09510 0.51930 0.04014 -0.03300
H 	H 	0.15910 0.53270 0.06790 0.05600
C 	C 	0.04970 0.45330 0.91943 -0.07600
C 	C 	0.09350 0.39990 0.83387 0.39000
C 	C 	0.30290 0.38270 0.59230 0.40000
C 	C 	0.40630 0.44060 0.54055 -0.10200
C 	C 	0.37000 0.55030 0.55158 -0.02700
H 	H 	0.28080 0.58470 0.58650 0.03900
C 	C 	0.46060 0.61160 0.51291 0.01500
C 	C 	0.41440 0.72760 0.53302 0.06600
C 	C 	0.27030 0.79590 0.53350 -0.12200
H 	H 	0.20570 0.77030 0.51730 0.07100
C 	C 	0.22300 0.90080 0.55760 0.05400
H 	H 	0.12670 0.94570 0.55710 0.02800
C 	C 	0.50770 0.76880 0.55560 -0.11500
H 	H 	0.60490 0.72520 0.55400 0.07000
C 	C 	0.45900 0.87410 0.58050 0.05200
H 	H 	0.52330 0.90050 0.59610 0.02800
C 	C 	0.31520 0.94030 0.58250 -0.12100
C 	C 	0.25820 0.05160 0.61660 0.36300
O 	O 	0.84160 0.28945 0.83369 -0.31100
O 	O 	0.78200 0.43059 0.72475 -0.43900
O 	O 	0.18750 0.30459 0.83494 -0.40800
O 	O 	0.02930 0.45582 0.77014 -0.43100
O 	O 	0.17350 0.43017 0.58010 -0.47200
O 	O 	0.35010 0.29707 0.64398 -0.43600
O 	O 	0.13310 0.11208 0.60231 -0.34300
O 	O 	0.33580 0.07376 0.65742 -0.42100
O 	O 	0.06363 0.25703 0.70356 -0.99700
H 	H 	0.98640 0.25550 0.74030 0.39900
H 	H 	0.07100 0.22450 0.65870 0.38500
O 	O 	0.18880 0.08390 0.84151 -0.49200
H 	H 	0.26930 0.09470 0.83270 0.12900
H 	H 	0.17180 0.08180 0.78990 0.19600
