data_crystal

_cell_length_a 19.50400
_cell_length_b 19.50400
_cell_length_c 37.93000
_cell_angle_alpha 90.00000
_cell_angle_beta  90.00000
_cell_angle_gamma 120.00000

_symmetry_space_group_name_	'P 1'
_symmetry_space_group_name_H-M	'P 1'

loop_
_symmetry_equiv_pos_as_xyz
  x,y,z

loop_
_atom_site_label
_atom_site_type_symbol
_atom_site_fract_x
_atom_site_fract_y
_atom_site_fract_z
_atom_site_charge
O 	O 	0.00470 0.61080 0.79620 -0.05000
O 	O 	0.07190 0.66260 0.78900 -0.02000
O 	O 	0.11551 0.48472 0.98612 -0.42300
O 	O 	0.95652 0.40516 0.96445 -0.47500
H 	H 	0.12530 0.79210 0.12460 1.16000
C 	C 	0.93730 0.40760 0.73259 -0.16900
H 	H 	0.94960 0.37160 0.74380 0.09300
C 	C 	0.90020 0.38870 0.69984 -0.00400
C 	C 	0.01110 0.55440 0.80410 -0.93100
C 	C 	0.03990 0.47470 0.89140 0.06700
H 	H 	0.03860 0.42830 0.90000 0.45400
C 	C 	0.02170 0.47580 0.85600 1.62100
H 	H 	0.00240 0.42960 0.84190 0.14200
C 	C 	0.03240 0.54650 0.84200 -1.18100
C 	C 	0.04900 0.44200 0.86380 -0.71600
H 	H 	0.05020 0.39690 0.85530 0.34200
C 	C 	0.06420 0.60120 0.89880 -0.70400
H 	H 	0.07910 0.64500 0.91410 0.14800
C 	C 	0.10040 0.45720 0.01691 0.35700
O 	O 	0.67137 0.94413 0.12953 -0.05000
O 	O 	0.73857 0.99593 0.12233 -0.02100
O 	O 	0.78218 0.81805 0.31945 -0.42400
O 	O 	0.62319 0.73849 0.29778 -0.47600
H 	H 	0.79197 0.12543 0.45793 1.15300
C 	C 	0.60397 0.74093 0.06592 -0.17000
H 	H 	0.61627 0.70493 0.07713 0.09100
C 	C 	0.56687 0.72203 0.03317 -0.00500
C 	C 	0.67777 0.88773 0.13743 -0.93700
C 	C 	0.70657 0.80803 0.22473 0.06600
H 	H 	0.70527 0.76163 0.23333 0.45600
C 	C 	0.68837 0.80913 0.18933 1.62800
H 	H 	0.66907 0.76293 0.17523 0.14300
C 	C 	0.69907 0.87983 0.17533 -1.18700
C 	C 	0.71567 0.77533 0.19713 -0.71900
H 	H 	0.71687 0.73023 0.18863 0.34300
C 	C 	0.73087 0.93453 0.23213 -0.70800
H 	H 	0.74577 0.97833 0.24743 0.14900
C 	C 	0.76707 0.79053 0.35024 0.35700
O 	O 	0.33803 0.27747 0.46287 -0.05000
O 	O 	0.40523 0.32927 0.45567 -0.02100
O 	O 	0.44884 0.15139 0.65279 -0.42400
O 	O 	0.28985 0.07183 0.63112 -0.47600
H 	H 	0.45863 0.45877 0.79127 1.16000
C 	C 	0.27063 0.07427 0.39926 -0.17000
H 	H 	0.28293 0.03827 0.41047 0.09100
C 	C 	0.23353 0.05537 0.36651 -0.00600
C 	C 	0.34443 0.22107 0.47077 -0.93200
C 	C 	0.37323 0.14137 0.55807 0.06500
H 	H 	0.37193 0.09497 0.56667 0.45300
C 	C 	0.35503 0.14247 0.52267 1.62000
H 	H 	0.33573 0.09627 0.50857 0.14300
C 	C 	0.36573 0.21317 0.50867 -1.18100
C 	C 	0.38233 0.10867 0.53047 -0.71700
H 	H 	0.38353 0.06357 0.52197 0.34200
C 	C 	0.39753 0.26787 0.56547 -0.70300
H 	H 	0.41243 0.31167 0.58077 0.14800
C 	C 	0.43373 0.12387 0.68358 0.35700
O 	O 	0.38920 0.39390 0.79620 -0.05000
O 	O 	0.33740 0.40930 0.78900 -0.02100
O 	O 	0.51528 0.63079 0.98612 -0.42400
O 	O 	0.59484 0.55136 0.96445 -0.47600
H 	H 	0.20790 0.33320 0.12460 1.15900
C 	C 	0.59240 0.52970 0.73259 -0.17100
H 	H 	0.62840 0.57800 0.74380 0.09100
C 	C 	0.61130 0.51150 0.69984 -0.00500
C 	C 	0.44560 0.45670 0.80410 -0.93800
C 	C 	0.52530 0.56520 0.89140 0.06600
H 	H 	0.57170 0.61030 0.90000 0.45700
C 	C 	0.52420 0.54590 0.85600 1.63100
H 	H 	0.57040 0.57280 0.84190 0.14300
C 	C 	0.45350 0.48590 0.84200 -1.18900
C 	C 	0.55800 0.60700 0.86380 -0.72000
H 	H 	0.60310 0.65330 0.85530 0.34300
C 	C 	0.39880 0.46300 0.89880 -0.71000
H 	H 	0.35500 0.43410 0.91410 0.14900
C 	C 	0.54280 0.64320 0.01691 0.35700
O 	O 	0.05587 0.72723 0.12953 -0.04900
O 	O 	0.00407 0.74263 0.12233 -0.02000
O 	O 	0.18195 0.96412 0.31945 -0.42400
O 	O 	0.26151 0.88469 0.29778 -0.47600
H 	H 	0.87457 0.66653 0.45793 1.15500
C 	C 	0.25907 0.86303 0.06592 -0.17000
H 	H 	0.29507 0.91133 0.07713 0.09200
C 	C 	0.27797 0.84483 0.03317 -0.00600
C 	C 	0.11227 0.79003 0.13743 -0.93700
C 	C 	0.19197 0.89853 0.22473 0.06600
H 	H 	0.23837 0.94363 0.23333 0.45600
C 	C 	0.19087 0.87923 0.18933 1.62900
H 	H 	0.23707 0.90613 0.17523 0.14300
C 	C 	0.12017 0.81923 0.17533 -1.18800
C 	C 	0.22467 0.94033 0.19713 -0.71900
H 	H 	0.26977 0.98663 0.18863 0.34300
C 	C 	0.06547 0.79633 0.23213 -0.70900
H 	H 	0.02167 0.76743 0.24743 0.15000
C 	C 	0.20947 0.97653 0.35024 0.35800
O 	O 	0.72253 0.06057 0.46287 -0.05100
O 	O 	0.67073 0.07597 0.45567 -0.02100
O 	O 	0.84861 0.29746 0.65279 -0.42400
O 	O 	0.92817 0.21803 0.63112 -0.47600
H 	H 	0.54123 0.99987 0.79127 1.15300
C 	C 	0.92573 0.19637 0.39926 -0.17000
H 	H 	0.96173 0.24467 0.41047 0.09100
C 	C 	0.94463 0.17817 0.36651 -0.00600
C 	C 	0.77893 0.12337 0.47077 -0.93100
C 	C 	0.85863 0.23187 0.55807 0.06500
H 	H 	0.90503 0.27697 0.56667 0.45200
C 	C 	0.85753 0.21257 0.52267 1.61600
H 	H 	0.90373 0.23947 0.50857 0.14300
C 	C 	0.78683 0.15257 0.50867 -1.17800
C 	C 	0.89133 0.27367 0.53047 -0.71500
H 	H 	0.93643 0.31997 0.52197 0.34200
C 	C 	0.73213 0.12967 0.56547 -0.70100
H 	H 	0.68833 0.10077 0.58077 0.14800
C 	C 	0.87613 0.30987 0.68358 0.35700
O 	O 	0.60610 0.99530 0.79620 -0.05100
O 	O 	0.59070 0.92810 0.78900 -0.02100
O 	O 	0.36921 0.88449 0.98612 -0.42500
O 	O 	0.44864 0.04348 0.96445 -0.47600
H 	H 	0.66680 0.87470 0.12460 1.15800
C 	C 	0.47030 0.06270 0.73259 -0.17000
H 	H 	0.42200 0.05040 0.74380 0.09200
C 	C 	0.48850 0.09980 0.69984 -0.00500
C 	C 	0.54330 0.98890 0.80410 -0.93200
C 	C 	0.43480 0.96010 0.89140 0.06600
H 	H 	0.38970 0.96140 0.90000 0.45300
C 	C 	0.45410 0.97830 0.85600 1.62000
H 	H 	0.42720 0.99760 0.84190 0.14200
C 	C 	0.51410 0.96760 0.84200 -1.18100
C 	C 	0.39300 0.95100 0.86380 -0.71600
H 	H 	0.34670 0.94980 0.85530 0.34200
C 	C 	0.53700 0.93580 0.89880 -0.70400
H 	H 	0.56590 0.92090 0.91410 0.14800
C 	C 	0.35680 0.89960 0.01691 0.35800
O 	O 	0.27277 0.32863 0.12953 -0.05000
O 	O 	0.25737 0.26143 0.12233 -0.02100
O 	O 	0.03588 0.21782 0.31945 -0.42400
O 	O 	0.11531 0.37681 0.29778 -0.47600
H 	H 	0.33347 0.20803 0.45793 1.15400
C 	C 	0.13697 0.39603 0.06592 -0.17000
H 	H 	0.08867 0.38373 0.07713 0.09200
C 	C 	0.15517 0.43313 0.03317 -0.00500
C 	C 	0.20997 0.32223 0.13743 -0.93700
C 	C 	0.10147 0.29343 0.22473 0.06600
H 	H 	0.05637 0.29473 0.23333 0.45600
C 	C 	0.12077 0.31163 0.18933 1.62800
H 	H 	0.09387 0.33093 0.17523 0.14300
C 	C 	0.18077 0.30093 0.17533 -1.18700
C 	C 	0.05967 0.28433 0.19713 -0.71900
H 	H 	0.01337 0.28313 0.18863 0.34300
C 	C 	0.20367 0.26913 0.23213 -0.70800
H 	H 	0.23257 0.25423 0.24743 0.14900
C 	C 	0.02347 0.23293 0.35024 0.35800
O 	O 	0.93943 0.66197 0.46287 -0.05000
O 	O 	0.92403 0.59477 0.45567 -0.02100
O 	O 	0.70254 0.55116 0.65279 -0.42400
O 	O 	0.78197 0.71015 0.63112 -0.47600
H 	H 	0.00013 0.54137 0.79127 1.15300
C 	C 	0.80363 0.72937 0.39926 -0.17000
H 	H 	0.75533 0.71707 0.41047 0.09100
C 	C 	0.82183 0.76647 0.36651 -0.00600
C 	C 	0.87663 0.65557 0.47077 -0.93300
C 	C 	0.76813 0.62677 0.55807 0.06500
H 	H 	0.72303 0.62807 0.56667 0.45300
C 	C 	0.78743 0.64497 0.52267 1.62000
H 	H 	0.76053 0.66427 0.50857 0.14300
C 	C 	0.84743 0.63427 0.50867 -1.18100
C 	C 	0.72633 0.61767 0.53047 -0.71700
H 	H 	0.68003 0.61647 0.52197 0.34200
C 	C 	0.87033 0.60247 0.56547 -0.70300
H 	H 	0.89923 0.58757 0.58077 0.14800
C 	C 	0.69013 0.56627 0.68358 0.35700
O 	O 	0.61080 0.00470 0.20380 -0.05100
O 	O 	0.66260 0.07190 0.21100 -0.02100
O 	O 	0.48472 0.11551 0.01388 -0.42400
O 	O 	0.40516 0.95652 0.03555 -0.47600
H 	H 	0.79210 0.12530 0.87540 1.15900
C 	C 	0.40760 0.93730 0.26741 -0.17000
H 	H 	0.37160 0.94960 0.25620 0.09200
C 	C 	0.38870 0.90020 0.30016 -0.00500
C 	C 	0.55440 0.01110 0.19590 -0.93200
C 	C 	0.47470 0.03990 0.10860 0.06600
H 	H 	0.42830 0.03860 0.10000 0.45300
C 	C 	0.47580 0.02170 0.14400 1.62000
H 	H 	0.42960 0.00240 0.15810 0.14200
C 	C 	0.54650 0.03240 0.15800 -1.18100
C 	C 	0.44200 0.04900 0.13620 -0.71600
H 	H 	0.39690 0.05020 0.14470 0.34200
C 	C 	0.60120 0.06420 0.10120 -0.70400
H 	H 	0.64500 0.07910 0.08590 0.14800
C 	C 	0.45720 0.10040 0.98309 0.35700
O 	O 	0.27747 0.33803 0.53713 -0.05000
O 	O 	0.32927 0.40523 0.54433 -0.02100
O 	O 	0.15139 0.44884 0.34721 -0.42400
O 	O 	0.07183 0.28985 0.36888 -0.47600
H 	H 	0.45877 0.45863 0.20873 1.16000
C 	C 	0.07427 0.27063 0.60074 -0.17000
H 	H 	0.03827 0.28293 0.58953 0.09100
C 	C 	0.05537 0.23353 0.63349 -0.00600
C 	C 	0.22107 0.34443 0.52923 -0.93200
C 	C 	0.14137 0.37323 0.44193 0.06500
H 	H 	0.09497 0.37193 0.43333 0.45300
C 	C 	0.14247 0.35503 0.47733 1.62000
H 	H 	0.09627 0.33573 0.49143 0.14300
C 	C 	0.21317 0.36573 0.49133 -1.18100
C 	C 	0.10867 0.38233 0.46953 -0.71700
H 	H 	0.06357 0.38353 0.47803 0.34200
C 	C 	0.26787 0.39753 0.43453 -0.70300
H 	H 	0.31167 0.41243 0.41923 0.14800
C 	C 	0.12387 0.43373 0.31642 0.35700
O 	O 	0.94413 0.67137 0.87047 -0.05000
O 	O 	0.99593 0.73857 0.87767 -0.02100
O 	O 	0.81805 0.78218 0.68055 -0.42400
O 	O 	0.73849 0.62319 0.70222 -0.47600
H 	H 	0.12543 0.79197 0.54207 1.15300
C 	C 	0.74093 0.60397 0.93408 -0.17000
H 	H 	0.70493 0.61627 0.92287 0.09100
C 	C 	0.72203 0.56687 0.96683 -0.00500
C 	C 	0.88773 0.67777 0.86257 -0.93700
C 	C 	0.80803 0.70657 0.77527 0.06600
H 	H 	0.76163 0.70527 0.76667 0.45600
C 	C 	0.80913 0.68837 0.81067 1.62800
H 	H 	0.76293 0.66907 0.82477 0.14300
C 	C 	0.87983 0.69907 0.82467 -1.18700
C 	C 	0.77533 0.71567 0.80287 -0.71900
H 	H 	0.73023 0.71687 0.81137 0.34300
C 	C 	0.93453 0.73087 0.76787 -0.70800
H 	H 	0.97833 0.74577 0.75257 0.14900
C 	C 	0.79053 0.76707 0.64976 0.35700
O 	O 	0.39390 0.38920 0.20380 -0.05000
O 	O 	0.40930 0.33740 0.21100 -0.02100
O 	O 	0.63079 0.51528 0.01388 -0.42400
O 	O 	0.55136 0.59484 0.03555 -0.47600
H 	H 	0.33320 0.20790 0.87540 1.15900
C 	C 	0.52970 0.59240 0.26741 -0.17100
H 	H 	0.57800 0.62840 0.25620 0.09100
C 	C 	0.51150 0.61130 0.30016 -0.00500
C 	C 	0.45670 0.44560 0.19590 -0.93800
C 	C 	0.56520 0.52530 0.10860 0.06600
H 	H 	0.61030 0.57170 0.10000 0.45700
C 	C 	0.54590 0.52420 0.14400 1.63100
H 	H 	0.57280 0.57040 0.15810 0.14300
C 	C 	0.48590 0.45350 0.15800 -1.18900
C 	C 	0.60700 0.55800 0.13620 -0.72000
H 	H 	0.65330 0.60310 0.14470 0.34300
C 	C 	0.46300 0.39880 0.10120 -0.71000
H 	H 	0.43410 0.35500 0.08590 0.14900
C 	C 	0.64320 0.54280 0.98309 0.35700
O 	O 	0.06057 0.72253 0.53713 -0.05100
O 	O 	0.07597 0.67073 0.54433 -0.02100
O 	O 	0.29746 0.84861 0.34721 -0.42400
O 	O 	0.21803 0.92817 0.36888 -0.47600
H 	H 	0.99987 0.54123 0.20873 1.15300
C 	C 	0.19637 0.92573 0.60074 -0.17000
H 	H 	0.24467 0.96173 0.58953 0.09100
C 	C 	0.17817 0.94463 0.63349 -0.00600
C 	C 	0.12337 0.77893 0.52923 -0.93100
C 	C 	0.23187 0.85863 0.44193 0.06500
H 	H 	0.27697 0.90503 0.43333 0.45200
C 	C 	0.21257 0.85753 0.47733 1.61600
H 	H 	0.23947 0.90373 0.49143 0.14300
C 	C 	0.15257 0.78683 0.49133 -1.17800
C 	C 	0.27367 0.89133 0.46953 -0.71500
H 	H 	0.31997 0.93643 0.47803 0.34200
C 	C 	0.12967 0.73213 0.43453 -0.70100
H 	H 	0.10077 0.68833 0.41923 0.14800
C 	C 	0.30987 0.87613 0.31642 0.35700
O 	O 	0.72723 0.05587 0.87047 -0.04900
O 	O 	0.74263 0.00407 0.87767 -0.02000
O 	O 	0.96412 0.18195 0.68055 -0.42400
O 	O 	0.88469 0.26151 0.70222 -0.47600
H 	H 	0.66653 0.87457 0.54207 1.15500
C 	C 	0.86303 0.25907 0.93408 -0.17000
H 	H 	0.91133 0.29507 0.92287 0.09200
C 	C 	0.84483 0.27797 0.96683 -0.00600
C 	C 	0.79003 0.11227 0.86257 -0.93700
C 	C 	0.89853 0.19197 0.77527 0.06600
H 	H 	0.94363 0.23837 0.76667 0.45600
C 	C 	0.87923 0.19087 0.81067 1.62900
H 	H 	0.90613 0.23707 0.82477 0.14300
C 	C 	0.81923 0.12017 0.82467 -1.18800
C 	C 	0.94033 0.22467 0.80287 -0.71900
H 	H 	0.98663 0.26977 0.81137 0.34300
C 	C 	0.79633 0.06547 0.76787 -0.70900
H 	H 	0.76743 0.02167 0.75257 0.15000
C 	C 	0.97653 0.20947 0.64976 0.35800
O 	O 	0.99530 0.60610 0.20380 -0.05100
O 	O 	0.92810 0.59070 0.21100 -0.02100
O 	O 	0.88449 0.36921 0.01388 -0.42500
O 	O 	0.04348 0.44864 0.03555 -0.47600
H 	H 	0.87470 0.66680 0.87540 1.15800
C 	C 	0.06270 0.47030 0.26741 -0.17000
H 	H 	0.05040 0.42200 0.25620 0.09200
C 	C 	0.09980 0.48850 0.30016 -0.00500
C 	C 	0.98890 0.54330 0.19590 -0.93200
C 	C 	0.96010 0.43480 0.10860 0.06600
H 	H 	0.96140 0.38970 0.10000 0.45300
C 	C 	0.97830 0.45410 0.14400 1.62000
H 	H 	0.99760 0.42720 0.15810 0.14200
C 	C 	0.96760 0.51410 0.15800 -1.18100
C 	C 	0.95100 0.39300 0.13620 -0.71600
H 	H 	0.94980 0.34670 0.14470 0.34200
C 	C 	0.93580 0.53700 0.10120 -0.70400
H 	H 	0.92090 0.56590 0.08590 0.14800
C 	C 	0.89960 0.35680 0.98309 0.35800
O 	O 	0.66197 0.93943 0.53713 -0.05000
O 	O 	0.59477 0.92403 0.54433 -0.02100
O 	O 	0.55116 0.70254 0.34721 -0.42400
O 	O 	0.71015 0.78197 0.36888 -0.47600
H 	H 	0.54137 0.00013 0.20873 1.15300
C 	C 	0.72937 0.80363 0.60074 -0.17000
H 	H 	0.71707 0.75533 0.58953 0.09100
C 	C 	0.76647 0.82183 0.63349 -0.00600
C 	C 	0.65557 0.87663 0.52923 -0.93300
C 	C 	0.62677 0.76813 0.44193 0.06500
H 	H 	0.62807 0.72303 0.43333 0.45300
C 	C 	0.64497 0.78743 0.47733 1.62000
H 	H 	0.66427 0.76053 0.49143 0.14300
C 	C 	0.63427 0.84743 0.49133 -1.18100
C 	C 	0.61767 0.72633 0.46953 -0.71700
H 	H 	0.61647 0.68003 0.47803 0.34200
C 	C 	0.60247 0.87033 0.43453 -0.70300
H 	H 	0.58757 0.89923 0.41923 0.14800
C 	C 	0.56627 0.69013 0.31642 0.35700
O 	O 	0.32863 0.27277 0.87047 -0.05000
O 	O 	0.26143 0.25737 0.87767 -0.02100
O 	O 	0.21782 0.03588 0.68055 -0.42400
O 	O 	0.37681 0.11531 0.70222 -0.47600
H 	H 	0.20803 0.33347 0.54207 1.15400
C 	C 	0.39603 0.13697 0.93408 -0.17000
H 	H 	0.38373 0.08867 0.92287 0.09200
C 	C 	0.43313 0.15517 0.96683 -0.00500
C 	C 	0.32223 0.20997 0.86257 -0.93700
C 	C 	0.29343 0.10147 0.77527 0.06600
H 	H 	0.29473 0.05637 0.76667 0.45600
C 	C 	0.31163 0.12077 0.81067 1.62800
H 	H 	0.33093 0.09387 0.82477 0.14300
C 	C 	0.30093 0.18077 0.82467 -1.18700
C 	C 	0.28433 0.05967 0.80287 -0.71900
H 	H 	0.28313 0.01337 0.81137 0.34300
C 	C 	0.26913 0.20367 0.76787 -0.70800
H 	H 	0.25423 0.23257 0.75257 0.14900
C 	C 	0.23293 0.02347 0.64976 0.35800
O 	O 	0.99530 0.38920 0.20380 -0.05100
O 	O 	0.92810 0.33740 0.21100 -0.02100
O 	O 	0.88449 0.51528 0.01388 -0.42400
O 	O 	0.04348 0.59484 0.03555 -0.47600
H 	H 	0.87470 0.20790 0.87540 1.15900
C 	C 	0.06270 0.59240 0.26741 -0.17000
H 	H 	0.05040 0.62840 0.25620 0.09200
C 	C 	0.09980 0.61130 0.30016 -0.00500
C 	C 	0.98890 0.44560 0.19590 -0.93200
C 	C 	0.96010 0.52530 0.10860 0.06600
H 	H 	0.96140 0.57170 0.10000 0.45300
C 	C 	0.97830 0.52420 0.14400 1.62000
H 	H 	0.99760 0.57040 0.15810 0.14200
C 	C 	0.96760 0.45350 0.15800 -1.18100
C 	C 	0.95100 0.55800 0.13620 -0.71600
H 	H 	0.94980 0.60310 0.14470 0.34200
C 	C 	0.93580 0.39880 0.10120 -0.70400
H 	H 	0.92090 0.35500 0.08590 0.14800
C 	C 	0.89960 0.54280 0.98309 0.35700
O 	O 	0.66197 0.72253 0.53713 -0.05000
O 	O 	0.59477 0.67073 0.54433 -0.02100
O 	O 	0.55116 0.84861 0.34721 -0.42400
O 	O 	0.71015 0.92817 0.36888 -0.47600
H 	H 	0.54137 0.54123 0.20873 1.16000
C 	C 	0.72937 0.92573 0.60074 -0.17000
H 	H 	0.71707 0.96173 0.58953 0.09100
C 	C 	0.76647 0.94463 0.63349 -0.00600
C 	C 	0.65557 0.77893 0.52923 -0.93200
C 	C 	0.62677 0.85863 0.44193 0.06500
H 	H 	0.62807 0.90503 0.43333 0.45300
C 	C 	0.64497 0.85753 0.47733 1.62000
H 	H 	0.66427 0.90373 0.49143 0.14300
C 	C 	0.63427 0.78683 0.49133 -1.18100
C 	C 	0.61767 0.89133 0.46953 -0.71700
H 	H 	0.61647 0.93643 0.47803 0.34200
C 	C 	0.60247 0.73213 0.43453 -0.70300
H 	H 	0.58757 0.68833 0.41923 0.14800
C 	C 	0.56627 0.87613 0.31642 0.35700
O 	O 	0.32863 0.05587 0.87047 -0.05000
O 	O 	0.26143 0.00407 0.87767 -0.02100
O 	O 	0.21782 0.18195 0.68055 -0.42400
O 	O 	0.37681 0.26151 0.70222 -0.47600
H 	H 	0.20803 0.87457 0.54207 1.15300
C 	C 	0.39603 0.25907 0.93408 -0.17000
H 	H 	0.38373 0.29507 0.92287 0.09100
C 	C 	0.43313 0.27797 0.96683 -0.00500
C 	C 	0.32223 0.11227 0.86257 -0.93700
C 	C 	0.29343 0.19197 0.77527 0.06600
H 	H 	0.29473 0.23837 0.76667 0.45600
C 	C 	0.31163 0.19087 0.81067 1.62800
H 	H 	0.33093 0.23707 0.82477 0.14300
C 	C 	0.30093 0.12017 0.82467 -1.18700
C 	C 	0.28433 0.22467 0.80287 -0.71900
H 	H 	0.28313 0.26977 0.81137 0.34300
C 	C 	0.26913 0.06547 0.76787 -0.70800
H 	H 	0.25423 0.02167 0.75257 0.14900
C 	C 	0.23293 0.20947 0.64976 0.35700
O 	O 	0.61080 0.60610 0.20380 -0.05000
O 	O 	0.66260 0.59070 0.21100 -0.02100
O 	O 	0.48472 0.36921 0.01388 -0.42400
O 	O 	0.40516 0.44864 0.03555 -0.47600
H 	H 	0.79210 0.66680 0.87540 1.15900
C 	C 	0.40760 0.47030 0.26741 -0.17100
H 	H 	0.37160 0.42200 0.25620 0.09100
C 	C 	0.38870 0.48850 0.30016 -0.00500
C 	C 	0.55440 0.54330 0.19590 -0.93800
C 	C 	0.47470 0.43480 0.10860 0.06600
H 	H 	0.42830 0.38970 0.10000 0.45700
C 	C 	0.47580 0.45410 0.14400 1.63100
H 	H 	0.42960 0.42720 0.15810 0.14300
C 	C 	0.54650 0.51410 0.15800 -1.18900
C 	C 	0.44200 0.39300 0.13620 -0.72000
H 	H 	0.39690 0.34670 0.14470 0.34300
C 	C 	0.60120 0.53700 0.10120 -0.71000
H 	H 	0.64500 0.56590 0.08590 0.14900
C 	C 	0.45720 0.35680 0.98309 0.35700
O 	O 	0.27747 0.93943 0.53713 -0.05100
O 	O 	0.32927 0.92403 0.54433 -0.02100
O 	O 	0.15139 0.70254 0.34721 -0.42400
O 	O 	0.07183 0.78197 0.36888 -0.47600
H 	H 	0.45877 0.00013 0.20873 1.15300
C 	C 	0.07427 0.80363 0.60074 -0.17000
H 	H 	0.03827 0.75533 0.58953 0.09100
C 	C 	0.05537 0.82183 0.63349 -0.00600
C 	C 	0.22107 0.87663 0.52923 -0.93100
C 	C 	0.14137 0.76813 0.44193 0.06500
H 	H 	0.09497 0.72303 0.43333 0.45200
C 	C 	0.14247 0.78743 0.47733 1.61600
H 	H 	0.09627 0.76053 0.49143 0.14300
C 	C 	0.21317 0.84743 0.49133 -1.17800
C 	C 	0.10867 0.72633 0.46953 -0.71500
H 	H 	0.06357 0.68003 0.47803 0.34200
C 	C 	0.26787 0.87033 0.43453 -0.70100
H 	H 	0.31167 0.89923 0.41923 0.14800
C 	C 	0.12387 0.69013 0.31642 0.35700
O 	O 	0.94413 0.27277 0.87047 -0.04900
O 	O 	0.99593 0.25737 0.87767 -0.02000
O 	O 	0.81805 0.03588 0.68055 -0.42400
O 	O 	0.73849 0.11531 0.70222 -0.47600
H 	H 	0.12543 0.33347 0.54207 1.15500
C 	C 	0.74093 0.13697 0.93408 -0.17000
H 	H 	0.70493 0.08867 0.92287 0.09200
C 	C 	0.72203 0.15517 0.96683 -0.00600
C 	C 	0.88773 0.20997 0.86257 -0.93700
C 	C 	0.80803 0.10147 0.77527 0.06600
H 	H 	0.76163 0.05637 0.76667 0.45600
C 	C 	0.80913 0.12077 0.81067 1.62900
H 	H 	0.76293 0.09387 0.82477 0.14300
C 	C 	0.87983 0.18077 0.82467 -1.18800
C 	C 	0.77533 0.05967 0.80287 -0.71900
H 	H 	0.73023 0.01337 0.81137 0.34300
C 	C 	0.93453 0.20367 0.76787 -0.70900
H 	H 	0.97833 0.23257 0.75257 0.15000
C 	C 	0.79053 0.02347 0.64976 0.35800
O 	O 	0.39390 0.00470 0.20380 -0.05100
O 	O 	0.40930 0.07190 0.21100 -0.02100
O 	O 	0.63079 0.11551 0.01388 -0.42500
O 	O 	0.55136 0.95652 0.03555 -0.47600
H 	H 	0.33320 0.12530 0.87540 1.15800
C 	C 	0.52970 0.93730 0.26741 -0.17000
H 	H 	0.57800 0.94960 0.25620 0.09200
C 	C 	0.51150 0.90020 0.30016 -0.00500
C 	C 	0.45670 0.01110 0.19590 -0.93200
C 	C 	0.56520 0.03990 0.10860 0.06600
H 	H 	0.61030 0.03860 0.10000 0.45300
C 	C 	0.54590 0.02170 0.14400 1.62000
H 	H 	0.57280 0.00240 0.15810 0.14200
C 	C 	0.48590 0.03240 0.15800 -1.18100
C 	C 	0.60700 0.04900 0.13620 -0.71600
H 	H 	0.65330 0.05020 0.14470 0.34200
C 	C 	0.46300 0.06420 0.10120 -0.70400
H 	H 	0.43410 0.07910 0.08590 0.14800
C 	C 	0.64320 0.10040 0.98309 0.35800
O 	O 	0.06057 0.33803 0.53713 -0.05000
O 	O 	0.07597 0.40523 0.54433 -0.02100
O 	O 	0.29746 0.44884 0.34721 -0.42400
O 	O 	0.21803 0.28985 0.36888 -0.47600
H 	H 	0.99987 0.45863 0.20873 1.15300
C 	C 	0.19637 0.27063 0.60074 -0.17000
H 	H 	0.24467 0.28293 0.58953 0.09100
C 	C 	0.17817 0.23353 0.63349 -0.00600
C 	C 	0.12337 0.34443 0.52923 -0.93300
C 	C 	0.23187 0.37323 0.44193 0.06500
H 	H 	0.27697 0.37193 0.43333 0.45300
C 	C 	0.21257 0.35503 0.47733 1.62000
H 	H 	0.23947 0.33573 0.49143 0.14300
C 	C 	0.15257 0.36573 0.49133 -1.18100
C 	C 	0.27367 0.38233 0.46953 -0.71700
H 	H 	0.31997 0.38353 0.47803 0.34200
C 	C 	0.12967 0.39753 0.43453 -0.70300
H 	H 	0.10077 0.41243 0.41923 0.14800
C 	C 	0.30987 0.43373 0.31642 0.35700
O 	O 	0.72723 0.67137 0.87047 -0.05000
O 	O 	0.74263 0.73857 0.87767 -0.02100
O 	O 	0.96412 0.78218 0.68055 -0.42400
O 	O 	0.88469 0.62319 0.70222 -0.47600
H 	H 	0.66653 0.79197 0.54207 1.15400
C 	C 	0.86303 0.60397 0.93408 -0.17000
H 	H 	0.91133 0.61627 0.92287 0.09200
C 	C 	0.84483 0.56687 0.96683 -0.00500
C 	C 	0.79003 0.67777 0.86257 -0.93700
C 	C 	0.89853 0.70657 0.77527 0.06600
H 	H 	0.94363 0.70527 0.76667 0.45600
C 	C 	0.87923 0.68837 0.81067 1.62800
H 	H 	0.90613 0.66907 0.82477 0.14300
C 	C 	0.81923 0.69907 0.82467 -1.18700
C 	C 	0.94033 0.71567 0.80287 -0.71900
H 	H 	0.98663 0.71687 0.81137 0.34300
C 	C 	0.79633 0.73087 0.76787 -0.70800
H 	H 	0.76743 0.74577 0.75257 0.14900
C 	C 	0.97653 0.76707 0.64976 0.35800
O 	O 	0.38920 0.99530 0.79620 -0.05100
O 	O 	0.33740 0.92810 0.78900 -0.02100
O 	O 	0.51528 0.88449 0.98612 -0.42400
O 	O 	0.59484 0.04348 0.96445 -0.47600
H 	H 	0.20790 0.87470 0.12460 1.15900
C 	C 	0.59240 0.06270 0.73259 -0.17000
H 	H 	0.62840 0.05040 0.74380 0.09200
C 	C 	0.61130 0.09980 0.69984 -0.00500
C 	C 	0.44560 0.98890 0.80410 -0.93200
C 	C 	0.52530 0.96010 0.89140 0.06600
H 	H 	0.57170 0.96140 0.90000 0.45300
C 	C 	0.52420 0.97830 0.85600 1.62000
H 	H 	0.57040 0.99760 0.84190 0.14200
C 	C 	0.45350 0.96760 0.84200 -1.18100
C 	C 	0.55800 0.95100 0.86380 -0.71600
H 	H 	0.60310 0.94980 0.85530 0.34200
C 	C 	0.39880 0.93580 0.89880 -0.70400
H 	H 	0.35500 0.92090 0.91410 0.14800
C 	C 	0.54280 0.89960 0.01691 0.35700
O 	O 	0.05587 0.32863 0.12953 -0.05000
O 	O 	0.00407 0.26143 0.12233 -0.02100
O 	O 	0.18195 0.21782 0.31945 -0.42400
O 	O 	0.26151 0.37681 0.29778 -0.47600
H 	H 	0.87457 0.20803 0.45793 1.15300
C 	C 	0.25907 0.39603 0.06592 -0.17000
H 	H 	0.29507 0.38373 0.07713 0.09100
C 	C 	0.27797 0.43313 0.03317 -0.00500
C 	C 	0.11227 0.32223 0.13743 -0.93700
C 	C 	0.19197 0.29343 0.22473 0.06600
H 	H 	0.23837 0.29473 0.23333 0.45600
C 	C 	0.19087 0.31163 0.18933 1.62800
H 	H 	0.23707 0.33093 0.17523 0.14300
C 	C 	0.12017 0.30093 0.17533 -1.18700
C 	C 	0.22467 0.28433 0.19713 -0.71900
H 	H 	0.26977 0.28313 0.18863 0.34300
C 	C 	0.06547 0.26913 0.23213 -0.70800
H 	H 	0.02167 0.25423 0.24743 0.14900
C 	C 	0.20947 0.23293 0.35024 0.35700
O 	O 	0.72253 0.66197 0.46287 -0.05000
O 	O 	0.67073 0.59477 0.45567 -0.02100
O 	O 	0.84861 0.55116 0.65279 -0.42400
O 	O 	0.92817 0.71015 0.63112 -0.47600
H 	H 	0.54123 0.54137 0.79127 1.16000
C 	C 	0.92573 0.72937 0.39926 -0.17000
H 	H 	0.96173 0.71707 0.41047 0.09100
C 	C 	0.94463 0.76647 0.36651 -0.00600
C 	C 	0.77893 0.65557 0.47077 -0.93200
C 	C 	0.85863 0.62677 0.55807 0.06500
H 	H 	0.90503 0.62807 0.56667 0.45300
C 	C 	0.85753 0.64497 0.52267 1.62000
H 	H 	0.90373 0.66427 0.50857 0.14300
C 	C 	0.78683 0.63427 0.50867 -1.18100
C 	C 	0.89133 0.61767 0.53047 -0.71700
H 	H 	0.93643 0.61647 0.52197 0.34200
C 	C 	0.73213 0.60247 0.56547 -0.70300
H 	H 	0.68833 0.58757 0.58077 0.14800
C 	C 	0.87613 0.56627 0.68358 0.35700
O 	O 	0.60610 0.61080 0.79620 -0.05000
O 	O 	0.59070 0.66260 0.78900 -0.02100
O 	O 	0.36921 0.48472 0.98612 -0.42400
O 	O 	0.44864 0.40516 0.96445 -0.47600
H 	H 	0.66680 0.79210 0.12460 1.15900
C 	C 	0.47030 0.40760 0.73259 -0.17100
H 	H 	0.42200 0.37160 0.74380 0.09100
C 	C 	0.48850 0.38870 0.69984 -0.00500
C 	C 	0.54330 0.55440 0.80410 -0.93800
C 	C 	0.43480 0.47470 0.89140 0.06600
H 	H 	0.38970 0.42830 0.90000 0.45700
C 	C 	0.45410 0.47580 0.85600 1.63100
H 	H 	0.42720 0.42960 0.84190 0.14300
C 	C 	0.51410 0.54650 0.84200 -1.18900
C 	C 	0.39300 0.44200 0.86380 -0.72000
H 	H 	0.34670 0.39690 0.85530 0.34300
C 	C 	0.53700 0.60120 0.89880 -0.71000
H 	H 	0.56590 0.64500 0.91410 0.14900
C 	C 	0.35680 0.45720 0.01691 0.35700
O 	O 	0.27277 0.94413 0.12953 -0.04900
O 	O 	0.25737 0.99593 0.12233 -0.02000
O 	O 	0.03588 0.81805 0.31945 -0.42400
O 	O 	0.11531 0.73849 0.29778 -0.47600
H 	H 	0.33347 0.12543 0.45793 1.15500
C 	C 	0.13697 0.74093 0.06592 -0.17000
H 	H 	0.08867 0.70493 0.07713 0.09200
C 	C 	0.15517 0.72203 0.03317 -0.00600
C 	C 	0.20997 0.88773 0.13743 -0.93700
C 	C 	0.10147 0.80803 0.22473 0.06600
H 	H 	0.05637 0.76163 0.23333 0.45600
C 	C 	0.12077 0.80913 0.18933 1.62900
H 	H 	0.09387 0.76293 0.17523 0.14300
C 	C 	0.18077 0.87983 0.17533 -1.18800
C 	C 	0.05967 0.77533 0.19713 -0.71900
H 	H 	0.01337 0.73023 0.18863 0.34300
C 	C 	0.20367 0.93453 0.23213 -0.70900
H 	H 	0.23257 0.97833 0.24743 0.15000
C 	C 	0.02347 0.79053 0.35024 0.35800
O 	O 	0.93943 0.27747 0.46287 -0.05100
O 	O 	0.92403 0.32927 0.45567 -0.02100
O 	O 	0.70254 0.15139 0.65279 -0.42400
O 	O 	0.78197 0.07183 0.63112 -0.47600
H 	H 	0.00013 0.45877 0.79127 1.15300
C 	C 	0.80363 0.07427 0.39926 -0.17000
H 	H 	0.75533 0.03827 0.41047 0.09100
C 	C 	0.82183 0.05537 0.36651 -0.00600
C 	C 	0.87663 0.22107 0.47077 -0.93100
C 	C 	0.76813 0.14137 0.55807 0.06500
H 	H 	0.72303 0.09497 0.56667 0.45200
C 	C 	0.78743 0.14247 0.52267 1.61600
H 	H 	0.76053 0.09627 0.50857 0.14300
C 	C 	0.84743 0.21317 0.50867 -1.17800
C 	C 	0.72633 0.10867 0.53047 -0.71500
H 	H 	0.68003 0.06357 0.52197 0.34200
C 	C 	0.87033 0.26787 0.56547 -0.70100
H 	H 	0.89923 0.31167 0.58077 0.14800
C 	C 	0.69013 0.12387 0.68358 0.35700
O 	O 	0.00470 0.39390 0.79620 -0.05100
O 	O 	0.07190 0.40930 0.78900 -0.02100
O 	O 	0.11551 0.63079 0.98612 -0.42500
O 	O 	0.95652 0.55136 0.96445 -0.47600
H 	H 	0.12530 0.33320 0.12460 1.15800
C 	C 	0.93730 0.52970 0.73259 -0.17000
H 	H 	0.94960 0.57800 0.74380 0.09200
C 	C 	0.90020 0.51150 0.69984 -0.00500
C 	C 	0.01110 0.45670 0.80410 -0.93200
C 	C 	0.03990 0.56520 0.89140 0.06600
H 	H 	0.03860 0.61030 0.90000 0.45300
C 	C 	0.02170 0.54590 0.85600 1.62000
H 	H 	0.00240 0.57280 0.84190 0.14200
C 	C 	0.03240 0.48590 0.84200 -1.18100
C 	C 	0.04900 0.60700 0.86380 -0.71600
H 	H 	0.05020 0.65330 0.85530 0.34200
C 	C 	0.06420 0.46300 0.89880 -0.70400
H 	H 	0.07910 0.43410 0.91410 0.14800
C 	C 	0.10040 0.64320 0.01691 0.35800
O 	O 	0.67137 0.72723 0.12953 -0.05000
O 	O 	0.73857 0.74263 0.12233 -0.02100
O 	O 	0.78218 0.96412 0.31945 -0.42400
O 	O 	0.62319 0.88469 0.29778 -0.47600
H 	H 	0.79197 0.66653 0.45793 1.15400
C 	C 	0.60397 0.86303 0.06592 -0.17000
H 	H 	0.61627 0.91133 0.07713 0.09200
C 	C 	0.56687 0.84483 0.03317 -0.00500
C 	C 	0.67777 0.79003 0.13743 -0.93700
C 	C 	0.70657 0.89853 0.22473 0.06600
H 	H 	0.70527 0.94363 0.23333 0.45600
C 	C 	0.68837 0.87923 0.18933 1.62800
H 	H 	0.66907 0.90613 0.17523 0.14300
C 	C 	0.69907 0.81923 0.17533 -1.18700
C 	C 	0.71567 0.94033 0.19713 -0.71900
H 	H 	0.71687 0.98663 0.18863 0.34300
C 	C 	0.73087 0.79633 0.23213 -0.70800
H 	H 	0.74577 0.76743 0.24743 0.14900
C 	C 	0.76707 0.97653 0.35024 0.35800
O 	O 	0.33803 0.06057 0.46287 -0.05000
O 	O 	0.40523 0.07597 0.45567 -0.02100
O 	O 	0.44884 0.29746 0.65279 -0.42400
O 	O 	0.28985 0.21803 0.63112 -0.47600
H 	H 	0.45863 0.99987 0.79127 1.15300
C 	C 	0.27063 0.19637 0.39926 -0.17000
H 	H 	0.28293 0.24467 0.41047 0.09100
C 	C 	0.23353 0.17817 0.36651 -0.00600
C 	C 	0.34443 0.12337 0.47077 -0.93300
C 	C 	0.37323 0.23187 0.55807 0.06500
H 	H 	0.37193 0.27697 0.56667 0.45300
C 	C 	0.35503 0.21257 0.52267 1.62000
H 	H 	0.33573 0.23947 0.50857 0.14300
C 	C 	0.36573 0.15257 0.50867 -1.18100
C 	C 	0.38233 0.27367 0.53047 -0.71700
H 	H 	0.38353 0.31997 0.52197 0.34200
C 	C 	0.39753 0.12967 0.56547 -0.70300
H 	H 	0.41243 0.10077 0.58077 0.14800
C 	C 	0.43373 0.30987 0.68358 0.35700
Zn	Zn	0.04415 0.52208 0.96599 1.21900
N 	N 	0.99070 0.49535 0.78297 -0.80300
N 	N 	0.05771 0.52885 0.91249 -0.09700
C 	C 	0.95650 0.47825 0.74886 0.24200
C 	C 	0.88301 0.44151 0.68334 -0.04000
H 	H 	0.85910 0.42955 0.66060 0.09100
Zn	Zn	0.71082 0.85541 0.29933 1.22000
N 	N 	0.65737 0.82868 0.11630 -0.80700
N 	N 	0.72438 0.86219 0.24582 -0.09600
C 	C 	0.62317 0.81158 0.08219 0.24200
C 	C 	0.54968 0.77484 0.01667 -0.04000
H 	H 	0.52577 0.76288 0.99393 0.09100
Zn	Zn	0.37749 0.18874 0.63266 1.22000
N 	N 	0.32403 0.16202 0.44964 -0.80500
N 	N 	0.39104 0.19552 0.57916 -0.09700
C 	C 	0.28983 0.14492 0.41553 0.24200
C 	C 	0.21634 0.10817 0.35001 -0.04000
H 	H 	0.19243 0.09622 0.32727 0.09100
Zn	Zn	0.47792 0.52208 0.96599 1.22000
N 	N 	0.50465 0.49535 0.78297 -0.80700
N 	N 	0.47115 0.52885 0.91249 -0.09600
C 	C 	0.52175 0.47825 0.74886 0.24300
C 	C 	0.55849 0.44150 0.68334 -0.04100
H 	H 	0.57045 0.42955 0.66060 0.09100
Zn	Zn	0.14459 0.85541 0.29933 1.22000
N 	N 	0.17132 0.82868 0.11630 -0.80600
N 	N 	0.13781 0.86219 0.24582 -0.09600
C 	C 	0.18842 0.81158 0.08219 0.24200
C 	C 	0.22516 0.77484 0.01667 -0.03900
H 	H 	0.23712 0.76288 0.99393 0.09000
Zn	Zn	0.81126 0.18874 0.63266 1.22000
N 	N 	0.83798 0.16202 0.44964 -0.80400
N 	N 	0.80448 0.19552 0.57916 -0.09800
C 	C 	0.85508 0.14492 0.41553 0.24200
C 	C 	0.89183 0.10817 0.35001 -0.04000
H 	H 	0.90378 0.09622 0.32727 0.09100
Zn	Zn	0.47792 0.95585 0.96599 1.21900
N 	N 	0.50465 0.00930 0.78297 -0.80300
N 	N 	0.47115 0.94229 0.91249 -0.09700
C 	C 	0.52175 0.04350 0.74886 0.24200
C 	C 	0.55849 0.11699 0.68334 -0.04000
H 	H 	0.57045 0.14090 0.66060 0.09100
Zn	Zn	0.14459 0.28918 0.29933 1.22000
N 	N 	0.17132 0.34263 0.11630 -0.80700
N 	N 	0.13781 0.27562 0.24582 -0.09600
C 	C 	0.18842 0.37683 0.08219 0.24200
C 	C 	0.22516 0.45032 0.01667 -0.04000
H 	H 	0.23712 0.47423 0.99393 0.09100
Zn	Zn	0.81126 0.62251 0.63266 1.22000
N 	N 	0.83798 0.67597 0.44964 -0.80500
N 	N 	0.80448 0.60896 0.57916 -0.09700
C 	C 	0.85508 0.71017 0.41553 0.24200
C 	C 	0.89183 0.78366 0.35001 -0.04000
H 	H 	0.90378 0.80757 0.32727 0.09100
Zn	Zn	0.52208 0.04415 0.03401 1.21900
N 	N 	0.49535 0.99070 0.21703 -0.80300
N 	N 	0.52885 0.05771 0.08751 -0.09700
C 	C 	0.47825 0.95650 0.25114 0.24200
C 	C 	0.44151 0.88301 0.31666 -0.04000
H 	H 	0.42955 0.85910 0.33940 0.09100
Zn	Zn	0.18874 0.37749 0.36734 1.22000
N 	N 	0.16202 0.32403 0.55036 -0.80500
N 	N 	0.19552 0.39104 0.42084 -0.09700
C 	C 	0.14492 0.28983 0.58447 0.24200
C 	C 	0.10817 0.21634 0.64999 -0.04000
H 	H 	0.09622 0.19243 0.67273 0.09100
Zn	Zn	0.85541 0.71082 0.70067 1.22000
N 	N 	0.82868 0.65737 0.88370 -0.80700
N 	N 	0.86219 0.72438 0.75418 -0.09600
C 	C 	0.81158 0.62317 0.91781 0.24200
C 	C 	0.77484 0.54968 0.98333 -0.04000
H 	H 	0.76288 0.52577 0.00607 0.09100
Zn	Zn	0.52208 0.47792 0.03401 1.22000
N 	N 	0.49535 0.50465 0.21703 -0.80700
N 	N 	0.52885 0.47114 0.08751 -0.09600
C 	C 	0.47825 0.52175 0.25114 0.24300
C 	C 	0.44150 0.55849 0.31666 -0.04100
H 	H 	0.42955 0.57045 0.33940 0.09100
Zn	Zn	0.18874 0.81126 0.36734 1.22000
N 	N 	0.16202 0.83798 0.55036 -0.80400
N 	N 	0.19552 0.80448 0.42084 -0.09800
C 	C 	0.14492 0.85508 0.58447 0.24200
C 	C 	0.10817 0.89183 0.64999 -0.04000
H 	H 	0.09622 0.90378 0.67273 0.09100
Zn	Zn	0.85541 0.14459 0.70067 1.22000
N 	N 	0.82868 0.17132 0.88370 -0.80600
N 	N 	0.86219 0.13781 0.75418 -0.09600
C 	C 	0.81158 0.18842 0.91781 0.24200
C 	C 	0.77484 0.22516 0.98333 -0.03900
H 	H 	0.76288 0.23712 0.00607 0.09000
Zn	Zn	0.95585 0.47792 0.03401 1.21900
N 	N 	0.00930 0.50465 0.21703 -0.80300
N 	N 	0.94229 0.47115 0.08751 -0.09700
C 	C 	0.04350 0.52175 0.25114 0.24200
C 	C 	0.11699 0.55849 0.31666 -0.04000
H 	H 	0.14090 0.57045 0.33940 0.09100
Zn	Zn	0.62251 0.81126 0.36734 1.22000
N 	N 	0.67597 0.83798 0.55036 -0.80500
N 	N 	0.60896 0.80448 0.42084 -0.09700
C 	C 	0.71017 0.85508 0.58447 0.24200
C 	C 	0.78366 0.89183 0.64999 -0.04000
H 	H 	0.80757 0.90378 0.67273 0.09100
Zn	Zn	0.28918 0.14459 0.70067 1.22000
N 	N 	0.34263 0.17132 0.88370 -0.80700
N 	N 	0.27562 0.13781 0.75418 -0.09600
C 	C 	0.37683 0.18842 0.91781 0.24200
C 	C 	0.45032 0.22516 0.98333 -0.04000
H 	H 	0.47423 0.23712 0.00607 0.09100
