data_crystal

_cell_length_a 50.91990
_cell_length_b 50.91990
_cell_length_c 50.91990
_cell_angle_alpha 90.00000
_cell_angle_beta  90.00000
_cell_angle_gamma 90.00000

_symmetry_space_group_name_	'P 1'
_symmetry_space_group_name_H-M	'P 1'

loop_
_symmetry_equiv_pos_as_xyz
  x,y,z

loop_
_atom_site_label
_atom_site_type_symbol
_atom_site_fract_x
_atom_site_fract_y
_atom_site_fract_z
_atom_site_charge
O 	O 	0.88910 0.09992 0.03440 -0.48100
O 	O 	0.92350 0.11870 0.01980 -0.39500
O 	O 	0.00980 0.05720 0.08700 -0.60200
O 	O 	0.83718 0.10754 0.01264 -0.41000
O 	O 	0.84296 0.12835 0.97491 -0.44900
O 	O 	0.71539 0.07914 0.00325 -0.43100
O 	O 	0.63827 0.07078 0.03998 -0.44700
C 	C 	0.91340 0.10410 0.03500 0.38800
C 	C 	0.92860 0.08780 0.05520 -0.15200
C 	C 	0.95530 0.09060 0.05590 0.13200
C 	C 	0.82890 0.11650 0.99100 0.31600
C 	C 	0.80040 0.11100 0.98360 -0.11600
C 	C 	0.78300 0.09952 0.00140 0.12500
O 	O 	0.88910 0.59992 0.53440 -0.48000
O 	O 	0.92350 0.61870 0.51980 -0.39400
O 	O 	0.00980 0.55720 0.58700 -0.60200
O 	O 	0.83718 0.60754 0.51264 -0.40900
O 	O 	0.84296 0.62835 0.47491 -0.44900
O 	O 	0.71539 0.57914 0.50325 -0.43100
O 	O 	0.63827 0.57078 0.53998 -0.44700
C 	C 	0.91340 0.60410 0.53500 0.38800
C 	C 	0.92860 0.58780 0.55520 -0.15200
C 	C 	0.95530 0.59060 0.55590 0.13200
C 	C 	0.82890 0.61650 0.49100 0.31500
C 	C 	0.80040 0.61100 0.48360 -0.11800
C 	C 	0.78300 0.59952 0.50140 0.12800
O 	O 	0.38910 0.09992 0.53440 -0.48000
O 	O 	0.42350 0.11870 0.51980 -0.39500
O 	O 	0.50980 0.05720 0.58700 -0.60000
O 	O 	0.33718 0.10754 0.51264 -0.40900
O 	O 	0.34296 0.12835 0.47491 -0.44900
O 	O 	0.21539 0.07914 0.50325 -0.43100
O 	O 	0.13827 0.07078 0.53998 -0.44700
C 	C 	0.41340 0.10410 0.53500 0.38800
C 	C 	0.42860 0.08780 0.55520 -0.15200
C 	C 	0.45530 0.09060 0.55590 0.13200
C 	C 	0.32890 0.11650 0.49100 0.31500
C 	C 	0.30040 0.11100 0.48360 -0.11800
C 	C 	0.28300 0.09952 0.50140 0.12800
O 	O 	0.38910 0.59992 0.03440 -0.48000
O 	O 	0.42350 0.61870 0.01980 -0.39500
O 	O 	0.50980 0.55720 0.08700 -0.60000
O 	O 	0.33718 0.60754 0.01264 -0.41000
O 	O 	0.34296 0.62835 0.97491 -0.44900
O 	O 	0.21539 0.57914 0.00325 -0.43100
O 	O 	0.13827 0.57078 0.03998 -0.44700
C 	C 	0.41340 0.60410 0.03500 0.38800
C 	C 	0.42860 0.58780 0.05520 -0.15200
C 	C 	0.45530 0.59060 0.05590 0.13200
C 	C 	0.32890 0.61650 0.99100 0.31600
C 	C 	0.30040 0.61100 0.98360 -0.11600
C 	C 	0.28300 0.59952 0.00140 0.12500
O 	O 	0.86090 0.15008 0.53440 -0.48000
O 	O 	0.82650 0.13130 0.51980 -0.39500
O 	O 	0.74020 0.19280 0.58700 -0.60000
O 	O 	0.91282 0.14246 0.51264 -0.40900
O 	O 	0.90704 0.12165 0.47491 -0.44900
O 	O 	0.03461 0.17086 0.50325 -0.43100
O 	O 	0.11173 0.17922 0.53998 -0.44700
C 	C 	0.83660 0.14590 0.53500 0.38800
C 	C 	0.82140 0.16220 0.55520 -0.15200
C 	C 	0.79470 0.15940 0.55590 0.13200
C 	C 	0.92110 0.13350 0.49100 0.31500
C 	C 	0.94960 0.13900 0.48360 -0.11700
C 	C 	0.96700 0.15048 0.50140 0.12700
O 	O 	0.86090 0.65008 0.03440 -0.48000
O 	O 	0.82650 0.63130 0.01980 -0.39500
O 	O 	0.74020 0.69280 0.08700 -0.60000
O 	O 	0.91282 0.64246 0.01264 -0.41000
O 	O 	0.90704 0.62165 0.97491 -0.44900
O 	O 	0.03461 0.67086 0.00325 -0.43100
O 	O 	0.11173 0.67922 0.03998 -0.44700
C 	C 	0.83660 0.64590 0.03500 0.38800
C 	C 	0.82140 0.66220 0.05520 -0.15200
C 	C 	0.79470 0.65940 0.05590 0.13200
C 	C 	0.92110 0.63350 0.99100 0.31600
C 	C 	0.94960 0.63900 0.98360 -0.11500
C 	C 	0.96700 0.65048 0.00140 0.12400
O 	O 	0.36090 0.15008 0.03440 -0.48000
O 	O 	0.32650 0.13130 0.01980 -0.39500
O 	O 	0.24020 0.19280 0.08700 -0.60000
O 	O 	0.41282 0.14246 0.01264 -0.41000
O 	O 	0.40704 0.12165 0.97491 -0.44900
O 	O 	0.53461 0.17086 0.00325 -0.43100
O 	O 	0.61173 0.17922 0.03998 -0.44700
C 	C 	0.33660 0.14590 0.03500 0.38800
C 	C 	0.32140 0.16220 0.05520 -0.15200
C 	C 	0.29470 0.15940 0.05590 0.13200
C 	C 	0.42110 0.13350 0.99100 0.31600
C 	C 	0.44960 0.13900 0.98360 -0.11600
C 	C 	0.46700 0.15048 0.00140 0.12500
O 	O 	0.36090 0.65008 0.53440 -0.48000
O 	O 	0.32650 0.63130 0.51980 -0.39500
O 	O 	0.24020 0.69280 0.58700 -0.60000
O 	O 	0.41282 0.64246 0.51264 -0.40900
O 	O 	0.40704 0.62165 0.47491 -0.44900
O 	O 	0.53461 0.67086 0.50325 -0.43100
O 	O 	0.61173 0.67922 0.53998 -0.44700
C 	C 	0.33660 0.64590 0.53500 0.38800
C 	C 	0.32140 0.66220 0.55520 -0.15200
C 	C 	0.29470 0.65940 0.55590 0.13200
C 	C 	0.42110 0.63350 0.49100 0.31500
C 	C 	0.44960 0.63900 0.48360 -0.11800
C 	C 	0.46700 0.65048 0.50140 0.12800
O 	O 	0.36090 0.59992 0.71560 -0.48000
O 	O 	0.32650 0.61870 0.73020 -0.39500
O 	O 	0.24020 0.55720 0.66300 -0.60000
O 	O 	0.41282 0.60754 0.73736 -0.40900
O 	O 	0.40704 0.62835 0.77509 -0.44900
O 	O 	0.53461 0.57914 0.74675 -0.43100
O 	O 	0.61173 0.57078 0.71002 -0.44700
C 	C 	0.33660 0.60410 0.71500 0.38800
C 	C 	0.32140 0.58780 0.69480 -0.15200
C 	C 	0.29470 0.59060 0.69410 0.13200
C 	C 	0.42110 0.61650 0.75900 0.31500
C 	C 	0.44960 0.61100 0.76640 -0.11800
C 	C 	0.46700 0.59952 0.74860 0.12800
O 	O 	0.36090 0.09992 0.21560 -0.48000
O 	O 	0.32650 0.11870 0.23020 -0.39500
O 	O 	0.24020 0.05720 0.16300 -0.60000
O 	O 	0.41282 0.10754 0.23736 -0.40900
O 	O 	0.40704 0.12835 0.27509 -0.44900
O 	O 	0.53461 0.07914 0.24675 -0.43100
O 	O 	0.61173 0.07078 0.21002 -0.44700
C 	C 	0.33660 0.10410 0.21500 0.38800
C 	C 	0.32140 0.08780 0.19480 -0.15200
C 	C 	0.29470 0.09060 0.19410 0.13200
C 	C 	0.42110 0.11650 0.25900 0.31500
C 	C 	0.44960 0.11100 0.26640 -0.11800
C 	C 	0.46700 0.09952 0.24860 0.12800
O 	O 	0.86090 0.59992 0.21560 -0.48000
O 	O 	0.82650 0.61870 0.23020 -0.39500
O 	O 	0.74020 0.55720 0.16300 -0.60000
O 	O 	0.91282 0.60754 0.23736 -0.40900
O 	O 	0.90704 0.62835 0.27509 -0.44900
O 	O 	0.03461 0.57914 0.24675 -0.43100
O 	O 	0.11173 0.57078 0.21002 -0.44700
C 	C 	0.83660 0.60410 0.21500 0.38800
C 	C 	0.82140 0.58780 0.19480 -0.15200
C 	C 	0.79470 0.59060 0.19410 0.13200
C 	C 	0.92110 0.61650 0.25900 0.31500
C 	C 	0.94960 0.61100 0.26640 -0.11700
C 	C 	0.96700 0.59952 0.24860 0.12700
O 	O 	0.86090 0.09992 0.71560 -0.48000
O 	O 	0.82650 0.11870 0.73020 -0.39500
O 	O 	0.74020 0.05720 0.66300 -0.60000
O 	O 	0.91282 0.10754 0.73736 -0.40900
O 	O 	0.90704 0.12835 0.77509 -0.44900
O 	O 	0.03461 0.07914 0.74675 -0.43100
O 	O 	0.11173 0.07078 0.71002 -0.44700
C 	C 	0.83660 0.10410 0.71500 0.38800
C 	C 	0.82140 0.08780 0.69480 -0.15200
C 	C 	0.79470 0.09060 0.69410 0.13200
C 	C 	0.92110 0.11650 0.75900 0.31500
C 	C 	0.94960 0.11100 0.76640 -0.11700
C 	C 	0.96700 0.09952 0.74860 0.12700
O 	O 	0.38910 0.65008 0.21560 -0.48000
O 	O 	0.42350 0.63130 0.23020 -0.39500
O 	O 	0.50980 0.69280 0.16300 -0.60000
O 	O 	0.33718 0.64246 0.23736 -0.40900
O 	O 	0.34296 0.62165 0.27509 -0.44900
O 	O 	0.21539 0.67086 0.24675 -0.43100
O 	O 	0.13827 0.67922 0.21002 -0.44700
C 	C 	0.41340 0.64590 0.21500 0.38800
C 	C 	0.42860 0.66220 0.19480 -0.15200
C 	C 	0.45530 0.65940 0.19410 0.13200
C 	C 	0.32890 0.63350 0.25900 0.31500
C 	C 	0.30040 0.63900 0.26640 -0.11800
C 	C 	0.28300 0.65048 0.24860 0.12800
O 	O 	0.38910 0.15008 0.71560 -0.48000
O 	O 	0.42350 0.13130 0.73020 -0.39500
O 	O 	0.50980 0.19280 0.66300 -0.60000
O 	O 	0.33718 0.14246 0.73736 -0.40900
O 	O 	0.34296 0.12165 0.77509 -0.44900
O 	O 	0.21539 0.17086 0.74675 -0.43100
O 	O 	0.13827 0.17922 0.71002 -0.44700
C 	C 	0.41340 0.14590 0.71500 0.38800
C 	C 	0.42860 0.16220 0.69480 -0.15200
C 	C 	0.45530 0.15940 0.69410 0.13200
C 	C 	0.32890 0.13350 0.75900 0.31500
C 	C 	0.30040 0.13900 0.76640 -0.11800
C 	C 	0.28300 0.15048 0.74860 0.12800
O 	O 	0.88910 0.65008 0.71560 -0.48000
O 	O 	0.92350 0.63130 0.73020 -0.39500
O 	O 	0.00980 0.69280 0.66300 -0.60200
O 	O 	0.83718 0.64246 0.73736 -0.40900
O 	O 	0.84296 0.62165 0.77509 -0.44900
O 	O 	0.71539 0.67086 0.74675 -0.43100
O 	O 	0.63827 0.67922 0.71002 -0.44700
C 	C 	0.91340 0.64590 0.71500 0.38800
C 	C 	0.92860 0.66220 0.69480 -0.15200
C 	C 	0.95530 0.65940 0.69410 0.13200
C 	C 	0.82890 0.63350 0.75900 0.31500
C 	C 	0.80040 0.63900 0.76640 -0.11800
C 	C 	0.78300 0.65048 0.74860 0.12800
O 	O 	0.88910 0.15008 0.21560 -0.48000
O 	O 	0.92350 0.13130 0.23020 -0.39500
O 	O 	0.00980 0.19280 0.16300 -0.60200
O 	O 	0.83718 0.14246 0.23736 -0.40900
O 	O 	0.84296 0.12165 0.27509 -0.44900
O 	O 	0.71539 0.17086 0.24675 -0.43100
O 	O 	0.63827 0.17922 0.21002 -0.44700
C 	C 	0.91340 0.14590 0.21500 0.38800
C 	C 	0.92860 0.16220 0.19480 -0.15200
C 	C 	0.95530 0.15940 0.19410 0.13200
C 	C 	0.82890 0.13350 0.25900 0.31500
C 	C 	0.80040 0.13900 0.26640 -0.11800
C 	C 	0.78300 0.15048 0.24860 0.12800
O 	O 	0.03440 0.88910 0.09992 -0.48100
O 	O 	0.01980 0.92350 0.11870 -0.39500
O 	O 	0.08700 0.00980 0.05720 -0.60200
O 	O 	0.01264 0.83718 0.10754 -0.41000
O 	O 	0.97491 0.84296 0.12835 -0.44900
O 	O 	0.00325 0.71539 0.07914 -0.43100
O 	O 	0.03998 0.63827 0.07078 -0.44700
C 	C 	0.03500 0.91340 0.10410 0.38800
C 	C 	0.05520 0.92860 0.08780 -0.15200
C 	C 	0.05590 0.95530 0.09060 0.13200
C 	C 	0.99100 0.82890 0.11650 0.31600
C 	C 	0.98360 0.80040 0.11100 -0.11600
C 	C 	0.00140 0.78300 0.09952 0.12500
O 	O 	0.03440 0.38910 0.59992 -0.48000
O 	O 	0.01980 0.42350 0.61870 -0.39500
O 	O 	0.08700 0.50980 0.55720 -0.60000
O 	O 	0.01264 0.33718 0.60754 -0.41000
O 	O 	0.97491 0.34296 0.62835 -0.44900
O 	O 	0.00325 0.21539 0.57914 -0.43100
O 	O 	0.03998 0.13827 0.57078 -0.44700
C 	C 	0.03500 0.41340 0.60410 0.38800
C 	C 	0.05520 0.42860 0.58780 -0.15200
C 	C 	0.05590 0.45530 0.59060 0.13200
C 	C 	0.99100 0.32890 0.61650 0.31600
C 	C 	0.98360 0.30040 0.61100 -0.11600
C 	C 	0.00140 0.28300 0.59952 0.12500
O 	O 	0.53440 0.88910 0.59992 -0.48000
O 	O 	0.51980 0.92350 0.61870 -0.39400
O 	O 	0.58700 0.00980 0.55720 -0.60200
O 	O 	0.51264 0.83718 0.60754 -0.40900
O 	O 	0.47491 0.84296 0.62835 -0.44900
O 	O 	0.50325 0.71539 0.57914 -0.43100
O 	O 	0.53998 0.63827 0.57078 -0.44700
C 	C 	0.53500 0.91340 0.60410 0.38800
C 	C 	0.55520 0.92860 0.58780 -0.15200
C 	C 	0.55590 0.95530 0.59060 0.13200
C 	C 	0.49100 0.82890 0.61650 0.31500
C 	C 	0.48360 0.80040 0.61100 -0.11800
C 	C 	0.50140 0.78300 0.59952 0.12800
O 	O 	0.53440 0.38910 0.09992 -0.48000
O 	O 	0.51980 0.42350 0.11870 -0.39500
O 	O 	0.58700 0.50980 0.05720 -0.60000
O 	O 	0.51264 0.33718 0.10754 -0.40900
O 	O 	0.47491 0.34296 0.12835 -0.44900
O 	O 	0.50325 0.21539 0.07914 -0.43100
O 	O 	0.53998 0.13827 0.07078 -0.44700
C 	C 	0.53500 0.41340 0.10410 0.38800
C 	C 	0.55520 0.42860 0.08780 -0.15200
C 	C 	0.55590 0.45530 0.09060 0.13200
C 	C 	0.49100 0.32890 0.11650 0.31500
C 	C 	0.48360 0.30040 0.11100 -0.11800
C 	C 	0.50140 0.28300 0.09952 0.12800
O 	O 	0.53440 0.86090 0.15008 -0.48000
O 	O 	0.51980 0.82650 0.13130 -0.39500
O 	O 	0.58700 0.74020 0.19280 -0.60000
O 	O 	0.51264 0.91282 0.14246 -0.40900
O 	O 	0.47491 0.90704 0.12165 -0.44900
O 	O 	0.50325 0.03461 0.17086 -0.43100
O 	O 	0.53998 0.11173 0.17922 -0.44700
C 	C 	0.53500 0.83660 0.14590 0.38800
C 	C 	0.55520 0.82140 0.16220 -0.15300
C 	C 	0.55590 0.79470 0.15940 0.13100
C 	C 	0.49100 0.92110 0.13350 0.31400
C 	C 	0.48360 0.94960 0.13900 -0.11800
C 	C 	0.50140 0.96700 0.15048 0.12600
O 	O 	0.53440 0.36090 0.65008 -0.48100
O 	O 	0.51980 0.32650 0.63130 -0.39600
O 	O 	0.58700 0.24020 0.69280 -0.60100
O 	O 	0.51264 0.41282 0.64246 -0.41000
O 	O 	0.47491 0.40704 0.62165 -0.45000
O 	O 	0.50325 0.53461 0.67086 -0.43200
O 	O 	0.53998 0.61173 0.67922 -0.44800
C 	C 	0.53500 0.33660 0.64590 0.38700
C 	C 	0.55520 0.32140 0.66220 -0.15300
C 	C 	0.55590 0.29470 0.65940 0.13100
C 	C 	0.49100 0.42110 0.63350 0.31400
C 	C 	0.48360 0.44960 0.63900 -0.11900
C 	C 	0.50140 0.46700 0.65048 0.12700
O 	O 	0.03440 0.86090 0.65008 -0.48100
O 	O 	0.01980 0.82650 0.63130 -0.39600
O 	O 	0.08700 0.74020 0.69280 -0.60100
O 	O 	0.01264 0.91282 0.64246 -0.41100
O 	O 	0.97491 0.90704 0.62165 -0.45000
O 	O 	0.00325 0.03461 0.67086 -0.43200
O 	O 	0.03998 0.11173 0.67922 -0.44800
C 	C 	0.03500 0.83660 0.64590 0.38700
C 	C 	0.05520 0.82140 0.66220 -0.15300
C 	C 	0.05590 0.79470 0.65940 0.13100
C 	C 	0.99100 0.92110 0.63350 0.31500
C 	C 	0.98360 0.94960 0.63900 -0.11600
C 	C 	0.00140 0.96700 0.65048 0.12300
O 	O 	0.03440 0.36090 0.15008 -0.48100
O 	O 	0.01980 0.32650 0.13130 -0.39600
O 	O 	0.08700 0.24020 0.19280 -0.60100
O 	O 	0.01264 0.41282 0.14246 -0.41100
O 	O 	0.97491 0.40704 0.12165 -0.45000
O 	O 	0.00325 0.53461 0.17086 -0.43200
O 	O 	0.03998 0.61173 0.17922 -0.44800
C 	C 	0.03500 0.33660 0.14590 0.38700
C 	C 	0.05520 0.32140 0.16220 -0.15300
C 	C 	0.05590 0.29470 0.15940 0.13100
C 	C 	0.99100 0.42110 0.13350 0.31500
C 	C 	0.98360 0.44960 0.13900 -0.11700
C 	C 	0.00140 0.46700 0.15048 0.12400
O 	O 	0.71560 0.36090 0.59992 -0.48100
O 	O 	0.73020 0.32650 0.61870 -0.39600
O 	O 	0.66300 0.24020 0.55720 -0.60100
O 	O 	0.73736 0.41282 0.60754 -0.41000
O 	O 	0.77509 0.40704 0.62835 -0.45000
O 	O 	0.74675 0.53461 0.57914 -0.43200
O 	O 	0.71002 0.61173 0.57078 -0.44800
C 	C 	0.71500 0.33660 0.60410 0.38700
C 	C 	0.69480 0.32140 0.58780 -0.15300
C 	C 	0.69410 0.29470 0.59060 0.13100
C 	C 	0.75900 0.42110 0.61650 0.31400
C 	C 	0.76640 0.44960 0.61100 -0.11900
C 	C 	0.74860 0.46700 0.59952 0.12700
O 	O 	0.71560 0.86090 0.09992 -0.48100
O 	O 	0.73020 0.82650 0.11870 -0.39600
O 	O 	0.66300 0.74020 0.05720 -0.60100
O 	O 	0.73736 0.91282 0.10754 -0.41000
O 	O 	0.77509 0.90704 0.12835 -0.45000
O 	O 	0.74675 0.03461 0.07914 -0.43200
O 	O 	0.71002 0.11173 0.07078 -0.44800
C 	C 	0.71500 0.83660 0.10410 0.38700
C 	C 	0.69480 0.82140 0.08780 -0.15300
C 	C 	0.69410 0.79470 0.09060 0.13100
C 	C 	0.75900 0.92110 0.11650 0.31400
C 	C 	0.76640 0.94960 0.11100 -0.11800
C 	C 	0.74860 0.96700 0.09952 0.12600
O 	O 	0.21560 0.36090 0.09992 -0.48100
O 	O 	0.23020 0.32650 0.11870 -0.39600
O 	O 	0.16300 0.24020 0.05720 -0.60100
O 	O 	0.23736 0.41282 0.10754 -0.41000
O 	O 	0.27509 0.40704 0.12835 -0.45000
O 	O 	0.24675 0.53461 0.07914 -0.43200
O 	O 	0.21002 0.61173 0.07078 -0.44800
C 	C 	0.21500 0.33660 0.10410 0.38700
C 	C 	0.19480 0.32140 0.08780 -0.15300
C 	C 	0.19410 0.29470 0.09060 0.13100
C 	C 	0.25900 0.42110 0.11650 0.31400
C 	C 	0.26640 0.44960 0.11100 -0.11900
C 	C 	0.24860 0.46700 0.09952 0.12700
O 	O 	0.21560 0.86090 0.59992 -0.48100
O 	O 	0.23020 0.82650 0.61870 -0.39600
O 	O 	0.16300 0.74020 0.55720 -0.60100
O 	O 	0.23736 0.91282 0.60754 -0.41000
O 	O 	0.27509 0.90704 0.62835 -0.45000
O 	O 	0.24675 0.03461 0.57914 -0.43200
O 	O 	0.21002 0.11173 0.57078 -0.44800
C 	C 	0.21500 0.83660 0.60410 0.38700
C 	C 	0.19480 0.82140 0.58780 -0.15300
C 	C 	0.19410 0.79470 0.59060 0.13100
C 	C 	0.25900 0.92110 0.61650 0.31400
C 	C 	0.26640 0.94960 0.61100 -0.11800
C 	C 	0.24860 0.96700 0.59952 0.12600
O 	O 	0.21560 0.38910 0.65008 -0.48100
O 	O 	0.23020 0.42350 0.63130 -0.39600
O 	O 	0.16300 0.50980 0.69280 -0.60100
O 	O 	0.23736 0.33718 0.64246 -0.41000
O 	O 	0.27509 0.34296 0.62165 -0.45000
O 	O 	0.24675 0.21539 0.67086 -0.43200
O 	O 	0.21002 0.13827 0.67922 -0.44800
C 	C 	0.21500 0.41340 0.64590 0.38700
C 	C 	0.19480 0.42860 0.66220 -0.15300
C 	C 	0.19410 0.45530 0.65940 0.13100
C 	C 	0.25900 0.32890 0.63350 0.31400
C 	C 	0.26640 0.30040 0.63900 -0.11900
C 	C 	0.24860 0.28300 0.65048 0.12700
O 	O 	0.21560 0.88910 0.15008 -0.48100
O 	O 	0.23020 0.92350 0.13130 -0.39600
O 	O 	0.16300 0.00980 0.19280 -0.60300
O 	O 	0.23736 0.83718 0.14246 -0.41000
O 	O 	0.27509 0.84296 0.12165 -0.45000
O 	O 	0.24675 0.71539 0.17086 -0.43200
O 	O 	0.21002 0.63827 0.17922 -0.44800
C 	C 	0.21500 0.91340 0.14590 0.38700
C 	C 	0.19480 0.92860 0.16220 -0.15300
C 	C 	0.19410 0.95530 0.15940 0.13100
C 	C 	0.25900 0.82890 0.13350 0.31400
C 	C 	0.26640 0.80040 0.13900 -0.11900
C 	C 	0.24860 0.78300 0.15048 0.12700
O 	O 	0.71560 0.38910 0.15008 -0.48100
O 	O 	0.73020 0.42350 0.13130 -0.39600
O 	O 	0.66300 0.50980 0.19280 -0.60100
O 	O 	0.73736 0.33718 0.14246 -0.41000
O 	O 	0.77509 0.34296 0.12165 -0.45000
O 	O 	0.74675 0.21539 0.17086 -0.43200
O 	O 	0.71002 0.13827 0.17922 -0.44800
C 	C 	0.71500 0.41340 0.14590 0.38700
C 	C 	0.69480 0.42860 0.16220 -0.15300
C 	C 	0.69410 0.45530 0.15940 0.13100
C 	C 	0.75900 0.32890 0.13350 0.31400
C 	C 	0.76640 0.30040 0.13900 -0.11900
C 	C 	0.74860 0.28300 0.15048 0.12700
O 	O 	0.71560 0.88910 0.65008 -0.48100
O 	O 	0.73020 0.92350 0.63130 -0.39600
O 	O 	0.66300 0.00980 0.69280 -0.60300
O 	O 	0.73736 0.83718 0.64246 -0.41000
O 	O 	0.77509 0.84296 0.62165 -0.45000
O 	O 	0.74675 0.71539 0.67086 -0.43200
O 	O 	0.71002 0.63827 0.67922 -0.44800
C 	C 	0.71500 0.91340 0.64590 0.38700
C 	C 	0.69480 0.92860 0.66220 -0.15300
C 	C 	0.69410 0.95530 0.65940 0.13100
C 	C 	0.75900 0.82890 0.63350 0.31400
C 	C 	0.76640 0.80040 0.63900 -0.11900
C 	C 	0.74860 0.78300 0.65048 0.12700
O 	O 	0.09992 0.03440 0.88910 -0.48200
O 	O 	0.11870 0.01980 0.92350 -0.39600
O 	O 	0.05720 0.08700 0.00980 -0.60300
O 	O 	0.10754 0.01264 0.83718 -0.41100
O 	O 	0.12835 0.97491 0.84296 -0.45000
O 	O 	0.07914 0.00325 0.71539 -0.43200
O 	O 	0.07078 0.03998 0.63827 -0.44800
C 	C 	0.10410 0.03500 0.91340 0.38700
C 	C 	0.08780 0.05520 0.92860 -0.15300
C 	C 	0.09060 0.05590 0.95530 0.13100
C 	C 	0.11650 0.99100 0.82890 0.31500
C 	C 	0.11100 0.98360 0.80040 -0.11700
C 	C 	0.09952 0.00140 0.78300 0.12400
O 	O 	0.09992 0.53440 0.38910 -0.48100
O 	O 	0.11870 0.51980 0.42350 -0.39600
O 	O 	0.05720 0.58700 0.50980 -0.60100
O 	O 	0.10754 0.51264 0.33718 -0.41000
O 	O 	0.12835 0.47491 0.34296 -0.45000
O 	O 	0.07914 0.50325 0.21539 -0.43200
O 	O 	0.07078 0.53998 0.13827 -0.44800
C 	C 	0.10410 0.53500 0.41340 0.38700
C 	C 	0.08780 0.55520 0.42860 -0.15300
C 	C 	0.09060 0.55590 0.45530 0.13100
C 	C 	0.11650 0.49100 0.32890 0.31400
C 	C 	0.11100 0.48360 0.30040 -0.11900
C 	C 	0.09952 0.50140 0.28300 0.12700
O 	O 	0.59992 0.03440 0.38910 -0.48100
O 	O 	0.61870 0.01980 0.42350 -0.39600
O 	O 	0.55720 0.08700 0.50980 -0.60100
O 	O 	0.60754 0.01264 0.33718 -0.41100
O 	O 	0.62835 0.97491 0.34296 -0.45000
O 	O 	0.57914 0.00325 0.21539 -0.43200
O 	O 	0.57078 0.03998 0.13827 -0.44800
C 	C 	0.60410 0.03500 0.41340 0.38700
C 	C 	0.58780 0.05520 0.42860 -0.15300
C 	C 	0.59060 0.05590 0.45530 0.13100
C 	C 	0.61650 0.99100 0.32890 0.31500
C 	C 	0.61100 0.98360 0.30040 -0.11700
C 	C 	0.59952 0.00140 0.28300 0.12400
O 	O 	0.59992 0.53440 0.88910 -0.48100
O 	O 	0.61870 0.51980 0.92350 -0.39500
O 	O 	0.55720 0.58700 0.00980 -0.60300
O 	O 	0.60754 0.51264 0.83718 -0.41000
O 	O 	0.62835 0.47491 0.84296 -0.45000
O 	O 	0.57914 0.50325 0.71539 -0.43200
O 	O 	0.57078 0.53998 0.63827 -0.44800
C 	C 	0.60410 0.53500 0.91340 0.38700
C 	C 	0.58780 0.55520 0.92860 -0.15300
C 	C 	0.59060 0.55590 0.95530 0.13100
C 	C 	0.61650 0.49100 0.82890 0.31400
C 	C 	0.61100 0.48360 0.80040 -0.11900
C 	C 	0.59952 0.50140 0.78300 0.12700
O 	O 	0.15008 0.53440 0.86090 -0.48100
O 	O 	0.13130 0.51980 0.82650 -0.39600
O 	O 	0.19280 0.58700 0.74020 -0.60100
O 	O 	0.14246 0.51264 0.91282 -0.41000
O 	O 	0.12165 0.47491 0.90704 -0.45000
O 	O 	0.17086 0.50325 0.03461 -0.43200
O 	O 	0.17922 0.53998 0.11173 -0.44800
C 	C 	0.14590 0.53500 0.83660 0.38700
C 	C 	0.16220 0.55520 0.82140 -0.15300
C 	C 	0.15940 0.55590 0.79470 0.13100
C 	C 	0.13350 0.49100 0.92110 0.31400
C 	C 	0.13900 0.48360 0.94960 -0.11800
C 	C 	0.15048 0.50140 0.96700 0.12600
O 	O 	0.15008 0.03440 0.36090 -0.48100
O 	O 	0.13130 0.01980 0.32650 -0.39600
O 	O 	0.19280 0.08700 0.24020 -0.60100
O 	O 	0.14246 0.01264 0.41282 -0.41100
O 	O 	0.12165 0.97491 0.40704 -0.45000
O 	O 	0.17086 0.00325 0.53461 -0.43200
O 	O 	0.17922 0.03998 0.61173 -0.44800
C 	C 	0.14590 0.03500 0.33660 0.38700
C 	C 	0.16220 0.05520 0.32140 -0.15300
C 	C 	0.15940 0.05590 0.29470 0.13100
C 	C 	0.13350 0.99100 0.42110 0.31500
C 	C 	0.13900 0.98360 0.44960 -0.11700
C 	C 	0.15048 0.00140 0.46700 0.12400
O 	O 	0.65008 0.53440 0.36090 -0.48100
O 	O 	0.63130 0.51980 0.32650 -0.39600
O 	O 	0.69280 0.58700 0.24020 -0.60100
O 	O 	0.64246 0.51264 0.41282 -0.41000
O 	O 	0.62165 0.47491 0.40704 -0.45000
O 	O 	0.67086 0.50325 0.53461 -0.43200
O 	O 	0.67922 0.53998 0.61173 -0.44800
C 	C 	0.64590 0.53500 0.33660 0.38700
C 	C 	0.66220 0.55520 0.32140 -0.15300
C 	C 	0.65940 0.55590 0.29470 0.13100
C 	C 	0.63350 0.49100 0.42110 0.31400
C 	C 	0.63900 0.48360 0.44960 -0.11900
C 	C 	0.65048 0.50140 0.46700 0.12700
O 	O 	0.65008 0.03440 0.86090 -0.48100
O 	O 	0.63130 0.01980 0.82650 -0.39600
O 	O 	0.69280 0.08700 0.74020 -0.60100
O 	O 	0.64246 0.01264 0.91282 -0.41100
O 	O 	0.62165 0.97491 0.90704 -0.45000
O 	O 	0.67086 0.00325 0.03461 -0.43200
O 	O 	0.67922 0.03998 0.11173 -0.44800
C 	C 	0.64590 0.03500 0.83660 0.38700
C 	C 	0.66220 0.05520 0.82140 -0.15300
C 	C 	0.65940 0.05590 0.79470 0.13100
C 	C 	0.63350 0.99100 0.92110 0.31500
C 	C 	0.63900 0.98360 0.94960 -0.11600
C 	C 	0.65048 0.00140 0.96700 0.12300
O 	O 	0.59992 0.71560 0.36090 -0.48100
O 	O 	0.61870 0.73020 0.32650 -0.39600
O 	O 	0.55720 0.66300 0.24020 -0.60100
O 	O 	0.60754 0.73736 0.41282 -0.41000
O 	O 	0.62835 0.77509 0.40704 -0.45000
O 	O 	0.57914 0.74675 0.53461 -0.43200
O 	O 	0.57078 0.71002 0.61173 -0.44800
C 	C 	0.60410 0.71500 0.33660 0.38700
C 	C 	0.58780 0.69480 0.32140 -0.15300
C 	C 	0.59060 0.69410 0.29470 0.13100
C 	C 	0.61650 0.75900 0.42110 0.31400
C 	C 	0.61100 0.76640 0.44960 -0.11900
C 	C 	0.59952 0.74860 0.46700 0.12700
O 	O 	0.59992 0.21560 0.86090 -0.48100
O 	O 	0.61870 0.23020 0.82650 -0.39600
O 	O 	0.55720 0.16300 0.74020 -0.60100
O 	O 	0.60754 0.23736 0.91282 -0.41000
O 	O 	0.62835 0.27509 0.90704 -0.45000
O 	O 	0.57914 0.24675 0.03461 -0.43200
O 	O 	0.57078 0.21002 0.11173 -0.44800
C 	C 	0.60410 0.21500 0.83660 0.38700
C 	C 	0.58780 0.19480 0.82140 -0.15300
C 	C 	0.59060 0.19410 0.79470 0.13100
C 	C 	0.61650 0.25900 0.92110 0.31400
C 	C 	0.61100 0.26640 0.94960 -0.11800
C 	C 	0.59952 0.24860 0.96700 0.12600
O 	O 	0.09992 0.71560 0.86090 -0.48100
O 	O 	0.11870 0.73020 0.82650 -0.39600
O 	O 	0.05720 0.66300 0.74020 -0.60100
O 	O 	0.10754 0.73736 0.91282 -0.41000
O 	O 	0.12835 0.77509 0.90704 -0.45000
O 	O 	0.07914 0.74675 0.03461 -0.43200
O 	O 	0.07078 0.71002 0.11173 -0.44800
C 	C 	0.10410 0.71500 0.83660 0.38700
C 	C 	0.08780 0.69480 0.82140 -0.15300
C 	C 	0.09060 0.69410 0.79470 0.13100
C 	C 	0.11650 0.75900 0.92110 0.31400
C 	C 	0.11100 0.76640 0.94960 -0.11800
C 	C 	0.09952 0.74860 0.96700 0.12600
O 	O 	0.09992 0.21560 0.36090 -0.48100
O 	O 	0.11870 0.23020 0.32650 -0.39600
O 	O 	0.05720 0.16300 0.24020 -0.60100
O 	O 	0.10754 0.23736 0.41282 -0.41000
O 	O 	0.12835 0.27509 0.40704 -0.45000
O 	O 	0.07914 0.24675 0.53461 -0.43200
O 	O 	0.07078 0.21002 0.61173 -0.44800
C 	C 	0.10410 0.21500 0.33660 0.38700
C 	C 	0.08780 0.19480 0.32140 -0.15300
C 	C 	0.09060 0.19410 0.29470 0.13100
C 	C 	0.11650 0.25900 0.42110 0.31400
C 	C 	0.11100 0.26640 0.44960 -0.11900
C 	C 	0.09952 0.24860 0.46700 0.12700
O 	O 	0.65008 0.21560 0.38910 -0.48100
O 	O 	0.63130 0.23020 0.42350 -0.39600
O 	O 	0.69280 0.16300 0.50980 -0.60100
O 	O 	0.64246 0.23736 0.33718 -0.41000
O 	O 	0.62165 0.27509 0.34296 -0.45000
O 	O 	0.67086 0.24675 0.21539 -0.43200
O 	O 	0.67922 0.21002 0.13827 -0.44800
C 	C 	0.64590 0.21500 0.41340 0.38700
C 	C 	0.66220 0.19480 0.42860 -0.15300
C 	C 	0.65940 0.19410 0.45530 0.13100
C 	C 	0.63350 0.25900 0.32890 0.31400
C 	C 	0.63900 0.26640 0.30040 -0.11900
C 	C 	0.65048 0.24860 0.28300 0.12700
O 	O 	0.65008 0.71560 0.88910 -0.48100
O 	O 	0.63130 0.73020 0.92350 -0.39600
O 	O 	0.69280 0.66300 0.00980 -0.60300
O 	O 	0.64246 0.73736 0.83718 -0.41000
O 	O 	0.62165 0.77509 0.84296 -0.45000
O 	O 	0.67086 0.74675 0.71539 -0.43200
O 	O 	0.67922 0.71002 0.63827 -0.44800
C 	C 	0.64590 0.71500 0.91340 0.38700
C 	C 	0.66220 0.69480 0.92860 -0.15300
C 	C 	0.65940 0.69410 0.95530 0.13100
C 	C 	0.63350 0.75900 0.82890 0.31400
C 	C 	0.63900 0.76640 0.80040 -0.11900
C 	C 	0.65048 0.74860 0.78300 0.12700
O 	O 	0.15008 0.21560 0.88910 -0.48100
O 	O 	0.13130 0.23020 0.92350 -0.39600
O 	O 	0.19280 0.16300 0.00980 -0.60300
O 	O 	0.14246 0.23736 0.83718 -0.41000
O 	O 	0.12165 0.27509 0.84296 -0.45000
O 	O 	0.17086 0.24675 0.71539 -0.43200
O 	O 	0.17922 0.21002 0.63827 -0.44800
C 	C 	0.14590 0.21500 0.91340 0.38700
C 	C 	0.16220 0.19480 0.92860 -0.15300
C 	C 	0.15940 0.19410 0.95530 0.13100
C 	C 	0.13350 0.25900 0.82890 0.31400
C 	C 	0.13900 0.26640 0.80040 -0.11900
C 	C 	0.15048 0.24860 0.78300 0.12700
O 	O 	0.15008 0.71560 0.38910 -0.48100
O 	O 	0.13130 0.73020 0.42350 -0.39600
O 	O 	0.19280 0.66300 0.50980 -0.60100
O 	O 	0.14246 0.73736 0.33718 -0.41000
O 	O 	0.12165 0.77509 0.34296 -0.45000
O 	O 	0.17086 0.74675 0.21539 -0.43200
O 	O 	0.17922 0.71002 0.13827 -0.44800
C 	C 	0.14590 0.71500 0.41340 0.38700
C 	C 	0.16220 0.69480 0.42860 -0.15300
C 	C 	0.15940 0.69410 0.45530 0.13100
C 	C 	0.13350 0.75900 0.32890 0.31400
C 	C 	0.13900 0.76640 0.30040 -0.11900
C 	C 	0.15048 0.74860 0.28300 0.12700
O 	O 	0.84992 0.13910 0.46560 -0.48100
O 	O 	0.86870 0.17350 0.48020 -0.39600
O 	O 	0.80720 0.25980 0.41300 -0.60100
O 	O 	0.85754 0.08718 0.48736 -0.41000
O 	O 	0.87835 0.09296 0.52509 -0.45000
O 	O 	0.82914 0.96539 0.49675 -0.43300
O 	O 	0.82078 0.88827 0.46002 -0.44800
C 	C 	0.85410 0.16340 0.46500 0.38700
C 	C 	0.83780 0.17860 0.44480 -0.15300
C 	C 	0.84060 0.20530 0.44410 0.13100
C 	C 	0.86650 0.07890 0.50900 0.31500
C 	C 	0.86100 0.05040 0.51640 -0.11900
C 	C 	0.84952 0.03300 0.49860 0.12700
O 	O 	0.84992 0.63910 0.96560 -0.48100
O 	O 	0.86870 0.67350 0.98020 -0.39500
O 	O 	0.80720 0.75980 0.91300 -0.60100
O 	O 	0.85754 0.58718 0.98736 -0.40900
O 	O 	0.87835 0.59296 0.02509 -0.45000
O 	O 	0.82914 0.46539 0.99675 -0.43200
O 	O 	0.82078 0.38827 0.96002 -0.44800
C 	C 	0.85410 0.66340 0.96500 0.38700
C 	C 	0.83780 0.67860 0.94480 -0.15300
C 	C 	0.84060 0.70530 0.94410 0.13100
C 	C 	0.86650 0.57890 0.00900 0.31300
C 	C 	0.86100 0.55040 0.01640 -0.12000
C 	C 	0.84952 0.53300 0.99860 0.13000
O 	O 	0.34992 0.13910 0.96560 -0.48100
O 	O 	0.36870 0.17350 0.98020 -0.39500
O 	O 	0.30720 0.25980 0.91300 -0.60100
O 	O 	0.35754 0.08718 0.98736 -0.40900
O 	O 	0.37835 0.09296 0.02509 -0.45000
O 	O 	0.32914 0.96539 0.99675 -0.43300
O 	O 	0.32078 0.88827 0.96002 -0.44800
C 	C 	0.35410 0.16340 0.96500 0.38700
C 	C 	0.33780 0.17860 0.94480 -0.15300
C 	C 	0.34060 0.20530 0.94410 0.13100
C 	C 	0.36650 0.07890 0.00900 0.31400
C 	C 	0.36100 0.05040 0.01640 -0.12100
C 	C 	0.34952 0.03300 0.99860 0.13000
O 	O 	0.34992 0.63910 0.46560 -0.48100
O 	O 	0.36870 0.67350 0.48020 -0.39600
O 	O 	0.30720 0.75980 0.41300 -0.60100
O 	O 	0.35754 0.58718 0.48736 -0.41000
O 	O 	0.37835 0.59296 0.52509 -0.45000
O 	O 	0.32914 0.46539 0.49675 -0.43200
O 	O 	0.32078 0.38827 0.46002 -0.44800
C 	C 	0.35410 0.66340 0.46500 0.38700
C 	C 	0.33780 0.67860 0.44480 -0.15300
C 	C 	0.34060 0.70530 0.44410 0.13100
C 	C 	0.36650 0.57890 0.50900 0.31400
C 	C 	0.36100 0.55040 0.51640 -0.11900
C 	C 	0.34952 0.53300 0.49860 0.12700
O 	O 	0.90008 0.11090 0.96560 -0.48100
O 	O 	0.88130 0.07650 0.98020 -0.39500
O 	O 	0.94280 0.99020 0.91300 -0.60000
O 	O 	0.89246 0.16282 0.98736 -0.40900
O 	O 	0.87165 0.15704 0.02509 -0.45000
O 	O 	0.92086 0.28461 0.99675 -0.43200
O 	O 	0.92922 0.36173 0.96002 -0.44800
C 	C 	0.89590 0.08660 0.96500 0.38700
C 	C 	0.91220 0.07140 0.94480 -0.15300
C 	C 	0.90940 0.04470 0.94410 0.13000
C 	C 	0.88350 0.17110 0.00900 0.31300
C 	C 	0.88900 0.19960 0.01640 -0.12000
C 	C 	0.90048 0.21700 0.99860 0.13000
O 	O 	0.90008 0.61090 0.46560 -0.48100
O 	O 	0.88130 0.57650 0.48020 -0.39600
O 	O 	0.94280 0.49020 0.41300 -0.60100
O 	O 	0.89246 0.66282 0.48736 -0.41000
O 	O 	0.87165 0.65704 0.52509 -0.45000
O 	O 	0.92086 0.78461 0.49675 -0.43200
O 	O 	0.92922 0.86173 0.46002 -0.44800
C 	C 	0.89590 0.58660 0.46500 0.38700
C 	C 	0.91220 0.57140 0.44480 -0.15300
C 	C 	0.90940 0.54470 0.44410 0.13100
C 	C 	0.88350 0.67110 0.50900 0.31400
C 	C 	0.88900 0.69960 0.51640 -0.11900
C 	C 	0.90048 0.71700 0.49860 0.12700
O 	O 	0.40008 0.11090 0.46560 -0.48100
O 	O 	0.38130 0.07650 0.48020 -0.39600
O 	O 	0.44280 0.99020 0.41300 -0.60000
O 	O 	0.39246 0.16282 0.48736 -0.41000
O 	O 	0.37165 0.15704 0.52509 -0.45000
O 	O 	0.42086 0.28461 0.49675 -0.43200
O 	O 	0.42922 0.36173 0.46002 -0.44800
C 	C 	0.39590 0.08660 0.46500 0.38700
C 	C 	0.41220 0.07140 0.44480 -0.15300
C 	C 	0.40940 0.04470 0.44410 0.13000
C 	C 	0.38350 0.17110 0.50900 0.31400
C 	C 	0.38900 0.19960 0.51640 -0.11900
C 	C 	0.40048 0.21700 0.49860 0.12700
O 	O 	0.40008 0.61090 0.96560 -0.48100
O 	O 	0.38130 0.57650 0.98020 -0.39500
O 	O 	0.44280 0.49020 0.91300 -0.60100
O 	O 	0.39246 0.66282 0.98736 -0.40900
O 	O 	0.37165 0.65704 0.02509 -0.45000
O 	O 	0.42086 0.78461 0.99675 -0.43200
O 	O 	0.42922 0.86173 0.96002 -0.44800
C 	C 	0.39590 0.58660 0.96500 0.38700
C 	C 	0.41220 0.57140 0.94480 -0.15300
C 	C 	0.40940 0.54470 0.94410 0.13100
C 	C 	0.38350 0.67110 0.00900 0.31300
C 	C 	0.38900 0.69960 0.01640 -0.12000
C 	C 	0.40048 0.71700 0.99860 0.13000
O 	O 	0.34992 0.61090 0.78440 -0.48100
O 	O 	0.36870 0.57650 0.76980 -0.39600
O 	O 	0.30720 0.49020 0.83700 -0.60100
O 	O 	0.35754 0.66282 0.76264 -0.41000
O 	O 	0.37835 0.65704 0.72491 -0.45000
O 	O 	0.32914 0.78461 0.75325 -0.43200
O 	O 	0.32078 0.86173 0.78998 -0.44800
C 	C 	0.35410 0.58660 0.78500 0.38700
C 	C 	0.33780 0.57140 0.80520 -0.15300
C 	C 	0.34060 0.54470 0.80590 0.13100
C 	C 	0.36650 0.67110 0.74100 0.31400
C 	C 	0.36100 0.69960 0.73360 -0.11900
C 	C 	0.34952 0.71700 0.75140 0.12700
O 	O 	0.34992 0.11090 0.28440 -0.48100
O 	O 	0.36870 0.07650 0.26980 -0.39600
O 	O 	0.30720 0.99020 0.33700 -0.60000
O 	O 	0.35754 0.16282 0.26264 -0.41000
O 	O 	0.37835 0.15704 0.22491 -0.45000
O 	O 	0.32914 0.28461 0.25325 -0.43200
O 	O 	0.32078 0.36173 0.28998 -0.44800
C 	C 	0.35410 0.08660 0.28500 0.38700
C 	C 	0.33780 0.07140 0.30520 -0.15300
C 	C 	0.34060 0.04470 0.30590 0.13000
C 	C 	0.36650 0.17110 0.24100 0.31400
C 	C 	0.36100 0.19960 0.23360 -0.11900
C 	C 	0.34952 0.21700 0.25140 0.12700
O 	O 	0.84992 0.61090 0.28440 -0.48100
O 	O 	0.86870 0.57650 0.26980 -0.39600
O 	O 	0.80720 0.49020 0.33700 -0.60100
O 	O 	0.85754 0.66282 0.26264 -0.41000
O 	O 	0.87835 0.65704 0.22491 -0.45000
O 	O 	0.82914 0.78461 0.25325 -0.43200
O 	O 	0.82078 0.86173 0.28998 -0.44800
C 	C 	0.85410 0.58660 0.28500 0.38700
C 	C 	0.83780 0.57140 0.30520 -0.15300
C 	C 	0.84060 0.54470 0.30590 0.13100
C 	C 	0.86650 0.67110 0.24100 0.31400
C 	C 	0.86100 0.69960 0.23360 -0.11900
C 	C 	0.84952 0.71700 0.25140 0.12700
O 	O 	0.84992 0.11090 0.78440 -0.48100
O 	O 	0.86870 0.07650 0.76980 -0.39600
O 	O 	0.80720 0.99020 0.83700 -0.60000
O 	O 	0.85754 0.16282 0.76264 -0.41000
O 	O 	0.87835 0.15704 0.72491 -0.45000
O 	O 	0.82914 0.28461 0.75325 -0.43200
O 	O 	0.82078 0.36173 0.78998 -0.44800
C 	C 	0.85410 0.08660 0.78500 0.38700
C 	C 	0.83780 0.07140 0.80520 -0.15300
C 	C 	0.84060 0.04470 0.80590 0.13000
C 	C 	0.86650 0.17110 0.74100 0.31400
C 	C 	0.86100 0.19960 0.73360 -0.11900
C 	C 	0.84952 0.21700 0.75140 0.12700
O 	O 	0.40008 0.63910 0.28440 -0.48100
O 	O 	0.38130 0.67350 0.26980 -0.39600
O 	O 	0.44280 0.75980 0.33700 -0.60100
O 	O 	0.39246 0.58718 0.26264 -0.41000
O 	O 	0.37165 0.59296 0.22491 -0.45000
O 	O 	0.42086 0.46539 0.25325 -0.43200
O 	O 	0.42922 0.38827 0.28998 -0.44800
C 	C 	0.39590 0.66340 0.28500 0.38700
C 	C 	0.41220 0.67860 0.30520 -0.15300
C 	C 	0.40940 0.70530 0.30590 0.13100
C 	C 	0.38350 0.57890 0.24100 0.31400
C 	C 	0.38900 0.55040 0.23360 -0.11900
C 	C 	0.40048 0.53300 0.25140 0.12700
O 	O 	0.40008 0.13910 0.78440 -0.48100
O 	O 	0.38130 0.17350 0.76980 -0.39600
O 	O 	0.44280 0.25980 0.83700 -0.60100
O 	O 	0.39246 0.08718 0.76264 -0.41000
O 	O 	0.37165 0.09296 0.72491 -0.45000
O 	O 	0.42086 0.96539 0.75325 -0.43300
O 	O 	0.42922 0.88827 0.78998 -0.44800
C 	C 	0.39590 0.16340 0.78500 0.38700
C 	C 	0.41220 0.17860 0.80520 -0.15300
C 	C 	0.40940 0.20530 0.80590 0.13100
C 	C 	0.38350 0.07890 0.74100 0.31500
C 	C 	0.38900 0.05040 0.73360 -0.11900
C 	C 	0.40048 0.03300 0.75140 0.12700
O 	O 	0.90008 0.63910 0.78440 -0.48100
O 	O 	0.88130 0.67350 0.76980 -0.39600
O 	O 	0.94280 0.75980 0.83700 -0.60100
O 	O 	0.89246 0.58718 0.76264 -0.41000
O 	O 	0.87165 0.59296 0.72491 -0.45000
O 	O 	0.92086 0.46539 0.75325 -0.43200
O 	O 	0.92922 0.38827 0.78998 -0.44800
C 	C 	0.89590 0.66340 0.78500 0.38700
C 	C 	0.91220 0.67860 0.80520 -0.15300
C 	C 	0.90940 0.70530 0.80590 0.13100
C 	C 	0.88350 0.57890 0.74100 0.31400
C 	C 	0.88900 0.55040 0.73360 -0.11900
C 	C 	0.90048 0.53300 0.75140 0.12700
O 	O 	0.90008 0.13910 0.28440 -0.48100
O 	O 	0.88130 0.17350 0.26980 -0.39600
O 	O 	0.94280 0.25980 0.33700 -0.60100
O 	O 	0.89246 0.08718 0.26264 -0.41000
O 	O 	0.87165 0.09296 0.22491 -0.45000
O 	O 	0.92086 0.96539 0.25325 -0.43200
O 	O 	0.92922 0.88827 0.28998 -0.44800
C 	C 	0.89590 0.16340 0.28500 0.38700
C 	C 	0.91220 0.17860 0.30520 -0.15300
C 	C 	0.90940 0.20530 0.30590 0.13100
C 	C 	0.88350 0.07890 0.24100 0.31500
C 	C 	0.88900 0.05040 0.23360 -0.11900
C 	C 	0.90048 0.03300 0.25140 0.12700
O 	O 	0.63910 0.28440 0.40008 -0.48100
O 	O 	0.67350 0.26980 0.38130 -0.39600
O 	O 	0.75980 0.33700 0.44280 -0.60100
O 	O 	0.58718 0.26264 0.39246 -0.41000
O 	O 	0.59296 0.22491 0.37165 -0.45000
O 	O 	0.46539 0.25325 0.42086 -0.43200
O 	O 	0.38827 0.28998 0.42922 -0.44800
C 	C 	0.66340 0.28500 0.39590 0.38700
C 	C 	0.67860 0.30520 0.41220 -0.15300
C 	C 	0.70530 0.30590 0.40940 0.13100
C 	C 	0.57890 0.24100 0.38350 0.31400
C 	C 	0.55040 0.23360 0.38900 -0.11900
C 	C 	0.53300 0.25140 0.40048 0.12700
O 	O 	0.63910 0.78440 0.90008 -0.48100
O 	O 	0.67350 0.76980 0.88130 -0.39600
O 	O 	0.75980 0.83700 0.94280 -0.60100
O 	O 	0.58718 0.76264 0.89246 -0.41000
O 	O 	0.59296 0.72491 0.87165 -0.45000
O 	O 	0.46539 0.75325 0.92086 -0.43200
O 	O 	0.38827 0.78998 0.92922 -0.44800
C 	C 	0.66340 0.78500 0.89590 0.38700
C 	C 	0.67860 0.80520 0.91220 -0.15300
C 	C 	0.70530 0.80590 0.90940 0.13100
C 	C 	0.57890 0.74100 0.88350 0.31400
C 	C 	0.55040 0.73360 0.88900 -0.11900
C 	C 	0.53300 0.75140 0.90048 0.12700
O 	O 	0.13910 0.28440 0.90008 -0.48100
O 	O 	0.17350 0.26980 0.88130 -0.39600
O 	O 	0.25980 0.33700 0.94280 -0.60100
O 	O 	0.08718 0.26264 0.89246 -0.41000
O 	O 	0.09296 0.22491 0.87165 -0.45000
O 	O 	0.96539 0.25325 0.92086 -0.43200
O 	O 	0.88827 0.28998 0.92922 -0.44800
C 	C 	0.16340 0.28500 0.89590 0.38700
C 	C 	0.17860 0.30520 0.91220 -0.15300
C 	C 	0.20530 0.30590 0.90940 0.13100
C 	C 	0.07890 0.24100 0.88350 0.31500
C 	C 	0.05040 0.23360 0.88900 -0.11900
C 	C 	0.03300 0.25140 0.90048 0.12700
O 	O 	0.13910 0.78440 0.40008 -0.48100
O 	O 	0.17350 0.76980 0.38130 -0.39600
O 	O 	0.25980 0.83700 0.44280 -0.60100
O 	O 	0.08718 0.76264 0.39246 -0.41000
O 	O 	0.09296 0.72491 0.37165 -0.45000
O 	O 	0.96539 0.75325 0.42086 -0.43300
O 	O 	0.88827 0.78998 0.42922 -0.44800
C 	C 	0.16340 0.78500 0.39590 0.38700
C 	C 	0.17860 0.80520 0.41220 -0.15300
C 	C 	0.20530 0.80590 0.40940 0.13100
C 	C 	0.07890 0.74100 0.38350 0.31500
C 	C 	0.05040 0.73360 0.38900 -0.11900
C 	C 	0.03300 0.75140 0.40048 0.12700
O 	O 	0.61090 0.78440 0.34992 -0.48100
O 	O 	0.57650 0.76980 0.36870 -0.39600
O 	O 	0.49020 0.83700 0.30720 -0.60100
O 	O 	0.66282 0.76264 0.35754 -0.41000
O 	O 	0.65704 0.72491 0.37835 -0.45000
O 	O 	0.78461 0.75325 0.32914 -0.43200
O 	O 	0.86173 0.78998 0.32078 -0.44800
C 	C 	0.58660 0.78500 0.35410 0.38700
C 	C 	0.57140 0.80520 0.33780 -0.15300
C 	C 	0.54470 0.80590 0.34060 0.13100
C 	C 	0.67110 0.74100 0.36650 0.31400
C 	C 	0.69960 0.73360 0.36100 -0.11900
C 	C 	0.71700 0.75140 0.34952 0.12700
O 	O 	0.61090 0.28440 0.84992 -0.48100
O 	O 	0.57650 0.26980 0.86870 -0.39600
O 	O 	0.49020 0.33700 0.80720 -0.60100
O 	O 	0.66282 0.26264 0.85754 -0.41000
O 	O 	0.65704 0.22491 0.87835 -0.45000
O 	O 	0.78461 0.25325 0.82914 -0.43200
O 	O 	0.86173 0.28998 0.82078 -0.44800
C 	C 	0.58660 0.28500 0.85410 0.38700
C 	C 	0.57140 0.30520 0.83780 -0.15300
C 	C 	0.54470 0.30590 0.84060 0.13100
C 	C 	0.67110 0.24100 0.86650 0.31400
C 	C 	0.69960 0.23360 0.86100 -0.11900
C 	C 	0.71700 0.25140 0.84952 0.12700
O 	O 	0.11090 0.78440 0.84992 -0.48100
O 	O 	0.07650 0.76980 0.86870 -0.39600
O 	O 	0.99020 0.83700 0.80720 -0.60000
O 	O 	0.16282 0.76264 0.85754 -0.41000
O 	O 	0.15704 0.72491 0.87835 -0.45000
O 	O 	0.28461 0.75325 0.82914 -0.43200
O 	O 	0.36173 0.78998 0.82078 -0.44800
C 	C 	0.08660 0.78500 0.85410 0.38700
C 	C 	0.07140 0.80520 0.83780 -0.15300
C 	C 	0.04470 0.80590 0.84060 0.13000
C 	C 	0.17110 0.74100 0.86650 0.31400
C 	C 	0.19960 0.73360 0.86100 -0.11900
C 	C 	0.21700 0.75140 0.84952 0.12700
O 	O 	0.11090 0.28440 0.34992 -0.48100
O 	O 	0.07650 0.26980 0.36870 -0.39600
O 	O 	0.99020 0.33700 0.30720 -0.60000
O 	O 	0.16282 0.26264 0.35754 -0.41000
O 	O 	0.15704 0.22491 0.37835 -0.45000
O 	O 	0.28461 0.25325 0.32914 -0.43200
O 	O 	0.36173 0.28998 0.32078 -0.44800
C 	C 	0.08660 0.28500 0.35410 0.38700
C 	C 	0.07140 0.30520 0.33780 -0.15300
C 	C 	0.04470 0.30590 0.34060 0.13000
C 	C 	0.17110 0.24100 0.36650 0.31400
C 	C 	0.19960 0.23360 0.36100 -0.11900
C 	C 	0.21700 0.25140 0.34952 0.12700
O 	O 	0.11090 0.96560 0.90008 -0.48100
O 	O 	0.07650 0.98020 0.88130 -0.39500
O 	O 	0.99020 0.91300 0.94280 -0.60000
O 	O 	0.16282 0.98736 0.89246 -0.40900
O 	O 	0.15704 0.02509 0.87165 -0.45000
O 	O 	0.28461 0.99675 0.92086 -0.43200
O 	O 	0.36173 0.96002 0.92922 -0.44800
C 	C 	0.08660 0.96500 0.89590 0.38700
C 	C 	0.07140 0.94480 0.91220 -0.15300
C 	C 	0.04470 0.94410 0.90940 0.13000
C 	C 	0.17110 0.00900 0.88350 0.31300
C 	C 	0.19960 0.01640 0.88900 -0.12000
C 	C 	0.21700 0.99860 0.90048 0.13000
O 	O 	0.11090 0.46560 0.40008 -0.48100
O 	O 	0.07650 0.48020 0.38130 -0.39600
O 	O 	0.99020 0.41300 0.44280 -0.60000
O 	O 	0.16282 0.48736 0.39246 -0.41000
O 	O 	0.15704 0.52509 0.37165 -0.45000
O 	O 	0.28461 0.49675 0.42086 -0.43200
O 	O 	0.36173 0.46002 0.42922 -0.44800
C 	C 	0.08660 0.46500 0.39590 0.38700
C 	C 	0.07140 0.44480 0.41220 -0.15300
C 	C 	0.04470 0.44410 0.40940 0.13000
C 	C 	0.17110 0.50900 0.38350 0.31400
C 	C 	0.19960 0.51640 0.38900 -0.11900
C 	C 	0.21700 0.49860 0.40048 0.12700
O 	O 	0.61090 0.96560 0.40008 -0.48100
O 	O 	0.57650 0.98020 0.38130 -0.39500
O 	O 	0.49020 0.91300 0.44280 -0.60100
O 	O 	0.66282 0.98736 0.39246 -0.40900
O 	O 	0.65704 0.02509 0.37165 -0.45000
O 	O 	0.78461 0.99675 0.42086 -0.43200
O 	O 	0.86173 0.96002 0.42922 -0.44800
C 	C 	0.58660 0.96500 0.39590 0.38700
C 	C 	0.57140 0.94480 0.41220 -0.15300
C 	C 	0.54470 0.94410 0.40940 0.13100
C 	C 	0.67110 0.00900 0.38350 0.31300
C 	C 	0.69960 0.01640 0.38900 -0.12000
C 	C 	0.71700 0.99860 0.40048 0.13000
O 	O 	0.61090 0.46560 0.90008 -0.48100
O 	O 	0.57650 0.48020 0.88130 -0.39600
O 	O 	0.49020 0.41300 0.94280 -0.60100
O 	O 	0.66282 0.48736 0.89246 -0.41000
O 	O 	0.65704 0.52509 0.87165 -0.45000
O 	O 	0.78461 0.49675 0.92086 -0.43200
O 	O 	0.86173 0.46002 0.92922 -0.44800
C 	C 	0.58660 0.46500 0.89590 0.38700
C 	C 	0.57140 0.44480 0.91220 -0.15300
C 	C 	0.54470 0.44410 0.90940 0.13100
C 	C 	0.67110 0.50900 0.88350 0.31400
C 	C 	0.69960 0.51640 0.88900 -0.11900
C 	C 	0.71700 0.49860 0.90048 0.12700
O 	O 	0.13910 0.46560 0.84992 -0.48100
O 	O 	0.17350 0.48020 0.86870 -0.39600
O 	O 	0.25980 0.41300 0.80720 -0.60100
O 	O 	0.08718 0.48736 0.85754 -0.41000
O 	O 	0.09296 0.52509 0.87835 -0.45000
O 	O 	0.96539 0.49675 0.82914 -0.43300
O 	O 	0.88827 0.46002 0.82078 -0.44800
C 	C 	0.16340 0.46500 0.85410 0.38700
C 	C 	0.17860 0.44480 0.83780 -0.15300
C 	C 	0.20530 0.44410 0.84060 0.13100
C 	C 	0.07890 0.50900 0.86650 0.31500
C 	C 	0.05040 0.51640 0.86100 -0.11900
C 	C 	0.03300 0.49860 0.84952 0.12700
O 	O 	0.13910 0.96560 0.34992 -0.48100
O 	O 	0.17350 0.98020 0.36870 -0.39500
O 	O 	0.25980 0.91300 0.30720 -0.60100
O 	O 	0.08718 0.98736 0.35754 -0.40900
O 	O 	0.09296 0.02509 0.37835 -0.45000
O 	O 	0.96539 0.99675 0.32914 -0.43300
O 	O 	0.88827 0.96002 0.32078 -0.44800
C 	C 	0.16340 0.96500 0.35410 0.38700
C 	C 	0.17860 0.94480 0.33780 -0.15300
C 	C 	0.20530 0.94410 0.34060 0.13100
C 	C 	0.07890 0.00900 0.36650 0.31400
C 	C 	0.05040 0.01640 0.36100 -0.12100
C 	C 	0.03300 0.99860 0.34952 0.13000
O 	O 	0.63910 0.46560 0.34992 -0.48100
O 	O 	0.67350 0.48020 0.36870 -0.39600
O 	O 	0.75980 0.41300 0.30720 -0.60100
O 	O 	0.58718 0.48736 0.35754 -0.41000
O 	O 	0.59296 0.52509 0.37835 -0.45000
O 	O 	0.46539 0.49675 0.32914 -0.43200
O 	O 	0.38827 0.46002 0.32078 -0.44800
C 	C 	0.66340 0.46500 0.35410 0.38700
C 	C 	0.67860 0.44480 0.33780 -0.15300
C 	C 	0.70530 0.44410 0.34060 0.13100
C 	C 	0.57890 0.50900 0.36650 0.31400
C 	C 	0.55040 0.51640 0.36100 -0.11900
C 	C 	0.53300 0.49860 0.34952 0.12700
O 	O 	0.63910 0.96560 0.84992 -0.48100
O 	O 	0.67350 0.98020 0.86870 -0.39500
O 	O 	0.75980 0.91300 0.80720 -0.60100
O 	O 	0.58718 0.98736 0.85754 -0.40900
O 	O 	0.59296 0.02509 0.87835 -0.45000
O 	O 	0.46539 0.99675 0.82914 -0.43200
O 	O 	0.38827 0.96002 0.82078 -0.44800
C 	C 	0.66340 0.96500 0.85410 0.38700
C 	C 	0.67860 0.94480 0.83780 -0.15300
C 	C 	0.70530 0.94410 0.84060 0.13100
C 	C 	0.57890 0.00900 0.86650 0.31300
C 	C 	0.55040 0.01640 0.86100 -0.12000
C 	C 	0.53300 0.99860 0.84952 0.13000
O 	O 	0.78440 0.34992 0.61090 -0.48100
O 	O 	0.76980 0.36870 0.57650 -0.39600
O 	O 	0.83700 0.30720 0.49020 -0.60100
O 	O 	0.76264 0.35754 0.66282 -0.41000
O 	O 	0.72491 0.37835 0.65704 -0.45000
O 	O 	0.75325 0.32914 0.78461 -0.43200
O 	O 	0.78998 0.32078 0.86173 -0.44800
C 	C 	0.78500 0.35410 0.58660 0.38700
C 	C 	0.80520 0.33780 0.57140 -0.15300
C 	C 	0.80590 0.34060 0.54470 0.13100
C 	C 	0.74100 0.36650 0.67110 0.31400
C 	C 	0.73360 0.36100 0.69960 -0.11900
C 	C 	0.75140 0.34952 0.71700 0.12700
O 	O 	0.78440 0.84992 0.11090 -0.48100
O 	O 	0.76980 0.86870 0.07650 -0.39600
O 	O 	0.83700 0.80720 0.99020 -0.60000
O 	O 	0.76264 0.85754 0.16282 -0.41000
O 	O 	0.72491 0.87835 0.15704 -0.45000
O 	O 	0.75325 0.82914 0.28461 -0.43200
O 	O 	0.78998 0.82078 0.36173 -0.44800
C 	C 	0.78500 0.85410 0.08660 0.38700
C 	C 	0.80520 0.83780 0.07140 -0.15300
C 	C 	0.80590 0.84060 0.04470 0.13000
C 	C 	0.74100 0.86650 0.17110 0.31400
C 	C 	0.73360 0.86100 0.19960 -0.11900
C 	C 	0.75140 0.84952 0.21700 0.12700
O 	O 	0.28440 0.34992 0.11090 -0.48100
O 	O 	0.26980 0.36870 0.07650 -0.39600
O 	O 	0.33700 0.30720 0.99020 -0.60000
O 	O 	0.26264 0.35754 0.16282 -0.41000
O 	O 	0.22491 0.37835 0.15704 -0.45000
O 	O 	0.25325 0.32914 0.28461 -0.43200
O 	O 	0.28998 0.32078 0.36173 -0.44800
C 	C 	0.28500 0.35410 0.08660 0.38700
C 	C 	0.30520 0.33780 0.07140 -0.15300
C 	C 	0.30590 0.34060 0.04470 0.13000
C 	C 	0.24100 0.36650 0.17110 0.31400
C 	C 	0.23360 0.36100 0.19960 -0.11900
C 	C 	0.25140 0.34952 0.21700 0.12700
O 	O 	0.28440 0.84992 0.61090 -0.48100
O 	O 	0.26980 0.86870 0.57650 -0.39600
O 	O 	0.33700 0.80720 0.49020 -0.60100
O 	O 	0.26264 0.85754 0.66282 -0.41000
O 	O 	0.22491 0.87835 0.65704 -0.45000
O 	O 	0.25325 0.82914 0.78461 -0.43200
O 	O 	0.28998 0.82078 0.86173 -0.44800
C 	C 	0.28500 0.85410 0.58660 0.38700
C 	C 	0.30520 0.83780 0.57140 -0.15300
C 	C 	0.30590 0.84060 0.54470 0.13100
C 	C 	0.24100 0.86650 0.67110 0.31400
C 	C 	0.23360 0.86100 0.69960 -0.11900
C 	C 	0.25140 0.84952 0.71700 0.12700
O 	O 	0.28440 0.40008 0.63910 -0.48100
O 	O 	0.26980 0.38130 0.67350 -0.39600
O 	O 	0.33700 0.44280 0.75980 -0.60100
O 	O 	0.26264 0.39246 0.58718 -0.41000
O 	O 	0.22491 0.37165 0.59296 -0.45000
O 	O 	0.25325 0.42086 0.46539 -0.43200
O 	O 	0.28998 0.42922 0.38827 -0.44800
C 	C 	0.28500 0.39590 0.66340 0.38700
C 	C 	0.30520 0.41220 0.67860 -0.15300
C 	C 	0.30590 0.40940 0.70530 0.13100
C 	C 	0.24100 0.38350 0.57890 0.31400
C 	C 	0.23360 0.38900 0.55040 -0.11900
C 	C 	0.25140 0.40048 0.53300 0.12700
O 	O 	0.28440 0.90008 0.13910 -0.48100
O 	O 	0.26980 0.88130 0.17350 -0.39600
O 	O 	0.33700 0.94280 0.25980 -0.60100
O 	O 	0.26264 0.89246 0.08718 -0.41000
O 	O 	0.22491 0.87165 0.09296 -0.45000
O 	O 	0.25325 0.92086 0.96539 -0.43200
O 	O 	0.28998 0.92922 0.88827 -0.44800
C 	C 	0.28500 0.89590 0.16340 0.38700
C 	C 	0.30520 0.91220 0.17860 -0.15300
C 	C 	0.30590 0.90940 0.20530 0.13100
C 	C 	0.24100 0.88350 0.07890 0.31500
C 	C 	0.23360 0.88900 0.05040 -0.11900
C 	C 	0.25140 0.90048 0.03300 0.12700
O 	O 	0.78440 0.40008 0.13910 -0.48100
O 	O 	0.76980 0.38130 0.17350 -0.39600
O 	O 	0.83700 0.44280 0.25980 -0.60100
O 	O 	0.76264 0.39246 0.08718 -0.41000
O 	O 	0.72491 0.37165 0.09296 -0.45000
O 	O 	0.75325 0.42086 0.96539 -0.43300
O 	O 	0.78998 0.42922 0.88827 -0.44800
C 	C 	0.78500 0.39590 0.16340 0.38700
C 	C 	0.80520 0.41220 0.17860 -0.15300
C 	C 	0.80590 0.40940 0.20530 0.13100
C 	C 	0.74100 0.38350 0.07890 0.31500
C 	C 	0.73360 0.38900 0.05040 -0.11900
C 	C 	0.75140 0.40048 0.03300 0.12700
O 	O 	0.78440 0.90008 0.63910 -0.48100
O 	O 	0.76980 0.88130 0.67350 -0.39600
O 	O 	0.83700 0.94280 0.75980 -0.60100
O 	O 	0.76264 0.89246 0.58718 -0.41000
O 	O 	0.72491 0.87165 0.59296 -0.45000
O 	O 	0.75325 0.92086 0.46539 -0.43200
O 	O 	0.78998 0.92922 0.38827 -0.44800
C 	C 	0.78500 0.89590 0.66340 0.38700
C 	C 	0.80520 0.91220 0.67860 -0.15300
C 	C 	0.80590 0.90940 0.70530 0.13100
C 	C 	0.74100 0.88350 0.57890 0.31400
C 	C 	0.73360 0.88900 0.55040 -0.11900
C 	C 	0.75140 0.90048 0.53300 0.12700
O 	O 	0.46560 0.84992 0.13910 -0.48100
O 	O 	0.48020 0.86870 0.17350 -0.39600
O 	O 	0.41300 0.80720 0.25980 -0.60100
O 	O 	0.48736 0.85754 0.08718 -0.41000
O 	O 	0.52509 0.87835 0.09296 -0.45000
O 	O 	0.49675 0.82914 0.96539 -0.43300
O 	O 	0.46002 0.82078 0.88827 -0.44800
C 	C 	0.46500 0.85410 0.16340 0.38700
C 	C 	0.44480 0.83780 0.17860 -0.15300
C 	C 	0.44410 0.84060 0.20530 0.13100
C 	C 	0.50900 0.86650 0.07890 0.31500
C 	C 	0.51640 0.86100 0.05040 -0.11900
C 	C 	0.49860 0.84952 0.03300 0.12700
O 	O 	0.46560 0.34992 0.63910 -0.48100
O 	O 	0.48020 0.36870 0.67350 -0.39600
O 	O 	0.41300 0.30720 0.75980 -0.60100
O 	O 	0.48736 0.35754 0.58718 -0.41000
O 	O 	0.52509 0.37835 0.59296 -0.45000
O 	O 	0.49675 0.32914 0.46539 -0.43200
O 	O 	0.46002 0.32078 0.38827 -0.44800
C 	C 	0.46500 0.35410 0.66340 0.38700
C 	C 	0.44480 0.33780 0.67860 -0.15300
C 	C 	0.44410 0.34060 0.70530 0.13100
C 	C 	0.50900 0.36650 0.57890 0.31400
C 	C 	0.51640 0.36100 0.55040 -0.11900
C 	C 	0.49860 0.34952 0.53300 0.12700
O 	O 	0.96560 0.84992 0.63910 -0.48100
O 	O 	0.98020 0.86870 0.67350 -0.39500
O 	O 	0.91300 0.80720 0.75980 -0.60100
O 	O 	0.98736 0.85754 0.58718 -0.40900
O 	O 	0.02509 0.87835 0.59296 -0.45000
O 	O 	0.99675 0.82914 0.46539 -0.43200
O 	O 	0.96002 0.82078 0.38827 -0.44800
C 	C 	0.96500 0.85410 0.66340 0.38700
C 	C 	0.94480 0.83780 0.67860 -0.15300
C 	C 	0.94410 0.84060 0.70530 0.13100
C 	C 	0.00900 0.86650 0.57890 0.31300
C 	C 	0.01640 0.86100 0.55040 -0.12000
C 	C 	0.99860 0.84952 0.53300 0.13000
O 	O 	0.96560 0.34992 0.13910 -0.48100
O 	O 	0.98020 0.36870 0.17350 -0.39500
O 	O 	0.91300 0.30720 0.25980 -0.60100
O 	O 	0.98736 0.35754 0.08718 -0.40900
O 	O 	0.02509 0.37835 0.09296 -0.45000
O 	O 	0.99675 0.32914 0.96539 -0.43300
O 	O 	0.96002 0.32078 0.88827 -0.44800
C 	C 	0.96500 0.35410 0.16340 0.38700
C 	C 	0.94480 0.33780 0.17860 -0.15300
C 	C 	0.94410 0.34060 0.20530 0.13100
C 	C 	0.00900 0.36650 0.07890 0.31400
C 	C 	0.01640 0.36100 0.05040 -0.12100
C 	C 	0.99860 0.34952 0.03300 0.13000
O 	O 	0.96560 0.90008 0.11090 -0.48100
O 	O 	0.98020 0.88130 0.07650 -0.39500
O 	O 	0.91300 0.94280 0.99020 -0.60000
O 	O 	0.98736 0.89246 0.16282 -0.40900
O 	O 	0.02509 0.87165 0.15704 -0.45000
O 	O 	0.99675 0.92086 0.28461 -0.43200
O 	O 	0.96002 0.92922 0.36173 -0.44800
C 	C 	0.96500 0.89590 0.08660 0.38700
C 	C 	0.94480 0.91220 0.07140 -0.15300
C 	C 	0.94410 0.90940 0.04470 0.13000
C 	C 	0.00900 0.88350 0.17110 0.31300
C 	C 	0.01640 0.88900 0.19960 -0.12000
C 	C 	0.99860 0.90048 0.21700 0.13000
O 	O 	0.96560 0.40008 0.61090 -0.48100
O 	O 	0.98020 0.38130 0.57650 -0.39500
O 	O 	0.91300 0.44280 0.49020 -0.60100
O 	O 	0.98736 0.39246 0.66282 -0.40900
O 	O 	0.02509 0.37165 0.65704 -0.45000
O 	O 	0.99675 0.42086 0.78461 -0.43200
O 	O 	0.96002 0.42922 0.86173 -0.44800
C 	C 	0.96500 0.39590 0.58660 0.38700
C 	C 	0.94480 0.41220 0.57140 -0.15300
C 	C 	0.94410 0.40940 0.54470 0.13100
C 	C 	0.00900 0.38350 0.67110 0.31300
C 	C 	0.01640 0.38900 0.69960 -0.12000
C 	C 	0.99860 0.40048 0.71700 0.13000
O 	O 	0.46560 0.90008 0.61090 -0.48100
O 	O 	0.48020 0.88130 0.57650 -0.39600
O 	O 	0.41300 0.94280 0.49020 -0.60100
O 	O 	0.48736 0.89246 0.66282 -0.41000
O 	O 	0.52509 0.87165 0.65704 -0.45000
O 	O 	0.49675 0.92086 0.78461 -0.43200
O 	O 	0.46002 0.92922 0.86173 -0.44800
C 	C 	0.46500 0.89590 0.58660 0.38700
C 	C 	0.44480 0.91220 0.57140 -0.15300
C 	C 	0.44410 0.90940 0.54470 0.13100
C 	C 	0.50900 0.88350 0.67110 0.31400
C 	C 	0.51640 0.88900 0.69960 -0.11900
C 	C 	0.49860 0.90048 0.71700 0.12700
O 	O 	0.46560 0.40008 0.11090 -0.48100
O 	O 	0.48020 0.38130 0.07650 -0.39600
O 	O 	0.41300 0.44280 0.99020 -0.60000
O 	O 	0.48736 0.39246 0.16282 -0.41000
O 	O 	0.52509 0.37165 0.15704 -0.45000
O 	O 	0.49675 0.42086 0.28461 -0.43200
O 	O 	0.46002 0.42922 0.36173 -0.44800
C 	C 	0.46500 0.39590 0.08660 0.38700
C 	C 	0.44480 0.41220 0.07140 -0.15300
C 	C 	0.44410 0.40940 0.04470 0.13000
C 	C 	0.50900 0.38350 0.17110 0.31400
C 	C 	0.51640 0.38900 0.19960 -0.11900
C 	C 	0.49860 0.40048 0.21700 0.12700
O 	O 	0.11090 0.90008 0.96560 -0.48100
O 	O 	0.07650 0.88130 0.98020 -0.39500
O 	O 	0.99020 0.94280 0.91300 -0.60000
O 	O 	0.16282 0.89246 0.98736 -0.40900
O 	O 	0.15704 0.87165 0.02509 -0.45000
O 	O 	0.28461 0.92086 0.99675 -0.43200
O 	O 	0.36173 0.92922 0.96002 -0.44800
C 	C 	0.08660 0.89590 0.96500 0.38700
C 	C 	0.07140 0.91220 0.94480 -0.15300
C 	C 	0.04470 0.90940 0.94410 0.13000
C 	C 	0.17110 0.88350 0.00900 0.31300
C 	C 	0.19960 0.88900 0.01640 -0.12000
C 	C 	0.21700 0.90048 0.99860 0.13000
O 	O 	0.11090 0.40008 0.46560 -0.48100
O 	O 	0.07650 0.38130 0.48020 -0.39600
O 	O 	0.99020 0.44280 0.41300 -0.60000
O 	O 	0.16282 0.39246 0.48736 -0.41000
O 	O 	0.15704 0.37165 0.52509 -0.45000
O 	O 	0.28461 0.42086 0.49675 -0.43200
O 	O 	0.36173 0.42922 0.46002 -0.44800
C 	C 	0.08660 0.39590 0.46500 0.38700
C 	C 	0.07140 0.41220 0.44480 -0.15300
C 	C 	0.04470 0.40940 0.44410 0.13000
C 	C 	0.17110 0.38350 0.50900 0.31400
C 	C 	0.19960 0.38900 0.51640 -0.11900
C 	C 	0.21700 0.40048 0.49860 0.12700
O 	O 	0.61090 0.90008 0.46560 -0.48100
O 	O 	0.57650 0.88130 0.48020 -0.39600
O 	O 	0.49020 0.94280 0.41300 -0.60100
O 	O 	0.66282 0.89246 0.48736 -0.41000
O 	O 	0.65704 0.87165 0.52509 -0.45000
O 	O 	0.78461 0.92086 0.49675 -0.43200
O 	O 	0.86173 0.92922 0.46002 -0.44800
C 	C 	0.58660 0.89590 0.46500 0.38700
C 	C 	0.57140 0.91220 0.44480 -0.15300
C 	C 	0.54470 0.90940 0.44410 0.13100
C 	C 	0.67110 0.88350 0.50900 0.31400
C 	C 	0.69960 0.88900 0.51640 -0.11900
C 	C 	0.71700 0.90048 0.49860 0.12700
O 	O 	0.61090 0.40008 0.96560 -0.48100
O 	O 	0.57650 0.38130 0.98020 -0.39500
O 	O 	0.49020 0.44280 0.91300 -0.60100
O 	O 	0.66282 0.39246 0.98736 -0.40900
O 	O 	0.65704 0.37165 0.02509 -0.45000
O 	O 	0.78461 0.42086 0.99675 -0.43200
O 	O 	0.86173 0.42922 0.96002 -0.44800
C 	C 	0.58660 0.39590 0.96500 0.38700
C 	C 	0.57140 0.41220 0.94480 -0.15300
C 	C 	0.54470 0.40940 0.94410 0.13100
C 	C 	0.67110 0.38350 0.00900 0.31300
C 	C 	0.69960 0.38900 0.01640 -0.12000
C 	C 	0.71700 0.40048 0.99860 0.13000
O 	O 	0.13910 0.84992 0.46560 -0.48100
O 	O 	0.17350 0.86870 0.48020 -0.39600
O 	O 	0.25980 0.80720 0.41300 -0.60100
O 	O 	0.08718 0.85754 0.48736 -0.41000
O 	O 	0.09296 0.87835 0.52509 -0.45000
O 	O 	0.96539 0.82914 0.49675 -0.43300
O 	O 	0.88827 0.82078 0.46002 -0.44800
C 	C 	0.16340 0.85410 0.46500 0.38700
C 	C 	0.17860 0.83780 0.44480 -0.15300
C 	C 	0.20530 0.84060 0.44410 0.13100
C 	C 	0.07890 0.86650 0.50900 0.31500
C 	C 	0.05040 0.86100 0.51640 -0.11900
C 	C 	0.03300 0.84952 0.49860 0.12700
O 	O 	0.13910 0.34992 0.96560 -0.48100
O 	O 	0.17350 0.36870 0.98020 -0.39500
O 	O 	0.25980 0.30720 0.91300 -0.60100
O 	O 	0.08718 0.35754 0.98736 -0.40900
O 	O 	0.09296 0.37835 0.02509 -0.45000
O 	O 	0.96539 0.32914 0.99675 -0.43300
O 	O 	0.88827 0.32078 0.96002 -0.44800
C 	C 	0.16340 0.35410 0.96500 0.38700
C 	C 	0.17860 0.33780 0.94480 -0.15300
C 	C 	0.20530 0.34060 0.94410 0.13100
C 	C 	0.07890 0.36650 0.00900 0.31400
C 	C 	0.05040 0.36100 0.01640 -0.12100
C 	C 	0.03300 0.34952 0.99860 0.13000
O 	O 	0.63910 0.84992 0.96560 -0.48100
O 	O 	0.67350 0.86870 0.98020 -0.39500
O 	O 	0.75980 0.80720 0.91300 -0.60100
O 	O 	0.58718 0.85754 0.98736 -0.40900
O 	O 	0.59296 0.87835 0.02509 -0.45000
O 	O 	0.46539 0.82914 0.99675 -0.43200
O 	O 	0.38827 0.82078 0.96002 -0.44800
C 	C 	0.66340 0.85410 0.96500 0.38700
C 	C 	0.67860 0.83780 0.94480 -0.15300
C 	C 	0.70530 0.84060 0.94410 0.13100
C 	C 	0.57890 0.86650 0.00900 0.31300
C 	C 	0.55040 0.86100 0.01640 -0.12000
C 	C 	0.53300 0.84952 0.99860 0.13000
O 	O 	0.63910 0.34992 0.46560 -0.48100
O 	O 	0.67350 0.36870 0.48020 -0.39600
O 	O 	0.75980 0.30720 0.41300 -0.60100
O 	O 	0.58718 0.35754 0.48736 -0.41000
O 	O 	0.59296 0.37835 0.52509 -0.45000
O 	O 	0.46539 0.32914 0.49675 -0.43200
O 	O 	0.38827 0.32078 0.46002 -0.44800
C 	C 	0.66340 0.35410 0.46500 0.38700
C 	C 	0.67860 0.33780 0.44480 -0.15300
C 	C 	0.70530 0.34060 0.44410 0.13100
C 	C 	0.57890 0.36650 0.50900 0.31400
C 	C 	0.55040 0.36100 0.51640 -0.11900
C 	C 	0.53300 0.34952 0.49860 0.12700
O 	O 	0.63910 0.40008 0.28440 -0.48100
O 	O 	0.67350 0.38130 0.26980 -0.39600
O 	O 	0.75980 0.44280 0.33700 -0.60100
O 	O 	0.58718 0.39246 0.26264 -0.41000
O 	O 	0.59296 0.37165 0.22491 -0.45000
O 	O 	0.46539 0.42086 0.25325 -0.43200
O 	O 	0.38827 0.42922 0.28998 -0.44800
C 	C 	0.66340 0.39590 0.28500 0.38700
C 	C 	0.67860 0.41220 0.30520 -0.15300
C 	C 	0.70530 0.40940 0.30590 0.13100
C 	C 	0.57890 0.38350 0.24100 0.31400
C 	C 	0.55040 0.38900 0.23360 -0.11900
C 	C 	0.53300 0.40048 0.25140 0.12700
O 	O 	0.63910 0.90008 0.78440 -0.48100
O 	O 	0.67350 0.88130 0.76980 -0.39600
O 	O 	0.75980 0.94280 0.83700 -0.60100
O 	O 	0.58718 0.89246 0.76264 -0.41000
O 	O 	0.59296 0.87165 0.72491 -0.45000
O 	O 	0.46539 0.92086 0.75325 -0.43200
O 	O 	0.38827 0.92922 0.78998 -0.44800
C 	C 	0.66340 0.89590 0.78500 0.38700
C 	C 	0.67860 0.91220 0.80520 -0.15300
C 	C 	0.70530 0.90940 0.80590 0.13100
C 	C 	0.57890 0.88350 0.74100 0.31400
C 	C 	0.55040 0.88900 0.73360 -0.11900
C 	C 	0.53300 0.90048 0.75140 0.12700
O 	O 	0.13910 0.40008 0.78440 -0.48100
O 	O 	0.17350 0.38130 0.76980 -0.39600
O 	O 	0.25980 0.44280 0.83700 -0.60100
O 	O 	0.08718 0.39246 0.76264 -0.41000
O 	O 	0.09296 0.37165 0.72491 -0.45000
O 	O 	0.96539 0.42086 0.75325 -0.43300
O 	O 	0.88827 0.42922 0.78998 -0.44800
C 	C 	0.16340 0.39590 0.78500 0.38700
C 	C 	0.17860 0.41220 0.80520 -0.15300
C 	C 	0.20530 0.40940 0.80590 0.13100
C 	C 	0.07890 0.38350 0.74100 0.31500
C 	C 	0.05040 0.38900 0.73360 -0.11900
C 	C 	0.03300 0.40048 0.75140 0.12700
O 	O 	0.13910 0.90008 0.28440 -0.48100
O 	O 	0.17350 0.88130 0.26980 -0.39600
O 	O 	0.25980 0.94280 0.33700 -0.60100
O 	O 	0.08718 0.89246 0.26264 -0.41000
O 	O 	0.09296 0.87165 0.22491 -0.45000
O 	O 	0.96539 0.92086 0.25325 -0.43200
O 	O 	0.88827 0.92922 0.28998 -0.44800
C 	C 	0.16340 0.89590 0.28500 0.38700
C 	C 	0.17860 0.91220 0.30520 -0.15300
C 	C 	0.20530 0.90940 0.30590 0.13100
C 	C 	0.07890 0.88350 0.24100 0.31500
C 	C 	0.05040 0.88900 0.23360 -0.11900
C 	C 	0.03300 0.90048 0.25140 0.12700
O 	O 	0.61090 0.34992 0.78440 -0.48100
O 	O 	0.57650 0.36870 0.76980 -0.39600
O 	O 	0.49020 0.30720 0.83700 -0.60100
O 	O 	0.66282 0.35754 0.76264 -0.41000
O 	O 	0.65704 0.37835 0.72491 -0.45000
O 	O 	0.78461 0.32914 0.75325 -0.43200
O 	O 	0.86173 0.32078 0.78998 -0.44800
C 	C 	0.58660 0.35410 0.78500 0.38700
C 	C 	0.57140 0.33780 0.80520 -0.15300
C 	C 	0.54470 0.34060 0.80590 0.13100
C 	C 	0.67110 0.36650 0.74100 0.31400
C 	C 	0.69960 0.36100 0.73360 -0.11900
C 	C 	0.71700 0.34952 0.75140 0.12700
O 	O 	0.61090 0.84992 0.28440 -0.48100
O 	O 	0.57650 0.86870 0.26980 -0.39600
O 	O 	0.49020 0.80720 0.33700 -0.60100
O 	O 	0.66282 0.85754 0.26264 -0.41000
O 	O 	0.65704 0.87835 0.22491 -0.45000
O 	O 	0.78461 0.82914 0.25325 -0.43200
O 	O 	0.86173 0.82078 0.28998 -0.44800
C 	C 	0.58660 0.85410 0.28500 0.38700
C 	C 	0.57140 0.83780 0.30520 -0.15300
C 	C 	0.54470 0.84060 0.30590 0.13100
C 	C 	0.67110 0.86650 0.24100 0.31400
C 	C 	0.69960 0.86100 0.23360 -0.11900
C 	C 	0.71700 0.84952 0.25140 0.12700
O 	O 	0.11090 0.34992 0.28440 -0.48100
O 	O 	0.07650 0.36870 0.26980 -0.39600
O 	O 	0.99020 0.30720 0.33700 -0.60000
O 	O 	0.16282 0.35754 0.26264 -0.41000
O 	O 	0.15704 0.37835 0.22491 -0.45000
O 	O 	0.28461 0.32914 0.25325 -0.43200
O 	O 	0.36173 0.32078 0.28998 -0.44800
C 	C 	0.08660 0.35410 0.28500 0.38700
C 	C 	0.07140 0.33780 0.30520 -0.15300
C 	C 	0.04470 0.34060 0.30590 0.13000
C 	C 	0.17110 0.36650 0.24100 0.31400
C 	C 	0.19960 0.36100 0.23360 -0.11900
C 	C 	0.21700 0.34952 0.25140 0.12700
O 	O 	0.11090 0.84992 0.78440 -0.48100
O 	O 	0.07650 0.86870 0.76980 -0.39600
O 	O 	0.99020 0.80720 0.83700 -0.60000
O 	O 	0.16282 0.85754 0.76264 -0.41000
O 	O 	0.15704 0.87835 0.72491 -0.45000
O 	O 	0.28461 0.82914 0.75325 -0.43200
O 	O 	0.36173 0.82078 0.78998 -0.44800
C 	C 	0.08660 0.85410 0.78500 0.38700
C 	C 	0.07140 0.83780 0.80520 -0.15300
C 	C 	0.04470 0.84060 0.80590 0.13000
C 	C 	0.17110 0.86650 0.74100 0.31400
C 	C 	0.19960 0.86100 0.73360 -0.11900
C 	C 	0.21700 0.84952 0.75140 0.12700
O 	O 	0.96560 0.11090 0.90008 -0.48100
O 	O 	0.98020 0.07650 0.88130 -0.39500
O 	O 	0.91300 0.99020 0.94280 -0.60000
O 	O 	0.98736 0.16282 0.89246 -0.40900
O 	O 	0.02509 0.15704 0.87165 -0.45000
O 	O 	0.99675 0.28461 0.92086 -0.43200
O 	O 	0.96002 0.36173 0.92922 -0.44800
C 	C 	0.96500 0.08660 0.89590 0.38700
C 	C 	0.94480 0.07140 0.91220 -0.15300
C 	C 	0.94410 0.04470 0.90940 0.13000
C 	C 	0.00900 0.17110 0.88350 0.31300
C 	C 	0.01640 0.19960 0.88900 -0.12000
C 	C 	0.99860 0.21700 0.90048 0.13000
O 	O 	0.96560 0.61090 0.40008 -0.48100
O 	O 	0.98020 0.57650 0.38130 -0.39500
O 	O 	0.91300 0.49020 0.44280 -0.60100
O 	O 	0.98736 0.66282 0.39246 -0.40900
O 	O 	0.02509 0.65704 0.37165 -0.45000
O 	O 	0.99675 0.78461 0.42086 -0.43200
O 	O 	0.96002 0.86173 0.42922 -0.44800
C 	C 	0.96500 0.58660 0.39590 0.38700
C 	C 	0.94480 0.57140 0.41220 -0.15300
C 	C 	0.94410 0.54470 0.40940 0.13100
C 	C 	0.00900 0.67110 0.38350 0.31300
C 	C 	0.01640 0.69960 0.38900 -0.12000
C 	C 	0.99860 0.71700 0.40048 0.13000
O 	O 	0.46560 0.11090 0.40008 -0.48100
O 	O 	0.48020 0.07650 0.38130 -0.39600
O 	O 	0.41300 0.99020 0.44280 -0.60000
O 	O 	0.48736 0.16282 0.39246 -0.41000
O 	O 	0.52509 0.15704 0.37165 -0.45000
O 	O 	0.49675 0.28461 0.42086 -0.43200
O 	O 	0.46002 0.36173 0.42922 -0.44800
C 	C 	0.46500 0.08660 0.39590 0.38700
C 	C 	0.44480 0.07140 0.41220 -0.15300
C 	C 	0.44410 0.04470 0.40940 0.13000
C 	C 	0.50900 0.17110 0.38350 0.31400
C 	C 	0.51640 0.19960 0.38900 -0.11900
C 	C 	0.49860 0.21700 0.40048 0.12700
O 	O 	0.46560 0.61090 0.90008 -0.48100
O 	O 	0.48020 0.57650 0.88130 -0.39600
O 	O 	0.41300 0.49020 0.94280 -0.60100
O 	O 	0.48736 0.66282 0.89246 -0.41000
O 	O 	0.52509 0.65704 0.87165 -0.45000
O 	O 	0.49675 0.78461 0.92086 -0.43200
O 	O 	0.46002 0.86173 0.92922 -0.44800
C 	C 	0.46500 0.58660 0.89590 0.38700
C 	C 	0.44480 0.57140 0.91220 -0.15300
C 	C 	0.44410 0.54470 0.90940 0.13100
C 	C 	0.50900 0.67110 0.88350 0.31400
C 	C 	0.51640 0.69960 0.88900 -0.11900
C 	C 	0.49860 0.71700 0.90048 0.12700
O 	O 	0.46560 0.13910 0.84992 -0.48100
O 	O 	0.48020 0.17350 0.86870 -0.39600
O 	O 	0.41300 0.25980 0.80720 -0.60100
O 	O 	0.48736 0.08718 0.85754 -0.41000
O 	O 	0.52509 0.09296 0.87835 -0.45000
O 	O 	0.49675 0.96539 0.82914 -0.43300
O 	O 	0.46002 0.88827 0.82078 -0.44800
C 	C 	0.46500 0.16340 0.85410 0.38700
C 	C 	0.44480 0.17860 0.83780 -0.15300
C 	C 	0.44410 0.20530 0.84060 0.13100
C 	C 	0.50900 0.07890 0.86650 0.31500
C 	C 	0.51640 0.05040 0.86100 -0.11900
C 	C 	0.49860 0.03300 0.84952 0.12700
O 	O 	0.46560 0.63910 0.34992 -0.48100
O 	O 	0.48020 0.67350 0.36870 -0.39600
O 	O 	0.41300 0.75980 0.30720 -0.60100
O 	O 	0.48736 0.58718 0.35754 -0.41000
O 	O 	0.52509 0.59296 0.37835 -0.45000
O 	O 	0.49675 0.46539 0.32914 -0.43200
O 	O 	0.46002 0.38827 0.32078 -0.44800
C 	C 	0.46500 0.66340 0.35410 0.38700
C 	C 	0.44480 0.67860 0.33780 -0.15300
C 	C 	0.44410 0.70530 0.34060 0.13100
C 	C 	0.50900 0.57890 0.36650 0.31400
C 	C 	0.51640 0.55040 0.36100 -0.11900
C 	C 	0.49860 0.53300 0.34952 0.12700
O 	O 	0.96560 0.13910 0.34992 -0.48100
O 	O 	0.98020 0.17350 0.36870 -0.39500
O 	O 	0.91300 0.25980 0.30720 -0.60100
O 	O 	0.98736 0.08718 0.35754 -0.40900
O 	O 	0.02509 0.09296 0.37835 -0.45000
O 	O 	0.99675 0.96539 0.32914 -0.43300
O 	O 	0.96002 0.88827 0.32078 -0.44800
C 	C 	0.96500 0.16340 0.35410 0.38700
C 	C 	0.94480 0.17860 0.33780 -0.15300
C 	C 	0.94410 0.20530 0.34060 0.13100
C 	C 	0.00900 0.07890 0.36650 0.31400
C 	C 	0.01640 0.05040 0.36100 -0.12100
C 	C 	0.99860 0.03300 0.34952 0.13000
O 	O 	0.96560 0.63910 0.84992 -0.48100
O 	O 	0.98020 0.67350 0.86870 -0.39500
O 	O 	0.91300 0.75980 0.80720 -0.60100
O 	O 	0.98736 0.58718 0.85754 -0.40900
O 	O 	0.02509 0.59296 0.87835 -0.45000
O 	O 	0.99675 0.46539 0.82914 -0.43200
O 	O 	0.96002 0.38827 0.82078 -0.44800
C 	C 	0.96500 0.66340 0.85410 0.38700
C 	C 	0.94480 0.67860 0.83780 -0.15300
C 	C 	0.94410 0.70530 0.84060 0.13100
C 	C 	0.00900 0.57890 0.86650 0.31300
C 	C 	0.01640 0.55040 0.86100 -0.12000
C 	C 	0.99860 0.53300 0.84952 0.13000
O 	O 	0.28440 0.63910 0.40008 -0.48100
O 	O 	0.26980 0.67350 0.38130 -0.39600
O 	O 	0.33700 0.75980 0.44280 -0.60100
O 	O 	0.26264 0.58718 0.39246 -0.41000
O 	O 	0.22491 0.59296 0.37165 -0.45000
O 	O 	0.25325 0.46539 0.42086 -0.43200
O 	O 	0.28998 0.38827 0.42922 -0.44800
C 	C 	0.28500 0.66340 0.39590 0.38700
C 	C 	0.30520 0.67860 0.41220 -0.15300
C 	C 	0.30590 0.70530 0.40940 0.13100
C 	C 	0.24100 0.57890 0.38350 0.31400
C 	C 	0.23360 0.55040 0.38900 -0.11900
C 	C 	0.25140 0.53300 0.40048 0.12700
O 	O 	0.28440 0.13910 0.90008 -0.48100
O 	O 	0.26980 0.17350 0.88130 -0.39600
O 	O 	0.33700 0.25980 0.94280 -0.60100
O 	O 	0.26264 0.08718 0.89246 -0.41000
O 	O 	0.22491 0.09296 0.87165 -0.45000
O 	O 	0.25325 0.96539 0.92086 -0.43200
O 	O 	0.28998 0.88827 0.92922 -0.44800
C 	C 	0.28500 0.16340 0.89590 0.38700
C 	C 	0.30520 0.17860 0.91220 -0.15300
C 	C 	0.30590 0.20530 0.90940 0.13100
C 	C 	0.24100 0.07890 0.88350 0.31500
C 	C 	0.23360 0.05040 0.88900 -0.11900
C 	C 	0.25140 0.03300 0.90048 0.12700
O 	O 	0.78440 0.63910 0.90008 -0.48100
O 	O 	0.76980 0.67350 0.88130 -0.39600
O 	O 	0.83700 0.75980 0.94280 -0.60100
O 	O 	0.76264 0.58718 0.89246 -0.41000
O 	O 	0.72491 0.59296 0.87165 -0.45000
O 	O 	0.75325 0.46539 0.92086 -0.43200
O 	O 	0.78998 0.38827 0.92922 -0.44800
C 	C 	0.78500 0.66340 0.89590 0.38700
C 	C 	0.80520 0.67860 0.91220 -0.15300
C 	C 	0.80590 0.70530 0.90940 0.13100
C 	C 	0.74100 0.57890 0.88350 0.31400
C 	C 	0.73360 0.55040 0.88900 -0.11900
C 	C 	0.75140 0.53300 0.90048 0.12700
O 	O 	0.78440 0.13910 0.40008 -0.48100
O 	O 	0.76980 0.17350 0.38130 -0.39600
O 	O 	0.83700 0.25980 0.44280 -0.60100
O 	O 	0.76264 0.08718 0.39246 -0.41000
O 	O 	0.72491 0.09296 0.37165 -0.45000
O 	O 	0.75325 0.96539 0.42086 -0.43300
O 	O 	0.78998 0.88827 0.42922 -0.44800
C 	C 	0.78500 0.16340 0.39590 0.38700
C 	C 	0.80520 0.17860 0.41220 -0.15300
C 	C 	0.80590 0.20530 0.40940 0.13100
C 	C 	0.74100 0.07890 0.38350 0.31500
C 	C 	0.73360 0.05040 0.38900 -0.11900
C 	C 	0.75140 0.03300 0.40048 0.12700
O 	O 	0.78440 0.61090 0.34992 -0.48100
O 	O 	0.76980 0.57650 0.36870 -0.39600
O 	O 	0.83700 0.49020 0.30720 -0.60100
O 	O 	0.76264 0.66282 0.35754 -0.41000
O 	O 	0.72491 0.65704 0.37835 -0.45000
O 	O 	0.75325 0.78461 0.32914 -0.43200
O 	O 	0.78998 0.86173 0.32078 -0.44800
C 	C 	0.78500 0.58660 0.35410 0.38700
C 	C 	0.80520 0.57140 0.33780 -0.15300
C 	C 	0.80590 0.54470 0.34060 0.13100
C 	C 	0.74100 0.67110 0.36650 0.31400
C 	C 	0.73360 0.69960 0.36100 -0.11900
C 	C 	0.75140 0.71700 0.34952 0.12700
O 	O 	0.78440 0.11090 0.84992 -0.48100
O 	O 	0.76980 0.07650 0.86870 -0.39600
O 	O 	0.83700 0.99020 0.80720 -0.60000
O 	O 	0.76264 0.16282 0.85754 -0.41000
O 	O 	0.72491 0.15704 0.87835 -0.45000
O 	O 	0.75325 0.28461 0.82914 -0.43200
O 	O 	0.78998 0.36173 0.82078 -0.44800
C 	C 	0.78500 0.08660 0.85410 0.38700
C 	C 	0.80520 0.07140 0.83780 -0.15300
C 	C 	0.80590 0.04470 0.84060 0.13000
C 	C 	0.74100 0.17110 0.86650 0.31400
C 	C 	0.73360 0.19960 0.86100 -0.11900
C 	C 	0.75140 0.21700 0.84952 0.12700
O 	O 	0.28440 0.61090 0.84992 -0.48100
O 	O 	0.26980 0.57650 0.86870 -0.39600
O 	O 	0.33700 0.49020 0.80720 -0.60100
O 	O 	0.26264 0.66282 0.85754 -0.41000
O 	O 	0.22491 0.65704 0.87835 -0.45000
O 	O 	0.25325 0.78461 0.82914 -0.43200
O 	O 	0.28998 0.86173 0.82078 -0.44800
C 	C 	0.28500 0.58660 0.85410 0.38700
C 	C 	0.30520 0.57140 0.83780 -0.15300
C 	C 	0.30590 0.54470 0.84060 0.13100
C 	C 	0.24100 0.67110 0.86650 0.31400
C 	C 	0.23360 0.69960 0.86100 -0.11900
C 	C 	0.25140 0.71700 0.84952 0.12700
O 	O 	0.28440 0.11090 0.34992 -0.48100
O 	O 	0.26980 0.07650 0.36870 -0.39600
O 	O 	0.33700 0.99020 0.30720 -0.60000
O 	O 	0.26264 0.16282 0.35754 -0.41000
O 	O 	0.22491 0.15704 0.37835 -0.45000
O 	O 	0.25325 0.28461 0.32914 -0.43200
O 	O 	0.28998 0.36173 0.32078 -0.44800
C 	C 	0.28500 0.08660 0.35410 0.38700
C 	C 	0.30520 0.07140 0.33780 -0.15300
C 	C 	0.30590 0.04470 0.34060 0.13000
C 	C 	0.24100 0.17110 0.36650 0.31400
C 	C 	0.23360 0.19960 0.36100 -0.11900
C 	C 	0.25140 0.21700 0.34952 0.12700
O 	O 	0.90008 0.96560 0.11090 -0.48100
O 	O 	0.88130 0.98020 0.07650 -0.39500
O 	O 	0.94280 0.91300 0.99020 -0.60000
O 	O 	0.89246 0.98736 0.16282 -0.40900
O 	O 	0.87165 0.02509 0.15704 -0.45000
O 	O 	0.92086 0.99675 0.28461 -0.43200
O 	O 	0.92922 0.96002 0.36173 -0.44800
C 	C 	0.89590 0.96500 0.08660 0.38700
C 	C 	0.91220 0.94480 0.07140 -0.15300
C 	C 	0.90940 0.94410 0.04470 0.13000
C 	C 	0.88350 0.00900 0.17110 0.31300
C 	C 	0.88900 0.01640 0.19960 -0.12000
C 	C 	0.90048 0.99860 0.21700 0.13000
O 	O 	0.90008 0.46560 0.61090 -0.48100
O 	O 	0.88130 0.48020 0.57650 -0.39600
O 	O 	0.94280 0.41300 0.49020 -0.60100
O 	O 	0.89246 0.48736 0.66282 -0.41000
O 	O 	0.87165 0.52509 0.65704 -0.45000
O 	O 	0.92086 0.49675 0.78461 -0.43200
O 	O 	0.92922 0.46002 0.86173 -0.44800
C 	C 	0.89590 0.46500 0.58660 0.38700
C 	C 	0.91220 0.44480 0.57140 -0.15300
C 	C 	0.90940 0.44410 0.54470 0.13100
C 	C 	0.88350 0.50900 0.67110 0.31400
C 	C 	0.88900 0.51640 0.69960 -0.11900
C 	C 	0.90048 0.49860 0.71700 0.12700
O 	O 	0.40008 0.96560 0.61090 -0.48100
O 	O 	0.38130 0.98020 0.57650 -0.39500
O 	O 	0.44280 0.91300 0.49020 -0.60100
O 	O 	0.39246 0.98736 0.66282 -0.40900
O 	O 	0.37165 0.02509 0.65704 -0.45000
O 	O 	0.42086 0.99675 0.78461 -0.43200
O 	O 	0.42922 0.96002 0.86173 -0.44800
C 	C 	0.39590 0.96500 0.58660 0.38700
C 	C 	0.41220 0.94480 0.57140 -0.15300
C 	C 	0.40940 0.94410 0.54470 0.13100
C 	C 	0.38350 0.00900 0.67110 0.31300
C 	C 	0.38900 0.01640 0.69960 -0.12000
C 	C 	0.40048 0.99860 0.71700 0.13000
O 	O 	0.40008 0.46560 0.11090 -0.48100
O 	O 	0.38130 0.48020 0.07650 -0.39600
O 	O 	0.44280 0.41300 0.99020 -0.60000
O 	O 	0.39246 0.48736 0.16282 -0.41000
O 	O 	0.37165 0.52509 0.15704 -0.45000
O 	O 	0.42086 0.49675 0.28461 -0.43200
O 	O 	0.42922 0.46002 0.36173 -0.44800
C 	C 	0.39590 0.46500 0.08660 0.38700
C 	C 	0.41220 0.44480 0.07140 -0.15300
C 	C 	0.40940 0.44410 0.04470 0.13000
C 	C 	0.38350 0.50900 0.17110 0.31400
C 	C 	0.38900 0.51640 0.19960 -0.11900
C 	C 	0.40048 0.49860 0.21700 0.12700
O 	O 	0.84992 0.46560 0.13910 -0.48100
O 	O 	0.86870 0.48020 0.17350 -0.39600
O 	O 	0.80720 0.41300 0.25980 -0.60100
O 	O 	0.85754 0.48736 0.08718 -0.41000
O 	O 	0.87835 0.52509 0.09296 -0.45000
O 	O 	0.82914 0.49675 0.96539 -0.43300
O 	O 	0.82078 0.46002 0.88827 -0.44800
C 	C 	0.85410 0.46500 0.16340 0.38700
C 	C 	0.83780 0.44480 0.17860 -0.15300
C 	C 	0.84060 0.44410 0.20530 0.13100
C 	C 	0.86650 0.50900 0.07890 0.31500
C 	C 	0.86100 0.51640 0.05040 -0.11900
C 	C 	0.84952 0.49860 0.03300 0.12700
O 	O 	0.84992 0.96560 0.63910 -0.48100
O 	O 	0.86870 0.98020 0.67350 -0.39500
O 	O 	0.80720 0.91300 0.75980 -0.60100
O 	O 	0.85754 0.98736 0.58718 -0.40900
O 	O 	0.87835 0.02509 0.59296 -0.45000
O 	O 	0.82914 0.99675 0.46539 -0.43200
O 	O 	0.82078 0.96002 0.38827 -0.44800
C 	C 	0.85410 0.96500 0.66340 0.38700
C 	C 	0.83780 0.94480 0.67860 -0.15300
C 	C 	0.84060 0.94410 0.70530 0.13100
C 	C 	0.86650 0.00900 0.57890 0.31300
C 	C 	0.86100 0.01640 0.55040 -0.12000
C 	C 	0.84952 0.99860 0.53300 0.13000
O 	O 	0.34992 0.46560 0.63910 -0.48100
O 	O 	0.36870 0.48020 0.67350 -0.39600
O 	O 	0.30720 0.41300 0.75980 -0.60100
O 	O 	0.35754 0.48736 0.58718 -0.41000
O 	O 	0.37835 0.52509 0.59296 -0.45000
O 	O 	0.32914 0.49675 0.46539 -0.43200
O 	O 	0.32078 0.46002 0.38827 -0.44800
C 	C 	0.35410 0.46500 0.66340 0.38700
C 	C 	0.33780 0.44480 0.67860 -0.15300
C 	C 	0.34060 0.44410 0.70530 0.13100
C 	C 	0.36650 0.50900 0.57890 0.31400
C 	C 	0.36100 0.51640 0.55040 -0.11900
C 	C 	0.34952 0.49860 0.53300 0.12700
O 	O 	0.34992 0.96560 0.13910 -0.48100
O 	O 	0.36870 0.98020 0.17350 -0.39500
O 	O 	0.30720 0.91300 0.25980 -0.60100
O 	O 	0.35754 0.98736 0.08718 -0.40900
O 	O 	0.37835 0.02509 0.09296 -0.45000
O 	O 	0.32914 0.99675 0.96539 -0.43300
O 	O 	0.32078 0.96002 0.88827 -0.44800
C 	C 	0.35410 0.96500 0.16340 0.38700
C 	C 	0.33780 0.94480 0.17860 -0.15300
C 	C 	0.34060 0.94410 0.20530 0.13100
C 	C 	0.36650 0.00900 0.07890 0.31400
C 	C 	0.36100 0.01640 0.05040 -0.12100
C 	C 	0.34952 0.99860 0.03300 0.13000
O 	O 	0.40008 0.28440 0.63910 -0.48100
O 	O 	0.38130 0.26980 0.67350 -0.39600
O 	O 	0.44280 0.33700 0.75980 -0.60100
O 	O 	0.39246 0.26264 0.58718 -0.41000
O 	O 	0.37165 0.22491 0.59296 -0.45000
O 	O 	0.42086 0.25325 0.46539 -0.43200
O 	O 	0.42922 0.28998 0.38827 -0.44800
C 	C 	0.39590 0.28500 0.66340 0.38700
C 	C 	0.41220 0.30520 0.67860 -0.15300
C 	C 	0.40940 0.30590 0.70530 0.13100
C 	C 	0.38350 0.24100 0.57890 0.31400
C 	C 	0.38900 0.23360 0.55040 -0.11900
C 	C 	0.40048 0.25140 0.53300 0.12700
O 	O 	0.40008 0.78440 0.13910 -0.48100
O 	O 	0.38130 0.76980 0.17350 -0.39600
O 	O 	0.44280 0.83700 0.25980 -0.60100
O 	O 	0.39246 0.76264 0.08718 -0.41000
O 	O 	0.37165 0.72491 0.09296 -0.45000
O 	O 	0.42086 0.75325 0.96539 -0.43300
O 	O 	0.42922 0.78998 0.88827 -0.44800
C 	C 	0.39590 0.78500 0.16340 0.38700
C 	C 	0.41220 0.80520 0.17860 -0.15300
C 	C 	0.40940 0.80590 0.20530 0.13100
C 	C 	0.38350 0.74100 0.07890 0.31500
C 	C 	0.38900 0.73360 0.05040 -0.11900
C 	C 	0.40048 0.75140 0.03300 0.12700
O 	O 	0.90008 0.28440 0.13910 -0.48100
O 	O 	0.88130 0.26980 0.17350 -0.39600
O 	O 	0.94280 0.33700 0.25980 -0.60100
O 	O 	0.89246 0.26264 0.08718 -0.41000
O 	O 	0.87165 0.22491 0.09296 -0.45000
O 	O 	0.92086 0.25325 0.96539 -0.43200
O 	O 	0.92922 0.28998 0.88827 -0.44800
C 	C 	0.89590 0.28500 0.16340 0.38700
C 	C 	0.91220 0.30520 0.17860 -0.15300
C 	C 	0.90940 0.30590 0.20530 0.13100
C 	C 	0.88350 0.24100 0.07890 0.31500
C 	C 	0.88900 0.23360 0.05040 -0.11900
C 	C 	0.90048 0.25140 0.03300 0.12700
O 	O 	0.90008 0.78440 0.63910 -0.48100
O 	O 	0.88130 0.76980 0.67350 -0.39600
O 	O 	0.94280 0.83700 0.75980 -0.60100
O 	O 	0.89246 0.76264 0.58718 -0.41000
O 	O 	0.87165 0.72491 0.59296 -0.45000
O 	O 	0.92086 0.75325 0.46539 -0.43200
O 	O 	0.92922 0.78998 0.38827 -0.44800
C 	C 	0.89590 0.78500 0.66340 0.38700
C 	C 	0.91220 0.80520 0.67860 -0.15300
C 	C 	0.90940 0.80590 0.70530 0.13100
C 	C 	0.88350 0.74100 0.57890 0.31400
C 	C 	0.88900 0.73360 0.55040 -0.11900
C 	C 	0.90048 0.75140 0.53300 0.12700
O 	O 	0.34992 0.78440 0.61090 -0.48100
O 	O 	0.36870 0.76980 0.57650 -0.39600
O 	O 	0.30720 0.83700 0.49020 -0.60100
O 	O 	0.35754 0.76264 0.66282 -0.41000
O 	O 	0.37835 0.72491 0.65704 -0.45000
O 	O 	0.32914 0.75325 0.78461 -0.43200
O 	O 	0.32078 0.78998 0.86173 -0.44800
C 	C 	0.35410 0.78500 0.58660 0.38700
C 	C 	0.33780 0.80520 0.57140 -0.15300
C 	C 	0.34060 0.80590 0.54470 0.13100
C 	C 	0.36650 0.74100 0.67110 0.31400
C 	C 	0.36100 0.73360 0.69960 -0.11900
C 	C 	0.34952 0.75140 0.71700 0.12700
O 	O 	0.34992 0.28440 0.11090 -0.48100
O 	O 	0.36870 0.26980 0.07650 -0.39600
O 	O 	0.30720 0.33700 0.99020 -0.60000
O 	O 	0.35754 0.26264 0.16282 -0.41000
O 	O 	0.37835 0.22491 0.15704 -0.45000
O 	O 	0.32914 0.25325 0.28461 -0.43200
O 	O 	0.32078 0.28998 0.36173 -0.44800
C 	C 	0.35410 0.28500 0.08660 0.38700
C 	C 	0.33780 0.30520 0.07140 -0.15300
C 	C 	0.34060 0.30590 0.04470 0.13000
C 	C 	0.36650 0.24100 0.17110 0.31400
C 	C 	0.36100 0.23360 0.19960 -0.11900
C 	C 	0.34952 0.25140 0.21700 0.12700
O 	O 	0.84992 0.78440 0.11090 -0.48100
O 	O 	0.86870 0.76980 0.07650 -0.39600
O 	O 	0.80720 0.83700 0.99020 -0.60000
O 	O 	0.85754 0.76264 0.16282 -0.41000
O 	O 	0.87835 0.72491 0.15704 -0.45000
O 	O 	0.82914 0.75325 0.28461 -0.43200
O 	O 	0.82078 0.78998 0.36173 -0.44800
C 	C 	0.85410 0.78500 0.08660 0.38700
C 	C 	0.83780 0.80520 0.07140 -0.15300
C 	C 	0.84060 0.80590 0.04470 0.13000
C 	C 	0.86650 0.74100 0.17110 0.31400
C 	C 	0.86100 0.73360 0.19960 -0.11900
C 	C 	0.84952 0.75140 0.21700 0.12700
O 	O 	0.84992 0.28440 0.61090 -0.48100
O 	O 	0.86870 0.26980 0.57650 -0.39600
O 	O 	0.80720 0.33700 0.49020 -0.60100
O 	O 	0.85754 0.26264 0.66282 -0.41000
O 	O 	0.87835 0.22491 0.65704 -0.45000
O 	O 	0.82914 0.25325 0.78461 -0.43200
O 	O 	0.82078 0.28998 0.86173 -0.44800
C 	C 	0.85410 0.28500 0.58660 0.38700
C 	C 	0.83780 0.30520 0.57140 -0.15300
C 	C 	0.84060 0.30590 0.54470 0.13100
C 	C 	0.86650 0.24100 0.67110 0.31400
C 	C 	0.86100 0.23360 0.69960 -0.11900
C 	C 	0.84952 0.25140 0.71700 0.12700
O 	O 	0.15008 0.86090 0.53440 -0.48100
O 	O 	0.13130 0.82650 0.51980 -0.39600
O 	O 	0.19280 0.74020 0.58700 -0.60100
O 	O 	0.14246 0.91282 0.51264 -0.41000
O 	O 	0.12165 0.90704 0.47491 -0.45000
O 	O 	0.17086 0.03461 0.50325 -0.43200
O 	O 	0.17922 0.11173 0.53998 -0.44800
C 	C 	0.14590 0.83660 0.53500 0.38700
C 	C 	0.16220 0.82140 0.55520 -0.15300
C 	C 	0.15940 0.79470 0.55590 0.13100
C 	C 	0.13350 0.92110 0.49100 0.31400
C 	C 	0.13900 0.94960 0.48360 -0.11800
C 	C 	0.15048 0.96700 0.50140 0.12600
O 	O 	0.15008 0.36090 0.03440 -0.48100
O 	O 	0.13130 0.32650 0.01980 -0.39600
O 	O 	0.19280 0.24020 0.08700 -0.60100
O 	O 	0.14246 0.41282 0.01264 -0.41100
O 	O 	0.12165 0.40704 0.97491 -0.45000
O 	O 	0.17086 0.53461 0.00325 -0.43200
O 	O 	0.17922 0.61173 0.03998 -0.44800
C 	C 	0.14590 0.33660 0.03500 0.38700
C 	C 	0.16220 0.32140 0.05520 -0.15300
C 	C 	0.15940 0.29470 0.05590 0.13100
C 	C 	0.13350 0.42110 0.99100 0.31500
C 	C 	0.13900 0.44960 0.98360 -0.11700
C 	C 	0.15048 0.46700 0.00140 0.12400
O 	O 	0.65008 0.86090 0.03440 -0.48100
O 	O 	0.63130 0.82650 0.01980 -0.39600
O 	O 	0.69280 0.74020 0.08700 -0.60100
O 	O 	0.64246 0.91282 0.01264 -0.41100
O 	O 	0.62165 0.90704 0.97491 -0.45000
O 	O 	0.67086 0.03461 0.00325 -0.43200
O 	O 	0.67922 0.11173 0.03998 -0.44800
C 	C 	0.64590 0.83660 0.03500 0.38700
C 	C 	0.66220 0.82140 0.05520 -0.15300
C 	C 	0.65940 0.79470 0.05590 0.13100
C 	C 	0.63350 0.92110 0.99100 0.31500
C 	C 	0.63900 0.94960 0.98360 -0.11600
C 	C 	0.65048 0.96700 0.00140 0.12300
O 	O 	0.65008 0.36090 0.53440 -0.48100
O 	O 	0.63130 0.32650 0.51980 -0.39600
O 	O 	0.69280 0.24020 0.58700 -0.60100
O 	O 	0.64246 0.41282 0.51264 -0.41000
O 	O 	0.62165 0.40704 0.47491 -0.45000
O 	O 	0.67086 0.53461 0.50325 -0.43200
O 	O 	0.67922 0.61173 0.53998 -0.44800
C 	C 	0.64590 0.33660 0.53500 0.38700
C 	C 	0.66220 0.32140 0.55520 -0.15300
C 	C 	0.65940 0.29470 0.55590 0.13100
C 	C 	0.63350 0.42110 0.49100 0.31400
C 	C 	0.63900 0.44960 0.48360 -0.11900
C 	C 	0.65048 0.46700 0.50140 0.12700
O 	O 	0.09992 0.88910 0.03440 -0.48200
O 	O 	0.11870 0.92350 0.01980 -0.39600
O 	O 	0.05720 0.00980 0.08700 -0.60300
O 	O 	0.10754 0.83718 0.01264 -0.41100
O 	O 	0.12835 0.84296 0.97491 -0.45000
O 	O 	0.07914 0.71539 0.00325 -0.43200
O 	O 	0.07078 0.63827 0.03998 -0.44800
C 	C 	0.10410 0.91340 0.03500 0.38700
C 	C 	0.08780 0.92860 0.05520 -0.15300
C 	C 	0.09060 0.95530 0.05590 0.13100
C 	C 	0.11650 0.82890 0.99100 0.31500
C 	C 	0.11100 0.80040 0.98360 -0.11700
C 	C 	0.09952 0.78300 0.00140 0.12400
O 	O 	0.09992 0.38910 0.53440 -0.48100
O 	O 	0.11870 0.42350 0.51980 -0.39600
O 	O 	0.05720 0.50980 0.58700 -0.60100
O 	O 	0.10754 0.33718 0.51264 -0.41000
O 	O 	0.12835 0.34296 0.47491 -0.45000
O 	O 	0.07914 0.21539 0.50325 -0.43200
O 	O 	0.07078 0.13827 0.53998 -0.44800
C 	C 	0.10410 0.41340 0.53500 0.38700
C 	C 	0.08780 0.42860 0.55520 -0.15300
C 	C 	0.09060 0.45530 0.55590 0.13100
C 	C 	0.11650 0.32890 0.49100 0.31400
C 	C 	0.11100 0.30040 0.48360 -0.11900
C 	C 	0.09952 0.28300 0.50140 0.12700
O 	O 	0.59992 0.88910 0.53440 -0.48100
O 	O 	0.61870 0.92350 0.51980 -0.39500
O 	O 	0.55720 0.00980 0.58700 -0.60300
O 	O 	0.60754 0.83718 0.51264 -0.41000
O 	O 	0.62835 0.84296 0.47491 -0.45000
O 	O 	0.57914 0.71539 0.50325 -0.43200
O 	O 	0.57078 0.63827 0.53998 -0.44800
C 	C 	0.60410 0.91340 0.53500 0.38700
C 	C 	0.58780 0.92860 0.55520 -0.15300
C 	C 	0.59060 0.95530 0.55590 0.13100
C 	C 	0.61650 0.82890 0.49100 0.31400
C 	C 	0.61100 0.80040 0.48360 -0.11900
C 	C 	0.59952 0.78300 0.50140 0.12700
O 	O 	0.59992 0.38910 0.03440 -0.48100
O 	O 	0.61870 0.42350 0.01980 -0.39600
O 	O 	0.55720 0.50980 0.08700 -0.60100
O 	O 	0.60754 0.33718 0.01264 -0.41100
O 	O 	0.62835 0.34296 0.97491 -0.45000
O 	O 	0.57914 0.21539 0.00325 -0.43200
O 	O 	0.57078 0.13827 0.03998 -0.44800
C 	C 	0.60410 0.41340 0.03500 0.38700
C 	C 	0.58780 0.42860 0.05520 -0.15300
C 	C 	0.59060 0.45530 0.05590 0.13100
C 	C 	0.61650 0.32890 0.99100 0.31500
C 	C 	0.61100 0.30040 0.98360 -0.11700
C 	C 	0.59952 0.28300 0.00140 0.12400
O 	O 	0.65008 0.38910 0.21560 -0.48100
O 	O 	0.63130 0.42350 0.23020 -0.39600
O 	O 	0.69280 0.50980 0.16300 -0.60100
O 	O 	0.64246 0.33718 0.23736 -0.41000
O 	O 	0.62165 0.34296 0.27509 -0.45000
O 	O 	0.67086 0.21539 0.24675 -0.43200
O 	O 	0.67922 0.13827 0.21002 -0.44800
C 	C 	0.64590 0.41340 0.21500 0.38700
C 	C 	0.66220 0.42860 0.19480 -0.15300
C 	C 	0.65940 0.45530 0.19410 0.13100
C 	C 	0.63350 0.32890 0.25900 0.31400
C 	C 	0.63900 0.30040 0.26640 -0.11900
C 	C 	0.65048 0.28300 0.24860 0.12700
O 	O 	0.65008 0.88910 0.71560 -0.48100
O 	O 	0.63130 0.92350 0.73020 -0.39600
O 	O 	0.69280 0.00980 0.66300 -0.60300
O 	O 	0.64246 0.83718 0.73736 -0.41000
O 	O 	0.62165 0.84296 0.77509 -0.45000
O 	O 	0.67086 0.71539 0.74675 -0.43200
O 	O 	0.67922 0.63827 0.71002 -0.44800
C 	C 	0.64590 0.91340 0.71500 0.38700
C 	C 	0.66220 0.92860 0.69480 -0.15300
C 	C 	0.65940 0.95530 0.69410 0.13100
C 	C 	0.63350 0.82890 0.75900 0.31400
C 	C 	0.63900 0.80040 0.76640 -0.11900
C 	C 	0.65048 0.78300 0.74860 0.12700
O 	O 	0.15008 0.38910 0.71560 -0.48100
O 	O 	0.13130 0.42350 0.73020 -0.39600
O 	O 	0.19280 0.50980 0.66300 -0.60100
O 	O 	0.14246 0.33718 0.73736 -0.41000
O 	O 	0.12165 0.34296 0.77509 -0.45000
O 	O 	0.17086 0.21539 0.74675 -0.43200
O 	O 	0.17922 0.13827 0.71002 -0.44800
C 	C 	0.14590 0.41340 0.71500 0.38700
C 	C 	0.16220 0.42860 0.69480 -0.15300
C 	C 	0.15940 0.45530 0.69410 0.13100
C 	C 	0.13350 0.32890 0.75900 0.31400
C 	C 	0.13900 0.30040 0.76640 -0.11900
C 	C 	0.15048 0.28300 0.74860 0.12700
O 	O 	0.15008 0.88910 0.21560 -0.48100
O 	O 	0.13130 0.92350 0.23020 -0.39600
O 	O 	0.19280 0.00980 0.16300 -0.60300
O 	O 	0.14246 0.83718 0.23736 -0.41000
O 	O 	0.12165 0.84296 0.27509 -0.45000
O 	O 	0.17086 0.71539 0.24675 -0.43200
O 	O 	0.17922 0.63827 0.21002 -0.44800
C 	C 	0.14590 0.91340 0.21500 0.38700
C 	C 	0.16220 0.92860 0.19480 -0.15300
C 	C 	0.15940 0.95530 0.19410 0.13100
C 	C 	0.13350 0.82890 0.25900 0.31400
C 	C 	0.13900 0.80040 0.26640 -0.11900
C 	C 	0.15048 0.78300 0.24860 0.12700
O 	O 	0.59992 0.36090 0.71560 -0.48100
O 	O 	0.61870 0.32650 0.73020 -0.39600
O 	O 	0.55720 0.24020 0.66300 -0.60100
O 	O 	0.60754 0.41282 0.73736 -0.41000
O 	O 	0.62835 0.40704 0.77509 -0.45000
O 	O 	0.57914 0.53461 0.74675 -0.43200
O 	O 	0.57078 0.61173 0.71002 -0.44800
C 	C 	0.60410 0.33660 0.71500 0.38700
C 	C 	0.58780 0.32140 0.69480 -0.15300
C 	C 	0.59060 0.29470 0.69410 0.13100
C 	C 	0.61650 0.42110 0.75900 0.31400
C 	C 	0.61100 0.44960 0.76640 -0.11900
C 	C 	0.59952 0.46700 0.74860 0.12700
O 	O 	0.59992 0.86090 0.21560 -0.48100
O 	O 	0.61870 0.82650 0.23020 -0.39600
O 	O 	0.55720 0.74020 0.16300 -0.60100
O 	O 	0.60754 0.91282 0.23736 -0.41000
O 	O 	0.62835 0.90704 0.27509 -0.45000
O 	O 	0.57914 0.03461 0.24675 -0.43200
O 	O 	0.57078 0.11173 0.21002 -0.44800
C 	C 	0.60410 0.83660 0.21500 0.38700
C 	C 	0.58780 0.82140 0.19480 -0.15300
C 	C 	0.59060 0.79470 0.19410 0.13100
C 	C 	0.61650 0.92110 0.25900 0.31400
C 	C 	0.61100 0.94960 0.26640 -0.11800
C 	C 	0.59952 0.96700 0.24860 0.12600
O 	O 	0.09992 0.36090 0.21560 -0.48100
O 	O 	0.11870 0.32650 0.23020 -0.39600
O 	O 	0.05720 0.24020 0.16300 -0.60100
O 	O 	0.10754 0.41282 0.23736 -0.41000
O 	O 	0.12835 0.40704 0.27509 -0.45000
O 	O 	0.07914 0.53461 0.24675 -0.43200
O 	O 	0.07078 0.61173 0.21002 -0.44800
C 	C 	0.10410 0.33660 0.21500 0.38700
C 	C 	0.08780 0.32140 0.19480 -0.15300
C 	C 	0.09060 0.29470 0.19410 0.13100
C 	C 	0.11650 0.42110 0.25900 0.31400
C 	C 	0.11100 0.44960 0.26640 -0.11900
C 	C 	0.09952 0.46700 0.24860 0.12700
O 	O 	0.09992 0.86090 0.71560 -0.48100
O 	O 	0.11870 0.82650 0.73020 -0.39600
O 	O 	0.05720 0.74020 0.66300 -0.60100
O 	O 	0.10754 0.91282 0.73736 -0.41000
O 	O 	0.12835 0.90704 0.77509 -0.45000
O 	O 	0.07914 0.03461 0.74675 -0.43200
O 	O 	0.07078 0.11173 0.71002 -0.44800
C 	C 	0.10410 0.83660 0.71500 0.38700
C 	C 	0.08780 0.82140 0.69480 -0.15300
C 	C 	0.09060 0.79470 0.69410 0.13100
C 	C 	0.11650 0.92110 0.75900 0.31400
C 	C 	0.11100 0.94960 0.76640 -0.11800
C 	C 	0.09952 0.96700 0.74860 0.12600
O 	O 	0.36090 0.71560 0.59992 -0.48100
O 	O 	0.32650 0.73020 0.61870 -0.39600
O 	O 	0.24020 0.66300 0.55720 -0.60100
O 	O 	0.41282 0.73736 0.60754 -0.41000
O 	O 	0.40704 0.77509 0.62835 -0.45000
O 	O 	0.53461 0.74675 0.57914 -0.43200
O 	O 	0.61173 0.71002 0.57078 -0.44800
C 	C 	0.33660 0.71500 0.60410 0.38700
C 	C 	0.32140 0.69480 0.58780 -0.15300
C 	C 	0.29470 0.69410 0.59060 0.13100
C 	C 	0.42110 0.75900 0.61650 0.31400
C 	C 	0.44960 0.76640 0.61100 -0.11900
C 	C 	0.46700 0.74860 0.59952 0.12700
O 	O 	0.36090 0.21560 0.09992 -0.48100
O 	O 	0.32650 0.23020 0.11870 -0.39600
O 	O 	0.24020 0.16300 0.05720 -0.60100
O 	O 	0.41282 0.23736 0.10754 -0.41000
O 	O 	0.40704 0.27509 0.12835 -0.45000
O 	O 	0.53461 0.24675 0.07914 -0.43200
O 	O 	0.61173 0.21002 0.07078 -0.44800
C 	C 	0.33660 0.21500 0.10410 0.38700
C 	C 	0.32140 0.19480 0.08780 -0.15300
C 	C 	0.29470 0.19410 0.09060 0.13100
C 	C 	0.42110 0.25900 0.11650 0.31400
C 	C 	0.44960 0.26640 0.11100 -0.11900
C 	C 	0.46700 0.24860 0.09952 0.12700
O 	O 	0.86090 0.71560 0.09992 -0.48100
O 	O 	0.82650 0.73020 0.11870 -0.39600
O 	O 	0.74020 0.66300 0.05720 -0.60100
O 	O 	0.91282 0.73736 0.10754 -0.41000
O 	O 	0.90704 0.77509 0.12835 -0.45000
O 	O 	0.03461 0.74675 0.07914 -0.43200
O 	O 	0.11173 0.71002 0.07078 -0.44800
C 	C 	0.83660 0.71500 0.10410 0.38700
C 	C 	0.82140 0.69480 0.08780 -0.15300
C 	C 	0.79470 0.69410 0.09060 0.13100
C 	C 	0.92110 0.75900 0.11650 0.31400
C 	C 	0.94960 0.76640 0.11100 -0.11800
C 	C 	0.96700 0.74860 0.09952 0.12600
O 	O 	0.86090 0.21560 0.59992 -0.48100
O 	O 	0.82650 0.23020 0.61870 -0.39600
O 	O 	0.74020 0.16300 0.55720 -0.60100
O 	O 	0.91282 0.23736 0.60754 -0.41000
O 	O 	0.90704 0.27509 0.62835 -0.45000
O 	O 	0.03461 0.24675 0.57914 -0.43200
O 	O 	0.11173 0.21002 0.57078 -0.44800
C 	C 	0.83660 0.21500 0.60410 0.38700
C 	C 	0.82140 0.19480 0.58780 -0.15300
C 	C 	0.79470 0.19410 0.59060 0.13100
C 	C 	0.92110 0.25900 0.61650 0.31400
C 	C 	0.94960 0.26640 0.61100 -0.11800
C 	C 	0.96700 0.24860 0.59952 0.12600
O 	O 	0.38910 0.21560 0.65008 -0.48100
O 	O 	0.42350 0.23020 0.63130 -0.39600
O 	O 	0.50980 0.16300 0.69280 -0.60100
O 	O 	0.33718 0.23736 0.64246 -0.41000
O 	O 	0.34296 0.27509 0.62165 -0.45000
O 	O 	0.21539 0.24675 0.67086 -0.43200
O 	O 	0.13827 0.21002 0.67922 -0.44800
C 	C 	0.41340 0.21500 0.64590 0.38700
C 	C 	0.42860 0.19480 0.66220 -0.15300
C 	C 	0.45530 0.19410 0.65940 0.13100
C 	C 	0.32890 0.25900 0.63350 0.31400
C 	C 	0.30040 0.26640 0.63900 -0.11900
C 	C 	0.28300 0.24860 0.65048 0.12700
O 	O 	0.38910 0.71560 0.15008 -0.48100
O 	O 	0.42350 0.73020 0.13130 -0.39600
O 	O 	0.50980 0.66300 0.19280 -0.60100
O 	O 	0.33718 0.73736 0.14246 -0.41000
O 	O 	0.34296 0.77509 0.12165 -0.45000
O 	O 	0.21539 0.74675 0.17086 -0.43200
O 	O 	0.13827 0.71002 0.17922 -0.44800
C 	C 	0.41340 0.71500 0.14590 0.38700
C 	C 	0.42860 0.69480 0.16220 -0.15300
C 	C 	0.45530 0.69410 0.15940 0.13100
C 	C 	0.32890 0.75900 0.13350 0.31400
C 	C 	0.30040 0.76640 0.13900 -0.11900
C 	C 	0.28300 0.74860 0.15048 0.12700
O 	O 	0.88910 0.21560 0.15008 -0.48100
O 	O 	0.92350 0.23020 0.13130 -0.39600
O 	O 	0.00980 0.16300 0.19280 -0.60300
O 	O 	0.83718 0.23736 0.14246 -0.41000
O 	O 	0.84296 0.27509 0.12165 -0.45000
O 	O 	0.71539 0.24675 0.17086 -0.43200
O 	O 	0.63827 0.21002 0.17922 -0.44800
C 	C 	0.91340 0.21500 0.14590 0.38700
C 	C 	0.92860 0.19480 0.16220 -0.15300
C 	C 	0.95530 0.19410 0.15940 0.13100
C 	C 	0.82890 0.25900 0.13350 0.31400
C 	C 	0.80040 0.26640 0.13900 -0.11900
C 	C 	0.78300 0.24860 0.15048 0.12700
O 	O 	0.88910 0.71560 0.65008 -0.48100
O 	O 	0.92350 0.73020 0.63130 -0.39600
O 	O 	0.00980 0.66300 0.69280 -0.60300
O 	O 	0.83718 0.73736 0.64246 -0.41000
O 	O 	0.84296 0.77509 0.62165 -0.45000
O 	O 	0.71539 0.74675 0.67086 -0.43200
O 	O 	0.63827 0.71002 0.67922 -0.44800
C 	C 	0.91340 0.71500 0.64590 0.38700
C 	C 	0.92860 0.69480 0.66220 -0.15300
C 	C 	0.95530 0.69410 0.65940 0.13100
C 	C 	0.82890 0.75900 0.63350 0.31400
C 	C 	0.80040 0.76640 0.63900 -0.11900
C 	C 	0.78300 0.74860 0.65048 0.12700
O 	O 	0.88910 0.03440 0.09992 -0.48200
O 	O 	0.92350 0.01980 0.11870 -0.39600
O 	O 	0.00980 0.08700 0.05720 -0.60300
O 	O 	0.83718 0.01264 0.10754 -0.41100
O 	O 	0.84296 0.97491 0.12835 -0.45000
O 	O 	0.71539 0.00325 0.07914 -0.43200
O 	O 	0.63827 0.03998 0.07078 -0.44800
C 	C 	0.91340 0.03500 0.10410 0.38700
C 	C 	0.92860 0.05520 0.08780 -0.15300
C 	C 	0.95530 0.05590 0.09060 0.13100
C 	C 	0.82890 0.99100 0.11650 0.31500
C 	C 	0.80040 0.98360 0.11100 -0.11700
C 	C 	0.78300 0.00140 0.09952 0.12400
O 	O 	0.88910 0.53440 0.59992 -0.48100
O 	O 	0.92350 0.51980 0.61870 -0.39500
O 	O 	0.00980 0.58700 0.55720 -0.60300
O 	O 	0.83718 0.51264 0.60754 -0.41000
O 	O 	0.84296 0.47491 0.62835 -0.45000
O 	O 	0.71539 0.50325 0.57914 -0.43200
O 	O 	0.63827 0.53998 0.57078 -0.44800
C 	C 	0.91340 0.53500 0.60410 0.38700
C 	C 	0.92860 0.55520 0.58780 -0.15300
C 	C 	0.95530 0.55590 0.59060 0.13100
C 	C 	0.82890 0.49100 0.61650 0.31400
C 	C 	0.80040 0.48360 0.61100 -0.11900
C 	C 	0.78300 0.50140 0.59952 0.12700
O 	O 	0.38910 0.03440 0.59992 -0.48100
O 	O 	0.42350 0.01980 0.61870 -0.39600
O 	O 	0.50980 0.08700 0.55720 -0.60100
O 	O 	0.33718 0.01264 0.60754 -0.41100
O 	O 	0.34296 0.97491 0.62835 -0.45000
O 	O 	0.21539 0.00325 0.57914 -0.43200
O 	O 	0.13827 0.03998 0.57078 -0.44800
C 	C 	0.41340 0.03500 0.60410 0.38700
C 	C 	0.42860 0.05520 0.58780 -0.15300
C 	C 	0.45530 0.05590 0.59060 0.13100
C 	C 	0.32890 0.99100 0.61650 0.31500
C 	C 	0.30040 0.98360 0.61100 -0.11700
C 	C 	0.28300 0.00140 0.59952 0.12400
O 	O 	0.38910 0.53440 0.09992 -0.48100
O 	O 	0.42350 0.51980 0.11870 -0.39600
O 	O 	0.50980 0.58700 0.05720 -0.60100
O 	O 	0.33718 0.51264 0.10754 -0.41000
O 	O 	0.34296 0.47491 0.12835 -0.45000
O 	O 	0.21539 0.50325 0.07914 -0.43200
O 	O 	0.13827 0.53998 0.07078 -0.44800
C 	C 	0.41340 0.53500 0.10410 0.38700
C 	C 	0.42860 0.55520 0.08780 -0.15300
C 	C 	0.45530 0.55590 0.09060 0.13100
C 	C 	0.32890 0.49100 0.11650 0.31400
C 	C 	0.30040 0.48360 0.11100 -0.11900
C 	C 	0.28300 0.50140 0.09952 0.12700
O 	O 	0.86090 0.53440 0.15008 -0.48100
O 	O 	0.82650 0.51980 0.13130 -0.39600
O 	O 	0.74020 0.58700 0.19280 -0.60100
O 	O 	0.91282 0.51264 0.14246 -0.41000
O 	O 	0.90704 0.47491 0.12165 -0.45000
O 	O 	0.03461 0.50325 0.17086 -0.43200
O 	O 	0.11173 0.53998 0.17922 -0.44800
C 	C 	0.83660 0.53500 0.14590 0.38700
C 	C 	0.82140 0.55520 0.16220 -0.15300
C 	C 	0.79470 0.55590 0.15940 0.13100
C 	C 	0.92110 0.49100 0.13350 0.31400
C 	C 	0.94960 0.48360 0.13900 -0.11800
C 	C 	0.96700 0.50140 0.15048 0.12600
O 	O 	0.86090 0.03440 0.65008 -0.48100
O 	O 	0.82650 0.01980 0.63130 -0.39600
O 	O 	0.74020 0.08700 0.69280 -0.60100
O 	O 	0.91282 0.01264 0.64246 -0.41100
O 	O 	0.90704 0.97491 0.62165 -0.45000
O 	O 	0.03461 0.00325 0.67086 -0.43200
O 	O 	0.11173 0.03998 0.67922 -0.44800
C 	C 	0.83660 0.03500 0.64590 0.38700
C 	C 	0.82140 0.05520 0.66220 -0.15300
C 	C 	0.79470 0.05590 0.65940 0.13100
C 	C 	0.92110 0.99100 0.63350 0.31500
C 	C 	0.94960 0.98360 0.63900 -0.11600
C 	C 	0.96700 0.00140 0.65048 0.12300
O 	O 	0.36090 0.53440 0.65008 -0.48100
O 	O 	0.32650 0.51980 0.63130 -0.39600
O 	O 	0.24020 0.58700 0.69280 -0.60100
O 	O 	0.41282 0.51264 0.64246 -0.41000
O 	O 	0.40704 0.47491 0.62165 -0.45000
O 	O 	0.53461 0.50325 0.67086 -0.43200
O 	O 	0.61173 0.53998 0.67922 -0.44800
C 	C 	0.33660 0.53500 0.64590 0.38700
C 	C 	0.32140 0.55520 0.66220 -0.15300
C 	C 	0.29470 0.55590 0.65940 0.13100
C 	C 	0.42110 0.49100 0.63350 0.31400
C 	C 	0.44960 0.48360 0.63900 -0.11900
C 	C 	0.46700 0.50140 0.65048 0.12700
O 	O 	0.36090 0.03440 0.15008 -0.48100
O 	O 	0.32650 0.01980 0.13130 -0.39600
O 	O 	0.24020 0.08700 0.19280 -0.60100
O 	O 	0.41282 0.01264 0.14246 -0.41100
O 	O 	0.40704 0.97491 0.12165 -0.45000
O 	O 	0.53461 0.00325 0.17086 -0.43200
O 	O 	0.61173 0.03998 0.17922 -0.44800
C 	C 	0.33660 0.03500 0.14590 0.38700
C 	C 	0.32140 0.05520 0.16220 -0.15300
C 	C 	0.29470 0.05590 0.15940 0.13100
C 	C 	0.42110 0.99100 0.13350 0.31500
C 	C 	0.44960 0.98360 0.13900 -0.11700
C 	C 	0.46700 0.00140 0.15048 0.12400
O 	O 	0.21560 0.65008 0.38910 -0.48100
O 	O 	0.23020 0.63130 0.42350 -0.39600
O 	O 	0.16300 0.69280 0.50980 -0.60100
O 	O 	0.23736 0.64246 0.33718 -0.41000
O 	O 	0.27509 0.62165 0.34296 -0.45000
O 	O 	0.24675 0.67086 0.21539 -0.43200
O 	O 	0.21002 0.67922 0.13827 -0.44800
C 	C 	0.21500 0.64590 0.41340 0.38700
C 	C 	0.19480 0.66220 0.42860 -0.15300
C 	C 	0.19410 0.65940 0.45530 0.13100
C 	C 	0.25900 0.63350 0.32890 0.31400
C 	C 	0.26640 0.63900 0.30040 -0.11900
C 	C 	0.24860 0.65048 0.28300 0.12700
O 	O 	0.21560 0.15008 0.88910 -0.48100
O 	O 	0.23020 0.13130 0.92350 -0.39600
O 	O 	0.16300 0.19280 0.00980 -0.60300
O 	O 	0.23736 0.14246 0.83718 -0.41000
O 	O 	0.27509 0.12165 0.84296 -0.45000
O 	O 	0.24675 0.17086 0.71539 -0.43200
O 	O 	0.21002 0.17922 0.63827 -0.44800
C 	C 	0.21500 0.14590 0.91340 0.38700
C 	C 	0.19480 0.16220 0.92860 -0.15300
C 	C 	0.19410 0.15940 0.95530 0.13100
C 	C 	0.25900 0.13350 0.82890 0.31400
C 	C 	0.26640 0.13900 0.80040 -0.11900
C 	C 	0.24860 0.15048 0.78300 0.12700
O 	O 	0.71560 0.65008 0.88910 -0.48100
O 	O 	0.73020 0.63130 0.92350 -0.39600
O 	O 	0.66300 0.69280 0.00980 -0.60300
O 	O 	0.73736 0.64246 0.83718 -0.41000
O 	O 	0.77509 0.62165 0.84296 -0.45000
O 	O 	0.74675 0.67086 0.71539 -0.43200
O 	O 	0.71002 0.67922 0.63827 -0.44800
C 	C 	0.71500 0.64590 0.91340 0.38700
C 	C 	0.69480 0.66220 0.92860 -0.15300
C 	C 	0.69410 0.65940 0.95530 0.13100
C 	C 	0.75900 0.63350 0.82890 0.31400
C 	C 	0.76640 0.63900 0.80040 -0.11900
C 	C 	0.74860 0.65048 0.78300 0.12700
O 	O 	0.71560 0.15008 0.38910 -0.48100
O 	O 	0.73020 0.13130 0.42350 -0.39600
O 	O 	0.66300 0.19280 0.50980 -0.60100
O 	O 	0.73736 0.14246 0.33718 -0.41000
O 	O 	0.77509 0.12165 0.34296 -0.45000
O 	O 	0.74675 0.17086 0.21539 -0.43200
O 	O 	0.71002 0.17922 0.13827 -0.44800
C 	C 	0.71500 0.14590 0.41340 0.38700
C 	C 	0.69480 0.16220 0.42860 -0.15300
C 	C 	0.69410 0.15940 0.45530 0.13100
C 	C 	0.75900 0.13350 0.32890 0.31400
C 	C 	0.76640 0.13900 0.30040 -0.11900
C 	C 	0.74860 0.15048 0.28300 0.12700
O 	O 	0.71560 0.59992 0.36090 -0.48100
O 	O 	0.73020 0.61870 0.32650 -0.39600
O 	O 	0.66300 0.55720 0.24020 -0.60100
O 	O 	0.73736 0.60754 0.41282 -0.41000
O 	O 	0.77509 0.62835 0.40704 -0.45000
O 	O 	0.74675 0.57914 0.53461 -0.43200
O 	O 	0.71002 0.57078 0.61173 -0.44800
C 	C 	0.71500 0.60410 0.33660 0.38700
C 	C 	0.69480 0.58780 0.32140 -0.15300
C 	C 	0.69410 0.59060 0.29470 0.13100
C 	C 	0.75900 0.61650 0.42110 0.31400
C 	C 	0.76640 0.61100 0.44960 -0.11900
C 	C 	0.74860 0.59952 0.46700 0.12700
O 	O 	0.71560 0.09992 0.86090 -0.48100
O 	O 	0.73020 0.11870 0.82650 -0.39600
O 	O 	0.66300 0.05720 0.74020 -0.60100
O 	O 	0.73736 0.10754 0.91282 -0.41000
O 	O 	0.77509 0.12835 0.90704 -0.45000
O 	O 	0.74675 0.07914 0.03461 -0.43200
O 	O 	0.71002 0.07078 0.11173 -0.44800
C 	C 	0.71500 0.10410 0.83660 0.38700
C 	C 	0.69480 0.08780 0.82140 -0.15300
C 	C 	0.69410 0.09060 0.79470 0.13100
C 	C 	0.75900 0.11650 0.92110 0.31400
C 	C 	0.76640 0.11100 0.94960 -0.11800
C 	C 	0.74860 0.09952 0.96700 0.12600
O 	O 	0.21560 0.59992 0.86090 -0.48100
O 	O 	0.23020 0.61870 0.82650 -0.39600
O 	O 	0.16300 0.55720 0.74020 -0.60100
O 	O 	0.23736 0.60754 0.91282 -0.41000
O 	O 	0.27509 0.62835 0.90704 -0.45000
O 	O 	0.24675 0.57914 0.03461 -0.43200
O 	O 	0.21002 0.57078 0.11173 -0.44800
C 	C 	0.21500 0.60410 0.83660 0.38700
C 	C 	0.19480 0.58780 0.82140 -0.15300
C 	C 	0.19410 0.59060 0.79470 0.13100
C 	C 	0.25900 0.61650 0.92110 0.31400
C 	C 	0.26640 0.61100 0.94960 -0.11800
C 	C 	0.24860 0.59952 0.96700 0.12600
O 	O 	0.21560 0.09992 0.36090 -0.48100
O 	O 	0.23020 0.11870 0.32650 -0.39600
O 	O 	0.16300 0.05720 0.24020 -0.60100
O 	O 	0.23736 0.10754 0.41282 -0.41000
O 	O 	0.27509 0.12835 0.40704 -0.45000
O 	O 	0.24675 0.07914 0.53461 -0.43200
O 	O 	0.21002 0.07078 0.61173 -0.44800
C 	C 	0.21500 0.10410 0.33660 0.38700
C 	C 	0.19480 0.08780 0.32140 -0.15300
C 	C 	0.19410 0.09060 0.29470 0.13100
C 	C 	0.25900 0.11650 0.42110 0.31400
C 	C 	0.26640 0.11100 0.44960 -0.11900
C 	C 	0.24860 0.09952 0.46700 0.12700
O 	O 	0.53440 0.15008 0.86090 -0.48100
O 	O 	0.51980 0.13130 0.82650 -0.39600
O 	O 	0.58700 0.19280 0.74020 -0.60100
O 	O 	0.51264 0.14246 0.91282 -0.41000
O 	O 	0.47491 0.12165 0.90704 -0.45000
O 	O 	0.50325 0.17086 0.03461 -0.43200
O 	O 	0.53998 0.17922 0.11173 -0.44800
C 	C 	0.53500 0.14590 0.83660 0.38700
C 	C 	0.55520 0.16220 0.82140 -0.15300
C 	C 	0.55590 0.15940 0.79470 0.13100
C 	C 	0.49100 0.13350 0.92110 0.31400
C 	C 	0.48360 0.13900 0.94960 -0.11800
C 	C 	0.50140 0.15048 0.96700 0.12600
O 	O 	0.53440 0.65008 0.36090 -0.48100
O 	O 	0.51980 0.63130 0.32650 -0.39600
O 	O 	0.58700 0.69280 0.24020 -0.60100
O 	O 	0.51264 0.64246 0.41282 -0.41000
O 	O 	0.47491 0.62165 0.40704 -0.45000
O 	O 	0.50325 0.67086 0.53461 -0.43200
O 	O 	0.53998 0.67922 0.61173 -0.44800
C 	C 	0.53500 0.64590 0.33660 0.38700
C 	C 	0.55520 0.66220 0.32140 -0.15300
C 	C 	0.55590 0.65940 0.29470 0.13100
C 	C 	0.49100 0.63350 0.42110 0.31400
C 	C 	0.48360 0.63900 0.44960 -0.11900
C 	C 	0.50140 0.65048 0.46700 0.12700
O 	O 	0.03440 0.15008 0.36090 -0.48100
O 	O 	0.01980 0.13130 0.32650 -0.39600
O 	O 	0.08700 0.19280 0.24020 -0.60100
O 	O 	0.01264 0.14246 0.41282 -0.41100
O 	O 	0.97491 0.12165 0.40704 -0.45000
O 	O 	0.00325 0.17086 0.53461 -0.43200
O 	O 	0.03998 0.17922 0.61173 -0.44800
C 	C 	0.03500 0.14590 0.33660 0.38700
C 	C 	0.05520 0.16220 0.32140 -0.15300
C 	C 	0.05590 0.15940 0.29470 0.13100
C 	C 	0.99100 0.13350 0.42110 0.31500
C 	C 	0.98360 0.13900 0.44960 -0.11700
C 	C 	0.00140 0.15048 0.46700 0.12400
O 	O 	0.03440 0.65008 0.86090 -0.48100
O 	O 	0.01980 0.63130 0.82650 -0.39600
O 	O 	0.08700 0.69280 0.74020 -0.60100
O 	O 	0.01264 0.64246 0.91282 -0.41100
O 	O 	0.97491 0.62165 0.90704 -0.45000
O 	O 	0.00325 0.67086 0.03461 -0.43200
O 	O 	0.03998 0.67922 0.11173 -0.44800
C 	C 	0.03500 0.64590 0.83660 0.38700
C 	C 	0.05520 0.66220 0.82140 -0.15300
C 	C 	0.05590 0.65940 0.79470 0.13100
C 	C 	0.99100 0.63350 0.92110 0.31500
C 	C 	0.98360 0.63900 0.94960 -0.11600
C 	C 	0.00140 0.65048 0.96700 0.12300
O 	O 	0.03440 0.09992 0.88910 -0.48200
O 	O 	0.01980 0.11870 0.92350 -0.39600
O 	O 	0.08700 0.05720 0.00980 -0.60300
O 	O 	0.01264 0.10754 0.83718 -0.41100
O 	O 	0.97491 0.12835 0.84296 -0.45000
O 	O 	0.00325 0.07914 0.71539 -0.43200
O 	O 	0.03998 0.07078 0.63827 -0.44800
C 	C 	0.03500 0.10410 0.91340 0.38700
C 	C 	0.05520 0.08780 0.92860 -0.15300
C 	C 	0.05590 0.09060 0.95530 0.13100
C 	C 	0.99100 0.11650 0.82890 0.31500
C 	C 	0.98360 0.11100 0.80040 -0.11700
C 	C 	0.00140 0.09952 0.78300 0.12400
O 	O 	0.03440 0.59992 0.38910 -0.48100
O 	O 	0.01980 0.61870 0.42350 -0.39600
O 	O 	0.08700 0.55720 0.50980 -0.60100
O 	O 	0.01264 0.60754 0.33718 -0.41100
O 	O 	0.97491 0.62835 0.34296 -0.45000
O 	O 	0.00325 0.57914 0.21539 -0.43200
O 	O 	0.03998 0.57078 0.13827 -0.44800
C 	C 	0.03500 0.60410 0.41340 0.38700
C 	C 	0.05520 0.58780 0.42860 -0.15300
C 	C 	0.05590 0.59060 0.45530 0.13100
C 	C 	0.99100 0.61650 0.32890 0.31500
C 	C 	0.98360 0.61100 0.30040 -0.11700
C 	C 	0.00140 0.59952 0.28300 0.12400
O 	O 	0.53440 0.09992 0.38910 -0.48100
O 	O 	0.51980 0.11870 0.42350 -0.39600
O 	O 	0.58700 0.05720 0.50980 -0.60100
O 	O 	0.51264 0.10754 0.33718 -0.41000
O 	O 	0.47491 0.12835 0.34296 -0.45000
O 	O 	0.50325 0.07914 0.21539 -0.43200
O 	O 	0.53998 0.07078 0.13827 -0.44800
C 	C 	0.53500 0.10410 0.41340 0.38700
C 	C 	0.55520 0.08780 0.42860 -0.15300
C 	C 	0.55590 0.09060 0.45530 0.13100
C 	C 	0.49100 0.11650 0.32890 0.31400
C 	C 	0.48360 0.11100 0.30040 -0.11900
C 	C 	0.50140 0.09952 0.28300 0.12700
O 	O 	0.53440 0.59992 0.88910 -0.48100
O 	O 	0.51980 0.61870 0.92350 -0.39500
O 	O 	0.58700 0.55720 0.00980 -0.60300
O 	O 	0.51264 0.60754 0.83718 -0.41000
O 	O 	0.47491 0.62835 0.84296 -0.45000
O 	O 	0.50325 0.57914 0.71539 -0.43200
O 	O 	0.53998 0.57078 0.63827 -0.44800
C 	C 	0.53500 0.60410 0.91340 0.38700
C 	C 	0.55520 0.58780 0.92860 -0.15300
C 	C 	0.55590 0.59060 0.95530 0.13100
C 	C 	0.49100 0.61650 0.82890 0.31400
C 	C 	0.48360 0.61100 0.80040 -0.11900
C 	C 	0.50140 0.59952 0.78300 0.12700
In	In	0.87796 0.12204 -0.00000 1.99800
In	In	0.87796 0.62204 0.50000 1.99800
In	In	0.37796 0.12204 0.50000 1.99800
In	In	0.37796 0.62204 -0.00000 1.99800
In	In	0.87204 0.12796 0.50000 1.99800
In	In	0.87204 0.62796 -0.00000 1.99800
In	In	0.37204 0.12796 -0.00000 1.99800
In	In	0.37204 0.62796 0.50000 1.99800
In	In	0.37204 0.62204 0.75000 1.99800
In	In	0.37204 0.12204 0.25000 1.99800
In	In	0.87204 0.62204 0.25000 1.99800
In	In	0.87204 0.12204 0.75000 1.99800
In	In	0.37796 0.62796 0.25000 1.99800
In	In	0.37796 0.12796 0.75000 1.99800
In	In	0.87796 0.62796 0.75000 1.99800
In	In	0.87796 0.12796 0.25000 1.99800
In	In	0.00000 0.87796 0.12204 1.99800
In	In	-0.00000 0.37796 0.62204 1.99800
In	In	0.50000 0.87796 0.62204 1.99800
In	In	0.50000 0.37796 0.12204 1.99800
In	In	0.50000 0.87204 0.12796 1.99800
In	In	0.50000 0.37204 0.62796 1.99800
In	In	0.00000 0.87204 0.62796 1.99800
In	In	-0.00000 0.37204 0.12796 1.99800
In	In	0.75000 0.37204 0.62204 1.99800
In	In	0.75000 0.87204 0.12204 1.99800
In	In	0.25000 0.37204 0.12204 1.99800
In	In	0.25000 0.87204 0.62204 1.99800
In	In	0.25000 0.37796 0.62796 1.99800
In	In	0.25000 0.87796 0.12796 1.99800
In	In	0.75000 0.37796 0.12796 1.99800
In	In	0.75000 0.87796 0.62796 1.99800
In	In	0.12204 -0.00000 0.87796 1.99800
In	In	0.12204 0.50000 0.37796 1.99800
In	In	0.62204 0.00000 0.37796 1.99800
In	In	0.62204 0.50000 0.87796 1.99800
In	In	0.12796 0.50000 0.87204 1.99800
In	In	0.12796 -0.00000 0.37204 1.99800
In	In	0.62796 0.50000 0.37204 1.99800
In	In	0.62796 0.00000 0.87204 1.99800
In	In	0.62204 0.75000 0.37204 1.99800
In	In	0.62204 0.25000 0.87204 1.99800
In	In	0.12204 0.75000 0.87204 1.99800
In	In	0.12204 0.25000 0.37204 1.99800
In	In	0.62796 0.25000 0.37796 1.99800
In	In	0.62796 0.75000 0.87796 1.99800
In	In	0.12796 0.25000 0.87796 1.99800
In	In	0.12796 0.75000 0.37796 1.99800
In	In	0.12204 0.87796 -0.00000 1.99800
In	In	0.12204 0.37796 0.50000 1.99800
In	In	0.62204 0.87796 0.50000 1.99800
In	In	0.62204 0.37796 -0.00000 1.99800
In	In	0.12796 0.87204 0.50000 1.99800
In	In	0.12796 0.37204 -0.00000 1.99800
In	In	0.62796 0.87204 -0.00000 1.99800
In	In	0.62796 0.37204 0.50000 1.99800
In	In	0.62796 0.37796 0.25000 1.99800
In	In	0.62796 0.87796 0.75000 1.99800
In	In	0.12796 0.37796 0.75000 1.99800
In	In	0.12796 0.87796 0.25000 1.99800
In	In	0.62204 0.37204 0.75000 1.99800
In	In	0.62204 0.87204 0.25000 1.99800
In	In	0.12204 0.37204 0.25000 1.99800
In	In	0.12204 0.87204 0.75000 1.99800
In	In	0.00000 0.12204 0.87796 1.99800
In	In	-0.00000 0.62204 0.37796 1.99800
In	In	0.50000 0.12204 0.37796 1.99800
In	In	0.50000 0.62204 0.87796 1.99800
In	In	0.50000 0.12796 0.87204 1.99800
In	In	0.50000 0.62796 0.37204 1.99800
In	In	-0.00000 0.12796 0.37204 1.99800
In	In	0.00000 0.62796 0.87204 1.99800
In	In	0.25000 0.62796 0.37796 1.99800
In	In	0.25000 0.12796 0.87796 1.99800
In	In	0.75000 0.62796 0.87796 1.99800
In	In	0.75000 0.12796 0.37796 1.99800
In	In	0.75000 0.62204 0.37204 1.99800
In	In	0.75000 0.12204 0.87204 1.99800
In	In	0.25000 0.62204 0.87204 1.99800
In	In	0.25000 0.12204 0.37204 1.99800
In	In	0.87796 0.00000 0.12204 1.99800
In	In	0.87796 0.50000 0.62204 1.99800
In	In	0.37796 -0.00000 0.62204 1.99800
In	In	0.37796 0.50000 0.12204 1.99800
In	In	0.87204 0.50000 0.12796 1.99800
In	In	0.87204 0.00000 0.62796 1.99800
In	In	0.37204 0.50000 0.62796 1.99800
In	In	0.37204 0.00000 0.12796 1.99800
In	In	0.37796 0.25000 0.62796 1.99800
In	In	0.37796 0.75000 0.12796 1.99800
In	In	0.87796 0.25000 0.12796 1.99800
In	In	0.87796 0.75000 0.62796 1.99800
In	In	0.37204 0.75000 0.62204 1.99800
In	In	0.37204 0.25000 0.12204 1.99800
In	In	0.87204 0.75000 0.12204 1.99800
In	In	0.87204 0.25000 0.62204 1.99800
Mn	Mn	0.67698 0.07302 0.02280 1.29300
Mn	Mn	0.67698 0.57302 0.52280 1.29300
Mn	Mn	0.07302 0.17698 0.52280 1.29300
Mn	Mn	0.57302 0.17698 0.02280 1.29300
Mn	Mn	0.57302 0.67698 0.52280 1.29300
Mn	Mn	0.57302 0.57302 0.72720 1.29300
Mn	Mn	0.57302 0.07302 0.22720 1.29300
Mn	Mn	0.07302 0.57302 0.22720 1.29300
Mn	Mn	0.07302 0.07302 0.72720 1.29300
Mn	Mn	0.17698 0.67698 0.22720 1.29300
Mn	Mn	0.17698 0.17698 0.72720 1.29300
Mn	Mn	0.02280 0.67698 0.07302 1.29300
Mn	Mn	0.02280 0.17698 0.57302 1.29300
Mn	Mn	0.52280 0.67698 0.57302 1.29300
Mn	Mn	0.52280 0.07302 0.17698 1.29300
Mn	Mn	0.52280 0.57302 0.67698 1.29300
Mn	Mn	0.72720 0.57302 0.57302 1.29300
Mn	Mn	0.72720 0.07302 0.07302 1.29300
Mn	Mn	0.22720 0.57302 0.07302 1.29300
Mn	Mn	0.22720 0.07302 0.57302 1.29300
Mn	Mn	0.22720 0.17698 0.67698 1.29300
Mn	Mn	0.72720 0.17698 0.17698 1.29300
Mn	Mn	0.07302 0.02280 0.67698 1.29300
Mn	Mn	0.57302 0.02280 0.17698 1.29300
Mn	Mn	0.57302 0.52280 0.67698 1.29300
Mn	Mn	0.17698 0.52280 0.07302 1.29300
Mn	Mn	0.17698 0.02280 0.57302 1.29300
Mn	Mn	0.67698 0.52280 0.57302 1.29300
Mn	Mn	0.57302 0.72720 0.57302 1.29300
Mn	Mn	0.57302 0.22720 0.07302 1.29300
Mn	Mn	0.07302 0.72720 0.07302 1.29300
Mn	Mn	0.07302 0.22720 0.57302 1.29300
Mn	Mn	0.67698 0.22720 0.17698 1.29300
Mn	Mn	0.67698 0.72720 0.67698 1.29300
Mn	Mn	0.17698 0.72720 0.17698 1.29300
Mn	Mn	0.82302 0.92698 0.47720 1.29300
Mn	Mn	0.82302 0.42698 0.97720 1.29300
Mn	Mn	0.92698 0.32302 0.97720 1.29300
Mn	Mn	0.42698 0.32302 0.47720 1.29300
Mn	Mn	0.32302 0.82302 0.77280 1.29300
Mn	Mn	0.32302 0.32302 0.27280 1.29300
Mn	Mn	0.42698 0.42698 0.27280 1.29300
Mn	Mn	0.42698 0.92698 0.77280 1.29300
Mn	Mn	0.92698 0.42698 0.77280 1.29300
Mn	Mn	0.92698 0.92698 0.27280 1.29300
Mn	Mn	0.42698 0.27280 0.42698 1.29300
Mn	Mn	0.42698 0.77280 0.92698 1.29300
Mn	Mn	0.92698 0.27280 0.92698 1.29300
Mn	Mn	0.92698 0.77280 0.42698 1.29300
Mn	Mn	0.82302 0.77280 0.32302 1.29300
Mn	Mn	0.82302 0.27280 0.82302 1.29300
Mn	Mn	0.32302 0.27280 0.32302 1.29300
Mn	Mn	0.32302 0.97720 0.92698 1.29300
Mn	Mn	0.32302 0.47720 0.42698 1.29300
Mn	Mn	0.92698 0.47720 0.82302 1.29300
Mn	Mn	0.42698 0.47720 0.32302 1.29300
Mn	Mn	0.77280 0.32302 0.82302 1.29300
Mn	Mn	0.27280 0.32302 0.32302 1.29300
Mn	Mn	0.27280 0.42698 0.42698 1.29300
Mn	Mn	0.27280 0.92698 0.92698 1.29300
Mn	Mn	0.77280 0.42698 0.92698 1.29300
Mn	Mn	0.77280 0.92698 0.42698 1.29300
Mn	Mn	0.47720 0.82302 0.92698 1.29300
Mn	Mn	0.47720 0.32302 0.42698 1.29300
Mn	Mn	0.97720 0.92698 0.32302 1.29300
Mn	Mn	0.97720 0.42698 0.82302 1.29300
Mn	Mn	0.32302 0.92698 0.97720 1.29300
Mn	Mn	0.32302 0.42698 0.47720 1.29300
Mn	Mn	0.92698 0.82302 0.47720 1.29300
Mn	Mn	0.42698 0.82302 0.97720 1.29300
Mn	Mn	0.82302 0.32302 0.77280 1.29300
Mn	Mn	0.82302 0.82302 0.27280 1.29300
Mn	Mn	0.97720 0.32302 0.92698 1.29300
Mn	Mn	0.97720 0.82302 0.42698 1.29300
Mn	Mn	0.47720 0.92698 0.82302 1.29300
Mn	Mn	0.47720 0.42698 0.32302 1.29300
Mn	Mn	0.77280 0.82302 0.32302 1.29300
Mn	Mn	0.27280 0.82302 0.82302 1.29300
Mn	Mn	0.92698 0.97720 0.32302 1.29300
Mn	Mn	0.42698 0.97720 0.82302 1.29300
Mn	Mn	0.82302 0.47720 0.92698 1.29300
Mn	Mn	0.82302 0.97720 0.42698 1.29300
Mn	Mn	0.32302 0.77280 0.82302 1.29300
Mn	Mn	0.17698 0.07302 0.52280 1.29300
Mn	Mn	0.17698 0.57302 0.02280 1.29300
Mn	Mn	0.07302 0.67698 0.02280 1.29300
Mn	Mn	0.67698 0.17698 0.22720 1.29300
Mn	Mn	0.67698 0.67698 0.72720 1.29300
Mn	Mn	0.17698 0.22720 0.67698 1.29300
Mn	Mn	0.67698 0.02280 0.07302 1.29300
Mn	Mn	0.07302 0.52280 0.17698 1.29300
Mn	Mn	0.22720 0.67698 0.17698 1.29300
Mn	Mn	0.72720 0.67698 0.67698 1.29300
Mn	Mn	0.52280 0.17698 0.07302 1.29300
Mn	Mn	0.02280 0.07302 0.67698 1.29300
Mn	Mn	0.02280 0.57302 0.17698 1.29300
Mn	Mn	0.04022 0.04022 0.09323 0.98600
O 	O 	0.03560 0.03560 0.12160 -0.50700
O 	O 	0.06870 0.06870 0.10610 -0.68900
Mn	Mn	0.05354 0.05354 0.09490 1.01600
Mn	Mn	0.04022 0.54022 0.59323 0.98600
O 	O 	0.03560 0.53560 0.62160 -0.50600
O 	O 	0.06870 0.56870 0.60610 -0.68900
Mn	Mn	0.05354 0.55354 0.59490 1.01600
Mn	Mn	0.54022 0.04022 0.59323 0.98600
O 	O 	0.53560 0.03560 0.62160 -0.50600
O 	O 	0.56870 0.06870 0.60610 -0.68900
Mn	Mn	0.55354 0.05354 0.59490 1.01600
Mn	Mn	0.54022 0.54022 0.09323 0.98600
O 	O 	0.53560 0.53560 0.12160 -0.50600
O 	O 	0.56870 0.56870 0.10610 -0.68900
Mn	Mn	0.55354 0.55354 0.09490 1.01600
Mn	Mn	0.70978 0.20978 0.59323 0.98600
O 	O 	0.71440 0.21440 0.62160 -0.50600
O 	O 	0.68130 0.18130 0.60610 -0.68900
Mn	Mn	0.69646 0.19646 0.59490 1.01600
Mn	Mn	0.70978 0.70978 0.09323 0.98600
O 	O 	0.71440 0.71440 0.12160 -0.50600
O 	O 	0.68130 0.68130 0.10610 -0.68900
Mn	Mn	0.69646 0.69646 0.09490 1.01600
Mn	Mn	0.20978 0.54022 0.65677 0.98600
O 	O 	0.21440 0.53560 0.62840 -0.50600
O 	O 	0.18130 0.56870 0.64390 -0.68900
Mn	Mn	0.19646 0.55354 0.65510 1.01600
Mn	Mn	0.20978 0.04022 0.15677 0.98600
O 	O 	0.21440 0.03560 0.12840 -0.50600
O 	O 	0.18130 0.06870 0.14390 -0.68900
Mn	Mn	0.19646 0.05354 0.15510 1.01600
Mn	Mn	0.54022 0.70978 0.15677 0.98600
O 	O 	0.53560 0.71440 0.12840 -0.50600
O 	O 	0.56870 0.68130 0.14390 -0.68900
Mn	Mn	0.55354 0.69646 0.15510 1.01600
Mn	Mn	0.04022 0.70978 0.65677 0.98600
O 	O 	0.03560 0.71440 0.62840 -0.50600
O 	O 	0.06870 0.68130 0.64390 -0.68900
Mn	Mn	0.05354 0.69646 0.65510 1.01600
Mn	Mn	0.09323 0.04022 0.04022 0.98600
O 	O 	0.12160 0.03560 0.03560 -0.50700
O 	O 	0.10610 0.06870 0.06870 -0.68900
Mn	Mn	0.09490 0.05354 0.05354 1.01600
Mn	Mn	0.09323 0.54022 0.54022 0.98600
O 	O 	0.12160 0.53560 0.53560 -0.50600
O 	O 	0.10610 0.56870 0.56870 -0.68900
Mn	Mn	0.09490 0.55354 0.55354 1.01600
Mn	Mn	0.59323 0.04022 0.54022 0.98600
O 	O 	0.62160 0.03560 0.53560 -0.50600
O 	O 	0.60610 0.06870 0.56870 -0.68900
Mn	Mn	0.59490 0.05354 0.55354 1.01600
Mn	Mn	0.59323 0.54022 0.04022 0.98600
O 	O 	0.62160 0.53560 0.03560 -0.50600
O 	O 	0.60610 0.56870 0.06870 -0.68900
Mn	Mn	0.59490 0.55354 0.05354 1.01600
Mn	Mn	0.59323 0.70978 0.20978 0.98600
O 	O 	0.62160 0.71440 0.21440 -0.50600
O 	O 	0.60610 0.68130 0.18130 -0.68900
Mn	Mn	0.59490 0.69646 0.19646 1.01600
Mn	Mn	0.09323 0.70978 0.70978 0.98600
O 	O 	0.12160 0.71440 0.71440 -0.50600
O 	O 	0.10610 0.68130 0.68130 -0.68900
Mn	Mn	0.09490 0.69646 0.69646 1.01600
Mn	Mn	0.65677 0.20978 0.54022 0.98600
O 	O 	0.62840 0.21440 0.53560 -0.50600
O 	O 	0.64390 0.18130 0.56870 -0.68900
Mn	Mn	0.65510 0.19646 0.55354 1.01600
Mn	Mn	0.65677 0.70978 0.04022 0.98600
O 	O 	0.62840 0.71440 0.03560 -0.50600
O 	O 	0.64390 0.68130 0.06870 -0.68900
Mn	Mn	0.65510 0.69646 0.05354 1.01600
Mn	Mn	0.15677 0.54022 0.70978 0.98600
O 	O 	0.12840 0.53560 0.71440 -0.50600
O 	O 	0.14390 0.56870 0.68130 -0.68900
Mn	Mn	0.15510 0.55354 0.69646 1.01600
Mn	Mn	0.15677 0.04022 0.20978 0.98600
O 	O 	0.12840 0.03560 0.21440 -0.50600
O 	O 	0.14390 0.06870 0.18130 -0.68900
Mn	Mn	0.15510 0.05354 0.19646 1.01600
Mn	Mn	0.04022 0.09323 0.04022 0.98600
O 	O 	0.03560 0.12160 0.03560 -0.50700
O 	O 	0.06870 0.10610 0.06870 -0.68900
Mn	Mn	0.05354 0.09490 0.05354 1.01600
Mn	Mn	0.04022 0.59323 0.54022 0.98600
O 	O 	0.03560 0.62160 0.53560 -0.50600
O 	O 	0.06870 0.60610 0.56870 -0.68900
Mn	Mn	0.05354 0.59490 0.55354 1.01600
Mn	Mn	0.54022 0.09323 0.54022 0.98600
O 	O 	0.53560 0.12160 0.53560 -0.50600
O 	O 	0.56870 0.10610 0.56870 -0.68900
Mn	Mn	0.55354 0.09490 0.55354 1.01600
Mn	Mn	0.54022 0.59323 0.04022 0.98600
O 	O 	0.53560 0.62160 0.03560 -0.50600
O 	O 	0.56870 0.60610 0.06870 -0.68900
Mn	Mn	0.55354 0.59490 0.05354 1.01600
Mn	Mn	0.20978 0.59323 0.70978 0.98600
O 	O 	0.21440 0.62160 0.71440 -0.50600
O 	O 	0.18130 0.60610 0.68130 -0.68900
Mn	Mn	0.19646 0.59490 0.69646 1.01600
Mn	Mn	0.20978 0.09323 0.20978 0.98600
O 	O 	0.21440 0.12160 0.21440 -0.50600
O 	O 	0.18130 0.10610 0.18130 -0.68900
Mn	Mn	0.19646 0.09490 0.19646 1.01600
Mn	Mn	0.54022 0.65677 0.20978 0.98600
O 	O 	0.53560 0.62840 0.21440 -0.50600
O 	O 	0.56870 0.64390 0.18130 -0.68900
Mn	Mn	0.55354 0.65510 0.19646 1.01600
Mn	Mn	0.04022 0.65677 0.70978 0.98600
O 	O 	0.03560 0.62840 0.71440 -0.50600
O 	O 	0.06870 0.64390 0.68130 -0.68900
Mn	Mn	0.05354 0.65510 0.69646 1.01600
Mn	Mn	0.70978 0.15677 0.54022 0.98600
O 	O 	0.71440 0.12840 0.53560 -0.50600
O 	O 	0.68130 0.14390 0.56870 -0.68900
Mn	Mn	0.69646 0.15510 0.55354 1.01600
Mn	Mn	0.70978 0.65677 0.04022 0.98600
O 	O 	0.71440 0.62840 0.03560 -0.50600
O 	O 	0.68130 0.64390 0.06870 -0.68900
Mn	Mn	0.69646 0.65510 0.05354 1.01600
Mn	Mn	0.79022 0.29022 0.40677 0.98600
O 	O 	0.78560 0.28560 0.37840 -0.50600
O 	O 	0.81870 0.31870 0.39390 -0.68900
Mn	Mn	0.80354 0.30354 0.40510 1.01600
Mn	Mn	0.79022 0.79022 0.90677 0.98600
O 	O 	0.78560 0.78560 0.87840 -0.50600
O 	O 	0.81870 0.81870 0.89390 -0.68900
Mn	Mn	0.80354 0.80354 0.90510 1.01600
Mn	Mn	0.95978 0.95978 0.90677 0.98600
O 	O 	0.96440 0.96440 0.87840 -0.50600
O 	O 	0.93130 0.93130 0.89390 -0.68800
Mn	Mn	0.94646 0.94646 0.90510 1.01600
Mn	Mn	0.95978 0.45978 0.40677 0.98600
O 	O 	0.96440 0.46440 0.37840 -0.50600
O 	O 	0.93130 0.43130 0.39390 -0.68900
Mn	Mn	0.94646 0.44646 0.40510 1.01600
Mn	Mn	0.45978 0.95978 0.40677 0.98600
O 	O 	0.46440 0.96440 0.37840 -0.50600
O 	O 	0.43130 0.93130 0.39390 -0.68900
Mn	Mn	0.44646 0.94646 0.40510 1.01600
Mn	Mn	0.45978 0.45978 0.90677 0.98600
O 	O 	0.46440 0.46440 0.87840 -0.50600
O 	O 	0.43130 0.43130 0.89390 -0.68900
Mn	Mn	0.44646 0.44646 0.90510 1.01600
Mn	Mn	0.29022 0.45978 0.84323 0.98600
O 	O 	0.28560 0.46440 0.87160 -0.50600
O 	O 	0.31870 0.43130 0.85610 -0.68900
Mn	Mn	0.30354 0.44646 0.84490 1.01600
Mn	Mn	0.29022 0.95978 0.34323 0.98600
O 	O 	0.28560 0.96440 0.37160 -0.50600
O 	O 	0.31870 0.93130 0.35610 -0.68900
Mn	Mn	0.30354 0.94646 0.34490 1.01600
Mn	Mn	0.45978 0.79022 0.34323 0.98600
O 	O 	0.46440 0.78560 0.37160 -0.50600
O 	O 	0.43130 0.81870 0.35610 -0.68900
Mn	Mn	0.44646 0.80354 0.34490 1.01600
Mn	Mn	0.95978 0.79022 0.84323 0.98600
O 	O 	0.96440 0.78560 0.87160 -0.50600
O 	O 	0.93130 0.81870 0.85610 -0.68900
Mn	Mn	0.94646 0.80354 0.84490 1.01600
Mn	Mn	0.79022 0.34323 0.45978 0.98600
O 	O 	0.78560 0.37160 0.46440 -0.50600
O 	O 	0.81870 0.35610 0.43130 -0.68900
Mn	Mn	0.80354 0.34490 0.44646 1.01600
Mn	Mn	0.79022 0.84323 0.95978 0.98600
O 	O 	0.78560 0.87160 0.96440 -0.50600
O 	O 	0.81870 0.85610 0.93130 -0.68900
Mn	Mn	0.80354 0.84490 0.94646 1.01600
Mn	Mn	0.45978 0.84323 0.29022 0.98600
O 	O 	0.46440 0.87160 0.28560 -0.50600
O 	O 	0.43130 0.85610 0.31870 -0.68900
Mn	Mn	0.44646 0.84490 0.30354 1.01600
Mn	Mn	0.95978 0.84323 0.79022 0.98600
O 	O 	0.96440 0.87160 0.78560 -0.50600
O 	O 	0.93130 0.85610 0.81870 -0.68900
Mn	Mn	0.94646 0.84490 0.80354 1.01600
Mn	Mn	0.95978 0.90677 0.95978 0.98600
O 	O 	0.96440 0.87840 0.96440 -0.50600
O 	O 	0.93130 0.89390 0.93130 -0.68800
Mn	Mn	0.94646 0.90510 0.94646 1.01600
Mn	Mn	0.95978 0.40677 0.45978 0.98600
O 	O 	0.96440 0.37840 0.46440 -0.50600
O 	O 	0.93130 0.39390 0.43130 -0.68900
Mn	Mn	0.94646 0.40510 0.44646 1.01600
Mn	Mn	0.45978 0.90677 0.45978 0.98600
O 	O 	0.46440 0.87840 0.46440 -0.50600
O 	O 	0.43130 0.89390 0.43130 -0.68900
Mn	Mn	0.44646 0.90510 0.44646 1.01600
Mn	Mn	0.45978 0.40677 0.95978 0.98600
O 	O 	0.46440 0.37840 0.96440 -0.50600
O 	O 	0.43130 0.39390 0.93130 -0.68900
Mn	Mn	0.44646 0.40510 0.94646 1.01600
Mn	Mn	0.29022 0.40677 0.79022 0.98600
O 	O 	0.28560 0.37840 0.78560 -0.50600
O 	O 	0.31870 0.39390 0.81870 -0.68900
Mn	Mn	0.30354 0.40510 0.80354 1.01600
Mn	Mn	0.29022 0.90677 0.29022 0.98600
O 	O 	0.28560 0.87840 0.28560 -0.50600
O 	O 	0.31870 0.89390 0.31870 -0.68900
Mn	Mn	0.30354 0.90510 0.30354 1.01600
Mn	Mn	0.84323 0.29022 0.45978 0.98600
O 	O 	0.87160 0.28560 0.46440 -0.50600
O 	O 	0.85610 0.31870 0.43130 -0.68900
Mn	Mn	0.84490 0.30354 0.44646 1.01600
Mn	Mn	0.84323 0.79022 0.95978 0.98600
O 	O 	0.87160 0.78560 0.96440 -0.50600
O 	O 	0.85610 0.81870 0.93130 -0.68900
Mn	Mn	0.84490 0.80354 0.94646 1.01600
Mn	Mn	0.34323 0.45978 0.79022 0.98600
O 	O 	0.37160 0.46440 0.78560 -0.50600
O 	O 	0.35610 0.43130 0.81870 -0.68900
Mn	Mn	0.34490 0.44646 0.80354 1.01600
Mn	Mn	0.34323 0.95978 0.29022 0.98600
O 	O 	0.37160 0.96440 0.28560 -0.50600
O 	O 	0.35610 0.93130 0.31870 -0.68900
Mn	Mn	0.34490 0.94646 0.30354 1.01600
Mn	Mn	0.40677 0.79022 0.29022 0.98600
O 	O 	0.37840 0.78560 0.28560 -0.50600
O 	O 	0.39390 0.81870 0.31870 -0.68900
Mn	Mn	0.40510 0.80354 0.30354 1.01600
Mn	Mn	0.90677 0.79022 0.79022 0.98600
O 	O 	0.87840 0.78560 0.78560 -0.50600
O 	O 	0.89390 0.81870 0.81870 -0.68900
Mn	Mn	0.90510 0.80354 0.80354 1.01600
Mn	Mn	0.90677 0.95978 0.95978 0.98600
O 	O 	0.87840 0.96440 0.96440 -0.50600
O 	O 	0.89390 0.93130 0.93130 -0.68800
Mn	Mn	0.90510 0.94646 0.94646 1.01600
Mn	Mn	0.90677 0.45978 0.45978 0.98600
O 	O 	0.87840 0.46440 0.46440 -0.50600
O 	O 	0.89390 0.43130 0.43130 -0.68900
Mn	Mn	0.90510 0.44646 0.44646 1.01600
Mn	Mn	0.40677 0.95978 0.45978 0.98600
O 	O 	0.37840 0.96440 0.46440 -0.50600
O 	O 	0.39390 0.93130 0.43130 -0.68900
Mn	Mn	0.40510 0.94646 0.44646 1.01600
Mn	Mn	0.40677 0.45978 0.95978 0.98600
O 	O 	0.37840 0.46440 0.96440 -0.50600
O 	O 	0.39390 0.43130 0.93130 -0.68900
Mn	Mn	0.40510 0.44646 0.94646 1.01600
Mn	Mn	0.29022 0.79022 0.40677 0.98600
O 	O 	0.28560 0.78560 0.37840 -0.50600
O 	O 	0.31870 0.81870 0.39390 -0.68900
Mn	Mn	0.30354 0.80354 0.40510 1.01600
Mn	Mn	0.29022 0.29022 0.90677 0.98600
O 	O 	0.28560 0.28560 0.87840 -0.50600
O 	O 	0.31870 0.31870 0.89390 -0.68900
Mn	Mn	0.30354 0.30354 0.90510 1.01600
Mn	Mn	0.79022 0.45978 0.34323 0.98600
O 	O 	0.78560 0.46440 0.37160 -0.50600
O 	O 	0.81870 0.43130 0.35610 -0.68900
Mn	Mn	0.80354 0.44646 0.34490 1.01600
Mn	Mn	0.79022 0.95978 0.84323 0.98600
O 	O 	0.78560 0.96440 0.87160 -0.50600
O 	O 	0.81870 0.93130 0.85610 -0.68900
Mn	Mn	0.80354 0.94646 0.84490 1.01600
Mn	Mn	0.45978 0.29022 0.84323 0.98600
O 	O 	0.46440 0.28560 0.87160 -0.50600
O 	O 	0.43130 0.31870 0.85610 -0.68900
Mn	Mn	0.44646 0.30354 0.84490 1.01600
Mn	Mn	0.95978 0.29022 0.34323 0.98600
O 	O 	0.96440 0.28560 0.37160 -0.50600
O 	O 	0.93130 0.31870 0.35610 -0.68900
Mn	Mn	0.94646 0.30354 0.34490 1.01600
Mn	Mn	0.40677 0.29022 0.79022 0.98600
O 	O 	0.37840 0.28560 0.78560 -0.50600
O 	O 	0.39390 0.31870 0.81870 -0.68900
Mn	Mn	0.40510 0.30354 0.80354 1.01600
Mn	Mn	0.90677 0.29022 0.29022 0.98600
O 	O 	0.87840 0.28560 0.28560 -0.50600
O 	O 	0.89390 0.31870 0.31870 -0.68900
Mn	Mn	0.90510 0.30354 0.30354 1.01600
Mn	Mn	0.34323 0.79022 0.45978 0.98600
O 	O 	0.37160 0.78560 0.46440 -0.50600
O 	O 	0.35610 0.81870 0.43130 -0.68900
Mn	Mn	0.34490 0.80354 0.44646 1.01600
Mn	Mn	0.34323 0.29022 0.95978 0.98600
O 	O 	0.37160 0.28560 0.96440 -0.50600
O 	O 	0.35610 0.31870 0.93130 -0.68900
Mn	Mn	0.34490 0.30354 0.94646 1.01600
Mn	Mn	0.84323 0.45978 0.29022 0.98600
O 	O 	0.87160 0.46440 0.28560 -0.50600
O 	O 	0.85610 0.43130 0.31870 -0.68900
Mn	Mn	0.84490 0.44646 0.30354 1.01600
Mn	Mn	0.84323 0.95978 0.79022 0.98600
O 	O 	0.87160 0.96440 0.78560 -0.50600
O 	O 	0.85610 0.93130 0.81870 -0.68900
Mn	Mn	0.84490 0.94646 0.80354 1.01600
Mn	Mn	0.79022 0.40677 0.29022 0.98600
O 	O 	0.78560 0.37840 0.28560 -0.50600
O 	O 	0.81870 0.39390 0.31870 -0.68900
Mn	Mn	0.80354 0.40510 0.30354 1.01600
Mn	Mn	0.79022 0.90677 0.79022 0.98600
O 	O 	0.78560 0.87840 0.78560 -0.50600
O 	O 	0.81870 0.89390 0.81870 -0.68900
Mn	Mn	0.80354 0.90510 0.80354 1.01600
Mn	Mn	0.45978 0.34323 0.79022 0.98600
O 	O 	0.46440 0.37160 0.78560 -0.50600
O 	O 	0.43130 0.35610 0.81870 -0.68900
Mn	Mn	0.44646 0.34490 0.80354 1.01600
Mn	Mn	0.95978 0.34323 0.29022 0.98600
O 	O 	0.96440 0.37160 0.28560 -0.50600
O 	O 	0.93130 0.35610 0.31870 -0.68900
Mn	Mn	0.94646 0.34490 0.30354 1.01600
Mn	Mn	0.29022 0.84323 0.45978 0.98600
O 	O 	0.28560 0.87160 0.46440 -0.50600
O 	O 	0.31870 0.85610 0.43130 -0.68900
Mn	Mn	0.30354 0.84490 0.44646 1.01600
Mn	Mn	0.29022 0.34323 0.95978 0.98600
O 	O 	0.28560 0.37160 0.96440 -0.50600
O 	O 	0.31870 0.35610 0.93130 -0.68900
Mn	Mn	0.30354 0.34490 0.94646 1.01600
Mn	Mn	0.20978 0.70978 0.59323 0.98600
O 	O 	0.21440 0.71440 0.62160 -0.50600
O 	O 	0.18130 0.68130 0.60610 -0.68900
Mn	Mn	0.19646 0.69646 0.59490 1.01600
Mn	Mn	0.20978 0.20978 0.09323 0.98600
O 	O 	0.21440 0.21440 0.12160 -0.50600
O 	O 	0.18130 0.18130 0.10610 -0.68900
Mn	Mn	0.19646 0.19646 0.09490 1.01600
Mn	Mn	0.70978 0.54022 0.15677 0.98600
O 	O 	0.71440 0.53560 0.12840 -0.50600
O 	O 	0.68130 0.56870 0.14390 -0.68900
Mn	Mn	0.69646 0.55354 0.15510 1.01600
Mn	Mn	0.70978 0.04022 0.65677 0.98600
O 	O 	0.71440 0.03560 0.62840 -0.50600
O 	O 	0.68130 0.06870 0.64390 -0.68900
Mn	Mn	0.69646 0.05354 0.65510 1.01600
Mn	Mn	0.54022 0.20978 0.65677 0.98600
O 	O 	0.53560 0.21440 0.62840 -0.50600
O 	O 	0.56870 0.18130 0.64390 -0.68900
Mn	Mn	0.55354 0.19646 0.65510 1.01600
Mn	Mn	0.04022 0.20978 0.15677 0.98600
O 	O 	0.03560 0.21440 0.12840 -0.50600
O 	O 	0.06870 0.18130 0.14390 -0.68900
Mn	Mn	0.05354 0.19646 0.15510 1.01600
Mn	Mn	0.20978 0.65677 0.54022 0.98600
O 	O 	0.21440 0.62840 0.53560 -0.50600
O 	O 	0.18130 0.64390 0.56870 -0.68900
Mn	Mn	0.19646 0.65510 0.55354 1.01600
Mn	Mn	0.20978 0.15677 0.04022 0.98600
O 	O 	0.21440 0.12840 0.03560 -0.50600
O 	O 	0.18130 0.14390 0.06870 -0.68900
Mn	Mn	0.19646 0.15510 0.05354 1.01600
Mn	Mn	0.54022 0.15677 0.70978 0.98600
O 	O 	0.53560 0.12840 0.71440 -0.50600
O 	O 	0.56870 0.14390 0.68130 -0.68900
Mn	Mn	0.55354 0.15510 0.69646 1.01600
Mn	Mn	0.04022 0.15677 0.20978 0.98600
O 	O 	0.03560 0.12840 0.21440 -0.50600
O 	O 	0.06870 0.14390 0.18130 -0.68900
Mn	Mn	0.05354 0.15510 0.19646 1.01600
Mn	Mn	0.70978 0.59323 0.20978 0.98600
O 	O 	0.71440 0.62160 0.21440 -0.50600
O 	O 	0.68130 0.60610 0.18130 -0.68900
Mn	Mn	0.69646 0.59490 0.19646 1.01600
Mn	Mn	0.70978 0.09323 0.70978 0.98600
O 	O 	0.71440 0.12160 0.71440 -0.50600
O 	O 	0.68130 0.10610 0.68130 -0.68900
Mn	Mn	0.69646 0.09490 0.69646 1.01600
Mn	Mn	0.15677 0.70978 0.54022 0.98600
O 	O 	0.12840 0.71440 0.53560 -0.50600
O 	O 	0.14390 0.68130 0.56870 -0.68900
Mn	Mn	0.15510 0.69646 0.55354 1.01600
Mn	Mn	0.15677 0.20978 0.04022 0.98600
O 	O 	0.12840 0.21440 0.03560 -0.50600
O 	O 	0.14390 0.18130 0.06870 -0.68900
Mn	Mn	0.15510 0.19646 0.05354 1.01600
Mn	Mn	0.65677 0.54022 0.20978 0.98600
O 	O 	0.62840 0.53560 0.21440 -0.50600
O 	O 	0.64390 0.56870 0.18130 -0.68900
Mn	Mn	0.65510 0.55354 0.19646 1.01600
Mn	Mn	0.65677 0.04022 0.70978 0.98600
O 	O 	0.62840 0.03560 0.71440 -0.50600
O 	O 	0.64390 0.06870 0.68130 -0.68900
Mn	Mn	0.65510 0.05354 0.69646 1.01600
Mn	Mn	0.59323 0.20978 0.70978 0.98600
O 	O 	0.62160 0.21440 0.71440 -0.50600
O 	O 	0.60610 0.18130 0.68130 -0.68900
Mn	Mn	0.59490 0.19646 0.69646 1.01600
Mn	Mn	0.09323 0.20978 0.20978 0.98600
O 	O 	0.12160 0.21440 0.21440 -0.50600
O 	O 	0.10610 0.18130 0.18130 -0.68900
Mn	Mn	0.09490 0.19646 0.19646 1.01600
O 	O 	0.69688 0.05312 0.05312 -0.62900
O 	O 	0.05312 0.19688 0.55312 -0.62900
O 	O 	0.55312 0.55312 0.69688 -0.62900
O 	O 	0.19688 0.69688 0.19688 -0.62900
O 	O 	0.05312 0.69688 0.05312 -0.62900
O 	O 	0.55312 0.05312 0.19688 -0.62900
O 	O 	0.69688 0.55312 0.55312 -0.62900
O 	O 	0.19688 0.19688 0.69688 -0.62900
O 	O 	0.05312 0.05312 0.69688 -0.62900
O 	O 	0.19688 0.55312 0.05312 -0.62900
O 	O 	0.55312 0.69688 0.55312 -0.62900
O 	O 	0.69688 0.19688 0.19688 -0.62900
O 	O 	0.69688 0.69688 0.69688 -0.62900
O 	O 	0.80312 0.94688 0.44688 -0.62900
O 	O 	0.94688 0.30312 0.94688 -0.62900
O 	O 	0.30312 0.80312 0.80312 -0.62900
O 	O 	0.30312 0.30312 0.30312 -0.62900
O 	O 	0.44688 0.44688 0.30312 -0.62900
O 	O 	0.44688 0.30312 0.44688 -0.62900
O 	O 	0.80312 0.80312 0.30312 -0.62900
O 	O 	0.30312 0.94688 0.94688 -0.62900
O 	O 	0.94688 0.44688 0.80312 -0.62900
O 	O 	0.80312 0.30312 0.80312 -0.62900
O 	O 	0.30312 0.44688 0.44688 -0.62900
O 	O 	0.44688 0.80312 0.94688 -0.62900
O 	O 	0.94688 0.94688 0.30312 -0.62900
O 	O 	0.94688 0.80312 0.44688 -0.62900
O 	O 	0.44688 0.94688 0.80312 -0.62900
O 	O 	0.80312 0.44688 0.94688 -0.62900
O 	O 	0.19688 0.05312 0.55312 -0.62900
O 	O 	0.05312 0.55312 0.19688 -0.62900
O 	O 	0.55312 0.19688 0.05312 -0.62900
C 	C 	0.91320 0.06980 0.06980 0.14700
C 	C 	0.96870 0.07320 0.07320 -0.15100
C 	C 	0.99890 0.07780 0.07780 0.43800
C 	C 	0.62740 0.06040 0.06040 0.43700
C 	C 	0.60500 0.07042 0.07042 -0.24700
C 	C 	0.91320 0.56980 0.56980 0.14700
C 	C 	0.96870 0.57320 0.57320 -0.15100
C 	C 	0.99890 0.57780 0.57780 0.43800
C 	C 	0.62740 0.56040 0.56040 0.43700
C 	C 	0.60500 0.57042 0.57042 -0.24600
C 	C 	0.41320 0.06980 0.56980 0.14600
C 	C 	0.46870 0.07320 0.57320 -0.15100
C 	C 	0.49890 0.07780 0.57780 0.43500
C 	C 	0.12740 0.06040 0.56040 0.43700
C 	C 	0.10500 0.07042 0.57042 -0.24600
C 	C 	0.41320 0.56980 0.06980 0.14600
C 	C 	0.46870 0.57320 0.07320 -0.15100
C 	C 	0.49890 0.57780 0.07780 0.43500
C 	C 	0.12740 0.56040 0.06040 0.43700
C 	C 	0.10500 0.57042 0.07042 -0.24600
C 	C 	0.83680 0.18020 0.56980 0.14700
C 	C 	0.78130 0.17680 0.57320 -0.15100
C 	C 	0.75110 0.17220 0.57780 0.43500
C 	C 	0.12260 0.18960 0.56040 0.43700
C 	C 	0.14500 0.17958 0.57042 -0.24600
C 	C 	0.83680 0.68020 0.06980 0.14600
C 	C 	0.78130 0.67680 0.07320 -0.15100
C 	C 	0.75110 0.67220 0.07780 0.43500
C 	C 	0.12260 0.68960 0.06040 0.43700
C 	C 	0.14500 0.67958 0.07042 -0.24600
C 	C 	0.33680 0.56980 0.68020 0.14700
C 	C 	0.28130 0.57320 0.67680 -0.15100
C 	C 	0.25110 0.57780 0.67220 0.43500
C 	C 	0.62260 0.56040 0.68960 0.43700
C 	C 	0.64500 0.57042 0.67958 -0.24600
C 	C 	0.33680 0.06980 0.18020 0.14600
C 	C 	0.28130 0.07320 0.17680 -0.15100
C 	C 	0.25110 0.07780 0.17220 0.43500
C 	C 	0.62260 0.06040 0.18960 0.43700
C 	C 	0.64500 0.07042 0.17958 -0.24600
C 	C 	0.41320 0.68020 0.18020 0.14700
C 	C 	0.46870 0.67680 0.17680 -0.15100
C 	C 	0.49890 0.67220 0.17220 0.43500
C 	C 	0.12740 0.68960 0.18960 0.43700
C 	C 	0.10500 0.67958 0.17958 -0.24600
C 	C 	0.91320 0.68020 0.68020 0.14700
C 	C 	0.96870 0.67680 0.67680 -0.15100
C 	C 	0.99890 0.67220 0.67220 0.43800
C 	C 	0.62740 0.68960 0.68960 0.43700
C 	C 	0.60500 0.67958 0.67958 -0.24600
C 	C 	0.91320 0.18020 0.18020 0.14700
C 	C 	0.96870 0.17680 0.17680 -0.15100
C 	C 	0.99890 0.17220 0.17220 0.43800
C 	C 	0.62740 0.18960 0.18960 0.43700
C 	C 	0.60500 0.17958 0.17958 -0.24600
C 	C 	0.06980 0.91320 0.06980 0.14700
C 	C 	0.07320 0.96870 0.07320 -0.15100
C 	C 	0.07780 0.99890 0.07780 0.43800
C 	C 	0.06040 0.62740 0.06040 0.43700
C 	C 	0.07042 0.60500 0.07042 -0.24700
C 	C 	0.06980 0.41320 0.56980 0.14600
C 	C 	0.07320 0.46870 0.57320 -0.15100
C 	C 	0.07780 0.49890 0.57780 0.43500
C 	C 	0.06040 0.12740 0.56040 0.43700
C 	C 	0.07042 0.10500 0.57042 -0.24600
C 	C 	0.56980 0.91320 0.56980 0.14700
C 	C 	0.57320 0.96870 0.57320 -0.15100
C 	C 	0.57780 0.99890 0.57780 0.43800
C 	C 	0.56040 0.62740 0.56040 0.43700
C 	C 	0.57042 0.60500 0.57042 -0.24600
C 	C 	0.56980 0.41320 0.06980 0.14600
C 	C 	0.57320 0.46870 0.07320 -0.15100
C 	C 	0.57780 0.49890 0.07780 0.43500
C 	C 	0.56040 0.12740 0.06040 0.43700
C 	C 	0.57042 0.10500 0.07042 -0.24600
C 	C 	0.56980 0.83680 0.18020 0.14700
C 	C 	0.57320 0.78130 0.17680 -0.15100
C 	C 	0.57780 0.75110 0.17220 0.43500
C 	C 	0.56040 0.12260 0.18960 0.43700
C 	C 	0.57042 0.14500 0.17958 -0.24600
C 	C 	0.06980 0.83680 0.68020 0.14600
C 	C 	0.07320 0.78130 0.67680 -0.15100
C 	C 	0.07780 0.75110 0.67220 0.43500
C 	C 	0.06040 0.12260 0.68960 0.43700
C 	C 	0.07042 0.14500 0.67958 -0.24600
C 	C 	0.68020 0.33680 0.56980 0.14700
C 	C 	0.67680 0.28130 0.57320 -0.15100
C 	C 	0.67220 0.25110 0.57780 0.43500
C 	C 	0.68960 0.62260 0.56040 0.43700
C 	C 	0.67958 0.64500 0.57042 -0.24600
C 	C 	0.68020 0.83680 0.06980 0.14600
C 	C 	0.67680 0.78130 0.07320 -0.15100
C 	C 	0.67220 0.75110 0.07780 0.43500
C 	C 	0.68960 0.12260 0.06040 0.43700
C 	C 	0.67958 0.14500 0.07042 -0.24600
C 	C 	0.18020 0.41320 0.68020 0.14700
C 	C 	0.17680 0.46870 0.67680 -0.15100
C 	C 	0.17220 0.49890 0.67220 0.43500
C 	C 	0.18960 0.12740 0.68960 0.43700
C 	C 	0.17958 0.10500 0.67958 -0.24600
C 	C 	0.18020 0.91320 0.18020 0.14700
C 	C 	0.17680 0.96870 0.17680 -0.15100
C 	C 	0.17220 0.99890 0.17220 0.43800
C 	C 	0.18960 0.62740 0.18960 0.43700
C 	C 	0.17958 0.60500 0.17958 -0.24600
C 	C 	0.06980 0.06980 0.91320 0.14700
C 	C 	0.07320 0.07320 0.96870 -0.15100
C 	C 	0.07780 0.07780 0.99890 0.43800
C 	C 	0.06040 0.06040 0.62740 0.43700
C 	C 	0.07042 0.07042 0.60500 -0.24700
C 	C 	0.06980 0.56980 0.41320 0.14600
C 	C 	0.07320 0.57320 0.46870 -0.15100
C 	C 	0.07780 0.57780 0.49890 0.43500
C 	C 	0.06040 0.56040 0.12740 0.43700
C 	C 	0.07042 0.57042 0.10500 -0.24600
C 	C 	0.56980 0.06980 0.41320 0.14600
C 	C 	0.57320 0.07320 0.46870 -0.15100
C 	C 	0.57780 0.07780 0.49890 0.43500
C 	C 	0.56040 0.06040 0.12740 0.43700
C 	C 	0.57042 0.07042 0.10500 -0.24600
C 	C 	0.56980 0.56980 0.91320 0.14700
C 	C 	0.57320 0.57320 0.96870 -0.15100
C 	C 	0.57780 0.57780 0.99890 0.43800
C 	C 	0.56040 0.56040 0.62740 0.43700
C 	C 	0.57042 0.57042 0.60500 -0.24600
C 	C 	0.18020 0.56980 0.83680 0.14700
C 	C 	0.17680 0.57320 0.78130 -0.15100
C 	C 	0.17220 0.57780 0.75110 0.43500
C 	C 	0.18960 0.56040 0.12260 0.43700
C 	C 	0.17958 0.57042 0.14500 -0.24600
C 	C 	0.18020 0.06980 0.33680 0.14600
C 	C 	0.17680 0.07320 0.28130 -0.15100
C 	C 	0.17220 0.07780 0.25110 0.43500
C 	C 	0.18960 0.06040 0.62260 0.43700
C 	C 	0.17958 0.07042 0.64500 -0.24600
C 	C 	0.56980 0.68020 0.33680 0.14700
C 	C 	0.57320 0.67680 0.28130 -0.15100
C 	C 	0.57780 0.67220 0.25110 0.43500
C 	C 	0.56040 0.68960 0.62260 0.43700
C 	C 	0.57042 0.67958 0.64500 -0.24600
C 	C 	0.06980 0.68020 0.83680 0.14600
C 	C 	0.07320 0.67680 0.78130 -0.15100
C 	C 	0.07780 0.67220 0.75110 0.43500
C 	C 	0.06040 0.68960 0.12260 0.43700
C 	C 	0.07042 0.67958 0.14500 -0.24600
C 	C 	0.68020 0.18020 0.41320 0.14700
C 	C 	0.67680 0.17680 0.46870 -0.15100
C 	C 	0.67220 0.17220 0.49890 0.43500
C 	C 	0.68960 0.18960 0.12740 0.43700
C 	C 	0.67958 0.17958 0.10500 -0.24600
C 	C 	0.68020 0.68020 0.91320 0.14700
C 	C 	0.67680 0.67680 0.96870 -0.15100
C 	C 	0.67220 0.67220 0.99890 0.43800
C 	C 	0.68960 0.68960 0.62740 0.43700
C 	C 	0.67958 0.67958 0.60500 -0.24600
C 	C 	0.18020 0.18020 0.91320 0.14700
C 	C 	0.17680 0.17680 0.96870 -0.15100
C 	C 	0.17220 0.17220 0.99890 0.43800
C 	C 	0.18960 0.18960 0.62740 0.43700
C 	C 	0.17958 0.17958 0.60500 -0.24600
C 	C 	0.81980 0.16320 0.43020 0.14700
C 	C 	0.82320 0.21870 0.42680 -0.15100
C 	C 	0.82780 0.24890 0.42220 0.43500
C 	C 	0.81040 0.87740 0.43960 0.43700
C 	C 	0.82042 0.85500 0.42958 -0.24600
C 	C 	0.81980 0.66320 0.93020 0.14700
C 	C 	0.82320 0.71870 0.92680 -0.15100
C 	C 	0.82780 0.74890 0.92220 0.43500
C 	C 	0.81040 0.37740 0.93960 0.43700
C 	C 	0.82042 0.35500 0.92958 -0.24600
C 	C 	0.93020 0.08680 0.93020 0.14700
C 	C 	0.92680 0.03130 0.92680 -0.15000
C 	C 	0.92220 0.00110 0.92220 0.43200
C 	C 	0.93960 0.37260 0.93960 0.43700
C 	C 	0.92958 0.39500 0.92958 -0.24600
C 	C 	0.93020 0.58680 0.43020 0.14700
C 	C 	0.92680 0.53130 0.42680 -0.15100
C 	C 	0.92220 0.50110 0.42220 0.43500
C 	C 	0.93960 0.87260 0.43960 0.43700
C 	C 	0.92958 0.89500 0.42958 -0.24600
C 	C 	0.43020 0.08680 0.43020 0.14600
C 	C 	0.42680 0.03130 0.42680 -0.15000
C 	C 	0.42220 0.00110 0.42220 0.43300
C 	C 	0.43960 0.37260 0.43960 0.43700
C 	C 	0.42958 0.39500 0.42958 -0.24600
C 	C 	0.43020 0.58680 0.93020 0.14700
C 	C 	0.42680 0.53130 0.92680 -0.15100
C 	C 	0.42220 0.50110 0.92220 0.43500
C 	C 	0.43960 0.87260 0.93960 0.43700
C 	C 	0.42958 0.89500 0.92958 -0.24600
C 	C 	0.31980 0.58680 0.81980 0.14700
C 	C 	0.32320 0.53130 0.82320 -0.15100
C 	C 	0.32780 0.50110 0.82780 0.43500
C 	C 	0.31040 0.87260 0.81040 0.43700
C 	C 	0.32042 0.89500 0.82042 -0.24600
C 	C 	0.31980 0.08680 0.31980 0.14600
C 	C 	0.32320 0.03130 0.32320 -0.15000
C 	C 	0.32780 0.00110 0.32780 0.43300
C 	C 	0.31040 0.37260 0.31040 0.43700
C 	C 	0.32042 0.39500 0.32042 -0.24600
C 	C 	0.43020 0.66320 0.31980 0.14700
C 	C 	0.42680 0.71870 0.32320 -0.15100
C 	C 	0.42220 0.74890 0.32780 0.43500
C 	C 	0.43960 0.37740 0.31040 0.43700
C 	C 	0.42958 0.35500 0.32042 -0.24600
C 	C 	0.93020 0.66320 0.81980 0.14700
C 	C 	0.92680 0.71870 0.82320 -0.15100
C 	C 	0.92220 0.74890 0.82780 0.43500
C 	C 	0.93960 0.37740 0.81040 0.43700
C 	C 	0.92958 0.35500 0.82042 -0.24600
C 	C 	0.66320 0.31980 0.43020 0.14700
C 	C 	0.71870 0.32320 0.42680 -0.15100
C 	C 	0.74890 0.32780 0.42220 0.43500
C 	C 	0.37740 0.31040 0.43960 0.43700
C 	C 	0.35500 0.32042 0.42958 -0.24600
C 	C 	0.66320 0.81980 0.93020 0.14700
C 	C 	0.71870 0.82320 0.92680 -0.15100
C 	C 	0.74890 0.82780 0.92220 0.43500
C 	C 	0.37740 0.81040 0.93960 0.43700
C 	C 	0.35500 0.82042 0.92958 -0.24600
C 	C 	0.58680 0.81980 0.31980 0.14700
C 	C 	0.53130 0.82320 0.32320 -0.15100
C 	C 	0.50110 0.82780 0.32780 0.43500
C 	C 	0.87260 0.81040 0.31040 0.43700
C 	C 	0.89500 0.82042 0.32042 -0.24600
C 	C 	0.08680 0.81980 0.81980 0.14600
C 	C 	0.03130 0.82320 0.82320 -0.15000
C 	C 	0.00110 0.82780 0.82780 0.43300
C 	C 	0.37260 0.81040 0.81040 0.43700
C 	C 	0.39500 0.82042 0.82042 -0.24600
C 	C 	0.08680 0.31980 0.31980 0.14600
C 	C 	0.03130 0.32320 0.32320 -0.15000
C 	C 	0.00110 0.32780 0.32780 0.43300
C 	C 	0.37260 0.31040 0.31040 0.43700
C 	C 	0.39500 0.32042 0.32042 -0.24600
C 	C 	0.08680 0.93020 0.93020 0.14700
C 	C 	0.03130 0.92680 0.92680 -0.15000
C 	C 	0.00110 0.92220 0.92220 0.43200
C 	C 	0.37260 0.93960 0.93960 0.43700
C 	C 	0.39500 0.92958 0.92958 -0.24600
C 	C 	0.08680 0.43020 0.43020 0.14600
C 	C 	0.03130 0.42680 0.42680 -0.15000
C 	C 	0.00110 0.42220 0.42220 0.43300
C 	C 	0.37260 0.43960 0.43960 0.43700
C 	C 	0.39500 0.42958 0.42958 -0.24600
C 	C 	0.58680 0.93020 0.43020 0.14700
C 	C 	0.53130 0.92680 0.42680 -0.15100
C 	C 	0.50110 0.92220 0.42220 0.43500
C 	C 	0.87260 0.93960 0.43960 0.43700
C 	C 	0.89500 0.92958 0.42958 -0.24600
C 	C 	0.58680 0.43020 0.93020 0.14700
C 	C 	0.53130 0.42680 0.92680 -0.15100
C 	C 	0.50110 0.42220 0.92220 0.43500
C 	C 	0.87260 0.43960 0.93960 0.43700
C 	C 	0.89500 0.42958 0.92958 -0.24600
C 	C 	0.16320 0.43020 0.81980 0.14700
C 	C 	0.21870 0.42680 0.82320 -0.15100
C 	C 	0.24890 0.42220 0.82780 0.43500
C 	C 	0.87740 0.43960 0.81040 0.43700
C 	C 	0.85500 0.42958 0.82042 -0.24600
C 	C 	0.16320 0.93020 0.31980 0.14700
C 	C 	0.21870 0.92680 0.32320 -0.15100
C 	C 	0.24890 0.92220 0.32780 0.43500
C 	C 	0.87740 0.93960 0.31040 0.43700
C 	C 	0.85500 0.92958 0.32042 -0.24600
C 	C 	0.81980 0.31980 0.58680 0.14700
C 	C 	0.82320 0.32320 0.53130 -0.15100
C 	C 	0.82780 0.32780 0.50110 0.43500
C 	C 	0.81040 0.31040 0.87260 0.43700
C 	C 	0.82042 0.32042 0.89500 -0.24600
C 	C 	0.81980 0.81980 0.08680 0.14600
C 	C 	0.82320 0.82320 0.03130 -0.15000
C 	C 	0.82780 0.82780 0.00110 0.43300
C 	C 	0.81040 0.81040 0.37260 0.43700
C 	C 	0.82042 0.82042 0.39500 -0.24600
C 	C 	0.31980 0.31980 0.08680 0.14600
C 	C 	0.32320 0.32320 0.03130 -0.15000
C 	C 	0.32780 0.32780 0.00110 0.43300
C 	C 	0.31040 0.31040 0.37260 0.43700
C 	C 	0.32042 0.32042 0.39500 -0.24600
C 	C 	0.31980 0.43020 0.66320 0.14700
C 	C 	0.32320 0.42680 0.71870 -0.15100
C 	C 	0.32780 0.42220 0.74890 0.43500
C 	C 	0.31040 0.43960 0.37740 0.43700
C 	C 	0.32042 0.42958 0.35500 -0.24600
C 	C 	0.31980 0.93020 0.16320 0.14700
C 	C 	0.32320 0.92680 0.21870 -0.15100
C 	C 	0.32780 0.92220 0.24890 0.43500
C 	C 	0.31040 0.93960 0.87740 0.43700
C 	C 	0.32042 0.92958 0.85500 -0.24600
C 	C 	0.43020 0.81980 0.16320 0.14700
C 	C 	0.42680 0.82320 0.21870 -0.15100
C 	C 	0.42220 0.82780 0.24890 0.43500
C 	C 	0.43960 0.81040 0.87740 0.43700
C 	C 	0.42958 0.82042 0.85500 -0.24600
C 	C 	0.93020 0.81980 0.66320 0.14700
C 	C 	0.92680 0.82320 0.71870 -0.15100
C 	C 	0.92220 0.82780 0.74890 0.43500
C 	C 	0.93960 0.81040 0.37740 0.43700
C 	C 	0.92958 0.82042 0.35500 -0.24600
C 	C 	0.93020 0.93020 0.08680 0.14700
C 	C 	0.92680 0.92680 0.03130 -0.15000
C 	C 	0.92220 0.92220 0.00110 0.43200
C 	C 	0.93960 0.93960 0.37260 0.43700
C 	C 	0.92958 0.92958 0.39500 -0.24600
C 	C 	0.93020 0.43020 0.58680 0.14700
C 	C 	0.92680 0.42680 0.53130 -0.15100
C 	C 	0.92220 0.42220 0.50110 0.43500
C 	C 	0.93960 0.43960 0.87260 0.43700
C 	C 	0.92958 0.42958 0.89500 -0.24600
C 	C 	0.43020 0.93020 0.58680 0.14700
C 	C 	0.42680 0.92680 0.53130 -0.15100
C 	C 	0.42220 0.92220 0.50110 0.43500
C 	C 	0.43960 0.93960 0.87260 0.43700
C 	C 	0.42958 0.92958 0.89500 -0.24600
C 	C 	0.43020 0.43020 0.08680 0.14600
C 	C 	0.42680 0.42680 0.03130 -0.15000
C 	C 	0.42220 0.42220 0.00110 0.43300
C 	C 	0.43960 0.43960 0.37260 0.43700
C 	C 	0.42958 0.42958 0.39500 -0.24600
C 	C 	0.16320 0.81980 0.43020 0.14700
C 	C 	0.21870 0.82320 0.42680 -0.15100
C 	C 	0.24890 0.82780 0.42220 0.43500
C 	C 	0.87740 0.81040 0.43960 0.43700
C 	C 	0.85500 0.82042 0.42958 -0.24600
C 	C 	0.16320 0.31980 0.93020 0.14700
C 	C 	0.21870 0.32320 0.92680 -0.15100
C 	C 	0.24890 0.32780 0.92220 0.43500
C 	C 	0.87740 0.31040 0.93960 0.43700
C 	C 	0.85500 0.32042 0.92958 -0.24600
C 	C 	0.66320 0.43020 0.31980 0.14700
C 	C 	0.71870 0.42680 0.32320 -0.15100
C 	C 	0.74890 0.42220 0.32780 0.43500
C 	C 	0.37740 0.43960 0.31040 0.43700
C 	C 	0.35500 0.42958 0.32042 -0.24600
C 	C 	0.66320 0.93020 0.81980 0.14700
C 	C 	0.71870 0.92680 0.82320 -0.15100
C 	C 	0.74890 0.92220 0.82780 0.43500
C 	C 	0.37740 0.93960 0.81040 0.43700
C 	C 	0.35500 0.92958 0.82042 -0.24600
C 	C 	0.58680 0.31980 0.81980 0.14700
C 	C 	0.53130 0.32320 0.82320 -0.15100
C 	C 	0.50110 0.32780 0.82780 0.43500
C 	C 	0.87260 0.31040 0.81040 0.43700
C 	C 	0.89500 0.32042 0.82042 -0.24600
C 	C 	0.43020 0.16320 0.81980 0.14700
C 	C 	0.42680 0.21870 0.82320 -0.15100
C 	C 	0.42220 0.24890 0.82780 0.43500
C 	C 	0.43960 0.87740 0.81040 0.43700
C 	C 	0.42958 0.85500 0.82042 -0.24600
C 	C 	0.93020 0.16320 0.31980 0.14700
C 	C 	0.92680 0.21870 0.32320 -0.15100
C 	C 	0.92220 0.24890 0.32780 0.43500
C 	C 	0.93960 0.87740 0.31040 0.43700
C 	C 	0.92958 0.85500 0.32042 -0.24600
C 	C 	0.31980 0.66320 0.43020 0.14700
C 	C 	0.32320 0.71870 0.42680 -0.15100
C 	C 	0.32780 0.74890 0.42220 0.43500
C 	C 	0.31040 0.37740 0.43960 0.43700
C 	C 	0.32042 0.35500 0.42958 -0.24600
C 	C 	0.31980 0.16320 0.93020 0.14700
C 	C 	0.32320 0.21870 0.92680 -0.15100
C 	C 	0.32780 0.24890 0.92220 0.43500
C 	C 	0.31040 0.87740 0.93960 0.43700
C 	C 	0.32042 0.85500 0.92958 -0.24600
C 	C 	0.81980 0.58680 0.31980 0.14700
C 	C 	0.82320 0.53130 0.32320 -0.15100
C 	C 	0.82780 0.50110 0.32780 0.43500
C 	C 	0.81040 0.87260 0.31040 0.43700
C 	C 	0.82042 0.89500 0.32042 -0.24600
C 	C 	0.81980 0.08680 0.81980 0.14600
C 	C 	0.82320 0.03130 0.82320 -0.15000
C 	C 	0.82780 0.00110 0.82780 0.43300
C 	C 	0.81040 0.37260 0.81040 0.43700
C 	C 	0.82042 0.39500 0.82042 -0.24600
C 	C 	0.81980 0.43020 0.16320 0.14700
C 	C 	0.82320 0.42680 0.21870 -0.15100
C 	C 	0.82780 0.42220 0.24890 0.43500
C 	C 	0.81040 0.43960 0.87740 0.43700
C 	C 	0.82042 0.42958 0.85500 -0.24600
C 	C 	0.81980 0.93020 0.66320 0.14700
C 	C 	0.82320 0.92680 0.71870 -0.15100
C 	C 	0.82780 0.92220 0.74890 0.43500
C 	C 	0.81040 0.93960 0.37740 0.43700
C 	C 	0.82042 0.92958 0.35500 -0.24600
C 	C 	0.43020 0.31980 0.66320 0.14700
C 	C 	0.42680 0.32320 0.71870 -0.15100
C 	C 	0.42220 0.32780 0.74890 0.43500
C 	C 	0.43960 0.31040 0.37740 0.43700
C 	C 	0.42958 0.32042 0.35500 -0.24600
C 	C 	0.93020 0.31980 0.16320 0.14700
C 	C 	0.92680 0.32320 0.21870 -0.15100
C 	C 	0.92220 0.32780 0.24890 0.43500
C 	C 	0.93960 0.31040 0.87740 0.43700
C 	C 	0.92958 0.32042 0.85500 -0.24600
C 	C 	0.31980 0.81980 0.58680 0.14700
C 	C 	0.32320 0.82320 0.53130 -0.15100
C 	C 	0.32780 0.82780 0.50110 0.43500
C 	C 	0.31040 0.81040 0.87260 0.43700
C 	C 	0.32042 0.82042 0.89500 -0.24600
C 	C 	0.18020 0.83680 0.56980 0.14700
C 	C 	0.17680 0.78130 0.57320 -0.15100
C 	C 	0.17220 0.75110 0.57780 0.43500
C 	C 	0.18960 0.12260 0.56040 0.43700
C 	C 	0.17958 0.14500 0.57042 -0.24600
C 	C 	0.18020 0.33680 0.06980 0.14600
C 	C 	0.17680 0.28130 0.07320 -0.15100
C 	C 	0.17220 0.25110 0.07780 0.43500
C 	C 	0.18960 0.62260 0.06040 0.43700
C 	C 	0.17958 0.64500 0.07042 -0.24600
C 	C 	0.68020 0.41320 0.18020 0.14700
C 	C 	0.67680 0.46870 0.17680 -0.15100
C 	C 	0.67220 0.49890 0.17220 0.43500
C 	C 	0.68960 0.12740 0.18960 0.43700
C 	C 	0.67958 0.10500 0.17958 -0.24600
C 	C 	0.68020 0.91320 0.68020 0.14700
C 	C 	0.67680 0.96870 0.67680 -0.15100
C 	C 	0.67220 0.99890 0.67220 0.43800
C 	C 	0.68960 0.62740 0.68960 0.43700
C 	C 	0.67958 0.60500 0.67958 -0.24600
C 	C 	0.56980 0.33680 0.68020 0.14700
C 	C 	0.57320 0.28130 0.67680 -0.15100
C 	C 	0.57780 0.25110 0.67220 0.43500
C 	C 	0.56040 0.62260 0.68960 0.43700
C 	C 	0.57042 0.64500 0.67958 -0.24600
C 	C 	0.06980 0.33680 0.18020 0.14600
C 	C 	0.07320 0.28130 0.17680 -0.15100
C 	C 	0.07780 0.25110 0.17220 0.43500
C 	C 	0.06040 0.62260 0.18960 0.43700
C 	C 	0.07042 0.64500 0.17958 -0.24600
C 	C 	0.33680 0.68020 0.56980 0.14700
C 	C 	0.28130 0.67680 0.57320 -0.15100
C 	C 	0.25110 0.67220 0.57780 0.43500
C 	C 	0.62260 0.68960 0.56040 0.43700
C 	C 	0.64500 0.67958 0.57042 -0.24600
C 	C 	0.33680 0.18020 0.06980 0.14600
C 	C 	0.28130 0.17680 0.07320 -0.15100
C 	C 	0.25110 0.17220 0.07780 0.43500
C 	C 	0.62260 0.18960 0.06040 0.43700
C 	C 	0.64500 0.17958 0.07042 -0.24600
C 	C 	0.41320 0.18020 0.68020 0.14700
C 	C 	0.46870 0.17680 0.67680 -0.15100
C 	C 	0.49890 0.17220 0.67220 0.43500
C 	C 	0.12740 0.18960 0.68960 0.43700
C 	C 	0.10500 0.17958 0.67958 -0.24600
C 	C 	0.83680 0.56980 0.18020 0.14700
C 	C 	0.78130 0.57320 0.17680 -0.15100
C 	C 	0.75110 0.57780 0.17220 0.43500
C 	C 	0.12260 0.56040 0.18960 0.43700
C 	C 	0.14500 0.57042 0.17958 -0.24600
C 	C 	0.83680 0.06980 0.68020 0.14600
C 	C 	0.78130 0.07320 0.67680 -0.15100
C 	C 	0.75110 0.07780 0.67220 0.43500
C 	C 	0.12260 0.06040 0.68960 0.43700
C 	C 	0.14500 0.07042 0.67958 -0.24600
C 	C 	0.18020 0.68020 0.41320 0.14700
C 	C 	0.17680 0.67680 0.46870 -0.15100
C 	C 	0.17220 0.67220 0.49890 0.43500
C 	C 	0.18960 0.68960 0.12740 0.43700
C 	C 	0.17958 0.67958 0.10500 -0.24600
C 	C 	0.68020 0.56980 0.33680 0.14700
C 	C 	0.67680 0.57320 0.28130 -0.15100
C 	C 	0.67220 0.57780 0.25110 0.43500
C 	C 	0.68960 0.56040 0.62260 0.43700
C 	C 	0.67958 0.57042 0.64500 -0.24600
C 	C 	0.68020 0.06980 0.83680 0.14600
C 	C 	0.67680 0.07320 0.78130 -0.15100
C 	C 	0.67220 0.07780 0.75110 0.43500
C 	C 	0.68960 0.06040 0.12260 0.43700
C 	C 	0.67958 0.07042 0.14500 -0.24600
C 	C 	0.56980 0.18020 0.83680 0.14700
C 	C 	0.57320 0.17680 0.78130 -0.15100
C 	C 	0.57780 0.17220 0.75110 0.43500
C 	C 	0.56040 0.18960 0.12260 0.43700
C 	C 	0.57042 0.17958 0.14500 -0.24600
C 	C 	0.06980 0.18020 0.33680 0.14600
C 	C 	0.07320 0.17680 0.28130 -0.15100
C 	C 	0.07780 0.17220 0.25110 0.43500
C 	C 	0.06040 0.18960 0.62260 0.43700
C 	C 	0.07042 0.17958 0.64500 -0.24600
C 	C 	0.79270 0.11760 0.95730 0.11800
C 	C 	0.75720 0.09340 0.99280 -0.15900
C 	C 	0.73810 0.08240 0.01190 0.42400
C 	C 	0.29270 0.11760 0.45730 0.11800
C 	C 	0.25720 0.09340 0.49280 -0.16200
C 	C 	0.23810 0.08240 0.51190 0.42600
C 	C 	0.95730 0.13240 0.45730 0.11800
C 	C 	0.99280 0.15660 0.49280 -0.15900
C 	C 	0.01190 0.16760 0.51190 0.42400
C 	C 	0.95730 0.63240 0.95730 0.11700
C 	C 	0.99280 0.65660 0.99280 -0.15600
C 	C 	0.01190 0.66760 0.01190 0.42200
C 	C 	0.45730 0.61760 0.79270 0.11800
C 	C 	0.49280 0.59340 0.75720 -0.16200
C 	C 	0.51190 0.58240 0.73810 0.42600
C 	C 	0.45730 0.11760 0.29270 0.11800
C 	C 	0.49280 0.09340 0.25720 -0.16200
C 	C 	0.51190 0.08240 0.23810 0.42600
C 	C 	0.29270 0.63240 0.29270 0.11800
C 	C 	0.25720 0.65660 0.25720 -0.16200
C 	C 	0.23810 0.66760 0.23810 0.42600
C 	C 	0.29270 0.13240 0.79270 0.11800
C 	C 	0.25720 0.15660 0.75720 -0.16200
C 	C 	0.23810 0.16760 0.73810 0.42600
C 	C 	0.79270 0.63240 0.79270 0.11800
C 	C 	0.75720 0.65660 0.75720 -0.16200
C 	C 	0.73810 0.66760 0.73810 0.42600
C 	C 	0.79270 0.13240 0.29270 0.11800
C 	C 	0.75720 0.15660 0.25720 -0.16200
C 	C 	0.73810 0.16760 0.23810 0.42600
C 	C 	0.95730 0.79270 0.11760 0.11800
C 	C 	0.99280 0.75720 0.09340 -0.15900
C 	C 	0.01190 0.73810 0.08240 0.42400
C 	C 	0.95730 0.29270 0.61760 0.11800
C 	C 	0.99280 0.25720 0.59340 -0.15900
C 	C 	0.01190 0.23810 0.58240 0.42400
C 	C 	0.45730 0.95730 0.13240 0.11800
C 	C 	0.49280 0.99280 0.15660 -0.15900
C 	C 	0.51190 0.01190 0.16760 0.42400
C 	C 	0.45730 0.45730 0.63240 0.11800
C 	C 	0.49280 0.49280 0.65660 -0.16200
C 	C 	0.51190 0.51190 0.66760 0.42600
C 	C 	0.95730 0.95730 0.63240 0.11700
C 	C 	0.99280 0.99280 0.65660 -0.15600
C 	C 	0.01190 0.01190 0.66760 0.42200
C 	C 	0.79270 0.45730 0.61760 0.11800
C 	C 	0.75720 0.49280 0.59340 -0.16200
C 	C 	0.73810 0.51190 0.58240 0.42600
C 	C 	0.29270 0.45730 0.11760 0.11800
C 	C 	0.25720 0.49280 0.09340 -0.16200
C 	C 	0.23810 0.51190 0.08240 0.42600
C 	C 	0.29270 0.29270 0.63240 0.11800
C 	C 	0.25720 0.25720 0.65660 -0.16200
C 	C 	0.23810 0.23810 0.66760 0.42600
C 	C 	0.29270 0.79270 0.13240 0.11800
C 	C 	0.25720 0.75720 0.15660 -0.16200
C 	C 	0.23810 0.73810 0.16760 0.42600
C 	C 	0.79270 0.29270 0.13240 0.11800
C 	C 	0.75720 0.25720 0.15660 -0.16200
C 	C 	0.73810 0.23810 0.16760 0.42600
C 	C 	0.79270 0.79270 0.63240 0.11800
C 	C 	0.75720 0.75720 0.65660 -0.16200
C 	C 	0.73810 0.73810 0.66760 0.42600
C 	C 	0.11760 0.95730 0.79270 0.11800
C 	C 	0.09340 0.99280 0.75720 -0.15900
C 	C 	0.08240 0.01190 0.73810 0.42400
C 	C 	0.11760 0.45730 0.29270 0.11800
C 	C 	0.09340 0.49280 0.25720 -0.16200
C 	C 	0.08240 0.51190 0.23810 0.42600
C 	C 	0.13240 0.45730 0.95730 0.11800
C 	C 	0.15660 0.49280 0.99280 -0.15900
C 	C 	0.16760 0.51190 0.01190 0.42400
C 	C 	0.63240 0.45730 0.45730 0.11800
C 	C 	0.65660 0.49280 0.49280 -0.16200
C 	C 	0.66760 0.51190 0.51190 0.42600
C 	C 	0.63240 0.95730 0.95730 0.11700
C 	C 	0.65660 0.99280 0.99280 -0.15600
C 	C 	0.66760 0.01190 0.01190 0.42200
C 	C 	0.61760 0.79270 0.45730 0.11800
C 	C 	0.59340 0.75720 0.49280 -0.16200
C 	C 	0.58240 0.73810 0.51190 0.42600
C 	C 	0.61760 0.29270 0.95730 0.11800
C 	C 	0.59340 0.25720 0.99280 -0.15900
C 	C 	0.58240 0.23810 0.01190 0.42400
C 	C 	0.63240 0.29270 0.29270 0.11800
C 	C 	0.65660 0.25720 0.25720 -0.16200
C 	C 	0.66760 0.23810 0.23810 0.42600
C 	C 	0.63240 0.79270 0.79270 0.11800
C 	C 	0.65660 0.75720 0.75720 -0.16200
C 	C 	0.66760 0.73810 0.73810 0.42600
C 	C 	0.13240 0.29270 0.79270 0.11800
C 	C 	0.15660 0.25720 0.75720 -0.16200
C 	C 	0.16760 0.23810 0.73810 0.42600
C 	C 	0.13240 0.79270 0.29270 0.11800
C 	C 	0.15660 0.75720 0.25720 -0.16200
C 	C 	0.16760 0.73810 0.23810 0.42600
C 	C 	0.86760 0.04270 0.54270 0.11900
C 	C 	0.84340 0.00720 0.50720 -0.16500
C 	C 	0.83240 0.98810 0.48810 0.42700
C 	C 	0.36760 0.04270 0.04270 0.11900
C 	C 	0.34340 0.00720 0.00720 -0.16800
C 	C 	0.33240 0.98810 0.98810 0.42900
C 	C 	0.36760 0.54270 0.54270 0.11800
C 	C 	0.34340 0.50720 0.50720 -0.16200
C 	C 	0.33240 0.48810 0.48810 0.42600
C 	C 	0.88240 0.20730 0.04270 0.11900
C 	C 	0.90660 0.24280 0.00720 -0.16500
C 	C 	0.91760 0.26190 0.98810 0.42700
C 	C 	0.88240 0.70730 0.54270 0.11800
C 	C 	0.90660 0.74280 0.50720 -0.16200
C 	C 	0.91760 0.76190 0.48810 0.42600
C 	C 	0.38240 0.20730 0.54270 0.11800
C 	C 	0.40660 0.24280 0.50720 -0.16200
C 	C 	0.41760 0.26190 0.48810 0.42600
C 	C 	0.36760 0.70730 0.70730 0.11800
C 	C 	0.34340 0.74280 0.74280 -0.16200
C 	C 	0.33240 0.76190 0.76190 0.42600
C 	C 	0.36760 0.20730 0.20730 0.11800
C 	C 	0.34340 0.24280 0.24280 -0.16200
C 	C 	0.33240 0.26190 0.26190 0.42600
C 	C 	0.86760 0.70730 0.20730 0.11800
C 	C 	0.84340 0.74280 0.24280 -0.16200
C 	C 	0.83240 0.76190 0.26190 0.42600
C 	C 	0.86760 0.20730 0.70730 0.11800
C 	C 	0.84340 0.24280 0.74280 -0.16200
C 	C 	0.83240 0.26190 0.76190 0.42600
C 	C 	0.38240 0.54270 0.20730 0.11800
C 	C 	0.40660 0.50720 0.24280 -0.16200
C 	C 	0.41760 0.48810 0.26190 0.42600
C 	C 	0.38240 0.04270 0.70730 0.11900
C 	C 	0.40660 0.00720 0.74280 -0.16500
C 	C 	0.41760 0.98810 0.76190 0.42700
C 	C 	0.54270 0.20730 0.38240 0.11800
C 	C 	0.50720 0.24280 0.40660 -0.16200
C 	C 	0.48810 0.26190 0.41760 0.42600
C 	C 	0.54270 0.70730 0.88240 0.11800
C 	C 	0.50720 0.74280 0.90660 -0.16200
C 	C 	0.48810 0.76190 0.91760 0.42600
C 	C 	0.70730 0.70730 0.36760 0.11800
C 	C 	0.74280 0.74280 0.34340 -0.16200
C 	C 	0.76190 0.76190 0.33240 0.42600
C 	C 	0.70730 0.20730 0.86760 0.11800
C 	C 	0.74280 0.24280 0.84340 -0.16200
C 	C 	0.76190 0.26190 0.83240 0.42600
C 	C 	0.20730 0.70730 0.86760 0.11800
C 	C 	0.24280 0.74280 0.84340 -0.16200
C 	C 	0.26190 0.76190 0.83240 0.42600
C 	C 	0.20730 0.20730 0.36760 0.11800
C 	C 	0.24280 0.24280 0.34340 -0.16200
C 	C 	0.26190 0.26190 0.33240 0.42600
C 	C 	0.20730 0.04270 0.88240 0.11900
C 	C 	0.24280 0.00720 0.90660 -0.16500
C 	C 	0.26190 0.98810 0.91760 0.42700
C 	C 	0.20730 0.54270 0.38240 0.11800
C 	C 	0.24280 0.50720 0.40660 -0.16200
C 	C 	0.26190 0.48810 0.41760 0.42600
C 	C 	0.70730 0.04270 0.38240 0.11900
C 	C 	0.74280 0.00720 0.40660 -0.16500
C 	C 	0.76190 0.98810 0.41760 0.42700
C 	C 	0.04270 0.54270 0.86760 0.11900
C 	C 	0.00720 0.50720 0.84340 -0.16500
C 	C 	0.98810 0.48810 0.83240 0.42700
C 	C 	0.04270 0.04270 0.36760 0.11900
C 	C 	0.00720 0.00720 0.34340 -0.16800
C 	C 	0.98810 0.98810 0.33240 0.42900
C 	C 	0.54270 0.54270 0.36760 0.11800
C 	C 	0.50720 0.50720 0.34340 -0.16200
C 	C 	0.48810 0.48810 0.33240 0.42600
C 	C 	0.70730 0.36760 0.70730 0.11800
C 	C 	0.74280 0.34340 0.74280 -0.16200
C 	C 	0.76190 0.33240 0.76190 0.42600
C 	C 	0.70730 0.86760 0.20730 0.11800
C 	C 	0.74280 0.84340 0.24280 -0.16200
C 	C 	0.76190 0.83240 0.26190 0.42600
C 	C 	0.20730 0.36760 0.20730 0.11800
C 	C 	0.24280 0.34340 0.24280 -0.16200
C 	C 	0.26190 0.33240 0.26190 0.42600
C 	C 	0.20730 0.86760 0.70730 0.11800
C 	C 	0.24280 0.84340 0.74280 -0.16200
C 	C 	0.26190 0.83240 0.76190 0.42600
C 	C 	0.20730 0.38240 0.54270 0.11800
C 	C 	0.24280 0.40660 0.50720 -0.16200
C 	C 	0.26190 0.41760 0.48810 0.42600
C 	C 	0.70730 0.38240 0.04270 0.11900
C 	C 	0.74280 0.40660 0.00720 -0.16500
C 	C 	0.76190 0.41760 0.98810 0.42700
C 	C 	0.54270 0.86760 0.04270 0.11900
C 	C 	0.50720 0.84340 0.00720 -0.16500
C 	C 	0.48810 0.83240 0.98810 0.42700
C 	C 	0.54270 0.36760 0.54270 0.11800
C 	C 	0.50720 0.34340 0.50720 -0.16200
C 	C 	0.48810 0.33240 0.48810 0.42600
C 	C 	0.04270 0.88240 0.20730 0.11900
C 	C 	0.00720 0.90660 0.24280 -0.16500
C 	C 	0.98810 0.91760 0.26190 0.42700
C 	C 	0.04270 0.38240 0.70730 0.11900
C 	C 	0.00720 0.40660 0.74280 -0.16500
C 	C 	0.98810 0.41760 0.76190 0.42700
C 	C 	0.54270 0.38240 0.20730 0.11800
C 	C 	0.50720 0.40660 0.24280 -0.16200
C 	C 	0.48810 0.41760 0.26190 0.42600
C 	C 	0.20730 0.88240 0.04270 0.11900
C 	C 	0.24280 0.90660 0.00720 -0.16500
C 	C 	0.26190 0.91760 0.98810 0.42700
C 	C 	0.70730 0.88240 0.54270 0.11800
C 	C 	0.74280 0.90660 0.50720 -0.16200
C 	C 	0.76190 0.91760 0.48810 0.42600
C 	C 	0.04270 0.86760 0.54270 0.11900
C 	C 	0.00720 0.84340 0.50720 -0.16500
C 	C 	0.98810 0.83240 0.48810 0.42700
C 	C 	0.04270 0.36760 0.04270 0.11900
C 	C 	0.00720 0.34340 0.00720 -0.16800
C 	C 	0.98810 0.33240 0.98810 0.42900
C 	C 	0.54270 0.88240 0.70730 0.11800
C 	C 	0.50720 0.90660 0.74280 -0.16200
C 	C 	0.48810 0.91760 0.76190 0.42600
C 	C 	0.04270 0.20730 0.88240 0.11900
C 	C 	0.00720 0.24280 0.90660 -0.16500
C 	C 	0.98810 0.26190 0.91760 0.42700
C 	C 	0.04270 0.70730 0.38240 0.11900
C 	C 	0.00720 0.74280 0.40660 -0.16500
C 	C 	0.98810 0.76190 0.41760 0.42700
C 	C 	0.54270 0.04270 0.86760 0.11900
C 	C 	0.50720 0.00720 0.84340 -0.16500
C 	C 	0.48810 0.98810 0.83240 0.42700
C 	C 	0.70730 0.54270 0.88240 0.11800
C 	C 	0.74280 0.50720 0.90660 -0.16200
C 	C 	0.76190 0.48810 0.91760 0.42600
C 	C 	0.88240 0.04270 0.20730 0.11900
C 	C 	0.90660 0.00720 0.24280 -0.16500
C 	C 	0.91760 0.98810 0.26190 0.42700
C 	C 	0.88240 0.54270 0.70730 0.11800
C 	C 	0.90660 0.50720 0.74280 -0.16200
C 	C 	0.91760 0.48810 0.76190 0.42600
C 	C 	0.86760 0.54270 0.04270 0.11900
C 	C 	0.84340 0.50720 0.00720 -0.16500
C 	C 	0.83240 0.48810 0.98810 0.42700
C 	C 	0.38240 0.70730 0.04270 0.11900
C 	C 	0.40660 0.74280 0.00720 -0.16500
C 	C 	0.41760 0.76190 0.98810 0.42700
C 	C 	0.13240 0.95730 0.45730 0.11800
C 	C 	0.15660 0.99280 0.49280 -0.15900
C 	C 	0.16760 0.01190 0.51190 0.42400
C 	C 	0.11760 0.79270 0.95730 0.11800
C 	C 	0.09340 0.75720 0.99280 -0.15900
C 	C 	0.08240 0.73810 0.01190 0.42400
C 	C 	0.11760 0.29270 0.45730 0.11800
C 	C 	0.09340 0.25720 0.49280 -0.16200
C 	C 	0.08240 0.23810 0.51190 0.42600
C 	C 	0.61760 0.45730 0.79270 0.11800
C 	C 	0.59340 0.49280 0.75720 -0.16200
C 	C 	0.58240 0.51190 0.73810 0.42600
C 	C 	0.61760 0.95730 0.29270 0.11800
C 	C 	0.59340 0.99280 0.25720 -0.15900
C 	C 	0.58240 0.01190 0.23810 0.42400
C 	C 	0.45730 0.79270 0.61760 0.11800
C 	C 	0.49280 0.75720 0.59340 -0.16200
C 	C 	0.51190 0.73810 0.58240 0.42600
C 	C 	0.45730 0.29270 0.11760 0.11800
C 	C 	0.49280 0.25720 0.09340 -0.16200
C 	C 	0.51190 0.23810 0.08240 0.42600
C 	C 	0.79270 0.95730 0.11760 0.11800
C 	C 	0.75720 0.99280 0.09340 -0.15900
C 	C 	0.73810 0.01190 0.08240 0.42400
C 	C 	0.29270 0.95730 0.61760 0.11800
C 	C 	0.25720 0.99280 0.59340 -0.15900
C 	C 	0.23810 0.01190 0.58240 0.42400
C 	C 	0.95730 0.45730 0.13240 0.11800
C 	C 	0.99280 0.49280 0.15660 -0.15900
C 	C 	0.01190 0.51190 0.16760 0.42400
C 	C 	0.79270 0.61760 0.45730 0.11800
C 	C 	0.75720 0.59340 0.49280 -0.16200
C 	C 	0.73810 0.58240 0.51190 0.42600
C 	C 	0.29270 0.61760 0.95730 0.11800
C 	C 	0.25720 0.59340 0.99280 -0.15900
C 	C 	0.23810 0.58240 0.01190 0.42400
C 	C 	0.45730 0.13240 0.95730 0.11800
C 	C 	0.49280 0.15660 0.99280 -0.15900
C 	C 	0.51190 0.16760 0.01190 0.42400
C 	C 	0.45730 0.63240 0.45730 0.11800
C 	C 	0.49280 0.65660 0.49280 -0.16200
C 	C 	0.51190 0.66760 0.51190 0.42600
C 	C 	0.95730 0.11760 0.79270 0.11800
C 	C 	0.99280 0.09340 0.75720 -0.15900
C 	C 	0.01190 0.08240 0.73810 0.42400
C 	C 	0.95730 0.61760 0.29270 0.11800
C 	C 	0.99280 0.59340 0.25720 -0.15900
C 	C 	0.01190 0.58240 0.23810 0.42400
C 	C 	0.59329 0.09329 0.05990 0.16700
C 	C 	0.59329 0.59329 0.55990 0.16700
C 	C 	0.15671 0.15671 0.55990 0.16700
C 	C 	0.15671 0.65671 0.05990 0.16700
C 	C 	0.65671 0.15671 0.05990 0.16700
C 	C 	0.65671 0.65671 0.55990 0.16700
C 	C 	0.65671 0.59329 0.69010 0.16700
C 	C 	0.15671 0.59329 0.19010 0.16700
C 	C 	0.09329 0.65671 0.19010 0.16700
C 	C 	0.09329 0.15671 0.69010 0.16700
C 	C 	0.05990 0.59329 0.09329 0.16700
C 	C 	0.55990 0.59329 0.59329 0.16700
C 	C 	0.55990 0.15671 0.15671 0.16700
C 	C 	0.55990 0.65671 0.65671 0.16700
C 	C 	0.05990 0.15671 0.65671 0.16700
C 	C 	0.05990 0.65671 0.15671 0.16700
C 	C 	0.69010 0.65671 0.59329 0.16700
C 	C 	0.69010 0.15671 0.09329 0.16700
C 	C 	0.19010 0.09329 0.65671 0.16700
C 	C 	0.19010 0.59329 0.15671 0.16700
C 	C 	0.09329 0.05990 0.59329 0.16700
C 	C 	0.09329 0.55990 0.09329 0.16700
C 	C 	0.15671 0.55990 0.15671 0.16700
C 	C 	0.15671 0.05990 0.65671 0.16700
C 	C 	0.65671 0.55990 0.65671 0.16700
C 	C 	0.65671 0.05990 0.15671 0.16700
C 	C 	0.59329 0.69010 0.65671 0.16700
C 	C 	0.59329 0.19010 0.15671 0.16700
C 	C 	0.65671 0.19010 0.09329 0.16700
C 	C 	0.15671 0.19010 0.59329 0.16700
C 	C 	0.84329 0.84329 0.44010 0.16700
C 	C 	0.84329 0.34329 0.94010 0.16700
C 	C 	0.34329 0.84329 0.94010 0.16700
C 	C 	0.34329 0.34329 0.44010 0.16700
C 	C 	0.90671 0.40671 0.94010 0.16700
C 	C 	0.90671 0.90671 0.44010 0.16700
C 	C 	0.34329 0.90671 0.80990 0.16700
C 	C 	0.84329 0.90671 0.30990 0.16700
C 	C 	0.40671 0.34329 0.30990 0.16700
C 	C 	0.40671 0.84329 0.80990 0.16700
C 	C 	0.34329 0.30990 0.40671 0.16700
C 	C 	0.84329 0.30990 0.90671 0.16700
C 	C 	0.90671 0.80990 0.34329 0.16700
C 	C 	0.90671 0.30990 0.84329 0.16700
C 	C 	0.40671 0.94010 0.90671 0.16700
C 	C 	0.40671 0.44010 0.40671 0.16700
C 	C 	0.84329 0.44010 0.84329 0.16700
C 	C 	0.84329 0.94010 0.34329 0.16700
C 	C 	0.34329 0.44010 0.34329 0.16700
C 	C 	0.34329 0.94010 0.84329 0.16700
C 	C 	0.80990 0.34329 0.90671 0.16700
C 	C 	0.80990 0.84329 0.40671 0.16700
C 	C 	0.30990 0.40671 0.34329 0.16700
C 	C 	0.30990 0.90671 0.84329 0.16700
C 	C 	0.44010 0.84329 0.84329 0.16700
C 	C 	0.44010 0.34329 0.34329 0.16700
C 	C 	0.94010 0.84329 0.34329 0.16700
C 	C 	0.94010 0.34329 0.84329 0.16700
C 	C 	0.94010 0.90671 0.40671 0.16700
C 	C 	0.44010 0.90671 0.90671 0.16700
C 	C 	0.40671 0.90671 0.94010 0.16700
C 	C 	0.40671 0.40671 0.44010 0.16700
C 	C 	0.34329 0.40671 0.30990 0.16700
C 	C 	0.84329 0.40671 0.80990 0.16700
C 	C 	0.90671 0.34329 0.80990 0.16700
C 	C 	0.90671 0.84329 0.30990 0.16700
C 	C 	0.94010 0.40671 0.90671 0.16700
C 	C 	0.44010 0.40671 0.40671 0.16700
C 	C 	0.30990 0.34329 0.40671 0.16700
C 	C 	0.30990 0.84329 0.90671 0.16700
C 	C 	0.80990 0.90671 0.34329 0.16700
C 	C 	0.80990 0.40671 0.84329 0.16700
C 	C 	0.90671 0.94010 0.40671 0.16700
C 	C 	0.90671 0.44010 0.90671 0.16700
C 	C 	0.40671 0.30990 0.34329 0.16700
C 	C 	0.40671 0.80990 0.84329 0.16700
C 	C 	0.34329 0.80990 0.90671 0.16700
C 	C 	0.84329 0.80990 0.40671 0.16700
C 	C 	0.09329 0.59329 0.05990 0.16700
C 	C 	0.09329 0.09329 0.55990 0.16700
C 	C 	0.65671 0.09329 0.19010 0.16700
C 	C 	0.15671 0.09329 0.69010 0.16700
C 	C 	0.59329 0.65671 0.69010 0.16700
C 	C 	0.59329 0.15671 0.19010 0.16700
C 	C 	0.65671 0.69010 0.59329 0.16700
C 	C 	0.15671 0.69010 0.09329 0.16700
C 	C 	0.09329 0.19010 0.65671 0.16700
C 	C 	0.09329 0.69010 0.15671 0.16700
C 	C 	0.59329 0.05990 0.09329 0.16700
C 	C 	0.59329 0.55990 0.59329 0.16700
C 	C 	0.19010 0.65671 0.09329 0.16700
C 	C 	0.19010 0.15671 0.59329 0.16700
C 	C 	0.69010 0.59329 0.65671 0.16700
C 	C 	0.69010 0.09329 0.15671 0.16700
C 	C 	0.05990 0.09329 0.59329 0.16700
C 	C 	0.55990 0.09329 0.09329 0.16700
