data_crystal

_cell_length_a 50.57110
_cell_length_b 50.57110
_cell_length_c 50.57110
_cell_angle_alpha 90.00000
_cell_angle_beta  90.00000
_cell_angle_gamma 90.00000

_symmetry_space_group_name_	'P 1'
_symmetry_space_group_name_H-M	'P 1'

loop_
_symmetry_equiv_pos_as_xyz
  x,y,z

loop_
_atom_site_label
_atom_site_type_symbol
_atom_site_fract_x
_atom_site_fract_y
_atom_site_fract_z
_atom_site_charge
O 	O 	0.89350 0.09750 0.03340 -0.50700
O 	O 	0.92890 0.11950 0.02150 -0.36700
O 	O 	0.01590 0.05850 0.09010 -0.48300
O 	O 	0.83872 0.10572 0.01137 -0.43900
O 	O 	0.84459 0.12651 0.97403 -0.46100
O 	O 	0.71556 0.07789 0.00322 -0.44600
O 	O 	0.63798 0.06984 0.03935 -0.46100
C 	C 	0.91700 0.10270 0.03530 0.38100
C 	C 	0.93360 0.08700 0.05340 -0.17800
C 	C 	0.96130 0.08790 0.05580 0.13400
C 	C 	0.82990 0.11470 0.98980 0.33900
C 	C 	0.80140 0.11010 0.98180 -0.15000
C 	C 	0.78380 0.09810 0.00010 0.12200
O 	O 	0.89350 0.59750 0.53340 -0.50700
O 	O 	0.92890 0.61950 0.52150 -0.36600
O 	O 	0.01590 0.55850 0.59010 -0.48300
O 	O 	0.83872 0.60572 0.51137 -0.43800
O 	O 	0.84459 0.62651 0.47403 -0.46100
O 	O 	0.71556 0.57789 0.50322 -0.44600
O 	O 	0.63798 0.56984 0.53935 -0.46100
C 	C 	0.91700 0.60270 0.53530 0.38100
C 	C 	0.93360 0.58700 0.55340 -0.17800
C 	C 	0.96130 0.58790 0.55580 0.13400
C 	C 	0.82990 0.61470 0.48980 0.33800
C 	C 	0.80140 0.61010 0.48180 -0.15100
C 	C 	0.78380 0.59810 0.50010 0.12600
O 	O 	0.39350 0.09750 0.53340 -0.50700
O 	O 	0.42890 0.11950 0.52150 -0.36600
O 	O 	0.51590 0.05850 0.59010 -0.48300
O 	O 	0.33872 0.10572 0.51137 -0.43800
O 	O 	0.34459 0.12651 0.47403 -0.46100
O 	O 	0.21556 0.07789 0.50322 -0.44600
O 	O 	0.13798 0.06984 0.53935 -0.46100
C 	C 	0.41700 0.10270 0.53530 0.38100
C 	C 	0.43360 0.08700 0.55340 -0.17800
C 	C 	0.46130 0.08790 0.55580 0.13400
C 	C 	0.32990 0.11470 0.48980 0.33800
C 	C 	0.30140 0.11010 0.48180 -0.15100
C 	C 	0.28380 0.09810 0.50010 0.12600
O 	O 	0.39350 0.59750 0.03340 -0.50700
O 	O 	0.42890 0.61950 0.02150 -0.36700
O 	O 	0.51590 0.55850 0.09010 -0.48300
O 	O 	0.33872 0.60572 0.01137 -0.43900
O 	O 	0.34459 0.62651 0.97403 -0.46100
O 	O 	0.21556 0.57789 0.00322 -0.44600
O 	O 	0.13798 0.56984 0.03935 -0.46100
C 	C 	0.41700 0.60270 0.03530 0.38100
C 	C 	0.43360 0.58700 0.05340 -0.17800
C 	C 	0.46130 0.58790 0.05580 0.13400
C 	C 	0.32990 0.61470 0.98980 0.33900
C 	C 	0.30140 0.61010 0.98180 -0.15000
C 	C 	0.28380 0.59810 0.00010 0.12200
O 	O 	0.85650 0.15250 0.53340 -0.50700
O 	O 	0.82110 0.13050 0.52150 -0.36600
O 	O 	0.73410 0.19150 0.59010 -0.48300
O 	O 	0.91128 0.14428 0.51137 -0.43700
O 	O 	0.90541 0.12349 0.47403 -0.46100
O 	O 	0.03444 0.17211 0.50322 -0.44600
O 	O 	0.11202 0.18016 0.53935 -0.46100
C 	C 	0.83300 0.14730 0.53530 0.38100
C 	C 	0.81640 0.16300 0.55340 -0.17800
C 	C 	0.78870 0.16210 0.55580 0.13500
C 	C 	0.92010 0.13530 0.48980 0.33800
C 	C 	0.94860 0.13990 0.48180 -0.15100
C 	C 	0.96620 0.15190 0.50010 0.12500
O 	O 	0.85650 0.65250 0.03340 -0.50700
O 	O 	0.82110 0.63050 0.02150 -0.36700
O 	O 	0.73410 0.69150 0.09010 -0.48300
O 	O 	0.91128 0.64428 0.01137 -0.43800
O 	O 	0.90541 0.62349 0.97403 -0.46100
O 	O 	0.03444 0.67211 0.00322 -0.44600
O 	O 	0.11202 0.68016 0.03935 -0.46100
C 	C 	0.83300 0.64730 0.03530 0.38100
C 	C 	0.81640 0.66300 0.05340 -0.17800
C 	C 	0.78870 0.66210 0.05580 0.13400
C 	C 	0.92010 0.63530 0.98980 0.33900
C 	C 	0.94860 0.63990 0.98180 -0.14900
C 	C 	0.96620 0.65190 0.00010 0.12200
O 	O 	0.35650 0.15250 0.03340 -0.50700
O 	O 	0.32110 0.13050 0.02150 -0.36700
O 	O 	0.23410 0.19150 0.09010 -0.48300
O 	O 	0.41128 0.14428 0.01137 -0.43900
O 	O 	0.40541 0.12349 0.97403 -0.46100
O 	O 	0.53444 0.17211 0.00322 -0.44600
O 	O 	0.61202 0.18016 0.03935 -0.46100
C 	C 	0.33300 0.14730 0.03530 0.38100
C 	C 	0.31640 0.16300 0.05340 -0.17800
C 	C 	0.28870 0.16210 0.05580 0.13400
C 	C 	0.42010 0.13530 0.98980 0.33900
C 	C 	0.44860 0.13990 0.98180 -0.15000
C 	C 	0.46620 0.15190 0.00010 0.12200
O 	O 	0.35650 0.65250 0.53340 -0.50700
O 	O 	0.32110 0.63050 0.52150 -0.36600
O 	O 	0.23410 0.69150 0.59010 -0.48300
O 	O 	0.41128 0.64428 0.51137 -0.43800
O 	O 	0.40541 0.62349 0.47403 -0.46100
O 	O 	0.53444 0.67211 0.50322 -0.44600
O 	O 	0.61202 0.68016 0.53935 -0.46100
C 	C 	0.33300 0.64730 0.53530 0.38100
C 	C 	0.31640 0.66300 0.55340 -0.17800
C 	C 	0.28870 0.66210 0.55580 0.13500
C 	C 	0.42010 0.63530 0.48980 0.33800
C 	C 	0.44860 0.63990 0.48180 -0.15100
C 	C 	0.46620 0.65190 0.50010 0.12600
O 	O 	0.35650 0.59750 0.71660 -0.50700
O 	O 	0.32110 0.61950 0.72850 -0.36600
O 	O 	0.23410 0.55850 0.65990 -0.48300
O 	O 	0.41128 0.60572 0.73863 -0.43800
O 	O 	0.40541 0.62651 0.77597 -0.46100
O 	O 	0.53444 0.57789 0.74678 -0.44600
O 	O 	0.61202 0.56984 0.71065 -0.46100
C 	C 	0.33300 0.60270 0.71470 0.38100
C 	C 	0.31640 0.58700 0.69660 -0.17800
C 	C 	0.28870 0.58790 0.69420 0.13500
C 	C 	0.42010 0.61470 0.76020 0.33800
C 	C 	0.44860 0.61010 0.76820 -0.15100
C 	C 	0.46620 0.59810 0.74990 0.12600
O 	O 	0.35650 0.09750 0.21660 -0.50700
O 	O 	0.32110 0.11950 0.22850 -0.36600
O 	O 	0.23410 0.05850 0.15990 -0.48300
O 	O 	0.41128 0.10572 0.23863 -0.43800
O 	O 	0.40541 0.12651 0.27597 -0.46100
O 	O 	0.53444 0.07789 0.24678 -0.44600
O 	O 	0.61202 0.06984 0.21065 -0.46100
C 	C 	0.33300 0.10270 0.21470 0.38100
C 	C 	0.31640 0.08700 0.19660 -0.17800
C 	C 	0.28870 0.08790 0.19420 0.13400
C 	C 	0.42010 0.11470 0.26020 0.33800
C 	C 	0.44860 0.11010 0.26820 -0.15100
C 	C 	0.46620 0.09810 0.24990 0.12600
O 	O 	0.85650 0.59750 0.21660 -0.50700
O 	O 	0.82110 0.61950 0.22850 -0.36600
O 	O 	0.73410 0.55850 0.15990 -0.48300
O 	O 	0.91128 0.60572 0.23863 -0.43700
O 	O 	0.90541 0.62651 0.27597 -0.46100
O 	O 	0.03444 0.57789 0.24678 -0.44600
O 	O 	0.11202 0.56984 0.21065 -0.46100
C 	C 	0.83300 0.60270 0.21470 0.38100
C 	C 	0.81640 0.58700 0.19660 -0.17800
C 	C 	0.78870 0.58790 0.19420 0.13500
C 	C 	0.92010 0.61470 0.26020 0.33800
C 	C 	0.94860 0.61010 0.26820 -0.15100
C 	C 	0.96620 0.59810 0.24990 0.12500
O 	O 	0.85650 0.09750 0.71660 -0.50700
O 	O 	0.82110 0.11950 0.72850 -0.36600
O 	O 	0.73410 0.05850 0.65990 -0.48300
O 	O 	0.91128 0.10572 0.73863 -0.43700
O 	O 	0.90541 0.12651 0.77597 -0.46100
O 	O 	0.03444 0.07789 0.74678 -0.44600
O 	O 	0.11202 0.06984 0.71065 -0.46100
C 	C 	0.83300 0.10270 0.71470 0.38100
C 	C 	0.81640 0.08700 0.69660 -0.17800
C 	C 	0.78870 0.08790 0.69420 0.13400
C 	C 	0.92010 0.11470 0.76020 0.33800
C 	C 	0.94860 0.11010 0.76820 -0.15100
C 	C 	0.96620 0.09810 0.74990 0.12500
O 	O 	0.39350 0.65250 0.21660 -0.50700
O 	O 	0.42890 0.63050 0.22850 -0.36600
O 	O 	0.51590 0.69150 0.15990 -0.48300
O 	O 	0.33872 0.64428 0.23863 -0.43700
O 	O 	0.34459 0.62349 0.27597 -0.46100
O 	O 	0.21556 0.67211 0.24678 -0.44600
O 	O 	0.13798 0.68016 0.21065 -0.46100
C 	C 	0.41700 0.64730 0.21470 0.38100
C 	C 	0.43360 0.66300 0.19660 -0.17800
C 	C 	0.46130 0.66210 0.19420 0.13500
C 	C 	0.32990 0.63530 0.26020 0.33800
C 	C 	0.30140 0.63990 0.26820 -0.15100
C 	C 	0.28380 0.65190 0.24990 0.12600
O 	O 	0.39350 0.15250 0.71660 -0.50700
O 	O 	0.42890 0.13050 0.72850 -0.36600
O 	O 	0.51590 0.19150 0.65990 -0.48300
O 	O 	0.33872 0.14428 0.73863 -0.43800
O 	O 	0.34459 0.12349 0.77597 -0.46100
O 	O 	0.21556 0.17211 0.74678 -0.44600
O 	O 	0.13798 0.18016 0.71065 -0.46100
C 	C 	0.41700 0.14730 0.71470 0.38100
C 	C 	0.43360 0.16300 0.69660 -0.17800
C 	C 	0.46130 0.16210 0.69420 0.13500
C 	C 	0.32990 0.13530 0.76020 0.33800
C 	C 	0.30140 0.13990 0.76820 -0.15100
C 	C 	0.28380 0.15190 0.74990 0.12600
O 	O 	0.89350 0.65250 0.71660 -0.50700
O 	O 	0.92890 0.63050 0.72850 -0.36600
O 	O 	0.01590 0.69150 0.65990 -0.48300
O 	O 	0.83872 0.64428 0.73863 -0.43800
O 	O 	0.84459 0.62349 0.77597 -0.46100
O 	O 	0.71556 0.67211 0.74678 -0.44600
O 	O 	0.63798 0.68016 0.71065 -0.46100
C 	C 	0.91700 0.64730 0.71470 0.38100
C 	C 	0.93360 0.66300 0.69660 -0.17800
C 	C 	0.96130 0.66210 0.69420 0.13400
C 	C 	0.82990 0.63530 0.76020 0.33800
C 	C 	0.80140 0.63990 0.76820 -0.15100
C 	C 	0.78380 0.65190 0.74990 0.12600
O 	O 	0.89350 0.15250 0.21660 -0.50700
O 	O 	0.92890 0.13050 0.22850 -0.36600
O 	O 	0.01590 0.19150 0.15990 -0.48300
O 	O 	0.83872 0.14428 0.23863 -0.43800
O 	O 	0.84459 0.12349 0.27597 -0.46100
O 	O 	0.71556 0.17211 0.24678 -0.44600
O 	O 	0.63798 0.18016 0.21065 -0.46100
C 	C 	0.91700 0.14730 0.21470 0.38100
C 	C 	0.93360 0.16300 0.19660 -0.17800
C 	C 	0.96130 0.16210 0.19420 0.13400
C 	C 	0.82990 0.13530 0.26020 0.33800
C 	C 	0.80140 0.13990 0.26820 -0.15100
C 	C 	0.78380 0.15190 0.24990 0.12600
O 	O 	0.03340 0.89350 0.09750 -0.50700
O 	O 	0.02150 0.92890 0.11950 -0.36700
O 	O 	0.09010 0.01590 0.05850 -0.48300
O 	O 	0.01137 0.83872 0.10572 -0.43900
O 	O 	0.97403 0.84459 0.12651 -0.46100
O 	O 	0.00322 0.71556 0.07789 -0.44600
O 	O 	0.03935 0.63798 0.06984 -0.46100
C 	C 	0.03530 0.91700 0.10270 0.38100
C 	C 	0.05340 0.93360 0.08700 -0.17800
C 	C 	0.05580 0.96130 0.08790 0.13400
C 	C 	0.98980 0.82990 0.11470 0.33900
C 	C 	0.98180 0.80140 0.11010 -0.14900
C 	C 	0.00010 0.78380 0.09810 0.12300
O 	O 	0.03340 0.39350 0.59750 -0.50600
O 	O 	0.02150 0.42890 0.61950 -0.36600
O 	O 	0.09010 0.51590 0.55850 -0.48200
O 	O 	0.01137 0.33872 0.60572 -0.43800
O 	O 	0.97403 0.34459 0.62651 -0.46000
O 	O 	0.00322 0.21556 0.57789 -0.44500
O 	O 	0.03935 0.13798 0.56984 -0.46000
C 	C 	0.03530 0.41700 0.60270 0.38200
C 	C 	0.05340 0.43360 0.58700 -0.17700
C 	C 	0.05580 0.46130 0.58790 0.13500
C 	C 	0.98980 0.32990 0.61470 0.34000
C 	C 	0.98180 0.30140 0.61010 -0.14900
C 	C 	0.00010 0.28380 0.59810 0.12300
O 	O 	0.53340 0.89350 0.59750 -0.50600
O 	O 	0.52150 0.92890 0.61950 -0.36500
O 	O 	0.59010 0.01590 0.55850 -0.48200
O 	O 	0.51137 0.83872 0.60572 -0.43700
O 	O 	0.47403 0.84459 0.62651 -0.46000
O 	O 	0.50322 0.71556 0.57789 -0.44500
O 	O 	0.53935 0.63798 0.56984 -0.46000
C 	C 	0.53530 0.91700 0.60270 0.38200
C 	C 	0.55340 0.93360 0.58700 -0.17700
C 	C 	0.55580 0.96130 0.58790 0.13500
C 	C 	0.48980 0.82990 0.61470 0.33900
C 	C 	0.48180 0.80140 0.61010 -0.15000
C 	C 	0.50010 0.78380 0.59810 0.12700
O 	O 	0.53340 0.39350 0.09750 -0.50600
O 	O 	0.52150 0.42890 0.11950 -0.36500
O 	O 	0.59010 0.51590 0.05850 -0.48200
O 	O 	0.51137 0.33872 0.10572 -0.43700
O 	O 	0.47403 0.34459 0.12651 -0.46000
O 	O 	0.50322 0.21556 0.07789 -0.44500
O 	O 	0.53935 0.13798 0.06984 -0.46000
C 	C 	0.53530 0.41700 0.10270 0.38200
C 	C 	0.55340 0.43360 0.08700 -0.17700
C 	C 	0.55580 0.46130 0.08790 0.13500
C 	C 	0.48980 0.32990 0.11470 0.33900
C 	C 	0.48180 0.30140 0.11010 -0.15000
C 	C 	0.50010 0.28380 0.09810 0.12700
O 	O 	0.53340 0.85650 0.15250 -0.50600
O 	O 	0.52150 0.82110 0.13050 -0.36500
O 	O 	0.59010 0.73410 0.19150 -0.48200
O 	O 	0.51137 0.91128 0.14428 -0.43600
O 	O 	0.47403 0.90541 0.12349 -0.46000
O 	O 	0.50322 0.03444 0.17211 -0.44500
O 	O 	0.53935 0.11202 0.18016 -0.46000
C 	C 	0.53530 0.83300 0.14730 0.38200
C 	C 	0.55340 0.81640 0.16300 -0.17700
C 	C 	0.55580 0.78870 0.16210 0.13600
C 	C 	0.48980 0.92010 0.13530 0.33900
C 	C 	0.48180 0.94860 0.13990 -0.15000
C 	C 	0.50010 0.96620 0.15190 0.12600
O 	O 	0.53340 0.35650 0.65250 -0.50600
O 	O 	0.52150 0.32110 0.63050 -0.36500
O 	O 	0.59010 0.23410 0.69150 -0.48200
O 	O 	0.51137 0.41128 0.64428 -0.43700
O 	O 	0.47403 0.40541 0.62349 -0.46000
O 	O 	0.50322 0.53444 0.67211 -0.44500
O 	O 	0.53935 0.61202 0.68016 -0.46000
C 	C 	0.53530 0.33300 0.64730 0.38200
C 	C 	0.55340 0.31640 0.66300 -0.17700
C 	C 	0.55580 0.28870 0.66210 0.13600
C 	C 	0.48980 0.42010 0.63530 0.33900
C 	C 	0.48180 0.44860 0.63990 -0.15000
C 	C 	0.50010 0.46620 0.65190 0.12700
O 	O 	0.03340 0.85650 0.65250 -0.50600
O 	O 	0.02150 0.82110 0.63050 -0.36600
O 	O 	0.09010 0.73410 0.69150 -0.48200
O 	O 	0.01137 0.91128 0.64428 -0.43700
O 	O 	0.97403 0.90541 0.62349 -0.46000
O 	O 	0.00322 0.03444 0.67211 -0.44500
O 	O 	0.03935 0.11202 0.68016 -0.46000
C 	C 	0.03530 0.83300 0.64730 0.38200
C 	C 	0.05340 0.81640 0.66300 -0.17700
C 	C 	0.05580 0.78870 0.66210 0.13500
C 	C 	0.98980 0.92010 0.63530 0.34000
C 	C 	0.98180 0.94860 0.63990 -0.14800
C 	C 	0.00010 0.96620 0.65190 0.12300
O 	O 	0.03340 0.35650 0.15250 -0.50600
O 	O 	0.02150 0.32110 0.13050 -0.36600
O 	O 	0.09010 0.23410 0.19150 -0.48200
O 	O 	0.01137 0.41128 0.14428 -0.43800
O 	O 	0.97403 0.40541 0.12349 -0.46000
O 	O 	0.00322 0.53444 0.17211 -0.44500
O 	O 	0.03935 0.61202 0.18016 -0.46000
C 	C 	0.03530 0.33300 0.14730 0.38200
C 	C 	0.05340 0.31640 0.16300 -0.17700
C 	C 	0.05580 0.28870 0.16210 0.13500
C 	C 	0.98980 0.42010 0.13530 0.34000
C 	C 	0.98180 0.44860 0.13990 -0.14900
C 	C 	0.00010 0.46620 0.15190 0.12300
O 	O 	0.71660 0.35650 0.59750 -0.50600
O 	O 	0.72850 0.32110 0.61950 -0.36500
O 	O 	0.65990 0.23410 0.55850 -0.48200
O 	O 	0.73863 0.41128 0.60572 -0.43700
O 	O 	0.77597 0.40541 0.62651 -0.46000
O 	O 	0.74678 0.53444 0.57789 -0.44500
O 	O 	0.71065 0.61202 0.56984 -0.46000
C 	C 	0.71470 0.33300 0.60270 0.38200
C 	C 	0.69660 0.31640 0.58700 -0.17700
C 	C 	0.69420 0.28870 0.58790 0.13600
C 	C 	0.76020 0.42010 0.61470 0.33900
C 	C 	0.76820 0.44860 0.61010 -0.15000
C 	C 	0.74990 0.46620 0.59810 0.12700
O 	O 	0.71660 0.85650 0.09750 -0.50600
O 	O 	0.72850 0.82110 0.11950 -0.36500
O 	O 	0.65990 0.73410 0.05850 -0.48200
O 	O 	0.73863 0.91128 0.10572 -0.43600
O 	O 	0.77597 0.90541 0.12651 -0.46000
O 	O 	0.74678 0.03444 0.07789 -0.44500
O 	O 	0.71065 0.11202 0.06984 -0.46000
C 	C 	0.71470 0.83300 0.10270 0.38200
C 	C 	0.69660 0.81640 0.08700 -0.17700
C 	C 	0.69420 0.78870 0.08790 0.13500
C 	C 	0.76020 0.92010 0.11470 0.33900
C 	C 	0.76820 0.94860 0.11010 -0.15000
C 	C 	0.74990 0.96620 0.09810 0.12600
O 	O 	0.21660 0.35650 0.09750 -0.50600
O 	O 	0.22850 0.32110 0.11950 -0.36500
O 	O 	0.15990 0.23410 0.05850 -0.48200
O 	O 	0.23863 0.41128 0.10572 -0.43700
O 	O 	0.27597 0.40541 0.12651 -0.46000
O 	O 	0.24678 0.53444 0.07789 -0.44500
O 	O 	0.21065 0.61202 0.06984 -0.46000
C 	C 	0.21470 0.33300 0.10270 0.38200
C 	C 	0.19660 0.31640 0.08700 -0.17700
C 	C 	0.19420 0.28870 0.08790 0.13500
C 	C 	0.26020 0.42010 0.11470 0.33900
C 	C 	0.26820 0.44860 0.11010 -0.15000
C 	C 	0.24990 0.46620 0.09810 0.12700
O 	O 	0.21660 0.85650 0.59750 -0.50600
O 	O 	0.22850 0.82110 0.61950 -0.36500
O 	O 	0.15990 0.73410 0.55850 -0.48200
O 	O 	0.23863 0.91128 0.60572 -0.43600
O 	O 	0.27597 0.90541 0.62651 -0.46000
O 	O 	0.24678 0.03444 0.57789 -0.44500
O 	O 	0.21065 0.11202 0.56984 -0.46000
C 	C 	0.21470 0.83300 0.60270 0.38200
C 	C 	0.19660 0.81640 0.58700 -0.17700
C 	C 	0.19420 0.78870 0.58790 0.13600
C 	C 	0.26020 0.92010 0.61470 0.33900
C 	C 	0.26820 0.94860 0.61010 -0.15000
C 	C 	0.24990 0.96620 0.59810 0.12600
O 	O 	0.21660 0.39350 0.65250 -0.50600
O 	O 	0.22850 0.42890 0.63050 -0.36500
O 	O 	0.15990 0.51590 0.69150 -0.48200
O 	O 	0.23863 0.33872 0.64428 -0.43600
O 	O 	0.27597 0.34459 0.62349 -0.46000
O 	O 	0.24678 0.21556 0.67211 -0.44500
O 	O 	0.21065 0.13798 0.68016 -0.46000
C 	C 	0.21470 0.41700 0.64730 0.38200
C 	C 	0.19660 0.43360 0.66300 -0.17700
C 	C 	0.19420 0.46130 0.66210 0.13600
C 	C 	0.26020 0.32990 0.63530 0.33900
C 	C 	0.26820 0.30140 0.63990 -0.15000
C 	C 	0.24990 0.28380 0.65190 0.12700
O 	O 	0.21660 0.89350 0.15250 -0.50600
O 	O 	0.22850 0.92890 0.13050 -0.36500
O 	O 	0.15990 0.01590 0.19150 -0.48200
O 	O 	0.23863 0.83872 0.14428 -0.43700
O 	O 	0.27597 0.84459 0.12349 -0.46000
O 	O 	0.24678 0.71556 0.17211 -0.44500
O 	O 	0.21065 0.63798 0.18016 -0.46000
C 	C 	0.21470 0.91700 0.14730 0.38200
C 	C 	0.19660 0.93360 0.16300 -0.17700
C 	C 	0.19420 0.96130 0.16210 0.13500
C 	C 	0.26020 0.82990 0.13530 0.33900
C 	C 	0.26820 0.80140 0.13990 -0.15000
C 	C 	0.24990 0.78380 0.15190 0.12700
O 	O 	0.71660 0.39350 0.15250 -0.50600
O 	O 	0.72850 0.42890 0.13050 -0.36500
O 	O 	0.65990 0.51590 0.19150 -0.48200
O 	O 	0.73863 0.33872 0.14428 -0.43700
O 	O 	0.77597 0.34459 0.12349 -0.46000
O 	O 	0.74678 0.21556 0.17211 -0.44500
O 	O 	0.71065 0.13798 0.18016 -0.46000
C 	C 	0.71470 0.41700 0.14730 0.38200
C 	C 	0.69660 0.43360 0.16300 -0.17700
C 	C 	0.69420 0.46130 0.16210 0.13600
C 	C 	0.76020 0.32990 0.13530 0.33900
C 	C 	0.76820 0.30140 0.13990 -0.15000
C 	C 	0.74990 0.28380 0.15190 0.12700
O 	O 	0.71660 0.89350 0.65250 -0.50600
O 	O 	0.72850 0.92890 0.63050 -0.36500
O 	O 	0.65990 0.01590 0.69150 -0.48200
O 	O 	0.73863 0.83872 0.64428 -0.43700
O 	O 	0.77597 0.84459 0.62349 -0.46000
O 	O 	0.74678 0.71556 0.67211 -0.44500
O 	O 	0.71065 0.63798 0.68016 -0.46000
C 	C 	0.71470 0.91700 0.64730 0.38200
C 	C 	0.69660 0.93360 0.66300 -0.17700
C 	C 	0.69420 0.96130 0.66210 0.13500
C 	C 	0.76020 0.82990 0.63530 0.33900
C 	C 	0.76820 0.80140 0.63990 -0.15000
C 	C 	0.74990 0.78380 0.65190 0.12700
O 	O 	0.09750 0.03340 0.89350 -0.50600
O 	O 	0.11950 0.02150 0.92890 -0.36600
O 	O 	0.05850 0.09010 0.01590 -0.48200
O 	O 	0.10572 0.01137 0.83872 -0.43800
O 	O 	0.12651 0.97403 0.84459 -0.46000
O 	O 	0.07789 0.00322 0.71556 -0.44500
O 	O 	0.06984 0.03935 0.63798 -0.46000
C 	C 	0.10270 0.03530 0.91700 0.38200
C 	C 	0.08700 0.05340 0.93360 -0.17700
C 	C 	0.08790 0.05580 0.96130 0.13500
C 	C 	0.11470 0.98980 0.82990 0.34000
C 	C 	0.11010 0.98180 0.80140 -0.14900
C 	C 	0.09810 0.00010 0.78380 0.12300
O 	O 	0.09750 0.53340 0.39350 -0.50600
O 	O 	0.11950 0.52150 0.42890 -0.36500
O 	O 	0.05850 0.59010 0.51590 -0.48200
O 	O 	0.10572 0.51137 0.33872 -0.43700
O 	O 	0.12651 0.47403 0.34459 -0.46000
O 	O 	0.07789 0.50322 0.21556 -0.44500
O 	O 	0.06984 0.53935 0.13798 -0.46000
C 	C 	0.10270 0.53530 0.41700 0.38200
C 	C 	0.08700 0.55340 0.43360 -0.17700
C 	C 	0.08790 0.55580 0.46130 0.13500
C 	C 	0.11470 0.48980 0.32990 0.33900
C 	C 	0.11010 0.48180 0.30140 -0.15000
C 	C 	0.09810 0.50010 0.28380 0.12700
O 	O 	0.59750 0.03340 0.39350 -0.50600
O 	O 	0.61950 0.02150 0.42890 -0.36600
O 	O 	0.55850 0.09010 0.51590 -0.48200
O 	O 	0.60572 0.01137 0.33872 -0.43800
O 	O 	0.62651 0.97403 0.34459 -0.46000
O 	O 	0.57789 0.00322 0.21556 -0.44500
O 	O 	0.56984 0.03935 0.13798 -0.46000
C 	C 	0.60270 0.03530 0.41700 0.38200
C 	C 	0.58700 0.05340 0.43360 -0.17700
C 	C 	0.58790 0.05580 0.46130 0.13500
C 	C 	0.61470 0.98980 0.32990 0.34000
C 	C 	0.61010 0.98180 0.30140 -0.14900
C 	C 	0.59810 0.00010 0.28380 0.12300
O 	O 	0.59750 0.53340 0.89350 -0.50600
O 	O 	0.61950 0.52150 0.92890 -0.36500
O 	O 	0.55850 0.59010 0.01590 -0.48200
O 	O 	0.60572 0.51137 0.83872 -0.43700
O 	O 	0.62651 0.47403 0.84459 -0.46000
O 	O 	0.57789 0.50322 0.71556 -0.44500
O 	O 	0.56984 0.53935 0.63798 -0.46000
C 	C 	0.60270 0.53530 0.91700 0.38200
C 	C 	0.58700 0.55340 0.93360 -0.17700
C 	C 	0.58790 0.55580 0.96130 0.13500
C 	C 	0.61470 0.48980 0.82990 0.33900
C 	C 	0.61010 0.48180 0.80140 -0.15000
C 	C 	0.59810 0.50010 0.78380 0.12700
O 	O 	0.15250 0.53340 0.85650 -0.50600
O 	O 	0.13050 0.52150 0.82110 -0.36500
O 	O 	0.19150 0.59010 0.73410 -0.48200
O 	O 	0.14428 0.51137 0.91128 -0.43600
O 	O 	0.12349 0.47403 0.90541 -0.46000
O 	O 	0.17211 0.50322 0.03444 -0.44500
O 	O 	0.18016 0.53935 0.11202 -0.46000
C 	C 	0.14730 0.53530 0.83300 0.38200
C 	C 	0.16300 0.55340 0.81640 -0.17700
C 	C 	0.16210 0.55580 0.78870 0.13600
C 	C 	0.13530 0.48980 0.92010 0.33900
C 	C 	0.13990 0.48180 0.94860 -0.15000
C 	C 	0.15190 0.50010 0.96620 0.12600
O 	O 	0.15250 0.03340 0.35650 -0.50600
O 	O 	0.13050 0.02150 0.32110 -0.36600
O 	O 	0.19150 0.09010 0.23410 -0.48200
O 	O 	0.14428 0.01137 0.41128 -0.43800
O 	O 	0.12349 0.97403 0.40541 -0.46000
O 	O 	0.17211 0.00322 0.53444 -0.44500
O 	O 	0.18016 0.03935 0.61202 -0.46000
C 	C 	0.14730 0.03530 0.33300 0.38200
C 	C 	0.16300 0.05340 0.31640 -0.17700
C 	C 	0.16210 0.05580 0.28870 0.13500
C 	C 	0.13530 0.98980 0.42010 0.34000
C 	C 	0.13990 0.98180 0.44860 -0.14900
C 	C 	0.15190 0.00010 0.46620 0.12300
O 	O 	0.65250 0.53340 0.35650 -0.50600
O 	O 	0.63050 0.52150 0.32110 -0.36500
O 	O 	0.69150 0.59010 0.23410 -0.48200
O 	O 	0.64428 0.51137 0.41128 -0.43700
O 	O 	0.62349 0.47403 0.40541 -0.46000
O 	O 	0.67211 0.50322 0.53444 -0.44500
O 	O 	0.68016 0.53935 0.61202 -0.46000
C 	C 	0.64730 0.53530 0.33300 0.38200
C 	C 	0.66300 0.55340 0.31640 -0.17700
C 	C 	0.66210 0.55580 0.28870 0.13600
C 	C 	0.63530 0.48980 0.42010 0.33900
C 	C 	0.63990 0.48180 0.44860 -0.15000
C 	C 	0.65190 0.50010 0.46620 0.12700
O 	O 	0.65250 0.03340 0.85650 -0.50600
O 	O 	0.63050 0.02150 0.82110 -0.36600
O 	O 	0.69150 0.09010 0.73410 -0.48200
O 	O 	0.64428 0.01137 0.91128 -0.43700
O 	O 	0.62349 0.97403 0.90541 -0.46000
O 	O 	0.67211 0.00322 0.03444 -0.44500
O 	O 	0.68016 0.03935 0.11202 -0.46000
C 	C 	0.64730 0.03530 0.83300 0.38200
C 	C 	0.66300 0.05340 0.81640 -0.17700
C 	C 	0.66210 0.05580 0.78870 0.13500
C 	C 	0.63530 0.98980 0.92010 0.34000
C 	C 	0.63990 0.98180 0.94860 -0.14800
C 	C 	0.65190 0.00010 0.96620 0.12300
O 	O 	0.59750 0.71660 0.35650 -0.50600
O 	O 	0.61950 0.72850 0.32110 -0.36500
O 	O 	0.55850 0.65990 0.23410 -0.48200
O 	O 	0.60572 0.73863 0.41128 -0.43700
O 	O 	0.62651 0.77597 0.40541 -0.46000
O 	O 	0.57789 0.74678 0.53444 -0.44500
O 	O 	0.56984 0.71065 0.61202 -0.46000
C 	C 	0.60270 0.71470 0.33300 0.38200
C 	C 	0.58700 0.69660 0.31640 -0.17700
C 	C 	0.58790 0.69420 0.28870 0.13600
C 	C 	0.61470 0.76020 0.42010 0.33900
C 	C 	0.61010 0.76820 0.44860 -0.15000
C 	C 	0.59810 0.74990 0.46620 0.12700
O 	O 	0.59750 0.21660 0.85650 -0.50600
O 	O 	0.61950 0.22850 0.82110 -0.36500
O 	O 	0.55850 0.15990 0.73410 -0.48200
O 	O 	0.60572 0.23863 0.91128 -0.43600
O 	O 	0.62651 0.27597 0.90541 -0.46000
O 	O 	0.57789 0.24678 0.03444 -0.44500
O 	O 	0.56984 0.21065 0.11202 -0.46000
C 	C 	0.60270 0.21470 0.83300 0.38200
C 	C 	0.58700 0.19660 0.81640 -0.17700
C 	C 	0.58790 0.19420 0.78870 0.13600
C 	C 	0.61470 0.26020 0.92010 0.33900
C 	C 	0.61010 0.26820 0.94860 -0.15000
C 	C 	0.59810 0.24990 0.96620 0.12600
O 	O 	0.09750 0.71660 0.85650 -0.50600
O 	O 	0.11950 0.72850 0.82110 -0.36500
O 	O 	0.05850 0.65990 0.73410 -0.48200
O 	O 	0.10572 0.73863 0.91128 -0.43600
O 	O 	0.12651 0.77597 0.90541 -0.46000
O 	O 	0.07789 0.74678 0.03444 -0.44500
O 	O 	0.06984 0.71065 0.11202 -0.46000
C 	C 	0.10270 0.71470 0.83300 0.38200
C 	C 	0.08700 0.69660 0.81640 -0.17700
C 	C 	0.08790 0.69420 0.78870 0.13500
C 	C 	0.11470 0.76020 0.92010 0.33900
C 	C 	0.11010 0.76820 0.94860 -0.15000
C 	C 	0.09810 0.74990 0.96620 0.12600
O 	O 	0.09750 0.21660 0.35650 -0.50600
O 	O 	0.11950 0.22850 0.32110 -0.36500
O 	O 	0.05850 0.15990 0.23410 -0.48200
O 	O 	0.10572 0.23863 0.41128 -0.43700
O 	O 	0.12651 0.27597 0.40541 -0.46000
O 	O 	0.07789 0.24678 0.53444 -0.44500
O 	O 	0.06984 0.21065 0.61202 -0.46000
C 	C 	0.10270 0.21470 0.33300 0.38200
C 	C 	0.08700 0.19660 0.31640 -0.17700
C 	C 	0.08790 0.19420 0.28870 0.13500
C 	C 	0.11470 0.26020 0.42010 0.33900
C 	C 	0.11010 0.26820 0.44860 -0.15000
C 	C 	0.09810 0.24990 0.46620 0.12700
O 	O 	0.65250 0.21660 0.39350 -0.50600
O 	O 	0.63050 0.22850 0.42890 -0.36500
O 	O 	0.69150 0.15990 0.51590 -0.48200
O 	O 	0.64428 0.23863 0.33872 -0.43600
O 	O 	0.62349 0.27597 0.34459 -0.46000
O 	O 	0.67211 0.24678 0.21556 -0.44500
O 	O 	0.68016 0.21065 0.13798 -0.46000
C 	C 	0.64730 0.21470 0.41700 0.38200
C 	C 	0.66300 0.19660 0.43360 -0.17700
C 	C 	0.66210 0.19420 0.46130 0.13600
C 	C 	0.63530 0.26020 0.32990 0.33900
C 	C 	0.63990 0.26820 0.30140 -0.15000
C 	C 	0.65190 0.24990 0.28380 0.12700
O 	O 	0.65250 0.71660 0.89350 -0.50600
O 	O 	0.63050 0.72850 0.92890 -0.36500
O 	O 	0.69150 0.65990 0.01590 -0.48200
O 	O 	0.64428 0.73863 0.83872 -0.43700
O 	O 	0.62349 0.77597 0.84459 -0.46000
O 	O 	0.67211 0.74678 0.71556 -0.44500
O 	O 	0.68016 0.71065 0.63798 -0.46000
C 	C 	0.64730 0.71470 0.91700 0.38200
C 	C 	0.66300 0.69660 0.93360 -0.17700
C 	C 	0.66210 0.69420 0.96130 0.13500
C 	C 	0.63530 0.76020 0.82990 0.33900
C 	C 	0.63990 0.76820 0.80140 -0.15000
C 	C 	0.65190 0.74990 0.78380 0.12700
O 	O 	0.15250 0.21660 0.89350 -0.50600
O 	O 	0.13050 0.22850 0.92890 -0.36500
O 	O 	0.19150 0.15990 0.01590 -0.48200
O 	O 	0.14428 0.23863 0.83872 -0.43700
O 	O 	0.12349 0.27597 0.84459 -0.46000
O 	O 	0.17211 0.24678 0.71556 -0.44500
O 	O 	0.18016 0.21065 0.63798 -0.46000
C 	C 	0.14730 0.21470 0.91700 0.38200
C 	C 	0.16300 0.19660 0.93360 -0.17700
C 	C 	0.16210 0.19420 0.96130 0.13500
C 	C 	0.13530 0.26020 0.82990 0.33900
C 	C 	0.13990 0.26820 0.80140 -0.15000
C 	C 	0.15190 0.24990 0.78380 0.12700
O 	O 	0.15250 0.71660 0.39350 -0.50600
O 	O 	0.13050 0.72850 0.42890 -0.36500
O 	O 	0.19150 0.65990 0.51590 -0.48200
O 	O 	0.14428 0.73863 0.33872 -0.43700
O 	O 	0.12349 0.77597 0.34459 -0.46000
O 	O 	0.17211 0.74678 0.21556 -0.44500
O 	O 	0.18016 0.71065 0.13798 -0.46000
C 	C 	0.14730 0.71470 0.41700 0.38200
C 	C 	0.16300 0.69660 0.43360 -0.17700
C 	C 	0.16210 0.69420 0.46130 0.13600
C 	C 	0.13530 0.76020 0.32990 0.33900
C 	C 	0.13990 0.76820 0.30140 -0.15000
C 	C 	0.15190 0.74990 0.28380 0.12700
O 	O 	0.84750 0.14350 0.46660 -0.50600
O 	O 	0.86950 0.17890 0.47850 -0.36500
O 	O 	0.80850 0.26590 0.40990 -0.48200
O 	O 	0.85572 0.08872 0.48863 -0.43700
O 	O 	0.87651 0.09459 0.52597 -0.46000
O 	O 	0.82789 0.96556 0.49678 -0.44600
O 	O 	0.81984 0.88798 0.46065 -0.46000
C 	C 	0.85270 0.16700 0.46470 0.38200
C 	C 	0.83700 0.18360 0.44660 -0.17700
C 	C 	0.83790 0.21130 0.44420 0.13600
C 	C 	0.86470 0.07990 0.51020 0.33900
C 	C 	0.86010 0.05140 0.51820 -0.15100
C 	C 	0.84810 0.03380 0.49990 0.12700
O 	O 	0.84750 0.64350 0.96660 -0.50600
O 	O 	0.86950 0.67890 0.97850 -0.36500
O 	O 	0.80850 0.76590 0.90990 -0.48200
O 	O 	0.85572 0.58872 0.98863 -0.43500
O 	O 	0.87651 0.59459 0.02597 -0.46000
O 	O 	0.82789 0.46556 0.99678 -0.44500
O 	O 	0.81984 0.38798 0.96065 -0.45900
C 	C 	0.85270 0.66700 0.96470 0.38200
C 	C 	0.83700 0.68360 0.94660 -0.17700
C 	C 	0.83790 0.71130 0.94420 0.13600
C 	C 	0.86470 0.57990 0.01020 0.33800
C 	C 	0.86010 0.55140 0.01820 -0.15200
C 	C 	0.84810 0.53380 0.99990 0.13000
O 	O 	0.34750 0.14350 0.96660 -0.50600
O 	O 	0.36950 0.17890 0.97850 -0.36500
O 	O 	0.30850 0.26590 0.90990 -0.48200
O 	O 	0.35572 0.08872 0.98863 -0.43600
O 	O 	0.37651 0.09459 0.02597 -0.46000
O 	O 	0.32789 0.96556 0.99678 -0.44600
O 	O 	0.31984 0.88798 0.96065 -0.45900
C 	C 	0.35270 0.16700 0.96470 0.38200
C 	C 	0.33700 0.18360 0.94660 -0.17700
C 	C 	0.33790 0.21130 0.94420 0.13600
C 	C 	0.36470 0.07990 0.01020 0.33800
C 	C 	0.36010 0.05140 0.01820 -0.15300
C 	C 	0.34810 0.03380 0.99990 0.13100
O 	O 	0.34750 0.64350 0.46660 -0.50600
O 	O 	0.36950 0.67890 0.47850 -0.36500
O 	O 	0.30850 0.76590 0.40990 -0.48200
O 	O 	0.35572 0.58872 0.48863 -0.43600
O 	O 	0.37651 0.59459 0.52597 -0.46000
O 	O 	0.32789 0.46556 0.49678 -0.44500
O 	O 	0.31984 0.38798 0.46065 -0.46000
C 	C 	0.35270 0.66700 0.46470 0.38200
C 	C 	0.33700 0.68360 0.44660 -0.17700
C 	C 	0.33790 0.71130 0.44420 0.13600
C 	C 	0.36470 0.57990 0.51020 0.33900
C 	C 	0.36010 0.55140 0.51820 -0.15000
C 	C 	0.34810 0.53380 0.49990 0.12700
O 	O 	0.90250 0.10650 0.96660 -0.50600
O 	O 	0.88050 0.07110 0.97850 -0.36500
O 	O 	0.94150 0.98410 0.90990 -0.48200
O 	O 	0.89428 0.16128 0.98863 -0.43500
O 	O 	0.87349 0.15541 0.02597 -0.46000
O 	O 	0.92211 0.28444 0.99678 -0.44500
O 	O 	0.93016 0.36202 0.96065 -0.45900
C 	C 	0.89730 0.08300 0.96470 0.38200
C 	C 	0.91300 0.06640 0.94660 -0.17700
C 	C 	0.91210 0.03870 0.94420 0.13600
C 	C 	0.88530 0.17010 0.01020 0.33800
C 	C 	0.88990 0.19860 0.01820 -0.15200
C 	C 	0.90190 0.21620 0.99990 0.13000
O 	O 	0.90250 0.60650 0.46660 -0.50600
O 	O 	0.88050 0.57110 0.47850 -0.36500
O 	O 	0.94150 0.48410 0.40990 -0.48200
O 	O 	0.89428 0.66128 0.48863 -0.43600
O 	O 	0.87349 0.65541 0.52597 -0.46000
O 	O 	0.92211 0.78444 0.49678 -0.44500
O 	O 	0.93016 0.86202 0.46065 -0.45900
C 	C 	0.89730 0.58300 0.46470 0.38200
C 	C 	0.91300 0.56640 0.44660 -0.17700
C 	C 	0.91210 0.53870 0.44420 0.13600
C 	C 	0.88530 0.67010 0.51020 0.33900
C 	C 	0.88990 0.69860 0.51820 -0.15000
C 	C 	0.90190 0.71620 0.49990 0.12700
O 	O 	0.40250 0.10650 0.46660 -0.50600
O 	O 	0.38050 0.07110 0.47850 -0.36600
O 	O 	0.44150 0.98410 0.40990 -0.48200
O 	O 	0.39428 0.16128 0.48863 -0.43600
O 	O 	0.37349 0.15541 0.52597 -0.46000
O 	O 	0.42211 0.28444 0.49678 -0.44500
O 	O 	0.43016 0.36202 0.46065 -0.46000
C 	C 	0.39730 0.08300 0.46470 0.38200
C 	C 	0.41300 0.06640 0.44660 -0.17700
C 	C 	0.41210 0.03870 0.44420 0.13600
C 	C 	0.38530 0.17010 0.51020 0.33900
C 	C 	0.38990 0.19860 0.51820 -0.15000
C 	C 	0.40190 0.21620 0.49990 0.12700
O 	O 	0.40250 0.60650 0.96660 -0.50600
O 	O 	0.38050 0.57110 0.97850 -0.36500
O 	O 	0.44150 0.48410 0.90990 -0.48200
O 	O 	0.39428 0.66128 0.98863 -0.43500
O 	O 	0.37349 0.65541 0.02597 -0.46000
O 	O 	0.42211 0.78444 0.99678 -0.44500
O 	O 	0.43016 0.86202 0.96065 -0.45900
C 	C 	0.39730 0.58300 0.96470 0.38200
C 	C 	0.41300 0.56640 0.94660 -0.17700
C 	C 	0.41210 0.53870 0.94420 0.13600
C 	C 	0.38530 0.67010 0.01020 0.33800
C 	C 	0.38990 0.69860 0.01820 -0.15200
C 	C 	0.40190 0.71620 0.99990 0.13000
O 	O 	0.34750 0.60650 0.78340 -0.50600
O 	O 	0.36950 0.57110 0.77150 -0.36500
O 	O 	0.30850 0.48410 0.84010 -0.48200
O 	O 	0.35572 0.66128 0.76137 -0.43700
O 	O 	0.37651 0.65541 0.72403 -0.46000
O 	O 	0.32789 0.78444 0.75322 -0.44500
O 	O 	0.31984 0.86202 0.78935 -0.45900
C 	C 	0.35270 0.58300 0.78530 0.38200
C 	C 	0.33700 0.56640 0.80340 -0.17700
C 	C 	0.33790 0.53870 0.80580 0.13600
C 	C 	0.36470 0.67010 0.73980 0.33900
C 	C 	0.36010 0.69860 0.73180 -0.15000
C 	C 	0.34810 0.71620 0.75010 0.12700
O 	O 	0.34750 0.10650 0.28340 -0.50600
O 	O 	0.36950 0.07110 0.27150 -0.36600
O 	O 	0.30850 0.98410 0.34010 -0.48200
O 	O 	0.35572 0.16128 0.26137 -0.43600
O 	O 	0.37651 0.15541 0.22403 -0.46000
O 	O 	0.32789 0.28444 0.25322 -0.44500
O 	O 	0.31984 0.36202 0.28935 -0.45900
C 	C 	0.35270 0.08300 0.28530 0.38200
C 	C 	0.33700 0.06640 0.30340 -0.17700
C 	C 	0.33790 0.03870 0.30580 0.13600
C 	C 	0.36470 0.17010 0.23980 0.33900
C 	C 	0.36010 0.19860 0.23180 -0.15000
C 	C 	0.34810 0.21620 0.25010 0.12700
O 	O 	0.84750 0.60650 0.28340 -0.50600
O 	O 	0.86950 0.57110 0.27150 -0.36500
O 	O 	0.80850 0.48410 0.34010 -0.48200
O 	O 	0.85572 0.66128 0.26137 -0.43600
O 	O 	0.87651 0.65541 0.22403 -0.46000
O 	O 	0.82789 0.78444 0.25322 -0.44500
O 	O 	0.81984 0.86202 0.28935 -0.45900
C 	C 	0.85270 0.58300 0.28530 0.38200
C 	C 	0.83700 0.56640 0.30340 -0.17700
C 	C 	0.83790 0.53870 0.30580 0.13600
C 	C 	0.86470 0.67010 0.23980 0.33900
C 	C 	0.86010 0.69860 0.23180 -0.15000
C 	C 	0.84810 0.71620 0.25010 0.12700
O 	O 	0.84750 0.10650 0.78340 -0.50600
O 	O 	0.86950 0.07110 0.77150 -0.36600
O 	O 	0.80850 0.98410 0.84010 -0.48200
O 	O 	0.85572 0.16128 0.76137 -0.43600
O 	O 	0.87651 0.15541 0.72403 -0.46000
O 	O 	0.82789 0.28444 0.75322 -0.44500
O 	O 	0.81984 0.36202 0.78935 -0.46000
C 	C 	0.85270 0.08300 0.78530 0.38200
C 	C 	0.83700 0.06640 0.80340 -0.17700
C 	C 	0.83790 0.03870 0.80580 0.13600
C 	C 	0.86470 0.17010 0.73980 0.33900
C 	C 	0.86010 0.19860 0.73180 -0.15000
C 	C 	0.84810 0.21620 0.75010 0.12700
O 	O 	0.40250 0.64350 0.28340 -0.50600
O 	O 	0.38050 0.67890 0.27150 -0.36500
O 	O 	0.44150 0.76590 0.34010 -0.48200
O 	O 	0.39428 0.58872 0.26137 -0.43600
O 	O 	0.37349 0.59459 0.22403 -0.46000
O 	O 	0.42211 0.46556 0.25322 -0.44500
O 	O 	0.43016 0.38798 0.28935 -0.45900
C 	C 	0.39730 0.66700 0.28530 0.38200
C 	C 	0.41300 0.68360 0.30340 -0.17700
C 	C 	0.41210 0.71130 0.30580 0.13600
C 	C 	0.38530 0.57990 0.23980 0.33900
C 	C 	0.38990 0.55140 0.23180 -0.15000
C 	C 	0.40190 0.53380 0.25010 0.12700
O 	O 	0.40250 0.14350 0.78340 -0.50600
O 	O 	0.38050 0.17890 0.77150 -0.36500
O 	O 	0.44150 0.26590 0.84010 -0.48200
O 	O 	0.39428 0.08872 0.76137 -0.43700
O 	O 	0.37349 0.09459 0.72403 -0.46000
O 	O 	0.42211 0.96556 0.75322 -0.44600
O 	O 	0.43016 0.88798 0.78935 -0.46000
C 	C 	0.39730 0.16700 0.78530 0.38200
C 	C 	0.41300 0.18360 0.80340 -0.17700
C 	C 	0.41210 0.21130 0.80580 0.13600
C 	C 	0.38530 0.07990 0.73980 0.33900
C 	C 	0.38990 0.05140 0.73180 -0.15100
C 	C 	0.40190 0.03380 0.75010 0.12700
O 	O 	0.90250 0.64350 0.78340 -0.50600
O 	O 	0.88050 0.67890 0.77150 -0.36500
O 	O 	0.94150 0.76590 0.84010 -0.48200
O 	O 	0.89428 0.58872 0.76137 -0.43600
O 	O 	0.87349 0.59459 0.72403 -0.46000
O 	O 	0.92211 0.46556 0.75322 -0.44500
O 	O 	0.93016 0.38798 0.78935 -0.45900
C 	C 	0.89730 0.66700 0.78530 0.38200
C 	C 	0.91300 0.68360 0.80340 -0.17700
C 	C 	0.91210 0.71130 0.80580 0.13600
C 	C 	0.88530 0.57990 0.73980 0.33900
C 	C 	0.88990 0.55140 0.73180 -0.15000
C 	C 	0.90190 0.53380 0.75010 0.12700
O 	O 	0.90250 0.14350 0.28340 -0.50600
O 	O 	0.88050 0.17890 0.27150 -0.36500
O 	O 	0.94150 0.26590 0.34010 -0.48200
O 	O 	0.89428 0.08872 0.26137 -0.43700
O 	O 	0.87349 0.09459 0.22403 -0.46000
O 	O 	0.92211 0.96556 0.25322 -0.44600
O 	O 	0.93016 0.88798 0.28935 -0.45900
C 	C 	0.89730 0.16700 0.28530 0.38200
C 	C 	0.91300 0.18360 0.30340 -0.17700
C 	C 	0.91210 0.21130 0.30580 0.13600
C 	C 	0.88530 0.07990 0.23980 0.33900
C 	C 	0.88990 0.05140 0.23180 -0.15100
C 	C 	0.90190 0.03380 0.25010 0.12700
O 	O 	0.64350 0.28340 0.40250 -0.50600
O 	O 	0.67890 0.27150 0.38050 -0.36500
O 	O 	0.76590 0.34010 0.44150 -0.48200
O 	O 	0.58872 0.26137 0.39428 -0.43600
O 	O 	0.59459 0.22403 0.37349 -0.46000
O 	O 	0.46556 0.25322 0.42211 -0.44500
O 	O 	0.38798 0.28935 0.43016 -0.45900
C 	C 	0.66700 0.28530 0.39730 0.38200
C 	C 	0.68360 0.30340 0.41300 -0.17700
C 	C 	0.71130 0.30580 0.41210 0.13600
C 	C 	0.57990 0.23980 0.38530 0.33900
C 	C 	0.55140 0.23180 0.38990 -0.15000
C 	C 	0.53380 0.25010 0.40190 0.12700
O 	O 	0.64350 0.78340 0.90250 -0.50600
O 	O 	0.67890 0.77150 0.88050 -0.36500
O 	O 	0.76590 0.84010 0.94150 -0.48200
O 	O 	0.58872 0.76137 0.89428 -0.43600
O 	O 	0.59459 0.72403 0.87349 -0.46000
O 	O 	0.46556 0.75322 0.92211 -0.44500
O 	O 	0.38798 0.78935 0.93016 -0.45900
C 	C 	0.66700 0.78530 0.89730 0.38200
C 	C 	0.68360 0.80340 0.91300 -0.17700
C 	C 	0.71130 0.80580 0.91210 0.13600
C 	C 	0.57990 0.73980 0.88530 0.33900
C 	C 	0.55140 0.73180 0.88990 -0.15000
C 	C 	0.53380 0.75010 0.90190 0.12700
O 	O 	0.14350 0.28340 0.90250 -0.50600
O 	O 	0.17890 0.27150 0.88050 -0.36500
O 	O 	0.26590 0.34010 0.94150 -0.48200
O 	O 	0.08872 0.26137 0.89428 -0.43700
O 	O 	0.09459 0.22403 0.87349 -0.46000
O 	O 	0.96556 0.25322 0.92211 -0.44600
O 	O 	0.88798 0.28935 0.93016 -0.45900
C 	C 	0.16700 0.28530 0.89730 0.38200
C 	C 	0.18360 0.30340 0.91300 -0.17700
C 	C 	0.21130 0.30580 0.91210 0.13600
C 	C 	0.07990 0.23980 0.88530 0.33900
C 	C 	0.05140 0.23180 0.88990 -0.15100
C 	C 	0.03380 0.25010 0.90190 0.12700
O 	O 	0.14350 0.78340 0.40250 -0.50600
O 	O 	0.17890 0.77150 0.38050 -0.36500
O 	O 	0.26590 0.84010 0.44150 -0.48200
O 	O 	0.08872 0.76137 0.39428 -0.43700
O 	O 	0.09459 0.72403 0.37349 -0.46000
O 	O 	0.96556 0.75322 0.42211 -0.44600
O 	O 	0.88798 0.78935 0.43016 -0.46000
C 	C 	0.16700 0.78530 0.39730 0.38200
C 	C 	0.18360 0.80340 0.41300 -0.17700
C 	C 	0.21130 0.80580 0.41210 0.13600
C 	C 	0.07990 0.73980 0.38530 0.33900
C 	C 	0.05140 0.73180 0.38990 -0.15100
C 	C 	0.03380 0.75010 0.40190 0.12700
O 	O 	0.60650 0.78340 0.34750 -0.50600
O 	O 	0.57110 0.77150 0.36950 -0.36500
O 	O 	0.48410 0.84010 0.30850 -0.48200
O 	O 	0.66128 0.76137 0.35572 -0.43700
O 	O 	0.65541 0.72403 0.37651 -0.46000
O 	O 	0.78444 0.75322 0.32789 -0.44500
O 	O 	0.86202 0.78935 0.31984 -0.45900
C 	C 	0.58300 0.78530 0.35270 0.38200
C 	C 	0.56640 0.80340 0.33700 -0.17700
C 	C 	0.53870 0.80580 0.33790 0.13600
C 	C 	0.67010 0.73980 0.36470 0.33900
C 	C 	0.69860 0.73180 0.36010 -0.15000
C 	C 	0.71620 0.75010 0.34810 0.12700
O 	O 	0.60650 0.28340 0.84750 -0.50600
O 	O 	0.57110 0.27150 0.86950 -0.36500
O 	O 	0.48410 0.34010 0.80850 -0.48200
O 	O 	0.66128 0.26137 0.85572 -0.43600
O 	O 	0.65541 0.22403 0.87651 -0.46000
O 	O 	0.78444 0.25322 0.82789 -0.44500
O 	O 	0.86202 0.28935 0.81984 -0.45900
C 	C 	0.58300 0.28530 0.85270 0.38200
C 	C 	0.56640 0.30340 0.83700 -0.17700
C 	C 	0.53870 0.30580 0.83790 0.13600
C 	C 	0.67010 0.23980 0.86470 0.33900
C 	C 	0.69860 0.23180 0.86010 -0.15000
C 	C 	0.71620 0.25010 0.84810 0.12700
O 	O 	0.10650 0.78340 0.84750 -0.50600
O 	O 	0.07110 0.77150 0.86950 -0.36600
O 	O 	0.98410 0.84010 0.80850 -0.48200
O 	O 	0.16128 0.76137 0.85572 -0.43600
O 	O 	0.15541 0.72403 0.87651 -0.46000
O 	O 	0.28444 0.75322 0.82789 -0.44500
O 	O 	0.36202 0.78935 0.81984 -0.46000
C 	C 	0.08300 0.78530 0.85270 0.38200
C 	C 	0.06640 0.80340 0.83700 -0.17700
C 	C 	0.03870 0.80580 0.83790 0.13600
C 	C 	0.17010 0.73980 0.86470 0.33900
C 	C 	0.19860 0.73180 0.86010 -0.15000
C 	C 	0.21620 0.75010 0.84810 0.12700
O 	O 	0.10650 0.28340 0.34750 -0.50600
O 	O 	0.07110 0.27150 0.36950 -0.36600
O 	O 	0.98410 0.34010 0.30850 -0.48200
O 	O 	0.16128 0.26137 0.35572 -0.43600
O 	O 	0.15541 0.22403 0.37651 -0.46000
O 	O 	0.28444 0.25322 0.32789 -0.44500
O 	O 	0.36202 0.28935 0.31984 -0.45900
C 	C 	0.08300 0.28530 0.35270 0.38200
C 	C 	0.06640 0.30340 0.33700 -0.17700
C 	C 	0.03870 0.30580 0.33790 0.13600
C 	C 	0.17010 0.23980 0.36470 0.33900
C 	C 	0.19860 0.23180 0.36010 -0.15000
C 	C 	0.21620 0.25010 0.34810 0.12700
O 	O 	0.10650 0.96660 0.90250 -0.50600
O 	O 	0.07110 0.97850 0.88050 -0.36500
O 	O 	0.98410 0.90990 0.94150 -0.48200
O 	O 	0.16128 0.98863 0.89428 -0.43500
O 	O 	0.15541 0.02597 0.87349 -0.46000
O 	O 	0.28444 0.99678 0.92211 -0.44500
O 	O 	0.36202 0.96065 0.93016 -0.45900
C 	C 	0.08300 0.96470 0.89730 0.38200
C 	C 	0.06640 0.94660 0.91300 -0.17700
C 	C 	0.03870 0.94420 0.91210 0.13600
C 	C 	0.17010 0.01020 0.88530 0.33800
C 	C 	0.19860 0.01820 0.88990 -0.15200
C 	C 	0.21620 0.99990 0.90190 0.13000
O 	O 	0.10650 0.46660 0.40250 -0.50600
O 	O 	0.07110 0.47850 0.38050 -0.36600
O 	O 	0.98410 0.40990 0.44150 -0.48200
O 	O 	0.16128 0.48863 0.39428 -0.43600
O 	O 	0.15541 0.52597 0.37349 -0.46000
O 	O 	0.28444 0.49678 0.42211 -0.44500
O 	O 	0.36202 0.46065 0.43016 -0.46000
C 	C 	0.08300 0.46470 0.39730 0.38200
C 	C 	0.06640 0.44660 0.41300 -0.17700
C 	C 	0.03870 0.44420 0.41210 0.13600
C 	C 	0.17010 0.51020 0.38530 0.33900
C 	C 	0.19860 0.51820 0.38990 -0.15000
C 	C 	0.21620 0.49990 0.40190 0.12700
O 	O 	0.60650 0.96660 0.40250 -0.50600
O 	O 	0.57110 0.97850 0.38050 -0.36500
O 	O 	0.48410 0.90990 0.44150 -0.48200
O 	O 	0.66128 0.98863 0.39428 -0.43500
O 	O 	0.65541 0.02597 0.37349 -0.46000
O 	O 	0.78444 0.99678 0.42211 -0.44500
O 	O 	0.86202 0.96065 0.43016 -0.45900
C 	C 	0.58300 0.96470 0.39730 0.38200
C 	C 	0.56640 0.94660 0.41300 -0.17700
C 	C 	0.53870 0.94420 0.41210 0.13600
C 	C 	0.67010 0.01020 0.38530 0.33800
C 	C 	0.69860 0.01820 0.38990 -0.15200
C 	C 	0.71620 0.99990 0.40190 0.13000
O 	O 	0.60650 0.46660 0.90250 -0.50600
O 	O 	0.57110 0.47850 0.88050 -0.36500
O 	O 	0.48410 0.40990 0.94150 -0.48200
O 	O 	0.66128 0.48863 0.89428 -0.43600
O 	O 	0.65541 0.52597 0.87349 -0.46000
O 	O 	0.78444 0.49678 0.92211 -0.44500
O 	O 	0.86202 0.46065 0.93016 -0.45900
C 	C 	0.58300 0.46470 0.89730 0.38200
C 	C 	0.56640 0.44660 0.91300 -0.17700
C 	C 	0.53870 0.44420 0.91210 0.13600
C 	C 	0.67010 0.51020 0.88530 0.33900
C 	C 	0.69860 0.51820 0.88990 -0.15000
C 	C 	0.71620 0.49990 0.90190 0.12700
O 	O 	0.14350 0.46660 0.84750 -0.50600
O 	O 	0.17890 0.47850 0.86950 -0.36500
O 	O 	0.26590 0.40990 0.80850 -0.48200
O 	O 	0.08872 0.48863 0.85572 -0.43700
O 	O 	0.09459 0.52597 0.87651 -0.46000
O 	O 	0.96556 0.49678 0.82789 -0.44600
O 	O 	0.88798 0.46065 0.81984 -0.46000
C 	C 	0.16700 0.46470 0.85270 0.38200
C 	C 	0.18360 0.44660 0.83700 -0.17700
C 	C 	0.21130 0.44420 0.83790 0.13600
C 	C 	0.07990 0.51020 0.86470 0.33900
C 	C 	0.05140 0.51820 0.86010 -0.15100
C 	C 	0.03380 0.49990 0.84810 0.12700
O 	O 	0.14350 0.96660 0.34750 -0.50600
O 	O 	0.17890 0.97850 0.36950 -0.36500
O 	O 	0.26590 0.90990 0.30850 -0.48200
O 	O 	0.08872 0.98863 0.35572 -0.43600
O 	O 	0.09459 0.02597 0.37651 -0.46000
O 	O 	0.96556 0.99678 0.32789 -0.44600
O 	O 	0.88798 0.96065 0.31984 -0.45900
C 	C 	0.16700 0.96470 0.35270 0.38200
C 	C 	0.18360 0.94660 0.33700 -0.17700
C 	C 	0.21130 0.94420 0.33790 0.13600
C 	C 	0.07990 0.01020 0.36470 0.33800
C 	C 	0.05140 0.01820 0.36010 -0.15300
C 	C 	0.03380 0.99990 0.34810 0.13100
O 	O 	0.64350 0.46660 0.34750 -0.50600
O 	O 	0.67890 0.47850 0.36950 -0.36500
O 	O 	0.76590 0.40990 0.30850 -0.48200
O 	O 	0.58872 0.48863 0.35572 -0.43600
O 	O 	0.59459 0.52597 0.37651 -0.46000
O 	O 	0.46556 0.49678 0.32789 -0.44500
O 	O 	0.38798 0.46065 0.31984 -0.46000
C 	C 	0.66700 0.46470 0.35270 0.38200
C 	C 	0.68360 0.44660 0.33700 -0.17700
C 	C 	0.71130 0.44420 0.33790 0.13600
C 	C 	0.57990 0.51020 0.36470 0.33900
C 	C 	0.55140 0.51820 0.36010 -0.15000
C 	C 	0.53380 0.49990 0.34810 0.12700
O 	O 	0.64350 0.96660 0.84750 -0.50600
O 	O 	0.67890 0.97850 0.86950 -0.36500
O 	O 	0.76590 0.90990 0.80850 -0.48200
O 	O 	0.58872 0.98863 0.85572 -0.43500
O 	O 	0.59459 0.02597 0.87651 -0.46000
O 	O 	0.46556 0.99678 0.82789 -0.44500
O 	O 	0.38798 0.96065 0.81984 -0.45900
C 	C 	0.66700 0.96470 0.85270 0.38200
C 	C 	0.68360 0.94660 0.83700 -0.17700
C 	C 	0.71130 0.94420 0.83790 0.13600
C 	C 	0.57990 0.01020 0.86470 0.33800
C 	C 	0.55140 0.01820 0.86010 -0.15200
C 	C 	0.53380 0.99990 0.84810 0.13000
O 	O 	0.78340 0.34750 0.60650 -0.50600
O 	O 	0.77150 0.36950 0.57110 -0.36500
O 	O 	0.84010 0.30850 0.48410 -0.48200
O 	O 	0.76137 0.35572 0.66128 -0.43700
O 	O 	0.72403 0.37651 0.65541 -0.46000
O 	O 	0.75322 0.32789 0.78444 -0.44500
O 	O 	0.78935 0.31984 0.86202 -0.45900
C 	C 	0.78530 0.35270 0.58300 0.38200
C 	C 	0.80340 0.33700 0.56640 -0.17700
C 	C 	0.80580 0.33790 0.53870 0.13600
C 	C 	0.73980 0.36470 0.67010 0.33900
C 	C 	0.73180 0.36010 0.69860 -0.15000
C 	C 	0.75010 0.34810 0.71620 0.12700
O 	O 	0.78340 0.84750 0.10650 -0.50600
O 	O 	0.77150 0.86950 0.07110 -0.36600
O 	O 	0.84010 0.80850 0.98410 -0.48200
O 	O 	0.76137 0.85572 0.16128 -0.43600
O 	O 	0.72403 0.87651 0.15541 -0.46000
O 	O 	0.75322 0.82789 0.28444 -0.44500
O 	O 	0.78935 0.81984 0.36202 -0.46000
C 	C 	0.78530 0.85270 0.08300 0.38200
C 	C 	0.80340 0.83700 0.06640 -0.17700
C 	C 	0.80580 0.83790 0.03870 0.13600
C 	C 	0.73980 0.86470 0.17010 0.33900
C 	C 	0.73180 0.86010 0.19860 -0.15000
C 	C 	0.75010 0.84810 0.21620 0.12700
O 	O 	0.28340 0.34750 0.10650 -0.50600
O 	O 	0.27150 0.36950 0.07110 -0.36600
O 	O 	0.34010 0.30850 0.98410 -0.48200
O 	O 	0.26137 0.35572 0.16128 -0.43600
O 	O 	0.22403 0.37651 0.15541 -0.46000
O 	O 	0.25322 0.32789 0.28444 -0.44500
O 	O 	0.28935 0.31984 0.36202 -0.45900
C 	C 	0.28530 0.35270 0.08300 0.38200
C 	C 	0.30340 0.33700 0.06640 -0.17700
C 	C 	0.30580 0.33790 0.03870 0.13600
C 	C 	0.23980 0.36470 0.17010 0.33900
C 	C 	0.23180 0.36010 0.19860 -0.15000
C 	C 	0.25010 0.34810 0.21620 0.12700
O 	O 	0.28340 0.84750 0.60650 -0.50600
O 	O 	0.27150 0.86950 0.57110 -0.36500
O 	O 	0.34010 0.80850 0.48410 -0.48200
O 	O 	0.26137 0.85572 0.66128 -0.43600
O 	O 	0.22403 0.87651 0.65541 -0.46000
O 	O 	0.25322 0.82789 0.78444 -0.44500
O 	O 	0.28935 0.81984 0.86202 -0.45900
C 	C 	0.28530 0.85270 0.58300 0.38200
C 	C 	0.30340 0.83700 0.56640 -0.17700
C 	C 	0.30580 0.83790 0.53870 0.13600
C 	C 	0.23980 0.86470 0.67010 0.33900
C 	C 	0.23180 0.86010 0.69860 -0.15000
C 	C 	0.25010 0.84810 0.71620 0.12700
O 	O 	0.28340 0.40250 0.64350 -0.50600
O 	O 	0.27150 0.38050 0.67890 -0.36500
O 	O 	0.34010 0.44150 0.76590 -0.48200
O 	O 	0.26137 0.39428 0.58872 -0.43600
O 	O 	0.22403 0.37349 0.59459 -0.46000
O 	O 	0.25322 0.42211 0.46556 -0.44500
O 	O 	0.28935 0.43016 0.38798 -0.45900
C 	C 	0.28530 0.39730 0.66700 0.38200
C 	C 	0.30340 0.41300 0.68360 -0.17700
C 	C 	0.30580 0.41210 0.71130 0.13600
C 	C 	0.23980 0.38530 0.57990 0.33900
C 	C 	0.23180 0.38990 0.55140 -0.15000
C 	C 	0.25010 0.40190 0.53380 0.12700
O 	O 	0.28340 0.90250 0.14350 -0.50600
O 	O 	0.27150 0.88050 0.17890 -0.36500
O 	O 	0.34010 0.94150 0.26590 -0.48200
O 	O 	0.26137 0.89428 0.08872 -0.43700
O 	O 	0.22403 0.87349 0.09459 -0.46000
O 	O 	0.25322 0.92211 0.96556 -0.44600
O 	O 	0.28935 0.93016 0.88798 -0.45900
C 	C 	0.28530 0.89730 0.16700 0.38200
C 	C 	0.30340 0.91300 0.18360 -0.17700
C 	C 	0.30580 0.91210 0.21130 0.13600
C 	C 	0.23980 0.88530 0.07990 0.33900
C 	C 	0.23180 0.88990 0.05140 -0.15100
C 	C 	0.25010 0.90190 0.03380 0.12700
O 	O 	0.78340 0.40250 0.14350 -0.50600
O 	O 	0.77150 0.38050 0.17890 -0.36500
O 	O 	0.84010 0.44150 0.26590 -0.48200
O 	O 	0.76137 0.39428 0.08872 -0.43700
O 	O 	0.72403 0.37349 0.09459 -0.46000
O 	O 	0.75322 0.42211 0.96556 -0.44600
O 	O 	0.78935 0.43016 0.88798 -0.46000
C 	C 	0.78530 0.39730 0.16700 0.38200
C 	C 	0.80340 0.41300 0.18360 -0.17700
C 	C 	0.80580 0.41210 0.21130 0.13600
C 	C 	0.73980 0.38530 0.07990 0.33900
C 	C 	0.73180 0.38990 0.05140 -0.15100
C 	C 	0.75010 0.40190 0.03380 0.12700
O 	O 	0.78340 0.90250 0.64350 -0.50600
O 	O 	0.77150 0.88050 0.67890 -0.36500
O 	O 	0.84010 0.94150 0.76590 -0.48200
O 	O 	0.76137 0.89428 0.58872 -0.43600
O 	O 	0.72403 0.87349 0.59459 -0.46000
O 	O 	0.75322 0.92211 0.46556 -0.44500
O 	O 	0.78935 0.93016 0.38798 -0.45900
C 	C 	0.78530 0.89730 0.66700 0.38200
C 	C 	0.80340 0.91300 0.68360 -0.17700
C 	C 	0.80580 0.91210 0.71130 0.13600
C 	C 	0.73980 0.88530 0.57990 0.33900
C 	C 	0.73180 0.88990 0.55140 -0.15000
C 	C 	0.75010 0.90190 0.53380 0.12700
O 	O 	0.46660 0.84750 0.14350 -0.50600
O 	O 	0.47850 0.86950 0.17890 -0.36500
O 	O 	0.40990 0.80850 0.26590 -0.48200
O 	O 	0.48863 0.85572 0.08872 -0.43700
O 	O 	0.52597 0.87651 0.09459 -0.46000
O 	O 	0.49678 0.82789 0.96556 -0.44600
O 	O 	0.46065 0.81984 0.88798 -0.46000
C 	C 	0.46470 0.85270 0.16700 0.38200
C 	C 	0.44660 0.83700 0.18360 -0.17700
C 	C 	0.44420 0.83790 0.21130 0.13600
C 	C 	0.51020 0.86470 0.07990 0.33900
C 	C 	0.51820 0.86010 0.05140 -0.15100
C 	C 	0.49990 0.84810 0.03380 0.12700
O 	O 	0.46660 0.34750 0.64350 -0.50600
O 	O 	0.47850 0.36950 0.67890 -0.36500
O 	O 	0.40990 0.30850 0.76590 -0.48200
O 	O 	0.48863 0.35572 0.58872 -0.43600
O 	O 	0.52597 0.37651 0.59459 -0.46000
O 	O 	0.49678 0.32789 0.46556 -0.44500
O 	O 	0.46065 0.31984 0.38798 -0.46000
C 	C 	0.46470 0.35270 0.66700 0.38200
C 	C 	0.44660 0.33700 0.68360 -0.17700
C 	C 	0.44420 0.33790 0.71130 0.13600
C 	C 	0.51020 0.36470 0.57990 0.33900
C 	C 	0.51820 0.36010 0.55140 -0.15000
C 	C 	0.49990 0.34810 0.53380 0.12700
O 	O 	0.96660 0.84750 0.64350 -0.50600
O 	O 	0.97850 0.86950 0.67890 -0.36500
O 	O 	0.90990 0.80850 0.76590 -0.48200
O 	O 	0.98863 0.85572 0.58872 -0.43500
O 	O 	0.02597 0.87651 0.59459 -0.46000
O 	O 	0.99678 0.82789 0.46556 -0.44500
O 	O 	0.96065 0.81984 0.38798 -0.45900
C 	C 	0.96470 0.85270 0.66700 0.38200
C 	C 	0.94660 0.83700 0.68360 -0.17700
C 	C 	0.94420 0.83790 0.71130 0.13600
C 	C 	0.01020 0.86470 0.57990 0.33800
C 	C 	0.01820 0.86010 0.55140 -0.15200
C 	C 	0.99990 0.84810 0.53380 0.13000
O 	O 	0.96660 0.34750 0.14350 -0.50600
O 	O 	0.97850 0.36950 0.17890 -0.36500
O 	O 	0.90990 0.30850 0.26590 -0.48200
O 	O 	0.98863 0.35572 0.08872 -0.43600
O 	O 	0.02597 0.37651 0.09459 -0.46000
O 	O 	0.99678 0.32789 0.96556 -0.44600
O 	O 	0.96065 0.31984 0.88798 -0.45900
C 	C 	0.96470 0.35270 0.16700 0.38200
C 	C 	0.94660 0.33700 0.18360 -0.17700
C 	C 	0.94420 0.33790 0.21130 0.13600
C 	C 	0.01020 0.36470 0.07990 0.33800
C 	C 	0.01820 0.36010 0.05140 -0.15300
C 	C 	0.99990 0.34810 0.03380 0.13100
O 	O 	0.96660 0.90250 0.10650 -0.50600
O 	O 	0.97850 0.88050 0.07110 -0.36500
O 	O 	0.90990 0.94150 0.98410 -0.48200
O 	O 	0.98863 0.89428 0.16128 -0.43500
O 	O 	0.02597 0.87349 0.15541 -0.46000
O 	O 	0.99678 0.92211 0.28444 -0.44500
O 	O 	0.96065 0.93016 0.36202 -0.45900
C 	C 	0.96470 0.89730 0.08300 0.38200
C 	C 	0.94660 0.91300 0.06640 -0.17700
C 	C 	0.94420 0.91210 0.03870 0.13600
C 	C 	0.01020 0.88530 0.17010 0.33800
C 	C 	0.01820 0.88990 0.19860 -0.15200
C 	C 	0.99990 0.90190 0.21620 0.13000
O 	O 	0.96660 0.40250 0.60650 -0.50600
O 	O 	0.97850 0.38050 0.57110 -0.36500
O 	O 	0.90990 0.44150 0.48410 -0.48200
O 	O 	0.98863 0.39428 0.66128 -0.43500
O 	O 	0.02597 0.37349 0.65541 -0.46000
O 	O 	0.99678 0.42211 0.78444 -0.44500
O 	O 	0.96065 0.43016 0.86202 -0.45900
C 	C 	0.96470 0.39730 0.58300 0.38200
C 	C 	0.94660 0.41300 0.56640 -0.17700
C 	C 	0.94420 0.41210 0.53870 0.13600
C 	C 	0.01020 0.38530 0.67010 0.33800
C 	C 	0.01820 0.38990 0.69860 -0.15200
C 	C 	0.99990 0.40190 0.71620 0.13000
O 	O 	0.46660 0.90250 0.60650 -0.50600
O 	O 	0.47850 0.88050 0.57110 -0.36500
O 	O 	0.40990 0.94150 0.48410 -0.48200
O 	O 	0.48863 0.89428 0.66128 -0.43600
O 	O 	0.52597 0.87349 0.65541 -0.46000
O 	O 	0.49678 0.92211 0.78444 -0.44500
O 	O 	0.46065 0.93016 0.86202 -0.45900
C 	C 	0.46470 0.89730 0.58300 0.38200
C 	C 	0.44660 0.91300 0.56640 -0.17700
C 	C 	0.44420 0.91210 0.53870 0.13600
C 	C 	0.51020 0.88530 0.67010 0.33900
C 	C 	0.51820 0.88990 0.69860 -0.15000
C 	C 	0.49990 0.90190 0.71620 0.12700
O 	O 	0.46660 0.40250 0.10650 -0.50600
O 	O 	0.47850 0.38050 0.07110 -0.36600
O 	O 	0.40990 0.44150 0.98410 -0.48200
O 	O 	0.48863 0.39428 0.16128 -0.43600
O 	O 	0.52597 0.37349 0.15541 -0.46000
O 	O 	0.49678 0.42211 0.28444 -0.44500
O 	O 	0.46065 0.43016 0.36202 -0.46000
C 	C 	0.46470 0.39730 0.08300 0.38200
C 	C 	0.44660 0.41300 0.06640 -0.17700
C 	C 	0.44420 0.41210 0.03870 0.13600
C 	C 	0.51020 0.38530 0.17010 0.33900
C 	C 	0.51820 0.38990 0.19860 -0.15000
C 	C 	0.49990 0.40190 0.21620 0.12700
O 	O 	0.10650 0.90250 0.96660 -0.50600
O 	O 	0.07110 0.88050 0.97850 -0.36500
O 	O 	0.98410 0.94150 0.90990 -0.48200
O 	O 	0.16128 0.89428 0.98863 -0.43500
O 	O 	0.15541 0.87349 0.02597 -0.46000
O 	O 	0.28444 0.92211 0.99678 -0.44500
O 	O 	0.36202 0.93016 0.96065 -0.45900
C 	C 	0.08300 0.89730 0.96470 0.38200
C 	C 	0.06640 0.91300 0.94660 -0.17700
C 	C 	0.03870 0.91210 0.94420 0.13600
C 	C 	0.17010 0.88530 0.01020 0.33800
C 	C 	0.19860 0.88990 0.01820 -0.15200
C 	C 	0.21620 0.90190 0.99990 0.13000
O 	O 	0.10650 0.40250 0.46660 -0.50600
O 	O 	0.07110 0.38050 0.47850 -0.36600
O 	O 	0.98410 0.44150 0.40990 -0.48200
O 	O 	0.16128 0.39428 0.48863 -0.43600
O 	O 	0.15541 0.37349 0.52597 -0.46000
O 	O 	0.28444 0.42211 0.49678 -0.44500
O 	O 	0.36202 0.43016 0.46065 -0.46000
C 	C 	0.08300 0.39730 0.46470 0.38200
C 	C 	0.06640 0.41300 0.44660 -0.17700
C 	C 	0.03870 0.41210 0.44420 0.13600
C 	C 	0.17010 0.38530 0.51020 0.33900
C 	C 	0.19860 0.38990 0.51820 -0.15000
C 	C 	0.21620 0.40190 0.49990 0.12700
O 	O 	0.60650 0.90250 0.46660 -0.50600
O 	O 	0.57110 0.88050 0.47850 -0.36500
O 	O 	0.48410 0.94150 0.40990 -0.48200
O 	O 	0.66128 0.89428 0.48863 -0.43600
O 	O 	0.65541 0.87349 0.52597 -0.46000
O 	O 	0.78444 0.92211 0.49678 -0.44500
O 	O 	0.86202 0.93016 0.46065 -0.45900
C 	C 	0.58300 0.89730 0.46470 0.38200
C 	C 	0.56640 0.91300 0.44660 -0.17700
C 	C 	0.53870 0.91210 0.44420 0.13600
C 	C 	0.67010 0.88530 0.51020 0.33900
C 	C 	0.69860 0.88990 0.51820 -0.15000
C 	C 	0.71620 0.90190 0.49990 0.12700
O 	O 	0.60650 0.40250 0.96660 -0.50600
O 	O 	0.57110 0.38050 0.97850 -0.36500
O 	O 	0.48410 0.44150 0.90990 -0.48200
O 	O 	0.66128 0.39428 0.98863 -0.43500
O 	O 	0.65541 0.37349 0.02597 -0.46000
O 	O 	0.78444 0.42211 0.99678 -0.44500
O 	O 	0.86202 0.43016 0.96065 -0.45900
C 	C 	0.58300 0.39730 0.96470 0.38200
C 	C 	0.56640 0.41300 0.94660 -0.17700
C 	C 	0.53870 0.41210 0.94420 0.13600
C 	C 	0.67010 0.38530 0.01020 0.33800
C 	C 	0.69860 0.38990 0.01820 -0.15200
C 	C 	0.71620 0.40190 0.99990 0.13000
O 	O 	0.14350 0.84750 0.46660 -0.50600
O 	O 	0.17890 0.86950 0.47850 -0.36500
O 	O 	0.26590 0.80850 0.40990 -0.48200
O 	O 	0.08872 0.85572 0.48863 -0.43700
O 	O 	0.09459 0.87651 0.52597 -0.46000
O 	O 	0.96556 0.82789 0.49678 -0.44600
O 	O 	0.88798 0.81984 0.46065 -0.46000
C 	C 	0.16700 0.85270 0.46470 0.38200
C 	C 	0.18360 0.83700 0.44660 -0.17700
C 	C 	0.21130 0.83790 0.44420 0.13600
C 	C 	0.07990 0.86470 0.51020 0.33900
C 	C 	0.05140 0.86010 0.51820 -0.15100
C 	C 	0.03380 0.84810 0.49990 0.12700
O 	O 	0.14350 0.34750 0.96660 -0.50600
O 	O 	0.17890 0.36950 0.97850 -0.36500
O 	O 	0.26590 0.30850 0.90990 -0.48200
O 	O 	0.08872 0.35572 0.98863 -0.43600
O 	O 	0.09459 0.37651 0.02597 -0.46000
O 	O 	0.96556 0.32789 0.99678 -0.44600
O 	O 	0.88798 0.31984 0.96065 -0.45900
C 	C 	0.16700 0.35270 0.96470 0.38200
C 	C 	0.18360 0.33700 0.94660 -0.17700
C 	C 	0.21130 0.33790 0.94420 0.13600
C 	C 	0.07990 0.36470 0.01020 0.33800
C 	C 	0.05140 0.36010 0.01820 -0.15300
C 	C 	0.03380 0.34810 0.99990 0.13100
O 	O 	0.64350 0.84750 0.96660 -0.50600
O 	O 	0.67890 0.86950 0.97850 -0.36500
O 	O 	0.76590 0.80850 0.90990 -0.48200
O 	O 	0.58872 0.85572 0.98863 -0.43500
O 	O 	0.59459 0.87651 0.02597 -0.46000
O 	O 	0.46556 0.82789 0.99678 -0.44500
O 	O 	0.38798 0.81984 0.96065 -0.45900
C 	C 	0.66700 0.85270 0.96470 0.38200
C 	C 	0.68360 0.83700 0.94660 -0.17700
C 	C 	0.71130 0.83790 0.94420 0.13600
C 	C 	0.57990 0.86470 0.01020 0.33800
C 	C 	0.55140 0.86010 0.01820 -0.15200
C 	C 	0.53380 0.84810 0.99990 0.13000
O 	O 	0.64350 0.34750 0.46660 -0.50600
O 	O 	0.67890 0.36950 0.47850 -0.36500
O 	O 	0.76590 0.30850 0.40990 -0.48200
O 	O 	0.58872 0.35572 0.48863 -0.43600
O 	O 	0.59459 0.37651 0.52597 -0.46000
O 	O 	0.46556 0.32789 0.49678 -0.44500
O 	O 	0.38798 0.31984 0.46065 -0.46000
C 	C 	0.66700 0.35270 0.46470 0.38200
C 	C 	0.68360 0.33700 0.44660 -0.17700
C 	C 	0.71130 0.33790 0.44420 0.13600
C 	C 	0.57990 0.36470 0.51020 0.33900
C 	C 	0.55140 0.36010 0.51820 -0.15000
C 	C 	0.53380 0.34810 0.49990 0.12700
O 	O 	0.64350 0.40250 0.28340 -0.50600
O 	O 	0.67890 0.38050 0.27150 -0.36500
O 	O 	0.76590 0.44150 0.34010 -0.48200
O 	O 	0.58872 0.39428 0.26137 -0.43600
O 	O 	0.59459 0.37349 0.22403 -0.46000
O 	O 	0.46556 0.42211 0.25322 -0.44500
O 	O 	0.38798 0.43016 0.28935 -0.45900
C 	C 	0.66700 0.39730 0.28530 0.38200
C 	C 	0.68360 0.41300 0.30340 -0.17700
C 	C 	0.71130 0.41210 0.30580 0.13600
C 	C 	0.57990 0.38530 0.23980 0.33900
C 	C 	0.55140 0.38990 0.23180 -0.15000
C 	C 	0.53380 0.40190 0.25010 0.12700
O 	O 	0.64350 0.90250 0.78340 -0.50600
O 	O 	0.67890 0.88050 0.77150 -0.36500
O 	O 	0.76590 0.94150 0.84010 -0.48200
O 	O 	0.58872 0.89428 0.76137 -0.43600
O 	O 	0.59459 0.87349 0.72403 -0.46000
O 	O 	0.46556 0.92211 0.75322 -0.44500
O 	O 	0.38798 0.93016 0.78935 -0.45900
C 	C 	0.66700 0.89730 0.78530 0.38200
C 	C 	0.68360 0.91300 0.80340 -0.17700
C 	C 	0.71130 0.91210 0.80580 0.13600
C 	C 	0.57990 0.88530 0.73980 0.33900
C 	C 	0.55140 0.88990 0.73180 -0.15000
C 	C 	0.53380 0.90190 0.75010 0.12700
O 	O 	0.14350 0.40250 0.78340 -0.50600
O 	O 	0.17890 0.38050 0.77150 -0.36500
O 	O 	0.26590 0.44150 0.84010 -0.48200
O 	O 	0.08872 0.39428 0.76137 -0.43700
O 	O 	0.09459 0.37349 0.72403 -0.46000
O 	O 	0.96556 0.42211 0.75322 -0.44600
O 	O 	0.88798 0.43016 0.78935 -0.46000
C 	C 	0.16700 0.39730 0.78530 0.38200
C 	C 	0.18360 0.41300 0.80340 -0.17700
C 	C 	0.21130 0.41210 0.80580 0.13600
C 	C 	0.07990 0.38530 0.73980 0.33900
C 	C 	0.05140 0.38990 0.73180 -0.15100
C 	C 	0.03380 0.40190 0.75010 0.12700
O 	O 	0.14350 0.90250 0.28340 -0.50600
O 	O 	0.17890 0.88050 0.27150 -0.36500
O 	O 	0.26590 0.94150 0.34010 -0.48200
O 	O 	0.08872 0.89428 0.26137 -0.43700
O 	O 	0.09459 0.87349 0.22403 -0.46000
O 	O 	0.96556 0.92211 0.25322 -0.44600
O 	O 	0.88798 0.93016 0.28935 -0.45900
C 	C 	0.16700 0.89730 0.28530 0.38200
C 	C 	0.18360 0.91300 0.30340 -0.17700
C 	C 	0.21130 0.91210 0.30580 0.13600
C 	C 	0.07990 0.88530 0.23980 0.33900
C 	C 	0.05140 0.88990 0.23180 -0.15100
C 	C 	0.03380 0.90190 0.25010 0.12700
O 	O 	0.60650 0.34750 0.78340 -0.50600
O 	O 	0.57110 0.36950 0.77150 -0.36500
O 	O 	0.48410 0.30850 0.84010 -0.48200
O 	O 	0.66128 0.35572 0.76137 -0.43700
O 	O 	0.65541 0.37651 0.72403 -0.46000
O 	O 	0.78444 0.32789 0.75322 -0.44500
O 	O 	0.86202 0.31984 0.78935 -0.45900
C 	C 	0.58300 0.35270 0.78530 0.38200
C 	C 	0.56640 0.33700 0.80340 -0.17700
C 	C 	0.53870 0.33790 0.80580 0.13600
C 	C 	0.67010 0.36470 0.73980 0.33900
C 	C 	0.69860 0.36010 0.73180 -0.15000
C 	C 	0.71620 0.34810 0.75010 0.12700
O 	O 	0.60650 0.84750 0.28340 -0.50600
O 	O 	0.57110 0.86950 0.27150 -0.36500
O 	O 	0.48410 0.80850 0.34010 -0.48200
O 	O 	0.66128 0.85572 0.26137 -0.43600
O 	O 	0.65541 0.87651 0.22403 -0.46000
O 	O 	0.78444 0.82789 0.25322 -0.44500
O 	O 	0.86202 0.81984 0.28935 -0.45900
C 	C 	0.58300 0.85270 0.28530 0.38200
C 	C 	0.56640 0.83700 0.30340 -0.17700
C 	C 	0.53870 0.83790 0.30580 0.13600
C 	C 	0.67010 0.86470 0.23980 0.33900
C 	C 	0.69860 0.86010 0.23180 -0.15000
C 	C 	0.71620 0.84810 0.25010 0.12700
O 	O 	0.10650 0.34750 0.28340 -0.50600
O 	O 	0.07110 0.36950 0.27150 -0.36600
O 	O 	0.98410 0.30850 0.34010 -0.48200
O 	O 	0.16128 0.35572 0.26137 -0.43600
O 	O 	0.15541 0.37651 0.22403 -0.46000
O 	O 	0.28444 0.32789 0.25322 -0.44500
O 	O 	0.36202 0.31984 0.28935 -0.45900
C 	C 	0.08300 0.35270 0.28530 0.38200
C 	C 	0.06640 0.33700 0.30340 -0.17700
C 	C 	0.03870 0.33790 0.30580 0.13600
C 	C 	0.17010 0.36470 0.23980 0.33900
C 	C 	0.19860 0.36010 0.23180 -0.15000
C 	C 	0.21620 0.34810 0.25010 0.12700
O 	O 	0.10650 0.84750 0.78340 -0.50600
O 	O 	0.07110 0.86950 0.77150 -0.36600
O 	O 	0.98410 0.80850 0.84010 -0.48200
O 	O 	0.16128 0.85572 0.76137 -0.43600
O 	O 	0.15541 0.87651 0.72403 -0.46000
O 	O 	0.28444 0.82789 0.75322 -0.44500
O 	O 	0.36202 0.81984 0.78935 -0.46000
C 	C 	0.08300 0.85270 0.78530 0.38200
C 	C 	0.06640 0.83700 0.80340 -0.17700
C 	C 	0.03870 0.83790 0.80580 0.13600
C 	C 	0.17010 0.86470 0.73980 0.33900
C 	C 	0.19860 0.86010 0.73180 -0.15000
C 	C 	0.21620 0.84810 0.75010 0.12700
O 	O 	0.96660 0.10650 0.90250 -0.50600
O 	O 	0.97850 0.07110 0.88050 -0.36500
O 	O 	0.90990 0.98410 0.94150 -0.48200
O 	O 	0.98863 0.16128 0.89428 -0.43500
O 	O 	0.02597 0.15541 0.87349 -0.46000
O 	O 	0.99678 0.28444 0.92211 -0.44500
O 	O 	0.96065 0.36202 0.93016 -0.45900
C 	C 	0.96470 0.08300 0.89730 0.38200
C 	C 	0.94660 0.06640 0.91300 -0.17700
C 	C 	0.94420 0.03870 0.91210 0.13600
C 	C 	0.01020 0.17010 0.88530 0.33800
C 	C 	0.01820 0.19860 0.88990 -0.15200
C 	C 	0.99990 0.21620 0.90190 0.13000
O 	O 	0.96660 0.60650 0.40250 -0.50600
O 	O 	0.97850 0.57110 0.38050 -0.36500
O 	O 	0.90990 0.48410 0.44150 -0.48200
O 	O 	0.98863 0.66128 0.39428 -0.43500
O 	O 	0.02597 0.65541 0.37349 -0.46000
O 	O 	0.99678 0.78444 0.42211 -0.44500
O 	O 	0.96065 0.86202 0.43016 -0.45900
C 	C 	0.96470 0.58300 0.39730 0.38200
C 	C 	0.94660 0.56640 0.41300 -0.17700
C 	C 	0.94420 0.53870 0.41210 0.13600
C 	C 	0.01020 0.67010 0.38530 0.33800
C 	C 	0.01820 0.69860 0.38990 -0.15200
C 	C 	0.99990 0.71620 0.40190 0.13000
O 	O 	0.46660 0.10650 0.40250 -0.50600
O 	O 	0.47850 0.07110 0.38050 -0.36600
O 	O 	0.40990 0.98410 0.44150 -0.48200
O 	O 	0.48863 0.16128 0.39428 -0.43600
O 	O 	0.52597 0.15541 0.37349 -0.46000
O 	O 	0.49678 0.28444 0.42211 -0.44500
O 	O 	0.46065 0.36202 0.43016 -0.46000
C 	C 	0.46470 0.08300 0.39730 0.38200
C 	C 	0.44660 0.06640 0.41300 -0.17700
C 	C 	0.44420 0.03870 0.41210 0.13600
C 	C 	0.51020 0.17010 0.38530 0.33900
C 	C 	0.51820 0.19860 0.38990 -0.15000
C 	C 	0.49990 0.21620 0.40190 0.12700
O 	O 	0.46660 0.60650 0.90250 -0.50600
O 	O 	0.47850 0.57110 0.88050 -0.36500
O 	O 	0.40990 0.48410 0.94150 -0.48200
O 	O 	0.48863 0.66128 0.89428 -0.43600
O 	O 	0.52597 0.65541 0.87349 -0.46000
O 	O 	0.49678 0.78444 0.92211 -0.44500
O 	O 	0.46065 0.86202 0.93016 -0.45900
C 	C 	0.46470 0.58300 0.89730 0.38200
C 	C 	0.44660 0.56640 0.91300 -0.17700
C 	C 	0.44420 0.53870 0.91210 0.13600
C 	C 	0.51020 0.67010 0.88530 0.33900
C 	C 	0.51820 0.69860 0.88990 -0.15000
C 	C 	0.49990 0.71620 0.90190 0.12700
O 	O 	0.46660 0.14350 0.84750 -0.50600
O 	O 	0.47850 0.17890 0.86950 -0.36500
O 	O 	0.40990 0.26590 0.80850 -0.48200
O 	O 	0.48863 0.08872 0.85572 -0.43700
O 	O 	0.52597 0.09459 0.87651 -0.46000
O 	O 	0.49678 0.96556 0.82789 -0.44600
O 	O 	0.46065 0.88798 0.81984 -0.46000
C 	C 	0.46470 0.16700 0.85270 0.38200
C 	C 	0.44660 0.18360 0.83700 -0.17700
C 	C 	0.44420 0.21130 0.83790 0.13600
C 	C 	0.51020 0.07990 0.86470 0.33900
C 	C 	0.51820 0.05140 0.86010 -0.15100
C 	C 	0.49990 0.03380 0.84810 0.12700
O 	O 	0.46660 0.64350 0.34750 -0.50600
O 	O 	0.47850 0.67890 0.36950 -0.36500
O 	O 	0.40990 0.76590 0.30850 -0.48200
O 	O 	0.48863 0.58872 0.35572 -0.43600
O 	O 	0.52597 0.59459 0.37651 -0.46000
O 	O 	0.49678 0.46556 0.32789 -0.44500
O 	O 	0.46065 0.38798 0.31984 -0.46000
C 	C 	0.46470 0.66700 0.35270 0.38200
C 	C 	0.44660 0.68360 0.33700 -0.17700
C 	C 	0.44420 0.71130 0.33790 0.13600
C 	C 	0.51020 0.57990 0.36470 0.33900
C 	C 	0.51820 0.55140 0.36010 -0.15000
C 	C 	0.49990 0.53380 0.34810 0.12700
O 	O 	0.96660 0.14350 0.34750 -0.50600
O 	O 	0.97850 0.17890 0.36950 -0.36500
O 	O 	0.90990 0.26590 0.30850 -0.48200
O 	O 	0.98863 0.08872 0.35572 -0.43600
O 	O 	0.02597 0.09459 0.37651 -0.46000
O 	O 	0.99678 0.96556 0.32789 -0.44600
O 	O 	0.96065 0.88798 0.31984 -0.45900
C 	C 	0.96470 0.16700 0.35270 0.38200
C 	C 	0.94660 0.18360 0.33700 -0.17700
C 	C 	0.94420 0.21130 0.33790 0.13600
C 	C 	0.01020 0.07990 0.36470 0.33800
C 	C 	0.01820 0.05140 0.36010 -0.15300
C 	C 	0.99990 0.03380 0.34810 0.13100
O 	O 	0.96660 0.64350 0.84750 -0.50600
O 	O 	0.97850 0.67890 0.86950 -0.36500
O 	O 	0.90990 0.76590 0.80850 -0.48200
O 	O 	0.98863 0.58872 0.85572 -0.43500
O 	O 	0.02597 0.59459 0.87651 -0.46000
O 	O 	0.99678 0.46556 0.82789 -0.44500
O 	O 	0.96065 0.38798 0.81984 -0.45900
C 	C 	0.96470 0.66700 0.85270 0.38200
C 	C 	0.94660 0.68360 0.83700 -0.17700
C 	C 	0.94420 0.71130 0.83790 0.13600
C 	C 	0.01020 0.57990 0.86470 0.33800
C 	C 	0.01820 0.55140 0.86010 -0.15200
C 	C 	0.99990 0.53380 0.84810 0.13000
O 	O 	0.28340 0.64350 0.40250 -0.50600
O 	O 	0.27150 0.67890 0.38050 -0.36500
O 	O 	0.34010 0.76590 0.44150 -0.48200
O 	O 	0.26137 0.58872 0.39428 -0.43600
O 	O 	0.22403 0.59459 0.37349 -0.46000
O 	O 	0.25322 0.46556 0.42211 -0.44500
O 	O 	0.28935 0.38798 0.43016 -0.45900
C 	C 	0.28530 0.66700 0.39730 0.38200
C 	C 	0.30340 0.68360 0.41300 -0.17700
C 	C 	0.30580 0.71130 0.41210 0.13600
C 	C 	0.23980 0.57990 0.38530 0.33900
C 	C 	0.23180 0.55140 0.38990 -0.15000
C 	C 	0.25010 0.53380 0.40190 0.12700
O 	O 	0.28340 0.14350 0.90250 -0.50600
O 	O 	0.27150 0.17890 0.88050 -0.36500
O 	O 	0.34010 0.26590 0.94150 -0.48200
O 	O 	0.26137 0.08872 0.89428 -0.43700
O 	O 	0.22403 0.09459 0.87349 -0.46000
O 	O 	0.25322 0.96556 0.92211 -0.44600
O 	O 	0.28935 0.88798 0.93016 -0.45900
C 	C 	0.28530 0.16700 0.89730 0.38200
C 	C 	0.30340 0.18360 0.91300 -0.17700
C 	C 	0.30580 0.21130 0.91210 0.13600
C 	C 	0.23980 0.07990 0.88530 0.33900
C 	C 	0.23180 0.05140 0.88990 -0.15100
C 	C 	0.25010 0.03380 0.90190 0.12700
O 	O 	0.78340 0.64350 0.90250 -0.50600
O 	O 	0.77150 0.67890 0.88050 -0.36500
O 	O 	0.84010 0.76590 0.94150 -0.48200
O 	O 	0.76137 0.58872 0.89428 -0.43600
O 	O 	0.72403 0.59459 0.87349 -0.46000
O 	O 	0.75322 0.46556 0.92211 -0.44500
O 	O 	0.78935 0.38798 0.93016 -0.45900
C 	C 	0.78530 0.66700 0.89730 0.38200
C 	C 	0.80340 0.68360 0.91300 -0.17700
C 	C 	0.80580 0.71130 0.91210 0.13600
C 	C 	0.73980 0.57990 0.88530 0.33900
C 	C 	0.73180 0.55140 0.88990 -0.15000
C 	C 	0.75010 0.53380 0.90190 0.12700
O 	O 	0.78340 0.14350 0.40250 -0.50600
O 	O 	0.77150 0.17890 0.38050 -0.36500
O 	O 	0.84010 0.26590 0.44150 -0.48200
O 	O 	0.76137 0.08872 0.39428 -0.43700
O 	O 	0.72403 0.09459 0.37349 -0.46000
O 	O 	0.75322 0.96556 0.42211 -0.44600
O 	O 	0.78935 0.88798 0.43016 -0.46000
C 	C 	0.78530 0.16700 0.39730 0.38200
C 	C 	0.80340 0.18360 0.41300 -0.17700
C 	C 	0.80580 0.21130 0.41210 0.13600
C 	C 	0.73980 0.07990 0.38530 0.33900
C 	C 	0.73180 0.05140 0.38990 -0.15100
C 	C 	0.75010 0.03380 0.40190 0.12700
O 	O 	0.78340 0.60650 0.34750 -0.50600
O 	O 	0.77150 0.57110 0.36950 -0.36500
O 	O 	0.84010 0.48410 0.30850 -0.48200
O 	O 	0.76137 0.66128 0.35572 -0.43700
O 	O 	0.72403 0.65541 0.37651 -0.46000
O 	O 	0.75322 0.78444 0.32789 -0.44500
O 	O 	0.78935 0.86202 0.31984 -0.45900
C 	C 	0.78530 0.58300 0.35270 0.38200
C 	C 	0.80340 0.56640 0.33700 -0.17700
C 	C 	0.80580 0.53870 0.33790 0.13600
C 	C 	0.73980 0.67010 0.36470 0.33900
C 	C 	0.73180 0.69860 0.36010 -0.15000
C 	C 	0.75010 0.71620 0.34810 0.12700
O 	O 	0.78340 0.10650 0.84750 -0.50600
O 	O 	0.77150 0.07110 0.86950 -0.36600
O 	O 	0.84010 0.98410 0.80850 -0.48200
O 	O 	0.76137 0.16128 0.85572 -0.43600
O 	O 	0.72403 0.15541 0.87651 -0.46000
O 	O 	0.75322 0.28444 0.82789 -0.44500
O 	O 	0.78935 0.36202 0.81984 -0.46000
C 	C 	0.78530 0.08300 0.85270 0.38200
C 	C 	0.80340 0.06640 0.83700 -0.17700
C 	C 	0.80580 0.03870 0.83790 0.13600
C 	C 	0.73980 0.17010 0.86470 0.33900
C 	C 	0.73180 0.19860 0.86010 -0.15000
C 	C 	0.75010 0.21620 0.84810 0.12700
O 	O 	0.28340 0.60650 0.84750 -0.50600
O 	O 	0.27150 0.57110 0.86950 -0.36500
O 	O 	0.34010 0.48410 0.80850 -0.48200
O 	O 	0.26137 0.66128 0.85572 -0.43600
O 	O 	0.22403 0.65541 0.87651 -0.46000
O 	O 	0.25322 0.78444 0.82789 -0.44500
O 	O 	0.28935 0.86202 0.81984 -0.45900
C 	C 	0.28530 0.58300 0.85270 0.38200
C 	C 	0.30340 0.56640 0.83700 -0.17700
C 	C 	0.30580 0.53870 0.83790 0.13600
C 	C 	0.23980 0.67010 0.86470 0.33900
C 	C 	0.23180 0.69860 0.86010 -0.15000
C 	C 	0.25010 0.71620 0.84810 0.12700
O 	O 	0.28340 0.10650 0.34750 -0.50600
O 	O 	0.27150 0.07110 0.36950 -0.36600
O 	O 	0.34010 0.98410 0.30850 -0.48200
O 	O 	0.26137 0.16128 0.35572 -0.43600
O 	O 	0.22403 0.15541 0.37651 -0.46000
O 	O 	0.25322 0.28444 0.32789 -0.44500
O 	O 	0.28935 0.36202 0.31984 -0.45900
C 	C 	0.28530 0.08300 0.35270 0.38200
C 	C 	0.30340 0.06640 0.33700 -0.17700
C 	C 	0.30580 0.03870 0.33790 0.13600
C 	C 	0.23980 0.17010 0.36470 0.33900
C 	C 	0.23180 0.19860 0.36010 -0.15000
C 	C 	0.25010 0.21620 0.34810 0.12700
O 	O 	0.90250 0.96660 0.10650 -0.50600
O 	O 	0.88050 0.97850 0.07110 -0.36500
O 	O 	0.94150 0.90990 0.98410 -0.48200
O 	O 	0.89428 0.98863 0.16128 -0.43500
O 	O 	0.87349 0.02597 0.15541 -0.46000
O 	O 	0.92211 0.99678 0.28444 -0.44500
O 	O 	0.93016 0.96065 0.36202 -0.45900
C 	C 	0.89730 0.96470 0.08300 0.38200
C 	C 	0.91300 0.94660 0.06640 -0.17700
C 	C 	0.91210 0.94420 0.03870 0.13600
C 	C 	0.88530 0.01020 0.17010 0.33800
C 	C 	0.88990 0.01820 0.19860 -0.15200
C 	C 	0.90190 0.99990 0.21620 0.13000
O 	O 	0.90250 0.46660 0.60650 -0.50600
O 	O 	0.88050 0.47850 0.57110 -0.36500
O 	O 	0.94150 0.40990 0.48410 -0.48200
O 	O 	0.89428 0.48863 0.66128 -0.43600
O 	O 	0.87349 0.52597 0.65541 -0.46000
O 	O 	0.92211 0.49678 0.78444 -0.44500
O 	O 	0.93016 0.46065 0.86202 -0.45900
C 	C 	0.89730 0.46470 0.58300 0.38200
C 	C 	0.91300 0.44660 0.56640 -0.17700
C 	C 	0.91210 0.44420 0.53870 0.13600
C 	C 	0.88530 0.51020 0.67010 0.33900
C 	C 	0.88990 0.51820 0.69860 -0.15000
C 	C 	0.90190 0.49990 0.71620 0.12700
O 	O 	0.40250 0.96660 0.60650 -0.50600
O 	O 	0.38050 0.97850 0.57110 -0.36500
O 	O 	0.44150 0.90990 0.48410 -0.48200
O 	O 	0.39428 0.98863 0.66128 -0.43500
O 	O 	0.37349 0.02597 0.65541 -0.46000
O 	O 	0.42211 0.99678 0.78444 -0.44500
O 	O 	0.43016 0.96065 0.86202 -0.45900
C 	C 	0.39730 0.96470 0.58300 0.38200
C 	C 	0.41300 0.94660 0.56640 -0.17700
C 	C 	0.41210 0.94420 0.53870 0.13600
C 	C 	0.38530 0.01020 0.67010 0.33800
C 	C 	0.38990 0.01820 0.69860 -0.15200
C 	C 	0.40190 0.99990 0.71620 0.13000
O 	O 	0.40250 0.46660 0.10650 -0.50600
O 	O 	0.38050 0.47850 0.07110 -0.36600
O 	O 	0.44150 0.40990 0.98410 -0.48200
O 	O 	0.39428 0.48863 0.16128 -0.43600
O 	O 	0.37349 0.52597 0.15541 -0.46000
O 	O 	0.42211 0.49678 0.28444 -0.44500
O 	O 	0.43016 0.46065 0.36202 -0.46000
C 	C 	0.39730 0.46470 0.08300 0.38200
C 	C 	0.41300 0.44660 0.06640 -0.17700
C 	C 	0.41210 0.44420 0.03870 0.13600
C 	C 	0.38530 0.51020 0.17010 0.33900
C 	C 	0.38990 0.51820 0.19860 -0.15000
C 	C 	0.40190 0.49990 0.21620 0.12700
O 	O 	0.84750 0.46660 0.14350 -0.50600
O 	O 	0.86950 0.47850 0.17890 -0.36500
O 	O 	0.80850 0.40990 0.26590 -0.48200
O 	O 	0.85572 0.48863 0.08872 -0.43700
O 	O 	0.87651 0.52597 0.09459 -0.46000
O 	O 	0.82789 0.49678 0.96556 -0.44600
O 	O 	0.81984 0.46065 0.88798 -0.46000
C 	C 	0.85270 0.46470 0.16700 0.38200
C 	C 	0.83700 0.44660 0.18360 -0.17700
C 	C 	0.83790 0.44420 0.21130 0.13600
C 	C 	0.86470 0.51020 0.07990 0.33900
C 	C 	0.86010 0.51820 0.05140 -0.15100
C 	C 	0.84810 0.49990 0.03380 0.12700
O 	O 	0.84750 0.96660 0.64350 -0.50600
O 	O 	0.86950 0.97850 0.67890 -0.36500
O 	O 	0.80850 0.90990 0.76590 -0.48200
O 	O 	0.85572 0.98863 0.58872 -0.43500
O 	O 	0.87651 0.02597 0.59459 -0.46000
O 	O 	0.82789 0.99678 0.46556 -0.44500
O 	O 	0.81984 0.96065 0.38798 -0.45900
C 	C 	0.85270 0.96470 0.66700 0.38200
C 	C 	0.83700 0.94660 0.68360 -0.17700
C 	C 	0.83790 0.94420 0.71130 0.13600
C 	C 	0.86470 0.01020 0.57990 0.33800
C 	C 	0.86010 0.01820 0.55140 -0.15200
C 	C 	0.84810 0.99990 0.53380 0.13000
O 	O 	0.34750 0.46660 0.64350 -0.50600
O 	O 	0.36950 0.47850 0.67890 -0.36500
O 	O 	0.30850 0.40990 0.76590 -0.48200
O 	O 	0.35572 0.48863 0.58872 -0.43600
O 	O 	0.37651 0.52597 0.59459 -0.46000
O 	O 	0.32789 0.49678 0.46556 -0.44500
O 	O 	0.31984 0.46065 0.38798 -0.46000
C 	C 	0.35270 0.46470 0.66700 0.38200
C 	C 	0.33700 0.44660 0.68360 -0.17700
C 	C 	0.33790 0.44420 0.71130 0.13600
C 	C 	0.36470 0.51020 0.57990 0.33900
C 	C 	0.36010 0.51820 0.55140 -0.15000
C 	C 	0.34810 0.49990 0.53380 0.12700
O 	O 	0.34750 0.96660 0.14350 -0.50600
O 	O 	0.36950 0.97850 0.17890 -0.36500
O 	O 	0.30850 0.90990 0.26590 -0.48200
O 	O 	0.35572 0.98863 0.08872 -0.43600
O 	O 	0.37651 0.02597 0.09459 -0.46000
O 	O 	0.32789 0.99678 0.96556 -0.44600
O 	O 	0.31984 0.96065 0.88798 -0.45900
C 	C 	0.35270 0.96470 0.16700 0.38200
C 	C 	0.33700 0.94660 0.18360 -0.17700
C 	C 	0.33790 0.94420 0.21130 0.13600
C 	C 	0.36470 0.01020 0.07990 0.33800
C 	C 	0.36010 0.01820 0.05140 -0.15300
C 	C 	0.34810 0.99990 0.03380 0.13100
O 	O 	0.40250 0.28340 0.64350 -0.50600
O 	O 	0.38050 0.27150 0.67890 -0.36500
O 	O 	0.44150 0.34010 0.76590 -0.48200
O 	O 	0.39428 0.26137 0.58872 -0.43600
O 	O 	0.37349 0.22403 0.59459 -0.46000
O 	O 	0.42211 0.25322 0.46556 -0.44500
O 	O 	0.43016 0.28935 0.38798 -0.45900
C 	C 	0.39730 0.28530 0.66700 0.38200
C 	C 	0.41300 0.30340 0.68360 -0.17700
C 	C 	0.41210 0.30580 0.71130 0.13600
C 	C 	0.38530 0.23980 0.57990 0.33900
C 	C 	0.38990 0.23180 0.55140 -0.15000
C 	C 	0.40190 0.25010 0.53380 0.12700
O 	O 	0.40250 0.78340 0.14350 -0.50600
O 	O 	0.38050 0.77150 0.17890 -0.36500
O 	O 	0.44150 0.84010 0.26590 -0.48200
O 	O 	0.39428 0.76137 0.08872 -0.43700
O 	O 	0.37349 0.72403 0.09459 -0.46000
O 	O 	0.42211 0.75322 0.96556 -0.44600
O 	O 	0.43016 0.78935 0.88798 -0.46000
C 	C 	0.39730 0.78530 0.16700 0.38200
C 	C 	0.41300 0.80340 0.18360 -0.17700
C 	C 	0.41210 0.80580 0.21130 0.13600
C 	C 	0.38530 0.73980 0.07990 0.33900
C 	C 	0.38990 0.73180 0.05140 -0.15100
C 	C 	0.40190 0.75010 0.03380 0.12700
O 	O 	0.90250 0.28340 0.14350 -0.50600
O 	O 	0.88050 0.27150 0.17890 -0.36500
O 	O 	0.94150 0.34010 0.26590 -0.48200
O 	O 	0.89428 0.26137 0.08872 -0.43700
O 	O 	0.87349 0.22403 0.09459 -0.46000
O 	O 	0.92211 0.25322 0.96556 -0.44600
O 	O 	0.93016 0.28935 0.88798 -0.45900
C 	C 	0.89730 0.28530 0.16700 0.38200
C 	C 	0.91300 0.30340 0.18360 -0.17700
C 	C 	0.91210 0.30580 0.21130 0.13600
C 	C 	0.88530 0.23980 0.07990 0.33900
C 	C 	0.88990 0.23180 0.05140 -0.15100
C 	C 	0.90190 0.25010 0.03380 0.12700
O 	O 	0.90250 0.78340 0.64350 -0.50600
O 	O 	0.88050 0.77150 0.67890 -0.36500
O 	O 	0.94150 0.84010 0.76590 -0.48200
O 	O 	0.89428 0.76137 0.58872 -0.43600
O 	O 	0.87349 0.72403 0.59459 -0.46000
O 	O 	0.92211 0.75322 0.46556 -0.44500
O 	O 	0.93016 0.78935 0.38798 -0.45900
C 	C 	0.89730 0.78530 0.66700 0.38200
C 	C 	0.91300 0.80340 0.68360 -0.17700
C 	C 	0.91210 0.80580 0.71130 0.13600
C 	C 	0.88530 0.73980 0.57990 0.33900
C 	C 	0.88990 0.73180 0.55140 -0.15000
C 	C 	0.90190 0.75010 0.53380 0.12700
O 	O 	0.34750 0.78340 0.60650 -0.50600
O 	O 	0.36950 0.77150 0.57110 -0.36500
O 	O 	0.30850 0.84010 0.48410 -0.48200
O 	O 	0.35572 0.76137 0.66128 -0.43700
O 	O 	0.37651 0.72403 0.65541 -0.46000
O 	O 	0.32789 0.75322 0.78444 -0.44500
O 	O 	0.31984 0.78935 0.86202 -0.45900
C 	C 	0.35270 0.78530 0.58300 0.38200
C 	C 	0.33700 0.80340 0.56640 -0.17700
C 	C 	0.33790 0.80580 0.53870 0.13600
C 	C 	0.36470 0.73980 0.67010 0.33900
C 	C 	0.36010 0.73180 0.69860 -0.15000
C 	C 	0.34810 0.75010 0.71620 0.12700
O 	O 	0.34750 0.28340 0.10650 -0.50600
O 	O 	0.36950 0.27150 0.07110 -0.36600
O 	O 	0.30850 0.34010 0.98410 -0.48200
O 	O 	0.35572 0.26137 0.16128 -0.43600
O 	O 	0.37651 0.22403 0.15541 -0.46000
O 	O 	0.32789 0.25322 0.28444 -0.44500
O 	O 	0.31984 0.28935 0.36202 -0.45900
C 	C 	0.35270 0.28530 0.08300 0.38200
C 	C 	0.33700 0.30340 0.06640 -0.17700
C 	C 	0.33790 0.30580 0.03870 0.13600
C 	C 	0.36470 0.23980 0.17010 0.33900
C 	C 	0.36010 0.23180 0.19860 -0.15000
C 	C 	0.34810 0.25010 0.21620 0.12700
O 	O 	0.84750 0.78340 0.10650 -0.50600
O 	O 	0.86950 0.77150 0.07110 -0.36600
O 	O 	0.80850 0.84010 0.98410 -0.48200
O 	O 	0.85572 0.76137 0.16128 -0.43600
O 	O 	0.87651 0.72403 0.15541 -0.46000
O 	O 	0.82789 0.75322 0.28444 -0.44500
O 	O 	0.81984 0.78935 0.36202 -0.46000
C 	C 	0.85270 0.78530 0.08300 0.38200
C 	C 	0.83700 0.80340 0.06640 -0.17700
C 	C 	0.83790 0.80580 0.03870 0.13600
C 	C 	0.86470 0.73980 0.17010 0.33900
C 	C 	0.86010 0.73180 0.19860 -0.15000
C 	C 	0.84810 0.75010 0.21620 0.12700
O 	O 	0.84750 0.28340 0.60650 -0.50600
O 	O 	0.86950 0.27150 0.57110 -0.36500
O 	O 	0.80850 0.34010 0.48410 -0.48200
O 	O 	0.85572 0.26137 0.66128 -0.43600
O 	O 	0.87651 0.22403 0.65541 -0.46000
O 	O 	0.82789 0.25322 0.78444 -0.44500
O 	O 	0.81984 0.28935 0.86202 -0.45900
C 	C 	0.85270 0.28530 0.58300 0.38200
C 	C 	0.83700 0.30340 0.56640 -0.17700
C 	C 	0.83790 0.30580 0.53870 0.13600
C 	C 	0.86470 0.23980 0.67010 0.33900
C 	C 	0.86010 0.23180 0.69860 -0.15000
C 	C 	0.84810 0.25010 0.71620 0.12700
O 	O 	0.15250 0.85650 0.53340 -0.50600
O 	O 	0.13050 0.82110 0.52150 -0.36500
O 	O 	0.19150 0.73410 0.59010 -0.48200
O 	O 	0.14428 0.91128 0.51137 -0.43600
O 	O 	0.12349 0.90541 0.47403 -0.46000
O 	O 	0.17211 0.03444 0.50322 -0.44500
O 	O 	0.18016 0.11202 0.53935 -0.46000
C 	C 	0.14730 0.83300 0.53530 0.38200
C 	C 	0.16300 0.81640 0.55340 -0.17700
C 	C 	0.16210 0.78870 0.55580 0.13600
C 	C 	0.13530 0.92010 0.48980 0.33900
C 	C 	0.13990 0.94860 0.48180 -0.15000
C 	C 	0.15190 0.96620 0.50010 0.12600
O 	O 	0.15250 0.35650 0.03340 -0.50600
O 	O 	0.13050 0.32110 0.02150 -0.36600
O 	O 	0.19150 0.23410 0.09010 -0.48200
O 	O 	0.14428 0.41128 0.01137 -0.43800
O 	O 	0.12349 0.40541 0.97403 -0.46000
O 	O 	0.17211 0.53444 0.00322 -0.44500
O 	O 	0.18016 0.61202 0.03935 -0.46000
C 	C 	0.14730 0.33300 0.03530 0.38200
C 	C 	0.16300 0.31640 0.05340 -0.17700
C 	C 	0.16210 0.28870 0.05580 0.13500
C 	C 	0.13530 0.42010 0.98980 0.34000
C 	C 	0.13990 0.44860 0.98180 -0.14900
C 	C 	0.15190 0.46620 0.00010 0.12300
O 	O 	0.65250 0.85650 0.03340 -0.50600
O 	O 	0.63050 0.82110 0.02150 -0.36600
O 	O 	0.69150 0.73410 0.09010 -0.48200
O 	O 	0.64428 0.91128 0.01137 -0.43700
O 	O 	0.62349 0.90541 0.97403 -0.46000
O 	O 	0.67211 0.03444 0.00322 -0.44500
O 	O 	0.68016 0.11202 0.03935 -0.46000
C 	C 	0.64730 0.83300 0.03530 0.38200
C 	C 	0.66300 0.81640 0.05340 -0.17700
C 	C 	0.66210 0.78870 0.05580 0.13500
C 	C 	0.63530 0.92010 0.98980 0.34000
C 	C 	0.63990 0.94860 0.98180 -0.14800
C 	C 	0.65190 0.96620 0.00010 0.12300
O 	O 	0.65250 0.35650 0.53340 -0.50600
O 	O 	0.63050 0.32110 0.52150 -0.36500
O 	O 	0.69150 0.23410 0.59010 -0.48200
O 	O 	0.64428 0.41128 0.51137 -0.43700
O 	O 	0.62349 0.40541 0.47403 -0.46000
O 	O 	0.67211 0.53444 0.50322 -0.44500
O 	O 	0.68016 0.61202 0.53935 -0.46000
C 	C 	0.64730 0.33300 0.53530 0.38200
C 	C 	0.66300 0.31640 0.55340 -0.17700
C 	C 	0.66210 0.28870 0.55580 0.13600
C 	C 	0.63530 0.42010 0.48980 0.33900
C 	C 	0.63990 0.44860 0.48180 -0.15000
C 	C 	0.65190 0.46620 0.50010 0.12700
O 	O 	0.09750 0.89350 0.03340 -0.50600
O 	O 	0.11950 0.92890 0.02150 -0.36600
O 	O 	0.05850 0.01590 0.09010 -0.48200
O 	O 	0.10572 0.83872 0.01137 -0.43800
O 	O 	0.12651 0.84459 0.97403 -0.46000
O 	O 	0.07789 0.71556 0.00322 -0.44500
O 	O 	0.06984 0.63798 0.03935 -0.46000
C 	C 	0.10270 0.91700 0.03530 0.38200
C 	C 	0.08700 0.93360 0.05340 -0.17700
C 	C 	0.08790 0.96130 0.05580 0.13500
C 	C 	0.11470 0.82990 0.98980 0.34000
C 	C 	0.11010 0.80140 0.98180 -0.14900
C 	C 	0.09810 0.78380 0.00010 0.12300
O 	O 	0.09750 0.39350 0.53340 -0.50600
O 	O 	0.11950 0.42890 0.52150 -0.36500
O 	O 	0.05850 0.51590 0.59010 -0.48200
O 	O 	0.10572 0.33872 0.51137 -0.43700
O 	O 	0.12651 0.34459 0.47403 -0.46000
O 	O 	0.07789 0.21556 0.50322 -0.44500
O 	O 	0.06984 0.13798 0.53935 -0.46000
C 	C 	0.10270 0.41700 0.53530 0.38200
C 	C 	0.08700 0.43360 0.55340 -0.17700
C 	C 	0.08790 0.46130 0.55580 0.13500
C 	C 	0.11470 0.32990 0.48980 0.33900
C 	C 	0.11010 0.30140 0.48180 -0.15000
C 	C 	0.09810 0.28380 0.50010 0.12700
O 	O 	0.59750 0.89350 0.53340 -0.50600
O 	O 	0.61950 0.92890 0.52150 -0.36500
O 	O 	0.55850 0.01590 0.59010 -0.48200
O 	O 	0.60572 0.83872 0.51137 -0.43700
O 	O 	0.62651 0.84459 0.47403 -0.46000
O 	O 	0.57789 0.71556 0.50322 -0.44500
O 	O 	0.56984 0.63798 0.53935 -0.46000
C 	C 	0.60270 0.91700 0.53530 0.38200
C 	C 	0.58700 0.93360 0.55340 -0.17700
C 	C 	0.58790 0.96130 0.55580 0.13500
C 	C 	0.61470 0.82990 0.48980 0.33900
C 	C 	0.61010 0.80140 0.48180 -0.15000
C 	C 	0.59810 0.78380 0.50010 0.12700
O 	O 	0.59750 0.39350 0.03340 -0.50600
O 	O 	0.61950 0.42890 0.02150 -0.36600
O 	O 	0.55850 0.51590 0.09010 -0.48200
O 	O 	0.60572 0.33872 0.01137 -0.43800
O 	O 	0.62651 0.34459 0.97403 -0.46000
O 	O 	0.57789 0.21556 0.00322 -0.44500
O 	O 	0.56984 0.13798 0.03935 -0.46000
C 	C 	0.60270 0.41700 0.03530 0.38200
C 	C 	0.58700 0.43360 0.05340 -0.17700
C 	C 	0.58790 0.46130 0.05580 0.13500
C 	C 	0.61470 0.32990 0.98980 0.34000
C 	C 	0.61010 0.30140 0.98180 -0.14900
C 	C 	0.59810 0.28380 0.00010 0.12300
O 	O 	0.65250 0.39350 0.21660 -0.50600
O 	O 	0.63050 0.42890 0.22850 -0.36500
O 	O 	0.69150 0.51590 0.15990 -0.48200
O 	O 	0.64428 0.33872 0.23863 -0.43600
O 	O 	0.62349 0.34459 0.27597 -0.46000
O 	O 	0.67211 0.21556 0.24678 -0.44500
O 	O 	0.68016 0.13798 0.21065 -0.46000
C 	C 	0.64730 0.41700 0.21470 0.38200
C 	C 	0.66300 0.43360 0.19660 -0.17700
C 	C 	0.66210 0.46130 0.19420 0.13600
C 	C 	0.63530 0.32990 0.26020 0.33900
C 	C 	0.63990 0.30140 0.26820 -0.15000
C 	C 	0.65190 0.28380 0.24990 0.12700
O 	O 	0.65250 0.89350 0.71660 -0.50600
O 	O 	0.63050 0.92890 0.72850 -0.36500
O 	O 	0.69150 0.01590 0.65990 -0.48200
O 	O 	0.64428 0.83872 0.73863 -0.43700
O 	O 	0.62349 0.84459 0.77597 -0.46000
O 	O 	0.67211 0.71556 0.74678 -0.44500
O 	O 	0.68016 0.63798 0.71065 -0.46000
C 	C 	0.64730 0.91700 0.71470 0.38200
C 	C 	0.66300 0.93360 0.69660 -0.17700
C 	C 	0.66210 0.96130 0.69420 0.13500
C 	C 	0.63530 0.82990 0.76020 0.33900
C 	C 	0.63990 0.80140 0.76820 -0.15000
C 	C 	0.65190 0.78380 0.74990 0.12700
O 	O 	0.15250 0.39350 0.71660 -0.50600
O 	O 	0.13050 0.42890 0.72850 -0.36500
O 	O 	0.19150 0.51590 0.65990 -0.48200
O 	O 	0.14428 0.33872 0.73863 -0.43700
O 	O 	0.12349 0.34459 0.77597 -0.46000
O 	O 	0.17211 0.21556 0.74678 -0.44500
O 	O 	0.18016 0.13798 0.71065 -0.46000
C 	C 	0.14730 0.41700 0.71470 0.38200
C 	C 	0.16300 0.43360 0.69660 -0.17700
C 	C 	0.16210 0.46130 0.69420 0.13600
C 	C 	0.13530 0.32990 0.76020 0.33900
C 	C 	0.13990 0.30140 0.76820 -0.15000
C 	C 	0.15190 0.28380 0.74990 0.12700
O 	O 	0.15250 0.89350 0.21660 -0.50600
O 	O 	0.13050 0.92890 0.22850 -0.36500
O 	O 	0.19150 0.01590 0.15990 -0.48200
O 	O 	0.14428 0.83872 0.23863 -0.43700
O 	O 	0.12349 0.84459 0.27597 -0.46000
O 	O 	0.17211 0.71556 0.24678 -0.44500
O 	O 	0.18016 0.63798 0.21065 -0.46000
C 	C 	0.14730 0.91700 0.21470 0.38200
C 	C 	0.16300 0.93360 0.19660 -0.17700
C 	C 	0.16210 0.96130 0.19420 0.13500
C 	C 	0.13530 0.82990 0.26020 0.33900
C 	C 	0.13990 0.80140 0.26820 -0.15000
C 	C 	0.15190 0.78380 0.24990 0.12700
O 	O 	0.59750 0.35650 0.71660 -0.50600
O 	O 	0.61950 0.32110 0.72850 -0.36500
O 	O 	0.55850 0.23410 0.65990 -0.48200
O 	O 	0.60572 0.41128 0.73863 -0.43700
O 	O 	0.62651 0.40541 0.77597 -0.46000
O 	O 	0.57789 0.53444 0.74678 -0.44500
O 	O 	0.56984 0.61202 0.71065 -0.46000
C 	C 	0.60270 0.33300 0.71470 0.38200
C 	C 	0.58700 0.31640 0.69660 -0.17700
C 	C 	0.58790 0.28870 0.69420 0.13600
C 	C 	0.61470 0.42010 0.76020 0.33900
C 	C 	0.61010 0.44860 0.76820 -0.15000
C 	C 	0.59810 0.46620 0.74990 0.12700
O 	O 	0.59750 0.85650 0.21660 -0.50600
O 	O 	0.61950 0.82110 0.22850 -0.36500
O 	O 	0.55850 0.73410 0.15990 -0.48200
O 	O 	0.60572 0.91128 0.23863 -0.43600
O 	O 	0.62651 0.90541 0.27597 -0.46000
O 	O 	0.57789 0.03444 0.24678 -0.44500
O 	O 	0.56984 0.11202 0.21065 -0.46000
C 	C 	0.60270 0.83300 0.21470 0.38200
C 	C 	0.58700 0.81640 0.19660 -0.17700
C 	C 	0.58790 0.78870 0.19420 0.13600
C 	C 	0.61470 0.92010 0.26020 0.33900
C 	C 	0.61010 0.94860 0.26820 -0.15000
C 	C 	0.59810 0.96620 0.24990 0.12600
O 	O 	0.09750 0.35650 0.21660 -0.50600
O 	O 	0.11950 0.32110 0.22850 -0.36500
O 	O 	0.05850 0.23410 0.15990 -0.48200
O 	O 	0.10572 0.41128 0.23863 -0.43700
O 	O 	0.12651 0.40541 0.27597 -0.46000
O 	O 	0.07789 0.53444 0.24678 -0.44500
O 	O 	0.06984 0.61202 0.21065 -0.46000
C 	C 	0.10270 0.33300 0.21470 0.38200
C 	C 	0.08700 0.31640 0.19660 -0.17700
C 	C 	0.08790 0.28870 0.19420 0.13500
C 	C 	0.11470 0.42010 0.26020 0.33900
C 	C 	0.11010 0.44860 0.26820 -0.15000
C 	C 	0.09810 0.46620 0.24990 0.12700
O 	O 	0.09750 0.85650 0.71660 -0.50600
O 	O 	0.11950 0.82110 0.72850 -0.36500
O 	O 	0.05850 0.73410 0.65990 -0.48200
O 	O 	0.10572 0.91128 0.73863 -0.43600
O 	O 	0.12651 0.90541 0.77597 -0.46000
O 	O 	0.07789 0.03444 0.74678 -0.44500
O 	O 	0.06984 0.11202 0.71065 -0.46000
C 	C 	0.10270 0.83300 0.71470 0.38200
C 	C 	0.08700 0.81640 0.69660 -0.17700
C 	C 	0.08790 0.78870 0.69420 0.13500
C 	C 	0.11470 0.92010 0.76020 0.33900
C 	C 	0.11010 0.94860 0.76820 -0.15000
C 	C 	0.09810 0.96620 0.74990 0.12600
O 	O 	0.35650 0.71660 0.59750 -0.50600
O 	O 	0.32110 0.72850 0.61950 -0.36500
O 	O 	0.23410 0.65990 0.55850 -0.48200
O 	O 	0.41128 0.73863 0.60572 -0.43700
O 	O 	0.40541 0.77597 0.62651 -0.46000
O 	O 	0.53444 0.74678 0.57789 -0.44500
O 	O 	0.61202 0.71065 0.56984 -0.46000
C 	C 	0.33300 0.71470 0.60270 0.38200
C 	C 	0.31640 0.69660 0.58700 -0.17700
C 	C 	0.28870 0.69420 0.58790 0.13600
C 	C 	0.42010 0.76020 0.61470 0.33900
C 	C 	0.44860 0.76820 0.61010 -0.15000
C 	C 	0.46620 0.74990 0.59810 0.12700
O 	O 	0.35650 0.21660 0.09750 -0.50600
O 	O 	0.32110 0.22850 0.11950 -0.36500
O 	O 	0.23410 0.15990 0.05850 -0.48200
O 	O 	0.41128 0.23863 0.10572 -0.43700
O 	O 	0.40541 0.27597 0.12651 -0.46000
O 	O 	0.53444 0.24678 0.07789 -0.44500
O 	O 	0.61202 0.21065 0.06984 -0.46000
C 	C 	0.33300 0.21470 0.10270 0.38200
C 	C 	0.31640 0.19660 0.08700 -0.17700
C 	C 	0.28870 0.19420 0.08790 0.13500
C 	C 	0.42010 0.26020 0.11470 0.33900
C 	C 	0.44860 0.26820 0.11010 -0.15000
C 	C 	0.46620 0.24990 0.09810 0.12700
O 	O 	0.85650 0.71660 0.09750 -0.50600
O 	O 	0.82110 0.72850 0.11950 -0.36500
O 	O 	0.73410 0.65990 0.05850 -0.48200
O 	O 	0.91128 0.73863 0.10572 -0.43600
O 	O 	0.90541 0.77597 0.12651 -0.46000
O 	O 	0.03444 0.74678 0.07789 -0.44500
O 	O 	0.11202 0.71065 0.06984 -0.46000
C 	C 	0.83300 0.71470 0.10270 0.38200
C 	C 	0.81640 0.69660 0.08700 -0.17700
C 	C 	0.78870 0.69420 0.08790 0.13500
C 	C 	0.92010 0.76020 0.11470 0.33900
C 	C 	0.94860 0.76820 0.11010 -0.15000
C 	C 	0.96620 0.74990 0.09810 0.12600
O 	O 	0.85650 0.21660 0.59750 -0.50600
O 	O 	0.82110 0.22850 0.61950 -0.36500
O 	O 	0.73410 0.15990 0.55850 -0.48200
O 	O 	0.91128 0.23863 0.60572 -0.43600
O 	O 	0.90541 0.27597 0.62651 -0.46000
O 	O 	0.03444 0.24678 0.57789 -0.44500
O 	O 	0.11202 0.21065 0.56984 -0.46000
C 	C 	0.83300 0.21470 0.60270 0.38200
C 	C 	0.81640 0.19660 0.58700 -0.17700
C 	C 	0.78870 0.19420 0.58790 0.13600
C 	C 	0.92010 0.26020 0.61470 0.33900
C 	C 	0.94860 0.26820 0.61010 -0.15000
C 	C 	0.96620 0.24990 0.59810 0.12600
O 	O 	0.39350 0.21660 0.65250 -0.50600
O 	O 	0.42890 0.22850 0.63050 -0.36500
O 	O 	0.51590 0.15990 0.69150 -0.48200
O 	O 	0.33872 0.23863 0.64428 -0.43600
O 	O 	0.34459 0.27597 0.62349 -0.46000
O 	O 	0.21556 0.24678 0.67211 -0.44500
O 	O 	0.13798 0.21065 0.68016 -0.46000
C 	C 	0.41700 0.21470 0.64730 0.38200
C 	C 	0.43360 0.19660 0.66300 -0.17700
C 	C 	0.46130 0.19420 0.66210 0.13600
C 	C 	0.32990 0.26020 0.63530 0.33900
C 	C 	0.30140 0.26820 0.63990 -0.15000
C 	C 	0.28380 0.24990 0.65190 0.12700
O 	O 	0.39350 0.71660 0.15250 -0.50600
O 	O 	0.42890 0.72850 0.13050 -0.36500
O 	O 	0.51590 0.65990 0.19150 -0.48200
O 	O 	0.33872 0.73863 0.14428 -0.43700
O 	O 	0.34459 0.77597 0.12349 -0.46000
O 	O 	0.21556 0.74678 0.17211 -0.44500
O 	O 	0.13798 0.71065 0.18016 -0.46000
C 	C 	0.41700 0.71470 0.14730 0.38200
C 	C 	0.43360 0.69660 0.16300 -0.17700
C 	C 	0.46130 0.69420 0.16210 0.13600
C 	C 	0.32990 0.76020 0.13530 0.33900
C 	C 	0.30140 0.76820 0.13990 -0.15000
C 	C 	0.28380 0.74990 0.15190 0.12700
O 	O 	0.89350 0.21660 0.15250 -0.50600
O 	O 	0.92890 0.22850 0.13050 -0.36500
O 	O 	0.01590 0.15990 0.19150 -0.48200
O 	O 	0.83872 0.23863 0.14428 -0.43700
O 	O 	0.84459 0.27597 0.12349 -0.46000
O 	O 	0.71556 0.24678 0.17211 -0.44500
O 	O 	0.63798 0.21065 0.18016 -0.46000
C 	C 	0.91700 0.21470 0.14730 0.38200
C 	C 	0.93360 0.19660 0.16300 -0.17700
C 	C 	0.96130 0.19420 0.16210 0.13500
C 	C 	0.82990 0.26020 0.13530 0.33900
C 	C 	0.80140 0.26820 0.13990 -0.15000
C 	C 	0.78380 0.24990 0.15190 0.12700
O 	O 	0.89350 0.71660 0.65250 -0.50600
O 	O 	0.92890 0.72850 0.63050 -0.36500
O 	O 	0.01590 0.65990 0.69150 -0.48200
O 	O 	0.83872 0.73863 0.64428 -0.43700
O 	O 	0.84459 0.77597 0.62349 -0.46000
O 	O 	0.71556 0.74678 0.67211 -0.44500
O 	O 	0.63798 0.71065 0.68016 -0.46000
C 	C 	0.91700 0.71470 0.64730 0.38200
C 	C 	0.93360 0.69660 0.66300 -0.17700
C 	C 	0.96130 0.69420 0.66210 0.13500
C 	C 	0.82990 0.76020 0.63530 0.33900
C 	C 	0.80140 0.76820 0.63990 -0.15000
C 	C 	0.78380 0.74990 0.65190 0.12700
O 	O 	0.89350 0.03340 0.09750 -0.50600
O 	O 	0.92890 0.02150 0.11950 -0.36600
O 	O 	0.01590 0.09010 0.05850 -0.48200
O 	O 	0.83872 0.01137 0.10572 -0.43800
O 	O 	0.84459 0.97403 0.12651 -0.46000
O 	O 	0.71556 0.00322 0.07789 -0.44500
O 	O 	0.63798 0.03935 0.06984 -0.46000
C 	C 	0.91700 0.03530 0.10270 0.38200
C 	C 	0.93360 0.05340 0.08700 -0.17700
C 	C 	0.96130 0.05580 0.08790 0.13500
C 	C 	0.82990 0.98980 0.11470 0.34000
C 	C 	0.80140 0.98180 0.11010 -0.14900
C 	C 	0.78380 0.00010 0.09810 0.12300
O 	O 	0.89350 0.53340 0.59750 -0.50600
O 	O 	0.92890 0.52150 0.61950 -0.36500
O 	O 	0.01590 0.59010 0.55850 -0.48200
O 	O 	0.83872 0.51137 0.60572 -0.43700
O 	O 	0.84459 0.47403 0.62651 -0.46000
O 	O 	0.71556 0.50322 0.57789 -0.44500
O 	O 	0.63798 0.53935 0.56984 -0.46000
C 	C 	0.91700 0.53530 0.60270 0.38200
C 	C 	0.93360 0.55340 0.58700 -0.17700
C 	C 	0.96130 0.55580 0.58790 0.13500
C 	C 	0.82990 0.48980 0.61470 0.33900
C 	C 	0.80140 0.48180 0.61010 -0.15000
C 	C 	0.78380 0.50010 0.59810 0.12700
O 	O 	0.39350 0.03340 0.59750 -0.50600
O 	O 	0.42890 0.02150 0.61950 -0.36600
O 	O 	0.51590 0.09010 0.55850 -0.48200
O 	O 	0.33872 0.01137 0.60572 -0.43800
O 	O 	0.34459 0.97403 0.62651 -0.46000
O 	O 	0.21556 0.00322 0.57789 -0.44500
O 	O 	0.13798 0.03935 0.56984 -0.46000
C 	C 	0.41700 0.03530 0.60270 0.38200
C 	C 	0.43360 0.05340 0.58700 -0.17700
C 	C 	0.46130 0.05580 0.58790 0.13500
C 	C 	0.32990 0.98980 0.61470 0.34000
C 	C 	0.30140 0.98180 0.61010 -0.14900
C 	C 	0.28380 0.00010 0.59810 0.12300
O 	O 	0.39350 0.53340 0.09750 -0.50600
O 	O 	0.42890 0.52150 0.11950 -0.36500
O 	O 	0.51590 0.59010 0.05850 -0.48200
O 	O 	0.33872 0.51137 0.10572 -0.43700
O 	O 	0.34459 0.47403 0.12651 -0.46000
O 	O 	0.21556 0.50322 0.07789 -0.44500
O 	O 	0.13798 0.53935 0.06984 -0.46000
C 	C 	0.41700 0.53530 0.10270 0.38200
C 	C 	0.43360 0.55340 0.08700 -0.17700
C 	C 	0.46130 0.55580 0.08790 0.13500
C 	C 	0.32990 0.48980 0.11470 0.33900
C 	C 	0.30140 0.48180 0.11010 -0.15000
C 	C 	0.28380 0.50010 0.09810 0.12700
O 	O 	0.85650 0.53340 0.15250 -0.50600
O 	O 	0.82110 0.52150 0.13050 -0.36500
O 	O 	0.73410 0.59010 0.19150 -0.48200
O 	O 	0.91128 0.51137 0.14428 -0.43600
O 	O 	0.90541 0.47403 0.12349 -0.46000
O 	O 	0.03444 0.50322 0.17211 -0.44500
O 	O 	0.11202 0.53935 0.18016 -0.46000
C 	C 	0.83300 0.53530 0.14730 0.38200
C 	C 	0.81640 0.55340 0.16300 -0.17700
C 	C 	0.78870 0.55580 0.16210 0.13600
C 	C 	0.92010 0.48980 0.13530 0.33900
C 	C 	0.94860 0.48180 0.13990 -0.15000
C 	C 	0.96620 0.50010 0.15190 0.12600
O 	O 	0.85650 0.03340 0.65250 -0.50600
O 	O 	0.82110 0.02150 0.63050 -0.36600
O 	O 	0.73410 0.09010 0.69150 -0.48200
O 	O 	0.91128 0.01137 0.64428 -0.43700
O 	O 	0.90541 0.97403 0.62349 -0.46000
O 	O 	0.03444 0.00322 0.67211 -0.44500
O 	O 	0.11202 0.03935 0.68016 -0.46000
C 	C 	0.83300 0.03530 0.64730 0.38200
C 	C 	0.81640 0.05340 0.66300 -0.17700
C 	C 	0.78870 0.05580 0.66210 0.13500
C 	C 	0.92010 0.98980 0.63530 0.34000
C 	C 	0.94860 0.98180 0.63990 -0.14800
C 	C 	0.96620 0.00010 0.65190 0.12300
O 	O 	0.35650 0.53340 0.65250 -0.50600
O 	O 	0.32110 0.52150 0.63050 -0.36500
O 	O 	0.23410 0.59010 0.69150 -0.48200
O 	O 	0.41128 0.51137 0.64428 -0.43700
O 	O 	0.40541 0.47403 0.62349 -0.46000
O 	O 	0.53444 0.50322 0.67211 -0.44500
O 	O 	0.61202 0.53935 0.68016 -0.46000
C 	C 	0.33300 0.53530 0.64730 0.38200
C 	C 	0.31640 0.55340 0.66300 -0.17700
C 	C 	0.28870 0.55580 0.66210 0.13600
C 	C 	0.42010 0.48980 0.63530 0.33900
C 	C 	0.44860 0.48180 0.63990 -0.15000
C 	C 	0.46620 0.50010 0.65190 0.12700
O 	O 	0.35650 0.03340 0.15250 -0.50600
O 	O 	0.32110 0.02150 0.13050 -0.36600
O 	O 	0.23410 0.09010 0.19150 -0.48200
O 	O 	0.41128 0.01137 0.14428 -0.43800
O 	O 	0.40541 0.97403 0.12349 -0.46000
O 	O 	0.53444 0.00322 0.17211 -0.44500
O 	O 	0.61202 0.03935 0.18016 -0.46000
C 	C 	0.33300 0.03530 0.14730 0.38200
C 	C 	0.31640 0.05340 0.16300 -0.17700
C 	C 	0.28870 0.05580 0.16210 0.13500
C 	C 	0.42010 0.98980 0.13530 0.34000
C 	C 	0.44860 0.98180 0.13990 -0.14900
C 	C 	0.46620 0.00010 0.15190 0.12300
O 	O 	0.21660 0.65250 0.39350 -0.50600
O 	O 	0.22850 0.63050 0.42890 -0.36500
O 	O 	0.15990 0.69150 0.51590 -0.48200
O 	O 	0.23863 0.64428 0.33872 -0.43600
O 	O 	0.27597 0.62349 0.34459 -0.46000
O 	O 	0.24678 0.67211 0.21556 -0.44500
O 	O 	0.21065 0.68016 0.13798 -0.46000
C 	C 	0.21470 0.64730 0.41700 0.38200
C 	C 	0.19660 0.66300 0.43360 -0.17700
C 	C 	0.19420 0.66210 0.46130 0.13600
C 	C 	0.26020 0.63530 0.32990 0.33900
C 	C 	0.26820 0.63990 0.30140 -0.15000
C 	C 	0.24990 0.65190 0.28380 0.12700
O 	O 	0.21660 0.15250 0.89350 -0.50600
O 	O 	0.22850 0.13050 0.92890 -0.36500
O 	O 	0.15990 0.19150 0.01590 -0.48200
O 	O 	0.23863 0.14428 0.83872 -0.43700
O 	O 	0.27597 0.12349 0.84459 -0.46000
O 	O 	0.24678 0.17211 0.71556 -0.44500
O 	O 	0.21065 0.18016 0.63798 -0.46000
C 	C 	0.21470 0.14730 0.91700 0.38200
C 	C 	0.19660 0.16300 0.93360 -0.17700
C 	C 	0.19420 0.16210 0.96130 0.13500
C 	C 	0.26020 0.13530 0.82990 0.33900
C 	C 	0.26820 0.13990 0.80140 -0.15000
C 	C 	0.24990 0.15190 0.78380 0.12700
O 	O 	0.71660 0.65250 0.89350 -0.50600
O 	O 	0.72850 0.63050 0.92890 -0.36500
O 	O 	0.65990 0.69150 0.01590 -0.48200
O 	O 	0.73863 0.64428 0.83872 -0.43700
O 	O 	0.77597 0.62349 0.84459 -0.46000
O 	O 	0.74678 0.67211 0.71556 -0.44500
O 	O 	0.71065 0.68016 0.63798 -0.46000
C 	C 	0.71470 0.64730 0.91700 0.38200
C 	C 	0.69660 0.66300 0.93360 -0.17700
C 	C 	0.69420 0.66210 0.96130 0.13500
C 	C 	0.76020 0.63530 0.82990 0.33900
C 	C 	0.76820 0.63990 0.80140 -0.15000
C 	C 	0.74990 0.65190 0.78380 0.12700
O 	O 	0.71660 0.15250 0.39350 -0.50600
O 	O 	0.72850 0.13050 0.42890 -0.36500
O 	O 	0.65990 0.19150 0.51590 -0.48200
O 	O 	0.73863 0.14428 0.33872 -0.43700
O 	O 	0.77597 0.12349 0.34459 -0.46000
O 	O 	0.74678 0.17211 0.21556 -0.44500
O 	O 	0.71065 0.18016 0.13798 -0.46000
C 	C 	0.71470 0.14730 0.41700 0.38200
C 	C 	0.69660 0.16300 0.43360 -0.17700
C 	C 	0.69420 0.16210 0.46130 0.13600
C 	C 	0.76020 0.13530 0.32990 0.33900
C 	C 	0.76820 0.13990 0.30140 -0.15000
C 	C 	0.74990 0.15190 0.28380 0.12700
O 	O 	0.71660 0.59750 0.35650 -0.50600
O 	O 	0.72850 0.61950 0.32110 -0.36500
O 	O 	0.65990 0.55850 0.23410 -0.48200
O 	O 	0.73863 0.60572 0.41128 -0.43700
O 	O 	0.77597 0.62651 0.40541 -0.46000
O 	O 	0.74678 0.57789 0.53444 -0.44500
O 	O 	0.71065 0.56984 0.61202 -0.46000
C 	C 	0.71470 0.60270 0.33300 0.38200
C 	C 	0.69660 0.58700 0.31640 -0.17700
C 	C 	0.69420 0.58790 0.28870 0.13600
C 	C 	0.76020 0.61470 0.42010 0.33900
C 	C 	0.76820 0.61010 0.44860 -0.15000
C 	C 	0.74990 0.59810 0.46620 0.12700
O 	O 	0.71660 0.09750 0.85650 -0.50600
O 	O 	0.72850 0.11950 0.82110 -0.36500
O 	O 	0.65990 0.05850 0.73410 -0.48200
O 	O 	0.73863 0.10572 0.91128 -0.43600
O 	O 	0.77597 0.12651 0.90541 -0.46000
O 	O 	0.74678 0.07789 0.03444 -0.44500
O 	O 	0.71065 0.06984 0.11202 -0.46000
C 	C 	0.71470 0.10270 0.83300 0.38200
C 	C 	0.69660 0.08700 0.81640 -0.17700
C 	C 	0.69420 0.08790 0.78870 0.13500
C 	C 	0.76020 0.11470 0.92010 0.33900
C 	C 	0.76820 0.11010 0.94860 -0.15000
C 	C 	0.74990 0.09810 0.96620 0.12600
O 	O 	0.21660 0.59750 0.85650 -0.50600
O 	O 	0.22850 0.61950 0.82110 -0.36500
O 	O 	0.15990 0.55850 0.73410 -0.48200
O 	O 	0.23863 0.60572 0.91128 -0.43600
O 	O 	0.27597 0.62651 0.90541 -0.46000
O 	O 	0.24678 0.57789 0.03444 -0.44500
O 	O 	0.21065 0.56984 0.11202 -0.46000
C 	C 	0.21470 0.60270 0.83300 0.38200
C 	C 	0.19660 0.58700 0.81640 -0.17700
C 	C 	0.19420 0.58790 0.78870 0.13600
C 	C 	0.26020 0.61470 0.92010 0.33900
C 	C 	0.26820 0.61010 0.94860 -0.15000
C 	C 	0.24990 0.59810 0.96620 0.12600
O 	O 	0.21660 0.09750 0.35650 -0.50600
O 	O 	0.22850 0.11950 0.32110 -0.36500
O 	O 	0.15990 0.05850 0.23410 -0.48200
O 	O 	0.23863 0.10572 0.41128 -0.43700
O 	O 	0.27597 0.12651 0.40541 -0.46000
O 	O 	0.24678 0.07789 0.53444 -0.44500
O 	O 	0.21065 0.06984 0.61202 -0.46000
C 	C 	0.21470 0.10270 0.33300 0.38200
C 	C 	0.19660 0.08700 0.31640 -0.17700
C 	C 	0.19420 0.08790 0.28870 0.13500
C 	C 	0.26020 0.11470 0.42010 0.33900
C 	C 	0.26820 0.11010 0.44860 -0.15000
C 	C 	0.24990 0.09810 0.46620 0.12700
O 	O 	0.53340 0.15250 0.85650 -0.50600
O 	O 	0.52150 0.13050 0.82110 -0.36500
O 	O 	0.59010 0.19150 0.73410 -0.48200
O 	O 	0.51137 0.14428 0.91128 -0.43600
O 	O 	0.47403 0.12349 0.90541 -0.46000
O 	O 	0.50322 0.17211 0.03444 -0.44500
O 	O 	0.53935 0.18016 0.11202 -0.46000
C 	C 	0.53530 0.14730 0.83300 0.38200
C 	C 	0.55340 0.16300 0.81640 -0.17700
C 	C 	0.55580 0.16210 0.78870 0.13600
C 	C 	0.48980 0.13530 0.92010 0.33900
C 	C 	0.48180 0.13990 0.94860 -0.15000
C 	C 	0.50010 0.15190 0.96620 0.12600
O 	O 	0.53340 0.65250 0.35650 -0.50600
O 	O 	0.52150 0.63050 0.32110 -0.36500
O 	O 	0.59010 0.69150 0.23410 -0.48200
O 	O 	0.51137 0.64428 0.41128 -0.43700
O 	O 	0.47403 0.62349 0.40541 -0.46000
O 	O 	0.50322 0.67211 0.53444 -0.44500
O 	O 	0.53935 0.68016 0.61202 -0.46000
C 	C 	0.53530 0.64730 0.33300 0.38200
C 	C 	0.55340 0.66300 0.31640 -0.17700
C 	C 	0.55580 0.66210 0.28870 0.13600
C 	C 	0.48980 0.63530 0.42010 0.33900
C 	C 	0.48180 0.63990 0.44860 -0.15000
C 	C 	0.50010 0.65190 0.46620 0.12700
O 	O 	0.03340 0.15250 0.35650 -0.50600
O 	O 	0.02150 0.13050 0.32110 -0.36600
O 	O 	0.09010 0.19150 0.23410 -0.48200
O 	O 	0.01137 0.14428 0.41128 -0.43800
O 	O 	0.97403 0.12349 0.40541 -0.46000
O 	O 	0.00322 0.17211 0.53444 -0.44500
O 	O 	0.03935 0.18016 0.61202 -0.46000
C 	C 	0.03530 0.14730 0.33300 0.38200
C 	C 	0.05340 0.16300 0.31640 -0.17700
C 	C 	0.05580 0.16210 0.28870 0.13500
C 	C 	0.98980 0.13530 0.42010 0.34000
C 	C 	0.98180 0.13990 0.44860 -0.14900
C 	C 	0.00010 0.15190 0.46620 0.12300
O 	O 	0.03340 0.65250 0.85650 -0.50600
O 	O 	0.02150 0.63050 0.82110 -0.36600
O 	O 	0.09010 0.69150 0.73410 -0.48200
O 	O 	0.01137 0.64428 0.91128 -0.43700
O 	O 	0.97403 0.62349 0.90541 -0.46000
O 	O 	0.00322 0.67211 0.03444 -0.44500
O 	O 	0.03935 0.68016 0.11202 -0.46000
C 	C 	0.03530 0.64730 0.83300 0.38200
C 	C 	0.05340 0.66300 0.81640 -0.17700
C 	C 	0.05580 0.66210 0.78870 0.13500
C 	C 	0.98980 0.63530 0.92010 0.34000
C 	C 	0.98180 0.63990 0.94860 -0.14800
C 	C 	0.00010 0.65190 0.96620 0.12300
O 	O 	0.03340 0.09750 0.89350 -0.50600
O 	O 	0.02150 0.11950 0.92890 -0.36600
O 	O 	0.09010 0.05850 0.01590 -0.48200
O 	O 	0.01137 0.10572 0.83872 -0.43800
O 	O 	0.97403 0.12651 0.84459 -0.46000
O 	O 	0.00322 0.07789 0.71556 -0.44500
O 	O 	0.03935 0.06984 0.63798 -0.46000
C 	C 	0.03530 0.10270 0.91700 0.38200
C 	C 	0.05340 0.08700 0.93360 -0.17700
C 	C 	0.05580 0.08790 0.96130 0.13500
C 	C 	0.98980 0.11470 0.82990 0.34000
C 	C 	0.98180 0.11010 0.80140 -0.14900
C 	C 	0.00010 0.09810 0.78380 0.12300
O 	O 	0.03340 0.59750 0.39350 -0.50600
O 	O 	0.02150 0.61950 0.42890 -0.36600
O 	O 	0.09010 0.55850 0.51590 -0.48200
O 	O 	0.01137 0.60572 0.33872 -0.43800
O 	O 	0.97403 0.62651 0.34459 -0.46000
O 	O 	0.00322 0.57789 0.21556 -0.44500
O 	O 	0.03935 0.56984 0.13798 -0.46000
C 	C 	0.03530 0.60270 0.41700 0.38200
C 	C 	0.05340 0.58700 0.43360 -0.17700
C 	C 	0.05580 0.58790 0.46130 0.13500
C 	C 	0.98980 0.61470 0.32990 0.34000
C 	C 	0.98180 0.61010 0.30140 -0.14900
C 	C 	0.00010 0.59810 0.28380 0.12300
O 	O 	0.53340 0.09750 0.39350 -0.50600
O 	O 	0.52150 0.11950 0.42890 -0.36500
O 	O 	0.59010 0.05850 0.51590 -0.48200
O 	O 	0.51137 0.10572 0.33872 -0.43700
O 	O 	0.47403 0.12651 0.34459 -0.46000
O 	O 	0.50322 0.07789 0.21556 -0.44500
O 	O 	0.53935 0.06984 0.13798 -0.46000
C 	C 	0.53530 0.10270 0.41700 0.38200
C 	C 	0.55340 0.08700 0.43360 -0.17700
C 	C 	0.55580 0.08790 0.46130 0.13500
C 	C 	0.48980 0.11470 0.32990 0.33900
C 	C 	0.48180 0.11010 0.30140 -0.15000
C 	C 	0.50010 0.09810 0.28380 0.12700
O 	O 	0.53340 0.59750 0.89350 -0.50600
O 	O 	0.52150 0.61950 0.92890 -0.36500
O 	O 	0.59010 0.55850 0.01590 -0.48200
O 	O 	0.51137 0.60572 0.83872 -0.43700
O 	O 	0.47403 0.62651 0.84459 -0.46000
O 	O 	0.50322 0.57789 0.71556 -0.44500
O 	O 	0.53935 0.56984 0.63798 -0.46000
C 	C 	0.53530 0.60270 0.91700 0.38200
C 	C 	0.55340 0.58700 0.93360 -0.17700
C 	C 	0.55580 0.58790 0.96130 0.13500
C 	C 	0.48980 0.61470 0.82990 0.33900
C 	C 	0.48180 0.61010 0.80140 -0.15000
C 	C 	0.50010 0.59810 0.78380 0.12700
In	In	0.87972 0.12028 -0.00000 1.99400
In	In	0.87972 0.62028 0.50000 1.99400
In	In	0.37972 0.12028 0.50000 1.99400
In	In	0.37972 0.62028 -0.00000 1.99400
In	In	0.87028 0.12972 0.50000 1.99400
In	In	0.87028 0.62972 -0.00000 1.99400
In	In	0.37028 0.12972 -0.00000 1.99400
In	In	0.37028 0.62972 0.50000 1.99400
In	In	0.37028 0.62028 0.75000 1.99400
In	In	0.37028 0.12028 0.25000 1.99400
In	In	0.87028 0.62028 0.25000 1.99400
In	In	0.87028 0.12028 0.75000 1.99400
In	In	0.37972 0.62972 0.25000 1.99400
In	In	0.37972 0.12972 0.75000 1.99400
In	In	0.87972 0.62972 0.75000 1.99400
In	In	0.87972 0.12972 0.25000 1.99400
In	In	-0.00000 0.87972 0.12028 1.99400
In	In	0.00000 0.37972 0.62028 1.99400
In	In	0.50000 0.87972 0.62028 1.99400
In	In	0.50000 0.37972 0.12028 1.99400
In	In	0.50000 0.87028 0.12972 1.99400
In	In	0.50000 0.37028 0.62972 1.99400
In	In	-0.00000 0.87028 0.62972 1.99400
In	In	-0.00000 0.37028 0.12972 1.99400
In	In	0.75000 0.37028 0.62028 1.99400
In	In	0.75000 0.87028 0.12028 1.99400
In	In	0.25000 0.37028 0.12028 1.99400
In	In	0.25000 0.87028 0.62028 1.99400
In	In	0.25000 0.37972 0.62972 1.99400
In	In	0.25000 0.87972 0.12972 1.99400
In	In	0.75000 0.37972 0.12972 1.99400
In	In	0.75000 0.87972 0.62972 1.99400
In	In	0.12028 -0.00000 0.87972 1.99400
In	In	0.12028 0.50000 0.37972 1.99400
In	In	0.62028 0.00000 0.37972 1.99400
In	In	0.62028 0.50000 0.87972 1.99400
In	In	0.12972 0.50000 0.87028 1.99400
In	In	0.12972 -0.00000 0.37028 1.99400
In	In	0.62972 0.50000 0.37028 1.99400
In	In	0.62972 0.00000 0.87028 1.99400
In	In	0.62028 0.75000 0.37028 1.99400
In	In	0.62028 0.25000 0.87028 1.99400
In	In	0.12028 0.75000 0.87028 1.99400
In	In	0.12028 0.25000 0.37028 1.99400
In	In	0.62972 0.25000 0.37972 1.99400
In	In	0.62972 0.75000 0.87972 1.99400
In	In	0.12972 0.25000 0.87972 1.99400
In	In	0.12972 0.75000 0.37972 1.99400
In	In	0.12028 0.87972 -0.00000 1.99400
In	In	0.12028 0.37972 0.50000 1.99400
In	In	0.62028 0.87972 0.50000 1.99400
In	In	0.62028 0.37972 -0.00000 1.99400
In	In	0.12972 0.87028 0.50000 1.99400
In	In	0.12972 0.37028 -0.00000 1.99400
In	In	0.62972 0.87028 -0.00000 1.99400
In	In	0.62972 0.37028 0.50000 1.99400
In	In	0.62972 0.37972 0.25000 1.99400
In	In	0.62972 0.87972 0.75000 1.99400
In	In	0.12972 0.37972 0.75000 1.99400
In	In	0.12972 0.87972 0.25000 1.99400
In	In	0.62028 0.37028 0.75000 1.99400
In	In	0.62028 0.87028 0.25000 1.99400
In	In	0.12028 0.37028 0.25000 1.99400
In	In	0.12028 0.87028 0.75000 1.99400
In	In	-0.00000 0.12028 0.87972 1.99400
In	In	0.00000 0.62028 0.37972 1.99400
In	In	0.50000 0.12028 0.37972 1.99400
In	In	0.50000 0.62028 0.87972 1.99400
In	In	0.50000 0.12972 0.87028 1.99400
In	In	0.50000 0.62972 0.37028 1.99400
In	In	-0.00000 0.12972 0.37028 1.99400
In	In	-0.00000 0.62972 0.87028 1.99400
In	In	0.25000 0.62972 0.37972 1.99400
In	In	0.25000 0.12972 0.87972 1.99400
In	In	0.75000 0.62972 0.87972 1.99400
In	In	0.75000 0.12972 0.37972 1.99400
In	In	0.75000 0.62028 0.37028 1.99400
In	In	0.75000 0.12028 0.87028 1.99400
In	In	0.25000 0.62028 0.87028 1.99400
In	In	0.25000 0.12028 0.37028 1.99400
In	In	0.87972 -0.00000 0.12028 1.99400
In	In	0.87972 0.50000 0.62028 1.99400
In	In	0.37972 -0.00000 0.62028 1.99400
In	In	0.37972 0.50000 0.12028 1.99400
In	In	0.87028 0.50000 0.12972 1.99400
In	In	0.87028 -0.00000 0.62972 1.99400
In	In	0.37028 0.50000 0.62972 1.99400
In	In	0.37028 0.00000 0.12972 1.99400
In	In	0.37972 0.25000 0.62972 1.99400
In	In	0.37972 0.75000 0.12972 1.99400
In	In	0.87972 0.25000 0.12972 1.99400
In	In	0.87972 0.75000 0.62972 1.99400
In	In	0.37028 0.75000 0.62028 1.99400
In	In	0.37028 0.25000 0.12028 1.99400
In	In	0.87028 0.75000 0.12028 1.99400
In	In	0.87028 0.25000 0.62028 1.99400
Cd	Cd	0.67790 0.07210 0.02235 1.26000
Cd	Cd	0.67790 0.57210 0.52235 1.26000
Cd	Cd	0.07210 0.17790 0.52235 1.26000
Cd	Cd	0.57210 0.17790 0.02235 1.26000
Cd	Cd	0.57210 0.67790 0.52235 1.26000
Cd	Cd	0.57210 0.57210 0.72765 1.26000
Cd	Cd	0.57210 0.07210 0.22765 1.26000
Cd	Cd	0.07210 0.57210 0.22765 1.26000
Cd	Cd	0.07210 0.07210 0.72765 1.26000
Cd	Cd	0.17790 0.67790 0.22765 1.26000
Cd	Cd	0.17790 0.17790 0.72765 1.26000
Cd	Cd	0.02235 0.67790 0.07210 1.26000
Cd	Cd	0.02235 0.17790 0.57210 1.26000
Cd	Cd	0.52235 0.67790 0.57210 1.26000
Cd	Cd	0.52235 0.07210 0.17790 1.26000
Cd	Cd	0.52235 0.57210 0.67790 1.26000
Cd	Cd	0.72765 0.57210 0.57210 1.26000
Cd	Cd	0.72765 0.07210 0.07210 1.26000
Cd	Cd	0.22765 0.57210 0.07210 1.26000
Cd	Cd	0.22765 0.07210 0.57210 1.26000
Cd	Cd	0.22765 0.17790 0.67790 1.26000
Cd	Cd	0.72765 0.17790 0.17790 1.26000
Cd	Cd	0.07210 0.02235 0.67790 1.26000
Cd	Cd	0.57210 0.02235 0.17790 1.26000
Cd	Cd	0.57210 0.52235 0.67790 1.26000
Cd	Cd	0.17790 0.52235 0.07210 1.26000
Cd	Cd	0.17790 0.02235 0.57210 1.26000
Cd	Cd	0.67790 0.52235 0.57210 1.26000
Cd	Cd	0.57210 0.72765 0.57210 1.26000
Cd	Cd	0.57210 0.22765 0.07210 1.26000
Cd	Cd	0.07210 0.72765 0.07210 1.26000
Cd	Cd	0.07210 0.22765 0.57210 1.26000
Cd	Cd	0.67790 0.22765 0.17790 1.26000
Cd	Cd	0.67790 0.72765 0.67790 1.26000
Cd	Cd	0.17790 0.72765 0.17790 1.26000
Cd	Cd	0.82210 0.92790 0.47765 1.26000
Cd	Cd	0.82210 0.42790 0.97765 1.26000
Cd	Cd	0.92790 0.32210 0.97765 1.26000
Cd	Cd	0.42790 0.32210 0.47765 1.26000
Cd	Cd	0.32210 0.82210 0.77235 1.26000
Cd	Cd	0.32210 0.32210 0.27235 1.26000
Cd	Cd	0.42790 0.42790 0.27235 1.26000
Cd	Cd	0.42790 0.92790 0.77235 1.26000
Cd	Cd	0.92790 0.42790 0.77235 1.26000
Cd	Cd	0.92790 0.92790 0.27235 1.26000
Cd	Cd	0.42790 0.27235 0.42790 1.26000
Cd	Cd	0.42790 0.77235 0.92790 1.26000
Cd	Cd	0.92790 0.27235 0.92790 1.26000
Cd	Cd	0.92790 0.77235 0.42790 1.26000
Cd	Cd	0.82210 0.77235 0.32210 1.26000
Cd	Cd	0.82210 0.27235 0.82210 1.26000
Cd	Cd	0.32210 0.27235 0.32210 1.26000
Cd	Cd	0.32210 0.97765 0.92790 1.26000
Cd	Cd	0.32210 0.47765 0.42790 1.26000
Cd	Cd	0.92790 0.47765 0.82210 1.26000
Cd	Cd	0.42790 0.47765 0.32210 1.26000
Cd	Cd	0.77235 0.32210 0.82210 1.26000
Cd	Cd	0.27235 0.32210 0.32210 1.26000
Cd	Cd	0.27235 0.42790 0.42790 1.26000
Cd	Cd	0.27235 0.92790 0.92790 1.26000
Cd	Cd	0.77235 0.42790 0.92790 1.26000
Cd	Cd	0.77235 0.92790 0.42790 1.26000
Cd	Cd	0.47765 0.82210 0.92790 1.26000
Cd	Cd	0.47765 0.32210 0.42790 1.26000
Cd	Cd	0.97765 0.92790 0.32210 1.26000
Cd	Cd	0.97765 0.42790 0.82210 1.26000
Cd	Cd	0.32210 0.92790 0.97765 1.26000
Cd	Cd	0.32210 0.42790 0.47765 1.26000
Cd	Cd	0.92790 0.82210 0.47765 1.26000
Cd	Cd	0.42790 0.82210 0.97765 1.26000
Cd	Cd	0.82210 0.32210 0.77235 1.26000
Cd	Cd	0.82210 0.82210 0.27235 1.26000
Cd	Cd	0.97765 0.32210 0.92790 1.26000
Cd	Cd	0.97765 0.82210 0.42790 1.26000
Cd	Cd	0.47765 0.92790 0.82210 1.26000
Cd	Cd	0.47765 0.42790 0.32210 1.26000
Cd	Cd	0.77235 0.82210 0.32210 1.26000
Cd	Cd	0.27235 0.82210 0.82210 1.26000
Cd	Cd	0.92790 0.97765 0.32210 1.26000
Cd	Cd	0.42790 0.97765 0.82210 1.26000
Cd	Cd	0.82210 0.47765 0.92790 1.26000
Cd	Cd	0.82210 0.97765 0.42790 1.26000
Cd	Cd	0.32210 0.77235 0.82210 1.26000
Cd	Cd	0.17790 0.07210 0.52235 1.26000
Cd	Cd	0.17790 0.57210 0.02235 1.26000
Cd	Cd	0.07210 0.67790 0.02235 1.26000
Cd	Cd	0.67790 0.17790 0.22765 1.26000
Cd	Cd	0.67790 0.67790 0.72765 1.26000
Cd	Cd	0.17790 0.22765 0.67790 1.26000
Cd	Cd	0.67790 0.02235 0.07210 1.26000
Cd	Cd	0.07210 0.52235 0.17790 1.26000
Cd	Cd	0.22765 0.67790 0.17790 1.26000
Cd	Cd	0.72765 0.67790 0.67790 1.26000
Cd	Cd	0.52235 0.17790 0.07210 1.26000
Cd	Cd	0.02235 0.07210 0.67790 1.26000
Cd	Cd	0.02235 0.57210 0.17790 1.26000
Cd	Cd	0.05576 0.05576 0.10667 1.12700
Cd	Cd	0.05576 0.55576 0.60667 1.12700
Cd	Cd	0.55576 0.05576 0.60667 1.12700
Cd	Cd	0.55576 0.55576 0.10667 1.12700
Cd	Cd	0.69424 0.19424 0.60667 1.12700
Cd	Cd	0.69424 0.69424 0.10667 1.12700
Cd	Cd	0.19424 0.55576 0.64333 1.12700
Cd	Cd	0.19424 0.05576 0.14333 1.12700
Cd	Cd	0.55576 0.69424 0.14333 1.12700
Cd	Cd	0.05576 0.69424 0.64333 1.12700
Cd	Cd	0.10667 0.05576 0.05576 1.12700
Cd	Cd	0.10667 0.55576 0.55576 1.12700
Cd	Cd	0.60667 0.05576 0.55576 1.12700
Cd	Cd	0.60667 0.55576 0.05576 1.12700
Cd	Cd	0.60667 0.69424 0.19424 1.12700
Cd	Cd	0.10667 0.69424 0.69424 1.12700
Cd	Cd	0.64333 0.19424 0.55576 1.12700
Cd	Cd	0.64333 0.69424 0.05576 1.12700
Cd	Cd	0.14333 0.55576 0.69424 1.12700
Cd	Cd	0.14333 0.05576 0.19424 1.12700
Cd	Cd	0.05576 0.10667 0.05576 1.12700
Cd	Cd	0.05576 0.60667 0.55576 1.12700
Cd	Cd	0.55576 0.10667 0.55576 1.12700
Cd	Cd	0.55576 0.60667 0.05576 1.12700
Cd	Cd	0.19424 0.60667 0.69424 1.12700
Cd	Cd	0.19424 0.10667 0.19424 1.12700
Cd	Cd	0.55576 0.64333 0.19424 1.12700
Cd	Cd	0.05576 0.64333 0.69424 1.12700
Cd	Cd	0.69424 0.14333 0.55576 1.12700
Cd	Cd	0.69424 0.64333 0.05576 1.12700
Cd	Cd	0.80576 0.30576 0.39333 1.12700
Cd	Cd	0.80576 0.80576 0.89333 1.12700
Cd	Cd	0.94424 0.94424 0.89333 1.12800
Cd	Cd	0.94424 0.44424 0.39333 1.12800
Cd	Cd	0.44424 0.94424 0.39333 1.12800
Cd	Cd	0.44424 0.44424 0.89333 1.12700
Cd	Cd	0.30576 0.44424 0.85667 1.12700
Cd	Cd	0.30576 0.94424 0.35667 1.12800
Cd	Cd	0.44424 0.80576 0.35667 1.12700
Cd	Cd	0.94424 0.80576 0.85667 1.12800
Cd	Cd	0.80576 0.35667 0.44424 1.12700
Cd	Cd	0.80576 0.85667 0.94424 1.12800
Cd	Cd	0.44424 0.85667 0.30576 1.12700
Cd	Cd	0.94424 0.85667 0.80576 1.12800
Cd	Cd	0.94424 0.89333 0.94424 1.12800
Cd	Cd	0.94424 0.39333 0.44424 1.12800
Cd	Cd	0.44424 0.89333 0.44424 1.12700
Cd	Cd	0.44424 0.39333 0.94424 1.12800
Cd	Cd	0.30576 0.39333 0.80576 1.12700
Cd	Cd	0.30576 0.89333 0.30576 1.12700
Cd	Cd	0.85667 0.30576 0.44424 1.12700
Cd	Cd	0.85667 0.80576 0.94424 1.12800
Cd	Cd	0.35667 0.44424 0.80576 1.12700
Cd	Cd	0.35667 0.94424 0.30576 1.12800
Cd	Cd	0.39333 0.80576 0.30576 1.12700
Cd	Cd	0.89333 0.80576 0.80576 1.12700
Cd	Cd	0.89333 0.94424 0.94424 1.12800
Cd	Cd	0.89333 0.44424 0.44424 1.12700
Cd	Cd	0.39333 0.94424 0.44424 1.12800
Cd	Cd	0.39333 0.44424 0.94424 1.12800
Cd	Cd	0.30576 0.80576 0.39333 1.12700
Cd	Cd	0.30576 0.30576 0.89333 1.12700
Cd	Cd	0.80576 0.44424 0.35667 1.12700
Cd	Cd	0.80576 0.94424 0.85667 1.12800
Cd	Cd	0.44424 0.30576 0.85667 1.12700
Cd	Cd	0.94424 0.30576 0.35667 1.12800
Cd	Cd	0.39333 0.30576 0.80576 1.12700
Cd	Cd	0.89333 0.30576 0.30576 1.12700
Cd	Cd	0.35667 0.80576 0.44424 1.12700
Cd	Cd	0.35667 0.30576 0.94424 1.12800
Cd	Cd	0.85667 0.44424 0.30576 1.12700
Cd	Cd	0.85667 0.94424 0.80576 1.12800
Cd	Cd	0.80576 0.39333 0.30576 1.12700
Cd	Cd	0.80576 0.89333 0.80576 1.12700
Cd	Cd	0.44424 0.35667 0.80576 1.12700
Cd	Cd	0.94424 0.35667 0.30576 1.12800
Cd	Cd	0.30576 0.85667 0.44424 1.12700
Cd	Cd	0.30576 0.35667 0.94424 1.12800
Cd	Cd	0.19424 0.69424 0.60667 1.12700
Cd	Cd	0.19424 0.19424 0.10667 1.12700
Cd	Cd	0.69424 0.55576 0.14333 1.12700
Cd	Cd	0.69424 0.05576 0.64333 1.12700
Cd	Cd	0.55576 0.19424 0.64333 1.12700
Cd	Cd	0.05576 0.19424 0.14333 1.12700
Cd	Cd	0.19424 0.64333 0.55576 1.12700
Cd	Cd	0.19424 0.14333 0.05576 1.12700
Cd	Cd	0.55576 0.14333 0.69424 1.12700
Cd	Cd	0.05576 0.14333 0.19424 1.12700
Cd	Cd	0.69424 0.60667 0.19424 1.12700
Cd	Cd	0.69424 0.10667 0.69424 1.12700
Cd	Cd	0.14333 0.69424 0.55576 1.12700
Cd	Cd	0.14333 0.19424 0.05576 1.12700
Cd	Cd	0.64333 0.55576 0.19424 1.12700
Cd	Cd	0.64333 0.05576 0.69424 1.12700
Cd	Cd	0.60667 0.19424 0.69424 1.12700
Cd	Cd	0.10667 0.19424 0.19424 1.12700
O 	O 	0.69504 0.05496 0.05496 -0.64500
O 	O 	0.05496 0.19504 0.55496 -0.64500
O 	O 	0.55496 0.55496 0.69504 -0.64500
O 	O 	0.19504 0.69504 0.19504 -0.64500
O 	O 	0.05496 0.69504 0.05496 -0.64500
O 	O 	0.55496 0.05496 0.19504 -0.64500
O 	O 	0.69504 0.55496 0.55496 -0.64500
O 	O 	0.19504 0.19504 0.69504 -0.64500
O 	O 	0.05496 0.05496 0.69504 -0.64500
O 	O 	0.19504 0.55496 0.05496 -0.64500
O 	O 	0.55496 0.69504 0.55496 -0.64500
O 	O 	0.69504 0.19504 0.19504 -0.64500
O 	O 	0.69504 0.69504 0.69504 -0.64500
O 	O 	0.80496 0.94504 0.44504 -0.64500
O 	O 	0.94504 0.30496 0.94504 -0.64500
O 	O 	0.30496 0.80496 0.80496 -0.64500
O 	O 	0.30496 0.30496 0.30496 -0.64500
O 	O 	0.44504 0.44504 0.30496 -0.64500
O 	O 	0.44504 0.30496 0.44504 -0.64500
O 	O 	0.80496 0.80496 0.30496 -0.64500
O 	O 	0.30496 0.94504 0.94504 -0.64500
O 	O 	0.94504 0.44504 0.80496 -0.64500
O 	O 	0.80496 0.30496 0.80496 -0.64500
O 	O 	0.30496 0.44504 0.44504 -0.64500
O 	O 	0.44504 0.80496 0.94504 -0.64500
O 	O 	0.94504 0.94504 0.30496 -0.64500
O 	O 	0.94504 0.80496 0.44504 -0.64500
O 	O 	0.44504 0.94504 0.80496 -0.64500
O 	O 	0.80496 0.44504 0.94504 -0.64500
O 	O 	0.19504 0.05496 0.55496 -0.64500
O 	O 	0.05496 0.55496 0.19504 -0.64500
O 	O 	0.55496 0.19504 0.05496 -0.64500
O 	O 	0.07440 0.07440 0.07440 -0.84800
O 	O 	0.07440 0.57440 0.57440 -0.84800
O 	O 	0.57440 0.07440 0.57440 -0.84800
O 	O 	0.57440 0.57440 0.07440 -0.84800
O 	O 	0.67560 0.17560 0.57440 -0.84800
O 	O 	0.67560 0.67560 0.07440 -0.84800
O 	O 	0.17560 0.57440 0.67560 -0.84800
O 	O 	0.17560 0.07440 0.17560 -0.84800
O 	O 	0.57440 0.67560 0.17560 -0.84800
O 	O 	0.07440 0.67560 0.67560 -0.84800
O 	O 	0.67560 0.07440 0.67560 -0.84800
O 	O 	0.82440 0.32440 0.42560 -0.84800
O 	O 	0.82440 0.82440 0.92560 -0.84800
O 	O 	0.92560 0.92560 0.92560 -0.84700
O 	O 	0.92560 0.42560 0.42560 -0.84800
O 	O 	0.42560 0.92560 0.42560 -0.84800
O 	O 	0.42560 0.42560 0.92560 -0.84800
O 	O 	0.32440 0.42560 0.82440 -0.84800
O 	O 	0.32440 0.92560 0.32440 -0.84800
O 	O 	0.42560 0.82440 0.32440 -0.84800
O 	O 	0.92560 0.82440 0.82440 -0.84800
O 	O 	0.92560 0.32440 0.32440 -0.84800
O 	O 	0.82440 0.92560 0.82440 -0.84800
O 	O 	0.32440 0.82440 0.42560 -0.84800
O 	O 	0.32440 0.32440 0.92560 -0.84800
O 	O 	0.82440 0.42560 0.32440 -0.84800
O 	O 	0.42560 0.32440 0.82440 -0.84800
O 	O 	0.17560 0.67560 0.57440 -0.84800
O 	O 	0.17560 0.17560 0.07440 -0.84800
O 	O 	0.67560 0.57440 0.17560 -0.84800
O 	O 	0.57440 0.17560 0.67560 -0.84800
O 	O 	0.07440 0.17560 0.17560 -0.84800
C 	C 	0.91960 0.07070 0.07070 0.14900
C 	C 	0.97510 0.07260 0.07260 -0.22300
C 	C 	0.00310 0.07060 0.07060 0.37500
C 	C 	0.62840 0.05870 0.05870 0.48100
C 	C 	0.60400 0.06910 0.06910 -0.21800
C 	C 	0.91960 0.57070 0.57070 0.14900
C 	C 	0.97510 0.57260 0.57260 -0.22300
C 	C 	0.00310 0.57060 0.57060 0.37600
C 	C 	0.62840 0.55870 0.55870 0.48100
C 	C 	0.60400 0.56910 0.56910 -0.21800
C 	C 	0.41960 0.07070 0.57070 0.14900
C 	C 	0.47510 0.07260 0.57260 -0.22500
C 	C 	0.50310 0.07060 0.57060 0.37700
C 	C 	0.12840 0.05870 0.55870 0.48100
C 	C 	0.10400 0.06910 0.56910 -0.21800
C 	C 	0.41960 0.57070 0.07070 0.14900
C 	C 	0.47510 0.57260 0.07260 -0.22500
C 	C 	0.50310 0.57060 0.07060 0.37700
C 	C 	0.12840 0.55870 0.05870 0.48100
C 	C 	0.10400 0.56910 0.06910 -0.21800
C 	C 	0.83040 0.17930 0.57070 0.14900
C 	C 	0.77490 0.17740 0.57260 -0.22500
C 	C 	0.74690 0.17940 0.57060 0.37700
C 	C 	0.12160 0.19130 0.55870 0.48100
C 	C 	0.14600 0.18090 0.56910 -0.21800
C 	C 	0.83040 0.67930 0.07070 0.14900
C 	C 	0.77490 0.67740 0.07260 -0.22500
C 	C 	0.74690 0.67940 0.07060 0.37700
C 	C 	0.12160 0.69130 0.05870 0.48100
C 	C 	0.14600 0.68090 0.06910 -0.21800
C 	C 	0.33040 0.57070 0.67930 0.14900
C 	C 	0.27490 0.57260 0.67740 -0.22500
C 	C 	0.24690 0.57060 0.67940 0.37700
C 	C 	0.62160 0.55870 0.69130 0.48100
C 	C 	0.64600 0.56910 0.68090 -0.21800
C 	C 	0.33040 0.07070 0.17930 0.14900
C 	C 	0.27490 0.07260 0.17740 -0.22500
C 	C 	0.24690 0.07060 0.17940 0.37700
C 	C 	0.62160 0.05870 0.19130 0.48100
C 	C 	0.64600 0.06910 0.18090 -0.21800
C 	C 	0.41960 0.67930 0.17930 0.14900
C 	C 	0.47510 0.67740 0.17740 -0.22500
C 	C 	0.50310 0.67940 0.17940 0.37700
C 	C 	0.12840 0.69130 0.19130 0.48100
C 	C 	0.10400 0.68090 0.18090 -0.21800
C 	C 	0.91960 0.67930 0.67930 0.14900
C 	C 	0.97510 0.67740 0.67740 -0.22300
C 	C 	0.00310 0.67940 0.67940 0.37600
C 	C 	0.62840 0.69130 0.69130 0.48100
C 	C 	0.60400 0.68090 0.68090 -0.21800
C 	C 	0.91960 0.17930 0.17930 0.14900
C 	C 	0.97510 0.17740 0.17740 -0.22300
C 	C 	0.00310 0.17940 0.17940 0.37600
C 	C 	0.62840 0.19130 0.19130 0.48100
C 	C 	0.60400 0.18090 0.18090 -0.21800
C 	C 	0.07070 0.91960 0.07070 0.14900
C 	C 	0.07260 0.97510 0.07260 -0.22300
C 	C 	0.07060 0.00310 0.07060 0.37500
C 	C 	0.05870 0.62840 0.05870 0.48100
C 	C 	0.06910 0.60400 0.06910 -0.21800
C 	C 	0.07070 0.41960 0.57070 0.14900
C 	C 	0.07260 0.47510 0.57260 -0.22500
C 	C 	0.07060 0.50310 0.57060 0.37700
C 	C 	0.05870 0.12840 0.55870 0.48100
C 	C 	0.06910 0.10400 0.56910 -0.21800
C 	C 	0.57070 0.91960 0.57070 0.14900
C 	C 	0.57260 0.97510 0.57260 -0.22300
C 	C 	0.57060 0.00310 0.57060 0.37600
C 	C 	0.55870 0.62840 0.55870 0.48100
C 	C 	0.56910 0.60400 0.56910 -0.21800
C 	C 	0.57070 0.41960 0.07070 0.14900
C 	C 	0.57260 0.47510 0.07260 -0.22500
C 	C 	0.57060 0.50310 0.07060 0.37700
C 	C 	0.55870 0.12840 0.05870 0.48100
C 	C 	0.56910 0.10400 0.06910 -0.21800
C 	C 	0.57070 0.83040 0.17930 0.14900
C 	C 	0.57260 0.77490 0.17740 -0.22500
C 	C 	0.57060 0.74690 0.17940 0.37700
C 	C 	0.55870 0.12160 0.19130 0.48100
C 	C 	0.56910 0.14600 0.18090 -0.21800
C 	C 	0.07070 0.83040 0.67930 0.14900
C 	C 	0.07260 0.77490 0.67740 -0.22500
C 	C 	0.07060 0.74690 0.67940 0.37700
C 	C 	0.05870 0.12160 0.69130 0.48100
C 	C 	0.06910 0.14600 0.68090 -0.21800
C 	C 	0.67930 0.33040 0.57070 0.14900
C 	C 	0.67740 0.27490 0.57260 -0.22500
C 	C 	0.67940 0.24690 0.57060 0.37700
C 	C 	0.69130 0.62160 0.55870 0.48100
C 	C 	0.68090 0.64600 0.56910 -0.21800
C 	C 	0.67930 0.83040 0.07070 0.14900
C 	C 	0.67740 0.77490 0.07260 -0.22500
C 	C 	0.67940 0.74690 0.07060 0.37700
C 	C 	0.69130 0.12160 0.05870 0.48100
C 	C 	0.68090 0.14600 0.06910 -0.21800
C 	C 	0.17930 0.41960 0.67930 0.14900
C 	C 	0.17740 0.47510 0.67740 -0.22500
C 	C 	0.17940 0.50310 0.67940 0.37700
C 	C 	0.19130 0.12840 0.69130 0.48100
C 	C 	0.18090 0.10400 0.68090 -0.21800
C 	C 	0.17930 0.91960 0.17930 0.14900
C 	C 	0.17740 0.97510 0.17740 -0.22300
C 	C 	0.17940 0.00310 0.17940 0.37600
C 	C 	0.19130 0.62840 0.19130 0.48100
C 	C 	0.18090 0.60400 0.18090 -0.21800
C 	C 	0.07070 0.07070 0.91960 0.14900
C 	C 	0.07260 0.07260 0.97510 -0.22300
C 	C 	0.07060 0.07060 0.00310 0.37500
C 	C 	0.05870 0.05870 0.62840 0.48100
C 	C 	0.06910 0.06910 0.60400 -0.21800
C 	C 	0.07070 0.57070 0.41960 0.14900
C 	C 	0.07260 0.57260 0.47510 -0.22500
C 	C 	0.07060 0.57060 0.50310 0.37700
C 	C 	0.05870 0.55870 0.12840 0.48100
C 	C 	0.06910 0.56910 0.10400 -0.21800
C 	C 	0.57070 0.07070 0.41960 0.14900
C 	C 	0.57260 0.07260 0.47510 -0.22500
C 	C 	0.57060 0.07060 0.50310 0.37700
C 	C 	0.55870 0.05870 0.12840 0.48100
C 	C 	0.56910 0.06910 0.10400 -0.21800
C 	C 	0.57070 0.57070 0.91960 0.14900
C 	C 	0.57260 0.57260 0.97510 -0.22300
C 	C 	0.57060 0.57060 0.00310 0.37600
C 	C 	0.55870 0.55870 0.62840 0.48100
C 	C 	0.56910 0.56910 0.60400 -0.21800
C 	C 	0.17930 0.57070 0.83040 0.14900
C 	C 	0.17740 0.57260 0.77490 -0.22500
C 	C 	0.17940 0.57060 0.74690 0.37700
C 	C 	0.19130 0.55870 0.12160 0.48100
C 	C 	0.18090 0.56910 0.14600 -0.21800
C 	C 	0.17930 0.07070 0.33040 0.14900
C 	C 	0.17740 0.07260 0.27490 -0.22500
C 	C 	0.17940 0.07060 0.24690 0.37700
C 	C 	0.19130 0.05870 0.62160 0.48100
C 	C 	0.18090 0.06910 0.64600 -0.21800
C 	C 	0.57070 0.67930 0.33040 0.14900
C 	C 	0.57260 0.67740 0.27490 -0.22500
C 	C 	0.57060 0.67940 0.24690 0.37700
C 	C 	0.55870 0.69130 0.62160 0.48100
C 	C 	0.56910 0.68090 0.64600 -0.21800
C 	C 	0.07070 0.67930 0.83040 0.14900
C 	C 	0.07260 0.67740 0.77490 -0.22500
C 	C 	0.07060 0.67940 0.74690 0.37700
C 	C 	0.05870 0.69130 0.12160 0.48100
C 	C 	0.06910 0.68090 0.14600 -0.21800
C 	C 	0.67930 0.17930 0.41960 0.14900
C 	C 	0.67740 0.17740 0.47510 -0.22500
C 	C 	0.67940 0.17940 0.50310 0.37700
C 	C 	0.69130 0.19130 0.12840 0.48100
C 	C 	0.68090 0.18090 0.10400 -0.21800
C 	C 	0.67930 0.67930 0.91960 0.14900
C 	C 	0.67740 0.67740 0.97510 -0.22300
C 	C 	0.67940 0.67940 0.00310 0.37600
C 	C 	0.69130 0.69130 0.62840 0.48100
C 	C 	0.68090 0.68090 0.60400 -0.21800
C 	C 	0.17930 0.17930 0.91960 0.14900
C 	C 	0.17740 0.17740 0.97510 -0.22300
C 	C 	0.17940 0.17940 0.00310 0.37600
C 	C 	0.19130 0.19130 0.62840 0.48100
C 	C 	0.18090 0.18090 0.60400 -0.21800
C 	C 	0.82070 0.16960 0.42930 0.14900
C 	C 	0.82260 0.22510 0.42740 -0.22500
C 	C 	0.82060 0.25310 0.42940 0.37700
C 	C 	0.80870 0.87840 0.44130 0.48100
C 	C 	0.81910 0.85400 0.43090 -0.21800
C 	C 	0.82070 0.66960 0.92930 0.14900
C 	C 	0.82260 0.72510 0.92740 -0.22500
C 	C 	0.82060 0.75310 0.92940 0.37700
C 	C 	0.80870 0.37840 0.94130 0.48100
C 	C 	0.81910 0.35400 0.93090 -0.21800
C 	C 	0.92930 0.08040 0.92930 0.14900
C 	C 	0.92740 0.02490 0.92740 -0.22600
C 	C 	0.92940 0.99690 0.92940 0.37900
C 	C 	0.94130 0.37160 0.94130 0.48100
C 	C 	0.93090 0.39600 0.93090 -0.21800
C 	C 	0.92930 0.58040 0.42930 0.14900
C 	C 	0.92740 0.52490 0.42740 -0.22500
C 	C 	0.92940 0.49690 0.42940 0.37700
C 	C 	0.94130 0.87160 0.44130 0.48100
C 	C 	0.93090 0.89600 0.43090 -0.21800
C 	C 	0.42930 0.08040 0.42930 0.14900
C 	C 	0.42740 0.02490 0.42740 -0.22600
C 	C 	0.42940 0.99690 0.42940 0.37900
C 	C 	0.44130 0.37160 0.44130 0.48100
C 	C 	0.43090 0.39600 0.43090 -0.21800
C 	C 	0.42930 0.58040 0.92930 0.14900
C 	C 	0.42740 0.52490 0.92740 -0.22500
C 	C 	0.42940 0.49690 0.92940 0.37700
C 	C 	0.44130 0.87160 0.94130 0.48100
C 	C 	0.43090 0.89600 0.93090 -0.21800
C 	C 	0.32070 0.58040 0.82070 0.14900
C 	C 	0.32260 0.52490 0.82260 -0.22500
C 	C 	0.32060 0.49690 0.82060 0.37700
C 	C 	0.30870 0.87160 0.80870 0.48100
C 	C 	0.31910 0.89600 0.81910 -0.21800
C 	C 	0.32070 0.08040 0.32070 0.14900
C 	C 	0.32260 0.02490 0.32260 -0.22600
C 	C 	0.32060 0.99690 0.32060 0.37900
C 	C 	0.30870 0.37160 0.30870 0.48100
C 	C 	0.31910 0.39600 0.31910 -0.21800
C 	C 	0.42930 0.66960 0.32070 0.14900
C 	C 	0.42740 0.72510 0.32260 -0.22500
C 	C 	0.42940 0.75310 0.32060 0.37700
C 	C 	0.44130 0.37840 0.30870 0.48100
C 	C 	0.43090 0.35400 0.31910 -0.21800
C 	C 	0.92930 0.66960 0.82070 0.14900
C 	C 	0.92740 0.72510 0.82260 -0.22500
C 	C 	0.92940 0.75310 0.82060 0.37700
C 	C 	0.94130 0.37840 0.80870 0.48100
C 	C 	0.93090 0.35400 0.81910 -0.21800
C 	C 	0.66960 0.32070 0.42930 0.14900
C 	C 	0.72510 0.32260 0.42740 -0.22500
C 	C 	0.75310 0.32060 0.42940 0.37700
C 	C 	0.37840 0.30870 0.44130 0.48100
C 	C 	0.35400 0.31910 0.43090 -0.21800
C 	C 	0.66960 0.82070 0.92930 0.14900
C 	C 	0.72510 0.82260 0.92740 -0.22500
C 	C 	0.75310 0.82060 0.92940 0.37700
C 	C 	0.37840 0.80870 0.94130 0.48100
C 	C 	0.35400 0.81910 0.93090 -0.21800
C 	C 	0.58040 0.82070 0.32070 0.14900
C 	C 	0.52490 0.82260 0.32260 -0.22500
C 	C 	0.49690 0.82060 0.32060 0.37700
C 	C 	0.87160 0.80870 0.30870 0.48100
C 	C 	0.89600 0.81910 0.31910 -0.21800
C 	C 	0.08040 0.82070 0.82070 0.14900
C 	C 	0.02490 0.82260 0.82260 -0.22600
C 	C 	0.99690 0.82060 0.82060 0.37900
C 	C 	0.37160 0.80870 0.80870 0.48100
C 	C 	0.39600 0.81910 0.81910 -0.21800
C 	C 	0.08040 0.32070 0.32070 0.14900
C 	C 	0.02490 0.32260 0.32260 -0.22600
C 	C 	0.99690 0.32060 0.32060 0.37900
C 	C 	0.37160 0.30870 0.30870 0.48100
C 	C 	0.39600 0.31910 0.31910 -0.21800
C 	C 	0.08040 0.92930 0.92930 0.14900
C 	C 	0.02490 0.92740 0.92740 -0.22600
C 	C 	0.99690 0.92940 0.92940 0.37900
C 	C 	0.37160 0.94130 0.94130 0.48100
C 	C 	0.39600 0.93090 0.93090 -0.21800
C 	C 	0.08040 0.42930 0.42930 0.14900
C 	C 	0.02490 0.42740 0.42740 -0.22600
C 	C 	0.99690 0.42940 0.42940 0.37900
C 	C 	0.37160 0.44130 0.44130 0.48100
C 	C 	0.39600 0.43090 0.43090 -0.21800
C 	C 	0.58040 0.92930 0.42930 0.14900
C 	C 	0.52490 0.92740 0.42740 -0.22500
C 	C 	0.49690 0.92940 0.42940 0.37700
C 	C 	0.87160 0.94130 0.44130 0.48100
C 	C 	0.89600 0.93090 0.43090 -0.21800
C 	C 	0.58040 0.42930 0.92930 0.14900
C 	C 	0.52490 0.42740 0.92740 -0.22500
C 	C 	0.49690 0.42940 0.92940 0.37700
C 	C 	0.87160 0.44130 0.94130 0.48100
C 	C 	0.89600 0.43090 0.93090 -0.21800
C 	C 	0.16960 0.42930 0.82070 0.14900
C 	C 	0.22510 0.42740 0.82260 -0.22500
C 	C 	0.25310 0.42940 0.82060 0.37700
C 	C 	0.87840 0.44130 0.80870 0.48100
C 	C 	0.85400 0.43090 0.81910 -0.21800
C 	C 	0.16960 0.92930 0.32070 0.14900
C 	C 	0.22510 0.92740 0.32260 -0.22500
C 	C 	0.25310 0.92940 0.32060 0.37700
C 	C 	0.87840 0.94130 0.30870 0.48100
C 	C 	0.85400 0.93090 0.31910 -0.21800
C 	C 	0.82070 0.32070 0.58040 0.14900
C 	C 	0.82260 0.32260 0.52490 -0.22500
C 	C 	0.82060 0.32060 0.49690 0.37700
C 	C 	0.80870 0.30870 0.87160 0.48100
C 	C 	0.81910 0.31910 0.89600 -0.21800
C 	C 	0.82070 0.82070 0.08040 0.14900
C 	C 	0.82260 0.82260 0.02490 -0.22600
C 	C 	0.82060 0.82060 0.99690 0.37900
C 	C 	0.80870 0.80870 0.37160 0.48100
C 	C 	0.81910 0.81910 0.39600 -0.21800
C 	C 	0.32070 0.32070 0.08040 0.14900
C 	C 	0.32260 0.32260 0.02490 -0.22600
C 	C 	0.32060 0.32060 0.99690 0.37900
C 	C 	0.30870 0.30870 0.37160 0.48100
C 	C 	0.31910 0.31910 0.39600 -0.21800
C 	C 	0.32070 0.42930 0.66960 0.14900
C 	C 	0.32260 0.42740 0.72510 -0.22500
C 	C 	0.32060 0.42940 0.75310 0.37700
C 	C 	0.30870 0.44130 0.37840 0.48100
C 	C 	0.31910 0.43090 0.35400 -0.21800
C 	C 	0.32070 0.92930 0.16960 0.14900
C 	C 	0.32260 0.92740 0.22510 -0.22500
C 	C 	0.32060 0.92940 0.25310 0.37700
C 	C 	0.30870 0.94130 0.87840 0.48100
C 	C 	0.31910 0.93090 0.85400 -0.21800
C 	C 	0.42930 0.82070 0.16960 0.14900
C 	C 	0.42740 0.82260 0.22510 -0.22500
C 	C 	0.42940 0.82060 0.25310 0.37700
C 	C 	0.44130 0.80870 0.87840 0.48100
C 	C 	0.43090 0.81910 0.85400 -0.21800
C 	C 	0.92930 0.82070 0.66960 0.14900
C 	C 	0.92740 0.82260 0.72510 -0.22500
C 	C 	0.92940 0.82060 0.75310 0.37700
C 	C 	0.94130 0.80870 0.37840 0.48100
C 	C 	0.93090 0.81910 0.35400 -0.21800
C 	C 	0.92930 0.92930 0.08040 0.14900
C 	C 	0.92740 0.92740 0.02490 -0.22600
C 	C 	0.92940 0.92940 0.99690 0.37900
C 	C 	0.94130 0.94130 0.37160 0.48100
C 	C 	0.93090 0.93090 0.39600 -0.21800
C 	C 	0.92930 0.42930 0.58040 0.14900
C 	C 	0.92740 0.42740 0.52490 -0.22500
C 	C 	0.92940 0.42940 0.49690 0.37700
C 	C 	0.94130 0.44130 0.87160 0.48100
C 	C 	0.93090 0.43090 0.89600 -0.21800
C 	C 	0.42930 0.92930 0.58040 0.14900
C 	C 	0.42740 0.92740 0.52490 -0.22500
C 	C 	0.42940 0.92940 0.49690 0.37700
C 	C 	0.44130 0.94130 0.87160 0.48100
C 	C 	0.43090 0.93090 0.89600 -0.21800
C 	C 	0.42930 0.42930 0.08040 0.14900
C 	C 	0.42740 0.42740 0.02490 -0.22600
C 	C 	0.42940 0.42940 0.99690 0.37900
C 	C 	0.44130 0.44130 0.37160 0.48100
C 	C 	0.43090 0.43090 0.39600 -0.21800
C 	C 	0.16960 0.82070 0.42930 0.14900
C 	C 	0.22510 0.82260 0.42740 -0.22500
C 	C 	0.25310 0.82060 0.42940 0.37700
C 	C 	0.87840 0.80870 0.44130 0.48100
C 	C 	0.85400 0.81910 0.43090 -0.21800
C 	C 	0.16960 0.32070 0.92930 0.14900
C 	C 	0.22510 0.32260 0.92740 -0.22500
C 	C 	0.25310 0.32060 0.92940 0.37700
C 	C 	0.87840 0.30870 0.94130 0.48100
C 	C 	0.85400 0.31910 0.93090 -0.21800
C 	C 	0.66960 0.42930 0.32070 0.14900
C 	C 	0.72510 0.42740 0.32260 -0.22500
C 	C 	0.75310 0.42940 0.32060 0.37700
C 	C 	0.37840 0.44130 0.30870 0.48100
C 	C 	0.35400 0.43090 0.31910 -0.21800
C 	C 	0.66960 0.92930 0.82070 0.14900
C 	C 	0.72510 0.92740 0.82260 -0.22500
C 	C 	0.75310 0.92940 0.82060 0.37700
C 	C 	0.37840 0.94130 0.80870 0.48100
C 	C 	0.35400 0.93090 0.81910 -0.21800
C 	C 	0.58040 0.32070 0.82070 0.14900
C 	C 	0.52490 0.32260 0.82260 -0.22500
C 	C 	0.49690 0.32060 0.82060 0.37700
C 	C 	0.87160 0.30870 0.80870 0.48100
C 	C 	0.89600 0.31910 0.81910 -0.21800
C 	C 	0.42930 0.16960 0.82070 0.14900
C 	C 	0.42740 0.22510 0.82260 -0.22500
C 	C 	0.42940 0.25310 0.82060 0.37700
C 	C 	0.44130 0.87840 0.80870 0.48100
C 	C 	0.43090 0.85400 0.81910 -0.21800
C 	C 	0.92930 0.16960 0.32070 0.14900
C 	C 	0.92740 0.22510 0.32260 -0.22500
C 	C 	0.92940 0.25310 0.32060 0.37700
C 	C 	0.94130 0.87840 0.30870 0.48100
C 	C 	0.93090 0.85400 0.31910 -0.21800
C 	C 	0.32070 0.66960 0.42930 0.14900
C 	C 	0.32260 0.72510 0.42740 -0.22500
C 	C 	0.32060 0.75310 0.42940 0.37700
C 	C 	0.30870 0.37840 0.44130 0.48100
C 	C 	0.31910 0.35400 0.43090 -0.21800
C 	C 	0.32070 0.16960 0.92930 0.14900
C 	C 	0.32260 0.22510 0.92740 -0.22500
C 	C 	0.32060 0.25310 0.92940 0.37700
C 	C 	0.30870 0.87840 0.94130 0.48100
C 	C 	0.31910 0.85400 0.93090 -0.21800
C 	C 	0.82070 0.58040 0.32070 0.14900
C 	C 	0.82260 0.52490 0.32260 -0.22500
C 	C 	0.82060 0.49690 0.32060 0.37700
C 	C 	0.80870 0.87160 0.30870 0.48100
C 	C 	0.81910 0.89600 0.31910 -0.21800
C 	C 	0.82070 0.08040 0.82070 0.14900
C 	C 	0.82260 0.02490 0.82260 -0.22600
C 	C 	0.82060 0.99690 0.82060 0.37900
C 	C 	0.80870 0.37160 0.80870 0.48100
C 	C 	0.81910 0.39600 0.81910 -0.21800
C 	C 	0.82070 0.42930 0.16960 0.14900
C 	C 	0.82260 0.42740 0.22510 -0.22500
C 	C 	0.82060 0.42940 0.25310 0.37700
C 	C 	0.80870 0.44130 0.87840 0.48100
C 	C 	0.81910 0.43090 0.85400 -0.21800
C 	C 	0.82070 0.92930 0.66960 0.14900
C 	C 	0.82260 0.92740 0.72510 -0.22500
C 	C 	0.82060 0.92940 0.75310 0.37700
C 	C 	0.80870 0.94130 0.37840 0.48100
C 	C 	0.81910 0.93090 0.35400 -0.21800
C 	C 	0.42930 0.32070 0.66960 0.14900
C 	C 	0.42740 0.32260 0.72510 -0.22500
C 	C 	0.42940 0.32060 0.75310 0.37700
C 	C 	0.44130 0.30870 0.37840 0.48100
C 	C 	0.43090 0.31910 0.35400 -0.21800
C 	C 	0.92930 0.32070 0.16960 0.14900
C 	C 	0.92740 0.32260 0.22510 -0.22500
C 	C 	0.92940 0.32060 0.25310 0.37700
C 	C 	0.94130 0.30870 0.87840 0.48100
C 	C 	0.93090 0.31910 0.85400 -0.21800
C 	C 	0.32070 0.82070 0.58040 0.14900
C 	C 	0.32260 0.82260 0.52490 -0.22500
C 	C 	0.32060 0.82060 0.49690 0.37700
C 	C 	0.30870 0.80870 0.87160 0.48100
C 	C 	0.31910 0.81910 0.89600 -0.21800
C 	C 	0.17930 0.83040 0.57070 0.14900
C 	C 	0.17740 0.77490 0.57260 -0.22500
C 	C 	0.17940 0.74690 0.57060 0.37700
C 	C 	0.19130 0.12160 0.55870 0.48100
C 	C 	0.18090 0.14600 0.56910 -0.21800
C 	C 	0.17930 0.33040 0.07070 0.14900
C 	C 	0.17740 0.27490 0.07260 -0.22500
C 	C 	0.17940 0.24690 0.07060 0.37700
C 	C 	0.19130 0.62160 0.05870 0.48100
C 	C 	0.18090 0.64600 0.06910 -0.21800
C 	C 	0.67930 0.41960 0.17930 0.14900
C 	C 	0.67740 0.47510 0.17740 -0.22500
C 	C 	0.67940 0.50310 0.17940 0.37700
C 	C 	0.69130 0.12840 0.19130 0.48100
C 	C 	0.68090 0.10400 0.18090 -0.21800
C 	C 	0.67930 0.91960 0.67930 0.14900
C 	C 	0.67740 0.97510 0.67740 -0.22300
C 	C 	0.67940 0.00310 0.67940 0.37600
C 	C 	0.69130 0.62840 0.69130 0.48100
C 	C 	0.68090 0.60400 0.68090 -0.21800
C 	C 	0.57070 0.33040 0.67930 0.14900
C 	C 	0.57260 0.27490 0.67740 -0.22500
C 	C 	0.57060 0.24690 0.67940 0.37700
C 	C 	0.55870 0.62160 0.69130 0.48100
C 	C 	0.56910 0.64600 0.68090 -0.21800
C 	C 	0.07070 0.33040 0.17930 0.14900
C 	C 	0.07260 0.27490 0.17740 -0.22500
C 	C 	0.07060 0.24690 0.17940 0.37700
C 	C 	0.05870 0.62160 0.19130 0.48100
C 	C 	0.06910 0.64600 0.18090 -0.21800
C 	C 	0.33040 0.67930 0.57070 0.14900
C 	C 	0.27490 0.67740 0.57260 -0.22500
C 	C 	0.24690 0.67940 0.57060 0.37700
C 	C 	0.62160 0.69130 0.55870 0.48100
C 	C 	0.64600 0.68090 0.56910 -0.21800
C 	C 	0.33040 0.17930 0.07070 0.14900
C 	C 	0.27490 0.17740 0.07260 -0.22500
C 	C 	0.24690 0.17940 0.07060 0.37700
C 	C 	0.62160 0.19130 0.05870 0.48100
C 	C 	0.64600 0.18090 0.06910 -0.21800
C 	C 	0.41960 0.17930 0.67930 0.14900
C 	C 	0.47510 0.17740 0.67740 -0.22500
C 	C 	0.50310 0.17940 0.67940 0.37700
C 	C 	0.12840 0.19130 0.69130 0.48100
C 	C 	0.10400 0.18090 0.68090 -0.21800
C 	C 	0.83040 0.57070 0.17930 0.14900
C 	C 	0.77490 0.57260 0.17740 -0.22500
C 	C 	0.74690 0.57060 0.17940 0.37700
C 	C 	0.12160 0.55870 0.19130 0.48100
C 	C 	0.14600 0.56910 0.18090 -0.21800
C 	C 	0.83040 0.07070 0.67930 0.14900
C 	C 	0.77490 0.07260 0.67740 -0.22500
C 	C 	0.74690 0.07060 0.67940 0.37700
C 	C 	0.12160 0.05870 0.69130 0.48100
C 	C 	0.14600 0.06910 0.68090 -0.21800
C 	C 	0.17930 0.67930 0.41960 0.14900
C 	C 	0.17740 0.67740 0.47510 -0.22500
C 	C 	0.17940 0.67940 0.50310 0.37700
C 	C 	0.19130 0.69130 0.12840 0.48100
C 	C 	0.18090 0.68090 0.10400 -0.21800
C 	C 	0.67930 0.57070 0.33040 0.14900
C 	C 	0.67740 0.57260 0.27490 -0.22500
C 	C 	0.67940 0.57060 0.24690 0.37700
C 	C 	0.69130 0.55870 0.62160 0.48100
C 	C 	0.68090 0.56910 0.64600 -0.21800
C 	C 	0.67930 0.07070 0.83040 0.14900
C 	C 	0.67740 0.07260 0.77490 -0.22500
C 	C 	0.67940 0.07060 0.74690 0.37700
C 	C 	0.69130 0.05870 0.12160 0.48100
C 	C 	0.68090 0.06910 0.14600 -0.21800
C 	C 	0.57070 0.17930 0.83040 0.14900
C 	C 	0.57260 0.17740 0.77490 -0.22500
C 	C 	0.57060 0.17940 0.74690 0.37700
C 	C 	0.55870 0.19130 0.12160 0.48100
C 	C 	0.56910 0.18090 0.14600 -0.21800
C 	C 	0.07070 0.17930 0.33040 0.14900
C 	C 	0.07260 0.17740 0.27490 -0.22500
C 	C 	0.07060 0.17940 0.24690 0.37700
C 	C 	0.05870 0.19130 0.62160 0.48100
C 	C 	0.06910 0.18090 0.64600 -0.21800
C 	C 	0.79320 0.11420 0.95680 0.13900
C 	C 	0.75880 0.09290 0.99120 -0.16100
C 	C 	0.73860 0.08050 0.01140 0.42000
C 	C 	0.29320 0.11420 0.45680 0.14000
C 	C 	0.25880 0.09290 0.49120 -0.16500
C 	C 	0.23860 0.08050 0.51140 0.42200
C 	C 	0.95680 0.13580 0.45680 0.13900
C 	C 	0.99120 0.15710 0.49120 -0.16100
C 	C 	0.01140 0.16950 0.51140 0.42000
C 	C 	0.95680 0.63580 0.95680 0.13900
C 	C 	0.99120 0.65710 0.99120 -0.15800
C 	C 	0.01140 0.66950 0.01140 0.41900
C 	C 	0.45680 0.61420 0.79320 0.14000
C 	C 	0.49120 0.59290 0.75880 -0.16500
C 	C 	0.51140 0.58050 0.73860 0.42200
C 	C 	0.45680 0.11420 0.29320 0.14000
C 	C 	0.49120 0.09290 0.25880 -0.16500
C 	C 	0.51140 0.08050 0.23860 0.42200
C 	C 	0.29320 0.63580 0.29320 0.14000
C 	C 	0.25880 0.65710 0.25880 -0.16500
C 	C 	0.23860 0.66950 0.23860 0.42200
C 	C 	0.29320 0.13580 0.79320 0.14000
C 	C 	0.25880 0.15710 0.75880 -0.16500
C 	C 	0.23860 0.16950 0.73860 0.42200
C 	C 	0.79320 0.63580 0.79320 0.14000
C 	C 	0.75880 0.65710 0.75880 -0.16500
C 	C 	0.73860 0.66950 0.73860 0.42200
C 	C 	0.79320 0.13580 0.29320 0.14000
C 	C 	0.75880 0.15710 0.25880 -0.16500
C 	C 	0.73860 0.16950 0.23860 0.42200
C 	C 	0.95680 0.79320 0.11420 0.13900
C 	C 	0.99120 0.75880 0.09290 -0.16100
C 	C 	0.01140 0.73860 0.08050 0.42000
C 	C 	0.95680 0.29320 0.61420 0.13900
C 	C 	0.99120 0.25880 0.59290 -0.16100
C 	C 	0.01140 0.23860 0.58050 0.42000
C 	C 	0.45680 0.95680 0.13580 0.13900
C 	C 	0.49120 0.99120 0.15710 -0.16100
C 	C 	0.51140 0.01140 0.16950 0.42000
C 	C 	0.45680 0.45680 0.63580 0.14000
C 	C 	0.49120 0.49120 0.65710 -0.16500
C 	C 	0.51140 0.51140 0.66950 0.42200
C 	C 	0.95680 0.95680 0.63580 0.13900
C 	C 	0.99120 0.99120 0.65710 -0.15800
C 	C 	0.01140 0.01140 0.66950 0.41900
C 	C 	0.79320 0.45680 0.61420 0.14000
C 	C 	0.75880 0.49120 0.59290 -0.16500
C 	C 	0.73860 0.51140 0.58050 0.42200
C 	C 	0.29320 0.45680 0.11420 0.14000
C 	C 	0.25880 0.49120 0.09290 -0.16500
C 	C 	0.23860 0.51140 0.08050 0.42200
C 	C 	0.29320 0.29320 0.63580 0.14000
C 	C 	0.25880 0.25880 0.65710 -0.16500
C 	C 	0.23860 0.23860 0.66950 0.42200
C 	C 	0.29320 0.79320 0.13580 0.14000
C 	C 	0.25880 0.75880 0.15710 -0.16500
C 	C 	0.23860 0.73860 0.16950 0.42200
C 	C 	0.79320 0.29320 0.13580 0.14000
C 	C 	0.75880 0.25880 0.15710 -0.16500
C 	C 	0.73860 0.23860 0.16950 0.42200
C 	C 	0.79320 0.79320 0.63580 0.14000
C 	C 	0.75880 0.75880 0.65710 -0.16500
C 	C 	0.73860 0.73860 0.66950 0.42200
C 	C 	0.11420 0.95680 0.79320 0.13900
C 	C 	0.09290 0.99120 0.75880 -0.16100
C 	C 	0.08050 0.01140 0.73860 0.42000
C 	C 	0.11420 0.45680 0.29320 0.14000
C 	C 	0.09290 0.49120 0.25880 -0.16500
C 	C 	0.08050 0.51140 0.23860 0.42200
C 	C 	0.13580 0.45680 0.95680 0.13900
C 	C 	0.15710 0.49120 0.99120 -0.16100
C 	C 	0.16950 0.51140 0.01140 0.42000
C 	C 	0.63580 0.45680 0.45680 0.14000
C 	C 	0.65710 0.49120 0.49120 -0.16500
C 	C 	0.66950 0.51140 0.51140 0.42200
C 	C 	0.63580 0.95680 0.95680 0.13900
C 	C 	0.65710 0.99120 0.99120 -0.15800
C 	C 	0.66950 0.01140 0.01140 0.41900
C 	C 	0.61420 0.79320 0.45680 0.14000
C 	C 	0.59290 0.75880 0.49120 -0.16500
C 	C 	0.58050 0.73860 0.51140 0.42200
C 	C 	0.61420 0.29320 0.95680 0.13900
C 	C 	0.59290 0.25880 0.99120 -0.16100
C 	C 	0.58050 0.23860 0.01140 0.42000
C 	C 	0.63580 0.29320 0.29320 0.14000
C 	C 	0.65710 0.25880 0.25880 -0.16500
C 	C 	0.66950 0.23860 0.23860 0.42200
C 	C 	0.63580 0.79320 0.79320 0.14000
C 	C 	0.65710 0.75880 0.75880 -0.16500
C 	C 	0.66950 0.73860 0.73860 0.42200
C 	C 	0.13580 0.29320 0.79320 0.14000
C 	C 	0.15710 0.25880 0.75880 -0.16500
C 	C 	0.16950 0.23860 0.73860 0.42200
C 	C 	0.13580 0.79320 0.29320 0.14000
C 	C 	0.15710 0.75880 0.25880 -0.16500
C 	C 	0.16950 0.73860 0.23860 0.42200
C 	C 	0.86420 0.04320 0.54320 0.14100
C 	C 	0.84290 0.00880 0.50880 -0.16800
C 	C 	0.83050 0.98860 0.48860 0.42400
C 	C 	0.36420 0.04320 0.04320 0.14100
C 	C 	0.34290 0.00880 0.00880 -0.17100
C 	C 	0.33050 0.98860 0.98860 0.42500
C 	C 	0.36420 0.54320 0.54320 0.14000
C 	C 	0.34290 0.50880 0.50880 -0.16500
C 	C 	0.33050 0.48860 0.48860 0.42200
C 	C 	0.88580 0.20680 0.04320 0.14100
C 	C 	0.90710 0.24120 0.00880 -0.16800
C 	C 	0.91950 0.26140 0.98860 0.42400
C 	C 	0.88580 0.70680 0.54320 0.14000
C 	C 	0.90710 0.74120 0.50880 -0.16500
C 	C 	0.91950 0.76140 0.48860 0.42200
C 	C 	0.38580 0.20680 0.54320 0.14000
C 	C 	0.40710 0.24120 0.50880 -0.16500
C 	C 	0.41950 0.26140 0.48860 0.42200
C 	C 	0.36420 0.70680 0.70680 0.14000
C 	C 	0.34290 0.74120 0.74120 -0.16500
C 	C 	0.33050 0.76140 0.76140 0.42200
C 	C 	0.36420 0.20680 0.20680 0.14000
C 	C 	0.34290 0.24120 0.24120 -0.16500
C 	C 	0.33050 0.26140 0.26140 0.42200
C 	C 	0.86420 0.70680 0.20680 0.14000
C 	C 	0.84290 0.74120 0.24120 -0.16500
C 	C 	0.83050 0.76140 0.26140 0.42200
C 	C 	0.86420 0.20680 0.70680 0.14000
C 	C 	0.84290 0.24120 0.74120 -0.16500
C 	C 	0.83050 0.26140 0.76140 0.42200
C 	C 	0.38580 0.54320 0.20680 0.14000
C 	C 	0.40710 0.50880 0.24120 -0.16500
C 	C 	0.41950 0.48860 0.26140 0.42200
C 	C 	0.38580 0.04320 0.70680 0.14100
C 	C 	0.40710 0.00880 0.74120 -0.16800
C 	C 	0.41950 0.98860 0.76140 0.42400
C 	C 	0.54320 0.20680 0.38580 0.14000
C 	C 	0.50880 0.24120 0.40710 -0.16500
C 	C 	0.48860 0.26140 0.41950 0.42200
C 	C 	0.54320 0.70680 0.88580 0.14000
C 	C 	0.50880 0.74120 0.90710 -0.16500
C 	C 	0.48860 0.76140 0.91950 0.42200
C 	C 	0.70680 0.70680 0.36420 0.14000
C 	C 	0.74120 0.74120 0.34290 -0.16500
C 	C 	0.76140 0.76140 0.33050 0.42200
C 	C 	0.70680 0.20680 0.86420 0.14000
C 	C 	0.74120 0.24120 0.84290 -0.16500
C 	C 	0.76140 0.26140 0.83050 0.42200
C 	C 	0.20680 0.70680 0.86420 0.14000
C 	C 	0.24120 0.74120 0.84290 -0.16500
C 	C 	0.26140 0.76140 0.83050 0.42200
C 	C 	0.20680 0.20680 0.36420 0.14000
C 	C 	0.24120 0.24120 0.34290 -0.16500
C 	C 	0.26140 0.26140 0.33050 0.42200
C 	C 	0.20680 0.04320 0.88580 0.14100
C 	C 	0.24120 0.00880 0.90710 -0.16800
C 	C 	0.26140 0.98860 0.91950 0.42400
C 	C 	0.20680 0.54320 0.38580 0.14000
C 	C 	0.24120 0.50880 0.40710 -0.16500
C 	C 	0.26140 0.48860 0.41950 0.42200
C 	C 	0.70680 0.04320 0.38580 0.14100
C 	C 	0.74120 0.00880 0.40710 -0.16800
C 	C 	0.76140 0.98860 0.41950 0.42400
C 	C 	0.04320 0.54320 0.86420 0.14100
C 	C 	0.00880 0.50880 0.84290 -0.16800
C 	C 	0.98860 0.48860 0.83050 0.42400
C 	C 	0.04320 0.04320 0.36420 0.14100
C 	C 	0.00880 0.00880 0.34290 -0.17100
C 	C 	0.98860 0.98860 0.33050 0.42500
C 	C 	0.54320 0.54320 0.36420 0.14000
C 	C 	0.50880 0.50880 0.34290 -0.16500
C 	C 	0.48860 0.48860 0.33050 0.42200
C 	C 	0.70680 0.36420 0.70680 0.14000
C 	C 	0.74120 0.34290 0.74120 -0.16500
C 	C 	0.76140 0.33050 0.76140 0.42200
C 	C 	0.70680 0.86420 0.20680 0.14000
C 	C 	0.74120 0.84290 0.24120 -0.16500
C 	C 	0.76140 0.83050 0.26140 0.42200
C 	C 	0.20680 0.36420 0.20680 0.14000
C 	C 	0.24120 0.34290 0.24120 -0.16500
C 	C 	0.26140 0.33050 0.26140 0.42200
C 	C 	0.20680 0.86420 0.70680 0.14000
C 	C 	0.24120 0.84290 0.74120 -0.16500
C 	C 	0.26140 0.83050 0.76140 0.42200
C 	C 	0.20680 0.38580 0.54320 0.14000
C 	C 	0.24120 0.40710 0.50880 -0.16500
C 	C 	0.26140 0.41950 0.48860 0.42200
C 	C 	0.70680 0.38580 0.04320 0.14100
C 	C 	0.74120 0.40710 0.00880 -0.16800
C 	C 	0.76140 0.41950 0.98860 0.42400
C 	C 	0.54320 0.86420 0.04320 0.14100
C 	C 	0.50880 0.84290 0.00880 -0.16800
C 	C 	0.48860 0.83050 0.98860 0.42400
C 	C 	0.54320 0.36420 0.54320 0.14000
C 	C 	0.50880 0.34290 0.50880 -0.16500
C 	C 	0.48860 0.33050 0.48860 0.42200
C 	C 	0.04320 0.88580 0.20680 0.14100
C 	C 	0.00880 0.90710 0.24120 -0.16800
C 	C 	0.98860 0.91950 0.26140 0.42400
C 	C 	0.04320 0.38580 0.70680 0.14100
C 	C 	0.00880 0.40710 0.74120 -0.16800
C 	C 	0.98860 0.41950 0.76140 0.42400
C 	C 	0.54320 0.38580 0.20680 0.14000
C 	C 	0.50880 0.40710 0.24120 -0.16500
C 	C 	0.48860 0.41950 0.26140 0.42200
C 	C 	0.20680 0.88580 0.04320 0.14100
C 	C 	0.24120 0.90710 0.00880 -0.16800
C 	C 	0.26140 0.91950 0.98860 0.42400
C 	C 	0.70680 0.88580 0.54320 0.14000
C 	C 	0.74120 0.90710 0.50880 -0.16500
C 	C 	0.76140 0.91950 0.48860 0.42200
C 	C 	0.04320 0.86420 0.54320 0.14100
C 	C 	0.00880 0.84290 0.50880 -0.16800
C 	C 	0.98860 0.83050 0.48860 0.42400
C 	C 	0.04320 0.36420 0.04320 0.14100
C 	C 	0.00880 0.34290 0.00880 -0.17100
C 	C 	0.98860 0.33050 0.98860 0.42500
C 	C 	0.54320 0.88580 0.70680 0.14000
C 	C 	0.50880 0.90710 0.74120 -0.16500
C 	C 	0.48860 0.91950 0.76140 0.42200
C 	C 	0.04320 0.20680 0.88580 0.14100
C 	C 	0.00880 0.24120 0.90710 -0.16800
C 	C 	0.98860 0.26140 0.91950 0.42400
C 	C 	0.04320 0.70680 0.38580 0.14100
C 	C 	0.00880 0.74120 0.40710 -0.16800
C 	C 	0.98860 0.76140 0.41950 0.42400
C 	C 	0.54320 0.04320 0.86420 0.14100
C 	C 	0.50880 0.00880 0.84290 -0.16800
C 	C 	0.48860 0.98860 0.83050 0.42400
C 	C 	0.70680 0.54320 0.88580 0.14000
C 	C 	0.74120 0.50880 0.90710 -0.16500
C 	C 	0.76140 0.48860 0.91950 0.42200
C 	C 	0.88580 0.04320 0.20680 0.14100
C 	C 	0.90710 0.00880 0.24120 -0.16800
C 	C 	0.91950 0.98860 0.26140 0.42400
C 	C 	0.88580 0.54320 0.70680 0.14000
C 	C 	0.90710 0.50880 0.74120 -0.16500
C 	C 	0.91950 0.48860 0.76140 0.42200
C 	C 	0.86420 0.54320 0.04320 0.14100
C 	C 	0.84290 0.50880 0.00880 -0.16800
C 	C 	0.83050 0.48860 0.98860 0.42400
C 	C 	0.38580 0.70680 0.04320 0.14100
C 	C 	0.40710 0.74120 0.00880 -0.16800
C 	C 	0.41950 0.76140 0.98860 0.42400
C 	C 	0.13580 0.95680 0.45680 0.13900
C 	C 	0.15710 0.99120 0.49120 -0.16100
C 	C 	0.16950 0.01140 0.51140 0.42000
C 	C 	0.11420 0.79320 0.95680 0.13900
C 	C 	0.09290 0.75880 0.99120 -0.16100
C 	C 	0.08050 0.73860 0.01140 0.42000
C 	C 	0.11420 0.29320 0.45680 0.14000
C 	C 	0.09290 0.25880 0.49120 -0.16500
C 	C 	0.08050 0.23860 0.51140 0.42200
C 	C 	0.61420 0.45680 0.79320 0.14000
C 	C 	0.59290 0.49120 0.75880 -0.16500
C 	C 	0.58050 0.51140 0.73860 0.42200
C 	C 	0.61420 0.95680 0.29320 0.13900
C 	C 	0.59290 0.99120 0.25880 -0.16100
C 	C 	0.58050 0.01140 0.23860 0.42000
C 	C 	0.45680 0.79320 0.61420 0.14000
C 	C 	0.49120 0.75880 0.59290 -0.16500
C 	C 	0.51140 0.73860 0.58050 0.42200
C 	C 	0.45680 0.29320 0.11420 0.14000
C 	C 	0.49120 0.25880 0.09290 -0.16500
C 	C 	0.51140 0.23860 0.08050 0.42200
C 	C 	0.79320 0.95680 0.11420 0.13900
C 	C 	0.75880 0.99120 0.09290 -0.16100
C 	C 	0.73860 0.01140 0.08050 0.42000
C 	C 	0.29320 0.95680 0.61420 0.13900
C 	C 	0.25880 0.99120 0.59290 -0.16100
C 	C 	0.23860 0.01140 0.58050 0.42000
C 	C 	0.95680 0.45680 0.13580 0.13900
C 	C 	0.99120 0.49120 0.15710 -0.16100
C 	C 	0.01140 0.51140 0.16950 0.42000
C 	C 	0.79320 0.61420 0.45680 0.14000
C 	C 	0.75880 0.59290 0.49120 -0.16500
C 	C 	0.73860 0.58050 0.51140 0.42200
C 	C 	0.29320 0.61420 0.95680 0.13900
C 	C 	0.25880 0.59290 0.99120 -0.16100
C 	C 	0.23860 0.58050 0.01140 0.42000
C 	C 	0.45680 0.13580 0.95680 0.13900
C 	C 	0.49120 0.15710 0.99120 -0.16100
C 	C 	0.51140 0.16950 0.01140 0.42000
C 	C 	0.45680 0.63580 0.45680 0.14000
C 	C 	0.49120 0.65710 0.49120 -0.16500
C 	C 	0.51140 0.66950 0.51140 0.42200
C 	C 	0.95680 0.11420 0.79320 0.13900
C 	C 	0.99120 0.09290 0.75880 -0.16100
C 	C 	0.01140 0.08050 0.73860 0.42000
C 	C 	0.95680 0.61420 0.29320 0.13900
C 	C 	0.99120 0.59290 0.25880 -0.16100
C 	C 	0.01140 0.58050 0.23860 0.42000
C 	C 	0.59270 0.09270 0.05890 0.15300
C 	C 	0.59270 0.59270 0.55890 0.15400
C 	C 	0.15730 0.15730 0.55890 0.15400
C 	C 	0.15730 0.65730 0.05890 0.15300
C 	C 	0.65730 0.15730 0.05890 0.15300
C 	C 	0.65730 0.65730 0.55890 0.15400
C 	C 	0.65730 0.59270 0.69110 0.15400
C 	C 	0.15730 0.59270 0.19110 0.15400
C 	C 	0.09270 0.65730 0.19110 0.15300
C 	C 	0.09270 0.15730 0.69110 0.15300
C 	C 	0.05890 0.59270 0.09270 0.15300
C 	C 	0.55890 0.59270 0.59270 0.15400
C 	C 	0.55890 0.15730 0.15730 0.15400
C 	C 	0.55890 0.65730 0.65730 0.15400
C 	C 	0.05890 0.15730 0.65730 0.15300
C 	C 	0.05890 0.65730 0.15730 0.15300
C 	C 	0.69110 0.65730 0.59270 0.15400
C 	C 	0.69110 0.15730 0.09270 0.15300
C 	C 	0.19110 0.09270 0.65730 0.15300
C 	C 	0.19110 0.59270 0.15730 0.15400
C 	C 	0.09270 0.05890 0.59270 0.15300
C 	C 	0.09270 0.55890 0.09270 0.15300
C 	C 	0.15730 0.55890 0.15730 0.15400
C 	C 	0.15730 0.05890 0.65730 0.15300
C 	C 	0.65730 0.55890 0.65730 0.15400
C 	C 	0.65730 0.05890 0.15730 0.15300
C 	C 	0.59270 0.69110 0.65730 0.15400
C 	C 	0.59270 0.19110 0.15730 0.15400
C 	C 	0.65730 0.19110 0.09270 0.15300
C 	C 	0.15730 0.19110 0.59270 0.15400
C 	C 	0.84270 0.84270 0.44110 0.15400
C 	C 	0.84270 0.34270 0.94110 0.15400
C 	C 	0.34270 0.84270 0.94110 0.15400
C 	C 	0.34270 0.34270 0.44110 0.15400
C 	C 	0.90730 0.40730 0.94110 0.15400
C 	C 	0.90730 0.90730 0.44110 0.15400
C 	C 	0.34270 0.90730 0.80890 0.15400
C 	C 	0.84270 0.90730 0.30890 0.15400
C 	C 	0.40730 0.34270 0.30890 0.15400
C 	C 	0.40730 0.84270 0.80890 0.15400
C 	C 	0.34270 0.30890 0.40730 0.15400
C 	C 	0.84270 0.30890 0.90730 0.15400
C 	C 	0.90730 0.80890 0.34270 0.15400
C 	C 	0.90730 0.30890 0.84270 0.15400
C 	C 	0.40730 0.94110 0.90730 0.15400
C 	C 	0.40730 0.44110 0.40730 0.15400
C 	C 	0.84270 0.44110 0.84270 0.15400
C 	C 	0.84270 0.94110 0.34270 0.15400
C 	C 	0.34270 0.44110 0.34270 0.15400
C 	C 	0.34270 0.94110 0.84270 0.15400
C 	C 	0.80890 0.34270 0.90730 0.15400
C 	C 	0.80890 0.84270 0.40730 0.15400
C 	C 	0.30890 0.40730 0.34270 0.15400
C 	C 	0.30890 0.90730 0.84270 0.15400
C 	C 	0.44110 0.84270 0.84270 0.15400
C 	C 	0.44110 0.34270 0.34270 0.15400
C 	C 	0.94110 0.84270 0.34270 0.15400
C 	C 	0.94110 0.34270 0.84270 0.15400
C 	C 	0.94110 0.90730 0.40730 0.15400
C 	C 	0.44110 0.90730 0.90730 0.15400
C 	C 	0.40730 0.90730 0.94110 0.15400
C 	C 	0.40730 0.40730 0.44110 0.15400
C 	C 	0.34270 0.40730 0.30890 0.15400
C 	C 	0.84270 0.40730 0.80890 0.15400
C 	C 	0.90730 0.34270 0.80890 0.15400
C 	C 	0.90730 0.84270 0.30890 0.15400
C 	C 	0.94110 0.40730 0.90730 0.15400
C 	C 	0.44110 0.40730 0.40730 0.15400
C 	C 	0.30890 0.34270 0.40730 0.15400
C 	C 	0.30890 0.84270 0.90730 0.15400
C 	C 	0.80890 0.90730 0.34270 0.15400
C 	C 	0.80890 0.40730 0.84270 0.15400
C 	C 	0.90730 0.94110 0.40730 0.15400
C 	C 	0.90730 0.44110 0.90730 0.15400
C 	C 	0.40730 0.30890 0.34270 0.15400
C 	C 	0.40730 0.80890 0.84270 0.15400
C 	C 	0.34270 0.80890 0.90730 0.15400
C 	C 	0.84270 0.80890 0.40730 0.15400
C 	C 	0.09270 0.59270 0.05890 0.15300
C 	C 	0.09270 0.09270 0.55890 0.15300
C 	C 	0.65730 0.09270 0.19110 0.15300
C 	C 	0.15730 0.09270 0.69110 0.15300
C 	C 	0.59270 0.65730 0.69110 0.15400
C 	C 	0.59270 0.15730 0.19110 0.15400
C 	C 	0.65730 0.69110 0.59270 0.15400
C 	C 	0.15730 0.69110 0.09270 0.15300
C 	C 	0.09270 0.19110 0.65730 0.15300
C 	C 	0.09270 0.69110 0.15730 0.15300
C 	C 	0.59270 0.05890 0.09270 0.15300
C 	C 	0.59270 0.55890 0.59270 0.15400
C 	C 	0.19110 0.65730 0.09270 0.15300
C 	C 	0.19110 0.15730 0.59270 0.15400
C 	C 	0.69110 0.59270 0.65730 0.15400
C 	C 	0.69110 0.09270 0.15730 0.15300
C 	C 	0.05890 0.09270 0.59270 0.15300
C 	C 	0.55890 0.09270 0.09270 0.15300
