data_crystal

_cell_length_a 50.51290
_cell_length_b 50.51290
_cell_length_c 50.51290
_cell_angle_alpha 90.00000
_cell_angle_beta  90.00000
_cell_angle_gamma 90.00000

_symmetry_space_group_name_	'P 1'
_symmetry_space_group_name_H-M	'P 1'

loop_
_symmetry_equiv_pos_as_xyz
  x,y,z

loop_
_atom_site_label
_atom_site_type_symbol
_atom_site_fract_x
_atom_site_fract_y
_atom_site_fract_z
_atom_site_charge
O 	O 	0.89000 0.09960 0.03406 -0.49800
O 	O 	0.92458 0.12037 0.02107 -0.39200
O 	O 	0.01156 0.06130 0.09270 -0.57500
O 	O 	0.83688 0.10735 0.01278 -0.43300
O 	O 	0.84235 0.12737 0.97564 -0.46700
O 	O 	0.71412 0.07890 0.00514 -0.42000
O 	O 	0.63961 0.07093 0.04056 -0.43500
C 	C 	0.91400 0.10440 0.03543 0.39200
C 	C 	0.92970 0.08880 0.05544 -0.16700
C 	C 	0.95720 0.09090 0.05680 0.13200
C 	C 	0.82773 0.11582 0.99188 0.37300
C 	C 	0.79951 0.11098 0.98392 -0.16100
C 	C 	0.78198 0.09996 0.00186 0.14500
O 	O 	0.89000 0.59960 0.53406 -0.49700
O 	O 	0.92458 0.62037 0.52107 -0.39100
O 	O 	0.01156 0.56130 0.59270 -0.57500
O 	O 	0.83688 0.60735 0.51278 -0.43200
O 	O 	0.84235 0.62737 0.47564 -0.46700
O 	O 	0.71412 0.57890 0.50514 -0.42000
O 	O 	0.63961 0.57093 0.54056 -0.43400
C 	C 	0.91400 0.60440 0.53543 0.39200
C 	C 	0.92970 0.58880 0.55544 -0.16700
C 	C 	0.95720 0.59090 0.55680 0.13200
C 	C 	0.82773 0.61582 0.49188 0.37200
C 	C 	0.79951 0.61098 0.48392 -0.16300
C 	C 	0.78198 0.59996 0.50186 0.14800
O 	O 	0.39000 0.09960 0.53406 -0.49700
O 	O 	0.42458 0.12037 0.52107 -0.39200
O 	O 	0.51156 0.06130 0.59270 -0.57400
O 	O 	0.33688 0.10735 0.51278 -0.43200
O 	O 	0.34235 0.12737 0.47564 -0.46700
O 	O 	0.21412 0.07890 0.50514 -0.42000
O 	O 	0.13961 0.07093 0.54056 -0.43400
C 	C 	0.41400 0.10440 0.53543 0.39200
C 	C 	0.42970 0.08880 0.55544 -0.16700
C 	C 	0.45720 0.09090 0.55680 0.13100
C 	C 	0.32773 0.11582 0.49188 0.37200
C 	C 	0.29951 0.11098 0.48392 -0.16300
C 	C 	0.28198 0.09996 0.50186 0.14800
O 	O 	0.39000 0.59960 0.03406 -0.49700
O 	O 	0.42458 0.62037 0.02107 -0.39200
O 	O 	0.51156 0.56130 0.09270 -0.57400
O 	O 	0.33688 0.60735 0.01278 -0.43300
O 	O 	0.34235 0.62737 0.97564 -0.46700
O 	O 	0.21412 0.57890 0.00514 -0.41900
O 	O 	0.13961 0.57093 0.04056 -0.43400
C 	C 	0.41400 0.60440 0.03543 0.39200
C 	C 	0.42970 0.58880 0.05544 -0.16700
C 	C 	0.45720 0.59090 0.05680 0.13100
C 	C 	0.32773 0.61582 0.99188 0.37300
C 	C 	0.29951 0.61098 0.98392 -0.16100
C 	C 	0.28198 0.59996 0.00186 0.14500
O 	O 	0.86000 0.15040 0.53406 -0.49700
O 	O 	0.82542 0.12963 0.52107 -0.39200
O 	O 	0.73844 0.18870 0.59270 -0.57400
O 	O 	0.91312 0.14265 0.51278 -0.43200
O 	O 	0.90765 0.12263 0.47564 -0.46700
O 	O 	0.03588 0.17110 0.50514 -0.41900
O 	O 	0.11039 0.17907 0.54056 -0.43400
C 	C 	0.83600 0.14560 0.53543 0.39200
C 	C 	0.82030 0.16120 0.55544 -0.16700
C 	C 	0.79280 0.15910 0.55680 0.13100
C 	C 	0.92227 0.13418 0.49188 0.37100
C 	C 	0.95049 0.13902 0.48392 -0.16200
C 	C 	0.96802 0.15004 0.50186 0.14600
O 	O 	0.86000 0.65040 0.03406 -0.49800
O 	O 	0.82542 0.62963 0.02107 -0.39300
O 	O 	0.73844 0.68870 0.09270 -0.57500
O 	O 	0.91312 0.64265 0.01278 -0.43400
O 	O 	0.90765 0.62263 0.97564 -0.46800
O 	O 	0.03588 0.67110 0.00514 -0.42000
O 	O 	0.11039 0.67907 0.04056 -0.43500
C 	C 	0.83600 0.64560 0.03543 0.39100
C 	C 	0.82030 0.66120 0.05544 -0.16800
C 	C 	0.79280 0.65910 0.05680 0.13000
C 	C 	0.92227 0.63418 0.99188 0.37200
C 	C 	0.95049 0.63902 0.98392 -0.16100
C 	C 	0.96802 0.65004 0.00186 0.14300
O 	O 	0.36000 0.15040 0.03406 -0.49800
O 	O 	0.32542 0.12963 0.02107 -0.39300
O 	O 	0.23844 0.18870 0.09270 -0.57500
O 	O 	0.41312 0.14265 0.01278 -0.43400
O 	O 	0.40765 0.12263 0.97564 -0.46800
O 	O 	0.53588 0.17110 0.00514 -0.42000
O 	O 	0.61039 0.17907 0.04056 -0.43500
C 	C 	0.33600 0.14560 0.03543 0.39100
C 	C 	0.32030 0.16120 0.05544 -0.16800
C 	C 	0.29280 0.15910 0.05680 0.13000
C 	C 	0.42227 0.13418 0.99188 0.37200
C 	C 	0.45049 0.13902 0.98392 -0.16200
C 	C 	0.46802 0.15004 0.00186 0.14400
O 	O 	0.36000 0.65040 0.53406 -0.49800
O 	O 	0.32542 0.62963 0.52107 -0.39300
O 	O 	0.23844 0.68870 0.59270 -0.57500
O 	O 	0.41312 0.64265 0.51278 -0.43300
O 	O 	0.40765 0.62263 0.47564 -0.46800
O 	O 	0.53588 0.67110 0.50514 -0.42100
O 	O 	0.61039 0.67907 0.54056 -0.43500
C 	C 	0.33600 0.64560 0.53543 0.39100
C 	C 	0.32030 0.66120 0.55544 -0.16800
C 	C 	0.29280 0.65910 0.55680 0.13000
C 	C 	0.42227 0.63418 0.49188 0.37100
C 	C 	0.45049 0.63902 0.48392 -0.16400
C 	C 	0.46802 0.65004 0.50186 0.14700
O 	O 	0.36000 0.59960 0.71594 -0.49800
O 	O 	0.32542 0.62037 0.72893 -0.39300
O 	O 	0.23844 0.56130 0.65730 -0.57500
O 	O 	0.41312 0.60735 0.73722 -0.43300
O 	O 	0.40765 0.62737 0.77436 -0.46800
O 	O 	0.53588 0.57890 0.74486 -0.42100
O 	O 	0.61039 0.57093 0.70944 -0.43500
C 	C 	0.33600 0.60440 0.71457 0.39100
C 	C 	0.32030 0.58880 0.69456 -0.16800
C 	C 	0.29280 0.59090 0.69320 0.13000
C 	C 	0.42227 0.61582 0.75812 0.37100
C 	C 	0.45049 0.61098 0.76608 -0.16400
C 	C 	0.46802 0.59996 0.74814 0.14700
O 	O 	0.36000 0.09960 0.21594 -0.49800
O 	O 	0.32542 0.12037 0.22893 -0.39300
O 	O 	0.23844 0.06130 0.15730 -0.57500
O 	O 	0.41312 0.10735 0.23722 -0.43300
O 	O 	0.40765 0.12737 0.27436 -0.46800
O 	O 	0.53588 0.07890 0.24486 -0.42100
O 	O 	0.61039 0.07093 0.20944 -0.43500
C 	C 	0.33600 0.10440 0.21457 0.39100
C 	C 	0.32030 0.08880 0.19456 -0.16800
C 	C 	0.29280 0.09090 0.19320 0.13000
C 	C 	0.42227 0.11582 0.25812 0.37100
C 	C 	0.45049 0.11098 0.26608 -0.16400
C 	C 	0.46802 0.09996 0.24814 0.14700
O 	O 	0.86000 0.59960 0.21594 -0.49800
O 	O 	0.82542 0.62037 0.22893 -0.39300
O 	O 	0.73844 0.56130 0.15730 -0.57500
O 	O 	0.91312 0.60735 0.23722 -0.43300
O 	O 	0.90765 0.62737 0.27436 -0.46800
O 	O 	0.03588 0.57890 0.24486 -0.42000
O 	O 	0.11039 0.57093 0.20944 -0.43500
C 	C 	0.83600 0.60440 0.21457 0.39100
C 	C 	0.82030 0.58880 0.19456 -0.16800
C 	C 	0.79280 0.59090 0.19320 0.13000
C 	C 	0.92227 0.61582 0.25812 0.37000
C 	C 	0.95049 0.61098 0.26608 -0.16300
C 	C 	0.96802 0.59996 0.24814 0.14600
O 	O 	0.86000 0.09960 0.71594 -0.49800
O 	O 	0.82542 0.12037 0.72893 -0.39300
O 	O 	0.73844 0.06130 0.65730 -0.57500
O 	O 	0.91312 0.10735 0.73722 -0.43300
O 	O 	0.90765 0.12737 0.77436 -0.46800
O 	O 	0.03588 0.07890 0.74486 -0.42000
O 	O 	0.11039 0.07093 0.70944 -0.43500
C 	C 	0.83600 0.10440 0.71457 0.39100
C 	C 	0.82030 0.08880 0.69456 -0.16800
C 	C 	0.79280 0.09090 0.69320 0.13000
C 	C 	0.92227 0.11582 0.75812 0.37000
C 	C 	0.95049 0.11098 0.76608 -0.16300
C 	C 	0.96802 0.09996 0.74814 0.14600
O 	O 	0.39000 0.65040 0.21594 -0.49800
O 	O 	0.42458 0.62963 0.22893 -0.39300
O 	O 	0.51156 0.68870 0.15730 -0.57500
O 	O 	0.33688 0.64265 0.23722 -0.43300
O 	O 	0.34235 0.62263 0.27436 -0.46800
O 	O 	0.21412 0.67110 0.24486 -0.42100
O 	O 	0.13961 0.67907 0.20944 -0.43500
C 	C 	0.41400 0.64560 0.21457 0.39100
C 	C 	0.42970 0.66120 0.19456 -0.16800
C 	C 	0.45720 0.65910 0.19320 0.13000
C 	C 	0.32773 0.63418 0.25812 0.37100
C 	C 	0.29951 0.63902 0.26608 -0.16400
C 	C 	0.28198 0.65004 0.24814 0.14700
O 	O 	0.39000 0.15040 0.71594 -0.49800
O 	O 	0.42458 0.12963 0.72893 -0.39300
O 	O 	0.51156 0.18870 0.65730 -0.57500
O 	O 	0.33688 0.14265 0.73722 -0.43300
O 	O 	0.34235 0.12263 0.77436 -0.46800
O 	O 	0.21412 0.17110 0.74486 -0.42100
O 	O 	0.13961 0.17907 0.70944 -0.43500
C 	C 	0.41400 0.14560 0.71457 0.39100
C 	C 	0.42970 0.16120 0.69456 -0.16800
C 	C 	0.45720 0.15910 0.69320 0.13000
C 	C 	0.32773 0.13418 0.75812 0.37100
C 	C 	0.29951 0.13902 0.76608 -0.16400
C 	C 	0.28198 0.15004 0.74814 0.14700
O 	O 	0.89000 0.65040 0.71594 -0.49800
O 	O 	0.92458 0.62963 0.72893 -0.39200
O 	O 	0.01156 0.68870 0.65730 -0.57600
O 	O 	0.83688 0.64265 0.73722 -0.43300
O 	O 	0.84235 0.62263 0.77436 -0.46800
O 	O 	0.71412 0.67110 0.74486 -0.42100
O 	O 	0.63961 0.67907 0.70944 -0.43500
C 	C 	0.91400 0.64560 0.71457 0.39100
C 	C 	0.92970 0.66120 0.69456 -0.16800
C 	C 	0.95720 0.65910 0.69320 0.13100
C 	C 	0.82773 0.63418 0.75812 0.37100
C 	C 	0.79951 0.63902 0.76608 -0.16400
C 	C 	0.78198 0.65004 0.74814 0.14700
O 	O 	0.89000 0.15040 0.21594 -0.49800
O 	O 	0.92458 0.12963 0.22893 -0.39200
O 	O 	0.01156 0.18870 0.15730 -0.57600
O 	O 	0.83688 0.14265 0.23722 -0.43300
O 	O 	0.84235 0.12263 0.27436 -0.46800
O 	O 	0.71412 0.17110 0.24486 -0.42100
O 	O 	0.63961 0.17907 0.20944 -0.43500
C 	C 	0.91400 0.14560 0.21457 0.39100
C 	C 	0.92970 0.16120 0.19456 -0.16800
C 	C 	0.95720 0.15910 0.19320 0.13100
C 	C 	0.82773 0.13418 0.25812 0.37100
C 	C 	0.79951 0.13902 0.26608 -0.16400
C 	C 	0.78198 0.15004 0.24814 0.14700
O 	O 	0.03406 0.89000 0.09960 -0.49900
O 	O 	0.02107 0.92458 0.12037 -0.39300
O 	O 	0.09270 0.01156 0.06130 -0.57600
O 	O 	0.01278 0.83688 0.10735 -0.43400
O 	O 	0.97564 0.84235 0.12737 -0.46800
O 	O 	0.00514 0.71412 0.07890 -0.42100
O 	O 	0.04056 0.63961 0.07093 -0.43600
C 	C 	0.03543 0.91400 0.10440 0.39100
C 	C 	0.05544 0.92970 0.08880 -0.16800
C 	C 	0.05680 0.95720 0.09090 0.13100
C 	C 	0.99188 0.82773 0.11582 0.37200
C 	C 	0.98392 0.79951 0.11098 -0.16200
C 	C 	0.00186 0.78198 0.09996 0.14400
O 	O 	0.03406 0.39000 0.59960 -0.49800
O 	O 	0.02107 0.42458 0.62037 -0.39300
O 	O 	0.09270 0.51156 0.56130 -0.57500
O 	O 	0.01278 0.33688 0.60735 -0.43400
O 	O 	0.97564 0.34235 0.62737 -0.46800
O 	O 	0.00514 0.21412 0.57890 -0.42000
O 	O 	0.04056 0.13961 0.57093 -0.43500
C 	C 	0.03543 0.41400 0.60440 0.39100
C 	C 	0.05544 0.42970 0.58880 -0.16800
C 	C 	0.05680 0.45720 0.59090 0.13000
C 	C 	0.99188 0.32773 0.61582 0.37200
C 	C 	0.98392 0.29951 0.61098 -0.16200
C 	C 	0.00186 0.28198 0.59996 0.14400
O 	O 	0.53406 0.89000 0.59960 -0.49800
O 	O 	0.52107 0.92458 0.62037 -0.39200
O 	O 	0.59270 0.01156 0.56130 -0.57600
O 	O 	0.51278 0.83688 0.60735 -0.43300
O 	O 	0.47564 0.84235 0.62737 -0.46800
O 	O 	0.50514 0.71412 0.57890 -0.42100
O 	O 	0.54056 0.63961 0.57093 -0.43500
C 	C 	0.53543 0.91400 0.60440 0.39100
C 	C 	0.55544 0.92970 0.58880 -0.16800
C 	C 	0.55680 0.95720 0.59090 0.13100
C 	C 	0.49188 0.82773 0.61582 0.37100
C 	C 	0.48392 0.79951 0.61098 -0.16400
C 	C 	0.50186 0.78198 0.59996 0.14700
O 	O 	0.53406 0.39000 0.09960 -0.49800
O 	O 	0.52107 0.42458 0.12037 -0.39300
O 	O 	0.59270 0.51156 0.06130 -0.57500
O 	O 	0.51278 0.33688 0.10735 -0.43300
O 	O 	0.47564 0.34235 0.12737 -0.46800
O 	O 	0.50514 0.21412 0.07890 -0.42100
O 	O 	0.54056 0.13961 0.07093 -0.43500
C 	C 	0.53543 0.41400 0.10440 0.39100
C 	C 	0.55544 0.42970 0.08880 -0.16800
C 	C 	0.55680 0.45720 0.09090 0.13000
C 	C 	0.49188 0.32773 0.11582 0.37100
C 	C 	0.48392 0.29951 0.11098 -0.16400
C 	C 	0.50186 0.28198 0.09996 0.14700
O 	O 	0.53406 0.86000 0.15040 -0.49800
O 	O 	0.52107 0.82542 0.12963 -0.39300
O 	O 	0.59270 0.73844 0.18870 -0.57500
O 	O 	0.51278 0.91312 0.14265 -0.43300
O 	O 	0.47564 0.90765 0.12263 -0.46800
O 	O 	0.50514 0.03588 0.17110 -0.42000
O 	O 	0.54056 0.11039 0.17907 -0.43500
C 	C 	0.53543 0.83600 0.14560 0.39100
C 	C 	0.55544 0.82030 0.16120 -0.16800
C 	C 	0.55680 0.79280 0.15910 0.13000
C 	C 	0.49188 0.92227 0.13418 0.37000
C 	C 	0.48392 0.95049 0.13902 -0.16300
C 	C 	0.50186 0.96802 0.15004 0.14600
O 	O 	0.53406 0.36000 0.65040 -0.49800
O 	O 	0.52107 0.32542 0.62963 -0.39300
O 	O 	0.59270 0.23844 0.68870 -0.57500
O 	O 	0.51278 0.41312 0.64265 -0.43300
O 	O 	0.47564 0.40765 0.62263 -0.46800
O 	O 	0.50514 0.53588 0.67110 -0.42100
O 	O 	0.54056 0.61039 0.67907 -0.43500
C 	C 	0.53543 0.33600 0.64560 0.39100
C 	C 	0.55544 0.32030 0.66120 -0.16800
C 	C 	0.55680 0.29280 0.65910 0.13000
C 	C 	0.49188 0.42227 0.63418 0.37100
C 	C 	0.48392 0.45049 0.63902 -0.16400
C 	C 	0.50186 0.46802 0.65004 0.14700
O 	O 	0.03406 0.86000 0.65040 -0.49800
O 	O 	0.02107 0.82542 0.62963 -0.39300
O 	O 	0.09270 0.73844 0.68870 -0.57500
O 	O 	0.01278 0.91312 0.64265 -0.43400
O 	O 	0.97564 0.90765 0.62263 -0.46800
O 	O 	0.00514 0.03588 0.67110 -0.42000
O 	O 	0.04056 0.11039 0.67907 -0.43500
C 	C 	0.03543 0.83600 0.64560 0.39100
C 	C 	0.05544 0.82030 0.66120 -0.16800
C 	C 	0.05680 0.79280 0.65910 0.13000
C 	C 	0.99188 0.92227 0.63418 0.37200
C 	C 	0.98392 0.95049 0.63902 -0.16100
C 	C 	0.00186 0.96802 0.65004 0.14300
O 	O 	0.03406 0.36000 0.15040 -0.49800
O 	O 	0.02107 0.32542 0.12963 -0.39300
O 	O 	0.09270 0.23844 0.18870 -0.57500
O 	O 	0.01278 0.41312 0.14265 -0.43400
O 	O 	0.97564 0.40765 0.12263 -0.46800
O 	O 	0.00514 0.53588 0.17110 -0.42000
O 	O 	0.04056 0.61039 0.17907 -0.43500
C 	C 	0.03543 0.33600 0.14560 0.39100
C 	C 	0.05544 0.32030 0.16120 -0.16800
C 	C 	0.05680 0.29280 0.15910 0.13000
C 	C 	0.99188 0.42227 0.13418 0.37200
C 	C 	0.98392 0.45049 0.13902 -0.16200
C 	C 	0.00186 0.46802 0.15004 0.14400
O 	O 	0.71594 0.36000 0.59960 -0.49800
O 	O 	0.72893 0.32542 0.62037 -0.39300
O 	O 	0.65730 0.23844 0.56130 -0.57500
O 	O 	0.73722 0.41312 0.60735 -0.43300
O 	O 	0.77436 0.40765 0.62737 -0.46800
O 	O 	0.74486 0.53588 0.57890 -0.42100
O 	O 	0.70944 0.61039 0.57093 -0.43500
C 	C 	0.71457 0.33600 0.60440 0.39100
C 	C 	0.69456 0.32030 0.58880 -0.16800
C 	C 	0.69320 0.29280 0.59090 0.13000
C 	C 	0.75812 0.42227 0.61582 0.37100
C 	C 	0.76608 0.45049 0.61098 -0.16400
C 	C 	0.74814 0.46802 0.59996 0.14700
O 	O 	0.71594 0.86000 0.09960 -0.49800
O 	O 	0.72893 0.82542 0.12037 -0.39300
O 	O 	0.65730 0.73844 0.06130 -0.57500
O 	O 	0.73722 0.91312 0.10735 -0.43300
O 	O 	0.77436 0.90765 0.12737 -0.46800
O 	O 	0.74486 0.03588 0.07890 -0.42000
O 	O 	0.70944 0.11039 0.07093 -0.43500
C 	C 	0.71457 0.83600 0.10440 0.39100
C 	C 	0.69456 0.82030 0.08880 -0.16800
C 	C 	0.69320 0.79280 0.09090 0.13000
C 	C 	0.75812 0.92227 0.11582 0.37000
C 	C 	0.76608 0.95049 0.11098 -0.16300
C 	C 	0.74814 0.96802 0.09996 0.14600
O 	O 	0.21594 0.36000 0.09960 -0.49800
O 	O 	0.22893 0.32542 0.12037 -0.39300
O 	O 	0.15730 0.23844 0.06130 -0.57500
O 	O 	0.23722 0.41312 0.10735 -0.43300
O 	O 	0.27436 0.40765 0.12737 -0.46800
O 	O 	0.24486 0.53588 0.07890 -0.42100
O 	O 	0.20944 0.61039 0.07093 -0.43500
C 	C 	0.21457 0.33600 0.10440 0.39100
C 	C 	0.19456 0.32030 0.08880 -0.16800
C 	C 	0.19320 0.29280 0.09090 0.13000
C 	C 	0.25812 0.42227 0.11582 0.37100
C 	C 	0.26608 0.45049 0.11098 -0.16400
C 	C 	0.24814 0.46802 0.09996 0.14700
O 	O 	0.21594 0.86000 0.59960 -0.49800
O 	O 	0.22893 0.82542 0.62037 -0.39300
O 	O 	0.15730 0.73844 0.56130 -0.57500
O 	O 	0.23722 0.91312 0.60735 -0.43300
O 	O 	0.27436 0.90765 0.62737 -0.46800
O 	O 	0.24486 0.03588 0.57890 -0.42000
O 	O 	0.20944 0.11039 0.57093 -0.43500
C 	C 	0.21457 0.83600 0.60440 0.39100
C 	C 	0.19456 0.82030 0.58880 -0.16800
C 	C 	0.19320 0.79280 0.59090 0.13000
C 	C 	0.25812 0.92227 0.61582 0.37000
C 	C 	0.26608 0.95049 0.61098 -0.16300
C 	C 	0.24814 0.96802 0.59996 0.14600
O 	O 	0.21594 0.39000 0.65040 -0.49800
O 	O 	0.22893 0.42458 0.62963 -0.39300
O 	O 	0.15730 0.51156 0.68870 -0.57500
O 	O 	0.23722 0.33688 0.64265 -0.43300
O 	O 	0.27436 0.34235 0.62263 -0.46800
O 	O 	0.24486 0.21412 0.67110 -0.42100
O 	O 	0.20944 0.13961 0.67907 -0.43500
C 	C 	0.21457 0.41400 0.64560 0.39100
C 	C 	0.19456 0.42970 0.66120 -0.16800
C 	C 	0.19320 0.45720 0.65910 0.13000
C 	C 	0.25812 0.32773 0.63418 0.37100
C 	C 	0.26608 0.29951 0.63902 -0.16400
C 	C 	0.24814 0.28198 0.65004 0.14700
O 	O 	0.21594 0.89000 0.15040 -0.49800
O 	O 	0.22893 0.92458 0.12963 -0.39200
O 	O 	0.15730 0.01156 0.18870 -0.57600
O 	O 	0.23722 0.83688 0.14265 -0.43300
O 	O 	0.27436 0.84235 0.12263 -0.46800
O 	O 	0.24486 0.71412 0.17110 -0.42100
O 	O 	0.20944 0.63961 0.17907 -0.43500
C 	C 	0.21457 0.91400 0.14560 0.39100
C 	C 	0.19456 0.92970 0.16120 -0.16800
C 	C 	0.19320 0.95720 0.15910 0.13100
C 	C 	0.25812 0.82773 0.13418 0.37100
C 	C 	0.26608 0.79951 0.13902 -0.16400
C 	C 	0.24814 0.78198 0.15004 0.14700
O 	O 	0.71594 0.39000 0.15040 -0.49800
O 	O 	0.72893 0.42458 0.12963 -0.39300
O 	O 	0.65730 0.51156 0.18870 -0.57500
O 	O 	0.73722 0.33688 0.14265 -0.43300
O 	O 	0.77436 0.34235 0.12263 -0.46800
O 	O 	0.74486 0.21412 0.17110 -0.42100
O 	O 	0.70944 0.13961 0.17907 -0.43500
C 	C 	0.71457 0.41400 0.14560 0.39100
C 	C 	0.69456 0.42970 0.16120 -0.16800
C 	C 	0.69320 0.45720 0.15910 0.13000
C 	C 	0.75812 0.32773 0.13418 0.37100
C 	C 	0.76608 0.29951 0.13902 -0.16400
C 	C 	0.74814 0.28198 0.15004 0.14700
O 	O 	0.71594 0.89000 0.65040 -0.49800
O 	O 	0.72893 0.92458 0.62963 -0.39200
O 	O 	0.65730 0.01156 0.68870 -0.57600
O 	O 	0.73722 0.83688 0.64265 -0.43300
O 	O 	0.77436 0.84235 0.62263 -0.46800
O 	O 	0.74486 0.71412 0.67110 -0.42100
O 	O 	0.70944 0.63961 0.67907 -0.43500
C 	C 	0.71457 0.91400 0.64560 0.39100
C 	C 	0.69456 0.92970 0.66120 -0.16800
C 	C 	0.69320 0.95720 0.65910 0.13100
C 	C 	0.75812 0.82773 0.63418 0.37100
C 	C 	0.76608 0.79951 0.63902 -0.16400
C 	C 	0.74814 0.78198 0.65004 0.14700
O 	O 	0.09960 0.03406 0.89000 -0.49900
O 	O 	0.12037 0.02107 0.92458 -0.39300
O 	O 	0.06130 0.09270 0.01156 -0.57600
O 	O 	0.10735 0.01278 0.83688 -0.43400
O 	O 	0.12737 0.97564 0.84235 -0.46800
O 	O 	0.07890 0.00514 0.71412 -0.42100
O 	O 	0.07093 0.04056 0.63961 -0.43600
C 	C 	0.10440 0.03543 0.91400 0.39100
C 	C 	0.08880 0.05544 0.92970 -0.16800
C 	C 	0.09090 0.05680 0.95720 0.13100
C 	C 	0.11582 0.99188 0.82773 0.37200
C 	C 	0.11098 0.98392 0.79951 -0.16200
C 	C 	0.09996 0.00186 0.78198 0.14400
O 	O 	0.09960 0.53406 0.39000 -0.49800
O 	O 	0.12037 0.52107 0.42458 -0.39300
O 	O 	0.06130 0.59270 0.51156 -0.57500
O 	O 	0.10735 0.51278 0.33688 -0.43300
O 	O 	0.12737 0.47564 0.34235 -0.46800
O 	O 	0.07890 0.50514 0.21412 -0.42100
O 	O 	0.07093 0.54056 0.13961 -0.43500
C 	C 	0.10440 0.53543 0.41400 0.39100
C 	C 	0.08880 0.55544 0.42970 -0.16800
C 	C 	0.09090 0.55680 0.45720 0.13000
C 	C 	0.11582 0.49188 0.32773 0.37100
C 	C 	0.11098 0.48392 0.29951 -0.16400
C 	C 	0.09996 0.50186 0.28198 0.14700
O 	O 	0.59960 0.03406 0.39000 -0.49800
O 	O 	0.62037 0.02107 0.42458 -0.39300
O 	O 	0.56130 0.09270 0.51156 -0.57500
O 	O 	0.60735 0.01278 0.33688 -0.43400
O 	O 	0.62737 0.97564 0.34235 -0.46800
O 	O 	0.57890 0.00514 0.21412 -0.42000
O 	O 	0.57093 0.04056 0.13961 -0.43500
C 	C 	0.60440 0.03543 0.41400 0.39100
C 	C 	0.58880 0.05544 0.42970 -0.16800
C 	C 	0.59090 0.05680 0.45720 0.13000
C 	C 	0.61582 0.99188 0.32773 0.37200
C 	C 	0.61098 0.98392 0.29951 -0.16200
C 	C 	0.59996 0.00186 0.28198 0.14400
O 	O 	0.59960 0.53406 0.89000 -0.49800
O 	O 	0.62037 0.52107 0.92458 -0.39200
O 	O 	0.56130 0.59270 0.01156 -0.57600
O 	O 	0.60735 0.51278 0.83688 -0.43300
O 	O 	0.62737 0.47564 0.84235 -0.46800
O 	O 	0.57890 0.50514 0.71412 -0.42100
O 	O 	0.57093 0.54056 0.63961 -0.43500
C 	C 	0.60440 0.53543 0.91400 0.39100
C 	C 	0.58880 0.55544 0.92970 -0.16800
C 	C 	0.59090 0.55680 0.95720 0.13100
C 	C 	0.61582 0.49188 0.82773 0.37100
C 	C 	0.61098 0.48392 0.79951 -0.16400
C 	C 	0.59996 0.50186 0.78198 0.14700
O 	O 	0.15040 0.53406 0.86000 -0.49800
O 	O 	0.12963 0.52107 0.82542 -0.39300
O 	O 	0.18870 0.59270 0.73844 -0.57500
O 	O 	0.14265 0.51278 0.91312 -0.43300
O 	O 	0.12263 0.47564 0.90765 -0.46800
O 	O 	0.17110 0.50514 0.03588 -0.42000
O 	O 	0.17907 0.54056 0.11039 -0.43500
C 	C 	0.14560 0.53543 0.83600 0.39100
C 	C 	0.16120 0.55544 0.82030 -0.16800
C 	C 	0.15910 0.55680 0.79280 0.13000
C 	C 	0.13418 0.49188 0.92227 0.37000
C 	C 	0.13902 0.48392 0.95049 -0.16300
C 	C 	0.15004 0.50186 0.96802 0.14600
O 	O 	0.15040 0.03406 0.36000 -0.49800
O 	O 	0.12963 0.02107 0.32542 -0.39300
O 	O 	0.18870 0.09270 0.23844 -0.57500
O 	O 	0.14265 0.01278 0.41312 -0.43400
O 	O 	0.12263 0.97564 0.40765 -0.46800
O 	O 	0.17110 0.00514 0.53588 -0.42000
O 	O 	0.17907 0.04056 0.61039 -0.43500
C 	C 	0.14560 0.03543 0.33600 0.39100
C 	C 	0.16120 0.05544 0.32030 -0.16800
C 	C 	0.15910 0.05680 0.29280 0.13000
C 	C 	0.13418 0.99188 0.42227 0.37200
C 	C 	0.13902 0.98392 0.45049 -0.16200
C 	C 	0.15004 0.00186 0.46802 0.14400
O 	O 	0.65040 0.53406 0.36000 -0.49800
O 	O 	0.62963 0.52107 0.32542 -0.39300
O 	O 	0.68870 0.59270 0.23844 -0.57500
O 	O 	0.64265 0.51278 0.41312 -0.43300
O 	O 	0.62263 0.47564 0.40765 -0.46800
O 	O 	0.67110 0.50514 0.53588 -0.42100
O 	O 	0.67907 0.54056 0.61039 -0.43500
C 	C 	0.64560 0.53543 0.33600 0.39100
C 	C 	0.66120 0.55544 0.32030 -0.16800
C 	C 	0.65910 0.55680 0.29280 0.13000
C 	C 	0.63418 0.49188 0.42227 0.37100
C 	C 	0.63902 0.48392 0.45049 -0.16400
C 	C 	0.65004 0.50186 0.46802 0.14700
O 	O 	0.65040 0.03406 0.86000 -0.49800
O 	O 	0.62963 0.02107 0.82542 -0.39300
O 	O 	0.68870 0.09270 0.73844 -0.57500
O 	O 	0.64265 0.01278 0.91312 -0.43400
O 	O 	0.62263 0.97564 0.90765 -0.46800
O 	O 	0.67110 0.00514 0.03588 -0.42000
O 	O 	0.67907 0.04056 0.11039 -0.43500
C 	C 	0.64560 0.03543 0.83600 0.39100
C 	C 	0.66120 0.05544 0.82030 -0.16800
C 	C 	0.65910 0.05680 0.79280 0.13000
C 	C 	0.63418 0.99188 0.92227 0.37200
C 	C 	0.63902 0.98392 0.95049 -0.16100
C 	C 	0.65004 0.00186 0.96802 0.14300
O 	O 	0.59960 0.71594 0.36000 -0.49800
O 	O 	0.62037 0.72893 0.32542 -0.39300
O 	O 	0.56130 0.65730 0.23844 -0.57500
O 	O 	0.60735 0.73722 0.41312 -0.43300
O 	O 	0.62737 0.77436 0.40765 -0.46800
O 	O 	0.57890 0.74486 0.53588 -0.42100
O 	O 	0.57093 0.70944 0.61039 -0.43500
C 	C 	0.60440 0.71457 0.33600 0.39100
C 	C 	0.58880 0.69456 0.32030 -0.16800
C 	C 	0.59090 0.69320 0.29280 0.13000
C 	C 	0.61582 0.75812 0.42227 0.37100
C 	C 	0.61098 0.76608 0.45049 -0.16400
C 	C 	0.59996 0.74814 0.46802 0.14700
O 	O 	0.59960 0.21594 0.86000 -0.49800
O 	O 	0.62037 0.22893 0.82542 -0.39300
O 	O 	0.56130 0.15730 0.73844 -0.57500
O 	O 	0.60735 0.23722 0.91312 -0.43300
O 	O 	0.62737 0.27436 0.90765 -0.46800
O 	O 	0.57890 0.24486 0.03588 -0.42000
O 	O 	0.57093 0.20944 0.11039 -0.43500
C 	C 	0.60440 0.21457 0.83600 0.39100
C 	C 	0.58880 0.19456 0.82030 -0.16800
C 	C 	0.59090 0.19320 0.79280 0.13000
C 	C 	0.61582 0.25812 0.92227 0.37000
C 	C 	0.61098 0.26608 0.95049 -0.16300
C 	C 	0.59996 0.24814 0.96802 0.14600
O 	O 	0.09960 0.71594 0.86000 -0.49800
O 	O 	0.12037 0.72893 0.82542 -0.39300
O 	O 	0.06130 0.65730 0.73844 -0.57500
O 	O 	0.10735 0.73722 0.91312 -0.43300
O 	O 	0.12737 0.77436 0.90765 -0.46800
O 	O 	0.07890 0.74486 0.03588 -0.42000
O 	O 	0.07093 0.70944 0.11039 -0.43500
C 	C 	0.10440 0.71457 0.83600 0.39100
C 	C 	0.08880 0.69456 0.82030 -0.16800
C 	C 	0.09090 0.69320 0.79280 0.13000
C 	C 	0.11582 0.75812 0.92227 0.37000
C 	C 	0.11098 0.76608 0.95049 -0.16300
C 	C 	0.09996 0.74814 0.96802 0.14600
O 	O 	0.09960 0.21594 0.36000 -0.49800
O 	O 	0.12037 0.22893 0.32542 -0.39300
O 	O 	0.06130 0.15730 0.23844 -0.57500
O 	O 	0.10735 0.23722 0.41312 -0.43300
O 	O 	0.12737 0.27436 0.40765 -0.46800
O 	O 	0.07890 0.24486 0.53588 -0.42100
O 	O 	0.07093 0.20944 0.61039 -0.43500
C 	C 	0.10440 0.21457 0.33600 0.39100
C 	C 	0.08880 0.19456 0.32030 -0.16800
C 	C 	0.09090 0.19320 0.29280 0.13000
C 	C 	0.11582 0.25812 0.42227 0.37100
C 	C 	0.11098 0.26608 0.45049 -0.16400
C 	C 	0.09996 0.24814 0.46802 0.14700
O 	O 	0.65040 0.21594 0.39000 -0.49800
O 	O 	0.62963 0.22893 0.42458 -0.39300
O 	O 	0.68870 0.15730 0.51156 -0.57500
O 	O 	0.64265 0.23722 0.33688 -0.43300
O 	O 	0.62263 0.27436 0.34235 -0.46800
O 	O 	0.67110 0.24486 0.21412 -0.42100
O 	O 	0.67907 0.20944 0.13961 -0.43500
C 	C 	0.64560 0.21457 0.41400 0.39100
C 	C 	0.66120 0.19456 0.42970 -0.16800
C 	C 	0.65910 0.19320 0.45720 0.13000
C 	C 	0.63418 0.25812 0.32773 0.37100
C 	C 	0.63902 0.26608 0.29951 -0.16400
C 	C 	0.65004 0.24814 0.28198 0.14700
O 	O 	0.65040 0.71594 0.89000 -0.49800
O 	O 	0.62963 0.72893 0.92458 -0.39200
O 	O 	0.68870 0.65730 0.01156 -0.57600
O 	O 	0.64265 0.73722 0.83688 -0.43300
O 	O 	0.62263 0.77436 0.84235 -0.46800
O 	O 	0.67110 0.74486 0.71412 -0.42100
O 	O 	0.67907 0.70944 0.63961 -0.43500
C 	C 	0.64560 0.71457 0.91400 0.39100
C 	C 	0.66120 0.69456 0.92970 -0.16800
C 	C 	0.65910 0.69320 0.95720 0.13100
C 	C 	0.63418 0.75812 0.82773 0.37100
C 	C 	0.63902 0.76608 0.79951 -0.16400
C 	C 	0.65004 0.74814 0.78198 0.14700
O 	O 	0.15040 0.21594 0.89000 -0.49800
O 	O 	0.12963 0.22893 0.92458 -0.39200
O 	O 	0.18870 0.15730 0.01156 -0.57600
O 	O 	0.14265 0.23722 0.83688 -0.43300
O 	O 	0.12263 0.27436 0.84235 -0.46800
O 	O 	0.17110 0.24486 0.71412 -0.42100
O 	O 	0.17907 0.20944 0.63961 -0.43500
C 	C 	0.14560 0.21457 0.91400 0.39100
C 	C 	0.16120 0.19456 0.92970 -0.16800
C 	C 	0.15910 0.19320 0.95720 0.13100
C 	C 	0.13418 0.25812 0.82773 0.37100
C 	C 	0.13902 0.26608 0.79951 -0.16400
C 	C 	0.15004 0.24814 0.78198 0.14700
O 	O 	0.15040 0.71594 0.39000 -0.49800
O 	O 	0.12963 0.72893 0.42458 -0.39300
O 	O 	0.18870 0.65730 0.51156 -0.57500
O 	O 	0.14265 0.73722 0.33688 -0.43300
O 	O 	0.12263 0.77436 0.34235 -0.46800
O 	O 	0.17110 0.74486 0.21412 -0.42100
O 	O 	0.17907 0.70944 0.13961 -0.43500
C 	C 	0.14560 0.71457 0.41400 0.39100
C 	C 	0.16120 0.69456 0.42970 -0.16800
C 	C 	0.15910 0.69320 0.45720 0.13000
C 	C 	0.13418 0.75812 0.32773 0.37100
C 	C 	0.13902 0.76608 0.29951 -0.16400
C 	C 	0.15004 0.74814 0.28198 0.14700
O 	O 	0.84960 0.14000 0.46594 -0.49800
O 	O 	0.87037 0.17458 0.47893 -0.39300
O 	O 	0.81130 0.26156 0.40730 -0.57500
O 	O 	0.85735 0.08688 0.48722 -0.43300
O 	O 	0.87737 0.09235 0.52436 -0.46800
O 	O 	0.82890 0.96412 0.49486 -0.42100
O 	O 	0.82093 0.88961 0.45944 -0.43500
C 	C 	0.85440 0.16400 0.46457 0.39100
C 	C 	0.83880 0.17970 0.44456 -0.16800
C 	C 	0.84090 0.20720 0.44320 0.13000
C 	C 	0.86582 0.07773 0.50812 0.37100
C 	C 	0.86098 0.04951 0.51608 -0.16500
C 	C 	0.84996 0.03198 0.49814 0.14800
O 	O 	0.84960 0.64000 0.96594 -0.49800
O 	O 	0.87037 0.67458 0.97893 -0.39200
O 	O 	0.81130 0.76156 0.90730 -0.57500
O 	O 	0.85735 0.58688 0.98722 -0.43200
O 	O 	0.87737 0.59235 0.02436 -0.46800
O 	O 	0.82890 0.46412 0.99486 -0.42100
O 	O 	0.82093 0.38961 0.95944 -0.43500
C 	C 	0.85440 0.66400 0.96457 0.39100
C 	C 	0.83880 0.67970 0.94456 -0.16800
C 	C 	0.84090 0.70720 0.94320 0.13000
C 	C 	0.86582 0.57773 0.00812 0.36900
C 	C 	0.86098 0.54951 0.01608 -0.16600
C 	C 	0.84996 0.53198 0.99814 0.15100
O 	O 	0.34960 0.14000 0.96594 -0.49800
O 	O 	0.37037 0.17458 0.97893 -0.39200
O 	O 	0.31130 0.26156 0.90730 -0.57500
O 	O 	0.35735 0.08688 0.98722 -0.43200
O 	O 	0.37737 0.09235 0.02436 -0.46800
O 	O 	0.32890 0.96412 0.99486 -0.42100
O 	O 	0.32093 0.88961 0.95944 -0.43500
C 	C 	0.35440 0.16400 0.96457 0.39100
C 	C 	0.33880 0.17970 0.94456 -0.16800
C 	C 	0.34090 0.20720 0.94320 0.13000
C 	C 	0.36582 0.07773 0.00812 0.37000
C 	C 	0.36098 0.04951 0.01608 -0.16700
C 	C 	0.34996 0.03198 0.99814 0.15100
O 	O 	0.34960 0.64000 0.46594 -0.49800
O 	O 	0.37037 0.67458 0.47893 -0.39300
O 	O 	0.31130 0.76156 0.40730 -0.57500
O 	O 	0.35735 0.58688 0.48722 -0.43300
O 	O 	0.37737 0.59235 0.52436 -0.46800
O 	O 	0.32890 0.46412 0.49486 -0.42100
O 	O 	0.32093 0.38961 0.45944 -0.43500
C 	C 	0.35440 0.66400 0.46457 0.39100
C 	C 	0.33880 0.67970 0.44456 -0.16800
C 	C 	0.34090 0.70720 0.44320 0.13000
C 	C 	0.36582 0.57773 0.50812 0.37100
C 	C 	0.36098 0.54951 0.51608 -0.16400
C 	C 	0.34996 0.53198 0.49814 0.14700
O 	O 	0.90040 0.11000 0.96594 -0.49800
O 	O 	0.87963 0.07542 0.97893 -0.39200
O 	O 	0.93870 0.98844 0.90730 -0.57300
O 	O 	0.89265 0.16312 0.98722 -0.43200
O 	O 	0.87263 0.15765 0.02436 -0.46800
O 	O 	0.92110 0.28588 0.99486 -0.42000
O 	O 	0.92907 0.36039 0.95944 -0.43500
C 	C 	0.89560 0.08600 0.96457 0.39100
C 	C 	0.91120 0.07030 0.94456 -0.16700
C 	C 	0.90910 0.04280 0.94320 0.13000
C 	C 	0.88418 0.17227 0.00812 0.37000
C 	C 	0.88902 0.20049 0.01608 -0.16600
C 	C 	0.90004 0.21802 0.99814 0.15100
O 	O 	0.90040 0.61000 0.46594 -0.49800
O 	O 	0.87963 0.57542 0.47893 -0.39300
O 	O 	0.93870 0.48844 0.40730 -0.57400
O 	O 	0.89265 0.66312 0.48722 -0.43300
O 	O 	0.87263 0.65765 0.52436 -0.46800
O 	O 	0.92110 0.78588 0.49486 -0.42000
O 	O 	0.92907 0.86039 0.45944 -0.43500
C 	C 	0.89560 0.58600 0.46457 0.39100
C 	C 	0.91120 0.57030 0.44456 -0.16800
C 	C 	0.90910 0.54280 0.44320 0.13000
C 	C 	0.88418 0.67227 0.50812 0.37100
C 	C 	0.88902 0.70049 0.51608 -0.16400
C 	C 	0.90004 0.71802 0.49814 0.14700
O 	O 	0.40040 0.11000 0.46594 -0.49800
O 	O 	0.37963 0.07542 0.47893 -0.39300
O 	O 	0.43870 0.98844 0.40730 -0.57300
O 	O 	0.39265 0.16312 0.48722 -0.43300
O 	O 	0.37263 0.15765 0.52436 -0.46800
O 	O 	0.42110 0.28588 0.49486 -0.42100
O 	O 	0.42907 0.36039 0.45944 -0.43500
C 	C 	0.39560 0.08600 0.46457 0.39100
C 	C 	0.41120 0.07030 0.44456 -0.16700
C 	C 	0.40910 0.04280 0.44320 0.12900
C 	C 	0.38418 0.17227 0.50812 0.37100
C 	C 	0.38902 0.20049 0.51608 -0.16400
C 	C 	0.40004 0.21802 0.49814 0.14700
O 	O 	0.40040 0.61000 0.96594 -0.49800
O 	O 	0.37963 0.57542 0.97893 -0.39200
O 	O 	0.43870 0.48844 0.90730 -0.57500
O 	O 	0.39265 0.66312 0.98722 -0.43200
O 	O 	0.37263 0.65765 0.02436 -0.46800
O 	O 	0.42110 0.78588 0.99486 -0.42100
O 	O 	0.42907 0.86039 0.95944 -0.43500
C 	C 	0.39560 0.58600 0.96457 0.39100
C 	C 	0.41120 0.57030 0.94456 -0.16800
C 	C 	0.40910 0.54280 0.94320 0.13000
C 	C 	0.38418 0.67227 0.00812 0.36900
C 	C 	0.38902 0.70049 0.01608 -0.16600
C 	C 	0.40004 0.71802 0.99814 0.15000
O 	O 	0.34960 0.61000 0.78406 -0.49800
O 	O 	0.37037 0.57542 0.77107 -0.39300
O 	O 	0.31130 0.48844 0.84270 -0.57500
O 	O 	0.35735 0.66312 0.76278 -0.43300
O 	O 	0.37737 0.65765 0.72564 -0.46800
O 	O 	0.32890 0.78588 0.75514 -0.42100
O 	O 	0.32093 0.86039 0.79056 -0.43500
C 	C 	0.35440 0.58600 0.78543 0.39100
C 	C 	0.33880 0.57030 0.80544 -0.16800
C 	C 	0.34090 0.54280 0.80680 0.13000
C 	C 	0.36582 0.67227 0.74188 0.37100
C 	C 	0.36098 0.70049 0.73392 -0.16400
C 	C 	0.34996 0.71802 0.75186 0.14700
O 	O 	0.34960 0.11000 0.28406 -0.49800
O 	O 	0.37037 0.07542 0.27107 -0.39300
O 	O 	0.31130 0.98844 0.34270 -0.57300
O 	O 	0.35735 0.16312 0.26278 -0.43300
O 	O 	0.37737 0.15765 0.22564 -0.46800
O 	O 	0.32890 0.28588 0.25514 -0.42000
O 	O 	0.32093 0.36039 0.29056 -0.43500
C 	C 	0.35440 0.08600 0.28543 0.39100
C 	C 	0.33880 0.07030 0.30544 -0.16700
C 	C 	0.34090 0.04280 0.30680 0.12900
C 	C 	0.36582 0.17227 0.24188 0.37100
C 	C 	0.36098 0.20049 0.23392 -0.16400
C 	C 	0.34996 0.21802 0.25186 0.14700
O 	O 	0.84960 0.61000 0.28406 -0.49800
O 	O 	0.87037 0.57542 0.27107 -0.39300
O 	O 	0.81130 0.48844 0.34270 -0.57500
O 	O 	0.85735 0.66312 0.26278 -0.43300
O 	O 	0.87737 0.65765 0.22564 -0.46800
O 	O 	0.82890 0.78588 0.25514 -0.42100
O 	O 	0.82093 0.86039 0.29056 -0.43500
C 	C 	0.85440 0.58600 0.28543 0.39100
C 	C 	0.83880 0.57030 0.30544 -0.16800
C 	C 	0.84090 0.54280 0.30680 0.13000
C 	C 	0.86582 0.67227 0.24188 0.37100
C 	C 	0.86098 0.70049 0.23392 -0.16400
C 	C 	0.84996 0.71802 0.25186 0.14700
O 	O 	0.84960 0.11000 0.78406 -0.49800
O 	O 	0.87037 0.07542 0.77107 -0.39300
O 	O 	0.81130 0.98844 0.84270 -0.57300
O 	O 	0.85735 0.16312 0.76278 -0.43300
O 	O 	0.87737 0.15765 0.72564 -0.46800
O 	O 	0.82890 0.28588 0.75514 -0.42100
O 	O 	0.82093 0.36039 0.79056 -0.43500
C 	C 	0.85440 0.08600 0.78543 0.39100
C 	C 	0.83880 0.07030 0.80544 -0.16700
C 	C 	0.84090 0.04280 0.80680 0.12900
C 	C 	0.86582 0.17227 0.74188 0.37100
C 	C 	0.86098 0.20049 0.73392 -0.16400
C 	C 	0.84996 0.21802 0.75186 0.14700
O 	O 	0.40040 0.64000 0.28406 -0.49800
O 	O 	0.37963 0.67458 0.27107 -0.39300
O 	O 	0.43870 0.76156 0.34270 -0.57500
O 	O 	0.39265 0.58688 0.26278 -0.43300
O 	O 	0.37263 0.59235 0.22564 -0.46800
O 	O 	0.42110 0.46412 0.25514 -0.42100
O 	O 	0.42907 0.38961 0.29056 -0.43500
C 	C 	0.39560 0.66400 0.28543 0.39100
C 	C 	0.41120 0.67970 0.30544 -0.16800
C 	C 	0.40910 0.70720 0.30680 0.13000
C 	C 	0.38418 0.57773 0.24188 0.37100
C 	C 	0.38902 0.54951 0.23392 -0.16400
C 	C 	0.40004 0.53198 0.25186 0.14700
O 	O 	0.40040 0.14000 0.78406 -0.49800
O 	O 	0.37963 0.17458 0.77107 -0.39300
O 	O 	0.43870 0.26156 0.84270 -0.57500
O 	O 	0.39265 0.08688 0.76278 -0.43300
O 	O 	0.37263 0.09235 0.72564 -0.46900
O 	O 	0.42110 0.96412 0.75514 -0.42100
O 	O 	0.42907 0.88961 0.79056 -0.43500
C 	C 	0.39560 0.16400 0.78543 0.39100
C 	C 	0.41120 0.17970 0.80544 -0.16800
C 	C 	0.40910 0.20720 0.80680 0.13000
C 	C 	0.38418 0.07773 0.74188 0.37100
C 	C 	0.38902 0.04951 0.73392 -0.16500
C 	C 	0.40004 0.03198 0.75186 0.14800
O 	O 	0.90040 0.64000 0.78406 -0.49800
O 	O 	0.87963 0.67458 0.77107 -0.39300
O 	O 	0.93870 0.76156 0.84270 -0.57400
O 	O 	0.89265 0.58688 0.76278 -0.43300
O 	O 	0.87263 0.59235 0.72564 -0.46800
O 	O 	0.92110 0.46412 0.75514 -0.42100
O 	O 	0.92907 0.38961 0.79056 -0.43500
C 	C 	0.89560 0.66400 0.78543 0.39100
C 	C 	0.91120 0.67970 0.80544 -0.16800
C 	C 	0.90910 0.70720 0.80680 0.13000
C 	C 	0.88418 0.57773 0.74188 0.37100
C 	C 	0.88902 0.54951 0.73392 -0.16400
C 	C 	0.90004 0.53198 0.75186 0.14700
O 	O 	0.90040 0.14000 0.28406 -0.49800
O 	O 	0.87963 0.17458 0.27107 -0.39300
O 	O 	0.93870 0.26156 0.34270 -0.57400
O 	O 	0.89265 0.08688 0.26278 -0.43300
O 	O 	0.87263 0.09235 0.22564 -0.46800
O 	O 	0.92110 0.96412 0.25514 -0.42100
O 	O 	0.92907 0.88961 0.29056 -0.43500
C 	C 	0.89560 0.16400 0.28543 0.39100
C 	C 	0.91120 0.17970 0.30544 -0.16800
C 	C 	0.90910 0.20720 0.30680 0.13000
C 	C 	0.88418 0.07773 0.24188 0.37100
C 	C 	0.88902 0.04951 0.23392 -0.16500
C 	C 	0.90004 0.03198 0.25186 0.14800
O 	O 	0.64000 0.28406 0.40040 -0.49800
O 	O 	0.67458 0.27107 0.37963 -0.39300
O 	O 	0.76156 0.34270 0.43870 -0.57500
O 	O 	0.58688 0.26278 0.39265 -0.43300
O 	O 	0.59235 0.22564 0.37263 -0.46800
O 	O 	0.46412 0.25514 0.42110 -0.42100
O 	O 	0.38961 0.29056 0.42907 -0.43500
C 	C 	0.66400 0.28543 0.39560 0.39100
C 	C 	0.67970 0.30544 0.41120 -0.16800
C 	C 	0.70720 0.30680 0.40910 0.13000
C 	C 	0.57773 0.24188 0.38418 0.37100
C 	C 	0.54951 0.23392 0.38902 -0.16400
C 	C 	0.53198 0.25186 0.40004 0.14700
O 	O 	0.64000 0.78406 0.90040 -0.49800
O 	O 	0.67458 0.77107 0.87963 -0.39300
O 	O 	0.76156 0.84270 0.93870 -0.57400
O 	O 	0.58688 0.76278 0.89265 -0.43300
O 	O 	0.59235 0.72564 0.87263 -0.46800
O 	O 	0.46412 0.75514 0.92110 -0.42100
O 	O 	0.38961 0.79056 0.92907 -0.43500
C 	C 	0.66400 0.78543 0.89560 0.39100
C 	C 	0.67970 0.80544 0.91120 -0.16800
C 	C 	0.70720 0.80680 0.90910 0.13000
C 	C 	0.57773 0.74188 0.88418 0.37100
C 	C 	0.54951 0.73392 0.88902 -0.16400
C 	C 	0.53198 0.75186 0.90004 0.14700
O 	O 	0.14000 0.28406 0.90040 -0.49800
O 	O 	0.17458 0.27107 0.87963 -0.39300
O 	O 	0.26156 0.34270 0.93870 -0.57400
O 	O 	0.08688 0.26278 0.89265 -0.43300
O 	O 	0.09235 0.22564 0.87263 -0.46800
O 	O 	0.96412 0.25514 0.92110 -0.42100
O 	O 	0.88961 0.29056 0.92907 -0.43500
C 	C 	0.16400 0.28543 0.89560 0.39100
C 	C 	0.17970 0.30544 0.91120 -0.16800
C 	C 	0.20720 0.30680 0.90910 0.13000
C 	C 	0.07773 0.24188 0.88418 0.37100
C 	C 	0.04951 0.23392 0.88902 -0.16500
C 	C 	0.03198 0.25186 0.90004 0.14800
O 	O 	0.14000 0.78406 0.40040 -0.49800
O 	O 	0.17458 0.77107 0.37963 -0.39300
O 	O 	0.26156 0.84270 0.43870 -0.57500
O 	O 	0.08688 0.76278 0.39265 -0.43300
O 	O 	0.09235 0.72564 0.37263 -0.46900
O 	O 	0.96412 0.75514 0.42110 -0.42100
O 	O 	0.88961 0.79056 0.42907 -0.43500
C 	C 	0.16400 0.78543 0.39560 0.39100
C 	C 	0.17970 0.80544 0.41120 -0.16800
C 	C 	0.20720 0.80680 0.40910 0.13000
C 	C 	0.07773 0.74188 0.38418 0.37100
C 	C 	0.04951 0.73392 0.38902 -0.16500
C 	C 	0.03198 0.75186 0.40004 0.14800
O 	O 	0.61000 0.78406 0.34960 -0.49800
O 	O 	0.57542 0.77107 0.37037 -0.39300
O 	O 	0.48844 0.84270 0.31130 -0.57500
O 	O 	0.66312 0.76278 0.35735 -0.43300
O 	O 	0.65765 0.72564 0.37737 -0.46800
O 	O 	0.78588 0.75514 0.32890 -0.42100
O 	O 	0.86039 0.79056 0.32093 -0.43500
C 	C 	0.58600 0.78543 0.35440 0.39100
C 	C 	0.57030 0.80544 0.33880 -0.16800
C 	C 	0.54280 0.80680 0.34090 0.13000
C 	C 	0.67227 0.74188 0.36582 0.37100
C 	C 	0.70049 0.73392 0.36098 -0.16400
C 	C 	0.71802 0.75186 0.34996 0.14700
O 	O 	0.61000 0.28406 0.84960 -0.49800
O 	O 	0.57542 0.27107 0.87037 -0.39300
O 	O 	0.48844 0.34270 0.81130 -0.57500
O 	O 	0.66312 0.26278 0.85735 -0.43300
O 	O 	0.65765 0.22564 0.87737 -0.46800
O 	O 	0.78588 0.25514 0.82890 -0.42100
O 	O 	0.86039 0.29056 0.82093 -0.43500
C 	C 	0.58600 0.28543 0.85440 0.39100
C 	C 	0.57030 0.30544 0.83880 -0.16800
C 	C 	0.54280 0.30680 0.84090 0.13000
C 	C 	0.67227 0.24188 0.86582 0.37100
C 	C 	0.70049 0.23392 0.86098 -0.16400
C 	C 	0.71802 0.25186 0.84996 0.14700
O 	O 	0.11000 0.78406 0.84960 -0.49800
O 	O 	0.07542 0.77107 0.87037 -0.39300
O 	O 	0.98844 0.84270 0.81130 -0.57300
O 	O 	0.16312 0.76278 0.85735 -0.43300
O 	O 	0.15765 0.72564 0.87737 -0.46800
O 	O 	0.28588 0.75514 0.82890 -0.42100
O 	O 	0.36039 0.79056 0.82093 -0.43500
C 	C 	0.08600 0.78543 0.85440 0.39100
C 	C 	0.07030 0.80544 0.83880 -0.16700
C 	C 	0.04280 0.80680 0.84090 0.12900
C 	C 	0.17227 0.74188 0.86582 0.37100
C 	C 	0.20049 0.73392 0.86098 -0.16400
C 	C 	0.21802 0.75186 0.84996 0.14700
O 	O 	0.11000 0.28406 0.34960 -0.49800
O 	O 	0.07542 0.27107 0.37037 -0.39300
O 	O 	0.98844 0.34270 0.31130 -0.57300
O 	O 	0.16312 0.26278 0.35735 -0.43300
O 	O 	0.15765 0.22564 0.37737 -0.46800
O 	O 	0.28588 0.25514 0.32890 -0.42000
O 	O 	0.36039 0.29056 0.32093 -0.43500
C 	C 	0.08600 0.28543 0.35440 0.39100
C 	C 	0.07030 0.30544 0.33880 -0.16700
C 	C 	0.04280 0.30680 0.34090 0.12900
C 	C 	0.17227 0.24188 0.36582 0.37100
C 	C 	0.20049 0.23392 0.36098 -0.16400
C 	C 	0.21802 0.25186 0.34996 0.14700
O 	O 	0.11000 0.96594 0.90040 -0.49800
O 	O 	0.07542 0.97893 0.87963 -0.39200
O 	O 	0.98844 0.90730 0.93870 -0.57300
O 	O 	0.16312 0.98722 0.89265 -0.43200
O 	O 	0.15765 0.02436 0.87263 -0.46800
O 	O 	0.28588 0.99486 0.92110 -0.42000
O 	O 	0.36039 0.95944 0.92907 -0.43500
C 	C 	0.08600 0.96457 0.89560 0.39100
C 	C 	0.07030 0.94456 0.91120 -0.16700
C 	C 	0.04280 0.94320 0.90910 0.13000
C 	C 	0.17227 0.00812 0.88418 0.37000
C 	C 	0.20049 0.01608 0.88902 -0.16600
C 	C 	0.21802 0.99814 0.90004 0.15100
O 	O 	0.11000 0.46594 0.40040 -0.49800
O 	O 	0.07542 0.47893 0.37963 -0.39300
O 	O 	0.98844 0.40730 0.43870 -0.57300
O 	O 	0.16312 0.48722 0.39265 -0.43300
O 	O 	0.15765 0.52436 0.37263 -0.46800
O 	O 	0.28588 0.49486 0.42110 -0.42100
O 	O 	0.36039 0.45944 0.42907 -0.43500
C 	C 	0.08600 0.46457 0.39560 0.39100
C 	C 	0.07030 0.44456 0.41120 -0.16700
C 	C 	0.04280 0.44320 0.40910 0.12900
C 	C 	0.17227 0.50812 0.38418 0.37100
C 	C 	0.20049 0.51608 0.38902 -0.16400
C 	C 	0.21802 0.49814 0.40004 0.14700
O 	O 	0.61000 0.96594 0.40040 -0.49800
O 	O 	0.57542 0.97893 0.37963 -0.39200
O 	O 	0.48844 0.90730 0.43870 -0.57500
O 	O 	0.66312 0.98722 0.39265 -0.43200
O 	O 	0.65765 0.02436 0.37263 -0.46800
O 	O 	0.78588 0.99486 0.42110 -0.42100
O 	O 	0.86039 0.95944 0.42907 -0.43500
C 	C 	0.58600 0.96457 0.39560 0.39100
C 	C 	0.57030 0.94456 0.41120 -0.16800
C 	C 	0.54280 0.94320 0.40910 0.13000
C 	C 	0.67227 0.00812 0.38418 0.36900
C 	C 	0.70049 0.01608 0.38902 -0.16600
C 	C 	0.71802 0.99814 0.40004 0.15000
O 	O 	0.61000 0.46594 0.90040 -0.49800
O 	O 	0.57542 0.47893 0.87963 -0.39300
O 	O 	0.48844 0.40730 0.93870 -0.57400
O 	O 	0.66312 0.48722 0.89265 -0.43300
O 	O 	0.65765 0.52436 0.87263 -0.46800
O 	O 	0.78588 0.49486 0.92110 -0.42000
O 	O 	0.86039 0.45944 0.92907 -0.43500
C 	C 	0.58600 0.46457 0.89560 0.39100
C 	C 	0.57030 0.44456 0.91120 -0.16800
C 	C 	0.54280 0.44320 0.90910 0.13000
C 	C 	0.67227 0.50812 0.88418 0.37100
C 	C 	0.70049 0.51608 0.88902 -0.16400
C 	C 	0.71802 0.49814 0.90004 0.14700
O 	O 	0.14000 0.46594 0.84960 -0.49800
O 	O 	0.17458 0.47893 0.87037 -0.39300
O 	O 	0.26156 0.40730 0.81130 -0.57500
O 	O 	0.08688 0.48722 0.85735 -0.43300
O 	O 	0.09235 0.52436 0.87737 -0.46800
O 	O 	0.96412 0.49486 0.82890 -0.42100
O 	O 	0.88961 0.45944 0.82093 -0.43500
C 	C 	0.16400 0.46457 0.85440 0.39100
C 	C 	0.17970 0.44456 0.83880 -0.16800
C 	C 	0.20720 0.44320 0.84090 0.13000
C 	C 	0.07773 0.50812 0.86582 0.37100
C 	C 	0.04951 0.51608 0.86098 -0.16500
C 	C 	0.03198 0.49814 0.84996 0.14800
O 	O 	0.14000 0.96594 0.34960 -0.49800
O 	O 	0.17458 0.97893 0.37037 -0.39200
O 	O 	0.26156 0.90730 0.31130 -0.57500
O 	O 	0.08688 0.98722 0.35735 -0.43200
O 	O 	0.09235 0.02436 0.37737 -0.46800
O 	O 	0.96412 0.99486 0.32890 -0.42100
O 	O 	0.88961 0.95944 0.32093 -0.43500
C 	C 	0.16400 0.96457 0.35440 0.39100
C 	C 	0.17970 0.94456 0.33880 -0.16800
C 	C 	0.20720 0.94320 0.34090 0.13000
C 	C 	0.07773 0.00812 0.36582 0.37000
C 	C 	0.04951 0.01608 0.36098 -0.16700
C 	C 	0.03198 0.99814 0.34996 0.15100
O 	O 	0.64000 0.46594 0.34960 -0.49800
O 	O 	0.67458 0.47893 0.37037 -0.39300
O 	O 	0.76156 0.40730 0.31130 -0.57500
O 	O 	0.58688 0.48722 0.35735 -0.43300
O 	O 	0.59235 0.52436 0.37737 -0.46800
O 	O 	0.46412 0.49486 0.32890 -0.42100
O 	O 	0.38961 0.45944 0.32093 -0.43500
C 	C 	0.66400 0.46457 0.35440 0.39100
C 	C 	0.67970 0.44456 0.33880 -0.16800
C 	C 	0.70720 0.44320 0.34090 0.13000
C 	C 	0.57773 0.50812 0.36582 0.37100
C 	C 	0.54951 0.51608 0.36098 -0.16400
C 	C 	0.53198 0.49814 0.34996 0.14700
O 	O 	0.64000 0.96594 0.84960 -0.49800
O 	O 	0.67458 0.97893 0.87037 -0.39200
O 	O 	0.76156 0.90730 0.81130 -0.57500
O 	O 	0.58688 0.98722 0.85735 -0.43200
O 	O 	0.59235 0.02436 0.87737 -0.46800
O 	O 	0.46412 0.99486 0.82890 -0.42100
O 	O 	0.38961 0.95944 0.82093 -0.43500
C 	C 	0.66400 0.96457 0.85440 0.39100
C 	C 	0.67970 0.94456 0.83880 -0.16800
C 	C 	0.70720 0.94320 0.84090 0.13000
C 	C 	0.57773 0.00812 0.86582 0.36900
C 	C 	0.54951 0.01608 0.86098 -0.16600
C 	C 	0.53198 0.99814 0.84996 0.15100
O 	O 	0.78406 0.34960 0.61000 -0.49800
O 	O 	0.77107 0.37037 0.57542 -0.39300
O 	O 	0.84270 0.31130 0.48844 -0.57500
O 	O 	0.76278 0.35735 0.66312 -0.43300
O 	O 	0.72564 0.37737 0.65765 -0.46800
O 	O 	0.75514 0.32890 0.78588 -0.42100
O 	O 	0.79056 0.32093 0.86039 -0.43500
C 	C 	0.78543 0.35440 0.58600 0.39100
C 	C 	0.80544 0.33880 0.57030 -0.16800
C 	C 	0.80680 0.34090 0.54280 0.13000
C 	C 	0.74188 0.36582 0.67227 0.37100
C 	C 	0.73392 0.36098 0.70049 -0.16400
C 	C 	0.75186 0.34996 0.71802 0.14700
O 	O 	0.78406 0.84960 0.11000 -0.49800
O 	O 	0.77107 0.87037 0.07542 -0.39300
O 	O 	0.84270 0.81130 0.98844 -0.57300
O 	O 	0.76278 0.85735 0.16312 -0.43300
O 	O 	0.72564 0.87737 0.15765 -0.46800
O 	O 	0.75514 0.82890 0.28588 -0.42100
O 	O 	0.79056 0.82093 0.36039 -0.43500
C 	C 	0.78543 0.85440 0.08600 0.39100
C 	C 	0.80544 0.83880 0.07030 -0.16700
C 	C 	0.80680 0.84090 0.04280 0.12900
C 	C 	0.74188 0.86582 0.17227 0.37100
C 	C 	0.73392 0.86098 0.20049 -0.16400
C 	C 	0.75186 0.84996 0.21802 0.14700
O 	O 	0.28406 0.34960 0.11000 -0.49800
O 	O 	0.27107 0.37037 0.07542 -0.39300
O 	O 	0.34270 0.31130 0.98844 -0.57300
O 	O 	0.26278 0.35735 0.16312 -0.43300
O 	O 	0.22564 0.37737 0.15765 -0.46800
O 	O 	0.25514 0.32890 0.28588 -0.42000
O 	O 	0.29056 0.32093 0.36039 -0.43500
C 	C 	0.28543 0.35440 0.08600 0.39100
C 	C 	0.30544 0.33880 0.07030 -0.16700
C 	C 	0.30680 0.34090 0.04280 0.12900
C 	C 	0.24188 0.36582 0.17227 0.37100
C 	C 	0.23392 0.36098 0.20049 -0.16400
C 	C 	0.25186 0.34996 0.21802 0.14700
O 	O 	0.28406 0.84960 0.61000 -0.49800
O 	O 	0.27107 0.87037 0.57542 -0.39300
O 	O 	0.34270 0.81130 0.48844 -0.57500
O 	O 	0.26278 0.85735 0.66312 -0.43300
O 	O 	0.22564 0.87737 0.65765 -0.46800
O 	O 	0.25514 0.82890 0.78588 -0.42100
O 	O 	0.29056 0.82093 0.86039 -0.43500
C 	C 	0.28543 0.85440 0.58600 0.39100
C 	C 	0.30544 0.83880 0.57030 -0.16800
C 	C 	0.30680 0.84090 0.54280 0.13000
C 	C 	0.24188 0.86582 0.67227 0.37100
C 	C 	0.23392 0.86098 0.70049 -0.16400
C 	C 	0.25186 0.84996 0.71802 0.14700
O 	O 	0.28406 0.40040 0.64000 -0.49800
O 	O 	0.27107 0.37963 0.67458 -0.39300
O 	O 	0.34270 0.43870 0.76156 -0.57500
O 	O 	0.26278 0.39265 0.58688 -0.43300
O 	O 	0.22564 0.37263 0.59235 -0.46800
O 	O 	0.25514 0.42110 0.46412 -0.42100
O 	O 	0.29056 0.42907 0.38961 -0.43500
C 	C 	0.28543 0.39560 0.66400 0.39100
C 	C 	0.30544 0.41120 0.67970 -0.16800
C 	C 	0.30680 0.40910 0.70720 0.13000
C 	C 	0.24188 0.38418 0.57773 0.37100
C 	C 	0.23392 0.38902 0.54951 -0.16400
C 	C 	0.25186 0.40004 0.53198 0.14700
O 	O 	0.28406 0.90040 0.14000 -0.49800
O 	O 	0.27107 0.87963 0.17458 -0.39300
O 	O 	0.34270 0.93870 0.26156 -0.57400
O 	O 	0.26278 0.89265 0.08688 -0.43300
O 	O 	0.22564 0.87263 0.09235 -0.46800
O 	O 	0.25514 0.92110 0.96412 -0.42100
O 	O 	0.29056 0.92907 0.88961 -0.43500
C 	C 	0.28543 0.89560 0.16400 0.39100
C 	C 	0.30544 0.91120 0.17970 -0.16800
C 	C 	0.30680 0.90910 0.20720 0.13000
C 	C 	0.24188 0.88418 0.07773 0.37100
C 	C 	0.23392 0.88902 0.04951 -0.16500
C 	C 	0.25186 0.90004 0.03198 0.14800
O 	O 	0.78406 0.40040 0.14000 -0.49800
O 	O 	0.77107 0.37963 0.17458 -0.39300
O 	O 	0.84270 0.43870 0.26156 -0.57500
O 	O 	0.76278 0.39265 0.08688 -0.43300
O 	O 	0.72564 0.37263 0.09235 -0.46900
O 	O 	0.75514 0.42110 0.96412 -0.42100
O 	O 	0.79056 0.42907 0.88961 -0.43500
C 	C 	0.78543 0.39560 0.16400 0.39100
C 	C 	0.80544 0.41120 0.17970 -0.16800
C 	C 	0.80680 0.40910 0.20720 0.13000
C 	C 	0.74188 0.38418 0.07773 0.37100
C 	C 	0.73392 0.38902 0.04951 -0.16500
C 	C 	0.75186 0.40004 0.03198 0.14800
O 	O 	0.78406 0.90040 0.64000 -0.49800
O 	O 	0.77107 0.87963 0.67458 -0.39300
O 	O 	0.84270 0.93870 0.76156 -0.57400
O 	O 	0.76278 0.89265 0.58688 -0.43300
O 	O 	0.72564 0.87263 0.59235 -0.46800
O 	O 	0.75514 0.92110 0.46412 -0.42100
O 	O 	0.79056 0.92907 0.38961 -0.43500
C 	C 	0.78543 0.89560 0.66400 0.39100
C 	C 	0.80544 0.91120 0.67970 -0.16800
C 	C 	0.80680 0.90910 0.70720 0.13000
C 	C 	0.74188 0.88418 0.57773 0.37100
C 	C 	0.73392 0.88902 0.54951 -0.16400
C 	C 	0.75186 0.90004 0.53198 0.14700
O 	O 	0.46594 0.84960 0.14000 -0.49800
O 	O 	0.47893 0.87037 0.17458 -0.39300
O 	O 	0.40730 0.81130 0.26156 -0.57500
O 	O 	0.48722 0.85735 0.08688 -0.43300
O 	O 	0.52436 0.87737 0.09235 -0.46800
O 	O 	0.49486 0.82890 0.96412 -0.42100
O 	O 	0.45944 0.82093 0.88961 -0.43500
C 	C 	0.46457 0.85440 0.16400 0.39100
C 	C 	0.44456 0.83880 0.17970 -0.16800
C 	C 	0.44320 0.84090 0.20720 0.13000
C 	C 	0.50812 0.86582 0.07773 0.37100
C 	C 	0.51608 0.86098 0.04951 -0.16500
C 	C 	0.49814 0.84996 0.03198 0.14800
O 	O 	0.46594 0.34960 0.64000 -0.49800
O 	O 	0.47893 0.37037 0.67458 -0.39300
O 	O 	0.40730 0.31130 0.76156 -0.57500
O 	O 	0.48722 0.35735 0.58688 -0.43300
O 	O 	0.52436 0.37737 0.59235 -0.46800
O 	O 	0.49486 0.32890 0.46412 -0.42100
O 	O 	0.45944 0.32093 0.38961 -0.43500
C 	C 	0.46457 0.35440 0.66400 0.39100
C 	C 	0.44456 0.33880 0.67970 -0.16800
C 	C 	0.44320 0.34090 0.70720 0.13000
C 	C 	0.50812 0.36582 0.57773 0.37100
C 	C 	0.51608 0.36098 0.54951 -0.16400
C 	C 	0.49814 0.34996 0.53198 0.14700
O 	O 	0.96594 0.84960 0.64000 -0.49800
O 	O 	0.97893 0.87037 0.67458 -0.39200
O 	O 	0.90730 0.81130 0.76156 -0.57500
O 	O 	0.98722 0.85735 0.58688 -0.43200
O 	O 	0.02436 0.87737 0.59235 -0.46800
O 	O 	0.99486 0.82890 0.46412 -0.42100
O 	O 	0.95944 0.82093 0.38961 -0.43500
C 	C 	0.96457 0.85440 0.66400 0.39100
C 	C 	0.94456 0.83880 0.67970 -0.16800
C 	C 	0.94320 0.84090 0.70720 0.13000
C 	C 	0.00812 0.86582 0.57773 0.36900
C 	C 	0.01608 0.86098 0.54951 -0.16600
C 	C 	0.99814 0.84996 0.53198 0.15100
O 	O 	0.96594 0.34960 0.14000 -0.49800
O 	O 	0.97893 0.37037 0.17458 -0.39200
O 	O 	0.90730 0.31130 0.26156 -0.57500
O 	O 	0.98722 0.35735 0.08688 -0.43200
O 	O 	0.02436 0.37737 0.09235 -0.46800
O 	O 	0.99486 0.32890 0.96412 -0.42100
O 	O 	0.95944 0.32093 0.88961 -0.43500
C 	C 	0.96457 0.35440 0.16400 0.39100
C 	C 	0.94456 0.33880 0.17970 -0.16800
C 	C 	0.94320 0.34090 0.20720 0.13000
C 	C 	0.00812 0.36582 0.07773 0.37000
C 	C 	0.01608 0.36098 0.04951 -0.16700
C 	C 	0.99814 0.34996 0.03198 0.15100
O 	O 	0.96594 0.90040 0.11000 -0.49800
O 	O 	0.97893 0.87963 0.07542 -0.39200
O 	O 	0.90730 0.93870 0.98844 -0.57300
O 	O 	0.98722 0.89265 0.16312 -0.43200
O 	O 	0.02436 0.87263 0.15765 -0.46800
O 	O 	0.99486 0.92110 0.28588 -0.42000
O 	O 	0.95944 0.92907 0.36039 -0.43500
C 	C 	0.96457 0.89560 0.08600 0.39100
C 	C 	0.94456 0.91120 0.07030 -0.16700
C 	C 	0.94320 0.90910 0.04280 0.13000
C 	C 	0.00812 0.88418 0.17227 0.37000
C 	C 	0.01608 0.88902 0.20049 -0.16600
C 	C 	0.99814 0.90004 0.21802 0.15100
O 	O 	0.96594 0.40040 0.61000 -0.49800
O 	O 	0.97893 0.37963 0.57542 -0.39200
O 	O 	0.90730 0.43870 0.48844 -0.57500
O 	O 	0.98722 0.39265 0.66312 -0.43200
O 	O 	0.02436 0.37263 0.65765 -0.46800
O 	O 	0.99486 0.42110 0.78588 -0.42100
O 	O 	0.95944 0.42907 0.86039 -0.43500
C 	C 	0.96457 0.39560 0.58600 0.39100
C 	C 	0.94456 0.41120 0.57030 -0.16800
C 	C 	0.94320 0.40910 0.54280 0.13000
C 	C 	0.00812 0.38418 0.67227 0.36900
C 	C 	0.01608 0.38902 0.70049 -0.16600
C 	C 	0.99814 0.40004 0.71802 0.15000
O 	O 	0.46594 0.90040 0.61000 -0.49800
O 	O 	0.47893 0.87963 0.57542 -0.39300
O 	O 	0.40730 0.93870 0.48844 -0.57400
O 	O 	0.48722 0.89265 0.66312 -0.43300
O 	O 	0.52436 0.87263 0.65765 -0.46800
O 	O 	0.49486 0.92110 0.78588 -0.42000
O 	O 	0.45944 0.92907 0.86039 -0.43500
C 	C 	0.46457 0.89560 0.58600 0.39100
C 	C 	0.44456 0.91120 0.57030 -0.16800
C 	C 	0.44320 0.90910 0.54280 0.13000
C 	C 	0.50812 0.88418 0.67227 0.37100
C 	C 	0.51608 0.88902 0.70049 -0.16400
C 	C 	0.49814 0.90004 0.71802 0.14700
O 	O 	0.46594 0.40040 0.11000 -0.49800
O 	O 	0.47893 0.37963 0.07542 -0.39300
O 	O 	0.40730 0.43870 0.98844 -0.57300
O 	O 	0.48722 0.39265 0.16312 -0.43300
O 	O 	0.52436 0.37263 0.15765 -0.46800
O 	O 	0.49486 0.42110 0.28588 -0.42100
O 	O 	0.45944 0.42907 0.36039 -0.43500
C 	C 	0.46457 0.39560 0.08600 0.39100
C 	C 	0.44456 0.41120 0.07030 -0.16700
C 	C 	0.44320 0.40910 0.04280 0.12900
C 	C 	0.50812 0.38418 0.17227 0.37100
C 	C 	0.51608 0.38902 0.20049 -0.16400
C 	C 	0.49814 0.40004 0.21802 0.14700
O 	O 	0.11000 0.90040 0.96594 -0.49800
O 	O 	0.07542 0.87963 0.97893 -0.39200
O 	O 	0.98844 0.93870 0.90730 -0.57300
O 	O 	0.16312 0.89265 0.98722 -0.43200
O 	O 	0.15765 0.87263 0.02436 -0.46800
O 	O 	0.28588 0.92110 0.99486 -0.42000
O 	O 	0.36039 0.92907 0.95944 -0.43500
C 	C 	0.08600 0.89560 0.96457 0.39100
C 	C 	0.07030 0.91120 0.94456 -0.16700
C 	C 	0.04280 0.90910 0.94320 0.13000
C 	C 	0.17227 0.88418 0.00812 0.37000
C 	C 	0.20049 0.88902 0.01608 -0.16600
C 	C 	0.21802 0.90004 0.99814 0.15100
O 	O 	0.11000 0.40040 0.46594 -0.49800
O 	O 	0.07542 0.37963 0.47893 -0.39300
O 	O 	0.98844 0.43870 0.40730 -0.57300
O 	O 	0.16312 0.39265 0.48722 -0.43300
O 	O 	0.15765 0.37263 0.52436 -0.46800
O 	O 	0.28588 0.42110 0.49486 -0.42100
O 	O 	0.36039 0.42907 0.45944 -0.43500
C 	C 	0.08600 0.39560 0.46457 0.39100
C 	C 	0.07030 0.41120 0.44456 -0.16700
C 	C 	0.04280 0.40910 0.44320 0.12900
C 	C 	0.17227 0.38418 0.50812 0.37100
C 	C 	0.20049 0.38902 0.51608 -0.16400
C 	C 	0.21802 0.40004 0.49814 0.14700
O 	O 	0.61000 0.90040 0.46594 -0.49800
O 	O 	0.57542 0.87963 0.47893 -0.39300
O 	O 	0.48844 0.93870 0.40730 -0.57400
O 	O 	0.66312 0.89265 0.48722 -0.43300
O 	O 	0.65765 0.87263 0.52436 -0.46800
O 	O 	0.78588 0.92110 0.49486 -0.42000
O 	O 	0.86039 0.92907 0.45944 -0.43500
C 	C 	0.58600 0.89560 0.46457 0.39100
C 	C 	0.57030 0.91120 0.44456 -0.16800
C 	C 	0.54280 0.90910 0.44320 0.13000
C 	C 	0.67227 0.88418 0.50812 0.37100
C 	C 	0.70049 0.88902 0.51608 -0.16400
C 	C 	0.71802 0.90004 0.49814 0.14700
O 	O 	0.61000 0.40040 0.96594 -0.49800
O 	O 	0.57542 0.37963 0.97893 -0.39200
O 	O 	0.48844 0.43870 0.90730 -0.57500
O 	O 	0.66312 0.39265 0.98722 -0.43200
O 	O 	0.65765 0.37263 0.02436 -0.46800
O 	O 	0.78588 0.42110 0.99486 -0.42100
O 	O 	0.86039 0.42907 0.95944 -0.43500
C 	C 	0.58600 0.39560 0.96457 0.39100
C 	C 	0.57030 0.41120 0.94456 -0.16800
C 	C 	0.54280 0.40910 0.94320 0.13000
C 	C 	0.67227 0.38418 0.00812 0.36900
C 	C 	0.70049 0.38902 0.01608 -0.16600
C 	C 	0.71802 0.40004 0.99814 0.15000
O 	O 	0.14000 0.84960 0.46594 -0.49800
O 	O 	0.17458 0.87037 0.47893 -0.39300
O 	O 	0.26156 0.81130 0.40730 -0.57500
O 	O 	0.08688 0.85735 0.48722 -0.43300
O 	O 	0.09235 0.87737 0.52436 -0.46800
O 	O 	0.96412 0.82890 0.49486 -0.42100
O 	O 	0.88961 0.82093 0.45944 -0.43500
C 	C 	0.16400 0.85440 0.46457 0.39100
C 	C 	0.17970 0.83880 0.44456 -0.16800
C 	C 	0.20720 0.84090 0.44320 0.13000
C 	C 	0.07773 0.86582 0.50812 0.37100
C 	C 	0.04951 0.86098 0.51608 -0.16500
C 	C 	0.03198 0.84996 0.49814 0.14800
O 	O 	0.14000 0.34960 0.96594 -0.49800
O 	O 	0.17458 0.37037 0.97893 -0.39200
O 	O 	0.26156 0.31130 0.90730 -0.57500
O 	O 	0.08688 0.35735 0.98722 -0.43200
O 	O 	0.09235 0.37737 0.02436 -0.46800
O 	O 	0.96412 0.32890 0.99486 -0.42100
O 	O 	0.88961 0.32093 0.95944 -0.43500
C 	C 	0.16400 0.35440 0.96457 0.39100
C 	C 	0.17970 0.33880 0.94456 -0.16800
C 	C 	0.20720 0.34090 0.94320 0.13000
C 	C 	0.07773 0.36582 0.00812 0.37000
C 	C 	0.04951 0.36098 0.01608 -0.16700
C 	C 	0.03198 0.34996 0.99814 0.15100
O 	O 	0.64000 0.84960 0.96594 -0.49800
O 	O 	0.67458 0.87037 0.97893 -0.39200
O 	O 	0.76156 0.81130 0.90730 -0.57500
O 	O 	0.58688 0.85735 0.98722 -0.43200
O 	O 	0.59235 0.87737 0.02436 -0.46800
O 	O 	0.46412 0.82890 0.99486 -0.42100
O 	O 	0.38961 0.82093 0.95944 -0.43500
C 	C 	0.66400 0.85440 0.96457 0.39100
C 	C 	0.67970 0.83880 0.94456 -0.16800
C 	C 	0.70720 0.84090 0.94320 0.13000
C 	C 	0.57773 0.86582 0.00812 0.36900
C 	C 	0.54951 0.86098 0.01608 -0.16600
C 	C 	0.53198 0.84996 0.99814 0.15100
O 	O 	0.64000 0.34960 0.46594 -0.49800
O 	O 	0.67458 0.37037 0.47893 -0.39300
O 	O 	0.76156 0.31130 0.40730 -0.57500
O 	O 	0.58688 0.35735 0.48722 -0.43300
O 	O 	0.59235 0.37737 0.52436 -0.46800
O 	O 	0.46412 0.32890 0.49486 -0.42100
O 	O 	0.38961 0.32093 0.45944 -0.43500
C 	C 	0.66400 0.35440 0.46457 0.39100
C 	C 	0.67970 0.33880 0.44456 -0.16800
C 	C 	0.70720 0.34090 0.44320 0.13000
C 	C 	0.57773 0.36582 0.50812 0.37100
C 	C 	0.54951 0.36098 0.51608 -0.16400
C 	C 	0.53198 0.34996 0.49814 0.14700
O 	O 	0.64000 0.40040 0.28406 -0.49800
O 	O 	0.67458 0.37963 0.27107 -0.39300
O 	O 	0.76156 0.43870 0.34270 -0.57500
O 	O 	0.58688 0.39265 0.26278 -0.43300
O 	O 	0.59235 0.37263 0.22564 -0.46800
O 	O 	0.46412 0.42110 0.25514 -0.42100
O 	O 	0.38961 0.42907 0.29056 -0.43500
C 	C 	0.66400 0.39560 0.28543 0.39100
C 	C 	0.67970 0.41120 0.30544 -0.16800
C 	C 	0.70720 0.40910 0.30680 0.13000
C 	C 	0.57773 0.38418 0.24188 0.37100
C 	C 	0.54951 0.38902 0.23392 -0.16400
C 	C 	0.53198 0.40004 0.25186 0.14700
O 	O 	0.64000 0.90040 0.78406 -0.49800
O 	O 	0.67458 0.87963 0.77107 -0.39300
O 	O 	0.76156 0.93870 0.84270 -0.57400
O 	O 	0.58688 0.89265 0.76278 -0.43300
O 	O 	0.59235 0.87263 0.72564 -0.46800
O 	O 	0.46412 0.92110 0.75514 -0.42100
O 	O 	0.38961 0.92907 0.79056 -0.43500
C 	C 	0.66400 0.89560 0.78543 0.39100
C 	C 	0.67970 0.91120 0.80544 -0.16800
C 	C 	0.70720 0.90910 0.80680 0.13000
C 	C 	0.57773 0.88418 0.74188 0.37100
C 	C 	0.54951 0.88902 0.73392 -0.16400
C 	C 	0.53198 0.90004 0.75186 0.14700
O 	O 	0.14000 0.40040 0.78406 -0.49800
O 	O 	0.17458 0.37963 0.77107 -0.39300
O 	O 	0.26156 0.43870 0.84270 -0.57500
O 	O 	0.08688 0.39265 0.76278 -0.43300
O 	O 	0.09235 0.37263 0.72564 -0.46900
O 	O 	0.96412 0.42110 0.75514 -0.42100
O 	O 	0.88961 0.42907 0.79056 -0.43500
C 	C 	0.16400 0.39560 0.78543 0.39100
C 	C 	0.17970 0.41120 0.80544 -0.16800
C 	C 	0.20720 0.40910 0.80680 0.13000
C 	C 	0.07773 0.38418 0.74188 0.37100
C 	C 	0.04951 0.38902 0.73392 -0.16500
C 	C 	0.03198 0.40004 0.75186 0.14800
O 	O 	0.14000 0.90040 0.28406 -0.49800
O 	O 	0.17458 0.87963 0.27107 -0.39300
O 	O 	0.26156 0.93870 0.34270 -0.57400
O 	O 	0.08688 0.89265 0.26278 -0.43300
O 	O 	0.09235 0.87263 0.22564 -0.46800
O 	O 	0.96412 0.92110 0.25514 -0.42100
O 	O 	0.88961 0.92907 0.29056 -0.43500
C 	C 	0.16400 0.89560 0.28543 0.39100
C 	C 	0.17970 0.91120 0.30544 -0.16800
C 	C 	0.20720 0.90910 0.30680 0.13000
C 	C 	0.07773 0.88418 0.24188 0.37100
C 	C 	0.04951 0.88902 0.23392 -0.16500
C 	C 	0.03198 0.90004 0.25186 0.14800
O 	O 	0.61000 0.34960 0.78406 -0.49800
O 	O 	0.57542 0.37037 0.77107 -0.39300
O 	O 	0.48844 0.31130 0.84270 -0.57500
O 	O 	0.66312 0.35735 0.76278 -0.43300
O 	O 	0.65765 0.37737 0.72564 -0.46800
O 	O 	0.78588 0.32890 0.75514 -0.42100
O 	O 	0.86039 0.32093 0.79056 -0.43500
C 	C 	0.58600 0.35440 0.78543 0.39100
C 	C 	0.57030 0.33880 0.80544 -0.16800
C 	C 	0.54280 0.34090 0.80680 0.13000
C 	C 	0.67227 0.36582 0.74188 0.37100
C 	C 	0.70049 0.36098 0.73392 -0.16400
C 	C 	0.71802 0.34996 0.75186 0.14700
O 	O 	0.61000 0.84960 0.28406 -0.49800
O 	O 	0.57542 0.87037 0.27107 -0.39300
O 	O 	0.48844 0.81130 0.34270 -0.57500
O 	O 	0.66312 0.85735 0.26278 -0.43300
O 	O 	0.65765 0.87737 0.22564 -0.46800
O 	O 	0.78588 0.82890 0.25514 -0.42100
O 	O 	0.86039 0.82093 0.29056 -0.43500
C 	C 	0.58600 0.85440 0.28543 0.39100
C 	C 	0.57030 0.83880 0.30544 -0.16800
C 	C 	0.54280 0.84090 0.30680 0.13000
C 	C 	0.67227 0.86582 0.24188 0.37100
C 	C 	0.70049 0.86098 0.23392 -0.16400
C 	C 	0.71802 0.84996 0.25186 0.14700
O 	O 	0.11000 0.34960 0.28406 -0.49800
O 	O 	0.07542 0.37037 0.27107 -0.39300
O 	O 	0.98844 0.31130 0.34270 -0.57300
O 	O 	0.16312 0.35735 0.26278 -0.43300
O 	O 	0.15765 0.37737 0.22564 -0.46800
O 	O 	0.28588 0.32890 0.25514 -0.42000
O 	O 	0.36039 0.32093 0.29056 -0.43500
C 	C 	0.08600 0.35440 0.28543 0.39100
C 	C 	0.07030 0.33880 0.30544 -0.16700
C 	C 	0.04280 0.34090 0.30680 0.12900
C 	C 	0.17227 0.36582 0.24188 0.37100
C 	C 	0.20049 0.36098 0.23392 -0.16400
C 	C 	0.21802 0.34996 0.25186 0.14700
O 	O 	0.11000 0.84960 0.78406 -0.49800
O 	O 	0.07542 0.87037 0.77107 -0.39300
O 	O 	0.98844 0.81130 0.84270 -0.57300
O 	O 	0.16312 0.85735 0.76278 -0.43300
O 	O 	0.15765 0.87737 0.72564 -0.46800
O 	O 	0.28588 0.82890 0.75514 -0.42100
O 	O 	0.36039 0.82093 0.79056 -0.43500
C 	C 	0.08600 0.85440 0.78543 0.39100
C 	C 	0.07030 0.83880 0.80544 -0.16700
C 	C 	0.04280 0.84090 0.80680 0.12900
C 	C 	0.17227 0.86582 0.74188 0.37100
C 	C 	0.20049 0.86098 0.73392 -0.16400
C 	C 	0.21802 0.84996 0.75186 0.14700
O 	O 	0.96594 0.11000 0.90040 -0.49800
O 	O 	0.97893 0.07542 0.87963 -0.39200
O 	O 	0.90730 0.98844 0.93870 -0.57300
O 	O 	0.98722 0.16312 0.89265 -0.43200
O 	O 	0.02436 0.15765 0.87263 -0.46800
O 	O 	0.99486 0.28588 0.92110 -0.42000
O 	O 	0.95944 0.36039 0.92907 -0.43500
C 	C 	0.96457 0.08600 0.89560 0.39100
C 	C 	0.94456 0.07030 0.91120 -0.16700
C 	C 	0.94320 0.04280 0.90910 0.13000
C 	C 	0.00812 0.17227 0.88418 0.37000
C 	C 	0.01608 0.20049 0.88902 -0.16600
C 	C 	0.99814 0.21802 0.90004 0.15100
O 	O 	0.96594 0.61000 0.40040 -0.49800
O 	O 	0.97893 0.57542 0.37963 -0.39200
O 	O 	0.90730 0.48844 0.43870 -0.57500
O 	O 	0.98722 0.66312 0.39265 -0.43200
O 	O 	0.02436 0.65765 0.37263 -0.46800
O 	O 	0.99486 0.78588 0.42110 -0.42100
O 	O 	0.95944 0.86039 0.42907 -0.43500
C 	C 	0.96457 0.58600 0.39560 0.39100
C 	C 	0.94456 0.57030 0.41120 -0.16800
C 	C 	0.94320 0.54280 0.40910 0.13000
C 	C 	0.00812 0.67227 0.38418 0.36900
C 	C 	0.01608 0.70049 0.38902 -0.16600
C 	C 	0.99814 0.71802 0.40004 0.15000
O 	O 	0.46594 0.11000 0.40040 -0.49800
O 	O 	0.47893 0.07542 0.37963 -0.39300
O 	O 	0.40730 0.98844 0.43870 -0.57300
O 	O 	0.48722 0.16312 0.39265 -0.43300
O 	O 	0.52436 0.15765 0.37263 -0.46800
O 	O 	0.49486 0.28588 0.42110 -0.42100
O 	O 	0.45944 0.36039 0.42907 -0.43500
C 	C 	0.46457 0.08600 0.39560 0.39100
C 	C 	0.44456 0.07030 0.41120 -0.16700
C 	C 	0.44320 0.04280 0.40910 0.12900
C 	C 	0.50812 0.17227 0.38418 0.37100
C 	C 	0.51608 0.20049 0.38902 -0.16400
C 	C 	0.49814 0.21802 0.40004 0.14700
O 	O 	0.46594 0.61000 0.90040 -0.49800
O 	O 	0.47893 0.57542 0.87963 -0.39300
O 	O 	0.40730 0.48844 0.93870 -0.57400
O 	O 	0.48722 0.66312 0.89265 -0.43300
O 	O 	0.52436 0.65765 0.87263 -0.46800
O 	O 	0.49486 0.78588 0.92110 -0.42000
O 	O 	0.45944 0.86039 0.92907 -0.43500
C 	C 	0.46457 0.58600 0.89560 0.39100
C 	C 	0.44456 0.57030 0.91120 -0.16800
C 	C 	0.44320 0.54280 0.90910 0.13000
C 	C 	0.50812 0.67227 0.88418 0.37100
C 	C 	0.51608 0.70049 0.88902 -0.16400
C 	C 	0.49814 0.71802 0.90004 0.14700
O 	O 	0.46594 0.14000 0.84960 -0.49800
O 	O 	0.47893 0.17458 0.87037 -0.39300
O 	O 	0.40730 0.26156 0.81130 -0.57500
O 	O 	0.48722 0.08688 0.85735 -0.43300
O 	O 	0.52436 0.09235 0.87737 -0.46800
O 	O 	0.49486 0.96412 0.82890 -0.42100
O 	O 	0.45944 0.88961 0.82093 -0.43500
C 	C 	0.46457 0.16400 0.85440 0.39100
C 	C 	0.44456 0.17970 0.83880 -0.16800
C 	C 	0.44320 0.20720 0.84090 0.13000
C 	C 	0.50812 0.07773 0.86582 0.37100
C 	C 	0.51608 0.04951 0.86098 -0.16500
C 	C 	0.49814 0.03198 0.84996 0.14800
O 	O 	0.46594 0.64000 0.34960 -0.49800
O 	O 	0.47893 0.67458 0.37037 -0.39300
O 	O 	0.40730 0.76156 0.31130 -0.57500
O 	O 	0.48722 0.58688 0.35735 -0.43300
O 	O 	0.52436 0.59235 0.37737 -0.46800
O 	O 	0.49486 0.46412 0.32890 -0.42100
O 	O 	0.45944 0.38961 0.32093 -0.43500
C 	C 	0.46457 0.66400 0.35440 0.39100
C 	C 	0.44456 0.67970 0.33880 -0.16800
C 	C 	0.44320 0.70720 0.34090 0.13000
C 	C 	0.50812 0.57773 0.36582 0.37100
C 	C 	0.51608 0.54951 0.36098 -0.16400
C 	C 	0.49814 0.53198 0.34996 0.14700
O 	O 	0.96594 0.14000 0.34960 -0.49800
O 	O 	0.97893 0.17458 0.37037 -0.39200
O 	O 	0.90730 0.26156 0.31130 -0.57500
O 	O 	0.98722 0.08688 0.35735 -0.43200
O 	O 	0.02436 0.09235 0.37737 -0.46800
O 	O 	0.99486 0.96412 0.32890 -0.42100
O 	O 	0.95944 0.88961 0.32093 -0.43500
C 	C 	0.96457 0.16400 0.35440 0.39100
C 	C 	0.94456 0.17970 0.33880 -0.16800
C 	C 	0.94320 0.20720 0.34090 0.13000
C 	C 	0.00812 0.07773 0.36582 0.37000
C 	C 	0.01608 0.04951 0.36098 -0.16700
C 	C 	0.99814 0.03198 0.34996 0.15100
O 	O 	0.96594 0.64000 0.84960 -0.49800
O 	O 	0.97893 0.67458 0.87037 -0.39200
O 	O 	0.90730 0.76156 0.81130 -0.57500
O 	O 	0.98722 0.58688 0.85735 -0.43200
O 	O 	0.02436 0.59235 0.87737 -0.46800
O 	O 	0.99486 0.46412 0.82890 -0.42100
O 	O 	0.95944 0.38961 0.82093 -0.43500
C 	C 	0.96457 0.66400 0.85440 0.39100
C 	C 	0.94456 0.67970 0.83880 -0.16800
C 	C 	0.94320 0.70720 0.84090 0.13000
C 	C 	0.00812 0.57773 0.86582 0.36900
C 	C 	0.01608 0.54951 0.86098 -0.16600
C 	C 	0.99814 0.53198 0.84996 0.15100
O 	O 	0.28406 0.64000 0.40040 -0.49800
O 	O 	0.27107 0.67458 0.37963 -0.39300
O 	O 	0.34270 0.76156 0.43870 -0.57500
O 	O 	0.26278 0.58688 0.39265 -0.43300
O 	O 	0.22564 0.59235 0.37263 -0.46800
O 	O 	0.25514 0.46412 0.42110 -0.42100
O 	O 	0.29056 0.38961 0.42907 -0.43500
C 	C 	0.28543 0.66400 0.39560 0.39100
C 	C 	0.30544 0.67970 0.41120 -0.16800
C 	C 	0.30680 0.70720 0.40910 0.13000
C 	C 	0.24188 0.57773 0.38418 0.37100
C 	C 	0.23392 0.54951 0.38902 -0.16400
C 	C 	0.25186 0.53198 0.40004 0.14700
O 	O 	0.28406 0.14000 0.90040 -0.49800
O 	O 	0.27107 0.17458 0.87963 -0.39300
O 	O 	0.34270 0.26156 0.93870 -0.57400
O 	O 	0.26278 0.08688 0.89265 -0.43300
O 	O 	0.22564 0.09235 0.87263 -0.46800
O 	O 	0.25514 0.96412 0.92110 -0.42100
O 	O 	0.29056 0.88961 0.92907 -0.43500
C 	C 	0.28543 0.16400 0.89560 0.39100
C 	C 	0.30544 0.17970 0.91120 -0.16800
C 	C 	0.30680 0.20720 0.90910 0.13000
C 	C 	0.24188 0.07773 0.88418 0.37100
C 	C 	0.23392 0.04951 0.88902 -0.16500
C 	C 	0.25186 0.03198 0.90004 0.14800
O 	O 	0.78406 0.64000 0.90040 -0.49800
O 	O 	0.77107 0.67458 0.87963 -0.39300
O 	O 	0.84270 0.76156 0.93870 -0.57400
O 	O 	0.76278 0.58688 0.89265 -0.43300
O 	O 	0.72564 0.59235 0.87263 -0.46800
O 	O 	0.75514 0.46412 0.92110 -0.42100
O 	O 	0.79056 0.38961 0.92907 -0.43500
C 	C 	0.78543 0.66400 0.89560 0.39100
C 	C 	0.80544 0.67970 0.91120 -0.16800
C 	C 	0.80680 0.70720 0.90910 0.13000
C 	C 	0.74188 0.57773 0.88418 0.37100
C 	C 	0.73392 0.54951 0.88902 -0.16400
C 	C 	0.75186 0.53198 0.90004 0.14700
O 	O 	0.78406 0.14000 0.40040 -0.49800
O 	O 	0.77107 0.17458 0.37963 -0.39300
O 	O 	0.84270 0.26156 0.43870 -0.57500
O 	O 	0.76278 0.08688 0.39265 -0.43300
O 	O 	0.72564 0.09235 0.37263 -0.46900
O 	O 	0.75514 0.96412 0.42110 -0.42100
O 	O 	0.79056 0.88961 0.42907 -0.43500
C 	C 	0.78543 0.16400 0.39560 0.39100
C 	C 	0.80544 0.17970 0.41120 -0.16800
C 	C 	0.80680 0.20720 0.40910 0.13000
C 	C 	0.74188 0.07773 0.38418 0.37100
C 	C 	0.73392 0.04951 0.38902 -0.16500
C 	C 	0.75186 0.03198 0.40004 0.14800
O 	O 	0.78406 0.61000 0.34960 -0.49800
O 	O 	0.77107 0.57542 0.37037 -0.39300
O 	O 	0.84270 0.48844 0.31130 -0.57500
O 	O 	0.76278 0.66312 0.35735 -0.43300
O 	O 	0.72564 0.65765 0.37737 -0.46800
O 	O 	0.75514 0.78588 0.32890 -0.42100
O 	O 	0.79056 0.86039 0.32093 -0.43500
C 	C 	0.78543 0.58600 0.35440 0.39100
C 	C 	0.80544 0.57030 0.33880 -0.16800
C 	C 	0.80680 0.54280 0.34090 0.13000
C 	C 	0.74188 0.67227 0.36582 0.37100
C 	C 	0.73392 0.70049 0.36098 -0.16400
C 	C 	0.75186 0.71802 0.34996 0.14700
O 	O 	0.78406 0.11000 0.84960 -0.49800
O 	O 	0.77107 0.07542 0.87037 -0.39300
O 	O 	0.84270 0.98844 0.81130 -0.57300
O 	O 	0.76278 0.16312 0.85735 -0.43300
O 	O 	0.72564 0.15765 0.87737 -0.46800
O 	O 	0.75514 0.28588 0.82890 -0.42100
O 	O 	0.79056 0.36039 0.82093 -0.43500
C 	C 	0.78543 0.08600 0.85440 0.39100
C 	C 	0.80544 0.07030 0.83880 -0.16700
C 	C 	0.80680 0.04280 0.84090 0.12900
C 	C 	0.74188 0.17227 0.86582 0.37100
C 	C 	0.73392 0.20049 0.86098 -0.16400
C 	C 	0.75186 0.21802 0.84996 0.14700
O 	O 	0.28406 0.61000 0.84960 -0.49800
O 	O 	0.27107 0.57542 0.87037 -0.39300
O 	O 	0.34270 0.48844 0.81130 -0.57500
O 	O 	0.26278 0.66312 0.85735 -0.43300
O 	O 	0.22564 0.65765 0.87737 -0.46800
O 	O 	0.25514 0.78588 0.82890 -0.42100
O 	O 	0.29056 0.86039 0.82093 -0.43500
C 	C 	0.28543 0.58600 0.85440 0.39100
C 	C 	0.30544 0.57030 0.83880 -0.16800
C 	C 	0.30680 0.54280 0.84090 0.13000
C 	C 	0.24188 0.67227 0.86582 0.37100
C 	C 	0.23392 0.70049 0.86098 -0.16400
C 	C 	0.25186 0.71802 0.84996 0.14700
O 	O 	0.28406 0.11000 0.34960 -0.49800
O 	O 	0.27107 0.07542 0.37037 -0.39300
O 	O 	0.34270 0.98844 0.31130 -0.57300
O 	O 	0.26278 0.16312 0.35735 -0.43300
O 	O 	0.22564 0.15765 0.37737 -0.46800
O 	O 	0.25514 0.28588 0.32890 -0.42000
O 	O 	0.29056 0.36039 0.32093 -0.43500
C 	C 	0.28543 0.08600 0.35440 0.39100
C 	C 	0.30544 0.07030 0.33880 -0.16700
C 	C 	0.30680 0.04280 0.34090 0.12900
C 	C 	0.24188 0.17227 0.36582 0.37100
C 	C 	0.23392 0.20049 0.36098 -0.16400
C 	C 	0.25186 0.21802 0.34996 0.14700
O 	O 	0.90040 0.96594 0.11000 -0.49800
O 	O 	0.87963 0.97893 0.07542 -0.39200
O 	O 	0.93870 0.90730 0.98844 -0.57300
O 	O 	0.89265 0.98722 0.16312 -0.43200
O 	O 	0.87263 0.02436 0.15765 -0.46800
O 	O 	0.92110 0.99486 0.28588 -0.42000
O 	O 	0.92907 0.95944 0.36039 -0.43500
C 	C 	0.89560 0.96457 0.08600 0.39100
C 	C 	0.91120 0.94456 0.07030 -0.16700
C 	C 	0.90910 0.94320 0.04280 0.13000
C 	C 	0.88418 0.00812 0.17227 0.37000
C 	C 	0.88902 0.01608 0.20049 -0.16600
C 	C 	0.90004 0.99814 0.21802 0.15100
O 	O 	0.90040 0.46594 0.61000 -0.49800
O 	O 	0.87963 0.47893 0.57542 -0.39300
O 	O 	0.93870 0.40730 0.48844 -0.57400
O 	O 	0.89265 0.48722 0.66312 -0.43300
O 	O 	0.87263 0.52436 0.65765 -0.46800
O 	O 	0.92110 0.49486 0.78588 -0.42000
O 	O 	0.92907 0.45944 0.86039 -0.43500
C 	C 	0.89560 0.46457 0.58600 0.39100
C 	C 	0.91120 0.44456 0.57030 -0.16800
C 	C 	0.90910 0.44320 0.54280 0.13000
C 	C 	0.88418 0.50812 0.67227 0.37100
C 	C 	0.88902 0.51608 0.70049 -0.16400
C 	C 	0.90004 0.49814 0.71802 0.14700
O 	O 	0.40040 0.96594 0.61000 -0.49800
O 	O 	0.37963 0.97893 0.57542 -0.39200
O 	O 	0.43870 0.90730 0.48844 -0.57500
O 	O 	0.39265 0.98722 0.66312 -0.43200
O 	O 	0.37263 0.02436 0.65765 -0.46800
O 	O 	0.42110 0.99486 0.78588 -0.42100
O 	O 	0.42907 0.95944 0.86039 -0.43500
C 	C 	0.39560 0.96457 0.58600 0.39100
C 	C 	0.41120 0.94456 0.57030 -0.16800
C 	C 	0.40910 0.94320 0.54280 0.13000
C 	C 	0.38418 0.00812 0.67227 0.36900
C 	C 	0.38902 0.01608 0.70049 -0.16600
C 	C 	0.40004 0.99814 0.71802 0.15000
O 	O 	0.40040 0.46594 0.11000 -0.49800
O 	O 	0.37963 0.47893 0.07542 -0.39300
O 	O 	0.43870 0.40730 0.98844 -0.57300
O 	O 	0.39265 0.48722 0.16312 -0.43300
O 	O 	0.37263 0.52436 0.15765 -0.46800
O 	O 	0.42110 0.49486 0.28588 -0.42100
O 	O 	0.42907 0.45944 0.36039 -0.43500
C 	C 	0.39560 0.46457 0.08600 0.39100
C 	C 	0.41120 0.44456 0.07030 -0.16700
C 	C 	0.40910 0.44320 0.04280 0.12900
C 	C 	0.38418 0.50812 0.17227 0.37100
C 	C 	0.38902 0.51608 0.20049 -0.16400
C 	C 	0.40004 0.49814 0.21802 0.14700
O 	O 	0.84960 0.46594 0.14000 -0.49800
O 	O 	0.87037 0.47893 0.17458 -0.39300
O 	O 	0.81130 0.40730 0.26156 -0.57500
O 	O 	0.85735 0.48722 0.08688 -0.43300
O 	O 	0.87737 0.52436 0.09235 -0.46800
O 	O 	0.82890 0.49486 0.96412 -0.42100
O 	O 	0.82093 0.45944 0.88961 -0.43500
C 	C 	0.85440 0.46457 0.16400 0.39100
C 	C 	0.83880 0.44456 0.17970 -0.16800
C 	C 	0.84090 0.44320 0.20720 0.13000
C 	C 	0.86582 0.50812 0.07773 0.37100
C 	C 	0.86098 0.51608 0.04951 -0.16500
C 	C 	0.84996 0.49814 0.03198 0.14800
O 	O 	0.84960 0.96594 0.64000 -0.49800
O 	O 	0.87037 0.97893 0.67458 -0.39200
O 	O 	0.81130 0.90730 0.76156 -0.57500
O 	O 	0.85735 0.98722 0.58688 -0.43200
O 	O 	0.87737 0.02436 0.59235 -0.46800
O 	O 	0.82890 0.99486 0.46412 -0.42100
O 	O 	0.82093 0.95944 0.38961 -0.43500
C 	C 	0.85440 0.96457 0.66400 0.39100
C 	C 	0.83880 0.94456 0.67970 -0.16800
C 	C 	0.84090 0.94320 0.70720 0.13000
C 	C 	0.86582 0.00812 0.57773 0.36900
C 	C 	0.86098 0.01608 0.54951 -0.16600
C 	C 	0.84996 0.99814 0.53198 0.15100
O 	O 	0.34960 0.46594 0.64000 -0.49800
O 	O 	0.37037 0.47893 0.67458 -0.39300
O 	O 	0.31130 0.40730 0.76156 -0.57500
O 	O 	0.35735 0.48722 0.58688 -0.43300
O 	O 	0.37737 0.52436 0.59235 -0.46800
O 	O 	0.32890 0.49486 0.46412 -0.42100
O 	O 	0.32093 0.45944 0.38961 -0.43500
C 	C 	0.35440 0.46457 0.66400 0.39100
C 	C 	0.33880 0.44456 0.67970 -0.16800
C 	C 	0.34090 0.44320 0.70720 0.13000
C 	C 	0.36582 0.50812 0.57773 0.37100
C 	C 	0.36098 0.51608 0.54951 -0.16400
C 	C 	0.34996 0.49814 0.53198 0.14700
O 	O 	0.34960 0.96594 0.14000 -0.49800
O 	O 	0.37037 0.97893 0.17458 -0.39200
O 	O 	0.31130 0.90730 0.26156 -0.57500
O 	O 	0.35735 0.98722 0.08688 -0.43200
O 	O 	0.37737 0.02436 0.09235 -0.46800
O 	O 	0.32890 0.99486 0.96412 -0.42100
O 	O 	0.32093 0.95944 0.88961 -0.43500
C 	C 	0.35440 0.96457 0.16400 0.39100
C 	C 	0.33880 0.94456 0.17970 -0.16800
C 	C 	0.34090 0.94320 0.20720 0.13000
C 	C 	0.36582 0.00812 0.07773 0.37000
C 	C 	0.36098 0.01608 0.04951 -0.16700
C 	C 	0.34996 0.99814 0.03198 0.15100
O 	O 	0.40040 0.28406 0.64000 -0.49800
O 	O 	0.37963 0.27107 0.67458 -0.39300
O 	O 	0.43870 0.34270 0.76156 -0.57500
O 	O 	0.39265 0.26278 0.58688 -0.43300
O 	O 	0.37263 0.22564 0.59235 -0.46800
O 	O 	0.42110 0.25514 0.46412 -0.42100
O 	O 	0.42907 0.29056 0.38961 -0.43500
C 	C 	0.39560 0.28543 0.66400 0.39100
C 	C 	0.41120 0.30544 0.67970 -0.16800
C 	C 	0.40910 0.30680 0.70720 0.13000
C 	C 	0.38418 0.24188 0.57773 0.37100
C 	C 	0.38902 0.23392 0.54951 -0.16400
C 	C 	0.40004 0.25186 0.53198 0.14700
O 	O 	0.40040 0.78406 0.14000 -0.49800
O 	O 	0.37963 0.77107 0.17458 -0.39300
O 	O 	0.43870 0.84270 0.26156 -0.57500
O 	O 	0.39265 0.76278 0.08688 -0.43300
O 	O 	0.37263 0.72564 0.09235 -0.46900
O 	O 	0.42110 0.75514 0.96412 -0.42100
O 	O 	0.42907 0.79056 0.88961 -0.43500
C 	C 	0.39560 0.78543 0.16400 0.39100
C 	C 	0.41120 0.80544 0.17970 -0.16800
C 	C 	0.40910 0.80680 0.20720 0.13000
C 	C 	0.38418 0.74188 0.07773 0.37100
C 	C 	0.38902 0.73392 0.04951 -0.16500
C 	C 	0.40004 0.75186 0.03198 0.14800
O 	O 	0.90040 0.28406 0.14000 -0.49800
O 	O 	0.87963 0.27107 0.17458 -0.39300
O 	O 	0.93870 0.34270 0.26156 -0.57400
O 	O 	0.89265 0.26278 0.08688 -0.43300
O 	O 	0.87263 0.22564 0.09235 -0.46800
O 	O 	0.92110 0.25514 0.96412 -0.42100
O 	O 	0.92907 0.29056 0.88961 -0.43500
C 	C 	0.89560 0.28543 0.16400 0.39100
C 	C 	0.91120 0.30544 0.17970 -0.16800
C 	C 	0.90910 0.30680 0.20720 0.13000
C 	C 	0.88418 0.24188 0.07773 0.37100
C 	C 	0.88902 0.23392 0.04951 -0.16500
C 	C 	0.90004 0.25186 0.03198 0.14800
O 	O 	0.90040 0.78406 0.64000 -0.49800
O 	O 	0.87963 0.77107 0.67458 -0.39300
O 	O 	0.93870 0.84270 0.76156 -0.57400
O 	O 	0.89265 0.76278 0.58688 -0.43300
O 	O 	0.87263 0.72564 0.59235 -0.46800
O 	O 	0.92110 0.75514 0.46412 -0.42100
O 	O 	0.92907 0.79056 0.38961 -0.43500
C 	C 	0.89560 0.78543 0.66400 0.39100
C 	C 	0.91120 0.80544 0.67970 -0.16800
C 	C 	0.90910 0.80680 0.70720 0.13000
C 	C 	0.88418 0.74188 0.57773 0.37100
C 	C 	0.88902 0.73392 0.54951 -0.16400
C 	C 	0.90004 0.75186 0.53198 0.14700
O 	O 	0.34960 0.78406 0.61000 -0.49800
O 	O 	0.37037 0.77107 0.57542 -0.39300
O 	O 	0.31130 0.84270 0.48844 -0.57500
O 	O 	0.35735 0.76278 0.66312 -0.43300
O 	O 	0.37737 0.72564 0.65765 -0.46800
O 	O 	0.32890 0.75514 0.78588 -0.42100
O 	O 	0.32093 0.79056 0.86039 -0.43500
C 	C 	0.35440 0.78543 0.58600 0.39100
C 	C 	0.33880 0.80544 0.57030 -0.16800
C 	C 	0.34090 0.80680 0.54280 0.13000
C 	C 	0.36582 0.74188 0.67227 0.37100
C 	C 	0.36098 0.73392 0.70049 -0.16400
C 	C 	0.34996 0.75186 0.71802 0.14700
O 	O 	0.34960 0.28406 0.11000 -0.49800
O 	O 	0.37037 0.27107 0.07542 -0.39300
O 	O 	0.31130 0.34270 0.98844 -0.57300
O 	O 	0.35735 0.26278 0.16312 -0.43300
O 	O 	0.37737 0.22564 0.15765 -0.46800
O 	O 	0.32890 0.25514 0.28588 -0.42000
O 	O 	0.32093 0.29056 0.36039 -0.43500
C 	C 	0.35440 0.28543 0.08600 0.39100
C 	C 	0.33880 0.30544 0.07030 -0.16700
C 	C 	0.34090 0.30680 0.04280 0.12900
C 	C 	0.36582 0.24188 0.17227 0.37100
C 	C 	0.36098 0.23392 0.20049 -0.16400
C 	C 	0.34996 0.25186 0.21802 0.14700
O 	O 	0.84960 0.78406 0.11000 -0.49800
O 	O 	0.87037 0.77107 0.07542 -0.39300
O 	O 	0.81130 0.84270 0.98844 -0.57300
O 	O 	0.85735 0.76278 0.16312 -0.43300
O 	O 	0.87737 0.72564 0.15765 -0.46800
O 	O 	0.82890 0.75514 0.28588 -0.42100
O 	O 	0.82093 0.79056 0.36039 -0.43500
C 	C 	0.85440 0.78543 0.08600 0.39100
C 	C 	0.83880 0.80544 0.07030 -0.16700
C 	C 	0.84090 0.80680 0.04280 0.12900
C 	C 	0.86582 0.74188 0.17227 0.37100
C 	C 	0.86098 0.73392 0.20049 -0.16400
C 	C 	0.84996 0.75186 0.21802 0.14700
O 	O 	0.84960 0.28406 0.61000 -0.49800
O 	O 	0.87037 0.27107 0.57542 -0.39300
O 	O 	0.81130 0.34270 0.48844 -0.57500
O 	O 	0.85735 0.26278 0.66312 -0.43300
O 	O 	0.87737 0.22564 0.65765 -0.46800
O 	O 	0.82890 0.25514 0.78588 -0.42100
O 	O 	0.82093 0.29056 0.86039 -0.43500
C 	C 	0.85440 0.28543 0.58600 0.39100
C 	C 	0.83880 0.30544 0.57030 -0.16800
C 	C 	0.84090 0.30680 0.54280 0.13000
C 	C 	0.86582 0.24188 0.67227 0.37100
C 	C 	0.86098 0.23392 0.70049 -0.16400
C 	C 	0.84996 0.25186 0.71802 0.14700
O 	O 	0.15040 0.86000 0.53406 -0.49800
O 	O 	0.12963 0.82542 0.52107 -0.39300
O 	O 	0.18870 0.73844 0.59270 -0.57500
O 	O 	0.14265 0.91312 0.51278 -0.43300
O 	O 	0.12263 0.90765 0.47564 -0.46800
O 	O 	0.17110 0.03588 0.50514 -0.42000
O 	O 	0.17907 0.11039 0.54056 -0.43500
C 	C 	0.14560 0.83600 0.53543 0.39100
C 	C 	0.16120 0.82030 0.55544 -0.16800
C 	C 	0.15910 0.79280 0.55680 0.13000
C 	C 	0.13418 0.92227 0.49188 0.37000
C 	C 	0.13902 0.95049 0.48392 -0.16300
C 	C 	0.15004 0.96802 0.50186 0.14600
O 	O 	0.15040 0.36000 0.03406 -0.49800
O 	O 	0.12963 0.32542 0.02107 -0.39300
O 	O 	0.18870 0.23844 0.09270 -0.57500
O 	O 	0.14265 0.41312 0.01278 -0.43400
O 	O 	0.12263 0.40765 0.97564 -0.46800
O 	O 	0.17110 0.53588 0.00514 -0.42000
O 	O 	0.17907 0.61039 0.04056 -0.43500
C 	C 	0.14560 0.33600 0.03543 0.39100
C 	C 	0.16120 0.32030 0.05544 -0.16800
C 	C 	0.15910 0.29280 0.05680 0.13000
C 	C 	0.13418 0.42227 0.99188 0.37200
C 	C 	0.13902 0.45049 0.98392 -0.16200
C 	C 	0.15004 0.46802 0.00186 0.14400
O 	O 	0.65040 0.86000 0.03406 -0.49800
O 	O 	0.62963 0.82542 0.02107 -0.39300
O 	O 	0.68870 0.73844 0.09270 -0.57500
O 	O 	0.64265 0.91312 0.01278 -0.43400
O 	O 	0.62263 0.90765 0.97564 -0.46800
O 	O 	0.67110 0.03588 0.00514 -0.42000
O 	O 	0.67907 0.11039 0.04056 -0.43500
C 	C 	0.64560 0.83600 0.03543 0.39100
C 	C 	0.66120 0.82030 0.05544 -0.16800
C 	C 	0.65910 0.79280 0.05680 0.13000
C 	C 	0.63418 0.92227 0.99188 0.37200
C 	C 	0.63902 0.95049 0.98392 -0.16100
C 	C 	0.65004 0.96802 0.00186 0.14300
O 	O 	0.65040 0.36000 0.53406 -0.49800
O 	O 	0.62963 0.32542 0.52107 -0.39300
O 	O 	0.68870 0.23844 0.59270 -0.57500
O 	O 	0.64265 0.41312 0.51278 -0.43300
O 	O 	0.62263 0.40765 0.47564 -0.46800
O 	O 	0.67110 0.53588 0.50514 -0.42100
O 	O 	0.67907 0.61039 0.54056 -0.43500
C 	C 	0.64560 0.33600 0.53543 0.39100
C 	C 	0.66120 0.32030 0.55544 -0.16800
C 	C 	0.65910 0.29280 0.55680 0.13000
C 	C 	0.63418 0.42227 0.49188 0.37100
C 	C 	0.63902 0.45049 0.48392 -0.16400
C 	C 	0.65004 0.46802 0.50186 0.14700
O 	O 	0.09960 0.89000 0.03406 -0.49900
O 	O 	0.12037 0.92458 0.02107 -0.39300
O 	O 	0.06130 0.01156 0.09270 -0.57600
O 	O 	0.10735 0.83688 0.01278 -0.43400
O 	O 	0.12737 0.84235 0.97564 -0.46800
O 	O 	0.07890 0.71412 0.00514 -0.42100
O 	O 	0.07093 0.63961 0.04056 -0.43600
C 	C 	0.10440 0.91400 0.03543 0.39100
C 	C 	0.08880 0.92970 0.05544 -0.16800
C 	C 	0.09090 0.95720 0.05680 0.13100
C 	C 	0.11582 0.82773 0.99188 0.37200
C 	C 	0.11098 0.79951 0.98392 -0.16200
C 	C 	0.09996 0.78198 0.00186 0.14400
O 	O 	0.09960 0.39000 0.53406 -0.49800
O 	O 	0.12037 0.42458 0.52107 -0.39300
O 	O 	0.06130 0.51156 0.59270 -0.57500
O 	O 	0.10735 0.33688 0.51278 -0.43300
O 	O 	0.12737 0.34235 0.47564 -0.46800
O 	O 	0.07890 0.21412 0.50514 -0.42100
O 	O 	0.07093 0.13961 0.54056 -0.43500
C 	C 	0.10440 0.41400 0.53543 0.39100
C 	C 	0.08880 0.42970 0.55544 -0.16800
C 	C 	0.09090 0.45720 0.55680 0.13000
C 	C 	0.11582 0.32773 0.49188 0.37100
C 	C 	0.11098 0.29951 0.48392 -0.16400
C 	C 	0.09996 0.28198 0.50186 0.14700
O 	O 	0.59960 0.89000 0.53406 -0.49800
O 	O 	0.62037 0.92458 0.52107 -0.39200
O 	O 	0.56130 0.01156 0.59270 -0.57600
O 	O 	0.60735 0.83688 0.51278 -0.43300
O 	O 	0.62737 0.84235 0.47564 -0.46800
O 	O 	0.57890 0.71412 0.50514 -0.42100
O 	O 	0.57093 0.63961 0.54056 -0.43500
C 	C 	0.60440 0.91400 0.53543 0.39100
C 	C 	0.58880 0.92970 0.55544 -0.16800
C 	C 	0.59090 0.95720 0.55680 0.13100
C 	C 	0.61582 0.82773 0.49188 0.37100
C 	C 	0.61098 0.79951 0.48392 -0.16400
C 	C 	0.59996 0.78198 0.50186 0.14700
O 	O 	0.59960 0.39000 0.03406 -0.49800
O 	O 	0.62037 0.42458 0.02107 -0.39300
O 	O 	0.56130 0.51156 0.09270 -0.57500
O 	O 	0.60735 0.33688 0.01278 -0.43400
O 	O 	0.62737 0.34235 0.97564 -0.46800
O 	O 	0.57890 0.21412 0.00514 -0.42000
O 	O 	0.57093 0.13961 0.04056 -0.43500
C 	C 	0.60440 0.41400 0.03543 0.39100
C 	C 	0.58880 0.42970 0.05544 -0.16800
C 	C 	0.59090 0.45720 0.05680 0.13000
C 	C 	0.61582 0.32773 0.99188 0.37200
C 	C 	0.61098 0.29951 0.98392 -0.16200
C 	C 	0.59996 0.28198 0.00186 0.14400
O 	O 	0.65040 0.39000 0.21594 -0.49800
O 	O 	0.62963 0.42458 0.22893 -0.39300
O 	O 	0.68870 0.51156 0.15730 -0.57500
O 	O 	0.64265 0.33688 0.23722 -0.43300
O 	O 	0.62263 0.34235 0.27436 -0.46800
O 	O 	0.67110 0.21412 0.24486 -0.42100
O 	O 	0.67907 0.13961 0.20944 -0.43500
C 	C 	0.64560 0.41400 0.21457 0.39100
C 	C 	0.66120 0.42970 0.19456 -0.16800
C 	C 	0.65910 0.45720 0.19320 0.13000
C 	C 	0.63418 0.32773 0.25812 0.37100
C 	C 	0.63902 0.29951 0.26608 -0.16400
C 	C 	0.65004 0.28198 0.24814 0.14700
O 	O 	0.65040 0.89000 0.71594 -0.49800
O 	O 	0.62963 0.92458 0.72893 -0.39200
O 	O 	0.68870 0.01156 0.65730 -0.57600
O 	O 	0.64265 0.83688 0.73722 -0.43300
O 	O 	0.62263 0.84235 0.77436 -0.46800
O 	O 	0.67110 0.71412 0.74486 -0.42100
O 	O 	0.67907 0.63961 0.70944 -0.43500
C 	C 	0.64560 0.91400 0.71457 0.39100
C 	C 	0.66120 0.92970 0.69456 -0.16800
C 	C 	0.65910 0.95720 0.69320 0.13100
C 	C 	0.63418 0.82773 0.75812 0.37100
C 	C 	0.63902 0.79951 0.76608 -0.16400
C 	C 	0.65004 0.78198 0.74814 0.14700
O 	O 	0.15040 0.39000 0.71594 -0.49800
O 	O 	0.12963 0.42458 0.72893 -0.39300
O 	O 	0.18870 0.51156 0.65730 -0.57500
O 	O 	0.14265 0.33688 0.73722 -0.43300
O 	O 	0.12263 0.34235 0.77436 -0.46800
O 	O 	0.17110 0.21412 0.74486 -0.42100
O 	O 	0.17907 0.13961 0.70944 -0.43500
C 	C 	0.14560 0.41400 0.71457 0.39100
C 	C 	0.16120 0.42970 0.69456 -0.16800
C 	C 	0.15910 0.45720 0.69320 0.13000
C 	C 	0.13418 0.32773 0.75812 0.37100
C 	C 	0.13902 0.29951 0.76608 -0.16400
C 	C 	0.15004 0.28198 0.74814 0.14700
O 	O 	0.15040 0.89000 0.21594 -0.49800
O 	O 	0.12963 0.92458 0.22893 -0.39200
O 	O 	0.18870 0.01156 0.15730 -0.57600
O 	O 	0.14265 0.83688 0.23722 -0.43300
O 	O 	0.12263 0.84235 0.27436 -0.46800
O 	O 	0.17110 0.71412 0.24486 -0.42100
O 	O 	0.17907 0.63961 0.20944 -0.43500
C 	C 	0.14560 0.91400 0.21457 0.39100
C 	C 	0.16120 0.92970 0.19456 -0.16800
C 	C 	0.15910 0.95720 0.19320 0.13100
C 	C 	0.13418 0.82773 0.25812 0.37100
C 	C 	0.13902 0.79951 0.26608 -0.16400
C 	C 	0.15004 0.78198 0.24814 0.14700
O 	O 	0.59960 0.36000 0.71594 -0.49800
O 	O 	0.62037 0.32542 0.72893 -0.39300
O 	O 	0.56130 0.23844 0.65730 -0.57500
O 	O 	0.60735 0.41312 0.73722 -0.43300
O 	O 	0.62737 0.40765 0.77436 -0.46800
O 	O 	0.57890 0.53588 0.74486 -0.42100
O 	O 	0.57093 0.61039 0.70944 -0.43500
C 	C 	0.60440 0.33600 0.71457 0.39100
C 	C 	0.58880 0.32030 0.69456 -0.16800
C 	C 	0.59090 0.29280 0.69320 0.13000
C 	C 	0.61582 0.42227 0.75812 0.37100
C 	C 	0.61098 0.45049 0.76608 -0.16400
C 	C 	0.59996 0.46802 0.74814 0.14700
O 	O 	0.59960 0.86000 0.21594 -0.49800
O 	O 	0.62037 0.82542 0.22893 -0.39300
O 	O 	0.56130 0.73844 0.15730 -0.57500
O 	O 	0.60735 0.91312 0.23722 -0.43300
O 	O 	0.62737 0.90765 0.27436 -0.46800
O 	O 	0.57890 0.03588 0.24486 -0.42000
O 	O 	0.57093 0.11039 0.20944 -0.43500
C 	C 	0.60440 0.83600 0.21457 0.39100
C 	C 	0.58880 0.82030 0.19456 -0.16800
C 	C 	0.59090 0.79280 0.19320 0.13000
C 	C 	0.61582 0.92227 0.25812 0.37000
C 	C 	0.61098 0.95049 0.26608 -0.16300
C 	C 	0.59996 0.96802 0.24814 0.14600
O 	O 	0.09960 0.36000 0.21594 -0.49800
O 	O 	0.12037 0.32542 0.22893 -0.39300
O 	O 	0.06130 0.23844 0.15730 -0.57500
O 	O 	0.10735 0.41312 0.23722 -0.43300
O 	O 	0.12737 0.40765 0.27436 -0.46800
O 	O 	0.07890 0.53588 0.24486 -0.42100
O 	O 	0.07093 0.61039 0.20944 -0.43500
C 	C 	0.10440 0.33600 0.21457 0.39100
C 	C 	0.08880 0.32030 0.19456 -0.16800
C 	C 	0.09090 0.29280 0.19320 0.13000
C 	C 	0.11582 0.42227 0.25812 0.37100
C 	C 	0.11098 0.45049 0.26608 -0.16400
C 	C 	0.09996 0.46802 0.24814 0.14700
O 	O 	0.09960 0.86000 0.71594 -0.49800
O 	O 	0.12037 0.82542 0.72893 -0.39300
O 	O 	0.06130 0.73844 0.65730 -0.57500
O 	O 	0.10735 0.91312 0.73722 -0.43300
O 	O 	0.12737 0.90765 0.77436 -0.46800
O 	O 	0.07890 0.03588 0.74486 -0.42000
O 	O 	0.07093 0.11039 0.70944 -0.43500
C 	C 	0.10440 0.83600 0.71457 0.39100
C 	C 	0.08880 0.82030 0.69456 -0.16800
C 	C 	0.09090 0.79280 0.69320 0.13000
C 	C 	0.11582 0.92227 0.75812 0.37000
C 	C 	0.11098 0.95049 0.76608 -0.16300
C 	C 	0.09996 0.96802 0.74814 0.14600
O 	O 	0.36000 0.71594 0.59960 -0.49800
O 	O 	0.32542 0.72893 0.62037 -0.39300
O 	O 	0.23844 0.65730 0.56130 -0.57500
O 	O 	0.41312 0.73722 0.60735 -0.43300
O 	O 	0.40765 0.77436 0.62737 -0.46800
O 	O 	0.53588 0.74486 0.57890 -0.42100
O 	O 	0.61039 0.70944 0.57093 -0.43500
C 	C 	0.33600 0.71457 0.60440 0.39100
C 	C 	0.32030 0.69456 0.58880 -0.16800
C 	C 	0.29280 0.69320 0.59090 0.13000
C 	C 	0.42227 0.75812 0.61582 0.37100
C 	C 	0.45049 0.76608 0.61098 -0.16400
C 	C 	0.46802 0.74814 0.59996 0.14700
O 	O 	0.36000 0.21594 0.09960 -0.49800
O 	O 	0.32542 0.22893 0.12037 -0.39300
O 	O 	0.23844 0.15730 0.06130 -0.57500
O 	O 	0.41312 0.23722 0.10735 -0.43300
O 	O 	0.40765 0.27436 0.12737 -0.46800
O 	O 	0.53588 0.24486 0.07890 -0.42100
O 	O 	0.61039 0.20944 0.07093 -0.43500
C 	C 	0.33600 0.21457 0.10440 0.39100
C 	C 	0.32030 0.19456 0.08880 -0.16800
C 	C 	0.29280 0.19320 0.09090 0.13000
C 	C 	0.42227 0.25812 0.11582 0.37100
C 	C 	0.45049 0.26608 0.11098 -0.16400
C 	C 	0.46802 0.24814 0.09996 0.14700
O 	O 	0.86000 0.71594 0.09960 -0.49800
O 	O 	0.82542 0.72893 0.12037 -0.39300
O 	O 	0.73844 0.65730 0.06130 -0.57500
O 	O 	0.91312 0.73722 0.10735 -0.43300
O 	O 	0.90765 0.77436 0.12737 -0.46800
O 	O 	0.03588 0.74486 0.07890 -0.42000
O 	O 	0.11039 0.70944 0.07093 -0.43500
C 	C 	0.83600 0.71457 0.10440 0.39100
C 	C 	0.82030 0.69456 0.08880 -0.16800
C 	C 	0.79280 0.69320 0.09090 0.13000
C 	C 	0.92227 0.75812 0.11582 0.37000
C 	C 	0.95049 0.76608 0.11098 -0.16300
C 	C 	0.96802 0.74814 0.09996 0.14600
O 	O 	0.86000 0.21594 0.59960 -0.49800
O 	O 	0.82542 0.22893 0.62037 -0.39300
O 	O 	0.73844 0.15730 0.56130 -0.57500
O 	O 	0.91312 0.23722 0.60735 -0.43300
O 	O 	0.90765 0.27436 0.62737 -0.46800
O 	O 	0.03588 0.24486 0.57890 -0.42000
O 	O 	0.11039 0.20944 0.57093 -0.43500
C 	C 	0.83600 0.21457 0.60440 0.39100
C 	C 	0.82030 0.19456 0.58880 -0.16800
C 	C 	0.79280 0.19320 0.59090 0.13000
C 	C 	0.92227 0.25812 0.61582 0.37000
C 	C 	0.95049 0.26608 0.61098 -0.16300
C 	C 	0.96802 0.24814 0.59996 0.14600
O 	O 	0.39000 0.21594 0.65040 -0.49800
O 	O 	0.42458 0.22893 0.62963 -0.39300
O 	O 	0.51156 0.15730 0.68870 -0.57500
O 	O 	0.33688 0.23722 0.64265 -0.43300
O 	O 	0.34235 0.27436 0.62263 -0.46800
O 	O 	0.21412 0.24486 0.67110 -0.42100
O 	O 	0.13961 0.20944 0.67907 -0.43500
C 	C 	0.41400 0.21457 0.64560 0.39100
C 	C 	0.42970 0.19456 0.66120 -0.16800
C 	C 	0.45720 0.19320 0.65910 0.13000
C 	C 	0.32773 0.25812 0.63418 0.37100
C 	C 	0.29951 0.26608 0.63902 -0.16400
C 	C 	0.28198 0.24814 0.65004 0.14700
O 	O 	0.39000 0.71594 0.15040 -0.49800
O 	O 	0.42458 0.72893 0.12963 -0.39300
O 	O 	0.51156 0.65730 0.18870 -0.57500
O 	O 	0.33688 0.73722 0.14265 -0.43300
O 	O 	0.34235 0.77436 0.12263 -0.46800
O 	O 	0.21412 0.74486 0.17110 -0.42100
O 	O 	0.13961 0.70944 0.17907 -0.43500
C 	C 	0.41400 0.71457 0.14560 0.39100
C 	C 	0.42970 0.69456 0.16120 -0.16800
C 	C 	0.45720 0.69320 0.15910 0.13000
C 	C 	0.32773 0.75812 0.13418 0.37100
C 	C 	0.29951 0.76608 0.13902 -0.16400
C 	C 	0.28198 0.74814 0.15004 0.14700
O 	O 	0.89000 0.21594 0.15040 -0.49800
O 	O 	0.92458 0.22893 0.12963 -0.39200
O 	O 	0.01156 0.15730 0.18870 -0.57600
O 	O 	0.83688 0.23722 0.14265 -0.43300
O 	O 	0.84235 0.27436 0.12263 -0.46800
O 	O 	0.71412 0.24486 0.17110 -0.42100
O 	O 	0.63961 0.20944 0.17907 -0.43500
C 	C 	0.91400 0.21457 0.14560 0.39100
C 	C 	0.92970 0.19456 0.16120 -0.16800
C 	C 	0.95720 0.19320 0.15910 0.13100
C 	C 	0.82773 0.25812 0.13418 0.37100
C 	C 	0.79951 0.26608 0.13902 -0.16400
C 	C 	0.78198 0.24814 0.15004 0.14700
O 	O 	0.89000 0.71594 0.65040 -0.49800
O 	O 	0.92458 0.72893 0.62963 -0.39200
O 	O 	0.01156 0.65730 0.68870 -0.57600
O 	O 	0.83688 0.73722 0.64265 -0.43300
O 	O 	0.84235 0.77436 0.62263 -0.46800
O 	O 	0.71412 0.74486 0.67110 -0.42100
O 	O 	0.63961 0.70944 0.67907 -0.43500
C 	C 	0.91400 0.71457 0.64560 0.39100
C 	C 	0.92970 0.69456 0.66120 -0.16800
C 	C 	0.95720 0.69320 0.65910 0.13100
C 	C 	0.82773 0.75812 0.63418 0.37100
C 	C 	0.79951 0.76608 0.63902 -0.16400
C 	C 	0.78198 0.74814 0.65004 0.14700
O 	O 	0.89000 0.03406 0.09960 -0.49900
O 	O 	0.92458 0.02107 0.12037 -0.39300
O 	O 	0.01156 0.09270 0.06130 -0.57600
O 	O 	0.83688 0.01278 0.10735 -0.43400
O 	O 	0.84235 0.97564 0.12737 -0.46800
O 	O 	0.71412 0.00514 0.07890 -0.42100
O 	O 	0.63961 0.04056 0.07093 -0.43600
C 	C 	0.91400 0.03543 0.10440 0.39100
C 	C 	0.92970 0.05544 0.08880 -0.16800
C 	C 	0.95720 0.05680 0.09090 0.13100
C 	C 	0.82773 0.99188 0.11582 0.37200
C 	C 	0.79951 0.98392 0.11098 -0.16200
C 	C 	0.78198 0.00186 0.09996 0.14400
O 	O 	0.89000 0.53406 0.59960 -0.49800
O 	O 	0.92458 0.52107 0.62037 -0.39200
O 	O 	0.01156 0.59270 0.56130 -0.57600
O 	O 	0.83688 0.51278 0.60735 -0.43300
O 	O 	0.84235 0.47564 0.62737 -0.46800
O 	O 	0.71412 0.50514 0.57890 -0.42100
O 	O 	0.63961 0.54056 0.57093 -0.43500
C 	C 	0.91400 0.53543 0.60440 0.39100
C 	C 	0.92970 0.55544 0.58880 -0.16800
C 	C 	0.95720 0.55680 0.59090 0.13100
C 	C 	0.82773 0.49188 0.61582 0.37100
C 	C 	0.79951 0.48392 0.61098 -0.16400
C 	C 	0.78198 0.50186 0.59996 0.14700
O 	O 	0.39000 0.03406 0.59960 -0.49800
O 	O 	0.42458 0.02107 0.62037 -0.39300
O 	O 	0.51156 0.09270 0.56130 -0.57500
O 	O 	0.33688 0.01278 0.60735 -0.43400
O 	O 	0.34235 0.97564 0.62737 -0.46800
O 	O 	0.21412 0.00514 0.57890 -0.42000
O 	O 	0.13961 0.04056 0.57093 -0.43500
C 	C 	0.41400 0.03543 0.60440 0.39100
C 	C 	0.42970 0.05544 0.58880 -0.16800
C 	C 	0.45720 0.05680 0.59090 0.13000
C 	C 	0.32773 0.99188 0.61582 0.37200
C 	C 	0.29951 0.98392 0.61098 -0.16200
C 	C 	0.28198 0.00186 0.59996 0.14400
O 	O 	0.39000 0.53406 0.09960 -0.49800
O 	O 	0.42458 0.52107 0.12037 -0.39300
O 	O 	0.51156 0.59270 0.06130 -0.57500
O 	O 	0.33688 0.51278 0.10735 -0.43300
O 	O 	0.34235 0.47564 0.12737 -0.46800
O 	O 	0.21412 0.50514 0.07890 -0.42100
O 	O 	0.13961 0.54056 0.07093 -0.43500
C 	C 	0.41400 0.53543 0.10440 0.39100
C 	C 	0.42970 0.55544 0.08880 -0.16800
C 	C 	0.45720 0.55680 0.09090 0.13000
C 	C 	0.32773 0.49188 0.11582 0.37100
C 	C 	0.29951 0.48392 0.11098 -0.16400
C 	C 	0.28198 0.50186 0.09996 0.14700
O 	O 	0.86000 0.53406 0.15040 -0.49800
O 	O 	0.82542 0.52107 0.12963 -0.39300
O 	O 	0.73844 0.59270 0.18870 -0.57500
O 	O 	0.91312 0.51278 0.14265 -0.43300
O 	O 	0.90765 0.47564 0.12263 -0.46800
O 	O 	0.03588 0.50514 0.17110 -0.42000
O 	O 	0.11039 0.54056 0.17907 -0.43500
C 	C 	0.83600 0.53543 0.14560 0.39100
C 	C 	0.82030 0.55544 0.16120 -0.16800
C 	C 	0.79280 0.55680 0.15910 0.13000
C 	C 	0.92227 0.49188 0.13418 0.37000
C 	C 	0.95049 0.48392 0.13902 -0.16300
C 	C 	0.96802 0.50186 0.15004 0.14600
O 	O 	0.86000 0.03406 0.65040 -0.49800
O 	O 	0.82542 0.02107 0.62963 -0.39300
O 	O 	0.73844 0.09270 0.68870 -0.57500
O 	O 	0.91312 0.01278 0.64265 -0.43400
O 	O 	0.90765 0.97564 0.62263 -0.46800
O 	O 	0.03588 0.00514 0.67110 -0.42000
O 	O 	0.11039 0.04056 0.67907 -0.43500
C 	C 	0.83600 0.03543 0.64560 0.39100
C 	C 	0.82030 0.05544 0.66120 -0.16800
C 	C 	0.79280 0.05680 0.65910 0.13000
C 	C 	0.92227 0.99188 0.63418 0.37200
C 	C 	0.95049 0.98392 0.63902 -0.16100
C 	C 	0.96802 0.00186 0.65004 0.14300
O 	O 	0.36000 0.53406 0.65040 -0.49800
O 	O 	0.32542 0.52107 0.62963 -0.39300
O 	O 	0.23844 0.59270 0.68870 -0.57500
O 	O 	0.41312 0.51278 0.64265 -0.43300
O 	O 	0.40765 0.47564 0.62263 -0.46800
O 	O 	0.53588 0.50514 0.67110 -0.42100
O 	O 	0.61039 0.54056 0.67907 -0.43500
C 	C 	0.33600 0.53543 0.64560 0.39100
C 	C 	0.32030 0.55544 0.66120 -0.16800
C 	C 	0.29280 0.55680 0.65910 0.13000
C 	C 	0.42227 0.49188 0.63418 0.37100
C 	C 	0.45049 0.48392 0.63902 -0.16400
C 	C 	0.46802 0.50186 0.65004 0.14700
O 	O 	0.36000 0.03406 0.15040 -0.49800
O 	O 	0.32542 0.02107 0.12963 -0.39300
O 	O 	0.23844 0.09270 0.18870 -0.57500
O 	O 	0.41312 0.01278 0.14265 -0.43400
O 	O 	0.40765 0.97564 0.12263 -0.46800
O 	O 	0.53588 0.00514 0.17110 -0.42000
O 	O 	0.61039 0.04056 0.17907 -0.43500
C 	C 	0.33600 0.03543 0.14560 0.39100
C 	C 	0.32030 0.05544 0.16120 -0.16800
C 	C 	0.29280 0.05680 0.15910 0.13000
C 	C 	0.42227 0.99188 0.13418 0.37200
C 	C 	0.45049 0.98392 0.13902 -0.16200
C 	C 	0.46802 0.00186 0.15004 0.14400
O 	O 	0.21594 0.65040 0.39000 -0.49800
O 	O 	0.22893 0.62963 0.42458 -0.39300
O 	O 	0.15730 0.68870 0.51156 -0.57500
O 	O 	0.23722 0.64265 0.33688 -0.43300
O 	O 	0.27436 0.62263 0.34235 -0.46800
O 	O 	0.24486 0.67110 0.21412 -0.42100
O 	O 	0.20944 0.67907 0.13961 -0.43500
C 	C 	0.21457 0.64560 0.41400 0.39100
C 	C 	0.19456 0.66120 0.42970 -0.16800
C 	C 	0.19320 0.65910 0.45720 0.13000
C 	C 	0.25812 0.63418 0.32773 0.37100
C 	C 	0.26608 0.63902 0.29951 -0.16400
C 	C 	0.24814 0.65004 0.28198 0.14700
O 	O 	0.21594 0.15040 0.89000 -0.49800
O 	O 	0.22893 0.12963 0.92458 -0.39200
O 	O 	0.15730 0.18870 0.01156 -0.57600
O 	O 	0.23722 0.14265 0.83688 -0.43300
O 	O 	0.27436 0.12263 0.84235 -0.46800
O 	O 	0.24486 0.17110 0.71412 -0.42100
O 	O 	0.20944 0.17907 0.63961 -0.43500
C 	C 	0.21457 0.14560 0.91400 0.39100
C 	C 	0.19456 0.16120 0.92970 -0.16800
C 	C 	0.19320 0.15910 0.95720 0.13100
C 	C 	0.25812 0.13418 0.82773 0.37100
C 	C 	0.26608 0.13902 0.79951 -0.16400
C 	C 	0.24814 0.15004 0.78198 0.14700
O 	O 	0.71594 0.65040 0.89000 -0.49800
O 	O 	0.72893 0.62963 0.92458 -0.39200
O 	O 	0.65730 0.68870 0.01156 -0.57600
O 	O 	0.73722 0.64265 0.83688 -0.43300
O 	O 	0.77436 0.62263 0.84235 -0.46800
O 	O 	0.74486 0.67110 0.71412 -0.42100
O 	O 	0.70944 0.67907 0.63961 -0.43500
C 	C 	0.71457 0.64560 0.91400 0.39100
C 	C 	0.69456 0.66120 0.92970 -0.16800
C 	C 	0.69320 0.65910 0.95720 0.13100
C 	C 	0.75812 0.63418 0.82773 0.37100
C 	C 	0.76608 0.63902 0.79951 -0.16400
C 	C 	0.74814 0.65004 0.78198 0.14700
O 	O 	0.71594 0.15040 0.39000 -0.49800
O 	O 	0.72893 0.12963 0.42458 -0.39300
O 	O 	0.65730 0.18870 0.51156 -0.57500
O 	O 	0.73722 0.14265 0.33688 -0.43300
O 	O 	0.77436 0.12263 0.34235 -0.46800
O 	O 	0.74486 0.17110 0.21412 -0.42100
O 	O 	0.70944 0.17907 0.13961 -0.43500
C 	C 	0.71457 0.14560 0.41400 0.39100
C 	C 	0.69456 0.16120 0.42970 -0.16800
C 	C 	0.69320 0.15910 0.45720 0.13000
C 	C 	0.75812 0.13418 0.32773 0.37100
C 	C 	0.76608 0.13902 0.29951 -0.16400
C 	C 	0.74814 0.15004 0.28198 0.14700
O 	O 	0.71594 0.59960 0.36000 -0.49800
O 	O 	0.72893 0.62037 0.32542 -0.39300
O 	O 	0.65730 0.56130 0.23844 -0.57500
O 	O 	0.73722 0.60735 0.41312 -0.43300
O 	O 	0.77436 0.62737 0.40765 -0.46800
O 	O 	0.74486 0.57890 0.53588 -0.42100
O 	O 	0.70944 0.57093 0.61039 -0.43500
C 	C 	0.71457 0.60440 0.33600 0.39100
C 	C 	0.69456 0.58880 0.32030 -0.16800
C 	C 	0.69320 0.59090 0.29280 0.13000
C 	C 	0.75812 0.61582 0.42227 0.37100
C 	C 	0.76608 0.61098 0.45049 -0.16400
C 	C 	0.74814 0.59996 0.46802 0.14700
O 	O 	0.71594 0.09960 0.86000 -0.49800
O 	O 	0.72893 0.12037 0.82542 -0.39300
O 	O 	0.65730 0.06130 0.73844 -0.57500
O 	O 	0.73722 0.10735 0.91312 -0.43300
O 	O 	0.77436 0.12737 0.90765 -0.46800
O 	O 	0.74486 0.07890 0.03588 -0.42000
O 	O 	0.70944 0.07093 0.11039 -0.43500
C 	C 	0.71457 0.10440 0.83600 0.39100
C 	C 	0.69456 0.08880 0.82030 -0.16800
C 	C 	0.69320 0.09090 0.79280 0.13000
C 	C 	0.75812 0.11582 0.92227 0.37000
C 	C 	0.76608 0.11098 0.95049 -0.16300
C 	C 	0.74814 0.09996 0.96802 0.14600
O 	O 	0.21594 0.59960 0.86000 -0.49800
O 	O 	0.22893 0.62037 0.82542 -0.39300
O 	O 	0.15730 0.56130 0.73844 -0.57500
O 	O 	0.23722 0.60735 0.91312 -0.43300
O 	O 	0.27436 0.62737 0.90765 -0.46800
O 	O 	0.24486 0.57890 0.03588 -0.42000
O 	O 	0.20944 0.57093 0.11039 -0.43500
C 	C 	0.21457 0.60440 0.83600 0.39100
C 	C 	0.19456 0.58880 0.82030 -0.16800
C 	C 	0.19320 0.59090 0.79280 0.13000
C 	C 	0.25812 0.61582 0.92227 0.37000
C 	C 	0.26608 0.61098 0.95049 -0.16300
C 	C 	0.24814 0.59996 0.96802 0.14600
O 	O 	0.21594 0.09960 0.36000 -0.49800
O 	O 	0.22893 0.12037 0.32542 -0.39300
O 	O 	0.15730 0.06130 0.23844 -0.57500
O 	O 	0.23722 0.10735 0.41312 -0.43300
O 	O 	0.27436 0.12737 0.40765 -0.46800
O 	O 	0.24486 0.07890 0.53588 -0.42100
O 	O 	0.20944 0.07093 0.61039 -0.43500
C 	C 	0.21457 0.10440 0.33600 0.39100
C 	C 	0.19456 0.08880 0.32030 -0.16800
C 	C 	0.19320 0.09090 0.29280 0.13000
C 	C 	0.25812 0.11582 0.42227 0.37100
C 	C 	0.26608 0.11098 0.45049 -0.16400
C 	C 	0.24814 0.09996 0.46802 0.14700
O 	O 	0.53406 0.15040 0.86000 -0.49800
O 	O 	0.52107 0.12963 0.82542 -0.39300
O 	O 	0.59270 0.18870 0.73844 -0.57500
O 	O 	0.51278 0.14265 0.91312 -0.43300
O 	O 	0.47564 0.12263 0.90765 -0.46800
O 	O 	0.50514 0.17110 0.03588 -0.42000
O 	O 	0.54056 0.17907 0.11039 -0.43500
C 	C 	0.53543 0.14560 0.83600 0.39100
C 	C 	0.55544 0.16120 0.82030 -0.16800
C 	C 	0.55680 0.15910 0.79280 0.13000
C 	C 	0.49188 0.13418 0.92227 0.37000
C 	C 	0.48392 0.13902 0.95049 -0.16300
C 	C 	0.50186 0.15004 0.96802 0.14600
O 	O 	0.53406 0.65040 0.36000 -0.49800
O 	O 	0.52107 0.62963 0.32542 -0.39300
O 	O 	0.59270 0.68870 0.23844 -0.57500
O 	O 	0.51278 0.64265 0.41312 -0.43300
O 	O 	0.47564 0.62263 0.40765 -0.46800
O 	O 	0.50514 0.67110 0.53588 -0.42100
O 	O 	0.54056 0.67907 0.61039 -0.43500
C 	C 	0.53543 0.64560 0.33600 0.39100
C 	C 	0.55544 0.66120 0.32030 -0.16800
C 	C 	0.55680 0.65910 0.29280 0.13000
C 	C 	0.49188 0.63418 0.42227 0.37100
C 	C 	0.48392 0.63902 0.45049 -0.16400
C 	C 	0.50186 0.65004 0.46802 0.14700
O 	O 	0.03406 0.15040 0.36000 -0.49800
O 	O 	0.02107 0.12963 0.32542 -0.39300
O 	O 	0.09270 0.18870 0.23844 -0.57500
O 	O 	0.01278 0.14265 0.41312 -0.43400
O 	O 	0.97564 0.12263 0.40765 -0.46800
O 	O 	0.00514 0.17110 0.53588 -0.42000
O 	O 	0.04056 0.17907 0.61039 -0.43500
C 	C 	0.03543 0.14560 0.33600 0.39100
C 	C 	0.05544 0.16120 0.32030 -0.16800
C 	C 	0.05680 0.15910 0.29280 0.13000
C 	C 	0.99188 0.13418 0.42227 0.37200
C 	C 	0.98392 0.13902 0.45049 -0.16200
C 	C 	0.00186 0.15004 0.46802 0.14400
O 	O 	0.03406 0.65040 0.86000 -0.49800
O 	O 	0.02107 0.62963 0.82542 -0.39300
O 	O 	0.09270 0.68870 0.73844 -0.57500
O 	O 	0.01278 0.64265 0.91312 -0.43400
O 	O 	0.97564 0.62263 0.90765 -0.46800
O 	O 	0.00514 0.67110 0.03588 -0.42000
O 	O 	0.04056 0.67907 0.11039 -0.43500
C 	C 	0.03543 0.64560 0.83600 0.39100
C 	C 	0.05544 0.66120 0.82030 -0.16800
C 	C 	0.05680 0.65910 0.79280 0.13000
C 	C 	0.99188 0.63418 0.92227 0.37200
C 	C 	0.98392 0.63902 0.95049 -0.16100
C 	C 	0.00186 0.65004 0.96802 0.14300
O 	O 	0.03406 0.09960 0.89000 -0.49900
O 	O 	0.02107 0.12037 0.92458 -0.39300
O 	O 	0.09270 0.06130 0.01156 -0.57600
O 	O 	0.01278 0.10735 0.83688 -0.43400
O 	O 	0.97564 0.12737 0.84235 -0.46800
O 	O 	0.00514 0.07890 0.71412 -0.42100
O 	O 	0.04056 0.07093 0.63961 -0.43600
C 	C 	0.03543 0.10440 0.91400 0.39100
C 	C 	0.05544 0.08880 0.92970 -0.16800
C 	C 	0.05680 0.09090 0.95720 0.13100
C 	C 	0.99188 0.11582 0.82773 0.37200
C 	C 	0.98392 0.11098 0.79951 -0.16200
C 	C 	0.00186 0.09996 0.78198 0.14400
O 	O 	0.03406 0.59960 0.39000 -0.49800
O 	O 	0.02107 0.62037 0.42458 -0.39300
O 	O 	0.09270 0.56130 0.51156 -0.57500
O 	O 	0.01278 0.60735 0.33688 -0.43400
O 	O 	0.97564 0.62737 0.34235 -0.46800
O 	O 	0.00514 0.57890 0.21412 -0.42000
O 	O 	0.04056 0.57093 0.13961 -0.43500
C 	C 	0.03543 0.60440 0.41400 0.39100
C 	C 	0.05544 0.58880 0.42970 -0.16800
C 	C 	0.05680 0.59090 0.45720 0.13000
C 	C 	0.99188 0.61582 0.32773 0.37200
C 	C 	0.98392 0.61098 0.29951 -0.16200
C 	C 	0.00186 0.59996 0.28198 0.14400
O 	O 	0.53406 0.09960 0.39000 -0.49800
O 	O 	0.52107 0.12037 0.42458 -0.39300
O 	O 	0.59270 0.06130 0.51156 -0.57500
O 	O 	0.51278 0.10735 0.33688 -0.43300
O 	O 	0.47564 0.12737 0.34235 -0.46800
O 	O 	0.50514 0.07890 0.21412 -0.42100
O 	O 	0.54056 0.07093 0.13961 -0.43500
C 	C 	0.53543 0.10440 0.41400 0.39100
C 	C 	0.55544 0.08880 0.42970 -0.16800
C 	C 	0.55680 0.09090 0.45720 0.13000
C 	C 	0.49188 0.11582 0.32773 0.37100
C 	C 	0.48392 0.11098 0.29951 -0.16400
C 	C 	0.50186 0.09996 0.28198 0.14700
O 	O 	0.53406 0.59960 0.89000 -0.49800
O 	O 	0.52107 0.62037 0.92458 -0.39200
O 	O 	0.59270 0.56130 0.01156 -0.57600
O 	O 	0.51278 0.60735 0.83688 -0.43300
O 	O 	0.47564 0.62737 0.84235 -0.46800
O 	O 	0.50514 0.57890 0.71412 -0.42100
O 	O 	0.54056 0.57093 0.63961 -0.43500
C 	C 	0.53543 0.60440 0.91400 0.39100
C 	C 	0.55544 0.58880 0.92970 -0.16800
C 	C 	0.55680 0.59090 0.95720 0.13100
C 	C 	0.49188 0.61582 0.82773 0.37100
C 	C 	0.48392 0.61098 0.79951 -0.16400
C 	C 	0.50186 0.59996 0.78198 0.14700
In	In	0.87812 0.12188 -0.00000 2.00000
In	In	0.87812 0.62188 0.50000 2.00000
In	In	0.37812 0.12188 0.50000 2.00000
In	In	0.37812 0.62188 -0.00000 2.00000
In	In	0.87188 0.12812 0.50000 2.00000
In	In	0.87188 0.62812 -0.00000 2.00000
In	In	0.37188 0.12812 -0.00000 2.00000
In	In	0.37188 0.62812 0.50000 2.00000
In	In	0.37188 0.62188 0.75000 2.00000
In	In	0.37188 0.12188 0.25000 2.00000
In	In	0.87188 0.62188 0.25000 2.00000
In	In	0.87188 0.12188 0.75000 2.00000
In	In	0.37812 0.62812 0.25000 2.00000
In	In	0.37812 0.12812 0.75000 2.00000
In	In	0.87812 0.62812 0.75000 2.00000
In	In	0.87812 0.12812 0.25000 2.00000
In	In	0.00000 0.87812 0.12188 2.00000
In	In	-0.00000 0.37812 0.62188 2.00000
In	In	0.50000 0.87812 0.62188 2.00000
In	In	0.50000 0.37812 0.12188 2.00000
In	In	0.50000 0.87188 0.12812 2.00000
In	In	0.50000 0.37188 0.62812 2.00000
In	In	-0.00000 0.87188 0.62812 2.00000
In	In	0.00000 0.37188 0.12812 2.00000
In	In	0.75000 0.37188 0.62188 2.00000
In	In	0.75000 0.87188 0.12188 2.00000
In	In	0.25000 0.37188 0.12188 2.00000
In	In	0.25000 0.87188 0.62188 2.00000
In	In	0.25000 0.37812 0.62812 2.00000
In	In	0.25000 0.87812 0.12812 2.00000
In	In	0.75000 0.37812 0.12812 2.00000
In	In	0.75000 0.87812 0.62812 2.00000
In	In	0.12188 -0.00000 0.87812 2.00000
In	In	0.12188 0.50000 0.37812 2.00000
In	In	0.62188 0.00000 0.37812 2.00000
In	In	0.62188 0.50000 0.87812 2.00000
In	In	0.12812 0.50000 0.87188 2.00000
In	In	0.12812 0.00000 0.37188 2.00000
In	In	0.62812 0.50000 0.37188 2.00000
In	In	0.62812 0.00000 0.87188 2.00000
In	In	0.62188 0.75000 0.37188 2.00000
In	In	0.62188 0.25000 0.87188 2.00000
In	In	0.12188 0.75000 0.87188 2.00000
In	In	0.12188 0.25000 0.37188 2.00000
In	In	0.62812 0.25000 0.37812 2.00000
In	In	0.62812 0.75000 0.87812 2.00000
In	In	0.12812 0.25000 0.87812 2.00000
In	In	0.12812 0.75000 0.37812 2.00000
In	In	0.12188 0.87812 -0.00000 2.00000
In	In	0.12188 0.37812 0.50000 2.00000
In	In	0.62188 0.87812 0.50000 2.00000
In	In	0.62188 0.37812 -0.00000 2.00000
In	In	0.12812 0.87188 0.50000 2.00000
In	In	0.12812 0.37188 -0.00000 2.00000
In	In	0.62812 0.87188 -0.00000 2.00000
In	In	0.62812 0.37188 0.50000 2.00000
In	In	0.62812 0.37812 0.25000 2.00000
In	In	0.62812 0.87812 0.75000 2.00000
In	In	0.12812 0.37812 0.75000 2.00000
In	In	0.12812 0.87812 0.25000 2.00000
In	In	0.62188 0.37188 0.75000 2.00000
In	In	0.62188 0.87188 0.25000 2.00000
In	In	0.12188 0.37188 0.25000 2.00000
In	In	0.12188 0.87188 0.75000 2.00000
In	In	0.00000 0.12188 0.87812 2.00000
In	In	0.00000 0.62188 0.37812 2.00000
In	In	0.50000 0.12188 0.37812 2.00000
In	In	0.50000 0.62188 0.87812 2.00000
In	In	0.50000 0.12812 0.87188 2.00000
In	In	0.50000 0.62812 0.37188 2.00000
In	In	0.00000 0.12812 0.37188 2.00000
In	In	-0.00000 0.62812 0.87188 2.00000
In	In	0.25000 0.62812 0.37812 2.00000
In	In	0.25000 0.12812 0.87812 2.00000
In	In	0.75000 0.62812 0.87812 2.00000
In	In	0.75000 0.12812 0.37812 2.00000
In	In	0.75000 0.62188 0.37188 2.00000
In	In	0.75000 0.12188 0.87188 2.00000
In	In	0.25000 0.62188 0.87188 2.00000
In	In	0.25000 0.12188 0.37188 2.00000
In	In	0.87812 -0.00000 0.12188 2.00000
In	In	0.87812 0.50000 0.62188 2.00000
In	In	0.37812 0.00000 0.62188 2.00000
In	In	0.37812 0.50000 0.12188 2.00000
In	In	0.87188 0.50000 0.12812 2.00000
In	In	0.87188 -0.00000 0.62812 2.00000
In	In	0.37188 0.50000 0.62812 2.00000
In	In	0.37188 0.00000 0.12812 2.00000
In	In	0.37812 0.25000 0.62812 2.00000
In	In	0.37812 0.75000 0.12812 2.00000
In	In	0.87812 0.25000 0.12812 2.00000
In	In	0.87812 0.75000 0.62812 2.00000
In	In	0.37188 0.75000 0.62188 2.00000
In	In	0.37188 0.25000 0.12188 2.00000
In	In	0.87188 0.75000 0.12188 2.00000
In	In	0.87188 0.25000 0.62188 2.00000
Ni	Ni	0.67677 0.07323 0.02346 1.11300
Ni	Ni	0.67677 0.57323 0.52346 1.11300
Ni	Ni	0.07323 0.17677 0.52346 1.11300
Ni	Ni	0.57323 0.17677 0.02346 1.11300
Ni	Ni	0.57323 0.67677 0.52346 1.11300
Ni	Ni	0.57323 0.57323 0.72654 1.11300
Ni	Ni	0.57323 0.07323 0.22654 1.11300
Ni	Ni	0.07323 0.57323 0.22654 1.11300
Ni	Ni	0.07323 0.07323 0.72654 1.11300
Ni	Ni	0.17677 0.67677 0.22654 1.11300
Ni	Ni	0.17677 0.17677 0.72654 1.11300
Ni	Ni	0.02346 0.67677 0.07323 1.11300
Ni	Ni	0.02346 0.17677 0.57323 1.11300
Ni	Ni	0.52346 0.67677 0.57323 1.11300
Ni	Ni	0.52346 0.07323 0.17677 1.11300
Ni	Ni	0.52346 0.57323 0.67677 1.11300
Ni	Ni	0.72654 0.57323 0.57323 1.11300
Ni	Ni	0.72654 0.07323 0.07323 1.11300
Ni	Ni	0.22654 0.57323 0.07323 1.11300
Ni	Ni	0.22654 0.07323 0.57323 1.11300
Ni	Ni	0.22654 0.17677 0.67677 1.11300
Ni	Ni	0.72654 0.17677 0.17677 1.11300
Ni	Ni	0.07323 0.02346 0.67677 1.11300
Ni	Ni	0.57323 0.02346 0.17677 1.11300
Ni	Ni	0.57323 0.52346 0.67677 1.11300
Ni	Ni	0.17677 0.52346 0.07323 1.11300
Ni	Ni	0.17677 0.02346 0.57323 1.11300
Ni	Ni	0.67677 0.52346 0.57323 1.11300
Ni	Ni	0.57323 0.72654 0.57323 1.11300
Ni	Ni	0.57323 0.22654 0.07323 1.11300
Ni	Ni	0.07323 0.72654 0.07323 1.11300
Ni	Ni	0.07323 0.22654 0.57323 1.11300
Ni	Ni	0.67677 0.22654 0.17677 1.11300
Ni	Ni	0.67677 0.72654 0.67677 1.11300
Ni	Ni	0.17677 0.72654 0.17677 1.11300
Ni	Ni	0.82323 0.92677 0.47654 1.11300
Ni	Ni	0.82323 0.42677 0.97654 1.11300
Ni	Ni	0.92677 0.32323 0.97654 1.11300
Ni	Ni	0.42677 0.32323 0.47654 1.11300
Ni	Ni	0.32323 0.82323 0.77345 1.11300
Ni	Ni	0.32323 0.32323 0.27346 1.11300
Ni	Ni	0.42677 0.42677 0.27346 1.11300
Ni	Ni	0.42677 0.92677 0.77345 1.11300
Ni	Ni	0.92677 0.42677 0.77345 1.11300
Ni	Ni	0.92677 0.92677 0.27346 1.11300
Ni	Ni	0.42677 0.27346 0.42677 1.11300
Ni	Ni	0.42677 0.77345 0.92677 1.11300
Ni	Ni	0.92677 0.27346 0.92677 1.11300
Ni	Ni	0.92677 0.77345 0.42677 1.11300
Ni	Ni	0.82323 0.77345 0.32323 1.11300
Ni	Ni	0.82323 0.27346 0.82323 1.11300
Ni	Ni	0.32323 0.27346 0.32323 1.11300
Ni	Ni	0.32323 0.97654 0.92677 1.11300
Ni	Ni	0.32323 0.47654 0.42677 1.11300
Ni	Ni	0.92677 0.47654 0.82323 1.11300
Ni	Ni	0.42677 0.47654 0.32323 1.11300
Ni	Ni	0.77345 0.32323 0.82323 1.11300
Ni	Ni	0.27346 0.32323 0.32323 1.11300
Ni	Ni	0.27346 0.42677 0.42677 1.11300
Ni	Ni	0.27346 0.92677 0.92677 1.11300
Ni	Ni	0.77345 0.42677 0.92677 1.11300
Ni	Ni	0.77345 0.92677 0.42677 1.11300
Ni	Ni	0.47654 0.82323 0.92677 1.11300
Ni	Ni	0.47654 0.32323 0.42677 1.11300
Ni	Ni	0.97654 0.92677 0.32323 1.11300
Ni	Ni	0.97654 0.42677 0.82323 1.11300
Ni	Ni	0.32323 0.92677 0.97654 1.11300
Ni	Ni	0.32323 0.42677 0.47654 1.11300
Ni	Ni	0.92677 0.82323 0.47654 1.11300
Ni	Ni	0.42677 0.82323 0.97654 1.11300
Ni	Ni	0.82323 0.32323 0.77345 1.11300
Ni	Ni	0.82323 0.82323 0.27346 1.11300
Ni	Ni	0.97654 0.32323 0.92677 1.11300
Ni	Ni	0.97654 0.82323 0.42677 1.11300
Ni	Ni	0.47654 0.92677 0.82323 1.11300
Ni	Ni	0.47654 0.42677 0.32323 1.11300
Ni	Ni	0.77345 0.82323 0.32323 1.11300
Ni	Ni	0.27346 0.82323 0.82323 1.11300
Ni	Ni	0.92677 0.97654 0.32323 1.11300
Ni	Ni	0.42677 0.97654 0.82323 1.11300
Ni	Ni	0.82323 0.47654 0.92677 1.11300
Ni	Ni	0.82323 0.97654 0.42677 1.11300
Ni	Ni	0.32323 0.77345 0.82323 1.11300
Ni	Ni	0.17677 0.07323 0.52346 1.11300
Ni	Ni	0.17677 0.57323 0.02346 1.11300
Ni	Ni	0.07323 0.67677 0.02346 1.11300
Ni	Ni	0.67677 0.17677 0.22654 1.11300
Ni	Ni	0.67677 0.67677 0.72654 1.11300
Ni	Ni	0.17677 0.22654 0.67677 1.11300
Ni	Ni	0.67677 0.02346 0.07323 1.11300
Ni	Ni	0.07323 0.52346 0.17677 1.11300
Ni	Ni	0.22654 0.67677 0.17677 1.11300
Ni	Ni	0.72654 0.67677 0.67677 1.11300
Ni	Ni	0.52346 0.17677 0.07323 1.11300
Ni	Ni	0.02346 0.07323 0.67677 1.11300
Ni	Ni	0.02346 0.57323 0.17677 1.11300
Ni	Ni	0.04095 0.04095 0.09350 0.71000
O 	O 	0.06830 0.06830 0.10610 -0.80400
Ni	Ni	0.05488 0.05488 0.09750 1.00700
Ni	Ni	0.04095 0.54095 0.59350 0.71000
O 	O 	0.06830 0.56830 0.60610 -0.80400
Ni	Ni	0.05488 0.55488 0.59750 1.00700
Ni	Ni	0.54095 0.04095 0.59350 0.71000
O 	O 	0.56830 0.06830 0.60610 -0.80400
Ni	Ni	0.55488 0.05488 0.59750 1.00700
Ni	Ni	0.54095 0.54095 0.09350 0.71000
O 	O 	0.56830 0.56830 0.10610 -0.80400
Ni	Ni	0.55488 0.55488 0.09750 1.00700
Ni	Ni	0.70905 0.20905 0.59350 0.71000
O 	O 	0.68170 0.18170 0.60610 -0.80400
Ni	Ni	0.69512 0.19512 0.59750 1.00700
Ni	Ni	0.70905 0.70905 0.09350 0.71000
O 	O 	0.68170 0.68170 0.10610 -0.80400
Ni	Ni	0.69512 0.69512 0.09750 1.00700
Ni	Ni	0.20905 0.54095 0.65650 0.71000
O 	O 	0.18170 0.56830 0.64390 -0.80400
Ni	Ni	0.19512 0.55488 0.65250 1.00700
Ni	Ni	0.20905 0.04095 0.15650 0.71000
O 	O 	0.18170 0.06830 0.14390 -0.80400
Ni	Ni	0.19512 0.05488 0.15250 1.00700
Ni	Ni	0.54095 0.70905 0.15650 0.71000
O 	O 	0.56830 0.68170 0.14390 -0.80400
Ni	Ni	0.55488 0.69512 0.15250 1.00700
Ni	Ni	0.04095 0.70905 0.65650 0.71000
O 	O 	0.06830 0.68170 0.64390 -0.80400
Ni	Ni	0.05488 0.69512 0.65250 1.00700
Ni	Ni	0.09350 0.04095 0.04095 0.71000
O 	O 	0.10610 0.06830 0.06830 -0.80400
Ni	Ni	0.09750 0.05488 0.05488 1.00700
Ni	Ni	0.09350 0.54095 0.54095 0.71000
O 	O 	0.10610 0.56830 0.56830 -0.80400
Ni	Ni	0.09750 0.55488 0.55488 1.00700
Ni	Ni	0.59350 0.04095 0.54095 0.71000
O 	O 	0.60610 0.06830 0.56830 -0.80400
Ni	Ni	0.59750 0.05488 0.55488 1.00700
Ni	Ni	0.59350 0.54095 0.04095 0.71000
O 	O 	0.60610 0.56830 0.06830 -0.80400
Ni	Ni	0.59750 0.55488 0.05488 1.00700
Ni	Ni	0.59350 0.70905 0.20905 0.71000
O 	O 	0.60610 0.68170 0.18170 -0.80400
Ni	Ni	0.59750 0.69512 0.19512 1.00700
Ni	Ni	0.09350 0.70905 0.70905 0.71000
O 	O 	0.10610 0.68170 0.68170 -0.80400
Ni	Ni	0.09750 0.69512 0.69512 1.00700
Ni	Ni	0.65650 0.20905 0.54095 0.71000
O 	O 	0.64390 0.18170 0.56830 -0.80400
Ni	Ni	0.65250 0.19512 0.55488 1.00700
Ni	Ni	0.65650 0.70905 0.04095 0.71000
O 	O 	0.64390 0.68170 0.06830 -0.80400
Ni	Ni	0.65250 0.69512 0.05488 1.00700
Ni	Ni	0.15650 0.54095 0.70905 0.71000
O 	O 	0.14390 0.56830 0.68170 -0.80400
Ni	Ni	0.15250 0.55488 0.69512 1.00700
Ni	Ni	0.15650 0.04095 0.20905 0.71000
O 	O 	0.14390 0.06830 0.18170 -0.80400
Ni	Ni	0.15250 0.05488 0.19512 1.00700
Ni	Ni	0.04095 0.09350 0.04095 0.71000
O 	O 	0.06830 0.10610 0.06830 -0.80400
Ni	Ni	0.05488 0.09750 0.05488 1.00700
Ni	Ni	0.04095 0.59350 0.54095 0.71000
O 	O 	0.06830 0.60610 0.56830 -0.80400
Ni	Ni	0.05488 0.59750 0.55488 1.00700
Ni	Ni	0.54095 0.09350 0.54095 0.71000
O 	O 	0.56830 0.10610 0.56830 -0.80400
Ni	Ni	0.55488 0.09750 0.55488 1.00700
Ni	Ni	0.54095 0.59350 0.04095 0.71000
O 	O 	0.56830 0.60610 0.06830 -0.80400
Ni	Ni	0.55488 0.59750 0.05488 1.00700
Ni	Ni	0.20905 0.59350 0.70905 0.71000
O 	O 	0.18170 0.60610 0.68170 -0.80400
Ni	Ni	0.19512 0.59750 0.69512 1.00700
Ni	Ni	0.20905 0.09350 0.20905 0.71000
O 	O 	0.18170 0.10610 0.18170 -0.80400
Ni	Ni	0.19512 0.09750 0.19512 1.00700
Ni	Ni	0.54095 0.65650 0.20905 0.71000
O 	O 	0.56830 0.64390 0.18170 -0.80400
Ni	Ni	0.55488 0.65250 0.19512 1.00700
Ni	Ni	0.04095 0.65650 0.70905 0.71000
O 	O 	0.06830 0.64390 0.68170 -0.80400
Ni	Ni	0.05488 0.65250 0.69512 1.00700
Ni	Ni	0.70905 0.15650 0.54095 0.71000
O 	O 	0.68170 0.14390 0.56830 -0.80400
Ni	Ni	0.69512 0.15250 0.55488 1.00700
Ni	Ni	0.70905 0.65650 0.04095 0.71000
O 	O 	0.68170 0.64390 0.06830 -0.80400
Ni	Ni	0.69512 0.65250 0.05488 1.00700
Ni	Ni	0.79095 0.29095 0.40650 0.71000
O 	O 	0.81830 0.31830 0.39390 -0.80400
Ni	Ni	0.80488 0.30488 0.40250 1.00700
Ni	Ni	0.79095 0.79095 0.90650 0.71000
O 	O 	0.81830 0.81830 0.89390 -0.80400
Ni	Ni	0.80488 0.80488 0.90250 1.00700
Ni	Ni	0.95905 0.95905 0.90650 0.71000
O 	O 	0.93170 0.93170 0.89390 -0.80400
Ni	Ni	0.94512 0.94512 0.90250 1.00700
Ni	Ni	0.95905 0.45905 0.40650 0.71000
O 	O 	0.93170 0.43170 0.39390 -0.80400
Ni	Ni	0.94512 0.44512 0.40250 1.00700
Ni	Ni	0.45905 0.95905 0.40650 0.71000
O 	O 	0.43170 0.93170 0.39390 -0.80400
Ni	Ni	0.44512 0.94512 0.40250 1.00700
Ni	Ni	0.45905 0.45905 0.90650 0.71000
O 	O 	0.43170 0.43170 0.89390 -0.80400
Ni	Ni	0.44512 0.44512 0.90250 1.00700
Ni	Ni	0.29095 0.45905 0.84350 0.71000
O 	O 	0.31830 0.43170 0.85610 -0.80400
Ni	Ni	0.30488 0.44512 0.84750 1.00700
Ni	Ni	0.29095 0.95905 0.34350 0.71000
O 	O 	0.31830 0.93170 0.35610 -0.80400
Ni	Ni	0.30488 0.94512 0.34750 1.00700
Ni	Ni	0.45905 0.79095 0.34350 0.71000
O 	O 	0.43170 0.81830 0.35610 -0.80400
Ni	Ni	0.44512 0.80488 0.34750 1.00700
Ni	Ni	0.95905 0.79095 0.84350 0.71000
O 	O 	0.93170 0.81830 0.85610 -0.80400
Ni	Ni	0.94512 0.80488 0.84750 1.00700
Ni	Ni	0.79095 0.34350 0.45905 0.71000
O 	O 	0.81830 0.35610 0.43170 -0.80400
Ni	Ni	0.80488 0.34750 0.44512 1.00700
Ni	Ni	0.79095 0.84350 0.95905 0.71000
O 	O 	0.81830 0.85610 0.93170 -0.80400
Ni	Ni	0.80488 0.84750 0.94512 1.00700
Ni	Ni	0.45905 0.84350 0.29095 0.71000
O 	O 	0.43170 0.85610 0.31830 -0.80400
Ni	Ni	0.44512 0.84750 0.30488 1.00700
Ni	Ni	0.95905 0.84350 0.79095 0.71000
O 	O 	0.93170 0.85610 0.81830 -0.80400
Ni	Ni	0.94512 0.84750 0.80488 1.00700
Ni	Ni	0.95905 0.90650 0.95905 0.71000
O 	O 	0.93170 0.89390 0.93170 -0.80400
Ni	Ni	0.94512 0.90250 0.94512 1.00700
Ni	Ni	0.95905 0.40650 0.45905 0.71000
O 	O 	0.93170 0.39390 0.43170 -0.80400
Ni	Ni	0.94512 0.40250 0.44512 1.00700
Ni	Ni	0.45905 0.90650 0.45905 0.71000
O 	O 	0.43170 0.89390 0.43170 -0.80400
Ni	Ni	0.44512 0.90250 0.44512 1.00700
Ni	Ni	0.45905 0.40650 0.95905 0.71000
O 	O 	0.43170 0.39390 0.93170 -0.80400
Ni	Ni	0.44512 0.40250 0.94512 1.00700
Ni	Ni	0.29095 0.40650 0.79095 0.71000
O 	O 	0.31830 0.39390 0.81830 -0.80400
Ni	Ni	0.30488 0.40250 0.80488 1.00700
Ni	Ni	0.29095 0.90650 0.29095 0.71000
O 	O 	0.31830 0.89390 0.31830 -0.80400
Ni	Ni	0.30488 0.90250 0.30488 1.00700
Ni	Ni	0.84350 0.29095 0.45905 0.71000
O 	O 	0.85610 0.31830 0.43170 -0.80400
Ni	Ni	0.84750 0.30488 0.44512 1.00700
Ni	Ni	0.84350 0.79095 0.95905 0.71000
O 	O 	0.85610 0.81830 0.93170 -0.80400
Ni	Ni	0.84750 0.80488 0.94512 1.00700
Ni	Ni	0.34350 0.45905 0.79095 0.71000
O 	O 	0.35610 0.43170 0.81830 -0.80400
Ni	Ni	0.34750 0.44512 0.80488 1.00700
Ni	Ni	0.34350 0.95905 0.29095 0.71000
O 	O 	0.35610 0.93170 0.31830 -0.80400
Ni	Ni	0.34750 0.94512 0.30488 1.00700
Ni	Ni	0.40650 0.79095 0.29095 0.71000
O 	O 	0.39390 0.81830 0.31830 -0.80400
Ni	Ni	0.40250 0.80488 0.30488 1.00700
Ni	Ni	0.90650 0.79095 0.79095 0.71000
O 	O 	0.89390 0.81830 0.81830 -0.80400
Ni	Ni	0.90250 0.80488 0.80488 1.00700
Ni	Ni	0.90650 0.95905 0.95905 0.71000
O 	O 	0.89390 0.93170 0.93170 -0.80400
Ni	Ni	0.90250 0.94512 0.94512 1.00700
Ni	Ni	0.90650 0.45905 0.45905 0.71000
O 	O 	0.89390 0.43170 0.43170 -0.80400
Ni	Ni	0.90250 0.44512 0.44512 1.00700
Ni	Ni	0.40650 0.95905 0.45905 0.71000
O 	O 	0.39390 0.93170 0.43170 -0.80400
Ni	Ni	0.40250 0.94512 0.44512 1.00700
Ni	Ni	0.40650 0.45905 0.95905 0.71000
O 	O 	0.39390 0.43170 0.93170 -0.80400
Ni	Ni	0.40250 0.44512 0.94512 1.00700
Ni	Ni	0.29095 0.79095 0.40650 0.71000
O 	O 	0.31830 0.81830 0.39390 -0.80400
Ni	Ni	0.30488 0.80488 0.40250 1.00700
Ni	Ni	0.29095 0.29095 0.90650 0.71000
O 	O 	0.31830 0.31830 0.89390 -0.80400
Ni	Ni	0.30488 0.30488 0.90250 1.00700
Ni	Ni	0.79095 0.45905 0.34350 0.71000
O 	O 	0.81830 0.43170 0.35610 -0.80400
Ni	Ni	0.80488 0.44512 0.34750 1.00700
Ni	Ni	0.79095 0.95905 0.84350 0.71000
O 	O 	0.81830 0.93170 0.85610 -0.80400
Ni	Ni	0.80488 0.94512 0.84750 1.00700
Ni	Ni	0.45905 0.29095 0.84350 0.71000
O 	O 	0.43170 0.31830 0.85610 -0.80400
Ni	Ni	0.44512 0.30488 0.84750 1.00700
Ni	Ni	0.95905 0.29095 0.34350 0.71000
O 	O 	0.93170 0.31830 0.35610 -0.80400
Ni	Ni	0.94512 0.30488 0.34750 1.00700
Ni	Ni	0.40650 0.29095 0.79095 0.71000
O 	O 	0.39390 0.31830 0.81830 -0.80400
Ni	Ni	0.40250 0.30488 0.80488 1.00700
Ni	Ni	0.90650 0.29095 0.29095 0.71000
O 	O 	0.89390 0.31830 0.31830 -0.80400
Ni	Ni	0.90250 0.30488 0.30488 1.00700
Ni	Ni	0.34350 0.79095 0.45905 0.71000
O 	O 	0.35610 0.81830 0.43170 -0.80400
Ni	Ni	0.34750 0.80488 0.44512 1.00700
Ni	Ni	0.34350 0.29095 0.95905 0.71000
O 	O 	0.35610 0.31830 0.93170 -0.80400
Ni	Ni	0.34750 0.30488 0.94512 1.00700
Ni	Ni	0.84350 0.45905 0.29095 0.71000
O 	O 	0.85610 0.43170 0.31830 -0.80400
Ni	Ni	0.84750 0.44512 0.30488 1.00700
Ni	Ni	0.84350 0.95905 0.79095 0.71000
O 	O 	0.85610 0.93170 0.81830 -0.80400
Ni	Ni	0.84750 0.94512 0.80488 1.00700
Ni	Ni	0.79095 0.40650 0.29095 0.71000
O 	O 	0.81830 0.39390 0.31830 -0.80400
Ni	Ni	0.80488 0.40250 0.30488 1.00700
Ni	Ni	0.79095 0.90650 0.79095 0.71000
O 	O 	0.81830 0.89390 0.81830 -0.80400
Ni	Ni	0.80488 0.90250 0.80488 1.00700
Ni	Ni	0.45905 0.34350 0.79095 0.71000
O 	O 	0.43170 0.35610 0.81830 -0.80400
Ni	Ni	0.44512 0.34750 0.80488 1.00700
Ni	Ni	0.95905 0.34350 0.29095 0.71000
O 	O 	0.93170 0.35610 0.31830 -0.80400
Ni	Ni	0.94512 0.34750 0.30488 1.00700
Ni	Ni	0.29095 0.84350 0.45905 0.71000
O 	O 	0.31830 0.85610 0.43170 -0.80400
Ni	Ni	0.30488 0.84750 0.44512 1.00700
Ni	Ni	0.29095 0.34350 0.95905 0.71000
O 	O 	0.31830 0.35610 0.93170 -0.80400
Ni	Ni	0.30488 0.34750 0.94512 1.00700
Ni	Ni	0.20905 0.70905 0.59350 0.71000
O 	O 	0.18170 0.68170 0.60610 -0.80400
Ni	Ni	0.19512 0.69512 0.59750 1.00700
Ni	Ni	0.20905 0.20905 0.09350 0.71000
O 	O 	0.18170 0.18170 0.10610 -0.80400
Ni	Ni	0.19512 0.19512 0.09750 1.00700
Ni	Ni	0.70905 0.54095 0.15650 0.71000
O 	O 	0.68170 0.56830 0.14390 -0.80400
Ni	Ni	0.69512 0.55488 0.15250 1.00700
Ni	Ni	0.70905 0.04095 0.65650 0.71000
O 	O 	0.68170 0.06830 0.64390 -0.80400
Ni	Ni	0.69512 0.05488 0.65250 1.00700
Ni	Ni	0.54095 0.20905 0.65650 0.71000
O 	O 	0.56830 0.18170 0.64390 -0.80400
Ni	Ni	0.55488 0.19512 0.65250 1.00700
Ni	Ni	0.04095 0.20905 0.15650 0.71000
O 	O 	0.06830 0.18170 0.14390 -0.80400
Ni	Ni	0.05488 0.19512 0.15250 1.00700
Ni	Ni	0.20905 0.65650 0.54095 0.71000
O 	O 	0.18170 0.64390 0.56830 -0.80400
Ni	Ni	0.19512 0.65250 0.55488 1.00700
Ni	Ni	0.20905 0.15650 0.04095 0.71000
O 	O 	0.18170 0.14390 0.06830 -0.80400
Ni	Ni	0.19512 0.15250 0.05488 1.00700
Ni	Ni	0.54095 0.15650 0.70905 0.71000
O 	O 	0.56830 0.14390 0.68170 -0.80400
Ni	Ni	0.55488 0.15250 0.69512 1.00700
Ni	Ni	0.04095 0.15650 0.20905 0.71000
O 	O 	0.06830 0.14390 0.18170 -0.80400
Ni	Ni	0.05488 0.15250 0.19512 1.00700
Ni	Ni	0.70905 0.59350 0.20905 0.71000
O 	O 	0.68170 0.60610 0.18170 -0.80400
Ni	Ni	0.69512 0.59750 0.19512 1.00700
Ni	Ni	0.70905 0.09350 0.70905 0.71000
O 	O 	0.68170 0.10610 0.68170 -0.80400
Ni	Ni	0.69512 0.09750 0.69512 1.00700
Ni	Ni	0.15650 0.70905 0.54095 0.71000
O 	O 	0.14390 0.68170 0.56830 -0.80400
Ni	Ni	0.15250 0.69512 0.55488 1.00700
Ni	Ni	0.15650 0.20905 0.04095 0.71000
O 	O 	0.14390 0.18170 0.06830 -0.80400
Ni	Ni	0.15250 0.19512 0.05488 1.00700
Ni	Ni	0.65650 0.54095 0.20905 0.71000
O 	O 	0.64390 0.56830 0.18170 -0.80400
Ni	Ni	0.65250 0.55488 0.19512 1.00700
Ni	Ni	0.65650 0.04095 0.70905 0.71000
O 	O 	0.64390 0.06830 0.68170 -0.80400
Ni	Ni	0.65250 0.05488 0.69512 1.00700
Ni	Ni	0.59350 0.20905 0.70905 0.71000
O 	O 	0.60610 0.18170 0.68170 -0.80400
Ni	Ni	0.59750 0.19512 0.69512 1.00700
Ni	Ni	0.09350 0.20905 0.20905 0.71000
O 	O 	0.10610 0.18170 0.18170 -0.80400
Ni	Ni	0.09750 0.19512 0.19512 1.00700
O 	O 	0.69673 0.05327 0.05327 -0.52100
O 	O 	0.05327 0.19673 0.55327 -0.52100
O 	O 	0.55327 0.55327 0.69673 -0.52100
O 	O 	0.19673 0.69673 0.19673 -0.52100
O 	O 	0.05327 0.69673 0.05327 -0.52100
O 	O 	0.55327 0.05327 0.19673 -0.52100
O 	O 	0.69673 0.55327 0.55327 -0.52100
O 	O 	0.19673 0.19673 0.69673 -0.52100
O 	O 	0.05327 0.05327 0.69673 -0.52100
O 	O 	0.19673 0.55327 0.05327 -0.52100
O 	O 	0.55327 0.69673 0.55327 -0.52100
O 	O 	0.69673 0.19673 0.19673 -0.52100
O 	O 	0.69673 0.69673 0.69673 -0.52100
O 	O 	0.80327 0.94673 0.44673 -0.52100
O 	O 	0.94673 0.30327 0.94673 -0.52100
O 	O 	0.30327 0.80327 0.80327 -0.52000
O 	O 	0.30327 0.30327 0.30327 -0.52100
O 	O 	0.44673 0.44673 0.30327 -0.52100
O 	O 	0.44673 0.30327 0.44673 -0.52100
O 	O 	0.80327 0.80327 0.30327 -0.52000
O 	O 	0.30327 0.94673 0.94673 -0.52100
O 	O 	0.94673 0.44673 0.80327 -0.52100
O 	O 	0.80327 0.30327 0.80327 -0.52000
O 	O 	0.30327 0.44673 0.44673 -0.52100
O 	O 	0.44673 0.80327 0.94673 -0.52100
O 	O 	0.94673 0.94673 0.30327 -0.52100
O 	O 	0.94673 0.80327 0.44673 -0.52100
O 	O 	0.44673 0.94673 0.80327 -0.52100
O 	O 	0.80327 0.44673 0.94673 -0.52100
O 	O 	0.19673 0.05327 0.55327 -0.52100
O 	O 	0.05327 0.55327 0.19673 -0.52100
O 	O 	0.55327 0.19673 0.05327 -0.52100
C 	C 	0.91540 0.07042 0.07042 0.15000
C 	C 	0.97070 0.07500 0.07500 -0.21300
C 	C 	0.99900 0.07570 0.07570 0.42200
C 	C 	0.62937 0.06023 0.06023 0.45800
C 	C 	0.60526 0.07101 0.07101 -0.22400
C 	C 	0.91540 0.57042 0.57042 0.15000
C 	C 	0.97070 0.57500 0.57500 -0.21300
C 	C 	0.99900 0.57570 0.57570 0.42200
C 	C 	0.62937 0.56023 0.56023 0.45800
C 	C 	0.60526 0.57101 0.57101 -0.22400
C 	C 	0.41540 0.07042 0.57042 0.15000
C 	C 	0.47070 0.07500 0.57500 -0.21200
C 	C 	0.49900 0.07570 0.57570 0.41900
C 	C 	0.12937 0.06023 0.56023 0.45800
C 	C 	0.10526 0.07101 0.57101 -0.22400
C 	C 	0.41540 0.57042 0.07042 0.15000
C 	C 	0.47070 0.57500 0.07500 -0.21200
C 	C 	0.49900 0.57570 0.07570 0.41900
C 	C 	0.12937 0.56023 0.06023 0.45800
C 	C 	0.10526 0.57101 0.07101 -0.22400
C 	C 	0.83460 0.17958 0.57042 0.15000
C 	C 	0.77930 0.17500 0.57500 -0.21200
C 	C 	0.75100 0.17430 0.57570 0.41900
C 	C 	0.12063 0.18977 0.56023 0.45800
C 	C 	0.14474 0.17899 0.57101 -0.22400
C 	C 	0.83460 0.67958 0.07042 0.15000
C 	C 	0.77930 0.67500 0.07500 -0.21200
C 	C 	0.75100 0.67430 0.07570 0.41900
C 	C 	0.12063 0.68977 0.06023 0.45800
C 	C 	0.14474 0.67899 0.07101 -0.22400
C 	C 	0.33460 0.57042 0.67958 0.15000
C 	C 	0.27930 0.57500 0.67500 -0.21200
C 	C 	0.25100 0.57570 0.67430 0.41900
C 	C 	0.62063 0.56023 0.68977 0.45800
C 	C 	0.64474 0.57101 0.67899 -0.22400
C 	C 	0.33460 0.07042 0.17958 0.15000
C 	C 	0.27930 0.07500 0.17500 -0.21200
C 	C 	0.25100 0.07570 0.17430 0.41900
C 	C 	0.62063 0.06023 0.18977 0.45800
C 	C 	0.64474 0.07101 0.17899 -0.22400
C 	C 	0.41540 0.67958 0.17958 0.15000
C 	C 	0.47070 0.67500 0.17500 -0.21200
C 	C 	0.49900 0.67430 0.17430 0.41900
C 	C 	0.12937 0.68977 0.18977 0.45800
C 	C 	0.10526 0.67899 0.17899 -0.22400
C 	C 	0.91540 0.67958 0.67958 0.15000
C 	C 	0.97070 0.67500 0.67500 -0.21300
C 	C 	0.99900 0.67430 0.67430 0.42200
C 	C 	0.62937 0.68977 0.68977 0.45800
C 	C 	0.60526 0.67899 0.67899 -0.22400
C 	C 	0.91540 0.17958 0.17958 0.15000
C 	C 	0.97070 0.17500 0.17500 -0.21300
C 	C 	0.99900 0.17430 0.17430 0.42200
C 	C 	0.62937 0.18977 0.18977 0.45800
C 	C 	0.60526 0.17899 0.17899 -0.22400
C 	C 	0.07042 0.91540 0.07042 0.15000
C 	C 	0.07500 0.97070 0.07500 -0.21300
C 	C 	0.07570 0.99900 0.07570 0.42200
C 	C 	0.06023 0.62937 0.06023 0.45800
C 	C 	0.07101 0.60526 0.07101 -0.22400
C 	C 	0.07042 0.41540 0.57042 0.15000
C 	C 	0.07500 0.47070 0.57500 -0.21200
C 	C 	0.07570 0.49900 0.57570 0.41900
C 	C 	0.06023 0.12937 0.56023 0.45800
C 	C 	0.07101 0.10526 0.57101 -0.22400
C 	C 	0.57042 0.91540 0.57042 0.15000
C 	C 	0.57500 0.97070 0.57500 -0.21300
C 	C 	0.57570 0.99900 0.57570 0.42200
C 	C 	0.56023 0.62937 0.56023 0.45800
C 	C 	0.57101 0.60526 0.57101 -0.22400
C 	C 	0.57042 0.41540 0.07042 0.15000
C 	C 	0.57500 0.47070 0.07500 -0.21200
C 	C 	0.57570 0.49900 0.07570 0.41900
C 	C 	0.56023 0.12937 0.06023 0.45800
C 	C 	0.57101 0.10526 0.07101 -0.22400
C 	C 	0.57042 0.83460 0.17958 0.15000
C 	C 	0.57500 0.77930 0.17500 -0.21200
C 	C 	0.57570 0.75100 0.17430 0.41900
C 	C 	0.56023 0.12063 0.18977 0.45800
C 	C 	0.57101 0.14474 0.17899 -0.22400
C 	C 	0.07042 0.83460 0.67958 0.15000
C 	C 	0.07500 0.77930 0.67500 -0.21200
C 	C 	0.07570 0.75100 0.67430 0.41900
C 	C 	0.06023 0.12063 0.68977 0.45800
C 	C 	0.07101 0.14474 0.67899 -0.22400
C 	C 	0.67958 0.33460 0.57042 0.15000
C 	C 	0.67500 0.27930 0.57500 -0.21200
C 	C 	0.67430 0.25100 0.57570 0.41900
C 	C 	0.68977 0.62063 0.56023 0.45800
C 	C 	0.67899 0.64474 0.57101 -0.22400
C 	C 	0.67958 0.83460 0.07042 0.15000
C 	C 	0.67500 0.77930 0.07500 -0.21200
C 	C 	0.67430 0.75100 0.07570 0.41900
C 	C 	0.68977 0.12063 0.06023 0.45800
C 	C 	0.67899 0.14474 0.07101 -0.22400
C 	C 	0.17958 0.41540 0.67958 0.15000
C 	C 	0.17500 0.47070 0.67500 -0.21200
C 	C 	0.17430 0.49900 0.67430 0.41900
C 	C 	0.18977 0.12937 0.68977 0.45800
C 	C 	0.17899 0.10526 0.67899 -0.22400
C 	C 	0.17958 0.91540 0.17958 0.15000
C 	C 	0.17500 0.97070 0.17500 -0.21300
C 	C 	0.17430 0.99900 0.17430 0.42200
C 	C 	0.18977 0.62937 0.18977 0.45800
C 	C 	0.17899 0.60526 0.17899 -0.22400
C 	C 	0.07042 0.07042 0.91540 0.15000
C 	C 	0.07500 0.07500 0.97070 -0.21300
C 	C 	0.07570 0.07570 0.99900 0.42200
C 	C 	0.06023 0.06023 0.62937 0.45800
C 	C 	0.07101 0.07101 0.60526 -0.22400
C 	C 	0.07042 0.57042 0.41540 0.15000
C 	C 	0.07500 0.57500 0.47070 -0.21200
C 	C 	0.07570 0.57570 0.49900 0.41900
C 	C 	0.06023 0.56023 0.12937 0.45800
C 	C 	0.07101 0.57101 0.10526 -0.22400
C 	C 	0.57042 0.07042 0.41540 0.15000
C 	C 	0.57500 0.07500 0.47070 -0.21200
C 	C 	0.57570 0.07570 0.49900 0.41900
C 	C 	0.56023 0.06023 0.12937 0.45800
C 	C 	0.57101 0.07101 0.10526 -0.22400
C 	C 	0.57042 0.57042 0.91540 0.15000
C 	C 	0.57500 0.57500 0.97070 -0.21300
C 	C 	0.57570 0.57570 0.99900 0.42200
C 	C 	0.56023 0.56023 0.62937 0.45800
C 	C 	0.57101 0.57101 0.60526 -0.22400
C 	C 	0.17958 0.57042 0.83460 0.15000
C 	C 	0.17500 0.57500 0.77930 -0.21200
C 	C 	0.17430 0.57570 0.75100 0.41900
C 	C 	0.18977 0.56023 0.12063 0.45800
C 	C 	0.17899 0.57101 0.14474 -0.22400
C 	C 	0.17958 0.07042 0.33460 0.15000
C 	C 	0.17500 0.07500 0.27930 -0.21200
C 	C 	0.17430 0.07570 0.25100 0.41900
C 	C 	0.18977 0.06023 0.62063 0.45800
C 	C 	0.17899 0.07101 0.64474 -0.22400
C 	C 	0.57042 0.67958 0.33460 0.15000
C 	C 	0.57500 0.67500 0.27930 -0.21200
C 	C 	0.57570 0.67430 0.25100 0.41900
C 	C 	0.56023 0.68977 0.62063 0.45800
C 	C 	0.57101 0.67899 0.64474 -0.22400
C 	C 	0.07042 0.67958 0.83460 0.15000
C 	C 	0.07500 0.67500 0.77930 -0.21200
C 	C 	0.07570 0.67430 0.75100 0.41900
C 	C 	0.06023 0.68977 0.12063 0.45800
C 	C 	0.07101 0.67899 0.14474 -0.22400
C 	C 	0.67958 0.17958 0.41540 0.15000
C 	C 	0.67500 0.17500 0.47070 -0.21200
C 	C 	0.67430 0.17430 0.49900 0.41900
C 	C 	0.68977 0.18977 0.12937 0.45800
C 	C 	0.67899 0.17899 0.10526 -0.22400
C 	C 	0.67958 0.67958 0.91540 0.15000
C 	C 	0.67500 0.67500 0.97070 -0.21300
C 	C 	0.67430 0.67430 0.99900 0.42200
C 	C 	0.68977 0.68977 0.62937 0.45800
C 	C 	0.67899 0.67899 0.60526 -0.22400
C 	C 	0.17958 0.17958 0.91540 0.15000
C 	C 	0.17500 0.17500 0.97070 -0.21300
C 	C 	0.17430 0.17430 0.99900 0.42200
C 	C 	0.18977 0.18977 0.62937 0.45800
C 	C 	0.17899 0.17899 0.60526 -0.22400
C 	C 	0.82042 0.16540 0.42958 0.15000
C 	C 	0.82500 0.22070 0.42500 -0.21200
C 	C 	0.82570 0.24900 0.42430 0.41900
C 	C 	0.81023 0.87937 0.43977 0.45800
C 	C 	0.82101 0.85526 0.42899 -0.22400
C 	C 	0.82042 0.66540 0.92958 0.15000
C 	C 	0.82500 0.72070 0.92500 -0.21200
C 	C 	0.82570 0.74900 0.92430 0.41900
C 	C 	0.81023 0.37937 0.93977 0.45800
C 	C 	0.82101 0.35526 0.92899 -0.22400
C 	C 	0.92958 0.08460 0.92958 0.15000
C 	C 	0.92500 0.02930 0.92500 -0.21100
C 	C 	0.92430 0.00100 0.92430 0.41600
C 	C 	0.93977 0.37063 0.93977 0.45800
C 	C 	0.92899 0.39474 0.92899 -0.22400
C 	C 	0.92958 0.58460 0.42958 0.15000
C 	C 	0.92500 0.52930 0.42500 -0.21200
C 	C 	0.92430 0.50100 0.42430 0.41900
C 	C 	0.93977 0.87063 0.43977 0.45800
C 	C 	0.92899 0.89474 0.42899 -0.22400
C 	C 	0.42958 0.08460 0.42958 0.15000
C 	C 	0.42500 0.02930 0.42500 -0.21100
C 	C 	0.42430 0.00100 0.42430 0.41600
C 	C 	0.43977 0.37063 0.43977 0.45800
C 	C 	0.42899 0.39474 0.42899 -0.22400
C 	C 	0.42958 0.58460 0.92958 0.15000
C 	C 	0.42500 0.52930 0.92500 -0.21200
C 	C 	0.42430 0.50100 0.92430 0.41900
C 	C 	0.43977 0.87063 0.93977 0.45800
C 	C 	0.42899 0.89474 0.92899 -0.22400
C 	C 	0.32042 0.58460 0.82042 0.15000
C 	C 	0.32500 0.52930 0.82500 -0.21200
C 	C 	0.32570 0.50100 0.82570 0.41900
C 	C 	0.31023 0.87063 0.81023 0.45800
C 	C 	0.32101 0.89474 0.82101 -0.22400
C 	C 	0.32042 0.08460 0.32042 0.15000
C 	C 	0.32500 0.02930 0.32500 -0.21100
C 	C 	0.32570 0.00100 0.32570 0.41600
C 	C 	0.31023 0.37063 0.31023 0.45800
C 	C 	0.32101 0.39474 0.32101 -0.22400
C 	C 	0.42958 0.66540 0.32042 0.15000
C 	C 	0.42500 0.72070 0.32500 -0.21200
C 	C 	0.42430 0.74900 0.32570 0.41900
C 	C 	0.43977 0.37937 0.31023 0.45800
C 	C 	0.42899 0.35526 0.32101 -0.22400
C 	C 	0.92958 0.66540 0.82042 0.15000
C 	C 	0.92500 0.72070 0.82500 -0.21200
C 	C 	0.92430 0.74900 0.82570 0.41900
C 	C 	0.93977 0.37937 0.81023 0.45800
C 	C 	0.92899 0.35526 0.82101 -0.22400
C 	C 	0.66540 0.32042 0.42958 0.15000
C 	C 	0.72070 0.32500 0.42500 -0.21200
C 	C 	0.74900 0.32570 0.42430 0.41900
C 	C 	0.37937 0.31023 0.43977 0.45800
C 	C 	0.35526 0.32101 0.42899 -0.22400
C 	C 	0.66540 0.82042 0.92958 0.15000
C 	C 	0.72070 0.82500 0.92500 -0.21200
C 	C 	0.74900 0.82570 0.92430 0.41900
C 	C 	0.37937 0.81023 0.93977 0.45800
C 	C 	0.35526 0.82101 0.92899 -0.22400
C 	C 	0.58460 0.82042 0.32042 0.15000
C 	C 	0.52930 0.82500 0.32500 -0.21200
C 	C 	0.50100 0.82570 0.32570 0.41900
C 	C 	0.87063 0.81023 0.31023 0.45800
C 	C 	0.89474 0.82101 0.32101 -0.22400
C 	C 	0.08460 0.82042 0.82042 0.15000
C 	C 	0.02930 0.82500 0.82500 -0.21100
C 	C 	0.00100 0.82570 0.82570 0.41600
C 	C 	0.37063 0.81023 0.81023 0.45800
C 	C 	0.39474 0.82101 0.82101 -0.22400
C 	C 	0.08460 0.32042 0.32042 0.15000
C 	C 	0.02930 0.32500 0.32500 -0.21100
C 	C 	0.00100 0.32570 0.32570 0.41600
C 	C 	0.37063 0.31023 0.31023 0.45800
C 	C 	0.39474 0.32101 0.32101 -0.22400
C 	C 	0.08460 0.92958 0.92958 0.15000
C 	C 	0.02930 0.92500 0.92500 -0.21100
C 	C 	0.00100 0.92430 0.92430 0.41600
C 	C 	0.37063 0.93977 0.93977 0.45800
C 	C 	0.39474 0.92899 0.92899 -0.22400
C 	C 	0.08460 0.42958 0.42958 0.15000
C 	C 	0.02930 0.42500 0.42500 -0.21100
C 	C 	0.00100 0.42430 0.42430 0.41600
C 	C 	0.37063 0.43977 0.43977 0.45800
C 	C 	0.39474 0.42899 0.42899 -0.22400
C 	C 	0.58460 0.92958 0.42958 0.15000
C 	C 	0.52930 0.92500 0.42500 -0.21200
C 	C 	0.50100 0.92430 0.42430 0.41900
C 	C 	0.87063 0.93977 0.43977 0.45800
C 	C 	0.89474 0.92899 0.42899 -0.22400
C 	C 	0.58460 0.42958 0.92958 0.15000
C 	C 	0.52930 0.42500 0.92500 -0.21200
C 	C 	0.50100 0.42430 0.92430 0.41900
C 	C 	0.87063 0.43977 0.93977 0.45800
C 	C 	0.89474 0.42899 0.92899 -0.22400
C 	C 	0.16540 0.42958 0.82042 0.15000
C 	C 	0.22070 0.42500 0.82500 -0.21200
C 	C 	0.24900 0.42430 0.82570 0.41900
C 	C 	0.87937 0.43977 0.81023 0.45800
C 	C 	0.85526 0.42899 0.82101 -0.22400
C 	C 	0.16540 0.92958 0.32042 0.15000
C 	C 	0.22070 0.92500 0.32500 -0.21200
C 	C 	0.24900 0.92430 0.32570 0.41900
C 	C 	0.87937 0.93977 0.31023 0.45800
C 	C 	0.85526 0.92899 0.32101 -0.22400
C 	C 	0.82042 0.32042 0.58460 0.15000
C 	C 	0.82500 0.32500 0.52930 -0.21200
C 	C 	0.82570 0.32570 0.50100 0.41900
C 	C 	0.81023 0.31023 0.87063 0.45800
C 	C 	0.82101 0.32101 0.89474 -0.22400
C 	C 	0.82042 0.82042 0.08460 0.15000
C 	C 	0.82500 0.82500 0.02930 -0.21100
C 	C 	0.82570 0.82570 0.00100 0.41600
C 	C 	0.81023 0.81023 0.37063 0.45800
C 	C 	0.82101 0.82101 0.39474 -0.22400
C 	C 	0.32042 0.32042 0.08460 0.15000
C 	C 	0.32500 0.32500 0.02930 -0.21100
C 	C 	0.32570 0.32570 0.00100 0.41600
C 	C 	0.31023 0.31023 0.37063 0.45800
C 	C 	0.32101 0.32101 0.39474 -0.22400
C 	C 	0.32042 0.42958 0.66540 0.15000
C 	C 	0.32500 0.42500 0.72070 -0.21200
C 	C 	0.32570 0.42430 0.74900 0.41900
C 	C 	0.31023 0.43977 0.37937 0.45800
C 	C 	0.32101 0.42899 0.35526 -0.22400
C 	C 	0.32042 0.92958 0.16540 0.15000
C 	C 	0.32500 0.92500 0.22070 -0.21200
C 	C 	0.32570 0.92430 0.24900 0.41900
C 	C 	0.31023 0.93977 0.87937 0.45800
C 	C 	0.32101 0.92899 0.85526 -0.22400
C 	C 	0.42958 0.82042 0.16540 0.15000
C 	C 	0.42500 0.82500 0.22070 -0.21200
C 	C 	0.42430 0.82570 0.24900 0.41900
C 	C 	0.43977 0.81023 0.87937 0.45800
C 	C 	0.42899 0.82101 0.85526 -0.22400
C 	C 	0.92958 0.82042 0.66540 0.15000
C 	C 	0.92500 0.82500 0.72070 -0.21200
C 	C 	0.92430 0.82570 0.74900 0.41900
C 	C 	0.93977 0.81023 0.37937 0.45800
C 	C 	0.92899 0.82101 0.35526 -0.22400
C 	C 	0.92958 0.92958 0.08460 0.15000
C 	C 	0.92500 0.92500 0.02930 -0.21100
C 	C 	0.92430 0.92430 0.00100 0.41600
C 	C 	0.93977 0.93977 0.37063 0.45800
C 	C 	0.92899 0.92899 0.39474 -0.22400
C 	C 	0.92958 0.42958 0.58460 0.15000
C 	C 	0.92500 0.42500 0.52930 -0.21200
C 	C 	0.92430 0.42430 0.50100 0.41900
C 	C 	0.93977 0.43977 0.87063 0.45800
C 	C 	0.92899 0.42899 0.89474 -0.22400
C 	C 	0.42958 0.92958 0.58460 0.15000
C 	C 	0.42500 0.92500 0.52930 -0.21200
C 	C 	0.42430 0.92430 0.50100 0.41900
C 	C 	0.43977 0.93977 0.87063 0.45800
C 	C 	0.42899 0.92899 0.89474 -0.22400
C 	C 	0.42958 0.42958 0.08460 0.15000
C 	C 	0.42500 0.42500 0.02930 -0.21100
C 	C 	0.42430 0.42430 0.00100 0.41600
C 	C 	0.43977 0.43977 0.37063 0.45800
C 	C 	0.42899 0.42899 0.39474 -0.22400
C 	C 	0.16540 0.82042 0.42958 0.15000
C 	C 	0.22070 0.82500 0.42500 -0.21200
C 	C 	0.24900 0.82570 0.42430 0.41900
C 	C 	0.87937 0.81023 0.43977 0.45800
C 	C 	0.85526 0.82101 0.42899 -0.22400
C 	C 	0.16540 0.32042 0.92958 0.15000
C 	C 	0.22070 0.32500 0.92500 -0.21200
C 	C 	0.24900 0.32570 0.92430 0.41900
C 	C 	0.87937 0.31023 0.93977 0.45800
C 	C 	0.85526 0.32101 0.92899 -0.22400
C 	C 	0.66540 0.42958 0.32042 0.15000
C 	C 	0.72070 0.42500 0.32500 -0.21200
C 	C 	0.74900 0.42430 0.32570 0.41900
C 	C 	0.37937 0.43977 0.31023 0.45800
C 	C 	0.35526 0.42899 0.32101 -0.22400
C 	C 	0.66540 0.92958 0.82042 0.15000
C 	C 	0.72070 0.92500 0.82500 -0.21200
C 	C 	0.74900 0.92430 0.82570 0.41900
C 	C 	0.37937 0.93977 0.81023 0.45800
C 	C 	0.35526 0.92899 0.82101 -0.22400
C 	C 	0.58460 0.32042 0.82042 0.15000
C 	C 	0.52930 0.32500 0.82500 -0.21200
C 	C 	0.50100 0.32570 0.82570 0.41900
C 	C 	0.87063 0.31023 0.81023 0.45800
C 	C 	0.89474 0.32101 0.82101 -0.22400
C 	C 	0.42958 0.16540 0.82042 0.15000
C 	C 	0.42500 0.22070 0.82500 -0.21200
C 	C 	0.42430 0.24900 0.82570 0.41900
C 	C 	0.43977 0.87937 0.81023 0.45800
C 	C 	0.42899 0.85526 0.82101 -0.22400
C 	C 	0.92958 0.16540 0.32042 0.15000
C 	C 	0.92500 0.22070 0.32500 -0.21200
C 	C 	0.92430 0.24900 0.32570 0.41900
C 	C 	0.93977 0.87937 0.31023 0.45800
C 	C 	0.92899 0.85526 0.32101 -0.22400
C 	C 	0.32042 0.66540 0.42958 0.15000
C 	C 	0.32500 0.72070 0.42500 -0.21200
C 	C 	0.32570 0.74900 0.42430 0.41900
C 	C 	0.31023 0.37937 0.43977 0.45800
C 	C 	0.32101 0.35526 0.42899 -0.22400
C 	C 	0.32042 0.16540 0.92958 0.15000
C 	C 	0.32500 0.22070 0.92500 -0.21200
C 	C 	0.32570 0.24900 0.92430 0.41900
C 	C 	0.31023 0.87937 0.93977 0.45800
C 	C 	0.32101 0.85526 0.92899 -0.22400
C 	C 	0.82042 0.58460 0.32042 0.15000
C 	C 	0.82500 0.52930 0.32500 -0.21200
C 	C 	0.82570 0.50100 0.32570 0.41900
C 	C 	0.81023 0.87063 0.31023 0.45800
C 	C 	0.82101 0.89474 0.32101 -0.22400
C 	C 	0.82042 0.08460 0.82042 0.15000
C 	C 	0.82500 0.02930 0.82500 -0.21100
C 	C 	0.82570 0.00100 0.82570 0.41600
C 	C 	0.81023 0.37063 0.81023 0.45800
C 	C 	0.82101 0.39474 0.82101 -0.22400
C 	C 	0.82042 0.42958 0.16540 0.15000
C 	C 	0.82500 0.42500 0.22070 -0.21200
C 	C 	0.82570 0.42430 0.24900 0.41900
C 	C 	0.81023 0.43977 0.87937 0.45800
C 	C 	0.82101 0.42899 0.85526 -0.22400
C 	C 	0.82042 0.92958 0.66540 0.15000
C 	C 	0.82500 0.92500 0.72070 -0.21200
C 	C 	0.82570 0.92430 0.74900 0.41900
C 	C 	0.81023 0.93977 0.37937 0.45800
C 	C 	0.82101 0.92899 0.35526 -0.22400
C 	C 	0.42958 0.32042 0.66540 0.15000
C 	C 	0.42500 0.32500 0.72070 -0.21200
C 	C 	0.42430 0.32570 0.74900 0.41900
C 	C 	0.43977 0.31023 0.37937 0.45800
C 	C 	0.42899 0.32101 0.35526 -0.22400
C 	C 	0.92958 0.32042 0.16540 0.15000
C 	C 	0.92500 0.32500 0.22070 -0.21200
C 	C 	0.92430 0.32570 0.24900 0.41900
C 	C 	0.93977 0.31023 0.87937 0.45800
C 	C 	0.92899 0.32101 0.85526 -0.22400
C 	C 	0.32042 0.82042 0.58460 0.15000
C 	C 	0.32500 0.82500 0.52930 -0.21200
C 	C 	0.32570 0.82570 0.50100 0.41900
C 	C 	0.31023 0.81023 0.87063 0.45800
C 	C 	0.32101 0.82101 0.89474 -0.22400
C 	C 	0.17958 0.83460 0.57042 0.15000
C 	C 	0.17500 0.77930 0.57500 -0.21200
C 	C 	0.17430 0.75100 0.57570 0.41900
C 	C 	0.18977 0.12063 0.56023 0.45800
C 	C 	0.17899 0.14474 0.57101 -0.22400
C 	C 	0.17958 0.33460 0.07042 0.15000
C 	C 	0.17500 0.27930 0.07500 -0.21200
C 	C 	0.17430 0.25100 0.07570 0.41900
C 	C 	0.18977 0.62063 0.06023 0.45800
C 	C 	0.17899 0.64474 0.07101 -0.22400
C 	C 	0.67958 0.41540 0.17958 0.15000
C 	C 	0.67500 0.47070 0.17500 -0.21200
C 	C 	0.67430 0.49900 0.17430 0.41900
C 	C 	0.68977 0.12937 0.18977 0.45800
C 	C 	0.67899 0.10526 0.17899 -0.22400
C 	C 	0.67958 0.91540 0.67958 0.15000
C 	C 	0.67500 0.97070 0.67500 -0.21300
C 	C 	0.67430 0.99900 0.67430 0.42200
C 	C 	0.68977 0.62937 0.68977 0.45800
C 	C 	0.67899 0.60526 0.67899 -0.22400
C 	C 	0.57042 0.33460 0.67958 0.15000
C 	C 	0.57500 0.27930 0.67500 -0.21200
C 	C 	0.57570 0.25100 0.67430 0.41900
C 	C 	0.56023 0.62063 0.68977 0.45800
C 	C 	0.57101 0.64474 0.67899 -0.22400
C 	C 	0.07042 0.33460 0.17958 0.15000
C 	C 	0.07500 0.27930 0.17500 -0.21200
C 	C 	0.07570 0.25100 0.17430 0.41900
C 	C 	0.06023 0.62063 0.18977 0.45800
C 	C 	0.07101 0.64474 0.17899 -0.22400
C 	C 	0.33460 0.67958 0.57042 0.15000
C 	C 	0.27930 0.67500 0.57500 -0.21200
C 	C 	0.25100 0.67430 0.57570 0.41900
C 	C 	0.62063 0.68977 0.56023 0.45800
C 	C 	0.64474 0.67899 0.57101 -0.22400
C 	C 	0.33460 0.17958 0.07042 0.15000
C 	C 	0.27930 0.17500 0.07500 -0.21200
C 	C 	0.25100 0.17430 0.07570 0.41900
C 	C 	0.62063 0.18977 0.06023 0.45800
C 	C 	0.64474 0.17899 0.07101 -0.22400
C 	C 	0.41540 0.17958 0.67958 0.15000
C 	C 	0.47070 0.17500 0.67500 -0.21200
C 	C 	0.49900 0.17430 0.67430 0.41900
C 	C 	0.12937 0.18977 0.68977 0.45800
C 	C 	0.10526 0.17899 0.67899 -0.22400
C 	C 	0.83460 0.57042 0.17958 0.15000
C 	C 	0.77930 0.57500 0.17500 -0.21200
C 	C 	0.75100 0.57570 0.17430 0.41900
C 	C 	0.12063 0.56023 0.18977 0.45800
C 	C 	0.14474 0.57101 0.17899 -0.22400
C 	C 	0.83460 0.07042 0.67958 0.15000
C 	C 	0.77930 0.07500 0.67500 -0.21200
C 	C 	0.75100 0.07570 0.67430 0.41900
C 	C 	0.12063 0.06023 0.68977 0.45800
C 	C 	0.14474 0.07101 0.67899 -0.22400
C 	C 	0.17958 0.67958 0.41540 0.15000
C 	C 	0.17500 0.67500 0.47070 -0.21200
C 	C 	0.17430 0.67430 0.49900 0.41900
C 	C 	0.18977 0.68977 0.12937 0.45800
C 	C 	0.17899 0.67899 0.10526 -0.22400
C 	C 	0.67958 0.57042 0.33460 0.15000
C 	C 	0.67500 0.57500 0.27930 -0.21200
C 	C 	0.67430 0.57570 0.25100 0.41900
C 	C 	0.68977 0.56023 0.62063 0.45800
C 	C 	0.67899 0.57101 0.64474 -0.22400
C 	C 	0.67958 0.07042 0.83460 0.15000
C 	C 	0.67500 0.07500 0.77930 -0.21200
C 	C 	0.67430 0.07570 0.75100 0.41900
C 	C 	0.68977 0.06023 0.12063 0.45800
C 	C 	0.67899 0.07101 0.14474 -0.22400
C 	C 	0.57042 0.17958 0.83460 0.15000
C 	C 	0.57500 0.17500 0.77930 -0.21200
C 	C 	0.57570 0.17430 0.75100 0.41900
C 	C 	0.56023 0.18977 0.12063 0.45800
C 	C 	0.57101 0.17899 0.14474 -0.22400
C 	C 	0.07042 0.17958 0.33460 0.15000
C 	C 	0.07500 0.17500 0.27930 -0.21200
C 	C 	0.07570 0.17430 0.25100 0.41900
C 	C 	0.06023 0.18977 0.62063 0.45800
C 	C 	0.07101 0.17899 0.64474 -0.22400
C 	C 	0.79164 0.11720 0.95836 0.15100
C 	C 	0.75598 0.09451 0.99402 -0.18100
C 	C 	0.73656 0.08266 0.01344 0.45400
C 	C 	0.29164 0.11720 0.45836 0.15200
C 	C 	0.25598 0.09451 0.49402 -0.18400
C 	C 	0.23656 0.08266 0.51344 0.45600
C 	C 	0.95836 0.13280 0.45836 0.15100
C 	C 	0.99402 0.15549 0.49402 -0.18100
C 	C 	0.01344 0.16734 0.51344 0.45400
C 	C 	0.95836 0.63280 0.95836 0.15000
C 	C 	0.99402 0.65549 0.99402 -0.17700
C 	C 	0.01344 0.66734 0.01344 0.45200
C 	C 	0.45836 0.61720 0.79164 0.15200
C 	C 	0.49402 0.59451 0.75598 -0.18400
C 	C 	0.51344 0.58266 0.73656 0.45600
C 	C 	0.45836 0.11720 0.29164 0.15200
C 	C 	0.49402 0.09451 0.25598 -0.18400
C 	C 	0.51344 0.08266 0.23656 0.45600
C 	C 	0.29164 0.63280 0.29164 0.15200
C 	C 	0.25598 0.65549 0.25598 -0.18400
C 	C 	0.23656 0.66734 0.23656 0.45600
C 	C 	0.29164 0.13280 0.79164 0.15200
C 	C 	0.25598 0.15549 0.75598 -0.18400
C 	C 	0.23656 0.16734 0.73656 0.45600
C 	C 	0.79164 0.63280 0.79164 0.15200
C 	C 	0.75598 0.65549 0.75598 -0.18400
C 	C 	0.73656 0.66734 0.73656 0.45600
C 	C 	0.79164 0.13280 0.29164 0.15200
C 	C 	0.75598 0.15549 0.25598 -0.18400
C 	C 	0.73656 0.16734 0.23656 0.45600
C 	C 	0.95836 0.79164 0.11720 0.15100
C 	C 	0.99402 0.75598 0.09451 -0.18100
C 	C 	0.01344 0.73656 0.08266 0.45400
C 	C 	0.95836 0.29164 0.61720 0.15100
C 	C 	0.99402 0.25598 0.59451 -0.18100
C 	C 	0.01344 0.23656 0.58266 0.45400
C 	C 	0.45836 0.95836 0.13280 0.15100
C 	C 	0.49402 0.99402 0.15549 -0.18100
C 	C 	0.51344 0.01344 0.16734 0.45400
C 	C 	0.45836 0.45836 0.63280 0.15200
C 	C 	0.49402 0.49402 0.65549 -0.18400
C 	C 	0.51344 0.51344 0.66734 0.45600
C 	C 	0.95836 0.95836 0.63280 0.15000
C 	C 	0.99402 0.99402 0.65549 -0.17700
C 	C 	0.01344 0.01344 0.66734 0.45200
C 	C 	0.79164 0.45836 0.61720 0.15200
C 	C 	0.75598 0.49402 0.59451 -0.18400
C 	C 	0.73656 0.51344 0.58266 0.45600
C 	C 	0.29164 0.45836 0.11720 0.15200
C 	C 	0.25598 0.49402 0.09451 -0.18400
C 	C 	0.23656 0.51344 0.08266 0.45600
C 	C 	0.29164 0.29164 0.63280 0.15200
C 	C 	0.25598 0.25598 0.65549 -0.18400
C 	C 	0.23656 0.23656 0.66734 0.45600
C 	C 	0.29164 0.79164 0.13280 0.15200
C 	C 	0.25598 0.75598 0.15549 -0.18400
C 	C 	0.23656 0.73656 0.16734 0.45600
C 	C 	0.79164 0.29164 0.13280 0.15200
C 	C 	0.75598 0.25598 0.15549 -0.18400
C 	C 	0.73656 0.23656 0.16734 0.45600
C 	C 	0.79164 0.79164 0.63280 0.15200
C 	C 	0.75598 0.75598 0.65549 -0.18400
C 	C 	0.73656 0.73656 0.66734 0.45600
C 	C 	0.11720 0.95836 0.79164 0.15100
C 	C 	0.09451 0.99402 0.75598 -0.18100
C 	C 	0.08266 0.01344 0.73656 0.45400
C 	C 	0.11720 0.45836 0.29164 0.15200
C 	C 	0.09451 0.49402 0.25598 -0.18400
C 	C 	0.08266 0.51344 0.23656 0.45600
C 	C 	0.13280 0.45836 0.95836 0.15100
C 	C 	0.15549 0.49402 0.99402 -0.18100
C 	C 	0.16734 0.51344 0.01344 0.45400
C 	C 	0.63280 0.45836 0.45836 0.15200
C 	C 	0.65549 0.49402 0.49402 -0.18400
C 	C 	0.66734 0.51344 0.51344 0.45600
C 	C 	0.63280 0.95836 0.95836 0.15000
C 	C 	0.65549 0.99402 0.99402 -0.17700
C 	C 	0.66734 0.01344 0.01344 0.45200
C 	C 	0.61720 0.79164 0.45836 0.15200
C 	C 	0.59451 0.75598 0.49402 -0.18400
C 	C 	0.58266 0.73656 0.51344 0.45600
C 	C 	0.61720 0.29164 0.95836 0.15100
C 	C 	0.59451 0.25598 0.99402 -0.18100
C 	C 	0.58266 0.23656 0.01344 0.45400
C 	C 	0.63280 0.29164 0.29164 0.15200
C 	C 	0.65549 0.25598 0.25598 -0.18400
C 	C 	0.66734 0.23656 0.23656 0.45600
C 	C 	0.63280 0.79164 0.79164 0.15200
C 	C 	0.65549 0.75598 0.75598 -0.18400
C 	C 	0.66734 0.73656 0.73656 0.45600
C 	C 	0.13280 0.29164 0.79164 0.15200
C 	C 	0.15549 0.25598 0.75598 -0.18400
C 	C 	0.16734 0.23656 0.73656 0.45600
C 	C 	0.13280 0.79164 0.29164 0.15200
C 	C 	0.15549 0.75598 0.25598 -0.18400
C 	C 	0.16734 0.73656 0.23656 0.45600
C 	C 	0.86720 0.04164 0.54164 0.15200
C 	C 	0.84451 0.00598 0.50598 -0.18800
C 	C 	0.83266 0.98656 0.48656 0.45800
C 	C 	0.36720 0.04164 0.04164 0.15300
C 	C 	0.34451 0.00598 0.00598 -0.19100
C 	C 	0.33266 0.98656 0.98656 0.46000
C 	C 	0.36720 0.54164 0.54164 0.15200
C 	C 	0.34451 0.50598 0.50598 -0.18400
C 	C 	0.33266 0.48656 0.48656 0.45600
C 	C 	0.88280 0.20836 0.04164 0.15200
C 	C 	0.90549 0.24402 0.00598 -0.18800
C 	C 	0.91734 0.26344 0.98656 0.45800
C 	C 	0.88280 0.70836 0.54164 0.15200
C 	C 	0.90549 0.74402 0.50598 -0.18400
C 	C 	0.91734 0.76344 0.48656 0.45600
C 	C 	0.38280 0.20836 0.54164 0.15200
C 	C 	0.40549 0.24402 0.50598 -0.18400
C 	C 	0.41734 0.26344 0.48656 0.45600
C 	C 	0.36720 0.70836 0.70836 0.15200
C 	C 	0.34451 0.74402 0.74402 -0.18400
C 	C 	0.33266 0.76344 0.76344 0.45600
C 	C 	0.36720 0.20836 0.20836 0.15200
C 	C 	0.34451 0.24402 0.24402 -0.18400
C 	C 	0.33266 0.26344 0.26344 0.45600
C 	C 	0.86720 0.70836 0.20836 0.15200
C 	C 	0.84451 0.74402 0.24402 -0.18400
C 	C 	0.83266 0.76344 0.26344 0.45600
C 	C 	0.86720 0.20836 0.70836 0.15200
C 	C 	0.84451 0.24402 0.74402 -0.18400
C 	C 	0.83266 0.26344 0.76344 0.45600
C 	C 	0.38280 0.54164 0.20836 0.15200
C 	C 	0.40549 0.50598 0.24402 -0.18400
C 	C 	0.41734 0.48656 0.26344 0.45600
C 	C 	0.38280 0.04164 0.70836 0.15200
C 	C 	0.40549 0.00598 0.74402 -0.18800
C 	C 	0.41734 0.98656 0.76344 0.45800
C 	C 	0.54164 0.20836 0.38280 0.15200
C 	C 	0.50598 0.24402 0.40549 -0.18400
C 	C 	0.48656 0.26344 0.41734 0.45600
C 	C 	0.54164 0.70836 0.88280 0.15200
C 	C 	0.50598 0.74402 0.90549 -0.18400
C 	C 	0.48656 0.76344 0.91734 0.45600
C 	C 	0.70836 0.70836 0.36720 0.15200
C 	C 	0.74402 0.74402 0.34451 -0.18400
C 	C 	0.76344 0.76344 0.33266 0.45600
C 	C 	0.70836 0.20836 0.86720 0.15200
C 	C 	0.74402 0.24402 0.84451 -0.18400
C 	C 	0.76344 0.26344 0.83266 0.45600
C 	C 	0.20836 0.70836 0.86720 0.15200
C 	C 	0.24402 0.74402 0.84451 -0.18400
C 	C 	0.26344 0.76344 0.83266 0.45600
C 	C 	0.20836 0.20836 0.36720 0.15200
C 	C 	0.24402 0.24402 0.34451 -0.18400
C 	C 	0.26344 0.26344 0.33266 0.45600
C 	C 	0.20836 0.04164 0.88280 0.15200
C 	C 	0.24402 0.00598 0.90549 -0.18800
C 	C 	0.26344 0.98656 0.91734 0.45800
C 	C 	0.20836 0.54164 0.38280 0.15200
C 	C 	0.24402 0.50598 0.40549 -0.18400
C 	C 	0.26344 0.48656 0.41734 0.45600
C 	C 	0.70836 0.04164 0.38280 0.15200
C 	C 	0.74402 0.00598 0.40549 -0.18800
C 	C 	0.76344 0.98656 0.41734 0.45800
C 	C 	0.04164 0.54164 0.86720 0.15200
C 	C 	0.00598 0.50598 0.84451 -0.18800
C 	C 	0.98656 0.48656 0.83266 0.45800
C 	C 	0.04164 0.04164 0.36720 0.15300
C 	C 	0.00598 0.00598 0.34451 -0.19100
C 	C 	0.98656 0.98656 0.33266 0.46000
C 	C 	0.54164 0.54164 0.36720 0.15200
C 	C 	0.50598 0.50598 0.34451 -0.18400
C 	C 	0.48656 0.48656 0.33266 0.45600
C 	C 	0.70836 0.36720 0.70836 0.15200
C 	C 	0.74402 0.34451 0.74402 -0.18400
C 	C 	0.76344 0.33266 0.76344 0.45600
C 	C 	0.70836 0.86720 0.20836 0.15200
C 	C 	0.74402 0.84451 0.24402 -0.18400
C 	C 	0.76344 0.83266 0.26344 0.45600
C 	C 	0.20836 0.36720 0.20836 0.15200
C 	C 	0.24402 0.34451 0.24402 -0.18400
C 	C 	0.26344 0.33266 0.26344 0.45600
C 	C 	0.20836 0.86720 0.70836 0.15200
C 	C 	0.24402 0.84451 0.74402 -0.18400
C 	C 	0.26344 0.83266 0.76344 0.45600
C 	C 	0.20836 0.38280 0.54164 0.15200
C 	C 	0.24402 0.40549 0.50598 -0.18400
C 	C 	0.26344 0.41734 0.48656 0.45600
C 	C 	0.70836 0.38280 0.04164 0.15200
C 	C 	0.74402 0.40549 0.00598 -0.18800
C 	C 	0.76344 0.41734 0.98656 0.45800
C 	C 	0.54164 0.86720 0.04164 0.15200
C 	C 	0.50598 0.84451 0.00598 -0.18800
C 	C 	0.48656 0.83266 0.98656 0.45800
C 	C 	0.54164 0.36720 0.54164 0.15200
C 	C 	0.50598 0.34451 0.50598 -0.18400
C 	C 	0.48656 0.33266 0.48656 0.45600
C 	C 	0.04164 0.88280 0.20836 0.15200
C 	C 	0.00598 0.90549 0.24402 -0.18800
C 	C 	0.98656 0.91734 0.26344 0.45800
C 	C 	0.04164 0.38280 0.70836 0.15200
C 	C 	0.00598 0.40549 0.74402 -0.18800
C 	C 	0.98656 0.41734 0.76344 0.45800
C 	C 	0.54164 0.38280 0.20836 0.15200
C 	C 	0.50598 0.40549 0.24402 -0.18400
C 	C 	0.48656 0.41734 0.26344 0.45600
C 	C 	0.20836 0.88280 0.04164 0.15200
C 	C 	0.24402 0.90549 0.00598 -0.18800
C 	C 	0.26344 0.91734 0.98656 0.45800
C 	C 	0.70836 0.88280 0.54164 0.15200
C 	C 	0.74402 0.90549 0.50598 -0.18400
C 	C 	0.76344 0.91734 0.48656 0.45600
C 	C 	0.04164 0.86720 0.54164 0.15200
C 	C 	0.00598 0.84451 0.50598 -0.18800
C 	C 	0.98656 0.83266 0.48656 0.45800
C 	C 	0.04164 0.36720 0.04164 0.15300
C 	C 	0.00598 0.34451 0.00598 -0.19100
C 	C 	0.98656 0.33266 0.98656 0.46000
C 	C 	0.54164 0.88280 0.70836 0.15200
C 	C 	0.50598 0.90549 0.74402 -0.18400
C 	C 	0.48656 0.91734 0.76344 0.45600
C 	C 	0.04164 0.20836 0.88280 0.15200
C 	C 	0.00598 0.24402 0.90549 -0.18800
C 	C 	0.98656 0.26344 0.91734 0.45800
C 	C 	0.04164 0.70836 0.38280 0.15200
C 	C 	0.00598 0.74402 0.40549 -0.18800
C 	C 	0.98656 0.76344 0.41734 0.45800
C 	C 	0.54164 0.04164 0.86720 0.15200
C 	C 	0.50598 0.00598 0.84451 -0.18800
C 	C 	0.48656 0.98656 0.83266 0.45800
C 	C 	0.70836 0.54164 0.88280 0.15200
C 	C 	0.74402 0.50598 0.90549 -0.18400
C 	C 	0.76344 0.48656 0.91734 0.45600
C 	C 	0.88280 0.04164 0.20836 0.15200
C 	C 	0.90549 0.00598 0.24402 -0.18800
C 	C 	0.91734 0.98656 0.26344 0.45800
C 	C 	0.88280 0.54164 0.70836 0.15200
C 	C 	0.90549 0.50598 0.74402 -0.18400
C 	C 	0.91734 0.48656 0.76344 0.45600
C 	C 	0.86720 0.54164 0.04164 0.15200
C 	C 	0.84451 0.50598 0.00598 -0.18800
C 	C 	0.83266 0.48656 0.98656 0.45800
C 	C 	0.38280 0.70836 0.04164 0.15200
C 	C 	0.40549 0.74402 0.00598 -0.18800
C 	C 	0.41734 0.76344 0.98656 0.45800
C 	C 	0.13280 0.95836 0.45836 0.15100
C 	C 	0.15549 0.99402 0.49402 -0.18100
C 	C 	0.16734 0.01344 0.51344 0.45400
C 	C 	0.11720 0.79164 0.95836 0.15100
C 	C 	0.09451 0.75598 0.99402 -0.18100
C 	C 	0.08266 0.73656 0.01344 0.45400
C 	C 	0.11720 0.29164 0.45836 0.15200
C 	C 	0.09451 0.25598 0.49402 -0.18400
C 	C 	0.08266 0.23656 0.51344 0.45600
C 	C 	0.61720 0.45836 0.79164 0.15200
C 	C 	0.59451 0.49402 0.75598 -0.18400
C 	C 	0.58266 0.51344 0.73656 0.45600
C 	C 	0.61720 0.95836 0.29164 0.15100
C 	C 	0.59451 0.99402 0.25598 -0.18100
C 	C 	0.58266 0.01344 0.23656 0.45400
C 	C 	0.45836 0.79164 0.61720 0.15200
C 	C 	0.49402 0.75598 0.59451 -0.18400
C 	C 	0.51344 0.73656 0.58266 0.45600
C 	C 	0.45836 0.29164 0.11720 0.15200
C 	C 	0.49402 0.25598 0.09451 -0.18400
C 	C 	0.51344 0.23656 0.08266 0.45600
C 	C 	0.79164 0.95836 0.11720 0.15100
C 	C 	0.75598 0.99402 0.09451 -0.18100
C 	C 	0.73656 0.01344 0.08266 0.45400
C 	C 	0.29164 0.95836 0.61720 0.15100
C 	C 	0.25598 0.99402 0.59451 -0.18100
C 	C 	0.23656 0.01344 0.58266 0.45400
C 	C 	0.95836 0.45836 0.13280 0.15100
C 	C 	0.99402 0.49402 0.15549 -0.18100
C 	C 	0.01344 0.51344 0.16734 0.45400
C 	C 	0.79164 0.61720 0.45836 0.15200
C 	C 	0.75598 0.59451 0.49402 -0.18400
C 	C 	0.73656 0.58266 0.51344 0.45600
C 	C 	0.29164 0.61720 0.95836 0.15100
C 	C 	0.25598 0.59451 0.99402 -0.18100
C 	C 	0.23656 0.58266 0.01344 0.45400
C 	C 	0.45836 0.13280 0.95836 0.15100
C 	C 	0.49402 0.15549 0.99402 -0.18100
C 	C 	0.51344 0.16734 0.01344 0.45400
C 	C 	0.45836 0.63280 0.45836 0.15200
C 	C 	0.49402 0.65549 0.49402 -0.18400
C 	C 	0.51344 0.66734 0.51344 0.45600
C 	C 	0.95836 0.11720 0.79164 0.15100
C 	C 	0.99402 0.09451 0.75598 -0.18100
C 	C 	0.01344 0.08266 0.73656 0.45400
C 	C 	0.95836 0.61720 0.29164 0.15100
C 	C 	0.99402 0.59451 0.25598 -0.18100
C 	C 	0.01344 0.58266 0.23656 0.45400
C 	C 	0.59383 0.09383 0.06027 0.16300
C 	C 	0.59383 0.59383 0.56027 0.16300
C 	C 	0.15617 0.15617 0.56027 0.16300
C 	C 	0.15617 0.65617 0.06027 0.16300
C 	C 	0.65617 0.15617 0.06027 0.16300
C 	C 	0.65617 0.65617 0.56027 0.16300
C 	C 	0.65617 0.59383 0.68973 0.16300
C 	C 	0.15617 0.59383 0.18973 0.16300
C 	C 	0.09383 0.65617 0.18973 0.16300
C 	C 	0.09383 0.15617 0.68973 0.16300
C 	C 	0.06027 0.59383 0.09383 0.16300
C 	C 	0.56027 0.59383 0.59383 0.16300
C 	C 	0.56027 0.15617 0.15617 0.16300
C 	C 	0.56027 0.65617 0.65617 0.16300
C 	C 	0.06027 0.15617 0.65617 0.16300
C 	C 	0.06027 0.65617 0.15617 0.16300
C 	C 	0.68973 0.65617 0.59383 0.16300
C 	C 	0.68973 0.15617 0.09383 0.16300
C 	C 	0.18973 0.09383 0.65617 0.16300
C 	C 	0.18973 0.59383 0.15617 0.16300
C 	C 	0.09383 0.06027 0.59383 0.16300
C 	C 	0.09383 0.56027 0.09383 0.16300
C 	C 	0.15617 0.56027 0.15617 0.16300
C 	C 	0.15617 0.06027 0.65617 0.16300
C 	C 	0.65617 0.56027 0.65617 0.16300
C 	C 	0.65617 0.06027 0.15617 0.16300
C 	C 	0.59383 0.68973 0.65617 0.16300
C 	C 	0.59383 0.18973 0.15617 0.16300
C 	C 	0.65617 0.18973 0.09383 0.16300
C 	C 	0.15617 0.18973 0.59383 0.16300
C 	C 	0.84383 0.84383 0.43973 0.16300
C 	C 	0.84383 0.34383 0.93973 0.16300
C 	C 	0.34383 0.84383 0.93973 0.16300
C 	C 	0.34383 0.34383 0.43973 0.16300
C 	C 	0.90617 0.40617 0.93973 0.16300
C 	C 	0.90617 0.90617 0.43973 0.16300
C 	C 	0.34383 0.90617 0.81027 0.16300
C 	C 	0.84383 0.90617 0.31027 0.16300
C 	C 	0.40617 0.34383 0.31027 0.16300
C 	C 	0.40617 0.84383 0.81027 0.16300
C 	C 	0.34383 0.31027 0.40617 0.16300
C 	C 	0.84383 0.31027 0.90617 0.16300
C 	C 	0.90617 0.81027 0.34383 0.16300
C 	C 	0.90617 0.31027 0.84383 0.16300
C 	C 	0.40617 0.93973 0.90617 0.16300
C 	C 	0.40617 0.43973 0.40617 0.16300
C 	C 	0.84383 0.43973 0.84383 0.16300
C 	C 	0.84383 0.93973 0.34383 0.16300
C 	C 	0.34383 0.43973 0.34383 0.16300
C 	C 	0.34383 0.93973 0.84383 0.16300
C 	C 	0.81027 0.34383 0.90617 0.16300
C 	C 	0.81027 0.84383 0.40617 0.16300
C 	C 	0.31027 0.40617 0.34383 0.16300
C 	C 	0.31027 0.90617 0.84383 0.16300
C 	C 	0.43973 0.84383 0.84383 0.16300
C 	C 	0.43973 0.34383 0.34383 0.16300
C 	C 	0.93973 0.84383 0.34383 0.16300
C 	C 	0.93973 0.34383 0.84383 0.16300
C 	C 	0.93973 0.90617 0.40617 0.16300
C 	C 	0.43973 0.90617 0.90617 0.16300
C 	C 	0.40617 0.90617 0.93973 0.16300
C 	C 	0.40617 0.40617 0.43973 0.16300
C 	C 	0.34383 0.40617 0.31027 0.16300
C 	C 	0.84383 0.40617 0.81027 0.16300
C 	C 	0.90617 0.34383 0.81027 0.16300
C 	C 	0.90617 0.84383 0.31027 0.16300
C 	C 	0.93973 0.40617 0.90617 0.16300
C 	C 	0.43973 0.40617 0.40617 0.16300
C 	C 	0.31027 0.34383 0.40617 0.16300
C 	C 	0.31027 0.84383 0.90617 0.16300
C 	C 	0.81027 0.90617 0.34383 0.16300
C 	C 	0.81027 0.40617 0.84383 0.16300
C 	C 	0.90617 0.93973 0.40617 0.16300
C 	C 	0.90617 0.43973 0.90617 0.16300
C 	C 	0.40617 0.31027 0.34383 0.16300
C 	C 	0.40617 0.81027 0.84383 0.16300
C 	C 	0.34383 0.81027 0.90617 0.16300
C 	C 	0.84383 0.81027 0.40617 0.16300
C 	C 	0.09383 0.59383 0.06027 0.16300
C 	C 	0.09383 0.09383 0.56027 0.16300
C 	C 	0.65617 0.09383 0.18973 0.16300
C 	C 	0.15617 0.09383 0.68973 0.16300
C 	C 	0.59383 0.65617 0.68973 0.16300
C 	C 	0.59383 0.15617 0.18973 0.16300
C 	C 	0.65617 0.68973 0.59383 0.16300
C 	C 	0.15617 0.68973 0.09383 0.16300
C 	C 	0.09383 0.18973 0.65617 0.16300
C 	C 	0.09383 0.68973 0.15617 0.16300
C 	C 	0.59383 0.06027 0.09383 0.16300
C 	C 	0.59383 0.56027 0.59383 0.16300
C 	C 	0.18973 0.65617 0.09383 0.16300
C 	C 	0.18973 0.15617 0.59383 0.16300
C 	C 	0.68973 0.59383 0.65617 0.16300
C 	C 	0.68973 0.09383 0.15617 0.16300
C 	C 	0.06027 0.09383 0.59383 0.16300
C 	C 	0.56027 0.09383 0.09383 0.16300
