data_crystal

_cell_length_a 50.52220
_cell_length_b 50.52220
_cell_length_c 50.52220
_cell_angle_alpha 90.00000
_cell_angle_beta  90.00000
_cell_angle_gamma 90.00000

_symmetry_space_group_name_	'P 1'
_symmetry_space_group_name_H-M	'P 1'

loop_
_symmetry_equiv_pos_as_xyz
  x,y,z

loop_
_atom_site_label
_atom_site_type_symbol
_atom_site_fract_x
_atom_site_fract_y
_atom_site_fract_z
_atom_site_charge
O 	O 	0.89009 0.09935 0.03381 -0.50300
O 	O 	0.92443 0.12115 0.02153 -0.38400
O 	O 	0.01114 0.06220 0.09320 -0.66400
O 	O 	0.83726 0.10752 0.01280 -0.43400
O 	O 	0.84249 0.12787 0.97565 -0.46400
O 	O 	0.71415 0.07872 0.00477 -0.42800
O 	O 	0.63836 0.07032 0.03921 -0.43100
C 	C 	0.91370 0.10400 0.03620 0.38200
C 	C 	0.92960 0.08970 0.05610 -0.17200
C 	C 	0.95680 0.09180 0.05780 0.12000
C 	C 	0.82804 0.11552 0.99150 0.35800
C 	C 	0.79981 0.11049 0.98401 -0.14800
C 	C 	0.78214 0.09907 0.00219 0.13100
O 	O 	0.89009 0.59935 0.53381 -0.50200
O 	O 	0.92443 0.62115 0.52153 -0.38400
O 	O 	0.01114 0.56220 0.59320 -0.66400
O 	O 	0.83726 0.60752 0.51280 -0.43300
O 	O 	0.84249 0.62787 0.47565 -0.46400
O 	O 	0.71415 0.57872 0.50477 -0.42800
O 	O 	0.63836 0.57032 0.53921 -0.43100
C 	C 	0.91370 0.60400 0.53620 0.38200
C 	C 	0.92960 0.58970 0.55610 -0.17200
C 	C 	0.95680 0.59180 0.55780 0.12000
C 	C 	0.82804 0.61552 0.49150 0.35700
C 	C 	0.79981 0.61049 0.48401 -0.15000
C 	C 	0.78214 0.59907 0.50219 0.13400
O 	O 	0.39009 0.09935 0.53381 -0.50200
O 	O 	0.42443 0.12115 0.52153 -0.38400
O 	O 	0.51114 0.06220 0.59320 -0.66400
O 	O 	0.33726 0.10752 0.51280 -0.43400
O 	O 	0.34249 0.12787 0.47565 -0.46500
O 	O 	0.21415 0.07872 0.50477 -0.43000
O 	O 	0.13836 0.07032 0.53921 -0.43200
C 	C 	0.41370 0.10400 0.53620 0.38100
C 	C 	0.42960 0.08970 0.55610 -0.17300
C 	C 	0.45680 0.09180 0.55780 0.11900
C 	C 	0.32804 0.11552 0.49150 0.35600
C 	C 	0.29981 0.11049 0.48401 -0.15100
C 	C 	0.28214 0.09907 0.50219 0.13300
O 	O 	0.39009 0.59935 0.03381 -0.50400
O 	O 	0.42443 0.62115 0.02153 -0.38500
O 	O 	0.51114 0.56220 0.09320 -0.66500
O 	O 	0.33726 0.60752 0.01280 -0.43500
O 	O 	0.34249 0.62787 0.97565 -0.46500
O 	O 	0.21415 0.57872 0.00477 -0.42900
O 	O 	0.13836 0.57032 0.03921 -0.43200
C 	C 	0.41370 0.60400 0.03620 0.38100
C 	C 	0.42960 0.58970 0.05610 -0.17300
C 	C 	0.45680 0.59180 0.05780 0.11900
C 	C 	0.32804 0.61552 0.99150 0.35700
C 	C 	0.29981 0.61049 0.98401 -0.14900
C 	C 	0.28214 0.59907 0.00219 0.13000
O 	O 	0.85991 0.15065 0.53381 -0.50300
O 	O 	0.82557 0.12885 0.52153 -0.38500
O 	O 	0.73886 0.18780 0.59320 -0.66500
O 	O 	0.91274 0.14248 0.51280 -0.43400
O 	O 	0.90751 0.12213 0.47565 -0.46500
O 	O 	0.03585 0.17128 0.50477 -0.42900
O 	O 	0.11164 0.17968 0.53921 -0.43200
C 	C 	0.83630 0.14600 0.53620 0.38100
C 	C 	0.82040 0.16030 0.55610 -0.17300
C 	C 	0.79320 0.15820 0.55780 0.11900
C 	C 	0.92196 0.13448 0.49150 0.35600
C 	C 	0.95019 0.13951 0.48401 -0.15000
C 	C 	0.96786 0.15093 0.50219 0.13300
O 	O 	0.85991 0.65065 0.03381 -0.50400
O 	O 	0.82557 0.62885 0.02153 -0.38500
O 	O 	0.73886 0.68780 0.09320 -0.66500
O 	O 	0.91274 0.64248 0.01280 -0.43500
O 	O 	0.90751 0.62213 0.97565 -0.46500
O 	O 	0.03585 0.67128 0.00477 -0.42900
O 	O 	0.11164 0.67968 0.03921 -0.43200
C 	C 	0.83630 0.64600 0.03620 0.38100
C 	C 	0.82040 0.66030 0.05610 -0.17300
C 	C 	0.79320 0.65820 0.05780 0.11900
C 	C 	0.92196 0.63448 0.99150 0.35700
C 	C 	0.95019 0.63951 0.98401 -0.14900
C 	C 	0.96786 0.65093 0.00219 0.12900
O 	O 	0.35991 0.15065 0.03381 -0.50400
O 	O 	0.32557 0.12885 0.02153 -0.38500
O 	O 	0.23886 0.18780 0.09320 -0.66500
O 	O 	0.41274 0.14248 0.01280 -0.43500
O 	O 	0.40751 0.12213 0.97565 -0.46500
O 	O 	0.53585 0.17128 0.00477 -0.42900
O 	O 	0.61164 0.17968 0.03921 -0.43200
C 	C 	0.33630 0.14600 0.03620 0.38100
C 	C 	0.32040 0.16030 0.05610 -0.17300
C 	C 	0.29320 0.15820 0.05780 0.11900
C 	C 	0.42196 0.13448 0.99150 0.35700
C 	C 	0.45019 0.13951 0.98401 -0.14900
C 	C 	0.46786 0.15093 0.00219 0.13000
O 	O 	0.35991 0.65065 0.53381 -0.50300
O 	O 	0.32557 0.62885 0.52153 -0.38500
O 	O 	0.23886 0.68780 0.59320 -0.66500
O 	O 	0.41274 0.64248 0.51280 -0.43400
O 	O 	0.40751 0.62213 0.47565 -0.46500
O 	O 	0.53585 0.67128 0.50477 -0.42900
O 	O 	0.61164 0.67968 0.53921 -0.43200
C 	C 	0.33630 0.64600 0.53620 0.38100
C 	C 	0.32040 0.66030 0.55610 -0.17300
C 	C 	0.29320 0.65820 0.55780 0.11900
C 	C 	0.42196 0.63448 0.49150 0.35600
C 	C 	0.45019 0.63951 0.48401 -0.15100
C 	C 	0.46786 0.65093 0.50219 0.13300
O 	O 	0.35991 0.59935 0.71619 -0.50300
O 	O 	0.32557 0.62115 0.72847 -0.38500
O 	O 	0.23886 0.56220 0.65680 -0.66500
O 	O 	0.41274 0.60752 0.73720 -0.43400
O 	O 	0.40751 0.62787 0.77435 -0.46500
O 	O 	0.53585 0.57872 0.74523 -0.42900
O 	O 	0.61164 0.57032 0.71079 -0.43200
C 	C 	0.33630 0.60400 0.71380 0.38100
C 	C 	0.32040 0.58970 0.69390 -0.17300
C 	C 	0.29320 0.59180 0.69220 0.11900
C 	C 	0.42196 0.61552 0.75850 0.35600
C 	C 	0.45019 0.61049 0.76599 -0.15100
C 	C 	0.46786 0.59907 0.74781 0.13300
O 	O 	0.35991 0.09935 0.21619 -0.50300
O 	O 	0.32557 0.12115 0.22847 -0.38500
O 	O 	0.23886 0.06220 0.15680 -0.66500
O 	O 	0.41274 0.10752 0.23720 -0.43400
O 	O 	0.40751 0.12787 0.27435 -0.46500
O 	O 	0.53585 0.07872 0.24523 -0.43000
O 	O 	0.61164 0.07032 0.21079 -0.43200
C 	C 	0.33630 0.10400 0.21380 0.38100
C 	C 	0.32040 0.08970 0.19390 -0.17300
C 	C 	0.29320 0.09180 0.19220 0.11900
C 	C 	0.42196 0.11552 0.25850 0.35600
C 	C 	0.45019 0.11049 0.26599 -0.15100
C 	C 	0.46786 0.09907 0.24781 0.13300
O 	O 	0.85991 0.59935 0.21619 -0.50300
O 	O 	0.82557 0.62115 0.22847 -0.38500
O 	O 	0.73886 0.56220 0.15680 -0.66500
O 	O 	0.91274 0.60752 0.23720 -0.43400
O 	O 	0.90751 0.62787 0.27435 -0.46500
O 	O 	0.03585 0.57872 0.24523 -0.42900
O 	O 	0.11164 0.57032 0.21079 -0.43200
C 	C 	0.83630 0.60400 0.21380 0.38100
C 	C 	0.82040 0.58970 0.19390 -0.17300
C 	C 	0.79320 0.59180 0.19220 0.11900
C 	C 	0.92196 0.61552 0.25850 0.35600
C 	C 	0.95019 0.61049 0.26599 -0.15000
C 	C 	0.96786 0.59907 0.24781 0.13300
O 	O 	0.85991 0.09935 0.71619 -0.50300
O 	O 	0.82557 0.12115 0.72847 -0.38500
O 	O 	0.73886 0.06220 0.65680 -0.66500
O 	O 	0.91274 0.10752 0.73720 -0.43400
O 	O 	0.90751 0.12787 0.77435 -0.46500
O 	O 	0.03585 0.07872 0.74523 -0.42900
O 	O 	0.11164 0.07032 0.71079 -0.43200
C 	C 	0.83630 0.10400 0.71380 0.38100
C 	C 	0.82040 0.08970 0.69390 -0.17300
C 	C 	0.79320 0.09180 0.69220 0.11900
C 	C 	0.92196 0.11552 0.75850 0.35600
C 	C 	0.95019 0.11049 0.76599 -0.15000
C 	C 	0.96786 0.09907 0.74781 0.13300
O 	O 	0.39009 0.65065 0.21619 -0.50300
O 	O 	0.42443 0.62885 0.22847 -0.38500
O 	O 	0.51114 0.68780 0.15680 -0.66500
O 	O 	0.33726 0.64248 0.23720 -0.43400
O 	O 	0.34249 0.62213 0.27435 -0.46500
O 	O 	0.21415 0.67128 0.24523 -0.42900
O 	O 	0.13836 0.67968 0.21079 -0.43200
C 	C 	0.41370 0.64600 0.21380 0.38100
C 	C 	0.42960 0.66030 0.19390 -0.17300
C 	C 	0.45680 0.65820 0.19220 0.11900
C 	C 	0.32804 0.63448 0.25850 0.35600
C 	C 	0.29981 0.63951 0.26599 -0.15100
C 	C 	0.28214 0.65093 0.24781 0.13300
O 	O 	0.39009 0.15065 0.71619 -0.50300
O 	O 	0.42443 0.12885 0.72847 -0.38500
O 	O 	0.51114 0.18780 0.65680 -0.66500
O 	O 	0.33726 0.14248 0.73720 -0.43400
O 	O 	0.34249 0.12213 0.77435 -0.46500
O 	O 	0.21415 0.17128 0.74523 -0.42900
O 	O 	0.13836 0.17968 0.71079 -0.43200
C 	C 	0.41370 0.14600 0.71380 0.38100
C 	C 	0.42960 0.16030 0.69390 -0.17300
C 	C 	0.45680 0.15820 0.69220 0.11900
C 	C 	0.32804 0.13448 0.75850 0.35600
C 	C 	0.29981 0.13951 0.76599 -0.15100
C 	C 	0.28214 0.15093 0.74781 0.13300
O 	O 	0.89009 0.65065 0.71619 -0.50300
O 	O 	0.92443 0.62885 0.72847 -0.38500
O 	O 	0.01114 0.68780 0.65680 -0.66500
O 	O 	0.83726 0.64248 0.73720 -0.43400
O 	O 	0.84249 0.62213 0.77435 -0.46500
O 	O 	0.71415 0.67128 0.74523 -0.42900
O 	O 	0.63836 0.67968 0.71079 -0.43200
C 	C 	0.91370 0.64600 0.71380 0.38100
C 	C 	0.92960 0.66030 0.69390 -0.17300
C 	C 	0.95680 0.65820 0.69220 0.11900
C 	C 	0.82804 0.63448 0.75850 0.35600
C 	C 	0.79981 0.63951 0.76599 -0.15100
C 	C 	0.78214 0.65093 0.74781 0.13300
O 	O 	0.89009 0.15065 0.21619 -0.50300
O 	O 	0.92443 0.12885 0.22847 -0.38500
O 	O 	0.01114 0.18780 0.15680 -0.66500
O 	O 	0.83726 0.14248 0.23720 -0.43400
O 	O 	0.84249 0.12213 0.27435 -0.46500
O 	O 	0.71415 0.17128 0.24523 -0.42900
O 	O 	0.63836 0.17968 0.21079 -0.43200
C 	C 	0.91370 0.14600 0.21380 0.38100
C 	C 	0.92960 0.16030 0.19390 -0.17300
C 	C 	0.95680 0.15820 0.19220 0.11900
C 	C 	0.82804 0.13448 0.25850 0.35600
C 	C 	0.79981 0.13951 0.26599 -0.15100
C 	C 	0.78214 0.15093 0.24781 0.13300
O 	O 	0.03381 0.89009 0.09935 -0.50400
O 	O 	0.02153 0.92443 0.12115 -0.38500
O 	O 	0.09320 0.01114 0.06220 -0.66500
O 	O 	0.01280 0.83726 0.10752 -0.43500
O 	O 	0.97565 0.84249 0.12787 -0.46500
O 	O 	0.00477 0.71415 0.07872 -0.42900
O 	O 	0.03921 0.63836 0.07032 -0.43200
C 	C 	0.03620 0.91370 0.10400 0.38100
C 	C 	0.05610 0.92960 0.08970 -0.17300
C 	C 	0.05780 0.95680 0.09180 0.11900
C 	C 	0.99150 0.82804 0.11552 0.35700
C 	C 	0.98401 0.79981 0.11049 -0.14900
C 	C 	0.00219 0.78214 0.09907 0.13000
O 	O 	0.03381 0.39009 0.59935 -0.50400
O 	O 	0.02153 0.42443 0.62115 -0.38500
O 	O 	0.09320 0.51114 0.56220 -0.66500
O 	O 	0.01280 0.33726 0.60752 -0.43500
O 	O 	0.97565 0.34249 0.62787 -0.46500
O 	O 	0.00477 0.21415 0.57872 -0.42900
O 	O 	0.03921 0.13836 0.57032 -0.43200
C 	C 	0.03620 0.41370 0.60400 0.38100
C 	C 	0.05610 0.42960 0.58970 -0.17300
C 	C 	0.05780 0.45680 0.59180 0.11900
C 	C 	0.99150 0.32804 0.61552 0.35700
C 	C 	0.98401 0.29981 0.61049 -0.14900
C 	C 	0.00219 0.28214 0.59907 0.13000
O 	O 	0.53381 0.89009 0.59935 -0.50300
O 	O 	0.52153 0.92443 0.62115 -0.38500
O 	O 	0.59320 0.01114 0.56220 -0.66500
O 	O 	0.51280 0.83726 0.60752 -0.43400
O 	O 	0.47565 0.84249 0.62787 -0.46500
O 	O 	0.50477 0.71415 0.57872 -0.42900
O 	O 	0.53921 0.63836 0.57032 -0.43200
C 	C 	0.53620 0.91370 0.60400 0.38100
C 	C 	0.55610 0.92960 0.58970 -0.17300
C 	C 	0.55780 0.95680 0.59180 0.11900
C 	C 	0.49150 0.82804 0.61552 0.35600
C 	C 	0.48401 0.79981 0.61049 -0.15100
C 	C 	0.50219 0.78214 0.59907 0.13300
O 	O 	0.53381 0.39009 0.09935 -0.50300
O 	O 	0.52153 0.42443 0.12115 -0.38500
O 	O 	0.59320 0.51114 0.06220 -0.66500
O 	O 	0.51280 0.33726 0.10752 -0.43400
O 	O 	0.47565 0.34249 0.12787 -0.46500
O 	O 	0.50477 0.21415 0.07872 -0.43000
O 	O 	0.53921 0.13836 0.07032 -0.43200
C 	C 	0.53620 0.41370 0.10400 0.38100
C 	C 	0.55610 0.42960 0.08970 -0.17300
C 	C 	0.55780 0.45680 0.09180 0.11900
C 	C 	0.49150 0.32804 0.11552 0.35600
C 	C 	0.48401 0.29981 0.11049 -0.15100
C 	C 	0.50219 0.28214 0.09907 0.13300
O 	O 	0.53381 0.85991 0.15065 -0.50300
O 	O 	0.52153 0.82557 0.12885 -0.38500
O 	O 	0.59320 0.73886 0.18780 -0.66500
O 	O 	0.51280 0.91274 0.14248 -0.43400
O 	O 	0.47565 0.90751 0.12213 -0.46500
O 	O 	0.50477 0.03585 0.17128 -0.42900
O 	O 	0.53921 0.11164 0.17968 -0.43200
C 	C 	0.53620 0.83630 0.14600 0.38100
C 	C 	0.55610 0.82040 0.16030 -0.17300
C 	C 	0.55780 0.79320 0.15820 0.11900
C 	C 	0.49150 0.92196 0.13448 0.35600
C 	C 	0.48401 0.95019 0.13951 -0.15000
C 	C 	0.50219 0.96786 0.15093 0.13300
O 	O 	0.53381 0.35991 0.65065 -0.50300
O 	O 	0.52153 0.32557 0.62885 -0.38500
O 	O 	0.59320 0.23886 0.68780 -0.66500
O 	O 	0.51280 0.41274 0.64248 -0.43400
O 	O 	0.47565 0.40751 0.62213 -0.46500
O 	O 	0.50477 0.53585 0.67128 -0.42900
O 	O 	0.53921 0.61164 0.67968 -0.43200
C 	C 	0.53620 0.33630 0.64600 0.38100
C 	C 	0.55610 0.32040 0.66030 -0.17300
C 	C 	0.55780 0.29320 0.65820 0.11900
C 	C 	0.49150 0.42196 0.63448 0.35600
C 	C 	0.48401 0.45019 0.63951 -0.15100
C 	C 	0.50219 0.46786 0.65093 0.13300
O 	O 	0.03381 0.85991 0.65065 -0.50400
O 	O 	0.02153 0.82557 0.62885 -0.38500
O 	O 	0.09320 0.73886 0.68780 -0.66500
O 	O 	0.01280 0.91274 0.64248 -0.43500
O 	O 	0.97565 0.90751 0.62213 -0.46500
O 	O 	0.00477 0.03585 0.67128 -0.42900
O 	O 	0.03921 0.11164 0.67968 -0.43200
C 	C 	0.03620 0.83630 0.64600 0.38100
C 	C 	0.05610 0.82040 0.66030 -0.17300
C 	C 	0.05780 0.79320 0.65820 0.11900
C 	C 	0.99150 0.92196 0.63448 0.35700
C 	C 	0.98401 0.95019 0.63951 -0.14900
C 	C 	0.00219 0.96786 0.65093 0.12900
O 	O 	0.03381 0.35991 0.15065 -0.50400
O 	O 	0.02153 0.32557 0.12885 -0.38500
O 	O 	0.09320 0.23886 0.18780 -0.66500
O 	O 	0.01280 0.41274 0.14248 -0.43500
O 	O 	0.97565 0.40751 0.12213 -0.46500
O 	O 	0.00477 0.53585 0.17128 -0.42900
O 	O 	0.03921 0.61164 0.17968 -0.43200
C 	C 	0.03620 0.33630 0.14600 0.38100
C 	C 	0.05610 0.32040 0.16030 -0.17300
C 	C 	0.05780 0.29320 0.15820 0.11900
C 	C 	0.99150 0.42196 0.13448 0.35700
C 	C 	0.98401 0.45019 0.13951 -0.14900
C 	C 	0.00219 0.46786 0.15093 0.13000
O 	O 	0.71619 0.35991 0.59935 -0.50300
O 	O 	0.72847 0.32557 0.62115 -0.38500
O 	O 	0.65680 0.23886 0.56220 -0.66500
O 	O 	0.73720 0.41274 0.60752 -0.43400
O 	O 	0.77435 0.40751 0.62787 -0.46500
O 	O 	0.74523 0.53585 0.57872 -0.42900
O 	O 	0.71079 0.61164 0.57032 -0.43200
C 	C 	0.71380 0.33630 0.60400 0.38100
C 	C 	0.69390 0.32040 0.58970 -0.17300
C 	C 	0.69220 0.29320 0.59180 0.11900
C 	C 	0.75850 0.42196 0.61552 0.35600
C 	C 	0.76599 0.45019 0.61049 -0.15100
C 	C 	0.74781 0.46786 0.59907 0.13300
O 	O 	0.71619 0.85991 0.09935 -0.50300
O 	O 	0.72847 0.82557 0.12115 -0.38500
O 	O 	0.65680 0.73886 0.06220 -0.66500
O 	O 	0.73720 0.91274 0.10752 -0.43400
O 	O 	0.77435 0.90751 0.12787 -0.46500
O 	O 	0.74523 0.03585 0.07872 -0.42900
O 	O 	0.71079 0.11164 0.07032 -0.43200
C 	C 	0.71380 0.83630 0.10400 0.38100
C 	C 	0.69390 0.82040 0.08970 -0.17300
C 	C 	0.69220 0.79320 0.09180 0.11900
C 	C 	0.75850 0.92196 0.11552 0.35600
C 	C 	0.76599 0.95019 0.11049 -0.15000
C 	C 	0.74781 0.96786 0.09907 0.13300
O 	O 	0.21619 0.35991 0.09935 -0.50300
O 	O 	0.22847 0.32557 0.12115 -0.38500
O 	O 	0.15680 0.23886 0.06220 -0.66500
O 	O 	0.23720 0.41274 0.10752 -0.43400
O 	O 	0.27435 0.40751 0.12787 -0.46500
O 	O 	0.24523 0.53585 0.07872 -0.43000
O 	O 	0.21079 0.61164 0.07032 -0.43200
C 	C 	0.21380 0.33630 0.10400 0.38100
C 	C 	0.19390 0.32040 0.08970 -0.17300
C 	C 	0.19220 0.29320 0.09180 0.11900
C 	C 	0.25850 0.42196 0.11552 0.35600
C 	C 	0.26599 0.45019 0.11049 -0.15100
C 	C 	0.24781 0.46786 0.09907 0.13300
O 	O 	0.21619 0.85991 0.59935 -0.50300
O 	O 	0.22847 0.82557 0.62115 -0.38500
O 	O 	0.15680 0.73886 0.56220 -0.66500
O 	O 	0.23720 0.91274 0.60752 -0.43400
O 	O 	0.27435 0.90751 0.62787 -0.46500
O 	O 	0.24523 0.03585 0.57872 -0.42900
O 	O 	0.21079 0.11164 0.57032 -0.43200
C 	C 	0.21380 0.83630 0.60400 0.38100
C 	C 	0.19390 0.82040 0.58970 -0.17300
C 	C 	0.19220 0.79320 0.59180 0.11900
C 	C 	0.25850 0.92196 0.61552 0.35600
C 	C 	0.26599 0.95019 0.61049 -0.15000
C 	C 	0.24781 0.96786 0.59907 0.13300
O 	O 	0.21619 0.39009 0.65065 -0.50300
O 	O 	0.22847 0.42443 0.62885 -0.38500
O 	O 	0.15680 0.51114 0.68780 -0.66500
O 	O 	0.23720 0.33726 0.64248 -0.43400
O 	O 	0.27435 0.34249 0.62213 -0.46500
O 	O 	0.24523 0.21415 0.67128 -0.42900
O 	O 	0.21079 0.13836 0.67968 -0.43200
C 	C 	0.21380 0.41370 0.64600 0.38100
C 	C 	0.19390 0.42960 0.66030 -0.17300
C 	C 	0.19220 0.45680 0.65820 0.11900
C 	C 	0.25850 0.32804 0.63448 0.35600
C 	C 	0.26599 0.29981 0.63951 -0.15100
C 	C 	0.24781 0.28214 0.65093 0.13300
O 	O 	0.21619 0.89009 0.15065 -0.50300
O 	O 	0.22847 0.92443 0.12885 -0.38500
O 	O 	0.15680 0.01114 0.18780 -0.66500
O 	O 	0.23720 0.83726 0.14248 -0.43400
O 	O 	0.27435 0.84249 0.12213 -0.46500
O 	O 	0.24523 0.71415 0.17128 -0.42900
O 	O 	0.21079 0.63836 0.17968 -0.43200
C 	C 	0.21380 0.91370 0.14600 0.38100
C 	C 	0.19390 0.92960 0.16030 -0.17300
C 	C 	0.19220 0.95680 0.15820 0.11900
C 	C 	0.25850 0.82804 0.13448 0.35600
C 	C 	0.26599 0.79981 0.13951 -0.15100
C 	C 	0.24781 0.78214 0.15093 0.13300
O 	O 	0.71619 0.39009 0.15065 -0.50300
O 	O 	0.72847 0.42443 0.12885 -0.38500
O 	O 	0.65680 0.51114 0.18780 -0.66500
O 	O 	0.73720 0.33726 0.14248 -0.43400
O 	O 	0.77435 0.34249 0.12213 -0.46500
O 	O 	0.74523 0.21415 0.17128 -0.42900
O 	O 	0.71079 0.13836 0.17968 -0.43200
C 	C 	0.71380 0.41370 0.14600 0.38100
C 	C 	0.69390 0.42960 0.16030 -0.17300
C 	C 	0.69220 0.45680 0.15820 0.11900
C 	C 	0.75850 0.32804 0.13448 0.35600
C 	C 	0.76599 0.29981 0.13951 -0.15100
C 	C 	0.74781 0.28214 0.15093 0.13300
O 	O 	0.71619 0.89009 0.65065 -0.50300
O 	O 	0.72847 0.92443 0.62885 -0.38500
O 	O 	0.65680 0.01114 0.68780 -0.66500
O 	O 	0.73720 0.83726 0.64248 -0.43400
O 	O 	0.77435 0.84249 0.62213 -0.46500
O 	O 	0.74523 0.71415 0.67128 -0.42900
O 	O 	0.71079 0.63836 0.67968 -0.43200
C 	C 	0.71380 0.91370 0.64600 0.38100
C 	C 	0.69390 0.92960 0.66030 -0.17300
C 	C 	0.69220 0.95680 0.65820 0.11900
C 	C 	0.75850 0.82804 0.63448 0.35600
C 	C 	0.76599 0.79981 0.63951 -0.15100
C 	C 	0.74781 0.78214 0.65093 0.13300
O 	O 	0.09935 0.03381 0.89009 -0.50400
O 	O 	0.12115 0.02153 0.92443 -0.38500
O 	O 	0.06220 0.09320 0.01114 -0.66500
O 	O 	0.10752 0.01280 0.83726 -0.43500
O 	O 	0.12787 0.97565 0.84249 -0.46500
O 	O 	0.07872 0.00477 0.71415 -0.42900
O 	O 	0.07032 0.03921 0.63836 -0.43200
C 	C 	0.10400 0.03620 0.91370 0.38100
C 	C 	0.08970 0.05610 0.92960 -0.17300
C 	C 	0.09180 0.05780 0.95680 0.11900
C 	C 	0.11552 0.99150 0.82804 0.35700
C 	C 	0.11049 0.98401 0.79981 -0.14900
C 	C 	0.09907 0.00219 0.78214 0.13000
O 	O 	0.09935 0.53381 0.39009 -0.50300
O 	O 	0.12115 0.52153 0.42443 -0.38500
O 	O 	0.06220 0.59320 0.51114 -0.66500
O 	O 	0.10752 0.51280 0.33726 -0.43400
O 	O 	0.12787 0.47565 0.34249 -0.46500
O 	O 	0.07872 0.50477 0.21415 -0.43000
O 	O 	0.07032 0.53921 0.13836 -0.43200
C 	C 	0.10400 0.53620 0.41370 0.38100
C 	C 	0.08970 0.55610 0.42960 -0.17300
C 	C 	0.09180 0.55780 0.45680 0.11900
C 	C 	0.11552 0.49150 0.32804 0.35600
C 	C 	0.11049 0.48401 0.29981 -0.15100
C 	C 	0.09907 0.50219 0.28214 0.13300
O 	O 	0.59935 0.03381 0.39009 -0.50400
O 	O 	0.62115 0.02153 0.42443 -0.38500
O 	O 	0.56220 0.09320 0.51114 -0.66500
O 	O 	0.60752 0.01280 0.33726 -0.43500
O 	O 	0.62787 0.97565 0.34249 -0.46500
O 	O 	0.57872 0.00477 0.21415 -0.42900
O 	O 	0.57032 0.03921 0.13836 -0.43200
C 	C 	0.60400 0.03620 0.41370 0.38100
C 	C 	0.58970 0.05610 0.42960 -0.17300
C 	C 	0.59180 0.05780 0.45680 0.11900
C 	C 	0.61552 0.99150 0.32804 0.35700
C 	C 	0.61049 0.98401 0.29981 -0.14900
C 	C 	0.59907 0.00219 0.28214 0.13000
O 	O 	0.59935 0.53381 0.89009 -0.50300
O 	O 	0.62115 0.52153 0.92443 -0.38500
O 	O 	0.56220 0.59320 0.01114 -0.66500
O 	O 	0.60752 0.51280 0.83726 -0.43400
O 	O 	0.62787 0.47565 0.84249 -0.46500
O 	O 	0.57872 0.50477 0.71415 -0.42900
O 	O 	0.57032 0.53921 0.63836 -0.43200
C 	C 	0.60400 0.53620 0.91370 0.38100
C 	C 	0.58970 0.55610 0.92960 -0.17300
C 	C 	0.59180 0.55780 0.95680 0.11900
C 	C 	0.61552 0.49150 0.82804 0.35600
C 	C 	0.61049 0.48401 0.79981 -0.15100
C 	C 	0.59907 0.50219 0.78214 0.13300
O 	O 	0.15065 0.53381 0.85991 -0.50300
O 	O 	0.12885 0.52153 0.82557 -0.38500
O 	O 	0.18780 0.59320 0.73886 -0.66500
O 	O 	0.14248 0.51280 0.91274 -0.43400
O 	O 	0.12213 0.47565 0.90751 -0.46500
O 	O 	0.17128 0.50477 0.03585 -0.42900
O 	O 	0.17968 0.53921 0.11164 -0.43200
C 	C 	0.14600 0.53620 0.83630 0.38100
C 	C 	0.16030 0.55610 0.82040 -0.17300
C 	C 	0.15820 0.55780 0.79320 0.11900
C 	C 	0.13448 0.49150 0.92196 0.35600
C 	C 	0.13951 0.48401 0.95019 -0.15000
C 	C 	0.15093 0.50219 0.96786 0.13300
O 	O 	0.15065 0.03381 0.35991 -0.50400
O 	O 	0.12885 0.02153 0.32557 -0.38500
O 	O 	0.18780 0.09320 0.23886 -0.66500
O 	O 	0.14248 0.01280 0.41274 -0.43500
O 	O 	0.12213 0.97565 0.40751 -0.46500
O 	O 	0.17128 0.00477 0.53585 -0.42900
O 	O 	0.17968 0.03921 0.61164 -0.43200
C 	C 	0.14600 0.03620 0.33630 0.38100
C 	C 	0.16030 0.05610 0.32040 -0.17300
C 	C 	0.15820 0.05780 0.29320 0.11900
C 	C 	0.13448 0.99150 0.42196 0.35700
C 	C 	0.13951 0.98401 0.45019 -0.14900
C 	C 	0.15093 0.00219 0.46786 0.13000
O 	O 	0.65065 0.53381 0.35991 -0.50300
O 	O 	0.62885 0.52153 0.32557 -0.38500
O 	O 	0.68780 0.59320 0.23886 -0.66500
O 	O 	0.64248 0.51280 0.41274 -0.43400
O 	O 	0.62213 0.47565 0.40751 -0.46500
O 	O 	0.67128 0.50477 0.53585 -0.42900
O 	O 	0.67968 0.53921 0.61164 -0.43200
C 	C 	0.64600 0.53620 0.33630 0.38100
C 	C 	0.66030 0.55610 0.32040 -0.17300
C 	C 	0.65820 0.55780 0.29320 0.11900
C 	C 	0.63448 0.49150 0.42196 0.35600
C 	C 	0.63951 0.48401 0.45019 -0.15100
C 	C 	0.65093 0.50219 0.46786 0.13300
O 	O 	0.65065 0.03381 0.85991 -0.50400
O 	O 	0.62885 0.02153 0.82557 -0.38500
O 	O 	0.68780 0.09320 0.73886 -0.66500
O 	O 	0.64248 0.01280 0.91274 -0.43500
O 	O 	0.62213 0.97565 0.90751 -0.46500
O 	O 	0.67128 0.00477 0.03585 -0.42900
O 	O 	0.67968 0.03921 0.11164 -0.43200
C 	C 	0.64600 0.03620 0.83630 0.38100
C 	C 	0.66030 0.05610 0.82040 -0.17300
C 	C 	0.65820 0.05780 0.79320 0.11900
C 	C 	0.63448 0.99150 0.92196 0.35700
C 	C 	0.63951 0.98401 0.95019 -0.14900
C 	C 	0.65093 0.00219 0.96786 0.12900
O 	O 	0.59935 0.71619 0.35991 -0.50300
O 	O 	0.62115 0.72847 0.32557 -0.38500
O 	O 	0.56220 0.65680 0.23886 -0.66500
O 	O 	0.60752 0.73720 0.41274 -0.43400
O 	O 	0.62787 0.77435 0.40751 -0.46500
O 	O 	0.57872 0.74523 0.53585 -0.42900
O 	O 	0.57032 0.71079 0.61164 -0.43200
C 	C 	0.60400 0.71380 0.33630 0.38100
C 	C 	0.58970 0.69390 0.32040 -0.17300
C 	C 	0.59180 0.69220 0.29320 0.11900
C 	C 	0.61552 0.75850 0.42196 0.35600
C 	C 	0.61049 0.76599 0.45019 -0.15100
C 	C 	0.59907 0.74781 0.46786 0.13300
O 	O 	0.59935 0.21619 0.85991 -0.50300
O 	O 	0.62115 0.22847 0.82557 -0.38500
O 	O 	0.56220 0.15680 0.73886 -0.66500
O 	O 	0.60752 0.23720 0.91274 -0.43400
O 	O 	0.62787 0.27435 0.90751 -0.46500
O 	O 	0.57872 0.24523 0.03585 -0.42900
O 	O 	0.57032 0.21079 0.11164 -0.43200
C 	C 	0.60400 0.21380 0.83630 0.38100
C 	C 	0.58970 0.19390 0.82040 -0.17300
C 	C 	0.59180 0.19220 0.79320 0.11900
C 	C 	0.61552 0.25850 0.92196 0.35600
C 	C 	0.61049 0.26599 0.95019 -0.15000
C 	C 	0.59907 0.24781 0.96786 0.13300
O 	O 	0.09935 0.71619 0.85991 -0.50300
O 	O 	0.12115 0.72847 0.82557 -0.38500
O 	O 	0.06220 0.65680 0.73886 -0.66500
O 	O 	0.10752 0.73720 0.91274 -0.43400
O 	O 	0.12787 0.77435 0.90751 -0.46500
O 	O 	0.07872 0.74523 0.03585 -0.42900
O 	O 	0.07032 0.71079 0.11164 -0.43200
C 	C 	0.10400 0.71380 0.83630 0.38100
C 	C 	0.08970 0.69390 0.82040 -0.17300
C 	C 	0.09180 0.69220 0.79320 0.11900
C 	C 	0.11552 0.75850 0.92196 0.35600
C 	C 	0.11049 0.76599 0.95019 -0.15000
C 	C 	0.09907 0.74781 0.96786 0.13300
O 	O 	0.09935 0.21619 0.35991 -0.50300
O 	O 	0.12115 0.22847 0.32557 -0.38500
O 	O 	0.06220 0.15680 0.23886 -0.66500
O 	O 	0.10752 0.23720 0.41274 -0.43400
O 	O 	0.12787 0.27435 0.40751 -0.46500
O 	O 	0.07872 0.24523 0.53585 -0.43000
O 	O 	0.07032 0.21079 0.61164 -0.43200
C 	C 	0.10400 0.21380 0.33630 0.38100
C 	C 	0.08970 0.19390 0.32040 -0.17300
C 	C 	0.09180 0.19220 0.29320 0.11900
C 	C 	0.11552 0.25850 0.42196 0.35600
C 	C 	0.11049 0.26599 0.45019 -0.15100
C 	C 	0.09907 0.24781 0.46786 0.13300
O 	O 	0.65065 0.21619 0.39009 -0.50300
O 	O 	0.62885 0.22847 0.42443 -0.38500
O 	O 	0.68780 0.15680 0.51114 -0.66500
O 	O 	0.64248 0.23720 0.33726 -0.43400
O 	O 	0.62213 0.27435 0.34249 -0.46500
O 	O 	0.67128 0.24523 0.21415 -0.42900
O 	O 	0.67968 0.21079 0.13836 -0.43200
C 	C 	0.64600 0.21380 0.41370 0.38100
C 	C 	0.66030 0.19390 0.42960 -0.17300
C 	C 	0.65820 0.19220 0.45680 0.11900
C 	C 	0.63448 0.25850 0.32804 0.35600
C 	C 	0.63951 0.26599 0.29981 -0.15100
C 	C 	0.65093 0.24781 0.28214 0.13300
O 	O 	0.65065 0.71619 0.89009 -0.50300
O 	O 	0.62885 0.72847 0.92443 -0.38500
O 	O 	0.68780 0.65680 0.01114 -0.66500
O 	O 	0.64248 0.73720 0.83726 -0.43400
O 	O 	0.62213 0.77435 0.84249 -0.46500
O 	O 	0.67128 0.74523 0.71415 -0.42900
O 	O 	0.67968 0.71079 0.63836 -0.43200
C 	C 	0.64600 0.71380 0.91370 0.38100
C 	C 	0.66030 0.69390 0.92960 -0.17300
C 	C 	0.65820 0.69220 0.95680 0.11900
C 	C 	0.63448 0.75850 0.82804 0.35600
C 	C 	0.63951 0.76599 0.79981 -0.15100
C 	C 	0.65093 0.74781 0.78214 0.13300
O 	O 	0.15065 0.21619 0.89009 -0.50300
O 	O 	0.12885 0.22847 0.92443 -0.38500
O 	O 	0.18780 0.15680 0.01114 -0.66500
O 	O 	0.14248 0.23720 0.83726 -0.43400
O 	O 	0.12213 0.27435 0.84249 -0.46500
O 	O 	0.17128 0.24523 0.71415 -0.42900
O 	O 	0.17968 0.21079 0.63836 -0.43200
C 	C 	0.14600 0.21380 0.91370 0.38100
C 	C 	0.16030 0.19390 0.92960 -0.17300
C 	C 	0.15820 0.19220 0.95680 0.11900
C 	C 	0.13448 0.25850 0.82804 0.35600
C 	C 	0.13951 0.26599 0.79981 -0.15100
C 	C 	0.15093 0.24781 0.78214 0.13300
O 	O 	0.15065 0.71619 0.39009 -0.50300
O 	O 	0.12885 0.72847 0.42443 -0.38500
O 	O 	0.18780 0.65680 0.51114 -0.66500
O 	O 	0.14248 0.73720 0.33726 -0.43400
O 	O 	0.12213 0.77435 0.34249 -0.46500
O 	O 	0.17128 0.74523 0.21415 -0.42900
O 	O 	0.17968 0.71079 0.13836 -0.43200
C 	C 	0.14600 0.71380 0.41370 0.38100
C 	C 	0.16030 0.69390 0.42960 -0.17300
C 	C 	0.15820 0.69220 0.45680 0.11900
C 	C 	0.13448 0.75850 0.32804 0.35600
C 	C 	0.13951 0.76599 0.29981 -0.15100
C 	C 	0.15093 0.74781 0.28214 0.13300
O 	O 	0.84935 0.14009 0.46619 -0.50300
O 	O 	0.87115 0.17443 0.47847 -0.38500
O 	O 	0.81220 0.26114 0.40680 -0.66500
O 	O 	0.85752 0.08726 0.48720 -0.43400
O 	O 	0.87787 0.09249 0.52435 -0.46500
O 	O 	0.82872 0.96415 0.49523 -0.43000
O 	O 	0.82032 0.88836 0.46079 -0.43200
C 	C 	0.85400 0.16370 0.46380 0.38100
C 	C 	0.83970 0.17960 0.44390 -0.17300
C 	C 	0.84180 0.20680 0.44220 0.11900
C 	C 	0.86552 0.07804 0.50850 0.35600
C 	C 	0.86049 0.04981 0.51599 -0.15200
C 	C 	0.84907 0.03214 0.49781 0.13400
O 	O 	0.84935 0.64009 0.96619 -0.50300
O 	O 	0.87115 0.67443 0.97847 -0.38400
O 	O 	0.81220 0.76114 0.90680 -0.66500
O 	O 	0.85752 0.58726 0.98720 -0.43300
O 	O 	0.87787 0.59249 0.02435 -0.46500
O 	O 	0.82872 0.46415 0.99523 -0.43000
O 	O 	0.82032 0.38836 0.96079 -0.43200
C 	C 	0.85400 0.66370 0.96380 0.38100
C 	C 	0.83970 0.67960 0.94390 -0.17300
C 	C 	0.84180 0.70680 0.94220 0.11900
C 	C 	0.86552 0.57804 0.00850 0.35500
C 	C 	0.86049 0.54981 0.01599 -0.15300
C 	C 	0.84907 0.53214 0.99781 0.13600
O 	O 	0.34935 0.14009 0.96619 -0.50300
O 	O 	0.37115 0.17443 0.97847 -0.38400
O 	O 	0.31220 0.26114 0.90680 -0.66500
O 	O 	0.35752 0.08726 0.98720 -0.43300
O 	O 	0.37787 0.09249 0.02435 -0.46500
O 	O 	0.32872 0.96415 0.99523 -0.43000
O 	O 	0.32032 0.88836 0.96079 -0.43200
C 	C 	0.35400 0.16370 0.96380 0.38100
C 	C 	0.33970 0.17960 0.94390 -0.17300
C 	C 	0.34180 0.20680 0.94220 0.11900
C 	C 	0.36552 0.07804 0.00850 0.35500
C 	C 	0.36049 0.04981 0.01599 -0.15400
C 	C 	0.34907 0.03214 0.99781 0.13700
O 	O 	0.34935 0.64009 0.46619 -0.50300
O 	O 	0.37115 0.67443 0.47847 -0.38500
O 	O 	0.31220 0.76114 0.40680 -0.66500
O 	O 	0.35752 0.58726 0.48720 -0.43400
O 	O 	0.37787 0.59249 0.52435 -0.46500
O 	O 	0.32872 0.46415 0.49523 -0.42900
O 	O 	0.32032 0.38836 0.46079 -0.43200
C 	C 	0.35400 0.66370 0.46380 0.38100
C 	C 	0.33970 0.67960 0.44390 -0.17300
C 	C 	0.34180 0.70680 0.44220 0.11900
C 	C 	0.36552 0.57804 0.50850 0.35600
C 	C 	0.36049 0.54981 0.51599 -0.15100
C 	C 	0.34907 0.53214 0.49781 0.13300
O 	O 	0.90065 0.10991 0.96619 -0.50300
O 	O 	0.87885 0.07557 0.97847 -0.38400
O 	O 	0.93780 0.98886 0.90680 -0.66500
O 	O 	0.89248 0.16274 0.98720 -0.43300
O 	O 	0.87213 0.15751 0.02435 -0.46500
O 	O 	0.92128 0.28585 0.99523 -0.42900
O 	O 	0.92968 0.36164 0.96079 -0.43200
C 	C 	0.89600 0.08630 0.96380 0.38100
C 	C 	0.91030 0.07040 0.94390 -0.17300
C 	C 	0.90820 0.04320 0.94220 0.11900
C 	C 	0.88448 0.17196 0.00850 0.35500
C 	C 	0.88951 0.20019 0.01599 -0.15300
C 	C 	0.90093 0.21786 0.99781 0.13700
O 	O 	0.90065 0.60991 0.46619 -0.50300
O 	O 	0.87885 0.57557 0.47847 -0.38500
O 	O 	0.93780 0.48886 0.40680 -0.66500
O 	O 	0.89248 0.66274 0.48720 -0.43400
O 	O 	0.87213 0.65751 0.52435 -0.46500
O 	O 	0.92128 0.78585 0.49523 -0.42900
O 	O 	0.92968 0.86164 0.46079 -0.43200
C 	C 	0.89600 0.58630 0.46380 0.38100
C 	C 	0.91030 0.57040 0.44390 -0.17300
C 	C 	0.90820 0.54320 0.44220 0.11900
C 	C 	0.88448 0.67196 0.50850 0.35600
C 	C 	0.88951 0.70019 0.51599 -0.15100
C 	C 	0.90093 0.71786 0.49781 0.13300
O 	O 	0.40065 0.10991 0.46619 -0.50300
O 	O 	0.37885 0.07557 0.47847 -0.38500
O 	O 	0.43780 0.98886 0.40680 -0.66500
O 	O 	0.39248 0.16274 0.48720 -0.43400
O 	O 	0.37213 0.15751 0.52435 -0.46500
O 	O 	0.42128 0.28585 0.49523 -0.42900
O 	O 	0.42968 0.36164 0.46079 -0.43200
C 	C 	0.39600 0.08630 0.46380 0.38100
C 	C 	0.41030 0.07040 0.44390 -0.17300
C 	C 	0.40820 0.04320 0.44220 0.11900
C 	C 	0.38448 0.17196 0.50850 0.35600
C 	C 	0.38951 0.20019 0.51599 -0.15100
C 	C 	0.40093 0.21786 0.49781 0.13300
O 	O 	0.40065 0.60991 0.96619 -0.50300
O 	O 	0.37885 0.57557 0.97847 -0.38400
O 	O 	0.43780 0.48886 0.90680 -0.66500
O 	O 	0.39248 0.66274 0.98720 -0.43300
O 	O 	0.37213 0.65751 0.02435 -0.46500
O 	O 	0.42128 0.78585 0.99523 -0.43000
O 	O 	0.42968 0.86164 0.96079 -0.43200
C 	C 	0.39600 0.58630 0.96380 0.38100
C 	C 	0.41030 0.57040 0.94390 -0.17300
C 	C 	0.40820 0.54320 0.94220 0.11900
C 	C 	0.38448 0.67196 0.00850 0.35500
C 	C 	0.38951 0.70019 0.01599 -0.15300
C 	C 	0.40093 0.71786 0.99781 0.13600
O 	O 	0.34935 0.60991 0.78381 -0.50300
O 	O 	0.37115 0.57557 0.77153 -0.38500
O 	O 	0.31220 0.48886 0.84320 -0.66500
O 	O 	0.35752 0.66274 0.76280 -0.43400
O 	O 	0.37787 0.65751 0.72565 -0.46500
O 	O 	0.32872 0.78585 0.75477 -0.42900
O 	O 	0.32032 0.86164 0.78921 -0.43200
C 	C 	0.35400 0.58630 0.78620 0.38100
C 	C 	0.33970 0.57040 0.80610 -0.17300
C 	C 	0.34180 0.54320 0.80780 0.11900
C 	C 	0.36552 0.67196 0.74150 0.35600
C 	C 	0.36049 0.70019 0.73401 -0.15100
C 	C 	0.34907 0.71786 0.75219 0.13300
O 	O 	0.34935 0.10991 0.28381 -0.50300
O 	O 	0.37115 0.07557 0.27153 -0.38500
O 	O 	0.31220 0.98886 0.34320 -0.66500
O 	O 	0.35752 0.16274 0.26280 -0.43400
O 	O 	0.37787 0.15751 0.22565 -0.46500
O 	O 	0.32872 0.28585 0.25477 -0.42900
O 	O 	0.32032 0.36164 0.28921 -0.43200
C 	C 	0.35400 0.08630 0.28620 0.38100
C 	C 	0.33970 0.07040 0.30610 -0.17300
C 	C 	0.34180 0.04320 0.30780 0.11900
C 	C 	0.36552 0.17196 0.24150 0.35600
C 	C 	0.36049 0.20019 0.23401 -0.15100
C 	C 	0.34907 0.21786 0.25219 0.13300
O 	O 	0.84935 0.60991 0.28381 -0.50300
O 	O 	0.87115 0.57557 0.27153 -0.38500
O 	O 	0.81220 0.48886 0.34320 -0.66500
O 	O 	0.85752 0.66274 0.26280 -0.43400
O 	O 	0.87787 0.65751 0.22565 -0.46500
O 	O 	0.82872 0.78585 0.25477 -0.42900
O 	O 	0.82032 0.86164 0.28921 -0.43200
C 	C 	0.85400 0.58630 0.28620 0.38100
C 	C 	0.83970 0.57040 0.30610 -0.17300
C 	C 	0.84180 0.54320 0.30780 0.11900
C 	C 	0.86552 0.67196 0.24150 0.35600
C 	C 	0.86049 0.70019 0.23401 -0.15100
C 	C 	0.84907 0.71786 0.25219 0.13300
O 	O 	0.84935 0.10991 0.78381 -0.50300
O 	O 	0.87115 0.07557 0.77153 -0.38500
O 	O 	0.81220 0.98886 0.84320 -0.66500
O 	O 	0.85752 0.16274 0.76280 -0.43400
O 	O 	0.87787 0.15751 0.72565 -0.46500
O 	O 	0.82872 0.28585 0.75477 -0.42900
O 	O 	0.82032 0.36164 0.78921 -0.43200
C 	C 	0.85400 0.08630 0.78620 0.38100
C 	C 	0.83970 0.07040 0.80610 -0.17300
C 	C 	0.84180 0.04320 0.80780 0.11900
C 	C 	0.86552 0.17196 0.74150 0.35600
C 	C 	0.86049 0.20019 0.73401 -0.15100
C 	C 	0.84907 0.21786 0.75219 0.13300
O 	O 	0.40065 0.64009 0.28381 -0.50300
O 	O 	0.37885 0.67443 0.27153 -0.38500
O 	O 	0.43780 0.76114 0.34320 -0.66500
O 	O 	0.39248 0.58726 0.26280 -0.43400
O 	O 	0.37213 0.59249 0.22565 -0.46500
O 	O 	0.42128 0.46415 0.25477 -0.42900
O 	O 	0.42968 0.38836 0.28921 -0.43200
C 	C 	0.39600 0.66370 0.28620 0.38100
C 	C 	0.41030 0.67960 0.30610 -0.17300
C 	C 	0.40820 0.70680 0.30780 0.11900
C 	C 	0.38448 0.57804 0.24150 0.35600
C 	C 	0.38951 0.54981 0.23401 -0.15100
C 	C 	0.40093 0.53214 0.25219 0.13300
O 	O 	0.40065 0.14009 0.78381 -0.50300
O 	O 	0.37885 0.17443 0.77153 -0.38500
O 	O 	0.43780 0.26114 0.84320 -0.66500
O 	O 	0.39248 0.08726 0.76280 -0.43400
O 	O 	0.37213 0.09249 0.72565 -0.46500
O 	O 	0.42128 0.96415 0.75477 -0.43000
O 	O 	0.42968 0.88836 0.78921 -0.43200
C 	C 	0.39600 0.16370 0.78620 0.38100
C 	C 	0.41030 0.17960 0.80610 -0.17300
C 	C 	0.40820 0.20680 0.80780 0.11900
C 	C 	0.38448 0.07804 0.74150 0.35600
C 	C 	0.38951 0.04981 0.73401 -0.15200
C 	C 	0.40093 0.03214 0.75219 0.13400
O 	O 	0.90065 0.64009 0.78381 -0.50300
O 	O 	0.87885 0.67443 0.77153 -0.38500
O 	O 	0.93780 0.76114 0.84320 -0.66500
O 	O 	0.89248 0.58726 0.76280 -0.43400
O 	O 	0.87213 0.59249 0.72565 -0.46500
O 	O 	0.92128 0.46415 0.75477 -0.42900
O 	O 	0.92968 0.38836 0.78921 -0.43200
C 	C 	0.89600 0.66370 0.78620 0.38100
C 	C 	0.91030 0.67960 0.80610 -0.17300
C 	C 	0.90820 0.70680 0.80780 0.11900
C 	C 	0.88448 0.57804 0.74150 0.35600
C 	C 	0.88951 0.54981 0.73401 -0.15100
C 	C 	0.90093 0.53214 0.75219 0.13300
O 	O 	0.90065 0.14009 0.28381 -0.50300
O 	O 	0.87885 0.17443 0.27153 -0.38500
O 	O 	0.93780 0.26114 0.34320 -0.66500
O 	O 	0.89248 0.08726 0.26280 -0.43400
O 	O 	0.87213 0.09249 0.22565 -0.46500
O 	O 	0.92128 0.96415 0.25477 -0.43000
O 	O 	0.92968 0.88836 0.28921 -0.43200
C 	C 	0.89600 0.16370 0.28620 0.38100
C 	C 	0.91030 0.17960 0.30610 -0.17300
C 	C 	0.90820 0.20680 0.30780 0.11900
C 	C 	0.88448 0.07804 0.24150 0.35600
C 	C 	0.88951 0.04981 0.23401 -0.15200
C 	C 	0.90093 0.03214 0.25219 0.13400
O 	O 	0.64009 0.28381 0.40065 -0.50300
O 	O 	0.67443 0.27153 0.37885 -0.38500
O 	O 	0.76114 0.34320 0.43780 -0.66500
O 	O 	0.58726 0.26280 0.39248 -0.43400
O 	O 	0.59249 0.22565 0.37213 -0.46500
O 	O 	0.46415 0.25477 0.42128 -0.42900
O 	O 	0.38836 0.28921 0.42968 -0.43200
C 	C 	0.66370 0.28620 0.39600 0.38100
C 	C 	0.67960 0.30610 0.41030 -0.17300
C 	C 	0.70680 0.30780 0.40820 0.11900
C 	C 	0.57804 0.24150 0.38448 0.35600
C 	C 	0.54981 0.23401 0.38951 -0.15100
C 	C 	0.53214 0.25219 0.40093 0.13300
O 	O 	0.64009 0.78381 0.90065 -0.50300
O 	O 	0.67443 0.77153 0.87885 -0.38500
O 	O 	0.76114 0.84320 0.93780 -0.66500
O 	O 	0.58726 0.76280 0.89248 -0.43400
O 	O 	0.59249 0.72565 0.87213 -0.46500
O 	O 	0.46415 0.75477 0.92128 -0.42900
O 	O 	0.38836 0.78921 0.92968 -0.43200
C 	C 	0.66370 0.78620 0.89600 0.38100
C 	C 	0.67960 0.80610 0.91030 -0.17300
C 	C 	0.70680 0.80780 0.90820 0.11900
C 	C 	0.57804 0.74150 0.88448 0.35600
C 	C 	0.54981 0.73401 0.88951 -0.15100
C 	C 	0.53214 0.75219 0.90093 0.13300
O 	O 	0.14009 0.28381 0.90065 -0.50300
O 	O 	0.17443 0.27153 0.87885 -0.38500
O 	O 	0.26114 0.34320 0.93780 -0.66500
O 	O 	0.08726 0.26280 0.89248 -0.43400
O 	O 	0.09249 0.22565 0.87213 -0.46500
O 	O 	0.96415 0.25477 0.92128 -0.43000
O 	O 	0.88836 0.28921 0.92968 -0.43200
C 	C 	0.16370 0.28620 0.89600 0.38100
C 	C 	0.17960 0.30610 0.91030 -0.17300
C 	C 	0.20680 0.30780 0.90820 0.11900
C 	C 	0.07804 0.24150 0.88448 0.35600
C 	C 	0.04981 0.23401 0.88951 -0.15200
C 	C 	0.03214 0.25219 0.90093 0.13400
O 	O 	0.14009 0.78381 0.40065 -0.50300
O 	O 	0.17443 0.77153 0.37885 -0.38500
O 	O 	0.26114 0.84320 0.43780 -0.66500
O 	O 	0.08726 0.76280 0.39248 -0.43400
O 	O 	0.09249 0.72565 0.37213 -0.46500
O 	O 	0.96415 0.75477 0.42128 -0.43000
O 	O 	0.88836 0.78921 0.42968 -0.43200
C 	C 	0.16370 0.78620 0.39600 0.38100
C 	C 	0.17960 0.80610 0.41030 -0.17300
C 	C 	0.20680 0.80780 0.40820 0.11900
C 	C 	0.07804 0.74150 0.38448 0.35600
C 	C 	0.04981 0.73401 0.38951 -0.15200
C 	C 	0.03214 0.75219 0.40093 0.13400
O 	O 	0.60991 0.78381 0.34935 -0.50300
O 	O 	0.57557 0.77153 0.37115 -0.38500
O 	O 	0.48886 0.84320 0.31220 -0.66500
O 	O 	0.66274 0.76280 0.35752 -0.43400
O 	O 	0.65751 0.72565 0.37787 -0.46500
O 	O 	0.78585 0.75477 0.32872 -0.42900
O 	O 	0.86164 0.78921 0.32032 -0.43200
C 	C 	0.58630 0.78620 0.35400 0.38100
C 	C 	0.57040 0.80610 0.33970 -0.17300
C 	C 	0.54320 0.80780 0.34180 0.11900
C 	C 	0.67196 0.74150 0.36552 0.35600
C 	C 	0.70019 0.73401 0.36049 -0.15100
C 	C 	0.71786 0.75219 0.34907 0.13300
O 	O 	0.60991 0.28381 0.84935 -0.50300
O 	O 	0.57557 0.27153 0.87115 -0.38500
O 	O 	0.48886 0.34320 0.81220 -0.66500
O 	O 	0.66274 0.26280 0.85752 -0.43400
O 	O 	0.65751 0.22565 0.87787 -0.46500
O 	O 	0.78585 0.25477 0.82872 -0.42900
O 	O 	0.86164 0.28921 0.82032 -0.43200
C 	C 	0.58630 0.28620 0.85400 0.38100
C 	C 	0.57040 0.30610 0.83970 -0.17300
C 	C 	0.54320 0.30780 0.84180 0.11900
C 	C 	0.67196 0.24150 0.86552 0.35600
C 	C 	0.70019 0.23401 0.86049 -0.15100
C 	C 	0.71786 0.25219 0.84907 0.13300
O 	O 	0.10991 0.78381 0.84935 -0.50300
O 	O 	0.07557 0.77153 0.87115 -0.38500
O 	O 	0.98886 0.84320 0.81220 -0.66500
O 	O 	0.16274 0.76280 0.85752 -0.43400
O 	O 	0.15751 0.72565 0.87787 -0.46500
O 	O 	0.28585 0.75477 0.82872 -0.42900
O 	O 	0.36164 0.78921 0.82032 -0.43200
C 	C 	0.08630 0.78620 0.85400 0.38100
C 	C 	0.07040 0.80610 0.83970 -0.17300
C 	C 	0.04320 0.80780 0.84180 0.11900
C 	C 	0.17196 0.74150 0.86552 0.35600
C 	C 	0.20019 0.73401 0.86049 -0.15100
C 	C 	0.21786 0.75219 0.84907 0.13300
O 	O 	0.10991 0.28381 0.34935 -0.50300
O 	O 	0.07557 0.27153 0.37115 -0.38500
O 	O 	0.98886 0.34320 0.31220 -0.66500
O 	O 	0.16274 0.26280 0.35752 -0.43400
O 	O 	0.15751 0.22565 0.37787 -0.46500
O 	O 	0.28585 0.25477 0.32872 -0.42900
O 	O 	0.36164 0.28921 0.32032 -0.43200
C 	C 	0.08630 0.28620 0.35400 0.38100
C 	C 	0.07040 0.30610 0.33970 -0.17300
C 	C 	0.04320 0.30780 0.34180 0.11900
C 	C 	0.17196 0.24150 0.36552 0.35600
C 	C 	0.20019 0.23401 0.36049 -0.15100
C 	C 	0.21786 0.25219 0.34907 0.13300
O 	O 	0.10991 0.96619 0.90065 -0.50300
O 	O 	0.07557 0.97847 0.87885 -0.38400
O 	O 	0.98886 0.90680 0.93780 -0.66500
O 	O 	0.16274 0.98720 0.89248 -0.43300
O 	O 	0.15751 0.02435 0.87213 -0.46500
O 	O 	0.28585 0.99523 0.92128 -0.42900
O 	O 	0.36164 0.96079 0.92968 -0.43200
C 	C 	0.08630 0.96380 0.89600 0.38100
C 	C 	0.07040 0.94390 0.91030 -0.17300
C 	C 	0.04320 0.94220 0.90820 0.11900
C 	C 	0.17196 0.00850 0.88448 0.35500
C 	C 	0.20019 0.01599 0.88951 -0.15300
C 	C 	0.21786 0.99781 0.90093 0.13700
O 	O 	0.10991 0.46619 0.40065 -0.50300
O 	O 	0.07557 0.47847 0.37885 -0.38500
O 	O 	0.98886 0.40680 0.43780 -0.66500
O 	O 	0.16274 0.48720 0.39248 -0.43400
O 	O 	0.15751 0.52435 0.37213 -0.46500
O 	O 	0.28585 0.49523 0.42128 -0.42900
O 	O 	0.36164 0.46079 0.42968 -0.43200
C 	C 	0.08630 0.46380 0.39600 0.38100
C 	C 	0.07040 0.44390 0.41030 -0.17300
C 	C 	0.04320 0.44220 0.40820 0.11900
C 	C 	0.17196 0.50850 0.38448 0.35600
C 	C 	0.20019 0.51599 0.38951 -0.15100
C 	C 	0.21786 0.49781 0.40093 0.13300
O 	O 	0.60991 0.96619 0.40065 -0.50300
O 	O 	0.57557 0.97847 0.37885 -0.38400
O 	O 	0.48886 0.90680 0.43780 -0.66500
O 	O 	0.66274 0.98720 0.39248 -0.43300
O 	O 	0.65751 0.02435 0.37213 -0.46500
O 	O 	0.78585 0.99523 0.42128 -0.43000
O 	O 	0.86164 0.96079 0.42968 -0.43200
C 	C 	0.58630 0.96380 0.39600 0.38100
C 	C 	0.57040 0.94390 0.41030 -0.17300
C 	C 	0.54320 0.94220 0.40820 0.11900
C 	C 	0.67196 0.00850 0.38448 0.35500
C 	C 	0.70019 0.01599 0.38951 -0.15300
C 	C 	0.71786 0.99781 0.40093 0.13600
O 	O 	0.60991 0.46619 0.90065 -0.50300
O 	O 	0.57557 0.47847 0.87885 -0.38500
O 	O 	0.48886 0.40680 0.93780 -0.66500
O 	O 	0.66274 0.48720 0.89248 -0.43400
O 	O 	0.65751 0.52435 0.87213 -0.46500
O 	O 	0.78585 0.49523 0.92128 -0.42900
O 	O 	0.86164 0.46079 0.92968 -0.43200
C 	C 	0.58630 0.46380 0.89600 0.38100
C 	C 	0.57040 0.44390 0.91030 -0.17300
C 	C 	0.54320 0.44220 0.90820 0.11900
C 	C 	0.67196 0.50850 0.88448 0.35600
C 	C 	0.70019 0.51599 0.88951 -0.15100
C 	C 	0.71786 0.49781 0.90093 0.13300
O 	O 	0.14009 0.46619 0.84935 -0.50300
O 	O 	0.17443 0.47847 0.87115 -0.38500
O 	O 	0.26114 0.40680 0.81220 -0.66500
O 	O 	0.08726 0.48720 0.85752 -0.43400
O 	O 	0.09249 0.52435 0.87787 -0.46500
O 	O 	0.96415 0.49523 0.82872 -0.43000
O 	O 	0.88836 0.46079 0.82032 -0.43200
C 	C 	0.16370 0.46380 0.85400 0.38100
C 	C 	0.17960 0.44390 0.83970 -0.17300
C 	C 	0.20680 0.44220 0.84180 0.11900
C 	C 	0.07804 0.50850 0.86552 0.35600
C 	C 	0.04981 0.51599 0.86049 -0.15200
C 	C 	0.03214 0.49781 0.84907 0.13400
O 	O 	0.14009 0.96619 0.34935 -0.50300
O 	O 	0.17443 0.97847 0.37115 -0.38400
O 	O 	0.26114 0.90680 0.31220 -0.66500
O 	O 	0.08726 0.98720 0.35752 -0.43300
O 	O 	0.09249 0.02435 0.37787 -0.46500
O 	O 	0.96415 0.99523 0.32872 -0.43000
O 	O 	0.88836 0.96079 0.32032 -0.43200
C 	C 	0.16370 0.96380 0.35400 0.38100
C 	C 	0.17960 0.94390 0.33970 -0.17300
C 	C 	0.20680 0.94220 0.34180 0.11900
C 	C 	0.07804 0.00850 0.36552 0.35500
C 	C 	0.04981 0.01599 0.36049 -0.15400
C 	C 	0.03214 0.99781 0.34907 0.13700
O 	O 	0.64009 0.46619 0.34935 -0.50300
O 	O 	0.67443 0.47847 0.37115 -0.38500
O 	O 	0.76114 0.40680 0.31220 -0.66500
O 	O 	0.58726 0.48720 0.35752 -0.43400
O 	O 	0.59249 0.52435 0.37787 -0.46500
O 	O 	0.46415 0.49523 0.32872 -0.42900
O 	O 	0.38836 0.46079 0.32032 -0.43200
C 	C 	0.66370 0.46380 0.35400 0.38100
C 	C 	0.67960 0.44390 0.33970 -0.17300
C 	C 	0.70680 0.44220 0.34180 0.11900
C 	C 	0.57804 0.50850 0.36552 0.35600
C 	C 	0.54981 0.51599 0.36049 -0.15100
C 	C 	0.53214 0.49781 0.34907 0.13300
O 	O 	0.64009 0.96619 0.84935 -0.50300
O 	O 	0.67443 0.97847 0.87115 -0.38400
O 	O 	0.76114 0.90680 0.81220 -0.66500
O 	O 	0.58726 0.98720 0.85752 -0.43300
O 	O 	0.59249 0.02435 0.87787 -0.46500
O 	O 	0.46415 0.99523 0.82872 -0.43000
O 	O 	0.38836 0.96079 0.82032 -0.43200
C 	C 	0.66370 0.96380 0.85400 0.38100
C 	C 	0.67960 0.94390 0.83970 -0.17300
C 	C 	0.70680 0.94220 0.84180 0.11900
C 	C 	0.57804 0.00850 0.86552 0.35500
C 	C 	0.54981 0.01599 0.86049 -0.15300
C 	C 	0.53214 0.99781 0.84907 0.13600
O 	O 	0.78381 0.34935 0.60991 -0.50300
O 	O 	0.77153 0.37115 0.57557 -0.38500
O 	O 	0.84320 0.31220 0.48886 -0.66500
O 	O 	0.76280 0.35752 0.66274 -0.43400
O 	O 	0.72565 0.37787 0.65751 -0.46500
O 	O 	0.75477 0.32872 0.78585 -0.42900
O 	O 	0.78921 0.32032 0.86164 -0.43200
C 	C 	0.78620 0.35400 0.58630 0.38100
C 	C 	0.80610 0.33970 0.57040 -0.17300
C 	C 	0.80780 0.34180 0.54320 0.11900
C 	C 	0.74150 0.36552 0.67196 0.35600
C 	C 	0.73401 0.36049 0.70019 -0.15100
C 	C 	0.75219 0.34907 0.71786 0.13300
O 	O 	0.78381 0.84935 0.10991 -0.50300
O 	O 	0.77153 0.87115 0.07557 -0.38500
O 	O 	0.84320 0.81220 0.98886 -0.66500
O 	O 	0.76280 0.85752 0.16274 -0.43400
O 	O 	0.72565 0.87787 0.15751 -0.46500
O 	O 	0.75477 0.82872 0.28585 -0.42900
O 	O 	0.78921 0.82032 0.36164 -0.43200
C 	C 	0.78620 0.85400 0.08630 0.38100
C 	C 	0.80610 0.83970 0.07040 -0.17300
C 	C 	0.80780 0.84180 0.04320 0.11900
C 	C 	0.74150 0.86552 0.17196 0.35600
C 	C 	0.73401 0.86049 0.20019 -0.15100
C 	C 	0.75219 0.84907 0.21786 0.13300
O 	O 	0.28381 0.34935 0.10991 -0.50300
O 	O 	0.27153 0.37115 0.07557 -0.38500
O 	O 	0.34320 0.31220 0.98886 -0.66500
O 	O 	0.26280 0.35752 0.16274 -0.43400
O 	O 	0.22565 0.37787 0.15751 -0.46500
O 	O 	0.25477 0.32872 0.28585 -0.42900
O 	O 	0.28921 0.32032 0.36164 -0.43200
C 	C 	0.28620 0.35400 0.08630 0.38100
C 	C 	0.30610 0.33970 0.07040 -0.17300
C 	C 	0.30780 0.34180 0.04320 0.11900
C 	C 	0.24150 0.36552 0.17196 0.35600
C 	C 	0.23401 0.36049 0.20019 -0.15100
C 	C 	0.25219 0.34907 0.21786 0.13300
O 	O 	0.28381 0.84935 0.60991 -0.50300
O 	O 	0.27153 0.87115 0.57557 -0.38500
O 	O 	0.34320 0.81220 0.48886 -0.66500
O 	O 	0.26280 0.85752 0.66274 -0.43400
O 	O 	0.22565 0.87787 0.65751 -0.46500
O 	O 	0.25477 0.82872 0.78585 -0.42900
O 	O 	0.28921 0.82032 0.86164 -0.43200
C 	C 	0.28620 0.85400 0.58630 0.38100
C 	C 	0.30610 0.83970 0.57040 -0.17300
C 	C 	0.30780 0.84180 0.54320 0.11900
C 	C 	0.24150 0.86552 0.67196 0.35600
C 	C 	0.23401 0.86049 0.70019 -0.15100
C 	C 	0.25219 0.84907 0.71786 0.13300
O 	O 	0.28381 0.40065 0.64009 -0.50300
O 	O 	0.27153 0.37885 0.67443 -0.38500
O 	O 	0.34320 0.43780 0.76114 -0.66500
O 	O 	0.26280 0.39248 0.58726 -0.43400
O 	O 	0.22565 0.37213 0.59249 -0.46500
O 	O 	0.25477 0.42128 0.46415 -0.42900
O 	O 	0.28921 0.42968 0.38836 -0.43200
C 	C 	0.28620 0.39600 0.66370 0.38100
C 	C 	0.30610 0.41030 0.67960 -0.17300
C 	C 	0.30780 0.40820 0.70680 0.11900
C 	C 	0.24150 0.38448 0.57804 0.35600
C 	C 	0.23401 0.38951 0.54981 -0.15100
C 	C 	0.25219 0.40093 0.53214 0.13300
O 	O 	0.28381 0.90065 0.14009 -0.50300
O 	O 	0.27153 0.87885 0.17443 -0.38500
O 	O 	0.34320 0.93780 0.26114 -0.66500
O 	O 	0.26280 0.89248 0.08726 -0.43400
O 	O 	0.22565 0.87213 0.09249 -0.46500
O 	O 	0.25477 0.92128 0.96415 -0.43000
O 	O 	0.28921 0.92968 0.88836 -0.43200
C 	C 	0.28620 0.89600 0.16370 0.38100
C 	C 	0.30610 0.91030 0.17960 -0.17300
C 	C 	0.30780 0.90820 0.20680 0.11900
C 	C 	0.24150 0.88448 0.07804 0.35600
C 	C 	0.23401 0.88951 0.04981 -0.15200
C 	C 	0.25219 0.90093 0.03214 0.13400
O 	O 	0.78381 0.40065 0.14009 -0.50300
O 	O 	0.77153 0.37885 0.17443 -0.38500
O 	O 	0.84320 0.43780 0.26114 -0.66500
O 	O 	0.76280 0.39248 0.08726 -0.43400
O 	O 	0.72565 0.37213 0.09249 -0.46500
O 	O 	0.75477 0.42128 0.96415 -0.43000
O 	O 	0.78921 0.42968 0.88836 -0.43200
C 	C 	0.78620 0.39600 0.16370 0.38100
C 	C 	0.80610 0.41030 0.17960 -0.17300
C 	C 	0.80780 0.40820 0.20680 0.11900
C 	C 	0.74150 0.38448 0.07804 0.35600
C 	C 	0.73401 0.38951 0.04981 -0.15200
C 	C 	0.75219 0.40093 0.03214 0.13400
O 	O 	0.78381 0.90065 0.64009 -0.50300
O 	O 	0.77153 0.87885 0.67443 -0.38500
O 	O 	0.84320 0.93780 0.76114 -0.66500
O 	O 	0.76280 0.89248 0.58726 -0.43400
O 	O 	0.72565 0.87213 0.59249 -0.46500
O 	O 	0.75477 0.92128 0.46415 -0.42900
O 	O 	0.78921 0.92968 0.38836 -0.43200
C 	C 	0.78620 0.89600 0.66370 0.38100
C 	C 	0.80610 0.91030 0.67960 -0.17300
C 	C 	0.80780 0.90820 0.70680 0.11900
C 	C 	0.74150 0.88448 0.57804 0.35600
C 	C 	0.73401 0.88951 0.54981 -0.15100
C 	C 	0.75219 0.90093 0.53214 0.13300
O 	O 	0.46619 0.84935 0.14009 -0.50300
O 	O 	0.47847 0.87115 0.17443 -0.38500
O 	O 	0.40680 0.81220 0.26114 -0.66500
O 	O 	0.48720 0.85752 0.08726 -0.43400
O 	O 	0.52435 0.87787 0.09249 -0.46500
O 	O 	0.49523 0.82872 0.96415 -0.43000
O 	O 	0.46079 0.82032 0.88836 -0.43200
C 	C 	0.46380 0.85400 0.16370 0.38100
C 	C 	0.44390 0.83970 0.17960 -0.17300
C 	C 	0.44220 0.84180 0.20680 0.11900
C 	C 	0.50850 0.86552 0.07804 0.35600
C 	C 	0.51599 0.86049 0.04981 -0.15200
C 	C 	0.49781 0.84907 0.03214 0.13400
O 	O 	0.46619 0.34935 0.64009 -0.50300
O 	O 	0.47847 0.37115 0.67443 -0.38500
O 	O 	0.40680 0.31220 0.76114 -0.66500
O 	O 	0.48720 0.35752 0.58726 -0.43400
O 	O 	0.52435 0.37787 0.59249 -0.46500
O 	O 	0.49523 0.32872 0.46415 -0.42900
O 	O 	0.46079 0.32032 0.38836 -0.43200
C 	C 	0.46380 0.35400 0.66370 0.38100
C 	C 	0.44390 0.33970 0.67960 -0.17300
C 	C 	0.44220 0.34180 0.70680 0.11900
C 	C 	0.50850 0.36552 0.57804 0.35600
C 	C 	0.51599 0.36049 0.54981 -0.15100
C 	C 	0.49781 0.34907 0.53214 0.13300
O 	O 	0.96619 0.84935 0.64009 -0.50300
O 	O 	0.97847 0.87115 0.67443 -0.38400
O 	O 	0.90680 0.81220 0.76114 -0.66500
O 	O 	0.98720 0.85752 0.58726 -0.43300
O 	O 	0.02435 0.87787 0.59249 -0.46500
O 	O 	0.99523 0.82872 0.46415 -0.43000
O 	O 	0.96079 0.82032 0.38836 -0.43200
C 	C 	0.96380 0.85400 0.66370 0.38100
C 	C 	0.94390 0.83970 0.67960 -0.17300
C 	C 	0.94220 0.84180 0.70680 0.11900
C 	C 	0.00850 0.86552 0.57804 0.35500
C 	C 	0.01599 0.86049 0.54981 -0.15300
C 	C 	0.99781 0.84907 0.53214 0.13600
O 	O 	0.96619 0.34935 0.14009 -0.50300
O 	O 	0.97847 0.37115 0.17443 -0.38400
O 	O 	0.90680 0.31220 0.26114 -0.66500
O 	O 	0.98720 0.35752 0.08726 -0.43300
O 	O 	0.02435 0.37787 0.09249 -0.46500
O 	O 	0.99523 0.32872 0.96415 -0.43000
O 	O 	0.96079 0.32032 0.88836 -0.43200
C 	C 	0.96380 0.35400 0.16370 0.38100
C 	C 	0.94390 0.33970 0.17960 -0.17300
C 	C 	0.94220 0.34180 0.20680 0.11900
C 	C 	0.00850 0.36552 0.07804 0.35500
C 	C 	0.01599 0.36049 0.04981 -0.15400
C 	C 	0.99781 0.34907 0.03214 0.13700
O 	O 	0.96619 0.90065 0.10991 -0.50300
O 	O 	0.97847 0.87885 0.07557 -0.38400
O 	O 	0.90680 0.93780 0.98886 -0.66500
O 	O 	0.98720 0.89248 0.16274 -0.43300
O 	O 	0.02435 0.87213 0.15751 -0.46500
O 	O 	0.99523 0.92128 0.28585 -0.42900
O 	O 	0.96079 0.92968 0.36164 -0.43200
C 	C 	0.96380 0.89600 0.08630 0.38100
C 	C 	0.94390 0.91030 0.07040 -0.17300
C 	C 	0.94220 0.90820 0.04320 0.11900
C 	C 	0.00850 0.88448 0.17196 0.35500
C 	C 	0.01599 0.88951 0.20019 -0.15300
C 	C 	0.99781 0.90093 0.21786 0.13700
O 	O 	0.96619 0.40065 0.60991 -0.50300
O 	O 	0.97847 0.37885 0.57557 -0.38400
O 	O 	0.90680 0.43780 0.48886 -0.66500
O 	O 	0.98720 0.39248 0.66274 -0.43300
O 	O 	0.02435 0.37213 0.65751 -0.46500
O 	O 	0.99523 0.42128 0.78585 -0.43000
O 	O 	0.96079 0.42968 0.86164 -0.43200
C 	C 	0.96380 0.39600 0.58630 0.38100
C 	C 	0.94390 0.41030 0.57040 -0.17300
C 	C 	0.94220 0.40820 0.54320 0.11900
C 	C 	0.00850 0.38448 0.67196 0.35500
C 	C 	0.01599 0.38951 0.70019 -0.15300
C 	C 	0.99781 0.40093 0.71786 0.13600
O 	O 	0.46619 0.90065 0.60991 -0.50300
O 	O 	0.47847 0.87885 0.57557 -0.38500
O 	O 	0.40680 0.93780 0.48886 -0.66500
O 	O 	0.48720 0.89248 0.66274 -0.43400
O 	O 	0.52435 0.87213 0.65751 -0.46500
O 	O 	0.49523 0.92128 0.78585 -0.42900
O 	O 	0.46079 0.92968 0.86164 -0.43200
C 	C 	0.46380 0.89600 0.58630 0.38100
C 	C 	0.44390 0.91030 0.57040 -0.17300
C 	C 	0.44220 0.90820 0.54320 0.11900
C 	C 	0.50850 0.88448 0.67196 0.35600
C 	C 	0.51599 0.88951 0.70019 -0.15100
C 	C 	0.49781 0.90093 0.71786 0.13300
O 	O 	0.46619 0.40065 0.10991 -0.50300
O 	O 	0.47847 0.37885 0.07557 -0.38500
O 	O 	0.40680 0.43780 0.98886 -0.66500
O 	O 	0.48720 0.39248 0.16274 -0.43400
O 	O 	0.52435 0.37213 0.15751 -0.46500
O 	O 	0.49523 0.42128 0.28585 -0.42900
O 	O 	0.46079 0.42968 0.36164 -0.43200
C 	C 	0.46380 0.39600 0.08630 0.38100
C 	C 	0.44390 0.41030 0.07040 -0.17300
C 	C 	0.44220 0.40820 0.04320 0.11900
C 	C 	0.50850 0.38448 0.17196 0.35600
C 	C 	0.51599 0.38951 0.20019 -0.15100
C 	C 	0.49781 0.40093 0.21786 0.13300
O 	O 	0.10991 0.90065 0.96619 -0.50300
O 	O 	0.07557 0.87885 0.97847 -0.38400
O 	O 	0.98886 0.93780 0.90680 -0.66500
O 	O 	0.16274 0.89248 0.98720 -0.43300
O 	O 	0.15751 0.87213 0.02435 -0.46500
O 	O 	0.28585 0.92128 0.99523 -0.42900
O 	O 	0.36164 0.92968 0.96079 -0.43200
C 	C 	0.08630 0.89600 0.96380 0.38100
C 	C 	0.07040 0.91030 0.94390 -0.17300
C 	C 	0.04320 0.90820 0.94220 0.11900
C 	C 	0.17196 0.88448 0.00850 0.35500
C 	C 	0.20019 0.88951 0.01599 -0.15300
C 	C 	0.21786 0.90093 0.99781 0.13700
O 	O 	0.10991 0.40065 0.46619 -0.50300
O 	O 	0.07557 0.37885 0.47847 -0.38500
O 	O 	0.98886 0.43780 0.40680 -0.66500
O 	O 	0.16274 0.39248 0.48720 -0.43400
O 	O 	0.15751 0.37213 0.52435 -0.46500
O 	O 	0.28585 0.42128 0.49523 -0.42900
O 	O 	0.36164 0.42968 0.46079 -0.43200
C 	C 	0.08630 0.39600 0.46380 0.38100
C 	C 	0.07040 0.41030 0.44390 -0.17300
C 	C 	0.04320 0.40820 0.44220 0.11900
C 	C 	0.17196 0.38448 0.50850 0.35600
C 	C 	0.20019 0.38951 0.51599 -0.15100
C 	C 	0.21786 0.40093 0.49781 0.13300
O 	O 	0.60991 0.90065 0.46619 -0.50300
O 	O 	0.57557 0.87885 0.47847 -0.38500
O 	O 	0.48886 0.93780 0.40680 -0.66500
O 	O 	0.66274 0.89248 0.48720 -0.43400
O 	O 	0.65751 0.87213 0.52435 -0.46500
O 	O 	0.78585 0.92128 0.49523 -0.42900
O 	O 	0.86164 0.92968 0.46079 -0.43200
C 	C 	0.58630 0.89600 0.46380 0.38100
C 	C 	0.57040 0.91030 0.44390 -0.17300
C 	C 	0.54320 0.90820 0.44220 0.11900
C 	C 	0.67196 0.88448 0.50850 0.35600
C 	C 	0.70019 0.88951 0.51599 -0.15100
C 	C 	0.71786 0.90093 0.49781 0.13300
O 	O 	0.60991 0.40065 0.96619 -0.50300
O 	O 	0.57557 0.37885 0.97847 -0.38400
O 	O 	0.48886 0.43780 0.90680 -0.66500
O 	O 	0.66274 0.39248 0.98720 -0.43300
O 	O 	0.65751 0.37213 0.02435 -0.46500
O 	O 	0.78585 0.42128 0.99523 -0.43000
O 	O 	0.86164 0.42968 0.96079 -0.43200
C 	C 	0.58630 0.39600 0.96380 0.38100
C 	C 	0.57040 0.41030 0.94390 -0.17300
C 	C 	0.54320 0.40820 0.94220 0.11900
C 	C 	0.67196 0.38448 0.00850 0.35500
C 	C 	0.70019 0.38951 0.01599 -0.15300
C 	C 	0.71786 0.40093 0.99781 0.13600
O 	O 	0.14009 0.84935 0.46619 -0.50300
O 	O 	0.17443 0.87115 0.47847 -0.38500
O 	O 	0.26114 0.81220 0.40680 -0.66500
O 	O 	0.08726 0.85752 0.48720 -0.43400
O 	O 	0.09249 0.87787 0.52435 -0.46500
O 	O 	0.96415 0.82872 0.49523 -0.43000
O 	O 	0.88836 0.82032 0.46079 -0.43200
C 	C 	0.16370 0.85400 0.46380 0.38100
C 	C 	0.17960 0.83970 0.44390 -0.17300
C 	C 	0.20680 0.84180 0.44220 0.11900
C 	C 	0.07804 0.86552 0.50850 0.35600
C 	C 	0.04981 0.86049 0.51599 -0.15200
C 	C 	0.03214 0.84907 0.49781 0.13400
O 	O 	0.14009 0.34935 0.96619 -0.50300
O 	O 	0.17443 0.37115 0.97847 -0.38400
O 	O 	0.26114 0.31220 0.90680 -0.66500
O 	O 	0.08726 0.35752 0.98720 -0.43300
O 	O 	0.09249 0.37787 0.02435 -0.46500
O 	O 	0.96415 0.32872 0.99523 -0.43000
O 	O 	0.88836 0.32032 0.96079 -0.43200
C 	C 	0.16370 0.35400 0.96380 0.38100
C 	C 	0.17960 0.33970 0.94390 -0.17300
C 	C 	0.20680 0.34180 0.94220 0.11900
C 	C 	0.07804 0.36552 0.00850 0.35500
C 	C 	0.04981 0.36049 0.01599 -0.15400
C 	C 	0.03214 0.34907 0.99781 0.13700
O 	O 	0.64009 0.84935 0.96619 -0.50300
O 	O 	0.67443 0.87115 0.97847 -0.38400
O 	O 	0.76114 0.81220 0.90680 -0.66500
O 	O 	0.58726 0.85752 0.98720 -0.43300
O 	O 	0.59249 0.87787 0.02435 -0.46500
O 	O 	0.46415 0.82872 0.99523 -0.43000
O 	O 	0.38836 0.82032 0.96079 -0.43200
C 	C 	0.66370 0.85400 0.96380 0.38100
C 	C 	0.67960 0.83970 0.94390 -0.17300
C 	C 	0.70680 0.84180 0.94220 0.11900
C 	C 	0.57804 0.86552 0.00850 0.35500
C 	C 	0.54981 0.86049 0.01599 -0.15300
C 	C 	0.53214 0.84907 0.99781 0.13600
O 	O 	0.64009 0.34935 0.46619 -0.50300
O 	O 	0.67443 0.37115 0.47847 -0.38500
O 	O 	0.76114 0.31220 0.40680 -0.66500
O 	O 	0.58726 0.35752 0.48720 -0.43400
O 	O 	0.59249 0.37787 0.52435 -0.46500
O 	O 	0.46415 0.32872 0.49523 -0.42900
O 	O 	0.38836 0.32032 0.46079 -0.43200
C 	C 	0.66370 0.35400 0.46380 0.38100
C 	C 	0.67960 0.33970 0.44390 -0.17300
C 	C 	0.70680 0.34180 0.44220 0.11900
C 	C 	0.57804 0.36552 0.50850 0.35600
C 	C 	0.54981 0.36049 0.51599 -0.15100
C 	C 	0.53214 0.34907 0.49781 0.13300
O 	O 	0.64009 0.40065 0.28381 -0.50300
O 	O 	0.67443 0.37885 0.27153 -0.38500
O 	O 	0.76114 0.43780 0.34320 -0.66500
O 	O 	0.58726 0.39248 0.26280 -0.43400
O 	O 	0.59249 0.37213 0.22565 -0.46500
O 	O 	0.46415 0.42128 0.25477 -0.42900
O 	O 	0.38836 0.42968 0.28921 -0.43200
C 	C 	0.66370 0.39600 0.28620 0.38100
C 	C 	0.67960 0.41030 0.30610 -0.17300
C 	C 	0.70680 0.40820 0.30780 0.11900
C 	C 	0.57804 0.38448 0.24150 0.35600
C 	C 	0.54981 0.38951 0.23401 -0.15100
C 	C 	0.53214 0.40093 0.25219 0.13300
O 	O 	0.64009 0.90065 0.78381 -0.50300
O 	O 	0.67443 0.87885 0.77153 -0.38500
O 	O 	0.76114 0.93780 0.84320 -0.66500
O 	O 	0.58726 0.89248 0.76280 -0.43400
O 	O 	0.59249 0.87213 0.72565 -0.46500
O 	O 	0.46415 0.92128 0.75477 -0.42900
O 	O 	0.38836 0.92968 0.78921 -0.43200
C 	C 	0.66370 0.89600 0.78620 0.38100
C 	C 	0.67960 0.91030 0.80610 -0.17300
C 	C 	0.70680 0.90820 0.80780 0.11900
C 	C 	0.57804 0.88448 0.74150 0.35600
C 	C 	0.54981 0.88951 0.73401 -0.15100
C 	C 	0.53214 0.90093 0.75219 0.13300
O 	O 	0.14009 0.40065 0.78381 -0.50300
O 	O 	0.17443 0.37885 0.77153 -0.38500
O 	O 	0.26114 0.43780 0.84320 -0.66500
O 	O 	0.08726 0.39248 0.76280 -0.43400
O 	O 	0.09249 0.37213 0.72565 -0.46500
O 	O 	0.96415 0.42128 0.75477 -0.43000
O 	O 	0.88836 0.42968 0.78921 -0.43200
C 	C 	0.16370 0.39600 0.78620 0.38100
C 	C 	0.17960 0.41030 0.80610 -0.17300
C 	C 	0.20680 0.40820 0.80780 0.11900
C 	C 	0.07804 0.38448 0.74150 0.35600
C 	C 	0.04981 0.38951 0.73401 -0.15200
C 	C 	0.03214 0.40093 0.75219 0.13400
O 	O 	0.14009 0.90065 0.28381 -0.50300
O 	O 	0.17443 0.87885 0.27153 -0.38500
O 	O 	0.26114 0.93780 0.34320 -0.66500
O 	O 	0.08726 0.89248 0.26280 -0.43400
O 	O 	0.09249 0.87213 0.22565 -0.46500
O 	O 	0.96415 0.92128 0.25477 -0.43000
O 	O 	0.88836 0.92968 0.28921 -0.43200
C 	C 	0.16370 0.89600 0.28620 0.38100
C 	C 	0.17960 0.91030 0.30610 -0.17300
C 	C 	0.20680 0.90820 0.30780 0.11900
C 	C 	0.07804 0.88448 0.24150 0.35600
C 	C 	0.04981 0.88951 0.23401 -0.15200
C 	C 	0.03214 0.90093 0.25219 0.13400
O 	O 	0.60991 0.34935 0.78381 -0.50300
O 	O 	0.57557 0.37115 0.77153 -0.38500
O 	O 	0.48886 0.31220 0.84320 -0.66500
O 	O 	0.66274 0.35752 0.76280 -0.43400
O 	O 	0.65751 0.37787 0.72565 -0.46500
O 	O 	0.78585 0.32872 0.75477 -0.42900
O 	O 	0.86164 0.32032 0.78921 -0.43200
C 	C 	0.58630 0.35400 0.78620 0.38100
C 	C 	0.57040 0.33970 0.80610 -0.17300
C 	C 	0.54320 0.34180 0.80780 0.11900
C 	C 	0.67196 0.36552 0.74150 0.35600
C 	C 	0.70019 0.36049 0.73401 -0.15100
C 	C 	0.71786 0.34907 0.75219 0.13300
O 	O 	0.60991 0.84935 0.28381 -0.50300
O 	O 	0.57557 0.87115 0.27153 -0.38500
O 	O 	0.48886 0.81220 0.34320 -0.66500
O 	O 	0.66274 0.85752 0.26280 -0.43400
O 	O 	0.65751 0.87787 0.22565 -0.46500
O 	O 	0.78585 0.82872 0.25477 -0.42900
O 	O 	0.86164 0.82032 0.28921 -0.43200
C 	C 	0.58630 0.85400 0.28620 0.38100
C 	C 	0.57040 0.83970 0.30610 -0.17300
C 	C 	0.54320 0.84180 0.30780 0.11900
C 	C 	0.67196 0.86552 0.24150 0.35600
C 	C 	0.70019 0.86049 0.23401 -0.15100
C 	C 	0.71786 0.84907 0.25219 0.13300
O 	O 	0.10991 0.34935 0.28381 -0.50300
O 	O 	0.07557 0.37115 0.27153 -0.38500
O 	O 	0.98886 0.31220 0.34320 -0.66500
O 	O 	0.16274 0.35752 0.26280 -0.43400
O 	O 	0.15751 0.37787 0.22565 -0.46500
O 	O 	0.28585 0.32872 0.25477 -0.42900
O 	O 	0.36164 0.32032 0.28921 -0.43200
C 	C 	0.08630 0.35400 0.28620 0.38100
C 	C 	0.07040 0.33970 0.30610 -0.17300
C 	C 	0.04320 0.34180 0.30780 0.11900
C 	C 	0.17196 0.36552 0.24150 0.35600
C 	C 	0.20019 0.36049 0.23401 -0.15100
C 	C 	0.21786 0.34907 0.25219 0.13300
O 	O 	0.10991 0.84935 0.78381 -0.50300
O 	O 	0.07557 0.87115 0.77153 -0.38500
O 	O 	0.98886 0.81220 0.84320 -0.66500
O 	O 	0.16274 0.85752 0.76280 -0.43400
O 	O 	0.15751 0.87787 0.72565 -0.46500
O 	O 	0.28585 0.82872 0.75477 -0.42900
O 	O 	0.36164 0.82032 0.78921 -0.43200
C 	C 	0.08630 0.85400 0.78620 0.38100
C 	C 	0.07040 0.83970 0.80610 -0.17300
C 	C 	0.04320 0.84180 0.80780 0.11900
C 	C 	0.17196 0.86552 0.74150 0.35600
C 	C 	0.20019 0.86049 0.73401 -0.15100
C 	C 	0.21786 0.84907 0.75219 0.13300
O 	O 	0.96619 0.10991 0.90065 -0.50300
O 	O 	0.97847 0.07557 0.87885 -0.38400
O 	O 	0.90680 0.98886 0.93780 -0.66500
O 	O 	0.98720 0.16274 0.89248 -0.43300
O 	O 	0.02435 0.15751 0.87213 -0.46500
O 	O 	0.99523 0.28585 0.92128 -0.42900
O 	O 	0.96079 0.36164 0.92968 -0.43200
C 	C 	0.96380 0.08630 0.89600 0.38100
C 	C 	0.94390 0.07040 0.91030 -0.17300
C 	C 	0.94220 0.04320 0.90820 0.11900
C 	C 	0.00850 0.17196 0.88448 0.35500
C 	C 	0.01599 0.20019 0.88951 -0.15300
C 	C 	0.99781 0.21786 0.90093 0.13700
O 	O 	0.96619 0.60991 0.40065 -0.50300
O 	O 	0.97847 0.57557 0.37885 -0.38400
O 	O 	0.90680 0.48886 0.43780 -0.66500
O 	O 	0.98720 0.66274 0.39248 -0.43300
O 	O 	0.02435 0.65751 0.37213 -0.46500
O 	O 	0.99523 0.78585 0.42128 -0.43000
O 	O 	0.96079 0.86164 0.42968 -0.43200
C 	C 	0.96380 0.58630 0.39600 0.38100
C 	C 	0.94390 0.57040 0.41030 -0.17300
C 	C 	0.94220 0.54320 0.40820 0.11900
C 	C 	0.00850 0.67196 0.38448 0.35500
C 	C 	0.01599 0.70019 0.38951 -0.15300
C 	C 	0.99781 0.71786 0.40093 0.13600
O 	O 	0.46619 0.10991 0.40065 -0.50300
O 	O 	0.47847 0.07557 0.37885 -0.38500
O 	O 	0.40680 0.98886 0.43780 -0.66500
O 	O 	0.48720 0.16274 0.39248 -0.43400
O 	O 	0.52435 0.15751 0.37213 -0.46500
O 	O 	0.49523 0.28585 0.42128 -0.42900
O 	O 	0.46079 0.36164 0.42968 -0.43200
C 	C 	0.46380 0.08630 0.39600 0.38100
C 	C 	0.44390 0.07040 0.41030 -0.17300
C 	C 	0.44220 0.04320 0.40820 0.11900
C 	C 	0.50850 0.17196 0.38448 0.35600
C 	C 	0.51599 0.20019 0.38951 -0.15100
C 	C 	0.49781 0.21786 0.40093 0.13300
O 	O 	0.46619 0.60991 0.90065 -0.50300
O 	O 	0.47847 0.57557 0.87885 -0.38500
O 	O 	0.40680 0.48886 0.93780 -0.66500
O 	O 	0.48720 0.66274 0.89248 -0.43400
O 	O 	0.52435 0.65751 0.87213 -0.46500
O 	O 	0.49523 0.78585 0.92128 -0.42900
O 	O 	0.46079 0.86164 0.92968 -0.43200
C 	C 	0.46380 0.58630 0.89600 0.38100
C 	C 	0.44390 0.57040 0.91030 -0.17300
C 	C 	0.44220 0.54320 0.90820 0.11900
C 	C 	0.50850 0.67196 0.88448 0.35600
C 	C 	0.51599 0.70019 0.88951 -0.15100
C 	C 	0.49781 0.71786 0.90093 0.13300
O 	O 	0.46619 0.14009 0.84935 -0.50300
O 	O 	0.47847 0.17443 0.87115 -0.38500
O 	O 	0.40680 0.26114 0.81220 -0.66500
O 	O 	0.48720 0.08726 0.85752 -0.43400
O 	O 	0.52435 0.09249 0.87787 -0.46500
O 	O 	0.49523 0.96415 0.82872 -0.43000
O 	O 	0.46079 0.88836 0.82032 -0.43200
C 	C 	0.46380 0.16370 0.85400 0.38100
C 	C 	0.44390 0.17960 0.83970 -0.17300
C 	C 	0.44220 0.20680 0.84180 0.11900
C 	C 	0.50850 0.07804 0.86552 0.35600
C 	C 	0.51599 0.04981 0.86049 -0.15200
C 	C 	0.49781 0.03214 0.84907 0.13400
O 	O 	0.46619 0.64009 0.34935 -0.50300
O 	O 	0.47847 0.67443 0.37115 -0.38500
O 	O 	0.40680 0.76114 0.31220 -0.66500
O 	O 	0.48720 0.58726 0.35752 -0.43400
O 	O 	0.52435 0.59249 0.37787 -0.46500
O 	O 	0.49523 0.46415 0.32872 -0.42900
O 	O 	0.46079 0.38836 0.32032 -0.43200
C 	C 	0.46380 0.66370 0.35400 0.38100
C 	C 	0.44390 0.67960 0.33970 -0.17300
C 	C 	0.44220 0.70680 0.34180 0.11900
C 	C 	0.50850 0.57804 0.36552 0.35600
C 	C 	0.51599 0.54981 0.36049 -0.15100
C 	C 	0.49781 0.53214 0.34907 0.13300
O 	O 	0.96619 0.14009 0.34935 -0.50300
O 	O 	0.97847 0.17443 0.37115 -0.38400
O 	O 	0.90680 0.26114 0.31220 -0.66500
O 	O 	0.98720 0.08726 0.35752 -0.43300
O 	O 	0.02435 0.09249 0.37787 -0.46500
O 	O 	0.99523 0.96415 0.32872 -0.43000
O 	O 	0.96079 0.88836 0.32032 -0.43200
C 	C 	0.96380 0.16370 0.35400 0.38100
C 	C 	0.94390 0.17960 0.33970 -0.17300
C 	C 	0.94220 0.20680 0.34180 0.11900
C 	C 	0.00850 0.07804 0.36552 0.35500
C 	C 	0.01599 0.04981 0.36049 -0.15400
C 	C 	0.99781 0.03214 0.34907 0.13700
O 	O 	0.96619 0.64009 0.84935 -0.50300
O 	O 	0.97847 0.67443 0.87115 -0.38400
O 	O 	0.90680 0.76114 0.81220 -0.66500
O 	O 	0.98720 0.58726 0.85752 -0.43300
O 	O 	0.02435 0.59249 0.87787 -0.46500
O 	O 	0.99523 0.46415 0.82872 -0.43000
O 	O 	0.96079 0.38836 0.82032 -0.43200
C 	C 	0.96380 0.66370 0.85400 0.38100
C 	C 	0.94390 0.67960 0.83970 -0.17300
C 	C 	0.94220 0.70680 0.84180 0.11900
C 	C 	0.00850 0.57804 0.86552 0.35500
C 	C 	0.01599 0.54981 0.86049 -0.15300
C 	C 	0.99781 0.53214 0.84907 0.13600
O 	O 	0.28381 0.64009 0.40065 -0.50300
O 	O 	0.27153 0.67443 0.37885 -0.38500
O 	O 	0.34320 0.76114 0.43780 -0.66500
O 	O 	0.26280 0.58726 0.39248 -0.43400
O 	O 	0.22565 0.59249 0.37213 -0.46500
O 	O 	0.25477 0.46415 0.42128 -0.42900
O 	O 	0.28921 0.38836 0.42968 -0.43200
C 	C 	0.28620 0.66370 0.39600 0.38100
C 	C 	0.30610 0.67960 0.41030 -0.17300
C 	C 	0.30780 0.70680 0.40820 0.11900
C 	C 	0.24150 0.57804 0.38448 0.35600
C 	C 	0.23401 0.54981 0.38951 -0.15100
C 	C 	0.25219 0.53214 0.40093 0.13300
O 	O 	0.28381 0.14009 0.90065 -0.50300
O 	O 	0.27153 0.17443 0.87885 -0.38500
O 	O 	0.34320 0.26114 0.93780 -0.66500
O 	O 	0.26280 0.08726 0.89248 -0.43400
O 	O 	0.22565 0.09249 0.87213 -0.46500
O 	O 	0.25477 0.96415 0.92128 -0.43000
O 	O 	0.28921 0.88836 0.92968 -0.43200
C 	C 	0.28620 0.16370 0.89600 0.38100
C 	C 	0.30610 0.17960 0.91030 -0.17300
C 	C 	0.30780 0.20680 0.90820 0.11900
C 	C 	0.24150 0.07804 0.88448 0.35600
C 	C 	0.23401 0.04981 0.88951 -0.15200
C 	C 	0.25219 0.03214 0.90093 0.13400
O 	O 	0.78381 0.64009 0.90065 -0.50300
O 	O 	0.77153 0.67443 0.87885 -0.38500
O 	O 	0.84320 0.76114 0.93780 -0.66500
O 	O 	0.76280 0.58726 0.89248 -0.43400
O 	O 	0.72565 0.59249 0.87213 -0.46500
O 	O 	0.75477 0.46415 0.92128 -0.42900
O 	O 	0.78921 0.38836 0.92968 -0.43200
C 	C 	0.78620 0.66370 0.89600 0.38100
C 	C 	0.80610 0.67960 0.91030 -0.17300
C 	C 	0.80780 0.70680 0.90820 0.11900
C 	C 	0.74150 0.57804 0.88448 0.35600
C 	C 	0.73401 0.54981 0.88951 -0.15100
C 	C 	0.75219 0.53214 0.90093 0.13300
O 	O 	0.78381 0.14009 0.40065 -0.50300
O 	O 	0.77153 0.17443 0.37885 -0.38500
O 	O 	0.84320 0.26114 0.43780 -0.66500
O 	O 	0.76280 0.08726 0.39248 -0.43400
O 	O 	0.72565 0.09249 0.37213 -0.46500
O 	O 	0.75477 0.96415 0.42128 -0.43000
O 	O 	0.78921 0.88836 0.42968 -0.43200
C 	C 	0.78620 0.16370 0.39600 0.38100
C 	C 	0.80610 0.17960 0.41030 -0.17300
C 	C 	0.80780 0.20680 0.40820 0.11900
C 	C 	0.74150 0.07804 0.38448 0.35600
C 	C 	0.73401 0.04981 0.38951 -0.15200
C 	C 	0.75219 0.03214 0.40093 0.13400
O 	O 	0.78381 0.60991 0.34935 -0.50300
O 	O 	0.77153 0.57557 0.37115 -0.38500
O 	O 	0.84320 0.48886 0.31220 -0.66500
O 	O 	0.76280 0.66274 0.35752 -0.43400
O 	O 	0.72565 0.65751 0.37787 -0.46500
O 	O 	0.75477 0.78585 0.32872 -0.42900
O 	O 	0.78921 0.86164 0.32032 -0.43200
C 	C 	0.78620 0.58630 0.35400 0.38100
C 	C 	0.80610 0.57040 0.33970 -0.17300
C 	C 	0.80780 0.54320 0.34180 0.11900
C 	C 	0.74150 0.67196 0.36552 0.35600
C 	C 	0.73401 0.70019 0.36049 -0.15100
C 	C 	0.75219 0.71786 0.34907 0.13300
O 	O 	0.78381 0.10991 0.84935 -0.50300
O 	O 	0.77153 0.07557 0.87115 -0.38500
O 	O 	0.84320 0.98886 0.81220 -0.66500
O 	O 	0.76280 0.16274 0.85752 -0.43400
O 	O 	0.72565 0.15751 0.87787 -0.46500
O 	O 	0.75477 0.28585 0.82872 -0.42900
O 	O 	0.78921 0.36164 0.82032 -0.43200
C 	C 	0.78620 0.08630 0.85400 0.38100
C 	C 	0.80610 0.07040 0.83970 -0.17300
C 	C 	0.80780 0.04320 0.84180 0.11900
C 	C 	0.74150 0.17196 0.86552 0.35600
C 	C 	0.73401 0.20019 0.86049 -0.15100
C 	C 	0.75219 0.21786 0.84907 0.13300
O 	O 	0.28381 0.60991 0.84935 -0.50300
O 	O 	0.27153 0.57557 0.87115 -0.38500
O 	O 	0.34320 0.48886 0.81220 -0.66500
O 	O 	0.26280 0.66274 0.85752 -0.43400
O 	O 	0.22565 0.65751 0.87787 -0.46500
O 	O 	0.25477 0.78585 0.82872 -0.42900
O 	O 	0.28921 0.86164 0.82032 -0.43200
C 	C 	0.28620 0.58630 0.85400 0.38100
C 	C 	0.30610 0.57040 0.83970 -0.17300
C 	C 	0.30780 0.54320 0.84180 0.11900
C 	C 	0.24150 0.67196 0.86552 0.35600
C 	C 	0.23401 0.70019 0.86049 -0.15100
C 	C 	0.25219 0.71786 0.84907 0.13300
O 	O 	0.28381 0.10991 0.34935 -0.50300
O 	O 	0.27153 0.07557 0.37115 -0.38500
O 	O 	0.34320 0.98886 0.31220 -0.66500
O 	O 	0.26280 0.16274 0.35752 -0.43400
O 	O 	0.22565 0.15751 0.37787 -0.46500
O 	O 	0.25477 0.28585 0.32872 -0.42900
O 	O 	0.28921 0.36164 0.32032 -0.43200
C 	C 	0.28620 0.08630 0.35400 0.38100
C 	C 	0.30610 0.07040 0.33970 -0.17300
C 	C 	0.30780 0.04320 0.34180 0.11900
C 	C 	0.24150 0.17196 0.36552 0.35600
C 	C 	0.23401 0.20019 0.36049 -0.15100
C 	C 	0.25219 0.21786 0.34907 0.13300
O 	O 	0.90065 0.96619 0.10991 -0.50300
O 	O 	0.87885 0.97847 0.07557 -0.38400
O 	O 	0.93780 0.90680 0.98886 -0.66500
O 	O 	0.89248 0.98720 0.16274 -0.43300
O 	O 	0.87213 0.02435 0.15751 -0.46500
O 	O 	0.92128 0.99523 0.28585 -0.42900
O 	O 	0.92968 0.96079 0.36164 -0.43200
C 	C 	0.89600 0.96380 0.08630 0.38100
C 	C 	0.91030 0.94390 0.07040 -0.17300
C 	C 	0.90820 0.94220 0.04320 0.11900
C 	C 	0.88448 0.00850 0.17196 0.35500
C 	C 	0.88951 0.01599 0.20019 -0.15300
C 	C 	0.90093 0.99781 0.21786 0.13700
O 	O 	0.90065 0.46619 0.60991 -0.50300
O 	O 	0.87885 0.47847 0.57557 -0.38500
O 	O 	0.93780 0.40680 0.48886 -0.66500
O 	O 	0.89248 0.48720 0.66274 -0.43400
O 	O 	0.87213 0.52435 0.65751 -0.46500
O 	O 	0.92128 0.49523 0.78585 -0.42900
O 	O 	0.92968 0.46079 0.86164 -0.43200
C 	C 	0.89600 0.46380 0.58630 0.38100
C 	C 	0.91030 0.44390 0.57040 -0.17300
C 	C 	0.90820 0.44220 0.54320 0.11900
C 	C 	0.88448 0.50850 0.67196 0.35600
C 	C 	0.88951 0.51599 0.70019 -0.15100
C 	C 	0.90093 0.49781 0.71786 0.13300
O 	O 	0.40065 0.96619 0.60991 -0.50300
O 	O 	0.37885 0.97847 0.57557 -0.38400
O 	O 	0.43780 0.90680 0.48886 -0.66500
O 	O 	0.39248 0.98720 0.66274 -0.43300
O 	O 	0.37213 0.02435 0.65751 -0.46500
O 	O 	0.42128 0.99523 0.78585 -0.43000
O 	O 	0.42968 0.96079 0.86164 -0.43200
C 	C 	0.39600 0.96380 0.58630 0.38100
C 	C 	0.41030 0.94390 0.57040 -0.17300
C 	C 	0.40820 0.94220 0.54320 0.11900
C 	C 	0.38448 0.00850 0.67196 0.35500
C 	C 	0.38951 0.01599 0.70019 -0.15300
C 	C 	0.40093 0.99781 0.71786 0.13600
O 	O 	0.40065 0.46619 0.10991 -0.50300
O 	O 	0.37885 0.47847 0.07557 -0.38500
O 	O 	0.43780 0.40680 0.98886 -0.66500
O 	O 	0.39248 0.48720 0.16274 -0.43400
O 	O 	0.37213 0.52435 0.15751 -0.46500
O 	O 	0.42128 0.49523 0.28585 -0.42900
O 	O 	0.42968 0.46079 0.36164 -0.43200
C 	C 	0.39600 0.46380 0.08630 0.38100
C 	C 	0.41030 0.44390 0.07040 -0.17300
C 	C 	0.40820 0.44220 0.04320 0.11900
C 	C 	0.38448 0.50850 0.17196 0.35600
C 	C 	0.38951 0.51599 0.20019 -0.15100
C 	C 	0.40093 0.49781 0.21786 0.13300
O 	O 	0.84935 0.46619 0.14009 -0.50300
O 	O 	0.87115 0.47847 0.17443 -0.38500
O 	O 	0.81220 0.40680 0.26114 -0.66500
O 	O 	0.85752 0.48720 0.08726 -0.43400
O 	O 	0.87787 0.52435 0.09249 -0.46500
O 	O 	0.82872 0.49523 0.96415 -0.43000
O 	O 	0.82032 0.46079 0.88836 -0.43200
C 	C 	0.85400 0.46380 0.16370 0.38100
C 	C 	0.83970 0.44390 0.17960 -0.17300
C 	C 	0.84180 0.44220 0.20680 0.11900
C 	C 	0.86552 0.50850 0.07804 0.35600
C 	C 	0.86049 0.51599 0.04981 -0.15200
C 	C 	0.84907 0.49781 0.03214 0.13400
O 	O 	0.84935 0.96619 0.64009 -0.50300
O 	O 	0.87115 0.97847 0.67443 -0.38400
O 	O 	0.81220 0.90680 0.76114 -0.66500
O 	O 	0.85752 0.98720 0.58726 -0.43300
O 	O 	0.87787 0.02435 0.59249 -0.46500
O 	O 	0.82872 0.99523 0.46415 -0.43000
O 	O 	0.82032 0.96079 0.38836 -0.43200
C 	C 	0.85400 0.96380 0.66370 0.38100
C 	C 	0.83970 0.94390 0.67960 -0.17300
C 	C 	0.84180 0.94220 0.70680 0.11900
C 	C 	0.86552 0.00850 0.57804 0.35500
C 	C 	0.86049 0.01599 0.54981 -0.15300
C 	C 	0.84907 0.99781 0.53214 0.13600
O 	O 	0.34935 0.46619 0.64009 -0.50300
O 	O 	0.37115 0.47847 0.67443 -0.38500
O 	O 	0.31220 0.40680 0.76114 -0.66500
O 	O 	0.35752 0.48720 0.58726 -0.43400
O 	O 	0.37787 0.52435 0.59249 -0.46500
O 	O 	0.32872 0.49523 0.46415 -0.42900
O 	O 	0.32032 0.46079 0.38836 -0.43200
C 	C 	0.35400 0.46380 0.66370 0.38100
C 	C 	0.33970 0.44390 0.67960 -0.17300
C 	C 	0.34180 0.44220 0.70680 0.11900
C 	C 	0.36552 0.50850 0.57804 0.35600
C 	C 	0.36049 0.51599 0.54981 -0.15100
C 	C 	0.34907 0.49781 0.53214 0.13300
O 	O 	0.34935 0.96619 0.14009 -0.50300
O 	O 	0.37115 0.97847 0.17443 -0.38400
O 	O 	0.31220 0.90680 0.26114 -0.66500
O 	O 	0.35752 0.98720 0.08726 -0.43300
O 	O 	0.37787 0.02435 0.09249 -0.46500
O 	O 	0.32872 0.99523 0.96415 -0.43000
O 	O 	0.32032 0.96079 0.88836 -0.43200
C 	C 	0.35400 0.96380 0.16370 0.38100
C 	C 	0.33970 0.94390 0.17960 -0.17300
C 	C 	0.34180 0.94220 0.20680 0.11900
C 	C 	0.36552 0.00850 0.07804 0.35500
C 	C 	0.36049 0.01599 0.04981 -0.15400
C 	C 	0.34907 0.99781 0.03214 0.13700
O 	O 	0.40065 0.28381 0.64009 -0.50300
O 	O 	0.37885 0.27153 0.67443 -0.38500
O 	O 	0.43780 0.34320 0.76114 -0.66500
O 	O 	0.39248 0.26280 0.58726 -0.43400
O 	O 	0.37213 0.22565 0.59249 -0.46500
O 	O 	0.42128 0.25477 0.46415 -0.42900
O 	O 	0.42968 0.28921 0.38836 -0.43200
C 	C 	0.39600 0.28620 0.66370 0.38100
C 	C 	0.41030 0.30610 0.67960 -0.17300
C 	C 	0.40820 0.30780 0.70680 0.11900
C 	C 	0.38448 0.24150 0.57804 0.35600
C 	C 	0.38951 0.23401 0.54981 -0.15100
C 	C 	0.40093 0.25219 0.53214 0.13300
O 	O 	0.40065 0.78381 0.14009 -0.50300
O 	O 	0.37885 0.77153 0.17443 -0.38500
O 	O 	0.43780 0.84320 0.26114 -0.66500
O 	O 	0.39248 0.76280 0.08726 -0.43400
O 	O 	0.37213 0.72565 0.09249 -0.46500
O 	O 	0.42128 0.75477 0.96415 -0.43000
O 	O 	0.42968 0.78921 0.88836 -0.43200
C 	C 	0.39600 0.78620 0.16370 0.38100
C 	C 	0.41030 0.80610 0.17960 -0.17300
C 	C 	0.40820 0.80780 0.20680 0.11900
C 	C 	0.38448 0.74150 0.07804 0.35600
C 	C 	0.38951 0.73401 0.04981 -0.15200
C 	C 	0.40093 0.75219 0.03214 0.13400
O 	O 	0.90065 0.28381 0.14009 -0.50300
O 	O 	0.87885 0.27153 0.17443 -0.38500
O 	O 	0.93780 0.34320 0.26114 -0.66500
O 	O 	0.89248 0.26280 0.08726 -0.43400
O 	O 	0.87213 0.22565 0.09249 -0.46500
O 	O 	0.92128 0.25477 0.96415 -0.43000
O 	O 	0.92968 0.28921 0.88836 -0.43200
C 	C 	0.89600 0.28620 0.16370 0.38100
C 	C 	0.91030 0.30610 0.17960 -0.17300
C 	C 	0.90820 0.30780 0.20680 0.11900
C 	C 	0.88448 0.24150 0.07804 0.35600
C 	C 	0.88951 0.23401 0.04981 -0.15200
C 	C 	0.90093 0.25219 0.03214 0.13400
O 	O 	0.90065 0.78381 0.64009 -0.50300
O 	O 	0.87885 0.77153 0.67443 -0.38500
O 	O 	0.93780 0.84320 0.76114 -0.66500
O 	O 	0.89248 0.76280 0.58726 -0.43400
O 	O 	0.87213 0.72565 0.59249 -0.46500
O 	O 	0.92128 0.75477 0.46415 -0.42900
O 	O 	0.92968 0.78921 0.38836 -0.43200
C 	C 	0.89600 0.78620 0.66370 0.38100
C 	C 	0.91030 0.80610 0.67960 -0.17300
C 	C 	0.90820 0.80780 0.70680 0.11900
C 	C 	0.88448 0.74150 0.57804 0.35600
C 	C 	0.88951 0.73401 0.54981 -0.15100
C 	C 	0.90093 0.75219 0.53214 0.13300
O 	O 	0.34935 0.78381 0.60991 -0.50300
O 	O 	0.37115 0.77153 0.57557 -0.38500
O 	O 	0.31220 0.84320 0.48886 -0.66500
O 	O 	0.35752 0.76280 0.66274 -0.43400
O 	O 	0.37787 0.72565 0.65751 -0.46500
O 	O 	0.32872 0.75477 0.78585 -0.42900
O 	O 	0.32032 0.78921 0.86164 -0.43200
C 	C 	0.35400 0.78620 0.58630 0.38100
C 	C 	0.33970 0.80610 0.57040 -0.17300
C 	C 	0.34180 0.80780 0.54320 0.11900
C 	C 	0.36552 0.74150 0.67196 0.35600
C 	C 	0.36049 0.73401 0.70019 -0.15100
C 	C 	0.34907 0.75219 0.71786 0.13300
O 	O 	0.34935 0.28381 0.10991 -0.50300
O 	O 	0.37115 0.27153 0.07557 -0.38500
O 	O 	0.31220 0.34320 0.98886 -0.66500
O 	O 	0.35752 0.26280 0.16274 -0.43400
O 	O 	0.37787 0.22565 0.15751 -0.46500
O 	O 	0.32872 0.25477 0.28585 -0.42900
O 	O 	0.32032 0.28921 0.36164 -0.43200
C 	C 	0.35400 0.28620 0.08630 0.38100
C 	C 	0.33970 0.30610 0.07040 -0.17300
C 	C 	0.34180 0.30780 0.04320 0.11900
C 	C 	0.36552 0.24150 0.17196 0.35600
C 	C 	0.36049 0.23401 0.20019 -0.15100
C 	C 	0.34907 0.25219 0.21786 0.13300
O 	O 	0.84935 0.78381 0.10991 -0.50300
O 	O 	0.87115 0.77153 0.07557 -0.38500
O 	O 	0.81220 0.84320 0.98886 -0.66500
O 	O 	0.85752 0.76280 0.16274 -0.43400
O 	O 	0.87787 0.72565 0.15751 -0.46500
O 	O 	0.82872 0.75477 0.28585 -0.42900
O 	O 	0.82032 0.78921 0.36164 -0.43200
C 	C 	0.85400 0.78620 0.08630 0.38100
C 	C 	0.83970 0.80610 0.07040 -0.17300
C 	C 	0.84180 0.80780 0.04320 0.11900
C 	C 	0.86552 0.74150 0.17196 0.35600
C 	C 	0.86049 0.73401 0.20019 -0.15100
C 	C 	0.84907 0.75219 0.21786 0.13300
O 	O 	0.84935 0.28381 0.60991 -0.50300
O 	O 	0.87115 0.27153 0.57557 -0.38500
O 	O 	0.81220 0.34320 0.48886 -0.66500
O 	O 	0.85752 0.26280 0.66274 -0.43400
O 	O 	0.87787 0.22565 0.65751 -0.46500
O 	O 	0.82872 0.25477 0.78585 -0.42900
O 	O 	0.82032 0.28921 0.86164 -0.43200
C 	C 	0.85400 0.28620 0.58630 0.38100
C 	C 	0.83970 0.30610 0.57040 -0.17300
C 	C 	0.84180 0.30780 0.54320 0.11900
C 	C 	0.86552 0.24150 0.67196 0.35600
C 	C 	0.86049 0.23401 0.70019 -0.15100
C 	C 	0.84907 0.25219 0.71786 0.13300
O 	O 	0.15065 0.85991 0.53381 -0.50300
O 	O 	0.12885 0.82557 0.52153 -0.38500
O 	O 	0.18780 0.73886 0.59320 -0.66500
O 	O 	0.14248 0.91274 0.51280 -0.43400
O 	O 	0.12213 0.90751 0.47565 -0.46500
O 	O 	0.17128 0.03585 0.50477 -0.42900
O 	O 	0.17968 0.11164 0.53921 -0.43200
C 	C 	0.14600 0.83630 0.53620 0.38100
C 	C 	0.16030 0.82040 0.55610 -0.17300
C 	C 	0.15820 0.79320 0.55780 0.11900
C 	C 	0.13448 0.92196 0.49150 0.35600
C 	C 	0.13951 0.95019 0.48401 -0.15000
C 	C 	0.15093 0.96786 0.50219 0.13300
O 	O 	0.15065 0.35991 0.03381 -0.50400
O 	O 	0.12885 0.32557 0.02153 -0.38500
O 	O 	0.18780 0.23886 0.09320 -0.66500
O 	O 	0.14248 0.41274 0.01280 -0.43500
O 	O 	0.12213 0.40751 0.97565 -0.46500
O 	O 	0.17128 0.53585 0.00477 -0.42900
O 	O 	0.17968 0.61164 0.03921 -0.43200
C 	C 	0.14600 0.33630 0.03620 0.38100
C 	C 	0.16030 0.32040 0.05610 -0.17300
C 	C 	0.15820 0.29320 0.05780 0.11900
C 	C 	0.13448 0.42196 0.99150 0.35700
C 	C 	0.13951 0.45019 0.98401 -0.14900
C 	C 	0.15093 0.46786 0.00219 0.13000
O 	O 	0.65065 0.85991 0.03381 -0.50400
O 	O 	0.62885 0.82557 0.02153 -0.38500
O 	O 	0.68780 0.73886 0.09320 -0.66500
O 	O 	0.64248 0.91274 0.01280 -0.43500
O 	O 	0.62213 0.90751 0.97565 -0.46500
O 	O 	0.67128 0.03585 0.00477 -0.42900
O 	O 	0.67968 0.11164 0.03921 -0.43200
C 	C 	0.64600 0.83630 0.03620 0.38100
C 	C 	0.66030 0.82040 0.05610 -0.17300
C 	C 	0.65820 0.79320 0.05780 0.11900
C 	C 	0.63448 0.92196 0.99150 0.35700
C 	C 	0.63951 0.95019 0.98401 -0.14900
C 	C 	0.65093 0.96786 0.00219 0.12900
O 	O 	0.65065 0.35991 0.53381 -0.50300
O 	O 	0.62885 0.32557 0.52153 -0.38500
O 	O 	0.68780 0.23886 0.59320 -0.66500
O 	O 	0.64248 0.41274 0.51280 -0.43400
O 	O 	0.62213 0.40751 0.47565 -0.46500
O 	O 	0.67128 0.53585 0.50477 -0.42900
O 	O 	0.67968 0.61164 0.53921 -0.43200
C 	C 	0.64600 0.33630 0.53620 0.38100
C 	C 	0.66030 0.32040 0.55610 -0.17300
C 	C 	0.65820 0.29320 0.55780 0.11900
C 	C 	0.63448 0.42196 0.49150 0.35600
C 	C 	0.63951 0.45019 0.48401 -0.15100
C 	C 	0.65093 0.46786 0.50219 0.13300
O 	O 	0.09935 0.89009 0.03381 -0.50400
O 	O 	0.12115 0.92443 0.02153 -0.38500
O 	O 	0.06220 0.01114 0.09320 -0.66500
O 	O 	0.10752 0.83726 0.01280 -0.43500
O 	O 	0.12787 0.84249 0.97565 -0.46500
O 	O 	0.07872 0.71415 0.00477 -0.42900
O 	O 	0.07032 0.63836 0.03921 -0.43200
C 	C 	0.10400 0.91370 0.03620 0.38100
C 	C 	0.08970 0.92960 0.05610 -0.17300
C 	C 	0.09180 0.95680 0.05780 0.11900
C 	C 	0.11552 0.82804 0.99150 0.35700
C 	C 	0.11049 0.79981 0.98401 -0.14900
C 	C 	0.09907 0.78214 0.00219 0.13000
O 	O 	0.09935 0.39009 0.53381 -0.50300
O 	O 	0.12115 0.42443 0.52153 -0.38500
O 	O 	0.06220 0.51114 0.59320 -0.66500
O 	O 	0.10752 0.33726 0.51280 -0.43400
O 	O 	0.12787 0.34249 0.47565 -0.46500
O 	O 	0.07872 0.21415 0.50477 -0.43000
O 	O 	0.07032 0.13836 0.53921 -0.43200
C 	C 	0.10400 0.41370 0.53620 0.38100
C 	C 	0.08970 0.42960 0.55610 -0.17300
C 	C 	0.09180 0.45680 0.55780 0.11900
C 	C 	0.11552 0.32804 0.49150 0.35600
C 	C 	0.11049 0.29981 0.48401 -0.15100
C 	C 	0.09907 0.28214 0.50219 0.13300
O 	O 	0.59935 0.89009 0.53381 -0.50300
O 	O 	0.62115 0.92443 0.52153 -0.38500
O 	O 	0.56220 0.01114 0.59320 -0.66500
O 	O 	0.60752 0.83726 0.51280 -0.43400
O 	O 	0.62787 0.84249 0.47565 -0.46500
O 	O 	0.57872 0.71415 0.50477 -0.42900
O 	O 	0.57032 0.63836 0.53921 -0.43200
C 	C 	0.60400 0.91370 0.53620 0.38100
C 	C 	0.58970 0.92960 0.55610 -0.17300
C 	C 	0.59180 0.95680 0.55780 0.11900
C 	C 	0.61552 0.82804 0.49150 0.35600
C 	C 	0.61049 0.79981 0.48401 -0.15100
C 	C 	0.59907 0.78214 0.50219 0.13300
O 	O 	0.59935 0.39009 0.03381 -0.50400
O 	O 	0.62115 0.42443 0.02153 -0.38500
O 	O 	0.56220 0.51114 0.09320 -0.66500
O 	O 	0.60752 0.33726 0.01280 -0.43500
O 	O 	0.62787 0.34249 0.97565 -0.46500
O 	O 	0.57872 0.21415 0.00477 -0.42900
O 	O 	0.57032 0.13836 0.03921 -0.43200
C 	C 	0.60400 0.41370 0.03620 0.38100
C 	C 	0.58970 0.42960 0.05610 -0.17300
C 	C 	0.59180 0.45680 0.05780 0.11900
C 	C 	0.61552 0.32804 0.99150 0.35700
C 	C 	0.61049 0.29981 0.98401 -0.14900
C 	C 	0.59907 0.28214 0.00219 0.13000
O 	O 	0.65065 0.39009 0.21619 -0.50300
O 	O 	0.62885 0.42443 0.22847 -0.38500
O 	O 	0.68780 0.51114 0.15680 -0.66500
O 	O 	0.64248 0.33726 0.23720 -0.43400
O 	O 	0.62213 0.34249 0.27435 -0.46500
O 	O 	0.67128 0.21415 0.24523 -0.42900
O 	O 	0.67968 0.13836 0.21079 -0.43200
C 	C 	0.64600 0.41370 0.21380 0.38100
C 	C 	0.66030 0.42960 0.19390 -0.17300
C 	C 	0.65820 0.45680 0.19220 0.11900
C 	C 	0.63448 0.32804 0.25850 0.35600
C 	C 	0.63951 0.29981 0.26599 -0.15100
C 	C 	0.65093 0.28214 0.24781 0.13300
O 	O 	0.65065 0.89009 0.71619 -0.50300
O 	O 	0.62885 0.92443 0.72847 -0.38500
O 	O 	0.68780 0.01114 0.65680 -0.66500
O 	O 	0.64248 0.83726 0.73720 -0.43400
O 	O 	0.62213 0.84249 0.77435 -0.46500
O 	O 	0.67128 0.71415 0.74523 -0.42900
O 	O 	0.67968 0.63836 0.71079 -0.43200
C 	C 	0.64600 0.91370 0.71380 0.38100
C 	C 	0.66030 0.92960 0.69390 -0.17300
C 	C 	0.65820 0.95680 0.69220 0.11900
C 	C 	0.63448 0.82804 0.75850 0.35600
C 	C 	0.63951 0.79981 0.76599 -0.15100
C 	C 	0.65093 0.78214 0.74781 0.13300
O 	O 	0.15065 0.39009 0.71619 -0.50300
O 	O 	0.12885 0.42443 0.72847 -0.38500
O 	O 	0.18780 0.51114 0.65680 -0.66500
O 	O 	0.14248 0.33726 0.73720 -0.43400
O 	O 	0.12213 0.34249 0.77435 -0.46500
O 	O 	0.17128 0.21415 0.74523 -0.42900
O 	O 	0.17968 0.13836 0.71079 -0.43200
C 	C 	0.14600 0.41370 0.71380 0.38100
C 	C 	0.16030 0.42960 0.69390 -0.17300
C 	C 	0.15820 0.45680 0.69220 0.11900
C 	C 	0.13448 0.32804 0.75850 0.35600
C 	C 	0.13951 0.29981 0.76599 -0.15100
C 	C 	0.15093 0.28214 0.74781 0.13300
O 	O 	0.15065 0.89009 0.21619 -0.50300
O 	O 	0.12885 0.92443 0.22847 -0.38500
O 	O 	0.18780 0.01114 0.15680 -0.66500
O 	O 	0.14248 0.83726 0.23720 -0.43400
O 	O 	0.12213 0.84249 0.27435 -0.46500
O 	O 	0.17128 0.71415 0.24523 -0.42900
O 	O 	0.17968 0.63836 0.21079 -0.43200
C 	C 	0.14600 0.91370 0.21380 0.38100
C 	C 	0.16030 0.92960 0.19390 -0.17300
C 	C 	0.15820 0.95680 0.19220 0.11900
C 	C 	0.13448 0.82804 0.25850 0.35600
C 	C 	0.13951 0.79981 0.26599 -0.15100
C 	C 	0.15093 0.78214 0.24781 0.13300
O 	O 	0.59935 0.35991 0.71619 -0.50300
O 	O 	0.62115 0.32557 0.72847 -0.38500
O 	O 	0.56220 0.23886 0.65680 -0.66500
O 	O 	0.60752 0.41274 0.73720 -0.43400
O 	O 	0.62787 0.40751 0.77435 -0.46500
O 	O 	0.57872 0.53585 0.74523 -0.42900
O 	O 	0.57032 0.61164 0.71079 -0.43200
C 	C 	0.60400 0.33630 0.71380 0.38100
C 	C 	0.58970 0.32040 0.69390 -0.17300
C 	C 	0.59180 0.29320 0.69220 0.11900
C 	C 	0.61552 0.42196 0.75850 0.35600
C 	C 	0.61049 0.45019 0.76599 -0.15100
C 	C 	0.59907 0.46786 0.74781 0.13300
O 	O 	0.59935 0.85991 0.21619 -0.50300
O 	O 	0.62115 0.82557 0.22847 -0.38500
O 	O 	0.56220 0.73886 0.15680 -0.66500
O 	O 	0.60752 0.91274 0.23720 -0.43400
O 	O 	0.62787 0.90751 0.27435 -0.46500
O 	O 	0.57872 0.03585 0.24523 -0.42900
O 	O 	0.57032 0.11164 0.21079 -0.43200
C 	C 	0.60400 0.83630 0.21380 0.38100
C 	C 	0.58970 0.82040 0.19390 -0.17300
C 	C 	0.59180 0.79320 0.19220 0.11900
C 	C 	0.61552 0.92196 0.25850 0.35600
C 	C 	0.61049 0.95019 0.26599 -0.15000
C 	C 	0.59907 0.96786 0.24781 0.13300
O 	O 	0.09935 0.35991 0.21619 -0.50300
O 	O 	0.12115 0.32557 0.22847 -0.38500
O 	O 	0.06220 0.23886 0.15680 -0.66500
O 	O 	0.10752 0.41274 0.23720 -0.43400
O 	O 	0.12787 0.40751 0.27435 -0.46500
O 	O 	0.07872 0.53585 0.24523 -0.43000
O 	O 	0.07032 0.61164 0.21079 -0.43200
C 	C 	0.10400 0.33630 0.21380 0.38100
C 	C 	0.08970 0.32040 0.19390 -0.17300
C 	C 	0.09180 0.29320 0.19220 0.11900
C 	C 	0.11552 0.42196 0.25850 0.35600
C 	C 	0.11049 0.45019 0.26599 -0.15100
C 	C 	0.09907 0.46786 0.24781 0.13300
O 	O 	0.09935 0.85991 0.71619 -0.50300
O 	O 	0.12115 0.82557 0.72847 -0.38500
O 	O 	0.06220 0.73886 0.65680 -0.66500
O 	O 	0.10752 0.91274 0.73720 -0.43400
O 	O 	0.12787 0.90751 0.77435 -0.46500
O 	O 	0.07872 0.03585 0.74523 -0.42900
O 	O 	0.07032 0.11164 0.71079 -0.43200
C 	C 	0.10400 0.83630 0.71380 0.38100
C 	C 	0.08970 0.82040 0.69390 -0.17300
C 	C 	0.09180 0.79320 0.69220 0.11900
C 	C 	0.11552 0.92196 0.75850 0.35600
C 	C 	0.11049 0.95019 0.76599 -0.15000
C 	C 	0.09907 0.96786 0.74781 0.13300
O 	O 	0.35991 0.71619 0.59935 -0.50300
O 	O 	0.32557 0.72847 0.62115 -0.38500
O 	O 	0.23886 0.65680 0.56220 -0.66500
O 	O 	0.41274 0.73720 0.60752 -0.43400
O 	O 	0.40751 0.77435 0.62787 -0.46500
O 	O 	0.53585 0.74523 0.57872 -0.42900
O 	O 	0.61164 0.71079 0.57032 -0.43200
C 	C 	0.33630 0.71380 0.60400 0.38100
C 	C 	0.32040 0.69390 0.58970 -0.17300
C 	C 	0.29320 0.69220 0.59180 0.11900
C 	C 	0.42196 0.75850 0.61552 0.35600
C 	C 	0.45019 0.76599 0.61049 -0.15100
C 	C 	0.46786 0.74781 0.59907 0.13300
O 	O 	0.35991 0.21619 0.09935 -0.50300
O 	O 	0.32557 0.22847 0.12115 -0.38500
O 	O 	0.23886 0.15680 0.06220 -0.66500
O 	O 	0.41274 0.23720 0.10752 -0.43400
O 	O 	0.40751 0.27435 0.12787 -0.46500
O 	O 	0.53585 0.24523 0.07872 -0.43000
O 	O 	0.61164 0.21079 0.07032 -0.43200
C 	C 	0.33630 0.21380 0.10400 0.38100
C 	C 	0.32040 0.19390 0.08970 -0.17300
C 	C 	0.29320 0.19220 0.09180 0.11900
C 	C 	0.42196 0.25850 0.11552 0.35600
C 	C 	0.45019 0.26599 0.11049 -0.15100
C 	C 	0.46786 0.24781 0.09907 0.13300
O 	O 	0.85991 0.71619 0.09935 -0.50300
O 	O 	0.82557 0.72847 0.12115 -0.38500
O 	O 	0.73886 0.65680 0.06220 -0.66500
O 	O 	0.91274 0.73720 0.10752 -0.43400
O 	O 	0.90751 0.77435 0.12787 -0.46500
O 	O 	0.03585 0.74523 0.07872 -0.42900
O 	O 	0.11164 0.71079 0.07032 -0.43200
C 	C 	0.83630 0.71380 0.10400 0.38100
C 	C 	0.82040 0.69390 0.08970 -0.17300
C 	C 	0.79320 0.69220 0.09180 0.11900
C 	C 	0.92196 0.75850 0.11552 0.35600
C 	C 	0.95019 0.76599 0.11049 -0.15000
C 	C 	0.96786 0.74781 0.09907 0.13300
O 	O 	0.85991 0.21619 0.59935 -0.50300
O 	O 	0.82557 0.22847 0.62115 -0.38500
O 	O 	0.73886 0.15680 0.56220 -0.66500
O 	O 	0.91274 0.23720 0.60752 -0.43400
O 	O 	0.90751 0.27435 0.62787 -0.46500
O 	O 	0.03585 0.24523 0.57872 -0.42900
O 	O 	0.11164 0.21079 0.57032 -0.43200
C 	C 	0.83630 0.21380 0.60400 0.38100
C 	C 	0.82040 0.19390 0.58970 -0.17300
C 	C 	0.79320 0.19220 0.59180 0.11900
C 	C 	0.92196 0.25850 0.61552 0.35600
C 	C 	0.95019 0.26599 0.61049 -0.15000
C 	C 	0.96786 0.24781 0.59907 0.13300
O 	O 	0.39009 0.21619 0.65065 -0.50300
O 	O 	0.42443 0.22847 0.62885 -0.38500
O 	O 	0.51114 0.15680 0.68780 -0.66500
O 	O 	0.33726 0.23720 0.64248 -0.43400
O 	O 	0.34249 0.27435 0.62213 -0.46500
O 	O 	0.21415 0.24523 0.67128 -0.42900
O 	O 	0.13836 0.21079 0.67968 -0.43200
C 	C 	0.41370 0.21380 0.64600 0.38100
C 	C 	0.42960 0.19390 0.66030 -0.17300
C 	C 	0.45680 0.19220 0.65820 0.11900
C 	C 	0.32804 0.25850 0.63448 0.35600
C 	C 	0.29981 0.26599 0.63951 -0.15100
C 	C 	0.28214 0.24781 0.65093 0.13300
O 	O 	0.39009 0.71619 0.15065 -0.50300
O 	O 	0.42443 0.72847 0.12885 -0.38500
O 	O 	0.51114 0.65680 0.18780 -0.66500
O 	O 	0.33726 0.73720 0.14248 -0.43400
O 	O 	0.34249 0.77435 0.12213 -0.46500
O 	O 	0.21415 0.74523 0.17128 -0.42900
O 	O 	0.13836 0.71079 0.17968 -0.43200
C 	C 	0.41370 0.71380 0.14600 0.38100
C 	C 	0.42960 0.69390 0.16030 -0.17300
C 	C 	0.45680 0.69220 0.15820 0.11900
C 	C 	0.32804 0.75850 0.13448 0.35600
C 	C 	0.29981 0.76599 0.13951 -0.15100
C 	C 	0.28214 0.74781 0.15093 0.13300
O 	O 	0.89009 0.21619 0.15065 -0.50300
O 	O 	0.92443 0.22847 0.12885 -0.38500
O 	O 	0.01114 0.15680 0.18780 -0.66500
O 	O 	0.83726 0.23720 0.14248 -0.43400
O 	O 	0.84249 0.27435 0.12213 -0.46500
O 	O 	0.71415 0.24523 0.17128 -0.42900
O 	O 	0.63836 0.21079 0.17968 -0.43200
C 	C 	0.91370 0.21380 0.14600 0.38100
C 	C 	0.92960 0.19390 0.16030 -0.17300
C 	C 	0.95680 0.19220 0.15820 0.11900
C 	C 	0.82804 0.25850 0.13448 0.35600
C 	C 	0.79981 0.26599 0.13951 -0.15100
C 	C 	0.78214 0.24781 0.15093 0.13300
O 	O 	0.89009 0.71619 0.65065 -0.50300
O 	O 	0.92443 0.72847 0.62885 -0.38500
O 	O 	0.01114 0.65680 0.68780 -0.66500
O 	O 	0.83726 0.73720 0.64248 -0.43400
O 	O 	0.84249 0.77435 0.62213 -0.46500
O 	O 	0.71415 0.74523 0.67128 -0.42900
O 	O 	0.63836 0.71079 0.67968 -0.43200
C 	C 	0.91370 0.71380 0.64600 0.38100
C 	C 	0.92960 0.69390 0.66030 -0.17300
C 	C 	0.95680 0.69220 0.65820 0.11900
C 	C 	0.82804 0.75850 0.63448 0.35600
C 	C 	0.79981 0.76599 0.63951 -0.15100
C 	C 	0.78214 0.74781 0.65093 0.13300
O 	O 	0.89009 0.03381 0.09935 -0.50400
O 	O 	0.92443 0.02153 0.12115 -0.38500
O 	O 	0.01114 0.09320 0.06220 -0.66500
O 	O 	0.83726 0.01280 0.10752 -0.43500
O 	O 	0.84249 0.97565 0.12787 -0.46500
O 	O 	0.71415 0.00477 0.07872 -0.42900
O 	O 	0.63836 0.03921 0.07032 -0.43200
C 	C 	0.91370 0.03620 0.10400 0.38100
C 	C 	0.92960 0.05610 0.08970 -0.17300
C 	C 	0.95680 0.05780 0.09180 0.11900
C 	C 	0.82804 0.99150 0.11552 0.35700
C 	C 	0.79981 0.98401 0.11049 -0.14900
C 	C 	0.78214 0.00219 0.09907 0.13000
O 	O 	0.89009 0.53381 0.59935 -0.50300
O 	O 	0.92443 0.52153 0.62115 -0.38500
O 	O 	0.01114 0.59320 0.56220 -0.66500
O 	O 	0.83726 0.51280 0.60752 -0.43400
O 	O 	0.84249 0.47565 0.62787 -0.46500
O 	O 	0.71415 0.50477 0.57872 -0.42900
O 	O 	0.63836 0.53921 0.57032 -0.43200
C 	C 	0.91370 0.53620 0.60400 0.38100
C 	C 	0.92960 0.55610 0.58970 -0.17300
C 	C 	0.95680 0.55780 0.59180 0.11900
C 	C 	0.82804 0.49150 0.61552 0.35600
C 	C 	0.79981 0.48401 0.61049 -0.15100
C 	C 	0.78214 0.50219 0.59907 0.13300
O 	O 	0.39009 0.03381 0.59935 -0.50400
O 	O 	0.42443 0.02153 0.62115 -0.38500
O 	O 	0.51114 0.09320 0.56220 -0.66500
O 	O 	0.33726 0.01280 0.60752 -0.43500
O 	O 	0.34249 0.97565 0.62787 -0.46500
O 	O 	0.21415 0.00477 0.57872 -0.42900
O 	O 	0.13836 0.03921 0.57032 -0.43200
C 	C 	0.41370 0.03620 0.60400 0.38100
C 	C 	0.42960 0.05610 0.58970 -0.17300
C 	C 	0.45680 0.05780 0.59180 0.11900
C 	C 	0.32804 0.99150 0.61552 0.35700
C 	C 	0.29981 0.98401 0.61049 -0.14900
C 	C 	0.28214 0.00219 0.59907 0.13000
O 	O 	0.39009 0.53381 0.09935 -0.50300
O 	O 	0.42443 0.52153 0.12115 -0.38500
O 	O 	0.51114 0.59320 0.06220 -0.66500
O 	O 	0.33726 0.51280 0.10752 -0.43400
O 	O 	0.34249 0.47565 0.12787 -0.46500
O 	O 	0.21415 0.50477 0.07872 -0.43000
O 	O 	0.13836 0.53921 0.07032 -0.43200
C 	C 	0.41370 0.53620 0.10400 0.38100
C 	C 	0.42960 0.55610 0.08970 -0.17300
C 	C 	0.45680 0.55780 0.09180 0.11900
C 	C 	0.32804 0.49150 0.11552 0.35600
C 	C 	0.29981 0.48401 0.11049 -0.15100
C 	C 	0.28214 0.50219 0.09907 0.13300
O 	O 	0.85991 0.53381 0.15065 -0.50300
O 	O 	0.82557 0.52153 0.12885 -0.38500
O 	O 	0.73886 0.59320 0.18780 -0.66500
O 	O 	0.91274 0.51280 0.14248 -0.43400
O 	O 	0.90751 0.47565 0.12213 -0.46500
O 	O 	0.03585 0.50477 0.17128 -0.42900
O 	O 	0.11164 0.53921 0.17968 -0.43200
C 	C 	0.83630 0.53620 0.14600 0.38100
C 	C 	0.82040 0.55610 0.16030 -0.17300
C 	C 	0.79320 0.55780 0.15820 0.11900
C 	C 	0.92196 0.49150 0.13448 0.35600
C 	C 	0.95019 0.48401 0.13951 -0.15000
C 	C 	0.96786 0.50219 0.15093 0.13300
O 	O 	0.85991 0.03381 0.65065 -0.50400
O 	O 	0.82557 0.02153 0.62885 -0.38500
O 	O 	0.73886 0.09320 0.68780 -0.66500
O 	O 	0.91274 0.01280 0.64248 -0.43500
O 	O 	0.90751 0.97565 0.62213 -0.46500
O 	O 	0.03585 0.00477 0.67128 -0.42900
O 	O 	0.11164 0.03921 0.67968 -0.43200
C 	C 	0.83630 0.03620 0.64600 0.38100
C 	C 	0.82040 0.05610 0.66030 -0.17300
C 	C 	0.79320 0.05780 0.65820 0.11900
C 	C 	0.92196 0.99150 0.63448 0.35700
C 	C 	0.95019 0.98401 0.63951 -0.14900
C 	C 	0.96786 0.00219 0.65093 0.12900
O 	O 	0.35991 0.53381 0.65065 -0.50300
O 	O 	0.32557 0.52153 0.62885 -0.38500
O 	O 	0.23886 0.59320 0.68780 -0.66500
O 	O 	0.41274 0.51280 0.64248 -0.43400
O 	O 	0.40751 0.47565 0.62213 -0.46500
O 	O 	0.53585 0.50477 0.67128 -0.42900
O 	O 	0.61164 0.53921 0.67968 -0.43200
C 	C 	0.33630 0.53620 0.64600 0.38100
C 	C 	0.32040 0.55610 0.66030 -0.17300
C 	C 	0.29320 0.55780 0.65820 0.11900
C 	C 	0.42196 0.49150 0.63448 0.35600
C 	C 	0.45019 0.48401 0.63951 -0.15100
C 	C 	0.46786 0.50219 0.65093 0.13300
O 	O 	0.35991 0.03381 0.15065 -0.50400
O 	O 	0.32557 0.02153 0.12885 -0.38500
O 	O 	0.23886 0.09320 0.18780 -0.66500
O 	O 	0.41274 0.01280 0.14248 -0.43500
O 	O 	0.40751 0.97565 0.12213 -0.46500
O 	O 	0.53585 0.00477 0.17128 -0.42900
O 	O 	0.61164 0.03921 0.17968 -0.43200
C 	C 	0.33630 0.03620 0.14600 0.38100
C 	C 	0.32040 0.05610 0.16030 -0.17300
C 	C 	0.29320 0.05780 0.15820 0.11900
C 	C 	0.42196 0.99150 0.13448 0.35700
C 	C 	0.45019 0.98401 0.13951 -0.14900
C 	C 	0.46786 0.00219 0.15093 0.13000
O 	O 	0.21619 0.65065 0.39009 -0.50300
O 	O 	0.22847 0.62885 0.42443 -0.38500
O 	O 	0.15680 0.68780 0.51114 -0.66500
O 	O 	0.23720 0.64248 0.33726 -0.43400
O 	O 	0.27435 0.62213 0.34249 -0.46500
O 	O 	0.24523 0.67128 0.21415 -0.42900
O 	O 	0.21079 0.67968 0.13836 -0.43200
C 	C 	0.21380 0.64600 0.41370 0.38100
C 	C 	0.19390 0.66030 0.42960 -0.17300
C 	C 	0.19220 0.65820 0.45680 0.11900
C 	C 	0.25850 0.63448 0.32804 0.35600
C 	C 	0.26599 0.63951 0.29981 -0.15100
C 	C 	0.24781 0.65093 0.28214 0.13300
O 	O 	0.21619 0.15065 0.89009 -0.50300
O 	O 	0.22847 0.12885 0.92443 -0.38500
O 	O 	0.15680 0.18780 0.01114 -0.66500
O 	O 	0.23720 0.14248 0.83726 -0.43400
O 	O 	0.27435 0.12213 0.84249 -0.46500
O 	O 	0.24523 0.17128 0.71415 -0.42900
O 	O 	0.21079 0.17968 0.63836 -0.43200
C 	C 	0.21380 0.14600 0.91370 0.38100
C 	C 	0.19390 0.16030 0.92960 -0.17300
C 	C 	0.19220 0.15820 0.95680 0.11900
C 	C 	0.25850 0.13448 0.82804 0.35600
C 	C 	0.26599 0.13951 0.79981 -0.15100
C 	C 	0.24781 0.15093 0.78214 0.13300
O 	O 	0.71619 0.65065 0.89009 -0.50300
O 	O 	0.72847 0.62885 0.92443 -0.38500
O 	O 	0.65680 0.68780 0.01114 -0.66500
O 	O 	0.73720 0.64248 0.83726 -0.43400
O 	O 	0.77435 0.62213 0.84249 -0.46500
O 	O 	0.74523 0.67128 0.71415 -0.42900
O 	O 	0.71079 0.67968 0.63836 -0.43200
C 	C 	0.71380 0.64600 0.91370 0.38100
C 	C 	0.69390 0.66030 0.92960 -0.17300
C 	C 	0.69220 0.65820 0.95680 0.11900
C 	C 	0.75850 0.63448 0.82804 0.35600
C 	C 	0.76599 0.63951 0.79981 -0.15100
C 	C 	0.74781 0.65093 0.78214 0.13300
O 	O 	0.71619 0.15065 0.39009 -0.50300
O 	O 	0.72847 0.12885 0.42443 -0.38500
O 	O 	0.65680 0.18780 0.51114 -0.66500
O 	O 	0.73720 0.14248 0.33726 -0.43400
O 	O 	0.77435 0.12213 0.34249 -0.46500
O 	O 	0.74523 0.17128 0.21415 -0.42900
O 	O 	0.71079 0.17968 0.13836 -0.43200
C 	C 	0.71380 0.14600 0.41370 0.38100
C 	C 	0.69390 0.16030 0.42960 -0.17300
C 	C 	0.69220 0.15820 0.45680 0.11900
C 	C 	0.75850 0.13448 0.32804 0.35600
C 	C 	0.76599 0.13951 0.29981 -0.15100
C 	C 	0.74781 0.15093 0.28214 0.13300
O 	O 	0.71619 0.59935 0.35991 -0.50300
O 	O 	0.72847 0.62115 0.32557 -0.38500
O 	O 	0.65680 0.56220 0.23886 -0.66500
O 	O 	0.73720 0.60752 0.41274 -0.43400
O 	O 	0.77435 0.62787 0.40751 -0.46500
O 	O 	0.74523 0.57872 0.53585 -0.42900
O 	O 	0.71079 0.57032 0.61164 -0.43200
C 	C 	0.71380 0.60400 0.33630 0.38100
C 	C 	0.69390 0.58970 0.32040 -0.17300
C 	C 	0.69220 0.59180 0.29320 0.11900
C 	C 	0.75850 0.61552 0.42196 0.35600
C 	C 	0.76599 0.61049 0.45019 -0.15100
C 	C 	0.74781 0.59907 0.46786 0.13300
O 	O 	0.71619 0.09935 0.85991 -0.50300
O 	O 	0.72847 0.12115 0.82557 -0.38500
O 	O 	0.65680 0.06220 0.73886 -0.66500
O 	O 	0.73720 0.10752 0.91274 -0.43400
O 	O 	0.77435 0.12787 0.90751 -0.46500
O 	O 	0.74523 0.07872 0.03585 -0.42900
O 	O 	0.71079 0.07032 0.11164 -0.43200
C 	C 	0.71380 0.10400 0.83630 0.38100
C 	C 	0.69390 0.08970 0.82040 -0.17300
C 	C 	0.69220 0.09180 0.79320 0.11900
C 	C 	0.75850 0.11552 0.92196 0.35600
C 	C 	0.76599 0.11049 0.95019 -0.15000
C 	C 	0.74781 0.09907 0.96786 0.13300
O 	O 	0.21619 0.59935 0.85991 -0.50300
O 	O 	0.22847 0.62115 0.82557 -0.38500
O 	O 	0.15680 0.56220 0.73886 -0.66500
O 	O 	0.23720 0.60752 0.91274 -0.43400
O 	O 	0.27435 0.62787 0.90751 -0.46500
O 	O 	0.24523 0.57872 0.03585 -0.42900
O 	O 	0.21079 0.57032 0.11164 -0.43200
C 	C 	0.21380 0.60400 0.83630 0.38100
C 	C 	0.19390 0.58970 0.82040 -0.17300
C 	C 	0.19220 0.59180 0.79320 0.11900
C 	C 	0.25850 0.61552 0.92196 0.35600
C 	C 	0.26599 0.61049 0.95019 -0.15000
C 	C 	0.24781 0.59907 0.96786 0.13300
O 	O 	0.21619 0.09935 0.35991 -0.50300
O 	O 	0.22847 0.12115 0.32557 -0.38500
O 	O 	0.15680 0.06220 0.23886 -0.66500
O 	O 	0.23720 0.10752 0.41274 -0.43400
O 	O 	0.27435 0.12787 0.40751 -0.46500
O 	O 	0.24523 0.07872 0.53585 -0.43000
O 	O 	0.21079 0.07032 0.61164 -0.43200
C 	C 	0.21380 0.10400 0.33630 0.38100
C 	C 	0.19390 0.08970 0.32040 -0.17300
C 	C 	0.19220 0.09180 0.29320 0.11900
C 	C 	0.25850 0.11552 0.42196 0.35600
C 	C 	0.26599 0.11049 0.45019 -0.15100
C 	C 	0.24781 0.09907 0.46786 0.13300
O 	O 	0.53381 0.15065 0.85991 -0.50300
O 	O 	0.52153 0.12885 0.82557 -0.38500
O 	O 	0.59320 0.18780 0.73886 -0.66500
O 	O 	0.51280 0.14248 0.91274 -0.43400
O 	O 	0.47565 0.12213 0.90751 -0.46500
O 	O 	0.50477 0.17128 0.03585 -0.42900
O 	O 	0.53921 0.17968 0.11164 -0.43200
C 	C 	0.53620 0.14600 0.83630 0.38100
C 	C 	0.55610 0.16030 0.82040 -0.17300
C 	C 	0.55780 0.15820 0.79320 0.11900
C 	C 	0.49150 0.13448 0.92196 0.35600
C 	C 	0.48401 0.13951 0.95019 -0.15000
C 	C 	0.50219 0.15093 0.96786 0.13300
O 	O 	0.53381 0.65065 0.35991 -0.50300
O 	O 	0.52153 0.62885 0.32557 -0.38500
O 	O 	0.59320 0.68780 0.23886 -0.66500
O 	O 	0.51280 0.64248 0.41274 -0.43400
O 	O 	0.47565 0.62213 0.40751 -0.46500
O 	O 	0.50477 0.67128 0.53585 -0.42900
O 	O 	0.53921 0.67968 0.61164 -0.43200
C 	C 	0.53620 0.64600 0.33630 0.38100
C 	C 	0.55610 0.66030 0.32040 -0.17300
C 	C 	0.55780 0.65820 0.29320 0.11900
C 	C 	0.49150 0.63448 0.42196 0.35600
C 	C 	0.48401 0.63951 0.45019 -0.15100
C 	C 	0.50219 0.65093 0.46786 0.13300
O 	O 	0.03381 0.15065 0.35991 -0.50400
O 	O 	0.02153 0.12885 0.32557 -0.38500
O 	O 	0.09320 0.18780 0.23886 -0.66500
O 	O 	0.01280 0.14248 0.41274 -0.43500
O 	O 	0.97565 0.12213 0.40751 -0.46500
O 	O 	0.00477 0.17128 0.53585 -0.42900
O 	O 	0.03921 0.17968 0.61164 -0.43200
C 	C 	0.03620 0.14600 0.33630 0.38100
C 	C 	0.05610 0.16030 0.32040 -0.17300
C 	C 	0.05780 0.15820 0.29320 0.11900
C 	C 	0.99150 0.13448 0.42196 0.35700
C 	C 	0.98401 0.13951 0.45019 -0.14900
C 	C 	0.00219 0.15093 0.46786 0.13000
O 	O 	0.03381 0.65065 0.85991 -0.50400
O 	O 	0.02153 0.62885 0.82557 -0.38500
O 	O 	0.09320 0.68780 0.73886 -0.66500
O 	O 	0.01280 0.64248 0.91274 -0.43500
O 	O 	0.97565 0.62213 0.90751 -0.46500
O 	O 	0.00477 0.67128 0.03585 -0.42900
O 	O 	0.03921 0.67968 0.11164 -0.43200
C 	C 	0.03620 0.64600 0.83630 0.38100
C 	C 	0.05610 0.66030 0.82040 -0.17300
C 	C 	0.05780 0.65820 0.79320 0.11900
C 	C 	0.99150 0.63448 0.92196 0.35700
C 	C 	0.98401 0.63951 0.95019 -0.14900
C 	C 	0.00219 0.65093 0.96786 0.12900
O 	O 	0.03381 0.09935 0.89009 -0.50400
O 	O 	0.02153 0.12115 0.92443 -0.38500
O 	O 	0.09320 0.06220 0.01114 -0.66500
O 	O 	0.01280 0.10752 0.83726 -0.43500
O 	O 	0.97565 0.12787 0.84249 -0.46500
O 	O 	0.00477 0.07872 0.71415 -0.42900
O 	O 	0.03921 0.07032 0.63836 -0.43200
C 	C 	0.03620 0.10400 0.91370 0.38100
C 	C 	0.05610 0.08970 0.92960 -0.17300
C 	C 	0.05780 0.09180 0.95680 0.11900
C 	C 	0.99150 0.11552 0.82804 0.35700
C 	C 	0.98401 0.11049 0.79981 -0.14900
C 	C 	0.00219 0.09907 0.78214 0.13000
O 	O 	0.03381 0.59935 0.39009 -0.50400
O 	O 	0.02153 0.62115 0.42443 -0.38500
O 	O 	0.09320 0.56220 0.51114 -0.66500
O 	O 	0.01280 0.60752 0.33726 -0.43500
O 	O 	0.97565 0.62787 0.34249 -0.46500
O 	O 	0.00477 0.57872 0.21415 -0.42900
O 	O 	0.03921 0.57032 0.13836 -0.43200
C 	C 	0.03620 0.60400 0.41370 0.38100
C 	C 	0.05610 0.58970 0.42960 -0.17300
C 	C 	0.05780 0.59180 0.45680 0.11900
C 	C 	0.99150 0.61552 0.32804 0.35700
C 	C 	0.98401 0.61049 0.29981 -0.14900
C 	C 	0.00219 0.59907 0.28214 0.13000
O 	O 	0.53381 0.09935 0.39009 -0.50300
O 	O 	0.52153 0.12115 0.42443 -0.38500
O 	O 	0.59320 0.06220 0.51114 -0.66500
O 	O 	0.51280 0.10752 0.33726 -0.43400
O 	O 	0.47565 0.12787 0.34249 -0.46500
O 	O 	0.50477 0.07872 0.21415 -0.43000
O 	O 	0.53921 0.07032 0.13836 -0.43200
C 	C 	0.53620 0.10400 0.41370 0.38100
C 	C 	0.55610 0.08970 0.42960 -0.17300
C 	C 	0.55780 0.09180 0.45680 0.11900
C 	C 	0.49150 0.11552 0.32804 0.35600
C 	C 	0.48401 0.11049 0.29981 -0.15100
C 	C 	0.50219 0.09907 0.28214 0.13300
O 	O 	0.53381 0.59935 0.89009 -0.50300
O 	O 	0.52153 0.62115 0.92443 -0.38500
O 	O 	0.59320 0.56220 0.01114 -0.66500
O 	O 	0.51280 0.60752 0.83726 -0.43400
O 	O 	0.47565 0.62787 0.84249 -0.46500
O 	O 	0.50477 0.57872 0.71415 -0.42900
O 	O 	0.53921 0.57032 0.63836 -0.43200
C 	C 	0.53620 0.60400 0.91370 0.38100
C 	C 	0.55610 0.58970 0.92960 -0.17300
C 	C 	0.55780 0.59180 0.95680 0.11900
C 	C 	0.49150 0.61552 0.82804 0.35600
C 	C 	0.48401 0.61049 0.79981 -0.15100
C 	C 	0.50219 0.59907 0.78214 0.13300
In	In	0.87809 0.12191 -0.00000 2.00100
In	In	0.87809 0.62191 0.50000 2.00100
In	In	0.37809 0.12191 0.50000 2.00100
In	In	0.37809 0.62191 -0.00000 2.00100
In	In	0.87191 0.12809 0.50000 2.00100
In	In	0.87191 0.62809 -0.00000 2.00100
In	In	0.37191 0.12809 -0.00000 2.00100
In	In	0.37191 0.62809 0.50000 2.00100
In	In	0.37191 0.62191 0.75000 2.00100
In	In	0.37191 0.12191 0.25000 2.00100
In	In	0.87191 0.62191 0.25000 2.00100
In	In	0.87191 0.12191 0.75000 2.00100
In	In	0.37809 0.62809 0.25000 2.00100
In	In	0.37809 0.12809 0.75000 2.00100
In	In	0.87809 0.62809 0.75000 2.00100
In	In	0.87809 0.12809 0.25000 2.00100
In	In	0.00000 0.87809 0.12191 2.00100
In	In	0.00000 0.37809 0.62191 2.00100
In	In	0.50000 0.87809 0.62191 2.00100
In	In	0.50000 0.37809 0.12191 2.00100
In	In	0.50000 0.87191 0.12809 2.00100
In	In	0.50000 0.37191 0.62809 2.00100
In	In	0.00000 0.87191 0.62809 2.00100
In	In	0.00000 0.37191 0.12809 2.00100
In	In	0.75000 0.37191 0.62191 2.00100
In	In	0.75000 0.87191 0.12191 2.00100
In	In	0.25000 0.37191 0.12191 2.00100
In	In	0.25000 0.87191 0.62191 2.00100
In	In	0.25000 0.37809 0.62809 2.00100
In	In	0.25000 0.87809 0.12809 2.00100
In	In	0.75000 0.37809 0.12809 2.00100
In	In	0.75000 0.87809 0.62809 2.00100
In	In	0.12191 0.00000 0.87809 2.00100
In	In	0.12191 0.50000 0.37809 2.00100
In	In	0.62191 0.00000 0.37809 2.00100
In	In	0.62191 0.50000 0.87809 2.00100
In	In	0.12809 0.50000 0.87191 2.00100
In	In	0.12809 0.00000 0.37191 2.00100
In	In	0.62809 0.50000 0.37191 2.00100
In	In	0.62809 0.00000 0.87191 2.00100
In	In	0.62191 0.75000 0.37191 2.00100
In	In	0.62191 0.25000 0.87191 2.00100
In	In	0.12191 0.75000 0.87191 2.00100
In	In	0.12191 0.25000 0.37191 2.00100
In	In	0.62809 0.25000 0.37809 2.00100
In	In	0.62809 0.75000 0.87809 2.00100
In	In	0.12809 0.25000 0.87809 2.00100
In	In	0.12809 0.75000 0.37809 2.00100
In	In	0.12191 0.87809 -0.00000 2.00100
In	In	0.12191 0.37809 0.50000 2.00100
In	In	0.62191 0.87809 0.50000 2.00100
In	In	0.62191 0.37809 -0.00000 2.00100
In	In	0.12809 0.87191 0.50000 2.00100
In	In	0.12809 0.37191 -0.00000 2.00100
In	In	0.62809 0.87191 -0.00000 2.00100
In	In	0.62809 0.37191 0.50000 2.00100
In	In	0.62809 0.37809 0.25000 2.00100
In	In	0.62809 0.87809 0.75000 2.00100
In	In	0.12809 0.37809 0.75000 2.00100
In	In	0.12809 0.87809 0.25000 2.00100
In	In	0.62191 0.37191 0.75000 2.00100
In	In	0.62191 0.87191 0.25000 2.00100
In	In	0.12191 0.37191 0.25000 2.00100
In	In	0.12191 0.87191 0.75000 2.00100
In	In	0.00000 0.12191 0.87809 2.00100
In	In	0.00000 0.62191 0.37809 2.00100
In	In	0.50000 0.12191 0.37809 2.00100
In	In	0.50000 0.62191 0.87809 2.00100
In	In	0.50000 0.12809 0.87191 2.00100
In	In	0.50000 0.62809 0.37191 2.00100
In	In	0.00000 0.12809 0.37191 2.00100
In	In	0.00000 0.62809 0.87191 2.00100
In	In	0.25000 0.62809 0.37809 2.00100
In	In	0.25000 0.12809 0.87809 2.00100
In	In	0.75000 0.62809 0.87809 2.00100
In	In	0.75000 0.12809 0.37809 2.00100
In	In	0.75000 0.62191 0.37191 2.00100
In	In	0.75000 0.12191 0.87191 2.00100
In	In	0.25000 0.62191 0.87191 2.00100
In	In	0.25000 0.12191 0.37191 2.00100
In	In	0.87809 0.00000 0.12191 2.00100
In	In	0.87809 0.50000 0.62191 2.00100
In	In	0.37809 0.00000 0.62191 2.00100
In	In	0.37809 0.50000 0.12191 2.00100
In	In	0.87191 0.50000 0.12809 2.00100
In	In	0.87191 0.00000 0.62809 2.00100
In	In	0.37191 0.50000 0.62809 2.00100
In	In	0.37191 0.00000 0.12809 2.00100
In	In	0.37809 0.25000 0.62809 2.00100
In	In	0.37809 0.75000 0.12809 2.00100
In	In	0.87809 0.25000 0.12809 2.00100
In	In	0.87809 0.75000 0.62809 2.00100
In	In	0.37191 0.75000 0.62191 2.00100
In	In	0.37191 0.25000 0.12191 2.00100
In	In	0.87191 0.75000 0.12191 2.00100
In	In	0.87191 0.25000 0.62191 2.00100
Co	Co	0.67661 0.07339 0.02312 1.17400
Co	Co	0.67661 0.57339 0.52312 1.17400
Co	Co	0.07339 0.17661 0.52312 1.17400
Co	Co	0.57339 0.17661 0.02312 1.17400
Co	Co	0.57339 0.67661 0.52312 1.17400
Co	Co	0.57339 0.57339 0.72688 1.17400
Co	Co	0.57339 0.07339 0.22688 1.17400
Co	Co	0.07339 0.57339 0.22688 1.17400
Co	Co	0.07339 0.07339 0.72688 1.17400
Co	Co	0.17661 0.67661 0.22688 1.17400
Co	Co	0.17661 0.17661 0.72688 1.17400
Co	Co	0.02312 0.67661 0.07339 1.17400
Co	Co	0.02312 0.17661 0.57339 1.17400
Co	Co	0.52312 0.67661 0.57339 1.17400
Co	Co	0.52312 0.07339 0.17661 1.17400
Co	Co	0.52312 0.57339 0.67661 1.17400
Co	Co	0.72688 0.57339 0.57339 1.17400
Co	Co	0.72688 0.07339 0.07339 1.17400
Co	Co	0.22688 0.57339 0.07339 1.17400
Co	Co	0.22688 0.07339 0.57339 1.17400
Co	Co	0.22688 0.17661 0.67661 1.17400
Co	Co	0.72688 0.17661 0.17661 1.17400
Co	Co	0.07339 0.02312 0.67661 1.17400
Co	Co	0.57339 0.02312 0.17661 1.17400
Co	Co	0.57339 0.52312 0.67661 1.17400
Co	Co	0.17661 0.52312 0.07339 1.17400
Co	Co	0.17661 0.02312 0.57339 1.17400
Co	Co	0.67661 0.52312 0.57339 1.17400
Co	Co	0.57339 0.72688 0.57339 1.17400
Co	Co	0.57339 0.22688 0.07339 1.17400
Co	Co	0.07339 0.72688 0.07339 1.17400
Co	Co	0.07339 0.22688 0.57339 1.17400
Co	Co	0.67661 0.22688 0.17661 1.17400
Co	Co	0.67661 0.72688 0.67661 1.17400
Co	Co	0.17661 0.72688 0.17661 1.17400
Co	Co	0.82339 0.92661 0.47688 1.17400
Co	Co	0.82339 0.42661 0.97688 1.17400
Co	Co	0.92661 0.32339 0.97688 1.17400
Co	Co	0.42661 0.32339 0.47688 1.17400
Co	Co	0.32339 0.82339 0.77312 1.17400
Co	Co	0.32339 0.32339 0.27312 1.17400
Co	Co	0.42661 0.42661 0.27312 1.17400
Co	Co	0.42661 0.92661 0.77312 1.17400
Co	Co	0.92661 0.42661 0.77312 1.17400
Co	Co	0.92661 0.92661 0.27312 1.17400
Co	Co	0.42661 0.27312 0.42661 1.17400
Co	Co	0.42661 0.77312 0.92661 1.17400
Co	Co	0.92661 0.27312 0.92661 1.17400
Co	Co	0.92661 0.77312 0.42661 1.17400
Co	Co	0.82339 0.77312 0.32339 1.17400
Co	Co	0.82339 0.27312 0.82339 1.17400
Co	Co	0.32339 0.27312 0.32339 1.17400
Co	Co	0.32339 0.97688 0.92661 1.17400
Co	Co	0.32339 0.47688 0.42661 1.17400
Co	Co	0.92661 0.47688 0.82339 1.17400
Co	Co	0.42661 0.47688 0.32339 1.17400
Co	Co	0.77312 0.32339 0.82339 1.17400
Co	Co	0.27312 0.32339 0.32339 1.17400
Co	Co	0.27312 0.42661 0.42661 1.17400
Co	Co	0.27312 0.92661 0.92661 1.17400
Co	Co	0.77312 0.42661 0.92661 1.17400
Co	Co	0.77312 0.92661 0.42661 1.17400
Co	Co	0.47688 0.82339 0.92661 1.17400
Co	Co	0.47688 0.32339 0.42661 1.17400
Co	Co	0.97688 0.92661 0.32339 1.17400
Co	Co	0.97688 0.42661 0.82339 1.17400
Co	Co	0.32339 0.92661 0.97688 1.17400
Co	Co	0.32339 0.42661 0.47688 1.17400
Co	Co	0.92661 0.82339 0.47688 1.17400
Co	Co	0.42661 0.82339 0.97688 1.17400
Co	Co	0.82339 0.32339 0.77312 1.17400
Co	Co	0.82339 0.82339 0.27312 1.17400
Co	Co	0.97688 0.32339 0.92661 1.17400
Co	Co	0.97688 0.82339 0.42661 1.17400
Co	Co	0.47688 0.92661 0.82339 1.17400
Co	Co	0.47688 0.42661 0.32339 1.17400
Co	Co	0.77312 0.82339 0.32339 1.17400
Co	Co	0.27312 0.82339 0.82339 1.17400
Co	Co	0.92661 0.97688 0.32339 1.17400
Co	Co	0.42661 0.97688 0.82339 1.17400
Co	Co	0.82339 0.47688 0.92661 1.17400
Co	Co	0.82339 0.97688 0.42661 1.17400
Co	Co	0.32339 0.77312 0.82339 1.17400
Co	Co	0.17661 0.07339 0.52312 1.17400
Co	Co	0.17661 0.57339 0.02312 1.17400
Co	Co	0.07339 0.67661 0.02312 1.17400
Co	Co	0.67661 0.17661 0.22688 1.17400
Co	Co	0.67661 0.67661 0.72688 1.17400
Co	Co	0.17661 0.22688 0.67661 1.17400
Co	Co	0.67661 0.02312 0.07339 1.17400
Co	Co	0.07339 0.52312 0.17661 1.17400
Co	Co	0.22688 0.67661 0.17661 1.17400
Co	Co	0.72688 0.67661 0.67661 1.17400
Co	Co	0.52312 0.17661 0.07339 1.17400
Co	Co	0.02312 0.07339 0.67661 1.17400
Co	Co	0.02312 0.57339 0.17661 1.17400
Co	Co	0.03986 0.03986 0.09408 0.77000
Co	Co	0.05171 0.05171 0.09465 0.57900
Co	Co	0.03986 0.53986 0.59408 0.77000
Co	Co	0.05171 0.55171 0.59465 0.57900
Co	Co	0.53986 0.03986 0.59408 0.77000
Co	Co	0.55171 0.05171 0.59465 0.57900
Co	Co	0.53986 0.53986 0.09408 0.77000
Co	Co	0.55171 0.55171 0.09465 0.57900
Co	Co	0.71014 0.21014 0.59408 0.77000
Co	Co	0.69829 0.19829 0.59465 0.57900
Co	Co	0.71014 0.71014 0.09408 0.77000
Co	Co	0.69829 0.69829 0.09465 0.57900
Co	Co	0.21014 0.53986 0.65592 0.77000
Co	Co	0.19829 0.55171 0.65535 0.57900
Co	Co	0.21014 0.03986 0.15592 0.77000
Co	Co	0.19829 0.05171 0.15535 0.57900
Co	Co	0.53986 0.71014 0.15592 0.77000
Co	Co	0.55171 0.69829 0.15535 0.57900
Co	Co	0.03986 0.71014 0.65592 0.77000
Co	Co	0.05171 0.69829 0.65535 0.57900
Co	Co	0.09408 0.03986 0.03986 0.77000
Co	Co	0.09465 0.05171 0.05171 0.57900
Co	Co	0.09408 0.53986 0.53986 0.77000
Co	Co	0.09465 0.55171 0.55171 0.57900
Co	Co	0.59408 0.03986 0.53986 0.77000
Co	Co	0.59465 0.05171 0.55171 0.57900
Co	Co	0.59408 0.53986 0.03986 0.77000
Co	Co	0.59465 0.55171 0.05171 0.57900
Co	Co	0.59408 0.71014 0.21014 0.77000
Co	Co	0.59465 0.69829 0.19829 0.57900
Co	Co	0.09408 0.71014 0.71014 0.77000
Co	Co	0.09465 0.69829 0.69829 0.57900
Co	Co	0.65592 0.21014 0.53986 0.77000
Co	Co	0.65535 0.19829 0.55171 0.57900
Co	Co	0.65592 0.71014 0.03986 0.77000
Co	Co	0.65535 0.69829 0.05171 0.57900
Co	Co	0.15592 0.53986 0.71014 0.77000
Co	Co	0.15535 0.55171 0.69829 0.57900
Co	Co	0.15592 0.03986 0.21014 0.77000
Co	Co	0.15535 0.05171 0.19829 0.57900
Co	Co	0.03986 0.09408 0.03986 0.77000
Co	Co	0.05171 0.09465 0.05171 0.57900
Co	Co	0.03986 0.59408 0.53986 0.77000
Co	Co	0.05171 0.59465 0.55171 0.57900
Co	Co	0.53986 0.09408 0.53986 0.77000
Co	Co	0.55171 0.09465 0.55171 0.57900
Co	Co	0.53986 0.59408 0.03986 0.77000
Co	Co	0.55171 0.59465 0.05171 0.57900
Co	Co	0.21014 0.59408 0.71014 0.77000
Co	Co	0.19829 0.59465 0.69829 0.57900
Co	Co	0.21014 0.09408 0.21014 0.77000
Co	Co	0.19829 0.09465 0.19829 0.57900
Co	Co	0.53986 0.65592 0.21014 0.77000
Co	Co	0.55171 0.65535 0.19829 0.57900
Co	Co	0.03986 0.65592 0.71014 0.77000
Co	Co	0.05171 0.65535 0.69829 0.57900
Co	Co	0.71014 0.15592 0.53986 0.77000
Co	Co	0.69829 0.15535 0.55171 0.57900
Co	Co	0.71014 0.65592 0.03986 0.77000
Co	Co	0.69829 0.65535 0.05171 0.57900
Co	Co	0.78986 0.28986 0.40592 0.77000
Co	Co	0.80171 0.30171 0.40535 0.57900
Co	Co	0.78986 0.78986 0.90592 0.77000
Co	Co	0.80171 0.80171 0.90535 0.57900
Co	Co	0.96014 0.96014 0.90592 0.77000
Co	Co	0.94829 0.94829 0.90535 0.57900
Co	Co	0.96014 0.46014 0.40592 0.77000
Co	Co	0.94829 0.44829 0.40535 0.57900
Co	Co	0.46014 0.96014 0.40592 0.77000
Co	Co	0.44829 0.94829 0.40535 0.57900
Co	Co	0.46014 0.46014 0.90592 0.77000
Co	Co	0.44829 0.44829 0.90535 0.57900
Co	Co	0.28986 0.46014 0.84408 0.77000
Co	Co	0.30171 0.44829 0.84465 0.57900
Co	Co	0.28986 0.96014 0.34408 0.77000
Co	Co	0.30171 0.94829 0.34465 0.57900
Co	Co	0.46014 0.78986 0.34408 0.77000
Co	Co	0.44829 0.80171 0.34465 0.57900
Co	Co	0.96014 0.78986 0.84408 0.77000
Co	Co	0.94829 0.80171 0.84465 0.57900
Co	Co	0.78986 0.34408 0.46014 0.77000
Co	Co	0.80171 0.34465 0.44829 0.57900
Co	Co	0.78986 0.84408 0.96014 0.77000
Co	Co	0.80171 0.84465 0.94829 0.57900
Co	Co	0.46014 0.84408 0.28986 0.77000
Co	Co	0.44829 0.84465 0.30171 0.57900
Co	Co	0.96014 0.84408 0.78986 0.77000
Co	Co	0.94829 0.84465 0.80171 0.57900
Co	Co	0.96014 0.90592 0.96014 0.77000
Co	Co	0.94829 0.90535 0.94829 0.57900
Co	Co	0.96014 0.40592 0.46014 0.77000
Co	Co	0.94829 0.40535 0.44829 0.57900
Co	Co	0.46014 0.90592 0.46014 0.77000
Co	Co	0.44829 0.90535 0.44829 0.57900
Co	Co	0.46014 0.40592 0.96014 0.77000
Co	Co	0.44829 0.40535 0.94829 0.57900
Co	Co	0.28986 0.40592 0.78986 0.77000
Co	Co	0.30171 0.40535 0.80171 0.57900
Co	Co	0.28986 0.90592 0.28986 0.77000
Co	Co	0.30171 0.90535 0.30171 0.57900
Co	Co	0.84408 0.28986 0.46014 0.77000
Co	Co	0.84465 0.30171 0.44829 0.57900
Co	Co	0.84408 0.78986 0.96014 0.77000
Co	Co	0.84465 0.80171 0.94829 0.57900
Co	Co	0.34408 0.46014 0.78986 0.77000
Co	Co	0.34465 0.44829 0.80171 0.57900
Co	Co	0.34408 0.96014 0.28986 0.77000
Co	Co	0.34465 0.94829 0.30171 0.57900
Co	Co	0.40592 0.78986 0.28986 0.77000
Co	Co	0.40535 0.80171 0.30171 0.57900
Co	Co	0.90592 0.78986 0.78986 0.77000
Co	Co	0.90535 0.80171 0.80171 0.57900
Co	Co	0.90592 0.96014 0.96014 0.77000
Co	Co	0.90535 0.94829 0.94829 0.57900
Co	Co	0.90592 0.46014 0.46014 0.77000
Co	Co	0.90535 0.44829 0.44829 0.57900
Co	Co	0.40592 0.96014 0.46014 0.77000
Co	Co	0.40535 0.94829 0.44829 0.57900
Co	Co	0.40592 0.46014 0.96014 0.77000
Co	Co	0.40535 0.44829 0.94829 0.57900
Co	Co	0.28986 0.78986 0.40592 0.77000
Co	Co	0.30171 0.80171 0.40535 0.57900
Co	Co	0.28986 0.28986 0.90592 0.77000
Co	Co	0.30171 0.30171 0.90535 0.57900
Co	Co	0.78986 0.46014 0.34408 0.77000
Co	Co	0.80171 0.44829 0.34465 0.57900
Co	Co	0.78986 0.96014 0.84408 0.77000
Co	Co	0.80171 0.94829 0.84465 0.57900
Co	Co	0.46014 0.28986 0.84408 0.77000
Co	Co	0.44829 0.30171 0.84465 0.57900
Co	Co	0.96014 0.28986 0.34408 0.77000
Co	Co	0.94829 0.30171 0.34465 0.57900
Co	Co	0.40592 0.28986 0.78986 0.77000
Co	Co	0.40535 0.30171 0.80171 0.57900
Co	Co	0.90592 0.28986 0.28986 0.77000
Co	Co	0.90535 0.30171 0.30171 0.57900
Co	Co	0.34408 0.78986 0.46014 0.77000
Co	Co	0.34465 0.80171 0.44829 0.57900
Co	Co	0.34408 0.28986 0.96014 0.77000
Co	Co	0.34465 0.30171 0.94829 0.57900
Co	Co	0.84408 0.46014 0.28986 0.77000
Co	Co	0.84465 0.44829 0.30171 0.57900
Co	Co	0.84408 0.96014 0.78986 0.77000
Co	Co	0.84465 0.94829 0.80171 0.57900
Co	Co	0.78986 0.40592 0.28986 0.77000
Co	Co	0.80171 0.40535 0.30171 0.57900
Co	Co	0.78986 0.90592 0.78986 0.77000
Co	Co	0.80171 0.90535 0.80171 0.57900
Co	Co	0.46014 0.34408 0.78986 0.77000
Co	Co	0.44829 0.34465 0.80171 0.57900
Co	Co	0.96014 0.34408 0.28986 0.77000
Co	Co	0.94829 0.34465 0.30171 0.57900
Co	Co	0.28986 0.84408 0.46014 0.77000
Co	Co	0.30171 0.84465 0.44829 0.57900
Co	Co	0.28986 0.34408 0.96014 0.77000
Co	Co	0.30171 0.34465 0.94829 0.57900
Co	Co	0.21014 0.71014 0.59408 0.77000
Co	Co	0.19829 0.69829 0.59465 0.57900
Co	Co	0.21014 0.21014 0.09408 0.77000
Co	Co	0.19829 0.19829 0.09465 0.57900
Co	Co	0.71014 0.53986 0.15592 0.77000
Co	Co	0.69829 0.55171 0.15535 0.57900
Co	Co	0.71014 0.03986 0.65592 0.77000
Co	Co	0.69829 0.05171 0.65535 0.57900
Co	Co	0.53986 0.21014 0.65592 0.77000
Co	Co	0.55171 0.19829 0.65535 0.57900
Co	Co	0.03986 0.21014 0.15592 0.77000
Co	Co	0.05171 0.19829 0.15535 0.57900
Co	Co	0.21014 0.65592 0.53986 0.77000
Co	Co	0.19829 0.65535 0.55171 0.57900
Co	Co	0.21014 0.15592 0.03986 0.77000
Co	Co	0.19829 0.15535 0.05171 0.57900
Co	Co	0.53986 0.15592 0.71014 0.77000
Co	Co	0.55171 0.15535 0.69829 0.57900
Co	Co	0.03986 0.15592 0.21014 0.77000
Co	Co	0.05171 0.15535 0.19829 0.57900
Co	Co	0.71014 0.59408 0.21014 0.77000
Co	Co	0.69829 0.59465 0.19829 0.57900
Co	Co	0.71014 0.09408 0.71014 0.77000
Co	Co	0.69829 0.09465 0.69829 0.57900
Co	Co	0.15592 0.71014 0.53986 0.77000
Co	Co	0.15535 0.69829 0.55171 0.57900
Co	Co	0.15592 0.21014 0.03986 0.77000
Co	Co	0.15535 0.19829 0.05171 0.57900
Co	Co	0.65592 0.53986 0.21014 0.77000
Co	Co	0.65535 0.55171 0.19829 0.57900
Co	Co	0.65592 0.03986 0.71014 0.77000
Co	Co	0.65535 0.05171 0.69829 0.57900
Co	Co	0.59408 0.21014 0.71014 0.77000
Co	Co	0.59465 0.19829 0.69829 0.57900
Co	Co	0.09408 0.21014 0.21014 0.77000
Co	Co	0.09465 0.19829 0.19829 0.57900
O 	O 	0.69537 0.05463 0.05463 -0.55800
O 	O 	0.05463 0.19537 0.55463 -0.55800
O 	O 	0.55463 0.55463 0.69537 -0.55800
O 	O 	0.19537 0.69537 0.19537 -0.55800
O 	O 	0.05463 0.69537 0.05463 -0.55800
O 	O 	0.55463 0.05463 0.19537 -0.55800
O 	O 	0.69537 0.55463 0.55463 -0.55800
O 	O 	0.19537 0.19537 0.69537 -0.55800
O 	O 	0.05463 0.05463 0.69537 -0.55800
O 	O 	0.19537 0.55463 0.05463 -0.55800
O 	O 	0.55463 0.69537 0.55463 -0.55800
O 	O 	0.69537 0.19537 0.19537 -0.55800
O 	O 	0.69537 0.69537 0.69537 -0.55800
O 	O 	0.80463 0.94537 0.44537 -0.55800
O 	O 	0.94537 0.30463 0.94537 -0.55800
O 	O 	0.30463 0.80463 0.80463 -0.55800
O 	O 	0.30463 0.30463 0.30463 -0.55800
O 	O 	0.44537 0.44537 0.30463 -0.55800
O 	O 	0.44537 0.30463 0.44537 -0.55800
O 	O 	0.80463 0.80463 0.30463 -0.55800
O 	O 	0.30463 0.94537 0.94537 -0.55800
O 	O 	0.94537 0.44537 0.80463 -0.55800
O 	O 	0.80463 0.30463 0.80463 -0.55800
O 	O 	0.30463 0.44537 0.44537 -0.55800
O 	O 	0.44537 0.80463 0.94537 -0.55800
O 	O 	0.94537 0.94537 0.30463 -0.55800
O 	O 	0.94537 0.80463 0.44537 -0.55800
O 	O 	0.44537 0.94537 0.80463 -0.55800
O 	O 	0.80463 0.44537 0.94537 -0.55800
O 	O 	0.19537 0.05463 0.55463 -0.55800
O 	O 	0.05463 0.55463 0.19537 -0.55800
O 	O 	0.55463 0.19537 0.05463 -0.55800
O 	O 	0.05216 0.05216 0.05216 -0.73200
O 	O 	0.05216 0.55216 0.55216 -0.73200
O 	O 	0.55216 0.05216 0.55216 -0.73200
O 	O 	0.55216 0.55216 0.05216 -0.73200
O 	O 	0.69784 0.19784 0.55216 -0.73200
O 	O 	0.69784 0.69784 0.05216 -0.73200
O 	O 	0.19784 0.55216 0.69784 -0.73200
O 	O 	0.19784 0.05216 0.19784 -0.73200
O 	O 	0.55216 0.69784 0.19784 -0.73200
O 	O 	0.05216 0.69784 0.69784 -0.73200
O 	O 	0.69784 0.05216 0.69784 -0.73200
O 	O 	0.80216 0.30216 0.44784 -0.73200
O 	O 	0.80216 0.80216 0.94784 -0.73200
O 	O 	0.94784 0.94784 0.94784 -0.73100
O 	O 	0.94784 0.44784 0.44784 -0.73200
O 	O 	0.44784 0.94784 0.44784 -0.73200
O 	O 	0.44784 0.44784 0.94784 -0.73200
O 	O 	0.30216 0.44784 0.80216 -0.73200
O 	O 	0.30216 0.94784 0.30216 -0.73200
O 	O 	0.44784 0.80216 0.30216 -0.73200
O 	O 	0.94784 0.80216 0.80216 -0.73200
O 	O 	0.94784 0.30216 0.30216 -0.73200
O 	O 	0.80216 0.94784 0.80216 -0.73200
O 	O 	0.30216 0.80216 0.44784 -0.73200
O 	O 	0.30216 0.30216 0.94784 -0.73200
O 	O 	0.80216 0.44784 0.30216 -0.73200
O 	O 	0.44784 0.30216 0.80216 -0.73200
O 	O 	0.19784 0.69784 0.55216 -0.73200
O 	O 	0.19784 0.19784 0.05216 -0.73200
O 	O 	0.69784 0.55216 0.19784 -0.73200
O 	O 	0.55216 0.19784 0.69784 -0.73200
O 	O 	0.05216 0.19784 0.19784 -0.73200
C 	C 	0.91490 0.07121 0.07121 0.14300
C 	C 	0.96950 0.07550 0.07550 -0.20700
C 	C 	0.00050 0.07760 0.07760 0.49500
C 	C 	0.62799 0.05885 0.05885 0.43200
C 	C 	0.60310 0.06864 0.06864 -0.21800
C 	C 	0.91490 0.57121 0.57121 0.14300
C 	C 	0.96950 0.57550 0.57550 -0.20700
C 	C 	0.00050 0.57760 0.57760 0.49500
C 	C 	0.62799 0.55885 0.55885 0.43200
C 	C 	0.60310 0.56864 0.56864 -0.21700
C 	C 	0.41490 0.07121 0.57121 0.14300
C 	C 	0.46950 0.07550 0.57550 -0.20800
C 	C 	0.50050 0.07760 0.57760 0.49600
C 	C 	0.12799 0.05885 0.55885 0.43200
C 	C 	0.10310 0.06864 0.56864 -0.21700
C 	C 	0.41490 0.57121 0.07121 0.14300
C 	C 	0.46950 0.57550 0.07550 -0.20800
C 	C 	0.50050 0.57760 0.07760 0.49600
C 	C 	0.12799 0.55885 0.05885 0.43200
C 	C 	0.10310 0.56864 0.06864 -0.21700
C 	C 	0.83510 0.17879 0.57121 0.14300
C 	C 	0.78050 0.17450 0.57550 -0.20800
C 	C 	0.74950 0.17240 0.57760 0.49600
C 	C 	0.12201 0.19115 0.55885 0.43200
C 	C 	0.14690 0.18136 0.56864 -0.21700
C 	C 	0.83510 0.67879 0.07121 0.14300
C 	C 	0.78050 0.67450 0.07550 -0.20800
C 	C 	0.74950 0.67240 0.07760 0.49600
C 	C 	0.12201 0.69115 0.05885 0.43200
C 	C 	0.14690 0.68136 0.06864 -0.21700
C 	C 	0.33510 0.57121 0.67879 0.14300
C 	C 	0.28050 0.57550 0.67450 -0.20800
C 	C 	0.24950 0.57760 0.67240 0.49600
C 	C 	0.62201 0.55885 0.69115 0.43200
C 	C 	0.64690 0.56864 0.68136 -0.21700
C 	C 	0.33510 0.07121 0.17879 0.14300
C 	C 	0.28050 0.07550 0.17450 -0.20800
C 	C 	0.24950 0.07760 0.17240 0.49600
C 	C 	0.62201 0.05885 0.19115 0.43200
C 	C 	0.64690 0.06864 0.18136 -0.21700
C 	C 	0.41490 0.67879 0.17879 0.14300
C 	C 	0.46950 0.67450 0.17450 -0.20800
C 	C 	0.50050 0.67240 0.17240 0.49600
C 	C 	0.12799 0.69115 0.19115 0.43200
C 	C 	0.10310 0.68136 0.18136 -0.21700
C 	C 	0.91490 0.67879 0.67879 0.14300
C 	C 	0.96950 0.67450 0.67450 -0.20700
C 	C 	0.00050 0.67240 0.67240 0.49500
C 	C 	0.62799 0.69115 0.69115 0.43200
C 	C 	0.60310 0.68136 0.68136 -0.21700
C 	C 	0.91490 0.17879 0.17879 0.14300
C 	C 	0.96950 0.17450 0.17450 -0.20700
C 	C 	0.00050 0.17240 0.17240 0.49500
C 	C 	0.62799 0.19115 0.19115 0.43200
C 	C 	0.60310 0.18136 0.18136 -0.21700
C 	C 	0.07121 0.91490 0.07121 0.14300
C 	C 	0.07550 0.96950 0.07550 -0.20700
C 	C 	0.07760 0.00050 0.07760 0.49500
C 	C 	0.05885 0.62799 0.05885 0.43200
C 	C 	0.06864 0.60310 0.06864 -0.21800
C 	C 	0.07121 0.41490 0.57121 0.14300
C 	C 	0.07550 0.46950 0.57550 -0.20800
C 	C 	0.07760 0.50050 0.57760 0.49600
C 	C 	0.05885 0.12799 0.55885 0.43200
C 	C 	0.06864 0.10310 0.56864 -0.21700
C 	C 	0.57121 0.91490 0.57121 0.14300
C 	C 	0.57550 0.96950 0.57550 -0.20700
C 	C 	0.57760 0.00050 0.57760 0.49500
C 	C 	0.55885 0.62799 0.55885 0.43200
C 	C 	0.56864 0.60310 0.56864 -0.21700
C 	C 	0.57121 0.41490 0.07121 0.14300
C 	C 	0.57550 0.46950 0.07550 -0.20800
C 	C 	0.57760 0.50050 0.07760 0.49600
C 	C 	0.55885 0.12799 0.05885 0.43200
C 	C 	0.56864 0.10310 0.06864 -0.21700
C 	C 	0.57121 0.83510 0.17879 0.14300
C 	C 	0.57550 0.78050 0.17450 -0.20800
C 	C 	0.57760 0.74950 0.17240 0.49600
C 	C 	0.55885 0.12201 0.19115 0.43200
C 	C 	0.56864 0.14690 0.18136 -0.21700
C 	C 	0.07121 0.83510 0.67879 0.14300
C 	C 	0.07550 0.78050 0.67450 -0.20800
C 	C 	0.07760 0.74950 0.67240 0.49600
C 	C 	0.05885 0.12201 0.69115 0.43200
C 	C 	0.06864 0.14690 0.68136 -0.21700
C 	C 	0.67879 0.33510 0.57121 0.14300
C 	C 	0.67450 0.28050 0.57550 -0.20800
C 	C 	0.67240 0.24950 0.57760 0.49600
C 	C 	0.69115 0.62201 0.55885 0.43200
C 	C 	0.68136 0.64690 0.56864 -0.21700
C 	C 	0.67879 0.83510 0.07121 0.14300
C 	C 	0.67450 0.78050 0.07550 -0.20800
C 	C 	0.67240 0.74950 0.07760 0.49600
C 	C 	0.69115 0.12201 0.05885 0.43200
C 	C 	0.68136 0.14690 0.06864 -0.21700
C 	C 	0.17879 0.41490 0.67879 0.14300
C 	C 	0.17450 0.46950 0.67450 -0.20800
C 	C 	0.17240 0.50050 0.67240 0.49600
C 	C 	0.19115 0.12799 0.69115 0.43200
C 	C 	0.18136 0.10310 0.68136 -0.21700
C 	C 	0.17879 0.91490 0.17879 0.14300
C 	C 	0.17450 0.96950 0.17450 -0.20700
C 	C 	0.17240 0.00050 0.17240 0.49500
C 	C 	0.19115 0.62799 0.19115 0.43200
C 	C 	0.18136 0.60310 0.18136 -0.21700
C 	C 	0.07121 0.07121 0.91490 0.14300
C 	C 	0.07550 0.07550 0.96950 -0.20700
C 	C 	0.07760 0.07760 0.00050 0.49500
C 	C 	0.05885 0.05885 0.62799 0.43200
C 	C 	0.06864 0.06864 0.60310 -0.21800
C 	C 	0.07121 0.57121 0.41490 0.14300
C 	C 	0.07550 0.57550 0.46950 -0.20800
C 	C 	0.07760 0.57760 0.50050 0.49600
C 	C 	0.05885 0.55885 0.12799 0.43200
C 	C 	0.06864 0.56864 0.10310 -0.21700
C 	C 	0.57121 0.07121 0.41490 0.14300
C 	C 	0.57550 0.07550 0.46950 -0.20800
C 	C 	0.57760 0.07760 0.50050 0.49600
C 	C 	0.55885 0.05885 0.12799 0.43200
C 	C 	0.56864 0.06864 0.10310 -0.21700
C 	C 	0.57121 0.57121 0.91490 0.14300
C 	C 	0.57550 0.57550 0.96950 -0.20700
C 	C 	0.57760 0.57760 0.00050 0.49500
C 	C 	0.55885 0.55885 0.62799 0.43200
C 	C 	0.56864 0.56864 0.60310 -0.21700
C 	C 	0.17879 0.57121 0.83510 0.14300
C 	C 	0.17450 0.57550 0.78050 -0.20800
C 	C 	0.17240 0.57760 0.74950 0.49600
C 	C 	0.19115 0.55885 0.12201 0.43200
C 	C 	0.18136 0.56864 0.14690 -0.21700
C 	C 	0.17879 0.07121 0.33510 0.14300
C 	C 	0.17450 0.07550 0.28050 -0.20800
C 	C 	0.17240 0.07760 0.24950 0.49600
C 	C 	0.19115 0.05885 0.62201 0.43200
C 	C 	0.18136 0.06864 0.64690 -0.21700
C 	C 	0.57121 0.67879 0.33510 0.14300
C 	C 	0.57550 0.67450 0.28050 -0.20800
C 	C 	0.57760 0.67240 0.24950 0.49600
C 	C 	0.55885 0.69115 0.62201 0.43200
C 	C 	0.56864 0.68136 0.64690 -0.21700
C 	C 	0.07121 0.67879 0.83510 0.14300
C 	C 	0.07550 0.67450 0.78050 -0.20800
C 	C 	0.07760 0.67240 0.74950 0.49600
C 	C 	0.05885 0.69115 0.12201 0.43200
C 	C 	0.06864 0.68136 0.14690 -0.21700
C 	C 	0.67879 0.17879 0.41490 0.14300
C 	C 	0.67450 0.17450 0.46950 -0.20800
C 	C 	0.67240 0.17240 0.50050 0.49600
C 	C 	0.69115 0.19115 0.12799 0.43200
C 	C 	0.68136 0.18136 0.10310 -0.21700
C 	C 	0.67879 0.67879 0.91490 0.14300
C 	C 	0.67450 0.67450 0.96950 -0.20700
C 	C 	0.67240 0.67240 0.00050 0.49500
C 	C 	0.69115 0.69115 0.62799 0.43200
C 	C 	0.68136 0.68136 0.60310 -0.21700
C 	C 	0.17879 0.17879 0.91490 0.14300
C 	C 	0.17450 0.17450 0.96950 -0.20700
C 	C 	0.17240 0.17240 0.00050 0.49500
C 	C 	0.19115 0.19115 0.62799 0.43200
C 	C 	0.18136 0.18136 0.60310 -0.21700
C 	C 	0.82121 0.16490 0.42879 0.14300
C 	C 	0.82550 0.21950 0.42450 -0.20800
C 	C 	0.82760 0.25050 0.42240 0.49600
C 	C 	0.80885 0.87799 0.44115 0.43200
C 	C 	0.81864 0.85310 0.43136 -0.21700
C 	C 	0.82121 0.66490 0.92879 0.14300
C 	C 	0.82550 0.71950 0.92450 -0.20800
C 	C 	0.82760 0.75050 0.92240 0.49600
C 	C 	0.80885 0.37799 0.94115 0.43200
C 	C 	0.81864 0.35310 0.93136 -0.21700
C 	C 	0.92879 0.08510 0.92879 0.14300
C 	C 	0.92450 0.03050 0.92450 -0.20900
C 	C 	0.92240 0.99950 0.92240 0.49700
C 	C 	0.94115 0.37201 0.94115 0.43200
C 	C 	0.93136 0.39690 0.93136 -0.21700
C 	C 	0.92879 0.58510 0.42879 0.14300
C 	C 	0.92450 0.53050 0.42450 -0.20800
C 	C 	0.92240 0.49950 0.42240 0.49600
C 	C 	0.94115 0.87201 0.44115 0.43200
C 	C 	0.93136 0.89690 0.43136 -0.21700
C 	C 	0.42879 0.08510 0.42879 0.14300
C 	C 	0.42450 0.03050 0.42450 -0.20900
C 	C 	0.42240 0.99950 0.42240 0.49700
C 	C 	0.44115 0.37201 0.44115 0.43200
C 	C 	0.43136 0.39690 0.43136 -0.21700
C 	C 	0.42879 0.58510 0.92879 0.14300
C 	C 	0.42450 0.53050 0.92450 -0.20800
C 	C 	0.42240 0.49950 0.92240 0.49600
C 	C 	0.44115 0.87201 0.94115 0.43200
C 	C 	0.43136 0.89690 0.93136 -0.21700
C 	C 	0.32121 0.58510 0.82121 0.14300
C 	C 	0.32550 0.53050 0.82550 -0.20800
C 	C 	0.32760 0.49950 0.82760 0.49600
C 	C 	0.30885 0.87201 0.80885 0.43200
C 	C 	0.31864 0.89690 0.81864 -0.21700
C 	C 	0.32121 0.08510 0.32121 0.14300
C 	C 	0.32550 0.03050 0.32550 -0.20900
C 	C 	0.32760 0.99950 0.32760 0.49700
C 	C 	0.30885 0.37201 0.30885 0.43200
C 	C 	0.31864 0.39690 0.31864 -0.21700
C 	C 	0.42879 0.66490 0.32121 0.14300
C 	C 	0.42450 0.71950 0.32550 -0.20800
C 	C 	0.42240 0.75050 0.32760 0.49600
C 	C 	0.44115 0.37799 0.30885 0.43200
C 	C 	0.43136 0.35310 0.31864 -0.21700
C 	C 	0.92879 0.66490 0.82121 0.14300
C 	C 	0.92450 0.71950 0.82550 -0.20800
C 	C 	0.92240 0.75050 0.82760 0.49600
C 	C 	0.94115 0.37799 0.80885 0.43200
C 	C 	0.93136 0.35310 0.81864 -0.21700
C 	C 	0.66490 0.32121 0.42879 0.14300
C 	C 	0.71950 0.32550 0.42450 -0.20800
C 	C 	0.75050 0.32760 0.42240 0.49600
C 	C 	0.37799 0.30885 0.44115 0.43200
C 	C 	0.35310 0.31864 0.43136 -0.21700
C 	C 	0.66490 0.82121 0.92879 0.14300
C 	C 	0.71950 0.82550 0.92450 -0.20800
C 	C 	0.75050 0.82760 0.92240 0.49600
C 	C 	0.37799 0.80885 0.94115 0.43200
C 	C 	0.35310 0.81864 0.93136 -0.21700
C 	C 	0.58510 0.82121 0.32121 0.14300
C 	C 	0.53050 0.82550 0.32550 -0.20800
C 	C 	0.49950 0.82760 0.32760 0.49600
C 	C 	0.87201 0.80885 0.30885 0.43200
C 	C 	0.89690 0.81864 0.31864 -0.21700
C 	C 	0.08510 0.82121 0.82121 0.14300
C 	C 	0.03050 0.82550 0.82550 -0.20900
C 	C 	0.99950 0.82760 0.82760 0.49700
C 	C 	0.37201 0.80885 0.80885 0.43200
C 	C 	0.39690 0.81864 0.81864 -0.21700
C 	C 	0.08510 0.32121 0.32121 0.14300
C 	C 	0.03050 0.32550 0.32550 -0.20900
C 	C 	0.99950 0.32760 0.32760 0.49700
C 	C 	0.37201 0.30885 0.30885 0.43200
C 	C 	0.39690 0.31864 0.31864 -0.21700
C 	C 	0.08510 0.92879 0.92879 0.14300
C 	C 	0.03050 0.92450 0.92450 -0.20900
C 	C 	0.99950 0.92240 0.92240 0.49700
C 	C 	0.37201 0.94115 0.94115 0.43200
C 	C 	0.39690 0.93136 0.93136 -0.21700
C 	C 	0.08510 0.42879 0.42879 0.14300
C 	C 	0.03050 0.42450 0.42450 -0.20900
C 	C 	0.99950 0.42240 0.42240 0.49700
C 	C 	0.37201 0.44115 0.44115 0.43200
C 	C 	0.39690 0.43136 0.43136 -0.21700
C 	C 	0.58510 0.92879 0.42879 0.14300
C 	C 	0.53050 0.92450 0.42450 -0.20800
C 	C 	0.49950 0.92240 0.42240 0.49600
C 	C 	0.87201 0.94115 0.44115 0.43200
C 	C 	0.89690 0.93136 0.43136 -0.21700
C 	C 	0.58510 0.42879 0.92879 0.14300
C 	C 	0.53050 0.42450 0.92450 -0.20800
C 	C 	0.49950 0.42240 0.92240 0.49600
C 	C 	0.87201 0.44115 0.94115 0.43200
C 	C 	0.89690 0.43136 0.93136 -0.21700
C 	C 	0.16490 0.42879 0.82121 0.14300
C 	C 	0.21950 0.42450 0.82550 -0.20800
C 	C 	0.25050 0.42240 0.82760 0.49600
C 	C 	0.87799 0.44115 0.80885 0.43200
C 	C 	0.85310 0.43136 0.81864 -0.21700
C 	C 	0.16490 0.92879 0.32121 0.14300
C 	C 	0.21950 0.92450 0.32550 -0.20800
C 	C 	0.25050 0.92240 0.32760 0.49600
C 	C 	0.87799 0.94115 0.30885 0.43200
C 	C 	0.85310 0.93136 0.31864 -0.21700
C 	C 	0.82121 0.32121 0.58510 0.14300
C 	C 	0.82550 0.32550 0.53050 -0.20800
C 	C 	0.82760 0.32760 0.49950 0.49600
C 	C 	0.80885 0.30885 0.87201 0.43200
C 	C 	0.81864 0.31864 0.89690 -0.21700
C 	C 	0.82121 0.82121 0.08510 0.14300
C 	C 	0.82550 0.82550 0.03050 -0.20900
C 	C 	0.82760 0.82760 0.99950 0.49700
C 	C 	0.80885 0.80885 0.37201 0.43200
C 	C 	0.81864 0.81864 0.39690 -0.21700
C 	C 	0.32121 0.32121 0.08510 0.14300
C 	C 	0.32550 0.32550 0.03050 -0.20900
C 	C 	0.32760 0.32760 0.99950 0.49700
C 	C 	0.30885 0.30885 0.37201 0.43200
C 	C 	0.31864 0.31864 0.39690 -0.21700
C 	C 	0.32121 0.42879 0.66490 0.14300
C 	C 	0.32550 0.42450 0.71950 -0.20800
C 	C 	0.32760 0.42240 0.75050 0.49600
C 	C 	0.30885 0.44115 0.37799 0.43200
C 	C 	0.31864 0.43136 0.35310 -0.21700
C 	C 	0.32121 0.92879 0.16490 0.14300
C 	C 	0.32550 0.92450 0.21950 -0.20800
C 	C 	0.32760 0.92240 0.25050 0.49600
C 	C 	0.30885 0.94115 0.87799 0.43200
C 	C 	0.31864 0.93136 0.85310 -0.21700
C 	C 	0.42879 0.82121 0.16490 0.14300
C 	C 	0.42450 0.82550 0.21950 -0.20800
C 	C 	0.42240 0.82760 0.25050 0.49600
C 	C 	0.44115 0.80885 0.87799 0.43200
C 	C 	0.43136 0.81864 0.85310 -0.21700
C 	C 	0.92879 0.82121 0.66490 0.14300
C 	C 	0.92450 0.82550 0.71950 -0.20800
C 	C 	0.92240 0.82760 0.75050 0.49600
C 	C 	0.94115 0.80885 0.37799 0.43200
C 	C 	0.93136 0.81864 0.35310 -0.21700
C 	C 	0.92879 0.92879 0.08510 0.14300
C 	C 	0.92450 0.92450 0.03050 -0.20900
C 	C 	0.92240 0.92240 0.99950 0.49700
C 	C 	0.94115 0.94115 0.37201 0.43200
C 	C 	0.93136 0.93136 0.39690 -0.21700
C 	C 	0.92879 0.42879 0.58510 0.14300
C 	C 	0.92450 0.42450 0.53050 -0.20800
C 	C 	0.92240 0.42240 0.49950 0.49600
C 	C 	0.94115 0.44115 0.87201 0.43200
C 	C 	0.93136 0.43136 0.89690 -0.21700
C 	C 	0.42879 0.92879 0.58510 0.14300
C 	C 	0.42450 0.92450 0.53050 -0.20800
C 	C 	0.42240 0.92240 0.49950 0.49600
C 	C 	0.44115 0.94115 0.87201 0.43200
C 	C 	0.43136 0.93136 0.89690 -0.21700
C 	C 	0.42879 0.42879 0.08510 0.14300
C 	C 	0.42450 0.42450 0.03050 -0.20900
C 	C 	0.42240 0.42240 0.99950 0.49700
C 	C 	0.44115 0.44115 0.37201 0.43200
C 	C 	0.43136 0.43136 0.39690 -0.21700
C 	C 	0.16490 0.82121 0.42879 0.14300
C 	C 	0.21950 0.82550 0.42450 -0.20800
C 	C 	0.25050 0.82760 0.42240 0.49600
C 	C 	0.87799 0.80885 0.44115 0.43200
C 	C 	0.85310 0.81864 0.43136 -0.21700
C 	C 	0.16490 0.32121 0.92879 0.14300
C 	C 	0.21950 0.32550 0.92450 -0.20800
C 	C 	0.25050 0.32760 0.92240 0.49600
C 	C 	0.87799 0.30885 0.94115 0.43200
C 	C 	0.85310 0.31864 0.93136 -0.21700
C 	C 	0.66490 0.42879 0.32121 0.14300
C 	C 	0.71950 0.42450 0.32550 -0.20800
C 	C 	0.75050 0.42240 0.32760 0.49600
C 	C 	0.37799 0.44115 0.30885 0.43200
C 	C 	0.35310 0.43136 0.31864 -0.21700
C 	C 	0.66490 0.92879 0.82121 0.14300
C 	C 	0.71950 0.92450 0.82550 -0.20800
C 	C 	0.75050 0.92240 0.82760 0.49600
C 	C 	0.37799 0.94115 0.80885 0.43200
C 	C 	0.35310 0.93136 0.81864 -0.21700
C 	C 	0.58510 0.32121 0.82121 0.14300
C 	C 	0.53050 0.32550 0.82550 -0.20800
C 	C 	0.49950 0.32760 0.82760 0.49600
C 	C 	0.87201 0.30885 0.80885 0.43200
C 	C 	0.89690 0.31864 0.81864 -0.21700
C 	C 	0.42879 0.16490 0.82121 0.14300
C 	C 	0.42450 0.21950 0.82550 -0.20800
C 	C 	0.42240 0.25050 0.82760 0.49600
C 	C 	0.44115 0.87799 0.80885 0.43200
C 	C 	0.43136 0.85310 0.81864 -0.21700
C 	C 	0.92879 0.16490 0.32121 0.14300
C 	C 	0.92450 0.21950 0.32550 -0.20800
C 	C 	0.92240 0.25050 0.32760 0.49600
C 	C 	0.94115 0.87799 0.30885 0.43200
C 	C 	0.93136 0.85310 0.31864 -0.21700
C 	C 	0.32121 0.66490 0.42879 0.14300
C 	C 	0.32550 0.71950 0.42450 -0.20800
C 	C 	0.32760 0.75050 0.42240 0.49600
C 	C 	0.30885 0.37799 0.44115 0.43200
C 	C 	0.31864 0.35310 0.43136 -0.21700
C 	C 	0.32121 0.16490 0.92879 0.14300
C 	C 	0.32550 0.21950 0.92450 -0.20800
C 	C 	0.32760 0.25050 0.92240 0.49600
C 	C 	0.30885 0.87799 0.94115 0.43200
C 	C 	0.31864 0.85310 0.93136 -0.21700
C 	C 	0.82121 0.58510 0.32121 0.14300
C 	C 	0.82550 0.53050 0.32550 -0.20800
C 	C 	0.82760 0.49950 0.32760 0.49600
C 	C 	0.80885 0.87201 0.30885 0.43200
C 	C 	0.81864 0.89690 0.31864 -0.21700
C 	C 	0.82121 0.08510 0.82121 0.14300
C 	C 	0.82550 0.03050 0.82550 -0.20900
C 	C 	0.82760 0.99950 0.82760 0.49700
C 	C 	0.80885 0.37201 0.80885 0.43200
C 	C 	0.81864 0.39690 0.81864 -0.21700
C 	C 	0.82121 0.42879 0.16490 0.14300
C 	C 	0.82550 0.42450 0.21950 -0.20800
C 	C 	0.82760 0.42240 0.25050 0.49600
C 	C 	0.80885 0.44115 0.87799 0.43200
C 	C 	0.81864 0.43136 0.85310 -0.21700
C 	C 	0.82121 0.92879 0.66490 0.14300
C 	C 	0.82550 0.92450 0.71950 -0.20800
C 	C 	0.82760 0.92240 0.75050 0.49600
C 	C 	0.80885 0.94115 0.37799 0.43200
C 	C 	0.81864 0.93136 0.35310 -0.21700
C 	C 	0.42879 0.32121 0.66490 0.14300
C 	C 	0.42450 0.32550 0.71950 -0.20800
C 	C 	0.42240 0.32760 0.75050 0.49600
C 	C 	0.44115 0.30885 0.37799 0.43200
C 	C 	0.43136 0.31864 0.35310 -0.21700
C 	C 	0.92879 0.32121 0.16490 0.14300
C 	C 	0.92450 0.32550 0.21950 -0.20800
C 	C 	0.92240 0.32760 0.25050 0.49600
C 	C 	0.94115 0.30885 0.87799 0.43200
C 	C 	0.93136 0.31864 0.85310 -0.21700
C 	C 	0.32121 0.82121 0.58510 0.14300
C 	C 	0.32550 0.82550 0.53050 -0.20800
C 	C 	0.32760 0.82760 0.49950 0.49600
C 	C 	0.30885 0.80885 0.87201 0.43200
C 	C 	0.31864 0.81864 0.89690 -0.21700
C 	C 	0.17879 0.83510 0.57121 0.14300
C 	C 	0.17450 0.78050 0.57550 -0.20800
C 	C 	0.17240 0.74950 0.57760 0.49600
C 	C 	0.19115 0.12201 0.55885 0.43200
C 	C 	0.18136 0.14690 0.56864 -0.21700
C 	C 	0.17879 0.33510 0.07121 0.14300
C 	C 	0.17450 0.28050 0.07550 -0.20800
C 	C 	0.17240 0.24950 0.07760 0.49600
C 	C 	0.19115 0.62201 0.05885 0.43200
C 	C 	0.18136 0.64690 0.06864 -0.21700
C 	C 	0.67879 0.41490 0.17879 0.14300
C 	C 	0.67450 0.46950 0.17450 -0.20800
C 	C 	0.67240 0.50050 0.17240 0.49600
C 	C 	0.69115 0.12799 0.19115 0.43200
C 	C 	0.68136 0.10310 0.18136 -0.21700
C 	C 	0.67879 0.91490 0.67879 0.14300
C 	C 	0.67450 0.96950 0.67450 -0.20700
C 	C 	0.67240 0.00050 0.67240 0.49500
C 	C 	0.69115 0.62799 0.69115 0.43200
C 	C 	0.68136 0.60310 0.68136 -0.21700
C 	C 	0.57121 0.33510 0.67879 0.14300
C 	C 	0.57550 0.28050 0.67450 -0.20800
C 	C 	0.57760 0.24950 0.67240 0.49600
C 	C 	0.55885 0.62201 0.69115 0.43200
C 	C 	0.56864 0.64690 0.68136 -0.21700
C 	C 	0.07121 0.33510 0.17879 0.14300
C 	C 	0.07550 0.28050 0.17450 -0.20800
C 	C 	0.07760 0.24950 0.17240 0.49600
C 	C 	0.05885 0.62201 0.19115 0.43200
C 	C 	0.06864 0.64690 0.18136 -0.21700
C 	C 	0.33510 0.67879 0.57121 0.14300
C 	C 	0.28050 0.67450 0.57550 -0.20800
C 	C 	0.24950 0.67240 0.57760 0.49600
C 	C 	0.62201 0.69115 0.55885 0.43200
C 	C 	0.64690 0.68136 0.56864 -0.21700
C 	C 	0.33510 0.17879 0.07121 0.14300
C 	C 	0.28050 0.17450 0.07550 -0.20800
C 	C 	0.24950 0.17240 0.07760 0.49600
C 	C 	0.62201 0.19115 0.05885 0.43200
C 	C 	0.64690 0.18136 0.06864 -0.21700
C 	C 	0.41490 0.17879 0.67879 0.14300
C 	C 	0.46950 0.17450 0.67450 -0.20800
C 	C 	0.50050 0.17240 0.67240 0.49600
C 	C 	0.12799 0.19115 0.69115 0.43200
C 	C 	0.10310 0.18136 0.68136 -0.21700
C 	C 	0.83510 0.57121 0.17879 0.14300
C 	C 	0.78050 0.57550 0.17450 -0.20800
C 	C 	0.74950 0.57760 0.17240 0.49600
C 	C 	0.12201 0.55885 0.19115 0.43200
C 	C 	0.14690 0.56864 0.18136 -0.21700
C 	C 	0.83510 0.07121 0.67879 0.14300
C 	C 	0.78050 0.07550 0.67450 -0.20800
C 	C 	0.74950 0.07760 0.67240 0.49600
C 	C 	0.12201 0.05885 0.69115 0.43200
C 	C 	0.14690 0.06864 0.68136 -0.21700
C 	C 	0.17879 0.67879 0.41490 0.14300
C 	C 	0.17450 0.67450 0.46950 -0.20800
C 	C 	0.17240 0.67240 0.50050 0.49600
C 	C 	0.19115 0.69115 0.12799 0.43200
C 	C 	0.18136 0.68136 0.10310 -0.21700
C 	C 	0.67879 0.57121 0.33510 0.14300
C 	C 	0.67450 0.57550 0.28050 -0.20800
C 	C 	0.67240 0.57760 0.24950 0.49600
C 	C 	0.69115 0.55885 0.62201 0.43200
C 	C 	0.68136 0.56864 0.64690 -0.21700
C 	C 	0.67879 0.07121 0.83510 0.14300
C 	C 	0.67450 0.07550 0.78050 -0.20800
C 	C 	0.67240 0.07760 0.74950 0.49600
C 	C 	0.69115 0.05885 0.12201 0.43200
C 	C 	0.68136 0.06864 0.14690 -0.21700
C 	C 	0.57121 0.17879 0.83510 0.14300
C 	C 	0.57550 0.17450 0.78050 -0.20800
C 	C 	0.57760 0.17240 0.74950 0.49600
C 	C 	0.55885 0.19115 0.12201 0.43200
C 	C 	0.56864 0.18136 0.14690 -0.21700
C 	C 	0.07121 0.17879 0.33510 0.14300
C 	C 	0.07550 0.17450 0.28050 -0.20800
C 	C 	0.07760 0.17240 0.24950 0.49600
C 	C 	0.05885 0.19115 0.62201 0.43200
C 	C 	0.06864 0.18136 0.64690 -0.21700
C 	C 	0.79200 0.11670 0.95800 0.13400
C 	C 	0.75615 0.09400 0.99385 -0.17400
C 	C 	0.73686 0.08210 0.01314 0.43800
C 	C 	0.29200 0.11670 0.45800 0.13400
C 	C 	0.25615 0.09400 0.49385 -0.17700
C 	C 	0.23686 0.08210 0.51314 0.44000
C 	C 	0.95800 0.13330 0.45800 0.13400
C 	C 	0.99385 0.15600 0.49385 -0.17400
C 	C 	0.01314 0.16790 0.51314 0.43800
C 	C 	0.95800 0.63330 0.95800 0.13300
C 	C 	0.99385 0.65600 0.99385 -0.17000
C 	C 	0.01314 0.66790 0.01314 0.43600
C 	C 	0.45800 0.61670 0.79200 0.13400
C 	C 	0.49385 0.59400 0.75615 -0.17700
C 	C 	0.51314 0.58210 0.73686 0.44000
C 	C 	0.45800 0.11670 0.29200 0.13400
C 	C 	0.49385 0.09400 0.25615 -0.17700
C 	C 	0.51314 0.08210 0.23686 0.44000
C 	C 	0.29200 0.63330 0.29200 0.13400
C 	C 	0.25615 0.65600 0.25615 -0.17700
C 	C 	0.23686 0.66790 0.23686 0.44000
C 	C 	0.29200 0.13330 0.79200 0.13400
C 	C 	0.25615 0.15600 0.75615 -0.17700
C 	C 	0.23686 0.16790 0.73686 0.44000
C 	C 	0.79200 0.63330 0.79200 0.13400
C 	C 	0.75615 0.65600 0.75615 -0.17700
C 	C 	0.73686 0.66790 0.73686 0.44000
C 	C 	0.79200 0.13330 0.29200 0.13400
C 	C 	0.75615 0.15600 0.25615 -0.17700
C 	C 	0.73686 0.16790 0.23686 0.44000
C 	C 	0.95800 0.79200 0.11670 0.13400
C 	C 	0.99385 0.75615 0.09400 -0.17400
C 	C 	0.01314 0.73686 0.08210 0.43800
C 	C 	0.95800 0.29200 0.61670 0.13400
C 	C 	0.99385 0.25615 0.59400 -0.17400
C 	C 	0.01314 0.23686 0.58210 0.43800
C 	C 	0.45800 0.95800 0.13330 0.13400
C 	C 	0.49385 0.99385 0.15600 -0.17400
C 	C 	0.51314 0.01314 0.16790 0.43800
C 	C 	0.45800 0.45800 0.63330 0.13400
C 	C 	0.49385 0.49385 0.65600 -0.17700
C 	C 	0.51314 0.51314 0.66790 0.44000
C 	C 	0.95800 0.95800 0.63330 0.13300
C 	C 	0.99385 0.99385 0.65600 -0.17000
C 	C 	0.01314 0.01314 0.66790 0.43600
C 	C 	0.79200 0.45800 0.61670 0.13400
C 	C 	0.75615 0.49385 0.59400 -0.17700
C 	C 	0.73686 0.51314 0.58210 0.44000
C 	C 	0.29200 0.45800 0.11670 0.13400
C 	C 	0.25615 0.49385 0.09400 -0.17700
C 	C 	0.23686 0.51314 0.08210 0.44000
C 	C 	0.29200 0.29200 0.63330 0.13400
C 	C 	0.25615 0.25615 0.65600 -0.17700
C 	C 	0.23686 0.23686 0.66790 0.44000
C 	C 	0.29200 0.79200 0.13330 0.13400
C 	C 	0.25615 0.75615 0.15600 -0.17700
C 	C 	0.23686 0.73686 0.16790 0.44000
C 	C 	0.79200 0.29200 0.13330 0.13400
C 	C 	0.75615 0.25615 0.15600 -0.17700
C 	C 	0.73686 0.23686 0.16790 0.44000
C 	C 	0.79200 0.79200 0.63330 0.13400
C 	C 	0.75615 0.75615 0.65600 -0.17700
C 	C 	0.73686 0.73686 0.66790 0.44000
C 	C 	0.11670 0.95800 0.79200 0.13400
C 	C 	0.09400 0.99385 0.75615 -0.17400
C 	C 	0.08210 0.01314 0.73686 0.43800
C 	C 	0.11670 0.45800 0.29200 0.13400
C 	C 	0.09400 0.49385 0.25615 -0.17700
C 	C 	0.08210 0.51314 0.23686 0.44000
C 	C 	0.13330 0.45800 0.95800 0.13400
C 	C 	0.15600 0.49385 0.99385 -0.17400
C 	C 	0.16790 0.51314 0.01314 0.43800
C 	C 	0.63330 0.45800 0.45800 0.13400
C 	C 	0.65600 0.49385 0.49385 -0.17700
C 	C 	0.66790 0.51314 0.51314 0.44000
C 	C 	0.63330 0.95800 0.95800 0.13300
C 	C 	0.65600 0.99385 0.99385 -0.17000
C 	C 	0.66790 0.01314 0.01314 0.43600
C 	C 	0.61670 0.79200 0.45800 0.13400
C 	C 	0.59400 0.75615 0.49385 -0.17700
C 	C 	0.58210 0.73686 0.51314 0.44000
C 	C 	0.61670 0.29200 0.95800 0.13400
C 	C 	0.59400 0.25615 0.99385 -0.17400
C 	C 	0.58210 0.23686 0.01314 0.43800
C 	C 	0.63330 0.29200 0.29200 0.13400
C 	C 	0.65600 0.25615 0.25615 -0.17700
C 	C 	0.66790 0.23686 0.23686 0.44000
C 	C 	0.63330 0.79200 0.79200 0.13400
C 	C 	0.65600 0.75615 0.75615 -0.17700
C 	C 	0.66790 0.73686 0.73686 0.44000
C 	C 	0.13330 0.29200 0.79200 0.13400
C 	C 	0.15600 0.25615 0.75615 -0.17700
C 	C 	0.16790 0.23686 0.73686 0.44000
C 	C 	0.13330 0.79200 0.29200 0.13400
C 	C 	0.15600 0.75615 0.25615 -0.17700
C 	C 	0.16790 0.73686 0.23686 0.44000
C 	C 	0.86670 0.04200 0.54200 0.13500
C 	C 	0.84400 0.00615 0.50615 -0.18000
C 	C 	0.83210 0.98686 0.48686 0.44100
C 	C 	0.36670 0.04200 0.04200 0.13500
C 	C 	0.34400 0.00615 0.00615 -0.18400
C 	C 	0.33210 0.98686 0.98686 0.44300
C 	C 	0.36670 0.54200 0.54200 0.13400
C 	C 	0.34400 0.50615 0.50615 -0.17700
C 	C 	0.33210 0.48686 0.48686 0.44000
C 	C 	0.88330 0.20800 0.04200 0.13500
C 	C 	0.90600 0.24385 0.00615 -0.18000
C 	C 	0.91790 0.26314 0.98686 0.44200
C 	C 	0.88330 0.70800 0.54200 0.13400
C 	C 	0.90600 0.74385 0.50615 -0.17700
C 	C 	0.91790 0.76314 0.48686 0.44000
C 	C 	0.38330 0.20800 0.54200 0.13400
C 	C 	0.40600 0.24385 0.50615 -0.17700
C 	C 	0.41790 0.26314 0.48686 0.44000
C 	C 	0.36670 0.70800 0.70800 0.13400
C 	C 	0.34400 0.74385 0.74385 -0.17700
C 	C 	0.33210 0.76314 0.76314 0.44000
C 	C 	0.36670 0.20800 0.20800 0.13400
C 	C 	0.34400 0.24385 0.24385 -0.17700
C 	C 	0.33210 0.26314 0.26314 0.44000
C 	C 	0.86670 0.70800 0.20800 0.13400
C 	C 	0.84400 0.74385 0.24385 -0.17700
C 	C 	0.83210 0.76314 0.26314 0.44000
C 	C 	0.86670 0.20800 0.70800 0.13400
C 	C 	0.84400 0.24385 0.74385 -0.17700
C 	C 	0.83210 0.26314 0.76314 0.44000
C 	C 	0.38330 0.54200 0.20800 0.13400
C 	C 	0.40600 0.50615 0.24385 -0.17700
C 	C 	0.41790 0.48686 0.26314 0.44000
C 	C 	0.38330 0.04200 0.70800 0.13500
C 	C 	0.40600 0.00615 0.74385 -0.18000
C 	C 	0.41790 0.98686 0.76314 0.44100
C 	C 	0.54200 0.20800 0.38330 0.13400
C 	C 	0.50615 0.24385 0.40600 -0.17700
C 	C 	0.48686 0.26314 0.41790 0.44000
C 	C 	0.54200 0.70800 0.88330 0.13400
C 	C 	0.50615 0.74385 0.90600 -0.17700
C 	C 	0.48686 0.76314 0.91790 0.44000
C 	C 	0.70800 0.70800 0.36670 0.13400
C 	C 	0.74385 0.74385 0.34400 -0.17700
C 	C 	0.76314 0.76314 0.33210 0.44000
C 	C 	0.70800 0.20800 0.86670 0.13400
C 	C 	0.74385 0.24385 0.84400 -0.17700
C 	C 	0.76314 0.26314 0.83210 0.44000
C 	C 	0.20800 0.70800 0.86670 0.13400
C 	C 	0.24385 0.74385 0.84400 -0.17700
C 	C 	0.26314 0.76314 0.83210 0.44000
C 	C 	0.20800 0.20800 0.36670 0.13400
C 	C 	0.24385 0.24385 0.34400 -0.17700
C 	C 	0.26314 0.26314 0.33210 0.44000
C 	C 	0.20800 0.04200 0.88330 0.13500
C 	C 	0.24385 0.00615 0.90600 -0.18000
C 	C 	0.26314 0.98686 0.91790 0.44200
C 	C 	0.20800 0.54200 0.38330 0.13400
C 	C 	0.24385 0.50615 0.40600 -0.17700
C 	C 	0.26314 0.48686 0.41790 0.44000
C 	C 	0.70800 0.04200 0.38330 0.13500
C 	C 	0.74385 0.00615 0.40600 -0.18000
C 	C 	0.76314 0.98686 0.41790 0.44100
C 	C 	0.04200 0.54200 0.86670 0.13500
C 	C 	0.00615 0.50615 0.84400 -0.18000
C 	C 	0.98686 0.48686 0.83210 0.44100
C 	C 	0.04200 0.04200 0.36670 0.13500
C 	C 	0.00615 0.00615 0.34400 -0.18400
C 	C 	0.98686 0.98686 0.33210 0.44300
C 	C 	0.54200 0.54200 0.36670 0.13400
C 	C 	0.50615 0.50615 0.34400 -0.17700
C 	C 	0.48686 0.48686 0.33210 0.44000
C 	C 	0.70800 0.36670 0.70800 0.13400
C 	C 	0.74385 0.34400 0.74385 -0.17700
C 	C 	0.76314 0.33210 0.76314 0.44000
C 	C 	0.70800 0.86670 0.20800 0.13400
C 	C 	0.74385 0.84400 0.24385 -0.17700
C 	C 	0.76314 0.83210 0.26314 0.44000
C 	C 	0.20800 0.36670 0.20800 0.13400
C 	C 	0.24385 0.34400 0.24385 -0.17700
C 	C 	0.26314 0.33210 0.26314 0.44000
C 	C 	0.20800 0.86670 0.70800 0.13400
C 	C 	0.24385 0.84400 0.74385 -0.17700
C 	C 	0.26314 0.83210 0.76314 0.44000
C 	C 	0.20800 0.38330 0.54200 0.13400
C 	C 	0.24385 0.40600 0.50615 -0.17700
C 	C 	0.26314 0.41790 0.48686 0.44000
C 	C 	0.70800 0.38330 0.04200 0.13500
C 	C 	0.74385 0.40600 0.00615 -0.18000
C 	C 	0.76314 0.41790 0.98686 0.44100
C 	C 	0.54200 0.86670 0.04200 0.13500
C 	C 	0.50615 0.84400 0.00615 -0.18000
C 	C 	0.48686 0.83210 0.98686 0.44100
C 	C 	0.54200 0.36670 0.54200 0.13400
C 	C 	0.50615 0.34400 0.50615 -0.17700
C 	C 	0.48686 0.33210 0.48686 0.44000
C 	C 	0.04200 0.88330 0.20800 0.13500
C 	C 	0.00615 0.90600 0.24385 -0.18000
C 	C 	0.98686 0.91790 0.26314 0.44200
C 	C 	0.04200 0.38330 0.70800 0.13500
C 	C 	0.00615 0.40600 0.74385 -0.18000
C 	C 	0.98686 0.41790 0.76314 0.44100
C 	C 	0.54200 0.38330 0.20800 0.13400
C 	C 	0.50615 0.40600 0.24385 -0.17700
C 	C 	0.48686 0.41790 0.26314 0.44000
C 	C 	0.20800 0.88330 0.04200 0.13500
C 	C 	0.24385 0.90600 0.00615 -0.18000
C 	C 	0.26314 0.91790 0.98686 0.44200
C 	C 	0.70800 0.88330 0.54200 0.13400
C 	C 	0.74385 0.90600 0.50615 -0.17700
C 	C 	0.76314 0.91790 0.48686 0.44000
C 	C 	0.04200 0.86670 0.54200 0.13500
C 	C 	0.00615 0.84400 0.50615 -0.18000
C 	C 	0.98686 0.83210 0.48686 0.44100
C 	C 	0.04200 0.36670 0.04200 0.13500
C 	C 	0.00615 0.34400 0.00615 -0.18400
C 	C 	0.98686 0.33210 0.98686 0.44300
C 	C 	0.54200 0.88330 0.70800 0.13400
C 	C 	0.50615 0.90600 0.74385 -0.17700
C 	C 	0.48686 0.91790 0.76314 0.44000
C 	C 	0.04200 0.20800 0.88330 0.13500
C 	C 	0.00615 0.24385 0.90600 -0.18000
C 	C 	0.98686 0.26314 0.91790 0.44200
C 	C 	0.04200 0.70800 0.38330 0.13500
C 	C 	0.00615 0.74385 0.40600 -0.18000
C 	C 	0.98686 0.76314 0.41790 0.44100
C 	C 	0.54200 0.04200 0.86670 0.13500
C 	C 	0.50615 0.00615 0.84400 -0.18000
C 	C 	0.48686 0.98686 0.83210 0.44100
C 	C 	0.70800 0.54200 0.88330 0.13400
C 	C 	0.74385 0.50615 0.90600 -0.17700
C 	C 	0.76314 0.48686 0.91790 0.44000
C 	C 	0.88330 0.04200 0.20800 0.13500
C 	C 	0.90600 0.00615 0.24385 -0.18000
C 	C 	0.91790 0.98686 0.26314 0.44200
C 	C 	0.88330 0.54200 0.70800 0.13400
C 	C 	0.90600 0.50615 0.74385 -0.17700
C 	C 	0.91790 0.48686 0.76314 0.44000
C 	C 	0.86670 0.54200 0.04200 0.13500
C 	C 	0.84400 0.50615 0.00615 -0.18000
C 	C 	0.83210 0.48686 0.98686 0.44100
C 	C 	0.38330 0.70800 0.04200 0.13500
C 	C 	0.40600 0.74385 0.00615 -0.18000
C 	C 	0.41790 0.76314 0.98686 0.44100
C 	C 	0.13330 0.95800 0.45800 0.13400
C 	C 	0.15600 0.99385 0.49385 -0.17400
C 	C 	0.16790 0.01314 0.51314 0.43800
C 	C 	0.11670 0.79200 0.95800 0.13400
C 	C 	0.09400 0.75615 0.99385 -0.17400
C 	C 	0.08210 0.73686 0.01314 0.43800
C 	C 	0.11670 0.29200 0.45800 0.13400
C 	C 	0.09400 0.25615 0.49385 -0.17700
C 	C 	0.08210 0.23686 0.51314 0.44000
C 	C 	0.61670 0.45800 0.79200 0.13400
C 	C 	0.59400 0.49385 0.75615 -0.17700
C 	C 	0.58210 0.51314 0.73686 0.44000
C 	C 	0.61670 0.95800 0.29200 0.13400
C 	C 	0.59400 0.99385 0.25615 -0.17400
C 	C 	0.58210 0.01314 0.23686 0.43800
C 	C 	0.45800 0.79200 0.61670 0.13400
C 	C 	0.49385 0.75615 0.59400 -0.17700
C 	C 	0.51314 0.73686 0.58210 0.44000
C 	C 	0.45800 0.29200 0.11670 0.13400
C 	C 	0.49385 0.25615 0.09400 -0.17700
C 	C 	0.51314 0.23686 0.08210 0.44000
C 	C 	0.79200 0.95800 0.11670 0.13400
C 	C 	0.75615 0.99385 0.09400 -0.17400
C 	C 	0.73686 0.01314 0.08210 0.43800
C 	C 	0.29200 0.95800 0.61670 0.13400
C 	C 	0.25615 0.99385 0.59400 -0.17400
C 	C 	0.23686 0.01314 0.58210 0.43800
C 	C 	0.95800 0.45800 0.13330 0.13400
C 	C 	0.99385 0.49385 0.15600 -0.17400
C 	C 	0.01314 0.51314 0.16790 0.43800
C 	C 	0.79200 0.61670 0.45800 0.13400
C 	C 	0.75615 0.59400 0.49385 -0.17700
C 	C 	0.73686 0.58210 0.51314 0.44000
C 	C 	0.29200 0.61670 0.95800 0.13400
C 	C 	0.25615 0.59400 0.99385 -0.17400
C 	C 	0.23686 0.58210 0.01314 0.43800
C 	C 	0.45800 0.13330 0.95800 0.13400
C 	C 	0.49385 0.15600 0.99385 -0.17400
C 	C 	0.51314 0.16790 0.01314 0.43800
C 	C 	0.45800 0.63330 0.45800 0.13400
C 	C 	0.49385 0.65600 0.49385 -0.17700
C 	C 	0.51314 0.66790 0.51314 0.44000
C 	C 	0.95800 0.11670 0.79200 0.13400
C 	C 	0.99385 0.09400 0.75615 -0.17400
C 	C 	0.01314 0.08210 0.73686 0.43800
C 	C 	0.95800 0.61670 0.29200 0.13400
C 	C 	0.99385 0.59400 0.25615 -0.17400
C 	C 	0.01314 0.58210 0.23686 0.43800
C 	C 	0.59078 0.09078 0.05785 0.15900
C 	C 	0.59078 0.59078 0.55785 0.15900
C 	C 	0.15922 0.15922 0.55785 0.15900
C 	C 	0.15922 0.65922 0.05785 0.15900
C 	C 	0.65922 0.15922 0.05785 0.15900
C 	C 	0.65922 0.65922 0.55785 0.15900
C 	C 	0.65922 0.59078 0.69215 0.15900
C 	C 	0.15922 0.59078 0.19215 0.15900
C 	C 	0.09078 0.65922 0.19215 0.15900
C 	C 	0.09078 0.15922 0.69215 0.15900
C 	C 	0.05785 0.59078 0.09078 0.15900
C 	C 	0.55785 0.59078 0.59078 0.15900
C 	C 	0.55785 0.15922 0.15922 0.15900
C 	C 	0.55785 0.65922 0.65922 0.15900
C 	C 	0.05785 0.15922 0.65922 0.15900
C 	C 	0.05785 0.65922 0.15922 0.15900
C 	C 	0.69215 0.65922 0.59078 0.15900
C 	C 	0.69215 0.15922 0.09078 0.15900
C 	C 	0.19215 0.09078 0.65922 0.15900
C 	C 	0.19215 0.59078 0.15922 0.15900
C 	C 	0.09078 0.05785 0.59078 0.15900
C 	C 	0.09078 0.55785 0.09078 0.15900
C 	C 	0.15922 0.55785 0.15922 0.15900
C 	C 	0.15922 0.05785 0.65922 0.15900
C 	C 	0.65922 0.55785 0.65922 0.15900
C 	C 	0.65922 0.05785 0.15922 0.15900
C 	C 	0.59078 0.69215 0.65922 0.15900
C 	C 	0.59078 0.19215 0.15922 0.15900
C 	C 	0.65922 0.19215 0.09078 0.15900
C 	C 	0.15922 0.19215 0.59078 0.15900
C 	C 	0.84078 0.84078 0.44215 0.15900
C 	C 	0.84078 0.34078 0.94215 0.15900
C 	C 	0.34078 0.84078 0.94215 0.15900
C 	C 	0.34078 0.34078 0.44215 0.15900
C 	C 	0.90922 0.40922 0.94215 0.15900
C 	C 	0.90922 0.90922 0.44215 0.15900
C 	C 	0.34078 0.90922 0.80785 0.15900
C 	C 	0.84078 0.90922 0.30785 0.15900
C 	C 	0.40922 0.34078 0.30785 0.15900
C 	C 	0.40922 0.84078 0.80785 0.15900
C 	C 	0.34078 0.30785 0.40922 0.15900
C 	C 	0.84078 0.30785 0.90922 0.15900
C 	C 	0.90922 0.80785 0.34078 0.15900
C 	C 	0.90922 0.30785 0.84078 0.15900
C 	C 	0.40922 0.94215 0.90922 0.15900
C 	C 	0.40922 0.44215 0.40922 0.15900
C 	C 	0.84078 0.44215 0.84078 0.15900
C 	C 	0.84078 0.94215 0.34078 0.15900
C 	C 	0.34078 0.44215 0.34078 0.15900
C 	C 	0.34078 0.94215 0.84078 0.15900
C 	C 	0.80785 0.34078 0.90922 0.15900
C 	C 	0.80785 0.84078 0.40922 0.15900
C 	C 	0.30785 0.40922 0.34078 0.15900
C 	C 	0.30785 0.90922 0.84078 0.15900
C 	C 	0.44215 0.84078 0.84078 0.15900
C 	C 	0.44215 0.34078 0.34078 0.15900
C 	C 	0.94215 0.84078 0.34078 0.15900
C 	C 	0.94215 0.34078 0.84078 0.15900
C 	C 	0.94215 0.90922 0.40922 0.15900
C 	C 	0.44215 0.90922 0.90922 0.15900
C 	C 	0.40922 0.90922 0.94215 0.15900
C 	C 	0.40922 0.40922 0.44215 0.15900
C 	C 	0.34078 0.40922 0.30785 0.15900
C 	C 	0.84078 0.40922 0.80785 0.15900
C 	C 	0.90922 0.34078 0.80785 0.15900
C 	C 	0.90922 0.84078 0.30785 0.15900
C 	C 	0.94215 0.40922 0.90922 0.15900
C 	C 	0.44215 0.40922 0.40922 0.15900
C 	C 	0.30785 0.34078 0.40922 0.15900
C 	C 	0.30785 0.84078 0.90922 0.15900
C 	C 	0.80785 0.90922 0.34078 0.15900
C 	C 	0.80785 0.40922 0.84078 0.15900
C 	C 	0.90922 0.94215 0.40922 0.15900
C 	C 	0.90922 0.44215 0.90922 0.15900
C 	C 	0.40922 0.30785 0.34078 0.15900
C 	C 	0.40922 0.80785 0.84078 0.15900
C 	C 	0.34078 0.80785 0.90922 0.15900
C 	C 	0.84078 0.80785 0.40922 0.15900
C 	C 	0.09078 0.59078 0.05785 0.15900
C 	C 	0.09078 0.09078 0.55785 0.15900
C 	C 	0.65922 0.09078 0.19215 0.15900
C 	C 	0.15922 0.09078 0.69215 0.15900
C 	C 	0.59078 0.65922 0.69215 0.15900
C 	C 	0.59078 0.15922 0.19215 0.15900
C 	C 	0.65922 0.69215 0.59078 0.15900
C 	C 	0.15922 0.69215 0.09078 0.15900
C 	C 	0.09078 0.19215 0.65922 0.15900
C 	C 	0.09078 0.69215 0.15922 0.15900
C 	C 	0.59078 0.05785 0.09078 0.15900
C 	C 	0.59078 0.55785 0.59078 0.15900
C 	C 	0.19215 0.65922 0.09078 0.15900
C 	C 	0.19215 0.15922 0.59078 0.15900
C 	C 	0.69215 0.59078 0.65922 0.15900
C 	C 	0.69215 0.09078 0.15922 0.15900
C 	C 	0.05785 0.09078 0.59078 0.15900
C 	C 	0.55785 0.09078 0.09078 0.15900
