data_crystal

_cell_length_a 20.01570
_cell_length_b 26.89320
_cell_length_c 26.98900
_cell_angle_alpha 90.00000
_cell_angle_beta  90.00000
_cell_angle_gamma 90.00000

_symmetry_space_group_name_	'P 1'
_symmetry_space_group_name_H-M	'P 1'

loop_
_symmetry_equiv_pos_as_xyz
  x,y,z

loop_
_atom_site_label
_atom_site_type_symbol
_atom_site_fract_x
_atom_site_fract_y
_atom_site_fract_z
_atom_site_charge
Cu	Cu	0.95601 0.46324 0.49986 0.91000
Cu	Cu	0.54399 0.53676 0.99986 0.91000
Cu	Cu	0.04399 0.96324 0.50014 0.90800
Cu	Cu	0.45601 0.03676 0.00014 0.90900
Cu	Cu	0.04399 0.53676 0.50014 0.90900
Cu	Cu	0.45601 0.46324 0.00014 0.90900
Cu	Cu	0.95601 0.03676 0.49986 0.90800
Cu	Cu	0.54399 0.96324 0.99986 0.90900
Cu	Cu	0.05379 0.25000 0.23276 0.91200
Cu	Cu	0.96872 0.25000 0.30865 0.91600
Cu	Cu	0.44621 0.75000 0.73276 0.91200
Cu	Cu	0.53128 0.75000 0.80865 0.91700
Cu	Cu	0.94621 0.75000 0.76724 0.91200
Cu	Cu	0.03128 0.75000 0.69135 0.91600
Cu	Cu	0.55379 0.25000 0.26724 0.91200
Cu	Cu	0.46872 0.25000 0.19135 0.91700
Cu	Cu	0.44676 0.75000 0.26736 0.90000
Cu	Cu	0.53301 0.75000 0.19366 0.89800
Cu	Cu	0.05324 0.25000 0.76736 0.90000
Cu	Cu	0.96699 0.25000 0.69366 0.89800
Cu	Cu	0.55324 0.25000 0.73264 0.90000
Cu	Cu	0.46699 0.25000 0.80634 0.89800
Cu	Cu	0.94676 0.75000 0.23264 0.90000
Cu	Cu	0.03301 0.75000 0.30634 0.89800
H 	H 	0.32820 0.42270 0.48420 0.30100
H 	H 	0.08710 0.62880 0.01870 0.28700
H 	H 	0.07810 0.67450 0.13130 0.05600
H 	H 	0.21420 0.56130 0.13100 0.05800
H 	H 	0.14540 0.61610 0.26040 0.05500
H 	H 	0.35450 0.47770 0.22450 0.06100
H 	H 	0.13770 0.52010 0.26600 0.06800
H 	H 	0.16530 0.37860 0.27360 0.05800
H 	H 	0.04830 0.37500 0.39350 0.05600
H 	H 	0.15950 0.49800 0.37530 0.05900
H 	H 	0.35530 0.38300 0.24020 0.05400
H 	H 	0.29650 0.44490 0.37020 0.07800
H 	H 	0.43840 0.33730 0.37050 0.06400
H 	H 	0.45740 0.63480 0.11070 0.06500
H 	H 	0.34430 0.50600 0.13260 0.06200
H 	H 	0.31920 0.62010 0.22280 0.06600
H 	H 	0.17180 0.57730 0.98420 0.30100
H 	H 	0.41290 0.37120 0.51870 0.28700
H 	H 	0.42190 0.32550 0.63130 0.05600
H 	H 	0.28580 0.43870 0.63100 0.05800
H 	H 	0.35460 0.38390 0.76040 0.05500
H 	H 	0.14550 0.52230 0.72450 0.06100
H 	H 	0.36230 0.47990 0.76600 0.06800
H 	H 	0.33470 0.62140 0.77360 0.05700
H 	H 	0.45170 0.62500 0.89350 0.05600
H 	H 	0.34050 0.50200 0.87530 0.05900
H 	H 	0.14470 0.61700 0.74020 0.05400
H 	H 	0.20350 0.55510 0.87020 0.07800
H 	H 	0.06160 0.66270 0.87050 0.06400
H 	H 	0.04260 0.36520 0.61070 0.06500
H 	H 	0.15570 0.49400 0.63260 0.06200
H 	H 	0.18080 0.37990 0.72280 0.06600
H 	H 	0.67180 0.92270 0.51580 0.30100
H 	H 	0.91290 0.12880 0.98130 0.28700
H 	H 	0.92190 0.17450 0.86870 0.05500
H 	H 	0.78580 0.06130 0.86900 0.05800
H 	H 	0.85460 0.11610 0.73960 0.05500
H 	H 	0.64550 0.97770 0.77550 0.06000
H 	H 	0.86230 0.02010 0.73400 0.06800
H 	H 	0.83470 0.87860 0.72640 0.05800
H 	H 	0.95170 0.87500 0.60650 0.05600
H 	H 	0.84050 0.99800 0.62470 0.05900
H 	H 	0.64470 0.88300 0.75980 0.05400
H 	H 	0.70350 0.94490 0.62980 0.07800
H 	H 	0.56160 0.83730 0.62950 0.06400
H 	H 	0.54260 0.13480 0.88930 0.06500
H 	H 	0.65570 0.00600 0.86740 0.06200
H 	H 	0.68080 0.12010 0.77720 0.06600
H 	H 	0.82820 0.07730 0.01580 0.30000
H 	H 	0.58710 0.87120 0.48130 0.28700
H 	H 	0.57810 0.82550 0.36870 0.05600
H 	H 	0.71420 0.93870 0.36900 0.05800
H 	H 	0.64540 0.88390 0.23960 0.05600
H 	H 	0.85450 0.02230 0.27550 0.06100
H 	H 	0.63770 0.97990 0.23400 0.06800
H 	H 	0.66530 0.12140 0.22640 0.05800
H 	H 	0.54830 0.12500 0.10650 0.05600
H 	H 	0.65950 0.00200 0.12470 0.05900
H 	H 	0.85530 0.11700 0.25980 0.05300
H 	H 	0.79650 0.05510 0.12980 0.07800
H 	H 	0.93840 0.16270 0.12950 0.06300
H 	H 	0.95740 0.86520 0.38930 0.06500
H 	H 	0.84430 0.99400 0.36740 0.06200
H 	H 	0.81920 0.87990 0.27720 0.06600
H 	H 	0.67180 0.57730 0.51580 0.30100
H 	H 	0.91290 0.37120 0.98130 0.28700
H 	H 	0.92190 0.32550 0.86870 0.05600
H 	H 	0.78580 0.43870 0.86900 0.05800
H 	H 	0.85460 0.38390 0.73960 0.05500
H 	H 	0.64550 0.52230 0.77550 0.06100
H 	H 	0.86230 0.47990 0.73400 0.06800
H 	H 	0.83470 0.62140 0.72640 0.05800
H 	H 	0.95170 0.62500 0.60650 0.05600
H 	H 	0.84050 0.50200 0.62470 0.05900
H 	H 	0.64470 0.61700 0.75980 0.05400
H 	H 	0.70350 0.55510 0.62980 0.07800
H 	H 	0.56160 0.66270 0.62950 0.06400
H 	H 	0.54260 0.36520 0.88930 0.06500
H 	H 	0.65570 0.49400 0.86740 0.06200
H 	H 	0.68080 0.37990 0.77720 0.06600
H 	H 	0.82820 0.42270 0.01580 0.30100
H 	H 	0.58710 0.62880 0.48130 0.28700
H 	H 	0.57810 0.67450 0.36870 0.05600
H 	H 	0.71420 0.56130 0.36900 0.05800
H 	H 	0.64540 0.61610 0.23960 0.05500
H 	H 	0.85450 0.47770 0.27550 0.06100
H 	H 	0.63770 0.52010 0.23400 0.06800
H 	H 	0.66530 0.37860 0.22640 0.05700
H 	H 	0.54830 0.37500 0.10650 0.05600
H 	H 	0.65950 0.49800 0.12470 0.05900
H 	H 	0.85530 0.38300 0.25980 0.05400
H 	H 	0.79650 0.44490 0.12980 0.07800
H 	H 	0.93840 0.33730 0.12950 0.06400
H 	H 	0.95740 0.63480 0.38930 0.06500
H 	H 	0.84430 0.50600 0.36740 0.06200
H 	H 	0.81920 0.62010 0.27720 0.06600
H 	H 	0.32820 0.07730 0.48420 0.30100
H 	H 	0.08710 0.87120 0.01870 0.28700
H 	H 	0.07810 0.82550 0.13130 0.05500
H 	H 	0.21420 0.93870 0.13100 0.05800
H 	H 	0.14540 0.88390 0.26040 0.05500
H 	H 	0.35450 0.02230 0.22450 0.06000
H 	H 	0.13770 0.97990 0.26600 0.06800
H 	H 	0.16530 0.12140 0.27360 0.05800
H 	H 	0.04830 0.12500 0.39350 0.05600
H 	H 	0.15950 0.00200 0.37530 0.05900
H 	H 	0.35530 0.11700 0.24020 0.05400
H 	H 	0.29650 0.05510 0.37020 0.07800
H 	H 	0.43840 0.16270 0.37050 0.06400
H 	H 	0.45740 0.86520 0.11070 0.06500
H 	H 	0.34430 0.99400 0.13260 0.06200
H 	H 	0.31920 0.87990 0.22280 0.06600
H 	H 	0.17180 0.92270 0.98420 0.30000
H 	H 	0.41290 0.12880 0.51870 0.28700
H 	H 	0.42190 0.17450 0.63130 0.05600
H 	H 	0.28580 0.06130 0.63100 0.05800
H 	H 	0.35460 0.11610 0.76040 0.05600
H 	H 	0.14550 0.97770 0.72450 0.06100
H 	H 	0.36230 0.02010 0.76600 0.06800
H 	H 	0.33470 0.87860 0.77360 0.05800
H 	H 	0.45170 0.87500 0.89350 0.05600
H 	H 	0.34050 0.99800 0.87530 0.05900
H 	H 	0.14470 0.88300 0.74020 0.05300
H 	H 	0.20350 0.94490 0.87020 0.07800
H 	H 	0.06160 0.83730 0.87050 0.06300
H 	H 	0.04260 0.13480 0.61070 0.06500
H 	H 	0.15570 0.00600 0.63260 0.06200
H 	H 	0.18080 0.12010 0.72280 0.06600
C 	C 	0.42970 0.67840 0.18760 0.30800
C 	C 	0.07740 0.31950 0.30700 0.35500
C 	C 	0.10420 0.36530 0.32830 -0.08600
C 	C 	0.05860 0.46280 0.43200 0.45100
C 	C 	0.43190 0.54510 0.06640 0.35300
C 	C 	0.05930 0.68480 0.22570 0.33600
C 	C 	0.10390 0.64510 0.20150 -0.06500
C 	C 	0.10130 0.64840 0.14760 0.03000
C 	C 	0.13430 0.61170 0.12140 -0.09900
C 	C 	0.18320 0.58140 0.14860 -0.01000
C 	C 	0.18390 0.58220 0.20030 0.00000
C 	C 	0.14390 0.61510 0.22530 -0.01800
C 	C 	0.21920 0.54010 0.22700 0.01900
C 	C 	0.28690 0.52930 0.21610 -0.00100
C 	C 	0.31230 0.48850 0.23660 -0.06200
C 	C 	0.28220 0.45850 0.27570 -0.00200
C 	C 	0.21670 0.47280 0.28570 0.01700
C 	C 	0.18350 0.51290 0.25990 -0.08100
C 	C 	0.16610 0.44420 0.31730 -0.00100
C 	C 	0.14640 0.39240 0.30280 -0.00900
C 	C 	0.08010 0.39220 0.37370 0.03400
C 	C 	0.14420 0.46660 0.36380 -0.01400
C 	C 	0.43960 0.31410 0.27130 0.38000
C 	C 	0.32010 0.42090 0.30060 0.01700
C 	C 	0.35860 0.38400 0.27530 -0.01700
C 	C 	0.40230 0.34780 0.29880 -0.09800
C 	C 	0.32150 0.42120 0.35180 -0.04300
C 	C 	0.40570 0.35440 0.35150 0.01600
C 	C 	0.35960 0.38650 0.37480 -0.03300
C 	C 	0.36370 0.39120 0.43440 0.33700
C 	C 	0.13090 0.60960 0.07290 0.32600
C 	C 	0.09770 0.43680 0.38960 -0.08700
C 	C 	0.39650 0.63140 0.17110 -0.04700
C 	C 	0.42600 0.61550 0.12860 -0.00200
C 	C 	0.40500 0.56620 0.11320 -0.06300
C 	C 	0.32510 0.56070 0.17990 0.02400
C 	C 	0.35530 0.53910 0.14150 -0.03900
C 	C 	0.34200 0.60530 0.19570 -0.04100
C 	C 	0.07030 0.32160 0.68760 0.30800
C 	C 	0.42260 0.68050 0.80700 0.35500
C 	C 	0.39580 0.63470 0.82830 -0.08600
C 	C 	0.44140 0.53720 0.93200 0.45100
C 	C 	0.06810 0.45490 0.56640 0.35300
C 	C 	0.44070 0.31520 0.72570 0.33600
C 	C 	0.39610 0.35490 0.70150 -0.06500
C 	C 	0.39870 0.35160 0.64760 0.03000
C 	C 	0.36570 0.38830 0.62140 -0.09900
C 	C 	0.31680 0.41860 0.64860 -0.01000
C 	C 	0.31610 0.41780 0.70030 0.00000
C 	C 	0.35610 0.38490 0.72530 -0.01800
C 	C 	0.28080 0.45990 0.72700 0.01900
C 	C 	0.21310 0.47070 0.71610 -0.00100
C 	C 	0.18770 0.51150 0.73660 -0.06200
C 	C 	0.21780 0.54150 0.77570 -0.00200
C 	C 	0.28330 0.52720 0.78570 0.01700
C 	C 	0.31650 0.48710 0.75990 -0.08100
C 	C 	0.33390 0.55580 0.81730 -0.00100
C 	C 	0.35360 0.60760 0.80280 -0.00800
C 	C 	0.41990 0.60780 0.87370 0.03400
C 	C 	0.35580 0.53340 0.86380 -0.01400
C 	C 	0.06040 0.68590 0.77130 0.38000
C 	C 	0.17990 0.57910 0.80060 0.01700
C 	C 	0.14140 0.61600 0.77530 -0.01700
C 	C 	0.09770 0.65220 0.79880 -0.09800
C 	C 	0.17850 0.57880 0.85180 -0.04300
C 	C 	0.09430 0.64560 0.85150 0.01600
C 	C 	0.14040 0.61350 0.87480 -0.03300
C 	C 	0.13630 0.60880 0.93440 0.33700
C 	C 	0.36910 0.39040 0.57290 0.32600
C 	C 	0.40230 0.56320 0.88960 -0.08700
C 	C 	0.10350 0.36860 0.67110 -0.04700
C 	C 	0.07400 0.38450 0.62860 -0.00200
C 	C 	0.09500 0.43380 0.61320 -0.06300
C 	C 	0.17490 0.43930 0.67990 0.02400
C 	C 	0.14470 0.46090 0.64150 -0.03900
C 	C 	0.15800 0.39470 0.69570 -0.04100
C 	C 	0.57030 0.17840 0.81240 0.30800
C 	C 	0.92260 0.81950 0.69300 0.35500
C 	C 	0.89580 0.86530 0.67170 -0.08600
C 	C 	0.94140 0.96280 0.56800 0.45100
C 	C 	0.56810 0.04510 0.93360 0.35300
C 	C 	0.94070 0.18480 0.77430 0.33600
C 	C 	0.89610 0.14510 0.79850 -0.06500
C 	C 	0.89870 0.14840 0.85240 0.03000
C 	C 	0.86570 0.11170 0.87860 -0.10000
C 	C 	0.81680 0.08140 0.85140 -0.01000
C 	C 	0.81610 0.08220 0.79970 -0.00000
C 	C 	0.85610 0.11510 0.77470 -0.01800
C 	C 	0.78080 0.04010 0.77300 0.01900
C 	C 	0.71310 0.02930 0.78390 -0.00200
C 	C 	0.68770 0.98850 0.76340 -0.06200
C 	C 	0.71780 0.95850 0.72430 -0.00200
C 	C 	0.78330 0.97280 0.71430 0.01700
C 	C 	0.81650 0.01290 0.74010 -0.08200
C 	C 	0.83390 0.94420 0.68270 -0.00200
C 	C 	0.85360 0.89240 0.69720 -0.00800
C 	C 	0.91990 0.89220 0.62630 0.03400
C 	C 	0.85580 0.96660 0.63620 -0.01300
C 	C 	0.56040 0.81410 0.72870 0.38000
C 	C 	0.67990 0.92090 0.69940 0.01800
C 	C 	0.64140 0.88400 0.72470 -0.01700
C 	C 	0.59770 0.84780 0.70120 -0.09800
C 	C 	0.67850 0.92120 0.64820 -0.04300
C 	C 	0.59430 0.85440 0.64850 0.01600
C 	C 	0.64040 0.88650 0.62520 -0.03300
C 	C 	0.63630 0.89120 0.56560 0.33700
C 	C 	0.86910 0.10960 0.92710 0.32600
C 	C 	0.90230 0.93680 0.61040 -0.08700
C 	C 	0.60350 0.13140 0.82890 -0.04700
C 	C 	0.57400 0.11550 0.87140 -0.00200
C 	C 	0.59500 0.06620 0.88680 -0.06300
C 	C 	0.67490 0.06070 0.82010 0.02400
C 	C 	0.64470 0.03910 0.85850 -0.03900
C 	C 	0.65800 0.10530 0.80430 -0.04100
C 	C 	0.92970 0.82160 0.31240 0.30800
C 	C 	0.57740 0.18050 0.19300 0.35500
C 	C 	0.60420 0.13470 0.17170 -0.08600
C 	C 	0.55860 0.03720 0.06800 0.45100
C 	C 	0.93190 0.95490 0.43360 0.35300
C 	C 	0.55930 0.81520 0.27430 0.33600
C 	C 	0.60390 0.85490 0.29850 -0.06400
C 	C 	0.60130 0.85160 0.35240 0.03000
C 	C 	0.63430 0.88830 0.37860 -0.09900
C 	C 	0.68320 0.91860 0.35140 -0.01000
C 	C 	0.68390 0.91780 0.29970 0.00100
C 	C 	0.64390 0.88490 0.27470 -0.01800
C 	C 	0.71920 0.95990 0.27300 0.01700
C 	C 	0.78690 0.97070 0.28390 0.00200
C 	C 	0.81230 0.01150 0.26340 -0.06500
C 	C 	0.78220 0.04150 0.22430 -0.00000
C 	C 	0.71670 0.02720 0.21430 0.01500
C 	C 	0.68350 0.98710 0.24010 -0.07800
C 	C 	0.66610 0.05580 0.18270 -0.00100
C 	C 	0.64640 0.10760 0.19720 -0.00900
C 	C 	0.58010 0.10780 0.12630 0.03400
C 	C 	0.64420 0.03340 0.13620 -0.01400
C 	C 	0.93960 0.18590 0.22870 0.38000
C 	C 	0.82010 0.07910 0.19940 0.01700
C 	C 	0.85860 0.11600 0.22470 -0.01700
C 	C 	0.90230 0.15220 0.20120 -0.09800
C 	C 	0.82150 0.07880 0.14820 -0.04200
C 	C 	0.90570 0.14560 0.14850 0.01600
C 	C 	0.85960 0.11350 0.12520 -0.03400
C 	C 	0.86370 0.10880 0.06560 0.33700
C 	C 	0.63090 0.89040 0.42710 0.32600
C 	C 	0.59770 0.06320 0.11040 -0.08700
C 	C 	0.89650 0.86860 0.32890 -0.04800
C 	C 	0.92600 0.88450 0.37140 -0.00100
C 	C 	0.90500 0.93380 0.38680 -0.06300
C 	C 	0.82510 0.93930 0.32010 0.02300
C 	C 	0.85530 0.96090 0.35850 -0.03800
C 	C 	0.84200 0.89470 0.30430 -0.04000
C 	C 	0.57030 0.32160 0.81240 0.30800
C 	C 	0.92260 0.68050 0.69300 0.35500
C 	C 	0.89580 0.63470 0.67170 -0.08600
C 	C 	0.94140 0.53720 0.56800 0.45100
C 	C 	0.56810 0.45490 0.93360 0.35300
C 	C 	0.94070 0.31520 0.77430 0.33600
C 	C 	0.89610 0.35490 0.79850 -0.06500
C 	C 	0.89870 0.35160 0.85240 0.03000
C 	C 	0.86570 0.38830 0.87860 -0.09900
C 	C 	0.81680 0.41860 0.85140 -0.01000
C 	C 	0.81610 0.41780 0.79970 0.00000
C 	C 	0.85610 0.38490 0.77470 -0.01800
C 	C 	0.78080 0.45990 0.77300 0.01900
C 	C 	0.71310 0.47070 0.78390 -0.00100
C 	C 	0.68770 0.51150 0.76340 -0.06200
C 	C 	0.71780 0.54150 0.72430 -0.00200
C 	C 	0.78330 0.52720 0.71430 0.01700
C 	C 	0.81650 0.48710 0.74010 -0.08100
C 	C 	0.83390 0.55580 0.68270 -0.00100
C 	C 	0.85360 0.60760 0.69720 -0.00900
C 	C 	0.91990 0.60780 0.62630 0.03400
C 	C 	0.85580 0.53340 0.63620 -0.01400
C 	C 	0.56040 0.68590 0.72870 0.38000
C 	C 	0.67990 0.57910 0.69940 0.01700
C 	C 	0.64140 0.61600 0.72470 -0.01700
C 	C 	0.59770 0.65220 0.70120 -0.09800
C 	C 	0.67850 0.57880 0.64820 -0.04300
C 	C 	0.59430 0.64560 0.64850 0.01600
C 	C 	0.64040 0.61350 0.62520 -0.03300
C 	C 	0.63630 0.60880 0.56560 0.33700
C 	C 	0.86910 0.39040 0.92710 0.32600
C 	C 	0.90230 0.56320 0.61040 -0.08700
C 	C 	0.60350 0.36860 0.82890 -0.04700
C 	C 	0.57400 0.38450 0.87140 -0.00200
C 	C 	0.59500 0.43380 0.88680 -0.06300
C 	C 	0.67490 0.43930 0.82010 0.02400
C 	C 	0.64470 0.46090 0.85850 -0.03900
C 	C 	0.65800 0.39470 0.80430 -0.04100
C 	C 	0.92970 0.67840 0.31240 0.30800
C 	C 	0.57740 0.31950 0.19300 0.35500
C 	C 	0.60420 0.36530 0.17170 -0.08600
C 	C 	0.55860 0.46280 0.06800 0.45100
C 	C 	0.93190 0.54510 0.43360 0.35300
C 	C 	0.55930 0.68480 0.27430 0.33600
C 	C 	0.60390 0.64510 0.29850 -0.06500
C 	C 	0.60130 0.64840 0.35240 0.03000
C 	C 	0.63430 0.61170 0.37860 -0.09900
C 	C 	0.68320 0.58140 0.35140 -0.01000
C 	C 	0.68390 0.58220 0.29970 0.00000
C 	C 	0.64390 0.61510 0.27470 -0.01800
C 	C 	0.71920 0.54010 0.27300 0.01900
C 	C 	0.78690 0.52930 0.28390 -0.00100
C 	C 	0.81230 0.48850 0.26340 -0.06200
C 	C 	0.78220 0.45850 0.22430 -0.00200
C 	C 	0.71670 0.47280 0.21430 0.01700
C 	C 	0.68350 0.51290 0.24010 -0.08100
C 	C 	0.66610 0.44420 0.18270 -0.00100
C 	C 	0.64640 0.39240 0.19720 -0.00800
C 	C 	0.58010 0.39220 0.12630 0.03400
C 	C 	0.64420 0.46660 0.13620 -0.01400
C 	C 	0.93960 0.31410 0.22870 0.38000
C 	C 	0.82010 0.42090 0.19940 0.01700
C 	C 	0.85860 0.38400 0.22470 -0.01700
C 	C 	0.90230 0.34780 0.20120 -0.09800
C 	C 	0.82150 0.42120 0.14820 -0.04300
C 	C 	0.90570 0.35440 0.14850 0.01600
C 	C 	0.85960 0.38650 0.12520 -0.03300
C 	C 	0.86370 0.39120 0.06560 0.33700
C 	C 	0.63090 0.60960 0.42710 0.32600
C 	C 	0.59770 0.43680 0.11040 -0.08700
C 	C 	0.89650 0.63140 0.32890 -0.04700
C 	C 	0.92600 0.61550 0.37140 -0.00200
C 	C 	0.90500 0.56620 0.38680 -0.06300
C 	C 	0.82510 0.56070 0.32010 0.02400
C 	C 	0.85530 0.53910 0.35850 -0.03900
C 	C 	0.84200 0.60530 0.30430 -0.04100
C 	C 	0.42970 0.82160 0.18760 0.30800
C 	C 	0.07740 0.18050 0.30700 0.35500
C 	C 	0.10420 0.13470 0.32830 -0.08600
C 	C 	0.05860 0.03720 0.43200 0.45100
C 	C 	0.43190 0.95490 0.06640 0.35300
C 	C 	0.05930 0.81520 0.22570 0.33600
C 	C 	0.10390 0.85490 0.20150 -0.06500
C 	C 	0.10130 0.85160 0.14760 0.03000
C 	C 	0.13430 0.88830 0.12140 -0.10000
C 	C 	0.18320 0.91860 0.14860 -0.01000
C 	C 	0.18390 0.91780 0.20030 -0.00000
C 	C 	0.14390 0.88490 0.22530 -0.01800
C 	C 	0.21920 0.95990 0.22700 0.01900
C 	C 	0.28690 0.97070 0.21610 -0.00200
C 	C 	0.31230 0.01150 0.23660 -0.06200
C 	C 	0.28220 0.04150 0.27570 -0.00200
C 	C 	0.21670 0.02720 0.28570 0.01700
C 	C 	0.18350 0.98710 0.25990 -0.08200
C 	C 	0.16610 0.05580 0.31730 -0.00200
C 	C 	0.14640 0.10760 0.30280 -0.00800
C 	C 	0.08010 0.10780 0.37370 0.03400
C 	C 	0.14420 0.03340 0.36380 -0.01300
C 	C 	0.43960 0.18590 0.27130 0.38000
C 	C 	0.32010 0.07910 0.30060 0.01800
C 	C 	0.35860 0.11600 0.27530 -0.01700
C 	C 	0.40230 0.15220 0.29880 -0.09800
C 	C 	0.32150 0.07880 0.35180 -0.04300
C 	C 	0.40570 0.14560 0.35150 0.01600
C 	C 	0.35960 0.11350 0.37480 -0.03300
C 	C 	0.36370 0.10880 0.43440 0.33700
C 	C 	0.13090 0.89040 0.07290 0.32600
C 	C 	0.09770 0.06320 0.38960 -0.08700
C 	C 	0.39650 0.86860 0.17110 -0.04700
C 	C 	0.42600 0.88450 0.12860 -0.00200
C 	C 	0.40500 0.93380 0.11320 -0.06300
C 	C 	0.32510 0.93930 0.17990 0.02400
C 	C 	0.35530 0.96090 0.14150 -0.03900
C 	C 	0.34200 0.89470 0.19570 -0.04100
C 	C 	0.07030 0.17840 0.68760 0.30800
C 	C 	0.42260 0.81950 0.80700 0.35500
C 	C 	0.39580 0.86530 0.82830 -0.08600
C 	C 	0.44140 0.96280 0.93200 0.45100
C 	C 	0.06810 0.04510 0.56640 0.35300
C 	C 	0.44070 0.18480 0.72570 0.33600
C 	C 	0.39610 0.14510 0.70150 -0.06400
C 	C 	0.39870 0.14840 0.64760 0.03000
C 	C 	0.36570 0.11170 0.62140 -0.09900
C 	C 	0.31680 0.08140 0.64860 -0.01000
C 	C 	0.31610 0.08220 0.70030 0.00100
C 	C 	0.35610 0.11510 0.72530 -0.01800
C 	C 	0.28080 0.04010 0.72700 0.01700
C 	C 	0.21310 0.02930 0.71610 0.00200
C 	C 	0.18770 0.98850 0.73660 -0.06500
C 	C 	0.21780 0.95850 0.77570 -0.00000
C 	C 	0.28330 0.97280 0.78570 0.01500
C 	C 	0.31650 0.01290 0.75990 -0.07800
C 	C 	0.33390 0.94420 0.81730 -0.00100
C 	C 	0.35360 0.89240 0.80280 -0.00900
C 	C 	0.41990 0.89220 0.87370 0.03400
C 	C 	0.35580 0.96660 0.86380 -0.01400
C 	C 	0.06040 0.81410 0.77130 0.38000
C 	C 	0.17990 0.92090 0.80060 0.01700
C 	C 	0.14140 0.88400 0.77530 -0.01700
C 	C 	0.09770 0.84780 0.79880 -0.09800
C 	C 	0.17850 0.92120 0.85180 -0.04200
C 	C 	0.09430 0.85440 0.85150 0.01600
C 	C 	0.14040 0.88650 0.87480 -0.03400
C 	C 	0.13630 0.89120 0.93440 0.33700
C 	C 	0.36910 0.10960 0.57290 0.32600
C 	C 	0.40230 0.93680 0.88960 -0.08700
C 	C 	0.10350 0.13140 0.67110 -0.04800
C 	C 	0.07400 0.11550 0.62860 -0.00100
C 	C 	0.09500 0.06620 0.61320 -0.06300
C 	C 	0.17490 0.06070 0.67990 0.02300
C 	C 	0.14470 0.03910 0.64150 -0.03800
C 	C 	0.15800 0.10530 0.69570 -0.04000
O 	O 	0.40150 0.69650 0.22950 -0.36500
O 	O 	0.47560 0.69810 0.16440 -0.39200
O 	O 	0.00720 0.69920 0.20680 -0.40700
O 	O 	0.08150 0.69740 0.26960 -0.38300
O 	O 	0.02690 0.30080 0.33240 -0.39600
O 	O 	0.10140 0.30220 0.26940 -0.40600
O 	O 	0.42300 0.30020 0.22950 -0.41600
O 	O 	0.49240 0.29870 0.29370 -0.40000
O 	O 	0.01600 0.43420 0.44940 -0.43100
O 	O 	0.48740 0.56280 0.05110 -0.40200
O 	O 	0.41280 0.50310 0.05180 -0.39900
O 	O 	0.33410 0.42810 0.45380 -0.45900
O 	O 	0.39750 0.35430 0.45290 -0.25800
O 	O 	0.18440 0.59050 0.04560 -0.24700
O 	O 	0.07710 0.62320 0.04840 -0.43000
O 	O 	0.08590 0.49580 0.44750 -0.46300
O 	O 	0.09850 0.30350 0.72950 -0.36500
O 	O 	0.02440 0.30190 0.66440 -0.39200
O 	O 	0.49280 0.30080 0.70680 -0.40700
O 	O 	0.41850 0.30260 0.76960 -0.38300
O 	O 	0.47310 0.69920 0.83240 -0.39600
O 	O 	0.39860 0.69780 0.76940 -0.40600
O 	O 	0.07700 0.69980 0.72950 -0.41600
O 	O 	0.00760 0.70130 0.79370 -0.40100
O 	O 	0.48400 0.56580 0.94940 -0.43100
O 	O 	0.01260 0.43720 0.55110 -0.40200
O 	O 	0.08720 0.49690 0.55180 -0.39900
O 	O 	0.16590 0.57190 0.95380 -0.45900
O 	O 	0.10250 0.64570 0.95290 -0.25800
O 	O 	0.31560 0.40950 0.54560 -0.24700
O 	O 	0.42290 0.37680 0.54840 -0.43000
O 	O 	0.41410 0.50420 0.94750 -0.46300
O 	O 	0.59850 0.19650 0.77050 -0.36500
O 	O 	0.52440 0.19810 0.83560 -0.39200
O 	O 	0.99280 0.19920 0.79320 -0.40800
O 	O 	0.91850 0.19740 0.73040 -0.38300
O 	O 	0.97310 0.80080 0.66760 -0.39600
O 	O 	0.89860 0.80220 0.73060 -0.40600
O 	O 	0.57700 0.80020 0.77050 -0.41600
O 	O 	0.50760 0.79870 0.70630 -0.40000
O 	O 	0.98400 0.93420 0.55060 -0.43100
O 	O 	0.51260 0.06280 0.94890 -0.40200
O 	O 	0.58720 0.00310 0.94820 -0.39900
O 	O 	0.66590 0.92810 0.54620 -0.45900
O 	O 	0.60250 0.85430 0.54710 -0.25800
O 	O 	0.81560 0.09050 0.95440 -0.24700
O 	O 	0.92290 0.12320 0.95160 -0.43000
O 	O 	0.91410 0.99580 0.55250 -0.46300
O 	O 	0.90150 0.80350 0.27050 -0.36500
O 	O 	0.97560 0.80190 0.33560 -0.39200
O 	O 	0.50720 0.80080 0.29320 -0.40700
O 	O 	0.58150 0.80260 0.23040 -0.38300
O 	O 	0.52690 0.19920 0.16760 -0.39600
O 	O 	0.60140 0.19780 0.23060 -0.40600
O 	O 	0.92300 0.19980 0.27050 -0.41600
O 	O 	0.99240 0.20130 0.20630 -0.40100
O 	O 	0.51600 0.06580 0.05060 -0.43100
O 	O 	0.98740 0.93720 0.44890 -0.40200
O 	O 	0.91280 0.99690 0.44820 -0.39900
O 	O 	0.83410 0.07190 0.04620 -0.46000
O 	O 	0.89750 0.14570 0.04710 -0.25800
O 	O 	0.68440 0.90950 0.45440 -0.24700
O 	O 	0.57710 0.87680 0.45160 -0.43000
O 	O 	0.58590 0.00420 0.05250 -0.46300
O 	O 	0.59850 0.30350 0.77050 -0.36500
O 	O 	0.52440 0.30190 0.83560 -0.39200
O 	O 	0.99280 0.30080 0.79320 -0.40700
O 	O 	0.91850 0.30260 0.73040 -0.38300
O 	O 	0.97310 0.69920 0.66760 -0.39600
O 	O 	0.89860 0.69780 0.73060 -0.40600
O 	O 	0.57700 0.69980 0.77050 -0.41600
O 	O 	0.50760 0.70130 0.70630 -0.40000
O 	O 	0.98400 0.56580 0.55060 -0.43100
O 	O 	0.51260 0.43720 0.94890 -0.40200
O 	O 	0.58720 0.49690 0.94820 -0.39900
O 	O 	0.66590 0.57190 0.54620 -0.45900
O 	O 	0.60250 0.64570 0.54710 -0.25800
O 	O 	0.81560 0.40950 0.95440 -0.24700
O 	O 	0.92290 0.37680 0.95160 -0.43000
O 	O 	0.91410 0.50420 0.55250 -0.46300
O 	O 	0.90150 0.69650 0.27050 -0.36500
O 	O 	0.97560 0.69810 0.33560 -0.39200
O 	O 	0.50720 0.69920 0.29320 -0.40700
O 	O 	0.58150 0.69740 0.23040 -0.38300
O 	O 	0.52690 0.30080 0.16760 -0.39600
O 	O 	0.60140 0.30220 0.23060 -0.40600
O 	O 	0.92300 0.30020 0.27050 -0.41600
O 	O 	0.99240 0.29870 0.20630 -0.40100
O 	O 	0.51600 0.43420 0.05060 -0.43100
O 	O 	0.98740 0.56280 0.44890 -0.40200
O 	O 	0.91280 0.50310 0.44820 -0.39900
O 	O 	0.83410 0.42810 0.04620 -0.45900
O 	O 	0.89750 0.35430 0.04710 -0.25800
O 	O 	0.68440 0.59050 0.45440 -0.24700
O 	O 	0.57710 0.62320 0.45160 -0.43000
O 	O 	0.58590 0.49580 0.05250 -0.46300
O 	O 	0.40150 0.80350 0.22950 -0.36500
O 	O 	0.47560 0.80190 0.16440 -0.39200
O 	O 	0.00720 0.80080 0.20680 -0.40800
O 	O 	0.08150 0.80260 0.26960 -0.38300
O 	O 	0.02690 0.19920 0.33240 -0.39600
O 	O 	0.10140 0.19780 0.26940 -0.40600
O 	O 	0.42300 0.19980 0.22950 -0.41600
O 	O 	0.49240 0.20130 0.29370 -0.40000
O 	O 	0.01600 0.06580 0.44940 -0.43100
O 	O 	0.48740 0.93720 0.05110 -0.40200
O 	O 	0.41280 0.99690 0.05180 -0.39900
O 	O 	0.33410 0.07190 0.45380 -0.45900
O 	O 	0.39750 0.14570 0.45290 -0.25800
O 	O 	0.18440 0.90950 0.04560 -0.24700
O 	O 	0.07710 0.87680 0.04840 -0.43000
O 	O 	0.08590 0.00420 0.44750 -0.46300
O 	O 	0.09850 0.19650 0.72950 -0.36500
O 	O 	0.02440 0.19810 0.66440 -0.39200
O 	O 	0.49280 0.19920 0.70680 -0.40700
O 	O 	0.41850 0.19740 0.76960 -0.38300
O 	O 	0.47310 0.80080 0.83240 -0.39600
O 	O 	0.39860 0.80220 0.76940 -0.40600
O 	O 	0.07700 0.80020 0.72950 -0.41600
O 	O 	0.00760 0.79870 0.79370 -0.40100
O 	O 	0.48400 0.93420 0.94940 -0.43100
O 	O 	0.01260 0.06280 0.55110 -0.40200
O 	O 	0.08720 0.00310 0.55180 -0.39900
O 	O 	0.16590 0.92810 0.95380 -0.46000
O 	O 	0.10250 0.85430 0.95290 -0.25800
O 	O 	0.31560 0.09050 0.54560 -0.24700
O 	O 	0.42290 0.12320 0.54840 -0.43000
O 	O 	0.41410 0.99580 0.94750 -0.46300
