data_crystal

_cell_length_a 26.73300
_cell_length_b 26.73300
_cell_length_c 65.26100
_cell_angle_alpha 90.00000
_cell_angle_beta  90.00000
_cell_angle_gamma 120.00000

_symmetry_space_group_name_	'P 1'
_symmetry_space_group_name_H-M	'P 1'

loop_
_symmetry_equiv_pos_as_xyz
  x,y,z

loop_
_atom_site_label
_atom_site_type_symbol
_atom_site_fract_x
_atom_site_fract_y
_atom_site_fract_z
_atom_site_charge
I 	I 	0.44286 0.69839 0.98008 -0.63900
Cu	Cu	0.35326 0.62147 0.00154 0.71900
N 	N 	0.37630 0.56820 0.01606 -0.25700
C 	C 	0.43060 0.58750 0.02260 0.12500
C 	C 	0.33600 0.51740 0.02251 0.08700
C 	C 	0.28370 0.66810 0.92878 -0.05100
H 	H 	0.46060 0.62380 0.01780 -0.03500
C 	C 	0.44400 0.55710 0.03578 -0.25400
C 	C 	0.34620 0.48430 0.03594 -0.19100
H 	H 	0.29780 0.50280 0.01760 -0.03000
H 	H 	0.28540 0.70290 0.93350 0.01200
C 	C 	0.40190 0.50440 0.04298 0.11900
C 	C 	0.50550 0.58120 0.04311 0.54500
H 	H 	0.31550 0.44790 0.04040 0.05100
H 	H 	0.41060 0.48270 0.05240 -0.03200
O 	O 	0.54350 0.62390 0.03275 -0.84800
O 	O 	0.51509 0.55840 0.05798 -0.78200
Ti	Ti	0.63288 0.66784 0.03633 3.08200
Ti	Ti	0.59647 0.57953 0.07273 3.09300
O 	O 	0.62480 0.59280 0.04322 -1.13500
O 	O 	0.62920 0.73800 0.04296 -1.17200
O 	O 	0.61285 0.66011 0.06590 -1.61100
O 	O 	0.71600 0.70680 0.04003 -0.85600
O 	O 	0.56274 0.58623 0.09843 -0.83100
C 	C 	0.63700 0.55420 0.03106 0.18100
Ti	Ti	0.60293 0.72219 0.07280 3.08200
C 	C 	0.64120 0.78690 0.03063 0.22400
P 	P 	0.56756 0.63507 0.11170 0.65500
C 	C 	0.69370 0.57090 0.02970 -0.17600
C 	C 	0.58310 0.50900 0.02150 -0.17800
O 	O 	0.57000 0.68418 0.09906 -0.87500
C 	C 	0.69470 0.83260 0.03120 -0.19800
C 	C 	0.59140 0.77290 0.01730 -0.19400
C 	C 	0.50340 0.60420 0.12641 -0.18600
C 	C 	0.50330 0.61360 0.14580 0.12600
C 	C 	0.45290 0.56150 0.11820 0.07300
H 	H 	0.53930 0.63650 0.15250 -0.02800
C 	C 	0.45230 0.59140 0.15740 -0.20300
C 	C 	0.40010 0.53860 0.12860 -0.15500
H 	H 	0.45370 0.54700 0.10500 -0.01300
H 	H 	0.45360 0.60620 0.17080 0.08600
C 	C 	0.40750 0.55430 0.15080 0.09300
H 	H 	0.38130 0.49720 0.12770 0.05200
H 	H 	0.37570 0.53420 0.15990 -0.01500
I 	I 	0.10952 0.03172 0.31341 -0.61600
Cu	Cu	0.01993 0.95480 0.33487 0.71700
N 	N 	0.04297 0.90153 0.34939 -0.25900
C 	C 	0.09727 0.92083 0.35593 0.12200
C 	C 	0.00267 0.85073 0.35584 0.10800
C 	C 	0.95037 0.00143 0.26211 -0.03100
H 	H 	0.12727 0.95713 0.35113 -0.03800
C 	C 	0.11067 0.89043 0.36911 -0.24800
C 	C 	0.01287 0.81763 0.36927 -0.15600
H 	H 	0.96447 0.83613 0.35093 -0.04900
H 	H 	0.95207 0.03623 0.26683 0.00600
C 	C 	0.06857 0.83773 0.37631 0.10400
C 	C 	0.17217 0.91453 0.37644 0.54500
H 	H 	0.98217 0.78123 0.37373 0.02700
H 	H 	0.07727 0.81603 0.38573 -0.02200
O 	O 	0.21017 0.95723 0.36608 -0.85400
O 	O 	0.18176 0.89173 0.39131 -0.78100
Ti	Ti	0.29955 0.00117 0.36967 3.08500
Ti	Ti	0.26314 0.91286 0.40606 3.09400
O 	O 	0.29147 0.92613 0.37655 -1.13900
O 	O 	0.29587 0.07133 0.37629 -1.16300
O 	O 	0.27952 0.99344 0.39923 -1.62300
O 	O 	0.38267 0.04013 0.37336 -0.84600
O 	O 	0.22941 0.91956 0.43176 -0.82900
C 	C 	0.30367 0.88753 0.36439 0.18300
Ti	Ti	0.26960 0.05552 0.40614 3.08400
C 	C 	0.30787 0.12023 0.36396 0.22300
P 	P 	0.23423 0.96840 0.44503 0.64200
C 	C 	0.36037 0.90423 0.36303 -0.18200
C 	C 	0.24977 0.84233 0.35483 -0.17700
O 	O 	0.23667 0.01751 0.43239 -0.85500
C 	C 	0.36137 0.16593 0.36453 -0.19100
C 	C 	0.25807 0.10623 0.35063 -0.18700
C 	C 	0.17007 0.93753 0.45974 -0.18500
C 	C 	0.16997 0.94693 0.47913 0.12100
C 	C 	0.11957 0.89483 0.45153 0.07000
H 	H 	0.20597 0.96983 0.48583 -0.03100
C 	C 	0.11897 0.92473 0.49073 -0.19800
C 	C 	0.06677 0.87193 0.46193 -0.15000
H 	H 	0.12037 0.88033 0.43833 -0.01200
H 	H 	0.12027 0.93953 0.50413 0.08100
C 	C 	0.07417 0.88763 0.48413 0.08900
H 	H 	0.04797 0.83053 0.46103 0.05500
H 	H 	0.04237 0.86753 0.49323 -0.00800
I 	I 	0.77619 0.36506 0.64674 -0.64100
Cu	Cu	0.68659 0.28814 0.66820 0.72000
N 	N 	0.70963 0.23487 0.68273 -0.25700
C 	C 	0.76393 0.25417 0.68927 0.12600
C 	C 	0.66933 0.18407 0.68918 0.08800
C 	C 	0.61703 0.33477 0.59545 -0.05100
H 	H 	0.79393 0.29047 0.68447 -0.03400
C 	C 	0.77733 0.22377 0.70245 -0.25300
C 	C 	0.67953 0.15097 0.70261 -0.18900
H 	H 	0.63113 0.16947 0.68427 -0.02800
H 	H 	0.61873 0.36957 0.60017 0.01400
C 	C 	0.73523 0.17107 0.70965 0.12100
C 	C 	0.83883 0.24787 0.70978 0.54700
H 	H 	0.64883 0.11457 0.70707 0.05500
H 	H 	0.74393 0.14937 0.71907 -0.03000
O 	O 	0.87683 0.29057 0.69942 -0.84900
O 	O 	0.84842 0.22507 0.72465 -0.78100
Ti	Ti	0.96621 0.33451 0.70300 3.08200
Ti	Ti	0.92980 0.24620 0.73940 3.09300
O 	O 	0.95813 0.25947 0.70989 -1.13700
O 	O 	0.96253 0.40467 0.70963 -1.17400
O 	O 	0.94618 0.32678 0.73257 -1.61800
O 	O 	0.04933 0.37347 0.70670 -0.84600
O 	O 	0.89607 0.25290 0.76510 -0.83300
C 	C 	0.97033 0.22087 0.69773 0.15500
Ti	Ti	0.93626 0.38886 0.73947 3.08200
C 	C 	0.97453 0.45357 0.69730 0.19700
P 	P 	0.90089 0.30174 0.77837 0.65700
C 	C 	0.02703 0.23757 0.69637 -0.14800
C 	C 	0.91643 0.17567 0.68817 -0.17200
O 	O 	0.90333 0.35085 0.76573 -0.87800
C 	C 	0.02803 0.49927 0.69787 -0.16600
C 	C 	0.92473 0.43957 0.68397 -0.19300
C 	C 	0.83673 0.27087 0.79308 -0.18800
C 	C 	0.83663 0.28027 0.81247 0.12900
C 	C 	0.78623 0.22817 0.78487 0.07500
H 	H 	0.87263 0.30317 0.81917 -0.03000
C 	C 	0.78563 0.25807 0.82407 -0.20600
C 	C 	0.73343 0.20527 0.79527 -0.15600
H 	H 	0.78703 0.21367 0.77167 -0.01300
H 	H 	0.78693 0.27287 0.83747 0.08600
C 	C 	0.74083 0.22097 0.81747 0.09600
H 	H 	0.71463 0.16387 0.79437 0.05400
H 	H 	0.70903 0.20087 0.82657 -0.01600
I 	I 	0.30161 0.74447 0.98008 -0.64000
Cu	Cu	0.37853 0.73179 0.00154 0.72000
N 	N 	0.43180 0.80810 0.01606 -0.25700
C 	C 	0.41250 0.84310 0.02260 0.12600
C 	C 	0.48260 0.81860 0.02251 0.08800
C 	C 	0.33190 0.61560 0.92878 -0.05100
H 	H 	0.37620 0.83680 0.01780 -0.03500
C 	C 	0.44290 0.88690 0.03578 -0.25500
C 	C 	0.51570 0.86190 0.03594 -0.19100
H 	H 	0.49720 0.79500 0.01760 -0.02900
H 	H 	0.29710 0.58250 0.93350 0.01400
C 	C 	0.49560 0.89750 0.04298 0.12000
C 	C 	0.41880 0.92430 0.04311 0.54700
H 	H 	0.55210 0.86760 0.04040 0.05100
H 	H 	0.51730 0.92790 0.05240 -0.03500
O 	O 	0.37610 0.91960 0.03275 -0.85300
O 	O 	0.44160 0.95669 0.05798 -0.78800
Ti	Ti	0.33216 0.96504 0.03633 3.08100
Ti	Ti	0.42047 0.01694 0.07273 3.09700
O 	O 	0.40720 0.03200 0.04322 -1.12400
O 	O 	0.26200 0.89120 0.04296 -1.17400
O 	O 	0.33989 0.95274 0.06590 -1.61900
O 	O 	0.29320 0.00920 0.04003 -0.84700
O 	O 	0.41377 0.97651 0.09843 -0.83900
C 	C 	0.44580 0.08280 0.03106 0.18000
Ti	Ti	0.27781 0.88074 0.07280 3.08300
C 	C 	0.21310 0.85430 0.03063 0.22400
P 	P 	0.36493 0.93249 0.11170 0.65600
C 	C 	0.42910 0.12280 0.02970 -0.17200
C 	C 	0.49100 0.07410 0.02150 -0.16800
O 	O 	0.31582 0.88582 0.09906 -0.87400
C 	C 	0.16740 0.86210 0.03120 -0.19400
C 	C 	0.22710 0.81850 0.01730 -0.19400
C 	C 	0.39580 0.89920 0.12641 -0.18700
C 	C 	0.38640 0.88970 0.14580 0.12500
C 	C 	0.43850 0.89140 0.11820 0.07100
H 	H 	0.36350 0.90280 0.15250 -0.02900
C 	C 	0.40860 0.86090 0.15740 -0.20300
C 	C 	0.46140 0.86150 0.12860 -0.15400
H 	H 	0.45300 0.90670 0.10500 -0.01400
H 	H 	0.39380 0.84740 0.17080 0.08500
C 	C 	0.44570 0.85320 0.15080 0.09100
H 	H 	0.50280 0.88410 0.12770 0.04900
H 	H 	0.46580 0.84150 0.15990 -0.01500
I 	I 	0.96828 0.07780 0.31341 -0.65100
Cu	Cu	0.04520 0.06512 0.33487 0.72600
N 	N 	0.09847 0.14143 0.34939 -0.25500
C 	C 	0.07917 0.17643 0.35593 0.12500
C 	C 	0.14927 0.15193 0.35584 0.08800
C 	C 	0.99857 0.94893 0.26211 -0.11100
H 	H 	0.04287 0.17013 0.35113 -0.02800
C 	C 	0.10957 0.22023 0.36911 -0.24900
C 	C 	0.18237 0.19523 0.36927 -0.18800
H 	H 	0.16387 0.12833 0.35093 -0.02800
H 	H 	0.96377 0.91583 0.26683 0.02400
C 	C 	0.16227 0.23083 0.37631 0.11900
C 	C 	0.08547 0.25763 0.37644 0.54500
H 	H 	0.21877 0.20093 0.37373 0.05200
H 	H 	0.18397 0.26123 0.38573 -0.03100
O 	O 	0.04277 0.25293 0.36608 -0.83900
O 	O 	0.10827 0.29002 0.39131 -0.78000
Ti	Ti	0.99883 0.29837 0.36967 3.08000
Ti	Ti	0.08714 0.35027 0.40606 3.09400
O 	O 	0.07387 0.36533 0.37655 -1.12900
O 	O 	0.92867 0.22453 0.37629 -1.17800
O 	O 	0.00656 0.28607 0.39923 -1.59700
O 	O 	0.95987 0.34253 0.37336 -0.86200
O 	O 	0.08044 0.30984 0.43176 -0.83100
C 	C 	0.11247 0.41613 0.36439 0.18100
Ti	Ti	0.94448 0.21407 0.40614 3.08200
C 	C 	0.87977 0.18763 0.36396 0.22500
P 	P 	0.03160 0.26582 0.44503 0.67100
C 	C 	0.09577 0.45613 0.36303 -0.16600
C 	C 	0.15767 0.40743 0.35483 -0.17500
O 	O 	0.98249 0.21915 0.43239 -0.89100
C 	C 	0.83407 0.19543 0.36453 -0.19200
C 	C 	0.89377 0.15183 0.35063 -0.19700
C 	C 	0.06247 0.23253 0.45974 -0.18300
C 	C 	0.05307 0.22303 0.47913 0.12700
C 	C 	0.10517 0.22473 0.45153 0.07300
H 	H 	0.03017 0.23613 0.48583 -0.02300
C 	C 	0.07527 0.19423 0.49073 -0.19900
C 	C 	0.12807 0.19483 0.46193 -0.14900
H 	H 	0.11967 0.24003 0.43833 -0.01200
H 	H 	0.06047 0.18073 0.50413 0.09100
C 	C 	0.11237 0.18653 0.48413 0.09300
H 	H 	0.16947 0.21743 0.46103 0.05000
H 	H 	0.13247 0.17483 0.49323 -0.01300
I 	I 	0.63494 0.41113 0.64674 -0.63800
Cu	Cu	0.71186 0.39846 0.66820 0.72000
N 	N 	0.76513 0.47477 0.68273 -0.25600
C 	C 	0.74583 0.50977 0.68927 0.12600
C 	C 	0.81593 0.48527 0.68918 0.08700
C 	C 	0.66523 0.28227 0.59545 -0.05200
H 	H 	0.70953 0.50347 0.68447 -0.03400
C 	C 	0.77623 0.55357 0.70245 -0.25300
C 	C 	0.84903 0.52857 0.70261 -0.19000
H 	H 	0.83053 0.46167 0.68427 -0.03000
H 	H 	0.63043 0.24917 0.60017 0.01500
C 	C 	0.82893 0.56417 0.70965 0.11900
C 	C 	0.75213 0.59097 0.70978 0.54600
H 	H 	0.88543 0.53427 0.70707 0.04900
H 	H 	0.85063 0.59457 0.71907 -0.03300
O 	O 	0.70943 0.58627 0.69942 -0.84700
O 	O 	0.77493 0.62336 0.72465 -0.78200
Ti	Ti	0.66549 0.63171 0.70300 3.08300
Ti	Ti	0.75380 0.68361 0.73940 3.09400
O 	O 	0.74053 0.69867 0.70989 -1.13400
O 	O 	0.59533 0.55787 0.70963 -1.17100
O 	O 	0.67322 0.61941 0.73257 -1.61000
O 	O 	0.62653 0.67587 0.70670 -0.85500
O 	O 	0.74710 0.64318 0.76510 -0.83100
C 	C 	0.77913 0.74947 0.69773 0.18200
Ti	Ti	0.61114 0.54741 0.73947 3.08300
C 	C 	0.54643 0.52097 0.69730 0.22400
P 	P 	0.69826 0.59916 0.77837 0.65700
C 	C 	0.76243 0.78947 0.69637 -0.17500
C 	C 	0.82433 0.74077 0.68817 -0.18000
O 	O 	0.64915 0.55249 0.76573 -0.87400
C 	C 	0.50073 0.52877 0.69787 -0.19300
C 	C 	0.56043 0.48517 0.68397 -0.19300
C 	C 	0.72913 0.56587 0.79308 -0.18600
C 	C 	0.71973 0.55637 0.81247 0.12500
C 	C 	0.77183 0.55807 0.78487 0.07200
H 	H 	0.69683 0.56947 0.81917 -0.02800
C 	C 	0.74193 0.52757 0.82407 -0.20200
C 	C 	0.79473 0.52817 0.79527 -0.15400
H 	H 	0.78633 0.57337 0.77167 -0.01400
H 	H 	0.72713 0.51407 0.83747 0.08500
C 	C 	0.77903 0.51987 0.81747 0.09200
H 	H 	0.83613 0.55077 0.79437 0.04900
H 	H 	0.79913 0.50817 0.82657 -0.01500
I 	I 	0.25553 0.55714 0.98008 -0.63600
Cu	Cu	0.26821 0.64674 0.00154 0.72000
N 	N 	0.19190 0.62370 0.01606 -0.25600
C 	C 	0.15690 0.56940 0.02260 0.12500
C 	C 	0.18140 0.66400 0.02251 0.08800
C 	C 	0.38440 0.71630 0.92878 -0.05200
H 	H 	0.16320 0.53940 0.01780 -0.03300
C 	C 	0.11310 0.55600 0.03578 -0.25000
C 	C 	0.13810 0.65380 0.03594 -0.18800
H 	H 	0.20500 0.70220 0.01760 -0.02900
H 	H 	0.41750 0.71460 0.93350 0.01400
C 	C 	0.10250 0.59810 0.04298 0.12000
C 	C 	0.07570 0.49450 0.04311 0.54600
H 	H 	0.13240 0.68450 0.04040 0.05400
H 	H 	0.07210 0.58940 0.05240 -0.02800
O 	O 	0.08040 0.45650 0.03275 -0.84200
O 	O 	0.04331 0.48491 0.05798 -0.77400
Ti	Ti	0.03496 0.36712 0.03633 3.08500
Ti	Ti	0.98306 0.40353 0.07273 3.09200
O 	O 	0.96800 0.37520 0.04322 -1.14300
O 	O 	0.10880 0.37080 0.04296 -1.16700
O 	O 	0.04726 0.38715 0.06590 -1.60100
O 	O 	0.99080 0.28400 0.04003 -0.86100
O 	O 	0.02349 0.43726 0.09843 -0.82200
C 	C 	0.91720 0.36300 0.03106 0.18300
Ti	Ti	0.11926 0.39707 0.07280 3.08300
C 	C 	0.14570 0.35880 0.03063 0.22400
P 	P 	0.06751 0.43244 0.11170 0.65700
C 	C 	0.87720 0.30630 0.02970 -0.17500
C 	C 	0.92590 0.41690 0.02150 -0.18500
O 	O 	0.11418 0.43000 0.09906 -0.87300
C 	C 	0.13790 0.30530 0.03120 -0.18800
C 	C 	0.18150 0.40860 0.01730 -0.19100
C 	C 	0.10080 0.49660 0.12641 -0.18500
C 	C 	0.11030 0.49670 0.14580 0.12700
C 	C 	0.10860 0.54710 0.11820 0.07400
H 	H 	0.09720 0.46070 0.15250 -0.02600
C 	C 	0.13910 0.54770 0.15740 -0.20300
C 	C 	0.13850 0.59990 0.12860 -0.15500
H 	H 	0.09330 0.54630 0.10500 -0.01200
H 	H 	0.15260 0.54640 0.17080 0.08600
C 	C 	0.14680 0.59250 0.15080 0.09500
H 	H 	0.11590 0.61870 0.12770 0.05400
H 	H 	0.15850 0.62430 0.15990 -0.01500
I 	I 	0.92220 0.89048 0.31341 -0.66300
Cu	Cu	0.93488 0.98007 0.33487 0.70500
N 	N 	0.85857 0.95703 0.34939 -0.25900
C 	C 	0.82357 0.90273 0.35593 0.12700
C 	C 	0.84807 0.99733 0.35584 0.06500
C 	C 	0.05107 0.04963 0.26211 -0.04400
H 	H 	0.82987 0.87273 0.35113 -0.03600
C 	C 	0.77977 0.88933 0.36911 -0.26100
C 	C 	0.80477 0.98713 0.36927 -0.22500
H 	H 	0.87167 0.03553 0.35093 -0.01100
H 	H 	0.08417 0.04793 0.26683 0.01800
C 	C 	0.76917 0.93143 0.37631 0.13600
C 	C 	0.74237 0.82783 0.37644 0.54800
H 	H 	0.79907 0.01783 0.37373 0.07700
H 	H 	0.73877 0.92273 0.38573 -0.04100
O 	O 	0.74707 0.78983 0.36608 -0.84800
O 	O 	0.70998 0.81824 0.39131 -0.78300
Ti	Ti	0.70163 0.70045 0.36967 3.08300
Ti	Ti	0.64973 0.73686 0.40606 3.09400
O 	O 	0.63467 0.70853 0.37655 -1.13400
O 	O 	0.77547 0.70413 0.37629 -1.17200
O 	O 	0.71393 0.72048 0.39923 -1.61100
O 	O 	0.65747 0.61733 0.37336 -0.85400
O 	O 	0.69016 0.77059 0.43176 -0.83100
C 	C 	0.58387 0.69633 0.36439 0.18200
Ti	Ti	0.78593 0.73040 0.40614 3.08300
C 	C 	0.81237 0.69213 0.36396 0.22400
P 	P 	0.73418 0.76577 0.44503 0.65700
C 	C 	0.54387 0.63963 0.36303 -0.17400
C 	C 	0.59257 0.75023 0.35483 -0.17800
O 	O 	0.78085 0.76333 0.43239 -0.87700
C 	C 	0.80457 0.63863 0.36453 -0.19400
C 	C 	0.84817 0.74193 0.35063 -0.19600
C 	C 	0.76747 0.82993 0.45974 -0.19200
C 	C 	0.77697 0.83003 0.47913 0.13100
C 	C 	0.77527 0.88043 0.45153 0.07700
H 	H 	0.76387 0.79403 0.48583 -0.03000
C 	C 	0.80577 0.88103 0.49073 -0.21200
C 	C 	0.80517 0.93323 0.46193 -0.16600
H 	H 	0.75997 0.87963 0.43833 -0.01700
H 	H 	0.81927 0.87973 0.50413 0.08600
C 	C 	0.81347 0.92583 0.48413 0.09900
H 	H 	0.78257 0.95203 0.46103 0.05000
H 	H 	0.82517 0.95763 0.49323 -0.02500
I 	I 	0.58887 0.22381 0.64674 -0.63500
Cu	Cu	0.60154 0.31341 0.66820 0.72000
N 	N 	0.52523 0.29037 0.68273 -0.25600
C 	C 	0.49023 0.23607 0.68927 0.12600
C 	C 	0.51473 0.33067 0.68918 0.08800
C 	C 	0.71773 0.38297 0.59545 -0.05100
H 	H 	0.49653 0.20607 0.68447 -0.03300
C 	C 	0.44643 0.22267 0.70245 -0.25200
C 	C 	0.47143 0.32047 0.70261 -0.18900
H 	H 	0.53833 0.36887 0.68427 -0.02900
H 	H 	0.75083 0.38127 0.60017 0.01300
C 	C 	0.43583 0.26477 0.70965 0.12000
C 	C 	0.40903 0.16117 0.70978 0.54600
H 	H 	0.46573 0.35117 0.70707 0.05200
H 	H 	0.40543 0.25607 0.71907 -0.03100
O 	O 	0.41373 0.12317 0.69942 -0.84600
O 	O 	0.37664 0.15158 0.72465 -0.78100
Ti	Ti	0.36829 0.03379 0.70300 3.08400
Ti	Ti	0.31639 0.07020 0.73940 3.09400
O 	O 	0.30133 0.04187 0.70989 -1.13200
O 	O 	0.44213 0.03747 0.70963 -1.17000
O 	O 	0.38059 0.05382 0.73257 -1.60500
O 	O 	0.32413 0.95067 0.70670 -0.86400
O 	O 	0.35682 0.10393 0.76510 -0.82900
C 	C 	0.25053 0.02967 0.69773 0.20800
Ti	Ti	0.45259 0.06374 0.73947 3.08300
C 	C 	0.47903 0.02547 0.69730 0.25200
P 	P 	0.40084 0.09911 0.77837 0.65600
C 	C 	0.21053 0.97297 0.69637 -0.20000
C 	C 	0.25923 0.08357 0.68817 -0.17800
O 	O 	0.44751 0.09667 0.76573 -0.87200
C 	C 	0.47123 0.97197 0.69787 -0.22100
C 	C 	0.51483 0.07527 0.68397 -0.19300
C 	C 	0.43413 0.16327 0.79308 -0.18500
C 	C 	0.44363 0.16337 0.81247 0.12500
C 	C 	0.44193 0.21377 0.78487 0.07200
H 	H 	0.43053 0.12737 0.81917 -0.02600
C 	C 	0.47243 0.21437 0.82407 -0.20100
C 	C 	0.47183 0.26657 0.79527 -0.15400
H 	H 	0.42663 0.21297 0.77167 -0.01300
H 	H 	0.48593 0.21307 0.83747 0.08500
C 	C 	0.48013 0.25917 0.81747 0.09200
H 	H 	0.44923 0.28537 0.79437 0.05100
H 	H 	0.49183 0.29097 0.82657 -0.01500
I 	I 	0.69839 0.44286 0.51992 -0.63800
Cu	Cu	0.62147 0.35326 0.49846 0.72000
N 	N 	0.56820 0.37630 0.48394 -0.25600
C 	C 	0.58750 0.43060 0.47740 0.12600
C 	C 	0.51740 0.33600 0.47749 0.08800
C 	C 	0.66810 0.28370 0.57122 -0.05000
H 	H 	0.62380 0.46060 0.48220 -0.03400
C 	C 	0.55710 0.44400 0.46422 -0.25300
C 	C 	0.48430 0.34620 0.46406 -0.19000
H 	H 	0.50280 0.29780 0.48240 -0.02900
H 	H 	0.70290 0.28540 0.56650 0.01300
C 	C 	0.50440 0.40190 0.45702 0.12000
C 	C 	0.58120 0.50550 0.45689 0.54600
H 	H 	0.44790 0.31550 0.45960 0.05200
H 	H 	0.48270 0.41060 0.44760 -0.03100
O 	O 	0.62390 0.54350 0.46725 -0.84700
O 	O 	0.55840 0.51509 0.44202 -0.78100
Ti	Ti	0.66784 0.63288 0.46367 3.08300
Ti	Ti	0.57953 0.59647 0.42727 3.09400
O 	O 	0.59280 0.62480 0.45678 -1.13400
O 	O 	0.73800 0.62920 0.45704 -1.17100
O 	O 	0.66011 0.61285 0.43410 -1.61000
O 	O 	0.70680 0.71600 0.45997 -0.85500
O 	O 	0.58623 0.56274 0.40157 -0.83000
C 	C 	0.55420 0.63700 0.46894 0.18200
Ti	Ti	0.72219 0.60293 0.42720 3.08300
C 	C 	0.78690 0.64120 0.46937 0.22500
P 	P 	0.63507 0.56756 0.38830 0.65600
C 	C 	0.57090 0.69370 0.47030 -0.17500
C 	C 	0.50900 0.58310 0.47850 -0.17700
O 	O 	0.68418 0.57000 0.40094 -0.87400
C 	C 	0.83260 0.69470 0.46880 -0.19700
C 	C 	0.77290 0.59140 0.48270 -0.19400
C 	C 	0.60420 0.50340 0.37359 -0.18600
C 	C 	0.61360 0.50330 0.35420 0.12600
C 	C 	0.56150 0.45290 0.38180 0.07300
H 	H 	0.63650 0.53930 0.34750 -0.02800
C 	C 	0.59140 0.45230 0.34260 -0.20300
C 	C 	0.53860 0.40010 0.37140 -0.15500
H 	H 	0.54700 0.45370 0.39500 -0.01300
H 	H 	0.60620 0.45360 0.32920 0.08600
C 	C 	0.55430 0.40750 0.34920 0.09300
H 	H 	0.49720 0.38130 0.37230 0.05200
H 	H 	0.53420 0.37570 0.34010 -0.01500
I 	I 	0.36506 0.77619 0.85326 -0.64100
Cu	Cu	0.28814 0.68659 0.83180 0.72000
N 	N 	0.23487 0.70963 0.81727 -0.25700
C 	C 	0.25417 0.76393 0.81073 0.12600
C 	C 	0.18407 0.66933 0.81082 0.08800
C 	C 	0.33477 0.61703 0.90455 -0.05100
H 	H 	0.29047 0.79393 0.81553 -0.03400
C 	C 	0.22377 0.77733 0.79755 -0.25300
C 	C 	0.15097 0.67953 0.79739 -0.18900
H 	H 	0.16947 0.63113 0.81573 -0.02800
H 	H 	0.36957 0.61873 0.89983 0.01400
C 	C 	0.17107 0.73523 0.79035 0.12100
C 	C 	0.24787 0.83883 0.79022 0.54700
H 	H 	0.11457 0.64883 0.79293 0.05500
H 	H 	0.14937 0.74393 0.78093 -0.03000
O 	O 	0.29057 0.87683 0.80058 -0.84900
O 	O 	0.22507 0.84842 0.77535 -0.78100
Ti	Ti	0.33451 0.96621 0.79700 3.08200
Ti	Ti	0.24620 0.92980 0.76060 3.09300
O 	O 	0.25947 0.95813 0.79011 -1.13700
O 	O 	0.40467 0.96253 0.79037 -1.17400
O 	O 	0.32678 0.94618 0.76743 -1.61800
O 	O 	0.37347 0.04933 0.79330 -0.84600
O 	O 	0.25290 0.89607 0.73490 -0.83300
C 	C 	0.22087 0.97033 0.80227 0.15500
Ti	Ti	0.38886 0.93626 0.76053 3.08200
C 	C 	0.45357 0.97453 0.80270 0.19700
P 	P 	0.30174 0.90089 0.72163 0.65700
C 	C 	0.23757 0.02703 0.80363 -0.14800
C 	C 	0.17567 0.91643 0.81183 -0.17200
O 	O 	0.35085 0.90333 0.73427 -0.87800
C 	C 	0.49927 0.02803 0.80213 -0.16600
C 	C 	0.43957 0.92473 0.81603 -0.19300
C 	C 	0.27087 0.83673 0.70692 -0.18800
C 	C 	0.28027 0.83663 0.68753 0.12900
C 	C 	0.22817 0.78623 0.71513 0.07500
H 	H 	0.30317 0.87263 0.68083 -0.03000
C 	C 	0.25807 0.78563 0.67593 -0.20600
C 	C 	0.20527 0.73343 0.70473 -0.15600
H 	H 	0.21367 0.78703 0.72833 -0.01300
H 	H 	0.27287 0.78693 0.66253 0.08600
C 	C 	0.22097 0.74083 0.68253 0.09600
H 	H 	0.16387 0.71463 0.70563 0.05400
H 	H 	0.20087 0.70903 0.67343 -0.01600
I 	I 	0.03172 0.10952 0.18659 -0.61600
Cu	Cu	0.95480 0.01993 0.16513 0.71700
N 	N 	0.90153 0.04297 0.15061 -0.25900
C 	C 	0.92083 0.09727 0.14407 0.12200
C 	C 	0.85073 0.00267 0.14416 0.10800
C 	C 	0.00143 0.95037 0.23789 -0.03100
H 	H 	0.95713 0.12727 0.14887 -0.03800
C 	C 	0.89043 0.11067 0.13089 -0.24800
C 	C 	0.81763 0.01287 0.13073 -0.15600
H 	H 	0.83613 0.96447 0.14907 -0.04900
H 	H 	0.03623 0.95207 0.23317 0.00600
C 	C 	0.83773 0.06857 0.12369 0.10400
C 	C 	0.91453 0.17217 0.12356 0.54500
H 	H 	0.78123 0.98217 0.12627 0.02700
H 	H 	0.81603 0.07727 0.11427 -0.02200
O 	O 	0.95723 0.21017 0.13392 -0.85400
O 	O 	0.89173 0.18176 0.10869 -0.78100
Ti	Ti	0.00117 0.29955 0.13033 3.08500
Ti	Ti	0.91286 0.26314 0.09394 3.09400
O 	O 	0.92613 0.29147 0.12345 -1.13900
O 	O 	0.07133 0.29587 0.12371 -1.16300
O 	O 	0.99344 0.27952 0.10077 -1.62300
O 	O 	0.04013 0.38267 0.12664 -0.84600
O 	O 	0.91956 0.22941 0.06824 -0.82900
C 	C 	0.88753 0.30367 0.13561 0.18300
Ti	Ti	0.05552 0.26960 0.09386 3.08400
C 	C 	0.12023 0.30787 0.13604 0.22300
P 	P 	0.96840 0.23423 0.05497 0.64200
C 	C 	0.90423 0.36037 0.13697 -0.18200
C 	C 	0.84233 0.24977 0.14517 -0.17700
O 	O 	0.01751 0.23667 0.06761 -0.85500
C 	C 	0.16593 0.36137 0.13547 -0.19100
C 	C 	0.10623 0.25807 0.14937 -0.18700
C 	C 	0.93753 0.17007 0.04026 -0.18500
C 	C 	0.94693 0.16997 0.02087 0.12100
C 	C 	0.89483 0.11957 0.04847 0.07000
H 	H 	0.96983 0.20597 0.01417 -0.03100
C 	C 	0.92473 0.11897 0.00927 -0.19800
C 	C 	0.87193 0.06677 0.03807 -0.15000
H 	H 	0.88033 0.12037 0.06167 -0.01200
H 	H 	0.93953 0.12027 0.99587 0.08100
C 	C 	0.88763 0.07417 0.01587 0.08900
H 	H 	0.83053 0.04797 0.03897 0.05500
H 	H 	0.86753 0.04237 0.00677 -0.00800
I 	I 	0.74447 0.30161 0.51992 -0.64000
Cu	Cu	0.73179 0.37853 0.49846 0.72000
N 	N 	0.80810 0.43180 0.48394 -0.25700
C 	C 	0.84310 0.41250 0.47740 0.12600
C 	C 	0.81860 0.48260 0.47749 0.08800
C 	C 	0.61560 0.33190 0.57122 -0.05100
H 	H 	0.83680 0.37620 0.48220 -0.03500
C 	C 	0.88690 0.44290 0.46422 -0.25500
C 	C 	0.86190 0.51570 0.46406 -0.19100
H 	H 	0.79500 0.49720 0.48240 -0.02900
H 	H 	0.58250 0.29710 0.56650 0.01400
C 	C 	0.89750 0.49560 0.45702 0.12000
C 	C 	0.92430 0.41880 0.45689 0.54700
H 	H 	0.86760 0.55210 0.45960 0.05100
H 	H 	0.92790 0.51730 0.44760 -0.03500
O 	O 	0.91960 0.37610 0.46725 -0.85300
O 	O 	0.95669 0.44160 0.44202 -0.78800
Ti	Ti	0.96504 0.33216 0.46367 3.08100
Ti	Ti	0.01694 0.42047 0.42727 3.09700
O 	O 	0.03200 0.40720 0.45678 -1.12400
O 	O 	0.89120 0.26200 0.45704 -1.17400
O 	O 	0.95274 0.33989 0.43410 -1.61900
O 	O 	0.00920 0.29320 0.45997 -0.84700
O 	O 	0.97651 0.41377 0.40157 -0.83900
C 	C 	0.08280 0.44580 0.46894 0.18000
Ti	Ti	0.88074 0.27781 0.42720 3.08300
C 	C 	0.85430 0.21310 0.46937 0.22400
P 	P 	0.93249 0.36493 0.38830 0.65600
C 	C 	0.12280 0.42910 0.47030 -0.17200
C 	C 	0.07410 0.49100 0.47850 -0.16800
O 	O 	0.88582 0.31582 0.40094 -0.87400
C 	C 	0.86210 0.16740 0.46880 -0.19400
C 	C 	0.81850 0.22710 0.48270 -0.19400
C 	C 	0.89920 0.39580 0.37359 -0.18700
C 	C 	0.88970 0.38640 0.35420 0.12500
C 	C 	0.89140 0.43850 0.38180 0.07100
H 	H 	0.90280 0.36350 0.34750 -0.02900
C 	C 	0.86090 0.40860 0.34260 -0.20300
C 	C 	0.86150 0.46140 0.37140 -0.15400
H 	H 	0.90670 0.45300 0.39500 -0.01400
H 	H 	0.84740 0.39380 0.32920 0.08500
C 	C 	0.85320 0.44570 0.34920 0.09100
H 	H 	0.88410 0.50280 0.37230 0.04900
H 	H 	0.84150 0.46580 0.34010 -0.01500
I 	I 	0.41113 0.63494 0.85326 -0.63800
Cu	Cu	0.39846 0.71186 0.83180 0.72000
N 	N 	0.47477 0.76513 0.81727 -0.25600
C 	C 	0.50977 0.74583 0.81073 0.12600
C 	C 	0.48527 0.81593 0.81082 0.08700
C 	C 	0.28227 0.66523 0.90455 -0.05200
H 	H 	0.50347 0.70953 0.81553 -0.03400
C 	C 	0.55357 0.77623 0.79755 -0.25300
C 	C 	0.52857 0.84903 0.79739 -0.19000
H 	H 	0.46167 0.83053 0.81573 -0.03000
H 	H 	0.24917 0.63043 0.89983 0.01500
C 	C 	0.56417 0.82893 0.79035 0.11900
C 	C 	0.59097 0.75213 0.79022 0.54600
H 	H 	0.53427 0.88543 0.79293 0.04900
H 	H 	0.59457 0.85063 0.78093 -0.03300
O 	O 	0.58627 0.70943 0.80058 -0.84700
O 	O 	0.62336 0.77493 0.77535 -0.78200
Ti	Ti	0.63171 0.66549 0.79700 3.08300
Ti	Ti	0.68361 0.75380 0.76060 3.09400
O 	O 	0.69867 0.74053 0.79011 -1.13400
O 	O 	0.55787 0.59533 0.79037 -1.17100
O 	O 	0.61941 0.67322 0.76743 -1.61000
O 	O 	0.67587 0.62653 0.79330 -0.85500
O 	O 	0.64318 0.74710 0.73490 -0.83100
C 	C 	0.74947 0.77913 0.80227 0.18200
Ti	Ti	0.54741 0.61114 0.76053 3.08300
C 	C 	0.52097 0.54643 0.80270 0.22400
P 	P 	0.59916 0.69826 0.72163 0.65700
C 	C 	0.78947 0.76243 0.80363 -0.17500
C 	C 	0.74077 0.82433 0.81183 -0.18000
O 	O 	0.55249 0.64915 0.73427 -0.87400
C 	C 	0.52877 0.50073 0.80213 -0.19300
C 	C 	0.48517 0.56043 0.81603 -0.19300
C 	C 	0.56587 0.72913 0.70692 -0.18600
C 	C 	0.55637 0.71973 0.68753 0.12500
C 	C 	0.55807 0.77183 0.71513 0.07200
H 	H 	0.56947 0.69683 0.68083 -0.02800
C 	C 	0.52757 0.74193 0.67593 -0.20200
C 	C 	0.52817 0.79473 0.70473 -0.15400
H 	H 	0.57337 0.78633 0.72833 -0.01400
H 	H 	0.51407 0.72713 0.66253 0.08500
C 	C 	0.51987 0.77903 0.68253 0.09200
H 	H 	0.55077 0.83613 0.70563 0.04900
H 	H 	0.50817 0.79913 0.67343 -0.01500
I 	I 	0.07780 0.96828 0.18659 -0.65100
Cu	Cu	0.06512 0.04520 0.16513 0.72600
N 	N 	0.14143 0.09847 0.15061 -0.25500
C 	C 	0.17643 0.07917 0.14407 0.12500
C 	C 	0.15193 0.14927 0.14416 0.08800
C 	C 	0.94893 0.99857 0.23789 -0.11100
H 	H 	0.17013 0.04287 0.14887 -0.02800
C 	C 	0.22023 0.10957 0.13089 -0.24900
C 	C 	0.19523 0.18237 0.13073 -0.18800
H 	H 	0.12833 0.16387 0.14907 -0.02800
H 	H 	0.91583 0.96377 0.23317 0.02400
C 	C 	0.23083 0.16227 0.12369 0.11900
C 	C 	0.25763 0.08547 0.12356 0.54500
H 	H 	0.20093 0.21877 0.12627 0.05200
H 	H 	0.26123 0.18397 0.11427 -0.03100
O 	O 	0.25293 0.04277 0.13392 -0.83900
O 	O 	0.29002 0.10827 0.10869 -0.78000
Ti	Ti	0.29837 0.99883 0.13033 3.08000
Ti	Ti	0.35027 0.08714 0.09394 3.09400
O 	O 	0.36533 0.07387 0.12345 -1.12900
O 	O 	0.22453 0.92867 0.12371 -1.17800
O 	O 	0.28607 0.00656 0.10077 -1.59700
O 	O 	0.34253 0.95987 0.12664 -0.86200
O 	O 	0.30984 0.08044 0.06824 -0.83100
C 	C 	0.41613 0.11247 0.13561 0.18100
Ti	Ti	0.21407 0.94448 0.09386 3.08200
C 	C 	0.18763 0.87977 0.13604 0.22500
P 	P 	0.26582 0.03160 0.05497 0.67100
C 	C 	0.45613 0.09577 0.13697 -0.16600
C 	C 	0.40743 0.15767 0.14517 -0.17500
O 	O 	0.21915 0.98249 0.06761 -0.89100
C 	C 	0.19543 0.83407 0.13547 -0.19200
C 	C 	0.15183 0.89377 0.14937 -0.19700
C 	C 	0.23253 0.06247 0.04026 -0.18300
C 	C 	0.22303 0.05307 0.02087 0.12700
C 	C 	0.22473 0.10517 0.04847 0.07300
H 	H 	0.23613 0.03017 0.01417 -0.02300
C 	C 	0.19423 0.07527 0.00927 -0.19900
C 	C 	0.19483 0.12807 0.03807 -0.14900
H 	H 	0.24003 0.11967 0.06167 -0.01200
H 	H 	0.18073 0.06047 0.99587 0.09100
C 	C 	0.18653 0.11237 0.01587 0.09300
H 	H 	0.21743 0.16947 0.03897 0.05000
H 	H 	0.17483 0.13247 0.00677 -0.01300
I 	I 	0.55714 0.25553 0.51992 -0.63600
Cu	Cu	0.64674 0.26821 0.49846 0.72000
N 	N 	0.62370 0.19190 0.48394 -0.25600
C 	C 	0.56940 0.15690 0.47740 0.12500
C 	C 	0.66400 0.18140 0.47749 0.08800
C 	C 	0.71630 0.38440 0.57122 -0.05200
H 	H 	0.53940 0.16320 0.48220 -0.03300
C 	C 	0.55600 0.11310 0.46422 -0.25000
C 	C 	0.65380 0.13810 0.46406 -0.18800
H 	H 	0.70220 0.20500 0.48240 -0.02900
H 	H 	0.71460 0.41750 0.56650 0.01400
C 	C 	0.59810 0.10250 0.45702 0.12000
C 	C 	0.49450 0.07570 0.45689 0.54600
H 	H 	0.68450 0.13240 0.45960 0.05400
H 	H 	0.58940 0.07210 0.44760 -0.02800
O 	O 	0.45650 0.08040 0.46725 -0.84200
O 	O 	0.48491 0.04331 0.44202 -0.77400
Ti	Ti	0.36712 0.03496 0.46367 3.08500
Ti	Ti	0.40353 0.98306 0.42727 3.09200
O 	O 	0.37520 0.96800 0.45678 -1.14300
O 	O 	0.37080 0.10880 0.45704 -1.16700
O 	O 	0.38715 0.04726 0.43410 -1.60100
O 	O 	0.28400 0.99080 0.45997 -0.86100
O 	O 	0.43726 0.02349 0.40157 -0.82200
C 	C 	0.36300 0.91720 0.46894 0.18300
Ti	Ti	0.39707 0.11926 0.42720 3.08300
C 	C 	0.35880 0.14570 0.46937 0.22400
P 	P 	0.43244 0.06751 0.38830 0.65700
C 	C 	0.30630 0.87720 0.47030 -0.17500
C 	C 	0.41690 0.92590 0.47850 -0.18500
O 	O 	0.43000 0.11418 0.40094 -0.87300
C 	C 	0.30530 0.13790 0.46880 -0.18800
C 	C 	0.40860 0.18150 0.48270 -0.19100
C 	C 	0.49660 0.10080 0.37359 -0.18500
C 	C 	0.49670 0.11030 0.35420 0.12700
C 	C 	0.54710 0.10860 0.38180 0.07400
H 	H 	0.46070 0.09720 0.34750 -0.02600
C 	C 	0.54770 0.13910 0.34260 -0.20300
C 	C 	0.59990 0.13850 0.37140 -0.15500
H 	H 	0.54630 0.09330 0.39500 -0.01200
H 	H 	0.54640 0.15260 0.32920 0.08600
C 	C 	0.59250 0.14680 0.34920 0.09500
H 	H 	0.61870 0.11590 0.37230 0.05400
H 	H 	0.62430 0.15850 0.34010 -0.01500
I 	I 	0.22381 0.58887 0.85326 -0.63500
Cu	Cu	0.31341 0.60154 0.83180 0.72000
N 	N 	0.29037 0.52523 0.81727 -0.25600
C 	C 	0.23607 0.49023 0.81073 0.12600
C 	C 	0.33067 0.51473 0.81082 0.08800
C 	C 	0.38297 0.71773 0.90455 -0.05100
H 	H 	0.20607 0.49653 0.81553 -0.03300
C 	C 	0.22267 0.44643 0.79755 -0.25200
C 	C 	0.32047 0.47143 0.79739 -0.18900
H 	H 	0.36887 0.53833 0.81573 -0.02900
H 	H 	0.38127 0.75083 0.89983 0.01300
C 	C 	0.26477 0.43583 0.79035 0.12000
C 	C 	0.16117 0.40903 0.79022 0.54600
H 	H 	0.35117 0.46573 0.79293 0.05200
H 	H 	0.25607 0.40543 0.78093 -0.03100
O 	O 	0.12317 0.41373 0.80058 -0.84600
O 	O 	0.15158 0.37664 0.77535 -0.78100
Ti	Ti	0.03379 0.36829 0.79700 3.08400
Ti	Ti	0.07020 0.31639 0.76060 3.09400
O 	O 	0.04187 0.30133 0.79011 -1.13200
O 	O 	0.03747 0.44213 0.79037 -1.17000
O 	O 	0.05382 0.38059 0.76743 -1.60500
O 	O 	0.95067 0.32413 0.79330 -0.86400
O 	O 	0.10393 0.35682 0.73490 -0.82900
C 	C 	0.02967 0.25053 0.80227 0.20800
Ti	Ti	0.06374 0.45259 0.76053 3.08300
C 	C 	0.02547 0.47903 0.80270 0.25200
P 	P 	0.09911 0.40084 0.72163 0.65600
C 	C 	0.97297 0.21053 0.80363 -0.20000
C 	C 	0.08357 0.25923 0.81183 -0.17800
O 	O 	0.09667 0.44751 0.73427 -0.87200
C 	C 	0.97197 0.47123 0.80213 -0.22100
C 	C 	0.07527 0.51483 0.81603 -0.19300
C 	C 	0.16327 0.43413 0.70692 -0.18500
C 	C 	0.16337 0.44363 0.68753 0.12500
C 	C 	0.21377 0.44193 0.71513 0.07200
H 	H 	0.12737 0.43053 0.68083 -0.02600
C 	C 	0.21437 0.47243 0.67593 -0.20100
C 	C 	0.26657 0.47183 0.70473 -0.15400
H 	H 	0.21297 0.42663 0.72833 -0.01300
H 	H 	0.21307 0.48593 0.66253 0.08500
C 	C 	0.25917 0.48013 0.68253 0.09200
H 	H 	0.28537 0.44923 0.70563 0.05100
H 	H 	0.29097 0.49183 0.67343 -0.01500
I 	I 	0.89048 0.92220 0.18659 -0.66300
Cu	Cu	0.98007 0.93488 0.16513 0.70500
N 	N 	0.95703 0.85857 0.15061 -0.25900
C 	C 	0.90273 0.82357 0.14407 0.12700
C 	C 	0.99733 0.84807 0.14416 0.06500
C 	C 	0.04963 0.05107 0.23789 -0.04400
H 	H 	0.87273 0.82987 0.14887 -0.03600
C 	C 	0.88933 0.77977 0.13089 -0.26100
C 	C 	0.98713 0.80477 0.13073 -0.22500
H 	H 	0.03553 0.87167 0.14907 -0.01100
H 	H 	0.04793 0.08417 0.23317 0.01800
C 	C 	0.93143 0.76917 0.12369 0.13600
C 	C 	0.82783 0.74237 0.12356 0.54800
H 	H 	0.01783 0.79907 0.12627 0.07700
H 	H 	0.92273 0.73877 0.11427 -0.04100
O 	O 	0.78983 0.74707 0.13392 -0.84800
O 	O 	0.81824 0.70998 0.10869 -0.78300
Ti	Ti	0.70045 0.70163 0.13033 3.08300
Ti	Ti	0.73686 0.64973 0.09394 3.09400
O 	O 	0.70853 0.63467 0.12345 -1.13400
O 	O 	0.70413 0.77547 0.12371 -1.17200
O 	O 	0.72048 0.71393 0.10077 -1.61100
O 	O 	0.61733 0.65747 0.12664 -0.85400
O 	O 	0.77059 0.69016 0.06824 -0.83100
C 	C 	0.69633 0.58387 0.13561 0.18200
Ti	Ti	0.73040 0.78593 0.09386 3.08300
C 	C 	0.69213 0.81237 0.13604 0.22400
P 	P 	0.76577 0.73418 0.05497 0.65700
C 	C 	0.63963 0.54387 0.13697 -0.17400
C 	C 	0.75023 0.59257 0.14517 -0.17800
O 	O 	0.76333 0.78085 0.06761 -0.87700
C 	C 	0.63863 0.80457 0.13547 -0.19400
C 	C 	0.74193 0.84817 0.14937 -0.19600
C 	C 	0.82993 0.76747 0.04026 -0.19200
C 	C 	0.83003 0.77697 0.02087 0.13100
C 	C 	0.88043 0.77527 0.04847 0.07700
H 	H 	0.79403 0.76387 0.01417 -0.03000
C 	C 	0.88103 0.80577 0.00927 -0.21200
C 	C 	0.93323 0.80517 0.03807 -0.16600
H 	H 	0.87963 0.75997 0.06167 -0.01700
H 	H 	0.87973 0.81927 0.99587 0.08600
C 	C 	0.92583 0.81347 0.01587 0.09900
H 	H 	0.95203 0.78257 0.03897 0.05000
H 	H 	0.95763 0.82517 0.00677 -0.02500
Cu	Cu	0.33333 0.66667 0.96856 0.71000
I 	I 	0.33333 0.66667 0.03584 -0.64300
N 	N 	0.33333 0.66667 0.93647 -0.18200
Cu	Cu	-0.00000 -0.00000 0.30189 0.72600
I 	I 	-0.00000 0.00000 0.36917 -0.59900
N 	N 	0.00000 0.00000 0.26980 -0.15600
Cu	Cu	0.66667 0.33333 0.63523 0.71000
I 	I 	0.66667 0.33333 0.70250 -0.64300
N 	N 	0.66667 0.33333 0.60314 -0.18200
Cu	Cu	0.66667 0.33333 0.53144 0.71000
I 	I 	0.66667 0.33333 0.46416 -0.64300
N 	N 	0.66667 0.33333 0.56353 -0.18200
Cu	Cu	0.33333 0.66667 0.86477 0.71000
I 	I 	0.33333 0.66667 0.79750 -0.64300
N 	N 	0.33333 0.66667 0.89686 -0.18200
Cu	Cu	0.00000 0.00000 0.19811 0.72600
I 	I 	-0.00000 0.00000 0.13083 -0.59900
N 	N 	0.00000 0.00000 0.23020 -0.15600
O 	O 	0.66667 0.60238 0.08333 -1.45900
O 	O 	0.66667 0.78358 0.08333 -1.46500
O 	O 	0.39762 0.06428 0.08333 -1.45300
O 	O 	0.21642 0.88308 0.08333 -1.46400
O 	O 	0.93572 0.33333 0.08333 -1.46500
O 	O 	0.11692 0.33333 0.08333 -1.46100
O 	O 	0.60238 0.66667 0.41667 -1.45900
O 	O 	0.78358 0.66667 0.41667 -1.46500
O 	O 	0.26905 0.00000 0.75000 -1.44600
O 	O 	0.45025 0.00000 0.75000 -1.45000
O 	O 	0.06428 0.39762 0.41667 -1.45300
O 	O 	0.88308 0.21642 0.41667 -1.46400
O 	O 	0.73095 0.73095 0.75000 -1.46000
O 	O 	0.54975 0.54975 0.75000 -1.46300
O 	O 	0.33333 0.93572 0.41667 -1.46500
O 	O 	0.33333 0.11692 0.41667 -1.46100
O 	O 	0.00000 0.26905 0.75000 -1.44600
O 	O 	0.00000 0.45025 0.75000 -1.45000
I 	I 	0.55714 0.30161 0.01992 -0.63800
Cu	Cu	0.64674 0.37853 0.99847 0.72000
N 	N 	0.62370 0.43180 0.98394 -0.25600
C 	C 	0.56940 0.41250 0.97740 0.12600
C 	C 	0.66400 0.48260 0.97749 0.08800
C 	C 	0.71630 0.33190 0.07122 -0.05200
H 	H 	0.53940 0.37620 0.98220 -0.03400
C 	C 	0.55600 0.44290 0.96422 -0.25300
C 	C 	0.65380 0.51570 0.96406 -0.19000
H 	H 	0.70220 0.49720 0.98240 -0.02900
H 	H 	0.71460 0.29710 0.06650 0.01400
C 	C 	0.59810 0.49560 0.95702 0.12000
C 	C 	0.49450 0.41880 0.95689 0.54600
H 	H 	0.68450 0.55210 0.95960 0.05200
H 	H 	0.58940 0.51730 0.94760 -0.03100
O 	O 	0.45650 0.37610 0.96725 -0.84700
O 	O 	0.48491 0.44160 0.94202 -0.78100
Ti	Ti	0.36712 0.33216 0.96367 3.08300
Ti	Ti	0.40353 0.42047 0.92727 3.09400
O 	O 	0.37520 0.40720 0.95678 -1.13400
O 	O 	0.37080 0.26200 0.95704 -1.17100
O 	O 	0.38715 0.33989 0.93410 -1.61000
O 	O 	0.28400 0.29320 0.95997 -0.85400
O 	O 	0.43726 0.41377 0.90157 -0.83000
C 	C 	0.36300 0.44580 0.96894 0.18200
Ti	Ti	0.39707 0.27781 0.92720 3.08300
C 	C 	0.35880 0.21310 0.96937 0.22400
P 	P 	0.43244 0.36493 0.88830 0.65600
C 	C 	0.30630 0.42910 0.97030 -0.17300
C 	C 	0.41690 0.49100 0.97850 -0.17700
O 	O 	0.43000 0.31582 0.90094 -0.87400
C 	C 	0.30530 0.16740 0.96880 -0.18900
C 	C 	0.40860 0.22710 0.98270 -0.19200
C 	C 	0.49660 0.39580 0.87359 -0.18600
C 	C 	0.49670 0.38640 0.85420 0.12600
C 	C 	0.54710 0.43850 0.88180 0.07300
H 	H 	0.46070 0.36350 0.84750 -0.02800
C 	C 	0.54770 0.40860 0.84260 -0.20300
C 	C 	0.59990 0.46140 0.87140 -0.15400
H 	H 	0.54630 0.45300 0.89500 -0.01300
H 	H 	0.54640 0.39380 0.82920 0.08600
C 	C 	0.59250 0.44570 0.84920 0.09300
H 	H 	0.61870 0.50280 0.87230 0.05100
H 	H 	0.62430 0.46580 0.84010 -0.01500
I 	I 	0.22381 0.63494 0.35326 -0.63500
Cu	Cu	0.31341 0.71186 0.33180 0.72000
N 	N 	0.29037 0.76513 0.31727 -0.25600
C 	C 	0.23607 0.74583 0.31073 0.12500
C 	C 	0.33067 0.81593 0.31082 0.08700
C 	C 	0.38297 0.66523 0.40455 -0.05200
H 	H 	0.20607 0.70953 0.31553 -0.03300
C 	C 	0.22267 0.77623 0.29755 -0.25200
C 	C 	0.32047 0.84903 0.29739 -0.19000
H 	H 	0.36887 0.83053 0.31573 -0.03000
H 	H 	0.38127 0.63043 0.39983 0.01400
C 	C 	0.26477 0.82893 0.29035 0.11900
C 	C 	0.16117 0.75213 0.29022 0.54600
H 	H 	0.35117 0.88543 0.29293 0.04900
H 	H 	0.25607 0.85063 0.28093 -0.03300
O 	O 	0.12317 0.70943 0.30058 -0.84600
O 	O 	0.15158 0.77493 0.27535 -0.78200
Ti	Ti	0.03379 0.66549 0.29700 3.08400
Ti	Ti	0.07020 0.75380 0.26060 3.09400
O 	O 	0.04187 0.74053 0.29011 -1.13200
O 	O 	0.03747 0.59533 0.29037 -1.16900
O 	O 	0.05382 0.67322 0.26743 -1.60500
O 	O 	0.95067 0.62653 0.29330 -0.86400
O 	O 	0.10393 0.74710 0.23490 -0.83000
C 	C 	0.02967 0.77913 0.30227 0.20900
Ti	Ti	0.06374 0.61114 0.26053 3.08300
C 	C 	0.02547 0.54643 0.30270 0.25200
P 	P 	0.09911 0.69826 0.22163 0.65600
C 	C 	0.97297 0.76243 0.30363 -0.20200
C 	C 	0.08357 0.82433 0.31183 -0.18100
O 	O 	0.09667 0.64915 0.23427 -0.87200
C 	C 	0.97197 0.50073 0.30213 -0.22100
C 	C 	0.07527 0.56043 0.31603 -0.19300
C 	C 	0.16327 0.72913 0.20692 -0.18500
C 	C 	0.16337 0.71973 0.18753 0.12400
C 	C 	0.21377 0.77183 0.21513 0.07100
H 	H 	0.12737 0.69683 0.18083 -0.02500
C 	C 	0.21437 0.74193 0.17593 -0.20000
C 	C 	0.26657 0.79473 0.20473 -0.15300
H 	H 	0.21297 0.78633 0.22833 -0.01400
H 	H 	0.21307 0.72713 0.16253 0.08500
C 	C 	0.25917 0.77903 0.18253 0.09000
H 	H 	0.28537 0.83613 0.20563 0.04900
H 	H 	0.29097 0.79913 0.17343 -0.01400
I 	I 	0.89048 0.96828 0.68659 -0.67100
Cu	Cu	0.98007 0.04520 0.66513 0.71500
N 	N 	0.95703 0.09847 0.65061 -0.25600
C 	C 	0.90273 0.07917 0.64407 0.12700
C 	C 	0.99733 0.14927 0.64416 0.06700
C 	C 	0.04963 0.99857 0.73789 -0.09200
H 	H 	0.87273 0.04287 0.64887 -0.03000
C 	C 	0.88933 0.10957 0.63089 -0.25800
C 	C 	0.98713 0.18237 0.63073 -0.22300
H 	H 	0.03553 0.16387 0.64907 -0.01000
H 	H 	0.04793 0.96377 0.73317 0.02600
C 	C 	0.93143 0.16227 0.62369 0.13500
C 	C 	0.82783 0.08547 0.62356 0.54700
H 	H 	0.01783 0.21877 0.62627 0.07700
H 	H 	0.92273 0.18397 0.61427 -0.04000
O 	O 	0.78983 0.04277 0.63392 -0.84000
O 	O 	0.81824 0.10827 0.60869 -0.78100
Ti	Ti	0.70045 0.99883 0.63033 3.08000
Ti	Ti	0.73686 0.08714 0.59394 3.09400
O 	O 	0.70853 0.07387 0.62345 -1.12900
O 	O 	0.70413 0.92867 0.62371 -1.17800
O 	O 	0.72048 0.00656 0.60077 -1.59700
O 	O 	0.61733 0.95987 0.62664 -0.86200
O 	O 	0.77059 0.08044 0.56824 -0.83200
C 	C 	0.69633 0.11247 0.63561 0.18100
Ti	Ti	0.73040 0.94448 0.59386 3.08200
C 	C 	0.69213 0.87977 0.63604 0.22500
P 	P 	0.76577 0.03160 0.55497 0.67200
C 	C 	0.63963 0.09577 0.63697 -0.16600
C 	C 	0.75023 0.15767 0.64517 -0.17600
O 	O 	0.76333 0.98249 0.56761 -0.89400
C 	C 	0.63863 0.83407 0.63547 -0.19400
C 	C 	0.74193 0.89377 0.64937 -0.19900
C 	C 	0.82993 0.06247 0.54026 -0.18800
C 	C 	0.83003 0.05307 0.52087 0.13200
C 	C 	0.88043 0.10517 0.54847 0.07600
H 	H 	0.79403 0.03017 0.51417 -0.02500
C 	C 	0.88103 0.07527 0.50927 -0.20800
C 	C 	0.93323 0.12807 0.53807 -0.15900
H 	H 	0.87963 0.11967 0.56167 -0.01500
H 	H 	0.87973 0.06047 0.49587 0.09100
C 	C 	0.92583 0.11237 0.51587 0.09800
H 	H 	0.95203 0.16947 0.53897 0.04800
H 	H 	0.95763 0.13247 0.50677 -0.02200
I 	I 	0.69839 0.25553 0.01992 -0.63600
Cu	Cu	0.62147 0.26821 0.99847 0.72000
N 	N 	0.56820 0.19190 0.98394 -0.25600
C 	C 	0.58750 0.15690 0.97740 0.12500
C 	C 	0.51740 0.18140 0.97749 0.08800
C 	C 	0.66810 0.38440 0.07122 -0.05100
H 	H 	0.62380 0.16320 0.98220 -0.03300
C 	C 	0.55710 0.11310 0.96422 -0.25000
C 	C 	0.48430 0.13810 0.96406 -0.18800
H 	H 	0.50280 0.20500 0.98240 -0.02900
H 	H 	0.70290 0.41750 0.06650 0.01300
C 	C 	0.50440 0.10250 0.95702 0.12000
C 	C 	0.58120 0.07570 0.95689 0.54600
H 	H 	0.44790 0.13240 0.95960 0.05400
H 	H 	0.48270 0.07210 0.94760 -0.02800
O 	O 	0.62390 0.08040 0.96725 -0.84200
O 	O 	0.55840 0.04331 0.94202 -0.77400
Ti	Ti	0.66784 0.03496 0.96367 3.08500
Ti	Ti	0.57953 0.98306 0.92727 3.09200
O 	O 	0.59280 0.96800 0.95678 -1.14400
O 	O 	0.73800 0.10880 0.95704 -1.16800
O 	O 	0.66011 0.04726 0.93410 -1.60100
O 	O 	0.70680 0.99080 0.95997 -0.86100
O 	O 	0.58623 0.02349 0.90157 -0.82200
C 	C 	0.55420 0.91720 0.96894 0.18300
Ti	Ti	0.72219 0.11926 0.92720 3.08300
C 	C 	0.78690 0.14570 0.96937 0.22400
P 	P 	0.63507 0.06751 0.88830 0.65600
C 	C 	0.57090 0.87720 0.97030 -0.17600
C 	C 	0.50900 0.92590 0.97850 -0.18500
O 	O 	0.68418 0.11418 0.90094 -0.87300
C 	C 	0.83260 0.13790 0.96880 -0.19200
C 	C 	0.77290 0.18150 0.98270 -0.19200
C 	C 	0.60420 0.10080 0.87359 -0.18500
C 	C 	0.61360 0.11030 0.85420 0.12700
C 	C 	0.56150 0.10860 0.88180 0.07400
H 	H 	0.63650 0.09720 0.84750 -0.02600
C 	C 	0.59140 0.13910 0.84260 -0.20300
C 	C 	0.53860 0.13850 0.87140 -0.15500
H 	H 	0.54700 0.09330 0.89500 -0.01200
H 	H 	0.60620 0.15260 0.82920 0.08600
C 	C 	0.55430 0.14680 0.84920 0.09500
H 	H 	0.49720 0.11590 0.87230 0.05400
H 	H 	0.53420 0.15850 0.84010 -0.01500
I 	I 	0.36506 0.58887 0.35326 -0.63800
Cu	Cu	0.28814 0.60154 0.33180 0.72000
N 	N 	0.23487 0.52523 0.31727 -0.25600
C 	C 	0.25417 0.49023 0.31073 0.12600
C 	C 	0.18407 0.51473 0.31082 0.08800
C 	C 	0.33477 0.71773 0.40455 -0.05000
H 	H 	0.29047 0.49653 0.31553 -0.03400
C 	C 	0.22377 0.44643 0.29755 -0.25200
C 	C 	0.15097 0.47143 0.29739 -0.18900
H 	H 	0.16947 0.53833 0.31573 -0.02800
H 	H 	0.36957 0.75083 0.39983 0.01300
C 	C 	0.17107 0.43583 0.29035 0.12100
C 	C 	0.24787 0.40903 0.29022 0.54600
H 	H 	0.11457 0.46573 0.29293 0.05500
H 	H 	0.14937 0.40543 0.28093 -0.02900
O 	O 	0.29057 0.41373 0.30058 -0.84700
O 	O 	0.22507 0.37664 0.27535 -0.78000
Ti	Ti	0.33451 0.36829 0.29700 3.08300
Ti	Ti	0.24620 0.31639 0.26060 3.09400
O 	O 	0.25947 0.30133 0.29011 -1.13300
O 	O 	0.40467 0.44213 0.29037 -1.17100
O 	O 	0.32678 0.38059 0.26743 -1.61000
O 	O 	0.37347 0.32413 0.29330 -0.85500
O 	O 	0.25290 0.35682 0.23490 -0.83000
C 	C 	0.22087 0.25053 0.30227 0.18100
Ti	Ti	0.38886 0.45259 0.26053 3.08300
C 	C 	0.45357 0.47903 0.30270 0.22400
P 	P 	0.30174 0.40084 0.22163 0.65700
C 	C 	0.23757 0.21053 0.30363 -0.17200
C 	C 	0.17567 0.25923 0.31183 -0.17400
O 	O 	0.35085 0.44751 0.23427 -0.87400
C 	C 	0.49927 0.47123 0.30213 -0.19300
C 	C 	0.43957 0.51483 0.31603 -0.19300
C 	C 	0.27087 0.43413 0.20692 -0.18700
C 	C 	0.28027 0.44363 0.18753 0.12700
C 	C 	0.22817 0.44193 0.21513 0.07400
H 	H 	0.30317 0.43053 0.18083 -0.02800
C 	C 	0.25807 0.47243 0.17593 -0.20400
C 	C 	0.20527 0.47183 0.20473 -0.15500
H 	H 	0.21367 0.42663 0.22833 -0.01300
H 	H 	0.27287 0.48593 0.16253 0.08600
C 	C 	0.22097 0.48013 0.18253 0.09500
H 	H 	0.16387 0.44923 0.20563 0.05400
H 	H 	0.20087 0.49183 0.17343 -0.01500
I 	I 	0.03172 0.92220 0.68659 -0.63400
Cu	Cu	0.95480 0.93488 0.66513 0.70600
N 	N 	0.90153 0.85857 0.65061 -0.26000
C 	C 	0.92083 0.82357 0.64407 0.12400
C 	C 	0.85073 0.84807 0.64416 0.08500
C 	C 	0.00143 0.05107 0.73789 -0.01500
H 	H 	0.95713 0.82987 0.64887 -0.04100
C 	C 	0.89043 0.77977 0.63089 -0.25600
C 	C 	0.81763 0.80477 0.63073 -0.19100
H 	H 	0.83613 0.87167 0.64907 -0.03100
H 	H 	0.03623 0.08417 0.73317 0.00800
C 	C 	0.83773 0.76917 0.62369 0.12000
C 	C 	0.91453 0.74237 0.62356 0.54600
H 	H 	0.78123 0.79907 0.62627 0.05200
H 	H 	0.81603 0.73877 0.61427 -0.03200
O 	O 	0.95723 0.74707 0.63392 -0.85500
O 	O 	0.89173 0.70998 0.60869 -0.78300
Ti	Ti	0.00117 0.70163 0.63033 3.08500
Ti	Ti	0.91286 0.64973 0.59394 3.09400
O 	O 	0.92613 0.63467 0.62345 -1.13900
O 	O 	0.07133 0.77547 0.62371 -1.16400
O 	O 	0.99344 0.71393 0.60077 -1.62400
O 	O 	0.04013 0.65747 0.62664 -0.84600
O 	O 	0.91956 0.69016 0.56824 -0.83000
C 	C 	0.88753 0.58387 0.63561 0.18300
Ti	Ti	0.05552 0.78593 0.59386 3.08400
C 	C 	0.12023 0.81237 0.63604 0.22300
P 	P 	0.96840 0.73418 0.55497 0.64200
C 	C 	0.90423 0.54387 0.63697 -0.18200
C 	C 	0.84233 0.59257 0.64517 -0.17800
O 	O 	0.01751 0.78085 0.56761 -0.85700
C 	C 	0.16593 0.80457 0.63547 -0.19300
C 	C 	0.10623 0.84817 0.64937 -0.18900
C 	C 	0.93753 0.76747 0.54026 -0.19000
C 	C 	0.94693 0.77697 0.52087 0.12500
C 	C 	0.89483 0.77527 0.54847 0.07400
H 	H 	0.96983 0.76387 0.51417 -0.03200
C 	C 	0.92473 0.80577 0.50927 -0.20700
C 	C 	0.87193 0.80517 0.53807 -0.16200
H 	H 	0.88033 0.75997 0.56167 -0.01600
H 	H 	0.93953 0.81927 0.49587 0.08100
C 	C 	0.88763 0.81347 0.51587 0.09400
H 	H 	0.83053 0.78257 0.53897 0.05300
H 	H 	0.86753 0.82517 0.50677 -0.01800
I 	I 	0.74447 0.44286 0.01992 -0.64000
Cu	Cu	0.73179 0.35326 0.99847 0.72000
N 	N 	0.80810 0.37630 0.98394 -0.25700
C 	C 	0.84310 0.43060 0.97740 0.12600
C 	C 	0.81860 0.33600 0.97749 0.08800
C 	C 	0.61560 0.28370 0.07122 -0.05000
H 	H 	0.83680 0.46060 0.98220 -0.03500
C 	C 	0.88690 0.44400 0.96422 -0.25500
C 	C 	0.86190 0.34620 0.96406 -0.19100
H 	H 	0.79500 0.29780 0.98240 -0.02900
H 	H 	0.58250 0.28540 0.06650 0.01400
C 	C 	0.89750 0.40190 0.95702 0.12000
C 	C 	0.92430 0.50550 0.95689 0.54700
H 	H 	0.86760 0.31550 0.95960 0.05100
H 	H 	0.92790 0.41060 0.94760 -0.03500
O 	O 	0.91960 0.54350 0.96725 -0.85300
O 	O 	0.95669 0.51509 0.94202 -0.78800
Ti	Ti	0.96504 0.63288 0.96367 3.08100
Ti	Ti	0.01694 0.59647 0.92727 3.09700
O 	O 	0.03200 0.62480 0.95678 -1.12400
O 	O 	0.89120 0.62920 0.95704 -1.17400
O 	O 	0.95274 0.61285 0.93410 -1.61900
O 	O 	0.00920 0.71600 0.95997 -0.84700
O 	O 	0.97651 0.56274 0.90157 -0.83900
C 	C 	0.08280 0.63700 0.96894 0.18100
Ti	Ti	0.88074 0.60293 0.92720 3.08300
C 	C 	0.85430 0.64120 0.96937 0.22500
P 	P 	0.93249 0.56756 0.88830 0.65600
C 	C 	0.12280 0.69370 0.97030 -0.17300
C 	C 	0.07410 0.58310 0.97850 -0.16800
O 	O 	0.88582 0.57000 0.90094 -0.87400
C 	C 	0.86210 0.69470 0.96880 -0.19800
C 	C 	0.81850 0.59140 0.98270 -0.19500
C 	C 	0.89920 0.50340 0.87359 -0.18700
C 	C 	0.88970 0.50330 0.85420 0.12500
C 	C 	0.89140 0.45290 0.88180 0.07200
H 	H 	0.90280 0.53930 0.84750 -0.02900
C 	C 	0.86090 0.45230 0.84260 -0.20300
C 	C 	0.86150 0.40010 0.87140 -0.15400
H 	H 	0.90670 0.45370 0.89500 -0.01500
H 	H 	0.84740 0.45360 0.82920 0.08500
C 	C 	0.85320 0.40750 0.84920 0.09200
H 	H 	0.88410 0.38130 0.87230 0.04900
H 	H 	0.84150 0.37570 0.84010 -0.01500
I 	I 	0.41113 0.77619 0.35326 -0.64100
Cu	Cu	0.39846 0.68659 0.33180 0.72000
N 	N 	0.47477 0.70963 0.31727 -0.25700
C 	C 	0.50977 0.76393 0.31073 0.12600
C 	C 	0.48527 0.66933 0.31082 0.08800
C 	C 	0.28227 0.61703 0.40455 -0.05100
H 	H 	0.50347 0.79393 0.31553 -0.03400
C 	C 	0.55357 0.77733 0.29755 -0.25400
C 	C 	0.52857 0.67953 0.29739 -0.19000
H 	H 	0.46167 0.63113 0.31573 -0.02900
H 	H 	0.24917 0.61873 0.39983 0.01500
C 	C 	0.56417 0.73523 0.29035 0.12000
C 	C 	0.59097 0.83883 0.29022 0.54700
H 	H 	0.53427 0.64883 0.29293 0.05200
H 	H 	0.59457 0.74393 0.28093 -0.03200
O 	O 	0.58627 0.87683 0.30058 -0.84900
O 	O 	0.62336 0.84842 0.27535 -0.78200
Ti	Ti	0.63171 0.96621 0.29700 3.08200
Ti	Ti	0.68361 0.92980 0.26060 3.09300
O 	O 	0.69867 0.95813 0.29011 -1.13800
O 	O 	0.55787 0.96253 0.29037 -1.17400
O 	O 	0.61941 0.94618 0.26743 -1.61800
O 	O 	0.67587 0.04933 0.29330 -0.84600
O 	O 	0.64318 0.89607 0.23490 -0.83400
C 	C 	0.74947 0.97033 0.30227 0.15500
Ti	Ti	0.54741 0.93626 0.26053 3.08200
C 	C 	0.52097 0.97453 0.30270 0.19700
P 	P 	0.59916 0.90089 0.22163 0.65700
C 	C 	0.78947 0.02703 0.30363 -0.14800
C 	C 	0.74077 0.91643 0.31183 -0.17500
O 	O 	0.55249 0.90333 0.23427 -0.87800
C 	C 	0.52877 0.02803 0.30213 -0.16600
C 	C 	0.48517 0.92473 0.31603 -0.19300
C 	C 	0.56587 0.83673 0.20692 -0.18800
C 	C 	0.55637 0.83663 0.18753 0.12800
C 	C 	0.55807 0.78623 0.21513 0.07400
H 	H 	0.56947 0.87263 0.18083 -0.03000
C 	C 	0.52757 0.78563 0.17593 -0.20500
C 	C 	0.52817 0.73343 0.20473 -0.15600
H 	H 	0.57337 0.78703 0.22833 -0.01400
H 	H 	0.51407 0.78693 0.16253 0.08600
C 	C 	0.51987 0.74083 0.18253 0.09500
H 	H 	0.55077 0.71463 0.20563 0.05200
H 	H 	0.50817 0.70903 0.17343 -0.01600
I 	I 	0.07780 0.10952 0.68659 -0.62400
Cu	Cu	0.06512 0.01993 0.66513 0.72700
N 	N 	0.14143 0.04297 0.65061 -0.25700
C 	C 	0.17643 0.09727 0.64407 0.12200
C 	C 	0.15193 0.00267 0.64416 0.10800
C 	C 	0.94893 0.95037 0.73789 -0.08100
H 	H 	0.17013 0.12727 0.64887 -0.03200
C 	C 	0.22023 0.11067 0.63089 -0.24500
C 	C 	0.19523 0.01287 0.63073 -0.15500
H 	H 	0.12833 0.96447 0.64907 -0.04700
H 	H 	0.91583 0.95207 0.73317 0.01400
C 	C 	0.23083 0.06857 0.62369 0.10400
C 	C 	0.25763 0.17217 0.62356 0.54400
H 	H 	0.20093 0.98217 0.62627 0.02800
H 	H 	0.26123 0.07727 0.61427 -0.02200
O 	O 	0.25293 0.21017 0.63392 -0.84600
O 	O 	0.29002 0.18176 0.60869 -0.77900
Ti	Ti	0.29837 0.29955 0.63033 3.08300
Ti	Ti	0.35027 0.26314 0.59394 3.09400
O 	O 	0.36533 0.29147 0.62345 -1.13400
O 	O 	0.22453 0.29587 0.62371 -1.17000
O 	O 	0.28607 0.27952 0.60077 -1.61000
O 	O 	0.34253 0.38267 0.62664 -0.85400
O 	O 	0.30984 0.22941 0.56824 -0.83000
C 	C 	0.41613 0.30367 0.63561 0.18200
Ti	Ti	0.21407 0.26960 0.59386 3.08300
C 	C 	0.18763 0.30787 0.63604 0.22400
P 	P 	0.26582 0.23423 0.55497 0.65600
C 	C 	0.45613 0.36037 0.63697 -0.17400
C 	C 	0.40743 0.24977 0.64517 -0.17500
O 	O 	0.21915 0.23667 0.56761 -0.87200
C 	C 	0.19543 0.36137 0.63547 -0.19100
C 	C 	0.15183 0.25807 0.64937 -0.19100
C 	C 	0.23253 0.17007 0.54026 -0.18200
C 	C 	0.22303 0.16997 0.52087 0.12200
C 	C 	0.22473 0.11957 0.54847 0.06900
H 	H 	0.23613 0.20597 0.51417 -0.02600
C 	C 	0.19423 0.11897 0.50927 -0.19500
C 	C 	0.19483 0.06677 0.53807 -0.14400
H 	H 	0.24003 0.12037 0.56167 -0.01000
H 	H 	0.18073 0.12027 0.49587 0.08600
C 	C 	0.18653 0.07417 0.51587 0.08800
H 	H 	0.21743 0.04797 0.53897 0.05400
H 	H 	0.17483 0.04237 0.50677 -0.00600
I 	I 	0.30161 0.55714 0.48008 -0.63800
Cu	Cu	0.37853 0.64674 0.50154 0.72000
N 	N 	0.43180 0.62370 0.51606 -0.25600
C 	C 	0.41250 0.56940 0.52260 0.12600
C 	C 	0.48260 0.66400 0.52251 0.08800
C 	C 	0.33190 0.71630 0.42878 -0.05200
H 	H 	0.37620 0.53940 0.51780 -0.03400
C 	C 	0.44290 0.55600 0.53578 -0.25300
C 	C 	0.51570 0.65380 0.53594 -0.19000
H 	H 	0.49720 0.70220 0.51760 -0.02900
H 	H 	0.29710 0.71460 0.43350 0.01400
C 	C 	0.49560 0.59810 0.54298 0.12000
C 	C 	0.41880 0.49450 0.54311 0.54600
H 	H 	0.55210 0.68450 0.54040 0.05200
H 	H 	0.51730 0.58940 0.55240 -0.03100
O 	O 	0.37610 0.45650 0.53275 -0.84700
O 	O 	0.44160 0.48491 0.55798 -0.78100
Ti	Ti	0.33216 0.36712 0.53633 3.08300
Ti	Ti	0.42047 0.40353 0.57273 3.09400
O 	O 	0.40720 0.37520 0.54322 -1.13400
O 	O 	0.26200 0.37080 0.54296 -1.17100
O 	O 	0.33989 0.38715 0.56590 -1.61000
O 	O 	0.29320 0.28400 0.54003 -0.85400
O 	O 	0.41377 0.43726 0.59843 -0.83000
C 	C 	0.44580 0.36300 0.53106 0.18200
Ti	Ti	0.27781 0.39707 0.57280 3.08300
C 	C 	0.21310 0.35880 0.53063 0.22400
P 	P 	0.36493 0.43244 0.61170 0.65600
C 	C 	0.42910 0.30630 0.52970 -0.17300
C 	C 	0.49100 0.41690 0.52150 -0.17700
O 	O 	0.31582 0.43000 0.59906 -0.87400
C 	C 	0.16740 0.30530 0.53120 -0.18900
C 	C 	0.22710 0.40860 0.51730 -0.19200
C 	C 	0.39580 0.49660 0.62641 -0.18600
C 	C 	0.38640 0.49670 0.64580 0.12600
C 	C 	0.43850 0.54710 0.61820 0.07300
H 	H 	0.36350 0.46070 0.65250 -0.02800
C 	C 	0.40860 0.54770 0.65740 -0.20300
C 	C 	0.46140 0.59990 0.62860 -0.15400
H 	H 	0.45300 0.54630 0.60500 -0.01300
H 	H 	0.39380 0.54640 0.67080 0.08600
C 	C 	0.44570 0.59250 0.65080 0.09300
H 	H 	0.50280 0.61870 0.62770 0.05100
H 	H 	0.46580 0.62430 0.65990 -0.01500
I 	I 	0.96828 0.89048 0.81341 -0.67100
Cu	Cu	0.04520 0.98007 0.83487 0.71500
N 	N 	0.09847 0.95703 0.84939 -0.25600
C 	C 	0.07917 0.90273 0.85593 0.12700
C 	C 	0.14927 0.99733 0.85584 0.06700
C 	C 	0.99857 0.04963 0.76211 -0.09200
H 	H 	0.04287 0.87273 0.85113 -0.03000
C 	C 	0.10957 0.88933 0.86911 -0.25800
C 	C 	0.18237 0.98713 0.86927 -0.22300
H 	H 	0.16387 0.03553 0.85093 -0.01000
H 	H 	0.96377 0.04793 0.76683 0.02600
C 	C 	0.16227 0.93143 0.87631 0.13500
C 	C 	0.08547 0.82783 0.87644 0.54700
H 	H 	0.21877 0.01783 0.87373 0.07700
H 	H 	0.18397 0.92273 0.88573 -0.04000
O 	O 	0.04277 0.78983 0.86608 -0.84000
O 	O 	0.10827 0.81824 0.89131 -0.78100
Ti	Ti	0.99883 0.70045 0.86967 3.08000
Ti	Ti	0.08714 0.73686 0.90606 3.09400
O 	O 	0.07387 0.70853 0.87655 -1.12900
O 	O 	0.92867 0.70413 0.87629 -1.17800
O 	O 	0.00656 0.72048 0.89923 -1.59700
O 	O 	0.95987 0.61733 0.87336 -0.86200
O 	O 	0.08044 0.77059 0.93176 -0.83200
C 	C 	0.11247 0.69633 0.86439 0.18100
Ti	Ti	0.94448 0.73040 0.90614 3.08200
C 	C 	0.87977 0.69213 0.86396 0.22500
P 	P 	0.03160 0.76577 0.94503 0.67200
C 	C 	0.09577 0.63963 0.86303 -0.16600
C 	C 	0.15767 0.75023 0.85483 -0.17600
O 	O 	0.98249 0.76333 0.93239 -0.89400
C 	C 	0.83407 0.63863 0.86453 -0.19400
C 	C 	0.89377 0.74193 0.85063 -0.19900
C 	C 	0.06247 0.82993 0.95974 -0.18800
C 	C 	0.05307 0.83003 0.97913 0.13200
C 	C 	0.10517 0.88043 0.95153 0.07600
H 	H 	0.03017 0.79403 0.98583 -0.02500
C 	C 	0.07527 0.88103 0.99073 -0.20800
C 	C 	0.12807 0.93323 0.96193 -0.15900
H 	H 	0.11967 0.87963 0.93833 -0.01500
H 	H 	0.06047 0.87973 0.00413 0.09100
C 	C 	0.11237 0.92583 0.98413 0.09800
H 	H 	0.16947 0.95203 0.96103 0.04800
H 	H 	0.13247 0.95763 0.99323 -0.02200
I 	I 	0.63494 0.22381 0.14674 -0.63500
Cu	Cu	0.71186 0.31341 0.16820 0.72000
N 	N 	0.76513 0.29037 0.18273 -0.25600
C 	C 	0.74583 0.23607 0.18927 0.12500
C 	C 	0.81593 0.33067 0.18918 0.08700
C 	C 	0.66523 0.38297 0.09545 -0.05200
H 	H 	0.70953 0.20607 0.18447 -0.03300
C 	C 	0.77623 0.22267 0.20245 -0.25200
C 	C 	0.84903 0.32047 0.20261 -0.19000
H 	H 	0.83053 0.36887 0.18427 -0.03000
H 	H 	0.63043 0.38127 0.10017 0.01400
C 	C 	0.82893 0.26477 0.20965 0.11900
C 	C 	0.75213 0.16117 0.20978 0.54600
H 	H 	0.88543 0.35117 0.20707 0.04900
H 	H 	0.85063 0.25607 0.21907 -0.03300
O 	O 	0.70943 0.12317 0.19942 -0.84600
O 	O 	0.77493 0.15158 0.22465 -0.78200
Ti	Ti	0.66549 0.03379 0.20300 3.08400
Ti	Ti	0.75380 0.07020 0.23940 3.09400
O 	O 	0.74053 0.04187 0.20989 -1.13200
O 	O 	0.59533 0.03747 0.20963 -1.16900
O 	O 	0.67322 0.05382 0.23257 -1.60500
O 	O 	0.62653 0.95067 0.20670 -0.86400
O 	O 	0.74710 0.10393 0.26510 -0.83000
C 	C 	0.77913 0.02967 0.19773 0.20900
Ti	Ti	0.61114 0.06374 0.23947 3.08300
C 	C 	0.54643 0.02547 0.19730 0.25200
P 	P 	0.69826 0.09911 0.27837 0.65600
C 	C 	0.76243 0.97297 0.19637 -0.20200
C 	C 	0.82433 0.08357 0.18817 -0.18100
O 	O 	0.64915 0.09667 0.26573 -0.87200
C 	C 	0.50073 0.97197 0.19787 -0.22100
C 	C 	0.56043 0.07527 0.18397 -0.19300
C 	C 	0.72913 0.16327 0.29308 -0.18500
C 	C 	0.71973 0.16337 0.31247 0.12400
C 	C 	0.77183 0.21377 0.28487 0.07100
H 	H 	0.69683 0.12737 0.31917 -0.02500
C 	C 	0.74193 0.21437 0.32407 -0.20000
C 	C 	0.79473 0.26657 0.29527 -0.15300
H 	H 	0.78633 0.21297 0.27167 -0.01400
H 	H 	0.72713 0.21307 0.33747 0.08500
C 	C 	0.77903 0.25917 0.31747 0.09000
H 	H 	0.83613 0.28537 0.29437 0.04900
H 	H 	0.79913 0.29097 0.32657 -0.01400
I 	I 	0.25553 0.69839 0.48008 -0.63600
Cu	Cu	0.26821 0.62147 0.50154 0.72000
N 	N 	0.19190 0.56820 0.51606 -0.25600
C 	C 	0.15690 0.58750 0.52260 0.12500
C 	C 	0.18140 0.51740 0.52251 0.08800
C 	C 	0.38440 0.66810 0.42878 -0.05100
H 	H 	0.16320 0.62380 0.51780 -0.03300
C 	C 	0.11310 0.55710 0.53578 -0.25000
C 	C 	0.13810 0.48430 0.53594 -0.18800
H 	H 	0.20500 0.50280 0.51760 -0.02900
H 	H 	0.41750 0.70290 0.43350 0.01300
C 	C 	0.10250 0.50440 0.54298 0.12000
C 	C 	0.07570 0.58120 0.54311 0.54600
H 	H 	0.13240 0.44790 0.54040 0.05400
H 	H 	0.07210 0.48270 0.55240 -0.02800
O 	O 	0.08040 0.62390 0.53275 -0.84200
O 	O 	0.04331 0.55840 0.55798 -0.77400
Ti	Ti	0.03496 0.66784 0.53633 3.08500
Ti	Ti	0.98306 0.57953 0.57273 3.09200
O 	O 	0.96800 0.59280 0.54322 -1.14400
O 	O 	0.10880 0.73800 0.54296 -1.16800
O 	O 	0.04726 0.66011 0.56590 -1.60100
O 	O 	0.99080 0.70680 0.54003 -0.86100
O 	O 	0.02349 0.58623 0.59843 -0.82200
C 	C 	0.91720 0.55420 0.53106 0.18300
Ti	Ti	0.11926 0.72219 0.57280 3.08300
C 	C 	0.14570 0.78690 0.53063 0.22400
P 	P 	0.06751 0.63507 0.61170 0.65600
C 	C 	0.87720 0.57090 0.52970 -0.17600
C 	C 	0.92590 0.50900 0.52150 -0.18500
O 	O 	0.11418 0.68418 0.59906 -0.87300
C 	C 	0.13790 0.83260 0.53120 -0.19200
C 	C 	0.18150 0.77290 0.51730 -0.19200
C 	C 	0.10080 0.60420 0.62641 -0.18500
C 	C 	0.11030 0.61360 0.64580 0.12700
C 	C 	0.10860 0.56150 0.61820 0.07400
H 	H 	0.09720 0.63650 0.65250 -0.02600
C 	C 	0.13910 0.59140 0.65740 -0.20300
C 	C 	0.13850 0.53860 0.62860 -0.15500
H 	H 	0.09330 0.54700 0.60500 -0.01200
H 	H 	0.15260 0.60620 0.67080 0.08600
C 	C 	0.14680 0.55430 0.65080 0.09500
H 	H 	0.11590 0.49720 0.62770 0.05400
H 	H 	0.15850 0.53420 0.65990 -0.01500
I 	I 	0.92220 0.03172 0.81341 -0.63400
Cu	Cu	0.93488 0.95480 0.83487 0.70600
N 	N 	0.85857 0.90153 0.84939 -0.26000
C 	C 	0.82357 0.92083 0.85593 0.12400
C 	C 	0.84807 0.85073 0.85584 0.08500
C 	C 	0.05107 0.00143 0.76211 -0.01500
H 	H 	0.82987 0.95713 0.85113 -0.04100
C 	C 	0.77977 0.89043 0.86911 -0.25600
C 	C 	0.80477 0.81763 0.86927 -0.19100
H 	H 	0.87167 0.83613 0.85093 -0.03100
H 	H 	0.08417 0.03623 0.76683 0.00800
C 	C 	0.76917 0.83773 0.87631 0.12000
C 	C 	0.74237 0.91453 0.87644 0.54600
H 	H 	0.79907 0.78123 0.87373 0.05200
H 	H 	0.73877 0.81603 0.88573 -0.03200
O 	O 	0.74707 0.95723 0.86608 -0.85500
O 	O 	0.70998 0.89173 0.89131 -0.78300
Ti	Ti	0.70163 0.00117 0.86967 3.08500
Ti	Ti	0.64973 0.91286 0.90606 3.09400
O 	O 	0.63467 0.92613 0.87655 -1.13900
O 	O 	0.77547 0.07133 0.87629 -1.16400
O 	O 	0.71393 0.99344 0.89923 -1.62400
O 	O 	0.65747 0.04013 0.87336 -0.84600
O 	O 	0.69016 0.91956 0.93176 -0.83000
C 	C 	0.58387 0.88753 0.86439 0.18300
Ti	Ti	0.78593 0.05552 0.90614 3.08400
C 	C 	0.81237 0.12023 0.86396 0.22300
P 	P 	0.73418 0.96840 0.94503 0.64200
C 	C 	0.54387 0.90423 0.86303 -0.18200
C 	C 	0.59257 0.84233 0.85483 -0.17800
O 	O 	0.78085 0.01751 0.93239 -0.85700
C 	C 	0.80457 0.16593 0.86453 -0.19300
C 	C 	0.84817 0.10623 0.85063 -0.18900
C 	C 	0.76747 0.93753 0.95974 -0.19000
C 	C 	0.77697 0.94693 0.97913 0.12500
C 	C 	0.77527 0.89483 0.95153 0.07400
H 	H 	0.76387 0.96983 0.98583 -0.03200
C 	C 	0.80577 0.92473 0.99073 -0.20700
C 	C 	0.80517 0.87193 0.96193 -0.16200
H 	H 	0.75997 0.88033 0.93833 -0.01600
H 	H 	0.81927 0.93953 0.00413 0.08100
C 	C 	0.81347 0.88763 0.98413 0.09400
H 	H 	0.78257 0.83053 0.96103 0.05300
H 	H 	0.82517 0.86753 0.99323 -0.01800
I 	I 	0.58887 0.36506 0.14674 -0.63800
Cu	Cu	0.60154 0.28814 0.16820 0.72000
N 	N 	0.52523 0.23487 0.18273 -0.25600
C 	C 	0.49023 0.25417 0.18927 0.12600
C 	C 	0.51473 0.18407 0.18918 0.08800
C 	C 	0.71773 0.33477 0.09545 -0.05000
H 	H 	0.49653 0.29047 0.18447 -0.03400
C 	C 	0.44643 0.22377 0.20245 -0.25200
C 	C 	0.47143 0.15097 0.20261 -0.18900
H 	H 	0.53833 0.16947 0.18427 -0.02800
H 	H 	0.75083 0.36957 0.10017 0.01300
C 	C 	0.43583 0.17107 0.20965 0.12100
C 	C 	0.40903 0.24787 0.20978 0.54600
H 	H 	0.46573 0.11457 0.20707 0.05500
H 	H 	0.40543 0.14937 0.21907 -0.02900
O 	O 	0.41373 0.29057 0.19942 -0.84700
O 	O 	0.37664 0.22507 0.22465 -0.78000
Ti	Ti	0.36829 0.33451 0.20300 3.08300
Ti	Ti	0.31639 0.24620 0.23940 3.09400
O 	O 	0.30133 0.25947 0.20989 -1.13300
O 	O 	0.44213 0.40467 0.20963 -1.17100
O 	O 	0.38059 0.32678 0.23257 -1.61000
O 	O 	0.32413 0.37347 0.20670 -0.85500
O 	O 	0.35682 0.25290 0.26510 -0.83000
C 	C 	0.25053 0.22087 0.19773 0.18100
Ti	Ti	0.45259 0.38886 0.23947 3.08300
C 	C 	0.47903 0.45357 0.19730 0.22400
P 	P 	0.40084 0.30174 0.27837 0.65700
C 	C 	0.21053 0.23757 0.19637 -0.17200
C 	C 	0.25923 0.17567 0.18817 -0.17400
O 	O 	0.44751 0.35085 0.26573 -0.87400
C 	C 	0.47123 0.49927 0.19787 -0.19300
C 	C 	0.51483 0.43957 0.18397 -0.19300
C 	C 	0.43413 0.27087 0.29308 -0.18700
C 	C 	0.44363 0.28027 0.31247 0.12700
C 	C 	0.44193 0.22817 0.28487 0.07400
H 	H 	0.43053 0.30317 0.31917 -0.02800
C 	C 	0.47243 0.25807 0.32407 -0.20400
C 	C 	0.47183 0.20527 0.29527 -0.15500
H 	H 	0.42663 0.21367 0.27167 -0.01300
H 	H 	0.48593 0.27287 0.33747 0.08600
C 	C 	0.48013 0.22097 0.31747 0.09500
H 	H 	0.44923 0.16387 0.29437 0.05400
H 	H 	0.49183 0.20087 0.32657 -0.01500
I 	I 	0.44286 0.74447 0.48008 -0.64000
Cu	Cu	0.35326 0.73179 0.50154 0.72000
N 	N 	0.37630 0.80810 0.51606 -0.25700
C 	C 	0.43060 0.84310 0.52260 0.12600
C 	C 	0.33600 0.81860 0.52251 0.08800
C 	C 	0.28370 0.61560 0.42878 -0.05000
H 	H 	0.46060 0.83680 0.51780 -0.03500
C 	C 	0.44400 0.88690 0.53578 -0.25500
C 	C 	0.34620 0.86190 0.53594 -0.19100
H 	H 	0.29780 0.79500 0.51760 -0.02900
H 	H 	0.28540 0.58250 0.43350 0.01400
C 	C 	0.40190 0.89750 0.54298 0.12000
C 	C 	0.50550 0.92430 0.54311 0.54700
H 	H 	0.31550 0.86760 0.54040 0.05100
H 	H 	0.41060 0.92790 0.55240 -0.03500
O 	O 	0.54350 0.91960 0.53275 -0.85300
O 	O 	0.51509 0.95669 0.55798 -0.78800
Ti	Ti	0.63288 0.96504 0.53633 3.08100
Ti	Ti	0.59647 0.01694 0.57273 3.09700
O 	O 	0.62480 0.03200 0.54322 -1.12400
O 	O 	0.62920 0.89120 0.54296 -1.17400
O 	O 	0.61285 0.95274 0.56590 -1.61900
O 	O 	0.71600 0.00920 0.54003 -0.84700
O 	O 	0.56274 0.97651 0.59843 -0.83900
C 	C 	0.63700 0.08280 0.53106 0.18100
Ti	Ti	0.60293 0.88074 0.57280 3.08300
C 	C 	0.64120 0.85430 0.53063 0.22500
P 	P 	0.56756 0.93249 0.61170 0.65600
C 	C 	0.69370 0.12280 0.52970 -0.17300
C 	C 	0.58310 0.07410 0.52150 -0.16800
O 	O 	0.57000 0.88582 0.59906 -0.87400
C 	C 	0.69470 0.86210 0.53120 -0.19800
C 	C 	0.59140 0.81850 0.51730 -0.19500
C 	C 	0.50340 0.89920 0.62641 -0.18700
C 	C 	0.50330 0.88970 0.64580 0.12500
C 	C 	0.45290 0.89140 0.61820 0.07200
H 	H 	0.53930 0.90280 0.65250 -0.02900
C 	C 	0.45230 0.86090 0.65740 -0.20300
C 	C 	0.40010 0.86150 0.62860 -0.15400
H 	H 	0.45370 0.90670 0.60500 -0.01500
H 	H 	0.45360 0.84740 0.67080 0.08500
C 	C 	0.40750 0.85320 0.65080 0.09200
H 	H 	0.38130 0.88410 0.62770 0.04900
H 	H 	0.37570 0.84150 0.65990 -0.01500
I 	I 	0.10952 0.07780 0.81341 -0.62400
Cu	Cu	0.01993 0.06512 0.83487 0.72700
N 	N 	0.04297 0.14143 0.84939 -0.25700
C 	C 	0.09727 0.17643 0.85593 0.12200
C 	C 	0.00267 0.15193 0.85584 0.10800
C 	C 	0.95037 0.94893 0.76211 -0.08100
H 	H 	0.12727 0.17013 0.85113 -0.03200
C 	C 	0.11067 0.22023 0.86911 -0.24500
C 	C 	0.01287 0.19523 0.86927 -0.15500
H 	H 	0.96447 0.12833 0.85093 -0.04700
H 	H 	0.95207 0.91583 0.76683 0.01400
C 	C 	0.06857 0.23083 0.87631 0.10400
C 	C 	0.17217 0.25763 0.87644 0.54400
H 	H 	0.98217 0.20093 0.87373 0.02800
H 	H 	0.07727 0.26123 0.88573 -0.02200
O 	O 	0.21017 0.25293 0.86608 -0.84600
O 	O 	0.18176 0.29002 0.89131 -0.77900
Ti	Ti	0.29955 0.29837 0.86967 3.08300
Ti	Ti	0.26314 0.35027 0.90606 3.09400
O 	O 	0.29147 0.36533 0.87655 -1.13400
O 	O 	0.29587 0.22453 0.87629 -1.17000
O 	O 	0.27952 0.28607 0.89923 -1.61000
O 	O 	0.38267 0.34253 0.87336 -0.85400
O 	O 	0.22941 0.30984 0.93176 -0.83000
C 	C 	0.30367 0.41613 0.86439 0.18200
Ti	Ti	0.26960 0.21407 0.90614 3.08300
C 	C 	0.30787 0.18763 0.86396 0.22400
P 	P 	0.23423 0.26582 0.94503 0.65600
C 	C 	0.36037 0.45613 0.86303 -0.17400
C 	C 	0.24977 0.40743 0.85483 -0.17500
O 	O 	0.23667 0.21915 0.93239 -0.87200
C 	C 	0.36137 0.19543 0.86453 -0.19100
C 	C 	0.25807 0.15183 0.85063 -0.19100
C 	C 	0.17007 0.23253 0.95974 -0.18200
C 	C 	0.16997 0.22303 0.97913 0.12200
C 	C 	0.11957 0.22473 0.95153 0.06900
H 	H 	0.20597 0.23613 0.98583 -0.02600
C 	C 	0.11897 0.19423 0.99073 -0.19500
C 	C 	0.06677 0.19483 0.96193 -0.14400
H 	H 	0.12037 0.24003 0.93833 -0.01000
H 	H 	0.12027 0.18073 0.00413 0.08600
C 	C 	0.07417 0.18653 0.98413 0.08800
H 	H 	0.04797 0.21743 0.96103 0.05400
H 	H 	0.04237 0.17483 0.99323 -0.00600
I 	I 	0.77619 0.41113 0.14674 -0.64100
Cu	Cu	0.68659 0.39846 0.16820 0.72000
N 	N 	0.70963 0.47477 0.18273 -0.25700
C 	C 	0.76393 0.50977 0.18927 0.12600
C 	C 	0.66933 0.48527 0.18918 0.08800
C 	C 	0.61703 0.28227 0.09545 -0.05100
H 	H 	0.79393 0.50347 0.18447 -0.03400
C 	C 	0.77733 0.55357 0.20245 -0.25400
C 	C 	0.67953 0.52857 0.20261 -0.19000
H 	H 	0.63113 0.46167 0.18427 -0.02900
H 	H 	0.61873 0.24917 0.10017 0.01500
C 	C 	0.73523 0.56417 0.20965 0.12000
C 	C 	0.83883 0.59097 0.20978 0.54700
H 	H 	0.64883 0.53427 0.20707 0.05200
H 	H 	0.74393 0.59457 0.21907 -0.03200
O 	O 	0.87683 0.58627 0.19942 -0.84900
O 	O 	0.84842 0.62336 0.22465 -0.78200
Ti	Ti	0.96621 0.63171 0.20300 3.08200
Ti	Ti	0.92980 0.68361 0.23940 3.09300
O 	O 	0.95813 0.69867 0.20989 -1.13800
O 	O 	0.96253 0.55787 0.20963 -1.17400
O 	O 	0.94618 0.61941 0.23257 -1.61800
O 	O 	0.04933 0.67587 0.20670 -0.84600
O 	O 	0.89607 0.64318 0.26510 -0.83400
C 	C 	0.97033 0.74947 0.19773 0.15500
Ti	Ti	0.93626 0.54741 0.23947 3.08200
C 	C 	0.97453 0.52097 0.19730 0.19700
P 	P 	0.90089 0.59916 0.27837 0.65700
C 	C 	0.02703 0.78947 0.19637 -0.14800
C 	C 	0.91643 0.74077 0.18817 -0.17500
O 	O 	0.90333 0.55249 0.26573 -0.87800
C 	C 	0.02803 0.52877 0.19787 -0.16600
C 	C 	0.92473 0.48517 0.18397 -0.19300
C 	C 	0.83673 0.56587 0.29308 -0.18800
C 	C 	0.83663 0.55637 0.31247 0.12800
C 	C 	0.78623 0.55807 0.28487 0.07400
H 	H 	0.87263 0.56947 0.31917 -0.03000
C 	C 	0.78563 0.52757 0.32407 -0.20500
C 	C 	0.73343 0.52817 0.29527 -0.15600
H 	H 	0.78703 0.57337 0.27167 -0.01400
H 	H 	0.78693 0.51407 0.33747 0.08600
C 	C 	0.74083 0.51987 0.31747 0.09500
H 	H 	0.71463 0.55077 0.29437 0.05200
H 	H 	0.70903 0.50817 0.32657 -0.01600
Cu	Cu	0.66667 0.33333 0.03144 0.71000
I 	I 	0.66667 0.33333 0.96416 -0.64300
N 	N 	0.66667 0.33333 0.06353 -0.18200
Cu	Cu	0.33333 0.66667 0.36477 0.71000
I 	I 	0.33333 0.66667 0.29750 -0.64300
N 	N 	0.33333 0.66667 0.39686 -0.18200
Cu	Cu	0.00000 0.00000 0.69811 0.72600
I 	I 	-0.00000 0.00000 0.63083 -0.59900
N 	N 	-0.00000 0.00000 0.73020 -0.15600
Cu	Cu	0.33333 0.66667 0.46856 0.71000
I 	I 	0.33333 0.66667 0.53584 -0.64300
N 	N 	0.33333 0.66667 0.43647 -0.18200
Cu	Cu	-0.00000 -0.00000 0.80189 0.72600
I 	I 	-0.00000 0.00000 0.86917 -0.59900
N 	N 	0.00000 0.00000 0.76980 -0.15600
Cu	Cu	0.66667 0.33333 0.13523 0.71000
I 	I 	0.66667 0.33333 0.20250 -0.64300
N 	N 	0.66667 0.33333 0.10314 -0.18200
O 	O 	0.33333 0.39762 0.91667 -1.45900
O 	O 	0.33333 0.21642 0.91667 -1.46200
O 	O 	0.00000 0.73095 0.25000 -1.44700
O 	O 	0.00000 0.54975 0.25000 -1.45000
O 	O 	0.60238 0.93572 0.91667 -1.46500
O 	O 	0.78358 0.11692 0.91667 -1.46200
O 	O 	0.26905 0.26905 0.25000 -1.45800
O 	O 	0.45025 0.45025 0.25000 -1.46300
O 	O 	0.06428 0.66667 0.91667 -1.45300
O 	O 	0.88308 0.66667 0.91667 -1.46600
O 	O 	0.73095 0.00000 0.25000 -1.44700
O 	O 	0.54975 0.00000 0.25000 -1.45000
O 	O 	0.39762 0.33333 0.58333 -1.45900
O 	O 	0.21642 0.33333 0.58333 -1.46200
O 	O 	0.93572 0.60238 0.58333 -1.46500
O 	O 	0.11692 0.78358 0.58333 -1.46200
O 	O 	0.66667 0.06428 0.58333 -1.45300
O 	O 	0.66667 0.88308 0.58333 -1.46600
