data_crystal

_cell_length_a 14.20800
_cell_length_b 14.09500
_cell_length_c 15.11700
_cell_angle_alpha 90.00000
_cell_angle_beta  105.31000
_cell_angle_gamma 90.00000

_symmetry_space_group_name_	'P 1'
_symmetry_space_group_name_H-M	'P 1'

loop_
_symmetry_equiv_pos_as_xyz
  x,y,z

loop_
_atom_site_label
_atom_site_type_symbol
_atom_site_fract_x
_atom_site_fract_y
_atom_site_fract_z
_atom_site_charge
Mn	Mn	0.66975 0.85496 0.15956 1.21000
Mn	Mn	0.75203 0.02415 0.01657 1.19400
O 	O 	0.64110 0.92720 0.02710 -0.91500
H 	H 	0.64400 0.89400 0.98100 0.35500
O 	O 	0.84090 0.00220 0.92290 -0.60000
O 	O 	0.72560 0.89760 0.86030 -0.38900
O 	O 	0.16270 0.63530 0.41200 -0.49400
O 	O 	0.01280 0.63390 0.43560 -0.49600
O 	O 	0.44920 0.57840 0.37540 -0.48500
O 	O 	0.33240 0.49170 0.27850 -0.51000
C 	C 	0.44020 0.76980 0.16320 0.01400
C 	C 	0.34650 0.79070 0.10890 0.07800
C 	C 	0.26560 0.73460 0.11060 -0.14800
H 	H 	0.20220 0.74820 0.07280 0.04700
C 	C 	0.28240 0.65920 0.16950 0.03400
H 	H 	0.23010 0.61750 0.17030 0.00500
C 	C 	0.37640 0.64140 0.22980 -0.11200
C 	C 	0.45660 0.69560 0.22710 -0.04400
H 	H 	0.51950 0.68330 0.26640 0.02800
C 	C 	0.38670 0.56360 0.30000 0.37500
C 	C 	0.92260 0.82850 0.21860 -0.05100
C 	C 	0.99460 0.86430 0.17870 0.22300
C 	C 	0.09240 0.83670 0.20970 -0.30600
H 	H 	0.14080 0.86120 0.18300 0.12800
C 	C 	0.11530 0.77250 0.28060 0.15500
H 	H 	0.18080 0.75140 0.30250 -0.01000
C 	C 	0.04370 0.73670 0.32210 -0.24700
C 	C 	0.94670 0.76390 0.29220 0.11700
H 	H 	0.89880 0.74010 0.31990 -0.00400
C 	C 	0.07530 0.66300 0.39600 0.42500
C 	C 	0.80200 0.93940 0.86270 0.51800
H 	H 	0.83450 0.92430 0.81710 -0.11200
N 	N 	0.35370 0.86950 0.05810 -0.23200
N 	N 	0.44810 0.89180 0.07970 -0.18100
N 	N 	0.50340 0.83450 0.14150 -0.20900
N 	N 	0.83510 0.86740 0.17160 -0.19800
N 	N 	0.85480 0.92420 0.10870 -0.17000
N 	N 	0.94940 0.92390 0.11020 -0.19500
Mn	Mn	0.33025 0.35496 0.34044 1.20100
Mn	Mn	0.24797 0.52415 0.48343 1.26000
O 	O 	0.35890 0.42720 0.47290 -0.85600
H 	H 	0.35600 0.39400 0.51900 0.25500
O 	O 	0.15910 0.50220 0.57710 -0.59700
O 	O 	0.27440 0.39760 0.63970 -0.40500
O 	O 	0.83730 0.13530 0.08800 -0.51100
O 	O 	0.98720 0.13390 0.06440 -0.45600
O 	O 	0.55080 0.07840 0.12460 -0.50000
O 	O 	0.66760 0.99170 0.22150 -0.38200
C 	C 	0.55980 0.26980 0.33680 0.01200
C 	C 	0.65350 0.29070 0.39110 0.07800
C 	C 	0.73440 0.23460 0.38940 -0.13800
H 	H 	0.79780 0.24820 0.42720 0.07000
C 	C 	0.71760 0.15920 0.33050 0.01300
H 	H 	0.76990 0.11750 0.32970 0.00900
C 	C 	0.62360 0.14140 0.27020 -0.08500
C 	C 	0.54340 0.19560 0.27290 -0.06700
H 	H 	0.48050 0.18330 0.23360 0.02100
C 	C 	0.61330 0.06360 0.20000 0.24600
C 	C 	0.07740 0.32850 0.28140 0.08200
C 	C 	0.00540 0.36430 0.32130 -0.04800
C 	C 	0.90760 0.33670 0.29030 0.01900
H 	H 	0.85920 0.36120 0.31700 0.02300
C 	C 	0.88470 0.27250 0.21940 -0.07900
H 	H 	0.81920 0.25140 0.19750 0.05300
C 	C 	0.95630 0.23670 0.17790 0.02400
C 	C 	0.05330 0.26390 0.20780 -0.20400
H 	H 	0.10120 0.24010 0.18010 0.05700
C 	C 	0.92470 0.16300 0.10400 0.33300
C 	C 	0.19800 0.43940 0.63730 0.41200
H 	H 	0.16550 0.42430 0.68290 -0.12100
N 	N 	0.64630 0.36950 0.44190 -0.22000
N 	N 	0.55190 0.39180 0.42030 -0.19500
N 	N 	0.49660 0.33450 0.35850 -0.21800
N 	N 	0.16490 0.36740 0.32840 -0.23200
N 	N 	0.14520 0.42420 0.39130 -0.19300
N 	N 	0.05060 0.42390 0.38980 -0.20000
Mn	Mn	0.33025 0.14504 0.84044 1.20800
Mn	Mn	0.24797 0.97585 0.98343 1.31400
O 	O 	0.35890 0.07280 0.97290 -0.71900
H 	H 	0.35600 0.10600 0.01900 0.11900
O 	O 	0.15910 0.99780 0.07710 -0.50200
O 	O 	0.27440 0.10240 0.13970 -0.40200
O 	O 	0.83730 0.36470 0.58800 -0.46700
O 	O 	0.98720 0.36610 0.56440 -0.41200
O 	O 	0.55080 0.42160 0.62460 -0.48900
O 	O 	0.66760 0.50830 0.72150 -0.48900
C 	C 	0.55980 0.23020 0.83680 0.01100
C 	C 	0.65350 0.20930 0.89110 0.10200
C 	C 	0.73440 0.26540 0.88940 -0.14400
H 	H 	0.79780 0.25180 0.92720 0.10600
C 	C 	0.71760 0.34080 0.83050 0.04700
H 	H 	0.76990 0.38250 0.82970 0.03100
C 	C 	0.62360 0.35860 0.77020 -0.10700
C 	C 	0.54340 0.30440 0.77290 -0.03800
H 	H 	0.48050 0.31670 0.73360 0.02500
C 	C 	0.61330 0.43640 0.70000 0.37500
C 	C 	0.07740 0.17150 0.78140 0.08800
C 	C 	0.00540 0.13570 0.82130 -0.04100
C 	C 	0.90760 0.16330 0.79030 0.02200
H 	H 	0.85920 0.13880 0.81700 0.02400
C 	C 	0.88470 0.22750 0.71940 -0.07700
H 	H 	0.81920 0.24860 0.69750 0.06100
C 	C 	0.95630 0.26330 0.67790 0.03800
C 	C 	0.05330 0.23610 0.70780 -0.19800
H 	H 	0.10120 0.25990 0.68010 0.06600
C 	C 	0.92470 0.33700 0.60400 0.33700
C 	C 	0.19800 0.06060 0.13730 0.24500
H 	H 	0.16550 0.07570 0.18290 -0.09900
N 	N 	0.64630 0.13050 0.94190 -0.19800
N 	N 	0.55190 0.10820 0.92030 -0.18100
N 	N 	0.49660 0.16550 0.85850 -0.21100
N 	N 	0.16490 0.13260 0.82840 -0.22700
N 	N 	0.14520 0.07580 0.89130 -0.19600
N 	N 	0.05060 0.07610 0.88980 -0.18900
Mn	Mn	0.66975 0.64504 0.65956 1.21300
Mn	Mn	0.75203 0.47585 0.51657 1.26000
O 	O 	0.64110 0.57280 0.52710 -0.85400
H 	H 	0.64400 0.60600 0.48100 0.26200
O 	O 	0.84090 0.49780 0.42290 -0.56800
O 	O 	0.72560 0.60240 0.36030 -0.39800
O 	O 	0.16270 0.86470 0.91200 -0.45400
O 	O 	0.01280 0.86610 0.93560 -0.43600
O 	O 	0.44920 0.92160 0.87540 -0.45400
O 	O 	0.33240 0.00830 0.77850 -0.59100
C 	C 	0.44020 0.73020 0.66320 0.01500
C 	C 	0.34650 0.70930 0.60890 0.09500
C 	C 	0.26560 0.76540 0.61060 -0.15000
H 	H 	0.20220 0.75180 0.57280 0.07600
C 	C 	0.28240 0.84080 0.66950 0.06000
H 	H 	0.23010 0.88250 0.67030 0.02800
C 	C 	0.37640 0.85860 0.72980 -0.12400
C 	C 	0.45660 0.80440 0.72710 -0.02300
H 	H 	0.51950 0.81670 0.76640 0.03200
C 	C 	0.38670 0.93640 0.80000 0.47300
C 	C 	0.92260 0.67150 0.71860 -0.04200
C 	C 	0.99460 0.63570 0.67870 0.21900
C 	C 	0.09240 0.66330 0.70970 -0.29800
H 	H 	0.14080 0.63880 0.68300 0.12100
C 	C 	0.11530 0.72750 0.78060 0.15000
H 	H 	0.18080 0.74860 0.80250 -0.00300
C 	C 	0.04370 0.76330 0.82210 -0.22600
C 	C 	0.94670 0.73610 0.79220 0.11100
H 	H 	0.89880 0.75990 0.81990 0.00600
C 	C 	0.07530 0.83700 0.89600 0.42100
C 	C 	0.80200 0.56060 0.36270 0.41100
H 	H 	0.83450 0.57570 0.31710 -0.10500
N 	N 	0.35370 0.63050 0.55810 -0.21900
N 	N 	0.44810 0.60820 0.57970 -0.19100
N 	N 	0.50340 0.66550 0.64150 -0.20700
N 	N 	0.83510 0.63260 0.67160 -0.19600
N 	N 	0.85480 0.57580 0.60870 -0.18400
N 	N 	0.94940 0.57610 0.61020 -0.20800
Mn	Mn	0.50000 0.00000 -0.00000 1.18800
Mn	Mn	0.50000 0.50000 0.50000 1.27000
Mn	Mn	-0.00000 0.00000 -0.00000 1.17400
Mn	Mn	-0.00000 0.50000 0.50000 1.25400
