data_crystal

_cell_length_a 21.89470
_cell_length_b 8.30620
_cell_length_c 23.20340
_cell_angle_alpha 90.00000
_cell_angle_beta  100.05300
_cell_angle_gamma 90.00000

_symmetry_space_group_name_	'P 1'
_symmetry_space_group_name_H-M	'P 1'

loop_
_symmetry_equiv_pos_as_xyz
  x,y,z

loop_
_atom_site_label
_atom_site_type_symbol
_atom_site_fract_x
_atom_site_fract_y
_atom_site_fract_z
_atom_site_charge
C 	C 	0.17100 0.21600 0.17680 0.41300
C 	C 	0.12790 0.08720 0.15140 -0.22300
C 	C 	0.09180 0.11980 0.09670 0.02000
H 	H 	0.09590 0.21880 0.07910 0.05300
C 	C 	0.05060 0.00980 0.06840 0.03300
C 	C 	0.04390 0.86190 0.09580 0.02000
H 	H 	0.01570 0.78590 0.07770 0.04000
C 	C 	0.07880 0.82990 0.14920 -0.21600
H 	H 	0.07350 0.73170 0.16690 0.10300
C 	C 	0.12250 0.93880 0.17870 0.29900
C 	C 	0.26000 0.29730 0.35820 0.50100
C 	C 	0.28080 0.35090 0.42040 -0.25700
C 	C 	0.32100 0.25370 0.46020 0.31700
C 	C 	0.34220 0.31110 0.51640 -0.23500
H 	H 	0.36930 0.24890 0.54270 0.13200
C 	C 	0.32360 0.45790 0.53320 0.06000
H 	H 	0.33830 0.49430 0.57100 0.00900
C 	C 	0.28310 0.55440 0.49500 0.00400
C 	C 	0.26280 0.49870 0.43860 0.07400
H 	H 	0.23640 0.56270 0.41240 0.01900
Er	Er	0.24755 0.46526 0.22838 1.68300
H 	H 	0.33200 0.09200 0.41030 0.26500
N 	N 	0.01790 0.05380 0.01230 -0.07800
N 	N 	0.26500 0.70340 0.51817 -0.07300
O 	O 	0.16953 0.35280 0.15388 -0.44300
O 	O 	0.21077 0.19140 0.22433 -0.60200
O 	O 	0.27086 0.15460 0.34514 -0.52400
O 	O 	0.15584 0.89630 0.22953 -0.46700
O 	O 	0.23443 0.40120 0.32299 -0.50200
O 	O 	0.34070 0.10550 0.44712 -0.41900
C 	C 	0.67100 0.71600 0.17680 0.41600
C 	C 	0.62790 0.58720 0.15140 -0.23200
C 	C 	0.59180 0.61980 0.09670 0.02600
H 	H 	0.59590 0.71880 0.07910 0.05100
C 	C 	0.55060 0.50980 0.06840 0.02500
C 	C 	0.54390 0.36190 0.09580 0.03000
H 	H 	0.51570 0.28590 0.07770 0.03700
C 	C 	0.57880 0.32990 0.14920 -0.22300
H 	H 	0.57350 0.23170 0.16690 0.10700
C 	C 	0.62250 0.43880 0.17870 0.30700
C 	C 	0.76000 0.79730 0.35820 0.50000
C 	C 	0.78080 0.85090 0.42040 -0.25500
C 	C 	0.82100 0.75370 0.46020 0.31500
C 	C 	0.84220 0.81110 0.51640 -0.23300
H 	H 	0.86930 0.74890 0.54270 0.13200
C 	C 	0.82360 0.95790 0.53320 0.05800
H 	H 	0.83830 0.99430 0.57100 0.01000
C 	C 	0.78310 0.05440 0.49500 0.00700
C 	C 	0.76280 0.99870 0.43860 0.06800
H 	H 	0.73640 0.06270 0.41240 0.02200
Er	Er	0.74755 0.96526 0.22838 1.67600
H 	H 	0.83200 0.59200 0.41030 0.26400
N 	N 	0.51790 0.55380 0.01230 -0.07700
N 	N 	0.76500 0.20340 0.51817 -0.07300
O 	O 	0.66953 0.85280 0.15388 -0.44400
O 	O 	0.71077 0.69140 0.22433 -0.60400
O 	O 	0.77086 0.65460 0.34514 -0.52600
O 	O 	0.65584 0.39630 0.22953 -0.46800
O 	O 	0.73443 0.90120 0.32299 -0.50300
O 	O 	0.84070 0.60550 0.44712 -0.41900
C 	C 	0.82900 0.21600 0.32320 0.41300
C 	C 	0.87210 0.08720 0.34860 -0.22400
C 	C 	0.90820 0.11980 0.40330 0.02100
H 	H 	0.90410 0.21880 0.42090 0.05300
C 	C 	0.94940 0.00980 0.43160 0.03100
C 	C 	0.95610 0.86190 0.40420 0.02200
H 	H 	0.98430 0.78590 0.42230 0.03900
C 	C 	0.92120 0.82990 0.35080 -0.21700
H 	H 	0.92650 0.73170 0.33310 0.10400
C 	C 	0.87750 0.93880 0.32130 0.30000
C 	C 	0.74000 0.29730 0.14180 0.50100
C 	C 	0.71920 0.35090 0.07960 -0.25800
C 	C 	0.67900 0.25370 0.03980 0.31800
C 	C 	0.65780 0.31110 0.98360 -0.23800
H 	H 	0.63070 0.24890 0.95730 0.13300
C 	C 	0.67640 0.45790 0.96680 0.06200
H 	H 	0.66170 0.49430 0.92900 0.00800
C 	C 	0.71690 0.55440 0.00500 0.00200
C 	C 	0.73720 0.49870 0.06140 0.07500
H 	H 	0.76360 0.56270 0.08760 0.01800
Er	Er	0.75245 0.46526 0.27162 1.68300
H 	H 	0.66800 0.09200 0.08970 0.26500
N 	N 	0.98210 0.05380 0.48770 -0.07800
N 	N 	0.73500 0.70340 0.98183 -0.07200
O 	O 	0.83047 0.35280 0.34612 -0.44300
O 	O 	0.78923 0.19140 0.27567 -0.60200
O 	O 	0.72914 0.15460 0.15486 -0.52400
O 	O 	0.84416 0.89630 0.27047 -0.46700
O 	O 	0.76557 0.40120 0.17701 -0.50200
O 	O 	0.65930 0.10550 0.05288 -0.41900
C 	C 	0.32900 0.71600 0.32320 0.41600
C 	C 	0.37210 0.58720 0.34860 -0.23100
C 	C 	0.40820 0.61980 0.40330 0.02600
H 	H 	0.40410 0.71880 0.42090 0.05100
C 	C 	0.44940 0.50980 0.43160 0.02500
C 	C 	0.45610 0.36190 0.40420 0.03000
H 	H 	0.48430 0.28590 0.42230 0.03700
C 	C 	0.42120 0.32990 0.35080 -0.22300
H 	H 	0.42650 0.23170 0.33310 0.10700
C 	C 	0.37750 0.43880 0.32130 0.30700
C 	C 	0.24000 0.79730 0.14180 0.49900
C 	C 	0.21920 0.85090 0.07960 -0.25200
C 	C 	0.17900 0.75370 0.03980 0.31200
C 	C 	0.15780 0.81110 0.98360 -0.22900
H 	H 	0.13070 0.74890 0.95730 0.13100
C 	C 	0.17640 0.95790 0.96680 0.05400
H 	H 	0.16170 0.99430 0.92900 0.01200
C 	C 	0.21690 0.05440 0.00500 0.01200
C 	C 	0.23720 0.99870 0.06140 0.06100
H 	H 	0.26360 0.06270 0.08760 0.02500
Er	Er	0.25245 0.96526 0.27162 1.67600
H 	H 	0.16800 0.59200 0.08970 0.26400
N 	N 	0.48210 0.55380 0.48770 -0.07700
N 	N 	0.23500 0.20340 0.98183 -0.07500
O 	O 	0.33047 0.85280 0.34612 -0.44400
O 	O 	0.28923 0.69140 0.27567 -0.60400
O 	O 	0.22914 0.65460 0.15486 -0.52500
O 	O 	0.34416 0.39630 0.27047 -0.46800
O 	O 	0.26557 0.90120 0.17701 -0.50300
O 	O 	0.15930 0.60550 0.05288 -0.41800
C 	C 	0.82900 0.78400 0.82320 0.41300
C 	C 	0.87210 0.91280 0.84860 -0.22300
C 	C 	0.90820 0.88020 0.90330 0.02000
H 	H 	0.90410 0.78120 0.92090 0.05300
C 	C 	0.94940 0.99020 0.93160 0.03300
C 	C 	0.95610 0.13810 0.90420 0.02000
H 	H 	0.98430 0.21410 0.92230 0.04000
C 	C 	0.92120 0.17010 0.85080 -0.21600
H 	H 	0.92650 0.26830 0.83310 0.10300
C 	C 	0.87750 0.06120 0.82130 0.29900
C 	C 	0.74000 0.70270 0.64180 0.50100
C 	C 	0.71920 0.64910 0.57960 -0.25700
C 	C 	0.67900 0.74630 0.53980 0.31700
C 	C 	0.65780 0.68890 0.48360 -0.23500
H 	H 	0.63070 0.75110 0.45730 0.13200
C 	C 	0.67640 0.54210 0.46680 0.06000
H 	H 	0.66170 0.50570 0.42900 0.00900
C 	C 	0.71690 0.44560 0.50500 0.00400
C 	C 	0.73720 0.50130 0.56140 0.07400
H 	H 	0.76360 0.43730 0.58760 0.01900
Er	Er	0.75245 0.53474 0.77162 1.68300
H 	H 	0.66800 0.90800 0.58970 0.26500
N 	N 	0.98210 0.94620 0.98770 -0.07800
N 	N 	0.73500 0.29660 0.48183 -0.07300
O 	O 	0.83047 0.64720 0.84612 -0.44300
O 	O 	0.78923 0.80860 0.77567 -0.60200
O 	O 	0.72914 0.84540 0.65486 -0.52400
O 	O 	0.84416 0.10370 0.77047 -0.46700
O 	O 	0.76557 0.59880 0.67701 -0.50200
O 	O 	0.65930 0.89450 0.55288 -0.41900
C 	C 	0.32900 0.28400 0.82320 0.41600
C 	C 	0.37210 0.41280 0.84860 -0.23200
C 	C 	0.40820 0.38020 0.90330 0.02600
H 	H 	0.40410 0.28120 0.92090 0.05100
C 	C 	0.44940 0.49020 0.93160 0.02500
C 	C 	0.45610 0.63810 0.90420 0.03000
H 	H 	0.48430 0.71410 0.92230 0.03700
C 	C 	0.42120 0.67010 0.85080 -0.22300
H 	H 	0.42650 0.76830 0.83310 0.10700
C 	C 	0.37750 0.56120 0.82130 0.30700
C 	C 	0.24000 0.20270 0.64180 0.50000
C 	C 	0.21920 0.14910 0.57960 -0.25500
C 	C 	0.17900 0.24630 0.53980 0.31500
C 	C 	0.15780 0.18890 0.48360 -0.23300
H 	H 	0.13070 0.25110 0.45730 0.13200
C 	C 	0.17640 0.04210 0.46680 0.05800
H 	H 	0.16170 0.00570 0.42900 0.01000
C 	C 	0.21690 0.94560 0.50500 0.00700
C 	C 	0.23720 0.00130 0.56140 0.06800
H 	H 	0.26360 0.93730 0.58760 0.02200
Er	Er	0.25245 0.03474 0.77162 1.67600
H 	H 	0.16800 0.40800 0.58970 0.26400
N 	N 	0.48210 0.44620 0.98770 -0.07700
N 	N 	0.23500 0.79660 0.48183 -0.07300
O 	O 	0.33047 0.14720 0.84612 -0.44400
O 	O 	0.28923 0.30860 0.77567 -0.60400
O 	O 	0.22914 0.34540 0.65486 -0.52600
O 	O 	0.34416 0.60370 0.77047 -0.46800
O 	O 	0.26557 0.09880 0.67701 -0.50300
O 	O 	0.15930 0.39450 0.55288 -0.41900
C 	C 	0.17100 0.78400 0.67680 0.41300
C 	C 	0.12790 0.91280 0.65140 -0.22400
C 	C 	0.09180 0.88020 0.59670 0.02100
H 	H 	0.09590 0.78120 0.57910 0.05300
C 	C 	0.05060 0.99020 0.56840 0.03100
C 	C 	0.04390 0.13810 0.59580 0.02200
H 	H 	0.01570 0.21410 0.57770 0.03900
C 	C 	0.07880 0.17010 0.64920 -0.21700
H 	H 	0.07350 0.26830 0.66690 0.10400
C 	C 	0.12250 0.06120 0.67870 0.30000
C 	C 	0.26000 0.70270 0.85820 0.50100
C 	C 	0.28080 0.64910 0.92040 -0.25800
C 	C 	0.32100 0.74630 0.96020 0.31800
C 	C 	0.34220 0.68890 0.01640 -0.23800
H 	H 	0.36930 0.75110 0.04270 0.13300
C 	C 	0.32360 0.54210 0.03320 0.06200
H 	H 	0.33830 0.50570 0.07100 0.00800
C 	C 	0.28310 0.44560 0.99500 0.00200
C 	C 	0.26280 0.50130 0.93860 0.07500
H 	H 	0.23640 0.43730 0.91240 0.01800
Er	Er	0.24755 0.53474 0.72838 1.68300
H 	H 	0.33200 0.90800 0.91030 0.26500
N 	N 	0.01790 0.94620 0.51230 -0.07800
N 	N 	0.26500 0.29660 0.01817 -0.07200
O 	O 	0.16953 0.64720 0.65388 -0.44300
O 	O 	0.21077 0.80860 0.72433 -0.60200
O 	O 	0.27086 0.84540 0.84514 -0.52400
O 	O 	0.15584 0.10370 0.72953 -0.46700
O 	O 	0.23443 0.59880 0.82299 -0.50200
O 	O 	0.34070 0.89450 0.94712 -0.41900
C 	C 	0.67100 0.28400 0.67680 0.41600
C 	C 	0.62790 0.41280 0.65140 -0.23100
C 	C 	0.59180 0.38020 0.59670 0.02600
H 	H 	0.59590 0.28120 0.57910 0.05100
C 	C 	0.55060 0.49020 0.56840 0.02500
C 	C 	0.54390 0.63810 0.59580 0.03000
H 	H 	0.51570 0.71410 0.57770 0.03700
C 	C 	0.57880 0.67010 0.64920 -0.22300
H 	H 	0.57350 0.76830 0.66690 0.10700
C 	C 	0.62250 0.56120 0.67870 0.30700
C 	C 	0.76000 0.20270 0.85820 0.49900
C 	C 	0.78080 0.14910 0.92040 -0.25200
C 	C 	0.82100 0.24630 0.96020 0.31200
C 	C 	0.84220 0.18890 0.01640 -0.22900
H 	H 	0.86930 0.25110 0.04270 0.13100
C 	C 	0.82360 0.04210 0.03320 0.05400
H 	H 	0.83830 0.00570 0.07100 0.01200
C 	C 	0.78310 0.94560 0.99500 0.01200
C 	C 	0.76280 0.00130 0.93860 0.06100
H 	H 	0.73640 0.93730 0.91240 0.02500
Er	Er	0.74755 0.03474 0.72838 1.67600
H 	H 	0.83200 0.40800 0.91030 0.26400
N 	N 	0.51790 0.44620 0.51230 -0.07700
N 	N 	0.76500 0.79660 0.01817 -0.07500
O 	O 	0.66953 0.14720 0.65388 -0.44400
O 	O 	0.71077 0.30860 0.72433 -0.60400
O 	O 	0.77086 0.34540 0.84514 -0.52500
O 	O 	0.65584 0.60370 0.72953 -0.46800
O 	O 	0.73443 0.09880 0.82299 -0.50300
O 	O 	0.84070 0.39450 0.94712 -0.41800
