data_crystal

_cell_length_a 26.34300
_cell_length_b 27.15800
_cell_length_c 27.15800
_cell_angle_alpha 90.00000
_cell_angle_beta  90.00000
_cell_angle_gamma 90.00000

_symmetry_space_group_name_	'P 1'
_symmetry_space_group_name_H-M	'P 1'

loop_
_symmetry_equiv_pos_as_xyz
  x,y,z

loop_
_atom_site_label
_atom_site_type_symbol
_atom_site_fract_x
_atom_site_fract_y
_atom_site_fract_z
_atom_site_charge
Cd	Cd	0.63420 0.34021 0.18752 1.17800
Cd	Cd	0.69828 0.14219 0.32525 1.23600
Cd	Cd	0.83183 0.19919 0.12433 1.18000
Cd	Cd	0.59635 0.11147 0.09902 1.14400
Cu	Cu	0.61871 0.22366 0.14530 0.83900
Cu	Cu	0.75809 0.17162 0.22526 0.88300
Cu	Cu	0.66542 0.24166 0.25134 0.88600
Cu	Cu	0.64530 0.13232 0.21278 0.84900
Cu	Cu	0.73205 0.26345 0.15721 0.88500
Cu	Cu	0.71188 0.15427 0.11866 0.88100
C 	C 	0.66350 0.27700 0.90590 0.11100
H 	H 	0.64430 0.26430 0.88010 -0.01600
C 	C 	0.71770 0.33180 0.93400 0.12700
H 	H 	0.73900 0.35850 0.92800 -0.02600
C 	C 	0.71640 0.31420 0.98010 -0.23200
H 	H 	0.73510 0.32930 0.00500 0.09800
C 	C 	0.68660 0.27280 0.99010 0.16900
C 	C 	0.75930 0.24640 0.30360 0.17900
H 	H 	0.78650 0.22850 0.31970 -0.03300
H 	H 	0.73990 0.26320 0.32890 -0.03400
C 	C 	0.54290 0.16810 0.19910 0.23600
H 	H 	0.53050 0.13590 0.20920 -0.09600
H 	H 	0.51840 0.18170 0.17620 -0.10100
C 	C 	0.54560 0.20150 0.24450 -0.26500
C 	C 	0.58250 0.18240 0.28350 0.19900
H 	H 	0.58070 0.20420 0.31170 -0.03600
H 	H 	0.57060 0.15030 0.29430 -0.03700
C 	C 	0.68560 0.25060 0.04430 -0.22600
C 	C 	0.65070 0.20600 0.04580 0.20800
H 	H 	0.61680 0.21620 0.03630 -0.09200
H 	H 	0.66230 0.18220 0.02160 -0.05800
C 	C 	0.66000 0.25350 0.95240 -0.22100
H 	H 	0.63990 0.22570 0.95670 0.08500
C 	C 	0.74350 0.31960 0.24530 0.16900
H 	H 	0.72700 0.33880 0.27080 -0.03800
H 	H 	0.76120 0.34230 0.22370 -0.03000
C 	C 	0.78210 0.28430 0.26910 -0.23400
C 	C 	0.81440 0.26030 0.22790 0.20100
H 	H 	0.83080 0.28620 0.20900 -0.04500
H 	H 	0.84100 0.24070 0.24300 -0.04200
C 	C 	0.69490 0.05480 0.15510 0.17200
H 	H 	0.70370 0.04320 0.12240 -0.04500
H 	H 	0.67100 0.03160 0.16910 -0.06800
C 	C 	0.74160 0.05510 0.18590 -0.21900
C 	C 	0.72990 0.06880 0.23820 0.18100
H 	H 	0.70530 0.04560 0.25110 -0.05200
H 	H 	0.76060 0.06560 0.25760 -0.03700
C 	C 	0.78450 0.08690 0.16460 0.14100
H 	H 	0.81430 0.08390 0.18540 -0.03100
H 	H 	0.79330 0.07490 0.13210 -0.04000
C 	C 	0.55970 0.25320 0.22960 0.21800
H 	H 	0.53430 0.26530 0.20670 -0.08500
H 	H 	0.55840 0.27400 0.25860 -0.05900
C 	C 	0.74090 0.23450 0.05500 0.19800
H 	H 	0.75090 0.20940 0.03150 -0.05700
H 	H 	0.76330 0.26250 0.05070 -0.05500
C 	C 	0.49390 0.20320 0.27150 0.20200
C 	C 	0.81690 0.31870 0.11060 0.61400
C 	C 	0.76450 0.00340 0.18630 0.18700
C 	C 	0.62820 0.33330 0.30780 0.64500
C 	C 	0.81920 0.31760 0.30110 0.25500
C 	C 	0.80370 0.34710 0.33430 -0.29700
H 	H 	0.76890 0.35250 0.33600 0.11900
C 	C 	0.89990 0.33710 0.33610 0.17600
H 	H 	0.93460 0.33040 0.33590 -0.06100
C 	C 	0.86830 0.31290 0.30420 -0.30700
H 	H 	0.88350 0.29090 0.28250 0.12600
C 	C 	0.83410 0.37220 0.36850 0.15800
H 	H 	0.81910 0.39130 0.39290 -0.05800
C 	C 	0.62100 0.35950 0.35640 -1.10400
H 	H 	0.61140 0.39310 0.35050 0.33800
H 	H 	0.65220 0.35880 0.37470 0.34000
H 	H 	0.59490 0.34340 0.37500 0.33800
C 	C 	0.46520 0.16150 0.27910 -0.24100
H 	H 	0.47690 0.13200 0.26600 0.09500
C 	C 	0.47500 0.24300 0.29420 -0.26000
H 	H 	0.49200 0.27290 0.29210 0.10600
C 	C 	0.84040 0.36710 0.08680 -0.96600
H 	H 	0.87360 0.36000 0.07420 0.29600
H 	H 	0.84260 0.39240 0.11130 0.30300
H 	H 	0.81900 0.37800 0.06030 0.30000
C 	C 	0.43030 0.23970 0.32060 0.13900
H 	H 	0.41810 0.26860 0.33460 -0.04000
C 	C 	0.41980 0.16080 0.30500 0.12600
H 	H 	0.40070 0.13210 0.30610 -0.05100
C 	C 	0.76740 0.97570 0.14650 -0.24100
H 	H 	0.75430 0.98710 0.11680 0.09800
C 	C 	0.78280 0.98160 0.22720 -0.21700
H 	H 	0.77810 0.99730 0.25730 0.09700
C 	C 	0.80990 0.93410 0.22670 0.09100
H 	H 	0.82340 0.92130 0.25570 -0.02200
C 	C 	0.79120 0.92710 0.14900 0.12400
H 	H 	0.78880 0.90710 0.12130 -0.04400
C 	C 	0.82170 0.13470 0.31030 0.51200
C 	C 	0.87670 0.12970 0.33630 -0.83000
H 	H 	0.87220 0.12240 0.37070 0.25500
H 	H 	0.89490 0.16020 0.33290 0.26200
H 	H 	0.89550 0.10370 0.32090 0.25400
C 	C 	0.65450 0.05800 0.36280 1.22500
C 	C 	0.63290 0.01410 0.38870 -1.78100
H 	H 	0.63880 0.98510 0.36930 0.54500
H 	H 	0.59700 0.01850 0.39320 0.53900
H 	H 	0.64890 0.01040 0.42020 0.54600
C 	C 	0.70130 0.09320 0.02770 0.34600
C 	C 	0.66720 0.29240 0.07750 0.18500
H 	H 	0.68990 0.32030 0.07400 -0.04800
H 	H 	0.63370 0.30270 0.06680 -0.07800
C 	C 	0.72400 0.08310 0.97210 -0.69700
H 	H 	0.75900 0.09270 0.97100 0.22700
H 	H 	0.70500 0.10210 0.94860 0.21400
H 	H 	0.72110 0.04880 0.96440 0.22000
N 	N 	0.69160 0.31490 0.89690 -0.25900
N 	N 	0.88210 0.36890 0.36600 -0.20900
N 	N 	0.40380 0.20010 0.32780 -0.28300
N 	N 	0.81460 0.91030 0.18560 -0.27300
O 	O 	0.66470 0.27880 0.12870 -0.59300
O 	O 	0.70550 0.29300 0.21740 -0.56600
O 	O 	0.60870 0.25840 0.20730 -0.61300
O 	O 	0.72690 0.21200 0.27850 -0.56400
O 	O 	0.64120 0.28800 0.31050 -0.46500
O 	O 	0.64800 0.18240 0.09280 -0.61400
O 	O 	0.78680 0.23040 0.19560 -0.57700
O 	O 	0.59020 0.16200 0.17440 -0.63100
O 	O 	0.77470 0.32300 0.12760 -0.48600
O 	O 	0.77020 0.13960 0.16100 -0.56300
O 	O 	0.63350 0.17780 0.26990 -0.56000
O 	O 	0.74660 0.21580 0.10340 -0.59400
O 	O 	0.66980 0.10320 0.15060 -0.59500
O 	O 	0.82130 0.14640 0.26490 -0.43400
O 	O 	0.62010 0.35700 0.26920 -0.54100
O 	O 	0.73410 0.11270 0.05460 -0.40300
O 	O 	0.71030 0.11800 0.24440 -0.58500
O 	O 	0.84540 0.28220 0.10720 -0.52600
O 	O 	0.78410 0.13200 0.33800 -0.45500
O 	O 	0.63200 0.08460 0.34240 -0.78300
O 	O 	0.69740 0.06520 0.36750 -0.69700
O 	O 	0.64530 0.08090 0.03780 -0.44300
Cd	Cd	0.86580 0.65979 0.68752 1.17900
Cd	Cd	0.80172 0.85781 0.82525 1.23700
Cd	Cd	0.66817 0.80081 0.62433 1.18100
Cd	Cd	0.90365 0.88853 0.59902 1.14500
Cu	Cu	0.88129 0.77634 0.64530 0.84000
Cu	Cu	0.74191 0.82838 0.72526 0.88400
Cu	Cu	0.83458 0.75834 0.75134 0.88700
Cu	Cu	0.85470 0.86768 0.71278 0.85000
Cu	Cu	0.76795 0.73655 0.65721 0.88500
Cu	Cu	0.78812 0.84573 0.61866 0.88100
C 	C 	0.83650 0.72300 0.40590 0.11100
H 	H 	0.85570 0.73570 0.38010 -0.01600
C 	C 	0.78230 0.66820 0.43400 0.12800
H 	H 	0.76100 0.64150 0.42800 -0.02600
C 	C 	0.78360 0.68580 0.48010 -0.23200
H 	H 	0.76490 0.67070 0.50500 0.09800
C 	C 	0.81340 0.72720 0.49010 0.16900
C 	C 	0.74070 0.75360 0.80360 0.17900
H 	H 	0.71350 0.77150 0.81970 -0.03300
H 	H 	0.76010 0.73680 0.82890 -0.03400
C 	C 	0.95710 0.83190 0.69910 0.23500
H 	H 	0.96950 0.86410 0.70920 -0.09600
H 	H 	0.98160 0.81830 0.67620 -0.10000
C 	C 	0.95440 0.79850 0.74450 -0.26400
C 	C 	0.91750 0.81760 0.78350 0.19900
H 	H 	0.91930 0.79580 0.81170 -0.03600
H 	H 	0.92940 0.84970 0.79430 -0.03700
C 	C 	0.81440 0.74940 0.54430 -0.22600
C 	C 	0.84930 0.79400 0.54580 0.20800
H 	H 	0.88320 0.78380 0.53630 -0.09200
H 	H 	0.83770 0.81780 0.52160 -0.05800
C 	C 	0.84000 0.74650 0.45240 -0.22100
H 	H 	0.86010 0.77430 0.45670 0.08500
C 	C 	0.75650 0.68040 0.74530 0.16900
H 	H 	0.77300 0.66120 0.77080 -0.03800
H 	H 	0.73880 0.65770 0.72370 -0.03000
C 	C 	0.71790 0.71570 0.76910 -0.23400
C 	C 	0.68560 0.73970 0.72790 0.20100
H 	H 	0.66920 0.71380 0.70900 -0.04500
H 	H 	0.65900 0.75930 0.74300 -0.04200
C 	C 	0.80510 0.94520 0.65510 0.17200
H 	H 	0.79630 0.95680 0.62240 -0.04500
H 	H 	0.82900 0.96840 0.66910 -0.06800
C 	C 	0.75840 0.94490 0.68590 -0.21900
C 	C 	0.77010 0.93120 0.73820 0.18100
H 	H 	0.79470 0.95440 0.75110 -0.05200
H 	H 	0.73940 0.93440 0.75760 -0.03700
C 	C 	0.71550 0.91310 0.66460 0.14100
H 	H 	0.68570 0.91610 0.68540 -0.03100
H 	H 	0.70670 0.92510 0.63210 -0.04000
C 	C 	0.94030 0.74680 0.72960 0.21800
H 	H 	0.96570 0.73470 0.70670 -0.08500
H 	H 	0.94160 0.72600 0.75860 -0.05900
C 	C 	0.75910 0.76550 0.55500 0.19800
H 	H 	0.74910 0.79060 0.53150 -0.05700
H 	H 	0.73670 0.73750 0.55070 -0.05500
C 	C 	0.00610 0.79680 0.77150 0.20200
C 	C 	0.68310 0.68130 0.61060 0.61400
C 	C 	0.73550 0.99660 0.68630 0.18700
C 	C 	0.87180 0.66670 0.80780 0.64500
C 	C 	0.68080 0.68240 0.80110 0.25500
C 	C 	0.69630 0.65290 0.83430 -0.29700
H 	H 	0.73110 0.64750 0.83600 0.11900
C 	C 	0.60010 0.66290 0.83610 0.17600
H 	H 	0.56540 0.66960 0.83590 -0.06100
C 	C 	0.63170 0.68710 0.80420 -0.30700
H 	H 	0.61650 0.70910 0.78250 0.12600
C 	C 	0.66590 0.62780 0.86850 0.15800
H 	H 	0.68090 0.60870 0.89290 -0.05800
C 	C 	0.87900 0.64050 0.85640 -1.10400
H 	H 	0.88860 0.60690 0.85050 0.33800
H 	H 	0.84780 0.64120 0.87470 0.34100
H 	H 	0.90510 0.65660 0.87500 0.33800
C 	C 	0.03480 0.83850 0.77910 -0.24100
H 	H 	0.02310 0.86800 0.76600 0.09500
C 	C 	0.02500 0.75700 0.79420 -0.26000
H 	H 	0.00800 0.72710 0.79210 0.10600
C 	C 	0.65960 0.63290 0.58680 -0.96600
H 	H 	0.62640 0.64000 0.57420 0.29600
H 	H 	0.65740 0.60760 0.61130 0.30300
H 	H 	0.68100 0.62200 0.56030 0.30000
C 	C 	0.06970 0.76030 0.82060 0.13900
H 	H 	0.08190 0.73140 0.83460 -0.04000
C 	C 	0.08020 0.83920 0.80500 0.12600
H 	H 	0.09930 0.86790 0.80610 -0.05100
C 	C 	0.73260 0.02430 0.64650 -0.24100
H 	H 	0.74570 0.01290 0.61680 0.09900
C 	C 	0.71720 0.01840 0.72720 -0.21700
H 	H 	0.72190 0.00270 0.75730 0.09700
C 	C 	0.69010 0.06590 0.72670 0.09100
H 	H 	0.67660 0.07870 0.75570 -0.02200
C 	C 	0.70880 0.07290 0.64900 0.12400
H 	H 	0.71120 0.09290 0.62130 -0.04400
C 	C 	0.67830 0.86530 0.81030 0.51200
C 	C 	0.62330 0.87030 0.83630 -0.83000
H 	H 	0.62780 0.87760 0.87070 0.25500
H 	H 	0.60510 0.83980 0.83290 0.26200
H 	H 	0.60450 0.89630 0.82090 0.25400
C 	C 	0.84550 0.94200 0.86280 1.22500
C 	C 	0.86710 0.98590 0.88870 -1.78000
H 	H 	0.86120 0.01490 0.86930 0.54400
H 	H 	0.90300 0.98150 0.89320 0.53900
H 	H 	0.85110 0.98960 0.92020 0.54600
C 	C 	0.79870 0.90680 0.52770 0.34600
C 	C 	0.83280 0.70760 0.57750 0.18500
H 	H 	0.81010 0.67970 0.57400 -0.04800
H 	H 	0.86630 0.69730 0.56680 -0.07800
C 	C 	0.77600 0.91690 0.47210 -0.69700
H 	H 	0.74100 0.90730 0.47100 0.22700
H 	H 	0.79500 0.89790 0.44860 0.21400
H 	H 	0.77890 0.95120 0.46440 0.22000
N 	N 	0.80840 0.68510 0.39690 -0.25900
N 	N 	0.61790 0.63110 0.86600 -0.20900
N 	N 	0.09620 0.79990 0.82780 -0.28300
N 	N 	0.68540 0.08970 0.68560 -0.27300
O 	O 	0.83530 0.72120 0.62870 -0.59300
O 	O 	0.79450 0.70700 0.71740 -0.56600
O 	O 	0.89130 0.74160 0.70730 -0.61300
O 	O 	0.77310 0.78800 0.77850 -0.56400
O 	O 	0.85880 0.71200 0.81050 -0.46500
O 	O 	0.85200 0.81760 0.59280 -0.61400
O 	O 	0.71320 0.76960 0.69560 -0.57700
O 	O 	0.90980 0.83800 0.67440 -0.63100
O 	O 	0.72530 0.67700 0.62760 -0.48600
O 	O 	0.72980 0.86040 0.66100 -0.56300
O 	O 	0.86650 0.82220 0.76990 -0.56000
O 	O 	0.75340 0.78420 0.60340 -0.59400
O 	O 	0.83020 0.89680 0.65060 -0.59500
O 	O 	0.67870 0.85360 0.76490 -0.43400
O 	O 	0.87990 0.64300 0.76920 -0.54100
O 	O 	0.76590 0.88730 0.55460 -0.40300
O 	O 	0.78970 0.88200 0.74440 -0.58500
O 	O 	0.65460 0.71780 0.60720 -0.52600
O 	O 	0.71590 0.86800 0.83800 -0.45500
O 	O 	0.86800 0.91540 0.84240 -0.78200
O 	O 	0.80260 0.93480 0.86750 -0.69600
O 	O 	0.85470 0.91910 0.53780 -0.44300
Cd	Cd	0.36580 0.84021 0.31248 1.17900
Cd	Cd	0.30172 0.64219 0.17475 1.23700
Cd	Cd	0.16817 0.69919 0.37567 1.18100
Cd	Cd	0.40365 0.61147 0.40098 1.14500
Cu	Cu	0.38129 0.72366 0.35470 0.84000
Cu	Cu	0.24191 0.67162 0.27474 0.88400
Cu	Cu	0.33458 0.74166 0.24866 0.88700
Cu	Cu	0.35470 0.63232 0.28722 0.85000
Cu	Cu	0.26795 0.76345 0.34279 0.88500
Cu	Cu	0.28812 0.65427 0.38134 0.88100
C 	C 	0.33650 0.77700 0.59410 0.11100
H 	H 	0.35570 0.76430 0.61990 -0.01600
C 	C 	0.28230 0.83180 0.56600 0.12800
H 	H 	0.26100 0.85850 0.57200 -0.02600
C 	C 	0.28360 0.81420 0.51990 -0.23200
H 	H 	0.26490 0.82930 0.49500 0.09800
C 	C 	0.31340 0.77280 0.50990 0.16900
C 	C 	0.24070 0.74640 0.19640 0.17900
H 	H 	0.21350 0.72850 0.18030 -0.03300
H 	H 	0.26010 0.76320 0.17110 -0.03400
C 	C 	0.45710 0.66810 0.30090 0.23600
H 	H 	0.46950 0.63590 0.29080 -0.09600
H 	H 	0.48160 0.68170 0.32380 -0.10100
C 	C 	0.45440 0.70150 0.25550 -0.26500
C 	C 	0.41750 0.68240 0.21650 0.19900
H 	H 	0.41930 0.70420 0.18830 -0.03600
H 	H 	0.42940 0.65030 0.20570 -0.03700
C 	C 	0.31440 0.75060 0.45570 -0.22600
C 	C 	0.34930 0.70600 0.45420 0.20800
H 	H 	0.38320 0.71620 0.46370 -0.09200
H 	H 	0.33770 0.68220 0.47840 -0.05800
C 	C 	0.34000 0.75350 0.54760 -0.22100
H 	H 	0.36010 0.72570 0.54330 0.08500
C 	C 	0.25650 0.81960 0.25470 0.16900
H 	H 	0.27300 0.83880 0.22920 -0.03800
H 	H 	0.23880 0.84230 0.27630 -0.03000
C 	C 	0.21790 0.78430 0.23090 -0.23400
C 	C 	0.18560 0.76030 0.27210 0.20100
H 	H 	0.16920 0.78620 0.29100 -0.04500
H 	H 	0.15900 0.74070 0.25700 -0.04200
C 	C 	0.30510 0.55480 0.34490 0.17200
H 	H 	0.29630 0.54320 0.37760 -0.04500
H 	H 	0.32900 0.53160 0.33090 -0.06800
C 	C 	0.25840 0.55510 0.31410 -0.21900
C 	C 	0.27010 0.56880 0.26180 0.18100
H 	H 	0.29470 0.54560 0.24890 -0.05200
H 	H 	0.23940 0.56560 0.24240 -0.03700
C 	C 	0.21550 0.58690 0.33540 0.14100
H 	H 	0.18570 0.58390 0.31460 -0.03100
H 	H 	0.20670 0.57490 0.36790 -0.04000
C 	C 	0.44030 0.75320 0.27040 0.21800
H 	H 	0.46570 0.76530 0.29330 -0.08500
H 	H 	0.44160 0.77400 0.24140 -0.05900
C 	C 	0.25910 0.73450 0.44500 0.19800
H 	H 	0.24910 0.70940 0.46850 -0.05700
H 	H 	0.23670 0.76250 0.44930 -0.05500
C 	C 	0.50610 0.70320 0.22850 0.20200
C 	C 	0.18310 0.81870 0.38940 0.61400
C 	C 	0.23550 0.50340 0.31370 0.18600
C 	C 	0.37180 0.83330 0.19220 0.64500
C 	C 	0.18080 0.81760 0.19890 0.25500
C 	C 	0.19630 0.84710 0.16570 -0.29700
H 	H 	0.23110 0.85250 0.16400 0.11900
C 	C 	0.10010 0.83710 0.16390 0.17600
H 	H 	0.06540 0.83040 0.16410 -0.06100
C 	C 	0.13170 0.81290 0.19580 -0.30700
H 	H 	0.11650 0.79090 0.21750 0.12600
C 	C 	0.16590 0.87220 0.13150 0.15800
H 	H 	0.18090 0.89130 0.10710 -0.05800
C 	C 	0.37900 0.85950 0.14360 -1.10400
H 	H 	0.38860 0.89310 0.14950 0.33800
H 	H 	0.34780 0.85880 0.12530 0.34000
H 	H 	0.40510 0.84340 0.12500 0.33800
C 	C 	0.53480 0.66150 0.22090 -0.24100
H 	H 	0.52310 0.63200 0.23400 0.09500
C 	C 	0.52500 0.74300 0.20580 -0.26000
H 	H 	0.50800 0.77290 0.20790 0.10600
C 	C 	0.15960 0.86710 0.41320 -0.96600
H 	H 	0.12640 0.86000 0.42580 0.29600
H 	H 	0.15740 0.89240 0.38870 0.30300
H 	H 	0.18100 0.87800 0.43970 0.30000
C 	C 	0.56970 0.73970 0.17940 0.13900
H 	H 	0.58190 0.76860 0.16540 -0.04000
C 	C 	0.58020 0.66080 0.19500 0.12600
H 	H 	0.59930 0.63210 0.19390 -0.05100
C 	C 	0.23260 0.47570 0.35350 -0.24000
H 	H 	0.24570 0.48710 0.38320 0.09800
C 	C 	0.21720 0.48160 0.27280 -0.21600
H 	H 	0.22190 0.49730 0.24270 0.09700
C 	C 	0.19010 0.43410 0.27330 0.09000
H 	H 	0.17660 0.42130 0.24430 -0.02200
C 	C 	0.20880 0.42710 0.35100 0.12400
H 	H 	0.21120 0.40710 0.37870 -0.04400
C 	C 	0.17830 0.63470 0.18970 0.51200
C 	C 	0.12330 0.62970 0.16370 -0.83000
H 	H 	0.12780 0.62240 0.12930 0.25500
H 	H 	0.10510 0.66020 0.16710 0.26200
H 	H 	0.10450 0.60370 0.17910 0.25400
C 	C 	0.34550 0.55800 0.13720 1.22500
C 	C 	0.36710 0.51410 0.11130 -1.78200
H 	H 	0.36120 0.48510 0.13070 0.54500
H 	H 	0.40300 0.51850 0.10680 0.53900
H 	H 	0.35110 0.51040 0.07980 0.54600
C 	C 	0.29870 0.59320 0.47230 0.34600
C 	C 	0.33280 0.79240 0.42250 0.18500
H 	H 	0.31010 0.82030 0.42600 -0.04800
H 	H 	0.36630 0.80270 0.43320 -0.07800
C 	C 	0.27600 0.58310 0.52790 -0.69700
H 	H 	0.24100 0.59270 0.52900 0.22700
H 	H 	0.29500 0.60210 0.55140 0.21400
H 	H 	0.27890 0.54880 0.53560 0.22000
N 	N 	0.30840 0.81490 0.60310 -0.25900
N 	N 	0.11790 0.86890 0.13400 -0.20900
N 	N 	0.59620 0.70010 0.17220 -0.28300
N 	N 	0.18540 0.41030 0.31440 -0.27300
O 	O 	0.33530 0.77880 0.37130 -0.59300
O 	O 	0.29450 0.79300 0.28260 -0.56600
O 	O 	0.39130 0.75840 0.29270 -0.61300
O 	O 	0.27310 0.71200 0.22150 -0.56400
O 	O 	0.35880 0.78800 0.18950 -0.46500
O 	O 	0.35200 0.68240 0.40720 -0.61400
O 	O 	0.21320 0.73040 0.30440 -0.57700
O 	O 	0.40980 0.66200 0.32560 -0.63100
O 	O 	0.22530 0.82300 0.37240 -0.48600
O 	O 	0.22980 0.63960 0.33900 -0.56300
O 	O 	0.36650 0.67780 0.23010 -0.56000
O 	O 	0.25340 0.71580 0.39660 -0.59400
O 	O 	0.33020 0.60320 0.34940 -0.59500
O 	O 	0.17870 0.64640 0.23510 -0.43400
O 	O 	0.37990 0.85700 0.23080 -0.54100
O 	O 	0.26590 0.61270 0.44540 -0.40300
O 	O 	0.28970 0.61800 0.25560 -0.58500
O 	O 	0.15460 0.78220 0.39280 -0.52600
O 	O 	0.21590 0.63200 0.16200 -0.45500
O 	O 	0.36800 0.58460 0.15760 -0.78300
O 	O 	0.30260 0.56520 0.13250 -0.69700
O 	O 	0.35470 0.58090 0.46220 -0.44300
Cd	Cd	0.13420 0.15979 0.81248 1.17900
Cd	Cd	0.19828 0.35781 0.67475 1.23700
Cd	Cd	0.33183 0.30081 0.87567 1.18100
Cd	Cd	0.09635 0.38853 0.90098 1.14500
Cu	Cu	0.11871 0.27634 0.85470 0.84000
Cu	Cu	0.25809 0.32838 0.77474 0.88400
Cu	Cu	0.16542 0.25834 0.74866 0.88700
Cu	Cu	0.14530 0.36768 0.78722 0.85000
Cu	Cu	0.23205 0.23655 0.84279 0.88500
Cu	Cu	0.21188 0.34573 0.88134 0.88100
C 	C 	0.16350 0.22300 0.09410 0.11100
H 	H 	0.14430 0.23570 0.11990 -0.01600
C 	C 	0.21770 0.16820 0.06600 0.12700
H 	H 	0.23900 0.14150 0.07200 -0.02600
C 	C 	0.21640 0.18580 0.01990 -0.23100
H 	H 	0.23510 0.17070 0.99500 0.09800
C 	C 	0.18660 0.22720 0.00990 0.16900
C 	C 	0.25930 0.25360 0.69640 0.17900
H 	H 	0.28650 0.27150 0.68030 -0.03300
H 	H 	0.23990 0.23680 0.67110 -0.03400
C 	C 	0.04290 0.33190 0.80090 0.23600
H 	H 	0.03050 0.36410 0.79080 -0.09600
H 	H 	0.01840 0.31830 0.82380 -0.10100
C 	C 	0.04560 0.29850 0.75550 -0.26500
C 	C 	0.08250 0.31760 0.71650 0.19900
H 	H 	0.08070 0.29580 0.68830 -0.03600
H 	H 	0.07060 0.34970 0.70570 -0.03700
C 	C 	0.18560 0.24940 0.95570 -0.22600
C 	C 	0.15070 0.29400 0.95420 0.20900
H 	H 	0.11680 0.28380 0.96370 -0.09300
H 	H 	0.16230 0.31780 0.97840 -0.05800
C 	C 	0.16000 0.24650 0.04760 -0.22100
H 	H 	0.13990 0.27430 0.04330 0.08600
C 	C 	0.24350 0.18040 0.75470 0.16900
H 	H 	0.22700 0.16120 0.72920 -0.03800
H 	H 	0.26120 0.15770 0.77630 -0.03000
C 	C 	0.28210 0.21570 0.73090 -0.23400
C 	C 	0.31440 0.23970 0.77210 0.20100
H 	H 	0.33080 0.21380 0.79100 -0.04500
H 	H 	0.34100 0.25930 0.75700 -0.04200
C 	C 	0.19490 0.44520 0.84490 0.17200
H 	H 	0.20370 0.45680 0.87760 -0.04500
H 	H 	0.17100 0.46840 0.83090 -0.06800
C 	C 	0.24160 0.44490 0.81410 -0.21900
C 	C 	0.22990 0.43120 0.76180 0.18100
H 	H 	0.20530 0.45440 0.74890 -0.05200
H 	H 	0.26060 0.43440 0.74240 -0.03700
C 	C 	0.28450 0.41310 0.83540 0.14100
H 	H 	0.31430 0.41610 0.81460 -0.03100
H 	H 	0.29330 0.42510 0.86790 -0.04000
C 	C 	0.05970 0.24680 0.77040 0.21800
H 	H 	0.03430 0.23470 0.79330 -0.08500
H 	H 	0.05840 0.22600 0.74140 -0.05900
C 	C 	0.24090 0.26550 0.94500 0.19800
H 	H 	0.25090 0.29060 0.96850 -0.05700
H 	H 	0.26330 0.23750 0.94930 -0.05500
C 	C 	0.99390 0.29680 0.72850 0.20300
C 	C 	0.31690 0.18130 0.88940 0.61400
C 	C 	0.26450 0.49660 0.81370 0.18600
C 	C 	0.12820 0.16670 0.69220 0.64500
C 	C 	0.31920 0.18240 0.69890 0.25500
C 	C 	0.30370 0.15290 0.66570 -0.29700
H 	H 	0.26890 0.14750 0.66400 0.11900
C 	C 	0.39990 0.16290 0.66390 0.17600
H 	H 	0.43460 0.16960 0.66410 -0.06100
C 	C 	0.36830 0.18710 0.69580 -0.30700
H 	H 	0.38350 0.20910 0.71750 0.12600
C 	C 	0.33410 0.12780 0.63150 0.15800
H 	H 	0.31910 0.10870 0.60710 -0.05800
C 	C 	0.12100 0.14050 0.64360 -1.10400
H 	H 	0.11140 0.10690 0.64950 0.33800
H 	H 	0.15220 0.14120 0.62530 0.34000
H 	H 	0.09490 0.15660 0.62500 0.33800
C 	C 	0.96520 0.33850 0.72090 -0.24100
H 	H 	0.97690 0.36800 0.73400 0.09500
C 	C 	0.97500 0.25700 0.70580 -0.26000
H 	H 	0.99200 0.22710 0.70790 0.10600
C 	C 	0.34040 0.13290 0.91320 -0.96600
H 	H 	0.37360 0.14000 0.92580 0.29600
H 	H 	0.34260 0.10760 0.88870 0.30300
H 	H 	0.31900 0.12200 0.93970 0.30000
C 	C 	0.93030 0.26030 0.67940 0.13900
H 	H 	0.91810 0.23140 0.66540 -0.04000
C 	C 	0.91980 0.33920 0.69500 0.12600
H 	H 	0.90070 0.36790 0.69390 -0.05100
C 	C 	0.26740 0.52430 0.85350 -0.24000
H 	H 	0.25430 0.51290 0.88320 0.09800
C 	C 	0.28280 0.51840 0.77280 -0.21600
H 	H 	0.27810 0.50270 0.74270 0.09700
C 	C 	0.30990 0.56590 0.77330 0.09000
H 	H 	0.32340 0.57870 0.74430 -0.02200
C 	C 	0.29120 0.57290 0.85100 0.12400
H 	H 	0.28880 0.59290 0.87870 -0.04400
C 	C 	0.32170 0.36530 0.68970 0.51200
C 	C 	0.37670 0.37030 0.66370 -0.83000
H 	H 	0.37220 0.37760 0.62930 0.25500
H 	H 	0.39490 0.33980 0.66710 0.26200
H 	H 	0.39550 0.39630 0.67910 0.25400
C 	C 	0.15450 0.44200 0.63720 1.22500
C 	C 	0.13290 0.48590 0.61130 -1.78200
H 	H 	0.13880 0.51490 0.63070 0.54500
H 	H 	0.09700 0.48150 0.60680 0.53900
H 	H 	0.14890 0.48960 0.57980 0.54600
C 	C 	0.20130 0.40680 0.97230 0.34600
C 	C 	0.16720 0.20760 0.92250 0.18500
H 	H 	0.18990 0.17970 0.92600 -0.04800
H 	H 	0.13370 0.19730 0.93320 -0.07800
C 	C 	0.22400 0.41690 0.02790 -0.69700
H 	H 	0.25900 0.40730 0.02900 0.22700
H 	H 	0.20500 0.39790 0.05140 0.21400
H 	H 	0.22110 0.45120 0.03560 0.22000
N 	N 	0.19160 0.18510 0.10310 -0.25900
N 	N 	0.38210 0.13110 0.63400 -0.20900
N 	N 	0.90380 0.29990 0.67220 -0.28300
N 	N 	0.31460 0.58970 0.81440 -0.27300
O 	O 	0.16470 0.22120 0.87130 -0.59300
O 	O 	0.20550 0.20700 0.78260 -0.56600
O 	O 	0.10870 0.24160 0.79270 -0.61300
O 	O 	0.22690 0.28800 0.72150 -0.56400
O 	O 	0.14120 0.21200 0.68950 -0.46500
O 	O 	0.14800 0.31760 0.90720 -0.61400
O 	O 	0.28680 0.26960 0.80440 -0.57700
O 	O 	0.09020 0.33800 0.82560 -0.63100
O 	O 	0.27470 0.17700 0.87240 -0.48600
O 	O 	0.27020 0.36040 0.83900 -0.56300
O 	O 	0.13350 0.32220 0.73010 -0.56000
O 	O 	0.24660 0.28420 0.89660 -0.59400
O 	O 	0.16980 0.39680 0.84940 -0.59500
O 	O 	0.32130 0.35360 0.73510 -0.43400
O 	O 	0.12010 0.14300 0.73080 -0.54100
O 	O 	0.23410 0.38730 0.94540 -0.40300
O 	O 	0.21030 0.38200 0.75560 -0.58500
O 	O 	0.34540 0.21780 0.89280 -0.52600
O 	O 	0.28410 0.36800 0.66200 -0.45500
O 	O 	0.13200 0.41540 0.65760 -0.78300
O 	O 	0.19740 0.43480 0.63250 -0.69700
O 	O 	0.14530 0.41910 0.96220 -0.44300
Cd	Cd	0.36580 0.65979 0.81248 1.17900
Cd	Cd	0.30172 0.85781 0.67475 1.23700
Cd	Cd	0.16817 0.80081 0.87567 1.18100
Cd	Cd	0.40365 0.88853 0.90098 1.14500
Cu	Cu	0.38129 0.77634 0.85470 0.84000
Cu	Cu	0.24191 0.82838 0.77474 0.88400
Cu	Cu	0.33458 0.75834 0.74866 0.88700
Cu	Cu	0.35470 0.86768 0.78722 0.85000
Cu	Cu	0.26795 0.73655 0.84279 0.88500
Cu	Cu	0.28812 0.84573 0.88134 0.88100
C 	C 	0.33650 0.72300 0.09410 0.11100
H 	H 	0.35570 0.73570 0.11990 -0.01600
C 	C 	0.28230 0.66820 0.06600 0.12700
H 	H 	0.26100 0.64150 0.07200 -0.02600
C 	C 	0.28360 0.68580 0.01990 -0.23200
H 	H 	0.26490 0.67070 0.99500 0.09800
C 	C 	0.31340 0.72720 0.00990 0.16900
C 	C 	0.24070 0.75360 0.69640 0.17900
H 	H 	0.21350 0.77150 0.68030 -0.03300
H 	H 	0.26010 0.73680 0.67110 -0.03400
C 	C 	0.45710 0.83190 0.80090 0.23600
H 	H 	0.46950 0.86410 0.79080 -0.09600
H 	H 	0.48160 0.81830 0.82380 -0.10100
C 	C 	0.45440 0.79850 0.75550 -0.26500
C 	C 	0.41750 0.81760 0.71650 0.19900
H 	H 	0.41930 0.79580 0.68830 -0.03600
H 	H 	0.42940 0.84970 0.70570 -0.03700
C 	C 	0.31440 0.74940 0.95570 -0.22600
C 	C 	0.34930 0.79400 0.95420 0.20800
H 	H 	0.38320 0.78380 0.96370 -0.09200
H 	H 	0.33770 0.81780 0.97840 -0.05800
C 	C 	0.34000 0.74650 0.04760 -0.22100
H 	H 	0.36010 0.77430 0.04330 0.08500
C 	C 	0.25650 0.68040 0.75470 0.16900
H 	H 	0.27300 0.66120 0.72920 -0.03800
H 	H 	0.23880 0.65770 0.77630 -0.03000
C 	C 	0.21790 0.71570 0.73090 -0.23400
C 	C 	0.18560 0.73970 0.77210 0.20100
H 	H 	0.16920 0.71380 0.79100 -0.04500
H 	H 	0.15900 0.75930 0.75700 -0.04200
C 	C 	0.30510 0.94520 0.84490 0.17200
H 	H 	0.29630 0.95680 0.87760 -0.04500
H 	H 	0.32900 0.96840 0.83090 -0.06800
C 	C 	0.25840 0.94490 0.81410 -0.21900
C 	C 	0.27010 0.93120 0.76180 0.18100
H 	H 	0.29470 0.95440 0.74890 -0.05200
H 	H 	0.23940 0.93440 0.74240 -0.03700
C 	C 	0.21550 0.91310 0.83540 0.14100
H 	H 	0.18570 0.91610 0.81460 -0.03100
H 	H 	0.20670 0.92510 0.86790 -0.04000
C 	C 	0.44030 0.74680 0.77040 0.21800
H 	H 	0.46570 0.73470 0.79330 -0.08500
H 	H 	0.44160 0.72600 0.74140 -0.05900
C 	C 	0.25910 0.76550 0.94500 0.19800
H 	H 	0.24910 0.79060 0.96850 -0.05700
H 	H 	0.23670 0.73750 0.94930 -0.05500
C 	C 	0.50610 0.79680 0.72850 0.20200
C 	C 	0.18310 0.68130 0.88940 0.61400
C 	C 	0.23550 0.99660 0.81370 0.18700
C 	C 	0.37180 0.66670 0.69220 0.64500
C 	C 	0.18080 0.68240 0.69890 0.25500
C 	C 	0.19630 0.65290 0.66570 -0.29700
H 	H 	0.23110 0.64750 0.66400 0.11900
C 	C 	0.10010 0.66290 0.66390 0.17600
H 	H 	0.06540 0.66960 0.66410 -0.06100
C 	C 	0.13170 0.68710 0.69580 -0.30700
H 	H 	0.11650 0.70910 0.71750 0.12600
C 	C 	0.16590 0.62780 0.63150 0.15800
H 	H 	0.18090 0.60870 0.60710 -0.05800
C 	C 	0.37900 0.64050 0.64360 -1.10400
H 	H 	0.38860 0.60690 0.64950 0.33800
H 	H 	0.34780 0.64120 0.62530 0.34000
H 	H 	0.40510 0.65660 0.62500 0.33800
C 	C 	0.53480 0.83850 0.72090 -0.24100
H 	H 	0.52310 0.86800 0.73400 0.09500
C 	C 	0.52500 0.75700 0.70580 -0.26000
H 	H 	0.50800 0.72710 0.70790 0.10600
C 	C 	0.15960 0.63290 0.91320 -0.96600
H 	H 	0.12640 0.64000 0.92580 0.29600
H 	H 	0.15740 0.60760 0.88870 0.30300
H 	H 	0.18100 0.62200 0.93970 0.30000
C 	C 	0.56970 0.76030 0.67940 0.13900
H 	H 	0.58190 0.73140 0.66540 -0.04000
C 	C 	0.58020 0.83920 0.69500 0.12600
H 	H 	0.59930 0.86790 0.69390 -0.05100
C 	C 	0.23260 0.02430 0.85350 -0.24100
H 	H 	0.24570 0.01290 0.88320 0.09800
C 	C 	0.21720 0.01840 0.77280 -0.21700
H 	H 	0.22190 0.00270 0.74270 0.09700
C 	C 	0.19010 0.06590 0.77330 0.09100
H 	H 	0.17660 0.07870 0.74430 -0.02200
C 	C 	0.20880 0.07290 0.85100 0.12400
H 	H 	0.21120 0.09290 0.87870 -0.04400
C 	C 	0.17830 0.86530 0.68970 0.51200
C 	C 	0.12330 0.87030 0.66370 -0.83000
H 	H 	0.12780 0.87760 0.62930 0.25500
H 	H 	0.10510 0.83980 0.66710 0.26200
H 	H 	0.10450 0.89630 0.67910 0.25400
C 	C 	0.34550 0.94200 0.63720 1.22500
C 	C 	0.36710 0.98590 0.61130 -1.78100
H 	H 	0.36120 0.01490 0.63070 0.54500
H 	H 	0.40300 0.98150 0.60680 0.53900
H 	H 	0.35110 0.98960 0.57980 0.54600
C 	C 	0.29870 0.90680 0.97230 0.34600
C 	C 	0.33280 0.70760 0.92250 0.18500
H 	H 	0.31010 0.67970 0.92600 -0.04800
H 	H 	0.36630 0.69730 0.93320 -0.07800
C 	C 	0.27600 0.91690 0.02790 -0.69700
H 	H 	0.24100 0.90730 0.02900 0.22700
H 	H 	0.29500 0.89790 0.05140 0.21400
H 	H 	0.27890 0.95120 0.03560 0.22000
N 	N 	0.30840 0.68510 0.10310 -0.25900
N 	N 	0.11790 0.63110 0.63400 -0.20900
N 	N 	0.59620 0.79990 0.67220 -0.28300
N 	N 	0.18540 0.08970 0.81440 -0.27300
O 	O 	0.33530 0.72120 0.87130 -0.59300
O 	O 	0.29450 0.70700 0.78260 -0.56600
O 	O 	0.39130 0.74160 0.79270 -0.61300
O 	O 	0.27310 0.78800 0.72150 -0.56400
O 	O 	0.35880 0.71200 0.68950 -0.46500
O 	O 	0.35200 0.81760 0.90720 -0.61400
O 	O 	0.21320 0.76960 0.80440 -0.57700
O 	O 	0.40980 0.83800 0.82560 -0.63100
O 	O 	0.22530 0.67700 0.87240 -0.48600
O 	O 	0.22980 0.86040 0.83900 -0.56300
O 	O 	0.36650 0.82220 0.73010 -0.56000
O 	O 	0.25340 0.78420 0.89660 -0.59400
O 	O 	0.33020 0.89680 0.84940 -0.59500
O 	O 	0.17870 0.85360 0.73510 -0.43400
O 	O 	0.37990 0.64300 0.73080 -0.54100
O 	O 	0.26590 0.88730 0.94540 -0.40300
O 	O 	0.28970 0.88200 0.75560 -0.58500
O 	O 	0.15460 0.71780 0.89280 -0.52600
O 	O 	0.21590 0.86800 0.66200 -0.45500
O 	O 	0.36800 0.91540 0.65760 -0.78300
O 	O 	0.30260 0.93480 0.63250 -0.69700
O 	O 	0.35470 0.91910 0.96220 -0.44300
Cd	Cd	0.13420 0.34021 0.31248 1.17900
Cd	Cd	0.19828 0.14219 0.17475 1.23700
Cd	Cd	0.33183 0.19919 0.37567 1.18100
Cd	Cd	0.09635 0.11147 0.40098 1.14500
Cu	Cu	0.11871 0.22366 0.35470 0.84000
Cu	Cu	0.25809 0.17162 0.27474 0.88400
Cu	Cu	0.16542 0.24166 0.24866 0.88700
Cu	Cu	0.14530 0.13232 0.28722 0.85000
Cu	Cu	0.23205 0.26345 0.34279 0.88500
Cu	Cu	0.21188 0.15427 0.38134 0.88100
C 	C 	0.16350 0.27700 0.59410 0.11100
H 	H 	0.14430 0.26430 0.61990 -0.01600
C 	C 	0.21770 0.33180 0.56600 0.12800
H 	H 	0.23900 0.35850 0.57200 -0.02600
C 	C 	0.21640 0.31420 0.51990 -0.23200
H 	H 	0.23510 0.32930 0.49500 0.09800
C 	C 	0.18660 0.27280 0.50990 0.16900
C 	C 	0.25930 0.24640 0.19640 0.17900
H 	H 	0.28650 0.22850 0.18030 -0.03300
H 	H 	0.23990 0.26320 0.17110 -0.03400
C 	C 	0.04290 0.16810 0.30090 0.23500
H 	H 	0.03050 0.13590 0.29080 -0.09600
H 	H 	0.01840 0.18170 0.32380 -0.10000
C 	C 	0.04560 0.20150 0.25550 -0.26400
C 	C 	0.08250 0.18240 0.21650 0.19900
H 	H 	0.08070 0.20420 0.18830 -0.03600
H 	H 	0.07060 0.15030 0.20570 -0.03700
C 	C 	0.18560 0.25060 0.45570 -0.22600
C 	C 	0.15070 0.20600 0.45420 0.20800
H 	H 	0.11680 0.21620 0.46370 -0.09200
H 	H 	0.16230 0.18220 0.47840 -0.05800
C 	C 	0.16000 0.25350 0.54760 -0.22100
H 	H 	0.13990 0.22570 0.54330 0.08500
C 	C 	0.24350 0.31960 0.25470 0.16900
H 	H 	0.22700 0.33880 0.22920 -0.03800
H 	H 	0.26120 0.34230 0.27630 -0.03000
C 	C 	0.28210 0.28430 0.23090 -0.23400
C 	C 	0.31440 0.26030 0.27210 0.20100
H 	H 	0.33080 0.28620 0.29100 -0.04500
H 	H 	0.34100 0.24070 0.25700 -0.04200
C 	C 	0.19490 0.05480 0.34490 0.17200
H 	H 	0.20370 0.04320 0.37760 -0.04500
H 	H 	0.17100 0.03160 0.33090 -0.06800
C 	C 	0.24160 0.05510 0.31410 -0.21900
C 	C 	0.22990 0.06880 0.26180 0.18100
H 	H 	0.20530 0.04560 0.24890 -0.05200
H 	H 	0.26060 0.06560 0.24240 -0.03700
C 	C 	0.28450 0.08690 0.33540 0.14100
H 	H 	0.31430 0.08390 0.31460 -0.03100
H 	H 	0.29330 0.07490 0.36790 -0.04000
C 	C 	0.05970 0.25320 0.27040 0.21800
H 	H 	0.03430 0.26530 0.29330 -0.08500
H 	H 	0.05840 0.27400 0.24140 -0.05900
C 	C 	0.24090 0.23450 0.44500 0.19800
H 	H 	0.25090 0.20940 0.46850 -0.05700
H 	H 	0.26330 0.26250 0.44930 -0.05500
C 	C 	0.99390 0.20320 0.22850 0.20200
C 	C 	0.31690 0.31870 0.38940 0.61400
C 	C 	0.26450 0.00340 0.31370 0.18700
C 	C 	0.12820 0.33330 0.19220 0.64500
C 	C 	0.31920 0.31760 0.19890 0.25500
C 	C 	0.30370 0.34710 0.16570 -0.29700
H 	H 	0.26890 0.35250 0.16400 0.11900
C 	C 	0.39990 0.33710 0.16390 0.17600
H 	H 	0.43460 0.33040 0.16410 -0.06100
C 	C 	0.36830 0.31290 0.19580 -0.30700
H 	H 	0.38350 0.29090 0.21750 0.12600
C 	C 	0.33410 0.37220 0.13150 0.15800
H 	H 	0.31910 0.39130 0.10710 -0.05800
C 	C 	0.12100 0.35950 0.14360 -1.10400
H 	H 	0.11140 0.39310 0.14950 0.33800
H 	H 	0.15220 0.35880 0.12530 0.34100
H 	H 	0.09490 0.34340 0.12500 0.33800
C 	C 	0.96520 0.16150 0.22090 -0.24100
H 	H 	0.97690 0.13200 0.23400 0.09500
C 	C 	0.97500 0.24300 0.20580 -0.26000
H 	H 	0.99200 0.27290 0.20790 0.10600
C 	C 	0.34040 0.36710 0.41320 -0.96600
H 	H 	0.37360 0.36000 0.42580 0.29600
H 	H 	0.34260 0.39240 0.38870 0.30300
H 	H 	0.31900 0.37800 0.43970 0.30000
C 	C 	0.93030 0.23970 0.17940 0.13900
H 	H 	0.91810 0.26860 0.16540 -0.04000
C 	C 	0.91980 0.16080 0.19500 0.12600
H 	H 	0.90070 0.13210 0.19390 -0.05100
C 	C 	0.26740 0.97570 0.35350 -0.24100
H 	H 	0.25430 0.98710 0.38320 0.09900
C 	C 	0.28280 0.98160 0.27280 -0.21700
H 	H 	0.27810 0.99730 0.24270 0.09700
C 	C 	0.30990 0.93410 0.27330 0.09100
H 	H 	0.32340 0.92130 0.24430 -0.02200
C 	C 	0.29120 0.92710 0.35100 0.12400
H 	H 	0.28880 0.90710 0.37870 -0.04400
C 	C 	0.32170 0.13470 0.18970 0.51200
C 	C 	0.37670 0.12970 0.16370 -0.83000
H 	H 	0.37220 0.12240 0.12930 0.25500
H 	H 	0.39490 0.16020 0.16710 0.26200
H 	H 	0.39550 0.10370 0.17910 0.25400
C 	C 	0.15450 0.05800 0.13720 1.22500
C 	C 	0.13290 0.01410 0.11130 -1.78000
H 	H 	0.13880 0.98510 0.13070 0.54400
H 	H 	0.09700 0.01850 0.10680 0.53900
H 	H 	0.14890 0.01040 0.07980 0.54600
C 	C 	0.20130 0.09320 0.47230 0.34600
C 	C 	0.16720 0.29240 0.42250 0.18500
H 	H 	0.18990 0.32030 0.42600 -0.04800
H 	H 	0.13370 0.30270 0.43320 -0.07800
C 	C 	0.22400 0.08310 0.52790 -0.69700
H 	H 	0.25900 0.09270 0.52900 0.22700
H 	H 	0.20500 0.10210 0.55140 0.21400
H 	H 	0.22110 0.04880 0.53560 0.22000
N 	N 	0.19160 0.31490 0.60310 -0.25900
N 	N 	0.38210 0.36890 0.13400 -0.20900
N 	N 	0.90380 0.20010 0.17220 -0.28300
N 	N 	0.31460 0.91030 0.31440 -0.27300
O 	O 	0.16470 0.27880 0.37130 -0.59300
O 	O 	0.20550 0.29300 0.28260 -0.56600
O 	O 	0.10870 0.25840 0.29270 -0.61300
O 	O 	0.22690 0.21200 0.22150 -0.56400
O 	O 	0.14120 0.28800 0.18950 -0.46500
O 	O 	0.14800 0.18240 0.40720 -0.61400
O 	O 	0.28680 0.23040 0.30440 -0.57700
O 	O 	0.09020 0.16200 0.32560 -0.63100
O 	O 	0.27470 0.32300 0.37240 -0.48600
O 	O 	0.27020 0.13960 0.33900 -0.56300
O 	O 	0.13350 0.17780 0.23010 -0.56000
O 	O 	0.24660 0.21580 0.39660 -0.59400
O 	O 	0.16980 0.10320 0.34940 -0.59500
O 	O 	0.32130 0.14640 0.23510 -0.43400
O 	O 	0.12010 0.35700 0.23080 -0.54100
O 	O 	0.23410 0.11270 0.44540 -0.40300
O 	O 	0.21030 0.11800 0.25560 -0.58500
O 	O 	0.34540 0.28220 0.39280 -0.52600
O 	O 	0.28410 0.13200 0.16200 -0.45500
O 	O 	0.13200 0.08460 0.15760 -0.78200
O 	O 	0.19740 0.06520 0.13250 -0.69600
O 	O 	0.14530 0.08090 0.46220 -0.44300
Cd	Cd	0.63420 0.15979 0.68752 1.17900
Cd	Cd	0.69828 0.35781 0.82525 1.23700
Cd	Cd	0.83183 0.30081 0.62433 1.18100
Cd	Cd	0.59635 0.38853 0.59902 1.14500
Cu	Cu	0.61871 0.27634 0.64530 0.84000
Cu	Cu	0.75809 0.32838 0.72526 0.88400
Cu	Cu	0.66542 0.25834 0.75134 0.88700
Cu	Cu	0.64530 0.36768 0.71278 0.85000
Cu	Cu	0.73205 0.23655 0.65721 0.88500
Cu	Cu	0.71188 0.34573 0.61866 0.88100
C 	C 	0.66350 0.22300 0.40590 0.11100
H 	H 	0.64430 0.23570 0.38010 -0.01600
C 	C 	0.71770 0.16820 0.43400 0.12800
H 	H 	0.73900 0.14150 0.42800 -0.02600
C 	C 	0.71640 0.18580 0.48010 -0.23200
H 	H 	0.73510 0.17070 0.50500 0.09800
C 	C 	0.68660 0.22720 0.49010 0.16900
C 	C 	0.75930 0.25360 0.80360 0.17900
H 	H 	0.78650 0.27150 0.81970 -0.03300
H 	H 	0.73990 0.23680 0.82890 -0.03400
C 	C 	0.54290 0.33190 0.69910 0.23600
H 	H 	0.53050 0.36410 0.70920 -0.09600
H 	H 	0.51840 0.31830 0.67620 -0.10100
C 	C 	0.54560 0.29850 0.74450 -0.26500
C 	C 	0.58250 0.31760 0.78350 0.19900
H 	H 	0.58070 0.29580 0.81170 -0.03600
H 	H 	0.57060 0.34970 0.79430 -0.03700
C 	C 	0.68560 0.24940 0.54430 -0.22600
C 	C 	0.65070 0.29400 0.54580 0.20800
H 	H 	0.61680 0.28380 0.53630 -0.09200
H 	H 	0.66230 0.31780 0.52160 -0.05800
C 	C 	0.66000 0.24650 0.45240 -0.22100
H 	H 	0.63990 0.27430 0.45670 0.08500
C 	C 	0.74350 0.18040 0.74530 0.16900
H 	H 	0.72700 0.16120 0.77080 -0.03800
H 	H 	0.76120 0.15770 0.72370 -0.03000
C 	C 	0.78210 0.21570 0.76910 -0.23400
C 	C 	0.81440 0.23970 0.72790 0.20100
H 	H 	0.83080 0.21380 0.70900 -0.04500
H 	H 	0.84100 0.25930 0.74300 -0.04200
C 	C 	0.69490 0.44520 0.65510 0.17200
H 	H 	0.70370 0.45680 0.62240 -0.04500
H 	H 	0.67100 0.46840 0.66910 -0.06800
C 	C 	0.74160 0.44490 0.68590 -0.21900
C 	C 	0.72990 0.43120 0.73820 0.18100
H 	H 	0.70530 0.45440 0.75110 -0.05200
H 	H 	0.76060 0.43440 0.75760 -0.03700
C 	C 	0.78450 0.41310 0.66460 0.14100
H 	H 	0.81430 0.41610 0.68540 -0.03100
H 	H 	0.79330 0.42510 0.63210 -0.04000
C 	C 	0.55970 0.24680 0.72960 0.21800
H 	H 	0.53430 0.23470 0.70670 -0.08500
H 	H 	0.55840 0.22600 0.75860 -0.05900
C 	C 	0.74090 0.26550 0.55500 0.19800
H 	H 	0.75090 0.29060 0.53150 -0.05700
H 	H 	0.76330 0.23750 0.55070 -0.05500
C 	C 	0.49390 0.29680 0.77150 0.20200
C 	C 	0.81690 0.18130 0.61060 0.61400
C 	C 	0.76450 0.49660 0.68630 0.18600
C 	C 	0.62820 0.16670 0.80780 0.64500
C 	C 	0.81920 0.18240 0.80110 0.25500
C 	C 	0.80370 0.15290 0.83430 -0.29700
H 	H 	0.76890 0.14750 0.83600 0.11900
C 	C 	0.89990 0.16290 0.83610 0.17600
H 	H 	0.93460 0.16960 0.83590 -0.06100
C 	C 	0.86830 0.18710 0.80420 -0.30700
H 	H 	0.88350 0.20910 0.78250 0.12600
C 	C 	0.83410 0.12780 0.86850 0.15800
H 	H 	0.81910 0.10870 0.89290 -0.05800
C 	C 	0.62100 0.14050 0.85640 -1.10400
H 	H 	0.61140 0.10690 0.85050 0.33800
H 	H 	0.65220 0.14120 0.87470 0.34000
H 	H 	0.59490 0.15660 0.87500 0.33800
C 	C 	0.46520 0.33850 0.77910 -0.24100
H 	H 	0.47690 0.36800 0.76600 0.09500
C 	C 	0.47500 0.25700 0.79420 -0.26000
H 	H 	0.49200 0.22710 0.79210 0.10600
C 	C 	0.84040 0.13290 0.58680 -0.96600
H 	H 	0.87360 0.14000 0.57420 0.29600
H 	H 	0.84260 0.10760 0.61130 0.30300
H 	H 	0.81900 0.12200 0.56030 0.30000
C 	C 	0.43030 0.26030 0.82060 0.13900
H 	H 	0.41810 0.23140 0.83460 -0.04000
C 	C 	0.41980 0.33920 0.80500 0.12600
H 	H 	0.40070 0.36790 0.80610 -0.05100
C 	C 	0.76740 0.52430 0.64650 -0.24000
H 	H 	0.75430 0.51290 0.61680 0.09800
C 	C 	0.78280 0.51840 0.72720 -0.21600
H 	H 	0.77810 0.50270 0.75730 0.09700
C 	C 	0.80990 0.56590 0.72670 0.09000
H 	H 	0.82340 0.57870 0.75570 -0.02200
C 	C 	0.79120 0.57290 0.64900 0.12400
H 	H 	0.78880 0.59290 0.62130 -0.04400
C 	C 	0.82170 0.36530 0.81030 0.51200
C 	C 	0.87670 0.37030 0.83630 -0.83000
H 	H 	0.87220 0.37760 0.87070 0.25500
H 	H 	0.89490 0.33980 0.83290 0.26200
H 	H 	0.89550 0.39630 0.82090 0.25400
C 	C 	0.65450 0.44200 0.86280 1.22500
C 	C 	0.63290 0.48590 0.88870 -1.78200
H 	H 	0.63880 0.51490 0.86930 0.54500
H 	H 	0.59700 0.48150 0.89320 0.53900
H 	H 	0.64890 0.48960 0.92020 0.54600
C 	C 	0.70130 0.40680 0.52770 0.34600
C 	C 	0.66720 0.20760 0.57750 0.18500
H 	H 	0.68990 0.17970 0.57400 -0.04800
H 	H 	0.63370 0.19730 0.56680 -0.07800
C 	C 	0.72400 0.41690 0.47210 -0.69700
H 	H 	0.75900 0.40730 0.47100 0.22700
H 	H 	0.70500 0.39790 0.44860 0.21400
H 	H 	0.72110 0.45120 0.46440 0.22000
N 	N 	0.69160 0.18510 0.39690 -0.25900
N 	N 	0.88210 0.13110 0.86600 -0.20900
N 	N 	0.40380 0.29990 0.82780 -0.28300
N 	N 	0.81460 0.58970 0.68560 -0.27300
O 	O 	0.66470 0.22120 0.62870 -0.59300
O 	O 	0.70550 0.20700 0.71740 -0.56600
O 	O 	0.60870 0.24160 0.70730 -0.61300
O 	O 	0.72690 0.28800 0.77850 -0.56400
O 	O 	0.64120 0.21200 0.81050 -0.46500
O 	O 	0.64800 0.31760 0.59280 -0.61400
O 	O 	0.78680 0.26960 0.69560 -0.57700
O 	O 	0.59020 0.33800 0.67440 -0.63100
O 	O 	0.77470 0.17700 0.62760 -0.48600
O 	O 	0.77020 0.36040 0.66100 -0.56300
O 	O 	0.63350 0.32220 0.76990 -0.56000
O 	O 	0.74660 0.28420 0.60340 -0.59400
O 	O 	0.66980 0.39680 0.65060 -0.59500
O 	O 	0.82130 0.35360 0.76490 -0.43400
O 	O 	0.62010 0.14300 0.76920 -0.54100
O 	O 	0.73410 0.38730 0.55460 -0.40300
O 	O 	0.71030 0.38200 0.74440 -0.58500
O 	O 	0.84540 0.21780 0.60720 -0.52600
O 	O 	0.78410 0.36800 0.83800 -0.45500
O 	O 	0.63200 0.41540 0.84240 -0.78300
O 	O 	0.69740 0.43480 0.86750 -0.69700
O 	O 	0.64530 0.41910 0.53780 -0.44300
Cd	Cd	0.86580 0.84021 0.18752 1.17900
Cd	Cd	0.80172 0.64219 0.32525 1.23700
Cd	Cd	0.66817 0.69919 0.12433 1.18100
Cd	Cd	0.90365 0.61147 0.09902 1.14500
Cu	Cu	0.88129 0.72366 0.14530 0.84000
Cu	Cu	0.74191 0.67162 0.22526 0.88400
Cu	Cu	0.83458 0.74166 0.25134 0.88700
Cu	Cu	0.85470 0.63232 0.21278 0.85000
Cu	Cu	0.76795 0.76345 0.15721 0.88500
Cu	Cu	0.78812 0.65427 0.11866 0.88100
C 	C 	0.83650 0.77700 0.90590 0.11100
H 	H 	0.85570 0.76430 0.88010 -0.01600
C 	C 	0.78230 0.83180 0.93400 0.12700
H 	H 	0.76100 0.85850 0.92800 -0.02600
C 	C 	0.78360 0.81420 0.98010 -0.23100
H 	H 	0.76490 0.82930 0.00500 0.09800
C 	C 	0.81340 0.77280 0.99010 0.16900
C 	C 	0.74070 0.74640 0.30360 0.17900
H 	H 	0.71350 0.72850 0.31970 -0.03300
H 	H 	0.76010 0.76320 0.32890 -0.03400
C 	C 	0.95710 0.66810 0.19910 0.23600
H 	H 	0.96950 0.63590 0.20920 -0.09600
H 	H 	0.98160 0.68170 0.17620 -0.10100
C 	C 	0.95440 0.70150 0.24450 -0.26500
C 	C 	0.91750 0.68240 0.28350 0.19900
H 	H 	0.91930 0.70420 0.31170 -0.03600
H 	H 	0.92940 0.65030 0.29430 -0.03700
C 	C 	0.81440 0.75060 0.04430 -0.22600
C 	C 	0.84930 0.70600 0.04580 0.20900
H 	H 	0.88320 0.71620 0.03630 -0.09300
H 	H 	0.83770 0.68220 0.02160 -0.05800
C 	C 	0.84000 0.75350 0.95240 -0.22100
H 	H 	0.86010 0.72570 0.95670 0.08600
C 	C 	0.75650 0.81960 0.24530 0.16900
H 	H 	0.77300 0.83880 0.27080 -0.03800
H 	H 	0.73880 0.84230 0.22370 -0.03000
C 	C 	0.71790 0.78430 0.26910 -0.23400
C 	C 	0.68560 0.76030 0.22790 0.20100
H 	H 	0.66920 0.78620 0.20900 -0.04500
H 	H 	0.65900 0.74070 0.24300 -0.04200
C 	C 	0.80510 0.55480 0.15510 0.17200
H 	H 	0.79630 0.54320 0.12240 -0.04500
H 	H 	0.82900 0.53160 0.16910 -0.06800
C 	C 	0.75840 0.55510 0.18590 -0.21900
C 	C 	0.77010 0.56880 0.23820 0.18100
H 	H 	0.79470 0.54560 0.25110 -0.05200
H 	H 	0.73940 0.56560 0.25760 -0.03700
C 	C 	0.71550 0.58690 0.16460 0.14100
H 	H 	0.68570 0.58390 0.18540 -0.03100
H 	H 	0.70670 0.57490 0.13210 -0.04000
C 	C 	0.94030 0.75320 0.22960 0.21800
H 	H 	0.96570 0.76530 0.20670 -0.08500
H 	H 	0.94160 0.77400 0.25860 -0.05900
C 	C 	0.75910 0.73450 0.05500 0.19800
H 	H 	0.74910 0.70940 0.03150 -0.05700
H 	H 	0.73670 0.76250 0.05070 -0.05500
C 	C 	0.00610 0.70320 0.27150 0.20300
C 	C 	0.68310 0.81870 0.11060 0.61400
C 	C 	0.73550 0.50340 0.18630 0.18600
C 	C 	0.87180 0.83330 0.30780 0.64500
C 	C 	0.68080 0.81760 0.30110 0.25500
C 	C 	0.69630 0.84710 0.33430 -0.29700
H 	H 	0.73110 0.85250 0.33600 0.11900
C 	C 	0.60010 0.83710 0.33610 0.17600
H 	H 	0.56540 0.83040 0.33590 -0.06100
C 	C 	0.63170 0.81290 0.30420 -0.30700
H 	H 	0.61650 0.79090 0.28250 0.12600
C 	C 	0.66590 0.87220 0.36850 0.15800
H 	H 	0.68090 0.89130 0.39290 -0.05800
C 	C 	0.87900 0.85950 0.35640 -1.10400
H 	H 	0.88860 0.89310 0.35050 0.33800
H 	H 	0.84780 0.85880 0.37470 0.34000
H 	H 	0.90510 0.84340 0.37500 0.33800
C 	C 	0.03480 0.66150 0.27910 -0.24100
H 	H 	0.02310 0.63200 0.26600 0.09500
C 	C 	0.02500 0.74300 0.29420 -0.26000
H 	H 	0.00800 0.77290 0.29210 0.10600
C 	C 	0.65960 0.86710 0.08680 -0.96600
H 	H 	0.62640 0.86000 0.07420 0.29600
H 	H 	0.65740 0.89240 0.11130 0.30300
H 	H 	0.68100 0.87800 0.06030 0.30000
C 	C 	0.06970 0.73970 0.32060 0.13900
H 	H 	0.08190 0.76860 0.33460 -0.04000
C 	C 	0.08020 0.66080 0.30500 0.12600
H 	H 	0.09930 0.63210 0.30610 -0.05100
C 	C 	0.73260 0.47570 0.14650 -0.24000
H 	H 	0.74570 0.48710 0.11680 0.09800
C 	C 	0.71720 0.48160 0.22720 -0.21600
H 	H 	0.72190 0.49730 0.25730 0.09700
C 	C 	0.69010 0.43410 0.22670 0.09000
H 	H 	0.67660 0.42130 0.25570 -0.02200
C 	C 	0.70880 0.42710 0.14900 0.12400
H 	H 	0.71120 0.40710 0.12130 -0.04400
C 	C 	0.67830 0.63470 0.31030 0.51200
C 	C 	0.62330 0.62970 0.33630 -0.83000
H 	H 	0.62780 0.62240 0.37070 0.25500
H 	H 	0.60510 0.66020 0.33290 0.26200
H 	H 	0.60450 0.60370 0.32090 0.25400
C 	C 	0.84550 0.55800 0.36280 1.22500
C 	C 	0.86710 0.51410 0.38870 -1.78200
H 	H 	0.86120 0.48510 0.36930 0.54500
H 	H 	0.90300 0.51850 0.39320 0.53900
H 	H 	0.85110 0.51040 0.42020 0.54600
C 	C 	0.79870 0.59320 0.02770 0.34600
C 	C 	0.83280 0.79240 0.07750 0.18500
H 	H 	0.81010 0.82030 0.07400 -0.04800
H 	H 	0.86630 0.80270 0.06680 -0.07800
C 	C 	0.77600 0.58310 0.97210 -0.69700
H 	H 	0.74100 0.59270 0.97100 0.22700
H 	H 	0.79500 0.60210 0.94860 0.21400
H 	H 	0.77890 0.54880 0.96440 0.22000
N 	N 	0.80840 0.81490 0.89690 -0.25900
N 	N 	0.61790 0.86890 0.36600 -0.20900
N 	N 	0.09620 0.70010 0.32780 -0.28300
N 	N 	0.68540 0.41030 0.18560 -0.27300
O 	O 	0.83530 0.77880 0.12870 -0.59300
O 	O 	0.79450 0.79300 0.21740 -0.56600
O 	O 	0.89130 0.75840 0.20730 -0.61300
O 	O 	0.77310 0.71200 0.27850 -0.56400
O 	O 	0.85880 0.78800 0.31050 -0.46500
O 	O 	0.85200 0.68240 0.09280 -0.61400
O 	O 	0.71320 0.73040 0.19560 -0.57700
O 	O 	0.90980 0.66200 0.17440 -0.63100
O 	O 	0.72530 0.82300 0.12760 -0.48600
O 	O 	0.72980 0.63960 0.16100 -0.56300
O 	O 	0.86650 0.67780 0.26990 -0.56000
O 	O 	0.75340 0.71580 0.10340 -0.59400
O 	O 	0.83020 0.60320 0.15060 -0.59500
O 	O 	0.67870 0.64640 0.26490 -0.43400
O 	O 	0.87990 0.85700 0.26920 -0.54100
O 	O 	0.76590 0.61270 0.05460 -0.40300
O 	O 	0.78970 0.61800 0.24440 -0.58500
O 	O 	0.65460 0.78220 0.10720 -0.52600
O 	O 	0.71590 0.63200 0.33800 -0.45500
O 	O 	0.86800 0.58460 0.34240 -0.78300
O 	O 	0.80260 0.56520 0.36750 -0.69700
O 	O 	0.85470 0.58090 0.03780 -0.44300
