data_crystal

_cell_length_a 12.32150
_cell_length_b 30.71100
_cell_length_c 22.72240
_cell_angle_alpha 90.00000
_cell_angle_beta  94.22900
_cell_angle_gamma 90.00000

_symmetry_space_group_name_	'P 1'
_symmetry_space_group_name_H-M	'P 1'

loop_
_symmetry_equiv_pos_as_xyz
  x,y,z

loop_
_atom_site_label
_atom_site_type_symbol
_atom_site_fract_x
_atom_site_fract_y
_atom_site_fract_z
_atom_site_charge
Zn	Zn	0.74016 0.91717 0.66102 1.23900
Zn	Zn	0.80535 0.63082 0.48792 1.24400
O 	O 	0.44770 0.10650 0.47561 -0.46700
O 	O 	0.40140 0.09769 0.38137 -0.49100
O 	O 	0.67480 0.08083 0.23754 -0.46600
O 	O 	0.84170 0.07690 0.26643 -0.53400
O 	O 	0.17420 0.09824 0.49172 -0.48200
O 	O 	0.22340 0.06107 0.57188 -0.29100
O 	O 	0.94490 0.96293 0.65541 -0.46100
O 	O 	0.77430 0.97000 0.62153 -0.48000
O 	O 	0.82080 0.86344 0.65315 -0.49400
O 	O 	0.74300 0.82754 0.57606 -0.46200
O 	O 	0.82800 0.67482 0.54896 -0.44100
O 	O 	0.93000 0.63838 0.61442 -0.26600
C 	C 	0.47070 0.09827 0.42388 0.42500
C 	C 	0.58480 0.08911 0.41131 -0.12400
C 	C 	0.66460 0.08117 0.45614 0.00900
H 	H 	0.64700 0.08290 0.49520 0.05400
C 	C 	0.77130 0.07058 0.44395 -0.00900
C 	C 	0.79570 0.07015 0.38570 0.01200
H 	H 	0.86670 0.06420 0.37680 0.04300
C 	C 	0.71760 0.07829 0.34022 -0.13500
C 	C 	0.61220 0.08742 0.35279 0.07000
H 	H 	0.55930 0.09250 0.32220 0.04300
C 	C 	0.74840 0.07770 0.27720 0.45500
C 	C 	0.85360 0.05767 0.49202 0.01000
C 	C 	0.82540 0.02917 0.53570 -0.02800
H 	H 	0.75380 0.01980 0.53650 0.06400
C 	C 	0.90350 0.01454 0.57828 -0.05600
C 	C 	0.87390 0.98005 0.62243 0.37900
C 	C 	0.00930 0.02876 0.57787 -0.01100
H 	H 	0.06110 0.01910 0.60680 0.04200
C 	C 	0.03990 0.05755 0.53462 -0.11100
C 	C 	0.96090 0.07168 0.49139 0.01800
H 	H 	0.98030 0.09060 0.46200 0.05800
C 	C 	0.15500 0.07303 0.53310 0.36600
C 	C 	0.80270 0.82992 0.62321 0.41600
C 	C 	0.85390 0.78835 0.64536 -0.08800
C 	C 	0.91570 0.78774 0.70020 -0.04100
H 	H 	0.92210 0.81300 0.72270 0.06500
C 	C 	0.96680 0.75017 0.72087 0.06800
C 	C 	0.95500 0.71275 0.68722 -0.05600
H 	H 	0.98850 0.68720 0.70080 0.08300
C 	C 	0.89350 0.71278 0.63316 -0.05900
C 	C 	0.84400 0.75038 0.61316 0.02300
H 	H 	0.80280 0.75030 0.57720 0.05800
C 	C 	0.88320 0.67132 0.59678 0.36200
Zn	Zn	0.24016 0.41717 0.66102 1.23700
Zn	Zn	0.30535 0.13082 0.48792 1.24200
O 	O 	0.94770 0.60650 0.47561 -0.47000
O 	O 	0.90140 0.59769 0.38137 -0.49400
O 	O 	0.17480 0.58083 0.23754 -0.47800
O 	O 	0.34170 0.57690 0.26643 -0.55000
O 	O 	0.67420 0.59824 0.49172 -0.47500
O 	O 	0.72340 0.56107 0.57188 -0.28500
O 	O 	0.44490 0.46293 0.65541 -0.48200
O 	O 	0.27430 0.47000 0.62153 -0.48700
O 	O 	0.32080 0.36344 0.65315 -0.50200
O 	O 	0.24300 0.32754 0.57606 -0.46700
O 	O 	0.32800 0.17482 0.54896 -0.44700
O 	O 	0.43000 0.13838 0.61442 -0.27700
C 	C 	0.97070 0.59827 0.42388 0.47000
C 	C 	0.08480 0.58911 0.41131 -0.18300
C 	C 	0.16460 0.58117 0.45614 0.04100
H 	H 	0.14700 0.58290 0.49520 0.03300
C 	C 	0.27130 0.57058 0.44395 -0.03700
C 	C 	0.29570 0.57015 0.38570 0.03500
H 	H 	0.36670 0.56420 0.37680 0.02800
C 	C 	0.21760 0.57829 0.34022 -0.16400
C 	C 	0.11220 0.58742 0.35279 0.10300
H 	H 	0.05930 0.59250 0.32220 0.02100
C 	C 	0.24840 0.57770 0.27720 0.46700
C 	C 	0.35360 0.55767 0.49202 0.02200
C 	C 	0.32540 0.52917 0.53570 -0.02300
H 	H 	0.25380 0.51980 0.53650 0.05900
C 	C 	0.40350 0.51454 0.57828 -0.09900
C 	C 	0.37390 0.48005 0.62243 0.39000
C 	C 	0.50930 0.52876 0.57787 0.03100
H 	H 	0.56110 0.51910 0.60680 0.03500
C 	C 	0.53990 0.55755 0.53462 -0.08200
C 	C 	0.46090 0.57168 0.49139 -0.03100
H 	H 	0.48030 0.59060 0.46200 0.06100
C 	C 	0.65500 0.57303 0.53310 0.35900
C 	C 	0.30270 0.32992 0.62321 0.42300
C 	C 	0.35390 0.28835 0.64536 -0.11300
C 	C 	0.41570 0.28774 0.70020 -0.00700
H 	H 	0.42210 0.31300 0.72270 0.04200
C 	C 	0.46680 0.25017 0.72087 0.00100
C 	C 	0.45500 0.21275 0.68722 -0.02000
H 	H 	0.48850 0.18720 0.70080 0.06000
C 	C 	0.39350 0.21278 0.63316 -0.08600
C 	C 	0.34400 0.25038 0.61316 0.04300
H 	H 	0.30280 0.25030 0.57720 0.04900
C 	C 	0.38320 0.17132 0.59678 0.37000
Zn	Zn	0.25984 0.91717 0.83898 1.23800
Zn	Zn	0.19465 0.63082 0.01208 1.24100
O 	O 	0.55230 0.10650 0.02439 -0.47000
O 	O 	0.59860 0.09769 0.11863 -0.49300
O 	O 	0.32520 0.08083 0.26246 -0.47000
O 	O 	0.15830 0.07690 0.23357 -0.55500
O 	O 	0.82580 0.09824 0.00828 -0.46600
O 	O 	0.77660 0.06107 0.92812 -0.28500
O 	O 	0.05510 0.96293 0.84459 -0.49900
O 	O 	0.22570 0.97000 0.87847 -0.48800
O 	O 	0.17920 0.86344 0.84685 -0.50700
O 	O 	0.25700 0.82754 0.92394 -0.46800
O 	O 	0.17200 0.67482 0.95104 -0.45100
O 	O 	0.07000 0.63838 0.88558 -0.28900
C 	C 	0.52930 0.09827 0.07612 0.42800
C 	C 	0.41520 0.08911 0.08869 -0.13200
C 	C 	0.33540 0.08117 0.04386 0.01700
H 	H 	0.35300 0.08290 0.00480 0.04800
C 	C 	0.22870 0.07058 0.05605 -0.02500
C 	C 	0.20430 0.07015 0.11430 0.02400
H 	H 	0.13330 0.06420 0.12320 0.02500
C 	C 	0.28240 0.07829 0.15978 -0.15000
C 	C 	0.38780 0.08742 0.14721 0.07800
H 	H 	0.44070 0.09250 0.17780 0.04000
C 	C 	0.25160 0.07770 0.22280 0.46200
C 	C 	0.14640 0.05767 0.00798 0.02100
C 	C 	0.17460 0.02917 0.96430 -0.01100
H 	H 	0.24620 0.01980 0.96350 0.05700
C 	C 	0.09650 0.01454 0.92172 -0.14100
C 	C 	0.12610 0.98005 0.87757 0.40100
C 	C 	0.99070 0.02876 0.92213 0.07500
H 	H 	0.93890 0.01910 0.89320 0.02700
C 	C 	0.96010 0.05755 0.96538 -0.05800
C 	C 	0.03910 0.07168 0.00861 -0.06700
H 	H 	0.01970 0.09060 0.03800 0.06100
C 	C 	0.84500 0.07303 0.96690 0.35300
C 	C 	0.19730 0.82992 0.87679 0.43000
C 	C 	0.14610 0.78835 0.85464 -0.13600
C 	C 	0.08430 0.78774 0.79980 0.02800
H 	H 	0.07790 0.81300 0.77730 0.02200
C 	C 	0.03320 0.75017 0.77913 -0.06500
C 	C 	0.04500 0.71275 0.81278 0.01600
H 	H 	0.01150 0.68720 0.79920 0.03600
C 	C 	0.10650 0.71278 0.86684 -0.11100
C 	C 	0.15600 0.75038 0.88684 0.06400
H 	H 	0.19720 0.75030 0.92280 0.04200
C 	C 	0.11680 0.67132 0.90322 0.37800
Zn	Zn	0.75984 0.41717 0.83898 1.23900
Zn	Zn	0.69465 0.13082 0.01208 1.24200
O 	O 	0.05230 0.60650 0.02439 -0.46800
O 	O 	0.09860 0.59769 0.11863 -0.49000
O 	O 	0.82520 0.58083 0.26246 -0.45900
O 	O 	0.65830 0.57690 0.23357 -0.54400
O 	O 	0.32580 0.59824 0.00828 -0.47500
O 	O 	0.27660 0.56107 0.92812 -0.29200
O 	O 	0.55510 0.46293 0.84459 -0.48200
O 	O 	0.72570 0.47000 0.87847 -0.48100
O 	O 	0.67920 0.36344 0.84685 -0.50000
O 	O 	0.75700 0.32754 0.92394 -0.46300
O 	O 	0.67200 0.17482 0.95104 -0.44600
O 	O 	0.57000 0.13838 0.88558 -0.27800
C 	C 	0.02930 0.59827 0.07612 0.38300
C 	C 	0.91520 0.58911 0.08869 -0.07400
C 	C 	0.83540 0.58117 0.04386 -0.01500
H 	H 	0.85300 0.58290 0.00480 0.06900
C 	C 	0.72870 0.57058 0.05605 0.00200
C 	C 	0.70430 0.57015 0.11430 0.00200
H 	H 	0.63330 0.56420 0.12320 0.04000
C 	C 	0.78240 0.57829 0.15978 -0.12200
C 	C 	0.88780 0.58742 0.14721 0.04600
H 	H 	0.94070 0.59250 0.17780 0.06200
C 	C 	0.75160 0.57770 0.22280 0.45200
C 	C 	0.64640 0.55767 0.00798 0.01100
C 	C 	0.67460 0.52917 0.96430 -0.01700
H 	H 	0.74620 0.51980 0.96350 0.06200
C 	C 	0.59650 0.51454 0.92172 -0.10000
C 	C 	0.62610 0.48005 0.87757 0.39100
C 	C 	0.49070 0.52876 0.92213 0.03500
H 	H 	0.43890 0.51910 0.89320 0.03300
C 	C 	0.46010 0.55755 0.96538 -0.08800
C 	C 	0.53910 0.57168 0.00861 -0.01900
H 	H 	0.51970 0.59060 0.03800 0.05800
C 	C 	0.34500 0.57303 0.96690 0.36100
C 	C 	0.69730 0.32992 0.87679 0.42400
C 	C 	0.64610 0.28835 0.85464 -0.11100
C 	C 	0.58430 0.28774 0.79980 -0.00600
H 	H 	0.57790 0.31300 0.77730 0.04400
C 	C 	0.53320 0.25017 0.77913 0.00200
C 	C 	0.54500 0.21275 0.81278 -0.02000
H 	H 	0.51150 0.18720 0.79920 0.05900
C 	C 	0.60650 0.21278 0.86684 -0.08400
C 	C 	0.65600 0.25038 0.88684 0.04300
H 	H 	0.69720 0.25030 0.92280 0.05100
C 	C 	0.61680 0.17132 0.90322 0.37000
Zn	Zn	0.25984 0.08283 0.33898 1.23800
Zn	Zn	0.19465 0.36918 0.51208 1.24100
O 	O 	0.55230 0.89350 0.52439 -0.47000
O 	O 	0.59860 0.90231 0.61863 -0.49300
O 	O 	0.32520 0.91917 0.76246 -0.47000
O 	O 	0.15830 0.92310 0.73357 -0.55400
O 	O 	0.82580 0.90176 0.50828 -0.46800
O 	O 	0.77660 0.93893 0.42812 -0.28500
O 	O 	0.05510 0.03707 0.34459 -0.50000
O 	O 	0.22570 0.03000 0.37847 -0.48800
O 	O 	0.17920 0.13656 0.34685 -0.50700
O 	O 	0.25700 0.17246 0.42394 -0.46800
O 	O 	0.17200 0.32518 0.45104 -0.45100
O 	O 	0.07000 0.36162 0.38558 -0.28900
C 	C 	0.52930 0.90173 0.57612 0.42800
C 	C 	0.41520 0.91089 0.58869 -0.13200
C 	C 	0.33540 0.91883 0.54386 0.01700
H 	H 	0.35300 0.91710 0.50480 0.04800
C 	C 	0.22870 0.92942 0.55605 -0.02500
C 	C 	0.20430 0.92985 0.61430 0.02400
H 	H 	0.13330 0.93580 0.62320 0.02500
C 	C 	0.28240 0.92171 0.65978 -0.15000
C 	C 	0.38780 0.91258 0.64721 0.07800
H 	H 	0.44070 0.90750 0.67780 0.04000
C 	C 	0.25160 0.92230 0.72280 0.46200
C 	C 	0.14640 0.94233 0.50798 0.02100
C 	C 	0.17460 0.97083 0.46430 -0.00900
H 	H 	0.24620 0.98020 0.46350 0.05700
C 	C 	0.09650 0.98546 0.42172 -0.14200
C 	C 	0.12610 0.01995 0.37757 0.40200
C 	C 	0.99070 0.97124 0.42213 0.07700
H 	H 	0.93890 0.98090 0.39320 0.02700
C 	C 	0.96010 0.94245 0.46538 -0.05700
C 	C 	0.03910 0.92832 0.50861 -0.06900
H 	H 	0.01970 0.90940 0.53800 0.06200
C 	C 	0.84500 0.92697 0.46690 0.35500
C 	C 	0.19730 0.17008 0.37679 0.43000
C 	C 	0.14610 0.21165 0.35464 -0.13600
C 	C 	0.08430 0.21226 0.29980 0.02900
H 	H 	0.07790 0.18700 0.27730 0.02100
C 	C 	0.03320 0.24983 0.27913 -0.06700
C 	C 	0.04500 0.28725 0.31278 0.01700
H 	H 	0.01150 0.31280 0.29920 0.03600
C 	C 	0.10650 0.28722 0.36684 -0.11100
C 	C 	0.15600 0.24962 0.38684 0.06400
H 	H 	0.19720 0.24970 0.42280 0.04200
C 	C 	0.11680 0.32868 0.40322 0.37800
Zn	Zn	0.75984 0.58283 0.33898 1.23900
Zn	Zn	0.69465 0.86918 0.51208 1.24200
O 	O 	0.05230 0.39350 0.52439 -0.46900
O 	O 	0.09860 0.40231 0.61863 -0.49000
O 	O 	0.82520 0.41917 0.76246 -0.45900
O 	O 	0.65830 0.42310 0.73357 -0.54400
O 	O 	0.32580 0.40176 0.50828 -0.47600
O 	O 	0.27660 0.43893 0.42812 -0.29200
O 	O 	0.55510 0.53707 0.34459 -0.48200
O 	O 	0.72570 0.53000 0.37847 -0.48100
O 	O 	0.67920 0.63656 0.34685 -0.50000
O 	O 	0.75700 0.67246 0.42394 -0.46300
O 	O 	0.67200 0.82518 0.45104 -0.44500
O 	O 	0.57000 0.86162 0.38558 -0.27700
C 	C 	0.02930 0.40173 0.57612 0.38400
C 	C 	0.91520 0.41089 0.58869 -0.07500
C 	C 	0.83540 0.41883 0.54386 -0.01500
H 	H 	0.85300 0.41710 0.50480 0.06900
C 	C 	0.72870 0.42942 0.55605 0.00200
C 	C 	0.70430 0.42985 0.61430 0.00200
H 	H 	0.63330 0.43580 0.62320 0.04000
C 	C 	0.78240 0.42171 0.65978 -0.12200
C 	C 	0.88780 0.41258 0.64721 0.04600
H 	H 	0.94070 0.40750 0.67780 0.06200
C 	C 	0.75160 0.42230 0.72280 0.45200
C 	C 	0.64640 0.44233 0.50798 0.00900
C 	C 	0.67460 0.47083 0.46430 -0.01400
H 	H 	0.74620 0.48020 0.46350 0.06200
C 	C 	0.59650 0.48546 0.42172 -0.10000
C 	C 	0.62610 0.51995 0.37757 0.39100
C 	C 	0.49070 0.47124 0.42213 0.03500
H 	H 	0.43890 0.48090 0.39320 0.03300
C 	C 	0.46010 0.44245 0.46538 -0.08700
C 	C 	0.53910 0.42832 0.50861 -0.02000
H 	H 	0.51970 0.40940 0.53800 0.05800
C 	C 	0.34500 0.42697 0.46690 0.36200
C 	C 	0.69730 0.67008 0.37679 0.42300
C 	C 	0.64610 0.71165 0.35464 -0.11100
C 	C 	0.58430 0.71226 0.29980 -0.00600
H 	H 	0.57790 0.68700 0.27730 0.04400
C 	C 	0.53320 0.74983 0.27913 0.00200
C 	C 	0.54500 0.78725 0.31278 -0.02000
H 	H 	0.51150 0.81280 0.29920 0.05900
C 	C 	0.60650 0.78722 0.36684 -0.08400
C 	C 	0.65600 0.74962 0.38684 0.04300
H 	H 	0.69720 0.74970 0.42280 0.05200
C 	C 	0.61680 0.82868 0.40322 0.37000
Zn	Zn	0.74016 0.08283 0.16102 1.23800
Zn	Zn	0.80535 0.36918 0.98792 1.24200
O 	O 	0.44770 0.89350 0.97561 -0.46800
O 	O 	0.40140 0.90231 0.88137 -0.49200
O 	O 	0.67480 0.91917 0.73754 -0.46700
O 	O 	0.84170 0.92310 0.76643 -0.53600
O 	O 	0.17420 0.90176 0.99172 -0.48400
O 	O 	0.22340 0.93893 0.07188 -0.29100
O 	O 	0.94490 0.03707 0.15541 -0.46000
O 	O 	0.77430 0.03000 0.12153 -0.47900
O 	O 	0.82080 0.13656 0.15315 -0.49400
O 	O 	0.74300 0.17246 0.07606 -0.46100
O 	O 	0.82800 0.32518 0.04896 -0.44000
O 	O 	0.93000 0.36162 0.11442 -0.26500
C 	C 	0.47070 0.90173 0.92388 0.42500
C 	C 	0.58480 0.91089 0.91131 -0.12400
C 	C 	0.66460 0.91883 0.95614 0.00800
H 	H 	0.64700 0.91710 0.99520 0.05300
C 	C 	0.77130 0.92942 0.94395 -0.00900
C 	C 	0.79570 0.92985 0.88570 0.01200
H 	H 	0.86670 0.93580 0.87680 0.04300
C 	C 	0.71760 0.92171 0.84022 -0.13500
C 	C 	0.61220 0.91258 0.85279 0.07000
H 	H 	0.55930 0.90750 0.82220 0.04300
C 	C 	0.74840 0.92230 0.77720 0.45500
C 	C 	0.85360 0.94233 0.99202 0.00900
C 	C 	0.82540 0.97083 0.03570 -0.02500
H 	H 	0.75380 0.98020 0.03650 0.06400
C 	C 	0.90350 0.98546 0.07828 -0.05500
C 	C 	0.87390 0.01995 0.12243 0.37900
C 	C 	0.00930 0.97124 0.07787 -0.01200
H 	H 	0.06110 0.98090 0.10680 0.04200
C 	C 	0.03990 0.94245 0.03462 -0.10900
C 	C 	0.96090 0.92832 0.99139 0.01500
H 	H 	0.98030 0.90940 0.96200 0.05800
C 	C 	0.15500 0.92697 0.03310 0.36700
C 	C 	0.80270 0.17008 0.12321 0.41600
C 	C 	0.85390 0.21165 0.14536 -0.08700
C 	C 	0.91570 0.21226 0.20020 -0.04200
H 	H 	0.92210 0.18700 0.22270 0.06500
C 	C 	0.96680 0.24983 0.22087 0.07000
C 	C 	0.95500 0.28725 0.18722 -0.05700
H 	H 	0.98850 0.31280 0.20080 0.08400
C 	C 	0.89350 0.28722 0.13316 -0.05800
C 	C 	0.84400 0.24962 0.11316 0.02200
H 	H 	0.80280 0.24970 0.07720 0.05900
C 	C 	0.88320 0.32868 0.09678 0.36200
Zn	Zn	0.24016 0.58283 0.16102 1.23700
Zn	Zn	0.30535 0.86918 0.98792 1.24200
O 	O 	0.94770 0.39350 0.97561 -0.47000
O 	O 	0.90140 0.40231 0.88137 -0.49400
O 	O 	0.17480 0.41917 0.73754 -0.47800
O 	O 	0.34170 0.42310 0.76643 -0.55000
O 	O 	0.67420 0.40176 0.99172 -0.47600
O 	O 	0.72340 0.43893 0.07188 -0.28500
O 	O 	0.44490 0.53707 0.15541 -0.48200
O 	O 	0.27430 0.53000 0.12153 -0.48700
O 	O 	0.32080 0.63656 0.15315 -0.50200
O 	O 	0.24300 0.67246 0.07606 -0.46700
O 	O 	0.32800 0.82518 0.04896 -0.44600
O 	O 	0.43000 0.86162 0.11442 -0.27600
C 	C 	0.97070 0.40173 0.92388 0.46800
C 	C 	0.08480 0.41089 0.91131 -0.18100
C 	C 	0.16460 0.41883 0.95614 0.04000
H 	H 	0.14700 0.41710 0.99520 0.03300
C 	C 	0.27130 0.42942 0.94395 -0.03600
C 	C 	0.29570 0.42985 0.88570 0.03500
H 	H 	0.36670 0.43580 0.87680 0.02800
C 	C 	0.21760 0.42171 0.84022 -0.16400
C 	C 	0.11220 0.41258 0.85279 0.10200
H 	H 	0.05930 0.40750 0.82220 0.02100
C 	C 	0.24840 0.42230 0.77720 0.46700
C 	C 	0.35360 0.44233 0.99202 0.02100
C 	C 	0.32540 0.47083 0.03570 -0.02100
H 	H 	0.25380 0.48020 0.03650 0.05900
C 	C 	0.40350 0.48546 0.07828 -0.09900
C 	C 	0.37390 0.51995 0.12243 0.39100
C 	C 	0.50930 0.47124 0.07787 0.03100
H 	H 	0.56110 0.48090 0.10680 0.03500
C 	C 	0.53990 0.44245 0.03462 -0.08100
C 	C 	0.46090 0.42832 0.99139 -0.03200
H 	H 	0.48030 0.40940 0.96200 0.06100
C 	C 	0.65500 0.42697 0.03310 0.36100
C 	C 	0.30270 0.67008 0.12321 0.42300
C 	C 	0.35390 0.71165 0.14536 -0.11300
C 	C 	0.41570 0.71226 0.20020 -0.00700
H 	H 	0.42210 0.68700 0.22270 0.04200
C 	C 	0.46680 0.74983 0.22087 0.00100
C 	C 	0.45500 0.78725 0.18722 -0.02000
H 	H 	0.48850 0.81280 0.20080 0.06000
C 	C 	0.39350 0.78722 0.13316 -0.08500
C 	C 	0.34400 0.74962 0.11316 0.04300
H 	H 	0.30280 0.74970 0.07720 0.04900
C 	C 	0.38320 0.82868 0.09678 0.37000
Zn	Zn	0.00000 0.94840 0.75000 1.17400
Zn	Zn	0.50000 0.44840 0.75000 1.18400
Zn	Zn	0.00000 0.05160 0.25000 1.17400
Zn	Zn	0.50000 0.55160 0.25000 1.18400
