data_crystal

_cell_length_a 11.37370
_cell_length_b 17.60130
_cell_length_c 17.90580
_cell_angle_alpha 90.00000
_cell_angle_beta  90.00000
_cell_angle_gamma 99.23400

_symmetry_space_group_name_	'P 1'
_symmetry_space_group_name_H-M	'P 1'

loop_
_symmetry_equiv_pos_as_xyz
  x,y,z

loop_
_atom_site_label
_atom_site_type_symbol
_atom_site_fract_x
_atom_site_fract_y
_atom_site_fract_z
_atom_site_charge
Co	Co	0.96566 0.07561 0.92205 1.16800
Co	Co	0.03434 0.42439 0.42205 1.17000
Co	Co	0.03434 0.92439 0.07795 1.16800
Co	Co	0.96566 0.57561 0.57795 1.17000
H 	H 	0.99850 0.78090 0.98120 0.16400
H 	H 	0.01130 0.70020 0.95510 0.14600
H 	H 	0.94670 0.90100 0.75470 -0.00400
H 	H 	0.99730 0.66360 0.82650 0.10300
H 	H 	0.95140 0.82360 0.66990 0.09000
H 	H 	0.52880 0.98430 0.85090 0.07000
H 	H 	0.73070 0.98250 0.85360 0.02200
H 	H 	0.77920 0.16280 0.99340 0.01100
H 	H 	0.57890 0.16510 0.99230 0.06800
H 	H 	0.35510 0.00070 0.83560 0.06400
H 	H 	0.15240 0.99960 0.83900 0.00900
H 	H 	0.19460 0.15750 0.00040 0.00600
H 	H 	0.39640 0.15120 0.00570 0.06300
H 	H 	0.00150 0.71910 0.48120 0.16500
H 	H 	0.98870 0.79980 0.45510 0.14500
H 	H 	0.05330 0.59900 0.25470 -0.00500
H 	H 	0.00270 0.83640 0.32650 0.10300
H 	H 	0.04860 0.67640 0.16990 0.08900
H 	H 	0.47120 0.51570 0.35090 0.06800
H 	H 	0.26930 0.51750 0.35360 0.01900
H 	H 	0.22080 0.33720 0.49340 0.01300
H 	H 	0.42110 0.33490 0.49230 0.06800
H 	H 	0.64490 0.49930 0.33560 0.06500
H 	H 	0.84760 0.50040 0.33900 0.00700
H 	H 	0.80540 0.34250 0.50040 0.00600
H 	H 	0.60360 0.34880 0.50570 0.06100
H 	H 	0.00150 0.21910 0.01880 0.16400
H 	H 	0.98870 0.29980 0.04490 0.14600
H 	H 	0.05330 0.09900 0.24530 -0.00400
H 	H 	0.00270 0.33640 0.17350 0.10300
H 	H 	0.04860 0.17640 0.33010 0.09000
H 	H 	0.47120 0.01570 0.14910 0.07000
H 	H 	0.26930 0.01750 0.14640 0.02200
H 	H 	0.22080 0.83720 0.00660 0.01100
H 	H 	0.42110 0.83490 0.00770 0.06800
H 	H 	0.64490 0.99930 0.16440 0.06400
H 	H 	0.84760 0.00040 0.16100 0.00900
H 	H 	0.80540 0.84250 0.99960 0.00600
H 	H 	0.60360 0.84880 0.99430 0.06300
H 	H 	0.99850 0.28090 0.51880 0.16500
H 	H 	0.01130 0.20020 0.54490 0.14500
H 	H 	0.94670 0.40100 0.74530 -0.00500
H 	H 	0.99730 0.16360 0.67350 0.10300
H 	H 	0.95140 0.32360 0.83010 0.08900
H 	H 	0.52880 0.48430 0.64910 0.06800
H 	H 	0.73070 0.48250 0.64640 0.01900
H 	H 	0.77920 0.66280 0.50660 0.01300
H 	H 	0.57890 0.66510 0.50770 0.06800
H 	H 	0.35510 0.50070 0.66440 0.06500
H 	H 	0.15240 0.49960 0.66100 0.00700
H 	H 	0.19460 0.65750 0.49960 0.00600
H 	H 	0.39640 0.65120 0.49430 0.06100
C 	C 	0.99260 0.84690 0.84870 -0.20700
C 	C 	0.00290 0.77380 0.86670 0.19700
C 	C 	0.99510 0.71560 0.81310 -0.17500
C 	C 	0.98380 0.73730 0.73940 0.05100
C 	C 	0.96530 0.81100 0.72040 -0.14000
C 	C 	0.96720 0.86490 0.77520 0.11500
C 	C 	0.98460 0.90370 0.91450 0.44300
C 	C 	0.98080 0.67320 0.67700 0.25200
C 	C 	0.53020 0.07420 0.92200 0.05400
C 	C 	0.57900 0.02080 0.88050 -0.11400
C 	C 	0.69910 0.02020 0.88190 0.05300
C 	C 	0.72850 0.12620 0.96420 0.06500
C 	C 	0.60950 0.12730 0.96360 -0.11500
C 	C 	0.40880 0.07600 0.92060 0.03200
C 	C 	0.32490 0.03240 0.87150 -0.10100
C 	C 	0.20320 0.03240 0.87180 0.06600
C 	C 	0.22840 0.12430 0.96780 0.04900
C 	C 	0.34950 0.12090 0.96920 -0.09600
C 	C 	0.00740 0.65310 0.34870 -0.20800
C 	C 	0.99710 0.72620 0.36670 0.19800
C 	C 	0.00490 0.78440 0.31310 -0.17400
C 	C 	0.01620 0.76270 0.23940 0.05000
C 	C 	0.03470 0.68900 0.22040 -0.14000
C 	C 	0.03280 0.63510 0.27520 0.11600
C 	C 	0.01540 0.59630 0.41450 0.44800
C 	C 	0.01920 0.82680 0.17700 0.25300
C 	C 	0.46980 0.42580 0.42200 0.05300
C 	C 	0.42100 0.47920 0.38050 -0.11200
C 	C 	0.30090 0.47980 0.38190 0.05600
C 	C 	0.27150 0.37380 0.46420 0.06500
C 	C 	0.39050 0.37270 0.46360 -0.11500
C 	C 	0.59120 0.42400 0.42060 0.03200
C 	C 	0.67510 0.46760 0.37150 -0.10200
C 	C 	0.79680 0.46760 0.37180 0.06700
C 	C 	0.77160 0.37570 0.46780 0.04600
C 	C 	0.65050 0.37910 0.46920 -0.09300
C 	C 	0.00740 0.15310 0.15130 -0.20700
C 	C 	0.99710 0.22620 0.13330 0.19700
C 	C 	0.00490 0.28440 0.18690 -0.17500
C 	C 	0.01620 0.26270 0.26060 0.05100
C 	C 	0.03470 0.18900 0.27960 -0.14000
C 	C 	0.03280 0.13510 0.22480 0.11500
C 	C 	0.01540 0.09630 0.08550 0.44300
C 	C 	0.01920 0.32680 0.32300 0.25200
C 	C 	0.46980 0.92580 0.07800 0.05400
C 	C 	0.42100 0.97920 0.11950 -0.11400
C 	C 	0.30090 0.97980 0.11810 0.05300
C 	C 	0.27150 0.87380 0.03580 0.06500
C 	C 	0.39050 0.87270 0.03640 -0.11500
C 	C 	0.59120 0.92400 0.07940 0.03200
C 	C 	0.67510 0.96760 0.12850 -0.10100
C 	C 	0.79680 0.96760 0.12820 0.06600
C 	C 	0.77160 0.87570 0.03220 0.04900
C 	C 	0.65050 0.87910 0.03080 -0.09600
C 	C 	0.99260 0.34690 0.65130 -0.20800
C 	C 	0.00290 0.27380 0.63330 0.19800
C 	C 	0.99510 0.21560 0.68690 -0.17400
C 	C 	0.98380 0.23730 0.76060 0.05000
C 	C 	0.96530 0.31100 0.77960 -0.14000
C 	C 	0.96720 0.36490 0.72480 0.11600
C 	C 	0.98460 0.40370 0.58550 0.44800
C 	C 	0.98080 0.17320 0.82300 0.25300
C 	C 	0.53020 0.57420 0.57800 0.05300
C 	C 	0.57900 0.52080 0.61950 -0.11200
C 	C 	0.69910 0.52020 0.61810 0.05600
C 	C 	0.72850 0.62620 0.53580 0.06500
C 	C 	0.60950 0.62730 0.53640 -0.11500
C 	C 	0.40880 0.57600 0.57940 0.03200
C 	C 	0.32490 0.53240 0.62850 -0.10200
C 	C 	0.20320 0.53240 0.62820 0.06700
C 	C 	0.22840 0.62430 0.53220 0.04600
C 	C 	0.34950 0.62090 0.53080 -0.09300
N 	N 	0.00400 0.74820 0.94480 -0.29800
N 	N 	0.77630 0.07330 0.92360 -0.21100
N 	N 	0.15920 0.07810 0.91780 -0.21700
N 	N 	0.99600 0.75180 0.44480 -0.30000
N 	N 	0.22370 0.42670 0.42360 -0.21000
N 	N 	0.84080 0.42190 0.41780 -0.21800
N 	N 	0.99600 0.25180 0.05520 -0.29800
N 	N 	0.22370 0.92670 0.07640 -0.21100
N 	N 	0.84080 0.92190 0.08220 -0.21700
N 	N 	0.00400 0.24820 0.55520 -0.30000
N 	N 	0.77630 0.57330 0.57640 -0.21000
N 	N 	0.15920 0.57810 0.58220 -0.21800
O 	O 	0.93750 0.96410 0.89550 -0.45700
O 	O 	0.03340 0.89380 0.97070 -0.50400
O 	O 	0.96820 0.60450 0.69730 -0.35200
O 	O 	0.98890 0.69660 0.61120 -0.36600
O 	O 	0.06250 0.53590 0.39550 -0.45900
O 	O 	0.96660 0.60620 0.47070 -0.50900
O 	O 	0.03180 0.89550 0.19730 -0.35400
O 	O 	0.01110 0.80340 0.11120 -0.36800
O 	O 	0.06250 0.03590 0.10450 -0.45700
O 	O 	0.96660 0.10620 0.02930 -0.50400
O 	O 	0.03180 0.39550 0.30270 -0.35200
O 	O 	0.01110 0.30340 0.38880 -0.36600
O 	O 	0.93750 0.46410 0.60450 -0.45900
O 	O 	0.03340 0.39380 0.52930 -0.50900
O 	O 	0.96820 0.10450 0.80270 -0.35400
O 	O 	0.98890 0.19660 0.88880 -0.36800
