data_crystal

_cell_length_a 11.57760
_cell_length_b 16.29840
_cell_length_c 12.03260
_cell_angle_alpha 90.00000
_cell_angle_beta  112.50000
_cell_angle_gamma 90.00000

_symmetry_space_group_name_	'P 1'
_symmetry_space_group_name_H-M	'P 1'

loop_
_symmetry_equiv_pos_as_xyz
  x,y,z

loop_
_atom_site_label
_atom_site_type_symbol
_atom_site_fract_x
_atom_site_fract_y
_atom_site_fract_z
_atom_site_charge
Eu	Eu	0.19420 0.02722 0.57810 2.08300
S 	S 	0.05370 0.21823 0.21141 0.09500
S 	S 	0.48969 0.28276 0.75153 0.07500
O 	O 	0.13290 0.07810 0.37720 -0.46800
O 	O 	0.94240 0.03090 0.34600 -0.53700
O 	O 	0.05590 0.36290 0.06760 -0.51500
O 	O 	0.85660 0.39950 0.02270 -0.50600
O 	O 	0.27510 0.10420 0.78100 -0.37200
O 	O 	0.34140 0.13940 0.63870 -0.42400
O 	O 	0.64580 0.43320 0.79160 -0.40100
O 	O 	0.62130 0.47590 0.95670 -0.37800
C 	C 	0.95850 0.15220 0.24890 -0.12000
C 	C 	0.83630 0.17620 0.20170 -0.00100
H 	H 	0.77210 0.14820 0.21370 0.04600
C 	C 	0.81890 0.24830 0.13300 0.01400
H 	H 	0.74160 0.27320 0.09430 0.04400
C 	C 	0.92860 0.27800 0.12920 -0.13800
C 	C 	0.01550 0.08280 0.32830 0.42700
C 	C 	0.94880 0.35270 0.06870 0.48900
C 	C 	0.39400 0.22770 0.80320 -0.07900
C 	C 	0.38350 0.26480 0.90240 -0.00800
H 	H 	0.33660 0.24370 0.94360 0.05400
C 	C 	0.45200 0.33780 0.93320 -0.01600
H 	H 	0.45330 0.37150 0.99600 0.06800
C 	C 	0.51570 0.35420 0.86270 -0.06600
C 	C 	0.33220 0.15230 0.73790 0.32300
C 	C 	0.59890 0.42550 0.87070 0.29900
Eu	Eu	0.80580 0.52722 0.92190 2.09900
S 	S 	0.94630 0.71823 0.28859 0.10300
S 	S 	0.51031 0.78276 0.74847 0.07700
O 	O 	0.86710 0.57810 0.12280 -0.47200
O 	O 	0.05760 0.53090 0.15400 -0.55200
O 	O 	0.94410 0.86290 0.43240 -0.51500
O 	O 	0.14340 0.89950 0.47730 -0.50500
O 	O 	0.72490 0.60420 0.71900 -0.37100
O 	O 	0.65860 0.63940 0.86130 -0.42500
O 	O 	0.35420 0.93320 0.70840 -0.39800
O 	O 	0.37870 0.97590 0.54330 -0.37500
C 	C 	0.04150 0.65220 0.25110 -0.13700
C 	C 	0.16370 0.67620 0.29830 0.00800
H 	H 	0.22790 0.64820 0.28630 0.04200
C 	C 	0.18110 0.74830 0.36700 0.01000
H 	H 	0.25840 0.77320 0.40570 0.04500
C 	C 	0.07140 0.77800 0.37080 -0.14000
C 	C 	0.98450 0.58280 0.17170 0.44800
C 	C 	0.05120 0.85270 0.43130 0.49000
C 	C 	0.60600 0.72770 0.69680 -0.07900
C 	C 	0.61650 0.76480 0.59760 -0.00800
H 	H 	0.66340 0.74370 0.55640 0.05500
C 	C 	0.54800 0.83780 0.56680 -0.01600
H 	H 	0.54670 0.87150 0.50400 0.06800
C 	C 	0.48430 0.85420 0.63730 -0.06500
C 	C 	0.66780 0.65230 0.76210 0.32300
C 	C 	0.40110 0.92550 0.62930 0.29900
Eu	Eu	0.80580 0.97278 0.42190 2.08400
S 	S 	0.94630 0.78177 0.78859 0.09600
S 	S 	0.51031 0.71724 0.24847 0.07600
O 	O 	0.86710 0.92190 0.62280 -0.46700
O 	O 	0.05760 0.96910 0.65400 -0.53600
O 	O 	0.94410 0.63710 0.93240 -0.51400
O 	O 	0.14340 0.60050 0.97730 -0.50600
O 	O 	0.72490 0.89580 0.21900 -0.37200
O 	O 	0.65860 0.86060 0.36130 -0.42400
O 	O 	0.35420 0.56680 0.20840 -0.40100
O 	O 	0.37870 0.52410 0.04330 -0.37800
C 	C 	0.04150 0.84780 0.75110 -0.12000
C 	C 	0.16370 0.82380 0.79830 -0.00100
H 	H 	0.22790 0.85180 0.78630 0.04600
C 	C 	0.18110 0.75170 0.86700 0.01400
H 	H 	0.25840 0.72680 0.90570 0.04400
C 	C 	0.07140 0.72200 0.87080 -0.13800
C 	C 	0.98450 0.91720 0.67170 0.42700
C 	C 	0.05120 0.64730 0.93130 0.48900
C 	C 	0.60600 0.77230 0.19680 -0.07900
C 	C 	0.61650 0.73520 0.09760 -0.00800
H 	H 	0.66340 0.75630 0.05640 0.05400
C 	C 	0.54800 0.66220 0.06680 -0.01600
H 	H 	0.54670 0.62850 0.00400 0.06800
C 	C 	0.48430 0.64580 0.13730 -0.06600
C 	C 	0.66780 0.84770 0.26210 0.32300
C 	C 	0.40110 0.57450 0.12930 0.29900
Eu	Eu	0.19420 0.47278 0.07810 2.09900
S 	S 	0.05370 0.28177 0.71141 0.10300
S 	S 	0.48969 0.21724 0.25153 0.07700
O 	O 	0.13290 0.42190 0.87720 -0.47200
O 	O 	0.94240 0.46910 0.84600 -0.55200
O 	O 	0.05590 0.13710 0.56760 -0.51500
O 	O 	0.85660 0.10050 0.52270 -0.50500
O 	O 	0.27510 0.39580 0.28100 -0.37100
O 	O 	0.34140 0.36060 0.13870 -0.42500
O 	O 	0.64580 0.06680 0.29160 -0.39800
O 	O 	0.62130 0.02410 0.45670 -0.37500
C 	C 	0.95850 0.34780 0.74890 -0.13700
C 	C 	0.83630 0.32380 0.70170 0.00800
H 	H 	0.77210 0.35180 0.71370 0.04200
C 	C 	0.81890 0.25170 0.63300 0.01000
H 	H 	0.74160 0.22680 0.59430 0.04500
C 	C 	0.92860 0.22200 0.62920 -0.14000
C 	C 	0.01550 0.41720 0.82830 0.44800
C 	C 	0.94880 0.14730 0.56870 0.49000
C 	C 	0.39400 0.27230 0.30320 -0.07900
C 	C 	0.38350 0.23520 0.40240 -0.00800
H 	H 	0.33660 0.25630 0.44360 0.05500
C 	C 	0.45200 0.16220 0.43320 -0.01600
H 	H 	0.45330 0.12850 0.49600 0.06800
C 	C 	0.51570 0.14580 0.36270 -0.06500
C 	C 	0.33220 0.34770 0.23790 0.32300
C 	C 	0.59890 0.07450 0.37070 0.29900
