data_crystal

_cell_length_a 8.74330
_cell_length_b 11.25600
_cell_length_c 17.73060
_cell_angle_alpha 84.50500
_cell_angle_beta  75.72600
_cell_angle_gamma 67.14620

_symmetry_space_group_name_	'P 1'
_symmetry_space_group_name_H-M	'P 1'

loop_
_symmetry_equiv_pos_as_xyz
  x,y,z

loop_
_atom_site_label
_atom_site_type_symbol
_atom_site_fract_x
_atom_site_fract_y
_atom_site_fract_z
_atom_site_charge
Sc	Sc	0.63568 0.75000 0.72864 2.35200
Sc	Sc	0.11432 0.75000 0.77136 2.35100
Sc	Sc	0.36432 0.25000 0.27136 2.35100
Sc	Sc	0.88568 0.25000 0.22864 2.35000
H 	H 	0.22050 0.55080 0.98220 0.04400
H 	H 	0.68380 0.57180 0.90860 0.03300
H 	H 	0.84510 0.36220 0.74960 0.04800
H 	H 	0.79730 0.94920 0.98220 0.04600
H 	H 	0.40760 0.92820 0.90860 0.03400
H 	H 	0.40530 0.13780 0.74960 0.03800
H 	H 	0.72870 0.55080 0.51780 0.04500
H 	H 	0.24440 0.57180 0.59140 0.03300
H 	H 	0.29270 0.36220 0.75040 0.04500
H 	H 	0.75350 0.94920 0.51780 0.04200
H 	H 	0.16420 0.92820 0.59140 0.03700
H 	H 	0.95690 0.13780 0.75040 0.03100
H 	H 	0.77950 0.44920 0.01780 0.04400
H 	H 	0.31620 0.42820 0.09140 0.03300
H 	H 	0.15490 0.63780 0.25040 0.04800
H 	H 	0.20270 0.05080 0.01780 0.04600
H 	H 	0.59240 0.07180 0.09140 0.03400
H 	H 	0.59470 0.86220 0.25040 0.03800
H 	H 	0.27130 0.44920 0.48220 0.04500
H 	H 	0.75560 0.42820 0.40860 0.03300
H 	H 	0.70730 0.63780 0.24960 0.04500
H 	H 	0.24650 0.05080 0.48220 0.04200
H 	H 	0.83580 0.07180 0.40860 0.03700
H 	H 	0.04310 0.86220 0.24960 0.03100
C 	C 	0.95629 0.31660 0.74902 -0.01400
C 	C 	0.44930 0.56714 0.93504 -0.14600
C 	C 	0.39579 0.63944 0.86460 0.54700
C 	C 	0.61196 0.53892 0.94456 0.00800
C 	C 	0.33738 0.52830 0.99054 0.01100
C 	C 	0.29469 0.18340 0.74902 0.01500
C 	C 	0.61566 0.93286 0.93504 -0.14500
C 	C 	0.73961 0.86056 0.86460 0.54700
C 	C 	0.44348 0.96108 0.94456 0.00400
C 	C 	0.67208 0.97170 0.99054 0.01400
C 	C 	0.22711 0.31660 0.75098 -0.00400
C 	C 	0.48356 0.56714 0.56496 -0.14600
C 	C 	0.46477 0.63944 0.63540 0.54700
C 	C 	0.34912 0.53892 0.55544 0.00700
C 	C 	0.63432 0.52830 0.50946 0.01200
C 	C 	0.02191 0.18340 0.75098 0.02800
C 	C 	0.95148 0.93286 0.56496 -0.13700
C 	C 	0.89983 0.86056 0.63540 0.54500
C 	C 	0.09544 0.96108 0.55544 -0.00900
C 	C 	0.85622 0.97170 0.50946 0.02000
C 	C 	0.04371 0.68340 0.25098 -0.01400
C 	C 	0.55070 0.43286 0.06496 -0.14600
C 	C 	0.60421 0.36056 0.13540 0.54700
C 	C 	0.38804 0.46108 0.05544 0.00800
C 	C 	0.66262 0.47170 0.00946 0.01100
C 	C 	0.70531 0.81660 0.25098 0.01500
C 	C 	0.38434 0.06714 0.06496 -0.14500
C 	C 	0.26039 0.13944 0.13540 0.54700
C 	C 	0.55652 0.03892 0.05544 0.00400
C 	C 	0.32792 0.02830 0.00946 0.01400
C 	C 	0.77289 0.68340 0.24902 -0.00400
C 	C 	0.51644 0.43286 0.43504 -0.14600
C 	C 	0.53523 0.36056 0.36460 0.54700
C 	C 	0.65088 0.46108 0.44456 0.00700
C 	C 	0.36568 0.47170 0.49054 0.01200
C 	C 	0.97809 0.81660 0.24902 0.02800
C 	C 	0.04852 0.06714 0.43504 -0.13700
C 	C 	0.10017 0.13944 0.36460 0.54500
C 	C 	0.90456 0.03892 0.44456 -0.00900
C 	C 	0.14378 0.02830 0.49054 0.02000
C 	C 	0.98643 0.52714 0.75000 0.54700
C 	C 	0.05810 0.38380 0.75000 -0.13400
C 	C 	0.26357 0.97286 0.75000 0.54800
C 	C 	0.19190 0.11620 0.75000 -0.15200
C 	C 	0.01357 0.47286 0.25000 0.54700
C 	C 	0.94190 0.61620 0.25000 -0.13400
C 	C 	0.73643 0.02714 0.25000 0.54800
C 	C 	0.80810 0.88380 0.25000 -0.15200
O 	O 	0.84877 0.58362 0.72938 -0.64000
O 	O 	0.50362 0.66850 0.81486 -0.66700
O 	O 	0.24597 0.66664 0.85892 -0.61700
O 	O 	0.42185 0.91638 0.72938 -0.64100
O 	O 	0.68152 0.83150 0.81486 -0.66600
O 	O 	0.89511 0.83336 0.85892 -0.61300
O 	O 	0.06761 0.58362 0.77062 -0.64200
O 	O 	0.32788 0.66850 0.68514 -0.66700
O 	O 	0.58739 0.66664 0.64108 -0.61700
O 	O 	0.16177 0.91638 0.77062 -0.64300
O 	O 	0.98698 0.83150 0.68514 -0.66200
O 	O 	0.77153 0.83336 0.64108 -0.61600
O 	O 	0.15123 0.41638 0.27062 -0.64000
O 	O 	0.49638 0.33150 0.18514 -0.66700
O 	O 	0.75403 0.33336 0.14108 -0.61700
O 	O 	0.57815 0.08362 0.27062 -0.64100
O 	O 	0.31848 0.16850 0.18514 -0.66600
O 	O 	0.10489 0.16664 0.14108 -0.61300
O 	O 	0.93239 0.41638 0.22938 -0.64200
O 	O 	0.67212 0.33150 0.31486 -0.66700
O 	O 	0.41261 0.33336 0.35892 -0.61700
O 	O 	0.83823 0.08362 0.22938 -0.64300
O 	O 	0.01302 0.16850 0.31486 -0.66200
O 	O 	0.22847 0.16664 0.35892 -0.61600
