data_crystal

_cell_length_a 8.70470
_cell_length_b 11.23660
_cell_length_c 17.72930
_cell_angle_alpha 84.54370
_cell_angle_beta  75.78960
_cell_angle_gamma 67.21100

_symmetry_space_group_name_	'P 1'
_symmetry_space_group_name_H-M	'P 1'

loop_
_symmetry_equiv_pos_as_xyz
  x,y,z

loop_
_atom_site_label
_atom_site_type_symbol
_atom_site_fract_x
_atom_site_fract_y
_atom_site_fract_z
_atom_site_charge
Sc	Sc	0.63573 0.25000 0.72854 2.35000
Sc	Sc	0.11427 0.25000 0.77146 2.35000
Sc	Sc	0.36427 0.75000 0.27146 2.35000
Sc	Sc	0.88573 0.75000 0.22854 2.35000
C 	C 	0.01956 0.68238 0.75038 0.02000
C 	C 	0.90077 0.35970 0.63296 0.58700
C 	C 	0.95257 0.43518 0.56408 -0.16900
C 	C 	0.85497 0.46814 0.50852 0.01800
C 	C 	0.09842 0.45970 0.55506 0.02600
C 	C 	0.23006 0.81762 0.75038 0.02200
C 	C 	0.46627 0.14030 0.63296 0.58800
C 	C 	0.48335 0.06482 0.56408 -0.16900
C 	C 	0.63651 0.03186 0.50852 0.01800
C 	C 	0.34652 0.04030 0.55506 0.02600
C 	C 	0.29806 0.68238 0.74962 0.02100
C 	C 	0.73953 0.35970 0.86704 0.58700
C 	C 	0.61225 0.43518 0.93592 -0.16900
C 	C 	0.67689 0.46814 0.99148 0.01800
C 	C 	0.44188 0.45970 0.94494 0.02600
C 	C 	0.95232 0.81762 0.74962 0.02300
C 	C 	0.39343 0.14030 0.86704 0.58800
C 	C 	0.45183 0.06482 0.93592 -0.17000
C 	C 	0.33163 0.03186 0.99148 0.01700
C 	C 	0.61318 0.04030 0.94494 0.02800
C 	C 	0.98044 0.31762 0.24962 0.02000
C 	C 	0.09923 0.64030 0.36704 0.58700
C 	C 	0.04743 0.56482 0.43592 -0.16900
C 	C 	0.14503 0.53186 0.49148 0.01800
C 	C 	0.90158 0.54030 0.44494 0.02600
C 	C 	0.76994 0.18238 0.24962 0.02200
C 	C 	0.53373 0.85970 0.36704 0.58800
C 	C 	0.51665 0.93518 0.43592 -0.17000
C 	C 	0.36349 0.96814 0.49148 0.02000
C 	C 	0.65348 0.95970 0.44494 0.02600
C 	C 	0.70194 0.31762 0.25038 0.02100
C 	C 	0.26047 0.64030 0.13296 0.58700
C 	C 	0.38775 0.56482 0.06408 -0.16900
C 	C 	0.32311 0.53186 0.00852 0.01800
C 	C 	0.55812 0.54030 0.05506 0.02600
C 	C 	0.04768 0.18238 0.25038 0.02300
C 	C 	0.60657 0.85970 0.13296 0.58800
C 	C 	0.54817 0.93518 0.06408 -0.17000
C 	C 	0.66837 0.96814 0.00852 0.01700
C 	C 	0.38682 0.95970 0.05506 0.02800
C 	C 	0.26234 0.47532 0.75000 0.56100
C 	C 	0.19115 0.61770 0.75000 -0.16400
C 	C 	0.98766 0.02468 0.75000 0.56500
C 	C 	0.05885 0.88230 0.75000 -0.16600
C 	C 	0.73766 0.52468 0.25000 0.56100
C 	C 	0.80885 0.38230 0.25000 -0.16400
C 	C 	0.01234 0.97532 0.25000 0.56500
C 	C 	0.94115 0.11770 0.25000 -0.16600
O 	O 	0.42044 0.41644 0.72908 -0.64300
O 	O 	0.77769 0.33092 0.64170 -0.64400
O 	O 	0.98653 0.33140 0.68434 -0.66400
O 	O 	0.85048 0.08356 0.72908 -0.64300
O 	O 	0.58061 0.16908 0.64170 -0.64400
O 	O 	0.32913 0.16860 0.68434 -0.66500
O 	O 	0.16312 0.41644 0.77092 -0.64300
O 	O 	0.89139 0.33092 0.85830 -0.64300
O 	O 	0.68207 0.33140 0.81566 -0.66500
O 	O 	0.06596 0.08356 0.77092 -0.64500
O 	O 	0.25031 0.16908 0.85830 -0.64500
O 	O 	0.50227 0.16860 0.81566 -0.66500
O 	O 	0.57956 0.58356 0.27092 -0.64300
O 	O 	0.22231 0.66908 0.35830 -0.64400
O 	O 	0.01347 0.66860 0.31566 -0.66400
O 	O 	0.14952 0.91644 0.27092 -0.64300
O 	O 	0.41939 0.83092 0.35830 -0.64400
O 	O 	0.67087 0.83140 0.31566 -0.66500
O 	O 	0.83688 0.58356 0.22908 -0.64300
O 	O 	0.10861 0.66908 0.14170 -0.64300
O 	O 	0.31793 0.66860 0.18434 -0.66500
O 	O 	0.93404 0.91644 0.22908 -0.64500
O 	O 	0.74969 0.83092 0.14170 -0.64500
O 	O 	0.49773 0.83140 0.18434 -0.66500
H 	H 	0.93320 0.62737 0.75130 0.03300
H 	H 	0.74261 0.43635 0.51605 0.03900
H 	H 	0.18143 0.42121 0.59941 0.02300
H 	H 	0.31551 0.87263 0.75130 0.03200
H 	H 	0.74134 0.06365 0.51605 0.03900
H 	H 	0.21916 0.07879 0.59941 0.02300
H 	H 	0.43943 0.62737 0.74870 0.03200
H 	H 	0.82105 0.43635 0.98395 0.03900
H 	H 	0.39736 0.42121 0.90059 0.02300
H 	H 	0.81186 0.87263 0.74870 0.03200
H 	H 	0.19500 0.06365 0.98395 0.03900
H 	H 	0.70205 0.07879 0.90059 0.02300
H 	H 	0.06680 0.37263 0.24870 0.03300
H 	H 	0.25739 0.56365 0.48395 0.03900
H 	H 	0.81857 0.57879 0.40059 0.02300
H 	H 	0.68449 0.12737 0.24870 0.03200
H 	H 	0.25431 0.93902 0.48698 0.03800
H 	H 	0.78099 0.92134 0.40068 0.02300
H 	H 	0.56057 0.37263 0.25130 0.03200
H 	H 	0.17895 0.56365 0.01605 0.03900
H 	H 	0.60301 0.57866 0.09932 0.02300
H 	H 	0.18814 0.12737 0.25130 0.03200
H 	H 	0.80500 0.93635 0.01605 0.03900
H 	H 	0.29767 0.92134 0.09932 0.02300
