data_crystal

_cell_length_a 11.70890
_cell_length_b 11.70890
_cell_length_c 14.73320
_cell_angle_alpha 109.16400
_cell_angle_beta  109.16400
_cell_angle_gamma 98.41530

_symmetry_space_group_name_	'P 1'
_symmetry_space_group_name_H-M	'P 1'

loop_
_symmetry_equiv_pos_as_xyz
  x,y,z

loop_
_atom_site_label
_atom_site_type_symbol
_atom_site_fract_x
_atom_site_fract_y
_atom_site_fract_z
_atom_site_charge
Cd	Cd	0.78034 0.02408 0.78750 1.23800
Cd	Cd	0.97592 0.21966 0.71250 1.23800
Cd	Cd	0.21966 0.97592 0.21250 1.23700
Cd	Cd	0.02408 0.78034 0.28750 1.23700
H 	H 	0.80810 0.25790 0.80670 0.44600
H 	H 	0.12090 0.04450 0.01930 0.03200
H 	H 	0.19330 0.41410 0.08780 0.10000
H 	H 	0.29510 0.28270 0.31210 0.07400
H 	H 	0.90900 0.51980 0.09170 0.04200
H 	H 	0.90880 0.21360 0.15560 0.10700
H 	H 	0.04540 0.56020 0.38410 0.08000
H 	H 	0.74210 0.19190 0.69330 0.44600
H 	H 	0.95550 0.87910 0.48070 0.03200
H 	H 	0.58590 0.80670 0.41220 0.10100
H 	H 	0.71730 0.70490 0.18790 0.07400
H 	H 	0.48020 0.09100 0.40830 0.04100
H 	H 	0.78640 0.09120 0.34440 0.10600
H 	H 	0.43980 0.95460 0.11590 0.07900
H 	H 	0.19190 0.74210 0.19330 0.44600
H 	H 	0.87910 0.95550 0.98070 0.03200
H 	H 	0.80670 0.58590 0.91220 0.10000
H 	H 	0.70490 0.71730 0.68790 0.07400
H 	H 	0.09100 0.48020 0.90830 0.04200
H 	H 	0.09120 0.78640 0.84440 0.10700
H 	H 	0.95460 0.43980 0.61590 0.08000
H 	H 	0.25790 0.80810 0.30670 0.44600
H 	H 	0.04450 0.12090 0.51930 0.03200
H 	H 	0.41410 0.19330 0.58780 0.10100
H 	H 	0.28270 0.29510 0.81210 0.07400
H 	H 	0.51980 0.90900 0.59170 0.04100
H 	H 	0.21360 0.90880 0.65560 0.10600
H 	H 	0.56020 0.04540 0.88410 0.07900
C 	C 	0.15530 0.12730 0.06890 0.05400
C 	C 	0.14620 0.22340 0.03460 -0.05800
C 	C 	0.19600 0.34700 0.10820 -0.07100
C 	C 	0.25010 0.36770 0.21320 0.13200
C 	C 	0.25720 0.26720 0.24140 -0.03400
C 	C 	0.07450 0.18930 0.91890 0.36400
C 	C 	0.92720 0.48420 0.14070 0.03400
C 	C 	0.89670 0.35390 0.10490 -0.03700
C 	C 	0.92580 0.30060 0.17690 -0.08600
C 	C 	0.98110 0.38030 0.28130 0.13900
C 	C 	0.00800 0.50860 0.31280 -0.03700
C 	C 	0.83720 0.27720 0.98790 0.32700
C 	C 	0.87270 0.84470 0.43110 0.05300
C 	C 	0.77660 0.85380 0.46540 -0.05700
C 	C 	0.65300 0.80400 0.39180 -0.07200
C 	C 	0.63230 0.74990 0.28680 0.13200
C 	C 	0.73280 0.74280 0.25860 -0.03500
C 	C 	0.81070 0.92550 0.58110 0.36300
C 	C 	0.51580 0.07280 0.35930 0.03500
C 	C 	0.64610 0.10330 0.39510 -0.03900
C 	C 	0.69940 0.07420 0.32310 -0.08600
C 	C 	0.61970 0.01890 0.21870 0.14000
C 	C 	0.49140 0.99200 0.18720 -0.03800
C 	C 	0.72280 0.16280 0.51210 0.33000
C 	C 	0.84470 0.87270 0.93110 0.05400
C 	C 	0.85380 0.77660 0.96540 -0.05800
C 	C 	0.80400 0.65300 0.89180 -0.07100
C 	C 	0.74990 0.63230 0.78680 0.13200
C 	C 	0.74280 0.73280 0.75860 -0.03400
C 	C 	0.92550 0.81070 0.08110 0.36400
C 	C 	0.07280 0.51580 0.85930 0.03400
C 	C 	0.10330 0.64610 0.89510 -0.03700
C 	C 	0.07420 0.69940 0.82310 -0.08600
C 	C 	0.01890 0.61970 0.71870 0.13900
C 	C 	0.99200 0.49140 0.68720 -0.03700
C 	C 	0.16280 0.72280 0.01210 0.32700
C 	C 	0.12730 0.15530 0.56890 0.05300
C 	C 	0.22340 0.14620 0.53460 -0.05700
C 	C 	0.34700 0.19600 0.60820 -0.07200
C 	C 	0.36770 0.25010 0.71320 0.13200
C 	C 	0.26720 0.25720 0.74140 -0.03500
C 	C 	0.18930 0.07450 0.41890 0.36300
C 	C 	0.48420 0.92720 0.64070 0.03500
C 	C 	0.35390 0.89670 0.60490 -0.03900
C 	C 	0.30060 0.92580 0.67690 -0.08600
C 	C 	0.38030 0.98110 0.78130 0.14000
C 	C 	0.50860 0.00800 0.81280 -0.03800
C 	C 	0.27720 0.83720 0.48790 0.33000
Br	Br	0.31205 0.53263 0.31857 -0.22300
Br	Br	0.02388 0.31354 0.38533 -0.23000
Br	Br	0.46737 0.68795 0.18143 -0.22400
Br	Br	0.68646 0.97612 0.11467 -0.23100
Br	Br	0.68795 0.46737 0.68143 -0.22300
Br	Br	0.97612 0.68646 0.61467 -0.23000
Br	Br	0.53263 0.31205 0.81857 -0.22400
Br	Br	0.31354 0.02388 0.88533 -0.23100
N 	N 	0.21120 0.14760 0.17010 -0.19400
N 	N 	0.98160 0.56100 0.24270 -0.18300
N 	N 	0.85240 0.78880 0.32990 -0.19400
N 	N 	0.43900 0.01840 0.25730 -0.18300
N 	N 	0.78880 0.85240 0.82990 -0.19400
N 	N 	0.01840 0.43900 0.75730 -0.18300
N 	N 	0.14760 0.21120 0.67010 -0.19400
N 	N 	0.56100 0.98160 0.74270 -0.18300
O 	O 	0.99771 0.08209 0.86710 -0.41300
O 	O 	0.09772 0.27068 0.88460 -0.39900
O 	O 	0.81990 0.33850 0.93160 -0.30400
O 	O 	0.81145 0.15935 0.95660 -0.37500
O 	O 	0.91791 0.00229 0.63290 -0.41200
O 	O 	0.72932 0.90228 0.61540 -0.39800
O 	O 	0.66150 0.18010 0.56840 -0.30400
O 	O 	0.84065 0.18855 0.54340 -0.37500
O 	O 	0.00229 0.91791 0.13290 -0.41300
O 	O 	0.90228 0.72932 0.11540 -0.39900
O 	O 	0.18010 0.66150 0.06840 -0.30400
O 	O 	0.18855 0.84065 0.04340 -0.37500
O 	O 	0.08209 0.99771 0.36710 -0.41200
O 	O 	0.27068 0.09772 0.38460 -0.39800
O 	O 	0.33850 0.81990 0.43160 -0.30400
O 	O 	0.15935 0.81145 0.45660 -0.37500
O 	O 	0.80000 0.20000 0.75000 -1.04600
O 	O 	0.20000 0.80000 0.25000 -1.04600
