data_crystal

_cell_length_a 15.40100
_cell_length_b 17.38120
_cell_length_c 15.05380
_cell_angle_alpha 90.00000
_cell_angle_beta  120.43500
_cell_angle_gamma 90.00000

_symmetry_space_group_name_	'P 1'
_symmetry_space_group_name_H-M	'P 1'

loop_
_symmetry_equiv_pos_as_xyz
  x,y,z

loop_
_atom_site_label
_atom_site_type_symbol
_atom_site_fract_x
_atom_site_fract_y
_atom_site_fract_z
_atom_site_charge
Cd	Cd	0.36611 0.36744 0.71423 1.23700
Br	Br	0.63795 0.36721 0.30801 -0.23000
Br	Br	0.03682 0.40109 0.12956 -0.18500
O 	O 	0.44880 0.32964 0.88250 -0.39700
O 	O 	0.57610 0.28620 0.86540 -0.40400
O 	O 	0.40440 0.50730 0.57110 -0.30400
O 	O 	0.28450 0.42370 0.54970 -0.37200
H 	H 	0.52270 0.47050 0.80650 0.45500
N 	N 	0.73850 0.22030 0.16680 -0.19800
N 	N 	0.28120 0.54490 0.26410 -0.18300
C 	C 	0.72480 0.25960 0.23520 -0.03500
H 	H 	0.76860 0.25120 0.30510 0.06900
C 	C 	0.64810 0.31180 0.20540 0.13000
C 	C 	0.58170 0.32570 0.10220 -0.06900
H 	H 	0.52850 0.36010 0.08110 0.09900
C 	C 	0.59730 0.28650 0.03100 -0.06800
C 	C 	0.67620 0.23500 0.06640 0.05400
H 	H 	0.68660 0.20920 0.01850 0.02700
C 	C 	0.53510 0.30200 0.91710 0.36300
C 	C 	0.19780 0.50680 0.19720 -0.03200
H 	H 	0.16980 0.51580 0.12700 0.08200
C 	C 	0.15260 0.45480 0.22950 0.13900
C 	C 	0.19070 0.44050 0.33280 -0.08200
H 	H 	0.16030 0.40520 0.35480 0.11500
C 	C 	0.27580 0.48070 0.40250 -0.03700
C 	C 	0.31900 0.53150 0.36470 0.03900
H 	H 	0.37720 0.55750 0.41160 0.04100
C 	C 	0.32570 0.46920 0.51780 0.33300
Cd	Cd	0.86611 0.86744 0.71423 1.23000
Br	Br	0.13795 0.86721 0.30801 -0.20200
Br	Br	0.53682 0.90109 0.12956 -0.23000
O 	O 	0.94880 0.82964 0.88250 -0.45400
O 	O 	0.07610 0.78620 0.86540 -0.40800
O 	O 	0.90440 0.00730 0.57110 -0.31400
O 	O 	0.78450 0.92370 0.54970 -0.37800
H 	H 	0.02270 0.97050 0.80650 0.42700
N 	N 	0.23850 0.72030 0.16680 -0.19700
N 	N 	0.78120 0.04490 0.26410 -0.18700
C 	C 	0.22480 0.75960 0.23520 -0.03100
H 	H 	0.26860 0.75120 0.30510 0.07200
C 	C 	0.14810 0.81180 0.20540 0.13200
C 	C 	0.08170 0.82570 0.10220 -0.05900
H 	H 	0.02850 0.86010 0.08110 0.11500
C 	C 	0.09730 0.78650 0.03100 -0.07200
C 	C 	0.17620 0.73500 0.06640 0.06400
H 	H 	0.18660 0.70920 0.01850 0.02900
C 	C 	0.03510 0.80200 0.91710 0.42600
C 	C 	0.69780 0.00680 0.19720 -0.03800
H 	H 	0.66980 0.01580 0.12700 0.07500
C 	C 	0.65260 0.95480 0.22950 0.14100
C 	C 	0.69070 0.94050 0.33280 -0.08400
H 	H 	0.66030 0.90520 0.35480 0.10800
C 	C 	0.77580 0.98070 0.40250 -0.04100
C 	C 	0.81900 0.03150 0.36470 0.03700
H 	H 	0.87720 0.05750 0.41160 0.03100
C 	C 	0.82570 0.96920 0.51780 0.33300
Cd	Cd	0.63389 0.36744 0.78577 1.23700
Br	Br	0.36205 0.36721 0.19199 -0.22400
Br	Br	0.96318 0.40109 0.37044 -0.27600
O 	O 	0.55120 0.32964 0.61750 -0.39700
O 	O 	0.42390 0.28620 0.63460 -0.40400
O 	O 	0.59560 0.50730 0.92890 -0.30500
O 	O 	0.71550 0.42370 0.95030 -0.38000
H 	H 	0.47730 0.47050 0.69350 0.45500
N 	N 	0.26150 0.22030 0.33320 -0.19400
N 	N 	0.71880 0.54490 0.23590 -0.18600
C 	C 	0.27520 0.25960 0.26480 -0.03600
H 	H 	0.23140 0.25120 0.19490 0.07400
C 	C 	0.35190 0.31180 0.29460 0.13200
C 	C 	0.41830 0.32570 0.39780 -0.07400
H 	H 	0.47150 0.36010 0.41890 0.10100
C 	C 	0.40270 0.28650 0.46900 -0.05800
C 	C 	0.32380 0.23500 0.43360 0.05200
H 	H 	0.31340 0.20920 0.48150 0.03100
C 	C 	0.46490 0.30200 0.58290 0.35500
C 	C 	0.80220 0.50680 0.30280 -0.03600
H 	H 	0.83020 0.51580 0.37300 0.07000
C 	C 	0.84740 0.45480 0.27050 0.13400
C 	C 	0.80930 0.44050 0.16720 -0.08200
H 	H 	0.83970 0.40520 0.14520 0.09700
C 	C 	0.72420 0.48070 0.09750 -0.05100
C 	C 	0.68100 0.53150 0.13530 0.04100
H 	H 	0.62280 0.55750 0.08840 0.03700
C 	C 	0.67430 0.46920 0.98220 0.34000
Cd	Cd	0.13389 0.86744 0.78577 1.23900
Br	Br	0.86205 0.86721 0.19199 -0.24800
Br	Br	0.46318 0.90109 0.37044 -0.22900
O 	O 	0.05120 0.82964 0.61750 -0.34100
O 	O 	0.92390 0.78620 0.63460 -0.40400
O 	O 	0.09560 0.00730 0.92890 -0.28000
O 	O 	0.21550 0.92370 0.95030 -0.37300
H 	H 	0.97730 0.97050 0.69350 0.37900
N 	N 	0.76150 0.72030 0.33320 -0.19400
N 	N 	0.21880 0.04490 0.23590 -0.18200
C 	C 	0.77520 0.75960 0.26480 -0.04100
H 	H 	0.73140 0.75120 0.19490 0.07100
C 	C 	0.85190 0.81180 0.29460 0.13200
C 	C 	0.91830 0.82570 0.39780 -0.08700
H 	H 	0.97150 0.86010 0.41890 0.08700
C 	C 	0.90270 0.78650 0.46900 -0.04600
C 	C 	0.82380 0.73500 0.43360 0.03900
H 	H 	0.81340 0.70920 0.48150 0.03200
C 	C 	0.96490 0.80200 0.58290 0.28400
C 	C 	0.30220 0.00680 0.30280 -0.03800
H 	H 	0.33020 0.01580 0.37300 0.07700
C 	C 	0.34740 0.95480 0.27050 0.14100
C 	C 	0.30930 0.94050 0.16720 -0.08900
H 	H 	0.33970 0.90520 0.14520 0.10800
C 	C 	0.22420 0.98070 0.09750 -0.03200
C 	C 	0.18100 0.03150 0.13530 0.03200
H 	H 	0.12280 0.05750 0.08840 0.04900
C 	C 	0.17430 0.96920 0.98220 0.32300
Cd	Cd	0.63389 0.63256 0.28577 1.23700
Br	Br	0.36205 0.63279 0.69199 -0.22300
Br	Br	0.96318 0.59891 0.87044 -0.27200
O 	O 	0.55120 0.67036 0.11750 -0.39700
O 	O 	0.42390 0.71380 0.13460 -0.40300
O 	O 	0.59560 0.49270 0.42890 -0.30500
O 	O 	0.71550 0.57630 0.45030 -0.38000
H 	H 	0.47730 0.52950 0.19350 0.45400
N 	N 	0.26150 0.77970 0.83320 -0.19400
N 	N 	0.71880 0.45510 0.73590 -0.18500
C 	C 	0.27520 0.74040 0.76480 -0.03700
H 	H 	0.23140 0.74880 0.69490 0.07500
C 	C 	0.35190 0.68820 0.79460 0.13300
C 	C 	0.41830 0.67430 0.89780 -0.07600
H 	H 	0.47150 0.63990 0.91890 0.10300
C 	C 	0.40270 0.71350 0.96900 -0.05200
C 	C 	0.32380 0.76500 0.93360 0.05000
H 	H 	0.31340 0.79080 0.98150 0.03300
C 	C 	0.46490 0.69800 0.08290 0.35100
C 	C 	0.80220 0.49320 0.80280 -0.03700
H 	H 	0.83020 0.48420 0.87300 0.07100
C 	C 	0.84740 0.54520 0.77050 0.13600
C 	C 	0.80930 0.55950 0.66720 -0.08600
H 	H 	0.83970 0.59480 0.64520 0.10000
C 	C 	0.72420 0.51930 0.59750 -0.04200
C 	C 	0.68100 0.46850 0.63530 0.03700
H 	H 	0.62280 0.44250 0.58840 0.04000
C 	C 	0.67430 0.53080 0.48220 0.33200
Cd	Cd	0.13389 0.13256 0.28577 1.23900
Br	Br	0.86205 0.13279 0.69199 -0.24800
Br	Br	0.46318 0.09891 0.87044 -0.22400
O 	O 	0.05120 0.17036 0.11750 -0.33900
O 	O 	0.92390 0.21380 0.13460 -0.40300
O 	O 	0.09560 0.99270 0.42890 -0.28500
O 	O 	0.21550 0.07630 0.45030 -0.37400
H 	H 	0.97730 0.02950 0.19350 0.37300
N 	N 	0.76150 0.27970 0.83320 -0.19200
N 	N 	0.21880 0.95510 0.73590 -0.18100
C 	C 	0.77520 0.24040 0.76480 -0.04200
H 	H 	0.73140 0.24880 0.69490 0.07300
C 	C 	0.85190 0.18820 0.79460 0.13500
C 	C 	0.91830 0.17430 0.89780 -0.09300
H 	H 	0.97150 0.13990 0.91890 0.09200
C 	C 	0.90270 0.21350 0.96900 -0.03200
C 	C 	0.82380 0.26500 0.93360 0.03400
H 	H 	0.81340 0.29080 0.98150 0.03700
C 	C 	0.96490 0.19800 0.08290 0.27200
C 	C 	0.30220 0.99320 0.80280 -0.03900
H 	H 	0.33020 0.98420 0.87300 0.07800
C 	C 	0.34740 0.04520 0.77050 0.14300
C 	C 	0.30930 0.05950 0.66720 -0.08900
H 	H 	0.33970 0.09480 0.64520 0.10900
C 	C 	0.22420 0.01930 0.59750 -0.03100
C 	C 	0.18100 0.96850 0.63530 0.03300
H 	H 	0.12280 0.94250 0.58840 0.05000
C 	C 	0.17430 0.03080 0.48220 0.32700
Cd	Cd	0.36611 0.63256 0.21423 1.23800
Br	Br	0.63795 0.63279 0.80801 -0.22700
Br	Br	0.03682 0.59891 0.62956 -0.18200
O 	O 	0.44880 0.67036 0.38250 -0.39600
O 	O 	0.57610 0.71380 0.36540 -0.40300
O 	O 	0.40440 0.49270 0.07110 -0.30400
O 	O 	0.28450 0.57630 0.04970 -0.37200
H 	H 	0.52270 0.52950 0.30650 0.45500
N 	N 	0.73850 0.77970 0.66680 -0.19600
N 	N 	0.28120 0.45510 0.76410 -0.18200
C 	C 	0.72480 0.74040 0.73520 -0.03600
H 	H 	0.76860 0.74880 0.80510 0.07000
C 	C 	0.64810 0.68820 0.70540 0.13200
C 	C 	0.58170 0.67430 0.60220 -0.07400
H 	H 	0.52850 0.63990 0.58110 0.10200
C 	C 	0.59730 0.71350 0.53100 -0.05700
C 	C 	0.67620 0.76500 0.56640 0.05100
H 	H 	0.68660 0.79080 0.51850 0.03200
C 	C 	0.53510 0.69800 0.41710 0.35500
C 	C 	0.19780 0.49320 0.69720 -0.03300
H 	H 	0.16980 0.48420 0.62700 0.08300
C 	C 	0.15260 0.54520 0.72950 0.14100
C 	C 	0.19070 0.55950 0.83280 -0.08500
H 	H 	0.16030 0.59480 0.85480 0.11600
C 	C 	0.27580 0.51930 0.90250 -0.03000
C 	C 	0.31900 0.46850 0.86470 0.03700
H 	H 	0.37720 0.44250 0.91160 0.04300
C 	C 	0.32570 0.53080 0.01780 0.32700
Cd	Cd	0.86611 0.13256 0.21423 1.22900
Br	Br	0.13795 0.13279 0.80801 -0.20000
Br	Br	0.53682 0.09891 0.62956 -0.22900
O 	O 	0.94880 0.17036 0.38250 -0.45700
O 	O 	0.07610 0.21380 0.36540 -0.40800
O 	O 	0.90440 0.99270 0.07110 -0.30800
O 	O 	0.78450 0.07630 0.04970 -0.37700
H 	H 	0.02270 0.02950 0.30650 0.42700
N 	N 	0.23850 0.27970 0.66680 -0.19600
N 	N 	0.78120 0.95510 0.76410 -0.18500
C 	C 	0.22480 0.24040 0.73520 -0.03100
H 	H 	0.26860 0.24880 0.80510 0.07300
C 	C 	0.14810 0.18820 0.70540 0.13200
C 	C 	0.08170 0.17430 0.60220 -0.06000
H 	H 	0.02850 0.13990 0.58110 0.11600
C 	C 	0.09730 0.21350 0.53100 -0.06900
C 	C 	0.17620 0.26500 0.56640 0.06400
H 	H 	0.18660 0.29080 0.51850 0.03100
C 	C 	0.03510 0.19800 0.41710 0.42700
C 	C 	0.69780 0.99320 0.69720 -0.03900
H 	H 	0.66980 0.98420 0.62700 0.07800
C 	C 	0.65260 0.04520 0.72950 0.14300
C 	C 	0.69070 0.05950 0.83280 -0.09200
H 	H 	0.66030 0.09480 0.85480 0.11200
C 	C 	0.77580 0.01930 0.90250 -0.02500
C 	C 	0.81900 0.96850 0.86470 0.02900
H 	H 	0.87720 0.94250 0.91160 0.03500
C 	C 	0.82570 0.03080 0.01780 0.31700
O 	O 	0.50000 0.44630 0.75000 -1.05700
O 	O 	-0.00000 0.94630 0.75000 -0.94700
O 	O 	0.50000 0.55370 0.25000 -1.05700
O 	O 	0.00000 0.05370 0.25000 -0.94100
