data_crystal

_cell_length_a 8.32030
_cell_length_b 15.83670
_cell_length_c 21.50470
_cell_angle_alpha 90.00000
_cell_angle_beta  90.00000
_cell_angle_gamma 90.00000

_symmetry_space_group_name_	'P 1'
_symmetry_space_group_name_H-M	'P 1'

loop_
_symmetry_equiv_pos_as_xyz
  x,y,z

loop_
_atom_site_label
_atom_site_type_symbol
_atom_site_fract_x
_atom_site_fract_y
_atom_site_fract_z
_atom_site_charge
Nd	Nd	0.14548 0.15650 0.72772 1.41800
Nd	Nd	0.85452 0.84350 0.22772 1.41800
Nd	Nd	0.35452 0.65650 0.72772 1.41600
Nd	Nd	0.64548 0.34350 0.22772 1.42200
U 	U 	0.97704 0.64419 0.97608 -0.01400
U 	U 	0.98407 0.36625 0.97188 -0.01300
U 	U 	0.02296 0.35581 0.47608 0.00200
U 	U 	0.01593 0.63375 0.47188 0.00300
U 	U 	0.52296 0.14419 0.97608 -0.01200
U 	U 	0.51593 0.86625 0.97188 -0.01100
U 	U 	0.47704 0.85581 0.47608 -0.00000
U 	U 	0.48407 0.13375 0.47188 0.00100
C 	C 	0.01780 0.18690 0.97810 0.25500
C 	C 	0.02150 0.09280 0.98060 -0.03500
C 	C 	0.01450 0.91600 0.97930 -0.03300
C 	C 	0.01160 0.82180 0.98120 0.25800
C 	C 	0.19010 0.91250 0.88290 0.29900
C 	C 	0.19870 0.09260 0.88370 0.36600
C 	C 	0.83410 0.09540 0.07520 0.28400
C 	C 	0.10030 0.95970 0.93510 -0.00600
C 	C 	0.92390 0.96190 0.02400 -0.03000
C 	C 	0.10740 0.04780 0.93470 -0.04500
C 	C 	0.92840 0.04940 0.02530 0.01000
C 	C 	0.82430 0.91590 0.07290 0.37500
C 	C 	0.98220 0.81310 0.47810 0.26900
C 	C 	0.97850 0.90720 0.48060 -0.02200
C 	C 	0.98550 0.08400 0.47930 -0.02300
C 	C 	0.98840 0.17820 0.48120 0.27400
C 	C 	0.80990 0.08750 0.38290 0.30000
C 	C 	0.80130 0.90740 0.38370 0.36700
C 	C 	0.16590 0.90460 0.57520 0.28700
C 	C 	0.89970 0.04030 0.43510 -0.00600
C 	C 	0.07610 0.03810 0.52400 -0.04200
C 	C 	0.89260 0.95220 0.43470 -0.04600
C 	C 	0.07160 0.95060 0.52530 -0.00500
C 	C 	0.17570 0.08410 0.57290 0.37700
C 	C 	0.48220 0.68690 0.97810 0.25100
C 	C 	0.47850 0.59280 0.98060 -0.03700
C 	C 	0.48550 0.41600 0.97930 -0.03900
C 	C 	0.48840 0.32180 0.98120 0.25200
C 	C 	0.30990 0.41250 0.88290 0.29900
C 	C 	0.30130 0.59260 0.88370 0.36600
C 	C 	0.66590 0.59540 0.07520 0.28400
C 	C 	0.39970 0.45970 0.93510 -0.00600
C 	C 	0.57610 0.46190 0.02400 -0.02300
C 	C 	0.39260 0.54780 0.93470 -0.04400
C 	C 	0.57160 0.54940 0.02530 0.01100
C 	C 	0.67570 0.41590 0.07290 0.37300
C 	C 	0.51780 0.31310 0.47810 0.27500
C 	C 	0.52150 0.40720 0.48060 -0.01700
C 	C 	0.51450 0.58400 0.47930 -0.02000
C 	C 	0.51160 0.67820 0.48120 0.27900
C 	C 	0.69010 0.58750 0.38290 0.30000
C 	C 	0.69870 0.40740 0.38370 0.36700
C 	C 	0.33410 0.40460 0.57520 0.28900
C 	C 	0.60030 0.54030 0.43510 -0.00700
C 	C 	0.42390 0.53810 0.52400 -0.04500
C 	C 	0.60740 0.45220 0.43470 -0.04600
C 	C 	0.42840 0.45060 0.52530 -0.01200
C 	C 	0.32430 0.58410 0.57290 0.37800
O 	O 	0.95750 0.22800 0.02380 -0.16300
O 	O 	0.07760 0.22610 0.93340 -0.19800
O 	O 	0.93950 0.78340 0.02420 -0.18100
O 	O 	0.33460 0.89560 0.88900 -0.21200
O 	O 	0.11150 0.90040 0.83410 -0.25500
O 	O 	0.34180 0.11760 0.89360 -0.23400
O 	O 	0.13300 0.09370 0.83200 -0.45000
O 	O 	0.88400 0.90750 0.12500 -0.45800
O 	O 	0.68460 0.89270 0.05830 -0.22900
O 	O 	0.92360 0.50510 0.95270 -0.08400
O 	O 	0.68930 0.11640 0.06220 -0.19100
O 	O 	0.90010 0.10840 0.12580 -0.25900
O 	O 	0.08330 0.78150 0.93910 -0.18300
O 	O 	0.04250 0.77200 0.52380 -0.17900
O 	O 	0.92240 0.77390 0.43340 -0.20200
O 	O 	0.06050 0.21660 0.52420 -0.19800
O 	O 	0.66540 0.10440 0.38900 -0.21000
O 	O 	0.88850 0.09960 0.33410 -0.25600
O 	O 	0.65820 0.88240 0.39360 -0.23300
O 	O 	0.86700 0.90630 0.33200 -0.45100
O 	O 	0.11600 0.09250 0.62500 -0.45900
O 	O 	0.31540 0.10730 0.55830 -0.23800
O 	O 	0.07640 0.49490 0.45270 -0.07200
O 	O 	0.31070 0.88360 0.56220 -0.20000
O 	O 	0.09990 0.89160 0.62580 -0.26000
O 	O 	0.91670 0.21850 0.43910 -0.18600
O 	O 	0.54250 0.72800 0.02380 -0.16000
O 	O 	0.42240 0.72610 0.93340 -0.19800
O 	O 	0.56050 0.28340 0.02420 -0.17600
O 	O 	0.16540 0.39560 0.88900 -0.21000
O 	O 	0.38850 0.40040 0.83410 -0.25600
O 	O 	0.15820 0.61760 0.89360 -0.23200
O 	O 	0.36700 0.59370 0.83200 -0.45000
O 	O 	0.61600 0.40750 0.12500 -0.45700
O 	O 	0.81540 0.39270 0.05830 -0.22900
O 	O 	0.57640 0.00510 0.95270 -0.08300
O 	O 	0.81070 0.61640 0.06220 -0.19100
O 	O 	0.59990 0.60840 0.12580 -0.25800
O 	O 	0.41670 0.28150 0.93910 -0.18300
O 	O 	0.45750 0.27200 0.52380 -0.18500
O 	O 	0.57760 0.27390 0.43340 -0.20100
O 	O 	0.43950 0.71660 0.52420 -0.20300
O 	O 	0.83460 0.60440 0.38900 -0.21300
O 	O 	0.61150 0.59960 0.33410 -0.25500
O 	O 	0.84180 0.38240 0.39360 -0.23500
O 	O 	0.63300 0.40630 0.33200 -0.45000
O 	O 	0.38400 0.59250 0.62500 -0.46000
O 	O 	0.18460 0.60730 0.55830 -0.23800
O 	O 	0.42360 0.99490 0.45270 -0.07400
O 	O 	0.18930 0.38360 0.56220 -0.20000
O 	O 	0.40010 0.39160 0.62580 -0.26200
O 	O 	0.58330 0.71850 0.43910 -0.18600
