data_crystal

_cell_length_a 10.89810
_cell_length_b 11.54520
_cell_length_c 13.40860
_cell_angle_alpha 69.39900
_cell_angle_beta  79.95900
_cell_angle_gamma 62.24200

_symmetry_space_group_name_	'P 1'
_symmetry_space_group_name_H-M	'P 1'

loop_
_symmetry_equiv_pos_as_xyz
  x,y,z

loop_
_atom_site_label
_atom_site_type_symbol
_atom_site_fract_x
_atom_site_fract_y
_atom_site_fract_z
_atom_site_charge
Nd	Nd	0.62032 0.21632 0.77591 1.59400
Nd	Nd	0.37968 0.78368 0.22409 1.59400
U 	U 	0.36923 0.29599 0.16749 -0.00300
U 	U 	0.63077 0.70401 0.83251 -0.00300
U 	U 	1.00000 0.50000 0.50000 0.00300
H 	H 	0.18441 0.09619 0.73261 0.04500
H 	H 	0.70723 0.99898 0.41687 0.05200
H 	H 	0.09665 0.36347 0.95335 0.06700
H 	H 	0.81559 0.90381 0.26739 0.04500
H 	H 	0.29277 0.00102 0.58313 0.05200
H 	H 	0.90335 0.63653 0.04665 0.06600
C 	C 	0.41910 0.02900 0.81040 0.35200
C 	C 	0.91930 0.27740 0.71700 0.37000
C 	C 	0.03320 0.25800 0.78070 -0.06200
C 	C 	0.27800 0.13570 0.82900 -0.07900
C 	C 	0.00850 0.33780 0.84590 -0.04000
C 	C 	0.25010 0.21560 0.89610 -0.08400
C 	C 	0.16770 0.15460 0.77460 0.01100
C 	C 	0.25750 0.25560 0.49670 0.27700
C 	C 	0.52550 0.25260 0.38590 0.30100
C 	C 	0.87320 0.45700 0.84790 0.28000
C 	C 	0.35490 0.20080 0.96330 0.35100
C 	C 	0.62190 0.99950 0.45090 -0.00700
C 	C 	0.38460 0.12460 0.49760 -0.03900
C 	C 	0.50880 0.12440 0.44730 -0.04300
C 	C 	0.11600 0.31230 0.90490 -0.01100
C 	C 	0.58090 0.97100 0.18960 0.35200
C 	C 	0.08070 0.72260 0.28300 0.37000
C 	C 	0.96680 0.74200 0.21930 -0.06200
C 	C 	0.72200 0.86430 0.17100 -0.07900
C 	C 	0.99150 0.66220 0.15410 -0.04000
C 	C 	0.74990 0.78440 0.10390 -0.08400
C 	C 	0.83230 0.84540 0.22540 0.01100
C 	C 	0.74250 0.74440 0.50330 0.27700
C 	C 	0.47450 0.74740 0.61410 0.30100
C 	C 	0.12680 0.54300 0.15210 0.28000
C 	C 	0.64510 0.79920 0.03670 0.35100
C 	C 	0.37810 0.00050 0.54910 -0.00700
C 	C 	0.61540 0.87540 0.50240 -0.03900
C 	C 	0.49120 0.87560 0.55270 -0.04300
C 	C 	0.88400 0.68770 0.09510 -0.01100
O 	O 	0.90050 0.35680 0.62250 -0.23000
O 	O 	0.49470 0.30700 0.28750 -0.20700
O 	O 	0.31070 0.21500 0.05450 -0.22700
O 	O 	0.42720 0.90980 0.82770 -0.22100
O 	O 	0.77380 0.48640 0.79370 -0.21600
O 	O 	0.26500 0.36780 0.47030 -0.20400
O 	O 	0.85370 0.20850 0.76120 -0.46600
O 	O 	0.14350 0.25030 0.52480 -0.20400
O 	O 	0.51700 0.05980 0.77870 -0.42100
O 	O 	0.85660 0.53040 0.90400 -0.20500
O 	O 	0.47480 0.17910 0.93180 -0.44800
O 	O 	0.57700 0.29720 0.42960 -0.28400
O 	O 	0.09950 0.64320 0.37750 -0.23000
O 	O 	0.50530 0.69300 0.71250 -0.20700
O 	O 	0.68930 0.78500 0.94550 -0.22700
O 	O 	0.57280 0.09020 0.17230 -0.22100
O 	O 	0.22620 0.51360 0.20630 -0.21600
O 	O 	0.73500 0.63220 0.52970 -0.20400
O 	O 	0.14630 0.79150 0.23880 -0.46600
O 	O 	0.85650 0.74970 0.47520 -0.20400
O 	O 	0.48300 0.94020 0.22130 -0.42100
O 	O 	0.14340 0.46960 0.09600 -0.20500
O 	O 	0.52520 0.82090 0.06820 -0.44800
O 	O 	0.42300 0.70280 0.57040 -0.28400
