data_crystal

_cell_length_a 25.69650
_cell_length_b 25.69650
_cell_length_c 25.69650
_cell_angle_alpha 77.27390
_cell_angle_beta  77.27390
_cell_angle_gamma 77.27390

_symmetry_space_group_name_	'P 1'
_symmetry_space_group_name_H-M	'P 1'

loop_
_symmetry_equiv_pos_as_xyz
  x,y,z

loop_
_atom_site_label
_atom_site_type_symbol
_atom_site_fract_x
_atom_site_fract_y
_atom_site_fract_z
_atom_site_charge
Mn	Mn	0.05969 0.48379 0.29188 1.25800
Mn	Mn	0.20727 0.76957 0.98851 1.24900
Mn	Mn	0.17358 0.50263 0.99151 1.24700
Mn	Mn	0.25532 0.51383 0.69130 1.24900
Mn	Mn	0.29188 0.05969 0.48379 1.25800
Mn	Mn	0.98851 0.20727 0.76957 1.24900
Mn	Mn	0.99151 0.17358 0.50263 1.24700
Mn	Mn	0.69130 0.25532 0.51383 1.24900
Mn	Mn	0.48379 0.29188 0.05969 1.25800
Mn	Mn	0.76957 0.98851 0.20727 1.24900
Mn	Mn	0.50263 0.99151 0.17358 1.24700
Mn	Mn	0.51383 0.69130 0.25532 1.24900
Mn	Mn	0.94031 0.51621 0.70812 1.25900
Mn	Mn	0.79273 0.23043 0.01149 1.25000
Mn	Mn	0.82642 0.49737 0.00849 1.24800
Mn	Mn	0.74468 0.48617 0.30870 1.25000
Mn	Mn	0.70812 0.94031 0.51621 1.25900
Mn	Mn	0.01149 0.79273 0.23043 1.25000
Mn	Mn	0.00849 0.82642 0.49737 1.24800
Mn	Mn	0.30870 0.74468 0.48617 1.25000
Mn	Mn	0.51621 0.70812 0.94031 1.25900
Mn	Mn	0.23043 0.01149 0.79273 1.25000
Mn	Mn	0.49737 0.00849 0.82642 1.24800
Mn	Mn	0.48617 0.30870 0.74468 1.25000
Mo	Mo	0.07987 0.64059 0.11727 1.06500
Mo	Mo	0.35756 0.45161 0.85351 1.06900
Mo	Mo	0.11727 0.07987 0.64059 1.06500
Mo	Mo	0.85351 0.35756 0.45161 1.06900
Mo	Mo	0.64059 0.11727 0.07987 1.06500
Mo	Mo	0.45161 0.85351 0.35756 1.06900
Mo	Mo	0.92013 0.35941 0.88273 1.06500
Mo	Mo	0.64244 0.54839 0.14649 1.06900
Mo	Mo	0.88273 0.92013 0.35941 1.06500
Mo	Mo	0.14649 0.64244 0.54839 1.06900
Mo	Mo	0.35941 0.88273 0.92013 1.06500
Mo	Mo	0.54839 0.14649 0.64244 1.06900
H 	H 	0.04730 0.40220 0.37560 0.25500
H 	H 	0.13680 0.41560 0.16590 0.04400
H 	H 	0.11220 0.38420 0.22220 0.04200
H 	H 	0.05520 0.47480 0.16100 0.05200
H 	H 	0.04480 0.41510 0.17110 0.04900
H 	H 	0.94570 0.47250 0.21670 0.05600
H 	H 	0.97350 0.52150 0.21520 0.04400
H 	H 	0.90530 0.52360 0.28130 0.03600
H 	H 	0.92090 0.46150 0.30380 0.04500
H 	H 	0.88380 0.52140 0.42230 0.26200
H 	H 	0.88020 0.57800 0.38340 0.25500
H 	H 	0.87060 0.52760 0.36420 0.26600
H 	H 	0.94490 0.56500 0.45560 0.02900
H 	H 	0.01810 0.57800 0.49120 0.04500
H 	H 	0.10760 0.54950 0.44970 0.03700
H 	H 	0.20370 0.54130 0.35280 0.21600
H 	H 	0.18640 0.50800 0.41060 0.22400
H 	H 	0.21790 0.47790 0.36300 0.22000
H 	H 	0.21800 0.44880 0.29810 0.03400
H 	H 	0.20190 0.49830 0.25270 0.04300
H 	H 	0.16990 0.39800 0.27430 0.04500
H 	H 	0.20640 0.42210 0.22120 0.04800
H 	H 	0.34370 0.66370 0.99410 0.04000
H 	H 	0.35450 0.72320 0.98470 0.04000
H 	H 	0.32340 0.70170 0.07570 0.06100
H 	H 	0.27590 0.67740 0.06650 0.05000
H 	H 	0.21150 0.73750 0.12120 0.05300
H 	H 	0.24870 0.77620 0.12660 0.06100
H 	H 	0.19730 0.85010 0.07320 0.04100
H 	H 	0.15970 0.82670 0.12640 0.05800
H 	H 	0.08430 0.86330 0.06860 0.05200
H 	H 	0.12990 0.87970 0.01950 0.03600
H 	H 	0.06080 0.86270 0.98350 0.03200
H 	H 	0.06120 0.80600 0.02210 0.04200
H 	H 	0.06560 0.84640 0.86720 0.21600
H 	H 	0.05730 0.78590 0.88290 0.21700
H 	H 	0.03400 0.82500 0.92470 0.22000
H 	H 	0.13460 0.77330 0.81550 0.03200
H 	H 	0.21710 0.73090 0.76790 0.03500
H 	H 	0.29180 0.70820 0.80590 0.03300
H 	H 	0.38280 0.71170 0.88750 0.23600
H 	H 	0.36610 0.65500 0.89430 0.24300
H 	H 	0.35810 0.69890 0.84220 0.23700
H 	H 	0.30650 0.51140 0.04470 0.06600
H 	H 	0.24630 0.53260 0.07080 0.05400
H 	H 	0.28800 0.55280 0.95940 0.03900
H 	H 	0.27600 0.59600 0.99750 0.04600
H 	H 	0.21360 0.64720 0.93190 0.06600
H 	H 	0.22610 0.59630 0.90370 0.05700
H 	H 	0.13970 0.64000 0.89000 0.03500
H 	H 	0.12120 0.64660 0.95110 0.04300
H 	H 	0.05690 0.63750 0.88170 0.21700
H 	H 	0.03080 0.59130 0.87240 0.21500
H 	H 	0.00910 0.61650 0.92500 0.22100
H 	H 	0.99790 0.51180 0.91760 0.04500
H 	H 	0.99740 0.42120 0.94240 0.02200
H 	H 	0.05890 0.36240 0.99040 0.03900
H 	H 	0.14420 0.31130 0.06180 0.19400
H 	H 	0.12490 0.31770 0.00660 0.19400
H 	H 	0.18700 0.30870 0.00810 0.19700
H 	H 	0.25310 0.36950 0.03120 0.04500
H 	H 	0.21340 0.36000 0.08700 0.03600
H 	H 	0.21780 0.44020 0.10410 0.04700
H 	H 	0.27780 0.41080 0.08700 0.06900
H 	H 	0.32130 0.43030 0.53230 0.22100
H 	H 	0.32300 0.37250 0.56860 0.21500
H 	H 	0.26940 0.40370 0.54840 0.21800
H 	H 	0.24570 0.33630 0.63230 0.03300
H 	H 	0.19380 0.30150 0.71060 0.02900
H 	H 	0.16580 0.34630 0.78170 0.04600
H 	H 	0.12440 0.41510 0.84250 0.24300
H 	H 	0.18200 0.39150 0.85740 0.23900
H 	H 	0.15290 0.44990 0.86680 0.24100
H 	H 	0.13970 0.54090 0.81840 0.03500
H 	H 	0.19750 0.52760 0.83390 0.04000
H 	H 	0.18620 0.61560 0.79410 0.06200
H 	H 	0.16390 0.60390 0.74650 0.05100
H 	H 	0.23290 0.65170 0.68190 0.05600
H 	H 	0.26990 0.65560 0.72170 0.06000
H 	H 	0.34060 0.59500 0.68070 0.04200
H 	H 	0.32320 0.64540 0.63690 0.05600
H 	H 	0.36190 0.57560 0.56900 0.05400
H 	H 	0.37160 0.53020 0.61970 0.03900
H 	H 	0.35800 0.48760 0.55470 0.02800
H 	H 	0.30480 0.52980 0.54560 0.03800
H 	H 	0.37560 0.04730 0.40220 0.25500
H 	H 	0.16590 0.13680 0.41560 0.04400
H 	H 	0.22220 0.11220 0.38420 0.04200
H 	H 	0.16100 0.05520 0.47480 0.05200
H 	H 	0.17110 0.04480 0.41510 0.04900
H 	H 	0.21670 0.94570 0.47250 0.05600
H 	H 	0.21520 0.97350 0.52150 0.04400
H 	H 	0.28130 0.90530 0.52360 0.03600
H 	H 	0.30380 0.92090 0.46150 0.04500
H 	H 	0.42230 0.88380 0.52140 0.26200
H 	H 	0.38340 0.88020 0.57800 0.25500
H 	H 	0.36420 0.87060 0.52760 0.26600
H 	H 	0.45560 0.94490 0.56500 0.02900
H 	H 	0.49120 0.01810 0.57800 0.04500
H 	H 	0.44970 0.10760 0.54950 0.03700
H 	H 	0.35280 0.20370 0.54130 0.21600
H 	H 	0.41060 0.18640 0.50800 0.22400
H 	H 	0.36300 0.21790 0.47790 0.22000
H 	H 	0.29810 0.21800 0.44880 0.03400
H 	H 	0.25270 0.20190 0.49830 0.04300
H 	H 	0.27430 0.16990 0.39800 0.04500
H 	H 	0.22120 0.20640 0.42210 0.04800
H 	H 	0.99410 0.34370 0.66370 0.04000
H 	H 	0.98470 0.35450 0.72320 0.04000
H 	H 	0.07570 0.32340 0.70170 0.06100
H 	H 	0.06650 0.27590 0.67740 0.05000
H 	H 	0.12120 0.21150 0.73750 0.05300
H 	H 	0.12660 0.24870 0.77620 0.06100
H 	H 	0.07320 0.19730 0.85010 0.04100
H 	H 	0.12640 0.15970 0.82670 0.05800
H 	H 	0.06860 0.08430 0.86330 0.05200
H 	H 	0.01950 0.12990 0.87970 0.03600
H 	H 	0.98350 0.06080 0.86270 0.03200
H 	H 	0.02210 0.06120 0.80600 0.04200
H 	H 	0.86720 0.06560 0.84640 0.21600
H 	H 	0.88290 0.05730 0.78590 0.21700
H 	H 	0.92470 0.03400 0.82500 0.22000
H 	H 	0.81550 0.13460 0.77330 0.03200
H 	H 	0.76790 0.21710 0.73090 0.03500
H 	H 	0.80590 0.29180 0.70820 0.03300
H 	H 	0.88750 0.38280 0.71170 0.23600
H 	H 	0.89430 0.36610 0.65500 0.24300
H 	H 	0.84220 0.35810 0.69890 0.23700
H 	H 	0.04470 0.30650 0.51140 0.06600
H 	H 	0.07080 0.24630 0.53260 0.05400
H 	H 	0.95940 0.28800 0.55280 0.03900
H 	H 	0.99750 0.27600 0.59600 0.04600
H 	H 	0.93190 0.21360 0.64720 0.06600
H 	H 	0.90370 0.22610 0.59630 0.05700
H 	H 	0.89000 0.13970 0.64000 0.03500
H 	H 	0.95110 0.12120 0.64660 0.04300
H 	H 	0.88170 0.05690 0.63750 0.21700
H 	H 	0.87240 0.03080 0.59130 0.21500
H 	H 	0.92500 0.00910 0.61650 0.22100
H 	H 	0.91760 0.99790 0.51180 0.04500
H 	H 	0.94240 0.99740 0.42120 0.02200
H 	H 	0.99040 0.05890 0.36240 0.03900
H 	H 	0.06180 0.14420 0.31130 0.19400
H 	H 	0.00660 0.12490 0.31770 0.19400
H 	H 	0.00810 0.18700 0.30870 0.19700
H 	H 	0.03120 0.25310 0.36950 0.04500
H 	H 	0.08700 0.21340 0.36000 0.03600
H 	H 	0.10410 0.21780 0.44020 0.04700
H 	H 	0.08700 0.27780 0.41080 0.06900
H 	H 	0.53230 0.32130 0.43030 0.22100
H 	H 	0.56860 0.32300 0.37250 0.21500
H 	H 	0.54840 0.26940 0.40370 0.21800
H 	H 	0.63230 0.24570 0.33630 0.03300
H 	H 	0.71060 0.19380 0.30150 0.02900
H 	H 	0.78170 0.16580 0.34630 0.04600
H 	H 	0.84250 0.12440 0.41510 0.24300
H 	H 	0.85740 0.18200 0.39150 0.23900
H 	H 	0.86680 0.15290 0.44990 0.24100
H 	H 	0.81840 0.13970 0.54090 0.03500
H 	H 	0.83390 0.19750 0.52760 0.04000
H 	H 	0.79410 0.18620 0.61560 0.06200
H 	H 	0.74650 0.16390 0.60390 0.05100
H 	H 	0.68190 0.23290 0.65170 0.05600
H 	H 	0.72170 0.26990 0.65560 0.06000
H 	H 	0.68070 0.34060 0.59500 0.04200
H 	H 	0.63690 0.32320 0.64540 0.05600
H 	H 	0.56900 0.36190 0.57560 0.05400
H 	H 	0.61970 0.37160 0.53020 0.03900
H 	H 	0.55470 0.35800 0.48760 0.02800
H 	H 	0.54560 0.30480 0.52980 0.03800
H 	H 	0.40220 0.37560 0.04730 0.25500
H 	H 	0.41560 0.16590 0.13680 0.04400
H 	H 	0.38420 0.22220 0.11220 0.04200
H 	H 	0.47480 0.16100 0.05520 0.05200
H 	H 	0.41510 0.17110 0.04480 0.04900
H 	H 	0.47250 0.21670 0.94570 0.05600
H 	H 	0.52150 0.21520 0.97350 0.04400
H 	H 	0.52360 0.28130 0.90530 0.03600
H 	H 	0.46150 0.30380 0.92090 0.04500
H 	H 	0.52140 0.42230 0.88380 0.26200
H 	H 	0.57800 0.38340 0.88020 0.25500
H 	H 	0.52760 0.36420 0.87060 0.26600
H 	H 	0.56500 0.45560 0.94490 0.02900
H 	H 	0.57800 0.49120 0.01810 0.04500
H 	H 	0.54950 0.44970 0.10760 0.03700
H 	H 	0.54130 0.35280 0.20370 0.21600
H 	H 	0.50800 0.41060 0.18640 0.22400
H 	H 	0.47790 0.36300 0.21790 0.22000
H 	H 	0.44880 0.29810 0.21800 0.03400
H 	H 	0.49830 0.25270 0.20190 0.04300
H 	H 	0.39800 0.27430 0.16990 0.04500
H 	H 	0.42210 0.22120 0.20640 0.04800
H 	H 	0.66370 0.99410 0.34370 0.04000
H 	H 	0.72320 0.98470 0.35450 0.04000
H 	H 	0.70170 0.07570 0.32340 0.06100
H 	H 	0.67740 0.06650 0.27590 0.05000
H 	H 	0.73750 0.12120 0.21150 0.05300
H 	H 	0.77620 0.12660 0.24870 0.06100
H 	H 	0.85010 0.07320 0.19730 0.04100
H 	H 	0.82670 0.12640 0.15970 0.05800
H 	H 	0.86330 0.06860 0.08430 0.05200
H 	H 	0.87970 0.01950 0.12990 0.03600
H 	H 	0.86270 0.98350 0.06080 0.03200
H 	H 	0.80600 0.02210 0.06120 0.04200
H 	H 	0.84640 0.86720 0.06560 0.21600
H 	H 	0.78590 0.88290 0.05730 0.21700
H 	H 	0.82500 0.92470 0.03400 0.22000
H 	H 	0.77330 0.81550 0.13460 0.03200
H 	H 	0.73090 0.76790 0.21710 0.03500
H 	H 	0.70820 0.80590 0.29180 0.03300
H 	H 	0.71170 0.88750 0.38280 0.23600
H 	H 	0.65500 0.89430 0.36610 0.24300
H 	H 	0.69890 0.84220 0.35810 0.23700
H 	H 	0.51140 0.04470 0.30650 0.06600
H 	H 	0.53260 0.07080 0.24630 0.05400
H 	H 	0.55280 0.95940 0.28800 0.03900
H 	H 	0.59600 0.99750 0.27600 0.04600
H 	H 	0.64720 0.93190 0.21360 0.06600
H 	H 	0.59630 0.90370 0.22610 0.05700
H 	H 	0.64000 0.89000 0.13970 0.03500
H 	H 	0.64660 0.95110 0.12120 0.04300
H 	H 	0.63750 0.88170 0.05690 0.21700
H 	H 	0.59130 0.87240 0.03080 0.21500
H 	H 	0.61650 0.92500 0.00910 0.22100
H 	H 	0.51180 0.91760 0.99790 0.04500
H 	H 	0.42120 0.94240 0.99740 0.02200
H 	H 	0.36240 0.99040 0.05890 0.03900
H 	H 	0.31130 0.06180 0.14420 0.19400
H 	H 	0.31770 0.00660 0.12490 0.19400
H 	H 	0.30870 0.00810 0.18700 0.19700
H 	H 	0.36950 0.03120 0.25310 0.04500
H 	H 	0.36000 0.08700 0.21340 0.03600
H 	H 	0.44020 0.10410 0.21780 0.04700
H 	H 	0.41080 0.08700 0.27780 0.06900
H 	H 	0.43030 0.53230 0.32130 0.22100
H 	H 	0.37250 0.56860 0.32300 0.21500
H 	H 	0.40370 0.54840 0.26940 0.21800
H 	H 	0.33630 0.63230 0.24570 0.03300
H 	H 	0.30150 0.71060 0.19380 0.02900
H 	H 	0.34630 0.78170 0.16580 0.04600
H 	H 	0.41510 0.84250 0.12440 0.24300
H 	H 	0.39150 0.85740 0.18200 0.23900
H 	H 	0.44990 0.86680 0.15290 0.24100
H 	H 	0.54090 0.81840 0.13970 0.03500
H 	H 	0.52760 0.83390 0.19750 0.04000
H 	H 	0.61560 0.79410 0.18620 0.06200
H 	H 	0.60390 0.74650 0.16390 0.05100
H 	H 	0.65170 0.68190 0.23290 0.05600
H 	H 	0.65560 0.72170 0.26990 0.06000
H 	H 	0.59500 0.68070 0.34060 0.04200
H 	H 	0.64540 0.63690 0.32320 0.05600
H 	H 	0.57560 0.56900 0.36190 0.05400
H 	H 	0.53020 0.61970 0.37160 0.03900
H 	H 	0.48760 0.55470 0.35800 0.02800
H 	H 	0.52980 0.54560 0.30480 0.03800
H 	H 	0.95270 0.59780 0.62440 0.25500
H 	H 	0.86320 0.58440 0.83410 0.04400
H 	H 	0.88780 0.61580 0.77780 0.04200
H 	H 	0.94480 0.52520 0.83900 0.05200
H 	H 	0.95520 0.58490 0.82890 0.04900
H 	H 	0.05430 0.52750 0.78330 0.05600
H 	H 	0.02650 0.47850 0.78480 0.04400
H 	H 	0.09470 0.47640 0.71870 0.03600
H 	H 	0.07910 0.53850 0.69620 0.04500
H 	H 	0.11620 0.47860 0.57770 0.26200
H 	H 	0.11980 0.42200 0.61660 0.25500
H 	H 	0.12940 0.47240 0.63580 0.26600
H 	H 	0.05510 0.43500 0.54440 0.02900
H 	H 	0.98190 0.42200 0.50880 0.04500
H 	H 	0.89240 0.45050 0.55030 0.03700
H 	H 	0.79630 0.45870 0.64720 0.21600
H 	H 	0.81360 0.49200 0.58940 0.22400
H 	H 	0.78210 0.52210 0.63700 0.22000
H 	H 	0.78200 0.55120 0.70190 0.03400
H 	H 	0.79810 0.50170 0.74730 0.04300
H 	H 	0.83010 0.60200 0.72570 0.04500
H 	H 	0.79360 0.57790 0.77880 0.04800
H 	H 	0.65630 0.33630 0.00590 0.04000
H 	H 	0.64550 0.27680 0.01530 0.04000
H 	H 	0.67660 0.29830 0.92430 0.06100
H 	H 	0.72410 0.32260 0.93350 0.05000
H 	H 	0.78850 0.26250 0.87880 0.05300
H 	H 	0.75130 0.22380 0.87340 0.06100
H 	H 	0.80270 0.14990 0.92680 0.04100
H 	H 	0.84030 0.17330 0.87360 0.05800
H 	H 	0.91570 0.13670 0.93140 0.05200
H 	H 	0.87010 0.12030 0.98050 0.03600
H 	H 	0.93920 0.13730 0.01650 0.03200
H 	H 	0.93880 0.19400 0.97790 0.04200
H 	H 	0.93440 0.15360 0.13280 0.21600
H 	H 	0.94270 0.21410 0.11710 0.21700
H 	H 	0.96600 0.17500 0.07530 0.22000
H 	H 	0.86540 0.22670 0.18450 0.03200
H 	H 	0.78290 0.26910 0.23210 0.03500
H 	H 	0.70820 0.29180 0.19410 0.03300
H 	H 	0.61720 0.28830 0.11250 0.23600
H 	H 	0.63390 0.34500 0.10570 0.24300
H 	H 	0.64190 0.30110 0.15780 0.23700
H 	H 	0.69350 0.48860 0.95530 0.06600
H 	H 	0.75370 0.46740 0.92920 0.05400
H 	H 	0.71200 0.44720 0.04060 0.03900
H 	H 	0.72400 0.40400 0.00250 0.04600
H 	H 	0.78640 0.35280 0.06810 0.06600
H 	H 	0.77390 0.40370 0.09630 0.05700
H 	H 	0.86030 0.36000 0.11000 0.03500
H 	H 	0.87880 0.35340 0.04890 0.04300
H 	H 	0.94310 0.36250 0.11830 0.21700
H 	H 	0.96920 0.40870 0.12760 0.21500
H 	H 	0.99090 0.38350 0.07500 0.22100
H 	H 	0.00210 0.48820 0.08240 0.04500
H 	H 	0.00260 0.57880 0.05760 0.02200
H 	H 	0.94110 0.63760 0.00960 0.03900
H 	H 	0.85580 0.68870 0.93820 0.19400
H 	H 	0.87510 0.68230 0.99340 0.19400
H 	H 	0.81300 0.69130 0.99190 0.19700
H 	H 	0.74690 0.63050 0.96880 0.04500
H 	H 	0.78660 0.64000 0.91300 0.03600
H 	H 	0.78220 0.55980 0.89590 0.04700
H 	H 	0.72220 0.58920 0.91300 0.06900
H 	H 	0.67870 0.56970 0.46770 0.22100
H 	H 	0.67700 0.62750 0.43140 0.21500
H 	H 	0.73060 0.59630 0.45160 0.21800
H 	H 	0.75430 0.66370 0.36770 0.03300
H 	H 	0.80620 0.69850 0.28940 0.02900
H 	H 	0.83420 0.65370 0.21830 0.04600
H 	H 	0.87560 0.58490 0.15750 0.24300
H 	H 	0.81800 0.60850 0.14260 0.23900
H 	H 	0.84710 0.55010 0.13320 0.24100
H 	H 	0.86030 0.45910 0.18160 0.03500
H 	H 	0.80250 0.47240 0.16610 0.04000
H 	H 	0.81380 0.38440 0.20590 0.06200
H 	H 	0.83610 0.39610 0.25350 0.05100
H 	H 	0.76710 0.34830 0.31810 0.05600
H 	H 	0.73010 0.34440 0.27830 0.06000
H 	H 	0.65940 0.40500 0.31930 0.04200
H 	H 	0.67680 0.35460 0.36310 0.05600
H 	H 	0.63810 0.42440 0.43100 0.05400
H 	H 	0.62840 0.46980 0.38030 0.03900
H 	H 	0.64200 0.51240 0.44530 0.02800
H 	H 	0.69520 0.47020 0.45440 0.03800
H 	H 	0.62440 0.95270 0.59780 0.25500
H 	H 	0.83410 0.86320 0.58440 0.04400
H 	H 	0.77780 0.88780 0.61580 0.04200
H 	H 	0.83900 0.94480 0.52520 0.05200
H 	H 	0.82890 0.95520 0.58490 0.04900
H 	H 	0.78330 0.05430 0.52750 0.05600
H 	H 	0.78480 0.02650 0.47850 0.04400
H 	H 	0.71870 0.09470 0.47640 0.03600
H 	H 	0.69620 0.07910 0.53850 0.04500
H 	H 	0.57770 0.11620 0.47860 0.26200
H 	H 	0.61660 0.11980 0.42200 0.25500
H 	H 	0.63580 0.12940 0.47240 0.26600
H 	H 	0.54440 0.05510 0.43500 0.02900
H 	H 	0.50880 0.98190 0.42200 0.04500
H 	H 	0.55030 0.89240 0.45050 0.03700
H 	H 	0.64720 0.79630 0.45870 0.21600
H 	H 	0.58940 0.81360 0.49200 0.22400
H 	H 	0.63700 0.78210 0.52210 0.22000
H 	H 	0.70190 0.78200 0.55120 0.03400
H 	H 	0.74730 0.79810 0.50170 0.04300
H 	H 	0.72570 0.83010 0.60200 0.04500
H 	H 	0.77880 0.79360 0.57790 0.04800
H 	H 	0.00590 0.65630 0.33630 0.04000
H 	H 	0.01530 0.64550 0.27680 0.04000
H 	H 	0.92430 0.67660 0.29830 0.06100
H 	H 	0.93350 0.72410 0.32260 0.05000
H 	H 	0.87880 0.78850 0.26250 0.05300
H 	H 	0.87340 0.75130 0.22380 0.06100
H 	H 	0.92680 0.80270 0.14990 0.04100
H 	H 	0.87360 0.84030 0.17330 0.05800
H 	H 	0.93140 0.91570 0.13670 0.05200
H 	H 	0.98050 0.87010 0.12030 0.03600
H 	H 	0.01650 0.93920 0.13730 0.03200
H 	H 	0.97790 0.93880 0.19400 0.04200
H 	H 	0.13280 0.93440 0.15360 0.21600
H 	H 	0.11710 0.94270 0.21410 0.21700
H 	H 	0.07530 0.96600 0.17500 0.22000
H 	H 	0.18450 0.86540 0.22670 0.03200
H 	H 	0.23210 0.78290 0.26910 0.03500
H 	H 	0.19410 0.70820 0.29180 0.03300
H 	H 	0.11250 0.61720 0.28830 0.23600
H 	H 	0.10570 0.63390 0.34500 0.24300
H 	H 	0.15780 0.64190 0.30110 0.23700
H 	H 	0.95530 0.69350 0.48860 0.06600
H 	H 	0.92920 0.75370 0.46740 0.05400
H 	H 	0.04060 0.71200 0.44720 0.03900
H 	H 	0.00250 0.72400 0.40400 0.04600
H 	H 	0.06810 0.78640 0.35280 0.06600
H 	H 	0.09630 0.77390 0.40370 0.05700
H 	H 	0.11000 0.86030 0.36000 0.03500
H 	H 	0.04890 0.87880 0.35340 0.04300
H 	H 	0.11830 0.94310 0.36250 0.21700
H 	H 	0.12760 0.96920 0.40870 0.21500
H 	H 	0.07500 0.99090 0.38350 0.22100
H 	H 	0.08240 0.00210 0.48820 0.04500
H 	H 	0.05760 0.00260 0.57880 0.02200
H 	H 	0.00960 0.94110 0.63760 0.03900
H 	H 	0.93820 0.85580 0.68870 0.19400
H 	H 	0.99340 0.87510 0.68230 0.19400
H 	H 	0.99190 0.81300 0.69130 0.19700
H 	H 	0.96880 0.74690 0.63050 0.04500
H 	H 	0.91300 0.78660 0.64000 0.03600
H 	H 	0.89590 0.78220 0.55980 0.04700
H 	H 	0.91300 0.72220 0.58920 0.06900
H 	H 	0.46770 0.67870 0.56970 0.22100
H 	H 	0.43140 0.67700 0.62750 0.21500
H 	H 	0.45160 0.73060 0.59630 0.21800
H 	H 	0.36770 0.75430 0.66370 0.03300
H 	H 	0.28940 0.80620 0.69850 0.02900
H 	H 	0.21830 0.83420 0.65370 0.04600
H 	H 	0.15750 0.87560 0.58490 0.24300
H 	H 	0.14260 0.81800 0.60850 0.23900
H 	H 	0.13320 0.84710 0.55010 0.24100
H 	H 	0.18160 0.86030 0.45910 0.03500
H 	H 	0.16610 0.80250 0.47240 0.04000
H 	H 	0.20590 0.81380 0.38440 0.06200
H 	H 	0.25350 0.83610 0.39610 0.05100
H 	H 	0.31810 0.76710 0.34830 0.05600
H 	H 	0.27830 0.73010 0.34440 0.06000
H 	H 	0.31930 0.65940 0.40500 0.04200
H 	H 	0.36310 0.67680 0.35460 0.05600
H 	H 	0.43100 0.63810 0.42440 0.05400
H 	H 	0.38030 0.62840 0.46980 0.03900
H 	H 	0.44530 0.64200 0.51240 0.02800
H 	H 	0.45440 0.69520 0.47020 0.03800
H 	H 	0.59780 0.62440 0.95270 0.25500
H 	H 	0.58440 0.83410 0.86320 0.04400
H 	H 	0.61580 0.77780 0.88780 0.04200
H 	H 	0.52520 0.83900 0.94480 0.05200
H 	H 	0.58490 0.82890 0.95520 0.04900
H 	H 	0.52750 0.78330 0.05430 0.05600
H 	H 	0.47850 0.78480 0.02650 0.04400
H 	H 	0.47640 0.71870 0.09470 0.03600
H 	H 	0.53850 0.69620 0.07910 0.04500
H 	H 	0.47860 0.57770 0.11620 0.26200
H 	H 	0.42200 0.61660 0.11980 0.25500
H 	H 	0.47240 0.63580 0.12940 0.26600
H 	H 	0.43500 0.54440 0.05510 0.02900
H 	H 	0.42200 0.50880 0.98190 0.04500
H 	H 	0.45050 0.55030 0.89240 0.03700
H 	H 	0.45870 0.64720 0.79630 0.21600
H 	H 	0.49200 0.58940 0.81360 0.22400
H 	H 	0.52210 0.63700 0.78210 0.22000
H 	H 	0.55120 0.70190 0.78200 0.03400
H 	H 	0.50170 0.74730 0.79810 0.04300
H 	H 	0.60200 0.72570 0.83010 0.04500
H 	H 	0.57790 0.77880 0.79360 0.04800
H 	H 	0.33630 0.00590 0.65630 0.04000
H 	H 	0.27680 0.01530 0.64550 0.04000
H 	H 	0.29830 0.92430 0.67660 0.06100
H 	H 	0.32260 0.93350 0.72410 0.05000
H 	H 	0.26250 0.87880 0.78850 0.05300
H 	H 	0.22380 0.87340 0.75130 0.06100
H 	H 	0.14990 0.92680 0.80270 0.04100
H 	H 	0.17330 0.87360 0.84030 0.05800
H 	H 	0.13670 0.93140 0.91570 0.05200
H 	H 	0.12030 0.98050 0.87010 0.03600
H 	H 	0.13730 0.01650 0.93920 0.03200
H 	H 	0.19400 0.97790 0.93880 0.04200
H 	H 	0.15360 0.13280 0.93440 0.21600
H 	H 	0.21410 0.11710 0.94270 0.21700
H 	H 	0.17500 0.07530 0.96600 0.22000
H 	H 	0.22670 0.18450 0.86540 0.03200
H 	H 	0.26910 0.23210 0.78290 0.03500
H 	H 	0.29180 0.19410 0.70820 0.03300
H 	H 	0.28830 0.11250 0.61720 0.23600
H 	H 	0.34500 0.10570 0.63390 0.24300
H 	H 	0.30110 0.15780 0.64190 0.23700
H 	H 	0.48860 0.95530 0.69350 0.06600
H 	H 	0.46740 0.92920 0.75370 0.05400
H 	H 	0.44720 0.04060 0.71200 0.03900
H 	H 	0.40400 0.00250 0.72400 0.04600
H 	H 	0.35280 0.06810 0.78640 0.06600
H 	H 	0.40370 0.09630 0.77390 0.05700
H 	H 	0.36000 0.11000 0.86030 0.03500
H 	H 	0.35340 0.04890 0.87880 0.04300
H 	H 	0.36250 0.11830 0.94310 0.21700
H 	H 	0.40870 0.12760 0.96920 0.21500
H 	H 	0.38350 0.07500 0.99090 0.22100
H 	H 	0.48820 0.08240 0.00210 0.04500
H 	H 	0.57880 0.05760 0.00260 0.02200
H 	H 	0.63760 0.00960 0.94110 0.03900
H 	H 	0.68870 0.93820 0.85580 0.19400
H 	H 	0.68230 0.99340 0.87510 0.19400
H 	H 	0.69130 0.99190 0.81300 0.19700
H 	H 	0.63050 0.96880 0.74690 0.04500
H 	H 	0.64000 0.91300 0.78660 0.03600
H 	H 	0.55980 0.89590 0.78220 0.04700
H 	H 	0.58920 0.91300 0.72220 0.06900
H 	H 	0.56970 0.46770 0.67870 0.22100
H 	H 	0.62750 0.43140 0.67700 0.21500
H 	H 	0.59630 0.45160 0.73060 0.21800
H 	H 	0.66370 0.36770 0.75430 0.03300
H 	H 	0.69850 0.28940 0.80620 0.02900
H 	H 	0.65370 0.21830 0.83420 0.04600
H 	H 	0.58490 0.15750 0.87560 0.24300
H 	H 	0.60850 0.14260 0.81800 0.23900
H 	H 	0.55010 0.13320 0.84710 0.24100
H 	H 	0.45910 0.18160 0.86030 0.03500
H 	H 	0.47240 0.16610 0.80250 0.04000
H 	H 	0.38440 0.20590 0.81380 0.06200
H 	H 	0.39610 0.25350 0.83610 0.05100
H 	H 	0.34830 0.31810 0.76710 0.05600
H 	H 	0.34440 0.27830 0.73010 0.06000
H 	H 	0.40500 0.31930 0.65940 0.04200
H 	H 	0.35460 0.36310 0.67680 0.05600
H 	H 	0.42440 0.43100 0.63810 0.05400
H 	H 	0.46980 0.38030 0.62840 0.03900
H 	H 	0.51240 0.44530 0.64200 0.02800
H 	H 	0.47020 0.45440 0.69520 0.03800
C 	C 	0.14168 0.67448 0.05688 -0.12800
C 	C 	0.10458 0.56598 0.08668 -0.15500
C 	C 	0.15060 0.62680 0.15330 -0.15200
C 	C 	0.06565 0.59095 0.19445 -0.13600
C 	C 	0.99310 0.64110 0.14140 -0.14200
C 	C 	0.05955 0.71735 0.14255 -0.15400
C 	C 	0.04471 0.67691 0.04501 -0.14500
C 	C 	0.27484 0.47324 0.89264 -0.12200
C 	C 	0.33960 0.53970 0.84170 -0.14700
C 	C 	0.33740 0.46640 0.77320 -0.13800
C 	C 	0.43460 0.47950 0.81980 -0.14900
C 	C 	0.41748 0.38298 0.83108 -0.12100
C 	C 	0.32090 0.38500 0.86900 -0.17500
C 	C 	0.37600 0.43710 0.93190 -0.16800
C 	C 	0.11180 0.41980 0.19960 -0.06500
C 	C 	0.05580 0.44110 0.18690 -0.10600
C 	C 	0.96650 0.48640 0.23600 -0.10000
C 	C 	0.93550 0.49390 0.28620 -0.05200
C 	C 	0.94900 0.52650 0.36340 0.25800
C 	C 	0.89090 0.53940 0.38520 -0.79200
C 	C 	0.99030 0.53390 0.39120 -0.06000
C 	C 	0.98040 0.55530 0.43820 -0.02800
C 	C 	0.02520 0.56240 0.46040 -0.04300
C 	C 	0.07800 0.54610 0.43620 -0.05400
C 	C 	0.08340 0.52470 0.39010 -0.02700
C 	C 	0.13770 0.50660 0.35750 0.18800
C 	C 	0.19140 0.50860 0.37230 -0.67300
C 	C 	0.18930 0.46770 0.27820 -0.06900
C 	C 	0.17560 0.43130 0.24910 -0.07800
C 	C 	0.32640 0.70100 0.99540 -0.05100
C 	C 	0.29710 0.70600 0.05240 -0.11100
C 	C 	0.22730 0.76920 0.10310 -0.09300
C 	C 	0.18180 0.81850 0.09240 -0.09300
C 	C 	0.11110 0.85040 0.03910 -0.09200
C 	C 	0.08380 0.83180 0.00130 -0.05500
C 	C 	0.11630 0.79970 0.91780 0.19800
C 	C 	0.06340 0.81580 0.89610 -0.67600
C 	C 	0.16448 0.77248 0.88238 -0.02600
C 	C 	0.16560 0.76320 0.83090 -0.05100
C 	C 	0.21540 0.73770 0.80240 -0.03400
C 	C 	0.25900 0.72390 0.82480 -0.04000
C 	C 	0.25600 0.73300 0.87780 -0.03100
C 	C 	0.30120 0.71510 0.90810 0.21000
C 	C 	0.35710 0.69310 0.88050 -0.71600
C 	C 	0.26930 0.52070 0.03870 -0.11400
C 	C 	0.26480 0.56450 0.99160 -0.05600
C 	C 	0.20310 0.61280 0.93330 -0.11200
C 	C 	0.14320 0.62270 0.92690 -0.04400
C 	C 	0.08120 0.56400 0.92790 0.17500
C 	C 	0.04080 0.60620 0.89910 -0.65900
C 	C 	0.07050 0.50770 0.94540 -0.01200
C 	C 	0.02490 0.48830 0.93450 -0.07200
C 	C 	0.02470 0.43480 0.95070 -0.00500
C 	C 	0.06180 0.39880 0.97840 -0.07500
C 	C 	0.10320 0.41950 0.98710 -0.01700
C 	C 	0.14810 0.38890 0.01450 0.15200
C 	C 	0.15140 0.32540 0.02370 -0.59800
C 	C 	0.22430 0.38740 0.05620 -0.04600
C 	C 	0.24400 0.42700 0.07430 -0.10700
C 	C 	0.28380 0.43260 0.61010 0.19600
C 	C 	0.30090 0.40760 0.56040 -0.68000
C 	C 	0.25014 0.40434 0.65804 -0.03000
C 	C 	0.23480 0.35490 0.66120 -0.06100
C 	C 	0.20400 0.33480 0.70760 -0.02100
C 	C 	0.18700 0.36130 0.75000 -0.06000
C 	C 	0.20212 0.41132 0.74552 -0.02100
C 	C 	0.18450 0.44720 0.78690 0.19800
C 	C 	0.15860 0.42390 0.84360 -0.71100
C 	C 	0.17811 0.53761 0.80371 -0.05100
C 	C 	0.19000 0.58980 0.77050 -0.10700
C 	C 	0.26180 0.63170 0.70120 -0.09500
C 	C 	0.31150 0.61390 0.66150 -0.09200
C 	C 	0.34500 0.54960 0.59750 -0.10000
C 	C 	0.32670 0.51020 0.57240 -0.04900
C 	C 	0.05688 0.14168 0.67448 -0.12800
C 	C 	0.08668 0.10458 0.56598 -0.15500
C 	C 	0.15330 0.15060 0.62680 -0.15200
C 	C 	0.19445 0.06565 0.59095 -0.13600
C 	C 	0.14140 0.99310 0.64110 -0.14200
C 	C 	0.14255 0.05955 0.71735 -0.15400
C 	C 	0.04501 0.04471 0.67691 -0.14500
C 	C 	0.89264 0.27484 0.47324 -0.12200
C 	C 	0.84170 0.33960 0.53970 -0.14700
C 	C 	0.77320 0.33740 0.46640 -0.13800
C 	C 	0.81980 0.43460 0.47950 -0.14900
C 	C 	0.83108 0.41748 0.38298 -0.12100
C 	C 	0.86900 0.32090 0.38500 -0.17500
C 	C 	0.93190 0.37600 0.43710 -0.16800
C 	C 	0.19960 0.11180 0.41980 -0.06500
C 	C 	0.18690 0.05580 0.44110 -0.10600
C 	C 	0.23600 0.96650 0.48640 -0.10000
C 	C 	0.28620 0.93550 0.49390 -0.05200
C 	C 	0.36340 0.94900 0.52650 0.25800
C 	C 	0.38520 0.89090 0.53940 -0.79200
C 	C 	0.39120 0.99030 0.53390 -0.06000
C 	C 	0.43820 0.98040 0.55530 -0.02800
C 	C 	0.46040 0.02520 0.56240 -0.04300
C 	C 	0.43620 0.07800 0.54610 -0.05400
C 	C 	0.39010 0.08340 0.52470 -0.02700
C 	C 	0.35750 0.13770 0.50660 0.18800
C 	C 	0.37230 0.19140 0.50860 -0.67300
C 	C 	0.27820 0.18930 0.46770 -0.06900
C 	C 	0.24910 0.17560 0.43130 -0.07800
C 	C 	0.99540 0.32640 0.70100 -0.05100
C 	C 	0.05240 0.29710 0.70600 -0.11100
C 	C 	0.10310 0.22730 0.76920 -0.09300
C 	C 	0.09240 0.18180 0.81850 -0.09300
C 	C 	0.03910 0.11110 0.85040 -0.09200
C 	C 	0.00130 0.08380 0.83180 -0.05500
C 	C 	0.91780 0.11630 0.79970 0.19800
C 	C 	0.89610 0.06340 0.81580 -0.67600
C 	C 	0.88238 0.16448 0.77248 -0.02600
C 	C 	0.83090 0.16560 0.76320 -0.05100
C 	C 	0.80240 0.21540 0.73770 -0.03400
C 	C 	0.82480 0.25900 0.72390 -0.04000
C 	C 	0.87780 0.25600 0.73300 -0.03100
C 	C 	0.90810 0.30120 0.71510 0.21000
C 	C 	0.88050 0.35710 0.69310 -0.71600
C 	C 	0.03870 0.26930 0.52070 -0.11400
C 	C 	0.99160 0.26480 0.56450 -0.05600
C 	C 	0.93330 0.20310 0.61280 -0.11200
C 	C 	0.92690 0.14320 0.62270 -0.04400
C 	C 	0.92790 0.08120 0.56400 0.17500
C 	C 	0.89910 0.04080 0.60620 -0.65900
C 	C 	0.94540 0.07050 0.50770 -0.01200
C 	C 	0.93450 0.02490 0.48830 -0.07200
C 	C 	0.95070 0.02470 0.43480 -0.00500
C 	C 	0.97840 0.06180 0.39880 -0.07500
C 	C 	0.98710 0.10320 0.41950 -0.01700
C 	C 	0.01450 0.14810 0.38890 0.15200
C 	C 	0.02370 0.15140 0.32540 -0.59800
C 	C 	0.05620 0.22430 0.38740 -0.04600
C 	C 	0.07430 0.24400 0.42700 -0.10700
C 	C 	0.61010 0.28380 0.43260 0.19600
C 	C 	0.56040 0.30090 0.40760 -0.68000
C 	C 	0.65804 0.25014 0.40434 -0.03000
C 	C 	0.66120 0.23480 0.35490 -0.06100
C 	C 	0.70760 0.20400 0.33480 -0.02100
C 	C 	0.75000 0.18700 0.36130 -0.06000
C 	C 	0.74552 0.20212 0.41132 -0.02100
C 	C 	0.78690 0.18450 0.44720 0.19800
C 	C 	0.84360 0.15860 0.42390 -0.71100
C 	C 	0.80371 0.17811 0.53761 -0.05100
C 	C 	0.77050 0.19000 0.58980 -0.10700
C 	C 	0.70120 0.26180 0.63170 -0.09500
C 	C 	0.66150 0.31150 0.61390 -0.09200
C 	C 	0.59750 0.34500 0.54960 -0.10000
C 	C 	0.57240 0.32670 0.51020 -0.04900
C 	C 	0.67448 0.05688 0.14168 -0.12800
C 	C 	0.56598 0.08668 0.10458 -0.15500
C 	C 	0.62680 0.15330 0.15060 -0.15200
C 	C 	0.59095 0.19445 0.06565 -0.13600
C 	C 	0.64110 0.14140 0.99310 -0.14200
C 	C 	0.71735 0.14255 0.05955 -0.15400
C 	C 	0.67691 0.04501 0.04471 -0.14500
C 	C 	0.47324 0.89264 0.27484 -0.12200
C 	C 	0.53970 0.84170 0.33960 -0.14700
C 	C 	0.46640 0.77320 0.33740 -0.13800
C 	C 	0.47950 0.81980 0.43460 -0.14900
C 	C 	0.38298 0.83108 0.41748 -0.12100
C 	C 	0.38500 0.86900 0.32090 -0.17500
C 	C 	0.43710 0.93190 0.37600 -0.16800
C 	C 	0.41980 0.19960 0.11180 -0.06500
C 	C 	0.44110 0.18690 0.05580 -0.10600
C 	C 	0.48640 0.23600 0.96650 -0.10000
C 	C 	0.49390 0.28620 0.93550 -0.05200
C 	C 	0.52650 0.36340 0.94900 0.25800
C 	C 	0.53940 0.38520 0.89090 -0.79200
C 	C 	0.53390 0.39120 0.99030 -0.06000
C 	C 	0.55530 0.43820 0.98040 -0.02800
C 	C 	0.56240 0.46040 0.02520 -0.04300
C 	C 	0.54610 0.43620 0.07800 -0.05400
C 	C 	0.52470 0.39010 0.08340 -0.02700
C 	C 	0.50660 0.35750 0.13770 0.18800
C 	C 	0.50860 0.37230 0.19140 -0.67300
C 	C 	0.46770 0.27820 0.18930 -0.06900
C 	C 	0.43130 0.24910 0.17560 -0.07800
C 	C 	0.70100 0.99540 0.32640 -0.05100
C 	C 	0.70600 0.05240 0.29710 -0.11100
C 	C 	0.76920 0.10310 0.22730 -0.09300
C 	C 	0.81850 0.09240 0.18180 -0.09300
C 	C 	0.85040 0.03910 0.11110 -0.09200
C 	C 	0.83180 0.00130 0.08380 -0.05500
C 	C 	0.79970 0.91780 0.11630 0.19800
C 	C 	0.81580 0.89610 0.06340 -0.67600
C 	C 	0.77248 0.88238 0.16448 -0.02600
C 	C 	0.76320 0.83090 0.16560 -0.05100
C 	C 	0.73770 0.80240 0.21540 -0.03400
C 	C 	0.72390 0.82480 0.25900 -0.04000
C 	C 	0.73300 0.87780 0.25600 -0.03100
C 	C 	0.71510 0.90810 0.30120 0.21000
C 	C 	0.69310 0.88050 0.35710 -0.71600
C 	C 	0.52070 0.03870 0.26930 -0.11400
C 	C 	0.56450 0.99160 0.26480 -0.05600
C 	C 	0.61280 0.93330 0.20310 -0.11200
C 	C 	0.62270 0.92690 0.14320 -0.04400
C 	C 	0.56400 0.92790 0.08120 0.17500
C 	C 	0.60620 0.89910 0.04080 -0.65900
C 	C 	0.50770 0.94540 0.07050 -0.01200
C 	C 	0.48830 0.93450 0.02490 -0.07200
C 	C 	0.43480 0.95070 0.02470 -0.00500
C 	C 	0.39880 0.97840 0.06180 -0.07500
C 	C 	0.41950 0.98710 0.10320 -0.01700
C 	C 	0.38890 0.01450 0.14810 0.15200
C 	C 	0.32540 0.02370 0.15140 -0.59800
C 	C 	0.38740 0.05620 0.22430 -0.04600
C 	C 	0.42700 0.07430 0.24400 -0.10700
C 	C 	0.43260 0.61010 0.28380 0.19600
C 	C 	0.40760 0.56040 0.30090 -0.68000
C 	C 	0.40434 0.65804 0.25014 -0.03000
C 	C 	0.35490 0.66120 0.23480 -0.06100
C 	C 	0.33480 0.70760 0.20400 -0.02100
C 	C 	0.36130 0.75000 0.18700 -0.06000
C 	C 	0.41132 0.74552 0.20212 -0.02100
C 	C 	0.44720 0.78690 0.18450 0.19800
C 	C 	0.42390 0.84360 0.15860 -0.71100
C 	C 	0.53761 0.80371 0.17811 -0.05100
C 	C 	0.58980 0.77050 0.19000 -0.10700
C 	C 	0.63170 0.70120 0.26180 -0.09500
C 	C 	0.61390 0.66150 0.31150 -0.09200
C 	C 	0.54960 0.59750 0.34500 -0.10000
C 	C 	0.51020 0.57240 0.32670 -0.04900
C 	C 	0.85832 0.32552 0.94312 -0.12800
C 	C 	0.89542 0.43402 0.91332 -0.15500
C 	C 	0.84940 0.37320 0.84670 -0.15200
C 	C 	0.93435 0.40905 0.80555 -0.13600
C 	C 	0.00690 0.35890 0.85860 -0.14200
C 	C 	0.94045 0.28265 0.85745 -0.15400
C 	C 	0.95529 0.32309 0.95499 -0.14500
C 	C 	0.72516 0.52676 0.10736 -0.12200
C 	C 	0.66040 0.46030 0.15830 -0.14700
C 	C 	0.66260 0.53360 0.22680 -0.13800
C 	C 	0.56540 0.52050 0.18020 -0.14900
C 	C 	0.58252 0.61702 0.16892 -0.12100
C 	C 	0.67910 0.61500 0.13100 -0.17500
C 	C 	0.62400 0.56290 0.06810 -0.16800
C 	C 	0.88820 0.58020 0.80040 -0.06500
C 	C 	0.94420 0.55890 0.81310 -0.10600
C 	C 	0.03350 0.51360 0.76400 -0.10000
C 	C 	0.06450 0.50610 0.71380 -0.05200
C 	C 	0.05100 0.47350 0.63660 0.25800
C 	C 	0.10910 0.46060 0.61480 -0.79200
C 	C 	0.00970 0.46610 0.60880 -0.06000
C 	C 	0.01960 0.44470 0.56180 -0.02800
C 	C 	0.97480 0.43760 0.53960 -0.04300
C 	C 	0.92200 0.45390 0.56380 -0.05400
C 	C 	0.91660 0.47530 0.60990 -0.02700
C 	C 	0.86230 0.49340 0.64250 0.18800
C 	C 	0.80860 0.49140 0.62770 -0.67300
C 	C 	0.81070 0.53230 0.72180 -0.06900
C 	C 	0.82440 0.56870 0.75090 -0.07800
C 	C 	0.67360 0.29900 0.00460 -0.05100
C 	C 	0.70290 0.29400 0.94760 -0.11100
C 	C 	0.77270 0.23080 0.89690 -0.09300
C 	C 	0.81820 0.18150 0.90760 -0.09300
C 	C 	0.88890 0.14960 0.96090 -0.09200
C 	C 	0.91620 0.16820 0.99870 -0.05500
C 	C 	0.88370 0.20030 0.08220 0.19800
C 	C 	0.93660 0.18420 0.10390 -0.67600
C 	C 	0.83552 0.22752 0.11762 -0.02600
C 	C 	0.83440 0.23680 0.16910 -0.05100
C 	C 	0.78460 0.26230 0.19760 -0.03400
C 	C 	0.74100 0.27610 0.17520 -0.04000
C 	C 	0.74400 0.26700 0.12220 -0.03100
C 	C 	0.69880 0.28490 0.09190 0.21000
C 	C 	0.64290 0.30690 0.11950 -0.71600
C 	C 	0.73070 0.47930 0.96130 -0.11400
C 	C 	0.73520 0.43550 0.00840 -0.05600
C 	C 	0.79690 0.38720 0.06670 -0.11200
C 	C 	0.85680 0.37730 0.07310 -0.04400
C 	C 	0.91880 0.43600 0.07210 0.17500
C 	C 	0.95920 0.39380 0.10090 -0.65900
C 	C 	0.92950 0.49230 0.05460 -0.01200
C 	C 	0.97510 0.51170 0.06550 -0.07200
C 	C 	0.97530 0.56520 0.04930 -0.00500
C 	C 	0.93820 0.60120 0.02160 -0.07500
C 	C 	0.89680 0.58050 0.01290 -0.01700
C 	C 	0.85190 0.61110 0.98550 0.15200
C 	C 	0.84860 0.67460 0.97630 -0.59800
C 	C 	0.77570 0.61260 0.94380 -0.04600
C 	C 	0.75600 0.57300 0.92570 -0.10700
C 	C 	0.71620 0.56740 0.38990 0.19600
C 	C 	0.69910 0.59240 0.43960 -0.68000
C 	C 	0.74986 0.59566 0.34196 -0.03000
C 	C 	0.76520 0.64510 0.33880 -0.06100
C 	C 	0.79600 0.66520 0.29240 -0.02100
C 	C 	0.81300 0.63870 0.25000 -0.06000
C 	C 	0.79788 0.58868 0.25448 -0.02100
C 	C 	0.81550 0.55280 0.21310 0.19800
C 	C 	0.84140 0.57610 0.15640 -0.71100
C 	C 	0.82189 0.46239 0.19629 -0.05100
C 	C 	0.81000 0.41020 0.22950 -0.10700
C 	C 	0.73820 0.36830 0.29880 -0.09500
C 	C 	0.68850 0.38610 0.33850 -0.09200
C 	C 	0.65500 0.45040 0.40250 -0.10000
C 	C 	0.67330 0.48980 0.42760 -0.04900
C 	C 	0.94312 0.85832 0.32552 -0.12800
C 	C 	0.91332 0.89542 0.43402 -0.15500
C 	C 	0.84670 0.84940 0.37320 -0.15200
C 	C 	0.80555 0.93435 0.40905 -0.13600
C 	C 	0.85860 0.00690 0.35890 -0.14200
C 	C 	0.85745 0.94045 0.28265 -0.15400
C 	C 	0.95499 0.95529 0.32309 -0.14500
C 	C 	0.10736 0.72516 0.52676 -0.12200
C 	C 	0.15830 0.66040 0.46030 -0.14700
C 	C 	0.22680 0.66260 0.53360 -0.13800
C 	C 	0.18020 0.56540 0.52050 -0.14900
C 	C 	0.16892 0.58252 0.61702 -0.12100
C 	C 	0.13100 0.67910 0.61500 -0.17500
C 	C 	0.06810 0.62400 0.56290 -0.16800
C 	C 	0.80040 0.88820 0.58020 -0.06500
C 	C 	0.81310 0.94420 0.55890 -0.10600
C 	C 	0.76400 0.03350 0.51360 -0.10000
C 	C 	0.71380 0.06450 0.50610 -0.05200
C 	C 	0.63660 0.05100 0.47350 0.25800
C 	C 	0.61480 0.10910 0.46060 -0.79200
C 	C 	0.60880 0.00970 0.46610 -0.06000
C 	C 	0.56180 0.01960 0.44470 -0.02800
C 	C 	0.53960 0.97480 0.43760 -0.04300
C 	C 	0.56380 0.92200 0.45390 -0.05400
C 	C 	0.60990 0.91660 0.47530 -0.02700
C 	C 	0.64250 0.86230 0.49340 0.18800
C 	C 	0.62770 0.80860 0.49140 -0.67300
C 	C 	0.72180 0.81070 0.53230 -0.06900
C 	C 	0.75090 0.82440 0.56870 -0.07800
C 	C 	0.00460 0.67360 0.29900 -0.05100
C 	C 	0.94760 0.70290 0.29400 -0.11100
C 	C 	0.89690 0.77270 0.23080 -0.09300
C 	C 	0.90760 0.81820 0.18150 -0.09300
C 	C 	0.96090 0.88890 0.14960 -0.09200
C 	C 	0.99870 0.91620 0.16820 -0.05500
C 	C 	0.08220 0.88370 0.20030 0.19800
C 	C 	0.10390 0.93660 0.18420 -0.67600
C 	C 	0.11762 0.83552 0.22752 -0.02600
C 	C 	0.16910 0.83440 0.23680 -0.05100
C 	C 	0.19760 0.78460 0.26230 -0.03400
C 	C 	0.17520 0.74100 0.27610 -0.04000
C 	C 	0.12220 0.74400 0.26700 -0.03100
C 	C 	0.09190 0.69880 0.28490 0.21000
C 	C 	0.11950 0.64290 0.30690 -0.71600
C 	C 	0.96130 0.73070 0.47930 -0.11400
C 	C 	0.00840 0.73520 0.43550 -0.05600
C 	C 	0.06670 0.79690 0.38720 -0.11200
C 	C 	0.07310 0.85680 0.37730 -0.04400
C 	C 	0.07210 0.91880 0.43600 0.17500
C 	C 	0.10090 0.95920 0.39380 -0.65900
C 	C 	0.05460 0.92950 0.49230 -0.01200
C 	C 	0.06550 0.97510 0.51170 -0.07200
C 	C 	0.04930 0.97530 0.56520 -0.00500
C 	C 	0.02160 0.93820 0.60120 -0.07500
C 	C 	0.01290 0.89680 0.58050 -0.01700
C 	C 	0.98550 0.85190 0.61110 0.15200
C 	C 	0.97630 0.84860 0.67460 -0.59800
C 	C 	0.94380 0.77570 0.61260 -0.04600
C 	C 	0.92570 0.75600 0.57300 -0.10700
C 	C 	0.38990 0.71620 0.56740 0.19600
C 	C 	0.43960 0.69910 0.59240 -0.68000
C 	C 	0.34196 0.74986 0.59566 -0.03000
C 	C 	0.33880 0.76520 0.64510 -0.06100
C 	C 	0.29240 0.79600 0.66520 -0.02100
C 	C 	0.25000 0.81300 0.63870 -0.06000
C 	C 	0.25448 0.79788 0.58868 -0.02100
C 	C 	0.21310 0.81550 0.55280 0.19800
C 	C 	0.15640 0.84140 0.57610 -0.71100
C 	C 	0.19629 0.82189 0.46239 -0.05100
C 	C 	0.22950 0.81000 0.41020 -0.10700
C 	C 	0.29880 0.73820 0.36830 -0.09500
C 	C 	0.33850 0.68850 0.38610 -0.09200
C 	C 	0.40250 0.65500 0.45040 -0.10000
C 	C 	0.42760 0.67330 0.48980 -0.04900
C 	C 	0.32552 0.94312 0.85832 -0.12800
C 	C 	0.43402 0.91332 0.89542 -0.15500
C 	C 	0.37320 0.84670 0.84940 -0.15200
C 	C 	0.40905 0.80555 0.93435 -0.13600
C 	C 	0.35890 0.85860 0.00690 -0.14200
C 	C 	0.28265 0.85745 0.94045 -0.15400
C 	C 	0.32309 0.95499 0.95529 -0.14500
C 	C 	0.52676 0.10736 0.72516 -0.12200
C 	C 	0.46030 0.15830 0.66040 -0.14700
C 	C 	0.53360 0.22680 0.66260 -0.13800
C 	C 	0.52050 0.18020 0.56540 -0.14900
C 	C 	0.61702 0.16892 0.58252 -0.12100
C 	C 	0.61500 0.13100 0.67910 -0.17500
C 	C 	0.56290 0.06810 0.62400 -0.16800
C 	C 	0.58020 0.80040 0.88820 -0.06500
C 	C 	0.55890 0.81310 0.94420 -0.10600
C 	C 	0.51360 0.76400 0.03350 -0.10000
C 	C 	0.50610 0.71380 0.06450 -0.05200
C 	C 	0.47350 0.63660 0.05100 0.25800
C 	C 	0.46060 0.61480 0.10910 -0.79200
C 	C 	0.46610 0.60880 0.00970 -0.06000
C 	C 	0.44470 0.56180 0.01960 -0.02800
C 	C 	0.43760 0.53960 0.97480 -0.04300
C 	C 	0.45390 0.56380 0.92200 -0.05400
C 	C 	0.47530 0.60990 0.91660 -0.02700
C 	C 	0.49340 0.64250 0.86230 0.18800
C 	C 	0.49140 0.62770 0.80860 -0.67300
C 	C 	0.53230 0.72180 0.81070 -0.06900
C 	C 	0.56870 0.75090 0.82440 -0.07800
C 	C 	0.29900 0.00460 0.67360 -0.05100
C 	C 	0.29400 0.94760 0.70290 -0.11100
C 	C 	0.23080 0.89690 0.77270 -0.09300
C 	C 	0.18150 0.90760 0.81820 -0.09300
C 	C 	0.14960 0.96090 0.88890 -0.09200
C 	C 	0.16820 0.99870 0.91620 -0.05500
C 	C 	0.20030 0.08220 0.88370 0.19800
C 	C 	0.18420 0.10390 0.93660 -0.67600
C 	C 	0.22752 0.11762 0.83552 -0.02600
C 	C 	0.23680 0.16910 0.83440 -0.05100
C 	C 	0.26230 0.19760 0.78460 -0.03400
C 	C 	0.27610 0.17520 0.74100 -0.04000
C 	C 	0.26700 0.12220 0.74400 -0.03100
C 	C 	0.28490 0.09190 0.69880 0.21000
C 	C 	0.30690 0.11950 0.64290 -0.71600
C 	C 	0.47930 0.96130 0.73070 -0.11400
C 	C 	0.43550 0.00840 0.73520 -0.05600
C 	C 	0.38720 0.06670 0.79690 -0.11200
C 	C 	0.37730 0.07310 0.85680 -0.04400
C 	C 	0.43600 0.07210 0.91880 0.17500
C 	C 	0.39380 0.10090 0.95920 -0.65900
C 	C 	0.49230 0.05460 0.92950 -0.01200
C 	C 	0.51170 0.06550 0.97510 -0.07200
C 	C 	0.56520 0.04930 0.97530 -0.00500
C 	C 	0.60120 0.02160 0.93820 -0.07500
C 	C 	0.58050 0.01290 0.89680 -0.01700
C 	C 	0.61110 0.98550 0.85190 0.15200
C 	C 	0.67460 0.97630 0.84860 -0.59800
C 	C 	0.61260 0.94380 0.77570 -0.04600
C 	C 	0.57300 0.92570 0.75600 -0.10700
C 	C 	0.56740 0.38990 0.71620 0.19600
C 	C 	0.59240 0.43960 0.69910 -0.68000
C 	C 	0.59566 0.34196 0.74986 -0.03000
C 	C 	0.64510 0.33880 0.76520 -0.06100
C 	C 	0.66520 0.29240 0.79600 -0.02100
C 	C 	0.63870 0.25000 0.81300 -0.06000
C 	C 	0.58868 0.25448 0.79788 -0.02100
C 	C 	0.55280 0.21310 0.81550 0.19800
C 	C 	0.57610 0.15640 0.84140 -0.71100
C 	C 	0.46239 0.19629 0.82189 -0.05100
C 	C 	0.41020 0.22950 0.81000 -0.10700
C 	C 	0.36830 0.29880 0.73820 -0.09500
C 	C 	0.38610 0.33850 0.68850 -0.09200
C 	C 	0.45040 0.40250 0.65500 -0.10000
C 	C 	0.48980 0.42760 0.67330 -0.04900
N 	N 	0.17516 0.69346 0.02566 -0.20100
N 	N 	0.12126 0.52716 0.06826 -0.19800
N 	N 	0.18930 0.61830 0.17200 -0.08700
N 	N 	0.05946 0.56206 0.23526 -0.21200
N 	N 	0.94680 0.64510 0.15670 -0.08900
N 	N 	0.04777 0.76067 0.15367 -0.19600
N 	N 	0.02519 0.69739 0.00709 -0.09200
N 	N 	0.23140 0.48340 0.91680 -0.20900
N 	N 	0.33070 0.58640 0.83150 -0.08800
N 	N 	0.32627 0.47617 0.73067 -0.20400
N 	N 	0.47461 0.49381 0.80091 -0.10100
N 	N 	0.44768 0.34848 0.81618 -0.20800
N 	N 	0.29930 0.34360 0.87950 -0.08600
N 	N 	0.38480 0.42500 0.97660 -0.08800
N 	N 	0.13060 0.45150 0.22530 -0.18000
N 	N 	0.01750 0.45010 0.23840 -0.17600
N 	N 	0.96840 0.50630 0.32130 -0.26300
N 	N 	0.04290 0.51860 0.36860 -0.20200
N 	N 	0.13880 0.48730 0.31690 -0.24700
N 	N 	0.26134 0.75904 0.05294 -0.17900
N 	N 	0.14871 0.80511 0.05971 -0.18300
N 	N 	0.12447 0.80687 0.96117 -0.24900
N 	N 	0.20988 0.75718 0.90388 -0.20600
N 	N 	0.28811 0.71891 0.95821 -0.25500
N 	N 	0.17780 0.41270 0.02910 -0.24600
N 	N 	0.10556 0.47376 0.97176 -0.22000
N 	N 	0.12500 0.57260 0.93940 -0.24500
N 	N 	0.21069 0.57769 0.98419 -0.18900
N 	N 	0.25260 0.47200 0.02910 -0.17300
N 	N 	0.29910 0.57770 0.63030 -0.18400
N 	N 	0.24434 0.58384 0.73844 -0.18100
N 	N 	0.19484 0.49544 0.77014 -0.24900
N 	N 	0.23347 0.43157 0.70007 -0.20900
N 	N 	0.29537 0.47707 0.61547 -0.24900
N 	N 	0.02566 0.17516 0.69346 -0.20100
N 	N 	0.06826 0.12126 0.52716 -0.19800
N 	N 	0.17200 0.18930 0.61830 -0.08700
N 	N 	0.23526 0.05946 0.56206 -0.21200
N 	N 	0.15670 0.94680 0.64510 -0.08900
N 	N 	0.15367 0.04777 0.76067 -0.19600
N 	N 	0.00709 0.02519 0.69739 -0.09200
N 	N 	0.91680 0.23140 0.48340 -0.20900
N 	N 	0.83150 0.33070 0.58640 -0.08800
N 	N 	0.73067 0.32627 0.47617 -0.20400
N 	N 	0.80091 0.47461 0.49381 -0.10100
N 	N 	0.81618 0.44768 0.34848 -0.20800
N 	N 	0.87950 0.29930 0.34360 -0.08600
N 	N 	0.97660 0.38480 0.42500 -0.08800
N 	N 	0.22530 0.13060 0.45150 -0.18000
N 	N 	0.23840 0.01750 0.45010 -0.17600
N 	N 	0.32130 0.96840 0.50630 -0.26300
N 	N 	0.36860 0.04290 0.51860 -0.20200
N 	N 	0.31690 0.13880 0.48730 -0.24700
N 	N 	0.05294 0.26134 0.75904 -0.17900
N 	N 	0.05971 0.14871 0.80511 -0.18300
N 	N 	0.96117 0.12447 0.80687 -0.24900
N 	N 	0.90388 0.20988 0.75718 -0.20600
N 	N 	0.95821 0.28811 0.71891 -0.25500
N 	N 	0.02910 0.17780 0.41270 -0.24600
N 	N 	0.97176 0.10556 0.47376 -0.22000
N 	N 	0.93940 0.12500 0.57260 -0.24500
N 	N 	0.98419 0.21069 0.57769 -0.18900
N 	N 	0.02910 0.25260 0.47200 -0.17300
N 	N 	0.63030 0.29910 0.57770 -0.18400
N 	N 	0.73844 0.24434 0.58384 -0.18100
N 	N 	0.77014 0.19484 0.49544 -0.24900
N 	N 	0.70007 0.23347 0.43157 -0.20900
N 	N 	0.61547 0.29537 0.47707 -0.24900
N 	N 	0.69346 0.02566 0.17516 -0.20100
N 	N 	0.52716 0.06826 0.12126 -0.19800
N 	N 	0.61830 0.17200 0.18930 -0.08700
N 	N 	0.56206 0.23526 0.05946 -0.21200
N 	N 	0.64510 0.15670 0.94680 -0.08900
N 	N 	0.76067 0.15367 0.04777 -0.19600
N 	N 	0.69739 0.00709 0.02519 -0.09200
N 	N 	0.48340 0.91680 0.23140 -0.20900
N 	N 	0.58640 0.83150 0.33070 -0.08800
N 	N 	0.47617 0.73067 0.32627 -0.20400
N 	N 	0.49381 0.80091 0.47461 -0.10100
N 	N 	0.34848 0.81618 0.44768 -0.20800
N 	N 	0.34360 0.87950 0.29930 -0.08600
N 	N 	0.42500 0.97660 0.38480 -0.08800
N 	N 	0.45150 0.22530 0.13060 -0.18000
N 	N 	0.45010 0.23840 0.01750 -0.17600
N 	N 	0.50630 0.32130 0.96840 -0.26300
N 	N 	0.51860 0.36860 0.04290 -0.20200
N 	N 	0.48730 0.31690 0.13880 -0.24700
N 	N 	0.75904 0.05294 0.26134 -0.17900
N 	N 	0.80511 0.05971 0.14871 -0.18300
N 	N 	0.80687 0.96117 0.12447 -0.24900
N 	N 	0.75718 0.90388 0.20988 -0.20600
N 	N 	0.71891 0.95821 0.28811 -0.25500
N 	N 	0.41270 0.02910 0.17780 -0.24600
N 	N 	0.47376 0.97176 0.10556 -0.22000
N 	N 	0.57260 0.93940 0.12500 -0.24500
N 	N 	0.57769 0.98419 0.21069 -0.18900
N 	N 	0.47200 0.02910 0.25260 -0.17300
N 	N 	0.57770 0.63030 0.29910 -0.18400
N 	N 	0.58384 0.73844 0.24434 -0.18100
N 	N 	0.49544 0.77014 0.19484 -0.24900
N 	N 	0.43157 0.70007 0.23347 -0.20900
N 	N 	0.47707 0.61547 0.29537 -0.24900
N 	N 	0.82484 0.30654 0.97434 -0.20100
N 	N 	0.87874 0.47284 0.93174 -0.19800
N 	N 	0.81070 0.38170 0.82800 -0.08700
N 	N 	0.94054 0.43794 0.76474 -0.21200
N 	N 	0.05320 0.35490 0.84330 -0.08900
N 	N 	0.95223 0.23933 0.84633 -0.19600
N 	N 	0.97481 0.30261 0.99291 -0.09200
N 	N 	0.76860 0.51660 0.08320 -0.20900
N 	N 	0.66930 0.41360 0.16850 -0.08800
N 	N 	0.67373 0.52383 0.26933 -0.20400
N 	N 	0.52539 0.50619 0.19909 -0.10100
N 	N 	0.55232 0.65152 0.18382 -0.20800
N 	N 	0.70070 0.65640 0.12050 -0.08600
N 	N 	0.61520 0.57500 0.02340 -0.08800
N 	N 	0.86940 0.54850 0.77470 -0.18000
N 	N 	0.98250 0.54990 0.76160 -0.17600
N 	N 	0.03160 0.49370 0.67870 -0.26300
N 	N 	0.95710 0.48140 0.63140 -0.20200
N 	N 	0.86120 0.51270 0.68310 -0.24700
N 	N 	0.73866 0.24096 0.94706 -0.17900
N 	N 	0.85129 0.19489 0.94029 -0.18300
N 	N 	0.87553 0.19313 0.03883 -0.24900
N 	N 	0.79012 0.24282 0.09612 -0.20600
N 	N 	0.71189 0.28109 0.04179 -0.25500
N 	N 	0.82220 0.58730 0.97090 -0.24600
N 	N 	0.89444 0.52624 0.02824 -0.22000
N 	N 	0.87500 0.42740 0.06060 -0.24500
N 	N 	0.78931 0.42231 0.01581 -0.18900
N 	N 	0.74740 0.52800 0.97090 -0.17300
N 	N 	0.70090 0.42230 0.36970 -0.18400
N 	N 	0.75566 0.41616 0.26156 -0.18100
N 	N 	0.80516 0.50456 0.22986 -0.24900
N 	N 	0.76653 0.56843 0.29993 -0.20900
N 	N 	0.70463 0.52293 0.38453 -0.24900
N 	N 	0.97434 0.82484 0.30654 -0.20100
N 	N 	0.93174 0.87874 0.47284 -0.19800
N 	N 	0.82800 0.81070 0.38170 -0.08700
N 	N 	0.76474 0.94054 0.43794 -0.21200
N 	N 	0.84330 0.05320 0.35490 -0.08900
N 	N 	0.84633 0.95223 0.23933 -0.19600
N 	N 	0.99291 0.97481 0.30261 -0.09200
N 	N 	0.08320 0.76860 0.51660 -0.20900
N 	N 	0.16850 0.66930 0.41360 -0.08800
N 	N 	0.26933 0.67373 0.52383 -0.20400
N 	N 	0.19909 0.52539 0.50619 -0.10100
N 	N 	0.18382 0.55232 0.65152 -0.20800
N 	N 	0.12050 0.70070 0.65640 -0.08600
N 	N 	0.02340 0.61520 0.57500 -0.08800
N 	N 	0.77470 0.86940 0.54850 -0.18000
N 	N 	0.76160 0.98250 0.54990 -0.17600
N 	N 	0.67870 0.03160 0.49370 -0.26300
N 	N 	0.63140 0.95710 0.48140 -0.20200
N 	N 	0.68310 0.86120 0.51270 -0.24700
N 	N 	0.94706 0.73866 0.24096 -0.17900
N 	N 	0.94029 0.85129 0.19489 -0.18300
N 	N 	0.03883 0.87553 0.19313 -0.24900
N 	N 	0.09612 0.79012 0.24282 -0.20600
N 	N 	0.04179 0.71189 0.28109 -0.25500
N 	N 	0.97090 0.82220 0.58730 -0.24600
N 	N 	0.02824 0.89444 0.52624 -0.22000
N 	N 	0.06060 0.87500 0.42740 -0.24500
N 	N 	0.01581 0.78931 0.42231 -0.18900
N 	N 	0.97090 0.74740 0.52800 -0.17300
N 	N 	0.36970 0.70090 0.42230 -0.18400
N 	N 	0.26156 0.75566 0.41616 -0.18100
N 	N 	0.22986 0.80516 0.50456 -0.24900
N 	N 	0.29993 0.76653 0.56843 -0.20900
N 	N 	0.38453 0.70463 0.52293 -0.24900
N 	N 	0.30654 0.97434 0.82484 -0.20100
N 	N 	0.47284 0.93174 0.87874 -0.19800
N 	N 	0.38170 0.82800 0.81070 -0.08700
N 	N 	0.43794 0.76474 0.94054 -0.21200
N 	N 	0.35490 0.84330 0.05320 -0.08900
N 	N 	0.23933 0.84633 0.95223 -0.19600
N 	N 	0.30261 0.99291 0.97481 -0.09200
N 	N 	0.51660 0.08320 0.76860 -0.20900
N 	N 	0.41360 0.16850 0.66930 -0.08800
N 	N 	0.52383 0.26933 0.67373 -0.20400
N 	N 	0.50619 0.19909 0.52539 -0.10100
N 	N 	0.65152 0.18382 0.55232 -0.20800
N 	N 	0.65640 0.12050 0.70070 -0.08600
N 	N 	0.57500 0.02340 0.61520 -0.08800
N 	N 	0.54850 0.77470 0.86940 -0.18000
N 	N 	0.54990 0.76160 0.98250 -0.17600
N 	N 	0.49370 0.67870 0.03160 -0.26300
N 	N 	0.48140 0.63140 0.95710 -0.20200
N 	N 	0.51270 0.68310 0.86120 -0.24700
N 	N 	0.24096 0.94706 0.73866 -0.17900
N 	N 	0.19489 0.94029 0.85129 -0.18300
N 	N 	0.19313 0.03883 0.87553 -0.24900
N 	N 	0.24282 0.09612 0.79012 -0.20600
N 	N 	0.28109 0.04179 0.71189 -0.25500
N 	N 	0.58730 0.97090 0.82220 -0.24600
N 	N 	0.52624 0.02824 0.89444 -0.22000
N 	N 	0.42740 0.06060 0.87500 -0.24500
N 	N 	0.42231 0.01581 0.78931 -0.18900
N 	N 	0.52800 0.97090 0.74740 -0.17300
N 	N 	0.42230 0.36970 0.70090 -0.18400
N 	N 	0.41616 0.26156 0.75566 -0.18100
N 	N 	0.50456 0.22986 0.80516 -0.24900
N 	N 	0.56843 0.29993 0.76653 -0.20900
N 	N 	0.52293 0.38453 0.70463 -0.24900
O 	O 	0.06440 0.39950 0.34500 -0.50200
O 	O 	0.34500 0.06440 0.39950 -0.50200
O 	O 	0.39950 0.34500 0.06440 -0.50200
O 	O 	0.93560 0.60050 0.65500 -0.50200
O 	O 	0.65500 0.93560 0.60050 -0.50200
O 	O 	0.60050 0.65500 0.93560 -0.50200
