data_crystal

_cell_length_a 23.74220
_cell_length_b 23.74220
_cell_length_c 13.48880
_cell_angle_alpha 90.00000
_cell_angle_beta  90.00000
_cell_angle_gamma 120.00000

_symmetry_space_group_name_	'P 1'
_symmetry_space_group_name_H-M	'P 1'

loop_
_symmetry_equiv_pos_as_xyz
  x,y,z

loop_
_atom_site_label
_atom_site_type_symbol
_atom_site_fract_x
_atom_site_fract_y
_atom_site_fract_z
_atom_site_charge
Co	Co	0.36039 0.09303 0.11998 1.21600
Cr	Cr	0.34981 0.24277 0.91542 1.53600
P 	P 	0.41876 0.23619 0.11949 0.53700
P 	P 	0.32681 0.98696 0.27712 0.62300
O 	O 	0.36719 0.21018 0.03740 -0.55700
O 	O 	0.42234 0.17578 0.15640 -0.43900
O 	O 	0.39150 0.25946 0.20650 -0.64200
O 	O 	0.48414 0.28969 0.08930 -0.26400
O 	O 	0.37531 0.04450 0.21160 -0.49800
O 	O 	0.36705 0.95863 0.32500 -0.45200
O 	O 	0.27152 0.93516 0.21730 -0.58000
O 	O 	0.30027 0.01060 0.36000 -0.65000
N 	N 	0.44440 0.27551 0.86930 -0.36600
N 	N 	0.33260 0.15656 0.85110 -0.27700
N 	N 	0.25082 0.18856 0.94130 -0.40500
C 	C 	0.44730 0.21820 0.83040 -0.07300
C 	C 	0.38500 0.17300 0.77980 -0.09100
C 	C 	0.26480 0.12230 0.81690 -0.10400
C 	C 	0.22370 0.12100 0.90370 -0.05600
H 	H 	0.45560 0.30500 0.82020 0.12600
H 	H 	0.47250 0.29270 0.92060 0.12900
H 	H 	0.32800 0.12600 0.89390 0.12500
H 	H 	0.23540 0.21020 0.91620 0.14700
H 	H 	0.23700 0.18200 0.00510 0.13600
H 	H 	0.45290 0.19350 0.88910 0.04200
H 	H 	0.48400 0.23800 0.78780 0.05200
H 	H 	0.37840 0.19390 0.72360 0.05700
H 	H 	0.38990 0.13760 0.74610 0.06500
H 	H 	0.25460 0.14780 0.76430 0.05700
H 	H 	0.25810 0.08020 0.79560 0.06600
H 	H 	0.18040 0.10730 0.87410 0.06400
H 	H 	0.22800 0.09720 0.96180 0.04900
Ga	Ga	0.30628 0.24030 0.21335 2.06800
Ga	Ga	0.24277 0.89296 0.08458 2.05400
Co	Co	0.02706 0.42636 0.45331 1.21800
Cr	Cr	0.01648 0.57610 0.24875 1.53900
P 	P 	0.08543 0.56952 0.45282 0.53600
P 	P 	0.99348 0.32029 0.61045 0.58700
O 	O 	0.03386 0.54351 0.37073 -0.55800
O 	O 	0.08901 0.50911 0.48973 -0.44000
O 	O 	0.05817 0.59279 0.53983 -0.63800
O 	O 	0.15081 0.62302 0.42263 -0.26800
O 	O 	0.04198 0.37783 0.54493 -0.48100
O 	O 	0.03372 0.29196 0.65833 -0.44400
O 	O 	0.93819 0.26849 0.55063 -0.57900
O 	O 	0.96694 0.34393 0.69333 -0.64000
N 	N 	0.11107 0.60884 0.20263 -0.36500
N 	N 	0.99927 0.48989 0.18443 -0.28300
N 	N 	0.91749 0.52189 0.27463 -0.40100
C 	C 	0.11397 0.55153 0.16373 -0.07600
C 	C 	0.05167 0.50633 0.11313 -0.08000
C 	C 	0.93147 0.45563 0.15023 -0.10500
C 	C 	0.89037 0.45433 0.23703 -0.05700
H 	H 	0.12227 0.63833 0.15353 0.12600
H 	H 	0.13917 0.62603 0.25393 0.13100
H 	H 	0.99467 0.45933 0.22723 0.12400
H 	H 	0.90207 0.54353 0.24953 0.14600
H 	H 	0.90367 0.51533 0.33843 0.12900
H 	H 	0.11957 0.52683 0.22243 0.04500
H 	H 	0.15067 0.57133 0.12113 0.05400
H 	H 	0.04507 0.52723 0.05693 0.05800
H 	H 	0.05657 0.47093 0.07943 0.06600
H 	H 	0.92127 0.48113 0.09763 0.05800
H 	H 	0.92477 0.41353 0.12893 0.07100
H 	H 	0.84707 0.44063 0.20743 0.06700
H 	H 	0.89467 0.43053 0.29513 0.05400
Ga	Ga	0.97294 0.57364 0.54669 2.06700
Ga	Ga	0.90944 0.22629 0.41791 2.05400
Co	Co	0.69372 0.75970 0.78665 1.21400
Cr	Cr	0.68314 0.90944 0.58209 1.53700
P 	P 	0.75209 0.90286 0.78616 0.53600
P 	P 	0.66014 0.65363 0.94379 0.60000
O 	O 	0.70052 0.87685 0.70407 -0.56200
O 	O 	0.75567 0.84245 0.82307 -0.44200
O 	O 	0.72483 0.92613 0.87317 -0.64000
O 	O 	0.81747 0.95636 0.75597 -0.26400
O 	O 	0.70864 0.71117 0.87827 -0.49200
O 	O 	0.70038 0.62530 0.99167 -0.45800
O 	O 	0.60485 0.60183 0.88397 -0.58000
O 	O 	0.63360 0.67727 0.02667 -0.63300
N 	N 	0.77773 0.94218 0.53597 -0.36700
N 	N 	0.66593 0.82323 0.51777 -0.27700
N 	N 	0.58415 0.85523 0.60797 -0.39900
C 	C 	0.78063 0.88487 0.49707 -0.07200
C 	C 	0.71833 0.83967 0.44647 -0.09000
C 	C 	0.59813 0.78897 0.48357 -0.10400
C 	C 	0.55703 0.78767 0.57037 -0.05700
H 	H 	0.78893 0.97167 0.48687 0.13000
H 	H 	0.80583 0.95937 0.58727 0.13400
H 	H 	0.66133 0.79267 0.56057 0.12700
H 	H 	0.56873 0.87687 0.58287 0.14800
H 	H 	0.57033 0.84867 0.67177 0.13000
H 	H 	0.78623 0.86017 0.55577 0.04300
H 	H 	0.81733 0.90467 0.45447 0.05300
H 	H 	0.71173 0.86057 0.39027 0.05700
H 	H 	0.72323 0.80427 0.41277 0.06500
H 	H 	0.58793 0.81447 0.43097 0.05700
H 	H 	0.59143 0.74687 0.46227 0.07000
H 	H 	0.51373 0.77397 0.54077 0.06600
H 	H 	0.56133 0.76387 0.62847 0.05500
Ga	Ga	0.63961 0.90697 0.88002 2.06800
Ga	Ga	0.57610 0.55963 0.75125 2.05400
Co	Co	0.90697 0.26736 0.11998 1.21600
Cr	Cr	0.75723 0.10704 0.91542 1.53400
P 	P 	0.76381 0.18257 0.11949 0.53600
P 	P 	0.01304 0.33985 0.27712 0.62100
O 	O 	0.78982 0.15701 0.03740 -0.55700
O 	O 	0.82422 0.24656 0.15640 -0.44000
O 	O 	0.74054 0.13204 0.20650 -0.64300
O 	O 	0.71031 0.19445 0.08930 -0.26500
O 	O 	0.95550 0.33081 0.21160 -0.49900
O 	O 	0.04137 0.40842 0.32500 -0.45300
O 	O 	0.06484 0.33636 0.21730 -0.58000
O 	O 	0.98940 0.28967 0.36000 -0.65000
N 	N 	0.72449 0.16889 0.86930 -0.36600
N 	N 	0.84344 0.17604 0.85110 -0.27700
N 	N 	0.81144 0.06226 0.94130 -0.40700
C 	C 	0.78180 0.22910 0.83040 -0.07300
C 	C 	0.82700 0.21200 0.77980 -0.09100
C 	C 	0.87770 0.14250 0.81690 -0.10400
C 	C 	0.87900 0.10270 0.90370 -0.05500
H 	H 	0.69500 0.15060 0.82020 0.12500
H 	H 	0.70730 0.17980 0.92060 0.12800
H 	H 	0.87400 0.20200 0.89390 0.12400
H 	H 	0.78980 0.02520 0.91620 0.14200
H 	H 	0.81800 0.05500 0.00510 0.13700
H 	H 	0.80650 0.25940 0.88910 0.04200
H 	H 	0.76200 0.24600 0.78780 0.05200
H 	H 	0.80610 0.18450 0.72360 0.05700
H 	H 	0.86240 0.25230 0.74610 0.06500
H 	H 	0.85220 0.10680 0.76430 0.05500
H 	H 	0.91980 0.17790 0.79560 0.06600
H 	H 	0.89270 0.07310 0.87410 0.05900
H 	H 	0.90280 0.13080 0.96180 0.04700
Ga	Ga	0.75970 0.06597 0.21335 2.06800
Ga	Ga	0.10704 0.34981 0.08458 2.05500
Co	Co	0.57364 0.60069 0.45331 1.21400
Cr	Cr	0.42390 0.44037 0.24875 1.53600
P 	P 	0.43048 0.51590 0.45282 0.53600
P 	P 	0.67971 0.67318 0.61045 0.60500
O 	O 	0.45649 0.49034 0.37073 -0.56300
O 	O 	0.49089 0.57989 0.48973 -0.44200
O 	O 	0.40721 0.46537 0.53983 -0.64300
O 	O 	0.37698 0.52778 0.42263 -0.26800
O 	O 	0.62217 0.66414 0.54493 -0.49100
O 	O 	0.70804 0.74175 0.65833 -0.45500
O 	O 	0.73151 0.66969 0.55063 -0.58000
O 	O 	0.65607 0.62300 0.69333 -0.63800
N 	N 	0.39116 0.50222 0.20263 -0.36600
N 	N 	0.51011 0.50937 0.18443 -0.27600
N 	N 	0.47811 0.39559 0.27463 -0.39900
C 	C 	0.44847 0.56243 0.16373 -0.07200
C 	C 	0.49367 0.54533 0.11313 -0.09100
C 	C 	0.54437 0.47583 0.15023 -0.10500
C 	C 	0.54567 0.43603 0.23703 -0.05700
H 	H 	0.36167 0.48393 0.15353 0.12600
H 	H 	0.37397 0.51313 0.25393 0.13100
H 	H 	0.54067 0.53533 0.22723 0.12700
H 	H 	0.45647 0.35853 0.24953 0.14700
H 	H 	0.48467 0.38833 0.33843 0.13000
H 	H 	0.47317 0.59273 0.22243 0.04300
H 	H 	0.42867 0.57933 0.12113 0.05300
H 	H 	0.47277 0.51783 0.05693 0.05900
H 	H 	0.52907 0.58563 0.07943 0.06700
H 	H 	0.51887 0.44013 0.09763 0.05900
H 	H 	0.58647 0.51123 0.12893 0.07200
H 	H 	0.55937 0.40643 0.20743 0.06700
H 	H 	0.56947 0.46413 0.29513 0.05500
Ga	Ga	0.42636 0.39931 0.54669 2.06800
Ga	Ga	0.77371 0.68314 0.41791 2.05400
Co	Co	0.24030 0.93403 0.78665 1.21500
Cr	Cr	0.09056 0.77371 0.58209 1.53700
P 	P 	0.09714 0.84924 0.78616 0.53600
P 	P 	0.34637 0.00652 0.94379 0.58100
O 	O 	0.12315 0.82368 0.70407 -0.56200
O 	O 	0.15755 0.91323 0.82307 -0.43900
O 	O 	0.07387 0.79871 0.87317 -0.63900
O 	O 	0.04364 0.86112 0.75597 -0.26100
O 	O 	0.28883 0.99748 0.87827 -0.47600
O 	O 	0.37470 0.07509 0.99167 -0.45900
O 	O 	0.39817 0.00303 0.88397 -0.58500
O 	O 	0.32273 0.95634 0.02667 -0.62500
N 	N 	0.05782 0.83556 0.53597 -0.36700
N 	N 	0.17677 0.84271 0.51777 -0.27700
N 	N 	0.14477 0.72893 0.60797 -0.39900
C 	C 	0.11513 0.89577 0.49707 -0.07400
C 	C 	0.16033 0.87867 0.44647 -0.09000
C 	C 	0.21103 0.80917 0.48357 -0.10400
C 	C 	0.21233 0.76937 0.57037 -0.05700
H 	H 	0.02833 0.81727 0.48687 0.13100
H 	H 	0.04063 0.84647 0.58727 0.13500
H 	H 	0.20733 0.86867 0.56057 0.12800
H 	H 	0.12313 0.69187 0.58287 0.14800
H 	H 	0.15133 0.72167 0.67177 0.13000
H 	H 	0.13983 0.92607 0.55577 0.04700
H 	H 	0.09533 0.91267 0.45447 0.05700
H 	H 	0.13943 0.85117 0.39027 0.05700
H 	H 	0.19573 0.91897 0.41277 0.06800
H 	H 	0.18553 0.77347 0.43097 0.05700
H 	H 	0.25313 0.84457 0.46227 0.07000
H 	H 	0.22603 0.73977 0.54077 0.06600
H 	H 	0.23613 0.79747 0.62847 0.05500
Ga	Ga	0.09303 0.73264 0.88002 2.06800
Ga	Ga	0.44037 0.01648 0.75125 2.05200
Co	Co	0.73264 0.63961 0.11998 1.21600
Cr	Cr	0.89296 0.65019 0.91542 1.53500
P 	P 	0.81743 0.58124 0.11949 0.53600
P 	P 	0.66015 0.67319 0.27712 0.60500
O 	O 	0.84299 0.63281 0.03740 -0.55800
O 	O 	0.75344 0.57766 0.15640 -0.44100
O 	O 	0.86796 0.60850 0.20650 -0.64400
O 	O 	0.80555 0.51586 0.08930 -0.26500
O 	O 	0.66919 0.62469 0.21160 -0.49100
O 	O 	0.59158 0.63295 0.32500 -0.45400
O 	O 	0.66364 0.72848 0.21730 -0.57900
O 	O 	0.71033 0.69973 0.36000 -0.63800
N 	N 	0.83111 0.55560 0.86930 -0.36600
N 	N 	0.82396 0.66740 0.85110 -0.27700
N 	N 	0.93774 0.74918 0.94130 -0.40400
C 	C 	0.77090 0.55270 0.83040 -0.07300
C 	C 	0.78800 0.61500 0.77980 -0.09000
C 	C 	0.85750 0.73520 0.81690 -0.10400
C 	C 	0.89730 0.77630 0.90370 -0.05700
H 	H 	0.84940 0.54440 0.82020 0.12500
H 	H 	0.82020 0.52750 0.92060 0.12800
H 	H 	0.79800 0.67200 0.89390 0.12600
H 	H 	0.97480 0.76460 0.91620 0.14200
H 	H 	0.94500 0.76300 0.00510 0.13500
H 	H 	0.74060 0.54710 0.88910 0.04200
H 	H 	0.75400 0.51600 0.78780 0.05200
H 	H 	0.81550 0.62160 0.72360 0.05700
H 	H 	0.74770 0.61010 0.74610 0.06500
H 	H 	0.89320 0.74540 0.76430 0.05600
H 	H 	0.82210 0.74190 0.79560 0.07000
H 	H 	0.92690 0.81960 0.87410 0.06300
H 	H 	0.86920 0.77200 0.96180 0.05100
Ga	Ga	0.93403 0.69372 0.21335 2.06800
Ga	Ga	0.65019 0.75723 0.08458 2.05500
Co	Co	0.39931 0.97294 0.45331 1.21800
Cr	Cr	0.55963 0.98352 0.24875 1.53900
P 	P 	0.48410 0.91457 0.45282 0.53600
P 	P 	0.32682 0.00652 0.61045 0.58600
O 	O 	0.50966 0.96614 0.37073 -0.55800
O 	O 	0.42011 0.91099 0.48973 -0.44000
O 	O 	0.53463 0.94183 0.53983 -0.63800
O 	O 	0.47222 0.84919 0.42263 -0.26800
O 	O 	0.33586 0.95802 0.54493 -0.48100
O 	O 	0.25825 0.96628 0.65833 -0.44300
O 	O 	0.33031 0.06181 0.55063 -0.57900
O 	O 	0.37700 0.03306 0.69333 -0.64100
N 	N 	0.49778 0.88893 0.20263 -0.36500
N 	N 	0.49063 0.00073 0.18443 -0.28300
N 	N 	0.60441 0.08251 0.27463 -0.40100
C 	C 	0.43757 0.88603 0.16373 -0.07600
C 	C 	0.45467 0.94833 0.11313 -0.08000
C 	C 	0.52417 0.06853 0.15023 -0.10500
C 	C 	0.56397 0.10963 0.23703 -0.05700
H 	H 	0.51607 0.87773 0.15353 0.12600
H 	H 	0.48687 0.86083 0.25393 0.13100
H 	H 	0.46467 0.00533 0.22723 0.12400
H 	H 	0.64147 0.09793 0.24953 0.14600
H 	H 	0.61167 0.09633 0.33843 0.12900
H 	H 	0.40727 0.88043 0.22243 0.04500
H 	H 	0.42067 0.84933 0.12113 0.05400
H 	H 	0.48217 0.95493 0.05693 0.05800
H 	H 	0.41437 0.94343 0.07943 0.06600
H 	H 	0.55987 0.07873 0.09763 0.05800
H 	H 	0.48877 0.07523 0.12893 0.07100
H 	H 	0.59357 0.15293 0.20743 0.06700
H 	H 	0.53587 0.10533 0.29513 0.05400
Ga	Ga	0.60069 0.02706 0.54669 2.06700
Ga	Ga	0.31686 0.09056 0.41791 2.05400
Co	Co	0.06597 0.30628 0.78665 1.21500
Cr	Cr	0.22629 0.31686 0.58209 1.53600
P 	P 	0.15076 0.24791 0.78616 0.53600
P 	P 	0.99348 0.33986 0.94379 0.58000
O 	O 	0.17632 0.29948 0.70407 -0.56300
O 	O 	0.08677 0.24433 0.82307 -0.44100
O 	O 	0.20129 0.27517 0.87317 -0.64500
O 	O 	0.13888 0.18253 0.75597 -0.26800
O 	O 	0.00252 0.29136 0.87827 -0.47700
O 	O 	0.92491 0.29962 0.99167 -0.45900
O 	O 	0.99697 0.39515 0.88397 -0.58500
O 	O 	0.04366 0.36640 0.02667 -0.62300
N 	N 	0.16444 0.22227 0.53597 -0.36600
N 	N 	0.15729 0.33407 0.51777 -0.27700
N 	N 	0.27107 0.41585 0.60797 -0.39900
C 	C 	0.10423 0.21937 0.49707 -0.07400
C 	C 	0.12133 0.28167 0.44647 -0.09000
C 	C 	0.19083 0.40187 0.48357 -0.10400
C 	C 	0.23063 0.44297 0.57037 -0.05700
H 	H 	0.18273 0.21107 0.48687 0.12600
H 	H 	0.15353 0.19417 0.58727 0.13100
H 	H 	0.13133 0.33867 0.56057 0.12800
H 	H 	0.30813 0.43127 0.58287 0.14700
H 	H 	0.27833 0.42967 0.67177 0.13000
H 	H 	0.07393 0.21377 0.55577 0.04600
H 	H 	0.08733 0.18267 0.45447 0.05400
H 	H 	0.14883 0.28827 0.39027 0.05700
H 	H 	0.08103 0.27677 0.41277 0.06800
H 	H 	0.22653 0.41207 0.43097 0.05700
H 	H 	0.15543 0.40857 0.46227 0.07000
H 	H 	0.26023 0.48627 0.54077 0.06600
H 	H 	0.20253 0.43867 0.62847 0.05500
Ga	Ga	0.26736 0.36039 0.88002 2.06800
Ga	Ga	0.98352 0.42390 0.75125 2.05200
P 	P 	0.58124 0.76381 0.88051 0.55300
P 	P 	0.67319 0.01304 0.72288 0.58500
O 	O 	0.63281 0.78982 0.96260 -0.67900
O 	O 	0.57766 0.82422 0.84360 -0.62300
O 	O 	0.60850 0.74054 0.79350 -0.46900
O 	O 	0.51586 0.71031 0.91070 -0.28100
O 	O 	0.62469 0.95550 0.78840 -0.65700
O 	O 	0.63295 0.04137 0.67500 -0.63500
O 	O 	0.72848 0.06484 0.78270 -0.49600
O 	O 	0.69973 0.98940 0.64000 -0.54600
N 	N 	0.55560 0.72449 0.13070 -0.42600
N 	N 	0.66740 0.84344 0.14890 -0.33400
N 	N 	0.74918 0.81144 0.05870 -0.45900
C 	C 	0.55270 0.78180 0.16960 -0.08600
C 	C 	0.61500 0.82700 0.22020 -0.10400
C 	C 	0.73520 0.87770 0.18310 -0.11200
C 	C 	0.77630 0.87900 0.09630 -0.07100
H 	H 	0.54440 0.69500 0.17980 0.12800
H 	H 	0.52750 0.70730 0.07940 0.13300
H 	H 	0.67200 0.87400 0.10610 0.12700
H 	H 	0.76460 0.78980 0.08380 0.15500
H 	H 	0.76300 0.81800 0.99490 0.14000
H 	H 	0.54710 0.80650 0.11090 0.04000
H 	H 	0.51600 0.76200 0.21220 0.05900
H 	H 	0.62160 0.80610 0.27640 0.05600
H 	H 	0.61010 0.86240 0.25390 0.07200
H 	H 	0.74540 0.85220 0.23570 0.05200
H 	H 	0.74190 0.91980 0.20440 0.06300
H 	H 	0.81960 0.89270 0.12590 0.07100
H 	H 	0.77200 0.90280 0.03820 0.05500
P 	P 	0.24791 0.09714 0.21384 0.55300
P 	P 	0.33986 0.34637 0.05621 0.61000
O 	O 	0.29948 0.12315 0.29593 -0.67600
O 	O 	0.24433 0.15755 0.17693 -0.62200
O 	O 	0.27517 0.07387 0.12683 -0.47000
O 	O 	0.18253 0.04364 0.24403 -0.28200
O 	O 	0.29136 0.28883 0.12173 -0.66700
O 	O 	0.29962 0.37470 0.00833 -0.63000
O 	O 	0.39515 0.39817 0.11603 -0.49500
O 	O 	0.36640 0.32273 0.97333 -0.56600
N 	N 	0.22227 0.05782 0.46403 -0.42500
N 	N 	0.33407 0.17677 0.48223 -0.33400
N 	N 	0.41585 0.14477 0.39203 -0.46400
C 	C 	0.21937 0.11513 0.50293 -0.08700
C 	C 	0.28167 0.16033 0.55353 -0.10400
C 	C 	0.40187 0.21103 0.51643 -0.11200
C 	C 	0.44297 0.21233 0.42963 -0.06900
H 	H 	0.21107 0.02833 0.51313 0.12300
H 	H 	0.19417 0.04063 0.41273 0.12900
H 	H 	0.33867 0.20733 0.43943 0.12500
H 	H 	0.43127 0.12313 0.41713 0.15500
H 	H 	0.42967 0.15133 0.32823 0.14500
H 	H 	0.21377 0.13983 0.44423 0.04000
H 	H 	0.18267 0.09533 0.54553 0.05900
H 	H 	0.28827 0.13943 0.60973 0.05600
H 	H 	0.27677 0.19573 0.58723 0.07200
H 	H 	0.41207 0.18553 0.56903 0.05200
H 	H 	0.40857 0.25313 0.53773 0.06000
H 	H 	0.48627 0.22603 0.45923 0.06900
H 	H 	0.43867 0.23613 0.37153 0.05100
P 	P 	0.91457 0.43048 0.54718 0.55300
P 	P 	0.00652 0.67971 0.38955 0.62200
O 	O 	0.96614 0.45649 0.62927 -0.68200
O 	O 	0.91099 0.49089 0.51027 -0.62400
O 	O 	0.94183 0.40721 0.46017 -0.47400
O 	O 	0.84919 0.37698 0.57737 -0.27900
O 	O 	0.95802 0.62217 0.45507 -0.67700
O 	O 	0.96628 0.70804 0.34167 -0.64300
O 	O 	0.06181 0.73151 0.44937 -0.49600
O 	O 	0.03306 0.65607 0.30667 -0.55900
N 	N 	0.88893 0.39116 0.79737 -0.42800
N 	N 	0.00073 0.51011 0.81557 -0.32500
N 	N 	0.08251 0.47811 0.72537 -0.46200
C 	C 	0.88603 0.44847 0.83627 -0.08200
C 	C 	0.94833 0.49367 0.88687 -0.11800
C 	C 	0.06853 0.54437 0.84977 -0.11200
C 	C 	0.10963 0.54567 0.76297 -0.06800
H 	H 	0.87773 0.36167 0.84647 0.12700
H 	H 	0.86083 0.37397 0.74607 0.13200
H 	H 	0.00533 0.54067 0.77277 0.12900
H 	H 	0.09793 0.45647 0.75047 0.15700
H 	H 	0.09633 0.48467 0.66157 0.14600
H 	H 	0.88043 0.47317 0.77757 0.03700
H 	H 	0.84933 0.42867 0.87887 0.05600
H 	H 	0.95493 0.47277 0.94307 0.05400
H 	H 	0.94343 0.52907 0.92057 0.07100
H 	H 	0.07873 0.51887 0.90237 0.05300
H 	H 	0.07523 0.58647 0.87107 0.06100
H 	H 	0.15293 0.55937 0.79257 0.06800
H 	H 	0.10533 0.56947 0.70487 0.05200
P 	P 	0.23619 0.81743 0.88051 0.55300
P 	P 	0.98696 0.66015 0.72288 0.58500
O 	O 	0.21018 0.84299 0.96260 -0.67700
O 	O 	0.17578 0.75344 0.84360 -0.62300
O 	O 	0.25946 0.86796 0.79350 -0.46800
O 	O 	0.28969 0.80555 0.91070 -0.28000
O 	O 	0.04450 0.66919 0.78840 -0.65600
O 	O 	0.95863 0.59158 0.67500 -0.63500
O 	O 	0.93516 0.66364 0.78270 -0.49600
O 	O 	0.01060 0.71033 0.64000 -0.54600
N 	N 	0.27551 0.83111 0.13070 -0.42600
N 	N 	0.15656 0.82396 0.14890 -0.33400
N 	N 	0.18856 0.93774 0.05870 -0.46400
C 	C 	0.21820 0.77090 0.16960 -0.08600
C 	C 	0.17300 0.78800 0.22020 -0.10400
C 	C 	0.12230 0.85750 0.18310 -0.11300
C 	C 	0.12100 0.89730 0.09630 -0.06900
H 	H 	0.30500 0.84940 0.17980 0.12800
H 	H 	0.29270 0.82020 0.07940 0.13300
H 	H 	0.12600 0.79800 0.10610 0.12600
H 	H 	0.21020 0.97480 0.08380 0.16000
H 	H 	0.18200 0.94500 0.99490 0.14600
H 	H 	0.19350 0.74060 0.11090 0.04000
H 	H 	0.23800 0.75400 0.21220 0.05900
H 	H 	0.19390 0.81550 0.27640 0.05600
H 	H 	0.13760 0.74770 0.25390 0.07200
H 	H 	0.14780 0.89320 0.23570 0.05400
H 	H 	0.08020 0.82210 0.20440 0.06300
H 	H 	0.10730 0.92690 0.12590 0.07400
H 	H 	0.09720 0.86920 0.03820 0.05400
P 	P 	0.90286 0.15076 0.21384 0.55300
P 	P 	0.65363 0.99348 0.05621 0.62700
O 	O 	0.87685 0.17632 0.29593 -0.67600
O 	O 	0.84245 0.08677 0.17693 -0.62400
O 	O 	0.92613 0.20129 0.12683 -0.47000
O 	O 	0.95636 0.13888 0.24403 -0.28400
O 	O 	0.71117 0.00252 0.12173 -0.67700
O 	O 	0.62530 0.92491 0.00833 -0.63100
O 	O 	0.60183 0.99697 0.11603 -0.49200
O 	O 	0.67727 0.04366 0.97333 -0.57700
N 	N 	0.94218 0.16444 0.46403 -0.42500
N 	N 	0.82323 0.15729 0.48223 -0.33400
N 	N 	0.85523 0.27107 0.39203 -0.46400
C 	C 	0.88487 0.10423 0.50293 -0.08600
C 	C 	0.83967 0.12133 0.55353 -0.10500
C 	C 	0.78897 0.19083 0.51643 -0.11200
C 	C 	0.78767 0.23063 0.42963 -0.06900
H 	H 	0.97167 0.18273 0.51313 0.12300
H 	H 	0.95937 0.15353 0.41273 0.12800
H 	H 	0.79267 0.13133 0.43943 0.12400
H 	H 	0.87687 0.30813 0.41713 0.15500
H 	H 	0.84867 0.27833 0.32823 0.14500
H 	H 	0.86017 0.07393 0.44423 0.03600
H 	H 	0.90467 0.08733 0.54553 0.05400
H 	H 	0.86057 0.14883 0.60973 0.05500
H 	H 	0.80427 0.08103 0.58723 0.06900
H 	H 	0.81447 0.22653 0.56903 0.05200
H 	H 	0.74687 0.15543 0.53773 0.06000
H 	H 	0.77397 0.26023 0.45923 0.06900
H 	H 	0.76387 0.20253 0.37153 0.05100
P 	P 	0.56952 0.48410 0.54718 0.55300
P 	P 	0.32029 0.32682 0.38955 0.60500
O 	O 	0.54351 0.50966 0.62927 -0.67500
O 	O 	0.50911 0.42011 0.51027 -0.62200
O 	O 	0.59279 0.53463 0.46017 -0.46900
O 	O 	0.62302 0.47222 0.57737 -0.27900
O 	O 	0.37783 0.33586 0.45507 -0.66700
O 	O 	0.29196 0.25825 0.34167 -0.63300
O 	O 	0.26849 0.33031 0.44937 -0.49600
O 	O 	0.34393 0.37700 0.30667 -0.56000
N 	N 	0.60884 0.49778 0.79737 -0.42600
N 	N 	0.48989 0.49063 0.81557 -0.33400
N 	N 	0.52189 0.60441 0.72537 -0.46400
C 	C 	0.55153 0.43757 0.83627 -0.08700
C 	C 	0.50633 0.45467 0.88687 -0.10300
C 	C 	0.45563 0.52417 0.84977 -0.11100
C 	C 	0.45433 0.56397 0.76297 -0.07000
H 	H 	0.63833 0.51607 0.84647 0.12700
H 	H 	0.62603 0.48687 0.74607 0.13100
H 	H 	0.45933 0.46467 0.77277 0.12500
H 	H 	0.54353 0.64147 0.75047 0.15500
H 	H 	0.51533 0.61167 0.66157 0.14600
H 	H 	0.52683 0.40727 0.77757 0.04000
H 	H 	0.57133 0.42067 0.87887 0.05800
H 	H 	0.52723 0.48217 0.94307 0.05400
H 	H 	0.47093 0.41437 0.92057 0.07000
H 	H 	0.48113 0.55987 0.90237 0.05000
H 	H 	0.41353 0.48877 0.87107 0.05800
H 	H 	0.44063 0.59357 0.79257 0.06900
H 	H 	0.43053 0.53587 0.70487 0.05100
P 	P 	0.18257 0.41876 0.88051 0.55300
P 	P 	0.33985 0.32681 0.72288 0.60500
O 	O 	0.15701 0.36719 0.96260 -0.67800
O 	O 	0.24656 0.42234 0.84360 -0.62300
O 	O 	0.13204 0.39150 0.79350 -0.46800
O 	O 	0.19445 0.48414 0.91070 -0.28100
O 	O 	0.33081 0.37531 0.78840 -0.66800
O 	O 	0.40842 0.36705 0.67500 -0.63300
O 	O 	0.33636 0.27152 0.78270 -0.49600
O 	O 	0.28967 0.30027 0.64000 -0.56000
N 	N 	0.16889 0.44440 0.13070 -0.42600
N 	N 	0.17604 0.33260 0.14890 -0.33400
N 	N 	0.06226 0.25082 0.05870 -0.46100
C 	C 	0.22910 0.44730 0.16960 -0.08600
C 	C 	0.21200 0.38500 0.22020 -0.10400
C 	C 	0.14250 0.26480 0.18310 -0.11200
C 	C 	0.10270 0.22370 0.09630 -0.07000
H 	H 	0.15060 0.45560 0.17980 0.12800
H 	H 	0.17980 0.47250 0.07940 0.13300
H 	H 	0.20200 0.32800 0.10610 0.12500
H 	H 	0.02520 0.23540 0.08380 0.16000
H 	H 	0.05500 0.23700 0.99490 0.14300
H 	H 	0.25940 0.45290 0.11090 0.04000
H 	H 	0.24600 0.48400 0.21220 0.05900
H 	H 	0.18450 0.37840 0.27640 0.05600
H 	H 	0.25230 0.38990 0.25390 0.07200
H 	H 	0.10680 0.25460 0.23570 0.05300
H 	H 	0.17790 0.25810 0.20440 0.06000
H 	H 	0.07310 0.18040 0.12590 0.07200
H 	H 	0.13080 0.22800 0.03820 0.05400
P 	P 	0.84924 0.75209 0.21384 0.55300
P 	P 	0.00652 0.66014 0.05621 0.62600
O 	O 	0.82368 0.70052 0.29593 -0.67500
O 	O 	0.91323 0.75567 0.17693 -0.62300
O 	O 	0.79871 0.72483 0.12683 -0.46700
O 	O 	0.86112 0.81747 0.24403 -0.27900
O 	O 	0.99748 0.70864 0.12173 -0.67700
O 	O 	0.07509 0.70038 0.00833 -0.63200
O 	O 	0.00303 0.60485 0.11603 -0.49200
O 	O 	0.95634 0.63360 0.97333 -0.57600
N 	N 	0.83556 0.77773 0.46403 -0.42600
N 	N 	0.84271 0.66593 0.48223 -0.33400
N 	N 	0.72893 0.58415 0.39203 -0.46400
C 	C 	0.89577 0.78063 0.50293 -0.08600
C 	C 	0.87867 0.71833 0.55353 -0.10400
C 	C 	0.80917 0.59813 0.51643 -0.11200
C 	C 	0.76937 0.55703 0.42963 -0.06900
H 	H 	0.81727 0.78893 0.51313 0.12800
H 	H 	0.84647 0.80583 0.41273 0.13200
H 	H 	0.86867 0.66133 0.43943 0.12400
H 	H 	0.69187 0.56873 0.41713 0.15500
H 	H 	0.72167 0.57033 0.32823 0.14600
H 	H 	0.92607 0.78623 0.44423 0.03700
H 	H 	0.91267 0.81733 0.54553 0.05700
H 	H 	0.85117 0.71173 0.60973 0.05600
H 	H 	0.91897 0.72323 0.58723 0.06900
H 	H 	0.77347 0.58793 0.56903 0.05200
H 	H 	0.84457 0.59143 0.53773 0.06000
H 	H 	0.73977 0.51373 0.45923 0.06900
H 	H 	0.79747 0.56133 0.37153 0.05100
P 	P 	0.51590 0.08543 0.54718 0.55300
P 	P 	0.67318 0.99348 0.38955 0.62200
O 	O 	0.49034 0.03386 0.62927 -0.68200
O 	O 	0.57989 0.08901 0.51027 -0.62400
O 	O 	0.46537 0.05817 0.46017 -0.47400
O 	O 	0.52778 0.15081 0.57737 -0.27900
O 	O 	0.66414 0.04198 0.45507 -0.67700
O 	O 	0.74175 0.03372 0.34167 -0.64300
O 	O 	0.66969 0.93819 0.44937 -0.49600
O 	O 	0.62300 0.96694 0.30667 -0.55900
N 	N 	0.50222 0.11107 0.79737 -0.42800
N 	N 	0.50937 0.99927 0.81557 -0.32500
N 	N 	0.39559 0.91749 0.72537 -0.46200
C 	C 	0.56243 0.11397 0.83627 -0.08200
C 	C 	0.54533 0.05167 0.88687 -0.11800
C 	C 	0.47583 0.93147 0.84977 -0.11200
C 	C 	0.43603 0.89037 0.76297 -0.06800
H 	H 	0.48393 0.12227 0.84647 0.12700
H 	H 	0.51313 0.13917 0.74607 0.13200
H 	H 	0.53533 0.99467 0.77277 0.12800
H 	H 	0.35853 0.90207 0.75047 0.15700
H 	H 	0.38833 0.90367 0.66157 0.14600
H 	H 	0.59273 0.11957 0.77757 0.03700
H 	H 	0.57933 0.15067 0.87887 0.05600
H 	H 	0.51783 0.04507 0.94307 0.05400
H 	H 	0.58563 0.05657 0.92057 0.07100
H 	H 	0.44013 0.92127 0.90237 0.05300
H 	H 	0.51123 0.92477 0.87107 0.06100
H 	H 	0.40643 0.84707 0.79257 0.06800
H 	H 	0.46413 0.89467 0.70487 0.05200
