data_crystal

_cell_length_a 23.66350
_cell_length_b 23.66350
_cell_length_c 13.56860
_cell_angle_alpha 90.00000
_cell_angle_beta  90.00000
_cell_angle_gamma 120.00000

_symmetry_space_group_name_	'P 1'
_symmetry_space_group_name_H-M	'P 1'

loop_
_symmetry_equiv_pos_as_xyz
  x,y,z

loop_
_atom_site_label
_atom_site_type_symbol
_atom_site_fract_x
_atom_site_fract_y
_atom_site_fract_z
_atom_site_charge
Mn	Mn	0.36185 0.09333 0.11825 1.34300
Ga	Ga	0.34991 0.24380 0.91802 2.05100
P 	P 	0.42029 0.23786 0.12203 0.56100
P 	P 	0.32703 0.98617 0.27484 0.61400
O 	O 	0.36998 0.21215 0.03860 -0.66400
O 	O 	0.42439 0.17750 0.15760 -0.46400
O 	O 	0.39211 0.26001 0.20800 -0.64200
O 	O 	0.48570 0.29170 0.09290 -0.27000
O 	O 	0.37653 0.04436 0.21220 -0.51600
O 	O 	0.36473 0.95505 0.32180 -0.47500
O 	O 	0.27110 0.93641 0.21410 -0.58200
O 	O 	0.30090 0.00966 0.35930 -0.65000
N 	N 	0.44470 0.27850 0.86980 -0.40800
N 	N 	0.33340 0.15770 0.85270 -0.29700
N 	N 	0.25140 0.18840 0.94410 -0.41000
C 	C 	0.44900 0.22240 0.82830 -0.05400
C 	C 	0.38620 0.17570 0.77930 -0.12300
C 	C 	0.26650 0.12380 0.81810 -0.09900
C 	C 	0.22510 0.12090 0.90520 -0.08400
H 	H 	0.45020 0.30430 0.82170 0.13400
H 	H 	0.47890 0.30470 0.92280 0.09500
H 	H 	0.33530 0.13120 0.90760 0.07700
H 	H 	0.23990 0.18270 0.01070 0.11600
H 	H 	0.21790 0.20040 0.91440 0.10700
H 	H 	0.46310 0.20150 0.88490 0.03600
H 	H 	0.48050 0.23890 0.76520 0.04200
H 	H 	0.38890 0.13740 0.75240 0.08000
H 	H 	0.37670 0.20020 0.72660 0.05700
H 	H 	0.25470 0.14640 0.75910 0.04900
H 	H 	0.24910 0.07900 0.80080 0.06700
H 	H 	0.18190 0.11010 0.87900 0.07100
H 	H 	0.22370 0.09020 0.96470 0.05100
Ga	Ga	0.30482 0.24000 0.21508 2.06000
Mn	Mn	0.02852 0.42666 0.45158 1.34300
Ga	Ga	0.01658 0.57713 0.25135 2.05300
P 	P 	0.08696 0.57119 0.45536 0.56200
P 	P 	0.99370 0.31950 0.60817 0.59900
O 	O 	0.03665 0.54548 0.37193 -0.67100
O 	O 	0.09106 0.51083 0.49093 -0.46500
O 	O 	0.05878 0.59334 0.54133 -0.64000
O 	O 	0.15237 0.62503 0.42623 -0.27600
O 	O 	0.04320 0.37769 0.54553 -0.50800
O 	O 	0.03140 0.28838 0.65513 -0.47000
O 	O 	0.93777 0.26974 0.54743 -0.58200
O 	O 	0.96757 0.34299 0.69263 -0.64700
N 	N 	0.11137 0.61183 0.20313 -0.40700
N 	N 	0.00007 0.49103 0.18603 -0.29400
N 	N 	0.91807 0.52173 0.27743 -0.40200
C 	C 	0.11567 0.55573 0.16163 -0.05300
C 	C 	0.05287 0.50903 0.11263 -0.12500
C 	C 	0.93317 0.45713 0.15143 -0.10500
C 	C 	0.89177 0.45423 0.23853 -0.08400
H 	H 	0.11687 0.63763 0.15503 0.13500
H 	H 	0.14557 0.63803 0.25613 0.09900
H 	H 	0.00197 0.46453 0.24093 0.08200
H 	H 	0.90657 0.51603 0.34403 0.10400
H 	H 	0.88457 0.53373 0.24773 0.10800
H 	H 	0.12977 0.53483 0.21823 0.03900
H 	H 	0.14717 0.57223 0.09853 0.04400
H 	H 	0.05557 0.47073 0.08573 0.08400
H 	H 	0.04337 0.53353 0.05993 0.06200
H 	H 	0.92137 0.47973 0.09243 0.05400
H 	H 	0.91577 0.41233 0.13413 0.07300
H 	H 	0.84857 0.44343 0.21233 0.07500
H 	H 	0.89037 0.42353 0.29803 0.05700
Ga	Ga	0.97148 0.57334 0.54842 2.05900
Mn	Mn	0.69518 0.76000 0.78492 1.34200
Ga	Ga	0.68324 0.91047 0.58469 2.05300
P 	P 	0.75362 0.90453 0.78870 0.56200
P 	P 	0.66036 0.65284 0.94151 0.59900
O 	O 	0.70331 0.87882 0.70527 -0.67200
O 	O 	0.75772 0.84417 0.82427 -0.46700
O 	O 	0.72544 0.92668 0.87467 -0.64400
O 	O 	0.81903 0.95837 0.75957 -0.27500
O 	O 	0.70986 0.71103 0.87887 -0.51300
O 	O 	0.69806 0.62172 0.98847 -0.48200
O 	O 	0.60443 0.60308 0.88077 -0.58300
O 	O 	0.63423 0.67633 0.02597 -0.63500
N 	N 	0.77803 0.94517 0.53647 -0.40800
N 	N 	0.66673 0.82437 0.51937 -0.29700
N 	N 	0.58473 0.85507 0.61077 -0.40000
C 	C 	0.78233 0.88907 0.49497 -0.05400
C 	C 	0.71953 0.84237 0.44597 -0.12300
C 	C 	0.59983 0.79047 0.48477 -0.09800
C 	C 	0.55843 0.78757 0.57187 -0.08600
H 	H 	0.78353 0.97097 0.48837 0.13600
H 	H 	0.81223 0.97137 0.58947 0.10000
H 	H 	0.66863 0.79787 0.57427 0.08100
H 	H 	0.57323 0.84937 0.67737 0.10400
H 	H 	0.55123 0.86707 0.58107 0.10800
H 	H 	0.79643 0.86817 0.55157 0.03900
H 	H 	0.81383 0.90557 0.43187 0.04300
H 	H 	0.72223 0.80407 0.41907 0.08000
H 	H 	0.71003 0.86687 0.39327 0.05700
H 	H 	0.58803 0.81307 0.42577 0.04900
H 	H 	0.58243 0.74567 0.46747 0.06800
H 	H 	0.51523 0.77677 0.54567 0.07400
H 	H 	0.55703 0.75687 0.63137 0.05800
Ga	Ga	0.63815 0.90667 0.88175 2.05900
Mn	Mn	0.90667 0.26852 0.11825 1.34500
Ga	Ga	0.75620 0.10611 0.91802 2.05100
P 	P 	0.76214 0.18243 0.12203 0.56200
P 	P 	0.01383 0.34086 0.27484 0.61400
O 	O 	0.78785 0.15783 0.03860 -0.66300
O 	O 	0.82250 0.24689 0.15760 -0.46400
O 	O 	0.73999 0.13210 0.20800 -0.64300
O 	O 	0.70830 0.19400 0.09290 -0.27000
O 	O 	0.95564 0.33217 0.21220 -0.51500
O 	O 	0.04495 0.40968 0.32180 -0.47500
O 	O 	0.06359 0.33469 0.21410 -0.58200
O 	O 	0.99034 0.29124 0.35930 -0.65000
N 	N 	0.72150 0.16620 0.86980 -0.40800
N 	N 	0.84230 0.17570 0.85270 -0.29700
N 	N 	0.81160 0.06300 0.94410 -0.41300
C 	C 	0.77760 0.22660 0.82830 -0.05400
C 	C 	0.82430 0.21050 0.77930 -0.12400
C 	C 	0.87620 0.14270 0.81810 -0.09900
C 	C 	0.87910 0.10420 0.90520 -0.08300
H 	H 	0.69570 0.14590 0.82170 0.13400
H 	H 	0.69530 0.17420 0.92280 0.09400
H 	H 	0.86880 0.20410 0.90760 0.07700
H 	H 	0.81730 0.05720 0.01070 0.11800
H 	H 	0.79960 0.01750 0.91440 0.10300
H 	H 	0.79850 0.26160 0.88490 0.03600
H 	H 	0.76110 0.24160 0.76520 0.04200
H 	H 	0.86260 0.25150 0.75240 0.08000
H 	H 	0.79980 0.17650 0.72660 0.05700
H 	H 	0.85360 0.10830 0.75910 0.04800
H 	H 	0.92100 0.17010 0.80080 0.06600
H 	H 	0.88990 0.07180 0.87900 0.06900
H 	H 	0.90980 0.13350 0.96470 0.04900
Ga	Ga	0.76000 0.06481 0.21508 2.06000
Mn	Mn	0.57334 0.60185 0.45158 1.34200
Ga	Ga	0.42287 0.43944 0.25135 2.05300
P 	P 	0.42881 0.51576 0.45536 0.56200
P 	P 	0.68050 0.67419 0.60817 0.60800
O 	O 	0.45452 0.49116 0.37193 -0.67300
O 	O 	0.48917 0.58022 0.49093 -0.46600
O 	O 	0.40666 0.46543 0.54133 -0.64300
O 	O 	0.37497 0.52733 0.42623 -0.27600
O 	O 	0.62231 0.66550 0.54553 -0.51300
O 	O 	0.71162 0.74301 0.65513 -0.47500
O 	O 	0.73026 0.66802 0.54743 -0.58300
O 	O 	0.65701 0.62457 0.69263 -0.64600
N 	N 	0.38817 0.49953 0.20313 -0.40700
N 	N 	0.50897 0.50903 0.18603 -0.29600
N 	N 	0.47827 0.39633 0.27743 -0.40000
C 	C 	0.44427 0.55993 0.16163 -0.05400
C 	C 	0.49097 0.54383 0.11263 -0.12400
C 	C 	0.54287 0.47603 0.15143 -0.10000
C 	C 	0.54577 0.43753 0.23853 -0.08500
H 	H 	0.36237 0.47923 0.15503 0.13500
H 	H 	0.36197 0.50753 0.25613 0.09900
H 	H 	0.53547 0.53743 0.24093 0.08100
H 	H 	0.48397 0.39053 0.34403 0.10400
H 	H 	0.46627 0.35083 0.24773 0.10800
H 	H 	0.46517 0.59493 0.21823 0.03900
H 	H 	0.42777 0.57493 0.09853 0.04500
H 	H 	0.52927 0.58483 0.08573 0.08300
H 	H 	0.46647 0.50983 0.05993 0.06100
H 	H 	0.52027 0.44163 0.09243 0.05300
H 	H 	0.58767 0.50343 0.13413 0.07100
H 	H 	0.55657 0.40513 0.21233 0.07500
H 	H 	0.57647 0.46683 0.29803 0.05800
Ga	Ga	0.42666 0.39815 0.54842 2.06000
Mn	Mn	0.24000 0.93519 0.78492 1.34200
Ga	Ga	0.08953 0.77278 0.58469 2.05300
P 	P 	0.09547 0.84910 0.78870 0.56200
P 	P 	0.34716 0.00753 0.94151 0.58900
O 	O 	0.12118 0.82450 0.70527 -0.67200
O 	O 	0.15583 0.91356 0.82427 -0.46500
O 	O 	0.07332 0.79877 0.87467 -0.64300
O 	O 	0.04163 0.86067 0.75957 -0.27300
O 	O 	0.28897 0.99884 0.87887 -0.50500
O 	O 	0.37828 0.07635 0.98847 -0.48200
O 	O 	0.39692 0.00136 0.88077 -0.58500
O 	O 	0.32367 0.95791 0.02597 -0.63200
N 	N 	0.05483 0.83287 0.53647 -0.40800
N 	N 	0.17563 0.84237 0.51937 -0.29700
N 	N 	0.14493 0.72967 0.61077 -0.40000
C 	C 	0.11093 0.89327 0.49497 -0.05400
C 	C 	0.15763 0.87717 0.44597 -0.12300
C 	C 	0.20953 0.80937 0.48477 -0.09800
C 	C 	0.21243 0.77087 0.57187 -0.08600
H 	H 	0.02903 0.81257 0.48837 0.13600
H 	H 	0.02863 0.84087 0.58947 0.10100
H 	H 	0.20213 0.87077 0.57427 0.08100
H 	H 	0.15063 0.72387 0.67737 0.10400
H 	H 	0.13293 0.68417 0.58107 0.10800
H 	H 	0.13183 0.92827 0.55157 0.04000
H 	H 	0.09443 0.90827 0.43187 0.04500
H 	H 	0.19593 0.91817 0.41907 0.08100
H 	H 	0.13313 0.84317 0.39327 0.05700
H 	H 	0.18693 0.77497 0.42577 0.04900
H 	H 	0.25433 0.83677 0.46747 0.06800
H 	H 	0.22323 0.73847 0.54567 0.07400
H 	H 	0.24313 0.80017 0.63137 0.05800
Ga	Ga	0.09333 0.73148 0.88175 2.05900
Mn	Mn	0.73148 0.63815 0.11825 1.34400
Ga	Ga	0.89389 0.65009 0.91802 2.05200
P 	P 	0.81757 0.57971 0.12203 0.56200
P 	P 	0.65914 0.67297 0.27484 0.60800
O 	O 	0.84217 0.63002 0.03860 -0.66400
O 	O 	0.75311 0.57561 0.15760 -0.46400
O 	O 	0.86790 0.60789 0.20800 -0.64300
O 	O 	0.80600 0.51430 0.09290 -0.27000
O 	O 	0.66783 0.62347 0.21220 -0.51200
O 	O 	0.59032 0.63527 0.32180 -0.47500
O 	O 	0.66531 0.72890 0.21410 -0.58200
O 	O 	0.70876 0.69910 0.35930 -0.64600
N 	N 	0.83380 0.55530 0.86980 -0.40800
N 	N 	0.82430 0.66660 0.85270 -0.29700
N 	N 	0.93700 0.74860 0.94410 -0.41100
C 	C 	0.77340 0.55100 0.82830 -0.05400
C 	C 	0.78950 0.61380 0.77930 -0.12300
C 	C 	0.85730 0.73350 0.81810 -0.09900
C 	C 	0.89580 0.77490 0.90520 -0.08400
H 	H 	0.85410 0.54980 0.82170 0.13400
H 	H 	0.82580 0.52110 0.92280 0.09400
H 	H 	0.79590 0.66470 0.90760 0.07800
H 	H 	0.94280 0.76010 0.01070 0.11600
H 	H 	0.98250 0.78210 0.91440 0.10400
H 	H 	0.73840 0.53690 0.88490 0.03600
H 	H 	0.75840 0.51950 0.76520 0.04200
H 	H 	0.74850 0.61110 0.75240 0.08000
H 	H 	0.82350 0.62330 0.72660 0.05700
H 	H 	0.89170 0.74530 0.75910 0.04900
H 	H 	0.82990 0.75090 0.80080 0.06800
H 	H 	0.92820 0.81810 0.87900 0.07100
H 	H 	0.86650 0.77630 0.96470 0.05200
Ga	Ga	0.93519 0.69518 0.21508 2.06000
Mn	Mn	0.39815 0.97148 0.45158 1.34300
Ga	Ga	0.56056 0.98342 0.25135 2.05300
P 	P 	0.48424 0.91304 0.45536 0.56200
P 	P 	0.32581 0.00630 0.60817 0.59900
O 	O 	0.50884 0.96335 0.37193 -0.67100
O 	O 	0.41978 0.90894 0.49093 -0.46500
O 	O 	0.53457 0.94122 0.54133 -0.64000
O 	O 	0.47267 0.84763 0.42623 -0.27600
O 	O 	0.33450 0.95680 0.54553 -0.50800
O 	O 	0.25699 0.96860 0.65513 -0.47000
O 	O 	0.33198 0.06223 0.54743 -0.58200
O 	O 	0.37543 0.03243 0.69263 -0.64700
N 	N 	0.50047 0.88863 0.20313 -0.40700
N 	N 	0.49097 0.99993 0.18603 -0.29400
N 	N 	0.60367 0.08193 0.27743 -0.40200
C 	C 	0.44007 0.88433 0.16163 -0.05300
C 	C 	0.45617 0.94713 0.11263 -0.12500
C 	C 	0.52397 0.06683 0.15143 -0.10500
C 	C 	0.56247 0.10823 0.23853 -0.08400
H 	H 	0.52077 0.88313 0.15503 0.13500
H 	H 	0.49247 0.85443 0.25613 0.09900
H 	H 	0.46257 0.99803 0.24093 0.08200
H 	H 	0.60947 0.09343 0.34403 0.10400
H 	H 	0.64917 0.11543 0.24773 0.10800
H 	H 	0.40507 0.87023 0.21823 0.03900
H 	H 	0.42507 0.85283 0.09853 0.04400
H 	H 	0.41517 0.94443 0.08573 0.08300
H 	H 	0.49017 0.95663 0.05993 0.06200
H 	H 	0.55837 0.07863 0.09243 0.05500
H 	H 	0.49657 0.08423 0.13413 0.07300
H 	H 	0.59487 0.15143 0.21233 0.07500
H 	H 	0.53317 0.10963 0.29803 0.05700
Ga	Ga	0.60185 0.02852 0.54842 2.05900
Mn	Mn	0.06481 0.30482 0.78492 1.34200
Ga	Ga	0.22722 0.31676 0.58469 2.05300
P 	P 	0.15090 0.24638 0.78870 0.56200
P 	P 	0.99247 0.33964 0.94151 0.58800
O 	O 	0.17550 0.29669 0.70527 -0.67300
O 	O 	0.08644 0.24228 0.82427 -0.46600
O 	O 	0.20123 0.27456 0.87467 -0.64600
O 	O 	0.13933 0.18097 0.75957 -0.27700
O 	O 	0.00116 0.29014 0.87887 -0.50500
O 	O 	0.92365 0.30194 0.98847 -0.48300
O 	O 	0.99864 0.39557 0.88077 -0.58500
O 	O 	0.04209 0.36577 0.02597 -0.63100
N 	N 	0.16713 0.22197 0.53647 -0.40700
N 	N 	0.15763 0.33327 0.51937 -0.29700
N 	N 	0.27033 0.41527 0.61077 -0.40000
C 	C 	0.10673 0.21767 0.49497 -0.05400
C 	C 	0.12283 0.28047 0.44597 -0.12300
C 	C 	0.19063 0.40017 0.48477 -0.09800
C 	C 	0.22913 0.44157 0.57187 -0.08600
H 	H 	0.18743 0.21647 0.48837 0.13400
H 	H 	0.15913 0.18777 0.58947 0.09800
H 	H 	0.12923 0.33137 0.57427 0.08100
H 	H 	0.27613 0.42677 0.67737 0.10400
H 	H 	0.31583 0.44877 0.58107 0.10800
H 	H 	0.07173 0.20357 0.55157 0.04000
H 	H 	0.09173 0.18617 0.43187 0.04300
H 	H 	0.08183 0.27777 0.41907 0.08100
H 	H 	0.15683 0.28997 0.39327 0.05700
H 	H 	0.22503 0.41197 0.42577 0.04900
H 	H 	0.16323 0.41757 0.46747 0.06800
H 	H 	0.26153 0.48477 0.54567 0.07400
H 	H 	0.19983 0.44297 0.63137 0.05800
Ga	Ga	0.26852 0.36185 0.88175 2.05900
Ga	Ga	0.65009 0.75620 0.08198 2.05500
P 	P 	0.57971 0.76214 0.87797 0.56100
P 	P 	0.67297 0.01383 0.72516 0.63200
O 	O 	0.63002 0.78785 0.96140 -0.68700
O 	O 	0.57561 0.82250 0.84240 -0.61800
O 	O 	0.60789 0.73999 0.79200 -0.49300
O 	O 	0.51430 0.70830 0.90710 -0.28200
O 	O 	0.62347 0.95564 0.78780 -0.66900
O 	O 	0.63527 0.04495 0.67820 -0.62900
O 	O 	0.72890 0.06359 0.78590 -0.59800
O 	O 	0.69910 0.99034 0.64070 -0.67200
N 	N 	0.55530 0.72150 0.13020 -0.40700
N 	N 	0.66660 0.84230 0.14730 -0.29700
N 	N 	0.74860 0.81160 0.05590 -0.38900
C 	C 	0.55100 0.77760 0.17170 -0.05300
C 	C 	0.61380 0.82430 0.22070 -0.12400
C 	C 	0.73350 0.87620 0.18190 -0.08900
C 	C 	0.77490 0.87910 0.09480 -0.09200
H 	H 	0.54980 0.69570 0.17830 0.13400
H 	H 	0.52110 0.69530 0.07720 0.10100
H 	H 	0.66470 0.86880 0.09240 0.07300
H 	H 	0.76010 0.81730 0.98930 0.10300
H 	H 	0.78210 0.79960 0.08560 0.11200
H 	H 	0.53690 0.79850 0.11510 0.03700
H 	H 	0.51950 0.76110 0.23480 0.04400
H 	H 	0.61110 0.86260 0.24760 0.07900
H 	H 	0.62330 0.79980 0.27340 0.05800
H 	H 	0.74530 0.85360 0.24090 0.04700
H 	H 	0.75090 0.92100 0.19920 0.05400
H 	H 	0.81810 0.88990 0.12100 0.07700
H 	H 	0.77630 0.90980 0.03530 0.06200
Ga	Ga	0.31676 0.08953 0.41531 2.05400
P 	P 	0.24638 0.09547 0.21130 0.56000
P 	P 	0.33964 0.34716 0.05849 0.65100
O 	O 	0.29669 0.12118 0.29473 -0.68000
O 	O 	0.24228 0.15583 0.17573 -0.61500
O 	O 	0.27456 0.07332 0.12533 -0.49000
O 	O 	0.18097 0.04163 0.24043 -0.27700
O 	O 	0.29014 0.28897 0.12113 -0.67400
O 	O 	0.30194 0.37828 0.01153 -0.62300
O 	O 	0.39557 0.39692 0.11923 -0.59700
O 	O 	0.36577 0.32367 0.97403 -0.69000
N 	N 	0.22197 0.05483 0.46353 -0.40700
N 	N 	0.33327 0.17563 0.48063 -0.29700
N 	N 	0.41527 0.14493 0.38923 -0.39900
C 	C 	0.21767 0.11093 0.50503 -0.05400
C 	C 	0.28047 0.15763 0.55403 -0.12400
C 	C 	0.40017 0.20953 0.51523 -0.09100
C 	C 	0.44157 0.21243 0.42813 -0.09000
H 	H 	0.21647 0.02903 0.51163 0.13100
H 	H 	0.18777 0.02863 0.41053 0.09700
H 	H 	0.33137 0.20213 0.42573 0.07000
H 	H 	0.42677 0.15063 0.32263 0.11400
H 	H 	0.44877 0.13293 0.41893 0.11100
H 	H 	0.20357 0.13183 0.44843 0.03500
H 	H 	0.18617 0.09443 0.56813 0.04300
H 	H 	0.27777 0.19593 0.58093 0.07900
H 	H 	0.28997 0.13313 0.60673 0.05800
H 	H 	0.41197 0.18693 0.57423 0.04700
H 	H 	0.41757 0.25433 0.53253 0.05300
H 	H 	0.48477 0.22323 0.45433 0.07400
H 	H 	0.44297 0.24313 0.36863 0.05600
Ga	Ga	0.98342 0.42287 0.74865 2.05300
P 	P 	0.91304 0.42881 0.54464 0.56100
P 	P 	0.00630 0.68050 0.39183 0.64900
O 	O 	0.96335 0.45452 0.62807 -0.68200
O 	O 	0.90894 0.48917 0.50907 -0.61700
O 	O 	0.94122 0.40666 0.45867 -0.49500
O 	O 	0.84763 0.37497 0.57377 -0.27700
O 	O 	0.95680 0.62231 0.45447 -0.67900
O 	O 	0.96860 0.71162 0.34487 -0.63200
O 	O 	0.06223 0.73026 0.45257 -0.59800
O 	O 	0.03243 0.65701 0.30737 -0.67800
N 	N 	0.88863 0.38817 0.79687 -0.40800
N 	N 	0.99993 0.50897 0.81397 -0.30200
N 	N 	0.08193 0.47827 0.72257 -0.39700
C 	C 	0.88433 0.44427 0.83837 -0.05400
C 	C 	0.94713 0.49097 0.88737 -0.12200
C 	C 	0.06683 0.54287 0.84857 -0.08000
C 	C 	0.10823 0.54577 0.76147 -0.09300
H 	H 	0.88313 0.36237 0.84497 0.13200
H 	H 	0.85443 0.36197 0.74387 0.09800
H 	H 	0.99803 0.53547 0.75907 0.06900
H 	H 	0.09343 0.48397 0.65597 0.11400
H 	H 	0.11543 0.46627 0.75227 0.11100
H 	H 	0.87023 0.46517 0.78177 0.03500
H 	H 	0.85283 0.42777 0.90147 0.04100
H 	H 	0.94443 0.52927 0.91427 0.07400
H 	H 	0.95663 0.46647 0.94007 0.05100
H 	H 	0.07863 0.52027 0.90757 0.04300
H 	H 	0.08423 0.58767 0.86587 0.04900
H 	H 	0.15143 0.55657 0.78767 0.07400
H 	H 	0.10963 0.57647 0.70197 0.05700
Ga	Ga	0.24380 0.89389 0.08198 2.05500
P 	P 	0.23786 0.81757 0.87797 0.56100
P 	P 	0.98617 0.65914 0.72516 0.63200
O 	O 	0.21215 0.84217 0.96140 -0.68500
O 	O 	0.17750 0.75311 0.84240 -0.61800
O 	O 	0.26001 0.86790 0.79200 -0.49200
O 	O 	0.29170 0.80600 0.90710 -0.28100
O 	O 	0.04436 0.66783 0.78780 -0.66900
O 	O 	0.95505 0.59032 0.67820 -0.62900
O 	O 	0.93641 0.66531 0.78590 -0.59800
O 	O 	0.00966 0.70876 0.64070 -0.67200
N 	N 	0.27850 0.83380 0.13020 -0.40700
N 	N 	0.15770 0.82430 0.14730 -0.29700
N 	N 	0.18840 0.93700 0.05590 -0.39200
C 	C 	0.22240 0.77340 0.17170 -0.05300
C 	C 	0.17570 0.78950 0.22070 -0.12400
C 	C 	0.12380 0.85730 0.18190 -0.09000
C 	C 	0.12090 0.89580 0.09480 -0.09200
H 	H 	0.30430 0.85410 0.17830 0.13400
H 	H 	0.30470 0.82580 0.07720 0.10100
H 	H 	0.13120 0.79590 0.09240 0.07200
H 	H 	0.18270 0.94280 0.98930 0.10800
H 	H 	0.20040 0.98250 0.08560 0.11400
H 	H 	0.20150 0.73840 0.11510 0.03700
H 	H 	0.23890 0.75840 0.23480 0.04400
H 	H 	0.13740 0.74850 0.24760 0.07900
H 	H 	0.20020 0.82350 0.27340 0.05800
H 	H 	0.14640 0.89170 0.24090 0.04700
H 	H 	0.07900 0.82990 0.19920 0.05500
H 	H 	0.11010 0.92820 0.12100 0.07800
H 	H 	0.09020 0.86650 0.03530 0.06100
Ga	Ga	0.91047 0.22722 0.41531 2.05400
P 	P 	0.90453 0.15090 0.21130 0.56100
P 	P 	0.65284 0.99247 0.05849 0.65800
O 	O 	0.87882 0.17550 0.29473 -0.68000
O 	O 	0.84417 0.08644 0.17573 -0.61500
O 	O 	0.92668 0.20123 0.12533 -0.49000
O 	O 	0.95837 0.13933 0.24043 -0.27800
O 	O 	0.71103 0.00116 0.12113 -0.67800
O 	O 	0.62172 0.92365 0.01153 -0.62300
O 	O 	0.60308 0.99864 0.11923 -0.59600
O 	O 	0.67633 0.04209 0.97403 -0.69600
N 	N 	0.94517 0.16713 0.46353 -0.40700
N 	N 	0.82437 0.15763 0.48063 -0.29700
N 	N 	0.85507 0.27033 0.38923 -0.39900
C 	C 	0.88907 0.10673 0.50503 -0.05400
C 	C 	0.84237 0.12283 0.55403 -0.12400
C 	C 	0.79047 0.19063 0.51523 -0.09100
C 	C 	0.78757 0.22913 0.42813 -0.09000
H 	H 	0.97097 0.18743 0.51163 0.13100
H 	H 	0.97137 0.15913 0.41053 0.09600
H 	H 	0.79787 0.12923 0.42573 0.07000
H 	H 	0.84937 0.27613 0.32263 0.11400
H 	H 	0.86707 0.31583 0.41893 0.11100
H 	H 	0.86817 0.07173 0.44843 0.03400
H 	H 	0.90557 0.09173 0.56813 0.04100
H 	H 	0.80407 0.08183 0.58093 0.07700
H 	H 	0.86687 0.15683 0.60673 0.05700
H 	H 	0.81307 0.22503 0.57423 0.04700
H 	H 	0.74567 0.16323 0.53253 0.05300
H 	H 	0.77677 0.26153 0.45433 0.07400
H 	H 	0.75687 0.19983 0.36863 0.05600
Ga	Ga	0.57713 0.56056 0.74865 2.05400
P 	P 	0.57119 0.48424 0.54464 0.56100
P 	P 	0.31950 0.32581 0.39183 0.64200
O 	O 	0.54548 0.50884 0.62807 -0.67900
O 	O 	0.51083 0.41978 0.50907 -0.61600
O 	O 	0.59334 0.53457 0.45867 -0.49300
O 	O 	0.62503 0.47267 0.57377 -0.27700
O 	O 	0.37769 0.33450 0.45447 -0.67500
O 	O 	0.28838 0.25699 0.34487 -0.62800
O 	O 	0.26974 0.33198 0.45257 -0.59800
O 	O 	0.34299 0.37543 0.30737 -0.67800
N 	N 	0.61183 0.50047 0.79687 -0.40800
N 	N 	0.49103 0.49097 0.81397 -0.29800
N 	N 	0.52173 0.60367 0.72257 -0.39900
C 	C 	0.55573 0.44007 0.83837 -0.05400
C 	C 	0.50903 0.45617 0.88737 -0.12300
C 	C 	0.45713 0.52397 0.84857 -0.08900
C 	C 	0.45423 0.56247 0.76147 -0.09100
H 	H 	0.63763 0.52077 0.84497 0.13300
H 	H 	0.63803 0.49247 0.74387 0.09800
H 	H 	0.46453 0.46257 0.75907 0.07000
H 	H 	0.51603 0.60947 0.65597 0.11400
H 	H 	0.53373 0.64917 0.75227 0.11000
H 	H 	0.53483 0.40507 0.78177 0.03500
H 	H 	0.57223 0.42507 0.90147 0.04100
H 	H 	0.47073 0.41517 0.91427 0.07600
H 	H 	0.53353 0.49017 0.94007 0.05300
H 	H 	0.47973 0.55837 0.90757 0.04300
H 	H 	0.41233 0.49657 0.86587 0.05000
H 	H 	0.44343 0.59487 0.78767 0.07400
H 	H 	0.42353 0.53317 0.70197 0.05600
Ga	Ga	0.10611 0.34991 0.08198 2.05500
P 	P 	0.18243 0.42029 0.87797 0.56100
P 	P 	0.34086 0.32703 0.72516 0.64200
O 	O 	0.15783 0.36998 0.96140 -0.68700
O 	O 	0.24689 0.42439 0.84240 -0.61800
O 	O 	0.13210 0.39211 0.79200 -0.49200
O 	O 	0.19400 0.48570 0.90710 -0.28100
O 	O 	0.33217 0.37653 0.78780 -0.67600
O 	O 	0.40968 0.36473 0.67820 -0.62800
O 	O 	0.33469 0.27110 0.78590 -0.59800
O 	O 	0.29124 0.30090 0.64070 -0.67800
N 	N 	0.16620 0.44470 0.13020 -0.40700
N 	N 	0.17570 0.33340 0.14730 -0.29700
N 	N 	0.06300 0.25140 0.05590 -0.39000
C 	C 	0.22660 0.44900 0.17170 -0.05300
C 	C 	0.21050 0.38620 0.22070 -0.12400
C 	C 	0.14270 0.26650 0.18190 -0.08900
C 	C 	0.10420 0.22510 0.09480 -0.09200
H 	H 	0.14590 0.45020 0.17830 0.13300
H 	H 	0.17420 0.47890 0.07720 0.10100
H 	H 	0.20410 0.33530 0.09240 0.07200
H 	H 	0.05720 0.23990 0.98930 0.10400
H 	H 	0.01750 0.21790 0.08560 0.11400
H 	H 	0.26160 0.46310 0.11510 0.03700
H 	H 	0.24160 0.48050 0.23480 0.04400
H 	H 	0.25150 0.38890 0.24760 0.07900
H 	H 	0.17650 0.37670 0.27340 0.05800
H 	H 	0.10830 0.25470 0.24090 0.04700
H 	H 	0.17010 0.24910 0.19920 0.05300
H 	H 	0.07180 0.18190 0.12100 0.07700
H 	H 	0.13350 0.22370 0.03530 0.06100
Ga	Ga	0.77278 0.68324 0.41531 2.05400
P 	P 	0.84910 0.75362 0.21130 0.56000
P 	P 	0.00753 0.66036 0.05849 0.65700
O 	O 	0.82450 0.70331 0.29473 -0.68000
O 	O 	0.91356 0.75772 0.17573 -0.61500
O 	O 	0.79877 0.72544 0.12533 -0.48900
O 	O 	0.86067 0.81903 0.24043 -0.27600
O 	O 	0.99884 0.70986 0.12113 -0.67800
O 	O 	0.07635 0.69806 0.01153 -0.62400
O 	O 	0.00136 0.60443 0.11923 -0.59600
O 	O 	0.95791 0.63423 0.97403 -0.69400
N 	N 	0.83287 0.77803 0.46353 -0.40800
N 	N 	0.84237 0.66673 0.48063 -0.29700
N 	N 	0.72967 0.58473 0.38923 -0.39900
C 	C 	0.89327 0.78233 0.50503 -0.05300
C 	C 	0.87717 0.71953 0.55403 -0.12400
C 	C 	0.80937 0.59983 0.51523 -0.09100
C 	C 	0.77087 0.55843 0.42813 -0.09000
H 	H 	0.81257 0.78353 0.51163 0.13300
H 	H 	0.84087 0.81223 0.41053 0.09800
H 	H 	0.87077 0.66863 0.42573 0.07000
H 	H 	0.72387 0.57323 0.32263 0.11400
H 	H 	0.68417 0.55123 0.41893 0.11100
H 	H 	0.92827 0.79643 0.44843 0.03400
H 	H 	0.90827 0.81383 0.56813 0.04200
H 	H 	0.91817 0.72223 0.58093 0.07700
H 	H 	0.84317 0.71003 0.60673 0.05800
H 	H 	0.77497 0.58803 0.57423 0.04700
H 	H 	0.83677 0.58243 0.53253 0.05300
H 	H 	0.73847 0.51523 0.45433 0.07400
H 	H 	0.80017 0.55703 0.36863 0.05600
Ga	Ga	0.43944 0.01658 0.74865 2.05300
P 	P 	0.51576 0.08696 0.54464 0.56100
P 	P 	0.67419 0.99370 0.39183 0.64900
O 	O 	0.49116 0.03665 0.62807 -0.68200
O 	O 	0.58022 0.09106 0.50907 -0.61700
O 	O 	0.46543 0.05878 0.45867 -0.49500
O 	O 	0.52733 0.15237 0.57377 -0.27700
O 	O 	0.66550 0.04320 0.45447 -0.67900
O 	O 	0.74301 0.03140 0.34487 -0.63200
O 	O 	0.66802 0.93777 0.45257 -0.59800
O 	O 	0.62457 0.96757 0.30737 -0.67800
N 	N 	0.49953 0.11137 0.79687 -0.40800
N 	N 	0.50903 0.00007 0.81397 -0.30200
N 	N 	0.39633 0.91807 0.72257 -0.39700
C 	C 	0.55993 0.11567 0.83837 -0.05400
C 	C 	0.54383 0.05287 0.88737 -0.12200
C 	C 	0.47603 0.93317 0.84857 -0.08000
C 	C 	0.43753 0.89177 0.76147 -0.09300
H 	H 	0.47923 0.11687 0.84497 0.13200
H 	H 	0.50753 0.14557 0.74387 0.09800
H 	H 	0.53743 0.00197 0.75907 0.06900
H 	H 	0.39053 0.90657 0.65597 0.11400
H 	H 	0.35083 0.88457 0.75227 0.11100
H 	H 	0.59493 0.12977 0.78177 0.03500
H 	H 	0.57493 0.14717 0.90147 0.04100
H 	H 	0.58483 0.05557 0.91427 0.07400
H 	H 	0.50983 0.04337 0.94007 0.05100
H 	H 	0.44163 0.92137 0.90757 0.04300
H 	H 	0.50343 0.91577 0.86587 0.04900
H 	H 	0.40513 0.84857 0.78767 0.07400
H 	H 	0.46683 0.89037 0.70197 0.05700
