data_crystal

_cell_length_a 23.71600
_cell_length_b 23.71600
_cell_length_c 13.44700
_cell_angle_alpha 90.00000
_cell_angle_beta  90.00000
_cell_angle_gamma 120.00000

_symmetry_space_group_name_	'P 1'
_symmetry_space_group_name_H-M	'P 1'

loop_
_symmetry_equiv_pos_as_xyz
  x,y,z

loop_
_atom_site_label
_atom_site_type_symbol
_atom_site_fract_x
_atom_site_fract_y
_atom_site_fract_z
_atom_site_charge
Ga	Ga	0.36008 0.09296 0.12055 2.07100
Cr	Cr	0.35001 0.24270 0.91476 1.54300
P 	P 	0.41877 0.23605 0.11916 0.56000
P 	P 	0.32672 0.98706 0.27788 0.66100
O 	O 	0.36699 0.21028 0.03710 -0.60100
O 	O 	0.42178 0.17516 0.15640 -0.62800
O 	O 	0.39110 0.25907 0.20610 -0.65200
O 	O 	0.48401 0.28900 0.09020 -0.27600
O 	O 	0.37497 0.04450 0.21220 -0.68600
O 	O 	0.36726 0.95901 0.32610 -0.64100
O 	O 	0.27166 0.93510 0.21840 -0.59900
O 	O 	0.30031 0.01093 0.36090 -0.68000
N 	N 	0.44440 0.27530 0.86920 -0.35100
N 	N 	0.33250 0.15710 0.85090 -0.26200
N 	N 	0.25130 0.18880 0.94050 -0.35700
C 	C 	0.44710 0.21800 0.82990 -0.08200
C 	C 	0.38470 0.17190 0.78060 -0.09300
C 	C 	0.26500 0.12240 0.81660 -0.07000
C 	C 	0.22410 0.12130 0.90260 -0.14100
H 	H 	0.47700 0.29570 0.92520 0.10400
H 	H 	0.45710 0.30320 0.82110 0.13600
H 	H 	0.33030 0.12360 0.89680 0.09600
H 	H 	0.22870 0.20080 0.91180 0.17100
H 	H 	0.24700 0.19360 0.01770 0.05900
H 	H 	0.44900 0.19150 0.88920 0.04300
H 	H 	0.48720 0.23640 0.79950 0.05600
H 	H 	0.38190 0.13070 0.75190 0.06900
H 	H 	0.38360 0.19690 0.72520 0.05600
H 	H 	0.25360 0.07830 0.80660 0.04700
H 	H 	0.26140 0.14760 0.75960 0.04900
H 	H 	0.18020 0.10550 0.87800 0.09300
H 	H 	0.22980 0.10120 0.95400 0.09700
Ga	Ga	0.24270 0.89269 0.08524 2.05400
Ga	Ga	0.02675 0.42629 0.45388 2.07200
Cr	Cr	0.01668 0.57603 0.24809 1.54100
P 	P 	0.08544 0.56938 0.45249 0.55900
P 	P 	0.99339 0.32039 0.61121 0.64500
O 	O 	0.03366 0.54361 0.37043 -0.59400
O 	O 	0.08845 0.50849 0.48973 -0.62500
O 	O 	0.05777 0.59240 0.53943 -0.64900
O 	O 	0.15068 0.62233 0.42353 -0.27200
O 	O 	0.04164 0.37783 0.54553 -0.67700
O 	O 	0.03393 0.29234 0.65943 -0.63700
O 	O 	0.93833 0.26843 0.55173 -0.59800
O 	O 	0.96698 0.34426 0.69423 -0.67700
N 	N 	0.11107 0.60863 0.20253 -0.35100
N 	N 	0.99917 0.49043 0.18423 -0.26400
N 	N 	0.91797 0.52213 0.27383 -0.36400
C 	C 	0.11377 0.55133 0.16323 -0.08500
C 	C 	0.05137 0.50523 0.11393 -0.08700
C 	C 	0.93167 0.45573 0.14993 -0.07100
C 	C 	0.89077 0.45463 0.23593 -0.13800
H 	H 	0.14367 0.62903 0.25853 0.10200
H 	H 	0.12377 0.63653 0.15443 0.13500
H 	H 	0.99697 0.45693 0.23013 0.09500
H 	H 	0.89537 0.53413 0.24513 0.17000
H 	H 	0.91367 0.52693 0.35103 0.06500
H 	H 	0.11567 0.52483 0.22253 0.04300
H 	H 	0.15387 0.56973 0.13283 0.05500
H 	H 	0.04857 0.46403 0.08523 0.06700
H 	H 	0.05027 0.53023 0.05853 0.05200
H 	H 	0.92027 0.41163 0.13993 0.04800
H 	H 	0.92807 0.48093 0.09293 0.04600
H 	H 	0.84687 0.43883 0.21133 0.09100
H 	H 	0.89647 0.43453 0.28733 0.09300
Ga	Ga	0.90937 0.22602 0.41857 2.05500
Ga	Ga	0.69341 0.75963 0.78722 2.07100
Cr	Cr	0.68334 0.90937 0.58143 1.54000
P 	P 	0.75210 0.90272 0.78583 0.55900
P 	P 	0.66005 0.65373 0.94455 0.66000
O 	O 	0.70032 0.87695 0.70377 -0.59600
O 	O 	0.75511 0.84183 0.82307 -0.62500
O 	O 	0.72443 0.92574 0.87277 -0.64600
O 	O 	0.81734 0.95567 0.75687 -0.26900
O 	O 	0.70830 0.71117 0.87887 -0.68200
O 	O 	0.70059 0.62568 0.99277 -0.63800
O 	O 	0.60499 0.60177 0.88507 -0.59700
O 	O 	0.63364 0.67760 0.02757 -0.68400
N 	N 	0.77773 0.94197 0.53587 -0.35200
N 	N 	0.66583 0.82377 0.51757 -0.26100
N 	N 	0.58463 0.85547 0.60717 -0.36300
C 	C 	0.78043 0.88467 0.49657 -0.08100
C 	C 	0.71803 0.83857 0.44727 -0.09300
C 	C 	0.59833 0.78907 0.48327 -0.07300
C 	C 	0.55743 0.78797 0.56927 -0.13600
H 	H 	0.81033 0.96237 0.59187 0.10300
H 	H 	0.79043 0.96987 0.48777 0.13800
H 	H 	0.66363 0.79027 0.56347 0.09600
H 	H 	0.56203 0.86747 0.57847 0.17100
H 	H 	0.58033 0.86027 0.68437 0.06500
H 	H 	0.78233 0.85817 0.55587 0.04200
H 	H 	0.82053 0.90307 0.46617 0.05600
H 	H 	0.71523 0.79737 0.41857 0.06900
H 	H 	0.71693 0.86357 0.39187 0.05700
H 	H 	0.58693 0.74497 0.47327 0.05000
H 	H 	0.59473 0.81427 0.42627 0.05000
H 	H 	0.51353 0.77217 0.54467 0.09100
H 	H 	0.56313 0.76787 0.62067 0.09300
Ga	Ga	0.57603 0.55936 0.75191 2.05500
Ga	Ga	0.90704 0.26712 0.12055 2.07000
Cr	Cr	0.75730 0.10731 0.91476 1.54100
P 	P 	0.76395 0.18272 0.11916 0.55900
P 	P 	0.01294 0.33966 0.27788 0.66000
O 	O 	0.78972 0.15671 0.03710 -0.60000
O 	O 	0.82484 0.24662 0.15640 -0.62800
O 	O 	0.74093 0.13203 0.20610 -0.65200
O 	O 	0.71100 0.19501 0.09020 -0.27500
O 	O 	0.95550 0.33047 0.21220 -0.68600
O 	O 	0.04099 0.40825 0.32610 -0.64100
O 	O 	0.06490 0.33656 0.21840 -0.59800
O 	O 	0.98907 0.28938 0.36090 -0.68000
N 	N 	0.72470 0.16910 0.86920 -0.35100
N 	N 	0.84290 0.17540 0.85090 -0.26200
N 	N 	0.81120 0.06250 0.94050 -0.35900
C 	C 	0.78200 0.22910 0.82990 -0.08200
C 	C 	0.82810 0.21280 0.78060 -0.09300
C 	C 	0.87760 0.14260 0.81660 -0.07100
C 	C 	0.87870 0.10280 0.90260 -0.13900
H 	H 	0.70430 0.18130 0.92520 0.10400
H 	H 	0.69680 0.15390 0.82110 0.13600
H 	H 	0.87640 0.20670 0.89680 0.09600
H 	H 	0.79920 0.02790 0.91180 0.16800
H 	H 	0.80640 0.05340 0.01770 0.06100
H 	H 	0.80850 0.25750 0.88920 0.04300
H 	H 	0.76360 0.25080 0.79950 0.05600
H 	H 	0.86930 0.25120 0.75190 0.06900
H 	H 	0.80310 0.18670 0.72520 0.05600
H 	H 	0.92170 0.17530 0.80660 0.04700
H 	H 	0.85240 0.11380 0.75960 0.04800
H 	H 	0.89450 0.07470 0.87800 0.09000
H 	H 	0.89880 0.12860 0.95400 0.09400
Ga	Ga	0.10731 0.35001 0.08524 2.05400
Ga	Ga	0.57371 0.60045 0.45388 2.07100
Cr	Cr	0.42397 0.44064 0.24809 1.54000
P 	P 	0.43062 0.51605 0.45249 0.55900
P 	P 	0.67961 0.67299 0.61121 0.65300
O 	O 	0.45639 0.49004 0.37043 -0.59600
O 	O 	0.49151 0.57995 0.48973 -0.62600
O 	O 	0.40760 0.46536 0.53943 -0.65100
O 	O 	0.37767 0.52834 0.42353 -0.27200
O 	O 	0.62217 0.66380 0.54553 -0.68200
O 	O 	0.70766 0.74158 0.65943 -0.64200
O 	O 	0.73157 0.66989 0.55173 -0.59800
O 	O 	0.65574 0.62271 0.69423 -0.67600
N 	N 	0.39137 0.50243 0.20253 -0.35100
N 	N 	0.50957 0.50873 0.18423 -0.26200
N 	N 	0.47787 0.39583 0.27383 -0.36300
C 	C 	0.44867 0.56243 0.16323 -0.08300
C 	C 	0.49477 0.54613 0.11393 -0.09100
C 	C 	0.54427 0.47593 0.14993 -0.07100
C 	C 	0.54537 0.43613 0.23593 -0.13800
H 	H 	0.37097 0.51463 0.25853 0.10200
H 	H 	0.36347 0.48723 0.15443 0.13500
H 	H 	0.54307 0.54003 0.23013 0.09600
H 	H 	0.46587 0.36123 0.24513 0.17100
H 	H 	0.47307 0.38673 0.35103 0.06500
H 	H 	0.47517 0.59083 0.22253 0.04200
H 	H 	0.43027 0.58413 0.13283 0.05500
H 	H 	0.53597 0.58453 0.08523 0.06700
H 	H 	0.46977 0.52003 0.05853 0.05300
H 	H 	0.58837 0.50863 0.13993 0.04700
H 	H 	0.51907 0.44713 0.09293 0.04600
H 	H 	0.56117 0.40803 0.21133 0.09000
H 	H 	0.56547 0.46193 0.28733 0.09400
Ga	Ga	0.77398 0.68334 0.41857 2.05500
Ga	Ga	0.24037 0.93379 0.78722 2.07100
Cr	Cr	0.09063 0.77398 0.58143 1.54000
P 	P 	0.09728 0.84939 0.78583 0.55900
P 	P 	0.34627 0.00633 0.94455 0.65100
O 	O 	0.12305 0.82338 0.70377 -0.59600
O 	O 	0.15817 0.91329 0.82307 -0.62300
O 	O 	0.07426 0.79870 0.87277 -0.64500
O 	O 	0.04433 0.86168 0.75687 -0.26700
O 	O 	0.28883 0.99714 0.87887 -0.67400
O 	O 	0.37432 0.07492 0.99277 -0.63900
O 	O 	0.39823 0.00323 0.88507 -0.60000
O 	O 	0.32240 0.95605 0.02757 -0.68100
N 	N 	0.05803 0.83577 0.53587 -0.35200
N 	N 	0.17623 0.84207 0.51757 -0.26100
N 	N 	0.14453 0.72917 0.60717 -0.36300
C 	C 	0.11533 0.89577 0.49657 -0.08200
C 	C 	0.16143 0.87947 0.44727 -0.09300
C 	C 	0.21093 0.80927 0.48327 -0.07300
C 	C 	0.21203 0.76947 0.56927 -0.13600
H 	H 	0.03763 0.84797 0.59187 0.10400
H 	H 	0.03013 0.82057 0.48777 0.13800
H 	H 	0.20973 0.87337 0.56347 0.09600
H 	H 	0.13253 0.69457 0.57847 0.17100
H 	H 	0.13973 0.72007 0.68437 0.06500
H 	H 	0.14183 0.92417 0.55587 0.04400
H 	H 	0.09693 0.91747 0.46617 0.05800
H 	H 	0.20263 0.91787 0.41857 0.07100
H 	H 	0.13643 0.85337 0.39187 0.05700
H 	H 	0.25503 0.84197 0.47327 0.05000
H 	H 	0.18573 0.78047 0.42627 0.05000
H 	H 	0.22783 0.74137 0.54467 0.09100
H 	H 	0.23213 0.79527 0.62067 0.09300
Ga	Ga	0.44064 0.01668 0.75191 2.05500
Ga	Ga	0.73288 0.63992 0.12055 2.07000
Cr	Cr	0.89269 0.64999 0.91476 1.54100
P 	P 	0.81728 0.58123 0.11916 0.55900
P 	P 	0.66034 0.67328 0.27788 0.65300
O 	O 	0.84329 0.63301 0.03710 -0.60200
O 	O 	0.75338 0.57822 0.15640 -0.62800
O 	O 	0.86797 0.60890 0.20610 -0.65200
O 	O 	0.80499 0.51599 0.09020 -0.27500
O 	O 	0.66953 0.62503 0.21220 -0.68300
O 	O 	0.59175 0.63274 0.32610 -0.64200
O 	O 	0.66344 0.72834 0.21840 -0.59800
O 	O 	0.71062 0.69969 0.36090 -0.67600
N 	N 	0.83090 0.55560 0.86920 -0.35100
N 	N 	0.82460 0.66750 0.85090 -0.26200
N 	N 	0.93750 0.74870 0.94050 -0.35700
C 	C 	0.77090 0.55290 0.82990 -0.08200
C 	C 	0.78720 0.61530 0.78060 -0.09200
C 	C 	0.85740 0.73500 0.81660 -0.07000
C 	C 	0.89720 0.77590 0.90260 -0.14200
H 	H 	0.81870 0.52300 0.92520 0.10400
H 	H 	0.84610 0.54290 0.82110 0.13600
H 	H 	0.79330 0.66970 0.89680 0.09700
H 	H 	0.97210 0.77130 0.91180 0.16800
H 	H 	0.94660 0.75300 0.01770 0.05800
H 	H 	0.74250 0.55100 0.88920 0.04300
H 	H 	0.74920 0.51280 0.79950 0.05600
H 	H 	0.74880 0.61810 0.75190 0.06900
H 	H 	0.81330 0.61640 0.72520 0.05600
H 	H 	0.82470 0.74640 0.80660 0.04900
H 	H 	0.88620 0.73860 0.75960 0.04800
H 	H 	0.92530 0.81980 0.87800 0.09300
H 	H 	0.87140 0.77020 0.95400 0.09800
Ga	Ga	0.64999 0.75730 0.08524 2.05500
Ga	Ga	0.39955 0.97325 0.45388 2.07200
Cr	Cr	0.55936 0.98332 0.24809 1.54100
P 	P 	0.48395 0.91456 0.45249 0.55900
P 	P 	0.32701 0.00661 0.61121 0.64500
O 	O 	0.50996 0.96634 0.37043 -0.59400
O 	O 	0.42005 0.91155 0.48973 -0.62500
O 	O 	0.53464 0.94223 0.53943 -0.64900
O 	O 	0.47166 0.84932 0.42353 -0.27200
O 	O 	0.33620 0.95836 0.54553 -0.67700
O 	O 	0.25842 0.96607 0.65943 -0.63700
O 	O 	0.33011 0.06167 0.55173 -0.59800
O 	O 	0.37729 0.03302 0.69423 -0.67700
N 	N 	0.49757 0.88893 0.20253 -0.35100
N 	N 	0.49127 0.00083 0.18423 -0.26400
N 	N 	0.60417 0.08203 0.27383 -0.36400
C 	C 	0.43757 0.88623 0.16323 -0.08500
C 	C 	0.45387 0.94863 0.11393 -0.08700
C 	C 	0.52407 0.06833 0.14993 -0.07100
C 	C 	0.56387 0.10923 0.23593 -0.13800
H 	H 	0.48537 0.85633 0.25853 0.10200
H 	H 	0.51277 0.87623 0.15443 0.13500
H 	H 	0.45997 0.00303 0.23013 0.09400
H 	H 	0.63877 0.10463 0.24513 0.17000
H 	H 	0.61327 0.08633 0.35103 0.06500
H 	H 	0.40917 0.88433 0.22253 0.04300
H 	H 	0.41587 0.84613 0.13283 0.05500
H 	H 	0.41547 0.95143 0.08523 0.06600
H 	H 	0.47997 0.94973 0.05853 0.05200
H 	H 	0.49137 0.07973 0.13993 0.04800
H 	H 	0.55287 0.07193 0.09293 0.04700
H 	H 	0.59197 0.15313 0.21133 0.09100
H 	H 	0.53807 0.10353 0.28733 0.09300
Ga	Ga	0.31666 0.09063 0.41857 2.05500
Ga	Ga	0.06621 0.30659 0.78722 2.07100
Cr	Cr	0.22602 0.31666 0.58143 1.54000
P 	P 	0.15061 0.24790 0.78583 0.55900
P 	P 	0.99367 0.33995 0.94455 0.65000
O 	O 	0.17662 0.29968 0.70377 -0.59600
O 	O 	0.08671 0.24489 0.82307 -0.62400
O 	O 	0.20130 0.27557 0.87277 -0.64800
O 	O 	0.13832 0.18266 0.75687 -0.27100
O 	O 	0.00286 0.29170 0.87887 -0.67400
O 	O 	0.92508 0.29941 0.99277 -0.64000
O 	O 	0.99677 0.39501 0.88507 -0.60000
O 	O 	0.04395 0.36636 0.02757 -0.68000
N 	N 	0.16423 0.22227 0.53587 -0.35200
N 	N 	0.15793 0.33417 0.51757 -0.26100
N 	N 	0.27083 0.41537 0.60717 -0.36300
C 	C 	0.10423 0.21957 0.49657 -0.08200
C 	C 	0.12053 0.28197 0.44727 -0.09300
C 	C 	0.19073 0.40167 0.48327 -0.07300
C 	C 	0.23053 0.44257 0.56927 -0.13600
H 	H 	0.15203 0.18967 0.59187 0.10200
H 	H 	0.17943 0.20957 0.48777 0.13600
H 	H 	0.12663 0.33637 0.56347 0.09600
H 	H 	0.30543 0.43797 0.57847 0.17100
H 	H 	0.27993 0.41967 0.68437 0.06500
H 	H 	0.07583 0.21767 0.55587 0.04300
H 	H 	0.08253 0.17947 0.46617 0.05700
H 	H 	0.08213 0.28477 0.41857 0.07100
H 	H 	0.14663 0.28307 0.39187 0.05700
H 	H 	0.15803 0.41307 0.47327 0.05000
H 	H 	0.21953 0.40527 0.42627 0.05000
H 	H 	0.25863 0.48647 0.54467 0.09100
H 	H 	0.20473 0.43687 0.62067 0.09300
Ga	Ga	0.98332 0.42397 0.75191 2.05500
Ga	Ga	0.63992 0.90704 0.87945 2.07300
P 	P 	0.58123 0.76395 0.88084 0.57700
P 	P 	0.67328 0.01294 0.72212 0.60300
O 	O 	0.63301 0.78972 0.96290 -0.69600
O 	O 	0.57822 0.82484 0.84360 -0.62500
O 	O 	0.60890 0.74093 0.79390 -0.65900
O 	O 	0.51599 0.71100 0.90980 -0.27700
O 	O 	0.62503 0.95550 0.78780 -0.65900
O 	O 	0.63274 0.04099 0.67390 -0.63700
O 	O 	0.72834 0.06490 0.78160 -0.49700
O 	O 	0.69969 0.98907 0.63910 -0.55300
N 	N 	0.55560 0.72470 0.13080 -0.41300
N 	N 	0.66750 0.84290 0.14910 -0.31900
N 	N 	0.74870 0.81120 0.05950 -0.43300
C 	C 	0.55290 0.78200 0.17010 -0.09800
C 	C 	0.61530 0.82810 0.21940 -0.10300
C 	C 	0.73500 0.87760 0.18340 -0.09300
C 	C 	0.77590 0.87870 0.09740 -0.14000
H 	H 	0.52300 0.70430 0.07480 0.09800
H 	H 	0.54290 0.69680 0.17890 0.14100
H 	H 	0.66970 0.87640 0.10320 0.09800
H 	H 	0.77130 0.79920 0.08820 0.17800
H 	H 	0.75300 0.80640 0.98230 0.06700
H 	H 	0.55100 0.80850 0.11080 0.04100
H 	H 	0.51280 0.76360 0.20050 0.06300
H 	H 	0.61810 0.86930 0.24810 0.07600
H 	H 	0.61640 0.80310 0.27480 0.05400
H 	H 	0.74640 0.92170 0.19340 0.05800
H 	H 	0.73860 0.85240 0.24040 0.04900
H 	H 	0.81980 0.89450 0.12200 0.09100
H 	H 	0.77020 0.89880 0.04600 0.08800
Ga	Ga	0.30659 0.24037 0.21278 2.07100
P 	P 	0.24790 0.09728 0.21417 0.57700
P 	P 	0.33995 0.34627 0.05545 0.60600
O 	O 	0.29968 0.12305 0.29623 -0.70200
O 	O 	0.24489 0.15817 0.17693 -0.62800
O 	O 	0.27557 0.07426 0.12723 -0.66300
O 	O 	0.18266 0.04433 0.24313 -0.28400
O 	O 	0.29170 0.28883 0.12113 -0.66600
O 	O 	0.29941 0.37432 0.00723 -0.64100
O 	O 	0.39501 0.39823 0.11493 -0.49800
O 	O 	0.36636 0.32240 0.97243 -0.55200
N 	N 	0.22227 0.05803 0.46413 -0.41200
N 	N 	0.33417 0.17623 0.48243 -0.31900
N 	N 	0.41537 0.14453 0.39283 -0.42600
C 	C 	0.21957 0.11533 0.50343 -0.09900
C 	C 	0.28197 0.16143 0.55273 -0.10200
C 	C 	0.40167 0.21093 0.51673 -0.08900
C 	C 	0.44257 0.21203 0.43073 -0.14600
H 	H 	0.18967 0.03763 0.40813 0.10000
H 	H 	0.20957 0.03013 0.51223 0.14000
H 	H 	0.33637 0.20973 0.43653 0.09900
H 	H 	0.43797 0.13253 0.42153 0.17800
H 	H 	0.41967 0.13973 0.31563 0.06000
H 	H 	0.21767 0.14183 0.44413 0.04300
H 	H 	0.17947 0.09693 0.53383 0.06400
H 	H 	0.28477 0.20263 0.58143 0.07500
H 	H 	0.28307 0.13643 0.60813 0.05400
H 	H 	0.41307 0.25503 0.52673 0.05600
H 	H 	0.40527 0.18573 0.57373 0.04800
H 	H 	0.48647 0.22783 0.45533 0.09400
H 	H 	0.43687 0.23213 0.37933 0.09300
Ga	Ga	0.97325 0.57371 0.54612 2.07100
P 	P 	0.91456 0.43062 0.54751 0.57700
P 	P 	0.00661 0.67961 0.38879 0.62000
O 	O 	0.96634 0.45639 0.62957 -0.70500
O 	O 	0.91155 0.49151 0.51027 -0.62800
O 	O 	0.94223 0.40760 0.46057 -0.66100
O 	O 	0.84932 0.37767 0.57647 -0.28200
O 	O 	0.95836 0.62217 0.45447 -0.67000
O 	O 	0.96607 0.70766 0.34057 -0.64000
O 	O 	0.06167 0.73157 0.44827 -0.49700
O 	O 	0.03302 0.65574 0.30577 -0.55900
N 	N 	0.88893 0.39137 0.79747 -0.41300
N 	N 	0.00083 0.50957 0.81577 -0.31300
N 	N 	0.08203 0.47787 0.72617 -0.42500
C 	C 	0.88623 0.44867 0.83677 -0.09500
C 	C 	0.94863 0.49477 0.88607 -0.11200
C 	C 	0.06833 0.54427 0.85007 -0.09200
C 	C 	0.10923 0.54537 0.76407 -0.14300
H 	H 	0.85633 0.37097 0.74147 0.10200
H 	H 	0.87623 0.36347 0.84557 0.14200
H 	H 	0.00303 0.54307 0.76987 0.10200
H 	H 	0.10463 0.46587 0.75487 0.17900
H 	H 	0.08633 0.47307 0.64897 0.06100
H 	H 	0.88433 0.47517 0.77747 0.04200
H 	H 	0.84613 0.43027 0.86717 0.06300
H 	H 	0.95143 0.53597 0.91477 0.07800
H 	H 	0.94973 0.46977 0.94147 0.05800
H 	H 	0.07973 0.58837 0.86007 0.06000
H 	H 	0.07193 0.51907 0.90707 0.05400
H 	H 	0.15313 0.56117 0.78867 0.09400
H 	H 	0.10353 0.56547 0.71267 0.09300
Ga	Ga	0.09296 0.73288 0.87945 2.07300
P 	P 	0.23605 0.81728 0.88084 0.57700
P 	P 	0.98706 0.66034 0.72212 0.60300
O 	O 	0.21028 0.84329 0.96290 -0.69400
O 	O 	0.17516 0.75338 0.84360 -0.62500
O 	O 	0.25907 0.86797 0.79390 -0.65800
O 	O 	0.28900 0.80499 0.90980 -0.27700
O 	O 	0.04450 0.66953 0.78780 -0.65900
O 	O 	0.95901 0.59175 0.67390 -0.63700
O 	O 	0.93510 0.66344 0.78160 -0.49700
O 	O 	0.01093 0.71062 0.63910 -0.55300
N 	N 	0.27530 0.83090 0.13080 -0.41300
N 	N 	0.15710 0.82460 0.14910 -0.31900
N 	N 	0.18880 0.93750 0.05950 -0.43600
C 	C 	0.21800 0.77090 0.17010 -0.09800
C 	C 	0.17190 0.78720 0.21940 -0.10300
C 	C 	0.12240 0.85740 0.18340 -0.09400
C 	C 	0.12130 0.89720 0.09740 -0.13900
H 	H 	0.29570 0.81870 0.07480 0.09800
H 	H 	0.30320 0.84610 0.17890 0.14100
H 	H 	0.12360 0.79330 0.10320 0.09800
H 	H 	0.20080 0.97210 0.08820 0.18000
H 	H 	0.19360 0.94660 0.98230 0.07100
H 	H 	0.19150 0.74250 0.11080 0.04100
H 	H 	0.23640 0.74920 0.20050 0.06300
H 	H 	0.13070 0.74880 0.24810 0.07600
H 	H 	0.19690 0.81330 0.27480 0.05400
H 	H 	0.07830 0.82470 0.19340 0.05900
H 	H 	0.14760 0.88620 0.24040 0.05000
H 	H 	0.10550 0.92530 0.12200 0.09200
H 	H 	0.10120 0.87140 0.04600 0.08700
Ga	Ga	0.75963 0.06621 0.21278 2.07100
P 	P 	0.90272 0.15061 0.21417 0.57700
P 	P 	0.65373 0.99367 0.05545 0.61300
O 	O 	0.87695 0.17662 0.29623 -0.70200
O 	O 	0.84183 0.08671 0.17693 -0.62800
O 	O 	0.92574 0.20130 0.12723 -0.66200
O 	O 	0.95567 0.13832 0.24313 -0.28400
O 	O 	0.71117 0.00286 0.12113 -0.66900
O 	O 	0.62568 0.92508 0.00723 -0.64100
O 	O 	0.60177 0.99677 0.11493 -0.49700
O 	O 	0.67760 0.04395 0.97243 -0.55800
N 	N 	0.94197 0.16423 0.46413 -0.41200
N 	N 	0.82377 0.15793 0.48243 -0.31900
N 	N 	0.85547 0.27083 0.39283 -0.42600
C 	C 	0.88467 0.10423 0.50343 -0.09900
C 	C 	0.83857 0.12053 0.55273 -0.10200
C 	C 	0.78907 0.19073 0.51673 -0.08900
C 	C 	0.78797 0.23053 0.43073 -0.14600
H 	H 	0.96237 0.15203 0.40813 0.10000
H 	H 	0.96987 0.17943 0.51223 0.13900
H 	H 	0.79027 0.12663 0.43653 0.09900
H 	H 	0.86747 0.30543 0.42153 0.17800
H 	H 	0.86027 0.27993 0.31563 0.06000
H 	H 	0.85817 0.07583 0.44413 0.04200
H 	H 	0.90307 0.08253 0.53383 0.06200
H 	H 	0.79737 0.08213 0.58143 0.07400
H 	H 	0.86357 0.14663 0.60813 0.05300
H 	H 	0.74497 0.15803 0.52673 0.05600
H 	H 	0.81427 0.21953 0.57373 0.04800
H 	H 	0.77217 0.25863 0.45533 0.09400
H 	H 	0.76787 0.20473 0.37933 0.09300
Ga	Ga	0.42629 0.39955 0.54612 2.07100
P 	P 	0.56938 0.48395 0.54751 0.57700
P 	P 	0.32039 0.32701 0.38879 0.61300
O 	O 	0.54361 0.50996 0.62957 -0.70200
O 	O 	0.50849 0.42005 0.51027 -0.62700
O 	O 	0.59240 0.53464 0.46057 -0.65900
O 	O 	0.62233 0.47166 0.57647 -0.28200
O 	O 	0.37783 0.33620 0.45447 -0.66600
O 	O 	0.29234 0.25842 0.34057 -0.63500
O 	O 	0.26843 0.33011 0.44827 -0.49700
O 	O 	0.34426 0.37729 0.30577 -0.56000
N 	N 	0.60863 0.49757 0.79747 -0.41300
N 	N 	0.49043 0.49127 0.81577 -0.31800
N 	N 	0.52213 0.60417 0.72617 -0.42600
C 	C 	0.55133 0.43757 0.83677 -0.09800
C 	C 	0.50523 0.45387 0.88607 -0.10400
C 	C 	0.45573 0.52407 0.85007 -0.09100
C 	C 	0.45463 0.56387 0.76407 -0.14400
H 	H 	0.62903 0.48537 0.74147 0.10200
H 	H 	0.63653 0.51277 0.84557 0.14200
H 	H 	0.45693 0.45997 0.76987 0.09900
H 	H 	0.53413 0.63877 0.75487 0.17900
H 	H 	0.52693 0.61327 0.64897 0.06000
H 	H 	0.52483 0.40917 0.77747 0.04300
H 	H 	0.56973 0.41587 0.86717 0.06500
H 	H 	0.46403 0.41547 0.91477 0.07800
H 	H 	0.53023 0.47997 0.94147 0.05700
H 	H 	0.41163 0.49137 0.86007 0.05900
H 	H 	0.48093 0.55287 0.90707 0.05100
H 	H 	0.43883 0.59197 0.78867 0.09500
H 	H 	0.43453 0.53807 0.71267 0.09300
Ga	Ga	0.26712 0.36008 0.87945 2.07200
P 	P 	0.18272 0.41877 0.88084 0.57700
P 	P 	0.33966 0.32672 0.72212 0.61300
O 	O 	0.15671 0.36699 0.96290 -0.69600
O 	O 	0.24662 0.42178 0.84360 -0.62500
O 	O 	0.13203 0.39110 0.79390 -0.65800
O 	O 	0.19501 0.48401 0.90980 -0.27700
O 	O 	0.33047 0.37497 0.78780 -0.66500
O 	O 	0.40825 0.36726 0.67390 -0.63500
O 	O 	0.33656 0.27166 0.78160 -0.49700
O 	O 	0.28938 0.30031 0.63910 -0.56000
N 	N 	0.16910 0.44440 0.13080 -0.41300
N 	N 	0.17540 0.33250 0.14910 -0.31900
N 	N 	0.06250 0.25130 0.05950 -0.43400
C 	C 	0.22910 0.44710 0.17010 -0.09800
C 	C 	0.21280 0.38470 0.21940 -0.10300
C 	C 	0.14260 0.26500 0.18340 -0.09300
C 	C 	0.10280 0.22410 0.09740 -0.14000
H 	H 	0.18130 0.47700 0.07480 0.09800
H 	H 	0.15390 0.45710 0.17890 0.14100
H 	H 	0.20670 0.33030 0.10320 0.09800
H 	H 	0.02790 0.22870 0.08820 0.18000
H 	H 	0.05340 0.24700 0.98230 0.06800
H 	H 	0.25750 0.44900 0.11080 0.04100
H 	H 	0.25080 0.48720 0.20050 0.06300
H 	H 	0.25120 0.38190 0.24810 0.07600
H 	H 	0.18670 0.38360 0.27480 0.05400
H 	H 	0.17530 0.25360 0.19340 0.05700
H 	H 	0.11380 0.26140 0.24040 0.04900
H 	H 	0.07470 0.18020 0.12200 0.09100
H 	H 	0.12860 0.22980 0.04600 0.08800
Ga	Ga	0.93379 0.69341 0.21278 2.07100
P 	P 	0.84939 0.75210 0.21417 0.57700
P 	P 	0.00633 0.66005 0.05545 0.61200
O 	O 	0.82338 0.70032 0.29623 -0.70200
O 	O 	0.91329 0.75511 0.17693 -0.62800
O 	O 	0.79870 0.72443 0.12723 -0.66200
O 	O 	0.86168 0.81734 0.24313 -0.28300
O 	O 	0.99714 0.70830 0.12113 -0.67000
O 	O 	0.07492 0.70059 0.00723 -0.64200
O 	O 	0.00323 0.60499 0.11493 -0.49700
O 	O 	0.95605 0.63364 0.97243 -0.55700
N 	N 	0.83577 0.77773 0.46413 -0.41200
N 	N 	0.84207 0.66583 0.48243 -0.31900
N 	N 	0.72917 0.58463 0.39283 -0.42600
C 	C 	0.89577 0.78043 0.50343 -0.09900
C 	C 	0.87947 0.71803 0.55273 -0.10200
C 	C 	0.80927 0.59833 0.51673 -0.08900
C 	C 	0.76947 0.55743 0.43073 -0.14600
H 	H 	0.84797 0.81033 0.40813 0.10100
H 	H 	0.82057 0.79043 0.51223 0.14200
H 	H 	0.87337 0.66363 0.43653 0.09900
H 	H 	0.69457 0.56203 0.42153 0.17800
H 	H 	0.72007 0.58033 0.31563 0.06000
H 	H 	0.92417 0.78233 0.44413 0.04200
H 	H 	0.91747 0.82053 0.53383 0.06300
H 	H 	0.91787 0.71523 0.58143 0.07400
H 	H 	0.85337 0.71693 0.60813 0.05400
H 	H 	0.84197 0.58693 0.52673 0.05600
H 	H 	0.78047 0.59473 0.57373 0.04800
H 	H 	0.74137 0.51353 0.45533 0.09400
H 	H 	0.79527 0.56313 0.37933 0.09300
Ga	Ga	0.60045 0.02675 0.54612 2.07100
P 	P 	0.51605 0.08544 0.54751 0.57700
P 	P 	0.67299 0.99339 0.38879 0.62000
O 	O 	0.49004 0.03366 0.62957 -0.70500
O 	O 	0.57995 0.08845 0.51027 -0.62800
O 	O 	0.46536 0.05777 0.46057 -0.66100
O 	O 	0.52834 0.15068 0.57647 -0.28200
O 	O 	0.66380 0.04164 0.45447 -0.67000
O 	O 	0.74158 0.03393 0.34057 -0.63900
O 	O 	0.66989 0.93833 0.44827 -0.49700
O 	O 	0.62271 0.96698 0.30577 -0.56000
N 	N 	0.50243 0.11107 0.79747 -0.41300
N 	N 	0.50873 0.99917 0.81577 -0.31300
N 	N 	0.39583 0.91797 0.72617 -0.42500
C 	C 	0.56243 0.11377 0.83677 -0.09500
C 	C 	0.54613 0.05137 0.88607 -0.11200
C 	C 	0.47593 0.93167 0.85007 -0.09200
C 	C 	0.43613 0.89077 0.76407 -0.14300
H 	H 	0.51463 0.14367 0.74147 0.10200
H 	H 	0.48723 0.12377 0.84557 0.14200
H 	H 	0.54003 0.99697 0.76987 0.10200
H 	H 	0.36123 0.89537 0.75487 0.17900
H 	H 	0.38673 0.91367 0.64897 0.06100
H 	H 	0.59083 0.11567 0.77747 0.04200
H 	H 	0.58413 0.15387 0.86717 0.06300
H 	H 	0.58453 0.04857 0.91477 0.07800
H 	H 	0.52003 0.05027 0.94147 0.05800
H 	H 	0.50863 0.92027 0.86007 0.06000
H 	H 	0.44713 0.92807 0.90707 0.05400
H 	H 	0.40803 0.84687 0.78867 0.09400
H 	H 	0.46193 0.89647 0.71267 0.09300
