data_crystal

_cell_length_a 23.68990
_cell_length_b 23.68990
_cell_length_c 13.54830
_cell_angle_alpha 90.00000
_cell_angle_beta  90.00000
_cell_angle_gamma 120.00000

_symmetry_space_group_name_	'P 1'
_symmetry_space_group_name_H-M	'P 1'

loop_
_symmetry_equiv_pos_as_xyz
  x,y,z

loop_
_atom_site_label
_atom_site_type_symbol
_atom_site_fract_x
_atom_site_fract_y
_atom_site_fract_z
_atom_site_charge
Zn	Zn	0.36175 0.09274 0.11931 1.25100
Ga	Ga	0.35015 0.24382 0.91702 2.05100
P 	P 	0.41939 0.23676 0.12217 0.56200
P 	P 	0.32662 0.98613 0.27617 0.61700
O 	O 	0.37022 0.21217 0.03760 -0.65900
O 	O 	0.42363 0.17677 0.15810 -0.44900
O 	O 	0.39135 0.25975 0.20750 -0.64600
O 	O 	0.48577 0.29114 0.09430 -0.26500
O 	O 	0.37621 0.04409 0.21320 -0.50600
O 	O 	0.36457 0.95540 0.32340 -0.46700
O 	O 	0.27095 0.93589 0.21550 -0.58400
O 	O 	0.29983 0.00955 0.35940 -0.65100
N 	N 	0.44470 0.27740 0.86790 -0.45200
N 	N 	0.33340 0.15750 0.85270 -0.32300
N 	N 	0.25160 0.18880 0.94410 -0.46300
C 	C 	0.44820 0.22130 0.82860 -0.16600
C 	C 	0.38560 0.17450 0.77930 -0.06400
C 	C 	0.26560 0.12300 0.81850 -0.07900
C 	C 	0.22510 0.12140 0.90610 -0.05100
H 	H 	0.46690 0.29130 0.92200 0.13700
H 	H 	0.44970 0.30280 0.82250 0.16000
H 	H 	0.33820 0.13070 0.90010 0.10500
H 	H 	0.23670 0.20830 0.91340 0.15100
H 	H 	0.24500 0.19190 0.01110 0.11700
H 	H 	0.45590 0.19520 0.88390 0.05800
H 	H 	0.47440 0.22660 0.78830 0.10500
H 	H 	0.38490 0.13210 0.74440 0.05700
H 	H 	0.37400 0.19460 0.72580 0.04200
H 	H 	0.23430 0.07160 0.80110 0.05000
H 	H 	0.26950 0.15320 0.75730 0.04100
H 	H 	0.18030 0.10190 0.86630 0.06000
H 	H 	0.22730 0.09400 0.96820 0.04800
Ga	Ga	0.30492 0.24059 0.21402 2.06200
Zn	Zn	0.02842 0.42607 0.45264 1.25100
Ga	Ga	0.01682 0.57715 0.25035 2.05200
P 	P 	0.08606 0.57009 0.45550 0.56100
P 	P 	0.99329 0.31946 0.60950 0.59900
O 	O 	0.03689 0.54550 0.37093 -0.66700
O 	O 	0.09030 0.51010 0.49143 -0.45100
O 	O 	0.05802 0.59308 0.54083 -0.64300
O 	O 	0.15244 0.62447 0.42763 -0.27100
O 	O 	0.04288 0.37742 0.54653 -0.49700
O 	O 	0.03124 0.28873 0.65673 -0.46100
O 	O 	0.93762 0.26922 0.54883 -0.58400
O 	O 	0.96650 0.34288 0.69273 -0.64600
N 	N 	0.11137 0.61073 0.20123 -0.45300
N 	N 	0.00007 0.49083 0.18603 -0.32000
N 	N 	0.91827 0.52213 0.27743 -0.45100
C 	C 	0.11487 0.55463 0.16193 -0.16400
C 	C 	0.05227 0.50783 0.11263 -0.06600
C 	C 	0.93227 0.45633 0.15183 -0.08200
C 	C 	0.89177 0.45473 0.23943 -0.05200
H 	H 	0.13357 0.62463 0.25533 0.14200
H 	H 	0.11637 0.63613 0.15583 0.16100
H 	H 	0.00487 0.46403 0.23343 0.10900
H 	H 	0.90337 0.54163 0.24673 0.15100
H 	H 	0.91167 0.52523 0.34443 0.10300
H 	H 	0.12257 0.52853 0.21723 0.06000
H 	H 	0.14107 0.55993 0.12163 0.10700
H 	H 	0.05157 0.46543 0.07773 0.06200
H 	H 	0.04067 0.52793 0.05913 0.04900
H 	H 	0.90097 0.40493 0.13443 0.05600
H 	H 	0.93617 0.48653 0.09063 0.04600
H 	H 	0.84697 0.43523 0.19963 0.06400
H 	H 	0.89397 0.42733 0.30153 0.05500
Ga	Ga	0.97158 0.57393 0.54736 2.06100
Zn	Zn	0.69508 0.75941 0.78598 1.25000
Ga	Ga	0.68348 0.91049 0.58369 2.05200
P 	P 	0.75272 0.90343 0.78884 0.56100
P 	P 	0.65995 0.65280 0.94284 0.59900
O 	O 	0.70355 0.87884 0.70427 -0.66900
O 	O 	0.75696 0.84344 0.82477 -0.45300
O 	O 	0.72468 0.92642 0.87417 -0.64800
O 	O 	0.81910 0.95781 0.76097 -0.27000
O 	O 	0.70954 0.71076 0.87987 -0.50300
O 	O 	0.69790 0.62207 0.99007 -0.47500
O 	O 	0.60428 0.60256 0.88217 -0.58500
O 	O 	0.63316 0.67622 0.02607 -0.63300
N 	N 	0.77803 0.94407 0.53457 -0.45400
N 	N 	0.66673 0.82417 0.51937 -0.32300
N 	N 	0.58493 0.85547 0.61077 -0.45000
C 	C 	0.78153 0.88797 0.49527 -0.16400
C 	C 	0.71893 0.84117 0.44597 -0.06400
C 	C 	0.59893 0.78967 0.48517 -0.07700
C 	C 	0.55843 0.78807 0.57277 -0.05300
H 	H 	0.80023 0.95797 0.58867 0.14400
H 	H 	0.78303 0.96947 0.48917 0.16300
H 	H 	0.67153 0.79737 0.56677 0.10800
H 	H 	0.57003 0.87497 0.58007 0.15100
H 	H 	0.57833 0.85857 0.67777 0.10400
H 	H 	0.78923 0.86187 0.55057 0.06000
H 	H 	0.80773 0.89327 0.45497 0.10500
H 	H 	0.71823 0.79877 0.41107 0.05700
H 	H 	0.70733 0.86127 0.39247 0.04300
H 	H 	0.56763 0.73827 0.46777 0.05200
H 	H 	0.60283 0.81987 0.42397 0.04100
H 	H 	0.51363 0.76857 0.53297 0.06300
H 	H 	0.56063 0.76067 0.63487 0.05500
Ga	Ga	0.63825 0.90726 0.88069 2.06100
Zn	Zn	0.90726 0.26901 0.11931 1.25300
Ga	Ga	0.75618 0.10633 0.91702 2.05000
P 	P 	0.76324 0.18263 0.12217 0.56100
P 	P 	0.01387 0.34049 0.27617 0.61700
O 	O 	0.78783 0.15805 0.03760 -0.65800
O 	O 	0.82323 0.24686 0.15810 -0.44900
O 	O 	0.74025 0.13160 0.20750 -0.64600
O 	O 	0.70886 0.19463 0.09430 -0.26500
O 	O 	0.95591 0.33212 0.21320 -0.50600
O 	O 	0.04460 0.40917 0.32340 -0.46700
O 	O 	0.06411 0.33506 0.21550 -0.58400
O 	O 	0.99045 0.29028 0.35940 -0.65100
N 	N 	0.72260 0.16730 0.86790 -0.45200
N 	N 	0.84250 0.17590 0.85270 -0.32300
N 	N 	0.81120 0.06280 0.94410 -0.46500
C 	C 	0.77870 0.22690 0.82860 -0.16700
C 	C 	0.82550 0.21110 0.77930 -0.06400
C 	C 	0.87700 0.14260 0.81850 -0.07900
C 	C 	0.87860 0.10370 0.90610 -0.05100
H 	H 	0.70870 0.17560 0.92200 0.13600
H 	H 	0.69720 0.14690 0.82250 0.16000
H 	H 	0.86930 0.20750 0.90010 0.10400
H 	H 	0.79170 0.02840 0.91340 0.14800
H 	H 	0.80810 0.05310 0.01110 0.11900
H 	H 	0.80480 0.26070 0.88390 0.05800
H 	H 	0.77340 0.24780 0.78830 0.10500
H 	H 	0.86790 0.25280 0.74440 0.05700
H 	H 	0.80540 0.17940 0.72580 0.04200
H 	H 	0.92840 0.16270 0.80110 0.04900
H 	H 	0.84680 0.11630 0.75730 0.04100
H 	H 	0.89810 0.07840 0.86630 0.05700
H 	H 	0.90600 0.13330 0.96820 0.04600
Ga	Ga	0.75941 0.06432 0.21402 2.06200
Zn	Zn	0.57393 0.60234 0.45264 1.25000
Ga	Ga	0.42285 0.43966 0.25035 2.05200
P 	P 	0.42991 0.51596 0.45550 0.56100
P 	P 	0.68054 0.67382 0.60950 0.60900
O 	O 	0.45450 0.49138 0.37093 -0.66900
O 	O 	0.48990 0.58019 0.49143 -0.45200
O 	O 	0.40692 0.46493 0.54083 -0.64600
O 	O 	0.37553 0.52796 0.42763 -0.27100
O 	O 	0.62258 0.66545 0.54653 -0.50300
O 	O 	0.71127 0.74250 0.65673 -0.46700
O 	O 	0.73078 0.66839 0.54883 -0.58500
O 	O 	0.65712 0.62361 0.69273 -0.64500
N 	N 	0.38927 0.50063 0.20123 -0.45300
N 	N 	0.50917 0.50923 0.18603 -0.32200
N 	N 	0.47787 0.39613 0.27743 -0.45000
C 	C 	0.44537 0.56023 0.16193 -0.16500
C 	C 	0.49217 0.54443 0.11263 -0.06500
C 	C 	0.54367 0.47593 0.15183 -0.07800
C 	C 	0.54527 0.43703 0.23943 -0.05200
H 	H 	0.37537 0.50893 0.25533 0.14200
H 	H 	0.36387 0.48023 0.15583 0.16200
H 	H 	0.53597 0.54083 0.23343 0.10800
H 	H 	0.45837 0.36173 0.24673 0.15100
H 	H 	0.47477 0.38643 0.34443 0.10400
H 	H 	0.47147 0.59403 0.21723 0.06100
H 	H 	0.44007 0.58113 0.12163 0.10700
H 	H 	0.53457 0.58613 0.07773 0.06100
H 	H 	0.47207 0.51273 0.05913 0.04700
H 	H 	0.59507 0.49603 0.13443 0.05500
H 	H 	0.51347 0.44963 0.09063 0.04600
H 	H 	0.56477 0.41173 0.19963 0.06400
H 	H 	0.57267 0.46663 0.30153 0.05600
Ga	Ga	0.42607 0.39766 0.54736 2.06200
Zn	Zn	0.24059 0.93568 0.78598 1.25000
Ga	Ga	0.08951 0.77300 0.58369 2.05200
P 	P 	0.09657 0.84930 0.78884 0.56100
P 	P 	0.34720 0.00716 0.94284 0.58700
O 	O 	0.12116 0.82472 0.70427 -0.66800
O 	O 	0.15656 0.91353 0.82477 -0.45100
O 	O 	0.07358 0.79827 0.87417 -0.64700
O 	O 	0.04219 0.86130 0.76097 -0.26700
O 	O 	0.28924 0.99879 0.87987 -0.49400
O 	O 	0.37793 0.07584 0.99007 -0.47500
O 	O 	0.39744 0.00173 0.88217 -0.58800
O 	O 	0.32378 0.95695 0.02607 -0.63000
N 	N 	0.05593 0.83397 0.53457 -0.45400
N 	N 	0.17583 0.84257 0.51937 -0.32300
N 	N 	0.14453 0.72947 0.61077 -0.45000
C 	C 	0.11203 0.89357 0.49527 -0.16800
C 	C 	0.15883 0.87777 0.44597 -0.06200
C 	C 	0.21033 0.80927 0.48517 -0.07700
C 	C 	0.21193 0.77037 0.57277 -0.05300
H 	H 	0.04203 0.84227 0.58867 0.14400
H 	H 	0.03053 0.81357 0.48917 0.16300
H 	H 	0.20263 0.87417 0.56677 0.10800
H 	H 	0.12503 0.69507 0.58007 0.15100
H 	H 	0.14143 0.71977 0.67777 0.10400
H 	H 	0.13813 0.92737 0.55057 0.06300
H 	H 	0.10673 0.91447 0.45497 0.10900
H 	H 	0.20123 0.91947 0.41107 0.05800
H 	H 	0.13873 0.84607 0.39247 0.04200
H 	H 	0.26173 0.82937 0.46777 0.05200
H 	H 	0.18013 0.78297 0.42397 0.04100
H 	H 	0.23143 0.74507 0.53297 0.06300
H 	H 	0.23933 0.79997 0.63487 0.05500
Ga	Ga	0.09274 0.73099 0.88069 2.06100
Zn	Zn	0.73099 0.63825 0.11931 1.25200
Ga	Ga	0.89367 0.64985 0.91702 2.05000
P 	P 	0.81737 0.58061 0.12217 0.56200
P 	P 	0.65951 0.67338 0.27617 0.60900
O 	O 	0.84195 0.62978 0.03760 -0.65900
O 	O 	0.75314 0.57637 0.15810 -0.44900
O 	O 	0.86840 0.60865 0.20750 -0.64600
O 	O 	0.80537 0.51423 0.09430 -0.26500
O 	O 	0.66788 0.62379 0.21320 -0.50200
O 	O 	0.59083 0.63543 0.32340 -0.46700
O 	O 	0.66494 0.72905 0.21550 -0.58400
O 	O 	0.70972 0.70017 0.35940 -0.64600
N 	N 	0.83270 0.55530 0.86790 -0.45200
N 	N 	0.82410 0.66660 0.85270 -0.32300
N 	N 	0.93720 0.74840 0.94410 -0.46200
C 	C 	0.77310 0.55180 0.82860 -0.16700
C 	C 	0.78890 0.61440 0.77930 -0.06300
C 	C 	0.85740 0.73440 0.81850 -0.07800
C 	C 	0.89630 0.77490 0.90610 -0.05200
H 	H 	0.82440 0.53310 0.92200 0.13700
H 	H 	0.85310 0.55030 0.82250 0.16000
H 	H 	0.79250 0.66180 0.90010 0.10500
H 	H 	0.97160 0.76330 0.91340 0.14800
H 	H 	0.94690 0.75500 0.01110 0.11600
H 	H 	0.73930 0.54410 0.88390 0.05800
H 	H 	0.75220 0.52560 0.78830 0.10500
H 	H 	0.74720 0.61510 0.74440 0.05700
H 	H 	0.82060 0.62600 0.72580 0.04200
H 	H 	0.83730 0.76570 0.80110 0.05200
H 	H 	0.88370 0.73050 0.75730 0.04100
H 	H 	0.92160 0.81970 0.86630 0.05900
H 	H 	0.86670 0.77270 0.96820 0.04900
Ga	Ga	0.93568 0.69508 0.21402 2.06200
Zn	Zn	0.39766 0.97158 0.45264 1.25100
Ga	Ga	0.56034 0.98318 0.25035 2.05200
P 	P 	0.48404 0.91394 0.45550 0.56100
P 	P 	0.32618 0.00671 0.60950 0.59900
O 	O 	0.50862 0.96311 0.37093 -0.66700
O 	O 	0.41981 0.90970 0.49143 -0.45100
O 	O 	0.53507 0.94198 0.54083 -0.64300
O 	O 	0.47204 0.84756 0.42763 -0.27100
O 	O 	0.33455 0.95712 0.54653 -0.49700
O 	O 	0.25750 0.96876 0.65673 -0.46100
O 	O 	0.33161 0.06238 0.54883 -0.58400
O 	O 	0.37639 0.03350 0.69273 -0.64700
N 	N 	0.49937 0.88863 0.20123 -0.45300
N 	N 	0.49077 0.99993 0.18603 -0.32000
N 	N 	0.60387 0.08173 0.27743 -0.45100
C 	C 	0.43977 0.88513 0.16193 -0.16400
C 	C 	0.45557 0.94773 0.11263 -0.06600
C 	C 	0.52407 0.06773 0.15183 -0.08300
C 	C 	0.56297 0.10823 0.23943 -0.05200
H 	H 	0.49107 0.86643 0.25533 0.14200
H 	H 	0.51977 0.88363 0.15583 0.16100
H 	H 	0.45917 0.99513 0.23343 0.10900
H 	H 	0.63827 0.09663 0.24673 0.15100
H 	H 	0.61357 0.08833 0.34443 0.10300
H 	H 	0.40597 0.87743 0.21723 0.06000
H 	H 	0.41887 0.85893 0.12163 0.10700
H 	H 	0.41387 0.94843 0.07773 0.06200
H 	H 	0.48727 0.95933 0.05913 0.04900
H 	H 	0.50397 0.09903 0.13443 0.05600
H 	H 	0.55037 0.06383 0.09063 0.04600
H 	H 	0.58827 0.15303 0.19963 0.06400
H 	H 	0.53337 0.10603 0.30153 0.05500
Ga	Ga	0.60234 0.02842 0.54736 2.06100
Zn	Zn	0.06432 0.30492 0.78598 1.25000
Ga	Ga	0.22700 0.31652 0.58369 2.05200
P 	P 	0.15070 0.24728 0.78884 0.56100
P 	P 	0.99284 0.34005 0.94284 0.58600
O 	O 	0.17528 0.29645 0.70427 -0.66900
O 	O 	0.08647 0.24304 0.82477 -0.45200
O 	O 	0.20173 0.27532 0.87417 -0.65100
O 	O 	0.13870 0.18090 0.76097 -0.27200
O 	O 	0.00121 0.29046 0.87987 -0.49400
O 	O 	0.92416 0.30210 0.99007 -0.47600
O 	O 	0.99827 0.39572 0.88217 -0.58800
O 	O 	0.04305 0.36684 0.02607 -0.62800
N 	N 	0.16603 0.22197 0.53457 -0.45200
N 	N 	0.15743 0.33327 0.51937 -0.32300
N 	N 	0.27053 0.41507 0.61077 -0.45000
C 	C 	0.10643 0.21847 0.49527 -0.16800
C 	C 	0.12223 0.28107 0.44597 -0.06200
C 	C 	0.19073 0.40107 0.48517 -0.07700
C 	C 	0.22963 0.44157 0.57277 -0.05300
H 	H 	0.15773 0.19977 0.58867 0.14200
H 	H 	0.18643 0.21697 0.48917 0.16000
H 	H 	0.12583 0.32847 0.56677 0.10800
H 	H 	0.30493 0.42997 0.58007 0.15100
H 	H 	0.28023 0.42167 0.67777 0.10400
H 	H 	0.07263 0.21077 0.55057 0.06200
H 	H 	0.08553 0.19227 0.45497 0.10700
H 	H 	0.08053 0.28177 0.41107 0.05800
H 	H 	0.15393 0.29267 0.39247 0.04200
H 	H 	0.17063 0.43237 0.46777 0.05200
H 	H 	0.21703 0.39717 0.42397 0.04100
H 	H 	0.25493 0.48637 0.53297 0.06300
H 	H 	0.20003 0.43937 0.63487 0.05500
Ga	Ga	0.26901 0.36175 0.88069 2.06000
Ga	Ga	0.64985 0.75618 0.08298 2.05400
P 	P 	0.58061 0.76324 0.87783 0.56000
P 	P 	0.67338 0.01387 0.72383 0.63100
O 	O 	0.62978 0.78783 0.96240 -0.68500
O 	O 	0.57637 0.82323 0.84190 -0.61800
O 	O 	0.60865 0.74025 0.79250 -0.48200
O 	O 	0.51423 0.70886 0.90570 -0.27800
O 	O 	0.62379 0.95591 0.78680 -0.67500
O 	O 	0.63543 0.04460 0.67660 -0.63600
O 	O 	0.72905 0.06411 0.78450 -0.60300
O 	O 	0.70017 0.99045 0.64060 -0.67500
N 	N 	0.55530 0.72260 0.13210 -0.45400
N 	N 	0.66660 0.84250 0.14730 -0.32200
N 	N 	0.74840 0.81120 0.05590 -0.44300
C 	C 	0.55180 0.77870 0.17140 -0.16300
C 	C 	0.61440 0.82550 0.22070 -0.06500
C 	C 	0.73440 0.87700 0.18150 -0.07500
C 	C 	0.77490 0.87860 0.09390 -0.05400
H 	H 	0.53310 0.70870 0.07800 0.14500
H 	H 	0.55030 0.69720 0.17750 0.16100
H 	H 	0.66180 0.86930 0.09990 0.09900
H 	H 	0.76330 0.79170 0.08660 0.16000
H 	H 	0.75500 0.80810 0.98890 0.10700
H 	H 	0.54410 0.80480 0.11610 0.05800
H 	H 	0.52560 0.77340 0.21170 0.10500
H 	H 	0.61510 0.86790 0.25560 0.05600
H 	H 	0.62600 0.80540 0.27420 0.04400
H 	H 	0.76570 0.92840 0.19890 0.03800
H 	H 	0.73050 0.84680 0.24270 0.04000
H 	H 	0.81970 0.89810 0.13370 0.06400
H 	H 	0.77270 0.90600 0.03180 0.05800
Ga	Ga	0.31652 0.08951 0.41631 2.05300
P 	P 	0.24728 0.09657 0.21116 0.56000
P 	P 	0.34005 0.34720 0.05716 0.65400
O 	O 	0.29645 0.12116 0.29573 -0.67600
O 	O 	0.24304 0.15656 0.17523 -0.61400
O 	O 	0.27532 0.07358 0.12583 -0.47800
O 	O 	0.18090 0.04219 0.23903 -0.27300
O 	O 	0.29046 0.28924 0.12013 -0.68000
O 	O 	0.30210 0.37793 0.00993 -0.62900
O 	O 	0.39572 0.39744 0.11783 -0.60100
O 	O 	0.36684 0.32378 0.97393 -0.69600
N 	N 	0.22197 0.05593 0.46543 -0.45300
N 	N 	0.33327 0.17583 0.48063 -0.32200
N 	N 	0.41507 0.14453 0.38923 -0.45500
C 	C 	0.21847 0.11203 0.50473 -0.16500
C 	C 	0.28107 0.15883 0.55403 -0.06500
C 	C 	0.40107 0.21033 0.51483 -0.07600
C 	C 	0.44157 0.21193 0.42723 -0.05200
H 	H 	0.19977 0.04203 0.41133 0.14000
H 	H 	0.21697 0.03053 0.51083 0.15800
H 	H 	0.32847 0.20263 0.43323 0.09700
H 	H 	0.42997 0.12503 0.41993 0.16000
H 	H 	0.42167 0.14143 0.32223 0.12000
H 	H 	0.21077 0.13813 0.44943 0.05600
H 	H 	0.19227 0.10673 0.54503 0.10500
H 	H 	0.28177 0.20123 0.58893 0.05600
H 	H 	0.29267 0.13873 0.60753 0.04300
H 	H 	0.43237 0.26173 0.53223 0.03600
H 	H 	0.39717 0.18013 0.57603 0.04000
H 	H 	0.48637 0.23143 0.46703 0.06100
H 	H 	0.43937 0.23933 0.36513 0.05100
Ga	Ga	0.98318 0.42285 0.74965 2.05200
P 	P 	0.91394 0.42991 0.54450 0.56000
P 	P 	0.00671 0.68054 0.39050 0.65200
O 	O 	0.96311 0.45450 0.62907 -0.67900
O 	O 	0.90970 0.48990 0.50857 -0.61700
O 	O 	0.94198 0.40692 0.45917 -0.48400
O 	O 	0.84756 0.37553 0.57237 -0.27200
O 	O 	0.95712 0.62258 0.45347 -0.68600
O 	O 	0.96876 0.71127 0.34327 -0.64100
O 	O 	0.06238 0.73078 0.45117 -0.60200
O 	O 	0.03350 0.65712 0.30727 -0.68200
N 	N 	0.88863 0.38927 0.79877 -0.45300
N 	N 	0.99993 0.50917 0.81397 -0.32700
N 	N 	0.08173 0.47787 0.72257 -0.45400
C 	C 	0.88513 0.44537 0.83807 -0.16500
C 	C 	0.94773 0.49217 0.88737 -0.06200
C 	C 	0.06773 0.54367 0.84817 -0.06800
C 	C 	0.10823 0.54527 0.76057 -0.05400
H 	H 	0.86643 0.37537 0.74467 0.14100
H 	H 	0.88363 0.36387 0.84417 0.15900
H 	H 	0.99513 0.53597 0.76657 0.09500
H 	H 	0.09663 0.45837 0.75327 0.16000
H 	H 	0.08833 0.47477 0.65557 0.12000
H 	H 	0.87743 0.47147 0.78277 0.05600
H 	H 	0.85893 0.44007 0.87837 0.10300
H 	H 	0.94843 0.53457 0.92227 0.05000
H 	H 	0.95933 0.47207 0.94087 0.03600
H 	H 	0.09903 0.59507 0.86557 0.03300
H 	H 	0.06383 0.51347 0.90937 0.03700
H 	H 	0.15303 0.56477 0.80037 0.06000
H 	H 	0.10603 0.57267 0.69847 0.05300
Ga	Ga	0.24382 0.89367 0.08298 2.05400
P 	P 	0.23676 0.81737 0.87783 0.56000
P 	P 	0.98613 0.65951 0.72383 0.63100
O 	O 	0.21217 0.84195 0.96240 -0.68300
O 	O 	0.17677 0.75314 0.84190 -0.61800
O 	O 	0.25975 0.86840 0.79250 -0.48100
O 	O 	0.29114 0.80537 0.90570 -0.27700
O 	O 	0.04409 0.66788 0.78680 -0.67500
O 	O 	0.95540 0.59083 0.67660 -0.63600
O 	O 	0.93589 0.66494 0.78450 -0.60300
O 	O 	0.00955 0.70972 0.64060 -0.67500
N 	N 	0.27740 0.83270 0.13210 -0.45400
N 	N 	0.15750 0.82410 0.14730 -0.32200
N 	N 	0.18880 0.93720 0.05590 -0.44700
C 	C 	0.22130 0.77310 0.17140 -0.16300
C 	C 	0.17450 0.78890 0.22070 -0.06500
C 	C 	0.12300 0.85740 0.18150 -0.07600
C 	C 	0.12140 0.89630 0.09390 -0.05300
H 	H 	0.29130 0.82440 0.07800 0.14500
H 	H 	0.30280 0.85310 0.17750 0.16100
H 	H 	0.13070 0.79250 0.09990 0.09900
H 	H 	0.20830 0.97160 0.08660 0.16200
H 	H 	0.19190 0.94690 0.98890 0.11200
H 	H 	0.19520 0.73930 0.11610 0.05700
H 	H 	0.22660 0.75220 0.21170 0.10500
H 	H 	0.13210 0.74720 0.25560 0.05600
H 	H 	0.19460 0.82060 0.27420 0.04400
H 	H 	0.07160 0.83730 0.19890 0.03800
H 	H 	0.15320 0.88370 0.24270 0.04100
H 	H 	0.10190 0.92160 0.13370 0.06500
H 	H 	0.09400 0.86670 0.03180 0.05700
Ga	Ga	0.91049 0.22700 0.41631 2.05300
P 	P 	0.90343 0.15070 0.21116 0.56000
P 	P 	0.65280 0.99284 0.05716 0.66200
O 	O 	0.87884 0.17528 0.29573 -0.67600
O 	O 	0.84344 0.08647 0.17523 -0.61500
O 	O 	0.92642 0.20173 0.12583 -0.47700
O 	O 	0.95781 0.13870 0.23903 -0.27400
O 	O 	0.71076 0.00121 0.12013 -0.68500
O 	O 	0.62207 0.92416 0.00993 -0.63000
O 	O 	0.60256 0.99827 0.11783 -0.60000
O 	O 	0.67622 0.04305 0.97393 -0.70200
N 	N 	0.94407 0.16603 0.46543 -0.45300
N 	N 	0.82417 0.15743 0.48063 -0.32200
N 	N 	0.85547 0.27053 0.38923 -0.45500
C 	C 	0.88797 0.10643 0.50473 -0.16100
C 	C 	0.84117 0.12223 0.55403 -0.06700
C 	C 	0.78967 0.19073 0.51483 -0.07600
C 	C 	0.78807 0.22963 0.42723 -0.05200
H 	H 	0.95797 0.15773 0.41133 0.13900
H 	H 	0.96947 0.18643 0.51083 0.15800
H 	H 	0.79737 0.12583 0.43323 0.09700
H 	H 	0.87497 0.30493 0.41993 0.16000
H 	H 	0.85857 0.28023 0.32223 0.12000
H 	H 	0.86187 0.07263 0.44943 0.05300
H 	H 	0.89327 0.08553 0.54503 0.10200
H 	H 	0.79877 0.08053 0.58893 0.05400
H 	H 	0.86127 0.15393 0.60753 0.04400
H 	H 	0.73827 0.17063 0.53223 0.03600
H 	H 	0.81987 0.21703 0.57603 0.04000
H 	H 	0.76857 0.25493 0.46703 0.06100
H 	H 	0.76067 0.20003 0.36513 0.05100
Ga	Ga	0.57715 0.56034 0.74965 2.05300
P 	P 	0.57009 0.48404 0.54450 0.56000
P 	P 	0.31946 0.32618 0.39050 0.64300
O 	O 	0.54550 0.50862 0.62907 -0.67600
O 	O 	0.51010 0.41981 0.50857 -0.61600
O 	O 	0.59308 0.53507 0.45917 -0.48100
O 	O 	0.62447 0.47204 0.57237 -0.27300
O 	O 	0.37742 0.33455 0.45347 -0.68100
O 	O 	0.28873 0.25750 0.34327 -0.63600
O 	O 	0.26922 0.33161 0.45117 -0.60200
O 	O 	0.34288 0.37639 0.30727 -0.68200
N 	N 	0.61073 0.49937 0.79877 -0.45300
N 	N 	0.49083 0.49077 0.81397 -0.32300
N 	N 	0.52213 0.60387 0.72257 -0.45500
C 	C 	0.55463 0.43977 0.83807 -0.16400
C 	C 	0.50783 0.45557 0.88737 -0.06400
C 	C 	0.45633 0.52407 0.84817 -0.07500
C 	C 	0.45473 0.56297 0.76057 -0.05300
H 	H 	0.62463 0.49107 0.74467 0.14100
H 	H 	0.63613 0.51977 0.84417 0.15900
H 	H 	0.46403 0.45917 0.76657 0.09700
H 	H 	0.54163 0.63827 0.75327 0.16000
H 	H 	0.52523 0.61357 0.65557 0.12000
H 	H 	0.52853 0.40597 0.78277 0.05500
H 	H 	0.55993 0.41887 0.87837 0.10300
H 	H 	0.46543 0.41387 0.92227 0.05200
H 	H 	0.52793 0.48727 0.94087 0.03800
H 	H 	0.40493 0.50397 0.86557 0.03300
H 	H 	0.48653 0.55037 0.90937 0.03600
H 	H 	0.43523 0.58827 0.80037 0.06000
H 	H 	0.42733 0.53337 0.69847 0.05100
Ga	Ga	0.10633 0.35015 0.08298 2.05400
P 	P 	0.18263 0.41939 0.87783 0.56000
P 	P 	0.34049 0.32662 0.72383 0.64300
O 	O 	0.15805 0.37022 0.96240 -0.68400
O 	O 	0.24686 0.42363 0.84190 -0.61800
O 	O 	0.13160 0.39135 0.79250 -0.48100
O 	O 	0.19463 0.48577 0.90570 -0.27800
O 	O 	0.33212 0.37621 0.78680 -0.68200
O 	O 	0.40917 0.36457 0.67660 -0.63600
O 	O 	0.33506 0.27095 0.78450 -0.60300
O 	O 	0.29028 0.29983 0.64060 -0.68200
N 	N 	0.16730 0.44470 0.13210 -0.45400
N 	N 	0.17590 0.33340 0.14730 -0.32200
N 	N 	0.06280 0.25160 0.05590 -0.44500
C 	C 	0.22690 0.44820 0.17140 -0.16300
C 	C 	0.21110 0.38560 0.22070 -0.06500
C 	C 	0.14260 0.26560 0.18150 -0.07500
C 	C 	0.10370 0.22510 0.09390 -0.05300
H 	H 	0.17560 0.46690 0.07800 0.14500
H 	H 	0.14690 0.44970 0.17750 0.16100
H 	H 	0.20750 0.33820 0.09990 0.09900
H 	H 	0.02840 0.23670 0.08660 0.16200
H 	H 	0.05310 0.24500 0.98890 0.10900
H 	H 	0.26070 0.45590 0.11610 0.05800
H 	H 	0.24780 0.47440 0.21170 0.10500
H 	H 	0.25280 0.38490 0.25560 0.05600
H 	H 	0.17940 0.37400 0.27420 0.04400
H 	H 	0.16270 0.23430 0.19890 0.03700
H 	H 	0.11630 0.26950 0.24270 0.04100
H 	H 	0.07840 0.18030 0.13370 0.06400
H 	H 	0.13330 0.22730 0.03180 0.05700
Ga	Ga	0.77300 0.68348 0.41631 2.05300
P 	P 	0.84930 0.75272 0.21116 0.56000
P 	P 	0.00716 0.65995 0.05716 0.66100
O 	O 	0.82472 0.70355 0.29573 -0.67600
O 	O 	0.91353 0.75696 0.17523 -0.61500
O 	O 	0.79827 0.72468 0.12583 -0.47700
O 	O 	0.86130 0.81910 0.23903 -0.27100
O 	O 	0.99879 0.70954 0.12013 -0.68500
O 	O 	0.07584 0.69790 0.00993 -0.63100
O 	O 	0.00173 0.60428 0.11783 -0.60000
O 	O 	0.95695 0.63316 0.97393 -0.70100
N 	N 	0.83397 0.77803 0.46543 -0.45400
N 	N 	0.84257 0.66673 0.48063 -0.32200
N 	N 	0.72947 0.58493 0.38923 -0.45500
C 	C 	0.89357 0.78153 0.50473 -0.16100
C 	C 	0.87777 0.71893 0.55403 -0.06700
C 	C 	0.80927 0.59893 0.51483 -0.07600
C 	C 	0.77037 0.55843 0.42723 -0.05200
H 	H 	0.84227 0.80023 0.41133 0.14100
H 	H 	0.81357 0.78303 0.51083 0.16000
H 	H 	0.87417 0.67153 0.43323 0.09700
H 	H 	0.69507 0.57003 0.41993 0.16000
H 	H 	0.71977 0.57833 0.32223 0.12000
H 	H 	0.92737 0.78923 0.44943 0.05400
H 	H 	0.91447 0.80773 0.54503 0.10300
H 	H 	0.91947 0.71823 0.58893 0.05400
H 	H 	0.84607 0.70733 0.60753 0.04400
H 	H 	0.82937 0.56763 0.53223 0.03600
H 	H 	0.78297 0.60283 0.57603 0.04000
H 	H 	0.74507 0.51363 0.46703 0.06100
H 	H 	0.79997 0.56063 0.36513 0.05100
Ga	Ga	0.43966 0.01682 0.74965 2.05200
P 	P 	0.51596 0.08606 0.54450 0.56000
P 	P 	0.67382 0.99329 0.39050 0.65100
O 	O 	0.49138 0.03689 0.62907 -0.67900
O 	O 	0.58019 0.09030 0.50857 -0.61700
O 	O 	0.46493 0.05802 0.45917 -0.48400
O 	O 	0.52796 0.15244 0.57237 -0.27200
O 	O 	0.66545 0.04288 0.45347 -0.68600
O 	O 	0.74250 0.03124 0.34327 -0.64100
O 	O 	0.66839 0.93762 0.45117 -0.60200
O 	O 	0.62361 0.96650 0.30727 -0.68200
N 	N 	0.50063 0.11137 0.79877 -0.45300
N 	N 	0.50923 0.00007 0.81397 -0.32700
N 	N 	0.39613 0.91827 0.72257 -0.45400
C 	C 	0.56023 0.11487 0.83807 -0.16500
C 	C 	0.54443 0.05227 0.88737 -0.06200
C 	C 	0.47593 0.93227 0.84817 -0.06800
C 	C 	0.43703 0.89177 0.76057 -0.05400
H 	H 	0.50893 0.13357 0.74467 0.14100
H 	H 	0.48023 0.11637 0.84417 0.15900
H 	H 	0.54083 0.00487 0.76657 0.09500
H 	H 	0.36173 0.90337 0.75327 0.16000
H 	H 	0.38643 0.91167 0.65557 0.12000
H 	H 	0.59403 0.12257 0.78277 0.05600
H 	H 	0.58113 0.14107 0.87837 0.10300
H 	H 	0.58613 0.05157 0.92227 0.05000
H 	H 	0.51273 0.04067 0.94087 0.03600
H 	H 	0.49603 0.90097 0.86557 0.03300
H 	H 	0.44963 0.93617 0.90937 0.03700
H 	H 	0.41173 0.84697 0.80037 0.06000
H 	H 	0.46663 0.89397 0.69847 0.05300
