data_crystal

_cell_length_a 23.74000
_cell_length_b 23.74000
_cell_length_c 13.48510
_cell_angle_alpha 90.00000
_cell_angle_beta  90.00000
_cell_angle_gamma 120.00000

_symmetry_space_group_name_	'P 1'
_symmetry_space_group_name_H-M	'P 1'

loop_
_symmetry_equiv_pos_as_xyz
  x,y,z

loop_
_atom_site_label
_atom_site_type_symbol
_atom_site_fract_x
_atom_site_fract_y
_atom_site_fract_z
_atom_site_charge
Co	Co	0.36039 0.09308 0.11998 1.22000
Ga	Ga	0.34972 0.24283 0.91544 2.05300
P 	P 	0.41876 0.23621 0.11950 0.55800
P 	P 	0.32680 0.98697 0.27725 0.61700
O 	O 	0.36713 0.21028 0.03778 -0.65800
O 	O 	0.42224 0.17569 0.15628 -0.43900
O 	O 	0.39144 0.25911 0.20680 -0.64900
O 	O 	0.48401 0.28968 0.08920 -0.27300
O 	O 	0.37523 0.04469 0.21210 -0.49400
O 	O 	0.36709 0.95882 0.32526 -0.45700
O 	O 	0.27161 0.93529 0.21766 -0.58000
O 	O 	0.30032 0.01065 0.36039 -0.64500
N 	N 	0.44436 0.27577 0.86930 -0.40900
N 	N 	0.33240 0.15663 0.85130 -0.33000
N 	N 	0.25099 0.18888 0.94120 -0.46600
C 	C 	0.44730 0.21860 0.83110 -0.19800
C 	C 	0.38490 0.17300 0.77970 -0.06600
C 	C 	0.26500 0.12300 0.81680 -0.12500
C 	C 	0.22370 0.12140 0.90290 -0.05200
H 	H 	0.45110 0.29860 0.81330 0.12500
H 	H 	0.47340 0.29080 0.92170 0.12400
H 	H 	0.33280 0.12730 0.89550 0.11800
H 	H 	0.24610 0.19100 0.00770 0.12400
H 	H 	0.22990 0.20340 0.90830 0.15900
H 	H 	0.45370 0.19330 0.89050 0.06900
H 	H 	0.47320 0.23490 0.78580 0.11700
H 	H 	0.38280 0.19860 0.72430 0.04000
H 	H 	0.37750 0.12860 0.75630 0.06600
H 	H 	0.26080 0.14780 0.75720 0.05600
H 	H 	0.24730 0.07720 0.80450 0.07300
H 	H 	0.23070 0.10010 0.95700 0.04700
H 	H 	0.17580 0.10010 0.86790 0.05600
Ga	Ga	0.30628 0.24025 0.21335 2.06800
Co	Co	0.02706 0.42641 0.45331 1.21800
Ga	Ga	0.01639 0.57616 0.24877 2.05400
P 	P 	0.08543 0.56954 0.45283 0.55600
P 	P 	0.99347 0.32030 0.61058 0.59700
O 	O 	0.03380 0.54361 0.37111 -0.66500
O 	O 	0.08891 0.50902 0.48961 -0.44100
O 	O 	0.05811 0.59244 0.54013 -0.64600
O 	O 	0.15068 0.62301 0.42253 -0.28000
O 	O 	0.04190 0.37802 0.54543 -0.48500
O 	O 	0.03376 0.29215 0.65859 -0.45200
O 	O 	0.93828 0.26862 0.55099 -0.58000
O 	O 	0.96699 0.34398 0.69372 -0.64100
N 	N 	0.11103 0.60910 0.20263 -0.40900
N 	N 	0.99907 0.48996 0.18463 -0.33100
N 	N 	0.91766 0.52221 0.27453 -0.45300
C 	C 	0.11397 0.55193 0.16443 -0.20000
C 	C 	0.05157 0.50633 0.11303 -0.06300
C 	C 	0.93167 0.45633 0.15013 -0.12600
C 	C 	0.89037 0.45473 0.23623 -0.05500
H 	H 	0.11777 0.63193 0.14663 0.12600
H 	H 	0.14007 0.62413 0.25503 0.13000
H 	H 	0.99947 0.46063 0.22883 0.11900
H 	H 	0.91277 0.52433 0.34103 0.10900
H 	H 	0.89657 0.53673 0.24163 0.15900
H 	H 	0.12037 0.52663 0.22383 0.07300
H 	H 	0.13987 0.56823 0.11913 0.12000
H 	H 	0.04947 0.53193 0.05763 0.04400
H 	H 	0.04417 0.46193 0.08963 0.07000
H 	H 	0.92747 0.48113 0.09053 0.06100
H 	H 	0.91397 0.41053 0.13783 0.07900
H 	H 	0.89737 0.43343 0.29033 0.05500
H 	H 	0.84247 0.43343 0.20123 0.06200
Ga	Ga	0.97294 0.57359 0.54669 2.06700
Co	Co	0.69372 0.75975 0.78665 1.21500
Ga	Ga	0.68305 0.90950 0.58211 2.05300
P 	P 	0.75209 0.90288 0.78617 0.55700
P 	P 	0.66013 0.65364 0.94392 0.59600
O 	O 	0.70046 0.87695 0.70445 -0.66700
O 	O 	0.75557 0.84236 0.82295 -0.44300
O 	O 	0.72477 0.92578 0.87347 -0.65100
O 	O 	0.81734 0.95635 0.75587 -0.27800
O 	O 	0.70856 0.71136 0.87877 -0.49100
O 	O 	0.70042 0.62549 0.99193 -0.46700
O 	O 	0.60494 0.60196 0.88433 -0.58200
O 	O 	0.63365 0.67732 0.02706 -0.62700
N 	N 	0.77769 0.94244 0.53597 -0.40900
N 	N 	0.66573 0.82330 0.51797 -0.32900
N 	N 	0.58432 0.85555 0.60787 -0.45200
C 	C 	0.78063 0.88527 0.49777 -0.19800
C 	C 	0.71823 0.83967 0.44637 -0.06500
C 	C 	0.59833 0.78967 0.48347 -0.12300
C 	C 	0.55703 0.78807 0.56957 -0.05600
H 	H 	0.78443 0.96527 0.47997 0.12800
H 	H 	0.80673 0.95747 0.58837 0.13100
H 	H 	0.66613 0.79397 0.56217 0.12100
H 	H 	0.57943 0.85767 0.67437 0.11000
H 	H 	0.56323 0.87007 0.57497 0.15900
H 	H 	0.78703 0.85997 0.55717 0.07200
H 	H 	0.80653 0.90157 0.45247 0.11800
H 	H 	0.71613 0.86527 0.39097 0.04000
H 	H 	0.71083 0.79527 0.42297 0.06600
H 	H 	0.59413 0.81447 0.42387 0.05600
H 	H 	0.58063 0.74387 0.47117 0.07500
H 	H 	0.56403 0.76677 0.62367 0.05600
H 	H 	0.50913 0.76677 0.53457 0.06000
Ga	Ga	0.63961 0.90692 0.88002 2.06700
Co	Co	0.90692 0.26731 0.11998 1.22000
Ga	Ga	0.75717 0.10689 0.91544 2.05100
P 	P 	0.76379 0.18255 0.11950 0.55700
P 	P 	0.01303 0.33983 0.27725 0.61500
O 	O 	0.78972 0.15685 0.03778 -0.65600
O 	O 	0.82431 0.24655 0.15628 -0.43900
O 	O 	0.74089 0.13233 0.20680 -0.64900
O 	O 	0.71032 0.19433 0.08920 -0.27200
O 	O 	0.95531 0.33054 0.21210 -0.49400
O 	O 	0.04118 0.40827 0.32526 -0.45700
O 	O 	0.06471 0.33632 0.21766 -0.58000
O 	O 	0.98935 0.28967 0.36039 -0.64500
N 	N 	0.72423 0.16859 0.86930 -0.40900
N 	N 	0.84337 0.17577 0.85130 -0.33000
N 	N 	0.81112 0.06211 0.94120 -0.46900
C 	C 	0.78140 0.22870 0.83110 -0.19800
C 	C 	0.82700 0.21190 0.77970 -0.06600
C 	C 	0.87700 0.14200 0.81680 -0.12500
C 	C 	0.87860 0.10230 0.90290 -0.05100
H 	H 	0.70140 0.15250 0.81330 0.12500
H 	H 	0.70920 0.18260 0.92170 0.12400
H 	H 	0.87270 0.20550 0.89550 0.11700
H 	H 	0.80900 0.05510 0.00770 0.12700
H 	H 	0.79660 0.02650 0.90830 0.15600
H 	H 	0.80670 0.26040 0.89050 0.06900
H 	H 	0.76510 0.23830 0.78580 0.11700
H 	H 	0.80140 0.18420 0.72430 0.04000
H 	H 	0.87140 0.24890 0.75630 0.06600
H 	H 	0.85220 0.11300 0.75720 0.05500
H 	H 	0.92280 0.17010 0.80450 0.07300
H 	H 	0.89990 0.13060 0.95700 0.04500
H 	H 	0.89990 0.07570 0.86790 0.05300
Ga	Ga	0.75975 0.06602 0.21335 2.06800
Co	Co	0.57359 0.60064 0.45331 1.21600
Ga	Ga	0.42384 0.44022 0.24877 2.05300
P 	P 	0.43046 0.51588 0.45283 0.55700
P 	P 	0.67970 0.67316 0.61058 0.60800
O 	O 	0.45639 0.49018 0.37111 -0.66800
O 	O 	0.49098 0.57988 0.48961 -0.44200
O 	O 	0.40756 0.46566 0.54013 -0.64900
O 	O 	0.37699 0.52766 0.42253 -0.28000
O 	O 	0.62198 0.66387 0.54543 -0.49100
O 	O 	0.70785 0.74160 0.65859 -0.45800
O 	O 	0.73138 0.66965 0.55099 -0.58100
O 	O 	0.65602 0.62300 0.69372 -0.64000
N 	N 	0.39090 0.50192 0.20263 -0.40900
N 	N 	0.51004 0.50910 0.18463 -0.32800
N 	N 	0.47779 0.39544 0.27453 -0.45200
C 	C 	0.44807 0.56203 0.16443 -0.19800
C 	C 	0.49367 0.54523 0.11303 -0.06800
C 	C 	0.54367 0.47533 0.15013 -0.12500
C 	C 	0.54527 0.43563 0.23623 -0.05500
H 	H 	0.36807 0.48583 0.14663 0.12700
H 	H 	0.37587 0.51593 0.25503 0.13000
H 	H 	0.53937 0.53883 0.22883 0.12100
H 	H 	0.47567 0.38843 0.34103 0.11000
H 	H 	0.46327 0.35983 0.24163 0.15900
H 	H 	0.47337 0.59373 0.22383 0.07300
H 	H 	0.43177 0.57163 0.11913 0.12000
H 	H 	0.46807 0.51753 0.05763 0.04500
H 	H 	0.53807 0.58223 0.08963 0.07000
H 	H 	0.51887 0.44633 0.09053 0.06100
H 	H 	0.58947 0.50343 0.13783 0.07900
H 	H 	0.56657 0.46393 0.29033 0.05500
H 	H 	0.56657 0.40903 0.20123 0.06100
Ga	Ga	0.42641 0.39936 0.54669 2.06800
Co	Co	0.24025 0.93398 0.78665 1.21600
Ga	Ga	0.09050 0.77356 0.58211 2.05300
P 	P 	0.09712 0.84922 0.78617 0.55700
P 	P 	0.34636 0.00650 0.94392 0.58500
O 	O 	0.12305 0.82352 0.70445 -0.66700
O 	O 	0.15764 0.91322 0.82295 -0.44100
O 	O 	0.07422 0.79900 0.87347 -0.64900
O 	O 	0.04365 0.86100 0.75587 -0.27600
O 	O 	0.28864 0.99721 0.87877 -0.48100
O 	O 	0.37451 0.07494 0.99193 -0.46700
O 	O 	0.39804 0.00299 0.88433 -0.58500
O 	O 	0.32268 0.95634 0.02706 -0.62300
N 	N 	0.05756 0.83526 0.53597 -0.40900
N 	N 	0.17670 0.84244 0.51797 -0.33000
N 	N 	0.14445 0.72878 0.60787 -0.45200
C 	C 	0.11473 0.89537 0.49777 -0.20000
C 	C 	0.16033 0.87857 0.44637 -0.06500
C 	C 	0.21033 0.80867 0.48347 -0.12200
C 	C 	0.21193 0.76897 0.56957 -0.05600
H 	H 	0.03473 0.81917 0.47997 0.12800
H 	H 	0.04253 0.84927 0.58837 0.13200
H 	H 	0.20603 0.87217 0.56217 0.12100
H 	H 	0.14233 0.72177 0.67437 0.11000
H 	H 	0.12993 0.69317 0.57497 0.15900
H 	H 	0.14003 0.92707 0.55717 0.07500
H 	H 	0.09843 0.90497 0.45247 0.12100
H 	H 	0.13473 0.85087 0.39097 0.04000
H 	H 	0.20473 0.91557 0.42297 0.06800
H 	H 	0.18553 0.77967 0.42387 0.05600
H 	H 	0.25613 0.83677 0.47117 0.07500
H 	H 	0.23323 0.79727 0.62367 0.05600
H 	H 	0.23323 0.74237 0.53457 0.06000
Ga	Ga	0.09308 0.73269 0.88002 2.06800
Co	Co	0.73269 0.63961 0.11998 1.21900
Ga	Ga	0.89311 0.65028 0.91544 2.05200
P 	P 	0.81745 0.58124 0.11950 0.55700
P 	P 	0.66017 0.67320 0.27725 0.60700
O 	O 	0.84315 0.63287 0.03778 -0.65800
O 	O 	0.75345 0.57776 0.15628 -0.43900
O 	O 	0.86767 0.60856 0.20680 -0.64900
O 	O 	0.80567 0.51599 0.08920 -0.27300
O 	O 	0.66946 0.62477 0.21210 -0.49000
O 	O 	0.59173 0.63291 0.32526 -0.45800
O 	O 	0.66368 0.72839 0.21766 -0.58000
O 	O 	0.71033 0.69968 0.36039 -0.64000
N 	N 	0.83141 0.55564 0.86930 -0.40900
N 	N 	0.82423 0.66760 0.85130 -0.33000
N 	N 	0.93789 0.74901 0.94120 -0.46600
C 	C 	0.77130 0.55270 0.83110 -0.19800
C 	C 	0.78810 0.61510 0.77970 -0.06600
C 	C 	0.85800 0.73500 0.81680 -0.12500
C 	C 	0.89770 0.77630 0.90290 -0.05200
H 	H 	0.84750 0.54890 0.81330 0.12500
H 	H 	0.81740 0.52660 0.92170 0.12400
H 	H 	0.79450 0.66720 0.89550 0.11900
H 	H 	0.94490 0.75390 0.00770 0.12400
H 	H 	0.97350 0.77010 0.90830 0.15600
H 	H 	0.73960 0.54630 0.89050 0.06900
H 	H 	0.76170 0.52680 0.78580 0.11700
H 	H 	0.81580 0.61720 0.72430 0.04000
H 	H 	0.75110 0.62250 0.75630 0.06700
H 	H 	0.88700 0.73920 0.75720 0.05600
H 	H 	0.82990 0.75270 0.80450 0.07500
H 	H 	0.86940 0.76930 0.95700 0.04900
H 	H 	0.92430 0.82420 0.86790 0.05600
Ga	Ga	0.93398 0.69372 0.21335 2.06800
Co	Co	0.39936 0.97294 0.45331 1.21800
Ga	Ga	0.55978 0.98361 0.24877 2.05400
P 	P 	0.48412 0.91457 0.45283 0.55600
P 	P 	0.32684 0.00653 0.61058 0.59700
O 	O 	0.50982 0.96620 0.37111 -0.66500
O 	O 	0.42012 0.91109 0.48961 -0.44100
O 	O 	0.53434 0.94189 0.54013 -0.64600
O 	O 	0.47234 0.84932 0.42253 -0.28000
O 	O 	0.33613 0.95810 0.54543 -0.48500
O 	O 	0.25840 0.96624 0.65859 -0.45200
O 	O 	0.33035 0.06172 0.55099 -0.58000
O 	O 	0.37700 0.03301 0.69372 -0.64100
N 	N 	0.49808 0.88897 0.20263 -0.40900
N 	N 	0.49090 0.00093 0.18463 -0.33100
N 	N 	0.60456 0.08234 0.27453 -0.45300
C 	C 	0.43797 0.88603 0.16443 -0.20000
C 	C 	0.45477 0.94843 0.11303 -0.06300
C 	C 	0.52467 0.06833 0.15013 -0.12600
C 	C 	0.56437 0.10963 0.23623 -0.05500
H 	H 	0.51417 0.88223 0.14663 0.12600
H 	H 	0.48407 0.85993 0.25503 0.13000
H 	H 	0.46117 0.00053 0.22883 0.11900
H 	H 	0.61157 0.08723 0.34103 0.10900
H 	H 	0.64017 0.10343 0.24163 0.15900
H 	H 	0.40627 0.87963 0.22383 0.07300
H 	H 	0.42837 0.86013 0.11913 0.12000
H 	H 	0.48247 0.95053 0.05763 0.04400
H 	H 	0.41777 0.95583 0.08963 0.07000
H 	H 	0.55367 0.07253 0.09053 0.06200
H 	H 	0.49657 0.08603 0.13783 0.07900
H 	H 	0.53607 0.10263 0.29033 0.05500
H 	H 	0.59097 0.15753 0.20123 0.06200
Ga	Ga	0.60064 0.02706 0.54669 2.06700
Co	Co	0.06602 0.30628 0.78665 1.21600
Ga	Ga	0.22644 0.31695 0.58211 2.05300
P 	P 	0.15078 0.24791 0.78617 0.55700
P 	P 	0.99350 0.33987 0.94392 0.58300
O 	O 	0.17648 0.29954 0.70445 -0.66800
O 	O 	0.08678 0.24443 0.82295 -0.44200
O 	O 	0.20100 0.27523 0.87347 -0.65400
O 	O 	0.13900 0.18266 0.75587 -0.28100
O 	O 	0.00279 0.29144 0.87877 -0.48200
O 	O 	0.92506 0.29958 0.99193 -0.46800
O 	O 	0.99701 0.39506 0.88433 -0.58500
O 	O 	0.04366 0.36635 0.02706 -0.62100
N 	N 	0.16474 0.22231 0.53597 -0.40900
N 	N 	0.15756 0.33427 0.51797 -0.33000
N 	N 	0.27122 0.41568 0.60787 -0.45200
C 	C 	0.10463 0.21937 0.49777 -0.19900
C 	C 	0.12143 0.28177 0.44637 -0.06500
C 	C 	0.19133 0.40167 0.48347 -0.12300
C 	C 	0.23103 0.44297 0.56957 -0.05600
H 	H 	0.18083 0.21557 0.47997 0.12600
H 	H 	0.15073 0.19327 0.58837 0.13000
H 	H 	0.12783 0.33387 0.56217 0.12100
H 	H 	0.27823 0.42057 0.67437 0.11000
H 	H 	0.30683 0.43677 0.57497 0.15900
H 	H 	0.07293 0.21297 0.55717 0.07400
H 	H 	0.09503 0.19347 0.45247 0.11900
H 	H 	0.14913 0.28387 0.39097 0.04000
H 	H 	0.08443 0.28917 0.42297 0.06800
H 	H 	0.22033 0.40587 0.42387 0.05600
H 	H 	0.16323 0.41937 0.47117 0.07500
H 	H 	0.20273 0.43597 0.62367 0.05600
H 	H 	0.25763 0.49087 0.53457 0.06000
Ga	Ga	0.26731 0.36039 0.88002 2.06700
Ga	Ga	0.65028 0.75717 0.08456 2.05500
P 	P 	0.58124 0.76379 0.88050 0.55600
P 	P 	0.67320 0.01303 0.72275 0.63600
O 	O 	0.63287 0.78972 0.96222 -0.68300
O 	O 	0.57776 0.82431 0.84372 -0.62600
O 	O 	0.60856 0.74089 0.79320 -0.46800
O 	O 	0.51599 0.71032 0.91080 -0.28700
O 	O 	0.62477 0.95531 0.78790 -0.67800
O 	O 	0.63291 0.04118 0.67474 -0.64500
O 	O 	0.72839 0.06471 0.78234 -0.59900
O 	O 	0.69968 0.98935 0.63961 -0.66800
N 	N 	0.55564 0.72423 0.13070 -0.41000
N 	N 	0.66760 0.84337 0.14870 -0.33000
N 	N 	0.74901 0.81112 0.05880 -0.44100
C 	C 	0.55270 0.78140 0.16890 -0.19700
C 	C 	0.61510 0.82700 0.22030 -0.06600
C 	C 	0.73500 0.87700 0.18320 -0.11300
C 	C 	0.77630 0.87860 0.09710 -0.06200
H 	H 	0.54890 0.70140 0.18670 0.12600
H 	H 	0.52660 0.70920 0.07830 0.13300
H 	H 	0.66720 0.87270 0.10450 0.11500
H 	H 	0.75390 0.80900 0.99230 0.11000
H 	H 	0.77010 0.79660 0.09170 0.16400
H 	H 	0.54630 0.80670 0.10950 0.07000
H 	H 	0.52680 0.76510 0.21420 0.11800
H 	H 	0.61720 0.80140 0.27570 0.04000
H 	H 	0.62250 0.87140 0.24370 0.06500
H 	H 	0.73920 0.85220 0.24280 0.05300
H 	H 	0.75270 0.92280 0.19550 0.06000
H 	H 	0.76930 0.89990 0.04300 0.06000
H 	H 	0.82420 0.89990 0.13210 0.06300
Ga	Ga	0.31695 0.09050 0.41789 2.05400
P 	P 	0.24791 0.09712 0.21383 0.55600
P 	P 	0.33987 0.34636 0.05608 0.66000
O 	O 	0.29954 0.12305 0.29555 -0.67400
O 	O 	0.24443 0.15764 0.17705 -0.62200
O 	O 	0.27523 0.07422 0.12653 -0.46500
O 	O 	0.18266 0.04365 0.24413 -0.28100
O 	O 	0.29144 0.28864 0.12123 -0.68300
O 	O 	0.29958 0.37451 0.00807 -0.63700
O 	O 	0.39506 0.39804 0.11567 -0.59700
O 	O 	0.36635 0.32268 0.97294 -0.69000
N 	N 	0.22231 0.05756 0.46403 -0.40900
N 	N 	0.33427 0.17670 0.48203 -0.33000
N 	N 	0.41568 0.14445 0.39213 -0.45500
C 	C 	0.21937 0.11473 0.50223 -0.19700
C 	C 	0.28177 0.16033 0.55363 -0.06700
C 	C 	0.40167 0.21033 0.51653 -0.11500
C 	C 	0.44297 0.21193 0.43043 -0.05800
H 	H 	0.21557 0.03473 0.52003 0.12300
H 	H 	0.19327 0.04253 0.41163 0.12800
H 	H 	0.33387 0.20603 0.43783 0.11300
H 	H 	0.42057 0.14233 0.32563 0.12400
H 	H 	0.43677 0.12993 0.42503 0.16500
H 	H 	0.21297 0.14003 0.44283 0.06800
H 	H 	0.19347 0.09843 0.54753 0.11700
H 	H 	0.28387 0.13473 0.60903 0.04000
H 	H 	0.28917 0.20473 0.57703 0.06500
H 	H 	0.40587 0.18553 0.57613 0.05300
H 	H 	0.41937 0.25613 0.52883 0.05900
H 	H 	0.43597 0.23323 0.37633 0.05300
H 	H 	0.49087 0.23323 0.46543 0.05900
Ga	Ga	0.98361 0.42384 0.75123 2.05300
P 	P 	0.91457 0.43046 0.54717 0.55600
P 	P 	0.00653 0.67970 0.38942 0.65800
O 	O 	0.96620 0.45639 0.62889 -0.67800
O 	O 	0.91109 0.49098 0.51039 -0.62400
O 	O 	0.94189 0.40756 0.45987 -0.47000
O 	O 	0.84932 0.37699 0.57747 -0.28100
O 	O 	0.95810 0.62198 0.45457 -0.68900
O 	O 	0.96624 0.70785 0.34141 -0.64900
O 	O 	0.06172 0.73138 0.44901 -0.59800
O 	O 	0.03301 0.65602 0.30628 -0.67500
N 	N 	0.88897 0.39090 0.79737 -0.41100
N 	N 	0.00093 0.51004 0.81537 -0.32500
N 	N 	0.08234 0.47779 0.72547 -0.45300
C 	C 	0.88603 0.44807 0.83557 -0.19200
C 	C 	0.94843 0.49367 0.88697 -0.07400
C 	C 	0.06833 0.54367 0.84987 -0.11300
C 	C 	0.10963 0.54527 0.76377 -0.05900
H 	H 	0.88223 0.36807 0.85337 0.12400
H 	H 	0.85993 0.37587 0.74497 0.12900
H 	H 	0.00053 0.53937 0.77117 0.11600
H 	H 	0.08723 0.47567 0.65897 0.12500
H 	H 	0.10343 0.46327 0.75837 0.16500
H 	H 	0.87963 0.47337 0.77617 0.06500
H 	H 	0.86013 0.43177 0.88087 0.11300
H 	H 	0.95053 0.46807 0.94237 0.03500
H 	H 	0.95583 0.53807 0.91037 0.06100
H 	H 	0.07253 0.51887 0.90947 0.05100
H 	H 	0.08603 0.58947 0.86217 0.05700
H 	H 	0.10263 0.56657 0.70967 0.05300
H 	H 	0.15753 0.56657 0.79877 0.05800
Ga	Ga	0.24283 0.89311 0.08456 2.05500
P 	P 	0.23621 0.81745 0.88050 0.55600
P 	P 	0.98697 0.66017 0.72275 0.63600
O 	O 	0.21028 0.84315 0.96222 -0.68000
O 	O 	0.17569 0.75345 0.84372 -0.62500
O 	O 	0.25911 0.86767 0.79320 -0.46700
O 	O 	0.28968 0.80567 0.91080 -0.28600
O 	O 	0.04469 0.66946 0.78790 -0.67700
O 	O 	0.95882 0.59173 0.67474 -0.64500
O 	O 	0.93529 0.66368 0.78234 -0.59800
O 	O 	0.01065 0.71033 0.63961 -0.66800
N 	N 	0.27577 0.83141 0.13070 -0.41000
N 	N 	0.15663 0.82423 0.14870 -0.33000
N 	N 	0.18888 0.93789 0.05880 -0.44700
C 	C 	0.21860 0.77130 0.16890 -0.19700
C 	C 	0.17300 0.78810 0.22030 -0.06600
C 	C 	0.12300 0.85800 0.18320 -0.11400
C 	C 	0.12140 0.89770 0.09710 -0.06000
H 	H 	0.29860 0.84750 0.18670 0.12600
H 	H 	0.29080 0.81740 0.07830 0.13200
H 	H 	0.12730 0.79450 0.10450 0.11500
H 	H 	0.19100 0.94490 0.99230 0.11700
H 	H 	0.20340 0.97350 0.09170 0.16700
H 	H 	0.19330 0.73960 0.10950 0.07000
H 	H 	0.23490 0.76170 0.21420 0.11800
H 	H 	0.19860 0.81580 0.27570 0.04100
H 	H 	0.12860 0.75110 0.24370 0.06500
H 	H 	0.14780 0.88700 0.24280 0.05400
H 	H 	0.07720 0.82990 0.19550 0.06100
H 	H 	0.10010 0.86940 0.04300 0.05800
H 	H 	0.10010 0.92430 0.13210 0.06300
Ga	Ga	0.90950 0.22644 0.41789 2.05400
P 	P 	0.90288 0.15078 0.21383 0.55600
P 	P 	0.65364 0.99350 0.05608 0.66800
O 	O 	0.87695 0.17648 0.29555 -0.67400
O 	O 	0.84236 0.08678 0.17705 -0.62200
O 	O 	0.92578 0.20100 0.12653 -0.46400
O 	O 	0.95635 0.13900 0.24413 -0.28200
O 	O 	0.71136 0.00279 0.12123 -0.68700
O 	O 	0.62549 0.92506 0.00807 -0.63800
O 	O 	0.60196 0.99701 0.11567 -0.59600
O 	O 	0.67732 0.04366 0.97294 -0.69700
N 	N 	0.94244 0.16474 0.46403 -0.40900
N 	N 	0.82330 0.15756 0.48203 -0.33000
N 	N 	0.85555 0.27122 0.39213 -0.45500
C 	C 	0.88527 0.10463 0.50223 -0.19500
C 	C 	0.83967 0.12143 0.55363 -0.06700
C 	C 	0.78967 0.19133 0.51653 -0.11500
C 	C 	0.78807 0.23103 0.43043 -0.05800
H 	H 	0.96527 0.18083 0.52003 0.12300
H 	H 	0.95747 0.15073 0.41163 0.12700
H 	H 	0.79397 0.12783 0.43783 0.11300
H 	H 	0.85767 0.27823 0.32563 0.12400
H 	H 	0.87007 0.30683 0.42503 0.16500
H 	H 	0.85997 0.07293 0.44283 0.06500
H 	H 	0.90157 0.09503 0.54753 0.11500
H 	H 	0.86527 0.14913 0.60903 0.04000
H 	H 	0.79527 0.08443 0.57703 0.06400
H 	H 	0.81447 0.22033 0.57613 0.05300
H 	H 	0.74387 0.16323 0.52883 0.05900
H 	H 	0.76677 0.20273 0.37633 0.05300
H 	H 	0.76677 0.25763 0.46543 0.05900
Ga	Ga	0.57616 0.55978 0.75123 2.05400
P 	P 	0.56954 0.48412 0.54717 0.55600
P 	P 	0.32030 0.32684 0.38942 0.64900
O 	O 	0.54361 0.50982 0.62889 -0.67400
O 	O 	0.50902 0.42012 0.51039 -0.62300
O 	O 	0.59244 0.53434 0.45987 -0.46800
O 	O 	0.62301 0.47234 0.57747 -0.28100
O 	O 	0.37802 0.33613 0.45457 -0.68300
O 	O 	0.29215 0.25840 0.34141 -0.64400
O 	O 	0.26862 0.33035 0.44901 -0.59800
O 	O 	0.34398 0.37700 0.30628 -0.67600
N 	N 	0.60910 0.49808 0.79737 -0.41000
N 	N 	0.48996 0.49090 0.81537 -0.33100
N 	N 	0.52221 0.60456 0.72547 -0.45500
C 	C 	0.55193 0.43797 0.83557 -0.19600
C 	C 	0.50633 0.45477 0.88697 -0.06500
C 	C 	0.45633 0.52467 0.84987 -0.11200
C 	C 	0.45473 0.56437 0.76377 -0.05900
H 	H 	0.63193 0.51417 0.85337 0.12400
H 	H 	0.62413 0.48407 0.74497 0.12800
H 	H 	0.46063 0.46117 0.77117 0.11300
H 	H 	0.52433 0.61157 0.65897 0.12400
H 	H 	0.53673 0.64017 0.75837 0.16400
H 	H 	0.52663 0.40627 0.77617 0.06700
H 	H 	0.56823 0.42837 0.88087 0.11500
H 	H 	0.53193 0.48247 0.94237 0.03500
H 	H 	0.46193 0.41777 0.91037 0.06100
H 	H 	0.48113 0.55367 0.90947 0.04800
H 	H 	0.41053 0.49657 0.86217 0.05600
H 	H 	0.43343 0.53607 0.70967 0.05300
H 	H 	0.43343 0.59097 0.79877 0.05800
Ga	Ga	0.10689 0.34972 0.08456 2.05500
P 	P 	0.18255 0.41876 0.88050 0.55600
P 	P 	0.33983 0.32680 0.72275 0.64900
O 	O 	0.15685 0.36713 0.96222 -0.68200
O 	O 	0.24655 0.42224 0.84372 -0.62600
O 	O 	0.13233 0.39144 0.79320 -0.46700
O 	O 	0.19433 0.48401 0.91080 -0.28600
O 	O 	0.33054 0.37523 0.78790 -0.68500
O 	O 	0.40827 0.36709 0.67474 -0.64400
O 	O 	0.33632 0.27161 0.78234 -0.59800
O 	O 	0.28967 0.30032 0.63961 -0.67600
N 	N 	0.16859 0.44436 0.13070 -0.41000
N 	N 	0.17577 0.33240 0.14870 -0.33000
N 	N 	0.06211 0.25099 0.05880 -0.44300
C 	C 	0.22870 0.44730 0.16890 -0.19700
C 	C 	0.21190 0.38490 0.22030 -0.06600
C 	C 	0.14200 0.26500 0.18320 -0.11300
C 	C 	0.10230 0.22370 0.09710 -0.06100
H 	H 	0.15250 0.45110 0.18670 0.12600
H 	H 	0.18260 0.47340 0.07830 0.13300
H 	H 	0.20550 0.33280 0.10450 0.11500
H 	H 	0.05510 0.24610 0.99230 0.11300
H 	H 	0.02650 0.22990 0.09170 0.16600
H 	H 	0.26040 0.45370 0.10950 0.07000
H 	H 	0.23830 0.47320 0.21420 0.11800
H 	H 	0.18420 0.38280 0.27570 0.04000
H 	H 	0.24890 0.37750 0.24370 0.06500
H 	H 	0.11300 0.26080 0.24280 0.05300
H 	H 	0.17010 0.24730 0.19550 0.05900
H 	H 	0.13060 0.23070 0.04300 0.05900
H 	H 	0.07570 0.17580 0.13210 0.06300
Ga	Ga	0.77356 0.68305 0.41789 2.05400
P 	P 	0.84922 0.75209 0.21383 0.55600
P 	P 	0.00650 0.66013 0.05608 0.66700
O 	O 	0.82352 0.70046 0.29555 -0.67400
O 	O 	0.91322 0.75557 0.17705 -0.62200
O 	O 	0.79900 0.72477 0.12653 -0.46300
O 	O 	0.86100 0.81734 0.24413 -0.28000
O 	O 	0.99721 0.70856 0.12123 -0.68700
O 	O 	0.07494 0.70042 0.00807 -0.63900
O 	O 	0.00299 0.60494 0.11567 -0.59600
O 	O 	0.95634 0.63365 0.97294 -0.69500
N 	N 	0.83526 0.77769 0.46403 -0.41000
N 	N 	0.84244 0.66573 0.48203 -0.33000
N 	N 	0.72878 0.58432 0.39213 -0.45500
C 	C 	0.89537 0.78063 0.50223 -0.19600
C 	C 	0.87857 0.71823 0.55363 -0.06700
C 	C 	0.80867 0.59833 0.51653 -0.11500
C 	C 	0.76897 0.55703 0.43043 -0.05800
H 	H 	0.81917 0.78443 0.52003 0.12500
H 	H 	0.84927 0.80673 0.41163 0.12900
H 	H 	0.87217 0.66613 0.43783 0.11300
H 	H 	0.72177 0.57943 0.32563 0.12400
H 	H 	0.69317 0.56323 0.42503 0.16500
H 	H 	0.92707 0.78703 0.44283 0.06600
H 	H 	0.90497 0.80653 0.54753 0.11600
H 	H 	0.85087 0.71613 0.60903 0.04000
H 	H 	0.91557 0.71083 0.57703 0.06400
H 	H 	0.77967 0.59413 0.57613 0.05300
H 	H 	0.83677 0.58063 0.52883 0.05900
H 	H 	0.79727 0.56403 0.37633 0.05300
H 	H 	0.74237 0.50913 0.46543 0.05900
Ga	Ga	0.44022 0.01639 0.75123 2.05300
P 	P 	0.51588 0.08543 0.54717 0.55600
P 	P 	0.67316 0.99347 0.38942 0.65800
O 	O 	0.49018 0.03380 0.62889 -0.67800
O 	O 	0.57988 0.08891 0.51039 -0.62400
O 	O 	0.46566 0.05811 0.45987 -0.47000
O 	O 	0.52766 0.15068 0.57747 -0.28100
O 	O 	0.66387 0.04190 0.45457 -0.68900
O 	O 	0.74160 0.03376 0.34141 -0.64900
O 	O 	0.66965 0.93828 0.44901 -0.59800
O 	O 	0.62300 0.96699 0.30628 -0.67600
N 	N 	0.50192 0.11103 0.79737 -0.41100
N 	N 	0.50910 0.99907 0.81537 -0.32500
N 	N 	0.39544 0.91766 0.72547 -0.45300
C 	C 	0.56203 0.11397 0.83557 -0.19200
C 	C 	0.54523 0.05157 0.88697 -0.07400
C 	C 	0.47533 0.93167 0.84987 -0.11300
C 	C 	0.43563 0.89037 0.76377 -0.05900
H 	H 	0.48583 0.11777 0.85337 0.12400
H 	H 	0.51593 0.14007 0.74497 0.12900
H 	H 	0.53883 0.99947 0.77117 0.11600
H 	H 	0.38843 0.91277 0.65897 0.12500
H 	H 	0.35983 0.89657 0.75837 0.16500
H 	H 	0.59373 0.12037 0.77617 0.06500
H 	H 	0.57163 0.13987 0.88087 0.11300
H 	H 	0.51753 0.04947 0.94237 0.03500
H 	H 	0.58223 0.04417 0.91037 0.06100
H 	H 	0.44633 0.92747 0.90947 0.05100
H 	H 	0.50343 0.91397 0.86217 0.05700
H 	H 	0.46393 0.89737 0.70967 0.05300
H 	H 	0.40903 0.84247 0.79877 0.05800
