data_crystal

_cell_length_a 20.04070
_cell_length_b 10.06740
_cell_length_c 18.92730
_cell_angle_alpha 90.00000
_cell_angle_beta  101.30000
_cell_angle_gamma 90.00000

_symmetry_space_group_name_	'P 1'
_symmetry_space_group_name_H-M	'P 1'

loop_
_symmetry_equiv_pos_as_xyz
  x,y,z

loop_
_atom_site_label
_atom_site_type_symbol
_atom_site_fract_x
_atom_site_fract_y
_atom_site_fract_z
_atom_site_charge
Cd	Cd	0.90519 0.94938 0.97380 1.24900
O 	O 	0.79174 0.89030 0.92129 -0.53400
O 	O 	0.85008 0.00020 0.85739 -0.39100
O 	O 	0.00426 0.91850 0.93373 -0.44800
O 	O 	0.89749 0.15930 0.00833 -0.45000
O 	O 	0.93494 0.77600 0.04125 -0.49400
C 	C 	0.79475 0.95160 0.86492 0.40200
O 	O 	0.65307 0.86190 0.99228 -0.43900
C 	C 	0.73356 0.96880 0.80664 -0.19300
C 	C 	0.73434 0.05720 0.75098 0.10800
C 	C 	0.67450 0.89990 0.80790 0.12700
H 	H 	0.77390 0.10420 0.74920 0.00300
C 	C 	0.67681 0.07710 0.69748 -0.17600
C 	C 	0.61710 0.91940 0.75520 -0.18900
H 	H 	0.67320 0.83940 0.84480 -0.03500
H 	H 	0.67850 0.13600 0.66010 0.07900
C 	C 	0.61704 0.00960 0.69962 0.12400
H 	H 	0.57780 0.87140 0.75690 0.09800
C 	C 	0.55406 0.03270 0.64522 -0.05600
C 	C 	0.53470 0.16160 0.62281 0.01400
C 	C 	0.51208 0.92790 0.61614 0.01700
H 	H 	0.56270 0.23260 0.64060 0.02000
C 	C 	0.47410 0.18530 0.57420 -0.11400
C 	C 	0.45126 0.95150 0.56869 -0.11900
H 	H 	0.52510 0.84110 0.62880 0.03800
C 	C 	0.43208 0.08020 0.54811 0.05700
C 	C 	0.45459 0.32350 0.54794 0.34100
C 	C 	0.40690 0.83680 0.53648 0.38600
H 	H 	0.39090 0.09580 0.51680 0.03700
Cd	Cd	0.40519 0.44938 0.97380 1.25300
O 	O 	0.29174 0.39030 0.92129 -0.53000
O 	O 	0.35008 0.50020 0.85739 -0.39100
O 	O 	0.50426 0.41850 0.93373 -0.44600
O 	O 	0.39749 0.65930 0.00833 -0.45400
O 	O 	0.43494 0.27600 0.04125 -0.49900
C 	C 	0.29475 0.45160 0.86492 0.40300
O 	O 	0.15307 0.36190 0.99228 -0.43500
C 	C 	0.23356 0.46880 0.80664 -0.18500
C 	C 	0.23434 0.55720 0.75098 0.09900
C 	C 	0.17450 0.39990 0.80790 0.12000
H 	H 	0.27390 0.60420 0.74920 0.00600
C 	C 	0.17681 0.57710 0.69748 -0.16900
C 	C 	0.11710 0.41940 0.75520 -0.18000
H 	H 	0.17320 0.33940 0.84480 -0.03200
H 	H 	0.17850 0.63600 0.66010 0.07700
C 	C 	0.11704 0.50960 0.69962 0.11600
H 	H 	0.07780 0.37140 0.75690 0.09600
C 	C 	0.05406 0.53270 0.64522 -0.05400
C 	C 	0.03470 0.66160 0.62281 0.01100
C 	C 	0.01208 0.42790 0.61614 0.01500
H 	H 	0.06270 0.73260 0.64060 0.02000
C 	C 	0.97410 0.68530 0.57420 -0.11200
C 	C 	0.95126 0.45150 0.56869 -0.11600
H 	H 	0.02510 0.34110 0.62880 0.03900
C 	C 	0.93208 0.58020 0.54811 0.05300
C 	C 	0.95459 0.82350 0.54794 0.34000
C 	C 	0.90690 0.33680 0.53648 0.38500
H 	H 	0.89090 0.59580 0.51680 0.03800
Cd	Cd	0.09481 0.94938 0.52620 1.22800
O 	O 	0.20826 0.89030 0.57871 -0.56100
O 	O 	0.14992 0.00020 0.64261 -0.40100
O 	O 	0.99574 0.91850 0.56627 -0.46900
O 	O 	0.10251 0.15930 0.49167 -0.41600
O 	O 	0.06506 0.77600 0.45875 -0.46800
C 	C 	0.20525 0.95160 0.63508 0.41100
O 	O 	0.34693 0.86190 0.50772 -0.47600
C 	C 	0.26644 0.96880 0.69336 -0.20400
C 	C 	0.26566 0.05720 0.74902 0.11700
C 	C 	0.32550 0.89990 0.69210 0.13600
H 	H 	0.22610 0.10420 0.75080 0.00100
C 	C 	0.32319 0.07710 0.80252 -0.18100
C 	C 	0.38290 0.91940 0.74480 -0.19500
H 	H 	0.32680 0.83940 0.65520 -0.04200
H 	H 	0.32150 0.13600 0.83990 0.09100
C 	C 	0.38296 0.00960 0.80038 0.13100
H 	H 	0.42220 0.87140 0.74310 0.10100
C 	C 	0.44594 0.03270 0.85478 -0.04600
C 	C 	0.46530 0.16160 0.87719 0.01500
C 	C 	0.48792 0.92790 0.88386 0.01600
H 	H 	0.43730 0.23260 0.85940 0.02300
C 	C 	0.52590 0.18530 0.92580 -0.09500
C 	C 	0.54874 0.95150 0.93131 -0.10100
H 	H 	0.47490 0.84110 0.87120 0.04500
C 	C 	0.56792 0.08020 0.95189 0.05500
C 	C 	0.54541 0.32350 0.95206 0.34000
C 	C 	0.59310 0.83680 0.96352 0.38300
H 	H 	0.60910 0.09580 0.98320 0.05500
Cd	Cd	0.59481 0.44938 0.52620 1.22800
O 	O 	0.70826 0.39030 0.57871 -0.56100
O 	O 	0.64992 0.50020 0.64261 -0.40300
O 	O 	0.49574 0.41850 0.56627 -0.46900
O 	O 	0.60251 0.65930 0.49167 -0.41600
O 	O 	0.56506 0.27600 0.45875 -0.46700
C 	C 	0.70525 0.45160 0.63508 0.41000
O 	O 	0.84693 0.36190 0.50772 -0.47500
C 	C 	0.76644 0.46880 0.69336 -0.19500
C 	C 	0.76566 0.55720 0.74902 0.10700
C 	C 	0.82550 0.39990 0.69210 0.12800
H 	H 	0.72610 0.60420 0.75080 0.00400
C 	C 	0.82319 0.57710 0.80252 -0.17200
C 	C 	0.88290 0.41940 0.74480 -0.18400
H 	H 	0.82680 0.33940 0.65520 -0.03900
H 	H 	0.82150 0.63600 0.83990 0.08700
C 	C 	0.88296 0.50960 0.80038 0.12100
H 	H 	0.92220 0.37140 0.74310 0.09700
C 	C 	0.94594 0.53270 0.85478 -0.04000
C 	C 	0.96530 0.66160 0.87719 0.00400
C 	C 	0.98792 0.42790 0.88386 0.00700
H 	H 	0.93730 0.73260 0.85940 0.02600
C 	C 	0.02590 0.68530 0.92580 -0.08800
C 	C 	0.04874 0.45150 0.93131 -0.08900
H 	H 	0.97490 0.34110 0.87120 0.04800
C 	C 	0.06792 0.58020 0.95189 0.04300
C 	C 	0.04541 0.82350 0.95206 0.33700
C 	C 	0.09310 0.33680 0.96352 0.37900
H 	H 	0.10910 0.59580 0.98320 0.05800
Cd	Cd	0.09481 0.05062 0.02620 1.20400
O 	O 	0.20826 0.10970 0.07871 -0.58300
O 	O 	0.14992 0.99980 0.14261 -0.41700
O 	O 	0.99574 0.08150 0.06627 -0.48700
O 	O 	0.10251 0.84070 0.99167 -0.37700
O 	O 	0.06506 0.22400 0.95875 -0.43000
C 	C 	0.20525 0.04840 0.13508 0.41500
O 	O 	0.34693 0.13810 0.00772 -0.50500
C 	C 	0.26644 0.03120 0.19336 -0.20300
C 	C 	0.26566 0.94280 0.24902 0.10800
C 	C 	0.32550 0.10010 0.19210 0.13200
H 	H 	0.22610 0.89580 0.25080 -0.00100
C 	C 	0.32319 0.92290 0.30252 -0.17900
C 	C 	0.38290 0.08060 0.24480 -0.18900
H 	H 	0.32680 0.16060 0.15520 -0.04300
H 	H 	0.32150 0.86400 0.33990 0.07900
C 	C 	0.38296 0.99040 0.30038 0.12300
H 	H 	0.42220 0.12860 0.24310 0.09800
C 	C 	0.44594 0.96730 0.35478 -0.06000
C 	C 	0.46530 0.83840 0.37719 0.01500
C 	C 	0.48792 0.07210 0.38386 0.02000
H 	H 	0.43730 0.76740 0.35940 0.01800
C 	C 	0.52590 0.81470 0.42580 -0.11400
C 	C 	0.54874 0.04850 0.43131 -0.11700
H 	H 	0.47490 0.15890 0.37120 0.03700
C 	C 	0.56792 0.91980 0.45189 0.05300
C 	C 	0.54541 0.67650 0.45206 0.34000
C 	C 	0.59310 0.16320 0.46352 0.38600
H 	H 	0.60910 0.90420 0.48320 0.03700
Cd	Cd	0.59481 0.55062 0.02620 1.20500
O 	O 	0.70826 0.60970 0.07871 -0.58200
O 	O 	0.64992 0.49980 0.14261 -0.41500
O 	O 	0.49574 0.58150 0.06627 -0.49100
O 	O 	0.60251 0.34070 0.99167 -0.37800
O 	O 	0.56506 0.72400 0.95875 -0.43300
C 	C 	0.70525 0.54840 0.13508 0.41500
O 	O 	0.84693 0.63810 0.00772 -0.50200
C 	C 	0.76644 0.53120 0.19336 -0.20500
C 	C 	0.76566 0.44280 0.24902 0.11100
C 	C 	0.82550 0.60010 0.19210 0.13500
H 	H 	0.72610 0.39580 0.25080 -0.00200
C 	C 	0.82319 0.42290 0.30252 -0.18200
C 	C 	0.88290 0.58060 0.24480 -0.19300
H 	H 	0.82680 0.66060 0.15520 -0.04400
H 	H 	0.82150 0.36400 0.33990 0.08000
C 	C 	0.88296 0.49040 0.30038 0.12700
H 	H 	0.92220 0.62860 0.24310 0.10000
C 	C 	0.94594 0.46730 0.35478 -0.06300
C 	C 	0.96530 0.33840 0.37719 0.02200
C 	C 	0.98792 0.57210 0.38386 0.02600
H 	H 	0.93730 0.26740 0.35940 0.01700
C 	C 	0.02590 0.31470 0.42580 -0.12100
C 	C 	0.04874 0.54850 0.43131 -0.12400
H 	H 	0.97490 0.65890 0.37120 0.03500
C 	C 	0.06792 0.41980 0.45189 0.06000
C 	C 	0.04541 0.17650 0.45206 0.34200
C 	C 	0.09310 0.66320 0.46352 0.38800
H 	H 	0.10910 0.40420 0.48320 0.03600
Cd	Cd	0.90519 0.05062 0.47380 1.22900
O 	O 	0.79174 0.10970 0.42129 -0.56100
O 	O 	0.85008 0.99980 0.35739 -0.40500
O 	O 	0.00426 0.08150 0.43373 -0.47000
O 	O 	0.89749 0.84070 0.50833 -0.41600
O 	O 	0.93494 0.22400 0.54125 -0.46600
C 	C 	0.79475 0.04840 0.36492 0.41100
O 	O 	0.65307 0.13810 0.49228 -0.47500
C 	C 	0.73356 0.03120 0.30664 -0.19600
C 	C 	0.73434 0.94280 0.25098 0.10100
C 	C 	0.67450 0.10010 0.30790 0.12600
H 	H 	0.77390 0.89580 0.24920 0.00100
C 	C 	0.67681 0.92290 0.19748 -0.17600
C 	C 	0.61710 0.08060 0.25520 -0.18600
H 	H 	0.67320 0.16060 0.34480 -0.03900
H 	H 	0.67850 0.86400 0.16010 0.07000
C 	C 	0.61704 0.99040 0.19962 0.11700
H 	H 	0.57780 0.12860 0.25690 0.09700
C 	C 	0.55406 0.96730 0.14522 -0.06800
C 	C 	0.53470 0.83840 0.12281 0.01500
C 	C 	0.51208 0.07210 0.11614 0.02100
H 	H 	0.56270 0.76740 0.14060 0.01500
C 	C 	0.47410 0.81470 0.07420 -0.13400
C 	C 	0.45126 0.04850 0.06869 -0.13700
H 	H 	0.52510 0.15890 0.12880 0.03000
C 	C 	0.43208 0.91980 0.04811 0.05900
C 	C 	0.45459 0.67650 0.04794 0.34200
C 	C 	0.40690 0.16320 0.03648 0.38800
H 	H 	0.39090 0.90420 0.01680 0.02000
Cd	Cd	0.40519 0.55062 0.47380 1.22800
O 	O 	0.29174 0.60970 0.42129 -0.56100
O 	O 	0.35008 0.49980 0.35739 -0.40400
O 	O 	0.50426 0.58150 0.43373 -0.46900
O 	O 	0.39749 0.34070 0.50833 -0.41600
O 	O 	0.43494 0.72400 0.54125 -0.46600
C 	C 	0.29475 0.54840 0.36492 0.40900
O 	O 	0.15307 0.63810 0.49228 -0.47600
C 	C 	0.23356 0.53120 0.30664 -0.19400
C 	C 	0.23434 0.44280 0.25098 0.09900
C 	C 	0.17450 0.60010 0.30790 0.12400
H 	H 	0.27390 0.39580 0.24920 0.00200
C 	C 	0.17681 0.42290 0.19748 -0.17300
C 	C 	0.11710 0.58060 0.25520 -0.18300
H 	H 	0.17320 0.66060 0.34480 -0.03800
H 	H 	0.17850 0.36400 0.16010 0.06800
C 	C 	0.11704 0.49040 0.19962 0.11200
H 	H 	0.07780 0.62860 0.25690 0.09500
C 	C 	0.05406 0.46730 0.14522 -0.05800
C 	C 	0.03470 0.33840 0.12281 -0.00100
C 	C 	0.01208 0.57210 0.11614 0.00300
H 	H 	0.06270 0.26740 0.14060 0.01900
C 	C 	0.97410 0.31470 0.07420 -0.12000
C 	C 	0.95126 0.54850 0.06869 -0.12300
H 	H 	0.02510 0.65890 0.12880 0.03400
C 	C 	0.93208 0.41980 0.04811 0.04800
C 	C 	0.95459 0.17650 0.04794 0.33700
C 	C 	0.90690 0.66320 0.03648 0.38400
H 	H 	0.89090 0.40420 0.01680 0.02400
Cd	Cd	0.75000 0.75000 -0.00000 1.17700
Cd	Cd	0.25000 0.25000 -0.00000 1.17500
Cd	Cd	0.25000 0.75000 0.50000 1.19900
Cd	Cd	0.75000 0.25000 0.50000 1.19900
