data_crystal

_cell_length_a 14.89520
_cell_length_b 9.71330
_cell_length_c 13.68780
_cell_angle_alpha 90.00000
_cell_angle_beta  90.00000
_cell_angle_gamma 90.00000

_symmetry_space_group_name_	'P 1'
_symmetry_space_group_name_H-M	'P 1'

loop_
_symmetry_equiv_pos_as_xyz
  x,y,z

loop_
_atom_site_label
_atom_site_type_symbol
_atom_site_fract_x
_atom_site_fract_y
_atom_site_fract_z
_atom_site_charge
O 	O 	0.08541 0.30404 0.36939 -0.43100
O 	O 	0.10816 0.14201 0.65694 -0.45500
O 	O 	0.58541 0.80404 0.36939 -0.42400
O 	O 	0.60816 0.64201 0.65694 -0.43500
O 	O 	0.91459 0.69596 0.86939 -0.30700
O 	O 	0.89184 0.85799 0.15694 -0.36000
O 	O 	0.41459 0.19596 0.86939 -0.43000
O 	O 	0.39184 0.35799 0.15694 -0.44000
O 	O 	0.91459 0.30404 0.13061 -0.30700
O 	O 	0.89184 0.14201 0.84306 -0.36000
O 	O 	0.41459 0.80404 0.13061 -0.43000
O 	O 	0.39184 0.64201 0.84306 -0.44000
O 	O 	0.08541 0.69596 0.63061 -0.43200
O 	O 	0.10816 0.85799 0.34306 -0.45600
O 	O 	0.58541 0.19596 0.63061 -0.42500
O 	O 	0.60816 0.35799 0.34306 -0.43600
O 	O 	0.91459 0.69596 0.63061 -0.30600
O 	O 	0.89184 0.85799 0.34306 -0.35800
O 	O 	0.41459 0.19596 0.63061 -0.42900
O 	O 	0.39184 0.35799 0.34306 -0.44000
O 	O 	0.08541 0.30404 0.13061 -0.43200
O 	O 	0.10816 0.14201 0.84306 -0.45700
O 	O 	0.58541 0.80404 0.13061 -0.42600
O 	O 	0.60816 0.64201 0.84306 -0.43600
O 	O 	0.08541 0.69596 0.86939 -0.43200
O 	O 	0.10816 0.85799 0.15694 -0.45700
O 	O 	0.58541 0.19596 0.86939 -0.42600
O 	O 	0.60816 0.35799 0.15694 -0.43600
O 	O 	0.91459 0.30404 0.36939 -0.30600
O 	O 	0.89184 0.14201 0.65694 -0.35800
O 	O 	0.41459 0.80404 0.36939 -0.42900
O 	O 	0.39184 0.64201 0.65694 -0.44000
Co	Co	-0.00000 0.04940 0.61247 1.07300
P 	P 	-0.00000 0.27469 0.42756 0.38300
O 	O 	-0.00000 0.12570 0.46554 -0.59700
O 	O 	-0.00000 0.37130 0.51825 -0.21000
Co	Co	0.50000 0.54940 0.61247 1.11700
P 	P 	0.50000 0.77469 0.42756 0.49500
O 	O 	0.50000 0.62570 0.46554 -0.56800
O 	O 	0.50000 0.87130 0.51825 -0.16900
Co	Co	0.00000 0.95060 0.11247 1.07200
P 	P 	0.00000 0.72531 0.92756 0.38500
O 	O 	0.00000 0.87430 0.96554 -0.59500
O 	O 	-0.00000 0.62870 0.01825 -0.21200
Co	Co	0.50000 0.45060 0.11247 1.11700
P 	P 	0.50000 0.22531 0.92756 0.49100
O 	O 	0.50000 0.37430 0.96554 -0.56900
O 	O 	0.50000 0.12870 0.01825 -0.16600
Co	Co	-0.00000 0.04940 0.88753 1.07200
P 	P 	0.00000 0.27469 0.07244 0.38500
O 	O 	0.00000 0.12570 0.03446 -0.59500
O 	O 	0.00000 0.37130 0.98175 -0.21200
Co	Co	0.50000 0.54940 0.88753 1.11700
P 	P 	0.50000 0.77469 0.07244 0.49100
O 	O 	0.50000 0.62570 0.03446 -0.56900
O 	O 	0.50000 0.87130 0.98175 -0.16600
Co	Co	-0.00000 0.95060 0.38753 1.07300
P 	P 	-0.00000 0.72531 0.57244 0.38300
O 	O 	0.00000 0.87430 0.53446 -0.59700
O 	O 	-0.00000 0.62870 0.48175 -0.21000
Co	Co	0.50000 0.45060 0.38753 1.11700
P 	P 	0.50000 0.22531 0.57244 0.49500
O 	O 	0.50000 0.37430 0.53446 -0.56800
O 	O 	0.50000 0.12870 0.48175 -0.16900
Co	Co	0.12905 0.21451 0.25000 1.12500
Co	Co	0.62905 0.71451 0.25000 1.13600
Co	Co	0.87095 0.78549 0.75000 1.15600
Co	Co	0.37095 0.28549 0.75000 1.13500
Co	Co	0.87095 0.21451 0.25000 1.15600
Co	Co	0.37095 0.71451 0.25000 1.13500
Co	Co	0.12905 0.78549 0.75000 1.12500
Co	Co	0.62905 0.28549 0.75000 1.13600
P 	P 	0.16276 0.11257 0.75000 0.51500
O 	O 	0.19329 0.96090 0.75000 -0.44600
O 	O 	0.24514 0.20390 0.75000 -0.34300
P 	P 	0.66276 0.61257 0.75000 0.52200
O 	O 	0.69329 0.46090 0.75000 -0.43600
O 	O 	0.74514 0.70390 0.75000 -0.33300
P 	P 	0.83724 0.88743 0.25000 0.51800
O 	O 	0.80671 0.03910 0.25000 -0.42400
O 	O 	0.75486 0.79610 0.25000 -0.33100
P 	P 	0.33724 0.38743 0.25000 0.52100
O 	O 	0.30671 0.53910 0.25000 -0.45000
O 	O 	0.25486 0.29610 0.25000 -0.34400
P 	P 	0.83724 0.11257 0.75000 0.51800
O 	O 	0.80671 0.96090 0.75000 -0.42400
O 	O 	0.75486 0.20390 0.75000 -0.33100
P 	P 	0.33724 0.61257 0.75000 0.52100
O 	O 	0.30671 0.46090 0.75000 -0.45000
O 	O 	0.25486 0.70390 0.75000 -0.34400
P 	P 	0.16276 0.88743 0.25000 0.51500
O 	O 	0.19329 0.03910 0.25000 -0.44600
O 	O 	0.24514 0.79610 0.25000 -0.34300
P 	P 	0.66276 0.38743 0.25000 0.52200
O 	O 	0.69329 0.53910 0.25000 -0.43600
O 	O 	0.74514 0.29610 0.25000 -0.33300
