data_crystal

_cell_length_a 16.69390
_cell_length_b 16.69390
_cell_length_c 16.69390
_cell_angle_alpha 117.06050
_cell_angle_beta  117.06050
_cell_angle_gamma 117.06050

_symmetry_space_group_name_	'P 1'
_symmetry_space_group_name_H-M	'P 1'

loop_
_symmetry_equiv_pos_as_xyz
  x,y,z

loop_
_atom_site_label
_atom_site_type_symbol
_atom_site_fract_x
_atom_site_fract_y
_atom_site_fract_z
_atom_site_charge
C 	C 	0.14270 0.03970 0.33560 -0.23400
H 	H 	0.23950 0.09970 0.37920 0.11300
H 	H 	0.08170 0.02710 0.26580 0.09700
C 	C 	0.30510 0.30200 0.57810 -0.32000
H 	H 	0.27610 0.30150 0.51250 0.12400
H 	H 	0.41590 0.37160 0.65720 0.13100
C 	C 	0.29620 0.36920 0.66680 0.38200
C 	C 	0.82900 0.73070 0.11440 -0.23000
H 	H 	0.78420 0.73080 0.05200 0.10100
H 	H 	0.75150 0.61800 0.03850 0.09200
C 	C 	0.69540 0.71340 0.14740 -0.33000
H 	H 	0.63190 0.61470 0.10110 0.12100
H 	H 	0.63240 0.68170 0.05880 0.12800
C 	C 	0.72710 0.81800 0.26580 0.37200
N 	N 	0.19100 0.13200 0.47070 -0.17700
H 	H 	0.24630 0.14020 0.53260 0.09000
N 	N 	0.84960 0.80230 0.22950 -0.17500
H 	H 	0.88240 0.79080 0.27810 0.08100
O 	O 	0.09980 0.86530 0.33600 -0.32500
O 	O 	0.98600 0.75900 0.09140 -0.33600
O 	O 	0.17570 0.26650 0.61400 -0.43200
O 	O 	0.40150 0.51540 0.78040 -0.35500
O 	O 	0.87190 0.97020 0.40200 -0.44100
O 	O 	0.61100 0.75140 0.22230 -0.39000
P 	P 	0.01822 0.84022 0.21646 0.36100
K 	K 	0.38354 0.07168 0.63008 0.63700
Cu	Cu	0.01216 0.03959 0.41213 0.91500
C 	C 	0.33560 0.14270 0.03970 -0.23400
H 	H 	0.37920 0.23950 0.09970 0.11300
H 	H 	0.26580 0.08170 0.02710 0.09700
C 	C 	0.57810 0.30510 0.30200 -0.32000
H 	H 	0.51250 0.27610 0.30150 0.12400
H 	H 	0.65720 0.41590 0.37160 0.13100
C 	C 	0.66680 0.29620 0.36920 0.38200
C 	C 	0.11440 0.82900 0.73070 -0.23000
H 	H 	0.05200 0.78420 0.73080 0.10100
H 	H 	0.03850 0.75150 0.61800 0.09200
C 	C 	0.14740 0.69540 0.71340 -0.33000
H 	H 	0.10110 0.63190 0.61470 0.12100
H 	H 	0.05880 0.63240 0.68170 0.12800
C 	C 	0.26580 0.72710 0.81800 0.37200
N 	N 	0.47070 0.19100 0.13200 -0.17700
H 	H 	0.53260 0.24630 0.14020 0.09000
N 	N 	0.22950 0.84960 0.80230 -0.17500
H 	H 	0.27810 0.88240 0.79080 0.08100
O 	O 	0.33600 0.09980 0.86530 -0.32500
O 	O 	0.09140 0.98600 0.75900 -0.33600
O 	O 	0.61400 0.17570 0.26650 -0.43200
O 	O 	0.78040 0.40150 0.51540 -0.35500
O 	O 	0.40200 0.87190 0.97020 -0.44100
O 	O 	0.22230 0.61100 0.75140 -0.39000
P 	P 	0.21646 0.01822 0.84022 0.36100
K 	K 	0.63008 0.38354 0.07168 0.63700
Cu	Cu	0.41213 0.01216 0.03959 0.91500
C 	C 	0.03970 0.33560 0.14270 -0.23400
H 	H 	0.09970 0.37920 0.23950 0.11300
H 	H 	0.02710 0.26580 0.08170 0.09700
C 	C 	0.30200 0.57810 0.30510 -0.32000
H 	H 	0.30150 0.51250 0.27610 0.12400
H 	H 	0.37160 0.65720 0.41590 0.13100
C 	C 	0.36920 0.66680 0.29620 0.38200
C 	C 	0.73070 0.11440 0.82900 -0.23000
H 	H 	0.73080 0.05200 0.78420 0.10100
H 	H 	0.61800 0.03850 0.75150 0.09200
C 	C 	0.71340 0.14740 0.69540 -0.33000
H 	H 	0.61470 0.10110 0.63190 0.12100
H 	H 	0.68170 0.05880 0.63240 0.12800
C 	C 	0.81800 0.26580 0.72710 0.37200
N 	N 	0.13200 0.47070 0.19100 -0.17700
H 	H 	0.14020 0.53260 0.24630 0.09000
N 	N 	0.80230 0.22950 0.84960 -0.17500
H 	H 	0.79080 0.27810 0.88240 0.08100
O 	O 	0.86530 0.33600 0.09980 -0.32500
O 	O 	0.75900 0.09140 0.98600 -0.33600
O 	O 	0.26650 0.61400 0.17570 -0.43200
O 	O 	0.51540 0.78040 0.40150 -0.35500
O 	O 	0.97020 0.40200 0.87190 -0.44100
O 	O 	0.75140 0.22230 0.61100 -0.39000
P 	P 	0.84022 0.21646 0.01822 0.36100
K 	K 	0.07168 0.63008 0.38354 0.63700
Cu	Cu	0.03959 0.41213 0.01216 0.91500
C 	C 	0.85730 0.96030 0.66440 -0.23400
H 	H 	0.76050 0.90030 0.62080 0.11300
H 	H 	0.91830 0.97290 0.73420 0.09700
C 	C 	0.69490 0.69800 0.42190 -0.32000
H 	H 	0.72390 0.69850 0.48750 0.12400
H 	H 	0.58410 0.62840 0.34280 0.13100
C 	C 	0.70380 0.63080 0.33320 0.38200
C 	C 	0.17100 0.26930 0.88560 -0.23000
H 	H 	0.21580 0.26920 0.94800 0.10100
H 	H 	0.24850 0.38200 0.96150 0.09200
C 	C 	0.30460 0.28660 0.85260 -0.33000
H 	H 	0.36810 0.38530 0.89890 0.12100
H 	H 	0.36760 0.31830 0.94120 0.12800
C 	C 	0.27290 0.18200 0.73420 0.37200
N 	N 	0.80900 0.86800 0.52930 -0.17700
H 	H 	0.75370 0.85980 0.46740 0.09000
N 	N 	0.15040 0.19770 0.77050 -0.17500
H 	H 	0.11760 0.20920 0.72190 0.08100
O 	O 	0.90020 0.13470 0.66400 -0.32500
O 	O 	0.01400 0.24100 0.90860 -0.33600
O 	O 	0.82430 0.73350 0.38600 -0.43200
O 	O 	0.59850 0.48460 0.21960 -0.35500
O 	O 	0.12810 0.02980 0.59800 -0.44100
O 	O 	0.38900 0.24860 0.77770 -0.39000
P 	P 	0.98178 0.15978 0.78354 0.36100
K 	K 	0.61646 0.92832 0.36992 0.63700
Cu	Cu	0.98784 0.96041 0.58787 0.91500
C 	C 	0.66440 0.85730 0.96030 -0.23400
H 	H 	0.62080 0.76050 0.90030 0.11300
H 	H 	0.73420 0.91830 0.97290 0.09700
C 	C 	0.42190 0.69490 0.69800 -0.32000
H 	H 	0.48750 0.72390 0.69850 0.12400
H 	H 	0.34280 0.58410 0.62840 0.13100
C 	C 	0.33320 0.70380 0.63080 0.38200
C 	C 	0.88560 0.17100 0.26930 -0.23000
H 	H 	0.94800 0.21580 0.26920 0.10100
H 	H 	0.96150 0.24850 0.38200 0.09200
C 	C 	0.85260 0.30460 0.28660 -0.33000
H 	H 	0.89890 0.36810 0.38530 0.12100
H 	H 	0.94120 0.36760 0.31830 0.12800
C 	C 	0.73420 0.27290 0.18200 0.37200
N 	N 	0.52930 0.80900 0.86800 -0.17700
H 	H 	0.46740 0.75370 0.85980 0.09000
N 	N 	0.77050 0.15040 0.19770 -0.17500
H 	H 	0.72190 0.11760 0.20920 0.08100
O 	O 	0.66400 0.90020 0.13470 -0.32500
O 	O 	0.90860 0.01400 0.24100 -0.33600
O 	O 	0.38600 0.82430 0.73350 -0.43200
O 	O 	0.21960 0.59850 0.48460 -0.35500
O 	O 	0.59800 0.12810 0.02980 -0.44100
O 	O 	0.77770 0.38900 0.24860 -0.39000
P 	P 	0.78354 0.98178 0.15978 0.36100
K 	K 	0.36992 0.61646 0.92832 0.63700
Cu	Cu	0.58787 0.98784 0.96041 0.91500
C 	C 	0.96030 0.66440 0.85730 -0.23400
H 	H 	0.90030 0.62080 0.76050 0.11300
H 	H 	0.97290 0.73420 0.91830 0.09700
C 	C 	0.69800 0.42190 0.69490 -0.32000
H 	H 	0.69850 0.48750 0.72390 0.12400
H 	H 	0.62840 0.34280 0.58410 0.13100
C 	C 	0.63080 0.33320 0.70380 0.38200
C 	C 	0.26930 0.88560 0.17100 -0.23000
H 	H 	0.26920 0.94800 0.21580 0.10100
H 	H 	0.38200 0.96150 0.24850 0.09200
C 	C 	0.28660 0.85260 0.30460 -0.33000
H 	H 	0.38530 0.89890 0.36810 0.12100
H 	H 	0.31830 0.94120 0.36760 0.12800
C 	C 	0.18200 0.73420 0.27290 0.37200
N 	N 	0.86800 0.52930 0.80900 -0.17700
H 	H 	0.85980 0.46740 0.75370 0.09000
N 	N 	0.19770 0.77050 0.15040 -0.17500
H 	H 	0.20920 0.72190 0.11760 0.08100
O 	O 	0.13470 0.66400 0.90020 -0.32500
O 	O 	0.24100 0.90860 0.01400 -0.33600
O 	O 	0.73350 0.38600 0.82430 -0.43200
O 	O 	0.48460 0.21960 0.59850 -0.35500
O 	O 	0.02980 0.59800 0.12810 -0.44100
O 	O 	0.24860 0.77770 0.38900 -0.39000
P 	P 	0.15978 0.78354 0.98178 0.36100
K 	K 	0.92832 0.36992 0.61646 0.63700
Cu	Cu	0.96041 0.58787 0.98784 0.91500
