data_crystal

_cell_length_a 37.24100
_cell_length_b 19.21700
_cell_length_c 25.54700
_cell_angle_alpha 90.00000
_cell_angle_beta  132.41000
_cell_angle_gamma 90.00000

_symmetry_space_group_name_	'P 1'
_symmetry_space_group_name_H-M	'P 1'

loop_
_symmetry_equiv_pos_as_xyz
  x,y,z

loop_
_atom_site_label
_atom_site_type_symbol
_atom_site_fract_x
_atom_site_fract_y
_atom_site_fract_z
_atom_site_charge
Zn	Zn	0.65848 0.25298 0.54768 1.17100
Zn	Zn	0.34697 0.43461 0.45702 1.16800
Zn	Zn	0.67584 0.25137 0.79848 1.17200
Zn	Zn	0.67144 0.56307 0.79495 1.17000
N 	N 	0.65260 0.22460 0.61560 -0.29800
N 	N 	0.32210 0.64840 0.44000 -0.30000
N 	N 	0.32580 0.53230 0.44520 -0.30100
N 	N 	0.41110 0.41970 0.55430 -0.29700
N 	N 	0.46804 0.37930 0.66380 -0.29600
N 	N 	0.29550 0.37450 0.43830 -0.29300
N 	N 	0.22950 0.30870 0.37660 -0.29600
N 	N 	0.61760 0.23920 0.78470 -0.29600
N 	N 	0.69600 0.34930 0.82420 -0.29900
N 	N 	0.69500 0.46630 0.82300 -0.29400
N 	N 	0.77580 0.12650 0.62890 -0.29200
N 	N 	0.71130 0.19570 0.56850 -0.29400
N 	N 	0.34400 0.40720 0.29220 -0.30400
N 	N 	0.35060 0.40760 0.38510 -0.29300
N 	N 	0.61640 0.56770 0.79090 -0.30100
N 	N 	0.55150 0.60390 0.77190 -0.29400
N 	N 	0.53450 0.27690 0.33590 -0.29700
C 	C 	0.34320 0.59070 0.44380 0.11500
H 	H 	0.36890 0.59160 0.44540 -0.06900
C 	C 	0.28740 0.62300 0.43800 -0.00800
H 	H 	0.26510 0.65000 0.43430 -0.00600
C 	C 	0.28960 0.55230 0.44200 -0.01800
H 	H 	0.26980 0.52320 0.44250 -0.00300
C 	C 	0.42250 0.37630 0.60430 0.09900
H 	H 	0.40010 0.34630 0.59750 -0.06200
C 	C 	0.45290 0.45200 0.58440 -0.00600
H 	H 	0.45730 0.48580 0.56310 -0.01200
C 	C 	0.48820 0.42700 0.65190 -0.00900
H 	H 	0.52070 0.44060 0.68400 -0.00600
C 	C 	0.26200 0.34010 0.37970 0.10500
H 	H 	0.26130 0.33820 0.34270 -0.06700
C 	C 	0.28290 0.36440 0.47710 -0.01000
H 	H 	0.29940 0.38210 0.52220 -0.00200
C 	C 	0.24320 0.32520 0.43990 -0.00800
H 	H 	0.22730 0.31110 0.45460 -0.00200
C 	C 	0.67450 0.40730 0.78650 0.10100
H 	H 	0.64720 0.40670 0.73820 -0.06600
C 	C 	0.73310 0.44330 0.89090 -0.02100
H 	H 	0.75490 0.47130 0.93050 0.00500
C 	C 	0.73320 0.37300 0.89020 -0.00200
H 	H 	0.75570 0.34500 0.92950 -0.00500
C 	C 	0.74290 0.15730 0.62580 0.09900
H 	H 	0.74190 0.15250 0.66100 -0.06200
C 	C 	0.76470 0.14920 0.56870 -0.00500
H 	H 	0.78170 0.13700 0.55520 -0.00100
C 	C 	0.72710 0.19020 0.53310 -0.01200
H 	H 	0.71310 0.21220 0.49060 -0.00200
C 	C 	0.34450 0.44410 0.33630 0.10600
H 	H 	0.34090 0.49230 0.33300 -0.06700
C 	C 	0.34930 0.34130 0.31330 0.00500
H 	H 	0.35000 0.30260 0.29210 -0.01400
C 	C 	0.35350 0.33970 0.37010 -0.02800
H 	H 	0.35750 0.30010 0.39460 -0.00100
C 	C 	0.58170 0.61260 0.76100 0.11000
H 	H 	0.57790 0.64890 0.73360 -0.06700
C 	C 	0.60860 0.52470 0.82360 -0.00300
H 	H 	0.62770 0.48620 0.85060 -0.01100
C 	C 	0.56950 0.54520 0.81160 -0.01900
H 	H 	0.55650 0.52280 0.82790 0.00200
N 	N 	0.66100 0.22320 0.71110 -0.29300
N 	N 	0.55140 0.26420 0.76720 -0.29300
N 	N 	0.59540 0.24510 0.44900 -0.28700
C 	C 	0.66720 0.25810 0.67210 0.09600
H 	H 	0.68070 0.30240 0.68410 -0.06200
C 	C 	0.57840 0.29250 0.39830 0.07400
H 	H 	0.59550 0.33240 0.40590 -0.05400
C 	C 	0.59000 0.28740 0.77930 0.10100
H 	H 	0.59710 0.33460 0.78360 -0.06500
C 	C 	0.63160 0.16900 0.66780 -0.01400
H 	H 	0.61790 0.13630 0.67690 0.00000
C 	C 	0.62590 0.17090 0.60950 -0.01300
H 	H 	0.60680 0.14050 0.57120 0.00100
C 	C 	0.60620 0.18180 0.80270 -0.00500
H 	H 	0.62230 0.13930 0.81780 -0.00300
C 	C 	0.56700 0.19790 0.79460 -0.00300
H 	H 	0.55300 0.16880 0.80570 -0.00200
C 	C 	0.52880 0.20890 0.34500 0.27400
H 	H 	0.50250 0.18110 0.30980 -0.08900
C 	C 	0.56690 0.18720 0.41270 0.28400
H 	H 	0.57240 0.14250 0.43070 -0.10300
C 	C 	0.34660 0.84350 0.31330 0.00200
H 	H 	0.34700 0.88310 0.29280 -0.00800
C 	C 	0.35320 0.84190 0.37240 0.00700
H 	H 	0.36070 0.88020 0.40050 -0.01000
C 	C 	0.08770 0.31810 0.25590 -0.00800
H 	H 	0.09380 0.36030 0.24540 -0.00400
C 	C 	0.04740 0.30270 0.24540 -0.00900
H 	H 	0.02150 0.33260 0.22650 -0.00500
C 	C 	0.01620 0.72750 0.35110 -1.23400
H 	H 	0.98430 0.71130 0.32090 0.44000
C 	C 	0.05420 0.70670 0.41970 -1.52700
H 	H 	0.05240 0.67170 0.44310 0.47000
Zn	Zn	0.15848 0.75298 0.54768 1.17100
Zn	Zn	0.84697 0.93461 0.45702 1.16900
Zn	Zn	0.17584 0.75137 0.79848 1.17300
Zn	Zn	0.17144 0.06307 0.79495 1.17000
N 	N 	0.15260 0.72460 0.61560 -0.29200
N 	N 	0.82210 0.14840 0.44000 -0.30100
N 	N 	0.82580 0.03230 0.44520 -0.30000
N 	N 	0.91110 0.91970 0.55430 -0.29300
N 	N 	0.96804 0.87930 0.66380 -0.29600
N 	N 	0.79550 0.87450 0.43830 -0.29300
N 	N 	0.72950 0.80870 0.37660 -0.29600
N 	N 	0.11760 0.73920 0.78470 -0.29600
N 	N 	0.19600 0.84930 0.82420 -0.29900
N 	N 	0.19500 0.96630 0.82300 -0.29400
N 	N 	0.27580 0.62650 0.62890 -0.29300
N 	N 	0.21130 0.69570 0.56850 -0.30000
N 	N 	0.84400 0.90720 0.29220 -0.30200
N 	N 	0.85060 0.90760 0.38510 -0.29200
N 	N 	0.11640 0.06770 0.79090 -0.30200
N 	N 	0.05150 0.10390 0.77190 -0.30400
N 	N 	0.03450 0.77690 0.33590 -0.30900
C 	C 	0.84320 0.09070 0.44380 0.11400
H 	H 	0.86890 0.09160 0.44540 -0.07500
C 	C 	0.78740 0.12300 0.43800 -0.00500
H 	H 	0.76510 0.15000 0.43430 -0.00300
C 	C 	0.78960 0.05230 0.44200 -0.01800
H 	H 	0.76980 0.02320 0.44250 -0.00100
C 	C 	0.92250 0.87630 0.60430 0.10000
H 	H 	0.90010 0.84630 0.59750 -0.06100
C 	C 	0.95290 0.95200 0.58440 -0.01900
H 	H 	0.95730 0.98580 0.56310 -0.00800
C 	C 	0.98820 0.92700 0.65190 0.02000
H 	H 	0.02070 0.94060 0.68400 -0.02400
C 	C 	0.76200 0.84010 0.37970 0.10600
H 	H 	0.76130 0.83820 0.34270 -0.06600
C 	C 	0.78290 0.86440 0.47710 -0.00900
H 	H 	0.79940 0.88210 0.52220 -0.00200
C 	C 	0.74320 0.82520 0.43990 -0.00800
H 	H 	0.72730 0.81110 0.45460 -0.00100
C 	C 	0.17450 0.90730 0.78650 0.10100
H 	H 	0.14720 0.90670 0.73820 -0.06500
C 	C 	0.23310 0.94330 0.89090 -0.02100
H 	H 	0.25490 0.97130 0.93050 0.00300
C 	C 	0.23320 0.87300 0.89020 -0.00300
H 	H 	0.25570 0.84500 0.92950 -0.00400
C 	C 	0.24290 0.65730 0.62580 0.09700
H 	H 	0.24190 0.65250 0.66100 -0.06400
C 	C 	0.26470 0.64920 0.56870 -0.00700
H 	H 	0.28170 0.63700 0.55520 -0.00400
C 	C 	0.22710 0.69020 0.53310 -0.01800
H 	H 	0.21310 0.71220 0.49060 -0.01100
C 	C 	0.84450 0.94410 0.33630 0.10800
H 	H 	0.84090 0.99230 0.33300 -0.06800
C 	C 	0.84930 0.84130 0.31330 0.00800
H 	H 	0.85000 0.80260 0.29210 -0.00900
C 	C 	0.85350 0.83970 0.37010 -0.02500
H 	H 	0.85750 0.80010 0.39460 0.00200
C 	C 	0.08170 0.11260 0.76100 0.10600
H 	H 	0.07790 0.14890 0.73360 -0.08400
C 	C 	0.10860 0.02470 0.82360 -0.01000
H 	H 	0.12770 0.98620 0.85060 -0.00700
C 	C 	0.06950 0.04520 0.81160 -0.01600
H 	H 	0.05650 0.02280 0.82790 0.00000
N 	N 	0.16100 0.72320 0.71110 -0.29300
N 	N 	0.05140 0.76420 0.76720 -0.29500
N 	N 	0.09540 0.74510 0.44900 -0.27500
C 	C 	0.16720 0.75810 0.67210 0.09900
H 	H 	0.18070 0.80240 0.68410 -0.06200
C 	C 	0.07840 0.79250 0.39830 0.07300
H 	H 	0.09550 0.83240 0.40590 -0.05500
C 	C 	0.09000 0.78740 0.77930 0.10100
H 	H 	0.09710 0.83460 0.78360 -0.06500
C 	C 	0.13160 0.66900 0.66780 -0.03700
H 	H 	0.11790 0.63630 0.67690 0.00800
C 	C 	0.12590 0.67090 0.60950 -0.03700
H 	H 	0.10680 0.64050 0.57120 0.01000
C 	C 	0.10620 0.68180 0.80270 -0.00400
H 	H 	0.12230 0.63930 0.81780 -0.00500
C 	C 	0.06700 0.69790 0.79460 -0.00400
H 	H 	0.05300 0.66880 0.80570 -0.00600
C 	C 	0.02880 0.70890 0.34500 1.35000
H 	H 	0.00250 0.68110 0.30980 -0.41800
C 	C 	0.06690 0.68720 0.41270 1.38200
H 	H 	0.07240 0.64250 0.43070 -0.47800
C 	C 	0.84660 0.34350 0.31330 -0.02100
H 	H 	0.84700 0.38310 0.29280 0.00100
C 	C 	0.85320 0.34190 0.37240 -0.01900
H 	H 	0.86070 0.38020 0.40050 -0.00000
C 	C 	0.58770 0.81810 0.25590 -0.00800
H 	H 	0.59380 0.86030 0.24540 -0.00300
C 	C 	0.54740 0.80270 0.24540 -0.01000
H 	H 	0.52150 0.83260 0.22650 -0.00100
C 	C 	0.51620 0.22750 0.35110 -0.25100
H 	H 	0.48430 0.21130 0.32090 0.07800
C 	C 	0.55420 0.20670 0.41970 -0.32600
H 	H 	0.55240 0.17170 0.44310 0.10000
Zn	Zn	0.34152 0.25298 0.95232 1.17100
Zn	Zn	0.65303 0.43461 0.04298 1.16900
Zn	Zn	0.32416 0.25137 0.70152 1.17300
Zn	Zn	0.32856 0.56307 0.70505 1.17100
N 	N 	0.34740 0.22460 0.88440 -0.29700
N 	N 	0.67790 0.64840 0.06000 -0.29900
N 	N 	0.67420 0.53230 0.05480 -0.29900
N 	N 	0.58890 0.41970 0.94570 -0.29600
N 	N 	0.53196 0.37930 0.83620 -0.29500
N 	N 	0.70450 0.37450 0.06170 -0.29300
N 	N 	0.77050 0.30870 0.12340 -0.29500
N 	N 	0.38240 0.23920 0.71530 -0.29600
N 	N 	0.30400 0.34930 0.67580 -0.29900
N 	N 	0.30500 0.46630 0.67700 -0.29500
N 	N 	0.22420 0.12650 0.87110 -0.29400
N 	N 	0.28870 0.19570 0.93150 -0.29400
N 	N 	0.65600 0.40720 0.20780 -0.30300
N 	N 	0.64940 0.40760 0.11490 -0.29200
N 	N 	0.38360 0.56770 0.70910 -0.30100
N 	N 	0.44850 0.60390 0.72810 -0.29400
N 	N 	0.46550 0.27690 0.16410 -0.29700
C 	C 	0.65680 0.59070 0.05620 0.11500
H 	H 	0.63110 0.59160 0.05460 -0.06900
C 	C 	0.71260 0.62300 0.06200 -0.00700
H 	H 	0.73490 0.65000 0.06570 -0.00000
C 	C 	0.71040 0.55230 0.05800 -0.01600
H 	H 	0.73020 0.52320 0.05750 0.00100
C 	C 	0.57750 0.37630 0.89570 0.09900
H 	H 	0.59990 0.34630 0.90250 -0.06200
C 	C 	0.54710 0.45200 0.91560 -0.00600
H 	H 	0.54270 0.48580 0.93690 -0.01200
C 	C 	0.51180 0.42700 0.84810 -0.01000
H 	H 	0.47930 0.44060 0.81600 -0.00600
C 	C 	0.73800 0.34010 0.12030 0.10600
H 	H 	0.73870 0.33820 0.15730 -0.06600
C 	C 	0.71710 0.36440 0.02290 -0.00600
H 	H 	0.70060 0.38210 0.97780 -0.00400
C 	C 	0.75680 0.32520 0.06010 -0.00900
H 	H 	0.77270 0.31110 0.04540 0.00000
C 	C 	0.32550 0.40730 0.71350 0.10100
H 	H 	0.35280 0.40670 0.76180 -0.06600
C 	C 	0.26690 0.44330 0.60910 -0.02100
H 	H 	0.24510 0.47130 0.56950 -0.00000
C 	C 	0.26680 0.37300 0.60980 -0.00400
H 	H 	0.24430 0.34500 0.57050 -0.00500
C 	C 	0.25710 0.15730 0.87420 0.09700
H 	H 	0.25810 0.15250 0.83900 -0.06200
C 	C 	0.23530 0.14920 0.93130 -0.00600
H 	H 	0.21830 0.13700 0.94480 -0.00600
C 	C 	0.27290 0.19020 0.96690 -0.01700
H 	H 	0.28690 0.21220 0.00940 -0.00000
C 	C 	0.65550 0.44410 0.16370 0.10700
H 	H 	0.65910 0.49230 0.16700 -0.06700
C 	C 	0.65070 0.34130 0.18670 0.00600
H 	H 	0.65000 0.30260 0.20790 -0.01400
C 	C 	0.64650 0.33970 0.12990 -0.02800
H 	H 	0.64250 0.30010 0.10540 -0.00100
C 	C 	0.41830 0.61260 0.73900 0.11000
H 	H 	0.42210 0.64890 0.76640 -0.06700
C 	C 	0.39140 0.52470 0.67640 -0.00300
H 	H 	0.37230 0.48620 0.64940 -0.01100
C 	C 	0.43050 0.54520 0.68840 -0.01900
H 	H 	0.44350 0.52280 0.67210 0.00200
N 	N 	0.33900 0.22320 0.78890 -0.29400
N 	N 	0.44860 0.26420 0.73280 -0.29300
N 	N 	0.40460 0.24510 0.05100 -0.28600
C 	C 	0.33280 0.25810 0.82790 0.09600
H 	H 	0.31930 0.30240 0.81590 -0.06300
C 	C 	0.42160 0.29250 0.10170 0.07400
H 	H 	0.40450 0.33240 0.09410 -0.05400
C 	C 	0.41000 0.28740 0.72070 0.10100
H 	H 	0.40290 0.33460 0.71640 -0.06500
C 	C 	0.36840 0.16900 0.83220 -0.01400
H 	H 	0.38210 0.13630 0.82310 0.00100
C 	C 	0.37410 0.17090 0.89050 -0.01400
H 	H 	0.39320 0.14050 0.92880 0.00100
C 	C 	0.39380 0.18180 0.69730 -0.00400
H 	H 	0.37770 0.13930 0.68220 -0.00300
C 	C 	0.43300 0.19790 0.70540 -0.00300
H 	H 	0.44700 0.16880 0.69430 -0.00200
C 	C 	0.47120 0.20890 0.15500 0.27300
H 	H 	0.49750 0.18110 0.19020 -0.08900
C 	C 	0.43310 0.18720 0.08730 0.28300
H 	H 	0.42760 0.14250 0.06930 -0.10200
C 	C 	0.65340 0.84350 0.18670 0.00100
H 	H 	0.65300 0.88310 0.20720 -0.00800
C 	C 	0.64680 0.84190 0.12760 0.00600
H 	H 	0.63930 0.88020 0.09950 -0.01000
C 	C 	0.91230 0.31810 0.24410 -0.00800
H 	H 	0.90620 0.36030 0.25460 -0.00100
C 	C 	0.95260 0.30270 0.25460 -0.01100
H 	H 	0.97850 0.33260 0.27350 0.00300
C 	C 	0.98380 0.72750 0.14890 0.75200
H 	H 	0.01570 0.71130 0.17910 -0.29100
C 	C 	0.94580 0.70670 0.08030 0.89900
H 	H 	0.94760 0.67170 0.05690 -0.27800
Zn	Zn	0.84152 0.75298 0.95232 1.17200
Zn	Zn	0.15303 0.93461 0.04298 1.16800
Zn	Zn	0.82416 0.75137 0.70152 1.17300
Zn	Zn	0.82856 0.06307 0.70505 1.17100
N 	N 	0.84740 0.72460 0.88440 -0.30100
N 	N 	0.17790 0.14840 0.06000 -0.29700
N 	N 	0.17420 0.03230 0.05480 -0.29900
N 	N 	0.08890 0.91970 0.94570 -0.29700
N 	N 	0.03196 0.87930 0.83620 -0.29300
N 	N 	0.20450 0.87450 0.06170 -0.29300
N 	N 	0.27050 0.80870 0.12340 -0.29600
N 	N 	0.88240 0.73920 0.71530 -0.29600
N 	N 	0.80400 0.84930 0.67580 -0.29900
N 	N 	0.80500 0.96630 0.67700 -0.29400
N 	N 	0.72420 0.62650 0.87110 -0.29200
N 	N 	0.78870 0.69570 0.93150 -0.28800
N 	N 	0.15600 0.90720 0.20780 -0.30500
N 	N 	0.14940 0.90760 0.11490 -0.29300
N 	N 	0.88360 0.06770 0.70910 -0.30000
N 	N 	0.94850 0.10390 0.72810 -0.28500
N 	N 	0.96550 0.77690 0.16410 -0.28300
C 	C 	0.15680 0.09070 0.05620 0.11700
H 	H 	0.13110 0.09160 0.05460 -0.06300
C 	C 	0.21260 0.12300 0.06200 -0.00900
H 	H 	0.23490 0.15000 0.06570 -0.00300
C 	C 	0.21040 0.05230 0.05800 -0.01600
H 	H 	0.23020 0.02320 0.05750 -0.00100
C 	C 	0.07750 0.87630 0.89570 0.09800
H 	H 	0.09990 0.84630 0.90250 -0.06200
C 	C 	0.04710 0.95200 0.91560 0.00600
H 	H 	0.04270 0.98580 0.93690 -0.01500
C 	C 	0.01180 0.92700 0.84810 -0.03800
H 	H 	0.97930 0.94060 0.81600 0.01300
C 	C 	0.23800 0.84010 0.12030 0.10500
H 	H 	0.23870 0.83820 0.15730 -0.06700
C 	C 	0.21710 0.86440 0.02290 -0.01500
H 	H 	0.20060 0.88210 0.97780 0.00100
C 	C 	0.25680 0.82520 0.06010 -0.00600
H 	H 	0.27270 0.81110 0.04540 -0.00300
C 	C 	0.82550 0.90730 0.71350 0.10100
H 	H 	0.85280 0.90670 0.76180 -0.06600
C 	C 	0.76690 0.94330 0.60910 -0.02100
H 	H 	0.74510 0.97130 0.56950 0.00200
C 	C 	0.76680 0.87300 0.60980 -0.00300
H 	H 	0.74430 0.84500 0.57050 -0.00500
C 	C 	0.75710 0.65730 0.87420 0.09800
H 	H 	0.75810 0.65250 0.83900 -0.06100
C 	C 	0.73530 0.64920 0.93130 -0.00600
H 	H 	0.71830 0.63700 0.94480 -0.00200
C 	C 	0.77290 0.69020 0.96690 -0.00800
H 	H 	0.78690 0.71220 0.00940 0.00600
C 	C 	0.15550 0.94410 0.16370 0.10400
H 	H 	0.15910 0.99230 0.16700 -0.06700
C 	C 	0.15070 0.84130 0.18670 0.00300
H 	H 	0.15000 0.80260 0.20790 -0.01900
C 	C 	0.14650 0.83970 0.12990 -0.03100
H 	H 	0.14250 0.80010 0.10540 -0.00400
C 	C 	0.91830 0.11260 0.73900 0.11400
H 	H 	0.92210 0.14890 0.76640 -0.05100
C 	C 	0.89140 0.02470 0.67640 -0.00200
H 	H 	0.87230 0.98620 0.64940 -0.01000
C 	C 	0.93050 0.04520 0.68840 -0.01900
H 	H 	0.94350 0.02280 0.67210 0.00100
N 	N 	0.83900 0.72320 0.78890 -0.29400
N 	N 	0.94860 0.76420 0.73280 -0.29000
N 	N 	0.90460 0.74510 0.05100 -0.29900
C 	C 	0.83280 0.75810 0.82790 0.09400
H 	H 	0.81930 0.80240 0.81590 -0.06400
C 	C 	0.92160 0.79250 0.10170 0.07500
H 	H 	0.90450 0.83240 0.09410 -0.05400
C 	C 	0.91000 0.78740 0.72070 0.10100
H 	H 	0.90290 0.83460 0.71640 -0.06400
C 	C 	0.86840 0.66900 0.83220 0.01000
H 	H 	0.88210 0.63630 0.82310 -0.00700
C 	C 	0.87410 0.67090 0.89050 0.01100
H 	H 	0.89320 0.64050 0.92880 -0.00900
C 	C 	0.89380 0.68180 0.69730 -0.00400
H 	H 	0.87770 0.63930 0.68220 -0.00100
C 	C 	0.93300 0.69790 0.70540 -0.00200
H 	H 	0.94700 0.66880 0.69430 0.00100
C 	C 	0.97120 0.70890 0.15500 -0.82400
H 	H 	0.99750 0.68110 0.19020 0.24700
C 	C 	0.93310 0.68720 0.08730 -0.83600
H 	H 	0.92760 0.64250 0.06930 0.28000
C 	C 	0.15340 0.34350 0.18670 0.02400
H 	H 	0.15300 0.38310 0.20720 -0.01600
C 	C 	0.14680 0.34190 0.12760 0.03300
H 	H 	0.13930 0.38020 0.09950 -0.02000
C 	C 	0.41230 0.81810 0.24410 -0.00800
H 	H 	0.40620 0.86030 0.25460 -0.00300
C 	C 	0.45260 0.80270 0.25460 -0.01000
H 	H 	0.47850 0.83260 0.27350 -0.00100
C 	C 	0.48380 0.22750 0.14890 -0.24900
H 	H 	0.51570 0.21130 0.17910 0.07800
C 	C 	0.44580 0.20670 0.08030 -0.32500
H 	H 	0.44760 0.17170 0.05690 0.10000
Zn	Zn	0.34152 0.74702 0.45232 1.17100
Zn	Zn	0.65303 0.56539 0.54298 1.16900
Zn	Zn	0.32416 0.74863 0.20152 1.17300
Zn	Zn	0.32856 0.43693 0.20505 1.17100
N 	N 	0.34740 0.77540 0.38440 -0.29700
N 	N 	0.67790 0.35160 0.56000 -0.29800
N 	N 	0.67420 0.46770 0.55480 -0.29900
N 	N 	0.58890 0.58030 0.44570 -0.29600
N 	N 	0.53196 0.62070 0.33620 -0.29500
N 	N 	0.70450 0.62550 0.56170 -0.29300
N 	N 	0.77050 0.69130 0.62340 -0.29500
N 	N 	0.38240 0.76080 0.21530 -0.29600
N 	N 	0.30400 0.65070 0.17580 -0.29900
N 	N 	0.30500 0.53370 0.17700 -0.29500
N 	N 	0.22420 0.87350 0.37110 -0.29400
N 	N 	0.28870 0.80430 0.43150 -0.29400
N 	N 	0.65600 0.59280 0.70780 -0.30300
N 	N 	0.64940 0.59240 0.61490 -0.29300
N 	N 	0.38360 0.43230 0.20910 -0.30100
N 	N 	0.44850 0.39610 0.22810 -0.29400
N 	N 	0.46550 0.72310 0.66410 -0.29700
C 	C 	0.65680 0.40930 0.55620 0.11500
H 	H 	0.63110 0.40840 0.55460 -0.06900
C 	C 	0.71260 0.37700 0.56200 -0.00700
H 	H 	0.73490 0.35000 0.56570 -0.00000
C 	C 	0.71040 0.44770 0.55800 -0.01600
H 	H 	0.73020 0.47680 0.55750 0.00000
C 	C 	0.57750 0.62370 0.39570 0.09900
H 	H 	0.59990 0.65370 0.40250 -0.06200
C 	C 	0.54710 0.54800 0.41560 -0.00600
H 	H 	0.54270 0.51420 0.43690 -0.01200
C 	C 	0.51180 0.57300 0.34810 -0.00900
H 	H 	0.47930 0.55940 0.31600 -0.00600
C 	C 	0.73800 0.65990 0.62030 0.10600
H 	H 	0.73870 0.66180 0.65730 -0.06600
C 	C 	0.71710 0.63560 0.52290 -0.00900
H 	H 	0.70060 0.61790 0.47780 -0.00200
C 	C 	0.75680 0.67480 0.56010 -0.00800
H 	H 	0.77270 0.68890 0.54540 -0.00100
C 	C 	0.32550 0.59270 0.21350 0.10100
H 	H 	0.35280 0.59330 0.26180 -0.06600
C 	C 	0.26690 0.55670 0.10910 -0.02100
H 	H 	0.24510 0.52870 0.06950 0.00000
C 	C 	0.26680 0.62700 0.10980 -0.00400
H 	H 	0.24430 0.65500 0.07050 -0.00600
C 	C 	0.25710 0.84270 0.37420 0.09700
H 	H 	0.25810 0.84750 0.33900 -0.06200
C 	C 	0.23530 0.85080 0.43130 -0.00800
H 	H 	0.21830 0.86300 0.44480 -0.00500
C 	C 	0.27290 0.80980 0.46690 -0.01400
H 	H 	0.28690 0.78780 0.50940 -0.00200
C 	C 	0.65550 0.55590 0.66370 0.10700
H 	H 	0.65910 0.50770 0.66700 -0.06700
C 	C 	0.65070 0.65870 0.68670 0.00600
H 	H 	0.65000 0.69740 0.70790 -0.01400
C 	C 	0.64650 0.66030 0.62990 -0.02800
H 	H 	0.64250 0.69990 0.60540 -0.00100
C 	C 	0.41830 0.38740 0.23900 0.11000
H 	H 	0.42210 0.35110 0.26640 -0.06700
C 	C 	0.39140 0.47530 0.17640 -0.00300
H 	H 	0.37230 0.51380 0.14940 -0.01100
C 	C 	0.43050 0.45480 0.18840 -0.01900
H 	H 	0.44350 0.47720 0.17210 0.00200
N 	N 	0.33900 0.77680 0.28890 -0.29400
N 	N 	0.44860 0.73580 0.23280 -0.29300
N 	N 	0.40460 0.75490 0.55100 -0.28700
C 	C 	0.33280 0.74190 0.32790 0.09600
H 	H 	0.31930 0.69760 0.31590 -0.06300
C 	C 	0.42160 0.70750 0.60170 0.07400
H 	H 	0.40450 0.66760 0.59410 -0.05400
C 	C 	0.41000 0.71260 0.22070 0.10100
H 	H 	0.40290 0.66540 0.21640 -0.06500
C 	C 	0.36840 0.83100 0.33220 -0.01500
H 	H 	0.38210 0.86370 0.32310 0.00100
C 	C 	0.37410 0.82910 0.39050 -0.01400
H 	H 	0.39320 0.85950 0.42880 0.00100
C 	C 	0.39380 0.81820 0.19730 -0.00500
H 	H 	0.37770 0.86070 0.18220 -0.00300
C 	C 	0.43300 0.80210 0.20540 -0.00300
H 	H 	0.44700 0.83120 0.19430 -0.00200
C 	C 	0.47120 0.79110 0.65500 0.27600
H 	H 	0.49750 0.81890 0.69020 -0.09000
C 	C 	0.43310 0.81280 0.58730 0.28700
H 	H 	0.42760 0.85750 0.56930 -0.10300
C 	C 	0.65340 0.15650 0.68670 0.00100
H 	H 	0.65300 0.11690 0.70720 -0.00800
C 	C 	0.64680 0.15810 0.62760 0.00700
H 	H 	0.63930 0.11980 0.59950 -0.01000
C 	C 	0.91230 0.68190 0.74410 -0.00800
H 	H 	0.90620 0.63970 0.75460 -0.00100
C 	C 	0.95260 0.69730 0.75460 -0.01200
H 	H 	0.97850 0.66740 0.77350 0.00300
C 	C 	0.98380 0.27250 0.64890 0.69800
H 	H 	0.01570 0.28870 0.67910 -0.27100
C 	C 	0.94580 0.29330 0.58030 0.83300
H 	H 	0.94760 0.32830 0.55690 -0.25800
Zn	Zn	0.84152 0.24702 0.45232 1.17200
Zn	Zn	0.15303 0.06539 0.54298 1.16900
Zn	Zn	0.82416 0.24863 0.20152 1.17300
Zn	Zn	0.82856 0.93693 0.20505 1.17100
N 	N 	0.84740 0.27540 0.38440 -0.30100
N 	N 	0.17790 0.85160 0.56000 -0.29700
N 	N 	0.17420 0.96770 0.55480 -0.29900
N 	N 	0.08890 0.08030 0.44570 -0.29900
N 	N 	0.03196 0.12070 0.33620 -0.29200
N 	N 	0.20450 0.12550 0.56170 -0.29300
N 	N 	0.27050 0.19130 0.62340 -0.29600
N 	N 	0.88240 0.26080 0.21530 -0.29600
N 	N 	0.80400 0.15070 0.17580 -0.29900
N 	N 	0.80500 0.03370 0.17700 -0.29400
N 	N 	0.72420 0.37350 0.37110 -0.29200
N 	N 	0.78870 0.30430 0.43150 -0.28900
N 	N 	0.15600 0.09280 0.70780 -0.30500
N 	N 	0.14940 0.09240 0.61490 -0.29300
N 	N 	0.88360 0.93230 0.20910 -0.29900
N 	N 	0.94850 0.89610 0.22810 -0.28400
N 	N 	0.96550 0.22310 0.66410 -0.28400
C 	C 	0.15680 0.90930 0.55620 0.11700
H 	H 	0.13110 0.90840 0.55460 -0.06300
C 	C 	0.21260 0.87700 0.56200 -0.00900
H 	H 	0.23490 0.85000 0.56570 -0.00300
C 	C 	0.21040 0.94770 0.55800 -0.01600
H 	H 	0.23020 0.97680 0.55750 -0.00100
C 	C 	0.07750 0.12370 0.39570 0.09800
H 	H 	0.09990 0.15370 0.40250 -0.06300
C 	C 	0.04710 0.04800 0.41560 0.00800
H 	H 	0.04270 0.01420 0.43690 -0.01600
C 	C 	0.01180 0.07300 0.34810 -0.04300
H 	H 	0.97930 0.05940 0.31600 0.01600
C 	C 	0.23800 0.15990 0.62030 0.10500
H 	H 	0.23870 0.16180 0.65730 -0.06700
C 	C 	0.21710 0.13560 0.52290 -0.00900
H 	H 	0.20060 0.11790 0.47780 -0.00200
C 	C 	0.25680 0.17480 0.56010 -0.00800
H 	H 	0.27270 0.18890 0.54540 -0.00100
C 	C 	0.82550 0.09270 0.21350 0.10100
H 	H 	0.85280 0.09330 0.26180 -0.06600
C 	C 	0.76690 0.05670 0.10910 -0.02100
H 	H 	0.74510 0.02870 0.06950 0.00300
C 	C 	0.76680 0.12700 0.10980 -0.00300
H 	H 	0.74430 0.15500 0.07050 -0.00400
C 	C 	0.75710 0.34270 0.37420 0.09800
H 	H 	0.75810 0.34750 0.33900 -0.06100
C 	C 	0.73530 0.35080 0.43130 -0.00600
H 	H 	0.71830 0.36300 0.44480 -0.00200
C 	C 	0.77290 0.30980 0.46690 -0.00900
H 	H 	0.78690 0.28780 0.50940 0.00600
C 	C 	0.15550 0.05590 0.66370 0.10500
H 	H 	0.15910 0.00770 0.66700 -0.06700
C 	C 	0.15070 0.15870 0.68670 0.00300
H 	H 	0.15000 0.19740 0.70790 -0.01900
C 	C 	0.14650 0.16030 0.62990 -0.03100
H 	H 	0.14250 0.19990 0.60540 -0.00400
C 	C 	0.91830 0.88740 0.23900 0.11500
H 	H 	0.92210 0.85110 0.26640 -0.04900
C 	C 	0.89140 0.97530 0.17640 -0.00500
H 	H 	0.87230 0.01380 0.14940 -0.00800
C 	C 	0.93050 0.95480 0.18840 -0.01700
H 	H 	0.94350 0.97720 0.17210 0.00000
N 	N 	0.83900 0.27680 0.28890 -0.29400
N 	N 	0.94860 0.23580 0.23280 -0.28900
N 	N 	0.90460 0.25490 0.55100 -0.29800
C 	C 	0.83280 0.24190 0.32790 0.09400
H 	H 	0.81930 0.19760 0.31590 -0.06300
C 	C 	0.92160 0.20750 0.60170 0.07500
H 	H 	0.90450 0.16760 0.59410 -0.05400
C 	C 	0.91000 0.21260 0.22070 0.10100
H 	H 	0.90290 0.16540 0.21640 -0.06400
C 	C 	0.86840 0.33100 0.33220 0.00800
H 	H 	0.88210 0.36370 0.32310 -0.00600
C 	C 	0.87410 0.32910 0.39050 0.00900
H 	H 	0.89320 0.35950 0.42880 -0.00800
C 	C 	0.89380 0.31820 0.19730 -0.00500
H 	H 	0.87770 0.36070 0.18220 -0.00100
C 	C 	0.93300 0.30210 0.20540 -0.00200
H 	H 	0.94700 0.33120 0.19430 0.00200
C 	C 	0.97120 0.29110 0.65500 -0.76500
H 	H 	0.99750 0.31890 0.69020 0.22800
C 	C 	0.93310 0.31280 0.58730 -0.77500
H 	H 	0.92760 0.35750 0.56930 0.25900
C 	C 	0.15340 0.65650 0.68670 0.02500
H 	H 	0.15300 0.61690 0.70720 -0.01700
C 	C 	0.14680 0.65810 0.62760 0.03400
H 	H 	0.13930 0.61980 0.59950 -0.02100
C 	C 	0.41230 0.18190 0.74410 -0.00800
H 	H 	0.40620 0.13970 0.75460 -0.00300
C 	C 	0.45260 0.19730 0.75460 -0.01000
H 	H 	0.47850 0.16740 0.77350 -0.00100
C 	C 	0.48380 0.77250 0.64890 -0.25300
H 	H 	0.51570 0.78870 0.67910 0.07900
C 	C 	0.44580 0.79330 0.58030 -0.32900
H 	H 	0.44760 0.82830 0.55690 0.10100
Zn	Zn	0.65848 0.74702 0.04768 1.17100
Zn	Zn	0.34697 0.56539 0.95702 1.16900
Zn	Zn	0.67584 0.74863 0.29848 1.17300
Zn	Zn	0.67144 0.43693 0.29495 1.17100
N 	N 	0.65260 0.77540 0.11560 -0.29700
N 	N 	0.32210 0.35160 0.94000 -0.29900
N 	N 	0.32580 0.46770 0.94520 -0.30000
N 	N 	0.41110 0.58030 0.05430 -0.29600
N 	N 	0.46804 0.62070 0.16380 -0.29500
N 	N 	0.29550 0.62550 0.93830 -0.29400
N 	N 	0.22950 0.69130 0.87660 -0.29600
N 	N 	0.61760 0.76080 0.28470 -0.29600
N 	N 	0.69600 0.65070 0.32420 -0.29900
N 	N 	0.69500 0.53370 0.32300 -0.29400
N 	N 	0.77580 0.87350 0.12890 -0.29200
N 	N 	0.71130 0.80430 0.06850 -0.29400
N 	N 	0.34400 0.59280 0.79220 -0.30400
N 	N 	0.35060 0.59240 0.88510 -0.29300
N 	N 	0.61640 0.43230 0.29090 -0.30100
N 	N 	0.55150 0.39610 0.27190 -0.29400
N 	N 	0.53450 0.72310 0.83590 -0.29700
C 	C 	0.34320 0.40930 0.94380 0.11500
H 	H 	0.36890 0.40840 0.94540 -0.06900
C 	C 	0.28740 0.37700 0.93800 -0.00800
H 	H 	0.26510 0.35000 0.93430 -0.00500
C 	C 	0.28960 0.44770 0.94200 -0.01800
H 	H 	0.26980 0.47680 0.94250 -0.00300
C 	C 	0.42250 0.62370 0.10430 0.09900
H 	H 	0.40010 0.65370 0.09750 -0.06200
C 	C 	0.45290 0.54800 0.08440 -0.00600
H 	H 	0.45730 0.51420 0.06310 -0.01200
C 	C 	0.48820 0.57300 0.15190 -0.01000
H 	H 	0.52070 0.55940 0.18400 -0.00600
C 	C 	0.26200 0.65990 0.87970 0.10600
H 	H 	0.26130 0.66180 0.84270 -0.06700
C 	C 	0.28290 0.63560 0.97710 -0.00700
H 	H 	0.29940 0.61790 0.02220 -0.00400
C 	C 	0.24320 0.67480 0.93990 -0.00900
H 	H 	0.22730 0.68890 0.95460 -0.00100
C 	C 	0.67450 0.59270 0.28650 0.10100
H 	H 	0.64720 0.59330 0.23820 -0.06600
C 	C 	0.73310 0.55670 0.39090 -0.02100
H 	H 	0.75490 0.52870 0.43050 0.00500
C 	C 	0.73320 0.62700 0.39020 -0.00300
H 	H 	0.75570 0.65500 0.42950 -0.00400
C 	C 	0.74290 0.84270 0.12580 0.09800
H 	H 	0.74190 0.84750 0.16100 -0.06200
C 	C 	0.76470 0.85080 0.06870 -0.00400
H 	H 	0.78170 0.86300 0.05520 -0.00200
C 	C 	0.72710 0.80980 0.03310 -0.01500
H 	H 	0.71310 0.78780 0.99060 -0.00000
C 	C 	0.34450 0.55590 0.83630 0.10600
H 	H 	0.34090 0.50770 0.83300 -0.06700
C 	C 	0.34930 0.65870 0.81330 0.00500
H 	H 	0.35000 0.69740 0.79210 -0.01400
C 	C 	0.35350 0.66030 0.87010 -0.02800
H 	H 	0.35750 0.69990 0.89460 -0.00100
C 	C 	0.58170 0.38740 0.26100 0.11000
H 	H 	0.57790 0.35110 0.23360 -0.06700
C 	C 	0.60860 0.47530 0.32360 -0.00300
H 	H 	0.62770 0.51380 0.35060 -0.01100
C 	C 	0.56950 0.45480 0.31160 -0.01900
H 	H 	0.55650 0.47720 0.32790 0.00200
N 	N 	0.66100 0.77680 0.21110 -0.29300
N 	N 	0.55140 0.73580 0.26720 -0.29300
N 	N 	0.59540 0.75490 0.94900 -0.28600
C 	C 	0.66720 0.74190 0.17210 0.09600
H 	H 	0.68070 0.69760 0.18410 -0.06200
C 	C 	0.57840 0.70750 0.89830 0.07400
H 	H 	0.59550 0.66760 0.90590 -0.05400
C 	C 	0.59000 0.71260 0.27930 0.10100
H 	H 	0.59710 0.66540 0.28360 -0.06500
C 	C 	0.63160 0.83100 0.16780 -0.01300
H 	H 	0.61790 0.86370 0.17690 0.00000
C 	C 	0.62590 0.82910 0.10950 -0.01300
H 	H 	0.60680 0.85950 0.07120 0.00000
C 	C 	0.60620 0.81820 0.30270 -0.00400
H 	H 	0.62230 0.86070 0.31780 -0.00300
C 	C 	0.56700 0.80210 0.29460 -0.00300
H 	H 	0.55300 0.83120 0.30570 -0.00200
C 	C 	0.52880 0.79110 0.84500 0.26900
H 	H 	0.50250 0.81890 0.80980 -0.08800
C 	C 	0.56690 0.81280 0.91270 0.27900
H 	H 	0.57240 0.85750 0.93070 -0.10100
C 	C 	0.34660 0.15650 0.81330 0.00200
H 	H 	0.34700 0.11690 0.79280 -0.00800
C 	C 	0.35320 0.15810 0.87240 0.00700
H 	H 	0.36070 0.11980 0.90050 -0.01100
C 	C 	0.08770 0.68190 0.75590 -0.00800
H 	H 	0.09380 0.63970 0.74540 -0.00400
C 	C 	0.04740 0.69730 0.74540 -0.00900
H 	H 	0.02150 0.66740 0.72650 -0.00500
C 	C 	0.01620 0.27250 0.85110 -1.18100
H 	H 	0.98430 0.28870 0.82090 0.42000
C 	C 	0.05420 0.29330 0.91970 -1.46300
H 	H 	0.05240 0.32830 0.94310 0.45000
Zn	Zn	0.15848 0.24702 0.04768 1.17200
Zn	Zn	0.84697 0.06539 0.95702 1.16800
Zn	Zn	0.17584 0.24863 0.29848 1.17300
Zn	Zn	0.17144 0.93693 0.29495 1.17000
N 	N 	0.15260 0.27540 0.11560 -0.29200
N 	N 	0.82210 0.85160 0.94000 -0.30100
N 	N 	0.82580 0.96770 0.94520 -0.29900
N 	N 	0.91110 0.08030 0.05430 -0.29200
N 	N 	0.96804 0.12070 0.16380 -0.29600
N 	N 	0.79550 0.12550 0.93830 -0.29300
N 	N 	0.72950 0.19130 0.87660 -0.29600
N 	N 	0.11760 0.26080 0.28470 -0.29600
N 	N 	0.19600 0.15070 0.32420 -0.29900
N 	N 	0.19500 0.03370 0.32300 -0.29500
N 	N 	0.27580 0.37350 0.12890 -0.29300
N 	N 	0.21130 0.30430 0.06850 -0.30000
N 	N 	0.84400 0.09280 0.79220 -0.30200
N 	N 	0.85060 0.09240 0.88510 -0.29300
N 	N 	0.11640 0.93230 0.29090 -0.30300
N 	N 	0.05150 0.89610 0.27190 -0.30400
N 	N 	0.03450 0.22310 0.83590 -0.30800
C 	C 	0.84320 0.90930 0.94380 0.11400
H 	H 	0.86890 0.90840 0.94540 -0.07600
C 	C 	0.78740 0.87700 0.93800 -0.00500
H 	H 	0.76510 0.85000 0.93430 -0.00300
C 	C 	0.78960 0.94770 0.94200 -0.01800
H 	H 	0.76980 0.97680 0.94250 -0.00000
C 	C 	0.92250 0.12370 0.10430 0.10000
H 	H 	0.90010 0.15370 0.09750 -0.06000
C 	C 	0.95290 0.04800 0.08440 -0.02000
H 	H 	0.95730 0.01420 0.06310 -0.00700
C 	C 	0.98820 0.07300 0.15190 0.02500
H 	H 	0.02070 0.05940 0.18400 -0.02700
C 	C 	0.76200 0.15990 0.87970 0.10600
H 	H 	0.76130 0.16180 0.84270 -0.06600
C 	C 	0.78290 0.13560 0.97710 -0.01600
H 	H 	0.79940 0.11790 0.02220 0.00200
C 	C 	0.74320 0.17480 0.93990 -0.00500
H 	H 	0.72730 0.18890 0.95460 -0.00300
C 	C 	0.17450 0.09270 0.28650 0.10100
H 	H 	0.14720 0.09330 0.23820 -0.06500
C 	C 	0.23310 0.05670 0.39090 -0.02100
H 	H 	0.25490 0.02870 0.43050 0.00200
C 	C 	0.23320 0.12700 0.39020 -0.00400
H 	H 	0.25570 0.15500 0.42950 -0.00500
C 	C 	0.24290 0.34270 0.12580 0.09700
H 	H 	0.24190 0.34750 0.16100 -0.06400
C 	C 	0.26470 0.35080 0.06870 -0.00800
H 	H 	0.28170 0.36300 0.05520 -0.00300
C 	C 	0.22710 0.30980 0.03310 -0.01600
H 	H 	0.21310 0.28780 0.99060 -0.01100
C 	C 	0.84450 0.05590 0.83630 0.10800
H 	H 	0.84090 0.00770 0.83300 -0.06800
C 	C 	0.84930 0.15870 0.81330 0.00800
H 	H 	0.85000 0.19740 0.79210 -0.00900
C 	C 	0.85350 0.16030 0.87010 -0.02500
H 	H 	0.85750 0.19990 0.89460 0.00100
C 	C 	0.08170 0.88740 0.26100 0.10500
H 	H 	0.07790 0.85110 0.23360 -0.08500
C 	C 	0.10860 0.97530 0.32360 -0.00600
H 	H 	0.12770 0.01380 0.35060 -0.00900
C 	C 	0.06950 0.95480 0.31160 -0.01800
H 	H 	0.05650 0.97720 0.32790 0.00200
N 	N 	0.16100 0.27680 0.21110 -0.29300
N 	N 	0.05140 0.23580 0.26720 -0.29500
N 	N 	0.09540 0.25490 0.94900 -0.27600
C 	C 	0.16720 0.24190 0.17210 0.09900
H 	H 	0.18070 0.19760 0.18410 -0.06200
C 	C 	0.07840 0.20750 0.89830 0.07300
H 	H 	0.09550 0.16760 0.90590 -0.05500
C 	C 	0.09000 0.21260 0.27930 0.10100
H 	H 	0.09710 0.16540 0.28360 -0.06600
C 	C 	0.13160 0.33100 0.16780 -0.03600
H 	H 	0.11790 0.36370 0.17690 0.00700
C 	C 	0.12590 0.32910 0.10950 -0.03600
H 	H 	0.10680 0.35950 0.07120 0.01000
C 	C 	0.10620 0.31820 0.30270 -0.00400
H 	H 	0.12230 0.36070 0.31780 -0.00500
C 	C 	0.06700 0.30210 0.29460 -0.00400
H 	H 	0.05300 0.33120 0.30570 -0.00600
C 	C 	0.02880 0.29110 0.84500 1.29300
H 	H 	0.00250 0.31890 0.80980 -0.40000
C 	C 	0.06690 0.31280 0.91270 1.32200
H 	H 	0.07240 0.35750 0.93070 -0.45700
C 	C 	0.84660 0.65650 0.81330 -0.02300
H 	H 	0.84700 0.61690 0.79280 0.00200
C 	C 	0.85320 0.65810 0.87240 -0.02100
H 	H 	0.86070 0.61980 0.90050 0.00000
C 	C 	0.58770 0.18190 0.75590 -0.00800
H 	H 	0.59380 0.13970 0.74540 -0.00300
C 	C 	0.54740 0.19730 0.74540 -0.01000
H 	H 	0.52150 0.16740 0.72650 -0.00100
C 	C 	0.51620 0.77250 0.85110 -0.24600
H 	H 	0.48430 0.78870 0.82090 0.07600
C 	C 	0.55420 0.79330 0.91970 -0.32100
H 	H 	0.55240 0.82830 0.94310 0.09800
Zn	Zn	0.50000 0.32190 0.75000 1.17000
Zn	Zn	0.50000 0.66493 0.75000 1.17100
Zn	Zn	0.00000 0.82190 0.75000 1.16600
Zn	Zn	0.00000 0.16493 0.75000 1.16700
Zn	Zn	0.50000 0.67810 0.25000 1.17000
Zn	Zn	0.50000 0.33507 0.25000 1.17100
Zn	Zn	0.00000 0.17810 0.25000 1.16600
Zn	Zn	0.00000 0.83507 0.25000 1.16700
