data_crystal

_cell_length_a 14.60260
_cell_length_b 16.63010
_cell_length_c 16.66170
_cell_angle_alpha 90.00000
_cell_angle_beta  90.00000
_cell_angle_gamma 90.00000

_symmetry_space_group_name_	'P 1'
_symmetry_space_group_name_H-M	'P 1'

loop_
_symmetry_equiv_pos_as_xyz
  x,y,z

loop_
_atom_site_label
_atom_site_type_symbol
_atom_site_fract_x
_atom_site_fract_y
_atom_site_fract_z
_atom_site_charge
O 	O 	0.63160 0.96570 0.63620 -0.74100
O 	O 	0.60450 0.06570 0.72180 -0.67700
O 	O 	0.85540 0.74860 0.72530 -0.51100
O 	O 	0.93350 0.78000 0.83350 -0.63400
C 	C 	0.73380 0.97020 0.98700 10.01000
H 	H 	0.77990 0.94940 0.00740 -3.37200
H 	H 	0.68230 0.94530 0.01270 -2.45800
O 	O 	0.55410 0.09600 0.52350 -0.70900
O 	O 	0.45530 0.14460 0.61510 -0.61400
O 	O 	0.27420 0.42650 0.41550 -0.54600
O 	O 	0.26860 0.38480 0.53580 -0.47600
C 	C 	0.46370 0.23160 0.26220 3.75500
H 	H 	0.43600 0.27770 0.23740 -1.00900
H 	H 	0.43620 0.18510 0.23810 -1.05300
C 	C 	0.63610 0.99750 0.70350 1.09900
C 	C 	0.86950 0.79470 0.78710 1.10600
C 	C 	0.68630 0.95410 0.76800 -1.95100
C 	C 	0.74610 0.89120 0.74910 2.05200
H 	H 	0.74990 0.87240 0.69660 -0.59200
C 	C 	0.79900 0.85740 0.80750 -2.34100
C 	C 	0.78770 0.88020 0.88790 4.40000
H 	H 	0.81910 0.85710 0.92420 -1.70400
C 	C 	0.72690 0.93880 0.90840 -5.54700
C 	C 	0.68120 0.98170 0.84680 3.13200
H 	H 	0.64810 0.02780 0.85890 -1.15000
C 	C 	0.48990 0.14260 0.54370 0.89300
C 	C 	0.29860 0.38050 0.46590 0.66400
C 	C 	0.45060 0.19410 0.48270 -1.17200
C 	C 	0.39110 0.25750 0.50430 0.83600
H 	H 	0.37530 0.26550 0.55780 -0.21400
C 	C 	0.35560 0.30870 0.44420 -0.87600
C 	C 	0.37880 0.29320 0.36420 1.41300
H 	H 	0.35490 0.32570 0.32390 -0.39100
C 	C 	0.43590 0.23130 0.34380 -2.27100
C 	C 	0.47600 0.18710 0.40330 1.89800
H 	H 	0.51820 0.15410 0.39090 -0.77000
O 	O 	0.73380 0.02980 0.01300 -5.96500
O 	O 	0.53630 0.23160 0.23780 -2.78300
O 	O 	0.13160 0.46570 0.63620 -0.71100
O 	O 	0.10450 0.56570 0.72180 -0.75400
O 	O 	0.35540 0.24860 0.72530 -0.53800
O 	O 	0.43350 0.28000 0.83350 -0.65500
C 	C 	0.23380 0.47020 0.98700 9.02700
H 	H 	0.27990 0.44940 0.00740 -3.00000
H 	H 	0.18230 0.44530 0.01270 -2.18600
O 	O 	0.05410 0.59600 0.52350 -0.79600
O 	O 	0.95530 0.64460 0.61510 -0.63100
O 	O 	0.77420 0.92650 0.41550 -0.64400
O 	O 	0.76860 0.88480 0.53580 -0.54300
C 	C 	0.96370 0.73160 0.26220 5.25100
H 	H 	0.93600 0.77770 0.23740 -1.43000
H 	H 	0.93620 0.68510 0.23810 -1.47500
C 	C 	0.13610 0.49750 0.70350 1.18100
C 	C 	0.36950 0.29470 0.78710 1.06300
C 	C 	0.18630 0.45410 0.76800 -1.92500
C 	C 	0.24610 0.39120 0.74910 1.95500
H 	H 	0.24990 0.37240 0.69660 -0.57000
C 	C 	0.29900 0.35740 0.80750 -2.20400
C 	C 	0.28770 0.38020 0.88790 4.07000
H 	H 	0.31910 0.35710 0.92420 -1.58100
C 	C 	0.22690 0.43880 0.90840 -5.11100
C 	C 	0.18120 0.48170 0.84680 3.09700
H 	H 	0.14810 0.52780 0.85890 -1.19600
C 	C 	0.98990 0.64260 0.54370 1.14500
C 	C 	0.79860 0.88050 0.46590 0.81200
C 	C 	0.95060 0.69410 0.48270 -1.66100
C 	C 	0.89110 0.75750 0.50430 1.22200
H 	H 	0.87530 0.76550 0.55780 -0.33500
C 	C 	0.85560 0.80870 0.44420 -1.23800
C 	C 	0.87880 0.79320 0.36420 2.04600
H 	H 	0.85490 0.82570 0.32390 -0.59900
C 	C 	0.93590 0.73130 0.34380 -3.24400
C 	C 	0.97600 0.68710 0.40330 2.87500
H 	H 	0.01820 0.65410 0.39090 -1.21500
O 	O 	0.23380 0.52980 0.01300 -5.32800
O 	O 	0.03630 0.73160 0.23780 -3.67400
O 	O 	0.36840 0.03430 0.13620 -0.63200
O 	O 	0.39550 0.93430 0.22180 -0.64900
O 	O 	0.14460 0.25140 0.22530 -0.26500
O 	O 	0.06650 0.22000 0.33350 -0.38900
C 	C 	0.26620 0.02980 0.48700 -2.26100
H 	H 	0.22010 0.05060 0.50740 0.91100
H 	H 	0.31770 0.05470 0.51270 0.68700
O 	O 	0.44590 0.90400 0.02350 -0.99000
O 	O 	0.54470 0.85540 0.11510 -0.84600
O 	O 	0.72580 0.57350 0.91550 -0.75900
O 	O 	0.73140 0.61520 0.03580 -0.32700
C 	C 	0.53630 0.76840 0.76220 6.10500
H 	H 	0.56400 0.72230 0.73740 -1.72000
H 	H 	0.56380 0.81490 0.73810 -1.71400
C 	C 	0.36390 0.00250 0.20350 0.56700
C 	C 	0.13050 0.20530 0.28710 0.14100
C 	C 	0.31370 0.04590 0.26800 0.13900
C 	C 	0.25390 0.10880 0.24910 -0.27200
H 	H 	0.25010 0.12760 0.19660 0.19000
C 	C 	0.20100 0.14260 0.30750 0.38400
C 	C 	0.21230 0.11980 0.38790 -0.93900
H 	H 	0.18090 0.14290 0.42420 0.40300
C 	C 	0.27310 0.06120 0.40840 1.10700
C 	C 	0.31880 0.01830 0.34680 -0.48500
H 	H 	0.35190 0.97220 0.35890 0.17000
C 	C 	0.51010 0.85740 0.04370 2.16400
C 	C 	0.70140 0.61950 0.96590 0.77400
C 	C 	0.54940 0.80590 0.98270 -3.48200
C 	C 	0.60890 0.74250 0.00430 3.23700
H 	H 	0.62470 0.73450 0.05780 -0.93400
C 	C 	0.64440 0.69130 0.94420 -2.44300
C 	C 	0.62120 0.70680 0.86420 3.08400
H 	H 	0.64510 0.67430 0.82390 -0.95800
C 	C 	0.56410 0.76870 0.84380 -4.40400
C 	C 	0.52400 0.81290 0.90330 4.35400
H 	H 	0.48180 0.84590 0.89090 -1.83100
O 	O 	0.26620 0.97020 0.51300 0.72300
O 	O 	0.46370 0.76840 0.73780 -3.81400
O 	O 	0.86840 0.53430 0.13620 -0.59600
O 	O 	0.89550 0.43430 0.22180 -0.53300
O 	O 	0.64460 0.75140 0.22530 -0.26300
O 	O 	0.56650 0.72000 0.33350 -0.39000
C 	C 	0.76620 0.52980 0.48700 -1.37100
H 	H 	0.72010 0.55060 0.50740 0.56900
H 	H 	0.81770 0.55470 0.51270 0.43200
O 	O 	0.94590 0.40400 0.02350 -0.80600
O 	O 	0.04470 0.35540 0.11510 -0.75200
O 	O 	0.22580 0.07350 0.91550 -0.69500
O 	O 	0.23140 0.11520 0.03580 -0.31400
C 	C 	0.03630 0.26840 0.76220 4.14600
H 	H 	0.06400 0.22230 0.73740 -1.16900
H 	H 	0.06380 0.31490 0.73810 -1.15800
C 	C 	0.86390 0.50250 0.20350 0.47700
C 	C 	0.63050 0.70530 0.28710 0.18300
C 	C 	0.81370 0.54590 0.26800 0.12200
C 	C 	0.75390 0.60880 0.24910 -0.18900
H 	H 	0.75010 0.62760 0.19660 0.17700
C 	C 	0.70100 0.64260 0.30750 0.26600
C 	C 	0.71230 0.61980 0.38790 -0.64300
H 	H 	0.68090 0.64290 0.42420 0.29900
C 	C 	0.77310 0.56120 0.40840 0.72000
C 	C 	0.81880 0.51830 0.34680 -0.42700
H 	H 	0.85190 0.47220 0.35890 0.19700
C 	C 	0.01010 0.35740 0.04370 1.75200
C 	C 	0.20140 0.11950 0.96590 0.60100
C 	C 	0.04940 0.30590 0.98270 -2.72500
C 	C 	0.10890 0.24250 0.00430 2.61900
H 	H 	0.12470 0.23450 0.05780 -0.73800
C 	C 	0.14440 0.19130 0.94420 -1.91200
C 	C 	0.12120 0.20680 0.86420 2.21300
H 	H 	0.14510 0.17430 0.82390 -0.67500
C 	C 	0.06410 0.26870 0.84380 -3.08900
C 	C 	0.02400 0.31290 0.90330 3.01500
H 	H 	0.98180 0.34590 0.89090 -1.22200
O 	O 	0.76620 0.47020 0.51300 0.22900
O 	O 	0.96370 0.26840 0.73780 -2.67300
O 	O 	0.36840 0.96570 0.86380 -0.72600
O 	O 	0.39550 0.06570 0.77820 -0.50000
O 	O 	0.14460 0.74860 0.77470 -0.48000
O 	O 	0.06650 0.78000 0.66650 -0.46000
H 	H 	0.22010 0.94940 0.49260 -0.13600
H 	H 	0.31770 0.94530 0.48730 -0.07800
O 	O 	0.44590 0.09600 0.97650 -0.66600
O 	O 	0.54470 0.14460 0.88490 -0.31700
O 	O 	0.72580 0.42650 0.08450 -0.50000
O 	O 	0.73140 0.38480 0.96420 -0.80400
H 	H 	0.56400 0.27770 0.26260 0.68800
H 	H 	0.56380 0.18510 0.26190 0.69000
C 	C 	0.36390 0.99750 0.79650 0.49000
C 	C 	0.13050 0.79470 0.71290 0.35200
C 	C 	0.31370 0.95410 0.73200 -0.22900
C 	C 	0.25390 0.89120 0.75090 0.11900
H 	H 	0.25010 0.87240 0.80340 -0.03600
C 	C 	0.20100 0.85740 0.69250 -0.22000
C 	C 	0.21230 0.88020 0.61210 0.19100
H 	H 	0.18090 0.85710 0.57580 -0.04900
C 	C 	0.27310 0.93880 0.59160 -0.32300
C 	C 	0.31880 0.98170 0.65320 0.00900
H 	H 	0.35190 0.02780 0.64110 0.06600
C 	C 	0.51010 0.14260 0.95630 -0.47600
C 	C 	0.70140 0.38050 0.03410 0.37800
C 	C 	0.54940 0.19410 0.01730 1.96400
C 	C 	0.60890 0.25750 0.99570 -2.11000
H 	H 	0.62470 0.26550 0.94220 0.69300
C 	C 	0.64440 0.30870 0.05580 1.33500
C 	C 	0.62120 0.29320 0.13580 -1.57000
H 	H 	0.64510 0.32570 0.17610 0.56700
C 	C 	0.56410 0.23130 0.15620 2.06600
C 	C 	0.52400 0.18710 0.09670 -2.23700
H 	H 	0.48180 0.15410 0.10910 1.02000
O 	O 	0.86840 0.46570 0.86380 -0.70200
O 	O 	0.89550 0.56570 0.77820 -0.54400
O 	O 	0.64460 0.24860 0.77470 -0.46700
O 	O 	0.56650 0.28000 0.66650 -0.43900
H 	H 	0.72010 0.44940 0.49260 0.03500
H 	H 	0.81770 0.44530 0.48730 0.04100
O 	O 	0.94590 0.59600 0.97650 -0.57300
O 	O 	0.04470 0.64460 0.88490 -0.27000
O 	O 	0.22580 0.92650 0.08450 -0.53300
O 	O 	0.23140 0.88480 0.96420 -0.83500
H 	H 	0.06400 0.77770 0.26260 0.86300
H 	H 	0.06380 0.68510 0.26190 0.88000
C 	C 	0.86390 0.49750 0.79650 0.61000
C 	C 	0.63050 0.29470 0.71290 0.33700
C 	C 	0.81370 0.45410 0.73200 -0.24500
C 	C 	0.75390 0.39120 0.75090 0.12000
H 	H 	0.75010 0.37240 0.80340 -0.02200
C 	C 	0.70100 0.35740 0.69250 -0.16000
C 	C 	0.71230 0.38020 0.61210 0.07000
H 	H 	0.68090 0.35710 0.57580 0.01000
C 	C 	0.77310 0.43880 0.59160 -0.14300
C 	C 	0.81880 0.48170 0.65320 0.11200
H 	H 	0.85190 0.52780 0.64110 0.00100
C 	C 	0.01010 0.64260 0.95630 -0.71000
C 	C 	0.20140 0.88050 0.03410 0.31200
C 	C 	0.04940 0.69410 0.01730 2.35300
C 	C 	0.10890 0.75750 0.99570 -2.41000
H 	H 	0.12470 0.76550 0.94220 0.78600
C 	C 	0.14440 0.80870 0.05580 1.56900
C 	C 	0.12120 0.79320 0.13580 -1.94700
H 	H 	0.14510 0.82570 0.17610 0.68100
C 	C 	0.06410 0.73130 0.15620 2.64100
C 	C 	0.02400 0.68710 0.09670 -2.90500
H 	H 	0.98180 0.65410 0.10910 1.34400
O 	O 	0.63160 0.03430 0.36380 -0.47100
O 	O 	0.60450 0.93430 0.27820 -0.53000
O 	O 	0.85540 0.25140 0.27470 -0.29500
O 	O 	0.93350 0.22000 0.16650 -0.22900
H 	H 	0.77990 0.05060 0.99260 1.55500
H 	H 	0.68230 0.05470 0.98730 1.02000
O 	O 	0.55410 0.90400 0.47650 -0.56800
O 	O 	0.45530 0.85540 0.38490 -0.48000
O 	O 	0.27420 0.57350 0.58450 -0.41700
O 	O 	0.26860 0.61520 0.46420 -0.39400
H 	H 	0.43600 0.72230 0.76260 0.87800
H 	H 	0.43620 0.81490 0.76190 0.93700
C 	C 	0.63610 0.00250 0.29650 0.29900
C 	C 	0.86950 0.20530 0.21290 -0.13400
C 	C 	0.68630 0.04590 0.23200 0.77900
C 	C 	0.74610 0.10880 0.25090 -0.99600
H 	H 	0.74990 0.12760 0.30340 0.38000
C 	C 	0.79900 0.14260 0.19250 1.17200
C 	C 	0.78770 0.11980 0.11210 -2.44000
H 	H 	0.81910 0.14290 0.07580 1.08500
C 	C 	0.72690 0.06120 0.09160 3.09900
C 	C 	0.68120 0.01830 0.15320 -1.58400
H 	H 	0.64810 0.97220 0.14110 0.70900
C 	C 	0.48990 0.85740 0.45630 0.22800
C 	C 	0.29860 0.61950 0.53410 0.14600
C 	C 	0.45060 0.80590 0.51730 0.62000
C 	C 	0.39110 0.74250 0.49570 -0.56800
H 	H 	0.37530 0.73450 0.44220 0.23500
C 	C 	0.35560 0.69130 0.55580 0.53200
C 	C 	0.37880 0.70680 0.63580 -1.21300
H 	H 	0.35490 0.67430 0.67610 0.42800
C 	C 	0.43590 0.76870 0.65620 1.94700
C 	C 	0.47600 0.81290 0.59670 -1.54900
H 	H 	0.51820 0.84590 0.60910 0.73000
O 	O 	0.13160 0.53430 0.36380 -0.43700
O 	O 	0.10450 0.43430 0.27820 -0.44100
O 	O 	0.35540 0.75140 0.27470 -0.34100
O 	O 	0.43350 0.72000 0.16650 -0.28900
H 	H 	0.27990 0.55060 0.99260 1.31400
H 	H 	0.18230 0.55470 0.98730 0.85500
O 	O 	0.05410 0.40400 0.47650 -0.60100
O 	O 	0.95530 0.35540 0.38490 -0.47200
O 	O 	0.77420 0.07350 0.58450 -0.42200
O 	O 	0.76860 0.11520 0.46420 -0.41600
H 	H 	0.93600 0.22230 0.76260 0.65400
H 	H 	0.93620 0.31490 0.76190 0.69400
C 	C 	0.13610 0.50250 0.29650 0.16400
C 	C 	0.36950 0.70530 0.21290 -0.10800
C 	C 	0.18630 0.54590 0.23200 0.78600
C 	C 	0.24610 0.60880 0.25090 -0.98000
H 	H 	0.24990 0.62760 0.30340 0.36300
C 	C 	0.29900 0.64260 0.19250 1.08800
C 	C 	0.28770 0.61980 0.11210 -2.27200
H 	H 	0.31910 0.64290 0.07580 1.01100
C 	C 	0.22690 0.56120 0.09160 2.86500
C 	C 	0.18120 0.51830 0.15320 -1.63700
H 	H 	0.14810 0.47220 0.14110 0.75500
C 	C 	0.98990 0.35740 0.45630 0.42500
C 	C 	0.79860 0.11950 0.53410 0.24100
C 	C 	0.95060 0.30590 0.51730 0.25600
C 	C 	0.89110 0.24250 0.49570 -0.29500
H 	H 	0.87530 0.23450 0.44220 0.15200
C 	C 	0.85560 0.19130 0.55580 0.29500
C 	C 	0.87880 0.20680 0.63580 -0.78200
H 	H 	0.85490 0.17430 0.67610 0.29900
C 	C 	0.93590 0.26870 0.65620 1.27000
C 	C 	0.97600 0.31290 0.59670 -0.80800
H 	H 	0.01820 0.34590 0.60910 0.37300
Sm	Sm	0.50000 0.16801 0.75000 2.30400
Sm	Sm	-0.00000 0.66801 0.75000 2.17300
Sm	Sm	0.50000 0.83199 0.25000 2.33000
Sm	Sm	0.00000 0.33199 0.25000 2.13000
Sm	Sm	0.66213 -0.00000 0.50000 2.64000
Sm	Sm	0.16213 0.50000 0.50000 2.42200
Sm	Sm	0.33787 0.00000 -0.00000 3.61500
Sm	Sm	0.83787 0.50000 -0.00000 3.41100
