data_crystal

_cell_length_a 14.66500
_cell_length_b 16.79490
_cell_length_c 16.72920
_cell_angle_alpha 90.00000
_cell_angle_beta  90.00000
_cell_angle_gamma 90.00000

_symmetry_space_group_name_	'P 1'
_symmetry_space_group_name_H-M	'P 1'

loop_
_symmetry_equiv_pos_as_xyz
  x,y,z

loop_
_atom_site_label
_atom_site_type_symbol
_atom_site_fract_x
_atom_site_fract_y
_atom_site_fract_z
_atom_site_charge
O 	O 	0.94860 0.40160 0.02260 -0.39800
O 	O 	0.04600 0.35450 0.11290 -0.30600
O 	O 	0.22920 0.11470 0.03320 -0.77500
O 	O 	0.22320 0.07450 0.91430 -0.44300
C 	C 	0.03920 0.27120 0.76100 -0.01500
H 	H 	0.06120 0.23560 0.74200 0.02400
H 	H 	0.06710 0.31740 0.73760 0.02000
O 	O 	0.86850 0.53510 0.13790 -0.50600
O 	O 	0.89500 0.43560 0.22190 -0.47900
O 	O 	0.57010 0.72100 0.33470 -0.41000
O 	O 	0.64510 0.75060 0.22590 -0.43700
C 	C 	0.77710 0.53550 0.48800 -0.26900
H 	H 	0.73500 0.55620 0.51020 0.15200
H 	H 	0.83130 0.55890 0.51000 0.11900
C 	C 	0.01070 0.35690 0.04340 -0.60800
C 	C 	0.20040 0.12330 0.96340 0.47600
C 	C 	0.05010 0.30640 0.98080 1.64600
C 	C 	0.10850 0.24280 0.00280 -1.94700
H 	H 	0.12380 0.23510 0.05620 0.62500
C 	C 	0.14270 0.19220 0.94450 1.01500
C 	C 	0.11820 0.20710 0.86440 -0.73700
H 	H 	0.13710 0.17160 0.82520 0.26700
C 	C 	0.06640 0.27330 0.84180 0.63200
C 	C 	0.02550 0.31550 0.90320 -1.26000
H 	H 	0.97940 0.35150 0.89070 0.59300
C 	C 	0.86250 0.50330 0.20570 0.43900
C 	C 	0.63340 0.70650 0.28780 0.29100
C 	C 	0.81290 0.54590 0.26860 -0.08700
C 	C 	0.75420 0.60670 0.24900 -0.00500
H 	H 	0.75000 0.62380 0.19630 0.04300
C 	C 	0.70100 0.64300 0.30780 -0.02600
C 	C 	0.71380 0.61900 0.38880 -0.15300
H 	H 	0.68190 0.64060 0.42530 0.10700
C 	C 	0.77630 0.56220 0.40900 0.13600
C 	C 	0.82290 0.51970 0.34820 -0.08300
H 	H 	0.85900 0.47580 0.36040 0.07800
O 	O 	0.44860 0.90160 0.02260 -0.41300
O 	O 	0.54600 0.85450 0.11290 -0.30000
O 	O 	0.72920 0.61470 0.03320 -0.74000
O 	O 	0.72320 0.57450 0.91430 -0.35100
C 	C 	0.53920 0.77120 0.76100 -0.27700
H 	H 	0.56120 0.73560 0.74200 0.17500
H 	H 	0.56710 0.81740 0.73760 0.11400
O 	O 	0.36850 0.03510 0.13790 -0.48900
O 	O 	0.39500 0.93560 0.22190 -0.29400
O 	O 	0.07010 0.22100 0.33470 -0.46200
O 	O 	0.14510 0.25060 0.22590 -0.45400
C 	C 	0.27710 0.03550 0.48800 0.45800
H 	H 	0.23500 0.05620 0.51020 -0.19400
H 	H 	0.33130 0.05890 0.51000 -0.12800
C 	C 	0.51070 0.85690 0.04340 -0.50500
C 	C 	0.70040 0.62330 0.96340 0.46900
C 	C 	0.55010 0.80640 0.98080 1.61100
C 	C 	0.60850 0.74280 0.00280 -1.96700
H 	H 	0.62380 0.73510 0.05620 0.64100
C 	C 	0.64270 0.69220 0.94450 1.07200
C 	C 	0.61820 0.70710 0.86440 -0.77900
H 	H 	0.63710 0.67160 0.82520 0.30800
C 	C 	0.56640 0.77330 0.84180 0.70200
C 	C 	0.52550 0.81550 0.90320 -1.08700
H 	H 	0.47940 0.85150 0.89070 0.48300
C 	C 	0.36250 0.00330 0.20570 0.10500
C 	C 	0.13340 0.20650 0.28780 0.29400
C 	C 	0.31290 0.04590 0.26860 0.08000
C 	C 	0.25420 0.10670 0.24900 -0.09500
H 	H 	0.25000 0.12380 0.19630 0.06100
C 	C 	0.20100 0.14300 0.30780 -0.05800
C 	C 	0.21380 0.11900 0.38880 -0.03200
H 	H 	0.18190 0.14060 0.42530 0.04100
C 	C 	0.27630 0.06220 0.40900 -0.07800
C 	C 	0.32290 0.01970 0.34820 -0.45600
H 	H 	0.35900 0.97580 0.36040 0.31900
O 	O 	0.05140 0.59840 0.52260 -0.64600
O 	O 	0.95400 0.64550 0.61290 -0.50000
O 	O 	0.77080 0.88530 0.53320 -0.37100
O 	O 	0.77680 0.92550 0.41430 -0.33700
C 	C 	0.96080 0.72880 0.26100 -0.03200
H 	H 	0.93880 0.76440 0.24200 0.06700
H 	H 	0.93290 0.68260 0.23760 0.06500
O 	O 	0.13150 0.46490 0.63790 -0.41000
O 	O 	0.10500 0.56440 0.72190 -0.43200
O 	O 	0.42990 0.27900 0.83470 -0.26800
O 	O 	0.35490 0.24940 0.72590 -0.30500
C 	C 	0.22290 0.46450 0.98800 -4.58100
H 	H 	0.26500 0.44380 0.01020 1.51500
H 	H 	0.16870 0.44110 0.01000 1.02700
C 	C 	0.98930 0.64310 0.54340 0.65000
C 	C 	0.79960 0.87670 0.46340 0.37900
C 	C 	0.94990 0.69360 0.48080 -0.29800
C 	C 	0.89150 0.75720 0.50280 0.16100
H 	H 	0.87620 0.76490 0.55620 0.01500
C 	C 	0.85730 0.80780 0.44450 -0.14200
C 	C 	0.88180 0.79290 0.36440 0.06000
H 	H 	0.86290 0.82840 0.32520 0.04500
C 	C 	0.93360 0.72670 0.34180 -0.09400
C 	C 	0.97450 0.68450 0.40320 0.30200
H 	H 	0.02060 0.64850 0.39070 -0.11700
C 	C 	0.13750 0.49670 0.70570 0.10900
C 	C 	0.36660 0.29350 0.78780 -0.07500
C 	C 	0.18710 0.45410 0.76860 0.75800
C 	C 	0.24580 0.39330 0.74900 -0.87400
H 	H 	0.25000 0.37620 0.69630 0.35300
C 	C 	0.29900 0.35700 0.80780 0.96200
C 	C 	0.28620 0.38100 0.88880 -2.10000
H 	H 	0.31810 0.35940 0.92530 0.95600
C 	C 	0.22370 0.43780 0.90900 2.70200
C 	C 	0.17710 0.48030 0.84820 -1.56600
H 	H 	0.14100 0.52420 0.86040 0.67000
O 	O 	0.55140 0.09840 0.52260 -0.58300
O 	O 	0.45400 0.14550 0.61290 -0.50600
O 	O 	0.27080 0.38530 0.53320 -0.43500
O 	O 	0.27680 0.42550 0.41430 -0.44700
C 	C 	0.46080 0.22880 0.26100 0.23600
H 	H 	0.43880 0.26440 0.24200 -0.08400
H 	H 	0.43290 0.18260 0.23760 -0.02900
O 	O 	0.63150 0.96490 0.63790 -0.40000
O 	O 	0.60500 0.06440 0.72190 -0.61800
O 	O 	0.92990 0.77900 0.83470 -0.20200
O 	O 	0.85490 0.74940 0.72590 -0.27500
C 	C 	0.72290 0.96450 0.98800 -5.36900
H 	H 	0.76500 0.94380 0.01020 1.88400
H 	H 	0.66870 0.94110 0.01000 1.28800
C 	C 	0.48930 0.14310 0.54340 0.49300
C 	C 	0.29960 0.37670 0.46340 0.39500
C 	C 	0.44990 0.19360 0.48080 -0.21100
C 	C 	0.39150 0.25720 0.50280 0.12000
H 	H 	0.37620 0.26490 0.55620 0.01600
C 	C 	0.35730 0.30780 0.44450 -0.16900
C 	C 	0.38180 0.29290 0.36440 0.08500
H 	H 	0.36290 0.32840 0.32520 0.00900
C 	C 	0.43360 0.22670 0.34180 -0.15200
C 	C 	0.47450 0.18450 0.40320 0.11300
H 	H 	0.52060 0.14850 0.39070 -0.00500
C 	C 	0.63750 0.99670 0.70570 0.43600
C 	C 	0.86660 0.79350 0.78780 -0.08500
C 	C 	0.68710 0.95410 0.76860 0.60800
C 	C 	0.74580 0.89330 0.74900 -0.79900
H 	H 	0.75000 0.87620 0.69630 0.34200
C 	C 	0.79900 0.85700 0.80780 1.01200
C 	C 	0.78620 0.88100 0.88880 -2.25100
H 	H 	0.81810 0.85940 0.92530 1.03400
C 	C 	0.72370 0.93780 0.90900 2.95200
C 	C 	0.67710 0.98030 0.84820 -1.21900
H 	H 	0.64100 0.02420 0.86040 0.44000
O 	O 	0.05140 0.40160 0.47740 -0.63200
O 	O 	0.95400 0.35450 0.38710 -0.48000
O 	O 	0.77080 0.11470 0.46680 -0.42500
O 	O 	0.77680 0.07450 0.58570 -0.49100
C 	C 	0.96080 0.27120 0.73900 -1.01600
H 	H 	0.93880 0.23560 0.75800 0.54000
H 	H 	0.93290 0.31740 0.76240 0.35000
O 	O 	0.13150 0.53510 0.36210 -0.56100
O 	O 	0.10500 0.43560 0.27810 -0.62000
O 	O 	0.42990 0.72100 0.16530 -0.53700
O 	O 	0.35490 0.75060 0.27410 -0.47000
C 	C 	0.22290 0.53550 0.01200 4.08500
H 	H 	0.26500 0.55620 0.98980 -1.22500
H 	H 	0.16870 0.55890 0.99000 -0.81600
C 	C 	0.98930 0.35690 0.45660 0.58300
C 	C 	0.79960 0.12330 0.53660 0.34600
C 	C 	0.94990 0.30640 0.51920 -0.13700
C 	C 	0.89150 0.24280 0.49720 0.01700
H 	H 	0.87620 0.23510 0.44380 0.06100
C 	C 	0.85730 0.19220 0.55550 -0.02800
C 	C 	0.88180 0.20710 0.63560 -0.22200
H 	H 	0.86290 0.17160 0.67480 0.11700
C 	C 	0.93360 0.27330 0.65820 0.36300
C 	C 	0.97450 0.31550 0.59680 -0.00500
H 	H 	0.02060 0.35150 0.60930 -0.01600
C 	C 	0.13750 0.50330 0.29430 0.73700
C 	C 	0.36660 0.70650 0.21220 0.64100
C 	C 	0.18710 0.54590 0.23140 -0.94200
C 	C 	0.24580 0.60670 0.25100 0.85400
H 	H 	0.25000 0.62380 0.30370 -0.22600
C 	C 	0.29900 0.64300 0.19220 -0.98700
C 	C 	0.28620 0.61900 0.11120 1.79900
H 	H 	0.31810 0.64060 0.07470 -0.73800
C 	C 	0.22370 0.56220 0.09100 -2.45000
C 	C 	0.17710 0.51970 0.15180 1.39200
H 	H 	0.14100 0.47580 0.13960 -0.55200
O 	O 	0.55140 0.90160 0.47740 -0.45200
O 	O 	0.45400 0.85450 0.38710 -0.46400
O 	O 	0.27080 0.61470 0.46680 -0.38600
O 	O 	0.27680 0.57450 0.58570 -0.40900
C 	C 	0.46080 0.77120 0.73900 -0.80300
H 	H 	0.43880 0.73560 0.75800 0.43300
H 	H 	0.43290 0.81740 0.76240 0.27400
O 	O 	0.63150 0.03510 0.36210 -0.53400
O 	O 	0.60500 0.93560 0.27810 -0.38300
O 	O 	0.92990 0.22100 0.16530 -0.50300
O 	O 	0.85490 0.25060 0.27410 -0.45300
C 	C 	0.72290 0.03550 0.01200 4.82200
H 	H 	0.76500 0.05620 0.98980 -1.55500
H 	H 	0.66870 0.05890 0.99000 -1.04900
C 	C 	0.48930 0.85690 0.45660 0.39100
C 	C 	0.29960 0.62330 0.53660 0.30700
C 	C 	0.44990 0.80640 0.51920 -0.00300
C 	C 	0.39150 0.74280 0.49720 -0.07700
H 	H 	0.37620 0.73510 0.44380 0.09000
C 	C 	0.35730 0.69220 0.55550 0.03000
C 	C 	0.38180 0.70710 0.63560 -0.25300
H 	H 	0.36290 0.67160 0.67480 0.14000
C 	C 	0.43360 0.77330 0.65820 0.36300
C 	C 	0.47450 0.81550 0.59680 -0.24700
H 	H 	0.52060 0.85150 0.60930 0.13800
C 	C 	0.63750 0.00330 0.29430 0.40100
C 	C 	0.86660 0.20650 0.21220 0.63000
C 	C 	0.68710 0.04590 0.23140 -0.75200
C 	C 	0.74580 0.10670 0.25100 0.74500
H 	H 	0.75000 0.12380 0.30370 -0.19600
C 	C 	0.79900 0.14300 0.19220 -0.98500
C 	C 	0.78620 0.11900 0.11120 1.89900
H 	H 	0.81810 0.14060 0.07470 -0.77800
C 	C 	0.72370 0.06220 0.09100 -2.64800
C 	C 	0.67710 0.01970 0.15180 1.01600
H 	H 	0.64100 0.97580 0.13960 -0.28800
O 	O 	0.94860 0.59840 0.97740 -0.39300
O 	O 	0.04600 0.64550 0.88710 -0.63100
O 	O 	0.22920 0.88530 0.96680 0.00000
O 	O 	0.22320 0.92550 0.08570 -0.36400
C 	C 	0.03920 0.72880 0.23900 -0.07300
H 	H 	0.06120 0.76440 0.25800 0.06500
H 	H 	0.06710 0.68260 0.26240 0.05600
O 	O 	0.86850 0.46490 0.86210 -0.39400
O 	O 	0.89500 0.56440 0.77810 -0.46000
O 	O 	0.57010 0.27900 0.66530 -0.39500
O 	O 	0.64510 0.24940 0.77410 -0.33200
C 	C 	0.77710 0.46450 0.51200 -0.24000
H 	H 	0.73500 0.44380 0.48980 0.14100
H 	H 	0.83130 0.44110 0.49000 0.11200
C 	C 	0.01070 0.64310 0.95660 1.13800
C 	C 	0.20040 0.87670 0.03660 0.19000
C 	C 	0.05010 0.69360 0.01920 -1.62500
C 	C 	0.10850 0.75720 0.99720 1.84000
H 	H 	0.12380 0.76490 0.94380 -0.48100
C 	C 	0.14270 0.80780 0.05550 -1.10100
C 	C 	0.11820 0.79290 0.13560 0.55300
H 	H 	0.13710 0.82840 0.17480 -0.12600
C 	C 	0.06640 0.72670 0.15820 -0.47400
C 	C 	0.02550 0.68450 0.09680 0.69000
H 	H 	0.97940 0.64850 0.10930 -0.19500
C 	C 	0.86250 0.49670 0.79430 0.39700
C 	C 	0.63340 0.29350 0.71220 0.26700
C 	C 	0.81290 0.45410 0.73140 -0.06100
C 	C 	0.75420 0.39330 0.75100 -0.04500
H 	H 	0.75000 0.37620 0.80370 0.09500
C 	C 	0.70100 0.35700 0.69220 0.01600
C 	C 	0.71380 0.38100 0.61120 -0.17500
H 	H 	0.68190 0.35940 0.57470 0.11700
C 	C 	0.77630 0.43780 0.59100 0.13900
C 	C 	0.82290 0.48030 0.65180 -0.09900
H 	H 	0.85900 0.52420 0.63960 0.08200
O 	O 	0.44860 0.09840 0.97740 -0.56900
O 	O 	0.54600 0.14550 0.88710 -0.66100
O 	O 	0.72920 0.38530 0.96680 -0.04000
O 	O 	0.72320 0.42550 0.08570 -0.46500
C 	C 	0.53920 0.22880 0.23900 -0.28900
H 	H 	0.56120 0.26440 0.25800 0.17200
H 	H 	0.56710 0.18260 0.26240 0.13000
O 	O 	0.36850 0.96490 0.86210 -0.40700
O 	O 	0.39500 0.06440 0.77810 -0.70400
O 	O 	0.07010 0.77900 0.66530 -0.42700
O 	O 	0.14510 0.74940 0.77410 -0.34600
C 	C 	0.27710 0.96450 0.51200 -0.94400
H 	H 	0.23500 0.94380 0.48980 0.46400
H 	H 	0.33130 0.94110 0.49000 0.34300
C 	C 	0.51070 0.14310 0.95660 1.37300
C 	C 	0.70040 0.37670 0.03660 0.22700
C 	C 	0.55010 0.19360 0.01920 -1.82000
C 	C 	0.60850 0.25720 0.99720 2.01100
H 	H 	0.62380 0.26490 0.94380 -0.53200
C 	C 	0.64270 0.30780 0.05550 -1.20300
C 	C 	0.61820 0.29290 0.13560 0.60800
H 	H 	0.63710 0.32840 0.17480 -0.15700
C 	C 	0.56640 0.22670 0.15820 -0.49000
C 	C 	0.52550 0.18450 0.09680 0.94800
H 	H 	0.47940 0.14850 0.10930 -0.34600
C 	C 	0.36250 0.99670 0.79430 0.72800
C 	C 	0.13340 0.79350 0.71220 0.28000
C 	C 	0.31290 0.95410 0.73140 -0.25500
C 	C 	0.25420 0.89330 0.75100 0.06800
H 	H 	0.25000 0.87620 0.80370 0.06200
C 	C 	0.20100 0.85700 0.69220 0.00600
C 	C 	0.21380 0.88100 0.61120 -0.26100
H 	H 	0.18190 0.85940 0.57470 0.15000
C 	C 	0.27630 0.93780 0.59100 0.31700
C 	C 	0.32290 0.98030 0.65180 0.28300
H 	H 	0.35900 0.02420 0.63960 -0.18400
Pr	Pr	0.00000 0.33163 0.25000 2.05300
Pr	Pr	0.50000 0.83163 0.25000 2.08400
Pr	Pr	0.00000 0.66837 0.75000 2.05300
Pr	Pr	0.50000 0.16837 0.75000 2.09900
Pr	Pr	0.83765 0.50000 -0.00000 1.91800
Pr	Pr	0.33765 0.00000 -0.00000 1.84200
Pr	Pr	0.16235 0.50000 0.50000 2.10000
Pr	Pr	0.66235 0.00000 0.50000 2.01200
