data_crystal

_cell_length_a 23.60660
_cell_length_b 10.05990
_cell_length_c 17.71350
_cell_angle_alpha 90.00000
_cell_angle_beta  124.83600
_cell_angle_gamma 90.00000

_symmetry_space_group_name_	'P 1'
_symmetry_space_group_name_H-M	'P 1'

loop_
_symmetry_equiv_pos_as_xyz
  x,y,z

loop_
_atom_site_label
_atom_site_type_symbol
_atom_site_fract_x
_atom_site_fract_y
_atom_site_fract_z
_atom_site_charge
Cd	Cd	0.36431 0.40064 0.37367 1.19200
C 	C 	0.47221 0.75860 0.28970 0.01900
H 	H 	0.45390 0.80470 0.31660 0.02700
C 	C 	0.47188 0.62170 0.28920 -0.10100
C 	C 	0.43980 0.54690 0.32939 0.30900
O 	O 	0.43057 0.60550 0.38470 -0.37800
O 	O 	0.42023 0.42980 0.30396 -0.40900
C 	C 	0.70208 0.12680 0.31425 -0.03700
C 	C 	0.69133 0.24530 0.34530 -0.06100
H 	H 	0.70020 0.32590 0.32830 0.03500
C 	C 	0.66744 0.24450 0.40163 0.01400
C 	C 	0.65564 0.12290 0.42720 -0.07000
H 	H 	0.64030 0.12040 0.46530 0.05100
C 	C 	0.66640 0.00460 0.39650 -0.01500
H 	H 	0.65800 0.92400 0.41400 0.03400
C 	C 	0.68964 0.00570 0.34030 -0.05800
H 	H 	0.69690 0.92620 0.32010 0.03900
C 	C 	0.72583 0.12870 0.25318 0.10800
C 	C 	0.65617 0.36730 0.43497 0.06700
C 	C 	0.63683 0.38720 0.49390 -0.03000
H 	H 	0.62510 0.32020 0.51880 0.03000
C 	C 	0.65679 0.58150 0.46220 0.12200
H 	H 	0.66160 0.67300 0.46060 -0.02800
N 	N 	0.76972 0.04270 0.25499 -0.18500
N 	N 	0.77484 0.08050 0.18630 -0.06700
N 	N 	0.73640 0.18430 0.14457 -0.08000
N 	N 	0.70467 0.21810 0.18633 -0.22200
N 	N 	0.66839 0.49290 0.41569 -0.21300
H 	H 	0.68120 0.51120 0.38010 0.14300
N 	N 	0.63740 0.52080 0.51080 -0.25200
Cd	Cd	0.63569 0.40064 0.12633 1.19100
C 	C 	0.52779 0.75860 0.21030 0.01800
H 	H 	0.54610 0.80470 0.18340 0.02700
C 	C 	0.52812 0.62170 0.21080 -0.10100
C 	C 	0.56020 0.54690 0.17061 0.30900
O 	O 	0.56943 0.60550 0.11530 -0.37800
O 	O 	0.57977 0.42980 0.19604 -0.40900
C 	C 	0.29792 0.12680 0.18575 -0.03600
C 	C 	0.30867 0.24530 0.15470 -0.06100
H 	H 	0.29980 0.32590 0.17170 0.03500
C 	C 	0.33256 0.24450 0.09837 0.01500
C 	C 	0.34436 0.12290 0.07280 -0.07100
H 	H 	0.35970 0.12040 0.03470 0.05200
C 	C 	0.33360 0.00460 0.10350 -0.01400
H 	H 	0.34200 0.92400 0.08600 0.03300
C 	C 	0.31036 0.00570 0.15970 -0.05800
H 	H 	0.30310 0.92620 0.17990 0.03900
C 	C 	0.27417 0.12870 0.24682 0.10700
C 	C 	0.34383 0.36730 0.06503 0.06700
C 	C 	0.36317 0.38720 0.00610 -0.02900
H 	H 	0.37490 0.32020 0.98120 0.02900
C 	C 	0.34321 0.58150 0.03780 0.12200
H 	H 	0.33840 0.67300 0.03940 -0.02800
N 	N 	0.23028 0.04270 0.24501 -0.18500
N 	N 	0.22516 0.08050 0.31370 -0.06800
N 	N 	0.26360 0.18430 0.35543 -0.08000
N 	N 	0.29533 0.21810 0.31367 -0.22200
N 	N 	0.33161 0.49290 0.08431 -0.21300
H 	H 	0.31880 0.51120 0.11990 0.14300
N 	N 	0.36260 0.52080 0.98920 -0.25300
Cd	Cd	0.63569 0.59936 0.62633 1.19100
C 	C 	0.52779 0.24140 0.71030 0.01800
H 	H 	0.54610 0.19530 0.68340 0.02700
C 	C 	0.52812 0.37830 0.71080 -0.10100
C 	C 	0.56020 0.45310 0.67061 0.30900
O 	O 	0.56943 0.39450 0.61530 -0.37800
O 	O 	0.57977 0.57020 0.69604 -0.40900
C 	C 	0.29792 0.87320 0.68575 -0.03700
C 	C 	0.30867 0.75470 0.65470 -0.06100
H 	H 	0.29980 0.67410 0.67170 0.03500
C 	C 	0.33256 0.75550 0.59837 0.01400
C 	C 	0.34436 0.87710 0.57280 -0.07000
H 	H 	0.35970 0.87960 0.53470 0.05100
C 	C 	0.33360 0.99540 0.60350 -0.01500
H 	H 	0.34200 0.07600 0.58600 0.03400
C 	C 	0.31036 0.99430 0.65970 -0.05800
H 	H 	0.30310 0.07380 0.67990 0.03900
C 	C 	0.27417 0.87130 0.74682 0.10800
C 	C 	0.34383 0.63270 0.56503 0.06700
C 	C 	0.36317 0.61280 0.50610 -0.03000
H 	H 	0.37490 0.67980 0.48120 0.03000
C 	C 	0.34321 0.41850 0.53780 0.12200
H 	H 	0.33840 0.32700 0.53940 -0.02800
N 	N 	0.23028 0.95730 0.74501 -0.18500
N 	N 	0.22516 0.91950 0.81370 -0.06800
N 	N 	0.26360 0.81570 0.85543 -0.08000
N 	N 	0.29533 0.78190 0.81367 -0.22200
N 	N 	0.33161 0.50710 0.58431 -0.21300
H 	H 	0.31880 0.48880 0.61990 0.14300
N 	N 	0.36260 0.47920 0.48920 -0.25200
Cd	Cd	0.36431 0.59936 0.87367 1.19100
C 	C 	0.47221 0.24140 0.78970 0.01800
H 	H 	0.45390 0.19530 0.81660 0.02700
C 	C 	0.47188 0.37830 0.78920 -0.10100
C 	C 	0.43980 0.45310 0.82939 0.30900
O 	O 	0.43057 0.39450 0.88470 -0.37800
O 	O 	0.42023 0.57020 0.80396 -0.40900
C 	C 	0.70208 0.87320 0.81425 -0.03600
C 	C 	0.69133 0.75470 0.84530 -0.06100
H 	H 	0.70020 0.67410 0.82830 0.03500
C 	C 	0.66744 0.75550 0.90163 0.01400
C 	C 	0.65564 0.87710 0.92720 -0.07100
H 	H 	0.64030 0.87960 0.96530 0.05200
C 	C 	0.66640 0.99540 0.89650 -0.01400
H 	H 	0.65800 0.07600 0.91400 0.03300
C 	C 	0.68964 0.99430 0.84030 -0.05800
H 	H 	0.69690 0.07380 0.82010 0.03900
C 	C 	0.72583 0.87130 0.75318 0.10800
C 	C 	0.65617 0.63270 0.93497 0.06700
C 	C 	0.63683 0.61280 0.99390 -0.03000
H 	H 	0.62510 0.67980 0.01880 0.03000
C 	C 	0.65679 0.41850 0.96220 0.12100
H 	H 	0.66160 0.32700 0.96060 -0.02800
N 	N 	0.76972 0.95730 0.75499 -0.18500
N 	N 	0.77484 0.91950 0.68630 -0.06800
N 	N 	0.73640 0.81570 0.64457 -0.08000
N 	N 	0.70467 0.78190 0.68633 -0.22200
N 	N 	0.66839 0.50710 0.91569 -0.21300
H 	H 	0.68120 0.48880 0.88010 0.14300
N 	N 	0.63740 0.47920 0.01080 -0.25200
C 	C 	0.50000 0.82810 0.25000 -0.10000
H 	H 	0.50000 0.92050 0.25000 0.06100
C 	C 	0.50000 0.55190 0.25000 0.03400
H 	H 	0.50000 0.45940 0.25000 0.04500
C 	C 	0.50000 0.17190 0.75000 -0.10000
H 	H 	0.50000 0.07950 0.75000 0.06100
C 	C 	0.50000 0.44810 0.75000 0.03400
H 	H 	0.50000 0.54060 0.75000 0.04500
C 	C 	0.20208 0.62680 0.31425 -0.03600
C 	C 	0.19133 0.74530 0.34530 -0.06100
H 	H 	0.20020 0.82590 0.32830 0.03500
C 	C 	0.16744 0.74450 0.40163 0.01400
C 	C 	0.15564 0.62290 0.42720 -0.07000
H 	H 	0.14030 0.62040 0.46530 0.05100
C 	C 	0.16640 0.50460 0.39650 -0.01600
H 	H 	0.15800 0.42400 0.41400 0.03400
C 	C 	0.18964 0.50570 0.34030 -0.05900
H 	H 	0.19690 0.42620 0.32010 0.03900
C 	C 	0.22583 0.62870 0.25318 0.10700
C 	C 	0.15617 0.86730 0.43497 0.06700
C 	C 	0.13683 0.88720 0.49390 -0.03000
H 	H 	0.12510 0.82020 0.51880 0.02900
C 	C 	0.15679 0.08150 0.46220 0.12100
H 	H 	0.16160 0.17300 0.46060 -0.02800
N 	N 	0.26972 0.54270 0.25499 -0.18500
N 	N 	0.27484 0.58050 0.18630 -0.06800
N 	N 	0.23640 0.68430 0.14457 -0.08000
N 	N 	0.20467 0.71810 0.18633 -0.22300
N 	N 	0.16839 0.99290 0.41569 -0.21300
H 	H 	0.18120 0.01120 0.38010 0.14300
N 	N 	0.13740 0.02080 0.51080 -0.25300
Cd	Cd	0.86431 0.90064 0.37367 1.19100
C 	C 	0.97221 0.25860 0.28970 0.02200
H 	H 	0.95390 0.30470 0.31660 0.02600
C 	C 	0.97188 0.12170 0.28920 -0.09900
C 	C 	0.93980 0.04690 0.32939 0.30900
O 	O 	0.93057 0.10550 0.38470 -0.37800
O 	O 	0.92023 0.92980 0.30396 -0.40900
C 	C 	0.79792 0.62680 0.18575 -0.03600
C 	C 	0.80867 0.74530 0.15470 -0.06100
H 	H 	0.79980 0.82590 0.17170 0.03500
C 	C 	0.83256 0.74450 0.09837 0.01400
C 	C 	0.84436 0.62290 0.07280 -0.07000
H 	H 	0.85970 0.62040 0.03470 0.05200
C 	C 	0.83360 0.50460 0.10350 -0.01600
H 	H 	0.84200 0.42400 0.08600 0.03400
C 	C 	0.81036 0.50570 0.15970 -0.05800
H 	H 	0.80310 0.42620 0.17990 0.03900
C 	C 	0.77417 0.62870 0.24682 0.10800
C 	C 	0.84383 0.86730 0.06503 0.06700
C 	C 	0.86317 0.88720 0.00610 -0.03000
H 	H 	0.87490 0.82020 0.98120 0.03000
C 	C 	0.84321 0.08150 0.03780 0.12300
H 	H 	0.83840 0.17300 0.03940 -0.02800
N 	N 	0.73028 0.54270 0.24501 -0.18500
N 	N 	0.72516 0.58050 0.31370 -0.06800
N 	N 	0.76360 0.68430 0.35543 -0.08000
N 	N 	0.79533 0.71810 0.31367 -0.22200
N 	N 	0.83161 0.99290 0.08431 -0.21400
H 	H 	0.81880 0.01120 0.11990 0.14400
N 	N 	0.86260 0.02080 0.98920 -0.25300
Cd	Cd	0.13569 0.90064 0.12633 1.19100
C 	C 	0.02779 0.25860 0.21030 0.01900
H 	H 	0.04610 0.30470 0.18340 0.02600
C 	C 	0.02812 0.12170 0.21080 -0.10100
C 	C 	0.06020 0.04690 0.17061 0.31000
O 	O 	0.06943 0.10550 0.11530 -0.37900
O 	O 	0.07977 0.92980 0.19604 -0.41000
C 	C 	0.79792 0.37320 0.68575 -0.03600
C 	C 	0.80867 0.25470 0.65470 -0.06100
H 	H 	0.79980 0.17410 0.67170 0.03500
C 	C 	0.83256 0.25550 0.59837 0.01400
C 	C 	0.84436 0.37710 0.57280 -0.07000
H 	H 	0.85970 0.37960 0.53470 0.05200
C 	C 	0.83360 0.49540 0.60350 -0.01600
H 	H 	0.84200 0.57600 0.58600 0.03400
C 	C 	0.81036 0.49430 0.65970 -0.05800
H 	H 	0.80310 0.57380 0.67990 0.03900
C 	C 	0.77417 0.37130 0.74682 0.10800
C 	C 	0.84383 0.13270 0.56503 0.06700
C 	C 	0.86317 0.11280 0.50610 -0.02900
H 	H 	0.87490 0.17980 0.48120 0.03000
C 	C 	0.84321 0.91850 0.53780 0.12200
H 	H 	0.83840 0.82700 0.53940 -0.02800
N 	N 	0.73028 0.45730 0.74501 -0.18500
N 	N 	0.72516 0.41950 0.81370 -0.06800
N 	N 	0.76360 0.31570 0.85543 -0.08000
N 	N 	0.79533 0.28190 0.81367 -0.22200
N 	N 	0.83161 0.00710 0.58431 -0.21300
H 	H 	0.81880 0.98880 0.61990 0.14300
N 	N 	0.86260 0.97920 0.48920 -0.25200
Cd	Cd	0.13569 0.09936 0.62633 1.19100
C 	C 	0.02779 0.74140 0.71030 0.01900
H 	H 	0.04610 0.69530 0.68340 0.02600
C 	C 	0.02812 0.87830 0.71080 -0.10200
C 	C 	0.06020 0.95310 0.67061 0.31000
O 	O 	0.06943 0.89450 0.61530 -0.37900
O 	O 	0.07977 0.07020 0.69604 -0.41000
C 	C 	0.20208 0.37320 0.81425 -0.03700
C 	C 	0.19133 0.25470 0.84530 -0.06100
H 	H 	0.20020 0.17410 0.82830 0.03500
C 	C 	0.16744 0.25550 0.90163 0.01300
C 	C 	0.15564 0.37710 0.92720 -0.07000
H 	H 	0.14030 0.37960 0.96530 0.05100
C 	C 	0.16640 0.49540 0.89650 -0.01600
H 	H 	0.15800 0.57600 0.91400 0.03400
C 	C 	0.18964 0.49430 0.84030 -0.05800
H 	H 	0.19690 0.57380 0.82010 0.03900
C 	C 	0.22583 0.37130 0.75318 0.10700
C 	C 	0.15617 0.13270 0.93497 0.06800
C 	C 	0.13683 0.11280 0.99390 -0.03100
H 	H 	0.12510 0.17980 0.01880 0.03000
C 	C 	0.15679 0.91850 0.96220 0.12200
H 	H 	0.16160 0.82700 0.96060 -0.02900
N 	N 	0.26972 0.45730 0.75499 -0.18500
N 	N 	0.27484 0.41950 0.68630 -0.06800
N 	N 	0.23640 0.31570 0.64457 -0.08000
N 	N 	0.20467 0.28190 0.68633 -0.22300
N 	N 	0.16839 0.00710 0.91569 -0.21400
H 	H 	0.18120 0.98880 0.88010 0.14400
N 	N 	0.13740 0.97920 0.01080 -0.25300
Cd	Cd	0.86431 0.09936 0.87367 1.19100
C 	C 	0.97221 0.74140 0.78970 0.02200
H 	H 	0.95390 0.69530 0.81660 0.02600
C 	C 	0.97188 0.87830 0.78920 -0.10000
C 	C 	0.93980 0.95310 0.82939 0.31000
O 	O 	0.93057 0.89450 0.88470 -0.37800
O 	O 	0.92023 0.07020 0.80396 -0.40900
C 	C 	-0.00000 0.32810 0.25000 -0.10400
H 	H 	0.00000 0.42050 0.25000 0.06200
C 	C 	0.00000 0.05190 0.25000 0.03200
H 	H 	-0.00000 0.95940 0.25000 0.04500
C 	C 	0.00000 0.67190 0.75000 -0.10400
H 	H 	0.00000 0.57950 0.75000 0.06200
C 	C 	0.00000 0.94810 0.75000 0.03300
H 	H 	0.00000 0.04060 0.75000 0.04500
