data_crystal

_cell_length_a 14.60770
_cell_length_b 16.55680
_cell_length_c 16.63030
_cell_angle_alpha 90.00000
_cell_angle_beta  90.00000
_cell_angle_gamma 90.00000

_symmetry_space_group_name_	'P 1'
_symmetry_space_group_name_H-M	'P 1'

loop_
_symmetry_equiv_pos_as_xyz
  x,y,z

loop_
_atom_site_label
_atom_site_type_symbol
_atom_site_fract_x
_atom_site_fract_y
_atom_site_fract_z
_atom_site_charge
O 	O 	0.55380 0.09690 0.52390 -0.56500
O 	O 	0.45660 0.14370 0.61480 -0.50100
O 	O 	0.26640 0.38480 0.53620 -0.39200
O 	O 	0.27190 0.42610 0.41400 -0.42800
O 	O 	0.35690 0.24800 0.72510 -0.47000
O 	O 	0.43530 0.28040 0.83220 -0.51700
O 	O 	0.13100 0.46540 0.63530 -0.58100
O 	O 	0.10210 0.56540 0.72190 -0.61500
C 	C 	0.23150 0.46880 0.98720 4.30200
H 	H 	0.28470 0.44450 0.01100 -0.95800
H 	H 	0.17980 0.44390 0.01280 -0.96500
C 	C 	0.49050 0.14240 0.54400 0.49600
C 	C 	0.29680 0.37920 0.46540 0.32000
C 	C 	0.45120 0.19510 0.48300 -0.09600
C 	C 	0.47550 0.18580 0.40330 -0.13800
H 	H 	0.51930 0.14750 0.38950 0.08800
C 	C 	0.43620 0.23220 0.34370 0.24500
C 	C 	0.37830 0.29320 0.36460 -0.17600
H 	H 	0.35350 0.32560 0.32440 0.11400
C 	C 	0.35460 0.30880 0.44560 -0.01900
C 	C 	0.39160 0.25790 0.50550 -0.00700
H 	H 	0.37670 0.26580 0.55930 0.06400
C 	C 	0.36880 0.29360 0.78590 0.61900
C 	C 	0.13650 0.49840 0.70370 0.76600
C 	C 	0.29910 0.35530 0.80740 -0.91700
C 	C 	0.24710 0.39220 0.74880 0.84700
H 	H 	0.25240 0.37560 0.69560 -0.22500
C 	C 	0.18740 0.45360 0.76830 -0.95400
C 	C 	0.17940 0.48030 0.84680 1.43100
H 	H 	0.14400 0.52530 0.85900 -0.55400
C 	C 	0.22580 0.43810 0.90810 -2.36800
C 	C 	0.28710 0.37900 0.88730 1.48300
H 	H 	0.32140 0.35410 0.92730 -0.50700
C 	C 	0.46480 0.23470 0.26260 -0.53200
H 	H 	0.43660 0.28210 0.24040 0.20600
H 	H 	0.43540 0.18950 0.23740 0.19100
O 	O 	0.05380 0.59690 0.52390 -0.67900
O 	O 	0.95660 0.64370 0.61480 -0.46100
O 	O 	0.76640 0.88480 0.53620 -0.38100
O 	O 	0.77190 0.92610 0.41400 -0.41500
O 	O 	0.85690 0.74800 0.72510 -0.42100
O 	O 	0.93530 0.78040 0.83220 -0.42900
O 	O 	0.63100 0.96540 0.63530 -0.57700
O 	O 	0.60210 0.06540 0.72190 -0.62100
C 	C 	0.73150 0.96880 0.98720 4.27300
H 	H 	0.78470 0.94450 0.01100 -0.93900
H 	H 	0.67980 0.94390 0.01280 -0.94900
C 	C 	0.99050 0.64240 0.54400 0.65000
C 	C 	0.79680 0.87920 0.46540 0.30200
C 	C 	0.95120 0.69510 0.48300 -0.11800
C 	C 	0.97550 0.68580 0.40330 -0.06500
H 	H 	0.01930 0.64750 0.38950 -0.00200
C 	C 	0.93620 0.73220 0.34370 0.56400
C 	C 	0.87830 0.79320 0.36460 -0.34700
H 	H 	0.85350 0.82560 0.32440 0.17600
C 	C 	0.85460 0.80880 0.44560 0.05300
C 	C 	0.89160 0.75790 0.50550 -0.01700
H 	H 	0.87670 0.76580 0.55930 0.07900
C 	C 	0.86880 0.79360 0.78590 0.60500
C 	C 	0.63650 0.99840 0.70370 0.77600
C 	C 	0.79910 0.85530 0.80740 -0.89200
C 	C 	0.74710 0.89220 0.74880 0.82900
H 	H 	0.75240 0.87560 0.69560 -0.21800
C 	C 	0.68740 0.95360 0.76830 -0.94200
C 	C 	0.67940 0.98030 0.84680 1.41300
H 	H 	0.64400 0.02530 0.85900 -0.53500
C 	C 	0.72580 0.93810 0.90810 -2.34400
C 	C 	0.78710 0.87900 0.88730 1.46100
H 	H 	0.82140 0.85410 0.92730 -0.49000
C 	C 	0.96480 0.73470 0.26260 -1.34200
H 	H 	0.93660 0.78210 0.24040 0.46000
H 	H 	0.93540 0.68950 0.23740 0.43900
O 	O 	0.44620 0.90310 0.02390 -0.67900
O 	O 	0.54340 0.85630 0.11480 -0.62900
O 	O 	0.73360 0.61520 0.03620 -0.26700
O 	O 	0.72810 0.57390 0.91400 -0.52900
O 	O 	0.64310 0.75200 0.22510 -0.36400
O 	O 	0.56470 0.71960 0.33220 -0.40800
O 	O 	0.86900 0.53460 0.13530 -0.54500
O 	O 	0.89790 0.43460 0.22190 -0.47700
C 	C 	0.76850 0.53120 0.48720 -0.11300
H 	H 	0.71530 0.55550 0.51100 0.07000
H 	H 	0.82020 0.55610 0.51280 0.07400
C 	C 	0.50950 0.85760 0.04400 1.10300
C 	C 	0.70320 0.62080 0.96540 0.27200
C 	C 	0.54880 0.80490 0.98300 -1.12800
C 	C 	0.52450 0.81420 0.90330 0.49800
H 	H 	0.48070 0.85250 0.88950 -0.16600
C 	C 	0.56380 0.76780 0.84370 -0.18700
C 	C 	0.62170 0.70680 0.86460 0.28500
H 	H 	0.64650 0.67440 0.82440 -0.04900
C 	C 	0.64540 0.69120 0.94560 -0.68500
C 	C 	0.60840 0.74210 0.00550 1.16200
H 	H 	0.62330 0.73420 0.05930 -0.28700
C 	C 	0.63120 0.70640 0.28590 0.30300
C 	C 	0.86350 0.50160 0.20370 0.49900
C 	C 	0.70090 0.64470 0.30740 -0.06100
C 	C 	0.75290 0.60780 0.24880 0.02600
H 	H 	0.74760 0.62440 0.19560 0.05400
C 	C 	0.81260 0.54640 0.26830 -0.13600
C 	C 	0.82060 0.51970 0.34680 -0.01500
H 	H 	0.85600 0.47470 0.35900 0.05600
C 	C 	0.77420 0.56190 0.40810 0.03400
C 	C 	0.71290 0.62100 0.38730 -0.05500
H 	H 	0.67860 0.64590 0.42730 0.06200
C 	C 	0.53520 0.76530 0.76260 -0.41600
H 	H 	0.56340 0.71790 0.74040 0.15300
H 	H 	0.56460 0.81050 0.73740 0.16200
O 	O 	0.94620 0.40310 0.02390 -0.54600
O 	O 	0.04340 0.35630 0.11480 -0.58500
O 	O 	0.23360 0.11520 0.03620 -0.28600
O 	O 	0.22810 0.07390 0.91400 -0.54100
O 	O 	0.14310 0.25200 0.22510 -0.35500
O 	O 	0.06470 0.21960 0.33220 -0.43700
O 	O 	0.36900 0.03460 0.13530 -0.56300
O 	O 	0.39790 0.93460 0.22190 -0.55600
C 	C 	0.26850 0.03120 0.48720 -0.10000
H 	H 	0.21530 0.05550 0.51100 0.05700
H 	H 	0.32020 0.05610 0.51280 0.06500
C 	C 	0.00950 0.35760 0.04400 0.89500
C 	C 	0.20320 0.12080 0.96540 0.29300
C 	C 	0.04880 0.30490 0.98300 -1.04700
C 	C 	0.02450 0.31420 0.90330 0.39900
H 	H 	0.98070 0.35250 0.88950 -0.06500
C 	C 	0.06380 0.26780 0.84370 -0.49500
C 	C 	0.12170 0.20680 0.86460 0.43900
H 	H 	0.14650 0.17440 0.82440 -0.10700
C 	C 	0.14540 0.19120 0.94560 -0.72800
C 	C 	0.10840 0.24210 0.00550 1.11500
H 	H 	0.12330 0.23420 0.05930 -0.28000
C 	C 	0.13120 0.20640 0.28590 0.30800
C 	C 	0.36350 0.00160 0.20370 0.51600
C 	C 	0.20090 0.14470 0.30740 -0.08400
C 	C 	0.25290 0.10780 0.24880 0.04700
H 	H 	0.24760 0.12440 0.19560 0.04500
C 	C 	0.31260 0.04640 0.26830 -0.15900
C 	C 	0.32060 0.01970 0.34680 -0.00500
H 	H 	0.35600 0.97470 0.35900 0.03800
C 	C 	0.27420 0.06190 0.40810 0.01400
C 	C 	0.21290 0.12100 0.38730 -0.03800
H 	H 	0.17860 0.14590 0.42730 0.04500
C 	C 	0.03520 0.26530 0.76260 0.41200
H 	H 	0.06340 0.21790 0.74040 -0.10600
H 	H 	0.06460 0.31050 0.73740 -0.08900
O 	O 	0.44620 0.09690 0.97610 -0.65600
O 	O 	0.54340 0.14370 0.88520 -0.43300
O 	O 	0.73360 0.38480 0.96380 -0.67900
O 	O 	0.72810 0.42610 0.08600 -0.48900
O 	O 	0.64310 0.24800 0.77490 -0.42700
O 	O 	0.56470 0.28040 0.66780 -0.41700
O 	O 	0.86900 0.46540 0.86470 -0.60800
O 	O 	0.89790 0.56540 0.77810 -0.48400
C 	C 	0.76850 0.46880 0.51280 -0.13700
H 	H 	0.71530 0.44450 0.48900 0.07700
H 	H 	0.82020 0.44390 0.48720 0.08000
C 	C 	0.50950 0.14240 0.95600 0.05400
C 	C 	0.70320 0.37920 0.03460 0.48000
C 	C 	0.54880 0.19510 0.01700 0.69500
C 	C 	0.52450 0.18580 0.09670 -0.43700
H 	H 	0.48070 0.14750 0.11050 0.21100
C 	C 	0.56380 0.23220 0.15630 0.21300
C 	C 	0.62170 0.29320 0.13540 -0.32500
H 	H 	0.64650 0.32560 0.17560 0.15700
C 	C 	0.64540 0.30880 0.05440 0.45000
C 	C 	0.60840 0.25790 0.99450 -0.96800
H 	H 	0.62330 0.26580 0.94070 0.33600
C 	C 	0.63120 0.29360 0.71410 0.31700
C 	C 	0.86350 0.49840 0.79630 0.52300
C 	C 	0.70090 0.35530 0.69260 -0.08600
C 	C 	0.75290 0.39220 0.75120 0.04700
H 	H 	0.74760 0.37560 0.80440 0.02400
C 	C 	0.81260 0.45360 0.73170 -0.14800
C 	C 	0.82060 0.48030 0.65320 -0.00900
H 	H 	0.85600 0.52530 0.64100 0.05500
C 	C 	0.77420 0.43810 0.59190 0.03700
C 	C 	0.71290 0.37900 0.61270 -0.04700
H 	H 	0.67860 0.35410 0.57270 0.05800
C 	C 	0.53520 0.23470 0.23740 0.14500
H 	H 	0.56340 0.28210 0.25960 0.00100
H 	H 	0.56460 0.18950 0.26260 -0.00700
O 	O 	0.94620 0.59690 0.97610 -0.53600
O 	O 	0.04340 0.64370 0.88520 -0.39500
O 	O 	0.23360 0.88480 0.96380 -0.68900
O 	O 	0.22810 0.92610 0.08600 -0.50300
O 	O 	0.14310 0.74800 0.77490 -0.41800
O 	O 	0.06470 0.78040 0.66780 -0.44400
O 	O 	0.36900 0.96540 0.86470 -0.62300
O 	O 	0.39790 0.06540 0.77810 -0.56000
C 	C 	0.26850 0.96880 0.51280 -0.13500
H 	H 	0.21530 0.94450 0.48900 0.06800
H 	H 	0.32020 0.94390 0.48720 0.07400
C 	C 	0.00950 0.64240 0.95600 -0.12300
C 	C 	0.20320 0.87920 0.03460 0.49500
C 	C 	0.04880 0.69510 0.01700 0.73800
C 	C 	0.02450 0.68580 0.09670 -0.52200
H 	H 	0.98070 0.64750 0.11050 0.30700
C 	C 	0.06380 0.73220 0.15630 -0.09900
C 	C 	0.12170 0.79320 0.13540 -0.16100
H 	H 	0.14650 0.82560 0.17560 0.09500
C 	C 	0.14540 0.80880 0.05440 0.38500
C 	C 	0.10840 0.75790 0.99450 -0.97100
H 	H 	0.12330 0.76580 0.94070 0.33000
C 	C 	0.13120 0.79360 0.71410 0.32100
C 	C 	0.36350 0.99840 0.79630 0.53900
C 	C 	0.20090 0.85530 0.69260 -0.10600
C 	C 	0.25290 0.89220 0.75120 0.06700
H 	H 	0.24760 0.87560 0.80440 0.01600
C 	C 	0.31260 0.95360 0.73170 -0.16800
C 	C 	0.32060 0.98030 0.65320 -0.00000
H 	H 	0.35600 0.02530 0.64100 0.03800
C 	C 	0.27420 0.93810 0.59190 0.02200
C 	C 	0.21290 0.87900 0.61270 -0.03200
H 	H 	0.17860 0.85410 0.57270 0.04300
C 	C 	0.03520 0.73470 0.23740 0.95200
H 	H 	0.06340 0.78210 0.25960 -0.25200
H 	H 	0.06460 0.68950 0.26260 -0.25300
O 	O 	0.55380 0.90310 0.47610 -0.58000
O 	O 	0.45660 0.85630 0.38520 -0.52600
O 	O 	0.26640 0.61520 0.46380 -0.43500
O 	O 	0.27190 0.57390 0.58600 -0.45800
O 	O 	0.35690 0.75200 0.27490 -0.32100
O 	O 	0.43530 0.71960 0.16780 -0.31200
O 	O 	0.13100 0.53460 0.36470 -0.44600
O 	O 	0.10210 0.43460 0.27810 -0.45100
C 	C 	0.23150 0.53120 0.01280 -4.54400
H 	H 	0.28470 0.55550 0.98900 1.10400
H 	H 	0.17980 0.55610 0.98720 1.09400
C 	C 	0.49050 0.85760 0.45600 0.56200
C 	C 	0.29680 0.62080 0.53460 0.39300
C 	C 	0.45120 0.80490 0.51700 -0.26400
C 	C 	0.47550 0.81420 0.59670 0.16900
H 	H 	0.51930 0.85250 0.61050 -0.01900
C 	C 	0.43620 0.76780 0.65630 -0.22400
C 	C 	0.37830 0.70680 0.63540 0.12600
H 	H 	0.35350 0.67440 0.67560 -0.00300
C 	C 	0.35460 0.69120 0.55440 -0.18500
C 	C 	0.39160 0.74210 0.49450 0.14700
H 	H 	0.37670 0.73420 0.44070 0.00300
C 	C 	0.36880 0.70640 0.21410 0.00400
C 	C 	0.13650 0.50160 0.29630 0.19700
C 	C 	0.29910 0.64470 0.19260 0.77000
C 	C 	0.24710 0.60780 0.25120 -0.75400
H 	H 	0.25240 0.62440 0.30440 0.31400
C 	C 	0.18740 0.54640 0.23170 0.67900
C 	C 	0.17940 0.51970 0.15320 -1.47100
H 	H 	0.14400 0.47470 0.14100 0.62200
C 	C 	0.22580 0.56190 0.09190 2.42700
C 	C 	0.28710 0.62100 0.11270 -1.56800
H 	H 	0.32140 0.64590 0.07270 0.62400
C 	C 	0.46480 0.76530 0.73740 0.33700
H 	H 	0.43660 0.71790 0.75960 -0.07400
H 	H 	0.43540 0.81050 0.76260 -0.05700
O 	O 	0.05380 0.40310 0.47610 -0.69500
O 	O 	0.95660 0.35630 0.38520 -0.48200
O 	O 	0.76640 0.11520 0.46380 -0.42300
O 	O 	0.77190 0.07390 0.58600 -0.44200
O 	O 	0.85690 0.25200 0.27490 -0.27000
O 	O 	0.93530 0.21960 0.16780 -0.22100
O 	O 	0.63100 0.03460 0.36470 -0.44300
O 	O 	0.60210 0.93460 0.27810 -0.46200
C 	C 	0.73150 0.03120 0.01280 -4.56100
H 	H 	0.78470 0.05550 0.98900 1.12500
H 	H 	0.67980 0.05610 0.98720 1.10800
C 	C 	0.99050 0.35760 0.45600 0.71600
C 	C 	0.79680 0.12080 0.53460 0.37300
C 	C 	0.95120 0.30490 0.51700 -0.28300
C 	C 	0.97550 0.31420 0.59670 0.23700
H 	H 	0.01930 0.35250 0.61050 -0.10800
C 	C 	0.93620 0.26780 0.65630 0.10800
C 	C 	0.87830 0.20680 0.63540 -0.05200
H 	H 	0.85350 0.17440 0.67560 0.06200
C 	C 	0.85460 0.19120 0.55440 -0.10800
C 	C 	0.89160 0.24210 0.49450 0.13400
H 	H 	0.87670 0.23420 0.44070 0.02000
C 	C 	0.86880 0.20640 0.21410 -0.00900
C 	C 	0.63650 0.00160 0.29630 0.21400
C 	C 	0.79910 0.14470 0.19260 0.79200
C 	C 	0.74710 0.10780 0.25120 -0.76600
H 	H 	0.75240 0.12440 0.30440 0.31900
C 	C 	0.68740 0.04640 0.23170 0.68300
C 	C 	0.67940 0.01970 0.15320 -1.47500
H 	H 	0.64400 0.97470 0.14100 0.63300
C 	C 	0.72580 0.06190 0.09190 2.44100
C 	C 	0.78710 0.12100 0.11270 -1.58300
H 	H 	0.82140 0.14590 0.07270 0.63900
C 	C 	0.96480 0.26530 0.73740 -0.49700
H 	H 	0.93660 0.21790 0.75960 0.18700
H 	H 	0.93540 0.31050 0.76260 0.19800
Eu	Eu	0.66194 0.00000 0.50000 2.22000
Eu	Eu	0.16194 0.50000 0.50000 2.22200
Eu	Eu	0.33806 0.00000 -0.00000 2.82100
Eu	Eu	0.83806 0.50000 -0.00000 2.82600
Eu	Eu	0.50000 0.16804 0.75000 2.17200
Eu	Eu	0.00000 0.66804 0.75000 1.87900
Eu	Eu	0.50000 0.83196 0.25000 2.18200
Eu	Eu	-0.00000 0.33196 0.25000 1.87000
