data_crystal

_cell_length_a 5.96600
_cell_length_b 19.01320
_cell_length_c 19.01320
_cell_angle_alpha 101.32700
_cell_angle_beta  97.75150
_cell_angle_gamma 82.24850

_symmetry_space_group_name_	'P 1'
_symmetry_space_group_name_H-M	'P 1'

loop_
_symmetry_equiv_pos_as_xyz
  x,y,z

loop_
_atom_site_label
_atom_site_type_symbol
_atom_site_fract_x
_atom_site_fract_y
_atom_site_fract_z
_atom_site_charge
Zn	Zn	0.50000 0.00000 -0.00000 1.25400
Zn	Zn	1.00000 0.06012 0.06012 1.18800
Zn	Zn	1.00000 0.93988 0.93988 1.20200
H 	H 	0.75230 0.28730 0.07190 0.00100
H 	H 	0.55280 0.39690 0.05830 0.04500
H 	H 	0.01120 0.30410 0.97090 0.05800
H 	H 	0.19040 0.19480 0.99240 0.05700
H 	H 	0.04880 0.56100 0.91200 -0.00500
H 	H 	0.34540 0.47880 0.86920 0.12400
H 	H 	0.50220 0.45290 0.93650 0.12600
H 	H 	0.35690 0.39720 0.88060 0.13000
H 	H 	0.24770 0.07190 0.28730 0.01000
H 	H 	0.44720 0.05830 0.39690 0.09100
H 	H 	0.98880 0.97090 0.30410 0.05400
H 	H 	0.80960 0.99240 0.19480 0.03800
H 	H 	0.95120 0.91200 0.56100 0.11200
H 	H 	0.65460 0.86920 0.47880 0.19600
H 	H 	0.49780 0.93650 0.45290 0.21800
H 	H 	0.64310 0.88060 0.39720 0.20600
H 	H 	0.24770 0.71270 0.92810 -0.05100
H 	H 	0.44720 0.60310 0.94170 0.15900
H 	H 	0.98880 0.69590 0.02910 0.15600
H 	H 	0.80960 0.80520 0.00760 -0.11800
H 	H 	0.95120 0.43900 0.08800 0.12200
H 	H 	0.65460 0.52120 0.13080 0.19500
H 	H 	0.49780 0.54710 0.06350 0.20500
H 	H 	0.64310 0.60280 0.11940 0.19700
H 	H 	0.75230 0.92810 0.71270 -0.05000
H 	H 	0.55280 0.94170 0.60310 0.10700
H 	H 	0.01120 0.02910 0.69590 0.15300
H 	H 	0.19040 0.00760 0.80520 -0.06600
H 	H 	0.04880 0.08800 0.43900 0.00700
H 	H 	0.34540 0.13080 0.52120 0.12300
H 	H 	0.50220 0.06350 0.54710 0.11300
H 	H 	0.35690 0.11940 0.60280 0.12200
C 	C 	0.62620 0.15700 0.03440 0.52800
C 	C 	0.50070 0.22850 0.02930 -0.18100
C 	C 	0.59840 0.28910 0.05090 0.05700
C 	C 	0.47710 0.35470 0.04290 -0.09100
C 	C 	0.25830 0.36260 0.01440 -0.03100
C 	C 	0.16320 0.30170 0.99370 -0.00800
C 	C 	0.27210 0.23580 0.00340 -0.01700
C 	C 	0.12560 0.43370 0.00670 0.14100
C 	C 	0.15490 0.46940 0.95160 -0.01700
C 	C 	0.02610 0.53590 0.94850 0.15000
C 	C 	0.35890 0.44760 0.90520 -0.36100
C 	C 	0.37380 0.03440 0.15700 0.52900
C 	C 	0.49930 0.02930 0.22850 -0.20800
C 	C 	0.40160 0.05090 0.28910 0.12600
C 	C 	0.52290 0.04290 0.35470 -0.20300
C 	C 	0.74170 0.01440 0.36260 0.13000
C 	C 	0.83680 0.99370 0.30170 -0.11000
C 	C 	0.72790 0.00340 0.23580 0.01700
C 	C 	0.87440 0.00670 0.43370 -0.27400
C 	C 	0.84510 0.95160 0.46940 0.28400
C 	C 	0.97390 0.94850 0.53590 -0.32700
C 	C 	0.64110 0.90520 0.44760 -0.62700
C 	C 	0.37380 0.84300 0.96560 0.61400
C 	C 	0.49930 0.77150 0.97070 -0.40500
C 	C 	0.40160 0.71090 0.94910 0.32600
C 	C 	0.52290 0.64530 0.95710 -0.39900
C 	C 	0.74170 0.63740 0.98560 0.36900
C 	C 	0.83680 0.69830 0.00630 -0.46400
C 	C 	0.72790 0.76420 0.99660 0.37100
C 	C 	0.87440 0.56630 0.99330 -0.31900
C 	C 	0.84510 0.53060 0.04840 0.27600
C 	C 	0.97390 0.46410 0.05150 -0.35900
C 	C 	0.64110 0.55240 0.09480 -0.62200
C 	C 	0.62620 0.96560 0.84300 0.59500
C 	C 	0.50070 0.97070 0.77150 -0.34700
C 	C 	0.59840 0.94910 0.71090 0.23300
C 	C 	0.47710 0.95710 0.64530 -0.26500
C 	C 	0.25830 0.98560 0.63740 0.19100
C 	C 	0.16320 0.00630 0.69830 -0.33500
C 	C 	0.27210 0.99660 0.76420 0.30500
C 	C 	0.12560 0.99330 0.56630 0.10200
C 	C 	0.15490 0.04840 0.53060 -0.02700
C 	C 	0.02610 0.05150 0.46410 0.11500
C 	C 	0.35890 0.09480 0.55240 -0.35500
O 	O 	0.54030 0.10380 0.01300 -0.58300
O 	O 	0.82670 0.15352 0.06040 -0.56900
O 	O 	0.45970 0.01300 0.10380 -0.56800
O 	O 	0.17330 0.06040 0.15352 -0.50300
O 	O 	0.45970 0.89620 0.98700 -0.57100
O 	O 	0.17330 0.84648 0.93960 -0.51400
O 	O 	0.54030 0.98700 0.89620 -0.56600
O 	O 	0.82670 0.93960 0.84648 -0.56500
O 	O 	0.16270 0.02831 0.97169 -0.68700
O 	O 	0.83730 0.97169 0.02831 -0.72200
H 	H 	0.83730 0.91805 0.01777 0.12000
H 	H 	0.16270 0.08195 0.98223 0.14200
