data_crystal

_cell_length_a 14.57550
_cell_length_b 14.57550
_cell_length_c 14.57550
_cell_angle_alpha 109.47100
_cell_angle_beta  109.47100
_cell_angle_gamma 109.47100

_symmetry_space_group_name_	'P 1'
_symmetry_space_group_name_H-M	'P 1'

loop_
_symmetry_equiv_pos_as_xyz
  x,y,z

loop_
_atom_site_label
_atom_site_type_symbol
_atom_site_fract_x
_atom_site_fract_y
_atom_site_fract_z
_atom_site_charge
Zn	Zn	0.75000 0.50000 0.25000 1.17200
Zn	Zn	0.25000 0.50000 0.75000 1.17200
Zn	Zn	0.25000 0.75000 0.50000 1.17200
Zn	Zn	0.75000 0.25000 0.50000 1.17200
Zn	Zn	0.50000 0.75000 0.25000 1.17200
Zn	Zn	0.50000 0.25000 0.75000 1.17200
H 	H 	0.67080 0.53870 0.43670 -0.00100
H 	H 	0.10200 0.23410 0.56330 0.00000
H 	H 	0.89800 0.46130 0.13210 -0.00500
H 	H 	0.32920 0.76590 0.86790 -0.00100
H 	H 	0.13210 0.89800 0.46130 -0.00600
H 	H 	0.86790 0.32920 0.76590 -0.00100
H 	H 	0.43670 0.67080 0.53870 -0.00200
H 	H 	0.56330 0.10200 0.23410 -0.00100
H 	H 	0.23410 0.56330 0.10200 -0.00100
H 	H 	0.53870 0.43670 0.67080 -0.00200
H 	H 	0.76590 0.86790 0.32920 -0.00100
H 	H 	0.46130 0.13210 0.89800 -0.00600
H 	H 	0.23410 0.10200 0.56330 -0.00100
H 	H 	0.53870 0.67080 0.43670 -0.00200
H 	H 	0.76590 0.32920 0.86790 -0.00100
H 	H 	0.46130 0.89800 0.13210 -0.00600
H 	H 	0.67080 0.43670 0.53870 -0.00200
H 	H 	0.10200 0.56330 0.23410 -0.00100
H 	H 	0.89800 0.13210 0.46130 -0.00600
H 	H 	0.32920 0.86790 0.76590 -0.00100
H 	H 	0.13210 0.46130 0.89800 -0.00600
H 	H 	0.86790 0.76590 0.32920 -0.00100
H 	H 	0.43670 0.53870 0.67080 -0.00200
H 	H 	0.56330 0.23410 0.10200 -0.00100
H 	H 	0.80320 0.35910 0.35910 -0.07800
H 	H 	-0.00000 0.44410 0.64090 -0.07800
H 	H 	-0.00000 0.64090 0.44410 -0.07800
H 	H 	0.19680 0.55590 0.55590 -0.07900
H 	H 	0.44410 0.00000 0.64090 -0.07800
H 	H 	0.55590 0.19680 0.55590 -0.07900
H 	H 	0.35910 0.80320 0.35910 -0.07800
H 	H 	0.64090 0.00000 0.44410 -0.07800
H 	H 	0.44410 0.64090 -0.00000 -0.07800
H 	H 	0.35910 0.35910 0.80320 -0.07800
H 	H 	0.55590 0.55590 0.19680 -0.07900
H 	H 	0.64090 0.44410 -0.00000 -0.07800
C 	C 	0.69210 0.48280 0.42710 -0.01200
C 	C 	0.05570 0.26500 0.57290 -0.02100
C 	C 	0.94430 0.51720 0.20930 -0.00400
C 	C 	0.30790 0.73500 0.79070 -0.01200
C 	C 	0.20930 0.94430 0.51720 -0.00400
C 	C 	0.79070 0.30790 0.73500 -0.01200
C 	C 	0.42710 0.69210 0.48280 -0.01200
C 	C 	0.57290 0.05570 0.26500 -0.02100
C 	C 	0.26500 0.57290 0.05570 -0.02100
C 	C 	0.48280 0.42710 0.69210 -0.01200
C 	C 	0.73500 0.79070 0.30790 -0.01200
C 	C 	0.51720 0.20930 0.94430 -0.00400
C 	C 	0.26500 0.05570 0.57290 -0.02100
C 	C 	0.48280 0.69210 0.42710 -0.01200
C 	C 	0.73500 0.30790 0.79070 -0.01200
C 	C 	0.51720 0.94430 0.20930 -0.00400
C 	C 	0.69210 0.42710 0.48280 -0.01200
C 	C 	0.05570 0.57290 0.26500 -0.02100
C 	C 	0.94430 0.20930 0.51720 -0.00400
C 	C 	0.30790 0.79070 0.73500 -0.01200
C 	C 	0.20930 0.51720 0.94430 -0.00400
C 	C 	0.79070 0.73500 0.30790 -0.01200
C 	C 	0.42710 0.48280 0.69210 -0.01200
C 	C 	0.57290 0.26500 0.05570 -0.02100
C 	C 	0.75844 0.38342 0.38342 0.13200
C 	C 	-0.00000 0.37502 0.61658 0.12700
C 	C 	-0.00000 0.61658 0.37502 0.12700
C 	C 	0.24156 0.62498 0.62498 0.13200
C 	C 	0.37502 0.00000 0.61658 0.12700
C 	C 	0.62498 0.24156 0.62498 0.13200
C 	C 	0.38342 0.75844 0.38342 0.13200
C 	C 	0.61658 0.00000 0.37502 0.12700
C 	C 	0.37502 0.61658 -0.00000 0.12700
C 	C 	0.38342 0.38342 0.75844 0.13200
C 	C 	0.62498 0.62498 0.24156 0.13200
C 	C 	0.61658 0.37502 -0.00000 0.12700
N 	N 	0.72769 0.44686 0.35367 -0.30500
N 	N 	0.09319 0.37402 0.64633 -0.30300
N 	N 	0.90681 0.55314 0.28083 -0.30300
N 	N 	0.27231 0.62598 0.71917 -0.30500
N 	N 	0.28083 0.90681 0.55314 -0.30300
N 	N 	0.71917 0.27231 0.62598 -0.30500
N 	N 	0.35367 0.72769 0.44686 -0.30500
N 	N 	0.64633 0.09319 0.37402 -0.30300
N 	N 	0.37402 0.64633 0.09319 -0.30300
N 	N 	0.44686 0.35367 0.72769 -0.30500
N 	N 	0.62598 0.71917 0.27231 -0.30500
N 	N 	0.55314 0.28083 0.90681 -0.30300
N 	N 	0.37402 0.09319 0.64633 -0.30300
N 	N 	0.44686 0.72769 0.35367 -0.30500
N 	N 	0.62598 0.27231 0.71917 -0.30500
N 	N 	0.55314 0.90681 0.28083 -0.30300
N 	N 	0.72769 0.35367 0.44686 -0.30500
N 	N 	0.09319 0.64633 0.37402 -0.30300
N 	N 	0.90681 0.28083 0.55314 -0.30300
N 	N 	0.27231 0.71917 0.62598 -0.30500
N 	N 	0.28083 0.55314 0.90681 -0.30300
N 	N 	0.71917 0.62598 0.27231 -0.30500
N 	N 	0.35367 0.44686 0.72769 -0.30500
N 	N 	0.64633 0.37402 0.09319 -0.30300
