data_crystal

_cell_length_a 17.77710
_cell_length_b 17.77710
_cell_length_c 19.11290
_cell_angle_alpha 90.00000
_cell_angle_beta  90.00000
_cell_angle_gamma 120.00000

_symmetry_space_group_name_	'P 1'
_symmetry_space_group_name_H-M	'P 1'

loop_
_symmetry_equiv_pos_as_xyz
  x,y,z

loop_
_atom_site_label
_atom_site_type_symbol
_atom_site_fract_x
_atom_site_fract_y
_atom_site_fract_z
_atom_site_charge
Zn	Zn	0.87250 0.50440 0.32850 1.11800
Zn	Zn	0.63190 0.12750 0.32850 1.11800
Zn	Zn	0.49560 0.36810 0.32850 1.11800
Zn	Zn	0.36810 0.49560 0.67150 1.11800
Zn	Zn	0.50440 0.87250 0.67150 1.11800
Zn	Zn	0.12750 0.63190 0.67150 1.11800
Zn	Zn	0.66667 0.33334 0.26500 1.13300
Zn	Zn	0.33333 0.66666 0.73500 1.13300
Co	Co	0.66667 0.33334 0.07630 1.03200
Co	Co	0.33333 0.66666 0.92370 1.03200
H 	H 	0.55771 0.53713 0.43944 0.01700
H 	H 	0.79931 0.71602 0.50293 0.02600
H 	H 	0.86203 0.65206 0.44037 -0.00300
H 	H 	0.85922 0.47045 0.99937 0.02400
H 	H 	0.01990 0.62929 0.19823 0.00200
H 	H 	0.08552 0.65217 0.08920 0.02200
H 	H 	0.97942 0.44229 0.43944 0.01700
H 	H 	0.91671 0.20069 0.50293 0.02600
H 	H 	0.79003 0.13797 0.44037 -0.00300
H 	H 	0.61123 0.14078 0.99937 0.02300
H 	H 	0.60939 0.98010 0.19823 0.00200
H 	H 	0.56665 0.91448 0.08920 0.02200
H 	H 	0.46287 0.02058 0.43944 0.01700
H 	H 	0.28398 0.08329 0.50293 0.02600
H 	H 	0.34794 0.20997 0.44037 -0.00300
H 	H 	0.52955 0.38877 0.99937 0.02300
H 	H 	0.37071 0.39061 0.19823 0.00200
H 	H 	0.34783 0.43335 0.08920 0.02200
H 	H 	0.02058 0.46287 0.56056 0.01700
H 	H 	0.08329 0.28398 0.49707 0.02600
H 	H 	0.20997 0.34794 0.55963 -0.00300
H 	H 	0.38877 0.52955 0.00063 0.02300
H 	H 	0.39061 0.37071 0.80177 0.00200
H 	H 	0.43335 0.34783 0.91080 0.02200
H 	H 	0.53713 0.55771 0.56056 0.01700
H 	H 	0.71602 0.79931 0.49707 0.02600
H 	H 	0.65206 0.86203 0.55963 -0.00300
H 	H 	0.47045 0.85922 0.00063 0.02400
H 	H 	0.62929 0.01990 0.80177 0.00200
H 	H 	0.65217 0.08552 0.91080 0.02200
H 	H 	0.44229 0.97942 0.56056 0.01700
H 	H 	0.20069 0.91671 0.49707 0.02600
H 	H 	0.13797 0.79003 0.55963 -0.00300
H 	H 	0.14078 0.61123 0.00063 0.02300
H 	H 	0.98010 0.60939 0.80177 0.00200
H 	H 	0.91448 0.56665 0.91080 0.02200
C 	C 	0.65500 0.51400 0.40900 0.05200
C 	C 	0.74749 0.55549 0.40000 0.01400
C 	C 	0.61700 0.55700 0.44300 -0.14300
C 	C 	0.76342 0.66542 0.47800 -0.06400
C 	C 	0.80200 0.62900 0.44000 -0.09700
C 	C 	0.67183 0.63283 0.48100 0.01100
C 	C 	0.90400 0.52800 0.16660 0.01900
C 	C 	0.85472 0.48272 0.10740 0.04300
C 	C 	0.89000 0.50220 0.03840 -0.13900
C 	C 	0.97400 0.57200 0.03430 0.01400
C 	C 	0.98900 0.59600 0.16000 -0.10200
C 	C 	0.02600 0.61300 0.09436 -0.06000
C 	C 	0.85900 0.34500 0.40900 0.05200
C 	C 	0.80800 0.25251 0.40000 0.01400
C 	C 	0.94000 0.38300 0.44300 -0.14300
C 	C 	0.90200 0.23658 0.47800 -0.06400
C 	C 	0.82700 0.19800 0.44000 -0.09700
C 	C 	0.96100 0.32817 0.48100 0.01100
C 	C 	0.62400 0.09600 0.16660 0.01900
C 	C 	0.62800 0.14528 0.10740 0.04300
C 	C 	0.61220 0.11000 0.03840 -0.13900
C 	C 	0.59800 0.02600 0.03430 0.01400
C 	C 	0.60700 0.01100 0.16000 -0.10200
C 	C 	0.58700 0.97400 0.09436 -0.06000
C 	C 	0.48600 0.14100 0.40900 0.05200
C 	C 	0.44451 0.19200 0.40000 0.01400
C 	C 	0.44300 0.06000 0.44300 -0.14300
C 	C 	0.33458 0.09800 0.47800 -0.06400
C 	C 	0.37100 0.17300 0.44000 -0.09700
C 	C 	0.36717 0.03900 0.48100 0.01100
C 	C 	0.47200 0.37600 0.16660 0.01900
C 	C 	0.51728 0.37200 0.10740 0.04300
C 	C 	0.49780 0.38780 0.03840 -0.13900
C 	C 	0.42800 0.40200 0.03430 0.01400
C 	C 	0.40400 0.39300 0.16000 -0.10200
C 	C 	0.38700 0.41300 0.09436 -0.06000
C 	C 	0.14100 0.48600 0.59100 0.05200
C 	C 	0.19200 0.44451 0.60000 0.01400
C 	C 	0.06000 0.44300 0.55700 -0.14300
C 	C 	0.09800 0.33458 0.52200 -0.06400
C 	C 	0.17300 0.37100 0.56000 -0.09700
C 	C 	0.03900 0.36717 0.51900 0.01100
C 	C 	0.37600 0.47200 0.83340 0.01900
C 	C 	0.37200 0.51728 0.89260 0.04300
C 	C 	0.38780 0.49780 0.96160 -0.13900
C 	C 	0.40200 0.42800 0.96570 0.01400
C 	C 	0.39300 0.40400 0.84000 -0.10200
C 	C 	0.41300 0.38700 0.90564 -0.06000
C 	C 	0.51400 0.65500 0.59100 0.05200
C 	C 	0.55549 0.74749 0.60000 0.01400
C 	C 	0.55700 0.61700 0.55700 -0.14300
C 	C 	0.66542 0.76342 0.52200 -0.06400
C 	C 	0.62900 0.80200 0.56000 -0.09700
C 	C 	0.63283 0.67183 0.51900 0.01100
C 	C 	0.52800 0.90400 0.83340 0.01900
C 	C 	0.48272 0.85472 0.89260 0.04300
C 	C 	0.50220 0.89000 0.96160 -0.13900
C 	C 	0.57200 0.97400 0.96570 0.01400
C 	C 	0.59600 0.98900 0.84000 -0.10200
C 	C 	0.61300 0.02600 0.90564 -0.06000
C 	C 	0.34500 0.85900 0.59100 0.05200
C 	C 	0.25251 0.80800 0.60000 0.01400
C 	C 	0.38300 0.94000 0.55700 -0.14300
C 	C 	0.23658 0.90200 0.52200 -0.06400
C 	C 	0.19800 0.82700 0.56000 -0.09700
C 	C 	0.32817 0.96100 0.51900 0.01100
C 	C 	0.09600 0.62400 0.83340 0.01900
C 	C 	0.14528 0.62800 0.89260 0.04300
C 	C 	0.11000 0.61220 0.96160 -0.13900
C 	C 	0.02600 0.59800 0.96570 0.01400
C 	C 	0.01100 0.60700 0.84000 -0.10200
C 	C 	0.97400 0.58700 0.90564 -0.06000
N 	N 	0.76110 0.50010 0.36000 -0.26100
N 	N 	0.68466 0.43866 0.33600 -0.21000
N 	N 	0.61800 0.44500 0.36600 -0.27000
N 	N 	0.85300 0.48600 0.22350 -0.26900
N 	N 	0.77800 0.42200 0.19920 -0.21100
N 	N 	0.77601 0.41701 0.12930 -0.25400
N 	N 	0.73900 0.23890 0.36000 -0.26100
N 	N 	0.75400 0.31534 0.33600 -0.21000
N 	N 	0.82700 0.38200 0.36600 -0.27000
N 	N 	0.63300 0.14700 0.22350 -0.26900
N 	N 	0.64400 0.22200 0.19920 -0.21100
N 	N 	0.64100 0.22399 0.12930 -0.25400
N 	N 	0.49990 0.26100 0.36000 -0.26100
N 	N 	0.56134 0.24600 0.33600 -0.21000
N 	N 	0.55500 0.17300 0.36600 -0.27000
N 	N 	0.51400 0.36700 0.22350 -0.26900
N 	N 	0.57800 0.35600 0.19920 -0.21100
N 	N 	0.58299 0.35900 0.12930 -0.25400
N 	N 	0.26100 0.49990 0.64000 -0.26100
N 	N 	0.24600 0.56134 0.66400 -0.21000
N 	N 	0.17300 0.55500 0.63400 -0.27000
N 	N 	0.36700 0.51400 0.77650 -0.26900
N 	N 	0.35600 0.57800 0.80080 -0.21100
N 	N 	0.35900 0.58299 0.87070 -0.25400
N 	N 	0.50010 0.76110 0.64000 -0.26100
N 	N 	0.43866 0.68466 0.66400 -0.21000
N 	N 	0.44500 0.61800 0.63400 -0.27000
N 	N 	0.48600 0.85300 0.77650 -0.26900
N 	N 	0.42200 0.77800 0.80080 -0.21100
N 	N 	0.41701 0.77601 0.87070 -0.25400
N 	N 	0.23890 0.73900 0.64000 -0.26100
N 	N 	0.31534 0.75400 0.66400 -0.21000
N 	N 	0.38200 0.82700 0.63400 -0.27000
N 	N 	0.14700 0.63300 0.77650 -0.26900
N 	N 	0.22200 0.64400 0.80080 -0.21100
N 	N 	0.22399 0.64100 0.87070 -0.25400
