data_crystal

_cell_length_a 24.30210
_cell_length_b 16.01420
_cell_length_c 22.00180
_cell_angle_alpha 90.00000
_cell_angle_beta  100.13800
_cell_angle_gamma 90.00000

_symmetry_space_group_name_	'P 1'
_symmetry_space_group_name_H-M	'P 1'

loop_
_symmetry_equiv_pos_as_xyz
  x,y,z

loop_
_atom_site_label
_atom_site_type_symbol
_atom_site_fract_x
_atom_site_fract_y
_atom_site_fract_z
_atom_site_charge
C 	C 	0.30010 0.22966 0.72446 0.28600
O 	O 	0.26560 0.92992 0.12461 -0.52100
C 	C 	0.28916 0.61908 0.05794 0.37100
C 	C 	0.29323 0.98710 0.15320 0.39800
O 	O 	0.30017 0.99330 0.21033 -0.27300
C 	C 	0.31058 0.53429 0.04592 -0.04900
C 	C 	0.30152 0.46747 0.08196 -0.10200
H 	H 	0.28190 0.47520 0.11420 0.08000
C 	C 	0.34061 0.52076 0.99891 -0.09300
H 	H 	0.34720 0.56510 0.97390 0.06000
C 	C 	0.31952 0.23781 0.79317 0.04200
C 	C 	0.39327 0.23210 0.88146 0.13700
H 	H 	0.43080 0.22270 0.89760 -0.02900
C 	C 	0.28279 0.26100 0.83139 -0.14600
H 	H 	0.24540 0.27090 0.81500 0.10100
Nd	Nd	0.75819 0.28843 0.09545 2.15800
O 	O 	0.28413 0.63813 0.11168 -0.45200
Si	Si	0.38008 0.27093 0.00599 0.82800
O 	O 	0.66542 0.21016 0.06499 -0.42000
O 	O 	0.33449 0.21663 0.68916 -0.42500
O 	O 	0.27771 0.67126 0.01390 -0.61600
O 	O 	0.66113 0.33432 0.10627 -0.39700
C 	C 	0.37461 0.22280 0.81820 -0.14600
H 	H 	0.39950 0.20640 0.79280 0.09500
O 	O 	0.24801 0.23670 0.70389 -0.40200
C 	C 	0.45784 0.27223 0.02777 -0.31500
C 	C 	0.35712 0.25526 0.92107 -0.31700
C 	C 	0.35402 0.18495 0.04979 -0.29400
C 	C 	0.35187 0.37494 0.02440 -0.29300
C 	C 	0.63695 0.27131 0.07935 0.27400
C 	C 	0.57512 0.27032 0.06243 0.02000
C 	C 	0.54652 0.20030 0.03882 -0.14500
H 	H 	0.56620 0.15170 0.03380 0.08300
C 	C 	0.30311 0.05580 0.05592 -0.07500
H 	H 	0.28140 0.01320 0.03540 0.04700
C 	C 	0.48913 0.20073 0.02236 0.13200
H 	H 	0.47080 0.15200 0.00730 -0.03000
C 	C 	0.31605 0.05440 0.11874 -0.06600
C 	C 	0.36086 0.44327 0.98866 0.09900
H 	H 	0.38120 0.43620 0.95690 -0.01400
C 	C 	0.36719 0.18200 0.11413 0.09000
H 	H 	0.38980 0.22350 0.13500 -0.01100
C 	C 	0.48753 0.34289 0.05125 0.13100
H 	H 	0.46810 0.39200 0.05550 -0.02400
C 	C 	0.30190 0.26940 0.89432 0.13900
H 	H 	0.27670 0.28510 0.91950 -0.02700
C 	C 	0.32103 0.38939 0.07121 0.10400
H 	H 	0.31350 0.34500 0.09570 -0.01500
C 	C 	0.34750 0.11880 0.14784 -0.08400
H 	H 	0.35570 0.12020 0.19070 0.07400
C 	C 	0.54500 0.34230 0.06839 -0.14200
H 	H 	0.56360 0.39060 0.08400 0.09200
C 	C 	0.32192 0.12010 0.02171 0.08700
H 	H 	0.31250 0.11910 0.97890 -0.01100
C 	C 	0.80010 0.72966 0.72446 0.28700
O 	O 	0.76560 0.42992 0.12461 -0.52000
C 	C 	0.78916 0.11908 0.05794 0.37100
C 	C 	0.79323 0.48710 0.15320 0.40000
O 	O 	0.80017 0.49330 0.21033 -0.27200
C 	C 	0.81058 0.03429 0.04592 -0.04800
C 	C 	0.80152 0.96747 0.08196 -0.10200
H 	H 	0.78190 0.97520 0.11420 0.08100
C 	C 	0.84061 0.02076 0.99891 -0.09300
H 	H 	0.84720 0.06510 0.97390 0.06200
C 	C 	0.81952 0.73781 0.79317 0.04200
C 	C 	0.89327 0.73210 0.88146 0.13600
H 	H 	0.93080 0.72270 0.89760 -0.02800
C 	C 	0.78279 0.76100 0.83139 -0.14500
H 	H 	0.74540 0.77090 0.81500 0.10100
Nd	Nd	0.25819 0.78843 0.09545 2.15800
O 	O 	0.78413 0.13813 0.11168 -0.45200
Si	Si	0.88008 0.77093 0.00599 0.82500
O 	O 	0.16542 0.71016 0.06499 -0.42000
O 	O 	0.83449 0.71663 0.68916 -0.42500
O 	O 	0.77771 0.17126 0.01390 -0.61600
O 	O 	0.16113 0.83432 0.10627 -0.39700
C 	C 	0.87461 0.72280 0.81820 -0.14500
H 	H 	0.89950 0.70640 0.79280 0.09400
O 	O 	0.74801 0.73670 0.70389 -0.40200
C 	C 	0.95784 0.77223 0.02777 -0.31300
C 	C 	0.85712 0.75526 0.92107 -0.31600
C 	C 	0.85402 0.68495 0.04979 -0.29200
C 	C 	0.85187 0.87494 0.02440 -0.29400
C 	C 	0.13695 0.77131 0.07935 0.27400
C 	C 	0.07512 0.77032 0.06243 0.01800
C 	C 	0.04652 0.70030 0.03882 -0.14200
H 	H 	0.06620 0.65170 0.03380 0.08200
C 	C 	0.80311 0.55580 0.05592 -0.07300
H 	H 	0.78140 0.51320 0.03540 0.04600
C 	C 	0.98913 0.70073 0.02236 0.12900
H 	H 	0.97080 0.65200 0.00730 -0.02900
C 	C 	0.81605 0.55440 0.11874 -0.06800
C 	C 	0.86086 0.94327 0.98866 0.10100
H 	H 	0.88120 0.93620 0.95690 -0.01400
C 	C 	0.86719 0.68200 0.11413 0.08900
H 	H 	0.88980 0.72350 0.13500 -0.01000
C 	C 	0.98753 0.84289 0.05125 0.12900
H 	H 	0.96810 0.89200 0.05550 -0.02300
C 	C 	0.80190 0.76940 0.89432 0.13800
H 	H 	0.77670 0.78510 0.91950 -0.02700
C 	C 	0.82103 0.88939 0.07121 0.10500
H 	H 	0.81350 0.84500 0.09570 -0.01500
C 	C 	0.84750 0.61880 0.14784 -0.08300
H 	H 	0.85570 0.62020 0.19070 0.07300
C 	C 	0.04500 0.84230 0.06839 -0.14000
H 	H 	0.06360 0.89060 0.08400 0.09100
C 	C 	0.82192 0.62010 0.02171 0.08400
H 	H 	0.81250 0.61910 0.97890 -0.00900
C 	C 	0.69990 0.22966 0.77554 0.28700
O 	O 	0.73440 0.92992 0.37539 -0.52000
C 	C 	0.71084 0.61908 0.44206 0.37200
C 	C 	0.70677 0.98710 0.34680 0.39900
O 	O 	0.69983 0.99330 0.28967 -0.27200
C 	C 	0.68942 0.53429 0.45408 -0.04900
C 	C 	0.69848 0.46747 0.41804 -0.10100
H 	H 	0.71810 0.47520 0.38580 0.08100
C 	C 	0.65939 0.52076 0.50109 -0.09200
H 	H 	0.65280 0.56510 0.52610 0.06100
C 	C 	0.68048 0.23781 0.70683 0.04200
C 	C 	0.60673 0.23210 0.61854 0.13700
H 	H 	0.56920 0.22270 0.60240 -0.02900
C 	C 	0.71721 0.26100 0.66861 -0.14500
H 	H 	0.75460 0.27090 0.68500 0.10100
Nd	Nd	0.24181 0.28843 0.40455 2.15800
O 	O 	0.71587 0.63813 0.38832 -0.45200
Si	Si	0.61992 0.27093 0.49401 0.82600
O 	O 	0.33458 0.21016 0.43501 -0.42000
O 	O 	0.66551 0.21663 0.81084 -0.42500
O 	O 	0.72229 0.67126 0.48610 -0.61600
O 	O 	0.33887 0.33432 0.39373 -0.39700
C 	C 	0.62539 0.22280 0.68180 -0.14600
H 	H 	0.60050 0.20640 0.70720 0.09400
O 	O 	0.75199 0.23670 0.79611 -0.40200
C 	C 	0.54216 0.27223 0.47223 -0.31500
C 	C 	0.64288 0.25526 0.57893 -0.31700
C 	C 	0.64598 0.18495 0.45021 -0.29300
C 	C 	0.64813 0.37494 0.47560 -0.29300
C 	C 	0.36305 0.27131 0.42065 0.27400
C 	C 	0.42488 0.27032 0.43757 0.02000
C 	C 	0.45348 0.20030 0.46118 -0.14400
H 	H 	0.43380 0.15170 0.46620 0.08300
C 	C 	0.69689 0.05580 0.44408 -0.07400
H 	H 	0.71860 0.01320 0.46460 0.04600
C 	C 	0.51087 0.20073 0.47764 0.13100
H 	H 	0.52920 0.15200 0.49270 -0.03000
C 	C 	0.68395 0.05440 0.38126 -0.06700
C 	C 	0.63914 0.44327 0.51134 0.09900
H 	H 	0.61880 0.43620 0.54310 -0.01300
C 	C 	0.63281 0.18200 0.38587 0.08900
H 	H 	0.61020 0.22350 0.36500 -0.01100
C 	C 	0.51247 0.34289 0.44875 0.13100
H 	H 	0.53190 0.39200 0.44450 -0.02400
C 	C 	0.69810 0.26940 0.60568 0.13900
H 	H 	0.72330 0.28510 0.58050 -0.02700
C 	C 	0.67897 0.38939 0.42879 0.10400
H 	H 	0.68650 0.34500 0.40430 -0.01400
C 	C 	0.65250 0.11880 0.35216 -0.08300
H 	H 	0.64430 0.12020 0.30930 0.07300
C 	C 	0.45500 0.34230 0.43161 -0.14200
H 	H 	0.43640 0.39060 0.41600 0.09100
C 	C 	0.67808 0.12010 0.47829 0.08500
H 	H 	0.68750 0.11910 0.52110 -0.01000
C 	C 	0.19990 0.72966 0.77554 0.28700
O 	O 	0.23440 0.42992 0.37539 -0.52000
C 	C 	0.21084 0.11908 0.44206 0.37200
C 	C 	0.20677 0.48710 0.34680 0.40000
O 	O 	0.19983 0.49330 0.28967 -0.27200
C 	C 	0.18942 0.03429 0.45408 -0.04900
C 	C 	0.19848 0.96747 0.41804 -0.10100
H 	H 	0.21810 0.97520 0.38580 0.08100
C 	C 	0.15939 0.02076 0.50109 -0.09200
H 	H 	0.15280 0.06510 0.52610 0.06100
C 	C 	0.18048 0.73781 0.70683 0.04200
C 	C 	0.10673 0.73210 0.61854 0.13700
H 	H 	0.06920 0.72270 0.60240 -0.02900
C 	C 	0.21721 0.76100 0.66861 -0.14500
H 	H 	0.25460 0.77090 0.68500 0.10100
Nd	Nd	0.74181 0.78843 0.40455 2.15800
O 	O 	0.21587 0.13813 0.38832 -0.45200
Si	Si	0.11992 0.77093 0.49401 0.82600
O 	O 	0.83458 0.71016 0.43501 -0.42000
O 	O 	0.16551 0.71663 0.81084 -0.42500
O 	O 	0.22229 0.17126 0.48610 -0.61600
O 	O 	0.83887 0.83432 0.39373 -0.39700
C 	C 	0.12539 0.72280 0.68180 -0.14600
H 	H 	0.10050 0.70640 0.70720 0.09400
O 	O 	0.25199 0.73670 0.79611 -0.40200
C 	C 	0.04216 0.77223 0.47223 -0.31500
C 	C 	0.14288 0.75526 0.57893 -0.31700
C 	C 	0.14598 0.68495 0.45021 -0.29300
C 	C 	0.14813 0.87494 0.47560 -0.29300
C 	C 	0.86305 0.77131 0.42065 0.27400
C 	C 	0.92488 0.77032 0.43757 0.02000
C 	C 	0.95348 0.70030 0.46118 -0.14500
H 	H 	0.93380 0.65170 0.46620 0.08300
C 	C 	0.19689 0.55580 0.44408 -0.07400
H 	H 	0.21860 0.51320 0.46460 0.04600
C 	C 	0.01087 0.70073 0.47764 0.13100
H 	H 	0.02920 0.65200 0.49270 -0.03000
C 	C 	0.18395 0.55440 0.38126 -0.06700
C 	C 	0.13914 0.94327 0.51134 0.09900
H 	H 	0.11880 0.93620 0.54310 -0.01400
C 	C 	0.13281 0.68200 0.38587 0.08900
H 	H 	0.11020 0.72350 0.36500 -0.01100
C 	C 	0.01247 0.84289 0.44875 0.13100
H 	H 	0.03190 0.89200 0.44450 -0.02400
C 	C 	0.19810 0.76940 0.60568 0.13900
H 	H 	0.22330 0.78510 0.58050 -0.02700
C 	C 	0.17897 0.88939 0.42879 0.10400
H 	H 	0.18650 0.84500 0.40430 -0.01500
C 	C 	0.15250 0.61880 0.35216 -0.08300
H 	H 	0.14430 0.62020 0.30930 0.07300
C 	C 	0.95500 0.84230 0.43161 -0.14200
H 	H 	0.93640 0.89060 0.41600 0.09100
C 	C 	0.17808 0.62010 0.47829 0.08500
H 	H 	0.18750 0.61910 0.52110 -0.01000
C 	C 	0.69990 0.77034 0.27554 0.28700
O 	O 	0.73440 0.07008 0.87539 -0.52000
C 	C 	0.71084 0.38092 0.94206 0.37200
C 	C 	0.70677 0.01290 0.84680 0.39900
O 	O 	0.69983 0.00670 0.78967 -0.27200
C 	C 	0.68942 0.46571 0.95408 -0.04800
C 	C 	0.69848 0.53253 0.91804 -0.10100
H 	H 	0.71810 0.52480 0.88580 0.08100
C 	C 	0.65939 0.47924 0.00109 -0.09200
H 	H 	0.65280 0.43490 0.02610 0.06100
C 	C 	0.68048 0.76219 0.20683 0.04200
C 	C 	0.60673 0.76790 0.11854 0.13700
H 	H 	0.56920 0.77730 0.10240 -0.02900
C 	C 	0.71721 0.73900 0.16861 -0.14600
H 	H 	0.75460 0.72910 0.18500 0.10100
Nd	Nd	0.24181 0.71157 0.90455 2.15800
O 	O 	0.71587 0.36187 0.88832 -0.45200
Si	Si	0.61992 0.72907 0.99401 0.82800
O 	O 	0.33458 0.78984 0.93501 -0.42000
O 	O 	0.66551 0.78337 0.31084 -0.42500
O 	O 	0.72229 0.32874 0.98610 -0.61600
O 	O 	0.33887 0.66568 0.89373 -0.39700
C 	C 	0.62539 0.77720 0.18180 -0.14600
H 	H 	0.60050 0.79360 0.20720 0.09500
O 	O 	0.75199 0.76330 0.29611 -0.40200
C 	C 	0.54216 0.72777 0.97223 -0.31500
C 	C 	0.64288 0.74474 0.07893 -0.31700
C 	C 	0.64598 0.81505 0.95021 -0.29400
C 	C 	0.64813 0.62506 0.97560 -0.29300
C 	C 	0.36305 0.72869 0.92065 0.27400
C 	C 	0.42488 0.72968 0.93757 0.02000
C 	C 	0.45348 0.79970 0.96118 -0.14500
H 	H 	0.43380 0.84830 0.96620 0.08300
C 	C 	0.69689 0.94420 0.94408 -0.07500
H 	H 	0.71860 0.98680 0.96460 0.04700
C 	C 	0.51087 0.79927 0.97764 0.13200
H 	H 	0.52920 0.84800 0.99270 -0.03000
C 	C 	0.68395 0.94560 0.88126 -0.06600
C 	C 	0.63914 0.55673 0.01134 0.09900
H 	H 	0.61880 0.56380 0.04310 -0.01400
C 	C 	0.63281 0.81800 0.88587 0.09000
H 	H 	0.61020 0.77650 0.86500 -0.01100
C 	C 	0.51247 0.65711 0.94875 0.13100
H 	H 	0.53190 0.60800 0.94450 -0.02400
C 	C 	0.69810 0.73060 0.10568 0.13900
H 	H 	0.72330 0.71490 0.08050 -0.02700
C 	C 	0.67897 0.61061 0.92879 0.10400
H 	H 	0.68650 0.65500 0.90430 -0.01500
C 	C 	0.65250 0.88120 0.85216 -0.08400
H 	H 	0.64430 0.87980 0.80930 0.07400
C 	C 	0.45500 0.65770 0.93161 -0.14200
H 	H 	0.43640 0.60940 0.91600 0.09200
C 	C 	0.67808 0.87990 0.97829 0.08700
H 	H 	0.68750 0.88090 0.02110 -0.01100
C 	C 	0.19990 0.27034 0.27554 0.28700
O 	O 	0.23440 0.57008 0.87539 -0.52000
C 	C 	0.21084 0.88092 0.94206 0.37100
C 	C 	0.20677 0.51290 0.84680 0.40000
O 	O 	0.19983 0.50670 0.78967 -0.27200
C 	C 	0.18942 0.96571 0.95408 -0.04800
C 	C 	0.19848 0.03253 0.91804 -0.10200
H 	H 	0.21810 0.02480 0.88580 0.08100
C 	C 	0.15939 0.97924 0.00109 -0.09300
H 	H 	0.15280 0.93490 0.02610 0.06200
C 	C 	0.18048 0.26219 0.20683 0.04200
C 	C 	0.10673 0.26790 0.11854 0.13600
H 	H 	0.06920 0.27730 0.10240 -0.02800
C 	C 	0.21721 0.23900 0.16861 -0.14500
H 	H 	0.25460 0.22910 0.18500 0.10100
Nd	Nd	0.74181 0.21157 0.90455 2.15800
O 	O 	0.21587 0.86187 0.88832 -0.45200
Si	Si	0.11992 0.22907 0.99401 0.82500
O 	O 	0.83458 0.28984 0.93501 -0.42000
O 	O 	0.16551 0.28337 0.31084 -0.42500
O 	O 	0.22229 0.82874 0.98610 -0.61600
O 	O 	0.83887 0.16568 0.89373 -0.39700
C 	C 	0.12539 0.27720 0.18180 -0.14500
H 	H 	0.10050 0.29360 0.20720 0.09400
O 	O 	0.25199 0.26330 0.29611 -0.40200
C 	C 	0.04216 0.22777 0.97223 -0.31300
C 	C 	0.14288 0.24474 0.07893 -0.31600
C 	C 	0.14598 0.31505 0.95021 -0.29200
C 	C 	0.14813 0.12506 0.97560 -0.29400
C 	C 	0.86305 0.22869 0.92065 0.27400
C 	C 	0.92488 0.22968 0.93757 0.01800
C 	C 	0.95348 0.29970 0.96118 -0.14200
H 	H 	0.93380 0.34830 0.96620 0.08200
C 	C 	0.19689 0.44420 0.94408 -0.07300
H 	H 	0.21860 0.48680 0.96460 0.04600
C 	C 	0.01087 0.29927 0.97764 0.12900
H 	H 	0.02920 0.34800 0.99270 -0.02900
C 	C 	0.18395 0.44560 0.88126 -0.06800
C 	C 	0.13914 0.05673 0.01134 0.10100
H 	H 	0.11880 0.06380 0.04310 -0.01400
C 	C 	0.13281 0.31800 0.88587 0.08900
H 	H 	0.11020 0.27650 0.86500 -0.01000
C 	C 	0.01247 0.15711 0.94875 0.12900
H 	H 	0.03190 0.10800 0.94450 -0.02300
C 	C 	0.19810 0.23060 0.10568 0.13800
H 	H 	0.22330 0.21490 0.08050 -0.02700
C 	C 	0.17897 0.11061 0.92879 0.10500
H 	H 	0.18650 0.15500 0.90430 -0.01500
C 	C 	0.15250 0.38120 0.85216 -0.08300
H 	H 	0.14430 0.37980 0.80930 0.07300
C 	C 	0.95500 0.15770 0.93161 -0.14000
H 	H 	0.93640 0.10940 0.91600 0.09100
C 	C 	0.17808 0.37990 0.97829 0.08400
H 	H 	0.18750 0.38090 0.02110 -0.00900
C 	C 	0.30010 0.77034 0.22446 0.28700
O 	O 	0.26560 0.07008 0.62461 -0.52000
C 	C 	0.28916 0.38092 0.55794 0.37200
C 	C 	0.29323 0.01290 0.65320 0.39900
O 	O 	0.30017 0.00670 0.71033 -0.27200
C 	C 	0.31058 0.46571 0.54592 -0.04900
C 	C 	0.30152 0.53253 0.58196 -0.10100
H 	H 	0.28190 0.52480 0.61420 0.08100
C 	C 	0.34061 0.47924 0.49891 -0.09200
H 	H 	0.34720 0.43490 0.47390 0.06100
C 	C 	0.31952 0.76219 0.29317 0.04200
C 	C 	0.39327 0.76790 0.38146 0.13700
H 	H 	0.43080 0.77730 0.39760 -0.02900
C 	C 	0.28279 0.73900 0.33139 -0.14500
H 	H 	0.24540 0.72910 0.31500 0.10100
Nd	Nd	0.75819 0.71157 0.59545 2.15800
O 	O 	0.28413 0.36187 0.61168 -0.45200
Si	Si	0.38008 0.72907 0.50599 0.82600
O 	O 	0.66542 0.78984 0.56499 -0.42000
O 	O 	0.33449 0.78337 0.18916 -0.42500
O 	O 	0.27771 0.32874 0.51390 -0.61600
O 	O 	0.66113 0.66568 0.60627 -0.39700
C 	C 	0.37461 0.77720 0.31820 -0.14600
H 	H 	0.39950 0.79360 0.29280 0.09400
O 	O 	0.24801 0.76330 0.20389 -0.40200
C 	C 	0.45784 0.72777 0.52777 -0.31500
C 	C 	0.35712 0.74474 0.42107 -0.31700
C 	C 	0.35402 0.81505 0.54979 -0.29300
C 	C 	0.35187 0.62506 0.52440 -0.29300
C 	C 	0.63695 0.72869 0.57935 0.27400
C 	C 	0.57512 0.72968 0.56243 0.02000
C 	C 	0.54652 0.79970 0.53882 -0.14400
H 	H 	0.56620 0.84830 0.53380 0.08300
C 	C 	0.30311 0.94420 0.55592 -0.07400
H 	H 	0.28140 0.98680 0.53540 0.04600
C 	C 	0.48913 0.79927 0.52236 0.13100
H 	H 	0.47080 0.84800 0.50730 -0.03000
C 	C 	0.31605 0.94560 0.61874 -0.06700
C 	C 	0.36086 0.55673 0.48866 0.09900
H 	H 	0.38120 0.56380 0.45690 -0.01300
C 	C 	0.36719 0.81800 0.61413 0.08900
H 	H 	0.38980 0.77650 0.63500 -0.01100
C 	C 	0.48753 0.65711 0.55125 0.13100
H 	H 	0.46810 0.60800 0.55550 -0.02400
C 	C 	0.30190 0.73060 0.39432 0.13900
H 	H 	0.27670 0.71490 0.41950 -0.02700
C 	C 	0.32103 0.61061 0.57121 0.10400
H 	H 	0.31350 0.65500 0.59570 -0.01400
C 	C 	0.34750 0.88120 0.64784 -0.08300
H 	H 	0.35570 0.87980 0.69070 0.07300
C 	C 	0.54500 0.65770 0.56839 -0.14200
H 	H 	0.56360 0.60940 0.58400 0.09100
C 	C 	0.32192 0.87990 0.52171 0.08500
H 	H 	0.31250 0.88090 0.47890 -0.01000
C 	C 	0.80010 0.27034 0.22446 0.28700
O 	O 	0.76560 0.57008 0.62461 -0.52000
C 	C 	0.78916 0.88092 0.55794 0.37200
C 	C 	0.79323 0.51290 0.65320 0.40000
O 	O 	0.80017 0.50670 0.71033 -0.27200
C 	C 	0.81058 0.96571 0.54592 -0.04900
C 	C 	0.80152 0.03253 0.58196 -0.10100
H 	H 	0.78190 0.02480 0.61420 0.08100
C 	C 	0.84061 0.97924 0.49891 -0.09200
H 	H 	0.84720 0.93490 0.47390 0.06100
C 	C 	0.81952 0.26219 0.29317 0.04200
C 	C 	0.89327 0.26790 0.38146 0.13700
H 	H 	0.93080 0.27730 0.39760 -0.02900
C 	C 	0.78279 0.23900 0.33139 -0.14500
H 	H 	0.74540 0.22910 0.31500 0.10100
Nd	Nd	0.25819 0.21157 0.59545 2.15800
O 	O 	0.78413 0.86187 0.61168 -0.45200
Si	Si	0.88008 0.22907 0.50599 0.82600
O 	O 	0.16542 0.28984 0.56499 -0.42000
O 	O 	0.83449 0.28337 0.18916 -0.42500
O 	O 	0.77771 0.82874 0.51390 -0.61600
O 	O 	0.16113 0.16568 0.60627 -0.39700
C 	C 	0.87461 0.27720 0.31820 -0.14600
H 	H 	0.89950 0.29360 0.29280 0.09400
O 	O 	0.74801 0.26330 0.20389 -0.40200
C 	C 	0.95784 0.22777 0.52777 -0.31500
C 	C 	0.85712 0.24474 0.42107 -0.31700
C 	C 	0.85402 0.31505 0.54979 -0.29300
C 	C 	0.85187 0.12506 0.52440 -0.29300
C 	C 	0.13695 0.22869 0.57935 0.27400
C 	C 	0.07512 0.22968 0.56243 0.02000
C 	C 	0.04652 0.29970 0.53882 -0.14500
H 	H 	0.06620 0.34830 0.53380 0.08300
C 	C 	0.80311 0.44420 0.55592 -0.07400
H 	H 	0.78140 0.48680 0.53540 0.04600
C 	C 	0.98913 0.29927 0.52236 0.13100
H 	H 	0.97080 0.34800 0.50730 -0.03000
C 	C 	0.81605 0.44560 0.61874 -0.06700
C 	C 	0.86086 0.05673 0.48866 0.09900
H 	H 	0.88120 0.06380 0.45690 -0.01400
C 	C 	0.86719 0.31800 0.61413 0.08900
H 	H 	0.88980 0.27650 0.63500 -0.01100
C 	C 	0.98753 0.15711 0.55125 0.13100
H 	H 	0.96810 0.10800 0.55550 -0.02400
C 	C 	0.80190 0.23060 0.39432 0.13900
H 	H 	0.77670 0.21490 0.41950 -0.02700
C 	C 	0.82103 0.11061 0.57121 0.10400
H 	H 	0.81350 0.15500 0.59570 -0.01500
C 	C 	0.84750 0.38120 0.64784 -0.08300
H 	H 	0.85570 0.37980 0.69070 0.07300
C 	C 	0.04500 0.15770 0.56839 -0.14200
H 	H 	0.06360 0.10940 0.58400 0.09100
C 	C 	0.82192 0.37990 0.52171 0.08500
H 	H 	0.81250 0.38090 0.47890 -0.01000
