data_crystal

_cell_length_a 9.65350
_cell_length_b 12.91320
_cell_length_c 17.20720
_cell_angle_alpha 105.77400
_cell_angle_beta  90.00000
_cell_angle_gamma 111.94900

_symmetry_space_group_name_	'P 1'
_symmetry_space_group_name_H-M	'P 1'

loop_
_symmetry_equiv_pos_as_xyz
  x,y,z

loop_
_atom_site_label
_atom_site_type_symbol
_atom_site_fract_x
_atom_site_fract_y
_atom_site_fract_z
_atom_site_charge
Ni	Ni	0.08261 0.05512 0.61039 1.03500
Ni	Ni	0.97251 0.05512 0.11039 1.01100
H 	H 	0.16610 0.98580 0.76310 0.03700
H 	H 	0.20270 0.80560 0.76460 0.04900
H 	H 	0.15710 0.68160 0.62130 0.07400
H 	H 	0.04860 0.74560 0.33620 0.06100
H 	H 	0.02180 0.90840 0.29700 0.09500
H 	H 	0.02520 0.05720 0.42650 -0.08700
H 	H 	0.31350 0.70640 0.47870 0.06000
H 	H 	0.30990 0.52480 0.40860 0.06600
H 	H 	0.85970 0.39820 0.36730 0.06700
H 	H 	0.86410 0.58200 0.43190 0.05400
H 	H 	0.92080 0.26880 0.24550 0.01500
H 	H 	0.20140 0.13400 0.29080 0.00800
H 	H 	0.26070 0.31780 0.39910 0.02700
H 	H 	0.40590 0.04180 0.61640 -0.01600
H 	H 	0.65350 0.20820 0.63670 0.03500
H 	H 	0.60210 0.37860 0.62640 0.06200
H 	H 	0.09650 0.43600 0.56060 0.04900
H 	H 	0.82930 0.29940 0.52260 0.05900
H 	H 	0.81220 0.11060 0.54290 -0.00700
H 	H 	0.49300 0.43380 0.50800 0.04400
H 	H 	0.63320 0.62940 0.52210 0.06200
H 	H 	0.44820 0.72060 0.72560 0.07100
H 	H 	0.30020 0.52560 0.70820 0.05400
H 	H 	0.84490 0.80540 0.59860 -0.01800
H 	H 	0.74280 0.07900 0.67640 0.08200
H 	H 	0.51930 0.90880 0.68030 -0.01300
H 	H 	0.81970 0.98580 0.26310 0.02700
H 	H 	0.60290 0.80560 0.26460 0.04400
H 	H 	0.52450 0.68160 0.12130 0.06800
H 	H 	0.69700 0.74560 0.83620 0.06100
H 	H 	0.88660 0.90840 0.79700 0.06700
H 	H 	0.03200 0.05720 0.92650 -0.04300
H 	H 	0.39290 0.70640 0.97870 0.06100
H 	H 	0.21490 0.52480 0.90860 0.06900
H 	H 	0.53850 0.39820 0.86730 0.05800
H 	H 	0.71790 0.58200 0.93190 0.04700
H 	H 	0.34800 0.26880 0.74550 -0.00500
H 	H 	0.93260 0.13400 0.79080 -0.04700
H 	H 	0.05710 0.31780 0.89910 0.05400
H 	H 	0.63590 0.04180 0.11640 -0.01800
H 	H 	0.55470 0.20820 0.13670 0.04300
H 	H 	0.77650 0.37860 0.12640 0.04700
H 	H 	0.33950 0.43600 0.06060 0.06200
H 	H 	0.47010 0.29940 0.02260 0.04300
H 	H 	0.29840 0.11060 0.04290 -0.00500
H 	H 	0.94080 0.43380 0.00800 -0.00800
H 	H 	0.99620 0.62940 0.02210 0.02600
H 	H 	0.27240 0.72060 0.22560 0.07400
H 	H 	0.22540 0.52560 0.20820 0.04500
H 	H 	0.96050 0.80540 0.09860 -0.05600
H 	H 	0.33620 0.07900 0.17640 0.08500
H 	H 	0.38950 0.90880 0.18030 -0.01200
C 	C 	0.15846 0.92532 0.71699 0.03300
C 	C 	0.17823 0.82326 0.71885 -0.03100
C 	C 	0.15408 0.75536 0.63974 -0.10100
C 	C 	0.12376 0.81904 0.59123 0.11400
C 	C 	0.09048 0.78180 0.50630 -0.11000
C 	C 	0.05966 0.84392 0.45815 0.09700
C 	C 	0.04685 0.81390 0.37136 -0.05000
C 	C 	0.03144 0.90308 0.34943 -0.12100
C 	C 	0.03352 0.98684 0.42379 0.20400
C 	C 	0.08938 0.66394 0.46199 0.08700
C 	C 	0.22252 0.64524 0.45537 -0.06600
C 	C 	0.22037 0.53614 0.41424 -0.09600
C 	C 	0.08532 0.44430 0.38163 0.13100
C 	C 	0.95076 0.46054 0.38871 -0.12900
C 	C 	0.95373 0.57046 0.42807 -0.10000
C 	C 	0.99834 0.25786 0.26966 0.00200
C 	C 	0.15245 0.18470 0.29470 -0.00300
C 	C 	0.18557 0.28614 0.35556 0.00300
C 	C 	0.41876 0.11626 0.61480 0.01800
C 	C 	0.55987 0.21000 0.62677 -0.05500
C 	C 	0.53146 0.30386 0.62091 -0.09800
C 	C 	0.37209 0.26464 0.60480 0.09100
C 	C 	0.29119 0.33296 0.59785 -0.10600
C 	C 	0.13490 0.29484 0.58350 0.07900
C 	C 	0.05562 0.35868 0.56110 -0.02100
C 	C 	0.90814 0.28372 0.54054 -0.11400
C 	C 	0.90052 0.17698 0.55226 0.00500
C 	C 	0.38236 0.45930 0.60679 0.04300
C 	C 	0.48286 0.49112 0.55124 -0.05400
C 	C 	0.56818 0.60830 0.56010 -0.10000
C 	C 	0.55599 0.69328 0.62557 0.10200
C 	C 	0.45617 0.66310 0.68172 -0.09900
C 	C 	0.36864 0.54622 0.67155 -0.05200
C 	C 	0.79269 0.85306 0.61807 0.09200
C 	C 	0.73556 0.00224 0.66093 -0.22800
C 	C 	0.61062 0.90842 0.66332 0.17700
C 	C 	0.76686 0.92532 0.21699 0.02400
C 	C 	0.64503 0.82326 0.21885 -0.03700
C 	C 	0.60128 0.75536 0.13974 -0.10300
C 	C 	0.69528 0.81904 0.09123 0.10600
C 	C 	0.69132 0.78180 0.00630 -0.11200
C 	C 	0.78426 0.84392 0.95815 0.09500
C 	C 	0.76705 0.81390 0.87136 -0.07400
C 	C 	0.87164 0.90308 0.84943 -0.08700
C 	C 	0.95332 0.98684 0.92379 0.11900
C 	C 	0.57456 0.66394 0.96199 0.05100
C 	C 	0.42272 0.64524 0.95537 -0.06000
C 	C 	0.31577 0.53614 0.91424 -0.08900
C 	C 	0.35898 0.44430 0.88163 0.09200
C 	C 	0.50978 0.46054 0.88871 -0.08900
C 	C 	0.61673 0.57046 0.92807 -0.06100
C 	C 	0.25952 0.25786 0.76966 0.08400
C 	C 	0.03225 0.18470 0.79470 0.08300
C 	C 	0.10057 0.28614 0.85556 -0.04200
C 	C 	0.69750 0.11626 0.11480 0.02400
C 	C 	0.65013 0.21000 0.12677 -0.07100
C 	C 	0.77240 0.30386 0.12091 -0.07000
C 	C 	0.89255 0.26464 0.10480 0.03400
C 	C 	0.04177 0.33296 0.09785 -0.04700
C 	C 	0.15994 0.29484 0.08350 0.07700
C 	C 	0.30306 0.35868 0.06110 -0.08200
C 	C 	0.37558 0.28372 0.04054 -0.05500
C 	C 	0.27646 0.17698 0.05226 0.02700
C 	C 	0.07694 0.45930 0.10679 0.00900
C 	C 	0.00826 0.49112 0.05124 0.01900
C 	C 	0.04012 0.60830 0.06010 -0.06500
C 	C 	0.13729 0.69328 0.12557 0.10500
C 	C 	0.20693 0.66310 0.18172 -0.11000
C 	C 	0.17758 0.54622 0.17155 -0.02800
C 	C 	0.06037 0.85306 0.11807 0.16400
C 	C 	0.26668 0.00224 0.16093 -0.22400
C 	C 	0.29780 0.90842 0.16332 0.17600
N 	N 	0.12767 0.92518 0.64167 -0.21500
N 	N 	0.04874 0.95306 0.48883 -0.23600
N 	N 	0.08500 0.33222 0.33936 -0.11400
N 	N 	0.03646 0.16776 0.23983 -0.18800
N 	N 	0.30646 0.14748 0.60101 -0.24700
N 	N 	0.03340 0.18232 0.57809 -0.22300
N 	N 	0.64820 0.81344 0.63531 -0.16100
N 	N 	0.84983 0.96756 0.63234 -0.15400
N 	N 	0.79751 0.92518 0.14167 -0.22200
N 	N 	0.90432 0.95306 0.98883 -0.23200
N 	N 	0.24722 0.33222 0.83936 -0.13000
N 	N 	0.13130 0.16776 0.73983 -0.23300
N 	N 	0.84102 0.14748 0.10101 -0.24600
N 	N 	0.14892 0.18232 0.07809 -0.23200
N 	N 	0.16524 0.81344 0.13531 -0.16900
N 	N 	0.11773 0.96756 0.13234 -0.14800
