data_crystal

_cell_length_a 18.77400
_cell_length_b 29.70400
_cell_length_c 24.89000
_cell_angle_alpha 90.00000
_cell_angle_beta  90.00000
_cell_angle_gamma 90.00000

_symmetry_space_group_name_	'P 1'
_symmetry_space_group_name_H-M	'P 1'

loop_
_symmetry_equiv_pos_as_xyz
  x,y,z

loop_
_atom_site_label
_atom_site_type_symbol
_atom_site_fract_x
_atom_site_fract_y
_atom_site_fract_z
_atom_site_charge
C 	C 	0.16100 0.10800 0.07780 0.39400
O 	O 	0.21310 0.08885 0.05702 -0.49700
C 	C 	0.12540 0.08466 0.12372 -0.14700
C 	C 	0.05450 0.03609 0.20501 -0.11300
C 	C 	0.06040 0.09867 0.14190 0.00100
H 	H 	0.03940 0.12430 0.12730 0.01200
O 	O 	0.13480 0.14508 0.06341 -0.48000
C 	C 	0.12090 0.02351 0.18640 -0.05900
H 	H 	0.14250 -0.00200 0.20080 0.01000
C 	C 	0.15670 0.04788 0.14660 0.00300
H 	H 	0.20190 0.03900 0.13560 -0.00700
C 	C 	0.02550 0.07473 0.18220 -0.05600
H 	H 	-0.01860 0.08490 0.19430 0.01100
C 	C 	0.17790 0.28859 -0.07500 0.34200
C 	C 	0.13620 0.30928 -0.12098 -0.07500
C 	C 	0.05820 0.34975 -0.20437 -0.17300
C 	C 	0.07870 0.28799 -0.14360 -0.05200
H 	H 	0.06560 0.25960 -0.13140 0.02500
C 	C 	0.03950 0.30825 -0.18460 0.00300
H 	H 	-0.00000 0.29350 -0.19870 -0.01000
C 	C 	0.11510 0.37062 -0.18090 0.01100
H 	H 	0.12780 0.39920 -0.19300 0.00500
C 	C 	0.15480 0.35125 -0.14000 -0.05700
H 	H 	0.19360 0.36650 -0.12550 0.04700
O 	O 	0.15740 0.25073 -0.05975 -0.46700
O 	O 	0.22780 0.31093 -0.05499 -0.31800
C 	C 	0.05430 0.41940 -0.29620 -0.16100
C 	C 	0.16940 0.49520 -0.41660 0.21000
C 	C 	0.12890 0.46960 -0.37420 -0.05400
C 	C 	0.05460 0.40130 -0.35070 -0.02500
C 	C 	0.08990 0.42660 -0.38900 0.00600
C 	C 	0.12900 0.47630 -0.32190 -0.01800
C 	C 	0.09260 0.45260 -0.28350 0.01300
O 	O 	0.16640 0.47980 -0.46230 -0.20400
O 	O 	0.13620 0.53020 -0.44140 -0.18600
H 	H 	0.47328 0.86805 0.14031 -0.02500
H 	H 	0.41072 0.91453 0.06753 -0.04600
H 	H 	0.33774 1.00467 0.19605 -0.02800
H 	H 	0.40276 0.96321 0.26038 -0.02200
Er	Er	0.17687 0.19461 -0.00000 0.93100
Er	Er	0.26829 0.04170 -0.00000 0.65700
Si	Si	0.00000 0.00000 0.25000 0.21800
Si	Si	0.00000 0.38344 -0.25000 0.38100
