data_crystal

_cell_length_a 20.50400
_cell_length_b 9.57760
_cell_length_c 19.44400
_cell_angle_alpha 90.00000
_cell_angle_beta  103.73500
_cell_angle_gamma 90.00000

_symmetry_space_group_name_	'P 1'
_symmetry_space_group_name_H-M	'P 1'

loop_
_symmetry_equiv_pos_as_xyz
  x,y,z

loop_
_atom_site_label
_atom_site_type_symbol
_atom_site_fract_x
_atom_site_fract_y
_atom_site_fract_z
_atom_site_charge
Zn	Zn	0.59911 0.91573 0.78959 1.20000
Zn	Zn	0.71863 0.86299 0.92754 1.06000
N 	N 	0.55790 0.94380 0.68430 -0.26600
C 	C 	0.51290 0.98940 0.53870 0.06200
C 	C 	0.52580 0.09800 0.58610 -0.13300
H 	H 	0.51830 0.18930 0.56980 0.07200
C 	C 	0.54940 0.07320 0.65710 0.08300
H 	H 	0.56000 0.14900 0.68760 -0.01300
C 	C 	0.52050 0.85520 0.56780 -0.13600
H 	H 	0.50860 0.77750 0.53880 0.07700
C 	C 	0.54510 0.83870 0.63840 0.08900
H 	H 	0.55370 0.74840 0.65580 -0.00700
C 	C 	0.38800 0.34840 0.15870 0.37700
C 	C 	0.76390 0.65680 0.56330 0.34300
C 	C 	0.74770 0.83250 0.79580 0.42100
C 	C 	0.76080 0.73820 0.68140 0.02300
H 	H 	0.71430 0.73690 0.66630 0.04200
C 	C 	0.79110 0.78110 0.75010 -0.11000
C 	C 	0.79880 0.69830 0.63620 -0.08600
C 	C 	0.89940 0.73430 0.72840 0.08000
C 	C 	0.86810 0.69970 0.65890 -0.07000
H 	H 	0.89410 0.67720 0.62720 0.05700
C 	C 	0.85920 0.77380 0.77410 -0.05100
H 	H 	0.87900 0.79510 0.82110 0.04700
C 	C 	0.37110 0.60260 0.13780 0.09200
H 	H 	0.38740 0.61870 0.18600 0.00900
C 	C 	0.35030 0.71260 0.09190 -0.18900
C 	C 	0.32850 0.69030 0.02020 -0.00800
H 	H 	0.31380 0.76580 0.99050 0.02600
C 	C 	0.36730 0.46960 0.11140 -0.14300
C 	C 	0.35150 0.85840 0.11780 0.50600
C 	C 	0.34770 0.44710 0.03780 -0.04600
H 	H 	0.34820 0.35680 0.02030 0.03200
C 	C 	0.32790 0.55660 0.99080 0.06000
N 	N 	0.31050 0.53130 0.91900 -0.18100
H 	H 	0.31360 0.44680 0.90520 0.12600
O 	O 	0.38520 0.88630 0.17760 -0.53700
O 	O 	0.69240 0.87920 0.76610 -0.50800
O 	O 	0.37790 0.22550 0.13160 -0.59700
O 	O 	0.77200 0.82470 0.86210 -0.64100
O 	O 	0.41250 0.36410 0.22120 -0.36600
O 	O 	0.70390 0.65420 0.54450 -0.42300
O 	O 	0.31610 0.94760 0.07730 -0.81200
O 	O 	0.80140 0.63970 0.52020 -0.58100
N 	N 	0.96800 0.72150 0.74980 -0.19500
H 	H 	0.98960 0.68260 0.72210 0.11200
C 	C 	0.21570 0.67000 0.85370 0.05400
C 	C 	0.28810 0.63230 0.86670 -0.09200
H 	H 	0.29680 0.59870 0.82260 0.05800
H 	H 	0.31450 0.71630 0.87980 0.05700
C 	C 	0.00230 0.76940 0.81430 -0.04000
H 	H 	0.98640 0.72340 0.85160 0.03300
H 	H 	0.99540 0.86910 0.81770 0.03100
C 	C 	0.16660 0.57160 0.85310 -0.08900
H 	H 	0.17980 0.48020 0.86530 0.06900
C 	C 	0.19470 0.80490 0.83680 -0.09900
H 	H 	0.22580 0.87380 0.83350 0.05800
C 	C 	0.09790 0.60160 0.83530 -0.05100
H 	H 	0.06620 0.53100 0.83220 0.04600
C 	C 	0.07880 0.73780 0.82270 0.01000
C 	C 	0.12730 0.83770 0.82470 -0.05300
H 	H 	0.11430 0.93060 0.81770 0.04400
Zn	Zn	0.75696 0.98084 0.93870 1.05500
Zn	Zn	0.40089 0.41573 0.71041 1.20200
Zn	Zn	0.28137 0.36299 0.57246 1.06100
N 	N 	0.44210 0.44380 0.81570 -0.26400
C 	C 	0.48710 0.48940 0.96130 0.06200
C 	C 	0.47420 0.59800 0.91390 -0.13200
H 	H 	0.48170 0.68930 0.93020 0.07100
C 	C 	0.45060 0.57320 0.84290 0.07900
H 	H 	0.44000 0.64900 0.81240 -0.01300
C 	C 	0.47950 0.35520 0.93220 -0.13600
H 	H 	0.49140 0.27750 0.96120 0.07800
C 	C 	0.45490 0.33870 0.86160 0.08900
H 	H 	0.44630 0.24840 0.84420 -0.00700
C 	C 	0.61200 0.84840 0.34130 0.37400
C 	C 	0.23610 0.15680 0.93670 0.34200
C 	C 	0.25230 0.33250 0.70420 0.42100
C 	C 	0.23920 0.23820 0.81860 0.02200
H 	H 	0.28570 0.23690 0.83370 0.04200
C 	C 	0.20890 0.28110 0.74990 -0.10900
C 	C 	0.20120 0.19830 0.86380 -0.08500
C 	C 	0.10060 0.23430 0.77160 0.08000
C 	C 	0.13190 0.19970 0.84110 -0.07000
H 	H 	0.10590 0.17720 0.87280 0.05900
C 	C 	0.14080 0.27380 0.72590 -0.05100
H 	H 	0.12100 0.29510 0.67890 0.04700
C 	C 	0.62890 0.10260 0.36220 0.08600
H 	H 	0.61260 0.11870 0.31400 0.01000
C 	C 	0.64970 0.21260 0.40810 -0.18400
C 	C 	0.67150 0.19030 0.47980 -0.01800
H 	H 	0.68620 0.26580 0.50950 0.03100
C 	C 	0.63270 0.96960 0.38860 -0.13700
C 	C 	0.64850 0.35840 0.38220 0.50400
C 	C 	0.65230 0.94710 0.46220 -0.05100
H 	H 	0.65180 0.85680 0.47970 0.03500
C 	C 	0.67210 0.05660 0.50920 0.06600
N 	N 	0.68950 0.03130 0.58100 -0.18100
H 	H 	0.68640 0.94680 0.59480 0.12400
O 	O 	0.61480 0.38630 0.32240 -0.53800
O 	O 	0.30760 0.37920 0.73390 -0.50600
O 	O 	0.62210 0.72550 0.36840 -0.59500
O 	O 	0.22800 0.32470 0.63790 -0.63900
O 	O 	0.58750 0.86410 0.27880 -0.36400
O 	O 	0.29610 0.15420 0.95550 -0.42000
O 	O 	0.68390 0.44760 0.42270 -0.81700
O 	O 	0.19860 0.13970 0.97980 -0.57700
N 	N 	0.03200 0.22150 0.75020 -0.19100
H 	H 	0.01040 0.18260 0.77790 0.11300
C 	C 	0.78430 0.17000 0.64630 0.04500
C 	C 	0.71190 0.13230 0.63330 -0.08600
H 	H 	0.70320 0.09870 0.67740 0.05800
H 	H 	0.68550 0.21630 0.62020 0.05600
C 	C 	0.99770 0.26940 0.68570 -0.06100
H 	H 	0.01360 0.22340 0.64840 0.04100
H 	H 	0.00460 0.36910 0.68230 0.04000
C 	C 	0.83340 0.07160 0.64690 -0.07200
H 	H 	0.82020 0.98020 0.63470 0.06000
C 	C 	0.80530 0.30490 0.66320 -0.08900
H 	H 	0.77420 0.37380 0.66650 0.05500
C 	C 	0.90210 0.10160 0.66470 -0.06500
H 	H 	0.93380 0.03100 0.66780 0.05200
C 	C 	0.92120 0.23780 0.67730 0.02200
C 	C 	0.87270 0.33770 0.67530 -0.06300
H 	H 	0.88570 0.43060 0.68230 0.04800
Zn	Zn	0.24304 0.48084 0.56130 1.05800
Zn	Zn	0.40089 0.08427 0.21041 1.20000
Zn	Zn	0.28137 0.13701 0.07246 1.06000
N 	N 	0.44210 0.05620 0.31570 -0.26600
C 	C 	0.48710 0.01060 0.46130 0.06200
C 	C 	0.47420 0.90200 0.41390 -0.13300
H 	H 	0.48170 0.81070 0.43020 0.07200
C 	C 	0.45060 0.92680 0.34290 0.08300
H 	H 	0.44000 0.85100 0.31240 -0.01300
C 	C 	0.47950 0.14480 0.43220 -0.13600
H 	H 	0.49140 0.22250 0.46120 0.07700
C 	C 	0.45490 0.16130 0.36160 0.08900
H 	H 	0.44630 0.25160 0.34420 -0.00700
C 	C 	0.61200 0.65160 0.84130 0.37700
C 	C 	0.23610 0.34320 0.43670 0.34300
C 	C 	0.25230 0.16750 0.20420 0.42100
C 	C 	0.23920 0.26180 0.31860 0.02300
H 	H 	0.28570 0.26310 0.33370 0.04200
C 	C 	0.20890 0.21890 0.24990 -0.11000
C 	C 	0.20120 0.30170 0.36380 -0.08600
C 	C 	0.10060 0.26570 0.27160 0.08000
C 	C 	0.13190 0.30030 0.34110 -0.07000
H 	H 	0.10590 0.32280 0.37280 0.05700
C 	C 	0.14080 0.22620 0.22590 -0.05100
H 	H 	0.12100 0.20490 0.17890 0.04700
C 	C 	0.62890 0.39740 0.86220 0.09200
H 	H 	0.61260 0.38130 0.81400 0.00900
C 	C 	0.64970 0.28740 0.90810 -0.18900
C 	C 	0.67150 0.30970 0.97980 -0.00800
H 	H 	0.68620 0.23420 0.00950 0.02600
C 	C 	0.63270 0.53040 0.88860 -0.14300
C 	C 	0.64850 0.14160 0.88220 0.50600
C 	C 	0.65230 0.55290 0.96220 -0.04600
H 	H 	0.65180 0.64320 0.97970 0.03200
C 	C 	0.67210 0.44340 0.00920 0.06000
N 	N 	0.68950 0.46870 0.08100 -0.18100
H 	H 	0.68640 0.55320 0.09480 0.12600
O 	O 	0.61480 0.11370 0.82240 -0.53700
O 	O 	0.30760 0.12080 0.23390 -0.50800
O 	O 	0.62210 0.77450 0.86840 -0.59700
O 	O 	0.22800 0.17530 0.13790 -0.64100
O 	O 	0.58750 0.63590 0.77880 -0.36600
O 	O 	0.29610 0.34580 0.45550 -0.42300
O 	O 	0.68390 0.05240 0.92270 -0.81200
O 	O 	0.19860 0.36030 0.47980 -0.58100
N 	N 	0.03200 0.27850 0.25020 -0.19500
H 	H 	0.01040 0.31740 0.27790 0.11200
C 	C 	0.78430 0.33000 0.14630 0.05400
C 	C 	0.71190 0.36770 0.13330 -0.09200
H 	H 	0.70320 0.40130 0.17740 0.05800
H 	H 	0.68550 0.28370 0.12020 0.05700
C 	C 	0.99770 0.23060 0.18570 -0.04000
H 	H 	0.01360 0.27660 0.14840 0.03300
H 	H 	0.00460 0.13090 0.18230 0.03100
C 	C 	0.83340 0.42840 0.14690 -0.08900
H 	H 	0.82020 0.51980 0.13470 0.06900
C 	C 	0.80530 0.19510 0.16320 -0.09900
H 	H 	0.77420 0.12620 0.16650 0.05800
C 	C 	0.90210 0.39840 0.16470 -0.05100
H 	H 	0.93380 0.46900 0.16780 0.04600
C 	C 	0.92120 0.26220 0.17730 0.01000
C 	C 	0.87270 0.16230 0.17530 -0.05300
H 	H 	0.88570 0.06940 0.18230 0.04400
Zn	Zn	0.24304 0.01916 0.06130 1.05500
Zn	Zn	0.59911 0.58427 0.28959 1.20200
Zn	Zn	0.71863 0.63701 0.42754 1.06100
N 	N 	0.55790 0.55620 0.18430 -0.26400
C 	C 	0.51290 0.51060 0.03870 0.06200
C 	C 	0.52580 0.40200 0.08610 -0.13200
H 	H 	0.51830 0.31070 0.06980 0.07100
C 	C 	0.54940 0.42680 0.15710 0.07900
H 	H 	0.56000 0.35100 0.18760 -0.01300
C 	C 	0.52050 0.64480 0.06780 -0.13600
H 	H 	0.50860 0.72250 0.03880 0.07800
C 	C 	0.54510 0.66130 0.13840 0.08900
H 	H 	0.55370 0.75160 0.15580 -0.00700
C 	C 	0.38800 0.15160 0.65870 0.37400
C 	C 	0.76390 0.84320 0.06330 0.34200
C 	C 	0.74770 0.66750 0.29580 0.42100
C 	C 	0.76080 0.76180 0.18140 0.02200
H 	H 	0.71430 0.76310 0.16630 0.04200
C 	C 	0.79110 0.71890 0.25010 -0.10900
C 	C 	0.79880 0.80170 0.13620 -0.08500
C 	C 	0.89940 0.76570 0.22840 0.08000
C 	C 	0.86810 0.80030 0.15890 -0.07000
H 	H 	0.89410 0.82280 0.12720 0.05900
C 	C 	0.85920 0.72620 0.27410 -0.05100
H 	H 	0.87900 0.70490 0.32110 0.04700
C 	C 	0.37110 0.89740 0.63780 0.08600
H 	H 	0.38740 0.88130 0.68600 0.01000
C 	C 	0.35030 0.78740 0.59190 -0.18400
C 	C 	0.32850 0.80970 0.52020 -0.01800
H 	H 	0.31380 0.73420 0.49050 0.03100
C 	C 	0.36730 0.03040 0.61140 -0.13700
C 	C 	0.35150 0.64160 0.61780 0.50400
C 	C 	0.34770 0.05290 0.53780 -0.05100
H 	H 	0.34820 0.14320 0.52030 0.03500
C 	C 	0.32790 0.94340 0.49080 0.06600
N 	N 	0.31050 0.96870 0.41900 -0.18100
H 	H 	0.31360 0.05320 0.40520 0.12400
O 	O 	0.38520 0.61370 0.67760 -0.53800
O 	O 	0.69240 0.62080 0.26610 -0.50600
O 	O 	0.37790 0.27450 0.63160 -0.59500
O 	O 	0.77200 0.67530 0.36210 -0.63900
O 	O 	0.41250 0.13590 0.72120 -0.36400
O 	O 	0.70390 0.84580 0.04450 -0.42000
O 	O 	0.31610 0.55240 0.57730 -0.81700
O 	O 	0.80140 0.86030 0.02020 -0.57700
N 	N 	0.96800 0.77850 0.24980 -0.19100
H 	H 	0.98960 0.81740 0.22210 0.11300
C 	C 	0.21570 0.83000 0.35370 0.04500
C 	C 	0.28810 0.86770 0.36670 -0.08600
H 	H 	0.29680 0.90130 0.32260 0.05800
H 	H 	0.31450 0.78370 0.37980 0.05600
C 	C 	0.00230 0.73060 0.31430 -0.06100
H 	H 	0.98640 0.77660 0.35160 0.04100
H 	H 	0.99540 0.63090 0.31770 0.04000
C 	C 	0.16660 0.92840 0.35310 -0.07200
H 	H 	0.17980 0.01980 0.36530 0.06000
C 	C 	0.19470 0.69510 0.33680 -0.08900
H 	H 	0.22580 0.62620 0.33350 0.05500
C 	C 	0.09790 0.89840 0.33530 -0.06500
H 	H 	0.06620 0.96900 0.33220 0.05200
C 	C 	0.07880 0.76220 0.32270 0.02200
C 	C 	0.12730 0.66230 0.32470 -0.06300
H 	H 	0.11430 0.56940 0.31770 0.04800
Zn	Zn	0.75696 0.51916 0.43870 1.05800
