data_crystal

_cell_length_a 29.37000
_cell_length_b 20.99800
_cell_length_c 27.36000
_cell_angle_alpha 90.00000
_cell_angle_beta  90.00000
_cell_angle_gamma 90.00000

_symmetry_space_group_name_	'P 1'
_symmetry_space_group_name_H-M	'P 1'

loop_
_symmetry_equiv_pos_as_xyz
  x,y,z

loop_
_atom_site_label
_atom_site_type_symbol
_atom_site_fract_x
_atom_site_fract_y
_atom_site_fract_z
_atom_site_charge
Cd	Cd	0.07052 0.25151 0.06894 1.24800
Na	Na	0.03267 0.12417 0.13453 0.59300
O 	O 	0.18690 0.27310 0.37590 -0.37000
O 	O 	0.00140 0.22230 0.14400 -0.39900
O 	O 	0.21450 0.17940 0.40420 -0.41800
O 	O 	0.13630 0.26230 0.13190 -0.30300
O 	O 	0.87480 0.48830 0.25660 -0.35900
O 	O 	0.10270 0.16930 0.11270 -0.40700
O 	O 	0.26280 0.00330 0.26000 -0.39500
O 	O 	0.02860 0.30790 0.11960 -0.48300
C 	C 	0.15180 0.11300 0.34970 -0.00400
H 	H 	0.17010 0.09110 0.37180 0.05200
C 	C 	0.00340 0.28250 0.14260 0.47800
C 	C 	0.18650 0.21530 0.37670 0.31400
C 	C 	0.12650 0.21270 0.31280 -0.01100
H 	H 	0.12750 0.25680 0.31080 0.05400
C 	C 	0.90990 0.38870 0.23320 0.00600
O 	O 	0.03950 0.10740 0.22070 -0.36700
C 	C 	0.15490 0.17810 0.34650 -0.07400
O 	O 	0.85040 0.40100 0.28750 -0.35900
C 	C 	0.12150 0.07950 0.32000 -0.04900
H 	H 	0.11890 0.03550 0.32200 0.06500
C 	C 	0.97000 0.38220 0.16920 0.06200
H 	H 	0.98880 0.40340 0.14720 0.04200
C 	C 	0.13160 0.20190 0.13710 0.27600
C 	C 	0.09520 0.11460 0.28720 -0.02500
C 	C 	0.06040 0.07330 0.25580 0.29200
C 	C 	0.09680 0.17640 0.28250 -0.04300
H 	H 	0.07860 0.19660 0.25940 0.06300
C 	C 	0.22390 0.09870 0.22930 -0.03400
C 	C 	0.25830 0.05720 0.26380 0.32400
C 	C 	0.90910 0.32310 0.23120 -0.10200
H 	H 	0.88950 0.29880 0.25040 0.09100
C 	C 	0.97050 0.31890 0.17280 -0.17100
C 	C 	0.22190 0.16990 0.22990 -0.03000
H 	H 	0.23980 0.19280 0.25170 0.05500
C 	C 	0.16290 0.16700 0.17050 -0.04700
C 	C 	0.87490 0.42890 0.26180 0.32500
C 	C 	0.16310 0.10200 0.17340 -0.02500
H 	H 	0.14290 0.07830 0.15450 0.05900
C 	C 	0.19480 0.20000 0.19920 -0.02300
H 	H 	0.19680 0.24400 0.19650 0.05900
C 	C 	0.19340 0.07100 0.20450 -0.02800
H 	H 	0.19110 0.02700 0.20730 0.05800
O 	O 	0.27630 0.09460 0.29680 -0.37900
C 	C 	0.93970 0.29580 0.19830 0.09700
H 	H 	0.93640 0.25200 0.19480 0.02000
C 	C 	0.93740 0.41850 0.20250 -0.08100
H 	H 	0.93690 0.46270 0.20120 0.08700
O 	O 	0.05740 0.01760 0.25980 -0.40400
Cd	Cd	0.07052 0.75151 0.56894 1.24700
Na	Na	0.03267 0.62417 0.63453 0.59300
O 	O 	0.18690 0.77310 0.87590 -0.37000
O 	O 	0.00140 0.72230 0.64400 -0.39800
O 	O 	0.21450 0.67940 0.90420 -0.41700
O 	O 	0.13630 0.76230 0.63190 -0.30100
O 	O 	0.87480 0.98830 0.75660 -0.35000
O 	O 	0.10270 0.66930 0.61270 -0.40700
O 	O 	0.26280 0.50330 0.76000 -0.38400
O 	O 	0.02860 0.80790 0.61960 -0.48100
C 	C 	0.15180 0.61300 0.84970 -0.00200
H 	H 	0.17010 0.59110 0.87180 0.05400
C 	C 	0.00340 0.78250 0.64260 0.47900
C 	C 	0.18650 0.71530 0.87670 0.31500
C 	C 	0.12650 0.71270 0.81280 -0.01000
H 	H 	0.12750 0.75680 0.81080 0.05400
C 	C 	0.90990 0.88870 0.73320 0.01000
O 	O 	0.03950 0.60740 0.72070 -0.36500
C 	C 	0.15490 0.67810 0.84650 -0.07400
O 	O 	0.85040 0.90100 0.78750 -0.35400
C 	C 	0.12150 0.57950 0.82000 -0.05000
H 	H 	0.11890 0.53550 0.82200 0.06900
C 	C 	0.97000 0.88220 0.66920 0.06500
H 	H 	0.98880 0.90340 0.64720 0.04500
C 	C 	0.13160 0.70190 0.63710 0.27700
C 	C 	0.09520 0.61460 0.78720 -0.02200
C 	C 	0.06040 0.57330 0.75580 0.29100
C 	C 	0.09680 0.67640 0.78250 -0.04400
H 	H 	0.07860 0.69660 0.75940 0.06500
C 	C 	0.22390 0.59870 0.72930 -0.03000
C 	C 	0.25830 0.55720 0.76380 0.32300
C 	C 	0.90910 0.82310 0.73120 -0.10300
H 	H 	0.88950 0.79880 0.75040 0.09300
C 	C 	0.97050 0.81890 0.67280 -0.17200
C 	C 	0.22190 0.66990 0.72990 -0.03100
H 	H 	0.23980 0.69280 0.75170 0.05500
C 	C 	0.16290 0.66700 0.67050 -0.04700
C 	C 	0.87490 0.92890 0.76180 0.32300
C 	C 	0.16310 0.60200 0.67340 -0.02200
H 	H 	0.14290 0.57830 0.65450 0.05900
C 	C 	0.19480 0.70000 0.69920 -0.02100
H 	H 	0.19680 0.74400 0.69650 0.05900
C 	C 	0.19340 0.57100 0.70450 -0.03100
H 	H 	0.19110 0.52700 0.70730 0.06300
O 	O 	0.27630 0.59460 0.79680 -0.37500
C 	C 	0.93970 0.79580 0.69830 0.09900
H 	H 	0.93640 0.75200 0.69480 0.02100
C 	C 	0.93740 0.91850 0.70250 -0.08200
H 	H 	0.93690 0.96270 0.70120 0.09200
O 	O 	0.05740 0.51760 0.75980 -0.39700
Cd	Cd	0.57052 0.25151 0.56894 1.24700
Na	Na	0.53267 0.12417 0.63453 0.59400
O 	O 	0.68690 0.27310 0.87590 -0.37000
O 	O 	0.50140 0.22230 0.64400 -0.39900
O 	O 	0.71450 0.17940 0.90420 -0.41800
O 	O 	0.63630 0.26230 0.63190 -0.30200
O 	O 	0.37480 0.48830 0.75660 -0.35900
O 	O 	0.60270 0.16930 0.61270 -0.40600
O 	O 	0.76280 0.00330 0.76000 -0.39500
O 	O 	0.52860 0.30790 0.61960 -0.48800
C 	C 	0.65180 0.11300 0.84970 -0.00200
H 	H 	0.67010 0.09110 0.87180 0.05200
C 	C 	0.50340 0.28250 0.64260 0.51000
C 	C 	0.68650 0.21530 0.87670 0.31500
C 	C 	0.62650 0.21270 0.81280 -0.01000
H 	H 	0.62750 0.25680 0.81080 0.05400
C 	C 	0.40990 0.38870 0.73320 0.02100
O 	O 	0.53950 0.10740 0.72070 -0.36200
C 	C 	0.65490 0.17810 0.84650 -0.07400
O 	O 	0.35040 0.40100 0.78750 -0.35800
C 	C 	0.62150 0.07950 0.82000 -0.05000
H 	H 	0.61890 0.03550 0.82200 0.06600
C 	C 	0.47000 0.38220 0.66920 0.08800
H 	H 	0.48880 0.40340 0.64720 0.02700
C 	C 	0.63160 0.20190 0.63710 0.27600
C 	C 	0.59520 0.11460 0.78720 -0.02200
C 	C 	0.56040 0.07330 0.75580 0.29200
C 	C 	0.59680 0.17640 0.78250 -0.04400
H 	H 	0.57860 0.19660 0.75940 0.06600
C 	C 	0.72390 0.09870 0.72930 -0.03400
C 	C 	0.75830 0.05720 0.76380 0.32400
C 	C 	0.40910 0.32310 0.73120 -0.12900
H 	H 	0.38950 0.29880 0.75040 0.09900
C 	C 	0.47050 0.31890 0.67280 -0.21700
C 	C 	0.72190 0.16990 0.72990 -0.03000
H 	H 	0.73980 0.19280 0.75170 0.05500
C 	C 	0.66290 0.16700 0.67050 -0.04600
C 	C 	0.37490 0.42890 0.76180 0.31900
C 	C 	0.66310 0.10200 0.67340 -0.02500
H 	H 	0.64290 0.07830 0.65450 0.05900
C 	C 	0.69480 0.20000 0.69920 -0.02300
H 	H 	0.69680 0.24400 0.69650 0.06000
C 	C 	0.69340 0.07100 0.70450 -0.02800
H 	H 	0.69110 0.02700 0.70730 0.05800
O 	O 	0.77630 0.09460 0.79680 -0.37900
C 	C 	0.43970 0.29580 0.69830 0.13300
H 	H 	0.43640 0.25200 0.69480 0.00400
C 	C 	0.43740 0.41850 0.70250 -0.10100
H 	H 	0.43690 0.46270 0.70120 0.09100
O 	O 	0.55740 0.01760 0.75980 -0.40100
Cd	Cd	0.57052 0.75151 0.06894 1.24800
Na	Na	0.53267 0.62417 0.13453 0.59400
O 	O 	0.68690 0.77310 0.37590 -0.36900
O 	O 	0.50140 0.72230 0.14400 -0.39800
O 	O 	0.71450 0.67940 0.40420 -0.41700
O 	O 	0.63630 0.76230 0.13190 -0.30000
O 	O 	0.37480 0.98830 0.25660 -0.35000
O 	O 	0.60270 0.66930 0.11270 -0.40600
O 	O 	0.76280 0.50330 0.26000 -0.38400
O 	O 	0.52860 0.80790 0.11960 -0.48600
C 	C 	0.65180 0.61300 0.34970 -0.00100
H 	H 	0.67010 0.59110 0.37180 0.05400
C 	C 	0.50340 0.78250 0.14260 0.51000
C 	C 	0.68650 0.71530 0.37670 0.31500
C 	C 	0.62650 0.71270 0.31280 -0.00900
H 	H 	0.62750 0.75680 0.31080 0.05500
C 	C 	0.40990 0.88870 0.23320 0.02500
O 	O 	0.53950 0.60740 0.22070 -0.36000
C 	C 	0.65490 0.67810 0.34650 -0.07400
O 	O 	0.35040 0.90100 0.28750 -0.35300
C 	C 	0.62150 0.57950 0.32000 -0.05100
H 	H 	0.61890 0.53550 0.32200 0.07100
C 	C 	0.47000 0.88220 0.16920 0.09100
H 	H 	0.48880 0.90340 0.14720 0.03000
C 	C 	0.63160 0.70190 0.13710 0.27600
C 	C 	0.59520 0.61460 0.28720 -0.02000
C 	C 	0.56040 0.57330 0.25580 0.29100
C 	C 	0.59680 0.67640 0.28250 -0.04500
H 	H 	0.57860 0.69660 0.25940 0.06700
C 	C 	0.72390 0.59870 0.22930 -0.03000
C 	C 	0.75830 0.55720 0.26380 0.32300
C 	C 	0.40910 0.82310 0.23120 -0.13000
H 	H 	0.38950 0.79880 0.25040 0.10100
C 	C 	0.47050 0.81890 0.17280 -0.21700
C 	C 	0.72190 0.66990 0.22990 -0.03100
H 	H 	0.73980 0.69280 0.25170 0.05500
C 	C 	0.66290 0.66700 0.17050 -0.04700
C 	C 	0.37490 0.92890 0.26180 0.31700
C 	C 	0.66310 0.60200 0.17340 -0.02200
H 	H 	0.64290 0.57830 0.15450 0.06000
C 	C 	0.69480 0.70000 0.19920 -0.02100
H 	H 	0.69680 0.74400 0.19650 0.06000
C 	C 	0.69340 0.57100 0.20450 -0.03100
H 	H 	0.69110 0.52700 0.20730 0.06300
O 	O 	0.77630 0.59460 0.29680 -0.37500
C 	C 	0.43970 0.79580 0.19830 0.13500
H 	H 	0.43640 0.75200 0.19480 0.00500
C 	C 	0.43740 0.91850 0.20250 -0.10200
H 	H 	0.43690 0.96270 0.20120 0.09600
O 	O 	0.55740 0.51760 0.25980 -0.39300
Cd	Cd	0.92948 0.74849 0.06894 1.24800
Na	Na	0.96733 0.87583 0.13453 0.59500
O 	O 	0.81310 0.72690 0.37590 -0.36900
O 	O 	0.99860 0.77770 0.14400 -0.39800
O 	O 	0.78550 0.82060 0.40420 -0.41600
O 	O 	0.86370 0.73770 0.13190 -0.30100
O 	O 	0.12520 0.51170 0.25660 -0.35900
O 	O 	0.89730 0.83070 0.11270 -0.40500
O 	O 	0.73720 0.99670 0.26000 -0.37300
O 	O 	0.97140 0.69210 0.11960 -0.49200
C 	C 	0.84820 0.88700 0.34970 0.00300
H 	H 	0.82990 0.90890 0.37180 0.05600
C 	C 	0.99660 0.71750 0.14260 0.54100
C 	C 	0.81350 0.78470 0.37670 0.31600
C 	C 	0.87350 0.78730 0.31280 -0.00500
H 	H 	0.87250 0.74320 0.31080 0.05400
C 	C 	0.09010 0.61130 0.23320 0.03500
O 	O 	0.96050 0.89260 0.22070 -0.35000
C 	C 	0.84510 0.82190 0.34650 -0.07500
O 	O 	0.14960 0.59900 0.28750 -0.35600
C 	C 	0.87850 0.92050 0.32000 -0.05300
H 	H 	0.88110 0.96450 0.32200 0.07700
C 	C 	0.03000 0.61780 0.16920 0.11200
H 	H 	0.01120 0.59660 0.14720 0.01300
C 	C 	0.86840 0.79810 0.13710 0.27700
C 	C 	0.90480 0.88540 0.28720 -0.01400
C 	C 	0.93960 0.92670 0.25580 0.28900
C 	C 	0.90320 0.82360 0.28250 -0.04700
H 	H 	0.92140 0.80340 0.25940 0.06900
C 	C 	0.77610 0.90130 0.22930 -0.02500
C 	C 	0.74170 0.94280 0.26380 0.32100
C 	C 	0.09090 0.67690 0.23120 -0.15400
H 	H 	0.11050 0.70120 0.25040 0.10800
C 	C 	0.02950 0.68110 0.17280 -0.26100
C 	C 	0.77810 0.83010 0.22990 -0.03400
H 	H 	0.76020 0.80720 0.25170 0.05600
C 	C 	0.83710 0.83300 0.17050 -0.04900
C 	C 	0.12510 0.57110 0.26180 0.31300
C 	C 	0.83690 0.89800 0.17340 -0.01800
H 	H 	0.85710 0.92170 0.15450 0.06000
C 	C 	0.80520 0.80000 0.19920 -0.01900
H 	H 	0.80320 0.75600 0.19650 0.05800
C 	C 	0.80660 0.92900 0.20450 -0.03400
H 	H 	0.80890 0.97300 0.20730 0.06800
O 	O 	0.72370 0.90540 0.29680 -0.37100
C 	C 	0.06030 0.70420 0.19830 0.16800
H 	H 	0.06360 0.74800 0.19480 -0.00900
C 	C 	0.06260 0.58150 0.20250 -0.12100
H 	H 	0.06310 0.53730 0.20120 0.09500
O 	O 	0.94260 0.98240 0.25980 -0.37700
Cd	Cd	0.92948 0.24849 0.56894 1.24800
Na	Na	0.96733 0.37583 0.63453 0.59500
O 	O 	0.81310 0.22690 0.87590 -0.37000
O 	O 	0.99860 0.27770 0.64400 -0.39800
O 	O 	0.78550 0.32060 0.90420 -0.41700
O 	O 	0.86370 0.23770 0.63190 -0.30200
O 	O 	0.12520 0.01170 0.75660 -0.36800
O 	O 	0.89730 0.33070 0.61270 -0.40600
O 	O 	0.73720 0.49670 0.76000 -0.38400
O 	O 	0.97140 0.19210 0.61960 -0.49400
C 	C 	0.84820 0.38700 0.84970 0.00100
H 	H 	0.82990 0.40890 0.87180 0.05400
C 	C 	0.99660 0.21750 0.64260 0.54100
C 	C 	0.81350 0.28470 0.87670 0.31600
C 	C 	0.87350 0.28730 0.81280 -0.00700
H 	H 	0.87250 0.24320 0.81080 0.05400
C 	C 	0.09010 0.11130 0.73320 0.03200
O 	O 	0.96050 0.39260 0.72070 -0.35400
C 	C 	0.84510 0.32190 0.84650 -0.07500
O 	O 	0.14960 0.09900 0.78750 -0.36000
C 	C 	0.87850 0.42050 0.82000 -0.05200
H 	H 	0.88110 0.46450 0.82200 0.07200
C 	C 	0.03000 0.11780 0.66920 0.11000
H 	H 	0.01120 0.09660 0.64720 0.01000
C 	C 	0.86840 0.29810 0.63710 0.27700
C 	C 	0.90480 0.38540 0.78720 -0.01700
C 	C 	0.93960 0.42670 0.75580 0.29000
C 	C 	0.90320 0.32360 0.78250 -0.04600
H 	H 	0.92140 0.30340 0.75940 0.06800
C 	C 	0.77610 0.40130 0.72930 -0.02900
C 	C 	0.74170 0.44280 0.76380 0.32300
C 	C 	0.09090 0.17690 0.73120 -0.15400
H 	H 	0.11050 0.20120 0.75040 0.10600
C 	C 	0.02950 0.18110 0.67280 -0.26200
C 	C 	0.77810 0.33010 0.72990 -0.03200
H 	H 	0.76020 0.30720 0.75170 0.05600
C 	C 	0.83710 0.33300 0.67050 -0.04800
C 	C 	0.12510 0.07110 0.76180 0.31400
C 	C 	0.83690 0.39800 0.67340 -0.02100
H 	H 	0.85710 0.42170 0.65450 0.05900
C 	C 	0.80520 0.30000 0.69920 -0.02000
H 	H 	0.80320 0.25600 0.69650 0.05800
C 	C 	0.80660 0.42900 0.70450 -0.03200
H 	H 	0.80890 0.47300 0.70730 0.06300
O 	O 	0.72370 0.40540 0.79680 -0.37500
C 	C 	0.06030 0.20420 0.69830 0.16700
H 	H 	0.06360 0.24800 0.69480 -0.01000
C 	C 	0.06260 0.08150 0.70250 -0.12100
H 	H 	0.06310 0.03730 0.70120 0.09000
O 	O 	0.94260 0.48240 0.75980 -0.38700
Cd	Cd	0.42948 0.74849 0.56894 1.24800
Na	Na	0.46733 0.87583 0.63453 0.59400
O 	O 	0.31310 0.72690 0.87590 -0.37000
O 	O 	0.49860 0.77770 0.64400 -0.39800
O 	O 	0.28550 0.82060 0.90420 -0.41600
O 	O 	0.36370 0.73770 0.63190 -0.30200
O 	O 	0.62520 0.51170 0.75660 -0.35900
O 	O 	0.39730 0.83070 0.61270 -0.40600
O 	O 	0.23720 0.99670 0.76000 -0.37300
O 	O 	0.47140 0.69210 0.61960 -0.48700
C 	C 	0.34820 0.88700 0.84970 0.00200
H 	H 	0.32990 0.90890 0.87180 0.05600
C 	C 	0.49660 0.71750 0.64260 0.50900
C 	C 	0.31350 0.78470 0.87670 0.31600
C 	C 	0.37350 0.78730 0.81280 -0.00700
H 	H 	0.37250 0.74320 0.81080 0.05400
C 	C 	0.59010 0.61130 0.73320 0.02100
O 	O 	0.46050 0.89260 0.72070 -0.35600
C 	C 	0.34510 0.82190 0.84650 -0.07500
O 	O 	0.64960 0.59900 0.78750 -0.35700
C 	C 	0.37850 0.92050 0.82000 -0.05200
H 	H 	0.38110 0.96450 0.82200 0.07500
C 	C 	0.53000 0.61780 0.66920 0.08700
H 	H 	0.51120 0.59660 0.64720 0.02700
C 	C 	0.36840 0.79810 0.63710 0.27800
C 	C 	0.40480 0.88540 0.78720 -0.01600
C 	C 	0.43960 0.92670 0.75580 0.29000
C 	C 	0.40320 0.82360 0.78250 -0.04700
H 	H 	0.42140 0.80340 0.75940 0.06700
C 	C 	0.27610 0.90130 0.72930 -0.02500
C 	C 	0.24170 0.94280 0.76380 0.32100
C 	C 	0.59090 0.67690 0.73120 -0.12800
H 	H 	0.61050 0.70120 0.75040 0.10000
C 	C 	0.52950 0.68110 0.67280 -0.21600
C 	C 	0.27810 0.83010 0.72990 -0.03400
H 	H 	0.26020 0.80720 0.75170 0.05600
C 	C 	0.33710 0.83300 0.67050 -0.04900
C 	C 	0.62510 0.57110 0.76180 0.31900
C 	C 	0.33690 0.89800 0.67340 -0.01800
H 	H 	0.35710 0.92170 0.65450 0.06000
C 	C 	0.30520 0.80000 0.69920 -0.01800
H 	H 	0.30320 0.75600 0.69650 0.05800
C 	C 	0.30660 0.92900 0.70450 -0.03400
H 	H 	0.30890 0.97300 0.70730 0.06800
O 	O 	0.22370 0.90540 0.79680 -0.37100
C 	C 	0.56030 0.70420 0.69830 0.13200
H 	H 	0.56360 0.74800 0.69480 0.00700
C 	C 	0.56260 0.58150 0.70250 -0.10100
H 	H 	0.56310 0.53730 0.70120 0.09100
O 	O 	0.44260 0.98240 0.75980 -0.38300
Cd	Cd	0.42948 0.24849 0.06894 1.24700
Na	Na	0.46733 0.37583 0.13453 0.59400
O 	O 	0.31310 0.22690 0.37590 -0.37000
O 	O 	0.49860 0.27770 0.14400 -0.39900
O 	O 	0.28550 0.32060 0.40420 -0.41700
O 	O 	0.36370 0.23770 0.13190 -0.30300
O 	O 	0.62520 0.01170 0.25660 -0.36800
O 	O 	0.39730 0.33070 0.11270 -0.40600
O 	O 	0.23720 0.49670 0.26000 -0.38400
O 	O 	0.47140 0.19210 0.11960 -0.48900
C 	C 	0.34820 0.38700 0.34970 -0.00000
H 	H 	0.32990 0.40890 0.37180 0.05400
C 	C 	0.49660 0.21750 0.14260 0.50900
C 	C 	0.31350 0.28470 0.37670 0.31500
C 	C 	0.37350 0.28730 0.31280 -0.00800
H 	H 	0.37250 0.24320 0.31080 0.05300
C 	C 	0.59010 0.11130 0.23320 0.01700
O 	O 	0.46050 0.39260 0.22070 -0.36000
C 	C 	0.34510 0.32190 0.34650 -0.07500
O 	O 	0.64960 0.09900 0.28750 -0.36100
C 	C 	0.37850 0.42050 0.32000 -0.05100
H 	H 	0.38110 0.46450 0.32200 0.07100
C 	C 	0.53000 0.11780 0.16920 0.08500
H 	H 	0.51120 0.09660 0.14720 0.02500
C 	C 	0.36840 0.29810 0.13710 0.27700
C 	C 	0.40480 0.38540 0.28720 -0.01900
C 	C 	0.43960 0.42670 0.25580 0.29100
C 	C 	0.40320 0.32360 0.28250 -0.04500
H 	H 	0.42140 0.30340 0.25940 0.06600
C 	C 	0.27610 0.40130 0.22930 -0.02900
C 	C 	0.24170 0.44280 0.26380 0.32200
C 	C 	0.59090 0.17690 0.23120 -0.12700
H 	H 	0.61050 0.20120 0.25040 0.09800
C 	C 	0.52950 0.18110 0.17280 -0.21600
C 	C 	0.27810 0.33010 0.22990 -0.03200
H 	H 	0.26020 0.30720 0.25170 0.05600
C 	C 	0.33710 0.33300 0.17050 -0.04800
C 	C 	0.62510 0.07110 0.26180 0.32100
C 	C 	0.33690 0.39800 0.17340 -0.02100
H 	H 	0.35710 0.42170 0.15450 0.05900
C 	C 	0.30520 0.30000 0.19920 -0.02000
H 	H 	0.30320 0.25600 0.19650 0.05800
C 	C 	0.30660 0.42900 0.20450 -0.03100
H 	H 	0.30890 0.47300 0.20730 0.06300
O 	O 	0.22370 0.40540 0.29680 -0.37500
C 	C 	0.56030 0.20420 0.19830 0.13100
H 	H 	0.56360 0.24800 0.19480 0.00600
C 	C 	0.56260 0.08150 0.20250 -0.10100
H 	H 	0.56310 0.03730 0.20120 0.08600
O 	O 	0.44260 0.48240 0.25980 -0.39300
Cd	Cd	0.32052 0.99849 0.31894 1.25400
Na	Na	0.28267 0.12583 0.38453 0.59400
O 	O 	0.43690 0.97690 0.62590 -0.34500
O 	O 	0.25140 0.02770 0.39400 -0.42100
O 	O 	0.46450 0.07060 0.65420 -0.41300
O 	O 	0.38630 0.98770 0.38190 -0.28000
O 	O 	0.12480 0.76170 0.50660 -0.35900
O 	O 	0.35270 0.08070 0.36270 -0.40500
O 	O 	0.51280 0.24670 0.51000 -0.38500
O 	O 	0.27860 0.94210 0.36960 -0.49300
C 	C 	0.40180 0.13700 0.59970 -0.03300
H 	H 	0.42010 0.15890 0.62180 0.06400
C 	C 	0.25340 0.96750 0.39260 0.54100
C 	C 	0.43650 0.03470 0.62670 0.27500
C 	C 	0.37650 0.03730 0.56280 -0.07900
H 	H 	0.37750 0.99320 0.56080 0.09200
C 	C 	0.15990 0.86130 0.48320 0.02600
O 	O 	0.28950 0.14260 0.47070 -0.36300
C 	C 	0.40490 0.07190 0.59650 -0.03700
O 	O 	0.10040 0.84900 0.53750 -0.35700
C 	C 	0.37150 0.17050 0.57000 -0.02300
H 	H 	0.36890 0.21450 0.57200 0.06100
C 	C 	0.22000 0.86780 0.41920 0.09700
H 	H 	0.23880 0.84660 0.39720 0.02500
C 	C 	0.38160 0.04810 0.38710 0.25100
C 	C 	0.34520 0.13540 0.53720 -0.04700
C 	C 	0.31040 0.17670 0.50580 0.29900
C 	C 	0.34680 0.07360 0.53250 -0.00100
H 	H 	0.32860 0.05340 0.50940 0.04600
C 	C 	0.47390 0.15130 0.47930 -0.03500
C 	C 	0.50830 0.19280 0.51380 0.32400
C 	C 	0.15910 0.92690 0.48120 -0.13500
H 	H 	0.13950 0.95120 0.50040 0.10500
C 	C 	0.22050 0.93110 0.42280 -0.22900
C 	C 	0.47190 0.08010 0.47990 -0.02700
H 	H 	0.48980 0.05720 0.50170 0.04900
C 	C 	0.41290 0.08300 0.42050 -0.04000
C 	C 	0.12490 0.82110 0.51180 0.31700
C 	C 	0.41310 0.14800 0.42340 -0.03000
H 	H 	0.39290 0.17170 0.40450 0.06200
C 	C 	0.44480 0.05000 0.44920 -0.03000
H 	H 	0.44680 0.00600 0.44650 0.05400
C 	C 	0.44340 0.17900 0.45450 -0.02500
H 	H 	0.44110 0.22300 0.45730 0.06100
O 	O 	0.52630 0.15540 0.54680 -0.37600
C 	C 	0.18970 0.95420 0.44830 0.14600
H 	H 	0.18640 0.99800 0.44480 0.00800
C 	C 	0.18740 0.83150 0.45250 -0.10700
H 	H 	0.18690 0.78730 0.45120 0.09300
O 	O 	0.30740 0.23240 0.50980 -0.39500
Cd	Cd	0.32052 0.49849 0.81894 1.24700
Na	Na	0.28267 0.62583 0.88453 0.59400
O 	O 	0.43690 0.47690 0.12590 -0.37000
O 	O 	0.25140 0.52770 0.89400 -0.39800
O 	O 	0.46450 0.57060 0.15420 -0.41700
O 	O 	0.38630 0.48770 0.88190 -0.30200
O 	O 	0.12480 0.26170 0.00660 -0.36100
O 	O 	0.35270 0.58070 0.86270 -0.40600
O 	O 	0.51280 0.74670 0.01000 -0.38300
O 	O 	0.27860 0.44210 0.86960 -0.48800
C 	C 	0.40180 0.63700 0.09970 0.00000
H 	H 	0.42010 0.65890 0.12180 0.05400
C 	C 	0.25340 0.46750 0.89260 0.50900
C 	C 	0.43650 0.53470 0.12670 0.31500
C 	C 	0.37650 0.53730 0.06280 -0.00800
H 	H 	0.37750 0.49320 0.06080 0.05400
C 	C 	0.15990 0.36130 0.98320 0.01900
O 	O 	0.28950 0.64260 0.97070 -0.36000
C 	C 	0.40490 0.57190 0.09650 -0.07400
O 	O 	0.10040 0.34900 0.03750 -0.36000
C 	C 	0.37150 0.67050 0.07000 -0.05100
H 	H 	0.36890 0.71450 0.07200 0.07200
C 	C 	0.22000 0.36780 0.91920 0.08700
H 	H 	0.23880 0.34660 0.89720 0.02700
C 	C 	0.38160 0.54810 0.88710 0.27700
C 	C 	0.34520 0.63540 0.03720 -0.01900
C 	C 	0.31040 0.67670 0.00580 0.29100
C 	C 	0.34680 0.57360 0.03250 -0.04500
H 	H 	0.32860 0.55340 0.00940 0.06600
C 	C 	0.47390 0.65130 0.97930 -0.02900
C 	C 	0.50830 0.69280 0.01380 0.32200
C 	C 	0.15910 0.42690 0.98120 -0.12800
H 	H 	0.13950 0.45120 0.00040 0.09800
C 	C 	0.22050 0.43110 0.92280 -0.21600
C 	C 	0.47190 0.58010 0.97990 -0.03300
H 	H 	0.48980 0.55720 0.00170 0.05600
C 	C 	0.41290 0.58300 0.92050 -0.04800
C 	C 	0.12490 0.32110 0.01180 0.32000
C 	C 	0.41310 0.64800 0.92340 -0.02100
H 	H 	0.39290 0.67170 0.90450 0.05900
C 	C 	0.44480 0.55000 0.94920 -0.02000
H 	H 	0.44680 0.50600 0.94650 0.05800
C 	C 	0.44340 0.67900 0.95450 -0.03200
H 	H 	0.44110 0.72300 0.95730 0.06400
O 	O 	0.52630 0.65540 0.04680 -0.37500
C 	C 	0.18970 0.45420 0.94830 0.13200
H 	H 	0.18640 0.49800 0.94480 0.00500
C 	C 	0.18740 0.33150 0.95250 -0.10100
H 	H 	0.18690 0.28730 0.95120 0.09000
O 	O 	0.30740 0.73240 0.00980 -0.39100
Cd	Cd	0.82052 0.99849 0.81894 1.25400
Na	Na	0.78267 0.12583 0.88453 0.59400
O 	O 	0.93690 0.97690 0.12590 -0.34100
O 	O 	0.75140 0.02770 0.89400 -0.42000
O 	O 	0.96450 0.07060 0.15420 -0.40500
O 	O 	0.88630 0.98770 0.88190 -0.28000
O 	O 	0.62480 0.76170 0.00660 -0.35800
O 	O 	0.85270 0.08070 0.86270 -0.40600
O 	O 	0.01280 0.24670 0.01000 -0.38600
O 	O 	0.77860 0.94210 0.86960 -0.49200
C 	C 	0.90180 0.13700 0.09970 -0.03300
H 	H 	0.92010 0.15890 0.12180 0.06700
C 	C 	0.75340 0.96750 0.89260 0.54100
C 	C 	0.93650 0.03470 0.12670 0.27500
C 	C 	0.87650 0.03730 0.06280 -0.07800
H 	H 	0.87750 0.99320 0.06080 0.09200
C 	C 	0.65990 0.86130 0.98320 0.02800
O 	O 	0.78950 0.14260 0.97070 -0.36300
C 	C 	0.90490 0.07190 0.09650 -0.03600
O 	O 	0.60040 0.84900 0.03750 -0.35400
C 	C 	0.87150 0.17050 0.07000 -0.02200
H 	H 	0.86890 0.21450 0.07200 0.06200
C 	C 	0.72000 0.86780 0.91920 0.09800
H 	H 	0.73880 0.84660 0.89720 0.02500
C 	C 	0.88160 0.04810 0.88710 0.25600
C 	C 	0.84520 0.13540 0.03720 -0.04700
C 	C 	0.81040 0.17670 0.00580 0.29900
C 	C 	0.84680 0.07360 0.03250 -0.00100
H 	H 	0.82860 0.05340 0.00940 0.04700
C 	C 	0.97390 0.15130 0.97930 -0.00700
C 	C 	0.00830 0.19280 0.01380 0.30500
C 	C 	0.65910 0.92690 0.98120 -0.13600
H 	H 	0.63950 0.95120 0.00040 0.10700
C 	C 	0.72050 0.93110 0.92280 -0.23000
C 	C 	0.97190 0.08010 0.97990 -0.04200
H 	H 	0.98980 0.05720 0.00170 0.06100
C 	C 	0.91290 0.08300 0.92050 -0.04900
C 	C 	0.62490 0.82110 0.01180 0.31700
C 	C 	0.91310 0.14800 0.92340 -0.01400
H 	H 	0.89290 0.17170 0.90450 0.05700
C 	C 	0.94480 0.05000 0.94920 -0.01500
H 	H 	0.94680 0.00600 0.94650 0.05300
C 	C 	0.94340 0.17900 0.95450 -0.04500
H 	H 	0.94110 0.22300 0.95730 0.07100
O 	O 	0.02630 0.15540 0.04680 -0.37800
C 	C 	0.68970 0.95420 0.94830 0.14700
H 	H 	0.68640 0.99800 0.94480 0.00800
C 	C 	0.68740 0.83150 0.95250 -0.10700
H 	H 	0.68690 0.78730 0.95120 0.09300
O 	O 	0.80740 0.23240 0.00980 -0.39500
Cd	Cd	0.82052 0.49849 0.31894 1.24800
Na	Na	0.78267 0.62583 0.38453 0.59400
O 	O 	0.93690 0.47690 0.62590 -0.36600
O 	O 	0.75140 0.52770 0.39400 -0.39800
O 	O 	0.96450 0.57060 0.65420 -0.40900
O 	O 	0.88630 0.48770 0.38190 -0.30100
O 	O 	0.62480 0.26170 0.50660 -0.36000
O 	O 	0.85270 0.58070 0.36270 -0.40700
O 	O 	0.01280 0.74670 0.51000 -0.38400
O 	O 	0.77860 0.44210 0.36960 -0.48700
C 	C 	0.90180 0.63700 0.59970 -0.00100
H 	H 	0.92010 0.65890 0.62180 0.05700
C 	C 	0.75340 0.46750 0.39260 0.50900
C 	C 	0.93650 0.53470 0.62670 0.31500
C 	C 	0.87650 0.53730 0.56280 -0.00900
H 	H 	0.87750 0.49320 0.56080 0.05500
C 	C 	0.65990 0.36130 0.48320 0.02000
O 	O 	0.78950 0.64260 0.47070 -0.36000
C 	C 	0.90490 0.57190 0.59650 -0.07200
O 	O 	0.60040 0.34900 0.53750 -0.35700
C 	C 	0.87150 0.67050 0.57000 -0.05000
H 	H 	0.86890 0.71450 0.57200 0.07200
C 	C 	0.72000 0.36780 0.41920 0.08700
H 	H 	0.73880 0.34660 0.39720 0.02700
C 	C 	0.88160 0.54810 0.38710 0.28100
C 	C 	0.84520 0.63540 0.53720 -0.01900
C 	C 	0.81040 0.67670 0.50580 0.29100
C 	C 	0.84680 0.57360 0.53250 -0.04400
H 	H 	0.82860 0.55340 0.50940 0.06600
C 	C 	0.97390 0.65130 0.47930 -0.00200
C 	C 	0.00830 0.69280 0.51380 0.30400
C 	C 	0.65910 0.42690 0.48120 -0.12800
H 	H 	0.63950 0.45120 0.50040 0.09900
C 	C 	0.72050 0.43110 0.42280 -0.21600
C 	C 	0.97190 0.58010 0.47990 -0.04600
H 	H 	0.98980 0.55720 0.50170 0.06700
C 	C 	0.91290 0.58300 0.42050 -0.05700
C 	C 	0.62490 0.32110 0.51180 0.31900
C 	C 	0.91310 0.64800 0.42340 -0.00500
H 	H 	0.89290 0.67170 0.40450 0.05500
C 	C 	0.94480 0.55000 0.44920 -0.00600
H 	H 	0.94680 0.50600 0.44650 0.05700
C 	C 	0.94340 0.67900 0.45450 -0.05200
H 	H 	0.94110 0.72300 0.45730 0.07500
O 	O 	0.02630 0.65540 0.54680 -0.37700
C 	C 	0.68970 0.45420 0.44830 0.13200
H 	H 	0.68640 0.49800 0.44480 0.00600
C 	C 	0.68740 0.33150 0.45250 -0.10100
H 	H 	0.68690 0.28730 0.45120 0.09000
O 	O 	0.80740 0.73240 0.50980 -0.39100
Cd	Cd	0.17948 0.50151 0.31894 1.24700
Na	Na	0.21733 0.37417 0.38453 0.59400
O 	O 	0.06310 0.52310 0.62590 -0.37300
O 	O 	0.24860 0.47230 0.39400 -0.39800
O 	O 	0.03550 0.42940 0.65420 -0.42400
O 	O 	0.11370 0.51230 0.38190 -0.30300
O 	O 	0.37520 0.73830 0.50660 -0.35800
O 	O 	0.14730 0.41930 0.36270 -0.40600
O 	O 	0.98720 0.25330 0.51000 -0.38400
O 	O 	0.22140 0.55790 0.36960 -0.48800
C 	C 	0.09820 0.36300 0.59970 -0.00000
H 	H 	0.07990 0.34110 0.62180 0.05100
C 	C 	0.24660 0.53250 0.39260 0.51000
C 	C 	0.06350 0.46530 0.62670 0.31600
C 	C 	0.12350 0.46270 0.56280 -0.00800
H 	H 	0.12250 0.50680 0.56080 0.05300
C 	C 	0.34010 0.63870 0.48320 0.02100
O 	O 	0.21050 0.35740 0.47070 -0.36000
C 	C 	0.09510 0.42810 0.59650 -0.07600
O 	O 	0.39960 0.65100 0.53750 -0.35700
C 	C 	0.12850 0.32950 0.57000 -0.05200
H 	H 	0.13110 0.28550 0.57200 0.06900
C 	C 	0.28000 0.63220 0.41920 0.08800
H 	H 	0.26120 0.65340 0.39720 0.02700
C 	C 	0.11840 0.45190 0.38710 0.27300
C 	C 	0.15480 0.36460 0.53720 -0.02000
C 	C 	0.18960 0.32330 0.50580 0.29100
C 	C 	0.15320 0.42640 0.53250 -0.04600
H 	H 	0.17140 0.44660 0.50940 0.06600
C 	C 	0.02610 0.34870 0.47930 -0.05800
C 	C 	0.99170 0.30720 0.51380 0.34200
C 	C 	0.34090 0.57310 0.48120 -0.12800
H 	H 	0.36050 0.54880 0.50040 0.10000
C 	C 	0.27950 0.56890 0.42280 -0.21700
C 	C 	0.02810 0.41990 0.47990 -0.01700
H 	H 	0.01020 0.44280 0.50170 0.04400
C 	C 	0.08710 0.41700 0.42050 -0.03900
C 	C 	0.37510 0.67890 0.51180 0.31900
C 	C 	0.08690 0.35200 0.42340 -0.03800
H 	H 	0.10710 0.32830 0.40450 0.06400
C 	C 	0.05520 0.45000 0.44920 -0.03600
H 	H 	0.05320 0.49400 0.44650 0.06100
C 	C 	0.05660 0.32100 0.45450 -0.01000
H 	H 	0.05890 0.27700 0.45730 0.05100
O 	O 	0.97370 0.34460 0.54680 -0.37300
C 	C 	0.31030 0.54580 0.44830 0.13300
H 	H 	0.31360 0.50200 0.44480 0.00500
C 	C 	0.31260 0.66850 0.45250 -0.10200
H 	H 	0.31310 0.71270 0.45120 0.09100
O 	O 	0.19260 0.26760 0.50980 -0.39500
Cd	Cd	0.17948 0.00151 0.81894 1.24100
Na	Na	0.21733 0.87417 0.88453 0.59400
O 	O 	0.06310 0.02310 0.12590 -0.39700
O 	O 	0.24860 0.97230 0.89400 -0.37600
O 	O 	0.03550 0.92940 0.15420 -0.42600
O 	O 	0.11370 0.01230 0.88190 -0.32400
O 	O 	0.37520 0.23830 0.00660 -0.36000
O 	O 	0.14730 0.91930 0.86270 -0.40700
O 	O 	0.98720 0.75330 0.01000 -0.38300
O 	O 	0.22140 0.05790 0.86960 -0.48300
C 	C 	0.09820 0.86300 0.09970 0.03200
H 	H 	0.07990 0.84110 0.12180 0.04100
C 	C 	0.24660 0.03250 0.89260 0.47800
C 	C 	0.06350 0.96530 0.12670 0.35600
C 	C 	0.12350 0.96270 0.06280 0.06300
H 	H 	0.12250 0.00680 0.06080 0.01500
C 	C 	0.34010 0.13870 0.98320 0.01400
O 	O 	0.21050 0.85740 0.97070 -0.35700
C 	C 	0.09510 0.92810 0.09650 -0.11300
O 	O 	0.39960 0.15100 0.03750 -0.36100
C 	C 	0.12850 0.82950 0.07000 -0.08000
H 	H 	0.13110 0.78550 0.07200 0.08000
C 	C 	0.28000 0.13220 0.91920 0.07700
H 	H 	0.26120 0.15340 0.89720 0.03000
C 	C 	0.11840 0.95190 0.88710 0.29800
C 	C 	0.15480 0.86460 0.03720 0.00900
C 	C 	0.18960 0.82330 0.00580 0.28300
C 	C 	0.15320 0.92640 0.03250 -0.09000
H 	H 	0.17140 0.94660 0.00940 0.08700
C 	C 	0.02610 0.84870 0.97930 -0.05100
C 	C 	0.99170 0.80720 0.01380 0.34000
C 	C 	0.34090 0.07310 0.98120 -0.12200
H 	H 	0.36050 0.04880 0.00040 0.09300
C 	C 	0.27950 0.06890 0.92280 -0.20400
C 	C 	0.02810 0.91990 0.97990 -0.02300
H 	H 	0.01020 0.94280 0.00170 0.05100
C 	C 	0.08710 0.91700 0.92050 -0.04800
C 	C 	0.37510 0.17890 0.01180 0.32100
C 	C 	0.08690 0.85200 0.92340 -0.02900
H 	H 	0.10710 0.82830 0.90450 0.06100
C 	C 	0.05520 0.95000 0.94920 -0.02500
H 	H 	0.05320 0.99400 0.94650 0.06500
C 	C 	0.05660 0.82100 0.95450 -0.01700
H 	H 	0.05890 0.77700 0.95730 0.05500
O 	O 	0.97370 0.84460 0.04680 -0.37200
C 	C 	0.31030 0.04580 0.94830 0.11900
H 	H 	0.31360 0.00200 0.94480 0.00300
C 	C 	0.31260 0.16850 0.95250 -0.09500
H 	H 	0.31310 0.21270 0.95120 0.08800
O 	O 	0.19260 0.76760 0.00980 -0.39100
Cd	Cd	0.67948 0.50151 0.81894 1.24700
Na	Na	0.71733 0.37417 0.88453 0.59400
O 	O 	0.56310 0.52310 0.12590 -0.37000
O 	O 	0.74860 0.47230 0.89400 -0.39800
O 	O 	0.53550 0.42940 0.15420 -0.41700
O 	O 	0.61370 0.51230 0.88190 -0.30200
O 	O 	0.87520 0.73830 0.00660 -0.35700
O 	O 	0.64730 0.41930 0.86270 -0.40600
O 	O 	0.48720 0.25330 0.01000 -0.38600
O 	O 	0.72140 0.55790 0.86960 -0.48700
C 	C 	0.59820 0.36300 0.09970 -0.00100
H 	H 	0.57990 0.34110 0.12180 0.05400
C 	C 	0.74660 0.53250 0.89260 0.51000
C 	C 	0.56350 0.46530 0.12670 0.31500
C 	C 	0.62350 0.46270 0.06280 -0.00900
H 	H 	0.62250 0.50680 0.06080 0.05400
C 	C 	0.84010 0.63870 0.98320 0.02200
O 	O 	0.71050 0.35740 0.97070 -0.36000
C 	C 	0.59510 0.42810 0.09650 -0.07400
O 	O 	0.89960 0.65100 0.03750 -0.35400
C 	C 	0.62850 0.32950 0.07000 -0.05000
H 	H 	0.63110 0.28550 0.07200 0.07000
C 	C 	0.78000 0.63220 0.91920 0.08900
H 	H 	0.76120 0.65340 0.89720 0.02700
C 	C 	0.61840 0.45190 0.88710 0.27700
C 	C 	0.65480 0.36460 0.03720 -0.02000
C 	C 	0.68960 0.32330 0.00580 0.29200
C 	C 	0.65320 0.42640 0.03250 -0.04400
H 	H 	0.67140 0.44660 0.00940 0.06600
C 	C 	0.52610 0.34870 0.97930 -0.03100
C 	C 	0.49170 0.30720 0.01380 0.32300
C 	C 	0.84090 0.57310 0.98120 -0.13000
H 	H 	0.86050 0.54880 0.00040 0.10200
C 	C 	0.77950 0.56890 0.92280 -0.21800
C 	C 	0.52810 0.41990 0.97990 -0.03200
H 	H 	0.51020 0.44280 0.00170 0.05600
C 	C 	0.58710 0.41700 0.92050 -0.04800
C 	C 	0.87510 0.67890 0.01180 0.31800
C 	C 	0.58690 0.35200 0.92340 -0.02200
H 	H 	0.60710 0.32830 0.90450 0.05900
C 	C 	0.55520 0.45000 0.94920 -0.02100
H 	H 	0.55320 0.49400 0.94650 0.05900
C 	C 	0.55660 0.32100 0.95450 -0.03000
H 	H 	0.55890 0.27700 0.95730 0.06200
O 	O 	0.47370 0.34460 0.04680 -0.37500
C 	C 	0.81030 0.54580 0.94830 0.13500
H 	H 	0.81360 0.50200 0.94480 0.00500
C 	C 	0.81260 0.66850 0.95250 -0.10200
H 	H 	0.81310 0.71270 0.95120 0.09200
O 	O 	0.69260 0.26760 0.00980 -0.39400
Cd	Cd	0.67948 0.00151 0.31894 1.24100
Na	Na	0.71733 0.87417 0.38453 0.59400
O 	O 	0.56310 0.02310 0.62590 -0.39400
O 	O 	0.74860 0.97230 0.39400 -0.37600
O 	O 	0.53550 0.92940 0.65420 -0.42000
O 	O 	0.61370 0.01230 0.38190 -0.32300
O 	O 	0.87520 0.23830 0.50660 -0.35900
O 	O 	0.64730 0.91930 0.36270 -0.40700
O 	O 	0.48720 0.75330 0.51000 -0.38400
O 	O 	0.72140 0.05790 0.36960 -0.48300
C 	C 	0.59820 0.86300 0.59970 0.03200
H 	H 	0.57990 0.84110 0.62180 0.04300
C 	C 	0.74660 0.03250 0.39260 0.47800
C 	C 	0.56350 0.96530 0.62670 0.35500
C 	C 	0.62350 0.96270 0.56280 0.06200
H 	H 	0.62250 0.00680 0.56080 0.01600
C 	C 	0.84010 0.13870 0.48320 0.01500
O 	O 	0.71050 0.85740 0.47070 -0.35600
C 	C 	0.59510 0.92810 0.59650 -0.11100
O 	O 	0.89960 0.15100 0.53750 -0.35800
C 	C 	0.62850 0.82950 0.57000 -0.07800
H 	H 	0.63110 0.78550 0.57200 0.08000
C 	C 	0.78000 0.13220 0.41920 0.07800
H 	H 	0.76120 0.15340 0.39720 0.03000
C 	C 	0.61840 0.95190 0.38710 0.30200
C 	C 	0.65480 0.86460 0.53720 0.00800
C 	C 	0.68960 0.82330 0.50580 0.28300
C 	C 	0.65320 0.92640 0.53250 -0.08900
H 	H 	0.67140 0.94660 0.50940 0.08600
C 	C 	0.52610 0.84870 0.47930 -0.02500
C 	C 	0.49170 0.80720 0.51380 0.32200
C 	C 	0.84090 0.07310 0.48120 -0.12200
H 	H 	0.86050 0.04880 0.50040 0.09400
C 	C 	0.77950 0.06890 0.42280 -0.20400
C 	C 	0.52810 0.91990 0.47990 -0.03600
H 	H 	0.51020 0.94280 0.50170 0.06200
C 	C 	0.58710 0.91700 0.42050 -0.05600
C 	C 	0.87510 0.17890 0.51180 0.32100
C 	C 	0.58690 0.85200 0.42340 -0.01400
H 	H 	0.60710 0.82830 0.40450 0.05700
C 	C 	0.55520 0.95000 0.44920 -0.01200
H 	H 	0.55320 0.99400 0.44650 0.06400
C 	C 	0.55660 0.82100 0.45450 -0.03700
H 	H 	0.55890 0.77700 0.45730 0.06500
O 	O 	0.47370 0.84460 0.54680 -0.37400
C 	C 	0.81030 0.04580 0.44830 0.12000
H 	H 	0.81360 0.00200 0.44480 0.00300
C 	C 	0.81260 0.16850 0.45250 -0.09600
H 	H 	0.81310 0.21270 0.45120 0.08900
O 	O 	0.69260 0.76760 0.50980 -0.39000
Cd	Cd	0.00000 0.00000 0.20471 1.21700
Cd	Cd	0.00000 0.50000 0.70471 1.22400
Cd	Cd	0.50000 0.00000 0.70471 1.22300
Cd	Cd	0.50000 0.50000 0.20471 1.22900
Cd	Cd	0.25000 0.25000 0.45471 1.22900
Cd	Cd	0.25000 0.75000 0.95471 1.22900
Cd	Cd	0.75000 0.25000 0.95471 1.22900
Cd	Cd	0.75000 0.75000 0.45471 1.22900
