data_crystal

_cell_length_a 14.37470
_cell_length_b 18.63300
_cell_length_c 23.95700
_cell_angle_alpha 90.00000
_cell_angle_beta  90.00000
_cell_angle_gamma 90.00000

_symmetry_space_group_name_	'P 1'
_symmetry_space_group_name_H-M	'P 1'

loop_
_symmetry_equiv_pos_as_xyz
  x,y,z

loop_
_atom_site_label
_atom_site_type_symbol
_atom_site_fract_x
_atom_site_fract_y
_atom_site_fract_z
_atom_site_charge
Co	Co	0.92317 0.20095 0.93164 1.15300
Co	Co	0.68467 0.82464 0.92887 1.15500
Co	Co	0.07683 0.70095 0.06836 1.15300
Co	Co	0.61975 0.26413 0.49911 1.18800
Co	Co	0.81533 0.32464 0.42887 1.15500
Co	Co	0.18467 0.82464 0.57113 1.15500
Co	Co	0.42317 0.20095 0.56836 1.15500
Co	Co	0.80086 0.31764 0.09316 1.15300
Co	Co	0.11975 0.26413 0.00089 1.18800
Co	Co	0.57683 0.70095 0.43164 1.15500
Co	Co	0.31533 0.32464 0.07113 1.15600
Co	Co	0.38025 0.76413 0.50089 1.18900
Co	Co	0.69914 0.81764 0.59316 1.15300
Co	Co	0.55697 0.71078 0.09399 1.15200
Co	Co	0.05697 0.71078 0.40601 1.15100
Co	Co	0.88025 0.76413 0.99911 1.18800
Co	Co	0.44303 0.21078 0.90601 1.15200
Co	Co	0.94303 0.21078 0.59399 1.15100
Co	Co	0.19914 0.81764 0.90684 1.15200
Co	Co	0.30086 0.31764 0.40684 1.15300
H 	H 	0.66110 0.39830 0.58850 0.10900
H 	H 	0.86330 0.17620 0.28680 0.25300
H 	H 	0.10380 0.03140 0.20380 0.21600
H 	H 	0.68840 0.05920 0.16670 0.23700
H 	H 	0.90940 0.31830 0.72130 0.23500
H 	H 	0.48030 0.19670 0.79950 0.20800
H 	H 	0.70160 0.30680 0.26870 0.04400
H 	H 	0.36900 0.09900 0.12440 0.10400
H 	H 	0.63100 0.59900 0.87560 0.10400
H 	H 	0.33890 0.89830 0.41150 0.10800
H 	H 	0.03970 0.22010 0.76880 0.04300
H 	H 	0.08610 0.05120 0.31150 0.22200
H 	H 	0.47870 0.21690 0.34170 0.11100
H 	H 	0.75240 0.80660 0.32060 0.09600
H 	H 	0.13850 0.89390 0.28000 0.22200
H 	H 	0.37830 0.43340 0.87520 0.09200
H 	H 	0.15290 0.49020 0.79250 0.20500
H 	H 	0.94970 0.97840 0.33400 0.25200
H 	H 	0.65230 0.47750 0.81090 0.23500
H 	H 	0.25920 0.30640 0.84700 0.09600
H 	H 	0.20160 0.30680 0.23130 0.04300
H 	H 	0.64600 0.10090 0.32310 0.24000
H 	H 	0.23460 0.83380 0.79920 0.20800
H 	H 	0.48920 0.46870 0.48160 0.07200
H 	H 	0.75920 0.30640 0.65300 0.09500
H 	H 	0.53970 0.22010 0.73120 0.04100
H 	H 	0.38750 0.91950 0.31830 0.23200
H 	H 	0.86900 0.09900 0.37560 0.10600
H 	H 	0.82760 0.89940 0.43320 0.14200
H 	H 	0.17240 0.39940 0.56680 0.14100
H 	H 	0.15230 0.47750 0.68910 0.23500
H 	H 	0.34710 0.99020 0.29250 0.20300
H 	H 	0.74760 0.30660 0.82060 0.09600
H 	H 	0.96900 0.45390 0.46780 0.06400
H 	H 	0.86150 0.39390 0.72000 0.22300
H 	H 	0.45080 0.98760 0.31260 0.21700
H 	H 	0.62910 0.60150 0.63670 0.08800
H 	H 	0.24590 0.56970 0.47340 0.07800
H 	H 	0.16810 0.71220 0.76930 0.25700
H 	H 	0.12190 0.91930 0.13120 0.10000
H 	H 	0.74590 0.56970 0.02660 0.07900
H 	H 	0.88330 0.62130 0.65730 0.25300
H 	H 	0.09070 0.12540 0.08700 0.11300
H 	H 	0.83190 0.21220 0.23070 0.25600
H 	H 	0.37810 0.41930 0.63120 0.09800
H 	H 	0.25240 0.80660 0.17940 0.09500
H 	H 	0.79840 0.80680 0.76870 0.04300
H 	H 	0.55030 0.47840 0.83400 0.25000
H 	H 	0.24760 0.30660 0.67940 0.09600
H 	H 	0.29350 0.53110 0.68160 0.22500
H 	H 	0.12170 0.93340 0.37520 0.09500
H 	H 	0.01970 0.69670 0.29950 0.20500
H 	H 	0.40940 0.31830 0.77870 0.23600
H 	H 	0.36150 0.39390 0.78000 0.22400
H 	H 	0.62170 0.93340 0.12480 0.09000
H 	H 	0.04920 0.48760 0.81260 0.21900
H 	H 	0.84770 0.97750 0.31090 0.23700
H 	H 	0.51970 0.69670 0.20050 0.20800
H 	H 	0.36330 0.17620 0.21320 0.25500
H 	H 	0.13670 0.67620 0.71320 0.25400
H 	H 	0.09060 0.81830 0.27870 0.23400
H 	H 	0.05030 0.47840 0.66600 0.25000
H 	H 	0.59070 0.12540 0.41300 0.11300
H 	H 	0.11670 0.12130 0.34270 0.25600
H 	H 	0.61350 0.41090 0.84340 0.26700
H 	H 	0.24080 0.80640 0.34700 0.09500
H 	H 	0.02130 0.71690 0.84170 0.11000
H 	H 	0.59060 0.81830 0.22130 0.23600
H 	H 	0.21920 0.55920 0.01850 0.06300
H 	H 	0.37090 0.10150 0.36330 0.08700
H 	H 	0.05850 0.12790 0.43520 0.13400
H 	H 	0.98920 0.46870 0.01840 0.07400
H 	H 	0.50510 0.72420 0.82420 0.10600
H 	H 	0.28080 0.05920 0.51850 0.06300
H 	H 	0.55850 0.12790 0.06480 0.13000
H 	H 	0.20650 0.03110 0.18160 0.22800
H 	H 	0.12170 0.63600 0.77000 0.24400
H 	H 	0.46030 0.72010 0.26880 0.04100
H 	H 	0.62190 0.91930 0.36880 0.09800
H 	H 	0.29840 0.80680 0.73130 0.04400
H 	H 	0.78080 0.05920 0.98150 0.06700
H 	H 	0.26540 0.33380 0.29920 0.20800
H 	H 	0.13100 0.59900 0.62440 0.10400
H 	H 	0.44970 0.97840 0.16600 0.24900
H 	H 	0.70650 0.03110 0.31840 0.22500
H 	H 	0.90930 0.62540 0.91300 0.11200
H 	H 	0.34770 0.97750 0.18910 0.23400
H 	H 	0.38330 0.62130 0.84270 0.25300
H 	H 	0.58610 0.05120 0.18850 0.21700
H 	H 	0.85400 0.60090 0.82310 0.24000
H 	H 	0.60380 0.03140 0.29620 0.21400
H 	H 	0.01080 0.96870 0.98160 0.07300
H 	H 	0.41390 0.55120 0.81150 0.21900
H 	H 	0.84710 0.99020 0.20750 0.20900
H 	H 	0.54920 0.48760 0.68740 0.21900
H 	H 	0.96030 0.72010 0.23120 0.04200
H 	H 	0.16110 0.39830 0.91150 0.11000
H 	H 	0.62170 0.63600 0.73000 0.24500
H 	H 	0.81160 0.55920 0.66670 0.23900
H 	H 	0.40930 0.62540 0.58700 0.11300
H 	H 	0.71920 0.55920 0.48150 0.06500
H 	H 	0.95080 0.98760 0.18740 0.22300
H 	H 	0.39620 0.53140 0.70380 0.21400
H 	H 	0.49490 0.22420 0.17580 0.10600
H 	H 	0.89620 0.53140 0.79620 0.21400
H 	H 	0.65290 0.49020 0.70750 0.20500
H 	H 	0.98030 0.19670 0.70050 0.20500
H 	H 	0.32760 0.89940 0.06680 0.14100
H 	H 	0.46900 0.45390 0.03220 0.06400
H 	H 	0.87830 0.13600 0.23000 0.24200
H 	H 	0.12910 0.60150 0.86330 0.08800
H 	H 	0.53100 0.95390 0.96780 0.06000
H 	H 	0.18840 0.05920 0.33330 0.24200
H 	H 	0.61250 0.41950 0.68170 0.23400
H 	H 	0.14600 0.10090 0.17690 0.24200
H 	H 	0.76540 0.33380 0.20080 0.20800
H 	H 	0.35400 0.60090 0.67690 0.24000
H 	H 	0.31160 0.55920 0.83330 0.23900
H 	H 	0.51080 0.96870 0.51840 0.07200
H 	H 	0.52130 0.71690 0.65830 0.11100
H 	H 	0.97870 0.21690 0.15830 0.10900
H 	H 	0.11250 0.41950 0.81830 0.23500
H 	H 	0.74080 0.80640 0.15300 0.09600
H 	H 	0.63850 0.89390 0.22000 0.22500
H 	H 	0.79350 0.53110 0.81840 0.22600
H 	H 	0.87830 0.43340 0.62480 0.09200
H 	H 	0.00510 0.72420 0.67580 0.10400
H 	H 	0.87810 0.41930 0.86880 0.09800
H 	H 	0.61770 0.85660 0.27730 0.23200
H 	H 	0.33190 0.21220 0.26930 0.25800
H 	H 	0.11350 0.41090 0.65660 0.26700
H 	H 	0.63670 0.67620 0.78680 0.25500
H 	H 	0.67240 0.39940 0.93320 0.14100
H 	H 	0.11770 0.85660 0.22270 0.23000
H 	H 	0.75410 0.06970 0.52660 0.07900
H 	H 	0.88650 0.91090 0.34340 0.26900
H 	H 	0.38230 0.35660 0.72270 0.23200
H 	H 	0.25410 0.06970 0.97340 0.08100
H 	H 	0.03100 0.95390 0.53220 0.06600
H 	H 	0.66810 0.71220 0.73070 0.25800
H 	H 	0.99490 0.22420 0.32420 0.10400
H 	H 	0.37830 0.13600 0.27000 0.24500
H 	H 	0.61670 0.12130 0.15730 0.25200
H 	H 	0.87090 0.10150 0.13670 0.09100
H 	H 	0.83890 0.89830 0.08850 0.11300
H 	H 	0.91390 0.55120 0.68850 0.21900
H 	H 	0.38650 0.91090 0.15660 0.26700
H 	H 	0.73460 0.83380 0.70080 0.20800
H 	H 	0.88230 0.35660 0.77730 0.23100
H 	H 	0.44150 0.62790 0.93520 0.13100
H 	H 	0.88750 0.91950 0.18170 0.23800
H 	H 	0.94150 0.62790 0.56480 0.13100
C 	C 	0.37790 0.18210 0.25200 -0.81300
C 	C 	0.13980 0.28320 0.13031 0.33300
C 	C 	0.98650 0.61016 0.01274 0.30300
C 	C 	0.32660 0.09308 0.44317 -0.02200
C 	C 	0.46070 0.54750 0.99177 0.02800
C 	C 	0.66490 0.44720 0.58084 -0.19500
C 	C 	0.22810 0.29540 0.81401 -0.21000
C 	C 	0.01350 0.11016 0.98726 0.30500
C 	C 	0.42540 0.43110 0.95465 -0.01400
C 	C 	0.58420 0.07680 0.42093 -0.20700
C 	C 	0.15380 0.56820 0.59710 -0.23000
C 	C 	0.40350 0.74390 0.26733 -0.05000
C 	C 	0.36420 0.76160 0.21613 -0.04000
C 	C 	0.56430 0.93130 0.44551 0.00100
C 	C 	0.77870 0.05080 0.49388 -0.09500
C 	C 	0.11120 0.47100 0.81997 -0.71400
C 	C 	0.64300 0.26240 0.68345 -0.02000
C 	C 	0.61120 0.47100 0.68003 -0.71300
C 	C 	0.97200 0.21640 0.24222 0.30100
C 	C 	0.60210 0.95360 0.39443 -0.20500
C 	C 	0.47980 0.73460 0.78939 -0.23700
C 	C 	0.14490 0.04940 0.17543 -0.74800
C 	C 	0.60660 0.26850 0.21379 -0.02500
C 	C 	0.04600 0.97460 0.49806 -0.07000
C 	C 	0.16490 0.44720 0.91916 -0.19600
C 	C 	0.67340 0.59308 0.55683 -0.01900
C 	C 	0.69440 0.46997 0.52754 -0.00400
C 	C 	0.17830 0.67240 0.95590 0.35900
C 	C 	0.84200 0.78880 0.66210 0.34100
C 	C 	0.04700 0.85320 0.04310 0.32700
C 	C 	0.87790 0.18210 0.24800 -0.80600
C 	C 	0.07710 0.85200 0.46148 0.33900
C 	C 	0.08420 0.07680 0.07907 -0.21100
C 	C 	0.22800 0.41720 0.01350 0.30500
C 	C 	0.71170 0.47710 0.98737 0.05200
C 	C 	0.90270 0.76570 0.81409 -0.01100
C 	C 	0.78830 0.97710 0.48737 0.05600
C 	C 	0.91260 0.74220 0.33656 0.33700
C 	C 	0.32360 0.94880 0.06229 -0.24400
C 	C 	0.69900 0.54342 0.51628 -0.04300
C 	C 	0.10660 0.26850 0.28621 -0.02800
C 	C 	0.89930 0.46230 0.59577 -0.19700
C 	C 	0.96340 0.48282 0.98452 -0.06700
C 	C 	0.41580 0.57680 0.57907 -0.20700
C 	C 	0.95400 0.47460 0.50194 -0.06000
C 	C 	0.03660 0.98282 0.01548 -0.07000
C 	C 	0.07460 0.93110 0.45465 -0.00800
C 	C 	0.19350 0.59640 0.54951 0.01800
C 	C 	0.65380 0.56820 0.90290 -0.23000
C 	C 	0.59730 0.26570 0.31409 -0.01000
C 	C 	0.80650 0.09640 0.45049 0.02100
C 	C 	0.11270 0.46230 0.65908 -0.80200
C 	C 	0.13580 0.26160 0.71613 -0.03800
C 	C 	0.73060 0.81290 0.23750 0.25100
C 	C 	0.35460 0.06840 0.39059 -0.18300
C 	C 	0.51040 0.23060 0.30954 -0.24500
C 	C 	0.30100 0.04342 0.48372 -0.03800
C 	C 	0.09650 0.24390 0.76733 -0.05200
C 	C 	0.06430 0.93130 0.05449 0.00600
C 	C 	0.72810 0.29540 0.68599 -0.20900
C 	C 	0.63980 0.28320 0.36969 0.33200
C 	C 	0.63560 0.84870 0.23917 -0.74000
C 	C 	0.74360 0.43000 0.03434 0.26300
C 	C 	0.86020 0.78320 0.86969 0.33300
C 	C 	0.27200 0.91720 0.51350 0.30800
C 	C 	0.58740 0.24220 0.83656 0.33800
C 	C 	0.85460 0.06840 0.10941 -0.19800
C 	C 	0.38730 0.96230 0.15908 -0.80100
C 	C 	0.22130 0.55080 0.50612 -0.09100
C 	C 	0.27840 0.79540 0.21390 -0.19900
C 	C 	0.06390 0.07860 0.44002 -0.22200
C 	C 	0.48650 0.61016 0.48726 0.29900
C 	C 	0.84620 0.06820 0.40290 -0.23500
C 	C 	0.52020 0.23460 0.21061 -0.23700
C 	C 	0.90420 0.53650 0.60344 0.27400
C 	C 	0.69350 0.59640 0.95049 0.01900
C 	C 	0.14300 0.26240 0.81655 -0.01900
C 	C 	0.85700 0.76240 0.18345 -0.01900
C 	C 	0.59580 0.03650 0.10344 0.27000
C 	C 	0.43570 0.43130 0.55449 0.00100
C 	C 	0.45210 0.55507 0.52760 0.01200
C 	C 	0.64490 0.04940 0.32457 -0.74000
C 	C 	0.23060 0.81290 0.26250 0.24800
C 	C 	0.14420 0.28390 0.23381 -0.05900
C 	C 	0.77200 0.91720 0.98650 0.30100
C 	C 	0.08740 0.24220 0.66344 0.33700
C 	C 	0.43610 0.57860 0.94002 -0.21500
C 	C 	0.62210 0.68210 0.74800 -0.81200
C 	C 	0.98960 0.73060 0.80954 -0.24400
C 	C 	0.35850 0.99590 0.37825 0.24900
C 	C 	0.78830 0.17540 0.45657 0.33000
C 	C 	0.85510 0.54940 0.82457 -0.74100
C 	C 	0.17340 0.59308 0.94317 -0.02000
C 	C 	0.93610 0.57860 0.55998 -0.21500
C 	C 	0.83510 0.94720 0.08084 -0.20300
C 	C 	0.60070 0.96230 0.09577 -0.19200
C 	C 	0.57460 0.93110 0.04535 -0.01800
C 	C 	0.95300 0.35320 0.95690 0.32900
C 	C 	0.26940 0.31290 0.76250 0.25100
C 	C 	0.82170 0.17240 0.04410 0.35600
C 	C 	0.67830 0.67240 0.54410 0.35700
C 	C 	0.53660 0.98282 0.48452 -0.06300
C 	C 	0.12210 0.68210 0.75200 -0.80900
C 	C 	0.36440 0.34870 0.76083 -0.74000
C 	C 	0.35580 0.78390 0.73381 -0.06100
C 	C 	0.72130 0.55080 0.99388 -0.09400
C 	C 	0.22160 0.29540 0.71390 -0.20200
C 	C 	0.77190 0.79540 0.18599 -0.21000
C 	C 	0.91580 0.57680 0.92093 -0.20700
C 	C 	0.48960 0.73060 0.69046 -0.24500
C 	C 	0.24360 0.43000 0.46566 0.26300
C 	C 	0.17640 0.44880 0.56229 -0.24400
C 	C 	0.61270 0.46230 0.84092 -0.80200
C 	C 	0.40070 0.74268 0.37166 0.33300
C 	C 	0.12440 0.07020 0.34082 -0.76300
C 	C 	0.72160 0.29540 0.78610 -0.20000
C 	C 	0.64540 0.56840 0.60941 -0.18800
C 	C 	0.51350 0.11016 0.51274 0.29900
C 	C 	0.28830 0.17540 0.04343 0.33100
C 	C 	0.35270 0.99400 0.10491 0.31300
C 	C 	0.63580 0.26160 0.78387 -0.04000
C 	C 	0.92290 0.35200 0.53852 0.34100
C 	C 	0.80560 0.96997 0.02754 0.00600
C 	C 	0.88730 0.96230 0.34092 -0.80800
C 	C 	0.10070 0.96230 0.40423 -0.20700
C 	C 	0.01040 0.23060 0.19046 -0.24100
C 	C 	0.85270 0.99400 0.39509 0.31900
C 	C 	0.27190 0.79540 0.31401 -0.20800
C 	C 	0.89790 0.45360 0.89443 -0.20600
C 	C 	0.09580 0.03650 0.39656 0.28400
C 	C 	0.95210 0.55507 0.97240 0.01000
C 	C 	0.42290 0.35200 0.96148 0.34200
C 	C 	0.50410 0.09430 0.96214 0.28600
C 	C 	0.72800 0.41720 0.48650 0.30700
C 	C 	0.62440 0.07020 0.15918 -0.74700
C 	C 	0.76940 0.31290 0.73750 0.24900
C 	C 	0.15800 0.28880 0.33790 0.34100
C 	C 	0.38880 0.97100 0.31997 -0.70700
C 	C 	0.75640 0.93000 0.53434 0.26200
C 	C 	0.59930 0.24268 0.62834 0.33300
C 	C 	0.97980 0.73460 0.71061 -0.23400
C 	C 	0.21170 0.47710 0.51263 0.05200
C 	C 	0.93570 0.43130 0.94551 0.00300
C 	C 	0.02800 0.71640 0.75778 0.30300
C 	C 	0.39930 0.46230 0.90423 -0.19700
C 	C 	0.85850 0.99590 0.12175 0.26500
C 	C 	0.04790 0.05507 0.02760 0.01300
C 	C 	0.34620 0.06820 0.09710 -0.22900
C 	C 	0.52800 0.71640 0.74222 0.30600
C 	C 	0.77840 0.79540 0.28610 -0.20200
C 	C 	0.96070 0.54750 0.50823 0.02800
C 	C 	0.56390 0.07860 0.05998 -0.21100
C 	C 	0.90070 0.74268 0.12834 0.33200
C 	C 	0.41260 0.74220 0.16344 0.33900
C 	C 	0.38920 0.52560 0.61872 0.27700
C 	C 	0.37560 0.57020 0.84082 -0.75200
C 	C 	0.54700 0.85320 0.45690 0.33300
C 	C 	0.30560 0.96997 0.47246 -0.00900
C 	C 	0.39340 0.76850 0.78621 -0.02500
C 	C 	0.45300 0.35320 0.54310 0.33300
C 	C 	0.89340 0.76850 0.71379 -0.02600
C 	C 	0.82360 0.94880 0.43771 -0.24700
C 	C 	0.32170 0.17240 0.45590 0.35800
C 	C 	0.34200 0.78880 0.83790 0.34000
C 	C 	0.71170 0.67540 0.95657 0.33100
C 	C 	0.19900 0.54342 0.98372 -0.04100
C 	C 	0.82660 0.09308 0.05683 -0.01400
C 	C 	0.64730 0.49400 0.89509 0.31400
C 	C 	0.33510 0.94720 0.41916 -0.19100
C 	C 	0.67640 0.44880 0.93771 -0.24400
C 	C 	0.64420 0.28390 0.26619 -0.06100
C 	C 	0.25640 0.93000 0.96566 0.26200
C 	C 	0.14150 0.49590 0.87825 0.25500
C 	C 	0.09730 0.26570 0.18591 -0.01200
C 	C 	0.40270 0.76570 0.68591 -0.01000
C 	C 	0.53930 0.04750 0.00823 0.02300
C 	C 	0.65800 0.28880 0.16210 0.34100
C 	C 	0.35510 0.54940 0.67543 -0.74100
C 	C 	0.03930 0.04750 0.49177 0.03500
C 	C 	0.80100 0.04342 0.01628 -0.05200
C 	C 	0.45400 0.47460 0.99806 -0.06000
C 	C 	0.92540 0.43110 0.54535 -0.01400
C 	C 	0.13560 0.84870 0.26083 -0.73400
C 	C 	0.00410 0.09430 0.53786 0.28600
C 	C 	0.14540 0.56840 0.89059 -0.18800
C 	C 	0.10210 0.95360 0.10557 -0.21300
C 	C 	0.57710 0.85200 0.03852 0.34400
C 	C 	0.40420 0.53650 0.89656 0.27400
C 	C 	0.47200 0.21640 0.25778 0.30600
C 	C 	0.85580 0.78390 0.76619 -0.06000
C 	C 	0.02020 0.23460 0.28939 -0.23200
C 	C 	0.86440 0.34870 0.73917 -0.73700
C 	C 	0.54790 0.05507 0.47240 0.01200
C 	C 	0.86420 0.76160 0.28387 -0.03800
C 	C 	0.59650 0.24390 0.73267 -0.05100
C 	C 	0.19440 0.46997 0.97246 -0.00300
C 	C 	0.88880 0.97100 0.18003 -0.72500
C 	C 	0.28830 0.97710 0.01263 0.05300
C 	C 	0.30650 0.09640 0.04951 0.01900
C 	C 	0.36020 0.78320 0.63031 0.33200
C 	C 	0.99590 0.59430 0.46214 0.28500
C 	C 	0.21170 0.67540 0.54343 0.33100
C 	C 	0.61080 0.02560 0.38128 0.27700
C 	C 	0.54600 0.97460 0.00194 -0.05300
C 	C 	0.88920 0.52560 0.88128 0.27800
C 	C 	0.14730 0.49400 0.60491 0.31400
C 	C 	0.39790 0.45360 0.60557 -0.20500
C 	C 	0.09930 0.24268 0.87166 0.33200
C 	C 	0.87560 0.57020 0.65918 -0.75200
C 	C 	0.27870 0.05080 0.00612 -0.09500
C 	C 	0.46340 0.48282 0.51548 -0.06300
C 	C 	0.35700 0.76240 0.31655 -0.02000
C 	C 	0.49590 0.59430 0.03786 0.28300
C 	C 	0.11080 0.02560 0.11872 0.28400
C 	C 	0.90350 0.74390 0.23267 -0.05200
C 	C 	0.64150 0.49590 0.62175 0.25400
O 	O 	0.07490 0.81495 0.41743 -0.44600
O 	O 	0.23120 0.93719 0.55689 -0.36900
O 	O 	0.40049 0.76170 0.58730 -0.42600
O 	O 	0.07523 0.82456 0.50961 -0.40800
O 	O 	0.31453 0.19263 0.50512 -0.41400
O 	O 	0.73120 0.93719 0.94311 -0.36700
O 	O 	0.49390 0.71367 0.16744 -0.59400
O 	O 	0.72061 0.34993 0.49602 -0.48900
O 	O 	0.00830 0.66065 0.47258 -0.40600
O 	O 	0.25220 0.36285 0.47579 -0.39600
O 	O 	0.86090 0.76485 0.08489 -0.42500
O 	O 	0.74780 0.86285 0.52421 -0.39600
O 	O 	0.71270 0.32133 0.36844 -0.42600
O 	O 	0.52418 0.20742 0.63055 -0.42200
O 	O 	0.37420 0.77630 0.88418 -0.32100
O 	O 	0.02156 0.17662 0.99842 -0.48700
O 	O 	0.76150 0.45555 0.08116 -0.31300
O 	O 	0.24780 0.86285 0.97579 -0.39600
O 	O 	0.22061 0.34993 0.00398 -0.48900
O 	O 	0.26150 0.45555 0.41884 -0.31300
O 	O 	0.26880 0.43719 0.05689 -0.36800
O 	O 	0.08850 0.80873 0.07376 -0.43600
O 	O 	0.50974 0.33743 0.50531 -0.43500
O 	O 	0.23850 0.95555 0.91884 -0.31400
O 	O 	0.53038 0.59085 0.44439 -0.37500
O 	O 	0.57523 0.82456 0.99039 -0.41000
O 	O 	0.41150 0.30873 0.57376 -0.43700
O 	O 	0.99170 0.16065 0.52742 -0.40800
O 	O 	0.87420 0.77630 0.61582 -0.32100
O 	O 	0.17360 0.71686 0.57701 -0.44100
O 	O 	0.26730 0.69467 0.50561 -0.43700
O 	O 	0.59951 0.26170 0.41270 -0.42600
O 	O 	0.37470 0.75310 0.11748 -0.31000
O 	O 	0.76040 0.81691 0.66772 -0.58900
O 	O 	0.36090 0.76485 0.41511 -0.42600
O 	O 	0.12530 0.25310 0.61748 -0.30900
O 	O 	0.18547 0.69263 0.00512 -0.41500
O 	O 	0.92510 0.31495 0.58257 -0.44700
O 	O 	0.23270 0.19467 0.00561 -0.43700
O 	O 	0.92477 0.32456 0.49039 -0.40900
O 	O 	0.51120 0.56850 0.08462 -0.30800
O 	O 	0.97582 0.70742 0.13055 -0.42100
O 	O 	0.27939 0.84993 0.50398 -0.48900
O 	O 	0.48880 0.06850 0.91538 -0.30800
O 	O 	0.49170 0.16065 0.97258 -0.40500
O 	O 	0.87470 0.75310 0.38252 -0.31000
O 	O 	0.47582 0.70742 0.36945 -0.42200
O 	O 	0.00610 0.21367 0.66744 -0.59000
O 	O 	0.73960 0.31691 0.16772 -0.58900
O 	O 	0.62530 0.25310 0.88252 -0.31000
O 	O 	0.98880 0.06850 0.58462 -0.31100
O 	O 	0.49026 0.83743 0.49469 -0.43500
O 	O 	0.73270 0.19467 0.49439 -0.43600
O 	O 	0.68547 0.69263 0.49488 -0.41300
O 	O 	0.99390 0.71367 0.33256 -0.59100
O 	O 	0.62580 0.27630 0.11582 -0.32100
O 	O 	0.13910 0.26485 0.91511 -0.42400
O 	O 	0.58850 0.80873 0.42624 -0.43700
O 	O 	0.91150 0.30873 0.92624 -0.43700
O 	O 	0.96962 0.09085 0.94439 -0.37900
O 	O 	0.76880 0.43719 0.44311 -0.36800
O 	O 	0.67360 0.71686 0.92299 -0.44100
O 	O 	0.02418 0.20742 0.86945 -0.42000
O 	O 	0.32370 0.21316 0.41408 -0.45200
O 	O 	0.99026 0.83743 0.00531 -0.43000
O 	O 	0.00974 0.33743 0.99469 -0.43200
O 	O 	0.50830 0.66065 0.02742 -0.40500
O 	O 	0.90049 0.76170 0.91270 -0.42600
O 	O 	0.82640 0.21686 0.42299 -0.44100
O 	O 	0.97844 0.67662 0.00158 -0.48700
O 	O 	0.57490 0.81495 0.08257 -0.44700
O 	O 	0.63910 0.26485 0.58489 -0.42600
O 	O 	0.17630 0.71316 0.91408 -0.45200
O 	O 	0.42477 0.32456 0.00961 -0.41000
O 	O 	0.52156 0.17662 0.50158 -0.48700
O 	O 	0.01120 0.56850 0.41538 -0.31000
O 	O 	0.21270 0.32133 0.13156 -0.42600
O 	O 	0.77939 0.84993 0.99602 -0.48900
O 	O 	0.82370 0.21316 0.08592 -0.45200
O 	O 	0.28730 0.82133 0.63156 -0.42600
O 	O 	0.78730 0.82133 0.86844 -0.42600
O 	O 	0.32640 0.21686 0.07701 -0.44100
O 	O 	0.50610 0.21367 0.83256 -0.59300
O 	O 	0.47844 0.67662 0.49842 -0.48700
O 	O 	0.26040 0.81691 0.83228 -0.58900
O 	O 	0.81453 0.19263 0.99488 -0.41400
O 	O 	0.75220 0.36285 0.02421 -0.39600
O 	O 	0.73850 0.95555 0.58116 -0.31300
O 	O 	0.76730 0.69467 0.99439 -0.43700
O 	O 	0.46962 0.09085 0.55561 -0.37400
O 	O 	0.03038 0.59085 0.05561 -0.37800
O 	O 	0.12580 0.27630 0.38418 -0.32100
O 	O 	0.23960 0.31691 0.33228 -0.58900
O 	O 	0.09951 0.26170 0.08730 -0.42600
O 	O 	0.67630 0.71316 0.58592 -0.45200
O 	O 	0.42510 0.31495 0.91743 -0.44700
