data_crystal

_cell_length_a 9.91650
_cell_length_b 10.96930
_cell_length_c 13.05280
_cell_angle_alpha 90.00000
_cell_angle_beta  90.00000
_cell_angle_gamma 101.63300

_symmetry_space_group_name_	'P 1'
_symmetry_space_group_name_H-M	'P 1'

loop_
_symmetry_equiv_pos_as_xyz
  x,y,z

loop_
_atom_site_label
_atom_site_type_symbol
_atom_site_fract_x
_atom_site_fract_y
_atom_site_fract_z
_atom_site_charge
Mn	Mn	0.37357 0.75178 0.88756 1.30000
Mn	Mn	0.87554 0.74682 0.88847 1.29700
Mn	Mn	0.62643 0.24822 0.38756 1.30500
Mn	Mn	0.12446 0.25318 0.38847 1.30400
H 	H 	0.59250 0.64640 0.18690 0.06600
H 	H 	0.39220 0.48130 0.82190 0.01000
H 	H 	0.10290 0.51320 0.61720 0.06800
H 	H 	0.29910 0.37530 0.20460 0.00300
H 	H 	0.04860 0.86100 0.08250 0.01900
H 	H 	0.62360 0.25460 0.63110 0.01900
H 	H 	0.08650 0.63720 0.75470 0.00400
H 	H 	0.95760 0.00890 0.72030 0.06500
H 	H 	0.67750 0.85530 0.59110 0.05400
H 	H 	0.65950 0.97940 0.45250 0.01100
H 	H 	0.04240 0.99110 0.22030 0.07100
H 	H 	0.61770 0.13190 0.77300 0.04400
H 	H 	0.37640 0.74540 0.13110 0.02000
H 	H 	0.60780 0.51870 0.32190 0.00900
H 	H 	0.34050 0.02060 0.95250 -0.03100
H 	H 	0.91350 0.36280 0.25470 -0.00100
H 	H 	0.38940 0.63840 0.50160 0.05200
H 	H 	0.61060 0.36160 0.00160 0.07700
H 	H 	0.40750 0.35360 0.68690 0.05000
H 	H 	0.32250 0.14470 0.09110 0.07300
H 	H 	0.95140 0.13900 0.58250 0.01700
H 	H 	0.89710 0.48680 0.11720 0.08500
H 	H 	0.70040 0.49960 0.56540 0.07000
H 	H 	0.70090 0.62470 0.70460 0.00900
H 	H 	0.38470 0.76040 0.64240 0.01600
H 	H 	0.29960 0.50040 0.06540 0.09100
H 	H 	0.66740 0.86840 0.01750 0.02100
H 	H 	0.34690 0.00400 0.65510 0.06300
H 	H 	0.33260 0.13160 0.51750 0.01200
H 	H 	0.65310 0.99600 0.15510 0.06800
H 	H 	0.38230 0.86810 0.27300 0.05800
H 	H 	0.61530 0.23960 0.14240 0.01200
C 	C 	0.99180 0.39290 0.21600 0.07400
C 	C 	0.60820 0.39580 0.06670 -0.08000
C 	C 	0.63090 0.09980 0.70870 -0.03300
C 	C 	0.39180 0.60420 0.56670 -0.04700
C 	C 	0.03160 0.11000 0.59560 0.03600
C 	C 	0.78040 0.52480 0.60340 -0.06800
C 	C 	0.66340 0.93570 0.60080 -0.05300
C 	C 	0.96460 0.96700 0.17960 -0.06600
C 	C 	0.90150 0.48680 0.57640 -0.06200
C 	C 	0.36910 0.82800 0.12250 0.03900
C 	C 	0.09850 0.51320 0.07640 -0.00800
C 	C 	0.34500 0.98800 0.01790 0.11100
C 	C 	0.60080 0.51900 0.07700 -0.01700
C 	C 	0.15830 0.90280 0.78980 0.40400
C 	C 	0.21810 0.40030 0.18670 0.07900
C 	C 	0.65500 0.01200 0.51790 0.04500
C 	C 	0.73520 0.97050 0.14130 -0.06100
C 	C 	0.40120 0.43590 0.67550 -0.05000
C 	C 	0.01880 0.53290 0.63430 -0.06100
C 	C 	0.63090 0.17200 0.62250 0.02200
C 	C 	0.21960 0.47520 0.10340 -0.09800
C 	C 	0.98120 0.46710 0.13430 -0.08800
C 	C 	0.59880 0.56410 0.17550 -0.08100
C 	C 	0.36910 0.90020 0.20870 -0.06100
C 	C 	0.03540 0.03300 0.67960 -0.04700
C 	C 	0.65590 0.89850 0.79090 0.41000
C 	C 	0.39920 0.48100 0.57700 -0.07400
C 	C 	0.61220 0.32310 0.15130 0.05400
C 	C 	0.59030 0.59910 0.98570 0.33800
C 	C 	0.78190 0.59970 0.68670 0.05700
C 	C 	0.00820 0.60710 0.71600 0.05400
C 	C 	0.39370 0.51360 0.75590 0.04000
C 	C 	0.96840 0.89000 0.09560 0.05000
C 	C 	0.25480 0.10580 0.55780 0.03600
C 	C 	0.38780 0.67690 0.65130 0.03400
C 	C 	0.65040 0.98100 0.69910 -0.08100
C 	C 	0.09120 0.59620 0.98590 0.36100
C 	C 	0.34960 0.01900 0.19910 -0.05100
C 	C 	0.15390 0.99260 0.70240 -0.07300
C 	C 	0.90880 0.40380 0.48590 0.40500
C 	C 	0.26480 0.02950 0.64130 -0.04400
C 	C 	0.74520 0.89420 0.05780 0.04600
C 	C 	0.33660 0.06430 0.10080 -0.08800
C 	C 	0.34410 0.10150 0.29090 0.40100
C 	C 	0.84170 0.09720 0.28980 0.39600
C 	C 	0.60630 0.48640 0.25590 0.05800
C 	C 	0.84610 0.00740 0.20240 -0.04700
C 	C 	0.40970 0.40090 0.48570 0.38700
N 	N 	0.38840 0.63250 0.74500 -0.21000
N 	N 	0.14010 0.14410 0.53230 -0.21400
N 	N 	0.61160 0.36750 0.24500 -0.21600
N 	N 	0.85990 0.85590 0.03230 -0.20600
N 	N 	0.10860 0.36180 0.24270 -0.22400
N 	N 	0.35930 0.86980 0.02670 -0.21400
N 	N 	0.89140 0.63820 0.74270 -0.21800
N 	N 	0.64070 0.13020 0.52670 -0.21200
O 	O 	0.23800 0.14480 0.29490 -0.44300
O 	O 	0.98300 0.63310 0.97390 -0.46200
O 	O 	0.44190 0.11480 0.35010 -0.45100
O 	O 	0.73240 0.13850 0.29330 -0.44200
O 	O 	0.80580 0.38060 0.42780 -0.45100
O 	O 	0.05950 0.88160 0.84780 -0.46100
O 	O 	0.51400 0.35410 0.48060 -0.44400
O 	O 	0.31480 0.38660 0.42110 -0.43400
O 	O 	0.55810 0.88520 0.85010 -0.46500
O 	O 	0.94050 0.11840 0.34780 -0.44900
O 	O 	0.26760 0.86150 0.79330 -0.44900
O 	O 	0.48600 0.64590 0.98060 -0.45100
O 	O 	0.19420 0.61940 0.92780 -0.45200
O 	O 	0.76200 0.85520 0.79490 -0.45200
O 	O 	0.68520 0.61340 0.92110 -0.43300
O 	O 	0.01700 0.36690 0.47390 -0.45600
