data_crystal

_cell_length_a 16.08710
_cell_length_b 8.55050
_cell_length_c 17.18860
_cell_angle_alpha 90.00000
_cell_angle_beta  129.56870
_cell_angle_gamma 90.00000

_symmetry_space_group_name_	'P 1'
_symmetry_space_group_name_H-M	'P 1'

loop_
_symmetry_equiv_pos_as_xyz
  x,y,z

loop_
_atom_site_label
_atom_site_type_symbol
_atom_site_fract_x
_atom_site_fract_y
_atom_site_fract_z
_atom_site_charge
Zn	Zn	0.10716 0.31985 0.13437 1.16300
Zn	Zn	0.87386 0.56452 0.02872 1.18500
C 	C 	0.24610 0.59240 0.18100 0.12900
C 	C 	0.18640 0.59420 0.27510 0.12400
N 	N 	0.33440 0.68640 0.24150 -0.25800
N 	N 	0.37680 0.69880 0.19490 -0.19100
N 	N 	0.32070 0.62010 0.11150 -0.09800
N 	N 	0.23850 0.55240 0.10010 -0.27300
N 	N 	0.26090 0.69970 0.34390 -0.23500
N 	N 	0.24610 0.71270 0.41230 -0.14700
N 	N 	0.16620 0.62070 0.38450 -0.22600
N 	N 	0.12660 0.54360 0.29860 -0.27300
N 	N 	0.17740 0.53870 0.19410 -0.33400
O 	O 	0.96510 0.37260 0.11160 -0.71800
O 	O 	0.03860 0.31630 0.98880 -0.80000
H 	H 	0.54204 0.79291 0.55928 0.14400
H 	H 	0.59135 0.79073 0.42205 0.13400
Zn	Zn	0.60716 0.81985 0.13437 1.18000
Zn	Zn	0.37386 0.06452 0.02872 1.18000
C 	C 	0.74610 0.09240 0.18100 0.13500
C 	C 	0.68640 0.09420 0.27510 0.13900
N 	N 	0.83440 0.18640 0.24150 -0.24500
N 	N 	0.87680 0.19880 0.19490 -0.16600
N 	N 	0.82070 0.12010 0.11150 -0.08700
N 	N 	0.73850 0.05240 0.10010 -0.26700
N 	N 	0.76090 0.19970 0.34390 -0.23200
N 	N 	0.74610 0.21270 0.41230 -0.14100
N 	N 	0.66620 0.12070 0.38450 -0.21700
N 	N 	0.62660 0.04360 0.29860 -0.25700
N 	N 	0.67740 0.03870 0.19410 -0.32500
O 	O 	0.46510 0.87260 0.11160 -0.77900
O 	O 	0.53860 0.81630 0.98880 -0.71200
H 	H 	0.04204 0.29291 0.55928 0.06500
H 	H 	0.09135 0.29073 0.42205 0.13200
Zn	Zn	0.89284 0.31985 0.36563 1.19300
Zn	Zn	0.12614 0.56452 0.47128 1.17600
C 	C 	0.75390 0.59240 0.31900 0.13200
C 	C 	0.81360 0.59420 0.22490 0.14700
N 	N 	0.66560 0.68640 0.25850 -0.25600
N 	N 	0.62320 0.69880 0.30510 -0.19000
N 	N 	0.67930 0.62010 0.38850 -0.09800
N 	N 	0.76150 0.55240 0.39990 -0.27100
N 	N 	0.73910 0.69970 0.15610 -0.23300
N 	N 	0.75390 0.71270 0.08770 -0.13800
N 	N 	0.83380 0.62070 0.11550 -0.20800
N 	N 	0.87340 0.54360 0.20140 -0.23500
N 	N 	0.82260 0.53870 0.30590 -0.31800
O 	O 	0.03490 0.37260 0.38840 -0.82900
O 	O 	0.96140 0.31630 0.51120 -0.60900
H 	H 	0.45796 0.79291 0.94072 0.14400
H 	H 	0.40865 0.79073 0.07795 0.13500
Zn	Zn	0.39284 0.81985 0.36563 1.17800
Zn	Zn	0.62614 0.06452 0.47128 1.18000
C 	C 	0.25390 0.09240 0.31900 0.12700
C 	C 	0.31360 0.09420 0.22490 0.13300
N 	N 	0.16560 0.18640 0.25850 -0.26800
N 	N 	0.12320 0.19880 0.30510 -0.20700
N 	N 	0.17930 0.12010 0.38850 -0.10600
N 	N 	0.26150 0.05240 0.39990 -0.27400
N 	N 	0.23910 0.19970 0.15610 -0.23700
N 	N 	0.25390 0.21270 0.08770 -0.14500
N 	N 	0.33380 0.12070 0.11550 -0.21900
N 	N 	0.37340 0.04360 0.20140 -0.25800
N 	N 	0.32260 0.03870 0.30590 -0.32700
O 	O 	0.53490 0.87260 0.38840 -0.78000
O 	O 	0.46140 0.81630 0.51120 -0.70700
H 	H 	0.95796 0.29291 0.94072 0.21400
H 	H 	0.90865 0.29073 0.07795 0.13900
Zn	Zn	0.89284 0.68015 0.86563 1.19000
Zn	Zn	0.12614 0.43548 0.97128 1.17500
C 	C 	0.75390 0.40760 0.81900 0.13100
C 	C 	0.81360 0.40580 0.72490 0.14500
N 	N 	0.66560 0.31360 0.75850 -0.25700
N 	N 	0.62320 0.30120 0.80510 -0.19100
N 	N 	0.67930 0.37990 0.88850 -0.10000
N 	N 	0.76150 0.44760 0.89990 -0.27500
N 	N 	0.73910 0.30030 0.65610 -0.23400
N 	N 	0.75390 0.28730 0.58770 -0.14100
N 	N 	0.83380 0.37930 0.61550 -0.21100
N 	N 	0.87340 0.45640 0.70140 -0.23700
N 	N 	0.82260 0.46130 0.80590 -0.32000
O 	O 	0.03490 0.62740 0.88840 -0.82600
O 	O 	0.96140 0.68370 0.01120 -0.59800
H 	H 	0.45796 0.20709 0.44072 0.14400
H 	H 	0.40865 0.20927 0.57795 0.13300
Zn	Zn	0.39284 0.18015 0.86563 1.17600
Zn	Zn	0.62614 0.93548 0.97128 1.17800
C 	C 	0.25390 0.90760 0.81900 0.12600
C 	C 	0.31360 0.90580 0.72490 0.13200
N 	N 	0.16560 0.81360 0.75850 -0.26700
N 	N 	0.12320 0.80120 0.80510 -0.20600
N 	N 	0.17930 0.87990 0.88850 -0.10600
N 	N 	0.26150 0.94760 0.89990 -0.27500
N 	N 	0.23910 0.80030 0.65610 -0.23700
N 	N 	0.25390 0.78730 0.58770 -0.14600
N 	N 	0.33380 0.87930 0.61550 -0.22000
N 	N 	0.37340 0.95640 0.70140 -0.25800
N 	N 	0.32260 0.96130 0.80590 -0.32700
O 	O 	0.53490 0.12740 0.88840 -0.78200
O 	O 	0.46140 0.18370 0.01120 -0.70200
H 	H 	0.95796 0.70709 0.44072 0.22400
H 	H 	0.90865 0.70927 0.57795 0.13600
Zn	Zn	0.10716 0.68015 0.63437 1.16400
Zn	Zn	0.87386 0.43548 0.52872 1.18300
C 	C 	0.24610 0.40760 0.68100 0.12800
C 	C 	0.18640 0.40580 0.77510 0.12400
N 	N 	0.33440 0.31360 0.74150 -0.25800
N 	N 	0.37680 0.30120 0.69490 -0.19100
N 	N 	0.32070 0.37990 0.61150 -0.09900
N 	N 	0.23850 0.44760 0.60010 -0.27300
N 	N 	0.26090 0.30030 0.84390 -0.23600
N 	N 	0.24610 0.28730 0.91230 -0.14900
N 	N 	0.16620 0.37930 0.88450 -0.22700
N 	N 	0.12660 0.45640 0.79860 -0.27200
N 	N 	0.17740 0.46130 0.69410 -0.33400
O 	O 	0.96510 0.62740 0.61160 -0.72300
O 	O 	0.03860 0.68370 0.48880 -0.80600
H 	H 	0.54204 0.20709 0.05928 0.14500
H 	H 	0.59135 0.20927 0.92205 0.13100
Zn	Zn	0.60716 0.18015 0.63437 1.17800
Zn	Zn	0.37386 0.93548 0.52872 1.17900
C 	C 	0.74610 0.90760 0.68100 0.13400
C 	C 	0.68640 0.90580 0.77510 0.13800
N 	N 	0.83440 0.81360 0.74150 -0.24700
N 	N 	0.87680 0.80120 0.69490 -0.16900
N 	N 	0.82070 0.87990 0.61150 -0.09000
N 	N 	0.73850 0.94760 0.60010 -0.27000
N 	N 	0.76090 0.80030 0.84390 -0.23300
N 	N 	0.74610 0.78730 0.91230 -0.14500
N 	N 	0.66620 0.87930 0.88450 -0.21900
N 	N 	0.62660 0.95640 0.79860 -0.25700
N 	N 	0.67740 0.96130 0.69410 -0.32600
O 	O 	0.46510 0.12740 0.61160 -0.78100
O 	O 	0.53860 0.18370 0.48880 -0.70700
H 	H 	0.04204 0.70709 0.05928 0.06100
H 	H 	0.09135 0.70927 0.92205 0.13200
Zn	Zn	0.00000 0.37327 0.25000 1.14000
Zn	Zn	0.50000 0.87327 0.25000 1.17300
Zn	Zn	0.00000 0.62673 0.75000 1.14200
Zn	Zn	0.50000 0.12673 0.75000 1.17200
