data_crystal

_cell_length_a 28.15270
_cell_length_b 28.15270
_cell_length_c 28.60020
_cell_angle_alpha 119.48400
_cell_angle_beta  119.48400
_cell_angle_gamma 90.00000

_symmetry_space_group_name_	'P 1'
_symmetry_space_group_name_H-M	'P 1'

loop_
_symmetry_equiv_pos_as_xyz
  x,y,z

loop_
_atom_site_label
_atom_site_type_symbol
_atom_site_fract_x
_atom_site_fract_y
_atom_site_fract_z
_atom_site_charge
Cu	Cu	0.06960 0.27523 -0.00000 0.86800
Cu	Cu	0.41241 0.31720 0.36426 0.90700
Cu	Cu	0.96434 0.03618 0.27380 0.89700
Cu	Cu	0.03566 0.96382 0.72620 0.90200
Cu	Cu	0.95294 0.58759 0.63574 0.90500
Cu	Cu	0.93040 0.72477 -0.00000 0.86400
Cu	Cu	0.90921 0.63314 -0.00000 0.87200
Cu	Cu	0.63314 0.09079 -0.00000 0.87300
Cu	Cu	0.09079 0.36686 -0.00000 0.87200
Cu	Cu	0.36686 0.90921 -0.00000 0.87200
Cu	Cu	0.30946 0.23762 0.27380 0.89800
Cu	Cu	0.31720 0.95185 0.36426 0.90500
Cu	Cu	0.76238 0.03566 0.72620 0.90400
Cu	Cu	0.27523 0.93040 -0.00000 0.86500
Cu	Cu	0.95185 0.04706 0.36426 0.90800
Cu	Cu	0.23762 0.96434 0.27380 0.89700
Cu	Cu	0.96382 0.69054 0.72620 0.90200
Cu	Cu	0.68280 0.04815 0.63574 0.91000
Cu	Cu	0.03618 0.30946 0.27380 0.90100
Cu	Cu	0.04706 0.41241 0.36426 0.91100
Cu	Cu	0.04815 0.95294 0.63574 0.90800
Cu	Cu	0.58759 0.68280 0.63574 0.90800
Cu	Cu	0.72477 0.06960 -0.00000 0.86800
Cu	Cu	0.69054 0.76238 0.72620 0.90300
H 	H 	0.37860 0.99290 0.83240 0.15200
H 	H 	0.44440 0.11210 0.48120 0.08500
H 	H 	0.12710 0.61490 0.69780 0.09300
H 	H 	0.57070 0.08290 0.69780 0.09300
H 	H 	0.61490 0.57070 0.69780 0.09100
H 	H 	0.63090 0.55560 0.51880 0.08300
H 	H 	0.16050 0.62140 0.16760 0.13700
H 	H 	0.89500 0.71460 0.16200 0.08500
H 	H 	0.89010 0.78870 0.29620 0.13800
H 	H 	0.69630 0.08200 0.84540 0.07800
H 	H 	0.99290 0.45380 0.83240 0.15200
H 	H 	0.00710 0.54620 0.16760 0.13800
H 	H 	0.76350 0.01720 0.25920 0.10900
H 	H 	0.59390 0.49250 0.70380 0.14700
H 	H 	0.75800 0.23650 0.74080 0.11600
H 	H 	0.23660 0.30370 0.15460 0.05500
H 	H 	0.35400 0.96090 0.87520 0.10000
H 	H 	0.78570 0.67360 0.65400 0.07300
H 	H 	0.98280 0.50430 0.74080 0.11200
H 	H 	0.36910 0.44440 0.48120 0.08400
H 	H 	0.01720 0.49570 0.25920 0.11000
H 	H 	0.88790 0.96320 0.51880 0.08000
H 	H 	0.73300 0.55260 0.83800 0.10700
H 	H 	0.10990 0.80540 0.16180 0.06400
H 	H 	0.01960 0.21430 0.34600 0.07400
H 	H 	0.08570 0.64600 0.12480 0.07700
H 	H 	0.76340 0.69630 0.84540 0.07700
H 	H 	0.01070 0.37780 0.55020 0.14400
H 	H 	0.03910 0.47880 0.12480 0.07800
H 	H 	0.19460 0.94810 0.83820 0.08100
H 	H 	0.64600 0.03910 0.12480 0.07700
H 	H 	0.05190 0.35640 0.16180 0.06600
H 	H 	0.96320 0.63090 0.51880 0.08100
H 	H 	0.89010 0.19460 0.83820 0.08200
H 	H 	0.78870 0.40610 0.29620 0.13800
H 	H 	0.42930 0.91710 0.30220 0.08300
H 	H 	0.71460 0.26700 0.16200 0.08600
H 	H 	0.45380 0.83950 0.83240 0.15300
H 	H 	0.50750 0.89010 0.29620 0.13800
H 	H 	0.49570 0.24200 0.25920 0.10700
H 	H 	0.53950 0.17240 0.55020 0.14300
H 	H 	0.62140 0.00710 0.16760 0.13800
H 	H 	0.14910 0.76340 0.84540 0.07800
H 	H 	0.91800 0.85090 0.15460 0.05200
H 	H 	0.62220 0.46050 0.44980 0.14100
H 	H 	0.23010 0.47960 0.48400 0.09900
H 	H 	0.74610 0.99560 0.51600 0.09400
H 	H 	0.94810 0.64360 0.83820 0.08100
H 	H 	0.49250 0.10990 0.70380 0.14800
H 	H 	0.24200 0.76350 0.25920 0.10700
H 	H 	0.96090 0.52120 0.87520 0.10000
H 	H 	0.38510 0.42930 0.30220 0.08400
H 	H 	0.25390 0.00440 0.48400 0.10400
H 	H 	0.37780 0.53950 0.55020 0.14200
H 	H 	0.47880 0.08570 0.12480 0.07700
H 	H 	0.47960 0.25390 0.48400 0.09900
H 	H 	0.87290 0.38510 0.30220 0.08300
H 	H 	0.28540 0.73300 0.83800 0.10700
H 	H 	0.26700 0.44740 0.16200 0.08600
H 	H 	0.30370 0.91800 0.15460 0.05300
H 	H 	0.21130 0.59390 0.70380 0.14700
H 	H 	0.52040 0.74610 0.51600 0.09800
H 	H 	0.44740 0.89500 0.16200 0.08500
H 	H 	0.55560 0.88790 0.51880 0.08200
H 	H 	0.67360 0.86830 0.65400 0.07200
H 	H 	0.10990 0.21130 0.70380 0.14800
H 	H 	0.03680 0.36910 0.48120 0.08600
H 	H 	0.86830 0.98040 0.65400 0.06700
H 	H 	0.80540 0.05190 0.16180 0.06500
H 	H 	0.17240 0.01070 0.55020 0.14500
H 	H 	0.08200 0.14910 0.84540 0.08000
H 	H 	0.82760 0.98930 0.44980 0.13800
H 	H 	0.83950 0.37860 0.83240 0.15300
H 	H 	0.99560 0.76990 0.51600 0.09400
H 	H 	0.35640 0.10990 0.16180 0.06500
H 	H 	0.46050 0.82760 0.44980 0.14000
H 	H 	0.91430 0.35400 0.87520 0.10000
H 	H 	0.10500 0.28540 0.83800 0.10800
H 	H 	0.55260 0.10500 0.83800 0.10800
H 	H 	0.76990 0.52040 0.51600 0.09800
H 	H 	0.08290 0.12710 0.69780 0.09400
H 	H 	0.64360 0.89010 0.83820 0.08200
H 	H 	0.91710 0.87290 0.30220 0.08200
H 	H 	0.98930 0.62220 0.44980 0.13900
H 	H 	0.54620 0.16050 0.16760 0.13700
H 	H 	0.32640 0.13170 0.34600 0.06900
H 	H 	0.52120 0.91430 0.87520 0.10000
H 	H 	0.21430 0.32640 0.34600 0.06900
H 	H 	0.85090 0.23660 0.15460 0.05300
H 	H 	0.13170 0.01960 0.34600 0.07500
H 	H 	0.23650 0.98280 0.74080 0.11200
H 	H 	0.50430 0.75800 0.74080 0.11500
H 	H 	0.00440 0.23010 0.48400 0.10400
H 	H 	0.98040 0.78570 0.65400 0.06800
H 	H 	0.40610 0.50750 0.29620 0.13900
H 	H 	0.11210 0.03680 0.48120 0.08700
C 	C 	0.14490 0.96010 0.74200 0.32100
C 	C 	0.91410 0.27770 0.86700 -0.00300
C 	C 	0.63683 0.85463 0.61686 -0.02600
C 	C 	0.90700 0.73920 0.09160 0.37100
C 	C 	0.10960 0.68260 0.14620 -0.11700
C 	C 	0.70630 0.40140 0.74520 0.21300
C 	C 	0.12970 0.68640 0.76940 -0.02200
C 	C 	0.23777 0.36317 0.38314 -0.02400
C 	C 	0.06180 0.38190 0.08560 0.33100
C 	C 	0.03890 0.34380 0.74520 0.21500
C 	C 	0.13460 0.03120 0.46480 -0.10400
C 	C 	0.97860 0.69190 0.50400 0.12500
C 	C 	0.21810 0.85510 0.25800 0.32600
C 	C 	0.86540 0.96880 0.53520 -0.09700
C 	C 	0.97610 0.52580 0.77280 -0.13600
C 	C 	0.26760 0.64060 0.71360 0.19500
C 	C 	0.91700 0.87030 0.23060 -0.05100
C 	C 	0.96340 0.53640 0.85380 -0.13100
C 	C 	0.12380 0.77820 0.16940 -0.02300
C 	C 	0.67860 0.65900 0.62020 0.32200
C 	C 	0.79310 0.03500 0.21640 -0.02100
C 	C 	0.18460 0.35240 0.09160 0.37000
C 	C 	0.33280 0.44810 0.23980 0.12800
C 	C 	0.85463 0.98003 0.61686 -0.01900
C 	C 	0.37950 0.11630 0.41200 -0.02600
C 	C 	0.75300 0.02390 0.22720 -0.12600
C 	C 	0.57370 0.09830 0.81980 -0.10200
C 	C 	0.38730 0.22750 0.37920 0.32300
C 	C 	0.21560 0.40120 0.40960 -0.02700
C 	C 	0.03120 0.33020 0.46480 -0.10400
C 	C 	0.42330 0.76190 0.76860 0.21400
C 	C 	0.15170 0.38730 0.37920 0.32300
C 	C 	0.02390 0.47420 0.22720 -0.12600
C 	C 	0.72150 0.57370 0.81980 -0.10200
C 	C 	0.83590 0.26120 0.17580 -0.00100
C 	C 	0.34650 0.57350 0.59780 0.20500
C 	C 	0.99160 0.78440 0.59040 -0.03800
C 	C 	0.79670 0.24700 0.77280 -0.13800
C 	C 	0.59880 0.80600 0.59040 -0.02600
C 	C 	0.76223 0.63683 0.61686 -0.02700
C 	C 	0.39870 0.65190 0.34800 0.19800
C 	C 	0.20330 0.75300 0.22720 -0.12500
C 	C 	0.09830 0.24610 0.81980 -0.10300
C 	C 	0.98030 0.61140 0.31580 0.20900
C 	C 	0.08540 0.16410 0.82420 -0.02200
C 	C 	0.44810 0.90700 0.23980 0.12700
C 	C 	0.03660 0.46360 0.14620 -0.12000
C 	C 	0.85510 0.03990 0.25800 0.32600
C 	C 	0.36030 0.91700 0.23060 -0.04900
C 	C 	0.98003 0.76223 0.61686 -0.01900
C 	C 	0.34100 0.05840 0.37980 0.32300
C 	C 	0.31740 0.96340 0.85380 -0.13100
C 	C 	0.61810 0.97620 0.91440 0.30800
C 	C 	0.01020 0.24750 0.46600 -0.10700
C 	C 	0.27770 0.95290 0.86700 -0.00800
C 	C 	0.97620 0.29630 0.91440 0.30700
C 	C 	0.22750 0.99190 0.37920 0.31100
C 	C 	0.33020 0.43360 0.46480 -0.09900
C 	C 	0.29630 0.93820 0.91440 0.32000
C 	C 	0.06530 0.66220 0.73400 0.35400
C 	C 	0.52540 0.81210 0.50400 0.12800
C 	C 	0.33550 0.70440 0.31580 0.21000
C 	C 	0.00670 0.42330 0.76860 0.22300
C 	C 	0.47420 0.20330 0.22720 -0.12500
C 	C 	0.66720 0.55190 0.76020 0.14900
C 	C 	0.79170 0.33280 0.23980 0.12700
C 	C 	0.00840 0.21560 0.40960 -0.01100
C 	C 	0.99190 0.15170 0.37920 0.31100
C 	C 	0.57670 0.81860 0.78360 -0.00100
C 	C 	0.65190 0.94930 0.34800 0.19700
C 	C 	0.34380 0.70630 0.74520 0.21300
C 	C 	0.96120 0.67860 0.62020 0.32300
C 	C 	0.38190 0.02380 0.08560 0.34300
C 	C 	0.84830 0.61270 0.62080 0.32100
C 	C 	0.91410 0.84850 0.26340 -0.10400
C 	C 	0.50690 0.83200 0.80940 0.18100
C 	C 	0.57350 0.25130 0.59780 0.20500
C 	C 	0.81540 0.64760 0.90840 0.35400
C 	C 	0.36317 0.14537 0.38314 -0.02400
C 	C 	0.59710 0.78190 0.74200 0.32100
C 	C 	0.87620 0.22180 0.83060 -0.04100
C 	C 	0.33130 0.92820 0.26600 0.36000
C 	C 	0.77760 0.24400 0.15100 -0.06300
C 	C 	0.35240 0.90700 0.09160 0.37000
C 	C 	0.20690 0.96500 0.78360 -0.00400
C 	C 	0.15150 0.65070 0.73660 -0.11900
C 	C 	0.88370 0.96750 0.58800 -0.03300
C 	C 	0.22180 0.95440 0.83060 -0.03800
C 	C 	0.95290 0.58930 0.86700 -0.00900
C 	C 	0.61140 0.33550 0.31580 0.21000
C 	C 	0.39120 0.12380 0.16940 -0.02300
C 	C 	0.92820 0.93470 0.26600 0.36100
C 	C 	0.69610 0.39870 0.34800 0.19700
C 	C 	0.69750 0.02260 0.19060 0.15800
C 	C 	0.78150 0.98980 0.53400 -0.09500
C 	C 	0.90700 0.79170 0.23980 0.12600
C 	C 	0.99330 0.57670 0.23140 0.19400
C 	C 	0.07180 0.06530 0.73400 0.35400
C 	C 	0.96500 0.57670 0.78360 -0.00400
C 	C 	0.93820 0.61810 0.91440 0.32100
C 	C 	0.22240 0.75600 0.84900 -0.02400
C 	C 	0.30390 0.60130 0.65200 0.20300
C 	C 	0.09300 0.20830 0.76020 0.15200
C 	C 	0.21850 0.01020 0.46600 -0.10700
C 	C 	0.53640 0.89040 0.85380 -0.13400
C 	C 	0.14537 0.01997 0.38314 -0.03400
C 	C 	0.95440 0.60880 0.83060 -0.03800
C 	C 	0.63970 0.08300 0.76940 -0.02200
C 	C 	0.84850 0.34930 0.26340 -0.10400
C 	C 	0.62660 0.09300 0.84900 -0.02400
C 	C 	0.07300 0.26760 0.71360 0.19600
C 	C 	0.00810 0.84830 0.62080 0.33100
C 	C 	0.56640 0.86540 0.53520 -0.10000
C 	C 	0.83200 0.30250 0.80940 0.18200
C 	C 	0.18140 0.79310 0.21640 -0.02400
C 	C 	0.30250 0.97740 0.80940 0.17900
C 	C 	0.35940 0.55400 0.28640 0.18700
C 	C 	0.65350 0.42650 0.40220 0.20100
C 	C 	0.24750 0.45580 0.46600 -0.10000
C 	C 	0.70370 0.06180 0.08560 0.33100
C 	C 	0.77250 0.00810 0.62080 0.33100
C 	C 	0.03880 0.32140 0.37980 0.32200
C 	C 	0.04560 0.39120 0.16940 -0.02600
C 	C 	0.58930 0.91410 0.86700 -0.00400
C 	C 	0.31360 0.36030 0.23060 -0.04700
C 	C 	0.96880 0.66980 0.53520 -0.09700
C 	C 	0.65070 0.58510 0.73660 -0.11800
C 	C 	0.41490 0.91410 0.26340 -0.10500
C 	C 	0.26080 0.81540 0.90840 0.35400
C 	C 	0.54420 0.78150 0.53400 -0.10100
C 	C 	0.96010 0.59710 0.74200 0.32200
C 	C 	0.78440 0.59880 0.59040 -0.02500
C 	C 	0.66010 0.08540 0.82420 -0.02000
C 	C 	0.42630 0.90170 0.18020 -0.08500
C 	C 	0.42330 0.18140 0.21640 -0.02300
C 	C 	0.16410 0.73880 0.82420 -0.02100
C 	C 	0.29370 0.59860 0.25480 0.20500
C 	C 	0.93470 0.33780 0.26600 0.36100
C 	C 	0.40120 0.19400 0.40960 -0.02600
C 	C 	0.02140 0.30810 0.49600 0.13600
C 	C 	0.05840 0.03880 0.37980 0.32200
C 	C 	0.02380 0.70370 0.08560 0.34200
C 	C 	0.03990 0.40290 0.25800 0.32500
C 	C 	0.45580 0.21850 0.46600 -0.10000
C 	C 	0.94930 0.69610 0.34800 0.19600
C 	C 	0.55400 0.92700 0.28640 0.18600
C 	C 	0.89040 0.31740 0.85380 -0.13500
C 	C 	0.44600 0.07300 0.71360 0.19600
C 	C 	0.32140 0.34100 0.37980 0.32300
C 	C 	0.33990 0.91460 0.17580 -0.00100
C 	C 	0.62050 0.88370 0.58800 -0.02700
C 	C 	0.49310 0.16800 0.19060 0.15600
C 	C 	0.90170 0.75390 0.18020 -0.08400
C 	C 	0.73240 0.35940 0.28640 0.18600
C 	C 	0.90700 0.77760 0.15100 -0.06400
C 	C 	0.65620 0.29370 0.25480 0.20500
C 	C 	0.60880 0.87620 0.83060 -0.04100
C 	C 	0.40140 0.03890 0.74520 0.21500
C 	C 	0.24700 0.97610 0.77280 -0.13600
C 	C 	0.29560 0.01970 0.68420 0.21800
C 	C 	0.75390 0.27850 0.18020 -0.08500
C 	C 	0.73880 0.66010 0.82420 -0.01900
C 	C 	0.04710 0.41070 0.13300 -0.04000
C 	C 	0.19400 0.00840 0.40960 -0.01100
C 	C 	0.38860 0.66450 0.68420 0.21700
C 	C 	0.08590 0.15150 0.73660 -0.12000
C 	C 	0.64060 0.44600 0.71360 0.19500
C 	C 	0.42650 0.74870 0.40220 0.20100
C 	C 	0.52580 0.79670 0.77280 -0.13700
C 	C 	0.75250 0.54420 0.53400 -0.10100
C 	C 	0.33780 0.33130 0.26600 0.36000
C 	C 	0.80600 0.99160 0.59040 -0.03900
C 	C 	0.11630 0.03250 0.41200 -0.01900
C 	C 	0.87030 0.31360 0.23060 -0.04900
C 	C 	0.69190 0.52540 0.50400 0.12900
C 	C 	0.75600 0.62660 0.84900 -0.02600
C 	C 	0.78190 0.14490 0.74200 0.32100
C 	C 	0.58510 0.08590 0.73660 -0.11900
C 	C 	0.59860 0.96110 0.25480 0.20400
C 	C 	0.57670 0.23810 0.23140 0.20200
C 	C 	0.29570 0.37950 0.41200 -0.02700
C 	C 	0.09300 0.26080 0.90840 0.35300
C 	C 	0.77820 0.04560 0.16940 -0.02600
C 	C 	0.72230 0.04710 0.13300 -0.04100
C 	C 	0.97740 0.50690 0.80940 0.17800
C 	C 	0.81860 0.20690 0.78360 -0.00100
C 	C 	0.18790 0.02140 0.49600 0.13700
C 	C 	0.74870 0.97570 0.40220 0.20000
C 	C 	0.65900 0.94160 0.62020 0.32200
C 	C 	0.02430 0.34650 0.59780 0.20700
C 	C 	0.24610 0.72150 0.81980 -0.10200
C 	C 	0.01997 0.23777 0.38314 -0.03300
C 	C 	0.96110 0.65620 0.25480 0.20400
C 	C 	0.98980 0.75250 0.53400 -0.09500
C 	C 	0.34530 0.00670 0.76860 0.22300
C 	C 	0.41070 0.08590 0.13300 -0.04400
C 	C 	0.02260 0.49310 0.19060 0.15900
C 	C 	0.09300 0.22240 0.84900 -0.02200
C 	C 	0.68640 0.63970 0.76940 -0.02400
C 	C 	0.97570 0.65350 0.40220 0.20000
C 	C 	0.92700 0.73240 0.28640 0.18600
C 	C 	0.01970 0.38860 0.68420 0.21800
C 	C 	0.40290 0.21810 0.25800 0.32600
C 	C 	0.03250 0.29570 0.41200 -0.02100
C 	C 	0.46360 0.10960 0.14620 -0.11700
C 	C 	0.68260 0.03660 0.14620 -0.12000
C 	C 	0.08590 0.72230 0.13300 -0.04400
C 	C 	0.66450 0.29560 0.68420 0.21700
C 	C 	0.26120 0.33990 0.17580 -0.00200
C 	C 	0.16800 0.69750 0.19060 0.15600
C 	C 	0.81210 0.97860 0.50400 0.12400
C 	C 	0.08300 0.12970 0.76940 -0.01900
C 	C 	0.24400 0.37340 0.15100 -0.06100
C 	C 	0.70430 0.62050 0.58800 -0.02600
C 	C 	0.64760 0.09300 0.90840 0.35400
C 	C 	0.37340 0.90700 0.15100 -0.06300
C 	C 	0.27850 0.42630 0.18020 -0.08600
C 	C 	0.55190 0.09300 0.76020 0.15000
C 	C 	0.05070 0.30390 0.65200 0.20400
C 	C 	0.20830 0.66720 0.76020 0.15000
C 	C 	0.91460 0.83590 0.17580 -0.00000
C 	C 	0.43360 0.13460 0.46480 -0.10000
C 	C 	0.61270 0.77250 0.62080 0.32100
C 	C 	0.66870 0.07180 0.73400 0.35500
C 	C 	0.94160 0.96120 0.62020 0.32300
C 	C 	0.23810 0.65470 0.23140 0.20200
C 	C 	0.34930 0.41490 0.26340 -0.10500
C 	C 	0.03500 0.42330 0.21640 -0.02000
C 	C 	0.47460 0.18790 0.49600 0.13100
C 	C 	0.25130 0.02430 0.59780 0.20700
C 	C 	0.60130 0.34810 0.65200 0.20200
C 	C 	0.76190 0.34530 0.76860 0.21400
C 	C 	0.70440 0.98030 0.31580 0.20900
C 	C 	0.96750 0.70430 0.58800 -0.03100
C 	C 	0.66980 0.56640 0.53520 -0.10100
C 	C 	0.73920 0.18460 0.09160 0.37000
C 	C 	0.30810 0.47460 0.49600 0.13000
C 	C 	0.65470 0.99330 0.23140 0.19400
C 	C 	0.34810 0.05070 0.65200 0.20400
C 	C 	0.66220 0.66870 0.73400 0.35500
N 	N 	0.30340 0.55810 0.60300 -0.16000
N 	N 	0.04490 0.30340 0.60300 -0.15900
N 	N 	0.22770 0.62990 0.72340 -0.23700
N 	N 	0.62990 0.49570 0.72340 -0.23700
N 	N 	0.18680 0.65440 0.19420 -0.25300
N 	N 	0.46020 0.81320 0.80580 -0.25900
N 	N 	0.20150 0.01810 0.54940 -0.23700
N 	N 	0.92750 0.73290 0.33620 -0.16300
N 	N 	0.97370 0.61760 0.21940 -0.17600
N 	N 	0.39820 0.02630 0.78060 -0.16900
N 	N 	0.65090 0.96150 0.30580 -0.19100
N 	N 	0.03850 0.34510 0.69420 -0.19000
N 	N 	0.42390 0.71550 0.71840 -0.17000
N 	N 	0.00290 0.42390 0.71840 -0.16800
N 	N 	0.77230 0.37010 0.27660 -0.23400
N 	N 	0.95510 0.69660 0.39700 -0.16200
N 	N 	0.53130 0.20150 0.54940 -0.23700
N 	N 	0.34910 0.03850 0.69420 -0.19000
N 	N 	0.98190 0.65210 0.45060 -0.23600
N 	N 	0.98620 0.61070 0.36220 -0.17800
N 	N 	0.34790 0.53130 0.54940 -0.23600
N 	N 	0.38930 0.62400 0.63780 -0.17600
N 	N 	0.65440 0.00740 0.19420 -0.24900
N 	N 	0.73290 0.40870 0.33620 -0.16200
N 	N 	0.90650 0.77230 0.27660 -0.23400
N 	N 	0.62400 0.24850 0.63780 -0.17600
N 	N 	0.28450 0.70550 0.28160 -0.17000
N 	N 	0.79850 0.98190 0.45060 -0.23600
N 	N 	0.37600 0.75150 0.36220 -0.17700
N 	N 	0.29960 0.04490 0.60300 -0.15900
N 	N 	0.26710 0.59130 0.66380 -0.15900
N 	N 	0.44880 0.05740 0.75380 -0.16100
N 	N 	0.01380 0.38930 0.63780 -0.17500
N 	N 	0.46870 0.79850 0.45060 -0.23600
N 	N 	0.65570 0.34910 0.69420 -0.19000
N 	N 	0.69660 0.44190 0.39700 -0.16100
N 	N 	0.65210 0.46870 0.45060 -0.23600
N 	N 	0.50430 0.90650 0.27660 -0.23400
N 	N 	0.71550 0.29450 0.71840 -0.17000
N 	N 	0.69500 0.30360 0.24620 -0.16600
N 	N 	0.39670 0.07250 0.66380 -0.15900
N 	N 	0.49570 0.09350 0.72340 -0.23700
N 	N 	0.05740 0.30500 0.75380 -0.16100
N 	N 	0.69640 0.44880 0.75380 -0.16200
N 	N 	0.38240 0.75430 0.78060 -0.16900
N 	N 	0.01810 0.34790 0.54940 -0.23700
N 	N 	0.55810 0.29960 0.60300 -0.16000
N 	N 	0.60180 0.97370 0.21940 -0.17600
N 	N 	0.07250 0.26710 0.66380 -0.15900
N 	N 	0.60330 0.92750 0.33620 -0.16300
N 	N 	0.34560 0.99260 0.80580 -0.26400
N 	N 	0.94260 0.69500 0.24620 -0.16600
N 	N 	0.96150 0.65490 0.30580 -0.19100
N 	N 	0.44190 0.70040 0.39700 -0.16100
N 	N 	0.40870 0.60330 0.33620 -0.16200
N 	N 	0.70550 0.99710 0.28160 -0.17100
N 	N 	0.81320 0.34560 0.80580 -0.25900
N 	N 	0.29450 0.00290 0.71840 -0.16800
N 	N 	0.70040 0.95510 0.39700 -0.16100
N 	N 	0.55120 0.94260 0.24620 -0.16600
N 	N 	0.24570 0.60180 0.21940 -0.17600
N 	N 	0.30500 0.69640 0.75380 -0.16200
N 	N 	0.53980 0.18680 0.19420 -0.25300
N 	N 	0.00740 0.53980 0.19420 -0.24900
N 	N 	0.61760 0.24570 0.21940 -0.17600
N 	N 	0.75150 0.98620 0.36220 -0.17800
N 	N 	0.30360 0.55120 0.24620 -0.16600
N 	N 	0.61070 0.37600 0.36220 -0.17700
N 	N 	0.59130 0.39670 0.66380 -0.16000
N 	N 	0.75430 0.39820 0.78060 -0.16900
N 	N 	0.57610 0.28450 0.28160 -0.17000
N 	N 	0.09350 0.22770 0.72340 -0.23800
N 	N 	0.02630 0.38240 0.78060 -0.16900
N 	N 	0.65490 0.34430 0.30580 -0.19100
N 	N 	0.99260 0.46020 0.80580 -0.26400
N 	N 	0.34430 0.65090 0.30580 -0.19100
N 	N 	0.37010 0.50430 0.27660 -0.23400
N 	N 	0.99710 0.57610 0.28160 -0.17100
N 	N 	0.24850 0.01380 0.63780 -0.17500
N 	N 	0.34510 0.65570 0.69420 -0.19000
O 	O 	0.95059 0.62495 0.59346 -0.40000
O 	O 	0.04941 0.37505 0.40654 -0.39500
O 	O 	0.35713 0.03149 0.40654 -0.39200
O 	O 	0.94276 0.67170 0.93360 -0.34800
O 	O 	0.28570 0.29223 0.32660 -0.39300
O 	O 	0.92477 0.59457 0.93494 -0.36400
O 	O 	0.37505 0.35713 0.40654 -0.39700
O 	O 	0.80414 0.11525 0.76650 -0.38000
O 	O 	0.65125 0.80414 0.76650 -0.38100
O 	O 	0.13007 0.42586 0.40278 -0.38200
O 	O 	0.04124 0.43485 0.30718 -0.39800
O 	O 	0.03601 0.61661 0.68562 -0.42400
O 	O 	0.12055 0.33734 0.32948 -0.39800
O 	O 	0.73810 0.05724 0.06640 -0.40900
O 	O 	0.34037 0.92477 0.93494 -0.36300
O 	O 	0.73406 0.12767 0.69282 -0.39600
O 	O 	0.34875 0.19586 0.23350 -0.39300
O 	O 	0.99084 0.26190 0.93360 -0.34800
O 	O 	0.16934 0.38183 0.06946 -0.43100
O 	O 	0.09988 0.31237 0.93054 -0.36400
O 	O 	0.93099 0.96399 0.31438 -0.44000
O 	O 	0.31237 0.83066 0.93054 -0.36600
O 	O 	0.01017 0.34037 0.93494 -0.35100
O 	O 	0.11525 0.96236 0.76650 -0.38200
O 	O 	0.00916 0.73810 0.06640 -0.40800
O 	O 	0.68763 0.16934 0.06946 -0.43100
O 	O 	0.23751 0.84801 0.93262 -0.36300
O 	O 	0.59457 0.01017 0.93494 -0.35200
O 	O 	0.96399 0.38339 0.31438 -0.43900
O 	O 	0.96851 0.95059 0.59346 -0.40400
O 	O 	0.99214 0.12055 0.32948 -0.40000
O 	O 	0.84801 0.69511 0.93262 -0.36400
O 	O 	0.38183 0.90012 0.06946 -0.43200
O 	O 	0.02308 0.86993 0.59722 -0.38200
O 	O 	0.95251 0.29821 0.23422 -0.39700
O 	O 	0.98983 0.65963 0.06506 -0.43600
O 	O 	0.27271 0.97692 0.40278 -0.38400
O 	O 	0.91539 0.76249 0.06738 -0.43300
O 	O 	0.56515 0.73406 0.69282 -0.39700
O 	O 	0.07523 0.40543 0.06506 -0.42700
O 	O 	0.43485 0.26594 0.30718 -0.40100
O 	O 	0.87233 0.04124 0.30718 -0.39900
O 	O 	0.06901 0.03601 0.68562 -0.42100
O 	O 	0.61817 0.09988 0.93054 -0.36500
O 	O 	0.93601 0.95251 0.23422 -0.39800
O 	O 	0.88475 0.03764 0.23350 -0.39300
O 	O 	0.26190 0.94276 0.93360 -0.34700
O 	O 	0.90012 0.68763 0.06946 -0.43200
O 	O 	0.64961 0.06901 0.68562 -0.42700
O 	O 	0.00786 0.87945 0.67052 -0.39300
O 	O 	0.15199 0.30489 0.06738 -0.43000
O 	O 	0.67170 0.99084 0.93360 -0.34800
O 	O 	0.57414 0.72729 0.59722 -0.38300
O 	O 	0.96236 0.65125 0.76650 -0.38300
O 	O 	0.95876 0.56515 0.69282 -0.40000
O 	O 	0.72729 0.02308 0.59722 -0.38100
O 	O 	0.65963 0.07523 0.06506 -0.42700
O 	O 	0.12767 0.95876 0.69282 -0.39900
O 	O 	0.04090 0.03437 0.32660 -0.38600
O 	O 	0.79107 0.00786 0.67052 -0.39300
O 	O 	0.32830 0.00916 0.06640 -0.40700
O 	O 	0.30489 0.91539 0.06738 -0.43200
O 	O 	0.03764 0.34875 0.23350 -0.39200
O 	O 	0.03149 0.04941 0.40654 -0.39000
O 	O 	0.83066 0.61817 0.93054 -0.36600
O 	O 	0.76249 0.15199 0.06738 -0.43100
O 	O 	0.95910 0.96563 0.67340 -0.39500
O 	O 	0.19586 0.88475 0.23350 -0.39500
O 	O 	0.70179 0.71829 0.76578 -0.37800
O 	O 	0.71430 0.70777 0.67340 -0.38900
O 	O 	0.97692 0.13007 0.40278 -0.38400
O 	O 	0.66266 0.79107 0.67052 -0.39400
O 	O 	0.69511 0.08461 0.93262 -0.36200
O 	O 	0.86993 0.57414 0.59722 -0.38300
O 	O 	0.96563 0.71430 0.67340 -0.39100
O 	O 	0.62495 0.64287 0.59346 -0.39800
O 	O 	0.70777 0.95910 0.67340 -0.39300
O 	O 	0.20893 0.99214 0.32948 -0.40000
O 	O 	0.38339 0.35039 0.31438 -0.43300
O 	O 	0.28171 0.93601 0.23422 -0.39400
O 	O 	0.08461 0.23751 0.93262 -0.36000
O 	O 	0.06399 0.04749 0.76578 -0.37000
O 	O 	0.64287 0.96851 0.59346 -0.40300
O 	O 	0.29821 0.28171 0.23422 -0.39200
O 	O 	0.40543 0.98983 0.06506 -0.43700
O 	O 	0.87945 0.66266 0.67052 -0.39400
O 	O 	0.04749 0.70179 0.76578 -0.37300
O 	O 	0.35039 0.93099 0.31438 -0.43600
O 	O 	0.26594 0.87233 0.30718 -0.40200
O 	O 	0.05724 0.32830 0.06640 -0.40800
O 	O 	0.03437 0.28570 0.32660 -0.39100
O 	O 	0.29223 0.04090 0.32660 -0.38800
O 	O 	0.71829 0.06399 0.76578 -0.37600
O 	O 	0.61661 0.64961 0.68562 -0.42900
O 	O 	0.42586 0.27271 0.40278 -0.38200
O 	O 	0.33734 0.20893 0.32948 -0.39800
