data_crystal

_cell_length_a 14.35290
_cell_length_b 15.23390
_cell_length_c 33.40830
_cell_angle_alpha 90.00000
_cell_angle_beta  90.00000
_cell_angle_gamma 90.00000

_symmetry_space_group_name_	'P 1'
_symmetry_space_group_name_H-M	'P 1'

loop_
_symmetry_equiv_pos_as_xyz
  x,y,z

loop_
_atom_site_label
_atom_site_type_symbol
_atom_site_fract_x
_atom_site_fract_y
_atom_site_fract_z
_atom_site_charge
K 	K 	0.68635 0.28323 0.45397 0.64400
K 	K 	0.69134 0.26625 0.64316 0.64700
K 	K 	0.68571 0.25700 0.25000 0.64700
K 	K 	0.81429 0.75700 0.25000 0.64700
K 	K 	0.80866 0.76625 0.64316 0.64700
K 	K 	0.30866 0.73375 0.35684 0.64700
K 	K 	0.18635 0.21677 0.95397 0.64400
K 	K 	0.68635 0.28323 0.04603 0.64400
K 	K 	0.31365 0.71677 0.95397 0.64400
K 	K 	0.19134 0.23375 0.35684 0.64700
K 	K 	0.18571 0.24300 0.75000 0.64700
K 	K 	0.81365 0.78323 0.04603 0.64400
K 	K 	0.69134 0.26625 0.85684 0.64700
K 	K 	0.80866 0.76625 0.85684 0.64700
K 	K 	0.31365 0.71677 0.54603 0.64400
K 	K 	0.81365 0.78323 0.45397 0.64400
K 	K 	0.19134 0.23375 0.14316 0.64700
K 	K 	0.31429 0.74300 0.75000 0.64700
K 	K 	0.30866 0.73375 0.14316 0.64700
K 	K 	0.18635 0.21677 0.54603 0.64400
Dy	Dy	0.88752 0.29789 0.94899 1.59200
Dy	Dy	0.88752 0.29789 0.55101 1.59200
Dy	Dy	0.14015 0.67962 0.25000 1.60900
Dy	Dy	0.87058 0.30388 0.34920 1.63000
Dy	Dy	0.38752 0.20211 0.44899 1.59300
Dy	Dy	0.35985 0.17962 0.25000 1.60900
Dy	Dy	0.85985 0.32038 0.75000 1.60900
Dy	Dy	0.64015 0.82038 0.75000 1.60900
Dy	Dy	0.62942 0.80388 0.34920 1.63000
Dy	Dy	0.87058 0.30388 0.15080 1.63000
Dy	Dy	0.62942 0.80388 0.15080 1.63000
Dy	Dy	0.61248 0.79789 0.55101 1.59300
Dy	Dy	0.37058 0.19612 0.65080 1.63000
Dy	Dy	0.37058 0.19612 0.84920 1.63000
Dy	Dy	0.12942 0.69612 0.65080 1.63000
Dy	Dy	0.61248 0.79789 0.94899 1.59300
Dy	Dy	0.11248 0.70211 0.44899 1.59300
Dy	Dy	0.11248 0.70211 0.05101 1.59300
Dy	Dy	0.12942 0.69612 0.84920 1.63000
Dy	Dy	0.38752 0.20211 0.05101 1.59300
C 	C 	0.38210 0.12560 0.75000 0.42000
C 	C 	0.56080 0.07490 0.25000 0.33500
C 	C 	0.29370 0.79710 0.25000 0.35400
C 	C 	0.16260 0.39650 0.05090 -0.01600
C 	C 	0.93920 0.57490 0.25000 0.33400
C 	C 	0.72010 0.18240 0.35280 0.34700
C 	C 	0.35320 0.88860 0.85249 -0.02400
C 	C 	0.23950 0.01940 0.85540 0.33100
C 	C 	0.72010 0.18240 0.14720 0.34700
C 	C 	0.17190 0.48770 0.44920 -0.00500
C 	C 	0.93210 0.56680 0.04770 0.33600
C 	C 	0.17190 0.48770 0.05080 -0.00500
C 	C 	0.49760 0.91070 0.04990 -0.06000
C 	C 	0.14680 0.38860 0.64751 -0.02400
C 	C 	0.01120 0.50150 0.04910 -0.00500
C 	C 	0.49760 0.91070 0.45010 -0.06000
C 	C 	0.06790 0.43320 0.95230 0.33600
C 	C 	0.49390 0.99790 0.25000 -0.00600
C 	C 	0.51120 0.99850 0.54910 -0.00500
C 	C 	0.50990 0.91730 0.85102 -0.05600
C 	C 	0.10680 0.62220 0.35020 0.42200
C 	C 	0.77990 0.68240 0.35280 0.34700
C 	C 	0.36320 0.87210 0.25000 -0.02300
C 	C 	0.58970 0.86160 0.45040 0.44500
C 	C 	0.75740 0.66840 0.55000 0.33600
C 	C 	0.50240 0.08930 0.54990 -0.06000
C 	C 	0.66130 0.03940 0.75000 -0.00900
C 	C 	0.51120 0.99850 0.95090 -0.00500
C 	C 	0.73950 0.48060 0.35540 0.33200
C 	C 	0.76260 0.96270 0.95010 0.33900
C 	C 	0.89320 0.37780 0.85020 0.42200
C 	C 	0.83870 0.53940 0.75000 -0.00900
C 	C 	0.49230 0.00770 0.64984 -0.01100
C 	C 	0.99760 0.58930 0.54990 -0.06000
C 	C 	0.60680 0.87780 0.85020 0.42200
C 	C 	0.00770 0.50770 0.64984 -0.01000
C 	C 	0.06380 0.41920 0.14940 0.34600
C 	C 	0.39320 0.12220 0.35020 0.42200
C 	C 	0.74260 0.16840 0.55000 0.33600
C 	C 	0.43210 0.93320 0.54770 0.33600
C 	C 	0.82810 0.51230 0.94920 -0.00500
C 	C 	0.77990 0.68240 0.14720 0.34700
C 	C 	0.00990 0.58270 0.35102 -0.05600
C 	C 	0.06790 0.43320 0.54770 0.33600
C 	C 	0.85320 0.61140 0.35249 -0.02400
C 	C 	0.56790 0.06680 0.04770 0.33600
C 	C 	0.00610 0.49790 0.25000 -0.00400
C 	C 	0.25740 0.83160 0.05000 0.33600
C 	C 	0.23740 0.03730 0.04990 0.33900
C 	C 	0.49010 0.08270 0.14898 -0.05600
C 	C 	0.99760 0.58930 0.95010 -0.06000
C 	C 	0.27990 0.81760 0.64720 0.34700
C 	C 	0.82810 0.51230 0.55080 -0.00500
C 	C 	0.00240 0.41070 0.45010 -0.06000
C 	C 	0.43620 0.91920 0.14940 0.34600
C 	C 	0.01810 0.58950 0.75000 -0.06000
C 	C 	0.33870 0.96060 0.25000 -0.00900
C 	C 	0.33450 0.97770 0.85275 -0.00300
C 	C 	0.70630 0.20290 0.75000 0.35400
C 	C 	0.51810 0.91050 0.25000 -0.05900
C 	C 	0.16550 0.47770 0.85275 -0.00300
C 	C 	0.33450 0.97770 0.64725 -0.00300
C 	C 	0.89320 0.37780 0.64980 0.42200
C 	C 	0.48880 0.00150 0.04910 -0.00500
C 	C 	0.43210 0.93320 0.95230 0.33600
C 	C 	0.99010 0.41730 0.85102 -0.05600
C 	C 	0.83740 0.60350 0.55090 -0.01600
C 	C 	0.58970 0.86160 0.04960 0.44500
C 	C 	0.85320 0.61140 0.14751 -0.02400
C 	C 	0.00990 0.58270 0.14898 -0.05600
C 	C 	0.23740 0.03730 0.45010 0.33900
C 	C 	0.13680 0.37210 0.25000 -0.02300
C 	C 	0.26050 0.51940 0.64460 0.33200
C 	C 	0.16260 0.39650 0.44910 -0.01600
C 	C 	0.73970 0.50480 0.75000 0.35700
C 	C 	0.83450 0.52230 0.14725 -0.00300
C 	C 	0.67190 0.01230 0.55080 -0.00600
C 	C 	0.98880 0.49850 0.95090 -0.00500
C 	C 	0.91030 0.36160 0.45040 0.44500
C 	C 	0.61790 0.87440 0.25000 0.42000
C 	C 	0.35320 0.88860 0.64751 -0.02400
C 	C 	0.00240 0.41070 0.04990 -0.06000
C 	C 	0.76050 0.98060 0.35540 0.33100
C 	C 	0.23950 0.01940 0.64460 0.33100
C 	C 	0.56790 0.06680 0.45230 0.33600
C 	C 	0.50770 0.99230 0.35016 -0.01100
C 	C 	0.73740 0.46270 0.95010 0.33800
C 	C 	0.66260 0.10350 0.55090 -0.01500
C 	C 	0.98190 0.41050 0.25000 -0.06000
C 	C 	0.26050 0.51940 0.85540 0.33200
C 	C 	0.11790 0.62560 0.75000 0.42100
C 	C 	0.64680 0.11140 0.14751 -0.02400
C 	C 	0.99390 0.50210 0.75000 -0.00400
C 	C 	0.73740 0.46270 0.54990 0.33800
C 	C 	0.83740 0.60350 0.94910 -0.01600
C 	C 	0.49010 0.08270 0.35102 -0.05600
C 	C 	0.56380 0.08080 0.85060 0.34600
C 	C 	0.43920 0.92510 0.75000 0.33500
C 	C 	0.66550 0.02230 0.14725 -0.00300
C 	C 	0.50610 0.00210 0.75000 -0.00600
C 	C 	0.20630 0.29710 0.25000 0.35400
C 	C 	0.86320 0.62790 0.75000 -0.02300
C 	C 	0.41030 0.13840 0.95040 0.44500
C 	C 	0.39320 0.12220 0.14980 0.42200
C 	C 	0.67190 0.01230 0.94920 -0.00600
C 	C 	0.24260 0.33160 0.45000 0.33600
C 	C 	0.33740 0.89650 0.44910 -0.01500
C 	C 	0.23970 0.99520 0.25000 0.35600
C 	C 	0.32810 0.98770 0.44920 -0.00600
C 	C 	0.06080 0.42510 0.75000 0.33400
C 	C 	0.43620 0.91920 0.35060 0.34600
C 	C 	0.74260 0.16840 0.95000 0.33600
C 	C 	0.41030 0.13840 0.54960 0.44500
C 	C 	0.01120 0.50150 0.45090 -0.00400
C 	C 	0.64680 0.11140 0.35249 -0.02400
C 	C 	0.93210 0.56680 0.45230 0.33600
C 	C 	0.75740 0.66840 0.95000 0.33600
C 	C 	0.93620 0.58080 0.64940 0.34600
C 	C 	0.60680 0.87780 0.64980 0.42200
C 	C 	0.25740 0.83160 0.45000 0.33600
C 	C 	0.79370 0.70290 0.75000 0.35400
C 	C 	0.66550 0.02230 0.35275 -0.00300
C 	C 	0.16550 0.47770 0.64725 -0.00300
C 	C 	0.99230 0.49230 0.35016 -0.01000
C 	C 	0.22010 0.31760 0.64720 0.34700
C 	C 	0.26030 0.49520 0.25000 0.35700
C 	C 	0.98880 0.49850 0.54910 -0.00400
C 	C 	0.88210 0.37440 0.25000 0.42100
C 	C 	0.06380 0.41920 0.35060 0.34600
C 	C 	0.26260 0.53730 0.04990 0.33800
C 	C 	0.76050 0.98060 0.14460 0.33100
C 	C 	0.24260 0.33160 0.05000 0.33600
C 	C 	0.00770 0.50770 0.85016 -0.01000
C 	C 	0.33740 0.89650 0.05090 -0.01500
C 	C 	0.32810 0.98770 0.05080 -0.00600
C 	C 	0.76260 0.96270 0.54990 0.33900
C 	C 	0.10680 0.62220 0.14980 0.42200
C 	C 	0.27990 0.81760 0.85280 0.34700
C 	C 	0.99230 0.49230 0.14984 -0.01000
C 	C 	0.08970 0.63840 0.95040 0.44500
C 	C 	0.91030 0.36160 0.04960 0.44500
C 	C 	0.08970 0.63840 0.54960 0.44500
C 	C 	0.73950 0.48060 0.14460 0.33200
C 	C 	0.56380 0.08080 0.64940 0.34600
C 	C 	0.76030 0.00480 0.75000 0.35600
C 	C 	0.93620 0.58080 0.85060 0.34600
C 	C 	0.83450 0.52230 0.35275 -0.00300
C 	C 	0.14680 0.38860 0.85249 -0.02400
C 	C 	0.50240 0.08930 0.95010 -0.06000
C 	C 	0.99010 0.41730 0.64898 -0.05600
C 	C 	0.63680 0.12790 0.75000 -0.02300
C 	C 	0.66260 0.10350 0.94910 -0.01500
C 	C 	0.16130 0.46060 0.25000 -0.00900
C 	C 	0.49230 0.00770 0.85016 -0.01100
C 	C 	0.48190 0.08950 0.75000 -0.05900
C 	C 	0.50770 0.99230 0.14984 -0.01100
C 	C 	0.48880 0.00150 0.45090 -0.00500
C 	C 	0.26260 0.53730 0.45010 0.33800
C 	C 	0.22010 0.31760 0.85280 0.34700
C 	C 	0.50990 0.91730 0.64898 -0.05600
N 	N 	0.04770 0.34700 0.25000 -0.11600
N 	N 	0.59560 0.96180 0.55026 -0.16800
N 	N 	0.90440 0.46180 0.94974 -0.16800
N 	N 	0.92200 0.64130 0.94974 -0.11100
N 	N 	0.07800 0.35870 0.05026 -0.11100
N 	N 	0.59560 0.96180 0.94974 -0.16800
N 	N 	0.40370 0.03600 0.64847 -0.17300
N 	N 	0.05820 0.35940 0.64782 -0.11500
N 	N 	0.90370 0.46400 0.14847 -0.17300
N 	N 	0.54770 0.15300 0.75000 -0.11600
N 	N 	0.94180 0.64060 0.35218 -0.11500
N 	N 	0.42200 0.85870 0.44974 -0.11100
N 	N 	0.92200 0.64130 0.55026 -0.11100
N 	N 	0.59630 0.96400 0.14847 -0.17300
N 	N 	0.40370 0.03600 0.85153 -0.17300
N 	N 	0.90420 0.47870 0.75000 -0.17100
N 	N 	0.44180 0.85940 0.64782 -0.11500
N 	N 	0.45230 0.84700 0.25000 -0.11600
N 	N 	0.94180 0.64060 0.14782 -0.11500
N 	N 	0.40440 0.03820 0.44974 -0.16800
N 	N 	0.90370 0.46400 0.35153 -0.17300
N 	N 	0.40420 0.02130 0.25000 -0.17000
N 	N 	0.09580 0.52130 0.25000 -0.17100
N 	N 	0.07800 0.35870 0.44974 -0.11100
N 	N 	0.09630 0.53600 0.85153 -0.17300
N 	N 	0.90440 0.46180 0.55026 -0.16800
N 	N 	0.57800 0.14130 0.94974 -0.11100
N 	N 	0.59630 0.96400 0.35153 -0.17300
N 	N 	0.09560 0.53820 0.05026 -0.16800
N 	N 	0.44180 0.85940 0.85218 -0.11500
N 	N 	0.55820 0.14060 0.14782 -0.11500
N 	N 	0.05820 0.35940 0.85218 -0.11500
N 	N 	0.09630 0.53600 0.64847 -0.17300
N 	N 	0.55820 0.14060 0.35218 -0.11500
N 	N 	0.09560 0.53820 0.44974 -0.16800
N 	N 	0.59580 0.97870 0.75000 -0.17000
N 	N 	0.40440 0.03820 0.05026 -0.16800
N 	N 	0.42200 0.85870 0.05026 -0.11100
N 	N 	0.57800 0.14130 0.55026 -0.11100
N 	N 	0.95230 0.65300 0.75000 -0.11600
O 	O 	0.85560 0.55940 0.25000 -0.28900
O 	O 	0.24160 0.28330 0.88514 -0.43200
O 	O 	0.24520 0.11960 0.04986 -0.42200
O 	O 	0.16450 0.99470 0.45120 -0.29700
O 	O 	0.33550 0.49470 0.04880 -0.29600
O 	O 	0.23310 0.26760 0.21755 -0.45600
O 	O 	0.73310 0.23240 0.78245 -0.45600
O 	O 	0.24590 0.79470 0.82038 -0.46800
O 	O 	0.64650 0.06200 0.64696 -0.28600
O 	O 	0.97810 0.65060 0.25000 -0.48500
O 	O 	0.32960 0.47040 0.85750 -0.29300
O 	O 	0.12360 0.65850 0.91758 -0.49200
O 	O 	0.37710 0.15850 0.51620 -0.49000
O 	O 	0.17040 0.97040 0.64250 -0.29300
O 	O 	0.26750 0.57850 0.25000 -0.40200
O 	O 	0.25410 0.29470 0.67962 -0.46800
O 	O 	0.34630 0.14030 0.78330 -0.48200
O 	O 	0.73310 0.23240 0.71755 -0.45600
O 	O 	0.64800 0.03860 0.04694 -0.27300
O 	O 	0.82400 0.05530 0.75000 -0.31400
O 	O 	0.64800 0.03860 0.45306 -0.27300
O 	O 	0.54270 0.14770 0.04786 -0.47000
O 	O 	0.62360 0.84150 0.08242 -0.49200
O 	O 	0.71620 0.68670 0.91806 -0.44600
O 	O 	0.35200 0.96140 0.54694 -0.27300
O 	O 	0.75480 0.88040 0.95014 -0.42200
O 	O 	0.33550 0.49470 0.45120 -0.29600
O 	O 	0.76170 0.89760 0.14465 -0.41400
O 	O 	0.74170 0.70620 0.98183 -0.42900
O 	O 	0.32400 0.44470 0.25000 -0.31400
O 	O 	0.14800 0.46140 0.95306 -0.27300
O 	O 	0.45730 0.85230 0.95214 -0.47000
O 	O 	0.75830 0.20620 0.98183 -0.42900
O 	O 	0.63690 0.84850 0.88249 -0.48900
O 	O 	0.47810 0.84940 0.75000 -0.48500
O 	O 	0.13690 0.65150 0.38249 -0.48900
O 	O 	0.97040 0.65760 0.65062 -0.48800
O 	O 	0.24160 0.28330 0.61486 -0.43200
O 	O 	0.73830 0.39760 0.14465 -0.41400
O 	O 	0.52960 0.15760 0.84938 -0.48900
O 	O 	0.02960 0.34240 0.15062 -0.48800
O 	O 	0.47040 0.84240 0.15062 -0.48900
O 	O 	0.12360 0.65850 0.58242 -0.49200
O 	O 	0.64800 0.87360 0.68265 -0.46700
O 	O 	0.25480 0.61960 0.04986 -0.42200
O 	O 	0.37710 0.15850 0.98380 -0.49000
O 	O 	0.04270 0.35230 0.54786 -0.47000
O 	O 	0.95730 0.64770 0.45214 -0.47000
O 	O 	0.87640 0.34150 0.08242 -0.49200
O 	O 	0.85350 0.56200 0.64696 -0.28600
O 	O 	0.24170 0.79380 0.01817 -0.42900
O 	O 	0.54270 0.14770 0.45214 -0.47000
O 	O 	0.23830 0.10240 0.85535 -0.41400
O 	O 	0.78380 0.18670 0.91806 -0.44600
O 	O 	0.15370 0.64030 0.78330 -0.48200
O 	O 	0.84630 0.35970 0.21670 -0.48200
O 	O 	0.32960 0.47040 0.64250 -0.29300
O 	O 	0.14800 0.62640 0.31735 -0.46700
O 	O 	0.23830 0.10240 0.64465 -0.41400
O 	O 	0.25840 0.78330 0.61486 -0.43200
O 	O 	0.75410 0.20530 0.17962 -0.46800
O 	O 	0.25480 0.61960 0.45014 -0.42200
O 	O 	0.35200 0.12640 0.31735 -0.46700
O 	O 	0.73250 0.42150 0.75000 -0.40200
O 	O 	0.28380 0.31330 0.08194 -0.44600
O 	O 	0.26170 0.60240 0.85535 -0.41400
O 	O 	0.52190 0.15060 0.25000 -0.48500
O 	O 	0.73830 0.39760 0.35535 -0.41400
O 	O 	0.87640 0.34150 0.41758 -0.49200
O 	O 	0.74170 0.70620 0.51817 -0.42900
O 	O 	0.74590 0.70530 0.32038 -0.46800
O 	O 	0.62290 0.84150 0.01620 -0.49000
O 	O 	0.35200 0.12640 0.18265 -0.46700
O 	O 	0.35350 0.93800 0.35304 -0.28600
O 	O 	0.25830 0.29380 0.01817 -0.42900
O 	O 	0.62360 0.84150 0.41758 -0.49200
O 	O 	0.83550 0.00530 0.54880 -0.29700
O 	O 	0.67600 0.55530 0.75000 -0.31400
O 	O 	0.64800 0.87360 0.81735 -0.46700
O 	O 	0.82960 0.02960 0.14250 -0.29300
O 	O 	0.26170 0.60240 0.64465 -0.41400
O 	O 	0.34630 0.14030 0.71670 -0.48200
O 	O 	0.75840 0.71670 0.38514 -0.43200
O 	O 	0.71620 0.68670 0.58194 -0.44600
O 	O 	0.78380 0.18670 0.58194 -0.44600
O 	O 	0.14650 0.43800 0.35304 -0.28600
O 	O 	0.35560 0.94060 0.75000 -0.28900
O 	O 	0.64440 0.05940 0.25000 -0.28900
O 	O 	0.35350 0.93800 0.14696 -0.28600
O 	O 	0.14440 0.44060 0.75000 -0.28900
O 	O 	0.16450 0.99470 0.04880 -0.29700
O 	O 	0.85200 0.37360 0.81735 -0.46700
O 	O 	0.86310 0.34850 0.61751 -0.48900
O 	O 	0.75840 0.71670 0.11486 -0.43200
O 	O 	0.35200 0.96140 0.95306 -0.27300
O 	O 	0.76690 0.73240 0.71755 -0.45600
O 	O 	0.14650 0.43800 0.14696 -0.28600
O 	O 	0.24590 0.79470 0.67962 -0.46800
O 	O 	0.84630 0.35970 0.28330 -0.48200
O 	O 	0.47040 0.84240 0.34938 -0.48900
O 	O 	0.63690 0.84850 0.61751 -0.48900
O 	O 	0.21620 0.81330 0.41806 -0.44600
O 	O 	0.36310 0.15150 0.11751 -0.48900
O 	O 	0.17600 0.94470 0.25000 -0.31400
O 	O 	0.85200 0.53860 0.45306 -0.27300
O 	O 	0.75480 0.88040 0.54986 -0.42200
O 	O 	0.97040 0.65760 0.84938 -0.48800
O 	O 	0.74160 0.21670 0.11486 -0.43200
O 	O 	0.15370 0.64030 0.71670 -0.48200
O 	O 	0.36310 0.15150 0.38249 -0.48900
O 	O 	0.37640 0.15850 0.58242 -0.49200
O 	O 	0.87710 0.34150 0.48380 -0.49000
O 	O 	0.75830 0.20620 0.51817 -0.42900
O 	O 	0.76750 0.92150 0.75000 -0.40100
O 	O 	0.24520 0.11960 0.45014 -0.42200
O 	O 	0.76690 0.73240 0.78245 -0.45600
O 	O 	0.76170 0.89760 0.35535 -0.41400
O 	O 	0.85350 0.56200 0.85304 -0.28600
O 	O 	0.37640 0.15850 0.91758 -0.49200
O 	O 	0.75410 0.20530 0.32038 -0.46800
O 	O 	0.87710 0.34150 0.01620 -0.49000
O 	O 	0.45730 0.85230 0.54786 -0.47000
O 	O 	0.82960 0.02960 0.35750 -0.29300
O 	O 	0.83550 0.00530 0.95120 -0.29700
O 	O 	0.66450 0.50530 0.95120 -0.29600
O 	O 	0.02190 0.34940 0.75000 -0.48500
O 	O 	0.66450 0.50530 0.54880 -0.29600
O 	O 	0.86310 0.34850 0.88249 -0.48900
O 	O 	0.95730 0.64770 0.04786 -0.47000
O 	O 	0.14800 0.62640 0.18265 -0.46700
O 	O 	0.28380 0.31330 0.41806 -0.44600
O 	O 	0.04270 0.35230 0.95214 -0.47000
O 	O 	0.26690 0.76760 0.28245 -0.45600
O 	O 	0.74520 0.38040 0.95014 -0.42200
O 	O 	0.74160 0.21670 0.38514 -0.43200
O 	O 	0.65370 0.85970 0.21670 -0.48200
O 	O 	0.25410 0.29470 0.82038 -0.46800
O 	O 	0.25830 0.29380 0.48183 -0.42900
O 	O 	0.65370 0.85970 0.28330 -0.48200
O 	O 	0.12290 0.65850 0.51620 -0.49000
O 	O 	0.74520 0.38040 0.54986 -0.42200
O 	O 	0.17040 0.97040 0.85750 -0.29300
O 	O 	0.52960 0.15760 0.65062 -0.48900
O 	O 	0.74590 0.70530 0.17962 -0.46800
O 	O 	0.26690 0.76760 0.21755 -0.45600
O 	O 	0.12290 0.65850 0.98380 -0.49000
O 	O 	0.23310 0.26760 0.28245 -0.45600
O 	O 	0.13690 0.65150 0.11751 -0.48900
O 	O 	0.85200 0.53860 0.04694 -0.27300
O 	O 	0.23250 0.07850 0.25000 -0.40100
O 	O 	0.24170 0.79380 0.48183 -0.42900
O 	O 	0.85200 0.37360 0.68265 -0.46700
O 	O 	0.25840 0.78330 0.88514 -0.43200
O 	O 	0.64650 0.06200 0.85304 -0.28600
O 	O 	0.62290 0.84150 0.48380 -0.49000
O 	O 	0.21620 0.81330 0.08194 -0.44600
O 	O 	0.67040 0.52960 0.35750 -0.29300
O 	O 	0.02960 0.34240 0.34938 -0.48800
O 	O 	0.14800 0.46140 0.54694 -0.27300
O 	O 	0.67040 0.52960 0.14250 -0.29300
