data_crystal

_cell_length_a 7.44070
_cell_length_b 9.76600
_cell_length_c 9.85000
_cell_angle_alpha 118.29700
_cell_angle_beta  102.24700
_cell_angle_gamma 91.43400

_symmetry_space_group_name_	'P 1'
_symmetry_space_group_name_H-M	'P 1'

loop_
_symmetry_equiv_pos_as_xyz
  x,y,z

loop_
_atom_site_label
_atom_site_type_symbol
_atom_site_fract_x
_atom_site_fract_y
_atom_site_fract_z
_atom_site_charge
Cd	Cd	0.73790 0.97328 0.48397 1.21200
O 	O 	0.73280 0.87000 0.67180 -0.35500
O 	O 	0.57060 0.05640 0.67030 -0.51100
O 	O 	0.02250 0.10600 0.67310 -0.49200
O 	O 	0.26050 0.27210 0.71350 -0.40200
C 	C 	0.62740 0.96750 0.72920 0.29900
C 	C 	0.56310 0.98460 0.87020 -0.07700
C 	C 	0.46030 0.10470 0.94350 -0.02700
H 	H 	0.43450 0.17530 0.90620 0.04300
C 	C 	0.39670 0.11900 0.07150 -0.02200
H 	H 	0.32690 0.19820 0.11850 0.05300
C 	C 	0.11500 0.24260 0.74630 0.31900
C 	C 	0.05430 0.37400 0.87820 -0.07800
C 	C 	0.86530 0.38290 0.87200 -0.01300
H 	H 	0.77550 0.30450 0.78680 0.02100
C 	C 	0.18730 0.49150 0.00730 -0.02200
H 	H 	0.31290 0.48550 0.01230 0.05200
Cd	Cd	0.26210 0.02672 0.51603 1.21200
O 	O 	0.26720 0.13000 0.32820 -0.35500
O 	O 	0.42940 0.94360 0.32970 -0.51100
O 	O 	0.97750 0.89400 0.32690 -0.49200
O 	O 	0.73950 0.72790 0.28650 -0.40200
C 	C 	0.37260 0.03250 0.27080 0.29900
C 	C 	0.43690 0.01540 0.12980 -0.07700
C 	C 	0.53970 0.89530 0.05650 -0.02700
H 	H 	0.56550 0.82470 0.09380 0.04300
C 	C 	0.60330 0.88100 0.92850 -0.02200
H 	H 	0.67310 0.80180 0.88150 0.05300
C 	C 	0.88500 0.75740 0.25370 0.31900
C 	C 	0.94570 0.62600 0.12180 -0.07800
C 	C 	0.13470 0.61710 0.12800 -0.01300
H 	H 	0.22450 0.69550 0.21320 0.02100
C 	C 	0.81270 0.50850 0.99270 -0.02200
H 	H 	0.68710 0.51450 0.98770 0.05200
