data_crystal

_cell_length_a 33.94180
_cell_length_b 33.94180
_cell_length_c 14.21850
_cell_angle_alpha 90.00000
_cell_angle_beta  90.00000
_cell_angle_gamma 120.00000

_symmetry_space_group_name_	'P 1'
_symmetry_space_group_name_H-M	'P 1'

loop_
_symmetry_equiv_pos_as_xyz
  x,y,z

loop_
_atom_site_label
_atom_site_type_symbol
_atom_site_fract_x
_atom_site_fract_y
_atom_site_fract_z
_atom_site_charge
Zn	Zn	0.34026 0.07965 0.62148 1.23300
O 	O 	0.32122 0.12296 0.57839 -0.48000
O 	O 	0.29731 0.01927 0.57878 -0.50900
O 	O 	0.40331 0.10776 0.57848 -0.49900
O 	O 	0.62474 0.27262 0.42188 -0.45000
O 	O 	0.33526 0.08823 0.75496 -0.43800
O 	O 	0.36732 0.04584 0.76078 -0.32100
O 	O 	0.67733 0.30655 0.25080 -0.20800
O 	O 	0.65317 0.35623 0.25220 -0.31600
C 	C 	0.32807 0.24987 0.58570 0.04700
C 	C 	0.34650 0.28346 0.65470 -0.07900
H 	H 	0.34070 0.30810 0.65390 0.07400
C 	C 	0.37353 0.28040 0.72499 -0.02300
H 	H 	0.38610 0.30290 0.77290 0.04300
C 	C 	0.38214 0.24452 0.72500 -0.03000
H 	H 	0.40040 0.24250 0.77320 0.04100
C 	C 	0.36443 0.21182 0.65565 -0.07000
H 	H 	0.37100 0.18770 0.65570 0.06200
C 	C 	0.33689 0.21404 0.58518 0.04000
C 	C 	0.54701 0.18111 0.41601 0.04800
C 	C 	0.57699 0.18006 0.35090 -0.07700
H 	H 	0.60800 0.20350 0.35020 0.08300
C 	C 	0.56103 0.14407 0.28640 -0.02600
H 	H 	0.58110 0.14300 0.24140 0.04000
C 	C 	0.51565 0.10991 0.28870 -0.02300
H 	H 	0.50520 0.08520 0.24600 0.03700
C 	C 	0.48558 0.11131 0.35170 -0.08000
H 	H 	0.45450 0.08820 0.35120 0.07500
C 	C 	0.50108 0.14691 0.41630 0.04700
C 	C 	0.35692 0.07445 0.90750 -0.10100
C 	C 	0.35353 0.11480 0.95108 0.04200
C 	C 	0.35374 0.15047 0.90310 -0.07700
H 	H 	0.35350 0.15040 0.83620 0.07800
C 	C 	0.35428 0.18630 0.95170 -0.02200
H 	H 	0.35430 0.20810 0.90850 0.03800
C 	C 	0.40037 0.07953 0.95043 0.04100
C 	C 	0.43897 0.08706 0.90250 -0.07600
H 	H 	0.43930 0.08780 0.83570 0.07200
C 	C 	0.47684 0.09350 0.95050 -0.02200
H 	H 	0.50040 0.09770 0.90730 0.03600
C 	C 	0.31721 0.03234 0.95132 0.03900
C 	C 	0.28282 0.99579 0.90210 -0.07200
H 	H 	0.28260 0.99570 0.83530 0.06600
C 	C 	0.24929 0.95996 0.95130 -0.02400
H 	H 	0.22810 0.93730 0.90870 0.04200
C 	C 	0.35393 0.06960 0.79963 0.32500
C 	C 	0.63875 0.28679 0.04710 0.06200
C 	C 	0.61123 0.24485 0.09830 -0.08400
H 	H 	0.60960 0.24490 0.16500 0.10400
C 	C 	0.58727 0.20453 0.04820 -0.01700
H 	H 	0.57130 0.17970 0.09110 0.03800
Zn	Zn	0.92035 0.26060 0.62148 1.23300
O 	O 	0.87704 0.19826 0.57839 -0.48000
O 	O 	0.98073 0.27804 0.57878 -0.50900
O 	O 	0.89224 0.29555 0.57848 -0.49900
O 	O 	0.72738 0.35212 0.42188 -0.45000
O 	O 	0.91177 0.24703 0.75496 -0.43800
O 	O 	0.95416 0.32148 0.76078 -0.32100
O 	O 	0.69345 0.37078 0.25080 -0.20800
O 	O 	0.64377 0.29694 0.25220 -0.31600
C 	C 	0.75013 0.07820 0.58570 0.04700
C 	C 	0.71654 0.06304 0.65470 -0.07900
H 	H 	0.69190 0.03260 0.65390 0.07400
C 	C 	0.71960 0.09313 0.72499 -0.02300
H 	H 	0.69710 0.08320 0.77290 0.04300
C 	C 	0.75548 0.13762 0.72500 -0.03000
H 	H 	0.75750 0.15790 0.77320 0.04100
C 	C 	0.78818 0.15261 0.65565 -0.07000
H 	H 	0.81230 0.18330 0.65570 0.06200
C 	C 	0.78596 0.12285 0.58518 0.04000
C 	C 	0.81889 0.36590 0.41601 0.04800
C 	C 	0.81994 0.39693 0.35090 -0.07700
H 	H 	0.79650 0.40450 0.35020 0.08300
C 	C 	0.85593 0.41696 0.28640 -0.02600
H 	H 	0.85700 0.43810 0.24140 0.04000
C 	C 	0.89009 0.40574 0.28870 -0.02300
H 	H 	0.91480 0.42000 0.24600 0.03700
C 	C 	0.88869 0.37427 0.35170 -0.08000
H 	H 	0.91180 0.36630 0.35120 0.07500
C 	C 	0.85309 0.35417 0.41630 0.04700
C 	C 	0.92555 0.28247 0.90750 -0.10100
C 	C 	0.88520 0.23873 0.95108 0.04200
C 	C 	0.84953 0.20327 0.90310 -0.07700
H 	H 	0.84960 0.20310 0.83620 0.07800
C 	C 	0.81370 0.16798 0.95170 -0.02200
H 	H 	0.79190 0.14620 0.90850 0.03800
C 	C 	0.92047 0.32084 0.95043 0.04100
C 	C 	0.91294 0.35191 0.90250 -0.07600
H 	H 	0.91220 0.35150 0.83570 0.07200
C 	C 	0.90650 0.38334 0.95050 -0.02200
H 	H 	0.90230 0.40270 0.90730 0.03600
C 	C 	0.96766 0.28487 0.95132 0.03900
C 	C 	0.00421 0.28703 0.90210 -0.07200
H 	H 	0.00430 0.28690 0.83530 0.06600
C 	C 	0.04004 0.28933 0.95130 -0.02400
H 	H 	0.06270 0.29080 0.90870 0.04200
C 	C 	0.93040 0.28433 0.79963 0.32500
C 	C 	0.71321 0.35196 0.04710 0.06200
C 	C 	0.75515 0.36638 0.09830 -0.08400
H 	H 	0.75510 0.36470 0.16500 0.10400
C 	C 	0.79547 0.38274 0.04820 -0.01700
H 	H 	0.82030 0.39160 0.09110 0.03800
Zn	Zn	0.73940 0.65974 0.62148 1.23300
O 	O 	0.80174 0.67878 0.57839 -0.48000
O 	O 	0.72196 0.70269 0.57878 -0.50900
O 	O 	0.70445 0.59669 0.57848 -0.49900
O 	O 	0.64788 0.37526 0.42188 -0.45000
O 	O 	0.75297 0.66474 0.75496 -0.43800
O 	O 	0.67852 0.63268 0.76078 -0.32100
O 	O 	0.62922 0.32267 0.25080 -0.20800
O 	O 	0.70306 0.34683 0.25220 -0.31600
C 	C 	0.92180 0.67193 0.58570 0.04700
C 	C 	0.93696 0.65350 0.65470 -0.07900
H 	H 	0.96740 0.65930 0.65390 0.07400
C 	C 	0.90687 0.62647 0.72499 -0.02300
H 	H 	0.91680 0.61390 0.77290 0.04300
C 	C 	0.86238 0.61786 0.72500 -0.03000
H 	H 	0.84210 0.59960 0.77320 0.04100
C 	C 	0.84739 0.63557 0.65565 -0.07000
H 	H 	0.81670 0.62900 0.65570 0.06200
C 	C 	0.87715 0.66311 0.58518 0.04000
C 	C 	0.63410 0.45299 0.41601 0.04800
C 	C 	0.60307 0.42301 0.35090 -0.07700
H 	H 	0.59550 0.39200 0.35020 0.08300
C 	C 	0.58304 0.43897 0.28640 -0.02600
H 	H 	0.56190 0.41890 0.24140 0.04000
C 	C 	0.59426 0.48435 0.28870 -0.02300
H 	H 	0.58000 0.49480 0.24600 0.03700
C 	C 	0.62573 0.51442 0.35170 -0.08000
H 	H 	0.63370 0.54550 0.35120 0.07500
C 	C 	0.64583 0.49892 0.41630 0.04700
C 	C 	0.71753 0.64308 0.90750 -0.10100
C 	C 	0.76127 0.64647 0.95108 0.04200
C 	C 	0.79673 0.64626 0.90310 -0.07700
H 	H 	0.79690 0.64650 0.83620 0.07800
C 	C 	0.83202 0.64572 0.95170 -0.02200
H 	H 	0.85380 0.64570 0.90850 0.03800
C 	C 	0.67916 0.59963 0.95043 0.04100
C 	C 	0.64809 0.56103 0.90250 -0.07600
H 	H 	0.64850 0.56070 0.83570 0.07200
C 	C 	0.61666 0.52316 0.95050 -0.02200
H 	H 	0.59730 0.49960 0.90730 0.03600
C 	C 	0.71513 0.68279 0.95132 0.03900
C 	C 	0.71297 0.71718 0.90210 -0.07200
H 	H 	0.71310 0.71740 0.83530 0.06600
C 	C 	0.71067 0.75071 0.95130 -0.02400
H 	H 	0.70920 0.77190 0.90870 0.04200
C 	C 	0.71567 0.64607 0.79963 0.32500
C 	C 	0.64804 0.36125 0.04710 0.06200
C 	C 	0.63362 0.38877 0.09830 -0.08400
H 	H 	0.63530 0.39040 0.16500 0.10400
C 	C 	0.61726 0.41273 0.04820 -0.01700
H 	H 	0.60840 0.42870 0.09110 0.03800
Zn	Zn	0.65974 0.92035 0.62148 1.23300
O 	O 	0.67878 0.87704 0.57839 -0.48000
O 	O 	0.70269 0.98073 0.57878 -0.50900
O 	O 	0.59669 0.89224 0.57848 -0.49900
O 	O 	0.37526 0.72738 0.42188 -0.45000
O 	O 	0.66474 0.91177 0.75496 -0.43800
O 	O 	0.63268 0.95416 0.76078 -0.32100
O 	O 	0.32267 0.69345 0.25080 -0.20800
O 	O 	0.34683 0.64377 0.25220 -0.31600
C 	C 	0.67193 0.75013 0.58570 0.04700
C 	C 	0.65350 0.71654 0.65470 -0.07900
H 	H 	0.65930 0.69190 0.65390 0.07400
C 	C 	0.62647 0.71960 0.72499 -0.02300
H 	H 	0.61390 0.69710 0.77290 0.04300
C 	C 	0.61786 0.75548 0.72500 -0.03000
H 	H 	0.59960 0.75750 0.77320 0.04100
C 	C 	0.63557 0.78818 0.65565 -0.07000
H 	H 	0.62900 0.81230 0.65570 0.06200
C 	C 	0.66311 0.78596 0.58518 0.04000
C 	C 	0.45299 0.81889 0.41601 0.04800
C 	C 	0.42301 0.81994 0.35090 -0.07700
H 	H 	0.39200 0.79650 0.35020 0.08300
C 	C 	0.43897 0.85593 0.28640 -0.02600
H 	H 	0.41890 0.85700 0.24140 0.04000
C 	C 	0.48435 0.89009 0.28870 -0.02300
H 	H 	0.49480 0.91480 0.24600 0.03700
C 	C 	0.51442 0.88869 0.35170 -0.08000
H 	H 	0.54550 0.91180 0.35120 0.07500
C 	C 	0.49892 0.85309 0.41630 0.04700
C 	C 	0.64308 0.92555 0.90750 -0.10100
C 	C 	0.64647 0.88520 0.95108 0.04200
C 	C 	0.64626 0.84953 0.90310 -0.07700
H 	H 	0.64650 0.84960 0.83620 0.07800
C 	C 	0.64572 0.81370 0.95170 -0.02200
H 	H 	0.64570 0.79190 0.90850 0.03800
C 	C 	0.59963 0.92047 0.95043 0.04100
C 	C 	0.56103 0.91294 0.90250 -0.07600
H 	H 	0.56070 0.91220 0.83570 0.07200
C 	C 	0.52316 0.90650 0.95050 -0.02200
H 	H 	0.49960 0.90230 0.90730 0.03600
C 	C 	0.68279 0.96766 0.95132 0.03900
C 	C 	0.71718 0.00421 0.90210 -0.07200
H 	H 	0.71740 0.00430 0.83530 0.06600
C 	C 	0.75071 0.04004 0.95130 -0.02400
H 	H 	0.77190 0.06270 0.90870 0.04200
C 	C 	0.64607 0.93040 0.79963 0.32500
C 	C 	0.36125 0.71321 0.04710 0.06200
C 	C 	0.38877 0.75515 0.09830 -0.08400
H 	H 	0.39040 0.75510 0.16500 0.10400
C 	C 	0.41273 0.79547 0.04820 -0.01700
H 	H 	0.42870 0.82030 0.09110 0.03800
Zn	Zn	0.07965 0.73940 0.62148 1.23300
O 	O 	0.12296 0.80174 0.57839 -0.48000
O 	O 	0.01927 0.72196 0.57878 -0.50900
O 	O 	0.10776 0.70445 0.57848 -0.49900
O 	O 	0.27262 0.64788 0.42188 -0.45000
O 	O 	0.08823 0.75297 0.75496 -0.43800
O 	O 	0.04584 0.67852 0.76078 -0.32100
O 	O 	0.30655 0.62922 0.25080 -0.20800
O 	O 	0.35623 0.70306 0.25220 -0.31600
C 	C 	0.24987 0.92180 0.58570 0.04700
C 	C 	0.28346 0.93696 0.65470 -0.07900
H 	H 	0.30810 0.96740 0.65390 0.07400
C 	C 	0.28040 0.90687 0.72499 -0.02300
H 	H 	0.30290 0.91680 0.77290 0.04300
C 	C 	0.24452 0.86238 0.72500 -0.03000
H 	H 	0.24250 0.84210 0.77320 0.04100
C 	C 	0.21182 0.84739 0.65565 -0.07000
H 	H 	0.18770 0.81670 0.65570 0.06200
C 	C 	0.21404 0.87715 0.58518 0.04000
C 	C 	0.18111 0.63410 0.41601 0.04800
C 	C 	0.18006 0.60307 0.35090 -0.07700
H 	H 	0.20350 0.59550 0.35020 0.08300
C 	C 	0.14407 0.58304 0.28640 -0.02600
H 	H 	0.14300 0.56190 0.24140 0.04000
C 	C 	0.10991 0.59426 0.28870 -0.02300
H 	H 	0.08520 0.58000 0.24600 0.03700
C 	C 	0.11131 0.62573 0.35170 -0.08000
H 	H 	0.08820 0.63370 0.35120 0.07500
C 	C 	0.14691 0.64583 0.41630 0.04700
C 	C 	0.07445 0.71753 0.90750 -0.10100
C 	C 	0.11480 0.76127 0.95108 0.04200
C 	C 	0.15047 0.79673 0.90310 -0.07700
H 	H 	0.15040 0.79690 0.83620 0.07800
C 	C 	0.18630 0.83202 0.95170 -0.02200
H 	H 	0.20810 0.85380 0.90850 0.03800
C 	C 	0.07953 0.67916 0.95043 0.04100
C 	C 	0.08706 0.64809 0.90250 -0.07600
H 	H 	0.08780 0.64850 0.83570 0.07200
C 	C 	0.09350 0.61666 0.95050 -0.02200
H 	H 	0.09770 0.59730 0.90730 0.03600
C 	C 	0.03234 0.71513 0.95132 0.03900
C 	C 	0.99579 0.71297 0.90210 -0.07200
H 	H 	0.99570 0.71310 0.83530 0.06600
C 	C 	0.95996 0.71067 0.95130 -0.02400
H 	H 	0.93730 0.70920 0.90870 0.04200
C 	C 	0.06960 0.71567 0.79963 0.32500
C 	C 	0.28679 0.64804 0.04710 0.06200
C 	C 	0.24485 0.63362 0.09830 -0.08400
H 	H 	0.24490 0.63530 0.16500 0.10400
C 	C 	0.20453 0.61726 0.04820 -0.01700
H 	H 	0.17970 0.60840 0.09110 0.03800
Zn	Zn	0.26060 0.34026 0.62148 1.23300
O 	O 	0.19826 0.32122 0.57839 -0.48000
O 	O 	0.27804 0.29731 0.57878 -0.50900
O 	O 	0.29555 0.40331 0.57848 -0.49900
O 	O 	0.35212 0.62474 0.42188 -0.45000
O 	O 	0.24703 0.33526 0.75496 -0.43800
O 	O 	0.32148 0.36732 0.76078 -0.32100
O 	O 	0.37078 0.67733 0.25080 -0.20800
O 	O 	0.29694 0.65317 0.25220 -0.31600
C 	C 	0.07820 0.32807 0.58570 0.04700
C 	C 	0.06304 0.34650 0.65470 -0.07900
H 	H 	0.03260 0.34070 0.65390 0.07400
C 	C 	0.09313 0.37353 0.72499 -0.02300
H 	H 	0.08320 0.38610 0.77290 0.04300
C 	C 	0.13762 0.38214 0.72500 -0.03000
H 	H 	0.15790 0.40040 0.77320 0.04100
C 	C 	0.15261 0.36443 0.65565 -0.07000
H 	H 	0.18330 0.37100 0.65570 0.06200
C 	C 	0.12285 0.33689 0.58518 0.04000
C 	C 	0.36590 0.54701 0.41601 0.04800
C 	C 	0.39693 0.57699 0.35090 -0.07700
H 	H 	0.40450 0.60800 0.35020 0.08300
C 	C 	0.41696 0.56103 0.28640 -0.02600
H 	H 	0.43810 0.58110 0.24140 0.04000
C 	C 	0.40574 0.51565 0.28870 -0.02300
H 	H 	0.42000 0.50520 0.24600 0.03700
C 	C 	0.37427 0.48558 0.35170 -0.08000
H 	H 	0.36630 0.45450 0.35120 0.07500
C 	C 	0.35417 0.50108 0.41630 0.04700
C 	C 	0.28247 0.35692 0.90750 -0.10100
C 	C 	0.23873 0.35353 0.95108 0.04200
C 	C 	0.20327 0.35374 0.90310 -0.07700
H 	H 	0.20310 0.35350 0.83620 0.07800
C 	C 	0.16798 0.35428 0.95170 -0.02200
H 	H 	0.14620 0.35430 0.90850 0.03800
C 	C 	0.32084 0.40037 0.95043 0.04100
C 	C 	0.35191 0.43897 0.90250 -0.07600
H 	H 	0.35150 0.43930 0.83570 0.07200
C 	C 	0.38334 0.47684 0.95050 -0.02200
H 	H 	0.40270 0.50040 0.90730 0.03600
C 	C 	0.28487 0.31721 0.95132 0.03900
C 	C 	0.28703 0.28282 0.90210 -0.07200
H 	H 	0.28690 0.28260 0.83530 0.06600
C 	C 	0.28933 0.24929 0.95130 -0.02400
H 	H 	0.29080 0.22810 0.90870 0.04200
C 	C 	0.28433 0.35393 0.79963 0.32500
C 	C 	0.35196 0.63875 0.04710 0.06200
C 	C 	0.36638 0.61123 0.09830 -0.08400
H 	H 	0.36470 0.60960 0.16500 0.10400
C 	C 	0.38274 0.58727 0.04820 -0.01700
H 	H 	0.39160 0.57130 0.09110 0.03800
Zn	Zn	0.65974 0.92035 0.37852 1.23300
O 	O 	0.67878 0.87704 0.42161 -0.48000
O 	O 	0.70269 0.98073 0.42122 -0.50900
O 	O 	0.59669 0.89224 0.42152 -0.49900
O 	O 	0.37526 0.72738 0.57812 -0.45000
O 	O 	0.66474 0.91177 0.24504 -0.43800
O 	O 	0.63268 0.95416 0.23922 -0.32100
O 	O 	0.32267 0.69345 0.74920 -0.20800
O 	O 	0.34683 0.64377 0.74780 -0.31600
C 	C 	0.67193 0.75013 0.41430 0.04700
C 	C 	0.65350 0.71654 0.34530 -0.07900
H 	H 	0.65930 0.69190 0.34610 0.07400
C 	C 	0.62647 0.71960 0.27501 -0.02300
H 	H 	0.61390 0.69710 0.22710 0.04300
C 	C 	0.61786 0.75548 0.27500 -0.03000
H 	H 	0.59960 0.75750 0.22680 0.04100
C 	C 	0.63557 0.78818 0.34435 -0.07000
H 	H 	0.62900 0.81230 0.34430 0.06200
C 	C 	0.66311 0.78596 0.41482 0.04000
C 	C 	0.45299 0.81889 0.58399 0.04800
C 	C 	0.42301 0.81994 0.64910 -0.07700
H 	H 	0.39200 0.79650 0.64980 0.08300
C 	C 	0.43897 0.85593 0.71360 -0.02600
H 	H 	0.41890 0.85700 0.75860 0.04000
C 	C 	0.48435 0.89009 0.71130 -0.02300
H 	H 	0.49480 0.91480 0.75400 0.03700
C 	C 	0.51442 0.88869 0.64830 -0.08000
H 	H 	0.54550 0.91180 0.64880 0.07500
C 	C 	0.49892 0.85309 0.58370 0.04700
C 	C 	0.64308 0.92555 0.09250 -0.10100
C 	C 	0.64647 0.88520 0.04892 0.04200
C 	C 	0.64626 0.84953 0.09690 -0.07700
H 	H 	0.64650 0.84960 0.16380 0.07800
C 	C 	0.64572 0.81370 0.04830 -0.02200
H 	H 	0.64570 0.79190 0.09150 0.03800
C 	C 	0.59963 0.92047 0.04957 0.04100
C 	C 	0.56103 0.91294 0.09750 -0.07600
H 	H 	0.56070 0.91220 0.16430 0.07200
C 	C 	0.52316 0.90650 0.04950 -0.02200
H 	H 	0.49960 0.90230 0.09270 0.03600
C 	C 	0.68279 0.96766 0.04868 0.03900
C 	C 	0.71718 0.00421 0.09790 -0.07200
H 	H 	0.71740 0.00430 0.16470 0.06600
C 	C 	0.75071 0.04004 0.04870 -0.02400
H 	H 	0.77190 0.06270 0.09130 0.04200
C 	C 	0.64607 0.93040 0.20037 0.32500
C 	C 	0.36125 0.71321 0.95290 0.06200
C 	C 	0.38877 0.75515 0.90170 -0.08400
H 	H 	0.39040 0.75510 0.83500 0.10400
C 	C 	0.41273 0.79547 0.95180 -0.01700
H 	H 	0.42870 0.82030 0.90890 0.03800
Zn	Zn	0.07965 0.73940 0.37852 1.23300
O 	O 	0.12296 0.80174 0.42161 -0.48000
O 	O 	0.01927 0.72196 0.42122 -0.50900
O 	O 	0.10776 0.70445 0.42152 -0.49900
O 	O 	0.27262 0.64788 0.57812 -0.45000
O 	O 	0.08823 0.75297 0.24504 -0.43800
O 	O 	0.04584 0.67852 0.23922 -0.32100
O 	O 	0.30655 0.62922 0.74920 -0.20800
O 	O 	0.35623 0.70306 0.74780 -0.31600
C 	C 	0.24987 0.92180 0.41430 0.04700
C 	C 	0.28346 0.93696 0.34530 -0.07900
H 	H 	0.30810 0.96740 0.34610 0.07400
C 	C 	0.28040 0.90687 0.27501 -0.02300
H 	H 	0.30290 0.91680 0.22710 0.04300
C 	C 	0.24452 0.86238 0.27500 -0.03000
H 	H 	0.24250 0.84210 0.22680 0.04100
C 	C 	0.21182 0.84739 0.34435 -0.07000
H 	H 	0.18770 0.81670 0.34430 0.06200
C 	C 	0.21404 0.87715 0.41482 0.04000
C 	C 	0.18111 0.63410 0.58399 0.04800
C 	C 	0.18006 0.60307 0.64910 -0.07700
H 	H 	0.20350 0.59550 0.64980 0.08300
C 	C 	0.14407 0.58304 0.71360 -0.02600
H 	H 	0.14300 0.56190 0.75860 0.04000
C 	C 	0.10991 0.59426 0.71130 -0.02300
H 	H 	0.08520 0.58000 0.75400 0.03700
C 	C 	0.11131 0.62573 0.64830 -0.08000
H 	H 	0.08820 0.63370 0.64880 0.07500
C 	C 	0.14691 0.64583 0.58370 0.04700
C 	C 	0.07445 0.71753 0.09250 -0.10100
C 	C 	0.11480 0.76127 0.04892 0.04200
C 	C 	0.15047 0.79673 0.09690 -0.07700
H 	H 	0.15040 0.79690 0.16380 0.07800
C 	C 	0.18630 0.83202 0.04830 -0.02200
H 	H 	0.20810 0.85380 0.09150 0.03800
C 	C 	0.07953 0.67916 0.04957 0.04100
C 	C 	0.08706 0.64809 0.09750 -0.07600
H 	H 	0.08780 0.64850 0.16430 0.07200
C 	C 	0.09350 0.61666 0.04950 -0.02200
H 	H 	0.09770 0.59730 0.09270 0.03600
C 	C 	0.03234 0.71513 0.04868 0.03900
C 	C 	0.99579 0.71297 0.09790 -0.07200
H 	H 	0.99570 0.71310 0.16470 0.06600
C 	C 	0.95996 0.71067 0.04870 -0.02400
H 	H 	0.93730 0.70920 0.09130 0.04200
C 	C 	0.06960 0.71567 0.20037 0.32500
C 	C 	0.28679 0.64804 0.95290 0.06200
C 	C 	0.24485 0.63362 0.90170 -0.08400
H 	H 	0.24490 0.63530 0.83500 0.10400
C 	C 	0.20453 0.61726 0.95180 -0.01700
H 	H 	0.17970 0.60840 0.90890 0.03800
Zn	Zn	0.26060 0.34026 0.37852 1.23300
O 	O 	0.19826 0.32122 0.42161 -0.48000
O 	O 	0.27804 0.29731 0.42122 -0.50900
O 	O 	0.29555 0.40331 0.42152 -0.49900
O 	O 	0.35212 0.62474 0.57812 -0.45000
O 	O 	0.24703 0.33526 0.24504 -0.43800
O 	O 	0.32148 0.36732 0.23922 -0.32100
O 	O 	0.37078 0.67733 0.74920 -0.20800
O 	O 	0.29694 0.65317 0.74780 -0.31600
C 	C 	0.07820 0.32807 0.41430 0.04700
C 	C 	0.06304 0.34650 0.34530 -0.07900
H 	H 	0.03260 0.34070 0.34610 0.07400
C 	C 	0.09313 0.37353 0.27501 -0.02300
H 	H 	0.08320 0.38610 0.22710 0.04300
C 	C 	0.13762 0.38214 0.27500 -0.03000
H 	H 	0.15790 0.40040 0.22680 0.04100
C 	C 	0.15261 0.36443 0.34435 -0.07000
H 	H 	0.18330 0.37100 0.34430 0.06200
C 	C 	0.12285 0.33689 0.41482 0.04000
C 	C 	0.36590 0.54701 0.58399 0.04800
C 	C 	0.39693 0.57699 0.64910 -0.07700
H 	H 	0.40450 0.60800 0.64980 0.08300
C 	C 	0.41696 0.56103 0.71360 -0.02600
H 	H 	0.43810 0.58110 0.75860 0.04000
C 	C 	0.40574 0.51565 0.71130 -0.02300
H 	H 	0.42000 0.50520 0.75400 0.03700
C 	C 	0.37427 0.48558 0.64830 -0.08000
H 	H 	0.36630 0.45450 0.64880 0.07500
C 	C 	0.35417 0.50108 0.58370 0.04700
C 	C 	0.28247 0.35692 0.09250 -0.10100
C 	C 	0.23873 0.35353 0.04892 0.04200
C 	C 	0.20327 0.35374 0.09690 -0.07700
H 	H 	0.20310 0.35350 0.16380 0.07800
C 	C 	0.16798 0.35428 0.04830 -0.02200
H 	H 	0.14620 0.35430 0.09150 0.03800
C 	C 	0.32084 0.40037 0.04957 0.04100
C 	C 	0.35191 0.43897 0.09750 -0.07600
H 	H 	0.35150 0.43930 0.16430 0.07200
C 	C 	0.38334 0.47684 0.04950 -0.02200
H 	H 	0.40270 0.50040 0.09270 0.03600
C 	C 	0.28487 0.31721 0.04868 0.03900
C 	C 	0.28703 0.28282 0.09790 -0.07200
H 	H 	0.28690 0.28260 0.16470 0.06600
C 	C 	0.28933 0.24929 0.04870 -0.02400
H 	H 	0.29080 0.22810 0.09130 0.04200
C 	C 	0.28433 0.35393 0.20037 0.32500
C 	C 	0.35196 0.63875 0.95290 0.06200
C 	C 	0.36638 0.61123 0.90170 -0.08400
H 	H 	0.36470 0.60960 0.83500 0.10400
C 	C 	0.38274 0.58727 0.95180 -0.01700
H 	H 	0.39160 0.57130 0.90890 0.03800
Zn	Zn	0.34026 0.07965 0.37852 1.23300
O 	O 	0.32122 0.12296 0.42161 -0.48000
O 	O 	0.29731 0.01927 0.42122 -0.50900
O 	O 	0.40331 0.10776 0.42152 -0.49900
O 	O 	0.62474 0.27262 0.57812 -0.45000
O 	O 	0.33526 0.08823 0.24504 -0.43800
O 	O 	0.36732 0.04584 0.23922 -0.32100
O 	O 	0.67733 0.30655 0.74920 -0.20800
O 	O 	0.65317 0.35623 0.74780 -0.31600
C 	C 	0.32807 0.24987 0.41430 0.04700
C 	C 	0.34650 0.28346 0.34530 -0.07900
H 	H 	0.34070 0.30810 0.34610 0.07400
C 	C 	0.37353 0.28040 0.27501 -0.02300
H 	H 	0.38610 0.30290 0.22710 0.04300
C 	C 	0.38214 0.24452 0.27500 -0.03000
H 	H 	0.40040 0.24250 0.22680 0.04100
C 	C 	0.36443 0.21182 0.34435 -0.07000
H 	H 	0.37100 0.18770 0.34430 0.06200
C 	C 	0.33689 0.21404 0.41482 0.04000
C 	C 	0.54701 0.18111 0.58399 0.04800
C 	C 	0.57699 0.18006 0.64910 -0.07700
H 	H 	0.60800 0.20350 0.64980 0.08300
C 	C 	0.56103 0.14407 0.71360 -0.02600
H 	H 	0.58110 0.14300 0.75860 0.04000
C 	C 	0.51565 0.10991 0.71130 -0.02300
H 	H 	0.50520 0.08520 0.75400 0.03700
C 	C 	0.48558 0.11131 0.64830 -0.08000
H 	H 	0.45450 0.08820 0.64880 0.07500
C 	C 	0.50108 0.14691 0.58370 0.04700
C 	C 	0.35692 0.07445 0.09250 -0.10100
C 	C 	0.35353 0.11480 0.04892 0.04200
C 	C 	0.35374 0.15047 0.09690 -0.07700
H 	H 	0.35350 0.15040 0.16380 0.07800
C 	C 	0.35428 0.18630 0.04830 -0.02200
H 	H 	0.35430 0.20810 0.09150 0.03800
C 	C 	0.40037 0.07953 0.04957 0.04100
C 	C 	0.43897 0.08706 0.09750 -0.07600
H 	H 	0.43930 0.08780 0.16430 0.07200
C 	C 	0.47684 0.09350 0.04950 -0.02200
H 	H 	0.50040 0.09770 0.09270 0.03600
C 	C 	0.31721 0.03234 0.04868 0.03900
C 	C 	0.28282 0.99579 0.09790 -0.07200
H 	H 	0.28260 0.99570 0.16470 0.06600
C 	C 	0.24929 0.95996 0.04870 -0.02400
H 	H 	0.22810 0.93730 0.09130 0.04200
C 	C 	0.35393 0.06960 0.20037 0.32500
C 	C 	0.63875 0.28679 0.95290 0.06200
C 	C 	0.61123 0.24485 0.90170 -0.08400
H 	H 	0.60960 0.24490 0.83500 0.10400
C 	C 	0.58727 0.20453 0.95180 -0.01700
H 	H 	0.57130 0.17970 0.90890 0.03800
Zn	Zn	0.92035 0.26060 0.37852 1.23300
O 	O 	0.87704 0.19826 0.42161 -0.48000
O 	O 	0.98073 0.27804 0.42122 -0.50900
O 	O 	0.89224 0.29555 0.42152 -0.49900
O 	O 	0.72738 0.35212 0.57812 -0.45000
O 	O 	0.91177 0.24703 0.24504 -0.43800
O 	O 	0.95416 0.32148 0.23922 -0.32100
O 	O 	0.69345 0.37078 0.74920 -0.20800
O 	O 	0.64377 0.29694 0.74780 -0.31600
C 	C 	0.75013 0.07820 0.41430 0.04700
C 	C 	0.71654 0.06304 0.34530 -0.07900
H 	H 	0.69190 0.03260 0.34610 0.07400
C 	C 	0.71960 0.09313 0.27501 -0.02300
H 	H 	0.69710 0.08320 0.22710 0.04300
C 	C 	0.75548 0.13762 0.27500 -0.03000
H 	H 	0.75750 0.15790 0.22680 0.04100
C 	C 	0.78818 0.15261 0.34435 -0.07000
H 	H 	0.81230 0.18330 0.34430 0.06200
C 	C 	0.78596 0.12285 0.41482 0.04000
C 	C 	0.81889 0.36590 0.58399 0.04800
C 	C 	0.81994 0.39693 0.64910 -0.07700
H 	H 	0.79650 0.40450 0.64980 0.08300
C 	C 	0.85593 0.41696 0.71360 -0.02600
H 	H 	0.85700 0.43810 0.75860 0.04000
C 	C 	0.89009 0.40574 0.71130 -0.02300
H 	H 	0.91480 0.42000 0.75400 0.03700
C 	C 	0.88869 0.37427 0.64830 -0.08000
H 	H 	0.91180 0.36630 0.64880 0.07500
C 	C 	0.85309 0.35417 0.58370 0.04700
C 	C 	0.92555 0.28247 0.09250 -0.10100
C 	C 	0.88520 0.23873 0.04892 0.04200
C 	C 	0.84953 0.20327 0.09690 -0.07700
H 	H 	0.84960 0.20310 0.16380 0.07800
C 	C 	0.81370 0.16798 0.04830 -0.02200
H 	H 	0.79190 0.14620 0.09150 0.03800
C 	C 	0.92047 0.32084 0.04957 0.04100
C 	C 	0.91294 0.35191 0.09750 -0.07600
H 	H 	0.91220 0.35150 0.16430 0.07200
C 	C 	0.90650 0.38334 0.04950 -0.02200
H 	H 	0.90230 0.40270 0.09270 0.03600
C 	C 	0.96766 0.28487 0.04868 0.03900
C 	C 	0.00421 0.28703 0.09790 -0.07200
H 	H 	0.00430 0.28690 0.16470 0.06600
C 	C 	0.04004 0.28933 0.04870 -0.02400
H 	H 	0.06270 0.29080 0.09130 0.04200
C 	C 	0.93040 0.28433 0.20037 0.32500
C 	C 	0.71321 0.35196 0.95290 0.06200
C 	C 	0.75515 0.36638 0.90170 -0.08400
H 	H 	0.75510 0.36470 0.83500 0.10400
C 	C 	0.79547 0.38274 0.95180 -0.01700
H 	H 	0.82030 0.39160 0.90890 0.03800
Zn	Zn	0.73940 0.65974 0.37852 1.23300
O 	O 	0.80174 0.67878 0.42161 -0.48000
O 	O 	0.72196 0.70269 0.42122 -0.50900
O 	O 	0.70445 0.59669 0.42152 -0.49900
O 	O 	0.64788 0.37526 0.57812 -0.45000
O 	O 	0.75297 0.66474 0.24504 -0.43800
O 	O 	0.67852 0.63268 0.23922 -0.32100
O 	O 	0.62922 0.32267 0.74920 -0.20800
O 	O 	0.70306 0.34683 0.74780 -0.31600
C 	C 	0.92180 0.67193 0.41430 0.04700
C 	C 	0.93696 0.65350 0.34530 -0.07900
H 	H 	0.96740 0.65930 0.34610 0.07400
C 	C 	0.90687 0.62647 0.27501 -0.02300
H 	H 	0.91680 0.61390 0.22710 0.04300
C 	C 	0.86238 0.61786 0.27500 -0.03000
H 	H 	0.84210 0.59960 0.22680 0.04100
C 	C 	0.84739 0.63557 0.34435 -0.07000
H 	H 	0.81670 0.62900 0.34430 0.06200
C 	C 	0.87715 0.66311 0.41482 0.04000
C 	C 	0.63410 0.45299 0.58399 0.04800
C 	C 	0.60307 0.42301 0.64910 -0.07700
H 	H 	0.59550 0.39200 0.64980 0.08300
C 	C 	0.58304 0.43897 0.71360 -0.02600
H 	H 	0.56190 0.41890 0.75860 0.04000
C 	C 	0.59426 0.48435 0.71130 -0.02300
H 	H 	0.58000 0.49480 0.75400 0.03700
C 	C 	0.62573 0.51442 0.64830 -0.08000
H 	H 	0.63370 0.54550 0.64880 0.07500
C 	C 	0.64583 0.49892 0.58370 0.04700
C 	C 	0.71753 0.64308 0.09250 -0.10100
C 	C 	0.76127 0.64647 0.04892 0.04200
C 	C 	0.79673 0.64626 0.09690 -0.07700
H 	H 	0.79690 0.64650 0.16380 0.07800
C 	C 	0.83202 0.64572 0.04830 -0.02200
H 	H 	0.85380 0.64570 0.09150 0.03800
C 	C 	0.67916 0.59963 0.04957 0.04100
C 	C 	0.64809 0.56103 0.09750 -0.07600
H 	H 	0.64850 0.56070 0.16430 0.07200
C 	C 	0.61666 0.52316 0.04950 -0.02200
H 	H 	0.59730 0.49960 0.09270 0.03600
C 	C 	0.71513 0.68279 0.04868 0.03900
C 	C 	0.71297 0.71718 0.09790 -0.07200
H 	H 	0.71310 0.71740 0.16470 0.06600
C 	C 	0.71067 0.75071 0.04870 -0.02400
H 	H 	0.70920 0.77190 0.09130 0.04200
C 	C 	0.71567 0.64607 0.20037 0.32500
C 	C 	0.64804 0.36125 0.95290 0.06200
C 	C 	0.63362 0.38877 0.90170 -0.08400
H 	H 	0.63530 0.39040 0.83500 0.10400
C 	C 	0.61726 0.41273 0.95180 -0.01700
H 	H 	0.60840 0.42870 0.90890 0.03800
Zn	Zn	0.66667 0.33333 0.36903 1.27600
C 	C 	0.66667 0.33333 0.11009 -0.20400
C 	C 	0.66667 0.33333 0.21440 0.80800
Zn	Zn	0.33333 0.66667 0.36903 1.27600
C 	C 	0.33333 0.66667 0.11009 -0.20400
C 	C 	0.33333 0.66667 0.21440 0.80800
Zn	Zn	0.33333 0.66667 0.63097 1.27600
C 	C 	0.33333 0.66667 0.88991 -0.20400
C 	C 	0.33333 0.66667 0.78560 0.80800
Zn	Zn	0.66667 0.33333 0.63097 1.27600
C 	C 	0.66667 0.33333 0.88991 -0.20400
C 	C 	0.66667 0.33333 0.78560 0.80800
C 	C 	0.31657 0.18215 0.50000 -0.12800
C 	C 	0.26522 0.16630 0.50000 0.04500
C 	C 	0.22984 0.12235 0.50000 -0.07300
H 	H 	0.23570 0.09780 0.50000 0.06100
C 	C 	0.18532 0.11378 0.50000 -0.02500
H 	H 	0.16070 0.08330 0.50000 0.03700
C 	C 	0.17684 0.14918 0.50000 -0.02400
H 	H 	0.14630 0.14320 0.50000 0.03700
C 	C 	0.21253 0.19383 0.50000 -0.07500
H 	H 	0.20640 0.21820 0.50000 0.05700
C 	C 	0.25633 0.20269 0.50000 0.04500
C 	C 	0.29959 0.24935 0.50000 -0.13200
C 	C 	0.32100 0.14028 0.50000 0.39800
C 	C 	0.28473 0.00002 0.50000 0.41500
C 	C 	0.47417 0.15051 0.50000 -0.12900
C 	C 	0.48123 0.19875 0.50000 0.04200
C 	C 	0.44786 0.21026 0.50000 -0.07000
H 	H 	0.41670 0.18730 0.50000 0.05000
C 	C 	0.46028 0.25658 0.50000 -0.02900
H 	H 	0.43740 0.26490 0.50000 0.04500
C 	C 	0.50472 0.28913 0.50000 -0.02300
H 	H 	0.51270 0.32020 0.50000 0.04200
C 	C 	0.53961 0.27790 0.50000 -0.06700
H 	H 	0.57080 0.30100 0.50000 0.05600
C 	C 	0.52702 0.23229 0.50000 0.04200
C 	C 	0.55979 0.21387 0.50000 -0.12000
C 	C 	0.42294 0.11804 0.50000 0.41300
C 	C 	0.60790 0.25566 0.50000 0.39900
C 	C 	0.81785 0.13442 0.50000 -0.12800
C 	C 	0.83370 0.09892 0.50000 0.04500
C 	C 	0.87765 0.10749 0.50000 -0.07300
H 	H 	0.90220 0.13790 0.50000 0.06100
C 	C 	0.88622 0.07154 0.50000 -0.02500
H 	H 	0.91670 0.07740 0.50000 0.03700
C 	C 	0.85082 0.02766 0.50000 -0.02400
H 	H 	0.85680 0.00310 0.50000 0.03700
C 	C 	0.80617 0.01870 0.50000 -0.07500
H 	H 	0.78180 0.98820 0.50000 0.05700
C 	C 	0.79731 0.05364 0.50000 0.04500
C 	C 	0.75065 0.05024 0.50000 -0.13200
C 	C 	0.85972 0.18072 0.50000 0.39800
C 	C 	0.99998 0.28471 0.50000 0.41500
C 	C 	0.84949 0.32366 0.50000 -0.12900
C 	C 	0.80125 0.28248 0.50000 0.04200
C 	C 	0.78974 0.23760 0.50000 -0.07000
H 	H 	0.81270 0.22940 0.50000 0.05000
C 	C 	0.74342 0.20370 0.50000 -0.02900
H 	H 	0.73510 0.17250 0.50000 0.04500
C 	C 	0.71087 0.21559 0.50000 -0.02300
H 	H 	0.67980 0.19250 0.50000 0.04200
C 	C 	0.72210 0.26171 0.50000 -0.06700
H 	H 	0.69900 0.26980 0.50000 0.05600
C 	C 	0.76771 0.29473 0.50000 0.04200
C 	C 	0.78613 0.34592 0.50000 -0.12000
C 	C 	0.88196 0.30490 0.50000 0.41300
C 	C 	0.74434 0.35224 0.50000 0.39900
C 	C 	0.86558 0.68343 0.50000 -0.12800
C 	C 	0.90108 0.73478 0.50000 0.04500
C 	C 	0.89251 0.77016 0.50000 -0.07300
H 	H 	0.86210 0.76430 0.50000 0.06100
C 	C 	0.92846 0.81468 0.50000 -0.02500
H 	H 	0.92260 0.83930 0.50000 0.03700
C 	C 	0.97234 0.82316 0.50000 -0.02500
H 	H 	0.99690 0.85370 0.50000 0.03700
C 	C 	0.98130 0.78747 0.50000 -0.07500
H 	H 	0.01180 0.79360 0.50000 0.05700
C 	C 	0.94636 0.74367 0.50000 0.04500
C 	C 	0.94976 0.70041 0.50000 -0.13200
C 	C 	0.81928 0.67900 0.50000 0.39800
C 	C 	0.71529 0.71527 0.50000 0.41500
C 	C 	0.67634 0.52583 0.50000 -0.12900
C 	C 	0.71752 0.51877 0.50000 0.04200
C 	C 	0.76240 0.55214 0.50000 -0.07000
H 	H 	0.77060 0.58330 0.50000 0.05000
C 	C 	0.79630 0.53972 0.50000 -0.02900
H 	H 	0.82750 0.56260 0.50000 0.04500
C 	C 	0.78441 0.49528 0.50000 -0.02300
H 	H 	0.80750 0.48730 0.50000 0.04200
C 	C 	0.73829 0.46039 0.50000 -0.06700
H 	H 	0.73020 0.42920 0.50000 0.05600
C 	C 	0.70527 0.47298 0.50000 0.04200
C 	C 	0.65408 0.44021 0.50000 -0.12000
C 	C 	0.69510 0.57706 0.50000 0.41300
C 	C 	0.64776 0.39210 0.50000 0.39900
C 	C 	0.68343 0.81785 0.50000 -0.12800
C 	C 	0.73478 0.83370 0.50000 0.04500
C 	C 	0.77016 0.87765 0.50000 -0.07300
H 	H 	0.76430 0.90220 0.50000 0.06100
C 	C 	0.81468 0.88622 0.50000 -0.02500
H 	H 	0.83930 0.91670 0.50000 0.03700
C 	C 	0.82316 0.85082 0.50000 -0.02400
H 	H 	0.85370 0.85680 0.50000 0.03700
C 	C 	0.78747 0.80617 0.50000 -0.07500
H 	H 	0.79360 0.78180 0.50000 0.05700
C 	C 	0.74367 0.79731 0.50000 0.04500
C 	C 	0.70041 0.75065 0.50000 -0.13200
C 	C 	0.67900 0.85972 0.50000 0.39800
C 	C 	0.71527 0.99998 0.50000 0.41500
C 	C 	0.52583 0.84949 0.50000 -0.12900
C 	C 	0.51877 0.80125 0.50000 0.04200
C 	C 	0.55214 0.78974 0.50000 -0.07000
H 	H 	0.58330 0.81270 0.50000 0.05000
C 	C 	0.53972 0.74342 0.50000 -0.02900
H 	H 	0.56260 0.73510 0.50000 0.04500
C 	C 	0.49528 0.71087 0.50000 -0.02300
H 	H 	0.48730 0.67980 0.50000 0.04200
C 	C 	0.46039 0.72210 0.50000 -0.06700
H 	H 	0.42920 0.69900 0.50000 0.05600
C 	C 	0.47298 0.76771 0.50000 0.04200
C 	C 	0.44021 0.78613 0.50000 -0.12000
C 	C 	0.57706 0.88196 0.50000 0.41300
C 	C 	0.39210 0.74434 0.50000 0.39900
C 	C 	0.18215 0.86558 0.50000 -0.12800
C 	C 	0.16630 0.90108 0.50000 0.04500
C 	C 	0.12235 0.89251 0.50000 -0.07300
H 	H 	0.09780 0.86210 0.50000 0.06100
C 	C 	0.11378 0.92846 0.50000 -0.02500
H 	H 	0.08330 0.92260 0.50000 0.03700
C 	C 	0.14918 0.97234 0.50000 -0.02400
H 	H 	0.14320 0.99690 0.50000 0.03700
C 	C 	0.19383 0.98130 0.50000 -0.07500
H 	H 	0.21820 0.01180 0.50000 0.05700
C 	C 	0.20269 0.94636 0.50000 0.04500
C 	C 	0.24935 0.94976 0.50000 -0.13200
C 	C 	0.14028 0.81928 0.50000 0.39800
C 	C 	0.00002 0.71529 0.50000 0.41500
C 	C 	0.15051 0.67634 0.50000 -0.12900
C 	C 	0.19875 0.71752 0.50000 0.04200
C 	C 	0.21026 0.76240 0.50000 -0.07000
H 	H 	0.18730 0.77060 0.50000 0.05000
C 	C 	0.25658 0.79630 0.50000 -0.02900
H 	H 	0.26490 0.82750 0.50000 0.04500
C 	C 	0.28913 0.78441 0.50000 -0.02300
H 	H 	0.32020 0.80750 0.50000 0.04200
C 	C 	0.27790 0.73829 0.50000 -0.06700
H 	H 	0.30100 0.73020 0.50000 0.05600
C 	C 	0.23229 0.70527 0.50000 0.04200
C 	C 	0.21387 0.65408 0.50000 -0.12000
C 	C 	0.11804 0.69510 0.50000 0.41300
C 	C 	0.25566 0.64776 0.50000 0.39900
C 	C 	0.13442 0.31657 0.50000 -0.12800
C 	C 	0.09892 0.26522 0.50000 0.04500
C 	C 	0.10749 0.22984 0.50000 -0.07300
H 	H 	0.13790 0.23570 0.50000 0.06100
C 	C 	0.07154 0.18532 0.50000 -0.02500
H 	H 	0.07740 0.16070 0.50000 0.03700
C 	C 	0.02766 0.17684 0.50000 -0.02500
H 	H 	0.00310 0.14630 0.50000 0.03700
C 	C 	0.01870 0.21253 0.50000 -0.07500
H 	H 	0.98820 0.20640 0.50000 0.05700
C 	C 	0.05364 0.25633 0.50000 0.04500
C 	C 	0.05024 0.29959 0.50000 -0.13200
C 	C 	0.18072 0.32100 0.50000 0.39800
C 	C 	0.28471 0.28473 0.50000 0.41500
C 	C 	0.32366 0.47417 0.50000 -0.12900
C 	C 	0.28248 0.48123 0.50000 0.04200
C 	C 	0.23760 0.44786 0.50000 -0.07000
H 	H 	0.22940 0.41670 0.50000 0.05000
C 	C 	0.20370 0.46028 0.50000 -0.02900
H 	H 	0.17250 0.43740 0.50000 0.04500
C 	C 	0.21559 0.50472 0.50000 -0.02300
H 	H 	0.19250 0.51270 0.50000 0.04200
C 	C 	0.26171 0.53961 0.50000 -0.06700
H 	H 	0.26980 0.57080 0.50000 0.05600
C 	C 	0.29473 0.52702 0.50000 0.04200
C 	C 	0.34592 0.55979 0.50000 -0.12000
C 	C 	0.30490 0.42294 0.50000 0.41300
C 	C 	0.35224 0.60790 0.50000 0.39900
