data_crystal

_cell_length_a 6.42900
_cell_length_b 25.18000
_cell_length_c 7.87400
_cell_angle_alpha 90.00000
_cell_angle_beta  90.10100
_cell_angle_gamma 90.00000

_symmetry_space_group_name_	'P 1'
_symmetry_space_group_name_H-M	'P 1'

loop_
_symmetry_equiv_pos_as_xyz
  x,y,z

loop_
_atom_site_label
_atom_site_type_symbol
_atom_site_fract_x
_atom_site_fract_y
_atom_site_fract_z
_atom_site_charge
Ni	Ni	0.11910 0.73530 0.18400 1.11500
Ni	Ni	0.61920 0.80550 0.68810 1.12200
O 	O 	0.31890 0.77530 0.35510 -0.42800
C 	C 	0.35800 0.82410 0.37300 0.42100
O 	O 	0.45500 0.84360 0.49470 -0.42400
C 	C 	0.29350 0.86410 0.23160 -0.33400
H 	H 	0.21420 0.89330 0.28540 0.12600
H 	H 	0.42190 0.87970 0.18380 0.13200
C 	C 	0.16740 0.84290 0.08880 -0.02700
H 	H 	0.10690 0.87340 0.02390 0.04300
N 	N 	0.99580 0.80890 0.15070 -0.32000
H 	H 	0.88940 0.80780 0.07250 0.13600
H 	H 	0.94440 0.82170 0.25160 0.13000
C 	C 	0.30700 0.80990 0.96820 0.35200
O 	O 	0.30160 0.76180 0.99320 -0.42200
O 	O 	0.41850 0.83490 0.86730 -0.40700
O 	O 	0.91720 0.70790 0.35950 -0.41600
C 	C 	0.82400 0.72820 0.48230 0.38800
O 	O 	0.81900 0.77860 0.50050 -0.41500
C 	C 	0.78100 0.68030 0.60420 -0.31700
H 	H 	0.69900 0.65320 0.54280 0.13100
H 	H 	0.91590 0.66400 0.63650 0.12900
C 	C 	0.66430 0.69640 0.76630 -0.04100
H 	H 	0.60230 0.66460 0.82300 0.05000
N 	N 	0.49300 0.72980 0.67600 -0.31500
H 	H 	0.36840 0.72790 0.73230 0.12600
H 	H 	0.47460 0.71910 0.56500 0.12000
C 	C 	0.83900 0.72080 0.87730 0.33300
O 	O 	0.93540 0.69640 0.98660 -0.37500
O 	O 	0.80700 0.77040 0.87470 -0.40100
N 	N 	0.29650 0.66550 0.21450 -0.22400
C 	C 	0.22010 0.62380 0.29900 0.07700
H 	H 	0.07770 0.62400 0.33090 0.00100
C 	C 	0.34150 0.58030 0.34150 -0.15700
H 	H 	0.28870 0.55420 0.41710 0.07900
C 	C 	0.54260 0.57460 0.27340 0.10000
C 	C 	0.61530 0.61790 0.17980 -0.15700
H 	H 	0.74760 0.61650 0.12650 0.09400
C 	C 	0.49380 0.66270 0.16550 0.08900
H 	H 	0.55490 0.69360 0.11740 0.00800
C 	C 	0.65600 0.52500 0.28500 -0.07900
H 	H 	0.59650 0.49850 0.35610 0.05500
N 	N 	0.20430 0.37320 0.26860 -0.22900
C 	C 	0.01340 0.37580 0.33490 0.12000
H 	H 	0.96240 0.34620 0.39710 -0.01200
C 	C 	0.88690 0.42000 0.31640 -0.18200
H 	H 	0.74970 0.41950 0.36080 0.10200
C 	C 	0.96020 0.46560 0.23230 0.11900
C 	C 	0.16280 0.46230 0.16930 -0.17100
H 	H 	0.22590 0.49240 0.11790 0.08600
C 	C 	0.27040 0.41520 0.18220 0.09600
H 	H 	0.40040 0.41260 0.12560 0.00500
C 	C 	0.83100 0.51220 0.20900 -0.09300
H 	H 	0.87980 0.53700 0.12740 0.06100
Ni	Ni	0.88090 0.23530 0.81600 1.11400
Ni	Ni	0.38080 0.30550 0.31190 1.12100
O 	O 	0.68110 0.27530 0.64490 -0.42800
C 	C 	0.64200 0.32410 0.62700 0.42200
O 	O 	0.54500 0.34360 0.50530 -0.42400
C 	C 	0.70650 0.36410 0.76840 -0.33400
H 	H 	0.78580 0.39330 0.71460 0.12700
H 	H 	0.57810 0.37970 0.81620 0.13200
C 	C 	0.83260 0.34290 0.91120 -0.02700
H 	H 	0.89310 0.37340 0.97610 0.04300
N 	N 	0.00420 0.30890 0.84930 -0.32000
H 	H 	0.11060 0.30780 0.92750 0.13600
H 	H 	0.05560 0.32170 0.74840 0.13000
C 	C 	0.69300 0.30990 0.03180 0.35200
O 	O 	0.69840 0.26180 0.00680 -0.42200
O 	O 	0.58150 0.33490 0.13270 -0.40700
O 	O 	0.08280 0.20790 0.64050 -0.41600
C 	C 	0.17600 0.22820 0.51770 0.38800
O 	O 	0.18100 0.27860 0.49950 -0.41500
C 	C 	0.21900 0.18030 0.39580 -0.31700
H 	H 	0.30100 0.15320 0.45720 0.13100
H 	H 	0.08410 0.16400 0.36350 0.12900
C 	C 	0.33570 0.19640 0.23370 -0.04100
H 	H 	0.39770 0.16460 0.17700 0.05000
N 	N 	0.50700 0.22980 0.32400 -0.31500
H 	H 	0.63160 0.22790 0.26770 0.12600
H 	H 	0.52540 0.21910 0.43500 0.12000
C 	C 	0.16100 0.22080 0.12270 0.33300
O 	O 	0.06460 0.19640 0.01340 -0.37400
O 	O 	0.19300 0.27040 0.12530 -0.40100
N 	N 	0.70350 0.16550 0.78550 -0.22400
C 	C 	0.77990 0.12380 0.70100 0.07700
H 	H 	0.92230 0.12400 0.66910 0.00200
C 	C 	0.65850 0.08030 0.65850 -0.15500
H 	H 	0.71130 0.05420 0.58290 0.08000
C 	C 	0.45740 0.07460 0.72660 0.09800
C 	C 	0.38470 0.11790 0.82020 -0.15600
H 	H 	0.25240 0.11650 0.87350 0.09400
C 	C 	0.50620 0.16270 0.83450 0.08800
H 	H 	0.44510 0.19360 0.88260 0.00800
C 	C 	0.34400 0.02500 0.71500 -0.07100
H 	H 	0.40350 0.99850 0.64390 0.04900
N 	N 	0.79570 0.87320 0.73140 -0.22900
C 	C 	0.98660 0.87580 0.66510 0.11800
H 	H 	0.03760 0.84620 0.60290 -0.01200
C 	C 	0.11310 0.92000 0.68360 -0.17800
H 	H 	0.25030 0.91950 0.63920 0.10000
C 	C 	0.03980 0.96560 0.76770 0.11000
C 	C 	0.83720 0.96230 0.83070 -0.16700
H 	H 	0.77410 0.99240 0.88210 0.08200
C 	C 	0.72960 0.91520 0.81780 0.09400
H 	H 	0.59960 0.91260 0.87440 0.00500
C 	C 	0.16900 0.01220 0.79100 -0.08700
H 	H 	0.12020 0.03700 0.87260 0.06100
