data_crystal

_cell_length_a 11.76100
_cell_length_b 27.13000
_cell_length_c 34.66700
_cell_angle_alpha 89.94140
_cell_angle_beta  90.00000
_cell_angle_gamma 90.00000

_symmetry_space_group_name_	'P 1'
_symmetry_space_group_name_H-M	'P 1'

loop_
_symmetry_equiv_pos_as_xyz
  x,y,z

loop_
_atom_site_label
_atom_site_type_symbol
_atom_site_fract_x
_atom_site_fract_y
_atom_site_fract_z
_atom_site_charge
La	La	0.55894 0.24958 0.69949 1.68800
La	La	0.08925 0.74811 0.69946 1.70300
La	La	0.05894 0.25042 0.80051 1.68200
La	La	0.44106 0.75042 0.30051 1.68800
La	La	0.94106 0.74958 0.19949 1.68200
La	La	0.41075 0.24811 0.19946 1.70400
La	La	0.58925 0.75189 0.80054 1.70400
La	La	0.91075 0.25189 0.30054 1.70300
Cu	Cu	0.10241 0.75091 0.81313 0.89600
Cu	Cu	0.39759 0.25091 0.31313 0.89700
Cu	Cu	0.07892 0.24755 0.68649 0.89800
Cu	Cu	0.57892 0.25245 0.81351 0.89900
Cu	Cu	0.89759 0.24909 0.18687 0.89700
Cu	Cu	0.42108 0.74755 0.18649 0.89900
Cu	Cu	0.60241 0.74909 0.68687 0.89800
Cu	Cu	0.92108 0.75245 0.31351 0.89800
H 	H 	0.70840 0.73560 0.55010 0.07600
H 	H 	0.23900 0.16440 0.31280 0.00800
H 	H 	0.56730 0.92420 0.34210 0.03400
H 	H 	0.38260 0.30400 0.57260 0.04100
H 	H 	0.24340 0.08210 0.30990 0.08400
H 	H 	0.95220 0.48770 0.72300 0.06500
H 	H 	0.25660 0.58210 0.80990 0.08300
H 	H 	0.41570 0.33540 0.80910 0.00700
H 	H 	0.12310 0.75890 0.36580 0.01300
H 	H 	0.43450 0.51300 0.72030 0.06100
H 	H 	0.42610 0.58540 0.69060 0.08100
H 	H 	0.73820 0.57740 0.77940 0.03500
H 	H 	0.76430 0.57830 0.69410 0.08200
H 	H 	0.23950 0.91440 0.18040 0.08500
H 	H 	0.64320 0.21050 0.55800 0.03500
H 	H 	0.87650 0.75330 0.93480 0.08400
H 	H 	0.62310 0.74110 0.13420 0.01300
H 	H 	0.22940 0.33690 0.30860 0.01100
H 	H 	0.42260 0.08540 0.81290 0.08400
H 	H 	0.07370 0.92780 0.22640 0.03400
H 	H 	0.92630 0.07220 0.77360 0.03400
H 	H 	0.93450 0.98700 0.77970 0.06100
H 	H 	0.23860 0.99850 0.82930 0.06400
H 	H 	0.93590 0.00390 0.66330 0.06500
H 	H 	0.67280 0.25390 0.95110 0.08500
H 	H 	0.25180 0.32940 0.67940 0.00900
H 	H 	0.07790 0.41300 0.17570 0.08200
H 	H 	0.76050 0.08560 0.81960 0.08500
H 	H 	0.10580 0.28920 0.49470 0.06500
H 	H 	0.75660 0.91790 0.69010 0.08400
H 	H 	0.94110 0.82980 0.81550 0.01600
H 	H 	0.57370 0.57220 0.27360 0.03600
H 	H 	0.19390 0.79430 0.55910 0.03200
H 	H 	0.71720 0.99170 0.72240 0.06200
H 	H 	0.85390 0.19550 0.99340 0.05900
H 	H 	0.32720 0.74610 0.04890 0.08500
H 	H 	0.45220 0.01230 0.77700 0.05900
H 	H 	0.75310 0.83400 0.31700 0.01100
H 	H 	0.91460 0.08000 0.69150 0.08000
H 	H 	0.35390 0.30450 0.50660 0.05800
H 	H 	0.84180 0.23590 0.56760 0.08300
H 	H 	0.75100 0.41840 0.81520 0.08000
H 	H 	0.35680 0.78950 0.44200 0.03500
H 	H 	0.79160 0.23560 0.05010 0.07500
H 	H 	0.82720 0.75390 0.45110 0.08300
H 	H 	0.06410 0.99610 0.33670 0.06500
H 	H 	0.76340 0.23520 0.11630 0.00200
H 	H 	0.41580 0.78790 0.93010 0.03300
H 	H 	0.92610 0.91460 0.80940 0.07500
H 	H 	0.74900 0.91840 0.31520 0.07900
H 	H 	0.58420 0.21210 0.06990 0.03300
H 	H 	0.85680 0.71050 0.05800 0.03400
H 	H 	0.73570 0.07830 0.19410 0.07900
H 	H 	0.61790 0.21320 0.49150 0.06000
H 	H 	0.26800 0.99150 0.15770 0.05900
H 	H 	0.26680 0.07660 0.16200 0.04100
H 	H 	0.05480 0.49140 0.15120 0.06300
H 	H 	0.23570 0.42170 0.30590 0.08200
H 	H 	0.73860 0.50150 0.67070 0.06200
H 	H 	0.83640 0.20240 0.50740 0.06300
H 	H 	0.93960 0.91840 0.66790 0.03300
H 	H 	0.58430 0.66460 0.19090 0.00700
H 	H 	0.87690 0.24110 0.63420 0.01300
H 	H 	0.23160 0.08220 0.82390 0.03300
H 	H 	0.30610 0.29430 0.05910 0.03400
H 	H 	0.92210 0.58700 0.82430 0.08200
H 	H 	0.61740 0.69600 0.42740 0.04100
H 	H 	0.76100 0.83560 0.68720 0.00800
H 	H 	0.38210 0.78680 0.50850 0.06000
H 	H 	0.74340 0.41790 0.19010 0.08300
H 	H 	0.88210 0.71320 0.99150 0.06200
H 	H 	0.42980 0.82900 0.68100 0.00500
H 	H 	0.06730 0.57580 0.15790 0.03300
H 	H 	0.14610 0.80450 0.00660 0.05900
H 	H 	0.11740 0.80400 0.07260 0.03900
H 	H 	0.66360 0.70240 0.00740 0.06100
H 	H 	0.56550 0.48700 0.27970 0.06100
H 	H 	0.42270 0.16890 0.81150 0.00200
H 	H 	0.16360 0.79760 0.49260 0.06300
H 	H 	0.73950 0.58560 0.31960 0.08300
H 	H 	0.73320 0.92340 0.83800 0.04100
H 	H 	0.26050 0.41440 0.68040 0.08300
H 	H 	0.37650 0.74670 0.56520 0.08500
H 	H 	0.74820 0.67060 0.32060 0.00900
H 	H 	0.74690 0.33400 0.81700 0.01100
H 	H 	0.23820 0.92260 0.72060 0.03400
H 	H 	0.29160 0.26440 0.44990 0.07600
H 	H 	0.72940 0.16310 0.19140 0.01200
H 	H 	0.26140 0.49850 0.32930 0.06200
H 	H 	0.44110 0.67020 0.68450 0.00800
H 	H 	0.34180 0.26410 0.93240 0.08500
H 	H 	0.76140 0.00150 0.17070 0.06400
H 	H 	0.43270 0.07580 0.65790 0.03400
H 	H 	0.73160 0.41780 0.67610 0.03500
H 	H 	0.04730 0.42770 0.27300 0.04500
H 	H 	0.23840 0.00760 0.71640 0.06300
H 	H 	0.14320 0.28950 0.94200 0.03400
H 	H 	0.55890 0.32980 0.31550 0.00800
H 	H 	0.24900 0.58160 0.18480 0.08000
H 	H 	0.76160 0.99240 0.28360 0.06300
H 	H 	0.24820 0.82940 0.17940 0.00800
H 	H 	0.08430 0.83540 0.30910 0.00600
H 	H 	0.69390 0.70570 0.94090 0.03400
H 	H 	0.80610 0.20570 0.44090 0.03200
H 	H 	0.15820 0.76410 0.43240 0.08300
H 	H 	0.56040 0.41840 0.16790 0.03400
H 	H 	0.25100 0.08160 0.68480 0.07900
H 	H 	0.76680 0.42340 0.33800 0.04100
H 	H 	0.33640 0.29760 0.99260 0.06100
H 	H 	0.44520 0.99140 0.65120 0.06300
H 	H 	0.73660 0.73520 0.61630 0.00200
H 	H 	0.06040 0.08160 0.33210 0.03300
H 	H 	0.73200 0.00850 0.84230 0.05900
H 	H 	0.20840 0.76440 0.94990 0.07500
H 	H 	0.57740 0.91460 0.18710 0.08400
H 	H 	0.77060 0.66310 0.69140 0.01100
H 	H 	0.07740 0.58540 0.31290 0.08200
H 	H 	0.62350 0.25330 0.43480 0.08500
H 	H 	0.79620 0.57710 0.22680 0.03800
H 	H 	0.79700 0.75320 0.38620 -0.00900
H 	H 	0.94520 0.50860 0.84880 0.06300
H 	H 	0.39420 0.78920 0.99470 0.06200
H 	H 	0.23320 0.57660 0.66200 0.04100
H 	H 	0.65820 0.73590 0.06760 0.08500
H 	H 	0.75180 0.17060 0.82060 0.00800
H 	H 	0.20300 0.24680 0.61380 -0.00900
H 	H 	0.08420 0.28790 0.43010 0.03100
H 	H 	0.70300 0.25320 0.88620 -0.01000
H 	H 	0.76180 0.07740 0.27940 0.03400
H 	H 	0.42210 0.91300 0.67570 0.08300
H 	H 	0.26430 0.92170 0.80590 0.07900
H 	H 	0.73900 0.33560 0.18720 0.00800
H 	H 	0.91580 0.71210 0.56990 0.03100
H 	H 	0.23660 0.76480 0.88370 0.00200
H 	H 	0.56410 0.50390 0.16330 0.06400
H 	H 	0.41460 0.42000 0.80850 0.08100
H 	H 	0.89420 0.71080 0.50530 0.06500
H 	H 	0.92270 0.33110 0.68850 0.00200
H 	H 	0.76840 0.91780 0.17610 0.03300
H 	H 	0.27060 0.83690 0.80860 0.01200
H 	H 	0.21720 0.50830 0.77760 0.06200
H 	H 	0.95270 0.57230 0.72700 0.04500
H 	H 	0.88260 0.19600 0.92740 0.03900
H 	H 	0.06550 0.01300 0.22030 0.06100
H 	H 	0.26160 0.50760 0.21640 0.06400
H 	H 	0.55480 0.00860 0.34880 0.06300
H 	H 	0.07730 0.66890 0.31150 0.00200
H 	H 	0.07020 0.32900 0.18100 0.00500
H 	H 	0.37690 0.25890 0.86580 0.01300
H 	H 	0.23200 0.49150 0.65770 0.06000
H 	H 	0.40390 0.75030 0.63180 0.01200
H 	H 	0.26100 0.66440 0.81280 0.00800
H 	H 	0.57020 0.17100 0.31900 0.00500
H 	H 	0.64610 0.69550 0.49340 0.05800
H 	H 	0.57730 0.83110 0.18850 0.00200
H 	H 	0.11790 0.28680 0.00850 0.06200
H 	H 	0.57390 0.41460 0.30940 0.08100
H 	H 	0.20380 0.42290 0.77320 0.03800
H 	H 	0.29700 0.74680 0.11380 -0.01000
H 	H 	0.29620 0.92290 0.27320 0.03900
H 	H 	0.28280 0.00830 0.27760 0.06200
H 	H 	0.90390 0.74970 0.86820 0.01200
H 	H 	0.58540 0.58000 0.19150 0.08100
H 	H 	0.07390 0.08540 0.19060 0.07500
H 	H 	0.26180 0.42260 0.22060 0.03500
H 	H 	0.42630 0.42780 0.72640 0.03600
H 	H 	0.26840 0.58220 0.32390 0.03500
H 	H 	0.26340 0.26480 0.38370 0.00200
H 	H 	0.60580 0.21080 0.00530 0.06200
H 	H 	0.08540 0.92000 0.30850 0.08000
H 	H 	0.59610 0.24970 0.36820 0.01200
H 	H 	0.43590 0.49610 0.83670 0.06400
H 	H 	0.91570 0.16460 0.69090 0.00600
H 	H 	0.24690 0.16600 0.68300 0.01100
H 	H 	0.92260 0.41460 0.68710 0.08200
H 	H 	0.04780 0.51230 0.27700 0.06500
H 	H 	0.43960 0.58160 0.83210 0.03400
H 	H 	0.09610 0.25030 0.13180 0.01200
H 	H 	0.57790 0.08700 0.32430 0.08300
H 	H 	0.05890 0.17020 0.18450 0.01600
H 	H 	0.54730 0.07230 0.22700 0.04100
H 	H 	0.45270 0.92770 0.77300 0.04100
H 	H 	0.78280 0.49170 0.22240 0.06200
H 	H 	0.76800 0.50850 0.34230 0.06000
H 	H 	0.73840 0.49240 0.78360 0.06400
H 	H 	0.93270 0.42420 0.84210 0.03300
H 	H 	0.25310 0.66600 0.18300 0.01100
H 	H 	0.54780 0.98770 0.22300 0.05900
H 	H 	0.17280 0.24610 0.54890 0.08300
H 	H 	0.92980 0.67100 0.81900 0.00500
H 	H 	0.12350 0.24670 0.06520 0.08400
H 	H 	0.70380 0.07710 0.72680 0.03900
C 	C 	0.51560 0.64770 0.18960 0.08800
C 	C 	0.88900 0.75560 0.43440 -0.14600
C 	C 	0.67080 0.43670 0.68470 0.01900
C 	C 	0.80910 0.60180 0.31750 -0.13700
C 	C 	0.09400 0.92810 0.80850 0.06000
C 	C 	0.08550 0.27000 0.95220 0.02000
C 	C 	0.08980 0.98320 0.80590 0.02700
C 	C 	0.41340 0.98000 0.18870 0.01400
C 	C 	0.99050 0.44380 0.28670 0.00200
C 	C 	0.99420 0.00620 0.78880 -0.08700
C 	C 	0.72230 0.75317 0.26723 0.25100
C 	C 	0.41120 0.92480 0.18640 0.08000
C 	C 	0.81870 0.90220 0.31400 -0.13100
C 	C 	0.98360 0.09670 0.69020 -0.13000
C 	C 	0.00840 0.65230 0.31330 0.08900
C 	C 	0.96600 0.75260 0.88470 0.07600
C 	C 	0.51700 0.74010 0.50820 0.02000
C 	C 	0.67680 0.94140 0.82550 0.00500
C 	C 	0.04770 0.27030 0.48420 -0.10600
C 	C 	0.42310 0.01850 0.31290 0.02000
C 	C 	0.37120 0.74550 0.10460 0.09100
C 	C 	0.49280 0.34840 0.31300 0.07700
C 	C 	0.58980 0.51680 0.69410 0.02500
C 	C 	0.80620 0.75000 0.73180 0.19200
C 	C 	0.11280 0.78050 0.50810 -0.09600
C 	C 	0.67680 0.51010 0.79320 -0.09500
C 	C 	0.65940 0.00840 0.70960 -0.08800
C 	C 	0.00820 0.60190 0.31320 -0.14000
C 	C 	0.38720 0.28050 0.00810 -0.09000
C 	C 	0.50100 0.43660 0.17830 0.02400
C 	C 	0.19700 0.90380 0.80770 -0.12800
C 	C 	0.01870 0.75740 0.49150 0.03300
C 	C 	0.56280 0.74150 0.11690 0.07400
C 	C 	0.91450 0.73000 0.04780 0.02000
C 	C 	0.44440 0.85980 0.30350 0.33900
C 	C 	0.86830 0.22190 0.45150 0.02600
C 	C 	0.37010 0.74950 0.72960 0.25400
C 	C 	0.12880 0.24550 0.60460 0.08800
C 	C 	0.00580 0.99380 0.21120 -0.08700
C 	C 	0.00100 0.06340 0.32170 0.02900
C 	C 	0.07560 0.75010 0.61460 0.32600
C 	C 	0.51840 0.25650 0.57250 -0.08500
C 	C 	0.58630 0.64270 0.80160 0.32000
C 	C 	0.96310 0.24040 0.05110 0.07100
C 	C 	0.09490 0.58270 0.69610 -0.07400
C 	C 	0.61280 0.71950 0.99190 -0.09000
C 	C 	0.94440 0.64020 0.19650 0.33400
C 	C 	0.80300 0.09620 0.19230 -0.12800
C 	C 	0.49680 0.51200 0.82490 -0.09700
C 	C 	0.69380 0.25000 0.23180 0.19200
C 	C 	0.59490 0.91730 0.80390 -0.07400
C 	C 	0.13170 0.77810 0.54850 0.02600
C 	C 	0.62880 0.25450 0.89540 0.09100
C 	C 	0.87010 0.75050 0.77040 0.25400
C 	C 	0.17920 0.14850 0.68510 0.07200
C 	C 	0.68870 0.90060 0.68770 -0.14500
C 	C 	0.82320 0.01010 0.29320 -0.09500
C 	C 	0.58880 0.07520 0.81360 0.08000
C 	C 	0.57040 0.71450 0.44340 0.00900
C 	C 	0.35370 0.26210 0.43340 -0.12900
C 	C 	0.58400 0.73900 0.07650 -0.13600
C 	C 	0.48360 0.40330 0.80980 -0.13600
C 	C 	0.91120 0.57520 0.31360 0.07100
C 	C 	0.50950 0.94380 0.78670 0.00500
C 	C 	0.92960 0.21450 0.94340 0.01600
C 	C 	0.99020 0.44120 0.82930 0.02700
C 	C 	0.42960 0.28550 0.55660 0.00900
C 	C 	0.57030 0.23120 0.50760 -0.08700
C 	C 	0.00720 0.84840 0.81300 0.05900
C 	C 	0.50250 0.39990 0.31010 -0.13500
C 	C 	0.58630 0.58730 0.80380 -0.09800
C 	C 	0.41450 0.77000 0.45220 0.01700
C 	C 	0.65640 0.75031 0.22809 0.25800
C 	C 	0.15940 0.49160 0.79040 -0.08900
C 	C 	0.49160 0.15230 0.81330 0.08800
C 	C 	0.07550 0.08630 0.79930 -0.09700
C 	C 	0.15150 0.44030 0.78800 0.02000
C 	C 	0.18440 0.34710 0.68170 0.08900
C 	C 	0.51870 0.74260 0.00850 0.02400
C 	C 	0.91370 0.14270 0.30160 0.32200
C 	C 	0.08660 0.78600 0.01680 -0.08800
C 	C 	0.50830 0.10230 0.31970 -0.14000
C 	C 	0.67460 0.48700 0.68180 -0.09300
C 	C 	0.82540 0.98700 0.18180 -0.09800
C 	C 	0.80920 0.35140 0.18640 0.08400
C 	C 	0.84060 0.50840 0.20960 -0.08900
C 	C 	0.56680 0.08480 0.69260 -0.09800
C 	C 	0.41600 0.57020 0.18890 0.07000
C 	C 	0.05010 0.24500 0.07510 -0.13600
C 	C 	0.99690 0.65300 0.81830 0.08900
C 	C 	0.49750 0.60010 0.68990 -0.13500
C 	C 	0.41160 0.51510 0.19010 0.02800
C 	C 	0.84850 0.55970 0.21200 0.02000
C 	C 	0.83600 0.23880 0.10610 0.06200
C 	C 	0.49620 0.00770 0.66720 -0.09400
C 	C 	0.99900 0.93660 0.67830 0.02900
C 	C 	0.50580 0.50620 0.28880 -0.08800
C 	C 	0.32340 0.43890 0.20960 0.02500
C 	C 	0.31130 0.09940 0.31230 -0.14500
C 	C 	0.30920 0.14860 0.31360 0.08600
C 	C 	0.99650 0.75920 0.44920 0.06900
C 	C 	0.99680 0.98800 0.67510 -0.09500
C 	C 	0.49020 0.05880 0.67070 0.02100
C 	C 	0.51640 0.59670 0.19020 -0.13600
C 	C 	0.98130 0.24260 0.50850 0.03300
C 	C 	0.17490 0.50770 0.67130 -0.08400
C 	C 	0.49420 0.49380 0.71120 -0.08800
C 	C 	0.58400 0.42980 0.81110 0.07000
C 	C 	0.08630 0.91270 0.69620 -0.10300
C 	C 	0.36830 0.27810 0.04850 0.02100
C 	C 	0.32510 0.00770 0.17130 -0.08200
C 	C 	0.48160 0.74350 0.42750 -0.08500
C 	C 	0.50720 0.65160 0.68700 0.07700
C 	C 	0.08400 0.07020 0.68890 0.06400
C 	C 	0.67660 0.56110 0.79040 0.02500
C 	C 	0.33600 0.26120 0.39390 0.06300
C 	C 	0.15640 0.74969 0.27191 0.25800
C 	C 	0.90340 0.36070 0.29960 0.30800
C 	C 	0.07690 0.51850 0.81290 0.01700
C 	C 	0.59660 0.86070 0.79960 0.30800
C 	C 	0.30620 0.75000 0.76820 0.19200
C 	C 	0.82340 0.06110 0.29040 0.02600
C 	C 	0.00350 0.24080 0.55080 0.06900
C 	C 	0.69700 0.59620 0.69230 -0.13600
C 	C 	0.08400 0.76100 0.42350 -0.13000
C 	C 	0.07220 0.14150 0.79760 0.30500
C 	C 	0.08880 0.42480 0.68640 0.07100
C 	C 	0.42440 0.25010 0.11460 0.32400
C 	C 	0.88720 0.21950 0.49190 -0.09600
C 	C 	0.49650 0.74080 0.05080 0.07700
C 	C 	0.43720 0.25850 0.88310 0.07400
C 	C 	0.01640 0.90330 0.30980 -0.13000
C 	C 	0.48880 0.44250 0.71460 0.01700
C 	C 	0.92970 0.73120 0.00760 -0.09200
C 	C 	0.29960 0.35260 0.30940 0.08400
C 	C 	0.01120 0.94250 0.21460 0.02600
C 	C 	0.50980 0.94120 0.32930 0.02100
C 	C 	0.57550 0.41370 0.70070 -0.08900
C 	C 	0.81130 0.40060 0.18770 -0.14400
C 	C 	0.59400 0.57190 0.69150 0.07200
C 	C 	0.42970 0.76880 0.49240 -0.08700
C 	C 	0.44990 0.74500 0.57510 -0.13800
C 	C 	0.20040 0.85260 0.80940 0.07900
C 	C 	0.85370 0.23790 0.06660 -0.12800
C 	C 	0.98300 0.24010 0.00820 0.02400
C 	C 	0.00840 0.50530 0.71010 -0.09000
C 	C 	0.46120 0.74130 0.38460 0.31900
C 	C 	0.82920 0.93670 0.18470 0.02300
C 	C 	0.82510 0.49230 0.32870 -0.08400
C 	C 	0.00310 0.34700 0.18170 0.08900
C 	C 	0.41340 0.28600 0.51680 -0.08400
C 	C 	0.03190 0.27110 0.44530 0.03800
C 	C 	0.42780 0.64150 0.29760 0.30900
C 	C 	0.67920 0.35150 0.81490 0.07400
C 	C 	0.99160 0.49470 0.28990 -0.09000
C 	C 	0.53190 0.22890 0.05470 0.03100
C 	C 	0.68130 0.40220 0.81400 -0.13300
C 	C 	0.46810 0.77110 0.94530 0.03100
C 	C 	0.64630 0.73790 0.56660 -0.12900
C 	C 	0.50820 0.89810 0.18680 -0.14800
C 	C 	0.17680 0.55860 0.67450 0.00600
C 	C 	0.92440 0.24990 0.38540 0.32600
C 	C 	0.91340 0.21400 0.98320 -0.08800
C 	C 	0.18130 0.09780 0.68600 -0.13100
C 	C 	0.31870 0.59780 0.18600 -0.13300
C 	C 	0.57560 0.74990 0.88540 0.32400
C 	C 	0.49050 0.05620 0.21330 0.00500
C 	C 	0.92780 0.85850 0.20240 0.30500
C 	C 	0.81560 0.65290 0.31830 0.08900
C 	C 	0.69090 0.10180 0.81750 -0.14100
C 	C 	0.11100 0.24440 0.56560 -0.14600
C 	C 	0.67490 0.99230 0.82870 -0.08200
C 	C 	0.91600 0.92980 0.31110 0.06400
C 	C 	0.49160 0.00530 0.21010 -0.08100
C 	C 	0.17680 0.98990 0.70680 -0.09500
C 	C 	0.51120 0.55750 0.28540 0.01700
C 	C 	0.99280 0.15160 0.18700 0.05900
C 	C 	0.41370 0.41270 0.19620 -0.09800
C 	C 	0.17460 0.01300 0.81820 -0.09800
C 	C 	0.91020 0.01680 0.19410 0.02700
C 	C 	0.69080 0.85140 0.68640 0.08600
C 	C 	0.50310 0.15300 0.31830 0.08800
C 	C 	0.55560 0.14020 0.69650 0.33900
C 	C 	0.79960 0.14740 0.19060 0.07900
C 	C 	0.50840 0.99470 0.78990 -0.08100
C 	C 	0.46600 0.74740 0.61530 0.07400
C 	C 	0.96810 0.72890 0.55470 0.03800
C 	C 	0.45230 0.77030 0.98420 -0.09700
C 	C 	0.05560 0.35980 0.80350 0.33400
C 	C 	0.91160 0.98490 0.30990 0.02600
C 	C 	0.65150 0.05970 0.71200 0.01900
C 	C 	0.90600 0.07190 0.19150 0.06000
C 	C 	0.01700 0.75990 0.99180 0.02400
C 	C 	0.03690 0.75960 0.94890 0.07100
C 	C 	0.27770 0.24683 0.73277 0.25100
C 	C 	0.99750 0.89990 0.81010 -0.11500
C 	C 	0.91600 0.23900 0.57650 -0.13000
C 	C 	0.94200 0.24820 0.42760 -0.10600
C 	C 	0.63170 0.72190 0.95150 0.02100
C 	C 	0.57690 0.98150 0.68710 0.02000
C 	C 	0.66400 0.73880 0.60610 0.06300
C 	C 	0.49900 0.56340 0.82170 0.02400
C 	C 	0.91370 0.08730 0.30380 -0.10300
C 	C 	0.08840 0.01510 0.69010 0.02600
C 	C 	0.00380 0.50770 0.16720 -0.09100
C 	C 	0.91310 0.42640 0.18550 0.07200
C 	C 	0.62990 0.25050 0.27040 0.25400
C 	C 	0.01560 0.85230 0.31040 0.09100
C 	C 	0.17080 0.06330 0.81530 0.02300
C 	C 	0.96120 0.75870 0.11540 0.31400
C 	C 	0.41370 0.35730 0.19840 0.32000
C 	C 	0.19080 0.64860 0.81360 0.08400
C 	C 	0.58690 0.92640 0.68550 0.07600
C 	C 	0.58550 0.23000 0.54780 0.01700
C 	C 	0.40510 0.08270 0.19610 -0.07400
C 	C 	0.87120 0.75450 0.39540 0.08800
C 	C 	0.08660 0.48000 0.68870 0.01900
C 	C 	0.41020 0.48320 0.30590 0.02500
C 	C 	0.34360 0.24969 0.77191 0.25800
C 	C 	0.34060 0.99160 0.29040 -0.08800
C 	C 	0.40600 0.42810 0.30850 0.07200
C 	C 	0.82320 0.44140 0.32550 0.00600
C 	C 	0.06680 0.41520 0.80740 -0.10300
C 	C 	0.08630 0.85730 0.69840 0.32200
C 	C 	0.93320 0.58480 0.19260 -0.10300
C 	C 	0.99180 0.39810 0.68680 -0.14000
C 	C 	0.32080 0.64850 0.18510 0.07400
C 	C 	0.03880 0.24130 0.88460 0.31400
C 	C 	0.54770 0.22970 0.01580 -0.09700
C 	C 	0.43320 0.91520 0.30740 -0.09800
C 	C 	0.55010 0.25500 0.42490 -0.13800
C 	C 	0.44200 0.25180 0.07240 -0.10000
C 	C 	0.07030 0.26880 0.99240 -0.09200
C 	C 	0.55800 0.74820 0.92760 -0.10000
C 	C 	0.32920 0.56330 0.31530 0.01900
C 	C 	0.50320 0.48800 0.17510 -0.09700
C 	C 	0.00950 0.55620 0.71330 0.00200
C 	C 	0.58660 0.71400 0.48320 -0.08400
C 	C 	0.99620 0.49230 0.83280 -0.09100
C 	C 	0.48300 0.25990 0.49180 0.02000
C 	C 	0.99170 0.60230 0.81970 -0.13500
C 	C 	0.77770 0.25317 0.76723 0.25100
C 	C 	0.09660 0.63930 0.70040 0.30800
C 	C 	0.49690 0.84700 0.68170 0.08800
C 	C 	0.22230 0.74683 0.23277 0.25100
C 	C 	0.32320 0.05860 0.17450 0.00500
C 	C 	0.58660 0.02000 0.81130 0.01400
C 	C 	0.53880 0.25870 0.61540 0.31900
C 	C 	0.16400 0.76120 0.89390 0.06200
C 	C 	0.98880 0.05750 0.78540 0.02600
C 	C 	0.38900 0.74440 0.06560 -0.15100
C 	C 	0.07040 0.78550 0.05660 0.01600
C 	C 	0.31560 0.84710 0.18170 0.09200
C 	C 	0.18870 0.59940 0.81230 -0.14400
C 	C 	0.46310 0.25960 0.44890 0.07400
C 	C 	0.50350 0.25920 0.94920 0.07700
C 	C 	0.98160 0.75650 0.07250 -0.09000
C 	C 	0.50840 0.84770 0.18670 0.08800
C 	C 	0.58840 0.48490 0.80990 0.02800
C 	C 	0.48440 0.35230 0.81040 0.08800
C 	C 	0.91340 0.52000 0.31130 0.01900
C 	C 	0.48130 0.25740 0.99150 0.02400
C 	C 	0.00830 0.39770 0.18030 -0.13500
C 	C 	0.00320 0.01200 0.32490 -0.09500
C 	C 	0.90510 0.41730 0.30390 -0.07400
C 	C 	0.95230 0.72970 0.51580 -0.10600
C 	C 	0.61100 0.25560 0.93440 -0.15100
C 	C 	0.30300 0.40380 0.30770 -0.13600
C 	C 	0.68440 0.15290 0.81830 0.09200
C 	C 	0.06280 0.75850 0.38310 0.07500
C 	C 	0.50380 0.99230 0.33280 -0.09400
C 	C 	0.19380 0.25000 0.26820 0.19200
C 	C 	0.53400 0.25260 0.38470 0.07400
C 	C 	0.32320 0.48990 0.20680 -0.09500
C 	C 	0.00980 0.55880 0.17070 0.02700
C 	C 	0.01840 0.24350 0.92750 -0.09000
C 	C 	0.17660 0.93890 0.70960 0.02600
C 	C 	0.92310 0.48150 0.18710 0.01700
C 	C 	0.03400 0.24740 0.11530 0.07600
C 	C 	0.12990 0.24950 0.22960 0.25400
C 	C 	0.98440 0.14770 0.68960 0.09100
C 	C 	0.84360 0.25031 0.72809 0.25800
C 	C 	0.49170 0.89770 0.68030 -0.14000
C 	C 	0.05800 0.75180 0.57240 -0.10600
C 	C 	0.19090 0.39820 0.68250 -0.13700
C 	C 	0.93720 0.24150 0.61690 0.07500
C 	C 	0.30910 0.89820 0.18250 -0.14100
C 	C 	0.70040 0.64740 0.69060 0.08400
C 	C 	0.57220 0.35850 0.70240 0.30900
C 	C 	0.41600 0.26100 0.92350 -0.13600
C 	C 	0.82080 0.85150 0.31490 0.07200
C 	C 	0.92450 0.91370 0.20070 -0.09700
C 	C 	0.49180 0.10190 0.81320 -0.14800
C 	C 	0.34850 0.94030 0.28800 0.01900
C 	C 	0.40340 0.13930 0.20040 0.30800
C 	C 	0.99160 0.34770 0.68670 0.08900
C 	C 	0.00250 0.10010 0.18990 -0.11500
C 	C 	0.53690 0.74040 0.55110 0.07400
C 	C 	0.32540 0.51300 0.31820 -0.09300
C 	C 	0.42450 0.58630 0.29930 -0.08900
C 	C 	0.14630 0.76210 0.93340 -0.12800
C 	C 	0.41310 0.07360 0.31450 0.07600
C 	C 	0.94990 0.75500 0.92490 -0.13600
C 	C 	0.08690 0.57360 0.81450 0.07200
N 	N 	0.45620 0.74474 0.12966 -0.23000
N 	N 	0.58770 0.17800 0.81600 -0.22300
N 	N 	0.92010 0.82680 0.31290 -0.22400
N 	N 	0.59610 0.82340 0.68390 -0.22300
N 	N 	0.60640 0.67500 0.68780 -0.22200
N 	N 	0.42010 0.67320 0.18710 -0.22200
N 	N 	0.07990 0.17320 0.68710 -0.22400
N 	N 	0.41230 0.82200 0.18400 -0.22300
N 	N 	0.09610 0.67660 0.81610 -0.22500
N 	N 	0.08770 0.32200 0.68400 -0.22500
N 	N 	0.92830 0.24520 0.12970 -0.22300
N 	N 	0.91230 0.67800 0.31600 -0.22500
N 	N 	0.40390 0.17660 0.31610 -0.22300
N 	N 	0.04380 0.24474 0.62966 -0.23200
N 	N 	0.57990 0.32680 0.81290 -0.22200
N 	N 	0.10640 0.82500 0.81220 -0.21900
N 	N 	0.89360 0.17500 0.18780 -0.21900
N 	N 	0.39360 0.32500 0.31220 -0.22200
N 	N 	0.07170 0.75480 0.87030 -0.22300
N 	N 	0.42830 0.25480 0.37030 -0.22200
N 	N 	0.90390 0.32340 0.18390 -0.22500
N 	N 	0.54380 0.25526 0.87034 -0.23000
N 	N 	0.57170 0.74520 0.62970 -0.22200
N 	N 	0.95620 0.75526 0.37034 -0.23200
O 	O 	0.29270 0.25543 0.80137 -0.34200
O 	O 	0.12320 0.33810 0.78240 -0.37500
O 	O 	0.01500 0.83780 0.21760 -0.34100
O 	O 	0.01730 0.65980 0.71740 -0.35900
O 	O 	0.49870 0.33420 0.18610 -0.35800
O 	O 	0.87860 0.74727 0.70013 -0.33200
O 	O 	0.51500 0.66220 0.28240 -0.34600
O 	O 	0.16690 0.83490 0.71400 -0.36500
O 	O 	0.50210 0.77360 0.86560 -0.35800
O 	O 	0.48500 0.33780 0.71760 -0.34600
O 	O 	0.01850 0.66210 0.17810 -0.36000
O 	O 	0.83250 0.25315 0.79845 -0.35200
O 	O 	0.34160 0.26980 0.12970 -0.36200
O 	O 	0.20730 0.75543 0.30137 -0.34200
O 	O 	0.62320 0.16190 0.71760 -0.37600
O 	O 	0.49790 0.22640 0.13440 -0.35800
O 	O 	0.01870 0.24620 0.23400 -0.41400
O 	O 	0.00210 0.72640 0.63440 -0.35900
O 	O 	0.33250 0.24685 0.70155 -0.35300
O 	O 	0.95140 0.25225 0.73245 -0.42000
O 	O 	0.12510 0.26340 0.87150 -0.35600
O 	O 	0.51730 0.84020 0.78260 -0.35700
O 	O 	0.37490 0.76340 0.37150 -0.35600
O 	O 	0.17260 0.24740 0.73510 -0.45500
O 	O 	0.67260 0.25260 0.76490 -0.45400
O 	O 	0.32740 0.74740 0.23510 -0.45400
O 	O 	0.54860 0.75225 0.23245 -0.42200
O 	O 	0.62140 0.24727 0.20013 -0.33400
O 	O 	0.12140 0.25273 0.29987 -0.33200
O 	O 	0.48270 0.15980 0.21740 -0.35700
O 	O 	0.96690 0.22140 0.86400 -0.36100
O 	O 	0.30100 0.24515 0.26585 -0.43800
O 	O 	0.04860 0.74775 0.26755 -0.42000
O 	O 	0.98270 0.34020 0.28260 -0.35900
O 	O 	0.33310 0.33490 0.21400 -0.36400
O 	O 	0.82740 0.75260 0.26490 -0.45500
O 	O 	0.87680 0.66190 0.21760 -0.37500
O 	O 	0.00130 0.83420 0.68610 -0.36000
O 	O 	0.18140 0.24869 0.19941 -0.34500
O 	O 	0.99870 0.16580 0.31390 -0.36000
O 	O 	0.84160 0.23020 0.37030 -0.36200
O 	O 	0.15460 0.16630 0.80850 -0.36700
O 	O 	0.98150 0.33790 0.82190 -0.36000
O 	O 	0.99790 0.27360 0.36560 -0.35900
O 	O 	0.45140 0.24775 0.76755 -0.42200
O 	O 	0.68140 0.25131 0.30059 -0.34500
O 	O 	0.48130 0.74620 0.73400 -0.41700
O 	O 	0.69900 0.75485 0.73415 -0.43800
O 	O 	0.66750 0.75315 0.29845 -0.35300
O 	O 	0.65460 0.33370 0.69150 -0.36800
O 	O 	0.62510 0.23660 0.62850 -0.35600
O 	O 	0.50130 0.66580 0.81390 -0.35800
O 	O 	0.83310 0.16510 0.28600 -0.36500
O 	O 	0.46690 0.27860 0.63600 -0.36600
O 	O 	0.19900 0.74515 0.76585 -0.43900
O 	O 	0.48150 0.16210 0.67810 -0.36600
O 	O 	0.67750 0.83820 0.81550 -0.35500
O 	O 	0.84540 0.83370 0.19150 -0.36700
O 	O 	0.51870 0.25380 0.26600 -0.41700
O 	O 	0.65840 0.73020 0.87030 -0.36200
O 	O 	0.34540 0.66630 0.30850 -0.36800
O 	O 	0.98130 0.75380 0.76600 -0.41400
O 	O 	0.70730 0.74457 0.19863 -0.34200
O 	O 	0.81860 0.75131 0.80059 -0.34500
O 	O 	0.53310 0.72140 0.36400 -0.36600
O 	O 	0.37860 0.75273 0.79987 -0.33400
O 	O 	0.31860 0.74869 0.69941 -0.34500
O 	O 	0.98500 0.16220 0.78240 -0.34100
O 	O 	0.66690 0.66510 0.78600 -0.36400
O 	O 	0.16750 0.74685 0.20155 -0.35200
O 	O 	0.32250 0.16180 0.18450 -0.35500
O 	O 	0.87490 0.73660 0.12850 -0.35600
O 	O 	0.80100 0.25485 0.23415 -0.43900
O 	O 	0.79270 0.24457 0.69863 -0.34200
O 	O 	0.03310 0.77860 0.13600 -0.36100
O 	O 	0.17750 0.66180 0.68450 -0.35500
O 	O 	0.15840 0.76980 0.62970 -0.36200
O 	O 	0.82250 0.33820 0.31550 -0.35500
O 	O 	0.37680 0.83810 0.28240 -0.37600
O 	O 	0.51850 0.83790 0.32190 -0.36600
