data_crystal

_cell_length_a 8.90200
_cell_length_b 11.88700
_cell_length_c 14.75700
_cell_angle_alpha 90.00000
_cell_angle_beta  90.00000
_cell_angle_gamma 90.00000

_symmetry_space_group_name_	'P 1'
_symmetry_space_group_name_H-M	'P 1'

loop_
_symmetry_equiv_pos_as_xyz
  x,y,z

loop_
_atom_site_label
_atom_site_type_symbol
_atom_site_fract_x
_atom_site_fract_y
_atom_site_fract_z
_atom_site_charge
Zn	Zn	0.20358 0.60087 0.61256 1.18600
Zn	Zn	0.29642 0.39913 0.11256 1.18500
Zn	Zn	0.70358 0.89913 0.38744 1.18500
Zn	Zn	0.79642 0.10087 0.88744 1.18500
H 	H 	0.02420 0.01500 0.15440 0.30100
H 	H 	0.52420 0.48500 0.84560 0.29900
H 	H 	0.57300 0.26030 0.23010 0.06200
H 	H 	0.92700 0.73970 0.73010 0.06200
H 	H 	0.63210 0.88410 0.18110 0.02500
H 	H 	0.39640 0.63780 0.15130 0.01800
H 	H 	0.59810 0.99920 0.06010 0.05500
H 	H 	0.90190 0.00080 0.56010 0.05600
H 	H 	0.36790 0.38410 0.31890 0.02400
H 	H 	0.40190 0.49920 0.43990 0.05700
H 	H 	0.86790 0.11590 0.68110 0.02500
H 	H 	0.13210 0.61590 0.81890 0.02400
H 	H 	0.97580 0.51500 0.34560 0.29900
H 	H 	0.47580 0.98500 0.65440 0.29700
H 	H 	0.89640 0.86220 0.84870 0.01900
H 	H 	0.42700 0.76030 0.26990 0.06200
H 	H 	0.60360 0.13780 0.34870 0.01800
H 	H 	0.10360 0.36220 0.65130 0.01900
H 	H 	0.07300 0.23970 0.76990 0.06200
H 	H 	0.09810 0.50080 0.93990 0.05700
C 	C 	0.95790 0.01990 0.04303 0.36700
C 	C 	0.62020 0.96070 0.19130 0.05400
C 	C 	0.89590 0.89050 0.78990 0.04700
C 	C 	0.60410 0.10950 0.28990 0.04700
C 	C 	0.87730 0.69660 0.42687 -0.04100
C 	C 	0.41310 0.64530 0.36916 0.00400
C 	C 	0.37730 0.80340 0.57313 -0.04100
C 	C 	0.58690 0.14530 0.13084 0.00200
C 	C 	0.62270 0.30340 0.92687 -0.04000
C 	C 	0.08690 0.35470 0.86916 0.00400
C 	C 	0.04210 0.51990 0.45697 0.37000
C 	C 	0.10130 0.47060 0.88180 -0.08600
C 	C 	0.60130 0.02940 0.11820 -0.08000
C 	C 	0.12020 0.53930 0.80870 0.05800
C 	C 	0.58590 0.18390 0.21860 -0.08000
C 	C 	0.08590 0.31610 0.78140 -0.08100
C 	C 	0.39590 0.60950 0.21010 0.04700
C 	C 	0.54210 0.98010 0.54303 0.36700
C 	C 	0.47280 0.87100 0.52307 -0.07800
C 	C 	0.97280 0.62900 0.47693 -0.07800
C 	C 	0.91310 0.85470 0.63084 0.00300
C 	C 	0.45790 0.48010 0.95697 0.37100
C 	C 	0.87980 0.03930 0.69130 0.05700
C 	C 	0.42300 0.72370 0.44655 0.11300
C 	C 	0.52720 0.37100 0.97693 -0.07900
C 	C 	0.12270 0.19660 0.07313 -0.04100
C 	C 	0.07700 0.27630 0.94655 0.11300
C 	C 	0.91410 0.81610 0.71860 -0.08000
C 	C 	0.81510 0.68350 0.33402 0.30200
C 	C 	0.57700 0.22370 0.05345 0.11400
C 	C 	0.92300 0.77630 0.55345 0.11400
C 	C 	0.41410 0.68390 0.28140 -0.08100
C 	C 	0.18490 0.18350 0.16598 0.30200
C 	C 	0.10410 0.39050 0.71010 0.04700
C 	C 	0.68490 0.31650 0.83402 0.30200
C 	C 	0.37980 0.46070 0.30870 0.05800
C 	C 	0.89870 0.97060 0.61820 -0.08400
C 	C 	0.02720 0.12900 0.02307 -0.07400
C 	C 	0.31510 0.81650 0.66598 0.30200
C 	C 	0.39870 0.52940 0.38180 -0.08600
N 	N 	0.84350 0.79100 0.47625 -0.22600
N 	N 	0.00050 0.67980 0.55729 -0.21600
N 	N 	0.50050 0.82020 0.44271 -0.21500
N 	N 	0.99950 0.17980 0.94271 -0.21600
N 	N 	0.37740 0.49790 0.22209 -0.24100
N 	N 	0.34350 0.70900 0.52375 -0.22600
N 	N 	0.12260 0.50210 0.72209 -0.24100
N 	N 	0.87740 0.00210 0.77791 -0.24100
N 	N 	0.65650 0.20900 0.97625 -0.22600
N 	N 	0.62260 0.99790 0.27791 -0.24100
N 	N 	0.15650 0.29100 0.02375 -0.22600
N 	N 	0.49950 0.32020 0.05729 -0.21500
O 	O 	0.49220 0.53092 0.88229 -0.47100
O 	O 	0.24650 0.73624 0.69934 -0.41600
O 	O 	0.33830 0.90950 0.70582 -0.26500
O 	O 	0.50780 0.03092 0.61771 -0.46700
O 	O 	0.66170 0.40950 0.79418 -0.26400
O 	O 	0.63360 0.01949 0.48807 -0.42000
O 	O 	0.13360 0.48051 0.51193 -0.42200
O 	O 	0.00780 0.46908 0.38229 -0.47100
O 	O 	0.75350 0.23624 0.80066 -0.41600
O 	O 	0.74650 0.76376 0.30066 -0.41600
O 	O 	0.16170 0.09050 0.20582 -0.26400
O 	O 	0.83830 0.59050 0.29418 -0.26500
O 	O 	0.25350 0.26376 0.19934 -0.41600
O 	O 	0.99220 0.96908 0.11771 -0.47200
O 	O 	0.86640 0.98051 0.98807 -0.42000
O 	O 	0.36640 0.51949 0.01193 -0.42200
