data_crystal

_cell_length_a 22.62700
_cell_length_b 32.86800
_cell_length_c 32.86800
_cell_angle_alpha 90.00000
_cell_angle_beta  90.00000
_cell_angle_gamma 90.00000

_symmetry_space_group_name_	'P 1'
_symmetry_space_group_name_H-M	'P 1'

loop_
_symmetry_equiv_pos_as_xyz
  x,y,z

loop_
_atom_site_label
_atom_site_type_symbol
_atom_site_fract_x
_atom_site_fract_y
_atom_site_fract_z
_atom_site_charge
Cu	Cu	0.75019 0.82986 -0.00000 0.88800
Cu	Cu	0.83095 0.77270 -0.00000 0.88100
Cu	Cu	0.75019 0.17014 -0.00000 0.88700
Cu	Cu	0.83095 0.22730 -0.00000 0.88100
Cu	Cu	0.75019 0.00000 0.82986 0.88800
Cu	Cu	0.83095 -0.00000 0.77270 0.88100
Cu	Cu	0.75019 -0.00000 0.17014 0.88700
Cu	Cu	0.83095 0.00000 0.22730 0.88100
Cu	Cu	0.24981 0.17014 -0.00000 0.88700
Cu	Cu	0.16905 0.22730 -0.00000 0.88200
Cu	Cu	0.24981 0.82986 -0.00000 0.88800
Cu	Cu	0.16905 0.77270 -0.00000 0.88300
Cu	Cu	0.24981 0.00000 0.82986 0.88900
Cu	Cu	0.16905 -0.00000 0.77270 0.88300
Cu	Cu	0.24981 -0.00000 0.17014 0.88800
Cu	Cu	0.16905 0.00000 0.22730 0.88300
Cu	Cu	0.50000 0.77022 0.77022 0.89300
Cu	Cu	0.50000 0.82680 0.82680 0.90900
Cu	Cu	0.50000 0.22978 0.22978 0.89400
Cu	Cu	0.50000 0.17320 0.17320 0.90600
Cu	Cu	0.50000 0.22978 0.77022 0.89400
Cu	Cu	0.50000 0.17320 0.82680 0.90700
Cu	Cu	0.50000 0.77022 0.22978 0.89400
Cu	Cu	0.50000 0.82680 0.17320 0.90700
Cu	Cu	0.83192 0.66151 0.66151 0.90100
Cu	Cu	0.75205 0.62071 0.62071 0.90600
Cu	Cu	0.83192 0.33849 0.33849 0.90100
Cu	Cu	0.75205 0.37929 0.37929 0.90600
Cu	Cu	0.83192 0.33849 0.66151 0.90100
Cu	Cu	0.75205 0.37929 0.62071 0.90600
Cu	Cu	0.83192 0.66151 0.33849 0.90100
Cu	Cu	0.75205 0.62071 0.37929 0.90600
Cu	Cu	0.16808 0.33849 0.66151 0.90100
Cu	Cu	0.24795 0.37929 0.62071 0.90600
Cu	Cu	0.16808 0.66151 0.33849 0.90100
Cu	Cu	0.24795 0.62071 0.37929 0.90600
Cu	Cu	0.16808 0.66151 0.66151 0.90200
Cu	Cu	0.24795 0.62071 0.62071 0.90600
Cu	Cu	0.16808 0.33849 0.33849 0.90100
Cu	Cu	0.24795 0.37929 0.37929 0.90600
Cu	Cu	0.50000 0.50000 0.74069 0.89900
Cu	Cu	0.50000 0.50000 0.82048 0.90700
Cu	Cu	0.50000 0.50000 0.25931 0.89900
Cu	Cu	0.50000 0.50000 0.17952 0.90500
Cu	Cu	0.50000 0.25931 0.50000 0.89900
Cu	Cu	0.50000 0.17952 0.50000 0.90500
Cu	Cu	0.50000 0.74069 0.50000 0.89900
Cu	Cu	0.50000 0.82048 0.50000 0.90700
H 	H 	0.64160 0.78690 0.90200 0.07800
H 	H 	0.63210 0.68800 0.82770 0.09500
H 	H 	0.75450 0.69300 0.91450 0.08600
H 	H 	0.64130 0.58300 0.71990 0.07600
H 	H 	0.62900 0.59080 0.84200 0.09400
H 	H 	0.75510 0.65270 0.78100 0.08800
H 	H 	0.70430 0.62220 0.88070 0.12400
H 	H 	0.76130 0.63950 0.86010 0.12100
H 	H 	0.94100 0.81390 0.09860 0.08400
H 	H 	0.93470 0.56190 0.70850 0.08400
H 	H 	0.64160 0.21310 0.09800 0.07000
H 	H 	0.63210 0.31200 0.17230 0.09200
H 	H 	0.75450 0.30700 0.08550 0.07600
H 	H 	0.64130 0.41700 0.28010 0.07500
H 	H 	0.62900 0.40920 0.15800 0.08900
H 	H 	0.75510 0.34730 0.21900 0.08600
H 	H 	0.70430 0.37780 0.11930 0.11400
H 	H 	0.76130 0.36050 0.13990 0.11400
H 	H 	0.94100 0.18610 0.90140 0.08900
H 	H 	0.93470 0.43810 0.29150 0.08300
H 	H 	0.64160 0.09800 0.78690 0.07200
H 	H 	0.63210 0.17230 0.68800 0.09200
H 	H 	0.75450 0.08550 0.69300 0.07700
H 	H 	0.64130 0.28010 0.58300 0.07500
H 	H 	0.62900 0.15800 0.59080 0.08900
H 	H 	0.75510 0.21900 0.65270 0.08600
H 	H 	0.70430 0.11930 0.62220 0.11400
H 	H 	0.76130 0.13990 0.63950 0.11400
H 	H 	0.94100 0.90140 0.81390 0.09000
H 	H 	0.93470 0.29150 0.56190 0.08300
H 	H 	0.64160 0.90200 0.21310 0.07700
H 	H 	0.63210 0.82770 0.31200 0.09400
H 	H 	0.75450 0.91450 0.30700 0.08600
H 	H 	0.64130 0.71990 0.41700 0.07600
H 	H 	0.62900 0.84200 0.40920 0.09400
H 	H 	0.75510 0.78100 0.34730 0.08800
H 	H 	0.70430 0.88070 0.37780 0.12400
H 	H 	0.76130 0.86010 0.36050 0.12100
H 	H 	0.94100 0.09860 0.18610 0.08300
H 	H 	0.93470 0.70850 0.43810 0.08400
H 	H 	0.35840 0.21310 0.90200 0.07700
H 	H 	0.36790 0.31200 0.82770 0.09500
H 	H 	0.24550 0.30700 0.91450 0.08600
H 	H 	0.35870 0.41700 0.71990 0.07600
H 	H 	0.37100 0.40920 0.84200 0.09400
H 	H 	0.24490 0.34730 0.78100 0.08800
H 	H 	0.29570 0.37780 0.88070 0.12500
H 	H 	0.23870 0.36050 0.86010 0.12200
H 	H 	0.05900 0.18610 0.09860 0.08600
H 	H 	0.06530 0.43810 0.70850 0.08700
H 	H 	0.35840 0.78690 0.09800 0.07200
H 	H 	0.36790 0.68800 0.17230 0.09200
H 	H 	0.24550 0.69300 0.08550 0.07700
H 	H 	0.35870 0.58300 0.28010 0.07500
H 	H 	0.37100 0.59080 0.15800 0.08900
H 	H 	0.24490 0.65270 0.21900 0.08600
H 	H 	0.29570 0.62220 0.11930 0.11500
H 	H 	0.23870 0.63950 0.13990 0.11500
H 	H 	0.05900 0.81390 0.90140 0.09300
H 	H 	0.06530 0.56190 0.29150 0.08600
H 	H 	0.35840 0.90200 0.78690 0.07800
H 	H 	0.36790 0.82770 0.68800 0.09500
H 	H 	0.24550 0.91450 0.69300 0.08700
H 	H 	0.35870 0.71990 0.58300 0.07600
H 	H 	0.37100 0.84200 0.59080 0.09400
H 	H 	0.24490 0.78100 0.65270 0.08800
H 	H 	0.29570 0.88070 0.62220 0.12500
H 	H 	0.23870 0.86010 0.63950 0.12200
H 	H 	0.05900 0.09860 0.81390 0.08700
H 	H 	0.06530 0.70850 0.56190 0.08700
H 	H 	0.35840 0.09800 0.21310 0.07000
H 	H 	0.36790 0.17230 0.31200 0.09200
H 	H 	0.24550 0.08550 0.30700 0.07700
H 	H 	0.35870 0.28010 0.41700 0.07500
H 	H 	0.37100 0.15800 0.40920 0.08900
H 	H 	0.24490 0.21900 0.34730 0.08600
H 	H 	0.29570 0.11930 0.37780 0.11500
H 	H 	0.23870 0.13990 0.36050 0.11500
H 	H 	0.05900 0.90140 0.18610 0.09200
H 	H 	0.06530 0.29150 0.43810 0.08600
H 	H 	0.35840 0.21310 0.09800 0.07000
H 	H 	0.36790 0.31200 0.17230 0.09200
H 	H 	0.24550 0.30700 0.08550 0.07700
H 	H 	0.35870 0.41700 0.28010 0.07500
H 	H 	0.37100 0.40920 0.15800 0.08900
H 	H 	0.24490 0.34730 0.21900 0.08600
H 	H 	0.29570 0.37780 0.11930 0.11500
H 	H 	0.23870 0.36050 0.13990 0.11500
H 	H 	0.05900 0.18610 0.90140 0.09200
H 	H 	0.06530 0.43810 0.29150 0.08600
H 	H 	0.35840 0.78690 0.90200 0.07800
H 	H 	0.36790 0.68800 0.82770 0.09500
H 	H 	0.24550 0.69300 0.91450 0.08700
H 	H 	0.35870 0.58300 0.71990 0.07600
H 	H 	0.37100 0.59080 0.84200 0.09400
H 	H 	0.24490 0.65270 0.78100 0.08800
H 	H 	0.29570 0.62220 0.88070 0.12500
H 	H 	0.23870 0.63950 0.86010 0.12200
H 	H 	0.05900 0.81390 0.09860 0.08700
H 	H 	0.06530 0.56190 0.70850 0.08700
H 	H 	0.35840 0.90200 0.21310 0.07700
H 	H 	0.36790 0.82770 0.31200 0.09500
H 	H 	0.24550 0.91450 0.30700 0.08600
H 	H 	0.35870 0.71990 0.41700 0.07600
H 	H 	0.37100 0.84200 0.40920 0.09400
H 	H 	0.24490 0.78100 0.34730 0.08800
H 	H 	0.29570 0.88070 0.37780 0.12500
H 	H 	0.23870 0.86010 0.36050 0.12200
H 	H 	0.05900 0.09860 0.18610 0.08600
H 	H 	0.06530 0.70850 0.43810 0.08700
H 	H 	0.35840 0.09800 0.78690 0.07200
H 	H 	0.36790 0.17230 0.68800 0.09200
H 	H 	0.24550 0.08550 0.69300 0.07700
H 	H 	0.35870 0.28010 0.58300 0.07500
H 	H 	0.37100 0.15800 0.59080 0.08900
H 	H 	0.24490 0.21900 0.65270 0.08600
H 	H 	0.29570 0.11930 0.62220 0.11500
H 	H 	0.23870 0.13990 0.63950 0.11500
H 	H 	0.05900 0.90140 0.81390 0.09300
H 	H 	0.06530 0.29150 0.56190 0.08600
H 	H 	0.64160 0.78690 0.09800 0.07200
H 	H 	0.63210 0.68800 0.17230 0.09200
H 	H 	0.75450 0.69300 0.08550 0.07700
H 	H 	0.64130 0.58300 0.28010 0.07500
H 	H 	0.62900 0.59080 0.15800 0.08900
H 	H 	0.75510 0.65270 0.21900 0.08600
H 	H 	0.70430 0.62220 0.11930 0.11400
H 	H 	0.76130 0.63950 0.13990 0.11400
H 	H 	0.94100 0.81390 0.90140 0.09000
H 	H 	0.93470 0.56190 0.29150 0.08300
H 	H 	0.64160 0.21310 0.90200 0.07700
H 	H 	0.63210 0.31200 0.82770 0.09400
H 	H 	0.75450 0.30700 0.91450 0.08600
H 	H 	0.64130 0.41700 0.71990 0.07600
H 	H 	0.62900 0.40920 0.84200 0.09400
H 	H 	0.75510 0.34730 0.78100 0.08800
H 	H 	0.70430 0.37780 0.88070 0.12400
H 	H 	0.76130 0.36050 0.86010 0.12100
H 	H 	0.94100 0.18610 0.09860 0.08300
H 	H 	0.93470 0.43810 0.70850 0.08400
H 	H 	0.64160 0.09800 0.21310 0.07000
H 	H 	0.63210 0.17230 0.31200 0.09200
H 	H 	0.75450 0.08550 0.30700 0.07600
H 	H 	0.64130 0.28010 0.41700 0.07500
H 	H 	0.62900 0.15800 0.40920 0.08900
H 	H 	0.75510 0.21900 0.34730 0.08600
H 	H 	0.70430 0.11930 0.37780 0.11400
H 	H 	0.76130 0.13990 0.36050 0.11400
H 	H 	0.94100 0.90140 0.18610 0.08900
H 	H 	0.93470 0.29150 0.43810 0.08300
H 	H 	0.64160 0.90200 0.78690 0.07800
H 	H 	0.63210 0.82770 0.68800 0.09500
H 	H 	0.75450 0.91450 0.69300 0.08600
H 	H 	0.64130 0.71990 0.58300 0.07600
H 	H 	0.62900 0.84200 0.59080 0.09400
H 	H 	0.75510 0.78100 0.65270 0.08800
H 	H 	0.70430 0.88070 0.62220 0.12400
H 	H 	0.76130 0.86010 0.63950 0.12100
H 	H 	0.94100 0.09860 0.81390 0.08400
H 	H 	0.93470 0.70850 0.56190 0.08400
H 	H 	0.81760 0.90480 0.09520 0.08000
H 	H 	0.81760 0.09520 0.90480 0.08000
H 	H 	0.81760 0.90480 0.90480 0.08700
H 	H 	0.81760 0.09520 0.09520 0.07400
H 	H 	0.18240 0.09520 0.09520 0.07400
H 	H 	0.18240 0.90480 0.90480 0.08800
H 	H 	0.18240 0.09520 0.90480 0.08100
H 	H 	0.18240 0.90480 0.09520 0.08100
H 	H 	0.00000 0.83860 0.19520 0.12000
H 	H 	-0.00000 0.52390 0.75360 0.11800
H 	H 	0.00000 0.16140 0.80480 0.11900
H 	H 	0.00000 0.47610 0.24640 0.11500
H 	H 	0.00000 0.80480 0.83860 0.12100
H 	H 	-0.00000 0.24640 0.52390 0.11500
H 	H 	0.00000 0.19520 0.16140 0.11700
H 	H 	-0.00000 0.75360 0.47610 0.11900
H 	H 	0.00000 0.16140 0.19520 0.11700
H 	H 	-0.00000 0.47610 0.75360 0.11900
H 	H 	0.00000 0.83860 0.80480 0.12100
H 	H 	0.00000 0.52390 0.24640 0.11500
H 	H 	0.00000 0.19520 0.83860 0.12000
H 	H 	-0.00000 0.75360 0.52390 0.11800
H 	H 	0.00000 0.80480 0.16140 0.11900
H 	H 	-0.00000 0.24640 0.47610 0.11500
H 	H 	0.81560 0.50000 0.63610 0.07800
H 	H 	0.81560 0.50000 0.36390 0.07800
H 	H 	0.81560 0.36390 0.50000 0.07800
H 	H 	0.81560 0.63610 0.50000 0.07800
H 	H 	0.18440 0.50000 0.63610 0.07900
H 	H 	0.18440 0.50000 0.36390 0.07900
H 	H 	0.18440 0.63610 0.50000 0.07900
H 	H 	0.18440 0.36390 0.50000 0.07900
C 	C 	0.70410 0.74290 0.91220 -0.02300
C 	C 	0.65590 0.76190 0.89320 -0.03400
C 	C 	0.62950 0.74070 0.85940 -0.01600
C 	C 	0.65060 0.70190 0.84880 -0.11600
C 	C 	0.69750 0.68340 0.86810 0.13100
C 	C 	0.72330 0.70490 0.90050 -0.11100
C 	C 	0.70320 0.61780 0.74400 -0.02500
C 	C 	0.65680 0.59310 0.74410 -0.04100
C 	C 	0.63170 0.58250 0.78150 -0.00100
C 	C 	0.64950 0.59720 0.81840 -0.13100
C 	C 	0.69970 0.62240 0.81970 0.13900
C 	C 	0.72430 0.63400 0.78140 -0.11700
C 	C 	0.71850 0.63980 0.85910 -0.31400
C 	C 	0.73340 0.76570 0.94620 0.35100
C 	C 	0.58070 0.76170 0.83610 0.32000
C 	C 	0.73850 0.62790 0.70640 0.34500
C 	C 	0.57860 0.55250 0.78120 0.30800
C 	C 	0.84290 0.83710 0.05520 0.33800
C 	C 	0.87220 0.85550 0.09430 -0.01000
C 	C 	0.92330 0.83620 0.11110 -0.11900
C 	C 	0.84290 0.57640 0.65530 0.32800
C 	C 	0.87390 0.53680 0.66930 -0.01200
C 	C 	0.92080 0.53750 0.69780 -0.11300
C 	C 	0.70410 0.25710 0.08780 -0.03600
C 	C 	0.65590 0.23810 0.10680 -0.02900
C 	C 	0.62950 0.25930 0.14060 -0.02400
C 	C 	0.65060 0.29810 0.15120 -0.11000
C 	C 	0.69750 0.31660 0.13190 0.12000
C 	C 	0.72330 0.29510 0.09950 -0.10300
C 	C 	0.70320 0.38220 0.25600 -0.02800
C 	C 	0.65680 0.40690 0.25590 -0.03800
C 	C 	0.63170 0.41750 0.21850 -0.00600
C 	C 	0.64950 0.40280 0.18160 -0.12600
C 	C 	0.69970 0.37760 0.18030 0.13100
C 	C 	0.72430 0.36600 0.21860 -0.11200
C 	C 	0.71850 0.36020 0.14090 -0.30100
C 	C 	0.73340 0.23430 0.05380 0.35600
C 	C 	0.58070 0.23830 0.16390 0.32200
C 	C 	0.73850 0.37210 0.29360 0.34600
C 	C 	0.57860 0.44750 0.21880 0.31000
C 	C 	0.84290 0.16290 0.94480 0.33600
C 	C 	0.87220 0.14450 0.90570 -0.00700
C 	C 	0.92330 0.16380 0.88890 -0.12000
C 	C 	0.84290 0.42360 0.34470 0.32800
C 	C 	0.87390 0.46320 0.33070 -0.01200
C 	C 	0.92080 0.46250 0.30220 -0.11200
C 	C 	0.70410 0.08780 0.74290 -0.03500
C 	C 	0.65590 0.10680 0.76190 -0.03000
C 	C 	0.62950 0.14060 0.74070 -0.02300
C 	C 	0.65060 0.15120 0.70190 -0.11000
C 	C 	0.69750 0.13190 0.68340 0.12000
C 	C 	0.72330 0.09950 0.70490 -0.10400
C 	C 	0.70320 0.25600 0.61780 -0.02800
C 	C 	0.65680 0.25590 0.59310 -0.03800
C 	C 	0.63170 0.21850 0.58250 -0.00600
C 	C 	0.64950 0.18160 0.59720 -0.12600
C 	C 	0.69970 0.18030 0.62240 0.13100
C 	C 	0.72430 0.21860 0.63400 -0.11200
C 	C 	0.71850 0.14090 0.63980 -0.30100
C 	C 	0.73340 0.05380 0.76570 0.35500
C 	C 	0.58070 0.16390 0.76170 0.32200
C 	C 	0.73850 0.29360 0.62790 0.34600
C 	C 	0.57860 0.21880 0.55250 0.31000
C 	C 	0.84290 0.94480 0.83710 0.33500
C 	C 	0.87220 0.90570 0.85550 -0.00200
C 	C 	0.92330 0.88890 0.83620 -0.12300
C 	C 	0.84290 0.34470 0.57640 0.32800
C 	C 	0.87390 0.33070 0.53680 -0.01200
C 	C 	0.92080 0.30220 0.53750 -0.11200
C 	C 	0.70410 0.91220 0.25710 -0.02400
C 	C 	0.65590 0.89320 0.23810 -0.03300
C 	C 	0.62950 0.85940 0.25930 -0.01700
C 	C 	0.65060 0.84880 0.29810 -0.11500
C 	C 	0.69750 0.86810 0.31660 0.13100
C 	C 	0.72330 0.90050 0.29510 -0.11000
C 	C 	0.70320 0.74400 0.38220 -0.02500
C 	C 	0.65680 0.74410 0.40690 -0.04100
C 	C 	0.63170 0.78150 0.41750 -0.00100
C 	C 	0.64950 0.81840 0.40280 -0.13100
C 	C 	0.69970 0.81970 0.37760 0.13900
C 	C 	0.72430 0.78140 0.36600 -0.11700
C 	C 	0.71850 0.85910 0.36020 -0.31400
C 	C 	0.73340 0.94620 0.23430 0.35100
C 	C 	0.58070 0.83610 0.23830 0.32100
C 	C 	0.73850 0.70640 0.37210 0.34500
C 	C 	0.57860 0.78120 0.44750 0.30800
C 	C 	0.84290 0.05520 0.16290 0.33900
C 	C 	0.87220 0.09430 0.14450 -0.01600
C 	C 	0.92330 0.11110 0.16380 -0.11700
C 	C 	0.84290 0.65530 0.42360 0.32800
C 	C 	0.87390 0.66930 0.46320 -0.01200
C 	C 	0.92080 0.69780 0.46250 -0.11300
C 	C 	0.29590 0.25710 0.91220 -0.02300
C 	C 	0.34410 0.23810 0.89320 -0.03400
C 	C 	0.37050 0.25930 0.85940 -0.01600
C 	C 	0.34940 0.29810 0.84880 -0.11600
C 	C 	0.30250 0.31660 0.86810 0.13200
C 	C 	0.27670 0.29510 0.90050 -0.11100
C 	C 	0.29680 0.38220 0.74400 -0.02400
C 	C 	0.34320 0.40690 0.74410 -0.04100
C 	C 	0.36830 0.41750 0.78150 -0.00100
C 	C 	0.35050 0.40280 0.81840 -0.13200
C 	C 	0.30030 0.37760 0.81970 0.14000
C 	C 	0.27570 0.36600 0.78140 -0.11700
C 	C 	0.28150 0.36020 0.85910 -0.31500
C 	C 	0.26660 0.23430 0.94620 0.35100
C 	C 	0.41930 0.23830 0.83610 0.32100
C 	C 	0.26150 0.37210 0.70640 0.34500
C 	C 	0.42140 0.44750 0.78120 0.30800
C 	C 	0.15710 0.16290 0.05520 0.33800
C 	C 	0.12780 0.14450 0.09430 -0.01300
C 	C 	0.07670 0.16380 0.11110 -0.11900
C 	C 	0.15710 0.42360 0.65530 0.32700
C 	C 	0.12610 0.46320 0.66930 -0.00900
C 	C 	0.07920 0.46250 0.69780 -0.11500
C 	C 	0.29590 0.74290 0.08780 -0.03400
C 	C 	0.34410 0.76190 0.10680 -0.03000
C 	C 	0.37050 0.74070 0.14060 -0.02200
C 	C 	0.34940 0.70190 0.15120 -0.11100
C 	C 	0.30250 0.68340 0.13190 0.12100
C 	C 	0.27670 0.70490 0.09950 -0.10500
C 	C 	0.29680 0.61780 0.25600 -0.02700
C 	C 	0.34320 0.59310 0.25590 -0.03800
C 	C 	0.36830 0.58250 0.21850 -0.00500
C 	C 	0.35050 0.59720 0.18160 -0.12600
C 	C 	0.30030 0.62240 0.18030 0.13200
C 	C 	0.27570 0.63400 0.21860 -0.11300
C 	C 	0.28150 0.63980 0.14090 -0.30200
C 	C 	0.26660 0.76570 0.05380 0.35500
C 	C 	0.41930 0.76170 0.16390 0.32200
C 	C 	0.26150 0.62790 0.29360 0.34600
C 	C 	0.42140 0.55250 0.21880 0.31000
C 	C 	0.15710 0.83710 0.94480 0.33400
C 	C 	0.12780 0.85550 0.90570 0.00100
C 	C 	0.07670 0.83620 0.88890 -0.12500
C 	C 	0.15710 0.57640 0.34470 0.32700
C 	C 	0.12610 0.53680 0.33070 -0.01000
C 	C 	0.07920 0.53750 0.30220 -0.11400
C 	C 	0.29590 0.91220 0.74290 -0.02200
C 	C 	0.34410 0.89320 0.76190 -0.03500
C 	C 	0.37050 0.85940 0.74070 -0.01500
C 	C 	0.34940 0.84880 0.70190 -0.11600
C 	C 	0.30250 0.86810 0.68340 0.13200
C 	C 	0.27670 0.90050 0.70490 -0.11200
C 	C 	0.29680 0.74400 0.61780 -0.02400
C 	C 	0.34320 0.74410 0.59310 -0.04200
C 	C 	0.36830 0.78150 0.58250 -0.00100
C 	C 	0.35050 0.81840 0.59720 -0.13200
C 	C 	0.30030 0.81970 0.62240 0.14000
C 	C 	0.27570 0.78140 0.63400 -0.11700
C 	C 	0.28150 0.85910 0.63980 -0.31500
C 	C 	0.26660 0.94620 0.76570 0.35000
C 	C 	0.41930 0.83610 0.76170 0.32000
C 	C 	0.26150 0.70640 0.62790 0.34500
C 	C 	0.42140 0.78120 0.55250 0.30800
C 	C 	0.15710 0.05520 0.83710 0.33700
C 	C 	0.12780 0.09430 0.85550 -0.00800
C 	C 	0.07670 0.11110 0.83620 -0.12100
C 	C 	0.15710 0.65530 0.57640 0.32700
C 	C 	0.12610 0.66930 0.53680 -0.00900
C 	C 	0.07920 0.69780 0.53750 -0.11500
C 	C 	0.29590 0.08780 0.25710 -0.03500
C 	C 	0.34410 0.10680 0.23810 -0.02900
C 	C 	0.37050 0.14060 0.25930 -0.02300
C 	C 	0.34940 0.15120 0.29810 -0.11000
C 	C 	0.30250 0.13190 0.31660 0.12100
C 	C 	0.27670 0.09950 0.29510 -0.10400
C 	C 	0.29680 0.25600 0.38220 -0.02700
C 	C 	0.34320 0.25590 0.40690 -0.03800
C 	C 	0.36830 0.21850 0.41750 -0.00500
C 	C 	0.35050 0.18160 0.40280 -0.12600
C 	C 	0.30030 0.18030 0.37760 0.13200
C 	C 	0.27570 0.21860 0.36600 -0.11300
C 	C 	0.28150 0.14090 0.36020 -0.30200
C 	C 	0.26660 0.05380 0.23430 0.35600
C 	C 	0.41930 0.16390 0.23830 0.32200
C 	C 	0.26150 0.29360 0.37210 0.34600
C 	C 	0.42140 0.21880 0.44750 0.31000
C 	C 	0.15710 0.94480 0.16290 0.33500
C 	C 	0.12780 0.90570 0.14450 -0.00400
C 	C 	0.07670 0.88890 0.16380 -0.12200
C 	C 	0.15710 0.34470 0.42360 0.32700
C 	C 	0.12610 0.33070 0.46320 -0.01000
C 	C 	0.07920 0.30220 0.46250 -0.11400
C 	C 	0.29590 0.25710 0.08780 -0.03500
C 	C 	0.34410 0.23810 0.10680 -0.02900
C 	C 	0.37050 0.25930 0.14060 -0.02300
C 	C 	0.34940 0.29810 0.15120 -0.11000
C 	C 	0.30250 0.31660 0.13190 0.12100
C 	C 	0.27670 0.29510 0.09950 -0.10400
C 	C 	0.29680 0.38220 0.25600 -0.02700
C 	C 	0.34320 0.40690 0.25590 -0.03800
C 	C 	0.36830 0.41750 0.21850 -0.00500
C 	C 	0.35050 0.40280 0.18160 -0.12600
C 	C 	0.30030 0.37760 0.18030 0.13200
C 	C 	0.27570 0.36600 0.21860 -0.11300
C 	C 	0.28150 0.36020 0.14090 -0.30200
C 	C 	0.26660 0.23430 0.05380 0.35600
C 	C 	0.41930 0.23830 0.16390 0.32200
C 	C 	0.26150 0.37210 0.29360 0.34600
C 	C 	0.42140 0.44750 0.21880 0.31000
C 	C 	0.15710 0.16290 0.94480 0.33500
C 	C 	0.12780 0.14450 0.90570 -0.00400
C 	C 	0.07670 0.16380 0.88890 -0.12200
C 	C 	0.15710 0.42360 0.34470 0.32700
C 	C 	0.12610 0.46320 0.33070 -0.01000
C 	C 	0.07920 0.46250 0.30220 -0.11400
C 	C 	0.29590 0.74290 0.91220 -0.02200
C 	C 	0.34410 0.76190 0.89320 -0.03500
C 	C 	0.37050 0.74070 0.85940 -0.01500
C 	C 	0.34940 0.70190 0.84880 -0.11600
C 	C 	0.30250 0.68340 0.86810 0.13200
C 	C 	0.27670 0.70490 0.90050 -0.11200
C 	C 	0.29680 0.61780 0.74400 -0.02400
C 	C 	0.34320 0.59310 0.74410 -0.04200
C 	C 	0.36830 0.58250 0.78150 -0.00100
C 	C 	0.35050 0.59720 0.81840 -0.13200
C 	C 	0.30030 0.62240 0.81970 0.14000
C 	C 	0.27570 0.63400 0.78140 -0.11700
C 	C 	0.28150 0.63980 0.85910 -0.31500
C 	C 	0.26660 0.76570 0.94620 0.35000
C 	C 	0.41930 0.76170 0.83610 0.32000
C 	C 	0.26150 0.62790 0.70640 0.34500
C 	C 	0.42140 0.55250 0.78120 0.30800
C 	C 	0.15710 0.83710 0.05520 0.33700
C 	C 	0.12780 0.85550 0.09430 -0.00800
C 	C 	0.07670 0.83620 0.11110 -0.12100
C 	C 	0.15710 0.57640 0.65530 0.32700
C 	C 	0.12610 0.53680 0.66930 -0.00900
C 	C 	0.07920 0.53750 0.69780 -0.11500
C 	C 	0.29590 0.91220 0.25710 -0.02300
C 	C 	0.34410 0.89320 0.23810 -0.03400
C 	C 	0.37050 0.85940 0.25930 -0.01600
C 	C 	0.34940 0.84880 0.29810 -0.11600
C 	C 	0.30250 0.86810 0.31660 0.13200
C 	C 	0.27670 0.90050 0.29510 -0.11100
C 	C 	0.29680 0.74400 0.38220 -0.02400
C 	C 	0.34320 0.74410 0.40690 -0.04100
C 	C 	0.36830 0.78150 0.41750 -0.00100
C 	C 	0.35050 0.81840 0.40280 -0.13200
C 	C 	0.30030 0.81970 0.37760 0.14000
C 	C 	0.27570 0.78140 0.36600 -0.11700
C 	C 	0.28150 0.85910 0.36020 -0.31500
C 	C 	0.26660 0.94620 0.23430 0.35100
C 	C 	0.41930 0.83610 0.23830 0.32100
C 	C 	0.26150 0.70640 0.37210 0.34500
C 	C 	0.42140 0.78120 0.44750 0.30800
C 	C 	0.15710 0.05520 0.16290 0.33800
C 	C 	0.12780 0.09430 0.14450 -0.01300
C 	C 	0.07670 0.11110 0.16380 -0.11900
C 	C 	0.15710 0.65530 0.42360 0.32700
C 	C 	0.12610 0.66930 0.46320 -0.00900
C 	C 	0.07920 0.69780 0.46250 -0.11500
C 	C 	0.29590 0.08780 0.74290 -0.03400
C 	C 	0.34410 0.10680 0.76190 -0.03000
C 	C 	0.37050 0.14060 0.74070 -0.02200
C 	C 	0.34940 0.15120 0.70190 -0.11100
C 	C 	0.30250 0.13190 0.68340 0.12100
C 	C 	0.27670 0.09950 0.70490 -0.10500
C 	C 	0.29680 0.25600 0.61780 -0.02700
C 	C 	0.34320 0.25590 0.59310 -0.03800
C 	C 	0.36830 0.21850 0.58250 -0.00500
C 	C 	0.35050 0.18160 0.59720 -0.12600
C 	C 	0.30030 0.18030 0.62240 0.13200
C 	C 	0.27570 0.21860 0.63400 -0.11300
C 	C 	0.28150 0.14090 0.63980 -0.30200
C 	C 	0.26660 0.05380 0.76570 0.35500
C 	C 	0.41930 0.16390 0.76170 0.32200
C 	C 	0.26150 0.29360 0.62790 0.34600
C 	C 	0.42140 0.21880 0.55250 0.31000
C 	C 	0.15710 0.94480 0.83710 0.33400
C 	C 	0.12780 0.90570 0.85550 0.00100
C 	C 	0.07670 0.88890 0.83620 -0.12500
C 	C 	0.15710 0.34470 0.57640 0.32700
C 	C 	0.12610 0.33070 0.53680 -0.01000
C 	C 	0.07920 0.30220 0.53750 -0.11400
C 	C 	0.70410 0.74290 0.08780 -0.03500
C 	C 	0.65590 0.76190 0.10680 -0.03000
C 	C 	0.62950 0.74070 0.14060 -0.02300
C 	C 	0.65060 0.70190 0.15120 -0.11000
C 	C 	0.69750 0.68340 0.13190 0.12000
C 	C 	0.72330 0.70490 0.09950 -0.10400
C 	C 	0.70320 0.61780 0.25600 -0.02800
C 	C 	0.65680 0.59310 0.25590 -0.03800
C 	C 	0.63170 0.58250 0.21850 -0.00600
C 	C 	0.64950 0.59720 0.18160 -0.12600
C 	C 	0.69970 0.62240 0.18030 0.13100
C 	C 	0.72430 0.63400 0.21860 -0.11200
C 	C 	0.71850 0.63980 0.14090 -0.30100
C 	C 	0.73340 0.76570 0.05380 0.35500
C 	C 	0.58070 0.76170 0.16390 0.32200
C 	C 	0.73850 0.62790 0.29360 0.34600
C 	C 	0.57860 0.55250 0.21880 0.31000
C 	C 	0.84290 0.83710 0.94480 0.33500
C 	C 	0.87220 0.85550 0.90570 -0.00200
C 	C 	0.92330 0.83620 0.88890 -0.12300
C 	C 	0.84290 0.57640 0.34470 0.32800
C 	C 	0.87390 0.53680 0.33070 -0.01200
C 	C 	0.92080 0.53750 0.30220 -0.11200
C 	C 	0.70410 0.25710 0.91220 -0.02400
C 	C 	0.65590 0.23810 0.89320 -0.03300
C 	C 	0.62950 0.25930 0.85940 -0.01700
C 	C 	0.65060 0.29810 0.84880 -0.11500
C 	C 	0.69750 0.31660 0.86810 0.13100
C 	C 	0.72330 0.29510 0.90050 -0.11000
C 	C 	0.70320 0.38220 0.74400 -0.02500
C 	C 	0.65680 0.40690 0.74410 -0.04100
C 	C 	0.63170 0.41750 0.78150 -0.00100
C 	C 	0.64950 0.40280 0.81840 -0.13100
C 	C 	0.69970 0.37760 0.81970 0.13900
C 	C 	0.72430 0.36600 0.78140 -0.11700
C 	C 	0.71850 0.36020 0.85910 -0.31400
C 	C 	0.73340 0.23430 0.94620 0.35100
C 	C 	0.58070 0.23830 0.83610 0.32100
C 	C 	0.73850 0.37210 0.70640 0.34500
C 	C 	0.57860 0.44750 0.78120 0.30800
C 	C 	0.84290 0.16290 0.05520 0.33900
C 	C 	0.87220 0.14450 0.09430 -0.01600
C 	C 	0.92330 0.16380 0.11110 -0.11700
C 	C 	0.84290 0.42360 0.65530 0.32800
C 	C 	0.87390 0.46320 0.66930 -0.01200
C 	C 	0.92080 0.46250 0.69780 -0.11300
C 	C 	0.70410 0.08780 0.25710 -0.03600
C 	C 	0.65590 0.10680 0.23810 -0.02900
C 	C 	0.62950 0.14060 0.25930 -0.02400
C 	C 	0.65060 0.15120 0.29810 -0.11000
C 	C 	0.69750 0.13190 0.31660 0.12000
C 	C 	0.72330 0.09950 0.29510 -0.10300
C 	C 	0.70320 0.25600 0.38220 -0.02800
C 	C 	0.65680 0.25590 0.40690 -0.03800
C 	C 	0.63170 0.21850 0.41750 -0.00600
C 	C 	0.64950 0.18160 0.40280 -0.12600
C 	C 	0.69970 0.18030 0.37760 0.13100
C 	C 	0.72430 0.21860 0.36600 -0.11200
C 	C 	0.71850 0.14090 0.36020 -0.30100
C 	C 	0.73340 0.05380 0.23430 0.35600
C 	C 	0.58070 0.16390 0.23830 0.32200
C 	C 	0.73850 0.29360 0.37210 0.34600
C 	C 	0.57860 0.21880 0.44750 0.31000
C 	C 	0.84290 0.94480 0.16290 0.33600
C 	C 	0.87220 0.90570 0.14450 -0.00700
C 	C 	0.92330 0.88890 0.16380 -0.12000
C 	C 	0.84290 0.34470 0.42360 0.32800
C 	C 	0.87390 0.33070 0.46320 -0.01200
C 	C 	0.92080 0.30220 0.46250 -0.11200
C 	C 	0.70410 0.91220 0.74290 -0.02300
C 	C 	0.65590 0.89320 0.76190 -0.03400
C 	C 	0.62950 0.85940 0.74070 -0.01600
C 	C 	0.65060 0.84880 0.70190 -0.11600
C 	C 	0.69750 0.86810 0.68340 0.13100
C 	C 	0.72330 0.90050 0.70490 -0.11100
C 	C 	0.70320 0.74400 0.61780 -0.02500
C 	C 	0.65680 0.74410 0.59310 -0.04100
C 	C 	0.63170 0.78150 0.58250 -0.00100
C 	C 	0.64950 0.81840 0.59720 -0.13100
C 	C 	0.69970 0.81970 0.62240 0.13900
C 	C 	0.72430 0.78140 0.63400 -0.11700
C 	C 	0.71850 0.85910 0.63980 -0.31400
C 	C 	0.73340 0.94620 0.76570 0.35100
C 	C 	0.58070 0.83610 0.76170 0.32000
C 	C 	0.73850 0.70640 0.62790 0.34500
C 	C 	0.57860 0.78120 0.55250 0.30800
C 	C 	0.84290 0.05520 0.83710 0.33800
C 	C 	0.87220 0.09430 0.85550 -0.01000
C 	C 	0.92330 0.11110 0.83620 -0.11900
C 	C 	0.84290 0.65530 0.57640 0.32800
C 	C 	0.87390 0.66930 0.53680 -0.01200
C 	C 	0.92080 0.69780 0.53750 -0.11300
C 	C 	0.84800 0.89130 0.10870 -0.04800
C 	C 	0.94500 0.85280 0.14720 0.13200
C 	C 	0.84800 0.10870 0.89130 -0.04800
C 	C 	0.94500 0.14720 0.85280 0.13200
C 	C 	0.84800 0.89130 0.89130 -0.05100
C 	C 	0.94500 0.85280 0.85280 0.13700
C 	C 	0.84800 0.10870 0.10870 -0.04400
C 	C 	0.94500 0.14720 0.14720 0.12700
C 	C 	0.15200 0.10870 0.10870 -0.04500
C 	C 	0.05500 0.14720 0.14720 0.13400
C 	C 	0.15200 0.89130 0.89130 -0.05300
C 	C 	0.05500 0.85280 0.85280 0.14300
C 	C 	0.15200 0.10870 0.89130 -0.04900
C 	C 	0.05500 0.14720 0.85280 0.13900
C 	C 	0.15200 0.89130 0.10870 -0.04900
C 	C 	0.05500 0.85280 0.14720 0.13900
C 	C 	0.00000 0.83390 0.16610 -0.30300
C 	C 	0.00000 0.16610 0.83390 -0.30300
C 	C 	0.00000 0.83390 0.83390 -0.30800
C 	C 	0.00000 0.16610 0.16610 -0.29900
C 	C 	0.84730 0.50000 0.65410 -0.04500
C 	C 	0.94580 0.50000 0.70960 0.12800
C 	C 	0.84730 0.50000 0.34590 -0.04400
C 	C 	0.94580 0.50000 0.29040 0.12600
C 	C 	0.84730 0.34590 0.50000 -0.04400
C 	C 	0.94580 0.29040 0.50000 0.12600
C 	C 	0.84730 0.65410 0.50000 -0.04500
C 	C 	0.94580 0.70960 0.50000 0.12800
C 	C 	0.15270 0.50000 0.65410 -0.04600
C 	C 	0.05420 0.50000 0.70960 0.13500
C 	C 	0.15270 0.50000 0.34590 -0.04500
C 	C 	0.05420 0.50000 0.29040 0.13200
C 	C 	0.15270 0.65410 0.50000 -0.04600
C 	C 	0.05420 0.70960 0.50000 0.13500
C 	C 	0.15270 0.34590 0.50000 -0.04500
C 	C 	0.05420 0.29040 0.50000 0.13200
C 	C 	0.00000 0.50000 0.73630 -0.30100
C 	C 	0.00000 0.50000 0.26370 -0.29700
C 	C 	0.00000 0.26370 0.50000 -0.29700
C 	C 	0.00000 0.73630 0.50000 -0.30100
O 	O 	0.71060 0.79730 0.95760 -0.39600
O 	O 	0.77940 0.74800 0.95810 -0.39700
O 	O 	0.56210 0.74410 0.80480 -0.38900
O 	O 	0.55990 0.79380 0.85260 -0.39300
O 	O 	0.78350 0.64910 0.70900 -0.41300
O 	O 	0.71470 0.61470 0.67450 -0.40400
O 	O 	0.56060 0.54100 0.81600 -0.39700
O 	O 	0.56130 0.54190 0.74620 -0.39400
O 	O 	0.79960 0.85410 0.04260 -0.42100
O 	O 	0.86960 0.80480 0.04280 -0.40600
O 	O 	0.87000 0.60830 0.66880 -0.39100
O 	O 	0.80140 0.57440 0.63170 -0.41000
O 	O 	0.71060 0.20270 0.04240 -0.42100
O 	O 	0.77940 0.25200 0.04190 -0.41900
O 	O 	0.56210 0.25590 0.19520 -0.39000
O 	O 	0.55990 0.20620 0.14740 -0.39900
O 	O 	0.78350 0.35090 0.29100 -0.41300
O 	O 	0.71470 0.38530 0.32550 -0.40500
O 	O 	0.56060 0.45900 0.18400 -0.40000
O 	O 	0.56130 0.45810 0.25380 -0.39400
O 	O 	0.79960 0.14590 0.95740 -0.40400
O 	O 	0.86960 0.19520 0.95720 -0.38500
O 	O 	0.87000 0.39170 0.33120 -0.39100
O 	O 	0.80140 0.42560 0.36830 -0.41000
O 	O 	0.71060 0.04240 0.79730 -0.41900
O 	O 	0.77940 0.04190 0.74800 -0.41900
O 	O 	0.56210 0.19520 0.74410 -0.39000
O 	O 	0.55990 0.14740 0.79380 -0.39700
O 	O 	0.78350 0.29100 0.64910 -0.41300
O 	O 	0.71470 0.32550 0.61470 -0.40500
O 	O 	0.56060 0.18400 0.54100 -0.40000
O 	O 	0.56130 0.25380 0.54190 -0.39400
O 	O 	0.79960 0.95740 0.85410 -0.39900
O 	O 	0.86960 0.95720 0.80480 -0.38400
O 	O 	0.87000 0.33120 0.60830 -0.39100
O 	O 	0.80140 0.36830 0.57440 -0.41000
O 	O 	0.71060 0.95760 0.20270 -0.39800
O 	O 	0.77940 0.95810 0.25200 -0.39700
O 	O 	0.56210 0.80480 0.25590 -0.38900
O 	O 	0.55990 0.85260 0.20620 -0.39400
O 	O 	0.78350 0.70900 0.35090 -0.41300
O 	O 	0.71470 0.67450 0.38530 -0.40400
O 	O 	0.56060 0.81600 0.45900 -0.39700
O 	O 	0.56130 0.74620 0.45810 -0.39400
O 	O 	0.79960 0.04260 0.14590 -0.42500
O 	O 	0.86960 0.04280 0.19520 -0.40700
O 	O 	0.87000 0.66880 0.39170 -0.39100
O 	O 	0.80140 0.63170 0.42560 -0.41000
O 	O 	0.28940 0.20270 0.95760 -0.39800
O 	O 	0.22060 0.25200 0.95810 -0.39600
O 	O 	0.43790 0.25590 0.80480 -0.38900
O 	O 	0.44010 0.20620 0.85260 -0.39400
O 	O 	0.21650 0.35090 0.70900 -0.41200
O 	O 	0.28530 0.38530 0.67450 -0.40400
O 	O 	0.43940 0.45900 0.81600 -0.39600
O 	O 	0.43870 0.45810 0.74620 -0.39400
O 	O 	0.20040 0.14590 0.04260 -0.42500
O 	O 	0.13040 0.19520 0.04280 -0.40500
O 	O 	0.13000 0.39170 0.66880 -0.38900
O 	O 	0.19860 0.42560 0.63170 -0.41000
O 	O 	0.28940 0.79730 0.04240 -0.41900
O 	O 	0.22060 0.74800 0.04190 -0.41800
O 	O 	0.43790 0.74410 0.19520 -0.39000
O 	O 	0.44010 0.79380 0.14740 -0.39700
O 	O 	0.21650 0.64910 0.29100 -0.41300
O 	O 	0.28530 0.61470 0.32550 -0.40500
O 	O 	0.43940 0.54100 0.18400 -0.40000
O 	O 	0.43870 0.54190 0.25380 -0.39400
O 	O 	0.20040 0.85410 0.95740 -0.39900
O 	O 	0.13040 0.80480 0.95720 -0.38300
O 	O 	0.13000 0.60830 0.33120 -0.38900
O 	O 	0.19860 0.57440 0.36830 -0.41000
O 	O 	0.28940 0.95760 0.79730 -0.39600
O 	O 	0.22060 0.95810 0.74800 -0.39600
O 	O 	0.43790 0.80480 0.74410 -0.38900
O 	O 	0.44010 0.85260 0.79380 -0.39300
O 	O 	0.21650 0.70900 0.64910 -0.41200
O 	O 	0.28530 0.67450 0.61470 -0.40400
O 	O 	0.43940 0.81600 0.54100 -0.39600
O 	O 	0.43870 0.74620 0.54190 -0.39400
O 	O 	0.20040 0.04260 0.85410 -0.42000
O 	O 	0.13040 0.04280 0.80480 -0.40400
O 	O 	0.13000 0.66880 0.60830 -0.38900
O 	O 	0.19860 0.63170 0.57440 -0.41000
O 	O 	0.28940 0.04240 0.20270 -0.42100
O 	O 	0.22060 0.04190 0.25200 -0.41800
O 	O 	0.43790 0.19520 0.25590 -0.39000
O 	O 	0.44010 0.14740 0.20620 -0.39900
O 	O 	0.21650 0.29100 0.35090 -0.41300
O 	O 	0.28530 0.32550 0.38530 -0.40500
O 	O 	0.43940 0.18400 0.45900 -0.40000
O 	O 	0.43870 0.25380 0.45810 -0.39400
O 	O 	0.20040 0.95740 0.14590 -0.40300
O 	O 	0.13040 0.95720 0.19520 -0.38400
O 	O 	0.13000 0.33120 0.39170 -0.38900
O 	O 	0.19860 0.36830 0.42560 -0.41000
O 	O 	0.28940 0.20270 0.04240 -0.42100
O 	O 	0.22060 0.25200 0.04190 -0.41800
O 	O 	0.43790 0.25590 0.19520 -0.39000
O 	O 	0.44010 0.20620 0.14740 -0.39900
O 	O 	0.21650 0.35090 0.29100 -0.41300
O 	O 	0.28530 0.38530 0.32550 -0.40500
O 	O 	0.43940 0.45900 0.18400 -0.40000
O 	O 	0.43870 0.45810 0.25380 -0.39400
O 	O 	0.20040 0.14590 0.95740 -0.40300
O 	O 	0.13040 0.19520 0.95720 -0.38400
O 	O 	0.13000 0.39170 0.33120 -0.38900
O 	O 	0.19860 0.42560 0.36830 -0.41000
O 	O 	0.28940 0.79730 0.95760 -0.39600
O 	O 	0.22060 0.74800 0.95810 -0.39600
O 	O 	0.43790 0.74410 0.80480 -0.38900
O 	O 	0.44010 0.79380 0.85260 -0.39300
O 	O 	0.21650 0.64910 0.70900 -0.41200
O 	O 	0.28530 0.61470 0.67450 -0.40400
O 	O 	0.43940 0.54100 0.81600 -0.39600
O 	O 	0.43870 0.54190 0.74620 -0.39400
O 	O 	0.20040 0.85410 0.04260 -0.42000
O 	O 	0.13040 0.80480 0.04280 -0.40400
O 	O 	0.13000 0.60830 0.66880 -0.38900
O 	O 	0.19860 0.57440 0.63170 -0.41000
O 	O 	0.28940 0.95760 0.20270 -0.39800
O 	O 	0.22060 0.95810 0.25200 -0.39600
O 	O 	0.43790 0.80480 0.25590 -0.38900
O 	O 	0.44010 0.85260 0.20620 -0.39400
O 	O 	0.21650 0.70900 0.35090 -0.41200
O 	O 	0.28530 0.67450 0.38530 -0.40400
O 	O 	0.43940 0.81600 0.45900 -0.39600
O 	O 	0.43870 0.74620 0.45810 -0.39400
O 	O 	0.20040 0.04260 0.14590 -0.42500
O 	O 	0.13040 0.04280 0.19520 -0.40500
O 	O 	0.13000 0.66880 0.39170 -0.38900
O 	O 	0.19860 0.63170 0.42560 -0.41000
O 	O 	0.28940 0.04240 0.79730 -0.41900
O 	O 	0.22060 0.04190 0.74800 -0.41800
O 	O 	0.43790 0.19520 0.74410 -0.39000
O 	O 	0.44010 0.14740 0.79380 -0.39700
O 	O 	0.21650 0.29100 0.64910 -0.41300
O 	O 	0.28530 0.32550 0.61470 -0.40500
O 	O 	0.43940 0.18400 0.54100 -0.40000
O 	O 	0.43870 0.25380 0.54190 -0.39400
O 	O 	0.20040 0.95740 0.85410 -0.39900
O 	O 	0.13040 0.95720 0.80480 -0.38300
O 	O 	0.13000 0.33120 0.60830 -0.38900
O 	O 	0.19860 0.36830 0.57440 -0.41000
O 	O 	0.71060 0.79730 0.04240 -0.41900
O 	O 	0.77940 0.74800 0.04190 -0.41900
O 	O 	0.56210 0.74410 0.19520 -0.39000
O 	O 	0.55990 0.79380 0.14740 -0.39700
O 	O 	0.78350 0.64910 0.29100 -0.41300
O 	O 	0.71470 0.61470 0.32550 -0.40500
O 	O 	0.56060 0.54100 0.18400 -0.40000
O 	O 	0.56130 0.54190 0.25380 -0.39400
O 	O 	0.79960 0.85410 0.95740 -0.39900
O 	O 	0.86960 0.80480 0.95720 -0.38400
O 	O 	0.87000 0.60830 0.33120 -0.39100
O 	O 	0.80140 0.57440 0.36830 -0.41000
O 	O 	0.71060 0.20270 0.95760 -0.39800
O 	O 	0.77940 0.25200 0.95810 -0.39700
O 	O 	0.56210 0.25590 0.80480 -0.38900
O 	O 	0.55990 0.20620 0.85260 -0.39400
O 	O 	0.78350 0.35090 0.70900 -0.41300
O 	O 	0.71470 0.38530 0.67450 -0.40400
O 	O 	0.56060 0.45900 0.81600 -0.39700
O 	O 	0.56130 0.45810 0.74620 -0.39400
O 	O 	0.79960 0.14590 0.04260 -0.42500
O 	O 	0.86960 0.19520 0.04280 -0.40700
O 	O 	0.87000 0.39170 0.66880 -0.39100
O 	O 	0.80140 0.42560 0.63170 -0.41000
O 	O 	0.71060 0.04240 0.20270 -0.42100
O 	O 	0.77940 0.04190 0.25200 -0.41900
O 	O 	0.56210 0.19520 0.25590 -0.39000
O 	O 	0.55990 0.14740 0.20620 -0.39900
O 	O 	0.78350 0.29100 0.35090 -0.41300
O 	O 	0.71470 0.32550 0.38530 -0.40500
O 	O 	0.56060 0.18400 0.45900 -0.40000
O 	O 	0.56130 0.25380 0.45810 -0.39400
O 	O 	0.79960 0.95740 0.14590 -0.40400
O 	O 	0.86960 0.95720 0.19520 -0.38500
O 	O 	0.87000 0.33120 0.39170 -0.39100
O 	O 	0.80140 0.36830 0.42560 -0.41000
O 	O 	0.71060 0.95760 0.79730 -0.39600
O 	O 	0.77940 0.95810 0.74800 -0.39700
O 	O 	0.56210 0.80480 0.74410 -0.38900
O 	O 	0.55990 0.85260 0.79380 -0.39300
O 	O 	0.78350 0.70900 0.64910 -0.41300
O 	O 	0.71470 0.67450 0.61470 -0.40400
O 	O 	0.56060 0.81600 0.54100 -0.39700
O 	O 	0.56130 0.74620 0.54190 -0.39400
O 	O 	0.79960 0.04260 0.85410 -0.42100
O 	O 	0.86960 0.04280 0.80480 -0.40600
O 	O 	0.87000 0.66880 0.60830 -0.39100
O 	O 	0.80140 0.63170 0.57440 -0.41000
