data_crystal

_cell_length_a 18.89910
_cell_length_b 15.52290
_cell_length_c 9.07020
_cell_angle_alpha 90.00000
_cell_angle_beta  90.00000
_cell_angle_gamma 90.00000

_symmetry_space_group_name_	'P 1'
_symmetry_space_group_name_H-M	'P 1'

loop_
_symmetry_equiv_pos_as_xyz
  x,y,z

loop_
_atom_site_label
_atom_site_type_symbol
_atom_site_fract_x
_atom_site_fract_y
_atom_site_fract_z
_atom_site_charge
C 	C 	0.01380 0.15560 0.35660 0.24200
C 	C 	0.00000 0.15370 0.18710 0.25900
C 	C 	0.84330 0.01310 0.57770 0.27400
C 	C 	0.84530 0.95860 0.43360 0.26700
C 	C 	0.84590 0.34800 0.14500 0.46100
C 	C 	0.88410 0.42040 0.06730 -0.11700
C 	C 	0.84500 0.48570 0.00060 0.06900
H 	H 	0.79580 0.48330 0.00310 0.02300
C 	C 	0.87800 0.55420 0.93040 -0.12000
C 	C 	0.95170 0.55740 0.93180 -0.01300
H 	H 	0.97440 0.60350 0.88650 0.06100
C 	C 	0.99300 0.49330 0.99970 0.05200
C 	C 	0.95720 0.42530 0.06690 -0.02400
H 	H 	0.98320 0.38200 0.11270 0.06500
C 	C 	0.83660 0.62650 0.86350 0.46700
C 	C 	0.07120 0.49990 0.00350 -0.07300
C 	C 	0.10490 0.57960 0.98850 0.05600
H 	H 	0.07790 0.62910 0.97590 0.02900
C 	C 	0.17890 0.58580 0.99210 -0.15300
C 	C 	0.21930 0.51170 0.01010 0.09700
H 	H 	0.26840 0.51530 0.00940 0.03000
C 	C 	0.18740 0.43390 0.02870 -0.16300
C 	C 	0.11360 0.42760 0.02220 0.05200
H 	H 	0.09250 0.37380 0.03050 0.02600
C 	C 	0.23070 0.35400 0.05700 0.48400
C 	C 	0.21410 0.66940 0.96200 0.46200
Er	Er	0.16550 0.17774 0.20479 1.92700
Er	Er	0.84693 0.15256 0.31714 1.91400
O 	O 	0.07700 0.14970 0.39530 -0.33500
O 	O 	0.05000 0.17780 0.10690 -0.38700
O 	O 	0.94050 0.12720 0.15020 -0.35100
O 	O 	0.95960 0.16240 0.43460 -0.34800
O 	O 	0.84070 0.09260 0.56280 -0.34300
O 	O 	0.84358 0.97220 0.69870 -0.38800
O 	O 	0.85500 0.00070 0.31770 -0.37500
O 	O 	0.83880 0.87990 0.44720 -0.32700
O 	O 	0.88170 0.28590 0.19490 -0.43600
O 	O 	0.78010 0.35640 0.15740 -0.50700
O 	O 	0.77120 0.62050 0.85960 -0.49700
O 	O 	0.87170 0.69080 0.81610 -0.45000
O 	O 	0.17680 0.73650 0.97210 -0.46900
O 	O 	0.27900 0.66970 0.93110 -0.46100
O 	O 	0.29430 0.36420 0.08820 -0.46600
O 	O 	0.19820 0.28400 0.05180 -0.49900
C 	C 	0.98620 0.84440 0.85660 0.29200
C 	C 	0.00000 0.84630 0.68710 0.24000
C 	C 	0.15670 0.98690 0.07770 0.26200
C 	C 	0.15470 0.04140 0.93360 0.27400
C 	C 	0.15410 0.65200 0.64500 0.47400
C 	C 	0.11590 0.57960 0.56730 -0.15800
C 	C 	0.15500 0.51430 0.50060 0.11300
H 	H 	0.20420 0.51670 0.50310 0.01100
C 	C 	0.12200 0.44580 0.43040 -0.16500
C 	C 	0.04830 0.44260 0.43180 0.04100
H 	H 	0.02560 0.39650 0.38650 0.03000
C 	C 	0.00700 0.50670 0.49970 -0.04600
C 	C 	0.04280 0.57470 0.56690 0.04000
H 	H 	0.01680 0.61800 0.61270 0.03100
C 	C 	0.16340 0.37350 0.36350 0.48100
C 	C 	0.92880 0.50010 0.50350 0.01800
C 	C 	0.89510 0.42040 0.48850 0.00200
H 	H 	0.92210 0.37090 0.47590 0.05500
C 	C 	0.82110 0.41420 0.49210 -0.13400
C 	C 	0.78070 0.48830 0.51010 0.08300
H 	H 	0.73160 0.48470 0.50940 0.03700
C 	C 	0.81260 0.56610 0.52870 -0.13700
C 	C 	0.88640 0.57240 0.52220 0.00500
H 	H 	0.90750 0.62620 0.53050 0.05100
C 	C 	0.76930 0.64600 0.55700 0.47600
C 	C 	0.78590 0.33060 0.46200 0.45400
Er	Er	0.83450 0.82226 0.70479 1.93300
Er	Er	0.15307 0.84744 0.81714 1.91700
O 	O 	0.92300 0.85030 0.89530 -0.34200
O 	O 	0.95000 0.82220 0.60690 -0.36800
O 	O 	0.05950 0.87280 0.65020 -0.35900
O 	O 	0.04040 0.83760 0.93460 -0.38000
O 	O 	0.15930 0.90740 0.06280 -0.34800
O 	O 	0.15642 0.02780 0.19870 -0.38900
O 	O 	0.14500 0.99930 0.81770 -0.37900
O 	O 	0.16120 0.12010 0.94720 -0.32500
O 	O 	0.11830 0.71410 0.69490 -0.44400
O 	O 	0.21990 0.64360 0.65740 -0.51100
O 	O 	0.22880 0.37950 0.35960 -0.50200
O 	O 	0.12830 0.30920 0.31610 -0.45600
O 	O 	0.82320 0.26350 0.47210 -0.46700
O 	O 	0.72100 0.33030 0.43110 -0.46000
O 	O 	0.70570 0.63580 0.58820 -0.46400
O 	O 	0.80180 0.71600 0.55180 -0.49600
C 	C 	0.51380 0.34440 0.35660 0.25700
C 	C 	0.50000 0.34630 0.18710 0.27500
C 	C 	0.34330 0.48690 0.57770 0.26800
C 	C 	0.34530 0.54140 0.43360 0.26900
C 	C 	0.34590 0.15200 0.14500 0.46400
C 	C 	0.38410 0.07960 0.06730 -0.13000
C 	C 	0.34500 0.01430 0.00060 0.07800
H 	H 	0.29580 0.01670 0.00310 0.02000
C 	C 	0.37800 0.94580 0.93040 -0.13100
C 	C 	0.45170 0.94260 0.93180 0.00200
H 	H 	0.47440 0.89650 0.88650 0.05000
C 	C 	0.49300 0.00670 0.99970 0.02100
C 	C 	0.45720 0.07470 0.06690 -0.00700
H 	H 	0.48320 0.11800 0.11270 0.05200
C 	C 	0.33660 0.87350 0.86350 0.47100
C 	C 	0.57120 0.00010 0.00350 -0.04000
C 	C 	0.60490 0.92040 0.98850 0.03600
H 	H 	0.57790 0.87090 0.97590 0.03900
C 	C 	0.67890 0.91420 0.99210 -0.14100
C 	C 	0.71930 0.98830 0.01010 0.08500
H 	H 	0.76840 0.98470 0.00940 0.03400
C 	C 	0.68740 0.06610 0.02870 -0.15000
C 	C 	0.61360 0.07240 0.02220 0.03300
H 	H 	0.59250 0.12620 0.03050 0.03600
C 	C 	0.73070 0.14600 0.05700 0.47900
C 	C 	0.71410 0.83060 0.96200 0.45800
Er	Er	0.66550 0.32226 0.20479 1.92800
Er	Er	0.34693 0.34744 0.31714 1.91400
O 	O 	0.57700 0.35030 0.39530 -0.33600
O 	O 	0.55000 0.32220 0.10690 -0.38700
O 	O 	0.44050 0.37280 0.15020 -0.36700
O 	O 	0.45960 0.33760 0.43460 -0.36400
O 	O 	0.34070 0.40740 0.56280 -0.34300
O 	O 	0.34358 0.52780 0.69870 -0.38700
O 	O 	0.35500 0.49930 0.31770 -0.37800
O 	O 	0.33880 0.62010 0.44720 -0.32800
O 	O 	0.38170 0.21410 0.19490 -0.43900
O 	O 	0.28010 0.14360 0.15740 -0.50800
O 	O 	0.27120 0.87950 0.85960 -0.49800
O 	O 	0.37170 0.80920 0.81610 -0.45200
O 	O 	0.67680 0.76350 0.97210 -0.46800
O 	O 	0.77900 0.83030 0.93110 -0.45900
O 	O 	0.79430 0.13580 0.08820 -0.46500
O 	O 	0.69820 0.21600 0.05180 -0.49800
C 	C 	0.48620 0.65560 0.85660 0.25700
C 	C 	0.50000 0.65370 0.68710 0.27600
C 	C 	0.65670 0.51310 0.07770 0.26200
C 	C 	0.65470 0.45860 0.93360 0.27500
C 	C 	0.65410 0.84800 0.64500 0.47100
C 	C 	0.61590 0.92040 0.56730 -0.14700
C 	C 	0.65500 0.98570 0.50060 0.10200
H 	H 	0.70420 0.98330 0.50310 0.01400
C 	C 	0.62200 0.05420 0.43040 -0.15300
C 	C 	0.54830 0.05740 0.43180 0.02600
H 	H 	0.52560 0.10350 0.38650 0.04100
C 	C 	0.50700 0.99330 0.49970 -0.01400
C 	C 	0.54280 0.92530 0.56690 0.02300
H 	H 	0.51680 0.88200 0.61270 0.04200
C 	C 	0.66340 0.12650 0.36350 0.47700
C 	C 	0.42880 0.99990 0.50350 -0.01400
C 	C 	0.39510 0.07960 0.48850 0.01900
H 	H 	0.42210 0.12910 0.47590 0.04500
C 	C 	0.32110 0.08580 0.49210 -0.14400
C 	C 	0.28070 0.01170 0.51010 0.09300
H 	H 	0.23160 0.01530 0.50940 0.03300
C 	C 	0.31260 0.93390 0.52870 -0.14800
C 	C 	0.38640 0.92760 0.52220 0.02200
H 	H 	0.40750 0.87380 0.53050 0.04100
C 	C 	0.26930 0.85400 0.55700 0.47900
C 	C 	0.28590 0.16940 0.46200 0.45800
Er	Er	0.33450 0.67774 0.70479 1.93400
Er	Er	0.65307 0.65256 0.81714 1.91700
O 	O 	0.42300 0.64970 0.89530 -0.33500
O 	O 	0.45000 0.67780 0.60690 -0.38600
O 	O 	0.55950 0.62720 0.65020 -0.36500
O 	O 	0.54040 0.66240 0.93460 -0.36200
O 	O 	0.65930 0.59260 0.06280 -0.34800
O 	O 	0.65642 0.47220 0.19870 -0.38800
O 	O 	0.64500 0.50070 0.81770 -0.37800
O 	O 	0.66120 0.37990 0.94720 -0.32400
O 	O 	0.61830 0.78590 0.69490 -0.44100
O 	O 	0.71990 0.85640 0.65740 -0.51000
O 	O 	0.72880 0.12050 0.35960 -0.50100
O 	O 	0.62830 0.19080 0.31610 -0.45300
O 	O 	0.32320 0.23650 0.47210 -0.46900
O 	O 	0.22100 0.16970 0.43110 -0.46200
O 	O 	0.20570 0.86420 0.58820 -0.46600
O 	O 	0.30180 0.78400 0.55180 -0.49700
