data_crystal

_cell_length_a 19.11600
_cell_length_b 15.71400
_cell_length_c 9.06900
_cell_angle_alpha 90.00000
_cell_angle_beta  90.00000
_cell_angle_gamma 90.00000

_symmetry_space_group_name_	'P 1'
_symmetry_space_group_name_H-M	'P 1'

loop_
_symmetry_equiv_pos_as_xyz
  x,y,z

loop_
_atom_site_label
_atom_site_type_symbol
_atom_site_fract_x
_atom_site_fract_y
_atom_site_fract_z
_atom_site_charge
C 	C 	0.01410 0.15420 0.35620 0.24600
C 	C 	0.00000 0.15220 0.18590 0.26700
C 	C 	0.84190 0.01190 0.57740 0.27800
C 	C 	0.84400 0.95860 0.43410 0.28600
C 	C 	0.84950 0.34740 0.14470 0.50200
C 	C 	0.88670 0.42110 0.06900 -0.15500
C 	C 	0.84740 0.48390 0.00260 0.09800
H 	H 	0.79890 0.48030 0.00370 0.00500
C 	C 	0.87960 0.55240 0.93410 -0.14700
C 	C 	0.95250 0.55620 0.93460 0.02300
H 	H 	0.97440 0.60190 0.88870 0.04700
C 	C 	0.99380 0.49380 0.00180 0.00900
C 	C 	0.95820 0.42590 0.06730 0.01600
H 	H 	0.98400 0.38250 0.11100 0.04800
C 	C 	0.83830 0.62400 0.86490 0.49600
C 	C 	0.07070 0.50020 0.00480 -0.07100
C 	C 	0.10410 0.57870 0.99120 0.06600
H 	H 	0.07710 0.62760 0.98150 0.02100
C 	C 	0.17660 0.58560 0.99180 -0.17100
C 	C 	0.21750 0.51350 0.01010 0.10500
H 	H 	0.26600 0.51760 0.01180 0.01700
C 	C 	0.18490 0.43490 0.02590 -0.18300
C 	C 	0.11290 0.42910 0.02120 0.06200
H 	H 	0.09200 0.37580 0.02940 0.01600
C 	C 	0.22850 0.35760 0.05260 0.49200
C 	C 	0.21190 0.66890 0.96770 0.48600
Sm	Sm	0.16706 0.17940 0.20644 2.29100
Sm	Sm	0.84620 0.15286 0.31565 2.26300
O 	O 	0.07680 0.14990 0.39510 -0.38100
O 	O 	0.04910 0.17670 0.10560 -0.42400
O 	O 	0.94160 0.12540 0.14890 -0.40000
O 	O 	0.96110 0.16000 0.43610 -0.38200
O 	O 	0.84070 0.09060 0.56360 -0.38600
O 	O 	0.84170 0.97280 0.69820 -0.42900
O 	O 	0.85380 0.99840 0.31900 -0.42000
O 	O 	0.83620 0.88090 0.44840 -0.37700
O 	O 	0.88560 0.28650 0.19030 -0.48700
O 	O 	0.78440 0.35270 0.15730 -0.57200
O 	O 	0.77350 0.61750 0.86050 -0.55200
O 	O 	0.87270 0.68800 0.82030 -0.50100
O 	O 	0.17520 0.73450 0.97800 -0.52400
O 	O 	0.27640 0.66910 0.93830 -0.51700
O 	O 	0.29270 0.36640 0.07980 -0.50600
O 	O 	0.19770 0.28750 0.04680 -0.55000
C 	C 	0.98590 0.84580 0.85620 0.30200
C 	C 	0.00000 0.84780 0.68590 0.24100
C 	C 	0.15810 0.98810 0.07740 0.26400
C 	C 	0.15600 0.04140 0.93410 0.29600
C 	C 	0.15050 0.65260 0.64470 0.51100
C 	C 	0.11330 0.57890 0.56900 -0.18500
C 	C 	0.15260 0.51610 0.50260 0.13500
H 	H 	0.20110 0.51970 0.50370 -0.00400
C 	C 	0.12040 0.44760 0.43410 -0.18200
C 	C 	0.04750 0.44380 0.43460 0.05200
H 	H 	0.02560 0.39810 0.38870 0.02400
C 	C 	0.00620 0.50620 0.50180 -0.05500
C 	C 	0.04180 0.57410 0.56730 0.05700
H 	H 	0.01600 0.61750 0.61100 0.02200
C 	C 	0.16170 0.37600 0.36490 0.50600
C 	C 	0.92930 0.49980 0.50480 0.00600
C 	C 	0.89590 0.42130 0.49120 0.01800
H 	H 	0.92290 0.37240 0.48150 0.04500
C 	C 	0.82340 0.41440 0.49180 -0.15900
C 	C 	0.78250 0.48650 0.51010 0.09900
H 	H 	0.73400 0.48240 0.51180 0.02200
C 	C 	0.81510 0.56510 0.52590 -0.16200
C 	C 	0.88710 0.57090 0.52120 0.02400
H 	H 	0.90800 0.62420 0.52940 0.03700
C 	C 	0.77150 0.64240 0.55260 0.48600
C 	C 	0.78810 0.33110 0.46770 0.48000
Sm	Sm	0.83294 0.82060 0.70644 2.30100
Sm	Sm	0.15380 0.84714 0.81565 2.26500
O 	O 	0.92320 0.85010 0.89510 -0.38900
O 	O 	0.95090 0.82330 0.60560 -0.40000
O 	O 	0.05840 0.87460 0.64890 -0.40500
O 	O 	0.03890 0.84000 0.93610 -0.41600
O 	O 	0.15930 0.90940 0.06360 -0.39200
O 	O 	0.15830 0.02720 0.19820 -0.43100
O 	O 	0.14620 0.00160 0.81900 -0.42200
O 	O 	0.16380 0.11910 0.94840 -0.37200
O 	O 	0.11440 0.71350 0.69030 -0.49400
O 	O 	0.21560 0.64730 0.65730 -0.57400
O 	O 	0.22650 0.38250 0.36050 -0.55600
O 	O 	0.12730 0.31200 0.32030 -0.50600
O 	O 	0.82480 0.26550 0.47800 -0.52200
O 	O 	0.72360 0.33090 0.43830 -0.51700
O 	O 	0.70730 0.63360 0.57980 -0.50400
O 	O 	0.80230 0.71250 0.54680 -0.54700
C 	C 	0.51410 0.34580 0.35620 0.26100
C 	C 	0.50000 0.34780 0.18590 0.28300
C 	C 	0.34190 0.48810 0.57740 0.27500
C 	C 	0.34400 0.54140 0.43410 0.28500
C 	C 	0.34950 0.15260 0.14470 0.50600
C 	C 	0.38670 0.07890 0.06900 -0.17100
C 	C 	0.34740 0.01610 0.00260 0.11100
H 	H 	0.29890 0.01970 0.00370 0.00100
C 	C 	0.37960 0.94760 0.93410 -0.16200
C 	C 	0.45250 0.94380 0.93460 0.04300
H 	H 	0.47440 0.89810 0.88870 0.03400
C 	C 	0.49380 0.00620 0.00180 -0.03100
C 	C 	0.45820 0.07410 0.06730 0.03800
H 	H 	0.48400 0.11750 0.11100 0.03400
C 	C 	0.33830 0.87600 0.86490 0.50000
C 	C 	0.57070 0.99980 0.00480 -0.03100
C 	C 	0.60410 0.92130 0.99120 0.04200
H 	H 	0.57710 0.87240 0.98150 0.03300
C 	C 	0.67660 0.91440 0.99180 -0.16100
C 	C 	0.71750 0.98650 0.01010 0.09800
H 	H 	0.76600 0.98240 0.01180 0.02000
C 	C 	0.68490 0.06510 0.02590 -0.17200
C 	C 	0.61290 0.07090 0.02120 0.03900
H 	H 	0.59200 0.12420 0.02940 0.02700
C 	C 	0.72850 0.14240 0.05260 0.48800
C 	C 	0.71190 0.83110 0.96770 0.48200
Sm	Sm	0.66706 0.32060 0.20644 2.29300
Sm	Sm	0.34620 0.34714 0.31565 2.26300
O 	O 	0.57680 0.35010 0.39510 -0.38300
O 	O 	0.54910 0.32330 0.10560 -0.42400
O 	O 	0.44160 0.37460 0.14890 -0.41400
O 	O 	0.46110 0.34000 0.43610 -0.39700
O 	O 	0.34070 0.40940 0.56360 -0.38700
O 	O 	0.34170 0.52720 0.69820 -0.43000
O 	O 	0.35380 0.50160 0.31900 -0.42200
O 	O 	0.33620 0.61910 0.44840 -0.37800
O 	O 	0.38560 0.21350 0.19030 -0.49100
O 	O 	0.28440 0.14730 0.15730 -0.57300
O 	O 	0.27350 0.88250 0.86050 -0.55300
O 	O 	0.37270 0.81200 0.82030 -0.50400
O 	O 	0.67520 0.76550 0.97800 -0.52300
O 	O 	0.77640 0.83090 0.93830 -0.51500
O 	O 	0.79270 0.13360 0.07980 -0.50500
O 	O 	0.69770 0.21250 0.04680 -0.54900
C 	C 	0.48590 0.65420 0.85620 0.26100
C 	C 	0.50000 0.65220 0.68590 0.28300
C 	C 	0.65810 0.51190 0.07740 0.26700
C 	C 	0.65600 0.45860 0.93410 0.29300
C 	C 	0.65050 0.84740 0.64470 0.50800
C 	C 	0.61330 0.92110 0.56900 -0.17300
C 	C 	0.65260 0.98390 0.50260 0.12500
H 	H 	0.70110 0.98030 0.50370 -0.00100
C 	C 	0.62040 0.05240 0.43410 -0.17100
C 	C 	0.54750 0.05620 0.43460 0.03600
H 	H 	0.52560 0.10190 0.38870 0.03600
C 	C 	0.50620 0.99380 0.50180 -0.02300
C 	C 	0.54180 0.92590 0.56730 0.04000
H 	H 	0.51600 0.88250 0.61100 0.03400
C 	C 	0.66170 0.12400 0.36490 0.50200
C 	C 	0.42930 0.00020 0.50480 -0.02400
C 	C 	0.39590 0.07870 0.49120 0.03600
H 	H 	0.42290 0.12760 0.48150 0.03400
C 	C 	0.32340 0.08560 0.49180 -0.17000
C 	C 	0.28250 0.01350 0.51010 0.11100
H 	H 	0.23400 0.01760 0.51180 0.01800
C 	C 	0.31510 0.93490 0.52590 -0.17400
C 	C 	0.38710 0.92910 0.52120 0.04100
H 	H 	0.40800 0.87580 0.52940 0.02800
C 	C 	0.27150 0.85760 0.55260 0.49000
C 	C 	0.28810 0.16890 0.46770 0.48400
Sm	Sm	0.33294 0.67940 0.70644 2.30100
Sm	Sm	0.65380 0.65286 0.81565 2.26800
O 	O 	0.42320 0.64990 0.89510 -0.38200
O 	O 	0.45090 0.67670 0.60560 -0.42200
O 	O 	0.55840 0.62540 0.64890 -0.41200
O 	O 	0.53890 0.66000 0.93610 -0.39500
O 	O 	0.65930 0.59060 0.06360 -0.39200
O 	O 	0.65830 0.47280 0.19820 -0.43100
O 	O 	0.64620 0.49840 0.81900 -0.42100
O 	O 	0.66380 0.38090 0.94840 -0.37100
O 	O 	0.61440 0.78650 0.69030 -0.49100
O 	O 	0.71560 0.85270 0.65730 -0.57300
O 	O 	0.72650 0.11750 0.36050 -0.55500
O 	O 	0.62730 0.18800 0.32030 -0.50300
O 	O 	0.32480 0.23450 0.47800 -0.52400
O 	O 	0.22360 0.16910 0.43830 -0.51800
O 	O 	0.20730 0.86640 0.57980 -0.50600
O 	O 	0.30230 0.78750 0.54680 -0.54800
