data_crystal

_cell_length_a 18.82500
_cell_length_b 15.37300
_cell_length_c 9.04700
_cell_angle_alpha 90.00000
_cell_angle_beta  90.00000
_cell_angle_gamma 90.00000

_symmetry_space_group_name_	'P 1'
_symmetry_space_group_name_H-M	'P 1'

loop_
_symmetry_equiv_pos_as_xyz
  x,y,z

loop_
_atom_site_label
_atom_site_type_symbol
_atom_site_fract_x
_atom_site_fract_y
_atom_site_fract_z
_atom_site_charge
C 	C 	0.98640 0.84430 0.64610 0.20300
C 	C 	0.00060 0.84490 0.81210 0.22800
C 	C 	0.15660 0.98750 0.42210 0.23700
C 	C 	0.15380 0.04140 0.56560 0.21900
C 	C 	0.15500 0.65250 0.85430 0.39600
C 	C 	0.11720 0.57890 0.93360 -0.09800
C 	C 	0.15490 0.51500 0.00020 0.06400
H 	H 	0.20430 0.51710 0.99760 0.03500
C 	C 	0.12230 0.44690 0.07160 -0.09800
C 	C 	0.04860 0.44320 0.07090 -0.01000
H 	H 	0.02610 0.39710 0.11810 0.05800
C 	C 	0.00760 0.50630 0.00160 0.01500
C 	C 	0.04300 0.57560 0.93480 -0.01500
H 	H 	0.01700 0.62010 0.89080 0.06000
C 	C 	0.16430 0.37270 0.13860 0.40300
C 	C 	0.92860 0.49960 0.99890 -0.00400
C 	C 	0.89480 0.42070 0.01120 -0.00000
H 	H 	0.92210 0.37070 0.02300 0.05700
C 	C 	0.82030 0.41290 0.00640 -0.10200
C 	C 	0.78030 0.48730 0.99120 0.04600
H 	H 	0.73100 0.48350 0.99290 0.06000
C 	C 	0.81200 0.56650 0.97370 -0.09700
C 	C 	0.88540 0.57320 0.97990 -0.00500
H 	H 	0.90650 0.62760 0.97130 0.05600
C 	C 	0.76920 0.64670 0.94020 0.40300
C 	C 	0.78650 0.32960 0.03670 0.39100
Yb	Yb	0.83464 0.82224 0.79565 1.57400
Yb	Yb	0.15271 0.84772 0.68251 1.57300
O 	O 	0.92250 0.85080 0.60360 -0.27500
O 	O 	0.94960 0.82150 0.89450 -0.32100
O 	O 	0.06050 0.87150 0.85050 -0.30500
O 	O 	0.04080 0.83720 0.56420 -0.30000
O 	O 	0.15860 0.90700 0.43730 -0.29500
O 	O 	0.15600 0.02870 0.30220 -0.33300
O 	O 	0.14520 0.99910 0.68460 -0.31500
O 	O 	0.16130 0.12120 0.55430 -0.27500
O 	O 	0.11940 0.71440 0.80550 -0.38500
O 	O 	0.22150 0.64420 0.84410 -0.43000
O 	O 	0.23000 0.37980 0.14170 -0.42700
O 	O 	0.12910 0.30890 0.18520 -0.39600
O 	O 	0.82190 0.26240 0.02970 -0.40400
O 	O 	0.72060 0.32990 0.07110 -0.38500
O 	O 	0.70550 0.63630 0.90860 -0.39300
O 	O 	0.80120 0.71680 0.94630 -0.42000
C 	C 	0.01360 0.15570 0.14610 0.20300
C 	C 	0.99940 0.15510 0.31210 0.23000
C 	C 	0.84340 0.01250 0.92210 0.23700
C 	C 	0.84620 0.95860 0.06560 0.22100
C 	C 	0.84500 0.34750 0.35430 0.39600
C 	C 	0.88280 0.42110 0.43360 -0.09100
C 	C 	0.84510 0.48500 0.50020 0.05300
H 	H 	0.79570 0.48290 0.49760 0.04300
C 	C 	0.87770 0.55310 0.57160 -0.09400
C 	C 	0.95140 0.55680 0.57090 -0.00900
H 	H 	0.97390 0.60290 0.61810 0.05700
C 	C 	0.99240 0.49370 0.50160 0.00800
C 	C 	0.95700 0.42440 0.43480 -0.01100
H 	H 	0.98300 0.37990 0.39080 0.05900
C 	C 	0.83570 0.62730 0.63860 0.40100
C 	C 	0.07140 0.50040 0.49890 0.00400
C 	C 	0.10520 0.57930 0.51120 -0.00700
H 	H 	0.07790 0.62930 0.52300 0.05900
C 	C 	0.17970 0.58710 0.50640 -0.10400
C 	C 	0.21970 0.51270 0.49120 0.04900
H 	H 	0.26900 0.51650 0.49290 0.06000
C 	C 	0.18800 0.43350 0.47370 -0.09600
C 	C 	0.11460 0.42680 0.47990 -0.00800
H 	H 	0.09350 0.37240 0.47130 0.05800
C 	C 	0.23080 0.35330 0.44020 0.40300
C 	C 	0.21350 0.67040 0.53670 0.39100
Yb	Yb	0.16536 0.17776 0.29565 1.57500
Yb	Yb	0.84729 0.15228 0.18251 1.57400
O 	O 	0.07750 0.14920 0.10360 -0.27500
O 	O 	0.05040 0.17850 0.39450 -0.32100
O 	O 	0.93950 0.12850 0.35050 -0.30400
O 	O 	0.95920 0.16280 0.06420 -0.29900
O 	O 	0.84140 0.09300 0.93730 -0.29700
O 	O 	0.84400 0.97130 0.80220 -0.33400
O 	O 	0.85480 0.00090 0.18460 -0.31400
O 	O 	0.83870 0.87880 0.05430 -0.27300
O 	O 	0.88060 0.28560 0.30550 -0.38500
O 	O 	0.77850 0.35580 0.34410 -0.42900
O 	O 	0.77000 0.62020 0.64170 -0.42700
O 	O 	0.87090 0.69110 0.68520 -0.39600
O 	O 	0.17810 0.73760 0.52970 -0.40500
O 	O 	0.27940 0.67010 0.57110 -0.38500
O 	O 	0.29450 0.36370 0.40860 -0.39200
O 	O 	0.19880 0.28320 0.44630 -0.41900
C 	C 	0.48640 0.65570 0.64610 0.20400
C 	C 	0.50060 0.65510 0.81210 0.22900
C 	C 	0.65660 0.51250 0.42210 0.23800
C 	C 	0.65380 0.45860 0.56560 0.22000
C 	C 	0.65500 0.84750 0.85430 0.39700
C 	C 	0.61720 0.92110 0.93360 -0.09600
C 	C 	0.65490 0.98500 0.00020 0.06300
H 	H 	0.70430 0.98290 0.99760 0.03700
C 	C 	0.62230 0.05310 0.07160 -0.09600
C 	C 	0.54860 0.05680 0.07090 -0.00900
H 	H 	0.52610 0.10290 0.11810 0.05800
C 	C 	0.50760 0.99370 0.00160 0.01400
C 	C 	0.54300 0.92440 0.93480 -0.01500
H 	H 	0.51700 0.87990 0.89080 0.06000
C 	C 	0.66430 0.12730 0.13860 0.40200
C 	C 	0.42860 0.00040 0.99890 -0.00400
C 	C 	0.39480 0.07930 0.01120 -0.00000
H 	H 	0.42210 0.12930 0.02300 0.05700
C 	C 	0.32030 0.08710 0.00640 -0.10200
C 	C 	0.28030 0.01270 0.99120 0.04600
H 	H 	0.23100 0.01650 0.99290 0.06000
C 	C 	0.31200 0.93350 0.97370 -0.09700
C 	C 	0.38540 0.92680 0.97990 -0.00500
H 	H 	0.40650 0.87240 0.97130 0.05700
C 	C 	0.26920 0.85330 0.94020 0.40300
C 	C 	0.28650 0.17040 0.03670 0.39100
Yb	Yb	0.33464 0.67776 0.79565 1.57400
Yb	Yb	0.65271 0.65228 0.68251 1.57300
O 	O 	0.42250 0.64920 0.60360 -0.27500
O 	O 	0.44960 0.67850 0.89450 -0.32100
O 	O 	0.56050 0.62850 0.85050 -0.30500
O 	O 	0.54080 0.66280 0.56420 -0.30000
O 	O 	0.65860 0.59300 0.43730 -0.29500
O 	O 	0.65600 0.47130 0.30220 -0.33400
O 	O 	0.64520 0.50090 0.68460 -0.31500
O 	O 	0.66130 0.37880 0.55430 -0.27500
O 	O 	0.61940 0.78560 0.80550 -0.38500
O 	O 	0.72150 0.85580 0.84410 -0.43000
O 	O 	0.73000 0.12020 0.14170 -0.42700
O 	O 	0.62910 0.19110 0.18520 -0.39600
O 	O 	0.32190 0.23760 0.02970 -0.40400
O 	O 	0.22060 0.17010 0.07110 -0.38500
O 	O 	0.20550 0.86370 0.90860 -0.39300
O 	O 	0.30120 0.78320 0.94630 -0.42000
C 	C 	0.51360 0.34430 0.14610 0.20400
C 	C 	0.49940 0.34490 0.31210 0.22900
C 	C 	0.34340 0.48750 0.92210 0.23600
C 	C 	0.34620 0.54140 0.06560 0.22200
C 	C 	0.34500 0.15250 0.35430 0.39600
C 	C 	0.38280 0.07890 0.43360 -0.09100
C 	C 	0.34510 0.01500 0.50020 0.05300
H 	H 	0.29570 0.01710 0.49760 0.04300
C 	C 	0.37770 0.94690 0.57160 -0.09400
C 	C 	0.45140 0.94320 0.57090 -0.00900
H 	H 	0.47390 0.89710 0.61810 0.05700
C 	C 	0.49240 0.00630 0.50160 0.00800
C 	C 	0.45700 0.07560 0.43480 -0.01100
H 	H 	0.48300 0.12010 0.39080 0.05900
C 	C 	0.33570 0.87270 0.63860 0.40100
C 	C 	0.57140 0.99960 0.49890 0.00300
C 	C 	0.60520 0.92070 0.51120 -0.00600
H 	H 	0.57790 0.87070 0.52300 0.05900
C 	C 	0.67970 0.91290 0.50640 -0.10400
C 	C 	0.71970 0.98730 0.49120 0.04800
H 	H 	0.76900 0.98350 0.49290 0.06000
C 	C 	0.68800 0.06650 0.47370 -0.09600
C 	C 	0.61460 0.07320 0.47990 -0.00800
H 	H 	0.59350 0.12760 0.47130 0.05800
C 	C 	0.73080 0.14670 0.44020 0.40300
C 	C 	0.71350 0.82960 0.53670 0.39100
Yb	Yb	0.66536 0.32224 0.29565 1.57500
Yb	Yb	0.34729 0.34772 0.18251 1.57400
O 	O 	0.57750 0.35080 0.10360 -0.27500
O 	O 	0.55040 0.32150 0.39450 -0.32000
O 	O 	0.43950 0.37150 0.35050 -0.30400
O 	O 	0.45920 0.33720 0.06420 -0.30000
O 	O 	0.34140 0.40700 0.93730 -0.29700
O 	O 	0.34400 0.52870 0.80220 -0.33400
O 	O 	0.35480 0.49910 0.18460 -0.31400
O 	O 	0.33870 0.62120 0.05430 -0.27300
O 	O 	0.38060 0.21440 0.30550 -0.38500
O 	O 	0.27850 0.14420 0.34410 -0.42900
O 	O 	0.27000 0.87980 0.64170 -0.42700
O 	O 	0.37090 0.80890 0.68520 -0.39600
O 	O 	0.67810 0.76240 0.52970 -0.40500
O 	O 	0.77940 0.82990 0.57110 -0.38500
O 	O 	0.79450 0.13630 0.40860 -0.39200
O 	O 	0.69880 0.21680 0.44630 -0.41900
