data_crystal

_cell_length_a 7.60200
_cell_length_b 14.25100
_cell_length_c 14.25100
_cell_angle_alpha 97.95230
_cell_angle_beta  101.47000
_cell_angle_gamma 101.47000

_symmetry_space_group_name_	'P 1'
_symmetry_space_group_name_H-M	'P 1'

loop_
_symmetry_equiv_pos_as_xyz
  x,y,z

loop_
_atom_site_label
_atom_site_type_symbol
_atom_site_fract_x
_atom_site_fract_y
_atom_site_fract_z
_atom_site_charge
Ni	Ni	0.75000 0.58943 0.41057 1.04800
Ni	Ni	0.25000 0.41057 0.58943 1.04400
Ni	Ni	0.50000 0.00000 -0.00000 0.97100
Ni	Ni	-0.00000 0.00000 -0.00000 0.96000
H 	H 	0.95720 0.78300 0.93680 0.07100
H 	H 	0.90420 0.66250 0.80170 0.08200
H 	H 	0.86330 0.86470 0.63210 0.09000
H 	H 	0.91260 0.97970 0.77170 0.06900
H 	H 	0.62880 0.77430 0.38250 0.01100
H 	H 	0.62050 0.88240 0.27600 0.09900
H 	H 	0.54280 0.06320 0.21700 -0.01900
H 	H 	0.59580 0.19830 0.33750 0.06400
H 	H 	0.63670 0.36790 0.13530 0.05900
H 	H 	0.58740 0.22830 0.02030 -0.02800
H 	H 	0.87120 0.61750 0.22570 0.00100
H 	H 	0.87950 0.72400 0.11760 0.05400
H 	H 	0.04280 0.21700 0.06320 -0.02400
H 	H 	0.09580 0.33750 0.19830 0.05600
H 	H 	0.13670 0.13530 0.36790 0.05300
H 	H 	0.08740 0.02030 0.22830 -0.03400
H 	H 	0.37120 0.22570 0.61750 -0.00300
H 	H 	0.37950 0.11760 0.72400 0.04800
H 	H 	0.45720 0.93680 0.78300 0.06600
H 	H 	0.40420 0.80170 0.66250 0.07400
H 	H 	0.36330 0.63210 0.86470 0.08400
H 	H 	0.41260 0.77170 0.97970 0.06300
H 	H 	0.12880 0.38250 0.77430 0.00700
H 	H 	0.12050 0.27600 0.88240 0.09300
C 	C 	0.93810 0.79970 0.87530 0.04600
C 	C 	0.90660 0.72640 0.79400 -0.06100
C 	C 	0.87850 0.74970 0.70050 -0.00400
C 	C 	0.88150 0.84640 0.69280 -0.06400
C 	C 	0.91250 0.91550 0.77790 0.05600
C 	C 	0.84170 0.67000 0.61000 0.28400
C 	C 	0.67810 0.76350 0.32830 0.05100
C 	C 	0.67370 0.82980 0.26460 -0.07100
C 	C 	0.56190 0.12470 0.20030 0.03900
C 	C 	0.59340 0.20600 0.27360 -0.07800
C 	C 	0.62150 0.29950 0.25030 -0.00800
C 	C 	0.61850 0.30720 0.15360 -0.08600
C 	C 	0.58750 0.22210 0.08450 0.04400
C 	C 	0.65830 0.39000 0.33000 0.28300
C 	C 	0.82190 0.67170 0.23650 0.04300
C 	C 	0.82630 0.73540 0.17020 -0.07100
C 	C 	0.06190 0.20030 0.12470 0.03000
C 	C 	0.09340 0.27360 0.20600 -0.08000
C 	C 	0.12150 0.25030 0.29950 -0.01800
C 	C 	0.11850 0.15360 0.30720 -0.08800
C 	C 	0.08750 0.08450 0.22210 0.03600
C 	C 	0.15830 0.33000 0.39000 0.28000
C 	C 	0.32190 0.23650 0.67170 0.03800
C 	C 	0.32630 0.17020 0.73540 -0.07200
C 	C 	0.43810 0.87530 0.79970 0.03700
C 	C 	0.40660 0.79400 0.72640 -0.06300
C 	C 	0.37850 0.70050 0.74970 -0.01400
C 	C 	0.38150 0.69280 0.84640 -0.06700
C 	C 	0.41250 0.77790 0.91550 0.04800
C 	C 	0.34170 0.61000 0.67000 0.28100
C 	C 	0.17810 0.32830 0.76350 0.04700
C 	C 	0.17370 0.26460 0.82980 -0.07200
C 	C 	0.75000 0.81620 0.18380 -0.01700
C 	C 	0.75000 0.88720 0.11280 0.31800
C 	C 	0.25000 0.18380 0.81620 -0.02400
C 	C 	0.25000 0.11280 0.88720 0.31700
N 	N 	0.94210 0.89449 0.86851 -0.15400
N 	N 	0.55790 0.13149 0.10551 -0.24300
N 	N 	0.05790 0.10551 0.13149 -0.24800
N 	N 	0.44210 0.86851 0.89449 -0.16100
N 	N 	0.75000 0.68450 0.31550 -0.23500
N 	N 	0.25000 0.31550 0.68450 -0.23600
N 	N 	0.25000 0.95250 0.04750 -0.23800
N 	N 	0.25000 0.89690 0.10310 -0.04200
N 	N 	0.25000 0.84320 0.15680 -0.07800
N 	N 	0.75000 0.04750 0.95250 -0.22500
N 	N 	0.75000 0.10310 0.89690 -0.03500
N 	N 	0.75000 0.15680 0.84320 -0.06400
O 	O 	0.82490 0.69800 0.52882 -0.40500
O 	O 	0.82930 0.58200 0.62220 -0.29700
O 	O 	0.62790 0.93659 0.10969 -0.36300
O 	O 	0.67510 0.47118 0.30200 -0.42000
O 	O 	0.67070 0.37780 0.41800 -0.30400
O 	O 	0.87210 0.89031 0.06341 -0.39000
O 	O 	0.17510 0.30200 0.47118 -0.42800
O 	O 	0.17070 0.41800 0.37780 -0.31800
O 	O 	0.37210 0.06341 0.89031 -0.40200
O 	O 	0.32490 0.52882 0.69800 -0.41200
O 	O 	0.32930 0.62220 0.58200 -0.31000
O 	O 	0.12790 0.10969 0.93659 -0.37100
