data_crystal

_cell_length_a 20.26440
_cell_length_b 19.12160
_cell_length_c 26.82480
_cell_angle_alpha 90.00000
_cell_angle_beta  101.18400
_cell_angle_gamma 90.00000

_symmetry_space_group_name_	'P 1'
_symmetry_space_group_name_H-M	'P 1'

loop_
_symmetry_equiv_pos_as_xyz
  x,y,z

loop_
_atom_site_label
_atom_site_type_symbol
_atom_site_fract_x
_atom_site_fract_y
_atom_site_fract_z
_atom_site_charge
Zn	Zn	0.51337 0.51578 0.05510 1.22800
Zn	Zn	0.63651 0.40722 0.24283 1.24500
Zn	Zn	0.78723 0.34237 0.26384 1.23100
C 	C 	0.65720 0.80420 0.95700 0.11300
C 	C 	0.62140 0.76600 0.91590 -0.14700
H 	H 	0.62010 0.78070 0.88270 0.09800
C 	C 	0.58830 0.70670 0.92570 0.05600
H 	H 	0.56420 0.68080 0.89890 0.03600
C 	C 	0.59050 0.68430 0.97640 -0.11000
C 	C 	0.62520 0.72130 0.01580 0.00700
H 	H 	0.62560 0.70660 0.04890 0.04700
C 	C 	0.66090 0.78210 0.00720 -0.03000
C 	C 	0.70570 0.82790 0.03930 -0.02400
C 	C 	0.72990 0.83430 0.09150 -0.00000
H 	H 	0.71560 0.80320 0.11390 0.04400
C 	C 	0.77500 0.88650 0.10990 -0.10200
C 	C 	0.79580 0.93460 0.07700 0.05200
H 	H 	0.82620 0.96960 0.09000 0.04200
C 	C 	0.77170 0.93060 0.02530 -0.14400
H 	H 	0.78440 0.96350 0.00350 0.09400
C 	C 	0.72820 0.87670 0.00650 0.11300
C 	C 	0.70500 0.90220 0.91340 0.22600
C 	C 	0.76700 0.90700 0.89960 -0.25600
H 	H 	0.80360 0.88270 0.91790 0.13700
C 	C 	0.77450 0.94730 0.85940 0.16900
H 	H 	0.81640 0.95010 0.85010 -0.00100
C 	C 	0.72070 0.98430 0.83200 -0.22000
C 	C 	0.65930 0.97800 0.84600 0.17700
H 	H 	0.62240 0.00210 0.82800 -0.01200
C 	C 	0.65180 0.93690 0.88590 -0.26800
H 	H 	0.60960 0.93260 0.89440 0.13100
C 	C 	0.55670 0.61630 0.98500 0.37900
C 	C 	0.80240 0.89220 0.16550 0.33700
C 	C 	0.73350 0.03240 0.79050 0.45200
C 	C 	0.63760 0.22040 0.02750 0.11500
C 	C 	0.59020 0.25810 0.04740 -0.14800
H 	H 	0.54750 0.26680 0.02840 0.09300
C 	C 	0.60930 0.28200 0.09670 0.06000
H 	H 	0.57910 0.30830 0.11100 0.03600
C 	C 	0.67390 0.26720 0.12600 -0.11600
C 	C 	0.71940 0.22870 0.10580 0.01100
H 	H 	0.76170 0.21900 0.12500 0.05100
C 	C 	0.70150 0.20430 0.05620 -0.03000
C 	C 	0.73610 0.16400 0.02300 -0.02400
C 	C 	0.69280 0.16000 0.97580 0.10700
C 	C 	0.71060 0.12560 0.93460 -0.14500
H 	H 	0.68080 0.12200 0.90370 0.09100
C 	C 	0.77490 0.09670 0.94160 0.05200
H 	H 	0.78880 0.07540 0.91420 0.03100
C 	C 	0.81960 0.09890 0.98910 -0.11100
C 	C 	0.79980 0.13400 0.02990 0.00000
H 	H 	0.82910 0.13710 0.06120 0.05400
C 	C 	0.57260 0.19580 0.94060 0.17200
C 	C 	0.54120 0.25810 0.92590 -0.19500
H 	H 	0.55870 0.29990 0.94050 0.11700
C 	C 	0.48220 0.25770 0.88850 0.09600
H 	H 	0.46220 0.30060 0.87870 0.02900
C 	C 	0.45290 0.20100 0.86610 -0.13600
C 	C 	0.48640 0.13700 0.88280 0.08400
H 	H 	0.46780 0.09560 0.86820 0.02700
C 	C 	0.54550 0.13270 0.91970 -0.18500
H 	H 	0.56560 0.09000 0.92980 0.10300
C 	C 	0.69180 0.29990 0.17740 0.40600
C 	C 	0.88630 0.06520 0.99500 0.37500
C 	C 	0.39060 0.20610 0.82540 0.36800
C 	C 	0.56000 0.48130 0.15730 0.47800
H 	H 	0.56450 0.43840 0.14190 -0.14300
N 	N 	0.69850 0.86170 0.95680 -0.17900
N 	N 	0.63210 0.19250 0.97940 -0.16800
O 	O 	0.55660 0.60130 0.03070 -0.45300
O 	O 	0.53120 0.58020 0.94710 -0.45300
O 	O 	0.78600 0.84640 0.19630 -0.52300
O 	O 	0.84370 0.93940 0.18230 -0.39200
O 	O 	0.78290 0.02600 0.77110 -0.45500
O 	O 	0.69090 0.07900 0.77790 -0.47500
O 	O 	0.65220 0.34380 0.18850 -0.48100
O 	O 	0.74720 0.28240 0.20620 -0.45800
O 	O 	0.92230 0.06360 0.03880 -0.44200
O 	O 	0.90070 0.03810 0.95570 -0.44200
O 	O 	0.36980 0.14680 0.81550 -0.44900
O 	O 	0.36420 0.26170 0.81120 -0.32100
O 	O 	0.55490 0.34780 0.25000 -0.45500
O 	O 	0.57820 0.48520 0.20550 -0.40800
O 	O 	0.53720 0.53010 0.13000 -0.44500
Zn	Zn	0.01337 0.01578 0.05510 1.22500
Zn	Zn	0.13651 0.90722 0.24283 1.24300
Zn	Zn	0.28723 0.84237 0.26384 1.23000
C 	C 	0.15720 0.30420 0.95700 0.11400
C 	C 	0.12140 0.26600 0.91590 -0.14900
H 	H 	0.12010 0.28070 0.88270 0.09600
C 	C 	0.08830 0.20670 0.92570 0.05500
H 	H 	0.06420 0.18080 0.89890 0.03300
C 	C 	0.09050 0.18430 0.97640 -0.11100
C 	C 	0.12520 0.22130 0.01580 0.00500
H 	H 	0.12560 0.20660 0.04890 0.04700
C 	C 	0.16090 0.28210 0.00720 -0.03200
C 	C 	0.20570 0.32790 0.03930 -0.02300
C 	C 	0.22990 0.33430 0.09150 -0.00100
H 	H 	0.21560 0.30320 0.11390 0.04400
C 	C 	0.27500 0.38650 0.10990 -0.10200
C 	C 	0.29580 0.43460 0.07700 0.05200
H 	H 	0.32620 0.46960 0.09000 0.04100
C 	C 	0.27170 0.43060 0.02530 -0.14400
H 	H 	0.28440 0.46350 0.00350 0.09300
C 	C 	0.22820 0.37670 0.00650 0.11100
C 	C 	0.20500 0.40220 0.91340 0.22600
C 	C 	0.26700 0.40700 0.89960 -0.25600
H 	H 	0.30360 0.38270 0.91790 0.13700
C 	C 	0.27450 0.44730 0.85940 0.16900
H 	H 	0.31640 0.45010 0.85010 -0.00100
C 	C 	0.22070 0.48430 0.83200 -0.22100
C 	C 	0.15930 0.47800 0.84600 0.17700
H 	H 	0.12240 0.50210 0.82800 -0.01300
C 	C 	0.15180 0.43690 0.88590 -0.26900
H 	H 	0.10960 0.43260 0.89440 0.13000
C 	C 	0.05670 0.11630 0.98500 0.38000
C 	C 	0.30240 0.39220 0.16550 0.33700
C 	C 	0.23350 0.53240 0.79050 0.45200
C 	C 	0.13760 0.72040 0.02750 0.11400
C 	C 	0.09020 0.75810 0.04740 -0.14900
H 	H 	0.04750 0.76680 0.02840 0.09000
C 	C 	0.10930 0.78200 0.09670 0.05900
H 	H 	0.07910 0.80830 0.11100 0.03400
C 	C 	0.17390 0.76720 0.12600 -0.11700
C 	C 	0.21940 0.72870 0.10580 0.01100
H 	H 	0.26170 0.71900 0.12500 0.05000
C 	C 	0.20150 0.70430 0.05620 -0.03000
C 	C 	0.23610 0.66400 0.02300 -0.02500
C 	C 	0.19280 0.66000 0.97580 0.10900
C 	C 	0.21060 0.62560 0.93460 -0.14600
H 	H 	0.18080 0.62200 0.90370 0.09100
C 	C 	0.27490 0.59670 0.94160 0.05300
H 	H 	0.28880 0.57540 0.91420 0.03100
C 	C 	0.31960 0.59890 0.98910 -0.11200
C 	C 	0.29980 0.63400 0.02990 -0.00000
H 	H 	0.32910 0.63710 0.06120 0.05300
C 	C 	0.07260 0.69580 0.94060 0.18900
C 	C 	0.04120 0.75810 0.92590 -0.22500
H 	H 	0.05870 0.79990 0.94050 0.12600
C 	C 	0.98220 0.75770 0.88850 0.12800
H 	H 	0.96220 0.80060 0.87870 0.02000
C 	C 	0.95290 0.70100 0.86610 -0.15600
C 	C 	0.98640 0.63700 0.88280 0.11300
H 	H 	0.96780 0.59560 0.86820 0.01900
C 	C 	0.04550 0.63270 0.91970 -0.21400
H 	H 	0.06560 0.59000 0.92980 0.11100
C 	C 	0.19180 0.79990 0.17740 0.40600
C 	C 	0.38630 0.56520 0.99500 0.37700
C 	C 	0.89060 0.70610 0.82540 0.37600
C 	C 	0.06000 0.98130 0.15730 0.47900
H 	H 	0.06450 0.93840 0.14190 -0.14500
N 	N 	0.19850 0.36170 0.95680 -0.17900
N 	N 	0.13210 0.69250 0.97940 -0.17100
O 	O 	0.05660 0.10130 0.03070 -0.45600
O 	O 	0.03120 0.08020 0.94710 -0.45700
O 	O 	0.28600 0.34640 0.19630 -0.52300
O 	O 	0.34370 0.43940 0.18230 -0.39300
O 	O 	0.28290 0.52600 0.77110 -0.45600
O 	O 	0.19090 0.57900 0.77790 -0.47600
O 	O 	0.15220 0.84380 0.18850 -0.48200
O 	O 	0.24720 0.78240 0.20620 -0.45900
O 	O 	0.42230 0.56360 0.03880 -0.44700
O 	O 	0.40070 0.53810 0.95570 -0.44400
O 	O 	0.86980 0.64680 0.81550 -0.45000
O 	O 	0.86420 0.76170 0.81120 -0.32200
O 	O 	0.05490 0.84780 0.25000 -0.45200
O 	O 	0.07820 0.98520 0.20550 -0.41000
O 	O 	0.03720 0.03010 0.13000 -0.44900
Zn	Zn	0.48663 0.51578 0.44490 1.22700
Zn	Zn	0.36349 0.40722 0.25717 1.24400
Zn	Zn	0.21277 0.34237 0.23616 1.23000
C 	C 	0.34280 0.80420 0.54300 0.11300
C 	C 	0.37860 0.76600 0.58410 -0.14800
H 	H 	0.37990 0.78070 0.61730 0.09700
C 	C 	0.41170 0.70670 0.57430 0.05600
H 	H 	0.43580 0.68080 0.60110 0.03500
C 	C 	0.40950 0.68430 0.52360 -0.11100
C 	C 	0.37480 0.72130 0.48420 0.00600
H 	H 	0.37440 0.70660 0.45110 0.04700
C 	C 	0.33910 0.78210 0.49280 -0.03100
C 	C 	0.29430 0.82790 0.46070 -0.02400
C 	C 	0.27010 0.83430 0.40850 0.00000
H 	H 	0.28440 0.80320 0.38610 0.04400
C 	C 	0.22500 0.88650 0.39010 -0.10300
C 	C 	0.20420 0.93460 0.42300 0.05300
H 	H 	0.17380 0.96960 0.41000 0.04000
C 	C 	0.22830 0.93060 0.47470 -0.14400
H 	H 	0.21560 0.96350 0.49650 0.09400
C 	C 	0.27180 0.87670 0.49350 0.11200
C 	C 	0.29500 0.90220 0.58660 0.22700
C 	C 	0.23300 0.90700 0.60040 -0.25600
H 	H 	0.19640 0.88270 0.58210 0.13700
C 	C 	0.22550 0.94730 0.64060 0.16900
H 	H 	0.18360 0.95010 0.64990 -0.00200
C 	C 	0.27930 0.98430 0.66800 -0.22000
C 	C 	0.34070 0.97800 0.65400 0.17700
H 	H 	0.37760 0.00210 0.67200 -0.01200
C 	C 	0.34820 0.93690 0.61410 -0.26900
H 	H 	0.39040 0.93260 0.60560 0.13100
C 	C 	0.44330 0.61630 0.51500 0.37900
C 	C 	0.19760 0.89220 0.33450 0.33700
C 	C 	0.26650 0.03240 0.70950 0.45200
C 	C 	0.36240 0.22040 0.47250 0.11500
C 	C 	0.40980 0.25810 0.45260 -0.14800
H 	H 	0.45250 0.26680 0.47160 0.09300
C 	C 	0.39070 0.28200 0.40330 0.06000
H 	H 	0.42090 0.30830 0.38900 0.03600
C 	C 	0.32610 0.26720 0.37400 -0.11600
C 	C 	0.28060 0.22870 0.39420 0.01200
H 	H 	0.23830 0.21900 0.37500 0.05000
C 	C 	0.29850 0.20430 0.44380 -0.03000
C 	C 	0.26390 0.16400 0.47700 -0.02500
C 	C 	0.30720 0.16000 0.52420 0.10800
C 	C 	0.28940 0.12560 0.56540 -0.14600
H 	H 	0.31920 0.12200 0.59630 0.09200
C 	C 	0.22510 0.09670 0.55840 0.05300
H 	H 	0.21120 0.07540 0.58580 0.03100
C 	C 	0.18040 0.09890 0.51090 -0.11200
C 	C 	0.20020 0.13400 0.47010 0.00000
H 	H 	0.17090 0.13710 0.43880 0.05200
C 	C 	0.42740 0.19580 0.55940 0.17200
C 	C 	0.45880 0.25810 0.57410 -0.19500
H 	H 	0.44130 0.29990 0.55950 0.11700
C 	C 	0.51780 0.25770 0.61150 0.09600
H 	H 	0.53780 0.30060 0.62130 0.02900
C 	C 	0.54710 0.20100 0.63390 -0.13600
C 	C 	0.51360 0.13700 0.61720 0.08400
H 	H 	0.53220 0.09560 0.63180 0.02700
C 	C 	0.45450 0.13270 0.58030 -0.18500
H 	H 	0.43440 0.09000 0.57020 0.10300
C 	C 	0.30820 0.29990 0.32260 0.40600
C 	C 	0.11370 0.06520 0.50500 0.37800
C 	C 	0.60940 0.20610 0.67460 0.36800
C 	C 	0.44000 0.48130 0.34270 0.47800
H 	H 	0.43550 0.43840 0.35810 -0.14300
N 	N 	0.30150 0.86170 0.54320 -0.17900
N 	N 	0.36790 0.19250 0.52060 -0.16800
O 	O 	0.44340 0.60130 0.46930 -0.45300
O 	O 	0.46880 0.58020 0.55290 -0.45300
O 	O 	0.21400 0.84640 0.30370 -0.52400
O 	O 	0.15630 0.93940 0.31770 -0.39400
O 	O 	0.21710 0.02600 0.72890 -0.45600
O 	O 	0.30910 0.07900 0.72210 -0.47500
O 	O 	0.34780 0.34380 0.31150 -0.48100
O 	O 	0.25280 0.28240 0.29380 -0.45900
O 	O 	0.07770 0.06360 0.46120 -0.45000
O 	O 	0.09930 0.03810 0.54430 -0.44600
O 	O 	0.63020 0.14680 0.68450 -0.44900
O 	O 	0.63580 0.26170 0.68880 -0.32100
O 	O 	0.44510 0.34780 0.25000 -0.45500
O 	O 	0.42180 0.48520 0.29450 -0.40800
O 	O 	0.46280 0.53010 0.37000 -0.44500
Zn	Zn	0.98663 0.01578 0.44490 1.23000
Zn	Zn	0.86349 0.90722 0.25717 1.24400
Zn	Zn	0.71277 0.84237 0.23616 1.23000
C 	C 	0.84280 0.30420 0.54300 0.11300
C 	C 	0.87860 0.26600 0.58410 -0.14600
H 	H 	0.87990 0.28070 0.61730 0.09700
C 	C 	0.91170 0.20670 0.57430 0.05500
H 	H 	0.93580 0.18080 0.60110 0.03700
C 	C 	0.90950 0.18430 0.52360 -0.10800
C 	C 	0.87480 0.22130 0.48420 0.00600
H 	H 	0.87440 0.20660 0.45110 0.04800
C 	C 	0.83910 0.28210 0.49280 -0.03000
C 	C 	0.79430 0.32790 0.46070 -0.02400
C 	C 	0.77010 0.33430 0.40850 0.00000
H 	H 	0.78440 0.30320 0.38610 0.04400
C 	C 	0.72500 0.38650 0.39010 -0.10200
C 	C 	0.70420 0.43460 0.42300 0.05300
H 	H 	0.67380 0.46960 0.41000 0.04100
C 	C 	0.72830 0.43060 0.47470 -0.14400
H 	H 	0.71560 0.46350 0.49650 0.09300
C 	C 	0.77180 0.37670 0.49350 0.11200
C 	C 	0.79500 0.40220 0.58660 0.22700
C 	C 	0.73300 0.40700 0.60040 -0.25600
H 	H 	0.69640 0.38270 0.58210 0.13700
C 	C 	0.72550 0.44730 0.64060 0.16900
H 	H 	0.68360 0.45010 0.64990 -0.00100
C 	C 	0.77930 0.48430 0.66800 -0.22000
C 	C 	0.84070 0.47800 0.65400 0.17700
H 	H 	0.87760 0.50210 0.67200 -0.01100
C 	C 	0.84820 0.43690 0.61410 -0.26900
H 	H 	0.89040 0.43260 0.60560 0.13200
C 	C 	0.94330 0.11630 0.51500 0.37900
C 	C 	0.69760 0.39220 0.33450 0.33700
C 	C 	0.76650 0.53240 0.70950 0.45200
C 	C 	0.86240 0.72040 0.47250 0.11500
C 	C 	0.90980 0.75810 0.45260 -0.14700
H 	H 	0.95250 0.76680 0.47160 0.09600
C 	C 	0.89070 0.78200 0.40330 0.06000
H 	H 	0.92090 0.80830 0.38900 0.03800
C 	C 	0.82610 0.76720 0.37400 -0.11600
C 	C 	0.78060 0.72870 0.39420 0.01200
H 	H 	0.73830 0.71900 0.37500 0.05000
C 	C 	0.79850 0.70430 0.44380 -0.03000
C 	C 	0.76390 0.66400 0.47700 -0.02400
C 	C 	0.80720 0.66000 0.52420 0.10800
C 	C 	0.78940 0.62560 0.56540 -0.14500
H 	H 	0.81920 0.62200 0.59630 0.09200
C 	C 	0.72510 0.59670 0.55840 0.05300
H 	H 	0.71120 0.57540 0.58580 0.03100
C 	C 	0.68040 0.59890 0.51090 -0.11100
C 	C 	0.70020 0.63400 0.47010 -0.00000
H 	H 	0.67090 0.63710 0.43880 0.05300
C 	C 	0.92740 0.69580 0.55940 0.15300
C 	C 	0.95880 0.75810 0.57410 -0.16100
H 	H 	0.94130 0.79990 0.55950 0.10700
C 	C 	0.01780 0.75770 0.61150 0.06200
H 	H 	0.03780 0.80060 0.62130 0.03900
C 	C 	0.04710 0.70100 0.63390 -0.11500
C 	C 	0.01360 0.63700 0.61720 0.05300
H 	H 	0.03220 0.59560 0.63180 0.03500
C 	C 	0.95450 0.63270 0.58030 -0.15400
H 	H 	0.93440 0.59000 0.57020 0.09400
C 	C 	0.80820 0.79990 0.32260 0.40600
C 	C 	0.61370 0.56520 0.50500 0.37700
C 	C 	0.10940 0.70610 0.67460 0.35900
C 	C 	0.94000 0.98130 0.34270 0.47800
H 	H 	0.93550 0.93840 0.35810 -0.14100
N 	N 	0.80150 0.36170 0.54320 -0.17900
N 	N 	0.86790 0.69250 0.52060 -0.16500
O 	O 	0.94340 0.10130 0.46930 -0.45000
O 	O 	0.96880 0.08020 0.55290 -0.44800
O 	O 	0.71400 0.34640 0.30370 -0.52300
O 	O 	0.65630 0.43940 0.31770 -0.39300
O 	O 	0.71710 0.52600 0.72890 -0.45500
O 	O 	0.80910 0.57900 0.72210 -0.47400
O 	O 	0.84780 0.84380 0.31150 -0.48100
O 	O 	0.75280 0.78240 0.29380 -0.45800
O 	O 	0.57770 0.56360 0.46120 -0.44700
O 	O 	0.59930 0.53810 0.54430 -0.44400
O 	O 	0.13020 0.64680 0.68450 -0.44800
O 	O 	0.13580 0.76170 0.68880 -0.31900
O 	O 	0.94510 0.84780 0.25000 -0.44400
O 	O 	0.92180 0.98520 0.29450 -0.40500
O 	O 	0.96280 0.03010 0.37000 -0.44100
Zn	Zn	0.48663 0.48422 0.94490 1.22700
Zn	Zn	0.36349 0.59278 0.75717 1.24400
Zn	Zn	0.21277 0.65763 0.73616 1.23000
C 	C 	0.34280 0.19580 0.04300 0.11200
C 	C 	0.37860 0.23400 0.08410 -0.14800
H 	H 	0.37990 0.21930 0.11730 0.09700
C 	C 	0.41170 0.29330 0.07430 0.05500
H 	H 	0.43580 0.31920 0.10110 0.03500
C 	C 	0.40950 0.31570 0.02360 -0.11100
C 	C 	0.37480 0.27870 0.98420 0.00600
H 	H 	0.37440 0.29340 0.95110 0.04700
C 	C 	0.33910 0.21790 0.99280 -0.03000
C 	C 	0.29430 0.17210 0.96070 -0.02400
C 	C 	0.27010 0.16570 0.90850 0.00000
H 	H 	0.28440 0.19680 0.88610 0.04400
C 	C 	0.22500 0.11350 0.89010 -0.10300
C 	C 	0.20420 0.06540 0.92300 0.05300
H 	H 	0.17380 0.03040 0.91000 0.04100
C 	C 	0.22830 0.06940 0.97470 -0.14500
H 	H 	0.21560 0.03650 0.99650 0.09400
C 	C 	0.27180 0.12330 0.99350 0.11300
C 	C 	0.29500 0.09780 0.08660 0.22600
C 	C 	0.23300 0.09300 0.10040 -0.25600
H 	H 	0.19640 0.11730 0.08210 0.13700
C 	C 	0.22550 0.05270 0.14060 0.16900
H 	H 	0.18360 0.04990 0.14990 -0.00200
C 	C 	0.27930 0.01570 0.16800 -0.22000
C 	C 	0.34070 0.02200 0.15400 0.17700
H 	H 	0.37760 0.99790 0.17200 -0.01200
C 	C 	0.34820 0.06310 0.11410 -0.26900
H 	H 	0.39040 0.06740 0.10560 0.13100
C 	C 	0.44330 0.38370 0.01500 0.37900
C 	C 	0.19760 0.10780 0.83450 0.33700
C 	C 	0.26650 0.96760 0.20950 0.45200
C 	C 	0.36240 0.77960 0.97250 0.11500
C 	C 	0.40980 0.74190 0.95260 -0.14800
H 	H 	0.45250 0.73320 0.97160 0.09300
C 	C 	0.39070 0.71800 0.90330 0.06000
H 	H 	0.42090 0.69170 0.88900 0.03600
C 	C 	0.32610 0.73280 0.87400 -0.11600
C 	C 	0.28060 0.77130 0.89420 0.01200
H 	H 	0.23830 0.78100 0.87500 0.05000
C 	C 	0.29850 0.79570 0.94380 -0.03000
C 	C 	0.26390 0.83600 0.97700 -0.02500
C 	C 	0.30720 0.84000 0.02420 0.10800
C 	C 	0.28940 0.87440 0.06540 -0.14600
H 	H 	0.31920 0.87800 0.09630 0.09200
C 	C 	0.22510 0.90330 0.05840 0.05300
H 	H 	0.21120 0.92460 0.08580 0.03100
C 	C 	0.18040 0.90110 0.01090 -0.11300
C 	C 	0.20020 0.86600 0.97010 0.00100
H 	H 	0.17090 0.86290 0.93880 0.05200
C 	C 	0.42740 0.80420 0.05940 0.17200
C 	C 	0.45880 0.74190 0.07410 -0.19500
H 	H 	0.44130 0.70010 0.05950 0.11700
C 	C 	0.51780 0.74230 0.11150 0.09600
H 	H 	0.53780 0.69940 0.12130 0.02900
C 	C 	0.54710 0.79900 0.13390 -0.13600
C 	C 	0.51360 0.86300 0.11720 0.08400
H 	H 	0.53220 0.90440 0.13180 0.02700
C 	C 	0.45450 0.86730 0.08030 -0.18500
H 	H 	0.43440 0.91000 0.07020 0.10300
C 	C 	0.30820 0.70010 0.82260 0.40600
C 	C 	0.11370 0.93480 0.00500 0.37700
C 	C 	0.60940 0.79390 0.17460 0.36800
C 	C 	0.44000 0.51870 0.84270 0.47800
H 	H 	0.43550 0.56160 0.85810 -0.14300
N 	N 	0.30150 0.13830 0.04320 -0.17900
N 	N 	0.36790 0.80750 0.02060 -0.16800
O 	O 	0.44340 0.39870 0.96930 -0.45300
O 	O 	0.46880 0.41980 0.05290 -0.45300
O 	O 	0.21400 0.15360 0.80370 -0.52400
O 	O 	0.15630 0.06060 0.81770 -0.39400
O 	O 	0.21710 0.97400 0.22890 -0.45600
O 	O 	0.30910 0.92100 0.22210 -0.47500
O 	O 	0.34780 0.65620 0.81150 -0.48100
O 	O 	0.25280 0.71760 0.79380 -0.45900
O 	O 	0.07770 0.93640 0.96120 -0.44900
O 	O 	0.09930 0.96190 0.04430 -0.44600
O 	O 	0.63020 0.85320 0.18450 -0.44900
O 	O 	0.63580 0.73830 0.18880 -0.32100
O 	O 	0.44510 0.65220 0.75000 -0.45500
O 	O 	0.42180 0.51480 0.79450 -0.40800
O 	O 	0.46280 0.46990 0.87000 -0.44500
Zn	Zn	0.98663 0.98422 0.94490 1.22900
Zn	Zn	0.86349 0.09278 0.75717 1.24400
Zn	Zn	0.71277 0.15763 0.73616 1.23000
C 	C 	0.84280 0.69580 0.04300 0.11400
C 	C 	0.87860 0.73400 0.08410 -0.14600
H 	H 	0.87990 0.71930 0.11730 0.09700
C 	C 	0.91170 0.79330 0.07430 0.05500
H 	H 	0.93580 0.81920 0.10110 0.03700
C 	C 	0.90950 0.81570 0.02360 -0.10700
C 	C 	0.87480 0.77870 0.98420 0.00400
H 	H 	0.87440 0.79340 0.95110 0.04800
C 	C 	0.83910 0.71790 0.99280 -0.03100
C 	C 	0.79430 0.67210 0.96070 -0.02300
C 	C 	0.77010 0.66570 0.90850 -0.00000
H 	H 	0.78440 0.69680 0.88610 0.04400
C 	C 	0.72500 0.61350 0.89010 -0.10200
C 	C 	0.70420 0.56540 0.92300 0.05200
H 	H 	0.67380 0.53040 0.91000 0.04100
C 	C 	0.72830 0.56940 0.97470 -0.14300
H 	H 	0.71560 0.53650 0.99650 0.09300
C 	C 	0.77180 0.62330 0.99350 0.11100
C 	C 	0.79500 0.59780 0.08660 0.22700
C 	C 	0.73300 0.59300 0.10040 -0.25600
H 	H 	0.69640 0.61730 0.08210 0.13700
C 	C 	0.72550 0.55270 0.14060 0.16900
H 	H 	0.68360 0.54990 0.14990 -0.00100
C 	C 	0.77930 0.51570 0.16800 -0.22000
C 	C 	0.84070 0.52200 0.15400 0.17700
H 	H 	0.87760 0.49790 0.17200 -0.01000
C 	C 	0.84820 0.56310 0.11410 -0.26900
H 	H 	0.89040 0.56740 0.10560 0.13300
C 	C 	0.94330 0.88370 0.01500 0.38000
C 	C 	0.69760 0.60780 0.83450 0.33700
C 	C 	0.76650 0.46760 0.20950 0.45200
C 	C 	0.86240 0.27960 0.97250 0.11400
C 	C 	0.90980 0.24190 0.95260 -0.14700
H 	H 	0.95250 0.23320 0.97160 0.09500
C 	C 	0.89070 0.21800 0.90330 0.06000
H 	H 	0.92090 0.19170 0.88900 0.03800
C 	C 	0.82610 0.23280 0.87400 -0.11500
C 	C 	0.78060 0.27130 0.89420 0.01100
H 	H 	0.73830 0.28100 0.87500 0.05100
C 	C 	0.79850 0.29570 0.94380 -0.02900
C 	C 	0.76390 0.33600 0.97700 -0.02500
C 	C 	0.80720 0.34000 0.02420 0.10900
C 	C 	0.78940 0.37440 0.06540 -0.14500
H 	H 	0.81920 0.37800 0.09630 0.09200
C 	C 	0.72510 0.40330 0.05840 0.05300
H 	H 	0.71120 0.42460 0.08580 0.03100
C 	C 	0.68040 0.40110 0.01090 -0.11100
C 	C 	0.70020 0.36600 0.97010 -0.00000
H 	H 	0.67090 0.36290 0.93880 0.05300
C 	C 	0.92740 0.30420 0.05940 0.15100
C 	C 	0.95880 0.24190 0.07410 -0.15700
H 	H 	0.94130 0.20010 0.05950 0.10600
C 	C 	0.01780 0.24230 0.11150 0.05800
H 	H 	0.03780 0.19940 0.12130 0.04000
C 	C 	0.04710 0.29900 0.13390 -0.11200
C 	C 	0.01360 0.36300 0.11720 0.04900
H 	H 	0.03220 0.40440 0.13180 0.03600
C 	C 	0.95450 0.36730 0.08030 -0.15000
H 	H 	0.93440 0.41000 0.07020 0.09300
C 	C 	0.80820 0.20010 0.82260 0.40600
C 	C 	0.61370 0.43480 0.00500 0.37700
C 	C 	0.10940 0.29390 0.17460 0.35800
C 	C 	0.94000 0.01870 0.84270 0.47800
H 	H 	0.93550 0.06160 0.85810 -0.14100
N 	N 	0.80150 0.63830 0.04320 -0.17900
N 	N 	0.86790 0.30750 0.02060 -0.16400
O 	O 	0.94340 0.89870 0.96930 -0.45200
O 	O 	0.96880 0.91980 0.05290 -0.44800
O 	O 	0.71400 0.65360 0.80370 -0.52300
O 	O 	0.65630 0.56060 0.81770 -0.39300
O 	O 	0.71710 0.47400 0.22890 -0.45500
O 	O 	0.80910 0.42100 0.22210 -0.47400
O 	O 	0.84780 0.15620 0.81150 -0.48100
O 	O 	0.75280 0.21760 0.79380 -0.45800
O 	O 	0.57770 0.43640 0.96120 -0.44700
O 	O 	0.59930 0.46190 0.04430 -0.44400
O 	O 	0.13020 0.35320 0.18450 -0.44800
O 	O 	0.13580 0.23830 0.18880 -0.31900
O 	O 	0.94510 0.15220 0.75000 -0.44500
O 	O 	0.92180 0.01480 0.79450 -0.40600
O 	O 	0.96280 0.96990 0.87000 -0.44200
Zn	Zn	0.51337 0.48422 0.55510 1.22700
Zn	Zn	0.63651 0.59278 0.74283 1.24400
Zn	Zn	0.78723 0.65763 0.76384 1.23000
C 	C 	0.65720 0.19580 0.45700 0.11300
C 	C 	0.62140 0.23400 0.41590 -0.14800
H 	H 	0.62010 0.21930 0.38270 0.09700
C 	C 	0.58830 0.29330 0.42570 0.05600
H 	H 	0.56420 0.31920 0.39890 0.03500
C 	C 	0.59050 0.31570 0.47640 -0.11100
C 	C 	0.62520 0.27870 0.51580 0.00600
H 	H 	0.62560 0.29340 0.54890 0.04700
C 	C 	0.66090 0.21790 0.50720 -0.03100
C 	C 	0.70570 0.17210 0.53930 -0.02300
C 	C 	0.72990 0.16570 0.59150 -0.00100
H 	H 	0.71560 0.19680 0.61390 0.04400
C 	C 	0.77500 0.11350 0.60990 -0.10200
C 	C 	0.79580 0.06540 0.57700 0.05200
H 	H 	0.82620 0.03040 0.59000 0.04200
C 	C 	0.77170 0.06940 0.52530 -0.14400
H 	H 	0.78440 0.03650 0.50350 0.09300
C 	C 	0.72820 0.12330 0.50650 0.11200
C 	C 	0.70500 0.09780 0.41340 0.22600
C 	C 	0.76700 0.09300 0.39960 -0.25600
H 	H 	0.80360 0.11730 0.41790 0.13700
C 	C 	0.77450 0.05270 0.35940 0.16900
H 	H 	0.81640 0.04990 0.35010 -0.00100
C 	C 	0.72070 0.01570 0.33200 -0.22000
C 	C 	0.65930 0.02200 0.34600 0.17700
H 	H 	0.62240 0.99790 0.32800 -0.01200
C 	C 	0.65180 0.06310 0.38590 -0.26800
H 	H 	0.60960 0.06740 0.39440 0.13100
C 	C 	0.55670 0.38370 0.48500 0.37900
C 	C 	0.80240 0.10780 0.66550 0.33700
C 	C 	0.73350 0.96760 0.29050 0.45200
C 	C 	0.63760 0.77960 0.52750 0.11500
C 	C 	0.59020 0.74190 0.54740 -0.14800
H 	H 	0.54750 0.73320 0.52840 0.09300
C 	C 	0.60930 0.71800 0.59670 0.06000
H 	H 	0.57910 0.69170 0.61100 0.03600
C 	C 	0.67390 0.73280 0.62600 -0.11600
C 	C 	0.71940 0.77130 0.60580 0.01100
H 	H 	0.76170 0.78100 0.62500 0.05100
C 	C 	0.70150 0.79570 0.55620 -0.03000
C 	C 	0.73610 0.83600 0.52300 -0.02400
C 	C 	0.69280 0.84000 0.47580 0.10800
C 	C 	0.71060 0.87440 0.43460 -0.14500
H 	H 	0.68080 0.87800 0.40370 0.09200
C 	C 	0.77490 0.90330 0.44160 0.05200
H 	H 	0.78880 0.92460 0.41420 0.03100
C 	C 	0.81960 0.90110 0.48910 -0.11100
C 	C 	0.79980 0.86600 0.52990 -0.00100
H 	H 	0.82910 0.86290 0.56120 0.05400
C 	C 	0.57260 0.80420 0.44060 0.17200
C 	C 	0.54120 0.74190 0.42590 -0.19500
H 	H 	0.55870 0.70010 0.44050 0.11700
C 	C 	0.48220 0.74230 0.38850 0.09600
H 	H 	0.46220 0.69940 0.37870 0.02900
C 	C 	0.45290 0.79900 0.36610 -0.13600
C 	C 	0.48640 0.86300 0.38280 0.08400
H 	H 	0.46780 0.90440 0.36820 0.02700
C 	C 	0.54550 0.86730 0.41970 -0.18500
H 	H 	0.56560 0.91000 0.42980 0.10300
C 	C 	0.69180 0.70010 0.67740 0.40600
C 	C 	0.88630 0.93480 0.49500 0.37700
C 	C 	0.39060 0.79390 0.32540 0.36800
C 	C 	0.56000 0.51870 0.65730 0.47800
H 	H 	0.56450 0.56160 0.64190 -0.14300
N 	N 	0.69850 0.13830 0.45680 -0.17900
N 	N 	0.63210 0.80750 0.47940 -0.16800
O 	O 	0.55660 0.39870 0.53070 -0.45300
O 	O 	0.53120 0.41980 0.44710 -0.45300
O 	O 	0.78600 0.15360 0.69630 -0.52300
O 	O 	0.84370 0.06060 0.68230 -0.39200
O 	O 	0.78290 0.97400 0.27110 -0.45500
O 	O 	0.69090 0.92100 0.27790 -0.47500
O 	O 	0.65220 0.65620 0.68850 -0.48100
O 	O 	0.74720 0.71760 0.70620 -0.45800
O 	O 	0.92230 0.93640 0.53880 -0.44300
O 	O 	0.90070 0.96190 0.45570 -0.44200
O 	O 	0.36980 0.85320 0.31550 -0.44900
O 	O 	0.36420 0.73830 0.31120 -0.32100
O 	O 	0.55490 0.65220 0.75000 -0.45500
O 	O 	0.57820 0.51480 0.70550 -0.40800
O 	O 	0.53720 0.46990 0.63000 -0.44500
Zn	Zn	0.01337 0.98422 0.55510 1.22500
Zn	Zn	0.13651 0.09278 0.74283 1.24300
Zn	Zn	0.28723 0.15763 0.76384 1.23000
C 	C 	0.15720 0.69580 0.45700 0.11300
C 	C 	0.12140 0.73400 0.41590 -0.14900
H 	H 	0.12010 0.71930 0.38270 0.09600
C 	C 	0.08830 0.79330 0.42570 0.05600
H 	H 	0.06420 0.81920 0.39890 0.03300
C 	C 	0.09050 0.81570 0.47640 -0.11300
C 	C 	0.12520 0.77870 0.51580 0.00600
H 	H 	0.12560 0.79340 0.54890 0.04700
C 	C 	0.16090 0.71790 0.50720 -0.03200
C 	C 	0.20570 0.67210 0.53930 -0.02400
C 	C 	0.22990 0.66570 0.59150 -0.00100
H 	H 	0.21560 0.69680 0.61390 0.04400
C 	C 	0.27500 0.61350 0.60990 -0.10200
C 	C 	0.29580 0.56540 0.57700 0.05200
H 	H 	0.32620 0.53040 0.59000 0.04100
C 	C 	0.27170 0.56940 0.52530 -0.14400
H 	H 	0.28440 0.53650 0.50350 0.09300
C 	C 	0.22820 0.62330 0.50650 0.11200
C 	C 	0.20500 0.59780 0.41340 0.22600
C 	C 	0.26700 0.59300 0.39960 -0.25600
H 	H 	0.30360 0.61730 0.41790 0.13700
C 	C 	0.27450 0.55270 0.35940 0.16900
H 	H 	0.31640 0.54990 0.35010 -0.00200
C 	C 	0.22070 0.51570 0.33200 -0.22100
C 	C 	0.15930 0.52200 0.34600 0.17700
H 	H 	0.12240 0.49790 0.32800 -0.01300
C 	C 	0.15180 0.56310 0.38590 -0.26900
H 	H 	0.10960 0.56740 0.39440 0.12900
C 	C 	0.05670 0.88370 0.48500 0.37900
C 	C 	0.30240 0.60780 0.66550 0.33700
C 	C 	0.23350 0.46760 0.29050 0.45200
C 	C 	0.13760 0.27960 0.52750 0.11500
C 	C 	0.09020 0.24190 0.54740 -0.14900
H 	H 	0.04750 0.23320 0.52840 0.09100
C 	C 	0.10930 0.21800 0.59670 0.06000
H 	H 	0.07910 0.19170 0.61100 0.03400
C 	C 	0.17390 0.23280 0.62600 -0.11700
C 	C 	0.21940 0.27130 0.60580 0.01100
H 	H 	0.26170 0.28100 0.62500 0.05000
C 	C 	0.20150 0.29570 0.55620 -0.03000
C 	C 	0.23610 0.33600 0.52300 -0.02500
C 	C 	0.19280 0.34000 0.47580 0.10800
C 	C 	0.21060 0.37440 0.43460 -0.14600
H 	H 	0.18080 0.37800 0.40370 0.09100
C 	C 	0.27490 0.40330 0.44160 0.05300
H 	H 	0.28880 0.42460 0.41420 0.03100
C 	C 	0.31960 0.40110 0.48910 -0.11200
C 	C 	0.29980 0.36600 0.52990 -0.00000
H 	H 	0.32910 0.36290 0.56120 0.05300
C 	C 	0.07260 0.30420 0.44060 0.19100
C 	C 	0.04120 0.24190 0.42590 -0.23000
H 	H 	0.05870 0.20010 0.44050 0.12700
C 	C 	0.98220 0.24230 0.38850 0.13300
H 	H 	0.96220 0.19940 0.37870 0.01900
C 	C 	0.95290 0.29900 0.36610 -0.15900
C 	C 	0.98640 0.36300 0.38280 0.11800
H 	H 	0.96780 0.40440 0.36820 0.01800
C 	C 	0.04550 0.36730 0.41970 -0.21800
H 	H 	0.06560 0.41000 0.42980 0.11200
C 	C 	0.19180 0.20010 0.67740 0.40600
C 	C 	0.38630 0.43480 0.49500 0.37700
C 	C 	0.89060 0.29390 0.32540 0.37700
C 	C 	0.06000 0.01870 0.65730 0.47900
H 	H 	0.06450 0.06160 0.64190 -0.14500
N 	N 	0.19850 0.63830 0.45680 -0.17900
N 	N 	0.13210 0.30750 0.47940 -0.17200
O 	O 	0.05660 0.89870 0.53070 -0.45500
O 	O 	0.03120 0.91980 0.44710 -0.45700
O 	O 	0.28600 0.65360 0.69630 -0.52300
O 	O 	0.34370 0.56060 0.68230 -0.39300
O 	O 	0.28290 0.47400 0.27110 -0.45600
O 	O 	0.19090 0.42100 0.27790 -0.47600
O 	O 	0.15220 0.15620 0.68850 -0.48200
O 	O 	0.24720 0.21760 0.70620 -0.45900
O 	O 	0.42230 0.43640 0.53880 -0.44700
O 	O 	0.40070 0.46190 0.45570 -0.44400
O 	O 	0.86980 0.35320 0.31550 -0.45000
O 	O 	0.86420 0.23830 0.31120 -0.32200
O 	O 	0.05490 0.15220 0.75000 -0.45300
O 	O 	0.07820 0.01480 0.70550 -0.41000
O 	O 	0.03720 0.96990 0.63000 -0.44800
C 	C 	0.50000 0.37440 0.25000 0.53600
H 	H 	0.50000 0.42310 0.25000 -0.14700
C 	C 	0.00000 0.87440 0.25000 0.51800
H 	H 	0.00000 0.92310 0.25000 -0.14400
C 	C 	0.50000 0.62560 0.75000 0.53600
H 	H 	0.50000 0.57690 0.75000 -0.14700
C 	C 	0.00000 0.12560 0.75000 0.52000
H 	H 	0.00000 0.07690 0.75000 -0.14400
