data_crystal

_cell_length_a 25.38400
_cell_length_b 25.38400
_cell_length_c 25.38400
_cell_angle_alpha 90.00000
_cell_angle_beta  90.00000
_cell_angle_gamma 90.00000

_symmetry_space_group_name_	'P 1'
_symmetry_space_group_name_H-M	'P 1'

loop_
_symmetry_equiv_pos_as_xyz
  x,y,z

loop_
_atom_site_label
_atom_site_type_symbol
_atom_site_fract_x
_atom_site_fract_y
_atom_site_fract_z
_atom_site_charge
O 	O 	0.18310 0.18890 0.09800 -0.42900
O 	O 	0.18780 0.22980 0.82770 -0.52100
O 	O 	0.23680 0.30210 0.84400 -0.50800
O 	O 	0.26620 0.24510 0.10320 -0.45100
C 	C 	0.18360 0.19640 0.99000 -0.16100
H 	H 	0.16180 0.17100 0.00490 0.12400
C 	C 	0.25100 0.27220 0.00320 -0.10900
H 	H 	0.27080 0.29400 0.02500 0.08600
C 	C 	0.21180 0.26090 0.85600 0.42100
C 	C 	0.22040 0.22870 0.02120 0.04800
C 	C 	0.22190 0.22270 0.08060 0.18900
C 	C 	0.21300 0.24640 0.91550 -0.17700
C 	C 	0.24730 0.27800 0.94540 0.06000
H 	H 	0.26810 0.30310 0.92850 0.03500
C 	C 	0.18460 0.20730 0.93660 0.19700
N 	N 	0.15830 0.16790 0.90650 -0.24200
H 	H 	0.14390 0.18320 0.87990 0.14900
O 	O 	0.16760 0.08800 0.94370 -0.20400
C 	C 	0.09750 0.11720 0.82340 0.05600
H 	H 	0.10360 0.15330 0.82210 0.00900
C 	C 	0.11810 0.09220 0.86470 -0.10800
C 	C 	0.12100 0.04060 0.88100 0.04000
H 	H 	0.13820 0.02580 0.91020 0.04600
C 	C 	0.06830 0.09680 0.78230 -0.14500
H 	H 	0.05190 0.11160 0.75310 0.09400
C 	C 	0.09220 0.01800 0.84300 -0.12500
H 	H 	0.08520 0.98250 0.84460 0.08100
C 	C 	0.07250 0.04700 0.80100 0.08000
C 	C 	0.14710 0.11600 0.90330 0.20900
Zn	Zn	0.25066 0.17647 0.27217 1.21000
O 	O 	0.31690 0.81110 0.59800 -0.43000
O 	O 	0.31220 0.77020 0.32770 -0.52200
O 	O 	0.26320 0.69790 0.34400 -0.50900
O 	O 	0.23380 0.75490 0.60320 -0.45200
C 	C 	0.31640 0.80360 0.49000 -0.16300
H 	H 	0.33820 0.82900 0.50490 0.12400
C 	C 	0.24900 0.72780 0.50320 -0.10900
H 	H 	0.22920 0.70600 0.52500 0.08500
C 	C 	0.28820 0.73910 0.35600 0.42000
C 	C 	0.27960 0.77130 0.52120 0.04800
C 	C 	0.27810 0.77730 0.58060 0.18700
C 	C 	0.28700 0.75360 0.41550 -0.17800
C 	C 	0.25270 0.72200 0.44540 0.05900
H 	H 	0.23190 0.69690 0.42850 0.03400
C 	C 	0.31540 0.79270 0.43660 0.19700
N 	N 	0.34170 0.83210 0.40650 -0.24300
H 	H 	0.35610 0.81680 0.37990 0.14800
O 	O 	0.33240 0.91200 0.44370 -0.20500
C 	C 	0.40250 0.88280 0.32340 0.05500
H 	H 	0.39640 0.84670 0.32210 0.00800
C 	C 	0.38190 0.90780 0.36470 -0.10800
C 	C 	0.37900 0.95940 0.38100 0.03800
H 	H 	0.36180 0.97420 0.41020 0.04500
C 	C 	0.43170 0.90320 0.28230 -0.14600
H 	H 	0.44810 0.88840 0.25310 0.09300
C 	C 	0.40780 0.98200 0.34300 -0.12600
H 	H 	0.41480 0.01750 0.34460 0.08100
C 	C 	0.42750 0.95300 0.30100 0.08000
C 	C 	0.35290 0.88400 0.40330 0.20900
Zn	Zn	0.24934 0.82353 0.77217 1.21000
O 	O 	0.81690 0.68890 0.40200 -0.43000
O 	O 	0.81220 0.72980 0.67230 -0.52200
O 	O 	0.76320 0.80210 0.65600 -0.50900
O 	O 	0.73380 0.74510 0.39680 -0.45200
C 	C 	0.81640 0.69640 0.51000 -0.16300
H 	H 	0.83820 0.67100 0.49510 0.12400
C 	C 	0.74900 0.77220 0.49680 -0.11000
H 	H 	0.72920 0.79400 0.47500 0.08500
C 	C 	0.78820 0.76090 0.64400 0.42000
C 	C 	0.77960 0.72870 0.47880 0.04800
C 	C 	0.77810 0.72270 0.41940 0.18700
C 	C 	0.78700 0.74640 0.58450 -0.17800
C 	C 	0.75270 0.77800 0.55460 0.05900
H 	H 	0.73190 0.80310 0.57150 0.03400
C 	C 	0.81540 0.70730 0.56340 0.19700
N 	N 	0.84170 0.66790 0.59350 -0.24300
H 	H 	0.85610 0.68320 0.62010 0.14800
O 	O 	0.83240 0.58800 0.55630 -0.20500
C 	C 	0.90250 0.61720 0.67660 0.05500
H 	H 	0.89640 0.65330 0.67790 0.00800
C 	C 	0.88190 0.59220 0.63530 -0.10900
C 	C 	0.87900 0.54060 0.61900 0.03800
H 	H 	0.86180 0.52580 0.58980 0.04500
C 	C 	0.93170 0.59680 0.71770 -0.14600
H 	H 	0.94810 0.61160 0.74690 0.09300
C 	C 	0.90780 0.51800 0.65700 -0.12600
H 	H 	0.91480 0.48250 0.65540 0.08100
C 	C 	0.92750 0.54700 0.69900 0.08000
C 	C 	0.85290 0.61600 0.59670 0.20900
Zn	Zn	0.74934 0.67647 0.22783 1.21000
O 	O 	0.68310 0.31110 0.90200 -0.43000
O 	O 	0.68780 0.27020 0.17230 -0.52200
O 	O 	0.73680 0.19790 0.15600 -0.50900
O 	O 	0.76620 0.25490 0.89680 -0.45200
C 	C 	0.68360 0.30360 0.01000 -0.16400
H 	H 	0.66180 0.32900 0.99510 0.12400
C 	C 	0.75100 0.22780 0.99680 -0.11000
H 	H 	0.77080 0.20600 0.97500 0.08500
C 	C 	0.71180 0.23910 0.14400 0.42000
C 	C 	0.72040 0.27130 0.97880 0.04800
C 	C 	0.72190 0.27730 0.91940 0.18700
C 	C 	0.71300 0.25360 0.08450 -0.17800
C 	C 	0.74730 0.22200 0.05460 0.05900
H 	H 	0.76810 0.19690 0.07150 0.03400
C 	C 	0.68460 0.29270 0.06340 0.19700
N 	N 	0.65830 0.33210 0.09350 -0.24300
H 	H 	0.64390 0.31680 0.12010 0.14800
O 	O 	0.66760 0.41200 0.05630 -0.20500
C 	C 	0.59750 0.38280 0.17660 0.05500
H 	H 	0.60360 0.34670 0.17790 0.00800
C 	C 	0.61810 0.40780 0.13530 -0.10900
C 	C 	0.62100 0.45940 0.11900 0.03800
H 	H 	0.63820 0.47420 0.08980 0.04500
C 	C 	0.56830 0.40320 0.21770 -0.14600
H 	H 	0.55190 0.38840 0.24690 0.09300
C 	C 	0.59220 0.48200 0.15700 -0.12600
H 	H 	0.58520 0.51750 0.15540 0.08100
C 	C 	0.57250 0.45300 0.19900 0.08000
C 	C 	0.64710 0.38400 0.09670 0.20900
Zn	Zn	0.75066 0.32353 0.72783 1.21000
O 	O 	0.09800 0.18310 0.18890 -0.43000
O 	O 	0.82770 0.18780 0.22980 -0.52200
O 	O 	0.84400 0.23680 0.30210 -0.50900
O 	O 	0.10320 0.26620 0.24510 -0.45200
C 	C 	0.99000 0.18360 0.19640 -0.16200
H 	H 	0.00490 0.16180 0.17100 0.12300
C 	C 	0.00320 0.25100 0.27220 -0.11000
H 	H 	0.02500 0.27080 0.29400 0.08500
C 	C 	0.85600 0.21180 0.26090 0.42000
C 	C 	0.02120 0.22040 0.22870 0.04700
C 	C 	0.08060 0.22190 0.22270 0.18800
C 	C 	0.91550 0.21300 0.24640 -0.17800
C 	C 	0.94540 0.24730 0.27800 0.05900
H 	H 	0.92850 0.26810 0.30310 0.03400
C 	C 	0.93660 0.18460 0.20730 0.19600
N 	N 	0.90650 0.15830 0.16790 -0.24300
H 	H 	0.87990 0.14390 0.18320 0.14800
O 	O 	0.94370 0.16760 0.08800 -0.20500
C 	C 	0.82340 0.09750 0.11720 0.05500
H 	H 	0.82210 0.10360 0.15330 0.00800
C 	C 	0.86470 0.11810 0.09220 -0.10900
C 	C 	0.88100 0.12100 0.04060 0.03900
H 	H 	0.91020 0.13820 0.02580 0.04500
C 	C 	0.78230 0.06830 0.09680 -0.14600
H 	H 	0.75310 0.05190 0.11160 0.09300
C 	C 	0.84300 0.09220 0.01800 -0.12600
H 	H 	0.84460 0.08520 0.98250 0.08100
C 	C 	0.80100 0.07250 0.04700 0.08000
C 	C 	0.90330 0.14710 0.11600 0.20900
Zn	Zn	0.27217 0.25066 0.17647 1.21000
O 	O 	0.59800 0.31690 0.81110 -0.43000
O 	O 	0.32770 0.31220 0.77020 -0.52200
O 	O 	0.34400 0.26320 0.69790 -0.50900
O 	O 	0.60320 0.23380 0.75490 -0.45200
C 	C 	0.49000 0.31640 0.80360 -0.16300
H 	H 	0.50490 0.33820 0.82900 0.12400
C 	C 	0.50320 0.24900 0.72780 -0.10900
H 	H 	0.52500 0.22920 0.70600 0.08500
C 	C 	0.35600 0.28820 0.73910 0.42000
C 	C 	0.52120 0.27960 0.77130 0.04800
C 	C 	0.58060 0.27810 0.77730 0.18700
C 	C 	0.41550 0.28700 0.75360 -0.17800
C 	C 	0.44540 0.25270 0.72200 0.05900
H 	H 	0.42850 0.23190 0.69690 0.03400
C 	C 	0.43660 0.31540 0.79270 0.19700
N 	N 	0.40650 0.34170 0.83210 -0.24300
H 	H 	0.37990 0.35610 0.81680 0.14800
O 	O 	0.44370 0.33240 0.91200 -0.20500
C 	C 	0.32340 0.40250 0.88280 0.05500
H 	H 	0.32210 0.39640 0.84670 0.00800
C 	C 	0.36470 0.38190 0.90780 -0.10800
C 	C 	0.38100 0.37900 0.95940 0.03800
H 	H 	0.41020 0.36180 0.97420 0.04500
C 	C 	0.28230 0.43170 0.90320 -0.14600
H 	H 	0.25310 0.44810 0.88840 0.09300
C 	C 	0.34300 0.40780 0.98200 -0.12600
H 	H 	0.34460 0.41480 0.01750 0.08100
C 	C 	0.30100 0.42750 0.95300 0.08000
C 	C 	0.40330 0.35290 0.88400 0.20900
Zn	Zn	0.77217 0.24934 0.82353 1.21000
O 	O 	0.40200 0.81690 0.68890 -0.43000
O 	O 	0.67230 0.81220 0.72980 -0.52200
O 	O 	0.65600 0.76320 0.80210 -0.50900
O 	O 	0.39680 0.73380 0.74510 -0.45200
C 	C 	0.51000 0.81640 0.69640 -0.16300
H 	H 	0.49510 0.83820 0.67100 0.12400
C 	C 	0.49680 0.74900 0.77220 -0.11000
H 	H 	0.47500 0.72920 0.79400 0.08500
C 	C 	0.64400 0.78820 0.76090 0.42000
C 	C 	0.47880 0.77960 0.72870 0.04800
C 	C 	0.41940 0.77810 0.72270 0.18700
C 	C 	0.58450 0.78700 0.74640 -0.17800
C 	C 	0.55460 0.75270 0.77800 0.05900
H 	H 	0.57150 0.73190 0.80310 0.03400
C 	C 	0.56340 0.81540 0.70730 0.19700
N 	N 	0.59350 0.84170 0.66790 -0.24300
H 	H 	0.62010 0.85610 0.68320 0.14800
O 	O 	0.55630 0.83240 0.58800 -0.20500
C 	C 	0.67660 0.90250 0.61720 0.05500
H 	H 	0.67790 0.89640 0.65330 0.00800
C 	C 	0.63530 0.88190 0.59220 -0.10900
C 	C 	0.61900 0.87900 0.54060 0.03800
H 	H 	0.58980 0.86180 0.52580 0.04500
C 	C 	0.71770 0.93170 0.59680 -0.14600
H 	H 	0.74690 0.94810 0.61160 0.09300
C 	C 	0.65700 0.90780 0.51800 -0.12600
H 	H 	0.65540 0.91480 0.48250 0.08100
C 	C 	0.69900 0.92750 0.54700 0.08000
C 	C 	0.59670 0.85290 0.61600 0.20900
Zn	Zn	0.22783 0.74934 0.67647 1.21000
O 	O 	0.90200 0.68310 0.31110 -0.43000
O 	O 	0.17230 0.68780 0.27020 -0.52200
O 	O 	0.15600 0.73680 0.19790 -0.50900
O 	O 	0.89680 0.76620 0.25490 -0.45200
C 	C 	0.01000 0.68360 0.30360 -0.16400
H 	H 	0.99510 0.66180 0.32900 0.12400
C 	C 	0.99680 0.75100 0.22780 -0.11000
H 	H 	0.97500 0.77080 0.20600 0.08500
C 	C 	0.14400 0.71180 0.23910 0.42000
C 	C 	0.97880 0.72040 0.27130 0.04800
C 	C 	0.91940 0.72190 0.27730 0.18700
C 	C 	0.08450 0.71300 0.25360 -0.17800
C 	C 	0.05460 0.74730 0.22200 0.05900
H 	H 	0.07150 0.76810 0.19690 0.03400
C 	C 	0.06340 0.68460 0.29270 0.19700
N 	N 	0.09350 0.65830 0.33210 -0.24300
H 	H 	0.12010 0.64390 0.31680 0.14800
O 	O 	0.05630 0.66760 0.41200 -0.20500
C 	C 	0.17660 0.59750 0.38280 0.05500
H 	H 	0.17790 0.60360 0.34670 0.00800
C 	C 	0.13530 0.61810 0.40780 -0.10900
C 	C 	0.11900 0.62100 0.45940 0.03800
H 	H 	0.08980 0.63820 0.47420 0.04500
C 	C 	0.21770 0.56830 0.40320 -0.14600
H 	H 	0.24690 0.55190 0.38840 0.09300
C 	C 	0.15700 0.59220 0.48200 -0.12600
H 	H 	0.15540 0.58520 0.51750 0.08100
C 	C 	0.19900 0.57250 0.45300 0.08000
C 	C 	0.09670 0.64710 0.38400 0.20900
Zn	Zn	0.72783 0.75066 0.32353 1.21000
O 	O 	0.18890 0.09800 0.18310 -0.43000
O 	O 	0.22980 0.82770 0.18780 -0.52200
O 	O 	0.30210 0.84400 0.23680 -0.50900
O 	O 	0.24510 0.10320 0.26620 -0.45200
C 	C 	0.19640 0.99000 0.18360 -0.16200
H 	H 	0.17100 0.00490 0.16180 0.12300
C 	C 	0.27220 0.00320 0.25100 -0.11000
H 	H 	0.29400 0.02500 0.27080 0.08500
C 	C 	0.26090 0.85600 0.21180 0.42000
C 	C 	0.22870 0.02120 0.22040 0.04700
C 	C 	0.22270 0.08060 0.22190 0.18800
C 	C 	0.24640 0.91550 0.21300 -0.17800
C 	C 	0.27800 0.94540 0.24730 0.05900
H 	H 	0.30310 0.92850 0.26810 0.03400
C 	C 	0.20730 0.93660 0.18460 0.19600
N 	N 	0.16790 0.90650 0.15830 -0.24300
H 	H 	0.18320 0.87990 0.14390 0.14800
O 	O 	0.08800 0.94370 0.16760 -0.20500
C 	C 	0.11720 0.82340 0.09750 0.05500
H 	H 	0.15330 0.82210 0.10360 0.00800
C 	C 	0.09220 0.86470 0.11810 -0.10900
C 	C 	0.04060 0.88100 0.12100 0.03900
H 	H 	0.02580 0.91020 0.13820 0.04500
C 	C 	0.09680 0.78230 0.06830 -0.14600
H 	H 	0.11160 0.75310 0.05190 0.09300
C 	C 	0.01800 0.84300 0.09220 -0.12600
H 	H 	0.98250 0.84460 0.08520 0.08100
C 	C 	0.04700 0.80100 0.07250 0.08000
C 	C 	0.11600 0.90330 0.14710 0.20900
Zn	Zn	0.17647 0.27217 0.25066 1.21000
O 	O 	0.81110 0.59800 0.31690 -0.43000
O 	O 	0.77020 0.32770 0.31220 -0.52200
O 	O 	0.69790 0.34400 0.26320 -0.50900
O 	O 	0.75490 0.60320 0.23380 -0.45200
C 	C 	0.80360 0.49000 0.31640 -0.16300
H 	H 	0.82900 0.50490 0.33820 0.12400
C 	C 	0.72780 0.50320 0.24900 -0.10900
H 	H 	0.70600 0.52500 0.22920 0.08500
C 	C 	0.73910 0.35600 0.28820 0.42000
C 	C 	0.77130 0.52120 0.27960 0.04800
C 	C 	0.77730 0.58060 0.27810 0.18700
C 	C 	0.75360 0.41550 0.28700 -0.17800
C 	C 	0.72200 0.44540 0.25270 0.05900
H 	H 	0.69690 0.42850 0.23190 0.03400
C 	C 	0.79270 0.43660 0.31540 0.19700
N 	N 	0.83210 0.40650 0.34170 -0.24300
H 	H 	0.81680 0.37990 0.35610 0.14800
O 	O 	0.91200 0.44370 0.33240 -0.20500
C 	C 	0.88280 0.32340 0.40250 0.05500
H 	H 	0.84670 0.32210 0.39640 0.00800
C 	C 	0.90780 0.36470 0.38190 -0.10800
C 	C 	0.95940 0.38100 0.37900 0.03800
H 	H 	0.97420 0.41020 0.36180 0.04500
C 	C 	0.90320 0.28230 0.43170 -0.14600
H 	H 	0.88840 0.25310 0.44810 0.09300
C 	C 	0.98200 0.34300 0.40780 -0.12600
H 	H 	0.01750 0.34460 0.41480 0.08100
C 	C 	0.95300 0.30100 0.42750 0.08000
C 	C 	0.88400 0.40330 0.35290 0.20900
Zn	Zn	0.82353 0.77217 0.24934 1.21000
O 	O 	0.68890 0.40200 0.81690 -0.43000
O 	O 	0.72980 0.67230 0.81220 -0.52200
O 	O 	0.80210 0.65600 0.76320 -0.50900
O 	O 	0.74510 0.39680 0.73380 -0.45200
C 	C 	0.69640 0.51000 0.81640 -0.16300
H 	H 	0.67100 0.49510 0.83820 0.12400
C 	C 	0.77220 0.49680 0.74900 -0.11000
H 	H 	0.79400 0.47500 0.72920 0.08500
C 	C 	0.76090 0.64400 0.78820 0.42000
C 	C 	0.72870 0.47880 0.77960 0.04800
C 	C 	0.72270 0.41940 0.77810 0.18700
C 	C 	0.74640 0.58450 0.78700 -0.17800
C 	C 	0.77800 0.55460 0.75270 0.05900
H 	H 	0.80310 0.57150 0.73190 0.03400
C 	C 	0.70730 0.56340 0.81540 0.19700
N 	N 	0.66790 0.59350 0.84170 -0.24300
H 	H 	0.68320 0.62010 0.85610 0.14800
O 	O 	0.58800 0.55630 0.83240 -0.20500
C 	C 	0.61720 0.67660 0.90250 0.05500
H 	H 	0.65330 0.67790 0.89640 0.00800
C 	C 	0.59220 0.63530 0.88190 -0.10900
C 	C 	0.54060 0.61900 0.87900 0.03800
H 	H 	0.52580 0.58980 0.86180 0.04500
C 	C 	0.59680 0.71770 0.93170 -0.14600
H 	H 	0.61160 0.74690 0.94810 0.09300
C 	C 	0.51800 0.65700 0.90780 -0.12600
H 	H 	0.48250 0.65540 0.91480 0.08100
C 	C 	0.54700 0.69900 0.92750 0.08000
C 	C 	0.61600 0.59670 0.85290 0.20900
Zn	Zn	0.67647 0.22783 0.74934 1.21000
O 	O 	0.31110 0.90200 0.68310 -0.43000
O 	O 	0.27020 0.17230 0.68780 -0.52200
O 	O 	0.19790 0.15600 0.73680 -0.50900
O 	O 	0.25490 0.89680 0.76620 -0.45200
C 	C 	0.30360 0.01000 0.68360 -0.16400
H 	H 	0.32900 0.99510 0.66180 0.12400
C 	C 	0.22780 0.99680 0.75100 -0.11000
H 	H 	0.20600 0.97500 0.77080 0.08500
C 	C 	0.23910 0.14400 0.71180 0.42000
C 	C 	0.27130 0.97880 0.72040 0.04800
C 	C 	0.27730 0.91940 0.72190 0.18700
C 	C 	0.25360 0.08450 0.71300 -0.17800
C 	C 	0.22200 0.05460 0.74730 0.05900
H 	H 	0.19690 0.07150 0.76810 0.03400
C 	C 	0.29270 0.06340 0.68460 0.19700
N 	N 	0.33210 0.09350 0.65830 -0.24300
H 	H 	0.31680 0.12010 0.64390 0.14800
O 	O 	0.41200 0.05630 0.66760 -0.20500
C 	C 	0.38280 0.17660 0.59750 0.05500
H 	H 	0.34670 0.17790 0.60360 0.00800
C 	C 	0.40780 0.13530 0.61810 -0.10900
C 	C 	0.45940 0.11900 0.62100 0.03800
H 	H 	0.47420 0.08980 0.63820 0.04500
C 	C 	0.40320 0.21770 0.56830 -0.14600
H 	H 	0.38840 0.24690 0.55190 0.09300
C 	C 	0.48200 0.15700 0.59220 -0.12600
H 	H 	0.51750 0.15540 0.58520 0.08100
C 	C 	0.45300 0.19900 0.57250 0.08000
C 	C 	0.38400 0.09670 0.64710 0.20900
Zn	Zn	0.32353 0.72783 0.75066 1.21000
O 	O 	0.81690 0.81110 0.90200 -0.43000
O 	O 	0.81220 0.77020 0.17230 -0.52200
O 	O 	0.76320 0.69790 0.15600 -0.50900
O 	O 	0.73380 0.75490 0.89680 -0.45200
C 	C 	0.81640 0.80360 0.01000 -0.16200
H 	H 	0.83820 0.82900 0.99510 0.12300
C 	C 	0.74900 0.72780 0.99680 -0.11000
H 	H 	0.72920 0.70600 0.97500 0.08500
C 	C 	0.78820 0.73910 0.14400 0.42000
C 	C 	0.77960 0.77130 0.97880 0.04700
C 	C 	0.77810 0.77730 0.91940 0.18800
C 	C 	0.78700 0.75360 0.08450 -0.17800
C 	C 	0.75270 0.72200 0.05460 0.05900
H 	H 	0.73190 0.69690 0.07150 0.03400
C 	C 	0.81540 0.79270 0.06340 0.19600
N 	N 	0.84170 0.83210 0.09350 -0.24300
H 	H 	0.85610 0.81680 0.12010 0.14800
O 	O 	0.83240 0.91200 0.05630 -0.20500
C 	C 	0.90250 0.88280 0.17660 0.05500
H 	H 	0.89640 0.84670 0.17790 0.00800
C 	C 	0.88190 0.90780 0.13530 -0.10900
C 	C 	0.87900 0.95940 0.11900 0.03900
H 	H 	0.86180 0.97420 0.08980 0.04500
C 	C 	0.93170 0.90320 0.21770 -0.14600
H 	H 	0.94810 0.88840 0.24690 0.09300
C 	C 	0.90780 0.98200 0.15700 -0.12600
H 	H 	0.91480 0.01750 0.15540 0.08100
C 	C 	0.92750 0.95300 0.19900 0.08000
C 	C 	0.85290 0.88400 0.09670 0.20900
Zn	Zn	0.74934 0.82353 0.72783 1.21000
O 	O 	0.68310 0.18890 0.40200 -0.43000
O 	O 	0.68780 0.22980 0.67230 -0.52200
O 	O 	0.73680 0.30210 0.65600 -0.50900
O 	O 	0.76620 0.24510 0.39680 -0.45200
C 	C 	0.68360 0.19640 0.51000 -0.16300
H 	H 	0.66180 0.17100 0.49510 0.12400
C 	C 	0.75100 0.27220 0.49680 -0.10900
H 	H 	0.77080 0.29400 0.47500 0.08500
C 	C 	0.71180 0.26090 0.64400 0.42000
C 	C 	0.72040 0.22870 0.47880 0.04800
C 	C 	0.72190 0.22270 0.41940 0.18700
C 	C 	0.71300 0.24640 0.58450 -0.17800
C 	C 	0.74730 0.27800 0.55460 0.05900
H 	H 	0.76810 0.30310 0.57150 0.03400
C 	C 	0.68460 0.20730 0.56340 0.19700
N 	N 	0.65830 0.16790 0.59350 -0.24300
H 	H 	0.64390 0.18320 0.62010 0.14800
O 	O 	0.66760 0.08800 0.55630 -0.20500
C 	C 	0.59750 0.11720 0.67660 0.05500
H 	H 	0.60360 0.15330 0.67790 0.00800
C 	C 	0.61810 0.09220 0.63530 -0.10800
C 	C 	0.62100 0.04060 0.61900 0.03800
H 	H 	0.63820 0.02580 0.58980 0.04500
C 	C 	0.56830 0.09680 0.71770 -0.14600
H 	H 	0.55190 0.11160 0.74690 0.09300
C 	C 	0.59220 0.01800 0.65700 -0.12600
H 	H 	0.58520 0.98250 0.65540 0.08100
C 	C 	0.57250 0.04700 0.69900 0.08000
C 	C 	0.64710 0.11600 0.59670 0.20900
Zn	Zn	0.75066 0.17647 0.22783 1.21000
O 	O 	0.18310 0.31110 0.59800 -0.43000
O 	O 	0.18780 0.27020 0.32770 -0.52200
O 	O 	0.23680 0.19790 0.34400 -0.50900
O 	O 	0.26620 0.25490 0.60320 -0.45200
C 	C 	0.18360 0.30360 0.49000 -0.16300
H 	H 	0.16180 0.32900 0.50490 0.12400
C 	C 	0.25100 0.22780 0.50320 -0.11000
H 	H 	0.27080 0.20600 0.52500 0.08500
C 	C 	0.21180 0.23910 0.35600 0.42000
C 	C 	0.22040 0.27130 0.52120 0.04800
C 	C 	0.22190 0.27730 0.58060 0.18700
C 	C 	0.21300 0.25360 0.41550 -0.17800
C 	C 	0.24730 0.22200 0.44540 0.05900
H 	H 	0.26810 0.19690 0.42850 0.03400
C 	C 	0.18460 0.29270 0.43660 0.19700
N 	N 	0.15830 0.33210 0.40650 -0.24300
H 	H 	0.14390 0.31680 0.37990 0.14800
O 	O 	0.16760 0.41200 0.44370 -0.20500
C 	C 	0.09750 0.38280 0.32340 0.05500
H 	H 	0.10360 0.34670 0.32210 0.00800
C 	C 	0.11810 0.40780 0.36470 -0.10900
C 	C 	0.12100 0.45940 0.38100 0.03800
H 	H 	0.13820 0.47420 0.41020 0.04500
C 	C 	0.06830 0.40320 0.28230 -0.14600
H 	H 	0.05190 0.38840 0.25310 0.09300
C 	C 	0.09220 0.48200 0.34300 -0.12600
H 	H 	0.08520 0.51750 0.34460 0.08100
C 	C 	0.07250 0.45300 0.30100 0.08000
C 	C 	0.14710 0.38400 0.40330 0.20900
Zn	Zn	0.25066 0.32353 0.77217 1.21000
O 	O 	0.31690 0.68890 0.09800 -0.43000
O 	O 	0.31220 0.72980 0.82770 -0.52200
O 	O 	0.26320 0.80210 0.84400 -0.50900
O 	O 	0.23380 0.74510 0.10320 -0.45200
C 	C 	0.31640 0.69640 0.99000 -0.16400
H 	H 	0.33820 0.67100 0.00490 0.12400
C 	C 	0.24900 0.77220 0.00320 -0.11000
H 	H 	0.22920 0.79400 0.02500 0.08500
C 	C 	0.28820 0.76090 0.85600 0.42000
C 	C 	0.27960 0.72870 0.02120 0.04800
C 	C 	0.27810 0.72270 0.08060 0.18700
C 	C 	0.28700 0.74640 0.91550 -0.17800
C 	C 	0.25270 0.77800 0.94540 0.05900
H 	H 	0.23190 0.80310 0.92850 0.03400
C 	C 	0.31540 0.70730 0.93660 0.19700
N 	N 	0.34170 0.66790 0.90650 -0.24300
H 	H 	0.35610 0.68320 0.87990 0.14800
O 	O 	0.33240 0.58800 0.94370 -0.20500
C 	C 	0.40250 0.61720 0.82340 0.05500
H 	H 	0.39640 0.65330 0.82210 0.00800
C 	C 	0.38190 0.59220 0.86470 -0.10900
C 	C 	0.37900 0.54060 0.88100 0.03800
H 	H 	0.36180 0.52580 0.91020 0.04500
C 	C 	0.43170 0.59680 0.78230 -0.14600
H 	H 	0.44810 0.61160 0.75310 0.09300
C 	C 	0.40780 0.51800 0.84300 -0.12600
H 	H 	0.41480 0.48250 0.84460 0.08100
C 	C 	0.42750 0.54700 0.80100 0.08000
C 	C 	0.35290 0.61600 0.90330 0.20900
Zn	Zn	0.24934 0.67647 0.27217 1.21000
O 	O 	0.90200 0.81690 0.81110 -0.43000
O 	O 	0.17230 0.81220 0.77020 -0.52200
O 	O 	0.15600 0.76320 0.69790 -0.50900
O 	O 	0.89680 0.73380 0.75490 -0.45200
C 	C 	0.01000 0.81640 0.80360 -0.16200
H 	H 	0.99510 0.83820 0.82900 0.12300
C 	C 	0.99680 0.74900 0.72780 -0.11000
H 	H 	0.97500 0.72920 0.70600 0.08500
C 	C 	0.14400 0.78820 0.73910 0.42000
C 	C 	0.97880 0.77960 0.77130 0.04700
C 	C 	0.91940 0.77810 0.77730 0.18800
C 	C 	0.08450 0.78700 0.75360 -0.17800
C 	C 	0.05460 0.75270 0.72200 0.05900
H 	H 	0.07150 0.73190 0.69690 0.03400
C 	C 	0.06340 0.81540 0.79270 0.19600
N 	N 	0.09350 0.84170 0.83210 -0.24300
H 	H 	0.12010 0.85610 0.81680 0.14800
O 	O 	0.05630 0.83240 0.91200 -0.20500
C 	C 	0.17660 0.90250 0.88280 0.05500
H 	H 	0.17790 0.89640 0.84670 0.00800
C 	C 	0.13530 0.88190 0.90780 -0.10900
C 	C 	0.11900 0.87900 0.95940 0.03900
H 	H 	0.08980 0.86180 0.97420 0.04500
C 	C 	0.21770 0.93170 0.90320 -0.14600
H 	H 	0.24690 0.94810 0.88840 0.09300
C 	C 	0.15700 0.90780 0.98200 -0.12600
H 	H 	0.15540 0.91480 0.01750 0.08100
C 	C 	0.19900 0.92750 0.95300 0.08000
C 	C 	0.09670 0.85290 0.88400 0.20900
Zn	Zn	0.72783 0.74934 0.82353 1.21000
O 	O 	0.40200 0.68310 0.18890 -0.43000
O 	O 	0.67230 0.68780 0.22980 -0.52200
O 	O 	0.65600 0.73680 0.30210 -0.50900
O 	O 	0.39680 0.76620 0.24510 -0.45200
C 	C 	0.51000 0.68360 0.19640 -0.16300
H 	H 	0.49510 0.66180 0.17100 0.12400
C 	C 	0.49680 0.75100 0.27220 -0.10900
H 	H 	0.47500 0.77080 0.29400 0.08500
C 	C 	0.64400 0.71180 0.26090 0.42000
C 	C 	0.47880 0.72040 0.22870 0.04800
C 	C 	0.41940 0.72190 0.22270 0.18700
C 	C 	0.58450 0.71300 0.24640 -0.17800
C 	C 	0.55460 0.74730 0.27800 0.05900
H 	H 	0.57150 0.76810 0.30310 0.03400
C 	C 	0.56340 0.68460 0.20730 0.19700
N 	N 	0.59350 0.65830 0.16790 -0.24300
H 	H 	0.62010 0.64390 0.18320 0.14800
O 	O 	0.55630 0.66760 0.08800 -0.20500
C 	C 	0.67660 0.59750 0.11720 0.05500
H 	H 	0.67790 0.60360 0.15330 0.00800
C 	C 	0.63530 0.61810 0.09220 -0.10800
C 	C 	0.61900 0.62100 0.04060 0.03800
H 	H 	0.58980 0.63820 0.02580 0.04500
C 	C 	0.71770 0.56830 0.09680 -0.14600
H 	H 	0.74690 0.55190 0.11160 0.09300
C 	C 	0.65700 0.59220 0.01800 -0.12600
H 	H 	0.65540 0.58520 0.98250 0.08100
C 	C 	0.69900 0.57250 0.04700 0.08000
C 	C 	0.59670 0.64710 0.11600 0.20900
Zn	Zn	0.22783 0.75066 0.17647 1.21000
O 	O 	0.59800 0.18310 0.31110 -0.43000
O 	O 	0.32770 0.18780 0.27020 -0.52200
O 	O 	0.34400 0.23680 0.19790 -0.50900
O 	O 	0.60320 0.26620 0.25490 -0.45200
C 	C 	0.49000 0.18360 0.30360 -0.16300
H 	H 	0.50490 0.16180 0.32900 0.12400
C 	C 	0.50320 0.25100 0.22780 -0.11000
H 	H 	0.52500 0.27080 0.20600 0.08500
C 	C 	0.35600 0.21180 0.23910 0.42000
C 	C 	0.52120 0.22040 0.27130 0.04800
C 	C 	0.58060 0.22190 0.27730 0.18700
C 	C 	0.41550 0.21300 0.25360 -0.17800
C 	C 	0.44540 0.24730 0.22200 0.05900
H 	H 	0.42850 0.26810 0.19690 0.03400
C 	C 	0.43660 0.18460 0.29270 0.19700
N 	N 	0.40650 0.15830 0.33210 -0.24300
H 	H 	0.37990 0.14390 0.31680 0.14800
O 	O 	0.44370 0.16760 0.41200 -0.20500
C 	C 	0.32340 0.09750 0.38280 0.05500
H 	H 	0.32210 0.10360 0.34670 0.00800
C 	C 	0.36470 0.11810 0.40780 -0.10900
C 	C 	0.38100 0.12100 0.45940 0.03800
H 	H 	0.41020 0.13820 0.47420 0.04500
C 	C 	0.28230 0.06830 0.40320 -0.14600
H 	H 	0.25310 0.05190 0.38840 0.09300
C 	C 	0.34300 0.09220 0.48200 -0.12600
H 	H 	0.34460 0.08520 0.51750 0.08100
C 	C 	0.30100 0.07250 0.45300 0.08000
C 	C 	0.40330 0.14710 0.38400 0.20900
Zn	Zn	0.77217 0.25066 0.32353 1.21000
O 	O 	0.09800 0.31690 0.68890 -0.43000
O 	O 	0.82770 0.31220 0.72980 -0.52200
O 	O 	0.84400 0.26320 0.80210 -0.50900
O 	O 	0.10320 0.23380 0.74510 -0.45200
C 	C 	0.99000 0.31640 0.69640 -0.16400
H 	H 	0.00490 0.33820 0.67100 0.12400
C 	C 	0.00320 0.24900 0.77220 -0.11000
H 	H 	0.02500 0.22920 0.79400 0.08500
C 	C 	0.85600 0.28820 0.76090 0.42000
C 	C 	0.02120 0.27960 0.72870 0.04800
C 	C 	0.08060 0.27810 0.72270 0.18700
C 	C 	0.91550 0.28700 0.74640 -0.17800
C 	C 	0.94540 0.25270 0.77800 0.05900
H 	H 	0.92850 0.23190 0.80310 0.03400
C 	C 	0.93660 0.31540 0.70730 0.19700
N 	N 	0.90650 0.34170 0.66790 -0.24300
H 	H 	0.87990 0.35610 0.68320 0.14800
O 	O 	0.94370 0.33240 0.58800 -0.20500
C 	C 	0.82340 0.40250 0.61720 0.05500
H 	H 	0.82210 0.39640 0.65330 0.00800
C 	C 	0.86470 0.38190 0.59220 -0.10900
C 	C 	0.88100 0.37900 0.54060 0.03800
H 	H 	0.91020 0.36180 0.52580 0.04500
C 	C 	0.78230 0.43170 0.59680 -0.14600
H 	H 	0.75310 0.44810 0.61160 0.09300
C 	C 	0.84300 0.40780 0.51800 -0.12600
H 	H 	0.84460 0.41480 0.48250 0.08100
C 	C 	0.80100 0.42750 0.54700 0.08000
C 	C 	0.90330 0.35290 0.61600 0.20900
Zn	Zn	0.27217 0.24934 0.67647 1.21000
O 	O 	0.81110 0.90200 0.81690 -0.43000
O 	O 	0.77020 0.17230 0.81220 -0.52200
O 	O 	0.69790 0.15600 0.76320 -0.50900
O 	O 	0.75490 0.89680 0.73380 -0.45200
C 	C 	0.80360 0.01000 0.81640 -0.16200
H 	H 	0.82900 0.99510 0.83820 0.12300
C 	C 	0.72780 0.99680 0.74900 -0.11000
H 	H 	0.70600 0.97500 0.72920 0.08500
C 	C 	0.73910 0.14400 0.78820 0.42000
C 	C 	0.77130 0.97880 0.77960 0.04700
C 	C 	0.77730 0.91940 0.77810 0.18800
C 	C 	0.75360 0.08450 0.78700 -0.17800
C 	C 	0.72200 0.05460 0.75270 0.05900
H 	H 	0.69690 0.07150 0.73190 0.03400
C 	C 	0.79270 0.06340 0.81540 0.19600
N 	N 	0.83210 0.09350 0.84170 -0.24300
H 	H 	0.81680 0.12010 0.85610 0.14800
O 	O 	0.91200 0.05630 0.83240 -0.20500
C 	C 	0.88280 0.17660 0.90250 0.05500
H 	H 	0.84670 0.17790 0.89640 0.00800
C 	C 	0.90780 0.13530 0.88190 -0.10900
C 	C 	0.95940 0.11900 0.87900 0.03900
H 	H 	0.97420 0.08980 0.86180 0.04500
C 	C 	0.90320 0.21770 0.93170 -0.14600
H 	H 	0.88840 0.24690 0.94810 0.09300
C 	C 	0.98200 0.15700 0.90780 -0.12600
H 	H 	0.01750 0.15540 0.91480 0.08100
C 	C 	0.95300 0.19900 0.92750 0.08000
C 	C 	0.88400 0.09670 0.85290 0.20900
Zn	Zn	0.82353 0.72783 0.74934 1.21000
O 	O 	0.18890 0.40200 0.68310 -0.43000
O 	O 	0.22980 0.67230 0.68780 -0.52200
O 	O 	0.30210 0.65600 0.73680 -0.50900
O 	O 	0.24510 0.39680 0.76620 -0.45200
C 	C 	0.19640 0.51000 0.68360 -0.16300
H 	H 	0.17100 0.49510 0.66180 0.12400
C 	C 	0.27220 0.49680 0.75100 -0.10900
H 	H 	0.29400 0.47500 0.77080 0.08500
C 	C 	0.26090 0.64400 0.71180 0.42000
C 	C 	0.22870 0.47880 0.72040 0.04800
C 	C 	0.22270 0.41940 0.72190 0.18700
C 	C 	0.24640 0.58450 0.71300 -0.17800
C 	C 	0.27800 0.55460 0.74730 0.05900
H 	H 	0.30310 0.57150 0.76810 0.03400
C 	C 	0.20730 0.56340 0.68460 0.19700
N 	N 	0.16790 0.59350 0.65830 -0.24300
H 	H 	0.18320 0.62010 0.64390 0.14800
O 	O 	0.08800 0.55630 0.66760 -0.20500
C 	C 	0.11720 0.67660 0.59750 0.05500
H 	H 	0.15330 0.67790 0.60360 0.00800
C 	C 	0.09220 0.63530 0.61810 -0.10800
C 	C 	0.04060 0.61900 0.62100 0.03800
H 	H 	0.02580 0.58980 0.63820 0.04500
C 	C 	0.09680 0.71770 0.56830 -0.14600
H 	H 	0.11160 0.74690 0.55190 0.09300
C 	C 	0.01800 0.65700 0.59220 -0.12600
H 	H 	0.98250 0.65540 0.58520 0.08100
C 	C 	0.04700 0.69900 0.57250 0.08000
C 	C 	0.11600 0.59670 0.64710 0.20900
Zn	Zn	0.17647 0.22783 0.75066 1.21000
O 	O 	0.31110 0.59800 0.18310 -0.43000
O 	O 	0.27020 0.32770 0.18780 -0.52200
O 	O 	0.19790 0.34400 0.23680 -0.50900
O 	O 	0.25490 0.60320 0.26620 -0.45200
C 	C 	0.30360 0.49000 0.18360 -0.16300
H 	H 	0.32900 0.50490 0.16180 0.12400
C 	C 	0.22780 0.50320 0.25100 -0.11000
H 	H 	0.20600 0.52500 0.27080 0.08500
C 	C 	0.23910 0.35600 0.21180 0.42000
C 	C 	0.27130 0.52120 0.22040 0.04800
C 	C 	0.27730 0.58060 0.22190 0.18700
C 	C 	0.25360 0.41550 0.21300 -0.17800
C 	C 	0.22200 0.44540 0.24730 0.05900
H 	H 	0.19690 0.42850 0.26810 0.03400
C 	C 	0.29270 0.43660 0.18460 0.19700
N 	N 	0.33210 0.40650 0.15830 -0.24300
H 	H 	0.31680 0.37990 0.14390 0.14800
O 	O 	0.41200 0.44370 0.16760 -0.20500
C 	C 	0.38280 0.32340 0.09750 0.05500
H 	H 	0.34670 0.32210 0.10360 0.00800
C 	C 	0.40780 0.36470 0.11810 -0.10900
C 	C 	0.45940 0.38100 0.12100 0.03800
H 	H 	0.47420 0.41020 0.13820 0.04500
C 	C 	0.40320 0.28230 0.06830 -0.14600
H 	H 	0.38840 0.25310 0.05190 0.09300
C 	C 	0.48200 0.34300 0.09220 -0.12600
H 	H 	0.51750 0.34460 0.08520 0.08100
C 	C 	0.45300 0.30100 0.07250 0.08000
C 	C 	0.38400 0.40330 0.14710 0.20900
Zn	Zn	0.32353 0.77217 0.25066 1.21000
O 	O 	0.68890 0.09800 0.31690 -0.43000
O 	O 	0.72980 0.82770 0.31220 -0.52200
O 	O 	0.80210 0.84400 0.26320 -0.50900
O 	O 	0.74510 0.10320 0.23380 -0.45200
C 	C 	0.69640 0.99000 0.31640 -0.16400
H 	H 	0.67100 0.00490 0.33820 0.12400
C 	C 	0.77220 0.00320 0.24900 -0.11000
H 	H 	0.79400 0.02500 0.22920 0.08500
C 	C 	0.76090 0.85600 0.28820 0.42000
C 	C 	0.72870 0.02120 0.27960 0.04800
C 	C 	0.72270 0.08060 0.27810 0.18700
C 	C 	0.74640 0.91550 0.28700 -0.17800
C 	C 	0.77800 0.94540 0.25270 0.05900
H 	H 	0.80310 0.92850 0.23190 0.03400
C 	C 	0.70730 0.93660 0.31540 0.19700
N 	N 	0.66790 0.90650 0.34170 -0.24300
H 	H 	0.68320 0.87990 0.35610 0.14800
O 	O 	0.58800 0.94370 0.33240 -0.20500
C 	C 	0.61720 0.82340 0.40250 0.05500
H 	H 	0.65330 0.82210 0.39640 0.00800
C 	C 	0.59220 0.86470 0.38190 -0.10900
C 	C 	0.54060 0.88100 0.37900 0.03800
H 	H 	0.52580 0.91020 0.36180 0.04500
C 	C 	0.59680 0.78230 0.43170 -0.14600
H 	H 	0.61160 0.75310 0.44810 0.09300
C 	C 	0.51800 0.84300 0.40780 -0.12600
H 	H 	0.48250 0.84460 0.41480 0.08100
C 	C 	0.54700 0.80100 0.42750 0.08000
C 	C 	0.61600 0.90330 0.35290 0.20900
Zn	Zn	0.67647 0.27217 0.24934 1.21000
O 	O 	0.21800 0.21800 0.21800 -0.98500
Zn	Zn	0.17336 0.17336 0.17336 1.19700
O 	O 	0.28200 0.78200 0.71800 -0.98500
Zn	Zn	0.32664 0.82664 0.67336 1.19700
O 	O 	0.78200 0.71800 0.28200 -0.98500
Zn	Zn	0.82664 0.67336 0.32664 1.19700
O 	O 	0.71800 0.28200 0.78200 -0.98500
Zn	Zn	0.67336 0.32664 0.82664 1.19700
O 	O 	0.78200 0.78200 0.78200 -0.98500
Zn	Zn	0.82664 0.82664 0.82664 1.19700
O 	O 	0.71800 0.21800 0.28200 -0.98500
Zn	Zn	0.67336 0.17336 0.32664 1.19700
O 	O 	0.21800 0.28200 0.71800 -0.98500
Zn	Zn	0.17336 0.32664 0.67336 1.19700
O 	O 	0.28200 0.71800 0.21800 -0.98500
Zn	Zn	0.32664 0.67336 0.17336 1.19700
