data_crystal

_cell_length_a 17.22090
_cell_length_b 17.22090
_cell_length_c 34.22900
_cell_angle_alpha 90.00000
_cell_angle_beta  90.00000
_cell_angle_gamma 90.00000

_symmetry_space_group_name_	'P 1'
_symmetry_space_group_name_H-M	'P 1'

loop_
_symmetry_equiv_pos_as_xyz
  x,y,z

loop_
_atom_site_label
_atom_site_type_symbol
_atom_site_fract_x
_atom_site_fract_y
_atom_site_fract_z
_atom_site_charge
C 	C 	0.28180 0.31260 0.39680 -0.04100
H 	H 	0.30130 0.35560 0.41060 0.03300
C 	C 	0.31170 0.28480 0.35720 0.00100
H 	H 	0.35220 0.31010 0.34380 0.03000
O 	O 	0.42430 0.29940 0.67320 -0.50400
O 	O 	0.42530 0.19960 0.71300 -0.49200
C 	C 	0.45840 0.24990 0.69230 0.41100
C 	C 	0.54400 0.25620 0.69330 -0.03900
C 	C 	0.58750 0.19170 0.70420 -0.04600
H 	H 	0.56230 0.14600 0.71230 0.02900
C 	C 	0.66810 0.19490 0.70310 -0.07800
H 	H 	0.69750 0.15130 0.71050 0.05100
C 	C 	0.70520 0.26250 0.69110 -0.01400
C 	C 	0.66180 0.32690 0.68020 -0.23900
C 	C 	0.58110 0.32380 0.68130 -0.06400
H 	H 	0.55170 0.36740 0.67390 0.05600
P 	P 	0.70980 0.42310 0.66170 0.01900
C 	C 	0.73800 0.40200 0.61270 0.00300
C 	C 	0.79000 0.46000 0.55410 -0.01900
C 	C 	0.78000 0.46000 0.59440 -0.07100
C 	C 	0.75700 0.40000 0.53200 -0.06300
C 	C 	0.71400 0.34200 0.55030 -0.01600
C 	C 	0.70500 0.34300 0.59060 -0.07300
C 	C 	0.62060 0.49940 0.66250 -0.02200
C 	C 	0.54690 0.24330 0.69320 -0.06000
C 	C 	0.58510 0.18850 0.71600 0.04500
H 	H 	0.55650 0.15520 0.73230 0.01200
C 	C 	0.66560 0.18300 0.71470 0.00100
H 	H 	0.69140 0.14600 0.73010 0.01400
C 	C 	0.70790 0.23220 0.69060 0.00700
C 	C 	0.66970 0.28700 0.66770 0.14800
H 	H 	0.69830 0.32030 0.65140 -0.00400
C 	C 	0.58920 0.29250 0.66900 0.07200
H 	H 	0.56340 0.32950 0.65360 0.01100
C 	C 	0.24100 0.32200 0.52240 0.00200
H 	H 	0.23360 0.36880 0.53630 0.03100
C 	C 	0.24400 0.32200 0.48180 -0.06500
H 	H 	0.24270 0.36890 0.46790 0.04400
H 	H 	0.68690 0.37260 0.67210 0.09500
H 	H 	0.66090 0.46260 0.66160 0.02200
H 	H 	0.67600 0.30360 0.60290 0.04800
H 	H 	0.69180 0.30210 0.53530 0.03100
H 	H 	0.76290 0.39990 0.50470 0.04700
H 	H 	0.81820 0.49900 0.54180 0.03100
H 	H 	0.80240 0.50050 0.60940 0.05000
H 	H 	0.62420 0.52500 0.71690 0.05100
H 	H 	0.58790 0.49310 0.60990 0.04400
C 	C 	0.59960 0.53690 0.69310 -0.04600
C 	C 	0.57920 0.51940 0.63360 -0.04600
O 	O 	0.30930 0.23970 0.60600 -0.28200
C 	C 	0.36640 0.19270 0.63310 0.15800
C 	C 	0.21820 0.18740 0.39680 -0.04000
H 	H 	0.19870 0.14440 0.41060 0.03400
C 	C 	0.18830 0.21520 0.35720 0.00200
H 	H 	0.14780 0.18990 0.34380 0.03100
O 	O 	0.07570 0.20060 0.67320 -0.50300
O 	O 	0.07470 0.30040 0.71300 -0.49100
C 	C 	0.04160 0.25010 0.69230 0.41200
C 	C 	0.95600 0.24380 0.69330 -0.03800
C 	C 	0.91250 0.30830 0.70420 -0.04500
H 	H 	0.93770 0.35400 0.71230 0.03000
C 	C 	0.83190 0.30510 0.70310 -0.07800
H 	H 	0.80250 0.34870 0.71050 0.05100
C 	C 	0.79480 0.23750 0.69110 -0.01400
C 	C 	0.83820 0.17310 0.68020 -0.23900
C 	C 	0.91890 0.17620 0.68130 -0.06400
H 	H 	0.94830 0.13260 0.67390 0.05600
P 	P 	0.79020 0.07690 0.66170 0.01900
C 	C 	0.76200 0.09800 0.61270 0.00300
C 	C 	0.71000 0.04000 0.55410 -0.02000
C 	C 	0.72000 0.04000 0.59440 -0.07000
C 	C 	0.74300 0.10000 0.53200 -0.06300
C 	C 	0.78600 0.15800 0.55030 -0.01700
C 	C 	0.79500 0.15700 0.59060 -0.07300
C 	C 	0.87940 0.00060 0.66250 -0.02100
C 	C 	0.95310 0.25670 0.69320 -0.06000
C 	C 	0.91490 0.31150 0.71600 0.04500
H 	H 	0.94350 0.34480 0.73230 0.01200
C 	C 	0.83440 0.31700 0.71470 0.00100
H 	H 	0.80860 0.35400 0.73010 0.01300
C 	C 	0.79210 0.26780 0.69060 0.00700
C 	C 	0.83030 0.21300 0.66770 0.14800
H 	H 	0.80170 0.17970 0.65140 -0.00400
C 	C 	0.91080 0.20750 0.66900 0.07100
H 	H 	0.93660 0.17050 0.65360 0.01100
C 	C 	0.25900 0.17800 0.52240 0.00200
H 	H 	0.26640 0.13120 0.53630 0.03100
C 	C 	0.25600 0.17800 0.48180 -0.06500
H 	H 	0.25730 0.13110 0.46790 0.04400
H 	H 	0.81310 0.12740 0.67210 0.09500
H 	H 	0.83910 0.03740 0.66160 0.02200
H 	H 	0.82400 0.19640 0.60290 0.04700
H 	H 	0.80820 0.19790 0.53530 0.03100
H 	H 	0.73710 0.10010 0.50470 0.04700
H 	H 	0.68180 0.00100 0.54180 0.03100
H 	H 	0.69760 0.99950 0.60940 0.05000
H 	H 	0.87580 0.97500 0.71690 0.05100
H 	H 	0.91210 0.00690 0.60990 0.04400
C 	C 	0.90040 0.96310 0.69310 -0.04600
C 	C 	0.92080 0.98060 0.63360 -0.04700
O 	O 	0.19070 0.26030 0.60600 -0.28200
C 	C 	0.13360 0.30730 0.63310 0.15800
C 	C 	0.18740 0.28180 0.89680 -0.04000
H 	H 	0.14440 0.30130 0.91060 0.03400
C 	C 	0.21520 0.31170 0.85720 0.00200
H 	H 	0.18990 0.35220 0.84380 0.03100
O 	O 	0.20060 0.42430 0.17320 -0.50300
O 	O 	0.30040 0.42530 0.21300 -0.49100
C 	C 	0.25010 0.45840 0.19230 0.41200
C 	C 	0.24380 0.54400 0.19330 -0.03800
C 	C 	0.30830 0.58750 0.20420 -0.04500
H 	H 	0.35400 0.56230 0.21230 0.03000
C 	C 	0.30510 0.66810 0.20310 -0.07800
H 	H 	0.34870 0.69750 0.21050 0.05100
C 	C 	0.23750 0.70520 0.19110 -0.01400
C 	C 	0.17310 0.66180 0.18020 -0.23900
C 	C 	0.17620 0.58110 0.18130 -0.06400
H 	H 	0.13260 0.55170 0.17390 0.05600
P 	P 	0.07690 0.70980 0.16170 0.01900
C 	C 	0.09800 0.73800 0.11270 0.00300
C 	C 	0.04000 0.79000 0.05410 -0.02000
C 	C 	0.04000 0.78000 0.09440 -0.07000
C 	C 	0.10000 0.75700 0.03200 -0.06300
C 	C 	0.15800 0.71400 0.05030 -0.01600
C 	C 	0.15700 0.70500 0.09060 -0.07300
C 	C 	0.00060 0.62060 0.16250 -0.02200
C 	C 	0.25670 0.54690 0.19320 -0.06000
C 	C 	0.31150 0.58510 0.21600 0.04500
H 	H 	0.34480 0.55650 0.23230 0.01200
C 	C 	0.31700 0.66560 0.21470 0.00100
H 	H 	0.35400 0.69140 0.23010 0.01400
C 	C 	0.26780 0.70790 0.19060 0.00700
C 	C 	0.21300 0.66970 0.16770 0.14800
H 	H 	0.17970 0.69830 0.15140 -0.00400
C 	C 	0.20750 0.58920 0.16900 0.07200
H 	H 	0.17050 0.56340 0.15360 0.01100
C 	C 	0.17800 0.24100 0.02240 0.00200
H 	H 	0.13120 0.23360 0.03630 0.03100
C 	C 	0.17800 0.24400 0.98180 -0.06500
H 	H 	0.13110 0.24270 0.96790 0.04400
H 	H 	0.12740 0.68690 0.17210 0.09500
H 	H 	0.03740 0.66090 0.16160 0.02200
H 	H 	0.19640 0.67600 0.10290 0.04800
H 	H 	0.19790 0.69180 0.03530 0.03100
H 	H 	0.10010 0.76290 0.00470 0.04700
H 	H 	0.00100 0.81820 0.04180 0.03100
H 	H 	0.99950 0.80240 0.10940 0.05000
H 	H 	0.97500 0.62420 0.21690 0.05100
H 	H 	0.00690 0.58790 0.10990 0.04300
C 	C 	0.96310 0.59960 0.19310 -0.04600
C 	C 	0.98060 0.57920 0.13360 -0.04600
O 	O 	0.26030 0.30930 0.10600 -0.28200
C 	C 	0.30730 0.36640 0.13310 0.15800
C 	C 	0.31260 0.21820 0.89680 -0.04000
H 	H 	0.35560 0.19870 0.91060 0.03400
C 	C 	0.28480 0.18830 0.85720 0.00200
H 	H 	0.31010 0.14780 0.84380 0.03100
O 	O 	0.29940 0.07570 0.17320 -0.50300
O 	O 	0.19960 0.07470 0.21300 -0.49100
C 	C 	0.24990 0.04160 0.19230 0.41200
C 	C 	0.25620 0.95600 0.19330 -0.03800
C 	C 	0.19170 0.91250 0.20420 -0.04500
H 	H 	0.14600 0.93770 0.21230 0.03000
C 	C 	0.19490 0.83190 0.20310 -0.07800
H 	H 	0.15130 0.80250 0.21050 0.05100
C 	C 	0.26250 0.79480 0.19110 -0.01400
C 	C 	0.32690 0.83820 0.18020 -0.23900
C 	C 	0.32380 0.91890 0.18130 -0.06400
H 	H 	0.36740 0.94830 0.17390 0.05600
P 	P 	0.42310 0.79020 0.16170 0.01900
C 	C 	0.40200 0.76200 0.11270 0.00300
C 	C 	0.46000 0.71000 0.05410 -0.01900
C 	C 	0.46000 0.72000 0.09440 -0.07100
C 	C 	0.40000 0.74300 0.03200 -0.06300
C 	C 	0.34200 0.78600 0.05030 -0.01600
C 	C 	0.34300 0.79500 0.09060 -0.07300
C 	C 	0.49940 0.87940 0.16250 -0.02200
C 	C 	0.24330 0.95310 0.19320 -0.06000
C 	C 	0.18850 0.91490 0.21600 0.04500
H 	H 	0.15520 0.94350 0.23230 0.01200
C 	C 	0.18300 0.83440 0.21470 0.00100
H 	H 	0.14600 0.80860 0.23010 0.01300
C 	C 	0.23220 0.79210 0.19060 0.00700
C 	C 	0.28700 0.83030 0.16770 0.14800
H 	H 	0.32030 0.80170 0.15140 -0.00400
C 	C 	0.29250 0.91080 0.16900 0.07200
H 	H 	0.32950 0.93660 0.15360 0.01100
C 	C 	0.32200 0.25900 0.02240 0.00200
H 	H 	0.36880 0.26640 0.03630 0.03100
C 	C 	0.32200 0.25600 0.98180 -0.06500
H 	H 	0.36890 0.25730 0.96790 0.04400
H 	H 	0.37260 0.81310 0.17210 0.09500
H 	H 	0.46260 0.83910 0.16160 0.02200
H 	H 	0.30360 0.82400 0.10290 0.04800
H 	H 	0.30210 0.80820 0.03530 0.03100
H 	H 	0.39990 0.73710 0.00470 0.04700
H 	H 	0.49900 0.68180 0.04180 0.03100
H 	H 	0.50050 0.69760 0.10940 0.05000
H 	H 	0.52500 0.87580 0.21690 0.05100
H 	H 	0.49310 0.91210 0.10990 0.04400
C 	C 	0.53690 0.90040 0.19310 -0.04600
C 	C 	0.51940 0.92080 0.13360 -0.04600
O 	O 	0.23970 0.19070 0.10600 -0.28200
C 	C 	0.19270 0.13360 0.13310 0.15800
C 	C 	0.28180 0.18740 0.89680 -0.04000
H 	H 	0.30130 0.14440 0.91060 0.03400
C 	C 	0.31170 0.21520 0.85720 0.00200
H 	H 	0.35220 0.18990 0.84380 0.03100
O 	O 	0.42430 0.20060 0.17320 -0.50300
O 	O 	0.42530 0.30040 0.21300 -0.49100
C 	C 	0.45840 0.25010 0.19230 0.41200
C 	C 	0.54400 0.24380 0.19330 -0.03800
C 	C 	0.58750 0.30830 0.20420 -0.04500
H 	H 	0.56230 0.35400 0.21230 0.03000
C 	C 	0.66810 0.30510 0.20310 -0.07800
H 	H 	0.69750 0.34870 0.21050 0.05100
C 	C 	0.70520 0.23750 0.19110 -0.01400
C 	C 	0.66180 0.17310 0.18020 -0.23900
C 	C 	0.58110 0.17620 0.18130 -0.06400
H 	H 	0.55170 0.13260 0.17390 0.05600
P 	P 	0.70980 0.07690 0.16170 0.01900
C 	C 	0.73800 0.09800 0.11270 0.00300
C 	C 	0.79000 0.04000 0.05410 -0.02000
C 	C 	0.78000 0.04000 0.09440 -0.07000
C 	C 	0.75700 0.10000 0.03200 -0.06300
C 	C 	0.71400 0.15800 0.05030 -0.01600
C 	C 	0.70500 0.15700 0.09060 -0.07300
C 	C 	0.62060 0.00060 0.16250 -0.02200
C 	C 	0.54690 0.25670 0.19320 -0.06000
C 	C 	0.58510 0.31150 0.21600 0.04500
H 	H 	0.55650 0.34480 0.23230 0.01200
C 	C 	0.66560 0.31700 0.21470 0.00100
H 	H 	0.69140 0.35400 0.23010 0.01400
C 	C 	0.70790 0.26780 0.19060 0.00700
C 	C 	0.66970 0.21300 0.16770 0.14800
H 	H 	0.69830 0.17970 0.15140 -0.00400
C 	C 	0.58920 0.20750 0.16900 0.07200
H 	H 	0.56340 0.17050 0.15360 0.01100
C 	C 	0.24100 0.17800 0.02240 0.00200
H 	H 	0.23360 0.13120 0.03630 0.03100
C 	C 	0.24400 0.17800 0.98180 -0.06500
H 	H 	0.24270 0.13110 0.96790 0.04400
H 	H 	0.68690 0.12740 0.17210 0.09500
H 	H 	0.66090 0.03740 0.16160 0.02200
H 	H 	0.67600 0.19640 0.10290 0.04800
H 	H 	0.69180 0.19790 0.03530 0.03100
H 	H 	0.76290 0.10010 0.00470 0.04700
H 	H 	0.81820 0.00100 0.04180 0.03100
H 	H 	0.80240 0.99950 0.10940 0.05000
H 	H 	0.62420 0.97500 0.21690 0.05100
H 	H 	0.58790 0.00690 0.10990 0.04300
C 	C 	0.59960 0.96310 0.19310 -0.04600
C 	C 	0.57920 0.98060 0.13360 -0.04600
O 	O 	0.30930 0.26030 0.10600 -0.28200
C 	C 	0.36640 0.30730 0.13310 0.15800
C 	C 	0.21820 0.31260 0.89680 -0.04000
H 	H 	0.19870 0.35560 0.91060 0.03400
C 	C 	0.18830 0.28480 0.85720 0.00200
H 	H 	0.14780 0.31010 0.84380 0.03100
O 	O 	0.07570 0.29940 0.17320 -0.50300
O 	O 	0.07470 0.19960 0.21300 -0.49100
C 	C 	0.04160 0.24990 0.19230 0.41200
C 	C 	0.95600 0.25620 0.19330 -0.03800
C 	C 	0.91250 0.19170 0.20420 -0.04500
H 	H 	0.93770 0.14600 0.21230 0.03000
C 	C 	0.83190 0.19490 0.20310 -0.07800
H 	H 	0.80250 0.15130 0.21050 0.05100
C 	C 	0.79480 0.26250 0.19110 -0.01400
C 	C 	0.83820 0.32690 0.18020 -0.23900
C 	C 	0.91890 0.32380 0.18130 -0.06400
H 	H 	0.94830 0.36740 0.17390 0.05600
P 	P 	0.79020 0.42310 0.16170 0.01900
C 	C 	0.76200 0.40200 0.11270 0.00300
C 	C 	0.71000 0.46000 0.05410 -0.01900
C 	C 	0.72000 0.46000 0.09440 -0.07100
C 	C 	0.74300 0.40000 0.03200 -0.06300
C 	C 	0.78600 0.34200 0.05030 -0.01600
C 	C 	0.79500 0.34300 0.09060 -0.07300
C 	C 	0.87940 0.49940 0.16250 -0.02200
C 	C 	0.95310 0.24330 0.19320 -0.06000
C 	C 	0.91490 0.18850 0.21600 0.04500
H 	H 	0.94350 0.15520 0.23230 0.01200
C 	C 	0.83440 0.18300 0.21470 0.00100
H 	H 	0.80860 0.14600 0.23010 0.01300
C 	C 	0.79210 0.23220 0.19060 0.00700
C 	C 	0.83030 0.28700 0.16770 0.14800
H 	H 	0.80170 0.32030 0.15140 -0.00400
C 	C 	0.91080 0.29250 0.16900 0.07200
H 	H 	0.93660 0.32950 0.15360 0.01100
C 	C 	0.25900 0.32200 0.02240 0.00200
H 	H 	0.26640 0.36880 0.03630 0.03100
C 	C 	0.25600 0.32200 0.98180 -0.06500
H 	H 	0.25730 0.36890 0.96790 0.04400
H 	H 	0.81310 0.37260 0.17210 0.09500
H 	H 	0.83910 0.46260 0.16160 0.02200
H 	H 	0.82400 0.30360 0.10290 0.04800
H 	H 	0.80820 0.30210 0.03530 0.03100
H 	H 	0.73710 0.39990 0.00470 0.04700
H 	H 	0.68180 0.49900 0.04180 0.03100
H 	H 	0.69760 0.50050 0.10940 0.05000
H 	H 	0.87580 0.52500 0.21690 0.05100
H 	H 	0.91210 0.49310 0.10990 0.04400
C 	C 	0.90040 0.53690 0.19310 -0.04600
C 	C 	0.92080 0.51940 0.13360 -0.04600
O 	O 	0.19070 0.23970 0.10600 -0.28200
C 	C 	0.13360 0.19270 0.13310 0.15800
C 	C 	0.18740 0.21820 0.39680 -0.04000
H 	H 	0.14440 0.19870 0.41060 0.03400
C 	C 	0.21520 0.18830 0.35720 0.00200
H 	H 	0.18990 0.14780 0.34380 0.03100
O 	O 	0.20060 0.07570 0.67320 -0.50300
O 	O 	0.30040 0.07470 0.71300 -0.49100
C 	C 	0.25010 0.04160 0.69230 0.41200
C 	C 	0.24380 0.95600 0.69330 -0.03800
C 	C 	0.30830 0.91250 0.70420 -0.04500
H 	H 	0.35400 0.93770 0.71230 0.03000
C 	C 	0.30510 0.83190 0.70310 -0.07800
H 	H 	0.34870 0.80250 0.71050 0.05100
C 	C 	0.23750 0.79480 0.69110 -0.01400
C 	C 	0.17310 0.83820 0.68020 -0.23900
C 	C 	0.17620 0.91890 0.68130 -0.06400
H 	H 	0.13260 0.94830 0.67390 0.05600
P 	P 	0.07690 0.79020 0.66170 0.01900
C 	C 	0.09800 0.76200 0.61270 0.00300
C 	C 	0.04000 0.71000 0.55410 -0.02000
C 	C 	0.04000 0.72000 0.59440 -0.07000
C 	C 	0.10000 0.74300 0.53200 -0.06300
C 	C 	0.15800 0.78600 0.55030 -0.01700
C 	C 	0.15700 0.79500 0.59060 -0.07300
C 	C 	0.00060 0.87940 0.66250 -0.02100
C 	C 	0.25670 0.95310 0.69320 -0.06000
C 	C 	0.31150 0.91490 0.71600 0.04500
H 	H 	0.34480 0.94350 0.73230 0.01200
C 	C 	0.31700 0.83440 0.71470 0.00100
H 	H 	0.35400 0.80860 0.73010 0.01300
C 	C 	0.26780 0.79210 0.69060 0.00700
C 	C 	0.21300 0.83030 0.66770 0.14800
H 	H 	0.17970 0.80170 0.65140 -0.00400
C 	C 	0.20750 0.91080 0.66900 0.07100
H 	H 	0.17050 0.93660 0.65360 0.01100
C 	C 	0.17800 0.25900 0.52240 0.00200
H 	H 	0.13120 0.26640 0.53630 0.03100
C 	C 	0.17800 0.25600 0.48180 -0.06500
H 	H 	0.13110 0.25730 0.46790 0.04400
H 	H 	0.12740 0.81310 0.67210 0.09500
H 	H 	0.03740 0.83910 0.66160 0.02200
H 	H 	0.19640 0.82400 0.60290 0.04700
H 	H 	0.19790 0.80820 0.53530 0.03100
H 	H 	0.10010 0.73710 0.50470 0.04700
H 	H 	0.00100 0.68180 0.54180 0.03100
H 	H 	0.99950 0.69760 0.60940 0.05000
H 	H 	0.97500 0.87580 0.71690 0.05100
H 	H 	0.00690 0.91210 0.60990 0.04400
C 	C 	0.96310 0.90040 0.69310 -0.04600
C 	C 	0.98060 0.92080 0.63360 -0.04700
O 	O 	0.26030 0.19070 0.60600 -0.28200
C 	C 	0.30730 0.13360 0.63310 0.15800
C 	C 	0.31260 0.28180 0.39680 -0.04000
H 	H 	0.35560 0.30130 0.41060 0.03400
C 	C 	0.28480 0.31170 0.35720 0.00200
H 	H 	0.31010 0.35220 0.34380 0.03100
O 	O 	0.29940 0.42430 0.67320 -0.50300
O 	O 	0.19960 0.42530 0.71300 -0.49100
C 	C 	0.24990 0.45840 0.69230 0.41200
C 	C 	0.25620 0.54400 0.69330 -0.03800
C 	C 	0.19170 0.58750 0.70420 -0.04500
H 	H 	0.14600 0.56230 0.71230 0.03000
C 	C 	0.19490 0.66810 0.70310 -0.07800
H 	H 	0.15130 0.69750 0.71050 0.05100
C 	C 	0.26250 0.70520 0.69110 -0.01400
C 	C 	0.32690 0.66180 0.68020 -0.23900
C 	C 	0.32380 0.58110 0.68130 -0.06400
H 	H 	0.36740 0.55170 0.67390 0.05600
P 	P 	0.42310 0.70980 0.66170 0.01900
C 	C 	0.40200 0.73800 0.61270 0.00300
C 	C 	0.46000 0.79000 0.55410 -0.01900
C 	C 	0.46000 0.78000 0.59440 -0.07100
C 	C 	0.40000 0.75700 0.53200 -0.06300
C 	C 	0.34200 0.71400 0.55030 -0.01600
C 	C 	0.34300 0.70500 0.59060 -0.07300
C 	C 	0.49940 0.62060 0.66250 -0.02200
C 	C 	0.24330 0.54690 0.69320 -0.06000
C 	C 	0.18850 0.58510 0.71600 0.04500
H 	H 	0.15520 0.55650 0.73230 0.01200
C 	C 	0.18300 0.66560 0.71470 0.00100
H 	H 	0.14600 0.69140 0.73010 0.01400
C 	C 	0.23220 0.70790 0.69060 0.00700
C 	C 	0.28700 0.66970 0.66770 0.14800
H 	H 	0.32030 0.69830 0.65140 -0.00400
C 	C 	0.29250 0.58920 0.66900 0.07200
H 	H 	0.32950 0.56340 0.65360 0.01100
C 	C 	0.32200 0.24100 0.52240 0.00200
H 	H 	0.36880 0.23360 0.53630 0.03100
C 	C 	0.32200 0.24400 0.48180 -0.06500
H 	H 	0.36890 0.24270 0.46790 0.04400
H 	H 	0.37260 0.68690 0.67210 0.09500
H 	H 	0.46260 0.66090 0.66160 0.02200
H 	H 	0.30360 0.67600 0.60290 0.04800
H 	H 	0.30210 0.69180 0.53530 0.03100
H 	H 	0.39990 0.76290 0.50470 0.04700
H 	H 	0.49900 0.81820 0.54180 0.03100
H 	H 	0.50050 0.80240 0.60940 0.05000
H 	H 	0.52500 0.62420 0.71690 0.05100
H 	H 	0.49310 0.58790 0.60990 0.04400
C 	C 	0.53690 0.59960 0.69310 -0.04600
C 	C 	0.51940 0.57920 0.63360 -0.04600
O 	O 	0.23970 0.30930 0.60600 -0.28200
C 	C 	0.19270 0.36640 0.63310 0.15800
Zn	Zn	0.31616 0.31616 0.65541 1.25400
O 	O 	0.29490 0.29490 0.27560 -0.51800
O 	O 	0.30580 0.30580 0.60170 -0.26100
C 	C 	0.29900 0.29900 0.52050 0.09200
H 	H 	0.33320 0.33320 0.53340 -0.00100
C 	C 	0.29640 0.29640 0.48090 -0.06200
H 	H 	0.32960 0.32960 0.46680 0.04000
Zn	Zn	0.18384 0.18384 0.65541 1.25400
O 	O 	0.20510 0.20510 0.27560 -0.51800
O 	O 	0.19420 0.19420 0.60170 -0.26100
C 	C 	0.20100 0.20100 0.52050 0.09200
H 	H 	0.16680 0.16680 0.53340 -0.00100
C 	C 	0.20360 0.20360 0.48090 -0.06200
H 	H 	0.17040 0.17040 0.46680 0.04000
Zn	Zn	0.18384 0.31616 0.15541 1.25400
O 	O 	0.20510 0.29490 0.77560 -0.51800
O 	O 	0.19420 0.30580 0.10170 -0.26100
C 	C 	0.20100 0.29900 0.02050 0.09200
H 	H 	0.16680 0.33320 0.03340 -0.00100
C 	C 	0.20360 0.29640 0.98090 -0.06100
H 	H 	0.17040 0.32960 0.96680 0.04000
Zn	Zn	0.31616 0.18384 0.15541 1.25400
O 	O 	0.29490 0.20510 0.77560 -0.51800
O 	O 	0.30580 0.19420 0.10170 -0.26100
C 	C 	0.29900 0.20100 0.02050 0.09200
H 	H 	0.33320 0.16680 0.03340 -0.00100
C 	C 	0.29640 0.20360 0.98090 -0.06100
H 	H 	0.32960 0.17040 0.96680 0.04000
Zn	Zn	0.18527 0.31473 0.72038 1.22900
C 	C 	0.31700 0.18300 0.65290 -0.44400
Zn	Zn	0.31473 0.18527 0.72038 1.22900
C 	C 	0.18300 0.31700 0.65290 -0.44400
Zn	Zn	0.18527 0.18527 0.22038 1.22900
C 	C 	0.31700 0.31700 0.15290 -0.44400
Zn	Zn	0.31473 0.31473 0.22038 1.22900
C 	C 	0.18300 0.18300 0.15290 -0.44400
C 	C 	0.25000 0.25000 0.58610 0.75000
C 	C 	0.25000 0.25000 0.54190 -0.25200
C 	C 	0.25000 0.25000 0.46100 0.08900
C 	C 	0.25000 0.25000 0.41690 -0.00600
C 	C 	0.25000 0.25000 0.33560 -0.12600
C 	C 	0.25000 0.25000 0.29290 0.42800
O 	O 	0.25000 0.25000 0.68800 -0.82500
C 	C 	0.25000 0.25000 0.08610 0.75000
C 	C 	0.25000 0.25000 0.04190 -0.25200
C 	C 	0.25000 0.25000 0.96100 0.08800
C 	C 	0.25000 0.25000 0.91690 -0.00600
C 	C 	0.25000 0.25000 0.83560 -0.12600
C 	C 	0.25000 0.25000 0.79290 0.42800
O 	O 	0.25000 0.25000 0.18800 -0.82500
C 	C 	0.71820 0.81260 0.10320 -0.04000
H 	H 	0.69870 0.85560 0.08940 0.03400
C 	C 	0.68830 0.78480 0.14280 0.00200
H 	H 	0.64780 0.81010 0.15620 0.03100
O 	O 	0.57570 0.79940 0.82680 -0.50300
O 	O 	0.57470 0.69960 0.78700 -0.49100
C 	C 	0.54160 0.74990 0.80770 0.41200
C 	C 	0.45600 0.75620 0.80670 -0.03800
C 	C 	0.41250 0.69170 0.79580 -0.04500
H 	H 	0.43770 0.64600 0.78770 0.03000
C 	C 	0.33190 0.69490 0.79690 -0.07800
H 	H 	0.30250 0.65130 0.78950 0.05100
C 	C 	0.29480 0.76250 0.80890 -0.01400
C 	C 	0.33820 0.82690 0.81980 -0.23900
C 	C 	0.41890 0.82380 0.81870 -0.06400
H 	H 	0.44830 0.86740 0.82610 0.05600
P 	P 	0.29020 0.92310 0.83830 0.01900
C 	C 	0.26200 0.90200 0.88730 0.00300
C 	C 	0.21000 0.96000 0.94590 -0.02000
C 	C 	0.22000 0.96000 0.90560 -0.07000
C 	C 	0.24300 0.90000 0.96800 -0.06300
C 	C 	0.28600 0.84200 0.94970 -0.01600
C 	C 	0.29500 0.84300 0.90940 -0.07300
C 	C 	0.37940 0.99940 0.83750 -0.02200
C 	C 	0.45310 0.74330 0.80680 -0.06000
C 	C 	0.41490 0.68850 0.78400 0.04500
H 	H 	0.44350 0.65520 0.76770 0.01200
C 	C 	0.33440 0.68300 0.78530 0.00100
H 	H 	0.30860 0.64600 0.76990 0.01400
C 	C 	0.29210 0.73220 0.80940 0.00700
C 	C 	0.33030 0.78700 0.83230 0.14800
H 	H 	0.30170 0.82030 0.84860 -0.00400
C 	C 	0.41080 0.79250 0.83100 0.07200
H 	H 	0.43660 0.82950 0.84640 0.01100
C 	C 	0.75900 0.82200 0.97760 0.00200
H 	H 	0.76640 0.86880 0.96370 0.03100
C 	C 	0.75600 0.82200 0.01820 -0.06500
H 	H 	0.75730 0.86890 0.03210 0.04400
H 	H 	0.31310 0.87260 0.82790 0.09500
H 	H 	0.33910 0.96260 0.83840 0.02200
H 	H 	0.32400 0.80360 0.89710 0.04800
H 	H 	0.30820 0.80210 0.96470 0.03100
H 	H 	0.23710 0.89990 0.99530 0.04700
H 	H 	0.18180 0.99900 0.95820 0.03100
H 	H 	0.19760 0.00050 0.89060 0.05000
H 	H 	0.37580 0.02500 0.78310 0.05100
H 	H 	0.41210 0.99310 0.89010 0.04300
C 	C 	0.40040 0.03690 0.80690 -0.04600
C 	C 	0.42080 0.01940 0.86640 -0.04600
O 	O 	0.69070 0.73970 0.89400 -0.28200
C 	C 	0.63360 0.69270 0.86690 0.15800
C 	C 	0.78180 0.68740 0.10320 -0.04000
H 	H 	0.80130 0.64440 0.08940 0.03400
C 	C 	0.81170 0.71520 0.14280 0.00200
H 	H 	0.85220 0.68990 0.15620 0.03100
O 	O 	0.92430 0.70060 0.82680 -0.50300
O 	O 	0.92530 0.80040 0.78700 -0.49100
C 	C 	0.95840 0.75010 0.80770 0.41200
C 	C 	0.04400 0.74380 0.80670 -0.03800
C 	C 	0.08750 0.80830 0.79580 -0.04500
H 	H 	0.06230 0.85400 0.78770 0.03000
C 	C 	0.16810 0.80510 0.79690 -0.07800
H 	H 	0.19750 0.84870 0.78950 0.05100
C 	C 	0.20520 0.73750 0.80890 -0.01400
C 	C 	0.16180 0.67310 0.81980 -0.23900
C 	C 	0.08110 0.67620 0.81870 -0.06400
H 	H 	0.05170 0.63260 0.82610 0.05600
P 	P 	0.20980 0.57690 0.83830 0.01900
C 	C 	0.23800 0.59800 0.88730 0.00300
C 	C 	0.29000 0.54000 0.94590 -0.01900
C 	C 	0.28000 0.54000 0.90560 -0.07100
C 	C 	0.25700 0.60000 0.96800 -0.06300
C 	C 	0.21400 0.65800 0.94970 -0.01600
C 	C 	0.20500 0.65700 0.90940 -0.07300
C 	C 	0.12060 0.50060 0.83750 -0.02200
C 	C 	0.04690 0.75670 0.80680 -0.06000
C 	C 	0.08510 0.81150 0.78400 0.04500
H 	H 	0.05650 0.84480 0.76770 0.01200
C 	C 	0.16560 0.81700 0.78530 0.00100
H 	H 	0.19140 0.85400 0.76990 0.01300
C 	C 	0.20790 0.76780 0.80940 0.00700
C 	C 	0.16970 0.71300 0.83230 0.14800
H 	H 	0.19830 0.67970 0.84860 -0.00400
C 	C 	0.08920 0.70750 0.83100 0.07200
H 	H 	0.06340 0.67050 0.84640 0.01100
C 	C 	0.74100 0.67800 0.97760 0.00200
H 	H 	0.73360 0.63120 0.96370 0.03100
C 	C 	0.74400 0.67800 0.01820 -0.06500
H 	H 	0.74270 0.63110 0.03210 0.04400
H 	H 	0.18690 0.62740 0.82790 0.09500
H 	H 	0.16090 0.53740 0.83840 0.02200
H 	H 	0.17600 0.69640 0.89710 0.04800
H 	H 	0.19180 0.69790 0.96470 0.03100
H 	H 	0.26290 0.60010 0.99530 0.04700
H 	H 	0.31820 0.50100 0.95820 0.03100
H 	H 	0.30240 0.49950 0.89060 0.05000
H 	H 	0.12420 0.47500 0.78310 0.05100
H 	H 	0.08790 0.50690 0.89010 0.04400
C 	C 	0.09960 0.46310 0.80690 -0.04600
C 	C 	0.07920 0.48060 0.86640 -0.04600
O 	O 	0.80930 0.76030 0.89400 -0.28200
C 	C 	0.86640 0.80730 0.86690 0.15800
C 	C 	0.81260 0.78180 0.60320 -0.04000
H 	H 	0.85560 0.80130 0.58940 0.03400
C 	C 	0.78480 0.81170 0.64280 0.00200
H 	H 	0.81010 0.85220 0.65620 0.03100
O 	O 	0.79940 0.92430 0.32680 -0.50300
O 	O 	0.69960 0.92530 0.28700 -0.49100
C 	C 	0.74990 0.95840 0.30770 0.41200
C 	C 	0.75620 0.04400 0.30670 -0.03800
C 	C 	0.69170 0.08750 0.29580 -0.04500
H 	H 	0.64600 0.06230 0.28770 0.03000
C 	C 	0.69490 0.16810 0.29690 -0.07800
H 	H 	0.65130 0.19750 0.28950 0.05100
C 	C 	0.76250 0.20520 0.30890 -0.01400
C 	C 	0.82690 0.16180 0.31980 -0.23900
C 	C 	0.82380 0.08110 0.31870 -0.06400
H 	H 	0.86740 0.05170 0.32610 0.05600
P 	P 	0.92310 0.20980 0.33830 0.01900
C 	C 	0.90200 0.23800 0.38730 0.00300
C 	C 	0.96000 0.29000 0.44590 -0.02000
C 	C 	0.96000 0.28000 0.40560 -0.07000
C 	C 	0.90000 0.25700 0.46800 -0.06300
C 	C 	0.84200 0.21400 0.44970 -0.01700
C 	C 	0.84300 0.20500 0.40940 -0.07300
C 	C 	0.99940 0.12060 0.33750 -0.02100
C 	C 	0.74330 0.04690 0.30680 -0.06000
C 	C 	0.68850 0.08510 0.28400 0.04500
H 	H 	0.65520 0.05650 0.26770 0.01200
C 	C 	0.68300 0.16560 0.28530 0.00100
H 	H 	0.64600 0.19140 0.26990 0.01300
C 	C 	0.73220 0.20790 0.30940 0.00700
C 	C 	0.78700 0.16970 0.33230 0.14800
H 	H 	0.82030 0.19830 0.34860 -0.00400
C 	C 	0.79250 0.08920 0.33100 0.07100
H 	H 	0.82950 0.06340 0.34640 0.01100
C 	C 	0.82200 0.74100 0.47760 0.00200
H 	H 	0.86880 0.73360 0.46370 0.03100
C 	C 	0.82200 0.74400 0.51820 -0.06500
H 	H 	0.86890 0.74270 0.53210 0.04400
H 	H 	0.87260 0.18690 0.32790 0.09500
H 	H 	0.96260 0.16090 0.33840 0.02200
H 	H 	0.80360 0.17600 0.39710 0.04700
H 	H 	0.80210 0.19180 0.46470 0.03100
H 	H 	0.89990 0.26290 0.49530 0.04700
H 	H 	0.99900 0.31820 0.45820 0.03100
H 	H 	0.00050 0.30240 0.39060 0.05000
H 	H 	0.02500 0.12420 0.28310 0.05100
H 	H 	0.99310 0.08790 0.39010 0.04400
C 	C 	0.03690 0.09960 0.30690 -0.04600
C 	C 	0.01940 0.07920 0.36640 -0.04700
O 	O 	0.73970 0.80930 0.39400 -0.28200
C 	C 	0.69270 0.86640 0.36690 0.15800
C 	C 	0.68740 0.71820 0.60320 -0.04000
H 	H 	0.64440 0.69870 0.58940 0.03400
C 	C 	0.71520 0.68830 0.64280 0.00200
H 	H 	0.68990 0.64780 0.65620 0.03100
O 	O 	0.70060 0.57570 0.32680 -0.50300
O 	O 	0.80040 0.57470 0.28700 -0.49100
C 	C 	0.75010 0.54160 0.30770 0.41200
C 	C 	0.74380 0.45600 0.30670 -0.03800
C 	C 	0.80830 0.41250 0.29580 -0.04500
H 	H 	0.85400 0.43770 0.28770 0.03000
C 	C 	0.80510 0.33190 0.29690 -0.07800
H 	H 	0.84870 0.30250 0.28950 0.05100
C 	C 	0.73750 0.29480 0.30890 -0.01400
C 	C 	0.67310 0.33820 0.31980 -0.23900
C 	C 	0.67620 0.41890 0.31870 -0.06400
H 	H 	0.63260 0.44830 0.32610 0.05600
P 	P 	0.57690 0.29020 0.33830 0.01900
C 	C 	0.59800 0.26200 0.38730 0.00300
C 	C 	0.54000 0.21000 0.44590 -0.01900
C 	C 	0.54000 0.22000 0.40560 -0.07100
C 	C 	0.60000 0.24300 0.46800 -0.06300
C 	C 	0.65800 0.28600 0.44970 -0.01600
C 	C 	0.65700 0.29500 0.40940 -0.07300
C 	C 	0.50060 0.37940 0.33750 -0.02200
C 	C 	0.75670 0.45310 0.30680 -0.06000
C 	C 	0.81150 0.41490 0.28400 0.04500
H 	H 	0.84480 0.44350 0.26770 0.01200
C 	C 	0.81700 0.33440 0.28530 0.00100
H 	H 	0.85400 0.30860 0.26990 0.01400
C 	C 	0.76780 0.29210 0.30940 0.00700
C 	C 	0.71300 0.33030 0.33230 0.14800
H 	H 	0.67970 0.30170 0.34860 -0.00400
C 	C 	0.70750 0.41080 0.33100 0.07200
H 	H 	0.67050 0.43660 0.34640 0.01100
C 	C 	0.67800 0.75900 0.47760 0.00200
H 	H 	0.63120 0.76640 0.46370 0.03100
C 	C 	0.67800 0.75600 0.51820 -0.06500
H 	H 	0.63110 0.75730 0.53210 0.04400
H 	H 	0.62740 0.31310 0.32790 0.09500
H 	H 	0.53740 0.33910 0.33840 0.02200
H 	H 	0.69640 0.32400 0.39710 0.04800
H 	H 	0.69790 0.30820 0.46470 0.03100
H 	H 	0.60010 0.23710 0.49530 0.04700
H 	H 	0.50100 0.18180 0.45820 0.03100
H 	H 	0.49950 0.19760 0.39060 0.05000
H 	H 	0.47500 0.37580 0.28310 0.05100
H 	H 	0.50690 0.41210 0.39010 0.04400
C 	C 	0.46310 0.40040 0.30690 -0.04600
C 	C 	0.48060 0.42080 0.36640 -0.04600
O 	O 	0.76030 0.69070 0.39400 -0.28200
C 	C 	0.80730 0.63360 0.36690 0.15800
C 	C 	0.71820 0.68740 0.60320 -0.04000
H 	H 	0.69870 0.64440 0.58940 0.03400
C 	C 	0.68830 0.71520 0.64280 0.00200
H 	H 	0.64780 0.68990 0.65620 0.03100
O 	O 	0.57570 0.70060 0.32680 -0.50300
O 	O 	0.57470 0.80040 0.28700 -0.49100
C 	C 	0.54160 0.75010 0.30770 0.41200
C 	C 	0.45600 0.74380 0.30670 -0.03800
C 	C 	0.41250 0.80830 0.29580 -0.04500
H 	H 	0.43770 0.85400 0.28770 0.03000
C 	C 	0.33190 0.80510 0.29690 -0.07800
H 	H 	0.30250 0.84870 0.28950 0.05100
C 	C 	0.29480 0.73750 0.30890 -0.01400
C 	C 	0.33820 0.67310 0.31980 -0.23900
C 	C 	0.41890 0.67620 0.31870 -0.06400
H 	H 	0.44830 0.63260 0.32610 0.05600
P 	P 	0.29020 0.57690 0.33830 0.01900
C 	C 	0.26200 0.59800 0.38730 0.00300
C 	C 	0.21000 0.54000 0.44590 -0.01900
C 	C 	0.22000 0.54000 0.40560 -0.07100
C 	C 	0.24300 0.60000 0.46800 -0.06300
C 	C 	0.28600 0.65800 0.44970 -0.01600
C 	C 	0.29500 0.65700 0.40940 -0.07300
C 	C 	0.37940 0.50060 0.33750 -0.02200
C 	C 	0.45310 0.75670 0.30680 -0.06000
C 	C 	0.41490 0.81150 0.28400 0.04500
H 	H 	0.44350 0.84480 0.26770 0.01200
C 	C 	0.33440 0.81700 0.28530 0.00100
H 	H 	0.30860 0.85400 0.26990 0.01400
C 	C 	0.29210 0.76780 0.30940 0.00700
C 	C 	0.33030 0.71300 0.33230 0.14800
H 	H 	0.30170 0.67970 0.34860 -0.00400
C 	C 	0.41080 0.70750 0.33100 0.07200
H 	H 	0.43660 0.67050 0.34640 0.01100
C 	C 	0.75900 0.67800 0.47760 0.00200
H 	H 	0.76640 0.63120 0.46370 0.03100
C 	C 	0.75600 0.67800 0.51820 -0.06500
H 	H 	0.75730 0.63110 0.53210 0.04400
H 	H 	0.31310 0.62740 0.32790 0.09500
H 	H 	0.33910 0.53740 0.33840 0.02200
H 	H 	0.32400 0.69640 0.39710 0.04800
H 	H 	0.30820 0.69790 0.46470 0.03100
H 	H 	0.23710 0.60010 0.49530 0.04700
H 	H 	0.18180 0.50100 0.45820 0.03100
H 	H 	0.19760 0.49950 0.39060 0.05000
H 	H 	0.37580 0.47500 0.28310 0.05100
H 	H 	0.41210 0.50690 0.39010 0.04400
C 	C 	0.40040 0.46310 0.30690 -0.04600
C 	C 	0.42080 0.48060 0.36640 -0.04600
O 	O 	0.69070 0.76030 0.39400 -0.28200
C 	C 	0.63360 0.80730 0.36690 0.15800
C 	C 	0.78180 0.81260 0.60320 -0.04000
H 	H 	0.80130 0.85560 0.58940 0.03400
C 	C 	0.81170 0.78480 0.64280 0.00200
H 	H 	0.85220 0.81010 0.65620 0.03100
O 	O 	0.92430 0.79940 0.32680 -0.50300
O 	O 	0.92530 0.69960 0.28700 -0.49100
C 	C 	0.95840 0.74990 0.30770 0.41200
C 	C 	0.04400 0.75620 0.30670 -0.03800
C 	C 	0.08750 0.69170 0.29580 -0.04500
H 	H 	0.06230 0.64600 0.28770 0.03000
C 	C 	0.16810 0.69490 0.29690 -0.07800
H 	H 	0.19750 0.65130 0.28950 0.05100
C 	C 	0.20520 0.76250 0.30890 -0.01400
C 	C 	0.16180 0.82690 0.31980 -0.23900
C 	C 	0.08110 0.82380 0.31870 -0.06400
H 	H 	0.05170 0.86740 0.32610 0.05600
P 	P 	0.20980 0.92310 0.33830 0.01900
C 	C 	0.23800 0.90200 0.38730 0.00300
C 	C 	0.29000 0.96000 0.44590 -0.02000
C 	C 	0.28000 0.96000 0.40560 -0.07000
C 	C 	0.25700 0.90000 0.46800 -0.06300
C 	C 	0.21400 0.84200 0.44970 -0.01700
C 	C 	0.20500 0.84300 0.40940 -0.07300
C 	C 	0.12060 0.99940 0.33750 -0.02100
C 	C 	0.04690 0.74330 0.30680 -0.06000
C 	C 	0.08510 0.68850 0.28400 0.04500
H 	H 	0.05650 0.65520 0.26770 0.01200
C 	C 	0.16560 0.68300 0.28530 0.00100
H 	H 	0.19140 0.64600 0.26990 0.01300
C 	C 	0.20790 0.73220 0.30940 0.00700
C 	C 	0.16970 0.78700 0.33230 0.14800
H 	H 	0.19830 0.82030 0.34860 -0.00400
C 	C 	0.08920 0.79250 0.33100 0.07100
H 	H 	0.06340 0.82950 0.34640 0.01100
C 	C 	0.74100 0.82200 0.47760 0.00200
H 	H 	0.73360 0.86880 0.46370 0.03100
C 	C 	0.74400 0.82200 0.51820 -0.06500
H 	H 	0.74270 0.86890 0.53210 0.04400
H 	H 	0.18690 0.87260 0.32790 0.09500
H 	H 	0.16090 0.96260 0.33840 0.02200
H 	H 	0.17600 0.80360 0.39710 0.04700
H 	H 	0.19180 0.80210 0.46470 0.03100
H 	H 	0.26290 0.89990 0.49530 0.04700
H 	H 	0.31820 0.99900 0.45820 0.03100
H 	H 	0.30240 0.00050 0.39060 0.05000
H 	H 	0.12420 0.02500 0.28310 0.05100
H 	H 	0.08790 0.99310 0.39010 0.04400
C 	C 	0.09960 0.03690 0.30690 -0.04600
C 	C 	0.07920 0.01940 0.36640 -0.04700
O 	O 	0.80930 0.73970 0.39400 -0.28200
C 	C 	0.86640 0.69270 0.36690 0.15800
C 	C 	0.81260 0.71820 0.10320 -0.04000
H 	H 	0.85560 0.69870 0.08940 0.03400
C 	C 	0.78480 0.68830 0.14280 0.00200
H 	H 	0.81010 0.64780 0.15620 0.03100
O 	O 	0.79940 0.57570 0.82680 -0.50300
O 	O 	0.69960 0.57470 0.78700 -0.49100
C 	C 	0.74990 0.54160 0.80770 0.41200
C 	C 	0.75620 0.45600 0.80670 -0.03800
C 	C 	0.69170 0.41250 0.79580 -0.04500
H 	H 	0.64600 0.43770 0.78770 0.03000
C 	C 	0.69490 0.33190 0.79690 -0.07800
H 	H 	0.65130 0.30250 0.78950 0.05100
C 	C 	0.76250 0.29480 0.80890 -0.01400
C 	C 	0.82690 0.33820 0.81980 -0.23900
C 	C 	0.82380 0.41890 0.81870 -0.06400
H 	H 	0.86740 0.44830 0.82610 0.05600
P 	P 	0.92310 0.29020 0.83830 0.01900
C 	C 	0.90200 0.26200 0.88730 0.00300
C 	C 	0.96000 0.21000 0.94590 -0.02000
C 	C 	0.96000 0.22000 0.90560 -0.07000
C 	C 	0.90000 0.24300 0.96800 -0.06300
C 	C 	0.84200 0.28600 0.94970 -0.01600
C 	C 	0.84300 0.29500 0.90940 -0.07300
C 	C 	0.99940 0.37940 0.83750 -0.02200
C 	C 	0.74330 0.45310 0.80680 -0.06000
C 	C 	0.68850 0.41490 0.78400 0.04500
H 	H 	0.65520 0.44350 0.76770 0.01200
C 	C 	0.68300 0.33440 0.78530 0.00100
H 	H 	0.64600 0.30860 0.76990 0.01400
C 	C 	0.73220 0.29210 0.80940 0.00700
C 	C 	0.78700 0.33030 0.83230 0.14800
H 	H 	0.82030 0.30170 0.84860 -0.00400
C 	C 	0.79250 0.41080 0.83100 0.07200
H 	H 	0.82950 0.43660 0.84640 0.01100
C 	C 	0.82200 0.75900 0.97760 0.00200
H 	H 	0.86880 0.76640 0.96370 0.03100
C 	C 	0.82200 0.75600 0.01820 -0.06500
H 	H 	0.86890 0.75730 0.03210 0.04400
H 	H 	0.87260 0.31310 0.82790 0.09500
H 	H 	0.96260 0.33910 0.83840 0.02200
H 	H 	0.80360 0.32400 0.89710 0.04800
H 	H 	0.80210 0.30820 0.96470 0.03100
H 	H 	0.89990 0.23710 0.99530 0.04700
H 	H 	0.99900 0.18180 0.95820 0.03100
H 	H 	0.00050 0.19760 0.89060 0.05000
H 	H 	0.02500 0.37580 0.78310 0.05100
H 	H 	0.99310 0.41210 0.89010 0.04300
C 	C 	0.03690 0.40040 0.80690 -0.04600
C 	C 	0.01940 0.42080 0.86640 -0.04600
O 	O 	0.73970 0.69070 0.89400 -0.28200
C 	C 	0.69270 0.63360 0.86690 0.15800
C 	C 	0.68740 0.78180 0.10320 -0.04000
H 	H 	0.64440 0.80130 0.08940 0.03400
C 	C 	0.71520 0.81170 0.14280 0.00200
H 	H 	0.68990 0.85220 0.15620 0.03100
O 	O 	0.70060 0.92430 0.82680 -0.50300
O 	O 	0.80040 0.92530 0.78700 -0.49100
C 	C 	0.75010 0.95840 0.80770 0.41200
C 	C 	0.74380 0.04400 0.80670 -0.03800
C 	C 	0.80830 0.08750 0.79580 -0.04500
H 	H 	0.85400 0.06230 0.78770 0.03000
C 	C 	0.80510 0.16810 0.79690 -0.07800
H 	H 	0.84870 0.19750 0.78950 0.05100
C 	C 	0.73750 0.20520 0.80890 -0.01400
C 	C 	0.67310 0.16180 0.81980 -0.23900
C 	C 	0.67620 0.08110 0.81870 -0.06400
H 	H 	0.63260 0.05170 0.82610 0.05600
P 	P 	0.57690 0.20980 0.83830 0.01900
C 	C 	0.59800 0.23800 0.88730 0.00300
C 	C 	0.54000 0.29000 0.94590 -0.01900
C 	C 	0.54000 0.28000 0.90560 -0.07100
C 	C 	0.60000 0.25700 0.96800 -0.06300
C 	C 	0.65800 0.21400 0.94970 -0.01600
C 	C 	0.65700 0.20500 0.90940 -0.07300
C 	C 	0.50060 0.12060 0.83750 -0.02200
C 	C 	0.75670 0.04690 0.80680 -0.06000
C 	C 	0.81150 0.08510 0.78400 0.04500
H 	H 	0.84480 0.05650 0.76770 0.01200
C 	C 	0.81700 0.16560 0.78530 0.00100
H 	H 	0.85400 0.19140 0.76990 0.01300
C 	C 	0.76780 0.20790 0.80940 0.00700
C 	C 	0.71300 0.16970 0.83230 0.14800
H 	H 	0.67970 0.19830 0.84860 -0.00400
C 	C 	0.70750 0.08920 0.83100 0.07200
H 	H 	0.67050 0.06340 0.84640 0.01100
C 	C 	0.67800 0.74100 0.97760 0.00200
H 	H 	0.63120 0.73360 0.96370 0.03100
C 	C 	0.67800 0.74400 0.01820 -0.06500
H 	H 	0.63110 0.74270 0.03210 0.04400
H 	H 	0.62740 0.18690 0.82790 0.09500
H 	H 	0.53740 0.16090 0.83840 0.02200
H 	H 	0.69640 0.17600 0.89710 0.04800
H 	H 	0.69790 0.19180 0.96470 0.03100
H 	H 	0.60010 0.26290 0.99530 0.04700
H 	H 	0.50100 0.31820 0.95820 0.03100
H 	H 	0.49950 0.30240 0.89060 0.05000
H 	H 	0.47500 0.12420 0.78310 0.05100
H 	H 	0.50690 0.08790 0.89010 0.04400
C 	C 	0.46310 0.09960 0.80690 -0.04600
C 	C 	0.48060 0.07920 0.86640 -0.04600
O 	O 	0.76030 0.80930 0.89400 -0.28200
C 	C 	0.80730 0.86640 0.86690 0.15800
Zn	Zn	0.68384 0.81616 0.84459 1.25400
O 	O 	0.70510 0.79490 0.22440 -0.51800
O 	O 	0.69420 0.80580 0.89830 -0.26100
C 	C 	0.70100 0.79900 0.97950 0.09200
H 	H 	0.66680 0.83320 0.96660 -0.00100
C 	C 	0.70360 0.79640 0.01910 -0.06100
H 	H 	0.67040 0.82960 0.03320 0.04000
Zn	Zn	0.81616 0.68384 0.84459 1.25400
O 	O 	0.79490 0.70510 0.22440 -0.51800
O 	O 	0.80580 0.69420 0.89830 -0.26100
C 	C 	0.79900 0.70100 0.97950 0.09200
H 	H 	0.83320 0.66680 0.96660 -0.00100
C 	C 	0.79640 0.70360 0.01910 -0.06100
H 	H 	0.82960 0.67040 0.03320 0.04000
Zn	Zn	0.81616 0.81616 0.34459 1.25400
O 	O 	0.79490 0.79490 0.72440 -0.51800
O 	O 	0.80580 0.80580 0.39830 -0.26100
C 	C 	0.79900 0.79900 0.47950 0.09200
H 	H 	0.83320 0.83320 0.46660 -0.00100
C 	C 	0.79640 0.79640 0.51910 -0.06200
H 	H 	0.82960 0.82960 0.53320 0.04000
Zn	Zn	0.68384 0.68384 0.34459 1.25400
O 	O 	0.70510 0.70510 0.72440 -0.51800
O 	O 	0.69420 0.69420 0.39830 -0.26100
C 	C 	0.70100 0.70100 0.47950 0.09200
H 	H 	0.66680 0.66680 0.46660 -0.00100
C 	C 	0.70360 0.70360 0.51910 -0.06200
H 	H 	0.67040 0.67040 0.53320 0.04000
Zn	Zn	0.81473 0.81473 0.77962 1.22900
C 	C 	0.68300 0.68300 0.84710 -0.44400
Zn	Zn	0.68527 0.68527 0.77962 1.22900
C 	C 	0.81700 0.81700 0.84710 -0.44400
Zn	Zn	0.81473 0.68527 0.27962 1.22900
C 	C 	0.68300 0.81700 0.34710 -0.44400
Zn	Zn	0.68527 0.81473 0.27962 1.22900
C 	C 	0.81700 0.68300 0.34710 -0.44400
C 	C 	0.75000 0.75000 0.91390 0.75000
C 	C 	0.75000 0.75000 0.95810 -0.25200
C 	C 	0.75000 0.75000 0.03900 0.08800
C 	C 	0.75000 0.75000 0.08310 -0.00600
C 	C 	0.75000 0.75000 0.16440 -0.12600
C 	C 	0.75000 0.75000 0.20710 0.42800
O 	O 	0.75000 0.75000 0.81200 -0.82500
C 	C 	0.75000 0.75000 0.41390 0.75000
C 	C 	0.75000 0.75000 0.45810 -0.25200
C 	C 	0.75000 0.75000 0.53900 0.08900
C 	C 	0.75000 0.75000 0.58310 -0.00600
C 	C 	0.75000 0.75000 0.66440 -0.12600
C 	C 	0.75000 0.75000 0.70710 0.42800
O 	O 	0.75000 0.75000 0.31200 -0.82500
