data_crystal

_cell_length_a 16.55700
_cell_length_b 18.31100
_cell_length_c 11.93490
_cell_angle_alpha 90.00000
_cell_angle_beta  123.09600
_cell_angle_gamma 90.00000

_symmetry_space_group_name_	'P 1'
_symmetry_space_group_name_H-M	'P 1'

loop_
_symmetry_equiv_pos_as_xyz
  x,y,z

loop_
_atom_site_label
_atom_site_type_symbol
_atom_site_fract_x
_atom_site_fract_y
_atom_site_fract_z
_atom_site_charge
O 	O 	0.08439 0.37990 0.38200 -0.45000
O 	O 	0.22040 0.34318 0.56860 -0.35200
O 	O 	0.08595 0.70228 0.67610 -0.59600
O 	O 	0.23762 0.68646 0.84720 -0.56700
O 	O 	0.09758 0.22253 0.38830 -0.45100
N 	N 	0.06980 0.16090 0.41870 0.00800
C 	C 	0.16270 0.46400 0.55810 1.09500
C 	C 	0.23190 0.47850 0.69060 -1.16100
H 	H 	0.27100 0.44300 0.74500 0.46700
C 	C 	0.23500 0.54550 0.74500 1.01700
H 	H 	0.28100 0.55400 0.84200 -0.26300
C 	C 	0.16850 0.59910 0.67090 -1.29800
C 	C 	0.10010 0.58420 0.53830 2.40900
H 	H 	0.07300 0.61900 0.49900 -1.06800
C 	C 	0.09810 0.51760 0.48400 -2.25300
H 	H 	0.06800 0.50700 0.40400 0.96500
C 	C 	0.15470 0.39000 0.49820 -0.01600
C 	C 	0.16420 0.66790 0.73600 0.83500
C 	C 	0.09600 0.09680 0.39520 -0.01800
H 	H 	0.14400 0.10000 0.37000 0.05000
C 	C 	0.06780 0.03310 0.42440 0.09400
H 	H 	0.09000 0.99100 0.41200 -0.00000
C 	C 	0.01390 0.03450 0.48130 -0.21800
C 	C 	0.98870 0.10220 0.50260 0.19000
H 	H 	0.95100 0.11100 0.53900 -0.03300
C 	C 	0.01600 0.16500 0.47150 -0.16700
H 	H 	0.99500 0.21900 0.47700 0.14800
O 	O 	0.58439 0.87990 0.38200 -0.38600
O 	O 	0.72040 0.84318 0.56860 -0.23700
O 	O 	0.58595 0.20228 0.67610 -0.70500
O 	O 	0.73762 0.18646 0.84720 -0.70100
O 	O 	0.59758 0.72253 0.38830 -0.43300
N 	N 	0.56980 0.66090 0.41870 -0.04200
C 	C 	0.66270 0.96400 0.55810 2.36800
C 	C 	0.73190 0.97850 0.69060 -2.37000
H 	H 	0.77100 0.94300 0.74500 0.90700
C 	C 	0.73500 0.04550 0.74500 2.10700
H 	H 	0.78100 0.05400 0.84200 -0.61900
C 	C 	0.66850 0.09910 0.67090 -2.63100
C 	C 	0.60010 0.08420 0.53830 5.08700
H 	H 	0.57300 0.11900 0.49900 -2.30300
C 	C 	0.59810 0.01760 0.48400 -4.67300
H 	H 	0.56800 0.00700 0.40400 1.95500
C 	C 	0.65470 0.89000 0.49820 -0.47000
C 	C 	0.66420 0.16790 0.73600 1.33000
C 	C 	0.59600 0.59680 0.39520 0.06000
H 	H 	0.64400 0.60000 0.37000 0.03300
C 	C 	0.56780 0.53310 0.42440 -0.09400
H 	H 	0.59000 0.49100 0.41200 0.07500
C 	C 	0.51390 0.53450 0.48130 0.04300
C 	C 	0.48870 0.60220 0.50260 -0.09000
H 	H 	0.45100 0.61100 0.53900 0.07200
C 	C 	0.51600 0.66500 0.47150 0.03800
H 	H 	0.49500 0.71900 0.47700 0.09300
O 	O 	0.91561 0.37990 0.11800 -0.31800
O 	O 	0.77960 0.34318 0.93140 -0.28400
O 	O 	0.91405 0.70228 0.82390 -0.67900
O 	O 	0.76238 0.68646 0.65280 -0.67200
O 	O 	0.90242 0.22253 0.11170 -0.42000
N 	N 	0.93020 0.16090 0.08130 -0.10500
C 	C 	0.83730 0.46400 0.94190 2.24000
C 	C 	0.76810 0.47850 0.80940 -2.25800
H 	H 	0.72900 0.44300 0.75500 0.86400
C 	C 	0.76500 0.54550 0.75500 2.02500
H 	H 	0.71900 0.55400 0.65800 -0.56800
C 	C 	0.83150 0.59910 0.82910 -2.48500
C 	C 	0.89990 0.58420 0.96170 4.83800
H 	H 	0.92700 0.61900 0.00100 -2.17700
C 	C 	0.90190 0.51760 0.01600 -4.43200
H 	H 	0.93200 0.50700 0.09600 1.92300
C 	C 	0.84530 0.39000 0.00180 -0.40300
C 	C 	0.83580 0.66790 0.76400 1.29200
C 	C 	0.90400 0.09680 0.10480 0.14400
H 	H 	0.85600 0.10000 0.13000 -0.02500
C 	C 	0.93220 0.03310 0.07560 -0.16200
H 	H 	0.91000 0.99100 0.08800 0.06400
C 	C 	0.98610 0.03450 0.01870 0.34600
C 	C 	0.01130 0.10220 0.99740 -0.51500
H 	H 	0.04900 0.11100 0.96100 0.18900
C 	C 	0.98400 0.16500 0.02850 0.35300
H 	H 	0.00500 0.21900 0.02300 -0.03100
O 	O 	0.41561 0.87990 0.11800 -0.05900
O 	O 	0.27960 0.84318 0.93140 0.09500
O 	O 	0.41405 0.20228 0.82390 -0.98800
O 	O 	0.26238 0.18646 0.65280 -0.98600
O 	O 	0.40242 0.72253 0.11170 -0.43600
N 	N 	0.43020 0.66090 0.08130 -0.03900
C 	C 	0.33730 0.96400 0.94190 5.73300
C 	C 	0.26810 0.97850 0.80940 -5.49200
H 	H 	0.22900 0.94300 0.75500 2.03300
C 	C 	0.26500 0.04550 0.75500 4.90300
H 	H 	0.21900 0.05400 0.65800 -1.45300
C 	C 	0.33150 0.09910 0.82910 -5.93300
C 	C 	0.39990 0.08420 0.96170 11.75800
H 	H 	0.42700 0.11900 0.00100 -5.36400
C 	C 	0.40190 0.01760 0.01600 -10.83200
H 	H 	0.43200 0.00700 0.09600 4.60700
C 	C 	0.34530 0.89000 0.00180 -1.79800
C 	C 	0.33580 0.16790 0.76400 2.58000
C 	C 	0.40400 0.59680 0.10480 0.04700
H 	H 	0.35600 0.60000 0.13000 0.02100
C 	C 	0.43220 0.53310 0.07560 -0.10300
H 	H 	0.41000 0.49100 0.08800 0.07800
C 	C 	0.48610 0.53450 0.01870 0.03600
C 	C 	0.51130 0.60220 0.99740 -0.05200
H 	H 	0.54900 0.61100 0.96100 0.07300
C 	C 	0.48400 0.66500 0.02850 0.00400
H 	H 	0.50500 0.71900 0.02300 0.14500
O 	O 	0.91561 0.62010 0.61800 -0.43400
O 	O 	0.77960 0.65682 0.43140 -0.35900
O 	O 	0.91405 0.29772 0.32390 -0.56500
O 	O 	0.76238 0.31354 0.15280 -0.54700
O 	O 	0.90242 0.77747 0.61170 -0.42300
N 	N 	0.93020 0.83910 0.58130 -0.07600
C 	C 	0.83730 0.53600 0.44190 0.95000
C 	C 	0.76810 0.52150 0.30940 -1.01200
H 	H 	0.72900 0.55700 0.25500 0.41700
C 	C 	0.76500 0.45450 0.25500 0.88500
H 	H 	0.71900 0.44600 0.15800 -0.22100
C 	C 	0.83150 0.40090 0.32910 -1.13500
C 	C 	0.89990 0.41580 0.46170 2.09600
H 	H 	0.92700 0.38100 0.50100 -0.91000
C 	C 	0.90190 0.48240 0.51600 -1.95800
H 	H 	0.93200 0.49300 0.59600 0.86100
C 	C 	0.84530 0.61000 0.50180 0.04100
C 	C 	0.83580 0.33210 0.26400 0.77300
C 	C 	0.90400 0.90320 0.60480 0.16300
H 	H 	0.85600 0.90000 0.63000 -0.00500
C 	C 	0.93220 0.96690 0.57560 -0.22500
H 	H 	0.91000 0.00900 0.58800 0.13400
C 	C 	0.98610 0.96550 0.51870 0.24600
C 	C 	0.01130 0.89780 0.49740 -0.29700
H 	H 	0.04900 0.88900 0.46100 0.11700
C 	C 	0.98400 0.83500 0.52850 0.17400
H 	H 	0.00500 0.78100 0.52300 0.01600
O 	O 	0.41561 0.12010 0.61800 -0.39000
O 	O 	0.27960 0.15682 0.43140 -0.24900
O 	O 	0.41405 0.79772 0.32390 -0.69500
O 	O 	0.26238 0.81354 0.15280 -0.68700
O 	O 	0.40242 0.27747 0.61170 -0.43400
N 	N 	0.43020 0.33910 0.58130 -0.04300
C 	C 	0.33730 0.03600 0.44190 2.25600
C 	C 	0.26810 0.02150 0.30940 -2.25400
H 	H 	0.22900 0.05700 0.25500 0.86100
C 	C 	0.26500 0.95450 0.25500 1.99500
H 	H 	0.21900 0.94600 0.15800 -0.58800
C 	C 	0.33150 0.90090 0.32910 -2.51400
C 	C 	0.39990 0.91580 0.46170 4.84900
H 	H 	0.42700 0.88100 0.50100 -2.19400
C 	C 	0.40190 0.98240 0.51600 -4.46700
H 	H 	0.43200 0.99300 0.59600 1.87100
C 	C 	0.34530 0.11000 0.50180 -0.42800
C 	C 	0.33580 0.83210 0.26400 1.28300
C 	C 	0.40400 0.40320 0.60480 0.05700
H 	H 	0.35600 0.40000 0.63000 0.03100
C 	C 	0.43220 0.46690 0.57560 -0.09800
H 	H 	0.41000 0.50900 0.58800 0.07600
C 	C 	0.48610 0.46550 0.51870 0.04200
C 	C 	0.51130 0.39780 0.49740 -0.09200
H 	H 	0.54900 0.38900 0.46100 0.07200
C 	C 	0.48400 0.33500 0.52850 0.03600
H 	H 	0.50500 0.28100 0.52300 0.09500
O 	O 	0.08439 0.62010 0.88200 -0.37100
O 	O 	0.22040 0.65682 0.06860 -0.31600
O 	O 	0.08595 0.29772 0.17610 -0.66200
O 	O 	0.23762 0.31354 0.34720 -0.63600
O 	O 	0.09758 0.77747 0.88830 -0.44900
N 	N 	0.06980 0.83910 0.91870 -0.02200
C 	C 	0.16270 0.53600 0.05810 1.85300
C 	C 	0.23190 0.52150 0.19060 -1.89400
H 	H 	0.27100 0.55700 0.24500 0.73100
C 	C 	0.23500 0.45450 0.24500 1.69200
H 	H 	0.28100 0.44600 0.34200 -0.46800
C 	C 	0.16850 0.40090 0.17090 -2.10000
C 	C 	0.10010 0.41580 0.03830 4.04100
H 	H 	0.07300 0.38100 0.99900 -1.82200
C 	C 	0.09810 0.48240 0.98400 -3.72100
H 	H 	0.06800 0.49300 0.90400 1.60600
C 	C 	0.15470 0.61000 0.99820 -0.26400
C 	C 	0.16420 0.33210 0.23600 1.14400
C 	C 	0.09600 0.90320 0.89520 -0.03000
H 	H 	0.14400 0.90000 0.87000 0.01800
C 	C 	0.06780 0.96690 0.92440 0.12700
H 	H 	0.09000 0.00900 0.91200 -0.05400
C 	C 	0.01390 0.96550 0.98130 -0.12200
C 	C 	0.98870 0.89780 0.00260 -0.02800
H 	H 	0.95100 0.88900 0.03900 0.03900
C 	C 	0.01600 0.83500 0.97150 0.00800
H 	H 	0.99500 0.78100 0.97700 0.11000
O 	O 	0.58439 0.12010 0.88200 -0.09000
O 	O 	0.72040 0.15682 0.06860 0.06400
O 	O 	0.58595 0.79772 0.17610 -0.95100
O 	O 	0.73762 0.81354 0.34720 -0.94400
O 	O 	0.59758 0.27747 0.88830 -0.43800
N 	N 	0.56980 0.33910 0.91870 -0.03600
C 	C 	0.66270 0.03600 0.05810 5.31300
C 	C 	0.73190 0.02150 0.19060 -5.07600
H 	H 	0.77100 0.05700 0.24500 1.88900
C 	C 	0.73500 0.95450 0.24500 4.52800
H 	H 	0.78100 0.94600 0.34200 -1.33800
C 	C 	0.66850 0.90090 0.17090 -5.49400
C 	C 	0.60010 0.91580 0.03830 10.87400
H 	H 	0.57300 0.88100 0.99900 -4.95500
C 	C 	0.59810 0.98240 0.98400 -10.03400
H 	H 	0.56800 0.99300 0.90400 4.26700
C 	C 	0.65470 0.11000 0.99820 -1.64300
C 	C 	0.66420 0.83210 0.23600 2.41400
C 	C 	0.59600 0.40320 0.89520 0.04100
H 	H 	0.64400 0.40000 0.87000 0.01900
C 	C 	0.56780 0.46690 0.92440 -0.09600
H 	H 	0.59000 0.50900 0.91200 0.07400
C 	C 	0.51390 0.46550 0.98130 0.02000
C 	C 	0.48870 0.39780 0.00260 -0.03600
H 	H 	0.45100 0.38900 0.03900 0.06800
C 	C 	0.51600 0.33500 0.97150 -0.00700
H 	H 	0.49500 0.28100 0.97700 0.15400
Mg	Mg	0.00000 0.30224 0.25000 1.47200
Mg	Mg	0.50000 0.80224 0.25000 1.47400
Mg	Mg	0.00000 0.69776 0.75000 1.47500
Mg	Mg	0.50000 0.19776 0.75000 1.47400
Mg	Mg	0.25000 0.25000 0.50000 1.48000
Mg	Mg	0.75000 0.25000 -0.00000 1.47700
Mg	Mg	0.75000 0.75000 0.50000 1.48000
Mg	Mg	0.25000 0.75000 -0.00000 1.47100
