data_crystal

_cell_length_a 9.07220
_cell_length_b 9.07220
_cell_length_c 14.58200
_cell_angle_alpha 79.91720
_cell_angle_beta  79.91760
_cell_angle_gamma 115.92600

_symmetry_space_group_name_	'P 1'
_symmetry_space_group_name_H-M	'P 1'

loop_
_symmetry_equiv_pos_as_xyz
  x,y,z

loop_
_atom_site_label
_atom_site_type_symbol
_atom_site_fract_x
_atom_site_fract_y
_atom_site_fract_z
_atom_site_charge
Nd	Nd	0.49059 0.74059 0.01882 2.14500
Nd	Nd	0.25941 0.50941 0.48118 2.14800
Nd	Nd	0.50941 0.25941 0.98118 2.14500
Nd	Nd	0.74059 0.49059 0.51882 2.14800
H 	H 	0.90780 0.31240 0.02960 0.09100
H 	H 	0.83690 0.22270 0.14120 0.08300
H 	H 	0.06260 0.15800 0.02960 0.09000
H 	H 	0.02190 0.13610 0.14120 0.08200
H 	H 	0.68760 0.09220 0.47040 0.08900
H 	H 	0.77730 0.16310 0.35880 0.08200
H 	H 	0.84200 0.93740 0.47040 0.08900
H 	H 	0.86390 0.97810 0.35880 0.08100
H 	H 	0.09220 0.68760 0.97040 0.09100
H 	H 	0.16310 0.77730 0.85880 0.08300
H 	H 	0.93740 0.84200 0.97040 0.09000
H 	H 	0.97810 0.86390 0.85880 0.08200
H 	H 	0.31240 0.90780 0.52960 0.08900
H 	H 	0.22270 0.83690 0.64120 0.08200
H 	H 	0.15800 0.06260 0.52960 0.08900
H 	H 	0.13610 0.02190 0.64120 0.08100
C 	C 	0.74470 0.06150 0.06220 0.48500
C 	C 	0.88200 0.21120 0.07900 -0.26500
C 	C 	0.19310 0.37630 0.06220 0.47900
C 	C 	0.03900 0.20980 0.07900 -0.25400
C 	C 	0.93850 0.25530 0.43780 0.47800
C 	C 	0.78880 0.11800 0.42100 -0.25900
C 	C 	0.62370 0.80690 0.43780 0.48000
C 	C 	0.79020 0.96100 0.42100 -0.25800
C 	C 	0.25530 0.93850 0.93780 0.48500
C 	C 	0.11800 0.78880 0.92100 -0.26500
C 	C 	0.80690 0.62370 0.93780 0.47900
C 	C 	0.96100 0.79020 0.92100 -0.25400
C 	C 	0.06150 0.74470 0.56220 0.47800
C 	C 	0.21120 0.88200 0.57900 -0.25900
C 	C 	0.37630 0.19310 0.56220 0.48000
C 	C 	0.20980 0.03900 0.57900 -0.25800
C 	C 	0.42540 0.57460 0.25000 0.29400
C 	C 	0.32460 0.67540 0.25000 0.29400
C 	C 	0.57460 0.42540 0.75000 0.29400
C 	C 	0.67540 0.32460 0.75000 0.29400
O 	O 	0.73571 0.91929 0.07900 -0.51300
O 	O 	0.63412 0.08584 0.03284 -0.64500
O 	O 	0.49023 0.56771 0.17026 -0.45800
O 	O 	0.18529 0.50171 0.07900 -0.50800
O 	O 	0.33304 0.38132 0.03284 -0.64400
O 	O 	0.33951 0.76203 0.17026 -0.46000
O 	O 	0.08071 0.26429 0.42100 -0.50700
O 	O 	0.91416 0.36588 0.46716 -0.64600
O 	O 	0.43229 0.50977 0.32974 -0.45900
O 	O 	0.49829 0.81471 0.42100 -0.50900
O 	O 	0.61868 0.66696 0.46716 -0.64600
O 	O 	0.23797 0.66049 0.32974 -0.45900
O 	O 	0.26429 0.08071 0.92100 -0.51300
O 	O 	0.36588 0.91416 0.96716 -0.64500
O 	O 	0.50977 0.43229 0.82974 -0.45800
O 	O 	0.81471 0.49829 0.92100 -0.50800
O 	O 	0.66696 0.61868 0.96716 -0.64400
O 	O 	0.66049 0.23797 0.82974 -0.46000
O 	O 	0.91929 0.73571 0.57900 -0.50700
O 	O 	0.08584 0.63412 0.53284 -0.64600
O 	O 	0.56771 0.49023 0.67026 -0.45900
O 	O 	0.50171 0.18529 0.57900 -0.50900
O 	O 	0.38132 0.33304 0.53284 -0.64600
O 	O 	0.76203 0.33951 0.67026 -0.45900
