data_crystal

_cell_length_a 11.15970
_cell_length_b 22.07500
_cell_length_c 17.43400
_cell_angle_alpha 90.00000
_cell_angle_beta  99.42400
_cell_angle_gamma 90.00000

_symmetry_space_group_name_	'P 1'
_symmetry_space_group_name_H-M	'P 1'

loop_
_symmetry_equiv_pos_as_xyz
  x,y,z

loop_
_atom_site_label
_atom_site_type_symbol
_atom_site_fract_x
_atom_site_fract_y
_atom_site_fract_z
_atom_site_charge
Cd	Cd	0.36763 0.44261 0.47128 1.22500
O 	O 	0.34600 0.54350 0.46020 -0.49800
O 	O 	0.82300 0.92834 0.12010 -0.34100
O 	O 	0.49700 0.60390 0.44460 -0.45600
O 	O 	0.72140 0.84997 0.06370 -0.36500
N 	N 	0.93220 0.50250 0.74110 -0.08400
N 	N 	0.05610 0.44180 0.81540 -0.22600
H 	H 	0.11590 0.41850 0.83350 0.13000
N 	N 	0.46360 0.44690 0.36330 -0.23300
N 	N 	0.72510 0.43560 0.14660 -0.22500
H 	H 	0.76310 0.40680 0.17360 0.12800
N 	N 	0.58980 0.51000 0.10850 -0.08800
N 	N 	0.25620 0.45350 0.57210 -0.22100
N 	N 	0.88230 0.49540 0.80670 -0.09400
N 	N 	0.66660 0.50330 0.05600 -0.09300
C 	C 	0.57110 0.46000 0.23130 0.04500
C 	C 	0.41250 0.48130 0.30310 0.06600
H 	H 	0.33980 0.50090 0.30650 0.01000
N 	N 	0.03270 0.38580 0.04500 -0.10900
C 	C 	0.62810 0.46820 0.16170 0.10700
C 	C 	0.11140 0.46490 0.68680 0.04500
C 	C 	0.20900 0.42500 0.69610 -0.12000
H 	H 	0.22720 0.40170 0.74090 0.07300
C 	C 	0.03560 0.46980 0.74780 0.10400
C 	C 	0.46270 0.48890 0.23710 -0.11700
H 	H 	0.42450 0.51310 0.19670 0.08700
C 	C 	0.94710 0.43920 0.92830 -0.04600
C 	C 	0.08820 0.49840 0.61850 -0.13200
H 	H 	0.02290 0.52510 0.60990 0.09400
C 	C 	0.96050 0.45830 0.84950 0.13900
C 	C 	0.56760 0.41900 0.35780 0.06600
H 	H 	0.60420 0.39520 0.39910 0.00100
C 	C 	0.62340 0.42410 0.29260 -0.11700
H 	H 	0.69540 0.40360 0.29020 0.07100
C 	C 	0.16320 0.49170 0.56380 0.07700
H 	H 	0.14790 0.51500 0.51880 0.00200
C 	C 	0.84400 0.43940 0.03850 -0.04900
C 	C 	0.03570 0.40370 0.97180 0.03600
H 	H 	0.10130 0.39160 0.94880 0.02800
C 	C 	0.84880 0.45730 0.96300 -0.01200
H 	H 	0.78730 0.48110 0.93580 0.05400
C 	C 	0.90030 0.82950 0.15250 -0.07400
C 	C 	0.74640 0.45890 0.08060 0.14300
C 	C 	0.27850 0.42060 0.63740 0.06900
H 	H 	0.34350 0.39370 0.64370 0.01100
C 	C 	0.38790 0.58620 0.43270 0.42900
C 	C 	0.93750 0.40400 0.07670 0.04100
H 	H 	0.93400 0.39220 0.12750 0.02900
C 	C 	0.14880 0.70400 0.27920 0.06800
C 	C 	0.81090 0.87150 0.10980 0.29000
C 	C 	0.08880 0.80850 0.23700 -0.08000
H 	H 	0.15970 0.82280 0.26710 0.05300
C 	C 	0.06430 0.74650 0.23320 0.02000
C 	C 	0.35030 0.67430 0.33670 0.06700
H 	H 	0.43380 0.68060 0.34280 0.02500
C 	C 	0.00620 0.84890 0.19560 0.01000
H 	H 	0.02400 0.89010 0.19740 0.04200
C 	C 	0.95710 0.72580 0.18780 -0.07800
H 	H 	0.94010 0.68450 0.18440 0.05700
C 	C 	0.27320 0.71220 0.28840 -0.13100
H 	H 	0.30520 0.74340 0.26200 0.07900
C 	C 	0.30510 0.62700 0.37640 -0.14300
C 	C 	0.10360 0.65560 0.31630 -0.12500
H 	H 	0.02040 0.64840 0.30850 0.08000
C 	C 	0.18180 0.61740 0.36520 0.06700
H 	H 	0.15030 0.58530 0.39030 0.02400
C 	C 	0.87650 0.76680 0.14800 0.00700
H 	H 	0.80540 0.75290 0.11780 0.04800
Cd	Cd	0.63237 0.94261 0.02872 1.22500
O 	O 	0.65400 0.04350 0.03980 -0.49500
O 	O 	0.17700 0.42834 0.37990 -0.33900
O 	O 	0.50300 0.10390 0.05540 -0.45300
O 	O 	0.27860 0.34997 0.43630 -0.36300
N 	N 	0.06780 0.00250 0.75890 -0.08500
N 	N 	0.94390 0.94180 0.68460 -0.22600
H 	H 	0.88410 0.91850 0.66650 0.13100
N 	N 	0.53640 0.94690 0.13670 -0.23300
N 	N 	0.27490 0.93560 0.35340 -0.22500
H 	H 	0.23690 0.90680 0.32640 0.12800
N 	N 	0.41020 0.01000 0.39150 -0.08800
N 	N 	0.74380 0.95350 0.92790 -0.22100
N 	N 	0.11770 0.99540 0.69330 -0.09400
N 	N 	0.33340 0.00330 0.44400 -0.09200
C 	C 	0.42890 0.96000 0.26870 0.04500
C 	C 	0.58750 0.98130 0.19690 0.06300
H 	H 	0.66020 0.00090 0.19350 0.01300
N 	N 	0.96730 0.88580 0.45500 -0.11000
C 	C 	0.37190 0.96820 0.33830 0.10600
C 	C 	0.88860 0.96490 0.81320 0.04300
C 	C 	0.79100 0.92500 0.80390 -0.11900
H 	H 	0.77280 0.90170 0.75910 0.07300
C 	C 	0.96440 0.96980 0.75220 0.10800
C 	C 	0.53730 0.98890 0.26290 -0.11800
H 	H 	0.57550 0.01310 0.30330 0.08800
C 	C 	0.05290 0.93920 0.57170 -0.04800
C 	C 	0.91180 0.99840 0.88150 -0.12700
H 	H 	0.97710 0.02510 0.89010 0.09000
C 	C 	0.03950 0.95830 0.65050 0.13900
C 	C 	0.43240 0.91900 0.14220 0.06600
H 	H 	0.39580 0.89520 0.10090 0.00000
C 	C 	0.37660 0.92410 0.20740 -0.11700
H 	H 	0.30460 0.90360 0.20980 0.07100
C 	C 	0.83680 0.99170 0.93620 0.08300
H 	H 	0.85210 0.01500 0.98120 -0.00200
C 	C 	0.15600 0.93940 0.46150 -0.05000
C 	C 	0.96430 0.90370 0.52820 0.03900
H 	H 	0.89870 0.89160 0.55120 0.02800
C 	C 	0.15120 0.95730 0.53700 -0.01100
H 	H 	0.21270 0.98110 0.56420 0.05400
C 	C 	0.09970 0.32950 0.34750 -0.07300
C 	C 	0.25360 0.95890 0.41940 0.14200
C 	C 	0.72150 0.92060 0.86260 0.06900
H 	H 	0.65650 0.89370 0.85630 0.01200
C 	C 	0.61210 0.08620 0.06730 0.42800
C 	C 	0.06250 0.90400 0.42330 0.04100
H 	H 	0.06600 0.89220 0.37250 0.02900
C 	C 	0.85120 0.20400 0.22080 0.06900
C 	C 	0.18910 0.37150 0.39020 0.28900
C 	C 	0.91120 0.30850 0.26300 -0.07800
H 	H 	0.84030 0.32280 0.23290 0.05300
C 	C 	0.93570 0.24650 0.26680 0.01800
C 	C 	0.64970 0.17430 0.16330 0.06700
H 	H 	0.56620 0.18060 0.15720 0.02500
C 	C 	0.99380 0.34890 0.30440 0.00800
H 	H 	0.97600 0.39010 0.30260 0.04300
C 	C 	0.04290 0.22580 0.31220 -0.07500
H 	H 	0.05990 0.18450 0.31560 0.05600
C 	C 	0.72680 0.21220 0.21160 -0.13100
H 	H 	0.69480 0.24340 0.23800 0.07900
C 	C 	0.69490 0.12700 0.12360 -0.14200
C 	C 	0.89640 0.15560 0.18370 -0.12500
H 	H 	0.97960 0.14840 0.19150 0.08000
C 	C 	0.81820 0.11740 0.13480 0.06700
H 	H 	0.84970 0.08530 0.10970 0.02500
C 	C 	0.12350 0.26680 0.35200 0.00600
H 	H 	0.19460 0.25290 0.38220 0.04800
Cd	Cd	0.63237 0.55739 0.52872 1.22600
O 	O 	0.65400 0.45650 0.53980 -0.49700
O 	O 	0.17700 0.07166 0.87990 -0.34000
O 	O 	0.50300 0.39610 0.55540 -0.45500
O 	O 	0.27860 0.15003 0.93630 -0.36400
N 	N 	0.06780 0.49750 0.25890 -0.08300
N 	N 	0.94390 0.55820 0.18460 -0.22600
H 	H 	0.88410 0.58150 0.16650 0.13000
N 	N 	0.53640 0.55310 0.63670 -0.23300
N 	N 	0.27490 0.56440 0.85340 -0.22500
H 	H 	0.23690 0.59320 0.82640 0.12800
N 	N 	0.41020 0.49000 0.89150 -0.08800
N 	N 	0.74380 0.54650 0.42790 -0.22100
N 	N 	0.11770 0.50460 0.19330 -0.09400
N 	N 	0.33340 0.49670 0.94400 -0.09300
C 	C 	0.42890 0.54000 0.76870 0.04500
C 	C 	0.58750 0.51870 0.69690 0.06600
H 	H 	0.66020 0.49910 0.69350 0.01000
N 	N 	0.96730 0.61420 0.95500 -0.10900
C 	C 	0.37190 0.53180 0.83830 0.10700
C 	C 	0.88860 0.53510 0.31320 0.04500
C 	C 	0.79100 0.57500 0.30390 -0.12000
H 	H 	0.77280 0.59830 0.25910 0.07300
C 	C 	0.96440 0.53020 0.25220 0.10400
C 	C 	0.53730 0.51110 0.76290 -0.11700
H 	H 	0.57550 0.48690 0.80330 0.08700
C 	C 	0.05290 0.56080 0.07170 -0.04600
C 	C 	0.91180 0.50160 0.38150 -0.13200
H 	H 	0.97710 0.47490 0.39010 0.09400
C 	C 	0.03950 0.54170 0.15050 0.13900
C 	C 	0.43240 0.58100 0.64220 0.06600
H 	H 	0.39580 0.60480 0.60090 0.00100
C 	C 	0.37660 0.57590 0.70740 -0.11700
H 	H 	0.30460 0.59640 0.70980 0.07100
C 	C 	0.83680 0.50830 0.43620 0.07700
H 	H 	0.85210 0.48500 0.48120 0.00200
C 	C 	0.15600 0.56060 0.96150 -0.04900
C 	C 	0.96430 0.59630 0.02820 0.03600
H 	H 	0.89870 0.60840 0.05120 0.02800
C 	C 	0.15120 0.54270 0.03700 -0.01200
H 	H 	0.21270 0.51890 0.06420 0.05400
C 	C 	0.09970 0.17050 0.84750 -0.07400
C 	C 	0.25360 0.54110 0.91940 0.14300
C 	C 	0.72150 0.57940 0.36260 0.06900
H 	H 	0.65650 0.60630 0.35630 0.01100
C 	C 	0.61210 0.41380 0.56730 0.42900
C 	C 	0.06250 0.59600 0.92330 0.04100
H 	H 	0.06600 0.60780 0.87250 0.02900
C 	C 	0.85120 0.29600 0.72080 0.06800
C 	C 	0.18910 0.12850 0.89020 0.29000
C 	C 	0.91120 0.19150 0.76300 -0.08000
H 	H 	0.84030 0.17720 0.73290 0.05300
C 	C 	0.93570 0.25350 0.76680 0.02000
C 	C 	0.64970 0.32570 0.66330 0.06700
H 	H 	0.56620 0.31940 0.65720 0.02500
C 	C 	0.99380 0.15110 0.80440 0.01000
H 	H 	0.97600 0.10990 0.80260 0.04200
C 	C 	0.04290 0.27420 0.81220 -0.07800
H 	H 	0.05990 0.31550 0.81560 0.05700
C 	C 	0.72680 0.28780 0.71160 -0.13100
H 	H 	0.69480 0.25660 0.73800 0.07900
C 	C 	0.69490 0.37300 0.62360 -0.14300
C 	C 	0.89640 0.34440 0.68370 -0.12500
H 	H 	0.97960 0.35160 0.69150 0.08000
C 	C 	0.81820 0.38260 0.63480 0.06700
H 	H 	0.84970 0.41470 0.60970 0.02400
C 	C 	0.12350 0.23320 0.85200 0.00700
H 	H 	0.19460 0.24710 0.88220 0.04800
Cd	Cd	0.36763 0.05739 0.97128 1.22500
O 	O 	0.34600 0.95650 0.96020 -0.49500
O 	O 	0.82300 0.57166 0.62010 -0.33900
O 	O 	0.49700 0.89610 0.94460 -0.45300
O 	O 	0.72140 0.65003 0.56370 -0.36300
N 	N 	0.93220 0.99750 0.24110 -0.08500
N 	N 	0.05610 0.05820 0.31540 -0.22600
H 	H 	0.11590 0.08150 0.33350 0.13100
N 	N 	0.46360 0.05310 0.86330 -0.23300
N 	N 	0.72510 0.06440 0.64660 -0.22500
H 	H 	0.76310 0.09320 0.67360 0.12800
N 	N 	0.58980 0.99000 0.60850 -0.08800
N 	N 	0.25620 0.04650 0.07210 -0.22100
N 	N 	0.88230 0.00460 0.30670 -0.09400
N 	N 	0.66660 0.99670 0.55600 -0.09200
C 	C 	0.57110 0.04000 0.73130 0.04500
C 	C 	0.41250 0.01870 0.80310 0.06300
H 	H 	0.33980 0.99910 0.80650 0.01300
N 	N 	0.03270 0.11420 0.54500 -0.11000
C 	C 	0.62810 0.03180 0.66170 0.10600
C 	C 	0.11140 0.03510 0.18680 0.04300
C 	C 	0.20900 0.07500 0.19610 -0.11900
H 	H 	0.22720 0.09830 0.24090 0.07300
C 	C 	0.03560 0.03020 0.24780 0.10800
C 	C 	0.46270 0.01110 0.73710 -0.11800
H 	H 	0.42450 0.98690 0.69670 0.08800
C 	C 	0.94710 0.06080 0.42830 -0.04800
C 	C 	0.08820 0.00160 0.11850 -0.12700
H 	H 	0.02290 0.97490 0.10990 0.09000
C 	C 	0.96050 0.04170 0.34950 0.13900
C 	C 	0.56760 0.08100 0.85780 0.06600
H 	H 	0.60420 0.10480 0.89910 0.00000
C 	C 	0.62340 0.07590 0.79260 -0.11700
H 	H 	0.69540 0.09640 0.79020 0.07100
C 	C 	0.16320 0.00830 0.06380 0.08300
H 	H 	0.14790 0.98500 0.01880 -0.00200
C 	C 	0.84400 0.06060 0.53850 -0.05000
C 	C 	0.03570 0.09630 0.47180 0.03900
H 	H 	0.10130 0.10840 0.44880 0.02800
C 	C 	0.84880 0.04270 0.46300 -0.01100
H 	H 	0.78730 0.01890 0.43580 0.05400
C 	C 	0.90030 0.67050 0.65250 -0.07300
C 	C 	0.74640 0.04110 0.58060 0.14200
C 	C 	0.27850 0.07940 0.13740 0.06900
H 	H 	0.34350 0.10630 0.14370 0.01200
C 	C 	0.38790 0.91380 0.93270 0.42800
C 	C 	0.93750 0.09600 0.57670 0.04100
H 	H 	0.93400 0.10780 0.62750 0.02900
C 	C 	0.14880 0.79600 0.77920 0.06900
C 	C 	0.81090 0.62850 0.60980 0.28900
C 	C 	0.08880 0.69150 0.73700 -0.07800
H 	H 	0.15970 0.67720 0.76710 0.05300
C 	C 	0.06430 0.75350 0.73320 0.01800
C 	C 	0.35030 0.82570 0.83670 0.06700
H 	H 	0.43380 0.81940 0.84280 0.02500
C 	C 	0.00620 0.65110 0.69560 0.00800
H 	H 	0.02400 0.60990 0.69740 0.04300
C 	C 	0.95710 0.77420 0.68780 -0.07500
H 	H 	0.94010 0.81550 0.68440 0.05600
C 	C 	0.27320 0.78780 0.78840 -0.13100
H 	H 	0.30520 0.75660 0.76200 0.07900
C 	C 	0.30510 0.87300 0.87640 -0.14200
C 	C 	0.10360 0.84440 0.81630 -0.12500
H 	H 	0.02040 0.85160 0.80850 0.08000
C 	C 	0.18180 0.88260 0.86520 0.06700
H 	H 	0.15030 0.91470 0.89030 0.02500
C 	C 	0.87650 0.73320 0.64800 0.00600
H 	H 	0.80540 0.74710 0.61780 0.04800
