data_crystal

_cell_length_a 16.36600
_cell_length_b 38.43700
_cell_length_c 17.62600
_cell_angle_alpha 90.00000
_cell_angle_beta  90.00000
_cell_angle_gamma 90.00000

_symmetry_space_group_name_	'P 1'
_symmetry_space_group_name_H-M	'P 1'

loop_
_symmetry_equiv_pos_as_xyz
  x,y,z

loop_
_atom_site_label
_atom_site_type_symbol
_atom_site_fract_x
_atom_site_fract_y
_atom_site_fract_z
_atom_site_charge
Cu	Cu	0.00915 0.00315 0.19181 0.85500
O 	O 	0.94560 0.95020 0.24770 0.04200
O 	O 	0.19670 0.94141 0.47740 -0.31400
O 	O 	0.09380 0.91007 0.43490 -0.16800
N 	N 	0.08500 0.99346 0.27172 -0.24100
N 	N 	0.17995 0.98995 0.36323 -0.24000
N 	N 	0.18620 0.09216 0.19770 -0.24200
C 	C 	0.15130 0.00851 0.30314 0.14200
C 	C 	0.07080 0.96418 0.31300 -0.03000
C 	C 	0.12900 0.96199 0.36910 -0.01000
C 	C 	0.15410 0.06202 0.22290 0.09200
H 	H 	0.10480 0.05480 0.20200 -0.06400
C 	C 	0.18940 0.04108 0.27760 -0.15000
C 	C 	0.26380 0.05215 0.30660 0.11400
H 	H 	0.29080 0.03890 0.34290 -0.06400
C 	C 	0.29750 0.08285 0.28150 -0.16400
H 	H 	0.34740 0.09030 0.30060 0.11800
C 	C 	0.25700 0.10241 0.22810 0.10200
H 	H 	0.27960 0.12340 0.21270 0.01000
C 	C 	0.00290 0.94062 0.29290 0.29600
C 	C 	0.14200 0.93658 0.43130 0.25300
H 	H 	0.97100 0.92690 0.39300 -0.03800
O 	O 	0.98400 0.91690 0.34690 0.43100
O 	O 	0.97240 0.94520 0.23030 -0.34400
O 	O 	0.99960 0.91030 0.32220 -0.58400
Cu	Cu	0.00915 0.50315 0.69181 0.85500
O 	O 	0.94560 0.45020 0.74770 0.04800
O 	O 	0.19670 0.44141 0.97740 -0.31500
O 	O 	0.09380 0.41007 0.93490 -0.16900
N 	N 	0.08500 0.49346 0.77172 -0.24200
N 	N 	0.17995 0.48995 0.86323 -0.24100
N 	N 	0.18620 0.59216 0.69770 -0.24300
C 	C 	0.15130 0.50851 0.80314 0.14100
C 	C 	0.07080 0.46418 0.81300 -0.03200
C 	C 	0.12900 0.46199 0.86910 -0.01000
C 	C 	0.15410 0.56202 0.72290 0.09100
H 	H 	0.10480 0.55480 0.70200 -0.06400
C 	C 	0.18940 0.54108 0.77760 -0.15100
C 	C 	0.26380 0.55215 0.80660 0.11300
H 	H 	0.29080 0.53890 0.84290 -0.06500
C 	C 	0.29750 0.58285 0.78150 -0.16500
H 	H 	0.34740 0.59030 0.80060 0.11800
C 	C 	0.25700 0.60241 0.72810 0.10200
H 	H 	0.27960 0.62340 0.71270 0.01000
C 	C 	0.00290 0.44062 0.79290 0.30200
C 	C 	0.14200 0.43658 0.93130 0.25300
H 	H 	0.97100 0.42690 0.89300 -0.03700
O 	O 	0.98400 0.41690 0.84690 0.42500
O 	O 	0.97240 0.44520 0.73030 -0.35500
O 	O 	0.99960 0.41030 0.82220 -0.58200
Cu	Cu	0.50915 0.00315 0.69181 0.85500
O 	O 	0.44560 0.95020 0.74770 0.04600
O 	O 	0.69670 0.94141 0.97740 -0.31600
O 	O 	0.59380 0.91007 0.93490 -0.17000
N 	N 	0.58500 0.99346 0.77172 -0.24300
N 	N 	0.67995 0.98995 0.86323 -0.24100
N 	N 	0.68620 0.09216 0.69770 -0.24300
C 	C 	0.65130 0.00851 0.80314 0.14100
C 	C 	0.57080 0.96418 0.81300 -0.03200
C 	C 	0.62900 0.96199 0.86910 -0.01100
C 	C 	0.65410 0.06202 0.72290 0.09100
H 	H 	0.60480 0.05480 0.70200 -0.06400
C 	C 	0.68940 0.04108 0.77760 -0.15100
C 	C 	0.76380 0.05215 0.80660 0.11300
H 	H 	0.79080 0.03890 0.84290 -0.06500
C 	C 	0.79750 0.08285 0.78150 -0.16600
H 	H 	0.84740 0.09030 0.80060 0.11800
C 	C 	0.75700 0.10241 0.72810 0.10200
H 	H 	0.77960 0.12340 0.71270 0.01000
C 	C 	0.50290 0.94062 0.79290 0.29800
C 	C 	0.64200 0.93658 0.93130 0.25300
H 	H 	0.47100 0.92690 0.89300 -0.03700
O 	O 	0.48400 0.91690 0.84690 0.42900
O 	O 	0.47240 0.94520 0.73030 -0.35100
O 	O 	0.49960 0.91030 0.82220 -0.58300
Cu	Cu	0.50915 0.50315 0.19181 0.85500
O 	O 	0.44560 0.45020 0.24770 0.04600
O 	O 	0.69670 0.44141 0.47740 -0.31500
O 	O 	0.59380 0.41007 0.43490 -0.16900
N 	N 	0.58500 0.49346 0.27172 -0.24300
N 	N 	0.67995 0.48995 0.36323 -0.24100
N 	N 	0.68620 0.59216 0.19770 -0.24300
C 	C 	0.65130 0.50851 0.30314 0.14100
C 	C 	0.57080 0.46418 0.31300 -0.03200
C 	C 	0.62900 0.46199 0.36910 -0.01100
C 	C 	0.65410 0.56202 0.22290 0.09100
H 	H 	0.60480 0.55480 0.20200 -0.06400
C 	C 	0.68940 0.54108 0.27760 -0.15100
C 	C 	0.76380 0.55215 0.30660 0.11300
H 	H 	0.79080 0.53890 0.34290 -0.06500
C 	C 	0.79750 0.58285 0.28150 -0.16600
H 	H 	0.84740 0.59030 0.30060 0.11800
C 	C 	0.75700 0.60241 0.22810 0.10200
H 	H 	0.77960 0.62340 0.21270 0.01000
C 	C 	0.50290 0.44062 0.29290 0.29800
C 	C 	0.64200 0.43658 0.43130 0.25300
H 	H 	0.47100 0.42690 0.39300 -0.03700
O 	O 	0.48400 0.41690 0.34690 0.42800
O 	O 	0.47240 0.44520 0.23030 -0.35100
O 	O 	0.49960 0.41030 0.32220 -0.58300
Cu	Cu	0.74085 0.74685 0.19181 0.85500
O 	O 	0.80440 0.79980 0.24770 0.04700
O 	O 	0.55330 0.80859 0.47740 -0.31500
O 	O 	0.65620 0.83993 0.43490 -0.16900
N 	N 	0.66500 0.75654 0.27172 -0.24300
N 	N 	0.57005 0.76005 0.36323 -0.24100
N 	N 	0.56380 0.65784 0.19770 -0.24300
C 	C 	0.59870 0.74149 0.30314 0.14100
C 	C 	0.67920 0.78582 0.31300 -0.03200
C 	C 	0.62100 0.78801 0.36910 -0.01100
C 	C 	0.59590 0.68798 0.22290 0.09100
H 	H 	0.64520 0.69520 0.20200 -0.06400
C 	C 	0.56060 0.70892 0.27760 -0.15100
C 	C 	0.48620 0.69785 0.30660 0.11300
H 	H 	0.45920 0.71110 0.34290 -0.06500
C 	C 	0.45250 0.66715 0.28150 -0.16500
H 	H 	0.40260 0.65970 0.30060 0.11800
C 	C 	0.49300 0.64759 0.22810 0.10200
H 	H 	0.47040 0.62660 0.21270 0.01000
C 	C 	0.74710 0.80938 0.29290 0.29800
C 	C 	0.60800 0.81342 0.43130 0.25300
H 	H 	0.77900 0.82310 0.39300 -0.03700
O 	O 	0.76600 0.83310 0.34690 0.42900
O 	O 	0.77760 0.80480 0.23030 -0.35100
O 	O 	0.75040 0.83970 0.32220 -0.58300
Cu	Cu	0.74085 0.24685 0.69181 0.85400
O 	O 	0.80440 0.29980 0.74770 0.04400
O 	O 	0.55330 0.30859 0.97740 -0.31500
O 	O 	0.65620 0.33993 0.93490 -0.17000
N 	N 	0.66500 0.25654 0.77172 -0.24300
N 	N 	0.57005 0.26005 0.86323 -0.24100
N 	N 	0.56380 0.15784 0.69770 -0.24300
C 	C 	0.59870 0.24149 0.80314 0.14100
C 	C 	0.67920 0.28582 0.81300 -0.03200
C 	C 	0.62100 0.28801 0.86910 -0.01100
C 	C 	0.59590 0.18798 0.72290 0.09100
H 	H 	0.64520 0.19520 0.70200 -0.06400
C 	C 	0.56060 0.20892 0.77760 -0.15100
C 	C 	0.48620 0.19785 0.80660 0.11300
H 	H 	0.45920 0.21110 0.84290 -0.06500
C 	C 	0.45250 0.16715 0.78150 -0.16600
H 	H 	0.40260 0.15970 0.80060 0.11800
C 	C 	0.49300 0.14759 0.72810 0.10200
H 	H 	0.47040 0.12660 0.71270 0.01000
C 	C 	0.74710 0.30938 0.79290 0.29800
C 	C 	0.60800 0.31342 0.93130 0.25300
H 	H 	0.77900 0.32310 0.89300 -0.03700
O 	O 	0.76600 0.33310 0.84690 0.42800
O 	O 	0.77760 0.30480 0.73030 -0.34900
O 	O 	0.75040 0.33970 0.82220 -0.58200
Cu	Cu	0.24085 0.74685 0.69181 0.85500
O 	O 	0.30440 0.79980 0.74770 0.04600
O 	O 	0.05330 0.80859 0.97740 -0.31400
O 	O 	0.15620 0.83993 0.93490 -0.16900
N 	N 	0.16500 0.75654 0.77172 -0.24200
N 	N 	0.07005 0.76005 0.86323 -0.24000
N 	N 	0.06380 0.65784 0.69770 -0.24200
C 	C 	0.09870 0.74149 0.80314 0.14000
C 	C 	0.17920 0.78582 0.81300 -0.03200
C 	C 	0.12100 0.78801 0.86910 -0.01000
C 	C 	0.09590 0.68798 0.72290 0.09000
H 	H 	0.14520 0.69520 0.70200 -0.06400
C 	C 	0.06060 0.70892 0.77760 -0.14800
C 	C 	0.98620 0.69785 0.80660 0.10900
H 	H 	0.95920 0.71110 0.84290 -0.06400
C 	C 	0.95250 0.66715 0.78150 -0.16300
H 	H 	0.90260 0.65970 0.80060 0.11700
C 	C 	0.99300 0.64759 0.72810 0.10000
H 	H 	0.97040 0.62660 0.71270 0.01100
C 	C 	0.24710 0.80938 0.79290 0.29800
C 	C 	0.10800 0.81342 0.93130 0.25300
H 	H 	0.27900 0.82310 0.89300 -0.03700
O 	O 	0.26600 0.83310 0.84690 0.42900
O 	O 	0.27760 0.80480 0.73030 -0.35100
O 	O 	0.25040 0.83970 0.82220 -0.58300
Cu	Cu	0.24085 0.24685 0.19181 0.85500
O 	O 	0.30440 0.29980 0.24770 0.04600
O 	O 	0.05330 0.30859 0.47740 -0.31500
O 	O 	0.15620 0.33993 0.43490 -0.16900
N 	N 	0.16500 0.25654 0.27172 -0.24300
N 	N 	0.07005 0.26005 0.36323 -0.24100
N 	N 	0.06380 0.15784 0.19770 -0.24500
C 	C 	0.09870 0.24149 0.30314 0.14100
C 	C 	0.17920 0.28582 0.31300 -0.03200
C 	C 	0.12100 0.28801 0.36910 -0.01100
C 	C 	0.09590 0.18798 0.22290 0.09200
H 	H 	0.14520 0.19520 0.20200 -0.06500
C 	C 	0.06060 0.20892 0.27760 -0.15300
C 	C 	0.98620 0.19785 0.30660 0.11700
H 	H 	0.95920 0.21110 0.34290 -0.06600
C 	C 	0.95250 0.16715 0.28150 -0.16800
H 	H 	0.90260 0.15970 0.30060 0.11900
C 	C 	0.99300 0.14759 0.22810 0.10600
H 	H 	0.97040 0.12660 0.21270 0.01000
C 	C 	0.24710 0.30938 0.29290 0.29800
C 	C 	0.10800 0.31342 0.43130 0.25300
H 	H 	0.27900 0.32310 0.39300 -0.03700
O 	O 	0.26600 0.33310 0.34690 0.42800
O 	O 	0.27760 0.30480 0.23030 -0.35100
O 	O 	0.25040 0.33970 0.32220 -0.58300
Cu	Cu	0.74085 0.00315 0.55819 0.85500
O 	O 	0.80440 0.95020 0.50230 0.04700
O 	O 	0.55330 0.94141 0.27260 -0.31500
O 	O 	0.65620 0.91007 0.31510 -0.16900
N 	N 	0.66500 0.99346 0.47828 -0.24200
N 	N 	0.57005 0.98995 0.38677 -0.24100
N 	N 	0.56380 0.09216 0.55230 -0.24300
C 	C 	0.59870 0.00851 0.44686 0.14100
C 	C 	0.67920 0.96418 0.43700 -0.03200
C 	C 	0.62100 0.96199 0.38090 -0.01100
C 	C 	0.59590 0.06202 0.52710 0.09100
H 	H 	0.64520 0.05480 0.54800 -0.06400
C 	C 	0.56060 0.04108 0.47240 -0.15100
C 	C 	0.48620 0.05215 0.44340 0.11300
H 	H 	0.45920 0.03890 0.40710 -0.06500
C 	C 	0.45250 0.08285 0.46850 -0.16600
H 	H 	0.40260 0.09030 0.44940 0.11800
C 	C 	0.49300 0.10241 0.52190 0.10200
H 	H 	0.47040 0.12340 0.53730 0.01000
C 	C 	0.74710 0.94062 0.45710 0.29900
C 	C 	0.60800 0.93658 0.31870 0.25300
H 	H 	0.77900 0.92690 0.35700 -0.03700
O 	O 	0.76600 0.91690 0.40310 0.42900
O 	O 	0.77760 0.94520 0.51970 -0.35200
O 	O 	0.75040 0.91030 0.42780 -0.58300
Cu	Cu	0.74085 0.50315 0.05819 0.85500
O 	O 	0.80440 0.45020 0.00230 0.04700
O 	O 	0.55330 0.44141 0.77260 -0.31500
O 	O 	0.65620 0.41007 0.81510 -0.17000
N 	N 	0.66500 0.49346 0.97828 -0.24300
N 	N 	0.57005 0.48995 0.88677 -0.24100
N 	N 	0.56380 0.59216 0.05230 -0.24300
C 	C 	0.59870 0.50851 0.94686 0.14100
C 	C 	0.67920 0.46418 0.93700 -0.03100
C 	C 	0.62100 0.46199 0.88090 -0.01100
C 	C 	0.59590 0.56202 0.02710 0.09200
H 	H 	0.64520 0.55480 0.04800 -0.06400
C 	C 	0.56060 0.54108 0.97240 -0.15100
C 	C 	0.48620 0.55215 0.94340 0.11300
H 	H 	0.45920 0.53890 0.90710 -0.06500
C 	C 	0.45250 0.58285 0.96850 -0.16600
H 	H 	0.40260 0.59030 0.94940 0.11800
C 	C 	0.49300 0.60241 0.02190 0.10200
H 	H 	0.47040 0.62340 0.03730 0.01000
C 	C 	0.74710 0.44062 0.95710 0.29700
C 	C 	0.60800 0.43658 0.81870 0.25300
H 	H 	0.77900 0.42690 0.85700 -0.03700
O 	O 	0.76600 0.41690 0.90310 0.42800
O 	O 	0.77760 0.44520 0.01970 -0.35100
O 	O 	0.75040 0.41030 0.92780 -0.58200
Cu	Cu	0.24085 0.00315 0.05819 0.85400
O 	O 	0.30440 0.95020 0.00230 0.04600
O 	O 	0.05330 0.94141 0.77260 -0.31400
O 	O 	0.15620 0.91007 0.81510 -0.16900
N 	N 	0.16500 0.99346 0.97828 -0.24200
N 	N 	0.07005 0.98995 0.88677 -0.24000
N 	N 	0.06380 0.09216 0.05230 -0.24400
C 	C 	0.09870 0.00851 0.94686 0.14000
C 	C 	0.17920 0.96418 0.93700 -0.03200
C 	C 	0.12100 0.96199 0.88090 -0.01000
C 	C 	0.09590 0.06202 0.02710 0.08700
H 	H 	0.14520 0.05480 0.04800 -0.06300
C 	C 	0.06060 0.04108 0.97240 -0.14600
C 	C 	0.98620 0.05215 0.94340 0.11100
H 	H 	0.95920 0.03890 0.90710 -0.06400
C 	C 	0.95250 0.08285 0.96850 -0.16900
H 	H 	0.90260 0.09030 0.94940 0.11900
C 	C 	0.99300 0.10241 0.02190 0.10800
H 	H 	0.97040 0.12340 0.03730 0.00900
C 	C 	0.24710 0.94062 0.95710 0.30000
C 	C 	0.10800 0.93658 0.81870 0.25300
H 	H 	0.27900 0.92690 0.85700 -0.03700
O 	O 	0.26600 0.91690 0.90310 0.42900
O 	O 	0.27760 0.94520 0.01970 -0.35200
O 	O 	0.25040 0.91030 0.92780 -0.58400
Cu	Cu	0.24085 0.50315 0.55819 0.85500
O 	O 	0.30440 0.45020 0.50230 0.04600
O 	O 	0.05330 0.44141 0.27260 -0.31600
O 	O 	0.15620 0.41007 0.31510 -0.17000
N 	N 	0.16500 0.49346 0.47828 -0.24300
N 	N 	0.07005 0.48995 0.38677 -0.24100
N 	N 	0.06380 0.59216 0.55230 -0.24300
C 	C 	0.09870 0.50851 0.44686 0.14100
C 	C 	0.17920 0.46418 0.43700 -0.03200
C 	C 	0.12100 0.46199 0.38090 -0.01100
C 	C 	0.09590 0.56202 0.52710 0.09100
H 	H 	0.14520 0.55480 0.54800 -0.06400
C 	C 	0.06060 0.54108 0.47240 -0.15100
C 	C 	0.98620 0.55215 0.44340 0.11400
H 	H 	0.95920 0.53890 0.40710 -0.06500
C 	C 	0.95250 0.58285 0.46850 -0.16600
H 	H 	0.90260 0.59030 0.44940 0.11800
C 	C 	0.99300 0.60241 0.52190 0.10200
H 	H 	0.97040 0.62340 0.53730 0.01000
C 	C 	0.24710 0.44062 0.45710 0.29800
C 	C 	0.10800 0.43658 0.31870 0.25300
H 	H 	0.27900 0.42690 0.35700 -0.03700
O 	O 	0.26600 0.41690 0.40310 0.42800
O 	O 	0.27760 0.44520 0.51970 -0.35100
O 	O 	0.25040 0.41030 0.42780 -0.58300
Cu	Cu	0.00915 0.74685 0.55819 0.85500
O 	O 	0.94560 0.79980 0.50230 0.04600
O 	O 	0.19670 0.80859 0.27260 -0.31500
O 	O 	0.09380 0.83993 0.31510 -0.17000
N 	N 	0.08500 0.75654 0.47828 -0.24200
N 	N 	0.17995 0.76005 0.38677 -0.24100
N 	N 	0.18620 0.65784 0.55230 -0.24300
C 	C 	0.15130 0.74149 0.44686 0.14100
C 	C 	0.07080 0.78582 0.43700 -0.03200
C 	C 	0.12900 0.78801 0.38090 -0.01100
C 	C 	0.15410 0.68798 0.52710 0.09100
H 	H 	0.10480 0.69520 0.54800 -0.06400
C 	C 	0.18940 0.70892 0.47240 -0.15100
C 	C 	0.26380 0.69785 0.44340 0.11300
H 	H 	0.29080 0.71110 0.40710 -0.06500
C 	C 	0.29750 0.66715 0.46850 -0.16600
H 	H 	0.34740 0.65970 0.44940 0.11800
C 	C 	0.25700 0.64759 0.52190 0.10200
H 	H 	0.27960 0.62660 0.53730 0.01000
C 	C 	0.00290 0.80938 0.45710 0.29800
C 	C 	0.14200 0.81342 0.31870 0.25300
H 	H 	0.97100 0.82310 0.35700 -0.03700
O 	O 	0.98400 0.83310 0.40310 0.42900
O 	O 	0.97240 0.80480 0.51970 -0.35100
O 	O 	0.99960 0.83970 0.42780 -0.58300
Cu	Cu	0.00915 0.24685 0.05819 0.85300
O 	O 	0.94560 0.29980 0.00230 0.04600
O 	O 	0.19670 0.30859 0.77260 -0.31500
O 	O 	0.09380 0.33993 0.81510 -0.16900
N 	N 	0.08500 0.25654 0.97828 -0.24200
N 	N 	0.17995 0.26005 0.88677 -0.24100
N 	N 	0.18620 0.15784 0.05230 -0.24200
C 	C 	0.15130 0.24149 0.94686 0.14000
C 	C 	0.07080 0.28582 0.93700 -0.03200
C 	C 	0.12900 0.28801 0.88090 -0.01000
C 	C 	0.15410 0.18798 0.02710 0.08800
H 	H 	0.10480 0.19520 0.04800 -0.06400
C 	C 	0.18940 0.20892 0.97240 -0.14700
C 	C 	0.26380 0.19785 0.94340 0.11000
H 	H 	0.29080 0.21110 0.90710 -0.06300
C 	C 	0.29750 0.16715 0.96850 -0.16100
H 	H 	0.34740 0.15970 0.94940 0.11600
C 	C 	0.25700 0.14759 0.02190 0.09900
H 	H 	0.27960 0.12660 0.03730 0.01100
C 	C 	0.00290 0.30938 0.95710 0.30100
C 	C 	0.14200 0.31342 0.81870 0.25300
H 	H 	0.97100 0.32310 0.85700 -0.03600
O 	O 	0.98400 0.33310 0.90310 0.42400
O 	O 	0.97240 0.30480 0.01970 -0.35000
O 	O 	0.99960 0.33970 0.92780 -0.58100
Cu	Cu	0.50915 0.74685 0.05819 0.85500
O 	O 	0.44560 0.79980 0.00230 0.04300
O 	O 	0.69670 0.80859 0.77260 -0.31500
O 	O 	0.59380 0.83993 0.81510 -0.16900
N 	N 	0.58500 0.75654 0.97828 -0.24300
N 	N 	0.67995 0.76005 0.88677 -0.24100
N 	N 	0.68620 0.65784 0.05230 -0.24400
C 	C 	0.65130 0.74149 0.94686 0.14100
C 	C 	0.57080 0.78582 0.93700 -0.03200
C 	C 	0.62900 0.78801 0.88090 -0.01100
C 	C 	0.65410 0.68798 0.02710 0.09300
H 	H 	0.60480 0.69520 0.04800 -0.06500
C 	C 	0.68940 0.70892 0.97240 -0.15300
C 	C 	0.76380 0.69785 0.94340 0.11500
H 	H 	0.79080 0.71110 0.90710 -0.06600
C 	C 	0.79750 0.66715 0.96850 -0.17000
H 	H 	0.84740 0.65970 0.94940 0.11900
C 	C 	0.75700 0.64759 0.02190 0.10500
H 	H 	0.77960 0.62660 0.03730 0.00900
C 	C 	0.50290 0.80938 0.95710 0.29800
C 	C 	0.64200 0.81342 0.81870 0.25300
H 	H 	0.47100 0.82310 0.85700 -0.03700
O 	O 	0.48400 0.83310 0.90310 0.42800
O 	O 	0.47240 0.80480 0.01970 -0.34800
O 	O 	0.49960 0.83970 0.92780 -0.58200
Cu	Cu	0.50915 0.24685 0.55819 0.85500
O 	O 	0.44560 0.29980 0.50230 0.04600
O 	O 	0.69670 0.30859 0.27260 -0.31500
O 	O 	0.59380 0.33993 0.31510 -0.16900
N 	N 	0.58500 0.25654 0.47828 -0.24300
N 	N 	0.67995 0.26005 0.38677 -0.24100
N 	N 	0.68620 0.15784 0.55230 -0.24300
C 	C 	0.65130 0.24149 0.44686 0.14100
C 	C 	0.57080 0.28582 0.43700 -0.03200
C 	C 	0.62900 0.28801 0.38090 -0.01100
C 	C 	0.65410 0.18798 0.52710 0.09100
H 	H 	0.60480 0.19520 0.54800 -0.06400
C 	C 	0.68940 0.20892 0.47240 -0.15100
C 	C 	0.76380 0.19785 0.44340 0.11300
H 	H 	0.79080 0.21110 0.40710 -0.06500
C 	C 	0.79750 0.16715 0.46850 -0.16600
H 	H 	0.84740 0.15970 0.44940 0.11800
C 	C 	0.75700 0.14759 0.52190 0.10200
H 	H 	0.77960 0.12660 0.53730 0.01000
C 	C 	0.50290 0.30938 0.45710 0.29800
C 	C 	0.64200 0.31342 0.31870 0.25300
H 	H 	0.47100 0.32310 0.35700 -0.03700
O 	O 	0.48400 0.33310 0.40310 0.42900
O 	O 	0.47240 0.30480 0.51970 -0.35100
O 	O 	0.49960 0.33970 0.42780 -0.58300
Cu	Cu	0.99085 0.99685 0.80819 0.85400
O 	O 	0.05440 0.04980 0.75230 0.04100
O 	O 	0.80330 0.05859 0.52260 -0.31500
O 	O 	0.90620 0.08993 0.56510 -0.16900
N 	N 	0.91500 0.00654 0.72828 -0.24200
N 	N 	0.82005 0.01005 0.63677 -0.24100
N 	N 	0.81380 0.90784 0.80230 -0.24300
C 	C 	0.84870 0.99149 0.69686 0.14100
C 	C 	0.92920 0.03582 0.68700 -0.03100
C 	C 	0.87100 0.03801 0.63090 -0.01100
C 	C 	0.84590 0.93798 0.77710 0.09100
H 	H 	0.89520 0.94520 0.79800 -0.06500
C 	C 	0.81060 0.95892 0.72240 -0.15100
C 	C 	0.73620 0.94785 0.69340 0.11300
H 	H 	0.70920 0.96110 0.65710 -0.06500
C 	C 	0.70250 0.91715 0.71850 -0.16500
H 	H 	0.65260 0.90970 0.69940 0.11800
C 	C 	0.74300 0.89759 0.77190 0.10200
H 	H 	0.72040 0.87660 0.78730 0.01000
C 	C 	0.99710 0.05938 0.70710 0.29600
C 	C 	0.85800 0.06342 0.56870 0.25300
H 	H 	0.02900 0.07310 0.60700 -0.03800
O 	O 	0.01600 0.08310 0.65310 0.43100
O 	O 	0.02760 0.05480 0.76970 -0.34400
O 	O 	0.00040 0.08970 0.67780 -0.58400
Cu	Cu	0.99085 0.49685 0.30819 0.85500
O 	O 	0.05440 0.54980 0.25230 0.04800
O 	O 	0.80330 0.55859 0.02260 -0.31500
O 	O 	0.90620 0.58993 0.06510 -0.16900
N 	N 	0.91500 0.50654 0.22828 -0.24200
N 	N 	0.82005 0.51005 0.13677 -0.24100
N 	N 	0.81380 0.40784 0.30230 -0.24300
C 	C 	0.84870 0.49149 0.19686 0.14100
C 	C 	0.92920 0.53582 0.18700 -0.03200
C 	C 	0.87100 0.53801 0.13090 -0.01000
C 	C 	0.84590 0.43798 0.27710 0.09100
H 	H 	0.89520 0.44520 0.29800 -0.06400
C 	C 	0.81060 0.45892 0.22240 -0.15100
C 	C 	0.73620 0.44785 0.19340 0.11300
H 	H 	0.70920 0.46110 0.15710 -0.06500
C 	C 	0.70250 0.41715 0.21850 -0.16500
H 	H 	0.65260 0.40970 0.19940 0.11800
C 	C 	0.74300 0.39759 0.27190 0.10200
H 	H 	0.72040 0.37660 0.28730 0.01000
C 	C 	0.99710 0.55938 0.20710 0.30200
C 	C 	0.85800 0.56342 0.06870 0.25300
H 	H 	0.02900 0.57310 0.10700 -0.03700
O 	O 	0.01600 0.58310 0.15310 0.42500
O 	O 	0.02760 0.55480 0.26970 -0.35500
O 	O 	0.00040 0.58970 0.17780 -0.58200
Cu	Cu	0.49085 0.99685 0.30819 0.85500
O 	O 	0.55440 0.04980 0.25230 0.04600
O 	O 	0.30330 0.05859 0.02260 -0.31600
O 	O 	0.40620 0.08993 0.06510 -0.17000
N 	N 	0.41500 0.00654 0.22828 -0.24300
N 	N 	0.32005 0.01005 0.13677 -0.24100
N 	N 	0.31380 0.90784 0.30230 -0.24300
C 	C 	0.34870 0.99149 0.19686 0.14100
C 	C 	0.42920 0.03582 0.18700 -0.03200
C 	C 	0.37100 0.03801 0.13090 -0.01100
C 	C 	0.34590 0.93798 0.27710 0.09100
H 	H 	0.39520 0.94520 0.29800 -0.06400
C 	C 	0.31060 0.95892 0.22240 -0.15100
C 	C 	0.23620 0.94785 0.19340 0.11300
H 	H 	0.20920 0.96110 0.15710 -0.06500
C 	C 	0.20250 0.91715 0.21850 -0.16600
H 	H 	0.15260 0.90970 0.19940 0.11800
C 	C 	0.24300 0.89759 0.27190 0.10200
H 	H 	0.22040 0.87660 0.28730 0.01000
C 	C 	0.49710 0.05938 0.20710 0.29800
C 	C 	0.35800 0.06342 0.06870 0.25300
H 	H 	0.52900 0.07310 0.10700 -0.03700
O 	O 	0.51600 0.08310 0.15310 0.42900
O 	O 	0.52760 0.05480 0.26970 -0.35100
O 	O 	0.50040 0.08970 0.17780 -0.58300
Cu	Cu	0.49085 0.49685 0.80819 0.85500
O 	O 	0.55440 0.54980 0.75230 0.04600
O 	O 	0.30330 0.55859 0.52260 -0.31500
O 	O 	0.40620 0.58993 0.56510 -0.16900
N 	N 	0.41500 0.50654 0.72828 -0.24300
N 	N 	0.32005 0.51005 0.63677 -0.24100
N 	N 	0.31380 0.40784 0.80230 -0.24300
C 	C 	0.34870 0.49149 0.69686 0.14100
C 	C 	0.42920 0.53582 0.68700 -0.03200
C 	C 	0.37100 0.53801 0.63090 -0.01100
C 	C 	0.34590 0.43798 0.77710 0.09100
H 	H 	0.39520 0.44520 0.79800 -0.06400
C 	C 	0.31060 0.45892 0.72240 -0.15100
C 	C 	0.23620 0.44785 0.69340 0.11300
H 	H 	0.20920 0.46110 0.65710 -0.06500
C 	C 	0.20250 0.41715 0.71850 -0.16600
H 	H 	0.15260 0.40970 0.69940 0.11800
C 	C 	0.24300 0.39759 0.77190 0.10200
H 	H 	0.22040 0.37660 0.78730 0.01000
C 	C 	0.49710 0.55938 0.70710 0.29800
C 	C 	0.35800 0.56342 0.56870 0.25300
H 	H 	0.52900 0.57310 0.60700 -0.03700
O 	O 	0.51600 0.58310 0.65310 0.42800
O 	O 	0.52760 0.55480 0.76970 -0.35100
O 	O 	0.50040 0.58970 0.67780 -0.58300
Cu	Cu	0.25915 0.25315 0.80819 0.85500
O 	O 	0.19560 0.20020 0.75230 0.04700
O 	O 	0.44670 0.19141 0.52260 -0.31500
O 	O 	0.34380 0.16007 0.56510 -0.16900
N 	N 	0.33500 0.24346 0.72828 -0.24300
N 	N 	0.42995 0.23995 0.63677 -0.24100
N 	N 	0.43620 0.34216 0.80230 -0.24300
C 	C 	0.40130 0.25851 0.69686 0.14100
C 	C 	0.32080 0.21418 0.68700 -0.03200
C 	C 	0.37900 0.21199 0.63090 -0.01100
C 	C 	0.40410 0.31202 0.77710 0.09100
H 	H 	0.35480 0.30480 0.79800 -0.06400
C 	C 	0.43940 0.29108 0.72240 -0.15100
C 	C 	0.51380 0.30215 0.69340 0.11300
H 	H 	0.54080 0.28890 0.65710 -0.06500
C 	C 	0.54750 0.33285 0.71850 -0.16500
H 	H 	0.59740 0.34030 0.69940 0.11800
C 	C 	0.50700 0.35241 0.77190 0.10200
H 	H 	0.52960 0.37340 0.78730 0.01000
C 	C 	0.25290 0.19062 0.70710 0.29800
C 	C 	0.39200 0.18658 0.56870 0.25300
H 	H 	0.22100 0.17690 0.60700 -0.03700
O 	O 	0.23400 0.16690 0.65310 0.42900
O 	O 	0.22240 0.19520 0.76970 -0.35100
O 	O 	0.24960 0.16030 0.67780 -0.58300
Cu	Cu	0.25915 0.75315 0.30819 0.85400
O 	O 	0.19560 0.70020 0.25230 0.04400
O 	O 	0.44670 0.69141 0.02260 -0.31500
O 	O 	0.34380 0.66007 0.06510 -0.17000
N 	N 	0.33500 0.74346 0.22828 -0.24300
N 	N 	0.42995 0.73995 0.13677 -0.24100
N 	N 	0.43620 0.84216 0.30230 -0.24300
C 	C 	0.40130 0.75851 0.19686 0.14100
C 	C 	0.32080 0.71418 0.18700 -0.03200
C 	C 	0.37900 0.71199 0.13090 -0.01100
C 	C 	0.40410 0.81202 0.27710 0.09100
H 	H 	0.35480 0.80480 0.29800 -0.06400
C 	C 	0.43940 0.79108 0.22240 -0.15100
C 	C 	0.51380 0.80215 0.19340 0.11300
H 	H 	0.54080 0.78890 0.15710 -0.06500
C 	C 	0.54750 0.83285 0.21850 -0.16600
H 	H 	0.59740 0.84030 0.19940 0.11800
C 	C 	0.50700 0.85241 0.27190 0.10200
H 	H 	0.52960 0.87340 0.28730 0.01000
C 	C 	0.25290 0.69062 0.20710 0.29800
C 	C 	0.39200 0.68658 0.06870 0.25300
H 	H 	0.22100 0.67690 0.10700 -0.03700
O 	O 	0.23400 0.66690 0.15310 0.42800
O 	O 	0.22240 0.69520 0.26970 -0.34900
O 	O 	0.24960 0.66030 0.17780 -0.58200
Cu	Cu	0.75915 0.25315 0.30819 0.85500
O 	O 	0.69560 0.20020 0.25230 0.04600
O 	O 	0.94670 0.19141 0.02260 -0.31400
O 	O 	0.84380 0.16007 0.06510 -0.16900
N 	N 	0.83500 0.24346 0.22828 -0.24200
N 	N 	0.92995 0.23995 0.13677 -0.24000
N 	N 	0.93620 0.34216 0.30230 -0.24200
C 	C 	0.90130 0.25851 0.19686 0.14000
C 	C 	0.82080 0.21418 0.18700 -0.03200
C 	C 	0.87900 0.21199 0.13090 -0.01000
C 	C 	0.90410 0.31202 0.27710 0.09000
H 	H 	0.85480 0.30480 0.29800 -0.06400
C 	C 	0.93940 0.29108 0.22240 -0.14800
C 	C 	0.01380 0.30215 0.19340 0.10900
H 	H 	0.04080 0.28890 0.15710 -0.06400
C 	C 	0.04750 0.33285 0.21850 -0.16300
H 	H 	0.09740 0.34030 0.19940 0.11700
C 	C 	0.00700 0.35241 0.27190 0.10000
H 	H 	0.02960 0.37340 0.28730 0.01100
C 	C 	0.75290 0.19062 0.20710 0.29800
C 	C 	0.89200 0.18658 0.06870 0.25300
H 	H 	0.72100 0.17690 0.10700 -0.03700
O 	O 	0.73400 0.16690 0.15310 0.42900
O 	O 	0.72240 0.19520 0.26970 -0.35100
O 	O 	0.74960 0.16030 0.17780 -0.58300
Cu	Cu	0.75915 0.75315 0.80819 0.85500
O 	O 	0.69560 0.70020 0.75230 0.04600
O 	O 	0.94670 0.69141 0.52260 -0.31500
O 	O 	0.84380 0.66007 0.56510 -0.16900
N 	N 	0.83500 0.74346 0.72828 -0.24300
N 	N 	0.92995 0.73995 0.63677 -0.24100
N 	N 	0.93620 0.84216 0.80230 -0.24500
C 	C 	0.90130 0.75851 0.69686 0.14100
C 	C 	0.82080 0.71418 0.68700 -0.03200
C 	C 	0.87900 0.71199 0.63090 -0.01100
C 	C 	0.90410 0.81202 0.77710 0.09200
H 	H 	0.85480 0.80480 0.79800 -0.06500
C 	C 	0.93940 0.79108 0.72240 -0.15300
C 	C 	0.01380 0.80215 0.69340 0.11700
H 	H 	0.04080 0.78890 0.65710 -0.06600
C 	C 	0.04750 0.83285 0.71850 -0.16800
H 	H 	0.09740 0.84030 0.69940 0.11900
C 	C 	0.00700 0.85241 0.77190 0.10600
H 	H 	0.02960 0.87340 0.78730 0.01000
C 	C 	0.75290 0.69062 0.70710 0.29800
C 	C 	0.89200 0.68658 0.56870 0.25300
H 	H 	0.72100 0.67690 0.60700 -0.03700
O 	O 	0.73400 0.66690 0.65310 0.42800
O 	O 	0.72240 0.69520 0.76970 -0.35100
O 	O 	0.74960 0.66030 0.67780 -0.58300
Cu	Cu	0.25915 0.99685 0.44181 0.85500
O 	O 	0.19560 0.04980 0.49770 0.04700
O 	O 	0.44670 0.05859 0.72740 -0.31500
O 	O 	0.34380 0.08993 0.68490 -0.16900
N 	N 	0.33500 0.00654 0.52172 -0.24200
N 	N 	0.42995 0.01005 0.61323 -0.24100
N 	N 	0.43620 0.90784 0.44770 -0.24300
C 	C 	0.40130 0.99149 0.55314 0.14100
C 	C 	0.32080 0.03582 0.56300 -0.03200
C 	C 	0.37900 0.03801 0.61910 -0.01100
C 	C 	0.40410 0.93798 0.47290 0.09100
H 	H 	0.35480 0.94520 0.45200 -0.06400
C 	C 	0.43940 0.95892 0.52760 -0.15100
C 	C 	0.51380 0.94785 0.55660 0.11300
H 	H 	0.54080 0.96110 0.59290 -0.06500
C 	C 	0.54750 0.91715 0.53150 -0.16600
H 	H 	0.59740 0.90970 0.55060 0.11800
C 	C 	0.50700 0.89759 0.47810 0.10200
H 	H 	0.52960 0.87660 0.46270 0.01000
C 	C 	0.25290 0.05938 0.54290 0.29900
C 	C 	0.39200 0.06342 0.68130 0.25300
H 	H 	0.22100 0.07310 0.64300 -0.03700
O 	O 	0.23400 0.08310 0.59690 0.42900
O 	O 	0.22240 0.05480 0.48030 -0.35200
O 	O 	0.24960 0.08970 0.57220 -0.58300
Cu	Cu	0.25915 0.49685 0.94181 0.85500
O 	O 	0.19560 0.54980 0.99770 0.04700
O 	O 	0.44670 0.55859 0.22740 -0.31500
O 	O 	0.34380 0.58993 0.18490 -0.17000
N 	N 	0.33500 0.50654 0.02172 -0.24300
N 	N 	0.42995 0.51005 0.11323 -0.24100
N 	N 	0.43620 0.40784 0.94770 -0.24300
C 	C 	0.40130 0.49149 0.05314 0.14100
C 	C 	0.32080 0.53582 0.06300 -0.03100
C 	C 	0.37900 0.53801 0.11910 -0.01100
C 	C 	0.40410 0.43798 0.97290 0.09200
H 	H 	0.35480 0.44520 0.95200 -0.06400
C 	C 	0.43940 0.45892 0.02760 -0.15100
C 	C 	0.51380 0.44785 0.05660 0.11300
H 	H 	0.54080 0.46110 0.09290 -0.06500
C 	C 	0.54750 0.41715 0.03150 -0.16600
H 	H 	0.59740 0.40970 0.05060 0.11800
C 	C 	0.50700 0.39759 0.97810 0.10200
H 	H 	0.52960 0.37660 0.96270 0.01000
C 	C 	0.25290 0.55938 0.04290 0.29700
C 	C 	0.39200 0.56342 0.18130 0.25300
H 	H 	0.22100 0.57310 0.14300 -0.03700
O 	O 	0.23400 0.58310 0.09690 0.42800
O 	O 	0.22240 0.55480 0.98030 -0.35100
O 	O 	0.24960 0.58970 0.07220 -0.58200
Cu	Cu	0.75915 0.99685 0.94181 0.85400
O 	O 	0.69560 0.04980 0.99770 0.04600
O 	O 	0.94670 0.05859 0.22740 -0.31400
O 	O 	0.84380 0.08993 0.18490 -0.16900
N 	N 	0.83500 0.00654 0.02172 -0.24200
N 	N 	0.92995 0.01005 0.11323 -0.24000
N 	N 	0.93620 0.90784 0.94770 -0.24400
C 	C 	0.90130 0.99149 0.05314 0.14000
C 	C 	0.82080 0.03582 0.06300 -0.03200
C 	C 	0.87900 0.03801 0.11910 -0.01000
C 	C 	0.90410 0.93798 0.97290 0.08700
H 	H 	0.85480 0.94520 0.95200 -0.06300
C 	C 	0.93940 0.95892 0.02760 -0.14600
C 	C 	0.01380 0.94785 0.05660 0.11100
H 	H 	0.04080 0.96110 0.09290 -0.06400
C 	C 	0.04750 0.91715 0.03150 -0.16900
H 	H 	0.09740 0.90970 0.05060 0.11900
C 	C 	0.00700 0.89759 0.97810 0.10800
H 	H 	0.02960 0.87660 0.96270 0.00900
C 	C 	0.75290 0.05938 0.04290 0.30000
C 	C 	0.89200 0.06342 0.18130 0.25300
H 	H 	0.72100 0.07310 0.14300 -0.03700
O 	O 	0.73400 0.08310 0.09690 0.42900
O 	O 	0.72240 0.05480 0.98030 -0.35200
O 	O 	0.74960 0.08970 0.07220 -0.58400
Cu	Cu	0.75915 0.49685 0.44181 0.85500
O 	O 	0.69560 0.54980 0.49770 0.04600
O 	O 	0.94670 0.55859 0.72740 -0.31600
O 	O 	0.84380 0.58993 0.68490 -0.17000
N 	N 	0.83500 0.50654 0.52172 -0.24300
N 	N 	0.92995 0.51005 0.61323 -0.24100
N 	N 	0.93620 0.40784 0.44770 -0.24300
C 	C 	0.90130 0.49149 0.55314 0.14100
C 	C 	0.82080 0.53582 0.56300 -0.03200
C 	C 	0.87900 0.53801 0.61910 -0.01100
C 	C 	0.90410 0.43798 0.47290 0.09100
H 	H 	0.85480 0.44520 0.45200 -0.06400
C 	C 	0.93940 0.45892 0.52760 -0.15100
C 	C 	0.01380 0.44785 0.55660 0.11400
H 	H 	0.04080 0.46110 0.59290 -0.06500
C 	C 	0.04750 0.41715 0.53150 -0.16600
H 	H 	0.09740 0.40970 0.55060 0.11800
C 	C 	0.00700 0.39759 0.47810 0.10200
H 	H 	0.02960 0.37660 0.46270 0.01000
C 	C 	0.75290 0.55938 0.54290 0.29800
C 	C 	0.89200 0.56342 0.68130 0.25300
H 	H 	0.72100 0.57310 0.64300 -0.03700
O 	O 	0.73400 0.58310 0.59690 0.42800
O 	O 	0.72240 0.55480 0.48030 -0.35100
O 	O 	0.74960 0.58970 0.57220 -0.58300
Cu	Cu	0.99085 0.25315 0.44181 0.85500
O 	O 	0.05440 0.20020 0.49770 0.04600
O 	O 	0.80330 0.19141 0.72740 -0.31500
O 	O 	0.90620 0.16007 0.68490 -0.17000
N 	N 	0.91500 0.24346 0.52172 -0.24200
N 	N 	0.82005 0.23995 0.61323 -0.24100
N 	N 	0.81380 0.34216 0.44770 -0.24300
C 	C 	0.84870 0.25851 0.55314 0.14100
C 	C 	0.92920 0.21418 0.56300 -0.03200
C 	C 	0.87100 0.21199 0.61910 -0.01100
C 	C 	0.84590 0.31202 0.47290 0.09100
H 	H 	0.89520 0.30480 0.45200 -0.06400
C 	C 	0.81060 0.29108 0.52760 -0.15100
C 	C 	0.73620 0.30215 0.55660 0.11300
H 	H 	0.70920 0.28890 0.59290 -0.06500
C 	C 	0.70250 0.33285 0.53150 -0.16600
H 	H 	0.65260 0.34030 0.55060 0.11800
C 	C 	0.74300 0.35241 0.47810 0.10200
H 	H 	0.72040 0.37340 0.46270 0.01000
C 	C 	0.99710 0.19062 0.54290 0.29800
C 	C 	0.85800 0.18658 0.68130 0.25300
H 	H 	0.02900 0.17690 0.64300 -0.03700
O 	O 	0.01600 0.16690 0.59690 0.42900
O 	O 	0.02760 0.19520 0.48030 -0.35100
O 	O 	0.00040 0.16030 0.57220 -0.58300
Cu	Cu	0.99085 0.75315 0.94181 0.85300
O 	O 	0.05440 0.70020 0.99770 0.04600
O 	O 	0.80330 0.69141 0.22740 -0.31500
O 	O 	0.90620 0.66007 0.18490 -0.16900
N 	N 	0.91500 0.74346 0.02172 -0.24200
N 	N 	0.82005 0.73995 0.11323 -0.24100
N 	N 	0.81380 0.84216 0.94770 -0.24200
C 	C 	0.84870 0.75851 0.05314 0.14000
C 	C 	0.92920 0.71418 0.06300 -0.03200
C 	C 	0.87100 0.71199 0.11910 -0.01000
C 	C 	0.84590 0.81202 0.97290 0.08800
H 	H 	0.89520 0.80480 0.95200 -0.06400
C 	C 	0.81060 0.79108 0.02760 -0.14700
C 	C 	0.73620 0.80215 0.05660 0.11000
H 	H 	0.70920 0.78890 0.09290 -0.06300
C 	C 	0.70250 0.83285 0.03150 -0.16100
H 	H 	0.65260 0.84030 0.05060 0.11600
C 	C 	0.74300 0.85241 0.97810 0.09900
H 	H 	0.72040 0.87340 0.96270 0.01100
C 	C 	0.99710 0.69062 0.04290 0.30100
C 	C 	0.85800 0.68658 0.18130 0.25300
H 	H 	0.02900 0.67690 0.14300 -0.03600
O 	O 	0.01600 0.66690 0.09690 0.42400
O 	O 	0.02760 0.69520 0.98030 -0.35000
O 	O 	0.00040 0.66030 0.07220 -0.58100
Cu	Cu	0.49085 0.25315 0.94181 0.85500
O 	O 	0.55440 0.20020 0.99770 0.04300
O 	O 	0.30330 0.19141 0.22740 -0.31500
O 	O 	0.40620 0.16007 0.18490 -0.16900
N 	N 	0.41500 0.24346 0.02172 -0.24300
N 	N 	0.32005 0.23995 0.11323 -0.24100
N 	N 	0.31380 0.34216 0.94770 -0.24400
C 	C 	0.34870 0.25851 0.05314 0.14100
C 	C 	0.42920 0.21418 0.06300 -0.03200
C 	C 	0.37100 0.21199 0.11910 -0.01100
C 	C 	0.34590 0.31202 0.97290 0.09300
H 	H 	0.39520 0.30480 0.95200 -0.06500
C 	C 	0.31060 0.29108 0.02760 -0.15300
C 	C 	0.23620 0.30215 0.05660 0.11500
H 	H 	0.20920 0.28890 0.09290 -0.06600
C 	C 	0.20250 0.33285 0.03150 -0.17000
H 	H 	0.15260 0.34030 0.05060 0.11900
C 	C 	0.24300 0.35241 0.97810 0.10500
H 	H 	0.22040 0.37340 0.96270 0.00900
C 	C 	0.49710 0.19062 0.04290 0.29800
C 	C 	0.35800 0.18658 0.18130 0.25300
H 	H 	0.52900 0.17690 0.14300 -0.03700
O 	O 	0.51600 0.16690 0.09690 0.42800
O 	O 	0.52760 0.19520 0.98030 -0.34800
O 	O 	0.50040 0.16030 0.07220 -0.58200
Cu	Cu	0.49085 0.75315 0.44181 0.85500
O 	O 	0.55440 0.70020 0.49770 0.04600
O 	O 	0.30330 0.69141 0.72740 -0.31500
O 	O 	0.40620 0.66007 0.68490 -0.16900
N 	N 	0.41500 0.74346 0.52172 -0.24300
N 	N 	0.32005 0.73995 0.61323 -0.24100
N 	N 	0.31380 0.84216 0.44770 -0.24300
C 	C 	0.34870 0.75851 0.55314 0.14100
C 	C 	0.42920 0.71418 0.56300 -0.03200
C 	C 	0.37100 0.71199 0.61910 -0.01100
C 	C 	0.34590 0.81202 0.47290 0.09100
H 	H 	0.39520 0.80480 0.45200 -0.06400
C 	C 	0.31060 0.79108 0.52760 -0.15100
C 	C 	0.23620 0.80215 0.55660 0.11300
H 	H 	0.20920 0.78890 0.59290 -0.06500
C 	C 	0.20250 0.83285 0.53150 -0.16600
H 	H 	0.15260 0.84030 0.55060 0.11800
C 	C 	0.24300 0.85241 0.47810 0.10200
H 	H 	0.22040 0.87340 0.46270 0.01000
C 	C 	0.49710 0.69062 0.54290 0.29800
C 	C 	0.35800 0.68658 0.68130 0.25300
H 	H 	0.52900 0.67690 0.64300 -0.03700
O 	O 	0.51600 0.66690 0.59690 0.42900
O 	O 	0.52760 0.69520 0.48030 -0.35100
O 	O 	0.50040 0.66030 0.57220 -0.58300
Cu	Cu	0.12500 0.12500 0.12500 0.85500
Cu	Cu	0.12500 0.62500 0.62500 0.85500
Cu	Cu	0.62500 0.12500 0.62500 0.85500
Cu	Cu	0.62500 0.62500 0.12500 0.85500
Cu	Cu	0.87500 0.87500 0.87500 0.85500
Cu	Cu	0.87500 0.37500 0.37500 0.85500
Cu	Cu	0.37500 0.87500 0.37500 0.85500
Cu	Cu	0.37500 0.37500 0.87500 0.85500
