data_crystal

_cell_length_a 21.78000
_cell_length_b 10.85510
_cell_length_c 19.44050
_cell_angle_alpha 90.00000
_cell_angle_beta  92.08800
_cell_angle_gamma 90.00000

_symmetry_space_group_name_	'P 1'
_symmetry_space_group_name_H-M	'P 1'

loop_
_symmetry_equiv_pos_as_xyz
  x,y,z

loop_
_atom_site_label
_atom_site_type_symbol
_atom_site_fract_x
_atom_site_fract_y
_atom_site_fract_z
_atom_site_charge
Cu	Cu	0.30176 0.14524 0.19603 0.90400
Cu	Cu	0.01941 0.00857 0.43772 0.90900
Cu	Cu	0.37752 0.97540 0.15022 0.89200
O 	O 	0.73650 0.53420 0.15941 -0.39900
O 	O 	0.46077 0.64130 0.41848 -0.40100
O 	O 	0.37994 0.22130 0.22799 -0.39400
O 	O 	0.04839 0.89230 0.58008 -0.41300
O 	O 	0.61619 0.08040 0.93102 -0.38400
O 	O 	0.44412 0.07200 0.19231 -0.38800
O 	O 	0.41908 0.62350 0.52252 -0.40200
O 	O 	0.07277 0.87370 0.46863 -0.41000
O 	O 	0.29845 0.05660 0.28360 -0.37700
C 	C 	0.32707 0.95570 0.28820 0.32100
O 	O 	0.68910 0.21220 0.89634 -0.39700
O 	O 	0.35898 0.90720 0.24281 -0.40400
O 	O 	0.80152 0.40450 0.10890 -0.40000
C 	C 	0.64114 0.36710 0.13019 0.01300
H 	H 	0.63850 0.41010 0.17140 0.04300
C 	C 	0.65095 0.17270 0.93900 0.35400
C 	C 	0.69509 0.37190 0.09314 -0.09000
C 	C 	0.53390 0.29270 0.14520 0.19800
C 	C 	0.41965 0.66310 0.46162 0.35000
N 	N 	0.53966 0.24890 0.20966 -0.11800
C 	C 	0.07898 0.84850 0.53154 0.35500
C 	C 	0.59119 0.29730 0.10487 -0.05400
C 	C 	0.74880 0.44190 0.12267 0.35400
C 	C 	0.37077 0.80710 0.37525 0.02500
H 	H 	0.40440 0.79670 0.34770 0.04600
C 	C 	0.32294 0.88580 0.35451 -0.09200
O 	O 	0.48400 0.32950 0.12033 -0.20300
C 	C 	0.27264 0.90110 0.39622 0.00800
H 	H 	0.24190 0.95710 0.38370 0.04100
C 	C 	0.26827 0.83240 0.45671 -0.06200
N 	N 	0.17774 0.74770 0.50773 -0.11500
C 	C 	0.64751 0.24100 0.00560 -0.08300
C 	C 	0.43271 0.17320 0.22035 0.35100
C 	C 	0.48674 0.24380 0.25377 -0.07700
H 	H 	0.47410 0.32700 0.26680 0.07900
C 	C 	0.21383 0.84580 0.50184 0.20200
O 	O 	0.20399 0.94290 0.53253 -0.22800
C 	C 	0.69869 0.30750 0.03130 0.03500
H 	H 	0.73480 0.30870 0.00720 0.05000
C 	C 	0.59438 0.23650 0.04282 0.02000
H 	H 	0.56060 0.19210 0.02580 0.05600
C 	C 	0.12607 0.75090 0.55368 -0.08200
H 	H 	0.14060 0.76460 0.60140 0.08400
C 	C 	0.31536 0.75370 0.47709 0.01200
H 	H 	0.31230 0.70710 0.51690 0.05000
C 	C 	0.51178 0.17220 0.31712 -0.05800
H 	H 	0.52730 0.22820 0.35260 0.05400
H 	H 	0.48000 0.12100 0.33600 0.05200
C 	C 	0.59321 0.17990 0.23882 -0.02600
H 	H 	0.62250 0.23460 0.26200 0.04400
H 	H 	0.61380 0.13450 0.20340 0.05000
C 	C 	0.36787 0.74430 0.43749 -0.09000
C 	C 	0.17775 0.63640 0.46360 -0.04100
H 	H 	0.20960 0.57900 0.47880 0.06600
H 	H 	0.18370 0.65780 0.41580 0.05300
C 	C 	0.11373 0.58230 0.47300 -0.10400
H 	H 	0.08440 0.61550 0.43920 0.06600
H 	H 	0.11430 0.49330 0.46890 0.06400
C 	C 	0.09771 0.62120 0.54530 -0.06000
H 	H 	0.11530 0.56480 0.57930 0.05800
H 	H 	0.05350 0.62390 0.54990 0.04600
C 	C 	0.56376 0.09310 0.28963 -0.11800
H 	H 	0.59280 0.06920 0.32630 0.06500
H 	H 	0.54780 0.01970 0.26680 0.08500
Cu	Cu	0.80176 0.64524 0.19603 0.90200
Cu	Cu	0.51941 0.50857 0.43772 0.90100
Cu	Cu	0.87752 0.47540 0.15022 0.90400
O 	O 	0.23650 0.03420 0.15941 -0.37400
O 	O 	0.96077 0.14130 0.41848 -0.39400
O 	O 	0.87994 0.72130 0.22799 -0.39700
O 	O 	0.54839 0.39230 0.58008 -0.40300
O 	O 	0.11619 0.58040 0.93102 -0.39200
O 	O 	0.94412 0.57200 0.19231 -0.39600
O 	O 	0.91908 0.12350 0.52252 -0.39500
O 	O 	0.57277 0.37370 0.46863 -0.40100
O 	O 	0.79845 0.55660 0.28360 -0.40000
C 	C 	0.82707 0.45570 0.28820 0.34800
O 	O 	0.18910 0.71220 0.89634 -0.40200
O 	O 	0.85898 0.40720 0.24281 -0.40300
O 	O 	0.30152 0.90450 0.10890 -0.40200
C 	C 	0.14114 0.86710 0.13019 0.00900
H 	H 	0.13850 0.91010 0.17140 0.04000
C 	C 	0.15095 0.67270 0.93900 0.35500
C 	C 	0.19509 0.87190 0.09314 -0.08600
C 	C 	0.03390 0.79270 0.14520 0.19600
C 	C 	0.91965 0.16310 0.46162 0.35000
N 	N 	0.03966 0.74890 0.20966 -0.11900
C 	C 	0.57898 0.34850 0.53154 0.35000
C 	C 	0.09119 0.79730 0.10487 -0.05400
C 	C 	0.24880 0.94190 0.12267 0.32800
C 	C 	0.87077 0.30710 0.37525 0.02900
H 	H 	0.90440 0.29670 0.34770 0.05000
C 	C 	0.82294 0.38580 0.35451 -0.09300
O 	O 	0.98400 0.82950 0.12033 -0.20500
C 	C 	0.77264 0.40110 0.39622 0.01200
H 	H 	0.74190 0.45710 0.38370 0.04600
C 	C 	0.76827 0.33240 0.45671 -0.05700
N 	N 	0.67774 0.24770 0.50773 -0.11100
C 	C 	0.14751 0.74100 0.00560 -0.08600
C 	C 	0.93271 0.67320 0.22035 0.35100
C 	C 	0.98674 0.74380 0.25377 -0.07600
H 	H 	0.97410 0.82700 0.26680 0.07700
C 	C 	0.71383 0.34580 0.50184 0.20100
O 	O 	0.70399 0.44290 0.53253 -0.21700
C 	C 	0.19869 0.80750 0.03130 0.03100
H 	H 	0.23480 0.80870 0.00720 0.04700
C 	C 	0.09438 0.73650 0.04282 0.01900
H 	H 	0.06060 0.69210 0.02580 0.05500
C 	C 	0.62607 0.25090 0.55368 -0.06600
H 	H 	0.64060 0.26460 0.60140 0.08100
C 	C 	0.81536 0.25370 0.47709 0.01100
H 	H 	0.81230 0.20710 0.51690 0.05500
C 	C 	0.01178 0.67220 0.31712 -0.06100
H 	H 	0.02730 0.72820 0.35260 0.05300
H 	H 	0.98000 0.62100 0.33600 0.05100
C 	C 	0.09321 0.67990 0.23882 -0.02700
H 	H 	0.12250 0.73460 0.26200 0.04300
H 	H 	0.11380 0.63450 0.20340 0.04800
C 	C 	0.86787 0.24430 0.43749 -0.08500
C 	C 	0.67775 0.13640 0.46360 -0.08300
H 	H 	0.70960 0.07900 0.47880 0.08600
H 	H 	0.68370 0.15780 0.41580 0.06800
C 	C 	0.61373 0.08230 0.47300 -0.01900
H 	H 	0.58440 0.11550 0.43920 0.04200
H 	H 	0.61430 0.99330 0.46890 0.02100
C 	C 	0.59771 0.12120 0.54530 -0.10900
H 	H 	0.61530 0.06480 0.57930 0.07900
H 	H 	0.55350 0.12390 0.54990 0.06400
C 	C 	0.06376 0.59310 0.28963 -0.11500
H 	H 	0.09280 0.56920 0.32630 0.06000
H 	H 	0.04780 0.51970 0.26680 0.07900
Cu	Cu	0.69824 0.14524 0.80397 0.90500
Cu	Cu	0.98059 0.00857 0.56228 0.91000
Cu	Cu	0.62248 0.97540 0.84978 0.89200
O 	O 	0.26350 0.53420 0.84059 -0.39900
O 	O 	0.53923 0.64130 0.58152 -0.40100
O 	O 	0.62006 0.22130 0.77201 -0.39400
O 	O 	0.95161 0.89230 0.41992 -0.41300
O 	O 	0.38381 0.08040 0.06898 -0.38400
O 	O 	0.55588 0.07200 0.80769 -0.38800
O 	O 	0.58092 0.62350 0.47748 -0.40200
O 	O 	0.92723 0.87370 0.53137 -0.41000
O 	O 	0.70155 0.05660 0.71640 -0.37700
C 	C 	0.67293 0.95570 0.71180 0.32100
O 	O 	0.31090 0.21220 0.10366 -0.39700
O 	O 	0.64102 0.90720 0.75719 -0.40400
O 	O 	0.19848 0.40450 0.89110 -0.40000
C 	C 	0.35886 0.36710 0.86981 0.01300
H 	H 	0.36150 0.41010 0.82860 0.04300
C 	C 	0.34905 0.17270 0.06100 0.35400
C 	C 	0.30491 0.37190 0.90686 -0.09000
C 	C 	0.46610 0.29270 0.85480 0.19800
C 	C 	0.58035 0.66310 0.53838 0.35000
N 	N 	0.46034 0.24890 0.79034 -0.11800
C 	C 	0.92102 0.84850 0.46846 0.35500
C 	C 	0.40881 0.29730 0.89513 -0.05400
C 	C 	0.25120 0.44190 0.87733 0.35400
C 	C 	0.62923 0.80710 0.62475 0.02500
H 	H 	0.59560 0.79670 0.65230 0.04600
C 	C 	0.67706 0.88580 0.64549 -0.09200
O 	O 	0.51600 0.32950 0.87967 -0.20300
C 	C 	0.72736 0.90110 0.60378 0.00800
H 	H 	0.75810 0.95710 0.61630 0.04100
C 	C 	0.73173 0.83240 0.54329 -0.06200
N 	N 	0.82226 0.74770 0.49227 -0.11500
C 	C 	0.35249 0.24100 0.99440 -0.08300
C 	C 	0.56729 0.17320 0.77965 0.35100
C 	C 	0.51326 0.24380 0.74623 -0.07700
H 	H 	0.52590 0.32700 0.73320 0.07900
C 	C 	0.78617 0.84580 0.49816 0.20200
O 	O 	0.79601 0.94290 0.46747 -0.22800
C 	C 	0.30131 0.30750 0.96870 0.03500
H 	H 	0.26520 0.30870 0.99280 0.05000
C 	C 	0.40562 0.23650 0.95718 0.02000
H 	H 	0.43940 0.19210 0.97420 0.05600
C 	C 	0.87393 0.75090 0.44632 -0.08200
H 	H 	0.85940 0.76460 0.39860 0.08400
C 	C 	0.68464 0.75370 0.52291 0.01200
H 	H 	0.68770 0.70710 0.48310 0.05000
C 	C 	0.48822 0.17220 0.68288 -0.05800
H 	H 	0.47270 0.22820 0.64740 0.05400
H 	H 	0.52000 0.12100 0.66400 0.05200
C 	C 	0.40679 0.17990 0.76118 -0.02600
H 	H 	0.37750 0.23460 0.73800 0.04400
H 	H 	0.38620 0.13450 0.79660 0.05000
C 	C 	0.63213 0.74430 0.56251 -0.09000
C 	C 	0.82225 0.63640 0.53640 -0.04100
H 	H 	0.79040 0.57900 0.52120 0.06600
H 	H 	0.81630 0.65780 0.58420 0.05300
C 	C 	0.88627 0.58230 0.52700 -0.10400
H 	H 	0.91560 0.61550 0.56080 0.06600
H 	H 	0.88570 0.49330 0.53110 0.06400
C 	C 	0.90229 0.62120 0.45470 -0.06000
H 	H 	0.88470 0.56480 0.42070 0.05800
H 	H 	0.94650 0.62390 0.45010 0.04600
C 	C 	0.43624 0.09310 0.71037 -0.11800
H 	H 	0.40720 0.06920 0.67370 0.06500
H 	H 	0.45220 0.01970 0.73320 0.08500
Cu	Cu	0.19824 0.64524 0.80397 0.90200
Cu	Cu	0.48059 0.50857 0.56228 0.90100
Cu	Cu	0.12248 0.47540 0.84978 0.90400
O 	O 	0.76350 0.03420 0.84059 -0.37400
O 	O 	0.03923 0.14130 0.58152 -0.39400
O 	O 	0.12006 0.72130 0.77201 -0.39700
O 	O 	0.45161 0.39230 0.41992 -0.40300
O 	O 	0.88381 0.58040 0.06898 -0.39200
O 	O 	0.05588 0.57200 0.80769 -0.39600
O 	O 	0.08092 0.12350 0.47748 -0.39500
O 	O 	0.42723 0.37370 0.53137 -0.40100
O 	O 	0.20155 0.55660 0.71640 -0.40000
C 	C 	0.17293 0.45570 0.71180 0.34800
O 	O 	0.81090 0.71220 0.10366 -0.40200
O 	O 	0.14102 0.40720 0.75719 -0.40300
O 	O 	0.69848 0.90450 0.89110 -0.40200
C 	C 	0.85886 0.86710 0.86981 0.00900
H 	H 	0.86150 0.91010 0.82860 0.04000
C 	C 	0.84905 0.67270 0.06100 0.35500
C 	C 	0.80491 0.87190 0.90686 -0.08600
C 	C 	0.96610 0.79270 0.85480 0.19600
C 	C 	0.08035 0.16310 0.53838 0.35000
N 	N 	0.96034 0.74890 0.79034 -0.11900
C 	C 	0.42102 0.34850 0.46846 0.35000
C 	C 	0.90881 0.79730 0.89513 -0.05400
C 	C 	0.75120 0.94190 0.87733 0.32800
C 	C 	0.12923 0.30710 0.62475 0.02900
H 	H 	0.09560 0.29670 0.65230 0.05000
C 	C 	0.17706 0.38580 0.64549 -0.09300
O 	O 	0.01600 0.82950 0.87967 -0.20500
C 	C 	0.22736 0.40110 0.60378 0.01200
H 	H 	0.25810 0.45710 0.61630 0.04600
C 	C 	0.23173 0.33240 0.54329 -0.05700
N 	N 	0.32226 0.24770 0.49227 -0.11100
C 	C 	0.85249 0.74100 0.99440 -0.08600
C 	C 	0.06729 0.67320 0.77965 0.35100
C 	C 	0.01326 0.74380 0.74623 -0.07600
H 	H 	0.02590 0.82700 0.73320 0.07700
C 	C 	0.28617 0.34580 0.49816 0.20100
O 	O 	0.29601 0.44290 0.46747 -0.21700
C 	C 	0.80131 0.80750 0.96870 0.03100
H 	H 	0.76520 0.80870 0.99280 0.04700
C 	C 	0.90562 0.73650 0.95718 0.01900
H 	H 	0.93940 0.69210 0.97420 0.05500
C 	C 	0.37393 0.25090 0.44632 -0.06600
H 	H 	0.35940 0.26460 0.39860 0.08100
C 	C 	0.18464 0.25370 0.52291 0.01100
H 	H 	0.18770 0.20710 0.48310 0.05500
C 	C 	0.98822 0.67220 0.68288 -0.06100
H 	H 	0.97270 0.72820 0.64740 0.05300
H 	H 	0.02000 0.62100 0.66400 0.05100
C 	C 	0.90679 0.67990 0.76118 -0.02700
H 	H 	0.87750 0.73460 0.73800 0.04300
H 	H 	0.88620 0.63450 0.79660 0.04800
C 	C 	0.13213 0.24430 0.56251 -0.08500
C 	C 	0.32225 0.13640 0.53640 -0.08300
H 	H 	0.29040 0.07900 0.52120 0.08600
H 	H 	0.31630 0.15780 0.58420 0.06800
C 	C 	0.38627 0.08230 0.52700 -0.01900
H 	H 	0.41560 0.11550 0.56080 0.04200
H 	H 	0.38570 0.99330 0.53110 0.02100
C 	C 	0.40229 0.12120 0.45470 -0.10900
H 	H 	0.38470 0.06480 0.42070 0.07900
H 	H 	0.44650 0.12390 0.45010 0.06400
C 	C 	0.93624 0.59310 0.71037 -0.11500
H 	H 	0.90720 0.56920 0.67370 0.06000
H 	H 	0.95220 0.51970 0.73320 0.07900
