data_crystal

_cell_length_a 12.47360
_cell_length_b 12.47360
_cell_length_c 70.28840
_cell_angle_alpha 90.00000
_cell_angle_beta  90.00000
_cell_angle_gamma 90.00000

_symmetry_space_group_name_	'P 1'
_symmetry_space_group_name_H-M	'P 1'

loop_
_symmetry_equiv_pos_as_xyz
  x,y,z

loop_
_atom_site_label
_atom_site_type_symbol
_atom_site_fract_x
_atom_site_fract_y
_atom_site_fract_z
_atom_site_charge
Cu	Cu	0.31190 0.42238 0.11676 0.92700
Cu	Cu	0.38252 0.36155 0.08271 0.90100
Cu	Cu	0.96480 0.33602 0.99928 0.90100
Cu	Cu	0.76736 0.38250 0.00471 0.89900
O 	O 	0.22790 0.33710 0.07828 -0.39200
O 	O 	0.39800 0.22180 0.09453 -0.40600
O 	O 	0.30140 0.56070 0.10222 -0.38500
O 	O 	0.45390 0.46490 0.12404 -0.38100
O 	O 	0.17090 0.37980 0.10762 -0.40200
O 	O 	0.34950 0.27400 0.12381 -0.38800
O 	O 	0.36360 0.50690 0.07366 -0.39400
O 	O 	0.25530 0.99300 0.10818 -0.29000
O 	O 	0.51770 0.41160 0.09542 -0.38900
C 	C 	0.33410 0.57860 0.08577 0.33900
C 	C 	0.15530 0.35480 0.09082 0.35700
C 	C 	0.33800 0.77360 0.09248 0.01100
H 	H 	0.32780 0.75780 0.10530 0.05600
N 	N 	0.43470 0.01680 0.10603 -0.10800
C 	C 	0.95900 0.36870 0.09702 0.01500
H 	H 	0.97410 0.37400 0.10990 0.04700
C 	C 	0.89290 0.34910 0.03759 0.39200
C 	C 	0.35070 0.88050 0.08661 -0.06000
C 	C 	0.36180 0.84490 0.03296 0.38600
C 	C 	0.34420 0.96780 0.10121 0.20800
C 	C 	0.35780 0.90490 0.06719 0.02000
H 	H 	0.36370 0.97550 0.06310 0.04700
C 	C 	0.34060 0.69210 0.07925 -0.09200
C 	C 	0.52570 0.45840 0.11158 0.33800
C 	C 	0.85300 0.37820 0.09055 -0.06400
O 	O 	0.79930 0.36600 0.03210 -0.41400
O 	O 	0.96830 0.33000 0.02682 -0.42800
C 	C 	0.04080 0.35150 0.08415 -0.09200
C 	C 	0.02050 0.34100 0.06456 0.05300
H 	H 	0.07600 0.32880 0.05600 0.04900
N 	N 	0.71490 0.49360 0.10259 -0.12500
C 	C 	0.38830 0.20860 0.11191 0.36600
C 	C 	0.76490 0.40440 0.10501 0.21400
C 	C 	0.34980 0.71540 0.06006 0.03700
H 	H 	0.35180 0.66040 0.05120 0.05000
O 	O 	0.75000 0.34260 0.11838 -0.23400
O 	O 	0.75520 0.21730 0.00502 -0.36500
O 	O 	0.37790 0.76640 0.02259 -0.43300
C 	C 	0.91580 0.34940 0.05848 -0.11500
O 	O 	0.35390 0.93920 0.02813 -0.41500
C 	C 	0.83170 0.36900 0.07138 0.02600
H 	H 	0.76170 0.37580 0.06700 0.04100
C 	C 	0.62590 0.52100 0.11589 -0.07800
H 	H 	0.64810 0.51020 0.12910 0.08000
C 	C 	0.35580 0.82090 0.05423 -0.09700
O 	O 	0.93990 0.18540 0.99802 -0.38200
C 	C 	0.55290 0.12280 0.12463 -0.07600
H 	H 	0.56660 0.19720 0.12780 0.07000
H 	H 	0.57700 0.07750 0.13500 0.06400
C 	C 	0.43270 0.10390 0.12017 -0.07700
H 	H 	0.39320 0.08250 0.13160 0.09100
C 	C 	0.54200 0.99810 0.09851 -0.04600
H 	H 	0.54100 0.99620 0.08470 0.05100
H 	H 	0.57080 0.93090 0.10320 0.05200
O 	O 	0.49930 0.96420 0.99877 -0.47400
C 	C 	0.73230 0.57870 0.08831 -0.04000
H 	H 	0.72560 0.55190 0.07540 0.05300
H 	H 	0.80130 0.61350 0.08990 0.04900
C 	C 	0.60800 0.09130 0.10554 -0.09200
H 	H 	0.68190 0.07020 0.10760 0.06700
H 	H 	0.60620 0.15030 0.09660 0.07700
C 	C 	0.70480 0.00670 0.99900 0.11900
C 	C 	0.60840 0.64050 0.11170 -0.06700
H 	H 	0.53400 0.65970 0.11380 0.06200
H 	H 	0.65280 0.68400 0.12000 0.06900
C 	C 	0.68290 0.91560 0.99850 -0.12000
C 	C 	0.63490 0.65580 0.09401 -0.09300
H 	H 	0.65580 0.73000 0.09220 0.06100
H 	H 	0.57380 0.64120 0.08590 0.06900
C 	C 	0.54430 0.89150 0.99630 0.42000
C 	C 	0.81790 0.04310 0.99960 -0.09000
C 	C 	0.84200 0.16410 0.00149 0.30600
O 	O 	0.53160 0.78720 0.99487 -0.41400
C 	C 	0.88710 0.95760 0.99882 0.06500
C 	C 	0.76180 0.83440 0.99626 0.06400
Cu	Cu	0.68810 0.57762 0.61676 0.92800
Cu	Cu	0.61748 0.63845 0.58271 0.90200
Cu	Cu	0.03520 0.66398 0.49928 0.90200
Cu	Cu	0.23264 0.61750 0.50471 0.90000
O 	O 	0.77210 0.66290 0.57828 -0.39100
O 	O 	0.60200 0.77820 0.59453 -0.40500
O 	O 	0.69860 0.43930 0.60222 -0.38500
O 	O 	0.54610 0.53510 0.62404 -0.38100
O 	O 	0.82910 0.62020 0.60762 -0.40200
O 	O 	0.65050 0.72600 0.62381 -0.38800
O 	O 	0.63640 0.49310 0.57366 -0.39400
O 	O 	0.74470 0.00700 0.60818 -0.29000
O 	O 	0.48230 0.58840 0.59542 -0.38900
C 	C 	0.66590 0.42140 0.58577 0.33900
C 	C 	0.84470 0.64520 0.59082 0.35700
C 	C 	0.66200 0.22640 0.59248 0.01100
H 	H 	0.67220 0.24220 0.60530 0.05600
N 	N 	0.56530 0.98320 0.60603 -0.10800
C 	C 	0.04100 0.63130 0.59702 0.01500
H 	H 	0.02590 0.62600 0.60990 0.04700
C 	C 	0.10710 0.65090 0.53759 0.39200
C 	C 	0.64930 0.11950 0.58661 -0.06000
C 	C 	0.63820 0.15510 0.53296 0.38600
C 	C 	0.65580 0.03220 0.60121 0.20800
C 	C 	0.64220 0.09510 0.56719 0.02000
H 	H 	0.63630 0.02450 0.56310 0.04700
C 	C 	0.65940 0.30790 0.57925 -0.09200
C 	C 	0.47430 0.54160 0.61158 0.33800
C 	C 	0.14700 0.62180 0.59055 -0.06400
O 	O 	0.20070 0.63400 0.53210 -0.41400
O 	O 	0.03170 0.67000 0.52682 -0.42800
C 	C 	0.95920 0.64850 0.58415 -0.09200
C 	C 	0.97950 0.65900 0.56456 0.05300
H 	H 	0.92400 0.67120 0.55600 0.04900
N 	N 	0.28510 0.50640 0.60259 -0.12500
C 	C 	0.61170 0.79140 0.61191 0.36600
C 	C 	0.23510 0.59560 0.60501 0.21400
C 	C 	0.65020 0.28460 0.56006 0.03700
H 	H 	0.64820 0.33960 0.55120 0.05000
O 	O 	0.25000 0.65740 0.61838 -0.23400
O 	O 	0.24480 0.78270 0.50502 -0.36500
O 	O 	0.62210 0.23360 0.52259 -0.43300
C 	C 	0.08420 0.65060 0.55848 -0.11500
O 	O 	0.64610 0.06080 0.52813 -0.41500
C 	C 	0.16830 0.63100 0.57138 0.02600
H 	H 	0.23830 0.62420 0.56700 0.04100
C 	C 	0.37410 0.47900 0.61589 -0.07800
H 	H 	0.35190 0.48980 0.62910 0.08000
C 	C 	0.64420 0.17910 0.55423 -0.09700
O 	O 	0.06010 0.81460 0.49802 -0.38200
C 	C 	0.44710 0.87720 0.62463 -0.07600
H 	H 	0.43340 0.80280 0.62780 0.07000
H 	H 	0.42300 0.92250 0.63500 0.06400
C 	C 	0.56730 0.89610 0.62017 -0.07700
H 	H 	0.60680 0.91750 0.63160 0.09100
C 	C 	0.45800 0.00190 0.59851 -0.04600
H 	H 	0.45900 0.00380 0.58470 0.05100
H 	H 	0.42920 0.06910 0.60320 0.05200
O 	O 	0.50070 0.03580 0.49877 -0.47400
C 	C 	0.26770 0.42130 0.58831 -0.04000
H 	H 	0.27440 0.44810 0.57540 0.05300
H 	H 	0.19870 0.38650 0.58990 0.04900
C 	C 	0.39200 0.90870 0.60554 -0.09200
H 	H 	0.31810 0.92980 0.60760 0.06700
H 	H 	0.39380 0.84970 0.59660 0.07700
C 	C 	0.29520 0.99330 0.49900 0.11900
C 	C 	0.39160 0.35950 0.61170 -0.06700
H 	H 	0.46600 0.34030 0.61380 0.06200
H 	H 	0.34720 0.31600 0.62000 0.06900
C 	C 	0.31710 0.08440 0.49850 -0.12000
C 	C 	0.36510 0.34420 0.59401 -0.09300
H 	H 	0.34420 0.27000 0.59220 0.06100
H 	H 	0.42620 0.35880 0.58590 0.06900
C 	C 	0.45570 0.10850 0.49630 0.42000
C 	C 	0.18210 0.95690 0.49960 -0.09000
C 	C 	0.15800 0.83590 0.50149 0.30600
O 	O 	0.46840 0.21280 0.49487 -0.41400
C 	C 	0.11290 0.04240 0.49882 0.06500
C 	C 	0.23820 0.16560 0.49626 0.06400
Cu	Cu	0.07762 0.81190 0.36676 0.92600
Cu	Cu	0.13845 0.88252 0.33271 0.89900
Cu	Cu	0.16398 0.46480 0.24928 0.90200
Cu	Cu	0.11750 0.26736 0.25471 0.89900
O 	O 	0.16290 0.72790 0.32828 -0.39500
O 	O 	0.27820 0.89800 0.34453 -0.40900
O 	O 	0.93930 0.80140 0.35222 -0.38000
O 	O 	0.03510 0.95390 0.37404 -0.38400
O 	O 	0.12020 0.67090 0.35762 -0.40500
O 	O 	0.22600 0.84950 0.37381 -0.38900
O 	O 	0.99310 0.86360 0.32366 -0.38900
O 	O 	0.50700 0.75530 0.35818 -0.28800
O 	O 	0.08840 0.01770 0.34542 -0.38800
C 	C 	0.92140 0.83410 0.33577 0.33900
C 	C 	0.14520 0.65530 0.34082 0.35700
C 	C 	0.72640 0.83800 0.34248 0.01300
H 	H 	0.74220 0.82780 0.35530 0.05600
N 	N 	0.48320 0.93470 0.35603 -0.12100
C 	C 	0.13130 0.45900 0.34702 0.01900
H 	H 	0.12600 0.47410 0.35990 0.04400
C 	C 	0.15090 0.39290 0.28759 0.39000
C 	C 	0.61950 0.85070 0.33661 -0.06300
C 	C 	0.65510 0.86180 0.28296 0.38600
C 	C 	0.53220 0.84420 0.35121 0.21800
C 	C 	0.59510 0.85780 0.31719 0.02200
H 	H 	0.52450 0.86370 0.31310 0.04700
C 	C 	0.80790 0.84060 0.32925 -0.09200
C 	C 	0.04160 0.02570 0.36158 0.32800
C 	C 	0.12180 0.35300 0.34055 -0.06700
O 	O 	0.13400 0.29930 0.28210 -0.41500
O 	O 	0.17000 0.46830 0.27682 -0.42700
C 	C 	0.14850 0.54080 0.33415 -0.09600
C 	C 	0.15900 0.52050 0.31456 0.04600
H 	H 	0.17120 0.57600 0.30600 0.04800
N 	N 	0.00640 0.21490 0.35259 -0.13400
C 	C 	0.29140 0.88830 0.36191 0.36600
C 	C 	0.09560 0.26490 0.35501 0.21400
C 	C 	0.78460 0.84980 0.31006 0.03700
H 	H 	0.83960 0.85180 0.30120 0.05100
O 	O 	0.15740 0.25000 0.36838 -0.23600
O 	O 	0.28270 0.25520 0.25502 -0.36500
O 	O 	0.73360 0.87790 0.27259 -0.43400
C 	C 	0.15060 0.41580 0.30848 -0.11200
O 	O 	0.56080 0.85390 0.27813 -0.41500
C 	C 	0.13100 0.33170 0.32138 0.02500
H 	H 	0.12420 0.26170 0.31700 0.04000
C 	C 	0.97900 0.12590 0.36589 -0.06100
H 	H 	0.98980 0.14810 0.37910 0.07800
C 	C 	0.67910 0.85580 0.30423 -0.09800
O 	O 	0.31460 0.43990 0.24802 -0.38300
C 	C 	0.37720 0.05290 0.37463 -0.06200
H 	H 	0.30280 0.06660 0.37780 0.06500
H 	H 	0.42250 0.07700 0.38500 0.05700
C 	C 	0.39610 0.93270 0.37017 -0.08200
H 	H 	0.41750 0.89320 0.38160 0.09000
C 	C 	0.50190 0.04200 0.34851 -0.01300
H 	H 	0.50380 0.04100 0.33470 0.04500
H 	H 	0.56910 0.07080 0.35320 0.04400
O 	O 	0.53580 0.99930 0.24877 -0.48200
C 	C 	0.92130 0.23230 0.33831 -0.03500
H 	H 	0.94810 0.22560 0.32540 0.05500
H 	H 	0.88650 0.30130 0.33990 0.05000
C 	C 	0.40870 0.10800 0.35554 -0.12100
H 	H 	0.42980 0.18190 0.35760 0.07400
H 	H 	0.34970 0.10620 0.34660 0.08400
C 	C 	0.49330 0.20480 0.24900 0.11100
C 	C 	0.85950 0.10840 0.36170 -0.07800
H 	H 	0.84030 0.03400 0.36380 0.06600
H 	H 	0.81600 0.15280 0.37000 0.07300
C 	C 	0.58440 0.18290 0.24850 -0.11100
C 	C 	0.84420 0.13490 0.34401 -0.08700
H 	H 	0.77000 0.15580 0.34220 0.06100
H 	H 	0.85880 0.07380 0.33590 0.06900
C 	C 	0.60850 0.04430 0.24630 0.43100
C 	C 	0.45690 0.31790 0.24960 -0.09500
C 	C 	0.33590 0.34200 0.25149 0.30700
O 	O 	0.71280 0.03160 0.24487 -0.41300
C 	C 	0.54240 0.38710 0.24882 0.07300
C 	C 	0.66560 0.26180 0.24626 0.06600
Cu	Cu	0.92238 0.18810 0.86676 0.92600
Cu	Cu	0.86155 0.11748 0.83271 0.89900
Cu	Cu	0.83602 0.53520 0.74928 0.90200
Cu	Cu	0.88250 0.73264 0.75471 0.89900
O 	O 	0.83710 0.27210 0.82828 -0.39500
O 	O 	0.72180 0.10200 0.84453 -0.40900
O 	O 	0.06070 0.19860 0.85222 -0.38000
O 	O 	0.96490 0.04610 0.87404 -0.38400
O 	O 	0.87980 0.32910 0.85762 -0.40500
O 	O 	0.77400 0.15050 0.87381 -0.38900
O 	O 	0.00690 0.13640 0.82366 -0.38900
O 	O 	0.49300 0.24470 0.85818 -0.28800
O 	O 	0.91160 0.98230 0.84542 -0.38800
C 	C 	0.07860 0.16590 0.83577 0.33900
C 	C 	0.85480 0.34470 0.84082 0.35700
C 	C 	0.27360 0.16200 0.84248 0.01300
H 	H 	0.25780 0.17220 0.85530 0.05600
N 	N 	0.51680 0.06530 0.85603 -0.12100
C 	C 	0.86870 0.54100 0.84702 0.01900
H 	H 	0.87400 0.52590 0.85990 0.04400
C 	C 	0.84910 0.60710 0.78759 0.39000
C 	C 	0.38050 0.14930 0.83661 -0.06300
C 	C 	0.34490 0.13820 0.78296 0.38600
C 	C 	0.46780 0.15580 0.85121 0.21800
C 	C 	0.40490 0.14220 0.81719 0.02200
H 	H 	0.47550 0.13630 0.81310 0.04700
C 	C 	0.19210 0.15940 0.82925 -0.09200
C 	C 	0.95840 0.97430 0.86158 0.32800
C 	C 	0.87820 0.64700 0.84055 -0.06700
O 	O 	0.86600 0.70070 0.78210 -0.41500
O 	O 	0.83000 0.53170 0.77682 -0.42700
C 	C 	0.85150 0.45920 0.83415 -0.09600
C 	C 	0.84100 0.47950 0.81456 0.04600
H 	H 	0.82880 0.42400 0.80600 0.04800
N 	N 	0.99360 0.78510 0.85259 -0.13400
C 	C 	0.70860 0.11170 0.86191 0.36600
C 	C 	0.90440 0.73510 0.85501 0.21400
C 	C 	0.21540 0.15020 0.81006 0.03700
H 	H 	0.16040 0.14820 0.80120 0.05100
O 	O 	0.84260 0.75000 0.86838 -0.23600
O 	O 	0.71730 0.74480 0.75502 -0.36500
O 	O 	0.26640 0.12210 0.77259 -0.43400
C 	C 	0.84940 0.58420 0.80848 -0.11200
O 	O 	0.43920 0.14610 0.77813 -0.41500
C 	C 	0.86900 0.66830 0.82138 0.02500
H 	H 	0.87580 0.73830 0.81700 0.04000
C 	C 	0.02100 0.87410 0.86589 -0.06100
H 	H 	0.01020 0.85190 0.87910 0.07800
C 	C 	0.32090 0.14420 0.80423 -0.09800
O 	O 	0.68540 0.56010 0.74802 -0.38300
C 	C 	0.62280 0.94710 0.87463 -0.06200
H 	H 	0.69720 0.93340 0.87780 0.06500
H 	H 	0.57750 0.92300 0.88500 0.05700
C 	C 	0.60390 0.06730 0.87017 -0.08200
H 	H 	0.58250 0.10680 0.88160 0.09000
C 	C 	0.49810 0.95800 0.84851 -0.01300
H 	H 	0.49620 0.95900 0.83470 0.04500
H 	H 	0.43090 0.92920 0.85320 0.04400
O 	O 	0.46420 0.00070 0.74877 -0.48200
C 	C 	0.07870 0.76770 0.83831 -0.03500
H 	H 	0.05190 0.77440 0.82540 0.05500
H 	H 	0.11350 0.69870 0.83990 0.05000
C 	C 	0.59130 0.89200 0.85554 -0.12100
H 	H 	0.57020 0.81810 0.85760 0.07400
H 	H 	0.65030 0.89380 0.84660 0.08400
C 	C 	0.50670 0.79520 0.74900 0.11100
C 	C 	0.14050 0.89160 0.86170 -0.07800
H 	H 	0.15970 0.96600 0.86380 0.06600
H 	H 	0.18400 0.84720 0.87000 0.07300
C 	C 	0.41560 0.81710 0.74850 -0.11100
C 	C 	0.15580 0.86510 0.84401 -0.08700
H 	H 	0.23000 0.84420 0.84220 0.06100
H 	H 	0.14120 0.92620 0.83590 0.06900
C 	C 	0.39150 0.95570 0.74630 0.43100
C 	C 	0.54310 0.68210 0.74960 -0.09500
C 	C 	0.66410 0.65800 0.75149 0.30700
O 	O 	0.28720 0.96840 0.74487 -0.41300
C 	C 	0.45760 0.61290 0.74882 0.07300
C 	C 	0.33440 0.73820 0.74626 0.06600
Cu	Cu	0.18810 0.92238 0.13324 0.92600
Cu	Cu	0.11748 0.86155 0.16729 0.89900
Cu	Cu	0.53520 0.83602 0.25072 0.90200
Cu	Cu	0.73264 0.88250 0.24529 0.89900
O 	O 	0.27210 0.83710 0.17172 -0.39500
O 	O 	0.10200 0.72180 0.15547 -0.40900
O 	O 	0.19860 0.06070 0.14778 -0.38000
O 	O 	0.04610 0.96490 0.12596 -0.38400
O 	O 	0.32910 0.87980 0.14238 -0.40500
O 	O 	0.15050 0.77400 0.12619 -0.38900
O 	O 	0.13640 0.00690 0.17634 -0.38900
O 	O 	0.24470 0.49300 0.14182 -0.28800
O 	O 	0.98230 0.91160 0.15458 -0.38800
C 	C 	0.16590 0.07860 0.16423 0.33900
C 	C 	0.34470 0.85480 0.15918 0.35700
C 	C 	0.16200 0.27360 0.15752 0.01300
H 	H 	0.17220 0.25780 0.14470 0.05600
N 	N 	0.06530 0.51680 0.14397 -0.12100
C 	C 	0.54100 0.86870 0.15298 0.01900
H 	H 	0.52590 0.87400 0.14010 0.04400
C 	C 	0.60710 0.84910 0.21241 0.39000
C 	C 	0.14930 0.38050 0.16339 -0.06300
C 	C 	0.13820 0.34490 0.21704 0.38600
C 	C 	0.15580 0.46780 0.14879 0.21800
C 	C 	0.14220 0.40490 0.18281 0.02200
H 	H 	0.13630 0.47550 0.18690 0.04700
C 	C 	0.15940 0.19210 0.17075 -0.09200
C 	C 	0.97430 0.95840 0.13842 0.32800
C 	C 	0.64700 0.87820 0.15945 -0.06700
O 	O 	0.70070 0.86600 0.21790 -0.41500
O 	O 	0.53170 0.83000 0.22318 -0.42700
C 	C 	0.45920 0.85150 0.16585 -0.09600
C 	C 	0.47950 0.84100 0.18544 0.04600
H 	H 	0.42400 0.82880 0.19400 0.04800
N 	N 	0.78510 0.99360 0.14741 -0.13400
C 	C 	0.11170 0.70860 0.13809 0.36600
C 	C 	0.73510 0.90440 0.14499 0.21400
C 	C 	0.15020 0.21540 0.18994 0.03700
H 	H 	0.14820 0.16040 0.19880 0.05100
O 	O 	0.75000 0.84260 0.13162 -0.23600
O 	O 	0.74480 0.71730 0.24498 -0.36500
O 	O 	0.12210 0.26640 0.22741 -0.43400
C 	C 	0.58420 0.84940 0.19152 -0.11200
O 	O 	0.14610 0.43920 0.22187 -0.41500
C 	C 	0.66830 0.86900 0.17862 0.02500
H 	H 	0.73830 0.87580 0.18300 0.04000
C 	C 	0.87410 0.02100 0.13411 -0.06100
H 	H 	0.85190 0.01020 0.12090 0.07800
C 	C 	0.14420 0.32090 0.19577 -0.09800
O 	O 	0.56010 0.68540 0.25198 -0.38300
C 	C 	0.94710 0.62280 0.12537 -0.06200
H 	H 	0.93340 0.69720 0.12220 0.06500
H 	H 	0.92300 0.57750 0.11500 0.05700
C 	C 	0.06730 0.60390 0.12983 -0.08200
H 	H 	0.10680 0.58250 0.11840 0.09000
C 	C 	0.95800 0.49810 0.15149 -0.01300
H 	H 	0.95900 0.49620 0.16530 0.04500
H 	H 	0.92920 0.43090 0.14680 0.04400
O 	O 	0.00070 0.46420 0.25123 -0.48200
C 	C 	0.76770 0.07870 0.16169 -0.03500
H 	H 	0.77440 0.05190 0.17460 0.05500
H 	H 	0.69870 0.11350 0.16010 0.05000
C 	C 	0.89200 0.59130 0.14446 -0.12100
H 	H 	0.81810 0.57020 0.14240 0.07400
H 	H 	0.89380 0.65030 0.15340 0.08400
C 	C 	0.79520 0.50670 0.25100 0.11100
C 	C 	0.89160 0.14050 0.13830 -0.07800
H 	H 	0.96600 0.15970 0.13620 0.06600
H 	H 	0.84720 0.18400 0.13000 0.07300
C 	C 	0.81710 0.41560 0.25150 -0.11100
C 	C 	0.86510 0.15580 0.15599 -0.08700
H 	H 	0.84420 0.23000 0.15780 0.06100
H 	H 	0.92620 0.14120 0.16410 0.06900
C 	C 	0.95570 0.39150 0.25370 0.43100
C 	C 	0.68210 0.54310 0.25040 -0.09500
C 	C 	0.65800 0.66410 0.24851 0.30700
O 	O 	0.96840 0.28720 0.25513 -0.41300
C 	C 	0.61290 0.45760 0.25118 0.07300
C 	C 	0.73820 0.33440 0.25374 0.06600
Cu	Cu	0.81190 0.07762 0.63324 0.92600
Cu	Cu	0.88252 0.13845 0.66729 0.89900
Cu	Cu	0.46480 0.16398 0.75072 0.90200
Cu	Cu	0.26736 0.11750 0.74529 0.89900
O 	O 	0.72790 0.16290 0.67172 -0.39500
O 	O 	0.89800 0.27820 0.65547 -0.40900
O 	O 	0.80140 0.93930 0.64778 -0.38000
O 	O 	0.95390 0.03510 0.62596 -0.38400
O 	O 	0.67090 0.12020 0.64238 -0.40500
O 	O 	0.84950 0.22600 0.62619 -0.38900
O 	O 	0.86360 0.99310 0.67634 -0.38900
O 	O 	0.75530 0.50700 0.64182 -0.28800
O 	O 	0.01770 0.08840 0.65458 -0.38800
C 	C 	0.83410 0.92140 0.66423 0.33900
C 	C 	0.65530 0.14520 0.65918 0.35700
C 	C 	0.83800 0.72640 0.65752 0.01300
H 	H 	0.82780 0.74220 0.64470 0.05600
N 	N 	0.93470 0.48320 0.64397 -0.12100
C 	C 	0.45900 0.13130 0.65298 0.01900
H 	H 	0.47410 0.12600 0.64010 0.04400
C 	C 	0.39290 0.15090 0.71241 0.39000
C 	C 	0.85070 0.61950 0.66339 -0.06300
C 	C 	0.86180 0.65510 0.71704 0.38600
C 	C 	0.84420 0.53220 0.64879 0.21800
C 	C 	0.85780 0.59510 0.68281 0.02200
H 	H 	0.86370 0.52450 0.68690 0.04700
C 	C 	0.84060 0.80790 0.67075 -0.09200
C 	C 	0.02570 0.04160 0.63842 0.32800
C 	C 	0.35300 0.12180 0.65945 -0.06700
O 	O 	0.29930 0.13400 0.71790 -0.41500
O 	O 	0.46830 0.17000 0.72318 -0.42700
C 	C 	0.54080 0.14850 0.66585 -0.09600
C 	C 	0.52050 0.15900 0.68544 0.04600
H 	H 	0.57600 0.17120 0.69400 0.04800
N 	N 	0.21490 0.00640 0.64741 -0.13400
C 	C 	0.88830 0.29140 0.63809 0.36600
C 	C 	0.26490 0.09560 0.64499 0.21400
C 	C 	0.84980 0.78460 0.68994 0.03700
H 	H 	0.85180 0.83960 0.69880 0.05100
O 	O 	0.25000 0.15740 0.63162 -0.23600
O 	O 	0.25520 0.28270 0.74498 -0.36500
O 	O 	0.87790 0.73360 0.72741 -0.43400
C 	C 	0.41580 0.15060 0.69152 -0.11200
O 	O 	0.85390 0.56080 0.72187 -0.41500
C 	C 	0.33170 0.13100 0.67862 0.02500
H 	H 	0.26170 0.12420 0.68300 0.04000
C 	C 	0.12590 0.97900 0.63411 -0.06100
H 	H 	0.14810 0.98980 0.62090 0.07800
C 	C 	0.85580 0.67910 0.69577 -0.09800
O 	O 	0.43990 0.31460 0.75198 -0.38300
C 	C 	0.05290 0.37720 0.62537 -0.06200
H 	H 	0.06660 0.30280 0.62220 0.06500
H 	H 	0.07700 0.42250 0.61500 0.05700
C 	C 	0.93270 0.39610 0.62983 -0.08200
H 	H 	0.89320 0.41750 0.61840 0.09000
C 	C 	0.04200 0.50190 0.65149 -0.01300
H 	H 	0.04100 0.50380 0.66530 0.04500
H 	H 	0.07080 0.56910 0.64680 0.04400
O 	O 	0.99930 0.53580 0.75123 -0.48200
C 	C 	0.23230 0.92130 0.66169 -0.03500
H 	H 	0.22560 0.94810 0.67460 0.05500
H 	H 	0.30130 0.88650 0.66010 0.05000
C 	C 	0.10800 0.40870 0.64446 -0.12100
H 	H 	0.18190 0.42980 0.64240 0.07400
H 	H 	0.10620 0.34970 0.65340 0.08400
C 	C 	0.20480 0.49330 0.75100 0.11100
C 	C 	0.10840 0.85950 0.63830 -0.07800
H 	H 	0.03400 0.84030 0.63620 0.06600
H 	H 	0.15280 0.81600 0.63000 0.07300
C 	C 	0.18290 0.58440 0.75150 -0.11100
C 	C 	0.13490 0.84420 0.65599 -0.08700
H 	H 	0.15580 0.77000 0.65780 0.06100
H 	H 	0.07380 0.85880 0.66410 0.06900
C 	C 	0.04430 0.60850 0.75370 0.43100
C 	C 	0.31790 0.45690 0.75040 -0.09500
C 	C 	0.34200 0.33590 0.74851 0.30700
O 	O 	0.03160 0.71280 0.75513 -0.41300
C 	C 	0.38710 0.54240 0.75118 0.07300
C 	C 	0.26180 0.66560 0.75374 0.06600
Cu	Cu	0.42238 0.31190 0.88324 0.92800
Cu	Cu	0.36155 0.38252 0.91729 0.90200
Cu	Cu	0.33602 0.96480 0.00072 0.90200
Cu	Cu	0.38250 0.76736 0.99529 0.90000
O 	O 	0.33710 0.22790 0.92172 -0.39100
O 	O 	0.22180 0.39800 0.90547 -0.40500
O 	O 	0.56070 0.30140 0.89778 -0.38500
O 	O 	0.46490 0.45390 0.87596 -0.38100
O 	O 	0.37980 0.17090 0.89238 -0.40200
O 	O 	0.27400 0.34950 0.87619 -0.38800
O 	O 	0.50690 0.36360 0.92634 -0.39400
O 	O 	0.99300 0.25530 0.89182 -0.29000
O 	O 	0.41160 0.51770 0.90458 -0.38900
C 	C 	0.57860 0.33410 0.91423 0.33900
C 	C 	0.35480 0.15530 0.90918 0.35700
C 	C 	0.77360 0.33800 0.90752 0.01100
H 	H 	0.75780 0.32780 0.89470 0.05600
N 	N 	0.01680 0.43470 0.89397 -0.10800
C 	C 	0.36870 0.95900 0.90298 0.01500
H 	H 	0.37400 0.97410 0.89010 0.04700
C 	C 	0.34910 0.89290 0.96241 0.39200
C 	C 	0.88050 0.35070 0.91339 -0.06000
C 	C 	0.84490 0.36180 0.96704 0.38600
C 	C 	0.96780 0.34420 0.89879 0.20800
C 	C 	0.90490 0.35780 0.93281 0.02000
H 	H 	0.97550 0.36370 0.93690 0.04700
C 	C 	0.69210 0.34060 0.92075 -0.09200
C 	C 	0.45840 0.52570 0.88842 0.33800
C 	C 	0.37820 0.85300 0.90945 -0.06400
O 	O 	0.36600 0.79930 0.96790 -0.41400
O 	O 	0.33000 0.96830 0.97318 -0.42800
C 	C 	0.35150 0.04080 0.91585 -0.09200
C 	C 	0.34100 0.02050 0.93544 0.05300
H 	H 	0.32880 0.07600 0.94400 0.04900
N 	N 	0.49360 0.71490 0.89741 -0.12500
C 	C 	0.20860 0.38830 0.88809 0.36600
C 	C 	0.40440 0.76490 0.89499 0.21400
C 	C 	0.71540 0.34980 0.93994 0.03700
H 	H 	0.66040 0.35180 0.94880 0.05000
O 	O 	0.34260 0.75000 0.88162 -0.23400
O 	O 	0.21730 0.75520 0.99498 -0.36500
O 	O 	0.76640 0.37790 0.97741 -0.43300
C 	C 	0.34940 0.91580 0.94152 -0.11500
O 	O 	0.93920 0.35390 0.97187 -0.41500
C 	C 	0.36900 0.83170 0.92862 0.02600
H 	H 	0.37580 0.76170 0.93300 0.04100
C 	C 	0.52100 0.62590 0.88411 -0.07800
H 	H 	0.51020 0.64810 0.87090 0.08000
C 	C 	0.82090 0.35580 0.94577 -0.09700
O 	O 	0.18540 0.93990 0.00198 -0.38200
C 	C 	0.12280 0.55290 0.87537 -0.07600
H 	H 	0.19720 0.56660 0.87220 0.07000
H 	H 	0.07750 0.57700 0.86500 0.06400
C 	C 	0.10390 0.43270 0.87983 -0.07700
H 	H 	0.08250 0.39320 0.86840 0.09100
C 	C 	0.99810 0.54200 0.90149 -0.04600
H 	H 	0.99620 0.54100 0.91530 0.05100
H 	H 	0.93090 0.57080 0.89680 0.05200
O 	O 	0.96420 0.49930 0.00123 -0.47400
C 	C 	0.57870 0.73230 0.91169 -0.04000
H 	H 	0.55190 0.72560 0.92460 0.05300
H 	H 	0.61350 0.80130 0.91010 0.04900
C 	C 	0.09130 0.60800 0.89446 -0.09200
H 	H 	0.07020 0.68190 0.89240 0.06700
H 	H 	0.15030 0.60620 0.90340 0.07700
C 	C 	0.00670 0.70480 0.00100 0.11900
C 	C 	0.64050 0.60840 0.88830 -0.06700
H 	H 	0.65970 0.53400 0.88620 0.06200
H 	H 	0.68400 0.65280 0.88000 0.06900
C 	C 	0.91560 0.68290 0.00150 -0.12000
C 	C 	0.65580 0.63490 0.90599 -0.09300
H 	H 	0.73000 0.65580 0.90780 0.06100
H 	H 	0.64120 0.57380 0.91410 0.06900
C 	C 	0.89150 0.54430 0.00370 0.42000
C 	C 	0.04310 0.81790 0.00040 -0.09000
C 	C 	0.16410 0.84200 0.99851 0.30600
O 	O 	0.78720 0.53160 0.00513 -0.41400
C 	C 	0.95760 0.88710 0.00118 0.06500
C 	C 	0.83440 0.76180 0.00374 0.06400
Cu	Cu	0.57762 0.68810 0.38324 0.92800
Cu	Cu	0.63845 0.61748 0.41729 0.90200
Cu	Cu	0.66398 0.03520 0.50072 0.90200
Cu	Cu	0.61750 0.23264 0.49529 0.90000
O 	O 	0.66290 0.77210 0.42172 -0.39100
O 	O 	0.77820 0.60200 0.40547 -0.40500
O 	O 	0.43930 0.69860 0.39778 -0.38500
O 	O 	0.53510 0.54610 0.37596 -0.38100
O 	O 	0.62020 0.82910 0.39238 -0.40200
O 	O 	0.72600 0.65050 0.37619 -0.38800
O 	O 	0.49310 0.63640 0.42634 -0.39400
O 	O 	0.00700 0.74470 0.39182 -0.29000
O 	O 	0.58840 0.48230 0.40458 -0.38900
C 	C 	0.42140 0.66590 0.41423 0.33900
C 	C 	0.64520 0.84470 0.40918 0.35700
C 	C 	0.22640 0.66200 0.40752 0.01100
H 	H 	0.24220 0.67220 0.39470 0.05600
N 	N 	0.98320 0.56530 0.39397 -0.10800
C 	C 	0.63130 0.04100 0.40298 0.01500
H 	H 	0.62600 0.02590 0.39010 0.04700
C 	C 	0.65090 0.10710 0.46241 0.39200
C 	C 	0.11950 0.64930 0.41339 -0.06000
C 	C 	0.15510 0.63820 0.46704 0.38600
C 	C 	0.03220 0.65580 0.39879 0.20800
C 	C 	0.09510 0.64220 0.43281 0.02000
H 	H 	0.02450 0.63630 0.43690 0.04700
C 	C 	0.30790 0.65940 0.42075 -0.09200
C 	C 	0.54160 0.47430 0.38842 0.33800
C 	C 	0.62180 0.14700 0.40945 -0.06400
O 	O 	0.63400 0.20070 0.46790 -0.41400
O 	O 	0.67000 0.03170 0.47318 -0.42800
C 	C 	0.64850 0.95920 0.41585 -0.09200
C 	C 	0.65900 0.97950 0.43544 0.05300
H 	H 	0.67120 0.92400 0.44400 0.04900
N 	N 	0.50640 0.28510 0.39741 -0.12500
C 	C 	0.79140 0.61170 0.38809 0.36600
C 	C 	0.59560 0.23510 0.39499 0.21400
C 	C 	0.28460 0.65020 0.43994 0.03700
H 	H 	0.33960 0.64820 0.44880 0.05000
O 	O 	0.65740 0.25000 0.38162 -0.23400
O 	O 	0.78270 0.24480 0.49498 -0.36500
O 	O 	0.23360 0.62210 0.47741 -0.43300
C 	C 	0.65060 0.08420 0.44152 -0.11500
O 	O 	0.06080 0.64610 0.47187 -0.41500
C 	C 	0.63100 0.16830 0.42862 0.02600
H 	H 	0.62420 0.23830 0.43300 0.04100
C 	C 	0.47900 0.37410 0.38411 -0.07800
H 	H 	0.48980 0.35190 0.37090 0.08000
C 	C 	0.17910 0.64420 0.44577 -0.09700
O 	O 	0.81460 0.06010 0.50198 -0.38200
C 	C 	0.87720 0.44710 0.37537 -0.07600
H 	H 	0.80280 0.43340 0.37220 0.07000
H 	H 	0.92250 0.42300 0.36500 0.06400
C 	C 	0.89610 0.56730 0.37983 -0.07700
H 	H 	0.91750 0.60680 0.36840 0.09100
C 	C 	0.00190 0.45800 0.40149 -0.04600
H 	H 	0.00380 0.45900 0.41530 0.05100
H 	H 	0.06910 0.42920 0.39680 0.05200
O 	O 	0.03580 0.50070 0.50123 -0.47400
C 	C 	0.42130 0.26770 0.41169 -0.04000
H 	H 	0.44810 0.27440 0.42460 0.05300
H 	H 	0.38650 0.19870 0.41010 0.04900
C 	C 	0.90870 0.39200 0.39446 -0.09200
H 	H 	0.92980 0.31810 0.39240 0.06700
H 	H 	0.84970 0.39380 0.40340 0.07700
C 	C 	0.99330 0.29520 0.50100 0.11900
C 	C 	0.35950 0.39160 0.38830 -0.06700
H 	H 	0.34030 0.46600 0.38620 0.06200
H 	H 	0.31600 0.34720 0.38000 0.06900
C 	C 	0.08440 0.31710 0.50150 -0.12000
C 	C 	0.34420 0.36510 0.40599 -0.09300
H 	H 	0.27000 0.34420 0.40780 0.06100
H 	H 	0.35880 0.42620 0.41410 0.06900
C 	C 	0.10850 0.45570 0.50370 0.42000
C 	C 	0.95690 0.18210 0.50040 -0.09000
C 	C 	0.83590 0.15800 0.49851 0.30600
O 	O 	0.21280 0.46840 0.50513 -0.41400
C 	C 	0.04240 0.11290 0.50118 0.06500
C 	C 	0.16560 0.23820 0.50374 0.06400
C 	C 	0.86540 0.86540 -0.00000 -0.09900
C 	C 	0.13460 0.13460 0.50000 -0.09900
C 	C 	0.63460 0.36540 0.25000 -0.10400
C 	C 	0.36540 0.63460 0.75000 -0.10400
