data_crystal

_cell_length_a 12.50850
_cell_length_b 12.50850
_cell_length_c 70.22840
_cell_angle_alpha 90.00000
_cell_angle_beta  90.00000
_cell_angle_gamma 90.00000

_symmetry_space_group_name_	'P 1'
_symmetry_space_group_name_H-M	'P 1'

loop_
_symmetry_equiv_pos_as_xyz
  x,y,z

loop_
_atom_site_label
_atom_site_type_symbol
_atom_site_fract_x
_atom_site_fract_y
_atom_site_fract_z
_atom_site_charge
Cu	Cu	0.61801 0.37977 0.83313 0.90500
Cu	Cu	0.68690 0.44081 0.86729 0.92800
Cu	Cu	0.60360 0.77676 0.74547 0.90400
Cu	Cu	0.65481 0.97478 0.75029 0.90100
O 	O 	0.54330 0.47860 0.87445 -0.38000
O 	O 	0.69380 0.57970 0.85310 -0.38600
O 	O 	0.65420 0.29100 0.87356 -0.38700
O 	O 	0.82870 0.40150 0.85798 -0.40000
O 	O 	0.74280 0.01020 0.85776 -0.25700
O 	O 	0.60060 0.24130 0.84430 -0.41200
O 	O 	0.76980 0.35360 0.82905 -0.38700
C 	C 	0.04160 0.38930 0.84737 0.02200
H 	H 	0.02720 0.39520 0.86030 0.04600
O 	O 	0.02320 0.34470 0.77709 -0.39800
C 	C 	0.08130 0.37330 0.80841 -0.10600
C 	C 	0.63760 0.91880 0.81767 0.03100
H 	H 	0.63320 0.98890 0.81330 0.03800
C 	C 	0.65630 0.70870 0.82985 -0.10000
C 	C 	0.65830 0.79130 0.84278 0.01500
H 	H 	0.66950 0.77660 0.85560 0.05400
N 	N 	0.28670 0.50950 0.85293 -0.12300
C 	C 	0.84530 0.37610 0.84127 0.35000
C 	C 	0.65580 0.98580 0.85105 0.17800
C 	C 	0.47240 0.47500 0.86169 0.33700
C 	C 	0.61370 0.22630 0.86137 0.36900
C 	C 	0.10850 0.36640 0.78797 0.35200
C 	C 	0.64350 0.89890 0.83679 -0.06700
O 	O 	0.60140 0.77990 0.77303 -0.42900
C 	C 	0.64340 0.72820 0.81053 0.04700
H 	H 	0.63840 0.67240 0.80180 0.04600
C 	C 	0.63830 0.83450 0.80466 -0.11600
C 	C 	0.66240 0.59660 0.83637 0.34700
C 	C 	0.95940 0.37150 0.83461 -0.09600
C 	C 	0.23370 0.42010 0.85471 0.20700
O 	O 	0.64560 0.94420 0.77783 -0.44100
C 	C 	0.16670 0.38910 0.82124 0.02000
H 	H 	0.23660 0.39350 0.81680 0.04300
C 	C 	0.14500 0.39820 0.84079 -0.06600
C 	C 	0.62770 0.85760 0.78343 0.42300
O 	O 	0.19740 0.38260 0.78192 -0.41500
C 	C 	0.56850 0.12260 0.87019 -0.08900
H 	H 	0.60920 0.10170 0.88150 0.09800
C 	C 	0.37260 0.53840 0.86554 -0.06500
H 	H 	0.34990 0.52500 0.87870 0.07500
C 	C 	0.97990 0.36230 0.81485 0.05100
H 	H 	0.92430 0.34890 0.80640 0.05100
O 	O 	0.25000 0.35950 0.86838 -0.22900
C 	C 	0.39370 0.11040 0.85684 -0.16700
H 	H 	0.32100 0.08860 0.85970 0.09300
H 	H 	0.39170 0.16940 0.84790 0.09900
C 	C 	0.45350 0.14160 0.87496 -0.03200
H 	H 	0.43140 0.09750 0.88560 0.05500
H 	H 	0.44110 0.21600 0.87810 0.05700
C 	C 	0.27260 0.59430 0.83858 -0.03900
H 	H 	0.20280 0.62770 0.83960 0.04900
H 	H 	0.28230 0.56720 0.82580 0.05300
O 	O 	0.63680 0.52600 0.82423 -0.39900
O 	O 	0.48290 0.42920 0.84567 -0.39100
N 	N 	0.56560 0.03520 0.85612 -0.10800
O 	O 	0.02560 0.50860 0.75058 -0.42100
O 	O 	0.80410 0.94940 0.75086 -0.43700
C 	C 	0.81250 0.85580 0.74743 0.42800
O 	O 	0.77080 0.77550 0.74596 -0.44700
O 	O 	0.20600 0.54330 0.75470 -0.41000
C 	C 	0.10610 0.55680 0.75373 0.36600
C 	C 	0.45700 0.01900 0.84904 0.05900
H 	H 	0.42840 0.95140 0.85350 0.00600
H 	H 	0.45580 0.01950 0.83520 0.03200
C 	C 	0.94590 0.84100 0.75090 -0.06700
C 	C 	0.39370 0.65130 0.86330 -0.08400
H 	H 	0.35160 0.69330 0.87220 0.07300
H 	H 	0.46890 0.66710 0.86530 0.06800
C 	C 	0.36270 0.67200 0.84420 -0.08700
H 	H 	0.42340 0.66250 0.83580 0.06600
H 	H 	0.33790 0.74520 0.84300 0.06000
C 	C 	0.98260 0.72230 0.75320 0.10000
C 	C 	0.01500 0.91300 0.75320 0.04100
C 	C 	0.08080 0.68170 0.75160 -0.12100
C 	C 	0.14500 0.75800 0.75410 0.06900
Cu	Cu	0.38199 0.62023 0.33313 0.90600
Cu	Cu	0.31310 0.55919 0.36729 0.92900
Cu	Cu	0.39640 0.22324 0.24547 0.90400
Cu	Cu	0.34519 0.02522 0.25029 0.90100
O 	O 	0.45670 0.52140 0.37445 -0.38000
O 	O 	0.30620 0.42030 0.35310 -0.38600
O 	O 	0.34580 0.70900 0.37356 -0.38700
O 	O 	0.17130 0.59850 0.35798 -0.40000
O 	O 	0.25720 0.98980 0.35776 -0.25700
O 	O 	0.39940 0.75870 0.34430 -0.41200
O 	O 	0.23020 0.64640 0.32905 -0.38700
C 	C 	0.95840 0.61070 0.34737 0.02200
H 	H 	0.97280 0.60480 0.36030 0.04600
O 	O 	0.97680 0.65530 0.27709 -0.39800
C 	C 	0.91870 0.62670 0.30841 -0.10600
C 	C 	0.36240 0.08120 0.31767 0.03100
H 	H 	0.36680 0.01110 0.31330 0.03800
C 	C 	0.34370 0.29130 0.32985 -0.10000
C 	C 	0.34170 0.20870 0.34278 0.01500
H 	H 	0.33050 0.22340 0.35560 0.05400
N 	N 	0.71330 0.49050 0.35293 -0.12300
C 	C 	0.15470 0.62390 0.34127 0.35000
C 	C 	0.34420 0.01420 0.35105 0.17800
C 	C 	0.52760 0.52500 0.36169 0.33700
C 	C 	0.38630 0.77370 0.36137 0.36900
C 	C 	0.89150 0.63360 0.28797 0.35200
C 	C 	0.35650 0.10110 0.33679 -0.06700
O 	O 	0.39860 0.22010 0.27303 -0.42900
C 	C 	0.35660 0.27180 0.31053 0.04700
H 	H 	0.36160 0.32760 0.30180 0.04600
C 	C 	0.36170 0.16550 0.30466 -0.11600
C 	C 	0.33760 0.40340 0.33637 0.34700
C 	C 	0.04060 0.62850 0.33461 -0.09600
C 	C 	0.76630 0.57990 0.35471 0.20700
O 	O 	0.35440 0.05580 0.27783 -0.44100
C 	C 	0.83330 0.61090 0.32124 0.02000
H 	H 	0.76340 0.60650 0.31680 0.04300
C 	C 	0.85500 0.60180 0.34079 -0.06600
C 	C 	0.37230 0.14240 0.28343 0.42300
O 	O 	0.80260 0.61740 0.28192 -0.41500
C 	C 	0.43150 0.87740 0.37019 -0.08900
H 	H 	0.39080 0.89830 0.38150 0.09800
C 	C 	0.62740 0.46160 0.36554 -0.06500
H 	H 	0.65010 0.47500 0.37870 0.07500
C 	C 	0.02010 0.63770 0.31485 0.05100
H 	H 	0.07570 0.65110 0.30640 0.05100
O 	O 	0.75000 0.64050 0.36838 -0.22900
C 	C 	0.60630 0.88960 0.35684 -0.16700
H 	H 	0.67900 0.91140 0.35970 0.09300
H 	H 	0.60830 0.83060 0.34790 0.09900
C 	C 	0.54650 0.85840 0.37496 -0.03200
H 	H 	0.56860 0.90250 0.38560 0.05500
H 	H 	0.55890 0.78400 0.37810 0.05700
C 	C 	0.72740 0.40570 0.33858 -0.03900
H 	H 	0.79720 0.37230 0.33960 0.04900
H 	H 	0.71770 0.43280 0.32580 0.05300
O 	O 	0.36320 0.47400 0.32423 -0.39900
O 	O 	0.51710 0.57080 0.34567 -0.39100
N 	N 	0.43440 0.96480 0.35612 -0.10800
O 	O 	0.97440 0.49140 0.25058 -0.42100
O 	O 	0.19590 0.05060 0.25086 -0.43700
C 	C 	0.18750 0.14420 0.24743 0.42800
O 	O 	0.22920 0.22450 0.24596 -0.44700
O 	O 	0.79400 0.45670 0.25470 -0.41000
C 	C 	0.89390 0.44320 0.25373 0.36600
C 	C 	0.54300 0.98100 0.34904 0.05900
H 	H 	0.57160 0.04860 0.35350 0.00600
H 	H 	0.54420 0.98050 0.33520 0.03200
C 	C 	0.05410 0.15900 0.25090 -0.06700
C 	C 	0.60630 0.34870 0.36330 -0.08400
H 	H 	0.64840 0.30670 0.37220 0.07300
H 	H 	0.53110 0.33290 0.36530 0.06800
C 	C 	0.63730 0.32800 0.34420 -0.08700
H 	H 	0.57660 0.33750 0.33580 0.06600
H 	H 	0.66210 0.25480 0.34300 0.06000
C 	C 	0.01740 0.27770 0.25320 0.10000
C 	C 	0.98500 0.08700 0.25320 0.04100
C 	C 	0.91920 0.31830 0.25160 -0.12100
C 	C 	0.85500 0.24200 0.25410 0.06900
Cu	Cu	0.12023 0.11801 0.58313 0.89500
Cu	Cu	0.05919 0.18690 0.61729 0.91900
Cu	Cu	0.72324 0.10360 0.49547 0.89800
Cu	Cu	0.52522 0.15481 0.50029 0.89700
O 	O 	0.02140 0.04330 0.62445 -0.39900
O 	O 	0.92030 0.19380 0.60310 -0.37400
O 	O 	0.20900 0.15420 0.62356 -0.39100
O 	O 	0.09850 0.32870 0.60798 -0.40600
O 	O 	0.48980 0.24280 0.60776 -0.30000
O 	O 	0.25870 0.10060 0.59430 -0.42000
O 	O 	0.14640 0.26980 0.57905 -0.39600
C 	C 	0.11070 0.54160 0.59737 0.01200
H 	H 	0.10480 0.52720 0.61030 0.04300
O 	O 	0.15530 0.52320 0.52709 -0.40300
C 	C 	0.12670 0.58130 0.55841 -0.10200
C 	C 	0.58120 0.13760 0.56767 0.04700
H 	H 	0.51110 0.13320 0.56330 0.03500
C 	C 	0.79130 0.15630 0.57985 -0.10600
C 	C 	0.70870 0.15830 0.59278 0.02800
H 	H 	0.72340 0.16950 0.60560 0.05000
N 	N 	0.99050 0.78670 0.60293 -0.10600
C 	C 	0.12390 0.34530 0.59127 0.34700
C 	C 	0.51420 0.15580 0.60105 0.23800
C 	C 	0.02500 0.97240 0.61169 0.32000
C 	C 	0.27370 0.11370 0.61137 0.36900
C 	C 	0.13360 0.60850 0.53797 0.34800
C 	C 	0.60110 0.14350 0.58679 -0.08800
O 	O 	0.72010 0.10140 0.52303 -0.43400
C 	C 	0.77180 0.14340 0.56053 0.05300
H 	H 	0.82760 0.13840 0.55180 0.04500
C 	C 	0.66550 0.13830 0.55466 -0.12300
C 	C 	0.90340 0.16240 0.58637 0.34800
C 	C 	0.12850 0.45940 0.58461 -0.09400
C 	C 	0.07990 0.73370 0.60471 0.17900
O 	O 	0.55580 0.14560 0.52783 -0.44400
C 	C 	0.11090 0.66670 0.57124 0.01000
H 	H 	0.10650 0.73660 0.56680 0.04200
C 	C 	0.10180 0.64500 0.59079 -0.06100
C 	C 	0.64240 0.12770 0.53343 0.42500
O 	O 	0.11740 0.69740 0.53192 -0.42000
C 	C 	0.37740 0.06850 0.62019 -0.09600
H 	H 	0.39830 0.10920 0.63150 0.09300
C 	C 	0.96160 0.87260 0.61554 -0.03400
H 	H 	0.97500 0.84990 0.62870 0.07500
C 	C 	0.13770 0.47990 0.56485 0.03900
H 	H 	0.15110 0.42430 0.55640 0.04800
O 	O 	0.14050 0.75000 0.61838 -0.22700
C 	C 	0.38960 0.89370 0.60684 -0.14300
H 	H 	0.41140 0.82100 0.60970 0.08000
H 	H 	0.33060 0.89170 0.59790 0.09300
C 	C 	0.35840 0.95350 0.62496 -0.03000
H 	H 	0.40250 0.93140 0.63560 0.04800
H 	H 	0.28400 0.94110 0.62810 0.05600
C 	C 	0.90570 0.77260 0.58858 -0.05200
H 	H 	0.87230 0.70280 0.58960 0.05800
H 	H 	0.93280 0.78230 0.57580 0.06800
O 	O 	0.97400 0.13680 0.57423 -0.38700
O 	O 	0.07080 0.98290 0.59567 -0.38900
N 	N 	0.46480 0.06560 0.60612 -0.12900
O 	O 	0.99140 0.52560 0.50058 -0.40100
O 	O 	0.55060 0.30410 0.50086 -0.43800
C 	C 	0.64420 0.31250 0.49743 0.43100
O 	O 	0.72450 0.27080 0.49596 -0.44700
O 	O 	0.95670 0.70600 0.50470 -0.39300
C 	C 	0.94320 0.60610 0.50373 0.36300
C 	C 	0.48100 0.95700 0.59904 0.01000
H 	H 	0.54860 0.92840 0.60350 0.04000
H 	H 	0.48050 0.95580 0.58520 0.04200
C 	C 	0.65900 0.44590 0.50090 -0.07800
C 	C 	0.84870 0.89370 0.61330 -0.11000
H 	H 	0.80670 0.85160 0.62220 0.08200
H 	H 	0.83290 0.96890 0.61530 0.08300
C 	C 	0.82800 0.86270 0.59420 -0.06900
H 	H 	0.83750 0.92340 0.58580 0.06800
H 	H 	0.75480 0.83790 0.59300 0.05800
C 	C 	0.77770 0.48260 0.50320 0.08700
C 	C 	0.58700 0.51500 0.50320 0.05600
C 	C 	0.81830 0.58080 0.50160 -0.10200
C 	C 	0.74200 0.64500 0.50410 0.07100
Cu	Cu	0.87977 0.88199 0.08313 0.89500
Cu	Cu	0.94081 0.81310 0.11729 0.91900
Cu	Cu	0.27676 0.89640 0.99547 0.89800
Cu	Cu	0.47478 0.84519 0.00029 0.89700
O 	O 	0.97860 0.95670 0.12445 -0.39900
O 	O 	0.07970 0.80620 0.10310 -0.37400
O 	O 	0.79100 0.84580 0.12356 -0.39100
O 	O 	0.90150 0.67130 0.10798 -0.40600
O 	O 	0.51020 0.75720 0.10776 -0.30000
O 	O 	0.74130 0.89940 0.09430 -0.42000
O 	O 	0.85360 0.73020 0.07905 -0.39600
C 	C 	0.88930 0.45840 0.09737 0.01200
H 	H 	0.89520 0.47280 0.11030 0.04300
O 	O 	0.84470 0.47680 0.02709 -0.40300
C 	C 	0.87330 0.41870 0.05841 -0.10200
C 	C 	0.41880 0.86240 0.06767 0.04700
H 	H 	0.48890 0.86680 0.06330 0.03500
C 	C 	0.20870 0.84370 0.07985 -0.10600
C 	C 	0.29130 0.84170 0.09278 0.02800
H 	H 	0.27660 0.83050 0.10560 0.05000
N 	N 	0.00950 0.21330 0.10293 -0.10600
C 	C 	0.87610 0.65470 0.09127 0.34700
C 	C 	0.48580 0.84420 0.10105 0.23800
C 	C 	0.97500 0.02760 0.11169 0.32000
C 	C 	0.72630 0.88630 0.11137 0.36900
C 	C 	0.86640 0.39150 0.03797 0.34800
C 	C 	0.39890 0.85650 0.08679 -0.08800
O 	O 	0.27990 0.89860 0.02303 -0.43400
C 	C 	0.22820 0.85660 0.06053 0.05300
H 	H 	0.17240 0.86160 0.05180 0.04500
C 	C 	0.33450 0.86170 0.05466 -0.12300
C 	C 	0.09660 0.83760 0.08637 0.34800
C 	C 	0.87150 0.54060 0.08461 -0.09400
C 	C 	0.92010 0.26630 0.10471 0.17900
O 	O 	0.44420 0.85440 0.02783 -0.44400
C 	C 	0.88910 0.33330 0.07124 0.01000
H 	H 	0.89350 0.26340 0.06680 0.04200
C 	C 	0.89820 0.35500 0.09079 -0.06100
C 	C 	0.35760 0.87230 0.03343 0.42500
O 	O 	0.88260 0.30260 0.03192 -0.42000
C 	C 	0.62260 0.93150 0.12019 -0.09600
H 	H 	0.60170 0.89080 0.13150 0.09300
C 	C 	0.03840 0.12740 0.11554 -0.03400
H 	H 	0.02500 0.15010 0.12870 0.07500
C 	C 	0.86230 0.52010 0.06485 0.03900
H 	H 	0.84890 0.57570 0.05640 0.04800
O 	O 	0.85950 0.25000 0.11838 -0.22700
C 	C 	0.61040 0.10630 0.10684 -0.14300
H 	H 	0.58860 0.17900 0.10970 0.08000
H 	H 	0.66940 0.10830 0.09790 0.09300
C 	C 	0.64160 0.04650 0.12496 -0.03000
H 	H 	0.59750 0.06860 0.13560 0.04800
H 	H 	0.71600 0.05890 0.12810 0.05600
C 	C 	0.09430 0.22740 0.08858 -0.05200
H 	H 	0.12770 0.29720 0.08960 0.05800
H 	H 	0.06720 0.21770 0.07580 0.06800
O 	O 	0.02600 0.86320 0.07423 -0.38700
O 	O 	0.92920 0.01710 0.09567 -0.38900
N 	N 	0.53520 0.93440 0.10612 -0.12900
O 	O 	0.00860 0.47440 0.00058 -0.40100
O 	O 	0.44940 0.69590 0.00086 -0.43800
C 	C 	0.35580 0.68750 0.99743 0.43100
O 	O 	0.27550 0.72920 0.99596 -0.44700
O 	O 	0.04330 0.29400 0.00470 -0.39300
C 	C 	0.05680 0.39390 0.00373 0.36300
C 	C 	0.51900 0.04300 0.09904 0.01000
H 	H 	0.45140 0.07160 0.10350 0.04000
H 	H 	0.51950 0.04420 0.08520 0.04200
C 	C 	0.34100 0.55410 0.00090 -0.07800
C 	C 	0.15130 0.10630 0.11330 -0.11000
H 	H 	0.19330 0.14840 0.12220 0.08200
H 	H 	0.16710 0.03110 0.11530 0.08300
C 	C 	0.17200 0.13730 0.09420 -0.06900
H 	H 	0.16250 0.07660 0.08580 0.06800
H 	H 	0.24520 0.16210 0.09300 0.05800
C 	C 	0.22230 0.51740 0.00320 0.08700
C 	C 	0.41300 0.48500 0.00320 0.05600
C 	C 	0.18170 0.41920 0.00160 -0.10200
C 	C 	0.25800 0.35500 0.00410 0.07100
Cu	Cu	0.88199 0.87977 0.91687 0.89500
Cu	Cu	0.81310 0.94081 0.88271 0.91900
Cu	Cu	0.89640 0.27676 0.00453 0.89800
Cu	Cu	0.84519 0.47478 0.99971 0.89700
O 	O 	0.95670 0.97860 0.87555 -0.39900
O 	O 	0.80620 0.07970 0.89690 -0.37400
O 	O 	0.84580 0.79100 0.87644 -0.39100
O 	O 	0.67130 0.90150 0.89202 -0.40600
O 	O 	0.75720 0.51020 0.89224 -0.30000
O 	O 	0.89940 0.74130 0.90570 -0.42000
O 	O 	0.73020 0.85360 0.92095 -0.39600
C 	C 	0.45840 0.88930 0.90263 0.01200
H 	H 	0.47280 0.89520 0.88970 0.04300
O 	O 	0.47680 0.84470 0.97291 -0.40300
C 	C 	0.41870 0.87330 0.94159 -0.10200
C 	C 	0.86240 0.41880 0.93233 0.04700
H 	H 	0.86680 0.48890 0.93670 0.03500
C 	C 	0.84370 0.20870 0.92015 -0.10600
C 	C 	0.84170 0.29130 0.90722 0.02800
H 	H 	0.83050 0.27660 0.89440 0.05000
N 	N 	0.21330 0.00950 0.89707 -0.10600
C 	C 	0.65470 0.87610 0.90873 0.34700
C 	C 	0.84420 0.48580 0.89895 0.23800
C 	C 	0.02760 0.97500 0.88831 0.32000
C 	C 	0.88630 0.72630 0.88863 0.36900
C 	C 	0.39150 0.86640 0.96203 0.34800
C 	C 	0.85650 0.39890 0.91321 -0.08800
O 	O 	0.89860 0.27990 0.97697 -0.43400
C 	C 	0.85660 0.22820 0.93947 0.05300
H 	H 	0.86160 0.17240 0.94820 0.04500
C 	C 	0.86170 0.33450 0.94534 -0.12300
C 	C 	0.83760 0.09660 0.91363 0.34800
C 	C 	0.54060 0.87150 0.91539 -0.09400
C 	C 	0.26630 0.92010 0.89529 0.17900
O 	O 	0.85440 0.44420 0.97217 -0.44400
C 	C 	0.33330 0.88910 0.92876 0.01000
H 	H 	0.26340 0.89350 0.93320 0.04200
C 	C 	0.35500 0.89820 0.90921 -0.06100
C 	C 	0.87230 0.35760 0.96657 0.42500
O 	O 	0.30260 0.88260 0.96808 -0.42000
C 	C 	0.93150 0.62260 0.87981 -0.09600
H 	H 	0.89080 0.60170 0.86850 0.09300
C 	C 	0.12740 0.03840 0.88446 -0.03400
H 	H 	0.15010 0.02500 0.87130 0.07500
C 	C 	0.52010 0.86230 0.93515 0.03900
H 	H 	0.57570 0.84890 0.94360 0.04800
O 	O 	0.25000 0.85950 0.88162 -0.22700
C 	C 	0.10630 0.61040 0.89316 -0.14300
H 	H 	0.17900 0.58860 0.89030 0.08000
H 	H 	0.10830 0.66940 0.90210 0.09300
C 	C 	0.04650 0.64160 0.87504 -0.03000
H 	H 	0.06860 0.59750 0.86440 0.04800
H 	H 	0.05890 0.71600 0.87190 0.05600
C 	C 	0.22740 0.09430 0.91142 -0.05200
H 	H 	0.29720 0.12770 0.91040 0.05800
H 	H 	0.21770 0.06720 0.92420 0.06800
O 	O 	0.86320 0.02600 0.92577 -0.38700
O 	O 	0.01710 0.92920 0.90433 -0.38900
N 	N 	0.93440 0.53520 0.89388 -0.12900
O 	O 	0.47440 0.00860 0.99942 -0.40100
O 	O 	0.69590 0.44940 0.99914 -0.43800
C 	C 	0.68750 0.35580 0.00257 0.43100
O 	O 	0.72920 0.27550 0.00404 -0.44700
O 	O 	0.29400 0.04330 0.99530 -0.39300
C 	C 	0.39390 0.05680 0.99627 0.36300
C 	C 	0.04300 0.51900 0.90096 0.01000
H 	H 	0.07160 0.45140 0.89650 0.04000
H 	H 	0.04420 0.51950 0.91480 0.04200
C 	C 	0.55410 0.34100 0.99910 -0.07800
C 	C 	0.10630 0.15130 0.88670 -0.11000
H 	H 	0.14840 0.19330 0.87780 0.08200
H 	H 	0.03110 0.16710 0.88470 0.08300
C 	C 	0.13730 0.17200 0.90580 -0.06900
H 	H 	0.07660 0.16250 0.91420 0.06800
H 	H 	0.16210 0.24520 0.90700 0.05800
C 	C 	0.51740 0.22230 0.99680 0.08700
C 	C 	0.48500 0.41300 0.99680 0.05600
C 	C 	0.41920 0.18170 0.99840 -0.10200
C 	C 	0.35500 0.25800 0.99590 0.07100
Cu	Cu	0.11801 0.12023 0.41687 0.89500
Cu	Cu	0.18690 0.05919 0.38271 0.91900
Cu	Cu	0.10360 0.72324 0.50453 0.89800
Cu	Cu	0.15481 0.52522 0.49971 0.89700
O 	O 	0.04330 0.02140 0.37555 -0.39900
O 	O 	0.19380 0.92030 0.39690 -0.37400
O 	O 	0.15420 0.20900 0.37644 -0.39100
O 	O 	0.32870 0.09850 0.39202 -0.40600
O 	O 	0.24280 0.48980 0.39224 -0.30000
O 	O 	0.10060 0.25870 0.40570 -0.42000
O 	O 	0.26980 0.14640 0.42095 -0.39600
C 	C 	0.54160 0.11070 0.40263 0.01200
H 	H 	0.52720 0.10480 0.38970 0.04300
O 	O 	0.52320 0.15530 0.47291 -0.40300
C 	C 	0.58130 0.12670 0.44159 -0.10200
C 	C 	0.13760 0.58120 0.43233 0.04700
H 	H 	0.13320 0.51110 0.43670 0.03500
C 	C 	0.15630 0.79130 0.42015 -0.10600
C 	C 	0.15830 0.70870 0.40722 0.02800
H 	H 	0.16950 0.72340 0.39440 0.05000
N 	N 	0.78670 0.99050 0.39707 -0.10600
C 	C 	0.34530 0.12390 0.40873 0.34700
C 	C 	0.15580 0.51420 0.39895 0.23800
C 	C 	0.97240 0.02500 0.38831 0.32000
C 	C 	0.11370 0.27370 0.38863 0.36900
C 	C 	0.60850 0.13360 0.46203 0.34800
C 	C 	0.14350 0.60110 0.41321 -0.08800
O 	O 	0.10140 0.72010 0.47697 -0.43400
C 	C 	0.14340 0.77180 0.43947 0.05300
H 	H 	0.13840 0.82760 0.44820 0.04500
C 	C 	0.13830 0.66550 0.44534 -0.12300
C 	C 	0.16240 0.90340 0.41363 0.34800
C 	C 	0.45940 0.12850 0.41539 -0.09400
C 	C 	0.73370 0.07990 0.39529 0.17900
O 	O 	0.14560 0.55580 0.47217 -0.44400
C 	C 	0.66670 0.11090 0.42876 0.01000
H 	H 	0.73660 0.10650 0.43320 0.04200
C 	C 	0.64500 0.10180 0.40921 -0.06100
C 	C 	0.12770 0.64240 0.46657 0.42500
O 	O 	0.69740 0.11740 0.46808 -0.42000
C 	C 	0.06850 0.37740 0.37981 -0.09600
H 	H 	0.10920 0.39830 0.36850 0.09300
C 	C 	0.87260 0.96160 0.38446 -0.03400
H 	H 	0.84990 0.97500 0.37130 0.07500
C 	C 	0.47990 0.13770 0.43515 0.03900
H 	H 	0.42430 0.15110 0.44360 0.04800
O 	O 	0.75000 0.14050 0.38162 -0.22700
C 	C 	0.89370 0.38960 0.39316 -0.14300
H 	H 	0.82100 0.41140 0.39030 0.08000
H 	H 	0.89170 0.33060 0.40210 0.09300
C 	C 	0.95350 0.35840 0.37504 -0.03000
H 	H 	0.93140 0.40250 0.36440 0.04800
H 	H 	0.94110 0.28400 0.37190 0.05600
C 	C 	0.77260 0.90570 0.41142 -0.05200
H 	H 	0.70280 0.87230 0.41040 0.05800
H 	H 	0.78230 0.93280 0.42420 0.06800
O 	O 	0.13680 0.97400 0.42577 -0.38700
O 	O 	0.98290 0.07080 0.40433 -0.38900
N 	N 	0.06560 0.46480 0.39388 -0.12900
O 	O 	0.52560 0.99140 0.49942 -0.40100
O 	O 	0.30410 0.55060 0.49914 -0.43800
C 	C 	0.31250 0.64420 0.50257 0.43100
O 	O 	0.27080 0.72450 0.50404 -0.44700
O 	O 	0.70600 0.95670 0.49530 -0.39300
C 	C 	0.60610 0.94320 0.49627 0.36300
C 	C 	0.95700 0.48100 0.40096 0.01000
H 	H 	0.92840 0.54860 0.39650 0.04000
H 	H 	0.95580 0.48050 0.41480 0.04200
C 	C 	0.44590 0.65900 0.49910 -0.07800
C 	C 	0.89370 0.84870 0.38670 -0.11000
H 	H 	0.85160 0.80670 0.37780 0.08200
H 	H 	0.96890 0.83290 0.38470 0.08300
C 	C 	0.86270 0.82800 0.40580 -0.06900
H 	H 	0.92340 0.83750 0.41420 0.06800
H 	H 	0.83790 0.75480 0.40700 0.05800
C 	C 	0.48260 0.77770 0.49680 0.08700
C 	C 	0.51500 0.58700 0.49680 0.05600
C 	C 	0.58080 0.81830 0.49840 -0.10200
C 	C 	0.64500 0.74200 0.49590 0.07100
Cu	Cu	0.37977 0.61801 0.16687 0.90600
Cu	Cu	0.44081 0.68690 0.13271 0.92900
Cu	Cu	0.77676 0.60360 0.25453 0.90400
Cu	Cu	0.97478 0.65481 0.24971 0.90100
O 	O 	0.47860 0.54330 0.12555 -0.38000
O 	O 	0.57970 0.69380 0.14690 -0.38600
O 	O 	0.29100 0.65420 0.12644 -0.38700
O 	O 	0.40150 0.82870 0.14202 -0.40000
O 	O 	0.01020 0.74280 0.14224 -0.25700
O 	O 	0.24130 0.60060 0.15570 -0.41200
O 	O 	0.35360 0.76980 0.17095 -0.38700
C 	C 	0.38930 0.04160 0.15263 0.02200
H 	H 	0.39520 0.02720 0.13970 0.04600
O 	O 	0.34470 0.02320 0.22291 -0.39800
C 	C 	0.37330 0.08130 0.19159 -0.10600
C 	C 	0.91880 0.63760 0.18233 0.03100
H 	H 	0.98890 0.63320 0.18670 0.03800
C 	C 	0.70870 0.65630 0.17015 -0.10000
C 	C 	0.79130 0.65830 0.15722 0.01500
H 	H 	0.77660 0.66950 0.14440 0.05400
N 	N 	0.50950 0.28670 0.14707 -0.12300
C 	C 	0.37610 0.84530 0.15873 0.35000
C 	C 	0.98580 0.65580 0.14895 0.17800
C 	C 	0.47500 0.47240 0.13831 0.33700
C 	C 	0.22630 0.61370 0.13863 0.36900
C 	C 	0.36640 0.10850 0.21203 0.35200
C 	C 	0.89890 0.64350 0.16321 -0.06700
O 	O 	0.77990 0.60140 0.22697 -0.42900
C 	C 	0.72820 0.64340 0.18947 0.04700
H 	H 	0.67240 0.63840 0.19820 0.04600
C 	C 	0.83450 0.63830 0.19534 -0.11600
C 	C 	0.59660 0.66240 0.16363 0.34700
C 	C 	0.37150 0.95940 0.16539 -0.09600
C 	C 	0.42010 0.23370 0.14529 0.20700
O 	O 	0.94420 0.64560 0.22217 -0.44100
C 	C 	0.38910 0.16670 0.17876 0.02000
H 	H 	0.39350 0.23660 0.18320 0.04300
C 	C 	0.39820 0.14500 0.15921 -0.06600
C 	C 	0.85760 0.62770 0.21657 0.42300
O 	O 	0.38260 0.19740 0.21808 -0.41500
C 	C 	0.12260 0.56850 0.12981 -0.08900
H 	H 	0.10170 0.60920 0.11850 0.09800
C 	C 	0.53840 0.37260 0.13446 -0.06500
H 	H 	0.52500 0.34990 0.12130 0.07500
C 	C 	0.36230 0.97990 0.18515 0.05100
H 	H 	0.34890 0.92430 0.19360 0.05100
O 	O 	0.35950 0.25000 0.13162 -0.22900
C 	C 	0.11040 0.39370 0.14316 -0.16700
H 	H 	0.08860 0.32100 0.14030 0.09300
H 	H 	0.16940 0.39170 0.15210 0.09900
C 	C 	0.14160 0.45350 0.12504 -0.03200
H 	H 	0.09750 0.43140 0.11440 0.05500
H 	H 	0.21600 0.44110 0.12190 0.05700
C 	C 	0.59430 0.27260 0.16142 -0.03900
H 	H 	0.62770 0.20280 0.16040 0.04900
H 	H 	0.56720 0.28230 0.17420 0.05300
O 	O 	0.52600 0.63680 0.17577 -0.39900
O 	O 	0.42920 0.48290 0.15433 -0.39100
N 	N 	0.03520 0.56560 0.14388 -0.10800
O 	O 	0.50860 0.02560 0.24942 -0.42100
O 	O 	0.94940 0.80410 0.24914 -0.43700
C 	C 	0.85580 0.81250 0.25257 0.42800
O 	O 	0.77550 0.77080 0.25404 -0.44700
O 	O 	0.54330 0.20600 0.24530 -0.41000
C 	C 	0.55680 0.10610 0.24627 0.36600
C 	C 	0.01900 0.45700 0.15096 0.05900
H 	H 	0.95140 0.42840 0.14650 0.00600
H 	H 	0.01950 0.45580 0.16480 0.03200
C 	C 	0.84100 0.94590 0.24910 -0.06700
C 	C 	0.65130 0.39370 0.13670 -0.08400
H 	H 	0.69330 0.35160 0.12780 0.07300
H 	H 	0.66710 0.46890 0.13470 0.06800
C 	C 	0.67200 0.36270 0.15580 -0.08700
H 	H 	0.66250 0.42340 0.16420 0.06600
H 	H 	0.74520 0.33790 0.15700 0.06000
C 	C 	0.72230 0.98260 0.24680 0.10000
C 	C 	0.91300 0.01500 0.24680 0.04100
C 	C 	0.68170 0.08080 0.24840 -0.12100
C 	C 	0.75800 0.14500 0.24590 0.06900
Cu	Cu	0.62023 0.38199 0.66687 0.90600
Cu	Cu	0.55919 0.31310 0.63271 0.92900
Cu	Cu	0.22324 0.39640 0.75453 0.90400
Cu	Cu	0.02522 0.34519 0.74971 0.90100
O 	O 	0.52140 0.45670 0.62555 -0.38000
O 	O 	0.42030 0.30620 0.64690 -0.38600
O 	O 	0.70900 0.34580 0.62644 -0.38700
O 	O 	0.59850 0.17130 0.64202 -0.40000
O 	O 	0.98980 0.25720 0.64224 -0.25700
O 	O 	0.75870 0.39940 0.65570 -0.41200
O 	O 	0.64640 0.23020 0.67095 -0.38700
C 	C 	0.61070 0.95840 0.65263 0.02200
H 	H 	0.60480 0.97280 0.63970 0.04600
O 	O 	0.65530 0.97680 0.72291 -0.39800
C 	C 	0.62670 0.91870 0.69159 -0.10600
C 	C 	0.08120 0.36240 0.68233 0.03100
H 	H 	0.01110 0.36680 0.68670 0.03800
C 	C 	0.29130 0.34370 0.67015 -0.10000
C 	C 	0.20870 0.34170 0.65722 0.01500
H 	H 	0.22340 0.33050 0.64440 0.05400
N 	N 	0.49050 0.71330 0.64707 -0.12300
C 	C 	0.62390 0.15470 0.65873 0.35000
C 	C 	0.01420 0.34420 0.64895 0.17800
C 	C 	0.52500 0.52760 0.63831 0.33700
C 	C 	0.77370 0.38630 0.63863 0.36900
C 	C 	0.63360 0.89150 0.71203 0.35200
C 	C 	0.10110 0.35650 0.66321 -0.06700
O 	O 	0.22010 0.39860 0.72697 -0.42900
C 	C 	0.27180 0.35660 0.68947 0.04700
H 	H 	0.32760 0.36160 0.69820 0.04600
C 	C 	0.16550 0.36170 0.69534 -0.11600
C 	C 	0.40340 0.33760 0.66363 0.34700
C 	C 	0.62850 0.04060 0.66539 -0.09600
C 	C 	0.57990 0.76630 0.64529 0.20700
O 	O 	0.05580 0.35440 0.72217 -0.44100
C 	C 	0.61090 0.83330 0.67876 0.02000
H 	H 	0.60650 0.76340 0.68320 0.04300
C 	C 	0.60180 0.85500 0.65921 -0.06600
C 	C 	0.14240 0.37230 0.71657 0.42300
O 	O 	0.61740 0.80260 0.71808 -0.41500
C 	C 	0.87740 0.43150 0.62981 -0.08900
H 	H 	0.89830 0.39080 0.61850 0.09800
C 	C 	0.46160 0.62740 0.63446 -0.06500
H 	H 	0.47500 0.65010 0.62130 0.07500
C 	C 	0.63770 0.02010 0.68515 0.05100
H 	H 	0.65110 0.07570 0.69360 0.05100
O 	O 	0.64050 0.75000 0.63162 -0.22900
C 	C 	0.88960 0.60630 0.64316 -0.16700
H 	H 	0.91140 0.67900 0.64030 0.09300
H 	H 	0.83060 0.60830 0.65210 0.09900
C 	C 	0.85840 0.54650 0.62504 -0.03200
H 	H 	0.90250 0.56860 0.61440 0.05500
H 	H 	0.78400 0.55890 0.62190 0.05700
C 	C 	0.40570 0.72740 0.66142 -0.03900
H 	H 	0.37230 0.79720 0.66040 0.04900
H 	H 	0.43280 0.71770 0.67420 0.05300
O 	O 	0.47400 0.36320 0.67577 -0.39900
O 	O 	0.57080 0.51710 0.65433 -0.39100
N 	N 	0.96480 0.43440 0.64388 -0.10800
O 	O 	0.49140 0.97440 0.74942 -0.42100
O 	O 	0.05060 0.19590 0.74914 -0.43700
C 	C 	0.14420 0.18750 0.75257 0.42800
O 	O 	0.22450 0.22920 0.75404 -0.44700
O 	O 	0.45670 0.79400 0.74530 -0.41000
C 	C 	0.44320 0.89390 0.74627 0.36600
C 	C 	0.98100 0.54300 0.65096 0.05900
H 	H 	0.04860 0.57160 0.64650 0.00600
H 	H 	0.98050 0.54420 0.66480 0.03200
C 	C 	0.15900 0.05410 0.74910 -0.06700
C 	C 	0.34870 0.60630 0.63670 -0.08400
H 	H 	0.30670 0.64840 0.62780 0.07300
H 	H 	0.33290 0.53110 0.63470 0.06800
C 	C 	0.32800 0.63730 0.65580 -0.08700
H 	H 	0.33750 0.57660 0.66420 0.06600
H 	H 	0.25480 0.66210 0.65700 0.06000
C 	C 	0.27770 0.01740 0.74680 0.10000
C 	C 	0.08700 0.98500 0.74680 0.04100
C 	C 	0.31830 0.91920 0.74840 -0.12100
C 	C 	0.24200 0.85500 0.74590 0.06900
C 	C 	0.12870 0.87130 0.75000 -0.06000
C 	C 	0.87130 0.12870 0.25000 -0.06000
C 	C 	0.62870 0.62870 0.50000 -0.05900
C 	C 	0.37130 0.37130 -0.00000 -0.05900
