data_crystal

_cell_length_a 10.69200
_cell_length_b 17.21900
_cell_length_c 17.85500
_cell_angle_alpha 104.85200
_cell_angle_beta  90.00000
_cell_angle_gamma 90.00000

_symmetry_space_group_name_	'P 1'
_symmetry_space_group_name_H-M	'P 1'

loop_
_symmetry_equiv_pos_as_xyz
  x,y,z

loop_
_atom_site_label
_atom_site_type_symbol
_atom_site_fract_x
_atom_site_fract_y
_atom_site_fract_z
_atom_site_charge
Eu	Eu	0.86987 0.92429 0.51574 2.00700
Eu	Eu	0.57293 0.11061 0.98566 2.08800
Eu	Eu	0.36987 0.57571 0.98426 2.02200
Eu	Eu	0.07293 0.38939 0.51434 2.08300
Eu	Eu	0.13013 0.07571 0.48426 2.00600
Eu	Eu	0.42707 0.88939 0.01434 2.08700
Eu	Eu	0.63013 0.42429 0.01574 2.02200
Eu	Eu	0.92707 0.61061 0.48566 2.08300
H 	H 	0.95520 0.27830 0.69580 0.03700
H 	H 	0.87430 0.32940 0.82720 0.02700
H 	H 	0.10150 0.92640 0.82940 0.03600
H 	H 	0.02910 0.92340 0.70140 0.02800
H 	H 	0.64940 0.77080 0.84080 0.01500
H 	H 	0.75940 0.70050 0.72180 0.03200
H 	H 	0.45520 0.22170 0.80420 0.03600
H 	H 	0.37430 0.17060 0.67280 0.02700
H 	H 	0.60150 0.57360 0.67060 0.03600
H 	H 	0.52910 0.57660 0.79860 0.02700
H 	H 	0.14940 0.72920 0.65920 0.01500
H 	H 	0.25940 0.79950 0.77820 0.03200
H 	H 	0.04480 0.72170 0.30420 0.03700
H 	H 	0.12570 0.67060 0.17280 0.02700
H 	H 	0.89850 0.07360 0.17060 0.03600
H 	H 	0.97090 0.07660 0.29860 0.02800
H 	H 	0.35060 0.22920 0.15920 0.01500
H 	H 	0.24060 0.29950 0.27820 0.03200
H 	H 	0.54480 0.77830 0.19580 0.03600
H 	H 	0.62570 0.82940 0.32720 0.02700
H 	H 	0.39850 0.42640 0.32940 0.03600
H 	H 	0.47090 0.42340 0.20140 0.02700
H 	H 	0.85060 0.27080 0.34080 0.01500
H 	H 	0.74060 0.20050 0.22180 0.03200
C 	C 	0.89180 0.11800 0.61380 0.46100
C 	C 	0.86360 0.17310 0.69200 -0.13800
C 	C 	0.90410 0.24960 0.72120 -0.01100
C 	C 	0.85550 0.27820 0.79700 0.02300
C 	C 	0.78030 0.22770 0.82370 -0.17000
C 	C 	0.70870 0.24040 0.89660 0.51700
C 	C 	0.33680 0.99590 0.88480 0.47300
C 	C 	0.26150 0.98530 0.81260 -0.14000
C 	C 	0.14610 0.94840 0.79510 -0.01000
C 	C 	0.10380 0.94730 0.72210 0.02000
C 	C 	0.18300 0.98500 0.68390 -0.16600
C 	C 	0.16680 0.99810 0.60920 0.46700
C 	C 	0.65570 0.93960 0.88750 0.47900
C 	C 	0.69790 0.87750 0.82190 -0.16800
C 	C 	0.69060 0.79690 0.80830 0.01800
C 	C 	0.75260 0.75600 0.73900 0.00700
C 	C 	0.80240 0.80990 0.69980 -0.18900
C 	C 	0.86420 0.79030 0.62490 0.53800
C 	C 	0.39180 0.38200 0.88620 0.46300
C 	C 	0.36360 0.32690 0.80800 -0.13900
C 	C 	0.40410 0.25040 0.77880 -0.01100
C 	C 	0.35550 0.22180 0.70300 0.02200
C 	C 	0.28030 0.27230 0.67630 -0.16900
C 	C 	0.20870 0.25960 0.60340 0.51500
C 	C 	0.83680 0.50410 0.61520 0.46900
C 	C 	0.76150 0.51470 0.68740 -0.14300
C 	C 	0.64610 0.55160 0.70490 -0.01000
C 	C 	0.60380 0.55270 0.77790 0.02100
C 	C 	0.68300 0.51500 0.81610 -0.17000
C 	C 	0.66680 0.50190 0.89080 0.46500
C 	C 	0.15570 0.56040 0.61250 0.48000
C 	C 	0.19790 0.62250 0.67810 -0.16900
C 	C 	0.19060 0.70310 0.69170 0.01900
C 	C 	0.25260 0.74400 0.76100 0.00700
C 	C 	0.30240 0.69010 0.80020 -0.18900
C 	C 	0.36420 0.70970 0.87510 0.53900
C 	C 	0.10820 0.88200 0.38620 0.46100
C 	C 	0.13640 0.82690 0.30800 -0.13800
C 	C 	0.09590 0.75040 0.27880 -0.01100
C 	C 	0.14450 0.72180 0.20300 0.02300
C 	C 	0.21970 0.77230 0.17630 -0.17000
C 	C 	0.29130 0.75960 0.10340 0.51700
C 	C 	0.66320 0.00410 0.11520 0.47300
C 	C 	0.73850 0.01470 0.18740 -0.14000
C 	C 	0.85390 0.05160 0.20490 -0.01000
C 	C 	0.89620 0.05270 0.27790 0.02000
C 	C 	0.81700 0.01500 0.31610 -0.16600
C 	C 	0.83320 0.00190 0.39080 0.46700
C 	C 	0.34430 0.06040 0.11250 0.47900
C 	C 	0.30210 0.12250 0.17810 -0.16800
C 	C 	0.30940 0.20310 0.19170 0.01800
C 	C 	0.24740 0.24400 0.26100 0.00700
C 	C 	0.19760 0.19010 0.30020 -0.18900
C 	C 	0.13580 0.20970 0.37510 0.53800
C 	C 	0.60820 0.61800 0.11380 0.46300
C 	C 	0.63640 0.67310 0.19200 -0.13900
C 	C 	0.59590 0.74960 0.22120 -0.01100
C 	C 	0.64450 0.77820 0.29700 0.02200
C 	C 	0.71970 0.72770 0.32370 -0.16900
C 	C 	0.79130 0.74040 0.39660 0.51500
C 	C 	0.16320 0.49590 0.38480 0.46900
C 	C 	0.23850 0.48530 0.31260 -0.14300
C 	C 	0.35390 0.44840 0.29510 -0.01000
C 	C 	0.39620 0.44730 0.22210 0.02100
C 	C 	0.31700 0.48500 0.18390 -0.17000
C 	C 	0.33320 0.49810 0.10920 0.46500
C 	C 	0.84430 0.43960 0.38750 0.48000
C 	C 	0.80210 0.37750 0.32190 -0.16900
C 	C 	0.80940 0.29690 0.30830 0.01900
C 	C 	0.74740 0.25600 0.23900 0.00700
C 	C 	0.69760 0.30990 0.19980 -0.18900
C 	C 	0.63580 0.29030 0.12490 0.53900
S 	S 	0.76210 0.14139 0.75143 0.08000
S 	S 	0.31280 0.02021 0.73956 0.07400
S 	S 	0.77740 0.90616 0.75091 0.07000
S 	S 	0.26210 0.35861 0.74857 0.07800
S 	S 	0.81280 0.47979 0.76044 0.08200
S 	S 	0.27740 0.59384 0.74909 0.07200
S 	S 	0.23790 0.85861 0.24857 0.08000
S 	S 	0.68720 0.97979 0.26044 0.07400
S 	S 	0.22260 0.09384 0.24909 0.07000
S 	S 	0.73790 0.64139 0.25143 0.07800
S 	S 	0.18720 0.52021 0.23956 0.08200
S 	S 	0.72260 0.40616 0.25091 0.07200
O 	O 	0.83800 0.05220 0.59570 -0.54900
O 	O 	0.97630 0.14450 0.57540 -0.49600
O 	O 	0.64180 0.18300 0.90420 -0.57300
O 	O 	0.72670 0.30500 0.94770 -0.54500
O 	O 	0.31010 0.95330 0.93080 -0.50000
O 	O 	0.42350 0.04600 0.89290 -0.53300
O 	O 	0.06650 0.98010 0.57300 -0.58900
O 	O 	0.24920 0.03440 0.58260 -0.49800
O 	O 	0.68620 0.01060 0.89430 -0.50500
O 	O 	0.57860 0.91870 0.93450 -0.57300
O 	O 	0.87960 0.71690 0.59000 -0.56300
O 	O 	0.90420 0.84600 0.60100 -0.58100
O 	O 	0.33800 0.44780 0.90430 -0.55300
O 	O 	0.47630 0.35550 0.92460 -0.50000
O 	O 	0.14180 0.31700 0.59580 -0.57400
O 	O 	0.22670 0.19500 0.55230 -0.54400
O 	O 	0.81010 0.54670 0.56920 -0.50000
O 	O 	0.92350 0.45400 0.60710 -0.52900
O 	O 	0.56650 0.51990 0.92700 -0.59200
O 	O 	0.74920 0.46560 0.91740 -0.49500
O 	O 	0.18620 0.48940 0.60570 -0.50600
O 	O 	0.07860 0.58130 0.56550 -0.57300
O 	O 	0.37960 0.78310 0.91000 -0.56200
O 	O 	0.40420 0.65400 0.89900 -0.58100
O 	O 	0.16200 0.94780 0.40430 -0.54900
O 	O 	0.02370 0.85550 0.42460 -0.49600
O 	O 	0.35820 0.81700 0.09580 -0.57300
O 	O 	0.27330 0.69500 0.05230 -0.54500
O 	O 	0.68990 0.04670 0.06920 -0.50000
O 	O 	0.57650 0.95400 0.10710 -0.53300
O 	O 	0.93350 0.01990 0.42700 -0.58900
O 	O 	0.75080 0.96560 0.41740 -0.49800
O 	O 	0.31380 0.98940 0.10570 -0.50500
O 	O 	0.42140 0.08130 0.06550 -0.57300
O 	O 	0.12040 0.28310 0.41000 -0.56300
O 	O 	0.09580 0.15400 0.39900 -0.58100
O 	O 	0.66200 0.55220 0.09570 -0.55300
O 	O 	0.52370 0.64450 0.07540 -0.50000
O 	O 	0.85820 0.68300 0.40420 -0.57400
O 	O 	0.77330 0.80500 0.44770 -0.54400
O 	O 	0.18990 0.45330 0.43080 -0.50000
O 	O 	0.07650 0.54600 0.39290 -0.52900
O 	O 	0.43350 0.48010 0.07300 -0.59200
O 	O 	0.25080 0.53440 0.08260 -0.49500
O 	O 	0.81380 0.51060 0.39430 -0.50600
O 	O 	0.92140 0.41870 0.43450 -0.57300
O 	O 	0.62040 0.21690 0.09000 -0.56200
O 	O 	0.59580 0.34600 0.10100 -0.58100
