data_crystal

_cell_length_a 15.11900
_cell_length_b 6.66120
_cell_length_c 14.34200
_cell_angle_alpha 90.00000
_cell_angle_beta  90.00000
_cell_angle_gamma 90.00000

_symmetry_space_group_name_	'P 1'
_symmetry_space_group_name_H-M	'P 1'

loop_
_symmetry_equiv_pos_as_xyz
  x,y,z

loop_
_atom_site_label
_atom_site_type_symbol
_atom_site_fract_x
_atom_site_fract_y
_atom_site_fract_z
_atom_site_charge
O 	O 	0.35070 0.41630 0.13500 -0.51000
O 	O 	0.29450 0.41420 0.74210 -0.45100
O 	O 	0.14930 0.58370 0.63500 -0.50900
O 	O 	0.20550 0.58580 0.24210 -0.45000
O 	O 	0.64930 0.91630 0.86500 -0.50800
O 	O 	0.70550 0.91420 0.25790 -0.45100
O 	O 	0.85070 0.08370 0.36500 -0.50800
O 	O 	0.79450 0.08580 0.75790 -0.45000
O 	O 	0.64930 0.58370 0.86500 -0.50900
O 	O 	0.70550 0.58580 0.25790 -0.45000
O 	O 	0.85070 0.41630 0.36500 -0.50900
O 	O 	0.79450 0.41420 0.75790 -0.45000
O 	O 	0.35070 0.08370 0.13500 -0.50800
O 	O 	0.29450 0.08580 0.74210 -0.45100
O 	O 	0.14930 0.91630 0.63500 -0.50800
O 	O 	0.20550 0.91420 0.24210 -0.45000
C 	C 	0.57530 0.25000 0.06680 0.35100
C 	C 	0.50480 0.25000 0.99220 -0.01000
C 	C 	0.41320 0.25000 0.00590 -0.05900
C 	C 	0.36940 0.25000 0.10270 0.45700
C 	C 	0.32320 0.25000 0.77170 0.33400
C 	C 	0.39020 0.25000 0.84740 -0.02000
C 	C 	0.48210 0.25000 0.83200 -0.00600
C 	C 	0.52900 0.25000 0.73850 0.33900
N 	N 	0.53750 0.25000 0.90630 -0.17300
N 	N 	0.35750 0.25000 0.93370 -0.11500
O 	O 	0.65440 0.25000 0.03770 -0.49800
O 	O 	0.55170 0.25000 0.14860 -0.28300
O 	O 	0.48090 0.25000 0.66830 -0.30200
O 	O 	0.61220 0.25000 0.74230 -0.42600
Tb	Tb	0.70091 0.25000 0.87957 1.68300
K 	K 	0.27110 0.25000 0.30910 0.64700
C 	C 	0.92470 0.75000 0.56680 0.35000
C 	C 	0.99520 0.75000 0.49220 -0.01000
C 	C 	0.08680 0.75000 0.50590 -0.06000
C 	C 	0.13060 0.75000 0.60270 0.45800
C 	C 	0.17680 0.75000 0.27170 0.33400
C 	C 	0.10980 0.75000 0.34740 -0.02000
C 	C 	0.01790 0.75000 0.33200 -0.00500
C 	C 	0.97100 0.75000 0.23850 0.33700
N 	N 	0.96250 0.75000 0.40630 -0.17300
N 	N 	0.14250 0.75000 0.43370 -0.11500
O 	O 	0.84560 0.75000 0.53770 -0.49900
O 	O 	0.94830 0.75000 0.64860 -0.28400
O 	O 	0.01910 0.75000 0.16830 -0.30100
O 	O 	0.88780 0.75000 0.24230 -0.42600
Tb	Tb	0.79909 0.75000 0.37957 1.68300
K 	K 	0.22890 0.75000 0.80910 0.64800
C 	C 	0.42470 0.75000 0.93320 0.35100
C 	C 	0.49520 0.75000 0.00780 -0.01000
C 	C 	0.58680 0.75000 0.99410 -0.05900
C 	C 	0.63060 0.75000 0.89730 0.45700
C 	C 	0.67680 0.75000 0.22830 0.33400
C 	C 	0.60980 0.75000 0.15260 -0.02000
C 	C 	0.51790 0.75000 0.16800 -0.00600
C 	C 	0.47100 0.75000 0.26150 0.33900
N 	N 	0.46250 0.75000 0.09370 -0.17300
N 	N 	0.64250 0.75000 0.06630 -0.11500
O 	O 	0.34560 0.75000 0.96230 -0.49800
O 	O 	0.44830 0.75000 0.85140 -0.28300
O 	O 	0.51910 0.75000 0.33170 -0.30200
O 	O 	0.38780 0.75000 0.25770 -0.42600
Tb	Tb	0.29909 0.75000 0.12043 1.68300
K 	K 	0.72890 0.75000 0.69090 0.64700
C 	C 	0.07530 0.25000 0.43320 0.35000
C 	C 	0.00480 0.25000 0.50780 -0.01000
C 	C 	0.91320 0.25000 0.49410 -0.06000
C 	C 	0.86940 0.25000 0.39730 0.45800
C 	C 	0.82320 0.25000 0.72830 0.33400
C 	C 	0.89020 0.25000 0.65260 -0.02000
C 	C 	0.98210 0.25000 0.66800 -0.00500
C 	C 	0.02900 0.25000 0.76150 0.33700
N 	N 	0.03750 0.25000 0.59370 -0.17300
N 	N 	0.85750 0.25000 0.56630 -0.11500
O 	O 	0.15440 0.25000 0.46230 -0.49900
O 	O 	0.05170 0.25000 0.35140 -0.28400
O 	O 	0.98090 0.25000 0.83170 -0.30100
O 	O 	0.11220 0.25000 0.75770 -0.42600
Tb	Tb	0.20091 0.25000 0.62043 1.68300
K 	K 	0.77110 0.25000 0.19090 0.64800
