data_crystal

_cell_length_a 42.61000
_cell_length_b 6.32000
_cell_length_c 25.20200
_cell_angle_alpha 90.00000
_cell_angle_beta  126.22900
_cell_angle_gamma 90.00000

_symmetry_space_group_name_	'P 1'
_symmetry_space_group_name_H-M	'P 1'

loop_
_symmetry_equiv_pos_as_xyz
  x,y,z

loop_
_atom_site_label
_atom_site_type_symbol
_atom_site_fract_x
_atom_site_fract_y
_atom_site_fract_z
_atom_site_charge
C 	C 	0.60305 0.14579 0.73854 -0.13800
H 	H 	0.59370 0.00450 0.73140 0.07600
Ni	Ni	0.24269 0.75006 0.55194 1.06800
O 	O 	0.26627 0.94533 0.52004 -0.66300
C 	C 	0.63117 0.55181 0.75936 0.06500
H 	H 	0.64090 0.69190 0.76610 0.01400
O 	O 	0.71588 0.29253 0.89797 -0.42800
C 	C 	0.59406 0.50416 0.70326 -0.13900
H 	H 	0.57860 0.61250 0.67240 0.07800
C 	C 	0.65361 0.39788 0.80474 -0.14300
O 	O 	0.70279 0.63817 0.87744 -0.45500
C 	C 	0.63942 0.19339 0.79454 0.06400
H 	H 	0.65470 0.08620 0.82610 0.01300
C 	C 	0.49877 0.93763 0.47541 -0.01200
C 	C 	0.56988 0.93965 0.54021 -0.05700
H 	H 	0.59310 0.89990 0.54550 0.04800
O 	O 	0.31285 0.63911 0.51158 -0.44800
C 	C 	0.37660 0.19372 0.55352 0.05000
H 	H 	0.36220 0.08560 0.55640 0.02100
C 	C 	0.57255 0.05295 0.58736 -0.05500
H 	H 	0.59760 0.08900 0.62560 0.04800
O 	O 	0.29998 0.29193 0.50431 -0.43600
C 	C 	0.69376 0.44923 0.86505 0.38100
C 	C 	0.53859 0.12219 0.58200 0.01800
C 	C 	0.41227 0.14809 0.56568 -0.12500
H 	H 	0.42200 0.00760 0.57710 0.07200
C 	C 	0.57971 0.30084 0.69227 0.08200
C 	C 	0.32212 0.44720 0.51676 0.37100
C 	C 	0.53296 0.87562 0.48158 0.01900
C 	C 	0.38473 0.55609 0.53710 0.05300
H 	H 	0.37590 0.69850 0.52960 0.01600
C 	C 	0.50699 0.30741 0.62189 -0.04400
H 	H 	0.50880 0.39660 0.65390 0.04900
C 	C 	0.36229 0.39998 0.53712 -0.13600
C 	C 	0.42032 0.51030 0.54793 -0.13000
H 	H 	0.43480 0.62020 0.54600 0.07500
C 	C 	0.43431 0.30430 0.56149 0.07200
C 	C 	0.54076 0.24395 0.63029 -0.03300
C 	C 	0.47029 0.24356 0.56745 -0.03000
H 	H 	0.29292 0.93700 0.56120 0.17500
C 	C 	0.10305 0.64579 0.73854 -0.13700
H 	H 	0.09370 0.50450 0.73140 0.07700
Ni	Ni	0.74269 0.25006 0.55194 1.06800
O 	O 	0.76627 0.44533 0.52004 -0.66400
C 	C 	0.13117 0.05181 0.75936 0.06900
H 	H 	0.14090 0.19190 0.76610 0.01300
O 	O 	0.21588 0.79253 0.89797 -0.42700
C 	C 	0.09406 0.00416 0.70326 -0.13500
H 	H 	0.07860 0.11250 0.67240 0.07700
C 	C 	0.15361 0.89788 0.80474 -0.14700
O 	O 	0.20279 0.13817 0.87744 -0.45200
C 	C 	0.13942 0.69339 0.79454 0.06500
H 	H 	0.15470 0.58620 0.82610 0.01400
C 	C 	0.99877 0.43763 0.47541 -0.01500
C 	C 	0.06988 0.43965 0.54021 -0.05700
H 	H 	0.09310 0.39990 0.54550 0.04800
O 	O 	0.81285 0.13911 0.51158 -0.44400
C 	C 	0.87660 0.69372 0.55352 0.05000
H 	H 	0.86220 0.58560 0.55640 0.02100
C 	C 	0.07255 0.55295 0.58736 -0.05500
H 	H 	0.09760 0.58900 0.62560 0.04800
O 	O 	0.79998 0.79193 0.50431 -0.43500
C 	C 	0.19376 0.94923 0.86505 0.37600
C 	C 	0.03859 0.62219 0.58200 0.01800
C 	C 	0.91227 0.64809 0.56568 -0.12500
H 	H 	0.92200 0.50760 0.57710 0.07200
C 	C 	0.07971 0.80084 0.69227 0.07800
C 	C 	0.82212 0.94720 0.51676 0.36600
C 	C 	0.03296 0.37562 0.48158 0.02000
C 	C 	0.88473 0.05609 0.53710 0.05800
H 	H 	0.87590 0.19850 0.52960 0.01500
C 	C 	0.00699 0.80741 0.62189 -0.04400
H 	H 	0.00880 0.89660 0.65390 0.04800
C 	C 	0.86229 0.89998 0.53712 -0.14000
C 	C 	0.92032 0.01030 0.54793 -0.12600
H 	H 	0.93480 0.12020 0.54600 0.07400
C 	C 	0.93431 0.80430 0.56149 0.06800
C 	C 	0.04076 0.74395 0.63029 -0.03200
C 	C 	0.97029 0.74356 0.56745 -0.03000
H 	H 	0.79292 0.43700 0.56120 0.17500
C 	C 	0.39695 0.14579 0.76146 -0.14200
H 	H 	0.40630 0.00450 0.76860 0.07800
Ni	Ni	0.75731 0.75006 0.94806 1.08100
O 	O 	0.73373 0.94533 0.97996 -0.63900
C 	C 	0.36883 0.55181 0.74064 0.06900
H 	H 	0.35910 0.69190 0.73390 0.01300
O 	O 	0.28412 0.29253 0.60203 -0.44000
C 	C 	0.40594 0.50416 0.79674 -0.14200
H 	H 	0.42140 0.61250 0.82760 0.08200
C 	C 	0.34639 0.39788 0.69526 -0.14700
O 	O 	0.29721 0.63817 0.62256 -0.46100
C 	C 	0.36058 0.19339 0.70546 0.06900
H 	H 	0.34530 0.08620 0.67390 0.01100
C 	C 	0.50123 0.93763 0.02459 -0.02600
C 	C 	0.43012 0.93965 0.95979 0.00500
H 	H 	0.40690 0.89990 0.95450 0.04100
O 	O 	0.68715 0.63911 0.98842 -0.43500
C 	C 	0.62340 0.19372 0.94648 0.05500
H 	H 	0.63780 0.08560 0.94360 0.02100
C 	C 	0.42745 0.05295 0.91264 -0.07900
H 	H 	0.40240 0.08900 0.87440 0.05900
O 	O 	0.70002 0.29193 0.99569 -0.42000
C 	C 	0.30624 0.44923 0.63495 0.38300
C 	C 	0.46141 0.12219 0.91800 0.03300
C 	C 	0.58773 0.14809 0.93432 -0.12800
H 	H 	0.57800 0.00760 0.92290 0.07500
C 	C 	0.42029 0.30084 0.80773 0.08800
C 	C 	0.67788 0.44720 0.98324 0.37100
C 	C 	0.46704 0.87562 0.01842 -0.02800
C 	C 	0.61527 0.55609 0.96290 0.06000
H 	H 	0.62410 0.69850 0.97040 0.01900
C 	C 	0.49301 0.30741 0.87811 -0.03000
H 	H 	0.49120 0.39660 0.84610 0.04500
C 	C 	0.63771 0.39998 0.96288 -0.13400
C 	C 	0.57968 0.51030 0.95207 -0.13300
H 	H 	0.56520 0.62020 0.95400 0.08200
C 	C 	0.56569 0.30430 0.93851 0.08600
C 	C 	0.45924 0.24395 0.86971 -0.04100
C 	C 	0.52971 0.24356 0.93255 -0.04700
H 	H 	0.70708 0.93700 0.93880 0.17300
C 	C 	0.89695 0.64579 0.76146 -0.14100
H 	H 	0.90630 0.50450 0.76860 0.07900
Ni	Ni	0.25731 0.25006 0.94806 1.08200
O 	O 	0.23373 0.44533 0.97996 -0.64100
C 	C 	0.86883 0.05181 0.74064 0.07300
H 	H 	0.85910 0.19190 0.73390 0.01200
O 	O 	0.78412 0.79253 0.60203 -0.43900
C 	C 	0.90594 0.00416 0.79674 -0.13900
H 	H 	0.92140 0.11250 0.82760 0.08100
C 	C 	0.84639 0.89788 0.69526 -0.15000
O 	O 	0.79721 0.13817 0.62256 -0.45700
C 	C 	0.86058 0.69339 0.70546 0.06900
H 	H 	0.84530 0.58620 0.67390 0.01200
C 	C 	0.00123 0.43763 0.02459 -0.02300
C 	C 	0.93012 0.43965 0.95979 0.00900
H 	H 	0.90690 0.39990 0.95450 0.04000
O 	O 	0.18715 0.13911 0.98842 -0.43100
C 	C 	0.12340 0.69372 0.94648 0.05500
H 	H 	0.13780 0.58560 0.94360 0.02200
C 	C 	0.92745 0.55295 0.91264 -0.08300
H 	H 	0.90240 0.58900 0.87440 0.06000
O 	O 	0.20002 0.79193 0.99569 -0.41900
C 	C 	0.80624 0.94923 0.63495 0.37900
C 	C 	0.96141 0.62219 0.91800 0.03500
C 	C 	0.08773 0.64809 0.93432 -0.12800
H 	H 	0.07800 0.50760 0.92290 0.07600
C 	C 	0.92029 0.80084 0.80773 0.08500
C 	C 	0.17788 0.94720 0.98324 0.36600
C 	C 	0.96704 0.37562 0.01842 -0.03100
C 	C 	0.11527 0.05609 0.96290 0.06400
H 	H 	0.12410 0.19850 0.97040 0.01700
C 	C 	0.99301 0.80741 0.87811 -0.03200
H 	H 	0.99120 0.89660 0.84610 0.04400
C 	C 	0.13771 0.89998 0.96288 -0.13800
C 	C 	0.07968 0.01030 0.95207 -0.13000
H 	H 	0.06520 0.12020 0.95400 0.08200
C 	C 	0.06569 0.80430 0.93851 0.08200
C 	C 	0.95924 0.74395 0.86971 -0.04100
C 	C 	0.02971 0.74356 0.93255 -0.04600
H 	H 	0.20708 0.43700 0.93880 0.17200
C 	C 	0.39695 0.85421 0.26146 -0.13900
H 	H 	0.40630 0.99550 0.26860 0.07700
Ni	Ni	0.75731 0.24994 0.44806 1.06700
O 	O 	0.73373 0.05467 0.47996 -0.66200
C 	C 	0.36883 0.44819 0.24064 0.06700
H 	H 	0.35910 0.30810 0.23390 0.01300
O 	O 	0.28412 0.70747 0.10203 -0.44800
C 	C 	0.40594 0.49584 0.29674 -0.14100
H 	H 	0.42140 0.38750 0.32760 0.07900
C 	C 	0.34639 0.60212 0.19526 -0.14700
O 	O 	0.29721 0.36183 0.12256 -0.46600
C 	C 	0.36058 0.80661 0.20546 0.06600
H 	H 	0.34530 0.91380 0.17390 0.01100
C 	C 	0.50123 0.06237 0.52459 -0.01100
C 	C 	0.43012 0.06035 0.45979 -0.05500
H 	H 	0.40690 0.10010 0.45450 0.04700
O 	O 	0.68715 0.36089 0.48842 -0.44700
C 	C 	0.62340 0.80628 0.44648 0.05000
H 	H 	0.63780 0.91440 0.44360 0.02100
C 	C 	0.42745 0.94705 0.41264 -0.05700
H 	H 	0.40240 0.91100 0.37440 0.04700
O 	O 	0.70002 0.70807 0.49569 -0.43500
C 	C 	0.30624 0.55077 0.13495 0.38300
C 	C 	0.46141 0.87781 0.41800 0.02000
C 	C 	0.58773 0.85191 0.43432 -0.12500
H 	H 	0.57800 0.99240 0.42290 0.07200
C 	C 	0.42029 0.69916 0.30773 0.08300
C 	C 	0.67788 0.55280 0.48324 0.37100
C 	C 	0.46704 0.12438 0.51842 0.01800
C 	C 	0.61527 0.44391 0.46290 0.05400
H 	H 	0.62410 0.30150 0.47040 0.01700
C 	C 	0.49301 0.69259 0.37811 -0.04300
H 	H 	0.49120 0.60340 0.34610 0.04900
C 	C 	0.63771 0.60002 0.46288 -0.13600
C 	C 	0.57968 0.48970 0.45207 -0.12900
H 	H 	0.56520 0.37980 0.45400 0.07500
C 	C 	0.56569 0.69570 0.43851 0.07200
C 	C 	0.45924 0.75605 0.36971 -0.03400
C 	C 	0.52971 0.75644 0.43255 -0.03100
H 	H 	0.70708 0.06300 0.43880 0.17500
C 	C 	0.89695 0.35421 0.26146 -0.13900
H 	H 	0.90630 0.49550 0.26860 0.07700
Ni	Ni	0.25731 0.74994 0.44806 1.06700
O 	O 	0.23373 0.55467 0.47996 -0.66400
C 	C 	0.86883 0.94819 0.24064 0.07000
H 	H 	0.85910 0.80810 0.23390 0.01100
O 	O 	0.78412 0.20747 0.10203 -0.44700
C 	C 	0.90594 0.99584 0.29674 -0.13800
H 	H 	0.92140 0.88750 0.32760 0.07800
C 	C 	0.84639 0.10212 0.19526 -0.15000
O 	O 	0.79721 0.86183 0.12256 -0.46300
C 	C 	0.86058 0.30661 0.20546 0.06600
H 	H 	0.84530 0.41380 0.17390 0.01200
C 	C 	0.00123 0.56237 0.52459 -0.00800
C 	C 	0.93012 0.56035 0.45979 -0.05400
H 	H 	0.90690 0.60010 0.45450 0.04600
O 	O 	0.18715 0.86089 0.48842 -0.44400
C 	C 	0.12340 0.30628 0.44648 0.05000
H 	H 	0.13780 0.41440 0.44360 0.02200
C 	C 	0.92745 0.44705 0.41264 -0.05800
H 	H 	0.90240 0.41100 0.37440 0.04700
O 	O 	0.20002 0.20807 0.49569 -0.43400
C 	C 	0.80624 0.05077 0.13495 0.37900
C 	C 	0.96141 0.37781 0.41800 0.02000
C 	C 	0.08773 0.35191 0.43432 -0.12500
H 	H 	0.07800 0.49240 0.42290 0.07200
C 	C 	0.92029 0.19916 0.30773 0.08000
C 	C 	0.17788 0.05280 0.48324 0.36700
C 	C 	0.96704 0.62438 0.51842 0.01600
C 	C 	0.11527 0.94391 0.46290 0.05700
H 	H 	0.12410 0.80150 0.47040 0.01500
C 	C 	0.99301 0.19259 0.37811 -0.04500
H 	H 	0.99120 0.10340 0.34610 0.04800
C 	C 	0.13771 0.10002 0.46288 -0.13900
C 	C 	0.07968 0.98970 0.45207 -0.12700
H 	H 	0.06520 0.87980 0.45400 0.07400
C 	C 	0.06569 0.19570 0.43851 0.06900
C 	C 	0.95924 0.25605 0.36971 -0.03300
C 	C 	0.02971 0.25644 0.43255 -0.03000
H 	H 	0.20708 0.56300 0.43880 0.17500
C 	C 	0.60305 0.85421 0.23854 -0.13500
H 	H 	0.59370 0.99550 0.23140 0.07500
Ni	Ni	0.24269 0.24994 0.05194 1.05300
O 	O 	0.26627 0.05467 0.02004 -0.68100
C 	C 	0.63117 0.44819 0.25936 0.06300
H 	H 	0.64090 0.30810 0.26610 0.01300
O 	O 	0.71588 0.70747 0.39797 -0.44100
C 	C 	0.59406 0.49584 0.20326 -0.13700
H 	H 	0.57860 0.38750 0.17240 0.07500
C 	C 	0.65361 0.60212 0.30474 -0.14400
O 	O 	0.70279 0.36183 0.37744 -0.46200
C 	C 	0.63942 0.80661 0.29454 0.06300
H 	H 	0.65470 0.91380 0.32610 0.01300
C 	C 	0.49877 0.06237 0.97541 0.00300
C 	C 	0.56988 0.06035 0.04021 -0.11800
H 	H 	0.59310 0.10010 0.04550 0.05400
O 	O 	0.31285 0.36089 0.01158 -0.45900
C 	C 	0.37660 0.80628 0.05352 0.04400
H 	H 	0.36220 0.91440 0.05640 0.02000
C 	C 	0.57255 0.94705 0.08736 -0.03200
H 	H 	0.59760 0.91100 0.12560 0.03600
O 	O 	0.29998 0.70807 0.00431 -0.44600
C 	C 	0.69376 0.55077 0.36505 0.38200
C 	C 	0.53859 0.87781 0.08200 0.00500
C 	C 	0.41227 0.85191 0.06568 -0.12200
H 	H 	0.42200 0.99240 0.07710 0.06800
C 	C 	0.57971 0.69916 0.19227 0.07700
C 	C 	0.32212 0.55280 0.01676 0.37000
C 	C 	0.53296 0.12438 0.98158 0.06500
C 	C 	0.38473 0.44391 0.03710 0.04700
H 	H 	0.37590 0.30150 0.02960 0.01500
C 	C 	0.50699 0.69259 0.12189 -0.05600
H 	H 	0.50880 0.60340 0.15390 0.05300
C 	C 	0.36229 0.60002 0.03712 -0.13700
C 	C 	0.42032 0.48970 0.04793 -0.12600
H 	H 	0.43480 0.37980 0.04600 0.06800
C 	C 	0.43431 0.69570 0.06149 0.05800
C 	C 	0.54076 0.75605 0.13029 -0.02500
C 	C 	0.47029 0.75644 0.06745 -0.01400
H 	H 	0.29292 0.06300 0.06120 0.17800
C 	C 	0.10305 0.35421 0.23854 -0.13400
H 	H 	0.09370 0.49550 0.23140 0.07600
Ni	Ni	0.74269 0.74994 0.05194 1.05300
O 	O 	0.76627 0.55467 0.02004 -0.68300
C 	C 	0.13117 0.94819 0.25936 0.06600
H 	H 	0.14090 0.80810 0.26610 0.01200
O 	O 	0.21588 0.20747 0.39797 -0.44000
C 	C 	0.09406 0.99584 0.20326 -0.13400
H 	H 	0.07860 0.88750 0.17240 0.07400
C 	C 	0.15361 0.10212 0.30474 -0.14700
O 	O 	0.20279 0.86183 0.37744 -0.45900
C 	C 	0.13942 0.30661 0.29454 0.06300
H 	H 	0.15470 0.41380 0.32610 0.01400
C 	C 	0.99877 0.56237 0.97541 -0.00000
C 	C 	0.06988 0.56035 0.04021 -0.12000
H 	H 	0.09310 0.60010 0.04550 0.05400
O 	O 	0.81285 0.86089 0.01158 -0.45600
C 	C 	0.87660 0.30628 0.05352 0.04400
H 	H 	0.86220 0.41440 0.05640 0.02100
C 	C 	0.07255 0.44705 0.08736 -0.03100
H 	H 	0.09760 0.41100 0.12560 0.03500
O 	O 	0.79998 0.20807 0.00431 -0.44500
C 	C 	0.19376 0.05077 0.36505 0.37800
C 	C 	0.03859 0.37781 0.08200 0.00300
C 	C 	0.91227 0.35191 0.06568 -0.12200
H 	H 	0.92200 0.49240 0.07710 0.06800
C 	C 	0.07971 0.19916 0.19227 0.07300
C 	C 	0.82212 0.05280 0.01676 0.36600
C 	C 	0.03296 0.62438 0.98158 0.06700
C 	C 	0.88473 0.94391 0.03710 0.05000
H 	H 	0.87590 0.80150 0.02960 0.01300
C 	C 	0.00699 0.19259 0.12189 -0.05700
H 	H 	0.00880 0.10340 0.15390 0.05200
C 	C 	0.86229 0.10002 0.03712 -0.14000
C 	C 	0.92032 0.98970 0.04793 -0.12300
H 	H 	0.93480 0.87980 0.04600 0.06700
C 	C 	0.93431 0.19570 0.06149 0.05400
C 	C 	0.04076 0.25605 0.13029 -0.02400
C 	C 	0.97029 0.25644 0.06745 -0.01300
H 	H 	0.79292 0.56300 0.06120 0.17700
Ni	Ni	0.25000 0.25000 0.50000 1.12600
Ni	Ni	0.75000 0.25000 -0.00000 1.11100
Ni	Ni	0.75000 0.75000 0.50000 1.12600
Ni	Ni	0.25000 0.75000 -0.00000 1.11100
