data_crystal

_cell_length_a 7.79400
_cell_length_b 17.52400
_cell_length_c 13.76300
_cell_angle_alpha 90.00000
_cell_angle_beta  101.39300
_cell_angle_gamma 90.00000

_symmetry_space_group_name_	'P 1'
_symmetry_space_group_name_H-M	'P 1'

loop_
_symmetry_equiv_pos_as_xyz
  x,y,z

loop_
_atom_site_label
_atom_site_type_symbol
_atom_site_fract_x
_atom_site_fract_y
_atom_site_fract_z
_atom_site_charge
Zn	Zn	0.71130 0.96279 0.99744 1.17100
Zn	Zn	0.42933 0.90831 0.15391 1.17600
Zn	Zn	0.95970 0.02325 0.82593 1.20300
C 	C 	0.52350 0.15070 0.14660 -0.11700
C 	C 	0.55200 0.20460 0.07870 0.05700
H 	H 	0.57420 0.18930 0.01770 0.03400
C 	C 	0.54770 0.28220 0.10120 -0.11700
C 	C 	0.51730 0.30560 0.19270 0.01600
H 	H 	0.51480 0.35740 0.20720 0.01400
C 	C 	0.49030 0.25110 0.26400 -0.04200
C 	C 	0.48660 0.17340 0.23830 0.01200
H 	H 	0.45960 0.13700 0.28200 0.04400
C 	C 	0.53010 0.06710 0.12160 0.39900
C 	C 	0.56240 0.34020 0.02420 0.34000
C 	C 	0.46080 0.27860 0.36290 0.08200
C 	C 	0.36410 0.34760 0.36970 -0.13400
H 	H 	0.31550 0.37470 0.31290 0.07100
C 	C 	0.34460 0.37260 0.46040 0.04900
H 	H 	0.27880 0.41640 0.46390 0.02600
C 	C 	0.41800 0.33590 0.54750 -0.12100
C 	C 	0.51620 0.26990 0.53990 0.05800
H 	H 	0.57060 0.24470 0.59720 0.02800
C 	C 	0.53330 0.24190 0.44950 -0.13900
H 	H 	0.59550 0.19690 0.44660 0.08800
C 	C 	0.40140 0.36930 0.64650 0.34800
C 	C 	0.95330 0.77800 0.86390 -0.13800
C 	C 	0.95860 0.72110 0.93400 0.07700
H 	H 	0.93710 0.73250 0.99650 0.03000
C 	C 	0.99650 0.64660 0.91010 -0.13600
C 	C 	0.01780 0.62870 0.81460 0.03400
H 	H 	0.03480 0.57810 0.79830 0.01900
C 	C 	0.01420 0.68520 0.74270 -0.05600
C 	C 	0.98750 0.76140 0.77240 0.03100
H 	H 	0.99340 0.80100 0.72830 0.02900
C 	C 	0.90630 0.86010 0.88700 0.43800
C 	C 	0.02060 0.58530 0.98700 0.38600
C 	C 	0.03500 0.66580 0.64090 0.09400
C 	C 	0.12250 0.60110 0.61980 -0.14400
H 	H 	0.17830 0.57020 0.67140 0.08800
C 	C 	0.12840 0.58150 0.52310 0.05900
H 	H 	0.18280 0.53630 0.51090 0.02800
C 	C 	0.05550 0.62760 0.44460 -0.12500
C 	C 	0.97100 0.69580 0.46630 0.05600
H 	H 	0.92270 0.72850 0.41490 0.02500
C 	C 	0.95980 0.71400 0.56050 -0.14300
H 	H 	0.90230 0.75840 0.57270 0.08700
C 	C 	0.06020 0.60820 0.33850 0.33800
O 	O 	0.46650 0.01830 0.17070 -0.48800
O 	O 	0.60520 0.05260 0.04910 -0.49200
O 	O 	0.59760 0.31970 0.94270 -0.45900
O 	O 	0.53650 0.41090 0.04080 -0.51400
O 	O 	0.27250 0.40880 0.65360 -0.30900
O 	O 	0.52640 0.35360 0.71890 -0.46200
O 	O 	0.83000 0.86950 0.95740 -0.53100
O 	O 	0.94550 0.90960 0.83110 -0.56100
O 	O 	0.01550 0.60540 0.07420 -0.50100
O 	O 	0.04520 0.51740 0.96400 -0.51200
O 	O 	0.09180 0.54120 0.31760 -0.47600
O 	O 	0.03740 0.66030 0.27500 -0.31900
Zn	Zn	0.28870 0.46279 0.00256 1.18600
Zn	Zn	0.57067 0.40831 0.84609 1.19100
Zn	Zn	0.04030 0.52325 0.17407 1.18800
C 	C 	0.47650 0.65070 0.85340 -0.13000
C 	C 	0.44800 0.70460 0.92130 0.06900
H 	H 	0.42580 0.68930 0.98230 0.03100
C 	C 	0.45230 0.78220 0.89880 -0.13100
C 	C 	0.48270 0.80560 0.80730 0.02800
H 	H 	0.48520 0.85740 0.79280 0.00300
C 	C 	0.50970 0.75110 0.73600 -0.05300
C 	C 	0.51340 0.67340 0.76170 0.02300
H 	H 	0.54040 0.63700 0.71800 0.03500
C 	C 	0.46990 0.56710 0.87840 0.40700
C 	C 	0.43760 0.84020 0.97580 0.36000
C 	C 	0.53920 0.77860 0.63710 0.09000
C 	C 	0.63590 0.84760 0.63030 -0.14900
H 	H 	0.68450 0.87470 0.68710 0.06800
C 	C 	0.65540 0.87260 0.53960 0.05900
H 	H 	0.72120 0.91640 0.53610 0.00500
C 	C 	0.58200 0.83590 0.45250 -0.13700
C 	C 	0.48380 0.76990 0.46010 0.06600
H 	H 	0.42940 0.74470 0.40280 0.02100
C 	C 	0.46670 0.74190 0.55050 -0.15100
H 	H 	0.40450 0.69690 0.55340 0.09000
C 	C 	0.59860 0.86930 0.35350 0.35100
C 	C 	0.04670 0.27800 0.13610 -0.12600
C 	C 	0.04140 0.22110 0.06600 0.06200
H 	H 	0.06290 0.23250 0.00350 0.03500
C 	C 	0.00350 0.14660 0.08990 -0.11300
C 	C 	0.98220 0.12870 0.18540 0.01500
H 	H 	0.96520 0.07810 0.20170 0.03300
C 	C 	0.98580 0.18520 0.25730 -0.04400
C 	C 	0.01250 0.26140 0.22760 0.02200
H 	H 	0.00660 0.30100 0.27170 0.03600
C 	C 	0.09370 0.36010 0.11300 0.43000
C 	C 	0.97940 0.08530 0.01300 0.36200
C 	C 	0.96500 0.16580 0.35910 0.08300
C 	C 	0.87750 0.10110 0.38020 -0.12900
H 	H 	0.82170 0.07020 0.32860 0.09300
C 	C 	0.87160 0.08150 0.47690 0.05000
H 	H 	0.81720 0.03630 0.48910 0.05100
C 	C 	0.94450 0.12760 0.55540 -0.11100
C 	C 	0.02900 0.19580 0.53370 0.05000
H 	H 	0.07730 0.22850 0.58510 0.03100
C 	C 	0.04020 0.21400 0.43950 -0.12900
H 	H 	0.09770 0.25840 0.42730 0.08500
C 	C 	0.93980 0.10820 0.66150 0.33300
O 	O 	0.53350 0.51830 0.82930 -0.52100
O 	O 	0.39480 0.55260 0.95090 -0.51300
O 	O 	0.40240 0.81970 0.05730 -0.48100
O 	O 	0.46350 0.91090 0.95920 -0.53600
O 	O 	0.72750 0.90880 0.34640 -0.33700
O 	O 	0.47360 0.85360 0.28110 -0.47700
O 	O 	0.17000 0.36950 0.04260 -0.51900
O 	O 	0.05450 0.40960 0.16890 -0.53400
O 	O 	0.98450 0.10540 0.92580 -0.47900
O 	O 	0.95480 0.01740 0.03600 -0.48100
O 	O 	0.90820 0.04120 0.68240 -0.44900
O 	O 	0.96260 0.16030 0.72500 -0.31100
