data_crystal

_cell_length_a 4.97480
_cell_length_b 37.21890
_cell_length_c 16.02460
_cell_angle_alpha 90.00000
_cell_angle_beta  92.58200
_cell_angle_gamma 90.00000

_symmetry_space_group_name_	'P 1'
_symmetry_space_group_name_H-M	'P 1'

loop_
_symmetry_equiv_pos_as_xyz
  x,y,z

loop_
_atom_site_label
_atom_site_type_symbol
_atom_site_fract_x
_atom_site_fract_y
_atom_site_fract_z
_atom_site_charge
Li	Li	0.79880 0.47669 0.51440 0.56000
C 	C 	0.21080 0.30274 0.77723 0.21400
N 	N 	0.41620 0.31275 0.82727 -0.18000
C 	C 	0.54200 0.28546 0.86873 0.20100
N 	N 	0.48610 0.25034 0.86144 -0.17500
C 	C 	0.26930 0.24384 0.81104 0.21400
N 	N 	0.11930 0.26849 0.76920 -0.18700
N 	N 	0.07150 0.32681 0.72844 -0.24100
H 	H 	0.90660 0.32040 0.71280 0.14800
O 	O 	0.17460 0.47757 0.54413 -0.42900
O 	O 	0.57290 0.47672 0.61208 -0.36600
C 	C 	0.34390 0.46274 0.59323 0.38800
C 	C 	0.27960 0.42714 0.62998 -0.17500
C 	C 	0.43110 0.41348 0.69733 0.11200
H 	H 	0.57970 0.42690 0.71990 0.01200
C 	C 	0.36940 0.38042 0.73262 -0.20200
H 	H 	0.47450 0.37150 0.77910 0.11300
C 	C 	0.15340 0.36056 0.69947 0.20600
C 	C 	0.00310 0.37404 0.63079 -0.19500
H 	H 	0.85570 0.36060 0.60760 0.11000
C 	C 	0.06690 0.40681 0.59630 0.12300
H 	H 	0.96440 0.41550 0.54910 -0.00300
N 	N 	0.74560 0.29738 0.92128 -0.24000
H 	H 	0.76350 0.32090 0.92190 0.13000
O 	O 	0.70410 0.25683 0.17621 -0.47000
H 	H 	0.82590 0.24600 0.20410 0.27300
O 	O 	0.60240 0.20102 0.13329 -0.30100
C 	C 	0.55870 0.23341 0.13177 0.39000
C 	C 	0.33670 0.24979 0.07956 -0.15800
C 	C 	0.15440 0.22785 0.03473 0.11700
H 	H 	0.16870 0.20250 0.04020 0.01200
C 	C 	0.95320 0.24227 0.98250 -0.19800
H 	H 	0.83080 0.22690 0.95250 0.10800
C 	C 	0.93130 0.27955 0.97424 0.18100
C 	C 	0.11150 0.30185 0.02055 -0.17600
H 	H 	0.09590 0.32720 0.01610 0.09400
C 	C 	0.31080 0.28695 0.07234 0.10400
H 	H 	0.43150 0.30220 0.10340 0.01700
N 	N 	0.17880 0.20972 0.79629 -0.25400
H 	H 	0.03140 0.20890 0.76390 0.15000
O 	O 	0.65520 0.06148 0.94496 -0.38900
O 	O 	0.34980 0.04327 0.84834 -0.48300
H 	H 	0.39230 0.02290 0.86740 0.29800
C 	C 	0.48530 0.06819 0.89053 0.45100
C 	C 	0.40990 0.10537 0.86575 -0.21200
C 	C 	0.21600 0.11215 0.80490 0.16000
H 	H 	0.12690 0.09270 0.77700 0.00900
C 	C 	0.14780 0.14703 0.78340 -0.24700
H 	H 	0.01210 0.15110 0.74080 0.12200
C 	C 	0.27160 0.17584 0.82194 0.23900
C 	C 	0.45850 0.16925 0.88470 -0.24600
H 	H 	0.54190 0.18870 0.91410 0.12400
C 	C 	0.52770 0.13424 0.90590 0.15400
H 	H 	0.66020 0.13020 0.94950 -0.00700
Li	Li	0.20120 0.97669 0.98560 0.56000
C 	C 	0.78920 0.80274 0.72277 0.21400
N 	N 	0.58380 0.81275 0.67273 -0.18000
C 	C 	0.45800 0.78546 0.63127 0.20100
N 	N 	0.51390 0.75034 0.63856 -0.17500
C 	C 	0.73070 0.74384 0.68896 0.21400
N 	N 	0.88070 0.76849 0.73080 -0.18700
N 	N 	0.92850 0.82681 0.77156 -0.24100
H 	H 	0.09340 0.82040 0.78720 0.14700
O 	O 	0.82540 0.97757 0.95587 -0.42800
O 	O 	0.42710 0.97672 0.88792 -0.36600
C 	C 	0.65610 0.96274 0.90677 0.38800
C 	C 	0.72040 0.92714 0.87002 -0.17500
C 	C 	0.56890 0.91348 0.80267 0.11200
H 	H 	0.42030 0.92690 0.78010 0.01100
C 	C 	0.63060 0.88042 0.76738 -0.20200
H 	H 	0.52550 0.87150 0.72090 0.11300
C 	C 	0.84660 0.86056 0.80053 0.20600
C 	C 	0.99690 0.87404 0.86921 -0.19400
H 	H 	0.14430 0.86060 0.89240 0.11000
C 	C 	0.93310 0.90681 0.90370 0.12400
H 	H 	0.03560 0.91550 0.95090 -0.00300
N 	N 	0.25440 0.79738 0.57872 -0.24000
H 	H 	0.23650 0.82090 0.57810 0.13000
O 	O 	0.29590 0.75683 0.32379 -0.47000
H 	H 	0.17410 0.74600 0.29590 0.27300
O 	O 	0.39760 0.70102 0.36671 -0.30100
C 	C 	0.44130 0.73341 0.36823 0.39000
C 	C 	0.66330 0.74979 0.42044 -0.15800
C 	C 	0.84560 0.72785 0.46527 0.11700
H 	H 	0.83130 0.70250 0.45980 0.01200
C 	C 	0.04680 0.74227 0.51750 -0.19900
H 	H 	0.16920 0.72690 0.54750 0.10800
C 	C 	0.06870 0.77955 0.52576 0.18100
C 	C 	0.88850 0.80185 0.47945 -0.17600
H 	H 	0.90410 0.82720 0.48390 0.09400
C 	C 	0.68920 0.78695 0.42766 0.10400
H 	H 	0.56850 0.80220 0.39660 0.01700
N 	N 	0.82120 0.70972 0.70371 -0.25400
H 	H 	0.96860 0.70890 0.73610 0.15000
O 	O 	0.34480 0.56148 0.55504 -0.38900
O 	O 	0.65020 0.54327 0.65166 -0.48300
H 	H 	0.60770 0.52290 0.63260 0.29800
C 	C 	0.51470 0.56819 0.60947 0.45100
C 	C 	0.59010 0.60537 0.63425 -0.21200
C 	C 	0.78400 0.61215 0.69510 0.16000
H 	H 	0.87310 0.59270 0.72300 0.00900
C 	C 	0.85220 0.64703 0.71660 -0.24700
H 	H 	0.98790 0.65110 0.75920 0.12200
C 	C 	0.72840 0.67584 0.67806 0.23900
C 	C 	0.54150 0.66925 0.61530 -0.24600
H 	H 	0.45810 0.68870 0.58590 0.12400
C 	C 	0.47230 0.63424 0.59410 0.15400
H 	H 	0.33980 0.63020 0.55050 -0.00700
Li	Li	0.20120 0.52331 0.48560 0.56000
C 	C 	0.78920 0.69726 0.22277 0.21400
N 	N 	0.58380 0.68725 0.17273 -0.18000
C 	C 	0.45800 0.71454 0.13127 0.20100
N 	N 	0.51390 0.74966 0.13856 -0.17500
C 	C 	0.73070 0.75616 0.18896 0.21400
N 	N 	0.88070 0.73151 0.23080 -0.18700
N 	N 	0.92850 0.67319 0.27156 -0.24100
H 	H 	0.09340 0.67960 0.28720 0.14800
O 	O 	0.82540 0.52243 0.45587 -0.42900
O 	O 	0.42710 0.52328 0.38792 -0.36600
C 	C 	0.65610 0.53726 0.40677 0.38800
C 	C 	0.72040 0.57286 0.37002 -0.17500
C 	C 	0.56890 0.58652 0.30267 0.11200
H 	H 	0.42030 0.57310 0.28010 0.01200
C 	C 	0.63060 0.61958 0.26738 -0.20200
H 	H 	0.52550 0.62850 0.22090 0.11300
C 	C 	0.84660 0.63944 0.30053 0.20600
C 	C 	0.99690 0.62596 0.36921 -0.19500
H 	H 	0.14430 0.63940 0.39240 0.11000
C 	C 	0.93310 0.59319 0.40370 0.12300
H 	H 	0.03560 0.58450 0.45090 -0.00300
N 	N 	0.25440 0.70262 0.07872 -0.24000
H 	H 	0.23650 0.67910 0.07810 0.13000
O 	O 	0.29590 0.74317 0.82379 -0.47000
H 	H 	0.17410 0.75400 0.79590 0.27300
O 	O 	0.39760 0.79898 0.86671 -0.30100
C 	C 	0.44130 0.76659 0.86823 0.39000
C 	C 	0.66330 0.75021 0.92044 -0.15800
C 	C 	0.84560 0.77215 0.96527 0.11700
H 	H 	0.83130 0.79750 0.95980 0.01200
C 	C 	0.04680 0.75773 0.01750 -0.19800
H 	H 	0.16920 0.77310 0.04750 0.10800
C 	C 	0.06870 0.72045 0.02576 0.18100
C 	C 	0.88850 0.69815 0.97945 -0.17600
H 	H 	0.90410 0.67280 0.98390 0.09400
C 	C 	0.68920 0.71305 0.92766 0.10400
H 	H 	0.56850 0.69780 0.89660 0.01700
N 	N 	0.82120 0.79028 0.20371 -0.25400
H 	H 	0.96860 0.79110 0.23610 0.15000
O 	O 	0.34480 0.93852 0.05504 -0.38900
O 	O 	0.65020 0.95673 0.15166 -0.48300
H 	H 	0.60770 0.97710 0.13260 0.29800
C 	C 	0.51470 0.93181 0.10947 0.45100
C 	C 	0.59010 0.89463 0.13425 -0.21200
C 	C 	0.78400 0.88785 0.19510 0.16000
H 	H 	0.87310 0.90730 0.22300 0.00900
C 	C 	0.85220 0.85297 0.21660 -0.24700
H 	H 	0.98790 0.84890 0.25920 0.12200
C 	C 	0.72840 0.82416 0.17806 0.23900
C 	C 	0.54150 0.83075 0.11530 -0.24600
H 	H 	0.45810 0.81130 0.08590 0.12400
C 	C 	0.47230 0.86576 0.09410 0.15400
H 	H 	0.33980 0.86980 0.05050 -0.00700
Li	Li	0.79880 0.02331 0.01440 0.56000
C 	C 	0.21080 0.19726 0.27723 0.21400
N 	N 	0.41620 0.18725 0.32727 -0.18000
C 	C 	0.54200 0.21454 0.36873 0.20100
N 	N 	0.48610 0.24966 0.36144 -0.17500
C 	C 	0.26930 0.25616 0.31104 0.21400
N 	N 	0.11930 0.23151 0.26920 -0.18700
N 	N 	0.07150 0.17319 0.22844 -0.24100
H 	H 	0.90660 0.17960 0.21280 0.14700
O 	O 	0.17460 0.02243 0.04413 -0.42800
O 	O 	0.57290 0.02328 0.11208 -0.36600
C 	C 	0.34390 0.03726 0.09323 0.38800
C 	C 	0.27960 0.07286 0.12998 -0.17500
C 	C 	0.43110 0.08652 0.19733 0.11200
H 	H 	0.57970 0.07310 0.21990 0.01100
C 	C 	0.36940 0.11958 0.23262 -0.20200
H 	H 	0.47450 0.12850 0.27910 0.11300
C 	C 	0.15340 0.13944 0.19947 0.20600
C 	C 	0.00310 0.12596 0.13079 -0.19400
H 	H 	0.85570 0.13940 0.10760 0.11000
C 	C 	0.06690 0.09319 0.09630 0.12400
H 	H 	0.96440 0.08450 0.04910 -0.00300
N 	N 	0.74560 0.20262 0.42128 -0.24000
H 	H 	0.76350 0.17910 0.42190 0.13000
O 	O 	0.70410 0.24317 0.67621 -0.47000
H 	H 	0.82590 0.25400 0.70410 0.27300
O 	O 	0.60240 0.29898 0.63329 -0.30100
C 	C 	0.55870 0.26659 0.63177 0.39000
C 	C 	0.33670 0.25021 0.57956 -0.15800
C 	C 	0.15440 0.27215 0.53473 0.11700
H 	H 	0.16870 0.29750 0.54020 0.01200
C 	C 	0.95320 0.25773 0.48250 -0.19900
H 	H 	0.83080 0.27310 0.45250 0.10800
C 	C 	0.93130 0.22045 0.47424 0.18100
C 	C 	0.11150 0.19815 0.52055 -0.17600
H 	H 	0.09590 0.17280 0.51610 0.09400
C 	C 	0.31080 0.21305 0.57234 0.10400
H 	H 	0.43150 0.19780 0.60340 0.01700
N 	N 	0.17880 0.29028 0.29629 -0.25400
H 	H 	0.03140 0.29110 0.26390 0.15000
O 	O 	0.65520 0.43852 0.44496 -0.38900
O 	O 	0.34980 0.45673 0.34834 -0.48300
H 	H 	0.39230 0.47710 0.36740 0.29800
C 	C 	0.48530 0.43181 0.39053 0.45100
C 	C 	0.40990 0.39463 0.36575 -0.21200
C 	C 	0.21600 0.38785 0.30490 0.16000
H 	H 	0.12690 0.40730 0.27700 0.00900
C 	C 	0.14780 0.35297 0.28340 -0.24700
H 	H 	0.01210 0.34890 0.24080 0.12200
C 	C 	0.27160 0.32416 0.32194 0.23900
C 	C 	0.45850 0.33075 0.38470 -0.24600
H 	H 	0.54190 0.31130 0.41410 0.12400
C 	C 	0.52770 0.36576 0.40590 0.15400
H 	H 	0.66020 0.36980 0.44950 -0.00700
