data_crystal

_cell_length_a 26.29340
_cell_length_b 26.29340
_cell_length_c 26.29340
_cell_angle_alpha 109.47100
_cell_angle_beta  109.47100
_cell_angle_gamma 109.47100

_symmetry_space_group_name_	'P 1'
_symmetry_space_group_name_H-M	'P 1'

loop_
_symmetry_equiv_pos_as_xyz
  x,y,z

loop_
_atom_site_label
_atom_site_type_symbol
_atom_site_fract_x
_atom_site_fract_y
_atom_site_fract_z
_atom_site_charge
Cu	Cu	0.26680 0.32716 0.20298 0.83200
Cu	Cu	0.62418 0.06382 0.29702 0.83200
Cu	Cu	0.87582 0.17284 0.43964 0.83200
Cu	Cu	0.23320 0.43618 0.06036 0.83200
Cu	Cu	0.93964 0.87582 0.67284 0.83300
Cu	Cu	0.56036 0.23320 0.93618 0.83300
Cu	Cu	0.70298 0.26680 0.82716 0.83300
Cu	Cu	0.79702 0.62418 0.56382 0.83300
Cu	Cu	0.06382 0.79702 0.12418 0.83200
Cu	Cu	0.32716 0.70298 0.76680 0.83300
Cu	Cu	0.43618 0.56036 0.73320 0.83300
Cu	Cu	0.17284 0.93964 0.37582 0.83300
Cu	Cu	0.56382 0.12418 0.79702 0.83300
Cu	Cu	0.82716 0.76680 0.70298 0.83300
Cu	Cu	0.93618 0.73320 0.56036 0.83300
Cu	Cu	0.67284 0.37582 0.93964 0.83300
Cu	Cu	0.76680 0.20298 0.32716 0.83300
Cu	Cu	0.12418 0.29702 0.06382 0.83300
Cu	Cu	0.37582 0.43964 0.17284 0.83300
Cu	Cu	0.73320 0.06036 0.43618 0.83300
Cu	Cu	0.43964 0.67284 0.87582 0.83300
Cu	Cu	0.06036 0.93618 0.23320 0.83200
Cu	Cu	0.20298 0.82716 0.26680 0.83300
Cu	Cu	0.29702 0.56382 0.62418 0.83300
Cu	Cu	0.25000 0.28628 0.03628 0.83800
Cu	Cu	0.75000 0.21372 0.46372 0.83800
Cu	Cu	0.96372 0.75000 0.71372 0.83800
Cu	Cu	0.53628 0.25000 0.78628 0.83800
Cu	Cu	0.21372 0.96372 0.25000 0.83800
Cu	Cu	0.28628 0.53628 0.75000 0.83800
Cu	Cu	0.71372 0.25000 0.96372 0.83800
Cu	Cu	0.78628 0.75000 0.53628 0.83800
Cu	Cu	0.75000 0.03628 0.28628 0.83800
Cu	Cu	0.25000 0.46372 0.21372 0.83800
Cu	Cu	0.46372 0.71372 0.75000 0.83800
Cu	Cu	0.03628 0.78628 0.25000 0.83800
H 	H 	0.41300 0.42300 0.32620 0.01500
H 	H 	0.24360 0.36640 0.31420 0.02600
H 	H 	0.32440 0.43360 0.42660 0.05000
H 	H 	0.27060 0.34100 0.94480 0.00600
H 	H 	0.32730 0.23000 0.99290 0.02800
H 	H 	0.36550 0.24840 0.92150 0.05000
H 	H 	0.59680 0.08680 0.17380 0.01500
H 	H 	0.55220 0.92940 0.18580 0.02600
H 	H 	0.50700 0.89780 0.07340 0.05000
H 	H 	0.89620 0.32580 0.55520 0.00600
H 	H 	0.73710 0.33440 0.50710 0.02800
H 	H 	0.82690 0.44400 0.57850 0.05000
H 	H 	0.90320 0.07700 0.49000 0.01500
H 	H 	0.94780 0.13360 0.37720 0.02600
H 	H 	0.99300 0.06640 0.39080 0.05000
H 	H 	0.60380 0.15900 0.42960 0.00600
H 	H 	0.76290 0.27000 0.59730 0.02800
H 	H 	0.67310 0.25160 0.61710 0.05000
H 	H 	0.08700 0.41320 0.01000 0.01500
H 	H 	0.25640 0.57060 0.12280 0.02600
H 	H 	0.17560 0.60220 0.10920 0.05000
H 	H 	0.22940 0.17420 0.07040 0.00600
H 	H 	0.17270 0.16560 0.90270 0.02800
H 	H 	0.13450 0.05600 0.88290 0.05000
H 	H 	0.99000 0.90320 0.57700 0.01500
H 	H 	0.87720 0.94780 0.63360 0.02600
H 	H 	0.89080 0.99300 0.56640 0.05100
H 	H 	0.92960 0.60380 0.65900 0.00600
H 	H 	0.09730 0.76290 0.77000 0.02800
H 	H 	0.11710 0.67310 0.75160 0.05000
H 	H 	0.51000 0.08700 0.91320 0.01500
H 	H 	0.62280 0.25640 0.07060 0.02600
H 	H 	0.60920 0.17560 0.10220 0.05000
H 	H 	0.57040 0.22940 0.67420 0.00600
H 	H 	0.40270 0.17270 0.66560 0.02800
H 	H 	0.38290 0.13450 0.55600 0.05000
H 	H 	0.82620 0.41300 0.92300 0.01500
H 	H 	0.81420 0.24360 0.86640 0.02600
H 	H 	0.92660 0.32440 0.93360 0.05000
H 	H 	0.44480 0.27060 0.84100 0.00600
H 	H 	0.49290 0.32730 0.73000 0.02800
H 	H 	0.42150 0.36550 0.74840 0.05000
H 	H 	0.67380 0.59680 0.58680 0.01500
H 	H 	0.68580 0.55220 0.42940 0.02600
H 	H 	0.57340 0.50700 0.39780 0.05000
H 	H 	0.05520 0.89620 0.82580 0.00600
H 	H 	0.00710 0.73710 0.83440 0.02800
H 	H 	0.07850 0.82690 0.94400 0.05000
H 	H 	0.08680 0.67380 0.09680 0.01500
H 	H 	0.92940 0.68580 0.05220 0.02600
H 	H 	0.89780 0.57340 0.00700 0.05100
H 	H 	0.32580 0.05520 0.39620 0.00600
H 	H 	0.33440 0.00710 0.23710 0.02800
H 	H 	0.44400 0.07850 0.32690 0.05000
H 	H 	0.42300 0.82620 0.91300 0.01500
H 	H 	0.36640 0.81420 0.74360 0.02600
H 	H 	0.43360 0.92660 0.82440 0.05000
H 	H 	0.34100 0.44480 0.77060 0.00600
H 	H 	0.23000 0.49290 0.82730 0.02800
H 	H 	0.24840 0.42150 0.86550 0.05000
H 	H 	0.41320 0.51000 0.58700 0.01500
H 	H 	0.57060 0.62280 0.75640 0.02600
H 	H 	0.60220 0.60920 0.67560 0.05000
H 	H 	0.17420 0.57040 0.72940 0.00600
H 	H 	0.16560 0.40270 0.67270 0.02800
H 	H 	0.05600 0.38290 0.63450 0.05000
H 	H 	0.07700 0.99000 0.40320 0.01500
H 	H 	0.13360 0.87720 0.44780 0.02600
H 	H 	0.06640 0.89080 0.49300 0.05000
H 	H 	0.15900 0.92960 0.10380 0.00600
H 	H 	0.27000 0.09730 0.26290 0.02800
H 	H 	0.25160 0.11710 0.17310 0.05000
H 	H 	0.58680 0.09680 0.67380 0.01500
H 	H 	0.42940 0.05220 0.68580 0.02600
H 	H 	0.39780 0.00700 0.57340 0.05100
H 	H 	0.82580 0.39620 0.05520 0.00600
H 	H 	0.83440 0.23710 0.00710 0.02800
H 	H 	0.94400 0.32690 0.07850 0.05000
H 	H 	0.92300 0.91300 0.82620 0.01500
H 	H 	0.86640 0.74360 0.81420 0.02600
H 	H 	0.93360 0.82440 0.92660 0.05000
H 	H 	0.84100 0.77060 0.44480 0.00600
H 	H 	0.73000 0.82730 0.49290 0.02800
H 	H 	0.74840 0.86550 0.42150 0.05000
H 	H 	0.91320 0.58700 0.51000 0.01500
H 	H 	0.07060 0.75640 0.62280 0.02600
H 	H 	0.10220 0.67560 0.60920 0.05000
H 	H 	0.67420 0.72940 0.57040 0.00600
H 	H 	0.66560 0.67270 0.40270 0.02800
H 	H 	0.55600 0.63450 0.38290 0.05000
H 	H 	0.57700 0.40320 0.99000 0.01500
H 	H 	0.63360 0.44780 0.87720 0.02600
H 	H 	0.56640 0.49300 0.89080 0.05000
H 	H 	0.65900 0.10380 0.92960 0.00600
H 	H 	0.77000 0.26290 0.09730 0.02800
H 	H 	0.75160 0.17310 0.11710 0.05000
H 	H 	0.91300 0.32620 0.42300 0.01500
H 	H 	0.74360 0.31420 0.36640 0.02600
H 	H 	0.82440 0.42660 0.43360 0.05000
H 	H 	0.77060 0.94480 0.34100 0.00600
H 	H 	0.82730 0.99290 0.23000 0.02800
H 	H 	0.86550 0.92150 0.24840 0.05000
H 	H 	0.09680 0.17380 0.08680 0.01500
H 	H 	0.05220 0.18580 0.92940 0.02600
H 	H 	0.00700 0.07340 0.89780 0.05100
H 	H 	0.39620 0.55520 0.32580 0.00600
H 	H 	0.23710 0.50710 0.33440 0.02800
H 	H 	0.32690 0.57850 0.44400 0.05000
H 	H 	0.40320 0.49000 0.07700 0.01500
H 	H 	0.44780 0.37720 0.13360 0.02600
H 	H 	0.49300 0.39080 0.06640 0.05000
H 	H 	0.10380 0.42960 0.15900 0.00600
H 	H 	0.26290 0.59730 0.27000 0.02800
H 	H 	0.17310 0.61710 0.25160 0.05000
H 	H 	0.58700 0.01000 0.41320 0.01500
H 	H 	0.75640 0.12280 0.57060 0.02600
H 	H 	0.67560 0.10920 0.60220 0.05000
H 	H 	0.72940 0.07040 0.17420 0.00600
H 	H 	0.67270 0.90270 0.16560 0.02800
H 	H 	0.63450 0.88290 0.05600 0.05000
H 	H 	0.49000 0.57700 0.90320 0.01500
H 	H 	0.37720 0.63360 0.94780 0.02600
H 	H 	0.39080 0.56640 0.99300 0.05000
H 	H 	0.42960 0.65900 0.60380 0.00600
H 	H 	0.59730 0.77000 0.76290 0.02800
H 	H 	0.61710 0.75160 0.67310 0.05000
H 	H 	0.01000 0.91320 0.08700 0.01500
H 	H 	0.12280 0.07060 0.25640 0.02600
H 	H 	0.10920 0.10220 0.17560 0.05100
H 	H 	0.07040 0.67420 0.22940 0.00600
H 	H 	0.90270 0.66560 0.17270 0.02800
H 	H 	0.88290 0.55600 0.13450 0.05000
H 	H 	0.32620 0.92300 0.41300 0.01500
H 	H 	0.31420 0.86640 0.24360 0.02600
H 	H 	0.42660 0.93360 0.32440 0.05000
H 	H 	0.94480 0.84100 0.27060 0.00600
H 	H 	0.99290 0.73000 0.32730 0.02800
H 	H 	0.92150 0.74840 0.36550 0.05000
H 	H 	0.17380 0.58680 0.59680 0.01500
H 	H 	0.18580 0.42940 0.55220 0.02600
H 	H 	0.07340 0.39780 0.50700 0.05100
H 	H 	0.55520 0.82580 0.89620 0.00600
H 	H 	0.50710 0.83440 0.73710 0.02800
H 	H 	0.57850 0.94400 0.82690 0.05000
W 	W 	0.25000 0.37500 0.12500 0.08500
W 	W 	0.75000 0.12500 0.37500 0.08500
W 	W 	0.87500 0.75000 0.62500 0.08500
W 	W 	0.62500 0.25000 0.87500 0.08500
W 	W 	0.12500 0.87500 0.25000 0.08500
W 	W 	0.37500 0.62500 0.75000 0.08500
C 	C 	0.38210 0.41750 0.33700 0.05900
C 	C 	0.28630 0.38550 0.33000 -0.01500
C 	C 	0.33190 0.42330 0.39340 0.01600
C 	C 	0.44820 0.47820 0.45040 0.16900
C 	C 	0.28890 0.31660 0.94790 0.06500
C 	C 	0.32120 0.25401 0.97501 -0.00700
C 	C 	0.34240 0.26400 0.93440 0.01600
C 	C 	0.33660 0.32980 0.88480 0.18000
C 	C 	0.58050 0.04510 0.16300 0.05900
C 	C 	0.55550 0.95630 0.17000 -0.01500
C 	C 	0.52990 0.93850 0.10660 0.01600
C 	C 	0.52780 0.99780 0.04960 0.16800
C 	C 	0.86870 0.34100 0.55210 0.06500
C 	C 	0.77900 0.34619 0.52499 -0.00700
C 	C 	0.82960 0.40800 0.56560 0.01600
C 	C 	0.94500 0.45180 0.61520 0.18000
C 	C 	0.91950 0.08250 0.46460 0.05900
C 	C 	0.94450 0.11450 0.40080 -0.01500
C 	C 	0.97010 0.07670 0.40860 0.01600
C 	C 	0.97220 0.02180 0.47000 0.16800
C 	C 	0.63130 0.18340 0.47230 0.06500
C 	C 	0.72100 0.24599 0.56719 -0.00700
C 	C 	0.67040 0.23600 0.57840 0.01600
C 	C 	0.55500 0.17020 0.50680 0.18000
C 	C 	0.11790 0.45490 0.03540 0.05900
C 	C 	0.21370 0.54370 0.09920 -0.01500
C 	C 	0.16810 0.56150 0.09140 0.01600
C 	C 	0.05180 0.50220 0.03000 0.16800
C 	C 	0.21110 0.15900 0.02770 0.06500
C 	C 	0.17880 0.15381 0.93281 -0.00700
C 	C 	0.15760 0.09200 0.92160 0.01600
C 	C 	0.16340 0.04820 0.99320 0.18100
C 	C 	0.96460 0.91950 0.58250 0.05900
C 	C 	0.90080 0.94450 0.61450 -0.01500
C 	C 	0.90860 0.97010 0.57670 0.01600
C 	C 	0.97000 0.97220 0.52180 0.16900
C 	C 	0.97230 0.63130 0.68340 0.06500
C 	C 	0.06719 0.72100 0.74599 -0.00700
C 	C 	0.07840 0.67040 0.73600 0.01600
C 	C 	0.00680 0.55500 0.67020 0.18000
C 	C 	0.53540 0.11790 0.95490 0.05800
C 	C 	0.59920 0.21370 0.04370 -0.01500
C 	C 	0.59140 0.16810 0.06150 0.01600
C 	C 	0.53000 0.05180 0.00220 0.16900
C 	C 	0.52770 0.21110 0.65900 0.06500
C 	C 	0.43281 0.17880 0.65381 -0.00700
C 	C 	0.42160 0.15760 0.59200 0.01600
C 	C 	0.49320 0.16340 0.54820 0.18000
C 	C 	0.83700 0.38210 0.91750 0.05900
C 	C 	0.83000 0.28630 0.88550 -0.01500
C 	C 	0.89340 0.33190 0.92330 0.01600
C 	C 	0.95040 0.44820 0.97820 0.16800
C 	C 	0.44790 0.28890 0.81660 0.06500
C 	C 	0.47501 0.32120 0.75401 -0.00700
C 	C 	0.43440 0.34240 0.76400 0.01600
C 	C 	0.38480 0.33660 0.82980 0.18000
C 	C 	0.66300 0.58050 0.54510 0.05900
C 	C 	0.67000 0.55550 0.45630 -0.01500
C 	C 	0.60660 0.52990 0.43850 0.01600
C 	C 	0.54960 0.52780 0.49780 0.16900
C 	C 	0.05210 0.86870 0.84100 0.06500
C 	C 	0.02499 0.77900 0.84619 -0.00700
C 	C 	0.06560 0.82960 0.90800 0.01600
C 	C 	0.11520 0.94500 0.95180 0.18100
C 	C 	0.04510 0.66300 0.08050 0.05800
C 	C 	0.95630 0.67000 0.05550 -0.01400
C 	C 	0.93850 0.60660 0.02990 0.01600
C 	C 	0.99780 0.54960 0.02780 0.16900
C 	C 	0.34100 0.05210 0.36870 0.06500
C 	C 	0.34619 0.02499 0.27900 -0.00700
C 	C 	0.40800 0.06560 0.32960 0.01600
C 	C 	0.45180 0.11520 0.44500 0.18000
C 	C 	0.41750 0.83700 0.88210 0.05900
C 	C 	0.38550 0.83000 0.78630 -0.01500
C 	C 	0.42330 0.89340 0.83190 0.01600
C 	C 	0.47820 0.95040 0.94820 0.16900
C 	C 	0.31660 0.44790 0.78890 0.06500
C 	C 	0.25401 0.47501 0.82120 -0.00700
C 	C 	0.26400 0.43440 0.84240 0.01600
C 	C 	0.32980 0.38480 0.83660 0.18000
C 	C 	0.45490 0.53540 0.61790 0.05900
C 	C 	0.54370 0.59920 0.71370 -0.01500
C 	C 	0.56150 0.59140 0.66810 0.01600
C 	C 	0.50220 0.53000 0.55180 0.16900
C 	C 	0.15900 0.52770 0.71110 0.06500
C 	C 	0.15381 0.43281 0.67880 -0.00700
C 	C 	0.09200 0.42160 0.65760 0.01600
C 	C 	0.04820 0.49320 0.66340 0.18100
C 	C 	0.08250 0.96460 0.41950 0.05900
C 	C 	0.11450 0.90080 0.44450 -0.01500
C 	C 	0.07670 0.90860 0.47010 0.01600
C 	C 	0.02180 0.97000 0.47220 0.16800
C 	C 	0.18340 0.97230 0.13130 0.06400
C 	C 	0.24599 0.06719 0.22100 -0.00700
C 	C 	0.23600 0.07840 0.17040 0.01600
C 	C 	0.17020 0.00680 0.05500 0.18100
C 	C 	0.54510 0.08050 0.66300 0.05900
C 	C 	0.45630 0.05550 0.67000 -0.01500
C 	C 	0.43850 0.02990 0.60660 0.01600
C 	C 	0.49780 0.02780 0.54960 0.16900
C 	C 	0.84100 0.36870 0.05210 0.06500
C 	C 	0.84619 0.27900 0.02499 -0.00700
C 	C 	0.90800 0.32960 0.06560 0.01600
C 	C 	0.95180 0.44500 0.11520 0.18100
C 	C 	0.91750 0.88210 0.83700 0.05900
C 	C 	0.88550 0.78630 0.83000 -0.01500
C 	C 	0.92330 0.83190 0.89340 0.01600
C 	C 	0.97820 0.94820 0.95040 0.16800
C 	C 	0.81660 0.78890 0.44790 0.06500
C 	C 	0.75401 0.82120 0.47501 -0.00700
C 	C 	0.76400 0.84240 0.43440 0.01600
C 	C 	0.82980 0.83660 0.38480 0.18000
C 	C 	0.95490 0.61790 0.53540 0.05900
C 	C 	0.04370 0.71370 0.59920 -0.01500
C 	C 	0.06150 0.66810 0.59140 0.01600
C 	C 	0.00220 0.55180 0.53000 0.16900
C 	C 	0.65900 0.71110 0.52770 0.06500
C 	C 	0.65381 0.67880 0.43281 -0.00700
C 	C 	0.59200 0.65760 0.42160 0.01600
C 	C 	0.54820 0.66340 0.49320 0.18000
C 	C 	0.58250 0.41950 0.96460 0.05900
C 	C 	0.61450 0.44450 0.90080 -0.01500
C 	C 	0.57670 0.47010 0.90860 0.01600
C 	C 	0.52180 0.47220 0.97000 0.16800
C 	C 	0.68340 0.13130 0.97230 0.06400
C 	C 	0.74599 0.22100 0.06719 -0.00700
C 	C 	0.73600 0.17040 0.07840 0.01600
C 	C 	0.67020 0.05500 0.00680 0.18100
C 	C 	0.88210 0.33700 0.41750 0.05900
C 	C 	0.78630 0.33000 0.38550 -0.01500
C 	C 	0.83190 0.39340 0.42330 0.01600
C 	C 	0.94820 0.45040 0.47820 0.16900
C 	C 	0.78890 0.94790 0.31660 0.06500
C 	C 	0.82120 0.97501 0.25401 -0.00700
C 	C 	0.84240 0.93440 0.26400 0.01600
C 	C 	0.83660 0.88480 0.32980 0.18000
C 	C 	0.08050 0.16300 0.04510 0.05800
C 	C 	0.05550 0.17000 0.95630 -0.01500
C 	C 	0.02990 0.10660 0.93850 0.01600
C 	C 	0.02780 0.04960 0.99780 0.16900
C 	C 	0.36870 0.55210 0.34100 0.06500
C 	C 	0.27900 0.52499 0.34619 -0.00700
C 	C 	0.32960 0.56560 0.40800 0.01600
C 	C 	0.44500 0.61520 0.45180 0.18000
C 	C 	0.41950 0.46460 0.08250 0.05900
C 	C 	0.44450 0.40080 0.11450 -0.01500
C 	C 	0.47010 0.40860 0.07670 0.01600
C 	C 	0.47220 0.47000 0.02180 0.16900
C 	C 	0.13130 0.47230 0.18340 0.06500
C 	C 	0.22100 0.56719 0.24599 -0.00700
C 	C 	0.17040 0.57840 0.23600 0.01600
C 	C 	0.05500 0.50680 0.17020 0.18000
C 	C 	0.61790 0.03540 0.45490 0.05900
C 	C 	0.71370 0.09920 0.54370 -0.01500
C 	C 	0.66810 0.09140 0.56150 0.01600
C 	C 	0.55180 0.03000 0.50220 0.16900
C 	C 	0.71110 0.02770 0.15900 0.06500
C 	C 	0.67880 0.93281 0.15381 -0.00700
C 	C 	0.65760 0.92160 0.09200 0.01600
C 	C 	0.66340 0.99320 0.04820 0.18000
C 	C 	0.46460 0.58250 0.91950 0.05900
C 	C 	0.40080 0.61450 0.94450 -0.01500
C 	C 	0.40860 0.57670 0.97010 0.01600
C 	C 	0.47000 0.52180 0.97220 0.16800
C 	C 	0.47230 0.68340 0.63130 0.06500
C 	C 	0.56719 0.74599 0.72100 -0.00700
C 	C 	0.57840 0.73600 0.67040 0.01600
C 	C 	0.50680 0.67020 0.55500 0.18000
C 	C 	0.03540 0.95490 0.11790 0.05800
C 	C 	0.09920 0.04370 0.21370 -0.01400
C 	C 	0.09140 0.06150 0.16810 0.01600
C 	C 	0.03000 0.00220 0.05180 0.16800
C 	C 	0.02770 0.65900 0.21110 0.06400
C 	C 	0.93281 0.65381 0.17880 -0.00700
C 	C 	0.92160 0.59200 0.15760 0.01600
C 	C 	0.99320 0.54820 0.16340 0.18100
C 	C 	0.33700 0.91750 0.38210 0.05900
C 	C 	0.33000 0.88550 0.28630 -0.01500
C 	C 	0.39340 0.92330 0.33190 0.01600
C 	C 	0.45040 0.97820 0.44820 0.16900
C 	C 	0.94790 0.81660 0.28890 0.06500
C 	C 	0.97501 0.75401 0.32120 -0.00700
C 	C 	0.93440 0.76400 0.34240 0.01600
C 	C 	0.88480 0.82980 0.33660 0.18000
C 	C 	0.16300 0.54510 0.58050 0.05900
C 	C 	0.17000 0.45630 0.55550 -0.01500
C 	C 	0.10660 0.43850 0.52990 0.01600
C 	C 	0.04960 0.49780 0.52780 0.16900
C 	C 	0.55210 0.84100 0.86870 0.06500
C 	C 	0.52499 0.84619 0.77900 -0.00700
C 	C 	0.56560 0.90800 0.82960 0.01600
C 	C 	0.61520 0.95180 0.94500 0.18100
S 	S 	0.31471 0.33624 0.14321 -0.60900
S 	S 	0.69303 0.17150 0.35679 -0.60900
S 	S 	0.80697 0.16376 0.47847 -0.60900
S 	S 	0.18529 0.32850 0.02153 -0.60900
S 	S 	0.97847 0.80697 0.66376 -0.60900
S 	S 	0.52153 0.18529 0.82850 -0.60900
S 	S 	0.64321 0.31471 0.83624 -0.60900
S 	S 	0.85679 0.69303 0.67150 -0.60900
S 	S 	0.17150 0.85679 0.19303 -0.60900
S 	S 	0.33624 0.64321 0.81471 -0.60900
S 	S 	0.32850 0.52153 0.68529 -0.60900
S 	S 	0.16376 0.97847 0.30697 -0.60900
S 	S 	0.67150 0.19303 0.85679 -0.60900
S 	S 	0.83624 0.81471 0.64321 -0.60900
S 	S 	0.82850 0.68529 0.52153 -0.60900
S 	S 	0.66376 0.30697 0.97847 -0.60900
S 	S 	0.81471 0.14321 0.33624 -0.60900
S 	S 	0.19303 0.35679 0.17150 -0.60900
S 	S 	0.30697 0.47847 0.16376 -0.60900
S 	S 	0.68529 0.02153 0.32850 -0.60900
S 	S 	0.47847 0.66376 0.80697 -0.60900
S 	S 	0.02153 0.82850 0.18529 -0.61000
S 	S 	0.14321 0.83624 0.31471 -0.60900
S 	S 	0.35679 0.67150 0.69303 -0.60900
I 	I 	0.21913 0.21984 0.19303 -0.31000
I 	I 	0.52681 0.02610 0.30697 -0.31000
I 	I 	0.97319 0.28016 0.49929 -0.31100
I 	I 	0.28087 0.47390 0.00071 -0.31100
I 	I 	0.99929 0.97319 0.78016 -0.31100
I 	I 	0.50071 0.28087 0.97390 -0.31000
I 	I 	0.69303 0.21913 0.71984 -0.31000
I 	I 	0.80697 0.52681 0.52610 -0.31000
I 	I 	0.02610 0.80697 0.02681 -0.31200
I 	I 	0.21984 0.69303 0.71913 -0.31000
I 	I 	0.47390 0.50071 0.78087 -0.31000
I 	I 	0.28016 0.99929 0.47319 -0.31000
I 	I 	0.52610 0.02681 0.80697 -0.31000
I 	I 	0.71984 0.71913 0.69303 -0.31000
I 	I 	0.97390 0.78087 0.50071 -0.31000
I 	I 	0.78016 0.47319 0.99929 -0.31100
I 	I 	0.71913 0.19303 0.21984 -0.31000
I 	I 	0.02681 0.30697 0.02610 -0.31100
I 	I 	0.47319 0.49929 0.28016 -0.31000
I 	I 	0.78087 0.00071 0.47390 -0.31100
I 	I 	0.49929 0.78016 0.97319 -0.31000
I 	I 	0.00071 0.97390 0.28087 -0.31200
I 	I 	0.19303 0.71984 0.21913 -0.31000
I 	I 	0.30697 0.52610 0.52681 -0.31000
N 	N 	0.31621 0.38166 0.29453 -0.22900
N 	N 	0.39173 0.44308 0.39837 -0.12900
N 	N 	0.49498 0.49174 0.43844 -0.14600
N 	N 	0.28909 0.28703 0.98356 -0.22300
N 	N 	0.32194 0.30213 0.91713 -0.13200
N 	N 	0.31430 0.36760 0.87430 -0.15300
N 	N 	0.58713 0.02168 0.20547 -0.22900
N 	N 	0.54471 0.99336 0.10163 -0.12900
N 	N 	0.55330 0.05654 0.06156 -0.14600
N 	N 	0.80347 0.30553 0.51644 -0.22300
N 	N 	0.88500 0.40481 0.58287 -0.13200
N 	N 	0.99330 0.44000 0.62570 -0.15300
N 	N 	0.91287 0.11834 0.43455 -0.22900
N 	N 	0.95529 0.05692 0.44865 -0.12800
N 	N 	0.94670 0.00826 0.50324 -0.14600
N 	N 	0.69653 0.21297 0.50206 -0.22300
N 	N 	0.61500 0.19787 0.51981 -0.13200
N 	N 	0.50670 0.13240 0.44670 -0.15300
N 	N 	0.18379 0.47832 0.06545 -0.22900
N 	N 	0.10827 0.50664 0.05135 -0.12800
N 	N 	0.00502 0.44346 0.99676 -0.14500
N 	N 	0.21091 0.19447 0.99794 -0.22300
N 	N 	0.17806 0.09519 0.98019 -0.13200
N 	N 	0.18570 0.06000 0.05330 -0.15300
N 	N 	0.93455 0.91287 0.61834 -0.22900
N 	N 	0.94865 0.95529 0.55692 -0.12900
N 	N 	0.00324 0.94670 0.50826 -0.14600
N 	N 	0.00206 0.69653 0.71297 -0.22300
N 	N 	0.01981 0.61500 0.69787 -0.13200
N 	N 	0.94670 0.50670 0.63240 -0.15300
N 	N 	0.56545 0.18379 0.97832 -0.22900
N 	N 	0.55135 0.10827 0.00664 -0.12800
N 	N 	0.49676 0.00502 0.94346 -0.14600
N 	N 	0.49794 0.21091 0.69447 -0.22300
N 	N 	0.48019 0.17806 0.59519 -0.13200
N 	N 	0.55330 0.18570 0.56000 -0.15300
N 	N 	0.79453 0.31621 0.88166 -0.22900
N 	N 	0.89837 0.39173 0.94308 -0.12800
N 	N 	0.93844 0.49498 0.99174 -0.14600
N 	N 	0.48356 0.28909 0.78703 -0.22300
N 	N 	0.41713 0.32194 0.80213 -0.13200
N 	N 	0.37430 0.31430 0.86760 -0.15300
N 	N 	0.70547 0.58713 0.52168 -0.22900
N 	N 	0.60163 0.54471 0.49336 -0.12900
N 	N 	0.56156 0.55330 0.55654 -0.14600
N 	N 	0.01644 0.80347 0.80553 -0.22300
N 	N 	0.08287 0.88500 0.90481 -0.13200
N 	N 	0.12570 0.99330 0.94000 -0.15300
N 	N 	0.02168 0.70547 0.08713 -0.22900
N 	N 	0.99336 0.60163 0.04471 -0.12800
N 	N 	0.05654 0.56156 0.05330 -0.14600
N 	N 	0.30553 0.01644 0.30347 -0.22300
N 	N 	0.40481 0.08287 0.38500 -0.13200
N 	N 	0.44000 0.12570 0.49330 -0.15300
N 	N 	0.38166 0.79453 0.81621 -0.22900
N 	N 	0.44308 0.89837 0.89173 -0.12900
N 	N 	0.49174 0.93844 0.99498 -0.14600
N 	N 	0.28703 0.48356 0.78909 -0.22300
N 	N 	0.30213 0.41713 0.82194 -0.13200
N 	N 	0.36760 0.37430 0.81430 -0.15300
N 	N 	0.47832 0.56545 0.68379 -0.22900
N 	N 	0.50664 0.55135 0.60827 -0.12900
N 	N 	0.44346 0.49676 0.50502 -0.14600
N 	N 	0.19447 0.49794 0.71091 -0.22300
N 	N 	0.09519 0.48019 0.67806 -0.13200
N 	N 	0.06000 0.55330 0.68570 -0.15300
N 	N 	0.11834 0.93455 0.41287 -0.22900
N 	N 	0.05692 0.94865 0.45529 -0.12800
N 	N 	0.00826 0.00324 0.44670 -0.14500
N 	N 	0.21297 0.00206 0.19653 -0.22300
N 	N 	0.19787 0.01981 0.11500 -0.13100
N 	N 	0.13240 0.94670 0.00670 -0.15400
N 	N 	0.52168 0.08713 0.70547 -0.22900
N 	N 	0.49336 0.04471 0.60163 -0.12900
N 	N 	0.55654 0.05330 0.56156 -0.14600
N 	N 	0.80553 0.30347 0.01644 -0.22300
N 	N 	0.90481 0.38500 0.08287 -0.13200
N 	N 	0.94000 0.49330 0.12570 -0.15300
N 	N 	0.88166 0.81621 0.79453 -0.22900
N 	N 	0.94308 0.89173 0.89837 -0.12800
N 	N 	0.99174 0.99498 0.93844 -0.14600
N 	N 	0.78703 0.78909 0.48356 -0.22300
N 	N 	0.80213 0.82194 0.41713 -0.13200
N 	N 	0.86760 0.81430 0.37430 -0.15300
N 	N 	0.97832 0.68379 0.56545 -0.22900
N 	N 	0.00664 0.60827 0.55135 -0.12900
N 	N 	0.94346 0.50502 0.49676 -0.14600
N 	N 	0.69447 0.71091 0.49794 -0.22300
N 	N 	0.59519 0.67806 0.48019 -0.13200
N 	N 	0.56000 0.68570 0.55330 -0.15300
N 	N 	0.61834 0.41287 0.93455 -0.22900
N 	N 	0.55692 0.45529 0.94865 -0.12900
N 	N 	0.50826 0.44670 0.00324 -0.14600
N 	N 	0.71297 0.19653 0.00206 -0.22300
N 	N 	0.69787 0.11500 0.01981 -0.13200
N 	N 	0.63240 0.00670 0.94670 -0.15400
N 	N 	0.81621 0.29453 0.38166 -0.22900
N 	N 	0.89173 0.39837 0.44308 -0.12900
N 	N 	0.99498 0.43844 0.49174 -0.14600
N 	N 	0.78909 0.98356 0.28703 -0.22300
N 	N 	0.82194 0.91713 0.30213 -0.13200
N 	N 	0.81430 0.87430 0.36760 -0.15300
N 	N 	0.08713 0.20547 0.02168 -0.22900
N 	N 	0.04471 0.10163 0.99336 -0.12800
N 	N 	0.05330 0.06156 0.05654 -0.14600
N 	N 	0.30347 0.51644 0.30553 -0.22300
N 	N 	0.38500 0.58287 0.40481 -0.13200
N 	N 	0.49330 0.62570 0.44000 -0.15300
N 	N 	0.41287 0.43455 0.11834 -0.22900
N 	N 	0.45529 0.44865 0.05692 -0.12900
N 	N 	0.44670 0.50324 0.00826 -0.14600
N 	N 	0.19653 0.50206 0.21297 -0.22300
N 	N 	0.11500 0.51981 0.19787 -0.13200
N 	N 	0.00670 0.44670 0.13240 -0.15300
N 	N 	0.68379 0.06545 0.47832 -0.22900
N 	N 	0.60827 0.05135 0.50664 -0.12900
N 	N 	0.50502 0.99676 0.44346 -0.14600
N 	N 	0.71091 0.99794 0.19447 -0.22300
N 	N 	0.67806 0.98019 0.09519 -0.13200
N 	N 	0.68570 0.05330 0.06000 -0.15300
N 	N 	0.43455 0.61834 0.91287 -0.22900
N 	N 	0.44865 0.55692 0.95529 -0.12900
N 	N 	0.50324 0.50826 0.94670 -0.14600
N 	N 	0.50206 0.71297 0.69653 -0.22300
N 	N 	0.51981 0.69787 0.61500 -0.13200
N 	N 	0.44670 0.63240 0.50670 -0.15300
N 	N 	0.06545 0.97832 0.18379 -0.22900
N 	N 	0.05135 0.00664 0.10827 -0.12800
N 	N 	0.99676 0.94346 0.00502 -0.14500
N 	N 	0.99794 0.69447 0.21091 -0.22300
N 	N 	0.98019 0.59519 0.17806 -0.13200
N 	N 	0.05330 0.56000 0.18570 -0.15300
N 	N 	0.29453 0.88166 0.31621 -0.22900
N 	N 	0.39837 0.94308 0.39173 -0.12900
N 	N 	0.43844 0.99174 0.49498 -0.14600
N 	N 	0.98356 0.78703 0.28909 -0.22300
N 	N 	0.91713 0.80213 0.32194 -0.13200
N 	N 	0.87430 0.86760 0.31430 -0.15300
N 	N 	0.20547 0.52168 0.58713 -0.22900
N 	N 	0.10163 0.49336 0.54471 -0.12900
N 	N 	0.06156 0.55654 0.55330 -0.14600
N 	N 	0.51644 0.80553 0.80347 -0.22300
N 	N 	0.58287 0.90481 0.88500 -0.13200
N 	N 	0.62570 0.94000 0.99330 -0.15300
