data_crystal

_cell_length_a 16.20780
_cell_length_b 8.70820
_cell_length_c 20.87750
_cell_angle_alpha 90.00000
_cell_angle_beta  94.74800
_cell_angle_gamma 90.00000

_symmetry_space_group_name_	'P 1'
_symmetry_space_group_name_H-M	'P 1'

loop_
_symmetry_equiv_pos_as_xyz
  x,y,z

loop_
_atom_site_label
_atom_site_type_symbol
_atom_site_fract_x
_atom_site_fract_y
_atom_site_fract_z
_atom_site_charge
Dy	Dy	0.24272 0.22225 0.71269 1.91100
O 	O 	0.12760 0.35810 0.66270 -0.45400
O 	O 	0.36740 0.32260 0.74880 -0.54200
O 	O 	0.17930 0.53960 0.83890 -0.52000
O 	O 	0.17850 0.30150 0.80100 -0.51200
O 	O 	0.36210 0.54730 0.79940 -0.53400
O 	O 	0.21290 0.53550 0.70540 -0.51200
N 	N 	0.98520 0.93420 0.49950 -0.09800
N 	N 	0.75570 0.45800 0.84110 -0.09900
N 	N 	0.78380 0.36090 0.81090 -0.09700
C 	C 	0.15280 0.49480 0.66540 0.38300
C 	C 	0.11100 0.61040 0.62050 -0.17200
C 	C 	0.14880 0.75090 0.60980 0.10200
H 	H 	0.20080 0.77180 0.63010 -0.00500
C 	C 	0.11030 0.85900 0.56980 -0.18100
H 	H 	0.13580 0.95280 0.56340 0.09700
C 	C 	0.03220 0.82640 0.53870 0.15400
C 	C 	0.99550 0.68240 0.54730 -0.17900
H 	H 	0.94430 0.65980 0.52580 0.09800
C 	C 	0.03490 0.57470 0.58720 0.09200
H 	H 	0.01100 0.47870 0.59210 0.01100
C 	C 	0.39990 0.43390 0.78070 0.52900
C 	C 	0.49220 0.42600 0.79740 -0.23200
C 	C 	0.53090 0.53880 0.83710 0.14800
H 	H 	0.49920 0.61460 0.85460 -0.00200
C 	C 	0.61650 0.53850 0.85060 -0.23000
H 	H 	0.64200 0.61210 0.87780 0.11900
C 	C 	0.66180 0.42990 0.82380 0.18400
C 	C 	0.62580 0.31250 0.78600 -0.21900
H 	H 	0.65800 0.23560 0.76980 0.12000
C 	C 	0.53860 0.31330 0.77290 0.14700
H 	H 	0.51300 0.23660 0.74740 -0.01000
C 	C 	0.14330 0.41730 0.82220 0.51200
C 	C 	0.05160 0.40730 0.82610 -0.24000
C 	C 	0.00980 0.51810 0.85920 0.14400
H 	H 	0.03860 0.59520 0.88240 -0.01900
C 	C 	0.92140 0.51000 0.85660 -0.22400
H 	H 	0.89220 0.58350 0.87780 0.11500
C 	C 	0.87970 0.39520 0.82330 0.19000
C 	C 	0.92160 0.28860 0.79260 -0.24200
H 	H 	0.89260 0.20990 0.77070 0.12600
C 	C 	0.00790 0.29330 0.79290 0.16700
H 	H 	0.03560 0.21930 0.77070 -0.01900
Dy	Dy	0.25728 0.72225 0.78731 1.90800
O 	O 	0.37240 0.85810 0.83730 -0.45400
O 	O 	0.13260 0.82260 0.75120 -0.54300
O 	O 	0.32070 0.03960 0.66110 -0.51800
O 	O 	0.32150 0.80150 0.69900 -0.51300
O 	O 	0.13790 0.04730 0.70060 -0.53200
O 	O 	0.28710 0.03550 0.79460 -0.51000
N 	N 	0.51480 0.43420 0.00050 -0.10100
N 	N 	0.74430 0.95800 0.65890 -0.09900
N 	N 	0.71620 0.86090 0.68910 -0.09700
C 	C 	0.34720 0.99480 0.83460 0.37700
C 	C 	0.38900 0.11040 0.87950 -0.17200
C 	C 	0.35120 0.25090 0.89020 0.10400
H 	H 	0.29920 0.27180 0.86990 -0.00500
C 	C 	0.38970 0.35900 0.93020 -0.18400
H 	H 	0.36420 0.45280 0.93660 0.09900
C 	C 	0.46780 0.32640 0.96130 0.16000
C 	C 	0.50450 0.18240 0.95270 -0.18700
H 	H 	0.55570 0.15980 0.97420 0.10100
C 	C 	0.46510 0.07470 0.91280 0.10100
H 	H 	0.48900 0.97870 0.90790 0.00700
C 	C 	0.10010 0.93390 0.71930 0.52600
C 	C 	0.00780 0.92600 0.70260 -0.23600
C 	C 	0.96910 0.03880 0.66290 0.14700
H 	H 	0.00080 0.11460 0.64540 0.00000
C 	C 	0.88350 0.03850 0.64940 -0.23100
H 	H 	0.85800 0.11210 0.62220 0.11900
C 	C 	0.83820 0.92990 0.67620 0.18500
C 	C 	0.87420 0.81250 0.71400 -0.22200
H 	H 	0.84200 0.73560 0.73020 0.12100
C 	C 	0.96140 0.81330 0.72710 0.15200
H 	H 	0.98700 0.73660 0.75260 -0.01100
C 	C 	0.35670 0.91730 0.67780 0.50900
C 	C 	0.44840 0.90730 0.67390 -0.24100
C 	C 	0.49020 0.01810 0.64080 0.14600
H 	H 	0.46140 0.09520 0.61760 -0.01900
C 	C 	0.57860 0.01000 0.64340 -0.22300
H 	H 	0.60780 0.08350 0.62220 0.11400
C 	C 	0.62030 0.89520 0.67670 0.18900
C 	C 	0.57840 0.78860 0.70740 -0.24100
H 	H 	0.60740 0.70990 0.72930 0.12500
C 	C 	0.49210 0.79330 0.70710 0.16500
H 	H 	0.46440 0.71930 0.72930 -0.01900
Dy	Dy	0.75728 0.77775 0.28731 1.91000
O 	O 	0.87240 0.64190 0.33730 -0.45500
O 	O 	0.63260 0.67740 0.25120 -0.54300
O 	O 	0.82070 0.46040 0.16110 -0.52100
O 	O 	0.82150 0.69850 0.19900 -0.51300
O 	O 	0.63790 0.45270 0.20060 -0.53500
O 	O 	0.78710 0.46450 0.29460 -0.51300
N 	N 	0.01480 0.06580 0.50050 -0.09900
N 	N 	0.24430 0.54200 0.15890 -0.09900
N 	N 	0.21620 0.63910 0.18910 -0.09700
C 	C 	0.84720 0.50520 0.33460 0.38300
C 	C 	0.88900 0.38960 0.37950 -0.17200
C 	C 	0.85120 0.24910 0.39020 0.10200
H 	H 	0.79920 0.22820 0.36990 -0.00500
C 	C 	0.88970 0.14100 0.43020 -0.18100
H 	H 	0.86420 0.04720 0.43660 0.09700
C 	C 	0.96780 0.17360 0.46130 0.15400
C 	C 	0.00450 0.31760 0.45270 -0.17900
H 	H 	0.05570 0.34020 0.47420 0.09800
C 	C 	0.96510 0.42530 0.41280 0.09200
H 	H 	0.98900 0.52130 0.40790 0.01100
C 	C 	0.60010 0.56610 0.21930 0.52900
C 	C 	0.50780 0.57400 0.20260 -0.23200
C 	C 	0.46910 0.46120 0.16290 0.14800
H 	H 	0.50080 0.38540 0.14540 -0.00200
C 	C 	0.38350 0.46150 0.14940 -0.23000
H 	H 	0.35800 0.38790 0.12220 0.11900
C 	C 	0.33820 0.57010 0.17620 0.18400
C 	C 	0.37420 0.68750 0.21400 -0.21900
H 	H 	0.34200 0.76440 0.23020 0.12000
C 	C 	0.46140 0.68670 0.22710 0.14700
H 	H 	0.48700 0.76340 0.25260 -0.01000
C 	C 	0.85670 0.58270 0.17780 0.51200
C 	C 	0.94840 0.59270 0.17390 -0.24000
C 	C 	0.99020 0.48190 0.14080 0.14400
H 	H 	0.96140 0.40480 0.11760 -0.01900
C 	C 	0.07860 0.49000 0.14340 -0.22400
H 	H 	0.10780 0.41650 0.12220 0.11500
C 	C 	0.12030 0.60480 0.17670 0.19000
C 	C 	0.07840 0.71140 0.20740 -0.24200
H 	H 	0.10740 0.79010 0.22930 0.12600
C 	C 	0.99210 0.70670 0.20710 0.16700
H 	H 	0.96440 0.78070 0.22930 -0.01900
Dy	Dy	0.74272 0.27775 0.21269 1.90800
O 	O 	0.62760 0.14190 0.16270 -0.45400
O 	O 	0.86740 0.17740 0.24880 -0.54300
O 	O 	0.67930 0.96040 0.33890 -0.51800
O 	O 	0.67850 0.19850 0.30100 -0.51300
O 	O 	0.86210 0.95270 0.29940 -0.53200
O 	O 	0.71290 0.96450 0.20540 -0.51000
N 	N 	0.48520 0.56580 0.99950 -0.10100
N 	N 	0.25570 0.04200 0.34110 -0.09900
N 	N 	0.28380 0.13910 0.31090 -0.09700
C 	C 	0.65280 0.00520 0.16540 0.37700
C 	C 	0.61100 0.88960 0.12050 -0.17200
C 	C 	0.64880 0.74910 0.10980 0.10400
H 	H 	0.70080 0.72820 0.13010 -0.00500
C 	C 	0.61030 0.64100 0.06980 -0.18400
H 	H 	0.63580 0.54720 0.06340 0.09900
C 	C 	0.53220 0.67360 0.03870 0.16000
C 	C 	0.49550 0.81760 0.04730 -0.18700
H 	H 	0.44430 0.84020 0.02580 0.10100
C 	C 	0.53490 0.92530 0.08720 0.10100
H 	H 	0.51100 0.02130 0.09210 0.00700
C 	C 	0.89990 0.06610 0.28070 0.52600
C 	C 	0.99220 0.07400 0.29740 -0.23600
C 	C 	0.03090 0.96120 0.33710 0.14700
H 	H 	0.99920 0.88540 0.35460 0.00000
C 	C 	0.11650 0.96150 0.35060 -0.23100
H 	H 	0.14200 0.88790 0.37780 0.11900
C 	C 	0.16180 0.07010 0.32380 0.18500
C 	C 	0.12580 0.18750 0.28600 -0.22200
H 	H 	0.15800 0.26440 0.26980 0.12100
C 	C 	0.03860 0.18670 0.27290 0.15200
H 	H 	0.01300 0.26340 0.24740 -0.01100
C 	C 	0.64330 0.08270 0.32220 0.50900
C 	C 	0.55160 0.09270 0.32610 -0.24100
C 	C 	0.50980 0.98190 0.35920 0.14600
H 	H 	0.53860 0.90480 0.38240 -0.01900
C 	C 	0.42140 0.99000 0.35660 -0.22300
H 	H 	0.39220 0.91650 0.37780 0.11400
C 	C 	0.37970 0.10480 0.32330 0.18900
C 	C 	0.42160 0.21140 0.29260 -0.24100
H 	H 	0.39260 0.29010 0.27070 0.12500
C 	C 	0.50790 0.20670 0.29290 0.16500
H 	H 	0.53560 0.28070 0.27070 -0.01900
