data_crystal

_cell_length_a 16.17050
_cell_length_b 8.69430
_cell_length_c 20.87970
_cell_angle_alpha 90.00000
_cell_angle_beta  94.63300
_cell_angle_gamma 90.00000

_symmetry_space_group_name_	'P 1'
_symmetry_space_group_name_H-M	'P 1'

loop_
_symmetry_equiv_pos_as_xyz
  x,y,z

loop_
_atom_site_label
_atom_site_type_symbol
_atom_site_fract_x
_atom_site_fract_y
_atom_site_fract_z
_atom_site_charge
Er	Er	0.24319 0.22305 0.71312 1.83100
O 	O 	0.13030 0.36000 0.66340 -0.45600
O 	O 	0.36670 0.32440 0.74940 -0.53300
O 	O 	0.17770 0.54260 0.83710 -0.51000
O 	O 	0.17850 0.30230 0.79990 -0.50300
O 	O 	0.36080 0.54900 0.80030 -0.52100
O 	O 	0.21440 0.53970 0.70520 -0.50500
N 	N 	0.98570 0.93300 0.49940 -0.10100
N 	N 	0.75380 0.45690 0.84020 -0.10000
N 	N 	0.78370 0.36100 0.81180 -0.09600
C 	C 	0.15430 0.49690 0.66660 0.39900
C 	C 	0.11280 0.61170 0.62100 -0.17900
C 	C 	0.15040 0.75200 0.60970 0.10800
H 	H 	0.20280 0.77320 0.62950 -0.00300
C 	C 	0.11090 0.86050 0.56950 -0.18900
H 	H 	0.13610 0.95470 0.56290 0.10200
C 	C 	0.03300 0.82730 0.53920 0.16500
C 	C 	0.99760 0.68360 0.54680 -0.19000
H 	H 	0.94730 0.65940 0.52440 0.10300
C 	C 	0.03710 0.57600 0.58770 0.10100
H 	H 	0.01310 0.48020 0.59290 0.00800
C 	C 	0.39890 0.43520 0.78110 0.52900
C 	C 	0.49090 0.42840 0.79810 -0.24200
C 	C 	0.53030 0.54090 0.83750 0.17100
H 	H 	0.49890 0.61770 0.85480 -0.00900
C 	C 	0.61460 0.53930 0.85100 -0.25800
H 	H 	0.64000 0.61380 0.87780 0.12800
C 	C 	0.66010 0.43180 0.82580 0.20000
C 	C 	0.62360 0.31510 0.78670 -0.23100
H 	H 	0.65640 0.24000 0.76960 0.12400
C 	C 	0.53750 0.31300 0.77380 0.15900
H 	H 	0.51200 0.23470 0.74900 -0.01300
C 	C 	0.14320 0.41870 0.82080 0.50600
C 	C 	0.05060 0.40800 0.82530 -0.23300
C 	C 	0.00720 0.51590 0.85810 0.15400
H 	H 	0.03560 0.59460 0.88060 -0.02100
C 	C 	0.92140 0.50680 0.85740 -0.23200
H 	H 	0.89260 0.57820 0.88020 0.11800
C 	C 	0.87890 0.39260 0.82310 0.18700
C 	C 	0.92110 0.28490 0.79110 -0.23600
H 	H 	0.89220 0.20680 0.76860 0.12400
C 	C 	0.00670 0.29130 0.79190 0.16000
H 	H 	0.03510 0.21730 0.77010 -0.01500
Er	Er	0.25681 0.72305 0.78688 1.82900
O 	O 	0.36970 0.86000 0.83660 -0.45500
O 	O 	0.13330 0.82440 0.75060 -0.53300
O 	O 	0.32230 0.04260 0.66290 -0.50800
O 	O 	0.32150 0.80230 0.70010 -0.50300
O 	O 	0.13920 0.04900 0.69970 -0.51800
O 	O 	0.28560 0.03970 0.79480 -0.50100
N 	N 	0.51430 0.43300 0.00060 -0.10300
N 	N 	0.74620 0.95690 0.65980 -0.10000
N 	N 	0.71630 0.86100 0.68820 -0.09600
C 	C 	0.34570 0.99690 0.83340 0.39400
C 	C 	0.38720 0.11170 0.87900 -0.17900
C 	C 	0.34960 0.25200 0.89030 0.11000
H 	H 	0.29720 0.27320 0.87050 -0.00400
C 	C 	0.38910 0.36050 0.93050 -0.19200
H 	H 	0.36390 0.45470 0.93710 0.10400
C 	C 	0.46700 0.32730 0.96080 0.17100
C 	C 	0.50240 0.18360 0.95320 -0.19800
H 	H 	0.55270 0.15940 0.97560 0.10600
C 	C 	0.46290 0.07600 0.91230 0.10900
H 	H 	0.48690 0.98020 0.90710 0.00400
C 	C 	0.10110 0.93520 0.71890 0.52500
C 	C 	0.00910 0.92840 0.70190 -0.24600
C 	C 	0.96970 0.04090 0.66250 0.17100
H 	H 	0.00110 0.11770 0.64520 -0.00700
C 	C 	0.88540 0.03930 0.64900 -0.25900
H 	H 	0.86000 0.11380 0.62220 0.12900
C 	C 	0.83990 0.93180 0.67420 0.20100
C 	C 	0.87640 0.81510 0.71330 -0.23300
H 	H 	0.84360 0.74000 0.73040 0.12500
C 	C 	0.96250 0.81300 0.72620 0.16300
H 	H 	0.98800 0.73470 0.75100 -0.01400
C 	C 	0.35680 0.91870 0.67920 0.50200
C 	C 	0.44940 0.90800 0.67470 -0.23400
C 	C 	0.49280 0.01590 0.64190 0.15600
H 	H 	0.46440 0.09460 0.61940 -0.02100
C 	C 	0.57860 0.00680 0.64260 -0.23100
H 	H 	0.60740 0.07820 0.61980 0.11700
C 	C 	0.62110 0.89260 0.67690 0.18600
C 	C 	0.57890 0.78490 0.70890 -0.23500
H 	H 	0.60780 0.70680 0.73140 0.12400
C 	C 	0.49330 0.79130 0.70810 0.15800
H 	H 	0.46490 0.71730 0.72990 -0.01500
Er	Er	0.75681 0.77695 0.28688 1.83100
O 	O 	0.86970 0.64000 0.33660 -0.45600
O 	O 	0.63330 0.67560 0.25060 -0.53300
O 	O 	0.82230 0.45740 0.16290 -0.51000
O 	O 	0.82150 0.69770 0.20010 -0.50300
O 	O 	0.63920 0.45100 0.19970 -0.52100
O 	O 	0.78560 0.46030 0.29480 -0.50500
N 	N 	0.01430 0.06700 0.50060 -0.10100
N 	N 	0.24620 0.54310 0.15980 -0.10000
N 	N 	0.21630 0.63900 0.18820 -0.09600
C 	C 	0.84570 0.50310 0.33340 0.39900
C 	C 	0.88720 0.38830 0.37900 -0.17900
C 	C 	0.84960 0.24800 0.39030 0.10800
H 	H 	0.79720 0.22680 0.37050 -0.00300
C 	C 	0.88910 0.13950 0.43050 -0.18900
H 	H 	0.86390 0.04530 0.43710 0.10200
C 	C 	0.96700 0.17270 0.46080 0.16500
C 	C 	0.00240 0.31640 0.45320 -0.19000
H 	H 	0.05270 0.34060 0.47560 0.10300
C 	C 	0.96290 0.42400 0.41230 0.10100
H 	H 	0.98690 0.51980 0.40710 0.00800
C 	C 	0.60110 0.56480 0.21890 0.52900
C 	C 	0.50910 0.57160 0.20190 -0.24200
C 	C 	0.46970 0.45910 0.16250 0.17100
H 	H 	0.50110 0.38230 0.14520 -0.00900
C 	C 	0.38540 0.46070 0.14900 -0.25800
H 	H 	0.36000 0.38620 0.12220 0.12800
C 	C 	0.33990 0.56820 0.17420 0.20000
C 	C 	0.37640 0.68490 0.21330 -0.23100
H 	H 	0.34360 0.76000 0.23040 0.12400
C 	C 	0.46250 0.68700 0.22620 0.15900
H 	H 	0.48800 0.76530 0.25100 -0.01300
C 	C 	0.85680 0.58130 0.17920 0.50600
C 	C 	0.94940 0.59200 0.17470 -0.23300
C 	C 	0.99280 0.48410 0.14190 0.15400
H 	H 	0.96440 0.40540 0.11940 -0.02100
C 	C 	0.07860 0.49320 0.14260 -0.23200
H 	H 	0.10740 0.42180 0.11980 0.11800
C 	C 	0.12110 0.60740 0.17690 0.18700
C 	C 	0.07890 0.71510 0.20890 -0.23600
H 	H 	0.10780 0.79320 0.23140 0.12400
C 	C 	0.99330 0.70870 0.20810 0.16000
H 	H 	0.96490 0.78270 0.22990 -0.01500
Er	Er	0.74319 0.27695 0.21312 1.82900
O 	O 	0.63030 0.14000 0.16340 -0.45500
O 	O 	0.86670 0.17560 0.24940 -0.53300
O 	O 	0.67770 0.95740 0.33710 -0.50800
O 	O 	0.67850 0.19770 0.29990 -0.50300
O 	O 	0.86080 0.95100 0.30030 -0.51800
O 	O 	0.71440 0.96030 0.20520 -0.50100
N 	N 	0.48570 0.56700 0.99940 -0.10300
N 	N 	0.25380 0.04310 0.34020 -0.10000
N 	N 	0.28370 0.13900 0.31180 -0.09600
C 	C 	0.65430 0.00310 0.16660 0.39400
C 	C 	0.61280 0.88830 0.12100 -0.17900
C 	C 	0.65040 0.74800 0.10970 0.11000
H 	H 	0.70280 0.72680 0.12950 -0.00400
C 	C 	0.61090 0.63950 0.06950 -0.19200
H 	H 	0.63610 0.54530 0.06290 0.10400
C 	C 	0.53300 0.67270 0.03920 0.17100
C 	C 	0.49760 0.81640 0.04680 -0.19800
H 	H 	0.44730 0.84060 0.02440 0.10600
C 	C 	0.53710 0.92400 0.08770 0.10900
H 	H 	0.51310 0.01980 0.09290 0.00400
C 	C 	0.89890 0.06480 0.28110 0.52500
C 	C 	0.99090 0.07160 0.29810 -0.24600
C 	C 	0.03030 0.95910 0.33750 0.17100
H 	H 	0.99890 0.88230 0.35480 -0.00700
C 	C 	0.11460 0.96070 0.35100 -0.25900
H 	H 	0.14000 0.88620 0.37780 0.12900
C 	C 	0.16010 0.06820 0.32580 0.20100
C 	C 	0.12360 0.18490 0.28670 -0.23300
H 	H 	0.15640 0.26000 0.26960 0.12500
C 	C 	0.03750 0.18700 0.27380 0.16300
H 	H 	0.01200 0.26530 0.24900 -0.01400
C 	C 	0.64320 0.08130 0.32080 0.50200
C 	C 	0.55060 0.09200 0.32530 -0.23400
C 	C 	0.50720 0.98410 0.35810 0.15600
H 	H 	0.53560 0.90540 0.38060 -0.02100
C 	C 	0.42140 0.99320 0.35740 -0.23100
H 	H 	0.39260 0.92180 0.38020 0.11700
C 	C 	0.37890 0.10740 0.32310 0.18600
C 	C 	0.42110 0.21510 0.29110 -0.23500
H 	H 	0.39220 0.29320 0.26860 0.12400
C 	C 	0.50670 0.20870 0.29190 0.15800
H 	H 	0.53510 0.28270 0.27010 -0.01500
