data_crystal

_cell_length_a 16.25380
_cell_length_b 8.70930
_cell_length_c 20.85950
_cell_angle_alpha 90.00000
_cell_angle_beta  94.89100
_cell_angle_gamma 90.00000

_symmetry_space_group_name_	'P 1'
_symmetry_space_group_name_H-M	'P 1'

loop_
_symmetry_equiv_pos_as_xyz
  x,y,z

loop_
_atom_site_label
_atom_site_type_symbol
_atom_site_fract_x
_atom_site_fract_y
_atom_site_fract_z
_atom_site_charge
Tb	Tb	0.24239 0.22123 0.71242 1.94400
O 	O 	0.12590 0.35730 0.66220 -0.46300
O 	O 	0.36930 0.32010 0.74840 -0.54800
O 	O 	0.17920 0.53840 0.83950 -0.52200
O 	O 	0.17840 0.29970 0.80160 -0.52000
O 	O 	0.36320 0.54390 0.79890 -0.53900
O 	O 	0.21200 0.53300 0.70467 -0.52800
N 	N 	0.98520 0.93410 0.49910 -0.10200
N 	N 	0.75480 0.45780 0.84020 -0.10000
N 	N 	0.78560 0.36050 0.81210 -0.09800
C 	C 	0.15170 0.49250 0.66570 0.39300
C 	C 	0.11060 0.60890 0.62050 -0.17800
C 	C 	0.14870 0.74900 0.61040 0.10500
H 	H 	0.20060 0.76970 0.63090 -0.00900
C 	C 	0.10960 0.85760 0.56980 -0.18800
H 	H 	0.13540 0.95080 0.56320 0.09700
C 	C 	0.03210 0.82770 0.53910 0.16100
C 	C 	0.99610 0.68450 0.54680 -0.18900
H 	H 	0.94540 0.66230 0.52470 0.10000
C 	C 	0.03440 0.57550 0.58670 0.09800
H 	H 	0.00990 0.48000 0.59110 0.00900
C 	C 	0.40140 0.43120 0.77980 0.53600
C 	C 	0.49310 0.42630 0.79660 -0.23900
C 	C 	0.53190 0.53790 0.83670 0.15700
H 	H 	0.49990 0.61260 0.85450 -0.00500
C 	C 	0.61600 0.54030 0.85060 -0.23300
H 	H 	0.64070 0.61550 0.87740 0.12000
C 	C 	0.66260 0.42980 0.82410 0.18200
C 	C 	0.62600 0.31220 0.78580 -0.21900
H 	H 	0.65820 0.23600 0.76920 0.12000
C 	C 	0.53970 0.31150 0.77290 0.15000
H 	H 	0.51420 0.23320 0.74830 -0.01100
C 	C 	0.14330 0.41490 0.82240 0.50500
C 	C 	0.05090 0.40710 0.82620 -0.23500
C 	C 	0.00920 0.51610 0.85880 0.15200
H 	H 	0.03780 0.59430 0.88150 -0.02200
C 	C 	0.92230 0.50690 0.85730 -0.23100
H 	H 	0.89360 0.57900 0.87960 0.11700
C 	C 	0.88000 0.39400 0.82370 0.19100
C 	C 	0.92180 0.28600 0.79270 -0.23800
H 	H 	0.89250 0.20820 0.77040 0.12500
C 	C 	0.00740 0.28880 0.79350 0.16000
H 	H 	0.03530 0.21300 0.77250 -0.01800
Tb	Tb	0.25761 0.72123 0.78758 1.94300
O 	O 	0.37410 0.85730 0.83780 -0.46100
O 	O 	0.13070 0.82010 0.75160 -0.54700
O 	O 	0.32080 0.03840 0.66050 -0.51900
O 	O 	0.32160 0.79970 0.69840 -0.51900
O 	O 	0.13680 0.04390 0.70110 -0.53500
O 	O 	0.28800 0.03300 0.79533 -0.52300
N 	N 	0.51480 0.43410 0.00090 -0.10300
N 	N 	0.74520 0.95780 0.65980 -0.09900
N 	N 	0.71440 0.86050 0.68790 -0.09700
C 	C 	0.34830 0.99250 0.83430 0.38800
C 	C 	0.38940 0.10890 0.87950 -0.17700
C 	C 	0.35130 0.24900 0.88960 0.10800
H 	H 	0.29940 0.26970 0.86910 -0.00900
C 	C 	0.39040 0.35760 0.93020 -0.19000
H 	H 	0.36460 0.45080 0.93680 0.10000
C 	C 	0.46790 0.32770 0.96090 0.16900
C 	C 	0.50390 0.18450 0.95320 -0.19600
H 	H 	0.55460 0.16230 0.97530 0.10400
C 	C 	0.46560 0.07550 0.91330 0.10700
H 	H 	0.49010 0.98000 0.90890 0.00400
C 	C 	0.09860 0.93120 0.72020 0.53200
C 	C 	0.00690 0.92630 0.70340 -0.24300
C 	C 	0.96810 0.03790 0.66330 0.15700
H 	H 	0.00010 0.11260 0.64550 -0.00300
C 	C 	0.88400 0.04030 0.64940 -0.23400
H 	H 	0.85930 0.11550 0.62260 0.12000
C 	C 	0.83740 0.92980 0.67590 0.18300
C 	C 	0.87400 0.81220 0.71420 -0.22200
H 	H 	0.84180 0.73600 0.73080 0.12100
C 	C 	0.96030 0.81150 0.72710 0.15500
H 	H 	0.98580 0.73320 0.75170 -0.01200
C 	C 	0.35670 0.91490 0.67760 0.50200
C 	C 	0.44910 0.90710 0.67380 -0.23600
C 	C 	0.49080 0.01610 0.64120 0.15400
H 	H 	0.46220 0.09430 0.61850 -0.02200
C 	C 	0.57770 0.00690 0.64270 -0.23000
H 	H 	0.60640 0.07900 0.62040 0.11600
C 	C 	0.62000 0.89400 0.67630 0.19000
C 	C 	0.57820 0.78600 0.70730 -0.23700
H 	H 	0.60750 0.70820 0.72960 0.12400
C 	C 	0.49260 0.78880 0.70650 0.15800
H 	H 	0.46470 0.71300 0.72750 -0.01800
Tb	Tb	0.75761 0.77877 0.28758 1.94500
O 	O 	0.87410 0.64270 0.33780 -0.46200
O 	O 	0.63070 0.67990 0.25160 -0.54700
O 	O 	0.82080 0.46160 0.16050 -0.52100
O 	O 	0.82160 0.70030 0.19840 -0.51900
O 	O 	0.63680 0.45610 0.20110 -0.53800
O 	O 	0.78800 0.46700 0.29533 -0.52700
N 	N 	0.01480 0.06590 0.50090 -0.10100
N 	N 	0.24520 0.54220 0.15980 -0.09900
N 	N 	0.21440 0.63950 0.18790 -0.09700
C 	C 	0.84830 0.50750 0.33430 0.39400
C 	C 	0.88940 0.39110 0.37950 -0.17700
C 	C 	0.85130 0.25100 0.38960 0.10600
H 	H 	0.79940 0.23030 0.36910 -0.00800
C 	C 	0.89040 0.14240 0.43020 -0.18700
H 	H 	0.86460 0.04920 0.43680 0.09800
C 	C 	0.96790 0.17230 0.46090 0.16200
C 	C 	0.00390 0.31550 0.45320 -0.18800
H 	H 	0.05460 0.33770 0.47530 0.10100
C 	C 	0.96560 0.42450 0.41330 0.09900
H 	H 	0.99010 0.52000 0.40890 0.00900
C 	C 	0.59860 0.56880 0.22020 0.53600
C 	C 	0.50690 0.57370 0.20340 -0.23900
C 	C 	0.46810 0.46210 0.16330 0.15700
H 	H 	0.50010 0.38740 0.14550 -0.00500
C 	C 	0.38400 0.45970 0.14940 -0.23300
H 	H 	0.35930 0.38450 0.12260 0.12000
C 	C 	0.33740 0.57020 0.17590 0.18200
C 	C 	0.37400 0.68780 0.21420 -0.21900
H 	H 	0.34180 0.76400 0.23080 0.12000
C 	C 	0.46030 0.68850 0.22710 0.15000
H 	H 	0.48580 0.76680 0.25170 -0.01100
C 	C 	0.85670 0.58510 0.17760 0.50500
C 	C 	0.94910 0.59290 0.17380 -0.23500
C 	C 	0.99080 0.48390 0.14120 0.15200
H 	H 	0.96220 0.40570 0.11850 -0.02200
C 	C 	0.07770 0.49310 0.14270 -0.23100
H 	H 	0.10640 0.42100 0.12040 0.11700
C 	C 	0.12000 0.60600 0.17630 0.19100
C 	C 	0.07820 0.71400 0.20730 -0.23800
H 	H 	0.10750 0.79180 0.22960 0.12500
C 	C 	0.99260 0.71120 0.20650 0.16000
H 	H 	0.96470 0.78700 0.22750 -0.01800
Tb	Tb	0.74239 0.27877 0.21242 1.94300
O 	O 	0.62590 0.14270 0.16220 -0.46100
O 	O 	0.86930 0.17990 0.24840 -0.54700
O 	O 	0.67920 0.96160 0.33950 -0.51900
O 	O 	0.67840 0.20030 0.30160 -0.51900
O 	O 	0.86320 0.95610 0.29890 -0.53500
O 	O 	0.71200 0.96700 0.20467 -0.52300
N 	N 	0.48520 0.56590 0.99910 -0.10300
N 	N 	0.25480 0.04220 0.34020 -0.09900
N 	N 	0.28560 0.13950 0.31210 -0.09700
C 	C 	0.65170 0.00750 0.16570 0.38800
C 	C 	0.61060 0.89110 0.12050 -0.17700
C 	C 	0.64870 0.75100 0.11040 0.10800
H 	H 	0.70060 0.73030 0.13090 -0.00900
C 	C 	0.60960 0.64240 0.06980 -0.19000
H 	H 	0.63540 0.54920 0.06320 0.10000
C 	C 	0.53210 0.67230 0.03910 0.16900
C 	C 	0.49610 0.81550 0.04680 -0.19600
H 	H 	0.44540 0.83770 0.02470 0.10400
C 	C 	0.53440 0.92450 0.08670 0.10700
H 	H 	0.50990 0.02000 0.09110 0.00400
C 	C 	0.90140 0.06880 0.27980 0.53200
C 	C 	0.99310 0.07370 0.29660 -0.24300
C 	C 	0.03190 0.96210 0.33670 0.15700
H 	H 	0.99990 0.88740 0.35450 -0.00300
C 	C 	0.11600 0.95970 0.35060 -0.23400
H 	H 	0.14070 0.88450 0.37740 0.12000
C 	C 	0.16260 0.07020 0.32410 0.18300
C 	C 	0.12600 0.18780 0.28580 -0.22200
H 	H 	0.15820 0.26400 0.26920 0.12100
C 	C 	0.03970 0.18850 0.27290 0.15500
H 	H 	0.01420 0.26680 0.24830 -0.01200
C 	C 	0.64330 0.08510 0.32240 0.50200
C 	C 	0.55090 0.09290 0.32620 -0.23600
C 	C 	0.50920 0.98390 0.35880 0.15400
H 	H 	0.53780 0.90570 0.38150 -0.02200
C 	C 	0.42230 0.99310 0.35730 -0.23000
H 	H 	0.39360 0.92100 0.37960 0.11600
C 	C 	0.38000 0.10600 0.32370 0.19000
C 	C 	0.42180 0.21400 0.29270 -0.23700
H 	H 	0.39250 0.29180 0.27040 0.12400
C 	C 	0.50740 0.21120 0.29350 0.15800
H 	H 	0.53530 0.28700 0.27250 -0.01800
