data_crystal

_cell_length_a 26.68200
_cell_length_b 39.63000
_cell_length_c 17.09670
_cell_angle_alpha 90.00000
_cell_angle_beta  100.95000
_cell_angle_gamma 90.00000

_symmetry_space_group_name_	'P 1'
_symmetry_space_group_name_H-M	'P 1'

loop_
_symmetry_equiv_pos_as_xyz
  x,y,z

loop_
_atom_site_label
_atom_site_type_symbol
_atom_site_fract_x
_atom_site_fract_y
_atom_site_fract_z
_atom_site_charge
Cd	Cd	0.19292 0.16879 0.50422 1.21200
N 	N 	0.16810 0.11414 0.50530 -0.23700
N 	N 	0.15650 0.06066 0.47270 -0.15900
C 	C 	0.43800 0.18820 0.07850 0.02000
C 	C 	0.46980 0.16270 0.04390 -0.02300
H 	H 	0.49120 0.15000 0.08620 0.05400
H 	H 	0.44800 0.14690 0.00980 0.05500
C 	C 	0.47190 0.21650 0.12420 0.01100
H 	H 	0.48990 0.22860 0.08860 0.03600
H 	H 	0.45110 0.23250 0.14690 0.04100
C 	C 	0.40740 0.17064 0.13470 0.01400
H 	H 	0.38340 0.15460 0.10550 0.04300
H 	H 	0.43010 0.15870 0.17670 0.04000
C 	C 	0.40230 0.20650 0.01070 0.03000
H 	H 	0.38330 0.22400 0.03190 0.03900
H 	H 	0.42170 0.21670 0.97440 0.02900
C 	C 	0.54000 0.22010 0.23610 0.27600
C 	C 	0.54320 0.25550 0.22700 -0.27500
H 	H 	0.52300 0.26640 0.18410 0.12700
C 	C 	0.57630 0.27340 0.28220 0.16700
H 	H 	0.57830 0.29660 0.27550 -0.01200
C 	C 	0.60690 0.25890 0.34700 -0.20700
C 	C 	0.60350 0.22400 0.35610 0.14700
H 	H 	0.62330 0.21370 0.40030 -0.01000
C 	C 	0.57090 0.20410 0.29990 -0.25800
H 	H 	0.57000 0.18080 0.30550 0.13600
C 	C 	0.64120 0.27920 0.40710 0.38100
C 	C 	0.35470 0.18870 0.22650 0.29600
C 	C 	0.33840 0.21640 0.26520 -0.29300
H 	H 	0.34560 0.23820 0.25080 0.14500
C 	C 	0.31180 0.21070 0.32470 0.18800
H 	H 	0.30130 0.22910 0.35140 -0.03000
C 	C 	0.29970 0.17834 0.34680 -0.23400
C 	C 	0.31580 0.15220 0.30690 0.19500
H 	H 	0.30740 0.13050 0.32040 -0.01900
C 	C 	0.34380 0.15600 0.24770 -0.29800
H 	H 	0.35500 0.13730 0.22280 0.14000
C 	C 	0.26910 0.17310 0.41100 0.40700
C 	C 	0.34250 0.18840 0.89460 0.31200
C 	C 	0.33900 0.21930 0.85960 -0.30300
H 	H 	0.35480 0.23780 0.88750 0.14000
C 	C 	0.31190 0.22330 0.78180 0.18500
H 	H 	0.31020 0.24450 0.75790 -0.01700
C 	C 	0.28750 0.19630 0.73990 -0.22700
C 	C 	0.29230 0.16460 0.77560 0.18400
H 	H 	0.27930 0.14560 0.74690 -0.02100
C 	C 	0.31660 0.16170 0.85400 -0.29800
H 	H 	0.31550 0.14120 0.88010 0.14600
C 	C 	0.25900 0.20010 0.65510 0.43900
C 	C 	0.17730 0.09090 0.45700 0.10500
H 	H 	0.19580 0.09420 0.41670 0.00000
C 	C 	0.14220 0.09980 0.56000 -0.00600
H 	H 	0.13310 0.11070 0.60340 0.01200
C 	C 	0.13210 0.06600 0.53850 0.00400
H 	H 	0.11340 0.05050 0.56220 0.02800
C 	C 	0.15930 0.03000 0.43260 0.22100
C 	C 	0.15940 0.03070 0.35130 -0.26500
H 	H 	0.15960 0.05130 0.32500 0.13000
C 	C 	0.15350 0.02470 0.18200 0.11600
O 	O 	0.50751 0.19992 0.18640 -0.24000
O 	O 	0.38090 0.19678 0.16720 -0.24400
O 	O 	0.36820 0.18133 0.97020 -0.25600
O 	O 	0.64300 0.31058 0.39410 -0.42700
O 	O 	0.66581 0.26563 0.46930 -0.47500
O 	O 	0.26230 0.19707 0.45560 -0.51300
O 	O 	0.24910 0.14459 0.41690 -0.37400
O 	O 	0.25910 0.22814 0.62320 -0.45700
O 	O 	0.23850 0.17375 0.62420 -0.47600
N 	N 	0.15840 0.01570 0.10490 -0.08400
Cd	Cd	0.69292 0.66879 0.50422 1.21300
N 	N 	0.66810 0.61414 0.50530 -0.23600
N 	N 	0.65650 0.56066 0.47270 -0.15800
C 	C 	0.93800 0.68820 0.07850 0.02300
C 	C 	0.96980 0.66270 0.04390 -0.02700
H 	H 	0.99120 0.65000 0.08620 0.05600
H 	H 	0.94800 0.64690 0.00980 0.05700
C 	C 	0.97190 0.71650 0.12420 0.00700
H 	H 	0.98990 0.72860 0.08860 0.03700
H 	H 	0.95110 0.73250 0.14690 0.04200
C 	C 	0.90740 0.67064 0.13470 0.01400
H 	H 	0.88340 0.65460 0.10550 0.04400
H 	H 	0.93010 0.65870 0.17670 0.04000
C 	C 	0.90230 0.70650 0.01070 0.02700
H 	H 	0.88330 0.72400 0.03190 0.03900
H 	H 	0.92170 0.71670 0.97440 0.03000
C 	C 	0.04000 0.72010 0.23610 0.27600
C 	C 	0.04320 0.75550 0.22700 -0.27400
H 	H 	0.02300 0.76640 0.18410 0.12800
C 	C 	0.07630 0.77340 0.28220 0.16600
H 	H 	0.07830 0.79660 0.27550 -0.01200
C 	C 	0.10690 0.75890 0.34700 -0.20700
C 	C 	0.10350 0.72400 0.35610 0.14700
H 	H 	0.12330 0.71370 0.40030 -0.01000
C 	C 	0.07090 0.70410 0.29990 -0.25700
H 	H 	0.07000 0.68080 0.30550 0.13600
C 	C 	0.14120 0.77920 0.40710 0.38100
C 	C 	0.85470 0.68870 0.22650 0.29600
C 	C 	0.83840 0.71640 0.26520 -0.29300
H 	H 	0.84560 0.73820 0.25080 0.14400
C 	C 	0.81180 0.71070 0.32470 0.18800
H 	H 	0.80130 0.72910 0.35140 -0.03000
C 	C 	0.79970 0.67834 0.34680 -0.23400
C 	C 	0.81580 0.65220 0.30690 0.19500
H 	H 	0.80740 0.63050 0.32040 -0.02000
C 	C 	0.84380 0.65600 0.24770 -0.29800
H 	H 	0.85500 0.63730 0.22280 0.14000
C 	C 	0.76910 0.67310 0.41100 0.40700
C 	C 	0.84250 0.68840 0.89460 0.31200
C 	C 	0.83900 0.71930 0.85960 -0.30200
H 	H 	0.85480 0.73780 0.88750 0.14000
C 	C 	0.81190 0.72330 0.78180 0.18500
H 	H 	0.81020 0.74450 0.75790 -0.01700
C 	C 	0.78750 0.69630 0.73990 -0.22700
C 	C 	0.79230 0.66460 0.77560 0.18400
H 	H 	0.77930 0.64560 0.74690 -0.02100
C 	C 	0.81660 0.66170 0.85400 -0.29800
H 	H 	0.81550 0.64120 0.88010 0.14500
C 	C 	0.75900 0.70010 0.65510 0.43900
C 	C 	0.67730 0.59090 0.45700 0.10500
H 	H 	0.69580 0.59420 0.41670 0.00000
C 	C 	0.64220 0.59980 0.56000 -0.00600
H 	H 	0.63310 0.61070 0.60340 0.01100
C 	C 	0.63210 0.56600 0.53850 0.00400
H 	H 	0.61340 0.55050 0.56220 0.02800
C 	C 	0.65930 0.53000 0.43260 0.22000
C 	C 	0.65940 0.53070 0.35130 -0.26500
H 	H 	0.65960 0.55130 0.32500 0.13000
C 	C 	0.65350 0.52470 0.18200 0.11500
O 	O 	0.00751 0.69992 0.18640 -0.23700
O 	O 	0.88090 0.69678 0.16720 -0.24400
O 	O 	0.86820 0.68133 0.97020 -0.25500
O 	O 	0.14300 0.81058 0.39410 -0.42700
O 	O 	0.16581 0.76563 0.46930 -0.47500
O 	O 	0.76230 0.69707 0.45560 -0.51300
O 	O 	0.74910 0.64459 0.41690 -0.37400
O 	O 	0.75910 0.72814 0.62320 -0.45700
O 	O 	0.73850 0.67375 0.62420 -0.47600
N 	N 	0.65840 0.51570 0.10490 -0.08500
Cd	Cd	0.80708 0.16879 0.49578 1.21300
N 	N 	0.83190 0.11414 0.49470 -0.23600
N 	N 	0.84350 0.06066 0.52730 -0.15800
C 	C 	0.56200 0.18820 0.92150 0.03300
C 	C 	0.53020 0.16270 0.95610 -0.03200
H 	H 	0.50880 0.15000 0.91380 0.05600
H 	H 	0.55200 0.14690 0.99020 0.05500
C 	C 	0.52810 0.21650 0.87580 0.00600
H 	H 	0.51010 0.22860 0.91140 0.03700
H 	H 	0.54890 0.23250 0.85310 0.04300
C 	C 	0.59260 0.17064 0.86530 0.01000
H 	H 	0.61660 0.15460 0.89450 0.04300
H 	H 	0.56990 0.15870 0.82330 0.04200
C 	C 	0.59770 0.20650 0.98930 -0.01200
H 	H 	0.61670 0.22400 0.96810 0.04700
H 	H 	0.57830 0.21670 0.02560 0.04900
C 	C 	0.46000 0.22010 0.76390 0.27500
C 	C 	0.45680 0.25550 0.77300 -0.27500
H 	H 	0.47700 0.26640 0.81590 0.12600
C 	C 	0.42370 0.27340 0.71780 0.16600
H 	H 	0.42170 0.29660 0.72450 -0.01300
C 	C 	0.39310 0.25890 0.65300 -0.20700
C 	C 	0.39650 0.22400 0.64390 0.14700
H 	H 	0.37670 0.21370 0.59970 -0.01000
C 	C 	0.42910 0.20410 0.70010 -0.25700
H 	H 	0.43000 0.18080 0.69450 0.13500
C 	C 	0.35880 0.27920 0.59290 0.38100
C 	C 	0.64530 0.18870 0.77350 0.29500
C 	C 	0.66160 0.21640 0.73480 -0.29300
H 	H 	0.65440 0.23820 0.74920 0.14400
C 	C 	0.68820 0.21070 0.67530 0.18700
H 	H 	0.69870 0.22910 0.64860 -0.03000
C 	C 	0.70030 0.17834 0.65320 -0.23400
C 	C 	0.68420 0.15220 0.69310 0.19400
H 	H 	0.69260 0.13050 0.67960 -0.02000
C 	C 	0.65620 0.15600 0.75230 -0.29800
H 	H 	0.64500 0.13730 0.77720 0.13900
C 	C 	0.73090 0.17310 0.58900 0.40700
C 	C 	0.65750 0.18840 0.10540 0.30700
C 	C 	0.66100 0.21930 0.14040 -0.29700
H 	H 	0.64520 0.23780 0.11250 0.14000
C 	C 	0.68810 0.22330 0.21820 0.18200
H 	H 	0.68980 0.24450 0.24210 -0.01600
C 	C 	0.71250 0.19630 0.26010 -0.22400
C 	C 	0.70770 0.16460 0.22440 0.18100
H 	H 	0.72070 0.14560 0.25310 -0.01900
C 	C 	0.68340 0.16170 0.14600 -0.29300
H 	H 	0.68450 0.14120 0.11990 0.14600
C 	C 	0.74100 0.20010 0.34490 0.43800
C 	C 	0.82270 0.09090 0.54300 0.10500
H 	H 	0.80420 0.09420 0.58330 0.00000
C 	C 	0.85780 0.09980 0.44000 -0.00600
H 	H 	0.86690 0.11070 0.39660 0.01200
C 	C 	0.86790 0.06600 0.46150 0.00400
H 	H 	0.88660 0.05050 0.43780 0.02800
C 	C 	0.84070 0.03000 0.56740 0.22000
C 	C 	0.84060 0.03070 0.64870 -0.26500
H 	H 	0.84040 0.05130 0.67500 0.12900
C 	C 	0.84650 0.02470 0.81800 0.11300
O 	O 	0.49249 0.19992 0.81360 -0.23900
O 	O 	0.61910 0.19678 0.83280 -0.24400
O 	O 	0.63180 0.18133 0.02980 -0.24000
O 	O 	0.35700 0.31058 0.60590 -0.42700
O 	O 	0.33419 0.26563 0.53070 -0.47500
O 	O 	0.73770 0.19707 0.54440 -0.51300
O 	O 	0.75090 0.14459 0.58310 -0.37400
O 	O 	0.74090 0.22814 0.37680 -0.45600
O 	O 	0.76150 0.17375 0.37580 -0.47600
N 	N 	0.84160 0.01570 0.89510 -0.08600
Cd	Cd	0.30708 0.66879 0.49578 1.21300
N 	N 	0.33190 0.61414 0.49470 -0.23600
N 	N 	0.34350 0.56066 0.52730 -0.15800
C 	C 	0.06200 0.68820 0.92150 0.03400
C 	C 	0.03020 0.66270 0.95610 -0.03500
H 	H 	0.00880 0.65000 0.91380 0.05800
H 	H 	0.05200 0.64690 0.99020 0.05600
C 	C 	0.02810 0.71650 0.87580 0.00800
H 	H 	0.01010 0.72860 0.91140 0.03700
H 	H 	0.04890 0.73250 0.85310 0.04300
C 	C 	0.09260 0.67064 0.86530 0.00900
H 	H 	0.11660 0.65460 0.89450 0.04300
H 	H 	0.06990 0.65870 0.82330 0.04200
C 	C 	0.09770 0.70650 0.98930 -0.01400
H 	H 	0.11670 0.72400 0.96810 0.04800
H 	H 	0.07830 0.71670 0.02560 0.05000
C 	C 	0.96000 0.72010 0.76390 0.27500
C 	C 	0.95680 0.75550 0.77300 -0.27500
H 	H 	0.97700 0.76640 0.81590 0.12500
C 	C 	0.92370 0.77340 0.71780 0.16600
H 	H 	0.92170 0.79660 0.72450 -0.01300
C 	C 	0.89310 0.75890 0.65300 -0.20700
C 	C 	0.89650 0.72400 0.64390 0.14700
H 	H 	0.87670 0.71370 0.59970 -0.01000
C 	C 	0.92910 0.70410 0.70010 -0.25800
H 	H 	0.93000 0.68080 0.69450 0.13500
C 	C 	0.85880 0.77920 0.59290 0.38100
C 	C 	0.14530 0.68870 0.77350 0.29500
C 	C 	0.16160 0.71640 0.73480 -0.29300
H 	H 	0.15440 0.73820 0.74920 0.14400
C 	C 	0.18820 0.71070 0.67530 0.18800
H 	H 	0.19870 0.72910 0.64860 -0.03000
C 	C 	0.20030 0.67834 0.65320 -0.23400
C 	C 	0.18420 0.65220 0.69310 0.19400
H 	H 	0.19260 0.63050 0.67960 -0.02000
C 	C 	0.15620 0.65600 0.75230 -0.29800
H 	H 	0.14500 0.63730 0.77720 0.13900
C 	C 	0.23090 0.67310 0.58900 0.40700
C 	C 	0.15750 0.68840 0.10540 0.30600
C 	C 	0.16100 0.71930 0.14040 -0.29700
H 	H 	0.14520 0.73780 0.11250 0.14000
C 	C 	0.18810 0.72330 0.21820 0.18200
H 	H 	0.18980 0.74450 0.24210 -0.01600
C 	C 	0.21250 0.69630 0.26010 -0.22400
C 	C 	0.20770 0.66460 0.22440 0.18100
H 	H 	0.22070 0.64560 0.25310 -0.01900
C 	C 	0.18340 0.66170 0.14600 -0.29300
H 	H 	0.18450 0.64120 0.11990 0.14600
C 	C 	0.24100 0.70010 0.34490 0.43800
C 	C 	0.32270 0.59090 0.54300 0.10500
H 	H 	0.30420 0.59420 0.58330 0.00000
C 	C 	0.35780 0.59980 0.44000 -0.00600
H 	H 	0.36690 0.61070 0.39660 0.01200
C 	C 	0.36790 0.56600 0.46150 0.00400
H 	H 	0.38660 0.55050 0.43780 0.02800
C 	C 	0.34070 0.53000 0.56740 0.22000
C 	C 	0.34060 0.53070 0.64870 -0.26500
H 	H 	0.34040 0.55130 0.67500 0.12900
C 	C 	0.34650 0.52470 0.81800 0.11300
O 	O 	0.99249 0.69992 0.81360 -0.24100
O 	O 	0.11910 0.69678 0.83280 -0.24400
O 	O 	0.13180 0.68133 0.02980 -0.23900
O 	O 	0.85700 0.81058 0.60590 -0.42800
O 	O 	0.83419 0.76563 0.53070 -0.47500
O 	O 	0.23770 0.69707 0.54440 -0.51300
O 	O 	0.25090 0.64459 0.58310 -0.37400
O 	O 	0.24090 0.72814 0.37680 -0.45600
O 	O 	0.26150 0.67375 0.37580 -0.47500
N 	N 	0.34160 0.51570 0.89510 -0.08700
Cd	Cd	0.80708 0.83121 0.49578 1.21300
N 	N 	0.83190 0.88586 0.49470 -0.23600
N 	N 	0.84350 0.93934 0.52730 -0.15800
C 	C 	0.56200 0.81180 0.92150 0.03300
C 	C 	0.53020 0.83730 0.95610 -0.03200
H 	H 	0.50880 0.85000 0.91380 0.05600
H 	H 	0.55200 0.85310 0.99020 0.05500
C 	C 	0.52810 0.78350 0.87580 0.00600
H 	H 	0.51010 0.77140 0.91140 0.03700
H 	H 	0.54890 0.76750 0.85310 0.04300
C 	C 	0.59260 0.82936 0.86530 0.01000
H 	H 	0.61660 0.84540 0.89450 0.04300
H 	H 	0.56990 0.84130 0.82330 0.04200
C 	C 	0.59770 0.79350 0.98930 -0.01200
H 	H 	0.61670 0.77600 0.96810 0.04700
H 	H 	0.57830 0.78330 0.02560 0.04900
C 	C 	0.46000 0.77990 0.76390 0.27500
C 	C 	0.45680 0.74450 0.77300 -0.27500
H 	H 	0.47700 0.73360 0.81590 0.12600
C 	C 	0.42370 0.72660 0.71780 0.16600
H 	H 	0.42170 0.70340 0.72450 -0.01300
C 	C 	0.39310 0.74110 0.65300 -0.20700
C 	C 	0.39650 0.77600 0.64390 0.14700
H 	H 	0.37670 0.78630 0.59970 -0.01000
C 	C 	0.42910 0.79590 0.70010 -0.25700
H 	H 	0.43000 0.81920 0.69450 0.13500
C 	C 	0.35880 0.72080 0.59290 0.38100
C 	C 	0.64530 0.81130 0.77350 0.29500
C 	C 	0.66160 0.78360 0.73480 -0.29300
H 	H 	0.65440 0.76180 0.74920 0.14400
C 	C 	0.68820 0.78930 0.67530 0.18700
H 	H 	0.69870 0.77090 0.64860 -0.03000
C 	C 	0.70030 0.82166 0.65320 -0.23400
C 	C 	0.68420 0.84780 0.69310 0.19400
H 	H 	0.69260 0.86950 0.67960 -0.02000
C 	C 	0.65620 0.84400 0.75230 -0.29800
H 	H 	0.64500 0.86270 0.77720 0.13900
C 	C 	0.73090 0.82690 0.58900 0.40700
C 	C 	0.65750 0.81160 0.10540 0.30700
C 	C 	0.66100 0.78070 0.14040 -0.29700
H 	H 	0.64520 0.76220 0.11250 0.14000
C 	C 	0.68810 0.77670 0.21820 0.18200
H 	H 	0.68980 0.75550 0.24210 -0.01600
C 	C 	0.71250 0.80370 0.26010 -0.22400
C 	C 	0.70770 0.83540 0.22440 0.18100
H 	H 	0.72070 0.85440 0.25310 -0.01900
C 	C 	0.68340 0.83830 0.14600 -0.29300
H 	H 	0.68450 0.85880 0.11990 0.14600
C 	C 	0.74100 0.79990 0.34490 0.43800
C 	C 	0.82270 0.90910 0.54300 0.10500
H 	H 	0.80420 0.90580 0.58330 0.00000
C 	C 	0.85780 0.90020 0.44000 -0.00600
H 	H 	0.86690 0.88930 0.39660 0.01200
C 	C 	0.86790 0.93400 0.46150 0.00400
H 	H 	0.88660 0.94950 0.43780 0.02800
C 	C 	0.84070 0.97000 0.56740 0.21900
C 	C 	0.84060 0.96930 0.64870 -0.26600
H 	H 	0.84040 0.94870 0.67500 0.12900
C 	C 	0.84650 0.97530 0.81800 0.11200
O 	O 	0.49249 0.80008 0.81360 -0.23900
O 	O 	0.61910 0.80322 0.83280 -0.24400
O 	O 	0.63180 0.81867 0.02980 -0.24000
O 	O 	0.35700 0.68942 0.60590 -0.42700
O 	O 	0.33419 0.73437 0.53070 -0.47500
O 	O 	0.73770 0.80293 0.54440 -0.51300
O 	O 	0.75090 0.85541 0.58310 -0.37400
O 	O 	0.74090 0.77186 0.37680 -0.45600
O 	O 	0.76150 0.82625 0.37580 -0.47600
N 	N 	0.84160 0.98430 0.89510 -0.08700
Cd	Cd	0.30708 0.33121 0.49578 1.21300
N 	N 	0.33190 0.38586 0.49470 -0.23600
N 	N 	0.34350 0.43934 0.52730 -0.15800
C 	C 	0.06200 0.31180 0.92150 0.03400
C 	C 	0.03020 0.33730 0.95610 -0.03500
H 	H 	0.00880 0.35000 0.91380 0.05800
H 	H 	0.05200 0.35310 0.99020 0.05600
C 	C 	0.02810 0.28350 0.87580 0.00800
H 	H 	0.01010 0.27140 0.91140 0.03700
H 	H 	0.04890 0.26750 0.85310 0.04300
C 	C 	0.09260 0.32936 0.86530 0.00900
H 	H 	0.11660 0.34540 0.89450 0.04300
H 	H 	0.06990 0.34130 0.82330 0.04200
C 	C 	0.09770 0.29350 0.98930 -0.01400
H 	H 	0.11670 0.27600 0.96810 0.04800
H 	H 	0.07830 0.28330 0.02560 0.05000
C 	C 	0.96000 0.27990 0.76390 0.27500
C 	C 	0.95680 0.24450 0.77300 -0.27500
H 	H 	0.97700 0.23360 0.81590 0.12500
C 	C 	0.92370 0.22660 0.71780 0.16600
H 	H 	0.92170 0.20340 0.72450 -0.01300
C 	C 	0.89310 0.24110 0.65300 -0.20700
C 	C 	0.89650 0.27600 0.64390 0.14700
H 	H 	0.87670 0.28630 0.59970 -0.01000
C 	C 	0.92910 0.29590 0.70010 -0.25800
H 	H 	0.93000 0.31920 0.69450 0.13500
C 	C 	0.85880 0.22080 0.59290 0.38100
C 	C 	0.14530 0.31130 0.77350 0.29500
C 	C 	0.16160 0.28360 0.73480 -0.29300
H 	H 	0.15440 0.26180 0.74920 0.14400
C 	C 	0.18820 0.28930 0.67530 0.18800
H 	H 	0.19870 0.27090 0.64860 -0.03000
C 	C 	0.20030 0.32166 0.65320 -0.23400
C 	C 	0.18420 0.34780 0.69310 0.19400
H 	H 	0.19260 0.36950 0.67960 -0.02000
C 	C 	0.15620 0.34400 0.75230 -0.29800
H 	H 	0.14500 0.36270 0.77720 0.13900
C 	C 	0.23090 0.32690 0.58900 0.40700
C 	C 	0.15750 0.31160 0.10540 0.30600
C 	C 	0.16100 0.28070 0.14040 -0.29700
H 	H 	0.14520 0.26220 0.11250 0.14000
C 	C 	0.18810 0.27670 0.21820 0.18200
H 	H 	0.18980 0.25550 0.24210 -0.01600
C 	C 	0.21250 0.30370 0.26010 -0.22400
C 	C 	0.20770 0.33540 0.22440 0.18100
H 	H 	0.22070 0.35440 0.25310 -0.01900
C 	C 	0.18340 0.33830 0.14600 -0.29300
H 	H 	0.18450 0.35880 0.11990 0.14600
C 	C 	0.24100 0.29990 0.34490 0.43800
C 	C 	0.32270 0.40910 0.54300 0.10500
H 	H 	0.30420 0.40580 0.58330 0.00000
C 	C 	0.35780 0.40020 0.44000 -0.00600
H 	H 	0.36690 0.38930 0.39660 0.01200
C 	C 	0.36790 0.43400 0.46150 0.00400
H 	H 	0.38660 0.44950 0.43780 0.02800
C 	C 	0.34070 0.47000 0.56740 0.22000
C 	C 	0.34060 0.46930 0.64870 -0.26500
H 	H 	0.34040 0.44870 0.67500 0.12900
C 	C 	0.34650 0.47530 0.81800 0.11300
O 	O 	0.99249 0.30008 0.81360 -0.24100
O 	O 	0.11910 0.30322 0.83280 -0.24400
O 	O 	0.13180 0.31867 0.02980 -0.23900
O 	O 	0.85700 0.18942 0.60590 -0.42800
O 	O 	0.83419 0.23437 0.53070 -0.47500
O 	O 	0.23770 0.30293 0.54440 -0.51300
O 	O 	0.25090 0.35541 0.58310 -0.37400
O 	O 	0.24090 0.27186 0.37680 -0.45600
O 	O 	0.26150 0.32625 0.37580 -0.47500
N 	N 	0.34160 0.48430 0.89510 -0.08700
Cd	Cd	0.19292 0.83121 0.50422 1.21300
N 	N 	0.16810 0.88586 0.50530 -0.23600
N 	N 	0.15650 0.93934 0.47270 -0.15800
C 	C 	0.43800 0.81180 0.07850 0.02100
C 	C 	0.46980 0.83730 0.04390 -0.02100
H 	H 	0.49120 0.85000 0.08620 0.05500
H 	H 	0.44800 0.85310 0.00980 0.05600
C 	C 	0.47190 0.78350 0.12420 0.01200
H 	H 	0.48990 0.77140 0.08860 0.03700
H 	H 	0.45110 0.76750 0.14690 0.04200
C 	C 	0.40740 0.82936 0.13470 0.01500
H 	H 	0.38340 0.84540 0.10550 0.04300
H 	H 	0.43010 0.84130 0.17670 0.04000
C 	C 	0.40230 0.79350 0.01070 0.03000
H 	H 	0.38330 0.77600 0.03190 0.03900
H 	H 	0.42170 0.78330 0.97440 0.02900
C 	C 	0.54000 0.77990 0.23610 0.27600
C 	C 	0.54320 0.74450 0.22700 -0.27500
H 	H 	0.52300 0.73360 0.18410 0.12700
C 	C 	0.57630 0.72660 0.28220 0.16700
H 	H 	0.57830 0.70340 0.27550 -0.01200
C 	C 	0.60690 0.74110 0.34700 -0.20700
C 	C 	0.60350 0.77600 0.35610 0.14700
H 	H 	0.62330 0.78630 0.40030 -0.01000
C 	C 	0.57090 0.79590 0.29990 -0.25800
H 	H 	0.57000 0.81920 0.30550 0.13600
C 	C 	0.64120 0.72080 0.40710 0.38100
C 	C 	0.35470 0.81130 0.22650 0.29600
C 	C 	0.33840 0.78360 0.26520 -0.29300
H 	H 	0.34560 0.76180 0.25080 0.14500
C 	C 	0.31180 0.78930 0.32470 0.18800
H 	H 	0.30130 0.77090 0.35140 -0.03000
C 	C 	0.29970 0.82166 0.34680 -0.23400
C 	C 	0.31580 0.84780 0.30690 0.19500
H 	H 	0.30740 0.86950 0.32040 -0.02000
C 	C 	0.34380 0.84400 0.24770 -0.29900
H 	H 	0.35500 0.86270 0.22280 0.14000
C 	C 	0.26910 0.82690 0.41100 0.40700
C 	C 	0.34250 0.81160 0.89460 0.31200
C 	C 	0.33900 0.78070 0.85960 -0.30300
H 	H 	0.35480 0.76220 0.88750 0.14000
C 	C 	0.31190 0.77670 0.78180 0.18500
H 	H 	0.31020 0.75550 0.75790 -0.01700
C 	C 	0.28750 0.80370 0.73990 -0.22700
C 	C 	0.29230 0.83540 0.77560 0.18400
H 	H 	0.27930 0.85440 0.74690 -0.02100
C 	C 	0.31660 0.83830 0.85400 -0.29800
H 	H 	0.31550 0.85880 0.88010 0.14600
C 	C 	0.25900 0.79990 0.65510 0.43900
C 	C 	0.17730 0.90910 0.45700 0.10500
H 	H 	0.19580 0.90580 0.41670 0.00000
C 	C 	0.14220 0.90020 0.56000 -0.00600
H 	H 	0.13310 0.88930 0.60340 0.01200
C 	C 	0.13210 0.93400 0.53850 0.00400
H 	H 	0.11340 0.94950 0.56220 0.02800
C 	C 	0.15930 0.97000 0.43260 0.22000
C 	C 	0.15940 0.96930 0.35130 -0.26600
H 	H 	0.15960 0.94870 0.32500 0.13000
C 	C 	0.15350 0.97530 0.18200 0.11500
O 	O 	0.50751 0.80008 0.18640 -0.24000
O 	O 	0.38090 0.80322 0.16720 -0.24400
O 	O 	0.36820 0.81867 0.97020 -0.25600
O 	O 	0.64300 0.68942 0.39410 -0.42700
O 	O 	0.66581 0.73437 0.46930 -0.47500
O 	O 	0.26230 0.80293 0.45560 -0.51300
O 	O 	0.24910 0.85541 0.41690 -0.37400
O 	O 	0.25910 0.77186 0.62320 -0.45700
O 	O 	0.23850 0.82625 0.62420 -0.47600
N 	N 	0.15840 0.98430 0.10490 -0.08500
Cd	Cd	0.69292 0.33121 0.50422 1.21300
N 	N 	0.66810 0.38586 0.50530 -0.23600
N 	N 	0.65650 0.43934 0.47270 -0.15800
C 	C 	0.93800 0.31180 0.07850 0.02300
C 	C 	0.96980 0.33730 0.04390 -0.02700
H 	H 	0.99120 0.35000 0.08620 0.05600
H 	H 	0.94800 0.35310 0.00980 0.05700
C 	C 	0.97190 0.28350 0.12420 0.00700
H 	H 	0.98990 0.27140 0.08860 0.03700
H 	H 	0.95110 0.26750 0.14690 0.04200
C 	C 	0.90740 0.32936 0.13470 0.01400
H 	H 	0.88340 0.34540 0.10550 0.04400
H 	H 	0.93010 0.34130 0.17670 0.04000
C 	C 	0.90230 0.29350 0.01070 0.02700
H 	H 	0.88330 0.27600 0.03190 0.03900
H 	H 	0.92170 0.28330 0.97440 0.03000
C 	C 	0.04000 0.27990 0.23610 0.27600
C 	C 	0.04320 0.24450 0.22700 -0.27400
H 	H 	0.02300 0.23360 0.18410 0.12800
C 	C 	0.07630 0.22660 0.28220 0.16600
H 	H 	0.07830 0.20340 0.27550 -0.01200
C 	C 	0.10690 0.24110 0.34700 -0.20700
C 	C 	0.10350 0.27600 0.35610 0.14700
H 	H 	0.12330 0.28630 0.40030 -0.01000
C 	C 	0.07090 0.29590 0.29990 -0.25700
H 	H 	0.07000 0.31920 0.30550 0.13600
C 	C 	0.14120 0.22080 0.40710 0.38100
C 	C 	0.85470 0.31130 0.22650 0.29600
C 	C 	0.83840 0.28360 0.26520 -0.29300
H 	H 	0.84560 0.26180 0.25080 0.14400
C 	C 	0.81180 0.28930 0.32470 0.18800
H 	H 	0.80130 0.27090 0.35140 -0.03000
C 	C 	0.79970 0.32166 0.34680 -0.23400
C 	C 	0.81580 0.34780 0.30690 0.19500
H 	H 	0.80740 0.36950 0.32040 -0.02000
C 	C 	0.84380 0.34400 0.24770 -0.29800
H 	H 	0.85500 0.36270 0.22280 0.14000
C 	C 	0.76910 0.32690 0.41100 0.40700
C 	C 	0.84250 0.31160 0.89460 0.31200
C 	C 	0.83900 0.28070 0.85960 -0.30200
H 	H 	0.85480 0.26220 0.88750 0.14000
C 	C 	0.81190 0.27670 0.78180 0.18500
H 	H 	0.81020 0.25550 0.75790 -0.01700
C 	C 	0.78750 0.30370 0.73990 -0.22700
C 	C 	0.79230 0.33540 0.77560 0.18400
H 	H 	0.77930 0.35440 0.74690 -0.02100
C 	C 	0.81660 0.33830 0.85400 -0.29800
H 	H 	0.81550 0.35880 0.88010 0.14500
C 	C 	0.75900 0.29990 0.65510 0.43900
C 	C 	0.67730 0.40910 0.45700 0.10500
H 	H 	0.69580 0.40580 0.41670 0.00000
C 	C 	0.64220 0.40020 0.56000 -0.00600
H 	H 	0.63310 0.38930 0.60340 0.01100
C 	C 	0.63210 0.43400 0.53850 0.00400
H 	H 	0.61340 0.44950 0.56220 0.02800
C 	C 	0.65930 0.47000 0.43260 0.22000
C 	C 	0.65940 0.46930 0.35130 -0.26500
H 	H 	0.65960 0.44870 0.32500 0.13000
C 	C 	0.65350 0.47530 0.18200 0.11500
O 	O 	0.00751 0.30008 0.18640 -0.23700
O 	O 	0.88090 0.30322 0.16720 -0.24400
O 	O 	0.86820 0.31867 0.97020 -0.25500
O 	O 	0.14300 0.18942 0.39410 -0.42700
O 	O 	0.16581 0.23437 0.46930 -0.47500
O 	O 	0.76230 0.30293 0.45560 -0.51300
O 	O 	0.74910 0.35541 0.41690 -0.37400
O 	O 	0.75910 0.27186 0.62320 -0.45700
O 	O 	0.73850 0.32625 0.62420 -0.47600
N 	N 	0.65840 0.48430 0.10490 -0.08500
Cd	Cd	0.25000 0.25000 0.50000 1.24700
Cd	Cd	0.75000 0.25000 0.50000 1.24700
Cd	Cd	0.75000 0.75000 0.50000 1.24700
Cd	Cd	0.25000 0.75000 0.50000 1.24700
N 	N 	0.15730 0.00000 0.22760 -0.19500
C 	C 	0.15920 0.00000 0.30860 0.22200
C 	C 	0.15640 0.00000 0.47370 -0.27100
H 	H 	0.15270 0.00000 0.52670 0.13200
N 	N 	0.65730 0.50000 0.22760 -0.19500
C 	C 	0.65920 0.50000 0.30860 0.22100
C 	C 	0.65640 0.50000 0.47370 -0.27200
H 	H 	0.65270 0.50000 0.52670 0.13200
N 	N 	0.84270 -0.00000 0.77240 -0.19400
C 	C 	0.84080 0.00000 0.69140 0.22000
C 	C 	0.84360 -0.00000 0.52630 -0.27100
H 	H 	0.84730 0.00000 0.47330 0.13200
N 	N 	0.34270 0.50000 0.77240 -0.19400
C 	C 	0.34080 0.50000 0.69140 0.22000
C 	C 	0.34360 0.50000 0.52630 -0.27200
H 	H 	0.34730 0.50000 0.47330 0.13300
O 	O 	0.50000 0.18060 -0.00000 -0.16000
O 	O 	-0.00000 0.68060 -0.00000 -0.15600
O 	O 	0.50000 0.81940 -0.00000 -0.16000
O 	O 	-0.00000 0.31940 -0.00000 -0.15600
