data_crystal

_cell_length_a 28.02800
_cell_length_b 28.02800
_cell_length_c 25.56700
_cell_angle_alpha 90.00000
_cell_angle_beta  90.00000
_cell_angle_gamma 120.00000

_symmetry_space_group_name_	'P 1'
_symmetry_space_group_name_H-M	'P 1'

loop_
_symmetry_equiv_pos_as_xyz
  x,y,z

loop_
_atom_site_label
_atom_site_type_symbol
_atom_site_fract_x
_atom_site_fract_y
_atom_site_fract_z
_atom_site_charge
Cs	Cs	0.37265 0.05491 0.98078 0.42500
P 	P 	0.38488 0.18762 0.00420 -0.34100
O 	O 	0.37230 0.03650 0.09895 -0.36300
C 	C 	0.32620 0.19170 0.99960 0.89700
P 	P 	0.33022 0.25556 0.99492 -0.38700
O 	O 	0.34020 0.98570 0.19731 -0.31600
C 	C 	0.43480 0.25580 0.00370 -0.15400
P 	P 	0.41497 0.30617 0.00013 -0.05000
C 	C 	0.26710 0.13830 0.99940 -4.65400
C 	C 	0.24310 0.11790 0.95660 4.07800
H 	H 	0.20860 0.08690 0.96150 -1.62800
C 	C 	0.24070 0.11590 0.05320 10.29200
C 	C 	0.18450 0.06730 0.05180 -10.79500
H 	H 	0.17650 0.04850 0.08490 3.05800
H 	H 	0.18240 0.04270 0.02460 3.13600
H 	H 	0.15830 0.07900 0.04520 3.04100
C 	C 	0.23250 0.15770 0.07930 -12.55500
H 	H 	0.19610 0.14070 0.09380 3.65900
H 	H 	0.23700 0.18520 0.05440 3.70000
H 	H 	0.25920 0.17450 0.10680 3.61700
C 	C 	0.27000 0.09300 0.07930 -12.62000
H 	H 	0.25090 0.07490 0.11080 3.63000
H 	H 	0.30650 0.12200 0.08790 3.60400
H 	H 	0.27240 0.06690 0.05670 3.70300
C 	C 	0.25700 0.13170 0.89880 -4.16500
C 	C 	0.22690 0.08010 0.86870 4.58600
H 	H 	0.18810 0.06450 0.87410 -1.49600
H 	H 	0.23810 0.05450 0.88020 -1.46800
H 	H 	0.23510 0.08770 0.83220 -1.39800
C 	C 	0.24330 0.17380 0.88210 4.74200
H 	H 	0.20450 0.15960 0.88610 -1.64800
H 	H 	0.25350 0.18310 0.84610 -1.49200
H 	H 	0.26310 0.20620 0.90340 -1.52000
C 	C 	0.31950 0.15480 0.88320 3.57000
H 	H 	0.32340 0.15920 0.84590 -1.16300
H 	H 	0.33090 0.12930 0.89440 -1.09500
H 	H 	0.34200 0.18970 0.89980 -1.06900
C 	C 	0.37140 0.06560 0.14360 0.09400
H 	H 	0.36320 0.09410 0.13330 -0.32600
H 	H 	0.40730 0.08330 0.16020 -0.08800
C 	C 	0.32920 0.02760 0.18110 0.02100
H 	H 	0.32870 0.04820 0.21140 -0.21200
H 	H 	0.29320 0.01100 0.16480 -0.08800
C 	C 	0.34200 0.95660 0.15220 0.00600
H 	H 	0.30600 0.93800 0.13560 0.01600
H 	H 	0.35110 0.92880 0.16260 -0.00000
C 	C 	0.38340 0.99480 0.11440 0.07300
H 	H 	0.41970 0.01140 0.13020 0.04900
H 	H 	0.38350 0.97430 0.08380 -0.00000
C 	C 	0.47110 0.00970 0.92260 -7.11500
H 	H 	0.47470 0.99200 0.89190 1.06900
H 	H 	0.43490 0.00540 0.92360 0.69300
H 	H 	0.47660 0.99310 0.95320 1.64600
C 	C 	0.51590 0.12910 0.03640 -0.74800
H 	H 	0.54310 0.16070 0.05510 0.08800
H 	H 	0.50430 0.09660 0.05720 0.20700
H 	H 	0.48470 0.13350 0.02900 0.03200
O 	O 	0.48700 0.07390 0.97260 0.91700
C 	C 	0.51440 0.07110 0.92130 -0.26500
H 	H 	0.51050 0.09130 0.89240 -0.23600
H 	H 	0.55210 0.07910 0.92510 0.33800
C 	C 	0.54050 0.12340 0.98520 -0.33200
H 	H 	0.55080 0.15380 0.96130 0.08100
H 	H 	0.57040 0.11580 0.98990 -0.12900
C 	C 	0.51500 0.03200 0.96400 2.42300
C 	C 	0.53790 0.09250 0.01900 0.42000
Cs	Cs	0.34630 0.05513 0.97953 0.39500
H 	H 	0.47250 0.98100 0.90320 1.00800
H 	H 	0.47700 0.03900 0.89930 2.16900
H 	H 	0.43570 0.99510 0.93890 1.30000
H 	H 	0.55160 0.05830 0.95130 -0.86400
H 	H 	0.51680 0.00300 0.98440 -0.96800
H 	H 	0.54460 0.07390 0.04800 -0.26100
H 	H 	0.56980 0.11050 0.99660 0.12300
H 	H 	0.54190 0.15720 0.05930 0.07900
H 	H 	0.48160 0.10750 0.05450 0.11900
H 	H 	0.51000 0.14590 0.00620 0.20000
O 	O 	0.48490 0.05670 0.99070 -1.41600
Cs	Cs	0.03932 0.38824 0.31411 0.42000
P 	P 	0.05155 0.52095 0.33753 -0.36900
O 	O 	0.03897 0.36983 0.43228 -0.34500
C 	C 	0.99287 0.52503 0.33293 1.05000
P 	P 	0.99689 0.58889 0.32825 -0.43600
O 	O 	0.00687 0.31903 0.53064 -0.32700
C 	C 	0.10147 0.58913 0.33703 -0.14100
P 	P 	0.08164 0.63950 0.33346 -0.04000
C 	C 	0.93377 0.47163 0.33273 -5.37500
C 	C 	0.90977 0.45123 0.28993 4.83100
H 	H 	0.87527 0.42023 0.29483 -1.94000
C 	C 	0.90737 0.44923 0.38653 11.71600
C 	C 	0.85117 0.40063 0.38513 -12.21900
H 	H 	0.84317 0.38183 0.41823 3.48500
H 	H 	0.84907 0.37603 0.35793 3.53300
H 	H 	0.82497 0.41233 0.37853 3.43500
C 	C 	0.89917 0.49103 0.41263 -14.24800
H 	H 	0.86277 0.47403 0.42713 4.16100
H 	H 	0.90367 0.51853 0.38773 4.20200
H 	H 	0.92587 0.50783 0.44013 4.11900
C 	C 	0.93667 0.42633 0.41263 -14.34900
H 	H 	0.91757 0.40823 0.44413 4.14700
H 	H 	0.97317 0.45533 0.42123 4.11300
H 	H 	0.93907 0.40023 0.39003 4.22000
C 	C 	0.92367 0.46503 0.23213 -5.08000
C 	C 	0.89357 0.41343 0.20203 5.73500
H 	H 	0.85477 0.39783 0.20743 -1.89500
H 	H 	0.90477 0.38783 0.21353 -1.85700
H 	H 	0.90177 0.42103 0.16553 -1.74400
C 	C 	0.90997 0.50713 0.21543 5.85900
H 	H 	0.87117 0.49293 0.21943 -2.03000
H 	H 	0.92017 0.51643 0.17943 -1.82100
H 	H 	0.92977 0.53953 0.23673 -1.87500
C 	C 	0.98617 0.48813 0.21653 4.34800
H 	H 	0.99007 0.49253 0.17923 -1.36700
H 	H 	0.99757 0.46263 0.22773 -1.33200
H 	H 	0.00867 0.52303 0.23313 -1.29000
C 	C 	0.03807 0.39893 0.47693 0.08500
H 	H 	0.02987 0.42743 0.46663 -0.33100
H 	H 	0.07397 0.41663 0.49353 -0.07000
C 	C 	0.99587 0.36093 0.51443 0.03300
H 	H 	0.99537 0.38153 0.54473 -0.20500
H 	H 	0.95987 0.34433 0.49813 -0.07500
C 	C 	0.00867 0.28993 0.48553 0.02500
H 	H 	0.97267 0.27133 0.46893 0.02700
H 	H 	0.01777 0.26213 0.49593 -0.01300
C 	C 	0.05007 0.32813 0.44773 0.02700
H 	H 	0.08637 0.34473 0.46353 0.07300
H 	H 	0.05017 0.30763 0.41713 0.01600
C 	C 	0.13777 0.34303 0.25593 -8.52100
H 	H 	0.14137 0.32533 0.22523 1.35900
H 	H 	0.10157 0.33873 0.25693 0.72300
H 	H 	0.14327 0.32643 0.28653 1.99400
C 	C 	0.18257 0.46243 0.36973 -0.75500
H 	H 	0.20977 0.49403 0.38843 0.09200
H 	H 	0.17097 0.42993 0.39053 0.20300
H 	H 	0.15137 0.46683 0.36233 0.02600
O 	O 	0.15367 0.40723 0.30593 1.10500
C 	C 	0.18107 0.40443 0.25463 -0.25500
H 	H 	0.17717 0.42463 0.22573 -0.30900
H 	H 	0.21877 0.41243 0.25843 0.37400
C 	C 	0.20717 0.45673 0.31853 -0.46100
H 	H 	0.21747 0.48713 0.29463 0.12000
H 	H 	0.23707 0.44913 0.32323 -0.17600
C 	C 	0.18167 0.36533 0.29733 2.86800
C 	C 	0.20457 0.42583 0.35233 0.54200
Cs	Cs	0.01297 0.38846 0.31286 0.38400
H 	H 	0.13917 0.31433 0.23653 1.09300
H 	H 	0.14367 0.37233 0.23263 2.57100
H 	H 	0.10237 0.32843 0.27223 1.66700
H 	H 	0.21827 0.39163 0.28463 -1.02500
H 	H 	0.18347 0.33633 0.31773 -1.14000
H 	H 	0.21127 0.40723 0.38133 -0.32900
H 	H 	0.23647 0.44383 0.32993 0.16500
H 	H 	0.20857 0.49053 0.39263 0.08400
H 	H 	0.14827 0.44083 0.38783 0.13200
H 	H 	0.17667 0.47923 0.33953 0.22000
O 	O 	0.15157 0.39003 0.32403 -1.64700
Cs	Cs	0.70598 0.72157 0.64745 0.41500
P 	P 	0.71821 0.85429 0.67087 -0.39800
O 	O 	0.70563 0.70317 0.76562 -0.35900
C 	C 	0.65953 0.85837 0.66627 1.15300
P 	P 	0.66355 0.92223 0.66159 -0.44900
O 	O 	0.67353 0.65237 0.86398 -0.32900
C 	C 	0.76813 0.92247 0.67037 -0.14200
P 	P 	0.74830 0.97284 0.66680 -0.04200
C 	C 	0.60043 0.80497 0.66607 -5.83100
C 	C 	0.57643 0.78457 0.62327 5.28400
H 	H 	0.54193 0.75357 0.62817 -2.10000
C 	C 	0.57403 0.78257 0.71987 12.69300
C 	C 	0.51783 0.73397 0.71847 -13.22800
H 	H 	0.50983 0.71517 0.75157 3.76700
H 	H 	0.51573 0.70937 0.69127 3.84200
H 	H 	0.49163 0.74567 0.71187 3.73100
C 	C 	0.56583 0.82437 0.74597 -15.41200
H 	H 	0.52943 0.80737 0.76047 4.49800
H 	H 	0.57033 0.85187 0.72107 4.55400
H 	H 	0.59253 0.84117 0.77347 4.46000
C 	C 	0.60333 0.75967 0.74597 -15.52900
H 	H 	0.58423 0.74157 0.77747 4.49000
H 	H 	0.63983 0.78867 0.75457 4.46300
H 	H 	0.60573 0.73357 0.72337 4.57200
C 	C 	0.59033 0.79837 0.56547 -5.57700
C 	C 	0.56023 0.74677 0.53537 6.29100
H 	H 	0.52143 0.73117 0.54077 -2.04600
H 	H 	0.57143 0.72117 0.54687 -2.01700
H 	H 	0.56843 0.75437 0.49887 -1.91300
C 	C 	0.57663 0.84047 0.54877 6.41400
H 	H 	0.53783 0.82627 0.55277 -2.17800
H 	H 	0.58683 0.84977 0.51277 -1.99200
H 	H 	0.59643 0.87287 0.57007 -2.03300
C 	C 	0.65283 0.82147 0.54987 4.87900
H 	H 	0.65673 0.82587 0.51257 -1.55900
H 	H 	0.66423 0.79597 0.56107 -1.48900
H 	H 	0.67533 0.85637 0.56647 -1.46200
C 	C 	0.70473 0.73227 0.81027 0.10200
H 	H 	0.69653 0.76077 0.79997 -0.33800
H 	H 	0.74063 0.74997 0.82687 -0.08100
C 	C 	0.66253 0.69427 0.84777 0.02000
H 	H 	0.66203 0.71487 0.87807 -0.19300
H 	H 	0.62653 0.67767 0.83147 -0.08100
C 	C 	0.67533 0.62327 0.81887 0.00700
H 	H 	0.63933 0.60467 0.80227 0.03100
H 	H 	0.68443 0.59547 0.82927 -0.01000
C 	C 	0.71673 0.66147 0.78107 0.04800
H 	H 	0.75303 0.67807 0.79687 0.05100
H 	H 	0.71683 0.64097 0.75047 0.00700
C 	C 	0.80443 0.67637 0.58927 -9.18600
H 	H 	0.80803 0.65867 0.55857 1.47500
H 	H 	0.76823 0.67207 0.59027 0.68700
H 	H 	0.80993 0.65977 0.61987 2.05000
C 	C 	0.84923 0.79577 0.70307 -0.60700
H 	H 	0.87643 0.82737 0.72177 0.06900
H 	H 	0.83763 0.76327 0.72387 0.14900
H 	H 	0.81803 0.80017 0.69567 -0.01300
O 	O 	0.82033 0.74057 0.63927 1.73100
C 	C 	0.84773 0.73777 0.58797 -0.67600
H 	H 	0.84383 0.75797 0.55907 -0.22400
H 	H 	0.88543 0.74577 0.59177 0.57800
C 	C 	0.87383 0.79007 0.65187 -0.74000
H 	H 	0.88413 0.82047 0.62797 0.20600
H 	H 	0.90373 0.78247 0.65657 -0.23400
C 	C 	0.84833 0.69867 0.63067 3.45900
C 	C 	0.87123 0.75917 0.68567 0.72600
Cs	Cs	0.67963 0.72180 0.64620 0.38100
H 	H 	0.80583 0.64767 0.56987 1.19200
H 	H 	0.81033 0.70567 0.56597 2.85700
H 	H 	0.76903 0.66177 0.60557 1.89000
H 	H 	0.88493 0.72497 0.61797 -1.26400
H 	H 	0.85013 0.66967 0.65107 -1.35600
H 	H 	0.87793 0.74057 0.71467 -0.38500
H 	H 	0.90313 0.77717 0.66327 0.25100
H 	H 	0.87523 0.82387 0.72597 0.06500
H 	H 	0.81493 0.77417 0.72117 0.12300
H 	H 	0.84333 0.81257 0.67287 0.20400
O 	O 	0.81823 0.72337 0.65737 -2.30600
Cs	Cs	0.94509 0.31774 0.98078 0.42800
P 	P 	0.81238 0.19726 0.00420 -0.30700
O 	O 	0.96350 0.33580 0.09895 -0.35000
C 	C 	0.80830 0.13450 0.99960 0.73900
P 	P 	0.74444 0.07466 0.99492 -0.32600
O 	O 	0.01430 0.35450 0.19731 -0.31600
C 	C 	0.74420 0.17900 0.00370 -0.16100
P 	P 	0.69383 0.10880 0.00013 -0.05200
C 	C 	0.86170 0.12880 0.99940 -3.85700
C 	C 	0.88210 0.12520 0.95660 3.34800
H 	H 	0.91310 0.12170 0.96150 -1.35800
C 	C 	0.88410 0.12480 0.05320 8.55700
C 	C 	0.93270 0.11720 0.05180 -8.99000
H 	H 	0.95150 0.12800 0.08490 2.55400
H 	H 	0.95730 0.13970 0.02460 2.57900
H 	H 	0.92100 0.07930 0.04520 2.51000
C 	C 	0.84230 0.07480 0.07930 -10.48600
H 	H 	0.85930 0.05540 0.09380 3.05300
H 	H 	0.81480 0.05180 0.05440 3.07500
H 	H 	0.82550 0.08470 0.10680 3.01400
C 	C 	0.90700 0.17700 0.07930 -10.54300
H 	H 	0.92510 0.17600 0.11080 3.03300
H 	H 	0.87800 0.18450 0.08790 2.99700
H 	H 	0.93310 0.20550 0.05670 3.08400
C 	C 	0.86830 0.12530 0.89880 -3.42900
C 	C 	0.91990 0.14680 0.86870 3.76900
H 	H 	0.93550 0.12360 0.87410 -1.27100
H 	H 	0.94550 0.18360 0.88020 -1.23700
H 	H 	0.91230 0.14740 0.83220 -1.15900
C 	C 	0.82620 0.06950 0.88210 3.88600
H 	H 	0.84040 0.04490 0.88610 -1.38500
H 	H 	0.81690 0.07040 0.84610 -1.23700
H 	H 	0.79380 0.05690 0.90340 -1.26000
C 	C 	0.84520 0.16470 0.88320 2.88900
H 	H 	0.84080 0.16420 0.84590 -0.95700
H 	H 	0.87070 0.20160 0.89440 -0.89300
H 	H 	0.81030 0.15230 0.89980 -0.86400
C 	C 	0.93440 0.30580 0.14360 0.09200
H 	H 	0.90590 0.26910 0.13330 -0.30300
H 	H 	0.91670 0.32400 0.16020 -0.09100
C 	C 	0.97240 0.30160 0.18110 0.01600
H 	H 	0.95180 0.28050 0.21140 -0.20800
H 	H 	0.98900 0.28220 0.16480 -0.06400
C 	C 	0.04340 0.38540 0.15220 0.00400
H 	H 	0.06200 0.36800 0.13560 0.02400
H 	H 	0.07120 0.42230 0.16260 -0.00200
C 	C 	0.00520 0.38860 0.11440 0.07100
H 	H 	0.98860 0.40830 0.13020 0.04900
H 	H 	0.02570 0.40920 0.08380 0.00100
C 	C 	0.99030 0.46140 0.92260 -7.09800
H 	H 	0.00800 0.48270 0.89190 1.06200
H 	H 	0.99460 0.42950 0.92360 0.69600
H 	H 	0.00690 0.48350 0.95320 1.64400
C 	C 	0.87090 0.38680 0.03640 -0.74500
H 	H 	0.83930 0.38240 0.05510 0.08700
H 	H 	0.90340 0.40770 0.05720 0.20700
H 	H 	0.86650 0.35120 0.02900 0.03300
O 	O 	0.92610 0.41310 0.97260 0.89300
C 	C 	0.92890 0.44330 0.92130 -0.24900
H 	H 	0.90870 0.41920 0.89240 -0.24000
H 	H 	0.92090 0.47300 0.92510 0.33100
C 	C 	0.87660 0.41710 0.98520 -0.31900
H 	H 	0.84620 0.39700 0.96130 0.07700
H 	H 	0.88420 0.45460 0.98990 -0.12500
C 	C 	0.96800 0.48300 0.96400 2.40300
C 	C 	0.90750 0.44540 0.01900 0.40800
Cs	Cs	0.94487 0.29117 0.97953 0.40000
H 	H 	0.01900 0.49150 0.90320 1.01000
H 	H 	0.96100 0.43800 0.89930 2.16100
H 	H 	0.00490 0.44060 0.93890 1.29300
H 	H 	0.94170 0.49330 0.95130 -0.85600
H 	H 	0.99700 0.51380 0.98440 -0.96300
H 	H 	0.92610 0.47070 0.04800 -0.25700
H 	H 	0.88950 0.45930 0.99660 0.11800
H 	H 	0.84280 0.38470 0.05930 0.07900
H 	H 	0.89250 0.37410 0.05450 0.11800
H 	H 	0.85410 0.36410 0.00620 0.19600
O 	O 	0.94330 0.42820 0.99070 -1.39000
Cs	Cs	0.61176 0.65108 0.31411 0.41900
P 	P 	0.47905 0.53059 0.33753 -0.39200
O 	O 	0.63017 0.66913 0.43228 -0.35200
C 	C 	0.47497 0.46783 0.33293 1.12500
P 	P 	0.41111 0.40799 0.32825 -0.44800
O 	O 	0.68097 0.68783 0.53064 -0.32700
C 	C 	0.41087 0.51233 0.33703 -0.14400
P 	P 	0.36050 0.44213 0.33346 -0.04500
C 	C 	0.52837 0.46213 0.33273 -5.69700
C 	C 	0.54877 0.45853 0.28993 5.18200
H 	H 	0.57977 0.45503 0.29483 -2.06400
C 	C 	0.55077 0.45813 0.38653 12.35300
C 	C 	0.59937 0.45053 0.38513 -12.87900
H 	H 	0.61817 0.46133 0.41823 3.67000
H 	H 	0.62397 0.47303 0.35793 3.73600
H 	H 	0.58767 0.41263 0.37853 3.62900
C 	C 	0.50897 0.40813 0.41263 -15.00000
H 	H 	0.52597 0.38873 0.42713 4.38000
H 	H 	0.48147 0.38513 0.38773 4.42700
H 	H 	0.49217 0.41803 0.44013 4.33400
C 	C 	0.57367 0.51033 0.41263 -15.10500
H 	H 	0.59177 0.50933 0.44413 4.36200
H 	H 	0.54467 0.51783 0.42123 4.33000
H 	H 	0.59977 0.53883 0.39003 4.44600
C 	C 	0.53497 0.45863 0.23213 -5.51600
C 	C 	0.58657 0.48013 0.20203 6.23100
H 	H 	0.60217 0.45693 0.20743 -2.03500
H 	H 	0.61217 0.51693 0.21353 -2.00100
H 	H 	0.57897 0.48073 0.16553 -1.89600
C 	C 	0.49287 0.40283 0.21543 6.37500
H 	H 	0.50707 0.37823 0.21943 -2.18500
H 	H 	0.48357 0.40373 0.17943 -1.98600
H 	H 	0.46047 0.39023 0.23673 -2.03000
C 	C 	0.51187 0.49803 0.21653 4.81900
H 	H 	0.50747 0.49753 0.17923 -1.54000
H 	H 	0.53737 0.53493 0.22773 -1.47000
H 	H 	0.47697 0.48563 0.23313 -1.44300
C 	C 	0.60107 0.63913 0.47693 0.09200
H 	H 	0.57257 0.60243 0.46663 -0.35000
H 	H 	0.58337 0.65733 0.49353 -0.07900
C 	C 	0.63907 0.63493 0.51443 0.03100
H 	H 	0.61847 0.61383 0.54473 -0.21600
H 	H 	0.65567 0.61553 0.49813 -0.08400
C 	C 	0.71007 0.71873 0.48553 0.02200
H 	H 	0.72867 0.70133 0.46893 0.02600
H 	H 	0.73787 0.75563 0.49593 -0.01100
C 	C 	0.67187 0.72193 0.44773 0.03000
H 	H 	0.65527 0.74163 0.46353 0.07200
H 	H 	0.69237 0.74253 0.41713 0.01400
C 	C 	0.65697 0.79473 0.25593 -8.50100
H 	H 	0.67467 0.81603 0.22523 1.35500
H 	H 	0.66127 0.76283 0.25693 0.71900
H 	H 	0.67357 0.81683 0.28653 1.98800
C 	C 	0.53757 0.72013 0.36973 -0.74100
H 	H 	0.50597 0.71573 0.38843 0.09000
H 	H 	0.57007 0.74103 0.39053 0.20000
H 	H 	0.53317 0.68453 0.36233 0.02200
O 	O 	0.59277 0.74643 0.30593 1.11100
C 	C 	0.59557 0.77663 0.25463 -0.26200
H 	H 	0.57537 0.75253 0.22573 -0.30500
H 	H 	0.58757 0.80633 0.25843 0.37700
C 	C 	0.54327 0.75043 0.31853 -0.46500
H 	H 	0.51287 0.73033 0.29463 0.12200
H 	H 	0.55087 0.78793 0.32323 -0.17500
C 	C 	0.63467 0.81633 0.29733 2.86800
C 	C 	0.57417 0.77873 0.35233 0.54000
Cs	Cs	0.61154 0.62450 0.31286 0.38300
H 	H 	0.68567 0.82483 0.23653 1.09100
H 	H 	0.62767 0.77133 0.23263 2.56700
H 	H 	0.67157 0.77393 0.27223 1.66400
H 	H 	0.60837 0.82663 0.28463 -1.02600
H 	H 	0.66367 0.84713 0.31773 -1.13900
H 	H 	0.59277 0.80403 0.38133 -0.32800
H 	H 	0.55617 0.79263 0.32993 0.16700
H 	H 	0.50947 0.71803 0.39263 0.08200
H 	H 	0.55917 0.70743 0.38783 0.12900
H 	H 	0.52077 0.69743 0.33953 0.21700
O 	O 	0.60997 0.76153 0.32403 -1.65100
Cs	Cs	0.27843 0.98441 0.64745 0.41400
P 	P 	0.14571 0.86393 0.67087 -0.40700
O 	O 	0.29683 0.00247 0.76562 -0.35800
C 	C 	0.14163 0.80117 0.66627 1.20000
P 	P 	0.07777 0.74133 0.66159 -0.46000
O 	O 	0.34763 0.02117 0.86398 -0.29900
C 	C 	0.07753 0.84567 0.67037 -0.13300
P 	P 	0.02716 0.77547 0.66680 -0.03900
C 	C 	0.19503 0.79547 0.66607 -6.04600
C 	C 	0.21543 0.79187 0.62327 5.47900
H 	H 	0.24643 0.78837 0.62817 -2.17000
C 	C 	0.21743 0.79147 0.71987 13.18400
C 	C 	0.26603 0.78387 0.71847 -13.73200
H 	H 	0.28483 0.79467 0.75157 3.90500
H 	H 	0.29063 0.80637 0.69127 3.99600
H 	H 	0.25433 0.74597 0.71187 3.87800
C 	C 	0.17563 0.74147 0.74597 -16.00300
H 	H 	0.19263 0.72207 0.76047 4.67100
H 	H 	0.14813 0.71847 0.72107 4.73100
H 	H 	0.15883 0.75137 0.77347 4.63800
C 	C 	0.24033 0.84367 0.74597 -16.12800
H 	H 	0.25843 0.84267 0.77747 4.66600
H 	H 	0.21133 0.85117 0.75457 4.64600
H 	H 	0.26643 0.87217 0.72337 4.74900
C 	C 	0.20163 0.79197 0.56547 -5.76400
C 	C 	0.25323 0.81347 0.53537 6.49500
H 	H 	0.26883 0.79027 0.54077 -2.10000
H 	H 	0.27883 0.85027 0.54687 -2.07300
H 	H 	0.24563 0.81407 0.49887 -1.97200
C 	C 	0.15953 0.73617 0.54877 6.62900
H 	H 	0.17373 0.71157 0.55277 -2.24300
H 	H 	0.15023 0.73707 0.51277 -2.05600
H 	H 	0.12713 0.72357 0.57007 -2.09800
C 	C 	0.17853 0.83137 0.54987 5.05300
H 	H 	0.17413 0.83087 0.51257 -1.61100
H 	H 	0.20403 0.86827 0.56107 -1.54100
H 	H 	0.14363 0.81897 0.56647 -1.51400
C 	C 	0.26773 0.97247 0.81027 0.09800
H 	H 	0.23923 0.93577 0.79997 -0.32600
H 	H 	0.25003 0.99067 0.82687 -0.06600
C 	C 	0.30573 0.96827 0.84777 0.00200
H 	H 	0.28513 0.94717 0.87807 -0.16900
H 	H 	0.32233 0.94887 0.83147 -0.08000
C 	C 	0.37673 0.05207 0.81887 -0.00600
H 	H 	0.39533 0.03467 0.80227 0.04100
H 	H 	0.40453 0.08897 0.82927 0.00300
C 	C 	0.33853 0.05527 0.78107 0.05500
H 	H 	0.32193 0.07497 0.79687 0.05000
H 	H 	0.35903 0.07587 0.75047 0.00500
C 	C 	0.32363 0.12807 0.58927 -9.19400
H 	H 	0.34133 0.14937 0.55857 1.47700
H 	H 	0.32793 0.09617 0.59027 0.68800
H 	H 	0.34023 0.15017 0.61987 2.05100
C 	C 	0.20423 0.05347 0.70307 -0.64800
H 	H 	0.17263 0.04907 0.72177 0.07500
H 	H 	0.23673 0.07437 0.72387 0.15800
H 	H 	0.19983 0.01787 0.69567 -0.00500
O 	O 	0.25943 0.07977 0.63927 1.73500
C 	C 	0.26223 0.10997 0.58797 -0.67800
H 	H 	0.24203 0.08587 0.55907 -0.22300
H 	H 	0.25423 0.13967 0.59177 0.57900
C 	C 	0.20993 0.08377 0.65187 -0.73400
H 	H 	0.17953 0.06367 0.62797 0.20400
H 	H 	0.21753 0.12127 0.65657 -0.23800
C 	C 	0.30133 0.14967 0.63067 3.46300
C 	C 	0.24083 0.11207 0.68567 0.73700
Cs	Cs	0.27820 0.95784 0.64620 0.38000
H 	H 	0.35233 0.15817 0.56987 1.19200
H 	H 	0.29433 0.10467 0.56597 2.86000
H 	H 	0.33823 0.10727 0.60557 1.89200
H 	H 	0.27503 0.15997 0.61797 -1.26600
H 	H 	0.33033 0.18047 0.65107 -1.35700
H 	H 	0.25943 0.13737 0.71467 -0.39000
H 	H 	0.22283 0.12597 0.66327 0.24900
H 	H 	0.17613 0.05137 0.72597 0.07200
H 	H 	0.22583 0.04077 0.72117 0.13200
H 	H 	0.18743 0.03077 0.67287 0.21400
O 	O 	0.27663 0.09487 0.65737 -2.31200
Cs	Cs	0.68226 0.62735 0.98078 0.41600
P 	P 	0.80274 0.61512 0.00420 -0.34500
O 	O 	0.66420 0.62770 0.09895 -0.33700
C 	C 	0.86550 0.67380 0.99960 0.90300
P 	P 	0.92534 0.66978 0.99492 -0.36600
O 	O 	0.64550 0.65980 0.19731 -0.32900
C 	C 	0.82100 0.56520 0.00370 -0.15600
P 	P 	0.89120 0.58503 0.00013 -0.04400
C 	C 	0.87120 0.73290 0.99940 -4.68500
C 	C 	0.87480 0.75690 0.95660 4.10400
H 	H 	0.87830 0.79140 0.96150 -1.64400
C 	C 	0.87520 0.75930 0.05320 10.38400
C 	C 	0.88280 0.81550 0.05180 -10.88500
H 	H 	0.87200 0.82350 0.08490 3.09400
H 	H 	0.86030 0.81760 0.02460 3.15600
H 	H 	0.92070 0.84170 0.04520 3.07100
C 	C 	0.92520 0.76750 0.07930 -12.66300
H 	H 	0.94460 0.80390 0.09380 3.68700
H 	H 	0.94820 0.76300 0.05440 3.73800
H 	H 	0.91530 0.74080 0.10680 3.64700
C 	C 	0.82300 0.73000 0.07930 -12.73700
H 	H 	0.82400 0.74910 0.11080 3.66900
H 	H 	0.81550 0.69350 0.08790 3.63800
H 	H 	0.79450 0.72760 0.05670 3.73900
C 	C 	0.87470 0.74300 0.89880 -4.16500
C 	C 	0.85320 0.77310 0.86870 4.61500
H 	H 	0.87640 0.81190 0.87410 -1.52000
H 	H 	0.81640 0.76190 0.88020 -1.49600
H 	H 	0.85260 0.76490 0.83220 -1.40900
C 	C 	0.93050 0.75670 0.88210 4.68400
H 	H 	0.95510 0.79550 0.88610 -1.59500
H 	H 	0.92960 0.74650 0.84610 -1.46500
H 	H 	0.94310 0.73690 0.90340 -1.48400
C 	C 	0.83530 0.68050 0.88320 3.57400
H 	H 	0.83580 0.67660 0.84590 -1.16500
H 	H 	0.79840 0.66910 0.89440 -1.10000
H 	H 	0.84770 0.65800 0.89980 -1.07000
C 	C 	0.69420 0.62860 0.14360 0.07400
H 	H 	0.73090 0.63680 0.13330 -0.31900
H 	H 	0.67600 0.59270 0.16020 -0.07500
C 	C 	0.69840 0.67080 0.18110 0.04400
H 	H 	0.71950 0.67130 0.21140 -0.21600
H 	H 	0.71780 0.70680 0.16480 -0.08500
C 	C 	0.61460 0.65800 0.15220 0.03700
H 	H 	0.63200 0.69400 0.13560 0.01100
H 	H 	0.57770 0.64890 0.16260 -0.01100
C 	C 	0.61140 0.61660 0.11440 0.01400
H 	H 	0.59170 0.58030 0.13020 0.07800
H 	H 	0.59080 0.61650 0.08380 0.01900
C 	C 	0.53860 0.52890 0.92260 -9.25600
H 	H 	0.51730 0.52530 0.89190 1.45600
H 	H 	0.57050 0.56510 0.92360 0.74400
H 	H 	0.51650 0.52340 0.95320 2.10900
C 	C 	0.61320 0.48410 0.03640 -0.63500
H 	H 	0.61760 0.45690 0.05510 0.07400
H 	H 	0.59230 0.49570 0.05720 0.17100
H 	H 	0.64880 0.51530 0.02900 -0.00200
O 	O 	0.58690 0.51300 0.97260 1.47500
C 	C 	0.55670 0.48560 0.92130 -0.48100
H 	H 	0.58080 0.48950 0.89240 -0.27800
H 	H 	0.52700 0.44790 0.92510 0.49700
C 	C 	0.58290 0.45950 0.98520 -0.62400
H 	H 	0.60300 0.44920 0.96130 0.17000
H 	H 	0.54540 0.42960 0.98990 -0.20300
C 	C 	0.51700 0.48500 0.96400 3.31400
C 	C 	0.55460 0.46210 0.01900 0.62800
Cs	Cs	0.70883 0.65370 0.97953 0.38900
H 	H 	0.50850 0.52750 0.90320 1.23000
H 	H 	0.56200 0.52300 0.89930 2.84100
H 	H 	0.55940 0.56430 0.93890 1.85400
H 	H 	0.50670 0.44840 0.95130 -1.19900
H 	H 	0.48620 0.48320 0.98440 -1.30800
H 	H 	0.52930 0.45540 0.04800 -0.36100
H 	H 	0.54070 0.43020 0.99660 0.21500
H 	H 	0.61530 0.45810 0.05930 0.06600
H 	H 	0.62590 0.51840 0.05450 0.12200
H 	H 	0.63590 0.49000 0.00620 0.19900
O 	O 	0.57180 0.51510 0.99070 -2.04300
Cs	Cs	0.34892 0.96068 0.31411 0.42200
P 	P 	0.46941 0.94845 0.33753 -0.36800
O 	O 	0.33087 0.96103 0.43228 -0.34500
C 	C 	0.53217 0.00713 0.33293 1.05000
P 	P 	0.59201 0.00311 0.32825 -0.44000
O 	O 	0.31217 0.99313 0.53064 -0.32600
C 	C 	0.48767 0.89853 0.33703 -0.14100
P 	P 	0.55787 0.91836 0.33346 -0.04000
C 	C 	0.53787 0.06623 0.33273 -5.37400
C 	C 	0.54147 0.09023 0.28993 4.83100
H 	H 	0.54497 0.12473 0.29483 -1.93800
C 	C 	0.54187 0.09263 0.38653 11.70800
C 	C 	0.54947 0.14883 0.38513 -12.21200
H 	H 	0.53867 0.15683 0.41823 3.48100
H 	H 	0.52697 0.15093 0.35793 3.53400
H 	H 	0.58737 0.17503 0.37853 3.43300
C 	C 	0.59187 0.10083 0.41263 -14.23700
H 	H 	0.61127 0.13723 0.42713 4.15900
H 	H 	0.61487 0.09633 0.38773 4.19700
H 	H 	0.58197 0.07413 0.44013 4.11600
C 	C 	0.48967 0.06333 0.41263 -14.33800
H 	H 	0.49067 0.08243 0.44413 4.14300
H 	H 	0.48217 0.02683 0.42123 4.11000
H 	H 	0.46117 0.06093 0.39003 4.21700
C 	C 	0.54137 0.07633 0.23213 -5.08800
C 	C 	0.51987 0.10643 0.20203 5.73700
H 	H 	0.54307 0.14523 0.20743 -1.89200
H 	H 	0.48307 0.09523 0.21353 -1.85300
H 	H 	0.51927 0.09823 0.16553 -1.74400
C 	C 	0.59717 0.09003 0.21543 5.88200
H 	H 	0.62177 0.12883 0.21943 -2.04600
H 	H 	0.59627 0.07983 0.17943 -1.82900
H 	H 	0.60977 0.07023 0.23673 -1.88700
C 	C 	0.50197 0.01383 0.21653 4.35500
H 	H 	0.50247 0.00993 0.17923 -1.36900
H 	H 	0.46507 0.00243 0.22773 -1.33300
H 	H 	0.51437 0.99133 0.23313 -1.29200
C 	C 	0.36087 0.96193 0.47693 0.08300
H 	H 	0.39757 0.97013 0.46663 -0.33000
H 	H 	0.34267 0.92603 0.49353 -0.06700
C 	C 	0.36507 0.00413 0.51443 0.03400
H 	H 	0.38617 0.00463 0.54473 -0.20600
H 	H 	0.38447 0.04013 0.49813 -0.07800
C 	C 	0.28127 0.99133 0.48553 0.02900
H 	H 	0.29867 0.02733 0.46893 0.02400
H 	H 	0.24437 0.98223 0.49593 -0.01200
C 	C 	0.27807 0.94993 0.44773 0.02400
H 	H 	0.25837 0.91363 0.46353 0.07600
H 	H 	0.25747 0.94983 0.41713 0.01700
C 	C 	0.20527 0.86223 0.25593 -8.08100
H 	H 	0.18397 0.85863 0.22523 1.28800
H 	H 	0.23717 0.89843 0.25693 0.71600
H 	H 	0.18317 0.85673 0.28653 1.92800
C 	C 	0.27987 0.81743 0.36973 -0.81600
H 	H 	0.28427 0.79023 0.38843 0.10200
H 	H 	0.25897 0.82903 0.39053 0.22300
H 	H 	0.31547 0.84863 0.36233 0.04200
O 	O 	0.25357 0.84633 0.30593 0.85200
C 	C 	0.22337 0.81893 0.25463 -0.10000
H 	H 	0.24747 0.82283 0.22573 -0.33100
H 	H 	0.19367 0.78123 0.25843 0.29300
C 	C 	0.24957 0.79283 0.31853 -0.34600
H 	H 	0.26967 0.78253 0.29463 0.08500
H 	H 	0.21207 0.76293 0.32323 -0.15200
C 	C 	0.18367 0.81833 0.29733 2.58500
C 	C 	0.22127 0.79543 0.35233 0.46900
Cs	Cs	0.37550 0.98703 0.31286 0.38600
H 	H 	0.17517 0.86083 0.23653 1.02400
H 	H 	0.22867 0.85633 0.23263 2.40800
H 	H 	0.22607 0.89763 0.27223 1.54700
H 	H 	0.17337 0.78173 0.28463 -0.91400
H 	H 	0.15287 0.81653 0.31773 -1.03500
H 	H 	0.19597 0.78873 0.38133 -0.30400
H 	H 	0.20737 0.76353 0.32993 0.13000
H 	H 	0.28197 0.79143 0.39263 0.09300
H 	H 	0.29257 0.85173 0.38783 0.13500
H 	H 	0.30257 0.82333 0.33953 0.22700
O 	O 	0.23847 0.84843 0.32403 -1.37600
Cs	Cs	0.01559 0.29402 0.64745 0.41300
P 	P 	0.13607 0.28179 0.67087 -0.39800
O 	O 	0.99753 0.29437 0.76562 -0.36000
C 	C 	0.19883 0.34047 0.66627 1.15100
P 	P 	0.25867 0.33645 0.66159 -0.45100
O 	O 	0.97883 0.32647 0.86398 -0.30300
C 	C 	0.15433 0.23187 0.67037 -0.14100
P 	P 	0.22453 0.25170 0.66680 -0.04000
C 	C 	0.20453 0.39957 0.66607 -5.81800
C 	C 	0.20813 0.42357 0.62327 5.27600
H 	H 	0.21163 0.45807 0.62817 -2.09400
C 	C 	0.20853 0.42597 0.71987 12.65800
C 	C 	0.21613 0.48217 0.71847 -13.19100
H 	H 	0.20533 0.49017 0.75157 3.75100
H 	H 	0.19363 0.48427 0.69127 3.83400
H 	H 	0.25403 0.50837 0.71187 3.71900
C 	C 	0.25853 0.43417 0.74597 -15.37200
H 	H 	0.27793 0.47057 0.76047 4.48900
H 	H 	0.28153 0.42967 0.72107 4.54100
H 	H 	0.24863 0.40747 0.77347 4.44900
C 	C 	0.15633 0.39667 0.74597 -15.48300
H 	H 	0.15733 0.41577 0.77747 4.47400
H 	H 	0.14883 0.36017 0.75457 4.44900
H 	H 	0.12783 0.39427 0.72337 4.55700
C 	C 	0.20803 0.40967 0.56547 -5.57800
C 	C 	0.18653 0.43977 0.53537 6.28300
H 	H 	0.20973 0.47857 0.54077 -2.03900
H 	H 	0.14973 0.42857 0.54687 -2.00900
H 	H 	0.18593 0.43157 0.49887 -1.91000
C 	C 	0.26383 0.42337 0.54877 6.43400
H 	H 	0.28843 0.46217 0.55277 -2.19600
H 	H 	0.26293 0.41317 0.51277 -2.00200
H 	H 	0.27643 0.40357 0.57007 -2.04500
C 	C 	0.16863 0.34717 0.54987 4.88000
H 	H 	0.16913 0.34327 0.51257 -1.55900
H 	H 	0.13173 0.33577 0.56107 -1.49000
H 	H 	0.18103 0.32467 0.56647 -1.46300
C 	C 	0.02753 0.29527 0.81027 0.11300
H 	H 	0.06423 0.30347 0.79997 -0.34300
H 	H 	0.00933 0.25937 0.82687 -0.09800
C 	C 	0.03173 0.33747 0.84777 -0.00700
H 	H 	0.05283 0.33797 0.87807 -0.18500
H 	H 	0.05113 0.37347 0.83147 -0.07400
C 	C 	0.94793 0.32467 0.81887 -0.01200
H 	H 	0.96533 0.36067 0.80227 0.04300
H 	H 	0.91103 0.31557 0.82927 0.00200
C 	C 	0.94473 0.28327 0.78107 0.06300
H 	H 	0.92503 0.24697 0.79687 0.03800
H 	H 	0.92413 0.28317 0.75047 0.00200
C 	C 	0.87193 0.19557 0.58927 -9.24700
H 	H 	0.85063 0.19197 0.55857 1.49700
H 	H 	0.90383 0.23177 0.59027 0.66200
H 	H 	0.84983 0.19007 0.61987 2.03400
C 	C 	0.94653 0.15077 0.70307 -0.55600
H 	H 	0.95093 0.12357 0.72177 0.05800
H 	H 	0.92563 0.16237 0.72387 0.12800
H 	H 	0.98213 0.18197 0.69567 -0.02500
O 	O 	0.92023 0.17967 0.63927 1.91200
C 	C 	0.89003 0.15227 0.58797 -0.80600
H 	H 	0.91413 0.15617 0.55907 -0.19100
H 	H 	0.86033 0.11457 0.59177 0.63600
C 	C 	0.91623 0.12617 0.65187 -0.82100
H 	H 	0.93633 0.11587 0.62797 0.23200
H 	H 	0.87873 0.09627 0.65657 -0.25200
C 	C 	0.85033 0.15167 0.63067 3.59300
C 	C 	0.88793 0.12877 0.68567 0.77800
Cs	Cs	0.04216 0.32037 0.64620 0.38200
H 	H 	0.84183 0.19417 0.56987 1.19000
H 	H 	0.89533 0.18967 0.56597 2.90100
H 	H 	0.89273 0.23097 0.60557 1.93300
H 	H 	0.84003 0.11507 0.61797 -1.32100
H 	H 	0.81953 0.14987 0.65107 -1.40300
H 	H 	0.86263 0.12207 0.71467 -0.40000
H 	H 	0.87403 0.09687 0.66327 0.27500
H 	H 	0.94863 0.12477 0.72597 0.05800
H 	H 	0.95923 0.18507 0.72117 0.12000
H 	H 	0.96923 0.15667 0.67287 0.19800
O 	O 	0.90513 0.18177 0.65737 -2.49200
Cs	Cs	0.62735 0.94509 0.01922 0.42600
P 	P 	0.61512 0.81238 0.99580 -0.34000
O 	O 	0.62770 0.96350 0.90105 -0.36200
C 	C 	0.67380 0.80830 0.00040 0.89800
P 	P 	0.66978 0.74444 0.00508 -0.38600
O 	O 	0.65980 0.01430 0.80269 -0.31500
C 	C 	0.56520 0.74420 0.99630 -0.15300
P 	P 	0.58503 0.69383 0.99987 -0.04900
C 	C 	0.73290 0.86170 0.00060 -4.65300
C 	C 	0.75690 0.88210 0.04340 4.07900
H 	H 	0.79140 0.91310 0.03850 -1.62700
C 	C 	0.75930 0.88410 0.94680 10.29300
C 	C 	0.81550 0.93270 0.94820 -10.79400
H 	H 	0.82350 0.95150 0.91510 3.05900
H 	H 	0.81760 0.95730 0.97540 3.13700
H 	H 	0.84170 0.92100 0.95480 3.04200
C 	C 	0.76750 0.84230 0.92070 -12.55400
H 	H 	0.80390 0.85930 0.90620 3.66000
H 	H 	0.76300 0.81480 0.94560 3.70000
H 	H 	0.74080 0.82550 0.89320 3.61700
C 	C 	0.73000 0.90700 0.92070 -12.62000
H 	H 	0.74910 0.92510 0.88920 3.63000
H 	H 	0.69350 0.87800 0.91210 3.60400
H 	H 	0.72760 0.93310 0.94330 3.70300
C 	C 	0.74300 0.86830 0.10120 -4.16500
C 	C 	0.77310 0.91990 0.13130 4.58600
H 	H 	0.81190 0.93550 0.12590 -1.49600
H 	H 	0.76190 0.94550 0.11980 -1.46800
H 	H 	0.76490 0.91230 0.16780 -1.39800
C 	C 	0.75670 0.82620 0.11790 4.74200
H 	H 	0.79550 0.84040 0.11390 -1.64800
H 	H 	0.74650 0.81690 0.15390 -1.49200
H 	H 	0.73690 0.79380 0.09660 -1.52000
C 	C 	0.68050 0.84520 0.11680 3.57000
H 	H 	0.67660 0.84080 0.15410 -1.16300
H 	H 	0.66910 0.87070 0.10560 -1.09500
H 	H 	0.65800 0.81030 0.10020 -1.06900
C 	C 	0.62860 0.93440 0.85640 0.09400
H 	H 	0.63680 0.90590 0.86670 -0.32600
H 	H 	0.59270 0.91670 0.83980 -0.08800
C 	C 	0.67080 0.97240 0.81890 0.02100
H 	H 	0.67130 0.95180 0.78860 -0.21200
H 	H 	0.70680 0.98900 0.83520 -0.08800
C 	C 	0.65800 0.04340 0.84780 0.00600
H 	H 	0.69400 0.06200 0.86440 0.01600
H 	H 	0.64890 0.07120 0.83740 -0.00000
C 	C 	0.61660 0.00520 0.88560 0.07300
H 	H 	0.58030 0.98860 0.86980 0.04900
H 	H 	0.61650 0.02570 0.91620 -0.00000
C 	C 	0.52890 0.99030 0.07740 -7.11500
H 	H 	0.52530 0.00800 0.10810 1.06900
H 	H 	0.56510 0.99460 0.07640 0.69300
H 	H 	0.52340 0.00690 0.04680 1.64600
C 	C 	0.48410 0.87090 0.96360 -0.74800
H 	H 	0.45690 0.83930 0.94490 0.08800
H 	H 	0.49570 0.90340 0.94280 0.20700
H 	H 	0.51530 0.86650 0.97100 0.03200
O 	O 	0.51300 0.92610 0.02740 0.91700
C 	C 	0.48560 0.92890 0.07870 -0.26500
H 	H 	0.48950 0.90870 0.10760 -0.23600
H 	H 	0.44790 0.92090 0.07490 0.33800
C 	C 	0.45950 0.87660 0.01480 -0.33200
H 	H 	0.44920 0.84620 0.03870 0.08100
H 	H 	0.42960 0.88420 0.01010 -0.12900
C 	C 	0.48500 0.96800 0.03600 2.42300
C 	C 	0.46210 0.90750 0.98100 0.42000
Cs	Cs	0.65370 0.94487 0.02047 0.39500
H 	H 	0.52750 0.01900 0.09680 1.00800
H 	H 	0.52300 0.96100 0.10070 2.16900
H 	H 	0.56430 0.00490 0.06110 1.30000
H 	H 	0.44840 0.94170 0.04870 -0.86400
H 	H 	0.48320 0.99700 0.01560 -0.96800
H 	H 	0.45540 0.92610 0.95200 -0.26100
H 	H 	0.43020 0.88950 0.00340 0.12300
H 	H 	0.45810 0.84280 0.94070 0.07900
H 	H 	0.51840 0.89250 0.94550 0.11900
H 	H 	0.49000 0.85410 0.99380 0.20000
O 	O 	0.51510 0.94330 0.00930 -1.41600
Cs	Cs	0.29402 0.27843 0.35255 0.41500
P 	P 	0.28179 0.14571 0.32913 -0.39800
O 	O 	0.29437 0.29683 0.23438 -0.35900
C 	C 	0.34047 0.14163 0.33373 1.15300
P 	P 	0.33645 0.07777 0.33841 -0.44900
O 	O 	0.32647 0.34763 0.13602 -0.32900
C 	C 	0.23187 0.07753 0.32963 -0.14200
P 	P 	0.25170 0.02716 0.33320 -0.04200
C 	C 	0.39957 0.19503 0.33393 -5.83100
C 	C 	0.42357 0.21543 0.37673 5.28400
H 	H 	0.45807 0.24643 0.37183 -2.10000
C 	C 	0.42597 0.21743 0.28013 12.69300
C 	C 	0.48217 0.26603 0.28153 -13.22800
H 	H 	0.49017 0.28483 0.24843 3.76700
H 	H 	0.48427 0.29063 0.30873 3.84200
H 	H 	0.50837 0.25433 0.28813 3.73100
C 	C 	0.43417 0.17563 0.25403 -15.41200
H 	H 	0.47057 0.19263 0.23953 4.49800
H 	H 	0.42967 0.14813 0.27893 4.55400
H 	H 	0.40747 0.15883 0.22653 4.46000
C 	C 	0.39667 0.24033 0.25403 -15.52900
H 	H 	0.41577 0.25843 0.22253 4.49000
H 	H 	0.36017 0.21133 0.24543 4.46300
H 	H 	0.39427 0.26643 0.27663 4.57200
C 	C 	0.40967 0.20163 0.43453 -5.57700
C 	C 	0.43977 0.25323 0.46463 6.29100
H 	H 	0.47857 0.26883 0.45923 -2.04600
H 	H 	0.42857 0.27883 0.45313 -2.01700
H 	H 	0.43157 0.24563 0.50113 -1.91300
C 	C 	0.42337 0.15953 0.45123 6.41400
H 	H 	0.46217 0.17373 0.44723 -2.17800
H 	H 	0.41317 0.15023 0.48723 -1.99200
H 	H 	0.40357 0.12713 0.42993 -2.03300
C 	C 	0.34717 0.17853 0.45013 4.87900
H 	H 	0.34327 0.17413 0.48743 -1.55900
H 	H 	0.33577 0.20403 0.43893 -1.48900
H 	H 	0.32467 0.14363 0.43353 -1.46200
C 	C 	0.29527 0.26773 0.18973 0.10200
H 	H 	0.30347 0.23923 0.20003 -0.33800
H 	H 	0.25937 0.25003 0.17313 -0.08100
C 	C 	0.33747 0.30573 0.15223 0.02000
H 	H 	0.33797 0.28513 0.12193 -0.19300
H 	H 	0.37347 0.32233 0.16853 -0.08100
C 	C 	0.32467 0.37673 0.18113 0.00700
H 	H 	0.36067 0.39533 0.19773 0.03100
H 	H 	0.31557 0.40453 0.17073 -0.01000
C 	C 	0.28327 0.33853 0.21893 0.04800
H 	H 	0.24697 0.32193 0.20313 0.05100
H 	H 	0.28317 0.35903 0.24953 0.00700
C 	C 	0.19557 0.32363 0.41073 -9.18600
H 	H 	0.19197 0.34133 0.44143 1.47500
H 	H 	0.23177 0.32793 0.40973 0.68700
H 	H 	0.19007 0.34023 0.38013 2.05000
C 	C 	0.15077 0.20423 0.29693 -0.60700
H 	H 	0.12357 0.17263 0.27823 0.06900
H 	H 	0.16237 0.23673 0.27613 0.14900
H 	H 	0.18197 0.19983 0.30433 -0.01300
O 	O 	0.17967 0.25943 0.36073 1.73100
C 	C 	0.15227 0.26223 0.41203 -0.67600
H 	H 	0.15617 0.24203 0.44093 -0.22400
H 	H 	0.11457 0.25423 0.40823 0.57800
C 	C 	0.12617 0.20993 0.34813 -0.74000
H 	H 	0.11587 0.17953 0.37203 0.20600
H 	H 	0.09627 0.21753 0.34343 -0.23400
C 	C 	0.15167 0.30133 0.36933 3.45900
C 	C 	0.12877 0.24083 0.31433 0.72600
Cs	Cs	0.32037 0.27820 0.35380 0.38100
H 	H 	0.19417 0.35233 0.43013 1.19200
H 	H 	0.18967 0.29433 0.43403 2.85700
H 	H 	0.23097 0.33823 0.39443 1.89000
H 	H 	0.11507 0.27503 0.38203 -1.26400
H 	H 	0.14987 0.33033 0.34893 -1.35600
H 	H 	0.12207 0.25943 0.28533 -0.38500
H 	H 	0.09687 0.22283 0.33673 0.25100
H 	H 	0.12477 0.17613 0.27403 0.06500
H 	H 	0.18507 0.22583 0.27883 0.12300
H 	H 	0.15667 0.18743 0.32713 0.20400
O 	O 	0.18177 0.27663 0.34263 -2.30600
Cs	Cs	0.96068 0.61176 0.68589 0.42000
P 	P 	0.94845 0.47905 0.66247 -0.36900
O 	O 	0.96103 0.63017 0.56772 -0.34500
C 	C 	0.00713 0.47497 0.66707 1.05000
P 	P 	0.00311 0.41111 0.67175 -0.43600
O 	O 	0.99313 0.68097 0.46936 -0.32700
C 	C 	0.89853 0.41087 0.66297 -0.14100
P 	P 	0.91836 0.36050 0.66654 -0.04000
C 	C 	0.06623 0.52837 0.66727 -5.37500
C 	C 	0.09023 0.54877 0.71007 4.83100
H 	H 	0.12473 0.57977 0.70517 -1.94000
C 	C 	0.09263 0.55077 0.61347 11.71600
C 	C 	0.14883 0.59937 0.61487 -12.21900
H 	H 	0.15683 0.61817 0.58177 3.48500
H 	H 	0.15093 0.62397 0.64207 3.53300
H 	H 	0.17503 0.58767 0.62147 3.43500
C 	C 	0.10083 0.50897 0.58737 -14.24800
H 	H 	0.13723 0.52597 0.57287 4.16100
H 	H 	0.09633 0.48147 0.61227 4.20200
H 	H 	0.07413 0.49217 0.55987 4.11900
C 	C 	0.06333 0.57367 0.58737 -14.34900
H 	H 	0.08243 0.59177 0.55587 4.14700
H 	H 	0.02683 0.54467 0.57877 4.11300
H 	H 	0.06093 0.59977 0.60997 4.22000
C 	C 	0.07633 0.53497 0.76787 -5.08000
C 	C 	0.10643 0.58657 0.79797 5.73500
H 	H 	0.14523 0.60217 0.79257 -1.89500
H 	H 	0.09523 0.61217 0.78647 -1.85700
H 	H 	0.09823 0.57897 0.83447 -1.74400
C 	C 	0.09003 0.49287 0.78457 5.85900
H 	H 	0.12883 0.50707 0.78057 -2.03000
H 	H 	0.07983 0.48357 0.82057 -1.82100
H 	H 	0.07023 0.46047 0.76327 -1.87500
C 	C 	0.01383 0.51187 0.78347 4.34800
H 	H 	0.00993 0.50747 0.82077 -1.36700
H 	H 	0.00243 0.53737 0.77227 -1.33200
H 	H 	0.99133 0.47697 0.76687 -1.29000
C 	C 	0.96193 0.60107 0.52307 0.08500
H 	H 	0.97013 0.57257 0.53337 -0.33100
H 	H 	0.92603 0.58337 0.50647 -0.07000
C 	C 	0.00413 0.63907 0.48557 0.03300
H 	H 	0.00463 0.61847 0.45527 -0.20500
H 	H 	0.04013 0.65567 0.50187 -0.07500
C 	C 	0.99133 0.71007 0.51447 0.02500
H 	H 	0.02733 0.72867 0.53107 0.02700
H 	H 	0.98223 0.73787 0.50407 -0.01300
C 	C 	0.94993 0.67187 0.55227 0.02700
H 	H 	0.91363 0.65527 0.53647 0.07300
H 	H 	0.94983 0.69237 0.58287 0.01600
C 	C 	0.86223 0.65697 0.74407 -8.52100
H 	H 	0.85863 0.67467 0.77477 1.35900
H 	H 	0.89843 0.66127 0.74307 0.72300
H 	H 	0.85673 0.67357 0.71347 1.99400
C 	C 	0.81743 0.53757 0.63027 -0.75500
H 	H 	0.79023 0.50597 0.61157 0.09200
H 	H 	0.82903 0.57007 0.60947 0.20300
H 	H 	0.84863 0.53317 0.63767 0.02600
O 	O 	0.84633 0.59277 0.69407 1.10500
C 	C 	0.81893 0.59557 0.74537 -0.25500
H 	H 	0.82283 0.57537 0.77427 -0.30900
H 	H 	0.78123 0.58757 0.74157 0.37400
C 	C 	0.79283 0.54327 0.68147 -0.46100
H 	H 	0.78253 0.51287 0.70537 0.12000
H 	H 	0.76293 0.55087 0.67677 -0.17600
C 	C 	0.81833 0.63467 0.70267 2.86800
C 	C 	0.79543 0.57417 0.64767 0.54200
Cs	Cs	0.98703 0.61154 0.68714 0.38400
H 	H 	0.86083 0.68567 0.76347 1.09300
H 	H 	0.85633 0.62767 0.76737 2.57100
H 	H 	0.89763 0.67157 0.72777 1.66700
H 	H 	0.78173 0.60837 0.71537 -1.02500
H 	H 	0.81653 0.66367 0.68227 -1.14000
H 	H 	0.78873 0.59277 0.61867 -0.32900
H 	H 	0.76353 0.55617 0.67007 0.16500
H 	H 	0.79143 0.50947 0.60737 0.08400
H 	H 	0.85173 0.55917 0.61217 0.13200
H 	H 	0.82333 0.52077 0.66047 0.22000
O 	O 	0.84843 0.60997 0.67597 -1.64700
Cs	Cs	0.05491 0.68226 0.01922 0.42800
P 	P 	0.18762 0.80274 0.99580 -0.30700
O 	O 	0.03650 0.66420 0.90105 -0.35000
C 	C 	0.19170 0.86550 0.00040 0.73900
P 	P 	0.25556 0.92534 0.00508 -0.32600
O 	O 	0.98570 0.64550 0.80269 -0.31600
C 	C 	0.25580 0.82100 0.99630 -0.16100
P 	P 	0.30617 0.89120 0.99987 -0.05200
C 	C 	0.13830 0.87120 0.00060 -3.85700
C 	C 	0.11790 0.87480 0.04340 3.34800
H 	H 	0.08690 0.87830 0.03850 -1.35800
C 	C 	0.11590 0.87520 0.94680 8.55700
C 	C 	0.06730 0.88280 0.94820 -8.99000
H 	H 	0.04850 0.87200 0.91510 2.55400
H 	H 	0.04270 0.86030 0.97540 2.57900
H 	H 	0.07900 0.92070 0.95480 2.51000
C 	C 	0.15770 0.92520 0.92070 -10.48600
H 	H 	0.14070 0.94460 0.90620 3.05300
H 	H 	0.18520 0.94820 0.94560 3.07500
H 	H 	0.17450 0.91530 0.89320 3.01400
C 	C 	0.09300 0.82300 0.92070 -10.54300
H 	H 	0.07490 0.82400 0.88920 3.03300
H 	H 	0.12200 0.81550 0.91210 2.99700
H 	H 	0.06690 0.79450 0.94330 3.08400
C 	C 	0.13170 0.87470 0.10120 -3.42900
C 	C 	0.08010 0.85320 0.13130 3.76900
H 	H 	0.06450 0.87640 0.12590 -1.27100
H 	H 	0.05450 0.81640 0.11980 -1.23700
H 	H 	0.08770 0.85260 0.16780 -1.15900
C 	C 	0.17380 0.93050 0.11790 3.88600
H 	H 	0.15960 0.95510 0.11390 -1.38500
H 	H 	0.18310 0.92960 0.15390 -1.23700
H 	H 	0.20620 0.94310 0.09660 -1.26000
C 	C 	0.15480 0.83530 0.11680 2.88900
H 	H 	0.15920 0.83580 0.15410 -0.95700
H 	H 	0.12930 0.79840 0.10560 -0.89300
H 	H 	0.18970 0.84770 0.10020 -0.86400
C 	C 	0.06560 0.69420 0.85640 0.09200
H 	H 	0.09410 0.73090 0.86670 -0.30300
H 	H 	0.08330 0.67600 0.83980 -0.09100
C 	C 	0.02760 0.69840 0.81890 0.01600
H 	H 	0.04820 0.71950 0.78860 -0.20800
H 	H 	0.01100 0.71780 0.83520 -0.06400
C 	C 	0.95660 0.61460 0.84780 0.00400
H 	H 	0.93800 0.63200 0.86440 0.02400
H 	H 	0.92880 0.57770 0.83740 -0.00200
C 	C 	0.99480 0.61140 0.88560 0.07100
H 	H 	0.01140 0.59170 0.86980 0.04900
H 	H 	0.97430 0.59080 0.91620 0.00100
C 	C 	0.00970 0.53860 0.07740 -7.09800
H 	H 	0.99200 0.51730 0.10810 1.06200
H 	H 	0.00540 0.57050 0.07640 0.69600
H 	H 	0.99310 0.51650 0.04680 1.64400
C 	C 	0.12910 0.61320 0.96360 -0.74500
H 	H 	0.16070 0.61760 0.94490 0.08700
H 	H 	0.09660 0.59230 0.94280 0.20700
H 	H 	0.13350 0.64880 0.97100 0.03300
O 	O 	0.07390 0.58690 0.02740 0.89300
C 	C 	0.07110 0.55670 0.07870 -0.24900
H 	H 	0.09130 0.58080 0.10760 -0.24000
H 	H 	0.07910 0.52700 0.07490 0.33100
C 	C 	0.12340 0.58290 0.01480 -0.31900
H 	H 	0.15380 0.60300 0.03870 0.07700
H 	H 	0.11580 0.54540 0.01010 -0.12500
C 	C 	0.03200 0.51700 0.03600 2.40300
C 	C 	0.09250 0.55460 0.98100 0.40800
Cs	Cs	0.05513 0.70883 0.02047 0.40000
H 	H 	0.98100 0.50850 0.09680 1.01000
H 	H 	0.03900 0.56200 0.10070 2.16100
H 	H 	0.99510 0.55940 0.06110 1.29300
H 	H 	0.05830 0.50670 0.04870 -0.85600
H 	H 	0.00300 0.48620 0.01560 -0.96300
H 	H 	0.07390 0.52930 0.95200 -0.25700
H 	H 	0.11050 0.54070 0.00340 0.11800
H 	H 	0.15720 0.61530 0.94070 0.07900
H 	H 	0.10750 0.62590 0.94550 0.11800
H 	H 	0.14590 0.63590 0.99380 0.19600
O 	O 	0.05670 0.57180 0.00930 -1.39000
Cs	Cs	0.72157 0.01559 0.35255 0.41400
P 	P 	0.85429 0.13607 0.32913 -0.40700
O 	O 	0.70317 0.99753 0.23438 -0.35800
C 	C 	0.85837 0.19883 0.33373 1.20000
P 	P 	0.92223 0.25867 0.33841 -0.46000
O 	O 	0.65237 0.97883 0.13602 -0.29900
C 	C 	0.92247 0.15433 0.32963 -0.13300
P 	P 	0.97284 0.22453 0.33320 -0.03900
C 	C 	0.80497 0.20453 0.33393 -6.04600
C 	C 	0.78457 0.20813 0.37673 5.47900
H 	H 	0.75357 0.21163 0.37183 -2.17000
C 	C 	0.78257 0.20853 0.28013 13.18400
C 	C 	0.73397 0.21613 0.28153 -13.73200
H 	H 	0.71517 0.20533 0.24843 3.90500
H 	H 	0.70937 0.19363 0.30873 3.99600
H 	H 	0.74567 0.25403 0.28813 3.87800
C 	C 	0.82437 0.25853 0.25403 -16.00300
H 	H 	0.80737 0.27793 0.23953 4.67100
H 	H 	0.85187 0.28153 0.27893 4.73100
H 	H 	0.84117 0.24863 0.22653 4.63800
C 	C 	0.75967 0.15633 0.25403 -16.12800
H 	H 	0.74157 0.15733 0.22253 4.66600
H 	H 	0.78867 0.14883 0.24543 4.64600
H 	H 	0.73357 0.12783 0.27663 4.74900
C 	C 	0.79837 0.20803 0.43453 -5.76400
C 	C 	0.74677 0.18653 0.46463 6.49500
H 	H 	0.73117 0.20973 0.45923 -2.10000
H 	H 	0.72117 0.14973 0.45313 -2.07300
H 	H 	0.75437 0.18593 0.50113 -1.97200
C 	C 	0.84047 0.26383 0.45123 6.62900
H 	H 	0.82627 0.28843 0.44723 -2.24300
H 	H 	0.84977 0.26293 0.48723 -2.05600
H 	H 	0.87287 0.27643 0.42993 -2.09800
C 	C 	0.82147 0.16863 0.45013 5.05300
H 	H 	0.82587 0.16913 0.48743 -1.61100
H 	H 	0.79597 0.13173 0.43893 -1.54100
H 	H 	0.85637 0.18103 0.43353 -1.51400
C 	C 	0.73227 0.02753 0.18973 0.09800
H 	H 	0.76077 0.06423 0.20003 -0.32600
H 	H 	0.74997 0.00933 0.17313 -0.06600
C 	C 	0.69427 0.03173 0.15223 0.00200
H 	H 	0.71487 0.05283 0.12193 -0.16900
H 	H 	0.67767 0.05113 0.16853 -0.08000
C 	C 	0.62327 0.94793 0.18113 -0.00600
H 	H 	0.60467 0.96533 0.19773 0.04100
H 	H 	0.59547 0.91103 0.17073 0.00300
C 	C 	0.66147 0.94473 0.21893 0.05500
H 	H 	0.67807 0.92503 0.20313 0.05000
H 	H 	0.64097 0.92413 0.24953 0.00500
C 	C 	0.67637 0.87193 0.41073 -9.19400
H 	H 	0.65867 0.85063 0.44143 1.47700
H 	H 	0.67207 0.90383 0.40973 0.68800
H 	H 	0.65977 0.84983 0.38013 2.05100
C 	C 	0.79577 0.94653 0.29693 -0.64800
H 	H 	0.82737 0.95093 0.27823 0.07500
H 	H 	0.76327 0.92563 0.27613 0.15800
H 	H 	0.80017 0.98213 0.30433 -0.00500
O 	O 	0.74057 0.92023 0.36073 1.73500
C 	C 	0.73777 0.89003 0.41203 -0.67800
H 	H 	0.75797 0.91413 0.44093 -0.22300
H 	H 	0.74577 0.86033 0.40823 0.57900
C 	C 	0.79007 0.91623 0.34813 -0.73400
H 	H 	0.82047 0.93633 0.37203 0.20400
H 	H 	0.78247 0.87873 0.34343 -0.23800
C 	C 	0.69867 0.85033 0.36933 3.46300
C 	C 	0.75917 0.88793 0.31433 0.73700
Cs	Cs	0.72180 0.04216 0.35380 0.38000
H 	H 	0.64767 0.84183 0.43013 1.19200
H 	H 	0.70567 0.89533 0.43403 2.86000
H 	H 	0.66177 0.89273 0.39443 1.89200
H 	H 	0.72497 0.84003 0.38203 -1.26600
H 	H 	0.66967 0.81953 0.34893 -1.35700
H 	H 	0.74057 0.86263 0.28533 -0.39000
H 	H 	0.77717 0.87403 0.33673 0.24900
H 	H 	0.82387 0.94863 0.27403 0.07200
H 	H 	0.77417 0.95923 0.27883 0.13200
H 	H 	0.81257 0.96923 0.32713 0.21400
O 	O 	0.72337 0.90513 0.34263 -2.31200
Cs	Cs	0.38824 0.34892 0.68589 0.41900
P 	P 	0.52095 0.46941 0.66247 -0.39200
O 	O 	0.36983 0.33087 0.56772 -0.35200
C 	C 	0.52503 0.53217 0.66707 1.12500
P 	P 	0.58889 0.59201 0.67175 -0.44800
O 	O 	0.31903 0.31217 0.46936 -0.32700
C 	C 	0.58913 0.48767 0.66297 -0.14400
P 	P 	0.63950 0.55787 0.66654 -0.04500
C 	C 	0.47163 0.53787 0.66727 -5.69700
C 	C 	0.45123 0.54147 0.71007 5.18200
H 	H 	0.42023 0.54497 0.70517 -2.06400
C 	C 	0.44923 0.54187 0.61347 12.35300
C 	C 	0.40063 0.54947 0.61487 -12.87900
H 	H 	0.38183 0.53867 0.58177 3.67000
H 	H 	0.37603 0.52697 0.64207 3.73600
H 	H 	0.41233 0.58737 0.62147 3.62900
C 	C 	0.49103 0.59187 0.58737 -15.00000
H 	H 	0.47403 0.61127 0.57287 4.38000
H 	H 	0.51853 0.61487 0.61227 4.42700
H 	H 	0.50783 0.58197 0.55987 4.33400
C 	C 	0.42633 0.48967 0.58737 -15.10500
H 	H 	0.40823 0.49067 0.55587 4.36200
H 	H 	0.45533 0.48217 0.57877 4.33000
H 	H 	0.40023 0.46117 0.60997 4.44600
C 	C 	0.46503 0.54137 0.76787 -5.51600
C 	C 	0.41343 0.51987 0.79797 6.23100
H 	H 	0.39783 0.54307 0.79257 -2.03500
H 	H 	0.38783 0.48307 0.78647 -2.00100
H 	H 	0.42103 0.51927 0.83447 -1.89600
C 	C 	0.50713 0.59717 0.78457 6.37500
H 	H 	0.49293 0.62177 0.78057 -2.18500
H 	H 	0.51643 0.59627 0.82057 -1.98600
H 	H 	0.53953 0.60977 0.76327 -2.03000
C 	C 	0.48813 0.50197 0.78347 4.81900
H 	H 	0.49253 0.50247 0.82077 -1.54000
H 	H 	0.46263 0.46507 0.77227 -1.47000
H 	H 	0.52303 0.51437 0.76687 -1.44300
C 	C 	0.39893 0.36087 0.52307 0.09200
H 	H 	0.42743 0.39757 0.53337 -0.35000
H 	H 	0.41663 0.34267 0.50647 -0.07900
C 	C 	0.36093 0.36507 0.48557 0.03100
H 	H 	0.38153 0.38617 0.45527 -0.21600
H 	H 	0.34433 0.38447 0.50187 -0.08400
C 	C 	0.28993 0.28127 0.51447 0.02200
H 	H 	0.27133 0.29867 0.53107 0.02600
H 	H 	0.26213 0.24437 0.50407 -0.01100
C 	C 	0.32813 0.27807 0.55227 0.03000
H 	H 	0.34473 0.25837 0.53647 0.07200
H 	H 	0.30763 0.25747 0.58287 0.01400
C 	C 	0.34303 0.20527 0.74407 -8.50100
H 	H 	0.32533 0.18397 0.77477 1.35500
H 	H 	0.33873 0.23717 0.74307 0.71900
H 	H 	0.32643 0.18317 0.71347 1.98800
C 	C 	0.46243 0.27987 0.63027 -0.74100
H 	H 	0.49403 0.28427 0.61157 0.09000
H 	H 	0.42993 0.25897 0.60947 0.20000
H 	H 	0.46683 0.31547 0.63767 0.02200
O 	O 	0.40723 0.25357 0.69407 1.11100
C 	C 	0.40443 0.22337 0.74537 -0.26200
H 	H 	0.42463 0.24747 0.77427 -0.30500
H 	H 	0.41243 0.19367 0.74157 0.37700
C 	C 	0.45673 0.24957 0.68147 -0.46500
H 	H 	0.48713 0.26967 0.70537 0.12200
H 	H 	0.44913 0.21207 0.67677 -0.17500
C 	C 	0.36533 0.18367 0.70267 2.86800
C 	C 	0.42583 0.22127 0.64767 0.54000
Cs	Cs	0.38846 0.37550 0.68714 0.38300
H 	H 	0.31433 0.17517 0.76347 1.09100
H 	H 	0.37233 0.22867 0.76737 2.56700
H 	H 	0.32843 0.22607 0.72777 1.66400
H 	H 	0.39163 0.17337 0.71537 -1.02600
H 	H 	0.33633 0.15287 0.68227 -1.13900
H 	H 	0.40723 0.19597 0.61867 -0.32800
H 	H 	0.44383 0.20737 0.67007 0.16700
H 	H 	0.49053 0.28197 0.60737 0.08200
H 	H 	0.44083 0.29257 0.61217 0.12900
H 	H 	0.47923 0.30257 0.66047 0.21700
O 	O 	0.39003 0.23847 0.67597 -1.65100
Cs	Cs	0.31774 0.37265 0.01922 0.41600
P 	P 	0.19726 0.38488 0.99580 -0.34500
O 	O 	0.33580 0.37230 0.90105 -0.33700
C 	C 	0.13450 0.32620 0.00040 0.90300
P 	P 	0.07466 0.33022 0.00508 -0.36600
O 	O 	0.35450 0.34020 0.80269 -0.32900
C 	C 	0.17900 0.43480 0.99630 -0.15600
P 	P 	0.10880 0.41497 0.99987 -0.04400
C 	C 	0.12880 0.26710 0.00060 -4.68500
C 	C 	0.12520 0.24310 0.04340 4.10400
H 	H 	0.12170 0.20860 0.03850 -1.64400
C 	C 	0.12480 0.24070 0.94680 10.38400
C 	C 	0.11720 0.18450 0.94820 -10.88500
H 	H 	0.12800 0.17650 0.91510 3.09400
H 	H 	0.13970 0.18240 0.97540 3.15600
H 	H 	0.07930 0.15830 0.95480 3.07100
C 	C 	0.07480 0.23250 0.92070 -12.66300
H 	H 	0.05540 0.19610 0.90620 3.68700
H 	H 	0.05180 0.23700 0.94560 3.73800
H 	H 	0.08470 0.25920 0.89320 3.64700
C 	C 	0.17700 0.27000 0.92070 -12.73700
H 	H 	0.17600 0.25090 0.88920 3.66900
H 	H 	0.18450 0.30650 0.91210 3.63800
H 	H 	0.20550 0.27240 0.94330 3.73900
C 	C 	0.12530 0.25700 0.10120 -4.16500
C 	C 	0.14680 0.22690 0.13130 4.61500
H 	H 	0.12360 0.18810 0.12590 -1.52000
H 	H 	0.18360 0.23810 0.11980 -1.49600
H 	H 	0.14740 0.23510 0.16780 -1.40900
C 	C 	0.06950 0.24330 0.11790 4.68400
H 	H 	0.04490 0.20450 0.11390 -1.59500
H 	H 	0.07040 0.25350 0.15390 -1.46500
H 	H 	0.05690 0.26310 0.09660 -1.48400
C 	C 	0.16470 0.31950 0.11680 3.57400
H 	H 	0.16420 0.32340 0.15410 -1.16500
H 	H 	0.20160 0.33090 0.10560 -1.10000
H 	H 	0.15230 0.34200 0.10020 -1.07000
C 	C 	0.30580 0.37140 0.85640 0.07400
H 	H 	0.26910 0.36320 0.86670 -0.31900
H 	H 	0.32400 0.40730 0.83980 -0.07500
C 	C 	0.30160 0.32920 0.81890 0.04400
H 	H 	0.28050 0.32870 0.78860 -0.21600
H 	H 	0.28220 0.29320 0.83520 -0.08500
C 	C 	0.38540 0.34200 0.84780 0.03700
H 	H 	0.36800 0.30600 0.86440 0.01100
H 	H 	0.42230 0.35110 0.83740 -0.01100
C 	C 	0.38860 0.38340 0.88560 0.01400
H 	H 	0.40830 0.41970 0.86980 0.07800
H 	H 	0.40920 0.38350 0.91620 0.01900
C 	C 	0.46140 0.47110 0.07740 -9.25600
H 	H 	0.48270 0.47470 0.10810 1.45600
H 	H 	0.42950 0.43490 0.07640 0.74400
H 	H 	0.48350 0.47660 0.04680 2.10900
C 	C 	0.38680 0.51590 0.96360 -0.63500
H 	H 	0.38240 0.54310 0.94490 0.07400
H 	H 	0.40770 0.50430 0.94280 0.17100
H 	H 	0.35120 0.48470 0.97100 -0.00200
O 	O 	0.41310 0.48700 0.02740 1.47500
C 	C 	0.44330 0.51440 0.07870 -0.48100
H 	H 	0.41920 0.51050 0.10760 -0.27800
H 	H 	0.47300 0.55210 0.07490 0.49700
C 	C 	0.41710 0.54050 0.01480 -0.62400
H 	H 	0.39700 0.55080 0.03870 0.17000
H 	H 	0.45460 0.57040 0.01010 -0.20300
C 	C 	0.48300 0.51500 0.03600 3.31400
C 	C 	0.44540 0.53790 0.98100 0.62800
Cs	Cs	0.29117 0.34630 0.02047 0.38900
H 	H 	0.49150 0.47250 0.09680 1.23000
H 	H 	0.43800 0.47700 0.10070 2.84100
H 	H 	0.44060 0.43570 0.06110 1.85400
H 	H 	0.49330 0.55160 0.04870 -1.19900
H 	H 	0.51380 0.51680 0.01560 -1.30800
H 	H 	0.47070 0.54460 0.95200 -0.36100
H 	H 	0.45930 0.56980 0.00340 0.21500
H 	H 	0.38470 0.54190 0.94070 0.06600
H 	H 	0.37410 0.48160 0.94550 0.12200
H 	H 	0.36410 0.51000 0.99380 0.19900
O 	O 	0.42820 0.48490 0.00930 -2.04300
Cs	Cs	0.98441 0.70598 0.35255 0.41300
P 	P 	0.86393 0.71821 0.32913 -0.39800
O 	O 	0.00247 0.70563 0.23438 -0.36000
C 	C 	0.80117 0.65953 0.33373 1.15100
P 	P 	0.74133 0.66355 0.33841 -0.45100
O 	O 	0.02117 0.67353 0.13602 -0.30300
C 	C 	0.84567 0.76813 0.32963 -0.14100
P 	P 	0.77547 0.74830 0.33320 -0.04000
C 	C 	0.79547 0.60043 0.33393 -5.81800
C 	C 	0.79187 0.57643 0.37673 5.27600
H 	H 	0.78837 0.54193 0.37183 -2.09400
C 	C 	0.79147 0.57403 0.28013 12.65800
C 	C 	0.78387 0.51783 0.28153 -13.19100
H 	H 	0.79467 0.50983 0.24843 3.75100
H 	H 	0.80637 0.51573 0.30873 3.83400
H 	H 	0.74597 0.49163 0.28813 3.71900
C 	C 	0.74147 0.56583 0.25403 -15.37200
H 	H 	0.72207 0.52943 0.23953 4.48900
H 	H 	0.71847 0.57033 0.27893 4.54100
H 	H 	0.75137 0.59253 0.22653 4.44900
C 	C 	0.84367 0.60333 0.25403 -15.48300
H 	H 	0.84267 0.58423 0.22253 4.47400
H 	H 	0.85117 0.63983 0.24543 4.44900
H 	H 	0.87217 0.60573 0.27663 4.55700
C 	C 	0.79197 0.59033 0.43453 -5.57800
C 	C 	0.81347 0.56023 0.46463 6.28300
H 	H 	0.79027 0.52143 0.45923 -2.03900
H 	H 	0.85027 0.57143 0.45313 -2.00900
H 	H 	0.81407 0.56843 0.50113 -1.91000
C 	C 	0.73617 0.57663 0.45123 6.43400
H 	H 	0.71157 0.53783 0.44723 -2.19600
H 	H 	0.73707 0.58683 0.48723 -2.00200
H 	H 	0.72357 0.59643 0.42993 -2.04500
C 	C 	0.83137 0.65283 0.45013 4.88000
H 	H 	0.83087 0.65673 0.48743 -1.55900
H 	H 	0.86827 0.66423 0.43893 -1.49000
H 	H 	0.81897 0.67533 0.43353 -1.46300
C 	C 	0.97247 0.70473 0.18973 0.11300
H 	H 	0.93577 0.69653 0.20003 -0.34300
H 	H 	0.99067 0.74063 0.17313 -0.09800
C 	C 	0.96827 0.66253 0.15223 -0.00700
H 	H 	0.94717 0.66203 0.12193 -0.18500
H 	H 	0.94887 0.62653 0.16853 -0.07400
C 	C 	0.05207 0.67533 0.18113 -0.01200
H 	H 	0.03467 0.63933 0.19773 0.04300
H 	H 	0.08897 0.68443 0.17073 0.00200
C 	C 	0.05527 0.71673 0.21893 0.06300
H 	H 	0.07497 0.75303 0.20313 0.03800
H 	H 	0.07587 0.71683 0.24953 0.00200
C 	C 	0.12807 0.80443 0.41073 -9.24700
H 	H 	0.14937 0.80803 0.44143 1.49700
H 	H 	0.09617 0.76823 0.40973 0.66200
H 	H 	0.15017 0.80993 0.38013 2.03400
C 	C 	0.05347 0.84923 0.29693 -0.55600
H 	H 	0.04907 0.87643 0.27823 0.05800
H 	H 	0.07437 0.83763 0.27613 0.12800
H 	H 	0.01787 0.81803 0.30433 -0.02500
O 	O 	0.07977 0.82033 0.36073 1.91200
C 	C 	0.10997 0.84773 0.41203 -0.80600
H 	H 	0.08587 0.84383 0.44093 -0.19100
H 	H 	0.13967 0.88543 0.40823 0.63600
C 	C 	0.08377 0.87383 0.34813 -0.82100
H 	H 	0.06367 0.88413 0.37203 0.23200
H 	H 	0.12127 0.90373 0.34343 -0.25200
C 	C 	0.14967 0.84833 0.36933 3.59300
C 	C 	0.11207 0.87123 0.31433 0.77800
Cs	Cs	0.95784 0.67963 0.35380 0.38200
H 	H 	0.15817 0.80583 0.43013 1.19000
H 	H 	0.10467 0.81033 0.43403 2.90100
H 	H 	0.10727 0.76903 0.39443 1.93300
H 	H 	0.15997 0.88493 0.38203 -1.32100
H 	H 	0.18047 0.85013 0.34893 -1.40300
H 	H 	0.13737 0.87793 0.28533 -0.40000
H 	H 	0.12597 0.90313 0.33673 0.27500
H 	H 	0.05137 0.87523 0.27403 0.05800
H 	H 	0.04077 0.81493 0.27883 0.12000
H 	H 	0.03077 0.84333 0.32713 0.19800
O 	O 	0.09487 0.81823 0.34263 -2.49200
Cs	Cs	0.65108 0.03932 0.68589 0.42200
P 	P 	0.53059 0.05155 0.66247 -0.36800
O 	O 	0.66913 0.03897 0.56772 -0.34500
C 	C 	0.46783 0.99287 0.66707 1.05000
P 	P 	0.40799 0.99689 0.67175 -0.44000
O 	O 	0.68783 0.00687 0.46936 -0.32600
C 	C 	0.51233 0.10147 0.66297 -0.14100
P 	P 	0.44213 0.08164 0.66654 -0.04000
C 	C 	0.46213 0.93377 0.66727 -5.37400
C 	C 	0.45853 0.90977 0.71007 4.83100
H 	H 	0.45503 0.87527 0.70517 -1.93800
C 	C 	0.45813 0.90737 0.61347 11.70800
C 	C 	0.45053 0.85117 0.61487 -12.21200
H 	H 	0.46133 0.84317 0.58177 3.48100
H 	H 	0.47303 0.84907 0.64207 3.53400
H 	H 	0.41263 0.82497 0.62147 3.43300
C 	C 	0.40813 0.89917 0.58737 -14.23700
H 	H 	0.38873 0.86277 0.57287 4.15900
H 	H 	0.38513 0.90367 0.61227 4.19700
H 	H 	0.41803 0.92587 0.55987 4.11600
C 	C 	0.51033 0.93667 0.58737 -14.33800
H 	H 	0.50933 0.91757 0.55587 4.14300
H 	H 	0.51783 0.97317 0.57877 4.11000
H 	H 	0.53883 0.93907 0.60997 4.21700
C 	C 	0.45863 0.92367 0.76787 -5.08800
C 	C 	0.48013 0.89357 0.79797 5.73700
H 	H 	0.45693 0.85477 0.79257 -1.89200
H 	H 	0.51693 0.90477 0.78647 -1.85300
H 	H 	0.48073 0.90177 0.83447 -1.74400
C 	C 	0.40283 0.90997 0.78457 5.88200
H 	H 	0.37823 0.87117 0.78057 -2.04600
H 	H 	0.40373 0.92017 0.82057 -1.82900
H 	H 	0.39023 0.92977 0.76327 -1.88700
C 	C 	0.49803 0.98617 0.78347 4.35500
H 	H 	0.49753 0.99007 0.82077 -1.36900
H 	H 	0.53493 0.99757 0.77227 -1.33300
H 	H 	0.48563 0.00867 0.76687 -1.29200
C 	C 	0.63913 0.03807 0.52307 0.08300
H 	H 	0.60243 0.02987 0.53337 -0.33000
H 	H 	0.65733 0.07397 0.50647 -0.06700
C 	C 	0.63493 0.99587 0.48557 0.03400
H 	H 	0.61383 0.99537 0.45527 -0.20600
H 	H 	0.61553 0.95987 0.50187 -0.07800
C 	C 	0.71873 0.00867 0.51447 0.02900
H 	H 	0.70133 0.97267 0.53107 0.02400
H 	H 	0.75563 0.01777 0.50407 -0.01200
C 	C 	0.72193 0.05007 0.55227 0.02400
H 	H 	0.74163 0.08637 0.53647 0.07600
H 	H 	0.74253 0.05017 0.58287 0.01700
C 	C 	0.79473 0.13777 0.74407 -8.08100
H 	H 	0.81603 0.14137 0.77477 1.28800
H 	H 	0.76283 0.10157 0.74307 0.71600
H 	H 	0.81683 0.14327 0.71347 1.92800
C 	C 	0.72013 0.18257 0.63027 -0.81600
H 	H 	0.71573 0.20977 0.61157 0.10200
H 	H 	0.74103 0.17097 0.60947 0.22300
H 	H 	0.68453 0.15137 0.63767 0.04200
O 	O 	0.74643 0.15367 0.69407 0.85200
C 	C 	0.77663 0.18107 0.74537 -0.10000
H 	H 	0.75253 0.17717 0.77427 -0.33100
H 	H 	0.80633 0.21877 0.74157 0.29300
C 	C 	0.75043 0.20717 0.68147 -0.34600
H 	H 	0.73033 0.21747 0.70537 0.08500
H 	H 	0.78793 0.23707 0.67677 -0.15200
C 	C 	0.81633 0.18167 0.70267 2.58500
C 	C 	0.77873 0.20457 0.64767 0.46900
Cs	Cs	0.62450 0.01297 0.68714 0.38600
H 	H 	0.82483 0.13917 0.76347 1.02400
H 	H 	0.77133 0.14367 0.76737 2.40800
H 	H 	0.77393 0.10237 0.72777 1.54700
H 	H 	0.82663 0.21827 0.71537 -0.91400
H 	H 	0.84713 0.18347 0.68227 -1.03500
H 	H 	0.80403 0.21127 0.61867 -0.30400
H 	H 	0.79263 0.23647 0.67007 0.13000
H 	H 	0.71803 0.20857 0.60737 0.09300
H 	H 	0.70743 0.14827 0.61217 0.13500
H 	H 	0.69743 0.17667 0.66047 0.22700
O 	O 	0.76153 0.15157 0.67597 -1.37600
