data_crystal

_cell_length_a 26.89010
_cell_length_b 26.89010
_cell_length_c 13.25910
_cell_angle_alpha 90.00000
_cell_angle_beta  90.00000
_cell_angle_gamma 90.00000

_symmetry_space_group_name_	'P 1'
_symmetry_space_group_name_H-M	'P 1'

loop_
_symmetry_equiv_pos_as_xyz
  x,y,z

loop_
_atom_site_label
_atom_site_type_symbol
_atom_site_fract_x
_atom_site_fract_y
_atom_site_fract_z
_atom_site_charge
Ti	Ti	0.30573 0.77418 0.67871 3.08000
O 	O 	0.32250 0.82570 0.58090 -0.85300
N 	N 	0.23670 0.77320 0.58980 -0.38600
H 	H 	0.21170 0.75380 0.62970 -0.05500
N 	N 	0.32080 0.71620 0.55890 -0.35400
H 	H 	0.34370 0.73100 0.50770 0.06100
O 	O 	0.37220 0.76250 0.70950 -0.87700
C 	C 	0.27430 0.70080 0.50660 -0.00000
H 	H 	0.25590 0.67750 0.55210 -0.02200
C 	C 	0.34580 0.67150 0.60360 -0.07800
H 	H 	0.35190 0.64720 0.54900 0.06900
H 	H 	0.32260 0.65590 0.65210 0.02600
C 	C 	0.30286 0.91070 0.37290 0.12100
H 	H 	0.32150 0.92990 0.32600 -0.04600
C 	C 	0.32723 0.88200 0.44470 -0.35600
C 	C 	0.29993 0.85402 0.51320 0.39300
C 	C 	0.24827 0.85470 0.50990 -0.22300
C 	C 	0.22390 0.88340 0.43810 0.06300
H 	H 	0.18860 0.88390 0.43590 0.00500
C 	C 	0.25120 0.91140 0.36960 -0.11000
C 	C 	0.42760 0.64177 0.66130 -0.07000
H 	H 	0.42020 0.61180 0.62650 0.05600
C 	C 	0.47150 0.64600 0.71600 0.14000
C 	C 	0.48229 0.68990 0.76690 -0.04000
H 	H 	0.51230 0.69270 0.80430 0.02700
C 	C 	0.44920 0.72950 0.76300 -0.23100
C 	C 	0.40535 0.72534 0.70830 0.34100
C 	C 	0.39454 0.68150 0.65740 -0.12900
Cd	Cd	0.62627 0.45282 0.71110 0.99000
C 	C 	0.21720 0.82470 0.58150 -0.03200
H 	H 	0.21750 0.84060 0.64880 -0.07300
H 	H 	0.18240 0.82380 0.55720 0.03800
C 	C 	0.38560 0.88220 0.44870 0.64800
C 	C 	0.28160 0.67530 0.40690 -0.13700
H 	H 	0.30100 0.64440 0.41720 0.07100
H 	H 	0.30080 0.69730 0.36150 0.07000
C 	C 	0.46170 0.77910 0.82040 0.44600
C 	C 	0.40520 0.82830 0.43540 -0.86700
H 	H 	0.39560 0.80830 0.49410 0.27200
H 	H 	0.44150 0.82880 0.42950 0.23700
H 	H 	0.39080 0.81370 0.37430 0.25900
C 	C 	0.19860 0.70750 0.34600 -0.10000
H 	H 	0.21330 0.73030 0.29550 0.05200
H 	H 	0.16580 0.69650 0.32010 0.03400
C 	C 	0.24220 0.74750 0.49170 -0.04800
H 	H 	0.26040 0.77040 0.44520 0.03200
C 	C 	0.46130 0.82290 0.75040 -0.72300
H 	H 	0.48790 0.81920 0.70030 0.21600
H 	H 	0.46670 0.85350 0.78910 0.19300
H 	H 	0.42910 0.82470 0.71590 0.21400
C 	C 	0.51420 0.77660 0.87470 -0.65400
H 	H 	0.51570 0.74690 0.91740 0.14000
H 	H 	0.51880 0.80640 0.91640 0.14300
H 	H 	0.54060 0.77510 0.82370 0.20700
C 	C 	0.42270 0.78700 0.90390 -0.62100
H 	H 	0.39040 0.79440 0.87320 0.16400
H 	H 	0.43290 0.81480 0.94690 0.11300
H 	H 	0.42000 0.75670 0.94480 0.13200
C 	C 	0.19130 0.73470 0.44190 -0.07800
H 	H 	0.17140 0.71410 0.48880 0.02500
H 	H 	0.17270 0.76580 0.42880 0.05000
C 	C 	0.40250 0.90370 0.54590 -0.92000
H 	H 	0.38940 0.93750 0.55290 0.26000
H 	H 	0.43890 0.90460 0.54730 0.25300
H 	H 	0.39040 0.88310 0.60170 0.26800
C 	C 	0.23300 0.99030 0.28000 -0.05500
H 	H 	0.26200 0.00440 0.30970 0.01000
C 	C 	0.40810 0.91250 0.36290 -0.83700
H 	H 	0.40530 0.89380 0.29970 0.21300
H 	H 	0.44330 0.91900 0.37740 0.21700
H 	H 	0.39030 0.94410 0.35650 0.23700
C 	C 	0.23210 0.66240 0.35760 -0.05100
H 	H 	0.23850 0.64770 0.29040 0.04200
H 	H 	0.21490 0.63700 0.39910 0.00000
Br	Br	0.59170 0.39750 0.86920 -1.17800
O 	O 	0.70580 0.42650 0.74180 0.08100
C 	C 	0.71550 0.46660 0.79000 0.38900
O 	O 	0.68480 0.49820 0.81290 -1.31700
C 	C 	0.76830 0.47690 0.82200 -4.89200
H 	H 	0.78970 0.44950 0.79980 0.17200
H 	H 	0.77970 0.50800 0.79050 3.80000
H 	H 	0.76990 0.48010 0.89520 2.02600
C 	C 	0.49980 0.56200 0.63650 0.23900
H 	H 	0.47670 0.56500 0.58270 0.21300
C 	C 	0.50240 0.59870 0.71000 -0.39500
C 	C 	0.53620 0.59430 0.78900 0.65300
H 	H 	0.53790 0.61940 0.83920 -0.84400
C 	C 	0.56740 0.55320 0.79410 -0.57900
H 	H 	0.59050 0.55020 0.84800 0.23700
N 	N 	0.56480 0.51650 0.72050 0.02300
C 	C 	0.53100 0.52090 0.64170 0.23400
H 	H 	0.52920 0.49580 0.59140 -0.11800
N 	N 	0.16660 0.00240 0.17640 -0.12200
C 	C 	0.17790 0.92820 0.25860 0.06500
H 	H 	0.16610 0.89560 0.27270 0.00600
C 	C 	0.15210 0.95710 0.19500 0.09100
H 	H 	0.12300 0.94440 0.16380 -0.01200
C 	C 	0.21960 0.94360 0.30260 0.04700
C 	C 	0.20540 0.01690 0.21600 0.04000
H 	H 	0.21650 0.04950 0.20050 0.12400
Cd	Cd	0.64210 0.47139 0.76480 1.02500
Br	Br	0.60360 0.42580 0.92590 0.22000
O 	O 	0.69980 0.52400 0.86290 -0.62400
O 	O 	0.71840 0.44630 0.78600 -0.87000
C 	C 	0.78310 0.49740 0.84500 -3.45300
H 	H 	0.80090 0.46760 0.82210 2.15600
H 	H 	0.79270 0.52580 0.80330 -1.41800
H 	H 	0.79160 0.50410 0.91560 0.43000
C 	C 	0.72780 0.48890 0.83600 2.97400
N 	N 	0.57970 0.52770 0.75660 0.00900
C 	C 	0.57660 0.56330 0.83230 0.10400
H 	H 	0.59770 0.56120 0.88960 -0.16000
C 	C 	0.54250 0.60190 0.82430 0.12300
H 	H 	0.54030 0.62630 0.87600 0.58100
C 	C 	0.51160 0.60500 0.74100 -0.07000
C 	C 	0.51470 0.56940 0.66480 0.29900
H 	H 	0.49360 0.57150 0.60750 -0.41200
C 	C 	0.54880 0.53070 0.67280 -0.51100
H 	H 	0.55090 0.50640 0.62110 0.09700
C 	C 	0.23960 0.98800 0.25600 -0.03800
H 	H 	0.26460 0.00500 0.29280 0.01900
C 	C 	0.22980 0.93820 0.27570 -0.00100
C 	C 	0.19320 0.91330 0.22170 -0.16500
H 	H 	0.18650 0.87930 0.23520 0.07000
C 	C 	0.16620 0.93830 0.14790 -0.06400
H 	H 	0.14120 0.92130 0.11100 0.04900
N 	N 	0.17600 0.98810 0.12810 -0.14800
C 	C 	0.21260 0.01300 0.18200 -0.02100
H 	H 	0.21930 0.04700 0.16850 -0.11400
Ti	Ti	0.69427 0.22582 0.17871 3.08100
O 	O 	0.67750 0.17430 0.08090 -0.85000
N 	N 	0.76330 0.22680 0.08980 -0.37900
H 	H 	0.78830 0.24620 0.12970 -0.05300
N 	N 	0.67920 0.28380 0.05890 -0.35600
H 	H 	0.65630 0.26900 0.00770 0.06600
O 	O 	0.62780 0.23750 0.20950 -0.87600
C 	C 	0.72570 0.29920 0.00660 0.02600
H 	H 	0.74410 0.32250 0.05210 -0.02700
C 	C 	0.65420 0.32850 0.10360 -0.07800
H 	H 	0.64810 0.35280 0.04900 0.07100
H 	H 	0.67740 0.34410 0.15210 0.02600
C 	C 	0.69714 0.08930 0.87290 0.11800
H 	H 	0.67850 0.07010 0.82600 -0.04500
C 	C 	0.67277 0.11800 0.94470 -0.35800
C 	C 	0.70007 0.14598 0.01320 0.39700
C 	C 	0.75173 0.14530 0.00990 -0.21100
C 	C 	0.77610 0.11660 0.93810 0.05000
H 	H 	0.81140 0.11610 0.93590 0.00700
C 	C 	0.74880 0.08860 0.86960 -0.10600
C 	C 	0.57240 0.35823 0.16130 -0.06800
H 	H 	0.57980 0.38820 0.12650 0.05700
C 	C 	0.52850 0.35400 0.21600 0.13800
C 	C 	0.51771 0.31010 0.26690 -0.03700
H 	H 	0.48770 0.30730 0.30430 0.02600
C 	C 	0.55080 0.27050 0.26300 -0.23500
C 	C 	0.59465 0.27466 0.20830 0.34300
C 	C 	0.60546 0.31850 0.15740 -0.12900
Cd	Cd	0.37373 0.54718 0.21110 0.99000
C 	C 	0.78280 0.17530 0.08150 -0.03800
H 	H 	0.78250 0.15940 0.14880 -0.07000
H 	H 	0.81760 0.17620 0.05720 0.04300
C 	C 	0.61440 0.11780 0.94870 0.62900
C 	C 	0.71840 0.32470 0.90690 -0.16200
H 	H 	0.69900 0.35560 0.91720 0.07500
H 	H 	0.69920 0.30270 0.86150 0.07600
C 	C 	0.53830 0.22090 0.32040 0.45700
C 	C 	0.59480 0.17170 0.93540 -0.84900
H 	H 	0.60440 0.19170 0.99410 0.26200
H 	H 	0.55850 0.17120 0.92950 0.23000
H 	H 	0.60920 0.18630 0.87430 0.25300
C 	C 	0.80140 0.29250 0.84600 -0.11700
H 	H 	0.78670 0.26970 0.79550 0.05600
H 	H 	0.83420 0.30350 0.82010 0.03800
C 	C 	0.75780 0.25250 0.99170 -0.07100
H 	H 	0.73960 0.22960 0.94520 0.03500
C 	C 	0.53870 0.17710 0.25040 -0.73400
H 	H 	0.51210 0.18080 0.20030 0.22000
H 	H 	0.53330 0.14650 0.28910 0.19700
H 	H 	0.57090 0.17530 0.21590 0.21800
C 	C 	0.48580 0.22340 0.37470 -0.66600
H 	H 	0.48430 0.25310 0.41740 0.14700
H 	H 	0.48120 0.19360 0.41640 0.15000
H 	H 	0.45940 0.22490 0.32370 0.21000
C 	C 	0.57730 0.21300 0.40390 -0.63700
H 	H 	0.60960 0.20560 0.37320 0.17000
H 	H 	0.56710 0.18520 0.44690 0.12200
H 	H 	0.58000 0.24330 0.44480 0.14100
C 	C 	0.80870 0.26530 0.94190 -0.06100
H 	H 	0.82860 0.28590 0.98880 0.01700
H 	H 	0.82730 0.23420 0.92880 0.04400
C 	C 	0.59750 0.09630 0.04590 -0.89500
H 	H 	0.61060 0.06250 0.05290 0.25600
H 	H 	0.56110 0.09540 0.04730 0.24900
H 	H 	0.60960 0.11690 0.10170 0.26200
C 	C 	0.76700 0.00970 0.78000 -0.05800
H 	H 	0.73800 0.99560 0.80970 0.01100
C 	C 	0.59190 0.08750 0.86290 -0.82000
H 	H 	0.59470 0.10620 0.79970 0.20800
H 	H 	0.55670 0.08100 0.87740 0.21000
H 	H 	0.60970 0.05590 0.85650 0.23100
C 	C 	0.76790 0.33760 0.85760 -0.03300
H 	H 	0.76150 0.35230 0.79040 0.03600
H 	H 	0.78510 0.36300 0.89910 -0.00700
Br	Br	0.40830 0.60250 0.36920 -1.18100
O 	O 	0.29420 0.57350 0.24180 0.08400
C 	C 	0.28450 0.53340 0.29000 0.39100
O 	O 	0.31520 0.50180 0.31290 -1.32100
C 	C 	0.23170 0.52310 0.32200 -4.91600
H 	H 	0.21030 0.55050 0.29980 0.17400
H 	H 	0.22030 0.49200 0.29050 3.81600
H 	H 	0.23010 0.51990 0.39520 2.03600
C 	C 	0.50020 0.43800 0.13650 0.23700
H 	H 	0.52330 0.43500 0.08270 0.21500
C 	C 	0.49760 0.40130 0.21000 -0.38700
C 	C 	0.46380 0.40570 0.28900 0.64300
H 	H 	0.46210 0.38060 0.33920 -0.83400
C 	C 	0.43260 0.44680 0.29410 -0.56800
H 	H 	0.40950 0.44980 0.34800 0.22800
N 	N 	0.43520 0.48350 0.22050 0.02400
C 	C 	0.46900 0.47910 0.14170 0.23200
H 	H 	0.47080 0.50420 0.09140 -0.11400
N 	N 	0.83340 0.99760 0.67640 -0.11700
C 	C 	0.82210 0.07180 0.75860 0.06200
H 	H 	0.83390 0.10440 0.77270 0.00700
C 	C 	0.84790 0.04290 0.69500 0.09200
H 	H 	0.87700 0.05560 0.66380 -0.01300
C 	C 	0.78040 0.05640 0.80260 0.04500
C 	C 	0.79460 0.98310 0.71600 0.04200
H 	H 	0.78350 0.95050 0.70050 0.12400
Cd	Cd	0.35790 0.52861 0.26480 1.02500
Br	Br	0.39640 0.57420 0.42590 0.23000
O 	O 	0.30020 0.47600 0.36290 -0.62400
O 	O 	0.28160 0.55370 0.28600 -0.87400
C 	C 	0.21690 0.50260 0.34500 -3.46600
H 	H 	0.19910 0.53240 0.32210 2.16600
H 	H 	0.20730 0.47420 0.30330 -1.42300
H 	H 	0.20840 0.49590 0.41560 0.43400
C 	C 	0.27220 0.51110 0.33600 2.98800
N 	N 	0.42030 0.47230 0.25660 0.00400
C 	C 	0.42340 0.43670 0.33230 0.10800
H 	H 	0.40230 0.43880 0.38960 -0.15400
C 	C 	0.45750 0.39810 0.32430 0.12200
H 	H 	0.45970 0.37370 0.37600 0.57700
C 	C 	0.48840 0.39500 0.24100 -0.07100
C 	C 	0.48530 0.43060 0.16480 0.29700
H 	H 	0.50640 0.42850 0.10750 -0.41100
C 	C 	0.45120 0.46930 0.17280 -0.50800
H 	H 	0.44910 0.49360 0.12110 0.09700
C 	C 	0.76040 0.01200 0.75600 -0.03900
H 	H 	0.73540 0.99500 0.79280 0.01900
C 	C 	0.77020 0.06180 0.77570 -0.00000
C 	C 	0.80680 0.08670 0.72170 -0.16300
H 	H 	0.81350 0.12070 0.73520 0.06800
C 	C 	0.83380 0.06170 0.64790 -0.06700
H 	H 	0.85880 0.07870 0.61100 0.04700
N 	N 	0.82400 0.01190 0.62810 -0.15400
C 	C 	0.78740 0.98700 0.68200 -0.02200
H 	H 	0.78070 0.95300 0.66850 -0.11600
Ti	Ti	0.72582 0.80573 0.92871 3.08000
O 	O 	0.67430 0.82250 0.83090 -0.85300
N 	N 	0.72680 0.73670 0.83980 -0.38500
H 	H 	0.74620 0.71170 0.87970 -0.05700
N 	N 	0.78380 0.82080 0.80890 -0.35400
H 	H 	0.76900 0.84370 0.75770 0.06200
O 	O 	0.73750 0.87220 0.95950 -0.87700
C 	C 	0.79920 0.77430 0.75660 0.00000
H 	H 	0.82250 0.75590 0.80210 -0.02400
C 	C 	0.82850 0.84580 0.85360 -0.07700
H 	H 	0.85280 0.85190 0.79900 0.06800
H 	H 	0.84410 0.82260 0.90210 0.02200
C 	C 	0.58930 0.80286 0.62290 0.12100
H 	H 	0.57010 0.82150 0.57600 -0.04600
C 	C 	0.61800 0.82723 0.69470 -0.35600
C 	C 	0.64598 0.79993 0.76320 0.39300
C 	C 	0.64530 0.74827 0.75990 -0.22300
C 	C 	0.61660 0.72390 0.68810 0.06400
H 	H 	0.61610 0.68860 0.68590 0.00400
C 	C 	0.58860 0.75120 0.61960 -0.11000
C 	C 	0.85823 0.92760 0.91130 -0.06300
H 	H 	0.88820 0.92020 0.87650 0.05300
C 	C 	0.85400 0.97150 0.96600 0.11700
C 	C 	0.81010 0.98229 0.01690 -0.01500
H 	H 	0.80730 0.01230 0.05430 0.01900
C 	C 	0.77050 0.94920 0.01300 -0.21500
C 	C 	0.77466 0.90535 0.95830 0.32700
C 	C 	0.81850 0.89454 0.90740 -0.13100
Cd	Cd	0.04718 0.12627 0.96110 0.98600
C 	C 	0.67530 0.71720 0.83150 -0.03100
H 	H 	0.65940 0.71750 0.89880 -0.07500
H 	H 	0.67620 0.68240 0.80720 0.03700
C 	C 	0.61780 0.88560 0.69870 0.64700
C 	C 	0.82470 0.78160 0.65690 -0.13700
H 	H 	0.85560 0.80100 0.66720 0.07100
H 	H 	0.80270 0.80080 0.61150 0.07000
C 	C 	0.72090 0.96170 0.07040 0.42200
C 	C 	0.67170 0.90520 0.68540 -0.86700
H 	H 	0.69170 0.89560 0.74410 0.27200
H 	H 	0.67120 0.94150 0.67950 0.23800
H 	H 	0.68630 0.89080 0.62430 0.25900
C 	C 	0.79250 0.69860 0.59600 -0.10100
H 	H 	0.76970 0.71330 0.54550 0.05100
H 	H 	0.80350 0.66580 0.57010 0.03400
C 	C 	0.75250 0.74220 0.74170 -0.04800
H 	H 	0.72960 0.76040 0.69520 0.03200
C 	C 	0.67710 0.96130 0.00040 -0.62100
H 	H 	0.68080 0.98790 0.95030 0.17900
H 	H 	0.64650 0.96670 0.03910 0.17000
H 	H 	0.67530 0.92910 0.96590 0.17600
C 	C 	0.72340 0.01420 0.12470 -0.64500
H 	H 	0.75310 0.01570 0.16740 0.14000
H 	H 	0.69360 0.01880 0.16640 0.14400
H 	H 	0.72490 0.04060 0.07370 0.20600
C 	C 	0.71300 0.92270 0.15390 -0.60900
H 	H 	0.70560 0.89040 0.12320 0.16500
H 	H 	0.68520 0.93290 0.19690 0.11600
H 	H 	0.74330 0.92000 0.19480 0.13400
C 	C 	0.76530 0.69130 0.69190 -0.07700
H 	H 	0.78590 0.67140 0.73880 0.02400
H 	H 	0.73420 0.67270 0.67880 0.05000
C 	C 	0.59630 0.90250 0.79590 -0.91800
H 	H 	0.56250 0.88940 0.80290 0.25900
H 	H 	0.59540 0.93890 0.79730 0.25200
H 	H 	0.61690 0.89040 0.85170 0.26800
C 	C 	0.50970 0.73300 0.53000 -0.05800
H 	H 	0.49560 0.76200 0.55970 0.01100
C 	C 	0.58750 0.90810 0.61290 -0.83500
H 	H 	0.60620 0.90530 0.54970 0.21300
H 	H 	0.58100 0.94330 0.62740 0.21600
H 	H 	0.55590 0.89030 0.60650 0.23600
C 	C 	0.83760 0.73210 0.60760 -0.05100
H 	H 	0.85230 0.73850 0.54040 0.04200
H 	H 	0.86300 0.71490 0.64910 0.00000
Br	Br	0.10250 0.09170 0.11920 -1.17700
O 	O 	0.07350 0.20580 0.99180 0.05800
C 	C 	0.03340 0.21550 0.04000 0.39800
O 	O 	0.00180 0.18480 0.06290 -1.30600
C 	C 	0.02310 0.26830 0.07200 -4.82700
H 	H 	0.05050 0.28970 0.04980 0.17100
H 	H 	0.99200 0.27970 0.04050 3.75200
H 	H 	0.01990 0.26990 0.14520 2.00500
C 	C 	0.93800 0.99980 0.88650 0.24000
H 	H 	0.93500 0.97670 0.83270 0.20300
C 	C 	0.90130 0.00240 0.96000 -0.39600
C 	C 	0.90570 0.03620 0.03900 0.63800
H 	H 	0.88060 0.03790 0.08920 -0.82900
C 	C 	0.94680 0.06740 0.04410 -0.56500
H 	H 	0.94980 0.09050 0.09800 0.22700
N 	N 	0.98350 0.06480 0.97050 0.01100
C 	C 	0.97910 0.03100 0.89170 0.24700
H 	H 	0.00420 0.02920 0.84140 -0.12000
N 	N 	0.49760 0.66660 0.42640 -0.11900
C 	C 	0.57180 0.67790 0.50860 0.06300
H 	H 	0.60440 0.66610 0.52270 0.00700
C 	C 	0.54290 0.65210 0.44500 0.09400
H 	H 	0.55560 0.62300 0.41380 -0.01300
C 	C 	0.55640 0.71960 0.55260 0.04600
C 	C 	0.48310 0.70540 0.46600 0.04200
H 	H 	0.45050 0.71650 0.45050 0.12800
Cd	Cd	0.02861 0.14210 0.01480 1.02900
Br	Br	0.07420 0.10360 0.17590 0.22900
O 	O 	0.97600 0.19980 0.11290 -0.61400
O 	O 	0.05370 0.21840 0.03600 -0.85200
C 	C 	0.00260 0.28310 0.09500 -3.41500
H 	H 	0.03240 0.30090 0.07210 2.13200
H 	H 	0.97420 0.29270 0.05330 -1.39600
H 	H 	0.99590 0.29160 0.16560 0.42700
C 	C 	0.01110 0.22780 0.08600 2.93000
N 	N 	0.97230 0.07970 0.00660 0.01500
C 	C 	0.93670 0.07660 0.08230 0.10600
H 	H 	0.93880 0.09770 0.13960 -0.15300
C 	C 	0.89810 0.04250 0.07430 0.12200
H 	H 	0.87370 0.04030 0.12600 0.57300
C 	C 	0.89500 0.01160 0.99100 -0.05400
C 	C 	0.93060 0.01470 0.91480 0.27900
H 	H 	0.92850 0.99360 0.85750 -0.39900
C 	C 	0.96930 0.04880 0.92280 -0.50900
H 	H 	0.99360 0.05090 0.87110 0.09100
C 	C 	0.51200 0.73960 0.50600 -0.03900
H 	H 	0.49500 0.76460 0.54280 0.02000
C 	C 	0.56180 0.72980 0.52570 0.00100
C 	C 	0.58670 0.69320 0.47170 -0.16500
H 	H 	0.62070 0.68650 0.48520 0.06900
C 	C 	0.56170 0.66620 0.39790 -0.06800
H 	H 	0.57870 0.64120 0.36100 0.04700
N 	N 	0.51190 0.67600 0.37810 -0.15200
C 	C 	0.48700 0.71260 0.43200 -0.02200
H 	H 	0.45300 0.71930 0.41850 -0.11900
Ti	Ti	0.27418 0.19427 0.42871 3.08100
O 	O 	0.32570 0.17750 0.33090 -0.85200
N 	N 	0.27320 0.26330 0.33980 -0.38400
H 	H 	0.25380 0.28830 0.37970 -0.05400
N 	N 	0.21620 0.17920 0.30890 -0.35400
H 	H 	0.23100 0.15630 0.25770 0.06200
O 	O 	0.26250 0.12780 0.45950 -0.87700
C 	C 	0.20080 0.22570 0.25660 0.00100
H 	H 	0.17750 0.24410 0.30210 -0.02200
C 	C 	0.17150 0.15420 0.35360 -0.07800
H 	H 	0.14720 0.14810 0.29900 0.06900
H 	H 	0.15590 0.17740 0.40210 0.02500
C 	C 	0.41070 0.19714 0.12290 0.12200
H 	H 	0.42990 0.17850 0.07600 -0.04500
C 	C 	0.38200 0.17277 0.19470 -0.35700
C 	C 	0.35402 0.20007 0.26320 0.39400
C 	C 	0.35470 0.25173 0.25990 -0.22300
C 	C 	0.38340 0.27610 0.18810 0.06400
H 	H 	0.38390 0.31140 0.18590 0.00500
C 	C 	0.41140 0.24880 0.11960 -0.10900
C 	C 	0.14177 0.07240 0.41130 -0.06800
H 	H 	0.11180 0.07980 0.37650 0.05600
C 	C 	0.14600 0.02850 0.46600 0.13900
C 	C 	0.18990 0.01771 0.51690 -0.03600
H 	H 	0.19270 0.98770 0.55430 0.02600
C 	C 	0.22950 0.05080 0.51300 -0.23500
C 	C 	0.22534 0.09465 0.45830 0.34300
C 	C 	0.18150 0.10546 0.40740 -0.13000
Cd	Cd	0.95282 0.87373 0.46110 0.99000
C 	C 	0.32470 0.28280 0.33150 -0.03200
H 	H 	0.34060 0.28250 0.39880 -0.07200
H 	H 	0.32380 0.31760 0.30720 0.03900
C 	C 	0.38220 0.11440 0.19870 0.65300
C 	C 	0.17530 0.21840 0.15690 -0.13900
H 	H 	0.14440 0.19900 0.16720 0.07200
H 	H 	0.19730 0.19920 0.11150 0.07300
C 	C 	0.27910 0.03830 0.57040 0.45700
C 	C 	0.32830 0.09480 0.18540 -0.87300
H 	H 	0.30830 0.10440 0.24410 0.27400
H 	H 	0.32880 0.05850 0.17950 0.24000
H 	H 	0.31370 0.10920 0.12430 0.26300
C 	C 	0.20750 0.30140 0.09600 -0.10300
H 	H 	0.23030 0.28670 0.04550 0.05600
H 	H 	0.19650 0.33420 0.07010 0.03800
C 	C 	0.24750 0.25780 0.24170 -0.04900
H 	H 	0.27040 0.23960 0.19520 0.03300
C 	C 	0.32290 0.03870 0.50040 -0.73300
H 	H 	0.31920 0.01210 0.45030 0.21900
H 	H 	0.35350 0.03330 0.53910 0.19700
H 	H 	0.32470 0.07090 0.46590 0.21700
C 	C 	0.27660 0.98580 0.62470 -0.66700
H 	H 	0.24690 0.98430 0.66740 0.14700
H 	H 	0.30640 0.98120 0.66640 0.14900
H 	H 	0.27510 0.95940 0.57370 0.21000
C 	C 	0.28700 0.07730 0.65390 -0.63700
H 	H 	0.29440 0.10960 0.62320 0.17000
H 	H 	0.31480 0.06710 0.69690 0.12200
H 	H 	0.25670 0.08000 0.69480 0.14100
C 	C 	0.23470 0.30870 0.19190 -0.07600
H 	H 	0.21410 0.32860 0.23880 0.02500
H 	H 	0.26580 0.32730 0.17880 0.05000
C 	C 	0.40370 0.09750 0.29590 -0.92500
H 	H 	0.43750 0.11060 0.30290 0.26200
H 	H 	0.40460 0.06110 0.29730 0.25400
H 	H 	0.38310 0.10960 0.35170 0.27000
C 	C 	0.49030 0.26700 0.03000 -0.05000
H 	H 	0.50440 0.23800 0.05970 0.01200
C 	C 	0.41250 0.09190 0.11290 -0.84300
H 	H 	0.39380 0.09470 0.04970 0.21700
H 	H 	0.41900 0.05670 0.12740 0.22000
H 	H 	0.44410 0.10970 0.10650 0.23900
C 	C 	0.16240 0.26790 0.10760 -0.04900
H 	H 	0.14770 0.26150 0.04040 0.04500
H 	H 	0.13700 0.28510 0.14910 0.00100
Br	Br	0.89750 0.90830 0.61920 -1.18100
O 	O 	0.92650 0.79420 0.49180 0.08000
C 	C 	0.96660 0.78450 0.54000 0.38700
O 	O 	0.99820 0.81520 0.56290 -1.31100
C 	C 	0.97690 0.73170 0.57200 -4.86300
H 	H 	0.94950 0.71030 0.54980 0.16900
H 	H 	0.00800 0.72030 0.54050 3.77900
H 	H 	0.98010 0.73010 0.64520 2.01900
C 	C 	0.06200 0.00020 0.38650 0.23800
H 	H 	0.06500 0.02330 0.33270 0.21000
C 	C 	0.09870 0.99760 0.46000 -0.39400
C 	C 	0.09430 0.96380 0.53900 0.65200
H 	H 	0.11940 0.96210 0.58920 -0.84400
C 	C 	0.05320 0.93260 0.54410 -0.57500
H 	H 	0.05020 0.90950 0.59800 0.23300
N 	N 	0.01650 0.93520 0.47050 0.02400
C 	C 	0.02090 0.96900 0.39170 0.23600
H 	H 	0.99580 0.97080 0.34140 -0.11500
N 	N 	0.50240 0.33340 0.92640 -0.13100
C 	C 	0.42820 0.32210 0.00860 0.04500
H 	H 	0.39560 0.33390 0.02270 0.02100
C 	C 	0.45710 0.34790 0.94500 0.13900
H 	H 	0.44440 0.37700 0.91380 -0.02700
C 	C 	0.44360 0.28040 0.05260 0.04700
C 	C 	0.51690 0.29460 0.96600 0.03500
H 	H 	0.54950 0.28350 0.95050 0.11400
Cd	Cd	0.97139 0.85790 0.51480 1.02500
Br	Br	0.92580 0.89640 0.67590 0.23000
O 	O 	0.02400 0.80020 0.61290 -0.62400
O 	O 	0.94630 0.78160 0.53600 -0.86800
C 	C 	0.99740 0.71690 0.59500 -3.44200
H 	H 	0.96760 0.69910 0.57210 2.14800
H 	H 	0.02580 0.70730 0.55330 -1.40800
H 	H 	0.00410 0.70840 0.66560 0.42900
C 	C 	0.98890 0.77220 0.58600 2.96300
N 	N 	0.02770 0.92030 0.50660 0.00600
C 	C 	0.06330 0.92340 0.58230 0.10500
H 	H 	0.06120 0.90230 0.63960 -0.15700
C 	C 	0.10190 0.95750 0.57430 0.12100
H 	H 	0.12630 0.95970 0.62600 0.58300
C 	C 	0.10500 0.98840 0.49100 -0.06800
C 	C 	0.06940 0.98530 0.41480 0.29500
H 	H 	0.07150 0.00640 0.35750 -0.40800
C 	C 	0.03070 0.95120 0.42280 -0.51200
H 	H 	0.00640 0.94910 0.37110 0.09400
C 	C 	0.48800 0.26040 0.00600 -0.03700
H 	H 	0.50500 0.23540 0.04280 0.01800
C 	C 	0.43820 0.27020 0.02570 0.00200
C 	C 	0.41330 0.30680 0.97170 -0.14500
H 	H 	0.37930 0.31350 0.98520 0.05300
C 	C 	0.43830 0.33380 0.89790 -0.11900
H 	H 	0.42130 0.35880 0.86100 0.06500
N 	N 	0.48810 0.32400 0.87810 -0.14500
C 	C 	0.51300 0.28740 0.93200 -0.02300
H 	H 	0.54700 0.28070 0.91850 -0.10500
Ti	Ti	0.19427 0.27418 0.57129 3.08100
O 	O 	0.17750 0.32570 0.66910 -0.85200
N 	N 	0.26330 0.27320 0.66020 -0.38500
H 	H 	0.28830 0.25380 0.62030 -0.05400
N 	N 	0.17920 0.21620 0.69110 -0.35300
H 	H 	0.15630 0.23100 0.74230 0.06200
O 	O 	0.12780 0.26250 0.54050 -0.87700
C 	C 	0.22570 0.20080 0.74340 -0.00200
H 	H 	0.24410 0.17750 0.69790 -0.02200
C 	C 	0.15420 0.17150 0.64640 -0.07800
H 	H 	0.14810 0.14720 0.70100 0.06800
H 	H 	0.17740 0.15590 0.59790 0.02500
C 	C 	0.19714 0.41070 0.87710 0.11900
H 	H 	0.17850 0.42990 0.92400 -0.04800
C 	C 	0.17277 0.38200 0.80530 -0.35400
C 	C 	0.20007 0.35402 0.73680 0.39200
C 	C 	0.25173 0.35470 0.74010 -0.22200
C 	C 	0.27610 0.38340 0.81190 0.06200
H 	H 	0.31140 0.38390 0.81410 0.00500
C 	C 	0.24880 0.41140 0.88040 -0.11100
C 	C 	0.07240 0.14177 0.58870 -0.06800
H 	H 	0.07980 0.11180 0.62350 0.05600
C 	C 	0.02850 0.14600 0.53400 0.13900
C 	C 	0.01771 0.18990 0.48310 -0.03600
H 	H 	0.98770 0.19270 0.44570 0.02600
C 	C 	0.05080 0.22950 0.48700 -0.23600
C 	C 	0.09465 0.22534 0.54170 0.34300
C 	C 	0.10546 0.18150 0.59260 -0.13100
Cd	Cd	0.87373 0.95282 0.53890 0.99000
C 	C 	0.28280 0.32470 0.66850 -0.03300
H 	H 	0.28250 0.34060 0.60120 -0.07200
H 	H 	0.31760 0.32380 0.69280 0.03900
C 	C 	0.11440 0.38220 0.80130 0.64000
C 	C 	0.21840 0.17530 0.84310 -0.13400
H 	H 	0.19900 0.14440 0.83280 0.07000
H 	H 	0.19920 0.19730 0.88850 0.06800
C 	C 	0.03830 0.27910 0.42960 0.45900
C 	C 	0.09480 0.32830 0.81460 -0.85900
H 	H 	0.10440 0.30830 0.75590 0.26900
H 	H 	0.05850 0.32880 0.82050 0.23400
H 	H 	0.10920 0.31370 0.87570 0.25500
C 	C 	0.30140 0.20750 0.90400 -0.09600
H 	H 	0.28670 0.23030 0.95450 0.04700
H 	H 	0.33420 0.19650 0.92990 0.03000
C 	C 	0.25780 0.24750 0.75830 -0.04600
H 	H 	0.23960 0.27040 0.80480 0.03000
C 	C 	0.03870 0.32290 0.49960 -0.73500
H 	H 	0.01210 0.31920 0.54970 0.22000
H 	H 	0.03330 0.35350 0.46090 0.19800
H 	H 	0.07090 0.32470 0.53410 0.21800
C 	C 	0.98580 0.27660 0.37530 -0.67000
H 	H 	0.98430 0.24690 0.33260 0.14800
H 	H 	0.98120 0.30640 0.33360 0.15100
H 	H 	0.95940 0.27510 0.42630 0.21100
C 	C 	0.07730 0.28700 0.34610 -0.64100
H 	H 	0.10960 0.29440 0.37680 0.17200
H 	H 	0.06710 0.31480 0.30310 0.12500
H 	H 	0.08000 0.25670 0.30520 0.14300
C 	C 	0.30870 0.23470 0.80810 -0.08200
H 	H 	0.32860 0.21410 0.76120 0.02600
H 	H 	0.32730 0.26580 0.82120 0.05100
C 	C 	0.09750 0.40370 0.70410 -0.91300
H 	H 	0.11060 0.43750 0.69710 0.25800
H 	H 	0.06110 0.40460 0.70270 0.25100
H 	H 	0.10960 0.38310 0.64830 0.26600
C 	C 	0.26700 0.49030 0.97000 -0.06900
H 	H 	0.23800 0.50440 0.94030 0.00900
C 	C 	0.09190 0.41250 0.88710 -0.82400
H 	H 	0.09470 0.39380 0.95030 0.20600
H 	H 	0.05670 0.41900 0.87260 0.21100
H 	H 	0.10970 0.44410 0.89350 0.23000
C 	C 	0.26790 0.16240 0.89240 -0.05400
H 	H 	0.26150 0.14770 0.95960 0.03900
H 	H 	0.28510 0.13700 0.85090 0.00100
Br	Br	0.90830 0.89750 0.38080 -1.18200
O 	O 	0.79420 0.92650 0.50820 0.08100
C 	C 	0.78450 0.96660 0.46000 0.38900
O 	O 	0.81520 0.99820 0.43710 -1.31300
C 	C 	0.73170 0.97690 0.42800 -4.87200
H 	H 	0.71030 0.94950 0.45020 0.16900
H 	H 	0.72030 0.00800 0.45950 3.78500
H 	H 	0.73010 0.98010 0.35480 2.02300
C 	C 	0.00020 0.06200 0.61350 0.23800
H 	H 	0.02330 0.06500 0.66730 0.21100
C 	C 	0.99760 0.09870 0.54000 -0.39400
C 	C 	0.96380 0.09430 0.46100 0.65200
H 	H 	0.96210 0.11940 0.41080 -0.84300
C 	C 	0.93260 0.05320 0.45590 -0.57400
H 	H 	0.90950 0.05020 0.40200 0.23300
N 	N 	0.93520 0.01650 0.52950 0.02400
C 	C 	0.96900 0.02090 0.60830 0.23600
H 	H 	0.97080 0.99580 0.65860 -0.11500
N 	N 	0.33340 0.50240 0.07360 -0.10700
C 	C 	0.32210 0.42820 0.99140 0.08400
H 	H 	0.33390 0.39560 0.97730 -0.00800
C 	C 	0.34790 0.45710 0.05500 0.04400
H 	H 	0.37700 0.44440 0.08620 0.00100
C 	C 	0.28040 0.44360 0.94740 0.04300
C 	C 	0.29460 0.51690 0.03400 0.05100
H 	H 	0.28350 0.54950 0.04950 0.14500
Cd	Cd	0.85790 0.97139 0.48520 1.02500
Br	Br	0.89640 0.92580 0.32410 0.23100
O 	O 	0.80020 0.02400 0.38710 -0.62300
O 	O 	0.78160 0.94630 0.46400 -0.87000
C 	C 	0.71690 0.99740 0.40500 -3.44700
H 	H 	0.69910 0.96760 0.42790 2.15200
H 	H 	0.70730 0.02580 0.44670 -1.41000
H 	H 	0.70840 0.00410 0.33440 0.43100
C 	C 	0.77220 0.98890 0.41400 2.96800
N 	N 	0.92030 0.02770 0.49340 0.00600
C 	C 	0.92340 0.06330 0.41770 0.10500
H 	H 	0.90230 0.06120 0.36040 -0.15600
C 	C 	0.95750 0.10190 0.42570 0.12100
H 	H 	0.95970 0.12630 0.37400 0.58300
C 	C 	0.98840 0.10500 0.50900 -0.06900
C 	C 	0.98530 0.06940 0.58520 0.29600
H 	H 	0.00640 0.07150 0.64250 -0.40900
C 	C 	0.95120 0.03070 0.57720 -0.51200
H 	H 	0.94910 0.00640 0.62890 0.09400
C 	C 	0.26040 0.48800 0.99400 -0.04100
H 	H 	0.23540 0.50500 0.95720 0.02200
C 	C 	0.27020 0.43820 0.97430 0.00000
C 	C 	0.30680 0.41330 0.02830 -0.18600
H 	H 	0.31350 0.37930 0.01480 0.08600
C 	C 	0.33380 0.43830 0.10210 -0.01200
H 	H 	0.35880 0.42130 0.13900 0.02800
N 	N 	0.32400 0.48810 0.12190 -0.16000
C 	C 	0.28740 0.51300 0.06800 -0.02200
H 	H 	0.28070 0.54700 0.08150 -0.13500
Ti	Ti	0.80573 0.72582 0.07129 3.08100
O 	O 	0.82250 0.67430 0.16910 -0.85100
N 	N 	0.73670 0.72680 0.16020 -0.38400
H 	H 	0.71170 0.74620 0.12030 -0.05200
N 	N 	0.82080 0.78380 0.19110 -0.35300
H 	H 	0.84370 0.76900 0.24230 0.06200
O 	O 	0.87220 0.73750 0.04050 -0.87800
C 	C 	0.77430 0.79920 0.24340 -0.00100
H 	H 	0.75590 0.82250 0.19790 -0.02100
C 	C 	0.84580 0.82850 0.14640 -0.08000
H 	H 	0.85190 0.85280 0.20100 0.06900
H 	H 	0.82260 0.84410 0.09790 0.02900
C 	C 	0.80286 0.58930 0.37710 0.12000
H 	H 	0.82150 0.57010 0.42400 -0.04600
C 	C 	0.82723 0.61800 0.30530 -0.35500
C 	C 	0.79993 0.64598 0.23680 0.39300
C 	C 	0.74827 0.64530 0.24010 -0.22100
C 	C 	0.72390 0.61660 0.31190 0.06300
H 	H 	0.68860 0.61610 0.31410 0.00500
C 	C 	0.75120 0.58860 0.38040 -0.11000
C 	C 	0.92760 0.85823 0.08870 -0.07800
H 	H 	0.92020 0.88820 0.12350 0.06000
C 	C 	0.97150 0.85400 0.03400 0.16700
C 	C 	0.98229 0.81010 0.98310 -0.04500
H 	H 	0.01230 0.80730 0.94570 0.02300
C 	C 	0.94920 0.77050 0.98700 -0.25500
C 	C 	0.90535 0.77466 0.04170 0.35700
C 	C 	0.89454 0.81850 0.09260 -0.12800
Cd	Cd	0.12627 0.04718 0.03890 0.99200
C 	C 	0.71720 0.67530 0.16850 -0.03400
H 	H 	0.71750 0.65940 0.10120 -0.06900
H 	H 	0.68240 0.67620 0.19280 0.04000
C 	C 	0.88560 0.61780 0.30130 0.64700
C 	C 	0.78160 0.82470 0.34310 -0.13600
H 	H 	0.80100 0.85560 0.33280 0.07100
H 	H 	0.80080 0.80270 0.38850 0.07000
C 	C 	0.96170 0.72090 0.92960 0.49300
C 	C 	0.90520 0.67170 0.31460 -0.86700
H 	H 	0.89560 0.69170 0.25590 0.27100
H 	H 	0.94150 0.67120 0.32050 0.23700
H 	H 	0.89080 0.68630 0.37570 0.25900
C 	C 	0.69860 0.79250 0.40400 -0.09800
H 	H 	0.71330 0.76970 0.45450 0.05100
H 	H 	0.66580 0.80350 0.42990 0.03400
C 	C 	0.74220 0.75250 0.25830 -0.04600
H 	H 	0.76040 0.72960 0.30480 0.03100
C 	C 	0.96130 0.67710 0.99960 -0.82200
H 	H 	0.98790 0.68080 0.04970 0.25100
H 	H 	0.96670 0.64650 0.96090 0.22000
H 	H 	0.92910 0.67530 0.03410 0.24800
C 	C 	0.01420 0.72340 0.87530 -0.69500
H 	H 	0.01570 0.75310 0.83260 0.15400
H 	H 	0.01880 0.69360 0.83360 0.15600
H 	H 	0.04060 0.72490 0.92630 0.21500
C 	C 	0.92270 0.71300 0.84610 -0.66600
H 	H 	0.89040 0.70560 0.87680 0.17600
H 	H 	0.93290 0.68520 0.80310 0.13000
H 	H 	0.92000 0.74330 0.80520 0.14900
C 	C 	0.69130 0.76530 0.30810 -0.08000
H 	H 	0.67140 0.78590 0.26120 0.02700
H 	H 	0.67270 0.73420 0.32120 0.05100
C 	C 	0.90250 0.59630 0.20410 -0.92000
H 	H 	0.88940 0.56250 0.19710 0.26100
H 	H 	0.93890 0.59540 0.20270 0.25300
H 	H 	0.89040 0.61690 0.14830 0.26800
C 	C 	0.73300 0.50970 0.47000 -0.05800
H 	H 	0.76200 0.49560 0.44030 0.01100
C 	C 	0.90810 0.58750 0.38710 -0.83500
H 	H 	0.90530 0.60620 0.45030 0.21200
H 	H 	0.94330 0.58100 0.37260 0.21600
H 	H 	0.89030 0.55590 0.39350 0.23500
C 	C 	0.73210 0.83760 0.39240 -0.05200
H 	H 	0.73850 0.85230 0.45960 0.04200
H 	H 	0.71490 0.86300 0.35090 0.00200
Br	Br	0.09170 0.10250 0.88080 -1.18700
O 	O 	0.20580 0.07350 0.00820 0.09600
C 	C 	0.21550 0.03340 0.96000 0.37400
O 	O 	0.18480 0.00180 0.93710 -1.31100
C 	C 	0.26830 0.02310 0.92800 -4.85900
H 	H 	0.28970 0.05050 0.95020 0.16500
H 	H 	0.27970 0.99200 0.95950 3.77400
H 	H 	0.26990 0.01990 0.85480 2.01600
C 	C 	0.99980 0.93800 0.11350 0.23700
H 	H 	0.97670 0.93500 0.16730 0.24100
C 	C 	0.00240 0.90130 0.04000 -0.41000
C 	C 	0.03620 0.90570 0.96100 0.72900
H 	H 	0.03790 0.88060 0.91080 -0.91500
C 	C 	0.06740 0.94680 0.95590 -0.62100
H 	H 	0.09050 0.94980 0.90200 0.27200
N 	N 	0.06480 0.98350 0.02950 0.05400
C 	C 	0.03100 0.97910 0.10830 0.18800
H 	H 	0.02920 0.00420 0.15860 -0.11400
N 	N 	0.66660 0.49760 0.57360 -0.11900
C 	C 	0.67790 0.57180 0.49140 0.06400
H 	H 	0.66610 0.60440 0.47730 0.00700
C 	C 	0.65210 0.54290 0.55500 0.09400
H 	H 	0.62300 0.55560 0.58620 -0.01300
C 	C 	0.71960 0.55640 0.44740 0.04500
C 	C 	0.70540 0.48310 0.53400 0.04200
H 	H 	0.71650 0.45050 0.54950 0.12700
Cd	Cd	0.14210 0.02861 0.98520 1.02000
Br	Br	0.10360 0.07420 0.82410 0.23200
O 	O 	0.19980 0.97600 0.88710 -0.62900
O 	O 	0.21840 0.05370 0.96400 -0.87600
C 	C 	0.28310 0.00260 0.90500 -3.44300
H 	H 	0.30090 0.03240 0.92790 2.14800
H 	H 	0.29270 0.97420 0.94670 -1.40900
H 	H 	0.29160 0.99590 0.83440 0.43000
C 	C 	0.22780 0.01110 0.91400 2.97500
N 	N 	0.07970 0.97230 0.99340 -0.00600
C 	C 	0.07660 0.93670 0.91770 0.08800
H 	H 	0.09770 0.93880 0.86040 -0.17500
C 	C 	0.04250 0.89810 0.92570 0.11500
H 	H 	0.04030 0.87370 0.87400 0.63400
C 	C 	0.01160 0.89500 0.00900 -0.10300
C 	C 	0.01470 0.93060 0.08520 0.36400
H 	H 	0.99360 0.92850 0.14250 -0.45300
C 	C 	0.04880 0.96930 0.07720 -0.51900
H 	H 	0.05090 0.99360 0.12890 0.12000
C 	C 	0.73960 0.51200 0.49400 -0.03900
H 	H 	0.76460 0.49500 0.45720 0.02000
C 	C 	0.72980 0.56180 0.47430 0.00100
C 	C 	0.69320 0.58670 0.52830 -0.16500
H 	H 	0.68650 0.62070 0.51480 0.06900
C 	C 	0.66620 0.56170 0.60210 -0.06800
H 	H 	0.64120 0.57870 0.63900 0.04700
N 	N 	0.67600 0.51190 0.62190 -0.15200
C 	C 	0.71260 0.48700 0.56800 -0.02200
H 	H 	0.71930 0.45300 0.58150 -0.11800
Ti	Ti	0.77418 0.30573 0.32129 3.08100
O 	O 	0.82570 0.32250 0.41910 -0.85200
N 	N 	0.77320 0.23670 0.41020 -0.38400
H 	H 	0.75380 0.21170 0.37030 -0.05400
N 	N 	0.71620 0.32080 0.44110 -0.35300
H 	H 	0.73100 0.34370 0.49230 0.06200
O 	O 	0.76250 0.37220 0.29050 -0.87700
C 	C 	0.70080 0.27430 0.49340 -0.00100
H 	H 	0.67750 0.25590 0.44790 -0.02200
C 	C 	0.67150 0.34580 0.39640 -0.07700
H 	H 	0.64720 0.35190 0.45100 0.06800
H 	H 	0.65590 0.32260 0.34790 0.02500
C 	C 	0.91070 0.30286 0.62710 0.12000
H 	H 	0.92990 0.32150 0.67400 -0.04600
C 	C 	0.88200 0.32723 0.55530 -0.35500
C 	C 	0.85402 0.29993 0.48680 0.39300
C 	C 	0.85470 0.24827 0.49010 -0.22200
C 	C 	0.88340 0.22390 0.56190 0.06300
H 	H 	0.88390 0.18860 0.56410 0.00500
C 	C 	0.91140 0.25120 0.63040 -0.11000
C 	C 	0.64177 0.42760 0.33870 -0.06600
H 	H 	0.61180 0.42020 0.37350 0.05500
C 	C 	0.64600 0.47150 0.28400 0.13600
C 	C 	0.68990 0.48229 0.23310 -0.03500
H 	H 	0.69270 0.51230 0.19570 0.02600
C 	C 	0.72950 0.44920 0.23700 -0.23700
C 	C 	0.72534 0.40535 0.29170 0.34400
C 	C 	0.68150 0.39454 0.34260 -0.13100
Cd	Cd	0.45282 0.62627 0.28890 0.99000
C 	C 	0.82470 0.21720 0.41850 -0.03300
H 	H 	0.84060 0.21750 0.35120 -0.07200
H 	H 	0.82380 0.18240 0.44280 0.03900
C 	C 	0.88220 0.38560 0.55130 0.64700
C 	C 	0.67530 0.28160 0.59310 -0.13600
H 	H 	0.64440 0.30100 0.58280 0.07100
H 	H 	0.69730 0.30080 0.63850 0.07000
C 	C 	0.77910 0.46170 0.17960 0.46300
C 	C 	0.82830 0.40520 0.56460 -0.86600
H 	H 	0.80830 0.39560 0.50590 0.27100
H 	H 	0.82880 0.44150 0.57050 0.23700
H 	H 	0.81370 0.39080 0.62570 0.25900
C 	C 	0.70750 0.19860 0.65400 -0.09900
H 	H 	0.73030 0.21330 0.70450 0.05100
H 	H 	0.69650 0.16580 0.67990 0.03300
C 	C 	0.74750 0.24220 0.50830 -0.04700
H 	H 	0.77040 0.26040 0.55480 0.03100
C 	C 	0.82290 0.46130 0.24960 -0.73900
H 	H 	0.81920 0.48790 0.29970 0.22100
H 	H 	0.85350 0.46670 0.21090 0.19900
H 	H 	0.82470 0.42910 0.28410 0.21900
C 	C 	0.77660 0.51420 0.12530 -0.67400
H 	H 	0.74690 0.51570 0.08260 0.15200
H 	H 	0.80640 0.51880 0.08360 0.15400
H 	H 	0.77510 0.54060 0.17630 0.21300
C 	C 	0.78700 0.42270 0.09610 -0.64700
H 	H 	0.79440 0.39040 0.12680 0.17500
H 	H 	0.81480 0.43290 0.05310 0.12800
H 	H 	0.75670 0.42000 0.05520 0.14700
C 	C 	0.73470 0.19130 0.55810 -0.07900
H 	H 	0.71410 0.17140 0.51120 0.02500
H 	H 	0.76580 0.17270 0.57120 0.05000
C 	C 	0.90370 0.40250 0.45410 -0.91900
H 	H 	0.93750 0.38940 0.44710 0.26000
H 	H 	0.90460 0.43890 0.45270 0.25300
H 	H 	0.88310 0.39040 0.39830 0.26800
C 	C 	0.99030 0.23300 0.72000 -0.05700
H 	H 	0.00440 0.26200 0.69030 0.01000
C 	C 	0.91250 0.40810 0.63710 -0.83400
H 	H 	0.89380 0.40530 0.70030 0.21100
H 	H 	0.91900 0.44330 0.62260 0.21600
H 	H 	0.94410 0.39030 0.64350 0.23500
C 	C 	0.66240 0.23210 0.64240 -0.05200
H 	H 	0.64770 0.23850 0.70960 0.04200
H 	H 	0.63700 0.21490 0.60090 0.00100
Br	Br	0.39750 0.59170 0.13080 -1.18500
O 	O 	0.42650 0.70580 0.25820 0.08500
C 	C 	0.46660 0.71550 0.21000 0.39700
O 	O 	0.49820 0.68480 0.18710 -1.32600
C 	C 	0.47690 0.76830 0.17800 -4.94300
H 	H 	0.44950 0.78970 0.20020 0.17500
H 	H 	0.50800 0.77970 0.20950 3.83500
H 	H 	0.48010 0.76990 0.10480 2.04900
C 	C 	0.56200 0.49980 0.36350 0.23700
H 	H 	0.56500 0.47670 0.41730 0.20800
C 	C 	0.59870 0.50240 0.29000 -0.38900
C 	C 	0.59430 0.53620 0.21100 0.64600
H 	H 	0.61940 0.53790 0.16080 -0.83700
C 	C 	0.55320 0.56740 0.20590 -0.56600
H 	H 	0.55020 0.59050 0.15200 0.22700
N 	N 	0.51650 0.56480 0.27950 0.02200
C 	C 	0.52090 0.53100 0.35830 0.23400
H 	H 	0.49580 0.52920 0.40860 -0.11700
N 	N 	0.00240 0.16660 0.82360 -0.12000
C 	C 	0.92820 0.17790 0.74140 0.06600
H 	H 	0.89560 0.16610 0.72730 0.00600
C 	C 	0.95710 0.15210 0.80500 0.09500
H 	H 	0.94440 0.12300 0.83620 -0.01400
C 	C 	0.94360 0.21960 0.69740 0.04600
C 	C 	0.01690 0.20540 0.78400 0.04200
H 	H 	0.04950 0.21650 0.79950 0.13200
Cd	Cd	0.47139 0.64210 0.23520 1.02600
Br	Br	0.42580 0.60360 0.07410 0.24200
O 	O 	0.52400 0.69980 0.13710 -0.62300
O 	O 	0.44630 0.71840 0.21400 -0.87900
C 	C 	0.49740 0.78310 0.15500 -3.48100
H 	H 	0.46760 0.80090 0.17790 2.17800
H 	H 	0.52580 0.79270 0.19670 -1.42900
H 	H 	0.50410 0.79160 0.08440 0.44000
C 	C 	0.48890 0.72780 0.16400 3.00100
N 	N 	0.52770 0.57970 0.24340 0.00500
C 	C 	0.56330 0.57660 0.16770 0.10700
H 	H 	0.56120 0.59770 0.11040 -0.15000
C 	C 	0.60190 0.54250 0.17570 0.11900
H 	H 	0.62630 0.54030 0.12400 0.58200
C 	C 	0.60500 0.51160 0.25900 -0.06600
C 	C 	0.56940 0.51470 0.33520 0.28900
H 	H 	0.57150 0.49360 0.39250 -0.40400
C 	C 	0.53070 0.54880 0.32720 -0.50600
H 	H 	0.50640 0.55090 0.37890 0.09400
C 	C 	0.98800 0.23960 0.74400 -0.03800
H 	H 	0.00500 0.26460 0.70720 0.01900
C 	C 	0.93820 0.22980 0.72430 -0.00000
C 	C 	0.91330 0.19320 0.77830 -0.16700
H 	H 	0.87930 0.18650 0.76480 0.07000
C 	C 	0.93830 0.16620 0.85210 -0.06900
H 	H 	0.92130 0.14120 0.88900 0.04600
N 	N 	0.98810 0.17600 0.87190 -0.15200
C 	C 	0.01300 0.21260 0.81800 -0.02500
H 	H 	0.04700 0.21930 0.83150 -0.12200
Ti	Ti	0.22582 0.69427 0.82129 3.08100
O 	O 	0.17430 0.67750 0.91910 -0.85500
N 	N 	0.22680 0.76330 0.91020 -0.39400
H 	H 	0.24620 0.78830 0.87030 -0.05500
N 	N 	0.28380 0.67920 0.94110 -0.34900
H 	H 	0.26900 0.65630 0.99230 0.05600
O 	O 	0.23750 0.62780 0.79050 -0.87800
C 	C 	0.29920 0.72570 0.99340 -0.04000
H 	H 	0.32250 0.74410 0.94790 -0.01400
C 	C 	0.32850 0.65420 0.89640 -0.07800
H 	H 	0.35280 0.64810 0.95100 0.06500
H 	H 	0.34410 0.67740 0.84790 0.02500
C 	C 	0.08930 0.69714 0.12710 0.12600
H 	H 	0.07010 0.67850 0.17400 -0.04900
C 	C 	0.11800 0.67277 0.05530 -0.35100
C 	C 	0.14598 0.70007 0.98680 0.38700
C 	C 	0.14530 0.75173 0.99010 -0.24400
C 	C 	0.11660 0.77610 0.06190 0.08900
H 	H 	0.11610 0.81140 0.06410 0.00100
C 	C 	0.08860 0.74880 0.13040 -0.11700
C 	C 	0.35823 0.57240 0.83870 -0.06800
H 	H 	0.38820 0.57980 0.87350 0.05400
C 	C 	0.35400 0.52850 0.78400 0.13800
C 	C 	0.31010 0.51771 0.73310 -0.03800
H 	H 	0.30730 0.48770 0.69570 0.02700
C 	C 	0.27050 0.55080 0.73700 -0.23400
C 	C 	0.27466 0.59465 0.79170 0.34200
C 	C 	0.31850 0.60546 0.84260 -0.13200
Cd	Cd	0.54718 0.37373 0.78890 0.98900
C 	C 	0.17530 0.78280 0.91850 -0.02300
H 	H 	0.15940 0.78250 0.85120 -0.07500
H 	H 	0.17620 0.81760 0.94280 0.03000
C 	C 	0.11780 0.61440 0.05130 0.67500
C 	C 	0.32470 0.71840 0.09310 -0.09700
H 	H 	0.35560 0.69900 0.08280 0.06300
H 	H 	0.30270 0.69920 0.13850 0.06100
C 	C 	0.22090 0.53830 0.67960 0.45400
C 	C 	0.17170 0.59480 0.06460 -0.89200
H 	H 	0.19170 0.60440 0.00590 0.28500
H 	H 	0.17120 0.55850 0.07050 0.24800
H 	H 	0.18630 0.60920 0.12570 0.26700
C 	C 	0.29250 0.80140 0.15400 -0.07300
H 	H 	0.26970 0.78670 0.20450 0.04400
H 	H 	0.30350 0.83420 0.17990 0.02700
C 	C 	0.25250 0.75780 0.00830 -0.01000
H 	H 	0.22960 0.73960 0.05480 0.02600
C 	C 	0.17710 0.53870 0.74960 -0.72900
H 	H 	0.18080 0.51210 0.79970 0.21800
H 	H 	0.14650 0.53330 0.71090 0.19500
H 	H 	0.17530 0.57090 0.78410 0.21400
C 	C 	0.22340 0.48580 0.62530 -0.66500
H 	H 	0.25310 0.48430 0.58260 0.14600
H 	H 	0.19360 0.48120 0.58360 0.14900
H 	H 	0.22490 0.45940 0.67630 0.21000
C 	C 	0.21300 0.57730 0.59610 -0.63500
H 	H 	0.20560 0.60960 0.62680 0.17000
H 	H 	0.18520 0.56710 0.55310 0.12100
H 	H 	0.24330 0.58000 0.55520 0.14000
C 	C 	0.26530 0.80870 0.05810 -0.10600
H 	H 	0.28590 0.82860 0.01120 0.03800
H 	H 	0.23420 0.82730 0.07120 0.06100
C 	C 	0.09630 0.59750 0.95410 -0.95700
H 	H 	0.06250 0.61060 0.94710 0.26600
H 	H 	0.09540 0.56110 0.95270 0.25900
H 	H 	0.11690 0.60960 0.89830 0.27700
C 	C 	0.00970 0.76700 0.22000 -0.06100
H 	H 	0.99560 0.73800 0.19030 0.01100
C 	C 	0.08750 0.59190 0.13710 -0.85700
H 	H 	0.10620 0.59470 0.20030 0.21800
H 	H 	0.08100 0.55670 0.12260 0.22500
H 	H 	0.05590 0.60970 0.14350 0.24300
C 	C 	0.33760 0.76790 0.14240 -0.08000
H 	H 	0.35230 0.76150 0.20960 0.05000
H 	H 	0.36300 0.78510 0.10090 0.01200
Br	Br	0.60250 0.40830 0.63080 -1.18200
O 	O 	0.57350 0.29420 0.75820 0.08100
C 	C 	0.53340 0.28450 0.71000 0.39200
O 	O 	0.50180 0.31520 0.68710 -1.32100
C 	C 	0.52310 0.23170 0.67800 -4.91000
H 	H 	0.55050 0.21030 0.70020 0.17300
H 	H 	0.49200 0.22030 0.70950 3.81200
H 	H 	0.51990 0.23010 0.60480 2.03500
C 	C 	0.43800 0.50020 0.86350 0.23900
H 	H 	0.43500 0.52330 0.91730 0.20400
C 	C 	0.40130 0.49760 0.79000 -0.39700
C 	C 	0.40570 0.46380 0.71100 0.65600
H 	H 	0.38060 0.46210 0.66080 -0.84700
C 	C 	0.44680 0.43260 0.70590 -0.57700
H 	H 	0.44980 0.40950 0.65200 0.23600
N 	N 	0.48350 0.43520 0.77950 0.02100
C 	C 	0.47910 0.46900 0.85830 0.23600
H 	H 	0.50420 0.47080 0.90860 -0.12000
N 	N 	0.99760 0.83340 0.32360 -0.11800
C 	C 	0.07180 0.82210 0.24140 0.06100
H 	H 	0.10440 0.83390 0.22730 0.00800
C 	C 	0.04290 0.84790 0.30500 0.09700
H 	H 	0.05560 0.87700 0.33620 -0.01400
C 	C 	0.05640 0.78040 0.19740 0.04400
C 	C 	0.98310 0.79460 0.28400 0.04200
H 	H 	0.95050 0.78350 0.29950 0.12600
Cd	Cd	0.52861 0.35790 0.73520 1.02500
Br	Br	0.57420 0.39640 0.57410 0.23000
O 	O 	0.47600 0.30020 0.63710 -0.62300
O 	O 	0.55370 0.28160 0.71400 -0.87300
C 	C 	0.50260 0.21690 0.65500 -3.46300
H 	H 	0.53240 0.19910 0.67790 2.16400
H 	H 	0.47420 0.20730 0.69670 -1.42200
H 	H 	0.49590 0.20840 0.58440 0.43400
C 	C 	0.51110 0.27220 0.66400 2.98300
N 	N 	0.47230 0.42030 0.74340 0.00900
C 	C 	0.43670 0.42340 0.66770 0.10300
H 	H 	0.43880 0.40230 0.61040 -0.15700
C 	C 	0.39810 0.45750 0.67570 0.12000
H 	H 	0.37370 0.45970 0.62400 0.58700
C 	C 	0.39500 0.48840 0.75900 -0.06500
C 	C 	0.43060 0.48530 0.83520 0.29000
H 	H 	0.42850 0.50640 0.89250 -0.40400
C 	C 	0.46930 0.45120 0.82720 -0.50900
H 	H 	0.49360 0.44910 0.87890 0.09500
C 	C 	0.01200 0.76040 0.24400 -0.03800
H 	H 	0.99500 0.73540 0.20720 0.02100
C 	C 	0.06180 0.77020 0.22430 0.00600
C 	C 	0.08670 0.80680 0.27830 -0.16400
H 	H 	0.12070 0.81350 0.26480 0.06900
C 	C 	0.06170 0.83380 0.35210 -0.07000
H 	H 	0.07870 0.85880 0.38900 0.04800
N 	N 	0.01190 0.82400 0.37190 -0.15400
C 	C 	0.98700 0.78740 0.31800 -0.02100
H 	H 	0.95300 0.78070 0.33150 -0.11800
O 	O 	0.27630 0.72370 0.75000 -1.42100
O 	O 	0.72370 0.27630 0.25000 -1.42000
O 	O 	0.77630 0.77630 -0.00000 -1.41300
O 	O 	0.22370 0.22370 0.50000 -1.42000
