data_crystal

_cell_length_a 7.87240
_cell_length_b 9.28840
_cell_length_c 9.46070
_cell_angle_alpha 93.36080
_cell_angle_beta  114.58600
_cell_angle_gamma 81.89990

_symmetry_space_group_name_	'P 1'
_symmetry_space_group_name_H-M	'P 1'

loop_
_symmetry_equiv_pos_as_xyz
  x,y,z

loop_
_atom_site_label
_atom_site_type_symbol
_atom_site_fract_x
_atom_site_fract_y
_atom_site_fract_z
_atom_site_charge
Cd	Cd	0.00000 0.50000 0.50000 1.19200
Cd	Cd	0.50000 0.50000 0.50000 1.20500
Cd	Cd	0.50000 0.00000 -0.00000 1.11900
H 	H 	0.05680 0.22300 0.24880 -0.02200
H 	H 	0.94460 0.10260 0.14060 -0.04900
H 	H 	0.11440 0.07890 0.47000 0.13200
H 	H 	0.01460 0.95690 0.35740 0.13100
H 	H 	0.19200 0.77700 0.24880 0.12600
H 	H 	0.19600 0.89740 0.14060 0.07500
H 	H 	0.35560 0.92110 0.47000 -0.04300
H 	H 	0.34280 0.04310 0.35740 -0.06800
H 	H 	0.94320 0.77700 0.75120 0.23900
H 	H 	0.05540 0.89740 0.85940 0.18900
H 	H 	0.88560 0.92110 0.53000 -0.04900
H 	H 	0.98540 0.04310 0.64260 -0.05700
H 	H 	0.80800 0.22300 0.75120 0.10300
H 	H 	0.80400 0.10260 0.85940 0.08300
H 	H 	0.64440 0.07890 0.53000 0.10600
H 	H 	0.65720 0.95690 0.64260 0.12000
C 	C 	0.80680 0.21340 0.26280 0.07100
C 	C 	0.97970 0.14790 0.24200 0.05900
C 	C 	0.09130 0.03370 0.36980 -0.39800
C 	C 	0.45600 0.78660 0.26280 0.18200
C 	C 	0.26230 0.85210 0.24200 -0.37900
C 	C 	0.27850 0.96630 0.36980 0.22100
C 	C 	0.19320 0.78660 0.73720 0.25500
C 	C 	0.02030 0.85210 0.75800 -0.57300
C 	C 	0.90870 0.96630 0.63020 0.27300
C 	C 	0.54400 0.21340 0.73720 0.15600
C 	C 	0.73770 0.14790 0.75800 -0.17100
C 	C 	0.72150 0.03370 0.63020 -0.28000
N 	N 	0.62270 0.33630 0.35320 -0.16000
N 	N 	0.52530 0.24520 0.25160 -0.09500
N 	N 	0.63870 0.16630 0.19300 -0.23100
N 	N 	0.80200 0.31960 0.36400 -0.18300
N 	N 	0.73050 0.66370 0.35320 -0.15300
N 	N 	0.72630 0.75480 0.25160 -0.08500
N 	N 	0.55430 0.83370 0.19300 -0.24400
N 	N 	0.56200 0.68040 0.36400 -0.21400
N 	N 	0.37730 0.66370 0.64680 -0.15200
N 	N 	0.47470 0.75480 0.74840 -0.06400
N 	N 	0.36130 0.83370 0.80700 -0.21500
N 	N 	0.19800 0.68040 0.63600 -0.22700
N 	N 	0.26950 0.33630 0.64680 -0.15700
N 	N 	0.27370 0.24520 0.74840 -0.07300
N 	N 	0.44570 0.16630 0.80700 -0.20000
N 	N 	0.43800 0.31960 0.63600 -0.20000
Cl	Cl	0.14903 0.50000 0.29806 -0.69500
Cl	Cl	0.85097 0.50000 0.70194 -0.60000
