data_crystal

_cell_length_a 17.92570
_cell_length_b 17.92570
_cell_length_c 28.06270
_cell_angle_alpha 90.00000
_cell_angle_beta  90.00000
_cell_angle_gamma 90.00000

_symmetry_space_group_name_	'P 1'
_symmetry_space_group_name_H-M	'P 1'

loop_
_symmetry_equiv_pos_as_xyz
  x,y,z

loop_
_atom_site_label
_atom_site_type_symbol
_atom_site_fract_x
_atom_site_fract_y
_atom_site_fract_z
_atom_site_charge
O 	O 	0.68368 0.68158 0.30319 -0.41000
O 	O 	0.80701 0.66571 0.29451 -0.40400
O 	O 	0.55194 0.55585 0.43463 -0.40100
O 	O 	0.62051 0.48795 0.48556 -0.41200
C 	C 	0.74515 0.65254 0.31353 0.35700
C 	C 	0.74428 0.59646 0.35339 -0.07400
C 	C 	0.80946 0.55882 0.36568 -0.02900
H 	H 	0.85330 0.56610 0.34730 0.06500
C 	C 	0.81114 0.51129 0.40416 0.02500
C 	C 	0.74671 0.50125 0.43051 -0.03300
H 	H 	0.74770 0.46900 0.45740 0.05800
C 	C 	0.67994 0.53741 0.41861 -0.07500
C 	C 	0.67964 0.58489 0.37951 0.02000
H 	H 	0.63490 0.60960 0.37060 0.05500
C 	C 	0.61205 0.52596 0.44866 0.35400
C 	C 	0.88230 0.47643 0.42127 -0.01800
C 	C 	0.91578 0.50977 0.45953 -0.06900
H 	H 	0.89380 0.55320 0.47300 0.05800
H 	H 	0.84780 0.28500 0.38980 0.08500
O 	O 	0.81632 0.81842 0.30319 -0.40900
O 	O 	0.69299 0.83429 0.29451 -0.40300
O 	O 	0.94806 0.94415 0.43463 -0.40000
O 	O 	0.87949 0.01205 0.48556 -0.41200
C 	C 	0.75485 0.84746 0.31353 0.35800
C 	C 	0.75572 0.90354 0.35339 -0.07300
C 	C 	0.69054 0.94118 0.36568 -0.02900
H 	H 	0.64670 0.93390 0.34730 0.06500
C 	C 	0.68886 0.98871 0.40416 0.02400
C 	C 	0.75329 0.99875 0.43051 -0.03200
H 	H 	0.75230 0.03100 0.45740 0.05800
C 	C 	0.82006 0.96259 0.41861 -0.07600
C 	C 	0.82036 0.91511 0.37951 0.02100
H 	H 	0.86510 0.89040 0.37060 0.05500
C 	C 	0.88795 0.97404 0.44866 0.35500
C 	C 	0.61770 0.02357 0.42127 -0.01800
C 	C 	0.58422 0.99023 0.45953 -0.07000
H 	H 	0.60620 0.94680 0.47300 0.05900
H 	H 	0.65220 0.21500 0.38980 0.08500
O 	O 	0.81842 0.68368 0.80319 -0.40900
O 	O 	0.83429 0.80701 0.79451 -0.40300
O 	O 	0.94415 0.55194 0.93463 -0.40000
O 	O 	0.01205 0.62051 0.98556 -0.40900
C 	C 	0.84746 0.74515 0.81353 0.35800
C 	C 	0.90354 0.74428 0.85339 -0.07300
C 	C 	0.94118 0.80946 0.86568 -0.02900
H 	H 	0.93390 0.85330 0.84730 0.06500
C 	C 	0.98871 0.81114 0.90416 0.02400
C 	C 	0.99875 0.74671 0.93051 -0.03600
H 	H 	0.03100 0.74770 0.95740 0.06000
C 	C 	0.96259 0.67994 0.91861 -0.07400
C 	C 	0.91511 0.67964 0.87951 0.02000
H 	H 	0.89040 0.63490 0.87060 0.05500
C 	C 	0.97404 0.61205 0.94866 0.35100
C 	C 	0.02357 0.88230 0.92127 -0.01400
C 	C 	0.99023 0.91578 0.95953 -0.07400
H 	H 	0.94680 0.89380 0.97300 0.06000
H 	H 	0.21500 0.84780 0.88980 0.08500
O 	O 	0.68158 0.81632 0.80319 -0.40900
O 	O 	0.66571 0.69299 0.79451 -0.40300
O 	O 	0.55585 0.94806 0.93463 -0.39900
O 	O 	0.48795 0.87949 0.98556 -0.41000
C 	C 	0.65254 0.75485 0.81353 0.35800
C 	C 	0.59646 0.75572 0.85339 -0.07300
C 	C 	0.55882 0.69054 0.86568 -0.02900
H 	H 	0.56610 0.64670 0.84730 0.06500
C 	C 	0.51129 0.68886 0.90416 0.02500
C 	C 	0.50125 0.75329 0.93051 -0.03400
H 	H 	0.46900 0.75230 0.95740 0.05800
C 	C 	0.53741 0.82006 0.91861 -0.07500
C 	C 	0.58489 0.82036 0.87951 0.02000
H 	H 	0.60960 0.86510 0.87060 0.05500
C 	C 	0.52596 0.88795 0.94866 0.35400
C 	C 	0.47643 0.61770 0.92127 -0.01800
C 	C 	0.50977 0.58422 0.95953 -0.06900
H 	H 	0.55320 0.60620 0.97300 0.05800
H 	H 	0.28500 0.65220 0.88980 0.08500
O 	O 	0.81632 0.68158 0.19681 -0.40900
O 	O 	0.69299 0.66571 0.20549 -0.40300
O 	O 	0.94806 0.55585 0.06537 -0.39900
O 	O 	0.87949 0.48795 0.01444 -0.41000
C 	C 	0.75485 0.65254 0.18647 0.35800
C 	C 	0.75572 0.59646 0.14661 -0.07300
C 	C 	0.69054 0.55882 0.13432 -0.02900
H 	H 	0.64670 0.56610 0.15270 0.06500
C 	C 	0.68886 0.51129 0.09584 0.02500
C 	C 	0.75329 0.50125 0.06949 -0.03400
H 	H 	0.75230 0.46900 0.04260 0.05800
C 	C 	0.82006 0.53741 0.08139 -0.07500
C 	C 	0.82036 0.58489 0.12049 0.02000
H 	H 	0.86510 0.60960 0.12940 0.05500
C 	C 	0.88795 0.52596 0.05134 0.35400
C 	C 	0.61770 0.47643 0.07873 -0.01800
C 	C 	0.58422 0.50977 0.04047 -0.06900
H 	H 	0.60620 0.55320 0.02700 0.05800
H 	H 	0.65220 0.28500 0.11020 0.08500
O 	O 	0.68368 0.81842 0.19681 -0.40900
O 	O 	0.80701 0.83429 0.20549 -0.40300
O 	O 	0.55194 0.94415 0.06537 -0.40000
O 	O 	0.62051 0.01205 0.01444 -0.40900
C 	C 	0.74515 0.84746 0.18647 0.35800
C 	C 	0.74428 0.90354 0.14661 -0.07300
C 	C 	0.80946 0.94118 0.13432 -0.02900
H 	H 	0.85330 0.93390 0.15270 0.06500
C 	C 	0.81114 0.98871 0.09584 0.02400
C 	C 	0.74671 0.99875 0.06949 -0.03600
H 	H 	0.74770 0.03100 0.04260 0.06000
C 	C 	0.67994 0.96259 0.08139 -0.07400
C 	C 	0.67964 0.91511 0.12049 0.02000
H 	H 	0.63490 0.89040 0.12940 0.05500
C 	C 	0.61205 0.97404 0.05134 0.35100
C 	C 	0.88230 0.02357 0.07873 -0.01400
C 	C 	0.91578 0.99023 0.04047 -0.07400
H 	H 	0.89380 0.94680 0.02700 0.06000
H 	H 	0.84780 0.21500 0.11020 0.08500
O 	O 	0.68158 0.68368 0.69681 -0.40900
O 	O 	0.66571 0.80701 0.70549 -0.40300
O 	O 	0.55585 0.55194 0.56537 -0.40000
O 	O 	0.48795 0.62051 0.51444 -0.41100
C 	C 	0.65254 0.74515 0.68647 0.35800
C 	C 	0.59646 0.74428 0.64661 -0.07300
C 	C 	0.55882 0.80946 0.63432 -0.02900
H 	H 	0.56610 0.85330 0.65270 0.06500
C 	C 	0.51129 0.81114 0.59584 0.02500
C 	C 	0.50125 0.74671 0.56949 -0.03300
H 	H 	0.46900 0.74770 0.54260 0.05800
C 	C 	0.53741 0.67994 0.58139 -0.07500
C 	C 	0.58489 0.67964 0.62049 0.02000
H 	H 	0.60960 0.63490 0.62940 0.05500
C 	C 	0.52596 0.61205 0.55134 0.35400
C 	C 	0.47643 0.88230 0.57873 -0.01800
C 	C 	0.50977 0.91578 0.54047 -0.06900
H 	H 	0.55320 0.89380 0.52700 0.05800
H 	H 	0.28500 0.84780 0.61020 0.08500
O 	O 	0.81842 0.81632 0.69681 -0.40900
O 	O 	0.83429 0.69299 0.70549 -0.40300
O 	O 	0.94415 0.94806 0.56537 -0.40000
O 	O 	0.01205 0.87949 0.51444 -0.41200
C 	C 	0.84746 0.75485 0.68647 0.35800
C 	C 	0.90354 0.75572 0.64661 -0.07300
C 	C 	0.94118 0.69054 0.63432 -0.02900
H 	H 	0.93390 0.64670 0.65270 0.06500
C 	C 	0.98871 0.68886 0.59584 0.02400
C 	C 	0.99875 0.75329 0.56949 -0.03200
H 	H 	0.03100 0.75230 0.54260 0.05800
C 	C 	0.96259 0.82006 0.58139 -0.07600
C 	C 	0.91511 0.82036 0.62049 0.02100
H 	H 	0.89040 0.86510 0.62940 0.05500
C 	C 	0.97404 0.88795 0.55134 0.35500
C 	C 	0.02357 0.61770 0.57873 -0.01800
C 	C 	0.99023 0.58422 0.54047 -0.07000
H 	H 	0.94680 0.60620 0.52700 0.05900
H 	H 	0.21500 0.65220 0.61020 0.08500
O 	O 	0.31632 0.31842 0.69681 -0.40900
O 	O 	0.19299 0.33429 0.70549 -0.40300
O 	O 	0.44806 0.44415 0.56537 -0.40000
O 	O 	0.37949 0.51205 0.51444 -0.41100
C 	C 	0.25485 0.34746 0.68647 0.35800
C 	C 	0.25572 0.40354 0.64661 -0.07300
C 	C 	0.19054 0.44118 0.63432 -0.02900
H 	H 	0.14670 0.43390 0.65270 0.06500
C 	C 	0.18886 0.48871 0.59584 0.02500
C 	C 	0.25329 0.49875 0.56949 -0.03300
H 	H 	0.25230 0.53100 0.54260 0.05800
C 	C 	0.32006 0.46259 0.58139 -0.07500
C 	C 	0.32036 0.41511 0.62049 0.02000
H 	H 	0.36510 0.39040 0.62940 0.05500
C 	C 	0.38795 0.47404 0.55134 0.35400
C 	C 	0.11770 0.52357 0.57873 -0.01800
C 	C 	0.08422 0.49023 0.54047 -0.06900
H 	H 	0.10620 0.44680 0.52700 0.05800
H 	H 	0.15220 0.71500 0.61020 0.08500
O 	O 	0.18368 0.18158 0.69681 -0.40900
O 	O 	0.30701 0.16571 0.70549 -0.40300
O 	O 	0.05194 0.05585 0.56537 -0.40000
O 	O 	0.12051 0.98795 0.51444 -0.41200
C 	C 	0.24515 0.15254 0.68647 0.35800
C 	C 	0.24428 0.09646 0.64661 -0.07300
C 	C 	0.30946 0.05882 0.63432 -0.02900
H 	H 	0.35330 0.06610 0.65270 0.06500
C 	C 	0.31114 0.01129 0.59584 0.02400
C 	C 	0.24671 0.00125 0.56949 -0.03200
H 	H 	0.24770 0.96900 0.54260 0.05800
C 	C 	0.17994 0.03741 0.58139 -0.07600
C 	C 	0.17964 0.08489 0.62049 0.02100
H 	H 	0.13490 0.10960 0.62940 0.05500
C 	C 	0.11205 0.02596 0.55134 0.35500
C 	C 	0.38230 0.97643 0.57873 -0.01800
C 	C 	0.41578 0.00977 0.54047 -0.07000
H 	H 	0.39380 0.05320 0.52700 0.05900
H 	H 	0.34780 0.78500 0.61020 0.08500
O 	O 	0.18158 0.31632 0.19681 -0.40900
O 	O 	0.16571 0.19299 0.20549 -0.40300
O 	O 	0.05585 0.44806 0.06537 -0.40000
O 	O 	0.98795 0.37949 0.01444 -0.40900
C 	C 	0.15254 0.25485 0.18647 0.35800
C 	C 	0.09646 0.25572 0.14661 -0.07300
C 	C 	0.05882 0.19054 0.13432 -0.02900
H 	H 	0.06610 0.14670 0.15270 0.06500
C 	C 	0.01129 0.18886 0.09584 0.02400
C 	C 	0.00125 0.25329 0.06949 -0.03600
H 	H 	0.96900 0.25230 0.04260 0.06000
C 	C 	0.03741 0.32006 0.08139 -0.07400
C 	C 	0.08489 0.32036 0.12049 0.02000
H 	H 	0.10960 0.36510 0.12940 0.05500
C 	C 	0.02596 0.38795 0.05134 0.35100
C 	C 	0.97643 0.11770 0.07873 -0.01400
C 	C 	0.00977 0.08422 0.04047 -0.07400
H 	H 	0.05320 0.10620 0.02700 0.06000
H 	H 	0.78500 0.15220 0.11020 0.08500
O 	O 	0.31842 0.18368 0.19681 -0.40900
O 	O 	0.33429 0.30701 0.20549 -0.40300
O 	O 	0.44415 0.05194 0.06537 -0.39900
O 	O 	0.51205 0.12051 0.01444 -0.41000
C 	C 	0.34746 0.24515 0.18647 0.35800
C 	C 	0.40354 0.24428 0.14661 -0.07300
C 	C 	0.44118 0.30946 0.13432 -0.02900
H 	H 	0.43390 0.35330 0.15270 0.06500
C 	C 	0.48871 0.31114 0.09584 0.02500
C 	C 	0.49875 0.24671 0.06949 -0.03400
H 	H 	0.53100 0.24770 0.04260 0.05800
C 	C 	0.46259 0.17994 0.08139 -0.07500
C 	C 	0.41511 0.17964 0.12049 0.02000
H 	H 	0.39040 0.13490 0.12940 0.05500
C 	C 	0.47404 0.11205 0.05134 0.35400
C 	C 	0.52357 0.38230 0.07873 -0.01800
C 	C 	0.49023 0.41578 0.04047 -0.06900
H 	H 	0.44680 0.39380 0.02700 0.05800
H 	H 	0.71500 0.34780 0.11020 0.08500
O 	O 	0.18368 0.31842 0.80319 -0.40900
O 	O 	0.30701 0.33429 0.79451 -0.40300
O 	O 	0.05194 0.44415 0.93463 -0.39900
O 	O 	0.12051 0.51205 0.98556 -0.41000
C 	C 	0.24515 0.34746 0.81353 0.35800
C 	C 	0.24428 0.40354 0.85339 -0.07300
C 	C 	0.30946 0.44118 0.86568 -0.02900
H 	H 	0.35330 0.43390 0.84730 0.06500
C 	C 	0.31114 0.48871 0.90416 0.02500
C 	C 	0.24671 0.49875 0.93051 -0.03400
H 	H 	0.24770 0.53100 0.95740 0.05800
C 	C 	0.17994 0.46259 0.91861 -0.07500
C 	C 	0.17964 0.41511 0.87951 0.02000
H 	H 	0.13490 0.39040 0.87060 0.05500
C 	C 	0.11205 0.47404 0.94866 0.35400
C 	C 	0.38230 0.52357 0.92127 -0.01800
C 	C 	0.41578 0.49023 0.95953 -0.06900
H 	H 	0.39380 0.44680 0.97300 0.05800
H 	H 	0.34780 0.71500 0.88980 0.08500
O 	O 	0.31632 0.18158 0.80319 -0.40900
O 	O 	0.19299 0.16571 0.79451 -0.40300
O 	O 	0.44806 0.05585 0.93463 -0.40000
O 	O 	0.37949 0.98795 0.98556 -0.40900
C 	C 	0.25485 0.15254 0.81353 0.35800
C 	C 	0.25572 0.09646 0.85339 -0.07300
C 	C 	0.19054 0.05882 0.86568 -0.02900
H 	H 	0.14670 0.06610 0.84730 0.06500
C 	C 	0.18886 0.01129 0.90416 0.02400
C 	C 	0.25329 0.00125 0.93051 -0.03600
H 	H 	0.25230 0.96900 0.95740 0.06000
C 	C 	0.32006 0.03741 0.91861 -0.07400
C 	C 	0.32036 0.08489 0.87951 0.02000
H 	H 	0.36510 0.10960 0.87060 0.05500
C 	C 	0.38795 0.02596 0.94866 0.35100
C 	C 	0.11770 0.97643 0.92127 -0.01400
C 	C 	0.08422 0.00977 0.95953 -0.07400
H 	H 	0.10620 0.05320 0.97300 0.06000
H 	H 	0.15220 0.78500 0.88980 0.08500
O 	O 	0.31842 0.31632 0.30319 -0.40900
O 	O 	0.33429 0.19299 0.29451 -0.40300
O 	O 	0.44415 0.44806 0.43463 -0.40000
O 	O 	0.51205 0.37949 0.48556 -0.41100
C 	C 	0.34746 0.25485 0.31353 0.35800
C 	C 	0.40354 0.25572 0.35339 -0.07300
C 	C 	0.44118 0.19054 0.36568 -0.02900
H 	H 	0.43390 0.14670 0.34730 0.06500
C 	C 	0.48871 0.18886 0.40416 0.02500
C 	C 	0.49875 0.25329 0.43051 -0.03300
H 	H 	0.53100 0.25230 0.45740 0.05800
C 	C 	0.46259 0.32006 0.41861 -0.07500
C 	C 	0.41511 0.32036 0.37951 0.02000
H 	H 	0.39040 0.36510 0.37060 0.05500
C 	C 	0.47404 0.38795 0.44866 0.35400
C 	C 	0.52357 0.11770 0.42127 -0.01800
C 	C 	0.49023 0.08422 0.45953 -0.06900
H 	H 	0.44680 0.10620 0.47300 0.05800
H 	H 	0.71500 0.15220 0.38980 0.08500
O 	O 	0.18158 0.18368 0.30319 -0.40900
O 	O 	0.16571 0.30701 0.29451 -0.40300
O 	O 	0.05585 0.05194 0.43463 -0.40000
O 	O 	0.98795 0.12051 0.48556 -0.41200
C 	C 	0.15254 0.24515 0.31353 0.35800
C 	C 	0.09646 0.24428 0.35339 -0.07300
C 	C 	0.05882 0.30946 0.36568 -0.02900
H 	H 	0.06610 0.35330 0.34730 0.06500
C 	C 	0.01129 0.31114 0.40416 0.02400
C 	C 	0.00125 0.24671 0.43051 -0.03200
H 	H 	0.96900 0.24770 0.45740 0.05800
C 	C 	0.03741 0.17994 0.41861 -0.07600
C 	C 	0.08489 0.17964 0.37951 0.02100
H 	H 	0.10960 0.13490 0.37060 0.05500
C 	C 	0.02596 0.11205 0.44866 0.35500
C 	C 	0.97643 0.38230 0.42127 -0.01800
C 	C 	0.00977 0.41578 0.45953 -0.07000
H 	H 	0.05320 0.39380 0.47300 0.05900
H 	H 	0.78500 0.34780 0.38980 0.08500
Cu	Cu	0.45944 0.54056 0.47032 0.90400
Cu	Cu	0.04056 0.95944 0.47032 0.90400
Cu	Cu	0.95944 0.45944 0.97032 0.90300
Cu	Cu	0.54056 0.04056 0.97032 0.90300
Cu	Cu	0.04056 0.54056 0.02968 0.90300
Cu	Cu	0.45944 0.95944 0.02968 0.90300
Cu	Cu	0.54056 0.45944 0.52968 0.90400
Cu	Cu	0.95944 0.04056 0.52968 0.90400
Cu	Cu	0.67568 0.75000 0.25000 0.90500
Cu	Cu	0.82432 0.75000 0.25000 0.90500
Cu	Cu	0.75000 0.67568 0.75000 0.90500
Cu	Cu	0.75000 0.82432 0.75000 0.90500
Cu	Cu	0.32432 0.25000 0.75000 0.90500
Cu	Cu	0.17568 0.25000 0.75000 0.90500
Cu	Cu	0.25000 0.32432 0.25000 0.90500
Cu	Cu	0.25000 0.17568 0.25000 0.90500
O 	O 	0.88040 0.38040 0.36115 -0.15800
C 	C 	0.98166 0.48166 0.47946 0.02100
C 	C 	0.91305 0.41305 0.40143 0.08800
C 	C 	0.82540 0.32540 0.37110 -0.16500
H 	H 	0.80560 0.30560 0.34110 0.09000
O 	O 	0.61960 0.11960 0.36115 -0.15800
C 	C 	0.51834 0.01834 0.47946 0.02100
C 	C 	0.58695 0.08695 0.40143 0.08800
C 	C 	0.67460 0.17460 0.37110 -0.16500
H 	H 	0.69440 0.19440 0.34110 0.09000
O 	O 	0.11960 0.88040 0.86115 -0.15700
C 	C 	0.01834 0.98166 0.97946 0.02500
C 	C 	0.08695 0.91305 0.90143 0.08500
C 	C 	0.17460 0.82540 0.87110 -0.16600
H 	H 	0.19440 0.80560 0.84110 0.09000
O 	O 	0.38040 0.61960 0.86115 -0.15800
C 	C 	0.48166 0.51834 0.97946 0.02100
C 	C 	0.41305 0.58695 0.90143 0.08800
C 	C 	0.32540 0.67460 0.87110 -0.16500
H 	H 	0.30560 0.69440 0.84110 0.09000
O 	O 	0.61960 0.38040 0.13885 -0.15800
C 	C 	0.51834 0.48166 0.02054 0.02100
C 	C 	0.58695 0.41305 0.09857 0.08800
C 	C 	0.67460 0.32540 0.12890 -0.16500
H 	H 	0.69440 0.30560 0.15890 0.09000
O 	O 	0.88040 0.11960 0.13885 -0.15700
C 	C 	0.98166 0.01834 0.02054 0.02500
C 	C 	0.91305 0.08695 0.09857 0.08500
C 	C 	0.82540 0.17460 0.12890 -0.16600
H 	H 	0.80560 0.19440 0.15890 0.09000
O 	O 	0.38040 0.88040 0.63885 -0.15800
C 	C 	0.48166 0.98166 0.52054 0.02100
C 	C 	0.41305 0.91305 0.59857 0.08800
C 	C 	0.32540 0.82540 0.62890 -0.16500
H 	H 	0.30560 0.80560 0.65890 0.09000
O 	O 	0.11960 0.61960 0.63885 -0.15800
C 	C 	0.01834 0.51834 0.52054 0.02100
C 	C 	0.08695 0.58695 0.59857 0.08800
C 	C 	0.17460 0.67460 0.62890 -0.16500
H 	H 	0.19440 0.69440 0.65890 0.09000
