data_crystal

_cell_length_a 31.08650
_cell_length_b 31.08650
_cell_length_c 44.59600
_cell_angle_alpha 90.00000
_cell_angle_beta  90.00000
_cell_angle_gamma 90.00000

_symmetry_space_group_name_	'P 1'
_symmetry_space_group_name_H-M	'P 1'

loop_
_symmetry_equiv_pos_as_xyz
  x,y,z

loop_
_atom_site_label
_atom_site_type_symbol
_atom_site_fract_x
_atom_site_fract_y
_atom_site_fract_z
_atom_site_charge
C 	C 	0.30120 0.95600 0.14410 0.31800
C 	C 	0.32620 0.98260 0.12620 -0.35200
H 	H 	0.33870 0.97190 0.10880 0.17800
C 	C 	0.33240 0.02540 0.13420 0.29500
C 	C 	0.31370 0.04150 0.16020 -0.34600
H 	H 	0.31780 0.07010 0.16560 0.18000
C 	C 	0.28860 0.01480 0.17810 0.30500
C 	C 	0.28240 0.97200 0.17010 -0.35700
H 	H 	0.26570 0.95420 0.18210 0.18200
O 	O 	0.30680 0.69000 0.14470 -0.37900
N 	N 	0.30290 0.84480 0.12040 -0.24100
H 	H 	0.27920 0.83910 0.12950 0.13500
C 	C 	0.17830 0.99350 0.31020 0.01300
C 	C 	0.36410 0.77930 0.06680 -0.02500
C 	C 	0.31960 0.88910 0.12210 0.29100
O 	O 	0.34450 0.90000 0.10120 -0.24700
N 	N 	0.29330 0.91340 0.13760 -0.30100
H 	H 	0.26980 0.90210 0.14410 0.15100
Cu	Cu	0.36244 0.30144 0.16855 0.92400
Cu	Cu	0.39676 0.35074 0.12684 0.92500
O 	O 	0.38150 0.25400 0.14210 -0.39300
O 	O 	0.15260 0.14380 0.31200 -0.38800
O 	O 	0.51320 0.16080 0.03060 -0.40900
O 	O 	0.12450 0.10130 0.34830 -0.38300
O 	O 	0.41250 0.29640 0.10760 -0.39500
C 	C 	0.40330 0.26220 0.12080 0.34900
O 	O 	0.15190 0.94830 0.34710 -0.39100
O 	O 	0.34620 0.65980 0.10690 -0.36300
O 	O 	0.41070 0.75120 0.03130 -0.41400
O 	O 	0.50230 0.23240 0.03000 -0.39600
C 	C 	0.14550 0.10950 0.32600 0.32500
O 	O 	0.19650 0.91990 0.31220 -0.37600
O 	O 	0.39980 0.82040 0.03140 -0.42700
C 	C 	0.32930 0.69030 0.12200 0.30900
C 	C 	0.17560 0.94940 0.32560 0.32400
C 	C 	0.49680 0.19360 0.03950 0.34400
O 	O 	0.35210 0.11570 0.13810 -0.24500
C 	C 	0.41790 0.22160 0.10340 0.00200
C 	C 	0.39450 0.78450 0.04070 0.39200
C 	C 	0.16340 0.06940 0.30960 0.01900
C 	C 	0.33420 0.73350 0.10640 -0.00100
C 	C 	0.46380 0.19050 0.06350 -0.01600
C 	C 	0.34760 0.81520 0.07990 -0.12500
H 	H 	0.35300 0.84230 0.07180 0.11600
O 	O 	0.33490 0.25900 0.20340 -0.39700
H 	H 	0.34200 0.26770 0.22000 0.24300
N 	N 	0.26550 0.03520 0.20220 -0.29500
H 	H 	0.26700 0.06280 0.20290 0.14800
C 	C 	0.44620 0.22610 0.07840 -0.03900
H 	H 	0.45310 0.25360 0.07170 0.08100
C 	C 	0.18430 0.07440 0.28210 -0.15600
H 	H 	0.18550 0.10130 0.27300 0.10500
O 	O 	0.23890 0.97790 0.22640 -0.26300
C 	C 	0.44800 0.15050 0.07250 -0.13400
H 	H 	0.45890 0.12590 0.06330 0.09300
C 	C 	0.35840 0.73840 0.08060 -0.03600
H 	H 	0.37110 0.71430 0.07190 0.08400
N 	N 	0.40320 0.10400 0.09980 -0.25400
H 	H 	0.41500 0.08360 0.08970 0.13300
C 	C 	0.31550 0.76980 0.11800 -0.12000
H 	H 	0.29760 0.76780 0.13460 0.09700
C 	C 	0.15910 0.02980 0.32170 -0.06500
H 	H 	0.14200 0.02680 0.33870 0.09500
N 	N 	0.22890 0.04610 0.24630 -0.28100
H 	H 	0.23900 0.07180 0.24530 0.14400
C 	C 	0.20390 0.03820 0.26770 0.20900
O 	O 	0.42510 0.39060 0.09110 -0.39400
H 	H 	0.44760 0.37960 0.08540 0.24800
C 	C 	0.32360 0.81110 0.10450 0.15600
C 	C 	0.40340 0.18180 0.10940 -0.13000
H 	H 	0.38300 0.17800 0.12450 0.12300
C 	C 	0.19950 0.99770 0.28080 -0.15500
H 	H 	0.21000 0.97340 0.27110 0.13000
C 	C 	0.24240 0.01660 0.22320 0.31800
C 	C 	0.37160 0.09150 0.12020 0.28700
C 	C 	0.41830 0.14590 0.09340 0.16600
N 	N 	0.36600 0.04780 0.11720 -0.27600
H 	H 	0.38230 0.03360 0.10520 0.14200
C 	C 	0.80120 0.45600 0.64410 0.31800
C 	C 	0.82620 0.48260 0.62620 -0.35400
H 	H 	0.83870 0.47190 0.60880 0.17700
C 	C 	0.83240 0.52540 0.63420 0.29400
C 	C 	0.81370 0.54150 0.66020 -0.34700
H 	H 	0.81780 0.57010 0.66560 0.17900
C 	C 	0.78860 0.51480 0.67810 0.30500
C 	C 	0.78240 0.47200 0.67010 -0.35800
H 	H 	0.76570 0.45420 0.68210 0.18100
O 	O 	0.80680 0.19000 0.64470 -0.38000
N 	N 	0.80290 0.34480 0.62040 -0.24200
H 	H 	0.77920 0.33910 0.62950 0.13400
C 	C 	0.67830 0.49350 0.81020 0.01200
C 	C 	0.86410 0.27930 0.56680 -0.02600
C 	C 	0.81960 0.38910 0.62210 0.29000
O 	O 	0.84450 0.40000 0.60120 -0.24800
N 	N 	0.79330 0.41340 0.63760 -0.30200
H 	H 	0.76980 0.40210 0.64410 0.15000
Cu	Cu	0.86244 0.80144 0.66855 0.92300
Cu	Cu	0.89676 0.85074 0.62684 0.92400
O 	O 	0.88150 0.75400 0.64210 -0.39400
O 	O 	0.65260 0.64380 0.81200 -0.38900
O 	O 	0.01320 0.66080 0.53060 -0.40900
O 	O 	0.62450 0.60130 0.84830 -0.38400
O 	O 	0.91250 0.79640 0.60760 -0.39600
C 	C 	0.90330 0.76220 0.62080 0.34800
O 	O 	0.65190 0.44830 0.84710 -0.39100
O 	O 	0.84620 0.15980 0.60690 -0.36400
O 	O 	0.91070 0.25120 0.53130 -0.41400
O 	O 	0.00230 0.73240 0.53000 -0.39600
C 	C 	0.64550 0.60950 0.82600 0.32400
O 	O 	0.69650 0.41990 0.81220 -0.37800
O 	O 	0.89980 0.32040 0.53140 -0.42600
C 	C 	0.82930 0.19030 0.62200 0.30900
C 	C 	0.67560 0.44940 0.82560 0.32400
C 	C 	0.99680 0.69360 0.53950 0.34300
O 	O 	0.85210 0.61570 0.63810 -0.24500
C 	C 	0.91790 0.72160 0.60340 0.00200
C 	C 	0.89450 0.28450 0.54070 0.39200
C 	C 	0.66340 0.56940 0.80960 0.01900
C 	C 	0.83420 0.23350 0.60640 -0.00100
C 	C 	0.96380 0.69050 0.56350 -0.01500
C 	C 	0.84760 0.31520 0.57990 -0.12500
H 	H 	0.85300 0.34230 0.57180 0.11700
O 	O 	0.83490 0.75900 0.70340 -0.39700
H 	H 	0.84200 0.76770 0.72000 0.24300
N 	N 	0.76550 0.53520 0.70220 -0.29500
H 	H 	0.76700 0.56280 0.70290 0.14800
C 	C 	0.94620 0.72610 0.57840 -0.03900
H 	H 	0.95310 0.75360 0.57170 0.08100
C 	C 	0.68430 0.57440 0.78210 -0.15600
H 	H 	0.68550 0.60130 0.77300 0.10500
O 	O 	0.73890 0.47790 0.72640 -0.26300
C 	C 	0.94800 0.65050 0.57250 -0.13500
H 	H 	0.95890 0.62590 0.56330 0.09400
C 	C 	0.85840 0.23840 0.58060 -0.03600
H 	H 	0.87110 0.21430 0.57190 0.08400
N 	N 	0.90320 0.60400 0.59980 -0.25400
H 	H 	0.91500 0.58360 0.58970 0.13300
C 	C 	0.81550 0.26980 0.61800 -0.12000
H 	H 	0.79760 0.26780 0.63460 0.09700
C 	C 	0.65910 0.52980 0.82170 -0.06500
H 	H 	0.64200 0.52680 0.83870 0.09500
N 	N 	0.72890 0.54610 0.74630 -0.28100
H 	H 	0.73900 0.57180 0.74530 0.14400
C 	C 	0.70390 0.53820 0.76770 0.20900
O 	O 	0.92510 0.89060 0.59110 -0.39300
H 	H 	0.94760 0.87960 0.58540 0.24800
C 	C 	0.82360 0.31110 0.60450 0.15700
C 	C 	0.90340 0.68180 0.60940 -0.13000
H 	H 	0.88300 0.67800 0.62450 0.12300
C 	C 	0.69950 0.49770 0.78080 -0.15500
H 	H 	0.71000 0.47340 0.77110 0.13000
C 	C 	0.74240 0.51660 0.72320 0.31800
C 	C 	0.87160 0.59150 0.62020 0.28700
C 	C 	0.91830 0.64590 0.59340 0.16700
N 	N 	0.86600 0.54780 0.61720 -0.27600
H 	H 	0.88230 0.53360 0.60520 0.14200
C 	C 	0.69880 0.04400 0.14410 0.31700
C 	C 	0.67380 0.01740 0.12620 -0.35300
H 	H 	0.66130 0.02810 0.10880 0.17700
C 	C 	0.66760 0.97460 0.13420 0.29400
C 	C 	0.68630 0.95850 0.16020 -0.34700
H 	H 	0.68220 0.92990 0.16560 0.17900
C 	C 	0.71140 0.98520 0.17810 0.30400
C 	C 	0.71760 0.02800 0.17010 -0.35800
H 	H 	0.73430 0.04580 0.18210 0.18100
O 	O 	0.69320 0.31000 0.14470 -0.38000
N 	N 	0.69710 0.15520 0.12040 -0.24200
H 	H 	0.72080 0.16090 0.12950 0.13400
C 	C 	0.82170 0.00650 0.31020 0.01200
C 	C 	0.63590 0.22070 0.06680 -0.02600
C 	C 	0.68040 0.11090 0.12210 0.29000
O 	O 	0.65550 0.10000 0.10120 -0.24800
N 	N 	0.70670 0.08660 0.13760 -0.30200
H 	H 	0.73020 0.09790 0.14410 0.15000
Cu	Cu	0.63756 0.69856 0.16855 0.92300
Cu	Cu	0.60324 0.64926 0.12684 0.92400
O 	O 	0.61850 0.74600 0.14210 -0.39400
O 	O 	0.84740 0.85620 0.31200 -0.38900
O 	O 	0.48680 0.83920 0.03060 -0.41000
O 	O 	0.87550 0.89870 0.34830 -0.38400
O 	O 	0.58750 0.70360 0.10760 -0.39600
C 	C 	0.59670 0.73780 0.12080 0.34800
O 	O 	0.84810 0.05170 0.34710 -0.39200
O 	O 	0.65380 0.34020 0.10690 -0.36400
O 	O 	0.58930 0.24880 0.03130 -0.41500
O 	O 	0.49770 0.76760 0.03000 -0.39700
C 	C 	0.85450 0.89050 0.32600 0.32400
O 	O 	0.80350 0.08010 0.31220 -0.37700
O 	O 	0.60020 0.17960 0.03140 -0.42700
C 	C 	0.67070 0.30970 0.12200 0.30900
C 	C 	0.82440 0.05060 0.32560 0.32400
C 	C 	0.50320 0.80640 0.03950 0.34400
O 	O 	0.64790 0.88430 0.13810 -0.24500
C 	C 	0.58210 0.77840 0.10340 0.00200
C 	C 	0.60550 0.21550 0.04070 0.39200
C 	C 	0.83660 0.93060 0.30960 0.01900
C 	C 	0.66580 0.26650 0.10640 -0.00100
C 	C 	0.53620 0.80950 0.06350 -0.01600
C 	C 	0.65240 0.18480 0.07990 -0.12500
H 	H 	0.64700 0.15770 0.07180 0.11600
O 	O 	0.66510 0.74100 0.20340 -0.39700
H 	H 	0.65800 0.73230 0.22000 0.24300
N 	N 	0.73450 0.96480 0.20220 -0.29500
H 	H 	0.73300 0.93720 0.20290 0.14800
C 	C 	0.55380 0.77390 0.07840 -0.03900
H 	H 	0.54690 0.74640 0.07170 0.08100
C 	C 	0.81570 0.92560 0.28210 -0.15600
H 	H 	0.81450 0.89870 0.27300 0.10500
O 	O 	0.76110 0.02210 0.22640 -0.26300
C 	C 	0.55200 0.84950 0.07250 -0.13400
H 	H 	0.54110 0.87410 0.06330 0.09300
C 	C 	0.64160 0.26160 0.08060 -0.03600
H 	H 	0.62890 0.28570 0.07190 0.08400
N 	N 	0.59680 0.89600 0.09980 -0.25400
H 	H 	0.58500 0.91640 0.08970 0.13300
C 	C 	0.68450 0.23020 0.11800 -0.12000
H 	H 	0.70240 0.23220 0.13460 0.09700
C 	C 	0.84090 0.97020 0.32170 -0.06500
H 	H 	0.85800 0.97320 0.33870 0.09500
N 	N 	0.77110 0.95390 0.24630 -0.28100
H 	H 	0.76100 0.92820 0.24530 0.14400
C 	C 	0.79610 0.96180 0.26770 0.20900
O 	O 	0.57490 0.60940 0.09110 -0.39400
H 	H 	0.55240 0.62040 0.08540 0.24800
C 	C 	0.67640 0.18890 0.10450 0.15600
C 	C 	0.59660 0.81820 0.10940 -0.13000
H 	H 	0.61700 0.82200 0.12450 0.12300
C 	C 	0.80050 0.00230 0.28080 -0.15500
H 	H 	0.79000 0.02660 0.27110 0.13000
C 	C 	0.75760 0.98340 0.22320 0.31800
C 	C 	0.62840 0.90850 0.12020 0.28700
C 	C 	0.58170 0.85410 0.09340 0.16600
N 	N 	0.63400 0.95220 0.11720 -0.27600
H 	H 	0.61770 0.96640 0.10520 0.14200
C 	C 	0.19880 0.54400 0.64410 0.31800
C 	C 	0.17380 0.51740 0.62620 -0.35400
H 	H 	0.16130 0.52810 0.60880 0.17700
C 	C 	0.16760 0.47460 0.63420 0.29400
C 	C 	0.18630 0.45850 0.66020 -0.34700
H 	H 	0.18220 0.42990 0.66560 0.17900
C 	C 	0.21140 0.48520 0.67810 0.30500
C 	C 	0.21760 0.52800 0.67010 -0.35800
H 	H 	0.23430 0.54580 0.68210 0.18100
O 	O 	0.19320 0.81000 0.64470 -0.38000
N 	N 	0.19710 0.65520 0.62040 -0.24200
H 	H 	0.22080 0.66090 0.62950 0.13400
C 	C 	0.32170 0.50650 0.81020 0.01200
C 	C 	0.13590 0.72070 0.56680 -0.02600
C 	C 	0.18040 0.61090 0.62210 0.29000
O 	O 	0.15550 0.60000 0.60120 -0.24800
N 	N 	0.20670 0.58660 0.63760 -0.30200
H 	H 	0.23020 0.59790 0.64410 0.15000
Cu	Cu	0.13756 0.19856 0.66855 0.92300
Cu	Cu	0.10324 0.14926 0.62684 0.92400
O 	O 	0.11850 0.24600 0.64210 -0.39400
O 	O 	0.34740 0.35620 0.81200 -0.38900
O 	O 	0.98680 0.33920 0.53060 -0.40900
O 	O 	0.37550 0.39870 0.84830 -0.38400
O 	O 	0.08750 0.20360 0.60760 -0.39600
C 	C 	0.09670 0.23780 0.62080 0.34800
O 	O 	0.34810 0.55170 0.84710 -0.39100
O 	O 	0.15380 0.84020 0.60690 -0.36400
O 	O 	0.08930 0.74880 0.53130 -0.41400
O 	O 	0.99770 0.26760 0.53000 -0.39600
C 	C 	0.35450 0.39050 0.82600 0.32400
O 	O 	0.30350 0.58010 0.81220 -0.37800
O 	O 	0.10020 0.67960 0.53140 -0.42600
C 	C 	0.17070 0.80970 0.62200 0.30900
C 	C 	0.32440 0.55060 0.82560 0.32400
C 	C 	0.00320 0.30640 0.53950 0.34300
O 	O 	0.14790 0.38430 0.63810 -0.24500
C 	C 	0.08210 0.27840 0.60340 0.00200
C 	C 	0.10550 0.71550 0.54070 0.39200
C 	C 	0.33660 0.43060 0.80960 0.01900
C 	C 	0.16580 0.76650 0.60640 -0.00100
C 	C 	0.03620 0.30950 0.56350 -0.01500
C 	C 	0.15240 0.68480 0.57990 -0.12500
H 	H 	0.14700 0.65770 0.57180 0.11700
O 	O 	0.16510 0.24100 0.70340 -0.39700
H 	H 	0.15800 0.23230 0.72000 0.24300
N 	N 	0.23450 0.46480 0.70220 -0.29500
H 	H 	0.23300 0.43720 0.70290 0.14800
C 	C 	0.05380 0.27390 0.57840 -0.03900
H 	H 	0.04690 0.24640 0.57170 0.08100
C 	C 	0.31570 0.42560 0.78210 -0.15600
H 	H 	0.31450 0.39870 0.77300 0.10500
O 	O 	0.26110 0.52210 0.72640 -0.26300
C 	C 	0.05200 0.34950 0.57250 -0.13500
H 	H 	0.04110 0.37410 0.56330 0.09400
C 	C 	0.14160 0.76160 0.58060 -0.03600
H 	H 	0.12890 0.78570 0.57190 0.08400
N 	N 	0.09680 0.39600 0.59980 -0.25400
H 	H 	0.08500 0.41640 0.58970 0.13300
C 	C 	0.18450 0.73020 0.61800 -0.12000
H 	H 	0.20240 0.73220 0.63460 0.09700
C 	C 	0.34090 0.47020 0.82170 -0.06500
H 	H 	0.35800 0.47320 0.83870 0.09500
N 	N 	0.27110 0.45390 0.74630 -0.28100
H 	H 	0.26100 0.42820 0.74530 0.14400
C 	C 	0.29610 0.46180 0.76770 0.20900
O 	O 	0.07490 0.10940 0.59110 -0.39300
H 	H 	0.05240 0.12040 0.58540 0.24800
C 	C 	0.17640 0.68890 0.60450 0.15700
C 	C 	0.09660 0.31820 0.60940 -0.13000
H 	H 	0.11700 0.32200 0.62450 0.12300
C 	C 	0.30050 0.50230 0.78080 -0.15500
H 	H 	0.29000 0.52660 0.77110 0.13000
C 	C 	0.25760 0.48340 0.72320 0.31800
C 	C 	0.12840 0.40850 0.62020 0.28700
C 	C 	0.08170 0.35410 0.59340 0.16700
N 	N 	0.13400 0.45220 0.61720 -0.27600
H 	H 	0.11770 0.46640 0.60520 0.14200
C 	C 	0.04400 0.30120 0.14410 0.31700
C 	C 	0.01740 0.32620 0.12620 -0.35300
H 	H 	0.02810 0.33870 0.10880 0.17700
C 	C 	0.97460 0.33240 0.13420 0.29400
C 	C 	0.95850 0.31370 0.16020 -0.34700
H 	H 	0.92990 0.31780 0.16560 0.17900
C 	C 	0.98520 0.28860 0.17810 0.30400
C 	C 	0.02800 0.28240 0.17010 -0.35800
H 	H 	0.04580 0.26570 0.18210 0.18100
O 	O 	0.31000 0.30680 0.14470 -0.38000
N 	N 	0.15520 0.30290 0.12040 -0.24200
H 	H 	0.16090 0.27920 0.12950 0.13400
C 	C 	0.00650 0.17830 0.31020 0.01200
C 	C 	0.22070 0.36410 0.06680 -0.02600
C 	C 	0.11090 0.31960 0.12210 0.29000
O 	O 	0.10000 0.34450 0.10120 -0.24800
N 	N 	0.08660 0.29330 0.13760 -0.30200
H 	H 	0.09790 0.26980 0.14410 0.15000
Cu	Cu	0.69856 0.36244 0.16855 0.92300
Cu	Cu	0.64926 0.39676 0.12684 0.92400
O 	O 	0.74600 0.38150 0.14210 -0.39400
O 	O 	0.85620 0.15260 0.31200 -0.38900
O 	O 	0.83920 0.51320 0.03060 -0.41000
O 	O 	0.89870 0.12450 0.34830 -0.38400
O 	O 	0.70360 0.41250 0.10760 -0.39600
C 	C 	0.73780 0.40330 0.12080 0.34800
O 	O 	0.05170 0.15190 0.34710 -0.39200
O 	O 	0.34020 0.34620 0.10690 -0.36400
O 	O 	0.24880 0.41070 0.03130 -0.41500
O 	O 	0.76760 0.50230 0.03000 -0.39700
C 	C 	0.89050 0.14550 0.32600 0.32400
O 	O 	0.08010 0.19650 0.31220 -0.37700
O 	O 	0.17960 0.39980 0.03140 -0.42700
C 	C 	0.30970 0.32930 0.12200 0.30900
C 	C 	0.05060 0.17560 0.32560 0.32400
C 	C 	0.80640 0.49680 0.03950 0.34400
O 	O 	0.88430 0.35210 0.13810 -0.24500
C 	C 	0.77840 0.41790 0.10340 0.00200
C 	C 	0.21550 0.39450 0.04070 0.39200
C 	C 	0.93060 0.16340 0.30960 0.01900
C 	C 	0.26650 0.33420 0.10640 -0.00100
C 	C 	0.80950 0.46380 0.06350 -0.01600
C 	C 	0.18480 0.34760 0.07990 -0.12500
H 	H 	0.15770 0.35300 0.07180 0.11600
O 	O 	0.74100 0.33490 0.20340 -0.39700
H 	H 	0.73230 0.34200 0.22000 0.24300
N 	N 	0.96480 0.26550 0.20220 -0.29500
H 	H 	0.93720 0.26700 0.20290 0.14800
C 	C 	0.77390 0.44620 0.07840 -0.03900
H 	H 	0.74640 0.45310 0.07170 0.08100
C 	C 	0.92560 0.18430 0.28210 -0.15600
H 	H 	0.89870 0.18550 0.27300 0.10500
O 	O 	0.02210 0.23890 0.22640 -0.26300
C 	C 	0.84950 0.44800 0.07250 -0.13400
H 	H 	0.87410 0.45890 0.06330 0.09300
C 	C 	0.26160 0.35840 0.08060 -0.03600
H 	H 	0.28570 0.37110 0.07190 0.08400
N 	N 	0.89600 0.40320 0.09980 -0.25400
H 	H 	0.91640 0.41500 0.08970 0.13300
C 	C 	0.23020 0.31550 0.11800 -0.12000
H 	H 	0.23220 0.29760 0.13460 0.09700
C 	C 	0.97020 0.15910 0.32170 -0.06500
H 	H 	0.97320 0.14200 0.33870 0.09500
N 	N 	0.95390 0.22890 0.24630 -0.28100
H 	H 	0.92820 0.23900 0.24530 0.14400
C 	C 	0.96180 0.20390 0.26770 0.20900
O 	O 	0.60940 0.42510 0.09110 -0.39400
H 	H 	0.62040 0.44760 0.08540 0.24800
C 	C 	0.18890 0.32360 0.10450 0.15600
C 	C 	0.81820 0.40340 0.10940 -0.13000
H 	H 	0.82200 0.38300 0.12450 0.12300
C 	C 	0.00230 0.19950 0.28080 -0.15500
H 	H 	0.02660 0.21000 0.27110 0.13000
C 	C 	0.98340 0.24240 0.22320 0.31800
C 	C 	0.90850 0.37160 0.12020 0.28700
C 	C 	0.85410 0.41830 0.09340 0.16600
N 	N 	0.95220 0.36600 0.11720 -0.27600
H 	H 	0.96640 0.38230 0.10520 0.14200
C 	C 	0.54400 0.80120 0.64410 0.31800
C 	C 	0.51740 0.82620 0.62620 -0.35400
H 	H 	0.52810 0.83870 0.60880 0.17700
C 	C 	0.47460 0.83240 0.63420 0.29400
C 	C 	0.45850 0.81370 0.66020 -0.34700
H 	H 	0.42990 0.81780 0.66560 0.17900
C 	C 	0.48520 0.78860 0.67810 0.30500
C 	C 	0.52800 0.78240 0.67010 -0.35800
H 	H 	0.54580 0.76570 0.68210 0.18100
O 	O 	0.81000 0.80680 0.64470 -0.38000
N 	N 	0.65520 0.80290 0.62040 -0.24200
H 	H 	0.66090 0.77920 0.62950 0.13400
C 	C 	0.50650 0.67830 0.81020 0.01200
C 	C 	0.72070 0.86410 0.56680 -0.02600
C 	C 	0.61090 0.81960 0.62210 0.29000
O 	O 	0.60000 0.84450 0.60120 -0.24800
N 	N 	0.58660 0.79330 0.63760 -0.30200
H 	H 	0.59790 0.76980 0.64410 0.15000
Cu	Cu	0.19856 0.86244 0.66855 0.92300
Cu	Cu	0.14926 0.89676 0.62684 0.92400
O 	O 	0.24600 0.88150 0.64210 -0.39400
O 	O 	0.35620 0.65260 0.81200 -0.38900
O 	O 	0.33920 0.01320 0.53060 -0.40900
O 	O 	0.39870 0.62450 0.84830 -0.38400
O 	O 	0.20360 0.91250 0.60760 -0.39600
C 	C 	0.23780 0.90330 0.62080 0.34800
O 	O 	0.55170 0.65190 0.84710 -0.39100
O 	O 	0.84020 0.84620 0.60690 -0.36400
O 	O 	0.74880 0.91070 0.53130 -0.41400
O 	O 	0.26760 0.00230 0.53000 -0.39600
C 	C 	0.39050 0.64550 0.82600 0.32400
O 	O 	0.58010 0.69650 0.81220 -0.37800
O 	O 	0.67960 0.89980 0.53140 -0.42600
C 	C 	0.80970 0.82930 0.62200 0.30900
C 	C 	0.55060 0.67560 0.82560 0.32400
C 	C 	0.30640 0.99680 0.53950 0.34300
O 	O 	0.38430 0.85210 0.63810 -0.24500
C 	C 	0.27840 0.91790 0.60340 0.00200
C 	C 	0.71550 0.89450 0.54070 0.39200
C 	C 	0.43060 0.66340 0.80960 0.01900
C 	C 	0.76650 0.83420 0.60640 -0.00100
C 	C 	0.30950 0.96380 0.56350 -0.01500
C 	C 	0.68480 0.84760 0.57990 -0.12500
H 	H 	0.65770 0.85300 0.57180 0.11700
O 	O 	0.24100 0.83490 0.70340 -0.39700
H 	H 	0.23230 0.84200 0.72000 0.24300
N 	N 	0.46480 0.76550 0.70220 -0.29500
H 	H 	0.43720 0.76700 0.70290 0.14800
C 	C 	0.27390 0.94620 0.57840 -0.03900
H 	H 	0.24640 0.95310 0.57170 0.08100
C 	C 	0.42560 0.68430 0.78210 -0.15600
H 	H 	0.39870 0.68550 0.77300 0.10500
O 	O 	0.52210 0.73890 0.72640 -0.26300
C 	C 	0.34950 0.94800 0.57250 -0.13500
H 	H 	0.37410 0.95890 0.56330 0.09400
C 	C 	0.76160 0.85840 0.58060 -0.03600
H 	H 	0.78570 0.87110 0.57190 0.08400
N 	N 	0.39600 0.90320 0.59980 -0.25400
H 	H 	0.41640 0.91500 0.58970 0.13300
C 	C 	0.73020 0.81550 0.61800 -0.12000
H 	H 	0.73220 0.79760 0.63460 0.09700
C 	C 	0.47020 0.65910 0.82170 -0.06500
H 	H 	0.47320 0.64200 0.83870 0.09500
N 	N 	0.45390 0.72890 0.74630 -0.28100
H 	H 	0.42820 0.73900 0.74530 0.14400
C 	C 	0.46180 0.70390 0.76770 0.20900
O 	O 	0.10940 0.92510 0.59110 -0.39300
H 	H 	0.12040 0.94760 0.58540 0.24800
C 	C 	0.68890 0.82360 0.60450 0.15700
C 	C 	0.31820 0.90340 0.60940 -0.13000
H 	H 	0.32200 0.88300 0.62450 0.12300
C 	C 	0.50230 0.69950 0.78080 -0.15500
H 	H 	0.52660 0.71000 0.77110 0.13000
C 	C 	0.48340 0.74240 0.72320 0.31800
C 	C 	0.40850 0.87160 0.62020 0.28700
C 	C 	0.35410 0.91830 0.59340 0.16700
N 	N 	0.45220 0.86600 0.61720 -0.27600
H 	H 	0.46640 0.88230 0.60520 0.14200
C 	C 	0.95600 0.69880 0.14410 0.31700
C 	C 	0.98260 0.67380 0.12620 -0.35300
H 	H 	0.97190 0.66130 0.10880 0.17700
C 	C 	0.02540 0.66760 0.13420 0.29400
C 	C 	0.04150 0.68630 0.16020 -0.34700
H 	H 	0.07010 0.68220 0.16560 0.17900
C 	C 	0.01480 0.71140 0.17810 0.30400
C 	C 	0.97200 0.71760 0.17010 -0.35800
H 	H 	0.95420 0.73430 0.18210 0.18100
O 	O 	0.69000 0.69320 0.14470 -0.38000
N 	N 	0.84480 0.69710 0.12040 -0.24200
H 	H 	0.83910 0.72080 0.12950 0.13400
C 	C 	0.99350 0.82170 0.31020 0.01200
C 	C 	0.77930 0.63590 0.06680 -0.02600
C 	C 	0.88910 0.68040 0.12210 0.29000
O 	O 	0.90000 0.65550 0.10120 -0.24800
N 	N 	0.91340 0.70670 0.13760 -0.30200
H 	H 	0.90210 0.73020 0.14410 0.15000
Cu	Cu	0.30144 0.63756 0.16855 0.92300
Cu	Cu	0.35074 0.60324 0.12684 0.92400
O 	O 	0.25400 0.61850 0.14210 -0.39400
O 	O 	0.14380 0.84740 0.31200 -0.38900
O 	O 	0.16080 0.48680 0.03060 -0.41000
O 	O 	0.10130 0.87550 0.34830 -0.38400
O 	O 	0.29640 0.58750 0.10760 -0.39600
C 	C 	0.26220 0.59670 0.12080 0.34800
O 	O 	0.94830 0.84810 0.34710 -0.39200
O 	O 	0.65980 0.65380 0.10690 -0.36400
O 	O 	0.75120 0.58930 0.03130 -0.41500
O 	O 	0.23240 0.49770 0.03000 -0.39700
C 	C 	0.10950 0.85450 0.32600 0.32400
O 	O 	0.91990 0.80350 0.31220 -0.37700
O 	O 	0.82040 0.60020 0.03140 -0.42700
C 	C 	0.69030 0.67070 0.12200 0.30900
C 	C 	0.94940 0.82440 0.32560 0.32400
C 	C 	0.19360 0.50320 0.03950 0.34400
O 	O 	0.11570 0.64790 0.13810 -0.24500
C 	C 	0.22160 0.58210 0.10340 0.00200
C 	C 	0.78450 0.60550 0.04070 0.39200
C 	C 	0.06940 0.83660 0.30960 0.01900
C 	C 	0.73350 0.66580 0.10640 -0.00100
C 	C 	0.19050 0.53620 0.06350 -0.01600
C 	C 	0.81520 0.65240 0.07990 -0.12500
H 	H 	0.84230 0.64700 0.07180 0.11600
O 	O 	0.25900 0.66510 0.20340 -0.39700
H 	H 	0.26770 0.65800 0.22000 0.24300
N 	N 	0.03520 0.73450 0.20220 -0.29500
H 	H 	0.06280 0.73300 0.20290 0.14800
C 	C 	0.22610 0.55380 0.07840 -0.03900
H 	H 	0.25360 0.54690 0.07170 0.08100
C 	C 	0.07440 0.81570 0.28210 -0.15600
H 	H 	0.10130 0.81450 0.27300 0.10500
O 	O 	0.97790 0.76110 0.22640 -0.26300
C 	C 	0.15050 0.55200 0.07250 -0.13400
H 	H 	0.12590 0.54110 0.06330 0.09300
C 	C 	0.73840 0.64160 0.08060 -0.03600
H 	H 	0.71430 0.62890 0.07190 0.08400
N 	N 	0.10400 0.59680 0.09980 -0.25400
H 	H 	0.08360 0.58500 0.08970 0.13300
C 	C 	0.76980 0.68450 0.11800 -0.12000
H 	H 	0.76780 0.70240 0.13460 0.09700
C 	C 	0.02980 0.84090 0.32170 -0.06500
H 	H 	0.02680 0.85800 0.33870 0.09500
N 	N 	0.04610 0.77110 0.24630 -0.28100
H 	H 	0.07180 0.76100 0.24530 0.14400
C 	C 	0.03820 0.79610 0.26770 0.20900
O 	O 	0.39060 0.57490 0.09110 -0.39400
H 	H 	0.37960 0.55240 0.08540 0.24800
C 	C 	0.81110 0.67640 0.10450 0.15600
C 	C 	0.18180 0.59660 0.10940 -0.13000
H 	H 	0.17800 0.61700 0.12450 0.12300
C 	C 	0.99770 0.80050 0.28080 -0.15500
H 	H 	0.97340 0.79000 0.27110 0.13000
C 	C 	0.01660 0.75760 0.22320 0.31800
C 	C 	0.09150 0.62840 0.12020 0.28700
C 	C 	0.14590 0.58170 0.09340 0.16600
N 	N 	0.04780 0.63400 0.11720 -0.27600
H 	H 	0.03360 0.61770 0.10520 0.14200
C 	C 	0.45600 0.19880 0.64410 0.31800
C 	C 	0.48260 0.17380 0.62620 -0.35400
H 	H 	0.47190 0.16130 0.60880 0.17700
C 	C 	0.52540 0.16760 0.63420 0.29400
C 	C 	0.54150 0.18630 0.66020 -0.34700
H 	H 	0.57010 0.18220 0.66560 0.17900
C 	C 	0.51480 0.21140 0.67810 0.30500
C 	C 	0.47200 0.21760 0.67010 -0.35800
H 	H 	0.45420 0.23430 0.68210 0.18100
O 	O 	0.19000 0.19320 0.64470 -0.38000
N 	N 	0.34480 0.19710 0.62040 -0.24200
H 	H 	0.33910 0.22080 0.62950 0.13400
C 	C 	0.49350 0.32170 0.81020 0.01200
C 	C 	0.27930 0.13590 0.56680 -0.02600
C 	C 	0.38910 0.18040 0.62210 0.29000
O 	O 	0.40000 0.15550 0.60120 -0.24800
N 	N 	0.41340 0.20670 0.63760 -0.30200
H 	H 	0.40210 0.23020 0.64410 0.15000
Cu	Cu	0.80144 0.13756 0.66855 0.92300
Cu	Cu	0.85074 0.10324 0.62684 0.92400
O 	O 	0.75400 0.11850 0.64210 -0.39400
O 	O 	0.64380 0.34740 0.81200 -0.38900
O 	O 	0.66080 0.98680 0.53060 -0.40900
O 	O 	0.60130 0.37550 0.84830 -0.38400
O 	O 	0.79640 0.08750 0.60760 -0.39600
C 	C 	0.76220 0.09670 0.62080 0.34800
O 	O 	0.44830 0.34810 0.84710 -0.39100
O 	O 	0.15980 0.15380 0.60690 -0.36400
O 	O 	0.25120 0.08930 0.53130 -0.41400
O 	O 	0.73240 0.99770 0.53000 -0.39600
C 	C 	0.60950 0.35450 0.82600 0.32400
O 	O 	0.41990 0.30350 0.81220 -0.37800
O 	O 	0.32040 0.10020 0.53140 -0.42600
C 	C 	0.19030 0.17070 0.62200 0.30900
C 	C 	0.44940 0.32440 0.82560 0.32400
C 	C 	0.69360 0.00320 0.53950 0.34300
O 	O 	0.61570 0.14790 0.63810 -0.24500
C 	C 	0.72160 0.08210 0.60340 0.00200
C 	C 	0.28450 0.10550 0.54070 0.39200
C 	C 	0.56940 0.33660 0.80960 0.01900
C 	C 	0.23350 0.16580 0.60640 -0.00100
C 	C 	0.69050 0.03620 0.56350 -0.01500
C 	C 	0.31520 0.15240 0.57990 -0.12500
H 	H 	0.34230 0.14700 0.57180 0.11700
O 	O 	0.75900 0.16510 0.70340 -0.39700
H 	H 	0.76770 0.15800 0.72000 0.24300
N 	N 	0.53520 0.23450 0.70220 -0.29500
H 	H 	0.56280 0.23300 0.70290 0.14800
C 	C 	0.72610 0.05380 0.57840 -0.03900
H 	H 	0.75360 0.04690 0.57170 0.08100
C 	C 	0.57440 0.31570 0.78210 -0.15600
H 	H 	0.60130 0.31450 0.77300 0.10500
O 	O 	0.47790 0.26110 0.72640 -0.26300
C 	C 	0.65050 0.05200 0.57250 -0.13500
H 	H 	0.62590 0.04110 0.56330 0.09400
C 	C 	0.23840 0.14160 0.58060 -0.03600
H 	H 	0.21430 0.12890 0.57190 0.08400
N 	N 	0.60400 0.09680 0.59980 -0.25400
H 	H 	0.58360 0.08500 0.58970 0.13300
C 	C 	0.26980 0.18450 0.61800 -0.12000
H 	H 	0.26780 0.20240 0.63460 0.09700
C 	C 	0.52980 0.34090 0.82170 -0.06500
H 	H 	0.52680 0.35800 0.83870 0.09500
N 	N 	0.54610 0.27110 0.74630 -0.28100
H 	H 	0.57180 0.26100 0.74530 0.14400
C 	C 	0.53820 0.29610 0.76770 0.20900
O 	O 	0.89060 0.07490 0.59110 -0.39300
H 	H 	0.87960 0.05240 0.58540 0.24800
C 	C 	0.31110 0.17640 0.60450 0.15700
C 	C 	0.68180 0.09660 0.60940 -0.13000
H 	H 	0.67800 0.11700 0.62450 0.12300
C 	C 	0.49770 0.30050 0.78080 -0.15500
H 	H 	0.47340 0.29000 0.77110 0.13000
C 	C 	0.51660 0.25760 0.72320 0.31800
C 	C 	0.59150 0.12840 0.62020 0.28700
C 	C 	0.64590 0.08170 0.59340 0.16700
N 	N 	0.54780 0.13400 0.61720 -0.27600
H 	H 	0.53360 0.11770 0.60520 0.14200
C 	C 	0.69880 0.04400 0.85590 0.31800
C 	C 	0.67380 0.01740 0.87380 -0.35400
H 	H 	0.66130 0.02810 0.89120 0.17700
C 	C 	0.66760 0.97460 0.86580 0.29400
C 	C 	0.68630 0.95850 0.83980 -0.34700
H 	H 	0.68220 0.92990 0.83440 0.17900
C 	C 	0.71140 0.98520 0.82190 0.30500
C 	C 	0.71760 0.02800 0.82990 -0.35800
H 	H 	0.73430 0.04580 0.81790 0.18100
O 	O 	0.69320 0.31000 0.85530 -0.38000
N 	N 	0.69710 0.15520 0.87960 -0.24300
H 	H 	0.72080 0.16090 0.87050 0.13400
C 	C 	0.82170 0.00650 0.68980 0.01200
C 	C 	0.63590 0.22070 0.93320 -0.02500
C 	C 	0.68040 0.11090 0.87790 0.29000
O 	O 	0.65550 0.10000 0.89880 -0.24800
N 	N 	0.70670 0.08660 0.86240 -0.30200
H 	H 	0.73020 0.09790 0.85590 0.15000
Cu	Cu	0.63756 0.69856 0.83145 0.92300
Cu	Cu	0.60324 0.64926 0.87316 0.92400
O 	O 	0.61850 0.74600 0.85790 -0.39400
O 	O 	0.84740 0.85620 0.68800 -0.38900
O 	O 	0.48680 0.83920 0.96940 -0.40700
O 	O 	0.87550 0.89870 0.65170 -0.38400
O 	O 	0.58750 0.70360 0.89240 -0.39600
C 	C 	0.59670 0.73780 0.87920 0.34700
O 	O 	0.84810 0.05170 0.65290 -0.39200
O 	O 	0.65380 0.34020 0.89310 -0.36400
O 	O 	0.58930 0.24880 0.96870 -0.41100
O 	O 	0.49770 0.76760 0.97000 -0.39400
C 	C 	0.85450 0.89050 0.67400 0.32400
O 	O 	0.80350 0.08010 0.68780 -0.37700
O 	O 	0.60020 0.17960 0.96860 -0.42400
C 	C 	0.67070 0.30970 0.87800 0.30900
C 	C 	0.82440 0.05060 0.67440 0.32400
C 	C 	0.50320 0.80640 0.96050 0.34300
O 	O 	0.64790 0.88430 0.86190 -0.24500
C 	C 	0.58210 0.77840 0.89660 0.00300
C 	C 	0.60550 0.21550 0.95930 0.39100
C 	C 	0.83660 0.93060 0.69040 0.01900
C 	C 	0.66580 0.26650 0.89360 -0.00000
C 	C 	0.53620 0.80950 0.93650 -0.01400
C 	C 	0.65240 0.18480 0.92010 -0.12600
H 	H 	0.64700 0.15770 0.92820 0.11700
O 	O 	0.66510 0.74100 0.79660 -0.39700
H 	H 	0.65800 0.73230 0.78000 0.24300
N 	N 	0.73450 0.96480 0.79780 -0.29500
H 	H 	0.73300 0.93720 0.79710 0.14800
C 	C 	0.55380 0.77390 0.92160 -0.04000
H 	H 	0.54690 0.74640 0.92830 0.08100
C 	C 	0.81570 0.92560 0.71790 -0.15600
H 	H 	0.81450 0.89870 0.72700 0.10500
O 	O 	0.76110 0.02210 0.77360 -0.26300
C 	C 	0.55200 0.84950 0.92750 -0.13500
H 	H 	0.54110 0.87410 0.93670 0.09400
C 	C 	0.64160 0.26160 0.91940 -0.03600
H 	H 	0.62890 0.28570 0.92810 0.08500
N 	N 	0.59680 0.89600 0.90020 -0.25400
H 	H 	0.58500 0.91640 0.91030 0.13400
C 	C 	0.68450 0.23020 0.88200 -0.12100
H 	H 	0.70240 0.23220 0.86540 0.09700
C 	C 	0.84090 0.97020 0.67830 -0.06500
H 	H 	0.85800 0.97320 0.66130 0.09500
N 	N 	0.77110 0.95390 0.75370 -0.28100
H 	H 	0.76100 0.92820 0.75470 0.14400
C 	C 	0.79610 0.96180 0.73230 0.20900
O 	O 	0.57490 0.60940 0.90890 -0.39300
H 	H 	0.55240 0.62040 0.91460 0.24800
C 	C 	0.67640 0.18890 0.89550 0.15700
C 	C 	0.59660 0.81820 0.89060 -0.13000
H 	H 	0.61700 0.82200 0.87550 0.12300
C 	C 	0.80050 0.00230 0.71920 -0.15500
H 	H 	0.79000 0.02660 0.72890 0.13000
C 	C 	0.75760 0.98340 0.77680 0.31800
C 	C 	0.62840 0.90850 0.87980 0.28700
C 	C 	0.58170 0.85410 0.90660 0.16700
N 	N 	0.63400 0.95220 0.88280 -0.27600
H 	H 	0.61770 0.96640 0.89480 0.14200
C 	C 	0.19880 0.54400 0.35590 0.31800
C 	C 	0.17380 0.51740 0.37380 -0.35400
H 	H 	0.16130 0.52810 0.39120 0.17700
C 	C 	0.16760 0.47460 0.36580 0.29400
C 	C 	0.18630 0.45850 0.33980 -0.34700
H 	H 	0.18220 0.42990 0.33440 0.17900
C 	C 	0.21140 0.48520 0.32190 0.30500
C 	C 	0.21760 0.52800 0.32990 -0.35800
H 	H 	0.23430 0.54580 0.31790 0.18100
O 	O 	0.19320 0.81000 0.35530 -0.38000
N 	N 	0.19710 0.65520 0.37960 -0.24200
H 	H 	0.22080 0.66090 0.37050 0.13400
C 	C 	0.32170 0.50650 0.18980 0.01200
C 	C 	0.13590 0.72070 0.43320 -0.02600
C 	C 	0.18040 0.61090 0.37790 0.29000
O 	O 	0.15550 0.60000 0.39880 -0.24800
N 	N 	0.20670 0.58660 0.36240 -0.30200
H 	H 	0.23020 0.59790 0.35590 0.15000
Cu	Cu	0.13756 0.19856 0.33145 0.92300
Cu	Cu	0.10324 0.14926 0.37316 0.92400
O 	O 	0.11850 0.24600 0.35790 -0.39400
O 	O 	0.34740 0.35620 0.18800 -0.38900
O 	O 	0.98680 0.33920 0.46940 -0.40900
O 	O 	0.37550 0.39870 0.15170 -0.38400
O 	O 	0.08750 0.20360 0.39240 -0.39600
C 	C 	0.09670 0.23780 0.37920 0.34800
O 	O 	0.34810 0.55170 0.15290 -0.39200
O 	O 	0.15380 0.84020 0.39310 -0.36400
O 	O 	0.08930 0.74880 0.46870 -0.41400
O 	O 	0.99770 0.26760 0.47000 -0.39600
C 	C 	0.35450 0.39050 0.17400 0.32400
O 	O 	0.30350 0.58010 0.18780 -0.37700
O 	O 	0.10020 0.67960 0.46860 -0.42600
C 	C 	0.17070 0.80970 0.37800 0.30900
C 	C 	0.32440 0.55060 0.17440 0.32400
C 	C 	0.00320 0.30640 0.46050 0.34300
O 	O 	0.14790 0.38430 0.36190 -0.24500
C 	C 	0.08210 0.27840 0.39660 0.00200
C 	C 	0.10550 0.71550 0.45930 0.39200
C 	C 	0.33660 0.43060 0.19040 0.01900
C 	C 	0.16580 0.76650 0.39360 -0.00100
C 	C 	0.03620 0.30950 0.43650 -0.01500
C 	C 	0.15240 0.68480 0.42010 -0.12500
H 	H 	0.14700 0.65770 0.42820 0.11700
O 	O 	0.16510 0.24100 0.29660 -0.39700
H 	H 	0.15800 0.23230 0.28000 0.24300
N 	N 	0.23450 0.46480 0.29780 -0.29500
H 	H 	0.23300 0.43720 0.29710 0.14800
C 	C 	0.05380 0.27390 0.42160 -0.03900
H 	H 	0.04690 0.24640 0.42830 0.08100
C 	C 	0.31570 0.42560 0.21790 -0.15600
H 	H 	0.31450 0.39870 0.22700 0.10500
O 	O 	0.26110 0.52210 0.27360 -0.26300
C 	C 	0.05200 0.34950 0.42750 -0.13500
H 	H 	0.04110 0.37410 0.43670 0.09400
C 	C 	0.14160 0.76160 0.41940 -0.03600
H 	H 	0.12890 0.78570 0.42810 0.08400
N 	N 	0.09680 0.39600 0.40020 -0.25400
H 	H 	0.08500 0.41640 0.41030 0.13300
C 	C 	0.18450 0.73020 0.38200 -0.12000
H 	H 	0.20240 0.73220 0.36540 0.09700
C 	C 	0.34090 0.47020 0.17830 -0.06500
H 	H 	0.35800 0.47320 0.16130 0.09500
N 	N 	0.27110 0.45390 0.25370 -0.28100
H 	H 	0.26100 0.42820 0.25470 0.14400
C 	C 	0.29610 0.46180 0.23230 0.20900
O 	O 	0.07490 0.10940 0.40890 -0.39300
H 	H 	0.05240 0.12040 0.41460 0.24800
C 	C 	0.17640 0.68890 0.39550 0.15700
C 	C 	0.09660 0.31820 0.39060 -0.13000
H 	H 	0.11700 0.32200 0.37550 0.12300
C 	C 	0.30050 0.50230 0.21920 -0.15500
H 	H 	0.29000 0.52660 0.22890 0.13000
C 	C 	0.25760 0.48340 0.27680 0.31800
C 	C 	0.12840 0.40850 0.37980 0.28700
C 	C 	0.08170 0.35410 0.40660 0.16700
N 	N 	0.13400 0.45220 0.38280 -0.27600
H 	H 	0.11770 0.46640 0.39480 0.14200
C 	C 	0.30120 0.95600 0.85590 0.31800
C 	C 	0.32620 0.98260 0.87380 -0.35400
H 	H 	0.33870 0.97190 0.89120 0.17700
C 	C 	0.33240 0.02540 0.86580 0.29400
C 	C 	0.31370 0.04150 0.83980 -0.34700
H 	H 	0.31780 0.07010 0.83440 0.17900
C 	C 	0.28860 0.01480 0.82190 0.30500
C 	C 	0.28240 0.97200 0.82990 -0.35800
H 	H 	0.26570 0.95420 0.81790 0.18100
O 	O 	0.30680 0.69000 0.85530 -0.38000
N 	N 	0.30290 0.84480 0.87960 -0.24300
H 	H 	0.27920 0.83910 0.87050 0.13400
C 	C 	0.17830 0.99350 0.68980 0.01200
C 	C 	0.36410 0.77930 0.93320 -0.02500
C 	C 	0.31960 0.88910 0.87790 0.29000
O 	O 	0.34450 0.90000 0.89880 -0.24800
N 	N 	0.29330 0.91340 0.86240 -0.30200
H 	H 	0.26980 0.90210 0.85590 0.15000
Cu	Cu	0.36244 0.30144 0.83145 0.92300
Cu	Cu	0.39676 0.35074 0.87316 0.92400
O 	O 	0.38150 0.25400 0.85790 -0.39400
O 	O 	0.15260 0.14380 0.68800 -0.38900
O 	O 	0.51320 0.16080 0.96940 -0.40700
O 	O 	0.12450 0.10130 0.65170 -0.38400
O 	O 	0.41250 0.29640 0.89240 -0.39600
C 	C 	0.40330 0.26220 0.87920 0.34700
O 	O 	0.15190 0.94830 0.65290 -0.39200
O 	O 	0.34620 0.65980 0.89310 -0.36400
O 	O 	0.41070 0.75120 0.96870 -0.41100
O 	O 	0.50230 0.23240 0.97000 -0.39400
C 	C 	0.14550 0.10950 0.67400 0.32400
O 	O 	0.19650 0.91990 0.68780 -0.37700
O 	O 	0.39980 0.82040 0.96860 -0.42400
C 	C 	0.32930 0.69030 0.87800 0.30900
C 	C 	0.17560 0.94940 0.67440 0.32400
C 	C 	0.49680 0.19360 0.96050 0.34300
O 	O 	0.35210 0.11570 0.86190 -0.24500
C 	C 	0.41790 0.22160 0.89660 0.00300
C 	C 	0.39450 0.78450 0.95930 0.39100
C 	C 	0.16340 0.06940 0.69040 0.01900
C 	C 	0.33420 0.73350 0.89360 -0.00000
C 	C 	0.46380 0.19050 0.93650 -0.01400
C 	C 	0.34760 0.81520 0.92010 -0.12600
H 	H 	0.35300 0.84230 0.92820 0.11700
O 	O 	0.33490 0.25900 0.79660 -0.39700
H 	H 	0.34200 0.26770 0.78000 0.24300
N 	N 	0.26550 0.03520 0.79780 -0.29500
H 	H 	0.26700 0.06280 0.79710 0.14800
C 	C 	0.44620 0.22610 0.92160 -0.04000
H 	H 	0.45310 0.25360 0.92830 0.08100
C 	C 	0.18430 0.07440 0.71790 -0.15600
H 	H 	0.18550 0.10130 0.72700 0.10500
O 	O 	0.23890 0.97790 0.77360 -0.26300
C 	C 	0.44800 0.15050 0.92750 -0.13500
H 	H 	0.45890 0.12590 0.93670 0.09400
C 	C 	0.35840 0.73840 0.91940 -0.03600
H 	H 	0.37110 0.71430 0.92810 0.08500
N 	N 	0.40320 0.10400 0.90020 -0.25400
H 	H 	0.41500 0.08360 0.91030 0.13400
C 	C 	0.31550 0.76980 0.88200 -0.12100
H 	H 	0.29760 0.76780 0.86540 0.09700
C 	C 	0.15910 0.02980 0.67830 -0.06500
H 	H 	0.14200 0.02680 0.66130 0.09500
N 	N 	0.22890 0.04610 0.75370 -0.28100
H 	H 	0.23900 0.07180 0.75470 0.14400
C 	C 	0.20390 0.03820 0.73230 0.20900
O 	O 	0.42510 0.39060 0.90890 -0.39300
H 	H 	0.44760 0.37960 0.91460 0.24800
C 	C 	0.32360 0.81110 0.89550 0.15700
C 	C 	0.40340 0.18180 0.89060 -0.13000
H 	H 	0.38300 0.17800 0.87550 0.12300
C 	C 	0.19950 0.99770 0.71920 -0.15500
H 	H 	0.21000 0.97340 0.72890 0.13000
C 	C 	0.24240 0.01660 0.77680 0.31800
C 	C 	0.37160 0.09150 0.87980 0.28700
C 	C 	0.41830 0.14590 0.90660 0.16700
N 	N 	0.36600 0.04780 0.88280 -0.27600
H 	H 	0.38230 0.03360 0.89480 0.14200
C 	C 	0.80120 0.45600 0.35590 0.31800
C 	C 	0.82620 0.48260 0.37380 -0.35400
H 	H 	0.83870 0.47190 0.39120 0.17700
C 	C 	0.83240 0.52540 0.36580 0.29400
C 	C 	0.81370 0.54150 0.33980 -0.34700
H 	H 	0.81780 0.57010 0.33440 0.17900
C 	C 	0.78860 0.51480 0.32190 0.30500
C 	C 	0.78240 0.47200 0.32990 -0.35800
H 	H 	0.76570 0.45420 0.31790 0.18100
O 	O 	0.80680 0.19000 0.35530 -0.38000
N 	N 	0.80290 0.34480 0.37960 -0.24200
H 	H 	0.77920 0.33910 0.37050 0.13400
C 	C 	0.67830 0.49350 0.18980 0.01200
C 	C 	0.86410 0.27930 0.43320 -0.02600
C 	C 	0.81960 0.38910 0.37790 0.29000
O 	O 	0.84450 0.40000 0.39880 -0.24800
N 	N 	0.79330 0.41340 0.36240 -0.30200
H 	H 	0.76980 0.40210 0.35590 0.15000
Cu	Cu	0.86244 0.80144 0.33145 0.92300
Cu	Cu	0.89676 0.85074 0.37316 0.92400
O 	O 	0.88150 0.75400 0.35790 -0.39400
O 	O 	0.65260 0.64380 0.18800 -0.38900
O 	O 	0.01320 0.66080 0.46940 -0.40900
O 	O 	0.62450 0.60130 0.15170 -0.38400
O 	O 	0.91250 0.79640 0.39240 -0.39600
C 	C 	0.90330 0.76220 0.37920 0.34800
O 	O 	0.65190 0.44830 0.15290 -0.39200
O 	O 	0.84620 0.15980 0.39310 -0.36400
O 	O 	0.91070 0.25120 0.46870 -0.41400
O 	O 	0.00230 0.73240 0.47000 -0.39600
C 	C 	0.64550 0.60950 0.17400 0.32400
O 	O 	0.69650 0.41990 0.18780 -0.37700
O 	O 	0.89980 0.32040 0.46860 -0.42600
C 	C 	0.82930 0.19030 0.37800 0.30900
C 	C 	0.67560 0.44940 0.17440 0.32400
C 	C 	0.99680 0.69360 0.46050 0.34300
O 	O 	0.85210 0.61570 0.36190 -0.24500
C 	C 	0.91790 0.72160 0.39660 0.00200
C 	C 	0.89450 0.28450 0.45930 0.39200
C 	C 	0.66340 0.56940 0.19040 0.01900
C 	C 	0.83420 0.23350 0.39360 -0.00100
C 	C 	0.96380 0.69050 0.43650 -0.01500
C 	C 	0.84760 0.31520 0.42010 -0.12500
H 	H 	0.85300 0.34230 0.42820 0.11700
O 	O 	0.83490 0.75900 0.29660 -0.39700
H 	H 	0.84200 0.76770 0.28000 0.24300
N 	N 	0.76550 0.53520 0.29780 -0.29500
H 	H 	0.76700 0.56280 0.29710 0.14800
C 	C 	0.94620 0.72610 0.42160 -0.03900
H 	H 	0.95310 0.75360 0.42830 0.08100
C 	C 	0.68430 0.57440 0.21790 -0.15600
H 	H 	0.68550 0.60130 0.22700 0.10500
O 	O 	0.73890 0.47790 0.27360 -0.26300
C 	C 	0.94800 0.65050 0.42750 -0.13500
H 	H 	0.95890 0.62590 0.43670 0.09400
C 	C 	0.85840 0.23840 0.41940 -0.03600
H 	H 	0.87110 0.21430 0.42810 0.08400
N 	N 	0.90320 0.60400 0.40020 -0.25400
H 	H 	0.91500 0.58360 0.41030 0.13300
C 	C 	0.81550 0.26980 0.38200 -0.12000
H 	H 	0.79760 0.26780 0.36540 0.09700
C 	C 	0.65910 0.52980 0.17830 -0.06500
H 	H 	0.64200 0.52680 0.16130 0.09500
N 	N 	0.72890 0.54610 0.25370 -0.28100
H 	H 	0.73900 0.57180 0.25470 0.14400
C 	C 	0.70390 0.53820 0.23230 0.20900
O 	O 	0.92510 0.89060 0.40890 -0.39300
H 	H 	0.94760 0.87960 0.41460 0.24800
C 	C 	0.82360 0.31110 0.39550 0.15700
C 	C 	0.90340 0.68180 0.39060 -0.13000
H 	H 	0.88300 0.67800 0.37550 0.12300
C 	C 	0.69950 0.49770 0.21920 -0.15500
H 	H 	0.71000 0.47340 0.22890 0.13000
C 	C 	0.74240 0.51660 0.27680 0.31800
C 	C 	0.87160 0.59150 0.37980 0.28700
C 	C 	0.91830 0.64590 0.40660 0.16700
N 	N 	0.86600 0.54780 0.38280 -0.27600
H 	H 	0.88230 0.53360 0.39480 0.14200
C 	C 	0.95600 0.69880 0.85590 0.31800
C 	C 	0.98260 0.67380 0.87380 -0.35400
H 	H 	0.97190 0.66130 0.89120 0.17700
C 	C 	0.02540 0.66760 0.86580 0.29400
C 	C 	0.04150 0.68630 0.83980 -0.34700
H 	H 	0.07010 0.68220 0.83440 0.17900
C 	C 	0.01480 0.71140 0.82190 0.30500
C 	C 	0.97200 0.71760 0.82990 -0.35800
H 	H 	0.95420 0.73430 0.81790 0.18100
O 	O 	0.69000 0.69320 0.85530 -0.38000
N 	N 	0.84480 0.69710 0.87960 -0.24300
H 	H 	0.83910 0.72080 0.87050 0.13400
C 	C 	0.99350 0.82170 0.68980 0.01200
C 	C 	0.77930 0.63590 0.93320 -0.02500
C 	C 	0.88910 0.68040 0.87790 0.29000
O 	O 	0.90000 0.65550 0.89880 -0.24800
N 	N 	0.91340 0.70670 0.86240 -0.30200
H 	H 	0.90210 0.73020 0.85590 0.15000
Cu	Cu	0.30144 0.63756 0.83145 0.92300
Cu	Cu	0.35074 0.60324 0.87316 0.92400
O 	O 	0.25400 0.61850 0.85790 -0.39400
O 	O 	0.14380 0.84740 0.68800 -0.38900
O 	O 	0.16080 0.48680 0.96940 -0.40700
O 	O 	0.10130 0.87550 0.65170 -0.38400
O 	O 	0.29640 0.58750 0.89240 -0.39600
C 	C 	0.26220 0.59670 0.87920 0.34700
O 	O 	0.94830 0.84810 0.65290 -0.39200
O 	O 	0.65980 0.65380 0.89310 -0.36400
O 	O 	0.75120 0.58930 0.96870 -0.41100
O 	O 	0.23240 0.49770 0.97000 -0.39400
C 	C 	0.10950 0.85450 0.67400 0.32400
O 	O 	0.91990 0.80350 0.68780 -0.37700
O 	O 	0.82040 0.60020 0.96860 -0.42400
C 	C 	0.69030 0.67070 0.87800 0.30900
C 	C 	0.94940 0.82440 0.67440 0.32400
C 	C 	0.19360 0.50320 0.96050 0.34300
O 	O 	0.11570 0.64790 0.86190 -0.24500
C 	C 	0.22160 0.58210 0.89660 0.00300
C 	C 	0.78450 0.60550 0.95930 0.39100
C 	C 	0.06940 0.83660 0.69040 0.01900
C 	C 	0.73350 0.66580 0.89360 -0.00000
C 	C 	0.19050 0.53620 0.93650 -0.01400
C 	C 	0.81520 0.65240 0.92010 -0.12600
H 	H 	0.84230 0.64700 0.92820 0.11700
O 	O 	0.25900 0.66510 0.79660 -0.39700
H 	H 	0.26770 0.65800 0.78000 0.24300
N 	N 	0.03520 0.73450 0.79780 -0.29500
H 	H 	0.06280 0.73300 0.79710 0.14800
C 	C 	0.22610 0.55380 0.92160 -0.04000
H 	H 	0.25360 0.54690 0.92830 0.08100
C 	C 	0.07440 0.81570 0.71790 -0.15600
H 	H 	0.10130 0.81450 0.72700 0.10500
O 	O 	0.97790 0.76110 0.77360 -0.26300
C 	C 	0.15050 0.55200 0.92750 -0.13500
H 	H 	0.12590 0.54110 0.93670 0.09400
C 	C 	0.73840 0.64160 0.91940 -0.03600
H 	H 	0.71430 0.62890 0.92810 0.08500
N 	N 	0.10400 0.59680 0.90020 -0.25400
H 	H 	0.08360 0.58500 0.91030 0.13400
C 	C 	0.76980 0.68450 0.88200 -0.12100
H 	H 	0.76780 0.70240 0.86540 0.09700
C 	C 	0.02980 0.84090 0.67830 -0.06500
H 	H 	0.02680 0.85800 0.66130 0.09500
N 	N 	0.04610 0.77110 0.75370 -0.28100
H 	H 	0.07180 0.76100 0.75470 0.14400
C 	C 	0.03820 0.79610 0.73230 0.20900
O 	O 	0.39060 0.57490 0.90890 -0.39300
H 	H 	0.37960 0.55240 0.91460 0.24800
C 	C 	0.81110 0.67640 0.89550 0.15700
C 	C 	0.18180 0.59660 0.89060 -0.13000
H 	H 	0.17800 0.61700 0.87550 0.12300
C 	C 	0.99770 0.80050 0.71920 -0.15500
H 	H 	0.97340 0.79000 0.72890 0.13000
C 	C 	0.01660 0.75760 0.77680 0.31800
C 	C 	0.09150 0.62840 0.87980 0.28700
C 	C 	0.14590 0.58170 0.90660 0.16700
N 	N 	0.04780 0.63400 0.88280 -0.27600
H 	H 	0.03360 0.61770 0.89480 0.14200
C 	C 	0.45600 0.19880 0.35590 0.31800
C 	C 	0.48260 0.17380 0.37380 -0.35400
H 	H 	0.47190 0.16130 0.39120 0.17700
C 	C 	0.52540 0.16760 0.36580 0.29400
C 	C 	0.54150 0.18630 0.33980 -0.34700
H 	H 	0.57010 0.18220 0.33440 0.17900
C 	C 	0.51480 0.21140 0.32190 0.30500
C 	C 	0.47200 0.21760 0.32990 -0.35800
H 	H 	0.45420 0.23430 0.31790 0.18100
O 	O 	0.19000 0.19320 0.35530 -0.38000
N 	N 	0.34480 0.19710 0.37960 -0.24200
H 	H 	0.33910 0.22080 0.37050 0.13400
C 	C 	0.49350 0.32170 0.18980 0.01200
C 	C 	0.27930 0.13590 0.43320 -0.02600
C 	C 	0.38910 0.18040 0.37790 0.29000
O 	O 	0.40000 0.15550 0.39880 -0.24800
N 	N 	0.41340 0.20670 0.36240 -0.30200
H 	H 	0.40210 0.23020 0.35590 0.15000
Cu	Cu	0.80144 0.13756 0.33145 0.92300
Cu	Cu	0.85074 0.10324 0.37316 0.92400
O 	O 	0.75400 0.11850 0.35790 -0.39400
O 	O 	0.64380 0.34740 0.18800 -0.38900
O 	O 	0.66080 0.98680 0.46940 -0.40900
O 	O 	0.60130 0.37550 0.15170 -0.38400
O 	O 	0.79640 0.08750 0.39240 -0.39600
C 	C 	0.76220 0.09670 0.37920 0.34800
O 	O 	0.44830 0.34810 0.15290 -0.39200
O 	O 	0.15980 0.15380 0.39310 -0.36400
O 	O 	0.25120 0.08930 0.46870 -0.41400
O 	O 	0.73240 0.99770 0.47000 -0.39600
C 	C 	0.60950 0.35450 0.17400 0.32400
O 	O 	0.41990 0.30350 0.18780 -0.37700
O 	O 	0.32040 0.10020 0.46860 -0.42600
C 	C 	0.19030 0.17070 0.37800 0.30900
C 	C 	0.44940 0.32440 0.17440 0.32400
C 	C 	0.69360 0.00320 0.46050 0.34300
O 	O 	0.61570 0.14790 0.36190 -0.24500
C 	C 	0.72160 0.08210 0.39660 0.00200
C 	C 	0.28450 0.10550 0.45930 0.39200
C 	C 	0.56940 0.33660 0.19040 0.01900
C 	C 	0.23350 0.16580 0.39360 -0.00100
C 	C 	0.69050 0.03620 0.43650 -0.01500
C 	C 	0.31520 0.15240 0.42010 -0.12500
H 	H 	0.34230 0.14700 0.42820 0.11700
O 	O 	0.75900 0.16510 0.29660 -0.39700
H 	H 	0.76770 0.15800 0.28000 0.24300
N 	N 	0.53520 0.23450 0.29780 -0.29500
H 	H 	0.56280 0.23300 0.29710 0.14800
C 	C 	0.72610 0.05380 0.42160 -0.03900
H 	H 	0.75360 0.04690 0.42830 0.08100
C 	C 	0.57440 0.31570 0.21790 -0.15600
H 	H 	0.60130 0.31450 0.22700 0.10500
O 	O 	0.47790 0.26110 0.27360 -0.26300
C 	C 	0.65050 0.05200 0.42750 -0.13500
H 	H 	0.62590 0.04110 0.43670 0.09400
C 	C 	0.23840 0.14160 0.41940 -0.03600
H 	H 	0.21430 0.12890 0.42810 0.08400
N 	N 	0.60400 0.09680 0.40020 -0.25400
H 	H 	0.58360 0.08500 0.41030 0.13300
C 	C 	0.26980 0.18450 0.38200 -0.12000
H 	H 	0.26780 0.20240 0.36540 0.09700
C 	C 	0.52980 0.34090 0.17830 -0.06500
H 	H 	0.52680 0.35800 0.16130 0.09500
N 	N 	0.54610 0.27110 0.25370 -0.28100
H 	H 	0.57180 0.26100 0.25470 0.14400
C 	C 	0.53820 0.29610 0.23230 0.20900
O 	O 	0.89060 0.07490 0.40890 -0.39300
H 	H 	0.87960 0.05240 0.41460 0.24800
C 	C 	0.31110 0.17640 0.39550 0.15700
C 	C 	0.68180 0.09660 0.39060 -0.13000
H 	H 	0.67800 0.11700 0.37550 0.12300
C 	C 	0.49770 0.30050 0.21920 -0.15500
H 	H 	0.47340 0.29000 0.22890 0.13000
C 	C 	0.51660 0.25760 0.27680 0.31800
C 	C 	0.59150 0.12840 0.37980 0.28700
C 	C 	0.64590 0.08170 0.40660 0.16700
N 	N 	0.54780 0.13400 0.38280 -0.27600
H 	H 	0.53360 0.11770 0.39480 0.14200
C 	C 	0.04400 0.30120 0.85590 0.31800
C 	C 	0.01740 0.32620 0.87380 -0.35400
H 	H 	0.02810 0.33870 0.89120 0.17700
C 	C 	0.97460 0.33240 0.86580 0.29400
C 	C 	0.95850 0.31370 0.83980 -0.34700
H 	H 	0.92990 0.31780 0.83440 0.17900
C 	C 	0.98520 0.28860 0.82190 0.30500
C 	C 	0.02800 0.28240 0.82990 -0.35800
H 	H 	0.04580 0.26570 0.81790 0.18100
O 	O 	0.31000 0.30680 0.85530 -0.38000
N 	N 	0.15520 0.30290 0.87960 -0.24300
H 	H 	0.16090 0.27920 0.87050 0.13400
C 	C 	0.00650 0.17830 0.68980 0.01200
C 	C 	0.22070 0.36410 0.93320 -0.02500
C 	C 	0.11090 0.31960 0.87790 0.29000
O 	O 	0.10000 0.34450 0.89880 -0.24800
N 	N 	0.08660 0.29330 0.86240 -0.30200
H 	H 	0.09790 0.26980 0.85590 0.15000
Cu	Cu	0.69856 0.36244 0.83145 0.92300
Cu	Cu	0.64926 0.39676 0.87316 0.92400
O 	O 	0.74600 0.38150 0.85790 -0.39400
O 	O 	0.85620 0.15260 0.68800 -0.38900
O 	O 	0.83920 0.51320 0.96940 -0.40700
O 	O 	0.89870 0.12450 0.65170 -0.38400
O 	O 	0.70360 0.41250 0.89240 -0.39600
C 	C 	0.73780 0.40330 0.87920 0.34700
O 	O 	0.05170 0.15190 0.65290 -0.39200
O 	O 	0.34020 0.34620 0.89310 -0.36400
O 	O 	0.24880 0.41070 0.96870 -0.41100
O 	O 	0.76760 0.50230 0.97000 -0.39400
C 	C 	0.89050 0.14550 0.67400 0.32400
O 	O 	0.08010 0.19650 0.68780 -0.37700
O 	O 	0.17960 0.39980 0.96860 -0.42400
C 	C 	0.30970 0.32930 0.87800 0.30900
C 	C 	0.05060 0.17560 0.67440 0.32400
C 	C 	0.80640 0.49680 0.96050 0.34300
O 	O 	0.88430 0.35210 0.86190 -0.24500
C 	C 	0.77840 0.41790 0.89660 0.00300
C 	C 	0.21550 0.39450 0.95930 0.39100
C 	C 	0.93060 0.16340 0.69040 0.01900
C 	C 	0.26650 0.33420 0.89360 -0.00000
C 	C 	0.80950 0.46380 0.93650 -0.01400
C 	C 	0.18480 0.34760 0.92010 -0.12600
H 	H 	0.15770 0.35300 0.92820 0.11700
O 	O 	0.74100 0.33490 0.79660 -0.39700
H 	H 	0.73230 0.34200 0.78000 0.24300
N 	N 	0.96480 0.26550 0.79780 -0.29500
H 	H 	0.93720 0.26700 0.79710 0.14800
C 	C 	0.77390 0.44620 0.92160 -0.04000
H 	H 	0.74640 0.45310 0.92830 0.08100
C 	C 	0.92560 0.18430 0.71790 -0.15600
H 	H 	0.89870 0.18550 0.72700 0.10500
O 	O 	0.02210 0.23890 0.77360 -0.26300
C 	C 	0.84950 0.44800 0.92750 -0.13500
H 	H 	0.87410 0.45890 0.93670 0.09400
C 	C 	0.26160 0.35840 0.91940 -0.03600
H 	H 	0.28570 0.37110 0.92810 0.08500
N 	N 	0.89600 0.40320 0.90020 -0.25400
H 	H 	0.91640 0.41500 0.91030 0.13400
C 	C 	0.23020 0.31550 0.88200 -0.12100
H 	H 	0.23220 0.29760 0.86540 0.09700
C 	C 	0.97020 0.15910 0.67830 -0.06500
H 	H 	0.97320 0.14200 0.66130 0.09500
N 	N 	0.95390 0.22890 0.75370 -0.28100
H 	H 	0.92820 0.23900 0.75470 0.14400
C 	C 	0.96180 0.20390 0.73230 0.20900
O 	O 	0.60940 0.42510 0.90890 -0.39300
H 	H 	0.62040 0.44760 0.91460 0.24800
C 	C 	0.18890 0.32360 0.89550 0.15700
C 	C 	0.81820 0.40340 0.89060 -0.13000
H 	H 	0.82200 0.38300 0.87550 0.12300
C 	C 	0.00230 0.19950 0.71920 -0.15500
H 	H 	0.02660 0.21000 0.72890 0.13000
C 	C 	0.98340 0.24240 0.77680 0.31800
C 	C 	0.90850 0.37160 0.87980 0.28700
C 	C 	0.85410 0.41830 0.90660 0.16700
N 	N 	0.95220 0.36600 0.88280 -0.27600
H 	H 	0.96640 0.38230 0.89480 0.14200
C 	C 	0.54400 0.80120 0.35590 0.31800
C 	C 	0.51740 0.82620 0.37380 -0.35400
H 	H 	0.52810 0.83870 0.39120 0.17700
C 	C 	0.47460 0.83240 0.36580 0.29400
C 	C 	0.45850 0.81370 0.33980 -0.34700
H 	H 	0.42990 0.81780 0.33440 0.17900
C 	C 	0.48520 0.78860 0.32190 0.30500
C 	C 	0.52800 0.78240 0.32990 -0.35800
H 	H 	0.54580 0.76570 0.31790 0.18100
O 	O 	0.81000 0.80680 0.35530 -0.38000
N 	N 	0.65520 0.80290 0.37960 -0.24200
H 	H 	0.66090 0.77920 0.37050 0.13400
C 	C 	0.50650 0.67830 0.18980 0.01200
C 	C 	0.72070 0.86410 0.43320 -0.02600
C 	C 	0.61090 0.81960 0.37790 0.29000
O 	O 	0.60000 0.84450 0.39880 -0.24800
N 	N 	0.58660 0.79330 0.36240 -0.30200
H 	H 	0.59790 0.76980 0.35590 0.15000
Cu	Cu	0.19856 0.86244 0.33145 0.92300
Cu	Cu	0.14926 0.89676 0.37316 0.92400
O 	O 	0.24600 0.88150 0.35790 -0.39400
O 	O 	0.35620 0.65260 0.18800 -0.38900
O 	O 	0.33920 0.01320 0.46940 -0.40900
O 	O 	0.39870 0.62450 0.15170 -0.38400
O 	O 	0.20360 0.91250 0.39240 -0.39600
C 	C 	0.23780 0.90330 0.37920 0.34800
O 	O 	0.55170 0.65190 0.15290 -0.39200
O 	O 	0.84020 0.84620 0.39310 -0.36400
O 	O 	0.74880 0.91070 0.46870 -0.41400
O 	O 	0.26760 0.00230 0.47000 -0.39600
C 	C 	0.39050 0.64550 0.17400 0.32400
O 	O 	0.58010 0.69650 0.18780 -0.37700
O 	O 	0.67960 0.89980 0.46860 -0.42600
C 	C 	0.80970 0.82930 0.37800 0.30900
C 	C 	0.55060 0.67560 0.17440 0.32400
C 	C 	0.30640 0.99680 0.46050 0.34300
O 	O 	0.38430 0.85210 0.36190 -0.24500
C 	C 	0.27840 0.91790 0.39660 0.00200
C 	C 	0.71550 0.89450 0.45930 0.39200
C 	C 	0.43060 0.66340 0.19040 0.01900
C 	C 	0.76650 0.83420 0.39360 -0.00100
C 	C 	0.30950 0.96380 0.43650 -0.01500
C 	C 	0.68480 0.84760 0.42010 -0.12500
H 	H 	0.65770 0.85300 0.42820 0.11700
O 	O 	0.24100 0.83490 0.29660 -0.39700
H 	H 	0.23230 0.84200 0.28000 0.24300
N 	N 	0.46480 0.76550 0.29780 -0.29500
H 	H 	0.43720 0.76700 0.29710 0.14800
C 	C 	0.27390 0.94620 0.42160 -0.03900
H 	H 	0.24640 0.95310 0.42830 0.08100
C 	C 	0.42560 0.68430 0.21790 -0.15600
H 	H 	0.39870 0.68550 0.22700 0.10500
O 	O 	0.52210 0.73890 0.27360 -0.26300
C 	C 	0.34950 0.94800 0.42750 -0.13500
H 	H 	0.37410 0.95890 0.43670 0.09400
C 	C 	0.76160 0.85840 0.41940 -0.03600
H 	H 	0.78570 0.87110 0.42810 0.08400
N 	N 	0.39600 0.90320 0.40020 -0.25400
H 	H 	0.41640 0.91500 0.41030 0.13300
C 	C 	0.73020 0.81550 0.38200 -0.12000
H 	H 	0.73220 0.79760 0.36540 0.09700
C 	C 	0.47020 0.65910 0.17830 -0.06500
H 	H 	0.47320 0.64200 0.16130 0.09500
N 	N 	0.45390 0.72890 0.25370 -0.28100
H 	H 	0.42820 0.73900 0.25470 0.14400
C 	C 	0.46180 0.70390 0.23230 0.20900
O 	O 	0.10940 0.92510 0.40890 -0.39300
H 	H 	0.12040 0.94760 0.41460 0.24800
C 	C 	0.68890 0.82360 0.39550 0.15700
C 	C 	0.31820 0.90340 0.39060 -0.13000
H 	H 	0.32200 0.88300 0.37550 0.12300
C 	C 	0.50230 0.69950 0.21920 -0.15500
H 	H 	0.52660 0.71000 0.22890 0.13000
C 	C 	0.48340 0.74240 0.27680 0.31800
C 	C 	0.40850 0.87160 0.37980 0.28700
C 	C 	0.35410 0.91830 0.40660 0.16700
N 	N 	0.45220 0.86600 0.38280 -0.27600
H 	H 	0.46640 0.88230 0.39480 0.14200
Cu	Cu	0.54447 0.24750 -0.00000 0.90800
Cu	Cu	0.55850 0.16367 -0.00000 0.90400
Cu	Cu	0.04447 0.74750 0.50000 0.91000
Cu	Cu	0.05850 0.66367 0.50000 0.90600
Cu	Cu	0.45553 0.75250 -0.00000 0.90800
Cu	Cu	0.44150 0.83633 -0.00000 0.90400
Cu	Cu	0.95553 0.25250 0.50000 0.91000
Cu	Cu	0.94150 0.33633 0.50000 0.90600
Cu	Cu	0.75250 0.54447 -0.00000 0.90800
Cu	Cu	0.83633 0.55850 -0.00000 0.90400
Cu	Cu	0.25250 0.04447 0.50000 0.91000
Cu	Cu	0.33633 0.05850 0.50000 0.90600
Cu	Cu	0.24750 0.45553 -0.00000 0.90800
Cu	Cu	0.16367 0.44150 -0.00000 0.90400
Cu	Cu	0.74750 0.95553 0.50000 0.91000
Cu	Cu	0.66367 0.94150 0.50000 0.90600
