data_crystal

_cell_length_a 9.20300
_cell_length_b 15.77600
_cell_length_c 31.58700
_cell_angle_alpha 90.00000
_cell_angle_beta  90.00000
_cell_angle_gamma 90.00000

_symmetry_space_group_name_	'P 1'
_symmetry_space_group_name_H-M	'P 1'

loop_
_symmetry_equiv_pos_as_xyz
  x,y,z

loop_
_atom_site_label
_atom_site_type_symbol
_atom_site_fract_x
_atom_site_fract_y
_atom_site_fract_z
_atom_site_charge
P 	P 	0.10185 0.30470 0.30866 0.58500
O 	O 	0.05250 0.35630 0.27112 -0.47500
O 	O 	0.98720 0.29435 0.34228 -0.48700
O 	O 	0.17130 0.22186 0.29649 -0.44500
O 	O 	0.22790 0.35930 0.33108 -0.60900
H 	H 	0.31900 0.35900 0.32100 0.25900
H 	H 	0.18100 0.35500 0.35570 0.24000
P 	P 	0.10185 0.80470 0.80866 0.58600
O 	O 	0.05250 0.85630 0.77112 -0.47500
O 	O 	0.98720 0.79435 0.84228 -0.48800
O 	O 	0.17130 0.72186 0.79649 -0.44400
O 	O 	0.22790 0.85930 0.83108 -0.60800
H 	H 	0.31900 0.85900 0.82100 0.26000
H 	H 	0.18100 0.85500 0.85570 0.24100
P 	P 	0.60185 0.30470 0.80866 0.58600
O 	O 	0.55250 0.35630 0.77112 -0.47400
O 	O 	0.48720 0.29435 0.84228 -0.48600
O 	O 	0.67130 0.22186 0.79649 -0.44400
O 	O 	0.72790 0.35930 0.83108 -0.60800
H 	H 	0.81900 0.35900 0.82100 0.26000
H 	H 	0.68100 0.35500 0.85570 0.24100
P 	P 	0.60185 0.80470 0.30866 0.58600
O 	O 	0.55250 0.85630 0.27112 -0.47400
O 	O 	0.48720 0.79435 0.34228 -0.48600
O 	O 	0.67130 0.72186 0.29649 -0.44400
O 	O 	0.72790 0.85930 0.33108 -0.60800
H 	H 	0.81900 0.85900 0.32100 0.26000
H 	H 	0.68100 0.85500 0.35570 0.24100
P 	P 	0.64815 0.44530 0.30866 0.58600
O 	O 	0.69750 0.39370 0.27112 -0.47400
O 	O 	0.76280 0.45565 0.34228 -0.48600
O 	O 	0.57870 0.52814 0.29649 -0.44400
O 	O 	0.52210 0.39070 0.33108 -0.60800
H 	H 	0.43100 0.39100 0.32100 0.26000
H 	H 	0.56900 0.39500 0.35570 0.24100
P 	P 	0.64815 0.94530 0.80866 0.58600
O 	O 	0.69750 0.89370 0.77112 -0.47400
O 	O 	0.76280 0.95565 0.84228 -0.48600
O 	O 	0.57870 0.02814 0.79649 -0.44400
O 	O 	0.52210 0.89070 0.83108 -0.60800
H 	H 	0.43100 0.89100 0.82100 0.26000
H 	H 	0.56900 0.89500 0.85570 0.24100
P 	P 	0.14815 0.44530 0.80866 0.58600
O 	O 	0.19750 0.39370 0.77112 -0.47400
O 	O 	0.26280 0.45565 0.84228 -0.48600
O 	O 	0.07870 0.52814 0.79649 -0.44400
O 	O 	0.02210 0.39070 0.83108 -0.60800
H 	H 	0.93100 0.39100 0.82100 0.26000
H 	H 	0.06900 0.39500 0.85570 0.24100
P 	P 	0.14815 0.94530 0.30866 0.58700
O 	O 	0.19750 0.89370 0.27112 -0.47400
O 	O 	0.26280 0.95565 0.34228 -0.48600
O 	O 	0.07870 0.02814 0.29649 -0.44500
O 	O 	0.02210 0.89070 0.33108 -0.60700
H 	H 	0.93100 0.89100 0.32100 0.25900
H 	H 	0.06900 0.89500 0.35570 0.24000
P 	P 	0.64815 0.30470 0.44134 0.58600
O 	O 	0.69750 0.35630 0.47888 -0.47400
O 	O 	0.76280 0.29435 0.40772 -0.48600
O 	O 	0.57870 0.22186 0.45351 -0.44400
O 	O 	0.52210 0.35930 0.41892 -0.60800
H 	H 	0.43100 0.35900 0.42900 0.26000
H 	H 	0.56900 0.35500 0.39430 0.24100
P 	P 	0.64815 0.80470 0.94134 0.58600
O 	O 	0.69750 0.85630 0.97888 -0.47400
O 	O 	0.76280 0.79435 0.90772 -0.48600
O 	O 	0.57870 0.72186 0.95351 -0.44400
O 	O 	0.52210 0.85930 0.91892 -0.60800
H 	H 	0.43100 0.85900 0.92900 0.26000
H 	H 	0.56900 0.85500 0.89430 0.24100
P 	P 	0.14815 0.30470 0.94134 0.58600
O 	O 	0.19750 0.35630 0.97888 -0.47400
O 	O 	0.26280 0.29435 0.90772 -0.48600
O 	O 	0.07870 0.22186 0.95351 -0.44400
O 	O 	0.02210 0.35930 0.91892 -0.60800
H 	H 	0.93100 0.35900 0.92900 0.26000
H 	H 	0.06900 0.35500 0.89430 0.24100
P 	P 	0.14815 0.80470 0.44134 0.58600
O 	O 	0.19750 0.85630 0.47888 -0.47400
O 	O 	0.26280 0.79435 0.40772 -0.48600
O 	O 	0.07870 0.72186 0.45351 -0.44400
O 	O 	0.02210 0.85930 0.41892 -0.60700
H 	H 	0.93100 0.85900 0.42900 0.25900
H 	H 	0.06900 0.85500 0.39430 0.24000
P 	P 	0.10185 0.44530 0.44134 0.58600
O 	O 	0.05250 0.39370 0.47888 -0.47400
O 	O 	0.98720 0.45565 0.40772 -0.48600
O 	O 	0.17130 0.52814 0.45351 -0.44400
O 	O 	0.22790 0.39070 0.41892 -0.60800
H 	H 	0.31900 0.39100 0.42900 0.26000
H 	H 	0.18100 0.39500 0.39430 0.24100
P 	P 	0.10185 0.94530 0.94134 0.58800
O 	O 	0.05250 0.89370 0.97888 -0.47300
O 	O 	0.98720 0.95565 0.90772 -0.48700
O 	O 	0.17130 0.02814 0.95351 -0.44500
O 	O 	0.22790 0.89070 0.91892 -0.60800
H 	H 	0.31900 0.89100 0.92900 0.26000
H 	H 	0.18100 0.89500 0.89430 0.24100
P 	P 	0.60185 0.44530 0.94134 0.58600
O 	O 	0.55250 0.39370 0.97888 -0.47400
O 	O 	0.48720 0.45565 0.90772 -0.48600
O 	O 	0.67130 0.52814 0.95351 -0.44400
O 	O 	0.72790 0.39070 0.91892 -0.60800
H 	H 	0.81900 0.39100 0.92900 0.26000
H 	H 	0.68100 0.39500 0.89430 0.24100
P 	P 	0.60185 0.94530 0.44134 0.58600
O 	O 	0.55250 0.89370 0.47888 -0.47400
O 	O 	0.48720 0.95565 0.40772 -0.48600
O 	O 	0.67130 0.02814 0.45351 -0.44400
O 	O 	0.72790 0.89070 0.41892 -0.60800
H 	H 	0.81900 0.89100 0.42900 0.26000
H 	H 	0.68100 0.89500 0.39430 0.24100
P 	P 	0.89815 0.69530 0.69134 0.58600
O 	O 	0.94750 0.64370 0.72888 -0.47400
O 	O 	0.01280 0.70565 0.65772 -0.48600
O 	O 	0.82870 0.77814 0.70351 -0.44400
O 	O 	0.77210 0.64070 0.66892 -0.60800
H 	H 	0.68100 0.64100 0.67900 0.26000
H 	H 	0.81900 0.64500 0.64430 0.24100
P 	P 	0.89815 0.19530 0.19134 0.58700
O 	O 	0.94750 0.14370 0.22888 -0.47400
O 	O 	0.01280 0.20565 0.15772 -0.48700
O 	O 	0.82870 0.27814 0.20351 -0.44400
O 	O 	0.77210 0.14070 0.16892 -0.60800
H 	H 	0.68100 0.14100 0.17900 0.26000
H 	H 	0.81900 0.14500 0.14430 0.24100
P 	P 	0.39815 0.69530 0.19134 0.58600
O 	O 	0.44750 0.64370 0.22888 -0.47400
O 	O 	0.51280 0.70565 0.15772 -0.48600
O 	O 	0.32870 0.77814 0.20351 -0.44400
O 	O 	0.27210 0.64070 0.16892 -0.60800
H 	H 	0.18100 0.64100 0.17900 0.26000
H 	H 	0.31900 0.64500 0.14430 0.24100
P 	P 	0.39815 0.19530 0.69134 0.58600
O 	O 	0.44750 0.14370 0.72888 -0.47400
O 	O 	0.51280 0.20565 0.65772 -0.48600
O 	O 	0.32870 0.27814 0.70351 -0.44400
O 	O 	0.27210 0.14070 0.66892 -0.60800
H 	H 	0.18100 0.14100 0.67900 0.26000
H 	H 	0.31900 0.14500 0.64430 0.24100
P 	P 	0.35185 0.55470 0.69134 0.58600
O 	O 	0.30250 0.60630 0.72888 -0.47400
O 	O 	0.23720 0.54435 0.65772 -0.48600
O 	O 	0.42130 0.47186 0.70351 -0.44400
O 	O 	0.47790 0.60930 0.66892 -0.60800
H 	H 	0.56900 0.60900 0.67900 0.26000
H 	H 	0.43100 0.60500 0.64430 0.24100
P 	P 	0.35185 0.05470 0.19134 0.58600
O 	O 	0.30250 0.10630 0.22888 -0.47400
O 	O 	0.23720 0.04435 0.15772 -0.48600
O 	O 	0.42130 0.97186 0.20351 -0.44400
O 	O 	0.47790 0.10930 0.16892 -0.60800
H 	H 	0.56900 0.10900 0.17900 0.26000
H 	H 	0.43100 0.10500 0.14430 0.24100
P 	P 	0.85185 0.55470 0.19134 0.58600
O 	O 	0.80250 0.60630 0.22888 -0.47400
O 	O 	0.73720 0.54435 0.15772 -0.48600
O 	O 	0.92130 0.47186 0.20351 -0.44400
O 	O 	0.97790 0.60930 0.16892 -0.60800
H 	H 	0.06900 0.60900 0.17900 0.26000
H 	H 	0.93100 0.60500 0.14430 0.24100
P 	P 	0.85185 0.05470 0.69134 0.58700
O 	O 	0.80250 0.10630 0.72888 -0.47400
O 	O 	0.73720 0.04435 0.65772 -0.48600
O 	O 	0.92130 0.97186 0.70351 -0.44500
O 	O 	0.97790 0.10930 0.66892 -0.60700
H 	H 	0.06900 0.10900 0.67900 0.25900
H 	H 	0.93100 0.10500 0.64430 0.24000
P 	P 	0.35185 0.69530 0.55866 0.58600
O 	O 	0.30250 0.64370 0.52112 -0.47400
O 	O 	0.23720 0.70565 0.59228 -0.48600
O 	O 	0.42130 0.77814 0.54649 -0.44400
O 	O 	0.47790 0.64070 0.58108 -0.60800
H 	H 	0.56900 0.64100 0.57100 0.26000
H 	H 	0.43100 0.64500 0.60570 0.24100
P 	P 	0.35185 0.19530 0.05866 0.58600
O 	O 	0.30250 0.14370 0.02112 -0.47400
O 	O 	0.23720 0.20565 0.09228 -0.48600
O 	O 	0.42130 0.27814 0.04649 -0.44400
O 	O 	0.47790 0.14070 0.08108 -0.60800
H 	H 	0.56900 0.14100 0.07100 0.26000
H 	H 	0.43100 0.14500 0.10570 0.24100
P 	P 	0.85185 0.69530 0.05866 0.58600
O 	O 	0.80250 0.64370 0.02112 -0.47400
O 	O 	0.73720 0.70565 0.09228 -0.48600
O 	O 	0.92130 0.77814 0.04649 -0.44400
O 	O 	0.97790 0.64070 0.08108 -0.60800
H 	H 	0.06900 0.64100 0.07100 0.26000
H 	H 	0.93100 0.64500 0.10570 0.24100
P 	P 	0.85185 0.19530 0.55866 0.58600
O 	O 	0.80250 0.14370 0.52112 -0.47400
O 	O 	0.73720 0.20565 0.59228 -0.48600
O 	O 	0.92130 0.27814 0.54649 -0.44400
O 	O 	0.97790 0.14070 0.58108 -0.60700
H 	H 	0.06900 0.14100 0.57100 0.25900
H 	H 	0.93100 0.14500 0.60570 0.24000
P 	P 	0.89815 0.55470 0.55866 0.58600
O 	O 	0.94750 0.60630 0.52112 -0.47400
O 	O 	0.01280 0.54435 0.59228 -0.48600
O 	O 	0.82870 0.47186 0.54649 -0.44400
O 	O 	0.77210 0.60930 0.58108 -0.60800
H 	H 	0.68100 0.60900 0.57100 0.26000
H 	H 	0.81900 0.60500 0.60570 0.24100
P 	P 	0.89815 0.05470 0.05866 0.58800
O 	O 	0.94750 0.10630 0.02112 -0.47300
O 	O 	0.01280 0.04435 0.09228 -0.48700
O 	O 	0.82870 0.97186 0.04649 -0.44500
O 	O 	0.77210 0.10930 0.08108 -0.60800
H 	H 	0.68100 0.10900 0.07100 0.26000
H 	H 	0.81900 0.10500 0.10570 0.24100
P 	P 	0.39815 0.55470 0.05866 0.58600
O 	O 	0.44750 0.60630 0.02112 -0.47400
O 	O 	0.51280 0.54435 0.09228 -0.48600
O 	O 	0.32870 0.47186 0.04649 -0.44400
O 	O 	0.27210 0.60930 0.08108 -0.60800
H 	H 	0.18100 0.60900 0.07100 0.26000
H 	H 	0.31900 0.60500 0.10570 0.24100
P 	P 	0.39815 0.05470 0.55866 0.58600
O 	O 	0.44750 0.10630 0.52112 -0.47400
O 	O 	0.51280 0.04435 0.59228 -0.48600
O 	O 	0.32870 0.97186 0.54649 -0.44400
O 	O 	0.27210 0.10930 0.58108 -0.60800
H 	H 	0.18100 0.10900 0.57100 0.26000
H 	H 	0.31900 0.10500 0.60570 0.24100
Zn	Zn	0.87500 0.37500 0.37500 1.23000
Zn	Zn	0.87500 0.87500 0.87500 1.23000
Zn	Zn	0.37500 0.37500 0.87500 1.23000
Zn	Zn	0.37500 0.87500 0.37500 1.23000
Zn	Zn	0.12500 0.62500 0.62500 1.23000
Zn	Zn	0.12500 0.12500 0.12500 1.23000
Zn	Zn	0.62500 0.62500 0.12500 1.23000
Zn	Zn	0.62500 0.12500 0.62500 1.23000
Zn	Zn	0.87500 0.37500 0.23928 1.23600
Zn	Zn	0.87500 0.87500 0.73928 1.23500
Zn	Zn	0.37500 0.37500 0.73928 1.23600
Zn	Zn	0.37500 0.87500 0.23928 1.23600
Zn	Zn	0.87500 0.37500 0.51072 1.23600
Zn	Zn	0.87500 0.87500 0.01072 1.23500
Zn	Zn	0.37500 0.37500 0.01072 1.23600
Zn	Zn	0.37500 0.87500 0.51072 1.23600
Zn	Zn	0.12500 0.62500 0.76072 1.23600
Zn	Zn	0.12500 0.12500 0.26072 1.23500
Zn	Zn	0.62500 0.62500 0.26072 1.23600
Zn	Zn	0.62500 0.12500 0.76072 1.23600
Zn	Zn	0.12500 0.62500 0.48928 1.23600
Zn	Zn	0.12500 0.12500 0.98928 1.23500
Zn	Zn	0.62500 0.62500 0.98928 1.23600
Zn	Zn	0.62500 0.12500 0.48928 1.23600
