data_crystal

_cell_length_a 22.70980
_cell_length_b 22.70980
_cell_length_c 22.70980
_cell_angle_alpha 90.00000
_cell_angle_beta  90.00000
_cell_angle_gamma 90.00000

_symmetry_space_group_name_	'P 1'
_symmetry_space_group_name_H-M	'P 1'

loop_
_symmetry_equiv_pos_as_xyz
  x,y,z

loop_
_atom_site_label
_atom_site_type_symbol
_atom_site_fract_x
_atom_site_fract_y
_atom_site_fract_z
_atom_site_charge
O 	O 	0.45066 0.37990 0.06952 -0.49800
C 	C 	0.31510 0.31600 0.23028 -0.59400
C 	C 	0.39750 0.39770 0.08111 0.40000
C 	C 	0.36850 0.36890 0.13300 -0.13500
C 	C 	0.34980 0.30990 0.12950 -0.00500
C 	C 	0.33410 0.37730 0.23280 0.25600
C 	C 	0.36210 0.40180 0.18460 0.03200
C 	C 	0.32350 0.28470 0.17880 0.29200
C 	C 	0.30440 0.22090 0.17320 -0.74300
H 	H 	0.30070 0.20390 0.21180 0.21300
H 	H 	0.33320 0.19940 0.15110 0.21600
H 	H 	0.26710 0.21900 0.15340 0.19800
C 	C 	0.32350 0.41520 0.28690 -0.73300
H 	H 	0.28300 0.41230 0.29840 0.22700
H 	H 	0.33280 0.45540 0.27790 0.21800
H 	H 	0.34810 0.40180 0.31850 0.20100
C 	C 	0.35720 0.27600 0.07200 -0.40000
H 	H 	0.31930 0.26380 0.05790 0.10400
H 	H 	0.38130 0.24190 0.07880 0.11000
H 	H 	0.37570 0.30080 0.04330 0.13000
C 	C 	0.38510 0.46520 0.18740 -0.50400
H 	H 	0.40960 0.46980 0.22150 0.14900
H 	H 	0.35250 0.49190 0.18980 0.16800
H 	H 	0.40770 0.47350 0.15260 0.18300
O 	O 	0.36914 0.43359 0.05242 -0.51900
O 	O 	0.54934 0.62010 0.06952 -0.40600
C 	C 	0.68490 0.68400 0.23028 -0.60000
C 	C 	0.60250 0.60230 0.08111 0.36100
C 	C 	0.63150 0.63110 0.13300 -0.12000
C 	C 	0.65020 0.69010 0.12950 -0.00400
C 	C 	0.66590 0.62270 0.23280 0.26300
C 	C 	0.63790 0.59820 0.18460 0.02800
C 	C 	0.67650 0.71530 0.17880 0.30900
C 	C 	0.69560 0.77910 0.17320 -0.79000
H 	H 	0.69930 0.79610 0.21180 0.23500
H 	H 	0.66680 0.80060 0.15110 0.24300
H 	H 	0.73290 0.78100 0.15340 0.22500
C 	C 	0.67650 0.58480 0.28690 -0.73900
H 	H 	0.71700 0.58770 0.29840 0.23000
H 	H 	0.66720 0.54460 0.27790 0.22000
H 	H 	0.65190 0.59820 0.31850 0.20200
C 	C 	0.64280 0.72400 0.07200 -0.42800
H 	H 	0.68070 0.73620 0.05790 0.12100
H 	H 	0.61870 0.75810 0.07880 0.12900
H 	H 	0.62430 0.69920 0.04330 0.14700
C 	C 	0.61490 0.53480 0.18740 -0.50600
H 	H 	0.59040 0.53020 0.22150 0.14900
H 	H 	0.64750 0.50810 0.18980 0.17100
H 	H 	0.59230 0.52650 0.15260 0.18800
O 	O 	0.63086 0.56641 0.05242 -0.42500
O 	O 	0.54934 0.37990 0.93048 -0.45300
C 	C 	0.68490 0.31600 0.76972 -0.59000
C 	C 	0.60250 0.39770 0.91889 0.37800
C 	C 	0.63150 0.36890 0.86700 -0.13400
C 	C 	0.65020 0.30990 0.87050 0.03600
C 	C 	0.66590 0.37730 0.76720 0.25500
C 	C 	0.63790 0.40180 0.81540 0.04200
C 	C 	0.67650 0.28470 0.82120 0.29100
C 	C 	0.69560 0.22090 0.82680 -0.77000
H 	H 	0.69930 0.20390 0.78820 0.22700
H 	H 	0.66680 0.19940 0.84890 0.23500
H 	H 	0.73290 0.21900 0.84660 0.22300
C 	C 	0.67650 0.41520 0.71310 -0.73100
H 	H 	0.71700 0.41230 0.70160 0.22800
H 	H 	0.66720 0.45540 0.72210 0.21800
H 	H 	0.65190 0.40180 0.68150 0.20000
C 	C 	0.64280 0.27600 0.92800 -0.52100
H 	H 	0.68070 0.26380 0.94210 0.17200
H 	H 	0.61870 0.24190 0.92120 0.16500
H 	H 	0.62430 0.30080 0.95670 0.20000
C 	C 	0.61490 0.46520 0.81260 -0.52100
H 	H 	0.59040 0.46980 0.77850 0.15400
H 	H 	0.64750 0.49190 0.81020 0.17800
H 	H 	0.59230 0.47350 0.84740 0.19400
O 	O 	0.63086 0.43359 0.94758 -0.39000
O 	O 	0.45066 0.62010 0.93048 -0.38800
C 	C 	0.31510 0.68400 0.76972 -0.59100
C 	C 	0.39750 0.60230 0.91889 0.38200
C 	C 	0.36850 0.63110 0.86700 -0.13800
C 	C 	0.34980 0.69010 0.87050 0.04300
C 	C 	0.33410 0.62270 0.76720 0.25500
C 	C 	0.36210 0.59820 0.81540 0.04000
C 	C 	0.32350 0.71530 0.82120 0.29300
C 	C 	0.30440 0.77910 0.82680 -0.78600
H 	H 	0.30070 0.79610 0.78820 0.23600
H 	H 	0.33320 0.80060 0.84890 0.24800
H 	H 	0.26710 0.78100 0.84660 0.23000
C 	C 	0.32350 0.58480 0.71310 -0.73100
H 	H 	0.28300 0.58770 0.70160 0.22700
H 	H 	0.33280 0.54460 0.72210 0.21700
H 	H 	0.34810 0.59820 0.68150 0.20000
C 	C 	0.35720 0.72400 0.92800 -0.54600
H 	H 	0.31930 0.73620 0.94210 0.18200
H 	H 	0.38130 0.75810 0.92120 0.18100
H 	H 	0.37570 0.69920 0.95670 0.21400
C 	C 	0.38510 0.53480 0.81260 -0.51500
H 	H 	0.40960 0.53020 0.77850 0.15200
H 	H 	0.35250 0.50810 0.81020 0.17400
H 	H 	0.40770 0.52650 0.84740 0.18900
O 	O 	0.36914 0.56641 0.94758 -0.45600
O 	O 	0.06952 0.45066 0.37990 -0.49700
C 	C 	0.23028 0.31510 0.31600 -0.59300
C 	C 	0.08111 0.39750 0.39770 0.40100
C 	C 	0.13300 0.36850 0.36890 -0.13400
C 	C 	0.12950 0.34980 0.30990 -0.00400
C 	C 	0.23280 0.33410 0.37730 0.25700
C 	C 	0.18460 0.36210 0.40180 0.03300
C 	C 	0.17880 0.32350 0.28470 0.29300
C 	C 	0.17320 0.30440 0.22090 -0.74200
H 	H 	0.21180 0.30070 0.20390 0.21400
H 	H 	0.15110 0.33320 0.19940 0.21600
H 	H 	0.15340 0.26710 0.21900 0.19800
C 	C 	0.28690 0.32350 0.41520 -0.73300
H 	H 	0.29840 0.28300 0.41230 0.22700
H 	H 	0.27790 0.33280 0.45540 0.21800
H 	H 	0.31850 0.34810 0.40180 0.20000
C 	C 	0.07200 0.35720 0.27600 -0.39900
H 	H 	0.05790 0.31930 0.26380 0.10400
H 	H 	0.07880 0.38130 0.24190 0.11000
H 	H 	0.04330 0.37570 0.30080 0.13000
C 	C 	0.18740 0.38510 0.46520 -0.50400
H 	H 	0.22150 0.40960 0.46980 0.14900
H 	H 	0.18980 0.35250 0.49190 0.16800
H 	H 	0.15260 0.40770 0.47350 0.18300
O 	O 	0.05242 0.36914 0.43359 -0.51900
O 	O 	0.06952 0.54934 0.62010 -0.40600
C 	C 	0.23028 0.68490 0.68400 -0.59900
C 	C 	0.08111 0.60250 0.60230 0.36200
C 	C 	0.13300 0.63150 0.63110 -0.12000
C 	C 	0.12950 0.65020 0.69010 -0.00300
C 	C 	0.23280 0.66590 0.62270 0.26200
C 	C 	0.18460 0.63790 0.59820 0.02800
C 	C 	0.17880 0.67650 0.71530 0.30900
C 	C 	0.17320 0.69560 0.77910 -0.78900
H 	H 	0.21180 0.69930 0.79610 0.23500
H 	H 	0.15110 0.66680 0.80060 0.24200
H 	H 	0.15340 0.73290 0.78100 0.22500
C 	C 	0.28690 0.67650 0.58480 -0.73900
H 	H 	0.29840 0.71700 0.58770 0.23000
H 	H 	0.27790 0.66720 0.54460 0.22000
H 	H 	0.31850 0.65190 0.59820 0.20200
C 	C 	0.07200 0.64280 0.72400 -0.42800
H 	H 	0.05790 0.68070 0.73620 0.12100
H 	H 	0.07880 0.61870 0.75810 0.12800
H 	H 	0.04330 0.62430 0.69920 0.14700
C 	C 	0.18740 0.61490 0.53480 -0.50600
H 	H 	0.22150 0.59040 0.53020 0.14900
H 	H 	0.18980 0.64750 0.50810 0.17100
H 	H 	0.15260 0.59230 0.52650 0.18800
O 	O 	0.05242 0.63086 0.56641 -0.42500
O 	O 	0.93048 0.54934 0.37990 -0.45300
C 	C 	0.76972 0.68490 0.31600 -0.59100
C 	C 	0.91889 0.60250 0.39770 0.37800
C 	C 	0.86700 0.63150 0.36890 -0.13400
C 	C 	0.87050 0.65020 0.30990 0.03600
C 	C 	0.76720 0.66590 0.37730 0.25500
C 	C 	0.81540 0.63790 0.40180 0.04200
C 	C 	0.82120 0.67650 0.28470 0.29100
C 	C 	0.82680 0.69560 0.22090 -0.77100
H 	H 	0.78820 0.69930 0.20390 0.22700
H 	H 	0.84890 0.66680 0.19940 0.23600
H 	H 	0.84660 0.73290 0.21900 0.22300
C 	C 	0.71310 0.67650 0.41520 -0.73100
H 	H 	0.70160 0.71700 0.41230 0.22800
H 	H 	0.72210 0.66720 0.45540 0.21800
H 	H 	0.68150 0.65190 0.40180 0.20000
C 	C 	0.92800 0.64280 0.27600 -0.52100
H 	H 	0.94210 0.68070 0.26380 0.17200
H 	H 	0.92120 0.61870 0.24190 0.16500
H 	H 	0.95670 0.62430 0.30080 0.20000
C 	C 	0.81260 0.61490 0.46520 -0.52100
H 	H 	0.77850 0.59040 0.46980 0.15300
H 	H 	0.81020 0.64750 0.49190 0.17800
H 	H 	0.84740 0.59230 0.47350 0.19400
O 	O 	0.94758 0.63086 0.43359 -0.39000
O 	O 	0.93048 0.45066 0.62010 -0.38700
C 	C 	0.76972 0.31510 0.68400 -0.59100
C 	C 	0.91889 0.39750 0.60230 0.38200
C 	C 	0.86700 0.36850 0.63110 -0.13800
C 	C 	0.87050 0.34980 0.69010 0.04300
C 	C 	0.76720 0.33410 0.62270 0.25500
C 	C 	0.81540 0.36210 0.59820 0.04000
C 	C 	0.82120 0.32350 0.71530 0.29300
C 	C 	0.82680 0.30440 0.77910 -0.78700
H 	H 	0.78820 0.30070 0.79610 0.23700
H 	H 	0.84890 0.33320 0.80060 0.24900
H 	H 	0.84660 0.26710 0.78100 0.23000
C 	C 	0.71310 0.32350 0.58480 -0.73100
H 	H 	0.70160 0.28300 0.58770 0.22700
H 	H 	0.72210 0.33280 0.54460 0.21700
H 	H 	0.68150 0.34810 0.59820 0.20000
C 	C 	0.92800 0.35720 0.72400 -0.54600
H 	H 	0.94210 0.31930 0.73620 0.18200
H 	H 	0.92120 0.38130 0.75810 0.18100
H 	H 	0.95670 0.37570 0.69920 0.21400
C 	C 	0.81260 0.38510 0.53480 -0.51500
H 	H 	0.77850 0.40960 0.53020 0.15200
H 	H 	0.81020 0.35250 0.50810 0.17400
H 	H 	0.84740 0.40770 0.52650 0.18900
O 	O 	0.94758 0.36914 0.56641 -0.45600
O 	O 	0.37990 0.06952 0.45066 -0.48400
C 	C 	0.31600 0.23028 0.31510 -0.59400
C 	C 	0.39770 0.08111 0.39750 0.38000
C 	C 	0.36890 0.13300 0.36850 -0.12600
C 	C 	0.30990 0.12950 0.34980 -0.00800
C 	C 	0.37730 0.23280 0.33410 0.25800
C 	C 	0.40180 0.18460 0.36210 0.03100
C 	C 	0.28470 0.17880 0.32350 0.29500
C 	C 	0.22090 0.17320 0.30440 -0.74400
H 	H 	0.20390 0.21180 0.30070 0.21400
H 	H 	0.19940 0.15110 0.33320 0.21700
H 	H 	0.21900 0.15340 0.26710 0.19900
C 	C 	0.41520 0.28690 0.32350 -0.73500
H 	H 	0.41230 0.29840 0.28300 0.22800
H 	H 	0.45540 0.27790 0.33280 0.21800
H 	H 	0.40180 0.31850 0.34810 0.20100
C 	C 	0.27600 0.07200 0.35720 -0.39600
H 	H 	0.26380 0.05790 0.31930 0.10300
H 	H 	0.24190 0.07880 0.38130 0.10900
H 	H 	0.30080 0.04330 0.37570 0.12900
C 	C 	0.46520 0.18740 0.38510 -0.50700
H 	H 	0.46980 0.22150 0.40960 0.15000
H 	H 	0.49190 0.18980 0.35250 0.17000
H 	H 	0.47350 0.15260 0.40770 0.18700
O 	O 	0.43359 0.05242 0.36914 -0.44100
O 	O 	0.62010 0.06952 0.54934 -0.41900
C 	C 	0.68400 0.23028 0.68490 -0.59800
C 	C 	0.60230 0.08111 0.60250 0.38300
C 	C 	0.63110 0.13300 0.63150 -0.12800
C 	C 	0.69010 0.12950 0.65020 0.00100
C 	C 	0.62270 0.23280 0.66590 0.26100
C 	C 	0.59820 0.18460 0.63790 0.03000
C 	C 	0.71530 0.17880 0.67650 0.30600
C 	C 	0.77910 0.17320 0.69560 -0.78700
H 	H 	0.79610 0.21180 0.69930 0.23400
H 	H 	0.80060 0.15110 0.66680 0.24100
H 	H 	0.78100 0.15340 0.73290 0.22400
C 	C 	0.58480 0.28690 0.67650 -0.73800
H 	H 	0.58770 0.29840 0.71700 0.22900
H 	H 	0.54460 0.27790 0.66720 0.21900
H 	H 	0.59820 0.31850 0.65190 0.20200
C 	C 	0.72400 0.07200 0.64280 -0.43200
H 	H 	0.73620 0.05790 0.68070 0.12200
H 	H 	0.75810 0.07880 0.61870 0.13000
H 	H 	0.69920 0.04330 0.62430 0.14800
C 	C 	0.53480 0.18740 0.61490 -0.50300
H 	H 	0.53020 0.22150 0.59040 0.14800
H 	H 	0.50810 0.18980 0.64750 0.16900
H 	H 	0.52650 0.15260 0.59230 0.18300
O 	O 	0.56641 0.05242 0.63086 -0.50300
O 	O 	0.37990 0.93048 0.54934 -0.46600
C 	C 	0.31600 0.76972 0.68490 -0.58900
C 	C 	0.39770 0.91889 0.60250 0.40000
C 	C 	0.36890 0.86700 0.63150 -0.14200
C 	C 	0.30990 0.87050 0.65020 0.04000
C 	C 	0.37730 0.76720 0.66590 0.25400
C 	C 	0.40180 0.81540 0.63790 0.04400
C 	C 	0.28470 0.82120 0.67650 0.28800
C 	C 	0.22090 0.82680 0.69560 -0.76800
H 	H 	0.20390 0.78820 0.69930 0.22600
H 	H 	0.19940 0.84890 0.66680 0.23500
H 	H 	0.21900 0.84660 0.73290 0.22200
C 	C 	0.41520 0.71310 0.67650 -0.73000
H 	H 	0.41230 0.70160 0.71700 0.22800
H 	H 	0.45540 0.72210 0.66720 0.21800
H 	H 	0.40180 0.68150 0.65190 0.19900
C 	C 	0.27600 0.92800 0.64280 -0.52500
H 	H 	0.26380 0.94210 0.68070 0.17300
H 	H 	0.24190 0.92120 0.61870 0.16600
H 	H 	0.30080 0.95670 0.62430 0.20000
C 	C 	0.46520 0.81260 0.61490 -0.51800
H 	H 	0.46980 0.77850 0.59040 0.15300
H 	H 	0.49190 0.81020 0.64750 0.17600
H 	H 	0.47350 0.84740 0.59230 0.18900
O 	O 	0.43359 0.94758 0.63086 -0.46800
O 	O 	0.62010 0.93048 0.45066 -0.37400
C 	C 	0.68400 0.76972 0.31510 -0.59300
C 	C 	0.60230 0.91889 0.39750 0.36000
C 	C 	0.63110 0.86700 0.36850 -0.13000
C 	C 	0.69010 0.87050 0.34980 0.03900
C 	C 	0.62270 0.76720 0.33410 0.25600
C 	C 	0.59820 0.81540 0.36210 0.03800
C 	C 	0.71530 0.82120 0.32350 0.29600
C 	C 	0.77910 0.82680 0.30440 -0.79000
H 	H 	0.79610 0.78820 0.30070 0.23700
H 	H 	0.80060 0.84890 0.33320 0.25000
H 	H 	0.78100 0.84660 0.26710 0.23100
C 	C 	0.58480 0.71310 0.32350 -0.73200
H 	H 	0.58770 0.70160 0.28300 0.22800
H 	H 	0.54460 0.72210 0.33280 0.21800
H 	H 	0.59820 0.68150 0.34810 0.20000
C 	C 	0.72400 0.92800 0.35720 -0.54200
H 	H 	0.73620 0.94210 0.31930 0.18100
H 	H 	0.75810 0.92120 0.38130 0.18000
H 	H 	0.69920 0.95670 0.37570 0.21300
C 	C 	0.53480 0.81260 0.38510 -0.51700
H 	H 	0.53020 0.77850 0.40960 0.15300
H 	H 	0.50810 0.81020 0.35250 0.17500
H 	H 	0.52650 0.84740 0.40770 0.19300
O 	O 	0.56641 0.94758 0.36914 -0.37800
O 	O 	0.37990 0.45066 0.93048 -0.46600
C 	C 	0.31600 0.31510 0.76972 -0.58700
C 	C 	0.39770 0.39750 0.91889 0.40000
C 	C 	0.36890 0.36850 0.86700 -0.14300
C 	C 	0.30990 0.34980 0.87050 0.03900
C 	C 	0.37730 0.33410 0.76720 0.25200
C 	C 	0.40180 0.36210 0.81540 0.04300
C 	C 	0.28470 0.32350 0.82120 0.28400
C 	C 	0.22090 0.30440 0.82680 -0.75500
H 	H 	0.20390 0.30070 0.78820 0.22100
H 	H 	0.19940 0.33320 0.84890 0.22900
H 	H 	0.21900 0.26710 0.84660 0.21300
C 	C 	0.41520 0.32350 0.71310 -0.72800
H 	H 	0.41230 0.28300 0.70160 0.22700
H 	H 	0.45540 0.33280 0.72210 0.21600
H 	H 	0.40180 0.34810 0.68150 0.19900
C 	C 	0.27600 0.35720 0.92800 -0.51900
H 	H 	0.26380 0.31930 0.94210 0.16800
H 	H 	0.24190 0.38130 0.92120 0.16400
H 	H 	0.30080 0.37570 0.95670 0.19800
C 	C 	0.46520 0.38510 0.81260 -0.51700
H 	H 	0.46980 0.40960 0.77850 0.15200
H 	H 	0.49190 0.35250 0.81020 0.17400
H 	H 	0.47350 0.40770 0.84740 0.18900
O 	O 	0.43359 0.36914 0.94758 -0.47000
O 	O 	0.62010 0.54934 0.93048 -0.37500
C 	C 	0.68400 0.68490 0.76972 -0.59400
C 	C 	0.60230 0.60250 0.91889 0.36000
C 	C 	0.63110 0.63150 0.86700 -0.12900
C 	C 	0.69010 0.65020 0.87050 0.04000
C 	C 	0.62270 0.66590 0.76720 0.25800
C 	C 	0.59820 0.63790 0.81540 0.03900
C 	C 	0.71530 0.67650 0.82120 0.30000
C 	C 	0.77910 0.69560 0.82680 -0.80300
H 	H 	0.79610 0.69930 0.78820 0.24300
H 	H 	0.80060 0.66680 0.84890 0.25500
H 	H 	0.78100 0.73290 0.84660 0.24000
C 	C 	0.58480 0.67650 0.71310 -0.73400
H 	H 	0.58770 0.71700 0.70160 0.22900
H 	H 	0.54460 0.66720 0.72210 0.21900
H 	H 	0.59820 0.65190 0.68150 0.20000
C 	C 	0.72400 0.64280 0.92800 -0.54700
H 	H 	0.73620 0.68070 0.94210 0.18600
H 	H 	0.75810 0.61870 0.92120 0.18200
H 	H 	0.69920 0.62430 0.95670 0.21500
C 	C 	0.53480 0.61490 0.81260 -0.51900
H 	H 	0.53020 0.59040 0.77850 0.15300
H 	H 	0.50810 0.64750 0.81020 0.17700
H 	H 	0.52650 0.59230 0.84740 0.19400
O 	O 	0.56641 0.63086 0.94758 -0.37600
O 	O 	0.37990 0.54934 0.06952 -0.48400
C 	C 	0.31600 0.68490 0.23028 -0.59500
C 	C 	0.39770 0.60250 0.08111 0.37900
C 	C 	0.36890 0.63150 0.13300 -0.12500
C 	C 	0.30990 0.65020 0.12950 -0.00700
C 	C 	0.37730 0.66590 0.23280 0.26000
C 	C 	0.40180 0.63790 0.18460 0.03100
C 	C 	0.28470 0.67650 0.17880 0.30000
C 	C 	0.22090 0.69560 0.17320 -0.75700
H 	H 	0.20390 0.69930 0.21180 0.22000
H 	H 	0.19940 0.66680 0.15110 0.22300
H 	H 	0.21900 0.73290 0.15340 0.20800
C 	C 	0.41520 0.67650 0.28690 -0.73600
H 	H 	0.41230 0.71700 0.29840 0.22900
H 	H 	0.45540 0.66720 0.27790 0.21900
H 	H 	0.40180 0.65190 0.31850 0.20100
C 	C 	0.27600 0.64280 0.07200 -0.40100
H 	H 	0.26380 0.68070 0.05790 0.10800
H 	H 	0.24190 0.61870 0.07880 0.11100
H 	H 	0.30080 0.62430 0.04330 0.13100
C 	C 	0.46520 0.61490 0.18740 -0.50800
H 	H 	0.46980 0.59040 0.22150 0.15000
H 	H 	0.49190 0.64750 0.18980 0.17200
H 	H 	0.47350 0.59230 0.15260 0.18800
O 	O 	0.43359 0.63086 0.05242 -0.43900
O 	O 	0.62010 0.45066 0.06952 -0.41900
C 	C 	0.68400 0.31510 0.23028 -0.59600
C 	C 	0.60230 0.39750 0.08111 0.38400
C 	C 	0.63110 0.36850 0.13300 -0.12900
C 	C 	0.69010 0.34980 0.12950 -0.00000
C 	C 	0.62270 0.33410 0.23280 0.25900
C 	C 	0.59820 0.36210 0.18460 0.03000
C 	C 	0.71530 0.32350 0.17880 0.30200
C 	C 	0.77910 0.30440 0.17320 -0.77400
H 	H 	0.79610 0.30070 0.21180 0.22900
H 	H 	0.80060 0.33320 0.15110 0.23600
H 	H 	0.78100 0.26710 0.15340 0.21500
C 	C 	0.58480 0.32350 0.28690 -0.73600
H 	H 	0.58770 0.28300 0.29840 0.22800
H 	H 	0.54460 0.33280 0.27790 0.21800
H 	H 	0.59820 0.34810 0.31850 0.20100
C 	C 	0.72400 0.35720 0.07200 -0.42600
H 	H 	0.73620 0.31930 0.05790 0.11700
H 	H 	0.75810 0.38130 0.07880 0.12700
H 	H 	0.69920 0.37570 0.04330 0.14500
C 	C 	0.53480 0.38510 0.18740 -0.50200
H 	H 	0.53020 0.40960 0.22150 0.14800
H 	H 	0.50810 0.35250 0.18980 0.16800
H 	H 	0.52650 0.40770 0.15260 0.18300
O 	O 	0.56641 0.36914 0.05242 -0.50500
O 	O 	0.45066 0.06952 0.62010 -0.49600
C 	C 	0.31510 0.23028 0.68400 -0.59600
C 	C 	0.39750 0.08111 0.60230 0.40100
C 	C 	0.36850 0.13300 0.63110 -0.13400
C 	C 	0.34980 0.12950 0.69010 -0.00100
C 	C 	0.33410 0.23280 0.62270 0.25800
C 	C 	0.36210 0.18460 0.59820 0.03200
C 	C 	0.32350 0.17880 0.71530 0.30200
C 	C 	0.30440 0.17320 0.77910 -0.77300
H 	H 	0.30070 0.21180 0.79610 0.22900
H 	H 	0.33320 0.15110 0.80060 0.23500
H 	H 	0.26710 0.15340 0.78100 0.21500
C 	C 	0.32350 0.28690 0.58480 -0.73500
H 	H 	0.28300 0.29840 0.58770 0.22800
H 	H 	0.33280 0.27790 0.54460 0.21800
H 	H 	0.34810 0.31850 0.59820 0.20100
C 	C 	0.35720 0.07200 0.72400 -0.41700
H 	H 	0.31930 0.05790 0.73620 0.11400
H 	H 	0.38130 0.07880 0.75810 0.12200
H 	H 	0.37570 0.04330 0.69920 0.13700
C 	C 	0.38510 0.18740 0.53480 -0.50400
H 	H 	0.40960 0.22150 0.53020 0.14900
H 	H 	0.35250 0.18980 0.50810 0.16800
H 	H 	0.40770 0.15260 0.52650 0.18300
O 	O 	0.36914 0.05242 0.56641 -0.51900
O 	O 	0.54934 0.06952 0.37990 -0.40700
C 	C 	0.68490 0.23028 0.31600 -0.59600
C 	C 	0.60250 0.08111 0.39770 0.36200
C 	C 	0.63150 0.13300 0.36890 -0.12000
C 	C 	0.65020 0.12950 0.30990 -0.00600
C 	C 	0.66590 0.23280 0.37730 0.26100
C 	C 	0.63790 0.18460 0.40180 0.02900
C 	C 	0.67650 0.17880 0.28470 0.30000
C 	C 	0.69560 0.17320 0.22090 -0.75700
H 	H 	0.69930 0.21180 0.20390 0.22000
H 	H 	0.66680 0.15110 0.19940 0.22300
H 	H 	0.73290 0.15340 0.21900 0.20800
C 	C 	0.67650 0.28690 0.41520 -0.73700
H 	H 	0.71700 0.29840 0.41230 0.22900
H 	H 	0.66720 0.27790 0.45540 0.22000
H 	H 	0.65190 0.31850 0.40180 0.20200
C 	C 	0.64280 0.07200 0.27600 -0.41000
H 	H 	0.68070 0.05790 0.26380 0.11100
H 	H 	0.61870 0.07880 0.24190 0.11600
H 	H 	0.62430 0.04330 0.30080 0.13900
C 	C 	0.61490 0.18740 0.46520 -0.50600
H 	H 	0.59040 0.22150 0.46980 0.14900
H 	H 	0.64750 0.18980 0.49190 0.17100
H 	H 	0.59230 0.15260 0.47350 0.18800
O 	O 	0.63086 0.05242 0.43359 -0.42500
O 	O 	0.54934 0.93048 0.62010 -0.45200
C 	C 	0.68490 0.76972 0.68400 -0.59400
C 	C 	0.60250 0.91889 0.60230 0.37800
C 	C 	0.63150 0.86700 0.63110 -0.13400
C 	C 	0.65020 0.87050 0.69010 0.03900
C 	C 	0.66590 0.76720 0.62270 0.25700
C 	C 	0.63790 0.81540 0.59820 0.04100
C 	C 	0.67650 0.82120 0.71530 0.30000
C 	C 	0.69560 0.82680 0.77910 -0.80300
H 	H 	0.69930 0.78820 0.79610 0.24200
H 	H 	0.66680 0.84890 0.80060 0.25500
H 	H 	0.73290 0.84660 0.78100 0.24000
C 	C 	0.67650 0.71310 0.58480 -0.73300
H 	H 	0.71700 0.70160 0.58770 0.22900
H 	H 	0.66720 0.72210 0.54460 0.21900
H 	H 	0.65190 0.68150 0.59820 0.20000
C 	C 	0.64280 0.92800 0.72400 -0.53800
H 	H 	0.68070 0.94210 0.73620 0.18300
H 	H 	0.61870 0.92120 0.75810 0.17700
H 	H 	0.62430 0.95670 0.69920 0.20700
C 	C 	0.61490 0.81260 0.53480 -0.52000
H 	H 	0.59040 0.77850 0.53020 0.15300
H 	H 	0.64750 0.81020 0.50810 0.17800
H 	H 	0.59230 0.84740 0.52650 0.19400
O 	O 	0.63086 0.94758 0.56641 -0.39000
O 	O 	0.45066 0.93048 0.37990 -0.38800
C 	C 	0.31510 0.76972 0.31600 -0.58700
C 	C 	0.39750 0.91889 0.39770 0.38200
C 	C 	0.36850 0.86700 0.36890 -0.13800
C 	C 	0.34980 0.87050 0.30990 0.04000
C 	C 	0.33410 0.76720 0.37730 0.25300
C 	C 	0.36210 0.81540 0.40180 0.04000
C 	C 	0.32350 0.82120 0.28470 0.28400
C 	C 	0.30440 0.82680 0.22090 -0.75500
H 	H 	0.30070 0.78820 0.20390 0.22100
H 	H 	0.33320 0.84890 0.19940 0.23000
H 	H 	0.26710 0.84660 0.21900 0.21300
C 	C 	0.32350 0.71310 0.41520 -0.72900
H 	H 	0.28300 0.70160 0.41230 0.22700
H 	H 	0.33280 0.72210 0.45540 0.21700
H 	H 	0.34810 0.68150 0.40180 0.19900
C 	C 	0.35720 0.92800 0.27600 -0.52900
H 	H 	0.31930 0.94210 0.26380 0.17100
H 	H 	0.38130 0.92120 0.24190 0.16900
H 	H 	0.37570 0.95670 0.30080 0.20600
C 	C 	0.38510 0.81260 0.46520 -0.51500
H 	H 	0.40960 0.77850 0.46980 0.15200
H 	H 	0.35250 0.81020 0.49190 0.17400
H 	H 	0.40770 0.84740 0.47350 0.18900
O 	O 	0.36914 0.94758 0.43359 -0.45600
O 	O 	0.06952 0.37990 0.54934 -0.48400
C 	C 	0.23028 0.31600 0.68490 -0.59500
C 	C 	0.08111 0.39770 0.60250 0.37900
C 	C 	0.13300 0.36890 0.63150 -0.12500
C 	C 	0.12950 0.30990 0.65020 -0.00700
C 	C 	0.23280 0.37730 0.66590 0.26000
C 	C 	0.18460 0.40180 0.63790 0.03100
C 	C 	0.17880 0.28470 0.67650 0.30000
C 	C 	0.17320 0.22090 0.69560 -0.75700
H 	H 	0.21180 0.20390 0.69930 0.21900
H 	H 	0.15110 0.19940 0.66680 0.22300
H 	H 	0.15340 0.21900 0.73290 0.20800
C 	C 	0.28690 0.41520 0.67650 -0.73600
H 	H 	0.29840 0.41230 0.71700 0.22900
H 	H 	0.27790 0.45540 0.66720 0.21900
H 	H 	0.31850 0.40180 0.65190 0.20100
C 	C 	0.07200 0.27600 0.64280 -0.40100
H 	H 	0.05790 0.26380 0.68070 0.10800
H 	H 	0.07880 0.24190 0.61870 0.11100
H 	H 	0.04330 0.30080 0.62430 0.13100
C 	C 	0.18740 0.46520 0.61490 -0.50800
H 	H 	0.22150 0.46980 0.59040 0.15000
H 	H 	0.18980 0.49190 0.64750 0.17100
H 	H 	0.15260 0.47350 0.59230 0.18800
O 	O 	0.05242 0.43359 0.63086 -0.43900
O 	O 	0.06952 0.62010 0.45066 -0.41900
C 	C 	0.23028 0.68400 0.31510 -0.59700
C 	C 	0.08111 0.60230 0.39750 0.38400
C 	C 	0.13300 0.63110 0.36850 -0.12900
C 	C 	0.12950 0.69010 0.34980 -0.00000
C 	C 	0.23280 0.62270 0.33410 0.25900
C 	C 	0.18460 0.59820 0.36210 0.03000
C 	C 	0.17880 0.71530 0.32350 0.30200
C 	C 	0.17320 0.77910 0.30440 -0.77400
H 	H 	0.21180 0.79610 0.30070 0.22900
H 	H 	0.15110 0.80060 0.33320 0.23600
H 	H 	0.15340 0.78100 0.26710 0.21500
C 	C 	0.28690 0.58480 0.32350 -0.73600
H 	H 	0.29840 0.58770 0.28300 0.22800
H 	H 	0.27790 0.54460 0.33280 0.21800
H 	H 	0.31850 0.59820 0.34810 0.20100
C 	C 	0.07200 0.72400 0.35720 -0.42600
H 	H 	0.05790 0.73620 0.31930 0.11700
H 	H 	0.07880 0.75810 0.38130 0.12700
H 	H 	0.04330 0.69920 0.37570 0.14500
C 	C 	0.18740 0.53480 0.38510 -0.50200
H 	H 	0.22150 0.53020 0.40960 0.14800
H 	H 	0.18980 0.50810 0.35250 0.16800
H 	H 	0.15260 0.52650 0.40770 0.18300
O 	O 	0.05242 0.56641 0.36914 -0.50500
O 	O 	0.93048 0.37990 0.45066 -0.46600
C 	C 	0.76972 0.31600 0.31510 -0.58700
C 	C 	0.91889 0.39770 0.39750 0.40000
C 	C 	0.86700 0.36890 0.36850 -0.14300
C 	C 	0.87050 0.30990 0.34980 0.03900
C 	C 	0.76720 0.37730 0.33410 0.25200
C 	C 	0.81540 0.40180 0.36210 0.04300
C 	C 	0.82120 0.28470 0.32350 0.28400
C 	C 	0.82680 0.22090 0.30440 -0.75500
H 	H 	0.78820 0.20390 0.30070 0.22100
H 	H 	0.84890 0.19940 0.33320 0.22900
H 	H 	0.84660 0.21900 0.26710 0.21300
C 	C 	0.71310 0.41520 0.32350 -0.72800
H 	H 	0.70160 0.41230 0.28300 0.22700
H 	H 	0.72210 0.45540 0.33280 0.21700
H 	H 	0.68150 0.40180 0.34810 0.19900
C 	C 	0.92800 0.27600 0.35720 -0.52000
H 	H 	0.94210 0.26380 0.31930 0.16800
H 	H 	0.92120 0.24190 0.38130 0.16400
H 	H 	0.95670 0.30080 0.37570 0.19800
C 	C 	0.81260 0.46520 0.38510 -0.51700
H 	H 	0.77850 0.46980 0.40960 0.15200
H 	H 	0.81020 0.49190 0.35250 0.17500
H 	H 	0.84740 0.47350 0.40770 0.18900
O 	O 	0.94758 0.43359 0.36914 -0.47000
O 	O 	0.93048 0.62010 0.54934 -0.37400
C 	C 	0.76972 0.68400 0.68490 -0.59400
C 	C 	0.91889 0.60230 0.60250 0.36000
C 	C 	0.86700 0.63110 0.63150 -0.12900
C 	C 	0.87050 0.69010 0.65020 0.04000
C 	C 	0.76720 0.62270 0.66590 0.25800
C 	C 	0.81540 0.59820 0.63790 0.03900
C 	C 	0.82120 0.71530 0.67650 0.30000
C 	C 	0.82680 0.77910 0.69560 -0.80300
H 	H 	0.78820 0.79610 0.69930 0.24300
H 	H 	0.84890 0.80060 0.66680 0.25500
H 	H 	0.84660 0.78100 0.73290 0.24000
C 	C 	0.71310 0.58480 0.67650 -0.73400
H 	H 	0.70160 0.58770 0.71700 0.22900
H 	H 	0.72210 0.54460 0.66720 0.21900
H 	H 	0.68150 0.59820 0.65190 0.20000
C 	C 	0.92800 0.72400 0.64280 -0.54800
H 	H 	0.94210 0.73620 0.68070 0.18600
H 	H 	0.92120 0.75810 0.61870 0.18200
H 	H 	0.95670 0.69920 0.62430 0.21500
C 	C 	0.81260 0.53480 0.61490 -0.51900
H 	H 	0.77850 0.53020 0.59040 0.15300
H 	H 	0.81020 0.50810 0.64750 0.17700
H 	H 	0.84740 0.52650 0.59230 0.19400
O 	O 	0.94758 0.56641 0.63086 -0.37600
Mn	Mn	0.50000 0.38860 -0.00000 1.31400
Cu	Cu	0.50000 0.61140 -0.00000 0.92200
Mn	Mn	-0.00000 0.50000 0.38860 1.31400
Cu	Cu	-0.00000 0.50000 0.61140 0.92200
Mn	Mn	0.38860 -0.00000 0.50000 1.31400
Cu	Cu	0.61140 -0.00000 0.50000 0.92200
Mn	Mn	0.38860 0.50000 -0.00000 1.31400
Cu	Cu	0.61140 0.50000 -0.00000 0.92200
Mn	Mn	0.50000 -0.00000 0.61140 1.31400
Cu	Cu	0.50000 -0.00000 0.38860 0.92200
Mn	Mn	-0.00000 0.38860 0.50000 1.31400
Cu	Cu	-0.00000 0.61140 0.50000 0.92200
Cl	Cl	0.50000 0.50000 -0.00000 -0.84700
Cl	Cl	-0.00000 0.50000 0.50000 -0.84800
Cl	Cl	0.50000 -0.00000 0.50000 -0.84800
B 	B 	0.28660 0.28660 0.28660 1.05800
B 	B 	0.71340 0.71340 0.28660 1.06100
B 	B 	0.71340 0.28660 0.71340 1.06000
B 	B 	0.28660 0.71340 0.71340 1.06000
B 	B 	0.28660 0.28660 0.71340 1.05900
B 	B 	0.71340 0.71340 0.71340 1.06200
B 	B 	0.28660 0.71340 0.28660 1.05900
B 	B 	0.71340 0.28660 0.28660 1.05900
