data_crystal

_cell_length_a 39.58000
_cell_length_b 39.58000
_cell_length_c 27.44500
_cell_angle_alpha 90.00000
_cell_angle_beta  90.00000
_cell_angle_gamma 90.00000

_symmetry_space_group_name_	'P 1'
_symmetry_space_group_name_H-M	'P 1'

loop_
_symmetry_equiv_pos_as_xyz
  x,y,z

loop_
_atom_site_label
_atom_site_type_symbol
_atom_site_fract_x
_atom_site_fract_y
_atom_site_fract_z
_atom_site_charge
O 	O 	0.46540 0.85475 0.95011 -0.38600
O 	O 	0.46532 0.79748 0.95004 -0.38800
O 	O 	0.26484 0.78219 0.83711 -0.19300
C 	C 	0.45488 0.82593 0.93566 0.34000
C 	C 	0.42795 0.82628 0.89645 -0.08200
C 	C 	0.41560 0.79607 0.87840 0.01900
H 	H 	0.42380 0.77560 0.88990 0.04500
C 	C 	0.39062 0.79694 0.84275 -0.08400
H 	H 	0.38190 0.77670 0.83100 0.06600
C 	C 	0.37849 0.82673 0.82443 0.02300
C 	C 	0.39148 0.85663 0.84251 -0.08500
H 	H 	0.38370 0.87710 0.83010 0.06500
C 	C 	0.41541 0.85673 0.87822 0.02200
H 	H 	0.42340 0.87710 0.89050 0.04400
C 	C 	0.35207 0.82673 0.78602 0.08500
C 	C 	0.32698 0.80208 0.78595 -0.16100
H 	H 	0.32700 0.78560 0.81010 0.10700
C 	C 	0.25863 0.76672 0.79312 0.10200
C 	C 	0.24500 0.77310 0.87960 0.06700
O 	O 	0.96540 0.35475 0.45011 -0.39800
O 	O 	0.96532 0.29748 0.45004 -0.39900
O 	O 	0.76484 0.28219 0.33711 -0.19400
C 	C 	0.95488 0.32593 0.43566 0.34200
C 	C 	0.92795 0.32628 0.39645 -0.08700
C 	C 	0.91560 0.29607 0.37840 0.02200
H 	H 	0.92380 0.27560 0.38990 0.04100
C 	C 	0.89062 0.29694 0.34275 -0.08800
H 	H 	0.88190 0.27670 0.33100 0.06500
C 	C 	0.87849 0.32673 0.32443 0.02600
C 	C 	0.89148 0.35663 0.34251 -0.09000
H 	H 	0.88370 0.37710 0.33010 0.06400
C 	C 	0.91541 0.35673 0.37822 0.02400
H 	H 	0.92340 0.37710 0.39050 0.03900
C 	C 	0.85207 0.32673 0.28602 0.08100
C 	C 	0.82698 0.30208 0.28595 -0.16000
H 	H 	0.82700 0.28560 0.31010 0.10400
C 	C 	0.75863 0.26672 0.29312 0.10100
C 	C 	0.74500 0.27310 0.37960 0.06100
O 	O 	0.53460 0.14525 0.95011 -0.38600
O 	O 	0.53468 0.20252 0.95004 -0.38700
O 	O 	0.73516 0.21781 0.83711 -0.19200
C 	C 	0.54512 0.17407 0.93566 0.34100
C 	C 	0.57205 0.17372 0.89645 -0.08200
C 	C 	0.58440 0.20393 0.87840 0.02000
H 	H 	0.57620 0.22440 0.88990 0.04600
C 	C 	0.60938 0.20306 0.84275 -0.08400
H 	H 	0.61810 0.22330 0.83100 0.06700
C 	C 	0.62151 0.17327 0.82443 0.02500
C 	C 	0.60852 0.14337 0.84251 -0.08600
H 	H 	0.61630 0.12290 0.83010 0.06500
C 	C 	0.58459 0.14327 0.87822 0.02200
H 	H 	0.57660 0.12290 0.89050 0.04300
C 	C 	0.64793 0.17327 0.78602 0.08500
C 	C 	0.67302 0.19792 0.78595 -0.16100
H 	H 	0.67300 0.21440 0.81010 0.10700
C 	C 	0.74137 0.23328 0.79312 0.10200
C 	C 	0.75500 0.22690 0.87960 0.06700
O 	O 	0.03460 0.64525 0.45011 -0.40100
O 	O 	0.03468 0.70252 0.45004 -0.40200
O 	O 	0.23516 0.71781 0.33711 -0.19400
C 	C 	0.04512 0.67407 0.43566 0.34300
C 	C 	0.07205 0.67372 0.39645 -0.08900
C 	C 	0.08440 0.70393 0.37840 0.02200
H 	H 	0.07620 0.72440 0.38990 0.04000
C 	C 	0.10938 0.70306 0.34275 -0.08900
H 	H 	0.11810 0.72330 0.33100 0.06500
C 	C 	0.12151 0.67327 0.32443 0.02600
C 	C 	0.10852 0.64337 0.34251 -0.09100
H 	H 	0.11630 0.62290 0.33010 0.06400
C 	C 	0.08459 0.64327 0.37822 0.02500
H 	H 	0.07660 0.62290 0.39050 0.03800
C 	C 	0.14793 0.67327 0.28602 0.08100
C 	C 	0.17302 0.69792 0.28595 -0.15900
H 	H 	0.17300 0.71440 0.31010 0.10400
C 	C 	0.24137 0.73328 0.29312 0.10100
C 	C 	0.25500 0.72690 0.37960 0.06100
O 	O 	0.14525 0.46540 0.95011 -0.38600
O 	O 	0.20252 0.46532 0.95004 -0.38700
O 	O 	0.21781 0.26484 0.83711 -0.19200
C 	C 	0.17407 0.45488 0.93566 0.34100
C 	C 	0.17372 0.42795 0.89645 -0.08200
C 	C 	0.20393 0.41560 0.87840 0.02000
H 	H 	0.22440 0.42380 0.88990 0.04600
C 	C 	0.20306 0.39062 0.84275 -0.08400
H 	H 	0.22330 0.38190 0.83100 0.06700
C 	C 	0.17327 0.37849 0.82443 0.02500
C 	C 	0.14337 0.39148 0.84251 -0.08600
H 	H 	0.12290 0.38370 0.83010 0.06500
C 	C 	0.14327 0.41541 0.87822 0.02200
H 	H 	0.12290 0.42340 0.89050 0.04300
C 	C 	0.17327 0.35207 0.78602 0.08500
C 	C 	0.19792 0.32698 0.78595 -0.16100
H 	H 	0.21440 0.32700 0.81010 0.10700
C 	C 	0.23328 0.25863 0.79312 0.10200
C 	C 	0.22690 0.24500 0.87960 0.06700
O 	O 	0.64525 0.96540 0.45011 -0.39800
O 	O 	0.70252 0.96532 0.45004 -0.39900
O 	O 	0.71781 0.76484 0.33711 -0.19400
C 	C 	0.67407 0.95488 0.43566 0.34200
C 	C 	0.67372 0.92795 0.39645 -0.08700
C 	C 	0.70393 0.91560 0.37840 0.02200
H 	H 	0.72440 0.92380 0.38990 0.04200
C 	C 	0.70306 0.89062 0.34275 -0.08800
H 	H 	0.72330 0.88190 0.33100 0.06600
C 	C 	0.67327 0.87849 0.32443 0.02600
C 	C 	0.64337 0.89148 0.34251 -0.09000
H 	H 	0.62290 0.88370 0.33010 0.06400
C 	C 	0.64327 0.91541 0.37822 0.02400
H 	H 	0.62290 0.92340 0.39050 0.03900
C 	C 	0.67327 0.85207 0.28602 0.08100
C 	C 	0.69792 0.82698 0.28595 -0.16000
H 	H 	0.71440 0.82700 0.31010 0.10500
C 	C 	0.73328 0.75863 0.29312 0.10100
C 	C 	0.72690 0.74500 0.37960 0.06100
O 	O 	0.85475 0.53460 0.95011 -0.38500
O 	O 	0.79748 0.53468 0.95004 -0.38700
O 	O 	0.78219 0.73516 0.83711 -0.19200
C 	C 	0.82593 0.54512 0.93566 0.34100
C 	C 	0.82628 0.57205 0.89645 -0.08100
C 	C 	0.79607 0.58440 0.87840 0.02000
H 	H 	0.77560 0.57620 0.88990 0.04600
C 	C 	0.79694 0.60938 0.84275 -0.08300
H 	H 	0.77670 0.61810 0.83100 0.06700
C 	C 	0.82673 0.62151 0.82443 0.02500
C 	C 	0.85663 0.60852 0.84251 -0.08500
H 	H 	0.87710 0.61630 0.83010 0.06600
C 	C 	0.85673 0.58459 0.87822 0.02200
H 	H 	0.87710 0.57660 0.89050 0.04400
C 	C 	0.82673 0.64793 0.78602 0.08500
C 	C 	0.80208 0.67302 0.78595 -0.16100
H 	H 	0.78560 0.67300 0.81010 0.10700
C 	C 	0.76672 0.74137 0.79312 0.10200
C 	C 	0.77310 0.75500 0.87960 0.06700
O 	O 	0.35475 0.03460 0.45011 -0.40100
O 	O 	0.29748 0.03468 0.45004 -0.40300
O 	O 	0.28219 0.23516 0.33711 -0.19400
C 	C 	0.32593 0.04512 0.43566 0.34300
C 	C 	0.32628 0.07205 0.39645 -0.08900
C 	C 	0.29607 0.08440 0.37840 0.02200
H 	H 	0.27560 0.07620 0.38990 0.04000
C 	C 	0.29694 0.10938 0.34275 -0.08900
H 	H 	0.27670 0.11810 0.33100 0.06500
C 	C 	0.32673 0.12151 0.32443 0.02600
C 	C 	0.35663 0.10852 0.34251 -0.09100
H 	H 	0.37710 0.11630 0.33010 0.06400
C 	C 	0.35673 0.08459 0.37822 0.02500
H 	H 	0.37710 0.07660 0.39050 0.03800
C 	C 	0.32673 0.14793 0.28602 0.08100
C 	C 	0.30208 0.17302 0.28595 -0.15900
H 	H 	0.28560 0.17300 0.31010 0.10400
C 	C 	0.26672 0.24137 0.29312 0.10100
C 	C 	0.27310 0.25500 0.37960 0.06100
O 	O 	0.53460 0.85475 0.04989 -0.40700
O 	O 	0.53468 0.79748 0.04996 -0.40900
O 	O 	0.73516 0.78219 0.16289 -0.19500
C 	C 	0.54512 0.82593 0.06434 0.34300
C 	C 	0.57205 0.82628 0.10355 -0.09300
C 	C 	0.58440 0.79607 0.12160 0.02400
H 	H 	0.57620 0.77560 0.11010 0.03700
C 	C 	0.60938 0.79694 0.15725 -0.09100
H 	H 	0.61810 0.77670 0.16900 0.06500
C 	C 	0.62151 0.82673 0.17557 0.02700
C 	C 	0.60852 0.85663 0.15749 -0.09300
H 	H 	0.61630 0.87710 0.16990 0.06400
C 	C 	0.58459 0.85673 0.12178 0.02600
H 	H 	0.57660 0.87710 0.10950 0.03500
C 	C 	0.64793 0.82673 0.21398 0.08000
C 	C 	0.67302 0.80208 0.21405 -0.15900
H 	H 	0.67300 0.78560 0.18990 0.10300
C 	C 	0.74137 0.76672 0.20688 0.10000
C 	C 	0.75500 0.77310 0.12040 0.05700
O 	O 	0.03460 0.35475 0.54989 -0.40100
O 	O 	0.03468 0.29748 0.54996 -0.40200
O 	O 	0.23516 0.28219 0.66289 -0.19400
C 	C 	0.04512 0.32593 0.56434 0.34300
C 	C 	0.07205 0.32628 0.60355 -0.08800
C 	C 	0.08440 0.29607 0.62160 0.02300
H 	H 	0.07620 0.27560 0.61010 0.04100
C 	C 	0.10938 0.29694 0.65725 -0.08800
H 	H 	0.11810 0.27670 0.66900 0.06700
C 	C 	0.12151 0.32673 0.67557 0.02600
C 	C 	0.10852 0.35663 0.65749 -0.09000
H 	H 	0.11630 0.37710 0.66990 0.06500
C 	C 	0.08459 0.35673 0.62178 0.02500
H 	H 	0.07660 0.37710 0.60950 0.03900
C 	C 	0.14793 0.32673 0.71398 0.08300
C 	C 	0.17302 0.30208 0.71405 -0.16000
H 	H 	0.17300 0.28560 0.68990 0.10500
C 	C 	0.24137 0.26672 0.70688 0.10100
C 	C 	0.25500 0.27310 0.62040 0.06200
O 	O 	0.46540 0.14525 0.04989 -0.40800
O 	O 	0.46532 0.20252 0.04996 -0.40900
O 	O 	0.26484 0.21781 0.16289 -0.19600
C 	C 	0.45488 0.17407 0.06434 0.34300
C 	C 	0.42795 0.17372 0.10355 -0.09300
C 	C 	0.41560 0.20393 0.12160 0.02400
H 	H 	0.42380 0.22440 0.11010 0.03700
C 	C 	0.39062 0.20306 0.15725 -0.09100
H 	H 	0.38190 0.22330 0.16900 0.06500
C 	C 	0.37849 0.17327 0.17557 0.02700
C 	C 	0.39148 0.14337 0.15749 -0.09400
H 	H 	0.38370 0.12290 0.16990 0.06300
C 	C 	0.41541 0.14327 0.12178 0.02600
H 	H 	0.42340 0.12290 0.10950 0.03400
C 	C 	0.35207 0.17327 0.21398 0.08000
C 	C 	0.32698 0.19792 0.21405 -0.15900
H 	H 	0.32700 0.21440 0.18990 0.10300
C 	C 	0.25863 0.23328 0.20688 0.10000
C 	C 	0.24500 0.22690 0.12040 0.05600
O 	O 	0.96540 0.64525 0.54989 -0.39800
O 	O 	0.96532 0.70252 0.54996 -0.39900
O 	O 	0.76484 0.71781 0.66289 -0.19300
C 	C 	0.95488 0.67407 0.56434 0.34300
C 	C 	0.92795 0.67372 0.60355 -0.08700
C 	C 	0.91560 0.70393 0.62160 0.02200
H 	H 	0.92380 0.72440 0.61010 0.04300
C 	C 	0.89062 0.70306 0.65725 -0.08700
H 	H 	0.88190 0.72330 0.66900 0.06700
C 	C 	0.87849 0.67327 0.67557 0.02600
C 	C 	0.89148 0.64337 0.65749 -0.08900
H 	H 	0.88370 0.62290 0.66990 0.06500
C 	C 	0.91541 0.64327 0.62178 0.02400
H 	H 	0.92340 0.62290 0.60950 0.04000
C 	C 	0.85207 0.67327 0.71398 0.08400
C 	C 	0.82698 0.69792 0.71405 -0.16000
H 	H 	0.82700 0.71440 0.68990 0.10600
C 	C 	0.75863 0.73328 0.70688 0.10100
C 	C 	0.74500 0.72690 0.62040 0.06200
O 	O 	0.85475 0.46540 0.04989 -0.40700
O 	O 	0.79748 0.46532 0.04996 -0.40900
O 	O 	0.78219 0.26484 0.16289 -0.19600
C 	C 	0.82593 0.45488 0.06434 0.34300
C 	C 	0.82628 0.42795 0.10355 -0.09300
C 	C 	0.79607 0.41560 0.12160 0.02400
H 	H 	0.77560 0.42380 0.11010 0.03700
C 	C 	0.79694 0.39062 0.15725 -0.09100
H 	H 	0.77670 0.38190 0.16900 0.06500
C 	C 	0.82673 0.37849 0.17557 0.02700
C 	C 	0.85663 0.39148 0.15749 -0.09300
H 	H 	0.87710 0.38370 0.16990 0.06400
C 	C 	0.85673 0.41541 0.12178 0.02600
H 	H 	0.87710 0.42340 0.10950 0.03500
C 	C 	0.82673 0.35207 0.21398 0.08000
C 	C 	0.80208 0.32698 0.21405 -0.15900
H 	H 	0.78560 0.32700 0.18990 0.10300
C 	C 	0.76672 0.25863 0.20688 0.10000
C 	C 	0.77310 0.24500 0.12040 0.05700
O 	O 	0.35475 0.96540 0.54989 -0.39800
O 	O 	0.29748 0.96532 0.54996 -0.39900
O 	O 	0.28219 0.76484 0.66289 -0.19300
C 	C 	0.32593 0.95488 0.56434 0.34300
C 	C 	0.32628 0.92795 0.60355 -0.08700
C 	C 	0.29607 0.91560 0.62160 0.02200
H 	H 	0.27560 0.92380 0.61010 0.04200
C 	C 	0.29694 0.89062 0.65725 -0.08700
H 	H 	0.27670 0.88190 0.66900 0.06700
C 	C 	0.32673 0.87849 0.67557 0.02600
C 	C 	0.35663 0.89148 0.65749 -0.08900
H 	H 	0.37710 0.88370 0.66990 0.06500
C 	C 	0.35673 0.91541 0.62178 0.02400
H 	H 	0.37710 0.92340 0.60950 0.04000
C 	C 	0.32673 0.85207 0.71398 0.08400
C 	C 	0.30208 0.82698 0.71405 -0.16000
H 	H 	0.28560 0.82700 0.68990 0.10500
C 	C 	0.26672 0.75863 0.70688 0.10100
C 	C 	0.27310 0.74500 0.62040 0.06200
O 	O 	0.14525 0.53460 0.04989 -0.40800
O 	O 	0.20252 0.53468 0.04996 -0.40900
O 	O 	0.21781 0.73516 0.16289 -0.19600
C 	C 	0.17407 0.54512 0.06434 0.34300
C 	C 	0.17372 0.57205 0.10355 -0.09300
C 	C 	0.20393 0.58440 0.12160 0.02400
H 	H 	0.22440 0.57620 0.11010 0.03700
C 	C 	0.20306 0.60938 0.15725 -0.09100
H 	H 	0.22330 0.61810 0.16900 0.06500
C 	C 	0.17327 0.62151 0.17557 0.02700
C 	C 	0.14337 0.60852 0.15749 -0.09400
H 	H 	0.12290 0.61630 0.16990 0.06300
C 	C 	0.14327 0.58459 0.12178 0.02600
H 	H 	0.12290 0.57660 0.10950 0.03400
C 	C 	0.17327 0.64793 0.21398 0.08000
C 	C 	0.19792 0.67302 0.21405 -0.15900
H 	H 	0.21440 0.67300 0.18990 0.10300
C 	C 	0.23328 0.74137 0.20688 0.10000
C 	C 	0.22690 0.75500 0.12040 0.05600
O 	O 	0.64525 0.03460 0.54989 -0.40100
O 	O 	0.70252 0.03468 0.54996 -0.40200
O 	O 	0.71781 0.23516 0.66289 -0.19300
C 	C 	0.67407 0.04512 0.56434 0.34300
C 	C 	0.67372 0.07205 0.60355 -0.08800
C 	C 	0.70393 0.08440 0.62160 0.02300
H 	H 	0.72440 0.07620 0.61010 0.04100
C 	C 	0.70306 0.10938 0.65725 -0.08800
H 	H 	0.72330 0.11810 0.66900 0.06700
C 	C 	0.67327 0.12151 0.67557 0.02600
C 	C 	0.64337 0.10852 0.65749 -0.09000
H 	H 	0.62290 0.11630 0.66990 0.06500
C 	C 	0.64327 0.08459 0.62178 0.02500
H 	H 	0.62290 0.07660 0.60950 0.03900
C 	C 	0.67327 0.14793 0.71398 0.08300
C 	C 	0.69792 0.17302 0.71405 -0.16000
H 	H 	0.71440 0.17300 0.68990 0.10500
C 	C 	0.73328 0.24137 0.70688 0.10100
C 	C 	0.72690 0.25500 0.62040 0.06200
O 	O 	0.53460 0.14525 0.04989 -0.40800
O 	O 	0.53468 0.20252 0.04996 -0.40900
O 	O 	0.73516 0.21781 0.16289 -0.19600
C 	C 	0.54512 0.17407 0.06434 0.34300
C 	C 	0.57205 0.17372 0.10355 -0.09300
C 	C 	0.58440 0.20393 0.12160 0.02400
H 	H 	0.57620 0.22440 0.11010 0.03700
C 	C 	0.60938 0.20306 0.15725 -0.09100
H 	H 	0.61810 0.22330 0.16900 0.06500
C 	C 	0.62151 0.17327 0.17557 0.02700
C 	C 	0.60852 0.14337 0.15749 -0.09400
H 	H 	0.61630 0.12290 0.16990 0.06300
C 	C 	0.58459 0.14327 0.12178 0.02600
H 	H 	0.57660 0.12290 0.10950 0.03400
C 	C 	0.64793 0.17327 0.21398 0.08000
C 	C 	0.67302 0.19792 0.21405 -0.15900
H 	H 	0.67300 0.21440 0.18990 0.10300
C 	C 	0.74137 0.23328 0.20688 0.10000
C 	C 	0.75500 0.22690 0.12040 0.05600
O 	O 	0.03460 0.64525 0.54989 -0.40100
O 	O 	0.03468 0.70252 0.54996 -0.40200
O 	O 	0.23516 0.71781 0.66289 -0.19300
C 	C 	0.04512 0.67407 0.56434 0.34300
C 	C 	0.07205 0.67372 0.60355 -0.08800
C 	C 	0.08440 0.70393 0.62160 0.02300
H 	H 	0.07620 0.72440 0.61010 0.04100
C 	C 	0.10938 0.70306 0.65725 -0.08800
H 	H 	0.11810 0.72330 0.66900 0.06700
C 	C 	0.12151 0.67327 0.67557 0.02600
C 	C 	0.10852 0.64337 0.65749 -0.09000
H 	H 	0.11630 0.62290 0.66990 0.06500
C 	C 	0.08459 0.64327 0.62178 0.02500
H 	H 	0.07660 0.62290 0.60950 0.03900
C 	C 	0.14793 0.67327 0.71398 0.08300
C 	C 	0.17302 0.69792 0.71405 -0.16000
H 	H 	0.17300 0.71440 0.68990 0.10500
C 	C 	0.24137 0.73328 0.70688 0.10100
C 	C 	0.25500 0.72690 0.62040 0.06200
O 	O 	0.46540 0.85475 0.04989 -0.40700
O 	O 	0.46532 0.79748 0.04996 -0.40900
O 	O 	0.26484 0.78219 0.16289 -0.19600
C 	C 	0.45488 0.82593 0.06434 0.34300
C 	C 	0.42795 0.82628 0.10355 -0.09300
C 	C 	0.41560 0.79607 0.12160 0.02400
H 	H 	0.42380 0.77560 0.11010 0.03700
C 	C 	0.39062 0.79694 0.15725 -0.09100
H 	H 	0.38190 0.77670 0.16900 0.06500
C 	C 	0.37849 0.82673 0.17557 0.02700
C 	C 	0.39148 0.85663 0.15749 -0.09300
H 	H 	0.38370 0.87710 0.16990 0.06400
C 	C 	0.41541 0.85673 0.12178 0.02600
H 	H 	0.42340 0.87710 0.10950 0.03500
C 	C 	0.35207 0.82673 0.21398 0.08000
C 	C 	0.32698 0.80208 0.21405 -0.15900
H 	H 	0.32700 0.78560 0.18990 0.10300
C 	C 	0.25863 0.76672 0.20688 0.10000
C 	C 	0.24500 0.77310 0.12040 0.05700
O 	O 	0.96540 0.35475 0.54989 -0.39800
O 	O 	0.96532 0.29748 0.54996 -0.39900
O 	O 	0.76484 0.28219 0.66289 -0.19300
C 	C 	0.95488 0.32593 0.56434 0.34300
C 	C 	0.92795 0.32628 0.60355 -0.08700
C 	C 	0.91560 0.29607 0.62160 0.02200
H 	H 	0.92380 0.27560 0.61010 0.04200
C 	C 	0.89062 0.29694 0.65725 -0.08700
H 	H 	0.88190 0.27670 0.66900 0.06700
C 	C 	0.87849 0.32673 0.67557 0.02600
C 	C 	0.89148 0.35663 0.65749 -0.08900
H 	H 	0.88370 0.37710 0.66990 0.06500
C 	C 	0.91541 0.35673 0.62178 0.02400
H 	H 	0.92340 0.37710 0.60950 0.04000
C 	C 	0.85207 0.32673 0.71398 0.08400
C 	C 	0.82698 0.30208 0.71405 -0.16000
H 	H 	0.82700 0.28560 0.68990 0.10500
C 	C 	0.75863 0.26672 0.70688 0.10100
C 	C 	0.74500 0.27310 0.62040 0.06200
O 	O 	0.85475 0.53460 0.04989 -0.40700
O 	O 	0.79748 0.53468 0.04996 -0.40900
O 	O 	0.78219 0.73516 0.16289 -0.19500
C 	C 	0.82593 0.54512 0.06434 0.34300
C 	C 	0.82628 0.57205 0.10355 -0.09300
C 	C 	0.79607 0.58440 0.12160 0.02400
H 	H 	0.77560 0.57620 0.11010 0.03700
C 	C 	0.79694 0.60938 0.15725 -0.09100
H 	H 	0.77670 0.61810 0.16900 0.06500
C 	C 	0.82673 0.62151 0.17557 0.02700
C 	C 	0.85663 0.60852 0.15749 -0.09300
H 	H 	0.87710 0.61630 0.16990 0.06400
C 	C 	0.85673 0.58459 0.12178 0.02600
H 	H 	0.87710 0.57660 0.10950 0.03500
C 	C 	0.82673 0.64793 0.21398 0.08000
C 	C 	0.80208 0.67302 0.21405 -0.15900
H 	H 	0.78560 0.67300 0.18990 0.10300
C 	C 	0.76672 0.74137 0.20688 0.10000
C 	C 	0.77310 0.75500 0.12040 0.05700
O 	O 	0.35475 0.03460 0.54989 -0.40100
O 	O 	0.29748 0.03468 0.54996 -0.40200
O 	O 	0.28219 0.23516 0.66289 -0.19400
C 	C 	0.32593 0.04512 0.56434 0.34300
C 	C 	0.32628 0.07205 0.60355 -0.08800
C 	C 	0.29607 0.08440 0.62160 0.02300
H 	H 	0.27560 0.07620 0.61010 0.04100
C 	C 	0.29694 0.10938 0.65725 -0.08800
H 	H 	0.27670 0.11810 0.66900 0.06700
C 	C 	0.32673 0.12151 0.67557 0.02600
C 	C 	0.35663 0.10852 0.65749 -0.09000
H 	H 	0.37710 0.11630 0.66990 0.06500
C 	C 	0.35673 0.08459 0.62178 0.02500
H 	H 	0.37710 0.07660 0.60950 0.03900
C 	C 	0.32673 0.14793 0.71398 0.08300
C 	C 	0.30208 0.17302 0.71405 -0.16000
H 	H 	0.28560 0.17300 0.68990 0.10500
C 	C 	0.26672 0.24137 0.70688 0.10100
C 	C 	0.27310 0.25500 0.62040 0.06200
O 	O 	0.14525 0.46540 0.04989 -0.40800
O 	O 	0.20252 0.46532 0.04996 -0.40900
O 	O 	0.21781 0.26484 0.16289 -0.19600
C 	C 	0.17407 0.45488 0.06434 0.34300
C 	C 	0.17372 0.42795 0.10355 -0.09300
C 	C 	0.20393 0.41560 0.12160 0.02400
H 	H 	0.22440 0.42380 0.11010 0.03700
C 	C 	0.20306 0.39062 0.15725 -0.09100
H 	H 	0.22330 0.38190 0.16900 0.06500
C 	C 	0.17327 0.37849 0.17557 0.02700
C 	C 	0.14337 0.39148 0.15749 -0.09400
H 	H 	0.12290 0.38370 0.16990 0.06300
C 	C 	0.14327 0.41541 0.12178 0.02600
H 	H 	0.12290 0.42340 0.10950 0.03400
C 	C 	0.17327 0.35207 0.21398 0.08000
C 	C 	0.19792 0.32698 0.21405 -0.15900
H 	H 	0.21440 0.32700 0.18990 0.10300
C 	C 	0.23328 0.25863 0.20688 0.10000
C 	C 	0.22690 0.24500 0.12040 0.05600
O 	O 	0.64525 0.96540 0.54989 -0.39800
O 	O 	0.70252 0.96532 0.54996 -0.39900
O 	O 	0.71781 0.76484 0.66289 -0.19300
C 	C 	0.67407 0.95488 0.56434 0.34300
C 	C 	0.67372 0.92795 0.60355 -0.08700
C 	C 	0.70393 0.91560 0.62160 0.02200
H 	H 	0.72440 0.92380 0.61010 0.04300
C 	C 	0.70306 0.89062 0.65725 -0.08700
H 	H 	0.72330 0.88190 0.66900 0.06700
C 	C 	0.67327 0.87849 0.67557 0.02600
C 	C 	0.64337 0.89148 0.65749 -0.08900
H 	H 	0.62290 0.88370 0.66990 0.06500
C 	C 	0.64327 0.91541 0.62178 0.02400
H 	H 	0.62290 0.92340 0.60950 0.04000
C 	C 	0.67327 0.85207 0.71398 0.08400
C 	C 	0.69792 0.82698 0.71405 -0.16000
H 	H 	0.71440 0.82700 0.68990 0.10600
C 	C 	0.73328 0.75863 0.70688 0.10100
C 	C 	0.72690 0.74500 0.62040 0.06200
O 	O 	0.46540 0.14525 0.95011 -0.38600
O 	O 	0.46532 0.20252 0.95004 -0.38700
O 	O 	0.26484 0.21781 0.83711 -0.19200
C 	C 	0.45488 0.17407 0.93566 0.34100
C 	C 	0.42795 0.17372 0.89645 -0.08200
C 	C 	0.41560 0.20393 0.87840 0.02000
H 	H 	0.42380 0.22440 0.88990 0.04600
C 	C 	0.39062 0.20306 0.84275 -0.08400
H 	H 	0.38190 0.22330 0.83100 0.06700
C 	C 	0.37849 0.17327 0.82443 0.02500
C 	C 	0.39148 0.14337 0.84251 -0.08600
H 	H 	0.38370 0.12290 0.83010 0.06500
C 	C 	0.41541 0.14327 0.87822 0.02200
H 	H 	0.42340 0.12290 0.89050 0.04300
C 	C 	0.35207 0.17327 0.78602 0.08500
C 	C 	0.32698 0.19792 0.78595 -0.16100
H 	H 	0.32700 0.21440 0.81010 0.10700
C 	C 	0.25863 0.23328 0.79312 0.10200
C 	C 	0.24500 0.22690 0.87960 0.06700
O 	O 	0.96540 0.64525 0.45011 -0.39800
O 	O 	0.96532 0.70252 0.45004 -0.39900
O 	O 	0.76484 0.71781 0.33711 -0.19400
C 	C 	0.95488 0.67407 0.43566 0.34200
C 	C 	0.92795 0.67372 0.39645 -0.08700
C 	C 	0.91560 0.70393 0.37840 0.02200
H 	H 	0.92380 0.72440 0.38990 0.04200
C 	C 	0.89062 0.70306 0.34275 -0.08800
H 	H 	0.88190 0.72330 0.33100 0.06600
C 	C 	0.87849 0.67327 0.32443 0.02600
C 	C 	0.89148 0.64337 0.34251 -0.09000
H 	H 	0.88370 0.62290 0.33010 0.06400
C 	C 	0.91541 0.64327 0.37822 0.02400
H 	H 	0.92340 0.62290 0.39050 0.03900
C 	C 	0.85207 0.67327 0.28602 0.08100
C 	C 	0.82698 0.69792 0.28595 -0.16000
H 	H 	0.82700 0.71440 0.31010 0.10500
C 	C 	0.75863 0.73328 0.29312 0.10100
C 	C 	0.74500 0.72690 0.37960 0.06100
O 	O 	0.53460 0.85475 0.95011 -0.38500
O 	O 	0.53468 0.79748 0.95004 -0.38700
O 	O 	0.73516 0.78219 0.83711 -0.19200
C 	C 	0.54512 0.82593 0.93566 0.34100
C 	C 	0.57205 0.82628 0.89645 -0.08100
C 	C 	0.58440 0.79607 0.87840 0.02000
H 	H 	0.57620 0.77560 0.88990 0.04600
C 	C 	0.60938 0.79694 0.84275 -0.08300
H 	H 	0.61810 0.77670 0.83100 0.06700
C 	C 	0.62151 0.82673 0.82443 0.02500
C 	C 	0.60852 0.85663 0.84251 -0.08500
H 	H 	0.61630 0.87710 0.83010 0.06600
C 	C 	0.58459 0.85673 0.87822 0.02200
H 	H 	0.57660 0.87710 0.89050 0.04400
C 	C 	0.64793 0.82673 0.78602 0.08500
C 	C 	0.67302 0.80208 0.78595 -0.16100
H 	H 	0.67300 0.78560 0.81010 0.10700
C 	C 	0.74137 0.76672 0.79312 0.10200
C 	C 	0.75500 0.77310 0.87960 0.06700
O 	O 	0.03460 0.35475 0.45011 -0.40100
O 	O 	0.03468 0.29748 0.45004 -0.40300
O 	O 	0.23516 0.28219 0.33711 -0.19400
C 	C 	0.04512 0.32593 0.43566 0.34300
C 	C 	0.07205 0.32628 0.39645 -0.08900
C 	C 	0.08440 0.29607 0.37840 0.02200
H 	H 	0.07620 0.27560 0.38990 0.04000
C 	C 	0.10938 0.29694 0.34275 -0.08900
H 	H 	0.11810 0.27670 0.33100 0.06500
C 	C 	0.12151 0.32673 0.32443 0.02600
C 	C 	0.10852 0.35663 0.34251 -0.09100
H 	H 	0.11630 0.37710 0.33010 0.06400
C 	C 	0.08459 0.35673 0.37822 0.02500
H 	H 	0.07660 0.37710 0.39050 0.03800
C 	C 	0.14793 0.32673 0.28602 0.08100
C 	C 	0.17302 0.30208 0.28595 -0.15900
H 	H 	0.17300 0.28560 0.31010 0.10400
C 	C 	0.24137 0.26672 0.29312 0.10100
C 	C 	0.25500 0.27310 0.37960 0.06100
O 	O 	0.14525 0.53460 0.95011 -0.38600
O 	O 	0.20252 0.53468 0.95004 -0.38700
O 	O 	0.21781 0.73516 0.83711 -0.19200
C 	C 	0.17407 0.54512 0.93566 0.34100
C 	C 	0.17372 0.57205 0.89645 -0.08200
C 	C 	0.20393 0.58440 0.87840 0.02000
H 	H 	0.22440 0.57620 0.88990 0.04600
C 	C 	0.20306 0.60938 0.84275 -0.08400
H 	H 	0.22330 0.61810 0.83100 0.06700
C 	C 	0.17327 0.62151 0.82443 0.02500
C 	C 	0.14337 0.60852 0.84251 -0.08600
H 	H 	0.12290 0.61630 0.83010 0.06500
C 	C 	0.14327 0.58459 0.87822 0.02200
H 	H 	0.12290 0.57660 0.89050 0.04300
C 	C 	0.17327 0.64793 0.78602 0.08500
C 	C 	0.19792 0.67302 0.78595 -0.16100
H 	H 	0.21440 0.67300 0.81010 0.10700
C 	C 	0.23328 0.74137 0.79312 0.10200
C 	C 	0.22690 0.75500 0.87960 0.06700
O 	O 	0.64525 0.03460 0.45011 -0.40100
O 	O 	0.70252 0.03468 0.45004 -0.40200
O 	O 	0.71781 0.23516 0.33711 -0.19400
C 	C 	0.67407 0.04512 0.43566 0.34300
C 	C 	0.67372 0.07205 0.39645 -0.08900
C 	C 	0.70393 0.08440 0.37840 0.02200
H 	H 	0.72440 0.07620 0.38990 0.04000
C 	C 	0.70306 0.10938 0.34275 -0.08900
H 	H 	0.72330 0.11810 0.33100 0.06500
C 	C 	0.67327 0.12151 0.32443 0.02600
C 	C 	0.64337 0.10852 0.34251 -0.09100
H 	H 	0.62290 0.11630 0.33010 0.06400
C 	C 	0.64327 0.08459 0.37822 0.02500
H 	H 	0.62290 0.07660 0.39050 0.03800
C 	C 	0.67327 0.14793 0.28602 0.08100
C 	C 	0.69792 0.17302 0.28595 -0.15900
H 	H 	0.71440 0.17300 0.31010 0.10400
C 	C 	0.73328 0.24137 0.29312 0.10100
C 	C 	0.72690 0.25500 0.37960 0.06100
O 	O 	0.85475 0.46540 0.95011 -0.38500
O 	O 	0.79748 0.46532 0.95004 -0.38700
O 	O 	0.78219 0.26484 0.83711 -0.19200
C 	C 	0.82593 0.45488 0.93566 0.34100
C 	C 	0.82628 0.42795 0.89645 -0.08100
C 	C 	0.79607 0.41560 0.87840 0.02000
H 	H 	0.77560 0.42380 0.88990 0.04600
C 	C 	0.79694 0.39062 0.84275 -0.08300
H 	H 	0.77670 0.38190 0.83100 0.06700
C 	C 	0.82673 0.37849 0.82443 0.02400
C 	C 	0.85663 0.39148 0.84251 -0.08500
H 	H 	0.87710 0.38370 0.83010 0.06500
C 	C 	0.85673 0.41541 0.87822 0.02200
H 	H 	0.87710 0.42340 0.89050 0.04400
C 	C 	0.82673 0.35207 0.78602 0.08500
C 	C 	0.80208 0.32698 0.78595 -0.16100
H 	H 	0.78560 0.32700 0.81010 0.10700
C 	C 	0.76672 0.25863 0.79312 0.10200
C 	C 	0.77310 0.24500 0.87960 0.06700
O 	O 	0.35475 0.96540 0.45011 -0.39800
O 	O 	0.29748 0.96532 0.45004 -0.39900
O 	O 	0.28219 0.76484 0.33711 -0.19400
C 	C 	0.32593 0.95488 0.43566 0.34200
C 	C 	0.32628 0.92795 0.39645 -0.08700
C 	C 	0.29607 0.91560 0.37840 0.02200
H 	H 	0.27560 0.92380 0.38990 0.04100
C 	C 	0.29694 0.89062 0.34275 -0.08800
H 	H 	0.27670 0.88190 0.33100 0.06500
C 	C 	0.32673 0.87849 0.32443 0.02600
C 	C 	0.35663 0.89148 0.34251 -0.09000
H 	H 	0.37710 0.88370 0.33010 0.06400
C 	C 	0.35673 0.91541 0.37822 0.02400
H 	H 	0.37710 0.92340 0.39050 0.03900
C 	C 	0.32673 0.85207 0.28602 0.08100
C 	C 	0.30208 0.82698 0.28595 -0.16000
H 	H 	0.28560 0.82700 0.31010 0.10400
C 	C 	0.26672 0.75863 0.29312 0.10100
C 	C 	0.27310 0.74500 0.37960 0.06100
Cu	Cu	0.50000 0.79278 -0.00000 0.89300
Cu	Cu	0.50000 0.85973 -0.00000 0.89300
Cu	Cu	-0.00000 0.29278 0.50000 0.90400
Cu	Cu	0.00000 0.35973 0.50000 0.90400
Cu	Cu	0.50000 0.20722 -0.00000 0.89300
Cu	Cu	0.50000 0.14027 -0.00000 0.89200
Cu	Cu	-0.00000 0.70722 0.50000 0.90500
Cu	Cu	-0.00000 0.64027 0.50000 0.90400
Cu	Cu	0.20722 0.50000 -0.00000 0.89300
Cu	Cu	0.14027 0.50000 -0.00000 0.89200
Cu	Cu	0.70722 0.00000 0.50000 0.90500
Cu	Cu	0.64027 0.00000 0.50000 0.90400
Cu	Cu	0.79278 0.50000 -0.00000 0.89300
Cu	Cu	0.85973 0.50000 -0.00000 0.89300
Cu	Cu	0.29278 0.00000 0.50000 0.90400
Cu	Cu	0.35973 0.00000 0.50000 0.90400
C 	C 	0.35143 0.85143 0.75000 -0.14300
H 	H 	0.36800 0.86800 0.75000 0.08300
C 	C 	0.30150 0.80150 0.75000 0.14500
C 	C 	0.27502 0.77502 0.75000 -0.10000
C 	C 	0.64857 0.14857 0.75000 -0.14300
H 	H 	0.63200 0.13200 0.75000 0.08300
C 	C 	0.69850 0.19850 0.75000 0.14500
C 	C 	0.72498 0.22498 0.75000 -0.10000
C 	C 	0.14857 0.35143 0.75000 -0.14300
H 	H 	0.13200 0.36800 0.75000 0.08300
C 	C 	0.19850 0.30150 0.75000 0.14500
C 	C 	0.22498 0.27502 0.75000 -0.10000
C 	C 	0.64857 0.85143 0.25000 -0.14200
H 	H 	0.63200 0.86800 0.25000 0.08100
C 	C 	0.69850 0.80150 0.25000 0.14300
C 	C 	0.72498 0.77502 0.25000 -0.10100
C 	C 	0.85143 0.64857 0.75000 -0.14300
H 	H 	0.86800 0.63200 0.75000 0.08300
C 	C 	0.80150 0.69850 0.75000 0.14500
C 	C 	0.77502 0.72498 0.75000 -0.10000
C 	C 	0.35143 0.14857 0.25000 -0.14100
H 	H 	0.36800 0.13200 0.25000 0.08100
C 	C 	0.30150 0.19850 0.25000 0.14200
C 	C 	0.27502 0.22498 0.25000 -0.10100
C 	C 	0.85143 0.35143 0.25000 -0.14200
H 	H 	0.86800 0.36800 0.25000 0.08100
C 	C 	0.80150 0.30150 0.25000 0.14200
C 	C 	0.77502 0.27502 0.25000 -0.10100
C 	C 	0.14857 0.64857 0.25000 -0.14100
H 	H 	0.13200 0.63200 0.25000 0.08100
C 	C 	0.19850 0.69850 0.25000 0.14200
C 	C 	0.22498 0.72498 0.25000 -0.10100
C 	C 	0.64857 0.14857 0.25000 -0.14100
H 	H 	0.63200 0.13200 0.25000 0.08100
C 	C 	0.69850 0.19850 0.25000 0.14200
C 	C 	0.72498 0.22498 0.25000 -0.10100
C 	C 	0.35143 0.85143 0.25000 -0.14200
H 	H 	0.36800 0.86800 0.25000 0.08100
C 	C 	0.30150 0.80150 0.25000 0.14200
C 	C 	0.27502 0.77502 0.25000 -0.10100
C 	C 	0.85143 0.64857 0.25000 -0.14200
H 	H 	0.86800 0.63200 0.25000 0.08100
C 	C 	0.80150 0.69850 0.25000 0.14300
C 	C 	0.77502 0.72498 0.25000 -0.10100
C 	C 	0.14857 0.35143 0.25000 -0.14100
H 	H 	0.13200 0.36800 0.25000 0.08100
C 	C 	0.19850 0.30150 0.25000 0.14200
C 	C 	0.22498 0.27502 0.25000 -0.10100
C 	C 	0.35143 0.14857 0.75000 -0.14300
H 	H 	0.36800 0.13200 0.75000 0.08300
C 	C 	0.30150 0.19850 0.75000 0.14500
C 	C 	0.27502 0.22498 0.75000 -0.10000
C 	C 	0.64857 0.85143 0.75000 -0.14300
H 	H 	0.63200 0.86800 0.75000 0.08300
C 	C 	0.69850 0.80150 0.75000 0.14500
C 	C 	0.72498 0.77502 0.75000 -0.10000
C 	C 	0.14857 0.64857 0.75000 -0.14300
H 	H 	0.13200 0.63200 0.75000 0.08300
C 	C 	0.19850 0.69850 0.75000 0.14500
C 	C 	0.22498 0.72498 0.75000 -0.10000
C 	C 	0.85143 0.35143 0.75000 -0.14300
H 	H 	0.86800 0.36800 0.75000 0.08300
C 	C 	0.80150 0.30150 0.75000 0.14500
C 	C 	0.77502 0.27502 0.75000 -0.10000
