data_crystal

_cell_length_a 13.18970
_cell_length_b 16.43800
_cell_length_c 15.47250
_cell_angle_alpha 90.00000
_cell_angle_beta  102.34500
_cell_angle_gamma 90.00000

_symmetry_space_group_name_	'P 1'
_symmetry_space_group_name_H-M	'P 1'

loop_
_symmetry_equiv_pos_as_xyz
  x,y,z

loop_
_atom_site_label
_atom_site_type_symbol
_atom_site_fract_x
_atom_site_fract_y
_atom_site_fract_z
_atom_site_charge
V 	V 	0.34037 0.83342 0.85190 1.71100
V 	V 	0.78198 0.99580 0.12255 1.71400
Zn	Zn	0.49027 0.80492 0.07205 1.13300
V 	V 	0.72560 0.83974 0.24685 1.73400
C 	C 	0.37490 0.07680 0.40940 0.09100
H 	H 	0.36530 0.01870 0.41520 -0.02600
H 	H 	0.31440 0.10400 0.42190 -0.01100
C 	C 	0.09790 0.13540 0.47290 0.06300
H 	H 	0.14680 0.16450 0.51340 -0.05600
C 	C 	0.28810 0.79540 0.13240 0.12400
H 	H 	0.26460 0.78630 0.07210 -0.04900
C 	C 	0.42850 0.32360 0.53240 0.10100
H 	H 	0.38920 0.35200 0.56570 -0.05300
C 	C 	0.11300 0.05320 0.46420 -0.16500
H 	H 	0.17110 0.02810 0.49850 0.04200
C 	C 	0.94770 0.13150 0.36780 0.09900
H 	H 	0.89060 0.15800 0.33380 -0.04800
C 	C 	0.17030 0.81460 0.33270 -0.23900
H 	H 	0.20150 0.79580 0.39180 0.05600
H 	H 	0.11020 0.78100 0.30950 0.04200
C 	C 	0.95750 0.04970 0.35610 -0.13000
H 	H 	0.90710 0.02200 0.31540 0.03500
C 	C 	0.13770 0.90400 0.33540 -0.01300
H 	H 	0.19890 0.93670 0.35790 0.04000
H 	H 	0.10840 0.92210 0.27560 0.03400
C 	C 	0.11020 0.07190 0.18090 0.13600
H 	H 	0.04400 0.09100 0.18170 -0.04800
C 	C 	0.42220 0.24000 0.53050 -0.20200
H 	H 	0.37830 0.21340 0.56100 0.04300
C 	C 	0.21650 0.79740 0.18400 -0.24200
H 	H 	0.14650 0.79100 0.15840 0.10400
C 	C 	0.54600 0.32340 0.44290 0.09800
H 	H 	0.58800 0.35160 0.41190 -0.06900
C 	C 	0.41960 0.81820 0.24990 0.14100
H 	H 	0.48990 0.82640 0.27350 -0.09900
C 	C 	0.30140 0.01590 0.18090 -0.37200
H 	H 	0.36650 0.99500 0.17900 0.07800
C 	C 	0.38290 0.09560 0.31500 -0.31900
H 	H 	0.39150 0.15380 0.30940 0.09600
H 	H 	0.44450 0.06940 0.30330 0.05500
C 	C 	0.21660 0.99340 0.11780 0.20200
H 	H 	0.22610 0.95650 0.07460 -0.13700
C 	C 	0.19050 0.09660 0.24700 -0.27400
H 	H 	0.17880 0.13130 0.29130 0.12500
C 	C 	0.35240 0.81980 0.30600 -0.25100
H 	H 	0.37760 0.82820 0.36620 0.10500
C 	C 	0.47320 0.10420 0.47870 -0.29600
H 	H 	0.53470 0.08180 0.46280 0.08300
H 	H 	0.46940 0.08330 0.53650 0.07900
C 	C 	0.54580 0.23900 0.43980 -0.22600
H 	H 	0.58870 0.21180 0.40890 0.05700
C 	C 	0.05900 0.91830 0.39260 -0.19100
H 	H 	0.99370 0.89270 0.36520 0.05700
H 	H 	0.08360 0.89340 0.45010 0.05800
N 	N 	0.38940 0.80550 0.16280 -0.30200
N 	N 	0.12110 0.02130 0.11470 -0.30900
C 	C 	0.48160 0.19510 0.48290 0.16000
N 	N 	0.48830 0.36630 0.48890 -0.25400
C 	C 	0.29100 0.06880 0.24670 0.22500
C 	C 	0.24740 0.80890 0.27380 0.18500
N 	N 	0.01600 0.17550 0.42560 -0.29200
C 	C 	0.04150 0.00760 0.40430 0.05800
O 	O 	0.36610 0.80805 0.95800 -0.83600
O 	O 	0.62320 0.81380 0.17060 -0.87400
O 	O 	0.30370 0.74810 0.78160 -0.90300
O 	O 	0.88700 0.00119 0.07950 -0.73800
O 	O 	0.79870 0.91664 0.20280 -0.91000
O 	O 	0.23710 0.90788 0.83010 -0.90300
V 	V 	0.15963 0.33342 0.64810 1.70700
V 	V 	0.71802 0.49580 0.37745 1.71600
Zn	Zn	0.00973 0.30492 0.42795 1.13300
V 	V 	0.77440 0.33974 0.25315 1.73600
C 	C 	0.12510 0.57680 0.09060 0.11500
H 	H 	0.13470 0.51870 0.08480 -0.03200
H 	H 	0.18560 0.60400 0.07810 -0.02000
C 	C 	0.40210 0.63540 0.02710 0.02000
H 	H 	0.35320 0.66450 0.98660 -0.01800
C 	C 	0.21190 0.29540 0.36760 0.12200
H 	H 	0.23540 0.28630 0.42790 -0.03900
C 	C 	0.07150 0.82360 0.96760 0.12400
H 	H 	0.11080 0.85200 0.93430 -0.05500
C 	C 	0.38700 0.55320 0.03580 -0.17000
H 	H 	0.32890 0.52810 0.00150 0.04300
C 	C 	0.55230 0.63150 0.13220 0.08800
H 	H 	0.60940 0.65800 0.16620 -0.05100
C 	C 	0.32970 0.31460 0.16730 -0.25500
H 	H 	0.29850 0.29580 0.10820 0.05600
H 	H 	0.38980 0.28100 0.19050 0.04900
C 	C 	0.54250 0.54970 0.14390 -0.20200
H 	H 	0.59290 0.52200 0.18460 0.05600
C 	C 	0.36230 0.40400 0.16460 0.01900
H 	H 	0.30110 0.43670 0.14210 0.01900
H 	H 	0.39160 0.42210 0.22440 0.02200
C 	C 	0.38980 0.57190 0.31910 0.11500
H 	H 	0.45600 0.59100 0.31830 -0.02600
C 	C 	0.07780 0.74000 0.96950 -0.17400
H 	H 	0.12170 0.71340 0.93900 0.03800
C 	C 	0.28350 0.29740 0.31600 -0.24400
H 	H 	0.35350 0.29100 0.34160 0.10800
C 	C 	0.95400 0.82340 0.05710 0.10100
H 	H 	0.91200 0.85160 0.08810 -0.06900
C 	C 	0.08040 0.31820 0.25010 0.13900
H 	H 	0.01010 0.32640 0.22650 -0.11100
C 	C 	0.19860 0.51590 0.31910 -0.24500
H 	H 	0.13350 0.49500 0.32100 0.02000
C 	C 	0.11710 0.59560 0.18500 -0.29600
H 	H 	0.10850 0.65380 0.19060 0.08800
H 	H 	0.05550 0.56940 0.19670 0.04600
C 	C 	0.28340 0.49340 0.38220 0.09800
H 	H 	0.27390 0.45650 0.42540 -0.09600
C 	C 	0.30950 0.59660 0.25300 -0.22800
H 	H 	0.32120 0.63130 0.20870 0.11300
C 	C 	0.14760 0.31980 0.19400 -0.25500
H 	H 	0.12240 0.32820 0.13380 0.09500
C 	C 	0.02680 0.60420 0.02130 -0.39000
H 	H 	0.96530 0.58180 0.03720 0.12400
H 	H 	0.03060 0.58330 0.96350 0.12200
C 	C 	0.95420 0.73900 0.06020 -0.20400
H 	H 	0.91130 0.71180 0.09110 0.05100
C 	C 	0.44100 0.41830 0.10740 -0.23700
H 	H 	0.50630 0.39270 0.13480 0.05400
H 	H 	0.41640 0.39340 0.04990 0.06200
N 	N 	0.11060 0.30550 0.33720 -0.30400
N 	N 	0.37890 0.52130 0.38530 -0.26700
C 	C 	0.01840 0.69510 0.01710 0.12500
N 	N 	0.01170 0.86630 0.01110 -0.28000
C 	C 	0.20900 0.56880 0.25330 0.17000
C 	C 	0.25260 0.30890 0.22620 0.18800
N 	N 	0.48400 0.67550 0.07440 -0.27300
C 	C 	0.45850 0.50760 0.09570 0.13800
O 	O 	0.13390 0.30805 0.54200 -0.85900
O 	O 	0.87680 0.31380 0.32940 -0.85700
O 	O 	0.19630 0.24810 0.71840 -0.90700
O 	O 	0.61300 0.50119 0.42050 -0.74000
O 	O 	0.70130 0.41664 0.29720 -0.91300
O 	O 	0.26290 0.40788 0.66990 -0.91800
V 	V 	0.65963 0.16658 0.14810 1.70800
V 	V 	0.21802 0.00420 0.87745 1.69900
Zn	Zn	0.50973 0.19508 0.92795 1.14300
V 	V 	0.27440 0.16026 0.75315 1.73400
C 	C 	0.62510 0.92320 0.59060 0.02500
H 	H 	0.63470 0.98130 0.58480 0.00800
H 	H 	0.68560 0.89600 0.57810 0.01300
C 	C 	0.90210 0.86460 0.52710 0.10900
H 	H 	0.85320 0.83550 0.48660 -0.06700
C 	C 	0.71190 0.20460 0.86760 0.12400
H 	H 	0.73540 0.21370 0.92790 -0.03300
C 	C 	0.57150 0.67640 0.46760 0.09900
H 	H 	0.61080 0.64800 0.43430 -0.05200
C 	C 	0.88700 0.94680 0.53580 -0.21900
H 	H 	0.82890 0.97190 0.50150 0.07400
C 	C 	0.05230 0.86850 0.63220 0.09400
H 	H 	0.10940 0.84200 0.66620 -0.05300
C 	C 	0.82970 0.18540 0.66730 -0.26500
H 	H 	0.79850 0.20420 0.60820 0.06600
H 	H 	0.88980 0.21900 0.69050 0.06100
C 	C 	0.04250 0.95030 0.64390 -0.23500
H 	H 	0.09290 0.97800 0.68460 0.07700
C 	C 	0.86230 0.09600 0.66460 0.01900
H 	H 	0.80110 0.06330 0.64210 0.01300
H 	H 	0.89160 0.07790 0.72440 0.02300
C 	C 	0.88980 0.92810 0.81910 0.08300
H 	H 	0.95600 0.90900 0.81830 -0.00500
C 	C 	0.57780 0.76000 0.46950 -0.19700
H 	H 	0.62170 0.78660 0.43900 0.04200
C 	C 	0.78350 0.20260 0.81600 -0.25000
H 	H 	0.85350 0.20900 0.84160 0.11700
C 	C 	0.45400 0.67660 0.55710 0.09500
H 	H 	0.41200 0.64840 0.58810 -0.06800
C 	C 	0.58040 0.18180 0.75010 0.14500
H 	H 	0.51010 0.17360 0.72650 -0.10200
C 	C 	0.69860 0.98410 0.81910 -0.08500
H 	H 	0.63350 0.00500 0.82100 -0.04500
C 	C 	0.61710 0.90440 0.68500 -0.20700
H 	H 	0.60850 0.84620 0.69060 0.06500
H 	H 	0.55550 0.93060 0.69670 0.03400
C 	C 	0.78340 0.00660 0.88220 -0.02000
H 	H 	0.77390 0.04350 0.92540 -0.05200
C 	C 	0.80950 0.90340 0.75300 -0.16400
H 	H 	0.82120 0.86870 0.70870 0.09200
C 	C 	0.64760 0.18020 0.69400 -0.26200
H 	H 	0.62240 0.17180 0.63380 0.10600
C 	C 	0.52680 0.89580 0.52130 -0.26600
H 	H 	0.46530 0.91820 0.53720 0.08500
H 	H 	0.53060 0.91670 0.46350 0.07800
C 	C 	0.45420 0.76100 0.56020 -0.22000
H 	H 	0.41130 0.78820 0.59110 0.05700
C 	C 	0.94100 0.08170 0.60740 -0.21000
H 	H 	0.00630 0.10730 0.63480 0.02100
H 	H 	0.91640 0.10660 0.54990 0.06700
N 	N 	0.61060 0.19450 0.83720 -0.30000
N 	N 	0.87890 0.97870 0.88530 -0.21900
C 	C 	0.51840 0.80490 0.51710 0.15100
N 	N 	0.51170 0.63370 0.51110 -0.25300
C 	C 	0.70900 0.93120 0.75330 0.08500
C 	C 	0.75260 0.19110 0.72620 0.19700
N 	N 	0.98400 0.82450 0.57440 -0.27300
C 	C 	0.95850 0.99240 0.59570 0.19000
O 	O 	0.63390 0.19195 0.04200 -0.86500
O 	O 	0.37680 0.18620 0.82940 -0.87000
O 	O 	0.69630 0.25190 0.21840 -0.90400
O 	O 	0.11300 0.99881 0.92050 -0.71100
O 	O 	0.20130 0.08336 0.79720 -0.92700
O 	O 	0.76290 0.09212 0.16990 -0.91900
V 	V 	0.84037 0.66658 0.35190 1.71100
V 	V 	0.28198 0.50420 0.62255 1.71400
Zn	Zn	0.99027 0.69508 0.57205 1.14500
V 	V 	0.22560 0.66026 0.74685 1.73500
C 	C 	0.87490 0.42320 0.90940 0.00400
H 	H 	0.86530 0.48130 0.91520 0.01500
H 	H 	0.81440 0.39600 0.92190 0.02000
C 	C 	0.59790 0.36460 0.97290 0.17100
H 	H 	0.64680 0.33550 0.01340 -0.10700
C 	C 	0.78810 0.70460 0.63240 0.13300
H 	H 	0.76460 0.71370 0.57210 -0.04200
C 	C 	0.92850 0.17640 0.03240 0.09500
H 	H 	0.88920 0.14800 0.06570 -0.04900
C 	C 	0.61300 0.44680 0.96420 -0.26500
H 	H 	0.67110 0.47190 0.99850 0.09500
C 	C 	0.44770 0.36850 0.86780 0.12500
H 	H 	0.39060 0.34200 0.83380 -0.06000
C 	C 	0.67030 0.68540 0.83270 -0.30200
H 	H 	0.70150 0.70420 0.89180 0.08200
H 	H 	0.61020 0.71900 0.80950 0.06800
C 	C 	0.45750 0.45030 0.85610 -0.24800
H 	H 	0.40710 0.47800 0.81540 0.07500
C 	C 	0.63770 0.59600 0.83540 0.07600
H 	H 	0.69890 0.56330 0.85790 0.00500
H 	H 	0.60840 0.57790 0.77560 0.00400
C 	C 	0.61020 0.42810 0.68090 0.10800
H 	H 	0.54400 0.40900 0.68170 -0.02300
C 	C 	0.92220 0.26000 0.03050 -0.22100
H 	H 	0.87830 0.28660 0.06100 0.04800
C 	C 	0.71650 0.70260 0.68400 -0.26100
H 	H 	0.64650 0.70900 0.65840 0.11600
C 	C 	0.04600 0.17660 0.94290 0.07200
H 	H 	0.08800 0.14840 0.91190 -0.06900
C 	C 	0.91960 0.68180 0.74990 0.15400
H 	H 	0.98990 0.67360 0.77350 -0.09500
C 	C 	0.80140 0.48410 0.68090 -0.23000
H 	H 	0.86650 0.50500 0.67900 0.02300
C 	C 	0.88290 0.40440 0.81500 -0.23600
H 	H 	0.89150 0.34620 0.80940 0.07600
H 	H 	0.94450 0.43060 0.80330 0.04300
C 	C 	0.71660 0.50660 0.61780 0.09200
H 	H 	0.72610 0.54350 0.57460 -0.09300
C 	C 	0.69050 0.40340 0.74700 -0.21300
H 	H 	0.67880 0.36870 0.79130 0.10700
C 	C 	0.85240 0.68020 0.80600 -0.27300
H 	H 	0.87760 0.67180 0.86620 0.12000
C 	C 	0.97320 0.39580 0.97870 -0.17400
H 	H 	0.03470 0.41820 0.96280 0.04000
H 	H 	0.96940 0.41670 0.03650 0.03900
C 	C 	0.04580 0.26100 0.93980 -0.25000
H 	H 	0.08870 0.28820 0.90890 0.06200
C 	C 	0.55900 0.58170 0.89260 -0.31000
H 	H 	0.49370 0.60730 0.86520 0.08100
H 	H 	0.58360 0.60660 0.95010 0.10000
N 	N 	0.88940 0.69450 0.66280 -0.30200
N 	N 	0.62110 0.47870 0.61470 -0.26400
C 	C 	0.98160 0.30490 0.98290 0.18800
N 	N 	0.98830 0.13370 0.98890 -0.22100
C 	C 	0.79100 0.43120 0.74670 0.14900
C 	C 	0.74740 0.69110 0.77380 0.21700
N 	N 	0.51600 0.32450 0.92560 -0.29500
C 	C 	0.54150 0.49240 0.90430 0.21200
O 	O 	0.86610 0.69195 0.45800 -0.85000
O 	O 	0.12320 0.68620 0.67060 -0.87900
O 	O 	0.80370 0.75190 0.28160 -0.90100
O 	O 	0.38700 0.49881 0.57950 -0.74100
O 	O 	0.29870 0.58336 0.70280 -0.91500
O 	O 	0.73710 0.59212 0.33010 -0.91500
Zn	Zn	-0.00000 0.00000 -0.00000 1.18300
Zn	Zn	0.50000 0.50000 0.50000 1.20800
