data_crystal

_cell_length_a 29.92300
_cell_length_b 29.92300
_cell_length_c 37.63900
_cell_angle_alpha 90.00000
_cell_angle_beta  90.00000
_cell_angle_gamma 120.00000

_symmetry_space_group_name_	'P 1'
_symmetry_space_group_name_H-M	'P 1'

loop_
_symmetry_equiv_pos_as_xyz
  x,y,z

loop_
_atom_site_label
_atom_site_type_symbol
_atom_site_fract_x
_atom_site_fract_y
_atom_site_fract_z
_atom_site_charge
Zn	Zn	0.63120 0.26318 0.31519 1.08500
O 	O 	0.74070 0.28540 0.31630 -0.47600
O 	O 	0.75750 0.32120 0.29470 -0.50600
O 	O 	0.68470 0.27430 0.27420 -0.82300
O 	O 	0.89960 0.34560 0.11650 -0.15900
O 	O 	0.93790 0.30620 0.07710 -0.15200
C 	C 	0.72330 0.27800 0.28130 0.73100
C 	C 	0.74680 0.25430 0.25770 -0.36500
C 	C 	0.72480 0.23460 0.22700 0.26400
H 	H 	0.69440 0.23380 0.22050 -0.04900
C 	C 	0.74720 0.21490 0.20420 -0.30100
H 	H 	0.73210 0.20230 0.18220 0.13900
C 	C 	0.79110 0.21320 0.21310 0.21100
C 	C 	0.81490 0.23740 0.24460 -0.30800
H 	H 	0.84560 0.23890 0.25120 0.14300
C 	C 	0.79430 0.25870 0.26570 0.25700
H 	H 	0.81200 0.27660 0.28590 -0.03400
C 	C 	0.81230 0.18900 0.18930 -0.11500
C 	C 	0.80170 0.13800 0.19590 0.05200
C 	C 	0.84480 0.21800 0.16050 0.05300
C 	C 	0.85630 0.26870 0.15380 -0.15300
H 	H 	0.84320 0.28360 0.16920 0.09000
C 	C 	0.88640 0.29810 0.12520 0.10600
C 	C 	0.87580 0.36990 0.13660 -0.24000
H 	H 	0.88270 0.40130 0.12500 0.11000
H 	H 	0.88980 0.37750 0.16020 0.10500
H 	H 	0.83920 0.34680 0.13780 0.11000
C 	C 	0.90880 0.27400 0.10290 0.10900
C 	C 	0.89790 0.22640 0.10890 -0.16000
H 	H 	0.91220 0.21210 0.09400 0.08900
C 	C 	0.95890 0.28510 0.05150 -0.26100
H 	H 	0.97540 0.30940 0.03250 0.13100
H 	H 	0.93140 0.25350 0.04190 0.11900
H 	H 	0.98360 0.27840 0.06300 0.11800
Zn	Zn	0.29787 0.59651 0.64852 1.08600
O 	O 	0.40737 0.61873 0.64963 -0.47500
O 	O 	0.42417 0.65453 0.62803 -0.50500
O 	O 	0.35137 0.60763 0.60753 -0.82200
O 	O 	0.56627 0.67893 0.44983 -0.15800
O 	O 	0.60457 0.63953 0.41043 -0.15300
C 	C 	0.38997 0.61133 0.61463 0.73200
C 	C 	0.41347 0.58763 0.59103 -0.36300
C 	C 	0.39147 0.56793 0.56033 0.26400
H 	H 	0.36107 0.56713 0.55383 -0.04800
C 	C 	0.41387 0.54823 0.53753 -0.30000
H 	H 	0.39877 0.53563 0.51553 0.14000
C 	C 	0.45777 0.54653 0.54643 0.21200
C 	C 	0.48157 0.57073 0.57793 -0.30700
H 	H 	0.51227 0.57223 0.58453 0.14300
C 	C 	0.46097 0.59203 0.59903 0.25700
H 	H 	0.47867 0.60993 0.61923 -0.03400
C 	C 	0.47897 0.52233 0.52263 -0.11400
C 	C 	0.46837 0.47133 0.52923 0.05000
C 	C 	0.51147 0.55133 0.49383 0.05200
C 	C 	0.52297 0.60203 0.48713 -0.15300
H 	H 	0.50987 0.61693 0.50253 0.09000
C 	C 	0.55307 0.63143 0.45853 0.10500
C 	C 	0.54247 0.70323 0.46993 -0.23900
H 	H 	0.54937 0.73463 0.45833 0.11000
H 	H 	0.55647 0.71083 0.49353 0.10500
H 	H 	0.50587 0.68013 0.47113 0.10900
C 	C 	0.57547 0.60733 0.43623 0.11000
C 	C 	0.56457 0.55973 0.44223 -0.16100
H 	H 	0.57887 0.54543 0.42733 0.08900
C 	C 	0.62557 0.61843 0.38483 -0.25600
H 	H 	0.64207 0.64273 0.36583 0.12700
H 	H 	0.59807 0.58683 0.37523 0.11600
H 	H 	0.65027 0.61173 0.39633 0.11500
Zn	Zn	0.96453 0.92985 0.98186 1.08700
O 	O 	0.07403 0.95207 0.98297 -0.47700
O 	O 	0.09083 0.98787 0.96137 -0.50300
O 	O 	0.01803 0.94097 0.94087 -0.82300
O 	O 	0.23293 0.01227 0.78317 -0.16400
O 	O 	0.27123 0.97287 0.74377 -0.15000
C 	C 	0.05663 0.94467 0.94797 0.73200
C 	C 	0.08013 0.92097 0.92437 -0.36400
C 	C 	0.05813 0.90127 0.89367 0.26500
H 	H 	0.02773 0.90047 0.88717 -0.04900
C 	C 	0.08053 0.88157 0.87087 -0.30000
H 	H 	0.06543 0.86897 0.84887 0.13900
C 	C 	0.12443 0.87987 0.87977 0.21200
C 	C 	0.14823 0.90407 0.91127 -0.30700
H 	H 	0.17893 0.90557 0.91787 0.14300
C 	C 	0.12763 0.92537 0.93237 0.25800
H 	H 	0.14533 0.94327 0.95257 -0.03400
C 	C 	0.14563 0.85567 0.85597 -0.11600
C 	C 	0.13503 0.80467 0.86257 0.05100
C 	C 	0.17813 0.88467 0.82717 0.05500
C 	C 	0.18963 0.93537 0.82047 -0.15700
H 	H 	0.17653 0.95027 0.83587 0.09300
C 	C 	0.21973 0.96477 0.79187 0.11300
C 	C 	0.20913 0.03657 0.80327 -0.23300
H 	H 	0.21603 0.06797 0.79167 0.10700
H 	H 	0.22313 0.04417 0.82687 0.10200
H 	H 	0.17253 0.01347 0.80447 0.10600
C 	C 	0.24213 0.94067 0.76957 0.10700
C 	C 	0.23123 0.89307 0.77557 -0.15800
H 	H 	0.24553 0.87877 0.76067 0.08800
C 	C 	0.29223 0.95177 0.71817 -0.25900
H 	H 	0.30873 0.97607 0.69917 0.12900
H 	H 	0.26473 0.92017 0.70857 0.11800
H 	H 	0.31693 0.94507 0.72967 0.11700
Zn	Zn	0.73682 0.36802 0.31519 1.08600
O 	O 	0.71460 0.45530 0.31630 -0.47600
O 	O 	0.67880 0.43630 0.29470 -0.50500
O 	O 	0.72570 0.41040 0.27420 -0.82200
O 	O 	0.65440 0.55400 0.11650 -0.15800
O 	O 	0.69380 0.63170 0.07710 -0.15200
C 	C 	0.72200 0.44530 0.28130 0.73200
C 	C 	0.74570 0.49250 0.25770 -0.36300
C 	C 	0.76540 0.49020 0.22700 0.26400
H 	H 	0.76620 0.46060 0.22050 -0.04800
C 	C 	0.78510 0.53230 0.20420 -0.30000
H 	H 	0.79770 0.52980 0.18220 0.14000
C 	C 	0.78680 0.57790 0.21310 0.21100
C 	C 	0.76260 0.57750 0.24460 -0.30700
H 	H 	0.76110 0.60670 0.25120 0.14200
C 	C 	0.74130 0.53560 0.26570 0.25700
H 	H 	0.72340 0.53540 0.28590 -0.03400
C 	C 	0.81100 0.62330 0.18930 -0.11400
C 	C 	0.86200 0.66370 0.19590 0.04900
C 	C 	0.78200 0.62680 0.16050 0.05200
C 	C 	0.73130 0.58760 0.15380 -0.15300
H 	H 	0.71640 0.55960 0.16920 0.09000
C 	C 	0.70190 0.58830 0.12520 0.10500
C 	C 	0.63010 0.50590 0.13660 -0.23900
H 	H 	0.59870 0.48140 0.12500 0.11000
H 	H 	0.62250 0.51230 0.16020 0.10500
H 	H 	0.65320 0.49240 0.13780 0.11000
C 	C 	0.72600 0.63480 0.10290 0.11000
C 	C 	0.77360 0.67150 0.10890 -0.16100
H 	H 	0.78790 0.70010 0.09400 0.08900
C 	C 	0.71490 0.67380 0.05150 -0.25700
H 	H 	0.69060 0.66600 0.03250 0.12800
H 	H 	0.74650 0.67790 0.04190 0.11700
H 	H 	0.72160 0.70520 0.06300 0.11600
Zn	Zn	0.40349 0.70135 0.64852 1.08600
O 	O 	0.38127 0.78863 0.64963 -0.47600
O 	O 	0.34547 0.76963 0.62803 -0.50600
O 	O 	0.39237 0.74373 0.60753 -0.82300
O 	O 	0.32107 0.88733 0.44983 -0.15900
O 	O 	0.36047 0.96503 0.41043 -0.14700
C 	C 	0.38867 0.77863 0.61463 0.73300
C 	C 	0.41237 0.82583 0.59103 -0.36500
C 	C 	0.43207 0.82353 0.56033 0.26600
H 	H 	0.43287 0.79393 0.55383 -0.04800
C 	C 	0.45177 0.86563 0.53753 -0.30200
H 	H 	0.46437 0.86313 0.51553 0.14100
C 	C 	0.45347 0.91123 0.54643 0.21400
C 	C 	0.42927 0.91083 0.57793 -0.30900
H 	H 	0.42777 0.94003 0.58453 0.14400
C 	C 	0.40797 0.86893 0.59903 0.25900
H 	H 	0.39007 0.86873 0.61923 -0.03400
C 	C 	0.47767 0.95663 0.52263 -0.11700
C 	C 	0.52867 0.99703 0.52923 0.05600
C 	C 	0.44867 0.96013 0.49383 0.05900
C 	C 	0.39797 0.92093 0.48713 -0.15500
H 	H 	0.38307 0.89293 0.50253 0.09100
C 	C 	0.36857 0.92163 0.45853 0.10600
C 	C 	0.29677 0.83923 0.46993 -0.23800
H 	H 	0.26537 0.81473 0.45833 0.10900
H 	H 	0.28917 0.84563 0.49353 0.10400
H 	H 	0.31987 0.82573 0.47113 0.10900
C 	C 	0.39267 0.96813 0.43623 0.11300
C 	C 	0.44027 0.00483 0.44223 -0.16500
H 	H 	0.45457 0.03343 0.42733 0.08900
C 	C 	0.38157 0.00713 0.38483 -0.28400
H 	H 	0.35727 0.99933 0.36583 0.13900
H 	H 	0.41317 0.01123 0.37523 0.12300
H 	H 	0.38827 0.03853 0.39633 0.12200
Zn	Zn	0.07015 0.03469 0.98186 1.08400
O 	O 	0.04793 0.12197 0.98297 -0.47800
O 	O 	0.01213 0.10297 0.96137 -0.50900
O 	O 	0.05903 0.07707 0.94087 -0.82500
O 	O 	0.98773 0.22067 0.78317 -0.15200
O 	O 	0.02713 0.29837 0.74377 -0.15600
C 	C 	0.05533 0.11197 0.94797 0.73400
C 	C 	0.07903 0.15917 0.92437 -0.36600
C 	C 	0.09873 0.15687 0.89367 0.26600
H 	H 	0.09953 0.12727 0.88717 -0.04900
C 	C 	0.11843 0.19897 0.87087 -0.30100
H 	H 	0.13103 0.19647 0.84887 0.14000
C 	C 	0.12013 0.24457 0.87977 0.21200
C 	C 	0.09593 0.24417 0.91127 -0.30900
H 	H 	0.09443 0.27337 0.91787 0.14300
C 	C 	0.07463 0.20227 0.93237 0.25900
H 	H 	0.05673 0.20207 0.95257 -0.03600
C 	C 	0.14433 0.28997 0.85597 -0.11400
C 	C 	0.19533 0.33037 0.86257 0.05000
C 	C 	0.11533 0.29347 0.82717 0.05000
C 	C 	0.06463 0.25427 0.82047 -0.14900
H 	H 	0.04973 0.22627 0.83587 0.08700
C 	C 	0.03523 0.25497 0.79187 0.09800
C 	C 	0.96343 0.17257 0.80327 -0.24400
H 	H 	0.93203 0.14807 0.79167 0.11100
H 	H 	0.95583 0.17897 0.82687 0.10700
H 	H 	0.98653 0.15907 0.80447 0.11300
C 	C 	0.05933 0.30147 0.76957 0.11300
C 	C 	0.10693 0.33817 0.77557 -0.16300
H 	H 	0.12123 0.36677 0.76067 0.09000
C 	C 	0.04823 0.34047 0.71817 -0.25200
H 	H 	0.02393 0.33267 0.69917 0.12500
H 	H 	0.07983 0.34457 0.70857 0.11500
H 	H 	0.05493 0.37187 0.72967 0.11400
Zn	Zn	0.63198 0.36880 0.31519 1.08600
O 	O 	0.54470 0.25930 0.31630 -0.47500
O 	O 	0.56370 0.24250 0.29470 -0.50500
O 	O 	0.58960 0.31530 0.27420 -0.82200
O 	O 	0.44600 0.10040 0.11650 -0.15800
O 	O 	0.36830 0.06210 0.07710 -0.15300
C 	C 	0.55470 0.27670 0.28130 0.73200
C 	C 	0.50750 0.25320 0.25770 -0.36300
C 	C 	0.50980 0.27520 0.22700 0.26400
H 	H 	0.53940 0.30560 0.22050 -0.04800
C 	C 	0.46770 0.25280 0.20420 -0.30000
H 	H 	0.47020 0.26790 0.18220 0.14000
C 	C 	0.42210 0.20890 0.21310 0.21200
C 	C 	0.42250 0.18510 0.24460 -0.30700
H 	H 	0.39330 0.15440 0.25120 0.14300
C 	C 	0.46440 0.20570 0.26570 0.25700
H 	H 	0.46460 0.18800 0.28590 -0.03400
C 	C 	0.37670 0.18770 0.18930 -0.11400
C 	C 	0.33630 0.19830 0.19590 0.05000
C 	C 	0.37320 0.15520 0.16050 0.05200
C 	C 	0.41240 0.14370 0.15380 -0.15300
H 	H 	0.44040 0.15680 0.16920 0.09000
C 	C 	0.41170 0.11360 0.12520 0.10500
C 	C 	0.49410 0.12420 0.13660 -0.23800
H 	H 	0.51860 0.11730 0.12500 0.10900
H 	H 	0.48770 0.11020 0.16020 0.10400
H 	H 	0.50760 0.16080 0.13780 0.10900
C 	C 	0.36520 0.09120 0.10290 0.11000
C 	C 	0.32850 0.10210 0.10890 -0.16100
H 	H 	0.29990 0.08780 0.09400 0.08900
C 	C 	0.32620 0.04110 0.05150 -0.25400
H 	H 	0.33400 0.02460 0.03250 0.12600
H 	H 	0.32210 0.06860 0.04190 0.11600
H 	H 	0.29480 0.01640 0.06300 0.11400
Zn	Zn	0.29865 0.70213 0.64852 1.08600
O 	O 	0.21137 0.59263 0.64963 -0.47500
O 	O 	0.23037 0.57583 0.62803 -0.50500
O 	O 	0.25627 0.64863 0.60753 -0.82200
O 	O 	0.11267 0.43373 0.44983 -0.15800
O 	O 	0.03497 0.39543 0.41043 -0.15900
C 	C 	0.22137 0.61003 0.61463 0.73200
C 	C 	0.17417 0.58653 0.59103 -0.36200
C 	C 	0.17647 0.60853 0.56033 0.26300
H 	H 	0.20607 0.63893 0.55383 -0.04700
C 	C 	0.13437 0.58613 0.53753 -0.29800
H 	H 	0.13687 0.60123 0.51553 0.13900
C 	C 	0.08877 0.54223 0.54643 0.20900
C 	C 	0.08917 0.51843 0.57793 -0.30500
H 	H 	0.05997 0.48773 0.58453 0.14100
C 	C 	0.13107 0.53903 0.59903 0.25500
H 	H 	0.13127 0.52133 0.61923 -0.03300
C 	C 	0.04337 0.52103 0.52263 -0.11100
C 	C 	0.00297 0.53163 0.52923 0.04500
C 	C 	0.03987 0.48853 0.49383 0.04600
C 	C 	0.07907 0.47703 0.48713 -0.15100
H 	H 	0.10707 0.49013 0.50253 0.08900
C 	C 	0.07837 0.44693 0.45853 0.10500
C 	C 	0.16077 0.45753 0.46993 -0.23900
H 	H 	0.18527 0.45063 0.45833 0.10900
H 	H 	0.15437 0.44353 0.49353 0.10500
H 	H 	0.17427 0.49413 0.47113 0.10900
C 	C 	0.03187 0.42453 0.43623 0.10700
C 	C 	0.99517 0.43543 0.44223 -0.15600
H 	H 	0.96657 0.42113 0.42733 0.08800
C 	C 	0.99287 0.37443 0.38483 -0.22600
H 	H 	0.00067 0.35793 0.36583 0.11500
H 	H 	0.98877 0.40193 0.37523 0.10900
H 	H 	0.96147 0.34973 0.39633 0.10700
Zn	Zn	0.96531 0.03547 0.98186 1.08600
O 	O 	0.87803 0.92597 0.98297 -0.47600
O 	O 	0.89703 0.90917 0.96137 -0.50500
O 	O 	0.92293 0.98197 0.94087 -0.81900
O 	O 	0.77933 0.76707 0.78317 -0.15800
O 	O 	0.70163 0.72877 0.74377 -0.15300
C 	C 	0.88803 0.94337 0.94797 0.73100
C 	C 	0.84083 0.91987 0.92437 -0.36200
C 	C 	0.84313 0.94187 0.89367 0.26400
H 	H 	0.87273 0.97227 0.88717 -0.04600
C 	C 	0.80103 0.91947 0.87087 -0.29900
H 	H 	0.80353 0.93457 0.84887 0.14000
C 	C 	0.75543 0.87557 0.87977 0.21100
C 	C 	0.75583 0.85177 0.91127 -0.30700
H 	H 	0.72663 0.82107 0.91787 0.14200
C 	C 	0.79773 0.87237 0.93237 0.25600
H 	H 	0.79793 0.85467 0.95257 -0.03400
C 	C 	0.71003 0.85437 0.85597 -0.11400
C 	C 	0.66963 0.86497 0.86257 0.05000
C 	C 	0.70653 0.82187 0.82717 0.05200
C 	C 	0.74573 0.81037 0.82047 -0.15300
H 	H 	0.77373 0.82347 0.83587 0.09000
C 	C 	0.74503 0.78027 0.79187 0.10500
C 	C 	0.82743 0.79087 0.80327 -0.23900
H 	H 	0.85193 0.78397 0.79167 0.11000
H 	H 	0.82103 0.77687 0.82687 0.10500
H 	H 	0.84093 0.82747 0.80447 0.11000
C 	C 	0.69853 0.75787 0.76957 0.11000
C 	C 	0.66183 0.76877 0.77557 -0.16100
H 	H 	0.63323 0.75447 0.76067 0.08900
C 	C 	0.65953 0.70777 0.71817 -0.25600
H 	H 	0.66733 0.69127 0.69917 0.12700
H 	H 	0.65543 0.73527 0.70857 0.11600
H 	H 	0.62813 0.68307 0.72967 0.11500
Zn	Zn	0.36880 0.73682 0.68481 1.08600
O 	O 	0.25930 0.71460 0.68370 -0.47500
O 	O 	0.24250 0.67880 0.70530 -0.50500
O 	O 	0.31530 0.72570 0.72580 -0.82200
O 	O 	0.10040 0.65440 0.88350 -0.15900
O 	O 	0.06210 0.69380 0.92290 -0.15500
C 	C 	0.27670 0.72200 0.71870 0.73200
C 	C 	0.25320 0.74570 0.74230 -0.36300
C 	C 	0.27520 0.76540 0.77300 0.26400
H 	H 	0.30560 0.76620 0.77950 -0.04800
C 	C 	0.25280 0.78510 0.79580 -0.29900
H 	H 	0.26790 0.79770 0.81780 0.14000
C 	C 	0.20890 0.78680 0.78690 0.21100
C 	C 	0.18510 0.76260 0.75540 -0.30700
H 	H 	0.15440 0.76110 0.74880 0.14200
C 	C 	0.20570 0.74130 0.73430 0.25700
H 	H 	0.18800 0.72340 0.71410 -0.03400
C 	C 	0.18770 0.81100 0.81070 -0.11300
C 	C 	0.19830 0.86200 0.80410 0.04900
C 	C 	0.15520 0.78200 0.83950 0.05200
C 	C 	0.14370 0.73130 0.84620 -0.15300
H 	H 	0.15680 0.71640 0.83080 0.09000
C 	C 	0.11360 0.70190 0.87480 0.10500
C 	C 	0.12420 0.63010 0.86340 -0.23800
H 	H 	0.11730 0.59870 0.87500 0.10900
H 	H 	0.11020 0.62250 0.83980 0.10400
H 	H 	0.16080 0.65320 0.86220 0.10900
C 	C 	0.09120 0.72600 0.89710 0.11000
C 	C 	0.10210 0.77360 0.89110 -0.16200
H 	H 	0.08780 0.78790 0.90600 0.08900
C 	C 	0.04110 0.71490 0.94850 -0.25100
H 	H 	0.02460 0.69060 0.96750 0.12400
H 	H 	0.06860 0.74650 0.95810 0.11400
H 	H 	0.01640 0.72160 0.93700 0.11200
Zn	Zn	0.03547 0.07015 0.01814 1.08600
O 	O 	0.92597 0.04793 0.01703 -0.47400
O 	O 	0.90917 0.01213 0.03863 -0.50700
O 	O 	0.98197 0.05903 0.05913 -0.82000
O 	O 	0.76707 0.98773 0.21683 -0.15300
O 	O 	0.72877 0.02713 0.25623 -0.15500
C 	C 	0.94337 0.05533 0.05203 0.73100
C 	C 	0.91987 0.07903 0.07563 -0.36200
C 	C 	0.94187 0.09873 0.10633 0.26300
H 	H 	0.97227 0.09953 0.11283 -0.04600
C 	C 	0.91947 0.11843 0.12913 -0.29900
H 	H 	0.93457 0.13103 0.15113 0.14000
C 	C 	0.87557 0.12013 0.12023 0.21100
C 	C 	0.85177 0.09593 0.08873 -0.30600
H 	H 	0.82107 0.09443 0.08213 0.14200
C 	C 	0.87237 0.07463 0.06763 0.25600
H 	H 	0.85467 0.05673 0.04743 -0.03400
C 	C 	0.85437 0.14433 0.14403 -0.11300
C 	C 	0.86497 0.19533 0.13743 0.05000
C 	C 	0.82187 0.11533 0.17283 0.05000
C 	C 	0.81037 0.06463 0.17953 -0.15000
H 	H 	0.82347 0.04973 0.16413 0.08800
C 	C 	0.78027 0.03523 0.20813 0.09800
C 	C 	0.79087 0.96343 0.19673 -0.24400
H 	H 	0.78397 0.93203 0.20833 0.11100
H 	H 	0.77687 0.95583 0.17313 0.10700
H 	H 	0.82747 0.98653 0.19553 0.11200
C 	C 	0.75787 0.05933 0.23043 0.11200
C 	C 	0.76877 0.10693 0.22443 -0.16300
H 	H 	0.75447 0.12123 0.23933 0.09000
C 	C 	0.70777 0.04823 0.28183 -0.25300
H 	H 	0.69127 0.02393 0.30083 0.12500
H 	H 	0.73527 0.07983 0.29143 0.11500
H 	H 	0.68307 0.05493 0.27033 0.11400
Zn	Zn	0.70213 0.40349 0.35148 1.08600
O 	O 	0.59263 0.38127 0.35037 -0.47500
O 	O 	0.57583 0.34547 0.37197 -0.50500
O 	O 	0.64863 0.39237 0.39247 -0.82200
O 	O 	0.43373 0.32107 0.55017 -0.15800
O 	O 	0.39543 0.36047 0.58957 -0.15300
C 	C 	0.61003 0.38867 0.38537 0.73200
C 	C 	0.58653 0.41237 0.40897 -0.36300
C 	C 	0.60853 0.43207 0.43967 0.26400
H 	H 	0.63893 0.43287 0.44617 -0.04800
C 	C 	0.58613 0.45177 0.46247 -0.30000
H 	H 	0.60123 0.46437 0.48447 0.14000
C 	C 	0.54223 0.45347 0.45357 0.21200
C 	C 	0.51843 0.42927 0.42207 -0.30700
H 	H 	0.48773 0.42777 0.41547 0.14300
C 	C 	0.53903 0.40797 0.40097 0.25700
H 	H 	0.52133 0.39007 0.38077 -0.03400
C 	C 	0.52103 0.47767 0.47737 -0.11400
C 	C 	0.53163 0.52867 0.47077 0.05000
C 	C 	0.48853 0.44867 0.50617 0.05200
C 	C 	0.47703 0.39797 0.51287 -0.15300
H 	H 	0.49013 0.38307 0.49747 0.09000
C 	C 	0.44693 0.36857 0.54147 0.10500
C 	C 	0.45753 0.29677 0.53007 -0.23800
H 	H 	0.45063 0.26537 0.54167 0.10900
H 	H 	0.44353 0.28917 0.50647 0.10400
H 	H 	0.49413 0.31987 0.52887 0.10900
C 	C 	0.42453 0.39267 0.56377 0.11000
C 	C 	0.43543 0.44027 0.55777 -0.16100
H 	H 	0.42113 0.45457 0.57267 0.08900
C 	C 	0.37443 0.38157 0.61517 -0.25500
H 	H 	0.35793 0.35727 0.63417 0.12700
H 	H 	0.40193 0.41317 0.62477 0.11600
H 	H 	0.34973 0.38827 0.60367 0.11500
Zn	Zn	0.26318 0.63198 0.68481 1.08600
O 	O 	0.28540 0.54470 0.68370 -0.47600
O 	O 	0.32120 0.56370 0.70530 -0.50500
O 	O 	0.27430 0.58960 0.72580 -0.82200
O 	O 	0.34560 0.44600 0.88350 -0.15800
O 	O 	0.30620 0.36830 0.92290 -0.15300
C 	C 	0.27800 0.55470 0.71870 0.73200
C 	C 	0.25430 0.50750 0.74230 -0.36400
C 	C 	0.23460 0.50980 0.77300 0.26500
H 	H 	0.23380 0.53940 0.77950 -0.04800
C 	C 	0.21490 0.46770 0.79580 -0.30000
H 	H 	0.20230 0.47020 0.81780 0.14000
C 	C 	0.21320 0.42210 0.78690 0.21200
C 	C 	0.23740 0.42250 0.75540 -0.30700
H 	H 	0.23890 0.39330 0.74880 0.14300
C 	C 	0.25870 0.46440 0.73430 0.25700
H 	H 	0.27660 0.46460 0.71410 -0.03400
C 	C 	0.18900 0.37670 0.81070 -0.11500
C 	C 	0.13800 0.33630 0.80410 0.05200
C 	C 	0.21800 0.37320 0.83950 0.05300
C 	C 	0.26870 0.41240 0.84620 -0.15300
H 	H 	0.28360 0.44040 0.83080 0.09000
C 	C 	0.29810 0.41170 0.87480 0.10500
C 	C 	0.36990 0.49410 0.86340 -0.23800
H 	H 	0.40130 0.51860 0.87500 0.10900
H 	H 	0.37750 0.48770 0.83980 0.10400
H 	H 	0.34680 0.50760 0.86220 0.10900
C 	C 	0.27400 0.36520 0.89710 0.11000
C 	C 	0.22640 0.32850 0.89110 -0.16100
H 	H 	0.21210 0.29990 0.90600 0.08900
C 	C 	0.28510 0.32620 0.94850 -0.25400
H 	H 	0.30940 0.33400 0.96750 0.12600
H 	H 	0.25350 0.32210 0.95810 0.11600
H 	H 	0.27840 0.29480 0.93700 0.11400
Zn	Zn	0.92985 0.96531 0.01814 1.08800
O 	O 	0.95207 0.87803 0.01703 -0.47300
O 	O 	0.98787 0.89703 0.03863 -0.50200
O 	O 	0.94097 0.92293 0.05913 -0.81900
O 	O 	0.01227 0.77933 0.21683 -0.16400
O 	O 	0.97287 0.70163 0.25623 -0.15000
C 	C 	0.94467 0.88803 0.05203 0.73000
C 	C 	0.92097 0.84083 0.07563 -0.36100
C 	C 	0.90127 0.84313 0.10633 0.26300
H 	H 	0.90047 0.87273 0.11283 -0.04700
C 	C 	0.88157 0.80103 0.12913 -0.29800
H 	H 	0.86897 0.80353 0.15113 0.13900
C 	C 	0.87987 0.75543 0.12023 0.21100
C 	C 	0.90407 0.75583 0.08873 -0.30500
H 	H 	0.90557 0.72663 0.08213 0.14200
C 	C 	0.92537 0.79773 0.06763 0.25600
H 	H 	0.94327 0.79793 0.04743 -0.03200
C 	C 	0.85567 0.71003 0.14403 -0.11500
C 	C 	0.80467 0.66963 0.13743 0.05100
C 	C 	0.88467 0.70653 0.17283 0.05400
C 	C 	0.93537 0.74573 0.17953 -0.15600
H 	H 	0.95027 0.77373 0.16413 0.09300
C 	C 	0.96477 0.74503 0.20813 0.11200
C 	C 	0.03657 0.82743 0.19673 -0.23400
H 	H 	0.06797 0.85193 0.20833 0.10800
H 	H 	0.04417 0.82103 0.17313 0.10300
H 	H 	0.01347 0.84093 0.19553 0.10700
C 	C 	0.94067 0.69853 0.23043 0.10700
C 	C 	0.89307 0.66183 0.22443 -0.15800
H 	H 	0.87877 0.63323 0.23933 0.08800
C 	C 	0.95177 0.65953 0.28183 -0.25800
H 	H 	0.97607 0.66733 0.30083 0.12900
H 	H 	0.92017 0.65543 0.29143 0.11700
H 	H 	0.94507 0.62813 0.27033 0.11600
Zn	Zn	0.59651 0.29865 0.35148 1.08600
O 	O 	0.61873 0.21137 0.35037 -0.47500
O 	O 	0.65453 0.23037 0.37197 -0.50500
O 	O 	0.60763 0.25627 0.39247 -0.82200
O 	O 	0.67893 0.11267 0.55017 -0.15800
O 	O 	0.63953 0.03497 0.58957 -0.15900
C 	C 	0.61133 0.22137 0.38537 0.73200
C 	C 	0.58763 0.17417 0.40897 -0.36200
C 	C 	0.56793 0.17647 0.43967 0.26300
H 	H 	0.56713 0.20607 0.44617 -0.04700
C 	C 	0.54823 0.13437 0.46247 -0.29800
H 	H 	0.53563 0.13687 0.48447 0.13900
C 	C 	0.54653 0.08877 0.45357 0.20900
C 	C 	0.57073 0.08917 0.42207 -0.30500
H 	H 	0.57223 0.05997 0.41547 0.14100
C 	C 	0.59203 0.13107 0.40097 0.25500
H 	H 	0.60993 0.13127 0.38077 -0.03300
C 	C 	0.52233 0.04337 0.47737 -0.11100
C 	C 	0.47133 0.00297 0.47077 0.04500
C 	C 	0.55133 0.03987 0.50617 0.04600
C 	C 	0.60203 0.07907 0.51287 -0.15100
H 	H 	0.61693 0.10707 0.49747 0.08900
C 	C 	0.63143 0.07837 0.54147 0.10500
C 	C 	0.70323 0.16077 0.53007 -0.23900
H 	H 	0.73463 0.18527 0.54167 0.11000
H 	H 	0.71083 0.15437 0.50647 0.10500
H 	H 	0.68013 0.17427 0.52887 0.11000
C 	C 	0.60733 0.03187 0.56377 0.10700
C 	C 	0.55973 0.99517 0.55777 -0.15700
H 	H 	0.54543 0.96657 0.57267 0.08800
C 	C 	0.61843 0.99287 0.61517 -0.22800
H 	H 	0.64273 0.00067 0.63417 0.11600
H 	H 	0.58683 0.98877 0.62477 0.11000
H 	H 	0.61173 0.96147 0.60367 0.10800
Zn	Zn	0.36802 0.63120 0.68481 1.08600
O 	O 	0.45530 0.74070 0.68370 -0.47600
O 	O 	0.43630 0.75750 0.70530 -0.50500
O 	O 	0.41040 0.68470 0.72580 -0.82200
O 	O 	0.55400 0.89960 0.88350 -0.15800
O 	O 	0.63170 0.93790 0.92290 -0.15200
C 	C 	0.44530 0.72330 0.71870 0.73200
C 	C 	0.49250 0.74680 0.74230 -0.36300
C 	C 	0.49020 0.72480 0.77300 0.26500
H 	H 	0.46060 0.69440 0.77950 -0.04800
C 	C 	0.53230 0.74720 0.79580 -0.30000
H 	H 	0.52980 0.73210 0.81780 0.14000
C 	C 	0.57790 0.79110 0.78690 0.21200
C 	C 	0.57750 0.81490 0.75540 -0.30700
H 	H 	0.60670 0.84560 0.74880 0.14300
C 	C 	0.53560 0.79430 0.73430 0.25700
H 	H 	0.53540 0.81200 0.71410 -0.03400
C 	C 	0.62330 0.81230 0.81070 -0.11400
C 	C 	0.66370 0.80170 0.80410 0.05100
C 	C 	0.62680 0.84480 0.83950 0.05300
C 	C 	0.58760 0.85630 0.84620 -0.15300
H 	H 	0.55960 0.84320 0.83080 0.09000
C 	C 	0.58830 0.88640 0.87480 0.10500
C 	C 	0.50590 0.87580 0.86340 -0.23900
H 	H 	0.48140 0.88270 0.87500 0.11000
H 	H 	0.51230 0.88980 0.83980 0.10500
H 	H 	0.49240 0.83920 0.86220 0.10900
C 	C 	0.63480 0.90880 0.89710 0.11000
C 	C 	0.67150 0.89790 0.89110 -0.16000
H 	H 	0.70010 0.91220 0.90600 0.08900
C 	C 	0.67380 0.95890 0.94850 -0.25700
H 	H 	0.66600 0.97540 0.96750 0.12800
H 	H 	0.67790 0.93140 0.95810 0.11700
H 	H 	0.70520 0.98360 0.93700 0.11600
Zn	Zn	0.03469 0.96453 0.01814 1.08700
O 	O 	0.12197 0.07403 0.01703 -0.47500
O 	O 	0.10297 0.09083 0.03863 -0.50600
O 	O 	0.07707 0.01803 0.05913 -0.82500
O 	O 	0.22067 0.23293 0.21683 -0.15900
O 	O 	0.29837 0.27123 0.25623 -0.15300
C 	C 	0.11197 0.05663 0.05203 0.73300
C 	C 	0.15917 0.08013 0.07563 -0.36400
C 	C 	0.15687 0.05813 0.10633 0.26500
H 	H 	0.12727 0.02773 0.11283 -0.04900
C 	C 	0.19897 0.08053 0.12913 -0.30000
H 	H 	0.19647 0.06543 0.15113 0.13900
C 	C 	0.24457 0.12443 0.12023 0.21200
C 	C 	0.24417 0.14823 0.08873 -0.30700
H 	H 	0.27337 0.17893 0.08213 0.14300
C 	C 	0.20227 0.12763 0.06763 0.25800
H 	H 	0.20207 0.14533 0.04743 -0.03400
C 	C 	0.28997 0.14563 0.14403 -0.11500
C 	C 	0.33037 0.13503 0.13743 0.05100
C 	C 	0.29347 0.17813 0.17283 0.05300
C 	C 	0.25427 0.18963 0.17953 -0.15300
H 	H 	0.22627 0.17653 0.16413 0.09000
C 	C 	0.25497 0.21973 0.20813 0.10500
C 	C 	0.17257 0.20913 0.19673 -0.23800
H 	H 	0.14807 0.21603 0.20833 0.10900
H 	H 	0.17897 0.22313 0.17313 0.10400
H 	H 	0.15907 0.17253 0.19553 0.10900
C 	C 	0.30147 0.24213 0.23043 0.11000
C 	C 	0.33817 0.23123 0.22443 -0.16100
H 	H 	0.36677 0.24553 0.23933 0.08900
C 	C 	0.34047 0.29223 0.28183 -0.25500
H 	H 	0.33267 0.30873 0.30083 0.12700
H 	H 	0.34457 0.26473 0.29143 0.11600
H 	H 	0.37187 0.31693 0.27033 0.11500
Zn	Zn	0.70135 0.29787 0.35148 1.08600
O 	O 	0.78863 0.40737 0.35037 -0.47600
O 	O 	0.76963 0.42417 0.37197 -0.50500
O 	O 	0.74373 0.35137 0.39247 -0.82300
O 	O 	0.88733 0.56627 0.55017 -0.15800
O 	O 	0.96503 0.60457 0.58957 -0.14700
C 	C 	0.77863 0.38997 0.38537 0.73300
C 	C 	0.82583 0.41347 0.40897 -0.36500
C 	C 	0.82353 0.39147 0.43967 0.26600
H 	H 	0.79393 0.36107 0.44617 -0.04800
C 	C 	0.86563 0.41387 0.46247 -0.30200
H 	H 	0.86313 0.39877 0.48447 0.14100
C 	C 	0.91123 0.45777 0.45357 0.21400
C 	C 	0.91083 0.48157 0.42207 -0.30900
H 	H 	0.94003 0.51227 0.41547 0.14400
C 	C 	0.86893 0.46097 0.40097 0.25900
H 	H 	0.86873 0.47867 0.38077 -0.03400
C 	C 	0.95663 0.47897 0.47737 -0.11700
C 	C 	0.99703 0.46837 0.47077 0.05600
C 	C 	0.96013 0.51147 0.50617 0.05900
C 	C 	0.92093 0.52297 0.51287 -0.15500
H 	H 	0.89293 0.50987 0.49747 0.09100
C 	C 	0.92163 0.55307 0.54147 0.10600
C 	C 	0.83923 0.54247 0.53007 -0.23900
H 	H 	0.81473 0.54937 0.54167 0.11000
H 	H 	0.84563 0.55647 0.50647 0.10500
H 	H 	0.82573 0.50587 0.52887 0.10900
C 	C 	0.96813 0.57547 0.56377 0.11300
C 	C 	0.00483 0.56457 0.55777 -0.16500
H 	H 	0.03343 0.57887 0.57267 0.08900
C 	C 	0.00713 0.62557 0.61517 -0.28300
H 	H 	0.99933 0.64207 0.63417 0.13800
H 	H 	0.01123 0.59807 0.62477 0.12300
H 	H 	0.03853 0.65027 0.60367 0.12200
Zn	Zn	0.66667 0.33333 0.38412 1.06800
Zn	Zn	0.33333 0.66667 0.71745 1.06800
Zn	Zn	0.00000 0.00000 0.05079 1.06600
Zn	Zn	0.33333 0.66667 0.61588 1.06800
Zn	Zn	-0.00000 0.00000 0.94921 1.06500
Zn	Zn	0.66667 0.33333 0.28255 1.06800
O 	O 	0.66667 0.33333 0.33333 -1.62400
O 	O 	0.33333 0.66667 0.66667 -1.62400
O 	O 	-0.00000 0.00000 -0.00000 -1.62700
Zn	Zn	0.70073 0.29788 0.13782 1.21400
O 	O 	0.74980 0.33930 0.17434 -0.52000
O 	O 	0.20940 0.59480 0.43750 -0.50400
O 	O 	0.76730 0.41810 0.15951 -0.53700
O 	O 	0.26310 0.63450 0.39060 -0.54300
O 	O 	0.02760 0.38550 0.20260 -0.15300
O 	O 	0.10240 0.41570 0.24650 -0.15400
O 	O 	0.88990 0.56780 0.33840 -0.15700
O 	O 	0.97290 0.61210 0.37400 -0.14200
C 	C 	0.77760 0.38920 0.17480 0.43200
C 	C 	0.82390 0.41060 0.19940 -0.20500
C 	C 	0.83130 0.38010 0.22360 0.13100
H 	H 	0.80810 0.34480 0.22430 -0.00000
C 	C 	0.87200 0.40100 0.24640 -0.23300
H 	H 	0.87460 0.38040 0.26380 0.12700
C 	C 	0.90940 0.45220 0.24410 0.16700
C 	C 	0.90290 0.48200 0.21890 -0.23800
H 	H 	0.92790 0.51670 0.21680 0.11500
C 	C 	0.86260 0.46310 0.19760 0.14500
H 	H 	0.85960 0.48470 0.18120 -0.01300
C 	C 	0.95310 0.47370 0.26780 -0.09700
C 	C 	0.99430 0.46100 0.26230 0.05200
C 	C 	0.99000 0.42820 0.23400 -0.12400
H 	H 	0.96140 0.41460 0.21910 0.08100
C 	C 	0.02960 0.41580 0.22840 0.09600
C 	C 	0.98570 0.36640 0.17670 -0.26200
H 	H 	0.99180 0.34780 0.15840 0.12800
H 	H 	0.98420 0.39490 0.16650 0.12400
H 	H 	0.95360 0.34380 0.18840 0.11800
C 	C 	0.06980 0.43150 0.25230 0.10100
C 	C 	0.14670 0.43360 0.27050 -0.24600
H 	H 	0.16530 0.41610 0.26510 0.11400
H 	H 	0.13470 0.42640 0.29460 0.10900
H 	H 	0.16900 0.47010 0.26760 0.10900
C 	C 	0.07430 0.46630 0.28120 -0.13000
H 	H 	0.10110 0.47760 0.29750 0.08300
C 	C 	0.03870 0.48200 0.28400 0.03800
C 	C 	0.04190 0.51640 0.31230 -0.07800
C 	C 	0.00300 0.52890 0.31660 0.02500
C 	C 	0.00950 0.56710 0.34460 -0.13500
H 	H 	0.03920 0.58310 0.35840 0.08200
C 	C 	0.97070 0.57750 0.34910 0.08900
C 	C 	0.01740 0.63870 0.39520 -0.25500
H 	H 	0.04690 0.65820 0.38030 0.11200
H 	H 	0.02220 0.61450 0.40900 0.10800
H 	H 	0.01330 0.66180 0.41090 0.12700
C 	C 	0.92540 0.55450 0.32870 0.10200
C 	C 	0.84290 0.54540 0.32030 -0.21600
H 	H 	0.84820 0.53940 0.29600 0.09500
H 	H 	0.82910 0.56830 0.32100 0.10500
H 	H 	0.81910 0.51330 0.33140 0.10400
C 	C 	0.91930 0.52000 0.30290 -0.14900
H 	H 	0.88890 0.50390 0.28990 0.08400
C 	C 	0.95950 0.50820 0.29560 0.05500
C 	C 	0.08730 0.53770 0.33590 0.13600
C 	C 	0.08350 0.52470 0.37060 -0.19900
H 	H 	0.05110 0.50140 0.37960 0.10300
C 	C 	0.12420 0.54360 0.39310 0.11800
H 	H 	0.11980 0.53180 0.41640 0.00900
C 	C 	0.17250 0.58090 0.38110 -0.17900
C 	C 	0.21850 0.60610 0.40540 0.40300
C 	C 	0.17780 0.59640 0.34660 0.11400
H 	H 	0.20990 0.62160 0.33810 -0.00200
C 	C 	0.13640 0.57500 0.32440 -0.19500
H 	H 	0.14090 0.58560 0.30080 0.09900
Zn	Zn	0.36740 0.63121 0.47115 1.21400
O 	O 	0.41647 0.67263 0.50767 -0.52000
O 	O 	0.87607 0.92813 0.77083 -0.50300
O 	O 	0.43397 0.75143 0.49284 -0.53700
O 	O 	0.92977 0.96783 0.72393 -0.53900
O 	O 	0.69427 0.71883 0.53593 -0.14900
O 	O 	0.76907 0.74903 0.57983 -0.15300
O 	O 	0.55657 0.90113 0.67173 -0.15700
O 	O 	0.63957 0.94543 0.70733 -0.14300
C 	C 	0.44427 0.72253 0.50813 0.43200
C 	C 	0.49057 0.74393 0.53273 -0.20400
C 	C 	0.49797 0.71343 0.55693 0.13000
H 	H 	0.47477 0.67813 0.55763 0.00000
C 	C 	0.53867 0.73433 0.57973 -0.23200
H 	H 	0.54127 0.71373 0.59713 0.12600
C 	C 	0.57607 0.78553 0.57743 0.16400
C 	C 	0.56957 0.81533 0.55223 -0.23600
H 	H 	0.59457 0.85003 0.55013 0.11400
C 	C 	0.52927 0.79643 0.53093 0.14300
H 	H 	0.52627 0.81803 0.51453 -0.01200
C 	C 	0.61977 0.80703 0.60113 -0.09400
C 	C 	0.66097 0.79433 0.59563 0.04600
C 	C 	0.65667 0.76153 0.56733 -0.12700
H 	H 	0.62807 0.74793 0.55243 0.08200
C 	C 	0.69627 0.74913 0.56173 0.10000
C 	C 	0.65237 0.69973 0.51003 -0.27000
H 	H 	0.65847 0.68113 0.49173 0.13000
H 	H 	0.65087 0.72823 0.49983 0.12500
H 	H 	0.62027 0.67713 0.52173 0.11900
C 	C 	0.73647 0.76483 0.58563 0.10200
C 	C 	0.81337 0.76693 0.60383 -0.24800
H 	H 	0.83197 0.74943 0.59843 0.11500
H 	H 	0.80137 0.75973 0.62793 0.11000
H 	H 	0.83567 0.80343 0.60093 0.11100
C 	C 	0.74097 0.79963 0.61453 -0.13200
H 	H 	0.76777 0.81093 0.63083 0.08400
C 	C 	0.70537 0.81533 0.61733 0.04500
C 	C 	0.70857 0.84973 0.64563 -0.08100
C 	C 	0.66967 0.86223 0.64993 0.03100
C 	C 	0.67617 0.90043 0.67793 -0.13000
H 	H 	0.70587 0.91643 0.69173 0.08100
C 	C 	0.63737 0.91083 0.68243 0.08500
C 	C 	0.68407 0.97203 0.72853 -0.25300
H 	H 	0.71357 0.99153 0.71363 0.11400
H 	H 	0.68887 0.94783 0.74233 0.10900
H 	H 	0.67997 0.99513 0.74423 0.13000
C 	C 	0.59207 0.88783 0.66203 0.10200
C 	C 	0.50957 0.87873 0.65363 -0.21700
H 	H 	0.51487 0.87273 0.62933 0.09500
H 	H 	0.49577 0.90163 0.65433 0.10600
H 	H 	0.48577 0.84663 0.66473 0.10500
C 	C 	0.58597 0.85333 0.63623 -0.14700
H 	H 	0.55557 0.83723 0.62323 0.08400
C 	C 	0.62617 0.84153 0.62893 0.04900
C 	C 	0.75397 0.87103 0.66923 0.13900
C 	C 	0.75017 0.85803 0.70393 -0.20100
H 	H 	0.71777 0.83473 0.71293 0.10500
C 	C 	0.79087 0.87693 0.72643 0.11900
H 	H 	0.78647 0.86513 0.74973 0.00900
C 	C 	0.83917 0.91423 0.71443 -0.17800
C 	C 	0.88517 0.93943 0.73873 0.40300
C 	C 	0.84447 0.92973 0.67993 0.11500
H 	H 	0.87657 0.95493 0.67143 -0.00100
C 	C 	0.80307 0.90833 0.65773 -0.19600
H 	H 	0.80757 0.91893 0.63413 0.10100
Zn	Zn	0.03406 0.96455 0.80449 1.21500
O 	O 	0.08313 0.00597 0.84101 -0.52300
O 	O 	0.54273 0.26147 0.10417 -0.50500
O 	O 	0.10063 0.08477 0.82618 -0.53800
O 	O 	0.59643 0.30117 0.05727 -0.54300
O 	O 	0.36093 0.05217 0.86927 -0.15100
O 	O 	0.43573 0.08237 0.91317 -0.15600
O 	O 	0.22323 0.23447 0.00507 -0.15100
O 	O 	0.30623 0.27877 0.04067 -0.14500
C 	C 	0.11093 0.05587 0.84147 0.43200
C 	C 	0.15723 0.07727 0.86607 -0.20400
C 	C 	0.16463 0.04677 0.89027 0.12900
H 	H 	0.14143 0.01147 0.89097 -0.00100
C 	C 	0.20533 0.06767 0.91307 -0.23100
H 	H 	0.20793 0.04707 0.93047 0.12500
C 	C 	0.24273 0.11887 0.91077 0.16300
C 	C 	0.23623 0.14867 0.88557 -0.23500
H 	H 	0.26123 0.18337 0.88347 0.11400
C 	C 	0.19593 0.12977 0.86427 0.14300
H 	H 	0.19293 0.15137 0.84787 -0.01300
C 	C 	0.28643 0.14037 0.93447 -0.09200
C 	C 	0.32763 0.12767 0.92897 0.04400
C 	C 	0.32333 0.09487 0.90067 -0.12700
H 	H 	0.29473 0.08127 0.88577 0.08200
C 	C 	0.36293 0.08247 0.89507 0.09900
C 	C 	0.31903 0.03307 0.84337 -0.26600
H 	H 	0.32513 0.01447 0.82507 0.12700
H 	H 	0.31753 0.06157 0.83317 0.12400
H 	H 	0.28693 0.01047 0.85507 0.11700
C 	C 	0.40313 0.09817 0.91897 0.10300
C 	C 	0.48003 0.10027 0.93717 -0.24200
H 	H 	0.49863 0.08277 0.93177 0.11200
H 	H 	0.46803 0.09307 0.96127 0.10700
H 	H 	0.50233 0.13677 0.93427 0.10800
C 	C 	0.40763 0.13297 0.94787 -0.13500
H 	H 	0.43443 0.14427 0.96417 0.08400
C 	C 	0.37203 0.14867 0.95067 0.04800
C 	C 	0.37523 0.18307 0.97897 -0.09000
C 	C 	0.33633 0.19557 0.98327 0.03300
C 	C 	0.34283 0.23377 0.01127 -0.13200
H 	H 	0.37253 0.24977 0.02507 0.08200
C 	C 	0.30403 0.24417 0.01577 0.09000
C 	C 	0.35073 0.30537 0.06187 -0.24800
H 	H 	0.38023 0.32487 0.04697 0.11100
H 	H 	0.35553 0.28117 0.07567 0.10700
H 	H 	0.34663 0.32847 0.07757 0.12700
C 	C 	0.25873 0.22117 0.99537 0.09300
C 	C 	0.17623 0.21207 0.98697 -0.22600
H 	H 	0.18153 0.20607 0.96267 0.09800
H 	H 	0.16243 0.23497 0.98767 0.10700
H 	H 	0.15243 0.17997 0.99807 0.10600
C 	C 	0.25263 0.18667 0.96957 -0.14300
H 	H 	0.22223 0.17057 0.95657 0.08200
C 	C 	0.29283 0.17487 0.96227 0.04500
C 	C 	0.42063 0.20437 0.00257 0.15700
C 	C 	0.41683 0.19137 0.03727 -0.21600
H 	H 	0.38443 0.16807 0.04627 0.11000
C 	C 	0.45753 0.21027 0.05977 0.13300
H 	H 	0.45313 0.19847 0.08307 0.00500
C 	C 	0.50583 0.24757 0.04777 -0.19100
C 	C 	0.55183 0.27277 0.07207 0.40700
C 	C 	0.51113 0.26307 0.01327 0.13400
H 	H 	0.54323 0.28827 0.00477 -0.00800
C 	C 	0.46973 0.24167 0.99107 -0.21900
H 	H 	0.47423 0.25227 0.96747 0.10700
Zn	Zn	0.70212 0.40285 0.13782 1.21400
O 	O 	0.66070 0.41050 0.17434 -0.52000
O 	O 	0.40520 0.61460 0.43750 -0.50400
O 	O 	0.58190 0.34920 0.15951 -0.53700
O 	O 	0.36550 0.62860 0.39060 -0.54300
O 	O 	0.61450 0.64210 0.20260 -0.15000
O 	O 	0.58430 0.68670 0.24650 -0.15400
O 	O 	0.43220 0.32210 0.33840 -0.15700
O 	O 	0.38790 0.36080 0.37400 -0.14500
C 	C 	0.61080 0.38840 0.17480 0.43100
C 	C 	0.58940 0.41330 0.19940 -0.20400
C 	C 	0.61990 0.45120 0.22360 0.12900
H 	H 	0.65520 0.46330 0.22430 0.00000
C 	C 	0.59900 0.47100 0.24640 -0.23100
H 	H 	0.61960 0.49420 0.26380 0.12600
C 	C 	0.54780 0.45720 0.24410 0.16400
C 	C 	0.51800 0.42090 0.21890 -0.23600
H 	H 	0.48330 0.41120 0.21680 0.11400
C 	C 	0.53690 0.39950 0.19760 0.14300
H 	H 	0.51530 0.37490 0.18120 -0.01300
C 	C 	0.52630 0.47940 0.26780 -0.09400
C 	C 	0.53900 0.53330 0.26230 0.04600
C 	C 	0.57180 0.56180 0.23400 -0.12700
H 	H 	0.58540 0.54680 0.21910 0.08200
C 	C 	0.58420 0.61380 0.22840 0.10000
C 	C 	0.63360 0.61930 0.17670 -0.27000
H 	H 	0.65220 0.64400 0.15840 0.13000
H 	H 	0.60510 0.58930 0.16650 0.12500
H 	H 	0.65620 0.60980 0.18840 0.11900
C 	C 	0.56850 0.63830 0.25230 0.10200
C 	C 	0.56640 0.71310 0.27050 -0.24700
H 	H 	0.58390 0.74920 0.26510 0.11500
H 	H 	0.57360 0.70830 0.29460 0.11000
H 	H 	0.52990 0.69890 0.26760 0.11000
C 	C 	0.53370 0.60800 0.28120 -0.13200
H 	H 	0.52240 0.62350 0.29750 0.08400
C 	C 	0.51800 0.55670 0.28400 0.04500
C 	C 	0.48360 0.52550 0.31230 -0.08100
C 	C 	0.47110 0.47410 0.31660 0.03100
C 	C 	0.43290 0.44240 0.34460 -0.13000
H 	H 	0.41690 0.45610 0.35840 0.08100
C 	C 	0.42250 0.39320 0.34910 0.08500
C 	C 	0.36130 0.37870 0.39520 -0.24800
H 	H 	0.34180 0.38870 0.38030 0.11100
H 	H 	0.38550 0.40770 0.40900 0.10700
H 	H 	0.33820 0.35150 0.41090 0.12700
C 	C 	0.44550 0.37090 0.32870 0.10200
C 	C 	0.45460 0.29750 0.32030 -0.21600
H 	H 	0.46060 0.30880 0.29600 0.09500
H 	H 	0.43170 0.26080 0.32100 0.10500
H 	H 	0.48670 0.30580 0.33140 0.10400
C 	C 	0.48000 0.39930 0.30290 -0.14700
H 	H 	0.49610 0.38500 0.28990 0.08400
C 	C 	0.49180 0.45130 0.29560 0.04800
C 	C 	0.46230 0.54960 0.33590 0.13900
C 	C 	0.47530 0.55880 0.37060 -0.20100
H 	H 	0.49860 0.54970 0.37960 0.10500
C 	C 	0.45640 0.58060 0.39310 0.12000
H 	H 	0.46820 0.58800 0.41640 0.00900
C 	C 	0.41910 0.59160 0.38110 -0.18000
C 	C 	0.39390 0.61240 0.40540 0.40400
C 	C 	0.40360 0.58140 0.34660 0.11500
H 	H 	0.37840 0.58830 0.33810 -0.00300
C 	C 	0.42500 0.56140 0.32440 -0.19700
H 	H 	0.41440 0.55530 0.30080 0.10000
Zn	Zn	0.36879 0.73618 0.47115 1.21400
O 	O 	0.32737 0.74383 0.50767 -0.52000
O 	O 	0.07187 0.94793 0.77083 -0.50300
O 	O 	0.24857 0.68253 0.49284 -0.53700
O 	O 	0.03217 0.96193 0.72393 -0.54200
O 	O 	0.28117 0.97543 0.53593 -0.14700
O 	O 	0.25097 0.02003 0.57983 -0.16000
O 	O 	0.09887 0.65543 0.67173 -0.15800
O 	O 	0.05457 0.69413 0.70733 -0.14600
C 	C 	0.27747 0.72173 0.50813 0.43100
C 	C 	0.25607 0.74663 0.53273 -0.20400
C 	C 	0.28657 0.78453 0.55693 0.12900
H 	H 	0.32187 0.79663 0.55763 0.00100
C 	C 	0.26567 0.80433 0.57973 -0.23100
H 	H 	0.28627 0.82753 0.59713 0.12600
C 	C 	0.21447 0.79053 0.57743 0.16300
C 	C 	0.18467 0.75423 0.55223 -0.23500
H 	H 	0.14997 0.74453 0.55013 0.11300
C 	C 	0.20357 0.73283 0.53093 0.14300
H 	H 	0.18197 0.70823 0.51453 -0.01300
C 	C 	0.19297 0.81273 0.60113 -0.09300
C 	C 	0.20567 0.86663 0.59563 0.04500
C 	C 	0.23847 0.89513 0.56733 -0.12500
H 	H 	0.25207 0.88013 0.55243 0.08100
C 	C 	0.25087 0.94713 0.56173 0.09600
C 	C 	0.30027 0.95263 0.51003 -0.27300
H 	H 	0.31887 0.97733 0.49173 0.13100
H 	H 	0.27177 0.92263 0.49983 0.12600
H 	H 	0.32287 0.94313 0.52173 0.12100
C 	C 	0.23517 0.97163 0.58563 0.11000
C 	C 	0.23307 0.04643 0.60383 -0.23900
H 	H 	0.25057 0.08253 0.59843 0.11200
H 	H 	0.24027 0.04163 0.62793 0.10600
H 	H 	0.19657 0.03223 0.60093 0.10600
C 	C 	0.20037 0.94133 0.61453 -0.13600
H 	H 	0.18907 0.95683 0.63083 0.08600
C 	C 	0.18467 0.89003 0.61733 0.04700
C 	C 	0.15027 0.85883 0.64563 -0.08200
C 	C 	0.13777 0.80743 0.64993 0.03100
C 	C 	0.09957 0.77573 0.67793 -0.13100
H 	H 	0.08357 0.78943 0.69173 0.08100
C 	C 	0.08917 0.72653 0.68243 0.08500
C 	C 	0.02797 0.71203 0.72853 -0.24400
H 	H 	0.00847 0.72203 0.71363 0.10900
H 	H 	0.05217 0.74103 0.74233 0.10600
H 	H 	0.00487 0.68483 0.74423 0.12400
C 	C 	0.11217 0.70423 0.66203 0.10100
C 	C 	0.12127 0.63083 0.65363 -0.21500
H 	H 	0.12727 0.64213 0.62933 0.09400
H 	H 	0.09837 0.59413 0.65433 0.10400
H 	H 	0.15337 0.63913 0.66473 0.10400
C 	C 	0.14667 0.73263 0.63623 -0.14700
H 	H 	0.16277 0.71833 0.62323 0.08400
C 	C 	0.15847 0.78463 0.62893 0.04800
C 	C 	0.12897 0.88293 0.66923 0.13900
C 	C 	0.14197 0.89213 0.70393 -0.20100
H 	H 	0.16527 0.88303 0.71293 0.10500
C 	C 	0.12307 0.91393 0.72643 0.12000
H 	H 	0.13487 0.92133 0.74973 0.00900
C 	C 	0.08577 0.92493 0.71443 -0.17900
C 	C 	0.06057 0.94573 0.73873 0.40300
C 	C 	0.07027 0.91473 0.67993 0.11600
H 	H 	0.04507 0.92163 0.67143 -0.00300
C 	C 	0.09167 0.89473 0.65773 -0.19700
H 	H 	0.08107 0.88863 0.63413 0.10000
Zn	Zn	0.03545 0.06952 0.80449 1.21300
O 	O 	0.99403 0.07717 0.84101 -0.51700
O 	O 	0.73853 0.28127 0.10417 -0.50500
O 	O 	0.91523 0.01587 0.82618 -0.53900
O 	O 	0.69883 0.29527 0.05727 -0.54400
O 	O 	0.94783 0.30877 0.86927 -0.14700
O 	O 	0.91763 0.35337 0.91317 -0.15400
O 	O 	0.76553 0.98877 0.00507 -0.14600
O 	O 	0.72123 0.02747 0.04067 -0.14900
C 	C 	0.94413 0.05507 0.84147 0.43100
C 	C 	0.92273 0.07997 0.86607 -0.20300
C 	C 	0.95323 0.11787 0.89027 0.12800
H 	H 	0.98853 0.12997 0.89097 0.00200
C 	C 	0.93233 0.13767 0.91307 -0.22900
H 	H 	0.95293 0.16087 0.93047 0.12600
C 	C 	0.88113 0.12387 0.91077 0.16200
C 	C 	0.85133 0.08757 0.88557 -0.23400
H 	H 	0.81663 0.07787 0.88347 0.11200
C 	C 	0.87023 0.06617 0.86427 0.14100
H 	H 	0.84863 0.04157 0.84787 -0.01300
C 	C 	0.85963 0.14607 0.93447 -0.09100
C 	C 	0.87233 0.19997 0.92897 0.04300
C 	C 	0.90513 0.22847 0.90067 -0.12500
H 	H 	0.91873 0.21347 0.88577 0.08200
C 	C 	0.91753 0.28047 0.89507 0.09800
C 	C 	0.96693 0.28597 0.84337 -0.27500
H 	H 	0.98553 0.31067 0.82507 0.13200
H 	H 	0.93843 0.25597 0.83317 0.12700
H 	H 	0.98953 0.27647 0.85507 0.12200
C 	C 	0.90183 0.30497 0.91897 0.10400
C 	C 	0.89973 0.37977 0.93717 -0.24600
H 	H 	0.91723 0.41587 0.93177 0.11500
H 	H 	0.90693 0.37497 0.96127 0.11000
H 	H 	0.86323 0.36557 0.93427 0.10900
C 	C 	0.86703 0.27467 0.94787 -0.13500
H 	H 	0.85573 0.29017 0.96417 0.08400
C 	C 	0.85133 0.22337 0.95067 0.04900
C 	C 	0.81693 0.19217 0.97897 -0.09100
C 	C 	0.80443 0.14077 0.98327 0.03500
C 	C 	0.76623 0.10907 0.01127 -0.13400
H 	H 	0.75023 0.12277 0.02507 0.08200
C 	C 	0.75583 0.05987 0.01577 0.09300
C 	C 	0.69463 0.04537 0.06187 -0.24300
H 	H 	0.67513 0.05537 0.04697 0.10900
H 	H 	0.71883 0.07437 0.07567 0.10500
H 	H 	0.67153 0.01817 0.07757 0.12400
C 	C 	0.77883 0.03757 0.99537 0.08600
C 	C 	0.78793 0.96417 0.98697 -0.23200
H 	H 	0.79393 0.97547 0.96267 0.10100
H 	H 	0.76503 0.92747 0.98767 0.10900
H 	H 	0.82003 0.97247 0.99807 0.10900
C 	C 	0.81333 0.06597 0.96957 -0.13900
H 	H 	0.82943 0.05167 0.95657 0.07900
C 	C 	0.82513 0.11797 0.96227 0.04200
C 	C 	0.79563 0.21627 0.00257 0.15800
C 	C 	0.80863 0.22547 0.03727 -0.21600
H 	H 	0.83193 0.21637 0.04627 0.11100
C 	C 	0.78973 0.24727 0.05977 0.13300
H 	H 	0.80153 0.25467 0.08307 0.00400
C 	C 	0.75243 0.25827 0.04777 -0.19100
C 	C 	0.72723 0.27907 0.07207 0.40800
C 	C 	0.73693 0.24807 0.01327 0.13400
H 	H 	0.71173 0.25497 0.00477 -0.00900
C 	C 	0.75833 0.22807 0.99107 -0.21900
H 	H 	0.74773 0.22197 0.96747 0.10700
Zn	Zn	0.59715 0.29927 0.13782 1.21400
O 	O 	0.58950 0.25020 0.17434 -0.52000
O 	O 	0.38540 0.79060 0.43750 -0.50400
O 	O 	0.65080 0.23270 0.15951 -0.53700
O 	O 	0.37140 0.73690 0.39060 -0.54300
O 	O 	0.35790 0.97240 0.20260 -0.14600
O 	O 	0.31330 0.89760 0.24650 -0.15300
O 	O 	0.67790 0.11010 0.33840 -0.15700
O 	O 	0.63920 0.02710 0.37400 -0.14700
C 	C 	0.61160 0.22240 0.17480 0.43100
C 	C 	0.58670 0.17610 0.19940 -0.20300
C 	C 	0.54880 0.16870 0.22360 0.12800
H 	H 	0.53670 0.19190 0.22430 0.00100
C 	C 	0.52900 0.12800 0.24640 -0.23000
H 	H 	0.50580 0.12540 0.26380 0.12600
C 	C 	0.54280 0.09060 0.24410 0.16200
C 	C 	0.57910 0.09710 0.21890 -0.23400
H 	H 	0.58880 0.07210 0.21680 0.11300
C 	C 	0.60050 0.13740 0.19760 0.14200
H 	H 	0.62510 0.14040 0.18120 -0.01200
C 	C 	0.52060 0.04690 0.26780 -0.09100
C 	C 	0.46670 0.00570 0.26230 0.04100
C 	C 	0.43820 0.01000 0.23400 -0.13000
H 	H 	0.45320 0.03860 0.21910 0.08300
C 	C 	0.38620 0.97040 0.22840 0.10300
C 	C 	0.38070 0.01430 0.17670 -0.27800
H 	H 	0.35600 0.00820 0.15840 0.13100
H 	H 	0.41070 0.01580 0.16650 0.12700
H 	H 	0.39020 0.04640 0.18840 0.12100
C 	C 	0.36170 0.93020 0.25230 0.10300
C 	C 	0.28690 0.85330 0.27050 -0.24700
H 	H 	0.25080 0.83470 0.26510 0.11500
H 	H 	0.29170 0.86530 0.29460 0.11000
H 	H 	0.30110 0.83100 0.26760 0.11000
C 	C 	0.39200 0.92570 0.28120 -0.13400
H 	H 	0.37650 0.89890 0.29750 0.08400
C 	C 	0.44330 0.96130 0.28400 0.05100
C 	C 	0.47450 0.95810 0.31230 -0.08400
C 	C 	0.52590 0.99700 0.31660 0.03700
C 	C 	0.55760 0.99050 0.34460 -0.12600
H 	H 	0.54390 0.96080 0.35840 0.08000
C 	C 	0.60680 0.02930 0.34910 0.08100
C 	C 	0.62130 0.98260 0.39520 -0.24200
H 	H 	0.61130 0.95310 0.38030 0.11000
H 	H 	0.59230 0.97780 0.40900 0.10700
H 	H 	0.64850 0.98670 0.41090 0.12600
C 	C 	0.62910 0.07460 0.32870 0.10200
C 	C 	0.70250 0.15710 0.32030 -0.21600
H 	H 	0.69120 0.15180 0.29600 0.09500
H 	H 	0.73920 0.17090 0.32100 0.10500
H 	H 	0.69420 0.18090 0.33140 0.10400
C 	C 	0.60070 0.08070 0.30290 -0.14600
H 	H 	0.61500 0.11110 0.28990 0.08300
C 	C 	0.54870 0.04050 0.29560 0.04200
C 	C 	0.45040 0.91270 0.33590 0.14100
C 	C 	0.44120 0.91650 0.37060 -0.20300
H 	H 	0.45030 0.94890 0.37960 0.10700
C 	C 	0.41940 0.87580 0.39310 0.12200
H 	H 	0.41200 0.88020 0.41640 0.00900
C 	C 	0.40840 0.82750 0.38110 -0.18100
C 	C 	0.38760 0.78150 0.40540 0.40400
C 	C 	0.41860 0.82220 0.34660 0.11700
H 	H 	0.41170 0.79010 0.33810 -0.00300
C 	C 	0.43860 0.86360 0.32440 -0.19900
H 	H 	0.44470 0.85910 0.30080 0.10100
Zn	Zn	0.26382 0.63260 0.47115 1.21400
O 	O 	0.25617 0.58353 0.50767 -0.52000
O 	O 	0.05207 0.12393 0.77083 -0.50600
O 	O 	0.31747 0.56603 0.49284 -0.53700
O 	O 	0.03807 0.07023 0.72393 -0.54500
O 	O 	0.02457 0.30573 0.53593 -0.15300
O 	O 	0.97997 0.23093 0.57983 -0.14800
O 	O 	0.34457 0.44343 0.67173 -0.15700
O 	O 	0.30587 0.36043 0.70733 -0.14400
C 	C 	0.27827 0.55573 0.50813 0.43200
C 	C 	0.25337 0.50943 0.53273 -0.20400
C 	C 	0.21547 0.50203 0.55693 0.13000
H 	H 	0.20337 0.52523 0.55763 0.00000
C 	C 	0.19567 0.46133 0.57973 -0.23200
H 	H 	0.17247 0.45873 0.59713 0.12600
C 	C 	0.20947 0.42393 0.57743 0.16500
C 	C 	0.24577 0.43043 0.55223 -0.23600
H 	H 	0.25547 0.40543 0.55013 0.11400
C 	C 	0.26717 0.47073 0.53093 0.14300
H 	H 	0.29177 0.47373 0.51453 -0.01300
C 	C 	0.18727 0.38023 0.60113 -0.09500
C 	C 	0.13337 0.33903 0.59563 0.04800
C 	C 	0.10487 0.34333 0.56733 -0.13000
H 	H 	0.11987 0.37193 0.55243 0.08300
C 	C 	0.05287 0.30373 0.56173 0.10300
C 	C 	0.04737 0.34763 0.51003 -0.26600
H 	H 	0.02267 0.34153 0.49173 0.12700
H 	H 	0.07737 0.34913 0.49983 0.12400
H 	H 	0.05687 0.37973 0.52173 0.11800
C 	C 	0.02837 0.26353 0.58563 0.09400
C 	C 	0.95357 0.18663 0.60383 -0.25200
H 	H 	0.91747 0.16803 0.59843 0.11600
H 	H 	0.95837 0.19863 0.62793 0.11300
H 	H 	0.96777 0.16433 0.60093 0.11200
C 	C 	0.05867 0.25903 0.61453 -0.12900
H 	H 	0.04317 0.23223 0.63083 0.08100
C 	C 	0.10997 0.29463 0.61733 0.04200
C 	C 	0.14117 0.29143 0.64563 -0.08000
C 	C 	0.19257 0.33033 0.64993 0.03000
C 	C 	0.22427 0.32383 0.67793 -0.13000
H 	H 	0.21057 0.29413 0.69173 0.08100
C 	C 	0.27347 0.36263 0.68243 0.08500
C 	C 	0.28797 0.31593 0.72853 -0.24800
H 	H 	0.27797 0.28643 0.71363 0.11100
H 	H 	0.25897 0.31113 0.74233 0.10700
H 	H 	0.31517 0.32003 0.74423 0.12700
C 	C 	0.29577 0.40793 0.66203 0.10200
C 	C 	0.36917 0.49043 0.65363 -0.21600
H 	H 	0.35787 0.48513 0.62933 0.09500
H 	H 	0.40587 0.50423 0.65433 0.10500
H 	H 	0.36087 0.51423 0.66473 0.10400
C 	C 	0.26737 0.41403 0.63623 -0.14800
H 	H 	0.28167 0.44443 0.62323 0.08400
C 	C 	0.21537 0.37383 0.62893 0.04900
C 	C 	0.11707 0.24603 0.66923 0.13900
C 	C 	0.10787 0.24983 0.70393 -0.20200
H 	H 	0.11697 0.28223 0.71293 0.10500
C 	C 	0.08607 0.20913 0.72643 0.12000
H 	H 	0.07867 0.21353 0.74973 0.00900
C 	C 	0.07507 0.16083 0.71443 -0.18100
C 	C 	0.05427 0.11483 0.73873 0.40400
C 	C 	0.08527 0.15553 0.67993 0.11600
H 	H 	0.07837 0.12343 0.67143 -0.00400
C 	C 	0.10527 0.19693 0.65773 -0.19800
H 	H 	0.11137 0.19243 0.63413 0.10000
Zn	Zn	0.93048 0.96594 0.80449 1.21600
O 	O 	0.92283 0.91687 0.84101 -0.51800
O 	O 	0.71873 0.45727 0.10417 -0.50500
O 	O 	0.98413 0.89937 0.82618 -0.53400
O 	O 	0.70473 0.40357 0.05727 -0.54300
O 	O 	0.69123 0.63907 0.86927 -0.14900
O 	O 	0.64663 0.56427 0.91317 -0.15500
O 	O 	0.01123 0.77677 0.00507 -0.15700
O 	O 	0.97253 0.69377 0.04067 -0.14200
C 	C 	0.94493 0.88907 0.84147 0.43100
C 	C 	0.92003 0.84277 0.86607 -0.20200
C 	C 	0.88213 0.83537 0.89027 0.12800
H 	H 	0.87003 0.85857 0.89097 0.00100
C 	C 	0.86233 0.79467 0.91307 -0.23000
H 	H 	0.83913 0.79207 0.93047 0.12600
C 	C 	0.87613 0.75727 0.91077 0.16300
C 	C 	0.91243 0.76377 0.88557 -0.23400
H 	H 	0.92213 0.73877 0.88347 0.11400
C 	C 	0.93383 0.80407 0.86427 0.14200
H 	H 	0.95843 0.80707 0.84787 -0.01100
C 	C 	0.85393 0.71357 0.93447 -0.09300
C 	C 	0.80003 0.67237 0.92897 0.04500
C 	C 	0.77153 0.67667 0.90067 -0.12600
H 	H 	0.78653 0.70527 0.88577 0.08200
C 	C 	0.71953 0.63707 0.89507 0.09900
C 	C 	0.71403 0.68097 0.84337 -0.27000
H 	H 	0.68933 0.67487 0.82507 0.13000
H 	H 	0.74403 0.68247 0.83317 0.12500
H 	H 	0.72353 0.71307 0.85507 0.11900
C 	C 	0.69503 0.59687 0.91897 0.10300
C 	C 	0.62023 0.51997 0.93717 -0.24500
H 	H 	0.58413 0.50137 0.93177 0.11300
H 	H 	0.62503 0.53197 0.96127 0.10900
H 	H 	0.63443 0.49767 0.93427 0.10900
C 	C 	0.72533 0.59237 0.94787 -0.13400
H 	H 	0.70983 0.56557 0.96417 0.08400
C 	C 	0.77663 0.62797 0.95067 0.04800
C 	C 	0.80783 0.62477 0.97897 -0.08900
C 	C 	0.85923 0.66367 0.98327 0.03200
C 	C 	0.89093 0.65717 0.01127 -0.12900
H 	H 	0.87723 0.62747 0.02507 0.08100
C 	C 	0.94013 0.69597 0.01577 0.08700
C 	C 	0.95463 0.64927 0.06187 -0.25300
H 	H 	0.94463 0.61977 0.04697 0.11400
H 	H 	0.92563 0.64447 0.07567 0.10900
H 	H 	0.98183 0.65337 0.07757 0.13000
C 	C 	0.96243 0.74127 0.99537 0.10100
C 	C 	0.03583 0.82377 0.98697 -0.21800
H 	H 	0.02453 0.81847 0.96267 0.09400
H 	H 	0.07253 0.83757 0.98767 0.10500
H 	H 	0.02753 0.84757 0.99807 0.10300
C 	C 	0.93403 0.74737 0.96957 -0.14700
H 	H 	0.94833 0.77777 0.95657 0.08500
C 	C 	0.88203 0.70717 0.96227 0.04700
C 	C 	0.78373 0.57937 0.00257 0.15600
C 	C 	0.77453 0.58317 0.03727 -0.21500
H 	H 	0.78363 0.61557 0.04627 0.11000
C 	C 	0.75273 0.54247 0.05977 0.13200
H 	H 	0.74533 0.54687 0.08307 0.00500
C 	C 	0.74173 0.49417 0.04777 -0.19000
C 	C 	0.72093 0.44817 0.07207 0.40700
C 	C 	0.75193 0.48887 0.01327 0.13300
H 	H 	0.74503 0.45677 0.00477 -0.00800
C 	C 	0.77193 0.53027 0.99107 -0.21800
H 	H 	0.77803 0.52577 0.96747 0.10700
Zn	Zn	0.66667 0.33333 0.06647 1.23200
O 	O 	0.66667 0.33333 0.11900 -0.94100
Zn	Zn	0.33333 0.66667 0.39980 1.23100
O 	O 	0.33333 0.66667 0.45233 -0.94100
Zn	Zn	-0.00000 0.00000 0.73314 1.22900
O 	O 	-0.00000 0.00000 0.78567 -0.94600
Zn	Zn	0.29927 0.70212 0.86218 1.21400
O 	O 	0.25020 0.66070 0.82566 -0.52000
O 	O 	0.79060 0.40520 0.56250 -0.50400
O 	O 	0.23270 0.58190 0.84049 -0.53700
O 	O 	0.73690 0.36550 0.60940 -0.54300
O 	O 	0.97240 0.61450 0.79740 -0.14600
O 	O 	0.89760 0.58430 0.75350 -0.15300
O 	O 	0.11010 0.43220 0.66160 -0.15700
O 	O 	0.02710 0.38790 0.62600 -0.14700
C 	C 	0.22240 0.61080 0.82520 0.43100
C 	C 	0.17610 0.58940 0.80060 -0.20300
C 	C 	0.16870 0.61990 0.77640 0.12800
H 	H 	0.19190 0.65520 0.77570 0.00100
C 	C 	0.12800 0.59900 0.75360 -0.23000
H 	H 	0.12540 0.61960 0.73620 0.12600
C 	C 	0.09060 0.54780 0.75590 0.16200
C 	C 	0.09710 0.51800 0.78110 -0.23400
H 	H 	0.07210 0.48330 0.78320 0.11300
C 	C 	0.13740 0.53690 0.80240 0.14200
H 	H 	0.14040 0.51530 0.81880 -0.01200
C 	C 	0.04690 0.52630 0.73220 -0.09100
C 	C 	0.00570 0.53900 0.73770 0.04000
C 	C 	0.01000 0.57180 0.76600 -0.13000
H 	H 	0.03860 0.58540 0.78090 0.08300
C 	C 	0.97040 0.58420 0.77160 0.10300
C 	C 	0.01430 0.63360 0.82330 -0.27700
H 	H 	0.00820 0.65220 0.84160 0.13100
H 	H 	0.01580 0.60510 0.83350 0.12600
H 	H 	0.04640 0.65620 0.81160 0.12100
C 	C 	0.93020 0.56850 0.74770 0.10300
C 	C 	0.85330 0.56640 0.72950 -0.24700
H 	H 	0.83470 0.58390 0.73490 0.11500
H 	H 	0.86530 0.57360 0.70540 0.11000
H 	H 	0.83100 0.52990 0.73240 0.11000
C 	C 	0.92570 0.53370 0.71880 -0.13400
H 	H 	0.89890 0.52240 0.70250 0.08400
C 	C 	0.96130 0.51800 0.71600 0.05100
C 	C 	0.95810 0.48360 0.68770 -0.08400
C 	C 	0.99700 0.47110 0.68340 0.03700
C 	C 	0.99050 0.43290 0.65540 -0.12600
H 	H 	0.96080 0.41690 0.64160 0.08000
C 	C 	0.02930 0.42250 0.65090 0.08100
C 	C 	0.98260 0.36130 0.60480 -0.24100
H 	H 	0.95310 0.34180 0.61970 0.11000
H 	H 	0.97780 0.38550 0.59100 0.10700
H 	H 	0.98670 0.33820 0.58910 0.12600
C 	C 	0.07460 0.44550 0.67130 0.10200
C 	C 	0.15710 0.45460 0.67970 -0.21600
H 	H 	0.15180 0.46060 0.70400 0.09500
H 	H 	0.17090 0.43170 0.67900 0.10500
H 	H 	0.18090 0.48670 0.66860 0.10400
C 	C 	0.08070 0.48000 0.69710 -0.14600
H 	H 	0.11110 0.49610 0.71010 0.08300
C 	C 	0.04050 0.49180 0.70440 0.04200
C 	C 	0.91270 0.46230 0.66410 0.14200
C 	C 	0.91650 0.47530 0.62940 -0.20300
H 	H 	0.94890 0.49860 0.62040 0.10700
C 	C 	0.87580 0.45640 0.60690 0.12200
H 	H 	0.88020 0.46820 0.58360 0.00900
C 	C 	0.82750 0.41910 0.61890 -0.18100
C 	C 	0.78150 0.39390 0.59460 0.40400
C 	C 	0.82220 0.40360 0.65340 0.11700
H 	H 	0.79010 0.37840 0.66190 -0.00300
C 	C 	0.86360 0.42500 0.67560 -0.19900
H 	H 	0.85910 0.41440 0.69920 0.10100
Zn	Zn	0.96594 0.03545 0.19551 1.21500
O 	O 	0.91687 0.99403 0.15899 -0.51600
O 	O 	0.45727 0.73853 0.89583 -0.50400
O 	O 	0.89937 0.91523 0.17382 -0.53600
O 	O 	0.40357 0.69883 0.94273 -0.54200
O 	O 	0.63907 0.94783 0.13073 -0.14800
O 	O 	0.56427 0.91763 0.08683 -0.15200
O 	O 	0.77677 0.76553 0.99493 -0.16300
O 	O 	0.69377 0.72123 0.95933 -0.14400
C 	C 	0.88907 0.94413 0.15853 0.43100
C 	C 	0.84277 0.92273 0.13393 -0.20400
C 	C 	0.83537 0.95323 0.10973 0.13000
H 	H 	0.85857 0.98853 0.10903 0.00200
C 	C 	0.79467 0.93233 0.08693 -0.23100
H 	H 	0.79207 0.95293 0.06953 0.12700
C 	C 	0.75727 0.88113 0.08923 0.16500
C 	C 	0.76377 0.85133 0.11443 -0.23600
H 	H 	0.73877 0.81663 0.11653 0.11400
C 	C 	0.80407 0.87023 0.13573 0.14300
H 	H 	0.80707 0.84863 0.15213 -0.01300
C 	C 	0.71357 0.85963 0.06553 -0.09500
C 	C 	0.67237 0.87233 0.07103 0.04800
C 	C 	0.67667 0.90513 0.09933 -0.12800
H 	H 	0.70527 0.91873 0.11423 0.08300
C 	C 	0.63707 0.91753 0.10493 0.10000
C 	C 	0.68097 0.96693 0.15663 -0.27400
H 	H 	0.67487 0.98553 0.17493 0.13200
H 	H 	0.68247 0.93843 0.16683 0.12700
H 	H 	0.71307 0.98953 0.14493 0.12200
C 	C 	0.59687 0.90183 0.08103 0.10100
C 	C 	0.51997 0.89973 0.06283 -0.25000
H 	H 	0.50137 0.91723 0.06823 0.11700
H 	H 	0.53197 0.90693 0.03873 0.11200
H 	H 	0.49767 0.86323 0.06573 0.11100
C 	C 	0.59237 0.86703 0.05213 -0.12900
H 	H 	0.56557 0.85573 0.03583 0.08300
C 	C 	0.62797 0.85133 0.04933 0.04100
C 	C 	0.62477 0.81693 0.02103 -0.07300
C 	C 	0.66367 0.80443 0.01673 0.02900
C 	C 	0.65717 0.76623 0.98873 -0.12900
H 	H 	0.62747 0.75023 0.97493 0.08000
C 	C 	0.69597 0.75583 0.98423 0.08000
C 	C 	0.64927 0.69463 0.93813 -0.24900
H 	H 	0.61977 0.67513 0.95303 0.11100
H 	H 	0.64447 0.71883 0.92433 0.10800
H 	H 	0.65337 0.67153 0.92243 0.12700
C 	C 	0.74127 0.77883 0.00463 0.11000
C 	C 	0.82377 0.78793 0.01303 -0.20700
H 	H 	0.81847 0.79393 0.03733 0.09200
H 	H 	0.83757 0.76503 0.01233 0.10300
H 	H 	0.84757 0.82003 0.00193 0.10300
C 	C 	0.74737 0.81333 0.03043 -0.15200
H 	H 	0.77777 0.82943 0.04343 0.08600
C 	C 	0.70717 0.82513 0.03773 0.05100
C 	C 	0.57937 0.79563 0.99743 0.12300
C 	C 	0.58317 0.80863 0.96273 -0.18800
H 	H 	0.61557 0.83193 0.95373 0.10000
C 	C 	0.54247 0.78973 0.94023 0.10800
H 	H 	0.54687 0.80153 0.91693 0.01300
C 	C 	0.49417 0.75243 0.95223 -0.17000
C 	C 	0.44817 0.72723 0.92793 0.40000
C 	C 	0.48887 0.73693 0.98673 0.09900
H 	H 	0.45677 0.71173 0.99523 0.00200
C 	C 	0.53027 0.75833 0.00893 -0.17700
H 	H 	0.52577 0.74773 0.03253 0.09400
Zn	Zn	0.63260 0.36879 0.52885 1.21400
O 	O 	0.58353 0.32737 0.49233 -0.52000
O 	O 	0.12393 0.07187 0.22917 -0.50500
O 	O 	0.56603 0.24857 0.50716 -0.53700
O 	O 	0.07023 0.03217 0.27607 -0.54500
O 	O 	0.30573 0.28117 0.46407 -0.15000
O 	O 	0.23093 0.25097 0.42017 -0.15400
O 	O 	0.44343 0.09887 0.32827 -0.15800
O 	O 	0.36043 0.05457 0.29267 -0.14600
C 	C 	0.55573 0.27747 0.49187 0.43100
C 	C 	0.50943 0.25607 0.46727 -0.20400
C 	C 	0.50203 0.28657 0.44307 0.12900
H 	H 	0.52523 0.32187 0.44237 0.00000
C 	C 	0.46133 0.26567 0.42027 -0.23100
H 	H 	0.45873 0.28627 0.40287 0.12600
C 	C 	0.42393 0.21447 0.42257 0.16400
C 	C 	0.43043 0.18467 0.44777 -0.23500
H 	H 	0.40543 0.14997 0.44987 0.11300
C 	C 	0.47073 0.20357 0.46907 0.14300
H 	H 	0.47373 0.18197 0.48547 -0.01300
C 	C 	0.38023 0.19297 0.39887 -0.09400
C 	C 	0.33903 0.20567 0.40437 0.04600
C 	C 	0.34333 0.23847 0.43267 -0.12700
H 	H 	0.37193 0.25207 0.44757 0.08200
C 	C 	0.30373 0.25087 0.43827 0.09900
C 	C 	0.34763 0.30027 0.48997 -0.27000
H 	H 	0.34153 0.31887 0.50827 0.12900
H 	H 	0.34913 0.27177 0.50017 0.12500
H 	H 	0.37973 0.32287 0.47827 0.11900
C 	C 	0.26353 0.23517 0.41437 0.10200
C 	C 	0.18663 0.23307 0.39617 -0.24500
H 	H 	0.16803 0.25057 0.40157 0.11300
H 	H 	0.19863 0.24027 0.37207 0.10900
H 	H 	0.16433 0.19657 0.39907 0.10800
C 	C 	0.25903 0.20037 0.38547 -0.13200
H 	H 	0.23223 0.18907 0.36917 0.08400
C 	C 	0.29463 0.18467 0.38267 0.04500
C 	C 	0.29143 0.15027 0.35437 -0.08100
C 	C 	0.33033 0.13777 0.35007 0.03100
C 	C 	0.32383 0.09957 0.32207 -0.13100
H 	H 	0.29413 0.08357 0.30827 0.08100
C 	C 	0.36263 0.08917 0.31757 0.08500
C 	C 	0.31593 0.02797 0.27147 -0.24400
H 	H 	0.28643 0.00847 0.28637 0.10800
H 	H 	0.31113 0.05217 0.25767 0.10600
H 	H 	0.32003 0.00487 0.25577 0.12400
C 	C 	0.40793 0.11217 0.33797 0.10100
C 	C 	0.49043 0.12127 0.34637 -0.21500
H 	H 	0.48513 0.12727 0.37067 0.09400
H 	H 	0.50423 0.09837 0.34567 0.10400
H 	H 	0.51423 0.15337 0.33527 0.10400
C 	C 	0.41403 0.14667 0.36377 -0.14700
H 	H 	0.44443 0.16277 0.37677 0.08400
C 	C 	0.37383 0.15847 0.37107 0.04800
C 	C 	0.24603 0.12897 0.33077 0.13900
C 	C 	0.24983 0.14197 0.29607 -0.20200
H 	H 	0.28223 0.16527 0.28707 0.10500
C 	C 	0.20913 0.12307 0.27357 0.12000
H 	H 	0.21353 0.13487 0.25027 0.00900
C 	C 	0.16083 0.08577 0.28557 -0.18100
C 	C 	0.11483 0.06057 0.26127 0.40400
C 	C 	0.15553 0.07027 0.32007 0.11600
H 	H 	0.12343 0.04507 0.32857 -0.00400
C 	C 	0.19693 0.09167 0.34227 -0.19800
H 	H 	0.19243 0.08107 0.36587 0.10000
Zn	Zn	0.29788 0.59715 0.86218 1.21400
O 	O 	0.33930 0.58950 0.82566 -0.52000
O 	O 	0.59480 0.38540 0.56250 -0.50400
O 	O 	0.41810 0.65080 0.84049 -0.53700
O 	O 	0.63450 0.37140 0.60940 -0.54300
O 	O 	0.38550 0.35790 0.79740 -0.15000
O 	O 	0.41570 0.31330 0.75350 -0.15400
O 	O 	0.56780 0.67790 0.66160 -0.15700
O 	O 	0.61210 0.63920 0.62600 -0.14400
C 	C 	0.38920 0.61160 0.82520 0.43100
C 	C 	0.41060 0.58670 0.80060 -0.20400
C 	C 	0.38010 0.54880 0.77640 0.12900
H 	H 	0.34480 0.53670 0.77570 0.00000
C 	C 	0.40100 0.52900 0.75360 -0.23100
H 	H 	0.38040 0.50580 0.73620 0.12600
C 	C 	0.45220 0.54280 0.75590 0.16400
C 	C 	0.48200 0.57910 0.78110 -0.23600
H 	H 	0.51670 0.58880 0.78320 0.11400
C 	C 	0.46310 0.60050 0.80240 0.14300
H 	H 	0.48470 0.62510 0.81880 -0.01300
C 	C 	0.47370 0.52060 0.73220 -0.09400
C 	C 	0.46100 0.46670 0.73770 0.04600
C 	C 	0.42820 0.43820 0.76600 -0.12700
H 	H 	0.41460 0.45320 0.78090 0.08200
C 	C 	0.41580 0.38620 0.77160 0.10000
C 	C 	0.36640 0.38070 0.82330 -0.27000
H 	H 	0.34780 0.35600 0.84160 0.12900
H 	H 	0.39490 0.41070 0.83350 0.12500
H 	H 	0.34380 0.39020 0.81160 0.11900
C 	C 	0.43150 0.36170 0.74770 0.10200
C 	C 	0.43360 0.28690 0.72950 -0.24600
H 	H 	0.41610 0.25080 0.73490 0.11400
H 	H 	0.42640 0.29170 0.70540 0.10900
H 	H 	0.47010 0.30110 0.73240 0.10900
C 	C 	0.46630 0.39200 0.71880 -0.13200
H 	H 	0.47760 0.37650 0.70250 0.08400
C 	C 	0.48200 0.44330 0.71600 0.04500
C 	C 	0.51640 0.47450 0.68770 -0.08100
C 	C 	0.52890 0.52590 0.68340 0.03100
C 	C 	0.56710 0.55760 0.65540 -0.13000
H 	H 	0.58310 0.54390 0.64160 0.08100
C 	C 	0.57750 0.60680 0.65090 0.08500
C 	C 	0.63870 0.62130 0.60480 -0.24800
H 	H 	0.65820 0.61130 0.61970 0.11100
H 	H 	0.61450 0.59230 0.59100 0.10800
H 	H 	0.66180 0.64850 0.58910 0.12700
C 	C 	0.55450 0.62910 0.67130 0.10200
C 	C 	0.54540 0.70250 0.67970 -0.21600
H 	H 	0.53940 0.69120 0.70400 0.09500
H 	H 	0.56830 0.73920 0.67900 0.10500
H 	H 	0.51330 0.69420 0.66860 0.10400
C 	C 	0.52000 0.60070 0.69710 -0.14700
H 	H 	0.50390 0.61500 0.71010 0.08400
C 	C 	0.50820 0.54870 0.70440 0.04800
C 	C 	0.53770 0.45040 0.66410 0.13900
C 	C 	0.52470 0.44120 0.62940 -0.20100
H 	H 	0.50140 0.45030 0.62040 0.10500
C 	C 	0.54360 0.41940 0.60690 0.12000
H 	H 	0.53180 0.41200 0.58360 0.00900
C 	C 	0.58090 0.40840 0.61890 -0.18000
C 	C 	0.60610 0.38760 0.59460 0.40400
C 	C 	0.59640 0.41860 0.65340 0.11500
H 	H 	0.62160 0.41170 0.66190 -0.00300
C 	C 	0.57500 0.43860 0.67560 -0.19700
H 	H 	0.58560 0.44470 0.69920 0.10000
Zn	Zn	0.96455 0.93048 0.19551 1.21600
O 	O 	0.00597 0.92283 0.15899 -0.52100
O 	O 	0.26147 0.71873 0.89583 -0.50400
O 	O 	0.08477 0.98413 0.17382 -0.53500
O 	O 	0.30117 0.70473 0.94273 -0.54300
O 	O 	0.05217 0.69123 0.13073 -0.15200
O 	O 	0.08237 0.64663 0.08683 -0.15400
O 	O 	0.23447 0.01123 0.99493 -0.17000
O 	O 	0.27877 0.97253 0.95933 -0.14000
C 	C 	0.05587 0.94493 0.15853 0.43200
C 	C 	0.07727 0.92003 0.13393 -0.20400
C 	C 	0.04677 0.88213 0.10973 0.13100
H 	H 	0.01147 0.87003 0.10903 -0.00100
C 	C 	0.06767 0.86233 0.08693 -0.23300
H 	H 	0.04707 0.83913 0.06953 0.12600
C 	C 	0.11887 0.87613 0.08923 0.16600
C 	C 	0.14867 0.91243 0.11443 -0.23700
H 	H 	0.18337 0.92213 0.11653 0.11500
C 	C 	0.12977 0.93383 0.13573 0.14500
H 	H 	0.15137 0.95843 0.15213 -0.01200
C 	C 	0.14037 0.85393 0.06553 -0.09700
C 	C 	0.12767 0.80003 0.07103 0.04900
C 	C 	0.09487 0.77153 0.09933 -0.12900
H 	H 	0.08127 0.78653 0.11423 0.08300
C 	C 	0.08247 0.71953 0.10493 0.10100
C 	C 	0.03307 0.71403 0.15663 -0.26600
H 	H 	0.01447 0.68933 0.17493 0.12700
H 	H 	0.06157 0.74403 0.16683 0.12400
H 	H 	0.01047 0.72353 0.14493 0.11700
C 	C 	0.09817 0.69503 0.08103 0.10000
C 	C 	0.10027 0.62023 0.06283 -0.24700
H 	H 	0.08277 0.58413 0.06823 0.11400
H 	H 	0.09307 0.62503 0.03873 0.11000
H 	H 	0.13677 0.63443 0.06573 0.11000
C 	C 	0.13297 0.72533 0.05213 -0.12900
H 	H 	0.14427 0.70983 0.03583 0.08300
C 	C 	0.14867 0.77663 0.04933 0.04100
C 	C 	0.18307 0.80783 0.02103 -0.07200
C 	C 	0.19557 0.85923 0.01673 0.02700
C 	C 	0.23377 0.89093 0.98873 -0.12700
H 	H 	0.24977 0.87723 0.97493 0.07900
C 	C 	0.24417 0.94013 0.98423 0.07700
C 	C 	0.30537 0.95463 0.93813 -0.25500
H 	H 	0.32487 0.94463 0.95303 0.11400
H 	H 	0.28117 0.92563 0.92433 0.11000
H 	H 	0.32847 0.98183 0.92243 0.13000
C 	C 	0.22117 0.96243 0.00463 0.11800
C 	C 	0.21207 0.03583 0.01303 -0.19900
H 	H 	0.20607 0.02453 0.03733 0.08800
H 	H 	0.23497 0.07253 0.01233 0.10100
H 	H 	0.17997 0.02753 0.00193 0.09900
C 	C 	0.18667 0.93403 0.03043 -0.15600
H 	H 	0.17057 0.94833 0.04343 0.08800
C 	C 	0.17487 0.88203 0.03773 0.05400
C 	C 	0.20437 0.78373 0.99743 0.12200
C 	C 	0.19137 0.77453 0.96273 -0.18800
H 	H 	0.16807 0.78363 0.95373 0.10000
C 	C 	0.21027 0.75273 0.94023 0.10800
H 	H 	0.19847 0.74533 0.91693 0.01300
C 	C 	0.24757 0.74173 0.95223 -0.17000
C 	C 	0.27277 0.72093 0.92793 0.40000
C 	C 	0.26307 0.75193 0.98673 0.09900
H 	H 	0.28827 0.74503 0.99523 0.00200
C 	C 	0.24167 0.77193 0.00893 -0.17700
H 	H 	0.25227 0.77803 0.03253 0.09400
Zn	Zn	0.63121 0.26382 0.52885 1.21400
O 	O 	0.67263 0.25617 0.49233 -0.52000
O 	O 	0.92813 0.05207 0.22917 -0.50400
O 	O 	0.75143 0.31747 0.50716 -0.53700
O 	O 	0.96783 0.03807 0.27607 -0.54200
O 	O 	0.71883 0.02457 0.46407 -0.15200
O 	O 	0.74903 0.97997 0.42017 -0.14800
O 	O 	0.90113 0.34457 0.32827 -0.15700
O 	O 	0.94543 0.30587 0.29267 -0.14300
C 	C 	0.72253 0.27827 0.49187 0.43200
C 	C 	0.74393 0.25337 0.46727 -0.20400
C 	C 	0.71343 0.21547 0.44307 0.13000
H 	H 	0.67813 0.20337 0.44237 0.00000
C 	C 	0.73433 0.19567 0.42027 -0.23200
H 	H 	0.71373 0.17247 0.40287 0.12600
C 	C 	0.78553 0.20947 0.42257 0.16500
C 	C 	0.81533 0.24577 0.44777 -0.23600
H 	H 	0.85003 0.25547 0.44987 0.11500
C 	C 	0.79643 0.26717 0.46907 0.14400
H 	H 	0.81803 0.29177 0.48547 -0.01300
C 	C 	0.80703 0.18727 0.39887 -0.09500
C 	C 	0.79433 0.13337 0.40437 0.04800
C 	C 	0.76153 0.10487 0.43267 -0.12900
H 	H 	0.74793 0.11987 0.44757 0.08300
C 	C 	0.74913 0.05287 0.43827 0.10200
C 	C 	0.69973 0.04737 0.48997 -0.26700
H 	H 	0.68113 0.02267 0.50827 0.12800
H 	H 	0.72823 0.07737 0.50017 0.12400
H 	H 	0.67713 0.05687 0.47827 0.11800
C 	C 	0.76483 0.02837 0.41437 0.09500
C 	C 	0.76693 0.95357 0.39617 -0.25300
H 	H 	0.74943 0.91747 0.40157 0.11700
H 	H 	0.75973 0.95837 0.37207 0.11300
H 	H 	0.80343 0.96777 0.39907 0.11300
C 	C 	0.79963 0.05867 0.38547 -0.12900
H 	H 	0.81093 0.04317 0.36917 0.08100
C 	C 	0.81533 0.10997 0.38267 0.04300
C 	C 	0.84973 0.14117 0.35437 -0.08000
C 	C 	0.86223 0.19257 0.35007 0.03100
C 	C 	0.90043 0.22427 0.32207 -0.13000
H 	H 	0.91643 0.21057 0.30827 0.08100
C 	C 	0.91083 0.27347 0.31757 0.08500
C 	C 	0.97203 0.28797 0.27147 -0.25300
H 	H 	0.99153 0.27797 0.28637 0.11400
H 	H 	0.94783 0.25897 0.25767 0.10900
H 	H 	0.99513 0.31517 0.25577 0.13000
C 	C 	0.88783 0.29577 0.33797 0.10200
C 	C 	0.87873 0.36917 0.34637 -0.21700
H 	H 	0.87273 0.35787 0.37067 0.09500
H 	H 	0.90163 0.40587 0.34567 0.10600
H 	H 	0.84663 0.36087 0.33527 0.10500
C 	C 	0.85333 0.26737 0.36377 -0.14800
H 	H 	0.83723 0.28167 0.37677 0.08400
C 	C 	0.84153 0.21537 0.37107 0.04900
C 	C 	0.87103 0.11707 0.33077 0.13800
C 	C 	0.85803 0.10787 0.29607 -0.20100
H 	H 	0.83473 0.11697 0.28707 0.10500
C 	C 	0.87693 0.08607 0.27357 0.11900
H 	H 	0.86513 0.07867 0.25027 0.00900
C 	C 	0.91423 0.07507 0.28557 -0.17900
C 	C 	0.93943 0.05427 0.26127 0.40300
C 	C 	0.92973 0.08527 0.32007 0.11500
H 	H 	0.95493 0.07837 0.32857 -0.00200
C 	C 	0.90833 0.10527 0.34227 -0.19700
H 	H 	0.91893 0.11137 0.36587 0.10000
Zn	Zn	0.40285 0.70073 0.86218 1.21400
O 	O 	0.41050 0.74980 0.82566 -0.52000
O 	O 	0.61460 0.20940 0.56250 -0.50400
O 	O 	0.34920 0.76730 0.84049 -0.53700
O 	O 	0.62860 0.26310 0.60940 -0.54300
O 	O 	0.64210 0.02760 0.79740 -0.15300
O 	O 	0.68670 0.10240 0.75350 -0.15400
O 	O 	0.32210 0.88990 0.66160 -0.15700
O 	O 	0.36080 0.97290 0.62600 -0.14200
C 	C 	0.38840 0.77760 0.82520 0.43200
C 	C 	0.41330 0.82390 0.80060 -0.20500
C 	C 	0.45120 0.83130 0.77640 0.13100
H 	H 	0.46330 0.80810 0.77570 -0.00000
C 	C 	0.47100 0.87200 0.75360 -0.23300
H 	H 	0.49420 0.87460 0.73620 0.12700
C 	C 	0.45720 0.90940 0.75590 0.16700
C 	C 	0.42090 0.90290 0.78110 -0.23800
H 	H 	0.41120 0.92790 0.78320 0.11500
C 	C 	0.39950 0.86260 0.80240 0.14500
H 	H 	0.37490 0.85960 0.81880 -0.01300
C 	C 	0.47940 0.95310 0.73220 -0.09700
C 	C 	0.53330 0.99430 0.73770 0.05200
C 	C 	0.56180 0.99000 0.76600 -0.12400
H 	H 	0.54680 0.96140 0.78090 0.08200
C 	C 	0.61380 0.02960 0.77160 0.09600
C 	C 	0.61930 0.98570 0.82330 -0.26200
H 	H 	0.64400 0.99180 0.84160 0.12800
H 	H 	0.58930 0.98420 0.83350 0.12400
H 	H 	0.60980 0.95360 0.81160 0.11800
C 	C 	0.63830 0.06980 0.74770 0.10100
C 	C 	0.71310 0.14670 0.72950 -0.24600
H 	H 	0.74920 0.16530 0.73490 0.11400
H 	H 	0.70830 0.13470 0.70540 0.10900
H 	H 	0.69890 0.16900 0.73240 0.10900
C 	C 	0.60800 0.07430 0.71880 -0.13000
H 	H 	0.62350 0.10110 0.70250 0.08300
C 	C 	0.55670 0.03870 0.71600 0.03800
C 	C 	0.52550 0.04190 0.68770 -0.07800
C 	C 	0.47410 0.00300 0.68340 0.02500
C 	C 	0.44240 0.00950 0.65540 -0.13500
H 	H 	0.45610 0.03920 0.64160 0.08200
C 	C 	0.39320 0.97070 0.65090 0.08900
C 	C 	0.37870 0.01740 0.60480 -0.25500
H 	H 	0.38870 0.04690 0.61970 0.11200
H 	H 	0.40770 0.02220 0.59100 0.10800
H 	H 	0.35150 0.01330 0.58910 0.12700
C 	C 	0.37090 0.92540 0.67130 0.10200
C 	C 	0.29750 0.84290 0.67970 -0.21600
H 	H 	0.30880 0.84820 0.70400 0.09500
H 	H 	0.26080 0.82910 0.67900 0.10500
H 	H 	0.30580 0.81910 0.66860 0.10400
C 	C 	0.39930 0.91930 0.69710 -0.14900
H 	H 	0.38500 0.88890 0.71010 0.08400
C 	C 	0.45130 0.95950 0.70440 0.05500
C 	C 	0.54960 0.08730 0.66410 0.13600
C 	C 	0.55880 0.08350 0.62940 -0.19900
H 	H 	0.54970 0.05110 0.62040 0.10300
C 	C 	0.58060 0.12420 0.60690 0.11800
H 	H 	0.58800 0.11980 0.58360 0.00900
C 	C 	0.59160 0.17250 0.61890 -0.17900
C 	C 	0.61240 0.21850 0.59460 0.40300
C 	C 	0.58140 0.17780 0.65340 0.11400
H 	H 	0.58830 0.20990 0.66190 -0.00200
C 	C 	0.56140 0.13640 0.67560 -0.19500
H 	H 	0.55530 0.14090 0.69920 0.09900
Zn	Zn	0.06952 0.03406 0.19551 1.21300
O 	O 	0.07717 0.08313 0.15899 -0.52100
O 	O 	0.28127 0.54273 0.89583 -0.50400
O 	O 	0.01587 0.10063 0.17382 -0.54000
O 	O 	0.29527 0.59643 0.94273 -0.54300
O 	O 	0.30877 0.36093 0.13073 -0.15000
O 	O 	0.35337 0.43573 0.08683 -0.15300
O 	O 	0.98877 0.22323 0.99493 -0.15800
O 	O 	0.02747 0.30623 0.95933 -0.14700
C 	C 	0.05507 0.11093 0.15853 0.43200
C 	C 	0.07997 0.15723 0.13393 -0.20600
C 	C 	0.11787 0.16463 0.10973 0.13100
H 	H 	0.12997 0.14143 0.10903 -0.00000
C 	C 	0.13767 0.20533 0.08693 -0.23300
H 	H 	0.16087 0.20793 0.06953 0.12700
C 	C 	0.12387 0.24273 0.08923 0.16500
C 	C 	0.08757 0.23623 0.11443 -0.23700
H 	H 	0.07787 0.26123 0.11653 0.11400
C 	C 	0.06617 0.19593 0.13573 0.14400
H 	H 	0.04157 0.19293 0.15213 -0.01400
C 	C 	0.14607 0.28643 0.06553 -0.09500
C 	C 	0.19997 0.32763 0.07103 0.04800
C 	C 	0.22847 0.32333 0.09933 -0.12800
H 	H 	0.21347 0.29473 0.11423 0.08200
C 	C 	0.28047 0.36293 0.10493 0.10000
C 	C 	0.28597 0.31903 0.15663 -0.27000
H 	H 	0.31067 0.32513 0.17493 0.12900
H 	H 	0.25597 0.31753 0.16683 0.12500
H 	H 	0.27647 0.28693 0.14493 0.11900
C 	C 	0.30497 0.40313 0.08103 0.10100
C 	C 	0.37977 0.48003 0.06283 -0.24800
H 	H 	0.41587 0.49863 0.06823 0.11500
H 	H 	0.37497 0.46803 0.03873 0.11100
H 	H 	0.36557 0.50233 0.06573 0.11000
C 	C 	0.27467 0.40763 0.05213 -0.13000
H 	H 	0.29017 0.43443 0.03583 0.08300
C 	C 	0.22337 0.37203 0.04933 0.04200
C 	C 	0.19217 0.37523 0.02103 -0.07300
C 	C 	0.14077 0.33633 0.01673 0.03000
C 	C 	0.10907 0.34283 0.98873 -0.13200
H 	H 	0.12277 0.37253 0.97493 0.08100
C 	C 	0.05987 0.30403 0.98423 0.08200
C 	C 	0.04537 0.35073 0.93813 -0.24400
H 	H 	0.05537 0.38023 0.95303 0.10800
H 	H 	0.07437 0.35553 0.92433 0.10600
H 	H 	0.01817 0.34663 0.92243 0.12300
C 	C 	0.03757 0.25873 0.00463 0.10300
C 	C 	0.96417 0.17623 0.01303 -0.21400
H 	H 	0.97547 0.18153 0.03733 0.09600
H 	H 	0.92747 0.16243 0.01233 0.10500
H 	H 	0.97247 0.15243 0.00193 0.10600
C 	C 	0.06597 0.25263 0.03043 -0.14800
H 	H 	0.05167 0.22223 0.04343 0.08300
C 	C 	0.11797 0.29283 0.03773 0.04900
C 	C 	0.21627 0.42063 0.99743 0.12200
C 	C 	0.22547 0.41683 0.96273 -0.18700
H 	H 	0.21637 0.38443 0.95373 0.10000
C 	C 	0.24727 0.45753 0.94023 0.10700
H 	H 	0.25467 0.45313 0.91693 0.01300
C 	C 	0.25827 0.50583 0.95223 -0.17000
C 	C 	0.27907 0.55183 0.92793 0.40000
C 	C 	0.24807 0.51113 0.98673 0.09800
H 	H 	0.25497 0.54323 0.99523 0.00200
C 	C 	0.22807 0.46973 0.00893 -0.17600
H 	H 	0.22197 0.47423 0.03253 0.09400
Zn	Zn	0.73618 0.36740 0.52885 1.21400
O 	O 	0.74383 0.41647 0.49233 -0.52000
O 	O 	0.94793 0.87607 0.22917 -0.50300
O 	O 	0.68253 0.43397 0.50716 -0.53700
O 	O 	0.96193 0.92977 0.27607 -0.53900
O 	O 	0.97543 0.69427 0.46407 -0.14700
O 	O 	0.02003 0.76907 0.42017 -0.15900
O 	O 	0.65543 0.55657 0.32827 -0.15700
O 	O 	0.69413 0.63957 0.29267 -0.14400
C 	C 	0.72173 0.44427 0.49187 0.43100
C 	C 	0.74663 0.49057 0.46727 -0.20400
C 	C 	0.78453 0.49797 0.44307 0.12900
H 	H 	0.79663 0.47477 0.44237 0.00000
C 	C 	0.80433 0.53867 0.42027 -0.23100
H 	H 	0.82753 0.54127 0.40287 0.12600
C 	C 	0.79053 0.57607 0.42257 0.16400
C 	C 	0.75423 0.56957 0.44777 -0.23500
H 	H 	0.74453 0.59457 0.44987 0.11400
C 	C 	0.73283 0.52927 0.46907 0.14300
H 	H 	0.70823 0.52627 0.48547 -0.01200
C 	C 	0.81273 0.61977 0.39887 -0.09300
C 	C 	0.86663 0.66097 0.40437 0.04500
C 	C 	0.89513 0.65667 0.43267 -0.12500
H 	H 	0.88013 0.62807 0.44757 0.08100
C 	C 	0.94713 0.69627 0.43827 0.09700
C 	C 	0.95263 0.65237 0.48997 -0.27300
H 	H 	0.97733 0.65847 0.50827 0.13200
H 	H 	0.92263 0.65087 0.50017 0.12700
H 	H 	0.94313 0.62027 0.47827 0.12100
C 	C 	0.97163 0.73647 0.41437 0.10900
C 	C 	0.04643 0.81337 0.39617 -0.24100
H 	H 	0.08253 0.83197 0.40157 0.11300
H 	H 	0.04163 0.80137 0.37207 0.10700
H 	H 	0.03223 0.83567 0.39907 0.10700
C 	C 	0.94133 0.74097 0.38547 -0.13500
H 	H 	0.95683 0.76777 0.36917 0.08600
C 	C 	0.89003 0.70537 0.38267 0.04700
C 	C 	0.85883 0.70857 0.35437 -0.08200
C 	C 	0.80743 0.66967 0.35007 0.03100
C 	C 	0.77573 0.67617 0.32207 -0.13100
H 	H 	0.78943 0.70587 0.30827 0.08100
C 	C 	0.72653 0.63737 0.31757 0.08500
C 	C 	0.71203 0.68407 0.27147 -0.24800
H 	H 	0.72203 0.71357 0.28637 0.11100
H 	H 	0.74103 0.68887 0.25767 0.10800
H 	H 	0.68483 0.67997 0.25577 0.12700
C 	C 	0.70423 0.59207 0.33797 0.10200
C 	C 	0.63083 0.50957 0.34637 -0.21600
H 	H 	0.64213 0.51487 0.37067 0.09500
H 	H 	0.59413 0.49577 0.34567 0.10500
H 	H 	0.63913 0.48577 0.33527 0.10400
C 	C 	0.73263 0.58597 0.36377 -0.14700
H 	H 	0.71833 0.55557 0.37677 0.08400
C 	C 	0.78463 0.62617 0.37107 0.04800
C 	C 	0.88293 0.75397 0.33077 0.13900
C 	C 	0.89213 0.75017 0.29607 -0.20100
H 	H 	0.88303 0.71777 0.28707 0.10500
C 	C 	0.91393 0.79087 0.27357 0.11900
H 	H 	0.92133 0.78647 0.25027 0.01000
C 	C 	0.92493 0.83917 0.28557 -0.17800
C 	C 	0.94573 0.88517 0.26127 0.40300
C 	C 	0.91473 0.84447 0.32007 0.11500
H 	H 	0.92163 0.87657 0.32857 -0.00200
C 	C 	0.89473 0.80307 0.34227 -0.19600
H 	H 	0.88863 0.80757 0.36587 0.10100
Zn	Zn	0.33333 0.66667 0.93353 1.23100
O 	O 	0.33333 0.66667 0.88100 -0.94100
Zn	Zn	-0.00000 0.00000 0.26686 1.22900
O 	O 	0.00000 0.00000 0.21433 -0.94600
Zn	Zn	0.66667 0.33333 0.60020 1.23100
O 	O 	0.66667 0.33333 0.54767 -0.94100
