data_crystal

_cell_length_a 36.80000
_cell_length_b 21.66100
_cell_length_c 44.65000
_cell_angle_alpha 90.00000
_cell_angle_beta  100.40000
_cell_angle_gamma 90.00000

_symmetry_space_group_name_	'P 1'
_symmetry_space_group_name_H-M	'P 1'

loop_
_symmetry_equiv_pos_as_xyz
  x,y,z

loop_
_atom_site_label
_atom_site_type_symbol
_atom_site_fract_x
_atom_site_fract_y
_atom_site_fract_z
_atom_site_charge
C 	C 	0.95137 0.01460 0.74570 0.09700
H 	H 	0.96770 0.99010 0.73730 -0.00700
C 	C 	0.93223 0.05570 0.79015 0.09900
C 	C 	0.90697 0.08760 0.74032 0.09400
H 	H 	0.88910 0.11190 0.72840 -0.01000
C 	C 	0.93400 0.05070 0.82421 -0.02000
C 	C 	0.96600 0.03270 0.87442 -0.06300
H 	H 	0.98770 0.02260 0.88770 0.07100
C 	C 	0.99030 0.83670 0.02760 0.10900
H 	H 	0.98160 0.85660 0.00930 0.00900
C 	C 	0.32589 0.51730 0.04480 -0.13900
C 	C 	0.07086 0.35810 0.06682 0.04100
H 	H 	0.08190 0.32320 0.07670 0.01300
C 	C 	0.04475 0.68990 0.05560 -0.11300
C 	C 	0.07660 0.46690 0.05350 0.16100
C 	C 	0.93476 0.04400 0.88470 -0.00300
C 	C 	0.97268 0.18940 0.04596 -0.12500
C 	C 	0.98525 0.85930 0.05360 -0.14700
C 	C 	0.95801 0.00360 0.93785 -0.18700
H 	H 	0.97400 0.97920 0.92910 0.10900
C 	C 	0.06490 0.67890 0.03429 0.08400
H 	H 	0.06740 0.70970 0.02030 0.00400
C 	C 	0.95190 0.13260 0.04080 0.31100
C 	C 	0.01039 0.18670 0.05145 0.05900
H 	H 	0.02250 0.14890 0.05380 0.02300
C 	C 	0.07943 0.57920 0.05360 0.18800
C 	C 	0.99844 0.83350 0.08200 0.08500
H 	H 	0.99550 0.85210 0.10010 0.02100
C 	C 	0.03003 0.24120 0.05337 -0.15200
H 	H 	0.05560 0.23820 0.05620 0.08300
C 	C 	0.03345 0.35610 0.04970 -0.07900
C 	C 	0.95774 0.99780 0.96791 0.09900
H 	H 	0.97270 0.96890 0.97960 -0.00200
C 	C 	0.93585 0.04340 0.92039 0.12600
C 	C 	0.01502 0.29940 0.05145 0.10000
C 	C 	0.04130 0.46270 0.03790 -0.18100
H 	H 	0.03090 0.49750 0.02750 0.09600
C 	C 	0.27500 0.55180 0.07040 -0.13100
H 	H 	0.26670 0.57190 0.08630 0.07800
C 	C 	0.89980 0.06040 0.83662 -0.04000
H 	H 	0.87710 0.06810 0.82430 0.04200
C 	C 	0.00973 0.78030 0.02871 -0.20500
H 	H 	0.01350 0.76140 0.01080 0.11000
C 	C 	0.04061 0.64230 0.07636 0.07900
H 	H 	0.02550 0.64890 0.09060 0.00200
C 	C 	0.01757 0.77380 0.08062 -0.21200
H 	H 	0.02550 0.75140 0.09840 0.11000
C 	C 	0.02290 0.75390 0.05606 0.17400
C 	C 	0.97493 0.30200 0.04577 -0.14100
H 	H 	0.96280 0.33990 0.04390 0.07900
C 	C 	0.95375 0.00890 0.77696 -0.15800
H 	H 	0.96760 0.97850 0.78850 0.08800
C 	C 	0.31368 0.54880 0.07040 0.04500
H 	H 	0.33070 0.56630 0.08610 0.02900
C 	C 	0.08950 0.41390 0.06793 -0.17400
H 	H 	0.11310 0.41520 0.07960 0.09200
C 	C 	0.15025 0.47390 0.03810 -0.14300
H 	H 	0.13570 0.44060 0.03010 0.08300
C 	C 	0.02070 0.41140 0.03660 0.05800
H 	H 	0.99640 0.41320 0.02620 0.00800
C 	C 	0.95520 0.24790 0.04327 0.05100
H 	H 	0.92950 0.24970 0.03970 0.02700
C 	C 	0.15807 0.56890 0.06460 -0.16700
H 	H 	0.14830 0.60230 0.07350 0.09100
C 	C 	0.90391 0.05710 0.86624 -0.04900
H 	H 	0.88320 0.06480 0.87490 0.04600
C 	C 	0.96044 0.92040 0.05320 0.40000
C 	C 	0.36730 0.51770 0.04760 0.36300
C 	C 	0.21049 0.52380 0.04835 -0.06800
C 	C 	0.08212 0.62330 0.03242 -0.21300
H 	H 	0.09540 0.61580 0.01690 0.10800
C 	C 	0.13460 0.52170 0.05310 0.14000
C 	C 	0.18951 0.47610 0.03490 0.01300
H 	H 	0.19960 0.44590 0.02400 0.02200
C 	C 	0.05787 0.58770 0.07610 -0.20900
H 	H 	0.05560 0.55700 0.09010 0.10900
C 	C 	0.19393 0.56960 0.06360 0.04100
H 	H 	0.20850 0.60140 0.07330 0.01500
C 	C 	0.30160 0.49320 0.02340 0.08400
H 	H 	0.30940 0.47340 0.00720 0.01300
C 	C 	0.96489 0.03650 0.84320 -0.02400
H 	H 	0.98630 0.02890 0.83550 0.04200
C 	C 	0.24912 0.52530 0.04710 0.09500
C 	C 	0.26400 0.49640 0.02410 -0.15300
H 	H 	0.24780 0.47810 0.00820 0.08300
C 	C 	0.91004 0.09070 0.77050 -0.17300
H 	H 	0.89550 0.11950 0.77830 0.08900
C 	C 	0.91354 0.08140 0.93294 -0.20200
H 	H 	0.89870 0.11070 0.92140 0.10300
C 	C 	0.91400 0.07460 0.96290 0.13600
H 	H 	0.89820 0.09970 0.97160 -0.01700
N 	N 	0.92878 0.05040 0.72584 -0.27200
N 	N 	0.09620 0.52350 0.05265 -0.19400
N 	N 	0.93448 0.03630 0.98090 -0.25700
O 	O 	0.96718 0.08100 0.04624 -0.44400
O 	O 	0.94852 0.94140 0.02825 -0.50100
O 	O 	0.91671 0.13495 0.02918 -0.32100
O 	O 	0.38974 0.52070 0.07008 -0.50300
O 	O 	0.95625 0.93650 0.07943 -0.46300
O 	O 	0.37456 0.51170 0.01961 -0.43200
Zn	Zn	0.92903 0.02452 0.02626 1.22700
C 	C 	0.31260 0.56940 0.64760 -0.24000
C 	C 	0.30300 0.58260 0.67420 0.14600
H 	H 	0.32090 0.58950 0.69140 -0.00700
C 	C 	0.97320 0.85750 0.67773 0.06600
H 	H 	0.96500 0.87330 0.69470 0.02200
C 	C 	0.96647 0.89090 0.65070 -0.12800
C 	C 	0.99130 0.80250 0.68030 -0.15100
H 	H 	0.99410 0.78040 0.69840 0.08300
C 	C 	0.99870 0.81150 0.62820 -0.14400
H 	H 	0.00640 0.79610 0.61090 0.08900
C 	C 	0.25120 0.56200 0.62270 -0.21400
H 	H 	0.23460 0.55920 0.60430 0.10700
C 	C 	0.97920 0.86990 0.62692 0.06300
H 	H 	0.97570 0.89280 0.60900 0.03100
C 	C 	0.28870 0.56050 0.62370 0.17000
H 	H 	0.29710 0.55230 0.60570 -0.01700
C 	C 	0.26510 0.58590 0.67590 -0.19900
H 	H 	0.25770 0.60010 0.69350 0.09900
C 	C 	0.00576 0.77880 0.65528 0.10400
C 	C 	0.23870 0.56800 0.65090 0.13300
C 	C 	0.02529 0.72130 0.65652 -0.07800
C 	C 	0.13950 0.51760 0.63870 -0.16300
H 	H 	0.12500 0.48760 0.62740 0.09000
C 	C 	0.03230 0.38150 0.65980 -0.05200
C 	C 	0.01030 0.32030 0.65880 0.06800
C 	C 	0.07370 0.65860 0.64428 -0.18300
H 	H 	0.09290 0.65350 0.63350 0.09700
C 	C 	0.97630 0.20620 0.65540 -0.08800
C 	C 	0.95230 0.14470 0.65580 0.35400
C 	C 	0.19890 0.56350 0.65310 -0.07600
C 	C 	0.00760 0.21430 0.67437 0.03000
H 	H 	0.01670 0.18290 0.68780 0.03900
C 	C 	0.97677 0.31030 0.63820 -0.11400
H 	H 	0.96610 0.34260 0.62590 0.06800
C 	C 	0.02800 0.27120 0.67480 -0.11900
H 	H 	0.05210 0.27460 0.68540 0.07100
C 	C 	0.01770 0.67110 0.67570 0.04400
H 	H 	0.99930 0.67550 0.68740 0.01400
C 	C 	0.06730 0.38960 0.67640 0.03000
H 	H 	0.07860 0.35770 0.68850 0.01600
C 	C 	0.95930 0.25180 0.63610 0.02000
H 	H 	0.93750 0.24440 0.62240 0.02900
C 	C 	0.06790 0.49700 0.66130 0.14700
C 	C 	0.06580 0.61070 0.66140 0.16000
C 	C 	0.12430 0.55670 0.65900 0.13100
C 	C 	0.03400 0.49210 0.64470 -0.16100
H 	H 	0.02280 0.52490 0.63320 0.09100
C 	C 	0.08510 0.44380 0.67510 -0.15900
H 	H 	0.11000 0.44590 0.68370 0.08900
C 	C 	0.18610 0.60660 0.67390 0.01100
H 	H 	0.20130 0.63680 0.68430 0.02300
C 	C 	0.05620 0.71240 0.64171 0.05500
H 	H 	0.06400 0.74410 0.63030 0.01000
C 	C 	0.03720 0.61730 0.67700 -0.17500
H 	H 	0.03100 0.58460 0.68860 0.09400
C 	C 	0.01530 0.43220 0.64540 0.01400
H 	H 	0.99080 0.42880 0.63560 0.02300
C 	C 	0.14740 0.59920 0.67720 -0.14000
H 	H 	0.13800 0.62280 0.69140 0.08300
C 	C 	0.94922 0.95680 0.65060 0.38600
C 	C 	0.17430 0.52470 0.63620 0.04600
H 	H 	0.18290 0.50110 0.62150 0.01600
C 	C 	0.35410 0.56330 0.64510 0.49600
N 	N 	0.08646 0.55440 0.66132 -0.17900
O 	O 	0.94164 0.97320 0.67745 -0.49000
O 	O 	0.94249 0.98310 0.62658 -0.48000
O 	O 	0.96398 0.11450 0.67750 -0.49100
O 	O 	0.36388 0.54760 0.62321 -0.53100
O 	O 	0.37476 0.57420 0.67106 -0.51300
O 	O 	0.93154 0.12870 0.62991 -0.44400
Zn	Zn	0.92656 0.05406 0.68204 1.22700
Zn	Zn	0.91041 0.04844 0.60123 1.21800
C 	C 	0.45137 0.51460 0.74570 0.09600
H 	H 	0.46770 0.49010 0.73730 -0.00900
C 	C 	0.43223 0.55570 0.79015 0.09800
C 	C 	0.40697 0.58760 0.74032 0.09300
H 	H 	0.38910 0.61190 0.72840 -0.01100
C 	C 	0.43400 0.55070 0.82421 -0.02000
C 	C 	0.46600 0.53270 0.87442 -0.06400
H 	H 	0.48770 0.52260 0.88770 0.07000
C 	C 	0.49030 0.33670 0.02760 0.10800
H 	H 	0.48160 0.35660 0.00930 0.00800
C 	C 	0.82589 0.01730 0.04480 -0.14000
C 	C 	0.57086 0.85810 0.06682 0.03900
H 	H 	0.58190 0.82320 0.07670 0.01200
C 	C 	0.54475 0.18990 0.05560 -0.11400
C 	C 	0.57660 0.96690 0.05350 0.16000
C 	C 	0.43476 0.54400 0.88470 -0.00400
C 	C 	0.47268 0.68940 0.04596 -0.12600
C 	C 	0.48525 0.35930 0.05360 -0.14800
C 	C 	0.45801 0.50360 0.93785 -0.18700
H 	H 	0.47400 0.47920 0.92910 0.10800
C 	C 	0.56490 0.17890 0.03429 0.08300
H 	H 	0.56740 0.20970 0.02030 0.00300
C 	C 	0.45190 0.63260 0.04080 0.31000
C 	C 	0.51039 0.68670 0.05145 0.05800
H 	H 	0.52250 0.64890 0.05380 0.02200
C 	C 	0.57943 0.07920 0.05360 0.18700
C 	C 	0.49844 0.33350 0.08200 0.08500
H 	H 	0.49550 0.35210 0.10010 0.02000
C 	C 	0.53003 0.74120 0.05337 -0.15300
H 	H 	0.55560 0.73820 0.05620 0.08200
C 	C 	0.53345 0.85610 0.04970 -0.08000
C 	C 	0.45774 0.49780 0.96791 0.09800
H 	H 	0.47270 0.46890 0.97960 -0.00300
C 	C 	0.43585 0.54340 0.92039 0.12500
C 	C 	0.51502 0.79940 0.05145 0.09900
C 	C 	0.54130 0.96270 0.03790 -0.18200
H 	H 	0.53090 0.99750 0.02750 0.09600
C 	C 	0.77500 0.05180 0.07040 -0.13100
H 	H 	0.76670 0.07190 0.08630 0.07800
C 	C 	0.39980 0.56040 0.83662 -0.04000
H 	H 	0.37710 0.56810 0.82430 0.04200
C 	C 	0.50973 0.28030 0.02871 -0.20500
H 	H 	0.51350 0.26140 0.01080 0.11000
C 	C 	0.54061 0.14230 0.07636 0.07900
H 	H 	0.52550 0.14890 0.09060 0.00200
C 	C 	0.51757 0.27380 0.08062 -0.21200
H 	H 	0.52550 0.25140 0.09840 0.11000
C 	C 	0.52290 0.25390 0.05606 0.17400
C 	C 	0.47493 0.80200 0.04577 -0.14100
H 	H 	0.46280 0.83990 0.04390 0.07900
C 	C 	0.45375 0.50890 0.77696 -0.15700
H 	H 	0.46760 0.47850 0.78850 0.08800
C 	C 	0.81368 0.04880 0.07040 0.04500
H 	H 	0.83070 0.06630 0.08610 0.02900
C 	C 	0.58950 0.91390 0.06793 -0.17300
H 	H 	0.61310 0.91520 0.07960 0.09200
C 	C 	0.65025 0.97390 0.03810 -0.14300
H 	H 	0.63570 0.94060 0.03010 0.08300
C 	C 	0.52070 0.91140 0.03660 0.05800
H 	H 	0.49640 0.91320 0.02620 0.00800
C 	C 	0.45520 0.74790 0.04327 0.05100
H 	H 	0.42950 0.74970 0.03970 0.02700
C 	C 	0.65807 0.06890 0.06460 -0.16700
H 	H 	0.64830 0.10230 0.07350 0.09100
C 	C 	0.40391 0.55710 0.86624 -0.04900
H 	H 	0.38320 0.56480 0.87490 0.04600
C 	C 	0.46044 0.42040 0.05320 0.40000
C 	C 	0.86730 0.01770 0.04760 0.36300
C 	C 	0.71049 0.02380 0.04835 -0.06800
C 	C 	0.58212 0.12330 0.03242 -0.21300
H 	H 	0.59540 0.11580 0.01690 0.10800
C 	C 	0.63460 0.02170 0.05310 0.14000
C 	C 	0.68951 0.97610 0.03490 0.01300
H 	H 	0.69960 0.94590 0.02400 0.02200
C 	C 	0.55787 0.08770 0.07610 -0.20900
H 	H 	0.55560 0.05700 0.09010 0.10900
C 	C 	0.69393 0.06960 0.06360 0.04200
H 	H 	0.70850 0.10140 0.07330 0.01500
C 	C 	0.80160 0.99320 0.02340 0.08400
H 	H 	0.80940 0.97340 0.00720 0.01300
C 	C 	0.46489 0.53650 0.84320 -0.02400
H 	H 	0.48630 0.52890 0.83550 0.04200
C 	C 	0.74912 0.02530 0.04710 0.09500
C 	C 	0.76400 0.99640 0.02410 -0.15300
H 	H 	0.74780 0.97810 0.00820 0.08300
C 	C 	0.41004 0.59070 0.77050 -0.17300
H 	H 	0.39550 0.61950 0.77830 0.08900
C 	C 	0.41354 0.58140 0.93294 -0.20200
H 	H 	0.39870 0.61070 0.92140 0.10300
C 	C 	0.41400 0.57460 0.96290 0.13600
H 	H 	0.39820 0.59970 0.97160 -0.01700
N 	N 	0.42878 0.55040 0.72584 -0.27200
N 	N 	0.59620 0.02350 0.05265 -0.19400
N 	N 	0.43448 0.53630 0.98090 -0.25700
O 	O 	0.46718 0.58100 0.04624 -0.44400
O 	O 	0.44852 0.44140 0.02825 -0.50100
O 	O 	0.41671 0.63495 0.02918 -0.32100
O 	O 	0.88974 0.02070 0.07008 -0.50300
O 	O 	0.45625 0.43650 0.07943 -0.46300
O 	O 	0.87456 0.01170 0.01961 -0.43200
Zn	Zn	0.42903 0.52452 0.02626 1.22700
C 	C 	0.81260 0.06940 0.64760 -0.24000
C 	C 	0.80300 0.08260 0.67420 0.14600
H 	H 	0.82090 0.08950 0.69140 -0.00700
C 	C 	0.47320 0.35750 0.67773 0.06600
H 	H 	0.46500 0.37330 0.69470 0.02200
C 	C 	0.46647 0.39090 0.65070 -0.12800
C 	C 	0.49130 0.30250 0.68030 -0.15100
H 	H 	0.49410 0.28040 0.69840 0.08300
C 	C 	0.49870 0.31150 0.62820 -0.14400
H 	H 	0.50640 0.29610 0.61090 0.08900
C 	C 	0.75120 0.06200 0.62270 -0.21400
H 	H 	0.73460 0.05920 0.60430 0.10700
C 	C 	0.47920 0.36990 0.62692 0.06300
H 	H 	0.47570 0.39280 0.60900 0.03100
C 	C 	0.78870 0.06050 0.62370 0.17000
H 	H 	0.79710 0.05230 0.60570 -0.01700
C 	C 	0.76510 0.08590 0.67590 -0.19900
H 	H 	0.75770 0.10010 0.69350 0.09900
C 	C 	0.50576 0.27880 0.65528 0.10400
C 	C 	0.73870 0.06800 0.65090 0.13300
C 	C 	0.52529 0.22130 0.65652 -0.07800
C 	C 	0.63950 0.01760 0.63870 -0.16400
H 	H 	0.62500 0.98760 0.62740 0.09000
C 	C 	0.53230 0.88150 0.65980 -0.05200
C 	C 	0.51030 0.82030 0.65880 0.06800
C 	C 	0.57370 0.15860 0.64428 -0.18300
H 	H 	0.59290 0.15350 0.63350 0.09700
C 	C 	0.47630 0.70620 0.65540 -0.08800
C 	C 	0.45230 0.64470 0.65580 0.35400
C 	C 	0.69890 0.06350 0.65310 -0.07600
C 	C 	0.50760 0.71430 0.67437 0.03000
H 	H 	0.51670 0.68290 0.68780 0.03900
C 	C 	0.47677 0.81030 0.63820 -0.11400
H 	H 	0.46610 0.84260 0.62590 0.06800
C 	C 	0.52800 0.77120 0.67480 -0.11900
H 	H 	0.55210 0.77460 0.68540 0.07100
C 	C 	0.51770 0.17110 0.67570 0.04400
H 	H 	0.49930 0.17550 0.68740 0.01400
C 	C 	0.56730 0.88960 0.67640 0.03000
H 	H 	0.57860 0.85770 0.68850 0.01600
C 	C 	0.45930 0.75180 0.63610 0.02000
H 	H 	0.43750 0.74440 0.62240 0.02900
C 	C 	0.56790 0.99700 0.66130 0.14700
C 	C 	0.56580 0.11070 0.66140 0.16000
C 	C 	0.62430 0.05670 0.65900 0.13100
C 	C 	0.53400 0.99210 0.64470 -0.16100
H 	H 	0.52280 0.02490 0.63320 0.09100
C 	C 	0.58510 0.94380 0.67510 -0.15900
H 	H 	0.61000 0.94590 0.68370 0.08900
C 	C 	0.68610 0.10660 0.67390 0.01100
H 	H 	0.70130 0.13680 0.68430 0.02300
C 	C 	0.55620 0.21240 0.64171 0.05500
H 	H 	0.56400 0.24410 0.63030 0.01000
C 	C 	0.53720 0.11730 0.67700 -0.17500
H 	H 	0.53100 0.08460 0.68860 0.09400
C 	C 	0.51530 0.93220 0.64540 0.01300
H 	H 	0.49080 0.92880 0.63560 0.02300
C 	C 	0.64740 0.09920 0.67720 -0.14000
H 	H 	0.63800 0.12280 0.69140 0.08300
C 	C 	0.44922 0.45680 0.65060 0.38600
C 	C 	0.67430 0.02470 0.63620 0.04700
H 	H 	0.68290 0.00110 0.62150 0.01600
C 	C 	0.85410 0.06330 0.64510 0.49600
N 	N 	0.58646 0.05440 0.66132 -0.17900
O 	O 	0.44164 0.47320 0.67745 -0.49000
O 	O 	0.44249 0.48310 0.62658 -0.48000
O 	O 	0.46398 0.61450 0.67750 -0.49100
O 	O 	0.86388 0.04760 0.62321 -0.53100
O 	O 	0.87476 0.07420 0.67106 -0.51300
O 	O 	0.43154 0.62870 0.62991 -0.44400
Zn	Zn	0.42656 0.55406 0.68204 1.22700
Zn	Zn	0.41041 0.54844 0.60123 1.21800
C 	C 	0.95137 0.98540 0.24570 0.09600
H 	H 	0.96770 0.00990 0.23730 -0.00800
C 	C 	0.93223 0.94430 0.29015 0.09800
C 	C 	0.90697 0.91240 0.24032 0.09300
H 	H 	0.88910 0.88810 0.22840 -0.01100
C 	C 	0.93400 0.94930 0.32421 -0.02100
C 	C 	0.96600 0.96730 0.37442 -0.06400
H 	H 	0.98770 0.97740 0.38770 0.07000
C 	C 	0.99030 0.16330 0.52760 0.10800
H 	H 	0.98160 0.14340 0.50930 0.00800
C 	C 	0.32589 0.48270 0.54480 -0.14000
C 	C 	0.07086 0.64190 0.56682 0.04000
H 	H 	0.08190 0.67680 0.57670 0.01200
C 	C 	0.04475 0.31010 0.55560 -0.11400
C 	C 	0.07660 0.53310 0.55350 0.16000
C 	C 	0.93476 0.95600 0.38470 -0.00400
C 	C 	0.97268 0.81060 0.54596 -0.12600
C 	C 	0.98525 0.14070 0.55360 -0.14800
C 	C 	0.95801 0.99640 0.43785 -0.18800
H 	H 	0.97400 0.02080 0.42910 0.10800
C 	C 	0.06490 0.32110 0.53429 0.08300
H 	H 	0.06740 0.29030 0.52030 0.00300
C 	C 	0.95190 0.86740 0.54080 0.31000
C 	C 	0.01039 0.81330 0.55145 0.05800
H 	H 	0.02250 0.85110 0.55380 0.02200
C 	C 	0.07943 0.42080 0.55360 0.18700
C 	C 	0.99844 0.16650 0.58200 0.08400
H 	H 	0.99550 0.14790 0.60010 0.02000
C 	C 	0.03003 0.75880 0.55337 -0.15300
H 	H 	0.05560 0.76180 0.55620 0.08200
C 	C 	0.03345 0.64390 0.54970 -0.08000
C 	C 	0.95774 0.00220 0.46791 0.09800
H 	H 	0.97270 0.03110 0.47960 -0.00300
C 	C 	0.93585 0.95660 0.42039 0.12500
C 	C 	0.01502 0.70060 0.55145 0.09900
C 	C 	0.04130 0.53730 0.53790 -0.18200
H 	H 	0.03090 0.50250 0.52750 0.09600
C 	C 	0.27500 0.44820 0.57040 -0.13100
H 	H 	0.26670 0.42810 0.58630 0.07800
C 	C 	0.89980 0.93960 0.33662 -0.04000
H 	H 	0.87710 0.93190 0.32430 0.04200
C 	C 	0.00973 0.21970 0.52871 -0.20500
H 	H 	0.01350 0.23860 0.51080 0.11000
C 	C 	0.04061 0.35770 0.57636 0.07900
H 	H 	0.02550 0.35110 0.59060 0.00200
C 	C 	0.01757 0.22620 0.58062 -0.21200
H 	H 	0.02550 0.24860 0.59840 0.11000
C 	C 	0.02290 0.24610 0.55606 0.17400
C 	C 	0.97493 0.69800 0.54577 -0.14100
H 	H 	0.96280 0.66010 0.54390 0.07900
C 	C 	0.95375 0.99110 0.27696 -0.15800
H 	H 	0.96760 0.02150 0.28850 0.08800
C 	C 	0.31368 0.45120 0.57040 0.04500
H 	H 	0.33070 0.43370 0.58610 0.02900
C 	C 	0.08950 0.58610 0.56793 -0.17400
H 	H 	0.11310 0.58480 0.57960 0.09200
C 	C 	0.15025 0.52610 0.53810 -0.14300
H 	H 	0.13570 0.55940 0.53010 0.08300
C 	C 	0.02070 0.58860 0.53660 0.05800
H 	H 	0.99640 0.58680 0.52620 0.00800
C 	C 	0.95520 0.75210 0.54327 0.05100
H 	H 	0.92950 0.75030 0.53970 0.02700
C 	C 	0.15807 0.43110 0.56460 -0.16700
H 	H 	0.14830 0.39770 0.57350 0.09100
C 	C 	0.90391 0.94290 0.36624 -0.04900
H 	H 	0.88320 0.93520 0.37490 0.04600
C 	C 	0.96044 0.07960 0.55320 0.40000
C 	C 	0.36730 0.48230 0.54760 0.36300
C 	C 	0.21049 0.47620 0.54835 -0.06800
C 	C 	0.08212 0.37670 0.53242 -0.21300
H 	H 	0.09540 0.38420 0.51690 0.10800
C 	C 	0.13460 0.47830 0.55310 0.14000
C 	C 	0.18951 0.52390 0.53490 0.01300
H 	H 	0.19960 0.55410 0.52400 0.02200
C 	C 	0.05787 0.41230 0.57610 -0.20900
H 	H 	0.05560 0.44300 0.59010 0.10900
C 	C 	0.19393 0.43040 0.56360 0.04100
H 	H 	0.20850 0.39860 0.57330 0.01500
C 	C 	0.30160 0.50680 0.52340 0.08400
H 	H 	0.30940 0.52660 0.50720 0.01300
C 	C 	0.96489 0.96350 0.34320 -0.02400
H 	H 	0.98630 0.97110 0.33550 0.04200
C 	C 	0.24912 0.47470 0.54710 0.09500
C 	C 	0.26400 0.50360 0.52410 -0.15300
H 	H 	0.24780 0.52190 0.50820 0.08300
C 	C 	0.91004 0.90930 0.27050 -0.17300
H 	H 	0.89550 0.88050 0.27830 0.08900
C 	C 	0.91354 0.91860 0.43294 -0.20200
H 	H 	0.89870 0.88930 0.42140 0.10300
C 	C 	0.91400 0.92540 0.46290 0.13600
H 	H 	0.89820 0.90030 0.47160 -0.01700
N 	N 	0.92878 0.94960 0.22584 -0.27200
N 	N 	0.09620 0.47650 0.55265 -0.19400
N 	N 	0.93448 0.96370 0.48090 -0.25700
O 	O 	0.96718 0.91900 0.54624 -0.44400
O 	O 	0.94852 0.05860 0.52825 -0.50100
O 	O 	0.91671 0.86505 0.52918 -0.32100
O 	O 	0.38974 0.47930 0.57008 -0.50300
O 	O 	0.95625 0.06350 0.57943 -0.46300
O 	O 	0.37456 0.48830 0.51961 -0.43200
Zn	Zn	0.92903 0.97548 0.52626 1.22700
C 	C 	0.31260 0.43060 0.14760 -0.24000
C 	C 	0.30300 0.41740 0.17420 0.14600
H 	H 	0.32090 0.41050 0.19140 -0.00700
C 	C 	0.97320 0.14250 0.17773 0.06600
H 	H 	0.96500 0.12670 0.19470 0.02200
C 	C 	0.96647 0.10910 0.15070 -0.12800
C 	C 	0.99130 0.19750 0.18030 -0.15100
H 	H 	0.99410 0.21960 0.19840 0.08300
C 	C 	0.99870 0.18850 0.12820 -0.14400
H 	H 	0.00640 0.20390 0.11090 0.08900
C 	C 	0.25120 0.43800 0.12270 -0.21400
H 	H 	0.23460 0.44080 0.10430 0.10700
C 	C 	0.97920 0.13010 0.12692 0.06300
H 	H 	0.97570 0.10720 0.10900 0.03100
C 	C 	0.28870 0.43950 0.12370 0.17000
H 	H 	0.29710 0.44770 0.10570 -0.01700
C 	C 	0.26510 0.41410 0.17590 -0.19900
H 	H 	0.25770 0.39990 0.19350 0.09900
C 	C 	0.00576 0.22120 0.15528 0.10400
C 	C 	0.23870 0.43200 0.15090 0.13300
C 	C 	0.02529 0.27870 0.15652 -0.07800
C 	C 	0.13950 0.48240 0.13870 -0.16300
H 	H 	0.12500 0.51240 0.12740 0.09000
C 	C 	0.03230 0.61850 0.15980 -0.05200
C 	C 	0.01030 0.67970 0.15880 0.06800
C 	C 	0.07370 0.34140 0.14428 -0.18300
H 	H 	0.09290 0.34650 0.13350 0.09700
C 	C 	0.97630 0.79380 0.15540 -0.08800
C 	C 	0.95230 0.85530 0.15580 0.35400
C 	C 	0.19890 0.43650 0.15310 -0.07600
C 	C 	0.00760 0.78570 0.17437 0.03000
H 	H 	0.01670 0.81710 0.18780 0.03900
C 	C 	0.97677 0.68970 0.13820 -0.11400
H 	H 	0.96610 0.65740 0.12590 0.06800
C 	C 	0.02800 0.72880 0.17480 -0.11900
H 	H 	0.05210 0.72540 0.18540 0.07100
C 	C 	0.01770 0.32890 0.17570 0.04400
H 	H 	0.99930 0.32450 0.18740 0.01400
C 	C 	0.06730 0.61040 0.17640 0.03000
H 	H 	0.07860 0.64230 0.18850 0.01600
C 	C 	0.95930 0.74820 0.13610 0.02000
H 	H 	0.93750 0.75560 0.12240 0.02900
C 	C 	0.06790 0.50300 0.16130 0.14700
C 	C 	0.06580 0.38930 0.16140 0.16000
C 	C 	0.12430 0.44330 0.15900 0.13100
C 	C 	0.03400 0.50790 0.14470 -0.16100
H 	H 	0.02280 0.47510 0.13320 0.09100
C 	C 	0.08510 0.55620 0.17510 -0.15900
H 	H 	0.11000 0.55410 0.18370 0.08900
C 	C 	0.18610 0.39340 0.17390 0.01100
H 	H 	0.20130 0.36320 0.18430 0.02300
C 	C 	0.05620 0.28760 0.14171 0.05500
H 	H 	0.06400 0.25590 0.13030 0.01000
C 	C 	0.03720 0.38270 0.17700 -0.17500
H 	H 	0.03100 0.41540 0.18860 0.09400
C 	C 	0.01530 0.56780 0.14540 0.01400
H 	H 	0.99080 0.57120 0.13560 0.02300
C 	C 	0.14740 0.40080 0.17720 -0.14000
H 	H 	0.13800 0.37720 0.19140 0.08300
C 	C 	0.94922 0.04320 0.15060 0.38600
C 	C 	0.17430 0.47530 0.13620 0.04600
H 	H 	0.18290 0.49890 0.12150 0.01600
C 	C 	0.35410 0.43670 0.14510 0.49600
N 	N 	0.08646 0.44560 0.16132 -0.17900
O 	O 	0.94164 0.02680 0.17745 -0.49000
O 	O 	0.94249 0.01690 0.12658 -0.48000
O 	O 	0.96398 0.88550 0.17750 -0.49100
O 	O 	0.36388 0.45240 0.12321 -0.53100
O 	O 	0.37476 0.42580 0.17106 -0.51300
O 	O 	0.93154 0.87130 0.12991 -0.44400
Zn	Zn	0.92656 0.94594 0.18204 1.22700
Zn	Zn	0.91041 0.95156 0.10123 1.21800
C 	C 	0.45137 0.48540 0.24570 0.09600
H 	H 	0.46770 0.50990 0.23730 -0.00900
C 	C 	0.43223 0.44430 0.29015 0.09800
C 	C 	0.40697 0.41240 0.24032 0.09300
H 	H 	0.38910 0.38810 0.22840 -0.01100
C 	C 	0.43400 0.44930 0.32421 -0.02000
C 	C 	0.46600 0.46730 0.37442 -0.06400
H 	H 	0.48770 0.47740 0.38770 0.07000
C 	C 	0.49030 0.66330 0.52760 0.10800
H 	H 	0.48160 0.64340 0.50930 0.00800
C 	C 	0.82589 0.98270 0.54480 -0.14000
C 	C 	0.57086 0.14190 0.56682 0.03900
H 	H 	0.58190 0.17680 0.57670 0.01200
C 	C 	0.54475 0.81010 0.55560 -0.11400
C 	C 	0.57660 0.03310 0.55350 0.16000
C 	C 	0.43476 0.45600 0.38470 -0.00400
C 	C 	0.47268 0.31060 0.54596 -0.12600
C 	C 	0.48525 0.64070 0.55360 -0.14800
C 	C 	0.45801 0.49640 0.43785 -0.18700
H 	H 	0.47400 0.52080 0.42910 0.10800
C 	C 	0.56490 0.82110 0.53429 0.08300
H 	H 	0.56740 0.79030 0.52030 0.00300
C 	C 	0.45190 0.36740 0.54080 0.31000
C 	C 	0.51039 0.31330 0.55145 0.05800
H 	H 	0.52250 0.35110 0.55380 0.02200
C 	C 	0.57943 0.92080 0.55360 0.18700
C 	C 	0.49844 0.66650 0.58200 0.08500
H 	H 	0.49550 0.64790 0.60010 0.02000
C 	C 	0.53003 0.25880 0.55337 -0.15300
H 	H 	0.55560 0.26180 0.55620 0.08200
C 	C 	0.53345 0.14390 0.54970 -0.08000
C 	C 	0.45774 0.50220 0.46791 0.09800
H 	H 	0.47270 0.53110 0.47960 -0.00300
C 	C 	0.43585 0.45660 0.42039 0.12500
C 	C 	0.51502 0.20060 0.55145 0.09900
C 	C 	0.54130 0.03730 0.53790 -0.18200
H 	H 	0.53090 0.00250 0.52750 0.09600
C 	C 	0.77500 0.94820 0.57040 -0.13100
H 	H 	0.76670 0.92810 0.58630 0.07800
C 	C 	0.39980 0.43960 0.33662 -0.04000
H 	H 	0.37710 0.43190 0.32430 0.04200
C 	C 	0.50973 0.71970 0.52871 -0.20500
H 	H 	0.51350 0.73860 0.51080 0.11000
C 	C 	0.54061 0.85770 0.57636 0.07900
H 	H 	0.52550 0.85110 0.59060 0.00200
C 	C 	0.51757 0.72620 0.58062 -0.21200
H 	H 	0.52550 0.74860 0.59840 0.11000
C 	C 	0.52290 0.74610 0.55606 0.17400
C 	C 	0.47493 0.19800 0.54577 -0.14100
H 	H 	0.46280 0.16010 0.54390 0.07900
C 	C 	0.45375 0.49110 0.27696 -0.15700
H 	H 	0.46760 0.52150 0.28850 0.08800
C 	C 	0.81368 0.95120 0.57040 0.04500
H 	H 	0.83070 0.93370 0.58610 0.02900
C 	C 	0.58950 0.08610 0.56793 -0.17300
H 	H 	0.61310 0.08480 0.57960 0.09200
C 	C 	0.65025 0.02610 0.53810 -0.14300
H 	H 	0.63570 0.05940 0.53010 0.08300
C 	C 	0.52070 0.08860 0.53660 0.05800
H 	H 	0.49640 0.08680 0.52620 0.00800
C 	C 	0.45520 0.25210 0.54327 0.05100
H 	H 	0.42950 0.25030 0.53970 0.02700
C 	C 	0.65807 0.93110 0.56460 -0.16700
H 	H 	0.64830 0.89770 0.57350 0.09100
C 	C 	0.40391 0.44290 0.36624 -0.04900
H 	H 	0.38320 0.43520 0.37490 0.04600
C 	C 	0.46044 0.57960 0.55320 0.40000
C 	C 	0.86730 0.98230 0.54760 0.36300
C 	C 	0.71049 0.97620 0.54835 -0.06800
C 	C 	0.58212 0.87670 0.53242 -0.21300
H 	H 	0.59540 0.88420 0.51690 0.10800
C 	C 	0.63460 0.97830 0.55310 0.14000
C 	C 	0.68951 0.02390 0.53490 0.01300
H 	H 	0.69960 0.05410 0.52400 0.02200
C 	C 	0.55787 0.91230 0.57610 -0.20900
H 	H 	0.55560 0.94300 0.59010 0.10900
C 	C 	0.69393 0.93040 0.56360 0.04200
H 	H 	0.70850 0.89860 0.57330 0.01500
C 	C 	0.80160 0.00680 0.52340 0.08400
H 	H 	0.80940 0.02660 0.50720 0.01300
C 	C 	0.46489 0.46350 0.34320 -0.02400
H 	H 	0.48630 0.47110 0.33550 0.04200
C 	C 	0.74912 0.97470 0.54710 0.09500
C 	C 	0.76400 0.00360 0.52410 -0.15300
H 	H 	0.74780 0.02190 0.50820 0.08300
C 	C 	0.41004 0.40930 0.27050 -0.17300
H 	H 	0.39550 0.38050 0.27830 0.08900
C 	C 	0.41354 0.41860 0.43294 -0.20200
H 	H 	0.39870 0.38930 0.42140 0.10300
C 	C 	0.41400 0.42540 0.46290 0.13600
H 	H 	0.39820 0.40030 0.47160 -0.01700
N 	N 	0.42878 0.44960 0.22584 -0.27200
N 	N 	0.59620 0.97650 0.55265 -0.19400
N 	N 	0.43448 0.46370 0.48090 -0.25700
O 	O 	0.46718 0.41900 0.54624 -0.44400
O 	O 	0.44852 0.55860 0.52825 -0.50100
O 	O 	0.41671 0.36505 0.52918 -0.32100
O 	O 	0.88974 0.97930 0.57008 -0.50300
O 	O 	0.45625 0.56350 0.57943 -0.46300
O 	O 	0.87456 0.98830 0.51961 -0.43200
Zn	Zn	0.42903 0.47548 0.52626 1.22700
C 	C 	0.81260 0.93060 0.14760 -0.24000
C 	C 	0.80300 0.91740 0.17420 0.14600
H 	H 	0.82090 0.91050 0.19140 -0.00700
C 	C 	0.47320 0.64250 0.17773 0.06600
H 	H 	0.46500 0.62670 0.19470 0.02200
C 	C 	0.46647 0.60910 0.15070 -0.12800
C 	C 	0.49130 0.69750 0.18030 -0.15100
H 	H 	0.49410 0.71960 0.19840 0.08300
C 	C 	0.49870 0.68850 0.12820 -0.14400
H 	H 	0.50640 0.70390 0.11090 0.08900
C 	C 	0.75120 0.93800 0.12270 -0.21400
H 	H 	0.73460 0.94080 0.10430 0.10700
C 	C 	0.47920 0.63010 0.12692 0.06300
H 	H 	0.47570 0.60720 0.10900 0.03100
C 	C 	0.78870 0.93950 0.12370 0.17000
H 	H 	0.79710 0.94770 0.10570 -0.01700
C 	C 	0.76510 0.91410 0.17590 -0.19900
H 	H 	0.75770 0.89990 0.19350 0.09900
C 	C 	0.50576 0.72120 0.15528 0.10400
C 	C 	0.73870 0.93200 0.15090 0.13300
C 	C 	0.52529 0.77870 0.15652 -0.07800
C 	C 	0.63950 0.98240 0.13870 -0.16400
H 	H 	0.62500 0.01240 0.12740 0.09000
C 	C 	0.53230 0.11850 0.15980 -0.05200
C 	C 	0.51030 0.17970 0.15880 0.06800
C 	C 	0.57370 0.84140 0.14428 -0.18300
H 	H 	0.59290 0.84650 0.13350 0.09700
C 	C 	0.47630 0.29380 0.15540 -0.08800
C 	C 	0.45230 0.35530 0.15580 0.35400
C 	C 	0.69890 0.93650 0.15310 -0.07600
C 	C 	0.50760 0.28570 0.17437 0.03000
H 	H 	0.51670 0.31710 0.18780 0.03900
C 	C 	0.47677 0.18970 0.13820 -0.11400
H 	H 	0.46610 0.15740 0.12590 0.06800
C 	C 	0.52800 0.22880 0.17480 -0.11900
H 	H 	0.55210 0.22540 0.18540 0.07100
C 	C 	0.51770 0.82890 0.17570 0.04400
H 	H 	0.49930 0.82450 0.18740 0.01400
C 	C 	0.56730 0.11040 0.17640 0.03000
H 	H 	0.57860 0.14230 0.18850 0.01600
C 	C 	0.45930 0.24820 0.13610 0.02000
H 	H 	0.43750 0.25560 0.12240 0.02900
C 	C 	0.56790 0.00300 0.16130 0.14700
C 	C 	0.56580 0.88930 0.16140 0.16000
C 	C 	0.62430 0.94330 0.15900 0.13100
C 	C 	0.53400 0.00790 0.14470 -0.16100
H 	H 	0.52280 0.97510 0.13320 0.09100
C 	C 	0.58510 0.05620 0.17510 -0.15900
H 	H 	0.61000 0.05410 0.18370 0.08900
C 	C 	0.68610 0.89340 0.17390 0.01100
H 	H 	0.70130 0.86320 0.18430 0.02300
C 	C 	0.55620 0.78760 0.14171 0.05500
H 	H 	0.56400 0.75590 0.13030 0.01000
C 	C 	0.53720 0.88270 0.17700 -0.17500
H 	H 	0.53100 0.91540 0.18860 0.09400
C 	C 	0.51530 0.06780 0.14540 0.01300
H 	H 	0.49080 0.07120 0.13560 0.02300
C 	C 	0.64740 0.90080 0.17720 -0.14000
H 	H 	0.63800 0.87720 0.19140 0.08300
C 	C 	0.44922 0.54320 0.15060 0.38600
C 	C 	0.67430 0.97530 0.13620 0.04700
H 	H 	0.68290 0.99890 0.12150 0.01600
C 	C 	0.85410 0.93670 0.14510 0.49600
N 	N 	0.58646 0.94560 0.16132 -0.17900
O 	O 	0.44164 0.52680 0.17745 -0.49000
O 	O 	0.44249 0.51690 0.12658 -0.48000
O 	O 	0.46398 0.38550 0.17750 -0.49100
O 	O 	0.86388 0.95240 0.12321 -0.53100
O 	O 	0.87476 0.92580 0.17106 -0.51300
O 	O 	0.43154 0.37130 0.12991 -0.44400
Zn	Zn	0.42656 0.44594 0.18204 1.22700
Zn	Zn	0.41041 0.45156 0.10123 1.21800
C 	C 	0.04863 0.01460 0.75430 0.09600
H 	H 	0.03230 0.99010 0.76270 -0.00800
C 	C 	0.06777 0.05570 0.70985 0.09800
C 	C 	0.09303 0.08760 0.75968 0.09300
H 	H 	0.11090 0.11190 0.77160 -0.01100
C 	C 	0.06600 0.05070 0.67579 -0.02100
C 	C 	0.03400 0.03270 0.62558 -0.06400
H 	H 	0.01230 0.02260 0.61230 0.07000
C 	C 	0.00970 0.83670 0.47240 0.10800
H 	H 	0.01840 0.85660 0.49070 0.00800
C 	C 	0.67411 0.51730 0.45520 -0.14000
C 	C 	0.92914 0.35810 0.43318 0.04000
H 	H 	0.91810 0.32320 0.42330 0.01200
C 	C 	0.95525 0.68990 0.44440 -0.11400
C 	C 	0.92340 0.46690 0.44650 0.16000
C 	C 	0.06524 0.04400 0.61530 -0.00400
C 	C 	0.02732 0.18940 0.45404 -0.12600
C 	C 	0.01475 0.85930 0.44640 -0.14800
C 	C 	0.04199 0.00360 0.56215 -0.18800
H 	H 	0.02600 0.97920 0.57090 0.10800
C 	C 	0.93510 0.67890 0.46571 0.08300
H 	H 	0.93260 0.70970 0.47970 0.00300
C 	C 	0.04810 0.13260 0.45920 0.31000
C 	C 	0.98961 0.18670 0.44855 0.05800
H 	H 	0.97750 0.14890 0.44620 0.02200
C 	C 	0.92057 0.57920 0.44640 0.18700
C 	C 	0.00156 0.83350 0.41800 0.08400
H 	H 	0.00450 0.85210 0.39990 0.02000
C 	C 	0.96997 0.24120 0.44663 -0.15300
H 	H 	0.94440 0.23820 0.44380 0.08200
C 	C 	0.96655 0.35610 0.45030 -0.08000
C 	C 	0.04226 0.99780 0.53209 0.09800
H 	H 	0.02730 0.96890 0.52040 -0.00300
C 	C 	0.06415 0.04340 0.57961 0.12500
C 	C 	0.98498 0.29940 0.44855 0.09900
C 	C 	0.95870 0.46270 0.46210 -0.18200
H 	H 	0.96910 0.49750 0.47250 0.09600
C 	C 	0.72500 0.55180 0.42960 -0.13100
H 	H 	0.73330 0.57190 0.41370 0.07800
C 	C 	0.10020 0.06040 0.66338 -0.04000
H 	H 	0.12290 0.06810 0.67570 0.04200
C 	C 	0.99027 0.78030 0.47129 -0.20500
H 	H 	0.98650 0.76140 0.48920 0.11000
C 	C 	0.95939 0.64230 0.42364 0.07900
H 	H 	0.97450 0.64890 0.40940 0.00200
C 	C 	0.98243 0.77380 0.41938 -0.21200
H 	H 	0.97450 0.75140 0.40160 0.11000
C 	C 	0.97710 0.75390 0.44394 0.17400
C 	C 	0.02507 0.30200 0.45423 -0.14100
H 	H 	0.03720 0.33990 0.45610 0.07900
C 	C 	0.04625 0.00890 0.72304 -0.15800
H 	H 	0.03240 0.97850 0.71150 0.08800
C 	C 	0.68632 0.54880 0.42960 0.04500
H 	H 	0.66930 0.56630 0.41390 0.02900
C 	C 	0.91050 0.41390 0.43207 -0.17400
H 	H 	0.88690 0.41520 0.42040 0.09200
C 	C 	0.84975 0.47390 0.46190 -0.14300
H 	H 	0.86430 0.44060 0.46990 0.08300
C 	C 	0.97930 0.41140 0.46340 0.05800
H 	H 	0.00360 0.41320 0.47380 0.00800
C 	C 	0.04480 0.24790 0.45673 0.05100
H 	H 	0.07050 0.24970 0.46030 0.02700
C 	C 	0.84193 0.56890 0.43540 -0.16700
H 	H 	0.85170 0.60230 0.42650 0.09100
C 	C 	0.09609 0.05710 0.63376 -0.04900
H 	H 	0.11680 0.06480 0.62510 0.04600
C 	C 	0.03956 0.92040 0.44680 0.40000
C 	C 	0.63270 0.51770 0.45240 0.36300
C 	C 	0.78951 0.52380 0.45165 -0.06800
C 	C 	0.91788 0.62330 0.46758 -0.21300
H 	H 	0.90460 0.61580 0.48310 0.10800
C 	C 	0.86540 0.52170 0.44690 0.14000
C 	C 	0.81049 0.47610 0.46510 0.01300
H 	H 	0.80040 0.44590 0.47600 0.02200
C 	C 	0.94213 0.58770 0.42390 -0.20900
H 	H 	0.94440 0.55700 0.40990 0.10900
C 	C 	0.80607 0.56960 0.43640 0.04100
H 	H 	0.79150 0.60140 0.42670 0.01500
C 	C 	0.69840 0.49320 0.47660 0.08400
H 	H 	0.69060 0.47340 0.49280 0.01300
C 	C 	0.03511 0.03650 0.65680 -0.02400
H 	H 	0.01370 0.02890 0.66450 0.04200
C 	C 	0.75088 0.52530 0.45290 0.09500
C 	C 	0.73600 0.49640 0.47590 -0.15300
H 	H 	0.75220 0.47810 0.49180 0.08300
C 	C 	0.08996 0.09070 0.72950 -0.17300
H 	H 	0.10450 0.11950 0.72170 0.08900
C 	C 	0.08646 0.08140 0.56706 -0.20200
H 	H 	0.10130 0.11070 0.57860 0.10300
C 	C 	0.08600 0.07460 0.53710 0.13600
H 	H 	0.10180 0.09970 0.52840 -0.01700
N 	N 	0.07122 0.05040 0.77416 -0.27200
N 	N 	0.90380 0.52350 0.44735 -0.19400
N 	N 	0.06552 0.03630 0.51910 -0.25700
O 	O 	0.03282 0.08100 0.45376 -0.44400
O 	O 	0.05148 0.94140 0.47175 -0.50100
O 	O 	0.08329 0.13495 0.47082 -0.32100
O 	O 	0.61026 0.52070 0.42992 -0.50300
O 	O 	0.04375 0.93650 0.42057 -0.46300
O 	O 	0.62544 0.51170 0.48039 -0.43200
Zn	Zn	0.07097 0.02452 0.47374 1.22700
C 	C 	0.68740 0.56940 0.85240 -0.24000
C 	C 	0.69700 0.58260 0.82580 0.14600
H 	H 	0.67910 0.58950 0.80860 -0.00700
C 	C 	0.02680 0.85750 0.82227 0.06600
H 	H 	0.03500 0.87330 0.80530 0.02200
C 	C 	0.03353 0.89090 0.84930 -0.12800
C 	C 	0.00870 0.80250 0.81970 -0.15100
H 	H 	0.00590 0.78040 0.80160 0.08300
C 	C 	0.00130 0.81150 0.87180 -0.14400
H 	H 	0.99360 0.79610 0.88910 0.08900
C 	C 	0.74880 0.56200 0.87730 -0.21400
H 	H 	0.76540 0.55920 0.89570 0.10700
C 	C 	0.02080 0.86990 0.87308 0.06300
H 	H 	0.02430 0.89280 0.89100 0.03100
C 	C 	0.71130 0.56050 0.87630 0.17000
H 	H 	0.70290 0.55230 0.89430 -0.01700
C 	C 	0.73490 0.58590 0.82410 -0.19900
H 	H 	0.74230 0.60010 0.80650 0.09900
C 	C 	0.99424 0.77880 0.84472 0.10400
C 	C 	0.76130 0.56800 0.84910 0.13300
C 	C 	0.97471 0.72130 0.84348 -0.07800
C 	C 	0.86050 0.51760 0.86130 -0.16300
H 	H 	0.87500 0.48760 0.87260 0.09000
C 	C 	0.96770 0.38150 0.84020 -0.05200
C 	C 	0.98970 0.32030 0.84120 0.06800
C 	C 	0.92630 0.65860 0.85572 -0.18300
H 	H 	0.90710 0.65350 0.86650 0.09700
C 	C 	0.02370 0.20620 0.84460 -0.08800
C 	C 	0.04770 0.14470 0.84420 0.35400
C 	C 	0.80110 0.56350 0.84690 -0.07600
C 	C 	0.99240 0.21430 0.82563 0.03000
H 	H 	0.98330 0.18290 0.81220 0.03900
C 	C 	0.02323 0.31030 0.86180 -0.11400
H 	H 	0.03390 0.34260 0.87410 0.06800
C 	C 	0.97200 0.27120 0.82520 -0.11900
H 	H 	0.94790 0.27460 0.81460 0.07100
C 	C 	0.98230 0.67110 0.82430 0.04400
H 	H 	0.00070 0.67550 0.81260 0.01400
C 	C 	0.93270 0.38960 0.82360 0.03000
H 	H 	0.92140 0.35770 0.81150 0.01600
C 	C 	0.04070 0.25180 0.86390 0.02000
H 	H 	0.06250 0.24440 0.87760 0.02900
C 	C 	0.93210 0.49700 0.83870 0.14700
C 	C 	0.93420 0.61070 0.83860 0.16000
C 	C 	0.87570 0.55670 0.84100 0.13100
C 	C 	0.96600 0.49210 0.85530 -0.16100
H 	H 	0.97720 0.52490 0.86680 0.09100
C 	C 	0.91490 0.44380 0.82490 -0.15900
H 	H 	0.89000 0.44590 0.81630 0.08900
C 	C 	0.81390 0.60660 0.82610 0.01100
H 	H 	0.79870 0.63680 0.81570 0.02300
C 	C 	0.94380 0.71240 0.85829 0.05500
H 	H 	0.93600 0.74410 0.86970 0.01000
C 	C 	0.96280 0.61730 0.82300 -0.17500
H 	H 	0.96900 0.58460 0.81140 0.09400
C 	C 	0.98470 0.43220 0.85460 0.01400
H 	H 	0.00920 0.42880 0.86440 0.02300
C 	C 	0.85260 0.59920 0.82280 -0.14000
H 	H 	0.86200 0.62280 0.80860 0.08300
C 	C 	0.05078 0.95680 0.84940 0.38600
C 	C 	0.82570 0.52470 0.86380 0.04600
H 	H 	0.81710 0.50110 0.87850 0.01600
C 	C 	0.64590 0.56330 0.85490 0.49600
N 	N 	0.91354 0.55440 0.83868 -0.17900
O 	O 	0.05836 0.97320 0.82255 -0.49000
O 	O 	0.05751 0.98310 0.87342 -0.48000
O 	O 	0.03602 0.11450 0.82250 -0.49100
O 	O 	0.63612 0.54760 0.87679 -0.53100
O 	O 	0.62524 0.57420 0.82894 -0.51300
O 	O 	0.06846 0.12870 0.87009 -0.44400
Zn	Zn	0.07344 0.05406 0.81796 1.22700
Zn	Zn	0.08959 0.04844 0.89877 1.21800
C 	C 	0.54863 0.51460 0.75430 0.09600
H 	H 	0.53230 0.49010 0.76270 -0.00900
C 	C 	0.56777 0.55570 0.70985 0.09800
C 	C 	0.59303 0.58760 0.75968 0.09300
H 	H 	0.61090 0.61190 0.77160 -0.01100
C 	C 	0.56600 0.55070 0.67579 -0.02000
C 	C 	0.53400 0.53270 0.62558 -0.06400
H 	H 	0.51230 0.52260 0.61230 0.07000
C 	C 	0.50970 0.33670 0.47240 0.10800
H 	H 	0.51840 0.35660 0.49070 0.00800
C 	C 	0.17411 0.01730 0.45520 -0.14000
C 	C 	0.42914 0.85810 0.43318 0.03900
H 	H 	0.41810 0.82320 0.42330 0.01200
C 	C 	0.45525 0.18990 0.44440 -0.11400
C 	C 	0.42340 0.96690 0.44650 0.16000
C 	C 	0.56524 0.54400 0.61530 -0.00400
C 	C 	0.52732 0.68940 0.45404 -0.12600
C 	C 	0.51475 0.35930 0.44640 -0.14800
C 	C 	0.54199 0.50360 0.56215 -0.18700
H 	H 	0.52600 0.47920 0.57090 0.10800
C 	C 	0.43510 0.17890 0.46571 0.08300
H 	H 	0.43260 0.20970 0.47970 0.00300
C 	C 	0.54810 0.63260 0.45920 0.31000
C 	C 	0.48961 0.68670 0.44855 0.05800
H 	H 	0.47750 0.64890 0.44620 0.02200
C 	C 	0.42057 0.07920 0.44640 0.18700
C 	C 	0.50156 0.33350 0.41800 0.08500
H 	H 	0.50450 0.35210 0.39990 0.02000
C 	C 	0.46997 0.74120 0.44663 -0.15300
H 	H 	0.44440 0.73820 0.44380 0.08200
C 	C 	0.46655 0.85610 0.45030 -0.08000
C 	C 	0.54226 0.49780 0.53209 0.09800
H 	H 	0.52730 0.46890 0.52040 -0.00300
C 	C 	0.56415 0.54340 0.57961 0.12500
C 	C 	0.48498 0.79940 0.44855 0.09900
C 	C 	0.45870 0.96270 0.46210 -0.18200
H 	H 	0.46910 0.99750 0.47250 0.09600
C 	C 	0.22500 0.05180 0.42960 -0.13100
H 	H 	0.23330 0.07190 0.41370 0.07800
C 	C 	0.60020 0.56040 0.66338 -0.04000
H 	H 	0.62290 0.56810 0.67570 0.04200
C 	C 	0.49027 0.28030 0.47129 -0.20500
H 	H 	0.48650 0.26140 0.48920 0.11000
C 	C 	0.45939 0.14230 0.42364 0.07900
H 	H 	0.47450 0.14890 0.40940 0.00200
C 	C 	0.48243 0.27380 0.41938 -0.21200
H 	H 	0.47450 0.25140 0.40160 0.11000
C 	C 	0.47710 0.25390 0.44394 0.17400
C 	C 	0.52507 0.80200 0.45423 -0.14100
H 	H 	0.53720 0.83990 0.45610 0.07900
C 	C 	0.54625 0.50890 0.72304 -0.15700
H 	H 	0.53240 0.47850 0.71150 0.08800
C 	C 	0.18632 0.04880 0.42960 0.04500
H 	H 	0.16930 0.06630 0.41390 0.02900
C 	C 	0.41050 0.91390 0.43207 -0.17300
H 	H 	0.38690 0.91520 0.42040 0.09200
C 	C 	0.34975 0.97390 0.46190 -0.14300
H 	H 	0.36430 0.94060 0.46990 0.08300
C 	C 	0.47930 0.91140 0.46340 0.05800
H 	H 	0.50360 0.91320 0.47380 0.00800
C 	C 	0.54480 0.74790 0.45673 0.05100
H 	H 	0.57050 0.74970 0.46030 0.02700
C 	C 	0.34193 0.06890 0.43540 -0.16700
H 	H 	0.35170 0.10230 0.42650 0.09100
C 	C 	0.59609 0.55710 0.63376 -0.04900
H 	H 	0.61680 0.56480 0.62510 0.04600
C 	C 	0.53956 0.42040 0.44680 0.40000
C 	C 	0.13270 0.01770 0.45240 0.36300
C 	C 	0.28951 0.02380 0.45165 -0.06800
C 	C 	0.41788 0.12330 0.46758 -0.21300
H 	H 	0.40460 0.11580 0.48310 0.10800
C 	C 	0.36540 0.02170 0.44690 0.14000
C 	C 	0.31049 0.97610 0.46510 0.01300
H 	H 	0.30040 0.94590 0.47600 0.02200
C 	C 	0.44213 0.08770 0.42390 -0.20900
H 	H 	0.44440 0.05700 0.40990 0.10900
C 	C 	0.30607 0.06960 0.43640 0.04200
H 	H 	0.29150 0.10140 0.42670 0.01500
C 	C 	0.19840 0.99320 0.47660 0.08400
H 	H 	0.19060 0.97340 0.49280 0.01300
C 	C 	0.53511 0.53650 0.65680 -0.02400
H 	H 	0.51370 0.52890 0.66450 0.04200
C 	C 	0.25088 0.02530 0.45290 0.09500
C 	C 	0.23600 0.99640 0.47590 -0.15300
H 	H 	0.25220 0.97810 0.49180 0.08300
C 	C 	0.58996 0.59070 0.72950 -0.17300
H 	H 	0.60450 0.61950 0.72170 0.08900
C 	C 	0.58646 0.58140 0.56706 -0.20200
H 	H 	0.60130 0.61070 0.57860 0.10300
C 	C 	0.58600 0.57460 0.53710 0.13600
H 	H 	0.60180 0.59970 0.52840 -0.01700
N 	N 	0.57122 0.55040 0.77416 -0.27200
N 	N 	0.40380 0.02350 0.44735 -0.19400
N 	N 	0.56552 0.53630 0.51910 -0.25700
O 	O 	0.53282 0.58100 0.45376 -0.44400
O 	O 	0.55148 0.44140 0.47175 -0.50100
O 	O 	0.58329 0.63495 0.47082 -0.32100
O 	O 	0.11026 0.02070 0.42992 -0.50300
O 	O 	0.54375 0.43650 0.42057 -0.46300
O 	O 	0.12544 0.01170 0.48039 -0.43200
Zn	Zn	0.57097 0.52452 0.47374 1.22700
C 	C 	0.18740 0.06940 0.85240 -0.24000
C 	C 	0.19700 0.08260 0.82580 0.14600
H 	H 	0.17910 0.08950 0.80860 -0.00700
C 	C 	0.52680 0.35750 0.82227 0.06600
H 	H 	0.53500 0.37330 0.80530 0.02200
C 	C 	0.53353 0.39090 0.84930 -0.12800
C 	C 	0.50870 0.30250 0.81970 -0.15100
H 	H 	0.50590 0.28040 0.80160 0.08300
C 	C 	0.50130 0.31150 0.87180 -0.14400
H 	H 	0.49360 0.29610 0.88910 0.08900
C 	C 	0.24880 0.06200 0.87730 -0.21400
H 	H 	0.26540 0.05920 0.89570 0.10700
C 	C 	0.52080 0.36990 0.87308 0.06300
H 	H 	0.52430 0.39280 0.89100 0.03100
C 	C 	0.21130 0.06050 0.87630 0.17000
H 	H 	0.20290 0.05230 0.89430 -0.01700
C 	C 	0.23490 0.08590 0.82410 -0.19900
H 	H 	0.24230 0.10010 0.80650 0.09900
C 	C 	0.49424 0.27880 0.84472 0.10400
C 	C 	0.26130 0.06800 0.84910 0.13300
C 	C 	0.47471 0.22130 0.84348 -0.07800
C 	C 	0.36050 0.01760 0.86130 -0.16400
H 	H 	0.37500 0.98760 0.87260 0.09000
C 	C 	0.46770 0.88150 0.84020 -0.05200
C 	C 	0.48970 0.82030 0.84120 0.06800
C 	C 	0.42630 0.15860 0.85572 -0.18300
H 	H 	0.40710 0.15350 0.86650 0.09700
C 	C 	0.52370 0.70620 0.84460 -0.08800
C 	C 	0.54770 0.64470 0.84420 0.35400
C 	C 	0.30110 0.06350 0.84690 -0.07600
C 	C 	0.49240 0.71430 0.82563 0.03000
H 	H 	0.48330 0.68290 0.81220 0.03900
C 	C 	0.52323 0.81030 0.86180 -0.11400
H 	H 	0.53390 0.84260 0.87410 0.06800
C 	C 	0.47200 0.77120 0.82520 -0.11900
H 	H 	0.44790 0.77460 0.81460 0.07100
C 	C 	0.48230 0.17110 0.82430 0.04400
H 	H 	0.50070 0.17550 0.81260 0.01400
C 	C 	0.43270 0.88960 0.82360 0.03000
H 	H 	0.42140 0.85770 0.81150 0.01600
C 	C 	0.54070 0.75180 0.86390 0.02000
H 	H 	0.56250 0.74440 0.87760 0.02900
C 	C 	0.43210 0.99700 0.83870 0.14700
C 	C 	0.43420 0.11070 0.83860 0.16000
C 	C 	0.37570 0.05670 0.84100 0.13100
C 	C 	0.46600 0.99210 0.85530 -0.16100
H 	H 	0.47720 0.02490 0.86680 0.09100
C 	C 	0.41490 0.94380 0.82490 -0.15900
H 	H 	0.39000 0.94590 0.81630 0.08900
C 	C 	0.31390 0.10660 0.82610 0.01100
H 	H 	0.29870 0.13680 0.81570 0.02300
C 	C 	0.44380 0.21240 0.85829 0.05500
H 	H 	0.43600 0.24410 0.86970 0.01000
C 	C 	0.46280 0.11730 0.82300 -0.17500
H 	H 	0.46900 0.08460 0.81140 0.09400
C 	C 	0.48470 0.93220 0.85460 0.01300
H 	H 	0.50920 0.92880 0.86440 0.02300
C 	C 	0.35260 0.09920 0.82280 -0.14000
H 	H 	0.36200 0.12280 0.80860 0.08300
C 	C 	0.55078 0.45680 0.84940 0.38600
C 	C 	0.32570 0.02470 0.86380 0.04700
H 	H 	0.31710 0.00110 0.87850 0.01600
C 	C 	0.14590 0.06330 0.85490 0.49600
N 	N 	0.41354 0.05440 0.83868 -0.17900
O 	O 	0.55836 0.47320 0.82255 -0.49000
O 	O 	0.55751 0.48310 0.87342 -0.48000
O 	O 	0.53602 0.61450 0.82250 -0.49100
O 	O 	0.13612 0.04760 0.87679 -0.53100
O 	O 	0.12524 0.07420 0.82894 -0.51300
O 	O 	0.56846 0.62870 0.87009 -0.44400
Zn	Zn	0.57344 0.55406 0.81796 1.22700
Zn	Zn	0.58959 0.54844 0.89877 1.21800
C 	C 	0.04863 0.98540 0.25430 0.09600
H 	H 	0.03230 0.00990 0.26270 -0.00800
C 	C 	0.06777 0.94430 0.20985 0.09800
C 	C 	0.09303 0.91240 0.25968 0.09300
H 	H 	0.11090 0.88810 0.27160 -0.01100
C 	C 	0.06600 0.94930 0.17579 -0.02100
C 	C 	0.03400 0.96730 0.12558 -0.06400
H 	H 	0.01230 0.97740 0.11230 0.07000
C 	C 	0.00970 0.16330 0.97240 0.10800
H 	H 	0.01840 0.14340 0.99070 0.00800
C 	C 	0.67411 0.48270 0.95520 -0.14000
C 	C 	0.92914 0.64190 0.93318 0.04000
H 	H 	0.91810 0.67680 0.92330 0.01200
C 	C 	0.95525 0.31010 0.94440 -0.11400
C 	C 	0.92340 0.53310 0.94650 0.16000
C 	C 	0.06524 0.95600 0.11530 -0.00400
C 	C 	0.02732 0.81060 0.95404 -0.12600
C 	C 	0.01475 0.14070 0.94640 -0.14800
C 	C 	0.04199 0.99640 0.06215 -0.18800
H 	H 	0.02600 0.02080 0.07090 0.10800
C 	C 	0.93510 0.32110 0.96571 0.08300
H 	H 	0.93260 0.29030 0.97970 0.00300
C 	C 	0.04810 0.86740 0.95920 0.31000
C 	C 	0.98961 0.81330 0.94855 0.05800
H 	H 	0.97750 0.85110 0.94620 0.02200
C 	C 	0.92057 0.42080 0.94640 0.18700
C 	C 	0.00156 0.16650 0.91800 0.08400
H 	H 	0.00450 0.14790 0.89990 0.02000
C 	C 	0.96997 0.75880 0.94663 -0.15300
H 	H 	0.94440 0.76180 0.94380 0.08200
C 	C 	0.96655 0.64390 0.95030 -0.08000
C 	C 	0.04226 0.00220 0.03209 0.09800
H 	H 	0.02730 0.03110 0.02040 -0.00300
C 	C 	0.06415 0.95660 0.07961 0.12500
C 	C 	0.98498 0.70060 0.94855 0.09900
C 	C 	0.95870 0.53730 0.96210 -0.18200
H 	H 	0.96910 0.50250 0.97250 0.09600
C 	C 	0.72500 0.44820 0.92960 -0.13100
H 	H 	0.73330 0.42810 0.91370 0.07800
C 	C 	0.10020 0.93960 0.16338 -0.04000
H 	H 	0.12290 0.93190 0.17570 0.04200
C 	C 	0.99027 0.21970 0.97129 -0.20500
H 	H 	0.98650 0.23860 0.98920 0.11000
C 	C 	0.95939 0.35770 0.92364 0.07900
H 	H 	0.97450 0.35110 0.90940 0.00200
C 	C 	0.98243 0.22620 0.91938 -0.21200
H 	H 	0.97450 0.24860 0.90160 0.11000
C 	C 	0.97710 0.24610 0.94394 0.17400
C 	C 	0.02507 0.69800 0.95423 -0.14100
H 	H 	0.03720 0.66010 0.95610 0.07900
C 	C 	0.04625 0.99110 0.22304 -0.15800
H 	H 	0.03240 0.02150 0.21150 0.08800
C 	C 	0.68632 0.45120 0.92960 0.04500
H 	H 	0.66930 0.43370 0.91390 0.02900
C 	C 	0.91050 0.58610 0.93207 -0.17400
H 	H 	0.88690 0.58480 0.92040 0.09200
C 	C 	0.84975 0.52610 0.96190 -0.14300
H 	H 	0.86430 0.55940 0.96990 0.08300
C 	C 	0.97930 0.58860 0.96340 0.05800
H 	H 	0.00360 0.58680 0.97380 0.00800
C 	C 	0.04480 0.75210 0.95673 0.05100
H 	H 	0.07050 0.75030 0.96030 0.02700
C 	C 	0.84193 0.43110 0.93540 -0.16700
H 	H 	0.85170 0.39770 0.92650 0.09100
C 	C 	0.09609 0.94290 0.13376 -0.04900
H 	H 	0.11680 0.93520 0.12510 0.04600
C 	C 	0.03956 0.07960 0.94680 0.40000
C 	C 	0.63270 0.48230 0.95240 0.36300
C 	C 	0.78951 0.47620 0.95165 -0.06800
C 	C 	0.91788 0.37670 0.96758 -0.21300
H 	H 	0.90460 0.38420 0.98310 0.10800
C 	C 	0.86540 0.47830 0.94690 0.14000
C 	C 	0.81049 0.52390 0.96510 0.01300
H 	H 	0.80040 0.55410 0.97600 0.02200
C 	C 	0.94213 0.41230 0.92390 -0.20900
H 	H 	0.94440 0.44300 0.90990 0.10900
C 	C 	0.80607 0.43040 0.93640 0.04100
H 	H 	0.79150 0.39860 0.92670 0.01500
C 	C 	0.69840 0.50680 0.97660 0.08400
H 	H 	0.69060 0.52660 0.99280 0.01300
C 	C 	0.03511 0.96350 0.15680 -0.02400
H 	H 	0.01370 0.97110 0.16450 0.04200
C 	C 	0.75088 0.47470 0.95290 0.09500
C 	C 	0.73600 0.50360 0.97590 -0.15300
H 	H 	0.75220 0.52190 0.99180 0.08300
C 	C 	0.08996 0.90930 0.22950 -0.17300
H 	H 	0.10450 0.88050 0.22170 0.08900
C 	C 	0.08646 0.91860 0.06706 -0.20200
H 	H 	0.10130 0.88930 0.07860 0.10300
C 	C 	0.08600 0.92540 0.03710 0.13600
H 	H 	0.10180 0.90030 0.02840 -0.01700
N 	N 	0.07122 0.94960 0.27416 -0.27200
N 	N 	0.90380 0.47650 0.94735 -0.19400
N 	N 	0.06552 0.96370 0.01910 -0.25700
O 	O 	0.03282 0.91900 0.95376 -0.44400
O 	O 	0.05148 0.05860 0.97175 -0.50100
O 	O 	0.08329 0.86505 0.97082 -0.32100
O 	O 	0.61026 0.47930 0.92992 -0.50300
O 	O 	0.04375 0.06350 0.92057 -0.46300
O 	O 	0.62544 0.48830 0.98039 -0.43200
Zn	Zn	0.07097 0.97548 0.97374 1.22700
C 	C 	0.68740 0.43060 0.35240 -0.24000
C 	C 	0.69700 0.41740 0.32580 0.14600
H 	H 	0.67910 0.41050 0.30860 -0.00700
C 	C 	0.02680 0.14250 0.32227 0.06600
H 	H 	0.03500 0.12670 0.30530 0.02200
C 	C 	0.03353 0.10910 0.34930 -0.12800
C 	C 	0.00870 0.19750 0.31970 -0.15100
H 	H 	0.00590 0.21960 0.30160 0.08300
C 	C 	0.00130 0.18850 0.37180 -0.14400
H 	H 	0.99360 0.20390 0.38910 0.08900
C 	C 	0.74880 0.43800 0.37730 -0.21400
H 	H 	0.76540 0.44080 0.39570 0.10700
C 	C 	0.02080 0.13010 0.37308 0.06300
H 	H 	0.02430 0.10720 0.39100 0.03100
C 	C 	0.71130 0.43950 0.37630 0.17000
H 	H 	0.70290 0.44770 0.39430 -0.01700
C 	C 	0.73490 0.41410 0.32410 -0.19900
H 	H 	0.74230 0.39990 0.30650 0.09900
C 	C 	0.99424 0.22120 0.34472 0.10400
C 	C 	0.76130 0.43200 0.34910 0.13300
C 	C 	0.97471 0.27870 0.34348 -0.07800
C 	C 	0.86050 0.48240 0.36130 -0.16300
H 	H 	0.87500 0.51240 0.37260 0.09000
C 	C 	0.96770 0.61850 0.34020 -0.05200
C 	C 	0.98970 0.67970 0.34120 0.06800
C 	C 	0.92630 0.34140 0.35572 -0.18300
H 	H 	0.90710 0.34650 0.36650 0.09700
C 	C 	0.02370 0.79380 0.34460 -0.08800
C 	C 	0.04770 0.85530 0.34420 0.35400
C 	C 	0.80110 0.43650 0.34690 -0.07600
C 	C 	0.99240 0.78570 0.32563 0.03000
H 	H 	0.98330 0.81710 0.31220 0.03900
C 	C 	0.02323 0.68970 0.36180 -0.11400
H 	H 	0.03390 0.65740 0.37410 0.06800
C 	C 	0.97200 0.72880 0.32520 -0.11900
H 	H 	0.94790 0.72540 0.31460 0.07100
C 	C 	0.98230 0.32890 0.32430 0.04400
H 	H 	0.00070 0.32450 0.31260 0.01400
C 	C 	0.93270 0.61040 0.32360 0.03000
H 	H 	0.92140 0.64230 0.31150 0.01600
C 	C 	0.04070 0.74820 0.36390 0.02000
H 	H 	0.06250 0.75560 0.37760 0.02900
C 	C 	0.93210 0.50300 0.33870 0.14700
C 	C 	0.93420 0.38930 0.33860 0.16000
C 	C 	0.87570 0.44330 0.34100 0.13100
C 	C 	0.96600 0.50790 0.35530 -0.16100
H 	H 	0.97720 0.47510 0.36680 0.09100
C 	C 	0.91490 0.55620 0.32490 -0.15900
H 	H 	0.89000 0.55410 0.31630 0.08900
C 	C 	0.81390 0.39340 0.32610 0.01100
H 	H 	0.79870 0.36320 0.31570 0.02300
C 	C 	0.94380 0.28760 0.35829 0.05500
H 	H 	0.93600 0.25590 0.36970 0.01000
C 	C 	0.96280 0.38270 0.32300 -0.17500
H 	H 	0.96900 0.41540 0.31140 0.09400
C 	C 	0.98470 0.56780 0.35460 0.01400
H 	H 	0.00920 0.57120 0.36440 0.02300
C 	C 	0.85260 0.40080 0.32280 -0.14000
H 	H 	0.86200 0.37720 0.30860 0.08300
C 	C 	0.05078 0.04320 0.34940 0.38600
C 	C 	0.82570 0.47530 0.36380 0.04600
H 	H 	0.81710 0.49890 0.37850 0.01600
C 	C 	0.64590 0.43670 0.35490 0.49600
N 	N 	0.91354 0.44560 0.33868 -0.17900
O 	O 	0.05836 0.02680 0.32255 -0.49000
O 	O 	0.05751 0.01690 0.37342 -0.48000
O 	O 	0.03602 0.88550 0.32250 -0.49100
O 	O 	0.63612 0.45240 0.37679 -0.53100
O 	O 	0.62524 0.42580 0.32894 -0.51300
O 	O 	0.06846 0.87130 0.37009 -0.44400
Zn	Zn	0.07344 0.94594 0.31796 1.22700
Zn	Zn	0.08959 0.95156 0.39877 1.21800
C 	C 	0.54863 0.48540 0.25430 0.09600
H 	H 	0.53230 0.50990 0.26270 -0.00900
C 	C 	0.56777 0.44430 0.20985 0.09800
C 	C 	0.59303 0.41240 0.25968 0.09300
H 	H 	0.61090 0.38810 0.27160 -0.01100
C 	C 	0.56600 0.44930 0.17579 -0.02000
C 	C 	0.53400 0.46730 0.12558 -0.06400
H 	H 	0.51230 0.47740 0.11230 0.07000
C 	C 	0.50970 0.66330 0.97240 0.10800
H 	H 	0.51840 0.64340 0.99070 0.00800
C 	C 	0.17411 0.98270 0.95520 -0.14000
C 	C 	0.42914 0.14190 0.93318 0.03900
H 	H 	0.41810 0.17680 0.92330 0.01200
C 	C 	0.45525 0.81010 0.94440 -0.11400
C 	C 	0.42340 0.03310 0.94650 0.16000
C 	C 	0.56524 0.45600 0.11530 -0.00400
C 	C 	0.52732 0.31060 0.95404 -0.12600
C 	C 	0.51475 0.64070 0.94640 -0.14800
C 	C 	0.54199 0.49640 0.06215 -0.18700
H 	H 	0.52600 0.52080 0.07090 0.10800
C 	C 	0.43510 0.82110 0.96571 0.08300
H 	H 	0.43260 0.79030 0.97970 0.00300
C 	C 	0.54810 0.36740 0.95920 0.31000
C 	C 	0.48961 0.31330 0.94855 0.05800
H 	H 	0.47750 0.35110 0.94620 0.02200
C 	C 	0.42057 0.92080 0.94640 0.18700
C 	C 	0.50156 0.66650 0.91800 0.08500
H 	H 	0.50450 0.64790 0.89990 0.02000
C 	C 	0.46997 0.25880 0.94663 -0.15300
H 	H 	0.44440 0.26180 0.94380 0.08200
C 	C 	0.46655 0.14390 0.95030 -0.08000
C 	C 	0.54226 0.50220 0.03209 0.09800
H 	H 	0.52730 0.53110 0.02040 -0.00300
C 	C 	0.56415 0.45660 0.07961 0.12500
C 	C 	0.48498 0.20060 0.94855 0.09900
C 	C 	0.45870 0.03730 0.96210 -0.18200
H 	H 	0.46910 0.00250 0.97250 0.09600
C 	C 	0.22500 0.94820 0.92960 -0.13100
H 	H 	0.23330 0.92810 0.91370 0.07800
C 	C 	0.60020 0.43960 0.16338 -0.04000
H 	H 	0.62290 0.43190 0.17570 0.04200
C 	C 	0.49027 0.71970 0.97129 -0.20500
H 	H 	0.48650 0.73860 0.98920 0.11000
C 	C 	0.45939 0.85770 0.92364 0.07900
H 	H 	0.47450 0.85110 0.90940 0.00200
C 	C 	0.48243 0.72620 0.91938 -0.21200
H 	H 	0.47450 0.74860 0.90160 0.11000
C 	C 	0.47710 0.74610 0.94394 0.17400
C 	C 	0.52507 0.19800 0.95423 -0.14100
H 	H 	0.53720 0.16010 0.95610 0.07900
C 	C 	0.54625 0.49110 0.22304 -0.15700
H 	H 	0.53240 0.52150 0.21150 0.08800
C 	C 	0.18632 0.95120 0.92960 0.04500
H 	H 	0.16930 0.93370 0.91390 0.02900
C 	C 	0.41050 0.08610 0.93207 -0.17300
H 	H 	0.38690 0.08480 0.92040 0.09200
C 	C 	0.34975 0.02610 0.96190 -0.14300
H 	H 	0.36430 0.05940 0.96990 0.08300
C 	C 	0.47930 0.08860 0.96340 0.05800
H 	H 	0.50360 0.08680 0.97380 0.00800
C 	C 	0.54480 0.25210 0.95673 0.05100
H 	H 	0.57050 0.25030 0.96030 0.02700
C 	C 	0.34193 0.93110 0.93540 -0.16700
H 	H 	0.35170 0.89770 0.92650 0.09100
C 	C 	0.59609 0.44290 0.13376 -0.04900
H 	H 	0.61680 0.43520 0.12510 0.04600
C 	C 	0.53956 0.57960 0.94680 0.40000
C 	C 	0.13270 0.98230 0.95240 0.36300
C 	C 	0.28951 0.97620 0.95165 -0.06800
C 	C 	0.41788 0.87670 0.96758 -0.21300
H 	H 	0.40460 0.88420 0.98310 0.10800
C 	C 	0.36540 0.97830 0.94690 0.14000
C 	C 	0.31049 0.02390 0.96510 0.01300
H 	H 	0.30040 0.05410 0.97600 0.02200
C 	C 	0.44213 0.91230 0.92390 -0.20900
H 	H 	0.44440 0.94300 0.90990 0.10900
C 	C 	0.30607 0.93040 0.93640 0.04200
H 	H 	0.29150 0.89860 0.92670 0.01500
C 	C 	0.19840 0.00680 0.97660 0.08400
H 	H 	0.19060 0.02660 0.99280 0.01300
C 	C 	0.53511 0.46350 0.15680 -0.02400
H 	H 	0.51370 0.47110 0.16450 0.04200
C 	C 	0.25088 0.97470 0.95290 0.09500
C 	C 	0.23600 0.00360 0.97590 -0.15300
H 	H 	0.25220 0.02190 0.99180 0.08300
C 	C 	0.58996 0.40930 0.22950 -0.17300
H 	H 	0.60450 0.38050 0.22170 0.08900
C 	C 	0.58646 0.41860 0.06706 -0.20200
H 	H 	0.60130 0.38930 0.07860 0.10300
C 	C 	0.58600 0.42540 0.03710 0.13600
H 	H 	0.60180 0.40030 0.02840 -0.01700
N 	N 	0.57122 0.44960 0.27416 -0.27200
N 	N 	0.40380 0.97650 0.94735 -0.19400
N 	N 	0.56552 0.46370 0.01910 -0.25700
O 	O 	0.53282 0.41900 0.95376 -0.44400
O 	O 	0.55148 0.55860 0.97175 -0.50100
O 	O 	0.58329 0.36505 0.97082 -0.32100
O 	O 	0.11026 0.97930 0.92992 -0.50300
O 	O 	0.54375 0.56350 0.92057 -0.46300
O 	O 	0.12544 0.98830 0.98039 -0.43200
Zn	Zn	0.57097 0.47548 0.97374 1.22700
C 	C 	0.18740 0.93060 0.35240 -0.24000
C 	C 	0.19700 0.91740 0.32580 0.14600
H 	H 	0.17910 0.91050 0.30860 -0.00700
C 	C 	0.52680 0.64250 0.32227 0.06600
H 	H 	0.53500 0.62670 0.30530 0.02200
C 	C 	0.53353 0.60910 0.34930 -0.12800
C 	C 	0.50870 0.69750 0.31970 -0.15100
H 	H 	0.50590 0.71960 0.30160 0.08300
C 	C 	0.50130 0.68850 0.37180 -0.14400
H 	H 	0.49360 0.70390 0.38910 0.08900
C 	C 	0.24880 0.93800 0.37730 -0.21400
H 	H 	0.26540 0.94080 0.39570 0.10700
C 	C 	0.52080 0.63010 0.37308 0.06300
H 	H 	0.52430 0.60720 0.39100 0.03100
C 	C 	0.21130 0.93950 0.37630 0.17000
H 	H 	0.20290 0.94770 0.39430 -0.01700
C 	C 	0.23490 0.91410 0.32410 -0.19900
H 	H 	0.24230 0.89990 0.30650 0.09900
C 	C 	0.49424 0.72120 0.34472 0.10400
C 	C 	0.26130 0.93200 0.34910 0.13300
C 	C 	0.47471 0.77870 0.34348 -0.07800
C 	C 	0.36050 0.98240 0.36130 -0.16400
H 	H 	0.37500 0.01240 0.37260 0.09000
C 	C 	0.46770 0.11850 0.34020 -0.05200
C 	C 	0.48970 0.17970 0.34120 0.06800
C 	C 	0.42630 0.84140 0.35572 -0.18300
H 	H 	0.40710 0.84650 0.36650 0.09700
C 	C 	0.52370 0.29380 0.34460 -0.08800
C 	C 	0.54770 0.35530 0.34420 0.35400
C 	C 	0.30110 0.93650 0.34690 -0.07600
C 	C 	0.49240 0.28570 0.32563 0.03000
H 	H 	0.48330 0.31710 0.31220 0.03900
C 	C 	0.52323 0.18970 0.36180 -0.11400
H 	H 	0.53390 0.15740 0.37410 0.06800
C 	C 	0.47200 0.22880 0.32520 -0.11900
H 	H 	0.44790 0.22540 0.31460 0.07100
C 	C 	0.48230 0.82890 0.32430 0.04400
H 	H 	0.50070 0.82450 0.31260 0.01400
C 	C 	0.43270 0.11040 0.32360 0.03000
H 	H 	0.42140 0.14230 0.31150 0.01600
C 	C 	0.54070 0.24820 0.36390 0.02000
H 	H 	0.56250 0.25560 0.37760 0.02900
C 	C 	0.43210 0.00300 0.33870 0.14700
C 	C 	0.43420 0.88930 0.33860 0.16000
C 	C 	0.37570 0.94330 0.34100 0.13100
C 	C 	0.46600 0.00790 0.35530 -0.16100
H 	H 	0.47720 0.97510 0.36680 0.09100
C 	C 	0.41490 0.05620 0.32490 -0.15900
H 	H 	0.39000 0.05410 0.31630 0.08900
C 	C 	0.31390 0.89340 0.32610 0.01100
H 	H 	0.29870 0.86320 0.31570 0.02300
C 	C 	0.44380 0.78760 0.35829 0.05500
H 	H 	0.43600 0.75590 0.36970 0.01000
C 	C 	0.46280 0.88270 0.32300 -0.17500
H 	H 	0.46900 0.91540 0.31140 0.09400
C 	C 	0.48470 0.06780 0.35460 0.01300
H 	H 	0.50920 0.07120 0.36440 0.02300
C 	C 	0.35260 0.90080 0.32280 -0.14000
H 	H 	0.36200 0.87720 0.30860 0.08300
C 	C 	0.55078 0.54320 0.34940 0.38600
C 	C 	0.32570 0.97530 0.36380 0.04700
H 	H 	0.31710 0.99890 0.37850 0.01600
C 	C 	0.14590 0.93670 0.35490 0.49600
N 	N 	0.41354 0.94560 0.33868 -0.17900
O 	O 	0.55836 0.52680 0.32255 -0.49000
O 	O 	0.55751 0.51690 0.37342 -0.48000
O 	O 	0.53602 0.38550 0.32250 -0.49100
O 	O 	0.13612 0.95240 0.37679 -0.53100
O 	O 	0.12524 0.92580 0.32894 -0.51300
O 	O 	0.56846 0.37130 0.37009 -0.44400
Zn	Zn	0.57344 0.44594 0.31796 1.22700
Zn	Zn	0.58959 0.45156 0.39877 1.21800
