data_crystal

_cell_length_a 21.21000
_cell_length_b 36.41000
_cell_length_c 19.41900
_cell_angle_alpha 90.00000
_cell_angle_beta  94.42500
_cell_angle_gamma 90.00000

_symmetry_space_group_name_	'P 1'
_symmetry_space_group_name_H-M	'P 1'

loop_
_symmetry_equiv_pos_as_xyz
  x,y,z

loop_
_atom_site_label
_atom_site_type_symbol
_atom_site_fract_x
_atom_site_fract_y
_atom_site_fract_z
_atom_site_charge
C 	C 	0.76020 0.54920 0.72320 0.24900
H 	H 	0.79060 0.55510 0.75860 -0.04100
C 	C 	0.25200 0.20810 0.00780 -0.26100
H 	H 	0.21860 0.22110 0.02440 0.15500
C 	C 	0.22870 0.18650 0.14940 0.14100
C 	C 	0.26190 0.20756 0.93850 0.16200
H 	H 	0.23470 0.22130 0.90880 -0.02800
C 	C 	0.34390 0.17030 0.02640 -0.26800
H 	H 	0.37370 0.15800 0.05540 0.12700
C 	C 	0.29420 0.18827 0.05190 0.24500
C 	C 	0.34790 0.17116 0.95730 0.15600
H 	H 	0.38120 0.15850 0.93980 -0.02100
C 	C 	0.09860 0.21174 0.48020 0.32100
C 	C 	0.04220 0.23407 0.48980 -0.12200
C 	C 	0.04650 0.27185 0.50060 0.05800
H 	H 	0.08600 0.28310 0.50290 0.03300
C 	C 	0.93380 0.27690 0.50580 0.09500
C 	C 	0.99410 0.29261 0.50780 -0.14800
H 	H 	0.99840 0.31780 0.51410 0.08500
C 	C 	0.37960 0.22678 0.54750 -0.20900
C 	C 	0.32500 0.20291 0.55250 0.46500
C 	C 	0.46130 0.26560 0.60120 -0.19800
H 	H 	0.48070 0.27600 0.64110 0.10300
C 	C 	0.16860 0.16967 0.31960 0.08600
H 	H 	0.13470 0.15760 0.33710 0.00200
C 	C 	0.17320 0.16967 0.24980 -0.12300
H 	H 	0.14230 0.15830 0.22070 0.09000
C 	C 	0.53990 0.29786 0.53450 -0.09300
C 	C 	0.45400 0.25809 0.47960 -0.20200
H 	H 	0.46810 0.26350 0.43660 0.10700
C 	C 	0.40980 0.24295 0.60610 0.12300
H 	H 	0.39500 0.23840 0.64910 0.00500
C 	C 	0.98330 0.21828 0.48470 0.05400
H 	H 	0.97910 0.19340 0.47440 0.02600
C 	C 	0.40250 0.23490 0.48350 0.12600
H 	H 	0.38310 0.22470 0.44340 -0.00500
C 	C 	0.92910 0.23930 0.49500 -0.14100
H 	H 	0.88990 0.22790 0.49440 0.08000
C 	C 	0.48460 0.27315 0.53750 0.14400
C 	C 	0.64960 0.34031 0.52950 0.15500
C 	C 	0.22400 0.18666 0.22290 0.04400
C 	C 	0.25840 0.20362 0.33760 0.08500
H 	H 	0.28800 0.21530 0.36800 -0.00500
C 	C 	0.26610 0.20506 0.26840 -0.13500
H 	H 	0.29930 0.21830 0.25210 0.08600
C 	C 	0.87060 0.33511 0.49090 0.02800
H 	H 	0.90460 0.34640 0.47190 0.02100
C 	C 	0.75980 0.44152 0.63490 0.11000
H 	H 	0.79170 0.44780 0.66830 -0.01200
C 	C 	0.76500 0.33918 0.52750 0.14500
C 	C 	0.71580 0.50485 0.64210 0.26600
C 	C 	0.58270 0.29213 0.48390 0.05000
H 	H 	0.57430 0.27380 0.45110 0.01600
C 	C 	0.87710 0.29888 0.51310 -0.06800
C 	C 	0.55180 0.32614 0.57720 0.05300
H 	H 	0.52250 0.33180 0.60870 0.00800
C 	C 	0.71240 0.39568 0.55750 0.18600
C 	C 	0.63690 0.31288 0.48130 -0.17200
H 	H 	0.66460 0.30840 0.44740 0.09400
C 	C 	0.71590 0.46694 0.61320 -0.16700
C 	C 	0.71750 0.57407 0.70260 -0.31900
C 	C 	0.75770 0.40591 0.60740 -0.22000
H 	H 	0.78790 0.38890 0.62360 0.11100
C 	C 	0.71940 0.61180 0.73470 0.48700
C 	C 	0.81480 0.35527 0.49590 -0.15700
H 	H 	0.81110 0.37900 0.47840 0.09000
C 	C 	0.60700 0.34811 0.57680 -0.17600
H 	H 	0.61410 0.36730 0.60790 0.09400
C 	C 	0.77100 0.30386 0.55200 -0.16700
H 	H 	0.73800 0.29330 0.57400 0.09200
C 	C 	0.66810 0.42174 0.53420 -0.21600
H 	H 	0.63680 0.41550 0.50000 0.10900
C 	C 	0.82500 0.28403 0.54470 0.03200
H 	H 	0.82740 0.26000 0.56090 0.01700
C 	C 	0.66990 0.45656 0.56070 0.10700
H 	H 	0.64020 0.47370 0.54370 -0.01400
C 	C 	0.67790 0.53087 0.62070 -0.34700
H 	H 	0.64860 0.52600 0.58370 0.15000
C 	C 	0.67830 0.56557 0.64990 0.27000
H 	H 	0.65010 0.58320 0.63150 -0.04800
C 	C 	0.76120 0.51470 0.69400 -0.31300
H 	H 	0.79240 0.49800 0.70910 0.14100
N 	N 	0.28520 0.18729 0.12370 -0.24700
H 	H 	0.31830 0.18720 0.15220 0.13300
N 	N 	0.30715 0.18896 0.91151 -0.28600
N 	N 	0.21022 0.18612 0.36321 -0.24900
N 	N 	0.70859 0.35972 0.53080 -0.18800
O 	O 	0.09209 0.17962 0.45544 -0.34900
O 	O 	0.15239 0.22491 0.49492 -0.42700
O 	O 	0.16970 0.18412 0.10650 -0.18900
O 	O 	0.31352 0.19172 0.60925 -0.53000
O 	O 	0.29187 0.19528 0.49628 -0.50200
O 	O 	0.75731 0.61660 0.78648 -0.50800
O 	O 	0.68073 0.63398 0.70940 -0.53300
Zn	Zn	0.20285 0.18027 0.46871 1.22100
Zn	Zn	0.25375 0.15330 0.63754 1.21400
C 	C 	0.70310 0.29031 0.82320 0.05400
H 	H 	0.70390 0.26820 0.84730 0.01000
C 	C 	0.03000 0.27518 0.74800 0.12700
C 	C 	0.13390 0.23035 0.73750 -0.17200
C 	C 	0.06080 0.25897 0.80610 -0.18100
H 	H 	0.04560 0.26300 0.84920 0.10100
C 	C 	0.42180 0.21375 0.80010 0.31700
C 	C 	0.10220 0.24486 0.67940 0.11400
H 	H 	0.11500 0.23890 0.63600 0.01800
C 	C 	0.19160 0.20561 0.73120 0.44800
C 	C 	0.47870 0.23629 0.79460 -0.13000
C 	C 	0.11300 0.23719 0.80150 0.10900
H 	H 	0.13400 0.22720 0.84100 0.00600
C 	C 	0.47520 0.27426 0.78390 0.05400
H 	H 	0.43580 0.28550 0.77830 0.01900
C 	C 	0.05220 0.26786 0.68440 -0.18100
H 	H 	0.03290 0.27870 0.64480 0.10400
C 	C 	0.97520 0.29966 0.75510 -0.07300
C 	C 	0.64840 0.30151 0.78970 -0.08600
C 	C 	0.52980 0.29558 0.78150 -0.15000
H 	H 	0.52670 0.32070 0.77350 0.08000
C 	C 	0.87160 0.34310 0.77490 0.13500
C 	C 	0.81730 0.39937 0.81660 0.15500
C 	C 	0.58940 0.27874 0.79110 0.10200
C 	C 	0.64790 0.33315 0.75460 0.05600
H 	H 	0.61050 0.34110 0.73110 0.00700
C 	C 	0.84400 0.57032 0.90020 0.11600
H 	H 	0.85780 0.59020 0.87530 0.00300
C 	C 	0.81800 0.57736 0.96000 -0.20100
C 	C 	0.86860 0.45745 0.83280 0.04500
H 	H 	0.90130 0.47320 0.82360 0.01400
C 	C 	0.92520 0.30064 0.70780 0.03500
H 	H 	0.92630 0.28630 0.66830 0.02100
C 	C 	0.97440 0.32219 0.81370 0.02500
H 	H 	0.00910 0.32260 0.84600 0.03500
C 	C 	0.75650 0.34249 0.78440 0.16000
C 	C 	0.70250 0.35448 0.75260 -0.18800
H 	H 	0.70110 0.37680 0.72930 0.10000
C 	C 	0.92200 0.34388 0.82350 -0.15400
H 	H 	0.92120 0.35870 0.86240 0.09100
C 	C 	0.86510 0.42332 0.80190 -0.17200
H 	H 	0.89460 0.41650 0.77130 0.09400
C 	C 	0.85150 0.53605 0.87400 -0.18300
H 	H 	0.87340 0.53240 0.83490 0.09700
C 	C 	0.53850 0.22072 0.80150 0.06500
H 	H 	0.54180 0.19540 0.80780 0.02200
C 	C 	0.87190 0.32219 0.71530 -0.15500
H 	H 	0.83810 0.32250 0.68190 0.09000
C 	C 	0.80700 0.61511 0.98390 0.36700
C 	C 	0.59240 0.24068 0.79970 -0.15600
H 	H 	0.63140 0.22900 0.80410 0.08400
C 	C 	0.79790 0.54875 0.99500 0.11600
H 	H 	0.78100 0.55310 0.03700 0.00200
C 	C 	0.82480 0.50612 0.90850 0.12500
C 	C 	0.82420 0.46869 0.87720 -0.08500
C 	C 	0.77680 0.44457 0.88940 0.04900
H 	H 	0.74600 0.45180 0.91820 0.01200
C 	C 	0.80090 0.51213 0.97170 -0.18600
H 	H 	0.78740 0.49270 0.99800 0.09700
C 	C 	0.77330 0.40985 0.86040 -0.17500
H 	H 	0.74110 0.39380 0.87050 0.09500
C 	C 	0.75770 0.31042 0.82280 -0.17700
H 	H 	0.79460 0.30270 0.84770 0.09600
N 	N 	0.81396 0.36425 0.78420 -0.17800
O 	O 	0.36816 0.22720 0.78071 -0.44900
O 	O 	0.22725 0.20162 0.78311 -0.51300
O 	O 	0.42656 0.18184 0.82351 -0.35000
O 	O 	0.19784 0.19160 0.67207 -0.47400
O 	O 	0.79916 0.62168 0.04469 -0.41800
O 	O 	0.80997 0.64196 0.94075 -0.54600
Zn	Zn	0.31476 0.18660 0.80838 1.22500
C 	C 	0.23980 0.04920 0.77680 0.24700
H 	H 	0.20940 0.05510 0.74140 -0.04100
C 	C 	0.74800 0.70810 0.49220 -0.25600
H 	H 	0.78140 0.72110 0.47560 0.15300
C 	C 	0.77130 0.68650 0.35060 0.14000
C 	C 	0.73810 0.70756 0.56150 0.15600
H 	H 	0.76530 0.72130 0.59120 -0.02800
C 	C 	0.65610 0.67030 0.47360 -0.26300
H 	H 	0.62630 0.65800 0.44460 0.12400
C 	C 	0.70580 0.68827 0.44810 0.24100
C 	C 	0.65210 0.67116 0.54270 0.15000
H 	H 	0.61880 0.65850 0.56020 -0.02100
C 	C 	0.90140 0.71174 0.01980 0.32100
C 	C 	0.95780 0.73407 0.01020 -0.12700
C 	C 	0.95350 0.77185 0.99940 0.06200
H 	H 	0.91400 0.78310 0.99710 0.03100
C 	C 	0.06620 0.77690 0.99420 0.09900
C 	C 	0.00590 0.79261 0.99220 -0.15100
H 	H 	0.00160 0.81780 0.98590 0.08700
C 	C 	0.62040 0.72678 0.95250 -0.20800
C 	C 	0.67500 0.70291 0.94750 0.46700
C 	C 	0.53870 0.76560 0.89880 -0.19900
H 	H 	0.51930 0.77600 0.85890 0.10300
C 	C 	0.83140 0.66967 0.18040 0.08600
H 	H 	0.86530 0.65760 0.16290 0.00200
C 	C 	0.82680 0.66967 0.25020 -0.12300
H 	H 	0.85770 0.65830 0.27930 0.09000
C 	C 	0.46010 0.79786 0.96550 -0.09200
C 	C 	0.54600 0.75809 0.02040 -0.20400
H 	H 	0.53190 0.76350 0.06340 0.10800
C 	C 	0.59020 0.74295 0.89390 0.12400
H 	H 	0.60500 0.73840 0.85090 0.00500
C 	C 	0.01670 0.71828 0.01530 0.05700
H 	H 	0.02090 0.69340 0.02560 0.02500
C 	C 	0.59750 0.73490 0.01650 0.12500
H 	H 	0.61690 0.72470 0.05660 -0.00400
C 	C 	0.07090 0.73930 0.00500 -0.14700
H 	H 	0.11010 0.72790 0.00560 0.08100
C 	C 	0.51540 0.77315 0.96250 0.14600
C 	C 	0.35040 0.84031 0.97050 0.15800
C 	C 	0.77600 0.68666 0.27710 0.04400
C 	C 	0.74160 0.70362 0.16240 0.08500
H 	H 	0.71200 0.71530 0.13200 -0.00600
C 	C 	0.73390 0.70506 0.23160 -0.13500
H 	H 	0.70070 0.71830 0.24790 0.08600
C 	C 	0.12940 0.83511 0.00910 0.02700
H 	H 	0.09540 0.84640 0.02810 0.02100
C 	C 	0.24020 0.94152 0.86510 0.10800
H 	H 	0.20830 0.94780 0.83170 -0.01100
C 	C 	0.23500 0.83918 0.97250 0.14800
C 	C 	0.28420 0.00485 0.85790 0.26400
C 	C 	0.41730 0.79213 0.01610 0.04900
H 	H 	0.42570 0.77380 0.04890 0.01600
C 	C 	0.12290 0.79888 0.98690 -0.06800
C 	C 	0.44820 0.82614 0.92280 0.05400
H 	H 	0.47750 0.83180 0.89130 0.00800
C 	C 	0.28760 0.89568 0.94250 0.18400
C 	C 	0.36310 0.81288 0.01870 -0.17400
H 	H 	0.33540 0.80840 0.05260 0.09400
C 	C 	0.28410 0.96694 0.88680 -0.16400
C 	C 	0.28250 0.07407 0.79740 -0.31800
C 	C 	0.24230 0.90591 0.89260 -0.21800
H 	H 	0.21210 0.88890 0.87640 0.11000
C 	C 	0.28060 0.11180 0.76530 0.48700
C 	C 	0.18520 0.85527 0.00410 -0.16000
H 	H 	0.18890 0.87900 0.02160 0.09000
C 	C 	0.39300 0.84811 0.92320 -0.17700
H 	H 	0.38590 0.86730 0.89210 0.09400
C 	C 	0.22900 0.80386 0.94800 -0.16800
H 	H 	0.26200 0.79330 0.92600 0.09300
C 	C 	0.33190 0.92174 0.96580 -0.21000
H 	H 	0.36320 0.91550 -0.00000 0.10600
C 	C 	0.17500 0.78403 0.95530 0.03300
H 	H 	0.17260 0.76000 0.93910 0.01700
C 	C 	0.33010 0.95656 0.93930 0.10300
H 	H 	0.35980 0.97370 0.95630 -0.01200
C 	C 	0.32210 0.03087 0.87930 -0.34600
H 	H 	0.35140 0.02600 0.91630 0.15000
C 	C 	0.32170 0.06557 0.85010 0.26800
H 	H 	0.34990 0.08320 0.86850 -0.04800
C 	C 	0.23880 0.01470 0.80600 -0.31100
H 	H 	0.20760 0.99800 0.79090 0.14100
N 	N 	0.71480 0.68729 0.37630 -0.24700
H 	H 	0.68170 0.68720 0.34780 0.13300
N 	N 	0.69285 0.68896 0.58849 -0.28500
N 	N 	0.78978 0.68612 0.13679 -0.24900
N 	N 	0.29141 0.85972 0.96920 -0.18800
O 	O 	0.90791 0.67962 0.04456 -0.35000
O 	O 	0.84761 0.72491 0.00508 -0.42800
O 	O 	0.83030 0.68412 0.39350 -0.18800
O 	O 	0.68648 0.69172 0.89075 -0.53100
O 	O 	0.70813 0.69528 0.00372 -0.50300
O 	O 	0.24269 0.11660 0.71352 -0.50800
O 	O 	0.31927 0.13398 0.79060 -0.53300
Zn	Zn	0.79715 0.68027 0.03129 1.22100
Zn	Zn	0.74625 0.65330 0.86246 1.21400
C 	C 	0.29690 0.79031 0.67680 0.05400
H 	H 	0.29610 0.76820 0.65270 0.01000
C 	C 	0.97000 0.77518 0.75200 0.12700
C 	C 	0.86610 0.73035 0.76250 -0.17200
C 	C 	0.93920 0.75897 0.69390 -0.18000
H 	H 	0.95440 0.76300 0.65080 0.10000
C 	C 	0.57820 0.71375 0.69990 0.31800
C 	C 	0.89780 0.74486 0.82060 0.11400
H 	H 	0.88500 0.73890 0.86400 0.01800
C 	C 	0.80840 0.70561 0.76880 0.44800
C 	C 	0.52130 0.73629 0.70540 -0.13000
C 	C 	0.88700 0.73719 0.69850 0.10900
H 	H 	0.86600 0.72720 0.65900 0.00600
C 	C 	0.52480 0.77426 0.71610 0.05400
H 	H 	0.56420 0.78550 0.72170 0.01900
C 	C 	0.94780 0.76786 0.81560 -0.18000
H 	H 	0.96710 0.77870 0.85520 0.10400
C 	C 	0.02480 0.79966 0.74490 -0.07200
C 	C 	0.35160 0.80151 0.71030 -0.08600
C 	C 	0.47020 0.79558 0.71850 -0.15000
H 	H 	0.47330 0.82070 0.72650 0.08000
C 	C 	0.12840 0.84310 0.72510 0.13500
C 	C 	0.18270 0.89937 0.68340 0.15500
C 	C 	0.41060 0.77874 0.70890 0.10200
C 	C 	0.35210 0.83315 0.74540 0.05600
H 	H 	0.38950 0.84110 0.76890 0.00700
C 	C 	0.15600 0.07032 0.59980 0.11200
H 	H 	0.14220 0.09020 0.62470 0.00500
C 	C 	0.18200 0.07736 0.54000 -0.19700
C 	C 	0.13140 0.95745 0.66720 0.04400
H 	H 	0.09870 0.97320 0.67640 0.01400
C 	C 	0.07480 0.80064 0.79220 0.03500
H 	H 	0.07370 0.78630 0.83170 0.02100
C 	C 	0.02560 0.82219 0.68630 0.02600
H 	H 	0.99090 0.82260 0.65400 0.03400
C 	C 	0.24350 0.84249 0.71560 0.16000
C 	C 	0.29750 0.85448 0.74740 -0.18800
H 	H 	0.29890 0.87680 0.77070 0.10000
C 	C 	0.07800 0.84388 0.67650 -0.15400
H 	H 	0.07880 0.85870 0.63760 0.09100
C 	C 	0.13490 0.92332 0.69810 -0.17200
H 	H 	0.10540 0.91650 0.72870 0.09400
C 	C 	0.14850 0.03605 0.62600 -0.18000
H 	H 	0.12660 0.03240 0.66510 0.09600
C 	C 	0.46150 0.72072 0.69850 0.06500
H 	H 	0.45820 0.69540 0.69220 0.02200
C 	C 	0.12810 0.82219 0.78470 -0.15500
H 	H 	0.16190 0.82250 0.81810 0.09000
C 	C 	0.19300 0.11511 0.51610 0.36300
C 	C 	0.40760 0.74068 0.70030 -0.15600
H 	H 	0.36860 0.72900 0.69590 0.08400
C 	C 	0.20210 0.04875 0.50500 0.10900
H 	H 	0.21900 0.05310 0.46300 0.00500
C 	C 	0.17520 0.00612 0.59150 0.12200
C 	C 	0.17580 0.96869 0.62280 -0.08400
C 	C 	0.22320 0.94457 0.61060 0.04800
H 	H 	0.25400 0.95180 0.58180 0.01200
C 	C 	0.19910 0.01213 0.52830 -0.18200
H 	H 	0.21260 0.99270 0.50200 0.09500
C 	C 	0.22670 0.90985 0.63960 -0.17500
H 	H 	0.25890 0.89380 0.62950 0.09500
C 	C 	0.24230 0.81042 0.67720 -0.17700
H 	H 	0.20540 0.80270 0.65230 0.09600
N 	N 	0.18604 0.86425 0.71580 -0.17800
O 	O 	0.63184 0.72720 0.71929 -0.44900
O 	O 	0.77275 0.70162 0.71689 -0.51300
O 	O 	0.57344 0.68184 0.67649 -0.35000
O 	O 	0.80216 0.69160 0.82793 -0.47300
O 	O 	0.20084 0.12168 0.45531 -0.41600
O 	O 	0.19003 0.14196 0.55925 -0.54500
Zn	Zn	0.68524 0.68660 0.69162 1.22500
C 	C 	0.23980 0.45080 0.27680 0.24800
H 	H 	0.20940 0.44490 0.24140 -0.04200
C 	C 	0.74800 0.79190 0.99220 -0.25200
H 	H 	0.78140 0.77890 0.97560 0.15100
C 	C 	0.77130 0.81350 0.85060 0.14000
C 	C 	0.73810 0.79244 0.06150 0.15200
H 	H 	0.76530 0.77870 0.09120 -0.02700
C 	C 	0.65610 0.82970 0.97360 -0.25800
H 	H 	0.62630 0.84200 0.94460 0.12300
C 	C 	0.70580 0.81173 0.94810 0.23800
C 	C 	0.65210 0.82884 0.04270 0.14600
H 	H 	0.61880 0.84150 0.06020 -0.02000
C 	C 	0.90140 0.78826 0.51980 0.32000
C 	C 	0.95780 0.76593 0.51020 -0.12300
C 	C 	0.95350 0.72815 0.49940 0.05700
H 	H 	0.91400 0.71690 0.49710 0.03300
C 	C 	0.06620 0.72310 0.49420 0.09500
C 	C 	0.00590 0.70739 0.49220 -0.14700
H 	H 	0.00160 0.68220 0.48590 0.08500
C 	C 	0.62040 0.77322 0.45250 -0.20900
C 	C 	0.67500 0.79709 0.44750 0.46500
C 	C 	0.53870 0.73440 0.39880 -0.19800
H 	H 	0.51930 0.72400 0.35890 0.10300
C 	C 	0.83140 0.83033 0.68040 0.08600
H 	H 	0.86530 0.84240 0.66290 0.00200
C 	C 	0.82680 0.83033 0.75020 -0.12300
H 	H 	0.85770 0.84170 0.77930 0.09000
C 	C 	0.46010 0.70214 0.46550 -0.09300
C 	C 	0.54600 0.74191 0.52040 -0.20200
H 	H 	0.53190 0.73650 0.56340 0.10700
C 	C 	0.59020 0.75705 0.39390 0.12300
H 	H 	0.60500 0.76160 0.35090 0.00500
C 	C 	0.01670 0.78172 0.51530 0.05400
H 	H 	0.02090 0.80660 0.52560 0.02600
C 	C 	0.59750 0.76510 0.51650 0.12600
H 	H 	0.61690 0.77530 0.55660 -0.00500
C 	C 	0.07090 0.76070 0.50500 -0.14100
H 	H 	0.11010 0.77210 0.50560 0.08000
C 	C 	0.51540 0.72685 0.46250 0.14400
C 	C 	0.35040 0.65969 0.47050 0.15500
C 	C 	0.77600 0.81334 0.77710 0.04400
C 	C 	0.74160 0.79638 0.66240 0.08500
H 	H 	0.71200 0.78470 0.63200 -0.00600
C 	C 	0.73390 0.79494 0.73160 -0.13500
H 	H 	0.70070 0.78170 0.74790 0.08600
C 	C 	0.12940 0.66489 0.50910 0.02800
H 	H 	0.09540 0.65360 0.52810 0.02100
C 	C 	0.24020 0.55848 0.36510 0.11000
H 	H 	0.20830 0.55220 0.33170 -0.01200
C 	C 	0.23500 0.66082 0.47250 0.14500
C 	C 	0.28420 0.49515 0.35790 0.26600
C 	C 	0.41730 0.70787 0.51610 0.05000
H 	H 	0.42570 0.72620 0.54890 0.01600
C 	C 	0.12290 0.70112 0.48690 -0.06800
C 	C 	0.44820 0.67386 0.42280 0.05300
H 	H 	0.47750 0.66820 0.39130 0.00800
C 	C 	0.28760 0.60432 0.44250 0.18600
C 	C 	0.36310 0.68712 0.51870 -0.17200
H 	H 	0.33540 0.69160 0.55260 0.09400
C 	C 	0.28410 0.53306 0.38680 -0.16700
C 	C 	0.28250 0.42593 0.29740 -0.31900
C 	C 	0.24230 0.59409 0.39260 -0.22000
H 	H 	0.21210 0.61110 0.37640 0.11100
C 	C 	0.28060 0.38820 0.26530 0.48700
C 	C 	0.18520 0.64473 0.50410 -0.15700
H 	H 	0.18890 0.62100 0.52160 0.09000
C 	C 	0.39300 0.65189 0.42320 -0.17600
H 	H 	0.38590 0.63270 0.39210 0.09400
C 	C 	0.22900 0.69614 0.44800 -0.16700
H 	H 	0.26200 0.70670 0.42600 0.09200
C 	C 	0.33190 0.57826 0.46580 -0.21700
H 	H 	0.36320 0.58450 0.50000 0.10900
C 	C 	0.17500 0.71597 0.45530 0.03200
H 	H 	0.17260 0.74000 0.43910 0.01700
C 	C 	0.33010 0.54344 0.43930 0.10700
H 	H 	0.35980 0.52630 0.45630 -0.01400
C 	C 	0.32210 0.46913 0.37930 -0.34800
H 	H 	0.35140 0.47400 0.41630 0.15000
C 	C 	0.32170 0.43443 0.35010 0.27000
H 	H 	0.34990 0.41680 0.36850 -0.04900
C 	C 	0.23880 0.48530 0.30600 -0.31300
H 	H 	0.20760 0.50200 0.29090 0.14100
N 	N 	0.71480 0.81271 0.87630 -0.24600
H 	H 	0.68170 0.81280 0.84780 0.13300
N 	N 	0.69285 0.81104 0.08849 -0.28300
N 	N 	0.78978 0.81388 0.63679 -0.24900
N 	N 	0.29141 0.64028 0.46920 -0.18800
O 	O 	0.90791 0.82038 0.54456 -0.34900
O 	O 	0.84761 0.77509 0.50508 -0.42700
O 	O 	0.83030 0.81588 0.89350 -0.18800
O 	O 	0.68648 0.80828 0.39075 -0.53000
O 	O 	0.70813 0.80472 0.50372 -0.50200
O 	O 	0.24269 0.38340 0.21352 -0.50800
O 	O 	0.31927 0.36602 0.29060 -0.53300
Zn	Zn	0.79715 0.81973 0.53129 1.22100
Zn	Zn	0.74625 0.84670 0.36246 1.21400
C 	C 	0.29690 0.70969 0.17680 0.05400
H 	H 	0.29610 0.73180 0.15270 0.01000
C 	C 	0.97000 0.72482 0.25200 0.12700
C 	C 	0.86610 0.76965 0.26250 -0.17200
C 	C 	0.93920 0.74103 0.19390 -0.18100
H 	H 	0.95440 0.73700 0.15080 0.10000
C 	C 	0.57820 0.78625 0.19990 0.31800
C 	C 	0.89780 0.75514 0.32060 0.11400
H 	H 	0.88500 0.76110 0.36400 0.01800
C 	C 	0.80840 0.79439 0.26880 0.44800
C 	C 	0.52130 0.76371 0.20540 -0.13000
C 	C 	0.88700 0.76281 0.19850 0.10900
H 	H 	0.86600 0.77280 0.15900 0.00600
C 	C 	0.52480 0.72574 0.21610 0.05400
H 	H 	0.56420 0.71450 0.22170 0.01900
C 	C 	0.94780 0.73214 0.31560 -0.18100
H 	H 	0.96710 0.72130 0.35520 0.10400
C 	C 	0.02480 0.70034 0.24490 -0.07300
C 	C 	0.35160 0.69849 0.21030 -0.08600
C 	C 	0.47020 0.70442 0.21850 -0.15000
H 	H 	0.47330 0.67930 0.22650 0.08000
C 	C 	0.12840 0.65690 0.22510 0.13500
C 	C 	0.18270 0.60063 0.18340 0.15400
C 	C 	0.41060 0.72126 0.20890 0.10200
C 	C 	0.35210 0.66685 0.24540 0.05600
H 	H 	0.38950 0.65890 0.26890 0.00700
C 	C 	0.15600 0.42968 0.09980 0.10800
H 	H 	0.14220 0.40980 0.12470 0.00600
C 	C 	0.18200 0.42264 0.04000 -0.19100
C 	C 	0.13140 0.54255 0.16720 0.04300
H 	H 	0.09870 0.52680 0.17640 0.01400
C 	C 	0.07480 0.69936 0.29220 0.03500
H 	H 	0.07370 0.71370 0.33170 0.02100
C 	C 	0.02560 0.67781 0.18630 0.02500
H 	H 	0.99090 0.67740 0.15400 0.03500
C 	C 	0.24350 0.65751 0.21560 0.16000
C 	C 	0.29750 0.64552 0.24740 -0.18800
H 	H 	0.29890 0.62320 0.27070 0.10000
C 	C 	0.07800 0.65612 0.17650 -0.15400
H 	H 	0.07880 0.64130 0.13760 0.09100
C 	C 	0.13490 0.57668 0.19810 -0.17100
H 	H 	0.10540 0.58350 0.22870 0.09400
C 	C 	0.14850 0.46395 0.12600 -0.17600
H 	H 	0.12660 0.46760 0.16510 0.09500
C 	C 	0.46150 0.77928 0.19850 0.06500
H 	H 	0.45820 0.80460 0.19220 0.02100
C 	C 	0.12810 0.67781 0.28470 -0.15500
H 	H 	0.16190 0.67750 0.31810 0.09000
C 	C 	0.19300 0.38489 0.01610 0.35900
C 	C 	0.40760 0.75932 0.20030 -0.15600
H 	H 	0.36860 0.77100 0.19590 0.08400
C 	C 	0.20210 0.45125 0.00500 0.10000
H 	H 	0.21900 0.44690 0.96300 0.00900
C 	C 	0.17520 0.49388 0.09150 0.11800
C 	C 	0.17580 0.53131 0.12280 -0.08200
C 	C 	0.22320 0.55543 0.11060 0.04700
H 	H 	0.25400 0.54820 0.08180 0.01200
C 	C 	0.19910 0.48787 0.02830 -0.17700
H 	H 	0.21260 0.50730 0.00200 0.09200
C 	C 	0.22670 0.59015 0.13960 -0.17400
H 	H 	0.25890 0.60620 0.12950 0.09500
C 	C 	0.24230 0.68958 0.17720 -0.17700
H 	H 	0.20540 0.69730 0.15230 0.09600
N 	N 	0.18604 0.63575 0.21580 -0.17700
O 	O 	0.63184 0.77280 0.21929 -0.44900
O 	O 	0.77275 0.79838 0.21689 -0.51300
O 	O 	0.57344 0.81816 0.17649 -0.35000
O 	O 	0.80216 0.80840 0.32793 -0.47400
O 	O 	0.20084 0.37832 0.95531 -0.41400
O 	O 	0.19003 0.35804 0.05925 -0.54500
Zn	Zn	0.68524 0.81340 0.19162 1.22500
C 	C 	0.76020 0.95080 0.22320 0.24800
H 	H 	0.79060 0.94490 0.25860 -0.04200
C 	C 	0.25200 0.29190 0.50780 -0.25600
H 	H 	0.21860 0.27890 0.52440 0.15300
C 	C 	0.22870 0.31350 0.64940 0.14000
C 	C 	0.26190 0.29244 0.43850 0.15600
H 	H 	0.23470 0.27870 0.40880 -0.02800
C 	C 	0.34390 0.32970 0.52640 -0.26300
H 	H 	0.37370 0.34200 0.55540 0.12400
C 	C 	0.29420 0.31173 0.55190 0.24100
C 	C 	0.34790 0.32884 0.45730 0.15000
H 	H 	0.38120 0.34150 0.43980 -0.02100
C 	C 	0.09860 0.28826 0.98020 0.31700
C 	C 	0.04220 0.26593 0.98980 -0.11600
C 	C 	0.04650 0.22815 0.00060 0.04900
H 	H 	0.08600 0.21690 0.00290 0.03500
C 	C 	0.93380 0.22310 0.00580 0.08900
C 	C 	0.99410 0.20739 0.00780 -0.14100
H 	H 	0.99840 0.18220 0.01410 0.08300
C 	C 	0.37960 0.27322 0.04750 -0.21000
C 	C 	0.32500 0.29709 0.05250 0.46300
C 	C 	0.46130 0.23440 0.10120 -0.19800
H 	H 	0.48070 0.22400 0.14110 0.10300
C 	C 	0.16860 0.33033 0.81960 0.08600
H 	H 	0.13470 0.34240 0.83710 0.00200
C 	C 	0.17320 0.33033 0.74980 -0.12300
H 	H 	0.14230 0.34170 0.72070 0.09000
C 	C 	0.53990 0.20214 0.03450 -0.09400
C 	C 	0.45400 0.24191 0.97960 -0.20000
H 	H 	0.46810 0.23650 0.93660 0.10700
C 	C 	0.40980 0.25705 0.10610 0.12300
H 	H 	0.39500 0.26160 0.14910 0.00500
C 	C 	0.98330 0.28172 0.98470 0.04700
H 	H 	0.97910 0.30660 0.97440 0.02800
C 	C 	0.40250 0.26510 0.98350 0.12700
H 	H 	0.38310 0.27530 0.94340 -0.00500
C 	C 	0.92910 0.26070 0.99500 -0.13400
H 	H 	0.88990 0.27210 0.99440 0.07800
C 	C 	0.48460 0.22685 0.03750 0.14200
C 	C 	0.64960 0.15969 0.02950 0.15300
C 	C 	0.22400 0.31334 0.72290 0.04400
C 	C 	0.25840 0.29638 0.83760 0.08500
H 	H 	0.28800 0.28470 0.86800 -0.00500
C 	C 	0.26610 0.29494 0.76840 -0.13500
H 	H 	0.29930 0.28170 0.75210 0.08600
C 	C 	0.87060 0.16489 0.99090 0.02700
H 	H 	0.90460 0.15360 0.97190 0.02200
C 	C 	0.75980 0.05848 0.13490 0.11000
H 	H 	0.79170 0.05220 0.16830 -0.01200
C 	C 	0.76500 0.16082 0.02750 0.14200
C 	C 	0.71580 0.99515 0.14210 0.26600
C 	C 	0.58270 0.20787 0.98390 0.05100
H 	H 	0.57430 0.22620 0.95110 0.01600
C 	C 	0.87710 0.20112 0.01310 -0.06600
C 	C 	0.55180 0.17386 0.07720 0.05300
H 	H 	0.52250 0.16820 0.10870 0.00800
C 	C 	0.71240 0.10432 0.05750 0.18600
C 	C 	0.63690 0.18712 0.98130 -0.16900
H 	H 	0.66460 0.19160 0.94740 0.09400
C 	C 	0.71590 0.03306 0.11320 -0.16700
C 	C 	0.71750 0.92593 0.20260 -0.31900
C 	C 	0.75770 0.09409 0.10740 -0.22000
H 	H 	0.78790 0.11110 0.12360 0.11100
C 	C 	0.71940 0.88820 0.23470 0.48700
C 	C 	0.81480 0.14473 0.99590 -0.15400
H 	H 	0.81110 0.12100 0.97840 0.08900
C 	C 	0.60700 0.15189 0.07680 -0.17500
H 	H 	0.61410 0.13270 0.10790 0.09400
C 	C 	0.77100 0.19614 0.05200 -0.16500
H 	H 	0.73800 0.20670 0.07400 0.09100
C 	C 	0.66810 0.07826 0.03420 -0.21600
H 	H 	0.63680 0.08450 -0.00000 0.10900
C 	C 	0.82500 0.21597 0.04470 0.02900
H 	H 	0.82740 0.24000 0.06090 0.01800
C 	C 	0.66990 0.04344 0.06070 0.10600
H 	H 	0.64020 0.02630 0.04370 -0.01400
C 	C 	0.67790 0.96913 0.12070 -0.34700
H 	H 	0.64860 0.97400 0.08370 0.15000
C 	C 	0.67830 0.93443 0.14990 0.27000
H 	H 	0.65010 0.91680 0.13150 -0.04900
C 	C 	0.76120 0.98530 0.19400 -0.31300
H 	H 	0.79240 0.00200 0.20910 0.14100
N 	N 	0.28520 0.31271 0.62370 -0.24700
H 	H 	0.31830 0.31280 0.65220 0.13300
N 	N 	0.30715 0.31104 0.41151 -0.28500
N 	N 	0.21022 0.31388 0.86321 -0.24900
N 	N 	0.70859 0.14028 0.03080 -0.18700
O 	O 	0.09209 0.32038 0.95544 -0.34800
O 	O 	0.15239 0.27509 0.99492 -0.42500
O 	O 	0.16970 0.31588 0.60650 -0.18800
O 	O 	0.31352 0.30828 0.10925 -0.53000
O 	O 	0.29187 0.30472 0.99628 -0.50000
O 	O 	0.75731 0.88340 0.28648 -0.50800
O 	O 	0.68073 0.86602 0.20940 -0.53300
Zn	Zn	0.20285 0.31973 0.96871 1.22100
Zn	Zn	0.25375 0.34670 0.13754 1.21400
C 	C 	0.70310 0.20969 0.32320 0.05400
H 	H 	0.70390 0.23180 0.34730 0.01000
C 	C 	0.03000 0.22482 0.24800 0.12700
C 	C 	0.13390 0.26965 0.23750 -0.17200
C 	C 	0.06080 0.24103 0.30610 -0.18100
H 	H 	0.04560 0.23700 0.34920 0.10000
C 	C 	0.42180 0.28625 0.30010 0.31800
C 	C 	0.10220 0.25514 0.17940 0.11500
H 	H 	0.11500 0.26110 0.13600 0.01800
C 	C 	0.19160 0.29439 0.23120 0.44800
C 	C 	0.47870 0.26371 0.29460 -0.13000
C 	C 	0.11300 0.26281 0.30150 0.10900
H 	H 	0.13400 0.27280 0.34100 0.00600
C 	C 	0.47520 0.22574 0.28390 0.05400
H 	H 	0.43580 0.21450 0.27830 0.01900
C 	C 	0.05220 0.23214 0.18440 -0.18100
H 	H 	0.03290 0.22130 0.14480 0.10400
C 	C 	0.97520 0.20034 0.25510 -0.07300
C 	C 	0.64840 0.19849 0.28970 -0.08600
C 	C 	0.52980 0.20442 0.28150 -0.15000
H 	H 	0.52670 0.17930 0.27350 0.08000
C 	C 	0.87160 0.15690 0.27490 0.13500
C 	C 	0.81730 0.10063 0.31660 0.15400
C 	C 	0.58940 0.22126 0.29110 0.10200
C 	C 	0.64790 0.16685 0.25460 0.05600
H 	H 	0.61050 0.15890 0.23110 0.00700
C 	C 	0.84400 0.92968 0.40020 0.11200
H 	H 	0.85780 0.90980 0.37530 0.00400
C 	C 	0.81800 0.92264 0.46000 -0.19700
C 	C 	0.86860 0.04255 0.33280 0.04400
H 	H 	0.90130 0.02680 0.32360 0.01400
C 	C 	0.92520 0.19936 0.20780 0.03500
H 	H 	0.92630 0.21370 0.16830 0.02100
C 	C 	0.97440 0.17781 0.31370 0.02600
H 	H 	0.00910 0.17740 0.34600 0.03400
C 	C 	0.75650 0.15751 0.28440 0.16000
C 	C 	0.70250 0.14552 0.25260 -0.18800
H 	H 	0.70110 0.12320 0.22930 0.10000
C 	C 	0.92200 0.15612 0.32350 -0.15400
H 	H 	0.92120 0.14130 0.36240 0.09100
C 	C 	0.86510 0.07668 0.30190 -0.17100
H 	H 	0.89460 0.08350 0.27130 0.09400
C 	C 	0.85150 0.96395 0.37400 -0.18000
H 	H 	0.87340 0.96760 0.33490 0.09600
C 	C 	0.53850 0.27928 0.30150 0.06500
H 	H 	0.54180 0.30460 0.30780 0.02100
C 	C 	0.87190 0.17781 0.21530 -0.15500
H 	H 	0.83810 0.17750 0.18190 0.09000
C 	C 	0.80700 0.88489 0.48390 0.36300
C 	C 	0.59240 0.25932 0.29970 -0.15600
H 	H 	0.63140 0.27100 0.30410 0.08400
C 	C 	0.79790 0.95125 0.49500 0.10900
H 	H 	0.78100 0.94690 0.53700 0.00500
C 	C 	0.82480 0.99388 0.40850 0.12200
C 	C 	0.82420 0.03131 0.37720 -0.08300
C 	C 	0.77680 0.05543 0.38940 0.04800
H 	H 	0.74600 0.04820 0.41820 0.01200
C 	C 	0.80090 0.98787 0.47170 -0.18200
H 	H 	0.78740 0.00730 0.49800 0.09500
C 	C 	0.77330 0.09015 0.36040 -0.17500
H 	H 	0.74110 0.10620 0.37050 0.09500
C 	C 	0.75770 0.18958 0.32280 -0.17700
H 	H 	0.79460 0.19730 0.34770 0.09600
N 	N 	0.81396 0.13575 0.28420 -0.17800
O 	O 	0.36816 0.27280 0.28071 -0.44900
O 	O 	0.22725 0.29838 0.28311 -0.51300
O 	O 	0.42656 0.31816 0.32351 -0.35000
O 	O 	0.19784 0.30840 0.17207 -0.47400
O 	O 	0.79916 0.87832 0.54469 -0.41600
O 	O 	0.80997 0.85804 0.44075 -0.54500
Zn	Zn	0.31476 0.31340 0.30838 1.22500
