data_crystal

_cell_length_a 11.37800
_cell_length_b 11.62590
_cell_length_c 19.10600
_cell_angle_alpha 90.00000
_cell_angle_beta  90.00000
_cell_angle_gamma 115.75300

_symmetry_space_group_name_	'P 1'
_symmetry_space_group_name_H-M	'P 1'

loop_
_symmetry_equiv_pos_as_xyz
  x,y,z

loop_
_atom_site_label
_atom_site_type_symbol
_atom_site_fract_x
_atom_site_fract_y
_atom_site_fract_z
_atom_site_charge
Ni	Ni	0.17403 0.82933 0.00515 1.07200
Ni	Ni	0.32597 0.67067 0.50515 1.08500
Ni	Ni	0.82597 0.17067 0.99485 1.09300
Ni	Ni	0.67403 0.32933 0.49485 1.08700
Ni	Ni	0.00000 0.50000 -0.00000 1.11000
Ni	Ni	0.50000 0.00000 0.50000 1.13300
H 	H 	0.16420 0.01520 0.06500 0.07100
H 	H 	0.29210 0.51520 0.94740 0.05000
H 	H 	0.49140 0.72920 0.11090 0.03000
H 	H 	0.37120 0.36810 0.89010 0.06100
H 	H 	0.20750 0.51320 0.81590 0.03800
H 	H 	0.34340 0.51340 0.72810 0.06600
H 	H 	0.42540 0.39110 0.64770 0.04800
H 	H 	0.25440 0.00940 0.65350 0.03500
H 	H 	0.12300 0.01000 0.74410 0.04700
H 	H 	0.05170 0.13300 0.82720 0.03600
H 	H 	0.36720 0.17500 0.06510 0.14300
H 	H 	0.36690 0.04800 0.09290 0.12600
H 	H 	0.41260 0.09370 0.01620 0.11200
H 	H 	0.20580 0.17260 0.98730 0.14900
H 	H 	0.24050 0.09420 0.93100 0.11800
H 	H 	0.09700 0.04390 0.95870 0.11800
H 	H 	0.33580 0.48480 0.56500 0.08300
H 	H 	0.20790 0.98480 0.44740 0.04500
H 	H 	0.00860 0.77080 0.61090 0.02900
H 	H 	0.12880 0.13190 0.39010 0.05200
H 	H 	0.29250 0.98680 0.31590 0.06100
H 	H 	0.15660 0.98660 0.22810 0.08100
H 	H 	0.07460 0.10890 0.14770 0.03200
H 	H 	0.24560 0.49060 0.15350 0.04300
H 	H 	0.37700 0.49000 0.24410 0.05900
H 	H 	0.44830 0.36700 0.32720 0.04800
H 	H 	0.13280 0.32500 0.56510 0.14600
H 	H 	0.13310 0.45200 0.59290 0.13200
H 	H 	0.08740 0.40630 0.51620 0.12000
H 	H 	0.29420 0.32740 0.48730 0.15500
H 	H 	0.25950 0.40580 0.43100 0.13100
H 	H 	0.40300 0.45610 0.45870 0.14300
H 	H 	0.83580 0.98480 0.93500 0.09300
H 	H 	0.70790 0.48480 0.05260 0.07500
H 	H 	0.50860 0.27080 0.88910 0.04000
H 	H 	0.62880 0.63190 0.10990 0.06700
H 	H 	0.79250 0.48680 0.18410 0.03600
H 	H 	0.65660 0.48660 0.27190 0.06700
H 	H 	0.57460 0.60890 0.35230 0.04800
H 	H 	0.74560 0.99060 0.34650 0.05100
H 	H 	0.87700 0.99000 0.25590 0.07500
H 	H 	0.94830 0.86700 0.17280 0.06000
H 	H 	0.63280 0.82500 0.93490 0.18000
H 	H 	0.63310 0.95200 0.90710 0.16500
H 	H 	0.58740 0.90630 0.98380 0.16900
H 	H 	0.79420 0.82740 0.01270 0.17400
H 	H 	0.75950 0.90580 0.06900 0.15800
H 	H 	0.90300 0.95610 0.04130 0.17500
H 	H 	0.66420 0.51520 0.43500 0.08200
H 	H 	0.79210 0.01520 0.55260 0.08000
H 	H 	0.99140 0.22920 0.38910 0.04200
H 	H 	0.87120 0.86810 0.60990 0.07700
H 	H 	0.70750 0.01320 0.68410 0.00900
H 	H 	0.84340 0.01340 0.77190 0.04300
H 	H 	0.92540 0.89110 0.85230 0.06400
H 	H 	0.75440 0.50940 0.84650 0.04400
H 	H 	0.62300 0.51000 0.75590 0.06200
H 	H 	0.55170 0.63300 0.67280 0.04700
H 	H 	0.86720 0.67500 0.43490 0.17500
H 	H 	0.86690 0.54800 0.40710 0.15600
H 	H 	0.91260 0.59370 0.48380 0.15500
H 	H 	0.70580 0.67260 0.51270 0.16400
H 	H 	0.74050 0.59420 0.56900 0.14400
H 	H 	0.59700 0.54390 0.54130 0.14900
C 	C 	0.29180 0.69860 0.02870 0.27000
C 	C 	0.37650 0.62910 0.02900 -0.11700
C 	C 	0.36060 0.53950 0.97920 0.00400
C 	C 	0.44950 0.48330 0.97610 0.04000
C 	C 	0.48000 0.66640 0.07790 0.01100
C 	C 	0.43690 0.39020 0.92360 -0.08200
C 	C 	0.02890 0.32320 0.89010 0.34000
C 	C 	0.11590 0.32140 0.83060 -0.08500
C 	C 	0.20410 0.43620 0.80000 0.01000
C 	C 	0.28460 0.43620 0.74730 -0.09900
C 	C 	0.36300 0.31530 0.66640 -0.04200
C 	C 	0.35230 0.20030 0.64100 -0.08800
C 	C 	0.26150 0.08700 0.67080 0.00900
C 	C 	0.18210 0.08690 0.72490 -0.09400
C 	C 	0.19030 0.20410 0.75160 0.01400
C 	C 	0.28000 0.31980 0.72110 0.02100
C 	C 	0.11010 0.20890 0.80670 -0.04300
C 	C 	0.44300 0.19490 0.58410 0.37500
C 	C 	0.35290 0.08990 0.05260 -0.38000
C 	C 	0.18760 0.08830 0.97120 -0.33600
C 	C 	0.20820 0.80140 0.52870 0.31900
C 	C 	0.12350 0.87090 0.52900 -0.10300
C 	C 	0.13940 0.96050 0.47920 0.02500
C 	C 	0.05050 0.01670 0.47610 -0.09600
C 	C 	0.02000 0.83360 0.57790 -0.00200
C 	C 	0.06310 0.10980 0.42360 -0.08700
C 	C 	0.47110 0.17680 0.39010 0.36700
C 	C 	0.38410 0.17860 0.33060 -0.08100
C 	C 	0.29590 0.06380 0.30000 -0.01800
C 	C 	0.21540 0.06380 0.24730 -0.12500
C 	C 	0.13700 0.18470 0.16640 -0.05300
C 	C 	0.14770 0.29970 0.14100 -0.08100
C 	C 	0.23850 0.41300 0.17080 0.00400
C 	C 	0.31790 0.41310 0.22490 -0.09200
C 	C 	0.30970 0.29590 0.25160 0.01600
C 	C 	0.22000 0.18020 0.22110 0.02500
C 	C 	0.38990 0.29110 0.30670 -0.04400
C 	C 	0.05700 0.30510 0.08410 0.32600
C 	C 	0.14710 0.41010 0.55260 -0.38600
C 	C 	0.31240 0.41170 0.47120 -0.39500
C 	C 	0.70820 0.30140 0.97130 0.33200
C 	C 	0.62350 0.37090 0.97100 -0.03200
C 	C 	0.63940 0.46050 0.02080 -0.09900
C 	C 	0.55050 0.51670 0.02390 0.00800
C 	C 	0.52000 0.33360 0.92210 -0.01200
C 	C 	0.56310 0.60980 0.07640 -0.10500
C 	C 	0.97110 0.67680 0.10990 0.41300
C 	C 	0.88410 0.67860 0.16940 -0.09600
C 	C 	0.79590 0.56380 0.20000 0.02200
C 	C 	0.71540 0.56380 0.25270 -0.10200
C 	C 	0.63700 0.68470 0.33360 -0.04200
C 	C 	0.64770 0.79970 0.35900 -0.08200
C 	C 	0.73850 0.91300 0.32920 0.01700
C 	C 	0.81790 0.91310 0.27510 -0.09100
C 	C 	0.80970 0.79590 0.24840 0.02300
C 	C 	0.72000 0.68020 0.27890 0.02400
C 	C 	0.88990 0.79110 0.19330 -0.03500
C 	C 	0.55700 0.80510 0.41590 0.37200
C 	C 	0.64710 0.91010 0.94740 -0.44700
C 	C 	0.81240 0.91170 0.02880 -0.47800
C 	C 	0.79180 0.19860 0.47130 0.29800
C 	C 	0.87650 0.12910 0.47100 -0.04400
C 	C 	0.86060 0.03950 0.52080 -0.12700
C 	C 	0.94950 0.98330 0.52390 0.14500
C 	C 	0.98000 0.16640 0.42210 0.00600
C 	C 	0.93690 0.89020 0.57640 -0.10500
C 	C 	0.52890 0.82320 0.60990 0.37400
C 	C 	0.61590 0.82140 0.66940 -0.09800
C 	C 	0.70410 0.93620 0.70000 0.05000
C 	C 	0.78460 0.93620 0.75270 -0.06500
C 	C 	0.86300 0.81530 0.83360 -0.03200
C 	C 	0.85230 0.70030 0.85900 -0.08400
C 	C 	0.76150 0.58700 0.82920 0.01900
C 	C 	0.68210 0.58690 0.77510 -0.09300
C 	C 	0.69030 0.70410 0.74840 0.02200
C 	C 	0.78000 0.81980 0.77890 0.01700
C 	C 	0.61010 0.70890 0.69330 -0.03600
C 	C 	0.94300 0.69490 0.91590 0.40200
C 	C 	0.85290 0.58990 0.44740 -0.43500
C 	C 	0.68760 0.58830 0.52880 -0.41200
N 	N 	0.21740 0.01770 0.02750 -0.19100
N 	N 	0.28260 0.48230 0.52750 -0.16700
N 	N 	0.78260 0.98230 0.97250 -0.13000
N 	N 	0.71740 0.51770 0.47250 -0.15700
O 	O 	0.32790 0.80380 0.05980 -0.38300
O 	O 	0.18610 0.65620 0.99263 -0.44600
O 	O 	0.05130 0.42950 0.91440 -0.40500
O 	O 	0.94120 0.21530 0.90913 -0.40100
O 	O 	0.42730 0.08610 0.56770 -0.43000
O 	O 	0.52360 0.30080 0.55949 -0.44800
O 	O 	0.17210 0.69620 0.55980 -0.39600
O 	O 	0.31390 0.84380 0.49263 -0.48800
O 	O 	0.44870 0.07050 0.41440 -0.42700
O 	O 	0.55880 0.28470 0.40913 -0.42800
O 	O 	0.07270 0.41390 0.06770 -0.43000
O 	O 	0.97640 0.19920 0.05949 -0.42400
O 	O 	0.67210 0.19620 0.94020 -0.39400
O 	O 	0.81390 0.34380 0.00737 -0.51100
O 	O 	0.94870 0.57050 0.08560 -0.41700
O 	O 	0.05880 0.78470 0.09087 -0.46800
O 	O 	0.57270 0.91390 0.43230 -0.41000
O 	O 	0.47640 0.69920 0.44051 -0.44700
O 	O 	0.82790 0.30380 0.44020 -0.38100
O 	O 	0.68610 0.15620 0.50737 -0.49100
O 	O 	0.55130 0.92950 0.58560 -0.40200
O 	O 	0.44120 0.71530 0.59087 -0.42800
O 	O 	0.92730 0.58610 0.93230 -0.40300
O 	O 	0.02360 0.80080 0.94051 -0.45000
