data_crystal

_cell_length_a 10.13700
_cell_length_b 11.80200
_cell_length_c 13.76800
_cell_angle_alpha 86.89900
_cell_angle_beta  89.52300
_cell_angle_gamma 88.34300

_symmetry_space_group_name_	'P 1'
_symmetry_space_group_name_H-M	'P 1'

loop_
_symmetry_equiv_pos_as_xyz
  x,y,z

loop_
_atom_site_label
_atom_site_type_symbol
_atom_site_fract_x
_atom_site_fract_y
_atom_site_fract_z
_atom_site_charge
Zn	Zn	0.15736 0.51598 0.39554 1.23100
Zn	Zn	0.55467 0.57495 0.37833 1.23100
Zn	Zn	0.62257 0.11009 0.88746 1.21800
P 	P 	0.37500 0.34400 0.42563 0.47700
P 	P 	0.67070 0.33520 0.77006 0.49900
P 	P 	0.84407 0.46155 0.37929 0.48200
O 	O 	0.22940 0.36040 0.40490 -0.44800
O 	O 	0.44430 0.45170 0.39270 -0.54700
O 	O 	0.40090 0.30700 0.53010 -0.43200
O 	O 	0.40790 0.03640 0.17300 -0.44600
O 	O 	0.19310 0.04180 0.17590 -0.32500
O 	O 	0.78210 0.39010 0.71540 -0.44800
O 	O 	0.71590 0.21580 0.81030 -0.43800
O 	O 	0.54480 0.32490 0.71550 -0.45700
O 	O 	0.44050 0.14510 0.91500 -0.49000
O 	O 	0.24320 0.21620 0.94550 -0.30400
O 	O 	0.73010 0.53430 0.33700 -0.43900
O 	O 	0.96790 0.53150 0.37210 -0.44000
O 	O 	0.81820 0.41310 0.48160 -0.47700
O 	O 	0.10330 0.36730 0.02670 -0.54800
H 	H 	0.14620 0.31640 0.00180 0.33900
O 	O 	0.98550 0.22500 0.08470 -0.28400
N 	N 	0.41660 0.24620 0.25280 -0.05700
N 	N 	0.83940 0.36300 0.20320 -0.05300
N 	N 	0.55160 0.35910 0.94530 -0.06900
N 	N 	0.48350 0.29980 0.09820 -0.15900
N 	N 	0.62970 0.30310 0.23100 -0.16300
N 	N 	0.70140 0.36460 0.07100 -0.15700
C 	C 	0.51430 0.28310 0.19300 0.16700
C 	C 	0.58110 0.34210 0.04190 0.13700
C 	C 	0.71910 0.34320 0.16750 0.16700
C 	C 	0.43940 0.22750 0.35760 -0.23300
H 	H 	0.53340 0.21800 0.36910 0.12000
H 	H 	0.39760 0.15810 0.38080 0.12700
C 	C 	0.29410 0.20680 0.21480 -0.29200
H 	H 	0.26940 0.25550 0.15850 0.14000
H 	H 	0.22560 0.21530 0.26370 0.14400
C 	C 	0.29780 0.08530 0.18560 0.41100
C 	C 	0.64050 0.41650 0.87580 -0.28300
H 	H 	0.72370 0.42880 0.90730 0.13700
H 	H 	0.60210 0.49010 0.85540 0.12100
C 	C 	0.41220 0.34860 0.91880 -0.35300
H 	H 	0.40040 0.37750 0.85210 0.14500
H 	H 	0.35810 0.39570 0.95990 0.15800
C 	C 	0.36370 0.22930 0.92840 0.44200
C 	C 	0.86880 0.34030 0.30610 -0.24000
H 	H 	0.95990 0.31360 0.31210 0.11000
H 	H 	0.81340 0.27980 0.33160 0.12600
C 	C 	0.94160 0.41320 0.14000 -0.31600
H 	H 	0.00550 0.44930 0.17930 0.14000
H 	H 	0.90170 0.47100 0.09590 0.17100
C 	C 	0.01120 0.32340 0.08170 0.46100
Zn	Zn	0.84264 0.48402 0.60446 1.23000
Zn	Zn	0.44533 0.42505 0.62167 1.23000
Zn	Zn	0.37743 0.88991 0.11254 1.21700
P 	P 	0.62500 0.65600 0.57437 0.47600
P 	P 	0.32930 0.66480 0.22994 0.49800
P 	P 	0.15593 0.53845 0.62071 0.48100
O 	O 	0.77060 0.63960 0.59510 -0.44800
O 	O 	0.55570 0.54830 0.60730 -0.54700
O 	O 	0.59910 0.69300 0.46990 -0.43200
O 	O 	0.59210 0.96360 0.82700 -0.44600
O 	O 	0.80690 0.95820 0.82410 -0.32500
O 	O 	0.21790 0.60990 0.28460 -0.44800
O 	O 	0.28410 0.78420 0.18970 -0.43800
O 	O 	0.45520 0.67510 0.28450 -0.45700
O 	O 	0.55950 0.85490 0.08500 -0.49000
O 	O 	0.75680 0.78380 0.05450 -0.30400
O 	O 	0.26990 0.46570 0.66300 -0.43900
O 	O 	0.03210 0.46850 0.62790 -0.44000
O 	O 	0.18180 0.58690 0.51840 -0.47700
O 	O 	0.89670 0.63270 0.97330 -0.54800
H 	H 	0.85380 0.68360 0.99820 0.33900
O 	O 	0.01450 0.77500 0.91530 -0.28400
N 	N 	0.58340 0.75380 0.74720 -0.05700
N 	N 	0.16060 0.63700 0.79680 -0.05300
N 	N 	0.44840 0.64090 0.05470 -0.06900
N 	N 	0.51650 0.70020 0.90180 -0.15900
N 	N 	0.37030 0.69690 0.76900 -0.16300
N 	N 	0.29860 0.63540 0.92900 -0.15700
C 	C 	0.48570 0.71690 0.80700 0.16700
C 	C 	0.41890 0.65790 0.95810 0.13700
C 	C 	0.28090 0.65680 0.83250 0.16700
C 	C 	0.56060 0.77250 0.64240 -0.23300
H 	H 	0.46660 0.78200 0.63090 0.12000
H 	H 	0.60240 0.84190 0.61920 0.12700
C 	C 	0.70590 0.79320 0.78520 -0.29200
H 	H 	0.73060 0.74450 0.84150 0.14000
H 	H 	0.77440 0.78470 0.73630 0.14400
C 	C 	0.70220 0.91470 0.81440 0.41100
C 	C 	0.35950 0.58350 0.12420 -0.28300
H 	H 	0.27630 0.57120 0.09270 0.13700
H 	H 	0.39790 0.50990 0.14460 0.12100
C 	C 	0.58780 0.65140 0.08120 -0.35300
H 	H 	0.59960 0.62250 0.14790 0.14500
H 	H 	0.64190 0.60430 0.04010 0.15800
C 	C 	0.63630 0.77070 0.07160 0.44200
C 	C 	0.13120 0.65970 0.69390 -0.24000
H 	H 	0.04010 0.68640 0.68790 0.11000
H 	H 	0.18660 0.72020 0.66840 0.12600
C 	C 	0.05840 0.58680 0.86000 -0.31600
H 	H 	0.99450 0.55070 0.82070 0.14000
H 	H 	0.09830 0.52900 0.90410 0.17100
C 	C 	0.98880 0.67660 0.91830 0.46100
