data_crystal

_cell_length_a 31.95500
_cell_length_b 65.38600
_cell_length_c 12.95700
_cell_angle_alpha 90.00000
_cell_angle_beta  90.00000
_cell_angle_gamma 90.00000

_symmetry_space_group_name_	'P 1'
_symmetry_space_group_name_H-M	'P 1'

loop_
_symmetry_equiv_pos_as_xyz
  x,y,z

loop_
_atom_site_label
_atom_site_type_symbol
_atom_site_fract_x
_atom_site_fract_y
_atom_site_fract_z
_atom_site_charge
Fe	Fe	0.80368 0.88605 0.25108 1.21700
Fe	Fe	0.55461 0.86187 0.99603 1.22100
Ba	Ba	0.50520 0.00037 0.66897 0.86400
C 	C 	0.89520 0.95898 0.30610 -0.16200
C 	C 	0.89160 0.95477 0.19920 -0.01000
H 	H 	0.90520 0.96320 0.15210 0.01500
C 	C 	0.86900 0.93888 0.16410 0.00700
C 	C 	0.85270 0.92391 0.22860 0.18900
C 	C 	0.85700 0.92727 0.33880 -0.13900
C 	C 	0.88080 0.94310 0.37140 0.06300
H 	H 	0.88810 0.94360 0.44080 0.01700
C 	C 	0.92050 0.97710 0.33820 0.47100
C 	C 	0.86610 0.93500 0.03990 -0.45800
H 	H 	0.87940 0.94610 0.00420 0.15900
H 	H 	0.83720 0.93420 0.01970 0.16600
H 	H 	0.87990 0.92240 0.02290 0.15700
C 	C 	0.84660 0.91136 0.40910 0.07400
H 	H 	0.85440 0.91360 0.47730 0.00700
C 	C 	0.82620 0.87904 0.47570 0.02800
C 	C 	0.81940 0.88731 0.58260 -0.15500
H 	H 	0.79410 0.89550 0.58460 0.07100
H 	H 	0.84280 0.89590 0.60260 0.07800
C 	C 	0.81550 0.86840 0.65960 -0.07400
H 	H 	0.84170 0.86090 0.66020 0.04600
H 	H 	0.81040 0.87340 0.72890 0.03000
C 	C 	0.78200 0.85490 0.62930 -0.05800
H 	H 	0.75570 0.86230 0.63010 0.03600
H 	H 	0.77990 0.84370 0.67830 0.03300
C 	C 	0.78990 0.84606 0.51850 -0.16100
H 	H 	0.81630 0.83870 0.51660 0.08200
H 	H 	0.76770 0.83670 0.49960 0.08200
C 	C 	0.79100 0.86382 0.44490 0.02600
C 	C 	0.80340 0.83544 0.19920 -0.10300
C 	C 	0.79780 0.81474 0.17100 0.02800
H 	H 	0.79080 0.80540 0.22230 0.00600
C 	C 	0.80200 0.80784 0.07290 -0.09800
C 	C 	0.81730 0.82264 0.00200 -0.10500
H 	H 	0.82240 0.81820 0.93500 0.06500
C 	C 	0.82540 0.84318 0.02280 0.12200
C 	C 	0.81752 0.84962 0.12060 0.10600
C 	C 	0.79820 0.84077 0.30310 0.06800
H 	H 	0.79330 0.83020 0.34980 0.00900
C 	C 	0.79610 0.78719 0.03980 0.33500
C 	C 	0.84130 0.85771 0.94380 -0.61200
H 	H 	0.84370 0.87110 0.97350 0.21500
H 	H 	0.82230 0.85810 0.88650 0.19900
H 	H 	0.86830 0.85330 0.92020 0.19400
C 	C 	0.65300 0.79102 0.03980 0.04700
C 	C 	0.63380 0.80304 0.11140 -0.09900
H 	H 	0.63560 0.79980 0.18120 0.07300
C 	C 	0.61050 0.82095 0.07860 -0.00800
C 	C 	0.60600 0.82364 0.97280 0.00000
C 	C 	0.62590 0.81082 0.89720 0.32400
C 	C 	0.64640 0.79430 0.93680 -0.27700
H 	H 	0.65660 0.78460 0.89070 0.14700
C 	C 	0.67600 0.77378 0.08120 0.25400
C 	C 	0.59300 0.83336 0.15590 0.00500
H 	H 	0.59640 0.82920 0.22400 0.02900
C 	C 	0.61670 0.81332 0.79040 -0.91600
H 	H 	0.60050 0.82550 0.78070 0.30600
H 	H 	0.60110 0.80170 0.76620 0.29800
H 	H 	0.64240 0.81440 0.75220 0.29600
C 	C 	0.55330 0.86277 0.22200 0.01800
C 	C 	0.56400 0.85668 0.32940 -0.15100
H 	H 	0.59390 0.85780 0.34000 0.07900
H 	H 	0.55580 0.84260 0.34100 0.06900
C 	C 	0.54110 0.87059 0.40540 -0.06900
H 	H 	0.54810 0.86690 0.47580 0.02800
H 	H 	0.51110 0.86930 0.39660 0.03700
C 	C 	0.55610 0.89400 0.38160 -0.07200
H 	H 	0.54220 0.90330 0.42890 0.03000
H 	H 	0.58600 0.89520 0.39260 0.04500
C 	C 	0.54590 0.89998 0.27290 -0.15100
H 	H 	0.55600 0.91370 0.25970 0.06900
H 	H 	0.51580 0.89990 0.26330 0.07200
C 	C 	0.56610 0.88519 0.19700 0.03500
C 	C 	0.55290 0.91248 0.94460 -0.10100
C 	C 	0.56368 0.89790 0.86500 0.12500
C 	C 	0.56790 0.90521 0.76550 0.08400
C 	C 	0.55780 0.92499 0.74240 -0.08400
H 	H 	0.55990 0.92940 0.67430 0.05600
C 	C 	0.54460 0.93893 0.81780 -0.10100
C 	C 	0.54320 0.93210 0.91870 0.02800
H 	H 	0.53530 0.94120 0.97050 0.00900
C 	C 	0.55400 0.90645 0.05300 0.04300
H 	H 	0.55010 0.91670 0.10170 0.01300
C 	C 	0.58320 0.89040 0.68230 -0.54300
H 	H 	0.58890 0.87730 0.71290 0.19000
H 	H 	0.60840 0.89570 0.65160 0.17500
H 	H 	0.56210 0.88890 0.63020 0.17800
C 	C 	0.52730 0.96002 0.78600 0.40800
N 	N 	0.57269 0.85010 0.14030 -0.21700
N 	N 	0.55986 0.88819 0.08730 -0.22900
N 	N 	0.79942 0.85840 0.33770 -0.23100
N 	N 	0.82816 0.89465 0.39230 -0.24100
O 	O 	0.53820 0.96710 0.69700 -0.46200
O 	O 	0.52160 0.97300 0.84950 -0.53700
O 	O 	0.58377 0.83978 0.93390 -0.36900
O 	O 	0.57177 0.87893 0.88530 -0.40100
O 	O 	0.83355 0.90896 0.19200 -0.40400
O 	O 	0.82308 0.86901 0.14210 -0.39600
O 	O 	0.93260 0.98927 0.27870 -0.49700
O 	O 	0.92690 0.97862 0.43230 -0.43700
O 	O 	0.68260 0.77105 0.17100 -0.41400
O 	O 	0.68960 0.76012 0.99930 -0.20000
O 	O 	0.78280 0.77367 0.09990 -0.42300
O 	O 	0.78980 0.78300 0.93810 -0.21400
Fe	Fe	0.80368 0.38605 0.75108 1.21800
Fe	Fe	0.55461 0.36187 0.49603 1.22200
Ba	Ba	0.50520 0.50037 0.16897 0.86400
C 	C 	0.89520 0.45898 0.80610 -0.16000
C 	C 	0.89160 0.45477 0.69920 -0.00900
H 	H 	0.90520 0.46320 0.65210 0.01600
C 	C 	0.86900 0.43888 0.66410 0.00800
C 	C 	0.85270 0.42391 0.72860 0.18900
C 	C 	0.85700 0.42727 0.83880 -0.13700
C 	C 	0.88080 0.44310 0.87140 0.06300
H 	H 	0.88810 0.44360 0.94080 0.01800
C 	C 	0.92050 0.47710 0.83820 0.47200
C 	C 	0.86610 0.43500 0.53990 -0.45700
H 	H 	0.87940 0.44610 0.50420 0.16000
H 	H 	0.83720 0.43420 0.51970 0.16800
H 	H 	0.87990 0.42240 0.52290 0.15800
C 	C 	0.84660 0.41136 0.90910 0.07400
H 	H 	0.85440 0.41360 0.97730 0.00800
C 	C 	0.82620 0.37904 0.97570 0.02900
C 	C 	0.81940 0.38731 0.08260 -0.15500
H 	H 	0.79410 0.39550 0.08460 0.07200
H 	H 	0.84280 0.39590 0.10260 0.07800
C 	C 	0.81550 0.36840 0.15960 -0.07300
H 	H 	0.84170 0.36090 0.16020 0.04600
H 	H 	0.81040 0.37340 0.22890 0.02900
C 	C 	0.78200 0.35490 0.12930 -0.05900
H 	H 	0.75570 0.36230 0.13010 0.03600
H 	H 	0.77990 0.34370 0.17830 0.03300
C 	C 	0.78990 0.34606 0.01850 -0.16000
H 	H 	0.81630 0.33870 0.01660 0.08200
H 	H 	0.76770 0.33670 0.99960 0.08200
C 	C 	0.79100 0.36382 0.94490 0.02500
C 	C 	0.80340 0.33544 0.69920 -0.10300
C 	C 	0.79780 0.31474 0.67100 0.02800
H 	H 	0.79080 0.30540 0.72230 0.00600
C 	C 	0.80200 0.30784 0.57290 -0.09800
C 	C 	0.81730 0.32264 0.50200 -0.10400
H 	H 	0.82240 0.31820 0.43500 0.06400
C 	C 	0.82540 0.34318 0.52280 0.12300
C 	C 	0.81752 0.34962 0.62060 0.10600
C 	C 	0.79820 0.34077 0.80310 0.06800
H 	H 	0.79330 0.33020 0.84980 0.00900
C 	C 	0.79610 0.28719 0.53980 0.33600
C 	C 	0.84130 0.35771 0.44380 -0.61300
H 	H 	0.84370 0.37110 0.47350 0.21500
H 	H 	0.82230 0.35810 0.38650 0.19900
H 	H 	0.86830 0.35330 0.42020 0.19400
C 	C 	0.65300 0.29102 0.53980 0.04900
C 	C 	0.63380 0.30304 0.61140 -0.10000
H 	H 	0.63560 0.29980 0.68120 0.07400
C 	C 	0.61050 0.32095 0.57860 -0.00600
C 	C 	0.60600 0.32364 0.47280 -0.00100
C 	C 	0.62590 0.31082 0.39720 0.32600
C 	C 	0.64640 0.29430 0.43680 -0.27900
H 	H 	0.65660 0.28460 0.39070 0.14800
C 	C 	0.67600 0.27378 0.58120 0.25400
C 	C 	0.59300 0.33336 0.65590 0.00400
H 	H 	0.59640 0.32920 0.72400 0.02900
C 	C 	0.61670 0.31332 0.29040 -0.91900
H 	H 	0.60050 0.32550 0.28070 0.30700
H 	H 	0.60110 0.30170 0.26620 0.29900
H 	H 	0.64240 0.31440 0.25220 0.29700
C 	C 	0.55330 0.36277 0.72200 0.01800
C 	C 	0.56400 0.35668 0.82940 -0.15100
H 	H 	0.59390 0.35780 0.84000 0.07900
H 	H 	0.55580 0.34260 0.84100 0.06900
C 	C 	0.54110 0.37059 0.90540 -0.06900
H 	H 	0.54810 0.36690 0.97580 0.02800
H 	H 	0.51110 0.36930 0.89660 0.03700
C 	C 	0.55610 0.39400 0.88160 -0.07200
H 	H 	0.54220 0.40330 0.92890 0.03000
H 	H 	0.58600 0.39520 0.89260 0.04500
C 	C 	0.54590 0.39998 0.77290 -0.15100
H 	H 	0.55600 0.41370 0.75970 0.06900
H 	H 	0.51580 0.39990 0.76330 0.07200
C 	C 	0.56610 0.38519 0.69700 0.03600
C 	C 	0.55290 0.41248 0.44460 -0.10300
C 	C 	0.56368 0.39790 0.36500 0.12600
C 	C 	0.56790 0.40521 0.26550 0.08300
C 	C 	0.55780 0.42499 0.24240 -0.08300
H 	H 	0.55990 0.42940 0.17430 0.05500
C 	C 	0.54460 0.43893 0.31780 -0.10300
C 	C 	0.54320 0.43210 0.41870 0.02900
H 	H 	0.53530 0.44120 0.47050 0.00800
C 	C 	0.55400 0.40645 0.55300 0.04500
H 	H 	0.55010 0.41670 0.60170 0.01200
C 	C 	0.58320 0.39040 0.18230 -0.54200
H 	H 	0.58890 0.37730 0.21290 0.19000
H 	H 	0.60840 0.39570 0.15160 0.17500
H 	H 	0.56210 0.38890 0.13020 0.17700
C 	C 	0.52730 0.46002 0.28600 0.40800
N 	N 	0.57269 0.35010 0.64030 -0.21600
N 	N 	0.55986 0.38819 0.58730 -0.22900
N 	N 	0.79942 0.35840 0.83770 -0.23100
N 	N 	0.82816 0.39465 0.89230 -0.24100
O 	O 	0.53820 0.46710 0.19700 -0.46200
O 	O 	0.52160 0.47300 0.34950 -0.53800
O 	O 	0.58377 0.33978 0.43390 -0.36900
O 	O 	0.57177 0.37893 0.38530 -0.40200
O 	O 	0.83355 0.40896 0.69200 -0.40400
O 	O 	0.82308 0.36901 0.64210 -0.39600
O 	O 	0.93260 0.48927 0.77870 -0.49700
O 	O 	0.92690 0.47862 0.93230 -0.43600
O 	O 	0.68260 0.27105 0.67100 -0.41400
O 	O 	0.68960 0.26012 0.49930 -0.20000
O 	O 	0.78280 0.27367 0.59990 -0.42300
O 	O 	0.78980 0.28300 0.43810 -0.21500
Fe	Fe	0.30368 0.88605 0.75108 1.21800
Fe	Fe	0.05461 0.86187 0.49603 1.22100
Ba	Ba	0.00520 0.00037 0.16897 0.90600
C 	C 	0.39520 0.95898 0.80610 -0.16100
C 	C 	0.39160 0.95477 0.69920 -0.00800
H 	H 	0.40520 0.96320 0.65210 0.01500
C 	C 	0.36900 0.93888 0.66410 0.00800
C 	C 	0.35270 0.92391 0.72860 0.19000
C 	C 	0.35700 0.92727 0.83880 -0.13800
C 	C 	0.38080 0.94310 0.87140 0.06400
H 	H 	0.38810 0.94360 0.94080 0.01800
C 	C 	0.42050 0.97710 0.83820 0.47300
C 	C 	0.36610 0.93500 0.53990 -0.45600
H 	H 	0.37940 0.94610 0.50420 0.15900
H 	H 	0.33720 0.93420 0.51970 0.16800
H 	H 	0.37990 0.92240 0.52290 0.15800
C 	C 	0.34660 0.91136 0.90910 0.07500
H 	H 	0.35440 0.91360 0.97730 0.00800
C 	C 	0.32620 0.87904 0.97570 0.03000
C 	C 	0.31940 0.88731 0.08260 -0.15500
H 	H 	0.29410 0.89550 0.08460 0.07200
H 	H 	0.34280 0.89590 0.10260 0.07800
C 	C 	0.31550 0.86840 0.15960 -0.07300
H 	H 	0.34170 0.86090 0.16020 0.04600
H 	H 	0.31040 0.87340 0.22890 0.02900
C 	C 	0.28200 0.85490 0.12930 -0.05800
H 	H 	0.25570 0.86230 0.13010 0.03600
H 	H 	0.27990 0.84370 0.17830 0.03300
C 	C 	0.28990 0.84606 0.01850 -0.16100
H 	H 	0.31630 0.83870 0.01660 0.08200
H 	H 	0.26770 0.83670 0.99960 0.08200
C 	C 	0.29100 0.86382 0.94490 0.02600
C 	C 	0.30340 0.83544 0.69920 -0.10300
C 	C 	0.29780 0.81474 0.67100 0.02800
H 	H 	0.29080 0.80540 0.72230 0.00600
C 	C 	0.30200 0.80784 0.57290 -0.09800
C 	C 	0.31730 0.82264 0.50200 -0.10400
H 	H 	0.32240 0.81820 0.43500 0.06400
C 	C 	0.32540 0.84318 0.52280 0.12200
C 	C 	0.31752 0.84962 0.62060 0.10600
C 	C 	0.29820 0.84077 0.80310 0.06800
H 	H 	0.29330 0.83020 0.84980 0.00900
C 	C 	0.29610 0.78719 0.53980 0.33600
C 	C 	0.34130 0.85771 0.44380 -0.61200
H 	H 	0.34370 0.87110 0.47350 0.21500
H 	H 	0.32230 0.85810 0.38650 0.19900
H 	H 	0.36830 0.85330 0.42020 0.19400
C 	C 	0.15300 0.79102 0.53980 0.04800
C 	C 	0.13380 0.80304 0.61140 -0.10000
H 	H 	0.13560 0.79980 0.68120 0.07300
C 	C 	0.11050 0.82095 0.57860 -0.00700
C 	C 	0.10600 0.82364 0.47280 -0.00100
C 	C 	0.12590 0.81082 0.39720 0.32400
C 	C 	0.14640 0.79430 0.43680 -0.27800
H 	H 	0.15660 0.78460 0.39070 0.14700
C 	C 	0.17600 0.77378 0.58120 0.25400
C 	C 	0.09300 0.83336 0.65590 0.00400
H 	H 	0.09640 0.82920 0.72400 0.02900
C 	C 	0.11670 0.81332 0.29040 -0.91500
H 	H 	0.10050 0.82550 0.28070 0.30500
H 	H 	0.10110 0.80170 0.26620 0.29700
H 	H 	0.14240 0.81440 0.25220 0.29600
C 	C 	0.05330 0.86277 0.72200 0.01700
C 	C 	0.06400 0.85668 0.82940 -0.15200
H 	H 	0.09390 0.85780 0.84000 0.07900
H 	H 	0.05580 0.84260 0.84100 0.06800
C 	C 	0.04110 0.87059 0.90540 -0.06700
H 	H 	0.04810 0.86690 0.97580 0.02600
H 	H 	0.01110 0.86930 0.89660 0.03400
C 	C 	0.05610 0.89400 0.88160 -0.07500
H 	H 	0.04220 0.90330 0.92890 0.03000
H 	H 	0.08600 0.89520 0.89260 0.04600
C 	C 	0.04590 0.89998 0.77290 -0.14900
H 	H 	0.05600 0.91370 0.75970 0.06800
H 	H 	0.01580 0.89990 0.76330 0.06900
C 	C 	0.06610 0.88519 0.69700 0.03500
C 	C 	0.05290 0.91248 0.44460 -0.10500
C 	C 	0.06368 0.89790 0.36500 0.12600
C 	C 	0.06790 0.90521 0.26550 0.08100
C 	C 	0.05780 0.92499 0.24240 -0.08300
H 	H 	0.05990 0.92940 0.17430 0.05400
C 	C 	0.04460 0.93893 0.31780 -0.10400
C 	C 	0.04320 0.93210 0.41870 0.02900
H 	H 	0.03530 0.94120 0.47050 0.00700
C 	C 	0.05400 0.90645 0.55300 0.04500
H 	H 	0.05010 0.91670 0.60170 0.01100
C 	C 	0.08320 0.89040 0.18230 -0.53900
H 	H 	0.08890 0.87730 0.21290 0.18800
H 	H 	0.10840 0.89570 0.15160 0.17400
H 	H 	0.06210 0.88890 0.13020 0.17500
C 	C 	0.02730 0.96002 0.28600 0.40700
N 	N 	0.07269 0.85010 0.64030 -0.21700
N 	N 	0.05986 0.88819 0.58730 -0.23000
N 	N 	0.29942 0.85840 0.83770 -0.23100
N 	N 	0.32816 0.89465 0.89230 -0.24100
O 	O 	0.03820 0.96710 0.19700 -0.46500
O 	O 	0.02160 0.97300 0.34950 -0.53800
O 	O 	0.08377 0.83978 0.43390 -0.37000
O 	O 	0.07177 0.87893 0.38530 -0.40200
O 	O 	0.33355 0.90896 0.69200 -0.40400
O 	O 	0.32308 0.86901 0.64210 -0.39600
O 	O 	0.43260 0.98927 0.77870 -0.50000
O 	O 	0.42690 0.97862 0.93230 -0.43900
O 	O 	0.18260 0.77105 0.67100 -0.41400
O 	O 	0.18960 0.76012 0.49930 -0.20100
O 	O 	0.28280 0.77367 0.59990 -0.42300
O 	O 	0.28980 0.78300 0.43810 -0.21500
Fe	Fe	0.30368 0.38605 0.25108 1.21800
Fe	Fe	0.05461 0.36187 0.99603 1.22200
Ba	Ba	0.00520 0.50037 0.66897 0.90500
C 	C 	0.39520 0.45898 0.30610 -0.16200
C 	C 	0.39160 0.45477 0.19920 -0.00800
H 	H 	0.40520 0.46320 0.15210 0.01500
C 	C 	0.36900 0.43888 0.16410 0.00700
C 	C 	0.35270 0.42391 0.22860 0.19000
C 	C 	0.35700 0.42727 0.33880 -0.13800
C 	C 	0.38080 0.44310 0.37140 0.06400
H 	H 	0.38810 0.44360 0.44080 0.01700
C 	C 	0.42050 0.47710 0.33820 0.47300
C 	C 	0.36610 0.43500 0.03990 -0.45600
H 	H 	0.37940 0.44610 0.00420 0.15900
H 	H 	0.33720 0.43420 0.01970 0.16700
H 	H 	0.37990 0.42240 0.02290 0.15800
C 	C 	0.34660 0.41136 0.40910 0.07500
H 	H 	0.35440 0.41360 0.47730 0.00800
C 	C 	0.32620 0.37904 0.47570 0.02900
C 	C 	0.31940 0.38731 0.58260 -0.15400
H 	H 	0.29410 0.39550 0.58460 0.07200
H 	H 	0.34280 0.39590 0.60260 0.07800
C 	C 	0.31550 0.36840 0.65960 -0.07400
H 	H 	0.34170 0.36090 0.66020 0.04600
H 	H 	0.31040 0.37340 0.72890 0.03000
C 	C 	0.28200 0.35490 0.62930 -0.05800
H 	H 	0.25570 0.36230 0.63010 0.03600
H 	H 	0.27990 0.34370 0.67830 0.03300
C 	C 	0.28990 0.34606 0.51850 -0.16100
H 	H 	0.31630 0.33870 0.51660 0.08200
H 	H 	0.26770 0.33670 0.49960 0.08200
C 	C 	0.29100 0.36382 0.44490 0.02600
C 	C 	0.30340 0.33544 0.19920 -0.10300
C 	C 	0.29780 0.31474 0.17100 0.02800
H 	H 	0.29080 0.30540 0.22230 0.00600
C 	C 	0.30200 0.30784 0.07290 -0.09800
C 	C 	0.31730 0.32264 0.00200 -0.10500
H 	H 	0.32240 0.31820 0.93500 0.06500
C 	C 	0.32540 0.34318 0.02280 0.12200
C 	C 	0.31752 0.34962 0.12060 0.10600
C 	C 	0.29820 0.34077 0.30310 0.06800
H 	H 	0.29330 0.33020 0.34980 0.00900
C 	C 	0.29610 0.28719 0.03980 0.33500
C 	C 	0.34130 0.35771 0.94380 -0.61100
H 	H 	0.34370 0.37110 0.97350 0.21500
H 	H 	0.32230 0.35810 0.88650 0.19800
H 	H 	0.36830 0.35330 0.92020 0.19400
C 	C 	0.15300 0.29102 0.03980 0.04600
C 	C 	0.13380 0.30304 0.11140 -0.09900
H 	H 	0.13560 0.29980 0.18120 0.07300
C 	C 	0.11050 0.32095 0.07860 -0.00900
C 	C 	0.10600 0.32364 0.97280 0.00100
C 	C 	0.12590 0.31082 0.89720 0.32300
C 	C 	0.14640 0.29430 0.93680 -0.27600
H 	H 	0.15660 0.28460 0.89070 0.14700
C 	C 	0.17600 0.27378 0.08120 0.25400
C 	C 	0.09300 0.33336 0.15590 0.00500
H 	H 	0.09640 0.32920 0.22400 0.02900
C 	C 	0.11670 0.31332 0.79040 -0.91300
H 	H 	0.10050 0.32550 0.78070 0.30400
H 	H 	0.10110 0.30170 0.76620 0.29700
H 	H 	0.14240 0.31440 0.75220 0.29500
C 	C 	0.05330 0.36277 0.22200 0.01700
C 	C 	0.06400 0.35668 0.32940 -0.15200
H 	H 	0.09390 0.35780 0.34000 0.07900
H 	H 	0.05580 0.34260 0.34100 0.06800
C 	C 	0.04110 0.37059 0.40540 -0.06700
H 	H 	0.04810 0.36690 0.47580 0.02600
H 	H 	0.01110 0.36930 0.39660 0.03400
C 	C 	0.05610 0.39400 0.38160 -0.07500
H 	H 	0.04220 0.40330 0.42890 0.03000
H 	H 	0.08600 0.39520 0.39260 0.04600
C 	C 	0.04590 0.39998 0.27290 -0.14800
H 	H 	0.05600 0.41370 0.25970 0.06800
H 	H 	0.01580 0.39990 0.26330 0.06900
C 	C 	0.06610 0.38519 0.19700 0.03500
C 	C 	0.05290 0.41248 0.94460 -0.10200
C 	C 	0.06368 0.39790 0.86500 0.12500
C 	C 	0.06790 0.40521 0.76550 0.08200
C 	C 	0.05780 0.42499 0.74240 -0.08400
H 	H 	0.05990 0.42940 0.67430 0.05500
C 	C 	0.04460 0.43893 0.81780 -0.10200
C 	C 	0.04320 0.43210 0.91870 0.02800
H 	H 	0.03530 0.44120 0.97050 0.00800
C 	C 	0.05400 0.40645 0.05300 0.04200
H 	H 	0.05010 0.41670 0.10170 0.01200
C 	C 	0.08320 0.39040 0.68230 -0.54000
H 	H 	0.08890 0.37730 0.71290 0.18900
H 	H 	0.10840 0.39570 0.65160 0.17400
H 	H 	0.06210 0.38890 0.63020 0.17500
C 	C 	0.02730 0.46002 0.78600 0.40700
N 	N 	0.07269 0.35010 0.14030 -0.21700
N 	N 	0.05986 0.38819 0.08730 -0.23000
N 	N 	0.29942 0.35840 0.33770 -0.23100
N 	N 	0.32816 0.39465 0.39230 -0.24100
O 	O 	0.03820 0.46710 0.69700 -0.46400
O 	O 	0.02160 0.47300 0.84950 -0.53700
O 	O 	0.08377 0.33978 0.93390 -0.37000
O 	O 	0.07177 0.37893 0.88530 -0.40200
O 	O 	0.33355 0.40896 0.19200 -0.40400
O 	O 	0.32308 0.36901 0.14210 -0.39600
O 	O 	0.43260 0.48927 0.27870 -0.50000
O 	O 	0.42690 0.47862 0.43230 -0.44000
O 	O 	0.18260 0.27105 0.17100 -0.41400
O 	O 	0.18960 0.26012 0.99930 -0.20000
O 	O 	0.28280 0.27367 0.09990 -0.42300
O 	O 	0.28980 0.28300 0.93810 -0.21500
Fe	Fe	0.19632 0.11395 0.25108 1.21800
Fe	Fe	0.44539 0.13813 0.99603 1.22200
Ba	Ba	0.49480 0.99963 0.66897 0.86400
C 	C 	0.10480 0.04102 0.30610 -0.16300
C 	C 	0.10840 0.04523 0.19920 -0.00800
H 	H 	0.09480 0.03680 0.15210 0.01400
C 	C 	0.13100 0.06112 0.16410 0.00700
C 	C 	0.14730 0.07609 0.22860 0.19000
C 	C 	0.14300 0.07273 0.33880 -0.13800
C 	C 	0.11920 0.05690 0.37140 0.06400
H 	H 	0.11190 0.05640 0.44080 0.01700
C 	C 	0.07950 0.02290 0.33820 0.47300
C 	C 	0.13390 0.06500 0.03990 -0.45500
H 	H 	0.12060 0.05390 0.00420 0.15900
H 	H 	0.16280 0.06580 0.01970 0.16700
H 	H 	0.12010 0.07760 0.02290 0.15700
C 	C 	0.15340 0.08864 0.40910 0.07500
H 	H 	0.14560 0.08640 0.47730 0.00800
C 	C 	0.17380 0.12096 0.47570 0.02900
C 	C 	0.18060 0.11269 0.58260 -0.15500
H 	H 	0.20590 0.10450 0.58460 0.07200
H 	H 	0.15720 0.10410 0.60260 0.07800
C 	C 	0.18450 0.13160 0.65960 -0.07400
H 	H 	0.15830 0.13910 0.66020 0.04600
H 	H 	0.18960 0.12660 0.72890 0.03000
C 	C 	0.21800 0.14510 0.62930 -0.05800
H 	H 	0.24430 0.13770 0.63010 0.03600
H 	H 	0.22010 0.15630 0.67830 0.03300
C 	C 	0.21010 0.15394 0.51850 -0.16100
H 	H 	0.18370 0.16130 0.51660 0.08300
H 	H 	0.23230 0.16330 0.49960 0.08200
C 	C 	0.20900 0.13618 0.44490 0.02600
C 	C 	0.19660 0.16456 0.19920 -0.10300
C 	C 	0.20220 0.18526 0.17100 0.02800
H 	H 	0.20920 0.19460 0.22230 0.00600
C 	C 	0.19800 0.19216 0.07290 -0.09800
C 	C 	0.18270 0.17736 0.00200 -0.10500
H 	H 	0.17760 0.18180 0.93500 0.06500
C 	C 	0.17460 0.15682 0.02280 0.12200
C 	C 	0.18248 0.15038 0.12060 0.10600
C 	C 	0.20180 0.15923 0.30310 0.06800
H 	H 	0.20670 0.16980 0.34980 0.00900
C 	C 	0.20390 0.21281 0.03980 0.33500
C 	C 	0.15870 0.14229 0.94380 -0.61000
H 	H 	0.15630 0.12890 0.97350 0.21400
H 	H 	0.17770 0.14190 0.88650 0.19800
H 	H 	0.13170 0.14670 0.92020 0.19300
C 	C 	0.34700 0.20898 0.03980 0.04700
C 	C 	0.36620 0.19696 0.11140 -0.09900
H 	H 	0.36440 0.20020 0.18120 0.07300
C 	C 	0.38950 0.17905 0.07860 -0.00800
C 	C 	0.39400 0.17636 0.97280 0.00100
C 	C 	0.37410 0.18918 0.89720 0.32400
C 	C 	0.35360 0.20570 0.93680 -0.27700
H 	H 	0.34340 0.21540 0.89070 0.14700
C 	C 	0.32400 0.22622 0.08120 0.25400
C 	C 	0.40700 0.16664 0.15590 0.00500
H 	H 	0.40360 0.17080 0.22400 0.02900
C 	C 	0.38330 0.18668 0.79040 -0.91600
H 	H 	0.39950 0.17450 0.78070 0.30600
H 	H 	0.39890 0.19830 0.76620 0.29800
H 	H 	0.35760 0.18560 0.75220 0.29600
C 	C 	0.44670 0.13723 0.22200 0.01800
C 	C 	0.43600 0.14332 0.32940 -0.15100
H 	H 	0.40610 0.14220 0.34000 0.07900
H 	H 	0.44420 0.15740 0.34100 0.06900
C 	C 	0.45890 0.12941 0.40540 -0.06900
H 	H 	0.45190 0.13310 0.47580 0.02800
H 	H 	0.48890 0.13070 0.39660 0.03700
C 	C 	0.44390 0.10600 0.38160 -0.07200
H 	H 	0.45780 0.09670 0.42890 0.03000
H 	H 	0.41400 0.10480 0.39260 0.04500
C 	C 	0.45410 0.10002 0.27290 -0.15100
H 	H 	0.44400 0.08630 0.25970 0.06900
H 	H 	0.48420 0.10010 0.26330 0.07200
C 	C 	0.43390 0.11481 0.19700 0.03500
C 	C 	0.44710 0.08752 0.94460 -0.10100
C 	C 	0.43632 0.10210 0.86500 0.12500
C 	C 	0.43210 0.09479 0.76550 0.08400
C 	C 	0.44220 0.07501 0.74240 -0.08400
H 	H 	0.44010 0.07060 0.67430 0.05600
C 	C 	0.45540 0.06107 0.81780 -0.10100
C 	C 	0.45680 0.06790 0.91870 0.02800
H 	H 	0.46470 0.05880 0.97050 0.00900
C 	C 	0.44600 0.09355 0.05300 0.04300
H 	H 	0.44990 0.08330 0.10170 0.01300
C 	C 	0.41680 0.10960 0.68230 -0.54300
H 	H 	0.41110 0.12270 0.71290 0.19000
H 	H 	0.39160 0.10430 0.65160 0.17500
H 	H 	0.43790 0.11110 0.63020 0.17800
C 	C 	0.47270 0.03998 0.78600 0.40800
N 	N 	0.42731 0.14990 0.14030 -0.21700
N 	N 	0.44014 0.11181 0.08730 -0.22900
N 	N 	0.20058 0.14160 0.33770 -0.23100
N 	N 	0.17184 0.10535 0.39230 -0.24100
O 	O 	0.46180 0.03290 0.69700 -0.46200
O 	O 	0.47840 0.02700 0.84950 -0.53700
O 	O 	0.41623 0.16022 0.93390 -0.36900
O 	O 	0.42823 0.12107 0.88530 -0.40100
O 	O 	0.16645 0.09104 0.19200 -0.40400
O 	O 	0.17692 0.13099 0.14210 -0.39600
O 	O 	0.06740 0.01073 0.27870 -0.50300
O 	O 	0.07310 0.02138 0.43230 -0.44000
O 	O 	0.31740 0.22895 0.17100 -0.41400
O 	O 	0.31040 0.23988 0.99930 -0.20000
O 	O 	0.21720 0.22633 0.09990 -0.42300
O 	O 	0.21020 0.21700 0.93810 -0.21500
Fe	Fe	0.19632 0.61395 0.75108 1.21800
Fe	Fe	0.44539 0.63813 0.49603 1.22200
Ba	Ba	0.49480 0.49963 0.16897 0.86400
C 	C 	0.10480 0.54102 0.80610 -0.16200
C 	C 	0.10840 0.54523 0.69920 -0.00800
H 	H 	0.09480 0.53680 0.65210 0.01400
C 	C 	0.13100 0.56112 0.66410 0.00700
C 	C 	0.14730 0.57609 0.72860 0.19000
C 	C 	0.14300 0.57273 0.83880 -0.13800
C 	C 	0.11920 0.55690 0.87140 0.06400
H 	H 	0.11190 0.55640 0.94080 0.01800
C 	C 	0.07950 0.52290 0.83820 0.47300
C 	C 	0.13390 0.56500 0.53990 -0.45600
H 	H 	0.12060 0.55390 0.50420 0.15900
H 	H 	0.16280 0.56580 0.51970 0.16700
H 	H 	0.12010 0.57760 0.52290 0.15800
C 	C 	0.15340 0.58864 0.90910 0.07500
H 	H 	0.14560 0.58640 0.97730 0.00800
C 	C 	0.17380 0.62096 0.97570 0.03000
C 	C 	0.18060 0.61269 0.08260 -0.15500
H 	H 	0.20590 0.60450 0.08460 0.07200
H 	H 	0.15720 0.60410 0.10260 0.07800
C 	C 	0.18450 0.63160 0.15960 -0.07300
H 	H 	0.15830 0.63910 0.16020 0.04600
H 	H 	0.18960 0.62660 0.22890 0.02900
C 	C 	0.21800 0.64510 0.12930 -0.05800
H 	H 	0.24430 0.63770 0.13010 0.03600
H 	H 	0.22010 0.65630 0.17830 0.03300
C 	C 	0.21010 0.65394 0.01850 -0.16100
H 	H 	0.18370 0.66130 0.01660 0.08200
H 	H 	0.23230 0.66330 0.99960 0.08200
C 	C 	0.20900 0.63618 0.94490 0.02500
C 	C 	0.19660 0.66456 0.69920 -0.10300
C 	C 	0.20220 0.68526 0.67100 0.02800
H 	H 	0.20920 0.69460 0.72230 0.00600
C 	C 	0.19800 0.69216 0.57290 -0.09800
C 	C 	0.18270 0.67736 0.50200 -0.10400
H 	H 	0.17760 0.68180 0.43500 0.06400
C 	C 	0.17460 0.65682 0.52280 0.12200
C 	C 	0.18248 0.65038 0.62060 0.10600
C 	C 	0.20180 0.65923 0.80310 0.06800
H 	H 	0.20670 0.66980 0.84980 0.00900
C 	C 	0.20390 0.71281 0.53980 0.33600
C 	C 	0.15870 0.64229 0.44380 -0.61100
H 	H 	0.15630 0.62890 0.47350 0.21400
H 	H 	0.17770 0.64190 0.38650 0.19800
H 	H 	0.13170 0.64670 0.42020 0.19400
C 	C 	0.34700 0.70898 0.53980 0.04900
C 	C 	0.36620 0.69696 0.61140 -0.10000
H 	H 	0.36440 0.70020 0.68120 0.07400
C 	C 	0.38950 0.67905 0.57860 -0.00600
C 	C 	0.39400 0.67636 0.47280 -0.00100
C 	C 	0.37410 0.68918 0.39720 0.32600
C 	C 	0.35360 0.70570 0.43680 -0.27900
H 	H 	0.34340 0.71540 0.39070 0.14800
C 	C 	0.32400 0.72622 0.58120 0.25400
C 	C 	0.40700 0.66664 0.65590 0.00400
H 	H 	0.40360 0.67080 0.72400 0.02900
C 	C 	0.38330 0.68668 0.29040 -0.91900
H 	H 	0.39950 0.67450 0.28070 0.30700
H 	H 	0.39890 0.69830 0.26620 0.29900
H 	H 	0.35760 0.68560 0.25220 0.29700
C 	C 	0.44670 0.63723 0.72200 0.01800
C 	C 	0.43600 0.64332 0.82940 -0.15100
H 	H 	0.40610 0.64220 0.84000 0.07900
H 	H 	0.44420 0.65740 0.84100 0.06900
C 	C 	0.45890 0.62941 0.90540 -0.06900
H 	H 	0.45190 0.63310 0.97580 0.02800
H 	H 	0.48890 0.63070 0.89660 0.03700
C 	C 	0.44390 0.60600 0.88160 -0.07200
H 	H 	0.45780 0.59670 0.92890 0.03000
H 	H 	0.41400 0.60480 0.89260 0.04500
C 	C 	0.45410 0.60002 0.77290 -0.15100
H 	H 	0.44400 0.58630 0.75970 0.06900
H 	H 	0.48420 0.60010 0.76330 0.07200
C 	C 	0.43390 0.61481 0.69700 0.03600
C 	C 	0.44710 0.58752 0.44460 -0.10300
C 	C 	0.43632 0.60210 0.36500 0.12600
C 	C 	0.43210 0.59479 0.26550 0.08300
C 	C 	0.44220 0.57501 0.24240 -0.08300
H 	H 	0.44010 0.57060 0.17430 0.05500
C 	C 	0.45540 0.56107 0.31780 -0.10300
C 	C 	0.45680 0.56790 0.41870 0.02900
H 	H 	0.46470 0.55880 0.47050 0.00800
C 	C 	0.44600 0.59355 0.55300 0.04500
H 	H 	0.44990 0.58330 0.60170 0.01200
C 	C 	0.41680 0.60960 0.18230 -0.54200
H 	H 	0.41110 0.62270 0.21290 0.19000
H 	H 	0.39160 0.60430 0.15160 0.17500
H 	H 	0.43790 0.61110 0.13020 0.17700
C 	C 	0.47270 0.53998 0.28600 0.40800
N 	N 	0.42731 0.64990 0.64030 -0.21600
N 	N 	0.44014 0.61181 0.58730 -0.22900
N 	N 	0.20058 0.64160 0.83770 -0.23100
N 	N 	0.17184 0.60535 0.89230 -0.24100
O 	O 	0.46180 0.53290 0.19700 -0.46200
O 	O 	0.47840 0.52700 0.34950 -0.53800
O 	O 	0.41623 0.66022 0.43390 -0.36900
O 	O 	0.42823 0.62107 0.38530 -0.40200
O 	O 	0.16645 0.59104 0.69200 -0.40400
O 	O 	0.17692 0.63099 0.64210 -0.39600
O 	O 	0.06740 0.51073 0.77870 -0.50200
O 	O 	0.07310 0.52138 0.93230 -0.43800
O 	O 	0.31740 0.72895 0.67100 -0.41400
O 	O 	0.31040 0.73988 0.49930 -0.20000
O 	O 	0.21720 0.72633 0.59990 -0.42300
O 	O 	0.21020 0.71700 0.43810 -0.21500
Fe	Fe	0.69632 0.11395 0.75108 1.21800
Fe	Fe	0.94539 0.13813 0.49603 1.22400
Ba	Ba	0.99480 0.99963 0.16897 0.82400
C 	C 	0.60480 0.04102 0.80610 -0.16200
C 	C 	0.60840 0.04523 0.69920 -0.00800
H 	H 	0.59480 0.03680 0.65210 0.01500
C 	C 	0.63100 0.06112 0.66410 0.00800
C 	C 	0.64730 0.07609 0.72860 0.19000
C 	C 	0.64300 0.07273 0.83880 -0.13800
C 	C 	0.61920 0.05690 0.87140 0.06400
H 	H 	0.61190 0.05640 0.94080 0.01800
C 	C 	0.57950 0.02290 0.83820 0.47300
C 	C 	0.63390 0.06500 0.53990 -0.45600
H 	H 	0.62060 0.05390 0.50420 0.15900
H 	H 	0.66280 0.06580 0.51970 0.16800
H 	H 	0.62010 0.07760 0.52290 0.15800
C 	C 	0.65340 0.08864 0.90910 0.07500
H 	H 	0.64560 0.08640 0.97730 0.00800
C 	C 	0.67380 0.12096 0.97570 0.03000
C 	C 	0.68060 0.11269 0.08260 -0.15500
H 	H 	0.70590 0.10450 0.08460 0.07200
H 	H 	0.65720 0.10410 0.10260 0.07800
C 	C 	0.68450 0.13160 0.15960 -0.07300
H 	H 	0.65830 0.13910 0.16020 0.04600
H 	H 	0.68960 0.12660 0.22890 0.02900
C 	C 	0.71800 0.14510 0.12930 -0.05800
H 	H 	0.74430 0.13770 0.13010 0.03600
H 	H 	0.72010 0.15630 0.17830 0.03300
C 	C 	0.71010 0.15394 0.01850 -0.16000
H 	H 	0.68370 0.16130 0.01660 0.08200
H 	H 	0.73230 0.16330 0.99960 0.08200
C 	C 	0.70900 0.13618 0.94490 0.02500
C 	C 	0.69660 0.16456 0.69920 -0.10300
C 	C 	0.70220 0.18526 0.67100 0.02800
H 	H 	0.70920 0.19460 0.72230 0.00600
C 	C 	0.69800 0.19216 0.57290 -0.09800
C 	C 	0.68270 0.17736 0.50200 -0.10400
H 	H 	0.67760 0.18180 0.43500 0.06400
C 	C 	0.67460 0.15682 0.52280 0.12200
C 	C 	0.68248 0.15038 0.62060 0.10600
C 	C 	0.70180 0.15923 0.80310 0.06800
H 	H 	0.70670 0.16980 0.84980 0.00900
C 	C 	0.70390 0.21281 0.53980 0.33600
C 	C 	0.65870 0.14229 0.44380 -0.61200
H 	H 	0.65630 0.12890 0.47350 0.21500
H 	H 	0.67770 0.14190 0.38650 0.19900
H 	H 	0.63170 0.14670 0.42020 0.19400
C 	C 	0.84700 0.20898 0.53980 0.05000
C 	C 	0.86620 0.19696 0.61140 -0.10100
H 	H 	0.86440 0.20020 0.68120 0.07400
C 	C 	0.88950 0.17905 0.57860 -0.00500
C 	C 	0.89400 0.17636 0.47280 -0.00200
C 	C 	0.87410 0.18918 0.39720 0.32900
C 	C 	0.85360 0.20570 0.43680 -0.28100
H 	H 	0.84340 0.21540 0.39070 0.14900
C 	C 	0.82400 0.22622 0.58120 0.25400
C 	C 	0.90700 0.16664 0.65590 0.00400
H 	H 	0.90360 0.17080 0.72400 0.03000
C 	C 	0.88330 0.18668 0.29040 -0.92300
H 	H 	0.89950 0.17450 0.28070 0.30900
H 	H 	0.89890 0.19830 0.26620 0.30100
H 	H 	0.85760 0.18560 0.25220 0.29800
C 	C 	0.94670 0.13723 0.72200 0.01900
C 	C 	0.93600 0.14332 0.82940 -0.15100
H 	H 	0.90610 0.14220 0.84000 0.07900
H 	H 	0.94420 0.15740 0.84100 0.06900
C 	C 	0.95890 0.12941 0.90540 -0.07100
H 	H 	0.95190 0.13310 0.97580 0.03000
H 	H 	0.98890 0.13070 0.89660 0.04000
C 	C 	0.94390 0.10600 0.88160 -0.07000
H 	H 	0.95780 0.09670 0.92890 0.03100
H 	H 	0.91400 0.10480 0.89260 0.04500
C 	C 	0.95410 0.10002 0.77290 -0.15300
H 	H 	0.94400 0.08630 0.75970 0.07100
H 	H 	0.98420 0.10010 0.76330 0.07500
C 	C 	0.93390 0.11481 0.69700 0.03600
C 	C 	0.94710 0.08752 0.44460 -0.10100
C 	C 	0.93632 0.10210 0.36500 0.12600
C 	C 	0.93210 0.09479 0.26550 0.08600
C 	C 	0.94220 0.07501 0.24240 -0.08400
H 	H 	0.94010 0.07060 0.17430 0.05700
C 	C 	0.95540 0.06107 0.31780 -0.10000
C 	C 	0.95680 0.06790 0.41870 0.02800
H 	H 	0.96470 0.05880 0.47050 0.01000
C 	C 	0.94600 0.09355 0.55300 0.04500
H 	H 	0.94990 0.08330 0.60170 0.01300
C 	C 	0.91680 0.10960 0.18230 -0.54600
H 	H 	0.91110 0.12270 0.21290 0.19100
H 	H 	0.89160 0.10430 0.15160 0.17600
H 	H 	0.93790 0.11110 0.13020 0.18000
C 	C 	0.97270 0.03998 0.28600 0.40700
N 	N 	0.92731 0.14990 0.64030 -0.21600
N 	N 	0.94014 0.11181 0.58730 -0.22900
N 	N 	0.70058 0.14160 0.83770 -0.23100
N 	N 	0.67184 0.10535 0.89230 -0.24100
O 	O 	0.96180 0.03290 0.19700 -0.46000
O 	O 	0.97840 0.02700 0.34950 -0.53300
O 	O 	0.91623 0.16022 0.43390 -0.36800
O 	O 	0.92823 0.12107 0.38530 -0.40100
O 	O 	0.66645 0.09104 0.69200 -0.40400
O 	O 	0.67692 0.13099 0.64210 -0.39600
O 	O 	0.56740 0.01073 0.77870 -0.50000
O 	O 	0.57310 0.02138 0.93230 -0.43900
O 	O 	0.81740 0.22895 0.67100 -0.41400
O 	O 	0.81040 0.23988 0.49930 -0.20000
O 	O 	0.71720 0.22633 0.59990 -0.42300
O 	O 	0.71020 0.21700 0.43810 -0.21500
Fe	Fe	0.69632 0.61395 0.25108 1.21800
Fe	Fe	0.94539 0.63813 0.99603 1.22400
Ba	Ba	0.99480 0.49963 0.66897 0.82500
C 	C 	0.60480 0.54102 0.30610 -0.16200
C 	C 	0.60840 0.54523 0.19920 -0.00800
H 	H 	0.59480 0.53680 0.15210 0.01500
C 	C 	0.63100 0.56112 0.16410 0.00700
C 	C 	0.64730 0.57609 0.22860 0.19000
C 	C 	0.64300 0.57273 0.33880 -0.13800
C 	C 	0.61920 0.55690 0.37140 0.06400
H 	H 	0.61190 0.55640 0.44080 0.01700
C 	C 	0.57950 0.52290 0.33820 0.47300
C 	C 	0.63390 0.56500 0.03990 -0.45600
H 	H 	0.62060 0.55390 0.00420 0.15900
H 	H 	0.66280 0.56580 0.01970 0.16700
H 	H 	0.62010 0.57760 0.02290 0.15800
C 	C 	0.65340 0.58864 0.40910 0.07500
H 	H 	0.64560 0.58640 0.47730 0.00800
C 	C 	0.67380 0.62096 0.47570 0.02900
C 	C 	0.68060 0.61269 0.58260 -0.15400
H 	H 	0.70590 0.60450 0.58460 0.07100
H 	H 	0.65720 0.60410 0.60260 0.07800
C 	C 	0.68450 0.63160 0.65960 -0.07400
H 	H 	0.65830 0.63910 0.66020 0.04600
H 	H 	0.68960 0.62660 0.72890 0.03000
C 	C 	0.71800 0.64510 0.62930 -0.05800
H 	H 	0.74430 0.63770 0.63010 0.03600
H 	H 	0.72010 0.65630 0.67830 0.03300
C 	C 	0.71010 0.65394 0.51850 -0.16100
H 	H 	0.68370 0.66130 0.51660 0.08200
H 	H 	0.73230 0.66330 0.49960 0.08200
C 	C 	0.70900 0.63618 0.44490 0.02600
C 	C 	0.69660 0.66456 0.19920 -0.10300
C 	C 	0.70220 0.68526 0.17100 0.02800
H 	H 	0.70920 0.69460 0.22230 0.00600
C 	C 	0.69800 0.69216 0.07290 -0.09800
C 	C 	0.68270 0.67736 0.00200 -0.10500
H 	H 	0.67760 0.68180 0.93500 0.06500
C 	C 	0.67460 0.65682 0.02280 0.12200
C 	C 	0.68248 0.65038 0.12060 0.10600
C 	C 	0.70180 0.65923 0.30310 0.06800
H 	H 	0.70670 0.66980 0.34980 0.00900
C 	C 	0.70390 0.71281 0.03980 0.33500
C 	C 	0.65870 0.64229 0.94380 -0.61100
H 	H 	0.65630 0.62890 0.97350 0.21500
H 	H 	0.67770 0.64190 0.88650 0.19800
H 	H 	0.63170 0.64670 0.92020 0.19400
C 	C 	0.84700 0.70898 0.03980 0.04800
C 	C 	0.86620 0.69696 0.11140 -0.10000
H 	H 	0.86440 0.70020 0.18120 0.07400
C 	C 	0.88950 0.67905 0.07860 -0.00700
C 	C 	0.89400 0.67636 0.97280 -0.00000
C 	C 	0.87410 0.68918 0.89720 0.32700
C 	C 	0.85360 0.70570 0.93680 -0.27900
H 	H 	0.84340 0.71540 0.89070 0.14800
C 	C 	0.82400 0.72622 0.08120 0.25400
C 	C 	0.90700 0.66664 0.15590 0.00500
H 	H 	0.90360 0.67080 0.22400 0.02900
C 	C 	0.88330 0.68668 0.79040 -0.92100
H 	H 	0.89950 0.67450 0.78070 0.30800
H 	H 	0.89890 0.69830 0.76620 0.30100
H 	H 	0.85760 0.68560 0.75220 0.29800
C 	C 	0.94670 0.63723 0.22200 0.01900
C 	C 	0.93600 0.64332 0.32940 -0.15100
H 	H 	0.90610 0.64220 0.34000 0.07900
H 	H 	0.94420 0.65740 0.34100 0.06900
C 	C 	0.95890 0.62941 0.40540 -0.07100
H 	H 	0.95190 0.63310 0.47580 0.03000
H 	H 	0.98890 0.63070 0.39660 0.04000
C 	C 	0.94390 0.60600 0.38160 -0.07000
H 	H 	0.95780 0.59670 0.42890 0.03100
H 	H 	0.91400 0.60480 0.39260 0.04500
C 	C 	0.95410 0.60002 0.27290 -0.15300
H 	H 	0.94400 0.58630 0.25970 0.07100
H 	H 	0.98420 0.60010 0.26330 0.07500
C 	C 	0.93390 0.61481 0.19700 0.03600
C 	C 	0.94710 0.58752 0.94460 -0.09900
C 	C 	0.93632 0.60210 0.86500 0.12500
C 	C 	0.93210 0.59479 0.76550 0.08700
C 	C 	0.94220 0.57501 0.74240 -0.08500
H 	H 	0.94010 0.57060 0.67430 0.05700
C 	C 	0.95540 0.56107 0.81780 -0.09900
C 	C 	0.95680 0.56790 0.91870 0.02700
H 	H 	0.96470 0.55880 0.97050 0.01100
C 	C 	0.94600 0.59355 0.05300 0.04300
H 	H 	0.94990 0.58330 0.10170 0.01400
C 	C 	0.91680 0.60960 0.68230 -0.54600
H 	H 	0.91110 0.62270 0.71290 0.19100
H 	H 	0.89160 0.60430 0.65160 0.17600
H 	H 	0.93790 0.61110 0.63020 0.18000
C 	C 	0.97270 0.53998 0.78600 0.40700
N 	N 	0.92731 0.64990 0.14030 -0.21600
N 	N 	0.94014 0.61181 0.08730 -0.22900
N 	N 	0.70058 0.64160 0.33770 -0.23100
N 	N 	0.67184 0.60535 0.39230 -0.24100
O 	O 	0.96180 0.53290 0.69700 -0.46000
O 	O 	0.97840 0.52700 0.84950 -0.53200
O 	O 	0.91623 0.66022 0.93390 -0.36800
O 	O 	0.92823 0.62107 0.88530 -0.40000
O 	O 	0.66645 0.59104 0.19200 -0.40400
O 	O 	0.67692 0.63099 0.14210 -0.39600
O 	O 	0.56740 0.51073 0.27870 -0.50000
O 	O 	0.57310 0.52138 0.43230 -0.44000
O 	O 	0.81740 0.72895 0.17100 -0.41400
O 	O 	0.81040 0.73988 0.99930 -0.20000
O 	O 	0.71720 0.72633 0.09990 -0.42300
O 	O 	0.71020 0.71700 0.93810 -0.21500
Fe	Fe	0.19632 0.88605 0.74892 1.21800
Fe	Fe	0.44539 0.86187 0.00397 1.22100
Ba	Ba	0.49480 0.00037 0.33103 0.86500
C 	C 	0.10480 0.95898 0.69390 -0.16300
C 	C 	0.10840 0.95477 0.80080 -0.00800
H 	H 	0.09480 0.96320 0.84790 0.01400
C 	C 	0.13100 0.93888 0.83590 0.00700
C 	C 	0.14730 0.92391 0.77140 0.19000
C 	C 	0.14300 0.92727 0.66120 -0.13800
C 	C 	0.11920 0.94310 0.62860 0.06400
H 	H 	0.11190 0.94360 0.55920 0.01700
C 	C 	0.07950 0.97710 0.66180 0.47300
C 	C 	0.13390 0.93500 0.96010 -0.45600
H 	H 	0.12060 0.94610 0.99580 0.15900
H 	H 	0.16280 0.93420 0.98030 0.16800
H 	H 	0.12010 0.92240 0.97710 0.15800
C 	C 	0.15340 0.91136 0.59090 0.07500
H 	H 	0.14560 0.91360 0.52270 0.00800
C 	C 	0.17380 0.87904 0.52430 0.02900
C 	C 	0.18060 0.88731 0.41740 -0.15500
H 	H 	0.20590 0.89550 0.41540 0.07200
H 	H 	0.15720 0.89590 0.39740 0.07800
C 	C 	0.18450 0.86840 0.34040 -0.07400
H 	H 	0.15830 0.86090 0.33980 0.04600
H 	H 	0.18960 0.87340 0.27110 0.03000
C 	C 	0.21800 0.85490 0.37070 -0.05800
H 	H 	0.24430 0.86230 0.36990 0.03600
H 	H 	0.22010 0.84370 0.32170 0.03300
C 	C 	0.21010 0.84606 0.48150 -0.16100
H 	H 	0.18370 0.83870 0.48340 0.08300
H 	H 	0.23230 0.83670 0.50040 0.08200
C 	C 	0.20900 0.86382 0.55510 0.02600
C 	C 	0.19660 0.83544 0.80080 -0.10300
C 	C 	0.20220 0.81474 0.82900 0.02800
H 	H 	0.20920 0.80540 0.77770 0.00600
C 	C 	0.19800 0.80784 0.92710 -0.09800
C 	C 	0.18270 0.82264 0.99800 -0.10500
H 	H 	0.17760 0.81820 0.06500 0.06400
C 	C 	0.17460 0.84318 0.97720 0.12200
C 	C 	0.18248 0.84962 0.87940 0.10600
C 	C 	0.20180 0.84077 0.69690 0.06800
H 	H 	0.20670 0.83020 0.65020 0.00900
C 	C 	0.20390 0.78719 0.96020 0.33500
C 	C 	0.15870 0.85771 0.05620 -0.61100
H 	H 	0.15630 0.87110 0.02650 0.21400
H 	H 	0.17770 0.85810 0.11350 0.19800
H 	H 	0.13170 0.85330 0.07980 0.19400
C 	C 	0.34700 0.79102 0.96020 0.04900
C 	C 	0.36620 0.80304 0.88860 -0.10000
H 	H 	0.36440 0.79980 0.81880 0.07400
C 	C 	0.38950 0.82095 0.92140 -0.00600
C 	C 	0.39400 0.82364 0.02720 -0.00100
C 	C 	0.37410 0.81082 0.10280 0.32600
C 	C 	0.35360 0.79430 0.06320 -0.27900
H 	H 	0.34340 0.78460 0.10930 0.14800
C 	C 	0.32400 0.77378 0.91880 0.25400
C 	C 	0.40700 0.83336 0.84410 0.00400
H 	H 	0.40360 0.82920 0.77600 0.02900
C 	C 	0.38330 0.81332 0.20960 -0.91800
H 	H 	0.39950 0.82550 0.21930 0.30700
H 	H 	0.39890 0.80170 0.23380 0.29900
H 	H 	0.35760 0.81440 0.24780 0.29700
C 	C 	0.44670 0.86277 0.77800 0.01800
C 	C 	0.43600 0.85668 0.67060 -0.15100
H 	H 	0.40610 0.85780 0.66000 0.07900
H 	H 	0.44420 0.84260 0.65900 0.06900
C 	C 	0.45890 0.87059 0.59460 -0.06900
H 	H 	0.45190 0.86690 0.52420 0.02800
H 	H 	0.48890 0.86930 0.60340 0.03700
C 	C 	0.44390 0.89400 0.61840 -0.07200
H 	H 	0.45780 0.90330 0.57110 0.03000
H 	H 	0.41400 0.89520 0.60740 0.04500
C 	C 	0.45410 0.89998 0.72710 -0.15100
H 	H 	0.44400 0.91370 0.74030 0.06900
H 	H 	0.48420 0.89990 0.73670 0.07200
C 	C 	0.43390 0.88519 0.80300 0.03600
C 	C 	0.44710 0.91248 0.05540 -0.10500
C 	C 	0.43632 0.89790 0.13500 0.12700
C 	C 	0.43210 0.90521 0.23450 0.08200
C 	C 	0.44220 0.92499 0.25760 -0.08300
H 	H 	0.44010 0.92940 0.32570 0.05500
C 	C 	0.45540 0.93893 0.18220 -0.10300
C 	C 	0.45680 0.93210 0.08130 0.03000
H 	H 	0.46470 0.94120 0.02950 0.00700
C 	C 	0.44600 0.90645 0.94700 0.04700
H 	H 	0.44990 0.91670 0.89830 0.01200
C 	C 	0.41680 0.89040 0.31770 -0.54100
H 	H 	0.41110 0.87730 0.28710 0.18900
H 	H 	0.39160 0.89570 0.34840 0.17400
H 	H 	0.43790 0.88890 0.36980 0.17700
C 	C 	0.47270 0.96002 0.21400 0.40800
N 	N 	0.42731 0.85010 0.85970 -0.21600
N 	N 	0.44014 0.88819 0.91270 -0.23000
N 	N 	0.20058 0.85840 0.66230 -0.23100
N 	N 	0.17184 0.89465 0.60770 -0.24100
O 	O 	0.46180 0.96710 0.30300 -0.46200
O 	O 	0.47840 0.97300 0.15050 -0.53700
O 	O 	0.41623 0.83978 0.06610 -0.36900
O 	O 	0.42823 0.87893 0.11470 -0.40200
O 	O 	0.16645 0.90896 0.80800 -0.40400
O 	O 	0.17692 0.86901 0.85790 -0.39600
O 	O 	0.06740 0.98927 0.72130 -0.50300
O 	O 	0.07310 0.97862 0.56770 -0.44000
O 	O 	0.31740 0.77105 0.82900 -0.41400
O 	O 	0.31040 0.76012 0.00070 -0.20000
O 	O 	0.21720 0.77367 0.90010 -0.42300
O 	O 	0.21020 0.78300 0.06190 -0.21500
Fe	Fe	0.19632 0.38605 0.24892 1.21800
Fe	Fe	0.44539 0.36187 0.50397 1.22200
Ba	Ba	0.49480 0.50037 0.83103 0.86500
C 	C 	0.10480 0.45898 0.19390 -0.16300
C 	C 	0.10840 0.45477 0.30080 -0.00800
H 	H 	0.09480 0.46320 0.34790 0.01400
C 	C 	0.13100 0.43888 0.33590 0.00700
C 	C 	0.14730 0.42391 0.27140 0.19000
C 	C 	0.14300 0.42727 0.16120 -0.13800
C 	C 	0.11920 0.44310 0.12860 0.06400
H 	H 	0.11190 0.44360 0.05920 0.01700
C 	C 	0.07950 0.47710 0.16180 0.47300
C 	C 	0.13390 0.43500 0.46010 -0.45600
H 	H 	0.12060 0.44610 0.49580 0.15900
H 	H 	0.16280 0.43420 0.48030 0.16700
H 	H 	0.12010 0.42240 0.47710 0.15800
C 	C 	0.15340 0.41136 0.09090 0.07500
H 	H 	0.14560 0.41360 0.02270 0.00800
C 	C 	0.17380 0.37904 0.02430 0.02900
C 	C 	0.18060 0.38731 0.91740 -0.15400
H 	H 	0.20590 0.39550 0.91540 0.07200
H 	H 	0.15720 0.39590 0.89740 0.07800
C 	C 	0.18450 0.36840 0.84040 -0.07300
H 	H 	0.15830 0.36090 0.83980 0.04600
H 	H 	0.18960 0.37340 0.77110 0.02900
C 	C 	0.21800 0.35490 0.87070 -0.06000
H 	H 	0.24430 0.36230 0.86990 0.03700
H 	H 	0.22010 0.34370 0.82170 0.03400
C 	C 	0.21010 0.34606 0.98150 -0.15800
H 	H 	0.18370 0.33870 0.98340 0.08200
H 	H 	0.23230 0.33670 0.00040 0.08100
C 	C 	0.20900 0.36382 0.05510 0.02400
C 	C 	0.19660 0.33544 0.30080 -0.10300
C 	C 	0.20220 0.31474 0.32900 0.02800
H 	H 	0.20920 0.30540 0.27770 0.00600
C 	C 	0.19800 0.30784 0.42710 -0.09800
C 	C 	0.18270 0.32264 0.49800 -0.10400
H 	H 	0.17760 0.31820 0.56500 0.06400
C 	C 	0.17460 0.34318 0.47720 0.12200
C 	C 	0.18248 0.34962 0.37940 0.10600
C 	C 	0.20180 0.34077 0.19690 0.06800
H 	H 	0.20670 0.33020 0.15020 0.00900
C 	C 	0.20390 0.28719 0.46020 0.33600
C 	C 	0.15870 0.35771 0.55620 -0.61100
H 	H 	0.15630 0.37110 0.52650 0.21400
H 	H 	0.17770 0.35810 0.61350 0.19800
H 	H 	0.13170 0.35330 0.57980 0.19400
C 	C 	0.34700 0.29102 0.46020 0.04900
C 	C 	0.36620 0.30304 0.38860 -0.10000
H 	H 	0.36440 0.29980 0.31880 0.07400
C 	C 	0.38950 0.32095 0.42140 -0.00600
C 	C 	0.39400 0.32364 0.52720 -0.00100
C 	C 	0.37410 0.31082 0.60280 0.32600
C 	C 	0.35360 0.29430 0.56320 -0.27900
H 	H 	0.34340 0.28460 0.60930 0.14800
C 	C 	0.32400 0.27378 0.41880 0.25400
C 	C 	0.40700 0.33336 0.34410 0.00400
H 	H 	0.40360 0.32920 0.27600 0.02900
C 	C 	0.38330 0.31332 0.70960 -0.91900
H 	H 	0.39950 0.32550 0.71930 0.30700
H 	H 	0.39890 0.30170 0.73380 0.29900
H 	H 	0.35760 0.31440 0.74780 0.29700
C 	C 	0.44670 0.36277 0.27800 0.01800
C 	C 	0.43600 0.35668 0.17060 -0.15100
H 	H 	0.40610 0.35780 0.16000 0.07900
H 	H 	0.44420 0.34260 0.15900 0.06900
C 	C 	0.45890 0.37059 0.09460 -0.06900
H 	H 	0.45190 0.36690 0.02420 0.02800
H 	H 	0.48890 0.36930 0.10340 0.03700
C 	C 	0.44390 0.39400 0.11840 -0.07200
H 	H 	0.45780 0.40330 0.07110 0.03000
H 	H 	0.41400 0.39520 0.10740 0.04500
C 	C 	0.45410 0.39998 0.22710 -0.15100
H 	H 	0.44400 0.41370 0.24030 0.06900
H 	H 	0.48420 0.39990 0.23670 0.07200
C 	C 	0.43390 0.38519 0.30300 0.03600
C 	C 	0.44710 0.41248 0.55540 -0.10300
C 	C 	0.43632 0.39790 0.63500 0.12600
C 	C 	0.43210 0.40521 0.73450 0.08300
C 	C 	0.44220 0.42499 0.75760 -0.08300
H 	H 	0.44010 0.42940 0.82570 0.05500
C 	C 	0.45540 0.43893 0.68220 -0.10200
C 	C 	0.45680 0.43210 0.58130 0.02900
H 	H 	0.46470 0.44120 0.52950 0.00800
C 	C 	0.44600 0.40645 0.44700 0.04500
H 	H 	0.44990 0.41670 0.39830 0.01200
C 	C 	0.41680 0.39040 0.81770 -0.54200
H 	H 	0.41110 0.37730 0.78710 0.19000
H 	H 	0.39160 0.39570 0.84840 0.17500
H 	H 	0.43790 0.38890 0.86980 0.17700
C 	C 	0.47270 0.46002 0.71400 0.40800
N 	N 	0.42731 0.35010 0.35970 -0.21600
N 	N 	0.44014 0.38819 0.41270 -0.22900
N 	N 	0.20058 0.35840 0.16230 -0.23100
N 	N 	0.17184 0.39465 0.10770 -0.24100
O 	O 	0.46180 0.46710 0.80300 -0.46200
O 	O 	0.47840 0.47300 0.65050 -0.53800
O 	O 	0.41623 0.33978 0.56610 -0.36900
O 	O 	0.42823 0.37893 0.61470 -0.40200
O 	O 	0.16645 0.40896 0.30800 -0.40400
O 	O 	0.17692 0.36901 0.35790 -0.39600
O 	O 	0.06740 0.48927 0.22130 -0.50300
O 	O 	0.07310 0.47862 0.06770 -0.44000
O 	O 	0.31740 0.27105 0.32900 -0.41400
O 	O 	0.31040 0.26012 0.50070 -0.20000
O 	O 	0.21720 0.27367 0.40010 -0.42300
O 	O 	0.21020 0.28300 0.56190 -0.21500
Fe	Fe	0.69632 0.88605 0.24892 1.21800
Fe	Fe	0.94539 0.86187 0.50397 1.22400
Ba	Ba	0.99480 0.00037 0.83103 0.82600
C 	C 	0.60480 0.95898 0.19390 -0.16200
C 	C 	0.60840 0.95477 0.30080 -0.00800
H 	H 	0.59480 0.96320 0.34790 0.01500
C 	C 	0.63100 0.93888 0.33590 0.00700
C 	C 	0.64730 0.92391 0.27140 0.19000
C 	C 	0.64300 0.92727 0.16120 -0.13800
C 	C 	0.61920 0.94310 0.12860 0.06400
H 	H 	0.61190 0.94360 0.05920 0.01700
C 	C 	0.57950 0.97710 0.16180 0.47300
C 	C 	0.63390 0.93500 0.46010 -0.45600
H 	H 	0.62060 0.94610 0.49580 0.15900
H 	H 	0.66280 0.93420 0.48030 0.16800
H 	H 	0.62010 0.92240 0.47710 0.15800
C 	C 	0.65340 0.91136 0.09090 0.07500
H 	H 	0.64560 0.91360 0.02270 0.00800
C 	C 	0.67380 0.87904 0.02430 0.02800
C 	C 	0.68060 0.88731 0.91740 -0.15400
H 	H 	0.70590 0.89550 0.91540 0.07200
H 	H 	0.65720 0.89590 0.89740 0.07800
C 	C 	0.68450 0.86840 0.84040 -0.07300
H 	H 	0.65830 0.86090 0.83980 0.04600
H 	H 	0.68960 0.87340 0.77110 0.02900
C 	C 	0.71800 0.85490 0.87070 -0.06000
H 	H 	0.74430 0.86230 0.86990 0.03700
H 	H 	0.72010 0.84370 0.82170 0.03400
C 	C 	0.71010 0.84606 0.98150 -0.15800
H 	H 	0.68370 0.83870 0.98340 0.08200
H 	H 	0.73230 0.83670 0.00040 0.08100
C 	C 	0.70900 0.86382 0.05510 0.02400
C 	C 	0.69660 0.83544 0.30080 -0.10300
C 	C 	0.70220 0.81474 0.32900 0.02800
H 	H 	0.70920 0.80540 0.27770 0.00600
C 	C 	0.69800 0.80784 0.42710 -0.09800
C 	C 	0.68270 0.82264 0.49800 -0.10400
H 	H 	0.67760 0.81820 0.56500 0.06400
C 	C 	0.67460 0.84318 0.47720 0.12200
C 	C 	0.68248 0.84962 0.37940 0.10600
C 	C 	0.70180 0.84077 0.19690 0.06800
H 	H 	0.70670 0.83020 0.15020 0.00900
C 	C 	0.70390 0.78719 0.46020 0.33600
C 	C 	0.65870 0.85771 0.55620 -0.61200
H 	H 	0.65630 0.87110 0.52650 0.21500
H 	H 	0.67770 0.85810 0.61350 0.19900
H 	H 	0.63170 0.85330 0.57980 0.19400
C 	C 	0.84700 0.79102 0.46020 0.05000
C 	C 	0.86620 0.80304 0.38860 -0.10100
H 	H 	0.86440 0.79980 0.31880 0.07400
C 	C 	0.88950 0.82095 0.42140 -0.00500
C 	C 	0.89400 0.82364 0.52720 -0.00200
C 	C 	0.87410 0.81082 0.60280 0.32900
C 	C 	0.85360 0.79430 0.56320 -0.28100
H 	H 	0.84340 0.78460 0.60930 0.14900
C 	C 	0.82400 0.77378 0.41880 0.25400
C 	C 	0.90700 0.83336 0.34410 0.00400
H 	H 	0.90360 0.82920 0.27600 0.03000
C 	C 	0.88330 0.81332 0.70960 -0.92300
H 	H 	0.89950 0.82550 0.71930 0.30900
H 	H 	0.89890 0.80170 0.73380 0.30100
H 	H 	0.85760 0.81440 0.74780 0.29800
C 	C 	0.94670 0.86277 0.27800 0.01900
C 	C 	0.93600 0.85668 0.17060 -0.15100
H 	H 	0.90610 0.85780 0.16000 0.07900
H 	H 	0.94420 0.84260 0.15900 0.06900
C 	C 	0.95890 0.87059 0.09460 -0.07100
H 	H 	0.95190 0.86690 0.02420 0.03000
H 	H 	0.98890 0.86930 0.10340 0.04000
C 	C 	0.94390 0.89400 0.11840 -0.07000
H 	H 	0.95780 0.90330 0.07110 0.03100
H 	H 	0.91400 0.89520 0.10740 0.04400
C 	C 	0.95410 0.89998 0.22710 -0.15300
H 	H 	0.94400 0.91370 0.24030 0.07100
H 	H 	0.98420 0.89990 0.23670 0.07500
C 	C 	0.93390 0.88519 0.30300 0.03600
C 	C 	0.94710 0.91248 0.55540 -0.10100
C 	C 	0.93632 0.89790 0.63500 0.12600
C 	C 	0.93210 0.90521 0.73450 0.08600
C 	C 	0.94220 0.92499 0.75760 -0.08400
H 	H 	0.94010 0.92940 0.82570 0.05700
C 	C 	0.95540 0.93893 0.68220 -0.10000
C 	C 	0.95680 0.93210 0.58130 0.02800
H 	H 	0.96470 0.94120 0.52950 0.01000
C 	C 	0.94600 0.90645 0.44700 0.04500
H 	H 	0.94990 0.91670 0.39830 0.01300
C 	C 	0.91680 0.89040 0.81770 -0.54600
H 	H 	0.91110 0.87730 0.78710 0.19100
H 	H 	0.89160 0.89570 0.84840 0.17600
H 	H 	0.93790 0.88890 0.86980 0.18000
C 	C 	0.97270 0.96002 0.71400 0.40700
N 	N 	0.92731 0.85010 0.35970 -0.21600
N 	N 	0.94014 0.88819 0.41270 -0.22900
N 	N 	0.70058 0.85840 0.16230 -0.23100
N 	N 	0.67184 0.89465 0.10770 -0.24100
O 	O 	0.96180 0.96710 0.80300 -0.46000
O 	O 	0.97840 0.97300 0.65050 -0.53300
O 	O 	0.91623 0.83978 0.56610 -0.36800
O 	O 	0.92823 0.87893 0.61470 -0.40100
O 	O 	0.66645 0.90896 0.30800 -0.40400
O 	O 	0.67692 0.86901 0.35790 -0.39600
O 	O 	0.56740 0.98927 0.22130 -0.50000
O 	O 	0.57310 0.97862 0.06770 -0.44000
O 	O 	0.81740 0.77105 0.32900 -0.41400
O 	O 	0.81040 0.76012 0.50070 -0.20000
O 	O 	0.71720 0.77367 0.40010 -0.42300
O 	O 	0.71020 0.78300 0.56190 -0.21500
Fe	Fe	0.69632 0.38605 0.74892 1.21800
Fe	Fe	0.94539 0.36187 0.00397 1.22300
Ba	Ba	0.99480 0.50037 0.33103 0.82500
C 	C 	0.60480 0.45898 0.69390 -0.16200
C 	C 	0.60840 0.45477 0.80080 -0.00800
H 	H 	0.59480 0.46320 0.84790 0.01500
C 	C 	0.63100 0.43888 0.83590 0.00800
C 	C 	0.64730 0.42391 0.77140 0.19000
C 	C 	0.64300 0.42727 0.66120 -0.13800
C 	C 	0.61920 0.44310 0.62860 0.06400
H 	H 	0.61190 0.44360 0.55920 0.01700
C 	C 	0.57950 0.47710 0.66180 0.47300
C 	C 	0.63390 0.43500 0.96010 -0.45700
H 	H 	0.62060 0.44610 0.99580 0.15900
H 	H 	0.66280 0.43420 0.98030 0.16800
H 	H 	0.62010 0.42240 0.97710 0.15800
C 	C 	0.65340 0.41136 0.59090 0.07500
H 	H 	0.64560 0.41360 0.52270 0.00800
C 	C 	0.67380 0.37904 0.52430 0.02900
C 	C 	0.68060 0.38731 0.41740 -0.15400
H 	H 	0.70590 0.39550 0.41540 0.07100
H 	H 	0.65720 0.39590 0.39740 0.07800
C 	C 	0.68450 0.36840 0.34040 -0.07400
H 	H 	0.65830 0.36090 0.33980 0.04600
H 	H 	0.68960 0.37340 0.27110 0.02900
C 	C 	0.71800 0.35490 0.37070 -0.05800
H 	H 	0.74430 0.36230 0.36990 0.03600
H 	H 	0.72010 0.34370 0.32170 0.03300
C 	C 	0.71010 0.34606 0.48150 -0.16100
H 	H 	0.68370 0.33870 0.48340 0.08200
H 	H 	0.73230 0.33670 0.50040 0.08200
C 	C 	0.70900 0.36382 0.55510 0.02600
C 	C 	0.69660 0.33544 0.80080 -0.10300
C 	C 	0.70220 0.31474 0.82900 0.02800
H 	H 	0.70920 0.30540 0.77770 0.00600
C 	C 	0.69800 0.30784 0.92710 -0.09800
C 	C 	0.68270 0.32264 0.99800 -0.10600
H 	H 	0.67760 0.31820 0.06500 0.06500
C 	C 	0.67460 0.34318 0.97720 0.12200
C 	C 	0.68248 0.34962 0.87940 0.10600
C 	C 	0.70180 0.34077 0.69690 0.06800
H 	H 	0.70670 0.33020 0.65020 0.00900
C 	C 	0.70390 0.28719 0.96020 0.33500
C 	C 	0.65870 0.35771 0.05620 -0.61200
H 	H 	0.65630 0.37110 0.02650 0.21500
H 	H 	0.67770 0.35810 0.11350 0.19900
H 	H 	0.63170 0.35330 0.07980 0.19400
C 	C 	0.84700 0.29102 0.96020 0.04900
C 	C 	0.86620 0.30304 0.88860 -0.10100
H 	H 	0.86440 0.29980 0.81880 0.07400
C 	C 	0.88950 0.32095 0.92140 -0.00500
C 	C 	0.89400 0.32364 0.02720 -0.00100
C 	C 	0.87410 0.31082 0.10280 0.32800
C 	C 	0.85360 0.29430 0.06320 -0.28000
H 	H 	0.84340 0.28460 0.10930 0.14800
C 	C 	0.82400 0.27378 0.91880 0.25400
C 	C 	0.90700 0.33336 0.84410 0.00400
H 	H 	0.90360 0.32920 0.77600 0.03000
C 	C 	0.88330 0.31332 0.20960 -0.92200
H 	H 	0.89950 0.32550 0.21930 0.30900
H 	H 	0.89890 0.30170 0.23380 0.30100
H 	H 	0.85760 0.31440 0.24780 0.29800
C 	C 	0.94670 0.36277 0.77800 0.01900
C 	C 	0.93600 0.35668 0.67060 -0.15100
H 	H 	0.90610 0.35780 0.66000 0.07900
H 	H 	0.94420 0.34260 0.65900 0.06900
C 	C 	0.95890 0.37059 0.59460 -0.07100
H 	H 	0.95190 0.36690 0.52420 0.03000
H 	H 	0.98890 0.36930 0.60340 0.04000
C 	C 	0.94390 0.39400 0.61840 -0.07000
H 	H 	0.95780 0.40330 0.57110 0.03100
H 	H 	0.91400 0.39520 0.60740 0.04500
C 	C 	0.95410 0.39998 0.72710 -0.15300
H 	H 	0.94400 0.41370 0.74030 0.07100
H 	H 	0.98420 0.39990 0.73670 0.07500
C 	C 	0.93390 0.38519 0.80300 0.03600
C 	C 	0.94710 0.41248 0.05540 -0.10200
C 	C 	0.93632 0.39790 0.13500 0.12600
C 	C 	0.93210 0.40521 0.23450 0.08500
C 	C 	0.94220 0.42499 0.25760 -0.08400
H 	H 	0.94010 0.42940 0.32570 0.05600
C 	C 	0.95540 0.43893 0.18220 -0.10000
C 	C 	0.95680 0.43210 0.08130 0.02900
H 	H 	0.96470 0.44120 0.02950 0.01000
C 	C 	0.94600 0.40645 0.94700 0.04700
H 	H 	0.94990 0.41670 0.89830 0.01300
C 	C 	0.91680 0.39040 0.31770 -0.54500
H 	H 	0.91110 0.37730 0.28710 0.19100
H 	H 	0.89160 0.39570 0.34840 0.17500
H 	H 	0.93790 0.38890 0.36980 0.18000
C 	C 	0.97270 0.46002 0.21400 0.40700
N 	N 	0.92731 0.35010 0.85970 -0.21600
N 	N 	0.94014 0.38819 0.91270 -0.22900
N 	N 	0.70058 0.35840 0.66230 -0.23100
N 	N 	0.67184 0.39465 0.60770 -0.24100
O 	O 	0.96180 0.46710 0.30300 -0.46000
O 	O 	0.97840 0.47300 0.15050 -0.53200
O 	O 	0.91623 0.33978 0.06610 -0.36800
O 	O 	0.92823 0.37893 0.11470 -0.40100
O 	O 	0.66645 0.40896 0.80800 -0.40400
O 	O 	0.67692 0.36901 0.85790 -0.39600
O 	O 	0.56740 0.48927 0.72130 -0.50000
O 	O 	0.57310 0.47862 0.56770 -0.44000
O 	O 	0.81740 0.27105 0.82900 -0.41400
O 	O 	0.81040 0.26012 0.00070 -0.20000
O 	O 	0.71720 0.27367 0.90010 -0.42300
O 	O 	0.71020 0.28300 0.06190 -0.21500
Fe	Fe	0.80368 0.11395 0.74892 1.21800
Fe	Fe	0.55461 0.13813 0.00397 1.22100
Ba	Ba	0.50520 0.99963 0.33103 0.86400
C 	C 	0.89520 0.04102 0.69390 -0.16100
C 	C 	0.89160 0.04523 0.80080 -0.00900
H 	H 	0.90520 0.03680 0.84790 0.01600
C 	C 	0.86900 0.06112 0.83590 0.00800
C 	C 	0.85270 0.07609 0.77140 0.18900
C 	C 	0.85700 0.07273 0.66120 -0.13800
C 	C 	0.88080 0.05690 0.62860 0.06300
H 	H 	0.88810 0.05640 0.55920 0.01800
C 	C 	0.92050 0.02290 0.66180 0.47200
C 	C 	0.86610 0.06500 0.96010 -0.45700
H 	H 	0.87940 0.05390 0.99580 0.16000
H 	H 	0.83720 0.06580 0.98030 0.16800
H 	H 	0.87990 0.07760 0.97710 0.15900
C 	C 	0.84660 0.08864 0.59090 0.07400
H 	H 	0.85440 0.08640 0.52270 0.00800
C 	C 	0.82620 0.12096 0.52430 0.02900
C 	C 	0.81940 0.11269 0.41740 -0.15400
H 	H 	0.79410 0.10450 0.41540 0.07100
H 	H 	0.84280 0.10410 0.39740 0.07800
C 	C 	0.81550 0.13160 0.34040 -0.07400
H 	H 	0.84170 0.13910 0.33980 0.04600
H 	H 	0.81040 0.12660 0.27110 0.02900
C 	C 	0.78200 0.14510 0.37070 -0.05800
H 	H 	0.75570 0.13770 0.36990 0.03600
H 	H 	0.77990 0.15630 0.32170 0.03300
C 	C 	0.78990 0.15394 0.48150 -0.16100
H 	H 	0.81630 0.16130 0.48340 0.08200
H 	H 	0.76770 0.16330 0.50040 0.08200
C 	C 	0.79100 0.13618 0.55510 0.02600
C 	C 	0.80340 0.16456 0.80080 -0.10300
C 	C 	0.79780 0.18526 0.82900 0.02800
H 	H 	0.79080 0.19460 0.77770 0.00600
C 	C 	0.80200 0.19216 0.92710 -0.09800
C 	C 	0.81730 0.17736 0.99800 -0.10600
H 	H 	0.82240 0.18180 0.06500 0.06500
C 	C 	0.82540 0.15682 0.97720 0.12300
C 	C 	0.81752 0.15038 0.87940 0.10600
C 	C 	0.79820 0.15923 0.69690 0.06700
H 	H 	0.79330 0.16980 0.65020 0.00900
C 	C 	0.79610 0.21281 0.96020 0.33500
C 	C 	0.84130 0.14229 0.05620 -0.61200
H 	H 	0.84370 0.12890 0.02650 0.21500
H 	H 	0.82230 0.14190 0.11350 0.19900
H 	H 	0.86830 0.14670 0.07980 0.19400
C 	C 	0.65300 0.20898 0.96020 0.04800
C 	C 	0.63380 0.19696 0.88860 -0.10000
H 	H 	0.63560 0.20020 0.81880 0.07300
C 	C 	0.61050 0.17905 0.92140 -0.00600
C 	C 	0.60600 0.17636 0.02720 -0.00100
C 	C 	0.62590 0.18918 0.10280 0.32600
C 	C 	0.64640 0.20570 0.06320 -0.27900
H 	H 	0.65660 0.21540 0.10930 0.14800
C 	C 	0.67600 0.22622 0.91880 0.25400
C 	C 	0.59300 0.16664 0.84410 0.00400
H 	H 	0.59640 0.17080 0.77600 0.02900
C 	C 	0.61670 0.18668 0.20960 -0.91800
H 	H 	0.60050 0.17450 0.21930 0.30700
H 	H 	0.60110 0.19830 0.23380 0.29900
H 	H 	0.64240 0.18560 0.24780 0.29700
C 	C 	0.55330 0.13723 0.77800 0.01800
C 	C 	0.56400 0.14332 0.67060 -0.15100
H 	H 	0.59390 0.14220 0.66000 0.07900
H 	H 	0.55580 0.15740 0.65900 0.06900
C 	C 	0.54110 0.12941 0.59460 -0.06900
H 	H 	0.54810 0.13310 0.52420 0.02800
H 	H 	0.51110 0.13070 0.60340 0.03700
C 	C 	0.55610 0.10600 0.61840 -0.07200
H 	H 	0.54220 0.09670 0.57110 0.03000
H 	H 	0.58600 0.10480 0.60740 0.04500
C 	C 	0.54590 0.10002 0.72710 -0.15100
H 	H 	0.55600 0.08630 0.74030 0.06900
H 	H 	0.51580 0.10010 0.73670 0.07200
C 	C 	0.56610 0.11481 0.80300 0.03600
C 	C 	0.55290 0.08752 0.05540 -0.10500
C 	C 	0.56368 0.10210 0.13500 0.12700
C 	C 	0.56790 0.09479 0.23450 0.08200
C 	C 	0.55780 0.07501 0.25760 -0.08300
H 	H 	0.55990 0.07060 0.32570 0.05500
C 	C 	0.54460 0.06107 0.18220 -0.10300
C 	C 	0.54320 0.06790 0.08130 0.03000
H 	H 	0.53530 0.05880 0.02950 0.00700
C 	C 	0.55400 0.09355 0.94700 0.04700
H 	H 	0.55010 0.08330 0.89830 0.01200
C 	C 	0.58320 0.10960 0.31770 -0.54100
H 	H 	0.58890 0.12270 0.28710 0.18900
H 	H 	0.60840 0.10430 0.34840 0.17400
H 	H 	0.56210 0.11110 0.36980 0.17700
C 	C 	0.52730 0.03998 0.21400 0.40800
N 	N 	0.57269 0.14990 0.85970 -0.21600
N 	N 	0.55986 0.11181 0.91270 -0.23000
N 	N 	0.79942 0.14160 0.66230 -0.23100
N 	N 	0.82816 0.10535 0.60770 -0.24100
O 	O 	0.53820 0.03290 0.30300 -0.46200
O 	O 	0.52160 0.02700 0.15050 -0.53700
O 	O 	0.58377 0.16022 0.06610 -0.36900
O 	O 	0.57177 0.12107 0.11470 -0.40200
O 	O 	0.83355 0.09104 0.80800 -0.40400
O 	O 	0.82308 0.13099 0.85790 -0.39600
O 	O 	0.93260 0.01073 0.72130 -0.49700
O 	O 	0.92690 0.02138 0.56770 -0.43700
O 	O 	0.68260 0.22895 0.82900 -0.41400
O 	O 	0.68960 0.23988 0.00070 -0.20000
O 	O 	0.78280 0.22633 0.90010 -0.42300
O 	O 	0.78980 0.21700 0.06190 -0.21400
Fe	Fe	0.80368 0.61395 0.24892 1.21800
Fe	Fe	0.55461 0.63813 0.50397 1.22200
Ba	Ba	0.50520 0.49963 0.83103 0.86500
C 	C 	0.89520 0.54102 0.19390 -0.16100
C 	C 	0.89160 0.54523 0.30080 -0.00900
H 	H 	0.90520 0.53680 0.34790 0.01600
C 	C 	0.86900 0.56112 0.33590 0.00800
C 	C 	0.85270 0.57609 0.27140 0.19000
C 	C 	0.85700 0.57273 0.16120 -0.13800
C 	C 	0.88080 0.55690 0.12860 0.06400
H 	H 	0.88810 0.55640 0.05920 0.01700
C 	C 	0.92050 0.52290 0.16180 0.47200
C 	C 	0.86610 0.56500 0.46010 -0.45700
H 	H 	0.87940 0.55390 0.49580 0.16000
H 	H 	0.83720 0.56580 0.48030 0.16800
H 	H 	0.87990 0.57760 0.47710 0.15800
C 	C 	0.84660 0.58864 0.09090 0.07500
H 	H 	0.85440 0.58640 0.02270 0.00800
C 	C 	0.82620 0.62096 0.02430 0.02800
C 	C 	0.81940 0.61269 0.91740 -0.15400
H 	H 	0.79410 0.60450 0.91540 0.07200
H 	H 	0.84280 0.60410 0.89740 0.07800
C 	C 	0.81550 0.63160 0.84040 -0.07300
H 	H 	0.84170 0.63910 0.83980 0.04600
H 	H 	0.81040 0.62660 0.77110 0.02900
C 	C 	0.78200 0.64510 0.87070 -0.05900
H 	H 	0.75570 0.63770 0.86990 0.03700
H 	H 	0.77990 0.65630 0.82170 0.03400
C 	C 	0.78990 0.65394 0.98150 -0.15800
H 	H 	0.81630 0.66130 0.98340 0.08200
H 	H 	0.76770 0.66330 0.00040 0.08100
C 	C 	0.79100 0.63618 0.05510 0.02400
C 	C 	0.80340 0.66456 0.30080 -0.10300
C 	C 	0.79780 0.68526 0.32900 0.02800
H 	H 	0.79080 0.69460 0.27770 0.00600
C 	C 	0.80200 0.69216 0.42710 -0.09800
C 	C 	0.81730 0.67736 0.49800 -0.10500
H 	H 	0.82240 0.68180 0.56500 0.06400
C 	C 	0.82540 0.65682 0.47720 0.12300
C 	C 	0.81752 0.65038 0.37940 0.10600
C 	C 	0.79820 0.65923 0.19690 0.06700
H 	H 	0.79330 0.66980 0.15020 0.00900
C 	C 	0.79610 0.71281 0.46020 0.33600
C 	C 	0.84130 0.64229 0.55620 -0.61300
H 	H 	0.84370 0.62890 0.52650 0.21500
H 	H 	0.82230 0.64190 0.61350 0.19900
H 	H 	0.86830 0.64670 0.57980 0.19400
C 	C 	0.65300 0.70898 0.46020 0.04900
C 	C 	0.63380 0.69696 0.38860 -0.10000
H 	H 	0.63560 0.70020 0.31880 0.07400
C 	C 	0.61050 0.67905 0.42140 -0.00600
C 	C 	0.60600 0.67636 0.52720 -0.00100
C 	C 	0.62590 0.68918 0.60280 0.32600
C 	C 	0.64640 0.70570 0.56320 -0.27900
H 	H 	0.65660 0.71540 0.60930 0.14800
C 	C 	0.67600 0.72622 0.41880 0.25400
C 	C 	0.59300 0.66664 0.34410 0.00400
H 	H 	0.59640 0.67080 0.27600 0.02900
C 	C 	0.61670 0.68668 0.70960 -0.91900
H 	H 	0.60050 0.67450 0.71930 0.30700
H 	H 	0.60110 0.69830 0.73380 0.29900
H 	H 	0.64240 0.68560 0.74780 0.29700
C 	C 	0.55330 0.63723 0.27800 0.01800
C 	C 	0.56400 0.64332 0.17060 -0.15100
H 	H 	0.59390 0.64220 0.16000 0.07900
H 	H 	0.55580 0.65740 0.15900 0.06900
C 	C 	0.54110 0.62941 0.09460 -0.06900
H 	H 	0.54810 0.63310 0.02420 0.02800
H 	H 	0.51110 0.63070 0.10340 0.03700
C 	C 	0.55610 0.60600 0.11840 -0.07200
H 	H 	0.54220 0.59670 0.07110 0.03000
H 	H 	0.58600 0.60480 0.10740 0.04500
C 	C 	0.54590 0.60002 0.22710 -0.15100
H 	H 	0.55600 0.58630 0.24030 0.06900
H 	H 	0.51580 0.60010 0.23670 0.07200
C 	C 	0.56610 0.61481 0.30300 0.03600
C 	C 	0.55290 0.58752 0.55540 -0.10300
C 	C 	0.56368 0.60210 0.63500 0.12600
C 	C 	0.56790 0.59479 0.73450 0.08300
C 	C 	0.55780 0.57501 0.75760 -0.08300
H 	H 	0.55990 0.57060 0.82570 0.05500
C 	C 	0.54460 0.56107 0.68220 -0.10200
C 	C 	0.54320 0.56790 0.58130 0.02900
H 	H 	0.53530 0.55880 0.52950 0.00800
C 	C 	0.55400 0.59355 0.44700 0.04500
H 	H 	0.55010 0.58330 0.39830 0.01200
C 	C 	0.58320 0.60960 0.81770 -0.54200
H 	H 	0.58890 0.62270 0.78710 0.19000
H 	H 	0.60840 0.60430 0.84840 0.17500
H 	H 	0.56210 0.61110 0.86980 0.17700
C 	C 	0.52730 0.53998 0.71400 0.40800
N 	N 	0.57269 0.64990 0.35970 -0.21600
N 	N 	0.55986 0.61181 0.41270 -0.22900
N 	N 	0.79942 0.64160 0.16230 -0.23100
N 	N 	0.82816 0.60535 0.10770 -0.24100
O 	O 	0.53820 0.53290 0.80300 -0.46200
O 	O 	0.52160 0.52700 0.65050 -0.53800
O 	O 	0.58377 0.66022 0.56610 -0.36900
O 	O 	0.57177 0.62107 0.61470 -0.40200
O 	O 	0.83355 0.59104 0.30800 -0.40400
O 	O 	0.82308 0.63099 0.35790 -0.39600
O 	O 	0.93260 0.51073 0.22130 -0.49700
O 	O 	0.92690 0.52138 0.06770 -0.43700
O 	O 	0.68260 0.72895 0.32900 -0.41400
O 	O 	0.68960 0.73988 0.50070 -0.20000
O 	O 	0.78280 0.72633 0.40010 -0.42300
O 	O 	0.78980 0.71700 0.56190 -0.21500
Fe	Fe	0.30368 0.11395 0.24892 1.21800
Fe	Fe	0.05461 0.13813 0.50397 1.22100
Ba	Ba	0.00520 0.99963 0.83103 0.90500
C 	C 	0.39520 0.04102 0.19390 -0.16200
C 	C 	0.39160 0.04523 0.30080 -0.00800
H 	H 	0.40520 0.03680 0.34790 0.01500
C 	C 	0.36900 0.06112 0.33590 0.00800
C 	C 	0.35270 0.07609 0.27140 0.19000
C 	C 	0.35700 0.07273 0.16120 -0.13800
C 	C 	0.38080 0.05690 0.12860 0.06400
H 	H 	0.38810 0.05640 0.05920 0.01700
C 	C 	0.42050 0.02290 0.16180 0.47300
C 	C 	0.36610 0.06500 0.46010 -0.45600
H 	H 	0.37940 0.05390 0.49580 0.15900
H 	H 	0.33720 0.06580 0.48030 0.16800
H 	H 	0.37990 0.07760 0.47710 0.15800
C 	C 	0.34660 0.08864 0.09090 0.07500
H 	H 	0.35440 0.08640 0.02270 0.00800
C 	C 	0.32620 0.12096 0.02430 0.02800
C 	C 	0.31940 0.11269 0.91740 -0.15400
H 	H 	0.29410 0.10450 0.91540 0.07200
H 	H 	0.34280 0.10410 0.89740 0.07800
C 	C 	0.31550 0.13160 0.84040 -0.07300
H 	H 	0.34170 0.13910 0.83980 0.04600
H 	H 	0.31040 0.12660 0.77110 0.02900
C 	C 	0.28200 0.14510 0.87070 -0.06000
H 	H 	0.25570 0.13770 0.86990 0.03700
H 	H 	0.27990 0.15630 0.82170 0.03400
C 	C 	0.28990 0.15394 0.98150 -0.15700
H 	H 	0.31630 0.16130 0.98340 0.08200
H 	H 	0.26770 0.16330 0.00040 0.08100
C 	C 	0.29100 0.13618 0.05510 0.02400
C 	C 	0.30340 0.16456 0.30080 -0.10300
C 	C 	0.29780 0.18526 0.32900 0.02800
H 	H 	0.29080 0.19460 0.27770 0.00600
C 	C 	0.30200 0.19216 0.42710 -0.09800
C 	C 	0.31730 0.17736 0.49800 -0.10500
H 	H 	0.32240 0.18180 0.56500 0.06400
C 	C 	0.32540 0.15682 0.47720 0.12200
C 	C 	0.31752 0.15038 0.37940 0.10600
C 	C 	0.29820 0.15923 0.19690 0.06800
H 	H 	0.29330 0.16980 0.15020 0.00900
C 	C 	0.29610 0.21281 0.46020 0.33600
C 	C 	0.34130 0.14229 0.55620 -0.61200
H 	H 	0.34370 0.12890 0.52650 0.21500
H 	H 	0.32230 0.14190 0.61350 0.19900
H 	H 	0.36830 0.14670 0.57980 0.19400
C 	C 	0.15300 0.20898 0.46020 0.04800
C 	C 	0.13380 0.19696 0.38860 -0.10000
H 	H 	0.13560 0.20020 0.31880 0.07300
C 	C 	0.11050 0.17905 0.42140 -0.00700
C 	C 	0.10600 0.17636 0.52720 -0.00100
C 	C 	0.12590 0.18918 0.60280 0.32400
C 	C 	0.14640 0.20570 0.56320 -0.27800
H 	H 	0.15660 0.21540 0.60930 0.14700
C 	C 	0.17600 0.22622 0.41880 0.25400
C 	C 	0.09300 0.16664 0.34410 0.00400
H 	H 	0.09640 0.17080 0.27600 0.02900
C 	C 	0.11670 0.18668 0.70960 -0.91500
H 	H 	0.10050 0.17450 0.71930 0.30500
H 	H 	0.10110 0.19830 0.73380 0.29700
H 	H 	0.14240 0.18560 0.74780 0.29600
C 	C 	0.05330 0.13723 0.27800 0.01700
C 	C 	0.06400 0.14332 0.17060 -0.15200
H 	H 	0.09390 0.14220 0.16000 0.07900
H 	H 	0.05580 0.15740 0.15900 0.06800
C 	C 	0.04110 0.12941 0.09460 -0.06700
H 	H 	0.04810 0.13310 0.02420 0.02600
H 	H 	0.01110 0.13070 0.10340 0.03400
C 	C 	0.05610 0.10600 0.11840 -0.07500
H 	H 	0.04220 0.09670 0.07110 0.03000
H 	H 	0.08600 0.10480 0.10740 0.04600
C 	C 	0.04590 0.10002 0.22710 -0.14900
H 	H 	0.05600 0.08630 0.24030 0.06800
H 	H 	0.01580 0.10010 0.23670 0.06900
C 	C 	0.06610 0.11481 0.30300 0.03500
C 	C 	0.05290 0.08752 0.55540 -0.10400
C 	C 	0.06368 0.10210 0.63500 0.12600
C 	C 	0.06790 0.09479 0.73450 0.08100
C 	C 	0.05780 0.07501 0.75760 -0.08300
H 	H 	0.05990 0.07060 0.82570 0.05500
C 	C 	0.04460 0.06107 0.68220 -0.10300
C 	C 	0.04320 0.06790 0.58130 0.02900
H 	H 	0.03530 0.05880 0.52950 0.00700
C 	C 	0.05400 0.09355 0.44700 0.04400
H 	H 	0.05010 0.08330 0.39830 0.01100
C 	C 	0.08320 0.10960 0.81770 -0.54000
H 	H 	0.08890 0.12270 0.78710 0.18800
H 	H 	0.10840 0.10430 0.84840 0.17400
H 	H 	0.06210 0.11110 0.86980 0.17500
C 	C 	0.02730 0.03998 0.71400 0.40700
N 	N 	0.07269 0.14990 0.35970 -0.21700
N 	N 	0.05986 0.11181 0.41270 -0.23000
N 	N 	0.29942 0.14160 0.16230 -0.23100
N 	N 	0.32816 0.10535 0.10770 -0.24100
O 	O 	0.03820 0.03290 0.80300 -0.46400
O 	O 	0.02160 0.02700 0.65050 -0.53800
O 	O 	0.08377 0.16022 0.56610 -0.37000
O 	O 	0.07177 0.12107 0.61470 -0.40200
O 	O 	0.33355 0.09104 0.30800 -0.40400
O 	O 	0.32308 0.13099 0.35790 -0.39600
O 	O 	0.43260 0.01073 0.22130 -0.50000
O 	O 	0.42690 0.02138 0.06770 -0.44000
O 	O 	0.18260 0.22895 0.32900 -0.41400
O 	O 	0.18960 0.23988 0.50070 -0.20100
O 	O 	0.28280 0.22633 0.40010 -0.42300
O 	O 	0.28980 0.21700 0.56190 -0.21500
Fe	Fe	0.30368 0.61395 0.74892 1.21800
Fe	Fe	0.05461 0.63813 0.00397 1.22100
Ba	Ba	0.00520 0.49963 0.33103 0.90600
C 	C 	0.39520 0.54102 0.69390 -0.16200
C 	C 	0.39160 0.54523 0.80080 -0.00800
H 	H 	0.40520 0.53680 0.84790 0.01500
C 	C 	0.36900 0.56112 0.83590 0.00800
C 	C 	0.35270 0.57609 0.77140 0.19000
C 	C 	0.35700 0.57273 0.66120 -0.13800
C 	C 	0.38080 0.55690 0.62860 0.06400
H 	H 	0.38810 0.55640 0.55920 0.01700
C 	C 	0.42050 0.52290 0.66180 0.47300
C 	C 	0.36610 0.56500 0.96010 -0.45700
H 	H 	0.37940 0.55390 0.99580 0.16000
H 	H 	0.33720 0.56580 0.98030 0.16800
H 	H 	0.37990 0.57760 0.97710 0.15800
C 	C 	0.34660 0.58864 0.59090 0.07500
H 	H 	0.35440 0.58640 0.52270 0.00800
C 	C 	0.32620 0.62096 0.52430 0.02900
C 	C 	0.31940 0.61269 0.41740 -0.15400
H 	H 	0.29410 0.60450 0.41540 0.07100
H 	H 	0.34280 0.60410 0.39740 0.07800
C 	C 	0.31550 0.63160 0.34040 -0.07400
H 	H 	0.34170 0.63910 0.33980 0.04600
H 	H 	0.31040 0.62660 0.27110 0.02900
C 	C 	0.28200 0.64510 0.37070 -0.05800
H 	H 	0.25570 0.63770 0.36990 0.03600
H 	H 	0.27990 0.65630 0.32170 0.03300
C 	C 	0.28990 0.65394 0.48150 -0.16100
H 	H 	0.31630 0.66130 0.48340 0.08200
H 	H 	0.26770 0.66330 0.50040 0.08200
C 	C 	0.29100 0.63618 0.55510 0.02600
C 	C 	0.30340 0.66456 0.80080 -0.10300
C 	C 	0.29780 0.68526 0.82900 0.02800
H 	H 	0.29080 0.69460 0.77770 0.00600
C 	C 	0.30200 0.69216 0.92710 -0.09800
C 	C 	0.31730 0.67736 0.99800 -0.10500
H 	H 	0.32240 0.68180 0.06500 0.06500
C 	C 	0.32540 0.65682 0.97720 0.12200
C 	C 	0.31752 0.65038 0.87940 0.10600
C 	C 	0.29820 0.65923 0.69690 0.06800
H 	H 	0.29330 0.66980 0.65020 0.00900
C 	C 	0.29610 0.71281 0.96020 0.33500
C 	C 	0.34130 0.64229 0.05620 -0.61200
H 	H 	0.34370 0.62890 0.02650 0.21500
H 	H 	0.32230 0.64190 0.11350 0.19900
H 	H 	0.36830 0.64670 0.07980 0.19400
C 	C 	0.15300 0.70898 0.96020 0.04800
C 	C 	0.13380 0.69696 0.88860 -0.10000
H 	H 	0.13560 0.70020 0.81880 0.07300
C 	C 	0.11050 0.67905 0.92140 -0.00700
C 	C 	0.10600 0.67636 0.02720 -0.00100
C 	C 	0.12590 0.68918 0.10280 0.32400
C 	C 	0.14640 0.70570 0.06320 -0.27800
H 	H 	0.15660 0.71540 0.10930 0.14700
C 	C 	0.17600 0.72622 0.91880 0.25400
C 	C 	0.09300 0.66664 0.84410 0.00400
H 	H 	0.09640 0.67080 0.77600 0.02900
C 	C 	0.11670 0.68668 0.20960 -0.91500
H 	H 	0.10050 0.67450 0.21930 0.30500
H 	H 	0.10110 0.69830 0.23380 0.29700
H 	H 	0.14240 0.68560 0.24780 0.29600
C 	C 	0.05330 0.63723 0.77800 0.01700
C 	C 	0.06400 0.64332 0.67060 -0.15200
H 	H 	0.09390 0.64220 0.66000 0.07900
H 	H 	0.05580 0.65740 0.65900 0.06800
C 	C 	0.04110 0.62941 0.59460 -0.06700
H 	H 	0.04810 0.63310 0.52420 0.02600
H 	H 	0.01110 0.63070 0.60340 0.03400
C 	C 	0.05610 0.60600 0.61840 -0.07500
H 	H 	0.04220 0.59670 0.57110 0.03000
H 	H 	0.08600 0.60480 0.60740 0.04600
C 	C 	0.04590 0.60002 0.72710 -0.14900
H 	H 	0.05600 0.58630 0.74030 0.06800
H 	H 	0.01580 0.60010 0.73670 0.06900
C 	C 	0.06610 0.61481 0.80300 0.03500
C 	C 	0.05290 0.58752 0.05540 -0.10600
C 	C 	0.06368 0.60210 0.13500 0.12700
C 	C 	0.06790 0.59479 0.23450 0.08000
C 	C 	0.05780 0.57501 0.25760 -0.08200
H 	H 	0.05990 0.57060 0.32570 0.05400
C 	C 	0.04460 0.56107 0.18220 -0.10400
C 	C 	0.04320 0.56790 0.08130 0.03000
H 	H 	0.03530 0.55880 0.02950 0.00600
C 	C 	0.05400 0.59355 0.94700 0.04600
H 	H 	0.05010 0.58330 0.89830 0.01100
C 	C 	0.08320 0.60960 0.31770 -0.53900
H 	H 	0.08890 0.62270 0.28710 0.18800
H 	H 	0.10840 0.60430 0.34840 0.17400
H 	H 	0.06210 0.61110 0.36980 0.17500
C 	C 	0.02730 0.53998 0.21400 0.40700
N 	N 	0.07269 0.64990 0.85970 -0.21600
N 	N 	0.05986 0.61181 0.91270 -0.23000
N 	N 	0.29942 0.64160 0.66230 -0.23100
N 	N 	0.32816 0.60535 0.60770 -0.24100
O 	O 	0.03820 0.53290 0.30300 -0.46500
O 	O 	0.02160 0.52700 0.15050 -0.53800
O 	O 	0.08377 0.66022 0.06610 -0.37000
O 	O 	0.07177 0.62107 0.11470 -0.40300
O 	O 	0.33355 0.59104 0.80800 -0.40400
O 	O 	0.32308 0.63099 0.85790 -0.39600
O 	O 	0.43260 0.51073 0.72130 -0.50000
O 	O 	0.42690 0.52138 0.56770 -0.44000
O 	O 	0.18260 0.72895 0.82900 -0.41400
O 	O 	0.18960 0.73988 0.00070 -0.20000
O 	O 	0.28280 0.72633 0.90010 -0.42300
O 	O 	0.28980 0.71700 0.06190 -0.21500
Ba	Ba	0.75000 0.75000 0.25000 2.40300
Ba	Ba	0.25000 0.25000 0.25000 2.40300
Ba	Ba	0.25000 0.75000 0.75000 2.40300
Ba	Ba	0.75000 0.25000 0.75000 2.40300
Ba	Ba	0.00000 0.00000 0.50000 2.18900
Ba	Ba	-0.00000 0.50000 -0.00000 2.18500
Ba	Ba	0.50000 0.00000 -0.00000 2.20400
Ba	Ba	0.50000 0.50000 0.50000 2.20800
O 	O 	0.50000 0.85775 -0.00000 -0.62300
O 	O 	0.50000 0.35775 0.50000 -0.62300
O 	O 	0.00000 0.85775 0.50000 -0.62700
O 	O 	-0.00000 0.35775 -0.00000 -0.62700
O 	O 	0.50000 0.14225 -0.00000 -0.62300
O 	O 	0.50000 0.64225 0.50000 -0.62300
O 	O 	0.00000 0.14225 0.50000 -0.62700
O 	O 	0.00000 0.64225 -0.00000 -0.62700
O 	O 	0.75000 0.89284 0.25000 -0.61700
O 	O 	0.75000 0.39284 0.75000 -0.61600
O 	O 	0.25000 0.39284 0.25000 -0.61600
O 	O 	0.25000 0.10716 0.25000 -0.61600
O 	O 	0.25000 0.60716 0.75000 -0.61600
O 	O 	0.25000 0.89284 0.75000 -0.61600
O 	O 	0.75000 0.10716 0.75000 -0.61600
O 	O 	0.75000 0.60716 0.25000 -0.61700
O 	O 	0.44760 0.00000 0.50000 -0.43800
O 	O 	0.44760 0.50000 -0.00000 -0.43800
O 	O 	0.94760 0.00000 -0.00000 -0.43400
O 	O 	0.94760 0.50000 0.50000 -0.43400
O 	O 	0.55240 0.00000 0.50000 -0.43800
O 	O 	0.55240 0.50000 -0.00000 -0.43800
O 	O 	0.05240 0.00000 -0.00000 -0.44200
O 	O 	0.05240 0.50000 0.50000 -0.44200
