data_crystal

_cell_length_a 6.37160
_cell_length_b 13.16460
_cell_length_c 14.86220
_cell_angle_alpha 90.00000
_cell_angle_beta  90.00000
_cell_angle_gamma 90.00000

_symmetry_space_group_name_	'P 1'
_symmetry_space_group_name_H-M	'P 1'

loop_
_symmetry_equiv_pos_as_xyz
  x,y,z

loop_
_atom_site_label
_atom_site_type_symbol
_atom_site_fract_x
_atom_site_fract_y
_atom_site_fract_z
_atom_site_charge
N 	N 	0.44820 0.64470 0.65860 -0.20600
C 	C 	0.52030 0.55350 0.68570 0.10600
H 	H 	0.47380 0.52750 0.74040 -0.02000
C 	C 	0.66100 0.49710 0.63540 -0.21600
H 	H 	0.70570 0.43420 0.65640 0.09500
C 	C 	0.73430 0.53320 0.55440 0.17100
C 	C 	0.65430 0.62590 0.52730 -0.22600
H 	H 	0.69530 0.65330 0.47230 0.09900
C 	C 	0.51660 0.67760 0.57990 0.12200
H 	H 	0.46750 0.73990 0.55940 -0.03100
C 	C 	0.89150 0.47620 0.49960 -0.21600
H 	H 	0.92400 0.40800 0.51400 0.09100
H 	H 	0.83000 0.46500 0.44600 0.09800
N 	N 	0.05180 0.85530 0.65860 -0.20100
C 	C 	0.97970 0.94650 0.68570 0.09100
H 	H 	0.02620 0.97250 0.74040 -0.01400
C 	C 	0.83900 0.00290 0.63540 -0.20200
H 	H 	0.79430 0.06580 0.65640 0.09100
C 	C 	0.76570 0.96680 0.55440 0.16200
C 	C 	0.84570 0.87410 0.52730 -0.21700
H 	H 	0.80470 0.84670 0.47230 0.09600
C 	C 	0.98340 0.82240 0.57990 0.11200
H 	H 	0.03250 0.76010 0.55940 -0.02600
C 	C 	0.60850 0.02380 0.49960 -0.21200
H 	H 	0.57600 0.09200 0.51400 0.08900
H 	H 	0.67000 0.03500 0.44600 0.09700
N 	N 	0.05180 0.64470 0.84140 -0.20400
C 	C 	0.97970 0.55350 0.81430 0.10000
H 	H 	0.02620 0.52750 0.75960 -0.01800
C 	C 	0.83900 0.49710 0.86460 -0.21200
H 	H 	0.79430 0.43420 0.84360 0.09400
C 	C 	0.76570 0.53320 0.94560 0.16800
C 	C 	0.84570 0.62590 0.97270 -0.22100
H 	H 	0.80470 0.65330 0.02770 0.09800
C 	C 	0.98340 0.67760 0.92010 0.11400
H 	H 	0.03250 0.73990 0.94060 -0.02700
C 	C 	0.60850 0.47620 0.00040 -0.21500
H 	H 	0.57600 0.40800 0.98600 0.09000
H 	H 	0.67000 0.46500 0.05400 0.09800
N 	N 	0.44820 0.85530 0.84140 -0.20600
C 	C 	0.52030 0.94650 0.81430 0.10400
H 	H 	0.47380 0.97250 0.75960 -0.02000
C 	C 	0.66100 0.00290 0.86460 -0.21400
H 	H 	0.70570 0.06580 0.84360 0.09400
C 	C 	0.73430 0.96680 0.94560 0.16700
C 	C 	0.65430 0.87410 0.97270 -0.22200
H 	H 	0.69530 0.84670 0.02770 0.09700
C 	C 	0.51660 0.82240 0.92010 0.12000
H 	H 	0.46750 0.76010 0.94060 -0.03000
C 	C 	0.89150 0.02380 0.00040 -0.21000
H 	H 	0.92400 0.09200 0.98600 0.08800
H 	H 	0.83000 0.03500 0.05400 0.09700
N 	N 	0.55180 0.35530 0.34140 -0.20700
C 	C 	0.47970 0.44650 0.31430 0.10500
H 	H 	0.52620 0.47250 0.25960 -0.02000
C 	C 	0.33900 0.50290 0.36460 -0.21600
H 	H 	0.29430 0.56580 0.34360 0.09500
C 	C 	0.26570 0.46680 0.44560 0.17100
C 	C 	0.34570 0.37410 0.47270 -0.22600
H 	H 	0.30470 0.34670 0.52770 0.09900
C 	C 	0.48340 0.32240 0.42010 0.12200
H 	H 	0.53250 0.26010 0.44060 -0.03100
C 	C 	0.10850 0.52380 0.50040 -0.21600
H 	H 	0.07600 0.59200 0.48600 0.09100
H 	H 	0.17000 0.53500 0.55400 0.09800
N 	N 	0.94820 0.14470 0.34140 -0.20100
C 	C 	0.02030 0.05350 0.31430 0.09100
H 	H 	0.97380 0.02750 0.25960 -0.01400
C 	C 	0.16100 0.99710 0.36460 -0.20200
H 	H 	0.20570 0.93420 0.34360 0.09100
C 	C 	0.23430 0.03320 0.44560 0.16200
C 	C 	0.15430 0.12590 0.47270 -0.21700
H 	H 	0.19530 0.15330 0.52770 0.09600
C 	C 	0.01660 0.17760 0.42010 0.11200
H 	H 	0.96750 0.23990 0.44060 -0.02600
C 	C 	0.39150 0.97620 0.50040 -0.21200
H 	H 	0.42400 0.90800 0.48600 0.08900
H 	H 	0.33000 0.96500 0.55400 0.09700
N 	N 	0.94820 0.35530 0.15860 -0.20400
C 	C 	0.02030 0.44650 0.18570 0.10000
H 	H 	0.97380 0.47250 0.24040 -0.01800
C 	C 	0.16100 0.50290 0.13540 -0.21200
H 	H 	0.20570 0.56580 0.15640 0.09400
C 	C 	0.23430 0.46680 0.05440 0.16800
C 	C 	0.15430 0.37410 0.02730 -0.22100
H 	H 	0.19530 0.34670 0.97230 0.09800
C 	C 	0.01660 0.32240 0.07990 0.11400
H 	H 	0.96750 0.26010 0.05940 -0.02700
C 	C 	0.39150 0.52380 0.99960 -0.21500
H 	H 	0.42400 0.59200 0.01400 0.09000
H 	H 	0.33000 0.53500 0.94600 0.09800
N 	N 	0.55180 0.14470 0.15860 -0.20600
C 	C 	0.47970 0.05350 0.18570 0.10400
H 	H 	0.52620 0.02750 0.24040 -0.02000
C 	C 	0.33900 0.99710 0.13540 -0.21400
H 	H 	0.29430 0.93420 0.15640 0.09400
C 	C 	0.26570 0.03320 0.05440 0.16700
C 	C 	0.34570 0.12590 0.02730 -0.22200
H 	H 	0.30470 0.15330 0.97230 0.09700
C 	C 	0.48340 0.17760 0.07990 0.12000
H 	H 	0.53250 0.23990 0.05940 -0.03000
C 	C 	0.10850 0.97620 0.99960 -0.21000
H 	H 	0.07600 0.90800 0.01400 0.08800
H 	H 	0.17000 0.96500 0.94600 0.09700
Ag	Ag	0.25000 0.75000 0.75000 0.53800
Ag	Ag	0.75000 0.25000 0.25000 0.53800
