data_crystal

_cell_length_a 15.08100
_cell_length_b 14.53800
_cell_length_c 17.93500
_cell_angle_alpha 90.00000
_cell_angle_beta  95.95100
_cell_angle_gamma 90.00000

_symmetry_space_group_name_	'P 1'
_symmetry_space_group_name_H-M	'P 1'

loop_
_symmetry_equiv_pos_as_xyz
  x,y,z

loop_
_atom_site_label
_atom_site_type_symbol
_atom_site_fract_x
_atom_site_fract_y
_atom_site_fract_z
_atom_site_charge
Cd	Cd	0.46582 0.10405 0.47998 1.22400
Cd	Cd	0.09343 0.13285 0.83500 1.21900
O 	O 	0.51880 0.82310 0.52510 -0.28800
C 	C 	0.69350 0.03390 0.59610 -0.14100
O 	O 	0.36770 0.98920 0.43780 -0.36700
C 	C 	0.63470 0.96390 0.57130 0.09700
H 	H 	0.57940 0.97970 0.54680 -0.02900
O 	O 	0.62130 0.71710 0.56100 -0.42500
O 	O 	0.72270 0.19440 0.60660 -0.22000
C 	C 	0.24360 0.06490 0.36670 -0.11000
H 	H 	0.28670 0.11300 0.35760 0.07700
N 	N 	0.41800 0.07430 0.59280 -0.23200
C 	C 	0.80360 0.92040 0.63170 -0.04600
O 	O 	0.59300 0.15200 0.54650 -0.38900
C 	C 	0.59250 0.79950 0.55310 0.34500
O 	O 	0.26000 0.90200 0.38390 -0.21400
C 	C 	0.74530 0.85090 0.61450 0.01900
H 	H 	0.76220 0.79010 0.62360 0.04200
N 	N 	0.54410 0.06620 0.38350 -0.23400
O 	O 	0.91340 0.85690 0.72570 -0.20300
N 	N 	0.41050 0.05930 0.71470 -0.13700
O 	O 	0.17550 0.08570 0.95220 -0.36600
C 	C 	0.66880 0.13370 0.58210 0.34000
N 	N 	0.18650 0.04500 0.29770 -0.11300
C 	C 	0.89750 0.89920 0.66530 0.19600
C 	C 	0.17960 0.09990 0.41900 -0.03100
H 	H 	0.20490 0.15210 0.44750 0.03700
H 	H 	0.16570 0.05210 0.45360 0.03300
C 	C 	0.36920 0.06090 0.84200 -0.09600
H 	H 	0.30950 0.06710 0.82380 0.05400
C 	C 	0.46140 0.08020 0.65930 0.10600
H 	H 	0.52110 0.09700 0.66770 -0.00100
C 	C 	0.05790 0.87140 0.12030 -0.05800
O 	O 	0.04120 0.02470 0.91990 -0.34600
C 	C 	0.32530 0.03740 0.67880 -0.02500
H 	H 	0.27460 0.02000 0.70080 0.05000
C 	C 	0.50540 0.06190 0.31570 0.09900
H 	H 	0.44400 0.06210 0.30300 0.00300
C 	C 	0.48220 0.04960 0.94780 -0.00300
C 	C 	0.39420 0.05710 0.91750 -0.02900
H 	H 	0.35010 0.05960 0.94990 0.05200
C 	C 	0.16640 0.98100 0.17210 0.01800
C 	C 	0.54610 0.04140 0.89720 -0.01200
H 	H 	0.60550 0.03410 0.91590 0.03900
C 	C 	0.63160 0.06810 0.37740 0.02700
H 	H 	0.67450 0.07340 0.41830 0.01700
O 	O 	0.30690 0.01350 0.23700 -0.20900
N 	N 	0.56650 0.05710 0.26570 -0.13400
C 	C 	0.52500 0.04360 0.82190 -0.11100
H 	H 	0.56950 0.03740 0.79010 0.08000
C 	C 	0.29270 0.97820 0.39770 0.34500
C 	C 	0.65130 0.06140 0.30590 -0.01400
H 	H 	0.70690 0.06000 0.28780 0.03500
O 	O 	0.14270 0.00830 0.75850 -0.38700
O 	O 	0.00910 0.06320 0.73200 -0.35600
C 	C 	0.11140 0.03900 0.96340 0.27800
C 	C 	0.22450 0.01390 0.23680 0.16900
N 	N 	0.96040 0.93370 0.62430 -0.12000
C 	C 	0.09460 0.05800 0.30790 0.00300
H 	H 	0.06830 0.00100 0.32320 0.03100
H 	H 	0.06150 0.07910 0.26180 0.03600
C 	C 	0.05870 0.93930 0.65560 -0.08600
H 	H 	0.07850 0.87820 0.67350 0.08200
C 	C 	0.06990 0.00690 0.72170 0.31800
C 	C 	0.33430 0.04760 0.60570 0.02500
H 	H 	0.28840 0.03740 0.56790 0.01200
C 	C 	0.05710 0.91810 0.05050 -0.02200
H 	H 	0.01710 0.89900 0.01050 0.07600
C 	C 	0.77940 0.01170 0.62430 0.01000
H 	H 	0.82060 0.05780 0.63810 0.05400
C 	C 	0.10850 0.90760 0.18130 -0.03100
H 	H 	0.10430 0.88340 0.22880 0.07200
C 	C 	0.43580 0.05530 0.79180 0.10900
C 	C 	0.54790 0.05190 0.18630 0.11200
C 	C 	0.50710 0.04770 0.03100 0.01400
C 	C 	0.17090 0.02080 0.10180 -0.07900
H 	H 	0.21180 0.06740 0.09550 0.08000
C 	C 	0.65500 0.87330 0.58140 -0.12000
C 	C 	0.46480 0.08900 0.15340 -0.09800
H 	H 	0.42450 0.11770 0.18170 0.08400
C 	C 	0.60600 0.02130 0.14130 -0.09900
H 	H 	0.66180 0.00180 0.16240 0.06600
O 	O 	0.00770 0.74560 0.18960 -0.38900
C 	C 	0.09400 0.12930 0.36800 -0.15400
H 	H 	0.04100 0.12520 0.39410 0.07100
H 	H 	0.09920 0.19100 0.34830 0.09100
C 	C 	0.58610 0.01740 0.06320 -0.05500
H 	H 	0.62780 0.99370 0.03360 0.06600
C 	C 	0.11260 0.98940 0.04030 0.00300
C 	C 	0.10520 0.96350 0.59120 0.00200
H 	H 	0.16270 0.93310 0.59400 0.03800
H 	H 	0.11450 0.02940 0.58930 0.02000
C 	C 	0.44890 0.07930 0.07700 -0.02400
H 	H 	0.39270 0.09620 0.05500 0.04700
C 	C 	0.00130 0.79150 0.13140 0.32000
O 	O 	0.94230 0.76250 0.08150 -0.34100
C 	C 	0.94940 0.96790 0.55090 0.01200
H 	H 	0.94460 0.03440 0.54970 0.02800
H 	H 	0.89820 0.94100 0.52170 0.03200
C 	C 	0.04600 0.93150 0.52210 -0.16400
H 	H 	0.04750 0.86530 0.51550 0.08900
H 	H 	0.05990 0.96210 0.47670 0.08500
Cd	Cd	0.53418 0.60405 0.52002 1.22700
Cd	Cd	0.90657 0.63285 0.16500 1.22000
O 	O 	0.48120 0.32310 0.47490 -0.29000
C 	C 	0.30650 0.53390 0.40390 -0.12800
O 	O 	0.63230 0.48920 0.56220 -0.37100
C 	C 	0.36530 0.46390 0.42870 0.07700
H 	H 	0.42060 0.47970 0.45320 -0.02800
O 	O 	0.37870 0.21710 0.43900 -0.42600
O 	O 	0.27730 0.69440 0.39340 -0.21800
C 	C 	0.75640 0.56490 0.63330 -0.09000
H 	H 	0.71330 0.61300 0.64240 0.07300
N 	N 	0.58200 0.57430 0.40720 -0.23000
C 	C 	0.19640 0.42040 0.36830 -0.06300
O 	O 	0.40700 0.65200 0.45350 -0.38600
C 	C 	0.40750 0.29950 0.44690 0.34300
O 	O 	0.74000 0.40200 0.61610 -0.21500
C 	C 	0.25470 0.35090 0.38550 0.02200
H 	H 	0.23780 0.29010 0.37640 0.04000
N 	N 	0.45590 0.56620 0.61650 -0.23200
O 	O 	0.08660 0.35690 0.27430 -0.20700
N 	N 	0.58950 0.55930 0.28530 -0.13600
O 	O 	0.82450 0.58570 0.04780 -0.37100
C 	C 	0.33120 0.63370 0.41790 0.33700
N 	N 	0.81350 0.54500 0.70230 -0.11700
C 	C 	0.10250 0.39920 0.33470 0.19600
C 	C 	0.82040 0.59990 0.58100 -0.04400
H 	H 	0.79510 0.65210 0.55250 0.04100
H 	H 	0.83430 0.55210 0.54640 0.04100
C 	C 	0.63080 0.56090 0.15800 -0.09100
H 	H 	0.69050 0.56710 0.17620 0.05300
C 	C 	0.53860 0.58020 0.34070 0.10800
H 	H 	0.47890 0.59700 0.33230 0.00000
C 	C 	0.94210 0.37140 0.87970 -0.08800
O 	O 	0.95880 0.52470 0.08010 -0.34800
C 	C 	0.67470 0.53740 0.32120 -0.02300
H 	H 	0.72540 0.52000 0.29920 0.05200
C 	C 	0.49460 0.56190 0.68430 0.10200
H 	H 	0.55600 0.56210 0.69700 0.00500
C 	C 	0.51780 0.54960 0.05220 0.00700
C 	C 	0.60580 0.55710 0.08250 -0.03500
H 	H 	0.64990 0.55960 0.05010 0.05500
C 	C 	0.83360 0.48100 0.82790 -0.04600
C 	C 	0.45390 0.54140 0.10280 -0.01700
H 	H 	0.39450 0.53410 0.08410 0.04500
C 	C 	0.36840 0.56810 0.62260 0.02900
H 	H 	0.32550 0.57340 0.58170 0.01900
O 	O 	0.69310 0.51350 0.76300 -0.21300
N 	N 	0.43350 0.55710 0.73430 -0.13700
C 	C 	0.47500 0.54360 0.17810 -0.10600
H 	H 	0.43050 0.53740 0.20990 0.08100
C 	C 	0.70730 0.47820 0.60230 0.32800
C 	C 	0.34870 0.56140 0.69410 -0.01100
H 	H 	0.29310 0.56000 0.71220 0.03700
O 	O 	0.85730 0.50830 0.24150 -0.38600
O 	O 	0.99090 0.56320 0.26800 -0.35600
C 	C 	0.88860 0.53900 0.03660 0.30100
C 	C 	0.77550 0.51390 0.76320 0.20100
N 	N 	0.03960 0.43370 0.37570 -0.11600
C 	C 	0.90540 0.55800 0.69210 0.00100
H 	H 	0.93170 0.50100 0.67680 0.03800
H 	H 	0.93850 0.57910 0.73820 0.04000
C 	C 	0.94130 0.43930 0.34440 -0.08700
H 	H 	0.92150 0.37820 0.32650 0.08000
C 	C 	0.93010 0.50690 0.27830 0.32700
C 	C 	0.66570 0.54760 0.39430 0.02700
H 	H 	0.71160 0.53740 0.43210 0.01500
C 	C 	0.94290 0.41810 0.94950 0.01300
H 	H 	0.98290 0.39900 0.98950 0.06200
C 	C 	0.22060 0.51170 0.37570 0.02800
H 	H 	0.17940 0.55780 0.36190 0.05100
C 	C 	0.89150 0.40760 0.81870 0.00700
H 	H 	0.89570 0.38340 0.77120 0.05500
C 	C 	0.56420 0.55530 0.20820 0.10800
C 	C 	0.45210 0.55190 0.81370 0.13100
C 	C 	0.49290 0.54770 0.96900 -0.00600
C 	C 	0.82910 0.52080 0.89820 -0.00400
H 	H 	0.78820 0.56740 0.90450 0.05700
C 	C 	0.34500 0.37330 0.41860 -0.11900
C 	C 	0.53520 0.58900 0.84660 -0.11300
H 	H 	0.57550 0.61770 0.81830 0.09100
C 	C 	0.39400 0.52130 0.85870 -0.12800
H 	H 	0.33820 0.50180 0.83760 0.08000
O 	O 	0.99230 0.24560 0.81040 -0.39400
C 	C 	0.90600 0.62930 0.63200 -0.14600
H 	H 	0.95900 0.62520 0.60590 0.07000
H 	H 	0.90080 0.69100 0.65170 0.08900
C 	C 	0.41390 0.51740 0.93680 -0.00400
H 	H 	0.37220 0.49370 0.96640 0.03800
C 	C 	0.88740 0.48940 0.95970 -0.05200
C 	C 	0.89480 0.46350 0.40880 -0.03900
H 	H 	0.83730 0.43310 0.40600 0.04600
H 	H 	0.88550 0.52940 0.41070 0.04000
C 	C 	0.55110 0.57930 0.92300 -0.00400
H 	H 	0.60730 0.59620 0.94500 0.04400
C 	C 	0.99870 0.29150 0.86860 0.32900
O 	O 	0.05770 0.26250 0.91850 -0.34400
C 	C 	0.05060 0.46790 0.44910 -0.02500
H 	H 	0.05540 0.53440 0.45030 0.04800
H 	H 	0.10180 0.44100 0.47830 0.04000
C 	C 	0.95400 0.43150 0.47790 -0.13500
H 	H 	0.95250 0.36530 0.48450 0.07900
H 	H 	0.94010 0.46210 0.52330 0.07000
