data_crystal

_cell_length_a 7.08090
_cell_length_b 38.76640
_cell_length_c 39.22860
_cell_angle_alpha 90.00000
_cell_angle_beta  90.00000
_cell_angle_gamma 90.00000

_symmetry_space_group_name_	'P 1'
_symmetry_space_group_name_H-M	'P 1'

loop_
_symmetry_equiv_pos_as_xyz
  x,y,z

loop_
_atom_site_label
_atom_site_type_symbol
_atom_site_fract_x
_atom_site_fract_y
_atom_site_fract_z
_atom_site_charge
Al	Al	0.57050 0.61913 0.49959 2.37200
Cl	Cl	0.31870 0.59295 0.47543 -0.73100
Cl	Cl	0.82680 0.64411 0.52467 -0.72200
N 	N 	0.45030 0.66682 0.49238 -0.37700
C 	C 	0.55220 0.69430 0.48260 0.09100
H 	H 	0.68060 0.69090 0.47640 -0.01800
C 	C 	0.47880 0.72690 0.48120 -0.13300
H 	H 	0.55530 0.74570 0.47400 0.07800
C 	C 	0.29100 0.73250 0.49050 0.07100
C 	C 	0.18410 0.70410 0.49990 -0.12300
H 	H 	0.05470 0.70670 0.50580 0.10500
C 	C 	0.26850 0.67210 0.50050 0.07900
H 	H 	0.19430 0.65280 0.50710 0.02200
N 	N 	0.69400 0.57166 0.50533 -0.37600
C 	C 	0.79620 0.56370 0.53330 0.08800
H 	H 	0.78760 0.57840 0.55260 -0.01500
C 	C 	0.91140 0.53550 0.53520 -0.12000
H 	H 	0.97650 0.53030 0.55570 0.07200
C 	C 	0.93230 0.51440 0.50660 0.06700
C 	C 	0.81970 0.52180 0.47850 -0.11700
H 	H 	0.82380 0.50720 0.45910 0.09000
C 	C 	0.70320 0.54990 0.47870 0.08300
H 	H 	0.62600 0.55420 0.45940 -0.00400
N 	N 	0.69950 0.62430 0.45274 -0.37300
C 	C 	0.60760 0.63550 0.42500 0.08600
H 	H 	0.47740 0.64110 0.42680 -0.01400
C 	C 	0.69690 0.63910 0.39330 -0.12600
H 	H 	0.63050 0.64840 0.37440 0.08200
C 	C 	0.88210 0.62890 0.39000 0.06500
C 	C 	0.97620 0.61720 0.41900 -0.12800
H 	H 	0.10520 0.61060 0.41760 0.10800
C 	C 	0.88260 0.61510 0.44950 0.07500
H 	H 	0.94850 0.60690 0.46900 0.01900
N 	N 	0.19160 0.63299 0.29647 -0.37500
C 	C 	0.08380 0.65960 0.30650 0.08700
H 	H 	0.07900 0.67960 0.29260 -0.01000
C 	C 	0.97980 0.65920 0.33620 -0.11500
H 	H 	0.90300 0.67840 0.34200 0.07000
C 	C 	0.98780 0.63040 0.35760 0.05300
C 	C 	0.10170 0.60290 0.34800 -0.10800
H 	H 	0.11180 0.58300 0.36190 0.08100
C 	C 	0.20160 0.60550 0.31720 0.07300
H 	H 	0.28030 0.58670 0.31070 -0.00200
Al	Al	0.57050 0.11913 0.99959 2.37000
Cl	Cl	0.31870 0.09295 0.97543 -0.74300
Cl	Cl	0.82680 0.14411 0.02467 -0.71200
N 	N 	0.45030 0.16682 0.99238 -0.40100
C 	C 	0.55220 0.19430 0.98260 0.10000
H 	H 	0.68060 0.19090 0.97640 -0.02600
C 	C 	0.47880 0.22690 0.98120 -0.15300
H 	H 	0.55530 0.24570 0.97400 0.08000
C 	C 	0.29100 0.23250 0.99050 0.09000
C 	C 	0.18410 0.20410 0.99990 -0.20800
H 	H 	0.05470 0.20670 0.00580 0.14400
C 	C 	0.26850 0.17210 0.00050 0.15100
H 	H 	0.19430 0.15280 0.00710 0.00200
N 	N 	0.69400 0.07166 0.00533 -0.36700
C 	C 	0.79620 0.06370 0.03330 0.09300
H 	H 	0.78760 0.07840 0.05260 -0.01700
C 	C 	0.91140 0.03550 0.03520 -0.12500
H 	H 	0.97650 0.03030 0.05570 0.07200
C 	C 	0.93230 0.01440 0.00660 0.08300
C 	C 	0.81970 0.02180 0.97850 -0.13700
H 	H 	0.82380 0.00720 0.95910 0.09300
C 	C 	0.70320 0.04990 0.97870 0.07200
H 	H 	0.62600 0.05420 0.95940 -0.00400
N 	N 	0.69950 0.12430 0.95274 -0.37600
C 	C 	0.60760 0.13550 0.92500 0.08500
H 	H 	0.47740 0.14110 0.92680 -0.01600
C 	C 	0.69690 0.13910 0.89330 -0.12800
H 	H 	0.63050 0.14840 0.87440 0.08100
C 	C 	0.88210 0.12890 0.89000 0.06500
C 	C 	0.97620 0.11720 0.91900 -0.13000
H 	H 	0.10520 0.11060 0.91760 0.10800
C 	C 	0.88260 0.11510 0.94950 0.07500
H 	H 	0.94850 0.10690 0.96900 0.01500
N 	N 	0.19160 0.13299 0.79647 -0.37500
C 	C 	0.08380 0.15960 0.80650 0.08700
H 	H 	0.07900 0.17960 0.79260 -0.01000
C 	C 	0.97980 0.15920 0.83620 -0.11500
H 	H 	0.90300 0.17840 0.84200 0.07000
C 	C 	0.98780 0.13040 0.85760 0.05300
C 	C 	0.10170 0.10290 0.84800 -0.10800
H 	H 	0.11180 0.08300 0.86190 0.08100
C 	C 	0.20160 0.10550 0.81720 0.07300
H 	H 	0.28030 0.08670 0.81070 -0.00200
Al	Al	0.07050 0.61913 0.99959 2.36900
Cl	Cl	0.81870 0.59295 0.97543 -0.74100
Cl	Cl	0.32680 0.64411 0.02467 -0.71100
N 	N 	0.95030 0.66682 0.99238 -0.38500
C 	C 	0.05220 0.69430 0.98260 0.05200
H 	H 	0.18060 0.69090 0.97640 -0.01000
C 	C 	0.97880 0.72690 0.98120 -0.09200
H 	H 	0.05530 0.74570 0.97400 0.05400
C 	C 	0.79100 0.73250 0.99050 0.05300
C 	C 	0.68410 0.70410 0.99990 -0.18300
H 	H 	0.55470 0.70670 0.00580 0.13200
C 	C 	0.76850 0.67210 0.00050 0.13700
H 	H 	0.69430 0.65280 0.00710 0.00600
N 	N 	0.19400 0.57166 0.00533 -0.36800
C 	C 	0.29620 0.56370 0.03330 0.09400
H 	H 	0.28760 0.57840 0.05260 -0.01800
C 	C 	0.41140 0.53550 0.03520 -0.12500
H 	H 	0.47650 0.53030 0.05570 0.07300
C 	C 	0.43230 0.51440 0.00660 0.08300
C 	C 	0.31970 0.52180 0.97850 -0.13700
H 	H 	0.32380 0.50720 0.95910 0.09300
C 	C 	0.20320 0.54990 0.97870 0.07200
H 	H 	0.12600 0.55420 0.95940 -0.00400
N 	N 	0.19950 0.62430 0.95274 -0.37300
C 	C 	0.10760 0.63550 0.92500 0.06800
H 	H 	0.97740 0.64110 0.92680 -0.00600
C 	C 	0.19690 0.63910 0.89330 -0.11700
H 	H 	0.13050 0.64840 0.87440 0.07600
C 	C 	0.38210 0.62890 0.89000 0.05700
C 	C 	0.47620 0.61720 0.91900 -0.11700
H 	H 	0.60520 0.61060 0.91760 0.10200
C 	C 	0.38260 0.61510 0.94950 0.06900
H 	H 	0.44850 0.60690 0.96900 0.01800
N 	N 	0.69160 0.63299 0.79647 -0.37500
C 	C 	0.58380 0.65960 0.80650 0.08800
H 	H 	0.57900 0.67960 0.79260 -0.01000
C 	C 	0.47980 0.65920 0.83620 -0.11700
H 	H 	0.40300 0.67840 0.84200 0.07100
C 	C 	0.48780 0.63040 0.85760 0.05900
C 	C 	0.60170 0.60290 0.84800 -0.11200
H 	H 	0.61180 0.58300 0.86190 0.08300
C 	C 	0.70160 0.60550 0.81720 0.07600
H 	H 	0.78030 0.58670 0.81070 -0.00300
Al	Al	0.07050 0.11913 0.49959 2.37000
Cl	Cl	0.81870 0.09295 0.47543 -0.73000
Cl	Cl	0.32680 0.14411 0.52467 -0.72200
N 	N 	0.95030 0.16682 0.49238 -0.36300
C 	C 	0.05220 0.19430 0.48260 0.04300
H 	H 	0.18060 0.19090 0.47640 -0.00300
C 	C 	0.97880 0.22690 0.48120 -0.07400
H 	H 	0.05530 0.24570 0.47400 0.05100
C 	C 	0.79100 0.23250 0.49050 0.03300
C 	C 	0.68410 0.20410 0.49990 -0.10000
H 	H 	0.55470 0.20670 0.50580 0.09200
C 	C 	0.76850 0.17210 0.50050 0.06400
H 	H 	0.69430 0.15280 0.50710 0.02400
N 	N 	0.19400 0.07166 0.50533 -0.37800
C 	C 	0.29620 0.06370 0.53330 0.08700
H 	H 	0.28760 0.07840 0.55260 -0.01600
C 	C 	0.41140 0.03550 0.53520 -0.12100
H 	H 	0.47650 0.03030 0.55570 0.07100
C 	C 	0.43230 0.01440 0.50660 0.06600
C 	C 	0.31970 0.02180 0.47850 -0.11700
H 	H 	0.32380 0.00720 0.45910 0.08900
C 	C 	0.20320 0.04990 0.47870 0.08300
H 	H 	0.12600 0.05420 0.45940 -0.00600
N 	N 	0.19950 0.12430 0.45274 -0.37100
C 	C 	0.10760 0.13550 0.42500 0.06800
H 	H 	0.97740 0.14110 0.42680 -0.00500
C 	C 	0.19690 0.13910 0.39330 -0.11600
H 	H 	0.13050 0.14840 0.37440 0.07600
C 	C 	0.38210 0.12890 0.39000 0.05700
C 	C 	0.47620 0.11720 0.41900 -0.11600
H 	H 	0.60520 0.11060 0.41760 0.10200
C 	C 	0.38260 0.11510 0.44950 0.06900
H 	H 	0.44850 0.10690 0.46900 0.02200
N 	N 	0.69160 0.13299 0.29647 -0.37500
C 	C 	0.58380 0.15960 0.30650 0.08800
H 	H 	0.57900 0.17960 0.29260 -0.01000
C 	C 	0.47980 0.15920 0.33620 -0.11700
H 	H 	0.40300 0.17840 0.34200 0.07100
C 	C 	0.48780 0.13040 0.35760 0.05900
C 	C 	0.60170 0.10290 0.34800 -0.11300
H 	H 	0.61180 0.08300 0.36190 0.08300
C 	C 	0.70160 0.10550 0.31720 0.07600
H 	H 	0.78030 0.08670 0.31070 -0.00300
Al	Al	0.42950 0.38087 0.49959 2.37100
Cl	Cl	0.68130 0.40705 0.47543 -0.73200
Cl	Cl	0.17320 0.35589 0.52467 -0.72300
N 	N 	0.54970 0.33318 0.49238 -0.37800
C 	C 	0.44780 0.30570 0.48260 0.09000
H 	H 	0.31940 0.30910 0.47640 -0.01900
C 	C 	0.52120 0.27310 0.48120 -0.13400
H 	H 	0.44470 0.25430 0.47400 0.07700
C 	C 	0.70900 0.26750 0.49050 0.07000
C 	C 	0.81590 0.29590 0.49990 -0.12400
H 	H 	0.94530 0.29330 0.50580 0.10400
C 	C 	0.73150 0.32790 0.50050 0.07800
H 	H 	0.80570 0.34720 0.50710 0.02100
N 	N 	0.30600 0.42834 0.50533 -0.37700
C 	C 	0.20380 0.43630 0.53330 0.08700
H 	H 	0.21240 0.42160 0.55260 -0.01600
C 	C 	0.08860 0.46450 0.53520 -0.12100
H 	H 	0.02350 0.46970 0.55570 0.07100
C 	C 	0.06770 0.48560 0.50660 0.06600
C 	C 	0.18030 0.47820 0.47850 -0.11800
H 	H 	0.17620 0.49280 0.45910 0.08900
C 	C 	0.29680 0.45010 0.47870 0.08200
H 	H 	0.37400 0.44580 0.45940 -0.00500
N 	N 	0.30050 0.37570 0.45274 -0.37400
C 	C 	0.39240 0.36450 0.42500 0.08500
H 	H 	0.52260 0.35890 0.42680 -0.01500
C 	C 	0.30310 0.36090 0.39330 -0.12700
H 	H 	0.36950 0.35160 0.37440 0.08100
C 	C 	0.11790 0.37110 0.39000 0.06500
C 	C 	0.02380 0.38280 0.41900 -0.12800
H 	H 	0.89480 0.38940 0.41760 0.10800
C 	C 	0.11740 0.38490 0.44950 0.07500
H 	H 	0.05150 0.39310 0.46900 0.01900
N 	N 	0.80840 0.36701 0.29647 -0.37500
C 	C 	0.91620 0.34040 0.30650 0.08700
H 	H 	0.92100 0.32040 0.29260 -0.01000
C 	C 	0.02020 0.34080 0.33620 -0.11500
H 	H 	0.09700 0.32160 0.34200 0.07000
C 	C 	0.01220 0.36960 0.35760 0.05300
C 	C 	0.89830 0.39710 0.34800 -0.10800
H 	H 	0.88820 0.41700 0.36190 0.08100
C 	C 	0.79840 0.39450 0.31720 0.07300
H 	H 	0.71970 0.41330 0.31070 -0.00200
Al	Al	0.42950 0.88087 0.99959 2.37000
Cl	Cl	0.68130 0.90705 0.97543 -0.74300
Cl	Cl	0.17320 0.85589 0.02467 -0.71200
N 	N 	0.54970 0.83318 0.99238 -0.40100
C 	C 	0.44780 0.80570 0.98260 0.10000
H 	H 	0.31940 0.80910 0.97640 -0.02600
C 	C 	0.52120 0.77310 0.98120 -0.15300
H 	H 	0.44470 0.75430 0.97400 0.08000
C 	C 	0.70900 0.76750 0.99050 0.09000
C 	C 	0.81590 0.79590 0.99990 -0.20800
H 	H 	0.94530 0.79330 0.00580 0.14400
C 	C 	0.73150 0.82790 0.00050 0.15100
H 	H 	0.80570 0.84720 0.00710 0.00200
N 	N 	0.30600 0.92834 0.00533 -0.36700
C 	C 	0.20380 0.93630 0.03330 0.09300
H 	H 	0.21240 0.92160 0.05260 -0.01700
C 	C 	0.08860 0.96450 0.03520 -0.12500
H 	H 	0.02350 0.96970 0.05570 0.07200
C 	C 	0.06770 0.98560 0.00660 0.08300
C 	C 	0.18030 0.97820 0.97850 -0.13700
H 	H 	0.17620 0.99280 0.95910 0.09300
C 	C 	0.29680 0.95010 0.97870 0.07200
H 	H 	0.37400 0.94580 0.95940 -0.00400
N 	N 	0.30050 0.87570 0.95274 -0.37600
C 	C 	0.39240 0.86450 0.92500 0.08500
H 	H 	0.52260 0.85890 0.92680 -0.01600
C 	C 	0.30310 0.86090 0.89330 -0.12800
H 	H 	0.36950 0.85160 0.87440 0.08100
C 	C 	0.11790 0.87110 0.89000 0.06500
C 	C 	0.02380 0.88280 0.91900 -0.13000
H 	H 	0.89480 0.88940 0.91760 0.10800
C 	C 	0.11740 0.88490 0.94950 0.07500
H 	H 	0.05150 0.89310 0.96900 0.01500
N 	N 	0.80840 0.86701 0.79647 -0.37500
C 	C 	0.91620 0.84040 0.80650 0.08700
H 	H 	0.92100 0.82040 0.79260 -0.01000
C 	C 	0.02020 0.84080 0.83620 -0.11500
H 	H 	0.09700 0.82160 0.84200 0.07000
C 	C 	0.01220 0.86960 0.85760 0.05300
C 	C 	0.89830 0.89710 0.84800 -0.10800
H 	H 	0.88820 0.91700 0.86190 0.08100
C 	C 	0.79840 0.89450 0.81720 0.07300
H 	H 	0.71970 0.91330 0.81070 -0.00200
Al	Al	0.92950 0.38087 0.99959 2.36900
Cl	Cl	0.18130 0.40705 0.97543 -0.74100
Cl	Cl	0.67320 0.35589 0.02467 -0.71100
N 	N 	0.04970 0.33318 0.99238 -0.38500
C 	C 	0.94780 0.30570 0.98260 0.05200
H 	H 	0.81940 0.30910 0.97640 -0.01000
C 	C 	0.02120 0.27310 0.98120 -0.09200
H 	H 	0.94470 0.25430 0.97400 0.05400
C 	C 	0.20900 0.26750 0.99050 0.05300
C 	C 	0.31590 0.29590 0.99990 -0.18300
H 	H 	0.44530 0.29330 0.00580 0.13200
C 	C 	0.23150 0.32790 0.00050 0.13700
H 	H 	0.30570 0.34720 0.00710 0.00600
N 	N 	0.80600 0.42834 0.00533 -0.36800
C 	C 	0.70380 0.43630 0.03330 0.09400
H 	H 	0.71240 0.42160 0.05260 -0.01800
C 	C 	0.58860 0.46450 0.03520 -0.12500
H 	H 	0.52350 0.46970 0.05570 0.07300
C 	C 	0.56770 0.48560 0.00660 0.08300
C 	C 	0.68030 0.47820 0.97850 -0.13700
H 	H 	0.67620 0.49280 0.95910 0.09300
C 	C 	0.79680 0.45010 0.97870 0.07200
H 	H 	0.87400 0.44580 0.95940 -0.00400
N 	N 	0.80050 0.37570 0.95274 -0.37300
C 	C 	0.89240 0.36450 0.92500 0.06800
H 	H 	0.02260 0.35890 0.92680 -0.00600
C 	C 	0.80310 0.36090 0.89330 -0.11700
H 	H 	0.86950 0.35160 0.87440 0.07600
C 	C 	0.61790 0.37110 0.89000 0.05700
C 	C 	0.52380 0.38280 0.91900 -0.11700
H 	H 	0.39480 0.38940 0.91760 0.10200
C 	C 	0.61740 0.38490 0.94950 0.06900
H 	H 	0.55150 0.39310 0.96900 0.01800
N 	N 	0.30840 0.36701 0.79647 -0.37500
C 	C 	0.41620 0.34040 0.80650 0.08800
H 	H 	0.42100 0.32040 0.79260 -0.01000
C 	C 	0.52020 0.34080 0.83620 -0.11700
H 	H 	0.59700 0.32160 0.84200 0.07100
C 	C 	0.51220 0.36960 0.85760 0.05900
C 	C 	0.39830 0.39710 0.84800 -0.11200
H 	H 	0.38820 0.41700 0.86190 0.08300
C 	C 	0.29840 0.39450 0.81720 0.07600
H 	H 	0.21970 0.41330 0.81070 -0.00300
Al	Al	0.92950 0.88087 0.49959 2.37000
Cl	Cl	0.18130 0.90705 0.47543 -0.73000
Cl	Cl	0.67320 0.85589 0.52467 -0.72200
N 	N 	0.04970 0.83318 0.49238 -0.36300
C 	C 	0.94780 0.80570 0.48260 0.04300
H 	H 	0.81940 0.80910 0.47640 -0.00300
C 	C 	0.02120 0.77310 0.48120 -0.07400
H 	H 	0.94470 0.75430 0.47400 0.05100
C 	C 	0.20900 0.76750 0.49050 0.03300
C 	C 	0.31590 0.79590 0.49990 -0.10000
H 	H 	0.44530 0.79330 0.50580 0.09200
C 	C 	0.23150 0.82790 0.50050 0.06400
H 	H 	0.30570 0.84720 0.50710 0.02400
N 	N 	0.80600 0.92834 0.50533 -0.37800
C 	C 	0.70380 0.93630 0.53330 0.08700
H 	H 	0.71240 0.92160 0.55260 -0.01600
C 	C 	0.58860 0.96450 0.53520 -0.12100
H 	H 	0.52350 0.96970 0.55570 0.07100
C 	C 	0.56770 0.98560 0.50660 0.06600
C 	C 	0.68030 0.97820 0.47850 -0.11700
H 	H 	0.67620 0.99280 0.45910 0.08900
C 	C 	0.79680 0.95010 0.47870 0.08300
H 	H 	0.87400 0.94580 0.45940 -0.00600
N 	N 	0.80050 0.87570 0.45274 -0.37100
C 	C 	0.89240 0.86450 0.42500 0.06800
H 	H 	0.02260 0.85890 0.42680 -0.00500
C 	C 	0.80310 0.86090 0.39330 -0.11600
H 	H 	0.86950 0.85160 0.37440 0.07600
C 	C 	0.61790 0.87110 0.39000 0.05700
C 	C 	0.52380 0.88280 0.41900 -0.11600
H 	H 	0.39480 0.88940 0.41760 0.10200
C 	C 	0.61740 0.88490 0.44950 0.06900
H 	H 	0.55150 0.89310 0.46900 0.02200
N 	N 	0.30840 0.86701 0.29647 -0.37500
C 	C 	0.41620 0.84040 0.30650 0.08800
H 	H 	0.42100 0.82040 0.29260 -0.01000
C 	C 	0.52020 0.84080 0.33620 -0.11700
H 	H 	0.59700 0.82160 0.34200 0.07100
C 	C 	0.51220 0.86960 0.35760 0.05900
C 	C 	0.39830 0.89710 0.34800 -0.11300
H 	H 	0.38820 0.91700 0.36190 0.08300
C 	C 	0.29840 0.89450 0.31720 0.07600
H 	H 	0.21970 0.91330 0.31070 -0.00300
Al	Al	0.82050 0.63087 0.74959 2.37100
Cl	Cl	0.56870 0.65705 0.72543 -0.73300
Cl	Cl	0.07680 0.60589 0.77467 -0.71900
N 	N 	0.70030 0.58318 0.74238 -0.37700
C 	C 	0.80220 0.55570 0.73260 0.08600
H 	H 	0.93060 0.55910 0.72640 -0.01700
C 	C 	0.72880 0.52310 0.73120 -0.12600
H 	H 	0.80530 0.50430 0.72400 0.07500
C 	C 	0.54100 0.51750 0.74050 0.05700
C 	C 	0.43410 0.54590 0.74990 -0.11700
H 	H 	0.30470 0.54330 0.75580 0.09800
C 	C 	0.51850 0.57790 0.75050 0.07400
H 	H 	0.44430 0.59720 0.75710 0.02100
N 	N 	0.94400 0.67834 0.75533 -0.37700
C 	C 	0.04620 0.68630 0.78330 0.08800
H 	H 	0.03760 0.67160 0.80260 -0.01600
C 	C 	0.16140 0.71450 0.78520 -0.11900
H 	H 	0.22650 0.71970 0.80570 0.07000
C 	C 	0.18230 0.73560 0.75660 0.06300
C 	C 	0.06970 0.72820 0.72850 -0.11000
H 	H 	0.07380 0.74280 0.70910 0.08800
C 	C 	0.95320 0.70010 0.72870 0.07500
H 	H 	0.87600 0.69580 0.70940 -0.00400
N 	N 	0.94950 0.62570 0.70274 -0.37600
C 	C 	0.85760 0.61450 0.67500 0.08700
H 	H 	0.72740 0.60890 0.67680 -0.01600
C 	C 	0.94690 0.61090 0.64330 -0.13500
H 	H 	0.88050 0.60160 0.62440 0.08300
C 	C 	0.13210 0.62110 0.64000 0.07000
C 	C 	0.22620 0.63280 0.66900 -0.12500
H 	H 	0.35520 0.63940 0.66760 0.10500
C 	C 	0.13260 0.63490 0.69950 0.07800
H 	H 	0.19850 0.64310 0.71900 0.02000
N 	N 	0.44160 0.61701 0.54647 -0.37500
C 	C 	0.33380 0.59040 0.55650 0.08700
H 	H 	0.32900 0.57040 0.54260 -0.00900
C 	C 	0.22980 0.59080 0.58620 -0.11400
H 	H 	0.15300 0.57160 0.59200 0.07100
C 	C 	0.23780 0.61960 0.60760 0.05400
C 	C 	0.35170 0.64710 0.59800 -0.11000
H 	H 	0.36180 0.66700 0.61190 0.08200
C 	C 	0.45160 0.64450 0.56720 0.07400
H 	H 	0.53030 0.66330 0.56070 -0.00300
Al	Al	0.82050 0.13087 0.24959 2.37100
Cl	Cl	0.56870 0.15705 0.22543 -0.73300
Cl	Cl	0.07680 0.10589 0.27467 -0.71900
N 	N 	0.70030 0.08318 0.24238 -0.37700
C 	C 	0.80220 0.05570 0.23260 0.08600
H 	H 	0.93060 0.05910 0.22640 -0.01700
C 	C 	0.72880 0.02310 0.23120 -0.12600
H 	H 	0.80530 0.00430 0.22400 0.07500
C 	C 	0.54100 0.01750 0.24050 0.05700
C 	C 	0.43410 0.04590 0.24990 -0.11700
H 	H 	0.30470 0.04330 0.25580 0.09800
C 	C 	0.51850 0.07790 0.25050 0.07400
H 	H 	0.44430 0.09720 0.25710 0.02100
N 	N 	0.94400 0.17834 0.25533 -0.37700
C 	C 	0.04620 0.18630 0.28330 0.08800
H 	H 	0.03760 0.17160 0.30260 -0.01600
C 	C 	0.16140 0.21450 0.28520 -0.11900
H 	H 	0.22650 0.21970 0.30570 0.07000
C 	C 	0.18230 0.23560 0.25660 0.06300
C 	C 	0.06970 0.22820 0.22850 -0.11000
H 	H 	0.07380 0.24280 0.20910 0.08800
C 	C 	0.95320 0.20010 0.22870 0.07500
H 	H 	0.87600 0.19580 0.20940 -0.00400
N 	N 	0.94950 0.12570 0.20274 -0.37600
C 	C 	0.85760 0.11450 0.17500 0.08700
H 	H 	0.72740 0.10890 0.17680 -0.01600
C 	C 	0.94690 0.11090 0.14330 -0.13500
H 	H 	0.88050 0.10160 0.12440 0.08300
C 	C 	0.13210 0.12110 0.14000 0.07000
C 	C 	0.22620 0.13280 0.16900 -0.12500
H 	H 	0.35520 0.13940 0.16760 0.10500
C 	C 	0.13260 0.13490 0.19950 0.07800
H 	H 	0.19850 0.14310 0.21900 0.02000
N 	N 	0.44160 0.11701 0.04647 -0.37200
C 	C 	0.33380 0.09040 0.05650 0.08700
H 	H 	0.32900 0.07040 0.04260 -0.00600
C 	C 	0.22980 0.09080 0.08620 -0.11300
H 	H 	0.15300 0.07160 0.09200 0.07100
C 	C 	0.23780 0.11960 0.10760 0.05400
C 	C 	0.35170 0.14710 0.09800 -0.10900
H 	H 	0.36180 0.16700 0.11190 0.08200
C 	C 	0.45160 0.14450 0.06720 0.07400
H 	H 	0.53030 0.16330 0.06070 -0.00100
Al	Al	0.32050 0.63087 0.24959 2.37100
Cl	Cl	0.06870 0.65705 0.22543 -0.73700
Cl	Cl	0.57680 0.60589 0.27467 -0.71900
N 	N 	0.20030 0.58318 0.24238 -0.37500
C 	C 	0.30220 0.55570 0.23260 0.08500
H 	H 	0.43060 0.55910 0.22640 -0.01600
C 	C 	0.22880 0.52310 0.23120 -0.12400
H 	H 	0.30530 0.50430 0.22400 0.07400
C 	C 	0.04100 0.51750 0.24050 0.05400
C 	C 	0.93410 0.54590 0.24990 -0.11100
H 	H 	0.80470 0.54330 0.25580 0.09600
C 	C 	0.01850 0.57790 0.25050 0.06600
H 	H 	0.94430 0.59720 0.25710 0.02500
N 	N 	0.44400 0.67834 0.25533 -0.37700
C 	C 	0.54620 0.68630 0.28330 0.08800
H 	H 	0.53760 0.67160 0.30260 -0.01600
C 	C 	0.66140 0.71450 0.28520 -0.12100
H 	H 	0.72650 0.71970 0.30570 0.07100
C 	C 	0.68230 0.73560 0.25660 0.06700
C 	C 	0.56970 0.72820 0.22850 -0.11800
H 	H 	0.57380 0.74280 0.20910 0.09000
C 	C 	0.45320 0.70010 0.22870 0.08300
H 	H 	0.37600 0.69580 0.20940 -0.00600
N 	N 	0.44950 0.62570 0.20274 -0.37200
C 	C 	0.35760 0.61450 0.17500 0.08300
H 	H 	0.22740 0.60890 0.17680 -0.01600
C 	C 	0.44690 0.61090 0.14330 -0.12300
H 	H 	0.38050 0.60160 0.12440 0.07900
C 	C 	0.63210 0.62110 0.14000 0.05900
C 	C 	0.72620 0.63280 0.16900 -0.11800
H 	H 	0.85520 0.63940 0.16760 0.10400
C 	C 	0.63260 0.63490 0.19950 0.07100
H 	H 	0.69850 0.64310 0.21900 0.02300
N 	N 	0.94160 0.61701 0.04647 -0.37400
C 	C 	0.83380 0.59040 0.05650 0.09100
H 	H 	0.82900 0.57040 0.04260 -0.00700
C 	C 	0.72980 0.59080 0.08620 -0.11900
H 	H 	0.65300 0.57160 0.09200 0.07200
C 	C 	0.73780 0.61960 0.10760 0.06300
C 	C 	0.85170 0.64710 0.09800 -0.12200
H 	H 	0.86180 0.66700 0.11190 0.08800
C 	C 	0.95160 0.64450 0.06720 0.09700
H 	H 	0.03030 0.66330 0.06070 -0.01400
Al	Al	0.32050 0.13087 0.74959 2.37100
Cl	Cl	0.06870 0.15705 0.72543 -0.73700
Cl	Cl	0.57680 0.10589 0.77467 -0.71900
N 	N 	0.20030 0.08318 0.74238 -0.37500
C 	C 	0.30220 0.05570 0.73260 0.08500
H 	H 	0.43060 0.05910 0.72640 -0.01600
C 	C 	0.22880 0.02310 0.73120 -0.12400
H 	H 	0.30530 0.00430 0.72400 0.07400
C 	C 	0.04100 0.01750 0.74050 0.05400
C 	C 	0.93410 0.04590 0.74990 -0.11100
H 	H 	0.80470 0.04330 0.75580 0.09600
C 	C 	0.01850 0.07790 0.75050 0.06600
H 	H 	0.94430 0.09720 0.75710 0.02500
N 	N 	0.44400 0.17834 0.75533 -0.37700
C 	C 	0.54620 0.18630 0.78330 0.08800
H 	H 	0.53760 0.17160 0.80260 -0.01600
C 	C 	0.66140 0.21450 0.78520 -0.12100
H 	H 	0.72650 0.21970 0.80570 0.07100
C 	C 	0.68230 0.23560 0.75660 0.06700
C 	C 	0.56970 0.22820 0.72850 -0.11800
H 	H 	0.57380 0.24280 0.70910 0.08900
C 	C 	0.45320 0.20010 0.72870 0.08300
H 	H 	0.37600 0.19580 0.70940 -0.00600
N 	N 	0.44950 0.12570 0.70274 -0.37200
C 	C 	0.35760 0.11450 0.67500 0.08300
H 	H 	0.22740 0.10890 0.67680 -0.01600
C 	C 	0.44690 0.11090 0.64330 -0.12300
H 	H 	0.38050 0.10160 0.62440 0.07900
C 	C 	0.63210 0.12110 0.64000 0.05800
C 	C 	0.72620 0.13280 0.66900 -0.11800
H 	H 	0.85520 0.13940 0.66760 0.10400
C 	C 	0.63260 0.13490 0.69950 0.07100
H 	H 	0.69850 0.14310 0.71900 0.02300
N 	N 	0.94160 0.11701 0.54647 -0.37700
C 	C 	0.83380 0.09040 0.55650 0.09000
H 	H 	0.82900 0.07040 0.54260 -0.01000
C 	C 	0.72980 0.09080 0.58620 -0.12000
H 	H 	0.65300 0.07160 0.59200 0.07200
C 	C 	0.73780 0.11960 0.60760 0.06300
C 	C 	0.85170 0.14710 0.59800 -0.12200
H 	H 	0.86180 0.16700 0.61190 0.08800
C 	C 	0.95160 0.14450 0.56720 0.09600
H 	H 	0.03030 0.16330 0.56070 -0.01600
Al	Al	0.67950 0.86913 0.74959 2.37100
Cl	Cl	0.93130 0.84295 0.72543 -0.73700
Cl	Cl	0.42320 0.89411 0.77467 -0.71900
N 	N 	0.79970 0.91682 0.74238 -0.37500
C 	C 	0.69780 0.94430 0.73260 0.08500
H 	H 	0.56940 0.94090 0.72640 -0.01600
C 	C 	0.77120 0.97690 0.73120 -0.12400
H 	H 	0.69470 0.99570 0.72400 0.07400
C 	C 	0.95900 0.98250 0.74050 0.05400
C 	C 	0.06590 0.95410 0.74990 -0.11100
H 	H 	0.19530 0.95670 0.75580 0.09600
C 	C 	0.98150 0.92210 0.75050 0.06600
H 	H 	0.05570 0.90280 0.75710 0.02500
N 	N 	0.55600 0.82166 0.75533 -0.37700
C 	C 	0.45380 0.81370 0.78330 0.08800
H 	H 	0.46240 0.82840 0.80260 -0.01600
C 	C 	0.33860 0.78550 0.78520 -0.12100
H 	H 	0.27350 0.78030 0.80570 0.07100
C 	C 	0.31770 0.76440 0.75660 0.06700
C 	C 	0.43030 0.77180 0.72850 -0.11800
H 	H 	0.42620 0.75720 0.70910 0.08900
C 	C 	0.54680 0.79990 0.72870 0.08300
H 	H 	0.62400 0.80420 0.70940 -0.00600
N 	N 	0.55050 0.87430 0.70274 -0.37200
C 	C 	0.64240 0.88550 0.67500 0.08300
H 	H 	0.77260 0.89110 0.67680 -0.01600
C 	C 	0.55310 0.88910 0.64330 -0.12300
H 	H 	0.61950 0.89840 0.62440 0.07900
C 	C 	0.36790 0.87890 0.64000 0.05800
C 	C 	0.27380 0.86720 0.66900 -0.11800
H 	H 	0.14480 0.86060 0.66760 0.10400
C 	C 	0.36740 0.86510 0.69950 0.07100
H 	H 	0.30150 0.85690 0.71900 0.02300
N 	N 	0.05840 0.88299 0.54647 -0.37700
C 	C 	0.16620 0.90960 0.55650 0.09000
H 	H 	0.17100 0.92960 0.54260 -0.01000
C 	C 	0.27020 0.90920 0.58620 -0.12000
H 	H 	0.34700 0.92840 0.59200 0.07200
C 	C 	0.26220 0.88040 0.60760 0.06300
C 	C 	0.14830 0.85290 0.59800 -0.12200
H 	H 	0.13820 0.83300 0.61190 0.08800
C 	C 	0.04840 0.85550 0.56720 0.09600
H 	H 	0.96970 0.83670 0.56070 -0.01600
Al	Al	0.67950 0.36913 0.24959 2.37100
Cl	Cl	0.93130 0.34295 0.22543 -0.73700
Cl	Cl	0.42320 0.39411 0.27467 -0.71900
N 	N 	0.79970 0.41682 0.24238 -0.37500
C 	C 	0.69780 0.44430 0.23260 0.08500
H 	H 	0.56940 0.44090 0.22640 -0.01600
C 	C 	0.77120 0.47690 0.23120 -0.12400
H 	H 	0.69470 0.49570 0.22400 0.07400
C 	C 	0.95900 0.48250 0.24050 0.05400
C 	C 	0.06590 0.45410 0.24990 -0.11100
H 	H 	0.19530 0.45670 0.25580 0.09600
C 	C 	0.98150 0.42210 0.25050 0.06600
H 	H 	0.05570 0.40280 0.25710 0.02500
N 	N 	0.55600 0.32166 0.25533 -0.37700
C 	C 	0.45380 0.31370 0.28330 0.08800
H 	H 	0.46240 0.32840 0.30260 -0.01600
C 	C 	0.33860 0.28550 0.28520 -0.12100
H 	H 	0.27350 0.28030 0.30570 0.07100
C 	C 	0.31770 0.26440 0.25660 0.06700
C 	C 	0.43030 0.27180 0.22850 -0.11800
H 	H 	0.42620 0.25720 0.20910 0.09000
C 	C 	0.54680 0.29990 0.22870 0.08300
H 	H 	0.62400 0.30420 0.20940 -0.00600
N 	N 	0.55050 0.37430 0.20274 -0.37200
C 	C 	0.64240 0.38550 0.17500 0.08300
H 	H 	0.77260 0.39110 0.17680 -0.01600
C 	C 	0.55310 0.38910 0.14330 -0.12300
H 	H 	0.61950 0.39840 0.12440 0.07900
C 	C 	0.36790 0.37890 0.14000 0.05900
C 	C 	0.27380 0.36720 0.16900 -0.11800
H 	H 	0.14480 0.36060 0.16760 0.10400
C 	C 	0.36740 0.36510 0.19950 0.07100
H 	H 	0.30150 0.35690 0.21900 0.02300
N 	N 	0.05840 0.38299 0.04647 -0.37400
C 	C 	0.16620 0.40960 0.05650 0.09100
H 	H 	0.17100 0.42960 0.04260 -0.00700
C 	C 	0.27020 0.40920 0.08620 -0.11900
H 	H 	0.34700 0.42840 0.09200 0.07200
C 	C 	0.26220 0.38040 0.10760 0.06300
C 	C 	0.14830 0.35290 0.09800 -0.12200
H 	H 	0.13820 0.33300 0.11190 0.08800
C 	C 	0.04840 0.35550 0.06720 0.09700
H 	H 	0.96970 0.33670 0.06070 -0.01400
Al	Al	0.17950 0.86913 0.24959 2.37100
Cl	Cl	0.43130 0.84295 0.22543 -0.73300
Cl	Cl	0.92320 0.89411 0.27467 -0.71900
N 	N 	0.29970 0.91682 0.24238 -0.37700
C 	C 	0.19780 0.94430 0.23260 0.08600
H 	H 	0.06940 0.94090 0.22640 -0.01700
C 	C 	0.27120 0.97690 0.23120 -0.12600
H 	H 	0.19470 0.99570 0.22400 0.07500
C 	C 	0.45900 0.98250 0.24050 0.05700
C 	C 	0.56590 0.95410 0.24990 -0.11700
H 	H 	0.69530 0.95670 0.25580 0.09800
C 	C 	0.48150 0.92210 0.25050 0.07400
H 	H 	0.55570 0.90280 0.25710 0.02100
N 	N 	0.05600 0.82166 0.25533 -0.37700
C 	C 	0.95380 0.81370 0.28330 0.08800
H 	H 	0.96240 0.82840 0.30260 -0.01600
C 	C 	0.83860 0.78550 0.28520 -0.11900
H 	H 	0.77350 0.78030 0.30570 0.07000
C 	C 	0.81770 0.76440 0.25660 0.06300
C 	C 	0.93030 0.77180 0.22850 -0.11000
H 	H 	0.92620 0.75720 0.20910 0.08800
C 	C 	0.04680 0.79990 0.22870 0.07500
H 	H 	0.12400 0.80420 0.20940 -0.00400
N 	N 	0.05050 0.87430 0.20274 -0.37600
C 	C 	0.14240 0.88550 0.17500 0.08700
H 	H 	0.27260 0.89110 0.17680 -0.01600
C 	C 	0.05310 0.88910 0.14330 -0.13500
H 	H 	0.11950 0.89840 0.12440 0.08300
C 	C 	0.86790 0.87890 0.14000 0.07000
C 	C 	0.77380 0.86720 0.16900 -0.12500
H 	H 	0.64480 0.86060 0.16760 0.10500
C 	C 	0.86740 0.86510 0.19950 0.07800
H 	H 	0.80150 0.85690 0.21900 0.02000
N 	N 	0.55840 0.88299 0.04647 -0.37200
C 	C 	0.66620 0.90960 0.05650 0.08700
H 	H 	0.67100 0.92960 0.04260 -0.00600
C 	C 	0.77020 0.90920 0.08620 -0.11300
H 	H 	0.84700 0.92840 0.09200 0.07100
C 	C 	0.76220 0.88040 0.10760 0.05400
C 	C 	0.64830 0.85290 0.09800 -0.10900
H 	H 	0.63820 0.83300 0.11190 0.08200
C 	C 	0.54840 0.85550 0.06720 0.07400
H 	H 	0.46970 0.83670 0.06070 -0.00100
Al	Al	0.17950 0.36913 0.74959 2.37100
Cl	Cl	0.43130 0.34295 0.72543 -0.73300
Cl	Cl	0.92320 0.39411 0.77467 -0.71900
N 	N 	0.29970 0.41682 0.74238 -0.37700
C 	C 	0.19780 0.44430 0.73260 0.08600
H 	H 	0.06940 0.44090 0.72640 -0.01700
C 	C 	0.27120 0.47690 0.73120 -0.12600
H 	H 	0.19470 0.49570 0.72400 0.07500
C 	C 	0.45900 0.48250 0.74050 0.05700
C 	C 	0.56590 0.45410 0.74990 -0.11700
H 	H 	0.69530 0.45670 0.75580 0.09800
C 	C 	0.48150 0.42210 0.75050 0.07400
H 	H 	0.55570 0.40280 0.75710 0.02100
N 	N 	0.05600 0.32166 0.75533 -0.37700
C 	C 	0.95380 0.31370 0.78330 0.08800
H 	H 	0.96240 0.32840 0.80260 -0.01600
C 	C 	0.83860 0.28550 0.78520 -0.11900
H 	H 	0.77350 0.28030 0.80570 0.07000
C 	C 	0.81770 0.26440 0.75660 0.06300
C 	C 	0.93030 0.27180 0.72850 -0.11000
H 	H 	0.92620 0.25720 0.70910 0.08800
C 	C 	0.04680 0.29990 0.72870 0.07500
H 	H 	0.12400 0.30420 0.70940 -0.00400
N 	N 	0.05050 0.37430 0.70274 -0.37600
C 	C 	0.14240 0.38550 0.67500 0.08700
H 	H 	0.27260 0.39110 0.67680 -0.01600
C 	C 	0.05310 0.38910 0.64330 -0.13500
H 	H 	0.11950 0.39840 0.62440 0.08300
C 	C 	0.86790 0.37890 0.64000 0.07000
C 	C 	0.77380 0.36720 0.66900 -0.12500
H 	H 	0.64480 0.36060 0.66760 0.10500
C 	C 	0.86740 0.36510 0.69950 0.07800
H 	H 	0.80150 0.35690 0.71900 0.02000
N 	N 	0.55840 0.38299 0.54647 -0.37500
C 	C 	0.66620 0.40960 0.55650 0.08700
H 	H 	0.67100 0.42960 0.54260 -0.00900
C 	C 	0.77020 0.40920 0.58620 -0.11400
H 	H 	0.84700 0.42840 0.59200 0.07100
C 	C 	0.76220 0.38040 0.60760 0.05400
C 	C 	0.64830 0.35290 0.59800 -0.11000
H 	H 	0.63820 0.33300 0.61190 0.08200
C 	C 	0.54840 0.35550 0.56720 0.07400
H 	H 	0.46970 0.33670 0.56070 -0.00300
