data_crystal

_cell_length_a 22.81560
_cell_length_b 6.99550
_cell_length_c 14.40430
_cell_angle_alpha 90.00000
_cell_angle_beta  106.69400
_cell_angle_gamma 90.00000

_symmetry_space_group_name_	'P 1'
_symmetry_space_group_name_H-M	'P 1'

loop_
_symmetry_equiv_pos_as_xyz
  x,y,z

loop_
_atom_site_label
_atom_site_type_symbol
_atom_site_fract_x
_atom_site_fract_y
_atom_site_fract_z
_atom_site_charge
Cd	Cd	0.91146 0.97942 0.69182 1.19800
O 	O 	0.59160 0.50920 0.12910 -0.48100
O 	O 	0.93760 0.02650 0.10380 -0.33700
O 	O 	0.92880 0.90520 0.54100 -0.40400
C 	C 	0.94860 0.97520 0.18920 0.21200
N 	N 	0.74870 0.43950 0.15020 -0.11500
O 	O 	0.69950 0.17480 0.18010 -0.22900
C 	C 	0.91560 0.99470 0.34310 -0.18900
H 	H 	0.95190 0.93500 0.37690 0.11000
O 	O 	0.99440 0.87220 0.23260 -0.39700
O 	O 	0.67050 0.55990 0.25600 -0.40400
C 	C 	0.80750 0.17640 0.24190 0.01100
C 	C 	0.88510 0.01110 0.49660 0.33100
C 	C 	0.64790 0.53820 0.16690 0.35600
C 	C 	0.69040 0.53270 0.10280 -0.09700
H 	H 	0.67030 0.47010 0.04100 0.05800
C 	C 	0.90450 0.03530 0.24480 0.07400
O 	O 	0.85230 0.08760 0.54010 -0.37800
C 	C 	0.85110 0.12820 0.19490 -0.08700
H 	H 	0.84430 0.15850 0.12980 0.06500
C 	C 	0.87320 0.04260 0.39050 0.03800
C 	C 	0.74690 0.26210 0.18910 0.17400
C 	C 	0.81840 0.13270 0.33870 -0.06700
H 	H 	0.78920 0.16310 0.37010 0.07900
C 	C 	0.71200 0.73410 0.08540 -0.05700
H 	H 	0.68610 0.78670 0.02520 0.02400
H 	H 	0.71090 0.81900 0.13810 0.05400
C 	C 	0.80110 0.56470 0.16210 -0.03600
H 	H 	0.83610 0.49580 0.15360 0.04200
H 	H 	0.81240 0.62610 0.22510 0.05400
C 	C 	0.77650 0.70960 0.08040 -0.10900
H 	H 	0.79910 0.82890 0.09300 0.04700
H 	H 	0.77750 0.65920 0.01820 0.05000
C 	C 	0.55370 0.09800 0.99350 0.15200
C 	C 	0.55980 0.94300 0.04800 -0.14000
N 	N 	0.50610 0.20300 0.03820 -0.17500
N 	N 	0.50710 0.84900 0.06500 -0.06400
C 	C 	0.55010 0.92600 0.97270 0.08300
Cd	Cd	0.41146 0.47942 0.69182 1.20800
O 	O 	0.09160 0.00920 0.12910 -0.46200
O 	O 	0.43760 0.52650 0.10380 -0.41900
O 	O 	0.42880 0.40520 0.54100 -0.37800
C 	C 	0.44860 0.47520 0.18920 0.36100
N 	N 	0.24870 0.93950 0.15020 -0.17900
O 	O 	0.19950 0.67480 0.18010 -0.26300
C 	C 	0.41560 0.49470 0.34310 0.04200
H 	H 	0.45190 0.43500 0.37690 0.03500
O 	O 	0.49440 0.37220 0.23260 -0.43300
O 	O 	0.17050 0.05990 0.25600 -0.37900
C 	C 	0.30750 0.67640 0.24190 -0.08900
C 	C 	0.38510 0.51110 0.49660 0.32500
C 	C 	0.14790 0.03820 0.16690 0.33000
C 	C 	0.19040 0.03270 0.10280 0.00700
H 	H 	0.17030 0.97010 0.04100 -0.00600
C 	C 	0.40450 0.53530 0.24480 -0.13400
O 	O 	0.35230 0.58760 0.54010 -0.39900
C 	C 	0.35110 0.62820 0.19490 0.03700
H 	H 	0.34430 0.65850 0.12980 0.01400
C 	C 	0.37320 0.54260 0.39050 -0.10600
C 	C 	0.24690 0.76210 0.18910 0.21100
C 	C 	0.31840 0.63270 0.33870 0.03000
H 	H 	0.28920 0.66310 0.37010 0.03600
C 	C 	0.21200 0.23410 0.08540 -0.07500
H 	H 	0.18610 0.28670 0.02520 0.03500
H 	H 	0.21090 0.31900 0.13810 0.06900
C 	C 	0.30110 0.06470 0.16210 0.11700
H 	H 	0.33610 0.99580 0.15360 -0.03200
H 	H 	0.31240 0.12610 0.22510 0.02100
C 	C 	0.27650 0.20960 0.08040 -0.16700
H 	H 	0.29910 0.32890 0.09300 0.07700
H 	H 	0.27750 0.15920 0.01820 0.07800
C 	C 	0.05370 0.59800 0.99350 0.06100
C 	C 	0.05980 0.44300 0.04800 -0.09900
N 	N 	0.00610 0.70300 0.03820 -0.20400
N 	N 	0.00710 0.34900 0.06500 -0.07800
C 	C 	0.05010 0.42600 0.97270 0.10900
Cd	Cd	0.08854 0.97942 0.30818 1.18700
O 	O 	0.40840 0.50920 0.87090 -0.46500
O 	O 	0.06240 0.02650 0.89620 -0.32400
O 	O 	0.07120 0.90520 0.45900 -0.42700
C 	C 	0.05140 0.97520 0.81080 0.20100
N 	N 	0.25130 0.43950 0.84980 -0.11000
O 	O 	0.30050 0.17480 0.81990 -0.21900
C 	C 	0.08440 0.99470 0.65690 -0.19200
H 	H 	0.04810 0.93500 0.62310 0.09500
O 	O 	0.00560 0.87220 0.76740 -0.43300
O 	O 	0.32950 0.55990 0.74400 -0.40700
C 	C 	0.19250 0.17640 0.75810 0.01600
C 	C 	0.11490 0.01110 0.50340 0.33200
C 	C 	0.35210 0.53820 0.83310 0.35900
C 	C 	0.30960 0.53270 0.89720 -0.10300
H 	H 	0.32970 0.47010 0.95900 0.09700
C 	C 	0.09550 0.03530 0.75520 0.07500
O 	O 	0.14770 0.08760 0.45990 -0.38400
C 	C 	0.14890 0.12820 0.80510 -0.09700
H 	H 	0.15570 0.15850 0.87020 0.08800
C 	C 	0.12680 0.04260 0.60950 0.03200
C 	C 	0.25310 0.26210 0.81090 0.18200
C 	C 	0.18160 0.13270 0.66130 -0.06900
H 	H 	0.21080 0.16310 0.62990 0.07900
C 	C 	0.28800 0.73410 0.91460 -0.04000
H 	H 	0.31390 0.78670 0.97480 0.05500
H 	H 	0.28910 0.81900 0.86190 0.05300
C 	C 	0.19890 0.56470 0.83790 -0.01400
H 	H 	0.16390 0.49580 0.84640 0.03900
H 	H 	0.18760 0.62610 0.77490 0.04500
C 	C 	0.22350 0.70960 0.91960 -0.13800
H 	H 	0.20090 0.82890 0.90700 0.07300
H 	H 	0.22250 0.65920 0.98180 0.09700
C 	C 	0.44630 0.09800 0.00650 0.04900
C 	C 	0.44020 0.94300 0.95200 0.09400
N 	N 	0.49390 0.20300 0.96180 -0.12300
N 	N 	0.49290 0.84900 0.93500 -0.10200
C 	C 	0.44990 0.92600 0.02730 -0.09500
Cd	Cd	0.58854 0.47942 0.30818 1.20900
O 	O 	0.90840 0.00920 0.87090 -0.42800
O 	O 	0.56240 0.52650 0.89620 -0.39000
O 	O 	0.57120 0.40520 0.45900 -0.37700
C 	C 	0.55140 0.47520 0.81080 0.34900
N 	N 	0.75130 0.93950 0.84980 -0.17900
O 	O 	0.80050 0.67480 0.81990 -0.25200
C 	C 	0.58440 0.49470 0.65690 0.03300
H 	H 	0.54810 0.43500 0.62310 0.03800
O 	O 	0.50560 0.37220 0.76740 -0.43200
O 	O 	0.82950 0.05990 0.74400 -0.37500
C 	C 	0.69250 0.67640 0.75810 -0.07800
C 	C 	0.61490 0.51110 0.50340 0.32200
C 	C 	0.85210 0.03820 0.83310 0.32700
C 	C 	0.80960 0.03270 0.89720 0.01300
H 	H 	0.82970 0.97010 0.95900 0.02500
C 	C 	0.59550 0.53530 0.75520 -0.12200
O 	O 	0.64770 0.58760 0.45990 -0.39700
C 	C 	0.64890 0.62820 0.80510 0.02200
H 	H 	0.65570 0.65850 0.87020 0.03800
C 	C 	0.62680 0.54260 0.60950 -0.09900
C 	C 	0.75310 0.76210 0.81090 0.21700
C 	C 	0.68160 0.63270 0.66130 0.02200
H 	H 	0.71080 0.66310 0.62990 0.03900
C 	C 	0.78800 0.23410 0.91460 -0.06500
H 	H 	0.81390 0.28670 0.97480 0.06900
H 	H 	0.78910 0.31900 0.86190 0.07100
C 	C 	0.69890 0.06470 0.83790 0.14800
H 	H 	0.66390 0.99580 0.84640 -0.03700
H 	H 	0.68760 0.12610 0.77490 0.01200
C 	C 	0.72350 0.20960 0.91960 -0.19700
H 	H 	0.70090 0.32890 0.90700 0.10500
H 	H 	0.72250 0.15920 0.98180 0.12600
C 	C 	0.94630 0.59800 0.00650 -0.01400
C 	C 	0.94020 0.44300 0.95200 0.11300
N 	N 	0.99390 0.70300 0.96180 -0.09800
N 	N 	0.99290 0.34900 0.93500 -0.06400
C 	C 	0.94990 0.42600 0.02730 -0.02100
Cd	Cd	0.50000 0.51178 -0.00000 1.22700
N 	N 	0.50000 0.81000 -0.00000 -0.16600
Cd	Cd	-0.00000 0.01178 -0.00000 1.22200
N 	N 	-0.00000 0.31000 -0.00000 -0.20900
