data_crystal

_cell_length_a 30.63000
_cell_length_b 30.63000
_cell_length_c 27.81100
_cell_angle_alpha 90.00000
_cell_angle_beta  90.00000
_cell_angle_gamma 90.00000

_symmetry_space_group_name_	'P 1'
_symmetry_space_group_name_H-M	'P 1'

loop_
_symmetry_equiv_pos_as_xyz
  x,y,z

loop_
_atom_site_label
_atom_site_type_symbol
_atom_site_fract_x
_atom_site_fract_y
_atom_site_fract_z
_atom_site_charge
O 	O 	0.22714 0.83624 0.77744 -0.40700
O 	O 	0.19273 0.87061 0.83729 -0.40400
O 	O 	0.27645 0.95560 0.95079 -0.37600
O 	O 	0.34991 0.95497 0.94989 -0.36900
O 	O 	0.11622 0.81957 0.71313 -0.40300
O 	O 	0.08088 0.85437 0.77206 -0.39900
C 	C 	0.22607 0.85671 0.81677 0.36000
C 	C 	0.26933 0.86743 0.83928 -0.08000
C 	C 	0.27167 0.89643 0.87747 0.02000
H 	H 	0.24560 0.90740 0.89140 0.06000
C 	C 	0.31177 0.90945 0.89542 -0.07000
C 	C 	0.34971 0.89360 0.87553 -0.02000
H 	H 	0.37710 0.90300 0.88770 0.06200
C 	C 	0.34834 0.86361 0.83730 0.00500
C 	C 	0.30723 0.85090 0.81940 -0.02200
H 	H 	0.30560 0.83080 0.79350 0.05700
C 	C 	0.31281 0.94183 0.93542 0.34200
C 	C 	0.38763 0.84786 0.81610 0.01400
C 	C 	0.42050 0.83490 0.79720 -0.05300
C 	C 	0.46014 0.82081 0.77630 0.11200
C 	C 	0.46100 0.79300 0.73660 -0.14700
H 	H 	0.43440 0.78430 0.72210 0.09300
C 	C 	0.08198 0.83236 0.73390 0.35200
C 	C 	0.03951 0.81816 0.71292 -0.07100
C 	C 	0.03906 0.78780 0.67588 -0.02800
H 	H 	0.06600 0.77700 0.66370 0.06200
C 	C 	0.98480 0.71490 0.58650 0.01500
C 	C 	0.97780 0.69270 0.54320 0.07500
C 	C 	0.94860 0.65160 0.54210 -0.02200
O 	O 	0.77286 0.16376 0.77744 -0.40800
O 	O 	0.80727 0.12939 0.83729 -0.40600
O 	O 	0.72355 0.04440 0.95079 -0.38900
O 	O 	0.65009 0.04503 0.94989 -0.38200
O 	O 	0.88378 0.18043 0.71313 -0.40300
O 	O 	0.91912 0.14563 0.77206 -0.39600
C 	C 	0.77393 0.14329 0.81677 0.36000
C 	C 	0.73067 0.13257 0.83928 -0.08300
C 	C 	0.72833 0.10357 0.87747 0.02200
H 	H 	0.75440 0.09260 0.89140 0.05700
C 	C 	0.68823 0.09055 0.89542 -0.07500
C 	C 	0.65029 0.10640 0.87553 -0.01900
H 	H 	0.62290 0.09700 0.88770 0.05900
C 	C 	0.65166 0.13639 0.83730 0.00300
C 	C 	0.69277 0.14910 0.81940 -0.02000
H 	H 	0.69440 0.16920 0.79350 0.05600
C 	C 	0.68719 0.05817 0.93542 0.34300
C 	C 	0.61237 0.15214 0.81610 0.01300
C 	C 	0.57950 0.16510 0.79720 -0.05400
C 	C 	0.53986 0.17919 0.77630 0.11100
C 	C 	0.53900 0.20700 0.73660 -0.14700
H 	H 	0.56560 0.21570 0.72210 0.09300
C 	C 	0.91802 0.16764 0.73390 0.35000
C 	C 	0.96049 0.18184 0.71292 -0.05900
C 	C 	0.96094 0.21220 0.67588 -0.01000
H 	H 	0.93400 0.22300 0.66370 0.05900
C 	C 	0.01520 0.28510 0.58650 -0.00000
C 	C 	0.02220 0.30730 0.54320 -0.08200
C 	C 	0.05140 0.34840 0.54210 0.01300
O 	O 	0.16376 0.22714 0.77744 -0.40800
O 	O 	0.12939 0.19273 0.83729 -0.40700
O 	O 	0.04440 0.27645 0.95079 -0.38900
O 	O 	0.04503 0.34991 0.94989 -0.38200
O 	O 	0.18043 0.11622 0.71313 -0.40500
O 	O 	0.14563 0.08088 0.77206 -0.40300
C 	C 	0.14329 0.22607 0.81677 0.36000
C 	C 	0.13257 0.26933 0.83928 -0.08300
C 	C 	0.10357 0.27167 0.87747 0.02200
H 	H 	0.09260 0.24560 0.89140 0.05600
C 	C 	0.09055 0.31177 0.89542 -0.07600
C 	C 	0.10640 0.34971 0.87553 -0.01900
H 	H 	0.09700 0.37710 0.88770 0.05900
C 	C 	0.13639 0.34834 0.83730 0.00300
C 	C 	0.14910 0.30723 0.81940 -0.02000
H 	H 	0.16920 0.30560 0.79350 0.05600
C 	C 	0.05817 0.31281 0.93542 0.34300
C 	C 	0.15214 0.38763 0.81610 0.01300
C 	C 	0.16510 0.42050 0.79720 -0.05400
C 	C 	0.17919 0.46014 0.77630 0.11100
C 	C 	0.20700 0.46100 0.73660 -0.14700
H 	H 	0.21570 0.43440 0.72210 0.09300
C 	C 	0.16764 0.08198 0.73390 0.35200
C 	C 	0.18184 0.03951 0.71292 -0.07300
C 	C 	0.21220 0.03906 0.67588 -0.02700
H 	H 	0.22300 0.06600 0.66370 0.06100
C 	C 	0.28510 0.98480 0.58650 0.01400
C 	C 	0.30730 0.97780 0.54320 0.07500
C 	C 	0.34840 0.94860 0.54210 -0.02300
O 	O 	0.83624 0.77286 0.77744 -0.40800
O 	O 	0.87061 0.80727 0.83729 -0.40300
O 	O 	0.95560 0.72355 0.95079 -0.37700
O 	O 	0.95497 0.65009 0.94989 -0.37000
O 	O 	0.81957 0.88378 0.71313 -0.40200
O 	O 	0.85437 0.91912 0.77206 -0.39300
C 	C 	0.85671 0.77393 0.81677 0.35900
C 	C 	0.86743 0.73067 0.83928 -0.08000
C 	C 	0.89643 0.72833 0.87747 0.02000
H 	H 	0.90740 0.75440 0.89140 0.06000
C 	C 	0.90945 0.68823 0.89542 -0.07000
C 	C 	0.89360 0.65029 0.87553 -0.02100
H 	H 	0.90300 0.62290 0.88770 0.06200
C 	C 	0.86361 0.65166 0.83730 0.00600
C 	C 	0.85090 0.69277 0.81940 -0.02200
H 	H 	0.83080 0.69440 0.79350 0.05700
C 	C 	0.94183 0.68719 0.93542 0.34100
C 	C 	0.84786 0.61237 0.81610 0.01400
C 	C 	0.83490 0.57950 0.79720 -0.05300
C 	C 	0.82081 0.53986 0.77630 0.11200
C 	C 	0.79300 0.53900 0.73660 -0.14700
H 	H 	0.78430 0.56560 0.72210 0.09300
C 	C 	0.83236 0.91802 0.73390 0.35000
C 	C 	0.81816 0.96049 0.71292 -0.05600
C 	C 	0.78780 0.96094 0.67588 -0.01100
H 	H 	0.77700 0.93400 0.66370 0.06000
C 	C 	0.71490 0.01520 0.58650 0.00000
C 	C 	0.69270 0.02220 0.54320 -0.08200
C 	C 	0.65160 0.05140 0.54210 0.01300
O 	O 	0.77286 0.83624 0.22256 -0.40900
O 	O 	0.80727 0.87061 0.16271 -0.41000
O 	O 	0.72355 0.95560 0.04921 -0.40300
O 	O 	0.65009 0.95497 0.05011 -0.39600
O 	O 	0.88378 0.81957 0.28687 -0.40200
O 	O 	0.91912 0.85437 0.22794 -0.39600
C 	C 	0.77393 0.85671 0.18323 0.36000
C 	C 	0.73067 0.86743 0.16072 -0.08700
C 	C 	0.72833 0.89643 0.12253 0.02400
H 	H 	0.75440 0.90740 0.10860 0.05200
C 	C 	0.68823 0.90945 0.10458 -0.08200
C 	C 	0.65029 0.89360 0.12447 -0.01800
H 	H 	0.62290 0.90300 0.11230 0.05600
C 	C 	0.65166 0.86361 0.16270 0.00000
C 	C 	0.69277 0.85090 0.18060 -0.02000
H 	H 	0.69440 0.83080 0.20650 0.05500
C 	C 	0.68719 0.94183 0.06458 0.34400
C 	C 	0.61237 0.84786 0.18390 0.01300
C 	C 	0.57950 0.83490 0.20280 -0.05400
C 	C 	0.53986 0.82081 0.22370 0.11200
C 	C 	0.53900 0.79300 0.26340 -0.14700
H 	H 	0.56560 0.78430 0.27790 0.09300
C 	C 	0.91802 0.83236 0.26610 0.35100
C 	C 	0.96049 0.81816 0.28708 -0.05700
C 	C 	0.96094 0.78780 0.32412 -0.01000
H 	H 	0.93400 0.77700 0.33630 0.05900
C 	C 	0.01520 0.71490 0.41350 -0.00100
C 	C 	0.02220 0.69270 0.45680 -0.08200
C 	C 	0.05140 0.65160 0.45790 0.01300
O 	O 	0.22714 0.16376 0.22256 -0.41000
O 	O 	0.19273 0.12939 0.16271 -0.41400
O 	O 	0.27645 0.04440 0.04921 -0.41700
O 	O 	0.34991 0.04503 0.05011 -0.40900
O 	O 	0.11622 0.18043 0.28687 -0.40500
O 	O 	0.08088 0.14563 0.22794 -0.40600
C 	C 	0.22607 0.14329 0.18323 0.36200
C 	C 	0.26933 0.13257 0.16072 -0.09100
C 	C 	0.27167 0.10357 0.12253 0.02600
H 	H 	0.24560 0.09260 0.10860 0.04700
C 	C 	0.31177 0.09055 0.10458 -0.08800
C 	C 	0.34971 0.10640 0.12447 -0.01500
H 	H 	0.37710 0.09700 0.11230 0.05300
C 	C 	0.34834 0.13639 0.16270 -0.00300
C 	C 	0.30723 0.14910 0.18060 -0.01800
H 	H 	0.30560 0.16920 0.20650 0.05400
C 	C 	0.31281 0.05817 0.06458 0.34700
C 	C 	0.38763 0.15214 0.18390 0.01300
C 	C 	0.42050 0.16510 0.20280 -0.05600
C 	C 	0.46014 0.17919 0.22370 0.11100
C 	C 	0.46100 0.20700 0.26340 -0.14700
H 	H 	0.43440 0.21570 0.27790 0.09300
C 	C 	0.08198 0.16764 0.26610 0.35300
C 	C 	0.03951 0.18184 0.28708 -0.07500
C 	C 	0.03906 0.21220 0.32412 -0.02600
H 	H 	0.06600 0.22300 0.33630 0.06100
C 	C 	0.98480 0.28510 0.41350 0.01500
C 	C 	0.97780 0.30730 0.45680 0.07400
C 	C 	0.94860 0.34840 0.45790 -0.02200
O 	O 	0.83624 0.22714 0.22256 -0.40900
O 	O 	0.87061 0.19273 0.16271 -0.41100
O 	O 	0.95560 0.27645 0.04921 -0.40400
O 	O 	0.95497 0.34991 0.05011 -0.39600
O 	O 	0.81957 0.11622 0.28687 -0.40400
O 	O 	0.85437 0.08088 0.22794 -0.40300
C 	C 	0.85671 0.22607 0.18323 0.36100
C 	C 	0.86743 0.26933 0.16072 -0.08800
C 	C 	0.89643 0.27167 0.12253 0.02400
H 	H 	0.90740 0.24560 0.10860 0.05100
C 	C 	0.90945 0.31177 0.10458 -0.08200
C 	C 	0.89360 0.34971 0.12447 -0.01700
H 	H 	0.90300 0.37710 0.11230 0.05600
C 	C 	0.86361 0.34834 0.16270 -0.00000
C 	C 	0.85090 0.30723 0.18060 -0.01900
H 	H 	0.83080 0.30560 0.20650 0.05500
C 	C 	0.94183 0.31281 0.06458 0.34500
C 	C 	0.84786 0.38763 0.18390 0.01300
C 	C 	0.83490 0.42050 0.20280 -0.05400
C 	C 	0.82081 0.46014 0.22370 0.11200
C 	C 	0.79300 0.46100 0.26340 -0.14700
H 	H 	0.78430 0.43440 0.27790 0.09300
C 	C 	0.83236 0.08198 0.26610 0.35300
C 	C 	0.81816 0.03951 0.28708 -0.07200
C 	C 	0.78780 0.03906 0.32412 -0.02700
H 	H 	0.77700 0.06600 0.33630 0.06200
C 	C 	0.71490 0.98480 0.41350 0.01600
C 	C 	0.69270 0.97780 0.45680 0.07400
C 	C 	0.65160 0.94860 0.45790 -0.02200
O 	O 	0.16376 0.77286 0.22256 -0.40900
O 	O 	0.12939 0.80727 0.16271 -0.41300
O 	O 	0.04440 0.72355 0.04921 -0.41600
O 	O 	0.04503 0.65009 0.05011 -0.40900
O 	O 	0.18043 0.88378 0.28687 -0.40300
O 	O 	0.14563 0.91912 0.22794 -0.39900
C 	C 	0.14329 0.77393 0.18323 0.36100
C 	C 	0.13257 0.73067 0.16072 -0.09000
C 	C 	0.10357 0.72833 0.12253 0.02600
H 	H 	0.09260 0.75440 0.10860 0.04800
C 	C 	0.09055 0.68823 0.10458 -0.08800
C 	C 	0.10640 0.65029 0.12447 -0.01600
H 	H 	0.09700 0.62290 0.11230 0.05300
C 	C 	0.13639 0.65166 0.16270 -0.00300
C 	C 	0.14910 0.69277 0.18060 -0.01800
H 	H 	0.16920 0.69440 0.20650 0.05400
C 	C 	0.05817 0.68719 0.06458 0.34600
C 	C 	0.15214 0.61237 0.18390 0.01300
C 	C 	0.16510 0.57950 0.20280 -0.05600
C 	C 	0.17919 0.53986 0.22370 0.11100
C 	C 	0.20700 0.53900 0.26340 -0.14700
H 	H 	0.21570 0.56560 0.27790 0.09300
C 	C 	0.16764 0.91802 0.26610 0.35100
C 	C 	0.18184 0.96049 0.28708 -0.06000
C 	C 	0.21220 0.96094 0.32412 -0.00900
H 	H 	0.22300 0.93400 0.33630 0.05800
C 	C 	0.28510 0.01520 0.41350 -0.00100
C 	C 	0.30730 0.02220 0.45680 -0.08200
C 	C 	0.34840 0.05140 0.45790 0.01300
O 	O 	0.77286 0.16376 0.22256 -0.40900
O 	O 	0.80727 0.12939 0.16271 -0.41300
O 	O 	0.72355 0.04440 0.04921 -0.41600
O 	O 	0.65009 0.04503 0.05011 -0.40900
O 	O 	0.88378 0.18043 0.28687 -0.40300
O 	O 	0.91912 0.14563 0.22794 -0.39900
C 	C 	0.77393 0.14329 0.18323 0.36100
C 	C 	0.73067 0.13257 0.16072 -0.09000
C 	C 	0.72833 0.10357 0.12253 0.02600
H 	H 	0.75440 0.09260 0.10860 0.04800
C 	C 	0.68823 0.09055 0.10458 -0.08800
C 	C 	0.65029 0.10640 0.12447 -0.01600
H 	H 	0.62290 0.09700 0.11230 0.05300
C 	C 	0.65166 0.13639 0.16270 -0.00300
C 	C 	0.69277 0.14910 0.18060 -0.01800
H 	H 	0.69440 0.16920 0.20650 0.05400
C 	C 	0.68719 0.05817 0.06458 0.34600
C 	C 	0.61237 0.15214 0.18390 0.01300
C 	C 	0.57950 0.16510 0.20280 -0.05600
C 	C 	0.53986 0.17919 0.22370 0.11100
C 	C 	0.53900 0.20700 0.26340 -0.14700
H 	H 	0.56560 0.21570 0.27790 0.09300
C 	C 	0.91802 0.16764 0.26610 0.35100
C 	C 	0.96049 0.18184 0.28708 -0.06000
C 	C 	0.96094 0.21220 0.32412 -0.00900
H 	H 	0.93400 0.22300 0.33630 0.05800
C 	C 	0.01520 0.28510 0.41350 -0.00100
C 	C 	0.02220 0.30730 0.45680 -0.08200
C 	C 	0.05140 0.34840 0.45790 0.01300
O 	O 	0.22714 0.83624 0.22256 -0.40900
O 	O 	0.19273 0.87061 0.16271 -0.41100
O 	O 	0.27645 0.95560 0.04921 -0.40400
O 	O 	0.34991 0.95497 0.05011 -0.39600
O 	O 	0.11622 0.81957 0.28687 -0.40400
O 	O 	0.08088 0.85437 0.22794 -0.40300
C 	C 	0.22607 0.85671 0.18323 0.36100
C 	C 	0.26933 0.86743 0.16072 -0.08800
C 	C 	0.27167 0.89643 0.12253 0.02400
H 	H 	0.24560 0.90740 0.10860 0.05100
C 	C 	0.31177 0.90945 0.10458 -0.08200
C 	C 	0.34971 0.89360 0.12447 -0.01700
H 	H 	0.37710 0.90300 0.11230 0.05600
C 	C 	0.34834 0.86361 0.16270 -0.00000
C 	C 	0.30723 0.85090 0.18060 -0.01900
H 	H 	0.30560 0.83080 0.20650 0.05500
C 	C 	0.31281 0.94183 0.06458 0.34500
C 	C 	0.38763 0.84786 0.18390 0.01300
C 	C 	0.42050 0.83490 0.20280 -0.05400
C 	C 	0.46014 0.82081 0.22370 0.11200
C 	C 	0.46100 0.79300 0.26340 -0.14700
H 	H 	0.43440 0.78430 0.27790 0.09300
C 	C 	0.08198 0.83236 0.26610 0.35300
C 	C 	0.03951 0.81816 0.28708 -0.07200
C 	C 	0.03906 0.78780 0.32412 -0.02700
H 	H 	0.06600 0.77700 0.33630 0.06200
C 	C 	0.98480 0.71490 0.41350 0.01600
C 	C 	0.97780 0.69270 0.45680 0.07400
C 	C 	0.94860 0.65160 0.45790 -0.02200
O 	O 	0.83624 0.77286 0.22256 -0.40900
O 	O 	0.87061 0.80727 0.16271 -0.41000
O 	O 	0.95560 0.72355 0.04921 -0.40300
O 	O 	0.95497 0.65009 0.05011 -0.39600
O 	O 	0.81957 0.88378 0.28687 -0.40200
O 	O 	0.85437 0.91912 0.22794 -0.39600
C 	C 	0.85671 0.77393 0.18323 0.36000
C 	C 	0.86743 0.73067 0.16072 -0.08700
C 	C 	0.89643 0.72833 0.12253 0.02400
H 	H 	0.90740 0.75440 0.10860 0.05200
C 	C 	0.90945 0.68823 0.10458 -0.08200
C 	C 	0.89360 0.65029 0.12447 -0.01800
H 	H 	0.90300 0.62290 0.11230 0.05600
C 	C 	0.86361 0.65166 0.16270 0.00000
C 	C 	0.85090 0.69277 0.18060 -0.02000
H 	H 	0.83080 0.69440 0.20650 0.05500
C 	C 	0.94183 0.68719 0.06458 0.34400
C 	C 	0.84786 0.61237 0.18390 0.01300
C 	C 	0.83490 0.57950 0.20280 -0.05400
C 	C 	0.82081 0.53986 0.22370 0.11200
C 	C 	0.79300 0.53900 0.26340 -0.14700
H 	H 	0.78430 0.56560 0.27790 0.09300
C 	C 	0.83236 0.91802 0.26610 0.35100
C 	C 	0.81816 0.96049 0.28708 -0.05700
C 	C 	0.78780 0.96094 0.32412 -0.01000
H 	H 	0.77700 0.93400 0.33630 0.05900
C 	C 	0.71490 0.01520 0.41350 -0.00100
C 	C 	0.69270 0.02220 0.45680 -0.08200
C 	C 	0.65160 0.05140 0.45790 0.01300
O 	O 	0.16376 0.22714 0.22256 -0.41000
O 	O 	0.12939 0.19273 0.16271 -0.41400
O 	O 	0.04440 0.27645 0.04921 -0.41700
O 	O 	0.04503 0.34991 0.05011 -0.40900
O 	O 	0.18043 0.11622 0.28687 -0.40500
O 	O 	0.14563 0.08088 0.22794 -0.40600
C 	C 	0.14329 0.22607 0.18323 0.36200
C 	C 	0.13257 0.26933 0.16072 -0.09100
C 	C 	0.10357 0.27167 0.12253 0.02600
H 	H 	0.09260 0.24560 0.10860 0.04700
C 	C 	0.09055 0.31177 0.10458 -0.08800
C 	C 	0.10640 0.34971 0.12447 -0.01500
H 	H 	0.09700 0.37710 0.11230 0.05300
C 	C 	0.13639 0.34834 0.16270 -0.00300
C 	C 	0.14910 0.30723 0.18060 -0.01800
H 	H 	0.16920 0.30560 0.20650 0.05400
C 	C 	0.05817 0.31281 0.06458 0.34700
C 	C 	0.15214 0.38763 0.18390 0.01300
C 	C 	0.16510 0.42050 0.20280 -0.05600
C 	C 	0.17919 0.46014 0.22370 0.11100
C 	C 	0.20700 0.46100 0.26340 -0.14700
H 	H 	0.21570 0.43440 0.27790 0.09300
C 	C 	0.16764 0.08198 0.26610 0.35300
C 	C 	0.18184 0.03951 0.28708 -0.07500
C 	C 	0.21220 0.03906 0.32412 -0.02600
H 	H 	0.22300 0.06600 0.33630 0.06100
C 	C 	0.28510 0.98480 0.41350 0.01500
C 	C 	0.30730 0.97780 0.45680 0.07400
C 	C 	0.34840 0.94860 0.45790 -0.02200
O 	O 	0.22714 0.16376 0.77744 -0.40800
O 	O 	0.19273 0.12939 0.83729 -0.40700
O 	O 	0.27645 0.04440 0.95079 -0.38900
O 	O 	0.34991 0.04503 0.94989 -0.38200
O 	O 	0.11622 0.18043 0.71313 -0.40500
O 	O 	0.08088 0.14563 0.77206 -0.40300
C 	C 	0.22607 0.14329 0.81677 0.36000
C 	C 	0.26933 0.13257 0.83928 -0.08300
C 	C 	0.27167 0.10357 0.87747 0.02200
H 	H 	0.24560 0.09260 0.89140 0.05600
C 	C 	0.31177 0.09055 0.89542 -0.07600
C 	C 	0.34971 0.10640 0.87553 -0.01900
H 	H 	0.37710 0.09700 0.88770 0.05900
C 	C 	0.34834 0.13639 0.83730 0.00300
C 	C 	0.30723 0.14910 0.81940 -0.02000
H 	H 	0.30560 0.16920 0.79350 0.05600
C 	C 	0.31281 0.05817 0.93542 0.34300
C 	C 	0.38763 0.15214 0.81610 0.01300
C 	C 	0.42050 0.16510 0.79720 -0.05400
C 	C 	0.46014 0.17919 0.77630 0.11100
C 	C 	0.46100 0.20700 0.73660 -0.14700
H 	H 	0.43440 0.21570 0.72210 0.09300
C 	C 	0.08198 0.16764 0.73390 0.35200
C 	C 	0.03951 0.18184 0.71292 -0.07300
C 	C 	0.03906 0.21220 0.67588 -0.02700
H 	H 	0.06600 0.22300 0.66370 0.06100
C 	C 	0.98480 0.28510 0.58650 0.01400
C 	C 	0.97780 0.30730 0.54320 0.07500
C 	C 	0.94860 0.34840 0.54210 -0.02300
O 	O 	0.77286 0.83624 0.77744 -0.40800
O 	O 	0.80727 0.87061 0.83729 -0.40300
O 	O 	0.72355 0.95560 0.95079 -0.37700
O 	O 	0.65009 0.95497 0.94989 -0.37000
O 	O 	0.88378 0.81957 0.71313 -0.40200
O 	O 	0.91912 0.85437 0.77206 -0.39300
C 	C 	0.77393 0.85671 0.81677 0.35900
C 	C 	0.73067 0.86743 0.83928 -0.08000
C 	C 	0.72833 0.89643 0.87747 0.02000
H 	H 	0.75440 0.90740 0.89140 0.06000
C 	C 	0.68823 0.90945 0.89542 -0.07000
C 	C 	0.65029 0.89360 0.87553 -0.02100
H 	H 	0.62290 0.90300 0.88770 0.06200
C 	C 	0.65166 0.86361 0.83730 0.00600
C 	C 	0.69277 0.85090 0.81940 -0.02200
H 	H 	0.69440 0.83080 0.79350 0.05700
C 	C 	0.68719 0.94183 0.93542 0.34100
C 	C 	0.61237 0.84786 0.81610 0.01400
C 	C 	0.57950 0.83490 0.79720 -0.05300
C 	C 	0.53986 0.82081 0.77630 0.11200
C 	C 	0.53900 0.79300 0.73660 -0.14700
H 	H 	0.56560 0.78430 0.72210 0.09300
C 	C 	0.91802 0.83236 0.73390 0.35000
C 	C 	0.96049 0.81816 0.71292 -0.05600
C 	C 	0.96094 0.78780 0.67588 -0.01100
H 	H 	0.93400 0.77700 0.66370 0.06000
C 	C 	0.01520 0.71490 0.58650 0.00000
C 	C 	0.02220 0.69270 0.54320 -0.08200
C 	C 	0.05140 0.65160 0.54210 0.01300
O 	O 	0.16376 0.77286 0.77744 -0.40800
O 	O 	0.12939 0.80727 0.83729 -0.40600
O 	O 	0.04440 0.72355 0.95079 -0.38900
O 	O 	0.04503 0.65009 0.94989 -0.38200
O 	O 	0.18043 0.88378 0.71313 -0.40300
O 	O 	0.14563 0.91912 0.77206 -0.39600
C 	C 	0.14329 0.77393 0.81677 0.36000
C 	C 	0.13257 0.73067 0.83928 -0.08300
C 	C 	0.10357 0.72833 0.87747 0.02200
H 	H 	0.09260 0.75440 0.89140 0.05700
C 	C 	0.09055 0.68823 0.89542 -0.07500
C 	C 	0.10640 0.65029 0.87553 -0.01900
H 	H 	0.09700 0.62290 0.88770 0.05900
C 	C 	0.13639 0.65166 0.83730 0.00300
C 	C 	0.14910 0.69277 0.81940 -0.02000
H 	H 	0.16920 0.69440 0.79350 0.05600
C 	C 	0.05817 0.68719 0.93542 0.34300
C 	C 	0.15214 0.61237 0.81610 0.01300
C 	C 	0.16510 0.57950 0.79720 -0.05400
C 	C 	0.17919 0.53986 0.77630 0.11100
C 	C 	0.20700 0.53900 0.73660 -0.14700
H 	H 	0.21570 0.56560 0.72210 0.09300
C 	C 	0.16764 0.91802 0.73390 0.35000
C 	C 	0.18184 0.96049 0.71292 -0.05900
C 	C 	0.21220 0.96094 0.67588 -0.01000
H 	H 	0.22300 0.93400 0.66370 0.05900
C 	C 	0.28510 0.01520 0.58650 -0.00000
C 	C 	0.30730 0.02220 0.54320 -0.08200
C 	C 	0.34840 0.05140 0.54210 0.01300
O 	O 	0.83624 0.22714 0.77744 -0.40800
O 	O 	0.87061 0.19273 0.83729 -0.40500
O 	O 	0.95560 0.27645 0.95079 -0.37700
O 	O 	0.95497 0.34991 0.94989 -0.37000
O 	O 	0.81957 0.11622 0.71313 -0.40400
O 	O 	0.85437 0.08088 0.77206 -0.40000
C 	C 	0.85671 0.22607 0.81677 0.35900
C 	C 	0.86743 0.26933 0.83928 -0.08100
C 	C 	0.89643 0.27167 0.87747 0.02000
H 	H 	0.90740 0.24560 0.89140 0.06000
C 	C 	0.90945 0.31177 0.89542 -0.07000
C 	C 	0.89360 0.34971 0.87553 -0.02000
H 	H 	0.90300 0.37710 0.88770 0.06200
C 	C 	0.86361 0.34834 0.83730 0.00500
C 	C 	0.85090 0.30723 0.81940 -0.02200
H 	H 	0.83080 0.30560 0.79350 0.05700
C 	C 	0.94183 0.31281 0.93542 0.34200
C 	C 	0.84786 0.38763 0.81610 0.01400
C 	C 	0.83490 0.42050 0.79720 -0.05300
C 	C 	0.82081 0.46014 0.77630 0.11200
C 	C 	0.79300 0.46100 0.73660 -0.14700
H 	H 	0.78430 0.43440 0.72210 0.09300
C 	C 	0.83236 0.08198 0.73390 0.35200
C 	C 	0.81816 0.03951 0.71292 -0.07100
C 	C 	0.78780 0.03906 0.67588 -0.02800
H 	H 	0.77700 0.06600 0.66370 0.06200
C 	C 	0.71490 0.98480 0.58650 0.01500
C 	C 	0.69270 0.97780 0.54320 0.07500
C 	C 	0.65160 0.94860 0.54210 -0.02200
Cu	Cu	0.17514 0.82486 0.73940 0.90800
Cu	Cu	0.13376 0.86624 0.80999 0.90600
Cu	Cu	0.82486 0.17514 0.73940 0.90800
Cu	Cu	0.86624 0.13376 0.80999 0.90600
Cu	Cu	0.17514 0.17514 0.73940 0.90800
Cu	Cu	0.13376 0.13376 0.80999 0.90400
Cu	Cu	0.82486 0.82486 0.73940 0.90800
Cu	Cu	0.86624 0.86624 0.80999 0.90700
Cu	Cu	0.82486 0.82486 0.26060 0.90800
Cu	Cu	0.86624 0.86624 0.19001 0.90500
Cu	Cu	0.17514 0.17514 0.26060 0.90800
Cu	Cu	0.13376 0.13376 0.19001 0.90200
Cu	Cu	0.82486 0.17514 0.26060 0.90800
Cu	Cu	0.86624 0.13376 0.19001 0.90300
Cu	Cu	0.17514 0.82486 0.26060 0.90800
Cu	Cu	0.13376 0.86624 0.19001 0.90300
Cu	Cu	0.35700 0.00000 -0.00000 0.87700
Cu	Cu	0.27020 0.00000 -0.00000 0.88400
Cu	Cu	0.64300 0.00000 -0.00000 0.87700
Cu	Cu	0.72980 0.00000 -0.00000 0.88500
Cu	Cu	-0.00000 0.35700 -0.00000 0.87700
Cu	Cu	0.00000 0.27020 -0.00000 0.88400
Cu	Cu	-0.00000 0.64300 -0.00000 0.87700
Cu	Cu	0.00000 0.72980 -0.00000 0.88500
C 	C 	0.50000 0.83490 0.79530 -0.15900
H 	H 	0.50000 0.85460 0.82170 0.09500
C 	C 	0.50000 0.77800 0.71820 0.07500
H 	H 	0.50000 0.75720 0.69290 0.01600
C 	C 	0.50000 0.16510 0.79530 -0.15900
H 	H 	0.50000 0.14540 0.82170 0.09300
C 	C 	0.50000 0.22200 0.71820 0.07500
H 	H 	0.50000 0.24280 0.69290 0.01600
C 	C 	0.16510 0.50000 0.79530 -0.15900
H 	H 	0.14540 0.50000 0.82170 0.09300
C 	C 	0.22200 0.50000 0.71820 0.07500
H 	H 	0.24280 0.50000 0.69290 0.01600
C 	C 	0.83490 0.50000 0.79530 -0.15900
H 	H 	0.85460 0.50000 0.82170 0.09500
C 	C 	0.77800 0.50000 0.71820 0.07500
H 	H 	0.75720 0.50000 0.69290 0.01600
C 	C 	0.50000 0.83490 0.20470 -0.15900
H 	H 	0.50000 0.85460 0.17830 0.09400
C 	C 	0.50000 0.77800 0.28180 0.07500
H 	H 	0.50000 0.75720 0.30710 0.01600
C 	C 	0.50000 0.16510 0.20470 -0.15900
H 	H 	0.50000 0.14540 0.17830 0.09200
C 	C 	0.50000 0.22200 0.28180 0.07500
H 	H 	0.50000 0.24280 0.30710 0.01600
C 	C 	0.83490 0.50000 0.20470 -0.15900
H 	H 	0.85460 0.50000 0.17830 0.09400
C 	C 	0.77800 0.50000 0.28180 0.07500
H 	H 	0.75720 0.50000 0.30710 0.01600
C 	C 	0.16510 0.50000 0.20470 -0.15900
H 	H 	0.14540 0.50000 0.17830 0.09200
C 	C 	0.22200 0.50000 0.28180 0.07500
H 	H 	0.24280 0.50000 0.30710 0.01600
C 	C 	0.00000 0.83330 0.73210 -0.00500
H 	H 	0.00000 0.85360 0.75780 0.05900
C 	C 	-0.00000 0.77260 0.65610 0.01000
C 	C 	0.00000 0.74200 0.61900 -0.03000
C 	C 	0.00000 0.16670 0.73210 -0.00500
H 	H 	0.00000 0.14640 0.75780 0.05600
C 	C 	0.00000 0.22740 0.65610 0.00800
C 	C 	-0.00000 0.25800 0.61900 -0.03000
C 	C 	0.16670 0.00000 0.73210 -0.00500
H 	H 	0.14640 0.00000 0.75780 0.05600
C 	C 	0.22740 0.00000 0.65610 0.00800
C 	C 	0.25800 0.00000 0.61900 -0.03000
C 	C 	0.83330 0.00000 0.73210 -0.00500
H 	H 	0.85360 0.00000 0.75780 0.05900
C 	C 	0.77260 0.00000 0.65610 0.01000
C 	C 	0.74200 0.00000 0.61900 -0.03000
C 	C 	0.00000 0.83330 0.26790 -0.00500
H 	H 	-0.00000 0.85360 0.24220 0.05600
C 	C 	0.00000 0.77260 0.34390 0.00900
C 	C 	-0.00000 0.74200 0.38100 -0.02900
C 	C 	-0.00000 0.16670 0.26790 -0.00400
H 	H 	0.00000 0.14640 0.24220 0.05300
C 	C 	0.00000 0.22740 0.34390 0.00700
C 	C 	-0.00000 0.25800 0.38100 -0.03000
C 	C 	0.83330 -0.00000 0.26790 -0.00500
H 	H 	0.85360 0.00000 0.24220 0.05600
C 	C 	0.77260 0.00000 0.34390 0.00900
C 	C 	0.74200 0.00000 0.38100 -0.02900
C 	C 	0.16670 -0.00000 0.26790 -0.00400
H 	H 	0.14640 0.00000 0.24220 0.05300
C 	C 	0.22740 0.00000 0.34390 0.00700
C 	C 	0.25800 0.00000 0.38100 -0.03000
C 	C 	0.98740 0.71220 0.50000 -0.15800
C 	C 	0.93460 0.63430 0.50000 0.01700
C 	C 	0.01260 0.28780 0.50000 0.16200
C 	C 	0.06540 0.36570 0.50000 -0.01900
C 	C 	0.28780 0.98740 0.50000 -0.15800
C 	C 	0.36570 0.93460 0.50000 0.01700
C 	C 	0.71220 0.01260 0.50000 0.16300
C 	C 	0.63430 0.06540 0.50000 -0.01900
C 	C 	0.01260 0.71220 0.50000 0.16300
C 	C 	0.06540 0.63430 0.50000 -0.01900
C 	C 	0.98740 0.28780 0.50000 -0.15800
C 	C 	0.93460 0.36570 0.50000 0.01700
C 	C 	0.71220 0.98740 0.50000 -0.15800
C 	C 	0.63430 0.93460 0.50000 0.01700
C 	C 	0.28780 0.01260 0.50000 0.16200
C 	C 	0.36570 0.06540 0.50000 -0.01900
O 	O 	0.72714 0.33624 0.27744 -0.40900
O 	O 	0.69273 0.37061 0.33729 -0.40900
O 	O 	0.77645 0.45560 0.45079 -0.40300
O 	O 	0.84991 0.45497 0.44989 -0.39600
O 	O 	0.61622 0.31957 0.21313 -0.40700
O 	O 	0.58088 0.35437 0.27206 -0.40300
C 	C 	0.72607 0.35671 0.31677 0.36100
C 	C 	0.76933 0.36743 0.33928 -0.08700
C 	C 	0.77167 0.39643 0.37747 0.02400
H 	H 	0.74560 0.40740 0.39140 0.05300
C 	C 	0.81177 0.40945 0.39542 -0.08100
C 	C 	0.84971 0.39360 0.37553 -0.01700
H 	H 	0.87710 0.40300 0.38770 0.05800
C 	C 	0.84834 0.36361 0.33730 0.00000
C 	C 	0.80723 0.35090 0.31940 -0.01900
H 	H 	0.80560 0.33080 0.29350 0.05500
C 	C 	0.81281 0.44183 0.43542 0.34600
C 	C 	0.88763 0.34786 0.31610 0.01600
C 	C 	0.92050 0.33490 0.29720 -0.05500
C 	C 	0.96014 0.32081 0.27630 0.12500
C 	C 	0.96100 0.29300 0.23660 -0.11900
H 	H 	0.93440 0.28430 0.22210 0.08600
C 	C 	0.58198 0.33236 0.23390 0.35500
C 	C 	0.53951 0.31816 0.21292 -0.07900
C 	C 	0.53906 0.28780 0.17588 -0.02500
H 	H 	0.56600 0.27700 0.16370 0.05900
C 	C 	0.48480 0.21490 0.08650 -0.00200
C 	C 	0.47780 0.19270 0.04320 -0.00100
C 	C 	0.44860 0.15160 0.04210 -0.00100
O 	O 	0.27286 0.66376 0.27744 -0.40900
O 	O 	0.30727 0.62939 0.33729 -0.40900
O 	O 	0.22355 0.54440 0.45079 -0.40400
O 	O 	0.15009 0.54503 0.44989 -0.39800
O 	O 	0.38378 0.68043 0.21313 -0.40700
O 	O 	0.41912 0.64563 0.27206 -0.40300
C 	C 	0.27393 0.64329 0.31677 0.36100
C 	C 	0.23067 0.63257 0.33928 -0.08700
C 	C 	0.22833 0.60357 0.37747 0.02400
H 	H 	0.25440 0.59260 0.39140 0.05300
C 	C 	0.18823 0.59055 0.39542 -0.08200
C 	C 	0.15029 0.60640 0.37553 -0.01600
H 	H 	0.12290 0.59700 0.38770 0.05500
C 	C 	0.15166 0.63639 0.33730 -0.00000
C 	C 	0.19277 0.64910 0.31940 -0.01900
H 	H 	0.19440 0.66920 0.29350 0.05500
C 	C 	0.18719 0.55817 0.43542 0.34700
C 	C 	0.11237 0.65214 0.31610 0.01300
C 	C 	0.07950 0.66510 0.29720 -0.05600
C 	C 	0.03986 0.67919 0.27630 0.11100
C 	C 	0.03900 0.70700 0.23660 -0.13700
H 	H 	0.06560 0.71570 0.22210 0.08900
C 	C 	0.41802 0.66764 0.23390 0.35500
C 	C 	0.46049 0.68184 0.21292 -0.08000
C 	C 	0.46094 0.71220 0.17588 -0.02600
H 	H 	0.43400 0.72300 0.16370 0.05900
C 	C 	0.51520 0.78510 0.08650 -0.00200
C 	C 	0.52220 0.80730 0.04320 -0.00100
C 	C 	0.55140 0.84840 0.04210 0.00000
O 	O 	0.66376 0.72714 0.27744 -0.40900
O 	O 	0.62939 0.69273 0.33729 -0.40900
O 	O 	0.54440 0.77645 0.45079 -0.40300
O 	O 	0.54503 0.84991 0.44989 -0.39600
O 	O 	0.68043 0.61622 0.21313 -0.40700
O 	O 	0.64563 0.58088 0.27206 -0.40300
C 	C 	0.64329 0.72607 0.31677 0.36100
C 	C 	0.63257 0.76933 0.33928 -0.08700
C 	C 	0.60357 0.77167 0.37747 0.02400
H 	H 	0.59260 0.74560 0.39140 0.05300
C 	C 	0.59055 0.81177 0.39542 -0.08100
C 	C 	0.60640 0.84971 0.37553 -0.01700
H 	H 	0.59700 0.87710 0.38770 0.05800
C 	C 	0.63639 0.84834 0.33730 0.00000
C 	C 	0.64910 0.80723 0.31940 -0.01900
H 	H 	0.66920 0.80560 0.29350 0.05500
C 	C 	0.55817 0.81281 0.43542 0.34600
C 	C 	0.65214 0.88763 0.31610 0.01600
C 	C 	0.66510 0.92050 0.29720 -0.05500
C 	C 	0.67919 0.96014 0.27630 0.12500
C 	C 	0.70700 0.96100 0.23660 -0.11800
H 	H 	0.71570 0.93440 0.22210 0.08600
C 	C 	0.66764 0.58198 0.23390 0.35500
C 	C 	0.68184 0.53951 0.21292 -0.08000
C 	C 	0.71220 0.53906 0.17588 -0.02600
H 	H 	0.72300 0.56600 0.16370 0.05900
C 	C 	0.78510 0.48480 0.08650 -0.00200
C 	C 	0.80730 0.47780 0.04320 -0.00200
C 	C 	0.84840 0.44860 0.04210 0.00000
O 	O 	0.33624 0.27286 0.27744 -0.40900
O 	O 	0.37061 0.30727 0.33729 -0.40900
O 	O 	0.45560 0.22355 0.45079 -0.40400
O 	O 	0.45497 0.15009 0.44989 -0.39800
O 	O 	0.31957 0.38378 0.21313 -0.40700
O 	O 	0.35437 0.41912 0.27206 -0.40300
C 	C 	0.35671 0.27393 0.31677 0.36100
C 	C 	0.36743 0.23067 0.33928 -0.08700
C 	C 	0.39643 0.22833 0.37747 0.02400
H 	H 	0.40740 0.25440 0.39140 0.05300
C 	C 	0.40945 0.18823 0.39542 -0.08200
C 	C 	0.39360 0.15029 0.37553 -0.01600
H 	H 	0.40300 0.12290 0.38770 0.05500
C 	C 	0.36361 0.15166 0.33730 -0.00000
C 	C 	0.35090 0.19277 0.31940 -0.01900
H 	H 	0.33080 0.19440 0.29350 0.05500
C 	C 	0.44183 0.18719 0.43542 0.34700
C 	C 	0.34786 0.11237 0.31610 0.01300
C 	C 	0.33490 0.07950 0.29720 -0.05600
C 	C 	0.32081 0.03986 0.27630 0.11200
C 	C 	0.29300 0.03900 0.23660 -0.13700
H 	H 	0.28430 0.06560 0.22210 0.08900
C 	C 	0.33236 0.41802 0.23390 0.35500
C 	C 	0.31816 0.46049 0.21292 -0.07900
C 	C 	0.28780 0.46094 0.17588 -0.02500
H 	H 	0.27700 0.43400 0.16370 0.05900
C 	C 	0.21490 0.51520 0.08650 -0.00200
C 	C 	0.19270 0.52220 0.04320 -0.00100
C 	C 	0.15160 0.55140 0.04210 -0.00100
O 	O 	0.27286 0.33624 0.72256 -0.40800
O 	O 	0.30727 0.37061 0.66271 -0.40900
O 	O 	0.22355 0.45560 0.54921 -0.40400
O 	O 	0.15009 0.45497 0.55011 -0.39800
O 	O 	0.38378 0.31957 0.78687 -0.40300
O 	O 	0.41912 0.35437 0.72794 -0.40200
C 	C 	0.27393 0.35671 0.68323 0.36000
C 	C 	0.23067 0.36743 0.66072 -0.08700
C 	C 	0.22833 0.39643 0.62253 0.02400
H 	H 	0.25440 0.40740 0.60860 0.05300
C 	C 	0.18823 0.40945 0.60458 -0.08200
C 	C 	0.15029 0.39360 0.62447 -0.01700
H 	H 	0.12290 0.40300 0.61230 0.05500
C 	C 	0.15166 0.36361 0.66270 -0.00000
C 	C 	0.19277 0.35090 0.68060 -0.01900
H 	H 	0.19440 0.33080 0.70650 0.05500
C 	C 	0.18719 0.44183 0.56458 0.34700
C 	C 	0.11237 0.34786 0.68390 0.01300
C 	C 	0.07950 0.33490 0.70280 -0.05500
C 	C 	0.03986 0.32081 0.72370 0.11100
C 	C 	0.03900 0.29300 0.76340 -0.13600
H 	H 	0.06560 0.28430 0.77790 0.08900
C 	C 	0.41802 0.33236 0.76610 0.35500
C 	C 	0.46049 0.31816 0.78708 -0.07600
C 	C 	0.46094 0.28780 0.82412 -0.02400
H 	H 	0.43400 0.27700 0.83630 0.06300
C 	C 	0.51520 0.21490 0.91350 -0.00300
C 	C 	0.52220 0.19270 0.95680 0.02000
C 	C 	0.55140 0.15160 0.95790 0.03800
O 	O 	0.72714 0.66376 0.72256 -0.40800
O 	O 	0.69273 0.62939 0.66271 -0.40900
O 	O 	0.77645 0.54440 0.54921 -0.40300
O 	O 	0.84991 0.54503 0.55011 -0.39600
O 	O 	0.61622 0.68043 0.78687 -0.40300
O 	O 	0.58088 0.64563 0.72794 -0.40200
C 	C 	0.72607 0.64329 0.68323 0.36000
C 	C 	0.76933 0.63257 0.66072 -0.08600
C 	C 	0.77167 0.60357 0.62253 0.02400
H 	H 	0.74560 0.59260 0.60860 0.05300
C 	C 	0.81177 0.59055 0.60458 -0.08100
C 	C 	0.84971 0.60640 0.62447 -0.01700
H 	H 	0.87710 0.59700 0.61230 0.05800
C 	C 	0.84834 0.63639 0.66270 0.00100
C 	C 	0.80723 0.64910 0.68060 -0.01900
H 	H 	0.80560 0.66920 0.70650 0.05600
C 	C 	0.81281 0.55817 0.56458 0.34600
C 	C 	0.88763 0.65214 0.68390 0.01600
C 	C 	0.92050 0.66510 0.70280 -0.05400
C 	C 	0.96014 0.67919 0.72370 0.12400
C 	C 	0.96100 0.70700 0.76340 -0.11800
H 	H 	0.93440 0.71570 0.77790 0.08600
C 	C 	0.58198 0.66764 0.76610 0.35500
C 	C 	0.53951 0.68184 0.78708 -0.07600
C 	C 	0.53906 0.71220 0.82412 -0.02400
H 	H 	0.56600 0.72300 0.83630 0.06300
C 	C 	0.48480 0.78510 0.91350 -0.00200
C 	C 	0.47780 0.80730 0.95680 0.02000
C 	C 	0.44860 0.84840 0.95790 0.03900
O 	O 	0.33624 0.72714 0.72256 -0.40800
O 	O 	0.37061 0.69273 0.66271 -0.40900
O 	O 	0.45560 0.77645 0.54921 -0.40300
O 	O 	0.45497 0.84991 0.55011 -0.39600
O 	O 	0.31957 0.61622 0.78687 -0.40300
O 	O 	0.35437 0.58088 0.72794 -0.40200
C 	C 	0.35671 0.72607 0.68323 0.36000
C 	C 	0.36743 0.76933 0.66072 -0.08600
C 	C 	0.39643 0.77167 0.62253 0.02400
H 	H 	0.40740 0.74560 0.60860 0.05300
C 	C 	0.40945 0.81177 0.60458 -0.08100
C 	C 	0.39360 0.84971 0.62447 -0.01700
H 	H 	0.40300 0.87710 0.61230 0.05800
C 	C 	0.36361 0.84834 0.66270 0.00100
C 	C 	0.35090 0.80723 0.68060 -0.01900
H 	H 	0.33080 0.80560 0.70650 0.05500
C 	C 	0.44183 0.81281 0.56458 0.34600
C 	C 	0.34786 0.88763 0.68390 0.01600
C 	C 	0.33490 0.92050 0.70280 -0.05400
C 	C 	0.32081 0.96014 0.72370 0.12400
C 	C 	0.29300 0.96100 0.76340 -0.11800
H 	H 	0.28430 0.93440 0.77790 0.08600
C 	C 	0.33236 0.58198 0.76610 0.35500
C 	C 	0.31816 0.53951 0.78708 -0.07600
C 	C 	0.28780 0.53906 0.82412 -0.02400
H 	H 	0.27700 0.56600 0.83630 0.06300
C 	C 	0.21490 0.48480 0.91350 -0.00300
C 	C 	0.19270 0.47780 0.95680 0.02000
C 	C 	0.15160 0.44860 0.95790 0.03800
O 	O 	0.66376 0.27286 0.72256 -0.40800
O 	O 	0.62939 0.30727 0.66271 -0.40900
O 	O 	0.54440 0.22355 0.54921 -0.40400
O 	O 	0.54503 0.15009 0.55011 -0.39800
O 	O 	0.68043 0.38378 0.78687 -0.40300
O 	O 	0.64563 0.41912 0.72794 -0.40200
C 	C 	0.64329 0.27393 0.68323 0.36000
C 	C 	0.63257 0.23067 0.66072 -0.08700
C 	C 	0.60357 0.22833 0.62253 0.02400
H 	H 	0.59260 0.25440 0.60860 0.05300
C 	C 	0.59055 0.18823 0.60458 -0.08200
C 	C 	0.60640 0.15029 0.62447 -0.01700
H 	H 	0.59700 0.12290 0.61230 0.05500
C 	C 	0.63639 0.15166 0.66270 -0.00000
C 	C 	0.64910 0.19277 0.68060 -0.01900
H 	H 	0.66920 0.19440 0.70650 0.05500
C 	C 	0.55817 0.18719 0.56458 0.34700
C 	C 	0.65214 0.11237 0.68390 0.01300
C 	C 	0.66510 0.07950 0.70280 -0.05500
C 	C 	0.67919 0.03986 0.72370 0.11100
C 	C 	0.70700 0.03900 0.76340 -0.13600
H 	H 	0.71570 0.06560 0.77790 0.08900
C 	C 	0.66764 0.41802 0.76610 0.35500
C 	C 	0.68184 0.46049 0.78708 -0.07600
C 	C 	0.71220 0.46094 0.82412 -0.02400
H 	H 	0.72300 0.43400 0.83630 0.06300
C 	C 	0.78510 0.51520 0.91350 -0.00200
C 	C 	0.80730 0.52220 0.95680 0.02000
C 	C 	0.84840 0.55140 0.95790 0.03800
O 	O 	0.27286 0.66376 0.72256 -0.40800
O 	O 	0.30727 0.62939 0.66271 -0.40900
O 	O 	0.22355 0.54440 0.54921 -0.40400
O 	O 	0.15009 0.54503 0.55011 -0.39800
O 	O 	0.38378 0.68043 0.78687 -0.40300
O 	O 	0.41912 0.64563 0.72794 -0.40200
C 	C 	0.27393 0.64329 0.68323 0.36000
C 	C 	0.23067 0.63257 0.66072 -0.08700
C 	C 	0.22833 0.60357 0.62253 0.02400
H 	H 	0.25440 0.59260 0.60860 0.05300
C 	C 	0.18823 0.59055 0.60458 -0.08200
C 	C 	0.15029 0.60640 0.62447 -0.01700
H 	H 	0.12290 0.59700 0.61230 0.05500
C 	C 	0.15166 0.63639 0.66270 -0.00000
C 	C 	0.19277 0.64910 0.68060 -0.01900
H 	H 	0.19440 0.66920 0.70650 0.05500
C 	C 	0.18719 0.55817 0.56458 0.34700
C 	C 	0.11237 0.65214 0.68390 0.01300
C 	C 	0.07950 0.66510 0.70280 -0.05500
C 	C 	0.03986 0.67919 0.72370 0.11100
C 	C 	0.03900 0.70700 0.76340 -0.13600
H 	H 	0.06560 0.71570 0.77790 0.08900
C 	C 	0.41802 0.66764 0.76610 0.35500
C 	C 	0.46049 0.68184 0.78708 -0.07600
C 	C 	0.46094 0.71220 0.82412 -0.02400
H 	H 	0.43400 0.72300 0.83630 0.06300
C 	C 	0.51520 0.78510 0.91350 -0.00200
C 	C 	0.52220 0.80730 0.95680 0.02000
C 	C 	0.55140 0.84840 0.95790 0.03800
O 	O 	0.72714 0.33624 0.72256 -0.40800
O 	O 	0.69273 0.37061 0.66271 -0.40900
O 	O 	0.77645 0.45560 0.54921 -0.40300
O 	O 	0.84991 0.45497 0.55011 -0.39600
O 	O 	0.61622 0.31957 0.78687 -0.40300
O 	O 	0.58088 0.35437 0.72794 -0.40200
C 	C 	0.72607 0.35671 0.68323 0.36000
C 	C 	0.76933 0.36743 0.66072 -0.08600
C 	C 	0.77167 0.39643 0.62253 0.02400
H 	H 	0.74560 0.40740 0.60860 0.05300
C 	C 	0.81177 0.40945 0.60458 -0.08100
C 	C 	0.84971 0.39360 0.62447 -0.01700
H 	H 	0.87710 0.40300 0.61230 0.05800
C 	C 	0.84834 0.36361 0.66270 0.00100
C 	C 	0.80723 0.35090 0.68060 -0.01900
H 	H 	0.80560 0.33080 0.70650 0.05500
C 	C 	0.81281 0.44183 0.56458 0.34600
C 	C 	0.88763 0.34786 0.68390 0.01600
C 	C 	0.92050 0.33490 0.70280 -0.05400
C 	C 	0.96014 0.32081 0.72370 0.12400
C 	C 	0.96100 0.29300 0.76340 -0.11800
H 	H 	0.93440 0.28430 0.77790 0.08600
C 	C 	0.58198 0.33236 0.76610 0.35500
C 	C 	0.53951 0.31816 0.78708 -0.07600
C 	C 	0.53906 0.28780 0.82412 -0.02400
H 	H 	0.56600 0.27700 0.83630 0.06300
C 	C 	0.48480 0.21490 0.91350 -0.00300
C 	C 	0.47780 0.19270 0.95680 0.02000
C 	C 	0.44860 0.15160 0.95790 0.03800
O 	O 	0.33624 0.27286 0.72256 -0.40800
O 	O 	0.37061 0.30727 0.66271 -0.40900
O 	O 	0.45560 0.22355 0.54921 -0.40400
O 	O 	0.45497 0.15009 0.55011 -0.39800
O 	O 	0.31957 0.38378 0.78687 -0.40300
O 	O 	0.35437 0.41912 0.72794 -0.40200
C 	C 	0.35671 0.27393 0.68323 0.36000
C 	C 	0.36743 0.23067 0.66072 -0.08700
C 	C 	0.39643 0.22833 0.62253 0.02400
H 	H 	0.40740 0.25440 0.60860 0.05300
C 	C 	0.40945 0.18823 0.60458 -0.08200
C 	C 	0.39360 0.15029 0.62447 -0.01700
H 	H 	0.40300 0.12290 0.61230 0.05500
C 	C 	0.36361 0.15166 0.66270 -0.00000
C 	C 	0.35090 0.19277 0.68060 -0.01900
H 	H 	0.33080 0.19440 0.70650 0.05500
C 	C 	0.44183 0.18719 0.56458 0.34700
C 	C 	0.34786 0.11237 0.68390 0.01300
C 	C 	0.33490 0.07950 0.70280 -0.05500
C 	C 	0.32081 0.03986 0.72370 0.11100
C 	C 	0.29300 0.03900 0.76340 -0.13600
H 	H 	0.28430 0.06560 0.77790 0.08900
C 	C 	0.33236 0.41802 0.76610 0.35500
C 	C 	0.31816 0.46049 0.78708 -0.07600
C 	C 	0.28780 0.46094 0.82412 -0.02400
H 	H 	0.27700 0.43400 0.83630 0.06300
C 	C 	0.21490 0.51520 0.91350 -0.00300
C 	C 	0.19270 0.52220 0.95680 0.02000
C 	C 	0.15160 0.55140 0.95790 0.03800
O 	O 	0.66376 0.72714 0.72256 -0.40800
O 	O 	0.62939 0.69273 0.66271 -0.40900
O 	O 	0.54440 0.77645 0.54921 -0.40300
O 	O 	0.54503 0.84991 0.55011 -0.39600
O 	O 	0.68043 0.61622 0.78687 -0.40300
O 	O 	0.64563 0.58088 0.72794 -0.40200
C 	C 	0.64329 0.72607 0.68323 0.36000
C 	C 	0.63257 0.76933 0.66072 -0.08600
C 	C 	0.60357 0.77167 0.62253 0.02400
H 	H 	0.59260 0.74560 0.60860 0.05300
C 	C 	0.59055 0.81177 0.60458 -0.08100
C 	C 	0.60640 0.84971 0.62447 -0.01700
H 	H 	0.59700 0.87710 0.61230 0.05800
C 	C 	0.63639 0.84834 0.66270 0.00100
C 	C 	0.64910 0.80723 0.68060 -0.01900
H 	H 	0.66920 0.80560 0.70650 0.05600
C 	C 	0.55817 0.81281 0.56458 0.34600
C 	C 	0.65214 0.88763 0.68390 0.01600
C 	C 	0.66510 0.92050 0.70280 -0.05400
C 	C 	0.67919 0.96014 0.72370 0.12400
C 	C 	0.70700 0.96100 0.76340 -0.11800
H 	H 	0.71570 0.93440 0.77790 0.08600
C 	C 	0.66764 0.58198 0.76610 0.35500
C 	C 	0.68184 0.53951 0.78708 -0.07600
C 	C 	0.71220 0.53906 0.82412 -0.02400
H 	H 	0.72300 0.56600 0.83630 0.06300
C 	C 	0.78510 0.48480 0.91350 -0.00200
C 	C 	0.80730 0.47780 0.95680 0.02000
C 	C 	0.84840 0.44860 0.95790 0.03900
O 	O 	0.72714 0.66376 0.27744 -0.40900
O 	O 	0.69273 0.62939 0.33729 -0.40900
O 	O 	0.77645 0.54440 0.45079 -0.40300
O 	O 	0.84991 0.54503 0.44989 -0.39600
O 	O 	0.61622 0.68043 0.21313 -0.40700
O 	O 	0.58088 0.64563 0.27206 -0.40300
C 	C 	0.72607 0.64329 0.31677 0.36100
C 	C 	0.76933 0.63257 0.33928 -0.08700
C 	C 	0.77167 0.60357 0.37747 0.02400
H 	H 	0.74560 0.59260 0.39140 0.05300
C 	C 	0.81177 0.59055 0.39542 -0.08100
C 	C 	0.84971 0.60640 0.37553 -0.01700
H 	H 	0.87710 0.59700 0.38770 0.05800
C 	C 	0.84834 0.63639 0.33730 0.00000
C 	C 	0.80723 0.64910 0.31940 -0.01900
H 	H 	0.80560 0.66920 0.29350 0.05500
C 	C 	0.81281 0.55817 0.43542 0.34600
C 	C 	0.88763 0.65214 0.31610 0.01600
C 	C 	0.92050 0.66510 0.29720 -0.05500
C 	C 	0.96014 0.67919 0.27630 0.12500
C 	C 	0.96100 0.70700 0.23660 -0.11800
H 	H 	0.93440 0.71570 0.22210 0.08600
C 	C 	0.58198 0.66764 0.23390 0.35500
C 	C 	0.53951 0.68184 0.21292 -0.08000
C 	C 	0.53906 0.71220 0.17588 -0.02600
H 	H 	0.56600 0.72300 0.16370 0.05900
C 	C 	0.48480 0.78510 0.08650 -0.00200
C 	C 	0.47780 0.80730 0.04320 -0.00200
C 	C 	0.44860 0.84840 0.04210 0.00000
O 	O 	0.27286 0.33624 0.27744 -0.40900
O 	O 	0.30727 0.37061 0.33729 -0.40900
O 	O 	0.22355 0.45560 0.45079 -0.40400
O 	O 	0.15009 0.45497 0.44989 -0.39800
O 	O 	0.38378 0.31957 0.21313 -0.40700
O 	O 	0.41912 0.35437 0.27206 -0.40300
C 	C 	0.27393 0.35671 0.31677 0.36100
C 	C 	0.23067 0.36743 0.33928 -0.08700
C 	C 	0.22833 0.39643 0.37747 0.02400
H 	H 	0.25440 0.40740 0.39140 0.05300
C 	C 	0.18823 0.40945 0.39542 -0.08200
C 	C 	0.15029 0.39360 0.37553 -0.01600
H 	H 	0.12290 0.40300 0.38770 0.05500
C 	C 	0.15166 0.36361 0.33730 -0.00000
C 	C 	0.19277 0.35090 0.31940 -0.01900
H 	H 	0.19440 0.33080 0.29350 0.05500
C 	C 	0.18719 0.44183 0.43542 0.34700
C 	C 	0.11237 0.34786 0.31610 0.01300
C 	C 	0.07950 0.33490 0.29720 -0.05600
C 	C 	0.03986 0.32081 0.27630 0.11200
C 	C 	0.03900 0.29300 0.23660 -0.13700
H 	H 	0.06560 0.28430 0.22210 0.08900
C 	C 	0.41802 0.33236 0.23390 0.35500
C 	C 	0.46049 0.31816 0.21292 -0.07900
C 	C 	0.46094 0.28780 0.17588 -0.02500
H 	H 	0.43400 0.27700 0.16370 0.05900
C 	C 	0.51520 0.21490 0.08650 -0.00200
C 	C 	0.52220 0.19270 0.04320 -0.00100
C 	C 	0.55140 0.15160 0.04210 -0.00100
O 	O 	0.66376 0.27286 0.27744 -0.40900
O 	O 	0.62939 0.30727 0.33729 -0.40900
O 	O 	0.54440 0.22355 0.45079 -0.40400
O 	O 	0.54503 0.15009 0.44989 -0.39800
O 	O 	0.68043 0.38378 0.21313 -0.40700
O 	O 	0.64563 0.41912 0.27206 -0.40300
C 	C 	0.64329 0.27393 0.31677 0.36100
C 	C 	0.63257 0.23067 0.33928 -0.08700
C 	C 	0.60357 0.22833 0.37747 0.02400
H 	H 	0.59260 0.25440 0.39140 0.05300
C 	C 	0.59055 0.18823 0.39542 -0.08200
C 	C 	0.60640 0.15029 0.37553 -0.01600
H 	H 	0.59700 0.12290 0.38770 0.05500
C 	C 	0.63639 0.15166 0.33730 -0.00000
C 	C 	0.64910 0.19277 0.31940 -0.01900
H 	H 	0.66920 0.19440 0.29350 0.05500
C 	C 	0.55817 0.18719 0.43542 0.34700
C 	C 	0.65214 0.11237 0.31610 0.01300
C 	C 	0.66510 0.07950 0.29720 -0.05600
C 	C 	0.67919 0.03986 0.27630 0.11100
C 	C 	0.70700 0.03900 0.23660 -0.13700
H 	H 	0.71570 0.06560 0.22210 0.08900
C 	C 	0.66764 0.41802 0.23390 0.35500
C 	C 	0.68184 0.46049 0.21292 -0.08000
C 	C 	0.71220 0.46094 0.17588 -0.02600
H 	H 	0.72300 0.43400 0.16370 0.05900
C 	C 	0.78510 0.51520 0.08650 -0.00200
C 	C 	0.80730 0.52220 0.04320 -0.00100
C 	C 	0.84840 0.55140 0.04210 0.00000
O 	O 	0.33624 0.72714 0.27744 -0.40900
O 	O 	0.37061 0.69273 0.33729 -0.40900
O 	O 	0.45560 0.77645 0.45079 -0.40300
O 	O 	0.45497 0.84991 0.44989 -0.39600
O 	O 	0.31957 0.61622 0.21313 -0.40700
O 	O 	0.35437 0.58088 0.27206 -0.40300
C 	C 	0.35671 0.72607 0.31677 0.36100
C 	C 	0.36743 0.76933 0.33928 -0.08700
C 	C 	0.39643 0.77167 0.37747 0.02400
H 	H 	0.40740 0.74560 0.39140 0.05300
C 	C 	0.40945 0.81177 0.39542 -0.08100
C 	C 	0.39360 0.84971 0.37553 -0.01700
H 	H 	0.40300 0.87710 0.38770 0.05800
C 	C 	0.36361 0.84834 0.33730 0.00000
C 	C 	0.35090 0.80723 0.31940 -0.01900
H 	H 	0.33080 0.80560 0.29350 0.05500
C 	C 	0.44183 0.81281 0.43542 0.34600
C 	C 	0.34786 0.88763 0.31610 0.01600
C 	C 	0.33490 0.92050 0.29720 -0.05500
C 	C 	0.32081 0.96014 0.27630 0.12500
C 	C 	0.29300 0.96100 0.23660 -0.11900
H 	H 	0.28430 0.93440 0.22210 0.08600
C 	C 	0.33236 0.58198 0.23390 0.35500
C 	C 	0.31816 0.53951 0.21292 -0.07900
C 	C 	0.28780 0.53906 0.17588 -0.02500
H 	H 	0.27700 0.56600 0.16370 0.05900
C 	C 	0.21490 0.48480 0.08650 -0.00200
C 	C 	0.19270 0.47780 0.04320 -0.00100
C 	C 	0.15160 0.44860 0.04210 -0.00100
Cu	Cu	0.67514 0.32486 0.23940 0.90800
Cu	Cu	0.63376 0.36624 0.30999 0.90400
Cu	Cu	0.32486 0.67514 0.23940 0.90800
Cu	Cu	0.36624 0.63376 0.30999 0.90400
Cu	Cu	0.67514 0.67514 0.23940 0.90800
Cu	Cu	0.63376 0.63376 0.30999 0.90400
Cu	Cu	0.32486 0.32486 0.23940 0.90800
Cu	Cu	0.36624 0.36624 0.30999 0.90400
Cu	Cu	0.32486 0.32486 0.76060 0.90900
Cu	Cu	0.36624 0.36624 0.69001 0.90400
Cu	Cu	0.67514 0.67514 0.76060 0.90900
Cu	Cu	0.63376 0.63376 0.69001 0.90400
Cu	Cu	0.32486 0.67514 0.76060 0.90900
Cu	Cu	0.36624 0.63376 0.69001 0.90400
Cu	Cu	0.67514 0.32486 0.76060 0.90900
Cu	Cu	0.63376 0.36624 0.69001 0.90400
Cu	Cu	0.85700 0.50000 0.50000 0.90200
Cu	Cu	0.77020 0.50000 0.50000 0.90900
Cu	Cu	0.14300 0.50000 0.50000 0.90100
Cu	Cu	0.22980 0.50000 0.50000 0.91000
Cu	Cu	0.50000 0.85700 0.50000 0.90200
Cu	Cu	0.50000 0.77020 0.50000 0.90900
Cu	Cu	0.50000 0.14300 0.50000 0.90100
Cu	Cu	0.50000 0.22980 0.50000 0.91000
C 	C 	0.00000 0.33490 0.29530 -0.18000
H 	H 	-0.00000 0.35460 0.32170 0.09400
C 	C 	0.00000 0.27800 0.21820 0.04200
H 	H 	0.00000 0.25720 0.19290 0.02100
C 	C 	0.00000 0.66510 0.29530 -0.18000
H 	H 	0.00000 0.64540 0.32170 0.09400
C 	C 	-0.00000 0.72200 0.21820 0.04200
H 	H 	-0.00000 0.74280 0.19290 0.02100
C 	C 	0.66510 -0.00000 0.29530 -0.18000
H 	H 	0.64540 0.00000 0.32170 0.09400
C 	C 	0.72200 0.00000 0.21820 0.04200
H 	H 	0.74280 0.00000 0.19290 0.02100
C 	C 	0.33490 -0.00000 0.29530 -0.18000
H 	H 	0.35460 0.00000 0.32170 0.09400
C 	C 	0.27800 0.00000 0.21820 0.04200
H 	H 	0.25720 0.00000 0.19290 0.02100
C 	C 	0.00000 0.33490 0.70470 -0.17900
H 	H 	-0.00000 0.35460 0.67830 0.09400
C 	C 	-0.00000 0.27800 0.78180 0.04200
H 	H 	-0.00000 0.25720 0.80710 0.02200
C 	C 	-0.00000 0.66510 0.70470 -0.17900
H 	H 	0.00000 0.64540 0.67830 0.09400
C 	C 	0.00000 0.72200 0.78180 0.04100
H 	H 	0.00000 0.74280 0.80710 0.02300
C 	C 	0.33490 0.00000 0.70470 -0.17900
H 	H 	0.35460 0.00000 0.67830 0.09400
C 	C 	0.27800 -0.00000 0.78180 0.04200
H 	H 	0.25720 0.00000 0.80710 0.02200
C 	C 	0.66510 0.00000 0.70470 -0.17900
H 	H 	0.64540 0.00000 0.67830 0.09400
C 	C 	0.72200 -0.00000 0.78180 0.04100
H 	H 	0.74280 0.00000 0.80710 0.02300
C 	C 	0.50000 0.33330 0.23210 0.02200
H 	H 	0.50000 0.35360 0.25780 0.05200
C 	C 	0.50000 0.27260 0.15610 0.01900
C 	C 	0.50000 0.24200 0.11900 -0.01700
C 	C 	0.50000 0.66670 0.23210 0.02200
H 	H 	0.50000 0.64640 0.25780 0.05200
C 	C 	0.50000 0.72740 0.15610 0.01900
C 	C 	0.50000 0.75800 0.11900 -0.01700
C 	C 	0.66670 0.50000 0.23210 0.02200
H 	H 	0.64640 0.50000 0.25780 0.05200
C 	C 	0.72740 0.50000 0.15610 0.01900
C 	C 	0.75800 0.50000 0.11900 -0.01700
C 	C 	0.33330 0.50000 0.23210 0.02200
H 	H 	0.35360 0.50000 0.25780 0.05200
C 	C 	0.27260 0.50000 0.15610 0.01900
C 	C 	0.24200 0.50000 0.11900 -0.01700
C 	C 	0.50000 0.33330 0.76790 0.02200
H 	H 	0.50000 0.35360 0.74220 0.05400
C 	C 	0.50000 0.27260 0.84390 0.02100
C 	C 	0.50000 0.24200 0.88100 -0.00700
C 	C 	0.50000 0.66670 0.76790 0.02200
H 	H 	0.50000 0.64640 0.74220 0.05400
C 	C 	0.50000 0.72740 0.84390 0.02100
C 	C 	0.50000 0.75800 0.88100 -0.00700
C 	C 	0.33330 0.50000 0.76790 0.02200
H 	H 	0.35360 0.50000 0.74220 0.05400
C 	C 	0.27260 0.50000 0.84390 0.02100
C 	C 	0.24200 0.50000 0.88100 -0.00700
C 	C 	0.66670 0.50000 0.76790 0.02200
H 	H 	0.64640 0.50000 0.74220 0.05400
C 	C 	0.72740 0.50000 0.84390 0.02100
C 	C 	0.75800 0.50000 0.88100 -0.00700
C 	C 	0.48740 0.21220 -0.00000 -0.02400
C 	C 	0.43460 0.13430 -0.00000 -0.05500
C 	C 	0.51260 0.78780 -0.00000 -0.02400
C 	C 	0.56540 0.86570 -0.00000 -0.05200
C 	C 	0.78780 0.48740 -0.00000 -0.02400
C 	C 	0.86570 0.43460 -0.00000 -0.05200
C 	C 	0.21220 0.51260 -0.00000 -0.02400
C 	C 	0.13430 0.56540 -0.00000 -0.05500
C 	C 	0.51260 0.21220 -0.00000 -0.02400
C 	C 	0.56540 0.13430 -0.00000 -0.05500
C 	C 	0.48740 0.78780 -0.00000 -0.02400
C 	C 	0.43460 0.86570 -0.00000 -0.05200
C 	C 	0.21220 0.48740 -0.00000 -0.02400
C 	C 	0.13430 0.43460 -0.00000 -0.05500
C 	C 	0.78780 0.51260 -0.00000 -0.02400
C 	C 	0.86570 0.56540 -0.00000 -0.05200
