data_crystal

_cell_length_a 16.31160
_cell_length_b 16.31160
_cell_length_c 30.06000
_cell_angle_alpha 90.00000
_cell_angle_beta  90.00000
_cell_angle_gamma 90.00000

_symmetry_space_group_name_	'P 1'
_symmetry_space_group_name_H-M	'P 1'

loop_
_symmetry_equiv_pos_as_xyz
  x,y,z

loop_
_atom_site_label
_atom_site_type_symbol
_atom_site_fract_x
_atom_site_fract_y
_atom_site_fract_z
_atom_site_charge
Ni	Ni	0.01022 0.26347 0.74411 1.09300
Ni	Ni	0.98978 0.73653 0.24411 1.09300
Ni	Ni	0.73653 0.01022 0.99411 1.09300
Ni	Ni	0.26347 0.98978 0.49411 1.09300
Ni	Ni	0.98978 0.26347 0.25589 1.09400
Ni	Ni	0.01022 0.73653 0.75589 1.09400
Ni	Ni	0.26347 0.01022 0.00589 1.09400
Ni	Ni	0.73653 0.98978 0.50589 1.09400
Ni	Ni	0.52634 0.52634 0.87500 1.05900
Ni	Ni	0.47366 0.47366 0.37500 1.05900
Ni	Ni	0.47366 0.52634 0.12500 1.05900
Ni	Ni	0.52634 0.47366 0.62500 1.05900
H 	H 	0.73800 0.38760 0.83300 0.03300
H 	H 	0.86050 0.17970 0.85060 0.03700
H 	H 	0.65890 0.22500 0.92240 0.03600
H 	H 	0.70300 0.54700 0.90340 -0.00100
H 	H 	0.78200 0.60600 0.95630 0.08800
H 	H 	0.72610 0.71120 0.00040 0.00900
H 	H 	0.58780 0.73600 0.99390 0.10300
H 	H 	0.50870 0.65870 0.94710 -0.00000
H 	H 	0.13820 0.39870 0.74340 -0.01000
H 	H 	0.22650 0.46890 0.78810 0.10100
H 	H 	0.22890 0.43920 0.86420 0.00700
H 	H 	0.14100 0.33580 0.89000 0.08600
H 	H 	0.05600 0.27230 0.84070 -0.00800
H 	H 	0.17550 0.17670 0.76250 0.00000
H 	H 	0.22390 0.06400 0.79810 0.08500
H 	H 	0.13800 0.97160 0.82800 0.00900
H 	H 	0.99750 0.99010 0.82250 0.10800
H 	H 	0.94980 0.10500 0.78700 0.01600
H 	H 	0.97200 0.18580 0.68140 0.28400
H 	H 	0.26200 0.61240 0.33300 0.03300
H 	H 	0.13950 0.82030 0.35060 0.03700
H 	H 	0.34110 0.77500 0.42240 0.03600
H 	H 	0.29700 0.45300 0.40340 -0.00100
H 	H 	0.21800 0.39400 0.45630 0.08800
H 	H 	0.27390 0.28880 0.50040 0.00900
H 	H 	0.41220 0.26400 0.49390 0.10200
H 	H 	0.49130 0.34130 0.44710 -0.00000
H 	H 	0.86180 0.60130 0.24340 -0.01000
H 	H 	0.77350 0.53110 0.28810 0.10100
H 	H 	0.77110 0.56080 0.36420 0.00700
H 	H 	0.85900 0.66420 0.39000 0.08600
H 	H 	0.94400 0.72770 0.34070 -0.00800
H 	H 	0.82450 0.82330 0.26250 0.00000
H 	H 	0.77610 0.93600 0.29810 0.08500
H 	H 	0.86200 0.02840 0.32800 0.00900
H 	H 	0.00250 0.00990 0.32250 0.10800
H 	H 	0.05020 0.89500 0.28700 0.01600
H 	H 	0.02800 0.81420 0.18140 0.28400
H 	H 	0.61240 0.73800 0.08300 0.03300
H 	H 	0.82030 0.86050 0.10060 0.03700
H 	H 	0.77500 0.65890 0.17240 0.03600
H 	H 	0.45300 0.70300 0.15340 -0.00100
H 	H 	0.39400 0.78200 0.20630 0.08800
H 	H 	0.28880 0.72610 0.25040 0.00900
H 	H 	0.26400 0.58780 0.24390 0.10200
H 	H 	0.34130 0.50870 0.19710 -0.00000
H 	H 	0.60130 0.13820 0.99340 -0.01000
H 	H 	0.53110 0.22650 0.03810 0.10100
H 	H 	0.56080 0.22890 0.11420 0.00700
H 	H 	0.66420 0.14100 0.14000 0.08600
H 	H 	0.72770 0.05600 0.09070 -0.00800
H 	H 	0.82330 0.17550 0.01250 0.00000
H 	H 	0.93600 0.22390 0.04810 0.08500
H 	H 	0.02840 0.13800 0.07800 0.00900
H 	H 	0.00990 0.99750 0.07250 0.10800
H 	H 	0.89500 0.94980 0.03700 0.01500
H 	H 	0.81420 0.97200 0.93140 0.28400
H 	H 	0.38760 0.26200 0.58300 0.03300
H 	H 	0.17970 0.13950 0.60060 0.03700
H 	H 	0.22500 0.34110 0.67240 0.03600
H 	H 	0.54700 0.29700 0.65340 -0.00100
H 	H 	0.60600 0.21800 0.70630 0.08800
H 	H 	0.71120 0.27390 0.75040 0.00900
H 	H 	0.73600 0.41220 0.74390 0.10200
H 	H 	0.65870 0.49130 0.69710 -0.00000
H 	H 	0.39870 0.86180 0.49340 -0.01000
H 	H 	0.46890 0.77350 0.53810 0.10100
H 	H 	0.43920 0.77110 0.61420 0.00700
H 	H 	0.33580 0.85900 0.64000 0.08600
H 	H 	0.27230 0.94400 0.59070 -0.00800
H 	H 	0.17670 0.82450 0.51250 0.00000
H 	H 	0.06400 0.77610 0.54810 0.08500
H 	H 	0.97160 0.86200 0.57800 0.00900
H 	H 	0.99010 0.00250 0.57250 0.10800
H 	H 	0.10500 0.05020 0.53700 0.01600
H 	H 	0.18580 0.02800 0.43140 0.28400
H 	H 	0.26200 0.38760 0.16700 0.03300
H 	H 	0.13950 0.17970 0.14940 0.03700
H 	H 	0.34110 0.22500 0.07760 0.03600
H 	H 	0.29700 0.54700 0.09660 -0.00100
H 	H 	0.21800 0.60600 0.04370 0.08800
H 	H 	0.27390 0.71120 0.99960 0.00900
H 	H 	0.41220 0.73600 0.00610 0.10300
H 	H 	0.49130 0.65870 0.05290 -0.00000
H 	H 	0.86180 0.39870 0.25660 -0.01000
H 	H 	0.77350 0.46890 0.21190 0.10100
H 	H 	0.77110 0.43920 0.13580 0.00700
H 	H 	0.85900 0.33580 0.11000 0.08600
H 	H 	0.94400 0.27230 0.15930 -0.00800
H 	H 	0.82450 0.17670 0.23750 0.00000
H 	H 	0.77610 0.06400 0.20190 0.08500
H 	H 	0.86200 0.97160 0.17200 0.00900
H 	H 	0.00250 0.99010 0.17750 0.10800
H 	H 	0.05020 0.10500 0.21300 0.01600
H 	H 	0.02800 0.18580 0.31860 0.28400
H 	H 	0.73800 0.61240 0.66700 0.03300
H 	H 	0.86050 0.82030 0.64940 0.03700
H 	H 	0.65890 0.77500 0.57760 0.03600
H 	H 	0.70300 0.45300 0.59660 -0.00100
H 	H 	0.78200 0.39400 0.54370 0.08800
H 	H 	0.72610 0.28880 0.49960 0.00900
H 	H 	0.58780 0.26400 0.50610 0.10200
H 	H 	0.50870 0.34130 0.55290 -0.00000
H 	H 	0.13820 0.60130 0.75660 -0.01000
H 	H 	0.22650 0.53110 0.71190 0.10100
H 	H 	0.22890 0.56080 0.63580 0.00700
H 	H 	0.14100 0.66420 0.61000 0.08600
H 	H 	0.05600 0.72770 0.65930 -0.00800
H 	H 	0.17550 0.82330 0.73750 0.00000
H 	H 	0.22390 0.93600 0.70190 0.08500
H 	H 	0.13800 0.02840 0.67200 0.00900
H 	H 	0.99750 0.00990 0.67750 0.10800
H 	H 	0.94980 0.89500 0.71300 0.01600
H 	H 	0.97200 0.81420 0.81860 0.28400
H 	H 	0.38760 0.73800 0.91700 0.03300
H 	H 	0.17970 0.86050 0.89940 0.03700
H 	H 	0.22500 0.65890 0.82760 0.03600
H 	H 	0.54700 0.70300 0.84660 -0.00100
H 	H 	0.60600 0.78200 0.79370 0.08800
H 	H 	0.71120 0.72610 0.74960 0.00900
H 	H 	0.73600 0.58780 0.75610 0.10200
H 	H 	0.65870 0.50870 0.80290 -0.00000
H 	H 	0.39870 0.13820 0.00660 -0.01000
H 	H 	0.46890 0.22650 0.96190 0.10100
H 	H 	0.43920 0.22890 0.88580 0.00700
H 	H 	0.33580 0.14100 0.86000 0.08600
H 	H 	0.27230 0.05600 0.90930 -0.00800
H 	H 	0.17670 0.17550 0.98750 0.00000
H 	H 	0.06400 0.22390 0.95190 0.08500
H 	H 	0.97160 0.13800 0.92200 0.00900
H 	H 	0.99010 0.99750 0.92750 0.10800
H 	H 	0.10500 0.94980 0.96300 0.01500
H 	H 	0.18580 0.97200 0.06860 0.28400
H 	H 	0.61240 0.26200 0.41700 0.03300
H 	H 	0.82030 0.13950 0.39940 0.03700
H 	H 	0.77500 0.34110 0.32760 0.03600
H 	H 	0.45300 0.29700 0.34660 -0.00100
H 	H 	0.39400 0.21800 0.29370 0.08800
H 	H 	0.28880 0.27390 0.24960 0.00900
H 	H 	0.26400 0.41220 0.25610 0.10200
H 	H 	0.34130 0.49130 0.30290 -0.00000
H 	H 	0.60130 0.86180 0.50660 -0.01000
H 	H 	0.53110 0.77350 0.46190 0.10100
H 	H 	0.56080 0.77110 0.38580 0.00700
H 	H 	0.66420 0.85900 0.36000 0.08600
H 	H 	0.72770 0.94400 0.40930 -0.00800
H 	H 	0.82330 0.82450 0.48750 0.00000
H 	H 	0.93600 0.77610 0.45190 0.08500
H 	H 	0.02840 0.86200 0.42200 0.00900
H 	H 	0.00990 0.00250 0.42750 0.10800
H 	H 	0.89500 0.05020 0.46300 0.01600
H 	H 	0.81420 0.02800 0.56860 0.28400
C 	C 	0.61560 0.36740 0.89130 0.33100
C 	C 	0.68660 0.31560 0.87970 -0.12200
C 	C 	0.74420 0.33780 0.84770 0.05600
C 	C 	0.80980 0.28880 0.83700 -0.12000
C 	C 	0.86860 0.31260 0.80090 0.33000
C 	C 	0.81730 0.21420 0.85820 0.05800
C 	C 	0.76280 0.18990 0.89010 -0.12100
C 	C 	0.77280 0.10780 0.91300 0.36300
C 	C 	0.69640 0.24130 0.90080 0.05500
C 	C 	0.67820 0.58130 0.92420 0.09300
C 	C 	0.72700 0.62000 0.95390 -0.15700
C 	C 	0.69380 0.68120 0.98080 0.07800
C 	C 	0.61210 0.69480 0.97700 -0.15800
C 	C 	0.56470 0.64860 0.94850 0.08200
C 	C 	0.13840 0.38630 0.77360 0.10200
C 	C 	0.19220 0.42910 0.80010 -0.16400
C 	C 	0.19400 0.41140 0.84490 0.08300
C 	C 	0.14170 0.35070 0.86010 -0.16200
C 	C 	0.09080 0.31280 0.83000 0.10200
C 	C 	0.13860 0.13950 0.77460 0.08400
C 	C 	0.16760 0.07200 0.79590 -0.16100
C 	C 	0.11700 0.01740 0.81350 0.09500
C 	C 	0.03380 0.02810 0.81050 -0.15700
C 	C 	0.00620 0.09710 0.78890 0.09600
C 	C 	0.86360 0.21830 0.68370 0.12200
C 	C 	0.82480 0.16150 0.64950 -0.02500
C 	C 	0.38440 0.63260 0.39130 0.33100
C 	C 	0.31340 0.68440 0.37970 -0.12200
C 	C 	0.25580 0.66220 0.34770 0.05600
C 	C 	0.19020 0.71120 0.33700 -0.12000
C 	C 	0.13140 0.68740 0.30090 0.33000
C 	C 	0.18270 0.78580 0.35820 0.05800
C 	C 	0.23720 0.81010 0.39010 -0.12100
C 	C 	0.22720 0.89220 0.41300 0.36300
C 	C 	0.30360 0.75870 0.40080 0.05500
C 	C 	0.32180 0.41870 0.42420 0.09300
C 	C 	0.27300 0.38000 0.45390 -0.15700
C 	C 	0.30620 0.31880 0.48080 0.07800
C 	C 	0.38790 0.30520 0.47700 -0.15800
C 	C 	0.43530 0.35140 0.44850 0.08200
C 	C 	0.86160 0.61370 0.27360 0.10200
C 	C 	0.80780 0.57090 0.30010 -0.16400
C 	C 	0.80600 0.58860 0.34490 0.08300
C 	C 	0.85830 0.64930 0.36010 -0.16200
C 	C 	0.90920 0.68720 0.33000 0.10200
C 	C 	0.86140 0.86050 0.27460 0.08300
C 	C 	0.83240 0.92800 0.29590 -0.16000
C 	C 	0.88300 0.98260 0.31350 0.09400
C 	C 	0.96620 0.97190 0.31050 -0.15800
C 	C 	0.99380 0.90290 0.28890 0.09600
C 	C 	0.13640 0.78170 0.18370 0.12200
C 	C 	0.17520 0.83850 0.14950 -0.02500
C 	C 	0.63260 0.61560 0.14130 0.33100
C 	C 	0.68440 0.68660 0.12970 -0.12200
C 	C 	0.66220 0.74420 0.09770 0.05600
C 	C 	0.71120 0.80980 0.08700 -0.12000
C 	C 	0.68740 0.86860 0.05090 0.33000
C 	C 	0.78580 0.81730 0.10820 0.05800
C 	C 	0.81010 0.76280 0.14010 -0.12100
C 	C 	0.89220 0.77280 0.16300 0.36300
C 	C 	0.75870 0.69640 0.15080 0.05500
C 	C 	0.41870 0.67820 0.17420 0.09300
C 	C 	0.38000 0.72700 0.20390 -0.15700
C 	C 	0.31880 0.69380 0.23080 0.07800
C 	C 	0.30520 0.61210 0.22700 -0.15800
C 	C 	0.35140 0.56470 0.19850 0.08200
C 	C 	0.61370 0.13840 0.02360 0.10200
C 	C 	0.57090 0.19220 0.05010 -0.16400
C 	C 	0.58860 0.19400 0.09490 0.08300
C 	C 	0.64930 0.14170 0.11010 -0.16200
C 	C 	0.68720 0.09080 0.08000 0.10200
C 	C 	0.86050 0.13860 0.02460 0.08300
C 	C 	0.92800 0.16760 0.04590 -0.16000
C 	C 	0.98260 0.11700 0.06350 0.09400
C 	C 	0.97190 0.03380 0.06050 -0.15700
C 	C 	0.90290 0.00620 0.03890 0.09600
C 	C 	0.78170 0.86360 0.93370 0.12200
C 	C 	0.83850 0.82480 0.89950 -0.02500
C 	C 	0.36740 0.38440 0.64130 0.33100
C 	C 	0.31560 0.31340 0.62970 -0.12200
C 	C 	0.33780 0.25580 0.59770 0.05600
C 	C 	0.28880 0.19020 0.58700 -0.12000
C 	C 	0.31260 0.13140 0.55090 0.33000
C 	C 	0.21420 0.18270 0.60820 0.05800
C 	C 	0.18990 0.23720 0.64010 -0.12100
C 	C 	0.10780 0.22720 0.66300 0.36300
C 	C 	0.24130 0.30360 0.65080 0.05500
C 	C 	0.58130 0.32180 0.67420 0.09300
C 	C 	0.62000 0.27300 0.70390 -0.15700
C 	C 	0.68120 0.30620 0.73080 0.07800
C 	C 	0.69480 0.38790 0.72700 -0.15800
C 	C 	0.64860 0.43530 0.69850 0.08200
C 	C 	0.38630 0.86160 0.52360 0.10200
C 	C 	0.42910 0.80780 0.55010 -0.16400
C 	C 	0.41140 0.80600 0.59490 0.08300
C 	C 	0.35070 0.85830 0.61010 -0.16200
C 	C 	0.31280 0.90920 0.58000 0.10200
C 	C 	0.13950 0.86140 0.52460 0.08400
C 	C 	0.07200 0.83240 0.54590 -0.16000
C 	C 	0.01740 0.88300 0.56350 0.09500
C 	C 	0.02810 0.96620 0.56050 -0.15800
C 	C 	0.09710 0.99380 0.53890 0.09600
C 	C 	0.21830 0.13640 0.43370 0.12200
C 	C 	0.16150 0.17520 0.39950 -0.02500
C 	C 	0.38440 0.36740 0.10870 0.33100
C 	C 	0.31340 0.31560 0.12030 -0.12200
C 	C 	0.25580 0.33780 0.15230 0.05600
C 	C 	0.19020 0.28880 0.16300 -0.12000
C 	C 	0.13140 0.31260 0.19910 0.33000
C 	C 	0.18270 0.21420 0.14180 0.05800
C 	C 	0.23720 0.18990 0.10990 -0.12100
C 	C 	0.22720 0.10780 0.08700 0.36300
C 	C 	0.30360 0.24130 0.09920 0.05500
C 	C 	0.32180 0.58130 0.07580 0.09300
C 	C 	0.27300 0.62000 0.04610 -0.15700
C 	C 	0.30620 0.68120 0.01920 0.07800
C 	C 	0.38790 0.69480 0.02300 -0.15800
C 	C 	0.43530 0.64860 0.05150 0.08200
C 	C 	0.86160 0.38630 0.22640 0.10200
C 	C 	0.80780 0.42910 0.19990 -0.16400
C 	C 	0.80600 0.41140 0.15510 0.08300
C 	C 	0.85830 0.35070 0.13990 -0.16200
C 	C 	0.90920 0.31280 0.17000 0.10200
C 	C 	0.86140 0.13950 0.22540 0.08400
C 	C 	0.83240 0.07200 0.20410 -0.16100
C 	C 	0.88300 0.01740 0.18650 0.09500
C 	C 	0.96620 0.02810 0.18950 -0.15700
C 	C 	0.99380 0.09710 0.21110 0.09600
C 	C 	0.13640 0.21830 0.31630 0.12200
C 	C 	0.17520 0.16150 0.35050 -0.02500
C 	C 	0.61560 0.63260 0.60870 0.33100
C 	C 	0.68660 0.68440 0.62030 -0.12200
C 	C 	0.74420 0.66220 0.65230 0.05600
C 	C 	0.80980 0.71120 0.66300 -0.12000
C 	C 	0.86860 0.68740 0.69910 0.33000
C 	C 	0.81730 0.78580 0.64180 0.05800
C 	C 	0.76280 0.81010 0.60990 -0.12100
C 	C 	0.77280 0.89220 0.58700 0.36300
C 	C 	0.69640 0.75870 0.59920 0.05500
C 	C 	0.67820 0.41870 0.57580 0.09300
C 	C 	0.72700 0.38000 0.54610 -0.15700
C 	C 	0.69380 0.31880 0.51920 0.07800
C 	C 	0.61210 0.30520 0.52300 -0.15800
C 	C 	0.56470 0.35140 0.55150 0.08200
C 	C 	0.13840 0.61370 0.72640 0.10200
C 	C 	0.19220 0.57090 0.69990 -0.16400
C 	C 	0.19400 0.58860 0.65510 0.08300
C 	C 	0.14170 0.64930 0.63990 -0.16200
C 	C 	0.09080 0.68720 0.67000 0.10200
C 	C 	0.13860 0.86050 0.72540 0.08300
C 	C 	0.16760 0.92800 0.70410 -0.16000
C 	C 	0.11700 0.98260 0.68650 0.09400
C 	C 	0.03380 0.97190 0.68950 -0.15800
C 	C 	0.00620 0.90290 0.71110 0.09600
C 	C 	0.86360 0.78170 0.81630 0.12200
C 	C 	0.82480 0.83850 0.85050 -0.02500
C 	C 	0.36740 0.61560 0.85870 0.33100
C 	C 	0.31560 0.68660 0.87030 -0.12200
C 	C 	0.33780 0.74420 0.90230 0.05600
C 	C 	0.28880 0.80980 0.91300 -0.12000
C 	C 	0.31260 0.86860 0.94910 0.33000
C 	C 	0.21420 0.81730 0.89180 0.05800
C 	C 	0.18990 0.76280 0.85990 -0.12100
C 	C 	0.10780 0.77280 0.83700 0.36300
C 	C 	0.24130 0.69640 0.84920 0.05500
C 	C 	0.58130 0.67820 0.82580 0.09300
C 	C 	0.62000 0.72700 0.79610 -0.15700
C 	C 	0.68120 0.69380 0.76920 0.07800
C 	C 	0.69480 0.61210 0.77300 -0.15800
C 	C 	0.64860 0.56470 0.80150 0.08200
C 	C 	0.38630 0.13840 0.97640 0.10200
C 	C 	0.42910 0.19220 0.94990 -0.16400
C 	C 	0.41140 0.19400 0.90510 0.08300
C 	C 	0.35070 0.14170 0.88990 -0.16200
C 	C 	0.31280 0.09080 0.92000 0.10200
C 	C 	0.13950 0.13860 0.97540 0.08300
C 	C 	0.07200 0.16760 0.95410 -0.16000
C 	C 	0.01740 0.11700 0.93650 0.09400
C 	C 	0.02810 0.03380 0.93950 -0.15700
C 	C 	0.09710 0.00620 0.96110 0.09600
C 	C 	0.21830 0.86360 0.06630 0.12200
C 	C 	0.16150 0.82480 0.10050 -0.02500
C 	C 	0.63260 0.38440 0.35870 0.33100
C 	C 	0.68440 0.31340 0.37030 -0.12200
C 	C 	0.66220 0.25580 0.40230 0.05600
C 	C 	0.71120 0.19020 0.41300 -0.12000
C 	C 	0.68740 0.13140 0.44910 0.33000
C 	C 	0.78580 0.18270 0.39180 0.05800
C 	C 	0.81010 0.23720 0.35990 -0.12100
C 	C 	0.89220 0.22720 0.33700 0.36300
C 	C 	0.75870 0.30360 0.34920 0.05500
C 	C 	0.41870 0.32180 0.32580 0.09300
C 	C 	0.38000 0.27300 0.29610 -0.15700
C 	C 	0.31880 0.30620 0.26920 0.07800
C 	C 	0.30520 0.38790 0.27300 -0.15800
C 	C 	0.35140 0.43530 0.30150 0.08200
C 	C 	0.61370 0.86160 0.47640 0.10200
C 	C 	0.57090 0.80780 0.44990 -0.16400
C 	C 	0.58860 0.80600 0.40510 0.08300
C 	C 	0.64930 0.85830 0.38990 -0.16200
C 	C 	0.68720 0.90920 0.42000 0.10200
C 	C 	0.86050 0.86140 0.47540 0.08400
C 	C 	0.92800 0.83240 0.45410 -0.16000
C 	C 	0.98260 0.88300 0.43650 0.09500
C 	C 	0.97190 0.96620 0.43950 -0.15800
C 	C 	0.90290 0.99380 0.46110 0.09600
C 	C 	0.78170 0.13640 0.56630 0.12200
C 	C 	0.83850 0.17520 0.60050 -0.02500
N 	N 	0.59680 0.58910 0.92270 -0.23700
N 	N 	0.08730 0.32930 0.78730 -0.24200
N 	N 	0.05540 0.15410 0.77040 -0.22200
N 	N 	0.40320 0.41090 0.42270 -0.23700
N 	N 	0.91270 0.67070 0.28730 -0.24200
N 	N 	0.94460 0.84590 0.27040 -0.22200
N 	N 	0.41090 0.59680 0.17270 -0.23700
N 	N 	0.67070 0.08730 0.03730 -0.24200
N 	N 	0.84590 0.05540 0.02040 -0.22200
N 	N 	0.58910 0.40320 0.67270 -0.23700
N 	N 	0.32930 0.91270 0.53730 -0.24200
N 	N 	0.15410 0.94460 0.52040 -0.22200
N 	N 	0.40320 0.58910 0.07730 -0.23700
N 	N 	0.91270 0.32930 0.21270 -0.24200
N 	N 	0.94460 0.15410 0.22960 -0.22200
N 	N 	0.59680 0.41090 0.57730 -0.23700
N 	N 	0.08730 0.67070 0.71270 -0.24200
N 	N 	0.05540 0.84590 0.72960 -0.22200
N 	N 	0.58910 0.59680 0.82730 -0.23700
N 	N 	0.32930 0.08730 0.96270 -0.24200
N 	N 	0.15410 0.05540 0.97960 -0.22200
N 	N 	0.41090 0.40320 0.32730 -0.23700
N 	N 	0.67070 0.91270 0.46270 -0.24200
N 	N 	0.84590 0.94460 0.47960 -0.22200
O 	O 	0.61280 0.43750 0.87190 -0.42500
O 	O 	0.56250 0.34080 0.91820 -0.29300
O 	O 	0.86230 0.38480 0.78380 -0.27800
O 	O 	0.92080 0.26040 0.78860 -0.41300
O 	O 	0.73120 0.09940 0.94800 -0.43500
O 	O 	0.82400 0.05950 0.89860 -0.31800
O 	O 	0.93780 0.18890 0.70130 -0.52400
O 	O 	0.38720 0.56250 0.37190 -0.42500
O 	O 	0.43750 0.65920 0.41820 -0.29300
O 	O 	0.13770 0.61520 0.28380 -0.27800
O 	O 	0.07920 0.73960 0.28860 -0.41300
O 	O 	0.26880 0.90060 0.44800 -0.43500
O 	O 	0.17600 0.94050 0.39860 -0.31800
O 	O 	0.06220 0.81110 0.20130 -0.52400
O 	O 	0.56250 0.61280 0.12190 -0.42500
O 	O 	0.65920 0.56250 0.16820 -0.29300
O 	O 	0.61520 0.86230 0.03380 -0.27800
O 	O 	0.73960 0.92080 0.03860 -0.41400
O 	O 	0.90060 0.73120 0.19800 -0.43500
O 	O 	0.94050 0.82400 0.14860 -0.31800
O 	O 	0.81110 0.93780 0.95130 -0.52400
O 	O 	0.43750 0.38720 0.62190 -0.42500
O 	O 	0.34080 0.43750 0.66820 -0.29300
O 	O 	0.38480 0.13770 0.53380 -0.27800
O 	O 	0.26040 0.07920 0.53860 -0.41300
O 	O 	0.09940 0.26880 0.69800 -0.43500
O 	O 	0.05950 0.17600 0.64860 -0.31800
O 	O 	0.18890 0.06220 0.45130 -0.52400
O 	O 	0.38720 0.43750 0.12810 -0.42500
O 	O 	0.43750 0.34080 0.08180 -0.29300
O 	O 	0.13770 0.38480 0.21620 -0.27800
O 	O 	0.07920 0.26040 0.21140 -0.41300
O 	O 	0.26880 0.09940 0.05200 -0.43500
O 	O 	0.17600 0.05950 0.10140 -0.31800
O 	O 	0.06220 0.18890 0.29870 -0.52400
O 	O 	0.61280 0.56250 0.62810 -0.42500
O 	O 	0.56250 0.65920 0.58180 -0.29300
O 	O 	0.86230 0.61520 0.71620 -0.27800
O 	O 	0.92080 0.73960 0.71140 -0.41300
O 	O 	0.73120 0.90060 0.55200 -0.43500
O 	O 	0.82400 0.94050 0.60140 -0.31800
O 	O 	0.93780 0.81110 0.79870 -0.52400
O 	O 	0.43750 0.61280 0.87810 -0.42500
O 	O 	0.34080 0.56250 0.83180 -0.29300
O 	O 	0.38480 0.86230 0.96620 -0.27800
O 	O 	0.26040 0.92080 0.96140 -0.41400
O 	O 	0.09940 0.73120 0.80200 -0.43500
O 	O 	0.05950 0.82400 0.85140 -0.31800
O 	O 	0.18890 0.93780 0.04870 -0.52400
O 	O 	0.56250 0.38720 0.37810 -0.42500
O 	O 	0.65920 0.43750 0.33180 -0.29300
O 	O 	0.61520 0.13770 0.46620 -0.27800
O 	O 	0.73960 0.07920 0.46140 -0.41300
O 	O 	0.90060 0.26880 0.30200 -0.43500
O 	O 	0.94050 0.17600 0.35140 -0.31800
O 	O 	0.81110 0.06220 0.54870 -0.52400
