data_crystal

_cell_length_a 22.58920
_cell_length_b 22.58920
_cell_length_c 22.58920
_cell_angle_alpha 60.00000
_cell_angle_beta  60.00000
_cell_angle_gamma 60.00000

_symmetry_space_group_name_	'P 1'
_symmetry_space_group_name_H-M	'P 1'

loop_
_symmetry_equiv_pos_as_xyz
  x,y,z

loop_
_atom_site_label
_atom_site_type_symbol
_atom_site_fract_x
_atom_site_fract_y
_atom_site_fract_z
_atom_site_charge
Ni	Ni	0.12500 0.62500 0.39680 1.06200
Ni	Ni	0.62500 0.12500 0.85320 1.06200
Ni	Ni	0.39680 0.85320 0.12500 1.06200
Ni	Ni	0.85320 0.39680 0.62500 1.06200
Ni	Ni	0.12500 0.39680 0.85320 1.06200
Ni	Ni	0.62500 0.85320 0.39680 1.06200
Ni	Ni	0.39680 0.12500 0.62500 1.06200
Ni	Ni	0.85320 0.62500 0.12500 1.06200
Ni	Ni	0.12500 0.85320 0.62500 1.06200
Ni	Ni	0.62500 0.39680 0.12500 1.06200
Ni	Ni	0.39680 0.62500 0.85320 1.06200
Ni	Ni	0.85320 0.12500 0.39680 1.06200
H 	H 	0.34970 0.50470 0.31110 0.03000
H 	H 	0.26590 0.64690 0.27570 -0.07500
H 	H 	0.30900 0.70100 0.15340 0.22400
H 	H 	0.20400 0.80820 0.03700 0.34200
H 	H 	0.27850 0.74510 0.03390 0.37000
H 	H 	0.26520 0.81380 0.04620 0.36300
H 	H 	0.11120 0.77660 0.14620 0.19200
H 	H 	0.07410 0.71890 0.26770 -0.09700
H 	H 	0.50470 0.34970 0.83450 0.02900
H 	H 	0.64690 0.26590 0.81150 -0.07600
H 	H 	0.70100 0.30900 0.83660 0.22700
H 	H 	0.80820 0.20400 0.95080 0.35000
H 	H 	0.74510 0.27850 0.94250 0.37800
H 	H 	0.81380 0.26520 0.87480 0.36900
H 	H 	0.77660 0.11120 0.96600 0.19700
H 	H 	0.71890 0.07410 0.93930 -0.09700
H 	H 	0.31110 0.83450 0.34970 0.02900
H 	H 	0.27570 0.81150 0.26590 -0.07500
H 	H 	0.15340 0.83660 0.30900 0.22500
H 	H 	0.03700 0.95080 0.20400 0.34400
H 	H 	0.03390 0.94250 0.27850 0.37300
H 	H 	0.04620 0.87480 0.26520 0.36300
H 	H 	0.14620 0.96600 0.11120 0.19300
H 	H 	0.26770 0.93930 0.07410 -0.09700
H 	H 	0.83450 0.31110 0.50470 0.02800
H 	H 	0.81150 0.27570 0.64690 -0.07700
H 	H 	0.83660 0.15340 0.70100 0.22400
H 	H 	0.95080 0.03700 0.80820 0.34500
H 	H 	0.94250 0.03390 0.74510 0.37300
H 	H 	0.87480 0.04620 0.81380 0.36400
H 	H 	0.96600 0.14620 0.77660 0.19500
H 	H 	0.93930 0.26770 0.71890 -0.09600
H 	H 	0.34970 0.31110 0.83450 0.02800
H 	H 	0.26590 0.27570 0.81150 -0.07600
H 	H 	0.30900 0.15340 0.83660 0.22400
H 	H 	0.20400 0.03700 0.95080 0.34300
H 	H 	0.27850 0.03390 0.94250 0.37200
H 	H 	0.26520 0.04620 0.87480 0.36300
H 	H 	0.11120 0.14620 0.96600 0.19300
H 	H 	0.07410 0.26770 0.93930 -0.09700
H 	H 	0.50470 0.83450 0.31110 0.02800
H 	H 	0.64690 0.81150 0.27570 -0.07700
H 	H 	0.70100 0.83660 0.15340 0.22400
H 	H 	0.80820 0.95080 0.03700 0.34500
H 	H 	0.74510 0.94250 0.03390 0.37300
H 	H 	0.81380 0.87480 0.04620 0.36400
H 	H 	0.77660 0.96600 0.14620 0.19500
H 	H 	0.71890 0.93930 0.26770 -0.09600
H 	H 	0.31110 0.34970 0.50470 0.02900
H 	H 	0.27570 0.26590 0.64690 -0.07600
H 	H 	0.15340 0.30900 0.70100 0.22300
H 	H 	0.03700 0.20400 0.80820 0.34100
H 	H 	0.03390 0.27850 0.74510 0.36900
H 	H 	0.04620 0.26520 0.81380 0.36200
H 	H 	0.14620 0.11120 0.77660 0.19100
H 	H 	0.26770 0.07410 0.71890 -0.09800
H 	H 	0.83450 0.50470 0.34970 0.02800
H 	H 	0.81150 0.64690 0.26590 -0.07700
H 	H 	0.83660 0.70100 0.30900 0.22600
H 	H 	0.95080 0.80820 0.20400 0.34900
H 	H 	0.94250 0.74510 0.27850 0.37700
H 	H 	0.87480 0.81380 0.26520 0.36800
H 	H 	0.96600 0.77660 0.11120 0.19600
H 	H 	0.93930 0.71890 0.07410 -0.09800
H 	H 	0.34970 0.83450 0.50470 0.02800
H 	H 	0.26590 0.81150 0.64690 -0.07700
H 	H 	0.30900 0.83660 0.70100 0.22600
H 	H 	0.20400 0.95080 0.80820 0.34900
H 	H 	0.27850 0.94250 0.74510 0.37700
H 	H 	0.26520 0.87480 0.81380 0.36800
H 	H 	0.11120 0.96600 0.77660 0.19600
H 	H 	0.07410 0.93930 0.71890 -0.09800
H 	H 	0.50470 0.31110 0.34970 0.02900
H 	H 	0.64690 0.27570 0.26590 -0.07600
H 	H 	0.70100 0.15340 0.30900 0.22300
H 	H 	0.80820 0.03700 0.20400 0.34100
H 	H 	0.74510 0.03390 0.27850 0.36900
H 	H 	0.81380 0.04620 0.26520 0.36200
H 	H 	0.77660 0.14620 0.11120 0.19100
H 	H 	0.71890 0.26770 0.07410 -0.09800
H 	H 	0.31110 0.50470 0.83450 0.02800
H 	H 	0.27570 0.64690 0.81150 -0.07700
H 	H 	0.15340 0.70100 0.83660 0.22400
H 	H 	0.03700 0.80820 0.95080 0.34500
H 	H 	0.03390 0.74510 0.94250 0.37300
H 	H 	0.04620 0.81380 0.87480 0.36400
H 	H 	0.14620 0.77660 0.96600 0.19500
H 	H 	0.26770 0.71890 0.93930 -0.09600
H 	H 	0.83450 0.34970 0.31110 0.02800
H 	H 	0.81150 0.26590 0.27570 -0.07600
H 	H 	0.83660 0.30900 0.15340 0.22400
H 	H 	0.95080 0.20400 0.03700 0.34300
H 	H 	0.94250 0.27850 0.03390 0.37200
H 	H 	0.87480 0.26520 0.04620 0.36300
H 	H 	0.96600 0.11120 0.14620 0.19300
H 	H 	0.93930 0.07410 0.26770 -0.09700
H 	H 	0.74530 0.90030 0.93890 0.03600
H 	H 	0.60310 0.98410 0.97430 -0.05100
H 	H 	0.54900 0.94100 0.09660 0.20900
H 	H 	0.44180 0.04600 0.21300 0.34700
H 	H 	0.50490 0.97150 0.21610 0.37900
H 	H 	0.43620 0.98480 0.20380 0.37100
H 	H 	0.47340 0.13880 0.10380 0.18400
H 	H 	0.53110 0.17590 0.98230 -0.08500
H 	H 	0.90030 0.74530 0.41550 0.03200
H 	H 	0.98410 0.60310 0.43850 -0.06400
H 	H 	0.94100 0.54900 0.41340 0.21700
H 	H 	0.04600 0.44180 0.29920 0.35400
H 	H 	0.97150 0.50490 0.30750 0.38600
H 	H 	0.98480 0.43620 0.37520 0.37900
H 	H 	0.13880 0.47340 0.28400 0.19300
H 	H 	0.17590 0.53110 0.31070 -0.09600
H 	H 	0.41550 0.93890 0.90030 0.03400
H 	H 	0.43850 0.97430 0.98410 -0.05300
H 	H 	0.41340 0.09660 0.94100 0.21100
H 	H 	0.29920 0.21300 0.04600 0.34700
H 	H 	0.30750 0.21610 0.97150 0.37900
H 	H 	0.37520 0.20380 0.98480 0.37100
H 	H 	0.28400 0.10380 0.13880 0.18500
H 	H 	0.31070 0.98230 0.17590 -0.08600
H 	H 	0.93890 0.41550 0.74530 0.03200
H 	H 	0.97430 0.43850 0.60310 -0.06300
H 	H 	0.09660 0.41340 0.54900 0.21500
H 	H 	0.21300 0.29920 0.44180 0.33800
H 	H 	0.21610 0.30750 0.50490 0.36600
H 	H 	0.20380 0.37520 0.43620 0.35800
H 	H 	0.10380 0.28400 0.47340 0.18400
H 	H 	0.98230 0.31070 0.53110 -0.08500
H 	H 	0.93890 0.90030 0.41550 0.03400
H 	H 	0.97430 0.98410 0.43850 -0.05300
H 	H 	0.09660 0.94100 0.41340 0.21100
H 	H 	0.21300 0.04600 0.29920 0.34700
H 	H 	0.21610 0.97150 0.30750 0.37900
H 	H 	0.20380 0.98480 0.37520 0.37100
H 	H 	0.10380 0.13880 0.28400 0.18500
H 	H 	0.98230 0.17590 0.31070 -0.08600
H 	H 	0.41550 0.74530 0.93890 0.03200
H 	H 	0.43850 0.60310 0.97430 -0.06300
H 	H 	0.41340 0.54900 0.09660 0.21500
H 	H 	0.29920 0.44180 0.21300 0.33800
H 	H 	0.30750 0.50490 0.21610 0.36600
H 	H 	0.37520 0.43620 0.20380 0.35800
H 	H 	0.28400 0.47340 0.10380 0.18400
H 	H 	0.31070 0.53110 0.98230 -0.08500
H 	H 	0.90030 0.93890 0.74530 0.03600
H 	H 	0.98410 0.97430 0.60310 -0.05100
H 	H 	0.94100 0.09660 0.54900 0.20900
H 	H 	0.04600 0.21300 0.44180 0.34700
H 	H 	0.97150 0.21610 0.50490 0.37900
H 	H 	0.98480 0.20380 0.43620 0.37100
H 	H 	0.13880 0.10380 0.47340 0.18400
H 	H 	0.17590 0.98230 0.53110 -0.08500
H 	H 	0.74530 0.41550 0.90030 0.03200
H 	H 	0.60310 0.43850 0.98410 -0.06400
H 	H 	0.54900 0.41340 0.94100 0.21700
H 	H 	0.44180 0.29920 0.04600 0.35400
H 	H 	0.50490 0.30750 0.97150 0.38600
H 	H 	0.43620 0.37520 0.98480 0.37900
H 	H 	0.47340 0.28400 0.13880 0.19300
H 	H 	0.53110 0.31070 0.17590 -0.09600
H 	H 	0.41550 0.90030 0.74530 0.03200
H 	H 	0.43850 0.98410 0.60310 -0.06400
H 	H 	0.41340 0.94100 0.54900 0.21700
H 	H 	0.29920 0.04600 0.44180 0.35400
H 	H 	0.30750 0.97150 0.50490 0.38600
H 	H 	0.37520 0.98480 0.43620 0.37900
H 	H 	0.28400 0.13880 0.47340 0.19300
H 	H 	0.31070 0.17590 0.53110 -0.09600
H 	H 	0.93890 0.74530 0.90030 0.03600
H 	H 	0.97430 0.60310 0.98410 -0.05100
H 	H 	0.09660 0.54900 0.94100 0.20900
H 	H 	0.21300 0.44180 0.04600 0.34700
H 	H 	0.21610 0.50490 0.97150 0.37900
H 	H 	0.20380 0.43620 0.98480 0.37100
H 	H 	0.10380 0.47340 0.13880 0.18400
H 	H 	0.98230 0.53110 0.17590 -0.08500
H 	H 	0.74530 0.93890 0.41550 0.03200
H 	H 	0.60310 0.97430 0.43850 -0.06300
H 	H 	0.54900 0.09660 0.41340 0.21500
H 	H 	0.44180 0.21300 0.29920 0.33800
H 	H 	0.50490 0.21610 0.30750 0.36600
H 	H 	0.43620 0.20380 0.37520 0.35800
H 	H 	0.47340 0.10380 0.28400 0.18400
H 	H 	0.53110 0.98230 0.31070 -0.08500
H 	H 	0.90030 0.41550 0.93890 0.03400
H 	H 	0.98410 0.43850 0.97430 -0.05300
H 	H 	0.94100 0.41340 0.09660 0.21100
H 	H 	0.04600 0.29920 0.21300 0.34700
H 	H 	0.97150 0.30750 0.21610 0.37900
H 	H 	0.98480 0.37520 0.20380 0.37100
H 	H 	0.13880 0.28400 0.10380 0.18500
H 	H 	0.17590 0.31070 0.98230 -0.08600
C 	C 	0.24280 0.48560 0.43720 0.33500
C 	C 	0.31820 0.43520 0.41160 -0.12800
C 	C 	0.36510 0.45790 0.34210 0.04300
C 	C 	0.23380 0.67320 0.24980 0.28000
C 	C 	0.26010 0.70570 0.17650 -0.54200
C 	C 	0.21410 0.74550 0.13730 0.61000
C 	C 	0.24320 0.78140 0.05620 -1.14700
C 	C 	0.14400 0.75040 0.17140 -0.56100
C 	C 	0.12270 0.71550 0.24450 0.29600
C 	C 	0.48560 0.24280 0.83440 0.33500
C 	C 	0.43520 0.31820 0.83500 -0.12800
C 	C 	0.45790 0.36510 0.83490 0.04300
C 	C 	0.67320 0.23380 0.84320 0.28300
C 	C 	0.70570 0.26010 0.85770 -0.54800
C 	C 	0.74550 0.21410 0.90310 0.61900
C 	C 	0.78140 0.24320 0.91920 -1.16400
C 	C 	0.75040 0.14400 0.93420 -0.56700
C 	C 	0.71550 0.12270 0.91730 0.30000
C 	C 	0.43720 0.83440 0.24280 0.33500
C 	C 	0.41160 0.83500 0.31820 -0.12800
C 	C 	0.34210 0.83490 0.36510 0.04300
C 	C 	0.24980 0.84320 0.23380 0.28100
C 	C 	0.17650 0.85770 0.26010 -0.54300
C 	C 	0.13730 0.90310 0.21410 0.61200
C 	C 	0.05620 0.91920 0.24320 -1.15100
C 	C 	0.17140 0.93420 0.14400 -0.56200
C 	C 	0.24450 0.91730 0.12270 0.29700
C 	C 	0.83440 0.43720 0.48560 0.33500
C 	C 	0.83500 0.41160 0.43520 -0.12800
C 	C 	0.83490 0.34210 0.45790 0.04300
C 	C 	0.84320 0.24980 0.67320 0.28100
C 	C 	0.85770 0.17650 0.70570 -0.54400
C 	C 	0.90310 0.13730 0.74550 0.61400
C 	C 	0.91920 0.05620 0.78140 -1.15400
C 	C 	0.93420 0.17140 0.75040 -0.56300
C 	C 	0.91730 0.24450 0.71550 0.29800
C 	C 	0.24280 0.43720 0.83440 0.33500
C 	C 	0.31820 0.41160 0.83500 -0.12800
C 	C 	0.36510 0.34210 0.83490 0.04300
C 	C 	0.23380 0.24980 0.84320 0.28100
C 	C 	0.26010 0.17650 0.85770 -0.54300
C 	C 	0.21410 0.13730 0.90310 0.61200
C 	C 	0.24320 0.05620 0.91920 -1.15100
C 	C 	0.14400 0.17140 0.93420 -0.56200
C 	C 	0.12270 0.24450 0.91730 0.29700
C 	C 	0.48560 0.83440 0.43720 0.33500
C 	C 	0.43520 0.83500 0.41160 -0.12800
C 	C 	0.45790 0.83490 0.34210 0.04300
C 	C 	0.67320 0.84320 0.24980 0.28100
C 	C 	0.70570 0.85770 0.17650 -0.54400
C 	C 	0.74550 0.90310 0.13730 0.61400
C 	C 	0.78140 0.91920 0.05620 -1.15400
C 	C 	0.75040 0.93420 0.17140 -0.56300
C 	C 	0.71550 0.91730 0.24450 0.29800
C 	C 	0.43720 0.24280 0.48560 0.33500
C 	C 	0.41160 0.31820 0.43520 -0.12800
C 	C 	0.34210 0.36510 0.45790 0.04300
C 	C 	0.24980 0.23380 0.67320 0.28000
C 	C 	0.17650 0.26010 0.70570 -0.54200
C 	C 	0.13730 0.21410 0.74550 0.61000
C 	C 	0.05620 0.24320 0.78140 -1.14700
C 	C 	0.17140 0.14400 0.75040 -0.56100
C 	C 	0.24450 0.12270 0.71550 0.29600
C 	C 	0.83440 0.48560 0.24280 0.33500
C 	C 	0.83500 0.43520 0.31820 -0.12800
C 	C 	0.83490 0.45790 0.36510 0.04300
C 	C 	0.84320 0.67320 0.23380 0.28300
C 	C 	0.85770 0.70570 0.26010 -0.54800
C 	C 	0.90310 0.74550 0.21410 0.61900
C 	C 	0.91920 0.78140 0.24320 -1.16400
C 	C 	0.93420 0.75040 0.14400 -0.56700
C 	C 	0.91730 0.71550 0.12270 0.30000
C 	C 	0.24280 0.83440 0.48560 0.33500
C 	C 	0.31820 0.83500 0.43520 -0.12800
C 	C 	0.36510 0.83490 0.45790 0.04300
C 	C 	0.23380 0.84320 0.67320 0.28300
C 	C 	0.26010 0.85770 0.70570 -0.54800
C 	C 	0.21410 0.90310 0.74550 0.61900
C 	C 	0.24320 0.91920 0.78140 -1.16400
C 	C 	0.14400 0.93420 0.75040 -0.56700
C 	C 	0.12270 0.91730 0.71550 0.30000
C 	C 	0.48560 0.43720 0.24280 0.33500
C 	C 	0.43520 0.41160 0.31820 -0.12800
C 	C 	0.45790 0.34210 0.36510 0.04300
C 	C 	0.67320 0.24980 0.23380 0.28000
C 	C 	0.70570 0.17650 0.26010 -0.54200
C 	C 	0.74550 0.13730 0.21410 0.61000
C 	C 	0.78140 0.05620 0.24320 -1.14700
C 	C 	0.75040 0.17140 0.14400 -0.56100
C 	C 	0.71550 0.24450 0.12270 0.29600
C 	C 	0.43720 0.48560 0.83440 0.33500
C 	C 	0.41160 0.43520 0.83500 -0.12800
C 	C 	0.34210 0.45790 0.83490 0.04300
C 	C 	0.24980 0.67320 0.84320 0.28100
C 	C 	0.17650 0.70570 0.85770 -0.54400
C 	C 	0.13730 0.74550 0.90310 0.61400
C 	C 	0.05620 0.78140 0.91920 -1.15400
C 	C 	0.17140 0.75040 0.93420 -0.56300
C 	C 	0.24450 0.71550 0.91730 0.29800
C 	C 	0.83440 0.24280 0.43720 0.33500
C 	C 	0.83500 0.31820 0.41160 -0.12800
C 	C 	0.83490 0.36510 0.34210 0.04300
C 	C 	0.84320 0.23380 0.24980 0.28100
C 	C 	0.85770 0.26010 0.17650 -0.54300
C 	C 	0.90310 0.21410 0.13730 0.61200
C 	C 	0.91920 0.24320 0.05620 -1.15100
C 	C 	0.93420 0.14400 0.17140 -0.56200
C 	C 	0.91730 0.12270 0.24450 0.29700
C 	C 	0.76440 0.00720 0.81280 0.32400
C 	C 	0.81480 0.93180 0.83840 -0.11100
C 	C 	0.79210 0.88490 0.90790 0.03000
C 	C 	0.57680 0.01620 0.00020 0.23000
C 	C 	0.54430 0.98990 0.07350 -0.50100
C 	C 	0.50450 0.03590 0.11270 0.59000
C 	C 	0.46860 0.00680 0.19380 -1.16500
C 	C 	0.49960 0.10600 0.07860 -0.53900
C 	C 	0.53450 0.12730 0.00550 0.26900
C 	C 	0.00720 0.76440 0.41560 0.32700
C 	C 	0.93180 0.81480 0.41500 -0.11600
C 	C 	0.88490 0.79210 0.41510 0.03600
C 	C 	0.01620 0.57680 0.40680 0.25500
C 	C 	0.98990 0.54430 0.39230 -0.52100
C 	C 	0.03590 0.50450 0.34690 0.60900
C 	C 	0.00680 0.46860 0.33080 -1.19000
C 	C 	0.10600 0.49960 0.31580 -0.56100
C 	C 	0.12730 0.53450 0.33270 0.29500
C 	C 	0.41560 0.81280 0.00720 0.32700
C 	C 	0.41500 0.83840 0.93180 -0.11600
C 	C 	0.41510 0.90790 0.88490 0.03400
C 	C 	0.40680 0.00020 0.01620 0.23400
C 	C 	0.39230 0.07350 0.98990 -0.50400
C 	C 	0.34690 0.11270 0.03590 0.59200
C 	C 	0.33080 0.19380 0.00680 -1.16500
C 	C 	0.31580 0.07860 0.10600 -0.54100
C 	C 	0.33270 0.00550 0.12730 0.27200
C 	C 	0.81280 0.41560 0.76440 0.33300
C 	C 	0.83840 0.41500 0.81480 -0.12200
C 	C 	0.90790 0.41510 0.79210 0.03600
C 	C 	0.00020 0.40680 0.57680 0.25300
C 	C 	0.07350 0.39230 0.54430 -0.52000
C 	C 	0.11270 0.34690 0.50450 0.59200
C 	C 	0.19380 0.33080 0.46860 -1.13100
C 	C 	0.07860 0.31580 0.49960 -0.53900
C 	C 	0.00550 0.33270 0.53450 0.26900
C 	C 	0.81280 0.00720 0.41560 0.32700
C 	C 	0.83840 0.93180 0.41500 -0.11600
C 	C 	0.90790 0.88490 0.41510 0.03400
C 	C 	0.00020 0.01620 0.40680 0.23400
C 	C 	0.07350 0.98990 0.39230 -0.50400
C 	C 	0.11270 0.03590 0.34690 0.59200
C 	C 	0.19380 0.00680 0.33080 -1.16500
C 	C 	0.07860 0.10600 0.31580 -0.54100
C 	C 	0.00550 0.12730 0.33270 0.27200
C 	C 	0.41560 0.76440 0.81280 0.33300
C 	C 	0.41500 0.81480 0.83840 -0.12200
C 	C 	0.41510 0.79210 0.90790 0.03600
C 	C 	0.40680 0.57680 0.00020 0.25300
C 	C 	0.39230 0.54430 0.07350 -0.52000
C 	C 	0.34690 0.50450 0.11270 0.59200
C 	C 	0.33080 0.46860 0.19380 -1.13100
C 	C 	0.31580 0.49960 0.07860 -0.53900
C 	C 	0.33270 0.53450 0.00550 0.26900
C 	C 	0.00720 0.81280 0.76440 0.32400
C 	C 	0.93180 0.83840 0.81480 -0.11100
C 	C 	0.88490 0.90790 0.79210 0.03000
C 	C 	0.01620 0.00020 0.57680 0.23000
C 	C 	0.98990 0.07350 0.54430 -0.50100
C 	C 	0.03590 0.11270 0.50450 0.59000
C 	C 	0.00680 0.19380 0.46860 -1.16500
C 	C 	0.10600 0.07860 0.49960 -0.53900
C 	C 	0.12730 0.00550 0.53450 0.26900
C 	C 	0.76440 0.41560 0.00720 0.32700
C 	C 	0.81480 0.41500 0.93180 -0.11600
C 	C 	0.79210 0.41510 0.88490 0.03600
C 	C 	0.57680 0.40680 0.01620 0.25500
C 	C 	0.54430 0.39230 0.98990 -0.52100
C 	C 	0.50450 0.34690 0.03590 0.60900
C 	C 	0.46860 0.33080 0.00680 -1.19000
C 	C 	0.49960 0.31580 0.10600 -0.56100
C 	C 	0.53450 0.33270 0.12730 0.29500
C 	C 	0.41560 0.00720 0.76440 0.32700
C 	C 	0.41500 0.93180 0.81480 -0.11600
C 	C 	0.41510 0.88490 0.79210 0.03600
C 	C 	0.40680 0.01620 0.57680 0.25500
C 	C 	0.39230 0.98990 0.54430 -0.52100
C 	C 	0.34690 0.03590 0.50450 0.60900
C 	C 	0.33080 0.00680 0.46860 -1.19000
C 	C 	0.31580 0.10600 0.49960 -0.56100
C 	C 	0.33270 0.12730 0.53450 0.29500
C 	C 	0.81280 0.76440 0.00720 0.32400
C 	C 	0.83840 0.81480 0.93180 -0.11100
C 	C 	0.90790 0.79210 0.88490 0.03000
C 	C 	0.00020 0.57680 0.01620 0.23000
C 	C 	0.07350 0.54430 0.98990 -0.50100
C 	C 	0.11270 0.50450 0.03590 0.59000
C 	C 	0.19380 0.46860 0.00680 -1.16500
C 	C 	0.07860 0.49960 0.10600 -0.53900
C 	C 	0.00550 0.53450 0.12730 0.26900
C 	C 	0.76440 0.81280 0.41560 0.33300
C 	C 	0.81480 0.83840 0.41500 -0.12200
C 	C 	0.79210 0.90790 0.41510 0.03600
C 	C 	0.57680 0.00020 0.40680 0.25300
C 	C 	0.54430 0.07350 0.39230 -0.52000
C 	C 	0.50450 0.11270 0.34690 0.59200
C 	C 	0.46860 0.19380 0.33080 -1.13100
C 	C 	0.49960 0.07860 0.31580 -0.53900
C 	C 	0.53450 0.00550 0.33270 0.26900
C 	C 	0.00720 0.41560 0.81280 0.32700
C 	C 	0.93180 0.41500 0.83840 -0.11600
C 	C 	0.88490 0.41510 0.90790 0.03400
C 	C 	0.01620 0.40680 0.00020 0.23400
C 	C 	0.98990 0.39230 0.07350 -0.50400
C 	C 	0.03590 0.34690 0.11270 0.59200
C 	C 	0.00680 0.33080 0.19380 -1.16500
C 	C 	0.10600 0.31580 0.07860 -0.54100
C 	C 	0.12730 0.33270 0.00550 0.27200
N 	N 	0.16390 0.67730 0.28610 -0.32100
N 	N 	0.67730 0.16390 0.87270 -0.32300
N 	N 	0.28610 0.87270 0.16390 -0.32200
N 	N 	0.87270 0.28610 0.67730 -0.32200
N 	N 	0.16390 0.28610 0.87270 -0.32200
N 	N 	0.67730 0.87270 0.28610 -0.32200
N 	N 	0.28610 0.16390 0.67730 -0.32100
N 	N 	0.87270 0.67730 0.16390 -0.32300
N 	N 	0.16390 0.87270 0.67730 -0.32300
N 	N 	0.67730 0.28610 0.16390 -0.32100
N 	N 	0.28610 0.67730 0.87270 -0.32200
N 	N 	0.87270 0.16390 0.28610 -0.32200
N 	N 	0.57270 0.08610 0.96390 -0.30600
N 	N 	0.08610 0.57270 0.37730 -0.31700
N 	N 	0.37730 0.96390 0.08610 -0.30700
N 	N 	0.96390 0.37730 0.57270 -0.30800
N 	N 	0.96390 0.08610 0.37730 -0.30700
N 	N 	0.37730 0.57270 0.96390 -0.30800
N 	N 	0.08610 0.96390 0.57270 -0.30600
N 	N 	0.57270 0.37730 0.08610 -0.31700
N 	N 	0.37730 0.08610 0.57270 -0.31700
N 	N 	0.96390 0.57270 0.08610 -0.30600
N 	N 	0.57270 0.96390 0.37730 -0.30800
N 	N 	0.08610 0.37730 0.96390 -0.30700
O 	O 	0.22190 0.54370 0.38870 -0.43600
O 	O 	0.20590 0.46750 0.50250 -0.31000
O 	O 	0.54370 0.22190 0.84570 -0.43600
O 	O 	0.46750 0.20590 0.82410 -0.30900
O 	O 	0.38870 0.84570 0.22190 -0.43600
O 	O 	0.50250 0.82410 0.20590 -0.30900
O 	O 	0.84570 0.38870 0.54370 -0.43600
O 	O 	0.82410 0.50250 0.46750 -0.30900
O 	O 	0.22190 0.38870 0.84570 -0.43600
O 	O 	0.20590 0.50250 0.82410 -0.30900
O 	O 	0.54370 0.84570 0.38870 -0.43600
O 	O 	0.46750 0.82410 0.50250 -0.30900
O 	O 	0.38870 0.22190 0.54370 -0.43600
O 	O 	0.50250 0.20590 0.46750 -0.31000
O 	O 	0.84570 0.54370 0.22190 -0.43600
O 	O 	0.82410 0.46750 0.20590 -0.30900
O 	O 	0.22190 0.84570 0.54370 -0.43600
O 	O 	0.20590 0.82410 0.46750 -0.30900
O 	O 	0.54370 0.38870 0.22190 -0.43600
O 	O 	0.46750 0.50250 0.20590 -0.31000
O 	O 	0.38870 0.54370 0.84570 -0.43600
O 	O 	0.50250 0.46750 0.82410 -0.30900
O 	O 	0.84570 0.22190 0.38870 -0.43600
O 	O 	0.82410 0.20590 0.50250 -0.30900
O 	O 	0.70630 0.02810 0.86130 -0.43500
O 	O 	0.78250 0.04410 0.74750 -0.30900
O 	O 	0.02810 0.70630 0.40430 -0.43600
O 	O 	0.04410 0.78250 0.42590 -0.30900
O 	O 	0.40430 0.86130 0.02810 -0.43600
O 	O 	0.42590 0.74750 0.04410 -0.30900
O 	O 	0.86130 0.40430 0.70630 -0.43500
O 	O 	0.74750 0.42590 0.78250 -0.30900
O 	O 	0.86130 0.02810 0.40430 -0.43600
O 	O 	0.74750 0.04410 0.42590 -0.30900
O 	O 	0.40430 0.70630 0.86130 -0.43500
O 	O 	0.42590 0.78250 0.74750 -0.30900
O 	O 	0.02810 0.86130 0.70630 -0.43500
O 	O 	0.04410 0.74750 0.78250 -0.30900
O 	O 	0.70630 0.40430 0.02810 -0.43600
O 	O 	0.78250 0.42590 0.04410 -0.30900
O 	O 	0.40430 0.02810 0.70630 -0.43600
O 	O 	0.42590 0.04410 0.78250 -0.30900
O 	O 	0.86130 0.70630 0.02810 -0.43500
O 	O 	0.74750 0.78250 0.04410 -0.30900
O 	O 	0.70630 0.86130 0.40430 -0.43500
O 	O 	0.78250 0.74750 0.42590 -0.30900
O 	O 	0.02810 0.40430 0.86130 -0.43600
O 	O 	0.04410 0.42590 0.74750 -0.30900
