data_crystal

_cell_length_a 28.40000
_cell_length_b 28.40000
_cell_length_c 28.40000
_cell_angle_alpha 90.00000
_cell_angle_beta  90.00000
_cell_angle_gamma 90.00000

_symmetry_space_group_name_	'P 1'
_symmetry_space_group_name_H-M	'P 1'

loop_
_symmetry_equiv_pos_as_xyz
  x,y,z

loop_
_atom_site_label
_atom_site_type_symbol
_atom_site_fract_x
_atom_site_fract_y
_atom_site_fract_z
_atom_site_charge
C 	C 	0.46250 0.93060 0.09890 0.33300
C 	C 	0.50430 0.94450 0.06950 -0.12400
C 	C 	0.51678 0.91789 0.03078 0.04900
H 	H 	0.49880 0.89100 0.02240 0.03300
C 	C 	0.33350 0.92450 0.15220 0.32900
C 	C 	0.29660 0.90600 0.18040 -0.63100
H 	H 	0.29090 0.87310 0.17170 0.20400
H 	H 	0.26790 0.92440 0.17530 0.18300
H 	H 	0.30560 0.90770 0.21360 0.20700
C 	C 	0.32650 0.96800 0.17760 -0.55100
H 	H 	0.34930 0.99150 0.16670 0.17600
H 	H 	0.33090 0.96250 0.21130 0.18200
H 	H 	0.29450 0.97960 0.17190 0.15400
C 	C 	0.42200 0.75310 0.08940 0.10000
H 	H 	0.41780 0.74450 0.12150 -0.01000
C 	C 	0.43380 0.71980 0.05780 -0.17000
H 	H 	0.43850 0.68860 0.06890 0.08900
C 	C 	0.43910 0.72750 0.01480 0.09700
H 	H 	0.44650 0.70290 0.99330 0.01400
C 	C 	0.43360 0.77350 0.00010 -0.14400
H 	H 	0.43780 0.78110 0.96770 0.08000
C 	C 	0.42210 0.80870 0.03150 0.09000
H 	H 	0.41860 0.84030 0.02090 0.00500
N 	N 	0.41613 0.79813 0.07650 -0.22900
O 	O 	0.44338 0.89196 0.08802 -0.42000
O 	O 	0.44844 0.95751 0.13087 -0.31100
O 	O 	0.37847 0.90876 0.16664 -0.53200
H 	H 	0.39920 0.92060 0.14910 0.23300
C 	C 	0.03750 0.06940 0.59890 0.33400
C 	C 	0.99570 0.05550 0.56950 -0.12400
C 	C 	0.98322 0.08211 0.53078 0.05000
H 	H 	0.00120 0.10900 0.52240 0.03400
C 	C 	0.16650 0.07550 0.65220 0.33000
C 	C 	0.20340 0.09400 0.68040 -0.63000
H 	H 	0.20910 0.12690 0.67170 0.20500
H 	H 	0.23210 0.07560 0.67530 0.18400
H 	H 	0.19440 0.09230 0.71360 0.20800
C 	C 	0.17350 0.03200 0.67760 -0.55000
H 	H 	0.15070 0.00850 0.66670 0.17700
H 	H 	0.16910 0.03750 0.71130 0.18300
H 	H 	0.20550 0.02040 0.67190 0.15400
C 	C 	0.07800 0.24690 0.58940 0.10000
H 	H 	0.08220 0.25550 0.62150 -0.01000
C 	C 	0.06620 0.28020 0.55780 -0.17000
H 	H 	0.06150 0.31140 0.56890 0.08900
C 	C 	0.06090 0.27250 0.51480 0.09600
H 	H 	0.05350 0.29710 0.49330 0.01400
C 	C 	0.06640 0.22650 0.50010 -0.14400
H 	H 	0.06220 0.21890 0.46770 0.08000
C 	C 	0.07790 0.19130 0.53150 0.09000
H 	H 	0.08140 0.15970 0.52090 0.00500
N 	N 	0.08387 0.20187 0.57650 -0.22900
O 	O 	0.05662 0.10804 0.58802 -0.42000
O 	O 	0.05156 0.04249 0.63087 -0.31100
O 	O 	0.12153 0.09124 0.66664 -0.53200
H 	H 	0.10080 0.07940 0.64910 0.23300
C 	C 	0.53750 0.43060 0.40110 0.33400
C 	C 	0.49570 0.44450 0.43050 -0.12300
C 	C 	0.48322 0.41789 0.46922 0.05000
H 	H 	0.50120 0.39100 0.47760 0.03400
C 	C 	0.66650 0.42450 0.34780 0.33000
C 	C 	0.70340 0.40600 0.31960 -0.63000
H 	H 	0.70910 0.37310 0.32830 0.20500
H 	H 	0.73210 0.42440 0.32470 0.18400
H 	H 	0.69440 0.40770 0.28640 0.20800
C 	C 	0.67350 0.46800 0.32240 -0.55000
H 	H 	0.65070 0.49150 0.33330 0.17700
H 	H 	0.66910 0.46250 0.28870 0.18300
H 	H 	0.70550 0.47960 0.32810 0.15400
C 	C 	0.57800 0.25310 0.41060 0.10000
H 	H 	0.58220 0.24450 0.37850 -0.01000
C 	C 	0.56620 0.21980 0.44220 -0.17000
H 	H 	0.56150 0.18860 0.43110 0.08900
C 	C 	0.56090 0.22750 0.48520 0.09600
H 	H 	0.55350 0.20290 0.50670 0.01400
C 	C 	0.56640 0.27350 0.49990 -0.14400
H 	H 	0.56220 0.28110 0.53230 0.08000
C 	C 	0.57790 0.30870 0.46850 0.09000
H 	H 	0.58140 0.34030 0.47910 0.00500
N 	N 	0.58387 0.29813 0.42350 -0.22900
O 	O 	0.55662 0.39196 0.41198 -0.42000
O 	O 	0.55156 0.45751 0.36913 -0.31100
O 	O 	0.62153 0.40876 0.33336 -0.53200
H 	H 	0.60080 0.42060 0.35090 0.23300
C 	C 	0.96250 0.56940 0.90110 0.33400
C 	C 	0.00430 0.55550 0.93050 -0.12300
C 	C 	0.01678 0.58211 0.96922 0.05000
H 	H 	0.99880 0.60900 0.97760 0.03400
C 	C 	0.83350 0.57550 0.84780 0.33000
C 	C 	0.79660 0.59400 0.81960 -0.63000
H 	H 	0.79090 0.62690 0.82830 0.20500
H 	H 	0.76790 0.57560 0.82470 0.18400
H 	H 	0.80560 0.59230 0.78640 0.20800
C 	C 	0.82650 0.53200 0.82240 -0.55000
H 	H 	0.84930 0.50850 0.83330 0.17700
H 	H 	0.83090 0.53750 0.78870 0.18300
H 	H 	0.79450 0.52040 0.82810 0.15400
C 	C 	0.92200 0.74690 0.91060 0.10000
H 	H 	0.91780 0.75550 0.87850 -0.01000
C 	C 	0.93380 0.78020 0.94220 -0.17000
H 	H 	0.93850 0.81140 0.93110 0.08900
C 	C 	0.93910 0.77250 0.98520 0.09600
H 	H 	0.94650 0.79710 0.00670 0.01400
C 	C 	0.93360 0.72650 0.99990 -0.14400
H 	H 	0.93780 0.71890 0.03230 0.08000
C 	C 	0.92210 0.69130 0.96850 0.09000
H 	H 	0.91860 0.65970 0.97910 0.00500
N 	N 	0.91613 0.70187 0.92350 -0.22900
O 	O 	0.94338 0.60804 0.91198 -0.42000
O 	O 	0.94844 0.54249 0.86913 -0.31100
O 	O 	0.87847 0.59124 0.83336 -0.53200
H 	H 	0.89920 0.57940 0.85090 0.23300
C 	C 	0.09890 0.46250 0.93060 0.33400
C 	C 	0.06950 0.50430 0.94450 -0.12300
C 	C 	0.03078 0.51678 0.91789 0.05000
H 	H 	0.02240 0.49880 0.89100 0.03400
C 	C 	0.15220 0.33350 0.92450 0.33000
C 	C 	0.18040 0.29660 0.90600 -0.63000
H 	H 	0.17170 0.29090 0.87310 0.20500
H 	H 	0.17530 0.26790 0.92440 0.18400
H 	H 	0.21360 0.30560 0.90770 0.20800
C 	C 	0.17760 0.32650 0.96800 -0.55000
H 	H 	0.16670 0.34930 0.99150 0.17700
H 	H 	0.21130 0.33090 0.96250 0.18300
H 	H 	0.17190 0.29450 0.97960 0.15400
C 	C 	0.08940 0.42200 0.75310 0.10000
H 	H 	0.12150 0.41780 0.74450 -0.01000
C 	C 	0.05780 0.43380 0.71980 -0.17000
H 	H 	0.06890 0.43850 0.68860 0.08900
C 	C 	0.01480 0.43910 0.72750 0.09700
H 	H 	0.99330 0.44650 0.70290 0.01400
C 	C 	0.00010 0.43360 0.77350 -0.14400
H 	H 	0.96770 0.43780 0.78110 0.08000
C 	C 	0.03150 0.42210 0.80870 0.09000
H 	H 	0.02090 0.41860 0.84030 0.00500
N 	N 	0.07650 0.41613 0.79813 -0.22900
O 	O 	0.08802 0.44338 0.89196 -0.42000
O 	O 	0.13087 0.44844 0.95751 -0.31100
O 	O 	0.16664 0.37847 0.90876 -0.53200
H 	H 	0.14910 0.39920 0.92060 0.23300
C 	C 	0.59890 0.03750 0.06940 0.33400
C 	C 	0.56950 0.99570 0.05550 -0.12400
C 	C 	0.53078 0.98322 0.08211 0.05000
H 	H 	0.52240 0.00120 0.10900 0.03400
C 	C 	0.65220 0.16650 0.07550 0.33000
C 	C 	0.68040 0.20340 0.09400 -0.63000
H 	H 	0.67170 0.20910 0.12690 0.20500
H 	H 	0.67530 0.23210 0.07560 0.18400
H 	H 	0.71360 0.19440 0.09230 0.20800
C 	C 	0.67760 0.17350 0.03200 -0.55000
H 	H 	0.66670 0.15070 0.00850 0.17700
H 	H 	0.71130 0.16910 0.03750 0.18300
H 	H 	0.67190 0.20550 0.02040 0.15400
C 	C 	0.58940 0.07800 0.24690 0.10000
H 	H 	0.62150 0.08220 0.25550 -0.01000
C 	C 	0.55780 0.06620 0.28020 -0.17000
H 	H 	0.56890 0.06150 0.31140 0.08900
C 	C 	0.51480 0.06090 0.27250 0.09600
H 	H 	0.49330 0.05350 0.29710 0.01400
C 	C 	0.50010 0.06640 0.22650 -0.14400
H 	H 	0.46770 0.06220 0.21890 0.08000
C 	C 	0.53150 0.07790 0.19130 0.09000
H 	H 	0.52090 0.08140 0.15970 0.00500
N 	N 	0.57650 0.08387 0.20187 -0.22900
O 	O 	0.58802 0.05662 0.10804 -0.42000
O 	O 	0.63087 0.05156 0.04249 -0.31100
O 	O 	0.66664 0.12153 0.09124 -0.53200
H 	H 	0.64910 0.10080 0.07940 0.23300
C 	C 	0.40110 0.53750 0.43060 0.33400
C 	C 	0.43050 0.49570 0.44450 -0.12300
C 	C 	0.46922 0.48322 0.41789 0.05000
H 	H 	0.47760 0.50120 0.39100 0.03400
C 	C 	0.34780 0.66650 0.42450 0.33000
C 	C 	0.31960 0.70340 0.40600 -0.63000
H 	H 	0.32830 0.70910 0.37310 0.20500
H 	H 	0.32470 0.73210 0.42440 0.18400
H 	H 	0.28640 0.69440 0.40770 0.20800
C 	C 	0.32240 0.67350 0.46800 -0.55000
H 	H 	0.33330 0.65070 0.49150 0.17700
H 	H 	0.28870 0.66910 0.46250 0.18300
H 	H 	0.32810 0.70550 0.47960 0.15400
C 	C 	0.41060 0.57800 0.25310 0.10000
H 	H 	0.37850 0.58220 0.24450 -0.01000
C 	C 	0.44220 0.56620 0.21980 -0.17000
H 	H 	0.43110 0.56150 0.18860 0.08900
C 	C 	0.48520 0.56090 0.22750 0.09600
H 	H 	0.50670 0.55350 0.20290 0.01400
C 	C 	0.49990 0.56640 0.27350 -0.14400
H 	H 	0.53230 0.56220 0.28110 0.08000
C 	C 	0.46850 0.57790 0.30870 0.09000
H 	H 	0.47910 0.58140 0.34030 0.00500
N 	N 	0.42350 0.58387 0.29813 -0.22900
O 	O 	0.41198 0.55662 0.39196 -0.42000
O 	O 	0.36913 0.55156 0.45751 -0.31100
O 	O 	0.33336 0.62153 0.40876 -0.53200
H 	H 	0.35090 0.60080 0.42060 0.23300
C 	C 	0.90110 0.96250 0.56940 0.33400
C 	C 	0.93050 0.00430 0.55550 -0.12300
C 	C 	0.96922 0.01678 0.58211 0.05000
H 	H 	0.97760 0.99880 0.60900 0.03400
C 	C 	0.84780 0.83350 0.57550 0.33000
C 	C 	0.81960 0.79660 0.59400 -0.63000
H 	H 	0.82830 0.79090 0.62690 0.20500
H 	H 	0.82470 0.76790 0.57560 0.18400
H 	H 	0.78640 0.80560 0.59230 0.20800
C 	C 	0.82240 0.82650 0.53200 -0.55000
H 	H 	0.83330 0.84930 0.50850 0.17700
H 	H 	0.78870 0.83090 0.53750 0.18300
H 	H 	0.82810 0.79450 0.52040 0.15400
C 	C 	0.91060 0.92200 0.74690 0.10000
H 	H 	0.87850 0.91780 0.75550 -0.01000
C 	C 	0.94220 0.93380 0.78020 -0.17000
H 	H 	0.93110 0.93850 0.81140 0.08900
C 	C 	0.98520 0.93910 0.77250 0.09600
H 	H 	0.00670 0.94650 0.79710 0.01400
C 	C 	0.99990 0.93360 0.72650 -0.14400
H 	H 	0.03230 0.93780 0.71890 0.08000
C 	C 	0.96850 0.92210 0.69130 0.09000
H 	H 	0.97910 0.91860 0.65970 0.00500
N 	N 	0.92350 0.91613 0.70187 -0.22900
O 	O 	0.91198 0.94338 0.60804 -0.42000
O 	O 	0.86913 0.94844 0.54249 -0.31100
O 	O 	0.83336 0.87847 0.59124 -0.53200
H 	H 	0.85090 0.89920 0.57940 0.23300
C 	C 	0.93060 0.09890 0.46250 0.33400
C 	C 	0.94450 0.06950 0.50430 -0.12300
C 	C 	0.91789 0.03078 0.51678 0.05000
H 	H 	0.89100 0.02240 0.49880 0.03400
C 	C 	0.92450 0.15220 0.33350 0.33000
C 	C 	0.90600 0.18040 0.29660 -0.63000
H 	H 	0.87310 0.17170 0.29090 0.20500
H 	H 	0.92440 0.17530 0.26790 0.18400
H 	H 	0.90770 0.21360 0.30560 0.20800
C 	C 	0.96800 0.17760 0.32650 -0.55000
H 	H 	0.99150 0.16670 0.34930 0.17700
H 	H 	0.96250 0.21130 0.33090 0.18300
H 	H 	0.97960 0.17190 0.29450 0.15400
C 	C 	0.75310 0.08940 0.42200 0.10000
H 	H 	0.74450 0.12150 0.41780 -0.01000
C 	C 	0.71980 0.05780 0.43380 -0.17000
H 	H 	0.68860 0.06890 0.43850 0.08900
C 	C 	0.72750 0.01480 0.43910 0.09700
H 	H 	0.70290 0.99330 0.44650 0.01400
C 	C 	0.77350 0.00010 0.43360 -0.14400
H 	H 	0.78110 0.96770 0.43780 0.08000
C 	C 	0.80870 0.03150 0.42210 0.09000
H 	H 	0.84030 0.02090 0.41860 0.00500
N 	N 	0.79813 0.07650 0.41613 -0.22900
O 	O 	0.89196 0.08802 0.44338 -0.42000
O 	O 	0.95751 0.13087 0.44844 -0.31100
O 	O 	0.90876 0.16664 0.37847 -0.53200
H 	H 	0.92060 0.14910 0.39920 0.23300
C 	C 	0.06940 0.59890 0.03750 0.33400
C 	C 	0.05550 0.56950 0.99570 -0.12400
C 	C 	0.08211 0.53078 0.98322 0.05000
H 	H 	0.10900 0.52240 0.00120 0.03400
C 	C 	0.07550 0.65220 0.16650 0.33000
C 	C 	0.09400 0.68040 0.20340 -0.63000
H 	H 	0.12690 0.67170 0.20910 0.20500
H 	H 	0.07560 0.67530 0.23210 0.18400
H 	H 	0.09230 0.71360 0.19440 0.20800
C 	C 	0.03200 0.67760 0.17350 -0.55000
H 	H 	0.00850 0.66670 0.15070 0.17700
H 	H 	0.03750 0.71130 0.16910 0.18300
H 	H 	0.02040 0.67190 0.20550 0.15400
C 	C 	0.24690 0.58940 0.07800 0.10000
H 	H 	0.25550 0.62150 0.08220 -0.01000
C 	C 	0.28020 0.55780 0.06620 -0.17000
H 	H 	0.31140 0.56890 0.06150 0.08900
C 	C 	0.27250 0.51480 0.06090 0.09600
H 	H 	0.29710 0.49330 0.05350 0.01400
C 	C 	0.22650 0.50010 0.06640 -0.14400
H 	H 	0.21890 0.46770 0.06220 0.08000
C 	C 	0.19130 0.53150 0.07790 0.09000
H 	H 	0.15970 0.52090 0.08140 0.00500
N 	N 	0.20187 0.57650 0.08387 -0.22900
O 	O 	0.10804 0.58802 0.05662 -0.42000
O 	O 	0.04249 0.63087 0.05156 -0.31100
O 	O 	0.09124 0.66664 0.12153 -0.53200
H 	H 	0.07940 0.64910 0.10080 0.23300
C 	C 	0.43060 0.40110 0.53750 0.33400
C 	C 	0.44450 0.43050 0.49570 -0.12300
C 	C 	0.41789 0.46922 0.48322 0.05000
H 	H 	0.39100 0.47760 0.50120 0.03400
C 	C 	0.42450 0.34780 0.66650 0.33000
C 	C 	0.40600 0.31960 0.70340 -0.63000
H 	H 	0.37310 0.32830 0.70910 0.20500
H 	H 	0.42440 0.32470 0.73210 0.18400
H 	H 	0.40770 0.28640 0.69440 0.20800
C 	C 	0.46800 0.32240 0.67350 -0.55000
H 	H 	0.49150 0.33330 0.65070 0.17700
H 	H 	0.46250 0.28870 0.66910 0.18300
H 	H 	0.47960 0.32810 0.70550 0.15400
C 	C 	0.25310 0.41060 0.57800 0.10000
H 	H 	0.24450 0.37850 0.58220 -0.01000
C 	C 	0.21980 0.44220 0.56620 -0.17000
H 	H 	0.18860 0.43110 0.56150 0.08900
C 	C 	0.22750 0.48520 0.56090 0.09600
H 	H 	0.20290 0.50670 0.55350 0.01400
C 	C 	0.27350 0.49990 0.56640 -0.14400
H 	H 	0.28110 0.53230 0.56220 0.08000
C 	C 	0.30870 0.46850 0.57790 0.09000
H 	H 	0.34030 0.47910 0.58140 0.00500
N 	N 	0.29813 0.42350 0.58387 -0.22900
O 	O 	0.39196 0.41198 0.55662 -0.42000
O 	O 	0.45751 0.36913 0.55156 -0.31100
O 	O 	0.40876 0.33336 0.62153 -0.53200
H 	H 	0.42060 0.35090 0.60080 0.23300
C 	C 	0.56940 0.90110 0.96250 0.33400
C 	C 	0.55550 0.93050 0.00430 -0.12300
C 	C 	0.58211 0.96922 0.01678 0.05000
H 	H 	0.60900 0.97760 0.99880 0.03400
C 	C 	0.57550 0.84780 0.83350 0.33000
C 	C 	0.59400 0.81960 0.79660 -0.63000
H 	H 	0.62690 0.82830 0.79090 0.20500
H 	H 	0.57560 0.82470 0.76790 0.18400
H 	H 	0.59230 0.78640 0.80560 0.20800
C 	C 	0.53200 0.82240 0.82650 -0.55000
H 	H 	0.50850 0.83330 0.84930 0.17700
H 	H 	0.53750 0.78870 0.83090 0.18300
H 	H 	0.52040 0.82810 0.79450 0.15400
C 	C 	0.74690 0.91060 0.92200 0.10000
H 	H 	0.75550 0.87850 0.91780 -0.01000
C 	C 	0.78020 0.94220 0.93380 -0.17000
H 	H 	0.81140 0.93110 0.93850 0.08900
C 	C 	0.77250 0.98520 0.93910 0.09600
H 	H 	0.79710 0.00670 0.94650 0.01400
C 	C 	0.72650 0.99990 0.93360 -0.14400
H 	H 	0.71890 0.03230 0.93780 0.08000
C 	C 	0.69130 0.96850 0.92210 0.09000
H 	H 	0.65970 0.97910 0.91860 0.00500
N 	N 	0.70187 0.92350 0.91613 -0.22900
O 	O 	0.60804 0.91198 0.94338 -0.42000
O 	O 	0.54249 0.86913 0.94844 -0.31100
O 	O 	0.59124 0.83336 0.87847 -0.53200
H 	H 	0.57940 0.85090 0.89920 0.23300
C 	C 	0.18060 0.21250 0.65110 0.33400
C 	C 	0.19450 0.25430 0.68050 -0.12300
C 	C 	0.16789 0.26678 0.71922 0.05000
H 	H 	0.14100 0.24880 0.72760 0.03400
C 	C 	0.17450 0.08350 0.59780 0.33000
C 	C 	0.15600 0.04660 0.56960 -0.63000
H 	H 	0.12310 0.04090 0.57830 0.20500
H 	H 	0.17440 0.01790 0.57470 0.18400
H 	H 	0.15770 0.05560 0.53640 0.20800
C 	C 	0.21800 0.07650 0.57240 -0.55000
H 	H 	0.24150 0.09930 0.58330 0.17700
H 	H 	0.21250 0.08090 0.53870 0.18300
H 	H 	0.22960 0.04450 0.57810 0.15400
C 	C 	0.00310 0.17200 0.66060 0.10000
H 	H 	0.99450 0.16780 0.62850 -0.01000
C 	C 	0.96980 0.18380 0.69220 -0.17000
H 	H 	0.93860 0.18850 0.68110 0.08900
C 	C 	0.97750 0.18910 0.73520 0.09700
H 	H 	0.95290 0.19650 0.75670 0.01400
C 	C 	0.02350 0.18360 0.74990 -0.14400
H 	H 	0.03110 0.18780 0.78230 0.08000
C 	C 	0.05870 0.17210 0.71850 0.09000
H 	H 	0.09030 0.16860 0.72910 0.00500
N 	N 	0.04813 0.16613 0.67350 -0.22900
O 	O 	0.14196 0.19338 0.66198 -0.42000
O 	O 	0.20751 0.19844 0.61913 -0.31100
O 	O 	0.15876 0.12847 0.58336 -0.53200
H 	H 	0.17060 0.14920 0.60090 0.23300
C 	C 	0.31940 0.78750 0.15110 0.33400
C 	C 	0.30550 0.74570 0.18050 -0.12300
C 	C 	0.33211 0.73322 0.21922 0.05000
H 	H 	0.35900 0.75120 0.22760 0.03400
C 	C 	0.32550 0.91650 0.09780 0.33000
C 	C 	0.34400 0.95340 0.06960 -0.63000
H 	H 	0.37690 0.95910 0.07830 0.20500
H 	H 	0.32560 0.98210 0.07470 0.18400
H 	H 	0.34230 0.94440 0.03640 0.20800
C 	C 	0.28200 0.92350 0.07240 -0.55000
H 	H 	0.25850 0.90070 0.08330 0.17700
H 	H 	0.28750 0.91910 0.03870 0.18300
H 	H 	0.27040 0.95550 0.07810 0.15400
C 	C 	0.49690 0.82800 0.16060 0.10000
H 	H 	0.50550 0.83220 0.12850 -0.01000
C 	C 	0.53020 0.81620 0.19220 -0.17000
H 	H 	0.56140 0.81150 0.18110 0.08900
C 	C 	0.52250 0.81090 0.23520 0.09600
H 	H 	0.54710 0.80350 0.25670 0.01400
C 	C 	0.47650 0.81640 0.24990 -0.14400
H 	H 	0.46890 0.81220 0.28230 0.08000
C 	C 	0.44130 0.82790 0.21850 0.09000
H 	H 	0.40970 0.83140 0.22910 0.00500
N 	N 	0.45187 0.83387 0.17350 -0.22900
O 	O 	0.35804 0.80662 0.16198 -0.42000
O 	O 	0.29249 0.80156 0.11913 -0.31100
O 	O 	0.34124 0.87153 0.08336 -0.53200
H 	H 	0.32940 0.85080 0.10090 0.23300
C 	C 	0.68060 0.28750 0.34890 0.33400
C 	C 	0.69450 0.24570 0.31950 -0.12300
C 	C 	0.66789 0.23322 0.28078 0.05000
H 	H 	0.64100 0.25120 0.27240 0.03400
C 	C 	0.67450 0.41650 0.40220 0.33000
C 	C 	0.65600 0.45340 0.43040 -0.63000
H 	H 	0.62310 0.45910 0.42170 0.20500
H 	H 	0.67440 0.48210 0.42530 0.18400
H 	H 	0.65770 0.44440 0.46360 0.20800
C 	C 	0.71800 0.42350 0.42760 -0.55000
H 	H 	0.74150 0.40070 0.41670 0.17700
H 	H 	0.71250 0.41910 0.46130 0.18300
H 	H 	0.72960 0.45550 0.42190 0.15400
C 	C 	0.50310 0.32800 0.33940 0.10000
H 	H 	0.49450 0.33220 0.37150 -0.01000
C 	C 	0.46980 0.31620 0.30780 -0.17000
H 	H 	0.43860 0.31150 0.31890 0.08900
C 	C 	0.47750 0.31090 0.26480 0.09600
H 	H 	0.45290 0.30350 0.24330 0.01400
C 	C 	0.52350 0.31640 0.25010 -0.14400
H 	H 	0.53110 0.31220 0.21770 0.08000
C 	C 	0.55870 0.32790 0.28150 0.09000
H 	H 	0.59030 0.33140 0.27090 0.00500
N 	N 	0.54813 0.33387 0.32650 -0.22900
O 	O 	0.64196 0.30662 0.33802 -0.42000
O 	O 	0.70751 0.30156 0.38087 -0.31100
O 	O 	0.65876 0.37153 0.41664 -0.53200
H 	H 	0.67060 0.35080 0.39910 0.23300
C 	C 	0.81940 0.71250 0.84890 0.33400
C 	C 	0.80550 0.75430 0.81950 -0.12300
C 	C 	0.83211 0.76678 0.78078 0.05000
H 	H 	0.85900 0.74880 0.77240 0.03400
C 	C 	0.82550 0.58350 0.90220 0.33000
C 	C 	0.84400 0.54660 0.93040 -0.62900
H 	H 	0.87690 0.54090 0.92170 0.20500
H 	H 	0.82560 0.51790 0.92530 0.18400
H 	H 	0.84230 0.55560 0.96360 0.20800
C 	C 	0.78200 0.57650 0.92760 -0.55000
H 	H 	0.75850 0.59930 0.91670 0.17700
H 	H 	0.78750 0.58090 0.96130 0.18300
H 	H 	0.77040 0.54450 0.92190 0.15400
C 	C 	0.99690 0.67200 0.83940 0.10000
H 	H 	0.00550 0.66780 0.87150 -0.01000
C 	C 	0.03020 0.68380 0.80780 -0.17000
H 	H 	0.06140 0.68850 0.81890 0.08900
C 	C 	0.02250 0.68910 0.76480 0.09600
H 	H 	0.04710 0.69650 0.74330 0.01400
C 	C 	0.97650 0.68360 0.75010 -0.14400
H 	H 	0.96890 0.68780 0.71770 0.08000
C 	C 	0.94130 0.67210 0.78150 0.09000
H 	H 	0.90970 0.66860 0.77090 0.00500
N 	N 	0.95187 0.66613 0.82650 -0.22900
O 	O 	0.85804 0.69338 0.83802 -0.42000
O 	O 	0.79249 0.69844 0.88087 -0.31100
O 	O 	0.84124 0.62847 0.91664 -0.53200
H 	H 	0.82940 0.64920 0.89910 0.23300
C 	C 	0.71250 0.84890 0.81940 0.33400
C 	C 	0.75430 0.81950 0.80550 -0.12300
C 	C 	0.76678 0.78078 0.83211 0.05000
H 	H 	0.74880 0.77240 0.85900 0.03400
C 	C 	0.58350 0.90220 0.82550 0.33000
C 	C 	0.54660 0.93040 0.84400 -0.62900
H 	H 	0.54090 0.92170 0.87690 0.20500
H 	H 	0.51790 0.92530 0.82560 0.18400
H 	H 	0.55560 0.96360 0.84230 0.20800
C 	C 	0.57650 0.92760 0.78200 -0.55000
H 	H 	0.59930 0.91670 0.75850 0.17700
H 	H 	0.58090 0.96130 0.78750 0.18300
H 	H 	0.54450 0.92190 0.77040 0.15400
C 	C 	0.67200 0.83940 0.99690 0.10000
H 	H 	0.66780 0.87150 0.00550 -0.01000
C 	C 	0.68380 0.80780 0.03020 -0.17000
H 	H 	0.68850 0.81890 0.06140 0.08900
C 	C 	0.68910 0.76480 0.02250 0.09600
H 	H 	0.69650 0.74330 0.04710 0.01400
C 	C 	0.68360 0.75010 0.97650 -0.14400
H 	H 	0.68780 0.71770 0.96890 0.08000
C 	C 	0.67210 0.78150 0.94130 0.09000
H 	H 	0.66860 0.77090 0.90970 0.00500
N 	N 	0.66613 0.82650 0.95187 -0.22900
O 	O 	0.69338 0.83802 0.85804 -0.42000
O 	O 	0.69844 0.88087 0.79249 -0.31100
O 	O 	0.62847 0.91664 0.84124 -0.53200
H 	H 	0.64920 0.89910 0.82940 0.23300
C 	C 	0.28750 0.34890 0.68060 0.33400
C 	C 	0.24570 0.31950 0.69450 -0.12300
C 	C 	0.23322 0.28078 0.66789 0.05000
H 	H 	0.25120 0.27240 0.64100 0.03400
C 	C 	0.41650 0.40220 0.67450 0.33000
C 	C 	0.45340 0.43040 0.65600 -0.63000
H 	H 	0.45910 0.42170 0.62310 0.20500
H 	H 	0.48210 0.42530 0.67440 0.18400
H 	H 	0.44440 0.46360 0.65770 0.20800
C 	C 	0.42350 0.42760 0.71800 -0.55000
H 	H 	0.40070 0.41670 0.74150 0.17700
H 	H 	0.41910 0.46130 0.71250 0.18300
H 	H 	0.45550 0.42190 0.72960 0.15400
C 	C 	0.32800 0.33940 0.50310 0.10000
H 	H 	0.33220 0.37150 0.49450 -0.01000
C 	C 	0.31620 0.30780 0.46980 -0.17000
H 	H 	0.31150 0.31890 0.43860 0.08900
C 	C 	0.31090 0.26480 0.47750 0.09600
H 	H 	0.30350 0.24330 0.45290 0.01400
C 	C 	0.31640 0.25010 0.52350 -0.14400
H 	H 	0.31220 0.21770 0.53110 0.08000
C 	C 	0.32790 0.28150 0.55870 0.09000
H 	H 	0.33140 0.27090 0.59030 0.00500
N 	N 	0.33387 0.32650 0.54813 -0.22900
O 	O 	0.30662 0.33802 0.64196 -0.42000
O 	O 	0.30156 0.38087 0.70751 -0.31100
O 	O 	0.37153 0.41664 0.65876 -0.53200
H 	H 	0.35080 0.39910 0.67060 0.23300
C 	C 	0.78750 0.15110 0.31940 0.33400
C 	C 	0.74570 0.18050 0.30550 -0.12300
C 	C 	0.73322 0.21922 0.33211 0.05000
H 	H 	0.75120 0.22760 0.35900 0.03400
C 	C 	0.91650 0.09780 0.32550 0.33000
C 	C 	0.95340 0.06960 0.34400 -0.63000
H 	H 	0.95910 0.07830 0.37690 0.20500
H 	H 	0.98210 0.07470 0.32560 0.18400
H 	H 	0.94440 0.03640 0.34230 0.20800
C 	C 	0.92350 0.07240 0.28200 -0.55000
H 	H 	0.90070 0.08330 0.25850 0.17700
H 	H 	0.91910 0.03870 0.28750 0.18300
H 	H 	0.95550 0.07810 0.27040 0.15400
C 	C 	0.82800 0.16060 0.49690 0.10000
H 	H 	0.83220 0.12850 0.50550 -0.01000
C 	C 	0.81620 0.19220 0.53020 -0.17000
H 	H 	0.81150 0.18110 0.56140 0.08900
C 	C 	0.81090 0.23520 0.52250 0.09600
H 	H 	0.80350 0.25670 0.54710 0.01400
C 	C 	0.81640 0.24990 0.47650 -0.14400
H 	H 	0.81220 0.28230 0.46890 0.08000
C 	C 	0.82790 0.21850 0.44130 0.09000
H 	H 	0.83140 0.22910 0.40970 0.00500
N 	N 	0.83387 0.17350 0.45187 -0.22900
O 	O 	0.80662 0.16198 0.35804 -0.42000
O 	O 	0.80156 0.11913 0.29249 -0.31100
O 	O 	0.87153 0.08336 0.34124 -0.53200
H 	H 	0.85080 0.10090 0.32940 0.23300
C 	C 	0.21250 0.65110 0.18060 0.33400
C 	C 	0.25430 0.68050 0.19450 -0.12300
C 	C 	0.26678 0.71922 0.16789 0.05000
H 	H 	0.24880 0.72760 0.14100 0.03400
C 	C 	0.08350 0.59780 0.17450 0.33000
C 	C 	0.04660 0.56960 0.15600 -0.63000
H 	H 	0.04090 0.57830 0.12310 0.20500
H 	H 	0.01790 0.57470 0.17440 0.18400
H 	H 	0.05560 0.53640 0.15770 0.20800
C 	C 	0.07650 0.57240 0.21800 -0.55000
H 	H 	0.09930 0.58330 0.24150 0.17700
H 	H 	0.08090 0.53870 0.21250 0.18300
H 	H 	0.04450 0.57810 0.22960 0.15400
C 	C 	0.17200 0.66060 0.00310 0.10000
H 	H 	0.16780 0.62850 0.99450 -0.01000
C 	C 	0.18380 0.69220 0.96980 -0.17000
H 	H 	0.18850 0.68110 0.93860 0.08900
C 	C 	0.18910 0.73520 0.97750 0.09700
H 	H 	0.19650 0.75670 0.95290 0.01400
C 	C 	0.18360 0.74990 0.02350 -0.14400
H 	H 	0.18780 0.78230 0.03110 0.08000
C 	C 	0.17210 0.71850 0.05870 0.09000
H 	H 	0.16860 0.72910 0.09030 0.00500
N 	N 	0.16613 0.67350 0.04813 -0.22900
O 	O 	0.19338 0.66198 0.14196 -0.42000
O 	O 	0.19844 0.61913 0.20751 -0.31100
O 	O 	0.12847 0.58336 0.15876 -0.53200
H 	H 	0.14920 0.60090 0.17060 0.23300
C 	C 	0.34890 0.68060 0.28750 0.33400
C 	C 	0.31950 0.69450 0.24570 -0.12300
C 	C 	0.28078 0.66789 0.23322 0.05000
H 	H 	0.27240 0.64100 0.25120 0.03400
C 	C 	0.40220 0.67450 0.41650 0.33000
C 	C 	0.43040 0.65600 0.45340 -0.63000
H 	H 	0.42170 0.62310 0.45910 0.20500
H 	H 	0.42530 0.67440 0.48210 0.18400
H 	H 	0.46360 0.65770 0.44440 0.20800
C 	C 	0.42760 0.71800 0.42350 -0.55000
H 	H 	0.41670 0.74150 0.40070 0.17700
H 	H 	0.46130 0.71250 0.41910 0.18300
H 	H 	0.42190 0.72960 0.45550 0.15400
C 	C 	0.33940 0.50310 0.32800 0.10000
H 	H 	0.37150 0.49450 0.33220 -0.01000
C 	C 	0.30780 0.46980 0.31620 -0.17000
H 	H 	0.31890 0.43860 0.31150 0.08900
C 	C 	0.26480 0.47750 0.31090 0.09600
H 	H 	0.24330 0.45290 0.30350 0.01400
C 	C 	0.25010 0.52350 0.31640 -0.14400
H 	H 	0.21770 0.53110 0.31220 0.08000
C 	C 	0.28150 0.55870 0.32790 0.09000
H 	H 	0.27090 0.59030 0.33140 0.00500
N 	N 	0.32650 0.54813 0.33387 -0.22900
O 	O 	0.33802 0.64196 0.30662 -0.42000
O 	O 	0.38087 0.70751 0.30156 -0.31100
O 	O 	0.41664 0.65876 0.37153 -0.53200
H 	H 	0.39910 0.67060 0.35080 0.23300
C 	C 	0.84890 0.81940 0.71250 0.33400
C 	C 	0.81950 0.80550 0.75430 -0.12300
C 	C 	0.78078 0.83211 0.76678 0.05000
H 	H 	0.77240 0.85900 0.74880 0.03400
C 	C 	0.90220 0.82550 0.58350 0.33000
C 	C 	0.93040 0.84400 0.54660 -0.62900
H 	H 	0.92170 0.87690 0.54090 0.20500
H 	H 	0.92530 0.82560 0.51790 0.18400
H 	H 	0.96360 0.84230 0.55560 0.20800
C 	C 	0.92760 0.78200 0.57650 -0.55000
H 	H 	0.91670 0.75850 0.59930 0.17700
H 	H 	0.96130 0.78750 0.58090 0.18300
H 	H 	0.92190 0.77040 0.54450 0.15400
C 	C 	0.83940 0.99690 0.67200 0.10000
H 	H 	0.87150 0.00550 0.66780 -0.01000
C 	C 	0.80780 0.03020 0.68380 -0.17000
H 	H 	0.81890 0.06140 0.68850 0.08900
C 	C 	0.76480 0.02250 0.68910 0.09600
H 	H 	0.74330 0.04710 0.69650 0.01400
C 	C 	0.75010 0.97650 0.68360 -0.14400
H 	H 	0.71770 0.96890 0.68780 0.08000
C 	C 	0.78150 0.94130 0.67210 0.09000
H 	H 	0.77090 0.90970 0.66860 0.00500
N 	N 	0.82650 0.95187 0.66613 -0.22900
O 	O 	0.83802 0.85804 0.69338 -0.42000
O 	O 	0.88087 0.79249 0.69844 -0.31100
O 	O 	0.91664 0.84124 0.62847 -0.53200
H 	H 	0.89910 0.82940 0.64920 0.23300
C 	C 	0.65110 0.18060 0.21250 0.33400
C 	C 	0.68050 0.19450 0.25430 -0.12300
C 	C 	0.71922 0.16789 0.26678 0.05000
H 	H 	0.72760 0.14100 0.24880 0.03400
C 	C 	0.59780 0.17450 0.08350 0.33000
C 	C 	0.56960 0.15600 0.04660 -0.63000
H 	H 	0.57830 0.12310 0.04090 0.20500
H 	H 	0.57470 0.17440 0.01790 0.18400
H 	H 	0.53640 0.15770 0.05560 0.20800
C 	C 	0.57240 0.21800 0.07650 -0.55000
H 	H 	0.58330 0.24150 0.09930 0.17700
H 	H 	0.53870 0.21250 0.08090 0.18300
H 	H 	0.57810 0.22960 0.04450 0.15400
C 	C 	0.66060 0.00310 0.17200 0.10000
H 	H 	0.62850 0.99450 0.16780 -0.01000
C 	C 	0.69220 0.96980 0.18380 -0.17000
H 	H 	0.68110 0.93860 0.18850 0.08900
C 	C 	0.73520 0.97750 0.18910 0.09700
H 	H 	0.75670 0.95290 0.19650 0.01400
C 	C 	0.74990 0.02350 0.18360 -0.14400
H 	H 	0.78230 0.03110 0.18780 0.08000
C 	C 	0.71850 0.05870 0.17210 0.09000
H 	H 	0.72910 0.09030 0.16860 0.00500
N 	N 	0.67350 0.04813 0.16613 -0.22900
O 	O 	0.66198 0.14196 0.19338 -0.42000
O 	O 	0.61913 0.20751 0.19844 -0.31100
O 	O 	0.58336 0.15876 0.12847 -0.53200
H 	H 	0.60090 0.17060 0.14920 0.23300
C 	C 	0.15110 0.31940 0.78750 0.33400
C 	C 	0.18050 0.30550 0.74570 -0.12300
C 	C 	0.21922 0.33211 0.73322 0.05000
H 	H 	0.22760 0.35900 0.75120 0.03400
C 	C 	0.09780 0.32550 0.91650 0.33000
C 	C 	0.06960 0.34400 0.95340 -0.63000
H 	H 	0.07830 0.37690 0.95910 0.20500
H 	H 	0.07470 0.32560 0.98210 0.18400
H 	H 	0.03640 0.34230 0.94440 0.20800
C 	C 	0.07240 0.28200 0.92350 -0.55000
H 	H 	0.08330 0.25850 0.90070 0.17700
H 	H 	0.03870 0.28750 0.91910 0.18300
H 	H 	0.07810 0.27040 0.95550 0.15400
C 	C 	0.16060 0.49690 0.82800 0.10000
H 	H 	0.12850 0.50550 0.83220 -0.01000
C 	C 	0.19220 0.53020 0.81620 -0.17000
H 	H 	0.18110 0.56140 0.81150 0.08900
C 	C 	0.23520 0.52250 0.81090 0.09600
H 	H 	0.25670 0.54710 0.80350 0.01400
C 	C 	0.24990 0.47650 0.81640 -0.14400
H 	H 	0.28230 0.46890 0.81220 0.08000
C 	C 	0.21850 0.44130 0.82790 0.09000
H 	H 	0.22910 0.40970 0.83140 0.00500
N 	N 	0.17350 0.45187 0.83387 -0.22900
O 	O 	0.16198 0.35804 0.80662 -0.42000
O 	O 	0.11913 0.29249 0.80156 -0.31100
O 	O 	0.08336 0.34124 0.87153 -0.53200
H 	H 	0.10090 0.32940 0.85080 0.23300
Ni	Ni	0.39900 0.85100 0.12500 1.10600
Ni	Ni	0.10100 0.14900 0.62500 1.10600
Ni	Ni	0.60100 0.35100 0.37500 1.10600
Ni	Ni	0.89900 0.64900 0.87500 1.10600
Ni	Ni	0.12500 0.39900 0.85100 1.10600
Ni	Ni	0.62500 0.10100 0.14900 1.10600
Ni	Ni	0.37500 0.60100 0.35100 1.10600
Ni	Ni	0.87500 0.89900 0.64900 1.10600
Ni	Ni	0.85100 0.12500 0.39900 1.10600
Ni	Ni	0.14900 0.62500 0.10100 1.10600
Ni	Ni	0.35100 0.37500 0.60100 1.10600
Ni	Ni	0.64900 0.87500 0.89900 1.10600
C 	C 	0.96250 0.43060 0.59890 0.33400
C 	C 	0.00430 0.44450 0.56950 -0.12300
C 	C 	0.01678 0.41789 0.53078 0.05000
H 	H 	0.99880 0.39100 0.52240 0.03400
C 	C 	0.83350 0.42450 0.65220 0.33000
C 	C 	0.79660 0.40600 0.68040 -0.63000
H 	H 	0.79090 0.37310 0.67170 0.20500
H 	H 	0.76790 0.42440 0.67530 0.18400
H 	H 	0.80560 0.40770 0.71360 0.20800
C 	C 	0.82650 0.46800 0.67760 -0.55000
H 	H 	0.84930 0.49150 0.66670 0.17700
H 	H 	0.83090 0.46250 0.71130 0.18300
H 	H 	0.79450 0.47960 0.67190 0.15400
C 	C 	0.92200 0.25310 0.58940 0.10000
H 	H 	0.91780 0.24450 0.62150 -0.01000
C 	C 	0.93380 0.21980 0.55780 -0.17000
H 	H 	0.93850 0.18860 0.56890 0.08900
C 	C 	0.93910 0.22750 0.51480 0.09600
H 	H 	0.94650 0.20290 0.49330 0.01400
C 	C 	0.93360 0.27350 0.50010 -0.14400
H 	H 	0.93780 0.28110 0.46770 0.08000
C 	C 	0.92210 0.30870 0.53150 0.09000
H 	H 	0.91860 0.34030 0.52090 0.00500
N 	N 	0.91613 0.29813 0.57650 -0.22900
O 	O 	0.94338 0.39196 0.58802 -0.42000
O 	O 	0.94844 0.45751 0.63087 -0.31100
O 	O 	0.87847 0.40876 0.66664 -0.53200
H 	H 	0.89920 0.42060 0.64910 0.23300
C 	C 	0.53750 0.56940 0.09890 0.33400
C 	C 	0.49570 0.55550 0.06950 -0.12300
C 	C 	0.48322 0.58211 0.03078 0.05000
H 	H 	0.50120 0.60900 0.02240 0.03400
C 	C 	0.66650 0.57550 0.15220 0.33000
C 	C 	0.70340 0.59400 0.18040 -0.63000
H 	H 	0.70910 0.62690 0.17170 0.20500
H 	H 	0.73210 0.57560 0.17530 0.18400
H 	H 	0.69440 0.59230 0.21360 0.20800
C 	C 	0.67350 0.53200 0.17760 -0.55000
H 	H 	0.65070 0.50850 0.16670 0.17700
H 	H 	0.66910 0.53750 0.21130 0.18300
H 	H 	0.70550 0.52040 0.17190 0.15400
C 	C 	0.57800 0.74690 0.08940 0.10000
H 	H 	0.58220 0.75550 0.12150 -0.01000
C 	C 	0.56620 0.78020 0.05780 -0.17000
H 	H 	0.56150 0.81140 0.06890 0.08900
C 	C 	0.56090 0.77250 0.01480 0.09700
H 	H 	0.55350 0.79710 0.99330 0.01400
C 	C 	0.56640 0.72650 0.00010 -0.14400
H 	H 	0.56220 0.71890 0.96770 0.08000
C 	C 	0.57790 0.69130 0.03150 0.09000
H 	H 	0.58140 0.65970 0.02090 0.00500
N 	N 	0.58387 0.70187 0.07650 -0.22900
O 	O 	0.55662 0.60804 0.08802 -0.42000
O 	O 	0.55156 0.54249 0.13087 -0.31100
O 	O 	0.62153 0.59124 0.16664 -0.53200
H 	H 	0.60080 0.57940 0.14910 0.23300
C 	C 	0.03750 0.93060 0.90110 0.33400
C 	C 	0.99570 0.94450 0.93050 -0.12300
C 	C 	0.98322 0.91789 0.96922 0.05000
H 	H 	0.00120 0.89100 0.97760 0.03400
C 	C 	0.16650 0.92450 0.84780 0.33000
C 	C 	0.20340 0.90600 0.81960 -0.63000
H 	H 	0.20910 0.87310 0.82830 0.20500
H 	H 	0.23210 0.92440 0.82470 0.18400
H 	H 	0.19440 0.90770 0.78640 0.20800
C 	C 	0.17350 0.96800 0.82240 -0.55000
H 	H 	0.15070 0.99150 0.83330 0.17700
H 	H 	0.16910 0.96250 0.78870 0.18300
H 	H 	0.20550 0.97960 0.82810 0.15400
C 	C 	0.07800 0.75310 0.91060 0.10000
H 	H 	0.08220 0.74450 0.87850 -0.01000
C 	C 	0.06620 0.71980 0.94220 -0.17000
H 	H 	0.06150 0.68860 0.93110 0.08900
C 	C 	0.06090 0.72750 0.98520 0.09600
H 	H 	0.05350 0.70290 0.00670 0.01400
C 	C 	0.06640 0.77350 0.99990 -0.14400
H 	H 	0.06220 0.78110 0.03230 0.08000
C 	C 	0.07790 0.80870 0.96850 0.09000
H 	H 	0.08140 0.84030 0.97910 0.00500
N 	N 	0.08387 0.79813 0.92350 -0.22900
O 	O 	0.05662 0.89196 0.91198 -0.42000
O 	O 	0.05156 0.95751 0.86913 -0.31100
O 	O 	0.12153 0.90876 0.83336 -0.53200
H 	H 	0.10080 0.92060 0.85090 0.23300
C 	C 	0.46250 0.06940 0.40110 0.33400
C 	C 	0.50430 0.05550 0.43050 -0.12400
C 	C 	0.51678 0.08211 0.46922 0.05000
H 	H 	0.49880 0.10900 0.47760 0.03400
C 	C 	0.33350 0.07550 0.34780 0.33000
C 	C 	0.29660 0.09400 0.31960 -0.63000
H 	H 	0.29090 0.12690 0.32830 0.20500
H 	H 	0.26790 0.07560 0.32470 0.18400
H 	H 	0.30560 0.09230 0.28640 0.20800
C 	C 	0.32650 0.03200 0.32240 -0.55000
H 	H 	0.34930 0.00850 0.33330 0.17700
H 	H 	0.33090 0.03750 0.28870 0.18300
H 	H 	0.29450 0.02040 0.32810 0.15400
C 	C 	0.42200 0.24690 0.41060 0.10000
H 	H 	0.41780 0.25550 0.37850 -0.01000
C 	C 	0.43380 0.28020 0.44220 -0.17000
H 	H 	0.43850 0.31140 0.43110 0.08900
C 	C 	0.43910 0.27250 0.48520 0.09600
H 	H 	0.44650 0.29710 0.50670 0.01400
C 	C 	0.43360 0.22650 0.49990 -0.14400
H 	H 	0.43780 0.21890 0.53230 0.08000
C 	C 	0.42210 0.19130 0.46850 0.09000
H 	H 	0.41860 0.15970 0.47910 0.00500
N 	N 	0.41613 0.20187 0.42350 -0.22900
O 	O 	0.44338 0.10804 0.41198 -0.42000
O 	O 	0.44844 0.04249 0.36913 -0.31100
O 	O 	0.37847 0.09124 0.33336 -0.53200
H 	H 	0.39920 0.07940 0.35090 0.23300
C 	C 	0.59890 0.96250 0.43060 0.33400
C 	C 	0.56950 0.00430 0.44450 -0.12300
C 	C 	0.53078 0.01678 0.41789 0.05000
H 	H 	0.52240 0.99880 0.39100 0.03400
C 	C 	0.65220 0.83350 0.42450 0.33000
C 	C 	0.68040 0.79660 0.40600 -0.63000
H 	H 	0.67170 0.79090 0.37310 0.20500
H 	H 	0.67530 0.76790 0.42440 0.18400
H 	H 	0.71360 0.80560 0.40770 0.20800
C 	C 	0.67760 0.82650 0.46800 -0.55000
H 	H 	0.66670 0.84930 0.49150 0.17700
H 	H 	0.71130 0.83090 0.46250 0.18300
H 	H 	0.67190 0.79450 0.47960 0.15400
C 	C 	0.58940 0.92200 0.25310 0.10000
H 	H 	0.62150 0.91780 0.24450 -0.01000
C 	C 	0.55780 0.93380 0.21980 -0.17000
H 	H 	0.56890 0.93850 0.18860 0.08900
C 	C 	0.51480 0.93910 0.22750 0.09600
H 	H 	0.49330 0.94650 0.20290 0.01400
C 	C 	0.50010 0.93360 0.27350 -0.14400
H 	H 	0.46770 0.93780 0.28110 0.08000
C 	C 	0.53150 0.92210 0.30870 0.09000
H 	H 	0.52090 0.91860 0.34030 0.00500
N 	N 	0.57650 0.91613 0.29813 -0.22900
O 	O 	0.58802 0.94338 0.39196 -0.42000
O 	O 	0.63087 0.94844 0.45751 -0.31100
O 	O 	0.66664 0.87847 0.40876 -0.53200
H 	H 	0.64910 0.89920 0.42060 0.23300
C 	C 	0.09890 0.53750 0.56940 0.33400
C 	C 	0.06950 0.49570 0.55550 -0.12300
C 	C 	0.03078 0.48322 0.58211 0.05000
H 	H 	0.02240 0.50120 0.60900 0.03400
C 	C 	0.15220 0.66650 0.57550 0.33000
C 	C 	0.18040 0.70340 0.59400 -0.63000
H 	H 	0.17170 0.70910 0.62690 0.20500
H 	H 	0.17530 0.73210 0.57560 0.18400
H 	H 	0.21360 0.69440 0.59230 0.20800
C 	C 	0.17760 0.67350 0.53200 -0.55000
H 	H 	0.16670 0.65070 0.50850 0.17700
H 	H 	0.21130 0.66910 0.53750 0.18300
H 	H 	0.17190 0.70550 0.52040 0.15400
C 	C 	0.08940 0.57800 0.74690 0.10000
H 	H 	0.12150 0.58220 0.75550 -0.01000
C 	C 	0.05780 0.56620 0.78020 -0.17000
H 	H 	0.06890 0.56150 0.81140 0.08900
C 	C 	0.01480 0.56090 0.77250 0.09700
H 	H 	0.99330 0.55350 0.79710 0.01400
C 	C 	0.00010 0.56640 0.72650 -0.14400
H 	H 	0.96770 0.56220 0.71890 0.08000
C 	C 	0.03150 0.57790 0.69130 0.09000
H 	H 	0.02090 0.58140 0.65970 0.00500
N 	N 	0.07650 0.58387 0.70187 -0.22900
O 	O 	0.08802 0.55662 0.60804 -0.42000
O 	O 	0.13087 0.55156 0.54249 -0.31100
O 	O 	0.16664 0.62153 0.59124 -0.53200
H 	H 	0.14910 0.60080 0.57940 0.23300
C 	C 	0.90110 0.03750 0.93060 0.33400
C 	C 	0.93050 0.99570 0.94450 -0.12300
C 	C 	0.96922 0.98322 0.91789 0.05000
H 	H 	0.97760 0.00120 0.89100 0.03400
C 	C 	0.84780 0.16650 0.92450 0.33000
C 	C 	0.81960 0.20340 0.90600 -0.63000
H 	H 	0.82830 0.20910 0.87310 0.20500
H 	H 	0.82470 0.23210 0.92440 0.18400
H 	H 	0.78640 0.19440 0.90770 0.20800
C 	C 	0.82240 0.17350 0.96800 -0.55000
H 	H 	0.83330 0.15070 0.99150 0.17700
H 	H 	0.78870 0.16910 0.96250 0.18300
H 	H 	0.82810 0.20550 0.97960 0.15400
C 	C 	0.91060 0.07800 0.75310 0.10000
H 	H 	0.87850 0.08220 0.74450 -0.01000
C 	C 	0.94220 0.06620 0.71980 -0.17000
H 	H 	0.93110 0.06150 0.68860 0.08900
C 	C 	0.98520 0.06090 0.72750 0.09600
H 	H 	0.00670 0.05350 0.70290 0.01400
C 	C 	0.99990 0.06640 0.77350 -0.14400
H 	H 	0.03230 0.06220 0.78110 0.08000
C 	C 	0.96850 0.07790 0.80870 0.09000
H 	H 	0.97910 0.08140 0.84030 0.00500
N 	N 	0.92350 0.08387 0.79813 -0.22900
O 	O 	0.91198 0.05662 0.89196 -0.42000
O 	O 	0.86913 0.05156 0.95751 -0.31100
O 	O 	0.83336 0.12153 0.90876 -0.53200
H 	H 	0.85090 0.10080 0.92060 0.23300
C 	C 	0.40110 0.46250 0.06940 0.33400
C 	C 	0.43050 0.50430 0.05550 -0.12400
C 	C 	0.46922 0.51678 0.08211 0.05000
H 	H 	0.47760 0.49880 0.10900 0.03400
C 	C 	0.34780 0.33350 0.07550 0.33000
C 	C 	0.31960 0.29660 0.09400 -0.63000
H 	H 	0.32830 0.29090 0.12690 0.20500
H 	H 	0.32470 0.26790 0.07560 0.18400
H 	H 	0.28640 0.30560 0.09230 0.20800
C 	C 	0.32240 0.32650 0.03200 -0.55000
H 	H 	0.33330 0.34930 0.00850 0.17700
H 	H 	0.28870 0.33090 0.03750 0.18300
H 	H 	0.32810 0.29450 0.02040 0.15400
C 	C 	0.41060 0.42200 0.24690 0.10000
H 	H 	0.37850 0.41780 0.25550 -0.01000
C 	C 	0.44220 0.43380 0.28020 -0.17000
H 	H 	0.43110 0.43850 0.31140 0.08900
C 	C 	0.48520 0.43910 0.27250 0.09600
H 	H 	0.50670 0.44650 0.29710 0.01400
C 	C 	0.49990 0.43360 0.22650 -0.14400
H 	H 	0.53230 0.43780 0.21890 0.08000
C 	C 	0.46850 0.42210 0.19130 0.09000
H 	H 	0.47910 0.41860 0.15970 0.00500
N 	N 	0.42350 0.41613 0.20187 -0.22900
O 	O 	0.41198 0.44338 0.10804 -0.42000
O 	O 	0.36913 0.44844 0.04249 -0.31100
O 	O 	0.33336 0.37847 0.09124 -0.53200
H 	H 	0.35090 0.39920 0.07940 0.23300
C 	C 	0.43060 0.59890 0.96250 0.33400
C 	C 	0.44450 0.56950 0.00430 -0.12300
C 	C 	0.41789 0.53078 0.01678 0.05000
H 	H 	0.39100 0.52240 0.99880 0.03400
C 	C 	0.42450 0.65220 0.83350 0.33000
C 	C 	0.40600 0.68040 0.79660 -0.63000
H 	H 	0.37310 0.67170 0.79090 0.20500
H 	H 	0.42440 0.67530 0.76790 0.18400
H 	H 	0.40770 0.71360 0.80560 0.20800
C 	C 	0.46800 0.67760 0.82650 -0.55000
H 	H 	0.49150 0.66670 0.84930 0.17700
H 	H 	0.46250 0.71130 0.83090 0.18300
H 	H 	0.47960 0.67190 0.79450 0.15400
C 	C 	0.25310 0.58940 0.92200 0.10000
H 	H 	0.24450 0.62150 0.91780 -0.01000
C 	C 	0.21980 0.55780 0.93380 -0.17000
H 	H 	0.18860 0.56890 0.93850 0.08900
C 	C 	0.22750 0.51480 0.93910 0.09600
H 	H 	0.20290 0.49330 0.94650 0.01400
C 	C 	0.27350 0.50010 0.93360 -0.14400
H 	H 	0.28110 0.46770 0.93780 0.08000
C 	C 	0.30870 0.53150 0.92210 0.09000
H 	H 	0.34030 0.52090 0.91860 0.00500
N 	N 	0.29813 0.57650 0.91613 -0.22900
O 	O 	0.39196 0.58802 0.94338 -0.42000
O 	O 	0.45751 0.63087 0.94844 -0.31100
O 	O 	0.40876 0.66664 0.87847 -0.53200
H 	H 	0.42060 0.64910 0.89920 0.23300
C 	C 	0.56940 0.09890 0.53750 0.33400
C 	C 	0.55550 0.06950 0.49570 -0.12300
C 	C 	0.58211 0.03078 0.48322 0.05000
H 	H 	0.60900 0.02240 0.50120 0.03400
C 	C 	0.57550 0.15220 0.66650 0.33000
C 	C 	0.59400 0.18040 0.70340 -0.63000
H 	H 	0.62690 0.17170 0.70910 0.20500
H 	H 	0.57560 0.17530 0.73210 0.18400
H 	H 	0.59230 0.21360 0.69440 0.20800
C 	C 	0.53200 0.17760 0.67350 -0.55000
H 	H 	0.50850 0.16670 0.65070 0.17700
H 	H 	0.53750 0.21130 0.66910 0.18300
H 	H 	0.52040 0.17190 0.70550 0.15400
C 	C 	0.74690 0.08940 0.57800 0.10000
H 	H 	0.75550 0.12150 0.58220 -0.01000
C 	C 	0.78020 0.05780 0.56620 -0.17000
H 	H 	0.81140 0.06890 0.56150 0.08900
C 	C 	0.77250 0.01480 0.56090 0.09700
H 	H 	0.79710 0.99330 0.55350 0.01400
C 	C 	0.72650 0.00010 0.56640 -0.14400
H 	H 	0.71890 0.96770 0.56220 0.08000
C 	C 	0.69130 0.03150 0.57790 0.09000
H 	H 	0.65970 0.02090 0.58140 0.00500
N 	N 	0.70187 0.07650 0.58387 -0.22900
O 	O 	0.60804 0.08802 0.55662 -0.42000
O 	O 	0.54249 0.13087 0.55156 -0.31100
O 	O 	0.59124 0.16664 0.62153 -0.53200
H 	H 	0.57940 0.14910 0.60080 0.23300
C 	C 	0.93060 0.90110 0.03750 0.33400
C 	C 	0.94450 0.93050 0.99570 -0.12300
C 	C 	0.91789 0.96922 0.98322 0.05000
H 	H 	0.89100 0.97760 0.00120 0.03400
C 	C 	0.92450 0.84780 0.16650 0.33000
C 	C 	0.90600 0.81960 0.20340 -0.63000
H 	H 	0.87310 0.82830 0.20910 0.20500
H 	H 	0.92440 0.82470 0.23210 0.18400
H 	H 	0.90770 0.78640 0.19440 0.20800
C 	C 	0.96800 0.82240 0.17350 -0.55000
H 	H 	0.99150 0.83330 0.15070 0.17700
H 	H 	0.96250 0.78870 0.16910 0.18300
H 	H 	0.97960 0.82810 0.20550 0.15400
C 	C 	0.75310 0.91060 0.07800 0.10000
H 	H 	0.74450 0.87850 0.08220 -0.01000
C 	C 	0.71980 0.94220 0.06620 -0.17000
H 	H 	0.68860 0.93110 0.06150 0.08900
C 	C 	0.72750 0.98520 0.06090 0.09600
H 	H 	0.70290 0.00670 0.05350 0.01400
C 	C 	0.77350 0.99990 0.06640 -0.14400
H 	H 	0.78110 0.03230 0.06220 0.08000
C 	C 	0.80870 0.96850 0.07790 0.09000
H 	H 	0.84030 0.97910 0.08140 0.00500
N 	N 	0.79813 0.92350 0.08387 -0.22900
O 	O 	0.89196 0.91198 0.05662 -0.42000
O 	O 	0.95751 0.86913 0.05156 -0.31100
O 	O 	0.90876 0.83336 0.12153 -0.53200
H 	H 	0.92060 0.85090 0.10080 0.23300
C 	C 	0.06940 0.40110 0.46250 0.33400
C 	C 	0.05550 0.43050 0.50430 -0.12400
C 	C 	0.08211 0.46922 0.51678 0.05000
H 	H 	0.10900 0.47760 0.49880 0.03400
C 	C 	0.07550 0.34780 0.33350 0.33000
C 	C 	0.09400 0.31960 0.29660 -0.63000
H 	H 	0.12690 0.32830 0.29090 0.20500
H 	H 	0.07560 0.32470 0.26790 0.18400
H 	H 	0.09230 0.28640 0.30560 0.20800
C 	C 	0.03200 0.32240 0.32650 -0.55000
H 	H 	0.00850 0.33330 0.34930 0.17700
H 	H 	0.03750 0.28870 0.33090 0.18300
H 	H 	0.02040 0.32810 0.29450 0.15400
C 	C 	0.24690 0.41060 0.42200 0.10000
H 	H 	0.25550 0.37850 0.41780 -0.01000
C 	C 	0.28020 0.44220 0.43380 -0.17000
H 	H 	0.31140 0.43110 0.43850 0.08900
C 	C 	0.27250 0.48520 0.43910 0.09600
H 	H 	0.29710 0.50670 0.44650 0.01400
C 	C 	0.22650 0.49990 0.43360 -0.14400
H 	H 	0.21890 0.53230 0.43780 0.08000
C 	C 	0.19130 0.46850 0.42210 0.09000
H 	H 	0.15970 0.47910 0.41860 0.00500
N 	N 	0.20187 0.42350 0.41613 -0.22900
O 	O 	0.10804 0.41198 0.44338 -0.42000
O 	O 	0.04249 0.36913 0.44844 -0.31100
O 	O 	0.09124 0.33336 0.37847 -0.53200
H 	H 	0.07940 0.35090 0.39920 0.23300
C 	C 	0.68060 0.71250 0.15110 0.33400
C 	C 	0.69450 0.75430 0.18050 -0.12300
C 	C 	0.66789 0.76678 0.21922 0.05000
H 	H 	0.64100 0.74880 0.22760 0.03400
C 	C 	0.67450 0.58350 0.09780 0.33000
C 	C 	0.65600 0.54660 0.06960 -0.63000
H 	H 	0.62310 0.54090 0.07830 0.20500
H 	H 	0.67440 0.51790 0.07470 0.18400
H 	H 	0.65770 0.55560 0.03640 0.20800
C 	C 	0.71800 0.57650 0.07240 -0.55000
H 	H 	0.74150 0.59930 0.08330 0.17700
H 	H 	0.71250 0.58090 0.03870 0.18300
H 	H 	0.72960 0.54450 0.07810 0.15400
C 	C 	0.50310 0.67200 0.16060 0.10000
H 	H 	0.49450 0.66780 0.12850 -0.01000
C 	C 	0.46980 0.68380 0.19220 -0.17000
H 	H 	0.43860 0.68850 0.18110 0.08900
C 	C 	0.47750 0.68910 0.23520 0.09600
H 	H 	0.45290 0.69650 0.25670 0.01400
C 	C 	0.52350 0.68360 0.24990 -0.14400
H 	H 	0.53110 0.68780 0.28230 0.08000
C 	C 	0.55870 0.67210 0.21850 0.09000
H 	H 	0.59030 0.66860 0.22910 0.00500
N 	N 	0.54813 0.66613 0.17350 -0.22900
O 	O 	0.64196 0.69338 0.16198 -0.42000
O 	O 	0.70751 0.69844 0.11913 -0.31100
O 	O 	0.65876 0.62847 0.08336 -0.53200
H 	H 	0.67060 0.64920 0.10090 0.23300
C 	C 	0.81940 0.28750 0.65110 0.33400
C 	C 	0.80550 0.24570 0.68050 -0.12300
C 	C 	0.83211 0.23322 0.71922 0.05000
H 	H 	0.85900 0.25120 0.72760 0.03400
C 	C 	0.82550 0.41650 0.59780 0.33000
C 	C 	0.84400 0.45340 0.56960 -0.63000
H 	H 	0.87690 0.45910 0.57830 0.20500
H 	H 	0.82560 0.48210 0.57470 0.18400
H 	H 	0.84230 0.44440 0.53640 0.20800
C 	C 	0.78200 0.42350 0.57240 -0.55000
H 	H 	0.75850 0.40070 0.58330 0.17700
H 	H 	0.78750 0.41910 0.53870 0.18300
H 	H 	0.77040 0.45550 0.57810 0.15400
C 	C 	0.99690 0.32800 0.66060 0.10000
H 	H 	0.00550 0.33220 0.62850 -0.01000
C 	C 	0.03020 0.31620 0.69220 -0.17000
H 	H 	0.06140 0.31150 0.68110 0.08900
C 	C 	0.02250 0.31090 0.73520 0.09600
H 	H 	0.04710 0.30350 0.75670 0.01400
C 	C 	0.97650 0.31640 0.74990 -0.14400
H 	H 	0.96890 0.31220 0.78230 0.08000
C 	C 	0.94130 0.32790 0.71850 0.09000
H 	H 	0.90970 0.33140 0.72910 0.00500
N 	N 	0.95187 0.33387 0.67350 -0.22900
O 	O 	0.85804 0.30662 0.66198 -0.42000
O 	O 	0.79249 0.30156 0.61913 -0.31100
O 	O 	0.84124 0.37153 0.58336 -0.53200
H 	H 	0.82940 0.35080 0.60090 0.23300
C 	C 	0.18060 0.78750 0.84890 0.33400
C 	C 	0.19450 0.74570 0.81950 -0.12300
C 	C 	0.16789 0.73322 0.78078 0.05000
H 	H 	0.14100 0.75120 0.77240 0.03400
C 	C 	0.17450 0.91650 0.90220 0.33000
C 	C 	0.15600 0.95340 0.93040 -0.62900
H 	H 	0.12310 0.95910 0.92170 0.20500
H 	H 	0.17440 0.98210 0.92530 0.18400
H 	H 	0.15770 0.94440 0.96360 0.20800
C 	C 	0.21800 0.92350 0.92760 -0.55000
H 	H 	0.24150 0.90070 0.91670 0.17700
H 	H 	0.21250 0.91910 0.96130 0.18300
H 	H 	0.22960 0.95550 0.92190 0.15400
C 	C 	0.00310 0.82800 0.83940 0.10000
H 	H 	0.99450 0.83220 0.87150 -0.01000
C 	C 	0.96980 0.81620 0.80780 -0.17000
H 	H 	0.93860 0.81150 0.81890 0.08900
C 	C 	0.97750 0.81090 0.76480 0.09700
H 	H 	0.95290 0.80350 0.74330 0.01400
C 	C 	0.02350 0.81640 0.75010 -0.14400
H 	H 	0.03110 0.81220 0.71770 0.08000
C 	C 	0.05870 0.82790 0.78150 0.09000
H 	H 	0.09030 0.83140 0.77090 0.00500
N 	N 	0.04813 0.83387 0.82650 -0.22900
O 	O 	0.14196 0.80662 0.83802 -0.42000
O 	O 	0.20751 0.80156 0.88087 -0.31100
O 	O 	0.15876 0.87153 0.91664 -0.53200
H 	H 	0.17060 0.85080 0.89910 0.23300
C 	C 	0.31940 0.21250 0.34890 0.33400
C 	C 	0.30550 0.25430 0.31950 -0.12300
C 	C 	0.33211 0.26678 0.28078 0.05000
H 	H 	0.35900 0.24880 0.27240 0.03400
C 	C 	0.32550 0.08350 0.40220 0.33000
C 	C 	0.34400 0.04660 0.43040 -0.63000
H 	H 	0.37690 0.04090 0.42170 0.20500
H 	H 	0.32560 0.01790 0.42530 0.18400
H 	H 	0.34230 0.05560 0.46360 0.20800
C 	C 	0.28200 0.07650 0.42760 -0.55000
H 	H 	0.25850 0.09930 0.41670 0.17700
H 	H 	0.28750 0.08090 0.46130 0.18300
H 	H 	0.27040 0.04450 0.42190 0.15400
C 	C 	0.49690 0.17200 0.33940 0.10000
H 	H 	0.50550 0.16780 0.37150 -0.01000
C 	C 	0.53020 0.18380 0.30780 -0.17000
H 	H 	0.56140 0.18850 0.31890 0.08900
C 	C 	0.52250 0.18910 0.26480 0.09600
H 	H 	0.54710 0.19650 0.24330 0.01400
C 	C 	0.47650 0.18360 0.25010 -0.14400
H 	H 	0.46890 0.18780 0.21770 0.08000
C 	C 	0.44130 0.17210 0.28150 0.09000
H 	H 	0.40970 0.16860 0.27090 0.00500
N 	N 	0.45187 0.16613 0.32650 -0.22900
O 	O 	0.35804 0.19338 0.33802 -0.42000
O 	O 	0.29249 0.19844 0.38087 -0.31100
O 	O 	0.34124 0.12847 0.41664 -0.53200
H 	H 	0.32940 0.14920 0.39910 0.23300
C 	C 	0.21250 0.34890 0.31940 0.33400
C 	C 	0.25430 0.31950 0.30550 -0.12300
C 	C 	0.26678 0.28078 0.33211 0.05000
H 	H 	0.24880 0.27240 0.35900 0.03400
C 	C 	0.08350 0.40220 0.32550 0.33000
C 	C 	0.04660 0.43040 0.34400 -0.63000
H 	H 	0.04090 0.42170 0.37690 0.20500
H 	H 	0.01790 0.42530 0.32560 0.18400
H 	H 	0.05560 0.46360 0.34230 0.20800
C 	C 	0.07650 0.42760 0.28200 -0.55000
H 	H 	0.09930 0.41670 0.25850 0.17700
H 	H 	0.08090 0.46130 0.28750 0.18300
H 	H 	0.04450 0.42190 0.27040 0.15400
C 	C 	0.17200 0.33940 0.49690 0.10000
H 	H 	0.16780 0.37150 0.50550 -0.01000
C 	C 	0.18380 0.30780 0.53020 -0.17000
H 	H 	0.18850 0.31890 0.56140 0.08900
C 	C 	0.18910 0.26480 0.52250 0.09600
H 	H 	0.19650 0.24330 0.54710 0.01400
C 	C 	0.18360 0.25010 0.47650 -0.14400
H 	H 	0.18780 0.21770 0.46890 0.08000
C 	C 	0.17210 0.28150 0.44130 0.09000
H 	H 	0.16860 0.27090 0.40970 0.00500
N 	N 	0.16613 0.32650 0.45187 -0.22900
O 	O 	0.19338 0.33802 0.35804 -0.42000
O 	O 	0.19844 0.38087 0.29249 -0.31100
O 	O 	0.12847 0.41664 0.34124 -0.53200
H 	H 	0.14920 0.39910 0.32940 0.23300
C 	C 	0.78750 0.84890 0.18060 0.33400
C 	C 	0.74570 0.81950 0.19450 -0.12300
C 	C 	0.73322 0.78078 0.16789 0.05000
H 	H 	0.75120 0.77240 0.14100 0.03400
C 	C 	0.91650 0.90220 0.17450 0.33000
C 	C 	0.95340 0.93040 0.15600 -0.62900
H 	H 	0.95910 0.92170 0.12310 0.20500
H 	H 	0.98210 0.92530 0.17440 0.18400
H 	H 	0.94440 0.96360 0.15770 0.20800
C 	C 	0.92350 0.92760 0.21800 -0.55000
H 	H 	0.90070 0.91670 0.24150 0.17700
H 	H 	0.91910 0.96130 0.21250 0.18300
H 	H 	0.95550 0.92190 0.22960 0.15400
C 	C 	0.82800 0.83940 0.00310 0.10000
H 	H 	0.83220 0.87150 0.99450 -0.01000
C 	C 	0.81620 0.80780 0.96980 -0.17000
H 	H 	0.81150 0.81890 0.93860 0.08900
C 	C 	0.81090 0.76480 0.97750 0.09700
H 	H 	0.80350 0.74330 0.95290 0.01400
C 	C 	0.81640 0.75010 0.02350 -0.14400
H 	H 	0.81220 0.71770 0.03110 0.08000
C 	C 	0.82790 0.78150 0.05870 0.09000
H 	H 	0.83140 0.77090 0.09030 0.00500
N 	N 	0.83387 0.82650 0.04813 -0.22900
O 	O 	0.80662 0.83802 0.14196 -0.42000
O 	O 	0.80156 0.88087 0.20751 -0.31100
O 	O 	0.87153 0.91664 0.15876 -0.53200
H 	H 	0.85080 0.89910 0.17060 0.23300
C 	C 	0.28750 0.65110 0.81940 0.33400
C 	C 	0.24570 0.68050 0.80550 -0.12300
C 	C 	0.23322 0.71922 0.83211 0.05000
H 	H 	0.25120 0.72760 0.85900 0.03400
C 	C 	0.41650 0.59780 0.82550 0.33000
C 	C 	0.45340 0.56960 0.84400 -0.63000
H 	H 	0.45910 0.57830 0.87690 0.20500
H 	H 	0.48210 0.57470 0.82560 0.18400
H 	H 	0.44440 0.53640 0.84230 0.20800
C 	C 	0.42350 0.57240 0.78200 -0.55000
H 	H 	0.40070 0.58330 0.75850 0.17700
H 	H 	0.41910 0.53870 0.78750 0.18300
H 	H 	0.45550 0.57810 0.77040 0.15400
C 	C 	0.32800 0.66060 0.99690 0.10000
H 	H 	0.33220 0.62850 0.00550 -0.01000
C 	C 	0.31620 0.69220 0.03020 -0.17000
H 	H 	0.31150 0.68110 0.06140 0.08900
C 	C 	0.31090 0.73520 0.02250 0.09600
H 	H 	0.30350 0.75670 0.04710 0.01400
C 	C 	0.31640 0.74990 0.97650 -0.14400
H 	H 	0.31220 0.78230 0.96890 0.08000
C 	C 	0.32790 0.71850 0.94130 0.09000
H 	H 	0.33140 0.72910 0.90970 0.00500
N 	N 	0.33387 0.67350 0.95187 -0.22900
O 	O 	0.30662 0.66198 0.85804 -0.42000
O 	O 	0.30156 0.61913 0.79249 -0.31100
O 	O 	0.37153 0.58336 0.84124 -0.53200
H 	H 	0.35080 0.60090 0.82940 0.23300
C 	C 	0.71250 0.15110 0.68060 0.33400
C 	C 	0.75430 0.18050 0.69450 -0.12300
C 	C 	0.76678 0.21922 0.66789 0.05000
H 	H 	0.74880 0.22760 0.64100 0.03400
C 	C 	0.58350 0.09780 0.67450 0.33000
C 	C 	0.54660 0.06960 0.65600 -0.63000
H 	H 	0.54090 0.07830 0.62310 0.20500
H 	H 	0.51790 0.07470 0.67440 0.18400
H 	H 	0.55560 0.03640 0.65770 0.20800
C 	C 	0.57650 0.07240 0.71800 -0.55000
H 	H 	0.59930 0.08330 0.74150 0.17700
H 	H 	0.58090 0.03870 0.71250 0.18300
H 	H 	0.54450 0.07810 0.72960 0.15400
C 	C 	0.67200 0.16060 0.50310 0.10000
H 	H 	0.66780 0.12850 0.49450 -0.01000
C 	C 	0.68380 0.19220 0.46980 -0.17000
H 	H 	0.68850 0.18110 0.43860 0.08900
C 	C 	0.68910 0.23520 0.47750 0.09600
H 	H 	0.69650 0.25670 0.45290 0.01400
C 	C 	0.68360 0.24990 0.52350 -0.14400
H 	H 	0.68780 0.28230 0.53110 0.08000
C 	C 	0.67210 0.21850 0.55870 0.09000
H 	H 	0.66860 0.22910 0.59030 0.00500
N 	N 	0.66613 0.17350 0.54813 -0.22900
O 	O 	0.69338 0.16198 0.64196 -0.42000
O 	O 	0.69844 0.11913 0.70751 -0.31100
O 	O 	0.62847 0.08336 0.65876 -0.53200
H 	H 	0.64920 0.10090 0.67060 0.23300
C 	C 	0.84890 0.18060 0.78750 0.33400
C 	C 	0.81950 0.19450 0.74570 -0.12300
C 	C 	0.78078 0.16789 0.73322 0.05000
H 	H 	0.77240 0.14100 0.75120 0.03400
C 	C 	0.90220 0.17450 0.91650 0.33000
C 	C 	0.93040 0.15600 0.95340 -0.62900
H 	H 	0.92170 0.12310 0.95910 0.20500
H 	H 	0.92530 0.17440 0.98210 0.18400
H 	H 	0.96360 0.15770 0.94440 0.20800
C 	C 	0.92760 0.21800 0.92350 -0.55000
H 	H 	0.91670 0.24150 0.90070 0.17700
H 	H 	0.96130 0.21250 0.91910 0.18300
H 	H 	0.92190 0.22960 0.95550 0.15400
C 	C 	0.83940 0.00310 0.82800 0.10000
H 	H 	0.87150 0.99450 0.83220 -0.01000
C 	C 	0.80780 0.96980 0.81620 -0.17000
H 	H 	0.81890 0.93860 0.81150 0.08900
C 	C 	0.76480 0.97750 0.81090 0.09700
H 	H 	0.74330 0.95290 0.80350 0.01400
C 	C 	0.75010 0.02350 0.81640 -0.14400
H 	H 	0.71770 0.03110 0.81220 0.08000
C 	C 	0.78150 0.05870 0.82790 0.09000
H 	H 	0.77090 0.09030 0.83140 0.00500
N 	N 	0.82650 0.04813 0.83387 -0.22900
O 	O 	0.83802 0.14196 0.80662 -0.42000
O 	O 	0.88087 0.20751 0.80156 -0.31100
O 	O 	0.91664 0.15876 0.87153 -0.53200
H 	H 	0.89910 0.17060 0.85080 0.23300
C 	C 	0.34890 0.31940 0.21250 0.33400
C 	C 	0.31950 0.30550 0.25430 -0.12300
C 	C 	0.28078 0.33211 0.26678 0.05000
H 	H 	0.27240 0.35900 0.24880 0.03400
C 	C 	0.40220 0.32550 0.08350 0.33000
C 	C 	0.43040 0.34400 0.04660 -0.63000
H 	H 	0.42170 0.37690 0.04090 0.20500
H 	H 	0.42530 0.32560 0.01790 0.18400
H 	H 	0.46360 0.34230 0.05560 0.20800
C 	C 	0.42760 0.28200 0.07650 -0.55000
H 	H 	0.41670 0.25850 0.09930 0.17700
H 	H 	0.46130 0.28750 0.08090 0.18300
H 	H 	0.42190 0.27040 0.04450 0.15400
C 	C 	0.33940 0.49690 0.17200 0.10000
H 	H 	0.37150 0.50550 0.16780 -0.01000
C 	C 	0.30780 0.53020 0.18380 -0.17000
H 	H 	0.31890 0.56140 0.18850 0.08900
C 	C 	0.26480 0.52250 0.18910 0.09600
H 	H 	0.24330 0.54710 0.19650 0.01400
C 	C 	0.25010 0.47650 0.18360 -0.14400
H 	H 	0.21770 0.46890 0.18780 0.08000
C 	C 	0.28150 0.44130 0.17210 0.09000
H 	H 	0.27090 0.40970 0.16860 0.00500
N 	N 	0.32650 0.45187 0.16613 -0.22900
O 	O 	0.33802 0.35804 0.19338 -0.42000
O 	O 	0.38087 0.29249 0.19844 -0.31100
O 	O 	0.41664 0.34124 0.12847 -0.53200
H 	H 	0.39910 0.32940 0.14920 0.23300
C 	C 	0.15110 0.68060 0.71250 0.33400
C 	C 	0.18050 0.69450 0.75430 -0.12300
C 	C 	0.21922 0.66789 0.76678 0.05000
H 	H 	0.22760 0.64100 0.74880 0.03400
C 	C 	0.09780 0.67450 0.58350 0.33000
C 	C 	0.06960 0.65600 0.54660 -0.63000
H 	H 	0.07830 0.62310 0.54090 0.20500
H 	H 	0.07470 0.67440 0.51790 0.18400
H 	H 	0.03640 0.65770 0.55560 0.20800
C 	C 	0.07240 0.71800 0.57650 -0.55000
H 	H 	0.08330 0.74150 0.59930 0.17700
H 	H 	0.03870 0.71250 0.58090 0.18300
H 	H 	0.07810 0.72960 0.54450 0.15400
C 	C 	0.16060 0.50310 0.67200 0.10000
H 	H 	0.12850 0.49450 0.66780 -0.01000
C 	C 	0.19220 0.46980 0.68380 -0.17000
H 	H 	0.18110 0.43860 0.68850 0.08900
C 	C 	0.23520 0.47750 0.68910 0.09600
H 	H 	0.25670 0.45290 0.69650 0.01400
C 	C 	0.24990 0.52350 0.68360 -0.14400
H 	H 	0.28230 0.53110 0.68780 0.08000
C 	C 	0.21850 0.55870 0.67210 0.09000
H 	H 	0.22910 0.59030 0.66860 0.00500
N 	N 	0.17350 0.54813 0.66613 -0.22900
O 	O 	0.16198 0.64196 0.69338 -0.42000
O 	O 	0.11913 0.70751 0.69844 -0.31100
O 	O 	0.08336 0.65876 0.62847 -0.53200
H 	H 	0.10090 0.67060 0.64920 0.23300
C 	C 	0.65110 0.81940 0.28750 0.33400
C 	C 	0.68050 0.80550 0.24570 -0.12300
C 	C 	0.71922 0.83211 0.23322 0.05000
H 	H 	0.72760 0.85900 0.25120 0.03400
C 	C 	0.59780 0.82550 0.41650 0.33000
C 	C 	0.56960 0.84400 0.45340 -0.63000
H 	H 	0.57830 0.87690 0.45910 0.20500
H 	H 	0.57470 0.82560 0.48210 0.18400
H 	H 	0.53640 0.84230 0.44440 0.20800
C 	C 	0.57240 0.78200 0.42350 -0.55000
H 	H 	0.58330 0.75850 0.40070 0.17700
H 	H 	0.53870 0.78750 0.41910 0.18300
H 	H 	0.57810 0.77040 0.45550 0.15400
C 	C 	0.66060 0.99690 0.32800 0.10000
H 	H 	0.62850 0.00550 0.33220 -0.01000
C 	C 	0.69220 0.03020 0.31620 -0.17000
H 	H 	0.68110 0.06140 0.31150 0.08900
C 	C 	0.73520 0.02250 0.31090 0.09600
H 	H 	0.75670 0.04710 0.30350 0.01400
C 	C 	0.74990 0.97650 0.31640 -0.14400
H 	H 	0.78230 0.96890 0.31220 0.08000
C 	C 	0.71850 0.94130 0.32790 0.09000
H 	H 	0.72910 0.90970 0.33140 0.00500
N 	N 	0.67350 0.95187 0.33387 -0.22900
O 	O 	0.66198 0.85804 0.30662 -0.42000
O 	O 	0.61913 0.79249 0.30156 -0.31100
O 	O 	0.58336 0.84124 0.37153 -0.53200
H 	H 	0.60090 0.82940 0.35080 0.23300
Ni	Ni	0.60100 0.64900 0.12500 1.10600
Ni	Ni	0.89900 0.35100 0.62500 1.10600
Ni	Ni	0.10100 0.85100 0.87500 1.10600
Ni	Ni	0.39900 0.14900 0.37500 1.10600
Ni	Ni	0.14900 0.37500 0.39900 1.10600
Ni	Ni	0.85100 0.87500 0.10100 1.10600
Ni	Ni	0.35100 0.62500 0.89900 1.10600
Ni	Ni	0.64900 0.12500 0.60100 1.10600
Ni	Ni	0.87500 0.10100 0.85100 1.10600
Ni	Ni	0.37500 0.39900 0.14900 1.10600
Ni	Ni	0.12500 0.60100 0.64900 1.10600
Ni	Ni	0.62500 0.89900 0.35100 1.10600
