data_crystal

_cell_length_a 28.71800
_cell_length_b 28.71800
_cell_length_c 28.71800
_cell_angle_alpha 90.00000
_cell_angle_beta  90.00000
_cell_angle_gamma 90.00000

_symmetry_space_group_name_	'P 1'
_symmetry_space_group_name_H-M	'P 1'

loop_
_symmetry_equiv_pos_as_xyz
  x,y,z

loop_
_atom_site_label
_atom_site_type_symbol
_atom_site_fract_x
_atom_site_fract_y
_atom_site_fract_z
_atom_site_charge
C 	C 	0.46520 0.42510 0.90130 0.33800
C 	C 	0.50660 0.44120 0.92950 -0.10700
C 	C 	0.52000 0.41620 0.96730 0.04600
H 	H 	0.50300 0.39000 0.97590 0.04300
N 	N 	0.41930 0.29410 0.92390 -0.21500
C 	C 	0.42410 0.30760 0.97020 0.03500
C 	C 	0.43480 0.27460 0.00400 -0.01600
C 	C 	0.44060 0.22820 0.99160 0.01800
C 	C 	0.43570 0.21470 0.94530 -0.01800
C 	C 	0.42510 0.24760 0.91150 0.04000
O 	O 	0.44830 0.38640 0.91170 -0.42800
O 	O 	0.44980 0.45220 0.86990 -0.28000
C 	C 	0.03480 0.57490 0.40130 0.33800
C 	C 	0.99340 0.55880 0.42950 -0.10700
C 	C 	0.98000 0.58380 0.46730 0.04600
H 	H 	0.99700 0.61000 0.47590 0.04300
N 	N 	0.08070 0.70590 0.42390 -0.21500
C 	C 	0.07590 0.69240 0.47020 0.03500
C 	C 	0.06520 0.72540 0.50400 -0.01600
C 	C 	0.05940 0.77180 0.49160 0.01800
C 	C 	0.06430 0.78530 0.44530 -0.01800
C 	C 	0.07490 0.75240 0.41150 0.04000
O 	O 	0.05170 0.61360 0.41170 -0.42800
O 	O 	0.05020 0.54780 0.36990 -0.28000
C 	C 	0.53480 0.92510 0.59870 0.33900
C 	C 	0.49340 0.94120 0.57050 -0.10600
C 	C 	0.48000 0.91620 0.53270 0.04700
H 	H 	0.49700 0.89000 0.52410 0.04400
N 	N 	0.58070 0.79410 0.57610 -0.21400
C 	C 	0.57590 0.80760 0.52980 0.03600
C 	C 	0.56520 0.77460 0.49600 -0.01500
C 	C 	0.55940 0.72820 0.50840 0.01900
C 	C 	0.56430 0.71470 0.55470 -0.01700
C 	C 	0.57490 0.74760 0.58850 0.04100
O 	O 	0.55170 0.88640 0.58830 -0.42700
O 	O 	0.55020 0.95220 0.63010 -0.27900
C 	C 	0.96520 0.07490 0.09870 0.33900
C 	C 	0.00660 0.05880 0.07050 -0.10600
C 	C 	0.02000 0.08380 0.03270 0.04700
H 	H 	0.00300 0.11000 0.02410 0.04400
N 	N 	0.91930 0.20590 0.07610 -0.21400
C 	C 	0.92410 0.19240 0.02980 0.03600
C 	C 	0.93480 0.22540 0.99600 -0.01500
C 	C 	0.94060 0.27180 0.00840 0.01900
C 	C 	0.93570 0.28530 0.05470 -0.01700
C 	C 	0.92510 0.25240 0.08850 0.04100
O 	O 	0.94830 0.11360 0.08830 -0.42700
O 	O 	0.94980 0.04780 0.13010 -0.27900
C 	C 	0.90130 0.46520 0.42510 0.33900
C 	C 	0.92950 0.50660 0.44120 -0.10600
C 	C 	0.96730 0.52000 0.41620 0.04700
H 	H 	0.97590 0.50300 0.39000 0.04400
N 	N 	0.92390 0.41930 0.29410 -0.21400
C 	C 	0.97020 0.42410 0.30760 0.03600
C 	C 	0.00400 0.43480 0.27460 -0.01500
C 	C 	0.99160 0.44060 0.22820 0.01900
C 	C 	0.94530 0.43570 0.21470 -0.01700
C 	C 	0.91150 0.42510 0.24760 0.04100
O 	O 	0.91170 0.44830 0.38640 -0.42700
O 	O 	0.86990 0.44980 0.45220 -0.27900
C 	C 	0.40130 0.03480 0.57490 0.33900
C 	C 	0.42950 0.99340 0.55880 -0.10600
C 	C 	0.46730 0.98000 0.58380 0.04700
H 	H 	0.47590 0.99700 0.61000 0.04400
N 	N 	0.42390 0.08070 0.70590 -0.21400
C 	C 	0.47020 0.07590 0.69240 0.03600
C 	C 	0.50400 0.06520 0.72540 -0.01500
C 	C 	0.49160 0.05940 0.77180 0.01900
C 	C 	0.44530 0.06430 0.78530 -0.01700
C 	C 	0.41150 0.07490 0.75240 0.04100
O 	O 	0.41170 0.05170 0.61360 -0.42700
O 	O 	0.36990 0.05020 0.54780 -0.27900
C 	C 	0.59870 0.53480 0.92510 0.33900
C 	C 	0.57050 0.49340 0.94120 -0.10600
C 	C 	0.53270 0.48000 0.91620 0.04700
H 	H 	0.52410 0.49700 0.89000 0.04400
N 	N 	0.57610 0.58070 0.79410 -0.21400
C 	C 	0.52980 0.57590 0.80760 0.03600
C 	C 	0.49600 0.56520 0.77460 -0.01500
C 	C 	0.50840 0.55940 0.72820 0.01900
C 	C 	0.55470 0.56430 0.71470 -0.01700
C 	C 	0.58850 0.57490 0.74760 0.04100
O 	O 	0.58830 0.55170 0.88640 -0.42700
O 	O 	0.63010 0.55020 0.95220 -0.27900
C 	C 	0.09870 0.96520 0.07490 0.33900
C 	C 	0.07050 0.00660 0.05880 -0.10600
C 	C 	0.03270 0.02000 0.08380 0.04700
H 	H 	0.02410 0.00300 0.11000 0.04400
N 	N 	0.07610 0.91930 0.20590 -0.21400
C 	C 	0.02980 0.92410 0.19240 0.03600
C 	C 	0.99600 0.93480 0.22540 -0.01500
C 	C 	0.00840 0.94060 0.27180 0.01900
C 	C 	0.05470 0.93570 0.28530 -0.01700
C 	C 	0.08850 0.92510 0.25240 0.04100
O 	O 	0.08830 0.94830 0.11360 -0.42700
O 	O 	0.13010 0.94980 0.04780 -0.27900
C 	C 	0.42510 0.90130 0.46520 0.33900
C 	C 	0.44120 0.92950 0.50660 -0.10600
C 	C 	0.41620 0.96730 0.52000 0.04700
H 	H 	0.39000 0.97590 0.50300 0.04400
N 	N 	0.29410 0.92390 0.41930 -0.21400
C 	C 	0.30760 0.97020 0.42410 0.03600
C 	C 	0.27460 0.00400 0.43480 -0.01500
C 	C 	0.22820 0.99160 0.44060 0.01900
C 	C 	0.21470 0.94530 0.43570 -0.01700
C 	C 	0.24760 0.91150 0.42510 0.04100
O 	O 	0.38640 0.91170 0.44830 -0.42700
O 	O 	0.45220 0.86990 0.44980 -0.27900
C 	C 	0.57490 0.40130 0.03480 0.33900
C 	C 	0.55880 0.42950 0.99340 -0.10600
C 	C 	0.58380 0.46730 0.98000 0.04700
H 	H 	0.61000 0.47590 0.99700 0.04400
N 	N 	0.70590 0.42390 0.08070 -0.21400
C 	C 	0.69240 0.47020 0.07590 0.03600
C 	C 	0.72540 0.50400 0.06520 -0.01500
C 	C 	0.77180 0.49160 0.05940 0.01900
C 	C 	0.78530 0.44530 0.06430 -0.01700
C 	C 	0.75240 0.41150 0.07490 0.04100
O 	O 	0.61360 0.41170 0.05170 -0.42700
O 	O 	0.54780 0.36990 0.05020 -0.27900
C 	C 	0.92510 0.59870 0.53480 0.33900
C 	C 	0.94120 0.57050 0.49340 -0.10600
C 	C 	0.91620 0.53270 0.48000 0.04700
H 	H 	0.89000 0.52410 0.49700 0.04400
N 	N 	0.79410 0.57610 0.58070 -0.21400
C 	C 	0.80760 0.52980 0.57590 0.03600
C 	C 	0.77460 0.49600 0.56520 -0.01500
C 	C 	0.72820 0.50840 0.55940 0.01900
C 	C 	0.71470 0.55470 0.56430 -0.01700
C 	C 	0.74760 0.58850 0.57490 0.04100
O 	O 	0.88640 0.58830 0.55170 -0.42700
O 	O 	0.95220 0.63010 0.55020 -0.27900
C 	C 	0.07490 0.09870 0.96520 0.33900
C 	C 	0.05880 0.07050 0.00660 -0.10600
C 	C 	0.08380 0.03270 0.02000 0.04700
H 	H 	0.11000 0.02410 0.00300 0.04400
N 	N 	0.20590 0.07610 0.91930 -0.21400
C 	C 	0.19240 0.02980 0.92410 0.03600
C 	C 	0.22540 0.99600 0.93480 -0.01500
C 	C 	0.27180 0.00840 0.94060 0.01900
C 	C 	0.28530 0.05470 0.93570 -0.01700
C 	C 	0.25240 0.08850 0.92510 0.04100
O 	O 	0.11360 0.08830 0.94830 -0.42700
O 	O 	0.04780 0.13010 0.94980 -0.27900
C 	C 	0.17510 0.71520 0.34870 0.33900
C 	C 	0.19120 0.75660 0.32050 -0.10600
C 	C 	0.16620 0.77000 0.28270 0.04700
H 	H 	0.14000 0.75300 0.27410 0.04400
N 	N 	0.04410 0.66930 0.32610 -0.21400
C 	C 	0.05760 0.67410 0.27980 0.03600
C 	C 	0.02460 0.68480 0.24600 -0.01500
C 	C 	0.97820 0.69060 0.25840 0.01900
C 	C 	0.96470 0.68570 0.30470 -0.01700
C 	C 	0.99760 0.67510 0.33850 0.04100
O 	O 	0.13640 0.69830 0.33830 -0.42700
O 	O 	0.20220 0.69980 0.38010 -0.27900
C 	C 	0.32490 0.28480 0.84870 0.33900
C 	C 	0.30880 0.24340 0.82050 -0.10600
C 	C 	0.33380 0.23000 0.78270 0.04700
H 	H 	0.36000 0.24700 0.77410 0.04400
N 	N 	0.45590 0.33070 0.82610 -0.21400
C 	C 	0.44240 0.32590 0.77980 0.03600
C 	C 	0.47540 0.31520 0.74600 -0.01500
C 	C 	0.52180 0.30940 0.75840 0.01900
C 	C 	0.53530 0.31430 0.80470 -0.01700
C 	C 	0.50240 0.32490 0.83850 0.04100
O 	O 	0.36360 0.30170 0.83830 -0.42700
O 	O 	0.29780 0.30020 0.88010 -0.27900
C 	C 	0.67510 0.78480 0.65130 0.33900
C 	C 	0.69120 0.74340 0.67950 -0.10600
C 	C 	0.66620 0.73000 0.71730 0.04700
H 	H 	0.64000 0.74700 0.72590 0.04400
N 	N 	0.54410 0.83070 0.67390 -0.21400
C 	C 	0.55760 0.82590 0.72020 0.03600
C 	C 	0.52460 0.81520 0.75400 -0.01500
C 	C 	0.47820 0.80940 0.74160 0.01900
C 	C 	0.46470 0.81430 0.69530 -0.01700
C 	C 	0.49760 0.82490 0.66150 0.04100
O 	O 	0.63640 0.80170 0.66170 -0.42700
O 	O 	0.70220 0.80020 0.61990 -0.27900
C 	C 	0.82490 0.21520 0.15130 0.33900
C 	C 	0.80880 0.25660 0.17950 -0.10600
C 	C 	0.83380 0.27000 0.21730 0.04700
H 	H 	0.86000 0.25300 0.22590 0.04400
N 	N 	0.95590 0.16930 0.17390 -0.21400
C 	C 	0.94240 0.17410 0.22020 0.03600
C 	C 	0.97540 0.18480 0.25400 -0.01500
C 	C 	0.02180 0.19060 0.24160 0.01900
C 	C 	0.03530 0.18570 0.19530 -0.01700
C 	C 	0.00240 0.17510 0.16150 0.04100
O 	O 	0.86360 0.19830 0.16170 -0.42700
O 	O 	0.79780 0.19980 0.11990 -0.27900
C 	C 	0.21520 0.15130 0.82490 0.33900
C 	C 	0.25660 0.17950 0.80880 -0.10600
C 	C 	0.27000 0.21730 0.83380 0.04700
H 	H 	0.25300 0.22590 0.86000 0.04400
N 	N 	0.16930 0.17390 0.95590 -0.21400
C 	C 	0.17410 0.22020 0.94240 0.03600
C 	C 	0.18480 0.25400 0.97540 -0.01500
C 	C 	0.19060 0.24160 0.02180 0.01900
C 	C 	0.18570 0.19530 0.03530 -0.01700
C 	C 	0.17510 0.16150 0.00240 0.04100
O 	O 	0.19830 0.16170 0.86360 -0.42700
O 	O 	0.19980 0.11990 0.79780 -0.27900
C 	C 	0.78480 0.65130 0.67510 0.33900
C 	C 	0.74340 0.67950 0.69120 -0.10600
C 	C 	0.73000 0.71730 0.66620 0.04700
H 	H 	0.74700 0.72590 0.64000 0.04400
N 	N 	0.83070 0.67390 0.54410 -0.21400
C 	C 	0.82590 0.72020 0.55760 0.03600
C 	C 	0.81520 0.75400 0.52460 -0.01500
C 	C 	0.80940 0.74160 0.47820 0.01900
C 	C 	0.81430 0.69530 0.46470 -0.01700
C 	C 	0.82490 0.66150 0.49760 0.04100
O 	O 	0.80170 0.66170 0.63640 -0.42700
O 	O 	0.80020 0.61990 0.70220 -0.27900
C 	C 	0.28480 0.84870 0.32490 0.33900
C 	C 	0.24340 0.82050 0.30880 -0.10600
C 	C 	0.23000 0.78270 0.33380 0.04700
H 	H 	0.24700 0.77410 0.36000 0.04400
N 	N 	0.33070 0.82610 0.45590 -0.21400
C 	C 	0.32590 0.77980 0.44240 0.03600
C 	C 	0.31520 0.74600 0.47540 -0.01500
C 	C 	0.30940 0.75840 0.52180 0.01900
C 	C 	0.31430 0.80470 0.53530 -0.01700
C 	C 	0.32490 0.83850 0.50240 0.04100
O 	O 	0.30170 0.83830 0.36360 -0.42700
O 	O 	0.30020 0.88010 0.29780 -0.27900
C 	C 	0.71520 0.34870 0.17510 0.33900
C 	C 	0.75660 0.32050 0.19120 -0.10600
C 	C 	0.77000 0.28270 0.16620 0.04700
H 	H 	0.75300 0.27410 0.14000 0.04400
N 	N 	0.66930 0.32610 0.04410 -0.21400
C 	C 	0.67410 0.27980 0.05760 0.03600
C 	C 	0.68480 0.24600 0.02460 -0.01500
C 	C 	0.69060 0.25840 0.97820 0.01900
C 	C 	0.68570 0.30470 0.96470 -0.01700
C 	C 	0.67510 0.33850 0.99760 0.04100
O 	O 	0.69830 0.33830 0.13640 -0.42700
O 	O 	0.69980 0.38010 0.20220 -0.27900
C 	C 	0.65130 0.67510 0.78480 0.33900
C 	C 	0.67950 0.69120 0.74340 -0.10600
C 	C 	0.71730 0.66620 0.73000 0.04700
H 	H 	0.72590 0.64000 0.74700 0.04400
N 	N 	0.67390 0.54410 0.83070 -0.21400
C 	C 	0.72020 0.55760 0.82590 0.03600
C 	C 	0.75400 0.52460 0.81520 -0.01500
C 	C 	0.74160 0.47820 0.80940 0.01900
C 	C 	0.69530 0.46470 0.81430 -0.01700
C 	C 	0.66150 0.49760 0.82490 0.04100
O 	O 	0.66170 0.63640 0.80170 -0.42700
O 	O 	0.61990 0.70220 0.80020 -0.27900
C 	C 	0.15130 0.82490 0.21520 0.33900
C 	C 	0.17950 0.80880 0.25660 -0.10600
C 	C 	0.21730 0.83380 0.27000 0.04700
H 	H 	0.22590 0.86000 0.25300 0.04400
N 	N 	0.17390 0.95590 0.16930 -0.21400
C 	C 	0.22020 0.94240 0.17410 0.03600
C 	C 	0.25400 0.97540 0.18480 -0.01500
C 	C 	0.24160 0.02180 0.19060 0.01900
C 	C 	0.19530 0.03530 0.18570 -0.01700
C 	C 	0.16150 0.00240 0.17510 0.04100
O 	O 	0.16170 0.86360 0.19830 -0.42700
O 	O 	0.11990 0.79780 0.19980 -0.27900
C 	C 	0.34870 0.17510 0.71520 0.33900
C 	C 	0.32050 0.19120 0.75660 -0.10600
C 	C 	0.28270 0.16620 0.77000 0.04700
H 	H 	0.27410 0.14000 0.75300 0.04400
N 	N 	0.32610 0.04410 0.66930 -0.21400
C 	C 	0.27980 0.05760 0.67410 0.03600
C 	C 	0.24600 0.02460 0.68480 -0.01500
C 	C 	0.25840 0.97820 0.69060 0.01900
C 	C 	0.30470 0.96470 0.68570 -0.01700
C 	C 	0.33850 0.99760 0.67510 0.04100
O 	O 	0.33830 0.13640 0.69830 -0.42700
O 	O 	0.38010 0.20220 0.69980 -0.27900
C 	C 	0.84870 0.32490 0.28480 0.33900
C 	C 	0.82050 0.30880 0.24340 -0.10600
C 	C 	0.78270 0.33380 0.23000 0.04700
H 	H 	0.77410 0.36000 0.24700 0.04400
N 	N 	0.82610 0.45590 0.33070 -0.21400
C 	C 	0.77980 0.44240 0.32590 0.03600
C 	C 	0.74600 0.47540 0.31520 -0.01500
C 	C 	0.75840 0.52180 0.30940 0.01900
C 	C 	0.80470 0.53530 0.31430 -0.01700
C 	C 	0.83850 0.50240 0.32490 0.04100
O 	O 	0.83830 0.36360 0.30170 -0.42700
O 	O 	0.88010 0.29780 0.30020 -0.27900
Ni	Ni	0.40420 0.34580 0.87500 1.06500
Ni	Ni	0.09580 0.65420 0.37500 1.06500
Ni	Ni	0.59580 0.84580 0.62500 1.06500
Ni	Ni	0.90420 0.15420 0.12500 1.06500
Ni	Ni	0.87500 0.40420 0.34580 1.06500
Ni	Ni	0.37500 0.09580 0.65420 1.06500
Ni	Ni	0.62500 0.59580 0.84580 1.06500
Ni	Ni	0.12500 0.90420 0.15420 1.06500
Ni	Ni	0.34580 0.87500 0.40420 1.06500
Ni	Ni	0.65420 0.37500 0.09580 1.06500
Ni	Ni	0.84580 0.62500 0.59580 1.06500
Ni	Ni	0.15420 0.12500 0.90420 1.06500
C 	C 	0.96520 0.92510 0.40130 0.33900
C 	C 	0.00660 0.94120 0.42950 -0.10600
C 	C 	0.02000 0.91620 0.46730 0.04700
H 	H 	0.00300 0.89000 0.47590 0.04400
N 	N 	0.91930 0.79410 0.42390 -0.21400
C 	C 	0.92410 0.80760 0.47020 0.03600
C 	C 	0.93480 0.77460 0.50400 -0.01500
C 	C 	0.94060 0.72820 0.49160 0.01900
C 	C 	0.93570 0.71470 0.44530 -0.01700
C 	C 	0.92510 0.74760 0.41150 0.04100
O 	O 	0.94830 0.88640 0.41170 -0.42700
O 	O 	0.94980 0.95220 0.36990 -0.27900
C 	C 	0.53480 0.07490 0.90130 0.33900
C 	C 	0.49340 0.05880 0.92950 -0.10600
C 	C 	0.48000 0.08380 0.96730 0.04700
H 	H 	0.49700 0.11000 0.97590 0.04400
N 	N 	0.58070 0.20590 0.92390 -0.21400
C 	C 	0.57590 0.19240 0.97020 0.03600
C 	C 	0.56520 0.22540 0.00400 -0.01500
C 	C 	0.55940 0.27180 0.99160 0.01900
C 	C 	0.56430 0.28530 0.94530 -0.01700
C 	C 	0.57490 0.25240 0.91150 0.04100
O 	O 	0.55170 0.11360 0.91170 -0.42700
O 	O 	0.55020 0.04780 0.86990 -0.27900
C 	C 	0.03480 0.42510 0.09870 0.33900
C 	C 	0.99340 0.44120 0.07050 -0.10600
C 	C 	0.98000 0.41620 0.03270 0.04700
H 	H 	0.99700 0.39000 0.02410 0.04400
N 	N 	0.08070 0.29410 0.07610 -0.21400
C 	C 	0.07590 0.30760 0.02980 0.03600
C 	C 	0.06520 0.27460 0.99600 -0.01500
C 	C 	0.05940 0.22820 0.00840 0.01900
C 	C 	0.06430 0.21470 0.05470 -0.01700
C 	C 	0.07490 0.24760 0.08850 0.04100
O 	O 	0.05170 0.38640 0.08830 -0.42700
O 	O 	0.05020 0.45220 0.13010 -0.27900
C 	C 	0.46520 0.57490 0.59870 0.33900
C 	C 	0.50660 0.55880 0.57050 -0.10600
C 	C 	0.52000 0.58380 0.53270 0.04700
H 	H 	0.50300 0.61000 0.52410 0.04400
N 	N 	0.41930 0.70590 0.57610 -0.21400
C 	C 	0.42410 0.69240 0.52980 0.03600
C 	C 	0.43480 0.72540 0.49600 -0.01500
C 	C 	0.44060 0.77180 0.50840 0.01900
C 	C 	0.43570 0.78530 0.55470 -0.01700
C 	C 	0.42510 0.75240 0.58850 0.04100
O 	O 	0.44830 0.61360 0.58830 -0.42700
O 	O 	0.44980 0.54780 0.63010 -0.27900
C 	C 	0.40130 0.96520 0.92510 0.33900
C 	C 	0.42950 0.00660 0.94120 -0.10600
C 	C 	0.46730 0.02000 0.91620 0.04700
H 	H 	0.47590 0.00300 0.89000 0.04400
N 	N 	0.42390 0.91930 0.79410 -0.21400
C 	C 	0.47020 0.92410 0.80760 0.03600
C 	C 	0.50400 0.93480 0.77460 -0.01500
C 	C 	0.49160 0.94060 0.72820 0.01900
C 	C 	0.44530 0.93570 0.71470 -0.01700
C 	C 	0.41150 0.92510 0.74760 0.04100
O 	O 	0.41170 0.94830 0.88640 -0.42700
O 	O 	0.36990 0.94980 0.95220 -0.27900
C 	C 	0.90130 0.53480 0.07490 0.33900
C 	C 	0.92950 0.49340 0.05880 -0.10600
C 	C 	0.96730 0.48000 0.08380 0.04700
H 	H 	0.97590 0.49700 0.11000 0.04400
N 	N 	0.92390 0.58070 0.20590 -0.21400
C 	C 	0.97020 0.57590 0.19240 0.03600
C 	C 	0.00400 0.56520 0.22540 -0.01500
C 	C 	0.99160 0.55940 0.27180 0.01900
C 	C 	0.94530 0.56430 0.28530 -0.01700
C 	C 	0.91150 0.57490 0.25240 0.04100
O 	O 	0.91170 0.55170 0.11360 -0.42700
O 	O 	0.86990 0.55020 0.04780 -0.27900
C 	C 	0.09870 0.03480 0.42510 0.33900
C 	C 	0.07050 0.99340 0.44120 -0.10600
C 	C 	0.03270 0.98000 0.41620 0.04700
H 	H 	0.02410 0.99700 0.39000 0.04400
N 	N 	0.07610 0.08070 0.29410 -0.21400
C 	C 	0.02980 0.07590 0.30760 0.03600
C 	C 	0.99600 0.06520 0.27460 -0.01500
C 	C 	0.00840 0.05940 0.22820 0.01900
C 	C 	0.05470 0.06430 0.21470 -0.01700
C 	C 	0.08850 0.07490 0.24760 0.04100
O 	O 	0.08830 0.05170 0.38640 -0.42700
O 	O 	0.13010 0.05020 0.45220 -0.27900
C 	C 	0.59870 0.46520 0.57490 0.33900
C 	C 	0.57050 0.50660 0.55880 -0.10600
C 	C 	0.53270 0.52000 0.58380 0.04700
H 	H 	0.52410 0.50300 0.61000 0.04400
N 	N 	0.57610 0.41930 0.70590 -0.21400
C 	C 	0.52980 0.42410 0.69240 0.03600
C 	C 	0.49600 0.43480 0.72540 -0.01500
C 	C 	0.50840 0.44060 0.77180 0.01900
C 	C 	0.55470 0.43570 0.78530 -0.01700
C 	C 	0.58850 0.42510 0.75240 0.04100
O 	O 	0.58830 0.44830 0.61360 -0.42700
O 	O 	0.63010 0.44980 0.54780 -0.27900
C 	C 	0.92510 0.40130 0.96520 0.33900
C 	C 	0.94120 0.42950 0.00660 -0.10600
C 	C 	0.91620 0.46730 0.02000 0.04700
H 	H 	0.89000 0.47590 0.00300 0.04400
N 	N 	0.79410 0.42390 0.91930 -0.21400
C 	C 	0.80760 0.47020 0.92410 0.03600
C 	C 	0.77460 0.50400 0.93480 -0.01500
C 	C 	0.72820 0.49160 0.94060 0.01900
C 	C 	0.71470 0.44530 0.93570 -0.01700
C 	C 	0.74760 0.41150 0.92510 0.04100
O 	O 	0.88640 0.41170 0.94830 -0.42700
O 	O 	0.95220 0.36990 0.94980 -0.27900
C 	C 	0.07490 0.90130 0.53480 0.33900
C 	C 	0.05880 0.92950 0.49340 -0.10600
C 	C 	0.08380 0.96730 0.48000 0.04700
H 	H 	0.11000 0.97590 0.49700 0.04400
N 	N 	0.20590 0.92390 0.58070 -0.21400
C 	C 	0.19240 0.97020 0.57590 0.03600
C 	C 	0.22540 0.00400 0.56520 -0.01500
C 	C 	0.27180 0.99160 0.55940 0.01900
C 	C 	0.28530 0.94530 0.56430 -0.01700
C 	C 	0.25240 0.91150 0.57490 0.04100
O 	O 	0.11360 0.91170 0.55170 -0.42700
O 	O 	0.04780 0.86990 0.55020 -0.27900
C 	C 	0.42510 0.09870 0.03480 0.33900
C 	C 	0.44120 0.07050 0.99340 -0.10600
C 	C 	0.41620 0.03270 0.98000 0.04700
H 	H 	0.39000 0.02410 0.99700 0.04400
N 	N 	0.29410 0.07610 0.08070 -0.21400
C 	C 	0.30760 0.02980 0.07590 0.03600
C 	C 	0.27460 0.99600 0.06520 -0.01500
C 	C 	0.22820 0.00840 0.05940 0.01900
C 	C 	0.21470 0.05470 0.06430 -0.01700
C 	C 	0.24760 0.08850 0.07490 0.04100
O 	O 	0.38640 0.08830 0.05170 -0.42700
O 	O 	0.45220 0.13010 0.05020 -0.27900
C 	C 	0.57490 0.59870 0.46520 0.33900
C 	C 	0.55880 0.57050 0.50660 -0.10600
C 	C 	0.58380 0.53270 0.52000 0.04700
H 	H 	0.61000 0.52410 0.50300 0.04400
N 	N 	0.70590 0.57610 0.41930 -0.21400
C 	C 	0.69240 0.52980 0.42410 0.03600
C 	C 	0.72540 0.49600 0.43480 -0.01500
C 	C 	0.77180 0.50840 0.44060 0.01900
C 	C 	0.78530 0.55470 0.43570 -0.01700
C 	C 	0.75240 0.58850 0.42510 0.04100
O 	O 	0.61360 0.58830 0.44830 -0.42700
O 	O 	0.54780 0.63010 0.44980 -0.27900
C 	C 	0.67510 0.21520 0.84870 0.33900
C 	C 	0.69120 0.25660 0.82050 -0.10600
C 	C 	0.66620 0.27000 0.78270 0.04700
H 	H 	0.64000 0.25300 0.77410 0.04400
N 	N 	0.54410 0.16930 0.82610 -0.21400
C 	C 	0.55760 0.17410 0.77980 0.03600
C 	C 	0.52460 0.18480 0.74600 -0.01500
C 	C 	0.47820 0.19060 0.75840 0.01900
C 	C 	0.46470 0.18570 0.80470 -0.01700
C 	C 	0.49760 0.17510 0.83850 0.04100
O 	O 	0.63640 0.19830 0.83830 -0.42700
O 	O 	0.70220 0.19980 0.88010 -0.27900
C 	C 	0.82490 0.78480 0.34870 0.33900
C 	C 	0.80880 0.74340 0.32050 -0.10600
C 	C 	0.83380 0.73000 0.28270 0.04700
H 	H 	0.86000 0.74700 0.27410 0.04400
N 	N 	0.95590 0.83070 0.32610 -0.21400
C 	C 	0.94240 0.82590 0.27980 0.03600
C 	C 	0.97540 0.81520 0.24600 -0.01500
C 	C 	0.02180 0.80940 0.25840 0.01900
C 	C 	0.03530 0.81430 0.30470 -0.01700
C 	C 	0.00240 0.82490 0.33850 0.04100
O 	O 	0.86360 0.80170 0.33830 -0.42700
O 	O 	0.79780 0.80020 0.38010 -0.27900
C 	C 	0.17510 0.28480 0.15130 0.33900
C 	C 	0.19120 0.24340 0.17950 -0.10600
C 	C 	0.16620 0.23000 0.21730 0.04700
H 	H 	0.14000 0.24700 0.22590 0.04400
N 	N 	0.04410 0.33070 0.17390 -0.21400
C 	C 	0.05760 0.32590 0.22020 0.03600
C 	C 	0.02460 0.31520 0.25400 -0.01500
C 	C 	0.97820 0.30940 0.24160 0.01900
C 	C 	0.96470 0.31430 0.19530 -0.01700
C 	C 	0.99760 0.32490 0.16150 0.04100
O 	O 	0.13640 0.30170 0.16170 -0.42700
O 	O 	0.20220 0.30020 0.11990 -0.27900
C 	C 	0.32490 0.71520 0.65130 0.33900
C 	C 	0.30880 0.75660 0.67950 -0.10600
C 	C 	0.33380 0.77000 0.71730 0.04700
H 	H 	0.36000 0.75300 0.72590 0.04400
N 	N 	0.45590 0.66930 0.67390 -0.21400
C 	C 	0.44240 0.67410 0.72020 0.03600
C 	C 	0.47540 0.68480 0.75400 -0.01500
C 	C 	0.52180 0.69060 0.74160 0.01900
C 	C 	0.53530 0.68570 0.69530 -0.01700
C 	C 	0.50240 0.67510 0.66150 0.04100
O 	O 	0.36360 0.69830 0.66170 -0.42700
O 	O 	0.29780 0.69980 0.61990 -0.27900
C 	C 	0.71520 0.65130 0.32490 0.33900
C 	C 	0.75660 0.67950 0.30880 -0.10600
C 	C 	0.77000 0.71730 0.33380 0.04700
H 	H 	0.75300 0.72590 0.36000 0.04400
N 	N 	0.66930 0.67390 0.45590 -0.21400
C 	C 	0.67410 0.72020 0.44240 0.03600
C 	C 	0.68480 0.75400 0.47540 -0.01500
C 	C 	0.69060 0.74160 0.52180 0.01900
C 	C 	0.68570 0.69530 0.53530 -0.01700
C 	C 	0.67510 0.66150 0.50240 0.04100
O 	O 	0.69830 0.66170 0.36360 -0.42700
O 	O 	0.69980 0.61990 0.29780 -0.27900
C 	C 	0.28480 0.15130 0.17510 0.33900
C 	C 	0.24340 0.17950 0.19120 -0.10600
C 	C 	0.23000 0.21730 0.16620 0.04700
H 	H 	0.24700 0.22590 0.14000 0.04400
N 	N 	0.33070 0.17390 0.04410 -0.21400
C 	C 	0.32590 0.22020 0.05760 0.03600
C 	C 	0.31520 0.25400 0.02460 -0.01500
C 	C 	0.30940 0.24160 0.97820 0.01900
C 	C 	0.31430 0.19530 0.96470 -0.01700
C 	C 	0.32490 0.16150 0.99760 0.04100
O 	O 	0.30170 0.16170 0.13640 -0.42700
O 	O 	0.30020 0.11990 0.20220 -0.27900
C 	C 	0.78480 0.34870 0.82490 0.33900
C 	C 	0.74340 0.32050 0.80880 -0.10600
C 	C 	0.73000 0.28270 0.83380 0.04700
H 	H 	0.74700 0.27410 0.86000 0.04400
N 	N 	0.83070 0.32610 0.95590 -0.21400
C 	C 	0.82590 0.27980 0.94240 0.03600
C 	C 	0.81520 0.24600 0.97540 -0.01500
C 	C 	0.80940 0.25840 0.02180 0.01900
C 	C 	0.81430 0.30470 0.03530 -0.01700
C 	C 	0.82490 0.33850 0.00240 0.04100
O 	O 	0.80170 0.33830 0.86360 -0.42700
O 	O 	0.80020 0.38010 0.79780 -0.27900
C 	C 	0.21520 0.84870 0.67510 0.33900
C 	C 	0.25660 0.82050 0.69120 -0.10600
C 	C 	0.27000 0.78270 0.66620 0.04700
H 	H 	0.25300 0.77410 0.64000 0.04400
N 	N 	0.16930 0.82610 0.54410 -0.21400
C 	C 	0.17410 0.77980 0.55760 0.03600
C 	C 	0.18480 0.74600 0.52460 -0.01500
C 	C 	0.19060 0.75840 0.47820 0.01900
C 	C 	0.18570 0.80470 0.46470 -0.01700
C 	C 	0.17510 0.83850 0.49760 0.04100
O 	O 	0.19830 0.83830 0.63640 -0.42700
O 	O 	0.19980 0.88010 0.70220 -0.27900
C 	C 	0.15130 0.17510 0.28480 0.33900
C 	C 	0.17950 0.19120 0.24340 -0.10600
C 	C 	0.21730 0.16620 0.23000 0.04700
H 	H 	0.22590 0.14000 0.24700 0.04400
N 	N 	0.17390 0.04410 0.33070 -0.21400
C 	C 	0.22020 0.05760 0.32590 0.03600
C 	C 	0.25400 0.02460 0.31520 -0.01500
C 	C 	0.24160 0.97820 0.30940 0.01900
C 	C 	0.19530 0.96470 0.31430 -0.01700
C 	C 	0.16150 0.99760 0.32490 0.04100
O 	O 	0.16170 0.13640 0.30170 -0.42700
O 	O 	0.11990 0.20220 0.30020 -0.27900
C 	C 	0.65130 0.32490 0.71520 0.33900
C 	C 	0.67950 0.30880 0.75660 -0.10600
C 	C 	0.71730 0.33380 0.77000 0.04700
H 	H 	0.72590 0.36000 0.75300 0.04400
N 	N 	0.67390 0.45590 0.66930 -0.21400
C 	C 	0.72020 0.44240 0.67410 0.03600
C 	C 	0.75400 0.47540 0.68480 -0.01500
C 	C 	0.74160 0.52180 0.69060 0.01900
C 	C 	0.69530 0.53530 0.68570 -0.01700
C 	C 	0.66150 0.50240 0.67510 0.04100
O 	O 	0.66170 0.36360 0.69830 -0.42700
O 	O 	0.61990 0.29780 0.69980 -0.27900
C 	C 	0.84870 0.67510 0.21520 0.33900
C 	C 	0.82050 0.69120 0.25660 -0.10600
C 	C 	0.78270 0.66620 0.27000 0.04700
H 	H 	0.77410 0.64000 0.25300 0.04400
N 	N 	0.82610 0.54410 0.16930 -0.21400
C 	C 	0.77980 0.55760 0.17410 0.03600
C 	C 	0.74600 0.52460 0.18480 -0.01500
C 	C 	0.75840 0.47820 0.19060 0.01900
C 	C 	0.80470 0.46470 0.18570 -0.01700
C 	C 	0.83850 0.49760 0.17510 0.04100
O 	O 	0.83830 0.63640 0.19830 -0.42700
O 	O 	0.88010 0.70220 0.19980 -0.27900
C 	C 	0.34870 0.82490 0.78480 0.33900
C 	C 	0.32050 0.80880 0.74340 -0.10600
C 	C 	0.28270 0.83380 0.73000 0.04700
H 	H 	0.27410 0.86000 0.74700 0.04400
N 	N 	0.32610 0.95590 0.83070 -0.21400
C 	C 	0.27980 0.94240 0.82590 0.03600
C 	C 	0.24600 0.97540 0.81520 -0.01500
C 	C 	0.25840 0.02180 0.80940 0.01900
C 	C 	0.30470 0.03530 0.81430 -0.01700
C 	C 	0.33850 0.00240 0.82490 0.04100
O 	O 	0.33830 0.86360 0.80170 -0.42700
O 	O 	0.38010 0.79780 0.80020 -0.27900
Ni	Ni	0.90420 0.84580 0.37500 1.06500
Ni	Ni	0.59580 0.15420 0.87500 1.06500
Ni	Ni	0.09580 0.34580 0.12500 1.06500
Ni	Ni	0.40420 0.65420 0.62500 1.06500
Ni	Ni	0.37500 0.90420 0.84580 1.06500
Ni	Ni	0.87500 0.59580 0.15420 1.06500
Ni	Ni	0.12500 0.09580 0.34580 1.06500
Ni	Ni	0.62500 0.40420 0.65420 1.06500
Ni	Ni	0.84580 0.37500 0.90420 1.06500
Ni	Ni	0.15420 0.87500 0.59580 1.06500
Ni	Ni	0.34580 0.12500 0.09580 1.06500
Ni	Ni	0.65420 0.62500 0.40420 1.06500
