data_crystal

_cell_length_a 28.80370
_cell_length_b 28.80370
_cell_length_c 28.80370
_cell_angle_alpha 90.00000
_cell_angle_beta  90.00000
_cell_angle_gamma 90.00000

_symmetry_space_group_name_	'P 1'
_symmetry_space_group_name_H-M	'P 1'

loop_
_symmetry_equiv_pos_as_xyz
  x,y,z

loop_
_atom_site_label
_atom_site_type_symbol
_atom_site_fract_x
_atom_site_fract_y
_atom_site_fract_z
_atom_site_charge
C 	C 	0.96500 0.57350 0.90150 0.34000
C 	C 	0.00620 0.55890 0.92950 -0.11200
C 	C 	0.01960 0.58390 0.96780 0.04500
H 	H 	0.00260 0.60980 0.97670 0.04000
C 	C 	0.83930 0.58340 0.84720 0.09000
H 	H 	0.81690 0.60410 0.83200 0.02200
C 	C 	0.83490 0.53540 0.82510 -0.01700
C 	C 	0.83890 0.53200 0.77170 0.01300
C 	C 	0.87700 0.53200 0.73520 0.00000
C 	C 	0.92450 0.69400 0.96630 0.08500
H 	H 	0.92110 0.66290 0.97430 0.01400
C 	C 	0.93420 0.72640 0.00300 -0.15500
H 	H 	0.93610 0.71710 0.03380 0.09700
C 	C 	0.94040 0.77050 0.99050 0.09800
H 	H 	0.94800 0.79240 0.01290 0.01300
C 	C 	0.93600 0.78320 0.94790 -0.15900
H 	H 	0.93940 0.81440 0.94010 0.08900
C 	C 	0.92560 0.74880 0.91130 0.09100
H 	H 	0.92300 0.75830 0.88060 -0.00800
N 	N 	0.92010 0.70530 0.92170 -0.23500
O 	O 	0.94836 0.61240 0.91144 -0.40500
O 	O 	0.94951 0.54710 0.86990 -0.29500
O 	O 	0.88350 0.59721 0.83440 -0.50800
H 	H 	0.90260 0.57980 0.84630 0.27500
C 	C 	0.53500 0.42650 0.40150 0.34000
C 	C 	0.49380 0.44110 0.42950 -0.11200
C 	C 	0.48040 0.41610 0.46780 0.04500
H 	H 	0.49740 0.39020 0.47670 0.04000
C 	C 	0.66070 0.41660 0.34720 0.09000
H 	H 	0.68310 0.39590 0.33200 0.02200
C 	C 	0.66510 0.46460 0.32510 -0.01700
C 	C 	0.66110 0.46800 0.27170 0.01300
C 	C 	0.62300 0.46800 0.23520 0.00000
C 	C 	0.57550 0.30600 0.46630 0.08500
H 	H 	0.57890 0.33710 0.47430 0.01400
C 	C 	0.56580 0.27360 0.50300 -0.15400
H 	H 	0.56390 0.28290 0.53380 0.09700
C 	C 	0.55960 0.22950 0.49050 0.09800
H 	H 	0.55200 0.20760 0.51290 0.01400
C 	C 	0.56400 0.21680 0.44790 -0.15900
H 	H 	0.56060 0.18560 0.44010 0.08900
C 	C 	0.57440 0.25120 0.41130 0.09100
H 	H 	0.57700 0.24170 0.38060 -0.00800
N 	N 	0.57990 0.29470 0.42170 -0.23500
O 	O 	0.55164 0.38760 0.41144 -0.40500
O 	O 	0.55049 0.45290 0.36990 -0.29500
O 	O 	0.61650 0.40279 0.33440 -0.50800
H 	H 	0.59740 0.42020 0.34630 0.27500
C 	C 	0.03500 0.07350 0.59850 0.34000
C 	C 	0.99380 0.05890 0.57050 -0.11200
C 	C 	0.98040 0.08390 0.53220 0.04500
H 	H 	0.99740 0.10980 0.52330 0.04000
C 	C 	0.16070 0.08340 0.65280 0.09000
H 	H 	0.18310 0.10410 0.66800 0.02200
C 	C 	0.16510 0.03540 0.67490 -0.01700
C 	C 	0.16110 0.03200 0.72830 0.01300
C 	C 	0.12300 0.03200 0.76480 0.00000
C 	C 	0.07550 0.19400 0.53370 0.08500
H 	H 	0.07890 0.16290 0.52570 0.01400
C 	C 	0.06580 0.22640 0.49700 -0.15400
H 	H 	0.06390 0.21710 0.46620 0.09700
C 	C 	0.05960 0.27050 0.50950 0.09800
H 	H 	0.05200 0.29240 0.48710 0.01400
C 	C 	0.06400 0.28320 0.55210 -0.15900
H 	H 	0.06060 0.31440 0.55990 0.08900
C 	C 	0.07440 0.24880 0.58870 0.09100
H 	H 	0.07700 0.25830 0.61940 -0.00800
N 	N 	0.07990 0.20530 0.57830 -0.23500
O 	O 	0.05164 0.11240 0.58856 -0.40500
O 	O 	0.05049 0.04710 0.63010 -0.29500
O 	O 	0.11650 0.09721 0.66560 -0.50800
H 	H 	0.09740 0.07980 0.65370 0.27500
C 	C 	0.46500 0.92650 0.09850 0.34100
C 	C 	0.50620 0.94110 0.07050 -0.11100
C 	C 	0.51960 0.91610 0.03220 0.04600
H 	H 	0.50260 0.89020 0.02330 0.04100
C 	C 	0.33930 0.91660 0.15280 0.09100
H 	H 	0.31690 0.89590 0.16800 0.02300
C 	C 	0.33490 0.96460 0.17490 -0.01600
C 	C 	0.33890 0.96800 0.22830 0.01400
C 	C 	0.37700 0.96800 0.26480 0.00100
C 	C 	0.42450 0.80600 0.03370 0.08600
H 	H 	0.42110 0.83710 0.02570 0.01500
C 	C 	0.43420 0.77360 0.99700 -0.15300
H 	H 	0.43610 0.78290 0.96620 0.09800
C 	C 	0.44040 0.72950 0.00950 0.09900
H 	H 	0.44800 0.70760 0.98710 0.01500
C 	C 	0.43600 0.71680 0.05210 -0.15800
H 	H 	0.43940 0.68560 0.05990 0.09000
C 	C 	0.42560 0.75120 0.08870 0.09100
H 	H 	0.42300 0.74170 0.11940 -0.00700
N 	N 	0.42010 0.79470 0.07830 -0.23400
O 	O 	0.44836 0.88760 0.08856 -0.40400
O 	O 	0.44951 0.95290 0.13010 -0.29400
O 	O 	0.38350 0.90279 0.16560 -0.50700
H 	H 	0.40260 0.92020 0.15370 0.27600
C 	C 	0.90150 0.96500 0.57350 0.34100
C 	C 	0.92950 0.00620 0.55890 -0.11100
C 	C 	0.96780 0.01960 0.58390 0.04600
H 	H 	0.97670 0.00260 0.60980 0.04100
C 	C 	0.84720 0.83930 0.58340 0.09100
H 	H 	0.83200 0.81690 0.60410 0.02300
C 	C 	0.82510 0.83490 0.53540 -0.01600
C 	C 	0.77170 0.83890 0.53200 0.01400
C 	C 	0.73520 0.87700 0.53200 0.00100
C 	C 	0.96630 0.92450 0.69400 0.08600
H 	H 	0.97430 0.92110 0.66290 0.01500
C 	C 	0.00300 0.93420 0.72640 -0.15400
H 	H 	0.03380 0.93610 0.71710 0.09800
C 	C 	0.99050 0.94040 0.77050 0.09900
H 	H 	0.01290 0.94800 0.79240 0.01400
C 	C 	0.94790 0.93600 0.78320 -0.15800
H 	H 	0.94010 0.93940 0.81440 0.09000
C 	C 	0.91130 0.92560 0.74880 0.09200
H 	H 	0.88060 0.92300 0.75830 -0.00700
N 	N 	0.92170 0.92010 0.70530 -0.23400
O 	O 	0.91144 0.94836 0.61240 -0.40400
O 	O 	0.86990 0.94951 0.54710 -0.29400
O 	O 	0.83440 0.88350 0.59721 -0.50700
H 	H 	0.84630 0.90260 0.57980 0.27600
C 	C 	0.40150 0.53500 0.42650 0.34100
C 	C 	0.42950 0.49380 0.44110 -0.11100
C 	C 	0.46780 0.48040 0.41610 0.04600
H 	H 	0.47670 0.49740 0.39020 0.04100
C 	C 	0.34720 0.66070 0.41660 0.09100
H 	H 	0.33200 0.68310 0.39590 0.02300
C 	C 	0.32510 0.66510 0.46460 -0.01600
C 	C 	0.27170 0.66110 0.46800 0.01400
C 	C 	0.23520 0.62300 0.46800 0.00100
C 	C 	0.46630 0.57550 0.30600 0.08600
H 	H 	0.47430 0.57890 0.33710 0.01500
C 	C 	0.50300 0.56580 0.27360 -0.15300
H 	H 	0.53380 0.56390 0.28290 0.09800
C 	C 	0.49050 0.55960 0.22950 0.09900
H 	H 	0.51290 0.55200 0.20760 0.01500
C 	C 	0.44790 0.56400 0.21680 -0.15800
H 	H 	0.44010 0.56060 0.18560 0.09000
C 	C 	0.41130 0.57440 0.25120 0.09200
H 	H 	0.38060 0.57700 0.24170 -0.00700
N 	N 	0.42170 0.57990 0.29470 -0.23400
O 	O 	0.41144 0.55164 0.38760 -0.40400
O 	O 	0.36990 0.55049 0.45290 -0.29400
O 	O 	0.33440 0.61650 0.40279 -0.50700
H 	H 	0.34630 0.59740 0.42020 0.27600
C 	C 	0.59850 0.03500 0.07350 0.34100
C 	C 	0.57050 0.99380 0.05890 -0.11100
C 	C 	0.53220 0.98040 0.08390 0.04600
H 	H 	0.52330 0.99740 0.10980 0.04100
C 	C 	0.65280 0.16070 0.08340 0.09100
H 	H 	0.66800 0.18310 0.10410 0.02300
C 	C 	0.67490 0.16510 0.03540 -0.01600
C 	C 	0.72830 0.16110 0.03200 0.01400
C 	C 	0.76480 0.12300 0.03200 0.00100
C 	C 	0.53370 0.07550 0.19400 0.08600
H 	H 	0.52570 0.07890 0.16290 0.01500
C 	C 	0.49700 0.06580 0.22640 -0.15300
H 	H 	0.46620 0.06390 0.21710 0.09800
C 	C 	0.50950 0.05960 0.27050 0.09900
H 	H 	0.48710 0.05200 0.29240 0.01500
C 	C 	0.55210 0.06400 0.28320 -0.15800
H 	H 	0.55990 0.06060 0.31440 0.09000
C 	C 	0.58870 0.07440 0.24880 0.09200
H 	H 	0.61940 0.07700 0.25830 -0.00700
N 	N 	0.57830 0.07990 0.20530 -0.23400
O 	O 	0.58856 0.05164 0.11240 -0.40400
O 	O 	0.63010 0.05049 0.04710 -0.29400
O 	O 	0.66560 0.11650 0.09721 -0.50700
H 	H 	0.65370 0.09740 0.07980 0.27600
C 	C 	0.09850 0.46500 0.92650 0.34100
C 	C 	0.07050 0.50620 0.94110 -0.11100
C 	C 	0.03220 0.51960 0.91610 0.04600
H 	H 	0.02330 0.50260 0.89020 0.04100
C 	C 	0.15280 0.33930 0.91660 0.09100
H 	H 	0.16800 0.31690 0.89590 0.02300
C 	C 	0.17490 0.33490 0.96460 -0.01600
C 	C 	0.22830 0.33890 0.96800 0.01400
C 	C 	0.26480 0.37700 0.96800 0.00100
C 	C 	0.03370 0.42450 0.80600 0.08600
H 	H 	0.02570 0.42110 0.83710 0.01500
C 	C 	0.99700 0.43420 0.77360 -0.15300
H 	H 	0.96620 0.43610 0.78290 0.09800
C 	C 	0.00950 0.44040 0.72950 0.09900
H 	H 	0.98710 0.44800 0.70760 0.01500
C 	C 	0.05210 0.43600 0.71680 -0.15800
H 	H 	0.05990 0.43940 0.68560 0.09000
C 	C 	0.08870 0.42560 0.75120 0.09100
H 	H 	0.11940 0.42300 0.74170 -0.00700
N 	N 	0.07830 0.42010 0.79470 -0.23400
O 	O 	0.08856 0.44836 0.88760 -0.40400
O 	O 	0.13010 0.44951 0.95290 -0.29400
O 	O 	0.16560 0.38350 0.90279 -0.50700
H 	H 	0.15370 0.40260 0.92020 0.27600
C 	C 	0.57350 0.90150 0.96500 0.34100
C 	C 	0.55890 0.92950 0.00620 -0.11100
C 	C 	0.58390 0.96780 0.01960 0.04600
H 	H 	0.60980 0.97670 0.00260 0.04100
C 	C 	0.58340 0.84720 0.83930 0.09100
H 	H 	0.60410 0.83200 0.81690 0.02300
C 	C 	0.53540 0.82510 0.83490 -0.01600
C 	C 	0.53200 0.77170 0.83890 0.01400
C 	C 	0.53200 0.73520 0.87700 0.00100
C 	C 	0.69400 0.96630 0.92450 0.08600
H 	H 	0.66290 0.97430 0.92110 0.01500
C 	C 	0.72640 0.00300 0.93420 -0.15400
H 	H 	0.71710 0.03380 0.93610 0.09800
C 	C 	0.77050 0.99050 0.94040 0.09900
H 	H 	0.79240 0.01290 0.94800 0.01400
C 	C 	0.78320 0.94790 0.93600 -0.15800
H 	H 	0.81440 0.94010 0.93940 0.09000
C 	C 	0.74880 0.91130 0.92560 0.09200
H 	H 	0.75830 0.88060 0.92300 -0.00700
N 	N 	0.70530 0.92170 0.92010 -0.23400
O 	O 	0.61240 0.91144 0.94836 -0.40400
O 	O 	0.54710 0.86990 0.94951 -0.29400
O 	O 	0.59721 0.83440 0.88350 -0.50700
H 	H 	0.57980 0.84630 0.90260 0.27600
C 	C 	0.42650 0.40150 0.53500 0.34100
C 	C 	0.44110 0.42950 0.49380 -0.11100
C 	C 	0.41610 0.46780 0.48040 0.04600
H 	H 	0.39020 0.47670 0.49740 0.04100
C 	C 	0.41660 0.34720 0.66070 0.09100
H 	H 	0.39590 0.33200 0.68310 0.02300
C 	C 	0.46460 0.32510 0.66510 -0.01600
C 	C 	0.46800 0.27170 0.66110 0.01400
C 	C 	0.46800 0.23520 0.62300 0.00100
C 	C 	0.30600 0.46630 0.57550 0.08600
H 	H 	0.33710 0.47430 0.57890 0.01500
C 	C 	0.27360 0.50300 0.56580 -0.15300
H 	H 	0.28290 0.53380 0.56390 0.09800
C 	C 	0.22950 0.49050 0.55960 0.09900
H 	H 	0.20760 0.51290 0.55200 0.01500
C 	C 	0.21680 0.44790 0.56400 -0.15800
H 	H 	0.18560 0.44010 0.56060 0.09000
C 	C 	0.25120 0.41130 0.57440 0.09200
H 	H 	0.24170 0.38060 0.57700 -0.00700
N 	N 	0.29470 0.42170 0.57990 -0.23400
O 	O 	0.38760 0.41144 0.55164 -0.40400
O 	O 	0.45290 0.36990 0.55049 -0.29400
O 	O 	0.40279 0.33440 0.61650 -0.50700
H 	H 	0.42020 0.34630 0.59740 0.27600
C 	C 	0.07350 0.59850 0.03500 0.34100
C 	C 	0.05890 0.57050 0.99380 -0.11100
C 	C 	0.08390 0.53220 0.98040 0.04600
H 	H 	0.10980 0.52330 0.99740 0.04100
C 	C 	0.08340 0.65280 0.16070 0.09100
H 	H 	0.10410 0.66800 0.18310 0.02300
C 	C 	0.03540 0.67490 0.16510 -0.01600
C 	C 	0.03200 0.72830 0.16110 0.01400
C 	C 	0.03200 0.76480 0.12300 0.00100
C 	C 	0.19400 0.53370 0.07550 0.08600
H 	H 	0.16290 0.52570 0.07890 0.01500
C 	C 	0.22640 0.49700 0.06580 -0.15300
H 	H 	0.21710 0.46620 0.06390 0.09800
C 	C 	0.27050 0.50950 0.05960 0.09900
H 	H 	0.29240 0.48710 0.05200 0.01500
C 	C 	0.28320 0.55210 0.06400 -0.15800
H 	H 	0.31440 0.55990 0.06060 0.09000
C 	C 	0.24880 0.58870 0.07440 0.09200
H 	H 	0.25830 0.61940 0.07700 -0.00700
N 	N 	0.20530 0.57830 0.07990 -0.23400
O 	O 	0.11240 0.58856 0.05164 -0.40400
O 	O 	0.04710 0.63010 0.05049 -0.29400
O 	O 	0.09721 0.66560 0.11650 -0.50700
H 	H 	0.07980 0.65370 0.09740 0.27600
C 	C 	0.92650 0.09850 0.46500 0.34100
C 	C 	0.94110 0.07050 0.50620 -0.11100
C 	C 	0.91610 0.03220 0.51960 0.04600
H 	H 	0.89020 0.02330 0.50260 0.04100
C 	C 	0.91660 0.15280 0.33930 0.09100
H 	H 	0.89590 0.16800 0.31690 0.02300
C 	C 	0.96460 0.17490 0.33490 -0.01600
C 	C 	0.96800 0.22830 0.33890 0.01400
C 	C 	0.96800 0.26480 0.37700 0.00100
C 	C 	0.80600 0.03370 0.42450 0.08600
H 	H 	0.83710 0.02570 0.42110 0.01500
C 	C 	0.77360 0.99700 0.43420 -0.15300
H 	H 	0.78290 0.96620 0.43610 0.09800
C 	C 	0.72950 0.00950 0.44040 0.09900
H 	H 	0.70760 0.98710 0.44800 0.01500
C 	C 	0.71680 0.05210 0.43600 -0.15800
H 	H 	0.68560 0.05990 0.43940 0.09000
C 	C 	0.75120 0.08870 0.42560 0.09100
H 	H 	0.74170 0.11940 0.42300 -0.00700
N 	N 	0.79470 0.07830 0.42010 -0.23400
O 	O 	0.88760 0.08856 0.44836 -0.40400
O 	O 	0.95290 0.13010 0.44951 -0.29400
O 	O 	0.90279 0.16560 0.38350 -0.50700
H 	H 	0.92020 0.15370 0.40260 0.27600
C 	C 	0.82350 0.71500 0.84850 0.34100
C 	C 	0.80890 0.75620 0.82050 -0.11100
C 	C 	0.83390 0.76960 0.78220 0.04600
H 	H 	0.85980 0.75260 0.77330 0.04100
C 	C 	0.83340 0.58930 0.90280 0.09100
H 	H 	0.85410 0.56690 0.91800 0.02300
C 	C 	0.78540 0.58490 0.92490 -0.01600
C 	C 	0.78200 0.58890 0.97830 0.01400
C 	C 	0.78200 0.62700 0.01480 0.00100
C 	C 	0.94400 0.67450 0.78370 0.08600
H 	H 	0.91290 0.67110 0.77570 0.01500
C 	C 	0.97640 0.68420 0.74700 -0.15300
H 	H 	0.96710 0.68610 0.71620 0.09800
C 	C 	0.02050 0.69040 0.75950 0.09900
H 	H 	0.04240 0.69800 0.73710 0.01500
C 	C 	0.03320 0.68600 0.80210 -0.15800
H 	H 	0.06440 0.68940 0.80990 0.09000
C 	C 	0.99880 0.67560 0.83870 0.09200
H 	H 	0.00830 0.67300 0.86940 -0.00700
N 	N 	0.95530 0.67010 0.82830 -0.23400
O 	O 	0.86240 0.69836 0.83856 -0.40400
O 	O 	0.79710 0.69951 0.88010 -0.29400
O 	O 	0.84721 0.63350 0.91560 -0.50700
H 	H 	0.82980 0.65260 0.90370 0.27600
C 	C 	0.67650 0.28500 0.34850 0.34100
C 	C 	0.69110 0.24380 0.32050 -0.11100
C 	C 	0.66610 0.23040 0.28220 0.04600
H 	H 	0.64020 0.24740 0.27330 0.04100
C 	C 	0.66660 0.41070 0.40280 0.09100
H 	H 	0.64590 0.43310 0.41800 0.02300
C 	C 	0.71460 0.41510 0.42490 -0.01600
C 	C 	0.71800 0.41110 0.47830 0.01400
C 	C 	0.71800 0.37300 0.51480 0.00100
C 	C 	0.55600 0.32550 0.28370 0.08600
H 	H 	0.58710 0.32890 0.27570 0.01500
C 	C 	0.52360 0.31580 0.24700 -0.15300
H 	H 	0.53290 0.31390 0.21620 0.09800
C 	C 	0.47950 0.30960 0.25950 0.09900
H 	H 	0.45760 0.30200 0.23710 0.01500
C 	C 	0.46680 0.31400 0.30210 -0.15800
H 	H 	0.43560 0.31060 0.30990 0.09000
C 	C 	0.50120 0.32440 0.33870 0.09200
H 	H 	0.49170 0.32700 0.36940 -0.00700
N 	N 	0.54470 0.32990 0.32830 -0.23400
O 	O 	0.63760 0.30164 0.33856 -0.40400
O 	O 	0.70290 0.30049 0.38010 -0.29400
O 	O 	0.65279 0.36650 0.41560 -0.50700
H 	H 	0.67020 0.34740 0.40370 0.27600
C 	C 	0.32350 0.78500 0.15150 0.34100
C 	C 	0.30890 0.74380 0.17950 -0.11100
C 	C 	0.33390 0.73040 0.21780 0.04600
H 	H 	0.35980 0.74740 0.22670 0.04100
C 	C 	0.33340 0.91070 0.09720 0.09100
H 	H 	0.35410 0.93310 0.08200 0.02300
C 	C 	0.28540 0.91510 0.07510 -0.01600
C 	C 	0.28200 0.91110 0.02170 0.01400
C 	C 	0.28200 0.87300 0.98520 0.00100
C 	C 	0.44400 0.82550 0.21630 0.08600
H 	H 	0.41290 0.82890 0.22430 0.01500
C 	C 	0.47640 0.81580 0.25300 -0.15300
H 	H 	0.46710 0.81390 0.28380 0.09800
C 	C 	0.52050 0.80960 0.24050 0.09900
H 	H 	0.54240 0.80200 0.26290 0.01500
C 	C 	0.53320 0.81400 0.19790 -0.15800
H 	H 	0.56440 0.81060 0.19010 0.09000
C 	C 	0.49880 0.82440 0.16130 0.09200
H 	H 	0.50830 0.82700 0.13060 -0.00700
N 	N 	0.45530 0.82990 0.17170 -0.23400
O 	O 	0.36240 0.80164 0.16144 -0.40400
O 	O 	0.29710 0.80049 0.11990 -0.29400
O 	O 	0.34721 0.86650 0.08440 -0.50700
H 	H 	0.32980 0.84740 0.09630 0.27600
C 	C 	0.17650 0.21500 0.65150 0.34100
C 	C 	0.19110 0.25620 0.67950 -0.11100
C 	C 	0.16610 0.26960 0.71780 0.04600
H 	H 	0.14020 0.25260 0.72670 0.04100
C 	C 	0.16660 0.08930 0.59720 0.09100
H 	H 	0.14590 0.06690 0.58200 0.02300
C 	C 	0.21460 0.08490 0.57510 -0.01600
C 	C 	0.21800 0.08890 0.52170 0.01400
C 	C 	0.21800 0.12700 0.48520 0.00100
C 	C 	0.05600 0.17450 0.71630 0.08600
H 	H 	0.08710 0.17110 0.72430 0.01500
C 	C 	0.02360 0.18420 0.75300 -0.15300
H 	H 	0.03290 0.18610 0.78380 0.09800
C 	C 	0.97950 0.19040 0.74050 0.09900
H 	H 	0.95760 0.19800 0.76290 0.01500
C 	C 	0.96680 0.18600 0.69790 -0.15800
H 	H 	0.93560 0.18940 0.69010 0.09000
C 	C 	0.00120 0.17560 0.66130 0.09100
H 	H 	0.99170 0.17300 0.63060 -0.00700
N 	N 	0.04470 0.17010 0.67170 -0.23400
O 	O 	0.13760 0.19836 0.66144 -0.40400
O 	O 	0.20290 0.19951 0.61990 -0.29400
O 	O 	0.15279 0.13350 0.58440 -0.50700
H 	H 	0.17020 0.15260 0.59630 0.27600
C 	C 	0.21500 0.65150 0.17650 0.34100
C 	C 	0.25620 0.67950 0.19110 -0.11100
C 	C 	0.26960 0.71780 0.16610 0.04600
H 	H 	0.25260 0.72670 0.14020 0.04100
C 	C 	0.08930 0.59720 0.16660 0.09100
H 	H 	0.06690 0.58200 0.14590 0.02300
C 	C 	0.08490 0.57510 0.21460 -0.01600
C 	C 	0.08890 0.52170 0.21800 0.01400
C 	C 	0.12700 0.48520 0.21800 0.00100
C 	C 	0.17450 0.71630 0.05600 0.08600
H 	H 	0.17110 0.72430 0.08710 0.01500
C 	C 	0.18420 0.75300 0.02360 -0.15300
H 	H 	0.18610 0.78380 0.03290 0.09800
C 	C 	0.19040 0.74050 0.97950 0.09900
H 	H 	0.19800 0.76290 0.95760 0.01500
C 	C 	0.18600 0.69790 0.96680 -0.15800
H 	H 	0.18940 0.69010 0.93560 0.09000
C 	C 	0.17560 0.66130 0.00120 0.09100
H 	H 	0.17300 0.63060 0.99170 -0.00700
N 	N 	0.17010 0.67170 0.04470 -0.23400
O 	O 	0.19836 0.66144 0.13760 -0.40400
O 	O 	0.19951 0.61990 0.20290 -0.29400
O 	O 	0.13350 0.58440 0.15279 -0.50700
H 	H 	0.15260 0.59630 0.17020 0.27600
C 	C 	0.78500 0.15150 0.32350 0.34100
C 	C 	0.74380 0.17950 0.30890 -0.11100
C 	C 	0.73040 0.21780 0.33390 0.04600
H 	H 	0.74740 0.22670 0.35980 0.04100
C 	C 	0.91070 0.09720 0.33340 0.09100
H 	H 	0.93310 0.08200 0.35410 0.02300
C 	C 	0.91510 0.07510 0.28540 -0.01600
C 	C 	0.91110 0.02170 0.28200 0.01400
C 	C 	0.87300 0.98520 0.28200 0.00100
C 	C 	0.82550 0.21630 0.44400 0.08600
H 	H 	0.82890 0.22430 0.41290 0.01500
C 	C 	0.81580 0.25300 0.47640 -0.15300
H 	H 	0.81390 0.28380 0.46710 0.09800
C 	C 	0.80960 0.24050 0.52050 0.09900
H 	H 	0.80200 0.26290 0.54240 0.01500
C 	C 	0.81400 0.19790 0.53320 -0.15800
H 	H 	0.81060 0.19010 0.56440 0.09000
C 	C 	0.82440 0.16130 0.49880 0.09200
H 	H 	0.82700 0.13060 0.50830 -0.00700
N 	N 	0.82990 0.17170 0.45530 -0.23400
O 	O 	0.80164 0.16144 0.36240 -0.40400
O 	O 	0.80049 0.11990 0.29710 -0.29400
O 	O 	0.86650 0.08440 0.34721 -0.50700
H 	H 	0.84740 0.09630 0.32980 0.27600
C 	C 	0.28500 0.34850 0.67650 0.34100
C 	C 	0.24380 0.32050 0.69110 -0.11100
C 	C 	0.23040 0.28220 0.66610 0.04600
H 	H 	0.24740 0.27330 0.64020 0.04100
C 	C 	0.41070 0.40280 0.66660 0.09100
H 	H 	0.43310 0.41800 0.64590 0.02300
C 	C 	0.41510 0.42490 0.71460 -0.01600
C 	C 	0.41110 0.47830 0.71800 0.01400
C 	C 	0.37300 0.51480 0.71800 0.00100
C 	C 	0.32550 0.28370 0.55600 0.08600
H 	H 	0.32890 0.27570 0.58710 0.01500
C 	C 	0.31580 0.24700 0.52360 -0.15300
H 	H 	0.31390 0.21620 0.53290 0.09800
C 	C 	0.30960 0.25950 0.47950 0.09900
H 	H 	0.30200 0.23710 0.45760 0.01500
C 	C 	0.31400 0.30210 0.46680 -0.15800
H 	H 	0.31060 0.30990 0.43560 0.09000
C 	C 	0.32440 0.33870 0.50120 0.09200
H 	H 	0.32700 0.36940 0.49170 -0.00700
N 	N 	0.32990 0.32830 0.54470 -0.23400
O 	O 	0.30164 0.33856 0.63760 -0.40400
O 	O 	0.30049 0.38010 0.70290 -0.29400
O 	O 	0.36650 0.41560 0.65279 -0.50700
H 	H 	0.34740 0.40370 0.67020 0.27600
C 	C 	0.71500 0.84850 0.82350 0.34100
C 	C 	0.75620 0.82050 0.80890 -0.11100
C 	C 	0.76960 0.78220 0.83390 0.04600
H 	H 	0.75260 0.77330 0.85980 0.04100
C 	C 	0.58930 0.90280 0.83340 0.09100
H 	H 	0.56690 0.91800 0.85410 0.02300
C 	C 	0.58490 0.92490 0.78540 -0.01600
C 	C 	0.58890 0.97830 0.78200 0.01400
C 	C 	0.62700 0.01480 0.78200 0.00100
C 	C 	0.67450 0.78370 0.94400 0.08600
H 	H 	0.67110 0.77570 0.91290 0.01500
C 	C 	0.68420 0.74700 0.97640 -0.15300
H 	H 	0.68610 0.71620 0.96710 0.09800
C 	C 	0.69040 0.75950 0.02050 0.09900
H 	H 	0.69800 0.73710 0.04240 0.01500
C 	C 	0.68600 0.80210 0.03320 -0.15800
H 	H 	0.68940 0.80990 0.06440 0.09000
C 	C 	0.67560 0.83870 0.99880 0.09200
H 	H 	0.67300 0.86940 0.00830 -0.00700
N 	N 	0.67010 0.82830 0.95530 -0.23400
O 	O 	0.69836 0.83856 0.86240 -0.40400
O 	O 	0.69951 0.88010 0.79710 -0.29400
O 	O 	0.63350 0.91560 0.84721 -0.50700
H 	H 	0.65260 0.90370 0.82980 0.27600
C 	C 	0.15150 0.32350 0.78500 0.34100
C 	C 	0.17950 0.30890 0.74380 -0.11100
C 	C 	0.21780 0.33390 0.73040 0.04600
H 	H 	0.22670 0.35980 0.74740 0.04100
C 	C 	0.09720 0.33340 0.91070 0.09100
H 	H 	0.08200 0.35410 0.93310 0.02300
C 	C 	0.07510 0.28540 0.91510 -0.01600
C 	C 	0.02170 0.28200 0.91110 0.01400
C 	C 	0.98520 0.28200 0.87300 0.00100
C 	C 	0.21630 0.44400 0.82550 0.08600
H 	H 	0.22430 0.41290 0.82890 0.01500
C 	C 	0.25300 0.47640 0.81580 -0.15300
H 	H 	0.28380 0.46710 0.81390 0.09800
C 	C 	0.24050 0.52050 0.80960 0.09900
H 	H 	0.26290 0.54240 0.80200 0.01500
C 	C 	0.19790 0.53320 0.81400 -0.15800
H 	H 	0.19010 0.56440 0.81060 0.09000
C 	C 	0.16130 0.49880 0.82440 0.09200
H 	H 	0.13060 0.50830 0.82700 -0.00700
N 	N 	0.17170 0.45530 0.82990 -0.23400
O 	O 	0.16144 0.36240 0.80164 -0.40400
O 	O 	0.11990 0.29710 0.80049 -0.29400
O 	O 	0.08440 0.34721 0.86650 -0.50700
H 	H 	0.09630 0.32980 0.84740 0.27600
C 	C 	0.65150 0.17650 0.21500 0.34100
C 	C 	0.67950 0.19110 0.25620 -0.11100
C 	C 	0.71780 0.16610 0.26960 0.04600
H 	H 	0.72670 0.14020 0.25260 0.04100
C 	C 	0.59720 0.16660 0.08930 0.09100
H 	H 	0.58200 0.14590 0.06690 0.02300
C 	C 	0.57510 0.21460 0.08490 -0.01600
C 	C 	0.52170 0.21800 0.08890 0.01400
C 	C 	0.48520 0.21800 0.12700 0.00100
C 	C 	0.71630 0.05600 0.17450 0.08600
H 	H 	0.72430 0.08710 0.17110 0.01500
C 	C 	0.75300 0.02360 0.18420 -0.15300
H 	H 	0.78380 0.03290 0.18610 0.09800
C 	C 	0.74050 0.97950 0.19040 0.09900
H 	H 	0.76290 0.95760 0.19800 0.01500
C 	C 	0.69790 0.96680 0.18600 -0.15800
H 	H 	0.69010 0.93560 0.18940 0.09000
C 	C 	0.66130 0.00120 0.17560 0.09100
H 	H 	0.63060 0.99170 0.17300 -0.00700
N 	N 	0.67170 0.04470 0.17010 -0.23400
O 	O 	0.66144 0.13760 0.19836 -0.40400
O 	O 	0.61990 0.20290 0.19951 -0.29400
O 	O 	0.58440 0.15279 0.13350 -0.50700
H 	H 	0.59630 0.17020 0.15260 0.27600
C 	C 	0.84850 0.82350 0.71500 0.34100
C 	C 	0.82050 0.80890 0.75620 -0.11100
C 	C 	0.78220 0.83390 0.76960 0.04600
H 	H 	0.77330 0.85980 0.75260 0.04100
C 	C 	0.90280 0.83340 0.58930 0.09100
H 	H 	0.91800 0.85410 0.56690 0.02300
C 	C 	0.92490 0.78540 0.58490 -0.01600
C 	C 	0.97830 0.78200 0.58890 0.01400
C 	C 	0.01480 0.78200 0.62700 0.00100
C 	C 	0.78370 0.94400 0.67450 0.08600
H 	H 	0.77570 0.91290 0.67110 0.01500
C 	C 	0.74700 0.97640 0.68420 -0.15300
H 	H 	0.71620 0.96710 0.68610 0.09800
C 	C 	0.75950 0.02050 0.69040 0.09900
H 	H 	0.73710 0.04240 0.69800 0.01500
C 	C 	0.80210 0.03320 0.68600 -0.15800
H 	H 	0.80990 0.06440 0.68940 0.09000
C 	C 	0.83870 0.99880 0.67560 0.09200
H 	H 	0.86940 0.00830 0.67300 -0.00700
N 	N 	0.82830 0.95530 0.67010 -0.23400
O 	O 	0.83856 0.86240 0.69836 -0.40400
O 	O 	0.88010 0.79710 0.69951 -0.29400
O 	O 	0.91560 0.84721 0.63350 -0.50700
H 	H 	0.90370 0.82980 0.65260 0.27600
C 	C 	0.34850 0.67650 0.28500 0.34100
C 	C 	0.32050 0.69110 0.24380 -0.11100
C 	C 	0.28220 0.66610 0.23040 0.04600
H 	H 	0.27330 0.64020 0.24740 0.04100
C 	C 	0.40280 0.66660 0.41070 0.09100
H 	H 	0.41800 0.64590 0.43310 0.02300
C 	C 	0.42490 0.71460 0.41510 -0.01600
C 	C 	0.47830 0.71800 0.41110 0.01400
C 	C 	0.51480 0.71800 0.37300 0.00100
C 	C 	0.28370 0.55600 0.32550 0.08600
H 	H 	0.27570 0.58710 0.32890 0.01500
C 	C 	0.24700 0.52360 0.31580 -0.15300
H 	H 	0.21620 0.53290 0.31390 0.09800
C 	C 	0.25950 0.47950 0.30960 0.09900
H 	H 	0.23710 0.45760 0.30200 0.01500
C 	C 	0.30210 0.46680 0.31400 -0.15800
H 	H 	0.30990 0.43560 0.31060 0.09000
C 	C 	0.33870 0.50120 0.32440 0.09200
H 	H 	0.36940 0.49170 0.32700 -0.00700
N 	N 	0.32830 0.54470 0.32990 -0.23400
O 	O 	0.33856 0.63760 0.30164 -0.40400
O 	O 	0.38010 0.70290 0.30049 -0.29400
O 	O 	0.41560 0.65279 0.36650 -0.50700
H 	H 	0.40370 0.67020 0.34740 0.27600
Ni	Ni	0.90407 0.65407 0.87500 1.11600
Ni	Ni	0.59593 0.34593 0.37500 1.11600
Ni	Ni	0.09593 0.15407 0.62500 1.11600
Ni	Ni	0.40407 0.84593 0.12500 1.11600
Ni	Ni	0.87500 0.90407 0.65407 1.11600
Ni	Ni	0.37500 0.59593 0.34593 1.11600
Ni	Ni	0.62500 0.09593 0.15407 1.11600
Ni	Ni	0.12500 0.40407 0.84593 1.11600
Ni	Ni	0.65407 0.87500 0.90407 1.11600
Ni	Ni	0.34593 0.37500 0.59593 1.11600
Ni	Ni	0.15407 0.62500 0.09593 1.11600
Ni	Ni	0.84593 0.12500 0.40407 1.11600
C 	C 	0.46500 0.07350 0.40150 0.34100
C 	C 	0.50620 0.05890 0.42950 -0.11100
C 	C 	0.51960 0.08390 0.46780 0.04600
H 	H 	0.50260 0.10980 0.47670 0.04100
C 	C 	0.33930 0.08340 0.34720 0.09100
H 	H 	0.31690 0.10410 0.33200 0.02300
C 	C 	0.33490 0.03540 0.32510 -0.01600
C 	C 	0.33890 0.03200 0.27170 0.01400
C 	C 	0.37700 0.03200 0.23520 0.00100
C 	C 	0.42450 0.19400 0.46630 0.08600
H 	H 	0.42110 0.16290 0.47430 0.01500
C 	C 	0.43420 0.22640 0.50300 -0.15300
H 	H 	0.43610 0.21710 0.53380 0.09800
C 	C 	0.44040 0.27050 0.49050 0.09900
H 	H 	0.44800 0.29240 0.51290 0.01500
C 	C 	0.43600 0.28320 0.44790 -0.15800
H 	H 	0.43940 0.31440 0.44010 0.09000
C 	C 	0.42560 0.24880 0.41130 0.09200
H 	H 	0.42300 0.25830 0.38060 -0.00700
N 	N 	0.42010 0.20530 0.42170 -0.23400
O 	O 	0.44836 0.11240 0.41144 -0.40400
O 	O 	0.44951 0.04710 0.36990 -0.29400
O 	O 	0.38350 0.09721 0.33440 -0.50700
H 	H 	0.40260 0.07980 0.34630 0.27600
C 	C 	0.03500 0.92650 0.90150 0.34100
C 	C 	0.99380 0.94110 0.92950 -0.11100
C 	C 	0.98040 0.91610 0.96780 0.04600
H 	H 	0.99740 0.89020 0.97670 0.04100
C 	C 	0.16070 0.91660 0.84720 0.09100
H 	H 	0.18310 0.89590 0.83200 0.02300
C 	C 	0.16510 0.96460 0.82510 -0.01600
C 	C 	0.16110 0.96800 0.77170 0.01400
C 	C 	0.12300 0.96800 0.73520 0.00100
C 	C 	0.07550 0.80600 0.96630 0.08600
H 	H 	0.07890 0.83710 0.97430 0.01500
C 	C 	0.06580 0.77360 0.00300 -0.15400
H 	H 	0.06390 0.78290 0.03380 0.09800
C 	C 	0.05960 0.72950 0.99050 0.09900
H 	H 	0.05200 0.70760 0.01290 0.01400
C 	C 	0.06400 0.71680 0.94790 -0.15800
H 	H 	0.06060 0.68560 0.94010 0.09000
C 	C 	0.07440 0.75120 0.91130 0.09200
H 	H 	0.07700 0.74170 0.88060 -0.00700
N 	N 	0.07990 0.79470 0.92170 -0.23400
O 	O 	0.05164 0.88760 0.91144 -0.40400
O 	O 	0.05049 0.95290 0.86990 -0.29400
O 	O 	0.11650 0.90279 0.83440 -0.50700
H 	H 	0.09740 0.92020 0.84630 0.27600
C 	C 	0.53500 0.57350 0.09850 0.34100
C 	C 	0.49380 0.55890 0.07050 -0.11100
C 	C 	0.48040 0.58390 0.03220 0.04600
H 	H 	0.49740 0.60980 0.02330 0.04100
C 	C 	0.66070 0.58340 0.15280 0.09100
H 	H 	0.68310 0.60410 0.16800 0.02300
C 	C 	0.66510 0.53540 0.17490 -0.01600
C 	C 	0.66110 0.53200 0.22830 0.01400
C 	C 	0.62300 0.53200 0.26480 0.00100
C 	C 	0.57550 0.69400 0.03370 0.08600
H 	H 	0.57890 0.66290 0.02570 0.01500
C 	C 	0.56580 0.72640 0.99700 -0.15300
H 	H 	0.56390 0.71710 0.96620 0.09800
C 	C 	0.55960 0.77050 0.00950 0.09900
H 	H 	0.55200 0.79240 0.98710 0.01500
C 	C 	0.56400 0.78320 0.05210 -0.15800
H 	H 	0.56060 0.81440 0.05990 0.09000
C 	C 	0.57440 0.74880 0.08870 0.09100
H 	H 	0.57700 0.75830 0.11940 -0.00700
N 	N 	0.57990 0.70530 0.07830 -0.23400
O 	O 	0.55164 0.61240 0.08856 -0.40400
O 	O 	0.55049 0.54710 0.13010 -0.29400
O 	O 	0.61650 0.59721 0.16560 -0.50700
H 	H 	0.59740 0.57980 0.15370 0.27600
C 	C 	0.96500 0.42650 0.59850 0.34100
C 	C 	0.00620 0.44110 0.57050 -0.11100
C 	C 	0.01960 0.41610 0.53220 0.04600
H 	H 	0.00260 0.39020 0.52330 0.04100
C 	C 	0.83930 0.41660 0.65280 0.09100
H 	H 	0.81690 0.39590 0.66800 0.02300
C 	C 	0.83490 0.46460 0.67490 -0.01600
C 	C 	0.83890 0.46800 0.72830 0.01400
C 	C 	0.87700 0.46800 0.76480 0.00100
C 	C 	0.92450 0.30600 0.53370 0.08600
H 	H 	0.92110 0.33710 0.52570 0.01500
C 	C 	0.93420 0.27360 0.49700 -0.15300
H 	H 	0.93610 0.28290 0.46620 0.09800
C 	C 	0.94040 0.22950 0.50950 0.09900
H 	H 	0.94800 0.20760 0.48710 0.01500
C 	C 	0.93600 0.21680 0.55210 -0.15800
H 	H 	0.93940 0.18560 0.55990 0.09000
C 	C 	0.92560 0.25120 0.58870 0.09200
H 	H 	0.92300 0.24170 0.61940 -0.00700
N 	N 	0.92010 0.29470 0.57830 -0.23400
O 	O 	0.94836 0.38760 0.58856 -0.40400
O 	O 	0.94951 0.45290 0.63010 -0.29400
O 	O 	0.88350 0.40279 0.66560 -0.50700
H 	H 	0.90260 0.42020 0.65370 0.27600
C 	C 	0.40150 0.46500 0.07350 0.34100
C 	C 	0.42950 0.50620 0.05890 -0.11100
C 	C 	0.46780 0.51960 0.08390 0.04600
H 	H 	0.47670 0.50260 0.10980 0.04100
C 	C 	0.34720 0.33930 0.08340 0.09100
H 	H 	0.33200 0.31690 0.10410 0.02300
C 	C 	0.32510 0.33490 0.03540 -0.01600
C 	C 	0.27170 0.33890 0.03200 0.01400
C 	C 	0.23520 0.37700 0.03200 0.00100
C 	C 	0.46630 0.42450 0.19400 0.08600
H 	H 	0.47430 0.42110 0.16290 0.01500
C 	C 	0.50300 0.43420 0.22640 -0.15300
H 	H 	0.53380 0.43610 0.21710 0.09800
C 	C 	0.49050 0.44040 0.27050 0.09900
H 	H 	0.51290 0.44800 0.29240 0.01500
C 	C 	0.44790 0.43600 0.28320 -0.15800
H 	H 	0.44010 0.43940 0.31440 0.09000
C 	C 	0.41130 0.42560 0.24880 0.09200
H 	H 	0.38060 0.42300 0.25830 -0.00700
N 	N 	0.42170 0.42010 0.20530 -0.23400
O 	O 	0.41144 0.44836 0.11240 -0.40400
O 	O 	0.36990 0.44951 0.04710 -0.29400
O 	O 	0.33440 0.38350 0.09721 -0.50700
H 	H 	0.34630 0.40260 0.07980 0.27600
C 	C 	0.90150 0.03500 0.92650 0.34100
C 	C 	0.92950 0.99380 0.94110 -0.11100
C 	C 	0.96780 0.98040 0.91610 0.04600
H 	H 	0.97670 0.99740 0.89020 0.04100
C 	C 	0.84720 0.16070 0.91660 0.09100
H 	H 	0.83200 0.18310 0.89590 0.02300
C 	C 	0.82510 0.16510 0.96460 -0.01600
C 	C 	0.77170 0.16110 0.96800 0.01400
C 	C 	0.73520 0.12300 0.96800 0.00100
C 	C 	0.96630 0.07550 0.80600 0.08600
H 	H 	0.97430 0.07890 0.83710 0.01500
C 	C 	0.00300 0.06580 0.77360 -0.15400
H 	H 	0.03380 0.06390 0.78290 0.09800
C 	C 	0.99050 0.05960 0.72950 0.09900
H 	H 	0.01290 0.05200 0.70760 0.01400
C 	C 	0.94790 0.06400 0.71680 -0.15800
H 	H 	0.94010 0.06060 0.68560 0.09000
C 	C 	0.91130 0.07440 0.75120 0.09200
H 	H 	0.88060 0.07700 0.74170 -0.00700
N 	N 	0.92170 0.07990 0.79470 -0.23400
O 	O 	0.91144 0.05164 0.88760 -0.40400
O 	O 	0.86990 0.05049 0.95290 -0.29400
O 	O 	0.83440 0.11650 0.90279 -0.50700
H 	H 	0.84630 0.09740 0.92020 0.27600
C 	C 	0.09850 0.53500 0.57350 0.34100
C 	C 	0.07050 0.49380 0.55890 -0.11100
C 	C 	0.03220 0.48040 0.58390 0.04600
H 	H 	0.02330 0.49740 0.60980 0.04100
C 	C 	0.15280 0.66070 0.58340 0.09100
H 	H 	0.16800 0.68310 0.60410 0.02300
C 	C 	0.17490 0.66510 0.53540 -0.01600
C 	C 	0.22830 0.66110 0.53200 0.01400
C 	C 	0.26480 0.62300 0.53200 0.00100
C 	C 	0.03370 0.57550 0.69400 0.08600
H 	H 	0.02570 0.57890 0.66290 0.01500
C 	C 	0.99700 0.56580 0.72640 -0.15300
H 	H 	0.96620 0.56390 0.71710 0.09800
C 	C 	0.00950 0.55960 0.77050 0.09900
H 	H 	0.98710 0.55200 0.79240 0.01500
C 	C 	0.05210 0.56400 0.78320 -0.15800
H 	H 	0.05990 0.56060 0.81440 0.09000
C 	C 	0.08870 0.57440 0.74880 0.09100
H 	H 	0.11940 0.57700 0.75830 -0.00700
N 	N 	0.07830 0.57990 0.70530 -0.23400
O 	O 	0.08856 0.55164 0.61240 -0.40400
O 	O 	0.13010 0.55049 0.54710 -0.29400
O 	O 	0.16560 0.61650 0.59721 -0.50700
H 	H 	0.15370 0.59740 0.57980 0.27600
C 	C 	0.59850 0.96500 0.42650 0.34100
C 	C 	0.57050 0.00620 0.44110 -0.11100
C 	C 	0.53220 0.01960 0.41610 0.04600
H 	H 	0.52330 0.00260 0.39020 0.04100
C 	C 	0.65280 0.83930 0.41660 0.09100
H 	H 	0.66800 0.81690 0.39590 0.02300
C 	C 	0.67490 0.83490 0.46460 -0.01600
C 	C 	0.72830 0.83890 0.46800 0.01400
C 	C 	0.76480 0.87700 0.46800 0.00100
C 	C 	0.53370 0.92450 0.30600 0.08600
H 	H 	0.52570 0.92110 0.33710 0.01500
C 	C 	0.49700 0.93420 0.27360 -0.15300
H 	H 	0.46620 0.93610 0.28290 0.09800
C 	C 	0.50950 0.94040 0.22950 0.09900
H 	H 	0.48710 0.94800 0.20760 0.01500
C 	C 	0.55210 0.93600 0.21680 -0.15800
H 	H 	0.55990 0.93940 0.18560 0.09000
C 	C 	0.58870 0.92560 0.25120 0.09200
H 	H 	0.61940 0.92300 0.24170 -0.00700
N 	N 	0.57830 0.92010 0.29470 -0.23400
O 	O 	0.58856 0.94836 0.38760 -0.40400
O 	O 	0.63010 0.94951 0.45290 -0.29400
O 	O 	0.66560 0.88350 0.40279 -0.50700
H 	H 	0.65370 0.90260 0.42020 0.27600
C 	C 	0.07350 0.40150 0.46500 0.34100
C 	C 	0.05890 0.42950 0.50620 -0.11100
C 	C 	0.08390 0.46780 0.51960 0.04600
H 	H 	0.10980 0.47670 0.50260 0.04100
C 	C 	0.08340 0.34720 0.33930 0.09100
H 	H 	0.10410 0.33200 0.31690 0.02300
C 	C 	0.03540 0.32510 0.33490 -0.01600
C 	C 	0.03200 0.27170 0.33890 0.01400
C 	C 	0.03200 0.23520 0.37700 0.00100
C 	C 	0.19400 0.46630 0.42450 0.08600
H 	H 	0.16290 0.47430 0.42110 0.01500
C 	C 	0.22640 0.50300 0.43420 -0.15300
H 	H 	0.21710 0.53380 0.43610 0.09800
C 	C 	0.27050 0.49050 0.44040 0.09900
H 	H 	0.29240 0.51290 0.44800 0.01500
C 	C 	0.28320 0.44790 0.43600 -0.15800
H 	H 	0.31440 0.44010 0.43940 0.09000
C 	C 	0.24880 0.41130 0.42560 0.09200
H 	H 	0.25830 0.38060 0.42300 -0.00700
N 	N 	0.20530 0.42170 0.42010 -0.23400
O 	O 	0.11240 0.41144 0.44836 -0.40400
O 	O 	0.04710 0.36990 0.44951 -0.29400
O 	O 	0.09721 0.33440 0.38350 -0.50700
H 	H 	0.07980 0.34630 0.40260 0.27600
C 	C 	0.92650 0.90150 0.03500 0.34100
C 	C 	0.94110 0.92950 0.99380 -0.11100
C 	C 	0.91610 0.96780 0.98040 0.04600
H 	H 	0.89020 0.97670 0.99740 0.04100
C 	C 	0.91660 0.84720 0.16070 0.09100
H 	H 	0.89590 0.83200 0.18310 0.02300
C 	C 	0.96460 0.82510 0.16510 -0.01600
C 	C 	0.96800 0.77170 0.16110 0.01400
C 	C 	0.96800 0.73520 0.12300 0.00100
C 	C 	0.80600 0.96630 0.07550 0.08600
H 	H 	0.83710 0.97430 0.07890 0.01500
C 	C 	0.77360 0.00300 0.06580 -0.15400
H 	H 	0.78290 0.03380 0.06390 0.09800
C 	C 	0.72950 0.99050 0.05960 0.09900
H 	H 	0.70760 0.01290 0.05200 0.01400
C 	C 	0.71680 0.94790 0.06400 -0.15800
H 	H 	0.68560 0.94010 0.06060 0.09000
C 	C 	0.75120 0.91130 0.07440 0.09200
H 	H 	0.74170 0.88060 0.07700 -0.00700
N 	N 	0.79470 0.92170 0.07990 -0.23400
O 	O 	0.88760 0.91144 0.05164 -0.40400
O 	O 	0.95290 0.86990 0.05049 -0.29400
O 	O 	0.90279 0.83440 0.11650 -0.50700
H 	H 	0.92020 0.84630 0.09740 0.27600
C 	C 	0.57350 0.09850 0.53500 0.34100
C 	C 	0.55890 0.07050 0.49380 -0.11100
C 	C 	0.58390 0.03220 0.48040 0.04600
H 	H 	0.60980 0.02330 0.49740 0.04100
C 	C 	0.58340 0.15280 0.66070 0.09100
H 	H 	0.60410 0.16800 0.68310 0.02300
C 	C 	0.53540 0.17490 0.66510 -0.01600
C 	C 	0.53200 0.22830 0.66110 0.01400
C 	C 	0.53200 0.26480 0.62300 0.00100
C 	C 	0.69400 0.03370 0.57550 0.08600
H 	H 	0.66290 0.02570 0.57890 0.01500
C 	C 	0.72640 0.99700 0.56580 -0.15300
H 	H 	0.71710 0.96620 0.56390 0.09800
C 	C 	0.77050 0.00950 0.55960 0.09900
H 	H 	0.79240 0.98710 0.55200 0.01500
C 	C 	0.78320 0.05210 0.56400 -0.15800
H 	H 	0.81440 0.05990 0.56060 0.09000
C 	C 	0.74880 0.08870 0.57440 0.09100
H 	H 	0.75830 0.11940 0.57700 -0.00700
N 	N 	0.70530 0.07830 0.57990 -0.23400
O 	O 	0.61240 0.08856 0.55164 -0.40400
O 	O 	0.54710 0.13010 0.55049 -0.29400
O 	O 	0.59721 0.16560 0.61650 -0.50700
H 	H 	0.57980 0.15370 0.59740 0.27600
C 	C 	0.42650 0.59850 0.96500 0.34100
C 	C 	0.44110 0.57050 0.00620 -0.11100
C 	C 	0.41610 0.53220 0.01960 0.04600
H 	H 	0.39020 0.52330 0.00260 0.04100
C 	C 	0.41660 0.65280 0.83930 0.09100
H 	H 	0.39590 0.66800 0.81690 0.02300
C 	C 	0.46460 0.67490 0.83490 -0.01600
C 	C 	0.46800 0.72830 0.83890 0.01400
C 	C 	0.46800 0.76480 0.87700 0.00100
C 	C 	0.30600 0.53370 0.92450 0.08600
H 	H 	0.33710 0.52570 0.92110 0.01500
C 	C 	0.27360 0.49700 0.93420 -0.15300
H 	H 	0.28290 0.46620 0.93610 0.09800
C 	C 	0.22950 0.50950 0.94040 0.09900
H 	H 	0.20760 0.48710 0.94800 0.01500
C 	C 	0.21680 0.55210 0.93600 -0.15800
H 	H 	0.18560 0.55990 0.93940 0.09000
C 	C 	0.25120 0.58870 0.92560 0.09200
H 	H 	0.24170 0.61940 0.92300 -0.00700
N 	N 	0.29470 0.57830 0.92010 -0.23400
O 	O 	0.38760 0.58856 0.94836 -0.40400
O 	O 	0.45290 0.63010 0.94951 -0.29400
O 	O 	0.40279 0.66560 0.88350 -0.50700
H 	H 	0.42020 0.65370 0.90260 0.27600
C 	C 	0.32350 0.21500 0.34850 0.34100
C 	C 	0.30890 0.25620 0.32050 -0.11100
C 	C 	0.33390 0.26960 0.28220 0.04600
H 	H 	0.35980 0.25260 0.27330 0.04100
C 	C 	0.33340 0.08930 0.40280 0.09100
H 	H 	0.35410 0.06690 0.41800 0.02300
C 	C 	0.28540 0.08490 0.42490 -0.01600
C 	C 	0.28200 0.08890 0.47830 0.01400
C 	C 	0.28200 0.12700 0.51480 0.00100
C 	C 	0.44400 0.17450 0.28370 0.08600
H 	H 	0.41290 0.17110 0.27570 0.01500
C 	C 	0.47640 0.18420 0.24700 -0.15300
H 	H 	0.46710 0.18610 0.21620 0.09800
C 	C 	0.52050 0.19040 0.25950 0.09900
H 	H 	0.54240 0.19800 0.23710 0.01500
C 	C 	0.53320 0.18600 0.30210 -0.15800
H 	H 	0.56440 0.18940 0.30990 0.09000
C 	C 	0.49880 0.17560 0.33870 0.09200
H 	H 	0.50830 0.17300 0.36940 -0.00700
N 	N 	0.45530 0.17010 0.32830 -0.23400
O 	O 	0.36240 0.19836 0.33856 -0.40400
O 	O 	0.29710 0.19951 0.38010 -0.29400
O 	O 	0.34721 0.13350 0.41560 -0.50700
H 	H 	0.32980 0.15260 0.40370 0.27600
C 	C 	0.17650 0.78500 0.84850 0.34100
C 	C 	0.19110 0.74380 0.82050 -0.11100
C 	C 	0.16610 0.73040 0.78220 0.04600
H 	H 	0.14020 0.74740 0.77330 0.04100
C 	C 	0.16660 0.91070 0.90280 0.09100
H 	H 	0.14590 0.93310 0.91800 0.02300
C 	C 	0.21460 0.91510 0.92490 -0.01600
C 	C 	0.21800 0.91110 0.97830 0.01400
C 	C 	0.21800 0.87300 0.01480 0.00100
C 	C 	0.05600 0.82550 0.78370 0.08600
H 	H 	0.08710 0.82890 0.77570 0.01500
C 	C 	0.02360 0.81580 0.74700 -0.15300
H 	H 	0.03290 0.81390 0.71620 0.09800
C 	C 	0.97950 0.80960 0.75950 0.09900
H 	H 	0.95760 0.80200 0.73710 0.01500
C 	C 	0.96680 0.81400 0.80210 -0.15800
H 	H 	0.93560 0.81060 0.80990 0.09000
C 	C 	0.00120 0.82440 0.83870 0.09100
H 	H 	0.99170 0.82700 0.86940 -0.00700
N 	N 	0.04470 0.82990 0.82830 -0.23400
O 	O 	0.13760 0.80164 0.83856 -0.40400
O 	O 	0.20290 0.80049 0.88010 -0.29400
O 	O 	0.15279 0.86650 0.91560 -0.50700
H 	H 	0.17020 0.84740 0.90370 0.27600
C 	C 	0.82350 0.28500 0.65150 0.34100
C 	C 	0.80890 0.24380 0.67950 -0.11100
C 	C 	0.83390 0.23040 0.71780 0.04600
H 	H 	0.85980 0.24740 0.72670 0.04100
C 	C 	0.83340 0.41070 0.59720 0.09100
H 	H 	0.85410 0.43310 0.58200 0.02300
C 	C 	0.78540 0.41510 0.57510 -0.01600
C 	C 	0.78200 0.41110 0.52170 0.01400
C 	C 	0.78200 0.37300 0.48520 0.00100
C 	C 	0.94400 0.32550 0.71630 0.08600
H 	H 	0.91290 0.32890 0.72430 0.01500
C 	C 	0.97640 0.31580 0.75300 -0.15300
H 	H 	0.96710 0.31390 0.78380 0.09800
C 	C 	0.02050 0.30960 0.74050 0.09900
H 	H 	0.04240 0.30200 0.76290 0.01500
C 	C 	0.03320 0.31400 0.69790 -0.15800
H 	H 	0.06440 0.31060 0.69010 0.09000
C 	C 	0.99880 0.32440 0.66130 0.09200
H 	H 	0.00830 0.32700 0.63060 -0.00700
N 	N 	0.95530 0.32990 0.67170 -0.23400
O 	O 	0.86240 0.30164 0.66144 -0.40400
O 	O 	0.79710 0.30049 0.61990 -0.29400
O 	O 	0.84721 0.36650 0.58440 -0.50700
H 	H 	0.82980 0.34740 0.59630 0.27600
C 	C 	0.67650 0.71500 0.15150 0.34100
C 	C 	0.69110 0.75620 0.17950 -0.11100
C 	C 	0.66610 0.76960 0.21780 0.04600
H 	H 	0.64020 0.75260 0.22670 0.04100
C 	C 	0.66660 0.58930 0.09720 0.09100
H 	H 	0.64590 0.56690 0.08200 0.02300
C 	C 	0.71460 0.58490 0.07510 -0.01600
C 	C 	0.71800 0.58890 0.02170 0.01400
C 	C 	0.71800 0.62700 0.98520 0.00100
C 	C 	0.55600 0.67450 0.21630 0.08600
H 	H 	0.58710 0.67110 0.22430 0.01500
C 	C 	0.52360 0.68420 0.25300 -0.15300
H 	H 	0.53290 0.68610 0.28380 0.09800
C 	C 	0.47950 0.69040 0.24050 0.09900
H 	H 	0.45760 0.69800 0.26290 0.01500
C 	C 	0.46680 0.68600 0.19790 -0.15800
H 	H 	0.43560 0.68940 0.19010 0.09000
C 	C 	0.50120 0.67560 0.16130 0.09200
H 	H 	0.49170 0.67300 0.13060 -0.00700
N 	N 	0.54470 0.67010 0.17170 -0.23400
O 	O 	0.63760 0.69836 0.16144 -0.40400
O 	O 	0.70290 0.69951 0.11990 -0.29400
O 	O 	0.65279 0.63350 0.08440 -0.50700
H 	H 	0.67020 0.65260 0.09630 0.27600
C 	C 	0.71500 0.15150 0.67650 0.34100
C 	C 	0.75620 0.17950 0.69110 -0.11100
C 	C 	0.76960 0.21780 0.66610 0.04600
H 	H 	0.75260 0.22670 0.64020 0.04100
C 	C 	0.58930 0.09720 0.66660 0.09100
H 	H 	0.56690 0.08200 0.64590 0.02300
C 	C 	0.58490 0.07510 0.71460 -0.01600
C 	C 	0.58890 0.02170 0.71800 0.01400
C 	C 	0.62700 0.98520 0.71800 0.00100
C 	C 	0.67450 0.21630 0.55600 0.08600
H 	H 	0.67110 0.22430 0.58710 0.01500
C 	C 	0.68420 0.25300 0.52360 -0.15300
H 	H 	0.68610 0.28380 0.53290 0.09800
C 	C 	0.69040 0.24050 0.47950 0.09900
H 	H 	0.69800 0.26290 0.45760 0.01500
C 	C 	0.68600 0.19790 0.46680 -0.15800
H 	H 	0.68940 0.19010 0.43560 0.09000
C 	C 	0.67560 0.16130 0.50120 0.09200
H 	H 	0.67300 0.13060 0.49170 -0.00700
N 	N 	0.67010 0.17170 0.54470 -0.23400
O 	O 	0.69836 0.16144 0.63760 -0.40400
O 	O 	0.69951 0.11990 0.70290 -0.29400
O 	O 	0.63350 0.08440 0.65279 -0.50700
H 	H 	0.65260 0.09630 0.67020 0.27600
C 	C 	0.28500 0.65150 0.82350 0.34100
C 	C 	0.24380 0.67950 0.80890 -0.11100
C 	C 	0.23040 0.71780 0.83390 0.04600
H 	H 	0.24740 0.72670 0.85980 0.04100
C 	C 	0.41070 0.59720 0.83340 0.09100
H 	H 	0.43310 0.58200 0.85410 0.02300
C 	C 	0.41510 0.57510 0.78540 -0.01600
C 	C 	0.41110 0.52170 0.78200 0.01400
C 	C 	0.37300 0.48520 0.78200 0.00100
C 	C 	0.32550 0.71630 0.94400 0.08600
H 	H 	0.32890 0.72430 0.91290 0.01500
C 	C 	0.31580 0.75300 0.97640 -0.15300
H 	H 	0.31390 0.78380 0.96710 0.09800
C 	C 	0.30960 0.74050 0.02050 0.09900
H 	H 	0.30200 0.76290 0.04240 0.01500
C 	C 	0.31400 0.69790 0.03320 -0.15800
H 	H 	0.31060 0.69010 0.06440 0.09000
C 	C 	0.32440 0.66130 0.99880 0.09200
H 	H 	0.32700 0.63060 0.00830 -0.00700
N 	N 	0.32990 0.67170 0.95530 -0.23400
O 	O 	0.30164 0.66144 0.86240 -0.40400
O 	O 	0.30049 0.61990 0.79710 -0.29400
O 	O 	0.36650 0.58440 0.84721 -0.50700
H 	H 	0.34740 0.59630 0.82980 0.27600
C 	C 	0.78500 0.84850 0.17650 0.34100
C 	C 	0.74380 0.82050 0.19110 -0.11100
C 	C 	0.73040 0.78220 0.16610 0.04600
H 	H 	0.74740 0.77330 0.14020 0.04100
C 	C 	0.91070 0.90280 0.16660 0.09100
H 	H 	0.93310 0.91800 0.14590 0.02300
C 	C 	0.91510 0.92490 0.21460 -0.01600
C 	C 	0.91110 0.97830 0.21800 0.01400
C 	C 	0.87300 0.01480 0.21800 0.00100
C 	C 	0.82550 0.78370 0.05600 0.08600
H 	H 	0.82890 0.77570 0.08710 0.01500
C 	C 	0.81580 0.74700 0.02360 -0.15300
H 	H 	0.81390 0.71620 0.03290 0.09800
C 	C 	0.80960 0.75950 0.97950 0.09900
H 	H 	0.80200 0.73710 0.95760 0.01500
C 	C 	0.81400 0.80210 0.96680 -0.15800
H 	H 	0.81060 0.80990 0.93560 0.09000
C 	C 	0.82440 0.83870 0.00120 0.09100
H 	H 	0.82700 0.86940 0.99170 -0.00700
N 	N 	0.82990 0.82830 0.04470 -0.23400
O 	O 	0.80164 0.83856 0.13760 -0.40400
O 	O 	0.80049 0.88010 0.20290 -0.29400
O 	O 	0.86650 0.91560 0.15279 -0.50700
H 	H 	0.84740 0.90370 0.17020 0.27600
C 	C 	0.21500 0.34850 0.32350 0.34100
C 	C 	0.25620 0.32050 0.30890 -0.11100
C 	C 	0.26960 0.28220 0.33390 0.04600
H 	H 	0.25260 0.27330 0.35980 0.04100
C 	C 	0.08930 0.40280 0.33340 0.09100
H 	H 	0.06690 0.41800 0.35410 0.02300
C 	C 	0.08490 0.42490 0.28540 -0.01600
C 	C 	0.08890 0.47830 0.28200 0.01400
C 	C 	0.12700 0.51480 0.28200 0.00100
C 	C 	0.17450 0.28370 0.44400 0.08600
H 	H 	0.17110 0.27570 0.41290 0.01500
C 	C 	0.18420 0.24700 0.47640 -0.15300
H 	H 	0.18610 0.21620 0.46710 0.09800
C 	C 	0.19040 0.25950 0.52050 0.09900
H 	H 	0.19800 0.23710 0.54240 0.01500
C 	C 	0.18600 0.30210 0.53320 -0.15800
H 	H 	0.18940 0.30990 0.56440 0.09000
C 	C 	0.17560 0.33870 0.49880 0.09200
H 	H 	0.17300 0.36940 0.50830 -0.00700
N 	N 	0.17010 0.32830 0.45530 -0.23400
O 	O 	0.19836 0.33856 0.36240 -0.40400
O 	O 	0.19951 0.38010 0.29710 -0.29400
O 	O 	0.13350 0.41560 0.34721 -0.50700
H 	H 	0.15260 0.40370 0.32980 0.27600
C 	C 	0.65150 0.82350 0.28500 0.34100
C 	C 	0.67950 0.80890 0.24380 -0.11100
C 	C 	0.71780 0.83390 0.23040 0.04600
H 	H 	0.72670 0.85980 0.24740 0.04100
C 	C 	0.59720 0.83340 0.41070 0.09100
H 	H 	0.58200 0.85410 0.43310 0.02300
C 	C 	0.57510 0.78540 0.41510 -0.01600
C 	C 	0.52170 0.78200 0.41110 0.01400
C 	C 	0.48520 0.78200 0.37300 0.00100
C 	C 	0.71630 0.94400 0.32550 0.08600
H 	H 	0.72430 0.91290 0.32890 0.01500
C 	C 	0.75300 0.97640 0.31580 -0.15300
H 	H 	0.78380 0.96710 0.31390 0.09800
C 	C 	0.74050 0.02050 0.30960 0.09900
H 	H 	0.76290 0.04240 0.30200 0.01500
C 	C 	0.69790 0.03320 0.31400 -0.15800
H 	H 	0.69010 0.06440 0.31060 0.09000
C 	C 	0.66130 0.99880 0.32440 0.09200
H 	H 	0.63060 0.00830 0.32700 -0.00700
N 	N 	0.67170 0.95530 0.32990 -0.23400
O 	O 	0.66144 0.86240 0.30164 -0.40400
O 	O 	0.61990 0.79710 0.30049 -0.29400
O 	O 	0.58440 0.84721 0.36650 -0.50700
H 	H 	0.59630 0.82980 0.34740 0.27600
C 	C 	0.15150 0.67650 0.71500 0.34100
C 	C 	0.17950 0.69110 0.75620 -0.11100
C 	C 	0.21780 0.66610 0.76960 0.04600
H 	H 	0.22670 0.64020 0.75260 0.04100
C 	C 	0.09720 0.66660 0.58930 0.09100
H 	H 	0.08200 0.64590 0.56690 0.02300
C 	C 	0.07510 0.71460 0.58490 -0.01600
C 	C 	0.02170 0.71800 0.58890 0.01400
C 	C 	0.98520 0.71800 0.62700 0.00100
C 	C 	0.21630 0.55600 0.67450 0.08600
H 	H 	0.22430 0.58710 0.67110 0.01500
C 	C 	0.25300 0.52360 0.68420 -0.15300
H 	H 	0.28380 0.53290 0.68610 0.09800
C 	C 	0.24050 0.47950 0.69040 0.09900
H 	H 	0.26290 0.45760 0.69800 0.01500
C 	C 	0.19790 0.46680 0.68600 -0.15800
H 	H 	0.19010 0.43560 0.68940 0.09000
C 	C 	0.16130 0.50120 0.67560 0.09200
H 	H 	0.13060 0.49170 0.67300 -0.00700
N 	N 	0.17170 0.54470 0.67010 -0.23400
O 	O 	0.16144 0.63760 0.69836 -0.40400
O 	O 	0.11990 0.70290 0.69951 -0.29400
O 	O 	0.08440 0.65279 0.63350 -0.50700
H 	H 	0.09630 0.67020 0.65260 0.27600
C 	C 	0.34850 0.32350 0.21500 0.34100
C 	C 	0.32050 0.30890 0.25620 -0.11100
C 	C 	0.28220 0.33390 0.26960 0.04600
H 	H 	0.27330 0.35980 0.25260 0.04100
C 	C 	0.40280 0.33340 0.08930 0.09100
H 	H 	0.41800 0.35410 0.06690 0.02300
C 	C 	0.42490 0.28540 0.08490 -0.01600
C 	C 	0.47830 0.28200 0.08890 0.01400
C 	C 	0.51480 0.28200 0.12700 0.00100
C 	C 	0.28370 0.44400 0.17450 0.08600
H 	H 	0.27570 0.41290 0.17110 0.01500
C 	C 	0.24700 0.47640 0.18420 -0.15300
H 	H 	0.21620 0.46710 0.18610 0.09800
C 	C 	0.25950 0.52050 0.19040 0.09900
H 	H 	0.23710 0.54240 0.19800 0.01500
C 	C 	0.30210 0.53320 0.18600 -0.15800
H 	H 	0.30990 0.56440 0.18940 0.09000
C 	C 	0.33870 0.49880 0.17560 0.09200
H 	H 	0.36940 0.50830 0.17300 -0.00700
N 	N 	0.32830 0.45530 0.17010 -0.23400
O 	O 	0.33856 0.36240 0.19836 -0.40400
O 	O 	0.38010 0.29710 0.19951 -0.29400
O 	O 	0.41560 0.34721 0.13350 -0.50700
H 	H 	0.40370 0.32980 0.15260 0.27600
C 	C 	0.84850 0.17650 0.78500 0.34100
C 	C 	0.82050 0.19110 0.74380 -0.11100
C 	C 	0.78220 0.16610 0.73040 0.04600
H 	H 	0.77330 0.14020 0.74740 0.04100
C 	C 	0.90280 0.16660 0.91070 0.09100
H 	H 	0.91800 0.14590 0.93310 0.02300
C 	C 	0.92490 0.21460 0.91510 -0.01600
C 	C 	0.97830 0.21800 0.91110 0.01400
C 	C 	0.01480 0.21800 0.87300 0.00100
C 	C 	0.78370 0.05600 0.82550 0.08600
H 	H 	0.77570 0.08710 0.82890 0.01500
C 	C 	0.74700 0.02360 0.81580 -0.15300
H 	H 	0.71620 0.03290 0.81390 0.09800
C 	C 	0.75950 0.97950 0.80960 0.09900
H 	H 	0.73710 0.95760 0.80200 0.01500
C 	C 	0.80210 0.96680 0.81400 -0.15800
H 	H 	0.80990 0.93560 0.81060 0.09000
C 	C 	0.83870 0.00120 0.82440 0.09100
H 	H 	0.86940 0.99170 0.82700 -0.00700
N 	N 	0.82830 0.04470 0.82990 -0.23400
O 	O 	0.83856 0.13760 0.80164 -0.40400
O 	O 	0.88010 0.20290 0.80049 -0.29400
O 	O 	0.91560 0.15279 0.86650 -0.50700
H 	H 	0.90370 0.17020 0.84740 0.27600
Ni	Ni	0.40407 0.15407 0.37500 1.11600
Ni	Ni	0.09593 0.84593 0.87500 1.11600
Ni	Ni	0.90407 0.34593 0.62500 1.11600
Ni	Ni	0.59593 0.65407 0.12500 1.11600
Ni	Ni	0.65407 0.12500 0.59593 1.11600
Ni	Ni	0.34593 0.62500 0.90407 1.11600
Ni	Ni	0.84593 0.87500 0.09593 1.11600
Ni	Ni	0.15407 0.37500 0.40407 1.11600
Ni	Ni	0.62500 0.90407 0.34593 1.11600
Ni	Ni	0.12500 0.59593 0.65407 1.11600
Ni	Ni	0.37500 0.40407 0.15407 1.11600
Ni	Ni	0.87500 0.09593 0.84593 1.11600
