data_crystal

_cell_length_a 22.78740
_cell_length_b 22.78740
_cell_length_c 22.78740
_cell_angle_alpha 60.00000
_cell_angle_beta  60.00000
_cell_angle_gamma 60.00000

_symmetry_space_group_name_	'P 1'
_symmetry_space_group_name_H-M	'P 1'

loop_
_symmetry_equiv_pos_as_xyz
  x,y,z

loop_
_atom_site_label
_atom_site_type_symbol
_atom_site_fract_x
_atom_site_fract_y
_atom_site_fract_z
_atom_site_charge
Ni	Ni	0.12500 0.62500 0.86620 1.05700
Ni	Ni	0.62500 0.12500 0.38380 1.05700
Ni	Ni	0.86620 0.38380 0.12500 1.05700
Ni	Ni	0.38380 0.86620 0.62500 1.05800
Ni	Ni	0.12500 0.86620 0.38380 1.05700
Ni	Ni	0.62500 0.38380 0.86620 1.05800
Ni	Ni	0.86620 0.12500 0.62500 1.05700
Ni	Ni	0.38380 0.62500 0.12500 1.05700
Ni	Ni	0.12500 0.38380 0.62500 1.05700
Ni	Ni	0.62500 0.86620 0.12500 1.05700
Ni	Ni	0.86620 0.62500 0.38380 1.05800
Ni	Ni	0.38380 0.12500 0.86620 1.05700
H 	H 	0.89900 0.75120 0.94640 0.03700
H 	H 	0.98670 0.60170 0.98790 -0.04900
H 	H 	0.94640 0.54100 0.10720 0.19400
H 	H 	0.05740 0.42580 0.21900 0.31300
H 	H 	0.99860 0.41860 0.20840 0.33600
H 	H 	0.98050 0.48410 0.22790 0.34200
H 	H 	0.14680 0.46440 0.10880 0.14900
H 	H 	0.17970 0.53350 0.98990 -0.06600
H 	H 	0.75120 0.89900 0.40340 0.03300
H 	H 	0.60170 0.98670 0.42370 -0.05700
H 	H 	0.54100 0.94640 0.40540 0.19600
H 	H 	0.42580 0.05740 0.29780 0.31600
H 	H 	0.41860 0.99860 0.37440 0.34000
H 	H 	0.48410 0.98050 0.30750 0.34500
H 	H 	0.46440 0.14680 0.28000 0.15200
H 	H 	0.53350 0.17970 0.29690 -0.07100
H 	H 	0.94640 0.40340 0.89900 0.03400
H 	H 	0.98790 0.42370 0.98670 -0.05200
H 	H 	0.10720 0.40540 0.94640 0.19400
H 	H 	0.21900 0.29780 0.05740 0.31300
H 	H 	0.20840 0.37440 0.99860 0.33600
H 	H 	0.22790 0.30750 0.98050 0.34200
H 	H 	0.10880 0.28000 0.14680 0.14900
H 	H 	0.98990 0.29690 0.17970 -0.06800
H 	H 	0.40340 0.94640 0.75120 0.03300
H 	H 	0.42370 0.98790 0.60170 -0.05700
H 	H 	0.40540 0.10720 0.54100 0.19500
H 	H 	0.29780 0.21900 0.42580 0.30900
H 	H 	0.37440 0.20840 0.41860 0.33100
H 	H 	0.30750 0.22790 0.48410 0.33700
H 	H 	0.28000 0.10880 0.46440 0.14800
H 	H 	0.29690 0.98990 0.53350 -0.06600
H 	H 	0.89900 0.94640 0.40340 0.03400
H 	H 	0.98670 0.98790 0.42370 -0.05200
H 	H 	0.94640 0.10720 0.40540 0.19400
H 	H 	0.05740 0.21900 0.29780 0.31300
H 	H 	0.99860 0.20840 0.37440 0.33600
H 	H 	0.98050 0.22790 0.30750 0.34200
H 	H 	0.14680 0.10880 0.28000 0.14900
H 	H 	0.17970 0.98990 0.29690 -0.06800
H 	H 	0.75120 0.40340 0.94640 0.03300
H 	H 	0.60170 0.42370 0.98790 -0.05700
H 	H 	0.54100 0.40540 0.10720 0.19500
H 	H 	0.42580 0.29780 0.21900 0.30900
H 	H 	0.41860 0.37440 0.20840 0.33100
H 	H 	0.48410 0.30750 0.22790 0.33700
H 	H 	0.46440 0.28000 0.10880 0.14800
H 	H 	0.53350 0.29690 0.98990 -0.06600
H 	H 	0.94640 0.89900 0.75120 0.03600
H 	H 	0.98790 0.98670 0.60170 -0.05000
H 	H 	0.10720 0.94640 0.54100 0.19300
H 	H 	0.21900 0.05740 0.42580 0.31300
H 	H 	0.20840 0.99860 0.41860 0.33600
H 	H 	0.22790 0.98050 0.48410 0.34200
H 	H 	0.10880 0.14680 0.46440 0.14900
H 	H 	0.98990 0.17970 0.53350 -0.06600
H 	H 	0.40340 0.75120 0.89900 0.03300
H 	H 	0.42370 0.60170 0.98670 -0.05700
H 	H 	0.40540 0.54100 0.94640 0.19600
H 	H 	0.29780 0.42580 0.05740 0.31600
H 	H 	0.37440 0.41860 0.99860 0.34000
H 	H 	0.30750 0.48410 0.98050 0.34500
H 	H 	0.28000 0.46440 0.14680 0.15200
H 	H 	0.29690 0.53350 0.17970 -0.07100
H 	H 	0.89900 0.40340 0.75120 0.03300
H 	H 	0.98670 0.42370 0.60170 -0.05700
H 	H 	0.94640 0.40540 0.54100 0.19600
H 	H 	0.05740 0.29780 0.42580 0.31600
H 	H 	0.99860 0.37440 0.41860 0.34000
H 	H 	0.98050 0.30750 0.48410 0.34500
H 	H 	0.14680 0.28000 0.46440 0.15200
H 	H 	0.17970 0.29690 0.53350 -0.07100
H 	H 	0.75120 0.94640 0.89900 0.03600
H 	H 	0.60170 0.98790 0.98670 -0.05000
H 	H 	0.54100 0.10720 0.94640 0.19300
H 	H 	0.42580 0.21900 0.05740 0.31300
H 	H 	0.41860 0.20840 0.99860 0.33600
H 	H 	0.48410 0.22790 0.98050 0.34200
H 	H 	0.46440 0.10880 0.14680 0.14900
H 	H 	0.53350 0.98990 0.17970 -0.06600
H 	H 	0.94640 0.75120 0.40340 0.03300
H 	H 	0.98790 0.60170 0.42370 -0.05700
H 	H 	0.10720 0.54100 0.40540 0.19500
H 	H 	0.21900 0.42580 0.29780 0.30900
H 	H 	0.20840 0.41860 0.37440 0.33100
H 	H 	0.22790 0.48410 0.30750 0.33700
H 	H 	0.10880 0.46440 0.28000 0.14800
H 	H 	0.98990 0.53350 0.29690 -0.06600
H 	H 	0.40340 0.89900 0.94640 0.03400
H 	H 	0.42370 0.98670 0.98790 -0.05200
H 	H 	0.40540 0.94640 0.10720 0.19400
H 	H 	0.29780 0.05740 0.21900 0.31300
H 	H 	0.37440 0.99860 0.20840 0.33600
H 	H 	0.30750 0.98050 0.22790 0.34200
H 	H 	0.28000 0.14680 0.10880 0.14900
H 	H 	0.29690 0.17970 0.98990 -0.06800
H 	H 	0.49880 0.35100 0.30360 0.03100
H 	H 	0.64830 0.26330 0.26210 -0.06300
H 	H 	0.70900 0.30360 0.14280 0.19800
H 	H 	0.82420 0.19260 0.03100 0.31000
H 	H 	0.83140 0.25140 0.04160 0.33200
H 	H 	0.76590 0.26950 0.02210 0.33700
H 	H 	0.78560 0.10320 0.14120 0.15100
H 	H 	0.71650 0.07030 0.26010 -0.07200
H 	H 	0.35100 0.49880 0.84660 0.03100
H 	H 	0.26330 0.64830 0.82630 -0.06400
H 	H 	0.30360 0.70900 0.84460 0.20000
H 	H 	0.19260 0.82420 0.95220 0.31400
H 	H 	0.25140 0.83140 0.87560 0.33500
H 	H 	0.26950 0.76590 0.94250 0.34100
H 	H 	0.10320 0.78560 0.97000 0.15300
H 	H 	0.07030 0.71650 0.95310 -0.07200
H 	H 	0.84660 0.30360 0.35100 0.03100
H 	H 	0.82630 0.26210 0.26330 -0.06300
H 	H 	0.84460 0.14280 0.30360 0.19900
H 	H 	0.95220 0.03100 0.19260 0.31100
H 	H 	0.87560 0.04160 0.25140 0.33200
H 	H 	0.94250 0.02210 0.26950 0.33800
H 	H 	0.97000 0.14120 0.10320 0.15200
H 	H 	0.95310 0.26010 0.07030 -0.07100
H 	H 	0.30360 0.84660 0.49880 0.03100
H 	H 	0.26210 0.82630 0.64830 -0.06300
H 	H 	0.14280 0.84460 0.70900 0.19900
H 	H 	0.03100 0.95220 0.82420 0.31100
H 	H 	0.04160 0.87560 0.83140 0.33200
H 	H 	0.02210 0.94250 0.76590 0.33800
H 	H 	0.14120 0.97000 0.78560 0.15200
H 	H 	0.26010 0.95310 0.71650 -0.07100
H 	H 	0.30360 0.35100 0.84660 0.03100
H 	H 	0.26210 0.26330 0.82630 -0.06300
H 	H 	0.14280 0.30360 0.84460 0.19900
H 	H 	0.03100 0.19260 0.95220 0.31100
H 	H 	0.04160 0.25140 0.87560 0.33200
H 	H 	0.02210 0.26950 0.94250 0.33800
H 	H 	0.14120 0.10320 0.97000 0.15200
H 	H 	0.26010 0.07030 0.95310 -0.07100
H 	H 	0.84660 0.49880 0.30360 0.03100
H 	H 	0.82630 0.64830 0.26210 -0.06300
H 	H 	0.84460 0.70900 0.14280 0.19900
H 	H 	0.95220 0.82420 0.03100 0.31100
H 	H 	0.87560 0.83140 0.04160 0.33200
H 	H 	0.94250 0.76590 0.02210 0.33800
H 	H 	0.97000 0.78560 0.14120 0.15200
H 	H 	0.95310 0.71650 0.26010 -0.07100
H 	H 	0.35100 0.30360 0.49880 0.03100
H 	H 	0.26330 0.26210 0.64830 -0.06300
H 	H 	0.30360 0.14280 0.70900 0.19800
H 	H 	0.19260 0.03100 0.82420 0.31000
H 	H 	0.25140 0.04160 0.83140 0.33200
H 	H 	0.26950 0.02210 0.76590 0.33700
H 	H 	0.10320 0.14120 0.78560 0.15100
H 	H 	0.07030 0.26010 0.71650 -0.07200
H 	H 	0.49880 0.84660 0.35100 0.03100
H 	H 	0.64830 0.82630 0.26330 -0.06400
H 	H 	0.70900 0.84460 0.30360 0.20000
H 	H 	0.82420 0.95220 0.19260 0.31400
H 	H 	0.83140 0.87560 0.25140 0.33500
H 	H 	0.76590 0.94250 0.26950 0.34100
H 	H 	0.78560 0.97000 0.10320 0.15300
H 	H 	0.71650 0.95310 0.07030 -0.07200
H 	H 	0.84660 0.35100 0.49880 0.03100
H 	H 	0.82630 0.26330 0.64830 -0.06400
H 	H 	0.84460 0.30360 0.70900 0.20000
H 	H 	0.95220 0.19260 0.82420 0.31400
H 	H 	0.87560 0.25140 0.83140 0.33500
H 	H 	0.94250 0.26950 0.76590 0.34100
H 	H 	0.97000 0.10320 0.78560 0.15300
H 	H 	0.95310 0.07030 0.71650 -0.07200
H 	H 	0.30360 0.49880 0.35100 0.03100
H 	H 	0.26210 0.64830 0.26330 -0.06300
H 	H 	0.14280 0.70900 0.30360 0.19800
H 	H 	0.03100 0.82420 0.19260 0.31000
H 	H 	0.04160 0.83140 0.25140 0.33200
H 	H 	0.02210 0.76590 0.26950 0.33700
H 	H 	0.14120 0.78560 0.10320 0.15100
H 	H 	0.26010 0.71650 0.07030 -0.07200
H 	H 	0.49880 0.30360 0.84660 0.03100
H 	H 	0.64830 0.26210 0.82630 -0.06300
H 	H 	0.70900 0.14280 0.84460 0.19900
H 	H 	0.82420 0.03100 0.95220 0.31100
H 	H 	0.83140 0.04160 0.87560 0.33200
H 	H 	0.76590 0.02210 0.94250 0.33800
H 	H 	0.78560 0.14120 0.97000 0.15200
H 	H 	0.71650 0.26010 0.95310 -0.07100
H 	H 	0.35100 0.84660 0.30360 0.03100
H 	H 	0.26330 0.82630 0.26210 -0.06300
H 	H 	0.30360 0.84460 0.14280 0.19900
H 	H 	0.19260 0.95220 0.03100 0.31100
H 	H 	0.25140 0.87560 0.04160 0.33200
H 	H 	0.26950 0.94250 0.02210 0.33800
H 	H 	0.10320 0.97000 0.14120 0.15200
H 	H 	0.07030 0.95310 0.26010 -0.07100
C 	C 	0.00961 0.76505 0.82445 0.32500
C 	C 	0.93412 0.81694 0.84524 -0.11000
C 	C 	0.88552 0.79700 0.91390 0.02600
C 	C 	0.01945 0.57383 0.01263 0.21700
C 	C 	0.99480 0.53696 0.08452 -0.43600
C 	C 	0.04170 0.49364 0.12368 0.49900
C 	C 	0.01739 0.45179 0.20161 -1.05300
C 	C 	0.11273 0.49255 0.08565 -0.42900
C 	C 	0.13264 0.53322 0.01344 0.21300
C 	C 	0.76505 0.00961 0.40089 0.32600
C 	C 	0.81694 0.93412 0.40370 -0.11400
C 	C 	0.79700 0.88552 0.40358 0.03000
C 	C 	0.57383 0.01945 0.39409 0.22800
C 	C 	0.53696 0.99480 0.38372 -0.44300
C 	C 	0.49364 0.04170 0.34098 0.50500
C 	C 	0.45179 0.01739 0.32921 -1.06400
C 	C 	0.49255 0.11273 0.30907 -0.43700
C 	C 	0.53322 0.13264 0.32070 0.22300
C 	C 	0.82445 0.40089 0.00961 0.32600
C 	C 	0.84524 0.40370 0.93412 -0.11400
C 	C 	0.91390 0.40358 0.88552 0.02900
C 	C 	0.01263 0.39409 0.01945 0.22200
C 	C 	0.08452 0.38372 0.99480 -0.44000
C 	C 	0.12368 0.34098 0.04170 0.50100
C 	C 	0.20161 0.32921 0.01739 -1.05400
C 	C 	0.08565 0.30907 0.11273 -0.43100
C 	C 	0.01344 0.32070 0.13264 0.21600
C 	C 	0.40089 0.82445 0.76505 0.33000
C 	C 	0.40370 0.84524 0.81694 -0.11700
C 	C 	0.40358 0.91390 0.79700 0.03000
C 	C 	0.39409 0.01263 0.57383 0.22800
C 	C 	0.38372 0.08452 0.53696 -0.44400
C 	C 	0.34098 0.12368 0.49364 0.49900
C 	C 	0.32921 0.20161 0.45179 -1.03800
C 	C 	0.30907 0.08565 0.49255 -0.42800
C 	C 	0.32070 0.01344 0.53322 0.21200
C 	C 	0.00961 0.82445 0.40089 0.32600
C 	C 	0.93412 0.84524 0.40370 -0.11400
C 	C 	0.88552 0.91390 0.40358 0.02900
C 	C 	0.01945 0.01263 0.39409 0.22200
C 	C 	0.99480 0.08452 0.38372 -0.44000
C 	C 	0.04170 0.12368 0.34098 0.50100
C 	C 	0.01739 0.20161 0.32921 -1.05400
C 	C 	0.11273 0.08565 0.30907 -0.43100
C 	C 	0.13264 0.01344 0.32070 0.21600
C 	C 	0.76505 0.40089 0.82445 0.33000
C 	C 	0.81694 0.40370 0.84524 -0.11700
C 	C 	0.79700 0.40358 0.91390 0.03000
C 	C 	0.57383 0.39409 0.01263 0.22800
C 	C 	0.53696 0.38372 0.08452 -0.44400
C 	C 	0.49364 0.34098 0.12368 0.49900
C 	C 	0.45179 0.32921 0.20161 -1.03800
C 	C 	0.49255 0.30907 0.08565 -0.42800
C 	C 	0.53322 0.32070 0.01344 0.21200
C 	C 	0.82445 0.00961 0.76505 0.32500
C 	C 	0.84524 0.93412 0.81694 -0.11000
C 	C 	0.91390 0.88552 0.79700 0.02600
C 	C 	0.01263 0.01945 0.57383 0.21700
C 	C 	0.08452 0.99480 0.53696 -0.43600
C 	C 	0.12368 0.04170 0.49364 0.49900
C 	C 	0.20161 0.01739 0.45179 -1.05300
C 	C 	0.08565 0.11273 0.49255 -0.42900
C 	C 	0.01344 0.13264 0.53322 0.21300
C 	C 	0.40089 0.76505 0.00961 0.32600
C 	C 	0.40370 0.81694 0.93412 -0.11400
C 	C 	0.40358 0.79700 0.88552 0.03000
C 	C 	0.39409 0.57383 0.01945 0.22800
C 	C 	0.38372 0.53696 0.99480 -0.44300
C 	C 	0.34098 0.49364 0.04170 0.50500
C 	C 	0.32921 0.45179 0.01739 -1.06400
C 	C 	0.30907 0.49255 0.11273 -0.43700
C 	C 	0.32070 0.53322 0.13264 0.22300
C 	C 	0.00961 0.40089 0.76505 0.32600
C 	C 	0.93412 0.40370 0.81694 -0.11400
C 	C 	0.88552 0.40358 0.79700 0.03000
C 	C 	0.01945 0.39409 0.57383 0.22800
C 	C 	0.99480 0.38372 0.53696 -0.44300
C 	C 	0.04170 0.34098 0.49364 0.50500
C 	C 	0.01739 0.32921 0.45179 -1.06400
C 	C 	0.11273 0.30907 0.49255 -0.43700
C 	C 	0.13264 0.32070 0.53322 0.22300
C 	C 	0.76505 0.82445 0.00961 0.32500
C 	C 	0.81694 0.84524 0.93412 -0.11000
C 	C 	0.79700 0.91390 0.88552 0.02600
C 	C 	0.57383 0.01263 0.01945 0.21700
C 	C 	0.53696 0.08452 0.99480 -0.43600
C 	C 	0.49364 0.12368 0.04170 0.49900
C 	C 	0.45179 0.20161 0.01739 -1.05300
C 	C 	0.49255 0.08565 0.11273 -0.42900
C 	C 	0.53322 0.01344 0.13264 0.21300
C 	C 	0.82445 0.76505 0.40089 0.33000
C 	C 	0.84524 0.81694 0.40370 -0.11700
C 	C 	0.91390 0.79700 0.40358 0.03000
C 	C 	0.01263 0.57383 0.39409 0.22800
C 	C 	0.08452 0.53696 0.38372 -0.44400
C 	C 	0.12368 0.49364 0.34098 0.49900
C 	C 	0.20161 0.45179 0.32921 -1.03800
C 	C 	0.08565 0.49255 0.30907 -0.42800
C 	C 	0.01344 0.53322 0.32070 0.21200
C 	C 	0.40089 0.00961 0.82445 0.32600
C 	C 	0.40370 0.93412 0.84524 -0.11400
C 	C 	0.40358 0.88552 0.91390 0.02900
C 	C 	0.39409 0.01945 0.01263 0.22200
C 	C 	0.38372 0.99480 0.08452 -0.44000
C 	C 	0.34098 0.04170 0.12368 0.50100
C 	C 	0.32921 0.01739 0.20161 -1.05400
C 	C 	0.30907 0.11273 0.08565 -0.43100
C 	C 	0.32070 0.13264 0.01344 0.21600
C 	C 	0.48495 0.24039 0.42555 0.33100
C 	C 	0.43306 0.31588 0.40476 -0.12000
C 	C 	0.45300 0.36448 0.33610 0.03400
C 	C 	0.67617 0.23055 0.23737 0.24100
C 	C 	0.71304 0.25520 0.16548 -0.45300
C 	C 	0.75636 0.20830 0.12632 0.50500
C 	C 	0.79821 0.23261 0.04839 -1.04300
C 	C 	0.75745 0.13727 0.16435 -0.43600
C 	C 	0.71678 0.11736 0.23656 0.22400
C 	C 	0.24039 0.48495 0.84911 0.33100
C 	C 	0.31588 0.43306 0.84630 -0.12000
C 	C 	0.36448 0.45300 0.84642 0.03400
C 	C 	0.23055 0.67617 0.85591 0.24200
C 	C 	0.25520 0.71304 0.86628 -0.45600
C 	C 	0.20830 0.75636 0.90902 0.51000
C 	C 	0.23261 0.79821 0.92079 -1.05200
C 	C 	0.13727 0.75745 0.94093 -0.43900
C 	C 	0.11736 0.71678 0.92930 0.22600
C 	C 	0.84911 0.42555 0.24039 0.33100
C 	C 	0.84630 0.40476 0.31588 -0.12000
C 	C 	0.84642 0.33610 0.36448 0.03400
C 	C 	0.85591 0.23737 0.23055 0.24100
C 	C 	0.86628 0.16548 0.25520 -0.45300
C 	C 	0.90902 0.12632 0.20830 0.50600
C 	C 	0.92079 0.04839 0.23261 -1.04500
C 	C 	0.94093 0.16435 0.13727 -0.43700
C 	C 	0.92930 0.23656 0.11736 0.22400
C 	C 	0.42555 0.84911 0.48495 0.33100
C 	C 	0.40476 0.84630 0.43306 -0.12000
C 	C 	0.33610 0.84642 0.45300 0.03400
C 	C 	0.23737 0.85591 0.67617 0.24100
C 	C 	0.16548 0.86628 0.71304 -0.45400
C 	C 	0.12632 0.90902 0.75636 0.50700
C 	C 	0.04839 0.92079 0.79821 -1.04600
C 	C 	0.16435 0.94093 0.75745 -0.43700
C 	C 	0.23656 0.92930 0.71678 0.22400
C 	C 	0.42555 0.24039 0.84911 0.33100
C 	C 	0.40476 0.31588 0.84630 -0.12000
C 	C 	0.33610 0.36448 0.84642 0.03400
C 	C 	0.23737 0.23055 0.85591 0.24100
C 	C 	0.16548 0.25520 0.86628 -0.45300
C 	C 	0.12632 0.20830 0.90902 0.50600
C 	C 	0.04839 0.23261 0.92079 -1.04500
C 	C 	0.16435 0.13727 0.94093 -0.43700
C 	C 	0.23656 0.11736 0.92930 0.22400
C 	C 	0.84911 0.48495 0.42555 0.33100
C 	C 	0.84630 0.43306 0.40476 -0.12000
C 	C 	0.84642 0.45300 0.33610 0.03400
C 	C 	0.85591 0.67617 0.23737 0.24100
C 	C 	0.86628 0.71304 0.16548 -0.45400
C 	C 	0.90902 0.75636 0.12632 0.50700
C 	C 	0.92079 0.79821 0.04839 -1.04600
C 	C 	0.94093 0.75745 0.16435 -0.43700
C 	C 	0.92930 0.71678 0.23656 0.22400
C 	C 	0.24039 0.42555 0.48495 0.33100
C 	C 	0.31588 0.40476 0.43306 -0.12000
C 	C 	0.36448 0.33610 0.45300 0.03400
C 	C 	0.23055 0.23737 0.67617 0.24100
C 	C 	0.25520 0.16548 0.71304 -0.45300
C 	C 	0.20830 0.12632 0.75636 0.50500
C 	C 	0.23261 0.04839 0.79821 -1.04300
C 	C 	0.13727 0.16435 0.75745 -0.43600
C 	C 	0.11736 0.23656 0.71678 0.22400
C 	C 	0.48495 0.84911 0.24039 0.33100
C 	C 	0.43306 0.84630 0.31588 -0.12000
C 	C 	0.45300 0.84642 0.36448 0.03400
C 	C 	0.67617 0.85591 0.23055 0.24200
C 	C 	0.71304 0.86628 0.25520 -0.45600
C 	C 	0.75636 0.90902 0.20830 0.51000
C 	C 	0.79821 0.92079 0.23261 -1.05200
C 	C 	0.75745 0.94093 0.13727 -0.43900
C 	C 	0.71678 0.92930 0.11736 0.22600
C 	C 	0.84911 0.24039 0.48495 0.33100
C 	C 	0.84630 0.31588 0.43306 -0.12000
C 	C 	0.84642 0.36448 0.45300 0.03400
C 	C 	0.85591 0.23055 0.67617 0.24200
C 	C 	0.86628 0.25520 0.71304 -0.45600
C 	C 	0.90902 0.20830 0.75636 0.51000
C 	C 	0.92079 0.23261 0.79821 -1.05200
C 	C 	0.94093 0.13727 0.75745 -0.43900
C 	C 	0.92930 0.11736 0.71678 0.22600
C 	C 	0.42555 0.48495 0.24039 0.33100
C 	C 	0.40476 0.43306 0.31588 -0.12000
C 	C 	0.33610 0.45300 0.36448 0.03400
C 	C 	0.23737 0.67617 0.23055 0.24100
C 	C 	0.16548 0.71304 0.25520 -0.45300
C 	C 	0.12632 0.75636 0.20830 0.50500
C 	C 	0.04839 0.79821 0.23261 -1.04300
C 	C 	0.16435 0.75745 0.13727 -0.43600
C 	C 	0.23656 0.71678 0.11736 0.22400
C 	C 	0.48495 0.42555 0.84911 0.33100
C 	C 	0.43306 0.40476 0.84630 -0.12000
C 	C 	0.45300 0.33610 0.84642 0.03400
C 	C 	0.67617 0.23737 0.85591 0.24100
C 	C 	0.71304 0.16548 0.86628 -0.45400
C 	C 	0.75636 0.12632 0.90902 0.50700
C 	C 	0.79821 0.04839 0.92079 -1.04600
C 	C 	0.75745 0.16435 0.94093 -0.43700
C 	C 	0.71678 0.23656 0.92930 0.22400
C 	C 	0.24039 0.84911 0.42555 0.33100
C 	C 	0.31588 0.84630 0.40476 -0.12000
C 	C 	0.36448 0.84642 0.33610 0.03400
C 	C 	0.23055 0.85591 0.23737 0.24100
C 	C 	0.25520 0.86628 0.16548 -0.45300
C 	C 	0.20830 0.90902 0.12632 0.50600
C 	C 	0.23261 0.92079 0.04839 -1.04500
C 	C 	0.13727 0.94093 0.16435 -0.43700
C 	C 	0.11736 0.92930 0.23656 0.22400
N 	N 	0.08763 0.57213 0.97589 -0.29300
N 	N 	0.57213 0.08763 0.36435 -0.29800
N 	N 	0.97589 0.36435 0.08763 -0.29400
N 	N 	0.36435 0.97589 0.57213 -0.29300
N 	N 	0.08763 0.97589 0.36435 -0.29400
N 	N 	0.57213 0.36435 0.97589 -0.29300
N 	N 	0.97589 0.08763 0.57213 -0.29300
N 	N 	0.36435 0.57213 0.08763 -0.29800
N 	N 	0.08763 0.36435 0.57213 -0.29800
N 	N 	0.57213 0.97589 0.08763 -0.29300
N 	N 	0.97589 0.57213 0.36435 -0.29300
N 	N 	0.36435 0.08763 0.97589 -0.29400
N 	N 	0.67787 0.16237 0.27411 -0.30000
N 	N 	0.16237 0.67787 0.88565 -0.30000
N 	N 	0.88565 0.27411 0.16237 -0.30000
N 	N 	0.27411 0.88565 0.67787 -0.30000
N 	N 	0.27411 0.16237 0.88565 -0.30000
N 	N 	0.88565 0.67787 0.27411 -0.30000
N 	N 	0.16237 0.27411 0.67787 -0.30000
N 	N 	0.67787 0.88565 0.16237 -0.30000
N 	N 	0.88565 0.16237 0.67787 -0.30000
N 	N 	0.27411 0.67787 0.16237 -0.30000
N 	N 	0.67787 0.27411 0.88565 -0.30000
N 	N 	0.16237 0.88565 0.27411 -0.30000
O 	O 	0.02718 0.70734 0.87280 -0.43100
O 	O 	0.05017 0.78385 0.76069 -0.30700
O 	O 	0.70734 0.02718 0.39268 -0.43200
O 	O 	0.78385 0.05017 0.40529 -0.30700
O 	O 	0.87280 0.39268 0.02718 -0.43200
O 	O 	0.76069 0.40529 0.05017 -0.30700
O 	O 	0.39268 0.87280 0.70734 -0.43100
O 	O 	0.40529 0.76069 0.78385 -0.30700
O 	O 	0.02718 0.87280 0.39268 -0.43200
O 	O 	0.05017 0.76069 0.40529 -0.30700
O 	O 	0.70734 0.39268 0.87280 -0.43100
O 	O 	0.78385 0.40529 0.76069 -0.30700
O 	O 	0.87280 0.02718 0.70734 -0.43100
O 	O 	0.76069 0.05017 0.78385 -0.30700
O 	O 	0.39268 0.70734 0.02718 -0.43200
O 	O 	0.40529 0.78385 0.05017 -0.30700
O 	O 	0.02718 0.39268 0.70734 -0.43200
O 	O 	0.05017 0.40529 0.78385 -0.30700
O 	O 	0.70734 0.87280 0.02718 -0.43100
O 	O 	0.78385 0.76069 0.05017 -0.30700
O 	O 	0.87280 0.70734 0.39268 -0.43100
O 	O 	0.76069 0.78385 0.40529 -0.30700
O 	O 	0.39268 0.02718 0.87280 -0.43200
O 	O 	0.40529 0.05017 0.76069 -0.30700
O 	O 	0.54266 0.22282 0.37720 -0.43200
O 	O 	0.46615 0.19983 0.48931 -0.30700
O 	O 	0.22282 0.54266 0.85732 -0.43200
O 	O 	0.19983 0.46615 0.84471 -0.30700
O 	O 	0.85732 0.37720 0.22282 -0.43200
O 	O 	0.84471 0.48931 0.19983 -0.30700
O 	O 	0.37720 0.85732 0.54266 -0.43200
O 	O 	0.48931 0.84471 0.46615 -0.30700
O 	O 	0.37720 0.22282 0.85732 -0.43200
O 	O 	0.48931 0.19983 0.84471 -0.30700
O 	O 	0.85732 0.54266 0.37720 -0.43200
O 	O 	0.84471 0.46615 0.48931 -0.30700
O 	O 	0.22282 0.37720 0.54266 -0.43200
O 	O 	0.19983 0.48931 0.46615 -0.30700
O 	O 	0.54266 0.85732 0.22282 -0.43200
O 	O 	0.46615 0.84471 0.19983 -0.30700
O 	O 	0.85732 0.22282 0.54266 -0.43200
O 	O 	0.84471 0.19983 0.46615 -0.30700
O 	O 	0.37720 0.54266 0.22282 -0.43200
O 	O 	0.48931 0.46615 0.19983 -0.30700
O 	O 	0.54266 0.37720 0.85732 -0.43200
O 	O 	0.46615 0.48931 0.84471 -0.30700
O 	O 	0.22282 0.85732 0.37720 -0.43200
O 	O 	0.19983 0.84471 0.48931 -0.30700
