data_crystal

_cell_length_a 17.88400
_cell_length_b 11.79700
_cell_length_c 20.24300
_cell_angle_alpha 90.00000
_cell_angle_beta  111.77000
_cell_angle_gamma 90.00000

_symmetry_space_group_name_	'P 1'
_symmetry_space_group_name_H-M	'P 1'

loop_
_symmetry_equiv_pos_as_xyz
  x,y,z

loop_
_atom_site_label
_atom_site_type_symbol
_atom_site_fract_x
_atom_site_fract_y
_atom_site_fract_z
_atom_site_charge
C 	C 	0.50970 0.36820 0.40120 0.50900
H 	H 	0.50930 0.28980 0.40560 -0.13100
C 	C 	0.51600 0.31920 0.10230 0.42100
H 	H 	0.51850 0.39740 0.10830 -0.08900
C 	C 	0.50540 0.57860 0.23240 0.50100
H 	H 	0.48100 0.57410 0.26570 -0.15800
C 	C 	0.68120 0.10760 0.07810 0.10600
H 	H 	0.66880 0.13330 0.03190 -0.01300
C 	C 	0.67020 0.05190 0.17450 0.00900
H 	H 	0.64830 0.03250 0.20810 0.02600
C 	C 	0.74880 0.04740 0.18480 0.00500
H 	H 	0.79050 0.02350 0.22580 0.03600
C 	C 	0.82830 0.09110 0.10850 0.12800
C 	C 	0.89020 0.01710 0.14040 -0.12600
H 	H 	0.88540 0.96210 0.17160 0.08300
C 	C 	0.95990 0.02440 0.12610 -0.01000
H 	H 	0.00160 0.97360 0.14790 0.04000
C 	C 	0.96960 0.10520 0.08030 -0.00400
C 	C 	0.90610 0.17940 0.04980 -0.00700
H 	H 	0.91050 0.23480 0.01880 0.02900
C 	C 	0.83650 0.17380 0.06390 -0.12700
H 	H 	0.79530 0.22590 0.04340 0.07600
C 	C 	0.33120 0.10200 0.05510 0.11000
H 	H 	0.34560 0.06230 0.09780 -0.01200
C 	C 	0.33670 0.18540 0.96370 0.00300
H 	H 	0.35630 0.21460 0.93060 0.02700
C 	C 	0.26050 0.19400 0.95970 0.01000
H 	H 	0.21830 0.22960 0.92380 0.02700
C 	C 	0.18550 0.13110 0.03570 0.13300
C 	C 	0.12360 0.20580 0.00690 -0.13200
H 	H 	0.12810 0.26340 0.97720 0.07700
C 	C 	0.05500 0.19670 0.02130 0.00000
H 	H 	0.01370 0.24870 0.00100 0.02700
C 	C 	0.04490 0.11320 0.06500 -0.01000
C 	C 	0.10880 0.03920 0.09420 -0.00300
H 	H 	0.10500 0.98230 0.12470 0.03700
C 	C 	0.17820 0.04760 0.07940 -0.13300
H 	H 	0.21990 0.99620 0.09930 0.08600
C 	C 	0.33180 0.30410 0.22810 0.09800
H 	H 	0.34480 0.26090 0.26920 0.00200
C 	C 	0.34100 0.40090 0.14190 0.00500
H 	H 	0.36270 0.43790 0.11250 0.02900
C 	C 	0.26250 0.39570 0.13060 0.00400
H 	H 	0.22050 0.42720 0.09260 0.02700
C 	C 	0.18340 0.31510 0.20040 0.11800
C 	C 	0.11700 0.38210 0.16670 -0.12100
H 	H 	0.11820 0.43570 0.13340 0.07100
C 	C 	0.04870 0.36960 0.18230 -0.01400
H 	H 	0.00420 0.41520 0.15920 0.03200
C 	C 	0.04450 0.29040 0.23200 -0.00700
C 	C 	0.11190 0.22250 0.26360 -0.01300
H 	H 	0.11070 0.16770 0.29620 0.03200
C 	C 	0.18050 0.23370 0.24820 -0.12300
H 	H 	0.22460 0.18660 0.26990 0.07700
C 	C 	0.69180 0.31900 0.26880 0.09900
H 	H 	0.68090 0.36080 0.22730 -0.00200
C 	C 	0.67930 0.23430 0.35710 0.00100
H 	H 	0.65710 0.20570 0.38850 0.03000
C 	C 	0.75640 0.22120 0.36400 0.00400
H 	H 	0.79630 0.18290 0.40040 0.02400
C 	C 	0.83520 0.27900 0.28880 0.12100
C 	C 	0.83610 0.34660 0.23380 -0.12900
H 	H 	0.79190 0.39180 0.20930 0.07900
C 	C 	0.90250 0.34700 0.21540 -0.00400
H 	H 	0.90140 0.39110 0.17700 0.03000
C 	C 	0.97180 0.28440 0.25170 -0.01300
C 	C 	0.96900 0.21820 0.30750 -0.00800
H 	H 	0.01370 0.17460 0.33330 0.02900
C 	C 	0.90220 0.21520 0.32600 -0.12700
H 	H 	0.90240 0.16990 0.36360 0.07200
Co	Co	0.51216 0.32728 0.25097 1.18000
Co	Co	0.50435 0.10795 0.05348 1.16100
N 	N 	0.62750 0.08950 0.10710 -0.23400
N 	N 	0.75580 0.08470 0.12340 -0.14300
N 	N 	0.38120 0.12720 0.02360 -0.23600
N 	N 	0.25640 0.14060 0.01820 -0.14600
N 	N 	0.38490 0.34390 0.20300 -0.21700
N 	N 	0.25580 0.33440 0.18630 -0.14000
N 	N 	0.63780 0.29600 0.29710 -0.21700
N 	N 	0.76510 0.27490 0.30720 -0.14300
O 	O 	0.50710 0.42860 0.45231 -0.57500
O 	O 	0.51260 0.40850 0.34623 -0.47300
O 	O 	0.51610 0.28010 0.04508 -0.42500
O 	O 	0.51280 0.25970 0.15190 -0.48200
O 	O 	0.53050 0.48860 0.21652 -0.43900
O 	O 	0.50960 0.67370 0.20834 -0.44500
C 	C 	0.49030 0.86820 0.09880 0.50800
H 	H 	0.49070 0.78980 0.09440 -0.13200
C 	C 	0.48400 0.81920 0.39770 0.42000
H 	H 	0.48150 0.89740 0.39170 -0.08900
C 	C 	0.49460 0.07860 0.26760 0.50000
H 	H 	0.51900 0.07410 0.23430 -0.15800
C 	C 	0.31880 0.60760 0.42190 0.10600
H 	H 	0.33120 0.63330 0.46810 -0.01200
C 	C 	0.32980 0.55190 0.32550 0.00900
H 	H 	0.35170 0.53250 0.29190 0.02600
C 	C 	0.25120 0.54740 0.31520 0.00500
H 	H 	0.20950 0.52350 0.27420 0.03700
C 	C 	0.17170 0.59110 0.39150 0.12800
C 	C 	0.10980 0.51710 0.35960 -0.12500
H 	H 	0.11460 0.46210 0.32840 0.08200
C 	C 	0.04010 0.52440 0.37390 -0.00700
H 	H 	0.99840 0.47360 0.35210 0.03800
C 	C 	0.03040 0.60520 0.41970 -0.00400
C 	C 	0.09390 0.67940 0.45020 -0.00700
H 	H 	0.08950 0.73480 0.48120 0.03000
C 	C 	0.16350 0.67380 0.43610 -0.12700
H 	H 	0.20470 0.72590 0.45660 0.07700
C 	C 	0.66880 0.60200 0.44490 0.11000
H 	H 	0.65440 0.56230 0.40220 -0.01200
C 	C 	0.66330 0.68540 0.53630 0.00200
H 	H 	0.64370 0.71460 0.56940 0.02700
C 	C 	0.73950 0.69400 0.54030 0.01000
H 	H 	0.78170 0.72960 0.57620 0.02700
C 	C 	0.81450 0.63110 0.46430 0.13200
C 	C 	0.87640 0.70580 0.49310 -0.13100
H 	H 	0.87190 0.76340 0.52280 0.07600
C 	C 	0.94500 0.69670 0.47870 -0.00000
H 	H 	0.98630 0.74870 0.49900 0.02700
C 	C 	0.95510 0.61320 0.43500 -0.01000
C 	C 	0.89120 0.53920 0.40580 -0.00200
H 	H 	0.89500 0.48230 0.37530 0.03600
C 	C 	0.82180 0.54760 0.42060 -0.13100
H 	H 	0.78010 0.49620 0.40070 0.08400
C 	C 	0.66820 0.80410 0.27190 0.09800
H 	H 	0.65520 0.76090 0.23080 0.00200
C 	C 	0.65900 0.90090 0.35810 0.00500
H 	H 	0.63730 0.93790 0.38750 0.02900
C 	C 	0.73750 0.89570 0.36940 0.00400
H 	H 	0.77950 0.92720 0.40740 0.02700
C 	C 	0.81660 0.81510 0.29960 0.11800
C 	C 	0.88300 0.88210 0.33330 -0.12200
H 	H 	0.88180 0.93570 0.36660 0.07100
C 	C 	0.95130 0.86960 0.31770 -0.01400
H 	H 	0.99580 0.91520 0.34080 0.03100
C 	C 	0.95550 0.79040 0.26800 -0.00800
C 	C 	0.88810 0.72250 0.23640 -0.01200
H 	H 	0.88930 0.66770 0.20380 0.03200
C 	C 	0.81950 0.73370 0.25180 -0.12400
H 	H 	0.77540 0.68660 0.23010 0.07800
C 	C 	0.30820 0.81900 0.23120 0.09900
H 	H 	0.31910 0.86080 0.27270 -0.00200
C 	C 	0.32070 0.73430 0.14290 0.00100
H 	H 	0.34290 0.70570 0.11150 0.03000
C 	C 	0.24360 0.72120 0.13600 0.00400
H 	H 	0.20370 0.68290 0.09960 0.02400
C 	C 	0.16480 0.77900 0.21120 0.12100
C 	C 	0.16390 0.84660 0.26620 -0.12900
H 	H 	0.20810 0.89180 0.29070 0.07900
C 	C 	0.09750 0.84700 0.28460 -0.00400
H 	H 	0.09860 0.89110 0.32300 0.03000
C 	C 	0.02820 0.78440 0.24830 -0.01200
C 	C 	0.03100 0.71820 0.19250 -0.00700
H 	H 	0.98630 0.67460 0.16670 0.02800
C 	C 	0.09780 0.71520 0.17400 -0.12700
H 	H 	0.09760 0.66990 0.13640 0.07200
Co	Co	0.48784 0.82728 0.24903 1.18000
Co	Co	0.49565 0.60795 0.44652 1.16100
N 	N 	0.37250 0.58950 0.39290 -0.23400
N 	N 	0.24420 0.58470 0.37660 -0.14300
N 	N 	0.61880 0.62720 0.47640 -0.23600
N 	N 	0.74360 0.64060 0.48180 -0.14500
N 	N 	0.61510 0.84390 0.29700 -0.21700
N 	N 	0.74420 0.83440 0.31370 -0.14000
N 	N 	0.36220 0.79600 0.20290 -0.21700
N 	N 	0.23490 0.77490 0.19280 -0.14300
O 	O 	0.49290 0.92860 0.04769 -0.57400
O 	O 	0.48740 0.90850 0.15377 -0.47200
O 	O 	0.48390 0.78010 0.45492 -0.42500
O 	O 	0.48720 0.75970 0.34810 -0.48200
O 	O 	0.46950 0.98860 0.28348 -0.43900
O 	O 	0.49040 0.17370 0.29166 -0.44500
C 	C 	0.49030 0.63180 0.59880 0.50800
H 	H 	0.49070 0.71020 0.59440 -0.13200
C 	C 	0.48400 0.68080 0.89770 0.42100
H 	H 	0.48150 0.60260 0.89170 -0.08900
C 	C 	0.49460 0.42140 0.76760 0.50100
H 	H 	0.51900 0.42590 0.73430 -0.15800
C 	C 	0.31880 0.89240 0.92190 0.10600
H 	H 	0.33120 0.86670 0.96810 -0.01300
C 	C 	0.32980 0.94810 0.82550 0.00900
H 	H 	0.35170 0.96750 0.79190 0.02600
C 	C 	0.25120 0.95260 0.81520 0.00500
H 	H 	0.20950 0.97650 0.77420 0.03600
C 	C 	0.17170 0.90890 0.89150 0.12800
C 	C 	0.10980 0.98290 0.85960 -0.12600
H 	H 	0.11460 0.03790 0.82840 0.08300
C 	C 	0.04010 0.97560 0.87390 -0.01000
H 	H 	0.99840 0.02640 0.85210 0.04000
C 	C 	0.03040 0.89480 0.91970 -0.00400
C 	C 	0.09390 0.82060 0.95020 -0.00700
H 	H 	0.08950 0.76520 0.98120 0.02900
C 	C 	0.16350 0.82620 0.93610 -0.12700
H 	H 	0.20470 0.77410 0.95660 0.07600
C 	C 	0.66880 0.89800 0.94490 0.11000
H 	H 	0.65440 0.93770 0.90220 -0.01200
C 	C 	0.66330 0.81460 0.03630 0.00300
H 	H 	0.64370 0.78540 0.06940 0.02700
C 	C 	0.73950 0.80600 0.04030 0.01000
H 	H 	0.78170 0.77040 0.07620 0.02700
C 	C 	0.81450 0.86890 0.96430 0.13300
C 	C 	0.87640 0.79420 0.99310 -0.13200
H 	H 	0.87190 0.73660 0.02280 0.07700
C 	C 	0.94500 0.80330 0.97870 0.00000
H 	H 	0.98630 0.75130 0.99900 0.02700
C 	C 	0.95510 0.88680 0.93500 -0.01000
C 	C 	0.89120 0.96080 0.90580 -0.00300
H 	H 	0.89500 0.01770 0.87530 0.03700
C 	C 	0.82180 0.95240 0.92060 -0.13300
H 	H 	0.78010 0.00380 0.90070 0.08600
C 	C 	0.66820 0.69590 0.77190 0.09800
H 	H 	0.65520 0.73910 0.73080 0.00200
C 	C 	0.65900 0.59910 0.85810 0.00500
H 	H 	0.63730 0.56210 0.88750 0.02900
C 	C 	0.73750 0.60430 0.86940 0.00400
H 	H 	0.77950 0.57280 0.90740 0.02700
C 	C 	0.81660 0.68490 0.79960 0.11800
C 	C 	0.88300 0.61790 0.83330 -0.12100
H 	H 	0.88180 0.56430 0.86660 0.07100
C 	C 	0.95130 0.63040 0.81770 -0.01400
H 	H 	0.99580 0.58480 0.84080 0.03200
C 	C 	0.95550 0.70960 0.76800 -0.00700
C 	C 	0.88810 0.77750 0.73640 -0.01300
H 	H 	0.88930 0.83230 0.70380 0.03200
C 	C 	0.81950 0.76630 0.75180 -0.12300
H 	H 	0.77540 0.81340 0.73010 0.07700
C 	C 	0.30820 0.68100 0.73120 0.09900
H 	H 	0.31910 0.63920 0.77270 -0.00200
C 	C 	0.32070 0.76570 0.64290 0.00100
H 	H 	0.34290 0.79430 0.61150 0.03000
C 	C 	0.24360 0.77880 0.63600 0.00400
H 	H 	0.20370 0.81710 0.59960 0.02400
C 	C 	0.16480 0.72100 0.71120 0.12100
C 	C 	0.16390 0.65340 0.76620 -0.12900
H 	H 	0.20810 0.60820 0.79070 0.07900
C 	C 	0.09750 0.65300 0.78460 -0.00400
H 	H 	0.09860 0.60890 0.82300 0.03000
C 	C 	0.02820 0.71560 0.74830 -0.01300
C 	C 	0.03100 0.78180 0.69250 -0.00800
H 	H 	0.98630 0.82540 0.66670 0.02900
C 	C 	0.09780 0.78480 0.67400 -0.12700
H 	H 	0.09760 0.83010 0.63640 0.07200
Co	Co	0.48784 0.67272 0.74903 1.18000
Co	Co	0.49565 0.89205 0.94652 1.16100
N 	N 	0.37250 0.91050 0.89290 -0.23400
N 	N 	0.24420 0.91530 0.87660 -0.14300
N 	N 	0.61880 0.87280 0.97640 -0.23600
N 	N 	0.74360 0.85940 0.98180 -0.14600
N 	N 	0.61510 0.65610 0.79700 -0.21700
N 	N 	0.74420 0.66560 0.81370 -0.14000
N 	N 	0.36220 0.70400 0.70290 -0.21700
N 	N 	0.23490 0.72510 0.69280 -0.14300
O 	O 	0.49290 0.57140 0.54769 -0.57500
O 	O 	0.48740 0.59150 0.65377 -0.47300
O 	O 	0.48390 0.71990 0.95492 -0.42500
O 	O 	0.48720 0.74030 0.84810 -0.48200
O 	O 	0.46950 0.51140 0.78348 -0.43900
O 	O 	0.49040 0.32630 0.79166 -0.44500
C 	C 	0.50970 0.13180 0.90120 0.50800
H 	H 	0.50930 0.21020 0.90560 -0.13200
C 	C 	0.51600 0.18080 0.60230 0.42000
H 	H 	0.51850 0.10260 0.60830 -0.08900
C 	C 	0.50540 0.92140 0.73240 0.50000
H 	H 	0.48100 0.92590 0.76570 -0.15800
C 	C 	0.68120 0.39240 0.57810 0.10600
H 	H 	0.66880 0.36670 0.53190 -0.01200
C 	C 	0.67020 0.44810 0.67450 0.00900
H 	H 	0.64830 0.46750 0.70810 0.02600
C 	C 	0.74880 0.45260 0.68480 0.00500
H 	H 	0.79050 0.47650 0.72580 0.03700
C 	C 	0.82830 0.40890 0.60850 0.12800
C 	C 	0.89020 0.48290 0.64040 -0.12500
H 	H 	0.88540 0.53790 0.67160 0.08200
C 	C 	0.95990 0.47560 0.62610 -0.00700
H 	H 	0.00160 0.52640 0.64790 0.03800
C 	C 	0.96960 0.39480 0.58030 -0.00400
C 	C 	0.90610 0.32060 0.54980 -0.00700
H 	H 	0.91050 0.26520 0.51880 0.03000
C 	C 	0.83650 0.32620 0.56390 -0.12700
H 	H 	0.79530 0.27410 0.54340 0.07700
C 	C 	0.33120 0.39800 0.55510 0.11000
H 	H 	0.34560 0.43770 0.59780 -0.01200
C 	C 	0.33670 0.31460 0.46370 0.00200
H 	H 	0.35630 0.28540 0.43060 0.02700
C 	C 	0.26050 0.30600 0.45970 0.01000
H 	H 	0.21830 0.27040 0.42380 0.02700
C 	C 	0.18550 0.36890 0.53570 0.13200
C 	C 	0.12360 0.29420 0.50690 -0.13100
H 	H 	0.12810 0.23660 0.47720 0.07600
C 	C 	0.05500 0.30330 0.52130 -0.00000
H 	H 	0.01370 0.25130 0.50100 0.02700
C 	C 	0.04490 0.38680 0.56500 -0.01000
C 	C 	0.10880 0.46080 0.59420 -0.00200
H 	H 	0.10500 0.51770 0.62470 0.03600
C 	C 	0.17820 0.45240 0.57940 -0.13100
H 	H 	0.21990 0.50380 0.59930 0.08400
C 	C 	0.33180 0.19590 0.72810 0.09800
H 	H 	0.34480 0.23910 0.76920 0.00200
C 	C 	0.34100 0.09910 0.64190 0.00500
H 	H 	0.36270 0.06210 0.61250 0.02900
C 	C 	0.26250 0.10430 0.63060 0.00400
H 	H 	0.22050 0.07280 0.59260 0.02700
C 	C 	0.18340 0.18490 0.70040 0.11800
C 	C 	0.11700 0.11790 0.66670 -0.12200
H 	H 	0.11820 0.06430 0.63340 0.07100
C 	C 	0.04870 0.13040 0.68230 -0.01400
H 	H 	0.00420 0.08480 0.65920 0.03100
C 	C 	0.04450 0.20960 0.73200 -0.00800
C 	C 	0.11190 0.27750 0.76360 -0.01200
H 	H 	0.11070 0.33230 0.79620 0.03200
C 	C 	0.18050 0.26630 0.74820 -0.12400
H 	H 	0.22460 0.31340 0.76990 0.07800
C 	C 	0.69180 0.18100 0.76880 0.09900
H 	H 	0.68090 0.13920 0.72730 -0.00200
C 	C 	0.67930 0.26570 0.85710 0.00100
H 	H 	0.65710 0.29430 0.88850 0.03000
C 	C 	0.75640 0.27880 0.86400 0.00400
H 	H 	0.79630 0.31710 0.90040 0.02400
C 	C 	0.83520 0.22100 0.78880 0.12100
C 	C 	0.83610 0.15340 0.73380 -0.12900
H 	H 	0.79190 0.10820 0.70930 0.07900
C 	C 	0.90250 0.15300 0.71540 -0.00400
H 	H 	0.90140 0.10890 0.67700 0.03000
C 	C 	0.97180 0.21560 0.75170 -0.01200
C 	C 	0.96900 0.28180 0.80750 -0.00700
H 	H 	0.01370 0.32540 0.83330 0.02800
C 	C 	0.90220 0.28480 0.82600 -0.12700
H 	H 	0.90240 0.33010 0.86360 0.07200
Co	Co	0.51216 0.17272 0.75097 1.18000
Co	Co	0.50435 0.39205 0.55348 1.16100
N 	N 	0.62750 0.41050 0.60710 -0.23400
N 	N 	0.75580 0.41530 0.62340 -0.14300
N 	N 	0.38120 0.37280 0.52360 -0.23600
N 	N 	0.25640 0.35940 0.51820 -0.14500
N 	N 	0.38490 0.15610 0.70300 -0.21700
N 	N 	0.25580 0.16560 0.68630 -0.14000
N 	N 	0.63780 0.20400 0.79710 -0.21700
N 	N 	0.76510 0.22510 0.80720 -0.14300
O 	O 	0.50710 0.07140 0.95231 -0.57400
O 	O 	0.51260 0.09150 0.84623 -0.47200
O 	O 	0.51610 0.21990 0.54508 -0.42500
O 	O 	0.51280 0.24030 0.65190 -0.48200
O 	O 	0.53050 0.01140 0.71652 -0.43900
O 	O 	0.50960 0.82630 0.70834 -0.44500
