data_crystal

_cell_length_a 8.06740
_cell_length_b 10.00600
_cell_length_c 20.44320
_cell_angle_alpha 100.97200
_cell_angle_beta  95.06500
_cell_angle_gamma 105.05300

_symmetry_space_group_name_	'P 1'
_symmetry_space_group_name_H-M	'P 1'

loop_
_symmetry_equiv_pos_as_xyz
  x,y,z

loop_
_atom_site_label
_atom_site_type_symbol
_atom_site_fract_x
_atom_site_fract_y
_atom_site_fract_z
_atom_site_charge
In	In	0.11547 0.46939 0.62531 2.00600
In	In	0.90401 0.90585 0.66927 2.00800
In	In	0.65109 0.68307 0.82015 2.00900
In	In	0.02231 0.36439 0.88908 1.98600
P 	P 	0.75360 0.54190 0.95330 0.50300
P 	P 	0.01010 0.67960 0.75263 0.48500
P 	P 	0.97680 0.67930 0.53957 0.48000
P 	P 	0.48580 0.74030 0.67197 0.51500
P 	P 	0.83000 0.02120 0.83257 0.75200
H 	H 	0.71320 0.03360 0.82970 -0.19100
O 	O 	0.36230 0.60630 0.63010 -0.50800
O 	O 	0.94820 0.57350 0.58450 -0.51500
O 	O 	0.07940 0.55500 0.72480 -0.51300
O 	O 	0.85470 0.62390 0.47390 -0.47200
O 	O 	0.88680 0.28870 0.61890 -0.43200
O 	O 	0.21790 0.31120 0.66480 -0.41900
O 	O 	0.65540 0.76490 0.64260 -0.50300
O 	O 	0.85730 0.00810 0.76340 -0.60700
O 	O 	0.96390 0.82410 0.57450 -0.48300
O 	O 	0.05760 0.80040 0.71670 -0.52400
O 	O 	0.80820 0.06520 0.62960 -0.42400
O 	O 	0.13680 0.09000 0.67970 -0.41700
O 	O 	0.80220 0.89100 0.86100 -0.53900
O 	O 	0.81680 0.62540 0.75480 -0.55400
O 	O 	0.78050 0.63260 0.90170 -0.51900
O 	O 	0.50630 0.74300 0.74580 -0.53400
O 	O 	0.47360 0.46710 0.80010 -0.44500
O 	O 	0.43440 0.70510 0.87640 -0.42100
O 	O 	0.82930 0.41840 0.93910 -0.55200
O 	O 	0.92580 0.14750 0.88320 -0.55100
O 	O 	0.81600 0.63190 0.02400 -0.49300
O 	O 	0.17700 0.58310 0.89470 -0.45400
O 	O 	0.23640 0.34030 0.83160 -0.45000
C 	C 	0.31550 0.59350 0.87010 0.22800
C 	C 	0.34450 0.45520 0.83000 0.22700
C 	C 	0.91830 0.18230 0.63490 0.23500
C 	C 	0.10730 0.19530 0.66240 0.22000
H 	H 	0.56100 0.48100 0.94200 -0.02100
H 	H 	0.07800 0.72800 0.81300 -0.04200
H 	H 	0.14200 0.69600 0.52200 -0.04300
H 	H 	0.41200 0.84500 0.66100 -0.02800
In	In	0.88453 0.53061 0.37469 2.00600
In	In	0.09599 0.09415 0.33073 2.00800
In	In	0.34891 0.31693 0.17985 2.00900
In	In	0.97769 0.63561 0.11092 1.98600
P 	P 	0.24640 0.45810 0.04670 0.50300
P 	P 	0.98990 0.32040 0.24737 0.48500
P 	P 	0.02320 0.32070 0.46043 0.48000
P 	P 	0.51420 0.25970 0.32803 0.51500
P 	P 	0.17000 0.97880 0.16743 0.75200
H 	H 	0.28680 0.96640 0.17030 -0.19100
O 	O 	0.63770 0.39370 0.36990 -0.50800
O 	O 	0.05180 0.42650 0.41550 -0.51500
O 	O 	0.92060 0.44500 0.27520 -0.51300
O 	O 	0.14530 0.37610 0.52610 -0.47200
O 	O 	0.11320 0.71130 0.38110 -0.43200
O 	O 	0.78210 0.68880 0.33520 -0.41900
O 	O 	0.34460 0.23510 0.35740 -0.50300
O 	O 	0.14270 0.99190 0.23660 -0.60700
O 	O 	0.03610 0.17590 0.42550 -0.48300
O 	O 	0.94240 0.19960 0.28330 -0.52400
O 	O 	0.19180 0.93480 0.37040 -0.42400
O 	O 	0.86320 0.91000 0.32030 -0.41700
O 	O 	0.19780 0.10900 0.13900 -0.53900
O 	O 	0.18320 0.37460 0.24520 -0.55400
O 	O 	0.21950 0.36740 0.09830 -0.51900
O 	O 	0.49370 0.25700 0.25420 -0.53400
O 	O 	0.52640 0.53290 0.19990 -0.44500
O 	O 	0.56560 0.29490 0.12360 -0.42100
O 	O 	0.17070 0.58160 0.06090 -0.55200
O 	O 	0.07420 0.85250 0.11680 -0.55100
O 	O 	0.18400 0.36810 0.97600 -0.49300
O 	O 	0.82300 0.41690 0.10530 -0.45400
O 	O 	0.76360 0.65970 0.16840 -0.45000
C 	C 	0.68450 0.40650 0.12990 0.22800
C 	C 	0.65550 0.54480 0.17000 0.22700
C 	C 	0.08170 0.81770 0.36510 0.23500
C 	C 	0.89270 0.80470 0.33760 0.22000
H 	H 	0.43900 0.51900 0.05800 -0.02100
H 	H 	0.92200 0.27200 0.18700 -0.04200
H 	H 	0.85800 0.30400 0.47800 -0.04300
H 	H 	0.58800 0.15500 0.33900 -0.02800
