data_crystal

_cell_length_a 13.86840
_cell_length_b 13.86840
_cell_length_c 18.63680
_cell_angle_alpha 90.00000
_cell_angle_beta  90.00000
_cell_angle_gamma 120.00000

_symmetry_space_group_name_	'P 1'
_symmetry_space_group_name_H-M	'P 1'

loop_
_symmetry_equiv_pos_as_xyz
  x,y,z

loop_
_atom_site_label
_atom_site_type_symbol
_atom_site_fract_x
_atom_site_fract_y
_atom_site_fract_z
_atom_site_charge
H 	H 	0.27300 0.98800 0.98500 0.25100
H 	H 	0.36500 0.10300 0.98700 -0.31700
In	In	0.43918 0.14564 0.03980 2.01900
P 	P 	0.19152 0.03160 0.12807 0.20200
H 	H 	0.20190 0.97400 0.15140 0.07500
P 	P 	0.63055 0.12406 0.94196 0.65800
H 	H 	0.67490 0.16470 0.90000 -0.13200
O 	O 	0.11610 0.97750 0.06340 -0.37200
O 	O 	0.14590 0.07760 0.18480 -0.50900
O 	O 	0.55760 0.23320 0.12060 -0.55800
O 	O 	0.55290 0.16830 0.95740 -0.49700
O 	O 	0.56800 0.00170 0.92180 -0.56000
O 	O 	0.71270 0.14570 0.00290 -0.56800
O 	O 	0.30710 0.12620 0.10710 -0.45300
O 	O 	0.30850 0.05260 0.95570 -0.32400
H 	H 	0.01200 0.28500 0.98500 -0.02300
H 	H 	0.89700 0.26200 0.98700 -0.35300
In	In	0.85436 0.29354 0.03980 2.05600
P 	P 	0.96840 0.15992 0.12807 0.96600
H 	H 	0.02600 0.22790 0.15140 -0.34100
P 	P 	0.87594 0.50649 0.94196 0.65300
H 	H 	0.83530 0.51020 0.90000 -0.12100
O 	O 	0.02250 0.13860 0.06340 -0.69800
O 	O 	0.92240 0.06830 0.18480 -0.54700
O 	O 	0.76680 0.32440 0.12060 -0.51000
O 	O 	0.83170 0.38460 0.95740 -0.45000
O 	O 	0.99830 0.56630 0.92180 -0.39500
O 	O 	0.85430 0.56700 0.00290 -0.53000
O 	O 	0.87380 0.18090 0.10710 -0.50100
O 	O 	0.94740 0.25590 0.95570 0.04700
H 	H 	0.71500 0.72700 0.98500 0.12500
H 	H 	0.73800 0.63500 0.98700 -0.33800
In	In	0.70646 0.56082 0.03980 2.04000
P 	P 	0.84008 0.80848 0.12807 0.59800
H 	H 	0.77210 0.79810 0.15140 -0.12600
P 	P 	0.49351 0.36945 0.94196 0.65600
H 	H 	0.48980 0.32510 0.90000 -0.13200
O 	O 	0.86140 0.88390 0.06340 -0.44000
O 	O 	0.93170 0.85410 0.18480 -0.38000
O 	O 	0.67560 0.44240 0.12060 -0.52000
O 	O 	0.61540 0.44710 0.95740 -0.47500
O 	O 	0.43370 0.43200 0.92180 -0.48200
O 	O 	0.43300 0.28730 0.00290 -0.55200
O 	O 	0.81910 0.69290 0.10710 -0.44700
O 	O 	0.74410 0.69150 0.95570 -0.14800
H 	H 	0.98800 0.27300 0.51500 0.25100
H 	H 	0.10300 0.36500 0.51300 -0.34200
In	In	0.14564 0.43918 0.46020 2.03300
P 	P 	0.03160 0.19152 0.37193 0.23500
H 	H 	0.97400 0.20190 0.34860 0.05800
P 	P 	0.12406 0.63055 0.55804 0.60100
H 	H 	0.16470 0.67490 0.60000 -0.12200
O 	O 	0.97750 0.11610 0.43660 -0.37500
O 	O 	0.07760 0.14590 0.31520 -0.51300
O 	O 	0.23320 0.55760 0.37940 -0.54900
O 	O 	0.16830 0.55290 0.54260 -0.51400
O 	O 	0.00170 0.56800 0.57820 -0.57400
O 	O 	0.14570 0.71270 0.49710 -0.51300
O 	O 	0.12620 0.30710 0.39290 -0.44700
O 	O 	0.05260 0.30850 0.54430 -0.33800
H 	H 	0.28500 0.01200 0.51500 -0.03500
H 	H 	0.26200 0.89700 0.51300 -0.38100
In	In	0.29354 0.85436 0.46020 2.07100
P 	P 	0.15992 0.96840 0.37193 0.99600
H 	H 	0.22790 0.02600 0.34860 -0.35500
P 	P 	0.50649 0.87594 0.55804 0.60300
H 	H 	0.51020 0.83530 0.60000 -0.11200
O 	O 	0.13860 0.02250 0.43660 -0.68900
O 	O 	0.06830 0.92240 0.31520 -0.54100
O 	O 	0.32440 0.76680 0.37940 -0.49900
O 	O 	0.38460 0.83170 0.54260 -0.46700
O 	O 	0.56630 0.99830 0.57820 -0.40600
O 	O 	0.56700 0.85430 0.49710 -0.48200
O 	O 	0.18090 0.87380 0.39290 -0.49100
O 	O 	0.25590 0.94740 0.54430 0.04300
H 	H 	0.72700 0.71500 0.51500 0.10900
H 	H 	0.63500 0.73800 0.51300 -0.36300
In	In	0.56082 0.70646 0.46020 2.05200
P 	P 	0.80848 0.84008 0.37193 0.59800
H 	H 	0.79810 0.77210 0.34860 -0.12400
P 	P 	0.36945 0.49351 0.55804 0.60500
H 	H 	0.32510 0.48980 0.60000 -0.12200
O 	O 	0.88390 0.86140 0.43660 -0.42300
O 	O 	0.85410 0.93170 0.31520 -0.37700
O 	O 	0.44240 0.67560 0.37940 -0.51300
O 	O 	0.44710 0.61540 0.54260 -0.49100
O 	O 	0.43200 0.43370 0.57820 -0.49000
O 	O 	0.28730 0.43300 0.49710 -0.50400
O 	O 	0.69290 0.81910 0.39290 -0.43700
O 	O 	0.69150 0.74410 0.54430 -0.14500
H 	H 	0.72700 0.01200 0.01500 -0.05100
H 	H 	0.63500 0.89700 0.01300 -0.40400
In	In	0.56082 0.85436 0.96020 2.07800
P 	P 	0.80848 0.96840 0.87193 0.90400
H 	H 	0.79810 0.02600 0.84860 -0.29200
P 	P 	0.36945 0.87594 0.05804 0.57100
H 	H 	0.32510 0.83530 0.10000 -0.10700
O 	O 	0.88390 0.02250 0.93660 -0.54800
O 	O 	0.85410 0.92240 0.81520 -0.44200
O 	O 	0.44240 0.76680 0.87940 -0.49000
O 	O 	0.44710 0.83170 0.04260 -0.48000
O 	O 	0.43200 0.99830 0.07820 -0.40600
O 	O 	0.28730 0.85430 0.99710 -0.45400
O 	O 	0.69290 0.87380 0.89290 -0.45700
O 	O 	0.69150 0.94740 0.04430 0.04500
H 	H 	0.98800 0.71500 0.01500 0.21400
H 	H 	0.10300 0.73800 0.01300 -0.36500
In	In	0.14564 0.70646 0.96020 2.04200
P 	P 	0.03160 0.84008 0.87193 0.25600
H 	H 	0.97400 0.77210 0.84860 0.05900
P 	P 	0.12406 0.49351 0.05804 0.56100
H 	H 	0.16470 0.48980 0.10000 -0.11600
O 	O 	0.97750 0.86140 0.93660 -0.30000
O 	O 	0.07760 0.93170 0.81520 -0.40500
O 	O 	0.23320 0.67560 0.87940 -0.53700
O 	O 	0.16830 0.61540 0.04260 -0.52300
O 	O 	0.00170 0.43370 0.07820 -0.58000
O 	O 	0.14570 0.43300 0.99710 -0.47900
O 	O 	0.12620 0.81910 0.89290 -0.42100
O 	O 	0.05260 0.74410 0.04430 -0.30200
H 	H 	0.28500 0.27300 0.01500 0.09100
H 	H 	0.26200 0.36500 0.01300 -0.38400
In	In	0.29354 0.43918 0.96020 2.06200
P 	P 	0.15992 0.19152 0.87193 0.60800
H 	H 	0.22790 0.20190 0.84860 -0.14800
P 	P 	0.50649 0.63055 0.05804 0.55900
H 	H 	0.51020 0.67490 0.10000 -0.10600
O 	O 	0.13860 0.11610 0.93660 -0.54700
O 	O 	0.06830 0.14590 0.81520 -0.58500
O 	O 	0.32440 0.55760 0.87940 -0.52300
O 	O 	0.38460 0.55290 0.04260 -0.50300
O 	O 	0.56630 0.56800 0.07820 -0.49700
O 	O 	0.56700 0.71270 0.99710 -0.45600
O 	O 	0.18090 0.30710 0.89290 -0.47200
O 	O 	0.25590 0.30850 0.04430 -0.14500
H 	H 	0.01200 0.72700 0.48500 -0.02000
H 	H 	0.89700 0.63500 0.48700 -0.37900
In	In	0.85436 0.56082 0.53980 2.07000
P 	P 	0.96840 0.80848 0.62807 0.93400
H 	H 	0.02600 0.79810 0.65140 -0.31100
P 	P 	0.87594 0.36945 0.44196 0.60500
H 	H 	0.83530 0.32510 0.40000 -0.11500
O 	O 	0.02250 0.88390 0.56340 -0.58800
O 	O 	0.92240 0.85410 0.68480 -0.44500
O 	O 	0.76680 0.44240 0.62060 -0.49200
O 	O 	0.83170 0.44710 0.45740 -0.46800
O 	O 	0.99830 0.43200 0.42180 -0.40400
O 	O 	0.85430 0.28730 0.50290 -0.48500
O 	O 	0.87380 0.69290 0.60710 -0.46600
O 	O 	0.94740 0.69150 0.45570 0.02500
H 	H 	0.71500 0.98800 0.48500 0.24000
H 	H 	0.73800 0.10300 0.48700 -0.34500
In	In	0.70646 0.14564 0.53980 2.03400
P 	P 	0.84008 0.03160 0.62807 0.27600
H 	H 	0.77210 0.97400 0.65140 0.04500
P 	P 	0.49351 0.12406 0.44196 0.60400
H 	H 	0.48980 0.16470 0.40000 -0.12600
O 	O 	0.86140 0.97750 0.56340 -0.32400
O 	O 	0.93170 0.07760 0.68480 -0.40000
O 	O 	0.67560 0.23320 0.62060 -0.53900
O 	O 	0.61540 0.16830 0.45740 -0.51400
O 	O 	0.43370 0.00170 0.42180 -0.57800
O 	O 	0.43300 0.14570 0.50290 -0.51800
O 	O 	0.81910 0.12620 0.60710 -0.42700
O 	O 	0.74410 0.05260 0.45570 -0.32100
H 	H 	0.27300 0.28500 0.48500 0.10700
H 	H 	0.36500 0.26200 0.48700 -0.36100
In	In	0.43918 0.29354 0.53980 2.05100
P 	P 	0.19152 0.15992 0.62807 0.60900
H 	H 	0.20190 0.22790 0.65140 -0.15100
P 	P 	0.63055 0.50649 0.44196 0.60100
H 	H 	0.67490 0.51020 0.40000 -0.11500
O 	O 	0.11610 0.13860 0.56340 -0.57200
O 	O 	0.14590 0.06830 0.68480 -0.58500
O 	O 	0.55760 0.32440 0.62060 -0.52800
O 	O 	0.55290 0.38460 0.45740 -0.49100
O 	O 	0.56800 0.56630 0.42180 -0.48900
O 	O 	0.71270 0.56700 0.50290 -0.49600
O 	O 	0.30710 0.18090 0.60710 -0.48000
O 	O 	0.30850 0.25590 0.45570 -0.14800
In	In	-0.00000 0.00000 -0.00000 1.92000
In	In	-0.00000 0.00000 0.50000 1.93400
In	In	-0.00000 0.00000 0.25000 1.93300
In	In	-0.00000 0.00000 0.75000 1.93400
P 	P 	0.66667 0.33333 0.14100 0.65200
H 	H 	0.66667 0.33333 0.19360 -0.11300
P 	P 	0.33333 0.66667 0.35900 0.65500
H 	H 	0.33333 0.66667 0.30640 -0.11300
P 	P 	0.33333 0.66667 0.85900 0.65800
H 	H 	0.33333 0.66667 0.80640 -0.11500
P 	P 	0.66667 0.33333 0.64100 0.65500
H 	H 	0.66667 0.33333 0.69360 -0.11300
