data_crystal

_cell_length_a 39.00500
_cell_length_b 27.43100
_cell_length_c 27.36200
_cell_angle_alpha 90.00000
_cell_angle_beta  133.84000
_cell_angle_gamma 90.00000

_symmetry_space_group_name_	'P 1'
_symmetry_space_group_name_H-M	'P 1'

loop_
_symmetry_equiv_pos_as_xyz
  x,y,z

loop_
_atom_site_label
_atom_site_type_symbol
_atom_site_fract_x
_atom_site_fract_y
_atom_site_fract_z
_atom_site_charge
C 	C 	0.59740 0.30070 0.82280 0.40700
C 	C 	0.59680 0.33440 0.86670 -0.14500
C 	C 	0.63720 0.35670 0.92350 0.09400
H 	H 	0.66630 0.35070 0.93730 0.01800
C 	C 	0.63430 0.38790 0.95980 -0.16700
H 	H 	0.66190 0.40230 0.99890 0.10900
C 	C 	0.59130 0.39850 0.93940 0.13100
C 	C 	0.55070 0.37590 0.88210 -0.17300
H 	H 	0.52150 0.38270 0.86790 0.10000
C 	C 	0.55280 0.34410 0.84660 0.08900
H 	H 	0.52530 0.32850 0.80890 0.01900
C 	C 	0.58870 0.43460 0.97760 -0.05700
C 	C 	0.61080 0.43050 0.03830 0.12100
C 	C 	0.61310 0.46790 0.08180 -0.07400
H 	H 	0.63040 0.46270 0.12730 0.06200
C 	C 	0.58820 0.50910 0.04930 -0.08500
C 	C 	0.55240 0.50670 0.97820 0.17800
C 	C 	0.55110 0.47390 0.93840 -0.12700
H 	H 	0.52900 0.47600 0.89140 0.08400
C 	C 	0.63260 0.60970 0.17400 0.12100
H 	H 	0.66190 0.62340 0.21080 0.00700
C 	C 	0.63070 0.57100 0.13940 -0.19700
H 	H 	0.65870 0.55970 0.15290 0.10700
C 	C 	0.58870 0.54900 0.08620 0.15300
C 	C 	0.54830 0.56720 0.06770 -0.19500
H 	H 	0.51920 0.55360 0.03060 0.11000
C 	C 	0.54940 0.60480 0.10200 0.11700
H 	H 	0.52160 0.61460 0.09010 0.00200
C 	C 	0.59230 0.62810 0.15480 -0.18200
C 	C 	0.59340 0.67160 0.18920 0.44200
C 	C 	0.47420 0.53930 0.85810 0.29200
H 	H 	0.48340 0.54170 0.83310 -0.05600
H 	H 	0.45630 0.50950 0.84540 -0.05600
C 	C 	0.44580 0.58430 0.84650 -0.75700
H 	H 	0.41720 0.58670 0.79930 0.25400
H 	H 	0.46470 0.61310 0.86040 0.26400
H 	H 	0.43780 0.58120 0.87260 0.26300
C 	C 	0.60630 0.19930 0.67370 0.42500
C 	C 	0.60760 0.16560 0.63140 -0.16500
C 	C 	0.56650 0.15140 0.56910 0.10700
H 	H 	0.53750 0.16350 0.55120 0.01100
C 	C 	0.56860 0.11940 0.53310 -0.17100
H 	H 	0.54020 0.10940 0.49080 0.10500
C 	C 	0.61090 0.10070 0.55640 0.12400
C 	C 	0.65230 0.11750 0.61850 -0.17400
H 	H 	0.68150 0.10700 0.63540 0.09600
C 	C 	0.65100 0.14940 0.65560 0.10000
H 	H 	0.67930 0.16040 0.69730 0.01400
C 	C 	0.60970 0.06280 0.51750 -0.04400
C 	C 	0.58480 0.06860 0.44900 0.09800
C 	C 	0.58560 0.03290 0.41510 -0.09200
H 	H 	0.56740 0.03830 0.36930 0.06800
C 	C 	0.60970 0.99100 0.44080 -0.04600
C 	C 	0.63430 0.98120 0.51020 0.12000
C 	C 	0.63560 0.02190 0.55080 -0.08300
H 	H 	0.65380 0.01830 0.59690 0.07400
C 	C 	0.56520 0.89890 0.30640 0.08900
H 	H 	0.53660 0.89010 0.26360 0.01400
C 	C 	0.56570 0.93660 0.34080 -0.16400
H 	H 	0.53750 0.95200 0.32190 0.08900
C 	C 	0.60910 0.95100 0.40460 0.12100
C 	C 	0.64940 0.92810 0.43010 -0.17000
H 	H 	0.67840 0.93780 0.47180 0.10600
C 	C 	0.64840 0.89020 0.39520 0.09700
H 	H 	0.67670 0.87570 0.41340 0.01200
C 	C 	0.60670 0.87430 0.33510 -0.16400
C 	C 	0.60460 0.82990 0.30180 0.40500
C 	C 	0.54170 0.13270 0.35010 -0.51000
H 	H 	0.56890 0.13430 0.35530 0.18700
H 	H 	0.51650 0.11440 0.30950 0.18100
C 	C 	0.52910 0.17100 0.34890 0.48800
H 	H 	0.51960 0.18880 0.31100 -0.12200
H 	H 	0.55460 0.18790 0.39010 -0.09900
H 	H 	0.50260 0.16820 0.34470 -0.10100
C 	C 	0.45190 0.26260 0.56280 0.07900
H 	H 	0.46840 0.27860 0.55450 0.00200
C 	C 	0.40270 0.26260 0.51230 -0.09200
H 	H 	0.38710 0.27750 0.47090 0.06600
C 	C 	0.37770 0.24090 0.52320 -0.01800
C 	C 	0.40290 0.21670 0.58340 -0.08200
H 	H 	0.38690 0.19950 0.59180 0.06500
C 	C 	0.45090 0.21780 0.63040 0.06000
H 	H 	0.46740 0.20130 0.67110 0.01200
C 	C 	0.25070 0.24890 0.35800 0.20800
H 	H 	0.23530 0.25480 0.31330 -0.04100
C 	C 	0.29890 0.24710 0.40570 -0.30100
H 	H 	0.31490 0.25010 0.39180 0.13800
C 	C 	0.32390 0.24150 0.46990 0.25500
C 	C 	0.29820 0.23040 0.48000 -0.35200
H 	H 	0.31250 0.22110 0.52330 0.16000
C 	C 	0.24940 0.23150 0.42880 0.27500
H 	H 	0.23310 0.22220 0.44080 -0.06900
N 	N 	0.47590 0.24190 0.62050 -0.24500
N 	N 	0.22540 0.24280 0.37140 -0.33300
O 	O 	0.56000 0.28400 0.76990 -0.47800
O 	O 	0.63880 0.29310 0.84670 -0.46000
O 	O 	0.55560 0.68880 0.16520 -0.48200
O 	O 	0.63390 0.68820 0.23910 -0.47700
O 	O 	0.52000 0.54190 0.93910 -0.25900
O 	O 	0.65080 0.39860 0.07910 -0.18800
O 	O 	0.56710 0.21230 0.65030 -0.47600
O 	O 	0.64540 0.21090 0.73160 -0.46400
O 	O 	0.56400 0.81620 0.24720 -0.46000
O 	O 	0.64290 0.80870 0.33080 -0.46500
O 	O 	0.55470 0.11100 0.41120 -0.11700
O 	O 	0.66280 0.94060 0.54830 -0.18300
Zn	Zn	0.54856 0.24694 0.69537 1.21600
Zn	Zn	0.65287 0.25316 0.79921 1.21700
C 	C 	0.09740 0.80070 0.82280 0.40600
C 	C 	0.09680 0.83440 0.86670 -0.14600
C 	C 	0.13720 0.85670 0.92350 0.09200
H 	H 	0.16630 0.85070 0.93730 0.01700
C 	C 	0.13430 0.88790 0.95980 -0.16800
H 	H 	0.16190 0.90230 0.99890 0.10800
C 	C 	0.09130 0.89850 0.93940 0.12900
C 	C 	0.05070 0.87590 0.88210 -0.17300
H 	H 	0.02150 0.88270 0.86790 0.09900
C 	C 	0.05280 0.84410 0.84660 0.08800
H 	H 	0.02530 0.82850 0.80890 0.01800
C 	C 	0.08870 0.93460 0.97760 -0.05700
C 	C 	0.11080 0.93050 0.03830 0.12100
C 	C 	0.11310 0.96790 0.08180 -0.07400
H 	H 	0.13040 0.96270 0.12730 0.06200
C 	C 	0.08820 0.00910 0.04930 -0.08500
C 	C 	0.05240 0.00670 0.97820 0.17800
C 	C 	0.05110 0.97390 0.93840 -0.12700
H 	H 	0.02900 0.97600 0.89140 0.08400
C 	C 	0.13260 0.10970 0.17400 0.12100
H 	H 	0.16190 0.12340 0.21080 0.00700
C 	C 	0.13070 0.07100 0.13940 -0.19800
H 	H 	0.15870 0.05970 0.15290 0.10700
C 	C 	0.08870 0.04900 0.08620 0.15300
C 	C 	0.04830 0.06720 0.06770 -0.19500
H 	H 	0.01920 0.05360 0.03060 0.11000
C 	C 	0.04940 0.10480 0.10200 0.11700
H 	H 	0.02160 0.11460 0.09010 0.00200
C 	C 	0.09230 0.12810 0.15480 -0.18200
C 	C 	0.09340 0.17160 0.18920 0.44200
C 	C 	0.97420 0.03930 0.85810 0.29200
H 	H 	0.98340 0.04170 0.83310 -0.05600
H 	H 	0.95630 0.00950 0.84540 -0.05600
C 	C 	0.94580 0.08430 0.84650 -0.75600
H 	H 	0.91720 0.08670 0.79930 0.25300
H 	H 	0.96470 0.11310 0.86040 0.26400
H 	H 	0.93780 0.08120 0.87260 0.26300
C 	C 	0.10630 0.69930 0.67370 0.42500
C 	C 	0.10760 0.66560 0.63140 -0.16500
C 	C 	0.06650 0.65140 0.56910 0.10700
H 	H 	0.03750 0.66350 0.55120 0.01100
C 	C 	0.06860 0.61940 0.53310 -0.17100
H 	H 	0.04020 0.60940 0.49080 0.10400
C 	C 	0.11090 0.60070 0.55640 0.12400
C 	C 	0.15230 0.61750 0.61850 -0.17400
H 	H 	0.18150 0.60700 0.63540 0.09600
C 	C 	0.15100 0.64940 0.65560 0.10000
H 	H 	0.17930 0.66040 0.69730 0.01400
C 	C 	0.10970 0.56280 0.51750 -0.04400
C 	C 	0.08480 0.56860 0.44900 0.09800
C 	C 	0.08560 0.53290 0.41510 -0.09200
H 	H 	0.06740 0.53830 0.36930 0.06800
C 	C 	0.10970 0.49100 0.44080 -0.04600
C 	C 	0.13430 0.48120 0.51020 0.12000
C 	C 	0.13560 0.52190 0.55080 -0.08300
H 	H 	0.15380 0.51830 0.59690 0.07400
C 	C 	0.06520 0.39890 0.30640 0.08900
H 	H 	0.03660 0.39010 0.26360 0.01400
C 	C 	0.06570 0.43660 0.34080 -0.16400
H 	H 	0.03750 0.45200 0.32190 0.08900
C 	C 	0.10910 0.45100 0.40460 0.12100
C 	C 	0.14940 0.42810 0.43010 -0.17000
H 	H 	0.17840 0.43780 0.47180 0.10600
C 	C 	0.14840 0.39020 0.39520 0.09700
H 	H 	0.17670 0.37570 0.41340 0.01200
C 	C 	0.10670 0.37430 0.33510 -0.16400
C 	C 	0.10460 0.32990 0.30180 0.40500
C 	C 	0.04170 0.63270 0.35010 -0.51000
H 	H 	0.06890 0.63430 0.35530 0.18700
H 	H 	0.01650 0.61440 0.30950 0.18100
C 	C 	0.02910 0.67100 0.34890 0.48800
H 	H 	0.01960 0.68880 0.31100 -0.12200
H 	H 	0.05460 0.68790 0.39010 -0.09900
H 	H 	0.00260 0.66820 0.34470 -0.10100
C 	C 	0.95190 0.76260 0.56280 0.07900
H 	H 	0.96840 0.77860 0.55450 0.00200
C 	C 	0.90270 0.76260 0.51230 -0.09200
H 	H 	0.88710 0.77750 0.47090 0.06600
C 	C 	0.87770 0.74090 0.52320 -0.01800
C 	C 	0.90290 0.71670 0.58340 -0.08200
H 	H 	0.88690 0.69950 0.59180 0.06500
C 	C 	0.95090 0.71780 0.63040 0.06000
H 	H 	0.96740 0.70130 0.67110 0.01200
C 	C 	0.75070 0.74890 0.35800 0.20800
H 	H 	0.73530 0.75480 0.31330 -0.04100
C 	C 	0.79890 0.74710 0.40570 -0.30100
H 	H 	0.81490 0.75010 0.39180 0.13800
C 	C 	0.82390 0.74150 0.46990 0.25500
C 	C 	0.79820 0.73040 0.48000 -0.35200
H 	H 	0.81250 0.72110 0.52330 0.16000
C 	C 	0.74940 0.73150 0.42880 0.27500
H 	H 	0.73310 0.72220 0.44080 -0.06900
N 	N 	0.97590 0.74190 0.62050 -0.24500
N 	N 	0.72540 0.74280 0.37140 -0.33300
O 	O 	0.06000 0.78400 0.76990 -0.47800
O 	O 	0.13880 0.79310 0.84670 -0.46000
O 	O 	0.05560 0.18880 0.16520 -0.48200
O 	O 	0.13390 0.18820 0.23910 -0.47700
O 	O 	0.02000 0.04190 0.93910 -0.25800
O 	O 	0.15080 0.89860 0.07910 -0.18800
O 	O 	0.06710 0.71230 0.65030 -0.47600
O 	O 	0.14540 0.71090 0.73160 -0.46400
O 	O 	0.06400 0.31620 0.24720 -0.46000
O 	O 	0.14290 0.30870 0.33080 -0.46500
O 	O 	0.05470 0.61100 0.41120 -0.11700
O 	O 	0.16280 0.44060 0.54830 -0.18300
Zn	Zn	0.04856 0.74694 0.69537 1.21600
Zn	Zn	0.15287 0.75316 0.79921 1.21700
C 	C 	0.59740 0.69930 0.32280 0.40600
C 	C 	0.59680 0.66560 0.36670 -0.14600
C 	C 	0.63720 0.64330 0.42350 0.09300
H 	H 	0.66630 0.64930 0.43730 0.01700
C 	C 	0.63430 0.61210 0.45980 -0.16800
H 	H 	0.66190 0.59770 0.49890 0.10800
C 	C 	0.59130 0.60150 0.43940 0.13000
C 	C 	0.55070 0.62410 0.38210 -0.17400
H 	H 	0.52150 0.61730 0.36790 0.09900
C 	C 	0.55280 0.65590 0.34660 0.08800
H 	H 	0.52530 0.67150 0.30890 0.01800
C 	C 	0.58870 0.56540 0.47760 -0.05800
C 	C 	0.61080 0.56950 0.53830 0.12100
C 	C 	0.61310 0.53210 0.58180 -0.07400
H 	H 	0.63040 0.53730 0.62730 0.06200
C 	C 	0.58820 0.49090 0.54930 -0.08500
C 	C 	0.55240 0.49330 0.47820 0.17800
C 	C 	0.55110 0.52610 0.43840 -0.12700
H 	H 	0.52900 0.52400 0.39140 0.08400
C 	C 	0.63260 0.39030 0.67400 0.12100
H 	H 	0.66190 0.37660 0.71080 0.00700
C 	C 	0.63070 0.42900 0.63940 -0.19700
H 	H 	0.65870 0.44030 0.65290 0.10700
C 	C 	0.58870 0.45100 0.58620 0.15300
C 	C 	0.54830 0.43280 0.56770 -0.19500
H 	H 	0.51920 0.44640 0.53060 0.11000
C 	C 	0.54940 0.39520 0.60200 0.11700
H 	H 	0.52160 0.38540 0.59010 0.00200
C 	C 	0.59230 0.37190 0.65480 -0.18200
C 	C 	0.59340 0.32840 0.68920 0.44200
C 	C 	0.47420 0.46070 0.35810 0.29200
H 	H 	0.48340 0.45830 0.33310 -0.05600
H 	H 	0.45630 0.49050 0.34540 -0.05600
C 	C 	0.44580 0.41570 0.34650 -0.75700
H 	H 	0.41720 0.41330 0.29930 0.25400
H 	H 	0.46470 0.38690 0.36040 0.26400
H 	H 	0.43780 0.41880 0.37260 0.26300
C 	C 	0.60630 0.80070 0.17370 0.42500
C 	C 	0.60760 0.83440 0.13140 -0.16500
C 	C 	0.56650 0.84860 0.06910 0.10700
H 	H 	0.53750 0.83650 0.05120 0.01100
C 	C 	0.56860 0.88060 0.03310 -0.17100
H 	H 	0.54020 0.89060 0.99080 0.10500
C 	C 	0.61090 0.89930 0.05640 0.12400
C 	C 	0.65230 0.88250 0.11850 -0.17400
H 	H 	0.68150 0.89300 0.13540 0.09600
C 	C 	0.65100 0.85060 0.15560 0.10000
H 	H 	0.67930 0.83960 0.19730 0.01400
C 	C 	0.60970 0.93720 0.01750 -0.04400
C 	C 	0.58480 0.93140 0.94900 0.09800
C 	C 	0.58560 0.96710 0.91510 -0.09200
H 	H 	0.56740 0.96170 0.86930 0.06800
C 	C 	0.60970 0.00900 0.94080 -0.04600
C 	C 	0.63430 0.01880 0.01020 0.12000
C 	C 	0.63560 0.97810 0.05080 -0.08300
H 	H 	0.65380 0.98170 0.09690 0.07400
C 	C 	0.56520 0.10110 0.80640 0.08900
H 	H 	0.53660 0.10990 0.76360 0.01400
C 	C 	0.56570 0.06340 0.84080 -0.16400
H 	H 	0.53750 0.04800 0.82190 0.08900
C 	C 	0.60910 0.04900 0.90460 0.12100
C 	C 	0.64940 0.07190 0.93010 -0.17000
H 	H 	0.67840 0.06220 0.97180 0.10600
C 	C 	0.64840 0.10980 0.89520 0.09700
H 	H 	0.67670 0.12430 0.91340 0.01200
C 	C 	0.60670 0.12570 0.83510 -0.16400
C 	C 	0.60460 0.17010 0.80180 0.40500
C 	C 	0.54170 0.86730 0.85010 -0.51000
H 	H 	0.56890 0.86570 0.85530 0.18700
H 	H 	0.51650 0.88560 0.80950 0.18100
C 	C 	0.52910 0.82900 0.84890 0.48800
H 	H 	0.51960 0.81120 0.81100 -0.12200
H 	H 	0.55460 0.81210 0.89010 -0.09900
H 	H 	0.50260 0.83180 0.84470 -0.10100
C 	C 	0.45190 0.73740 0.06280 0.07900
H 	H 	0.46840 0.72140 0.05450 0.00200
C 	C 	0.40270 0.73740 0.01230 -0.09200
H 	H 	0.38710 0.72250 0.97090 0.06600
C 	C 	0.37770 0.75910 0.02320 -0.01800
C 	C 	0.40290 0.78330 0.08340 -0.08200
H 	H 	0.38690 0.80050 0.09180 0.06500
C 	C 	0.45090 0.78220 0.13040 0.06100
H 	H 	0.46740 0.79870 0.17110 0.01200
C 	C 	0.25070 0.75110 0.85800 0.20800
H 	H 	0.23530 0.74520 0.81330 -0.04100
C 	C 	0.29890 0.75290 0.90570 -0.30100
H 	H 	0.31490 0.74990 0.89180 0.13800
C 	C 	0.32390 0.75850 0.96990 0.25400
C 	C 	0.29820 0.76960 0.98000 -0.35200
H 	H 	0.31250 0.77890 0.02330 0.16000
C 	C 	0.24940 0.76850 0.92880 0.27500
H 	H 	0.23310 0.77780 0.94080 -0.06900
N 	N 	0.47590 0.75810 0.12050 -0.24500
N 	N 	0.22540 0.75720 0.87140 -0.33300
O 	O 	0.56000 0.71600 0.26990 -0.47800
O 	O 	0.63880 0.70690 0.34670 -0.46000
O 	O 	0.55560 0.31120 0.66520 -0.48200
O 	O 	0.63390 0.31180 0.73910 -0.47700
O 	O 	0.52000 0.45810 0.43910 -0.25900
O 	O 	0.65080 0.60140 0.57910 -0.18800
O 	O 	0.56710 0.78770 0.15030 -0.47600
O 	O 	0.64540 0.78910 0.23160 -0.46400
O 	O 	0.56400 0.18380 0.74720 -0.46000
O 	O 	0.64290 0.19130 0.83080 -0.46500
O 	O 	0.55470 0.88900 0.91120 -0.11700
O 	O 	0.66280 0.05940 0.04830 -0.18300
Zn	Zn	0.54856 0.75306 0.19537 1.21600
Zn	Zn	0.65287 0.74684 0.29921 1.21700
C 	C 	0.09740 0.19930 0.32280 0.40600
C 	C 	0.09680 0.16560 0.36670 -0.14600
C 	C 	0.13720 0.14330 0.42350 0.09300
H 	H 	0.16630 0.14930 0.43730 0.01700
C 	C 	0.13430 0.11210 0.45980 -0.16800
H 	H 	0.16190 0.09770 0.49890 0.10800
C 	C 	0.09130 0.10150 0.43940 0.13000
C 	C 	0.05070 0.12410 0.38210 -0.17400
H 	H 	0.02150 0.11730 0.36790 0.09900
C 	C 	0.05280 0.15590 0.34660 0.08800
H 	H 	0.02530 0.17150 0.30890 0.01800
C 	C 	0.08870 0.06540 0.47760 -0.05800
C 	C 	0.11080 0.06950 0.53830 0.12100
C 	C 	0.11310 0.03210 0.58180 -0.07400
H 	H 	0.13040 0.03730 0.62730 0.06200
C 	C 	0.08820 0.99090 0.54930 -0.08500
C 	C 	0.05240 0.99330 0.47820 0.17800
C 	C 	0.05110 0.02610 0.43840 -0.12700
H 	H 	0.02900 0.02400 0.39140 0.08400
C 	C 	0.13260 0.89030 0.67400 0.12100
H 	H 	0.16190 0.87660 0.71080 0.00700
C 	C 	0.13070 0.92900 0.63940 -0.19700
H 	H 	0.15870 0.94030 0.65290 0.10700
C 	C 	0.08870 0.95100 0.58620 0.15300
C 	C 	0.04830 0.93280 0.56770 -0.19500
H 	H 	0.01920 0.94640 0.53060 0.11000
C 	C 	0.04940 0.89520 0.60200 0.11700
H 	H 	0.02160 0.88540 0.59010 0.00300
C 	C 	0.09230 0.87190 0.65480 -0.18200
C 	C 	0.09340 0.82840 0.68920 0.44200
C 	C 	0.97420 0.96070 0.35810 0.29200
H 	H 	0.98340 0.95830 0.33310 -0.05600
H 	H 	0.95630 0.99050 0.34540 -0.05600
C 	C 	0.94580 0.91570 0.34650 -0.75700
H 	H 	0.91720 0.91330 0.29930 0.25400
H 	H 	0.96470 0.88690 0.36040 0.26400
H 	H 	0.93780 0.91880 0.37260 0.26300
C 	C 	0.10630 0.30070 0.17370 0.42500
C 	C 	0.10760 0.33440 0.13140 -0.16500
C 	C 	0.06650 0.34860 0.06910 0.10700
H 	H 	0.03750 0.33650 0.05120 0.01100
C 	C 	0.06860 0.38060 0.03310 -0.17200
H 	H 	0.04020 0.39060 0.99080 0.10500
C 	C 	0.11090 0.39930 0.05640 0.12400
C 	C 	0.15230 0.38250 0.11850 -0.17400
H 	H 	0.18150 0.39300 0.13540 0.09600
C 	C 	0.15100 0.35060 0.15560 0.10100
H 	H 	0.17930 0.33960 0.19730 0.01400
C 	C 	0.10970 0.43720 0.01750 -0.04500
C 	C 	0.08480 0.43140 0.94900 0.09900
C 	C 	0.08560 0.46710 0.91510 -0.09200
H 	H 	0.06740 0.46170 0.86930 0.06800
C 	C 	0.10970 0.50900 0.94080 -0.04500
C 	C 	0.13430 0.51880 0.01020 0.11900
C 	C 	0.13560 0.47810 0.05080 -0.08300
H 	H 	0.15380 0.48170 0.09690 0.07400
C 	C 	0.06520 0.60110 0.80640 0.08900
H 	H 	0.03660 0.60990 0.76360 0.01400
C 	C 	0.06570 0.56340 0.84080 -0.16400
H 	H 	0.03750 0.54800 0.82190 0.08900
C 	C 	0.10910 0.54900 0.90460 0.12100
C 	C 	0.14940 0.57190 0.93010 -0.17000
H 	H 	0.17840 0.56220 0.97180 0.10600
C 	C 	0.14840 0.60980 0.89520 0.09700
H 	H 	0.17670 0.62430 0.91340 0.01200
C 	C 	0.10670 0.62570 0.83510 -0.16400
C 	C 	0.10460 0.67010 0.80180 0.40500
C 	C 	0.04170 0.36730 0.85010 -0.51000
H 	H 	0.06890 0.36570 0.85530 0.18700
H 	H 	0.01650 0.38560 0.80950 0.18100
C 	C 	0.02910 0.32900 0.84890 0.48800
H 	H 	0.01960 0.31120 0.81100 -0.12200
H 	H 	0.05460 0.31210 0.89010 -0.09900
H 	H 	0.00260 0.33180 0.84470 -0.10100
C 	C 	0.95190 0.23740 0.06280 0.07900
H 	H 	0.96840 0.22140 0.05450 0.00200
C 	C 	0.90270 0.23740 0.01230 -0.09100
H 	H 	0.88710 0.22250 0.97090 0.06600
C 	C 	0.87770 0.25910 0.02320 -0.01800
C 	C 	0.90290 0.28330 0.08340 -0.08200
H 	H 	0.88690 0.30050 0.09180 0.06500
C 	C 	0.95090 0.28220 0.13040 0.06000
H 	H 	0.96740 0.29870 0.17110 0.01200
C 	C 	0.75070 0.25110 0.85800 0.20800
H 	H 	0.73530 0.24520 0.81330 -0.04100
C 	C 	0.79890 0.25290 0.90570 -0.30100
H 	H 	0.81490 0.24990 0.89180 0.13800
C 	C 	0.82390 0.25850 0.96990 0.25500
C 	C 	0.79820 0.26960 0.98000 -0.35300
H 	H 	0.81250 0.27890 0.02330 0.16000
C 	C 	0.74940 0.26850 0.92880 0.27600
H 	H 	0.73310 0.27780 0.94080 -0.06900
N 	N 	0.97590 0.25810 0.12050 -0.24500
N 	N 	0.72540 0.25720 0.87140 -0.33300
O 	O 	0.06000 0.21600 0.26990 -0.47800
O 	O 	0.13880 0.20690 0.34670 -0.46000
O 	O 	0.05560 0.81120 0.66520 -0.48200
O 	O 	0.13390 0.81180 0.73910 -0.47700
O 	O 	0.02000 0.95810 0.43910 -0.25900
O 	O 	0.15080 0.10140 0.57910 -0.18800
O 	O 	0.06710 0.28770 0.15030 -0.47600
O 	O 	0.14540 0.28910 0.23160 -0.46400
O 	O 	0.06400 0.68380 0.74720 -0.46000
O 	O 	0.14290 0.69130 0.83080 -0.46400
O 	O 	0.05470 0.38900 0.91120 -0.11700
O 	O 	0.16280 0.55940 0.04830 -0.18300
Zn	Zn	0.04856 0.25306 0.19537 1.21600
Zn	Zn	0.15287 0.24684 0.29921 1.21700
C 	C 	0.40260 0.30070 0.67720 0.40600
C 	C 	0.40320 0.33440 0.63330 -0.14600
C 	C 	0.36280 0.35670 0.57650 0.09300
H 	H 	0.33370 0.35070 0.56270 0.01700
C 	C 	0.36570 0.38790 0.54020 -0.16800
H 	H 	0.33810 0.40230 0.50110 0.10800
C 	C 	0.40870 0.39850 0.56060 0.13000
C 	C 	0.44930 0.37590 0.61790 -0.17400
H 	H 	0.47850 0.38270 0.63210 0.09900
C 	C 	0.44720 0.34410 0.65340 0.08800
H 	H 	0.47470 0.32850 0.69110 0.01800
C 	C 	0.41130 0.43460 0.52240 -0.05800
C 	C 	0.38920 0.43050 0.46170 0.12100
C 	C 	0.38690 0.46790 0.41820 -0.07400
H 	H 	0.36960 0.46270 0.37270 0.06200
C 	C 	0.41180 0.50910 0.45070 -0.08500
C 	C 	0.44760 0.50670 0.52180 0.17800
C 	C 	0.44890 0.47390 0.56160 -0.12700
H 	H 	0.47100 0.47600 0.60860 0.08400
C 	C 	0.36740 0.60970 0.32600 0.12100
H 	H 	0.33810 0.62340 0.28920 0.00700
C 	C 	0.36930 0.57100 0.36060 -0.19700
H 	H 	0.34130 0.55970 0.34710 0.10700
C 	C 	0.41130 0.54900 0.41380 0.15300
C 	C 	0.45170 0.56720 0.43230 -0.19500
H 	H 	0.48080 0.55360 0.46940 0.11000
C 	C 	0.45060 0.60480 0.39800 0.11700
H 	H 	0.47840 0.61460 0.40990 0.00200
C 	C 	0.40770 0.62810 0.34520 -0.18200
C 	C 	0.40660 0.67160 0.31080 0.44200
C 	C 	0.52580 0.53930 0.64190 0.29200
H 	H 	0.51660 0.54170 0.66690 -0.05600
H 	H 	0.54370 0.50950 0.65460 -0.05600
C 	C 	0.55420 0.58430 0.65350 -0.75700
H 	H 	0.58280 0.58670 0.70070 0.25400
H 	H 	0.53530 0.61310 0.63960 0.26400
H 	H 	0.56220 0.58120 0.62740 0.26300
C 	C 	0.39370 0.19930 0.82630 0.42500
C 	C 	0.39240 0.16560 0.86860 -0.16500
C 	C 	0.43350 0.15140 0.93090 0.10700
H 	H 	0.46250 0.16350 0.94880 0.01100
C 	C 	0.43140 0.11940 0.96690 -0.17100
H 	H 	0.45980 0.10940 0.00920 0.10500
C 	C 	0.38910 0.10070 0.94360 0.12400
C 	C 	0.34770 0.11750 0.88150 -0.17400
H 	H 	0.31850 0.10700 0.86460 0.09600
C 	C 	0.34900 0.14940 0.84440 0.10000
H 	H 	0.32070 0.16040 0.80270 0.01400
C 	C 	0.39030 0.06280 0.98250 -0.04400
C 	C 	0.41520 0.06860 0.05100 0.09800
C 	C 	0.41440 0.03290 0.08490 -0.09200
H 	H 	0.43260 0.03830 0.13070 0.06800
C 	C 	0.39030 0.99100 0.05920 -0.04600
C 	C 	0.36570 0.98120 0.98980 0.12000
C 	C 	0.36440 0.02190 0.94920 -0.08300
H 	H 	0.34620 0.01830 0.90310 0.07400
C 	C 	0.43480 0.89890 0.19360 0.08900
H 	H 	0.46340 0.89010 0.23640 0.01400
C 	C 	0.43430 0.93660 0.15920 -0.16400
H 	H 	0.46250 0.95200 0.17810 0.08900
C 	C 	0.39090 0.95100 0.09540 0.12100
C 	C 	0.35060 0.92810 0.06990 -0.17000
H 	H 	0.32160 0.93780 0.02820 0.10600
C 	C 	0.35160 0.89020 0.10480 0.09700
H 	H 	0.32330 0.87570 0.08660 0.01200
C 	C 	0.39330 0.87430 0.16490 -0.16400
C 	C 	0.39540 0.82990 0.19820 0.40500
C 	C 	0.45830 0.13270 0.14990 -0.51000
H 	H 	0.43110 0.13430 0.14470 0.18700
H 	H 	0.48350 0.11440 0.19050 0.18100
C 	C 	0.47090 0.17100 0.15110 0.48800
H 	H 	0.48040 0.18880 0.18900 -0.12200
H 	H 	0.44540 0.18790 0.10990 -0.09900
H 	H 	0.49740 0.16820 0.15530 -0.10100
C 	C 	0.54810 0.26260 0.93720 0.07900
H 	H 	0.53160 0.27860 0.94550 0.00200
C 	C 	0.59730 0.26260 0.98770 -0.09200
H 	H 	0.61290 0.27750 0.02910 0.06600
C 	C 	0.62230 0.24090 0.97680 -0.01800
C 	C 	0.59710 0.21670 0.91660 -0.08200
H 	H 	0.61310 0.19950 0.90820 0.06500
C 	C 	0.54910 0.21780 0.86960 0.06100
H 	H 	0.53260 0.20130 0.82890 0.01200
C 	C 	0.74930 0.24890 0.14200 0.20800
H 	H 	0.76470 0.25480 0.18670 -0.04100
C 	C 	0.70110 0.24710 0.09430 -0.30100
H 	H 	0.68510 0.25010 0.10820 0.13800
C 	C 	0.67610 0.24150 0.03010 0.25400
C 	C 	0.70180 0.23040 0.02000 -0.35200
H 	H 	0.68750 0.22110 0.97670 0.16000
C 	C 	0.75060 0.23150 0.07120 0.27500
H 	H 	0.76690 0.22220 0.05920 -0.06900
N 	N 	0.52410 0.24190 0.87950 -0.24500
N 	N 	0.77460 0.24280 0.12860 -0.33300
O 	O 	0.44000 0.28400 0.73010 -0.47800
O 	O 	0.36120 0.29310 0.65330 -0.46000
O 	O 	0.44440 0.68880 0.33480 -0.48200
O 	O 	0.36610 0.68820 0.26090 -0.47700
O 	O 	0.48000 0.54190 0.56090 -0.25900
O 	O 	0.34920 0.39860 0.42090 -0.18800
O 	O 	0.43290 0.21230 0.84970 -0.47600
O 	O 	0.35460 0.21090 0.76840 -0.46400
O 	O 	0.43600 0.81620 0.25280 -0.46000
O 	O 	0.35710 0.80870 0.16920 -0.46500
O 	O 	0.44530 0.11100 0.08880 -0.11700
O 	O 	0.33720 0.94060 0.95170 -0.18300
Zn	Zn	0.45144 0.24694 0.80463 1.21600
Zn	Zn	0.34713 0.25316 0.70079 1.21700
C 	C 	0.90260 0.80070 0.67720 0.40600
C 	C 	0.90320 0.83440 0.63330 -0.14600
C 	C 	0.86280 0.85670 0.57650 0.09300
H 	H 	0.83370 0.85070 0.56270 0.01700
C 	C 	0.86570 0.88790 0.54020 -0.16800
H 	H 	0.83810 0.90230 0.50110 0.10800
C 	C 	0.90870 0.89850 0.56060 0.13000
C 	C 	0.94930 0.87590 0.61790 -0.17400
H 	H 	0.97850 0.88270 0.63210 0.09900
C 	C 	0.94720 0.84410 0.65340 0.08800
H 	H 	0.97470 0.82850 0.69110 0.01800
C 	C 	0.91130 0.93460 0.52240 -0.05800
C 	C 	0.88920 0.93050 0.46170 0.12100
C 	C 	0.88690 0.96790 0.41820 -0.07400
H 	H 	0.86960 0.96270 0.37270 0.06200
C 	C 	0.91180 0.00910 0.45070 -0.08500
C 	C 	0.94760 0.00670 0.52180 0.17800
C 	C 	0.94890 0.97390 0.56160 -0.12700
H 	H 	0.97100 0.97600 0.60860 0.08400
C 	C 	0.86740 0.10970 0.32600 0.12100
H 	H 	0.83810 0.12340 0.28920 0.00700
C 	C 	0.86930 0.07100 0.36060 -0.19700
H 	H 	0.84130 0.05970 0.34710 0.10700
C 	C 	0.91130 0.04900 0.41380 0.15300
C 	C 	0.95170 0.06720 0.43230 -0.19500
H 	H 	0.98080 0.05360 0.46940 0.11000
C 	C 	0.95060 0.10480 0.39800 0.11700
H 	H 	0.97840 0.11460 0.40990 0.00300
C 	C 	0.90770 0.12810 0.34520 -0.18200
C 	C 	0.90660 0.17160 0.31080 0.44200
C 	C 	0.02580 0.03930 0.64190 0.29200
H 	H 	0.01660 0.04170 0.66690 -0.05600
H 	H 	0.04370 0.00950 0.65460 -0.05600
C 	C 	0.05420 0.08430 0.65350 -0.75700
H 	H 	0.08280 0.08670 0.70070 0.25400
H 	H 	0.03530 0.11310 0.63960 0.26400
H 	H 	0.06220 0.08120 0.62740 0.26300
C 	C 	0.89370 0.69930 0.82630 0.42500
C 	C 	0.89240 0.66560 0.86860 -0.16500
C 	C 	0.93350 0.65140 0.93090 0.10700
H 	H 	0.96250 0.66350 0.94880 0.01100
C 	C 	0.93140 0.61940 0.96690 -0.17200
H 	H 	0.95980 0.60940 0.00920 0.10500
C 	C 	0.88910 0.60070 0.94360 0.12400
C 	C 	0.84770 0.61750 0.88150 -0.17400
H 	H 	0.81850 0.60700 0.86460 0.09600
C 	C 	0.84900 0.64940 0.84440 0.10100
H 	H 	0.82070 0.66040 0.80270 0.01400
C 	C 	0.89030 0.56280 0.98250 -0.04500
C 	C 	0.91520 0.56860 0.05100 0.09900
C 	C 	0.91440 0.53290 0.08490 -0.09200
H 	H 	0.93260 0.53830 0.13070 0.06800
C 	C 	0.89030 0.49100 0.05920 -0.04500
C 	C 	0.86570 0.48120 0.98980 0.11900
C 	C 	0.86440 0.52190 0.94920 -0.08300
H 	H 	0.84620 0.51830 0.90310 0.07400
C 	C 	0.93480 0.39890 0.19360 0.08900
H 	H 	0.96340 0.39010 0.23640 0.01400
C 	C 	0.93430 0.43660 0.15920 -0.16400
H 	H 	0.96250 0.45200 0.17810 0.08900
C 	C 	0.89090 0.45100 0.09540 0.12100
C 	C 	0.85060 0.42810 0.06990 -0.17000
H 	H 	0.82160 0.43780 0.02820 0.10600
C 	C 	0.85160 0.39020 0.10480 0.09700
H 	H 	0.82330 0.37570 0.08660 0.01200
C 	C 	0.89330 0.37430 0.16490 -0.16400
C 	C 	0.89540 0.32990 0.19820 0.40500
C 	C 	0.95830 0.63270 0.14990 -0.51000
H 	H 	0.93110 0.63430 0.14470 0.18700
H 	H 	0.98350 0.61440 0.19050 0.18100
C 	C 	0.97090 0.67100 0.15110 0.48800
H 	H 	0.98040 0.68880 0.18900 -0.12200
H 	H 	0.94540 0.68790 0.10990 -0.09900
H 	H 	0.99740 0.66820 0.15530 -0.10100
C 	C 	0.04810 0.76260 0.93720 0.07900
H 	H 	0.03160 0.77860 0.94550 0.00200
C 	C 	0.09730 0.76260 0.98770 -0.09100
H 	H 	0.11290 0.77750 0.02910 0.06600
C 	C 	0.12230 0.74090 0.97680 -0.01800
C 	C 	0.09710 0.71670 0.91660 -0.08200
H 	H 	0.11310 0.69950 0.90820 0.06500
C 	C 	0.04910 0.71780 0.86960 0.06000
H 	H 	0.03260 0.70130 0.82890 0.01200
C 	C 	0.24930 0.74890 0.14200 0.20800
H 	H 	0.26470 0.75480 0.18670 -0.04100
C 	C 	0.20110 0.74710 0.09430 -0.30100
H 	H 	0.18510 0.75010 0.10820 0.13800
C 	C 	0.17610 0.74150 0.03010 0.25500
C 	C 	0.20180 0.73040 0.02000 -0.35300
H 	H 	0.18750 0.72110 0.97670 0.16000
C 	C 	0.25060 0.73150 0.07120 0.27600
H 	H 	0.26690 0.72220 0.05920 -0.06900
N 	N 	0.02410 0.74190 0.87950 -0.24500
N 	N 	0.27460 0.74280 0.12860 -0.33300
O 	O 	0.94000 0.78400 0.73010 -0.47800
O 	O 	0.86120 0.79310 0.65330 -0.46000
O 	O 	0.94440 0.18880 0.33480 -0.48200
O 	O 	0.86610 0.18820 0.26090 -0.47700
O 	O 	0.98000 0.04190 0.56090 -0.25900
O 	O 	0.84920 0.89860 0.42090 -0.18800
O 	O 	0.93290 0.71230 0.84970 -0.47600
O 	O 	0.85460 0.71090 0.76840 -0.46400
O 	O 	0.93600 0.31620 0.25280 -0.46000
O 	O 	0.85710 0.30870 0.16920 -0.46400
O 	O 	0.94530 0.61100 0.08880 -0.11700
O 	O 	0.83720 0.44060 0.95170 -0.18300
Zn	Zn	0.95144 0.74694 0.80463 1.21600
Zn	Zn	0.84713 0.75316 0.70079 1.21700
C 	C 	0.40260 0.69930 0.17720 0.40600
C 	C 	0.40320 0.66560 0.13330 -0.14600
C 	C 	0.36280 0.64330 0.07650 0.09300
H 	H 	0.33370 0.64930 0.06270 0.01700
C 	C 	0.36570 0.61210 0.04020 -0.16800
H 	H 	0.33810 0.59770 0.00110 0.10800
C 	C 	0.40870 0.60150 0.06060 0.13000
C 	C 	0.44930 0.62410 0.11790 -0.17400
H 	H 	0.47850 0.61730 0.13210 0.09900
C 	C 	0.44720 0.65590 0.15340 0.08800
H 	H 	0.47470 0.67150 0.19110 0.01800
C 	C 	0.41130 0.56540 0.02240 -0.05800
C 	C 	0.38920 0.56950 0.96170 0.12100
C 	C 	0.38690 0.53210 0.91820 -0.07400
H 	H 	0.36960 0.53730 0.87270 0.06200
C 	C 	0.41180 0.49090 0.95070 -0.08500
C 	C 	0.44760 0.49330 0.02180 0.17800
C 	C 	0.44890 0.52610 0.06160 -0.12700
H 	H 	0.47100 0.52400 0.10860 0.08400
C 	C 	0.36740 0.39030 0.82600 0.12100
H 	H 	0.33810 0.37660 0.78920 0.00700
C 	C 	0.36930 0.42900 0.86060 -0.19700
H 	H 	0.34130 0.44030 0.84710 0.10700
C 	C 	0.41130 0.45100 0.91380 0.15300
C 	C 	0.45170 0.43280 0.93230 -0.19500
H 	H 	0.48080 0.44640 0.96940 0.11000
C 	C 	0.45060 0.39520 0.89800 0.11700
H 	H 	0.47840 0.38540 0.90990 0.00200
C 	C 	0.40770 0.37190 0.84520 -0.18200
C 	C 	0.40660 0.32840 0.81080 0.44200
C 	C 	0.52580 0.46070 0.14190 0.29200
H 	H 	0.51660 0.45830 0.16690 -0.05600
H 	H 	0.54370 0.49050 0.15460 -0.05600
C 	C 	0.55420 0.41570 0.15350 -0.75700
H 	H 	0.58280 0.41330 0.20070 0.25400
H 	H 	0.53530 0.38690 0.13960 0.26400
H 	H 	0.56220 0.41880 0.12740 0.26300
C 	C 	0.39370 0.80070 0.32630 0.42500
C 	C 	0.39240 0.83440 0.36860 -0.16500
C 	C 	0.43350 0.84860 0.43090 0.10700
H 	H 	0.46250 0.83650 0.44880 0.01100
C 	C 	0.43140 0.88060 0.46690 -0.17100
H 	H 	0.45980 0.89060 0.50920 0.10500
C 	C 	0.38910 0.89930 0.44360 0.12400
C 	C 	0.34770 0.88250 0.38150 -0.17400
H 	H 	0.31850 0.89300 0.36460 0.09600
C 	C 	0.34900 0.85060 0.34440 0.10000
H 	H 	0.32070 0.83960 0.30270 0.01400
C 	C 	0.39030 0.93720 0.48250 -0.04400
C 	C 	0.41520 0.93140 0.55100 0.09800
C 	C 	0.41440 0.96710 0.58490 -0.09200
H 	H 	0.43260 0.96170 0.63070 0.06800
C 	C 	0.39030 0.00900 0.55920 -0.04600
C 	C 	0.36570 0.01880 0.48980 0.12000
C 	C 	0.36440 0.97810 0.44920 -0.08300
H 	H 	0.34620 0.98170 0.40310 0.07400
C 	C 	0.43480 0.10110 0.69360 0.08900
H 	H 	0.46340 0.10990 0.73640 0.01400
C 	C 	0.43430 0.06340 0.65920 -0.16400
H 	H 	0.46250 0.04800 0.67810 0.08900
C 	C 	0.39090 0.04900 0.59540 0.12100
C 	C 	0.35060 0.07190 0.56990 -0.17000
H 	H 	0.32160 0.06220 0.52820 0.10600
C 	C 	0.35160 0.10980 0.60480 0.09700
H 	H 	0.32330 0.12430 0.58660 0.01200
C 	C 	0.39330 0.12570 0.66490 -0.16400
C 	C 	0.39540 0.17010 0.69820 0.40500
C 	C 	0.45830 0.86730 0.64990 -0.51000
H 	H 	0.43110 0.86570 0.64470 0.18700
H 	H 	0.48350 0.88560 0.69050 0.18100
C 	C 	0.47090 0.82900 0.65110 0.48800
H 	H 	0.48040 0.81120 0.68900 -0.12200
H 	H 	0.44540 0.81210 0.60990 -0.09900
H 	H 	0.49740 0.83180 0.65530 -0.10100
C 	C 	0.54810 0.73740 0.43720 0.07900
H 	H 	0.53160 0.72140 0.44550 0.00200
C 	C 	0.59730 0.73740 0.48770 -0.09200
H 	H 	0.61290 0.72250 0.52910 0.06600
C 	C 	0.62230 0.75910 0.47680 -0.01800
C 	C 	0.59710 0.78330 0.41660 -0.08200
H 	H 	0.61310 0.80050 0.40820 0.06500
C 	C 	0.54910 0.78220 0.36960 0.06000
H 	H 	0.53260 0.79870 0.32890 0.01200
C 	C 	0.74930 0.75110 0.64200 0.20800
H 	H 	0.76470 0.74520 0.68670 -0.04100
C 	C 	0.70110 0.75290 0.59430 -0.30100
H 	H 	0.68510 0.74990 0.60820 0.13800
C 	C 	0.67610 0.75850 0.53010 0.25500
C 	C 	0.70180 0.76960 0.52000 -0.35200
H 	H 	0.68750 0.77890 0.47670 0.16000
C 	C 	0.75060 0.76850 0.57120 0.27500
H 	H 	0.76690 0.77780 0.55920 -0.06900
N 	N 	0.52410 0.75810 0.37950 -0.24500
N 	N 	0.77460 0.75720 0.62860 -0.33300
O 	O 	0.44000 0.71600 0.23010 -0.47800
O 	O 	0.36120 0.70690 0.15330 -0.46000
O 	O 	0.44440 0.31120 0.83480 -0.48200
O 	O 	0.36610 0.31180 0.76090 -0.47700
O 	O 	0.48000 0.45810 0.06090 -0.25900
O 	O 	0.34920 0.60140 0.92090 -0.18800
O 	O 	0.43290 0.78770 0.34970 -0.47600
O 	O 	0.35460 0.78910 0.26840 -0.46400
O 	O 	0.43600 0.18380 0.75280 -0.46000
O 	O 	0.35710 0.19130 0.66920 -0.46500
O 	O 	0.44530 0.88900 0.58880 -0.11700
O 	O 	0.33720 0.05940 0.45170 -0.18300
Zn	Zn	0.45144 0.75306 0.30463 1.21600
Zn	Zn	0.34713 0.74684 0.20079 1.21700
C 	C 	0.90260 0.19930 0.17720 0.40600
C 	C 	0.90320 0.16560 0.13330 -0.14600
C 	C 	0.86280 0.14330 0.07650 0.09200
H 	H 	0.83370 0.14930 0.06270 0.01700
C 	C 	0.86570 0.11210 0.04020 -0.16800
H 	H 	0.83810 0.09770 0.00110 0.10800
C 	C 	0.90870 0.10150 0.06060 0.12900
C 	C 	0.94930 0.12410 0.11790 -0.17300
H 	H 	0.97850 0.11730 0.13210 0.09900
C 	C 	0.94720 0.15590 0.15340 0.08800
H 	H 	0.97470 0.17150 0.19110 0.01800
C 	C 	0.91130 0.06540 0.02240 -0.05700
C 	C 	0.88920 0.06950 0.96170 0.12100
C 	C 	0.88690 0.03210 0.91820 -0.07400
H 	H 	0.86960 0.03730 0.87270 0.06200
C 	C 	0.91180 0.99090 0.95070 -0.08500
C 	C 	0.94760 0.99330 0.02180 0.17800
C 	C 	0.94890 0.02610 0.06160 -0.12700
H 	H 	0.97100 0.02400 0.10860 0.08400
C 	C 	0.86740 0.89030 0.82600 0.12100
H 	H 	0.83810 0.87660 0.78920 0.00700
C 	C 	0.86930 0.92900 0.86060 -0.19800
H 	H 	0.84130 0.94030 0.84710 0.10700
C 	C 	0.91130 0.95100 0.91380 0.15300
C 	C 	0.95170 0.93280 0.93230 -0.19500
H 	H 	0.98080 0.94640 0.96940 0.11000
C 	C 	0.95060 0.89520 0.89800 0.11700
H 	H 	0.97840 0.88540 0.90990 0.00200
C 	C 	0.90770 0.87190 0.84520 -0.18200
C 	C 	0.90660 0.82840 0.81080 0.44200
C 	C 	0.02580 0.96070 0.14190 0.29200
H 	H 	0.01660 0.95830 0.16690 -0.05600
H 	H 	0.04370 0.99050 0.15460 -0.05600
C 	C 	0.05420 0.91570 0.15350 -0.75600
H 	H 	0.08280 0.91330 0.20070 0.25300
H 	H 	0.03530 0.88690 0.13960 0.26400
H 	H 	0.06220 0.91880 0.12740 0.26300
C 	C 	0.89370 0.30070 0.32630 0.42500
C 	C 	0.89240 0.33440 0.36860 -0.16500
C 	C 	0.93350 0.34860 0.43090 0.10700
H 	H 	0.96250 0.33650 0.44880 0.01100
C 	C 	0.93140 0.38060 0.46690 -0.17100
H 	H 	0.95980 0.39060 0.50920 0.10400
C 	C 	0.88910 0.39930 0.44360 0.12400
C 	C 	0.84770 0.38250 0.38150 -0.17400
H 	H 	0.81850 0.39300 0.36460 0.09600
C 	C 	0.84900 0.35060 0.34440 0.10000
H 	H 	0.82070 0.33960 0.30270 0.01400
C 	C 	0.89030 0.43720 0.48250 -0.04400
C 	C 	0.91520 0.43140 0.55100 0.09800
C 	C 	0.91440 0.46710 0.58490 -0.09200
H 	H 	0.93260 0.46170 0.63070 0.06800
C 	C 	0.89030 0.50900 0.55920 -0.04600
C 	C 	0.86570 0.51880 0.48980 0.12000
C 	C 	0.86440 0.47810 0.44920 -0.08300
H 	H 	0.84620 0.48170 0.40310 0.07400
C 	C 	0.93480 0.60110 0.69360 0.08900
H 	H 	0.96340 0.60990 0.73640 0.01400
C 	C 	0.93430 0.56340 0.65920 -0.16400
H 	H 	0.96250 0.54800 0.67810 0.08900
C 	C 	0.89090 0.54900 0.59540 0.12100
C 	C 	0.85060 0.57190 0.56990 -0.17000
H 	H 	0.82160 0.56220 0.52820 0.10600
C 	C 	0.85160 0.60980 0.60480 0.09700
H 	H 	0.82330 0.62430 0.58660 0.01200
C 	C 	0.89330 0.62570 0.66490 -0.16400
C 	C 	0.89540 0.67010 0.69820 0.40500
C 	C 	0.95830 0.36730 0.64990 -0.51000
H 	H 	0.93110 0.36570 0.64470 0.18700
H 	H 	0.98350 0.38560 0.69050 0.18100
C 	C 	0.97090 0.32900 0.65110 0.48800
H 	H 	0.98040 0.31120 0.68900 -0.12200
H 	H 	0.94540 0.31210 0.60990 -0.09900
H 	H 	0.99740 0.33180 0.65530 -0.10100
C 	C 	0.04810 0.23740 0.43720 0.07900
H 	H 	0.03160 0.22140 0.44550 0.00200
C 	C 	0.09730 0.23740 0.48770 -0.09200
H 	H 	0.11290 0.22250 0.52910 0.06600
C 	C 	0.12230 0.25910 0.47680 -0.01800
C 	C 	0.09710 0.28330 0.41660 -0.08200
H 	H 	0.11310 0.30050 0.40820 0.06500
C 	C 	0.04910 0.28220 0.36960 0.06000
H 	H 	0.03260 0.29870 0.32890 0.01200
C 	C 	0.24930 0.25110 0.64200 0.20800
H 	H 	0.26470 0.24520 0.68670 -0.04100
C 	C 	0.20110 0.25290 0.59430 -0.30100
H 	H 	0.18510 0.24990 0.60820 0.13800
C 	C 	0.17610 0.25850 0.53010 0.25500
C 	C 	0.20180 0.26960 0.52000 -0.35200
H 	H 	0.18750 0.27890 0.47670 0.16000
C 	C 	0.25060 0.26850 0.57120 0.27500
H 	H 	0.26690 0.27780 0.55920 -0.06900
N 	N 	0.02410 0.25810 0.37950 -0.24500
N 	N 	0.27460 0.25720 0.62860 -0.33300
O 	O 	0.94000 0.21600 0.23010 -0.47800
O 	O 	0.86120 0.20690 0.15330 -0.46000
O 	O 	0.94440 0.81120 0.83480 -0.48200
O 	O 	0.86610 0.81180 0.76090 -0.47700
O 	O 	0.98000 0.95810 0.06090 -0.25800
O 	O 	0.84920 0.10140 0.92090 -0.18800
O 	O 	0.93290 0.28770 0.34970 -0.47600
O 	O 	0.85460 0.28910 0.26840 -0.46400
O 	O 	0.93600 0.68380 0.75280 -0.46000
O 	O 	0.85710 0.69130 0.66920 -0.46500
O 	O 	0.94530 0.38900 0.58880 -0.11700
O 	O 	0.83720 0.55940 0.45170 -0.18300
Zn	Zn	0.95144 0.25306 0.30463 1.21600
Zn	Zn	0.84713 0.24684 0.20079 1.21700
