data_crystal

_cell_length_a 38.97800
_cell_length_b 27.43300
_cell_length_c 27.37700
_cell_angle_alpha 90.00000
_cell_angle_beta  133.80600
_cell_angle_gamma 90.00000

_symmetry_space_group_name_	'P 1'
_symmetry_space_group_name_H-M	'P 1'

loop_
_symmetry_equiv_pos_as_xyz
  x,y,z

loop_
_atom_site_label
_atom_site_type_symbol
_atom_site_fract_x
_atom_site_fract_y
_atom_site_fract_z
_atom_site_charge
Zn	Zn	0.04856 0.25313 0.69540 1.21500
N 	N 	0.97671 0.25864 0.62140 -0.25000
O 	O 	0.06415 0.31613 0.74764 -0.47100
O 	O 	0.05517 0.18872 0.66520 -0.46500
O 	O 	0.06745 0.28775 0.65098 -0.47700
O 	O 	0.06005 0.21599 0.77010 -0.46900
C 	C 	0.95121 0.28210 0.63130 0.06900
C 	C 	0.95130 0.23720 0.56170 0.08100
C 	C 	0.10400 0.32947 0.80060 0.41200
C 	C 	0.09350 0.17146 0.68840 0.40300
H 	H 	0.96760 0.29770 0.67250 0.00800
C 	C 	0.90259 0.28380 0.58350 -0.10900
C 	C 	0.90260 0.23760 0.51190 -0.11800
H 	H 	0.96760 0.22090 0.55300 0.00400
C 	C 	0.10590 0.37440 0.83420 -0.16500
O 	O 	0.14289 0.30846 0.83030 -0.46700
C 	C 	0.09210 0.12810 0.65460 -0.15000
O 	O 	0.13448 0.18847 0.73920 -0.46400
O 	O 	0.14566 0.28901 0.73150 -0.46700
O 	O 	0.13898 0.20734 0.84734 -0.46900
H 	H 	0.88650 0.30090 0.59190 0.07500
C 	C 	0.87764 0.26000 0.52260 0.02700
H 	H 	0.88690 0.22250 0.47070 0.07800
C 	C 	0.06550 0.39880 0.80700 0.09900
C 	C 	0.14850 0.39040 0.89610 0.09500
Zn	Zn	0.15291 0.24680 0.79923 1.21600
C 	C 	0.04870 0.10470 0.60170 0.08500
C 	C 	0.13320 0.11030 0.67470 0.08000
C 	C 	0.82460 0.25900 0.47080 0.15000
H 	H 	0.03670 0.38990 0.76460 0.01000
C 	C 	0.06670 0.43700 0.84180 -0.17900
C 	C 	0.15010 0.42800 0.93200 -0.17800
H 	H 	0.17670 0.37570 0.91410 0.01200
N 	N 	0.22547 0.24242 0.87180 -0.29100
H 	H 	0.02100 0.11470 0.58990 0.01500
C 	C 	0.04740 0.06710 0.56750 -0.15100
C 	C 	0.13110 0.07030 0.63970 -0.15800
H 	H 	0.16240 0.12450 0.71100 0.01800
C 	C 	0.79930 0.26990 0.48280 -0.23500
C 	C 	0.79890 0.25020 0.40520 -0.21100
H 	H 	0.03870 0.45300 0.82230 0.09300
C 	C 	0.10900 0.45130 0.90490 0.13600
H 	H 	0.17890 0.43720 0.97410 0.11600
H 	H 	0.01820 0.05330 0.53070 0.10300
C 	C 	0.08940 0.04860 0.58700 0.11500
H 	H 	0.15910 0.05880 0.65320 0.09000
C 	C 	0.74950 0.26880 0.43150 0.17200
H 	H 	0.81410 0.27870 0.52640 0.11900
H 	H 	0.81460 0.24300 0.39170 0.10800
C 	C 	0.74980 0.25150 0.35700 0.14700
C 	C 	0.11100 0.49220 0.94240 -0.06700
C 	C 	0.08600 0.00920 0.54840 -0.03900
H 	H 	0.73310 0.27740 0.44360 -0.03300
H 	H 	0.73380 0.24770 0.31170 -0.02200
C 	C 	0.13120 0.48140 0.00770 0.14600
C 	C 	0.07920 0.52890 0.90450 -0.05500
C 	C 	0.11410 0.97080 0.58180 -0.11300
C 	C 	0.04960 0.00490 0.47750 0.12700
C 	C 	0.14000 0.52000 0.04550 -0.11800
O 	O 	0.16990 0.45040 0.04130 -0.19600
C 	C 	0.08510 0.56590 0.95400 0.08400
H 	H 	0.05780 0.53170 0.85760 0.05400
C 	C 	0.10460 0.92870 0.53150 0.29700
H 	H 	0.13680 0.96820 0.62880 0.08900
C 	C 	0.05290 0.97350 0.44250 -0.06700
O 	O 	0.01520 0.03850 0.43820 -0.19000
H 	H 	0.16620 0.51820 0.09190 0.07700
C 	C 	0.11160 0.56360 0.01920 -0.03900
C 	C 	0.20830 0.44900 0.12000 -0.09000
O 	O 	0.04820 0.60950 0.90300 -0.18700
C 	C 	0.08910 0.93560 0.47650 -0.17300
O 	O 	0.13740 0.90800 0.57310 -0.27500
H 	H 	0.03140 0.97630 0.39570 0.07200
C 	C 	0.10980 0.60110 0.05530 0.12200
H 	H 	0.20000 0.46940 0.13940 0.05600
H 	H 	0.21470 0.41610 0.13740 0.06900
C 	C 	0.24920 0.47000 0.13090 0.07900
C 	C 	0.01330 0.61160 0.83030 0.04300
C 	C 	0.09200 0.89860 0.44120 0.18200
C 	C 	0.06800 0.61890 0.03130 -0.16700
C 	C 	0.15170 0.61840 0.11650 -0.16500
H 	H 	0.27230 0.47670 0.17910 0.00400
H 	H 	0.23670 0.50180 0.10970 0.01500
C 	C 	0.28190 0.45860 0.11890 -0.43200
H 	H 	0.02490 0.59960 0.81060 0.02100
H 	H 	0.98350 0.59610 0.80950 0.02000
C 	C 	0.01140 0.66980 0.83150 -0.14500
C 	C 	0.05090 0.87570 0.38180 -0.19800
C 	C 	0.13450 0.88720 0.46100 -0.20500
C 	C 	0.06610 0.65030 0.07000 0.09600
H 	H 	0.03990 0.61010 0.98800 0.10400
H 	H 	0.18070 0.60910 0.13180 0.09300
C 	C 	0.15060 0.65010 0.15570 0.09400
H 	H 	0.27490 0.48280 0.08720 0.15700
H 	H 	0.31430 0.46450 0.16150 0.15700
C 	C 	0.28180 0.42040 0.09920 0.25300
H 	H 	0.98490 0.67710 0.78390 0.07500
H 	H 	0.99900 0.67470 0.85190 0.08900
C 	C 	0.05190 0.84330 0.34460 0.10700
H 	H 	0.02170 0.88290 0.36730 0.10900
H 	H 	0.16260 0.90060 0.50050 0.11900
C 	C 	0.13610 0.85570 0.42270 0.12000
H 	H 	0.03690 0.66040 0.05360 0.01500
C 	C 	0.10790 0.66610 0.13260 -0.16600
H 	H 	0.17890 0.66040 0.19770 0.01700
H 	H 	0.30440 0.42070 0.09510 -0.05000
H 	H 	0.25060 0.41390 0.05580 -0.04100
H 	H 	0.29030 0.39550 0.13060 -0.03800
C 	C 	0.09649 0.83424 0.36640 -0.16700
H 	H 	0.02440 0.82800 0.30660 0.01200
H 	H 	0.16510 0.84940 0.43630 0.00500
C 	C 	0.10690 0.69870 0.17460 0.43100
C 	C 	0.09864 0.80102 0.32420 0.41000
Zn	Zn	0.54856 0.75313 0.69540 1.21600
N 	N 	0.47671 0.75864 0.62140 -0.24800
O 	O 	0.56415 0.81613 0.74764 -0.47000
O 	O 	0.55517 0.68872 0.66520 -0.46400
O 	O 	0.56745 0.78775 0.65098 -0.47500
O 	O 	0.56005 0.71599 0.77010 -0.46900
C 	C 	0.45121 0.78210 0.63130 0.07000
C 	C 	0.45130 0.73720 0.56170 0.08200
C 	C 	0.60400 0.82947 0.80060 0.41300
C 	C 	0.59350 0.67146 0.68840 0.40400
H 	H 	0.46760 0.79770 0.67250 0.00900
C 	C 	0.40259 0.78380 0.58350 -0.10800
C 	C 	0.40260 0.73760 0.51190 -0.11800
H 	H 	0.46760 0.72090 0.55300 0.00400
C 	C 	0.60590 0.87440 0.83420 -0.16500
O 	O 	0.64289 0.80846 0.83030 -0.46700
C 	C 	0.59210 0.62810 0.65460 -0.15000
O 	O 	0.63448 0.68847 0.73920 -0.46400
O 	O 	0.64566 0.78901 0.73150 -0.46700
O 	O 	0.63898 0.70734 0.84734 -0.46900
H 	H 	0.38650 0.80090 0.59190 0.07500
C 	C 	0.37764 0.76000 0.52260 0.02700
H 	H 	0.38690 0.72250 0.47070 0.07800
C 	C 	0.56550 0.89880 0.80700 0.09900
C 	C 	0.64850 0.89040 0.89610 0.09600
Zn	Zn	0.65291 0.74680 0.79923 1.21600
C 	C 	0.54870 0.60470 0.60170 0.08500
C 	C 	0.63320 0.61030 0.67470 0.08000
C 	C 	0.32460 0.75900 0.47080 0.15000
H 	H 	0.53670 0.88990 0.76460 0.01000
C 	C 	0.56670 0.93700 0.84180 -0.17900
C 	C 	0.65010 0.92800 0.93200 -0.17800
H 	H 	0.67670 0.87570 0.91410 0.01200
N 	N 	0.72547 0.74242 0.87180 -0.29100
H 	H 	0.52100 0.61470 0.58990 0.01500
C 	C 	0.54740 0.56710 0.56750 -0.15100
C 	C 	0.63110 0.57030 0.63970 -0.15800
H 	H 	0.66240 0.62450 0.71100 0.01800
C 	C 	0.29930 0.76990 0.48280 -0.23500
C 	C 	0.29890 0.75020 0.40520 -0.21100
H 	H 	0.53870 0.95300 0.82230 0.09300
C 	C 	0.60900 0.95130 0.90490 0.13600
H 	H 	0.67890 0.93720 0.97410 0.11600
H 	H 	0.51820 0.55330 0.53070 0.10300
C 	C 	0.58940 0.54860 0.58700 0.11600
H 	H 	0.65910 0.55880 0.65320 0.09000
C 	C 	0.24950 0.76880 0.43150 0.17200
H 	H 	0.31410 0.77870 0.52640 0.12000
H 	H 	0.31460 0.74300 0.39170 0.10800
C 	C 	0.24980 0.75150 0.35700 0.14700
C 	C 	0.61100 0.99220 0.94240 -0.06700
C 	C 	0.58600 0.50920 0.54840 -0.03900
H 	H 	0.23310 0.77740 0.44360 -0.03300
H 	H 	0.23380 0.74770 0.31170 -0.02200
C 	C 	0.63120 0.98140 0.00770 0.14600
C 	C 	0.57920 0.02890 0.90450 -0.05500
C 	C 	0.61410 0.47080 0.58180 -0.11300
C 	C 	0.54960 0.50490 0.47750 0.12700
C 	C 	0.64000 0.02000 0.04550 -0.11900
O 	O 	0.66990 0.95040 0.04130 -0.19600
C 	C 	0.58510 0.06590 0.95400 0.08300
H 	H 	0.55780 0.03170 0.85760 0.05300
C 	C 	0.60460 0.42870 0.53150 0.29700
H 	H 	0.63680 0.46820 0.62880 0.08900
C 	C 	0.55290 0.47350 0.44250 -0.06700
O 	O 	0.51520 0.53850 0.43820 -0.19000
H 	H 	0.66620 0.01820 0.09190 0.07700
C 	C 	0.61160 0.06360 0.01920 -0.03800
C 	C 	0.70830 0.94900 0.12000 -0.09000
O 	O 	0.54820 0.10950 0.90300 -0.18700
C 	C 	0.58910 0.43560 0.47650 -0.17300
O 	O 	0.63740 0.40800 0.57310 -0.27500
H 	H 	0.53140 0.47630 0.39570 0.07200
C 	C 	0.60980 0.10110 0.05530 0.12100
H 	H 	0.70000 0.96940 0.13940 0.05600
H 	H 	0.71470 0.91610 0.13740 0.06900
C 	C 	0.74920 0.97000 0.13090 0.07900
C 	C 	0.51330 0.11160 0.83030 0.04200
C 	C 	0.59200 0.39860 0.44120 0.18200
C 	C 	0.56800 0.11890 0.03130 -0.16500
C 	C 	0.65170 0.11840 0.11650 -0.16400
H 	H 	0.77230 0.97670 0.17910 0.00400
H 	H 	0.73670 0.00180 0.10970 0.01500
C 	C 	0.78190 0.95860 0.11890 -0.43200
H 	H 	0.52490 0.09960 0.81060 0.02100
H 	H 	0.48350 0.09610 0.80950 0.02000
C 	C 	0.51140 0.16980 0.83150 -0.14500
C 	C 	0.55090 0.37570 0.38180 -0.19800
C 	C 	0.63450 0.38720 0.46100 -0.20500
C 	C 	0.56610 0.15030 0.07000 0.09500
H 	H 	0.53990 0.11010 0.98800 0.10300
H 	H 	0.68070 0.10910 0.13180 0.09300
C 	C 	0.65060 0.15010 0.15570 0.09300
H 	H 	0.77490 0.98280 0.08720 0.15700
H 	H 	0.81430 0.96450 0.16150 0.15700
C 	C 	0.78180 0.92040 0.09920 0.25300
H 	H 	0.48490 0.17710 0.78390 0.07600
H 	H 	0.49900 0.17470 0.85190 0.09000
C 	C 	0.55190 0.34330 0.34460 0.10700
H 	H 	0.52170 0.38290 0.36730 0.10900
H 	H 	0.66260 0.40060 0.50050 0.11900
C 	C 	0.63610 0.35570 0.42270 0.12000
H 	H 	0.53690 0.16040 0.05360 0.01500
C 	C 	0.60790 0.16610 0.13260 -0.16600
H 	H 	0.67890 0.16040 0.19770 0.01700
H 	H 	0.80440 0.92070 0.09510 -0.05000
H 	H 	0.75060 0.91390 0.05580 -0.04100
H 	H 	0.79030 0.89550 0.13060 -0.03800
C 	C 	0.59649 0.33424 0.36640 -0.16700
H 	H 	0.52440 0.32800 0.30660 0.01200
H 	H 	0.66510 0.34940 0.43630 0.00600
C 	C 	0.60690 0.19870 0.17460 0.43100
C 	C 	0.59864 0.30102 0.32420 0.41000
Zn	Zn	0.04856 0.74687 0.19540 1.21600
N 	N 	0.97671 0.74136 0.12140 -0.24800
O 	O 	0.06415 0.68387 0.24764 -0.47000
O 	O 	0.05517 0.81128 0.16520 -0.46400
O 	O 	0.06745 0.71225 0.15098 -0.47600
O 	O 	0.06005 0.78401 0.27010 -0.46900
C 	C 	0.95121 0.71790 0.13130 0.07000
C 	C 	0.95130 0.76280 0.06170 0.08100
C 	C 	0.10400 0.67053 0.30060 0.41400
C 	C 	0.09350 0.82854 0.18840 0.40400
H 	H 	0.96760 0.70230 0.17250 0.00900
C 	C 	0.90259 0.71620 0.08350 -0.10800
C 	C 	0.90260 0.76240 0.01190 -0.11700
H 	H 	0.96760 0.77910 0.05300 0.00400
C 	C 	0.10590 0.62560 0.33420 -0.16500
O 	O 	0.14289 0.69154 0.33030 -0.46700
C 	C 	0.09210 0.87190 0.15460 -0.15100
O 	O 	0.13448 0.81153 0.23920 -0.46400
O 	O 	0.14566 0.71099 0.23150 -0.46700
O 	O 	0.13898 0.79266 0.34734 -0.46900
H 	H 	0.88650 0.69910 0.09190 0.07500
C 	C 	0.87764 0.74000 0.02260 0.02600
H 	H 	0.88690 0.77750 0.97070 0.07700
C 	C 	0.06550 0.60120 0.30700 0.09900
C 	C 	0.14850 0.60960 0.39610 0.09600
Zn	Zn	0.15291 0.75320 0.29923 1.21600
C 	C 	0.04870 0.89530 0.10170 0.08600
C 	C 	0.13320 0.88970 0.17470 0.08100
C 	C 	0.82460 0.74100 0.97080 0.15000
H 	H 	0.03670 0.61010 0.26460 0.01000
C 	C 	0.06670 0.56300 0.34180 -0.17900
C 	C 	0.15010 0.57200 0.43200 -0.17800
H 	H 	0.17670 0.62430 0.41410 0.01200
N 	N 	0.22547 0.75758 0.37180 -0.29100
H 	H 	0.02100 0.88530 0.08990 0.01500
C 	C 	0.04740 0.93290 0.06750 -0.15200
C 	C 	0.13110 0.92970 0.13970 -0.15900
H 	H 	0.16240 0.87550 0.21100 0.01800
C 	C 	0.79930 0.73010 0.98280 -0.23500
C 	C 	0.79890 0.74980 0.90520 -0.21100
H 	H 	0.03870 0.54700 0.32230 0.09300
C 	C 	0.10900 0.54870 0.40490 0.13600
H 	H 	0.17890 0.56280 0.47410 0.11600
H 	H 	0.01820 0.94670 0.03070 0.10300
C 	C 	0.08940 0.95140 0.08700 0.11600
H 	H 	0.15910 0.94120 0.15320 0.09000
C 	C 	0.74950 0.73120 0.93150 0.17200
H 	H 	0.81410 0.72130 0.02640 0.12000
H 	H 	0.81460 0.75700 0.89170 0.10800
C 	C 	0.74980 0.74850 0.85700 0.14700
C 	C 	0.11100 0.50780 0.44240 -0.06700
C 	C 	0.08600 0.99080 0.04840 -0.04000
H 	H 	0.73310 0.72260 0.94360 -0.03300
H 	H 	0.73380 0.75230 0.81170 -0.02200
C 	C 	0.13120 0.51860 0.50770 0.14600
C 	C 	0.07920 0.47110 0.40450 -0.05500
C 	C 	0.11410 0.02920 0.08180 -0.11200
C 	C 	0.04960 0.99510 0.97750 0.12800
C 	C 	0.14000 0.48000 0.54550 -0.11900
O 	O 	0.16990 0.54960 0.54130 -0.19700
C 	C 	0.08510 0.43410 0.45400 0.08300
H 	H 	0.05780 0.46830 0.35760 0.05300
C 	C 	0.10460 0.07130 0.03150 0.29600
H 	H 	0.13680 0.03180 0.12880 0.08900
C 	C 	0.05290 0.02650 0.94250 -0.06700
O 	O 	0.01520 0.96150 0.93820 -0.19000
H 	H 	0.16620 0.48180 0.59190 0.07700
C 	C 	0.11160 0.43640 0.51920 -0.03800
C 	C 	0.20830 0.55100 0.62000 -0.09000
O 	O 	0.04820 0.39050 0.40300 -0.18700
C 	C 	0.08910 0.06440 0.97650 -0.17200
O 	O 	0.13740 0.09200 0.07310 -0.27500
H 	H 	0.03140 0.02370 0.89570 0.07200
C 	C 	0.10980 0.39890 0.55530 0.12100
H 	H 	0.20000 0.53060 0.63940 0.05600
H 	H 	0.21470 0.58390 0.63740 0.06900
C 	C 	0.24920 0.53000 0.63090 0.07900
C 	C 	0.01330 0.38840 0.33030 0.04200
C 	C 	0.09200 0.10140 0.94120 0.18100
C 	C 	0.06800 0.38110 0.53130 -0.16500
C 	C 	0.15170 0.38160 0.61650 -0.16400
H 	H 	0.27230 0.52330 0.67910 0.00400
H 	H 	0.23670 0.49820 0.60970 0.01500
C 	C 	0.28190 0.54140 0.61890 -0.43200
H 	H 	0.02490 0.40040 0.31060 0.02100
H 	H 	0.98350 0.40390 0.30950 0.02000
C 	C 	0.01140 0.33020 0.33150 -0.14600
C 	C 	0.05090 0.12430 0.88180 -0.19800
C 	C 	0.13450 0.11280 0.96100 -0.20400
C 	C 	0.06610 0.34970 0.57000 0.09500
H 	H 	0.03990 0.38990 0.48800 0.10300
H 	H 	0.18070 0.39090 0.63180 0.09300
C 	C 	0.15060 0.34990 0.65570 0.09300
H 	H 	0.27490 0.51720 0.58720 0.15700
H 	H 	0.31430 0.53550 0.66150 0.15700
C 	C 	0.28180 0.57960 0.59920 0.25300
H 	H 	0.98490 0.32290 0.28390 0.07600
H 	H 	0.99900 0.32530 0.35190 0.09000
C 	C 	0.05190 0.15670 0.84460 0.10600
H 	H 	0.02170 0.11710 0.86730 0.10900
H 	H 	0.16260 0.09940 0.00050 0.11900
C 	C 	0.13610 0.14430 0.92270 0.11900
H 	H 	0.03690 0.33960 0.55360 0.01500
C 	C 	0.10790 0.33390 0.63260 -0.16600
H 	H 	0.17890 0.33960 0.69770 0.01700
H 	H 	0.30440 0.57930 0.59510 -0.05000
H 	H 	0.25060 0.58610 0.55580 -0.04100
H 	H 	0.29030 0.60450 0.63060 -0.03800
C 	C 	0.09649 0.16576 0.86640 -0.16600
H 	H 	0.02440 0.17200 0.80660 0.01200
H 	H 	0.16510 0.15060 0.93630 0.00600
C 	C 	0.10690 0.30130 0.67460 0.43100
C 	C 	0.09864 0.19898 0.82420 0.41000
Zn	Zn	0.54856 0.24687 0.19540 1.21600
N 	N 	0.47671 0.24136 0.12140 -0.24800
O 	O 	0.56415 0.18387 0.24764 -0.47000
O 	O 	0.55517 0.31128 0.16520 -0.46400
O 	O 	0.56745 0.21225 0.15098 -0.47500
O 	O 	0.56005 0.28401 0.27010 -0.46900
C 	C 	0.45121 0.21790 0.13130 0.07000
C 	C 	0.45130 0.26280 0.06170 0.08200
C 	C 	0.60400 0.17053 0.30060 0.41300
C 	C 	0.59350 0.32854 0.18840 0.40400
H 	H 	0.46760 0.20230 0.17250 0.00900
C 	C 	0.40259 0.21620 0.08350 -0.10800
C 	C 	0.40260 0.26240 0.01190 -0.11800
H 	H 	0.46760 0.27910 0.05300 0.00400
C 	C 	0.60590 0.12560 0.33420 -0.16500
O 	O 	0.64289 0.19154 0.33030 -0.46700
C 	C 	0.59210 0.37190 0.15460 -0.15000
O 	O 	0.63448 0.31153 0.23920 -0.46400
O 	O 	0.64566 0.21099 0.23150 -0.46700
O 	O 	0.63898 0.29266 0.34734 -0.46900
H 	H 	0.38650 0.19910 0.09190 0.07500
C 	C 	0.37764 0.24000 0.02260 0.02700
H 	H 	0.38690 0.27750 0.97070 0.07800
C 	C 	0.56550 0.10120 0.30700 0.09900
C 	C 	0.64850 0.10960 0.39610 0.09600
Zn	Zn	0.65291 0.25320 0.29923 1.21600
C 	C 	0.54870 0.39530 0.10170 0.08500
C 	C 	0.63320 0.38970 0.17470 0.08000
C 	C 	0.32460 0.24100 0.97080 0.15000
H 	H 	0.53670 0.11010 0.26460 0.01000
C 	C 	0.56670 0.06300 0.34180 -0.17900
C 	C 	0.65010 0.07200 0.43200 -0.17800
H 	H 	0.67670 0.12430 0.41410 0.01200
N 	N 	0.72547 0.25758 0.37180 -0.29100
H 	H 	0.52100 0.38530 0.08990 0.01500
C 	C 	0.54740 0.43290 0.06750 -0.15100
C 	C 	0.63110 0.42970 0.13970 -0.15800
H 	H 	0.66240 0.37550 0.21100 0.01800
C 	C 	0.29930 0.23010 0.98280 -0.23400
C 	C 	0.29890 0.24980 0.90520 -0.21100
H 	H 	0.53870 0.04700 0.32230 0.09300
C 	C 	0.60900 0.04870 0.40490 0.13600
H 	H 	0.67890 0.06280 0.47410 0.11600
H 	H 	0.51820 0.44670 0.03070 0.10300
C 	C 	0.58940 0.45140 0.08700 0.11500
H 	H 	0.65910 0.44120 0.15320 0.09000
C 	C 	0.24950 0.23120 0.93150 0.17200
H 	H 	0.31410 0.22130 0.02640 0.11900
H 	H 	0.31460 0.25700 0.89170 0.10800
C 	C 	0.24980 0.24850 0.85700 0.14700
C 	C 	0.61100 0.00780 0.44240 -0.06700
C 	C 	0.58600 0.49080 0.04840 -0.03900
H 	H 	0.23310 0.22260 0.94360 -0.03300
H 	H 	0.23380 0.25230 0.81170 -0.02200
C 	C 	0.63120 0.01860 0.50770 0.14600
C 	C 	0.57920 0.97110 0.40450 -0.05500
C 	C 	0.61410 0.52920 0.08180 -0.11300
C 	C 	0.54960 0.49510 0.97750 0.12700
C 	C 	0.64000 0.98000 0.54550 -0.11900
O 	O 	0.66990 0.04960 0.54130 -0.19700
C 	C 	0.58510 0.93410 0.45400 0.08300
H 	H 	0.55780 0.96830 0.35760 0.05300
C 	C 	0.60460 0.57130 0.03150 0.29800
H 	H 	0.63680 0.53180 0.12880 0.08900
C 	C 	0.55290 0.52650 0.94250 -0.06600
O 	O 	0.51520 0.46150 0.93820 -0.19000
H 	H 	0.66620 0.98180 0.59190 0.07700
C 	C 	0.61160 0.93640 0.51920 -0.03800
C 	C 	0.70830 0.05100 0.62000 -0.09000
O 	O 	0.54820 0.89050 0.40300 -0.18700
C 	C 	0.58910 0.56440 0.97650 -0.17400
O 	O 	0.63740 0.59200 0.07310 -0.27500
H 	H 	0.53140 0.52370 0.89570 0.07200
C 	C 	0.60980 0.89890 0.55530 0.12100
H 	H 	0.70000 0.03060 0.63940 0.05600
H 	H 	0.71470 0.08390 0.63740 0.06900
C 	C 	0.74920 0.03000 0.63090 0.07900
C 	C 	0.51330 0.88840 0.33030 0.04200
C 	C 	0.59200 0.60140 0.94120 0.18200
C 	C 	0.56800 0.88110 0.53130 -0.16500
C 	C 	0.65170 0.88160 0.61650 -0.16400
H 	H 	0.77230 0.02330 0.67910 0.00400
H 	H 	0.73670 0.99820 0.60970 0.01500
C 	C 	0.78190 0.04140 0.61890 -0.43200
H 	H 	0.52490 0.90040 0.31060 0.02100
H 	H 	0.48350 0.90390 0.30950 0.02000
C 	C 	0.51140 0.83020 0.33150 -0.14500
C 	C 	0.55090 0.62430 0.88180 -0.19800
C 	C 	0.63450 0.61280 0.96100 -0.20500
C 	C 	0.56610 0.84970 0.57000 0.09500
H 	H 	0.53990 0.88990 0.48800 0.10300
H 	H 	0.68070 0.89090 0.63180 0.09300
C 	C 	0.65060 0.84990 0.65570 0.09300
H 	H 	0.77490 0.01720 0.58720 0.15700
H 	H 	0.81430 0.03550 0.66150 0.15700
C 	C 	0.78180 0.07960 0.59920 0.25300
H 	H 	0.48490 0.82290 0.28390 0.07600
H 	H 	0.49900 0.82530 0.35190 0.09000
C 	C 	0.55190 0.65670 0.84460 0.10700
H 	H 	0.52170 0.61710 0.86730 0.10900
H 	H 	0.66260 0.59940 0.00050 0.11900
C 	C 	0.63610 0.64430 0.92270 0.12000
H 	H 	0.53690 0.83960 0.55360 0.01500
C 	C 	0.60790 0.83390 0.63260 -0.16600
H 	H 	0.67890 0.83960 0.69770 0.01700
H 	H 	0.80440 0.07930 0.59510 -0.05000
H 	H 	0.75060 0.08610 0.55580 -0.04100
H 	H 	0.79030 0.10450 0.63060 -0.03800
C 	C 	0.59649 0.66576 0.86640 -0.16700
H 	H 	0.52440 0.67200 0.80660 0.01200
H 	H 	0.66510 0.65060 0.93630 0.00500
C 	C 	0.60690 0.80130 0.67460 0.43100
C 	C 	0.59864 0.69898 0.82420 0.41000
Zn	Zn	0.95144 0.25313 0.80460 1.21600
N 	N 	0.02329 0.25864 0.87860 -0.24800
O 	O 	0.93585 0.31613 0.75236 -0.47000
O 	O 	0.94483 0.18872 0.83480 -0.46400
O 	O 	0.93255 0.28775 0.84902 -0.47600
O 	O 	0.93995 0.21599 0.72990 -0.46900
C 	C 	0.04879 0.28210 0.86870 0.07000
C 	C 	0.04870 0.23720 0.93830 0.08100
C 	C 	0.89600 0.32947 0.69940 0.41400
C 	C 	0.90650 0.17146 0.81160 0.40400
H 	H 	0.03240 0.29770 0.82750 0.00900
C 	C 	0.09741 0.28380 0.91650 -0.10800
C 	C 	0.09740 0.23760 0.98810 -0.11700
H 	H 	0.03240 0.22090 0.94700 0.00400
C 	C 	0.89410 0.37440 0.66580 -0.16500
O 	O 	0.85711 0.30846 0.66970 -0.46700
C 	C 	0.90790 0.12810 0.84540 -0.15100
O 	O 	0.86552 0.18847 0.76080 -0.46400
O 	O 	0.85434 0.28901 0.76850 -0.46700
O 	O 	0.86102 0.20734 0.65266 -0.46900
H 	H 	0.11350 0.30090 0.90810 0.07500
C 	C 	0.12236 0.26000 0.97740 0.02600
H 	H 	0.11310 0.22250 0.02930 0.07700
C 	C 	0.93450 0.39880 0.69300 0.09900
C 	C 	0.85150 0.39040 0.60390 0.09600
Zn	Zn	0.84709 0.24680 0.70077 1.21600
C 	C 	0.95130 0.10470 0.89830 0.08600
C 	C 	0.86680 0.11030 0.82530 0.08100
C 	C 	0.17540 0.25900 0.02920 0.15000
H 	H 	0.96330 0.38990 0.73540 0.01000
C 	C 	0.93330 0.43700 0.65820 -0.17900
C 	C 	0.84990 0.42800 0.56800 -0.17800
H 	H 	0.82330 0.37570 0.58590 0.01200
N 	N 	0.77453 0.24242 0.62820 -0.29100
H 	H 	0.97900 0.11470 0.91010 0.01500
C 	C 	0.95260 0.06710 0.93250 -0.15200
C 	C 	0.86890 0.07030 0.86030 -0.15900
H 	H 	0.83760 0.12450 0.78900 0.01800
C 	C 	0.20070 0.26990 0.01720 -0.23500
C 	C 	0.20110 0.25020 0.09480 -0.21100
H 	H 	0.96130 0.45300 0.67770 0.09300
C 	C 	0.89100 0.45130 0.59510 0.13600
H 	H 	0.82110 0.43720 0.52590 0.11600
H 	H 	0.98180 0.05330 0.96930 0.10300
C 	C 	0.91060 0.04860 0.91300 0.11600
H 	H 	0.84090 0.05880 0.84680 0.09000
C 	C 	0.25050 0.26880 0.06850 0.17200
H 	H 	0.18590 0.27870 0.97360 0.12000
H 	H 	0.18540 0.24300 0.10830 0.10800
C 	C 	0.25020 0.25150 0.14300 0.14700
C 	C 	0.88900 0.49220 0.55760 -0.06700
C 	C 	0.91400 0.00920 0.95160 -0.04000
H 	H 	0.26690 0.27740 0.05640 -0.03300
H 	H 	0.26620 0.24770 0.18830 -0.02200
C 	C 	0.86880 0.48140 0.49230 0.14600
C 	C 	0.92080 0.52890 0.59550 -0.05500
C 	C 	0.88590 0.97080 0.91820 -0.11200
C 	C 	0.95040 0.00490 0.02250 0.12800
C 	C 	0.86000 0.52000 0.45450 -0.11900
O 	O 	0.83010 0.45040 0.45870 -0.19700
C 	C 	0.91490 0.56590 0.54600 0.08300
H 	H 	0.94220 0.53170 0.64240 0.05300
C 	C 	0.89540 0.92870 0.96850 0.29600
H 	H 	0.86320 0.96820 0.87120 0.08900
C 	C 	0.94710 0.97350 0.05750 -0.06700
O 	O 	0.98480 0.03850 0.06180 -0.19000
H 	H 	0.83380 0.51820 0.40810 0.07700
C 	C 	0.88840 0.56360 0.48080 -0.03800
C 	C 	0.79170 0.44900 0.38000 -0.09000
O 	O 	0.95180 0.60950 0.59700 -0.18700
C 	C 	0.91090 0.93560 0.02350 -0.17200
O 	O 	0.86260 0.90800 0.92690 -0.27500
H 	H 	0.96860 0.97630 0.10430 0.07200
C 	C 	0.89020 0.60110 0.44470 0.12100
H 	H 	0.80000 0.46940 0.36060 0.05600
H 	H 	0.78530 0.41610 0.36260 0.06900
C 	C 	0.75080 0.47000 0.36910 0.07900
C 	C 	0.98670 0.61160 0.66970 0.04200
C 	C 	0.90800 0.89860 0.05880 0.18100
C 	C 	0.93200 0.61890 0.46870 -0.16500
C 	C 	0.84830 0.61840 0.38350 -0.16400
H 	H 	0.72770 0.47670 0.32090 0.00400
H 	H 	0.76330 0.50180 0.39030 0.01500
C 	C 	0.71810 0.45860 0.38110 -0.43200
H 	H 	0.97510 0.59960 0.68940 0.02100
H 	H 	0.01650 0.59610 0.69050 0.02000
C 	C 	0.98860 0.66980 0.66850 -0.14600
C 	C 	0.94910 0.87570 0.11820 -0.19800
C 	C 	0.86550 0.88720 0.03900 -0.20400
C 	C 	0.93390 0.65030 0.43000 0.09500
H 	H 	0.96010 0.61010 0.51200 0.10300
H 	H 	0.81930 0.60910 0.36820 0.09300
C 	C 	0.84940 0.65010 0.34430 0.09300
H 	H 	0.72510 0.48280 0.41280 0.15700
H 	H 	0.68570 0.46450 0.33850 0.15700
C 	C 	0.71820 0.42040 0.40080 0.25300
H 	H 	0.01510 0.67710 0.71610 0.07600
H 	H 	0.00100 0.67470 0.64810 0.09000
C 	C 	0.94810 0.84330 0.15540 0.10600
H 	H 	0.97830 0.88290 0.13270 0.10900
H 	H 	0.83740 0.90060 0.99950 0.11900
C 	C 	0.86390 0.85570 0.07730 0.11900
H 	H 	0.96310 0.66040 0.44640 0.01500
C 	C 	0.89210 0.66610 0.36740 -0.16600
H 	H 	0.82110 0.66040 0.30230 0.01700
H 	H 	0.69560 0.42070 0.40490 -0.05000
H 	H 	0.74940 0.41390 0.44420 -0.04100
H 	H 	0.70970 0.39550 0.36940 -0.03800
C 	C 	0.90351 0.83424 0.13360 -0.16600
H 	H 	0.97560 0.82800 0.19340 0.01200
H 	H 	0.83490 0.84940 0.06370 0.00600
C 	C 	0.89310 0.69870 0.32540 0.43100
C 	C 	0.90136 0.80102 0.17580 0.41000
Zn	Zn	0.45144 0.75313 0.80460 1.21600
N 	N 	0.52329 0.75864 0.87860 -0.24800
O 	O 	0.43585 0.81613 0.75236 -0.47000
O 	O 	0.44483 0.68872 0.83480 -0.46400
O 	O 	0.43255 0.78775 0.84902 -0.47500
O 	O 	0.43995 0.71599 0.72990 -0.46900
C 	C 	0.54879 0.78210 0.86870 0.07000
C 	C 	0.54870 0.73720 0.93830 0.08200
C 	C 	0.39600 0.82947 0.69940 0.41300
C 	C 	0.40650 0.67146 0.81160 0.40400
H 	H 	0.53240 0.79770 0.82750 0.00900
C 	C 	0.59741 0.78380 0.91650 -0.10800
C 	C 	0.59740 0.73760 0.98810 -0.11800
H 	H 	0.53240 0.72090 0.94700 0.00400
C 	C 	0.39410 0.87440 0.66580 -0.16500
O 	O 	0.35711 0.80846 0.66970 -0.46700
C 	C 	0.40790 0.62810 0.84540 -0.15000
O 	O 	0.36552 0.68847 0.76080 -0.46400
O 	O 	0.35434 0.78901 0.76850 -0.46700
O 	O 	0.36102 0.70734 0.65266 -0.46900
H 	H 	0.61350 0.80090 0.90810 0.07500
C 	C 	0.62236 0.76000 0.97740 0.02700
H 	H 	0.61310 0.72250 0.02930 0.07800
C 	C 	0.43450 0.89880 0.69300 0.09900
C 	C 	0.35150 0.89040 0.60390 0.09600
Zn	Zn	0.34709 0.74680 0.70077 1.21600
C 	C 	0.45130 0.60470 0.89830 0.08500
C 	C 	0.36680 0.61030 0.82530 0.08000
C 	C 	0.67540 0.75900 0.02920 0.15000
H 	H 	0.46330 0.88990 0.73540 0.01000
C 	C 	0.43330 0.93700 0.65820 -0.17900
C 	C 	0.34990 0.92800 0.56800 -0.17800
H 	H 	0.32330 0.87570 0.58590 0.01200
N 	N 	0.27453 0.74242 0.62820 -0.29100
H 	H 	0.47900 0.61470 0.91010 0.01500
C 	C 	0.45260 0.56710 0.93250 -0.15100
C 	C 	0.36890 0.57030 0.86030 -0.15800
H 	H 	0.33760 0.62450 0.78900 0.01800
C 	C 	0.70070 0.76990 0.01720 -0.23400
C 	C 	0.70110 0.75020 0.09480 -0.21100
H 	H 	0.46130 0.95300 0.67770 0.09300
C 	C 	0.39100 0.95130 0.59510 0.13600
H 	H 	0.32110 0.93720 0.52590 0.11600
H 	H 	0.48180 0.55330 0.96930 0.10300
C 	C 	0.41060 0.54860 0.91300 0.11500
H 	H 	0.34090 0.55880 0.84680 0.09000
C 	C 	0.75050 0.76880 0.06850 0.17200
H 	H 	0.68590 0.77870 0.97360 0.11900
H 	H 	0.68540 0.74300 0.10830 0.10800
C 	C 	0.75020 0.75150 0.14300 0.14700
C 	C 	0.38900 0.99220 0.55760 -0.06700
C 	C 	0.41400 0.50920 0.95160 -0.03900
H 	H 	0.76690 0.77740 0.05640 -0.03300
H 	H 	0.76620 0.74770 0.18830 -0.02200
C 	C 	0.36880 0.98140 0.49230 0.14600
C 	C 	0.42080 0.02890 0.59550 -0.05500
C 	C 	0.38590 0.47080 0.91820 -0.11300
C 	C 	0.45040 0.50490 0.02250 0.12700
C 	C 	0.36000 0.02000 0.45450 -0.11900
O 	O 	0.33010 0.95040 0.45870 -0.19700
C 	C 	0.41490 0.06590 0.54600 0.08300
H 	H 	0.44220 0.03170 0.64240 0.05300
C 	C 	0.39540 0.42870 0.96850 0.29800
H 	H 	0.36320 0.46820 0.87120 0.08900
C 	C 	0.44710 0.47350 0.05750 -0.06600
O 	O 	0.48480 0.53850 0.06180 -0.19000
H 	H 	0.33380 0.01820 0.40810 0.07700
C 	C 	0.38840 0.06360 0.48080 -0.03800
C 	C 	0.29170 0.94900 0.38000 -0.09000
O 	O 	0.45180 0.10950 0.59700 -0.18700
C 	C 	0.41090 0.43560 0.02350 -0.17400
O 	O 	0.36260 0.40800 0.92690 -0.27500
H 	H 	0.46860 0.47630 0.10430 0.07200
C 	C 	0.39020 0.10110 0.44470 0.12100
H 	H 	0.30000 0.96940 0.36060 0.05600
H 	H 	0.28530 0.91610 0.36260 0.06900
C 	C 	0.25080 0.97000 0.36910 0.07900
C 	C 	0.48670 0.11160 0.66970 0.04200
C 	C 	0.40800 0.39860 0.05880 0.18200
C 	C 	0.43200 0.11890 0.46870 -0.16500
C 	C 	0.34830 0.11840 0.38350 -0.16400
H 	H 	0.22770 0.97670 0.32090 0.00400
H 	H 	0.26330 0.00180 0.39030 0.01500
C 	C 	0.21810 0.95860 0.38110 -0.43200
H 	H 	0.47510 0.09960 0.68940 0.02100
H 	H 	0.51650 0.09610 0.69050 0.02000
C 	C 	0.48860 0.16980 0.66850 -0.14500
C 	C 	0.44910 0.37570 0.11820 -0.19800
C 	C 	0.36550 0.38720 0.03900 -0.20500
C 	C 	0.43390 0.15030 0.43000 0.09500
H 	H 	0.46010 0.11010 0.51200 0.10300
H 	H 	0.31930 0.10910 0.36820 0.09300
C 	C 	0.34940 0.15010 0.34430 0.09300
H 	H 	0.22510 0.98280 0.41280 0.15700
H 	H 	0.18570 0.96450 0.33850 0.15700
C 	C 	0.21820 0.92040 0.40080 0.25300
H 	H 	0.51510 0.17710 0.71610 0.07600
H 	H 	0.50100 0.17470 0.64810 0.09000
C 	C 	0.44810 0.34330 0.15540 0.10700
H 	H 	0.47830 0.38290 0.13270 0.10900
H 	H 	0.33740 0.40060 0.99950 0.11900
C 	C 	0.36390 0.35570 0.07730 0.12000
H 	H 	0.46310 0.16040 0.44640 0.01500
C 	C 	0.39210 0.16610 0.36740 -0.16600
H 	H 	0.32110 0.16040 0.30230 0.01700
H 	H 	0.19560 0.92070 0.40490 -0.05000
H 	H 	0.24940 0.91390 0.44420 -0.04100
H 	H 	0.20970 0.89550 0.36940 -0.03800
C 	C 	0.40351 0.33424 0.13360 -0.16700
H 	H 	0.47560 0.32800 0.19340 0.01200
H 	H 	0.33490 0.34940 0.06370 0.00500
C 	C 	0.39310 0.19870 0.32540 0.43100
C 	C 	0.40136 0.30102 0.17580 0.41000
Zn	Zn	0.95144 0.74687 0.30460 1.21600
N 	N 	0.02329 0.74136 0.37860 -0.24900
O 	O 	0.93585 0.68387 0.25236 -0.47000
O 	O 	0.94483 0.81128 0.33480 -0.46400
O 	O 	0.93255 0.71225 0.34902 -0.47600
O 	O 	0.93995 0.78401 0.22990 -0.46800
C 	C 	0.04879 0.71790 0.36870 0.07000
C 	C 	0.04870 0.76280 0.43830 0.08200
C 	C 	0.89600 0.67053 0.19940 0.41300
C 	C 	0.90650 0.82854 0.31160 0.40400
H 	H 	0.03240 0.70230 0.32750 0.00900
C 	C 	0.09741 0.71620 0.41650 -0.10800
C 	C 	0.09740 0.76240 0.48810 -0.11800
H 	H 	0.03240 0.77910 0.44700 0.00400
C 	C 	0.89410 0.62560 0.16580 -0.16500
O 	O 	0.85711 0.69154 0.16970 -0.46700
C 	C 	0.90790 0.87190 0.34540 -0.15000
O 	O 	0.86552 0.81153 0.26080 -0.46400
O 	O 	0.85434 0.71099 0.26850 -0.46700
O 	O 	0.86102 0.79266 0.15266 -0.46900
H 	H 	0.11350 0.69910 0.40810 0.07500
C 	C 	0.12236 0.74000 0.47740 0.02700
H 	H 	0.11310 0.77750 0.52930 0.07800
C 	C 	0.93450 0.60120 0.19300 0.09900
C 	C 	0.85150 0.60960 0.10390 0.09500
Zn	Zn	0.84709 0.75320 0.20077 1.21600
C 	C 	0.95130 0.89530 0.39830 0.08500
C 	C 	0.86680 0.88970 0.32530 0.08000
C 	C 	0.17540 0.74100 0.52920 0.15000
H 	H 	0.96330 0.61010 0.23540 0.01000
C 	C 	0.93330 0.56300 0.15820 -0.17900
C 	C 	0.84990 0.57200 0.06800 -0.17800
H 	H 	0.82330 0.62430 0.08590 0.01200
N 	N 	0.77453 0.75758 0.12820 -0.29100
H 	H 	0.97900 0.88530 0.41010 0.01500
C 	C 	0.95260 0.93290 0.43250 -0.15100
C 	C 	0.86890 0.92970 0.36030 -0.15800
H 	H 	0.83760 0.87550 0.28900 0.01800
C 	C 	0.20070 0.73010 0.51720 -0.23500
C 	C 	0.20110 0.74980 0.59480 -0.21100
H 	H 	0.96130 0.54700 0.17770 0.09300
C 	C 	0.89100 0.54870 0.09510 0.13600
H 	H 	0.82110 0.56280 0.02590 0.11600
H 	H 	0.98180 0.94670 0.46930 0.10300
C 	C 	0.91060 0.95140 0.41300 0.11500
H 	H 	0.84090 0.94120 0.34680 0.09000
C 	C 	0.25050 0.73120 0.56850 0.17200
H 	H 	0.18590 0.72130 0.47360 0.11900
H 	H 	0.18540 0.75700 0.60830 0.10800
C 	C 	0.25020 0.74850 0.64300 0.14700
C 	C 	0.88900 0.50780 0.05760 -0.06700
C 	C 	0.91400 0.99080 0.45160 -0.03900
H 	H 	0.26690 0.72260 0.55640 -0.03300
H 	H 	0.26620 0.75230 0.68830 -0.02200
C 	C 	0.86880 0.51860 0.99230 0.14600
C 	C 	0.92080 0.47110 0.09550 -0.05500
C 	C 	0.88590 0.02920 0.41820 -0.11300
C 	C 	0.95040 0.99510 0.52250 0.12700
C 	C 	0.86000 0.48000 0.95450 -0.11800
O 	O 	0.83010 0.54960 0.95870 -0.19600
C 	C 	0.91490 0.43410 0.04600 0.08400
H 	H 	0.94220 0.46830 0.14240 0.05400
C 	C 	0.89540 0.07130 0.46850 0.29700
H 	H 	0.86320 0.03180 0.37120 0.08900
C 	C 	0.94710 0.02650 0.55750 -0.06700
O 	O 	0.98480 0.96150 0.56180 -0.19000
H 	H 	0.83380 0.48180 0.90810 0.07700
C 	C 	0.88840 0.43640 0.98080 -0.03900
C 	C 	0.79170 0.55100 0.88000 -0.09000
O 	O 	0.95180 0.39050 0.09700 -0.18700
C 	C 	0.91090 0.06440 0.52350 -0.17300
O 	O 	0.86260 0.09200 0.42690 -0.27500
H 	H 	0.96860 0.02370 0.60430 0.07200
C 	C 	0.89020 0.39890 0.94470 0.12200
H 	H 	0.80000 0.53060 0.86060 0.05600
H 	H 	0.78530 0.58390 0.86260 0.06900
C 	C 	0.75080 0.53000 0.86910 0.07900
C 	C 	0.98670 0.38840 0.16970 0.04300
C 	C 	0.90800 0.10140 0.55880 0.18200
C 	C 	0.93200 0.38110 0.96870 -0.16700
C 	C 	0.84830 0.38160 0.88350 -0.16500
H 	H 	0.72770 0.52330 0.82090 0.00400
H 	H 	0.76330 0.49820 0.89030 0.01500
C 	C 	0.71810 0.54140 0.88110 -0.43200
H 	H 	0.97510 0.40040 0.18940 0.02100
H 	H 	0.01650 0.40390 0.19050 0.02000
C 	C 	0.98860 0.33020 0.16850 -0.14500
C 	C 	0.94910 0.12430 0.61820 -0.19800
C 	C 	0.86550 0.11280 0.53900 -0.20500
C 	C 	0.93390 0.34970 0.93000 0.09600
H 	H 	0.96010 0.38990 0.01200 0.10400
H 	H 	0.81930 0.39090 0.86820 0.09300
C 	C 	0.84940 0.34990 0.84430 0.09400
H 	H 	0.72510 0.51720 0.91280 0.15700
H 	H 	0.68570 0.53550 0.83850 0.15700
C 	C 	0.71820 0.57960 0.90080 0.25300
H 	H 	0.01510 0.32290 0.21610 0.07500
H 	H 	0.00100 0.32530 0.14810 0.08900
C 	C 	0.94810 0.15670 0.65540 0.10700
H 	H 	0.97830 0.11710 0.63270 0.10900
H 	H 	0.83740 0.09940 0.49950 0.11900
C 	C 	0.86390 0.14430 0.57730 0.12000
H 	H 	0.96310 0.33960 0.94640 0.01500
C 	C 	0.89210 0.33390 0.86740 -0.16600
H 	H 	0.82110 0.33960 0.80230 0.01700
H 	H 	0.69560 0.57930 0.90490 -0.05000
H 	H 	0.74940 0.58610 0.94420 -0.04100
H 	H 	0.70970 0.60450 0.86940 -0.03800
C 	C 	0.90351 0.16576 0.63360 -0.16700
H 	H 	0.97560 0.17200 0.69340 0.01200
H 	H 	0.83490 0.15060 0.56370 0.00500
C 	C 	0.89310 0.30130 0.82540 0.43100
C 	C 	0.90136 0.19898 0.67580 0.41000
Zn	Zn	0.45144 0.24687 0.30460 1.21600
N 	N 	0.52329 0.24136 0.37860 -0.24800
O 	O 	0.43585 0.18387 0.25236 -0.47000
O 	O 	0.44483 0.31128 0.33480 -0.46400
O 	O 	0.43255 0.21225 0.34902 -0.47500
O 	O 	0.43995 0.28401 0.22990 -0.46900
C 	C 	0.54879 0.21790 0.36870 0.07000
C 	C 	0.54870 0.26280 0.43830 0.08200
C 	C 	0.39600 0.17053 0.19940 0.41300
C 	C 	0.40650 0.32854 0.31160 0.40400
H 	H 	0.53240 0.20230 0.32750 0.00900
C 	C 	0.59741 0.21620 0.41650 -0.10800
C 	C 	0.59740 0.26240 0.48810 -0.11800
H 	H 	0.53240 0.27910 0.44700 0.00400
C 	C 	0.39410 0.12560 0.16580 -0.16500
O 	O 	0.35711 0.19154 0.16970 -0.46700
C 	C 	0.40790 0.37190 0.34540 -0.15000
O 	O 	0.36552 0.31153 0.26080 -0.46400
O 	O 	0.35434 0.21099 0.26850 -0.46700
O 	O 	0.36102 0.29266 0.15266 -0.46900
H 	H 	0.61350 0.19910 0.40810 0.07500
C 	C 	0.62236 0.24000 0.47740 0.02700
H 	H 	0.61310 0.27750 0.52930 0.07800
C 	C 	0.43450 0.10120 0.19300 0.09900
C 	C 	0.35150 0.10960 0.10390 0.09600
Zn	Zn	0.34709 0.25320 0.20077 1.21600
C 	C 	0.45130 0.39530 0.39830 0.08500
C 	C 	0.36680 0.38970 0.32530 0.08000
C 	C 	0.67540 0.24100 0.52920 0.15000
H 	H 	0.46330 0.11010 0.23540 0.01000
C 	C 	0.43330 0.06300 0.15820 -0.17900
C 	C 	0.34990 0.07200 0.06800 -0.17800
H 	H 	0.32330 0.12430 0.08590 0.01200
N 	N 	0.27453 0.25758 0.12820 -0.29100
H 	H 	0.47900 0.38530 0.41010 0.01500
C 	C 	0.45260 0.43290 0.43250 -0.15100
C 	C 	0.36890 0.42970 0.36030 -0.15800
H 	H 	0.33760 0.37550 0.28900 0.01800
C 	C 	0.70070 0.23010 0.51720 -0.23500
C 	C 	0.70110 0.24980 0.59480 -0.21100
H 	H 	0.46130 0.04700 0.17770 0.09300
C 	C 	0.39100 0.04870 0.09510 0.13600
H 	H 	0.32110 0.06280 0.02590 0.11600
H 	H 	0.48180 0.44670 0.46930 0.10300
C 	C 	0.41060 0.45140 0.41300 0.11600
H 	H 	0.34090 0.44120 0.34680 0.09000
C 	C 	0.75050 0.23120 0.56850 0.17200
H 	H 	0.68590 0.22130 0.47360 0.12000
H 	H 	0.68540 0.25700 0.60830 0.10800
C 	C 	0.75020 0.24850 0.64300 0.14700
C 	C 	0.38900 0.00780 0.05760 -0.06700
C 	C 	0.41400 0.49080 0.45160 -0.03900
H 	H 	0.76690 0.22260 0.55640 -0.03300
H 	H 	0.76620 0.25230 0.68830 -0.02200
C 	C 	0.36880 0.01860 0.99230 0.14600
C 	C 	0.42080 0.97110 0.09550 -0.05500
C 	C 	0.38590 0.52920 0.41820 -0.11300
C 	C 	0.45040 0.49510 0.52250 0.12700
C 	C 	0.36000 0.98000 0.95450 -0.11900
O 	O 	0.33010 0.04960 0.95870 -0.19600
C 	C 	0.41490 0.93410 0.04600 0.08300
H 	H 	0.44220 0.96830 0.14240 0.05300
C 	C 	0.39540 0.57130 0.46850 0.29700
H 	H 	0.36320 0.53180 0.37120 0.08900
C 	C 	0.44710 0.52650 0.55750 -0.06700
O 	O 	0.48480 0.46150 0.56180 -0.19000
H 	H 	0.33380 0.98180 0.90810 0.07700
C 	C 	0.38840 0.93640 0.98080 -0.03800
C 	C 	0.29170 0.05100 0.88000 -0.09000
O 	O 	0.45180 0.89050 0.09700 -0.18700
C 	C 	0.41090 0.56440 0.52350 -0.17300
O 	O 	0.36260 0.59200 0.42690 -0.27500
H 	H 	0.46860 0.52370 0.60430 0.07200
C 	C 	0.39020 0.89890 0.94470 0.12100
H 	H 	0.30000 0.03060 0.86060 0.05600
H 	H 	0.28530 0.08390 0.86260 0.06900
C 	C 	0.25080 0.03000 0.86910 0.07900
C 	C 	0.48670 0.88840 0.16970 0.04200
C 	C 	0.40800 0.60140 0.55880 0.18200
C 	C 	0.43200 0.88110 0.96870 -0.16500
C 	C 	0.34830 0.88160 0.88350 -0.16400
H 	H 	0.22770 0.02330 0.82090 0.00400
H 	H 	0.26330 0.99820 0.89030 0.01500
C 	C 	0.21810 0.04140 0.88110 -0.43200
H 	H 	0.47510 0.90040 0.18940 0.02100
H 	H 	0.51650 0.90390 0.19050 0.02000
C 	C 	0.48860 0.83020 0.16850 -0.14500
C 	C 	0.44910 0.62430 0.61820 -0.19800
C 	C 	0.36550 0.61280 0.53900 -0.20500
C 	C 	0.43390 0.84970 0.93000 0.09500
H 	H 	0.46010 0.88990 0.01200 0.10300
H 	H 	0.31930 0.89090 0.86820 0.09300
C 	C 	0.34940 0.84990 0.84430 0.09300
H 	H 	0.22510 0.01720 0.91280 0.15700
H 	H 	0.18570 0.03550 0.83850 0.15700
C 	C 	0.21820 0.07960 0.90080 0.25300
H 	H 	0.51510 0.82290 0.21610 0.07600
H 	H 	0.50100 0.82530 0.14810 0.09000
C 	C 	0.44810 0.65670 0.65540 0.10700
H 	H 	0.47830 0.61710 0.63270 0.10900
H 	H 	0.33740 0.59940 0.49950 0.11900
C 	C 	0.36390 0.64430 0.57730 0.12000
H 	H 	0.46310 0.83960 0.94640 0.01500
C 	C 	0.39210 0.83390 0.86740 -0.16600
H 	H 	0.32110 0.83960 0.80230 0.01700
H 	H 	0.19560 0.07930 0.90490 -0.05000
H 	H 	0.24940 0.08610 0.94420 -0.04100
H 	H 	0.20970 0.10450 0.86940 -0.03800
C 	C 	0.40351 0.66576 0.63360 -0.16700
H 	H 	0.47560 0.67200 0.69340 0.01200
H 	H 	0.33490 0.65060 0.56370 0.00600
C 	C 	0.39310 0.80130 0.82540 0.43100
C 	C 	0.40136 0.69898 0.67580 0.41000
