data_crystal

_cell_length_a 28.06820
_cell_length_b 27.11470
_cell_length_c 28.06030
_cell_angle_alpha 90.00000
_cell_angle_beta  98.55800
_cell_angle_gamma 90.00000

_symmetry_space_group_name_	'P 1'
_symmetry_space_group_name_H-M	'P 1'

loop_
_symmetry_equiv_pos_as_xyz
  x,y,z

loop_
_atom_site_label
_atom_site_type_symbol
_atom_site_fract_x
_atom_site_fract_y
_atom_site_fract_z
_atom_site_charge
C 	C 	0.04650 0.42039 0.13640 0.40100
C 	C 	0.00790 0.38063 0.13873 -0.13600
C 	C 	0.98330 0.36180 0.09686 0.07100
H 	H 	0.99120 0.37180 0.06730 0.01900
C 	C 	0.94720 0.32830 0.09890 -0.15200
H 	H 	0.92920 0.31720 0.07040 0.08600
C 	C 	0.93690 0.31050 0.14310 0.10300
C 	C 	0.96210 0.32890 0.18500 -0.15000
H 	H 	0.95460 0.31820 0.21450 0.09800
C 	C 	0.99830 0.36280 0.18385 0.06800
H 	H 	0.01620 0.37390 0.21230 0.02200
C 	C 	0.89850 0.27440 0.14410 -0.02700
C 	C 	0.89340 0.23520 0.11350 -0.12400
H 	H 	0.91460 0.23220 0.09120 0.07800
C 	C 	0.85880 0.20050 0.11380 0.13900
C 	C 	0.82420 0.20240 0.14290 -0.06500
C 	C 	0.82750 0.24320 0.17350 -0.09100
H 	H 	0.80420 0.24730 0.19360 0.06100
C 	C 	0.86360 0.27760 0.17540 0.10800
C 	C 	0.72110 0.11440 0.10240 0.13200
H 	H 	0.70230 0.10470 0.07380 0.00200
C 	C 	0.75750 0.14790 0.10170 -0.20100
H 	H 	0.76390 0.15980 0.07230 0.11400
C 	C 	0.78490 0.16430 0.14330 0.15200
C 	C 	0.77560 0.14380 0.18610 -0.21600
H 	H 	0.79390 0.15380 0.21480 0.10600
C 	C 	0.74150 0.11070 0.18740 0.13700
H 	H 	0.73660 0.09730 0.21690 -0.00500
C 	C 	0.71270 0.09540 0.14530 -0.19100
C 	C 	0.67380 0.05794 0.14775 0.43400
C 	C 	0.88980 0.15790 0.04220 -0.27200
H 	H 	0.88430 0.12770 0.02420 0.12300
H 	H 	0.92290 0.15950 0.05670 0.11800
H 	H 	0.88240 0.18540 0.02090 0.11500
C 	C 	0.83170 0.32090 0.23680 -0.22800
H 	H 	0.83620 0.34980 0.25660 0.11400
H 	H 	0.83500 0.29200 0.25690 0.10200
H 	H 	0.80010 0.32140 0.21820 0.10100
C 	C 	0.04250 0.55533 0.13480 0.41500
C 	C 	0.00470 0.59210 0.13570 -0.15700
C 	C 	0.99630 0.61230 0.17899 0.07500
H 	H 	0.01540 0.60230 0.20730 0.02200
C 	C 	0.96000 0.64730 0.18200 -0.13700
H 	H 	0.95370 0.65810 0.21180 0.09200
C 	C 	0.93330 0.66610 0.13930 0.07800
C 	C 	0.94310 0.64580 0.09540 -0.14500
H 	H 	0.92510 0.65620 0.06660 0.08300
C 	C 	0.97860 0.61130 0.09420 0.08200
H 	H 	0.98540 0.60040 0.06450 0.01900
C 	C 	0.89790 0.70620 0.14070 0.00900
C 	C 	0.89210 0.74100 0.11240 -0.13900
H 	H 	0.91330 0.74370 0.09000 0.09300
C 	C 	0.85630 0.77670 0.11140 0.14100
C 	C 	0.82780 0.78220 0.14190 -0.10400
C 	C 	0.83140 0.74600 0.17220 -0.04200
H 	H 	0.81070 0.74650 0.19520 0.04500
C 	C 	0.86420 0.70490 0.17410 0.06200
C 	C 	0.74440 0.87250 0.18570 0.13500
H 	H 	0.73800 0.88480 0.21500 -0.00600
C 	C 	0.78020 0.83880 0.18470 -0.21900
H 	H 	0.79840 0.82930 0.21370 0.10700
C 	C 	0.79050 0.81790 0.14240 0.17900
C 	C 	0.76590 0.83570 0.10120 -0.22000
H 	H 	0.77400 0.82520 0.07180 0.12200
C 	C 	0.72910 0.86910 0.10140 0.13800
H 	H 	0.71130 0.87890 0.07230 -0.00200
C 	C 	0.71800 0.88820 0.14360 -0.19000
C 	C 	0.67740 0.92470 0.14370 0.41600
C 	C 	0.83060 0.66790 0.24240 -0.24000
H 	H 	0.83300 0.63950 0.26300 0.12000
H 	H 	0.79840 0.67050 0.22540 0.10600
H 	H 	0.83820 0.69700 0.26150 0.10700
C 	C 	0.13340 0.53090 0.49532 0.09400
H 	H 	0.15580 0.55000 0.51490 -0.00400
C 	C 	0.13640 0.52860 0.44780 -0.12600
H 	H 	0.16090 0.54600 0.43630 0.07500
C 	C 	0.10570 0.50229 0.41630 0.02400
C 	C 	0.07120 0.48190 0.43720 -0.12400
H 	H 	0.04720 0.46420 0.41800 0.08200
C 	C 	0.06880 0.48570 0.48681 0.09800
H 	H 	0.04300 0.47160 0.49910 -0.00500
C 	C 	0.10070 0.45580 0.29100 0.15300
H 	H 	0.09270 0.42610 0.27520 -0.01900
C 	C 	0.09800 0.45930 0.34012 -0.25200
H 	H 	0.08920 0.43150 0.35620 0.12600
C 	C 	0.10715 0.49853 0.36341 0.18400
C 	C 	0.12220 0.53640 0.33905 -0.28800
H 	H 	0.13300 0.56590 0.35390 0.14000
C 	C 	0.12050 0.52880 0.29150 0.23900
H 	H 	0.12550 0.55730 0.27460 -0.04900
N 	N 	0.10110 0.50798 0.51491 -0.26000
N 	N 	0.11400 0.49306 0.26639 -0.31200
O 	O 	0.05305 0.43641 0.09746 -0.47300
O 	O 	0.06792 0.43481 0.17780 -0.45900
O 	O 	0.65308 0.04315 0.10785 -0.47700
O 	O 	0.66634 0.04469 0.18807 -0.46900
O 	O 	0.85670 0.15930 0.08250 -0.16500
O 	O 	0.86700 0.31980 0.20530 -0.16200
O 	O 	0.06386 0.53973 0.17411 -0.47600
O 	O 	0.05055 0.54085 0.09394 -0.46100
O 	O 	0.66995 0.94010 0.18502 -0.45900
O 	O 	0.65593 0.93912 0.10451 -0.47500
O 	O 	0.86840 0.82490 0.07990 -0.17100
O 	O 	0.86320 0.66320 0.20910 -0.14600
Zn	Zn	0.10206 0.48991 0.08817 1.21600
Zn	Zn	0.11733 0.48979 0.19445 1.21600
C 	C 	0.54650 0.92039 0.13640 0.40000
C 	C 	0.50790 0.88063 0.13873 -0.13800
C 	C 	0.48330 0.86180 0.09686 0.07000
H 	H 	0.49120 0.87180 0.06730 0.01800
C 	C 	0.44720 0.82830 0.09890 -0.15400
H 	H 	0.42920 0.81720 0.07040 0.08500
C 	C 	0.43690 0.81050 0.14310 0.10300
C 	C 	0.46210 0.82890 0.18500 -0.15100
H 	H 	0.45460 0.81820 0.21450 0.09700
C 	C 	0.49830 0.86280 0.18385 0.06900
H 	H 	0.51620 0.87390 0.21230 0.02100
C 	C 	0.39850 0.77440 0.14410 -0.02700
C 	C 	0.39340 0.73520 0.11350 -0.12400
H 	H 	0.41460 0.73220 0.09120 0.07800
C 	C 	0.35880 0.70050 0.11380 0.13900
C 	C 	0.32420 0.70240 0.14290 -0.06500
C 	C 	0.32750 0.74320 0.17350 -0.09100
H 	H 	0.30420 0.74730 0.19360 0.06100
C 	C 	0.36360 0.77760 0.17540 0.10800
C 	C 	0.22110 0.61440 0.10240 0.13200
H 	H 	0.20230 0.60470 0.07380 0.00200
C 	C 	0.25750 0.64790 0.10170 -0.20100
H 	H 	0.26390 0.65980 0.07230 0.11400
C 	C 	0.28490 0.66430 0.14330 0.15200
C 	C 	0.27560 0.64380 0.18610 -0.21600
H 	H 	0.29390 0.65380 0.21480 0.10600
C 	C 	0.24150 0.61070 0.18740 0.13700
H 	H 	0.23660 0.59730 0.21690 -0.00600
C 	C 	0.21270 0.59540 0.14530 -0.19100
C 	C 	0.17380 0.55794 0.14775 0.43400
C 	C 	0.38980 0.65790 0.04220 -0.27100
H 	H 	0.38430 0.62770 0.02420 0.12200
H 	H 	0.42290 0.65950 0.05670 0.11800
H 	H 	0.38240 0.68540 0.02090 0.11500
C 	C 	0.33170 0.82090 0.23680 -0.22800
H 	H 	0.33620 0.84980 0.25660 0.11400
H 	H 	0.33500 0.79200 0.25690 0.10200
H 	H 	0.30010 0.82140 0.21820 0.10100
C 	C 	0.54250 0.05533 0.13480 0.41600
C 	C 	0.50470 0.09210 0.13570 -0.15800
C 	C 	0.49630 0.11230 0.17899 0.07600
H 	H 	0.51540 0.10230 0.20730 0.02100
C 	C 	0.46000 0.14730 0.18200 -0.13700
H 	H 	0.45370 0.15810 0.21180 0.09200
C 	C 	0.43330 0.16610 0.13930 0.07900
C 	C 	0.44310 0.14580 0.09540 -0.14500
H 	H 	0.42510 0.15620 0.06660 0.08300
C 	C 	0.47860 0.11130 0.09420 0.08300
H 	H 	0.48540 0.10040 0.06450 0.01900
C 	C 	0.39790 0.20620 0.14070 0.00800
C 	C 	0.39210 0.24100 0.11240 -0.13900
H 	H 	0.41330 0.24370 0.09000 0.09300
C 	C 	0.35630 0.27670 0.11140 0.14100
C 	C 	0.32780 0.28220 0.14190 -0.10400
C 	C 	0.33140 0.24600 0.17220 -0.04200
H 	H 	0.31070 0.24650 0.19520 0.04500
C 	C 	0.36420 0.20490 0.17410 0.06200
C 	C 	0.24440 0.37250 0.18570 0.13500
H 	H 	0.23800 0.38480 0.21500 -0.00600
C 	C 	0.28020 0.33880 0.18470 -0.21900
H 	H 	0.29840 0.32930 0.21370 0.10700
C 	C 	0.29050 0.31790 0.14240 0.17900
C 	C 	0.26590 0.33570 0.10120 -0.22000
H 	H 	0.27400 0.32520 0.07180 0.12200
C 	C 	0.22910 0.36910 0.10140 0.13800
H 	H 	0.21130 0.37890 0.07230 -0.00100
C 	C 	0.21800 0.38820 0.14360 -0.19000
C 	C 	0.17740 0.42470 0.14370 0.41600
C 	C 	0.33060 0.16790 0.24240 -0.24100
H 	H 	0.33300 0.13950 0.26300 0.12000
H 	H 	0.29840 0.17050 0.22540 0.10600
H 	H 	0.33820 0.19700 0.26150 0.10700
C 	C 	0.63340 0.03090 0.49532 0.09500
H 	H 	0.65580 0.05000 0.51490 -0.00400
C 	C 	0.63640 0.02860 0.44780 -0.12700
H 	H 	0.66090 0.04600 0.43630 0.07500
C 	C 	0.60570 0.00229 0.41630 0.02500
C 	C 	0.57120 0.98190 0.43720 -0.12500
H 	H 	0.54720 0.96420 0.41800 0.08200
C 	C 	0.56880 0.98570 0.48681 0.09900
H 	H 	0.54300 0.97160 0.49910 -0.00500
C 	C 	0.60070 0.95580 0.29100 0.15300
H 	H 	0.59270 0.92610 0.27520 -0.01900
C 	C 	0.59800 0.95930 0.34012 -0.25100
H 	H 	0.58920 0.93150 0.35620 0.12600
C 	C 	0.60715 0.99853 0.36341 0.18300
C 	C 	0.62220 0.03640 0.33905 -0.28700
H 	H 	0.63300 0.06590 0.35390 0.14000
C 	C 	0.62050 0.02880 0.29150 0.24000
H 	H 	0.62550 0.05730 0.27460 -0.04900
N 	N 	0.60110 0.00798 0.51491 -0.26000
N 	N 	0.61400 0.99306 0.26639 -0.31200
O 	O 	0.55305 0.93641 0.09746 -0.47300
O 	O 	0.56792 0.93481 0.17780 -0.45900
O 	O 	0.15308 0.54315 0.10785 -0.47800
O 	O 	0.16634 0.54469 0.18807 -0.46900
O 	O 	0.35670 0.65930 0.08250 -0.16500
O 	O 	0.36700 0.81980 0.20530 -0.16200
O 	O 	0.56386 0.03973 0.17411 -0.47600
O 	O 	0.55055 0.04085 0.09394 -0.46000
O 	O 	0.16995 0.44010 0.18502 -0.45900
O 	O 	0.15593 0.43912 0.10451 -0.47500
O 	O 	0.36840 0.32490 0.07990 -0.17100
O 	O 	0.36320 0.16320 0.20910 -0.14600
Zn	Zn	0.60206 0.98991 0.08817 1.21600
Zn	Zn	0.61733 0.98979 0.19445 1.21600
C 	C 	0.04650 0.57961 0.63640 0.40000
C 	C 	0.00790 0.61937 0.63873 -0.13800
C 	C 	0.98330 0.63820 0.59686 0.07100
H 	H 	0.99120 0.62820 0.56730 0.01800
C 	C 	0.94720 0.67170 0.59890 -0.15400
H 	H 	0.92920 0.68280 0.57040 0.08500
C 	C 	0.93690 0.68950 0.64310 0.10300
C 	C 	0.96210 0.67110 0.68500 -0.15200
H 	H 	0.95460 0.68180 0.71450 0.09700
C 	C 	0.99830 0.63720 0.68385 0.06900
H 	H 	0.01620 0.62610 0.71230 0.02100
C 	C 	0.89850 0.72560 0.64410 -0.02700
C 	C 	0.89340 0.76480 0.61350 -0.12400
H 	H 	0.91460 0.76780 0.59120 0.07800
C 	C 	0.85880 0.79950 0.61380 0.13900
C 	C 	0.82420 0.79760 0.64290 -0.06500
C 	C 	0.82750 0.75680 0.67350 -0.09100
H 	H 	0.80420 0.75270 0.69360 0.06100
C 	C 	0.86360 0.72240 0.67540 0.10800
C 	C 	0.72110 0.88560 0.60240 0.13200
H 	H 	0.70230 0.89530 0.57380 0.00200
C 	C 	0.75750 0.85210 0.60170 -0.20100
H 	H 	0.76390 0.84020 0.57230 0.11400
C 	C 	0.78490 0.83570 0.64330 0.15200
C 	C 	0.77560 0.85620 0.68610 -0.21600
H 	H 	0.79390 0.84620 0.71480 0.10600
C 	C 	0.74150 0.88930 0.68740 0.13700
H 	H 	0.73660 0.90270 0.71690 -0.00500
C 	C 	0.71270 0.90460 0.64530 -0.19100
C 	C 	0.67380 0.94206 0.64775 0.43400
C 	C 	0.88980 0.84210 0.54220 -0.27200
H 	H 	0.88430 0.87230 0.52420 0.12300
H 	H 	0.92290 0.84050 0.55670 0.11800
H 	H 	0.88240 0.81460 0.52090 0.11500
C 	C 	0.83170 0.67910 0.73680 -0.22800
H 	H 	0.83620 0.65020 0.75660 0.11400
H 	H 	0.83500 0.70800 0.75690 0.10200
H 	H 	0.80010 0.67860 0.71820 0.10100
C 	C 	0.04250 0.44467 0.63480 0.41600
C 	C 	0.00470 0.40790 0.63570 -0.15900
C 	C 	0.99630 0.38770 0.67899 0.07700
H 	H 	0.01540 0.39770 0.70730 0.02100
C 	C 	0.96000 0.35270 0.68200 -0.13800
H 	H 	0.95370 0.34190 0.71180 0.09300
C 	C 	0.93330 0.33390 0.63930 0.07900
C 	C 	0.94310 0.35420 0.59540 -0.14600
H 	H 	0.92510 0.34380 0.56660 0.08300
C 	C 	0.97860 0.38870 0.59420 0.08400
H 	H 	0.98540 0.39960 0.56450 0.01900
C 	C 	0.89790 0.29380 0.64070 0.00800
C 	C 	0.89210 0.25900 0.61240 -0.13900
H 	H 	0.91330 0.25630 0.59000 0.09300
C 	C 	0.85630 0.22330 0.61140 0.14100
C 	C 	0.82780 0.21780 0.64190 -0.10400
C 	C 	0.83140 0.25400 0.67220 -0.04200
H 	H 	0.81070 0.25350 0.69520 0.04500
C 	C 	0.86420 0.29510 0.67410 0.06200
C 	C 	0.74440 0.12750 0.68570 0.13500
H 	H 	0.73800 0.11520 0.71500 -0.00600
C 	C 	0.78020 0.16120 0.68470 -0.21900
H 	H 	0.79840 0.17070 0.71370 0.10700
C 	C 	0.79050 0.18210 0.64240 0.17900
C 	C 	0.76590 0.16430 0.60120 -0.22000
H 	H 	0.77400 0.17480 0.57180 0.12200
C 	C 	0.72910 0.13090 0.60140 0.13800
H 	H 	0.71130 0.12110 0.57230 -0.00100
C 	C 	0.71800 0.11180 0.64360 -0.18900
C 	C 	0.67740 0.07530 0.64370 0.41600
C 	C 	0.83060 0.33210 0.74240 -0.24000
H 	H 	0.83300 0.36050 0.76300 0.12000
H 	H 	0.79840 0.32950 0.72540 0.10600
H 	H 	0.83820 0.30300 0.76150 0.10700
C 	C 	0.13340 0.46910 0.99532 0.09300
H 	H 	0.15580 0.45000 0.01490 -0.00300
C 	C 	0.13640 0.47140 0.94780 -0.12500
H 	H 	0.16090 0.45400 0.93630 0.07400
C 	C 	0.10570 0.49771 0.91630 0.02300
C 	C 	0.07120 0.51810 0.93720 -0.12300
H 	H 	0.04720 0.53580 0.91800 0.08200
C 	C 	0.06880 0.51430 0.98681 0.09800
H 	H 	0.04300 0.52840 0.99910 -0.00500
C 	C 	0.10070 0.54420 0.79100 0.15400
H 	H 	0.09270 0.57390 0.77520 -0.01900
C 	C 	0.09800 0.54070 0.84012 -0.25200
H 	H 	0.08920 0.56850 0.85620 0.12600
C 	C 	0.10715 0.50147 0.86341 0.18400
C 	C 	0.12220 0.46360 0.83905 -0.28800
H 	H 	0.13300 0.43410 0.85390 0.14000
C 	C 	0.12050 0.47120 0.79150 0.23900
H 	H 	0.12550 0.44270 0.77460 -0.04900
N 	N 	0.10110 0.49202 0.01491 -0.25900
N 	N 	0.11400 0.50694 0.76639 -0.31200
O 	O 	0.05305 0.56359 0.59746 -0.47300
O 	O 	0.06792 0.56519 0.67780 -0.45900
O 	O 	0.65308 0.95685 0.60785 -0.47700
O 	O 	0.66634 0.95531 0.68807 -0.46900
O 	O 	0.85670 0.84070 0.58250 -0.16500
O 	O 	0.86700 0.68020 0.70530 -0.16200
O 	O 	0.06386 0.46027 0.67411 -0.47600
O 	O 	0.05055 0.45915 0.59394 -0.46100
O 	O 	0.66995 0.05990 0.68502 -0.45900
O 	O 	0.65593 0.06088 0.60451 -0.47500
O 	O 	0.86840 0.17510 0.57990 -0.17100
O 	O 	0.86320 0.33680 0.70910 -0.14600
Zn	Zn	0.10206 0.51009 0.58817 1.21600
Zn	Zn	0.11733 0.51021 0.69445 1.21600
C 	C 	0.54650 0.07961 0.63640 0.40000
C 	C 	0.50790 0.11937 0.63873 -0.13800
C 	C 	0.48330 0.13820 0.59686 0.07100
H 	H 	0.49120 0.12820 0.56730 0.01800
C 	C 	0.44720 0.17170 0.59890 -0.15400
H 	H 	0.42920 0.18280 0.57040 0.08500
C 	C 	0.43690 0.18950 0.64310 0.10300
C 	C 	0.46210 0.17110 0.68500 -0.15100
H 	H 	0.45460 0.18180 0.71450 0.09700
C 	C 	0.49830 0.13720 0.68385 0.06900
H 	H 	0.51620 0.12610 0.71230 0.02100
C 	C 	0.39850 0.22560 0.64410 -0.02700
C 	C 	0.39340 0.26480 0.61350 -0.12400
H 	H 	0.41460 0.26780 0.59120 0.07800
C 	C 	0.35880 0.29950 0.61380 0.13900
C 	C 	0.32420 0.29760 0.64290 -0.06500
C 	C 	0.32750 0.25680 0.67350 -0.09100
H 	H 	0.30420 0.25270 0.69360 0.06100
C 	C 	0.36360 0.22240 0.67540 0.10800
C 	C 	0.22110 0.38560 0.60240 0.13200
H 	H 	0.20230 0.39530 0.57380 0.00200
C 	C 	0.25750 0.35210 0.60170 -0.20100
H 	H 	0.26390 0.34020 0.57230 0.11400
C 	C 	0.28490 0.33570 0.64330 0.15200
C 	C 	0.27560 0.35620 0.68610 -0.21600
H 	H 	0.29390 0.34620 0.71480 0.10600
C 	C 	0.24150 0.38930 0.68740 0.13700
H 	H 	0.23660 0.40270 0.71690 -0.00600
C 	C 	0.21270 0.40460 0.64530 -0.19100
C 	C 	0.17380 0.44206 0.64775 0.43400
C 	C 	0.38980 0.34210 0.54220 -0.27200
H 	H 	0.38430 0.37230 0.52420 0.12200
H 	H 	0.42290 0.34050 0.55670 0.11800
H 	H 	0.38240 0.31460 0.52090 0.11500
C 	C 	0.33170 0.17910 0.73680 -0.22800
H 	H 	0.33620 0.15020 0.75660 0.11400
H 	H 	0.33500 0.20800 0.75690 0.10200
H 	H 	0.30010 0.17860 0.71820 0.10100
C 	C 	0.54250 0.94467 0.63480 0.41600
C 	C 	0.50470 0.90790 0.63570 -0.15800
C 	C 	0.49630 0.88770 0.67899 0.07600
H 	H 	0.51540 0.89770 0.70730 0.02100
C 	C 	0.46000 0.85270 0.68200 -0.13700
H 	H 	0.45370 0.84190 0.71180 0.09200
C 	C 	0.43330 0.83390 0.63930 0.07900
C 	C 	0.44310 0.85420 0.59540 -0.14500
H 	H 	0.42510 0.84380 0.56660 0.08300
C 	C 	0.47860 0.88870 0.59420 0.08300
H 	H 	0.48540 0.89960 0.56450 0.01900
C 	C 	0.39790 0.79380 0.64070 0.00800
C 	C 	0.39210 0.75900 0.61240 -0.13900
H 	H 	0.41330 0.75630 0.59000 0.09300
C 	C 	0.35630 0.72330 0.61140 0.14100
C 	C 	0.32780 0.71780 0.64190 -0.10400
C 	C 	0.33140 0.75400 0.67220 -0.04200
H 	H 	0.31070 0.75350 0.69520 0.04500
C 	C 	0.36420 0.79510 0.67410 0.06200
C 	C 	0.24440 0.62750 0.68570 0.13500
H 	H 	0.23800 0.61520 0.71500 -0.00600
C 	C 	0.28020 0.66120 0.68470 -0.21900
H 	H 	0.29840 0.67070 0.71370 0.10700
C 	C 	0.29050 0.68210 0.64240 0.17900
C 	C 	0.26590 0.66430 0.60120 -0.22000
H 	H 	0.27400 0.67480 0.57180 0.12200
C 	C 	0.22910 0.63090 0.60140 0.13800
H 	H 	0.21130 0.62110 0.57230 -0.00100
C 	C 	0.21800 0.61180 0.64360 -0.19000
C 	C 	0.17740 0.57530 0.64370 0.41600
C 	C 	0.33060 0.83210 0.74240 -0.24100
H 	H 	0.33300 0.86050 0.76300 0.12000
H 	H 	0.29840 0.82950 0.72540 0.10600
H 	H 	0.33820 0.80300 0.76150 0.10700
C 	C 	0.63340 0.96910 0.99532 0.10100
H 	H 	0.65580 0.95000 0.01490 -0.00700
C 	C 	0.63640 0.97140 0.94780 -0.13300
H 	H 	0.66090 0.95400 0.93630 0.07800
C 	C 	0.60570 0.99771 0.91630 0.03200
C 	C 	0.57120 0.01810 0.93720 -0.13000
H 	H 	0.54720 0.03580 0.91800 0.08400
C 	C 	0.56880 0.01430 0.98681 0.10200
H 	H 	0.54300 0.02840 0.99910 -0.00700
C 	C 	0.60070 0.04420 0.79100 0.15000
H 	H 	0.59270 0.07390 0.77520 -0.01800
C 	C 	0.59800 0.04070 0.84012 -0.24600
H 	H 	0.58920 0.06850 0.85620 0.12400
C 	C 	0.60715 0.00147 0.86341 0.17700
C 	C 	0.62220 0.96360 0.83905 -0.28200
H 	H 	0.63300 0.93410 0.85390 0.13800
C 	C 	0.62050 0.97120 0.79150 0.23700
H 	H 	0.62550 0.94270 0.77460 -0.04800
N 	N 	0.60110 0.99202 0.01491 -0.26200
N 	N 	0.61400 0.00694 0.76639 -0.31100
O 	O 	0.55305 0.06359 0.59746 -0.47300
O 	O 	0.56792 0.06519 0.67780 -0.45900
O 	O 	0.15308 0.45685 0.60785 -0.47800
O 	O 	0.16634 0.45531 0.68807 -0.46900
O 	O 	0.35670 0.34070 0.58250 -0.16500
O 	O 	0.36700 0.18020 0.70530 -0.16200
O 	O 	0.56386 0.96027 0.67411 -0.47600
O 	O 	0.55055 0.95915 0.59394 -0.46100
O 	O 	0.16995 0.55990 0.68502 -0.45900
O 	O 	0.15593 0.56088 0.60451 -0.47500
O 	O 	0.36840 0.67510 0.57990 -0.17100
O 	O 	0.36320 0.83680 0.70910 -0.14600
Zn	Zn	0.60206 0.01009 0.58817 1.21600
Zn	Zn	0.61733 0.01021 0.69445 1.21600
C 	C 	0.95350 0.42039 0.36360 0.40000
C 	C 	0.99210 0.38063 0.36127 -0.13800
C 	C 	0.01670 0.36180 0.40314 0.07100
H 	H 	0.00880 0.37180 0.43270 0.01800
C 	C 	0.05280 0.32830 0.40110 -0.15400
H 	H 	0.07080 0.31720 0.42960 0.08500
C 	C 	0.06310 0.31050 0.35690 0.10300
C 	C 	0.03790 0.32890 0.31500 -0.15200
H 	H 	0.04540 0.31820 0.28550 0.09700
C 	C 	0.00170 0.36280 0.31615 0.06900
H 	H 	0.98380 0.37390 0.28770 0.02100
C 	C 	0.10150 0.27440 0.35590 -0.02700
C 	C 	0.10660 0.23520 0.38650 -0.12400
H 	H 	0.08540 0.23220 0.40880 0.07800
C 	C 	0.14120 0.20050 0.38620 0.13900
C 	C 	0.17580 0.20240 0.35710 -0.06500
C 	C 	0.17250 0.24320 0.32650 -0.09100
H 	H 	0.19580 0.24730 0.30640 0.06100
C 	C 	0.13640 0.27760 0.32460 0.10800
C 	C 	0.27890 0.11440 0.39760 0.13200
H 	H 	0.29770 0.10470 0.42620 0.00200
C 	C 	0.24250 0.14790 0.39830 -0.20100
H 	H 	0.23610 0.15980 0.42770 0.11400
C 	C 	0.21510 0.16430 0.35670 0.15200
C 	C 	0.22440 0.14380 0.31390 -0.21600
H 	H 	0.20610 0.15380 0.28520 0.10600
C 	C 	0.25850 0.11070 0.31260 0.13700
H 	H 	0.26340 0.09730 0.28310 -0.00500
C 	C 	0.28730 0.09540 0.35470 -0.19100
C 	C 	0.32620 0.05794 0.35225 0.43400
C 	C 	0.11020 0.15790 0.45780 -0.27200
H 	H 	0.11570 0.12770 0.47580 0.12300
H 	H 	0.07710 0.15950 0.44330 0.11800
H 	H 	0.11760 0.18540 0.47910 0.11500
C 	C 	0.16830 0.32090 0.26320 -0.22800
H 	H 	0.16380 0.34980 0.24340 0.11400
H 	H 	0.16500 0.29200 0.24310 0.10200
H 	H 	0.19990 0.32140 0.28180 0.10100
C 	C 	0.95750 0.55533 0.36520 0.41600
C 	C 	0.99530 0.59210 0.36430 -0.15900
C 	C 	0.00370 0.61230 0.32101 0.07700
H 	H 	0.98460 0.60230 0.29270 0.02100
C 	C 	0.04000 0.64730 0.31800 -0.13800
H 	H 	0.04630 0.65810 0.28820 0.09300
C 	C 	0.06670 0.66610 0.36070 0.07900
C 	C 	0.05690 0.64580 0.40460 -0.14600
H 	H 	0.07490 0.65620 0.43340 0.08300
C 	C 	0.02140 0.61130 0.40580 0.08400
H 	H 	0.01460 0.60040 0.43550 0.01900
C 	C 	0.10210 0.70620 0.35930 0.00800
C 	C 	0.10790 0.74100 0.38760 -0.13900
H 	H 	0.08670 0.74370 0.41000 0.09300
C 	C 	0.14370 0.77670 0.38860 0.14100
C 	C 	0.17220 0.78220 0.35810 -0.10400
C 	C 	0.16860 0.74600 0.32780 -0.04200
H 	H 	0.18930 0.74650 0.30480 0.04500
C 	C 	0.13580 0.70490 0.32590 0.06200
C 	C 	0.25560 0.87250 0.31430 0.13500
H 	H 	0.26200 0.88480 0.28500 -0.00600
C 	C 	0.21980 0.83880 0.31530 -0.21900
H 	H 	0.20160 0.82930 0.28630 0.10700
C 	C 	0.20950 0.81790 0.35760 0.17900
C 	C 	0.23410 0.83570 0.39880 -0.22000
H 	H 	0.22600 0.82520 0.42820 0.12200
C 	C 	0.27090 0.86910 0.39860 0.13800
H 	H 	0.28870 0.87890 0.42770 -0.00100
C 	C 	0.28200 0.88820 0.35640 -0.18900
C 	C 	0.32260 0.92470 0.35630 0.41600
C 	C 	0.16940 0.66790 0.25760 -0.24000
H 	H 	0.16700 0.63950 0.23700 0.12000
H 	H 	0.20160 0.67050 0.27460 0.10600
H 	H 	0.16180 0.69700 0.23850 0.10700
C 	C 	0.86660 0.53090 0.00468 0.09300
H 	H 	0.84420 0.55000 0.98510 -0.00300
C 	C 	0.86360 0.52860 0.05220 -0.12500
H 	H 	0.83910 0.54600 0.06370 0.07400
C 	C 	0.89430 0.50229 0.08370 0.02300
C 	C 	0.92880 0.48190 0.06280 -0.12300
H 	H 	0.95280 0.46420 0.08200 0.08200
C 	C 	0.93120 0.48570 0.01319 0.09800
H 	H 	0.95700 0.47160 0.00090 -0.00500
C 	C 	0.89930 0.45580 0.20900 0.15400
H 	H 	0.90730 0.42610 0.22480 -0.01900
C 	C 	0.90200 0.45930 0.15988 -0.25200
H 	H 	0.91080 0.43150 0.14380 0.12600
C 	C 	0.89285 0.49853 0.13659 0.18400
C 	C 	0.87780 0.53640 0.16095 -0.28800
H 	H 	0.86700 0.56590 0.14610 0.14000
C 	C 	0.87950 0.52880 0.20850 0.23900
H 	H 	0.87450 0.55730 0.22540 -0.04900
N 	N 	0.89890 0.50798 0.98509 -0.25900
N 	N 	0.88600 0.49306 0.23361 -0.31200
O 	O 	0.94695 0.43641 0.40254 -0.47300
O 	O 	0.93208 0.43481 0.32220 -0.45900
O 	O 	0.34692 0.04315 0.39215 -0.47700
O 	O 	0.33366 0.04469 0.31193 -0.46900
O 	O 	0.14330 0.15930 0.41750 -0.16500
O 	O 	0.13300 0.31980 0.29470 -0.16200
O 	O 	0.93614 0.53973 0.32589 -0.47600
O 	O 	0.94945 0.54085 0.40606 -0.46100
O 	O 	0.33005 0.94010 0.31498 -0.45900
O 	O 	0.34407 0.93912 0.39549 -0.47500
O 	O 	0.13160 0.82490 0.42010 -0.17100
O 	O 	0.13680 0.66320 0.29090 -0.14600
Zn	Zn	0.89794 0.48991 0.41183 1.21600
Zn	Zn	0.88267 0.48979 0.30555 1.21600
C 	C 	0.45350 0.92039 0.36360 0.40000
C 	C 	0.49210 0.88063 0.36127 -0.13800
C 	C 	0.51670 0.86180 0.40314 0.07100
H 	H 	0.50880 0.87180 0.43270 0.01800
C 	C 	0.55280 0.82830 0.40110 -0.15400
H 	H 	0.57080 0.81720 0.42960 0.08500
C 	C 	0.56310 0.81050 0.35690 0.10300
C 	C 	0.53790 0.82890 0.31500 -0.15100
H 	H 	0.54540 0.81820 0.28550 0.09700
C 	C 	0.50170 0.86280 0.31615 0.06900
H 	H 	0.48380 0.87390 0.28770 0.02100
C 	C 	0.60150 0.77440 0.35590 -0.02700
C 	C 	0.60660 0.73520 0.38650 -0.12400
H 	H 	0.58540 0.73220 0.40880 0.07800
C 	C 	0.64120 0.70050 0.38620 0.13900
C 	C 	0.67580 0.70240 0.35710 -0.06500
C 	C 	0.67250 0.74320 0.32650 -0.09100
H 	H 	0.69580 0.74730 0.30640 0.06100
C 	C 	0.63640 0.77760 0.32460 0.10800
C 	C 	0.77890 0.61440 0.39760 0.13200
H 	H 	0.79770 0.60470 0.42620 0.00200
C 	C 	0.74250 0.64790 0.39830 -0.20100
H 	H 	0.73610 0.65980 0.42770 0.11400
C 	C 	0.71510 0.66430 0.35670 0.15200
C 	C 	0.72440 0.64380 0.31390 -0.21600
H 	H 	0.70610 0.65380 0.28520 0.10600
C 	C 	0.75850 0.61070 0.31260 0.13700
H 	H 	0.76340 0.59730 0.28310 -0.00600
C 	C 	0.78730 0.59540 0.35470 -0.19100
C 	C 	0.82620 0.55794 0.35225 0.43400
C 	C 	0.61020 0.65790 0.45780 -0.27200
H 	H 	0.61570 0.62770 0.47580 0.12200
H 	H 	0.57710 0.65950 0.44330 0.11800
H 	H 	0.61760 0.68540 0.47910 0.11500
C 	C 	0.66830 0.82090 0.26320 -0.22800
H 	H 	0.66380 0.84980 0.24340 0.11400
H 	H 	0.66500 0.79200 0.24310 0.10200
H 	H 	0.69990 0.82140 0.28180 0.10100
C 	C 	0.45750 0.05533 0.36520 0.41600
C 	C 	0.49530 0.09210 0.36430 -0.15800
C 	C 	0.50370 0.11230 0.32101 0.07600
H 	H 	0.48460 0.10230 0.29270 0.02100
C 	C 	0.54000 0.14730 0.31800 -0.13700
H 	H 	0.54630 0.15810 0.28820 0.09200
C 	C 	0.56670 0.16610 0.36070 0.07900
C 	C 	0.55690 0.14580 0.40460 -0.14500
H 	H 	0.57490 0.15620 0.43340 0.08300
C 	C 	0.52140 0.11130 0.40580 0.08300
H 	H 	0.51460 0.10040 0.43550 0.01900
C 	C 	0.60210 0.20620 0.35930 0.00800
C 	C 	0.60790 0.24100 0.38760 -0.13900
H 	H 	0.58670 0.24370 0.41000 0.09300
C 	C 	0.64370 0.27670 0.38860 0.14100
C 	C 	0.67220 0.28220 0.35810 -0.10400
C 	C 	0.66860 0.24600 0.32780 -0.04200
H 	H 	0.68930 0.24650 0.30480 0.04500
C 	C 	0.63580 0.20490 0.32590 0.06200
C 	C 	0.75560 0.37250 0.31430 0.13500
H 	H 	0.76200 0.38480 0.28500 -0.00600
C 	C 	0.71980 0.33880 0.31530 -0.21900
H 	H 	0.70160 0.32930 0.28630 0.10700
C 	C 	0.70950 0.31790 0.35760 0.17900
C 	C 	0.73410 0.33570 0.39880 -0.22000
H 	H 	0.72600 0.32520 0.42820 0.12200
C 	C 	0.77090 0.36910 0.39860 0.13800
H 	H 	0.78870 0.37890 0.42770 -0.00100
C 	C 	0.78200 0.38820 0.35640 -0.19000
C 	C 	0.82260 0.42470 0.35630 0.41600
C 	C 	0.66940 0.16790 0.25760 -0.24100
H 	H 	0.66700 0.13950 0.23700 0.12000
H 	H 	0.70160 0.17050 0.27460 0.10600
H 	H 	0.66180 0.19700 0.23850 0.10700
C 	C 	0.36660 0.03090 0.00468 0.10100
H 	H 	0.34420 0.05000 0.98510 -0.00700
C 	C 	0.36360 0.02860 0.05220 -0.13300
H 	H 	0.33910 0.04600 0.06370 0.07800
C 	C 	0.39430 0.00229 0.08370 0.03200
C 	C 	0.42880 0.98190 0.06280 -0.13000
H 	H 	0.45280 0.96420 0.08200 0.08400
C 	C 	0.43120 0.98570 0.01319 0.10200
H 	H 	0.45700 0.97160 0.00090 -0.00700
C 	C 	0.39930 0.95580 0.20900 0.15000
H 	H 	0.40730 0.92610 0.22480 -0.01800
C 	C 	0.40200 0.95930 0.15988 -0.24600
H 	H 	0.41080 0.93150 0.14380 0.12400
C 	C 	0.39285 0.99853 0.13659 0.17700
C 	C 	0.37780 0.03640 0.16095 -0.28200
H 	H 	0.36700 0.06590 0.14610 0.13800
C 	C 	0.37950 0.02880 0.20850 0.23700
H 	H 	0.37450 0.05730 0.22540 -0.04800
N 	N 	0.39890 0.00798 0.98509 -0.26200
N 	N 	0.38600 0.99306 0.23361 -0.31100
O 	O 	0.44695 0.93641 0.40254 -0.47300
O 	O 	0.43208 0.93481 0.32220 -0.45900
O 	O 	0.84692 0.54315 0.39215 -0.47800
O 	O 	0.83366 0.54469 0.31193 -0.46900
O 	O 	0.64330 0.65930 0.41750 -0.16500
O 	O 	0.63300 0.81980 0.29470 -0.16200
O 	O 	0.43614 0.03973 0.32589 -0.47600
O 	O 	0.44945 0.04085 0.40606 -0.46100
O 	O 	0.83005 0.44010 0.31498 -0.45900
O 	O 	0.84407 0.43912 0.39549 -0.47500
O 	O 	0.63160 0.32490 0.42010 -0.17100
O 	O 	0.63680 0.16320 0.29090 -0.14600
Zn	Zn	0.39794 0.98991 0.41183 1.21600
Zn	Zn	0.38267 0.98979 0.30555 1.21600
C 	C 	0.95350 0.57961 0.86360 0.40000
C 	C 	0.99210 0.61937 0.86127 -0.13700
C 	C 	0.01670 0.63820 0.90314 0.07000
H 	H 	0.00880 0.62820 0.93270 0.01800
C 	C 	0.05280 0.67170 0.90110 -0.15300
H 	H 	0.07080 0.68280 0.92960 0.08500
C 	C 	0.06310 0.68950 0.85690 0.10200
C 	C 	0.03790 0.67110 0.81500 -0.15100
H 	H 	0.04540 0.68180 0.78550 0.09700
C 	C 	0.00170 0.63720 0.81615 0.06800
H 	H 	0.98380 0.62610 0.78770 0.02200
C 	C 	0.10150 0.72560 0.85590 -0.02700
C 	C 	0.10660 0.76480 0.88650 -0.12400
H 	H 	0.08540 0.76780 0.90880 0.07800
C 	C 	0.14120 0.79950 0.88620 0.13900
C 	C 	0.17580 0.79760 0.85710 -0.06500
C 	C 	0.17250 0.75680 0.82650 -0.09100
H 	H 	0.19580 0.75270 0.80640 0.06100
C 	C 	0.13640 0.72240 0.82460 0.10800
C 	C 	0.27890 0.88560 0.89760 0.13200
H 	H 	0.29770 0.89530 0.92620 0.00200
C 	C 	0.24250 0.85210 0.89830 -0.20100
H 	H 	0.23610 0.84020 0.92770 0.11400
C 	C 	0.21510 0.83570 0.85670 0.15200
C 	C 	0.22440 0.85620 0.81390 -0.21600
H 	H 	0.20610 0.84620 0.78520 0.10600
C 	C 	0.25850 0.88930 0.81260 0.13700
H 	H 	0.26340 0.90270 0.78310 -0.00500
C 	C 	0.28730 0.90460 0.85470 -0.19100
C 	C 	0.32620 0.94206 0.85225 0.43400
C 	C 	0.11020 0.84210 0.95780 -0.27200
H 	H 	0.11570 0.87230 0.97580 0.12300
H 	H 	0.07710 0.84050 0.94330 0.11800
H 	H 	0.11760 0.81460 0.97910 0.11500
C 	C 	0.16830 0.67910 0.76320 -0.22800
H 	H 	0.16380 0.65020 0.74340 0.11400
H 	H 	0.16500 0.70800 0.74310 0.10200
H 	H 	0.19990 0.67860 0.78180 0.10100
C 	C 	0.95750 0.44467 0.86520 0.41500
C 	C 	0.99530 0.40790 0.86430 -0.15700
C 	C 	0.00370 0.38770 0.82101 0.07500
H 	H 	0.98460 0.39770 0.79270 0.02200
C 	C 	0.04000 0.35270 0.81800 -0.13700
H 	H 	0.04630 0.34190 0.78820 0.09200
C 	C 	0.06670 0.33390 0.86070 0.07800
C 	C 	0.05690 0.35420 0.90460 -0.14500
H 	H 	0.07490 0.34380 0.93340 0.08300
C 	C 	0.02140 0.38870 0.90580 0.08200
H 	H 	0.01460 0.39960 0.93550 0.01900
C 	C 	0.10210 0.29380 0.85930 0.00900
C 	C 	0.10790 0.25900 0.88760 -0.13900
H 	H 	0.08670 0.25630 0.91000 0.09300
C 	C 	0.14370 0.22330 0.88860 0.14100
C 	C 	0.17220 0.21780 0.85810 -0.10400
C 	C 	0.16860 0.25400 0.82780 -0.04200
H 	H 	0.18930 0.25350 0.80480 0.04500
C 	C 	0.13580 0.29510 0.82590 0.06200
C 	C 	0.25560 0.12750 0.81430 0.13500
H 	H 	0.26200 0.11520 0.78500 -0.00600
C 	C 	0.21980 0.16120 0.81530 -0.21900
H 	H 	0.20160 0.17070 0.78630 0.10700
C 	C 	0.20950 0.18210 0.85760 0.17900
C 	C 	0.23410 0.16430 0.89880 -0.22000
H 	H 	0.22600 0.17480 0.92820 0.12200
C 	C 	0.27090 0.13090 0.89860 0.13800
H 	H 	0.28870 0.12110 0.92770 -0.00200
C 	C 	0.28200 0.11180 0.85640 -0.19000
C 	C 	0.32260 0.07530 0.85630 0.41600
C 	C 	0.16940 0.33210 0.75760 -0.24000
H 	H 	0.16700 0.36050 0.73700 0.12000
H 	H 	0.20160 0.32950 0.77460 0.10600
H 	H 	0.16180 0.30300 0.73850 0.10700
C 	C 	0.86660 0.46910 0.50468 0.09400
H 	H 	0.84420 0.45000 0.48510 -0.00400
C 	C 	0.86360 0.47140 0.55220 -0.12600
H 	H 	0.83910 0.45400 0.56370 0.07500
C 	C 	0.89430 0.49771 0.58370 0.02400
C 	C 	0.92880 0.51810 0.56280 -0.12400
H 	H 	0.95280 0.53580 0.58200 0.08200
C 	C 	0.93120 0.51430 0.51319 0.09800
H 	H 	0.95700 0.52840 0.50090 -0.00500
C 	C 	0.89930 0.54420 0.70900 0.15300
H 	H 	0.90730 0.57390 0.72480 -0.01900
C 	C 	0.90200 0.54070 0.65988 -0.25200
H 	H 	0.91080 0.56850 0.64380 0.12600
C 	C 	0.89285 0.50147 0.63659 0.18400
C 	C 	0.87780 0.46360 0.66095 -0.28800
H 	H 	0.86700 0.43410 0.64610 0.14000
C 	C 	0.87950 0.47120 0.70850 0.23900
H 	H 	0.87450 0.44270 0.72540 -0.04900
N 	N 	0.89890 0.49202 0.48509 -0.26000
N 	N 	0.88600 0.50694 0.73361 -0.31200
O 	O 	0.94695 0.56359 0.90254 -0.47300
O 	O 	0.93208 0.56519 0.82220 -0.45900
O 	O 	0.34692 0.95685 0.89215 -0.47700
O 	O 	0.33366 0.95531 0.81193 -0.46900
O 	O 	0.14330 0.84070 0.91750 -0.16500
O 	O 	0.13300 0.68020 0.79470 -0.16200
O 	O 	0.93614 0.46027 0.82589 -0.47600
O 	O 	0.94945 0.45915 0.90606 -0.46100
O 	O 	0.33005 0.05990 0.81498 -0.45900
O 	O 	0.34407 0.06088 0.89549 -0.47500
O 	O 	0.13160 0.17510 0.92010 -0.17100
O 	O 	0.13680 0.33680 0.79090 -0.14600
Zn	Zn	0.89794 0.51009 0.91183 1.21600
Zn	Zn	0.88267 0.51021 0.80554 1.21600
C 	C 	0.45350 0.07961 0.86360 0.40000
C 	C 	0.49210 0.11937 0.86127 -0.13800
C 	C 	0.51670 0.13820 0.90314 0.07100
H 	H 	0.50880 0.12820 0.93270 0.01800
C 	C 	0.55280 0.17170 0.90110 -0.15400
H 	H 	0.57080 0.18280 0.92960 0.08500
C 	C 	0.56310 0.18950 0.85690 0.10300
C 	C 	0.53790 0.17110 0.81500 -0.15100
H 	H 	0.54540 0.18180 0.78550 0.09700
C 	C 	0.50170 0.13720 0.81615 0.06900
H 	H 	0.48380 0.12610 0.78770 0.02100
C 	C 	0.60150 0.22560 0.85590 -0.02700
C 	C 	0.60660 0.26480 0.88650 -0.12400
H 	H 	0.58540 0.26780 0.90880 0.07800
C 	C 	0.64120 0.29950 0.88620 0.13900
C 	C 	0.67580 0.29760 0.85710 -0.06500
C 	C 	0.67250 0.25680 0.82650 -0.09100
H 	H 	0.69580 0.25270 0.80640 0.06100
C 	C 	0.63640 0.22240 0.82460 0.10800
C 	C 	0.77890 0.38560 0.89760 0.13200
H 	H 	0.79770 0.39530 0.92620 0.00200
C 	C 	0.74250 0.35210 0.89830 -0.20100
H 	H 	0.73610 0.34020 0.92770 0.11400
C 	C 	0.71510 0.33570 0.85670 0.15200
C 	C 	0.72440 0.35620 0.81390 -0.21600
H 	H 	0.70610 0.34620 0.78520 0.10600
C 	C 	0.75850 0.38930 0.81260 0.13700
H 	H 	0.76340 0.40270 0.78310 -0.00600
C 	C 	0.78730 0.40460 0.85470 -0.19100
C 	C 	0.82620 0.44206 0.85225 0.43400
C 	C 	0.61020 0.34210 0.95780 -0.27100
H 	H 	0.61570 0.37230 0.97580 0.12200
H 	H 	0.57710 0.34050 0.94330 0.11800
H 	H 	0.61760 0.31460 0.97910 0.11500
C 	C 	0.66830 0.17910 0.76320 -0.22800
H 	H 	0.66380 0.15020 0.74340 0.11400
H 	H 	0.66500 0.20800 0.74310 0.10200
H 	H 	0.69990 0.17860 0.78180 0.10100
C 	C 	0.45750 0.94467 0.86520 0.41600
C 	C 	0.49530 0.90790 0.86430 -0.15800
C 	C 	0.50370 0.88770 0.82101 0.07600
H 	H 	0.48460 0.89770 0.79270 0.02100
C 	C 	0.54000 0.85270 0.81800 -0.13700
H 	H 	0.54630 0.84190 0.78820 0.09200
C 	C 	0.56670 0.83390 0.86070 0.07900
C 	C 	0.55690 0.85420 0.90460 -0.14500
H 	H 	0.57490 0.84380 0.93340 0.08300
C 	C 	0.52140 0.88870 0.90580 0.08300
H 	H 	0.51460 0.89960 0.93550 0.01900
C 	C 	0.60210 0.79380 0.85930 0.00800
C 	C 	0.60790 0.75900 0.88760 -0.13900
H 	H 	0.58670 0.75630 0.91000 0.09300
C 	C 	0.64370 0.72330 0.88860 0.14100
C 	C 	0.67220 0.71780 0.85810 -0.10400
C 	C 	0.66860 0.75400 0.82780 -0.04200
H 	H 	0.68930 0.75350 0.80480 0.04500
C 	C 	0.63580 0.79510 0.82590 0.06200
C 	C 	0.75560 0.62750 0.81430 0.13500
H 	H 	0.76200 0.61520 0.78500 -0.00600
C 	C 	0.71980 0.66120 0.81530 -0.21900
H 	H 	0.70160 0.67070 0.78630 0.10700
C 	C 	0.70950 0.68210 0.85760 0.17900
C 	C 	0.73410 0.66430 0.89880 -0.22000
H 	H 	0.72600 0.67480 0.92820 0.12200
C 	C 	0.77090 0.63090 0.89860 0.13800
H 	H 	0.78870 0.62110 0.92770 -0.00100
C 	C 	0.78200 0.61180 0.85640 -0.19000
C 	C 	0.82260 0.57530 0.85630 0.41600
C 	C 	0.66940 0.83210 0.75760 -0.24100
H 	H 	0.66700 0.86050 0.73700 0.12000
H 	H 	0.70160 0.82950 0.77460 0.10600
H 	H 	0.66180 0.80300 0.73850 0.10700
C 	C 	0.36660 0.96910 0.50468 0.09500
H 	H 	0.34420 0.95000 0.48510 -0.00400
C 	C 	0.36360 0.97140 0.55220 -0.12700
H 	H 	0.33910 0.95400 0.56370 0.07500
C 	C 	0.39430 0.99771 0.58370 0.02500
C 	C 	0.42880 0.01810 0.56280 -0.12500
H 	H 	0.45280 0.03580 0.58200 0.08200
C 	C 	0.43120 0.01430 0.51319 0.09900
H 	H 	0.45700 0.02840 0.50090 -0.00500
C 	C 	0.39930 0.04420 0.70900 0.15300
H 	H 	0.40730 0.07390 0.72480 -0.01900
C 	C 	0.40200 0.04070 0.65988 -0.25100
H 	H 	0.41080 0.06850 0.64380 0.12600
C 	C 	0.39285 0.00147 0.63659 0.18300
C 	C 	0.37780 0.96360 0.66095 -0.28700
H 	H 	0.36700 0.93410 0.64610 0.14000
C 	C 	0.37950 0.97120 0.70850 0.24000
H 	H 	0.37450 0.94270 0.72540 -0.04900
N 	N 	0.39890 0.99202 0.48509 -0.26000
N 	N 	0.38600 0.00694 0.73361 -0.31200
O 	O 	0.44695 0.06359 0.90254 -0.47300
O 	O 	0.43208 0.06519 0.82220 -0.45900
O 	O 	0.84692 0.45685 0.89215 -0.47800
O 	O 	0.83366 0.45531 0.81193 -0.46900
O 	O 	0.64330 0.34070 0.91750 -0.16500
O 	O 	0.63300 0.18020 0.79470 -0.16200
O 	O 	0.43614 0.96027 0.82589 -0.47600
O 	O 	0.44945 0.95915 0.90606 -0.46000
O 	O 	0.83005 0.55990 0.81498 -0.45900
O 	O 	0.84407 0.56088 0.89549 -0.47500
O 	O 	0.63160 0.67510 0.92010 -0.17100
O 	O 	0.63680 0.83680 0.79090 -0.14600
Zn	Zn	0.39794 0.01009 0.91183 1.21600
Zn	Zn	0.38267 0.01021 0.80554 1.21600
