data_crystal

_cell_length_a 39.04900
_cell_length_b 27.57300
_cell_length_c 27.21800
_cell_angle_alpha 90.00000
_cell_angle_beta  133.88300
_cell_angle_gamma 90.00000

_symmetry_space_group_name_	'P 1'
_symmetry_space_group_name_H-M	'P 1'

loop_
_symmetry_equiv_pos_as_xyz
  x,y,z

loop_
_atom_site_label
_atom_site_type_symbol
_atom_site_fract_x
_atom_site_fract_y
_atom_site_fract_z
_atom_site_charge
C 	C 	0.09870 0.19864 0.37220 0.41100
C 	C 	0.09674 0.16619 0.32630 -0.15100
C 	C 	0.05349 0.15604 0.26020 0.08000
H 	H 	0.02580 0.17050 0.24420 0.02000
C 	C 	0.05150 0.12513 0.21900 -0.15700
H 	H 	0.02260 0.12020 0.17440 0.09100
C 	C 	0.09250 0.10040 0.24290 0.10400
C 	C 	0.13590 0.11280 0.30830 -0.14900
H 	H 	0.16390 0.09960 0.32400 0.09400
C 	C 	0.13770 0.14430 0.34990 0.07900
H 	H 	0.16660 0.15070 0.39390 0.01900
C 	C 	0.09100 0.06550 0.19930 -0.05100
C 	C 	0.05450 0.02930 0.16840 -0.10400
H 	H 	0.03330 0.03020 0.17360 0.07000
C 	C 	0.05180 0.99200 0.12960 0.12200
C 	C 	0.09020 0.99120 0.13090 -0.04000
C 	C 	0.10800 0.03160 0.13970 -0.08900
H 	H 	0.11890 0.03820 0.11890 0.06300
C 	C 	0.11230 0.06920 0.18230 0.10100
C 	C 	0.13250 0.88870 0.09090 0.10400
H 	H 	0.16130 0.87400 0.11210 0.00300
C 	C 	0.13210 0.92750 0.12350 -0.17800
H 	H 	0.16010 0.93690 0.16690 0.08700
C 	C 	0.09110 0.95170 0.09210 0.11600
C 	C 	0.04920 0.93480 0.02960 -0.16600
H 	H 	0.02030 0.94960 0.00820 0.10300
C 	C 	0.05110 0.89490 0.99910 0.09900
H 	H 	0.02320 0.88410 0.95670 0.01000
C 	C 	0.09245 0.87162 0.02970 -0.17900
C 	C 	0.09321 0.82842 0.99640 0.44600
C 	C 	0.18780 0.10250 0.21170 -0.65500
H 	H 	0.20770 0.07430 0.23690 0.23300
H 	H 	0.17620 0.10230 0.16660 0.23600
C 	C 	0.21330 0.14830 0.24880 1.11500
H 	H 	0.19010 0.16810 0.24290 -0.28600
H 	H 	0.23680 0.13930 0.29660 -0.30600
C 	C 	0.23590 0.17890 0.24130 -1.44800
H 	H 	0.26820 0.16680 0.27370 0.45900
H 	H 	0.23690 0.20870 0.26130 0.44700
C 	C 	0.22980 0.19720 0.18210 1.16400
H 	H 	0.19900 0.18670 0.13960 -0.32200
H 	H 	0.25370 0.18180 0.18560 -0.33600
C 	C 	0.23350 0.25280 0.17860 -1.62500
H 	H 	0.22920 0.26050 0.14030 0.51300
H 	H 	0.26420 0.26370 0.21980 0.50100
H 	H 	0.20930 0.26860 0.17360 0.50000
C 	C 	0.97490 0.95940 0.08810 0.07500
H 	H 	0.95910 0.99020 0.06660 0.01000
H 	H 	0.98340 0.95740 0.13100 0.00900
C 	C 	0.94370 0.91900 0.04350 -0.16200
H 	H 	0.91290 0.93480 0.01140 0.07100
H 	H 	0.94290 0.90030 0.07290 0.07600
C 	C 	0.93800 0.87670 0.99640 -0.03400
H 	H 	0.90690 0.87990 0.95050 0.03700
H 	H 	0.96140 0.88240 0.99410 0.05700
C 	C 	0.94320 0.82770 0.01850 -0.14900
H 	H 	0.91450 0.80970 0.98240 0.07400
H 	H 	0.94720 0.82780 0.05790 0.07400
C 	C 	0.10565 0.30085 0.53750 0.44000
C 	C 	0.10595 0.33299 0.58210 -0.21300
C 	C 	0.14870 0.35200 0.64270 0.16500
H 	H 	0.17740 0.34330 0.65680 -0.05800
C 	C 	0.14820 0.38320 0.68110 -0.24500
H 	H 	0.17720 0.39350 0.72260 0.10900
C 	C 	0.10820 0.39990 0.66240 0.17300
C 	C 	0.06690 0.38240 0.60370 -0.21600
H 	H 	0.03850 0.39270 0.58920 0.11900
C 	C 	0.06600 0.34850 0.56340 0.14400
H 	H 	0.03690 0.33700 0.52320 -0.00200
C 	C 	0.10770 0.43760 0.70110 -0.06100
C 	C 	0.13350 0.47860 0.71990 -0.11500
H 	H 	0.14990 0.48240 0.70680 0.07200
C 	C 	0.13660 0.51580 0.75840 0.15500
C 	C 	0.11100 0.50920 0.77770 -0.05000
C 	C 	0.08560 0.46820 0.75750 -0.11500
H 	H 	0.06840 0.46430 0.76930 0.07500
C 	C 	0.08310 0.43260 0.72170 0.13600
C 	C 	0.06496 0.60189 0.82350 0.09800
H 	H 	0.03620 0.61110 0.80900 0.01000
C 	C 	0.06630 0.56390 0.79150 -0.18000
H 	H 	0.03820 0.54830 0.75500 0.09400
C 	C 	0.10800 0.54905 0.81260 0.13200
C 	C 	0.14860 0.57260 0.86540 -0.17400
H 	H 	0.17720 0.56340 0.87970 0.10600
C 	C 	0.14790 0.61073 0.89870 0.09600
H 	H 	0.17620 0.62560 0.93610 0.01100
C 	C 	0.10599 0.62600 0.87660 -0.16400
C 	C 	0.10429 0.67124 0.90660 0.41100
C 	C 	0.06030 0.36890 0.76080 -0.04000
H 	H 	0.03020 0.35750 0.74380 0.04800
H 	H 	0.07380 0.39240 0.79680 0.04400
C 	C 	0.19100 0.56060 0.75950 0.23300
H 	H 	0.17750 0.54290 0.71860 -0.04500
H 	H 	0.19500 0.59410 0.75340 -0.03000
C 	C 	0.23170 0.54260 0.81040 -0.32500
H 	H 	0.25050 0.53690 0.79970 0.11900
H 	H 	0.22870 0.51260 0.82580 0.13100
C 	C 	0.24830 0.25690 0.63400 0.30600
H 	H 	0.23240 0.26920 0.64540 -0.10500
C 	C 	0.29840 0.25550 0.68620 -0.41400
H 	H 	0.31290 0.26560 0.72960 0.16800
C 	C 	0.32388 0.24207 0.67810 0.32100
C 	C 	0.29910 0.22770 0.61570 -0.35800
H 	H 	0.31450 0.21580 0.60320 0.16200
C 	C 	0.25030 0.23020 0.56840 0.25300
H 	H 	0.23450 0.22050 0.52430 -0.05900
C 	C 	0.45141 0.21870 0.77220 0.04600
H 	H 	0.46830 0.20290 0.76440 0.01700
C 	C 	0.40287 0.21670 0.72260 -0.05300
H 	H 	0.38740 0.19910 0.68280 0.05300
C 	C 	0.37711 0.24103 0.73240 -0.06200
C 	C 	0.40178 0.26490 0.79260 -0.06100
H 	H 	0.38560 0.28120 0.80130 0.05700
C 	C 	0.45050 0.26470 0.84020 0.05200
H 	H 	0.46650 0.28130 0.88090 0.01200
N 	N 	0.22494 0.24394 0.57780 -0.35900
N 	N 	0.47598 0.24239 0.83160 -0.23800
O 	O 	0.13874 0.20796 0.42967 -0.46700
O 	O 	0.06052 0.21577 0.35016 -0.46900
O 	O 	0.13356 0.81080 0.02718 -0.48600
O 	O 	0.05561 0.81185 0.94592 -0.48600
O 	O 	0.14670 0.10540 0.20840 -0.09900
O 	O 	0.01700 0.95510 0.09930 -0.21300
O 	O 	0.14444 0.28908 0.55769 -0.47900
O 	O 	0.06575 0.28742 0.48310 -0.47600
O 	O 	0.14268 0.69190 0.95328 -0.46900
O 	O 	0.06403 0.68473 0.88081 -0.46700
O 	O 	0.05410 0.39110 0.70240 -0.19700
O 	O 	0.15710 0.55850 0.76870 -0.25100
Zn	Zn	0.15250 0.24717 0.50501 1.21900
Zn	Zn	0.04813 0.25265 0.40171 1.21600
C 	C 	0.59870 0.69864 0.37220 0.41200
C 	C 	0.59674 0.66619 0.32630 -0.15000
C 	C 	0.55349 0.65604 0.26020 0.08100
H 	H 	0.52580 0.67050 0.24420 0.02100
C 	C 	0.55150 0.62513 0.21900 -0.15500
H 	H 	0.52260 0.62020 0.17440 0.09200
C 	C 	0.59250 0.60040 0.24290 0.10500
C 	C 	0.63590 0.61280 0.30830 -0.14800
H 	H 	0.66390 0.59960 0.32400 0.09500
C 	C 	0.63770 0.64430 0.34990 0.08000
H 	H 	0.66660 0.65070 0.39390 0.02000
C 	C 	0.59100 0.56550 0.19930 -0.05000
C 	C 	0.55450 0.52930 0.16840 -0.10300
H 	H 	0.53330 0.53020 0.17360 0.07100
C 	C 	0.55180 0.49200 0.12960 0.12300
C 	C 	0.59020 0.49120 0.13090 -0.04000
C 	C 	0.60800 0.53160 0.13970 -0.08900
H 	H 	0.61890 0.53820 0.11890 0.06300
C 	C 	0.61230 0.56920 0.18230 0.10100
C 	C 	0.63250 0.38870 0.09090 0.10500
H 	H 	0.66130 0.37400 0.11210 0.00300
C 	C 	0.63210 0.42750 0.12350 -0.17900
H 	H 	0.66010 0.43690 0.16690 0.08700
C 	C 	0.59110 0.45170 0.09210 0.11600
C 	C 	0.54920 0.43480 0.02960 -0.16700
H 	H 	0.52030 0.44960 0.00820 0.10300
C 	C 	0.55110 0.39490 0.99910 0.10100
H 	H 	0.52320 0.38410 0.95670 0.01000
C 	C 	0.59245 0.37162 0.02970 -0.18000
C 	C 	0.59321 0.32842 0.99640 0.44700
C 	C 	0.68780 0.60250 0.21170 -0.65500
H 	H 	0.70770 0.57430 0.23690 0.23300
H 	H 	0.67620 0.60230 0.16660 0.23700
C 	C 	0.71330 0.64830 0.24880 1.11500
H 	H 	0.69010 0.66810 0.24290 -0.28600
H 	H 	0.73680 0.63930 0.29660 -0.30600
C 	C 	0.73590 0.67890 0.24130 -1.44800
H 	H 	0.76820 0.66680 0.27370 0.45900
H 	H 	0.73690 0.70870 0.26130 0.44700
C 	C 	0.72980 0.69720 0.18210 1.16400
H 	H 	0.69900 0.68670 0.13960 -0.32200
H 	H 	0.75370 0.68180 0.18560 -0.33700
C 	C 	0.73350 0.75280 0.17860 -1.62600
H 	H 	0.72920 0.76050 0.14030 0.51300
H 	H 	0.76420 0.76370 0.21980 0.50100
H 	H 	0.70930 0.76860 0.17360 0.50000
C 	C 	0.47490 0.45940 0.08810 0.07500
H 	H 	0.45910 0.49020 0.06660 0.01000
H 	H 	0.48340 0.45740 0.13100 0.00900
C 	C 	0.44370 0.41900 0.04350 -0.16300
H 	H 	0.41290 0.43480 0.01140 0.07100
H 	H 	0.44290 0.40030 0.07290 0.07600
C 	C 	0.43800 0.37670 0.99640 -0.03400
H 	H 	0.40690 0.37990 0.95050 0.03700
H 	H 	0.46140 0.38240 0.99410 0.05700
C 	C 	0.44320 0.32770 0.01850 -0.15000
H 	H 	0.41450 0.30970 0.98240 0.07400
H 	H 	0.44720 0.32780 0.05790 0.07400
C 	C 	0.60565 0.80085 0.53750 0.44000
C 	C 	0.60595 0.83299 0.58210 -0.21300
C 	C 	0.64870 0.85200 0.64270 0.16500
H 	H 	0.67740 0.84330 0.65680 -0.05800
C 	C 	0.64820 0.88320 0.68110 -0.24500
H 	H 	0.67720 0.89350 0.72260 0.10900
C 	C 	0.60820 0.89990 0.66240 0.17300
C 	C 	0.56690 0.88240 0.60370 -0.21600
H 	H 	0.53850 0.89270 0.58920 0.11900
C 	C 	0.56600 0.84850 0.56340 0.14400
H 	H 	0.53690 0.83700 0.52320 -0.00200
C 	C 	0.60770 0.93760 0.70110 -0.06100
C 	C 	0.63350 0.97860 0.71990 -0.11500
H 	H 	0.64990 0.98240 0.70680 0.07200
C 	C 	0.63660 0.01580 0.75840 0.15500
C 	C 	0.61100 0.00920 0.77770 -0.05000
C 	C 	0.58560 0.96820 0.75750 -0.11500
H 	H 	0.56840 0.96430 0.76930 0.07500
C 	C 	0.58310 0.93260 0.72170 0.13600
C 	C 	0.56496 0.10189 0.82350 0.09800
H 	H 	0.53620 0.11110 0.80900 0.01000
C 	C 	0.56630 0.06390 0.79150 -0.18000
H 	H 	0.53820 0.04830 0.75500 0.09400
C 	C 	0.60800 0.04905 0.81260 0.13200
C 	C 	0.64860 0.07260 0.86540 -0.17400
H 	H 	0.67720 0.06340 0.87970 0.10600
C 	C 	0.64790 0.11073 0.89870 0.09500
H 	H 	0.67620 0.12560 0.93610 0.01100
C 	C 	0.60599 0.12600 0.87660 -0.16400
C 	C 	0.60429 0.17124 0.90660 0.41100
C 	C 	0.56030 0.86890 0.76080 -0.04000
H 	H 	0.53020 0.85750 0.74380 0.04800
H 	H 	0.57380 0.89240 0.79680 0.04400
C 	C 	0.69100 0.06060 0.75950 0.23300
H 	H 	0.67750 0.04290 0.71860 -0.04500
H 	H 	0.69500 0.09410 0.75340 -0.03000
C 	C 	0.73170 0.04260 0.81040 -0.32500
H 	H 	0.75050 0.03690 0.79970 0.11900
H 	H 	0.72870 0.01260 0.82580 0.13100
C 	C 	0.74830 0.75690 0.63400 0.30600
H 	H 	0.73240 0.76920 0.64540 -0.10500
C 	C 	0.79840 0.75550 0.68620 -0.41400
H 	H 	0.81290 0.76560 0.72960 0.16800
C 	C 	0.82388 0.74207 0.67810 0.32100
C 	C 	0.79910 0.72770 0.61570 -0.35800
H 	H 	0.81450 0.71580 0.60320 0.16200
C 	C 	0.75030 0.73020 0.56840 0.25300
H 	H 	0.73450 0.72050 0.52430 -0.05900
C 	C 	0.95141 0.71870 0.77220 0.04600
H 	H 	0.96830 0.70290 0.76440 0.01700
C 	C 	0.90287 0.71670 0.72260 -0.05300
H 	H 	0.88740 0.69910 0.68280 0.05300
C 	C 	0.87711 0.74103 0.73240 -0.06200
C 	C 	0.90178 0.76490 0.79260 -0.06100
H 	H 	0.88560 0.78120 0.80130 0.05700
C 	C 	0.95050 0.76470 0.84020 0.05200
H 	H 	0.96650 0.78130 0.88090 0.01200
N 	N 	0.72494 0.74394 0.57780 -0.35900
N 	N 	0.97598 0.74239 0.83160 -0.23800
O 	O 	0.63874 0.70796 0.42967 -0.46700
O 	O 	0.56052 0.71577 0.35016 -0.46900
O 	O 	0.63356 0.31080 0.02718 -0.48600
O 	O 	0.55561 0.31185 0.94592 -0.48600
O 	O 	0.64670 0.60540 0.20840 -0.09900
O 	O 	0.51700 0.45510 0.09930 -0.21300
O 	O 	0.64444 0.78908 0.55769 -0.47900
O 	O 	0.56575 0.78742 0.48310 -0.47600
O 	O 	0.64268 0.19190 0.95328 -0.46900
O 	O 	0.56403 0.18473 0.88081 -0.46700
O 	O 	0.55410 0.89110 0.70240 -0.19700
O 	O 	0.65710 0.05850 0.76870 -0.25100
Zn	Zn	0.65250 0.74717 0.50501 1.21900
Zn	Zn	0.54813 0.75265 0.40171 1.21600
C 	C 	0.09870 0.80136 0.87220 0.41200
C 	C 	0.09674 0.83381 0.82630 -0.15000
C 	C 	0.05349 0.84396 0.76020 0.08100
H 	H 	0.02580 0.82950 0.74420 0.02100
C 	C 	0.05150 0.87487 0.71900 -0.15500
H 	H 	0.02260 0.87980 0.67440 0.09200
C 	C 	0.09250 0.89960 0.74290 0.10500
C 	C 	0.13590 0.88720 0.80830 -0.14800
H 	H 	0.16390 0.90040 0.82400 0.09500
C 	C 	0.13770 0.85570 0.84990 0.08000
H 	H 	0.16660 0.84930 0.89390 0.02000
C 	C 	0.09100 0.93450 0.69930 -0.05000
C 	C 	0.05450 0.97070 0.66840 -0.10300
H 	H 	0.03330 0.96980 0.67360 0.07100
C 	C 	0.05180 0.00800 0.62960 0.12300
C 	C 	0.09020 0.00880 0.63090 -0.03900
C 	C 	0.10800 0.96840 0.63970 -0.08900
H 	H 	0.11890 0.96180 0.61890 0.06300
C 	C 	0.11230 0.93080 0.68230 0.10100
C 	C 	0.13250 0.11130 0.59090 0.10400
H 	H 	0.16130 0.12600 0.61210 0.00300
C 	C 	0.13210 0.07250 0.62350 -0.17900
H 	H 	0.16010 0.06310 0.66690 0.08700
C 	C 	0.09110 0.04830 0.59210 0.11600
C 	C 	0.04920 0.06520 0.52960 -0.16600
H 	H 	0.02030 0.05040 0.50820 0.10300
C 	C 	0.05110 0.10510 0.49910 0.10000
H 	H 	0.02320 0.11590 0.45670 0.01000
C 	C 	0.09245 0.12838 0.52970 -0.18000
C 	C 	0.09321 0.17158 0.49640 0.44600
C 	C 	0.18780 0.89750 0.71170 -0.65400
H 	H 	0.20770 0.92570 0.73690 0.23300
H 	H 	0.17620 0.89770 0.66660 0.23600
C 	C 	0.21330 0.85170 0.74880 1.11400
H 	H 	0.19010 0.83190 0.74290 -0.28600
H 	H 	0.23680 0.86070 0.79660 -0.30600
C 	C 	0.23590 0.82110 0.74130 -1.44800
H 	H 	0.26820 0.83320 0.77370 0.45900
H 	H 	0.23690 0.79130 0.76130 0.44700
C 	C 	0.22980 0.80280 0.68210 1.16400
H 	H 	0.19900 0.81330 0.63960 -0.32200
H 	H 	0.25370 0.81820 0.68560 -0.33600
C 	C 	0.23350 0.74720 0.67860 -1.62500
H 	H 	0.22920 0.73950 0.64030 0.51300
H 	H 	0.26420 0.73630 0.71980 0.50100
H 	H 	0.20930 0.73140 0.67360 0.50000
C 	C 	0.97490 0.04060 0.58810 0.07500
H 	H 	0.95910 0.00980 0.56660 0.01000
H 	H 	0.98340 0.04260 0.63100 0.00900
C 	C 	0.94370 0.08100 0.54350 -0.16300
H 	H 	0.91290 0.06520 0.51140 0.07100
H 	H 	0.94290 0.09970 0.57290 0.07600
C 	C 	0.93800 0.12330 0.49640 -0.03400
H 	H 	0.90690 0.12010 0.45050 0.03700
H 	H 	0.96140 0.11760 0.49410 0.05700
C 	C 	0.94320 0.17230 0.51850 -0.15000
H 	H 	0.91450 0.19030 0.48240 0.07400
H 	H 	0.94720 0.17220 0.55790 0.07400
C 	C 	0.10565 0.69915 0.03750 0.44000
C 	C 	0.10595 0.66701 0.08210 -0.21300
C 	C 	0.14870 0.64800 0.14270 0.16500
H 	H 	0.17740 0.65670 0.15680 -0.05800
C 	C 	0.14820 0.61680 0.18110 -0.24500
H 	H 	0.17720 0.60650 0.22260 0.10900
C 	C 	0.10820 0.60010 0.16240 0.17300
C 	C 	0.06690 0.61760 0.10370 -0.21600
H 	H 	0.03850 0.60730 0.08920 0.11900
C 	C 	0.06600 0.65150 0.06340 0.14400
H 	H 	0.03690 0.66300 0.02320 -0.00200
C 	C 	0.10770 0.56240 0.20110 -0.06100
C 	C 	0.13350 0.52140 0.21990 -0.11500
H 	H 	0.14990 0.51760 0.20680 0.07200
C 	C 	0.13660 0.48420 0.25840 0.15500
C 	C 	0.11100 0.49080 0.27770 -0.05000
C 	C 	0.08560 0.53180 0.25750 -0.11500
H 	H 	0.06840 0.53570 0.26930 0.07500
C 	C 	0.08310 0.56740 0.22170 0.13600
C 	C 	0.06496 0.39811 0.32350 0.09800
H 	H 	0.03620 0.38890 0.30900 0.01000
C 	C 	0.06630 0.43610 0.29150 -0.18000
H 	H 	0.03820 0.45170 0.25500 0.09400
C 	C 	0.10800 0.45095 0.31260 0.13200
C 	C 	0.14860 0.42740 0.36540 -0.17500
H 	H 	0.17720 0.43660 0.37970 0.10600
C 	C 	0.14790 0.38927 0.39870 0.09600
H 	H 	0.17620 0.37440 0.43610 0.01100
C 	C 	0.10599 0.37400 0.37660 -0.16400
C 	C 	0.10429 0.32876 0.40660 0.41100
C 	C 	0.06030 0.63110 0.26080 -0.04000
H 	H 	0.03020 0.64250 0.24380 0.04800
H 	H 	0.07380 0.60760 0.29680 0.04400
C 	C 	0.19100 0.43940 0.25950 0.23300
H 	H 	0.17750 0.45710 0.21860 -0.04500
H 	H 	0.19500 0.40590 0.25340 -0.03000
C 	C 	0.23170 0.45740 0.31040 -0.32500
H 	H 	0.25050 0.46310 0.29970 0.11900
H 	H 	0.22870 0.48740 0.32580 0.13100
C 	C 	0.24830 0.74310 0.13400 0.30600
H 	H 	0.23240 0.73080 0.14540 -0.10500
C 	C 	0.29840 0.74450 0.18620 -0.41400
H 	H 	0.31290 0.73440 0.22960 0.16800
C 	C 	0.32388 0.75793 0.17810 0.32100
C 	C 	0.29910 0.77230 0.11570 -0.35800
H 	H 	0.31450 0.78420 0.10320 0.16200
C 	C 	0.25030 0.76980 0.06840 0.25300
H 	H 	0.23450 0.77950 0.02430 -0.05900
C 	C 	0.45141 0.78130 0.27220 0.04600
H 	H 	0.46830 0.79710 0.26440 0.01700
C 	C 	0.40287 0.78330 0.22260 -0.05300
H 	H 	0.38740 0.80090 0.18280 0.05300
C 	C 	0.37711 0.75897 0.23240 -0.06200
C 	C 	0.40178 0.73510 0.29260 -0.06100
H 	H 	0.38560 0.71880 0.30130 0.05700
C 	C 	0.45050 0.73530 0.34020 0.05200
H 	H 	0.46650 0.71870 0.38090 0.01200
N 	N 	0.22494 0.75606 0.07780 -0.35900
N 	N 	0.47598 0.75761 0.33160 -0.23800
O 	O 	0.13874 0.79204 0.92967 -0.46700
O 	O 	0.06052 0.78423 0.85016 -0.46900
O 	O 	0.13356 0.18920 0.52718 -0.48600
O 	O 	0.05561 0.18815 0.44592 -0.48600
O 	O 	0.14670 0.89460 0.70840 -0.09900
O 	O 	0.01700 0.04490 0.59930 -0.21300
O 	O 	0.14444 0.71092 0.05769 -0.47900
O 	O 	0.06575 0.71258 0.98310 -0.47600
O 	O 	0.14268 0.30810 0.45328 -0.46900
O 	O 	0.06403 0.31527 0.38081 -0.46700
O 	O 	0.05410 0.60890 0.20240 -0.19700
O 	O 	0.15710 0.44150 0.26870 -0.25100
Zn	Zn	0.15250 0.75283 0.00501 1.21900
Zn	Zn	0.04813 0.74735 0.90171 1.21600
C 	C 	0.59870 0.30136 0.87220 0.41200
C 	C 	0.59674 0.33381 0.82630 -0.15000
C 	C 	0.55349 0.34396 0.76020 0.08100
H 	H 	0.52580 0.32950 0.74420 0.02100
C 	C 	0.55150 0.37487 0.71900 -0.15500
H 	H 	0.52260 0.37980 0.67440 0.09200
C 	C 	0.59250 0.39960 0.74290 0.10500
C 	C 	0.63590 0.38720 0.80830 -0.14800
H 	H 	0.66390 0.40040 0.82400 0.09500
C 	C 	0.63770 0.35570 0.84990 0.08000
H 	H 	0.66660 0.34930 0.89390 0.02000
C 	C 	0.59100 0.43450 0.69930 -0.05000
C 	C 	0.55450 0.47070 0.66840 -0.10300
H 	H 	0.53330 0.46980 0.67360 0.07100
C 	C 	0.55180 0.50800 0.62960 0.12300
C 	C 	0.59020 0.50880 0.63090 -0.04000
C 	C 	0.60800 0.46840 0.63970 -0.08900
H 	H 	0.61890 0.46180 0.61890 0.06300
C 	C 	0.61230 0.43080 0.68230 0.10100
C 	C 	0.63250 0.61130 0.59090 0.10400
H 	H 	0.66130 0.62600 0.61210 0.00300
C 	C 	0.63210 0.57250 0.62350 -0.17900
H 	H 	0.66010 0.56310 0.66690 0.08700
C 	C 	0.59110 0.54830 0.59210 0.11600
C 	C 	0.54920 0.56520 0.52960 -0.16600
H 	H 	0.52030 0.55040 0.50820 0.10300
C 	C 	0.55110 0.60510 0.49910 0.10000
H 	H 	0.52320 0.61590 0.45670 0.01000
C 	C 	0.59245 0.62838 0.52970 -0.18000
C 	C 	0.59321 0.67158 0.49640 0.44600
C 	C 	0.68780 0.39750 0.71170 -0.65400
H 	H 	0.70770 0.42570 0.73690 0.23300
H 	H 	0.67620 0.39770 0.66660 0.23600
C 	C 	0.71330 0.35170 0.74880 1.11400
H 	H 	0.69010 0.33190 0.74290 -0.28600
H 	H 	0.73680 0.36070 0.79660 -0.30600
C 	C 	0.73590 0.32110 0.74130 -1.44800
H 	H 	0.76820 0.33320 0.77370 0.45900
H 	H 	0.73690 0.29130 0.76130 0.44700
C 	C 	0.72980 0.30280 0.68210 1.16400
H 	H 	0.69900 0.31330 0.63960 -0.32200
H 	H 	0.75370 0.31820 0.68560 -0.33600
C 	C 	0.73350 0.24720 0.67860 -1.62500
H 	H 	0.72920 0.23950 0.64030 0.51300
H 	H 	0.76420 0.23630 0.71980 0.50100
H 	H 	0.70930 0.23140 0.67360 0.50000
C 	C 	0.47490 0.54060 0.58810 0.07500
H 	H 	0.45910 0.50980 0.56660 0.01000
H 	H 	0.48340 0.54260 0.63100 0.00900
C 	C 	0.44370 0.58100 0.54350 -0.16300
H 	H 	0.41290 0.56520 0.51140 0.07100
H 	H 	0.44290 0.59970 0.57290 0.07600
C 	C 	0.43800 0.62330 0.49640 -0.03400
H 	H 	0.40690 0.62010 0.45050 0.03700
H 	H 	0.46140 0.61760 0.49410 0.05700
C 	C 	0.44320 0.67230 0.51850 -0.15000
H 	H 	0.41450 0.69030 0.48240 0.07400
H 	H 	0.44720 0.67220 0.55790 0.07400
C 	C 	0.60565 0.19915 0.03750 0.44000
C 	C 	0.60595 0.16701 0.08210 -0.21300
C 	C 	0.64870 0.14800 0.14270 0.16500
H 	H 	0.67740 0.15670 0.15680 -0.05800
C 	C 	0.64820 0.11680 0.18110 -0.24500
H 	H 	0.67720 0.10650 0.22260 0.10900
C 	C 	0.60820 0.10010 0.16240 0.17300
C 	C 	0.56690 0.11760 0.10370 -0.21600
H 	H 	0.53850 0.10730 0.08920 0.11900
C 	C 	0.56600 0.15150 0.06340 0.14400
H 	H 	0.53690 0.16300 0.02320 -0.00200
C 	C 	0.60770 0.06240 0.20110 -0.06100
C 	C 	0.63350 0.02140 0.21990 -0.11500
H 	H 	0.64990 0.01760 0.20680 0.07200
C 	C 	0.63660 0.98420 0.25840 0.15500
C 	C 	0.61100 0.99080 0.27770 -0.05000
C 	C 	0.58560 0.03180 0.25750 -0.11500
H 	H 	0.56840 0.03570 0.26930 0.07500
C 	C 	0.58310 0.06740 0.22170 0.13600
C 	C 	0.56496 0.89811 0.32350 0.09800
H 	H 	0.53620 0.88890 0.30900 0.01000
C 	C 	0.56630 0.93610 0.29150 -0.18000
H 	H 	0.53820 0.95170 0.25500 0.09400
C 	C 	0.60800 0.95095 0.31260 0.13200
C 	C 	0.64860 0.92740 0.36540 -0.17400
H 	H 	0.67720 0.93660 0.37970 0.10600
C 	C 	0.64790 0.88927 0.39870 0.09600
H 	H 	0.67620 0.87440 0.43610 0.01100
C 	C 	0.60599 0.87400 0.37660 -0.16400
C 	C 	0.60429 0.82876 0.40660 0.41100
C 	C 	0.56030 0.13110 0.26080 -0.04000
H 	H 	0.53020 0.14250 0.24380 0.04800
H 	H 	0.57380 0.10760 0.29680 0.04400
C 	C 	0.69100 0.93940 0.25950 0.23300
H 	H 	0.67750 0.95710 0.21860 -0.04500
H 	H 	0.69500 0.90590 0.25340 -0.03000
C 	C 	0.73170 0.95740 0.31040 -0.32500
H 	H 	0.75050 0.96310 0.29970 0.11900
H 	H 	0.72870 0.98740 0.32580 0.13100
C 	C 	0.74830 0.24310 0.13400 0.30600
H 	H 	0.73240 0.23080 0.14540 -0.10500
C 	C 	0.79840 0.24450 0.18620 -0.41400
H 	H 	0.81290 0.23440 0.22960 0.16800
C 	C 	0.82388 0.25793 0.17810 0.32100
C 	C 	0.79910 0.27230 0.11570 -0.35800
H 	H 	0.81450 0.28420 0.10320 0.16200
C 	C 	0.75030 0.26980 0.06840 0.25300
H 	H 	0.73450 0.27950 0.02430 -0.05900
C 	C 	0.95141 0.28130 0.27220 0.04600
H 	H 	0.96830 0.29710 0.26440 0.01700
C 	C 	0.90287 0.28330 0.22260 -0.05300
H 	H 	0.88740 0.30090 0.18280 0.05300
C 	C 	0.87711 0.25897 0.23240 -0.06200
C 	C 	0.90178 0.23510 0.29260 -0.06100
H 	H 	0.88560 0.21880 0.30130 0.05700
C 	C 	0.95050 0.23530 0.34020 0.05200
H 	H 	0.96650 0.21870 0.38090 0.01200
N 	N 	0.72494 0.25606 0.07780 -0.35900
N 	N 	0.97598 0.25761 0.33160 -0.23800
O 	O 	0.63874 0.29204 0.92967 -0.46700
O 	O 	0.56052 0.28423 0.85016 -0.46900
O 	O 	0.63356 0.68920 0.52718 -0.48600
O 	O 	0.55561 0.68815 0.44592 -0.48600
O 	O 	0.64670 0.39460 0.70840 -0.09900
O 	O 	0.51700 0.54490 0.59930 -0.21300
O 	O 	0.64444 0.21092 0.05769 -0.47900
O 	O 	0.56575 0.21258 0.98310 -0.47500
O 	O 	0.64268 0.80810 0.45328 -0.46900
O 	O 	0.56403 0.81527 0.38081 -0.46700
O 	O 	0.55410 0.10890 0.20240 -0.19700
O 	O 	0.65710 0.94150 0.26870 -0.25100
Zn	Zn	0.65250 0.25283 0.00501 1.21900
Zn	Zn	0.54813 0.24735 0.90171 1.21600
C 	C 	0.90130 0.19864 0.12780 0.41200
C 	C 	0.90326 0.16619 0.17370 -0.15000
C 	C 	0.94651 0.15604 0.23980 0.08100
H 	H 	0.97420 0.17050 0.25580 0.02100
C 	C 	0.94850 0.12513 0.28100 -0.15500
H 	H 	0.97740 0.12020 0.32560 0.09200
C 	C 	0.90750 0.10040 0.25710 0.10500
C 	C 	0.86410 0.11280 0.19170 -0.14800
H 	H 	0.83610 0.09960 0.17600 0.09500
C 	C 	0.86230 0.14430 0.15010 0.08000
H 	H 	0.83340 0.15070 0.10610 0.02000
C 	C 	0.90900 0.06550 0.30070 -0.05000
C 	C 	0.94550 0.02930 0.33160 -0.10300
H 	H 	0.96670 0.03020 0.32640 0.07100
C 	C 	0.94820 0.99200 0.37040 0.12300
C 	C 	0.90980 0.99120 0.36910 -0.03900
C 	C 	0.89200 0.03160 0.36030 -0.08900
H 	H 	0.88110 0.03820 0.38110 0.06300
C 	C 	0.88770 0.06920 0.31770 0.10100
C 	C 	0.86750 0.88870 0.40910 0.10400
H 	H 	0.83870 0.87400 0.38790 0.00300
C 	C 	0.86790 0.92750 0.37650 -0.17900
H 	H 	0.83990 0.93690 0.33310 0.08700
C 	C 	0.90890 0.95170 0.40790 0.11600
C 	C 	0.95080 0.93480 0.47040 -0.16600
H 	H 	0.97970 0.94960 0.49180 0.10300
C 	C 	0.94890 0.89490 0.50090 0.10000
H 	H 	0.97680 0.88410 0.54330 0.01000
C 	C 	0.90755 0.87162 0.47030 -0.18000
C 	C 	0.90679 0.82842 0.50360 0.44600
C 	C 	0.81220 0.10250 0.28830 -0.65400
H 	H 	0.79230 0.07430 0.26310 0.23300
H 	H 	0.82380 0.10230 0.33340 0.23600
C 	C 	0.78670 0.14830 0.25120 1.11400
H 	H 	0.80990 0.16810 0.25710 -0.28600
H 	H 	0.76320 0.13930 0.20340 -0.30600
C 	C 	0.76410 0.17890 0.25870 -1.44800
H 	H 	0.73180 0.16680 0.22630 0.45900
H 	H 	0.76310 0.20870 0.23870 0.44700
C 	C 	0.77020 0.19720 0.31790 1.16400
H 	H 	0.80100 0.18670 0.36040 -0.32200
H 	H 	0.74630 0.18180 0.31440 -0.33600
C 	C 	0.76650 0.25280 0.32140 -1.62500
H 	H 	0.77080 0.26050 0.35970 0.51300
H 	H 	0.73580 0.26370 0.28020 0.50100
H 	H 	0.79070 0.26860 0.32640 0.50000
C 	C 	0.02510 0.95940 0.41190 0.07500
H 	H 	0.04090 0.99020 0.43340 0.01000
H 	H 	0.01660 0.95740 0.36900 0.00900
C 	C 	0.05630 0.91900 0.45650 -0.16300
H 	H 	0.08710 0.93480 0.48860 0.07100
H 	H 	0.05710 0.90030 0.42710 0.07600
C 	C 	0.06200 0.87670 0.50360 -0.03400
H 	H 	0.09310 0.87990 0.54950 0.03700
H 	H 	0.03860 0.88240 0.50590 0.05700
C 	C 	0.05680 0.82770 0.48150 -0.15000
H 	H 	0.08550 0.80970 0.51760 0.07400
H 	H 	0.05280 0.82780 0.44210 0.07400
C 	C 	0.89435 0.30085 0.96250 0.44000
C 	C 	0.89405 0.33299 0.91790 -0.21300
C 	C 	0.85130 0.35200 0.85730 0.16500
H 	H 	0.82260 0.34330 0.84320 -0.05800
C 	C 	0.85180 0.38320 0.81890 -0.24500
H 	H 	0.82280 0.39350 0.77740 0.10900
C 	C 	0.89180 0.39990 0.83760 0.17300
C 	C 	0.93310 0.38240 0.89630 -0.21600
H 	H 	0.96150 0.39270 0.91080 0.11900
C 	C 	0.93400 0.34850 0.93660 0.14400
H 	H 	0.96310 0.33700 0.97680 -0.00200
C 	C 	0.89230 0.43760 0.79890 -0.06100
C 	C 	0.86650 0.47860 0.78010 -0.11500
H 	H 	0.85010 0.48240 0.79320 0.07200
C 	C 	0.86340 0.51580 0.74160 0.15500
C 	C 	0.88900 0.50920 0.72230 -0.05000
C 	C 	0.91440 0.46820 0.74250 -0.11500
H 	H 	0.93160 0.46430 0.73070 0.07500
C 	C 	0.91690 0.43260 0.77830 0.13600
C 	C 	0.93504 0.60189 0.67650 0.09800
H 	H 	0.96380 0.61110 0.69100 0.01000
C 	C 	0.93370 0.56390 0.70850 -0.18000
H 	H 	0.96180 0.54830 0.74500 0.09400
C 	C 	0.89200 0.54905 0.68740 0.13200
C 	C 	0.85140 0.57260 0.63460 -0.17500
H 	H 	0.82280 0.56340 0.62030 0.10600
C 	C 	0.85210 0.61073 0.60130 0.09600
H 	H 	0.82380 0.62560 0.56390 0.01100
C 	C 	0.89401 0.62600 0.62340 -0.16400
C 	C 	0.89571 0.67124 0.59340 0.41100
C 	C 	0.93970 0.36890 0.73920 -0.04000
H 	H 	0.96980 0.35750 0.75620 0.04800
H 	H 	0.92620 0.39240 0.70320 0.04400
C 	C 	0.80900 0.56060 0.74050 0.23300
H 	H 	0.82250 0.54290 0.78140 -0.04500
H 	H 	0.80500 0.59410 0.74660 -0.03000
C 	C 	0.76830 0.54260 0.68960 -0.32500
H 	H 	0.74950 0.53690 0.70030 0.11900
H 	H 	0.77130 0.51260 0.67420 0.13100
C 	C 	0.75170 0.25690 0.86600 0.30600
H 	H 	0.76760 0.26920 0.85460 -0.10500
C 	C 	0.70160 0.25550 0.81380 -0.41400
H 	H 	0.68710 0.26560 0.77040 0.16800
C 	C 	0.67612 0.24207 0.82190 0.32100
C 	C 	0.70090 0.22770 0.88430 -0.35800
H 	H 	0.68550 0.21580 0.89680 0.16200
C 	C 	0.74970 0.23020 0.93160 0.25300
H 	H 	0.76550 0.22050 0.97570 -0.05900
C 	C 	0.54859 0.21870 0.72780 0.04600
H 	H 	0.53170 0.20290 0.73560 0.01700
C 	C 	0.59713 0.21670 0.77740 -0.05300
H 	H 	0.61260 0.19910 0.81720 0.05300
C 	C 	0.62289 0.24103 0.76760 -0.06200
C 	C 	0.59822 0.26490 0.70740 -0.06100
H 	H 	0.61440 0.28120 0.69870 0.05700
C 	C 	0.54950 0.26470 0.65980 0.05200
H 	H 	0.53350 0.28130 0.61910 0.01200
N 	N 	0.77506 0.24394 0.92220 -0.35900
N 	N 	0.52402 0.24239 0.66840 -0.23800
O 	O 	0.86126 0.20796 0.07033 -0.46700
O 	O 	0.93948 0.21577 0.14984 -0.46900
O 	O 	0.86644 0.81080 0.47282 -0.48600
O 	O 	0.94439 0.81185 0.55408 -0.48600
O 	O 	0.85330 0.10540 0.29160 -0.09900
O 	O 	0.98300 0.95510 0.40070 -0.21300
O 	O 	0.85556 0.28908 0.94231 -0.47900
O 	O 	0.93425 0.28742 0.01690 -0.47600
O 	O 	0.85732 0.69190 0.54672 -0.46900
O 	O 	0.93597 0.68473 0.61919 -0.46700
O 	O 	0.94590 0.39110 0.79760 -0.19700
O 	O 	0.84290 0.55850 0.73130 -0.25100
Zn	Zn	0.84750 0.24717 0.99499 1.21900
Zn	Zn	0.95187 0.25265 0.09829 1.21600
C 	C 	0.40130 0.69864 0.12780 0.41200
C 	C 	0.40326 0.66619 0.17370 -0.15000
C 	C 	0.44651 0.65604 0.23980 0.08100
H 	H 	0.47420 0.67050 0.25580 0.02100
C 	C 	0.44850 0.62513 0.28100 -0.15500
H 	H 	0.47740 0.62020 0.32560 0.09200
C 	C 	0.40750 0.60040 0.25710 0.10500
C 	C 	0.36410 0.61280 0.19170 -0.14800
H 	H 	0.33610 0.59960 0.17600 0.09500
C 	C 	0.36230 0.64430 0.15010 0.08000
H 	H 	0.33340 0.65070 0.10610 0.02000
C 	C 	0.40900 0.56550 0.30070 -0.05000
C 	C 	0.44550 0.52930 0.33160 -0.10300
H 	H 	0.46670 0.53020 0.32640 0.07100
C 	C 	0.44820 0.49200 0.37040 0.12300
C 	C 	0.40980 0.49120 0.36910 -0.04000
C 	C 	0.39200 0.53160 0.36030 -0.08900
H 	H 	0.38110 0.53820 0.38110 0.06300
C 	C 	0.38770 0.56920 0.31770 0.10100
C 	C 	0.36750 0.38870 0.40910 0.10400
H 	H 	0.33870 0.37400 0.38790 0.00300
C 	C 	0.36790 0.42750 0.37650 -0.17900
H 	H 	0.33990 0.43690 0.33310 0.08700
C 	C 	0.40890 0.45170 0.40790 0.11600
C 	C 	0.45080 0.43480 0.47040 -0.16600
H 	H 	0.47970 0.44960 0.49180 0.10300
C 	C 	0.44890 0.39490 0.50090 0.10000
H 	H 	0.47680 0.38410 0.54330 0.01000
C 	C 	0.40755 0.37162 0.47030 -0.18000
C 	C 	0.40679 0.32842 0.50360 0.44600
C 	C 	0.31220 0.60250 0.28830 -0.65400
H 	H 	0.29230 0.57430 0.26310 0.23300
H 	H 	0.32380 0.60230 0.33340 0.23600
C 	C 	0.28670 0.64830 0.25120 1.11400
H 	H 	0.30990 0.66810 0.25710 -0.28600
H 	H 	0.26320 0.63930 0.20340 -0.30600
C 	C 	0.26410 0.67890 0.25870 -1.44800
H 	H 	0.23180 0.66680 0.22630 0.45900
H 	H 	0.26310 0.70870 0.23870 0.44700
C 	C 	0.27020 0.69720 0.31790 1.16400
H 	H 	0.30100 0.68670 0.36040 -0.32200
H 	H 	0.24630 0.68180 0.31440 -0.33600
C 	C 	0.26650 0.75280 0.32140 -1.62500
H 	H 	0.27080 0.76050 0.35970 0.51300
H 	H 	0.23580 0.76370 0.28020 0.50100
H 	H 	0.29070 0.76860 0.32640 0.50000
C 	C 	0.52510 0.45940 0.41190 0.07500
H 	H 	0.54090 0.49020 0.43340 0.01000
H 	H 	0.51660 0.45740 0.36900 0.00900
C 	C 	0.55630 0.41900 0.45650 -0.16300
H 	H 	0.58710 0.43480 0.48860 0.07100
H 	H 	0.55710 0.40030 0.42710 0.07600
C 	C 	0.56200 0.37670 0.50360 -0.03400
H 	H 	0.59310 0.37990 0.54950 0.03700
H 	H 	0.53860 0.38240 0.50590 0.05700
C 	C 	0.55680 0.32770 0.48150 -0.15000
H 	H 	0.58550 0.30970 0.51760 0.07400
H 	H 	0.55280 0.32780 0.44210 0.07400
C 	C 	0.39435 0.80085 0.96250 0.44000
C 	C 	0.39405 0.83299 0.91790 -0.21300
C 	C 	0.35130 0.85200 0.85730 0.16500
H 	H 	0.32260 0.84330 0.84320 -0.05800
C 	C 	0.35180 0.88320 0.81890 -0.24500
H 	H 	0.32280 0.89350 0.77740 0.10900
C 	C 	0.39180 0.89990 0.83760 0.17300
C 	C 	0.43310 0.88240 0.89630 -0.21600
H 	H 	0.46150 0.89270 0.91080 0.11900
C 	C 	0.43400 0.84850 0.93660 0.14400
H 	H 	0.46310 0.83700 0.97680 -0.00200
C 	C 	0.39230 0.93760 0.79890 -0.06100
C 	C 	0.36650 0.97860 0.78010 -0.11500
H 	H 	0.35010 0.98240 0.79320 0.07200
C 	C 	0.36340 0.01580 0.74160 0.15500
C 	C 	0.38900 0.00920 0.72230 -0.05000
C 	C 	0.41440 0.96820 0.74250 -0.11500
H 	H 	0.43160 0.96430 0.73070 0.07500
C 	C 	0.41690 0.93260 0.77830 0.13600
C 	C 	0.43504 0.10189 0.67650 0.09800
H 	H 	0.46380 0.11110 0.69100 0.01000
C 	C 	0.43370 0.06390 0.70850 -0.18000
H 	H 	0.46180 0.04830 0.74500 0.09400
C 	C 	0.39200 0.04905 0.68740 0.13200
C 	C 	0.35140 0.07260 0.63460 -0.17400
H 	H 	0.32280 0.06340 0.62030 0.10600
C 	C 	0.35210 0.11073 0.60130 0.09600
H 	H 	0.32380 0.12560 0.56390 0.01100
C 	C 	0.39401 0.12600 0.62340 -0.16400
C 	C 	0.39571 0.17124 0.59340 0.41100
C 	C 	0.43970 0.86890 0.73920 -0.04000
H 	H 	0.46980 0.85750 0.75620 0.04800
H 	H 	0.42620 0.89240 0.70320 0.04400
C 	C 	0.30900 0.06060 0.74050 0.23300
H 	H 	0.32250 0.04290 0.78140 -0.04500
H 	H 	0.30500 0.09410 0.74660 -0.03000
C 	C 	0.26830 0.04260 0.68960 -0.32500
H 	H 	0.24950 0.03690 0.70030 0.11900
H 	H 	0.27130 0.01260 0.67420 0.13100
C 	C 	0.25170 0.75690 0.86600 0.30600
H 	H 	0.26760 0.76920 0.85460 -0.10500
C 	C 	0.20160 0.75550 0.81380 -0.41400
H 	H 	0.18710 0.76560 0.77040 0.16800
C 	C 	0.17612 0.74207 0.82190 0.32100
C 	C 	0.20090 0.72770 0.88430 -0.35800
H 	H 	0.18550 0.71580 0.89680 0.16200
C 	C 	0.24970 0.73020 0.93160 0.25300
H 	H 	0.26550 0.72050 0.97570 -0.05900
C 	C 	0.04859 0.71870 0.72780 0.04600
H 	H 	0.03170 0.70290 0.73560 0.01700
C 	C 	0.09713 0.71670 0.77740 -0.05300
H 	H 	0.11260 0.69910 0.81720 0.05300
C 	C 	0.12289 0.74103 0.76760 -0.06200
C 	C 	0.09822 0.76490 0.70740 -0.06100
H 	H 	0.11440 0.78120 0.69870 0.05700
C 	C 	0.04950 0.76470 0.65980 0.05200
H 	H 	0.03350 0.78130 0.61910 0.01200
N 	N 	0.27506 0.74394 0.92220 -0.35900
N 	N 	0.02402 0.74239 0.66840 -0.23800
O 	O 	0.36126 0.70796 0.07033 -0.46700
O 	O 	0.43948 0.71577 0.14984 -0.46900
O 	O 	0.36644 0.31080 0.47282 -0.48600
O 	O 	0.44439 0.31185 0.55408 -0.48600
O 	O 	0.35330 0.60540 0.29160 -0.09900
O 	O 	0.48300 0.45510 0.40070 -0.21300
O 	O 	0.35556 0.78908 0.94231 -0.47900
O 	O 	0.43425 0.78742 0.01690 -0.47500
O 	O 	0.35732 0.19190 0.54672 -0.46900
O 	O 	0.43597 0.18473 0.61919 -0.46700
O 	O 	0.44590 0.89110 0.79760 -0.19700
O 	O 	0.34290 0.05850 0.73130 -0.25100
Zn	Zn	0.34750 0.74717 0.99499 1.21900
Zn	Zn	0.45187 0.75265 0.09829 1.21600
C 	C 	0.90130 0.80136 0.62780 0.41200
C 	C 	0.90326 0.83381 0.67370 -0.15000
C 	C 	0.94651 0.84396 0.73980 0.08100
H 	H 	0.97420 0.82950 0.75580 0.02100
C 	C 	0.94850 0.87487 0.78100 -0.15600
H 	H 	0.97740 0.87980 0.82560 0.09200
C 	C 	0.90750 0.89960 0.75710 0.10500
C 	C 	0.86410 0.88720 0.69170 -0.14800
H 	H 	0.83610 0.90040 0.67600 0.09500
C 	C 	0.86230 0.85570 0.65010 0.08000
H 	H 	0.83340 0.84930 0.60610 0.02000
C 	C 	0.90900 0.93450 0.80070 -0.05000
C 	C 	0.94550 0.97070 0.83160 -0.10300
H 	H 	0.96670 0.96980 0.82640 0.07100
C 	C 	0.94820 0.00800 0.87040 0.12300
C 	C 	0.90980 0.00880 0.86910 -0.03900
C 	C 	0.89200 0.96840 0.86030 -0.08900
H 	H 	0.88110 0.96180 0.88110 0.06300
C 	C 	0.88770 0.93080 0.81770 0.10100
C 	C 	0.86750 0.11130 0.90910 0.10400
H 	H 	0.83870 0.12600 0.88790 0.00300
C 	C 	0.86790 0.07250 0.87650 -0.17800
H 	H 	0.83990 0.06310 0.83310 0.08700
C 	C 	0.90890 0.04830 0.90790 0.11600
C 	C 	0.95080 0.06520 0.97040 -0.16600
H 	H 	0.97970 0.05040 0.99180 0.10300
C 	C 	0.94890 0.10510 0.00090 0.09900
H 	H 	0.97680 0.11590 0.04330 0.01000
C 	C 	0.90755 0.12838 0.97030 -0.17900
C 	C 	0.90679 0.17158 0.00360 0.44600
C 	C 	0.81220 0.89750 0.78830 -0.65500
H 	H 	0.79230 0.92570 0.76310 0.23300
H 	H 	0.82380 0.89770 0.83340 0.23600
C 	C 	0.78670 0.85170 0.75120 1.11500
H 	H 	0.80990 0.83190 0.75710 -0.28600
H 	H 	0.76320 0.86070 0.70340 -0.30600
C 	C 	0.76410 0.82110 0.75870 -1.44800
H 	H 	0.73180 0.83320 0.72630 0.45900
H 	H 	0.76310 0.79130 0.73870 0.44700
C 	C 	0.77020 0.80280 0.81790 1.16400
H 	H 	0.80100 0.81330 0.86040 -0.32200
H 	H 	0.74630 0.81820 0.81440 -0.33600
C 	C 	0.76650 0.74720 0.82140 -1.62500
H 	H 	0.77080 0.73950 0.85970 0.51300
H 	H 	0.73580 0.73630 0.78020 0.50100
H 	H 	0.79070 0.73140 0.82640 0.50000
C 	C 	0.02510 0.04060 0.91190 0.07500
H 	H 	0.04090 0.00980 0.93340 0.01000
H 	H 	0.01660 0.04260 0.86900 0.00900
C 	C 	0.05630 0.08100 0.95650 -0.16200
H 	H 	0.08710 0.06520 0.98860 0.07100
H 	H 	0.05710 0.09970 0.92710 0.07600
C 	C 	0.06200 0.12330 0.00360 -0.03400
H 	H 	0.09310 0.12010 0.04950 0.03700
H 	H 	0.03860 0.11760 0.00590 0.05700
C 	C 	0.05680 0.17230 0.98150 -0.14900
H 	H 	0.08550 0.19030 0.01760 0.07400
H 	H 	0.05280 0.17220 0.94210 0.07400
C 	C 	0.89435 0.69915 0.46250 0.44000
C 	C 	0.89405 0.66701 0.41790 -0.21300
C 	C 	0.85130 0.64800 0.35730 0.16500
H 	H 	0.82260 0.65670 0.34320 -0.05800
C 	C 	0.85180 0.61680 0.31890 -0.24500
H 	H 	0.82280 0.60650 0.27740 0.10900
C 	C 	0.89180 0.60010 0.33760 0.17300
C 	C 	0.93310 0.61760 0.39630 -0.21600
H 	H 	0.96150 0.60730 0.41080 0.11900
C 	C 	0.93400 0.65150 0.43660 0.14400
H 	H 	0.96310 0.66300 0.47680 -0.00200
C 	C 	0.89230 0.56240 0.29890 -0.06100
C 	C 	0.86650 0.52140 0.28010 -0.11500
H 	H 	0.85010 0.51760 0.29320 0.07200
C 	C 	0.86340 0.48420 0.24160 0.15500
C 	C 	0.88900 0.49080 0.22230 -0.05000
C 	C 	0.91440 0.53180 0.24250 -0.11500
H 	H 	0.93160 0.53570 0.23070 0.07500
C 	C 	0.91690 0.56740 0.27830 0.13600
C 	C 	0.93504 0.39811 0.17650 0.09800
H 	H 	0.96380 0.38890 0.19100 0.01000
C 	C 	0.93370 0.43610 0.20850 -0.18000
H 	H 	0.96180 0.45170 0.24500 0.09400
C 	C 	0.89200 0.45095 0.18740 0.13200
C 	C 	0.85140 0.42740 0.13460 -0.17400
H 	H 	0.82280 0.43660 0.12030 0.10600
C 	C 	0.85210 0.38927 0.10130 0.09600
H 	H 	0.82380 0.37440 0.06390 0.01100
C 	C 	0.89401 0.37400 0.12340 -0.16400
C 	C 	0.89571 0.32876 0.09340 0.41100
C 	C 	0.93970 0.63110 0.23920 -0.04000
H 	H 	0.96980 0.64250 0.25620 0.04800
H 	H 	0.92620 0.60760 0.20320 0.04400
C 	C 	0.80900 0.43940 0.24050 0.23300
H 	H 	0.82250 0.45710 0.28140 -0.04500
H 	H 	0.80500 0.40590 0.24660 -0.03000
C 	C 	0.76830 0.45740 0.18960 -0.32500
H 	H 	0.74950 0.46310 0.20030 0.11900
H 	H 	0.77130 0.48740 0.17420 0.13100
C 	C 	0.75170 0.74310 0.36600 0.30600
H 	H 	0.76760 0.73080 0.35460 -0.10500
C 	C 	0.70160 0.74450 0.31380 -0.41400
H 	H 	0.68710 0.73440 0.27040 0.16800
C 	C 	0.67612 0.75793 0.32190 0.32100
C 	C 	0.70090 0.77230 0.38430 -0.35800
H 	H 	0.68550 0.78420 0.39680 0.16200
C 	C 	0.74970 0.76980 0.43160 0.25300
H 	H 	0.76550 0.77950 0.47570 -0.05900
C 	C 	0.54859 0.78130 0.22780 0.04600
H 	H 	0.53170 0.79710 0.23560 0.01700
C 	C 	0.59713 0.78330 0.27740 -0.05300
H 	H 	0.61260 0.80090 0.31720 0.05300
C 	C 	0.62289 0.75897 0.26760 -0.06200
C 	C 	0.59822 0.73510 0.20740 -0.06100
H 	H 	0.61440 0.71880 0.19870 0.05700
C 	C 	0.54950 0.73530 0.15980 0.05200
H 	H 	0.53350 0.71870 0.11910 0.01200
N 	N 	0.77506 0.75606 0.42220 -0.35900
N 	N 	0.52402 0.75761 0.16840 -0.23800
O 	O 	0.86126 0.79204 0.57033 -0.46700
O 	O 	0.93948 0.78423 0.64984 -0.46900
O 	O 	0.86644 0.18920 0.97282 -0.48600
O 	O 	0.94439 0.18815 0.05408 -0.48600
O 	O 	0.85330 0.89460 0.79160 -0.09900
O 	O 	0.98300 0.04490 0.90070 -0.21300
O 	O 	0.85556 0.71092 0.44231 -0.47900
O 	O 	0.93425 0.71258 0.51690 -0.47600
O 	O 	0.85732 0.30810 0.04672 -0.46900
O 	O 	0.93597 0.31527 0.11919 -0.46700
O 	O 	0.94590 0.60890 0.29760 -0.19700
O 	O 	0.84290 0.44150 0.23130 -0.25100
Zn	Zn	0.84750 0.75283 0.49499 1.21900
Zn	Zn	0.95187 0.74735 0.59829 1.21600
C 	C 	0.40130 0.30136 0.62780 0.41200
C 	C 	0.40326 0.33381 0.67370 -0.15000
C 	C 	0.44651 0.34396 0.73980 0.08100
H 	H 	0.47420 0.32950 0.75580 0.02100
C 	C 	0.44850 0.37487 0.78100 -0.15500
H 	H 	0.47740 0.37980 0.82560 0.09200
C 	C 	0.40750 0.39960 0.75710 0.10500
C 	C 	0.36410 0.38720 0.69170 -0.14800
H 	H 	0.33610 0.40040 0.67600 0.09500
C 	C 	0.36230 0.35570 0.65010 0.08000
H 	H 	0.33340 0.34930 0.60610 0.02000
C 	C 	0.40900 0.43450 0.80070 -0.05000
C 	C 	0.44550 0.47070 0.83160 -0.10300
H 	H 	0.46670 0.46980 0.82640 0.07100
C 	C 	0.44820 0.50800 0.87040 0.12300
C 	C 	0.40980 0.50880 0.86910 -0.04000
C 	C 	0.39200 0.46840 0.86030 -0.08900
H 	H 	0.38110 0.46180 0.88110 0.06300
C 	C 	0.38770 0.43080 0.81770 0.10100
C 	C 	0.36750 0.61130 0.90910 0.10500
H 	H 	0.33870 0.62600 0.88790 0.00300
C 	C 	0.36790 0.57250 0.87650 -0.17900
H 	H 	0.33990 0.56310 0.83310 0.08700
C 	C 	0.40890 0.54830 0.90790 0.11600
C 	C 	0.45080 0.56520 0.97040 -0.16700
H 	H 	0.47970 0.55040 0.99180 0.10300
C 	C 	0.44890 0.60510 0.00090 0.10100
H 	H 	0.47680 0.61590 0.04330 0.01000
C 	C 	0.40755 0.62838 0.97030 -0.18000
C 	C 	0.40679 0.67158 0.00360 0.44700
C 	C 	0.31220 0.39750 0.78830 -0.65500
H 	H 	0.29230 0.42570 0.76310 0.23300
H 	H 	0.32380 0.39770 0.83340 0.23700
C 	C 	0.28670 0.35170 0.75120 1.11500
H 	H 	0.30990 0.33190 0.75710 -0.28600
H 	H 	0.26320 0.36070 0.70340 -0.30600
C 	C 	0.26410 0.32110 0.75870 -1.44800
H 	H 	0.23180 0.33320 0.72630 0.45900
H 	H 	0.26310 0.29130 0.73870 0.44700
C 	C 	0.27020 0.30280 0.81790 1.16400
H 	H 	0.30100 0.31330 0.86040 -0.32200
H 	H 	0.24630 0.31820 0.81440 -0.33700
C 	C 	0.26650 0.24720 0.82140 -1.62600
H 	H 	0.27080 0.23950 0.85970 0.51300
H 	H 	0.23580 0.23630 0.78020 0.50100
H 	H 	0.29070 0.23140 0.82640 0.50000
C 	C 	0.52510 0.54060 0.91190 0.07500
H 	H 	0.54090 0.50980 0.93340 0.01000
H 	H 	0.51660 0.54260 0.86900 0.00900
C 	C 	0.55630 0.58100 0.95650 -0.16300
H 	H 	0.58710 0.56520 0.98860 0.07100
H 	H 	0.55710 0.59970 0.92710 0.07600
C 	C 	0.56200 0.62330 0.00360 -0.03400
H 	H 	0.59310 0.62010 0.04950 0.03700
H 	H 	0.53860 0.61760 0.00590 0.05700
C 	C 	0.55680 0.67230 0.98150 -0.15000
H 	H 	0.58550 0.69030 0.01760 0.07400
H 	H 	0.55280 0.67220 0.94210 0.07400
C 	C 	0.39435 0.19915 0.46250 0.44000
C 	C 	0.39405 0.16701 0.41790 -0.21300
C 	C 	0.35130 0.14800 0.35730 0.16500
H 	H 	0.32260 0.15670 0.34320 -0.05800
C 	C 	0.35180 0.11680 0.31890 -0.24500
H 	H 	0.32280 0.10650 0.27740 0.10900
C 	C 	0.39180 0.10010 0.33760 0.17300
C 	C 	0.43310 0.11760 0.39630 -0.21600
H 	H 	0.46150 0.10730 0.41080 0.11900
C 	C 	0.43400 0.15150 0.43660 0.14400
H 	H 	0.46310 0.16300 0.47680 -0.00200
C 	C 	0.39230 0.06240 0.29890 -0.06100
C 	C 	0.36650 0.02140 0.28010 -0.11500
H 	H 	0.35010 0.01760 0.29320 0.07200
C 	C 	0.36340 0.98420 0.24160 0.15500
C 	C 	0.38900 0.99080 0.22230 -0.05000
C 	C 	0.41440 0.03180 0.24250 -0.11500
H 	H 	0.43160 0.03570 0.23070 0.07500
C 	C 	0.41690 0.06740 0.27830 0.13600
C 	C 	0.43504 0.89811 0.17650 0.09800
H 	H 	0.46380 0.88890 0.19100 0.01000
C 	C 	0.43370 0.93610 0.20850 -0.18000
H 	H 	0.46180 0.95170 0.24500 0.09400
C 	C 	0.39200 0.95095 0.18740 0.13200
C 	C 	0.35140 0.92740 0.13460 -0.17400
H 	H 	0.32280 0.93660 0.12030 0.10600
C 	C 	0.35210 0.88927 0.10130 0.09500
H 	H 	0.32380 0.87440 0.06390 0.01100
C 	C 	0.39401 0.87400 0.12340 -0.16400
C 	C 	0.39571 0.82876 0.09340 0.41100
C 	C 	0.43970 0.13110 0.23920 -0.04000
H 	H 	0.46980 0.14250 0.25620 0.04800
H 	H 	0.42620 0.10760 0.20320 0.04400
C 	C 	0.30900 0.93940 0.24050 0.23300
H 	H 	0.32250 0.95710 0.28140 -0.04500
H 	H 	0.30500 0.90590 0.24660 -0.03000
C 	C 	0.26830 0.95740 0.18960 -0.32500
H 	H 	0.24950 0.96310 0.20030 0.11900
H 	H 	0.27130 0.98740 0.17420 0.13100
C 	C 	0.25170 0.24310 0.36600 0.30600
H 	H 	0.26760 0.23080 0.35460 -0.10500
C 	C 	0.20160 0.24450 0.31380 -0.41400
H 	H 	0.18710 0.23440 0.27040 0.16800
C 	C 	0.17612 0.25793 0.32190 0.32100
C 	C 	0.20090 0.27230 0.38430 -0.35800
H 	H 	0.18550 0.28420 0.39680 0.16200
C 	C 	0.24970 0.26980 0.43160 0.25300
H 	H 	0.26550 0.27950 0.47570 -0.05900
C 	C 	0.04859 0.28130 0.22780 0.04600
H 	H 	0.03170 0.29710 0.23560 0.01700
C 	C 	0.09713 0.28330 0.27740 -0.05300
H 	H 	0.11260 0.30090 0.31720 0.05300
C 	C 	0.12289 0.25897 0.26760 -0.06200
C 	C 	0.09822 0.23510 0.20740 -0.06100
H 	H 	0.11440 0.21880 0.19870 0.05700
C 	C 	0.04950 0.23530 0.15980 0.05200
H 	H 	0.03350 0.21870 0.11910 0.01200
N 	N 	0.27506 0.25606 0.42220 -0.35900
N 	N 	0.02402 0.25761 0.16840 -0.23800
O 	O 	0.36126 0.29204 0.57033 -0.46700
O 	O 	0.43948 0.28423 0.64984 -0.46900
O 	O 	0.36644 0.68920 0.97282 -0.48600
O 	O 	0.44439 0.68815 0.05408 -0.48600
O 	O 	0.35330 0.39460 0.79160 -0.09900
O 	O 	0.48300 0.54490 0.90070 -0.21300
O 	O 	0.35556 0.21092 0.44231 -0.47900
O 	O 	0.43425 0.21258 0.51690 -0.47600
O 	O 	0.35732 0.80810 0.04672 -0.46900
O 	O 	0.43597 0.81527 0.11919 -0.46700
O 	O 	0.44590 0.10890 0.29760 -0.19700
O 	O 	0.34290 0.94150 0.23130 -0.25100
Zn	Zn	0.34750 0.25283 0.49499 1.21900
Zn	Zn	0.45187 0.24735 0.59829 1.21600
