data_crystal

_cell_length_a 38.82980
_cell_length_b 27.73390
_cell_length_c 27.04550
_cell_angle_alpha 90.00000
_cell_angle_beta  133.54500
_cell_angle_gamma 90.00000

_symmetry_space_group_name_	'P 1'
_symmetry_space_group_name_H-M	'P 1'

loop_
_symmetry_equiv_pos_as_xyz
  x,y,z

loop_
_atom_site_label
_atom_site_type_symbol
_atom_site_fract_x
_atom_site_fract_y
_atom_site_fract_z
_atom_site_charge
C 	C 	0.10443 0.82848 0.80010 0.41600
C 	C 	0.10644 0.87295 0.83520 -0.15200
C 	C 	0.06502 0.89785 0.80550 0.08400
H 	H 	0.03630 0.88900 0.76280 0.01800
C 	C 	0.06710 0.93617 0.84050 -0.15700
H 	H 	0.03940 0.95290 0.82070 0.08800
C 	C 	0.10880 0.94994 0.90330 0.11100
C 	C 	0.14980 0.92590 0.93090 -0.15800
H 	H 	0.17860 0.93510 0.97340 0.11000
C 	C 	0.14853 0.88863 0.89660 0.09300
H 	H 	0.17670 0.87370 0.91520 0.01600
C 	C 	0.08150 0.06790 0.94340 0.18200
C 	C 	0.08310 0.03000 0.90990 -0.13400
H 	H 	0.06600 0.03310 0.86370 0.08600
C 	C 	0.10770 0.99110 0.94180 -0.01100
C 	C 	0.13330 0.98350 0.01170 0.11700
C 	C 	0.13780 0.01960 0.05070 -0.06900
H 	H 	0.15730 0.01520 0.09740 0.08100
C 	C 	0.11190 0.06500 0.01870 -0.09400
C 	C 	0.06700 0.15260 0.06600 0.22200
H 	H 	0.03820 0.16490 0.04840 -0.02100
C 	C 	0.06780 0.12150 0.02740 -0.27900
H 	H 	0.03980 0.11410 0.98310 0.14600
C 	C 	0.10990 0.10120 0.05390 0.23900
C 	C 	0.15130 0.11710 0.11630 -0.31400
H 	H 	0.18070 0.10700 0.13380 0.18600
C 	C 	0.14800 0.14780 0.15160 0.26200
H 	H 	0.17610 0.15730 0.19470 -0.05300
C 	C 	0.10719 0.16551 0.12870 -0.27300
C 	C 	0.10655 0.19976 0.17180 0.46200
C 	C 	0.02920 0.11580 0.82990 0.01700
H 	H 	0.00940 0.08860 0.80100 0.02500
H 	H 	0.04980 0.12490 0.82310 0.04300
C 	C 	0.99890 0.16070 0.82170 -0.14300
H 	H 	0.00420 0.16300 0.86230 0.10500
H 	H 	0.96530 0.15480 0.78320 0.08800
C 	C 	0.09325 0.67273 0.68670 0.41900
C 	C 	0.09052 0.62939 0.65050 -0.14500
C 	C 	0.04714 0.60700 0.59700 0.08800
H 	H 	0.01940 0.61740 0.58510 0.01900
C 	C 	0.04560 0.56912 0.56190 -0.15600
H 	H 	0.01620 0.55630 0.52420 0.11000
C 	C 	0.08540 0.55023 0.58080 0.11500
C 	C 	0.12960 0.57200 0.63680 -0.14700
H 	H 	0.15760 0.55940 0.65160 0.09900
C 	C 	0.13136 0.61160 0.66960 0.08600
H 	H 	0.16040 0.62640 0.70480 0.02900
C 	C 	0.08570 0.51090 0.54730 -0.02100
C 	C 	0.05190 0.50780 0.47560 0.11200
C 	C 	0.11910 0.43550 0.54560 0.23500
C 	C 	0.08721 0.43411 0.47620 -0.10800
C 	C 	0.05300 0.47040 0.43880 -0.06100
H 	H 	0.03140 0.47070 0.39150 0.06200
C 	C 	0.11820 0.47150 0.58310 -0.15700
H 	H 	0.13860 0.46900 0.63020 0.10500
C 	C 	0.13607 0.35708 0.42120 0.10000
H 	H 	0.16510 0.35160 0.43430 0.01400
C 	C 	0.13290 0.38943 0.45830 -0.18100
H 	H 	0.16030 0.40470 0.49650 0.11400
C 	C 	0.09030 0.39886 0.43910 0.16000
C 	C 	0.04999 0.37512 0.38160 -0.19300
H 	H 	0.02090 0.38110 0.36800 0.10800
C 	C 	0.05159 0.34293 0.34390 0.11600
C 	C 	0.09579 0.33375 0.36540 -0.16200
C 	C 	0.09794 0.30081 0.32290 0.41400
C 	C 	0.97160 0.52990 0.35780 -0.02300
H 	H 	0.95450 0.50050 0.34850 0.05400
H 	H 	0.97970 0.53150 0.33100 0.05700
C 	C 	0.17510 0.39160 0.66000 1.36600
H 	H 	0.19870 0.41640 0.68960 -0.35500
H 	H 	0.15040 0.39440 0.66050 -0.33500
C 	C 	0.19960 0.33930 0.68820 -3.41400
H 	H 	0.17970 0.31640 0.65100 1.06900
H 	H 	0.22980 0.34060 0.70080 1.07000
C 	C 	0.20750 0.32200 0.74160 4.36300
H 	H 	0.22210 0.29080 0.75380 -1.28200
H 	H 	0.17790 0.31930 0.72960 -1.23100
H 	H 	0.22820 0.34350 0.77960 -1.23600
C 	C 	0.25160 0.25740 0.43670 0.15300
H 	H 	0.23560 0.25570 0.45090 -0.02800
C 	C 	0.29600 0.25980 0.48250 -0.20200
H 	H 	0.31030 0.26480 0.52720 0.11000
C 	C 	0.32460 0.25540 0.47010 0.08500
C 	C 	0.29890 0.25340 0.40000 -0.14500
H 	H 	0.31470 0.25110 0.38550 0.05400
C 	C 	0.24880 0.25490 0.35220 0.07900
H 	H 	0.23200 0.25430 0.30600 0.00400
C 	C 	0.45064 0.28150 0.62970 0.09200
H 	H 	0.46700 0.29800 0.67050 0.00100
C 	C 	0.40207 0.28184 0.58260 -0.13000
H 	H 	0.38610 0.29780 0.59210 0.08600
C 	C 	0.37705 0.25881 0.52170 0.05300
C 	C 	0.40299 0.23710 0.51060 -0.12100
H 	H 	0.38750 0.22220 0.46900 0.05900
C 	C 	0.45070 0.23720 0.55980 0.08800
H 	H 	0.46730 0.22140 0.55130 0.00500
N 	N 	0.22502 0.25706 0.36983 -0.26400
N 	N 	0.47541 0.25852 0.61961 -0.25100
O 	O 	0.14216 0.80701 0.82959 -0.47600
O 	O 	0.06400 0.81538 0.74613 -0.46700
O 	O 	0.05760 0.10700 0.90890 -0.21900
O 	O 	0.16200 0.94220 0.04790 -0.17200
O 	O 	0.14482 0.21150 0.22938 -0.48500
O 	O 	0.06634 0.21246 0.14734 -0.47400
O 	O 	0.13321 0.68893 0.73586 -0.46800
O 	O 	0.05439 0.68991 0.66212 -0.46400
O 	O 	0.01470 0.54010 0.43600 -0.18200
O 	O 	0.15230 0.39960 0.58330 -0.41200
O 	O 	0.13839 0.29315 0.34518 -0.46700
O 	O 	0.06003 0.28353 0.26935 -0.47100
Zn	Zn	0.15234 0.25326 0.29736 1.21700
Zn	Zn	0.04800 0.24670 0.19342 1.21600
C 	C 	0.60443 0.32848 0.80010 0.41500
C 	C 	0.60644 0.37295 0.83520 -0.15300
C 	C 	0.56502 0.39785 0.80550 0.08300
H 	H 	0.53630 0.38900 0.76280 0.01700
C 	C 	0.56710 0.43617 0.84050 -0.15800
H 	H 	0.53940 0.45290 0.82070 0.08700
C 	C 	0.60880 0.44994 0.90330 0.11000
C 	C 	0.64980 0.42590 0.93090 -0.15900
H 	H 	0.67860 0.43510 0.97340 0.10900
C 	C 	0.64853 0.38863 0.89660 0.09200
H 	H 	0.67670 0.37370 0.91520 0.01500
C 	C 	0.58150 0.56790 0.94340 0.18100
C 	C 	0.58310 0.53000 0.90990 -0.13400
H 	H 	0.56600 0.53310 0.86370 0.08400
C 	C 	0.60770 0.49110 0.94180 -0.01300
C 	C 	0.63330 0.48350 0.01170 0.11700
C 	C 	0.63780 0.51960 0.05070 -0.07100
H 	H 	0.65730 0.51520 0.09740 0.08100
C 	C 	0.61190 0.56500 0.01870 -0.09500
C 	C 	0.56700 0.65260 0.06600 0.22100
H 	H 	0.53820 0.66490 0.04840 -0.02200
C 	C 	0.56780 0.62150 0.02740 -0.27900
H 	H 	0.53980 0.61410 0.98310 0.14500
C 	C 	0.60990 0.60120 0.05390 0.23900
C 	C 	0.65130 0.61710 0.11630 -0.31400
H 	H 	0.68070 0.60700 0.13380 0.18500
C 	C 	0.64800 0.64780 0.15160 0.26200
H 	H 	0.67610 0.65730 0.19470 -0.05300
C 	C 	0.60719 0.66551 0.12870 -0.27300
C 	C 	0.60655 0.69976 0.17180 0.46200
C 	C 	0.52920 0.61580 0.82990 0.01700
H 	H 	0.50940 0.58860 0.80100 0.02500
H 	H 	0.54980 0.62490 0.82310 0.04300
C 	C 	0.49890 0.66070 0.82170 -0.14300
H 	H 	0.50420 0.66300 0.86230 0.10500
H 	H 	0.46530 0.65480 0.78320 0.08800
C 	C 	0.59325 0.17273 0.68670 0.41900
C 	C 	0.59052 0.12939 0.65050 -0.14500
C 	C 	0.54714 0.10700 0.59700 0.08800
H 	H 	0.51940 0.11740 0.58510 0.01900
C 	C 	0.54560 0.06912 0.56190 -0.15600
H 	H 	0.51620 0.05630 0.52420 0.11000
C 	C 	0.58540 0.05023 0.58080 0.11500
C 	C 	0.62960 0.07200 0.63680 -0.14700
H 	H 	0.65760 0.05940 0.65160 0.09900
C 	C 	0.63136 0.11160 0.66960 0.08600
H 	H 	0.66040 0.12640 0.70480 0.02900
C 	C 	0.58570 0.01090 0.54730 -0.02100
C 	C 	0.55190 0.00780 0.47560 0.11200
C 	C 	0.61910 0.93550 0.54560 0.23500
C 	C 	0.58721 0.93411 0.47620 -0.10800
C 	C 	0.55300 0.97040 0.43880 -0.06100
H 	H 	0.53140 0.97070 0.39150 0.06200
C 	C 	0.61820 0.97150 0.58310 -0.15700
H 	H 	0.63860 0.96900 0.63020 0.10500
C 	C 	0.63607 0.85708 0.42120 0.10000
H 	H 	0.66510 0.85160 0.43430 0.01400
C 	C 	0.63290 0.88943 0.45830 -0.18100
H 	H 	0.66030 0.90470 0.49650 0.11400
C 	C 	0.59030 0.89886 0.43910 0.16000
C 	C 	0.54999 0.87512 0.38160 -0.19300
H 	H 	0.52090 0.88110 0.36800 0.10800
C 	C 	0.55159 0.84293 0.34390 0.11600
C 	C 	0.59579 0.83375 0.36540 -0.16200
C 	C 	0.59794 0.80081 0.32290 0.41400
C 	C 	0.47160 0.02990 0.35780 -0.02300
H 	H 	0.45450 0.00050 0.34850 0.05400
H 	H 	0.47970 0.03150 0.33100 0.05700
C 	C 	0.67510 0.89160 0.66000 1.36600
H 	H 	0.69870 0.91640 0.68960 -0.35500
H 	H 	0.65040 0.89440 0.66050 -0.33400
C 	C 	0.69960 0.83930 0.68820 -3.41400
H 	H 	0.67970 0.81640 0.65100 1.06900
H 	H 	0.72980 0.84060 0.70080 1.07000
C 	C 	0.70750 0.82200 0.74160 4.36300
H 	H 	0.72210 0.79080 0.75380 -1.28200
H 	H 	0.67790 0.81930 0.72960 -1.23100
H 	H 	0.72820 0.84350 0.77960 -1.23600
C 	C 	0.75160 0.75740 0.43670 0.15300
H 	H 	0.73560 0.75570 0.45090 -0.02800
C 	C 	0.79600 0.75980 0.48250 -0.20200
H 	H 	0.81030 0.76480 0.52720 0.11000
C 	C 	0.82460 0.75540 0.47010 0.08500
C 	C 	0.79890 0.75340 0.40000 -0.14500
H 	H 	0.81470 0.75110 0.38550 0.05400
C 	C 	0.74880 0.75490 0.35220 0.07900
H 	H 	0.73200 0.75430 0.30600 0.00400
C 	C 	0.95064 0.78150 0.62970 0.09200
H 	H 	0.96700 0.79800 0.67050 0.00100
C 	C 	0.90207 0.78184 0.58260 -0.13000
H 	H 	0.88610 0.79780 0.59210 0.08600
C 	C 	0.87705 0.75881 0.52170 0.05300
C 	C 	0.90299 0.73710 0.51060 -0.12100
H 	H 	0.88750 0.72220 0.46900 0.05900
C 	C 	0.95070 0.73720 0.55980 0.08800
H 	H 	0.96730 0.72140 0.55130 0.00500
N 	N 	0.72502 0.75706 0.36983 -0.26400
N 	N 	0.97541 0.75852 0.61961 -0.25100
O 	O 	0.64216 0.30701 0.82959 -0.47600
O 	O 	0.56400 0.31538 0.74613 -0.46700
O 	O 	0.55760 0.60700 0.90890 -0.21900
O 	O 	0.66200 0.44220 0.04790 -0.17200
O 	O 	0.64482 0.71150 0.22938 -0.48500
O 	O 	0.56634 0.71246 0.14734 -0.47400
O 	O 	0.63321 0.18893 0.73586 -0.46800
O 	O 	0.55439 0.18991 0.66212 -0.46400
O 	O 	0.51470 0.04010 0.43600 -0.18200
O 	O 	0.65230 0.89960 0.58330 -0.41200
O 	O 	0.63839 0.79315 0.34518 -0.46700
O 	O 	0.56003 0.78353 0.26935 -0.47100
Zn	Zn	0.65234 0.75326 0.29736 1.21700
Zn	Zn	0.54800 0.74670 0.19342 1.21600
C 	C 	0.10443 0.17152 0.30010 0.41500
C 	C 	0.10644 0.12705 0.33520 -0.15300
C 	C 	0.06502 0.10215 0.30550 0.08300
H 	H 	0.03630 0.11100 0.26280 0.01700
C 	C 	0.06710 0.06383 0.34050 -0.15800
H 	H 	0.03940 0.04710 0.32070 0.08700
C 	C 	0.10880 0.05006 0.40330 0.11000
C 	C 	0.14980 0.07410 0.43090 -0.15900
H 	H 	0.17860 0.06490 0.47340 0.10900
C 	C 	0.14853 0.11137 0.39660 0.09200
H 	H 	0.17670 0.12630 0.41520 0.01500
C 	C 	0.08150 0.93210 0.44340 0.18100
C 	C 	0.08310 0.97000 0.40990 -0.13400
H 	H 	0.06600 0.96690 0.36370 0.08400
C 	C 	0.10770 0.00890 0.44180 -0.01300
C 	C 	0.13330 0.01650 0.51170 0.11700
C 	C 	0.13780 0.98040 0.55070 -0.07100
H 	H 	0.15730 0.98480 0.59740 0.08100
C 	C 	0.11190 0.93500 0.51870 -0.09500
C 	C 	0.06700 0.84740 0.56600 0.22100
H 	H 	0.03820 0.83510 0.54840 -0.02200
C 	C 	0.06780 0.87850 0.52740 -0.27900
H 	H 	0.03980 0.88590 0.48310 0.14500
C 	C 	0.10990 0.89880 0.55390 0.23900
C 	C 	0.15130 0.88290 0.61630 -0.31400
H 	H 	0.18070 0.89300 0.63380 0.18500
C 	C 	0.14800 0.85220 0.65160 0.26200
H 	H 	0.17610 0.84270 0.69470 -0.05300
C 	C 	0.10719 0.83449 0.62870 -0.27200
C 	C 	0.10655 0.80024 0.67180 0.46200
C 	C 	0.02920 0.88420 0.32990 0.01700
H 	H 	0.00940 0.91140 0.30100 0.02500
H 	H 	0.04980 0.87510 0.32310 0.04300
C 	C 	0.99890 0.83930 0.32170 -0.14300
H 	H 	0.00420 0.83700 0.36230 0.10400
H 	H 	0.96530 0.84520 0.28320 0.08800
C 	C 	0.09325 0.32727 0.18670 0.41900
C 	C 	0.09052 0.37061 0.15050 -0.14500
C 	C 	0.04714 0.39300 0.09700 0.08800
H 	H 	0.01940 0.38260 0.08510 0.01900
C 	C 	0.04560 0.43088 0.06190 -0.15600
H 	H 	0.01620 0.44370 0.02420 0.11000
C 	C 	0.08540 0.44977 0.08080 0.11500
C 	C 	0.12960 0.42800 0.13680 -0.14700
H 	H 	0.15760 0.44060 0.15160 0.09900
C 	C 	0.13136 0.38840 0.16960 0.08600
H 	H 	0.16040 0.37360 0.20480 0.02900
C 	C 	0.08570 0.48910 0.04730 -0.02100
C 	C 	0.05190 0.49220 0.97560 0.11200
C 	C 	0.11910 0.56450 0.04560 0.23500
C 	C 	0.08721 0.56589 0.97620 -0.10700
C 	C 	0.05300 0.52960 0.93880 -0.06100
H 	H 	0.03140 0.52930 0.89150 0.06200
C 	C 	0.11820 0.52850 0.08310 -0.15700
H 	H 	0.13860 0.53100 0.13020 0.10500
C 	C 	0.13607 0.64292 0.92120 0.10000
H 	H 	0.16510 0.64840 0.93430 0.01400
C 	C 	0.13290 0.61057 0.95830 -0.18100
H 	H 	0.16030 0.59530 0.99650 0.11400
C 	C 	0.09030 0.60114 0.93910 0.15900
C 	C 	0.04999 0.62488 0.88160 -0.19300
H 	H 	0.02090 0.61890 0.86800 0.10800
C 	C 	0.05159 0.65707 0.84390 0.11600
C 	C 	0.09579 0.66625 0.86540 -0.16200
C 	C 	0.09794 0.69919 0.82290 0.41400
C 	C 	0.97160 0.47010 0.85780 -0.02300
H 	H 	0.95450 0.49950 0.84850 0.05400
H 	H 	0.97970 0.46850 0.83100 0.05700
C 	C 	0.17510 0.60840 0.16000 1.36600
H 	H 	0.19870 0.58360 0.18960 -0.35500
H 	H 	0.15040 0.60560 0.16050 -0.33500
C 	C 	0.19960 0.66070 0.18820 -3.41400
H 	H 	0.17970 0.68360 0.15100 1.06900
H 	H 	0.22980 0.65940 0.20080 1.07000
C 	C 	0.20750 0.67800 0.24160 4.36300
H 	H 	0.22210 0.70920 0.25380 -1.28200
H 	H 	0.17790 0.68070 0.22960 -1.23100
H 	H 	0.22820 0.65650 0.27960 -1.23600
C 	C 	0.25160 0.74260 0.93670 0.15300
H 	H 	0.23560 0.74430 0.95090 -0.02800
C 	C 	0.29600 0.74020 0.98250 -0.20200
H 	H 	0.31030 0.73520 0.02720 0.11000
C 	C 	0.32460 0.74460 0.97010 0.08500
C 	C 	0.29890 0.74660 0.90000 -0.14500
H 	H 	0.31470 0.74890 0.88550 0.05300
C 	C 	0.24880 0.74510 0.85220 0.07900
H 	H 	0.23200 0.74570 0.80600 0.00400
C 	C 	0.45064 0.71850 0.12970 0.09200
H 	H 	0.46700 0.70200 0.17050 0.00100
C 	C 	0.40207 0.71816 0.08260 -0.13000
H 	H 	0.38610 0.70220 0.09210 0.08600
C 	C 	0.37705 0.74119 0.02170 0.05300
C 	C 	0.40299 0.76290 0.01060 -0.12100
H 	H 	0.38750 0.77780 0.96900 0.05900
C 	C 	0.45070 0.76280 0.05980 0.08800
H 	H 	0.46730 0.77860 0.05130 0.00500
N 	N 	0.22502 0.74294 0.86983 -0.26400
N 	N 	0.47541 0.74148 0.11961 -0.25100
O 	O 	0.14216 0.19299 0.32959 -0.47600
O 	O 	0.06400 0.18462 0.24613 -0.46700
O 	O 	0.05760 0.89300 0.40890 -0.21900
O 	O 	0.16200 0.05780 0.54790 -0.17200
O 	O 	0.14482 0.78850 0.72938 -0.48500
O 	O 	0.06634 0.78754 0.64734 -0.47400
O 	O 	0.13321 0.31107 0.23586 -0.46800
O 	O 	0.05439 0.31009 0.16212 -0.46400
O 	O 	0.01470 0.45990 0.93600 -0.18200
O 	O 	0.15230 0.60040 0.08330 -0.41200
O 	O 	0.13839 0.70685 0.84518 -0.46700
O 	O 	0.06003 0.71647 0.76935 -0.47100
Zn	Zn	0.15234 0.74674 0.79736 1.21700
Zn	Zn	0.04800 0.75330 0.69342 1.21600
C 	C 	0.60443 0.67152 0.30010 0.41500
C 	C 	0.60644 0.62705 0.33520 -0.15300
C 	C 	0.56502 0.60215 0.30550 0.08300
H 	H 	0.53630 0.61100 0.26280 0.01700
C 	C 	0.56710 0.56383 0.34050 -0.15800
H 	H 	0.53940 0.54710 0.32070 0.08700
C 	C 	0.60880 0.55006 0.40330 0.11000
C 	C 	0.64980 0.57410 0.43090 -0.15900
H 	H 	0.67860 0.56490 0.47340 0.10900
C 	C 	0.64853 0.61137 0.39660 0.09200
H 	H 	0.67670 0.62630 0.41520 0.01500
C 	C 	0.58150 0.43210 0.44340 0.18100
C 	C 	0.58310 0.47000 0.40990 -0.13400
H 	H 	0.56600 0.46690 0.36370 0.08400
C 	C 	0.60770 0.50890 0.44180 -0.01300
C 	C 	0.63330 0.51650 0.51170 0.11700
C 	C 	0.63780 0.48040 0.55070 -0.07100
H 	H 	0.65730 0.48480 0.59740 0.08100
C 	C 	0.61190 0.43500 0.51870 -0.09500
C 	C 	0.56700 0.34740 0.56600 0.22100
H 	H 	0.53820 0.33510 0.54840 -0.02200
C 	C 	0.56780 0.37850 0.52740 -0.27900
H 	H 	0.53980 0.38590 0.48310 0.14500
C 	C 	0.60990 0.39880 0.55390 0.23900
C 	C 	0.65130 0.38290 0.61630 -0.31400
H 	H 	0.68070 0.39300 0.63380 0.18500
C 	C 	0.64800 0.35220 0.65160 0.26200
H 	H 	0.67610 0.34270 0.69470 -0.05300
C 	C 	0.60719 0.33449 0.62870 -0.27200
C 	C 	0.60655 0.30024 0.67180 0.46200
C 	C 	0.52920 0.38420 0.32990 0.01700
H 	H 	0.50940 0.41140 0.30100 0.02500
H 	H 	0.54980 0.37510 0.32310 0.04300
C 	C 	0.49890 0.33930 0.32170 -0.14300
H 	H 	0.50420 0.33700 0.36230 0.10500
H 	H 	0.46530 0.34520 0.28320 0.08800
C 	C 	0.59325 0.82727 0.18670 0.41900
C 	C 	0.59052 0.87061 0.15050 -0.14500
C 	C 	0.54714 0.89300 0.09700 0.08800
H 	H 	0.51940 0.88260 0.08510 0.01900
C 	C 	0.54560 0.93088 0.06190 -0.15600
H 	H 	0.51620 0.94370 0.02420 0.11000
C 	C 	0.58540 0.94977 0.08080 0.11500
C 	C 	0.62960 0.92800 0.13680 -0.14700
H 	H 	0.65760 0.94060 0.15160 0.09900
C 	C 	0.63136 0.88840 0.16960 0.08600
H 	H 	0.66040 0.87360 0.20480 0.02900
C 	C 	0.58570 0.98910 0.04730 -0.02100
C 	C 	0.55190 0.99220 0.97560 0.11200
C 	C 	0.61910 0.06450 0.04560 0.23500
C 	C 	0.58721 0.06589 0.97620 -0.10800
C 	C 	0.55300 0.02960 0.93880 -0.06100
H 	H 	0.53140 0.02930 0.89150 0.06200
C 	C 	0.61820 0.02850 0.08310 -0.15700
H 	H 	0.63860 0.03100 0.13020 0.10500
C 	C 	0.63607 0.14292 0.92120 0.10000
H 	H 	0.66510 0.14840 0.93430 0.01400
C 	C 	0.63290 0.11057 0.95830 -0.18100
H 	H 	0.66030 0.09530 0.99650 0.11400
C 	C 	0.59030 0.10114 0.93910 0.16000
C 	C 	0.54999 0.12488 0.88160 -0.19300
H 	H 	0.52090 0.11890 0.86800 0.10800
C 	C 	0.55159 0.15707 0.84390 0.11600
C 	C 	0.59579 0.16625 0.86540 -0.16200
C 	C 	0.59794 0.19919 0.82290 0.41400
C 	C 	0.47160 0.97010 0.85780 -0.02300
H 	H 	0.45450 0.99950 0.84850 0.05400
H 	H 	0.47970 0.96850 0.83100 0.05700
C 	C 	0.67510 0.10840 0.16000 1.36600
H 	H 	0.69870 0.08360 0.18960 -0.35500
H 	H 	0.65040 0.10560 0.16050 -0.33500
C 	C 	0.69960 0.16070 0.18820 -3.41500
H 	H 	0.67970 0.18360 0.15100 1.06900
H 	H 	0.72980 0.15940 0.20080 1.07000
C 	C 	0.70750 0.17800 0.24160 4.36300
H 	H 	0.72210 0.20920 0.25380 -1.28200
H 	H 	0.67790 0.18070 0.22960 -1.23100
H 	H 	0.72820 0.15650 0.27960 -1.23600
C 	C 	0.75160 0.24260 0.93670 0.15300
H 	H 	0.73560 0.24430 0.95090 -0.02800
C 	C 	0.79600 0.24020 0.98250 -0.20300
H 	H 	0.81030 0.23520 0.02720 0.11000
C 	C 	0.82460 0.24460 0.97010 0.08500
C 	C 	0.79890 0.24660 0.90000 -0.14500
H 	H 	0.81470 0.24890 0.88550 0.05400
C 	C 	0.74880 0.24510 0.85220 0.07900
H 	H 	0.73200 0.24570 0.80600 0.00400
C 	C 	0.95064 0.21850 0.12970 0.09200
H 	H 	0.96700 0.20200 0.17050 0.00200
C 	C 	0.90207 0.21816 0.08260 -0.13000
H 	H 	0.88610 0.20220 0.09210 0.08600
C 	C 	0.87705 0.24119 0.02170 0.05300
C 	C 	0.90299 0.26290 0.01060 -0.12100
H 	H 	0.88750 0.27780 0.96900 0.05900
C 	C 	0.95070 0.26280 0.05980 0.08700
H 	H 	0.96730 0.27860 0.05130 0.00500
N 	N 	0.72502 0.24294 0.86983 -0.26400
N 	N 	0.97541 0.24148 0.11961 -0.25000
O 	O 	0.64216 0.69299 0.32959 -0.47600
O 	O 	0.56400 0.68462 0.24613 -0.46700
O 	O 	0.55760 0.39300 0.40890 -0.21900
O 	O 	0.66200 0.55780 0.54790 -0.17200
O 	O 	0.64482 0.28850 0.72938 -0.48500
O 	O 	0.56634 0.28754 0.64734 -0.47400
O 	O 	0.63321 0.81107 0.23586 -0.46800
O 	O 	0.55439 0.81009 0.16212 -0.46400
O 	O 	0.51470 0.95990 0.93600 -0.18200
O 	O 	0.65230 0.10040 0.08330 -0.41200
O 	O 	0.63839 0.20685 0.84518 -0.46700
O 	O 	0.56003 0.21647 0.76935 -0.47100
Zn	Zn	0.65234 0.24674 0.79736 1.21700
Zn	Zn	0.54800 0.25330 0.69342 1.21600
C 	C 	0.89557 0.82848 0.69990 0.41500
C 	C 	0.89356 0.87295 0.66480 -0.15300
C 	C 	0.93498 0.89785 0.69450 0.08300
H 	H 	0.96370 0.88900 0.73720 0.01700
C 	C 	0.93290 0.93617 0.65950 -0.15800
H 	H 	0.96060 0.95290 0.67930 0.08700
C 	C 	0.89120 0.94994 0.59670 0.11000
C 	C 	0.85020 0.92590 0.56910 -0.15900
H 	H 	0.82140 0.93510 0.52660 0.10900
C 	C 	0.85147 0.88863 0.60340 0.09200
H 	H 	0.82330 0.87370 0.58480 0.01500
C 	C 	0.91850 0.06790 0.55660 0.18100
C 	C 	0.91690 0.03000 0.59010 -0.13400
H 	H 	0.93400 0.03310 0.63630 0.08400
C 	C 	0.89230 0.99110 0.55820 -0.01300
C 	C 	0.86670 0.98350 0.48830 0.11700
C 	C 	0.86220 0.01960 0.44930 -0.07100
H 	H 	0.84270 0.01520 0.40260 0.08100
C 	C 	0.88810 0.06500 0.48130 -0.09500
C 	C 	0.93300 0.15260 0.43400 0.22100
H 	H 	0.96180 0.16490 0.45160 -0.02200
C 	C 	0.93220 0.12150 0.47260 -0.27900
H 	H 	0.96020 0.11410 0.51690 0.14500
C 	C 	0.89010 0.10120 0.44610 0.23900
C 	C 	0.84870 0.11710 0.38370 -0.31400
H 	H 	0.81930 0.10700 0.36620 0.18500
C 	C 	0.85200 0.14780 0.34840 0.26200
H 	H 	0.82390 0.15730 0.30530 -0.05300
C 	C 	0.89281 0.16551 0.37130 -0.27200
C 	C 	0.89345 0.19976 0.32820 0.46200
C 	C 	0.97080 0.11580 0.67010 0.01700
H 	H 	0.99060 0.08860 0.69900 0.02500
H 	H 	0.95020 0.12490 0.67690 0.04300
C 	C 	0.00110 0.16070 0.67830 -0.14300
H 	H 	0.99580 0.16300 0.63770 0.10400
H 	H 	0.03470 0.15480 0.71680 0.08800
C 	C 	0.90675 0.67273 0.81330 0.41900
C 	C 	0.90948 0.62939 0.84950 -0.14500
C 	C 	0.95286 0.60700 0.90300 0.08800
H 	H 	0.98060 0.61740 0.91490 0.01900
C 	C 	0.95440 0.56912 0.93810 -0.15600
H 	H 	0.98380 0.55630 0.97580 0.11000
C 	C 	0.91460 0.55023 0.91920 0.11500
C 	C 	0.87040 0.57200 0.86320 -0.14700
H 	H 	0.84240 0.55940 0.84840 0.09900
C 	C 	0.86864 0.61160 0.83040 0.08600
H 	H 	0.83960 0.62640 0.79520 0.02900
C 	C 	0.91430 0.51090 0.95270 -0.02100
C 	C 	0.94810 0.50780 0.02440 0.11200
C 	C 	0.88090 0.43550 0.95440 0.23500
C 	C 	0.91279 0.43411 0.02380 -0.10700
C 	C 	0.94700 0.47040 0.06120 -0.06100
H 	H 	0.96860 0.47070 0.10850 0.06200
C 	C 	0.88180 0.47150 0.91690 -0.15700
H 	H 	0.86140 0.46900 0.86980 0.10500
C 	C 	0.86393 0.35708 0.07880 0.10000
H 	H 	0.83490 0.35160 0.06570 0.01400
C 	C 	0.86710 0.38943 0.04170 -0.18100
H 	H 	0.83970 0.40470 0.00350 0.11400
C 	C 	0.90970 0.39886 0.06090 0.15900
C 	C 	0.95001 0.37512 0.11840 -0.19300
H 	H 	0.97910 0.38110 0.13200 0.10800
C 	C 	0.94841 0.34293 0.15610 0.11600
C 	C 	0.90421 0.33375 0.13460 -0.16200
C 	C 	0.90206 0.30081 0.17710 0.41400
C 	C 	0.02840 0.52990 0.14220 -0.02300
H 	H 	0.04550 0.50050 0.15150 0.05400
H 	H 	0.02030 0.53150 0.16900 0.05700
C 	C 	0.82490 0.39160 0.84000 1.36600
H 	H 	0.80130 0.41640 0.81040 -0.35500
H 	H 	0.84960 0.39440 0.83950 -0.33500
C 	C 	0.80040 0.33930 0.81180 -3.41400
H 	H 	0.82030 0.31640 0.84900 1.06900
H 	H 	0.77020 0.34060 0.79920 1.07000
C 	C 	0.79250 0.32200 0.75840 4.36300
H 	H 	0.77790 0.29080 0.74620 -1.28200
H 	H 	0.82210 0.31930 0.77040 -1.23100
H 	H 	0.77180 0.34350 0.72040 -1.23600
C 	C 	0.74840 0.25740 0.06330 0.15300
H 	H 	0.76440 0.25570 0.04910 -0.02800
C 	C 	0.70400 0.25980 0.01750 -0.20200
H 	H 	0.68970 0.26480 0.97280 0.11000
C 	C 	0.67540 0.25540 0.02990 0.08500
C 	C 	0.70110 0.25340 0.10000 -0.14500
H 	H 	0.68530 0.25110 0.11450 0.05300
C 	C 	0.75120 0.25490 0.14780 0.07900
H 	H 	0.76800 0.25430 0.19400 0.00400
C 	C 	0.54936 0.28150 0.87030 0.09200
H 	H 	0.53300 0.29800 0.82950 0.00100
C 	C 	0.59793 0.28184 0.91740 -0.13000
H 	H 	0.61390 0.29780 0.90790 0.08600
C 	C 	0.62295 0.25881 0.97830 0.05300
C 	C 	0.59701 0.23710 0.98940 -0.12100
H 	H 	0.61250 0.22220 0.03100 0.05900
C 	C 	0.54930 0.23720 0.94020 0.08800
H 	H 	0.53270 0.22140 0.94870 0.00500
N 	N 	0.77498 0.25706 0.13017 -0.26400
N 	N 	0.52459 0.25852 0.88039 -0.25100
O 	O 	0.85784 0.80701 0.67041 -0.47600
O 	O 	0.93600 0.81538 0.75387 -0.46700
O 	O 	0.94240 0.10700 0.59110 -0.21900
O 	O 	0.83800 0.94220 0.45210 -0.17200
O 	O 	0.85518 0.21150 0.27062 -0.48500
O 	O 	0.93366 0.21246 0.35266 -0.47400
O 	O 	0.86679 0.68893 0.76414 -0.46800
O 	O 	0.94561 0.68991 0.83788 -0.46400
O 	O 	0.98530 0.54010 0.06400 -0.18200
O 	O 	0.84770 0.39960 0.91670 -0.41200
O 	O 	0.86161 0.29315 0.15482 -0.46700
O 	O 	0.93997 0.28353 0.23065 -0.47100
Zn	Zn	0.84766 0.25326 0.20264 1.21700
Zn	Zn	0.95200 0.24670 0.30658 1.21600
C 	C 	0.39557 0.32848 0.69990 0.41500
C 	C 	0.39356 0.37295 0.66480 -0.15300
C 	C 	0.43498 0.39785 0.69450 0.08300
H 	H 	0.46370 0.38900 0.73720 0.01700
C 	C 	0.43290 0.43617 0.65950 -0.15800
H 	H 	0.46060 0.45290 0.67930 0.08700
C 	C 	0.39120 0.44994 0.59670 0.11000
C 	C 	0.35020 0.42590 0.56910 -0.15900
H 	H 	0.32140 0.43510 0.52660 0.10900
C 	C 	0.35147 0.38863 0.60340 0.09200
H 	H 	0.32330 0.37370 0.58480 0.01500
C 	C 	0.41850 0.56790 0.55660 0.18100
C 	C 	0.41690 0.53000 0.59010 -0.13400
H 	H 	0.43400 0.53310 0.63630 0.08400
C 	C 	0.39230 0.49110 0.55820 -0.01300
C 	C 	0.36670 0.48350 0.48830 0.11700
C 	C 	0.36220 0.51960 0.44930 -0.07100
H 	H 	0.34270 0.51520 0.40260 0.08100
C 	C 	0.38810 0.56500 0.48130 -0.09500
C 	C 	0.43300 0.65260 0.43400 0.22100
H 	H 	0.46180 0.66490 0.45160 -0.02200
C 	C 	0.43220 0.62150 0.47260 -0.27900
H 	H 	0.46020 0.61410 0.51690 0.14500
C 	C 	0.39010 0.60120 0.44610 0.23900
C 	C 	0.34870 0.61710 0.38370 -0.31400
H 	H 	0.31930 0.60700 0.36620 0.18500
C 	C 	0.35200 0.64780 0.34840 0.26200
H 	H 	0.32390 0.65730 0.30530 -0.05300
C 	C 	0.39281 0.66551 0.37130 -0.27200
C 	C 	0.39345 0.69976 0.32820 0.46200
C 	C 	0.47080 0.61580 0.67010 0.01700
H 	H 	0.49060 0.58860 0.69900 0.02500
H 	H 	0.45020 0.62490 0.67690 0.04300
C 	C 	0.50110 0.66070 0.67830 -0.14300
H 	H 	0.49580 0.66300 0.63770 0.10500
H 	H 	0.53470 0.65480 0.71680 0.08800
C 	C 	0.40675 0.17273 0.81330 0.41900
C 	C 	0.40948 0.12939 0.84950 -0.14500
C 	C 	0.45286 0.10700 0.90300 0.08800
H 	H 	0.48060 0.11740 0.91490 0.01900
C 	C 	0.45440 0.06912 0.93810 -0.15600
H 	H 	0.48380 0.05630 0.97580 0.11000
C 	C 	0.41460 0.05023 0.91920 0.11500
C 	C 	0.37040 0.07200 0.86320 -0.14700
H 	H 	0.34240 0.05940 0.84840 0.09900
C 	C 	0.36864 0.11160 0.83040 0.08600
H 	H 	0.33960 0.12640 0.79520 0.02900
C 	C 	0.41430 0.01090 0.95270 -0.02100
C 	C 	0.44810 0.00780 0.02440 0.11200
C 	C 	0.38090 0.93550 0.95440 0.23500
C 	C 	0.41279 0.93411 0.02380 -0.10800
C 	C 	0.44700 0.97040 0.06120 -0.06100
H 	H 	0.46860 0.97070 0.10850 0.06200
C 	C 	0.38180 0.97150 0.91690 -0.15700
H 	H 	0.36140 0.96900 0.86980 0.10500
C 	C 	0.36393 0.85708 0.07880 0.10000
H 	H 	0.33490 0.85160 0.06570 0.01400
C 	C 	0.36710 0.88943 0.04170 -0.18100
H 	H 	0.33970 0.90470 0.00350 0.11400
C 	C 	0.40970 0.89886 0.06090 0.16000
C 	C 	0.45001 0.87512 0.11840 -0.19300
H 	H 	0.47910 0.88110 0.13200 0.10800
C 	C 	0.44841 0.84293 0.15610 0.11600
C 	C 	0.40421 0.83375 0.13460 -0.16200
C 	C 	0.40206 0.80081 0.17710 0.41400
C 	C 	0.52840 0.02990 0.14220 -0.02300
H 	H 	0.54550 0.00050 0.15150 0.05400
H 	H 	0.52030 0.03150 0.16900 0.05700
C 	C 	0.32490 0.89160 0.84000 1.36600
H 	H 	0.30130 0.91640 0.81040 -0.35500
H 	H 	0.34960 0.89440 0.83950 -0.33500
C 	C 	0.30040 0.83930 0.81180 -3.41500
H 	H 	0.32030 0.81640 0.84900 1.06900
H 	H 	0.27020 0.84060 0.79920 1.07000
C 	C 	0.29250 0.82200 0.75840 4.36300
H 	H 	0.27790 0.79080 0.74620 -1.28200
H 	H 	0.32210 0.81930 0.77040 -1.23100
H 	H 	0.27180 0.84350 0.72040 -1.23600
C 	C 	0.24840 0.75740 0.06330 0.15300
H 	H 	0.26440 0.75570 0.04910 -0.02800
C 	C 	0.20400 0.75980 0.01750 -0.20300
H 	H 	0.18970 0.76480 0.97280 0.11000
C 	C 	0.17540 0.75540 0.02990 0.08500
C 	C 	0.20110 0.75340 0.10000 -0.14500
H 	H 	0.18530 0.75110 0.11450 0.05400
C 	C 	0.25120 0.75490 0.14780 0.07900
H 	H 	0.26800 0.75430 0.19400 0.00400
C 	C 	0.04936 0.78150 0.87030 0.09200
H 	H 	0.03300 0.79800 0.82950 0.00200
C 	C 	0.09793 0.78184 0.91740 -0.13000
H 	H 	0.11390 0.79780 0.90790 0.08600
C 	C 	0.12295 0.75881 0.97830 0.05300
C 	C 	0.09701 0.73710 0.98940 -0.12100
H 	H 	0.11250 0.72220 0.03100 0.05900
C 	C 	0.04930 0.73720 0.94020 0.08700
H 	H 	0.03270 0.72140 0.94870 0.00500
N 	N 	0.27498 0.75706 0.13017 -0.26400
N 	N 	0.02459 0.75852 0.88039 -0.25000
O 	O 	0.35784 0.30701 0.67041 -0.47600
O 	O 	0.43600 0.31538 0.75387 -0.46700
O 	O 	0.44240 0.60700 0.59110 -0.21900
O 	O 	0.33800 0.44220 0.45210 -0.17200
O 	O 	0.35518 0.71150 0.27062 -0.48500
O 	O 	0.43366 0.71246 0.35266 -0.47400
O 	O 	0.36679 0.18893 0.76414 -0.46800
O 	O 	0.44561 0.18991 0.83788 -0.46400
O 	O 	0.48530 0.04010 0.06400 -0.18200
O 	O 	0.34770 0.89960 0.91670 -0.41200
O 	O 	0.36161 0.79315 0.15482 -0.46700
O 	O 	0.43997 0.78353 0.23065 -0.47100
Zn	Zn	0.34766 0.75326 0.20264 1.21700
Zn	Zn	0.45200 0.74670 0.30658 1.21600
C 	C 	0.89557 0.17152 0.19990 0.41500
C 	C 	0.89356 0.12705 0.16480 -0.15300
C 	C 	0.93498 0.10215 0.19450 0.08300
H 	H 	0.96370 0.11100 0.23720 0.01700
C 	C 	0.93290 0.06383 0.15950 -0.15800
H 	H 	0.96060 0.04710 0.17930 0.08700
C 	C 	0.89120 0.05006 0.09670 0.11000
C 	C 	0.85020 0.07410 0.06910 -0.15900
H 	H 	0.82140 0.06490 0.02660 0.10900
C 	C 	0.85147 0.11137 0.10340 0.09200
H 	H 	0.82330 0.12630 0.08480 0.01500
C 	C 	0.91850 0.93210 0.05660 0.18100
C 	C 	0.91690 0.97000 0.09010 -0.13500
H 	H 	0.93400 0.96690 0.13630 0.08500
C 	C 	0.89230 0.00890 0.05820 -0.01200
C 	C 	0.86670 0.01650 0.98830 0.11600
C 	C 	0.86220 0.98040 0.94930 -0.07000
H 	H 	0.84270 0.98480 0.90260 0.08000
C 	C 	0.88810 0.93500 0.98130 -0.09500
C 	C 	0.93300 0.84740 0.93400 0.22100
H 	H 	0.96180 0.83510 0.95160 -0.02200
C 	C 	0.93220 0.87850 0.97260 -0.28000
H 	H 	0.96020 0.88590 0.01690 0.14600
C 	C 	0.89010 0.89880 0.94610 0.23900
C 	C 	0.84870 0.88290 0.88370 -0.31400
H 	H 	0.81930 0.89300 0.86620 0.18600
C 	C 	0.85200 0.85220 0.84840 0.26200
H 	H 	0.82390 0.84270 0.80530 -0.05300
C 	C 	0.89281 0.83449 0.87130 -0.27300
C 	C 	0.89345 0.80024 0.82820 0.46200
C 	C 	0.97080 0.88420 0.17010 0.01700
H 	H 	0.99060 0.91140 0.19900 0.02500
H 	H 	0.95020 0.87510 0.17690 0.04300
C 	C 	0.00110 0.83930 0.17830 -0.14300
H 	H 	0.99580 0.83700 0.13770 0.10500
H 	H 	0.03470 0.84520 0.21680 0.08800
C 	C 	0.90675 0.32727 0.31330 0.41900
C 	C 	0.90948 0.37061 0.34950 -0.14500
C 	C 	0.95286 0.39300 0.40300 0.08800
H 	H 	0.98060 0.38260 0.41490 0.01900
C 	C 	0.95440 0.43088 0.43810 -0.15600
H 	H 	0.98380 0.44370 0.47580 0.11000
C 	C 	0.91460 0.44977 0.41920 0.11500
C 	C 	0.87040 0.42800 0.36320 -0.14700
H 	H 	0.84240 0.44060 0.34840 0.09900
C 	C 	0.86864 0.38840 0.33040 0.08600
H 	H 	0.83960 0.37360 0.29520 0.02900
C 	C 	0.91430 0.48910 0.45270 -0.02100
C 	C 	0.94810 0.49220 0.52440 0.11200
C 	C 	0.88090 0.56450 0.45440 0.23500
C 	C 	0.91279 0.56589 0.52380 -0.10800
C 	C 	0.94700 0.52960 0.56120 -0.06100
H 	H 	0.96860 0.52930 0.60850 0.06200
C 	C 	0.88180 0.52850 0.41690 -0.15700
H 	H 	0.86140 0.53100 0.36980 0.10500
C 	C 	0.86393 0.64292 0.57880 0.10000
H 	H 	0.83490 0.64840 0.56570 0.01400
C 	C 	0.86710 0.61057 0.54170 -0.18100
H 	H 	0.83970 0.59530 0.50350 0.11400
C 	C 	0.90970 0.60114 0.56090 0.16000
C 	C 	0.95001 0.62488 0.61840 -0.19300
H 	H 	0.97910 0.61890 0.63200 0.10800
C 	C 	0.94841 0.65707 0.65610 0.11600
C 	C 	0.90421 0.66625 0.63460 -0.16200
C 	C 	0.90206 0.69919 0.67710 0.41400
C 	C 	0.02840 0.47010 0.64220 -0.02300
H 	H 	0.04550 0.49950 0.65150 0.05400
H 	H 	0.02030 0.46850 0.66900 0.05700
C 	C 	0.82490 0.60840 0.34000 1.36600
H 	H 	0.80130 0.58360 0.31040 -0.35500
H 	H 	0.84960 0.60560 0.33950 -0.33500
C 	C 	0.80040 0.66070 0.31180 -3.41400
H 	H 	0.82030 0.68360 0.34900 1.06900
H 	H 	0.77020 0.65940 0.29920 1.07000
C 	C 	0.79250 0.67800 0.25840 4.36300
H 	H 	0.77790 0.70920 0.24620 -1.28200
H 	H 	0.82210 0.68070 0.27040 -1.23100
H 	H 	0.77180 0.65650 0.22040 -1.23600
C 	C 	0.74840 0.74260 0.56330 0.15300
H 	H 	0.76440 0.74430 0.54910 -0.02800
C 	C 	0.70400 0.74020 0.51750 -0.20200
H 	H 	0.68970 0.73520 0.47280 0.11000
C 	C 	0.67540 0.74460 0.52990 0.08500
C 	C 	0.70110 0.74660 0.60000 -0.14500
H 	H 	0.68530 0.74890 0.61450 0.05400
C 	C 	0.75120 0.74510 0.64780 0.07900
H 	H 	0.76800 0.74570 0.69400 0.00400
C 	C 	0.54936 0.71850 0.37030 0.09200
H 	H 	0.53300 0.70200 0.32950 0.00100
C 	C 	0.59793 0.71816 0.41740 -0.13000
H 	H 	0.61390 0.70220 0.40790 0.08600
C 	C 	0.62295 0.74119 0.47830 0.05300
C 	C 	0.59701 0.76290 0.48940 -0.12100
H 	H 	0.61250 0.77780 0.53100 0.05900
C 	C 	0.54930 0.76280 0.44020 0.08800
H 	H 	0.53270 0.77860 0.44870 0.00500
N 	N 	0.77498 0.74294 0.63017 -0.26400
N 	N 	0.52459 0.74148 0.38039 -0.25100
O 	O 	0.85784 0.19299 0.17041 -0.47600
O 	O 	0.93600 0.18462 0.25387 -0.46700
O 	O 	0.94240 0.89300 0.09110 -0.21900
O 	O 	0.83800 0.05780 0.95210 -0.17200
O 	O 	0.85518 0.78850 0.77062 -0.48500
O 	O 	0.93366 0.78754 0.85266 -0.47400
O 	O 	0.86679 0.31107 0.26414 -0.46800
O 	O 	0.94561 0.31009 0.33788 -0.46400
O 	O 	0.98530 0.45990 0.56400 -0.18200
O 	O 	0.84770 0.60040 0.41670 -0.41200
O 	O 	0.86161 0.70685 0.65482 -0.46700
O 	O 	0.93997 0.71647 0.73065 -0.47100
Zn	Zn	0.84766 0.74674 0.70264 1.21700
Zn	Zn	0.95200 0.75330 0.80658 1.21600
C 	C 	0.39557 0.67152 0.19990 0.41500
C 	C 	0.39356 0.62705 0.16480 -0.15300
C 	C 	0.43498 0.60215 0.19450 0.08300
H 	H 	0.46370 0.61100 0.23720 0.01700
C 	C 	0.43290 0.56383 0.15950 -0.15800
H 	H 	0.46060 0.54710 0.17930 0.08700
C 	C 	0.39120 0.55006 0.09670 0.11000
C 	C 	0.35020 0.57410 0.06910 -0.15900
H 	H 	0.32140 0.56490 0.02660 0.10900
C 	C 	0.35147 0.61137 0.10340 0.09200
H 	H 	0.32330 0.62630 0.08480 0.01500
C 	C 	0.41850 0.43210 0.05660 0.18100
C 	C 	0.41690 0.47000 0.09010 -0.13400
H 	H 	0.43400 0.46690 0.13630 0.08400
C 	C 	0.39230 0.50890 0.05820 -0.01300
C 	C 	0.36670 0.51650 0.98830 0.11700
C 	C 	0.36220 0.48040 0.94930 -0.07100
H 	H 	0.34270 0.48480 0.90260 0.08100
C 	C 	0.38810 0.43500 0.98130 -0.09500
C 	C 	0.43300 0.34740 0.93400 0.22100
H 	H 	0.46180 0.33510 0.95160 -0.02200
C 	C 	0.43220 0.37850 0.97260 -0.27900
H 	H 	0.46020 0.38590 0.01690 0.14500
C 	C 	0.39010 0.39880 0.94610 0.23900
C 	C 	0.34870 0.38290 0.88370 -0.31400
H 	H 	0.31930 0.39300 0.86620 0.18500
C 	C 	0.35200 0.35220 0.84840 0.26200
H 	H 	0.32390 0.34270 0.80530 -0.05300
C 	C 	0.39281 0.33449 0.87130 -0.27300
C 	C 	0.39345 0.30024 0.82820 0.46200
C 	C 	0.47080 0.38420 0.17010 0.01700
H 	H 	0.49060 0.41140 0.19900 0.02500
H 	H 	0.45020 0.37510 0.17690 0.04300
C 	C 	0.50110 0.33930 0.17830 -0.14300
H 	H 	0.49580 0.33700 0.13770 0.10500
H 	H 	0.53470 0.34520 0.21680 0.08800
C 	C 	0.40675 0.82727 0.31330 0.41900
C 	C 	0.40948 0.87061 0.34950 -0.14500
C 	C 	0.45286 0.89300 0.40300 0.08800
H 	H 	0.48060 0.88260 0.41490 0.01900
C 	C 	0.45440 0.93088 0.43810 -0.15600
H 	H 	0.48380 0.94370 0.47580 0.11000
C 	C 	0.41460 0.94977 0.41920 0.11500
C 	C 	0.37040 0.92800 0.36320 -0.14700
H 	H 	0.34240 0.94060 0.34840 0.09900
C 	C 	0.36864 0.88840 0.33040 0.08600
H 	H 	0.33960 0.87360 0.29520 0.02900
C 	C 	0.41430 0.98910 0.45270 -0.02100
C 	C 	0.44810 0.99220 0.52440 0.11200
C 	C 	0.38090 0.06450 0.45440 0.23500
C 	C 	0.41279 0.06589 0.52380 -0.10800
C 	C 	0.44700 0.02960 0.56120 -0.06100
H 	H 	0.46860 0.02930 0.60850 0.06200
C 	C 	0.38180 0.02850 0.41690 -0.15700
H 	H 	0.36140 0.03100 0.36980 0.10500
C 	C 	0.36393 0.14292 0.57880 0.10000
H 	H 	0.33490 0.14840 0.56570 0.01400
C 	C 	0.36710 0.11057 0.54170 -0.18100
H 	H 	0.33970 0.09530 0.50350 0.11400
C 	C 	0.40970 0.10114 0.56090 0.16000
C 	C 	0.45001 0.12488 0.61840 -0.19300
H 	H 	0.47910 0.11890 0.63200 0.10800
C 	C 	0.44841 0.15707 0.65610 0.11600
C 	C 	0.40421 0.16625 0.63460 -0.16200
C 	C 	0.40206 0.19919 0.67710 0.41400
C 	C 	0.52840 0.97010 0.64220 -0.02300
H 	H 	0.54550 0.99950 0.65150 0.05400
H 	H 	0.52030 0.96850 0.66900 0.05700
C 	C 	0.32490 0.10840 0.34000 1.36600
H 	H 	0.30130 0.08360 0.31040 -0.35500
H 	H 	0.34960 0.10560 0.33950 -0.33400
C 	C 	0.30040 0.16070 0.31180 -3.41400
H 	H 	0.32030 0.18360 0.34900 1.06900
H 	H 	0.27020 0.15940 0.29920 1.07000
C 	C 	0.29250 0.17800 0.25840 4.36300
H 	H 	0.27790 0.20920 0.24620 -1.28200
H 	H 	0.32210 0.18070 0.27040 -1.23100
H 	H 	0.27180 0.15650 0.22040 -1.23600
C 	C 	0.24840 0.24260 0.56330 0.15300
H 	H 	0.26440 0.24430 0.54910 -0.02800
C 	C 	0.20400 0.24020 0.51750 -0.20200
H 	H 	0.18970 0.23520 0.47280 0.11000
C 	C 	0.17540 0.24460 0.52990 0.08500
C 	C 	0.20110 0.24660 0.60000 -0.14500
H 	H 	0.18530 0.24890 0.61450 0.05400
C 	C 	0.25120 0.24510 0.64780 0.07900
H 	H 	0.26800 0.24570 0.69400 0.00400
C 	C 	0.04936 0.21850 0.37030 0.09200
H 	H 	0.03300 0.20200 0.32950 0.00100
C 	C 	0.09793 0.21816 0.41740 -0.13000
H 	H 	0.11390 0.20220 0.40790 0.08600
C 	C 	0.12295 0.24119 0.47830 0.05300
C 	C 	0.09701 0.26290 0.48940 -0.12100
H 	H 	0.11250 0.27780 0.53100 0.05900
C 	C 	0.04930 0.26280 0.44020 0.08800
H 	H 	0.03270 0.27860 0.44870 0.00500
N 	N 	0.27498 0.24294 0.63017 -0.26400
N 	N 	0.02459 0.24148 0.38039 -0.25100
O 	O 	0.35784 0.69299 0.17041 -0.47600
O 	O 	0.43600 0.68462 0.25387 -0.46700
O 	O 	0.44240 0.39300 0.09110 -0.21900
O 	O 	0.33800 0.55780 0.95210 -0.17200
O 	O 	0.35518 0.28850 0.77062 -0.48500
O 	O 	0.43366 0.28754 0.85266 -0.47400
O 	O 	0.36679 0.81107 0.26414 -0.46800
O 	O 	0.44561 0.81009 0.33788 -0.46400
O 	O 	0.48530 0.95990 0.56400 -0.18200
O 	O 	0.34770 0.10040 0.41670 -0.41200
O 	O 	0.36161 0.20685 0.65482 -0.46700
O 	O 	0.43997 0.21647 0.73065 -0.47100
Zn	Zn	0.34766 0.24674 0.70264 1.21700
Zn	Zn	0.45200 0.25330 0.80658 1.21600
