data_crystal

_cell_length_a 39.27300
_cell_length_b 27.49780
_cell_length_c 27.37220
_cell_angle_alpha 90.00000
_cell_angle_beta  134.27800
_cell_angle_gamma 90.00000

_symmetry_space_group_name_	'P 1'
_symmetry_space_group_name_H-M	'P 1'

loop_
_symmetry_equiv_pos_as_xyz
  x,y,z

loop_
_atom_site_label
_atom_site_type_symbol
_atom_site_fract_x
_atom_site_fract_y
_atom_site_fract_z
_atom_site_charge
C 	C 	0.09970 0.69780 0.03110 0.43800
C 	C 	0.09930 0.66430 0.07220 -0.21600
C 	C 	0.14030 0.64400 0.13070 0.16500
H 	H 	0.16860 0.64850 0.14210 -0.01400
C 	C 	0.14030 0.61770 0.17170 -0.23700
H 	H 	0.17000 0.61000 0.21430 0.12100
C 	C 	0.10410 0.60200 0.15890 0.15200
C 	C 	0.05540 0.61530 0.08860 -0.15100
H 	H 	0.02710 0.60240 0.07220 0.09300
C 	C 	0.05680 0.65040 0.04880 0.09400
H 	H 	0.02860 0.66290 0.00790 0.01100
C 	C 	0.09980 0.32890 0.40160 0.36200
C 	C 	0.09530 0.37550 0.36510 -0.15000
C 	C 	0.14210 0.39120 0.39590 0.05700
H 	H 	0.17030 0.37930 0.43720 0.02400
C 	C 	0.14030 0.42780 0.35490 -0.15800
H 	H 	0.16820 0.43730 0.36730 0.08800
C 	C 	0.09950 0.44710 0.30090 0.12400
C 	C 	0.05670 0.42960 0.27910 -0.19700
H 	H 	0.02800 0.44430 0.24210 0.08900
C 	C 	0.05680 0.39450 0.30860 0.12400
H 	H 	0.02770 0.38140 0.28890 -0.00800
C 	C 	0.09490 0.49070 0.26200 -0.05200
C 	C 	0.11420 0.53110 0.29070 -0.09900
H 	H 	0.12660 0.53800 0.33380 0.06800
C 	C 	0.11630 0.57010 0.24880 0.18000
C 	C 	0.09810 0.55990 0.19110 -0.09700
C 	C 	0.06380 0.51780 0.14860 -0.12400
H 	H 	0.04690 0.51540 0.10260 0.08200
C 	C 	0.05760 0.48050 0.18130 0.19000
C 	C 	0.15690 0.63360 0.34230 0.10800
H 	H 	0.16070 0.60910 0.37130 -0.00100
H 	H 	0.13490 0.65760 0.33290 0.00800
C 	C 	0.20920 0.66110 0.38830 -0.19000
H 	H 	0.23480 0.64360 0.42990 0.08600
H 	H 	0.20860 0.69460 0.39900 0.08600
C 	C 	0.99680 0.44730 0.08130 1.00700
H 	H 	0.99570 0.48130 0.07100 -0.27600
H 	H 	0.99850 0.42830 0.05320 -0.27200
C 	C 	0.95400 0.43580 0.06240 -1.55000
H 	H 	0.94260 0.40610 0.03590 0.50000
H 	H 	0.96270 0.42740 0.10430 0.48800
C 	C 	0.91650 0.46480 0.02840 1.11700
H 	H 	0.89630 0.45260 0.03420 -0.31900
H 	H 	0.89850 0.46250 0.98030 -0.31100
C 	C 	0.92660 0.52000 0.04880 -0.53900
H 	H 	0.92980 0.52650 0.08670 0.18700
H 	H 	0.95490 0.53120 0.06020 0.21300
C 	C 	0.88840 0.53930 0.99270 -0.23300
H 	H 	0.87360 0.56010 0.00220 0.09400
H 	H 	0.86590 0.51400 0.96150 0.09100
C 	C 	0.90040 0.56720 0.96230 0.64000
H 	H 	0.89690 0.60040 0.97000 -0.16600
H 	H 	0.93440 0.56220 0.99350 -0.16100
C 	C 	0.88530 0.57000 0.89730 -1.29700
H 	H 	0.90330 0.59460 0.89870 0.42700
H 	H 	0.85210 0.57810 0.86280 0.40700
H 	H 	0.89040 0.53920 0.88680 0.42000
C 	C 	0.60350 0.67110 0.50600 0.33400
C 	C 	0.60020 0.62500 0.53570 -0.10900
C 	C 	0.64470 0.61240 0.59930 0.04200
H 	H 	0.67240 0.62280 0.61160 0.03200
C 	C 	0.64730 0.58310 0.64560 -0.13800
H 	H 	0.67100 0.58470 0.69290 0.08000
C 	C 	0.60580 0.55010 0.60450 0.13300
C 	C 	0.55630 0.56780 0.54010 -0.14100
H 	H 	0.52770 0.55500 0.52250 0.13100
C 	C 	0.56150 0.60660 0.51210 0.07400
H 	H 	0.53350 0.62020 0.47210 0.02600
C 	C 	0.59920 0.30170 0.87380 0.34200
C 	C 	0.60110 0.33790 0.83020 -0.09800
C 	C 	0.55710 0.35070 0.76740 0.02900
H 	H 	0.52880 0.33700 0.74980 0.04000
C 	C 	0.55910 0.38660 0.73220 -0.10600
H 	H 	0.53110 0.40100 0.69320 0.07400
C 	C 	0.60190 0.40040 0.75480 0.05500
C 	C 	0.64260 0.38050 0.81680 -0.14100
H 	H 	0.67200 0.38950 0.83360 0.08200
C 	C 	0.64190 0.35190 0.85050 0.07600
H 	H 	0.67050 0.33970 0.89110 0.01700
C 	C 	0.60650 0.44040 0.71560 0.06200
C 	C 	0.57650 0.43540 0.64990 -0.22300
H 	H 	0.55250 0.41220 0.62540 0.13100
C 	C 	0.58480 0.47130 0.61760 0.35500
C 	C 	0.60060 0.50880 0.63890 -0.19400
C 	C 	0.64290 0.51040 0.72070 0.00100
H 	H 	0.66490 0.53540 0.73880 0.03100
C 	C 	0.65120 0.47810 0.76960 -0.03800
C 	C 	0.55360 0.41770 0.53260 0.98200
H 	H 	0.56340 0.39980 0.57120 -0.24400
H 	H 	0.51920 0.41880 0.49960 -0.22500
C 	C 	0.56430 0.37990 0.49830 -0.50500
H 	H 	0.58970 0.39230 0.50320 0.18900
H 	H 	0.57390 0.34850 0.52060 0.18600
C 	C 	0.94880 0.76030 0.84000 0.14100
H 	H 	0.96490 0.76710 0.88500 -0.02600
C 	C 	0.89890 0.76190 0.78950 -0.19800
H 	H 	0.88280 0.77040 0.80180 0.09500
C 	C 	0.87660 0.75270 0.73130 0.09600
C 	C 	0.90100 0.72130 0.71910 -0.14300
H 	H 	0.88430 0.70220 0.68020 0.09100
C 	C 	0.94920 0.72260 0.76870 0.08200
H 	H 	0.96680 0.70480 0.76370 0.00400
C 	C 	0.74700 0.74690 0.64210 0.13600
H 	H 	0.73110 0.74070 0.65530 -0.02100
C 	C 	0.79630 0.75000 0.68980 -0.12400
H 	H 	0.81120 0.75480 0.73470 0.06600
C 	C 	0.82640 0.74700 0.67990 0.06100
C 	C 	0.74580 0.75000 0.56110 0.22500
H 	H 	0.73020 0.74740 0.51560 -0.06200
C 	C 	0.79510 0.75000 0.61160 -0.17100
H 	H 	0.80920 0.75260 0.59510 0.09700
N 	N 	0.97200 0.75010 0.82610 -0.25800
O 	O 	0.13670 0.70960 0.04880 -0.49900
O 	O 	0.05950 0.71550 0.97480 -0.47200
O 	O 	0.13830 0.30720 0.44660 -0.48000
O 	O 	0.05800 0.31190 0.37230 -0.45200
O 	O 	0.13460 0.61110 0.28060 -0.25100
O 	O 	0.03930 0.43910 0.15120 -0.44400
O 	O 	0.64200 0.69310 0.53980 -0.43500
O 	O 	0.55990 0.68519 0.44960 -0.42300
O 	O 	0.64210 0.29320 0.93590 -0.43100
O 	O 	0.56011 0.28950 0.85040 -0.45900
O 	O 	0.56310 0.45110 0.54930 -0.67200
Zn	Zn	0.04693 0.75113 0.89921 1.21100
Zn	Zn	0.15084 0.74762 0.00314 1.21700
N 	N 	0.72280 0.75330 0.57500 -0.25700
N 	N 	0.75450 0.74622 0.60830 -0.09400
C 	C 	0.59970 0.19780 0.03110 0.43800
C 	C 	0.59930 0.16430 0.07220 -0.21800
C 	C 	0.64030 0.14400 0.13070 0.16500
H 	H 	0.66860 0.14850 0.14210 -0.01500
C 	C 	0.64030 0.11770 0.17170 -0.23800
H 	H 	0.67000 0.11000 0.21430 0.12000
C 	C 	0.60410 0.10200 0.15890 0.15100
C 	C 	0.55540 0.11530 0.08860 -0.15200
H 	H 	0.52710 0.10240 0.07220 0.09200
C 	C 	0.55680 0.15040 0.04880 0.09300
H 	H 	0.52860 0.16290 0.00790 0.01000
C 	C 	0.59980 0.82890 0.40160 0.36100
C 	C 	0.59530 0.87550 0.36510 -0.15000
C 	C 	0.64210 0.89120 0.39590 0.05600
H 	H 	0.67030 0.87930 0.43720 0.02400
C 	C 	0.64030 0.92780 0.35490 -0.15800
H 	H 	0.66820 0.93730 0.36730 0.08800
C 	C 	0.59950 0.94710 0.30090 0.12400
C 	C 	0.55670 0.92960 0.27910 -0.19700
H 	H 	0.52800 0.94430 0.24210 0.08900
C 	C 	0.55680 0.89450 0.30860 0.12300
H 	H 	0.52770 0.88140 0.28890 -0.00800
C 	C 	0.59490 0.99070 0.26200 -0.05200
C 	C 	0.61420 0.03110 0.29070 -0.10000
H 	H 	0.62660 0.03800 0.33380 0.06800
C 	C 	0.61630 0.07010 0.24880 0.18000
C 	C 	0.59810 0.05990 0.19110 -0.09700
C 	C 	0.56380 0.01780 0.14860 -0.12400
H 	H 	0.54690 0.01540 0.10260 0.08200
C 	C 	0.55760 0.98050 0.18130 0.18900
C 	C 	0.65690 0.13360 0.34230 0.10800
H 	H 	0.66070 0.10910 0.37130 -0.00100
H 	H 	0.63490 0.15760 0.33290 0.00800
C 	C 	0.70920 0.16110 0.38830 -0.19000
H 	H 	0.73480 0.14360 0.42990 0.08600
H 	H 	0.70860 0.19460 0.39900 0.08600
C 	C 	0.49680 0.94730 0.08130 0.99600
H 	H 	0.49570 0.98130 0.07100 -0.27300
H 	H 	0.49850 0.92830 0.05320 -0.26900
C 	C 	0.45400 0.93580 0.06240 -1.53400
H 	H 	0.44260 0.90610 0.03590 0.49500
H 	H 	0.46270 0.92740 0.10430 0.48400
C 	C 	0.41650 0.96480 0.02840 1.10300
H 	H 	0.39630 0.95260 0.03420 -0.31500
H 	H 	0.39850 0.96250 0.98030 -0.30600
C 	C 	0.42660 0.02000 0.04880 -0.53600
H 	H 	0.42980 0.02650 0.08670 0.18500
H 	H 	0.45490 0.03120 0.06020 0.21200
C 	C 	0.38840 0.03930 0.99270 -0.23000
H 	H 	0.37360 0.06010 0.00220 0.09300
H 	H 	0.36590 0.01400 0.96150 0.09000
C 	C 	0.40040 0.06720 0.96230 0.63600
H 	H 	0.39690 0.10040 0.97000 -0.16400
H 	H 	0.43440 0.06220 0.99350 -0.16000
C 	C 	0.38530 0.07000 0.89730 -1.29100
H 	H 	0.40330 0.09460 0.89870 0.42500
H 	H 	0.35210 0.07810 0.86280 0.40500
H 	H 	0.39040 0.03920 0.88680 0.41800
C 	C 	0.10350 0.17110 0.50600 0.33400
C 	C 	0.10020 0.12500 0.53570 -0.11000
C 	C 	0.14470 0.11240 0.59930 0.04200
H 	H 	0.17240 0.12280 0.61160 0.03200
C 	C 	0.14730 0.08310 0.64560 -0.13800
H 	H 	0.17100 0.08470 0.69290 0.08000
C 	C 	0.10580 0.05010 0.60450 0.13300
C 	C 	0.05630 0.06780 0.54010 -0.14100
H 	H 	0.02770 0.05500 0.52250 0.13100
C 	C 	0.06150 0.10660 0.51210 0.07400
H 	H 	0.03350 0.12020 0.47210 0.02600
C 	C 	0.09920 0.80170 0.87380 0.34200
C 	C 	0.10110 0.83790 0.83020 -0.09800
C 	C 	0.05710 0.85070 0.76740 0.02900
H 	H 	0.02880 0.83700 0.74980 0.04000
C 	C 	0.05910 0.88660 0.73220 -0.10600
H 	H 	0.03110 0.90100 0.69320 0.07400
C 	C 	0.10190 0.90040 0.75480 0.05500
C 	C 	0.14260 0.88050 0.81680 -0.14100
H 	H 	0.17200 0.88950 0.83360 0.08200
C 	C 	0.14190 0.85190 0.85050 0.07500
H 	H 	0.17050 0.83970 0.89110 0.01800
C 	C 	0.10650 0.94040 0.71560 0.06200
C 	C 	0.07650 0.93540 0.64990 -0.22300
H 	H 	0.05250 0.91220 0.62540 0.13100
C 	C 	0.08480 0.97130 0.61760 0.35500
C 	C 	0.10060 0.00880 0.63890 -0.19500
C 	C 	0.14290 0.01040 0.72070 0.00100
H 	H 	0.16490 0.03540 0.73880 0.03100
C 	C 	0.15120 0.97810 0.76960 -0.03800
C 	C 	0.05360 0.91770 0.53260 0.98300
H 	H 	0.06340 0.89980 0.57120 -0.24400
H 	H 	0.01920 0.91880 0.49960 -0.22500
C 	C 	0.06430 0.87990 0.49830 -0.50500
H 	H 	0.08970 0.89230 0.50320 0.18900
H 	H 	0.07390 0.84850 0.52060 0.18600
C 	C 	0.44880 0.26030 0.84000 0.14100
H 	H 	0.46490 0.26710 0.88500 -0.02500
C 	C 	0.39890 0.26190 0.78950 -0.19800
H 	H 	0.38280 0.27040 0.80180 0.09500
C 	C 	0.37660 0.25270 0.73130 0.09500
C 	C 	0.40100 0.22130 0.71910 -0.14300
H 	H 	0.38430 0.20220 0.68020 0.09100
C 	C 	0.44920 0.22260 0.76870 0.08200
H 	H 	0.46680 0.20480 0.76370 0.00400
C 	C 	0.24700 0.24690 0.64210 0.13600
H 	H 	0.23110 0.24070 0.65530 -0.02100
C 	C 	0.29630 0.25000 0.68980 -0.12400
H 	H 	0.31120 0.25480 0.73470 0.06600
C 	C 	0.32640 0.24700 0.67990 0.06100
C 	C 	0.24580 0.25000 0.56110 0.22500
H 	H 	0.23020 0.24740 0.51560 -0.06200
C 	C 	0.29510 0.25000 0.61160 -0.17100
H 	H 	0.30920 0.25260 0.59510 0.09700
N 	N 	0.47200 0.25010 0.82610 -0.25800
O 	O 	0.63670 0.20960 0.04880 -0.49900
O 	O 	0.55950 0.21550 0.97480 -0.47300
O 	O 	0.63830 0.80720 0.44660 -0.48000
O 	O 	0.55800 0.81190 0.37230 -0.45200
O 	O 	0.63460 0.11110 0.28060 -0.25100
O 	O 	0.53930 0.93910 0.15120 -0.44100
O 	O 	0.14200 0.19310 0.53980 -0.43500
O 	O 	0.05990 0.18519 0.44960 -0.42300
O 	O 	0.14210 0.79320 0.93590 -0.43100
O 	O 	0.06011 0.78950 0.85040 -0.45900
O 	O 	0.06310 0.95110 0.54930 -0.67300
Zn	Zn	0.54693 0.25113 0.89921 1.21100
Zn	Zn	0.65084 0.24762 0.00314 1.21800
N 	N 	0.22280 0.25330 0.57500 -0.25700
N 	N 	0.25450 0.24622 0.60830 -0.09400
C 	C 	0.09970 0.30220 0.53110 0.43800
C 	C 	0.09930 0.33570 0.57220 -0.21800
C 	C 	0.14030 0.35600 0.63070 0.16500
H 	H 	0.16860 0.35150 0.64210 -0.01500
C 	C 	0.14030 0.38230 0.67170 -0.23800
H 	H 	0.17000 0.39000 0.71430 0.12000
C 	C 	0.10410 0.39800 0.65890 0.15200
C 	C 	0.05540 0.38470 0.58860 -0.15200
H 	H 	0.02710 0.39760 0.57220 0.09200
C 	C 	0.05680 0.34960 0.54880 0.09300
H 	H 	0.02860 0.33710 0.50790 0.01000
C 	C 	0.09980 0.67110 0.90160 0.36100
C 	C 	0.09530 0.62450 0.86510 -0.15000
C 	C 	0.14210 0.60880 0.89590 0.05600
H 	H 	0.17030 0.62070 0.93720 0.02400
C 	C 	0.14030 0.57220 0.85490 -0.15800
H 	H 	0.16820 0.56270 0.86730 0.08800
C 	C 	0.09950 0.55290 0.80090 0.12400
C 	C 	0.05670 0.57040 0.77910 -0.19600
H 	H 	0.02800 0.55570 0.74210 0.08900
C 	C 	0.05680 0.60550 0.80860 0.12300
H 	H 	0.02770 0.61860 0.78890 -0.00800
C 	C 	0.09490 0.50930 0.76200 -0.05200
C 	C 	0.11420 0.46890 0.79070 -0.10000
H 	H 	0.12660 0.46200 0.83380 0.06800
C 	C 	0.11630 0.42990 0.74880 0.18000
C 	C 	0.09810 0.44010 0.69110 -0.09700
C 	C 	0.06380 0.48220 0.64860 -0.12400
H 	H 	0.04690 0.48460 0.60260 0.08200
C 	C 	0.05760 0.51950 0.68130 0.18900
C 	C 	0.15690 0.36640 0.84230 0.10800
H 	H 	0.16070 0.39090 0.87130 -0.00100
H 	H 	0.13490 0.34240 0.83290 0.00800
C 	C 	0.20920 0.33890 0.88830 -0.19000
H 	H 	0.23480 0.35640 0.92990 0.08700
H 	H 	0.20860 0.30540 0.89900 0.08600
C 	C 	0.99680 0.55270 0.58130 0.99600
H 	H 	0.99570 0.51870 0.57100 -0.27400
H 	H 	0.99850 0.57170 0.55320 -0.27000
C 	C 	0.95400 0.56420 0.56240 -1.53500
H 	H 	0.94260 0.59390 0.53590 0.49600
H 	H 	0.96270 0.57260 0.60430 0.48400
C 	C 	0.91650 0.53520 0.52840 1.10500
H 	H 	0.89630 0.54740 0.53420 -0.31600
H 	H 	0.89850 0.53750 0.48030 -0.30600
C 	C 	0.92660 0.48000 0.54880 -0.53700
H 	H 	0.92980 0.47350 0.58670 0.18600
H 	H 	0.95490 0.46880 0.56020 0.21200
C 	C 	0.88840 0.46070 0.49270 -0.22900
H 	H 	0.87360 0.43990 0.50220 0.09200
H 	H 	0.86590 0.48600 0.46150 0.09000
C 	C 	0.90040 0.43280 0.46230 0.63400
H 	H 	0.89690 0.39960 0.47000 -0.16400
H 	H 	0.93440 0.43780 0.49350 -0.16000
C 	C 	0.88530 0.43000 0.39730 -1.28900
H 	H 	0.90330 0.40540 0.39870 0.42400
H 	H 	0.85210 0.42190 0.36280 0.40400
H 	H 	0.89040 0.46080 0.38680 0.41800
C 	C 	0.60350 0.32890 0.00600 0.33500
C 	C 	0.60020 0.37500 0.03570 -0.11000
C 	C 	0.64470 0.38760 0.09930 0.04200
H 	H 	0.67240 0.37720 0.11160 0.03200
C 	C 	0.64730 0.41690 0.14560 -0.13800
H 	H 	0.67100 0.41530 0.19290 0.08000
C 	C 	0.60580 0.44990 0.10450 0.13400
C 	C 	0.55630 0.43220 0.04010 -0.14100
H 	H 	0.52770 0.44500 0.02250 0.13100
C 	C 	0.56150 0.39340 0.01210 0.07400
H 	H 	0.53350 0.37980 0.97210 0.02600
C 	C 	0.59920 0.69830 0.37380 0.34200
C 	C 	0.60110 0.66210 0.33020 -0.09800
C 	C 	0.55710 0.64930 0.26740 0.02900
H 	H 	0.52880 0.66300 0.24980 0.04000
C 	C 	0.55910 0.61340 0.23220 -0.10600
H 	H 	0.53110 0.59900 0.19320 0.07400
C 	C 	0.60190 0.59960 0.25480 0.05500
C 	C 	0.64260 0.61950 0.31680 -0.14100
H 	H 	0.67200 0.61050 0.33360 0.08200
C 	C 	0.64190 0.64810 0.35050 0.07600
H 	H 	0.67050 0.66030 0.39110 0.01700
C 	C 	0.60650 0.55960 0.21560 0.06200
C 	C 	0.57650 0.56460 0.14990 -0.22300
H 	H 	0.55250 0.58780 0.12540 0.13100
C 	C 	0.58480 0.52870 0.11760 0.35500
C 	C 	0.60060 0.49120 0.13890 -0.19500
C 	C 	0.64290 0.48960 0.22070 0.00100
H 	H 	0.66490 0.46460 0.23880 0.03100
C 	C 	0.65120 0.52190 0.26960 -0.03800
C 	C 	0.55360 0.58230 0.03260 0.98300
H 	H 	0.56340 0.60020 0.07120 -0.24400
H 	H 	0.51920 0.58120 0.99960 -0.22500
C 	C 	0.56430 0.62010 0.99830 -0.50500
H 	H 	0.58970 0.60770 0.00320 0.18900
H 	H 	0.57390 0.65150 0.02060 0.18600
C 	C 	0.94880 0.23970 0.34000 0.14100
H 	H 	0.96490 0.23290 0.38500 -0.02500
C 	C 	0.89890 0.23810 0.28950 -0.19800
H 	H 	0.88280 0.22960 0.30180 0.09500
C 	C 	0.87660 0.24730 0.23130 0.09500
C 	C 	0.90100 0.27870 0.21910 -0.14300
H 	H 	0.88430 0.29780 0.18020 0.09100
C 	C 	0.94920 0.27740 0.26870 0.08200
H 	H 	0.96680 0.29520 0.26370 0.00400
C 	C 	0.74700 0.25310 0.14210 0.13600
H 	H 	0.73110 0.25930 0.15530 -0.02100
C 	C 	0.79630 0.25000 0.18980 -0.12400
H 	H 	0.81120 0.24520 0.23470 0.06600
C 	C 	0.82640 0.25300 0.17990 0.06100
C 	C 	0.74580 0.25000 0.06110 0.22500
H 	H 	0.73020 0.25260 0.01560 -0.06200
C 	C 	0.79510 0.25000 0.11160 -0.17100
H 	H 	0.80920 0.24740 0.09510 0.09700
N 	N 	0.97200 0.24990 0.32610 -0.25800
O 	O 	0.13670 0.29040 0.54880 -0.49900
O 	O 	0.05950 0.28450 0.47480 -0.47300
O 	O 	0.13830 0.69280 0.94660 -0.48000
O 	O 	0.05800 0.68810 0.87230 -0.45200
O 	O 	0.13460 0.38890 0.78060 -0.25100
O 	O 	0.03930 0.56090 0.65120 -0.44100
O 	O 	0.64200 0.30690 0.03980 -0.43500
O 	O 	0.55990 0.31481 0.94960 -0.42300
O 	O 	0.64210 0.70680 0.43590 -0.43100
O 	O 	0.56011 0.71050 0.35040 -0.45900
O 	O 	0.56310 0.54890 0.04930 -0.67200
Zn	Zn	0.04693 0.24887 0.39921 1.21000
Zn	Zn	0.15084 0.25238 0.50314 1.21800
N 	N 	0.72280 0.24670 0.07500 -0.25700
N 	N 	0.75450 0.25378 0.10830 -0.09400
C 	C 	0.59970 0.80220 0.53110 0.43800
C 	C 	0.59930 0.83570 0.57220 -0.21800
C 	C 	0.64030 0.85600 0.63070 0.16500
H 	H 	0.66860 0.85150 0.64210 -0.01500
C 	C 	0.64030 0.88230 0.67170 -0.23800
H 	H 	0.67000 0.89000 0.71430 0.12000
C 	C 	0.60410 0.89800 0.65890 0.15100
C 	C 	0.55540 0.88470 0.58860 -0.15200
H 	H 	0.52710 0.89760 0.57220 0.09200
C 	C 	0.55680 0.84960 0.54880 0.09300
H 	H 	0.52860 0.83710 0.50790 0.01000
C 	C 	0.59980 0.17110 0.90160 0.36100
C 	C 	0.59530 0.12450 0.86510 -0.15000
C 	C 	0.64210 0.10880 0.89590 0.05600
H 	H 	0.67030 0.12070 0.93720 0.02400
C 	C 	0.64030 0.07220 0.85490 -0.15800
H 	H 	0.66820 0.06270 0.86730 0.08800
C 	C 	0.59950 0.05290 0.80090 0.12400
C 	C 	0.55670 0.07040 0.77910 -0.19700
H 	H 	0.52800 0.05570 0.74210 0.08900
C 	C 	0.55680 0.10550 0.80860 0.12300
H 	H 	0.52770 0.11860 0.78890 -0.00800
C 	C 	0.59490 0.00930 0.76200 -0.05200
C 	C 	0.61420 0.96890 0.79070 -0.10000
H 	H 	0.62660 0.96200 0.83380 0.06800
C 	C 	0.61630 0.92990 0.74880 0.18000
C 	C 	0.59810 0.94010 0.69110 -0.09700
C 	C 	0.56380 0.98220 0.64860 -0.12400
H 	H 	0.54690 0.98460 0.60260 0.08200
C 	C 	0.55760 0.01950 0.68130 0.19000
C 	C 	0.65690 0.86640 0.84230 0.10800
H 	H 	0.66070 0.89090 0.87130 -0.00100
H 	H 	0.63490 0.84240 0.83290 0.00800
C 	C 	0.70920 0.83890 0.88830 -0.19000
H 	H 	0.73480 0.85640 0.92990 0.08600
H 	H 	0.70860 0.80540 0.89900 0.08600
C 	C 	0.49680 0.05270 0.58130 0.99800
H 	H 	0.49570 0.01870 0.57100 -0.27400
H 	H 	0.49850 0.07170 0.55320 -0.27000
C 	C 	0.45400 0.06420 0.56240 -1.53700
H 	H 	0.44260 0.09390 0.53590 0.49600
H 	H 	0.46270 0.07260 0.60430 0.48400
C 	C 	0.41650 0.03520 0.52840 1.10500
H 	H 	0.39630 0.04740 0.53420 -0.31600
H 	H 	0.39850 0.03750 0.48030 -0.30700
C 	C 	0.42660 0.98000 0.54880 -0.53700
H 	H 	0.42980 0.97350 0.58670 0.18600
H 	H 	0.45490 0.96880 0.56020 0.21200
C 	C 	0.38840 0.96070 0.49270 -0.23000
H 	H 	0.37360 0.93990 0.50220 0.09300
H 	H 	0.36590 0.98600 0.46150 0.09000
C 	C 	0.40040 0.93280 0.46230 0.63600
H 	H 	0.39690 0.89960 0.47000 -0.16500
H 	H 	0.43440 0.93780 0.49350 -0.16000
C 	C 	0.38530 0.93000 0.39730 -1.29100
H 	H 	0.40330 0.90540 0.39870 0.42500
H 	H 	0.35210 0.92190 0.36280 0.40500
H 	H 	0.39040 0.96080 0.38680 0.41800
C 	C 	0.10350 0.82890 0.00600 0.33300
C 	C 	0.10020 0.87500 0.03570 -0.10800
C 	C 	0.14470 0.88760 0.09930 0.04100
H 	H 	0.17240 0.87720 0.11160 0.03200
C 	C 	0.14730 0.91690 0.14560 -0.13700
H 	H 	0.17100 0.91530 0.19290 0.07900
C 	C 	0.10580 0.94990 0.10450 0.13200
C 	C 	0.05630 0.93220 0.04010 -0.13900
H 	H 	0.02770 0.94500 0.02250 0.13000
C 	C 	0.06150 0.89340 0.01210 0.07100
H 	H 	0.03350 0.87980 0.97210 0.02800
C 	C 	0.09920 0.19830 0.37380 0.34200
C 	C 	0.10110 0.16210 0.33020 -0.09900
C 	C 	0.05710 0.14930 0.26740 0.02900
H 	H 	0.02880 0.16300 0.24980 0.03900
C 	C 	0.05910 0.11340 0.23220 -0.10600
H 	H 	0.03110 0.09900 0.19320 0.07400
C 	C 	0.10190 0.09960 0.25480 0.05500
C 	C 	0.14260 0.11950 0.31680 -0.14200
H 	H 	0.17200 0.11050 0.33360 0.08200
C 	C 	0.14190 0.14810 0.35050 0.07600
H 	H 	0.17050 0.16030 0.39110 0.01700
C 	C 	0.10650 0.05960 0.21560 0.06100
C 	C 	0.07650 0.06460 0.14990 -0.22200
H 	H 	0.05250 0.08780 0.12540 0.13000
C 	C 	0.08480 0.02870 0.11760 0.35300
C 	C 	0.10060 0.99120 0.13890 -0.19300
C 	C 	0.14290 0.98960 0.22070 0.00100
H 	H 	0.16490 0.96460 0.23880 0.03100
C 	C 	0.15120 0.02190 0.26960 -0.03800
C 	C 	0.05360 0.08230 0.03260 0.97100
H 	H 	0.06340 0.10020 0.07120 -0.24100
H 	H 	0.01920 0.08120 0.99960 -0.22100
C 	C 	0.06430 0.12010 0.99830 -0.49800
H 	H 	0.08970 0.10770 0.00320 0.18700
H 	H 	0.07390 0.15150 0.02060 0.18300
C 	C 	0.44880 0.73970 0.34000 0.14100
H 	H 	0.46490 0.73290 0.38500 -0.02500
C 	C 	0.39890 0.73810 0.28950 -0.19800
H 	H 	0.38280 0.72960 0.30180 0.09500
C 	C 	0.37660 0.74730 0.23130 0.09500
C 	C 	0.40100 0.77870 0.21910 -0.14300
H 	H 	0.38430 0.79780 0.18020 0.09100
C 	C 	0.44920 0.77740 0.26870 0.08200
H 	H 	0.46680 0.79520 0.26370 0.00400
C 	C 	0.24700 0.75310 0.14210 0.13600
H 	H 	0.23110 0.75930 0.15530 -0.02100
C 	C 	0.29630 0.75000 0.18980 -0.12400
H 	H 	0.31120 0.74520 0.23470 0.06600
C 	C 	0.32640 0.75300 0.17990 0.06100
C 	C 	0.24580 0.75000 0.06110 0.22500
H 	H 	0.23020 0.75260 0.01560 -0.06200
C 	C 	0.29510 0.75000 0.11160 -0.17100
H 	H 	0.30920 0.74740 0.09510 0.09700
N 	N 	0.47200 0.74990 0.32610 -0.25800
O 	O 	0.63670 0.79040 0.54880 -0.49900
O 	O 	0.55950 0.78450 0.47480 -0.47300
O 	O 	0.63830 0.19280 0.94660 -0.48000
O 	O 	0.55800 0.18810 0.87230 -0.45200
O 	O 	0.63460 0.88890 0.78060 -0.25100
O 	O 	0.53930 0.06090 0.65120 -0.44200
O 	O 	0.14200 0.80690 0.03980 -0.43500
O 	O 	0.05990 0.81481 0.94960 -0.42200
O 	O 	0.14210 0.20680 0.43590 -0.43100
O 	O 	0.06011 0.21050 0.35040 -0.45900
O 	O 	0.06310 0.04890 0.04930 -0.66700
Zn	Zn	0.54693 0.74887 0.39921 1.21100
Zn	Zn	0.65084 0.75238 0.50314 1.21800
N 	N 	0.22280 0.74670 0.07500 -0.25700
N 	N 	0.25450 0.75378 0.10830 -0.09400
C 	C 	0.90030 0.69780 0.46890 0.43800
C 	C 	0.90070 0.66430 0.42780 -0.21800
C 	C 	0.85970 0.64400 0.36930 0.16500
H 	H 	0.83140 0.64850 0.35790 -0.01500
C 	C 	0.85970 0.61770 0.32830 -0.23800
H 	H 	0.83000 0.61000 0.28570 0.12000
C 	C 	0.89590 0.60200 0.34110 0.15200
C 	C 	0.94460 0.61530 0.41140 -0.15200
H 	H 	0.97290 0.60240 0.42780 0.09200
C 	C 	0.94320 0.65040 0.45120 0.09300
H 	H 	0.97140 0.66290 0.49210 0.01000
C 	C 	0.90020 0.32890 0.09840 0.36100
C 	C 	0.90470 0.37550 0.13490 -0.15000
C 	C 	0.85790 0.39120 0.10410 0.05600
H 	H 	0.82970 0.37930 0.06280 0.02400
C 	C 	0.85970 0.42780 0.14510 -0.15800
H 	H 	0.83180 0.43730 0.13270 0.08800
C 	C 	0.90050 0.44710 0.19910 0.12400
C 	C 	0.94330 0.42960 0.22090 -0.19600
H 	H 	0.97200 0.44430 0.25790 0.08900
C 	C 	0.94320 0.39450 0.19140 0.12300
H 	H 	0.97230 0.38140 0.21110 -0.00800
C 	C 	0.90510 0.49070 0.23800 -0.05200
C 	C 	0.88580 0.53110 0.20930 -0.10000
H 	H 	0.87340 0.53800 0.16620 0.06800
C 	C 	0.88370 0.57010 0.25120 0.18000
C 	C 	0.90190 0.55990 0.30890 -0.09700
C 	C 	0.93620 0.51780 0.35140 -0.12400
H 	H 	0.95310 0.51540 0.39740 0.08200
C 	C 	0.94240 0.48050 0.31870 0.18900
C 	C 	0.84310 0.63360 0.15770 0.10800
H 	H 	0.83930 0.60910 0.12870 -0.00100
H 	H 	0.86510 0.65760 0.16710 0.00800
C 	C 	0.79080 0.66110 0.11170 -0.19000
H 	H 	0.76520 0.64360 0.07010 0.08700
H 	H 	0.79140 0.69460 0.10100 0.08600
C 	C 	0.00320 0.44730 0.41870 0.99600
H 	H 	0.00430 0.48130 0.42900 -0.27400
H 	H 	0.00150 0.42830 0.44680 -0.27000
C 	C 	0.04600 0.43580 0.43760 -1.53500
H 	H 	0.05740 0.40610 0.46410 0.49600
H 	H 	0.03730 0.42740 0.39570 0.48400
C 	C 	0.08350 0.46480 0.47160 1.10500
H 	H 	0.10370 0.45260 0.46580 -0.31600
H 	H 	0.10150 0.46250 0.51970 -0.30600
C 	C 	0.07340 0.52000 0.45120 -0.53700
H 	H 	0.07020 0.52650 0.41330 0.18600
H 	H 	0.04510 0.53120 0.43980 0.21200
C 	C 	0.11160 0.53930 0.50730 -0.22900
H 	H 	0.12640 0.56010 0.49780 0.09200
H 	H 	0.13410 0.51400 0.53850 0.09000
C 	C 	0.09960 0.56720 0.53770 0.63400
H 	H 	0.10310 0.60040 0.53000 -0.16400
H 	H 	0.06560 0.56220 0.50650 -0.16000
C 	C 	0.11470 0.57000 0.60270 -1.28900
H 	H 	0.09670 0.59460 0.60130 0.42400
H 	H 	0.14790 0.57810 0.63720 0.40400
H 	H 	0.10960 0.53920 0.61320 0.41800
C 	C 	0.39650 0.67110 0.99400 0.33500
C 	C 	0.39980 0.62500 0.96430 -0.11000
C 	C 	0.35530 0.61240 0.90070 0.04200
H 	H 	0.32760 0.62280 0.88840 0.03200
C 	C 	0.35270 0.58310 0.85440 -0.13800
H 	H 	0.32900 0.58470 0.80710 0.08000
C 	C 	0.39420 0.55010 0.89550 0.13400
C 	C 	0.44370 0.56780 0.95990 -0.14100
H 	H 	0.47230 0.55500 0.97750 0.13100
C 	C 	0.43850 0.60660 0.98790 0.07400
H 	H 	0.46650 0.62020 0.02790 0.02600
C 	C 	0.40080 0.30170 0.62620 0.34200
C 	C 	0.39890 0.33790 0.66980 -0.09800
C 	C 	0.44290 0.35070 0.73260 0.02900
H 	H 	0.47120 0.33700 0.75020 0.04000
C 	C 	0.44090 0.38660 0.76780 -0.10600
H 	H 	0.46890 0.40100 0.80680 0.07400
C 	C 	0.39810 0.40040 0.74520 0.05500
C 	C 	0.35740 0.38050 0.68320 -0.14100
H 	H 	0.32800 0.38950 0.66640 0.08200
C 	C 	0.35810 0.35190 0.64950 0.07600
H 	H 	0.32950 0.33970 0.60890 0.01700
C 	C 	0.39350 0.44040 0.78440 0.06200
C 	C 	0.42350 0.43540 0.85010 -0.22300
H 	H 	0.44750 0.41220 0.87460 0.13100
C 	C 	0.41520 0.47130 0.88240 0.35500
C 	C 	0.39940 0.50880 0.86110 -0.19500
C 	C 	0.35710 0.51040 0.77930 0.00100
H 	H 	0.33510 0.53540 0.76120 0.03100
C 	C 	0.34880 0.47810 0.73040 -0.03800
C 	C 	0.44640 0.41770 0.96740 0.98300
H 	H 	0.43660 0.39980 0.92880 -0.24400
H 	H 	0.48080 0.41880 0.00040 -0.22500
C 	C 	0.43570 0.37990 0.00170 -0.50500
H 	H 	0.41030 0.39230 0.99680 0.18900
H 	H 	0.42610 0.34850 0.97940 0.18600
C 	C 	0.05120 0.76030 0.66000 0.14100
H 	H 	0.03510 0.76710 0.61500 -0.02500
C 	C 	0.10110 0.76190 0.71050 -0.19800
H 	H 	0.11720 0.77040 0.69820 0.09500
C 	C 	0.12340 0.75270 0.76870 0.09500
C 	C 	0.09900 0.72130 0.78090 -0.14300
H 	H 	0.11570 0.70220 0.81980 0.09100
C 	C 	0.05080 0.72260 0.73130 0.08200
H 	H 	0.03320 0.70480 0.73630 0.00400
C 	C 	0.25300 0.74690 0.85790 0.13600
H 	H 	0.26890 0.74070 0.84470 -0.02100
C 	C 	0.20370 0.75000 0.81020 -0.12400
H 	H 	0.18880 0.75480 0.76530 0.06600
C 	C 	0.17360 0.74700 0.82010 0.06100
C 	C 	0.25420 0.75000 0.93890 0.22500
H 	H 	0.26980 0.74740 0.98440 -0.06200
C 	C 	0.20490 0.75000 0.88840 -0.17100
H 	H 	0.19080 0.75260 0.90490 0.09700
N 	N 	0.02800 0.75010 0.67390 -0.25800
O 	O 	0.86330 0.70960 0.45120 -0.49900
O 	O 	0.94050 0.71550 0.52520 -0.47300
O 	O 	0.86170 0.30720 0.05340 -0.48000
O 	O 	0.94200 0.31190 0.12770 -0.45200
O 	O 	0.86540 0.61110 0.21940 -0.25100
O 	O 	0.96070 0.43910 0.34880 -0.44100
O 	O 	0.35800 0.69310 0.96020 -0.43500
O 	O 	0.44010 0.68519 0.05040 -0.42300
O 	O 	0.35790 0.29320 0.56410 -0.43100
O 	O 	0.43989 0.28950 0.64960 -0.45900
O 	O 	0.43690 0.45110 0.95070 -0.67200
Zn	Zn	0.95307 0.75113 0.60079 1.21100
Zn	Zn	0.84915 0.74762 0.49686 1.21800
N 	N 	0.27720 0.75330 0.92500 -0.25700
N 	N 	0.24550 0.74622 0.89170 -0.09400
C 	C 	0.40030 0.19780 0.46890 0.43800
C 	C 	0.40070 0.16430 0.42780 -0.21800
C 	C 	0.35970 0.14400 0.36930 0.16500
H 	H 	0.33140 0.14850 0.35790 -0.01500
C 	C 	0.35970 0.11770 0.32830 -0.23800
H 	H 	0.33000 0.11000 0.28570 0.12000
C 	C 	0.39590 0.10200 0.34110 0.15100
C 	C 	0.44460 0.11530 0.41140 -0.15200
H 	H 	0.47290 0.10240 0.42780 0.09200
C 	C 	0.44320 0.15040 0.45120 0.09300
H 	H 	0.47140 0.16290 0.49210 0.01000
C 	C 	0.40020 0.82890 0.09840 0.36100
C 	C 	0.40470 0.87550 0.13490 -0.15000
C 	C 	0.35790 0.89120 0.10410 0.05600
H 	H 	0.32970 0.87930 0.06280 0.02400
C 	C 	0.35970 0.92780 0.14510 -0.15800
H 	H 	0.33180 0.93730 0.13270 0.08800
C 	C 	0.40050 0.94710 0.19910 0.12400
C 	C 	0.44330 0.92960 0.22090 -0.19700
H 	H 	0.47200 0.94430 0.25790 0.08900
C 	C 	0.44320 0.89450 0.19140 0.12300
H 	H 	0.47230 0.88140 0.21110 -0.00800
C 	C 	0.40510 0.99070 0.23800 -0.05200
C 	C 	0.38580 0.03110 0.20930 -0.10000
H 	H 	0.37340 0.03800 0.16620 0.06800
C 	C 	0.38370 0.07010 0.25120 0.18000
C 	C 	0.40190 0.05990 0.30890 -0.09700
C 	C 	0.43620 0.01780 0.35140 -0.12400
H 	H 	0.45310 0.01540 0.39740 0.08200
C 	C 	0.44240 0.98050 0.31870 0.19000
C 	C 	0.34310 0.13360 0.15770 0.10800
H 	H 	0.33930 0.10910 0.12870 -0.00100
H 	H 	0.36510 0.15760 0.16710 0.00800
C 	C 	0.29080 0.16110 0.11170 -0.19000
H 	H 	0.26520 0.14360 0.07010 0.08600
H 	H 	0.29140 0.19460 0.10100 0.08600
C 	C 	0.50320 0.94730 0.41870 0.99800
H 	H 	0.50430 0.98130 0.42900 -0.27400
H 	H 	0.50150 0.92830 0.44680 -0.27000
C 	C 	0.54600 0.93580 0.43760 -1.53700
H 	H 	0.55740 0.90610 0.46410 0.49600
H 	H 	0.53730 0.92740 0.39570 0.48400
C 	C 	0.58350 0.96480 0.47160 1.10500
H 	H 	0.60370 0.95260 0.46580 -0.31600
H 	H 	0.60150 0.96250 0.51970 -0.30700
C 	C 	0.57340 0.02000 0.45120 -0.53700
H 	H 	0.57020 0.02650 0.41330 0.18600
H 	H 	0.54510 0.03120 0.43980 0.21200
C 	C 	0.61160 0.03930 0.50730 -0.23000
H 	H 	0.62640 0.06010 0.49780 0.09300
H 	H 	0.63410 0.01400 0.53850 0.09000
C 	C 	0.59960 0.06720 0.53770 0.63600
H 	H 	0.60310 0.10040 0.53000 -0.16500
H 	H 	0.56560 0.06220 0.50650 -0.16000
C 	C 	0.61470 0.07000 0.60270 -1.29100
H 	H 	0.59670 0.09460 0.60130 0.42500
H 	H 	0.64790 0.07810 0.63720 0.40500
H 	H 	0.60960 0.03920 0.61320 0.41800
C 	C 	0.89650 0.17110 0.99400 0.33300
C 	C 	0.89980 0.12500 0.96430 -0.10800
C 	C 	0.85530 0.11240 0.90070 0.04100
H 	H 	0.82760 0.12280 0.88840 0.03200
C 	C 	0.85270 0.08310 0.85440 -0.13700
H 	H 	0.82900 0.08470 0.80710 0.07900
C 	C 	0.89420 0.05010 0.89550 0.13200
C 	C 	0.94370 0.06780 0.95990 -0.13900
H 	H 	0.97230 0.05500 0.97750 0.13000
C 	C 	0.93850 0.10660 0.98790 0.07100
H 	H 	0.96650 0.12020 0.02790 0.02800
C 	C 	0.90080 0.80170 0.62620 0.34200
C 	C 	0.89890 0.83790 0.66980 -0.09900
C 	C 	0.94290 0.85070 0.73260 0.02900
H 	H 	0.97120 0.83700 0.75020 0.03900
C 	C 	0.94090 0.88660 0.76780 -0.10600
H 	H 	0.96890 0.90100 0.80680 0.07400
C 	C 	0.89810 0.90040 0.74520 0.05500
C 	C 	0.85740 0.88050 0.68320 -0.14200
H 	H 	0.82800 0.88950 0.66640 0.08200
C 	C 	0.85810 0.85190 0.64950 0.07600
H 	H 	0.82950 0.83970 0.60890 0.01700
C 	C 	0.89350 0.94040 0.78440 0.06100
C 	C 	0.92350 0.93540 0.85010 -0.22200
H 	H 	0.94750 0.91220 0.87460 0.13000
C 	C 	0.91520 0.97130 0.88240 0.35300
C 	C 	0.89940 0.00880 0.86110 -0.19300
C 	C 	0.85710 0.01040 0.77930 0.00100
H 	H 	0.83510 0.03540 0.76120 0.03100
C 	C 	0.84880 0.97810 0.73040 -0.03800
C 	C 	0.94640 0.91770 0.96740 0.97100
H 	H 	0.93660 0.89980 0.92880 -0.24100
H 	H 	0.98080 0.91880 0.00040 -0.22100
C 	C 	0.93570 0.87990 0.00170 -0.49800
H 	H 	0.91030 0.89230 0.99680 0.18700
H 	H 	0.92610 0.84850 0.97940 0.18300
C 	C 	0.55120 0.26030 0.66000 0.14100
H 	H 	0.53510 0.26710 0.61500 -0.02500
C 	C 	0.60110 0.26190 0.71050 -0.19800
H 	H 	0.61720 0.27040 0.69820 0.09500
C 	C 	0.62340 0.25270 0.76870 0.09500
C 	C 	0.59900 0.22130 0.78090 -0.14300
H 	H 	0.61570 0.20220 0.81980 0.09100
C 	C 	0.55080 0.22260 0.73130 0.08200
H 	H 	0.53320 0.20480 0.73630 0.00400
C 	C 	0.75300 0.24690 0.85790 0.13600
H 	H 	0.76890 0.24070 0.84470 -0.02100
C 	C 	0.70370 0.25000 0.81020 -0.12400
H 	H 	0.68880 0.25480 0.76530 0.06600
C 	C 	0.67360 0.24700 0.82010 0.06100
C 	C 	0.75420 0.25000 0.93890 0.22500
H 	H 	0.76980 0.24740 0.98440 -0.06200
C 	C 	0.70490 0.25000 0.88840 -0.17100
H 	H 	0.69080 0.25260 0.90490 0.09700
N 	N 	0.52800 0.25010 0.67390 -0.25800
O 	O 	0.36330 0.20960 0.45120 -0.49900
O 	O 	0.44050 0.21550 0.52520 -0.47300
O 	O 	0.36170 0.80720 0.05340 -0.48000
O 	O 	0.44200 0.81190 0.12770 -0.45200
O 	O 	0.36540 0.11110 0.21940 -0.25100
O 	O 	0.46070 0.93910 0.34880 -0.44200
O 	O 	0.85800 0.19310 0.96020 -0.43400
O 	O 	0.94010 0.18519 0.05040 -0.42200
O 	O 	0.85790 0.79320 0.56410 -0.43100
O 	O 	0.93989 0.78950 0.64960 -0.45900
O 	O 	0.93690 0.95110 0.95070 -0.66700
Zn	Zn	0.45307 0.25113 0.60079 1.21100
Zn	Zn	0.34916 0.24762 0.49686 1.21800
N 	N 	0.77720 0.25330 0.92500 -0.25700
N 	N 	0.74550 0.24622 0.89170 -0.09400
C 	C 	0.90030 0.30220 0.96890 0.43700
C 	C 	0.90070 0.33570 0.92780 -0.21700
C 	C 	0.85970 0.35600 0.86930 0.16400
H 	H 	0.83140 0.35150 0.85790 -0.01500
C 	C 	0.85970 0.38230 0.82830 -0.23800
H 	H 	0.83000 0.39000 0.78570 0.12000
C 	C 	0.89590 0.39800 0.84110 0.15100
C 	C 	0.94460 0.38470 0.91140 -0.15200
H 	H 	0.97290 0.39760 0.92780 0.09200
C 	C 	0.94320 0.34960 0.95120 0.09300
H 	H 	0.97140 0.33710 0.99210 0.01000
C 	C 	0.90020 0.67110 0.59840 0.36100
C 	C 	0.90470 0.62450 0.63490 -0.15100
C 	C 	0.85790 0.60880 0.60410 0.05600
H 	H 	0.82970 0.62070 0.56280 0.02400
C 	C 	0.85970 0.57220 0.64510 -0.15900
H 	H 	0.83180 0.56270 0.63270 0.08800
C 	C 	0.90050 0.55290 0.69910 0.12400
C 	C 	0.94330 0.57040 0.72090 -0.19700
H 	H 	0.97200 0.55570 0.75790 0.08900
C 	C 	0.94320 0.60550 0.69140 0.12400
H 	H 	0.97230 0.61860 0.71110 -0.00800
C 	C 	0.90510 0.50930 0.73800 -0.05200
C 	C 	0.88580 0.46890 0.70930 -0.09900
H 	H 	0.87340 0.46200 0.66620 0.06800
C 	C 	0.88370 0.42990 0.75120 0.18000
C 	C 	0.90190 0.44010 0.80890 -0.09700
C 	C 	0.93620 0.48220 0.85140 -0.12400
H 	H 	0.95310 0.48460 0.89740 0.08200
C 	C 	0.94240 0.51950 0.81870 0.19000
C 	C 	0.84310 0.36640 0.65770 0.10800
H 	H 	0.83930 0.39090 0.62870 -0.00100
H 	H 	0.86510 0.34240 0.66710 0.00800
C 	C 	0.79080 0.33890 0.61170 -0.19000
H 	H 	0.76520 0.35640 0.57010 0.08600
H 	H 	0.79140 0.30540 0.60100 0.08600
C 	C 	0.00320 0.55270 0.91870 1.00700
H 	H 	0.00430 0.51870 0.92900 -0.27600
H 	H 	0.00150 0.57170 0.94680 -0.27200
C 	C 	0.04600 0.56420 0.93760 -1.55000
H 	H 	0.05740 0.59390 0.96410 0.50000
H 	H 	0.03730 0.57260 0.89570 0.48800
C 	C 	0.08350 0.53520 0.97160 1.11700
H 	H 	0.10370 0.54740 0.96580 -0.31900
H 	H 	0.10150 0.53750 0.01970 -0.31100
C 	C 	0.07340 0.48000 0.95120 -0.53900
H 	H 	0.07020 0.47350 0.91330 0.18700
H 	H 	0.04510 0.46880 0.93980 0.21300
C 	C 	0.11160 0.46070 0.00730 -0.23300
H 	H 	0.12640 0.43990 0.99780 0.09400
H 	H 	0.13410 0.48600 0.03850 0.09100
C 	C 	0.09960 0.43280 0.03770 0.64000
H 	H 	0.10310 0.39960 0.03000 -0.16600
H 	H 	0.06560 0.43780 0.00650 -0.16100
C 	C 	0.11470 0.43000 0.10270 -1.29700
H 	H 	0.09670 0.40540 0.10130 0.42700
H 	H 	0.14790 0.42190 0.13720 0.40700
H 	H 	0.10960 0.46080 0.11320 0.42000
C 	C 	0.39650 0.32890 0.49400 0.33400
C 	C 	0.39980 0.37500 0.46430 -0.10900
C 	C 	0.35530 0.38760 0.40070 0.04200
H 	H 	0.32760 0.37720 0.38840 0.03200
C 	C 	0.35270 0.41690 0.35440 -0.13800
H 	H 	0.32900 0.41530 0.30710 0.08000
C 	C 	0.39420 0.44990 0.39550 0.13300
C 	C 	0.44370 0.43220 0.45990 -0.14100
H 	H 	0.47230 0.44500 0.47750 0.13100
C 	C 	0.43850 0.39340 0.48790 0.07400
H 	H 	0.46650 0.37980 0.52790 0.02600
C 	C 	0.40080 0.69830 0.12620 0.34200
C 	C 	0.39890 0.66210 0.16980 -0.09800
C 	C 	0.44290 0.64930 0.23260 0.02900
H 	H 	0.47120 0.66300 0.25020 0.04000
C 	C 	0.44090 0.61340 0.26780 -0.10600
H 	H 	0.46890 0.59900 0.30680 0.07400
C 	C 	0.39810 0.59960 0.24520 0.05500
C 	C 	0.35740 0.61950 0.18320 -0.14100
H 	H 	0.32800 0.61050 0.16640 0.08200
C 	C 	0.35810 0.64810 0.14950 0.07600
H 	H 	0.32950 0.66030 0.10890 0.01700
C 	C 	0.39350 0.55960 0.28440 0.06200
C 	C 	0.42350 0.56460 0.35010 -0.22300
H 	H 	0.44750 0.58780 0.37460 0.13100
C 	C 	0.41520 0.52870 0.38240 0.35500
C 	C 	0.39940 0.49120 0.36110 -0.19400
C 	C 	0.35710 0.48960 0.27930 0.00100
H 	H 	0.33510 0.46460 0.26120 0.03100
C 	C 	0.34880 0.52190 0.23040 -0.03800
C 	C 	0.44640 0.58230 0.46740 0.98200
H 	H 	0.43660 0.60020 0.42880 -0.24400
H 	H 	0.48080 0.58120 0.50040 -0.22500
C 	C 	0.43570 0.62010 0.50170 -0.50500
H 	H 	0.41030 0.60770 0.49680 0.18900
H 	H 	0.42610 0.65150 0.47940 0.18600
C 	C 	0.05120 0.23970 0.16000 0.14100
H 	H 	0.03510 0.23290 0.11500 -0.02600
C 	C 	0.10110 0.23810 0.21050 -0.19800
H 	H 	0.11720 0.22960 0.19820 0.09500
C 	C 	0.12340 0.24730 0.26870 0.09600
C 	C 	0.09900 0.27870 0.28090 -0.14300
H 	H 	0.11570 0.29780 0.31980 0.09100
C 	C 	0.05080 0.27740 0.23130 0.08200
H 	H 	0.03320 0.29520 0.23630 0.00400
C 	C 	0.25300 0.25310 0.35790 0.13600
H 	H 	0.26890 0.25930 0.34470 -0.02100
C 	C 	0.20370 0.25000 0.31020 -0.12400
H 	H 	0.18880 0.24520 0.26530 0.06600
C 	C 	0.17360 0.25300 0.32010 0.06100
C 	C 	0.25420 0.25000 0.43890 0.22500
H 	H 	0.26980 0.25260 0.48440 -0.06200
C 	C 	0.20490 0.25000 0.38840 -0.17100
H 	H 	0.19080 0.24740 0.40490 0.09700
N 	N 	0.02800 0.24990 0.17390 -0.25800
O 	O 	0.86330 0.29040 0.95120 -0.49900
O 	O 	0.94050 0.28450 0.02520 -0.47200
O 	O 	0.86170 0.69280 0.55340 -0.48100
O 	O 	0.94200 0.68810 0.62770 -0.45200
O 	O 	0.86540 0.38890 0.71940 -0.25100
O 	O 	0.96070 0.56090 0.84880 -0.44400
O 	O 	0.35800 0.30690 0.46020 -0.43500
O 	O 	0.44010 0.31481 0.55040 -0.42300
O 	O 	0.35790 0.70680 0.06410 -0.43100
O 	O 	0.43989 0.71050 0.14960 -0.45900
O 	O 	0.43690 0.54890 0.45070 -0.67200
Zn	Zn	0.95307 0.24887 0.10079 1.21100
Zn	Zn	0.84915 0.25238 0.99686 1.21700
N 	N 	0.27720 0.24670 0.42500 -0.25700
N 	N 	0.24550 0.25378 0.39170 -0.09400
C 	C 	0.40030 0.80220 0.96890 0.43800
C 	C 	0.40070 0.83570 0.92780 -0.21800
C 	C 	0.35970 0.85600 0.86930 0.16500
H 	H 	0.33140 0.85150 0.85790 -0.01500
C 	C 	0.35970 0.88230 0.82830 -0.23800
H 	H 	0.33000 0.89000 0.78570 0.12000
C 	C 	0.39590 0.89800 0.84110 0.15100
C 	C 	0.44460 0.88470 0.91140 -0.15200
H 	H 	0.47290 0.89760 0.92780 0.09200
C 	C 	0.44320 0.84960 0.95120 0.09300
H 	H 	0.47140 0.83710 0.99210 0.01000
C 	C 	0.40020 0.17110 0.59840 0.36100
C 	C 	0.40470 0.12450 0.63490 -0.15000
C 	C 	0.35790 0.10880 0.60410 0.05600
H 	H 	0.32970 0.12070 0.56280 0.02400
C 	C 	0.35970 0.07220 0.64510 -0.15800
H 	H 	0.33180 0.06270 0.63270 0.08800
C 	C 	0.40050 0.05290 0.69910 0.12400
C 	C 	0.44330 0.07040 0.72090 -0.19700
H 	H 	0.47200 0.05570 0.75790 0.08900
C 	C 	0.44320 0.10550 0.69140 0.12300
H 	H 	0.47230 0.11860 0.71110 -0.00800
C 	C 	0.40510 0.00930 0.73800 -0.05200
C 	C 	0.38580 0.96890 0.70930 -0.10000
H 	H 	0.37340 0.96200 0.66620 0.06800
C 	C 	0.38370 0.92990 0.75120 0.18000
C 	C 	0.40190 0.94010 0.80890 -0.09700
C 	C 	0.43620 0.98220 0.85140 -0.12400
H 	H 	0.45310 0.98460 0.89740 0.08200
C 	C 	0.44240 0.01950 0.81870 0.18900
C 	C 	0.34310 0.86640 0.65770 0.10800
H 	H 	0.33930 0.89090 0.62870 -0.00100
H 	H 	0.36510 0.84240 0.66710 0.00800
C 	C 	0.29080 0.83890 0.61170 -0.19000
H 	H 	0.26520 0.85640 0.57010 0.08600
H 	H 	0.29140 0.80540 0.60100 0.08600
C 	C 	0.50320 0.05270 0.91870 0.99600
H 	H 	0.50430 0.01870 0.92900 -0.27300
H 	H 	0.50150 0.07170 0.94680 -0.26900
C 	C 	0.54600 0.06420 0.93760 -1.53400
H 	H 	0.55740 0.09390 0.96410 0.49500
H 	H 	0.53730 0.07260 0.89570 0.48400
C 	C 	0.58350 0.03520 0.97160 1.10300
H 	H 	0.60370 0.04740 0.96580 -0.31500
H 	H 	0.60150 0.03750 0.01970 -0.30600
C 	C 	0.57340 0.98000 0.95120 -0.53600
H 	H 	0.57020 0.97350 0.91330 0.18500
H 	H 	0.54510 0.96880 0.93980 0.21200
C 	C 	0.61160 0.96070 0.00730 -0.23000
H 	H 	0.62640 0.93990 0.99780 0.09300
H 	H 	0.63410 0.98600 0.03850 0.09000
C 	C 	0.59960 0.93280 0.03770 0.63600
H 	H 	0.60310 0.89960 0.03000 -0.16400
H 	H 	0.56560 0.93780 0.00650 -0.16000
C 	C 	0.61470 0.93000 0.10270 -1.29100
H 	H 	0.59670 0.90540 0.10130 0.42500
H 	H 	0.64790 0.92190 0.13720 0.40500
H 	H 	0.60960 0.96080 0.11320 0.41800
C 	C 	0.89650 0.82890 0.49400 0.33400
C 	C 	0.89980 0.87500 0.46430 -0.11000
C 	C 	0.85530 0.88760 0.40070 0.04200
H 	H 	0.82760 0.87720 0.38840 0.03200
C 	C 	0.85270 0.91690 0.35440 -0.13800
H 	H 	0.82900 0.91530 0.30710 0.08000
C 	C 	0.89420 0.94990 0.39550 0.13300
C 	C 	0.94370 0.93220 0.45990 -0.14100
H 	H 	0.97230 0.94500 0.47750 0.13100
C 	C 	0.93850 0.89340 0.48790 0.07400
H 	H 	0.96650 0.87980 0.52790 0.02600
C 	C 	0.90080 0.19830 0.12620 0.34200
C 	C 	0.89890 0.16210 0.16980 -0.09800
C 	C 	0.94290 0.14930 0.23260 0.02900
H 	H 	0.97120 0.16300 0.25020 0.04000
C 	C 	0.94090 0.11340 0.26780 -0.10600
H 	H 	0.96890 0.09900 0.30680 0.07400
C 	C 	0.89810 0.09960 0.24520 0.05500
C 	C 	0.85740 0.11950 0.18320 -0.14100
H 	H 	0.82800 0.11050 0.16640 0.08200
C 	C 	0.85810 0.14810 0.14950 0.07500
H 	H 	0.82950 0.16030 0.10890 0.01800
C 	C 	0.89350 0.05960 0.28440 0.06200
C 	C 	0.92350 0.06460 0.35010 -0.22300
H 	H 	0.94750 0.08780 0.37460 0.13100
C 	C 	0.91520 0.02870 0.38240 0.35500
C 	C 	0.89940 0.99120 0.36110 -0.19500
C 	C 	0.85710 0.98960 0.27930 0.00100
H 	H 	0.83510 0.96460 0.26120 0.03100
C 	C 	0.84880 0.02190 0.23040 -0.03800
C 	C 	0.94640 0.08230 0.46740 0.98300
H 	H 	0.93660 0.10020 0.42880 -0.24400
H 	H 	0.98080 0.08120 0.50040 -0.22500
C 	C 	0.93570 0.12010 0.50170 -0.50500
H 	H 	0.91030 0.10770 0.49680 0.18900
H 	H 	0.92610 0.15150 0.47940 0.18600
C 	C 	0.55120 0.73970 0.16000 0.14100
H 	H 	0.53510 0.73290 0.11500 -0.02500
C 	C 	0.60110 0.73810 0.21050 -0.19800
H 	H 	0.61720 0.72960 0.19820 0.09500
C 	C 	0.62340 0.74730 0.26870 0.09500
C 	C 	0.59900 0.77870 0.28090 -0.14300
H 	H 	0.61570 0.79780 0.31980 0.09100
C 	C 	0.55080 0.77740 0.23130 0.08200
H 	H 	0.53320 0.79520 0.23630 0.00400
C 	C 	0.75300 0.75310 0.35790 0.13600
H 	H 	0.76890 0.75930 0.34470 -0.02100
C 	C 	0.70370 0.75000 0.31020 -0.12400
H 	H 	0.68880 0.74520 0.26530 0.06600
C 	C 	0.67360 0.75300 0.32010 0.06100
C 	C 	0.75420 0.75000 0.43890 0.22500
H 	H 	0.76980 0.75260 0.48440 -0.06200
C 	C 	0.70490 0.75000 0.38840 -0.17100
H 	H 	0.69080 0.74740 0.40490 0.09700
N 	N 	0.52800 0.74990 0.17390 -0.25800
O 	O 	0.36330 0.79040 0.95120 -0.49900
O 	O 	0.44050 0.78450 0.02520 -0.47300
O 	O 	0.36170 0.19280 0.55340 -0.48000
O 	O 	0.44200 0.18810 0.62770 -0.45200
O 	O 	0.36540 0.88890 0.71940 -0.25100
O 	O 	0.46070 0.06090 0.84880 -0.44100
O 	O 	0.85800 0.80690 0.46020 -0.43500
O 	O 	0.94010 0.81481 0.55040 -0.42300
O 	O 	0.85790 0.20680 0.06410 -0.43100
O 	O 	0.93989 0.21050 0.14960 -0.45900
O 	O 	0.93690 0.04890 0.45070 -0.67300
Zn	Zn	0.45307 0.74887 0.10079 1.21100
Zn	Zn	0.34916 0.75238 0.99686 1.21800
N 	N 	0.77720 0.74670 0.42500 -0.25700
N 	N 	0.74550 0.75378 0.39170 -0.09400
