data_crystal

_cell_length_a 39.02070
_cell_length_b 26.99060
_cell_length_c 27.38970
_cell_angle_alpha 90.00000
_cell_angle_beta  134.56500
_cell_angle_gamma 90.00000

_symmetry_space_group_name_	'P 1'
_symmetry_space_group_name_H-M	'P 1'

loop_
_symmetry_equiv_pos_as_xyz
  x,y,z

loop_
_atom_site_label
_atom_site_type_symbol
_atom_site_fract_x
_atom_site_fract_y
_atom_site_fract_z
_atom_site_charge
C 	C 	0.60680 0.83410 0.41280 0.42800
C 	C 	0.60720 0.87800 0.38260 -0.18200
C 	C 	0.65010 0.89690 0.40610 0.09400
H 	H 	0.67970 0.88310 0.44640 0.00900
C 	C 	0.65130 0.93440 0.37340 -0.16800
H 	H 	0.68110 0.94430 0.38940 0.09100
C 	C 	0.61020 0.95730 0.31880 0.12300
C 	C 	0.56650 0.94270 0.29520 -0.16300
H 	H 	0.53740 0.95880 0.25710 0.08700
C 	C 	0.56620 0.90380 0.32890 0.09300
H 	H 	0.53660 0.89490 0.31420 0.01200
C 	C 	0.61130 0.99820 0.28430 -0.05200
C 	C 	0.63670 0.99210 0.26540 0.12600
C 	C 	0.58220 0.04140 0.26160 -0.11600
H 	H 	0.56380 0.04790 0.27160 0.07900
C 	C 	0.58390 0.07270 0.22350 0.14900
C 	C 	0.60480 0.07090 0.20250 -0.08100
C 	C 	0.63660 0.02780 0.22640 -0.09900
H 	H 	0.65560 0.02400 0.21680 0.06200
C 	C 	0.60550 0.10800 0.16420 0.15100
C 	C 	0.56600 0.12530 0.10810 -0.18600
H 	H 	0.53650 0.11450 0.09260 0.10800
C 	C 	0.56480 0.16160 0.06680 0.09600
H 	H 	0.53560 0.17740 0.02860 0.00900
C 	C 	0.60550 0.17180 0.08410 -0.17900
C 	C 	0.64720 0.15320 0.14380 0.10700
H 	H 	0.67630 0.16100 0.15670 0.00500
C 	C 	0.64930 0.12380 0.18660 -0.18700
H 	H 	0.67930 0.11420 0.23020 0.08700
C 	C 	0.60390 0.20410 0.03650 0.43800
C 	C 	0.68660 0.94630 0.25980 0.02400
H 	H 	0.71430 0.96920 0.28900 0.01400
H 	H 	0.66660 0.95430 0.21100 0.02700
C 	C 	0.70410 0.88720 0.27710 -0.16000
H 	H 	0.67630 0.86490 0.25480 0.08800
H 	H 	0.72830 0.88120 0.32720 0.08000
C 	C 	0.59590 0.66680 0.49350 0.41800
C 	C 	0.59420 0.62200 0.52220 -0.15800
C 	C 	0.55050 0.59910 0.49190 0.07000
H 	H 	0.52110 0.61280 0.45100 0.01800
C 	C 	0.54920 0.55660 0.52050 -0.13600
H 	H 	0.52030 0.53900 0.49820 0.09200
C 	C 	0.59640 0.54160 0.58820 0.09700
C 	C 	0.63820 0.56510 0.61820 -0.15200
H 	H 	0.66770 0.55470 0.66190 0.07800
C 	C 	0.63710 0.60460 0.58430 0.07200
H 	H 	0.66650 0.61990 0.60420 0.01600
C 	C 	0.60100 0.49400 0.62920 -0.07600
C 	C 	0.63140 0.50800 0.70810 -0.09300
H 	H 	0.64790 0.53850 0.72920 0.06100
C 	C 	0.59320 0.45240 0.61700 0.14000
C 	C 	0.58070 0.41790 0.64100 -0.18000
H 	H 	0.55990 0.39060 0.61460 0.16000
C 	C 	0.59960 0.42680 0.70000 0.01600
C 	C 	0.63040 0.47130 0.73990 0.10300
C 	C 	0.59840 0.39300 0.74450 0.06500
C 	C 	0.55390 0.37280 0.71850 -0.12500
H 	H 	0.52420 0.38130 0.67390 0.08000
C 	C 	0.55500 0.34200 0.75750 0.05900
H 	H 	0.52590 0.32830 0.74030 0.02800
C 	C 	0.59990 0.32910 0.82540 -0.13500
C 	C 	0.64110 0.34770 0.84810 0.06600
H 	H 	0.67090 0.33890 0.89250 0.02500
C 	C 	0.64130 0.37890 0.80900 -0.12200
H 	H 	0.67090 0.39090 0.82610 0.08200
C 	C 	0.60080 0.29720 0.87060 0.39500
C 	C 	0.54870 0.38820 0.51710 -0.53800
H 	H 	0.51860 0.39010 0.46780 0.18400
H 	H 	0.57340 0.37470 0.51940 0.18300
C 	C 	0.54190 0.35680 0.53900 0.60900
H 	H 	0.50700 0.35010 0.50710 -0.16700
H 	H 	0.55430 0.36700 0.58370 -0.19300
C 	C 	0.56790 0.31090 0.54750 -0.59200
H 	H 	0.59870 0.31990 0.56240 0.18600
H 	H 	0.57480 0.28850 0.58210 0.19800
C 	C 	0.53620 0.28730 0.48130 0.28100
H 	H 	0.54830 0.29590 0.46040 -0.06300
H 	H 	0.54080 0.25110 0.48980 -0.04900
C 	C 	0.48680 0.29560 0.43130 -0.28800
H 	H 	0.48070 0.31610 0.39590 0.10300
H 	H 	0.48020 0.31730 0.45320 0.12500
C 	C 	0.44920 0.25890 0.39430 -0.10200
H 	H 	0.46470 0.22590 0.41140 0.06600
H 	H 	0.43060 0.26330 0.40620 0.06200
C 	C 	0.41570 0.25820 0.32090 0.13600
H 	H 	0.40410 0.22350 0.30730 -0.00600
H 	H 	0.43530 0.26370 0.31080 -0.00900
C 	C 	0.37360 0.28860 0.27270 -0.52500
H 	H 	0.35760 0.27990 0.22590 0.17200
H 	H 	0.38310 0.32360 0.28130 0.17300
H 	H 	0.35150 0.28300 0.27790 0.17600
C 	C 	0.68460 0.52870 0.83720 0.07500
H 	H 	0.70850 0.52690 0.83440 0.00800
H 	H 	0.66520 0.55930 0.81420 0.00700
C 	C 	0.70860 0.52610 0.91110 -0.17600
H 	H 	0.68320 0.51800 0.90970 0.09100
H 	H 	0.73100 0.49760 0.93280 0.08500
C 	C 	0.73740 0.57150 0.96080 -0.04300
H 	H 	0.71520 0.60020 0.93930 0.03700
H 	H 	0.76310 0.57950 0.96280 0.03800
C 	C 	0.76000 0.56800 0.03200 -0.11700
H 	H 	0.78600 0.54300 0.05620 0.05600
H 	H 	0.73560 0.55550 0.03090 0.04300
C 	C 	0.77950 0.61170 0.07090 -0.03400
H 	H 	0.81510 0.61000 0.10500 0.03800
H 	H 	0.76900 0.64030 0.04040 0.03300
C 	C 	0.76220 0.61980 0.11120 -0.19400
H 	H 	0.74250 0.65030 0.09230 0.07600
H 	H 	0.79160 0.62680 0.15980 0.08100
C 	C 	0.73330 0.57910 0.11130 0.12100
H 	H 	0.69840 0.58300 0.07040 -0.01100
H 	H 	0.73910 0.58280 0.15260 -0.01600
C 	C 	0.74980 0.52800 0.11090 -0.48700
H 	H 	0.73200 0.50240 0.11100 0.16800
H 	H 	0.74370 0.52450 0.06970 0.16400
H 	H 	0.78430 0.52430 0.15180 0.17500
C 	C 	0.74870 0.75280 0.63920 0.15100
H 	H 	0.73090 0.76030 0.65010 -0.02600
C 	C 	0.79950 0.75290 0.69160 -0.19900
H 	H 	0.81560 0.76580 0.73550 0.09100
C 	C 	0.82450 0.73540 0.68050 0.12200
C 	C 	0.79910 0.71690 0.61760 -0.19100
H 	H 	0.81430 0.70510 0.60400 0.10200
C 	C 	0.75000 0.71610 0.57380 0.13300
H 	H 	0.73180 0.69380 0.53610 -0.01900
C 	C 	0.95410 0.71440 0.77470 0.07600
H 	H 	0.97150 0.69880 0.76640 0.00800
C 	C 	0.90340 0.71120 0.72360 -0.10200
H 	H 	0.88690 0.69370 0.68210 0.07200
C 	C 	0.87840 0.73430 0.73600 0.02500
C 	C 	0.90350 0.75850 0.79620 -0.10300
H 	H 	0.88700 0.77440 0.80570 0.05300
C 	C 	0.95210 0.76000 0.84270 0.06000
H 	H 	0.96890 0.77730 0.88440 0.00100
O 	O 	0.56496 0.81800 0.38440 -0.46400
O 	O 	0.64392 0.81240 0.45930 -0.48600
O 	O 	0.56652 0.21710 0.98480 -0.50000
O 	O 	0.64575 0.21550 0.05970 -0.47100
O 	O 	0.65690 0.94760 0.27770 -0.21600
O 	O 	0.55450 0.11630 0.19730 -0.19500
O 	O 	0.55491 0.68511 0.43910 -0.45800
O 	O 	0.63448 0.68550 0.52300 -0.49100
O 	O 	0.56093 0.28234 0.84740 -0.46100
O 	O 	0.64117 0.28740 0.92900 -0.46700
O 	O 	0.56320 0.44100 0.54000 -0.10700
O 	O 	0.65460 0.48520 0.80850 -0.21500
Zn	Zn	0.65280 0.74784 0.50455 1.21900
Zn	Zn	0.54927 0.75237 0.40091 1.21600
N 	N 	0.72790 0.74340 0.58150 -0.28000
N 	N 	0.97841 0.73790 0.83290 -0.25100
C 	C 	0.10680 0.33410 0.41280 0.42900
C 	C 	0.10720 0.37800 0.38260 -0.18100
C 	C 	0.15010 0.39690 0.40610 0.09500
H 	H 	0.17970 0.38310 0.44640 0.01000
C 	C 	0.15130 0.43440 0.37340 -0.16700
H 	H 	0.18110 0.44430 0.38940 0.09200
C 	C 	0.11020 0.45730 0.31880 0.12400
C 	C 	0.06650 0.44270 0.29520 -0.16200
H 	H 	0.03740 0.45880 0.25710 0.08800
C 	C 	0.06620 0.40380 0.32890 0.09400
H 	H 	0.03660 0.39490 0.31420 0.01400
C 	C 	0.11130 0.49820 0.28430 -0.05100
C 	C 	0.13670 0.49210 0.26540 0.12700
C 	C 	0.08220 0.54140 0.26160 -0.11400
H 	H 	0.06380 0.54790 0.27160 0.08000
C 	C 	0.08390 0.57270 0.22350 0.15000
C 	C 	0.10480 0.57090 0.20250 -0.08000
C 	C 	0.13660 0.52780 0.22640 -0.09800
H 	H 	0.15560 0.52400 0.21680 0.06300
C 	C 	0.10550 0.60800 0.16420 0.15200
C 	C 	0.06600 0.62530 0.10810 -0.18500
H 	H 	0.03650 0.61450 0.09260 0.10900
C 	C 	0.06480 0.66160 0.06680 0.09700
H 	H 	0.03560 0.67740 0.02860 0.01000
C 	C 	0.10550 0.67180 0.08410 -0.17800
C 	C 	0.14720 0.65320 0.14380 0.10800
H 	H 	0.17630 0.66100 0.15670 0.00600
C 	C 	0.14930 0.62380 0.18660 -0.18600
H 	H 	0.17930 0.61420 0.23020 0.08800
C 	C 	0.10390 0.70410 0.03650 0.44000
C 	C 	0.18660 0.44630 0.25980 0.02500
H 	H 	0.21430 0.46920 0.28900 0.01500
H 	H 	0.16660 0.45430 0.21100 0.02800
C 	C 	0.20410 0.38720 0.27710 -0.15900
H 	H 	0.17630 0.36490 0.25480 0.08900
H 	H 	0.22830 0.38120 0.32720 0.08100
C 	C 	0.09590 0.16680 0.49350 0.41900
C 	C 	0.09420 0.12200 0.52220 -0.15700
C 	C 	0.05050 0.09910 0.49190 0.07100
H 	H 	0.02110 0.11280 0.45100 0.01900
C 	C 	0.04920 0.05660 0.52050 -0.13500
H 	H 	0.02030 0.03900 0.49820 0.09300
C 	C 	0.09640 0.04160 0.58820 0.09800
C 	C 	0.13820 0.06510 0.61820 -0.15100
H 	H 	0.16770 0.05470 0.66190 0.07900
C 	C 	0.13710 0.10460 0.58430 0.07300
H 	H 	0.16650 0.11990 0.60420 0.01700
C 	C 	0.10100 0.99400 0.62920 -0.07500
C 	C 	0.13140 0.00800 0.70810 -0.09200
H 	H 	0.14790 0.03850 0.72920 0.06200
C 	C 	0.09320 0.95240 0.61700 0.14100
C 	C 	0.08070 0.91790 0.64100 -0.17900
H 	H 	0.05990 0.89060 0.61460 0.16100
C 	C 	0.09960 0.92680 0.70000 0.01700
C 	C 	0.13040 0.97130 0.73990 0.10400
C 	C 	0.09840 0.89300 0.74450 0.06600
C 	C 	0.05390 0.87280 0.71850 -0.12400
H 	H 	0.02420 0.88130 0.67390 0.08100
C 	C 	0.05500 0.84200 0.75750 0.06000
H 	H 	0.02590 0.82830 0.74030 0.02800
C 	C 	0.09990 0.82910 0.82540 -0.13500
C 	C 	0.14110 0.84770 0.84810 0.06700
H 	H 	0.17090 0.83890 0.89250 0.02500
C 	C 	0.14130 0.87890 0.80900 -0.12200
H 	H 	0.17090 0.89090 0.82610 0.08200
C 	C 	0.10080 0.79720 0.87060 0.39500
C 	C 	0.04870 0.88820 0.51710 -0.53800
H 	H 	0.01860 0.89010 0.46780 0.18400
H 	H 	0.07340 0.87470 0.51940 0.18300
C 	C 	0.04190 0.85680 0.53900 0.60900
H 	H 	0.00700 0.85010 0.50710 -0.16700
H 	H 	0.05430 0.86700 0.58370 -0.19300
C 	C 	0.06790 0.81090 0.54750 -0.59200
H 	H 	0.09870 0.81990 0.56240 0.18600
H 	H 	0.07480 0.78850 0.58210 0.19800
C 	C 	0.03620 0.78730 0.48130 0.28100
H 	H 	0.04830 0.79590 0.46040 -0.06300
H 	H 	0.04080 0.75110 0.48980 -0.04900
C 	C 	0.98680 0.79560 0.43130 -0.28800
H 	H 	0.98070 0.81610 0.39590 0.10300
H 	H 	0.98020 0.81730 0.45320 0.12500
C 	C 	0.94920 0.75890 0.39430 -0.10200
H 	H 	0.96470 0.72590 0.41140 0.06600
H 	H 	0.93060 0.76330 0.40620 0.06200
C 	C 	0.91570 0.75820 0.32090 0.13600
H 	H 	0.90410 0.72350 0.30730 -0.00600
H 	H 	0.93530 0.76370 0.31080 -0.01000
C 	C 	0.87360 0.78860 0.27270 -0.52500
H 	H 	0.85760 0.77990 0.22590 0.17200
H 	H 	0.88310 0.82360 0.28130 0.17300
H 	H 	0.85150 0.78300 0.27790 0.17500
C 	C 	0.18460 0.02870 0.83720 0.07500
H 	H 	0.20850 0.02690 0.83440 0.00800
H 	H 	0.16520 0.05930 0.81420 0.00700
C 	C 	0.20860 0.02610 0.91110 -0.17600
H 	H 	0.18320 0.01800 0.90970 0.09000
H 	H 	0.23100 0.99760 0.93280 0.08500
C 	C 	0.23740 0.07150 0.96080 -0.04400
H 	H 	0.21520 0.10020 0.93930 0.03800
H 	H 	0.26310 0.07950 0.96280 0.03800
C 	C 	0.26000 0.06800 0.03200 -0.11500
H 	H 	0.28600 0.04300 0.05620 0.05500
H 	H 	0.23560 0.05550 0.03090 0.04300
C 	C 	0.27950 0.11170 0.07090 -0.03500
H 	H 	0.31510 0.11000 0.10500 0.03800
H 	H 	0.26900 0.14030 0.04040 0.03300
C 	C 	0.26220 0.11980 0.11120 -0.19300
H 	H 	0.24250 0.15030 0.09230 0.07600
H 	H 	0.29160 0.12680 0.15980 0.08100
C 	C 	0.23330 0.07910 0.11130 0.12100
H 	H 	0.19840 0.08300 0.07040 -0.01100
H 	H 	0.23910 0.08280 0.15260 -0.01600
C 	C 	0.24980 0.02800 0.11090 -0.48700
H 	H 	0.23200 0.00240 0.11100 0.16700
H 	H 	0.24370 0.02450 0.06970 0.16400
H 	H 	0.28430 0.02430 0.15180 0.17500
C 	C 	0.24870 0.25280 0.63920 0.15100
H 	H 	0.23090 0.26030 0.65010 -0.02600
C 	C 	0.29950 0.25290 0.69160 -0.19900
H 	H 	0.31560 0.26580 0.73550 0.09100
C 	C 	0.32450 0.23540 0.68050 0.12200
C 	C 	0.29910 0.21690 0.61760 -0.19100
H 	H 	0.31430 0.20510 0.60400 0.10200
C 	C 	0.25000 0.21610 0.57380 0.13300
H 	H 	0.23180 0.19380 0.53610 -0.01900
C 	C 	0.45410 0.21440 0.77470 0.07600
H 	H 	0.47150 0.19880 0.76640 0.00800
C 	C 	0.40340 0.21120 0.72360 -0.10200
H 	H 	0.38690 0.19370 0.68210 0.07200
C 	C 	0.37840 0.23430 0.73600 0.02500
C 	C 	0.40350 0.25850 0.79620 -0.10300
H 	H 	0.38700 0.27440 0.80570 0.05400
C 	C 	0.45210 0.26000 0.84270 0.06000
H 	H 	0.46890 0.27730 0.88440 0.00100
O 	O 	0.06496 0.31800 0.38440 -0.46400
O 	O 	0.14392 0.31240 0.45930 -0.48600
O 	O 	0.06652 0.71710 0.98480 -0.50100
O 	O 	0.14575 0.71550 0.05970 -0.47100
O 	O 	0.15690 0.44760 0.27770 -0.21600
O 	O 	0.05450 0.61630 0.19730 -0.19500
O 	O 	0.05491 0.18511 0.43910 -0.45800
O 	O 	0.13448 0.18550 0.52300 -0.49100
O 	O 	0.06093 0.78234 0.84740 -0.46100
O 	O 	0.14117 0.78740 0.92900 -0.46700
O 	O 	0.06320 0.94100 0.54000 -0.10700
O 	O 	0.15460 0.98520 0.80850 -0.21500
Zn	Zn	0.15280 0.24784 0.50455 1.21900
Zn	Zn	0.04927 0.25237 0.40091 1.21600
N 	N 	0.22790 0.24340 0.58150 -0.28000
N 	N 	0.47841 0.23790 0.83290 -0.25100
C 	C 	0.60680 0.16590 0.91280 0.42900
C 	C 	0.60720 0.12200 0.88260 -0.18100
C 	C 	0.65010 0.10310 0.90610 0.09500
H 	H 	0.67970 0.11690 0.94640 0.01000
C 	C 	0.65130 0.06560 0.87340 -0.16700
H 	H 	0.68110 0.05570 0.88940 0.09200
C 	C 	0.61020 0.04270 0.81880 0.12400
C 	C 	0.56650 0.05730 0.79520 -0.16200
H 	H 	0.53740 0.04120 0.75710 0.08800
C 	C 	0.56620 0.09620 0.82890 0.09400
H 	H 	0.53660 0.10510 0.81420 0.01400
C 	C 	0.61130 0.00180 0.78430 -0.05100
C 	C 	0.63670 0.00790 0.76540 0.12700
C 	C 	0.58220 0.95860 0.76160 -0.11500
H 	H 	0.56380 0.95210 0.77160 0.08000
C 	C 	0.58390 0.92730 0.72350 0.15000
C 	C 	0.60480 0.92910 0.70250 -0.08000
C 	C 	0.63660 0.97220 0.72640 -0.09800
H 	H 	0.65560 0.97600 0.71680 0.06300
C 	C 	0.60550 0.89200 0.66420 0.15200
C 	C 	0.56600 0.87470 0.60810 -0.18500
H 	H 	0.53650 0.88550 0.59260 0.10900
C 	C 	0.56480 0.83840 0.56680 0.09700
H 	H 	0.53560 0.82260 0.52860 0.01000
C 	C 	0.60550 0.82820 0.58410 -0.17800
C 	C 	0.64720 0.84680 0.64380 0.10800
H 	H 	0.67630 0.83900 0.65670 0.00600
C 	C 	0.64930 0.87620 0.68660 -0.18600
H 	H 	0.67930 0.88580 0.73020 0.08800
C 	C 	0.60390 0.79590 0.53650 0.44000
C 	C 	0.68660 0.05370 0.75980 0.02500
H 	H 	0.71430 0.03080 0.78900 0.01500
H 	H 	0.66660 0.04570 0.71100 0.02800
C 	C 	0.70410 0.11280 0.77710 -0.15900
H 	H 	0.67630 0.13510 0.75480 0.08900
H 	H 	0.72830 0.11880 0.82720 0.08100
C 	C 	0.59590 0.33320 0.99350 0.41900
C 	C 	0.59420 0.37800 0.02220 -0.15800
C 	C 	0.55050 0.40090 0.99190 0.07200
H 	H 	0.52110 0.38720 0.95100 0.01900
C 	C 	0.54920 0.44340 0.02050 -0.13500
H 	H 	0.52030 0.46100 0.99820 0.09300
C 	C 	0.59640 0.45840 0.08820 0.09800
C 	C 	0.63820 0.43490 0.11820 -0.15100
H 	H 	0.66770 0.44530 0.16190 0.07900
C 	C 	0.63710 0.39540 0.08430 0.07300
H 	H 	0.66650 0.38010 0.10420 0.01700
C 	C 	0.60100 0.50600 0.12920 -0.07500
C 	C 	0.63140 0.49200 0.20810 -0.09200
H 	H 	0.64790 0.46150 0.22920 0.06200
C 	C 	0.59320 0.54760 0.11700 0.14100
C 	C 	0.58070 0.58210 0.14100 -0.17900
H 	H 	0.55990 0.60940 0.11460 0.16100
C 	C 	0.59960 0.57320 0.20000 0.01700
C 	C 	0.63040 0.52870 0.23990 0.10400
C 	C 	0.59840 0.60700 0.24450 0.06600
C 	C 	0.55390 0.62720 0.21850 -0.12400
H 	H 	0.52420 0.61870 0.17390 0.08100
C 	C 	0.55500 0.65800 0.25750 0.06000
H 	H 	0.52590 0.67170 0.24030 0.02900
C 	C 	0.59990 0.67090 0.32540 -0.13500
C 	C 	0.64110 0.65230 0.34810 0.06700
H 	H 	0.67090 0.66110 0.39250 0.02500
C 	C 	0.64130 0.62110 0.30900 -0.12200
H 	H 	0.67090 0.60910 0.32610 0.08200
C 	C 	0.60080 0.70280 0.37060 0.39500
C 	C 	0.54870 0.61180 0.01710 -0.53800
H 	H 	0.51860 0.60990 0.96780 0.18400
H 	H 	0.57340 0.62530 0.01940 0.18300
C 	C 	0.54190 0.64320 0.03900 0.60900
H 	H 	0.50700 0.64990 0.00710 -0.16700
H 	H 	0.55430 0.63300 0.08370 -0.19300
C 	C 	0.56790 0.68910 0.04750 -0.59200
H 	H 	0.59870 0.68010 0.06240 0.18600
H 	H 	0.57480 0.71150 0.08210 0.19800
C 	C 	0.53620 0.71270 0.98130 0.28100
H 	H 	0.54830 0.70410 0.96040 -0.06300
H 	H 	0.54080 0.74890 0.98980 -0.04900
C 	C 	0.48680 0.70440 0.93130 -0.28800
H 	H 	0.48070 0.68390 0.89590 0.10300
H 	H 	0.48020 0.68270 0.95320 0.12500
C 	C 	0.44920 0.74110 0.89430 -0.10200
H 	H 	0.46470 0.77410 0.91140 0.06600
H 	H 	0.43060 0.73670 0.90620 0.06200
C 	C 	0.41570 0.74180 0.82090 0.13500
H 	H 	0.40410 0.77650 0.80730 -0.00500
H 	H 	0.43530 0.73630 0.81080 -0.00900
C 	C 	0.37360 0.71140 0.77270 -0.52500
H 	H 	0.35760 0.72010 0.72590 0.17200
H 	H 	0.38310 0.67640 0.78130 0.17300
H 	H 	0.35150 0.71700 0.77790 0.17500
C 	C 	0.68460 0.47130 0.33720 0.07500
H 	H 	0.70850 0.47310 0.33440 0.00800
H 	H 	0.66520 0.44070 0.31420 0.00700
C 	C 	0.70860 0.47390 0.41110 -0.17600
H 	H 	0.68320 0.48200 0.40970 0.09100
H 	H 	0.73100 0.50240 0.43280 0.08500
C 	C 	0.73740 0.42850 0.46080 -0.04400
H 	H 	0.71520 0.39980 0.43930 0.03700
H 	H 	0.76310 0.42050 0.46280 0.03800
C 	C 	0.76000 0.43200 0.53200 -0.11600
H 	H 	0.78600 0.45700 0.55620 0.05600
H 	H 	0.73560 0.44450 0.53090 0.04300
C 	C 	0.77950 0.38830 0.57090 -0.03500
H 	H 	0.81510 0.39000 0.60500 0.03800
H 	H 	0.76900 0.35970 0.54040 0.03300
C 	C 	0.76220 0.38020 0.61120 -0.19300
H 	H 	0.74250 0.34970 0.59230 0.07600
H 	H 	0.79160 0.37320 0.65980 0.08100
C 	C 	0.73330 0.42090 0.61130 0.12100
H 	H 	0.69840 0.41700 0.57040 -0.01100
H 	H 	0.73910 0.41720 0.65260 -0.01600
C 	C 	0.74980 0.47200 0.61090 -0.48700
H 	H 	0.73200 0.49760 0.61100 0.16800
H 	H 	0.74370 0.47550 0.56970 0.16400
H 	H 	0.78430 0.47570 0.65180 0.17500
C 	C 	0.74870 0.24720 0.13920 0.15100
H 	H 	0.73090 0.23970 0.15010 -0.02600
C 	C 	0.79950 0.24710 0.19160 -0.19900
H 	H 	0.81560 0.23420 0.23550 0.09100
C 	C 	0.82450 0.26460 0.18050 0.12200
C 	C 	0.79910 0.28310 0.11760 -0.19100
H 	H 	0.81430 0.29490 0.10400 0.10200
C 	C 	0.75000 0.28390 0.07380 0.13300
H 	H 	0.73180 0.30620 0.03610 -0.01900
C 	C 	0.95410 0.28560 0.27470 0.07600
H 	H 	0.97150 0.30120 0.26640 0.00800
C 	C 	0.90340 0.28880 0.22360 -0.10200
H 	H 	0.88690 0.30630 0.18210 0.07200
C 	C 	0.87840 0.26570 0.23600 0.02500
C 	C 	0.90350 0.24150 0.29620 -0.10300
H 	H 	0.88700 0.22560 0.30570 0.05400
C 	C 	0.95210 0.24000 0.34270 0.06000
H 	H 	0.96890 0.22270 0.38440 0.00100
O 	O 	0.56496 0.18200 0.88440 -0.46400
O 	O 	0.64392 0.18760 0.95930 -0.48600
O 	O 	0.56652 0.78290 0.48480 -0.50000
O 	O 	0.64575 0.78450 0.55970 -0.47100
O 	O 	0.65690 0.05240 0.77770 -0.21600
O 	O 	0.55450 0.88370 0.69730 -0.19500
O 	O 	0.55491 0.31489 0.93910 -0.45800
O 	O 	0.63448 0.31450 0.02300 -0.49100
O 	O 	0.56093 0.71766 0.34740 -0.46100
O 	O 	0.64117 0.71260 0.42900 -0.46700
O 	O 	0.56320 0.55900 0.04000 -0.10700
O 	O 	0.65460 0.51480 0.30850 -0.21500
Zn	Zn	0.65280 0.25216 0.00455 1.21900
Zn	Zn	0.54927 0.24763 0.90091 1.21600
N 	N 	0.72790 0.25660 0.08150 -0.28000
N 	N 	0.97841 0.26210 0.33290 -0.25100
C 	C 	0.10680 0.66590 0.91280 0.42900
C 	C 	0.10720 0.62200 0.88260 -0.18100
C 	C 	0.15010 0.60310 0.90610 0.09500
H 	H 	0.17970 0.61690 0.94640 0.01000
C 	C 	0.15130 0.56560 0.87340 -0.16700
H 	H 	0.18110 0.55570 0.88940 0.09200
C 	C 	0.11020 0.54270 0.81880 0.12400
C 	C 	0.06650 0.55730 0.79520 -0.16200
H 	H 	0.03740 0.54120 0.75710 0.08800
C 	C 	0.06620 0.59620 0.82890 0.09400
H 	H 	0.03660 0.60510 0.81420 0.01300
C 	C 	0.11130 0.50180 0.78430 -0.05100
C 	C 	0.13670 0.50790 0.76540 0.12700
C 	C 	0.08220 0.45860 0.76160 -0.11400
H 	H 	0.06380 0.45210 0.77160 0.08000
C 	C 	0.08390 0.42730 0.72350 0.15000
C 	C 	0.10480 0.42910 0.70250 -0.08000
C 	C 	0.13660 0.47220 0.72640 -0.09800
H 	H 	0.15560 0.47600 0.71680 0.06300
C 	C 	0.10550 0.39200 0.66420 0.15200
C 	C 	0.06600 0.37470 0.60810 -0.18500
H 	H 	0.03650 0.38550 0.59260 0.10900
C 	C 	0.06480 0.33840 0.56680 0.09700
H 	H 	0.03560 0.32260 0.52860 0.01000
C 	C 	0.10550 0.32820 0.58410 -0.17800
C 	C 	0.14720 0.34680 0.64380 0.10800
H 	H 	0.17630 0.33900 0.65670 0.00600
C 	C 	0.14930 0.37620 0.68660 -0.18600
H 	H 	0.17930 0.38580 0.73020 0.08800
C 	C 	0.10390 0.29590 0.53650 0.44000
C 	C 	0.18660 0.55370 0.75980 0.02500
H 	H 	0.21430 0.53080 0.78900 0.01500
H 	H 	0.16660 0.54570 0.71100 0.02800
C 	C 	0.20410 0.61280 0.77710 -0.15900
H 	H 	0.17630 0.63510 0.75480 0.08900
H 	H 	0.22830 0.61880 0.82720 0.08100
C 	C 	0.09590 0.83320 0.99350 0.41700
C 	C 	0.09420 0.87800 0.02220 -0.15500
C 	C 	0.05050 0.90090 0.99190 0.06800
H 	H 	0.02110 0.88720 0.95100 0.02000
C 	C 	0.04920 0.94340 0.02050 -0.13200
H 	H 	0.02030 0.96100 0.99820 0.09200
C 	C 	0.09640 0.95840 0.08820 0.09700
C 	C 	0.13820 0.93490 0.11820 -0.15000
H 	H 	0.16770 0.94530 0.16190 0.07900
C 	C 	0.13710 0.89540 0.08430 0.07100
H 	H 	0.16650 0.88010 0.10420 0.01800
C 	C 	0.10100 0.00600 0.12920 -0.07500
C 	C 	0.13140 0.99200 0.20810 -0.09200
H 	H 	0.14790 0.96150 0.22920 0.06200
C 	C 	0.09320 0.04760 0.11700 0.14100
C 	C 	0.08070 0.08210 0.14100 -0.17900
H 	H 	0.05990 0.10940 0.11460 0.16200
C 	C 	0.09960 0.07320 0.20000 0.01700
C 	C 	0.13040 0.02870 0.23990 0.10400
C 	C 	0.09840 0.10700 0.24450 0.06600
C 	C 	0.05390 0.12720 0.21850 -0.12400
H 	H 	0.02420 0.11870 0.17390 0.08100
C 	C 	0.05500 0.15800 0.25750 0.06000
H 	H 	0.02590 0.17170 0.24030 0.02900
C 	C 	0.09990 0.17090 0.32540 -0.13400
C 	C 	0.14110 0.15230 0.34810 0.06700
H 	H 	0.17090 0.16110 0.39250 0.02500
C 	C 	0.14130 0.12110 0.30900 -0.12200
H 	H 	0.17090 0.10910 0.32610 0.08200
C 	C 	0.10080 0.20280 0.37060 0.39500
C 	C 	0.04870 0.11180 0.01710 -0.54200
H 	H 	0.01860 0.10990 0.96780 0.18400
H 	H 	0.07340 0.12530 0.01940 0.18400
C 	C 	0.04190 0.14320 0.03900 0.61400
H 	H 	0.00700 0.14990 0.00710 -0.16800
H 	H 	0.05430 0.13300 0.08370 -0.19500
C 	C 	0.06790 0.18910 0.04750 -0.59600
H 	H 	0.09870 0.18010 0.06240 0.18800
H 	H 	0.07480 0.21150 0.08210 0.19900
C 	C 	0.03620 0.21270 0.98130 0.28500
H 	H 	0.04830 0.20410 0.96040 -0.06400
H 	H 	0.04080 0.24890 0.98980 -0.05100
C 	C 	0.98680 0.20440 0.93130 -0.29200
H 	H 	0.98070 0.18390 0.89590 0.10500
H 	H 	0.98020 0.18270 0.95320 0.12700
C 	C 	0.94920 0.24110 0.89430 -0.09700
H 	H 	0.96470 0.27410 0.91140 0.06500
H 	H 	0.93060 0.23670 0.90620 0.06100
C 	C 	0.91570 0.24180 0.82090 0.13100
H 	H 	0.90410 0.27650 0.80730 -0.00400
H 	H 	0.93530 0.23630 0.81080 -0.00800
C 	C 	0.87360 0.21140 0.77270 -0.52100
H 	H 	0.85760 0.22010 0.72590 0.17100
H 	H 	0.88310 0.17640 0.78130 0.17100
H 	H 	0.85150 0.21700 0.77790 0.17400
C 	C 	0.18460 0.97130 0.33720 0.07500
H 	H 	0.20850 0.97310 0.33440 0.00800
H 	H 	0.16520 0.94070 0.31420 0.00700
C 	C 	0.20860 0.97390 0.41110 -0.17600
H 	H 	0.18320 0.98200 0.40970 0.09100
H 	H 	0.23100 0.00240 0.43280 0.08500
C 	C 	0.23740 0.92850 0.46080 -0.04400
H 	H 	0.21520 0.89980 0.43930 0.03800
H 	H 	0.26310 0.92050 0.46280 0.03800
C 	C 	0.26000 0.93200 0.53200 -0.11600
H 	H 	0.28600 0.95700 0.55620 0.05600
H 	H 	0.23560 0.94450 0.53090 0.04300
C 	C 	0.27950 0.88830 0.57090 -0.03500
H 	H 	0.31510 0.89000 0.60500 0.03800
H 	H 	0.26900 0.85970 0.54040 0.03300
C 	C 	0.26220 0.88020 0.61120 -0.19300
H 	H 	0.24250 0.84970 0.59230 0.07600
H 	H 	0.29160 0.87320 0.65980 0.08100
C 	C 	0.23330 0.92090 0.61130 0.12100
H 	H 	0.19840 0.91700 0.57040 -0.01100
H 	H 	0.23910 0.91720 0.65260 -0.01600
C 	C 	0.24980 0.97200 0.61090 -0.48700
H 	H 	0.23200 0.99760 0.61100 0.16700
H 	H 	0.24370 0.97550 0.56970 0.16400
H 	H 	0.28430 0.97570 0.65180 0.17500
C 	C 	0.24870 0.74720 0.13920 0.15100
H 	H 	0.23090 0.73970 0.15010 -0.02600
C 	C 	0.29950 0.74710 0.19160 -0.19900
H 	H 	0.31560 0.73420 0.23550 0.09100
C 	C 	0.32450 0.76460 0.18050 0.12200
C 	C 	0.29910 0.78310 0.11760 -0.19100
H 	H 	0.31430 0.79490 0.10400 0.10200
C 	C 	0.25000 0.78390 0.07380 0.13300
H 	H 	0.23180 0.80620 0.03610 -0.01900
C 	C 	0.45410 0.78560 0.27470 0.07600
H 	H 	0.47150 0.80120 0.26640 0.00800
C 	C 	0.40340 0.78880 0.22360 -0.10200
H 	H 	0.38690 0.80630 0.18210 0.07200
C 	C 	0.37840 0.76570 0.23600 0.02500
C 	C 	0.40350 0.74150 0.29620 -0.10300
H 	H 	0.38700 0.72560 0.30570 0.05400
C 	C 	0.45210 0.74000 0.34270 0.06000
H 	H 	0.46890 0.72270 0.38440 0.00100
O 	O 	0.06496 0.68200 0.88440 -0.46400
O 	O 	0.14392 0.68760 0.95930 -0.48600
O 	O 	0.06652 0.28290 0.48480 -0.50000
O 	O 	0.14575 0.28450 0.55970 -0.47100
O 	O 	0.15690 0.55240 0.77770 -0.21600
O 	O 	0.05450 0.38370 0.69730 -0.19500
O 	O 	0.05491 0.81489 0.93910 -0.45800
O 	O 	0.13448 0.81450 0.02300 -0.49000
O 	O 	0.06093 0.21766 0.34740 -0.46100
O 	O 	0.14117 0.21260 0.42900 -0.46700
O 	O 	0.06320 0.05900 0.04000 -0.10600
O 	O 	0.15460 0.01480 0.30850 -0.21500
Zn	Zn	0.15280 0.75216 0.00455 1.21900
Zn	Zn	0.04927 0.74763 0.90091 1.21600
N 	N 	0.22790 0.75660 0.08150 -0.28000
N 	N 	0.47841 0.76210 0.33290 -0.25100
C 	C 	0.39320 0.83410 0.08720 0.42900
C 	C 	0.39280 0.87800 0.11740 -0.18100
C 	C 	0.34990 0.89690 0.09390 0.09500
H 	H 	0.32030 0.88310 0.05360 0.01000
C 	C 	0.34870 0.93440 0.12660 -0.16700
H 	H 	0.31890 0.94430 0.11060 0.09200
C 	C 	0.38980 0.95730 0.18120 0.12400
C 	C 	0.43350 0.94270 0.20480 -0.16200
H 	H 	0.46260 0.95880 0.24290 0.08800
C 	C 	0.43380 0.90380 0.17110 0.09400
H 	H 	0.46340 0.89490 0.18580 0.01400
C 	C 	0.38870 0.99820 0.21570 -0.05100
C 	C 	0.36330 0.99210 0.23460 0.12700
C 	C 	0.41780 0.04140 0.23840 -0.11500
H 	H 	0.43620 0.04790 0.22840 0.08000
C 	C 	0.41610 0.07270 0.27650 0.15000
C 	C 	0.39520 0.07090 0.29750 -0.08000
C 	C 	0.36340 0.02780 0.27360 -0.09800
H 	H 	0.34440 0.02400 0.28320 0.06300
C 	C 	0.39450 0.10800 0.33580 0.15200
C 	C 	0.43400 0.12530 0.39190 -0.18500
H 	H 	0.46350 0.11450 0.40740 0.10900
C 	C 	0.43520 0.16160 0.43320 0.09700
H 	H 	0.46440 0.17740 0.47140 0.01000
C 	C 	0.39450 0.17180 0.41590 -0.17800
C 	C 	0.35280 0.15320 0.35620 0.10800
H 	H 	0.32370 0.16100 0.34330 0.00600
C 	C 	0.35070 0.12380 0.31340 -0.18600
H 	H 	0.32070 0.11420 0.26980 0.08800
C 	C 	0.39610 0.20410 0.46350 0.44000
C 	C 	0.31340 0.94630 0.24020 0.02500
H 	H 	0.28570 0.96920 0.21100 0.01500
H 	H 	0.33340 0.95430 0.28900 0.02800
C 	C 	0.29590 0.88720 0.22290 -0.15900
H 	H 	0.32370 0.86490 0.24520 0.08900
H 	H 	0.27170 0.88120 0.17280 0.08100
C 	C 	0.40410 0.66680 0.00650 0.41900
C 	C 	0.40580 0.62200 0.97780 -0.15800
C 	C 	0.44950 0.59910 0.00810 0.07200
H 	H 	0.47890 0.61280 0.04900 0.01900
C 	C 	0.45080 0.55660 0.97950 -0.13500
H 	H 	0.47970 0.53900 0.00180 0.09300
C 	C 	0.40360 0.54160 0.91180 0.09800
C 	C 	0.36180 0.56510 0.88180 -0.15100
H 	H 	0.33230 0.55470 0.83810 0.07900
C 	C 	0.36290 0.60460 0.91570 0.07300
H 	H 	0.33350 0.61990 0.89580 0.01700
C 	C 	0.39900 0.49400 0.87080 -0.07500
C 	C 	0.36860 0.50800 0.79190 -0.09200
H 	H 	0.35210 0.53850 0.77080 0.06200
C 	C 	0.40680 0.45240 0.88300 0.14100
C 	C 	0.41930 0.41790 0.85900 -0.17900
H 	H 	0.44010 0.39060 0.88540 0.16100
C 	C 	0.40040 0.42680 0.80000 0.01700
C 	C 	0.36960 0.47130 0.76010 0.10400
C 	C 	0.40160 0.39300 0.75550 0.06600
C 	C 	0.44610 0.37280 0.78150 -0.12400
H 	H 	0.47580 0.38130 0.82610 0.08100
C 	C 	0.44500 0.34200 0.74250 0.06000
H 	H 	0.47410 0.32830 0.75970 0.02900
C 	C 	0.40010 0.32910 0.67460 -0.13500
C 	C 	0.35890 0.34770 0.65190 0.06700
H 	H 	0.32910 0.33890 0.60750 0.02500
C 	C 	0.35870 0.37890 0.69100 -0.12200
H 	H 	0.32910 0.39090 0.67390 0.08200
C 	C 	0.39920 0.29720 0.62940 0.39500
C 	C 	0.45130 0.38820 0.98290 -0.53800
H 	H 	0.48140 0.39010 0.03220 0.18400
H 	H 	0.42660 0.37470 0.98060 0.18300
C 	C 	0.45810 0.35680 0.96100 0.60900
H 	H 	0.49300 0.35010 0.99290 -0.16700
H 	H 	0.44570 0.36700 0.91630 -0.19300
C 	C 	0.43210 0.31090 0.95250 -0.59200
H 	H 	0.40130 0.31990 0.93760 0.18600
H 	H 	0.42520 0.28850 0.91790 0.19800
C 	C 	0.46380 0.28730 0.01870 0.28100
H 	H 	0.45170 0.29590 0.03960 -0.06300
H 	H 	0.45920 0.25110 0.01020 -0.04900
C 	C 	0.51320 0.29560 0.06870 -0.28800
H 	H 	0.51930 0.31610 0.10410 0.10300
H 	H 	0.51980 0.31730 0.04680 0.12500
C 	C 	0.55080 0.25890 0.10570 -0.10200
H 	H 	0.53530 0.22590 0.08860 0.06600
H 	H 	0.56940 0.26330 0.09380 0.06200
C 	C 	0.58430 0.25820 0.17910 0.13500
H 	H 	0.59590 0.22350 0.19270 -0.00500
H 	H 	0.56470 0.26370 0.18920 -0.00900
C 	C 	0.62640 0.28860 0.22730 -0.52500
H 	H 	0.64240 0.27990 0.27410 0.17200
H 	H 	0.61690 0.32360 0.21870 0.17300
H 	H 	0.64850 0.28300 0.22210 0.17500
C 	C 	0.31540 0.52870 0.66280 0.07500
H 	H 	0.29150 0.52690 0.66560 0.00800
H 	H 	0.33480 0.55930 0.68580 0.00700
C 	C 	0.29140 0.52610 0.58890 -0.17600
H 	H 	0.31680 0.51800 0.59030 0.09100
H 	H 	0.26900 0.49760 0.56720 0.08500
C 	C 	0.26260 0.57150 0.53920 -0.04400
H 	H 	0.28480 0.60020 0.56070 0.03700
H 	H 	0.23690 0.57950 0.53720 0.03800
C 	C 	0.24000 0.56800 0.46800 -0.11600
H 	H 	0.21400 0.54300 0.44380 0.05600
H 	H 	0.26440 0.55550 0.46910 0.04300
C 	C 	0.22050 0.61170 0.42910 -0.03500
H 	H 	0.18490 0.61000 0.39500 0.03800
H 	H 	0.23100 0.64030 0.45960 0.03300
C 	C 	0.23780 0.61980 0.38880 -0.19300
H 	H 	0.25750 0.65030 0.40770 0.07600
H 	H 	0.20840 0.62680 0.34020 0.08100
C 	C 	0.26670 0.57910 0.38870 0.12100
H 	H 	0.30160 0.58300 0.42960 -0.01100
H 	H 	0.26090 0.58280 0.34740 -0.01600
C 	C 	0.25020 0.52800 0.38910 -0.48700
H 	H 	0.26800 0.50240 0.38900 0.16800
H 	H 	0.25630 0.52450 0.43030 0.16400
H 	H 	0.21570 0.52430 0.34820 0.17500
C 	C 	0.25130 0.75280 0.86080 0.15100
H 	H 	0.26910 0.76030 0.84990 -0.02600
C 	C 	0.20050 0.75290 0.80840 -0.19900
H 	H 	0.18440 0.76580 0.76450 0.09100
C 	C 	0.17550 0.73540 0.81950 0.12200
C 	C 	0.20090 0.71690 0.88240 -0.19100
H 	H 	0.18570 0.70510 0.89600 0.10200
C 	C 	0.25000 0.71610 0.92620 0.13300
H 	H 	0.26820 0.69380 0.96390 -0.01900
C 	C 	0.04590 0.71440 0.72530 0.07600
H 	H 	0.02850 0.69880 0.73360 0.00800
C 	C 	0.09660 0.71120 0.77640 -0.10200
H 	H 	0.11310 0.69370 0.81790 0.07200
C 	C 	0.12160 0.73430 0.76400 0.02500
C 	C 	0.09650 0.75850 0.70380 -0.10300
H 	H 	0.11300 0.77440 0.69430 0.05400
C 	C 	0.04790 0.76000 0.65730 0.06000
H 	H 	0.03110 0.77730 0.61560 0.00100
O 	O 	0.43504 0.81800 0.11560 -0.46400
O 	O 	0.35608 0.81240 0.04070 -0.48600
O 	O 	0.43348 0.21710 0.51520 -0.50000
O 	O 	0.35425 0.21550 0.44030 -0.47100
O 	O 	0.34310 0.94760 0.22230 -0.21600
O 	O 	0.44550 0.11630 0.30270 -0.19500
O 	O 	0.44509 0.68511 0.06090 -0.45800
O 	O 	0.36552 0.68550 0.97700 -0.49100
O 	O 	0.43907 0.28234 0.65260 -0.46100
O 	O 	0.35883 0.28740 0.57100 -0.46700
O 	O 	0.43680 0.44100 0.96000 -0.10700
O 	O 	0.34540 0.48520 0.69150 -0.21500
Zn	Zn	0.34720 0.74784 0.99545 1.21900
Zn	Zn	0.45073 0.75237 0.09909 1.21600
N 	N 	0.27210 0.74340 0.91850 -0.28000
N 	N 	0.02159 0.73790 0.66710 -0.25100
C 	C 	0.89320 0.33410 0.08720 0.42900
C 	C 	0.89280 0.37800 0.11740 -0.18100
C 	C 	0.84990 0.39690 0.09390 0.09500
H 	H 	0.82030 0.38310 0.05360 0.01000
C 	C 	0.84870 0.43440 0.12660 -0.16700
H 	H 	0.81890 0.44430 0.11060 0.09200
C 	C 	0.88980 0.45730 0.18120 0.12400
C 	C 	0.93350 0.44270 0.20480 -0.16200
H 	H 	0.96260 0.45880 0.24290 0.08800
C 	C 	0.93380 0.40380 0.17110 0.09400
H 	H 	0.96340 0.39490 0.18580 0.01300
C 	C 	0.88870 0.49820 0.21570 -0.05100
C 	C 	0.86330 0.49210 0.23460 0.12700
C 	C 	0.91780 0.54140 0.23840 -0.11400
H 	H 	0.93620 0.54790 0.22840 0.08000
C 	C 	0.91610 0.57270 0.27650 0.15000
C 	C 	0.89520 0.57090 0.29750 -0.08000
C 	C 	0.86340 0.52780 0.27360 -0.09800
H 	H 	0.84440 0.52400 0.28320 0.06300
C 	C 	0.89450 0.60800 0.33580 0.15200
C 	C 	0.93400 0.62530 0.39190 -0.18500
H 	H 	0.96350 0.61450 0.40740 0.10900
C 	C 	0.93520 0.66160 0.43320 0.09700
H 	H 	0.96440 0.67740 0.47140 0.01000
C 	C 	0.89450 0.67180 0.41590 -0.17800
C 	C 	0.85280 0.65320 0.35620 0.10800
H 	H 	0.82370 0.66100 0.34330 0.00600
C 	C 	0.85070 0.62380 0.31340 -0.18600
H 	H 	0.82070 0.61420 0.26980 0.08800
C 	C 	0.89610 0.70410 0.46350 0.44000
C 	C 	0.81340 0.44630 0.24020 0.02500
H 	H 	0.78570 0.46920 0.21100 0.01500
H 	H 	0.83340 0.45430 0.28900 0.02800
C 	C 	0.79590 0.38720 0.22290 -0.15900
H 	H 	0.82370 0.36490 0.24520 0.08900
H 	H 	0.77170 0.38120 0.17280 0.08100
C 	C 	0.90410 0.16680 0.00650 0.41700
C 	C 	0.90580 0.12200 0.97780 -0.15500
C 	C 	0.94950 0.09910 0.00810 0.06800
H 	H 	0.97890 0.11280 0.04900 0.02000
C 	C 	0.95080 0.05660 0.97950 -0.13200
H 	H 	0.97970 0.03900 0.00180 0.09200
C 	C 	0.90360 0.04160 0.91180 0.09700
C 	C 	0.86180 0.06510 0.88180 -0.15000
H 	H 	0.83230 0.05470 0.83810 0.07900
C 	C 	0.86290 0.10460 0.91570 0.07100
H 	H 	0.83350 0.11990 0.89580 0.01800
C 	C 	0.89900 0.99400 0.87080 -0.07500
C 	C 	0.86860 0.00800 0.79190 -0.09200
H 	H 	0.85210 0.03850 0.77080 0.06200
C 	C 	0.90680 0.95240 0.88300 0.14100
C 	C 	0.91930 0.91790 0.85900 -0.17900
H 	H 	0.94010 0.89060 0.88540 0.16200
C 	C 	0.90040 0.92680 0.80000 0.01700
C 	C 	0.86960 0.97130 0.76010 0.10400
C 	C 	0.90160 0.89300 0.75550 0.06600
C 	C 	0.94610 0.87280 0.78150 -0.12400
H 	H 	0.97580 0.88130 0.82610 0.08100
C 	C 	0.94500 0.84200 0.74250 0.06000
H 	H 	0.97410 0.82830 0.75970 0.02900
C 	C 	0.90010 0.82910 0.67460 -0.13400
C 	C 	0.85890 0.84770 0.65190 0.06700
H 	H 	0.82910 0.83890 0.60750 0.02500
C 	C 	0.85870 0.87890 0.69100 -0.12200
H 	H 	0.82910 0.89090 0.67390 0.08200
C 	C 	0.89920 0.79720 0.62940 0.39500
C 	C 	0.95130 0.88820 0.98290 -0.54200
H 	H 	0.98140 0.89010 0.03220 0.18400
H 	H 	0.92660 0.87470 0.98060 0.18400
C 	C 	0.95810 0.85680 0.96100 0.61400
H 	H 	0.99300 0.85010 0.99290 -0.16800
H 	H 	0.94570 0.86700 0.91630 -0.19500
C 	C 	0.93210 0.81090 0.95250 -0.59600
H 	H 	0.90130 0.81990 0.93760 0.18800
H 	H 	0.92520 0.78850 0.91790 0.19900
C 	C 	0.96380 0.78730 0.01870 0.28500
H 	H 	0.95170 0.79590 0.03960 -0.06400
H 	H 	0.95920 0.75110 0.01020 -0.05100
C 	C 	0.01320 0.79560 0.06870 -0.29200
H 	H 	0.01930 0.81610 0.10410 0.10500
H 	H 	0.01980 0.81730 0.04680 0.12700
C 	C 	0.05080 0.75890 0.10570 -0.09700
H 	H 	0.03530 0.72590 0.08860 0.06500
H 	H 	0.06940 0.76330 0.09380 0.06100
C 	C 	0.08430 0.75820 0.17910 0.13100
H 	H 	0.09590 0.72350 0.19270 -0.00400
H 	H 	0.06470 0.76370 0.18920 -0.00800
C 	C 	0.12640 0.78860 0.22730 -0.52100
H 	H 	0.14240 0.77990 0.27410 0.17100
H 	H 	0.11690 0.82360 0.21870 0.17100
H 	H 	0.14850 0.78300 0.22210 0.17400
C 	C 	0.81540 0.02870 0.66280 0.07500
H 	H 	0.79150 0.02690 0.66560 0.00800
H 	H 	0.83480 0.05930 0.68580 0.00700
C 	C 	0.79140 0.02610 0.58890 -0.17600
H 	H 	0.81680 0.01800 0.59030 0.09100
H 	H 	0.76900 0.99760 0.56720 0.08500
C 	C 	0.76260 0.07150 0.53920 -0.04400
H 	H 	0.78480 0.10020 0.56070 0.03800
H 	H 	0.73690 0.07950 0.53720 0.03800
C 	C 	0.74000 0.06800 0.46800 -0.11600
H 	H 	0.71400 0.04300 0.44380 0.05600
H 	H 	0.76440 0.05550 0.46910 0.04300
C 	C 	0.72050 0.11170 0.42910 -0.03500
H 	H 	0.68490 0.11000 0.39500 0.03800
H 	H 	0.73100 0.14030 0.45960 0.03300
C 	C 	0.73780 0.11980 0.38880 -0.19300
H 	H 	0.75750 0.15030 0.40770 0.07600
H 	H 	0.70840 0.12680 0.34020 0.08100
C 	C 	0.76670 0.07910 0.38870 0.12100
H 	H 	0.80160 0.08300 0.42960 -0.01100
H 	H 	0.76090 0.08280 0.34740 -0.01600
C 	C 	0.75020 0.02800 0.38910 -0.48700
H 	H 	0.76800 0.00240 0.38900 0.16700
H 	H 	0.75630 0.02450 0.43030 0.16400
H 	H 	0.71570 0.02430 0.34820 0.17500
C 	C 	0.75130 0.25280 0.86080 0.15100
H 	H 	0.76910 0.26030 0.84990 -0.02600
C 	C 	0.70050 0.25290 0.80840 -0.19900
H 	H 	0.68440 0.26580 0.76450 0.09100
C 	C 	0.67550 0.23540 0.81950 0.12200
C 	C 	0.70090 0.21690 0.88240 -0.19100
H 	H 	0.68570 0.20510 0.89600 0.10200
C 	C 	0.75000 0.21610 0.92620 0.13300
H 	H 	0.76820 0.19380 0.96390 -0.01900
C 	C 	0.54590 0.21440 0.72530 0.07600
H 	H 	0.52850 0.19880 0.73360 0.00800
C 	C 	0.59660 0.21120 0.77640 -0.10200
H 	H 	0.61310 0.19370 0.81790 0.07200
C 	C 	0.62160 0.23430 0.76400 0.02500
C 	C 	0.59650 0.25850 0.70380 -0.10300
H 	H 	0.61300 0.27440 0.69430 0.05400
C 	C 	0.54790 0.26000 0.65730 0.06000
H 	H 	0.53110 0.27730 0.61560 0.00100
O 	O 	0.93504 0.31800 0.11560 -0.46400
O 	O 	0.85608 0.31240 0.04070 -0.48600
O 	O 	0.93348 0.71710 0.51520 -0.50000
O 	O 	0.85425 0.71550 0.44030 -0.47100
O 	O 	0.84310 0.44760 0.22230 -0.21600
O 	O 	0.94550 0.61630 0.30270 -0.19500
O 	O 	0.94509 0.18511 0.06090 -0.45800
O 	O 	0.86552 0.18550 0.97700 -0.49000
O 	O 	0.93907 0.78234 0.65260 -0.46100
O 	O 	0.85883 0.78740 0.57100 -0.46700
O 	O 	0.93680 0.94100 0.96000 -0.10600
O 	O 	0.84540 0.98520 0.69150 -0.21500
Zn	Zn	0.84720 0.24784 0.99545 1.21900
Zn	Zn	0.95073 0.25237 0.09909 1.21600
N 	N 	0.77210 0.24340 0.91850 -0.28000
N 	N 	0.52159 0.23790 0.66710 -0.25100
C 	C 	0.39320 0.16590 0.58720 0.42900
C 	C 	0.39280 0.12200 0.61740 -0.18100
C 	C 	0.34990 0.10310 0.59390 0.09500
H 	H 	0.32030 0.11690 0.55360 0.01000
C 	C 	0.34870 0.06560 0.62660 -0.16700
H 	H 	0.31890 0.05570 0.61060 0.09200
C 	C 	0.38980 0.04270 0.68120 0.12400
C 	C 	0.43350 0.05730 0.70480 -0.16200
H 	H 	0.46260 0.04120 0.74290 0.08800
C 	C 	0.43380 0.09620 0.67110 0.09400
H 	H 	0.46340 0.10510 0.68580 0.01300
C 	C 	0.38870 0.00180 0.71570 -0.05100
C 	C 	0.36330 0.00790 0.73460 0.12700
C 	C 	0.41780 0.95860 0.73840 -0.11500
H 	H 	0.43620 0.95210 0.72840 0.08000
C 	C 	0.41610 0.92730 0.77650 0.15000
C 	C 	0.39520 0.92910 0.79750 -0.08000
C 	C 	0.36340 0.97220 0.77360 -0.09800
H 	H 	0.34440 0.97600 0.78320 0.06300
C 	C 	0.39450 0.89200 0.83580 0.15200
C 	C 	0.43400 0.87470 0.89190 -0.18500
H 	H 	0.46350 0.88550 0.90740 0.10900
C 	C 	0.43520 0.83840 0.93320 0.09700
H 	H 	0.46440 0.82260 0.97140 0.01000
C 	C 	0.39450 0.82820 0.91590 -0.17800
C 	C 	0.35280 0.84680 0.85620 0.10800
H 	H 	0.32370 0.83900 0.84330 0.00600
C 	C 	0.35070 0.87620 0.81340 -0.18600
H 	H 	0.32070 0.88580 0.76980 0.08800
C 	C 	0.39610 0.79590 0.96350 0.43900
C 	C 	0.31340 0.05370 0.74020 0.02500
H 	H 	0.28570 0.03080 0.71100 0.01500
H 	H 	0.33340 0.04570 0.78900 0.02800
C 	C 	0.29590 0.11280 0.72290 -0.15900
H 	H 	0.32370 0.13510 0.74520 0.08900
H 	H 	0.27170 0.11880 0.67280 0.08100
C 	C 	0.40410 0.33320 0.50650 0.41900
C 	C 	0.40580 0.37800 0.47780 -0.15700
C 	C 	0.44950 0.40090 0.50810 0.07100
H 	H 	0.47890 0.38720 0.54900 0.01900
C 	C 	0.45080 0.44340 0.47950 -0.13500
H 	H 	0.47970 0.46100 0.50180 0.09300
C 	C 	0.40360 0.45840 0.41180 0.09800
C 	C 	0.36180 0.43490 0.38180 -0.15100
H 	H 	0.33230 0.44530 0.33810 0.07900
C 	C 	0.36290 0.39540 0.41570 0.07300
H 	H 	0.33350 0.38010 0.39580 0.01700
C 	C 	0.39900 0.50600 0.37080 -0.07500
C 	C 	0.36860 0.49200 0.29190 -0.09200
H 	H 	0.35210 0.46150 0.27080 0.06200
C 	C 	0.40680 0.54760 0.38300 0.14100
C 	C 	0.41930 0.58210 0.35900 -0.17900
H 	H 	0.44010 0.60940 0.38540 0.16100
C 	C 	0.40040 0.57320 0.30000 0.01700
C 	C 	0.36960 0.52870 0.26010 0.10400
C 	C 	0.40160 0.60700 0.25550 0.06600
C 	C 	0.44610 0.62720 0.28150 -0.12400
H 	H 	0.47580 0.61870 0.32610 0.08100
C 	C 	0.44500 0.65800 0.24250 0.06000
H 	H 	0.47410 0.67170 0.25970 0.02900
C 	C 	0.40010 0.67090 0.17460 -0.13400
C 	C 	0.35890 0.65230 0.15190 0.06700
H 	H 	0.32910 0.66110 0.10750 0.02500
C 	C 	0.35870 0.62110 0.19100 -0.12200
H 	H 	0.32910 0.60910 0.17390 0.08200
C 	C 	0.39920 0.70280 0.12940 0.39500
C 	C 	0.45130 0.61180 0.48290 -0.53800
H 	H 	0.48140 0.60990 0.53220 0.18400
H 	H 	0.42660 0.62530 0.48060 0.18300
C 	C 	0.45810 0.64320 0.46100 0.60900
H 	H 	0.49300 0.64990 0.49290 -0.16700
H 	H 	0.44570 0.63300 0.41630 -0.19300
C 	C 	0.43210 0.68910 0.45250 -0.59200
H 	H 	0.40130 0.68010 0.43760 0.18600
H 	H 	0.42520 0.71150 0.41790 0.19800
C 	C 	0.46380 0.71270 0.51870 0.28100
H 	H 	0.45170 0.70410 0.53960 -0.06300
H 	H 	0.45920 0.74890 0.51020 -0.04900
C 	C 	0.51320 0.70440 0.56870 -0.28800
H 	H 	0.51930 0.68390 0.60410 0.10300
H 	H 	0.51980 0.68270 0.54680 0.12500
C 	C 	0.55080 0.74110 0.60570 -0.10200
H 	H 	0.53530 0.77410 0.58860 0.06600
H 	H 	0.56940 0.73670 0.59380 0.06200
C 	C 	0.58430 0.74180 0.67910 0.13600
H 	H 	0.59590 0.77650 0.69270 -0.00600
H 	H 	0.56470 0.73630 0.68920 -0.00900
C 	C 	0.62640 0.71140 0.72730 -0.52500
H 	H 	0.64240 0.72010 0.77410 0.17200
H 	H 	0.61690 0.67640 0.71870 0.17300
H 	H 	0.64850 0.71700 0.72210 0.17600
C 	C 	0.31540 0.47130 0.16280 0.07500
H 	H 	0.29150 0.47310 0.16560 0.00800
H 	H 	0.33480 0.44070 0.18580 0.00700
C 	C 	0.29140 0.47390 0.08890 -0.17600
H 	H 	0.31680 0.48200 0.09030 0.09100
H 	H 	0.26900 0.50240 0.06720 0.08500
C 	C 	0.26260 0.42850 0.03920 -0.04300
H 	H 	0.28480 0.39980 0.06070 0.03700
H 	H 	0.23690 0.42050 0.03720 0.03800
C 	C 	0.24000 0.43200 0.96800 -0.11700
H 	H 	0.21400 0.45700 0.94380 0.05600
H 	H 	0.26440 0.44450 0.96910 0.04300
C 	C 	0.22050 0.38830 0.92910 -0.03400
H 	H 	0.18490 0.39000 0.89500 0.03800
H 	H 	0.23100 0.35970 0.95960 0.03300
C 	C 	0.23780 0.38020 0.88880 -0.19400
H 	H 	0.25750 0.34970 0.90770 0.07600
H 	H 	0.20840 0.37320 0.84020 0.08100
C 	C 	0.26670 0.42090 0.88870 0.12100
H 	H 	0.30160 0.41700 0.92960 -0.01100
H 	H 	0.26090 0.41720 0.84740 -0.01600
C 	C 	0.25020 0.47200 0.88910 -0.48700
H 	H 	0.26800 0.49760 0.88900 0.16800
H 	H 	0.25630 0.47550 0.93030 0.16400
H 	H 	0.21570 0.47570 0.84820 0.17500
C 	C 	0.25130 0.24720 0.36080 0.15100
H 	H 	0.26910 0.23970 0.34990 -0.02600
C 	C 	0.20050 0.24710 0.30840 -0.19900
H 	H 	0.18440 0.23420 0.26450 0.09100
C 	C 	0.17550 0.26460 0.31950 0.12200
C 	C 	0.20090 0.28310 0.38240 -0.19100
H 	H 	0.18570 0.29490 0.39600 0.10200
C 	C 	0.25000 0.28390 0.42620 0.13300
H 	H 	0.26820 0.30620 0.46390 -0.01900
C 	C 	0.04590 0.28560 0.22530 0.07600
H 	H 	0.02850 0.30120 0.23360 0.00800
C 	C 	0.09660 0.28880 0.27640 -0.10200
H 	H 	0.11310 0.30630 0.31790 0.07200
C 	C 	0.12160 0.26570 0.26400 0.02500
C 	C 	0.09650 0.24150 0.20380 -0.10300
H 	H 	0.11300 0.22560 0.19430 0.05300
C 	C 	0.04790 0.24000 0.15730 0.06000
H 	H 	0.03110 0.22270 0.11560 0.00100
O 	O 	0.43504 0.18200 0.61560 -0.46400
O 	O 	0.35608 0.18760 0.54070 -0.48600
O 	O 	0.43348 0.78290 0.01520 -0.50000
O 	O 	0.35425 0.78450 0.94030 -0.47100
O 	O 	0.34310 0.05240 0.72230 -0.21600
O 	O 	0.44550 0.88370 0.80270 -0.19500
O 	O 	0.44509 0.31489 0.56090 -0.45800
O 	O 	0.36552 0.31450 0.47700 -0.49100
O 	O 	0.43907 0.71766 0.15260 -0.46100
O 	O 	0.35883 0.71260 0.07100 -0.46700
O 	O 	0.43680 0.55900 0.46000 -0.10700
O 	O 	0.34540 0.51480 0.19150 -0.21500
Zn	Zn	0.34720 0.25216 0.49545 1.21900
Zn	Zn	0.45073 0.24763 0.59909 1.21600
N 	N 	0.27210 0.25660 0.41850 -0.28000
N 	N 	0.02159 0.26210 0.16710 -0.25100
C 	C 	0.89320 0.66590 0.58720 0.42900
C 	C 	0.89280 0.62200 0.61740 -0.18100
C 	C 	0.84990 0.60310 0.59390 0.09500
H 	H 	0.82030 0.61690 0.55360 0.01000
C 	C 	0.84870 0.56560 0.62660 -0.16700
H 	H 	0.81890 0.55570 0.61060 0.09200
C 	C 	0.88980 0.54270 0.68120 0.12400
C 	C 	0.93350 0.55730 0.70480 -0.16200
H 	H 	0.96260 0.54120 0.74290 0.08800
C 	C 	0.93380 0.59620 0.67110 0.09400
H 	H 	0.96340 0.60510 0.68580 0.01400
C 	C 	0.88870 0.50180 0.71570 -0.05100
C 	C 	0.86330 0.50790 0.73460 0.12700
C 	C 	0.91780 0.45860 0.73840 -0.11400
H 	H 	0.93620 0.45210 0.72840 0.08000
C 	C 	0.91610 0.42730 0.77650 0.15000
C 	C 	0.89520 0.42910 0.79750 -0.08000
C 	C 	0.86340 0.47220 0.77360 -0.09800
H 	H 	0.84440 0.47600 0.78320 0.06300
C 	C 	0.89450 0.39200 0.83580 0.15200
C 	C 	0.93400 0.37470 0.89190 -0.18500
H 	H 	0.96350 0.38550 0.90740 0.10900
C 	C 	0.93520 0.33840 0.93320 0.09700
H 	H 	0.96440 0.32260 0.97140 0.01000
C 	C 	0.89450 0.32820 0.91590 -0.17800
C 	C 	0.85280 0.34680 0.85620 0.10800
H 	H 	0.82370 0.33900 0.84330 0.00600
C 	C 	0.85070 0.37620 0.81340 -0.18600
H 	H 	0.82070 0.38580 0.76980 0.08800
C 	C 	0.89610 0.29590 0.96350 0.44000
C 	C 	0.81340 0.55370 0.74020 0.02500
H 	H 	0.78570 0.53080 0.71100 0.01500
H 	H 	0.83340 0.54570 0.78900 0.02800
C 	C 	0.79590 0.61280 0.72290 -0.15900
H 	H 	0.82370 0.63510 0.74520 0.08900
H 	H 	0.77170 0.61880 0.67280 0.08100
C 	C 	0.90410 0.83320 0.50650 0.41900
C 	C 	0.90580 0.87800 0.47780 -0.15700
C 	C 	0.94950 0.90090 0.50810 0.07100
H 	H 	0.97890 0.88720 0.54900 0.01900
C 	C 	0.95080 0.94340 0.47950 -0.13500
H 	H 	0.97970 0.96100 0.50180 0.09300
C 	C 	0.90360 0.95840 0.41180 0.09800
C 	C 	0.86180 0.93490 0.38180 -0.15100
H 	H 	0.83230 0.94530 0.33810 0.07900
C 	C 	0.86290 0.89540 0.41570 0.07300
H 	H 	0.83350 0.88010 0.39580 0.01700
C 	C 	0.89900 0.00600 0.37080 -0.07500
C 	C 	0.86860 0.99200 0.29190 -0.09200
H 	H 	0.85210 0.96150 0.27080 0.06200
C 	C 	0.90680 0.04760 0.38300 0.14100
C 	C 	0.91930 0.08210 0.35900 -0.17900
H 	H 	0.94010 0.10940 0.38540 0.16100
C 	C 	0.90040 0.07320 0.30000 0.01700
C 	C 	0.86960 0.02870 0.26010 0.10400
C 	C 	0.90160 0.10700 0.25550 0.06600
C 	C 	0.94610 0.12720 0.28150 -0.12400
H 	H 	0.97580 0.11870 0.32610 0.08100
C 	C 	0.94500 0.15800 0.24250 0.06000
H 	H 	0.97410 0.17170 0.25970 0.02800
C 	C 	0.90010 0.17090 0.17460 -0.13500
C 	C 	0.85890 0.15230 0.15190 0.06700
H 	H 	0.82910 0.16110 0.10750 0.02500
C 	C 	0.85870 0.12110 0.19100 -0.12200
H 	H 	0.82910 0.10910 0.17390 0.08200
C 	C 	0.89920 0.20280 0.12940 0.39500
C 	C 	0.95130 0.11180 0.48290 -0.53800
H 	H 	0.98140 0.10990 0.53220 0.18400
H 	H 	0.92660 0.12530 0.48060 0.18300
C 	C 	0.95810 0.14320 0.46100 0.60900
H 	H 	0.99300 0.14990 0.49290 -0.16700
H 	H 	0.94570 0.13300 0.41630 -0.19300
C 	C 	0.93210 0.18910 0.45250 -0.59200
H 	H 	0.90130 0.18010 0.43760 0.18600
H 	H 	0.92520 0.21150 0.41790 0.19800
C 	C 	0.96380 0.21270 0.51870 0.28100
H 	H 	0.95170 0.20410 0.53960 -0.06300
H 	H 	0.95920 0.24890 0.51020 -0.04900
C 	C 	0.01320 0.20440 0.56870 -0.28800
H 	H 	0.01930 0.18390 0.60410 0.10300
H 	H 	0.01980 0.18270 0.54680 0.12500
C 	C 	0.05080 0.24110 0.60570 -0.10200
H 	H 	0.03530 0.27410 0.58860 0.06600
H 	H 	0.06940 0.23670 0.59380 0.06200
C 	C 	0.08430 0.24180 0.67910 0.13600
H 	H 	0.09590 0.27650 0.69270 -0.00600
H 	H 	0.06470 0.23630 0.68920 -0.01000
C 	C 	0.12640 0.21140 0.72730 -0.52500
H 	H 	0.14240 0.22010 0.77410 0.17200
H 	H 	0.11690 0.17640 0.71870 0.17300
H 	H 	0.14850 0.21700 0.72210 0.17500
C 	C 	0.81540 0.97130 0.16280 0.07500
H 	H 	0.79150 0.97310 0.16560 0.00800
H 	H 	0.83480 0.94070 0.18580 0.00700
C 	C 	0.79140 0.97390 0.08890 -0.17600
H 	H 	0.81680 0.98200 0.09030 0.09000
H 	H 	0.76900 0.00240 0.06720 0.08500
C 	C 	0.76260 0.92850 0.03920 -0.04400
H 	H 	0.78480 0.89980 0.06070 0.03800
H 	H 	0.73690 0.92050 0.03720 0.03800
C 	C 	0.74000 0.93200 0.96800 -0.11500
H 	H 	0.71400 0.95700 0.94380 0.05500
H 	H 	0.76440 0.94450 0.96910 0.04300
C 	C 	0.72050 0.88830 0.92910 -0.03500
H 	H 	0.68490 0.89000 0.89500 0.03800
H 	H 	0.73100 0.85970 0.95960 0.03300
C 	C 	0.73780 0.88020 0.88880 -0.19300
H 	H 	0.75750 0.84970 0.90770 0.07600
H 	H 	0.70840 0.87320 0.84020 0.08100
C 	C 	0.76670 0.92090 0.88870 0.12100
H 	H 	0.80160 0.91700 0.92960 -0.01100
H 	H 	0.76090 0.91720 0.84740 -0.01600
C 	C 	0.75020 0.97200 0.88910 -0.48700
H 	H 	0.76800 0.99760 0.88900 0.16700
H 	H 	0.75630 0.97550 0.93030 0.16400
H 	H 	0.71570 0.97570 0.84820 0.17500
C 	C 	0.75130 0.74720 0.36080 0.15100
H 	H 	0.76910 0.73970 0.34990 -0.02600
C 	C 	0.70050 0.74710 0.30840 -0.19900
H 	H 	0.68440 0.73420 0.26450 0.09100
C 	C 	0.67550 0.76460 0.31950 0.12200
C 	C 	0.70090 0.78310 0.38240 -0.19100
H 	H 	0.68570 0.79490 0.39600 0.10200
C 	C 	0.75000 0.78390 0.42620 0.13300
H 	H 	0.76820 0.80620 0.46390 -0.01900
C 	C 	0.54590 0.78560 0.22530 0.07600
H 	H 	0.52850 0.80120 0.23360 0.00800
C 	C 	0.59660 0.78880 0.27640 -0.10200
H 	H 	0.61310 0.80630 0.31790 0.07200
C 	C 	0.62160 0.76570 0.26400 0.02500
C 	C 	0.59650 0.74150 0.20380 -0.10300
H 	H 	0.61300 0.72560 0.19430 0.05400
C 	C 	0.54790 0.74000 0.15730 0.06000
H 	H 	0.53110 0.72270 0.11560 0.00100
O 	O 	0.93504 0.68200 0.61560 -0.46400
O 	O 	0.85608 0.68760 0.54070 -0.48600
O 	O 	0.93348 0.28290 0.01520 -0.50100
O 	O 	0.85425 0.28450 0.94030 -0.47100
O 	O 	0.84310 0.55240 0.72230 -0.21600
O 	O 	0.94550 0.38370 0.80270 -0.19500
O 	O 	0.94509 0.81489 0.56090 -0.45800
O 	O 	0.86552 0.81450 0.47700 -0.49100
O 	O 	0.93907 0.21766 0.15260 -0.46100
O 	O 	0.85883 0.21260 0.07100 -0.46700
O 	O 	0.93680 0.05900 0.46000 -0.10700
O 	O 	0.84540 0.01480 0.19150 -0.21500
Zn	Zn	0.84720 0.75216 0.49545 1.21900
Zn	Zn	0.95073 0.74763 0.59909 1.21600
N 	N 	0.77210 0.75660 0.41850 -0.28000
N 	N 	0.52159 0.76210 0.16710 -0.25100
