data_crystal

_cell_length_a 39.13320
_cell_length_b 27.45030
_cell_length_c 27.34970
_cell_angle_alpha 90.00000
_cell_angle_beta  134.02200
_cell_angle_gamma 90.00000

_symmetry_space_group_name_	'P 1'
_symmetry_space_group_name_H-M	'P 1'

loop_
_symmetry_equiv_pos_as_xyz
  x,y,z

loop_
_atom_site_label
_atom_site_type_symbol
_atom_site_fract_x
_atom_site_fract_y
_atom_site_fract_z
_atom_site_charge
C 	C 	0.10420 0.82981 0.90560 0.43100
C 	C 	0.10493 0.87344 0.87470 -0.21500
C 	C 	0.06535 0.89770 0.82280 0.19700
H 	H 	0.03680 0.88830 0.80880 -0.00700
C 	C 	0.06460 0.93650 0.78850 -0.26800
H 	H 	0.03630 0.95220 0.75270 0.19600
C 	C 	0.10760 0.95094 0.80980 0.28500
C 	C 	0.14840 0.92750 0.86360 -0.26900
H 	H 	0.17690 0.93730 0.87790 0.14400
C 	C 	0.14918 0.88963 0.89790 0.16600
H 	H 	0.17770 0.87500 0.93520 -0.01100
C 	C 	0.10930 0.99100 0.77460 -0.29200
C 	C 	0.08040 0.03100 0.75250 0.44400
H 	H 	0.05980 0.03340 0.75850 0.03600
C 	C 	0.08370 0.06790 0.72050 -0.30900
C 	C 	0.11030 0.06260 0.70250 0.22400
C 	C 	0.13370 0.01990 0.71840 -0.29700
H 	H 	0.15170 0.01530 0.70820 0.13900
C 	C 	0.13050 0.98190 0.75110 0.31900
C 	C 	0.10710 0.09890 0.65940 -0.11000
C 	C 	0.06500 0.11850 0.60060 0.01100
H 	H 	0.03650 0.10970 0.58700 -0.12100
C 	C 	0.06470 0.15160 0.56110 -0.07400
H 	H 	0.03600 0.16410 0.52150 0.01800
C 	C 	0.10534 0.16540 0.57950 -0.06800
C 	C 	0.14870 0.14900 0.64240 -0.03300
H 	H 	0.17710 0.16150 0.65870 0.05100
C 	C 	0.14980 0.11500 0.68000 -0.02100
H 	H 	0.17870 0.10240 0.71930 0.03200
C 	C 	0.10553 0.19911 0.53650 0.39100
C 	C 	0.18470 0.93290 0.74980 0.12200
H 	H 	0.16450 0.93710 0.70130 -0.02400
H 	H 	0.21120 0.95540 0.77380 -0.00500
C 	C 	0.20180 0.88280 0.76980 -0.22100
H 	H 	0.17600 0.86130 0.75330 0.09700
H 	H 	0.22650 0.88030 0.81900 0.10500
C 	C 	0.22190 0.86770 0.73890 -0.06300
H 	H 	0.19580 0.86440 0.69000 0.02100
H 	H 	0.24270 0.89330 0.74760 0.04200
C 	C 	0.24950 0.81990 0.76830 -0.02900
H 	H 	0.23620 0.80020 0.78120 0.03600
H 	H 	0.28210 0.82720 0.80950 0.03600
C 	C 	0.25000 0.78880 0.72130 -0.30900
H 	H 	0.25790 0.80980 0.70190 0.11100
H 	H 	0.27490 0.76450 0.74880 0.11100
C 	C 	0.21500 0.76960 0.67820 0.14200
H 	H 	0.21810 0.75120 0.65160 -0.03700
H 	H 	0.19030 0.79340 0.64990 -0.04300
H 	H 	0.20720 0.74800 0.69690 -0.02800
C 	C 	0.02010 0.11940 0.70890 -11.75800
H 	H 	0.03220 0.10890 0.75240 3.73200
H 	H 	0.00850 0.15260 0.69890 3.39500
C 	C 	0.99210 0.09110 0.66290 13.17300
H 	H 	0.97300 0.07620 0.66930 -3.93800
H 	H 	0.00920 0.06550 0.66290 -3.82300
C 	C 	0.95760 0.12020 0.59000 -9.34100
H 	H 	0.95020 0.15040 0.59950 2.52500
H 	H 	0.97900 0.12940 0.58500 2.50300
C 	C 	0.91930 0.10980 0.53000 6.42500
H 	H 	0.89350 0.13030 0.51590 -2.05400
H 	H 	0.91080 0.07600 0.52710 -1.84600
C 	C 	0.09906 0.69774 0.87220 0.39900
C 	C 	0.09793 0.66507 0.82790 -0.14200
C 	C 	0.05464 0.65506 0.76200 0.06900
H 	H 	0.02700 0.67030 0.74520 0.02500
C 	C 	0.05280 0.62210 0.72110 -0.14200
H 	H 	0.02370 0.61560 0.67740 0.08900
C 	C 	0.09240 0.59960 0.74390 0.08500
C 	C 	0.13750 0.61220 0.81040 -0.12800
H 	H 	0.16550 0.59920 0.82580 0.08900
C 	C 	0.13860 0.64430 0.85180 0.07000
H 	H 	0.16730 0.65130 0.89570 0.02500
C 	C 	0.09190 0.56340 0.70360 -0.00500
C 	C 	0.08180 0.57210 0.64730 -0.16100
H 	H 	0.07410 0.60400 0.63140 0.09000
C 	C 	0.08160 0.53740 0.60850 0.20600
C 	C 	0.09370 0.49210 0.63190 -0.10100
C 	C 	0.12460 0.48040 0.70800 -0.07100
H 	H 	0.14160 0.45170 0.72930 0.06100
C 	C 	0.12340 0.52060 0.74210 0.11100
C 	C 	0.05290 0.39610 0.49940 0.11300
H 	H 	0.02460 0.38560 0.45730 0.00200
C 	C 	0.05290 0.43650 0.53110 -0.20200
H 	H 	0.02450 0.45290 0.50860 0.11300
C 	C 	0.09210 0.45210 0.59190 0.15700
C 	C 	0.13480 0.42720 0.62420 -0.18700
H 	H 	0.16280 0.43770 0.66660 0.09600
C 	C 	0.13610 0.38710 0.59400 0.10200
H 	H 	0.16450 0.37080 0.61610 0.00300
C 	C 	0.09416 0.37244 0.53040 -0.17700
C 	C 	0.09436 0.32851 0.49780 0.41600
C 	C 	0.95055 0.73380 0.83860 0.08100
H 	H 	0.96670 0.71650 0.87870 -0.01300
C 	C 	0.90215 0.73360 0.79220 -0.12900
H 	H 	0.88620 0.71700 0.80100 0.06200
C 	C 	0.87757 0.75808 0.73250 0.02400
C 	C 	0.90345 0.78210 0.72300 -0.10900
H 	H 	0.88780 0.79950 0.68300 0.07400
C 	C 	0.95220 0.78070 0.77190 0.06700
H 	H 	0.96910 0.79660 0.76420 0.01000
C 	C 	0.74910 0.74240 0.63740 0.14100
H 	H 	0.73310 0.73000 0.64840 -0.02700
C 	C 	0.79880 0.74510 0.68860 -0.21600
H 	H 	0.81380 0.73790 0.73300 0.09500
C 	C 	0.82423 0.75660 0.67820 0.13500
C 	C 	0.79890 0.77620 0.61690 -0.19800
H 	H 	0.81450 0.79020 0.60600 0.10500
C 	C 	0.74990 0.77610 0.56920 0.11900
N 	N 	0.97614 0.75673 0.83120 -0.25000
N 	N 	0.72511 0.75578 0.57700 -0.28100
O 	O 	0.14242 0.80817 0.95135 -0.47000
O 	O 	0.06369 0.81551 0.88030 -0.46200
O 	O 	0.14412 0.20932 0.55569 -0.46500
O 	O 	0.06580 0.21261 0.48213 -0.47400
O 	O 	0.15680 0.94160 0.76860 -0.27900
O 	O 	0.05520 0.11020 0.70080 1.30000
O 	O 	0.06082 0.71564 0.84999 -0.46600
O 	O 	0.13942 0.70647 0.93061 -0.46200
O 	O 	0.05563 0.31213 0.44580 -0.47400
O 	O 	0.13479 0.31047 0.52865 -0.47700
O 	O 	0.07750 0.54780 0.55960 -0.23400
O 	O 	0.13810 0.50540 0.80170 -0.18800
Zn	Zn	0.04852 0.75230 0.90135 1.21400
Zn	Zn	0.15276 0.74752 0.00449 1.21600
C 	C 	0.60420 0.32981 0.90560 0.42900
C 	C 	0.60493 0.37344 0.87470 -0.21300
C 	C 	0.56535 0.39770 0.82280 0.19300
H 	H 	0.53680 0.38830 0.80880 -0.00600
C 	C 	0.56460 0.43650 0.78850 -0.26200
H 	H 	0.53630 0.45220 0.75270 0.19200
C 	C 	0.60760 0.45094 0.80980 0.27900
C 	C 	0.64840 0.42750 0.86360 -0.26400
H 	H 	0.67690 0.43730 0.87790 0.14300
C 	C 	0.64918 0.38963 0.89790 0.16300
H 	H 	0.67770 0.37500 0.93520 -0.01000
C 	C 	0.60930 0.49100 0.77460 -0.27900
C 	C 	0.58040 0.53100 0.75250 0.42000
H 	H 	0.55980 0.53340 0.75850 0.04400
C 	C 	0.58370 0.56790 0.72050 -0.29000
C 	C 	0.61030 0.56260 0.70250 0.21300
C 	C 	0.63370 0.51990 0.71840 -0.28900
H 	H 	0.65170 0.51530 0.70820 0.13600
C 	C 	0.63050 0.48190 0.75110 0.31200
C 	C 	0.60710 0.59890 0.65940 -0.10100
C 	C 	0.56500 0.61850 0.60060 0.00400
H 	H 	0.53650 0.60970 0.58700 -0.11300
C 	C 	0.56470 0.65160 0.56110 -0.06700
H 	H 	0.53600 0.66410 0.52150 0.01700
C 	C 	0.60534 0.66540 0.57950 -0.07300
C 	C 	0.64870 0.64900 0.64240 -0.02800
H 	H 	0.67710 0.66150 0.65870 0.04900
C 	C 	0.64980 0.61500 0.68000 -0.02700
H 	H 	0.67870 0.60240 0.71930 0.03400
C 	C 	0.60553 0.69911 0.53650 0.39300
C 	C 	0.68470 0.43290 0.74980 0.11900
H 	H 	0.66450 0.43710 0.70130 -0.02300
H 	H 	0.71120 0.45540 0.77380 -0.00300
C 	C 	0.70180 0.38280 0.76980 -0.21800
H 	H 	0.67600 0.36130 0.75330 0.09700
H 	H 	0.72650 0.38030 0.81900 0.10400
C 	C 	0.72190 0.36770 0.73890 -0.06500
H 	H 	0.69580 0.36440 0.69000 0.02300
H 	H 	0.74270 0.39330 0.74760 0.04300
C 	C 	0.74950 0.31990 0.76830 -0.02700
H 	H 	0.73620 0.30020 0.78120 0.03600
H 	H 	0.78210 0.32720 0.80950 0.03600
C 	C 	0.75000 0.28880 0.72130 -0.30900
H 	H 	0.75790 0.30980 0.70190 0.11100
H 	H 	0.77490 0.26450 0.74880 0.11100
C 	C 	0.71500 0.26960 0.67820 0.14100
H 	H 	0.71810 0.25120 0.65160 -0.03700
H 	H 	0.69030 0.29340 0.64990 -0.04200
H 	H 	0.70720 0.24800 0.69690 -0.02800
C 	C 	0.52010 0.61940 0.70890 -11.30300
H 	H 	0.53220 0.60890 0.75240 3.59000
H 	H 	0.50850 0.65260 0.69890 3.25900
C 	C 	0.49210 0.59110 0.66290 12.65300
H 	H 	0.47300 0.57620 0.66930 -3.78900
H 	H 	0.50920 0.56550 0.66290 -3.67000
C 	C 	0.45760 0.62020 0.59000 -8.97600
H 	H 	0.45020 0.65040 0.59950 2.42500
H 	H 	0.47900 0.62940 0.58500 2.40600
C 	C 	0.41930 0.60980 0.53000 6.16700
H 	H 	0.39350 0.63030 0.51590 -1.97200
H 	H 	0.41080 0.57600 0.52710 -1.77100
C 	C 	0.59906 0.19774 0.87220 0.39900
C 	C 	0.59793 0.16507 0.82790 -0.14200
C 	C 	0.55464 0.15506 0.76200 0.06800
H 	H 	0.52700 0.17030 0.74520 0.02500
C 	C 	0.55280 0.12210 0.72110 -0.14200
H 	H 	0.52370 0.11560 0.67740 0.08900
C 	C 	0.59240 0.09960 0.74390 0.08400
C 	C 	0.63750 0.11220 0.81040 -0.12700
H 	H 	0.66550 0.09920 0.82580 0.08900
C 	C 	0.63860 0.14430 0.85180 0.06900
H 	H 	0.66730 0.15130 0.89570 0.02500
C 	C 	0.59190 0.06340 0.70360 -0.00500
C 	C 	0.58180 0.07210 0.64730 -0.16100
H 	H 	0.57410 0.10400 0.63140 0.09000
C 	C 	0.58160 0.03740 0.60850 0.20600
C 	C 	0.59370 0.99210 0.63190 -0.10200
C 	C 	0.62460 0.98040 0.70800 -0.07200
H 	H 	0.64160 0.95170 0.72930 0.06100
C 	C 	0.62340 0.02060 0.74210 0.11100
C 	C 	0.55290 0.89610 0.49940 0.11300
H 	H 	0.52460 0.88560 0.45730 0.00100
C 	C 	0.55290 0.93650 0.53110 -0.20300
H 	H 	0.52450 0.95290 0.50860 0.11200
C 	C 	0.59210 0.95210 0.59190 0.15700
C 	C 	0.63480 0.92720 0.62420 -0.18700
H 	H 	0.66280 0.93770 0.66660 0.09600
C 	C 	0.63610 0.88710 0.59400 0.10200
H 	H 	0.66450 0.87080 0.61610 0.00300
C 	C 	0.59416 0.87244 0.53040 -0.17700
C 	C 	0.59436 0.82851 0.49780 0.41600
C 	C 	0.45055 0.23380 0.83860 0.08100
H 	H 	0.46670 0.21650 0.87870 -0.01500
C 	C 	0.40215 0.23360 0.79220 -0.13000
H 	H 	0.38620 0.21700 0.80100 0.06200
C 	C 	0.37757 0.25808 0.73250 0.02400
C 	C 	0.40345 0.28210 0.72300 -0.10900
H 	H 	0.38780 0.29950 0.68300 0.07400
C 	C 	0.45220 0.28070 0.77190 0.06700
H 	H 	0.46910 0.29660 0.76420 0.00900
C 	C 	0.24910 0.24240 0.63740 0.14100
H 	H 	0.23310 0.23000 0.64840 -0.02700
C 	C 	0.29880 0.24510 0.68860 -0.21600
H 	H 	0.31380 0.23790 0.73300 0.09400
C 	C 	0.32423 0.25660 0.67820 0.13500
C 	C 	0.29890 0.27620 0.61690 -0.19800
H 	H 	0.31450 0.29020 0.60600 0.10500
C 	C 	0.24990 0.27610 0.56920 0.11900
N 	N 	0.47614 0.25673 0.83120 -0.25100
N 	N 	0.22511 0.25578 0.57700 -0.28100
O 	O 	0.64242 0.30817 0.95135 -0.46900
O 	O 	0.56369 0.31551 0.88030 -0.46100
O 	O 	0.64412 0.70932 0.55569 -0.46600
O 	O 	0.56580 0.71261 0.48213 -0.47500
O 	O 	0.65680 0.44160 0.76860 -0.27700
O 	O 	0.55520 0.61020 0.70080 1.24100
O 	O 	0.56082 0.21564 0.84999 -0.46600
O 	O 	0.63942 0.20647 0.93061 -0.46100
O 	O 	0.55563 0.81213 0.44580 -0.47400
O 	O 	0.63479 0.81047 0.52865 -0.47700
O 	O 	0.57750 0.04780 0.55960 -0.23400
O 	O 	0.63810 0.00540 0.80170 -0.18900
Zn	Zn	0.54852 0.25230 0.90135 1.21400
Zn	Zn	0.65276 0.24752 0.00449 1.21500
C 	C 	0.10420 0.17019 0.40560 0.42800
C 	C 	0.10493 0.12656 0.37470 -0.20900
C 	C 	0.06535 0.10230 0.32280 0.18900
H 	H 	0.03680 0.11170 0.30880 -0.00300
C 	C 	0.06460 0.06350 0.28850 -0.25500
H 	H 	0.03630 0.04780 0.25270 0.18900
C 	C 	0.10760 0.04906 0.30980 0.27200
C 	C 	0.14840 0.07250 0.36360 -0.25800
H 	H 	0.17690 0.06270 0.37790 0.14100
C 	C 	0.14918 0.11037 0.39790 0.15900
H 	H 	0.17770 0.12500 0.43520 -0.00800
C 	C 	0.10930 0.00900 0.27460 -0.26600
C 	C 	0.08040 0.96900 0.25250 0.39400
H 	H 	0.05980 0.96660 0.25850 0.05100
C 	C 	0.08370 0.93210 0.22050 -0.27000
C 	C 	0.11030 0.93740 0.20250 0.20100
C 	C 	0.13370 0.98010 0.21840 -0.28100
H 	H 	0.15170 0.98470 0.20820 0.13300
C 	C 	0.13050 0.01810 0.25110 0.30400
C 	C 	0.10710 0.90110 0.15940 -0.09100
C 	C 	0.06500 0.88150 0.10060 -0.00400
H 	H 	0.03650 0.89030 0.08700 -0.10300
C 	C 	0.06470 0.84840 0.06110 -0.05900
H 	H 	0.03600 0.83590 0.02150 0.01800
C 	C 	0.10534 0.83460 0.07950 -0.07800
C 	C 	0.14870 0.85100 0.14240 -0.02200
H 	H 	0.17710 0.83850 0.15870 0.04700
C 	C 	0.14980 0.88500 0.18000 -0.03400
H 	H 	0.17870 0.89760 0.21930 0.03700
C 	C 	0.10553 0.80089 0.03650 0.39700
C 	C 	0.18470 0.06710 0.24980 0.11600
H 	H 	0.16450 0.06290 0.20130 -0.02100
H 	H 	0.21120 0.04460 0.27380 -0.00300
C 	C 	0.20180 0.11720 0.26980 -0.21500
H 	H 	0.17600 0.13870 0.25330 0.09600
H 	H 	0.22650 0.11970 0.31900 0.10300
C 	C 	0.22190 0.13230 0.23890 -0.06700
H 	H 	0.19580 0.13560 0.19000 0.02400
H 	H 	0.24270 0.10670 0.24760 0.04400
C 	C 	0.24950 0.18010 0.26830 -0.02500
H 	H 	0.23620 0.19980 0.28120 0.03500
H 	H 	0.28210 0.17280 0.30950 0.03500
C 	C 	0.25000 0.21120 0.22130 -0.31100
H 	H 	0.25790 0.19020 0.20190 0.11100
H 	H 	0.27490 0.23550 0.24880 0.11200
C 	C 	0.21500 0.23040 0.17820 0.14300
H 	H 	0.21810 0.24880 0.15160 -0.03700
H 	H 	0.19030 0.20660 0.14990 -0.04200
H 	H 	0.20720 0.25200 0.19690 -0.02800
C 	C 	0.02010 0.88060 0.20890 -10.79800
H 	H 	0.03220 0.89110 0.25240 3.43300
H 	H 	0.00850 0.84740 0.19890 3.11100
C 	C 	0.99210 0.90890 0.16290 12.07900
H 	H 	0.97300 0.92380 0.16930 -3.62300
H 	H 	0.00920 0.93450 0.16290 -3.49900
C 	C 	0.95760 0.87980 0.09000 -8.57500
H 	H 	0.95020 0.84960 0.09950 2.31600
H 	H 	0.97900 0.87060 0.08500 2.30100
C 	C 	0.91930 0.89020 0.03000 5.88300
H 	H 	0.89350 0.86970 0.01590 -1.88100
H 	H 	0.91080 0.92400 0.02710 -1.68900
C 	C 	0.09906 0.30226 0.37220 0.39900
C 	C 	0.09793 0.33493 0.32790 -0.14100
C 	C 	0.05464 0.34494 0.26200 0.06900
H 	H 	0.02700 0.32970 0.24520 0.02600
C 	C 	0.05280 0.37790 0.22110 -0.14200
H 	H 	0.02370 0.38440 0.17740 0.09000
C 	C 	0.09240 0.40040 0.24390 0.08500
C 	C 	0.13750 0.38780 0.31040 -0.12800
H 	H 	0.16550 0.40080 0.32580 0.08900
C 	C 	0.13860 0.35570 0.35180 0.07000
H 	H 	0.16730 0.34870 0.39570 0.02500
C 	C 	0.09190 0.43660 0.20360 -0.00500
C 	C 	0.08180 0.42790 0.14730 -0.16000
H 	H 	0.07410 0.39600 0.13140 0.09000
C 	C 	0.08160 0.46260 0.10850 0.20500
C 	C 	0.09370 0.50790 0.13190 -0.09900
C 	C 	0.12460 0.51960 0.20800 -0.07200
H 	H 	0.14160 0.54830 0.22930 0.06200
C 	C 	0.12340 0.47940 0.24210 0.11200
C 	C 	0.05290 0.60390 0.99940 0.10200
H 	H 	0.02460 0.61440 0.95730 0.00500
C 	C 	0.05290 0.56350 0.03110 -0.19300
H 	H 	0.02450 0.54710 0.00860 0.11000
C 	C 	0.09210 0.54790 0.09190 0.15200
C 	C 	0.13480 0.57280 0.12420 -0.18100
H 	H 	0.16280 0.56230 0.16660 0.09400
C 	C 	0.13610 0.61290 0.09400 0.09500
H 	H 	0.16450 0.62920 0.11610 0.00500
C 	C 	0.09416 0.62756 0.03040 -0.16700
C 	C 	0.09436 0.67149 0.99780 0.41100
C 	C 	0.95055 0.26620 0.33860 0.08000
H 	H 	0.96670 0.28350 0.37870 -0.01500
C 	C 	0.90215 0.26640 0.29220 -0.13000
H 	H 	0.88620 0.28300 0.30100 0.06200
C 	C 	0.87757 0.24192 0.23250 0.02400
C 	C 	0.90345 0.21790 0.22300 -0.10900
H 	H 	0.88780 0.20050 0.18300 0.07400
C 	C 	0.95220 0.21930 0.27190 0.06700
H 	H 	0.96910 0.20340 0.26420 0.01000
C 	C 	0.74910 0.25760 0.13740 0.14000
H 	H 	0.73310 0.27000 0.14840 -0.02700
C 	C 	0.79880 0.25490 0.18860 -0.21600
H 	H 	0.81380 0.26210 0.23300 0.09400
C 	C 	0.82423 0.24340 0.17820 0.13400
C 	C 	0.79890 0.22380 0.11690 -0.19800
H 	H 	0.81450 0.20980 0.10600 0.10500
C 	C 	0.74990 0.22390 0.06920 0.11900
N 	N 	0.97614 0.24327 0.33120 -0.25100
N 	N 	0.72511 0.24422 0.07700 -0.28100
O 	O 	0.14242 0.19183 0.45135 -0.46800
O 	O 	0.06369 0.18449 0.38030 -0.46000
O 	O 	0.14412 0.79068 0.05569 -0.46700
O 	O 	0.06580 0.78739 0.98213 -0.47600
O 	O 	0.15680 0.05840 0.26860 -0.27400
O 	O 	0.05520 0.88980 0.20080 1.17700
O 	O 	0.06082 0.28436 0.34999 -0.46500
O 	O 	0.13942 0.29353 0.43061 -0.46100
O 	O 	0.05563 0.68787 0.94580 -0.47300
O 	O 	0.13479 0.68953 0.02865 -0.47500
O 	O 	0.07750 0.45220 0.05960 -0.23200
O 	O 	0.13810 0.49460 0.30170 -0.18800
Zn	Zn	0.04852 0.24770 0.40135 1.21400
Zn	Zn	0.15276 0.25248 0.50449 1.21600
C 	C 	0.60420 0.67019 0.40560 0.42900
C 	C 	0.60493 0.62656 0.37470 -0.21300
C 	C 	0.56535 0.60230 0.32280 0.19300
H 	H 	0.53680 0.61170 0.30880 -0.00600
C 	C 	0.56460 0.56350 0.28850 -0.26200
H 	H 	0.53630 0.54780 0.25270 0.19200
C 	C 	0.60760 0.54906 0.30980 0.27900
C 	C 	0.64840 0.57250 0.36360 -0.26400
H 	H 	0.67690 0.56270 0.37790 0.14300
C 	C 	0.64918 0.61037 0.39790 0.16300
H 	H 	0.67770 0.62500 0.43520 -0.01000
C 	C 	0.60930 0.50900 0.27460 -0.27900
C 	C 	0.58040 0.46900 0.25250 0.42000
H 	H 	0.55980 0.46660 0.25850 0.04400
C 	C 	0.58370 0.43210 0.22050 -0.29000
C 	C 	0.61030 0.43740 0.20250 0.21300
C 	C 	0.63370 0.48010 0.21840 -0.28900
H 	H 	0.65170 0.48470 0.20820 0.13600
C 	C 	0.63050 0.51810 0.25110 0.31200
C 	C 	0.60710 0.40110 0.15940 -0.10100
C 	C 	0.56500 0.38150 0.10060 0.00400
H 	H 	0.53650 0.39030 0.08700 -0.11300
C 	C 	0.56470 0.34840 0.06110 -0.06700
H 	H 	0.53600 0.33590 0.02150 0.01700
C 	C 	0.60534 0.33460 0.07950 -0.07300
C 	C 	0.64870 0.35100 0.14240 -0.02800
H 	H 	0.67710 0.33850 0.15870 0.04900
C 	C 	0.64980 0.38500 0.18000 -0.02700
H 	H 	0.67870 0.39760 0.21930 0.03400
C 	C 	0.60553 0.30089 0.03650 0.39300
C 	C 	0.68470 0.56710 0.24980 0.11900
H 	H 	0.66450 0.56290 0.20130 -0.02300
H 	H 	0.71120 0.54460 0.27380 -0.00400
C 	C 	0.70180 0.61720 0.26980 -0.21800
H 	H 	0.67600 0.63870 0.25330 0.09700
H 	H 	0.72650 0.61970 0.31900 0.10400
C 	C 	0.72190 0.63230 0.23890 -0.06500
H 	H 	0.69580 0.63560 0.19000 0.02200
H 	H 	0.74270 0.60670 0.24760 0.04300
C 	C 	0.74950 0.68010 0.26830 -0.02700
H 	H 	0.73620 0.69980 0.28120 0.03600
H 	H 	0.78210 0.67280 0.30950 0.03600
C 	C 	0.75000 0.71120 0.22130 -0.30900
H 	H 	0.75790 0.69020 0.20190 0.11100
H 	H 	0.77490 0.73550 0.24880 0.11100
C 	C 	0.71500 0.73040 0.17820 0.14200
H 	H 	0.71810 0.74880 0.15160 -0.03800
H 	H 	0.69030 0.70660 0.14990 -0.04300
H 	H 	0.70720 0.75200 0.19690 -0.02800
C 	C 	0.52010 0.38060 0.20890 -11.30100
H 	H 	0.53220 0.39110 0.25240 3.59000
H 	H 	0.50850 0.34740 0.19890 3.25900
C 	C 	0.49210 0.40890 0.16290 12.65100
H 	H 	0.47300 0.42380 0.16930 -3.78900
H 	H 	0.50920 0.43450 0.16290 -3.66900
C 	C 	0.45760 0.37980 0.09000 -8.97500
H 	H 	0.45020 0.34960 0.09950 2.42500
H 	H 	0.47900 0.37060 0.08500 2.40600
C 	C 	0.41930 0.39020 0.03000 6.16600
H 	H 	0.39350 0.36970 0.01590 -1.97200
H 	H 	0.41080 0.42400 0.02710 -1.77100
C 	C 	0.59906 0.80226 0.37220 0.39900
C 	C 	0.59793 0.83493 0.32790 -0.14200
C 	C 	0.55464 0.84494 0.26200 0.06800
H 	H 	0.52700 0.82970 0.24520 0.02500
C 	C 	0.55280 0.87790 0.22110 -0.14200
H 	H 	0.52370 0.88440 0.17740 0.08900
C 	C 	0.59240 0.90040 0.24390 0.08400
C 	C 	0.63750 0.88780 0.31040 -0.12800
H 	H 	0.66550 0.90080 0.32580 0.08900
C 	C 	0.63860 0.85570 0.35180 0.07000
H 	H 	0.66730 0.84870 0.39570 0.02500
C 	C 	0.59190 0.93660 0.20360 -0.00500
C 	C 	0.58180 0.92790 0.14730 -0.16200
H 	H 	0.57410 0.89600 0.13140 0.09000
C 	C 	0.58160 0.96260 0.10850 0.20700
C 	C 	0.59370 0.00790 0.13190 -0.10300
C 	C 	0.62460 0.01960 0.20800 -0.07200
H 	H 	0.64160 0.04830 0.22930 0.06100
C 	C 	0.62340 0.97940 0.24210 0.11100
C 	C 	0.55290 0.10390 0.99940 0.11500
H 	H 	0.52460 0.11440 0.95730 -0.00000
C 	C 	0.55290 0.06350 0.03110 -0.20500
H 	H 	0.52450 0.04710 0.00860 0.11300
C 	C 	0.59210 0.04790 0.09190 0.15800
C 	C 	0.63480 0.07280 0.12420 -0.18800
H 	H 	0.66280 0.06230 0.16660 0.09700
C 	C 	0.63610 0.11290 0.09400 0.10300
H 	H 	0.66450 0.12920 0.11610 0.00200
C 	C 	0.59416 0.12756 0.03040 -0.17900
C 	C 	0.59436 0.17149 0.99780 0.41800
C 	C 	0.45055 0.76620 0.33860 0.08100
H 	H 	0.46670 0.78350 0.37870 -0.01500
C 	C 	0.40215 0.76640 0.29220 -0.13000
H 	H 	0.38620 0.78300 0.30100 0.06200
C 	C 	0.37757 0.74192 0.23250 0.02400
C 	C 	0.40345 0.71790 0.22300 -0.10900
H 	H 	0.38780 0.70050 0.18300 0.07400
C 	C 	0.45220 0.71930 0.27190 0.06700
H 	H 	0.46910 0.70340 0.26420 0.00900
C 	C 	0.24910 0.75760 0.13740 0.14000
H 	H 	0.23310 0.77000 0.14840 -0.02700
C 	C 	0.29880 0.75490 0.18860 -0.21600
H 	H 	0.31380 0.76210 0.23300 0.09400
C 	C 	0.32423 0.74340 0.17820 0.13500
C 	C 	0.29890 0.72380 0.11690 -0.19800
H 	H 	0.31450 0.70980 0.10600 0.10500
C 	C 	0.24990 0.72390 0.06920 0.11900
N 	N 	0.47614 0.74327 0.33120 -0.25100
N 	N 	0.22511 0.74422 0.07700 -0.28100
O 	O 	0.64242 0.69183 0.45135 -0.46900
O 	O 	0.56369 0.68449 0.38030 -0.46100
O 	O 	0.64412 0.29068 0.05569 -0.46600
O 	O 	0.56580 0.28739 0.98213 -0.47400
O 	O 	0.65680 0.55840 0.26860 -0.27700
O 	O 	0.55520 0.38980 0.20080 1.24100
O 	O 	0.56082 0.78436 0.34999 -0.46600
O 	O 	0.63942 0.79353 0.43061 -0.46100
O 	O 	0.55563 0.18787 0.94580 -0.47400
O 	O 	0.63479 0.18953 0.02865 -0.47800
O 	O 	0.57750 0.95220 0.05960 -0.23400
O 	O 	0.63810 0.99460 0.30170 -0.18900
Zn	Zn	0.54852 0.74770 0.40135 1.21400
Zn	Zn	0.65276 0.75248 0.50449 1.21600
C 	C 	0.89580 0.82981 0.59440 0.42800
C 	C 	0.89507 0.87344 0.62530 -0.20900
C 	C 	0.93465 0.89770 0.67720 0.18900
H 	H 	0.96320 0.88830 0.69120 -0.00300
C 	C 	0.93540 0.93650 0.71150 -0.25500
H 	H 	0.96370 0.95220 0.74730 0.18900
C 	C 	0.89240 0.95094 0.69020 0.27200
C 	C 	0.85160 0.92750 0.63640 -0.25800
H 	H 	0.82310 0.93730 0.62210 0.14100
C 	C 	0.85082 0.88963 0.60210 0.15900
H 	H 	0.82230 0.87500 0.56480 -0.00800
C 	C 	0.89070 0.99100 0.72540 -0.26600
C 	C 	0.91960 0.03100 0.74750 0.39400
H 	H 	0.94020 0.03340 0.74150 0.05100
C 	C 	0.91630 0.06790 0.77950 -0.27000
C 	C 	0.88970 0.06260 0.79750 0.20100
C 	C 	0.86630 0.01990 0.78160 -0.28100
H 	H 	0.84830 0.01530 0.79180 0.13300
C 	C 	0.86950 0.98190 0.74890 0.30400
C 	C 	0.89290 0.09890 0.84060 -0.09100
C 	C 	0.93500 0.11850 0.89940 -0.00400
H 	H 	0.96350 0.10970 0.91300 -0.10300
C 	C 	0.93530 0.15160 0.93890 -0.05900
H 	H 	0.96400 0.16410 0.97850 0.01800
C 	C 	0.89466 0.16540 0.92050 -0.07800
C 	C 	0.85130 0.14900 0.85760 -0.02200
H 	H 	0.82290 0.16150 0.84130 0.04700
C 	C 	0.85020 0.11500 0.82000 -0.03400
H 	H 	0.82130 0.10240 0.78070 0.03700
C 	C 	0.89447 0.19911 0.96350 0.39700
C 	C 	0.81530 0.93290 0.75020 0.11600
H 	H 	0.83550 0.93710 0.79870 -0.02100
H 	H 	0.78880 0.95540 0.72620 -0.00300
C 	C 	0.79820 0.88280 0.73020 -0.21500
H 	H 	0.82400 0.86130 0.74670 0.09600
H 	H 	0.77350 0.88030 0.68100 0.10300
C 	C 	0.77810 0.86770 0.76110 -0.06700
H 	H 	0.80420 0.86440 0.81000 0.02400
H 	H 	0.75730 0.89330 0.75240 0.04400
C 	C 	0.75050 0.81990 0.73170 -0.02500
H 	H 	0.76380 0.80020 0.71880 0.03500
H 	H 	0.71790 0.82720 0.69050 0.03500
C 	C 	0.75000 0.78880 0.77870 -0.31100
H 	H 	0.74210 0.80980 0.79810 0.11100
H 	H 	0.72510 0.76450 0.75120 0.11200
C 	C 	0.78500 0.76960 0.82180 0.14300
H 	H 	0.78190 0.75120 0.84840 -0.03700
H 	H 	0.80970 0.79340 0.85010 -0.04200
H 	H 	0.79280 0.74800 0.80310 -0.02800
C 	C 	0.97990 0.11940 0.79110 -10.79800
H 	H 	0.96780 0.10890 0.74760 3.43300
H 	H 	0.99150 0.15260 0.80110 3.11100
C 	C 	0.00790 0.09110 0.83710 12.07900
H 	H 	0.02700 0.07620 0.83070 -3.62300
H 	H 	0.99080 0.06550 0.83710 -3.49900
C 	C 	0.04240 0.12020 0.91000 -8.57500
H 	H 	0.04980 0.15040 0.90050 2.31600
H 	H 	0.02100 0.12940 0.91500 2.30100
C 	C 	0.08070 0.10980 0.97000 5.88300
H 	H 	0.10650 0.13030 0.98410 -1.88100
H 	H 	0.08920 0.07600 0.97290 -1.68900
C 	C 	0.90094 0.69774 0.62780 0.39900
C 	C 	0.90207 0.66507 0.67210 -0.14100
C 	C 	0.94536 0.65506 0.73800 0.06900
H 	H 	0.97300 0.67030 0.75480 0.02600
C 	C 	0.94720 0.62210 0.77890 -0.14200
H 	H 	0.97630 0.61560 0.82260 0.09000
C 	C 	0.90760 0.59960 0.75610 0.08500
C 	C 	0.86250 0.61220 0.68960 -0.12800
H 	H 	0.83450 0.59920 0.67420 0.08900
C 	C 	0.86140 0.64430 0.64820 0.07000
H 	H 	0.83270 0.65130 0.60430 0.02500
C 	C 	0.90810 0.56340 0.79640 -0.00500
C 	C 	0.91820 0.57210 0.85270 -0.16000
H 	H 	0.92590 0.60400 0.86860 0.09000
C 	C 	0.91840 0.53740 0.89150 0.20500
C 	C 	0.90630 0.49210 0.86810 -0.09900
C 	C 	0.87540 0.48040 0.79200 -0.07200
H 	H 	0.85840 0.45170 0.77070 0.06200
C 	C 	0.87660 0.52060 0.75790 0.11200
C 	C 	0.94710 0.39610 0.00060 0.10200
H 	H 	0.97540 0.38560 0.04270 0.00500
C 	C 	0.94710 0.43650 0.96890 -0.19300
H 	H 	0.97550 0.45290 0.99140 0.11000
C 	C 	0.90790 0.45210 0.90810 0.15200
C 	C 	0.86520 0.42720 0.87580 -0.18100
H 	H 	0.83720 0.43770 0.83340 0.09400
C 	C 	0.86390 0.38710 0.90600 0.09500
H 	H 	0.83550 0.37080 0.88390 0.00500
C 	C 	0.90584 0.37244 0.96960 -0.16700
C 	C 	0.90564 0.32851 0.00220 0.41100
C 	C 	0.04945 0.73380 0.66140 0.08000
H 	H 	0.03330 0.71650 0.62130 -0.01500
C 	C 	0.09785 0.73360 0.70780 -0.13000
H 	H 	0.11380 0.71700 0.69900 0.06200
C 	C 	0.12243 0.75808 0.76750 0.02400
C 	C 	0.09655 0.78210 0.77700 -0.10900
H 	H 	0.11220 0.79950 0.81700 0.07400
C 	C 	0.04780 0.78070 0.72810 0.06700
H 	H 	0.03090 0.79660 0.73580 0.01000
C 	C 	0.25090 0.74240 0.86260 0.14000
H 	H 	0.26690 0.73000 0.85160 -0.02700
C 	C 	0.20120 0.74510 0.81140 -0.21600
H 	H 	0.18620 0.73790 0.76700 0.09400
C 	C 	0.17577 0.75660 0.82180 0.13400
C 	C 	0.20110 0.77620 0.88310 -0.19800
H 	H 	0.18550 0.79020 0.89400 0.10500
C 	C 	0.25010 0.77610 0.93080 0.11900
N 	N 	0.02386 0.75673 0.66880 -0.25100
N 	N 	0.27489 0.75578 0.92300 -0.28100
O 	O 	0.85758 0.80817 0.54865 -0.46800
O 	O 	0.93631 0.81551 0.61970 -0.46000
O 	O 	0.85588 0.20932 0.94431 -0.46700
O 	O 	0.93420 0.21261 0.01787 -0.47600
O 	O 	0.84320 0.94160 0.73140 -0.27400
O 	O 	0.94480 0.11020 0.79920 1.17700
O 	O 	0.93918 0.71564 0.65001 -0.46500
O 	O 	0.86058 0.70647 0.56939 -0.46100
O 	O 	0.94437 0.31213 0.05420 -0.47300
O 	O 	0.86521 0.31047 0.97135 -0.47500
O 	O 	0.92250 0.54780 0.94040 -0.23200
O 	O 	0.86190 0.50540 0.69830 -0.18800
Zn	Zn	0.95148 0.75230 0.59865 1.21400
Zn	Zn	0.84724 0.74752 0.49551 1.21600
C 	C 	0.39580 0.32981 0.59440 0.42900
C 	C 	0.39507 0.37344 0.62530 -0.21300
C 	C 	0.43465 0.39770 0.67720 0.19300
H 	H 	0.46320 0.38830 0.69120 -0.00600
C 	C 	0.43540 0.43650 0.71150 -0.26200
H 	H 	0.46370 0.45220 0.74730 0.19200
C 	C 	0.39240 0.45094 0.69020 0.27900
C 	C 	0.35160 0.42750 0.63640 -0.26400
H 	H 	0.32310 0.43730 0.62210 0.14300
C 	C 	0.35082 0.38963 0.60210 0.16300
H 	H 	0.32230 0.37500 0.56480 -0.01000
C 	C 	0.39070 0.49100 0.72540 -0.27900
C 	C 	0.41960 0.53100 0.74750 0.42000
H 	H 	0.44020 0.53340 0.74150 0.04400
C 	C 	0.41630 0.56790 0.77950 -0.29000
C 	C 	0.38970 0.56260 0.79750 0.21300
C 	C 	0.36630 0.51990 0.78160 -0.28900
H 	H 	0.34830 0.51530 0.79180 0.13600
C 	C 	0.36950 0.48190 0.74890 0.31200
C 	C 	0.39290 0.59890 0.84060 -0.10100
C 	C 	0.43500 0.61850 0.89940 0.00400
H 	H 	0.46350 0.60970 0.91300 -0.11300
C 	C 	0.43530 0.65160 0.93890 -0.06700
H 	H 	0.46400 0.66410 0.97850 0.01700
C 	C 	0.39466 0.66540 0.92050 -0.07300
C 	C 	0.35130 0.64900 0.85760 -0.02800
H 	H 	0.32290 0.66150 0.84130 0.04900
C 	C 	0.35020 0.61500 0.82000 -0.02700
H 	H 	0.32130 0.60240 0.78070 0.03400
C 	C 	0.39447 0.69911 0.96350 0.39300
C 	C 	0.31530 0.43290 0.75020 0.11900
H 	H 	0.33550 0.43710 0.79870 -0.02300
H 	H 	0.28880 0.45540 0.72620 -0.00400
C 	C 	0.29820 0.38280 0.73020 -0.21800
H 	H 	0.32400 0.36130 0.74670 0.09700
H 	H 	0.27350 0.38030 0.68100 0.10400
C 	C 	0.27810 0.36770 0.76110 -0.06500
H 	H 	0.30420 0.36440 0.81000 0.02200
H 	H 	0.25730 0.39330 0.75240 0.04300
C 	C 	0.25050 0.31990 0.73170 -0.02700
H 	H 	0.26380 0.30020 0.71880 0.03600
H 	H 	0.21790 0.32720 0.69050 0.03600
C 	C 	0.25000 0.28880 0.77870 -0.30900
H 	H 	0.24210 0.30980 0.79810 0.11100
H 	H 	0.22510 0.26450 0.75120 0.11100
C 	C 	0.28500 0.26960 0.82180 0.14200
H 	H 	0.28190 0.25120 0.84840 -0.03800
H 	H 	0.30970 0.29340 0.85010 -0.04300
H 	H 	0.29280 0.24800 0.80310 -0.02800
C 	C 	0.47990 0.61940 0.79110 -11.30100
H 	H 	0.46780 0.60890 0.74760 3.59000
H 	H 	0.49150 0.65260 0.80110 3.25900
C 	C 	0.50790 0.59110 0.83710 12.65100
H 	H 	0.52700 0.57620 0.83070 -3.78900
H 	H 	0.49080 0.56550 0.83710 -3.66900
C 	C 	0.54240 0.62020 0.91000 -8.97500
H 	H 	0.54980 0.65040 0.90050 2.42500
H 	H 	0.52100 0.62940 0.91500 2.40600
C 	C 	0.58070 0.60980 0.97000 6.16600
H 	H 	0.60650 0.63030 0.98410 -1.97200
H 	H 	0.58920 0.57600 0.97290 -1.77100
C 	C 	0.40094 0.19774 0.62780 0.39900
C 	C 	0.40207 0.16507 0.67210 -0.14200
C 	C 	0.44536 0.15506 0.73800 0.06800
H 	H 	0.47300 0.17030 0.75480 0.02500
C 	C 	0.44720 0.12210 0.77890 -0.14200
H 	H 	0.47630 0.11560 0.82260 0.08900
C 	C 	0.40760 0.09960 0.75610 0.08400
C 	C 	0.36250 0.11220 0.68960 -0.12800
H 	H 	0.33450 0.09920 0.67420 0.08900
C 	C 	0.36140 0.14430 0.64820 0.07000
H 	H 	0.33270 0.15130 0.60430 0.02500
C 	C 	0.40810 0.06340 0.79640 -0.00500
C 	C 	0.41820 0.07210 0.85270 -0.16200
H 	H 	0.42590 0.10400 0.86860 0.09000
C 	C 	0.41840 0.03740 0.89150 0.20700
C 	C 	0.40630 0.99210 0.86810 -0.10300
C 	C 	0.37540 0.98040 0.79200 -0.07200
H 	H 	0.35840 0.95170 0.77070 0.06100
C 	C 	0.37660 0.02060 0.75790 0.11100
C 	C 	0.44710 0.89610 0.00060 0.11500
H 	H 	0.47540 0.88560 0.04270 -0.00000
C 	C 	0.44710 0.93650 0.96890 -0.20500
H 	H 	0.47550 0.95290 0.99140 0.11300
C 	C 	0.40790 0.95210 0.90810 0.15800
C 	C 	0.36520 0.92720 0.87580 -0.18800
H 	H 	0.33720 0.93770 0.83340 0.09700
C 	C 	0.36390 0.88710 0.90600 0.10300
H 	H 	0.33550 0.87080 0.88390 0.00200
C 	C 	0.40584 0.87244 0.96960 -0.17900
C 	C 	0.40564 0.82851 0.00220 0.41800
C 	C 	0.54945 0.23380 0.66140 0.08100
H 	H 	0.53330 0.21650 0.62130 -0.01500
C 	C 	0.59785 0.23360 0.70780 -0.13000
H 	H 	0.61380 0.21700 0.69900 0.06200
C 	C 	0.62243 0.25808 0.76750 0.02400
C 	C 	0.59655 0.28210 0.77700 -0.10900
H 	H 	0.61220 0.29950 0.81700 0.07400
C 	C 	0.54780 0.28070 0.72810 0.06700
H 	H 	0.53090 0.29660 0.73580 0.00900
C 	C 	0.75090 0.24240 0.86260 0.14000
H 	H 	0.76690 0.23000 0.85160 -0.02700
C 	C 	0.70120 0.24510 0.81140 -0.21600
H 	H 	0.68620 0.23790 0.76700 0.09400
C 	C 	0.67577 0.25660 0.82180 0.13500
C 	C 	0.70110 0.27620 0.88310 -0.19800
H 	H 	0.68550 0.29020 0.89400 0.10500
C 	C 	0.75010 0.27610 0.93080 0.11900
N 	N 	0.52386 0.25673 0.66880 -0.25100
N 	N 	0.77489 0.25578 0.92300 -0.28100
O 	O 	0.35758 0.30817 0.54865 -0.46900
O 	O 	0.43631 0.31551 0.61970 -0.46100
O 	O 	0.35588 0.70932 0.94431 -0.46600
O 	O 	0.43420 0.71261 0.01787 -0.47400
O 	O 	0.34320 0.44160 0.73140 -0.27700
O 	O 	0.44480 0.61020 0.79920 1.24100
O 	O 	0.43918 0.21564 0.65001 -0.46600
O 	O 	0.36058 0.20647 0.56939 -0.46100
O 	O 	0.44437 0.81213 0.05420 -0.47400
O 	O 	0.36521 0.81047 0.97135 -0.47800
O 	O 	0.42250 0.04780 0.94040 -0.23400
O 	O 	0.36190 0.00540 0.69830 -0.18900
Zn	Zn	0.45148 0.25230 0.59865 1.21400
Zn	Zn	0.34724 0.24752 0.49551 1.21600
C 	C 	0.89580 0.17019 0.09440 0.43000
C 	C 	0.89507 0.12656 0.12530 -0.21600
C 	C 	0.93465 0.10230 0.17720 0.19600
H 	H 	0.96320 0.11170 0.19120 -0.00800
C 	C 	0.93540 0.06350 0.21150 -0.26900
H 	H 	0.96370 0.04780 0.24730 0.19500
C 	C 	0.89240 0.04906 0.19020 0.28500
C 	C 	0.85160 0.07250 0.13640 -0.26900
H 	H 	0.82310 0.06270 0.12210 0.14400
C 	C 	0.85082 0.11037 0.10210 0.16600
H 	H 	0.82230 0.12500 0.06480 -0.01100
C 	C 	0.89070 0.00900 0.22540 -0.29200
C 	C 	0.91960 0.96900 0.24750 0.44400
H 	H 	0.94020 0.96660 0.24150 0.03600
C 	C 	0.91630 0.93210 0.27950 -0.30900
C 	C 	0.88970 0.93740 0.29750 0.22400
C 	C 	0.86630 0.98010 0.28160 -0.29700
H 	H 	0.84830 0.98470 0.29180 0.13900
C 	C 	0.86950 0.01810 0.24890 0.31900
C 	C 	0.89290 0.90110 0.34060 -0.11000
C 	C 	0.93500 0.88150 0.39940 0.01100
H 	H 	0.96350 0.89030 0.41300 -0.12100
C 	C 	0.93530 0.84840 0.43890 -0.07400
H 	H 	0.96400 0.83590 0.47850 0.01800
C 	C 	0.89466 0.83460 0.42050 -0.06800
C 	C 	0.85130 0.85100 0.35760 -0.03300
H 	H 	0.82290 0.83850 0.34130 0.05100
C 	C 	0.85020 0.88500 0.32000 -0.02100
H 	H 	0.82130 0.89760 0.28070 0.03200
C 	C 	0.89447 0.80089 0.46350 0.39100
C 	C 	0.81530 0.06710 0.25020 0.12200
H 	H 	0.83550 0.06290 0.29870 -0.02400
H 	H 	0.78880 0.04460 0.22620 -0.00500
C 	C 	0.79820 0.11720 0.23020 -0.22100
H 	H 	0.82400 0.13870 0.24670 0.09700
H 	H 	0.77350 0.11970 0.18100 0.10500
C 	C 	0.77810 0.13230 0.26110 -0.06300
H 	H 	0.80420 0.13560 0.31000 0.02100
H 	H 	0.75730 0.10670 0.25240 0.04200
C 	C 	0.75050 0.18010 0.23170 -0.02900
H 	H 	0.76380 0.19980 0.21880 0.03600
H 	H 	0.71790 0.17280 0.19050 0.03600
C 	C 	0.75000 0.21120 0.27870 -0.30900
H 	H 	0.74210 0.19020 0.29810 0.11100
H 	H 	0.72510 0.23550 0.25120 0.11100
C 	C 	0.78500 0.23040 0.32180 0.14200
H 	H 	0.78190 0.24880 0.34840 -0.03700
H 	H 	0.80970 0.20660 0.35010 -0.04300
H 	H 	0.79280 0.25200 0.30310 -0.02800
C 	C 	0.97990 0.88060 0.29110 -11.75800
H 	H 	0.96780 0.89110 0.24760 3.73200
H 	H 	0.99150 0.84740 0.30110 3.39500
C 	C 	0.00790 0.90890 0.33710 13.17300
H 	H 	0.02700 0.92380 0.33070 -3.93800
H 	H 	0.99080 0.93450 0.33710 -3.82300
C 	C 	0.04240 0.87980 0.41000 -9.34100
H 	H 	0.04980 0.84960 0.40050 2.52500
H 	H 	0.02100 0.87060 0.41500 2.50300
C 	C 	0.08070 0.89020 0.47000 6.42500
H 	H 	0.10650 0.86970 0.48410 -2.05400
H 	H 	0.08920 0.92400 0.47290 -1.84600
C 	C 	0.90094 0.30226 0.12780 0.39900
C 	C 	0.90207 0.33493 0.17210 -0.14200
C 	C 	0.94536 0.34494 0.23800 0.06900
H 	H 	0.97300 0.32970 0.25480 0.02500
C 	C 	0.94720 0.37790 0.27890 -0.14200
H 	H 	0.97630 0.38440 0.32260 0.08900
C 	C 	0.90760 0.40040 0.25610 0.08500
C 	C 	0.86250 0.38780 0.18960 -0.12800
H 	H 	0.83450 0.40080 0.17420 0.08900
C 	C 	0.86140 0.35570 0.14820 0.07000
H 	H 	0.83270 0.34870 0.10430 0.02500
C 	C 	0.90810 0.43660 0.29640 -0.00500
C 	C 	0.91820 0.42790 0.35270 -0.16100
H 	H 	0.92590 0.39600 0.36860 0.09000
C 	C 	0.91840 0.46260 0.39150 0.20600
C 	C 	0.90630 0.50790 0.36810 -0.10100
C 	C 	0.87540 0.51960 0.29200 -0.07100
H 	H 	0.85840 0.54830 0.27070 0.06100
C 	C 	0.87660 0.47940 0.25790 0.11100
C 	C 	0.94710 0.60390 0.50060 0.11300
H 	H 	0.97540 0.61440 0.54270 0.00200
C 	C 	0.94710 0.56350 0.46890 -0.20200
H 	H 	0.97550 0.54710 0.49140 0.11300
C 	C 	0.90790 0.54790 0.40810 0.15700
C 	C 	0.86520 0.57280 0.37580 -0.18700
H 	H 	0.83720 0.56230 0.33340 0.09600
C 	C 	0.86390 0.61290 0.40600 0.10200
H 	H 	0.83550 0.62920 0.38390 0.00300
C 	C 	0.90584 0.62756 0.46960 -0.17700
C 	C 	0.90564 0.67149 0.50220 0.41600
C 	C 	0.04945 0.26620 0.16140 0.08100
H 	H 	0.03330 0.28350 0.12130 -0.01300
C 	C 	0.09785 0.26640 0.20780 -0.12900
H 	H 	0.11380 0.28300 0.19900 0.06200
C 	C 	0.12243 0.24192 0.26750 0.02400
C 	C 	0.09655 0.21790 0.27700 -0.10900
H 	H 	0.11220 0.20050 0.31700 0.07400
C 	C 	0.04780 0.21930 0.22810 0.06700
H 	H 	0.03090 0.20340 0.23580 0.01000
C 	C 	0.25090 0.25760 0.36260 0.14100
H 	H 	0.26690 0.27000 0.35160 -0.02700
C 	C 	0.20120 0.25490 0.31140 -0.21600
H 	H 	0.18620 0.26210 0.26700 0.09500
C 	C 	0.17577 0.24340 0.32180 0.13500
C 	C 	0.20110 0.22380 0.38310 -0.19800
H 	H 	0.18550 0.20980 0.39400 0.10500
C 	C 	0.25010 0.22390 0.43080 0.11900
N 	N 	0.02386 0.24327 0.16880 -0.25000
N 	N 	0.27489 0.24422 0.42300 -0.28100
O 	O 	0.85758 0.19183 0.04865 -0.47000
O 	O 	0.93631 0.18449 0.11970 -0.46200
O 	O 	0.85588 0.79068 0.44431 -0.46500
O 	O 	0.93420 0.78739 0.51787 -0.47400
O 	O 	0.84320 0.05840 0.23140 -0.27900
O 	O 	0.94480 0.88980 0.29920 1.30000
O 	O 	0.93918 0.28436 0.15001 -0.46600
O 	O 	0.86058 0.29353 0.06939 -0.46200
O 	O 	0.94437 0.68787 0.55420 -0.47400
O 	O 	0.86521 0.68953 0.47135 -0.47700
O 	O 	0.92250 0.45220 0.44040 -0.23400
O 	O 	0.86190 0.49460 0.19830 -0.18800
Zn	Zn	0.95148 0.24770 0.09865 1.21400
Zn	Zn	0.84724 0.25248 0.99551 1.21600
C 	C 	0.39580 0.67019 0.09440 0.42900
C 	C 	0.39507 0.62656 0.12530 -0.21300
C 	C 	0.43465 0.60230 0.17720 0.19300
H 	H 	0.46320 0.61170 0.19120 -0.00600
C 	C 	0.43540 0.56350 0.21150 -0.26200
H 	H 	0.46370 0.54780 0.24730 0.19200
C 	C 	0.39240 0.54906 0.19020 0.27900
C 	C 	0.35160 0.57250 0.13640 -0.26400
H 	H 	0.32310 0.56270 0.12210 0.14300
C 	C 	0.35082 0.61037 0.10210 0.16300
H 	H 	0.32230 0.62500 0.06480 -0.01000
C 	C 	0.39070 0.50900 0.22540 -0.27900
C 	C 	0.41960 0.46900 0.24750 0.42000
H 	H 	0.44020 0.46660 0.24150 0.04400
C 	C 	0.41630 0.43210 0.27950 -0.29000
C 	C 	0.38970 0.43740 0.29750 0.21300
C 	C 	0.36630 0.48010 0.28160 -0.28900
H 	H 	0.34830 0.48470 0.29180 0.13600
C 	C 	0.36950 0.51810 0.24890 0.31200
C 	C 	0.39290 0.40110 0.34060 -0.10100
C 	C 	0.43500 0.38150 0.39940 0.00400
H 	H 	0.46350 0.39030 0.41300 -0.11300
C 	C 	0.43530 0.34840 0.43890 -0.06700
H 	H 	0.46400 0.33590 0.47850 0.01700
C 	C 	0.39466 0.33460 0.42050 -0.07300
C 	C 	0.35130 0.35100 0.35760 -0.02800
H 	H 	0.32290 0.33850 0.34130 0.04900
C 	C 	0.35020 0.38500 0.32000 -0.02700
H 	H 	0.32130 0.39760 0.28070 0.03400
C 	C 	0.39447 0.30089 0.46350 0.39300
C 	C 	0.31530 0.56710 0.25020 0.11900
H 	H 	0.33550 0.56290 0.29870 -0.02300
H 	H 	0.28880 0.54460 0.22620 -0.00300
C 	C 	0.29820 0.61720 0.23020 -0.21800
H 	H 	0.32400 0.63870 0.24670 0.09700
H 	H 	0.27350 0.61970 0.18100 0.10400
C 	C 	0.27810 0.63230 0.26110 -0.06500
H 	H 	0.30420 0.63560 0.31000 0.02300
H 	H 	0.25730 0.60670 0.25240 0.04300
C 	C 	0.25050 0.68010 0.23170 -0.02700
H 	H 	0.26380 0.69980 0.21880 0.03600
H 	H 	0.21790 0.67280 0.19050 0.03600
C 	C 	0.25000 0.71120 0.27870 -0.30900
H 	H 	0.24210 0.69020 0.29810 0.11100
H 	H 	0.22510 0.73550 0.25120 0.11100
C 	C 	0.28500 0.73040 0.32180 0.14100
H 	H 	0.28190 0.74880 0.34840 -0.03700
H 	H 	0.30970 0.70660 0.35010 -0.04200
H 	H 	0.29280 0.75200 0.30310 -0.02800
C 	C 	0.47990 0.38060 0.29110 -11.30300
H 	H 	0.46780 0.39110 0.24760 3.59000
H 	H 	0.49150 0.34740 0.30110 3.25900
C 	C 	0.50790 0.40890 0.33710 12.65300
H 	H 	0.52700 0.42380 0.33070 -3.78900
H 	H 	0.49080 0.43450 0.33710 -3.67000
C 	C 	0.54240 0.37980 0.41000 -8.97600
H 	H 	0.54980 0.34960 0.40050 2.42500
H 	H 	0.52100 0.37060 0.41500 2.40600
C 	C 	0.58070 0.39020 0.47000 6.16700
H 	H 	0.60650 0.36970 0.48410 -1.97200
H 	H 	0.58920 0.42400 0.47290 -1.77100
C 	C 	0.40094 0.80226 0.12780 0.39900
C 	C 	0.40207 0.83493 0.17210 -0.14200
C 	C 	0.44536 0.84494 0.23800 0.06800
H 	H 	0.47300 0.82970 0.25480 0.02500
C 	C 	0.44720 0.87790 0.27890 -0.14200
H 	H 	0.47630 0.88440 0.32260 0.08900
C 	C 	0.40760 0.90040 0.25610 0.08400
C 	C 	0.36250 0.88780 0.18960 -0.12700
H 	H 	0.33450 0.90080 0.17420 0.08900
C 	C 	0.36140 0.85570 0.14820 0.06900
H 	H 	0.33270 0.84870 0.10430 0.02500
C 	C 	0.40810 0.93660 0.29640 -0.00500
C 	C 	0.41820 0.92790 0.35270 -0.16100
H 	H 	0.42590 0.89600 0.36860 0.09000
C 	C 	0.41840 0.96260 0.39150 0.20600
C 	C 	0.40630 0.00790 0.36810 -0.10200
C 	C 	0.37540 0.01960 0.29200 -0.07200
H 	H 	0.35840 0.04830 0.27070 0.06100
C 	C 	0.37660 0.97940 0.25790 0.11100
C 	C 	0.44710 0.10390 0.50060 0.11300
H 	H 	0.47540 0.11440 0.54270 0.00100
C 	C 	0.44710 0.06350 0.46890 -0.20300
H 	H 	0.47550 0.04710 0.49140 0.11200
C 	C 	0.40790 0.04790 0.40810 0.15700
C 	C 	0.36520 0.07280 0.37580 -0.18700
H 	H 	0.33720 0.06230 0.33340 0.09600
C 	C 	0.36390 0.11290 0.40600 0.10200
H 	H 	0.33550 0.12920 0.38390 0.00300
C 	C 	0.40584 0.12756 0.46960 -0.17700
C 	C 	0.40564 0.17149 0.50220 0.41600
C 	C 	0.54945 0.76620 0.16140 0.08100
H 	H 	0.53330 0.78350 0.12130 -0.01500
C 	C 	0.59785 0.76640 0.20780 -0.13000
H 	H 	0.61380 0.78300 0.19900 0.06200
C 	C 	0.62243 0.74192 0.26750 0.02400
C 	C 	0.59655 0.71790 0.27700 -0.10900
H 	H 	0.61220 0.70050 0.31700 0.07400
C 	C 	0.54780 0.71930 0.22810 0.06700
H 	H 	0.53090 0.70340 0.23580 0.00900
C 	C 	0.75090 0.75760 0.36260 0.14100
H 	H 	0.76690 0.77000 0.35160 -0.02700
C 	C 	0.70120 0.75490 0.31140 -0.21600
H 	H 	0.68620 0.76210 0.26700 0.09400
C 	C 	0.67577 0.74340 0.32180 0.13500
C 	C 	0.70110 0.72380 0.38310 -0.19800
H 	H 	0.68550 0.70980 0.39400 0.10500
C 	C 	0.75010 0.72390 0.43080 0.11900
N 	N 	0.52386 0.74327 0.16880 -0.25100
N 	N 	0.77489 0.74422 0.42300 -0.28100
O 	O 	0.35758 0.69183 0.04865 -0.46900
O 	O 	0.43631 0.68449 0.11970 -0.46100
O 	O 	0.35588 0.29068 0.44431 -0.46600
O 	O 	0.43420 0.28739 0.51787 -0.47500
O 	O 	0.34320 0.55840 0.23140 -0.27700
O 	O 	0.44480 0.38980 0.29920 1.24100
O 	O 	0.43918 0.78436 0.15001 -0.46600
O 	O 	0.36058 0.79353 0.06939 -0.46100
O 	O 	0.44437 0.18787 0.55420 -0.47400
O 	O 	0.36521 0.18953 0.47135 -0.47700
O 	O 	0.42250 0.95220 0.44040 -0.23400
O 	O 	0.36190 0.99460 0.19830 -0.18900
Zn	Zn	0.45148 0.74770 0.09865 1.21400
Zn	Zn	0.34724 0.75248 0.99551 1.21500
