data_crystal

_cell_length_a 17.96970
_cell_length_b 21.84050
_cell_length_c 12.66660
_cell_angle_alpha 90.00000
_cell_angle_beta  90.00000
_cell_angle_gamma 90.00000

_symmetry_space_group_name_	'P 1'
_symmetry_space_group_name_H-M	'P 1'

loop_
_symmetry_equiv_pos_as_xyz
  x,y,z

loop_
_atom_site_label
_atom_site_type_symbol
_atom_site_fract_x
_atom_site_fract_y
_atom_site_fract_z
_atom_site_charge
Co	Co	0.33730 0.72967 0.03428 1.15700
Co	Co	0.17418 0.72165 0.02627 1.15100
S 	S 	0.25065 0.60570 0.39188 0.27900
S 	S 	0.20725 0.84057 0.67729 0.26700
N 	N 	0.44300 0.76030 0.05260 -0.25000
N 	N 	0.56160 0.79200 0.04150 -0.30100
N 	N 	0.45980 0.79950 0.13760 -0.11700
N 	N 	0.51300 0.73110 0.90270 -0.32700
N 	N 	0.56450 0.85290 0.19800 -0.32100
O 	O 	0.21340 0.30910 0.50090 -0.46800
O 	O 	0.17500 0.14040 0.57200 -0.43900
O 	O 	0.34450 0.70410 0.87790 -0.41200
O 	O 	0.31580 0.75240 0.19470 -0.39700
O 	O 	0.22090 0.69480 0.89220 -0.45500
O 	O 	0.19160 0.74920 0.17430 -0.45300
O 	O 	0.33590 0.31000 0.47340 -0.42100
O 	O 	0.29820 0.13310 0.58300 -0.43000
O 	O 	0.17730 0.62020 0.35560 -0.23200
O 	O 	0.31330 0.62490 0.33110 -0.21400
O 	O 	0.13180 0.82710 0.71100 -0.21700
O 	O 	0.26850 0.82060 0.74060 -0.21300
C 	C 	0.28110 0.69310 0.84090 0.38500
C 	C 	0.27440 0.67300 0.72750 -0.09300
C 	C 	0.20500 0.66730 0.68170 0.02900
H 	H 	0.16270 0.67670 0.72080 0.04400
C 	C 	0.19760 0.64790 0.57910 -0.07500
H 	H 	0.15080 0.64370 0.54880 0.07200
C 	C 	0.26070 0.63480 0.52160 0.00400
C 	C 	0.33140 0.64080 0.56560 -0.07300
H 	H 	0.37370 0.63160 0.52640 0.06800
C 	C 	0.33730 0.66080 0.66870 0.02400
H 	H 	0.38400 0.66600 0.69890 0.04200
C 	C 	0.25720 0.52510 0.41150 0.00600
C 	C 	0.19310 0.49360 0.43760 -0.07800
H 	H 	0.14760 0.51360 0.44280 0.06900
C 	C 	0.19870 0.43100 0.45580 0.02800
H 	H 	0.15620 0.40850 0.47180 0.04200
C 	C 	0.26640 0.40210 0.45050 -0.09700
C 	C 	0.33070 0.43540 0.42410 0.02600
H 	H 	0.37650 0.41560 0.41950 0.04200
C 	C 	0.32580 0.49770 0.40500 -0.07500
H 	H 	0.36800 0.52040 0.38820 0.07100
C 	C 	0.27250 0.33540 0.47600 0.38800
C 	C 	0.25000 0.75730 0.22730 0.37300
C 	C 	0.23850 0.77560 0.34150 -0.08600
C 	C 	0.29900 0.78280 0.40690 0.02000
H 	H 	0.34690 0.77640 0.38120 0.04800
C 	C 	0.28800 0.79990 0.51220 -0.07400
H 	H 	0.32840 0.80320 0.55780 0.07200
C 	C 	0.21860 0.81150 0.54720 0.00800
C 	C 	0.15680 0.80390 0.48340 -0.07600
H 	H 	0.10910 0.81090 0.50940 0.06900
C 	C 	0.16740 0.78550 0.37980 0.02100
H 	H 	0.12660 0.77980 0.33580 0.04200
C 	C 	0.21510 0.92030 0.65820 0.00600
C 	C 	0.28380 0.94840 0.66640 -0.07500
H 	H 	0.32540 0.92590 0.68620 0.07200
C 	C 	0.29010 0.01050 0.64500 0.02400
H 	H 	0.33630 0.02970 0.64970 0.04100
C 	C 	0.22770 0.04410 0.61660 -0.09500
C 	C 	0.15940 0.01560 0.61070 0.02400
H 	H 	0.11740 0.03830 0.59280 0.04100
C 	C 	0.15250 0.95370 0.63100 -0.07600
H 	H 	0.10630 0.93460 0.62640 0.06900
C 	C 	0.23450 0.11140 0.58890 0.39000
C 	C 	0.50580 0.75920 0.99790 0.25600
C 	C 	0.53060 0.81620 0.13000 0.21200
H 	H 	0.56200 0.71900 0.88600 0.15500
H 	H 	0.47400 0.71100 0.89600 0.17900
H 	H 	0.54900 0.86200 0.26500 0.15100
H 	H 	0.61160 0.85700 0.19900 0.18000
Co	Co	0.66270 0.27033 0.53428 1.16300
Co	Co	0.82582 0.27835 0.52627 1.16300
S 	S 	0.74935 0.39430 0.89188 0.31500
S 	S 	0.79275 0.15943 0.17729 0.29200
N 	N 	0.55700 0.23970 0.55260 -0.22500
N 	N 	0.43840 0.20800 0.54150 -0.27600
N 	N 	0.54020 0.20050 0.63760 -0.11300
N 	N 	0.48700 0.26890 0.40270 -0.31600
N 	N 	0.43550 0.14710 0.69800 -0.32100
O 	O 	0.78660 0.69090 0.00090 -0.50900
O 	O 	0.82500 0.85960 0.07200 -0.44800
O 	O 	0.65550 0.29590 0.37790 -0.42600
O 	O 	0.68420 0.24760 0.69470 -0.39100
O 	O 	0.77910 0.30520 0.39220 -0.47100
O 	O 	0.80840 0.25080 0.67430 -0.44500
O 	O 	0.66410 0.69000 0.97340 -0.41900
O 	O 	0.70180 0.86690 0.08300 -0.43500
O 	O 	0.82270 0.37980 0.85560 -0.23200
O 	O 	0.68670 0.37510 0.83110 -0.21500
O 	O 	0.86820 0.17290 0.21100 -0.22400
O 	O 	0.73150 0.17940 0.24060 -0.22000
C 	C 	0.71890 0.30690 0.34090 0.38200
C 	C 	0.72560 0.32700 0.22750 -0.08200
C 	C 	0.79500 0.33270 0.18170 0.00700
H 	H 	0.83730 0.32330 0.22080 0.04800
C 	C 	0.80240 0.35210 0.07910 -0.05000
H 	H 	0.84920 0.35630 0.04880 0.05200
C 	C 	0.73930 0.36520 0.02160 -0.04300
C 	C 	0.66860 0.35920 0.06560 -0.05000
H 	H 	0.62630 0.36840 0.02640 0.04900
C 	C 	0.66270 0.33920 0.16870 0.00200
H 	H 	0.61600 0.33400 0.19890 0.04700
C 	C 	0.74280 0.47490 0.91150 0.00800
C 	C 	0.80690 0.50640 0.93760 -0.07800
H 	H 	0.85240 0.48640 0.94280 0.07600
C 	C 	0.80130 0.56900 0.95580 0.03900
H 	H 	0.84380 0.59150 0.97180 0.04800
C 	C 	0.73360 0.59790 0.95050 -0.10600
C 	C 	0.66930 0.56460 0.92410 0.03600
H 	H 	0.62350 0.58440 0.91950 0.04300
C 	C 	0.67420 0.50230 0.90500 -0.07500
H 	H 	0.63200 0.47960 0.88820 0.07700
C 	C 	0.72750 0.66460 0.97600 0.43100
C 	C 	0.75000 0.24270 0.72730 0.36400
C 	C 	0.76150 0.22440 0.84150 -0.05400
C 	C 	0.70100 0.21720 0.90690 0.03200
H 	H 	0.65310 0.22360 0.88120 0.05200
C 	C 	0.71200 0.20010 0.01220 -0.07200
H 	H 	0.67160 0.19680 0.05780 0.06600
C 	C 	0.78140 0.18850 0.04720 -0.06800
C 	C 	0.84320 0.19610 0.98340 0.07800
H 	H 	0.89090 0.18910 0.00940 -0.00300
C 	C 	0.83260 0.21450 0.87980 -0.05200
H 	H 	0.87340 0.22020 0.83580 0.07500
C 	C 	0.78490 0.07970 0.15820 -0.00600
C 	C 	0.71620 0.05160 0.16640 -0.06800
H 	H 	0.67460 0.07410 0.18620 0.06700
C 	C 	0.70990 0.98950 0.14500 0.01700
H 	H 	0.66370 0.97030 0.14970 0.04000
C 	C 	0.77230 0.95590 0.11660 -0.09400
C 	C 	0.84060 0.98440 0.11070 0.01700
H 	H 	0.88260 0.96170 0.09280 0.03800
C 	C 	0.84750 0.04630 0.13100 -0.07000
H 	H 	0.89370 0.06540 0.12640 0.06400
C 	C 	0.76550 0.88860 0.08890 0.38800
C 	C 	0.49420 0.24080 0.49790 0.19900
C 	C 	0.46940 0.18380 0.63000 0.21900
H 	H 	0.43800 0.28100 0.38600 0.14800
H 	H 	0.52600 0.28900 0.39600 0.17000
H 	H 	0.45100 0.13800 0.76500 0.15700
H 	H 	0.38840 0.14300 0.69900 0.18100
Co	Co	0.83730 0.77033 0.03428 1.15600
Co	Co	0.67418 0.77835 0.02627 1.15100
S 	S 	0.75065 0.89430 0.39188 0.28100
S 	S 	0.70725 0.65943 0.67729 0.26700
N 	N 	0.94300 0.73970 0.05260 -0.24900
N 	N 	0.06160 0.70800 0.04150 -0.30000
N 	N 	0.95980 0.70050 0.13760 -0.11500
N 	N 	0.01300 0.76890 0.90270 -0.32700
N 	N 	0.06450 0.64710 0.19800 -0.32000
O 	O 	0.71340 0.19090 0.50090 -0.46800
O 	O 	0.67500 0.35960 0.57200 -0.43900
O 	O 	0.84450 0.79590 0.87790 -0.41300
O 	O 	0.81580 0.74760 0.19470 -0.39700
O 	O 	0.72090 0.80520 0.89220 -0.45500
O 	O 	0.69160 0.75080 0.17430 -0.45300
O 	O 	0.83590 0.19000 0.47340 -0.42100
O 	O 	0.79820 0.36690 0.58300 -0.43000
O 	O 	0.67730 0.87980 0.35560 -0.23200
O 	O 	0.81330 0.87510 0.33110 -0.21500
O 	O 	0.63180 0.67290 0.71100 -0.21700
O 	O 	0.76850 0.67940 0.74060 -0.21300
C 	C 	0.78110 0.80690 0.84090 0.38500
C 	C 	0.77440 0.82700 0.72750 -0.09300
C 	C 	0.70500 0.83270 0.68170 0.02900
H 	H 	0.66270 0.82330 0.72080 0.04400
C 	C 	0.69760 0.85210 0.57910 -0.07400
H 	H 	0.65080 0.85630 0.54880 0.07200
C 	C 	0.76070 0.86520 0.52160 0.00400
C 	C 	0.83140 0.85920 0.56560 -0.07300
H 	H 	0.87370 0.86840 0.52640 0.06800
C 	C 	0.83730 0.83920 0.66870 0.02300
H 	H 	0.88400 0.83400 0.69890 0.04300
C 	C 	0.75720 0.97490 0.41150 0.00200
C 	C 	0.69310 0.00640 0.43760 -0.07300
H 	H 	0.64760 0.98640 0.44280 0.06700
C 	C 	0.69870 0.06900 0.45580 0.02500
H 	H 	0.65620 0.09150 0.47180 0.04300
C 	C 	0.76640 0.09790 0.45050 -0.09400
C 	C 	0.83070 0.06460 0.42410 0.02200
H 	H 	0.87650 0.08440 0.41950 0.04400
C 	C 	0.82580 0.00230 0.40500 -0.06900
H 	H 	0.86800 0.97960 0.38820 0.06800
C 	C 	0.77250 0.16460 0.47600 0.38700
C 	C 	0.75000 0.74270 0.22730 0.37300
C 	C 	0.73850 0.72440 0.34150 -0.08600
C 	C 	0.79900 0.71720 0.40690 0.02000
H 	H 	0.84690 0.72360 0.38120 0.04800
C 	C 	0.78800 0.70010 0.51220 -0.07400
H 	H 	0.82840 0.69680 0.55780 0.07200
C 	C 	0.71860 0.68850 0.54720 0.00800
C 	C 	0.65680 0.69610 0.48340 -0.07600
H 	H 	0.60910 0.68910 0.50940 0.07000
C 	C 	0.66740 0.71450 0.37980 0.02100
H 	H 	0.62660 0.72020 0.33580 0.04200
C 	C 	0.71510 0.57970 0.65820 0.00700
C 	C 	0.78380 0.55160 0.66640 -0.07700
H 	H 	0.82540 0.57410 0.68620 0.07300
C 	C 	0.79010 0.48950 0.64500 0.02600
H 	H 	0.83630 0.47030 0.64970 0.04100
C 	C 	0.72770 0.45590 0.61660 -0.09600
C 	C 	0.65940 0.48440 0.61070 0.02700
H 	H 	0.61740 0.46170 0.59280 0.04100
C 	C 	0.65250 0.54630 0.63100 -0.07800
H 	H 	0.60630 0.56540 0.62640 0.07000
C 	C 	0.73450 0.38860 0.58890 0.39000
C 	C 	0.00580 0.74080 0.99790 0.25500
C 	C 	0.03060 0.68380 0.13000 0.21100
H 	H 	0.06200 0.78100 0.88600 0.15500
H 	H 	0.97400 0.78900 0.89600 0.17900
H 	H 	0.04900 0.63800 0.26500 0.15100
H 	H 	0.11160 0.64300 0.19900 0.18000
Co	Co	0.16270 0.22967 0.53428 1.16300
Co	Co	0.32582 0.22165 0.52627 1.16300
S 	S 	0.24935 0.10570 0.89188 0.31700
S 	S 	0.29275 0.34057 0.17729 0.29200
N 	N 	0.05700 0.26030 0.55260 -0.22500
N 	N 	0.93840 0.29200 0.54150 -0.27600
N 	N 	0.04020 0.29950 0.63760 -0.11300
N 	N 	0.98700 0.23110 0.40270 -0.31500
N 	N 	0.93550 0.35290 0.69800 -0.32200
O 	O 	0.28660 0.80910 0.00090 -0.51000
O 	O 	0.32500 0.64040 0.07200 -0.44800
O 	O 	0.15550 0.20410 0.37790 -0.42600
O 	O 	0.18420 0.25240 0.69470 -0.39100
O 	O 	0.27910 0.19480 0.39220 -0.47100
O 	O 	0.30840 0.24920 0.67430 -0.44400
O 	O 	0.16410 0.81000 0.97340 -0.41900
O 	O 	0.20180 0.63310 0.08300 -0.43600
O 	O 	0.32270 0.12020 0.85560 -0.23300
O 	O 	0.18670 0.12490 0.83110 -0.21600
O 	O 	0.36820 0.32710 0.21100 -0.22400
O 	O 	0.23150 0.32060 0.24060 -0.22000
C 	C 	0.21890 0.19310 0.34090 0.38200
C 	C 	0.22560 0.17300 0.22750 -0.08200
C 	C 	0.29500 0.16730 0.18170 0.00700
H 	H 	0.33730 0.17670 0.22080 0.04700
C 	C 	0.30240 0.14790 0.07910 -0.05000
H 	H 	0.34920 0.14370 0.04880 0.05200
C 	C 	0.23930 0.13480 0.02160 -0.04400
C 	C 	0.16860 0.14080 0.06560 -0.04900
H 	H 	0.12630 0.13160 0.02640 0.04900
C 	C 	0.16270 0.16080 0.16870 0.00200
H 	H 	0.11600 0.16600 0.19890 0.04600
C 	C 	0.24280 0.02510 0.91150 -0.00100
C 	C 	0.30690 0.99360 0.93760 -0.06800
H 	H 	0.35240 0.01360 0.94280 0.07200
C 	C 	0.30130 0.93100 0.95580 0.03300
H 	H 	0.34380 0.90850 0.97180 0.05100
C 	C 	0.23360 0.90210 0.95050 -0.10200
C 	C 	0.16930 0.93540 0.92410 0.02900
H 	H 	0.12350 0.91560 0.91950 0.04500
C 	C 	0.17420 0.99770 0.90500 -0.06500
H 	H 	0.13200 0.02040 0.88820 0.07200
C 	C 	0.22750 0.83540 0.97600 0.43100
C 	C 	0.25000 0.25730 0.72730 0.36400
C 	C 	0.26150 0.27560 0.84150 -0.05200
C 	C 	0.20100 0.28280 0.90690 0.03200
H 	H 	0.15310 0.27640 0.88120 0.05200
C 	C 	0.21200 0.29990 0.01220 -0.07100
H 	H 	0.17160 0.30320 0.05780 0.06500
C 	C 	0.28140 0.31150 0.04720 -0.07200
C 	C 	0.34320 0.30390 0.98340 0.08400
H 	H 	0.39090 0.31090 0.00940 -0.00600
C 	C 	0.33260 0.28550 0.87980 -0.05600
H 	H 	0.37340 0.27980 0.83580 0.07600
C 	C 	0.28490 0.42030 0.15820 -0.00300
C 	C 	0.21620 0.44840 0.16640 -0.07300
H 	H 	0.17460 0.42590 0.18620 0.06800
C 	C 	0.20990 0.51050 0.14500 0.02200
H 	H 	0.16370 0.52970 0.14970 0.03900
C 	C 	0.27230 0.54410 0.11660 -0.09800
C 	C 	0.34060 0.51560 0.11070 0.02200
H 	H 	0.38260 0.53830 0.09280 0.03600
C 	C 	0.34750 0.45370 0.13100 -0.07500
H 	H 	0.39370 0.43460 0.12640 0.06500
C 	C 	0.26550 0.61140 0.08890 0.38900
C 	C 	0.99420 0.25920 0.49790 0.20000
C 	C 	0.96940 0.31620 0.63000 0.22000
H 	H 	0.93800 0.21900 0.38600 0.14800
H 	H 	0.02600 0.21100 0.39600 0.16900
H 	H 	0.95100 0.36200 0.76500 0.15700
H 	H 	0.88840 0.35700 0.69900 0.18100
