data_crystal

_cell_length_a 18.01560
_cell_length_b 21.75980
_cell_length_c 12.70700
_cell_angle_alpha 90.00000
_cell_angle_beta  90.00000
_cell_angle_gamma 90.00000

_symmetry_space_group_name_	'P 1'
_symmetry_space_group_name_H-M	'P 1'

loop_
_symmetry_equiv_pos_as_xyz
  x,y,z

loop_
_atom_site_label
_atom_site_type_symbol
_atom_site_fract_x
_atom_site_fract_y
_atom_site_fract_z
_atom_site_charge
Co	Co	0.33485 0.73629 0.03861 1.15400
Co	Co	0.17260 0.72688 0.03151 1.14400
N 	N 	0.44040 0.76650 0.05240 -0.23100
O 	O 	0.34030 0.70970 0.88330 -0.40100
O 	O 	0.31400 0.76120 0.19860 -0.39900
O 	O 	0.21970 0.31330 0.50460 -0.47300
O 	O 	0.17520 0.14830 0.58150 -0.44200
O 	O 	0.21720 0.70090 0.89600 -0.44700
O 	O 	0.19000 0.75170 0.18090 -0.44400
N 	N 	0.56190 0.79120 0.04640 -0.28700
O 	O 	0.34190 0.31650 0.47950 -0.41200
O 	O 	0.29870 0.13780 0.58520 -0.43100
N 	N 	0.45840 0.80540 0.13740 -0.12100
C 	C 	0.50320 0.76140 0.00170 0.17200
C 	C 	0.27640 0.69880 0.84440 0.38400
C 	C 	0.24970 0.76310 0.23290 0.36900
C 	C 	0.53100 0.81770 0.13100 0.21600
N 	N 	0.50850 0.72950 0.90990 -0.32000
C 	C 	0.26940 0.67950 0.73090 -0.10300
C 	C 	0.23550 0.78230 0.34510 -0.09200
N 	N 	0.56680 0.85340 0.19960 -0.35200
H 	H 	0.46980 0.71210 0.88380 0.17900
H 	H 	0.55040 0.72680 0.87800 0.17900
C 	C 	0.20320 0.66340 0.69200 0.04300
C 	C 	0.33090 0.67490 0.66850 0.03700
C 	C 	0.29480 0.79870 0.41020 0.02600
C 	C 	0.16640 0.78240 0.38620 0.02900
H 	H 	0.54300 0.86980 0.25110 0.17900
H 	H 	0.61350 0.85990 0.19230 0.19200
H 	H 	0.16160 0.66420 0.73520 0.03800
C 	C 	0.19630 0.64580 0.58960 -0.08500
C 	C 	0.32580 0.65680 0.56500 -0.08300
H 	H 	0.37720 0.68430 0.69650 0.03700
H 	H 	0.34280 0.79660 0.38370 0.04300
C 	C 	0.28460 0.81740 0.51060 -0.08100
C 	C 	0.15620 0.80120 0.49020 -0.08100
H 	H 	0.12610 0.77010 0.34570 0.04300
H 	H 	0.14960 0.63640 0.56310 0.07400
C 	C 	0.25640 0.64160 0.52530 0.01300
H 	H 	0.36780 0.65470 0.52270 0.07400
H 	H 	0.32460 0.82970 0.55180 0.07000
C 	C 	0.21330 0.81780 0.55040 0.01300
H 	H 	0.10850 0.80220 0.51810 0.07300
S 	S 	0.24760 0.61212 0.39780 0.27000
S 	S 	0.19990 0.84617 0.68040 0.26500
O 	O 	0.17280 0.62370 0.36240 -0.22700
O 	O 	0.30910 0.63430 0.33690 -0.21000
C 	C 	0.25810 0.53190 0.41560 0.00300
O 	O 	0.12420 0.83240 0.71150 -0.21700
O 	O 	0.26020 0.82610 0.74490 -0.21100
C 	C 	0.20780 0.92640 0.66240 0.01000
C 	C 	0.19410 0.49820 0.43860 -0.07100
C 	C 	0.32660 0.50490 0.41310 -0.07000
C 	C 	0.27710 0.95520 0.67260 -0.08500
C 	C 	0.14950 0.96060 0.63540 -0.07600
H 	H 	0.14800 0.51720 0.44130 0.06600
C 	C 	0.20110 0.43440 0.45770 0.01800
C 	C 	0.33350 0.44270 0.43040 0.02200
H 	H 	0.36860 0.52860 0.39970 0.06900
H 	H 	0.31860 0.93250 0.69260 0.07400
C 	C 	0.28330 0.01590 0.65310 0.03900
C 	C 	0.15500 0.02400 0.61500 0.02400
H 	H 	0.10320 0.94180 0.62990 0.07100
H 	H 	0.15960 0.41040 0.47210 0.04300
C 	C 	0.27130 0.40850 0.45460 -0.08900
H 	H 	0.37970 0.42380 0.42580 0.04500
H 	H 	0.32950 0.03430 0.66060 0.03300
C 	C 	0.22530 0.05110 0.62330 -0.10300
H 	H 	0.11360 0.04710 0.59660 0.04300
C 	C 	0.27870 0.34130 0.48020 0.37800
C 	C 	0.23390 0.11790 0.59610 0.38700
Co	Co	0.66515 0.26371 0.53861 1.16600
Co	Co	0.82740 0.27312 0.53151 1.16200
N 	N 	0.55960 0.23350 0.55240 -0.22900
O 	O 	0.65970 0.29030 0.38330 -0.42300
O 	O 	0.68600 0.23880 0.69860 -0.38800
O 	O 	0.78030 0.68670 0.00460 -0.53000
O 	O 	0.82480 0.85170 0.08150 -0.45200
O 	O 	0.78280 0.29910 0.39600 -0.47100
O 	O 	0.81000 0.24830 0.68090 -0.43200
N 	N 	0.43810 0.20880 0.54640 -0.28400
O 	O 	0.65810 0.68350 0.97950 -0.40200
O 	O 	0.70130 0.86220 0.08520 -0.43900
N 	N 	0.54160 0.19460 0.63740 -0.11600
C 	C 	0.49680 0.23860 0.50170 0.21900
C 	C 	0.72360 0.30120 0.34440 0.37800
C 	C 	0.75030 0.23690 0.73290 0.35200
C 	C 	0.46900 0.18230 0.63100 0.22300
N 	N 	0.49150 0.27050 0.40990 -0.34900
C 	C 	0.73060 0.32050 0.23090 -0.08100
C 	C 	0.76450 0.21770 0.84510 -0.03400
N 	N 	0.43320 0.14660 0.69960 -0.35300
H 	H 	0.53020 0.28790 0.38380 0.17400
H 	H 	0.44960 0.27320 0.37800 0.17600
C 	C 	0.79680 0.33660 0.19200 0.00100
C 	C 	0.66910 0.32510 0.16850 -0.00200
C 	C 	0.70520 0.20130 0.91020 0.03700
C 	C 	0.83360 0.21760 0.88620 -0.09600
H 	H 	0.45700 0.13020 0.75110 0.18700
H 	H 	0.38650 0.14010 0.69230 0.19500
H 	H 	0.83840 0.33580 0.23520 0.04500
C 	C 	0.80370 0.35420 0.08960 -0.03900
C 	C 	0.67420 0.34320 0.06500 -0.04000
H 	H 	0.62280 0.31570 0.19650 0.04500
H 	H 	0.65720 0.20340 0.88370 0.05200
C 	C 	0.71540 0.18260 0.01060 -0.07000
C 	C 	0.84380 0.19880 0.99020 0.16900
H 	H 	0.87390 0.22990 0.84570 0.09600
H 	H 	0.85040 0.36360 0.06310 0.04100
C 	C 	0.74360 0.35840 0.02530 -0.06600
H 	H 	0.63220 0.34530 0.02270 0.04300
H 	H 	0.67540 0.17030 0.05180 0.05700
C 	C 	0.78670 0.18220 0.05040 -0.11800
H 	H 	0.89150 0.19780 0.01810 -0.04200
S 	S 	0.75240 0.38788 0.89780 0.32700
S 	S 	0.80010 0.15383 0.18040 0.30900
O 	O 	0.82720 0.37630 0.86240 -0.22800
O 	O 	0.69090 0.36570 0.83690 -0.21200
C 	C 	0.74190 0.46810 0.91560 0.00100
O 	O 	0.87580 0.16760 0.21150 -0.23000
O 	O 	0.73980 0.17390 0.24490 -0.22400
C 	C 	0.79220 0.07360 0.16240 -0.00900
C 	C 	0.80590 0.50180 0.93860 -0.06700
C 	C 	0.67340 0.49510 0.91310 -0.06600
C 	C 	0.72290 0.04480 0.17260 -0.07200
C 	C 	0.85050 0.03940 0.13540 -0.06600
H 	H 	0.85200 0.48280 0.94130 0.07500
C 	C 	0.79890 0.56560 0.95770 0.03000
C 	C 	0.66650 0.55730 0.93040 0.03200
H 	H 	0.63140 0.47140 0.89970 0.07700
H 	H 	0.68140 0.06750 0.19260 0.06600
C 	C 	0.71670 0.98410 0.15310 0.02700
C 	C 	0.84500 0.97600 0.11500 0.01200
H 	H 	0.89680 0.05820 0.12990 0.06000
H 	H 	0.84040 0.58960 0.97210 0.05400
C 	C 	0.72870 0.59150 0.95460 -0.09900
H 	H 	0.62030 0.57620 0.92580 0.04800
H 	H 	0.67050 0.96570 0.16060 0.03300
C 	C 	0.77470 0.94890 0.12330 -0.10000
H 	H 	0.88640 0.95290 0.09660 0.03800
C 	C 	0.72130 0.65870 0.98020 0.43800
C 	C 	0.76610 0.88210 0.09610 0.38300
Co	Co	0.83485 0.76371 0.03861 1.15600
Co	Co	0.67260 0.77312 0.03151 1.14600
N 	N 	0.94040 0.73350 0.05240 -0.22900
O 	O 	0.84030 0.79030 0.88330 -0.40100
O 	O 	0.81400 0.73880 0.19860 -0.39800
O 	O 	0.71970 0.18670 0.50460 -0.47200
O 	O 	0.67520 0.35170 0.58150 -0.44100
O 	O 	0.71720 0.79910 0.89600 -0.44700
O 	O 	0.69000 0.74830 0.18090 -0.44300
N 	N 	0.06190 0.70880 0.04640 -0.28600
O 	O 	0.84190 0.18350 0.47950 -0.41100
O 	O 	0.79870 0.36220 0.58520 -0.43000
N 	N 	0.95840 0.69460 0.13740 -0.12000
C 	C 	0.00320 0.73860 0.00170 0.17000
C 	C 	0.77640 0.80120 0.84440 0.38400
C 	C 	0.74970 0.73690 0.23290 0.36900
C 	C 	0.03100 0.68230 0.13100 0.21600
N 	N 	0.00850 0.77050 0.90990 -0.31800
C 	C 	0.76940 0.82050 0.73090 -0.10400
C 	C 	0.73550 0.71770 0.34510 -0.09200
N 	N 	0.06680 0.64660 0.19960 -0.35200
H 	H 	0.96980 0.78790 0.88380 0.17700
H 	H 	0.05040 0.77320 0.87800 0.17900
C 	C 	0.70320 0.83660 0.69200 0.04300
C 	C 	0.83090 0.82510 0.66850 0.03700
C 	C 	0.79480 0.70130 0.41020 0.02600
C 	C 	0.66640 0.71760 0.38620 0.02900
H 	H 	0.04300 0.63020 0.25110 0.17900
H 	H 	0.11350 0.64010 0.19230 0.19200
H 	H 	0.66160 0.83580 0.73520 0.03700
C 	C 	0.69630 0.85420 0.58960 -0.08500
C 	C 	0.82580 0.84320 0.56500 -0.08300
H 	H 	0.87720 0.81570 0.69650 0.03600
H 	H 	0.84280 0.70340 0.38370 0.04300
C 	C 	0.78460 0.68260 0.51060 -0.08100
C 	C 	0.65620 0.69880 0.49020 -0.08100
H 	H 	0.62610 0.72990 0.34570 0.04300
H 	H 	0.64960 0.86360 0.56310 0.07400
C 	C 	0.75640 0.85840 0.52530 0.01300
H 	H 	0.86780 0.84530 0.52270 0.07400
H 	H 	0.82460 0.67030 0.55180 0.07000
C 	C 	0.71330 0.68220 0.55040 0.01300
H 	H 	0.60850 0.69780 0.51810 0.07300
S 	S 	0.74760 0.88788 0.39780 0.27000
S 	S 	0.69990 0.65383 0.68040 0.26400
O 	O 	0.67280 0.87630 0.36240 -0.22700
O 	O 	0.80910 0.86570 0.33690 -0.21000
C 	C 	0.75810 0.96810 0.41560 0.00200
O 	O 	0.62420 0.66760 0.71150 -0.21700
O 	O 	0.76020 0.67390 0.74490 -0.21100
C 	C 	0.70780 0.57360 0.66240 0.01200
C 	C 	0.69410 0.00180 0.43860 -0.07000
C 	C 	0.82660 0.99510 0.41310 -0.07000
C 	C 	0.77710 0.54480 0.67260 -0.08800
C 	C 	0.64950 0.53940 0.63540 -0.08000
H 	H 	0.64800 0.98280 0.44130 0.06500
C 	C 	0.70110 0.06560 0.45770 0.01800
C 	C 	0.83350 0.05730 0.43040 0.02200
H 	H 	0.86860 0.97140 0.39970 0.06900
H 	H 	0.81860 0.56750 0.69260 0.07500
C 	C 	0.78330 0.48410 0.65310 0.04300
C 	C 	0.65500 0.47600 0.61500 0.02800
H 	H 	0.60320 0.55820 0.62990 0.07200
H 	H 	0.65960 0.08960 0.47210 0.04300
C 	C 	0.77130 0.09150 0.45460 -0.08900
H 	H 	0.87970 0.07620 0.42580 0.04500
H 	H 	0.82950 0.46570 0.66060 0.03200
C 	C 	0.72530 0.44890 0.62330 -0.10500
H 	H 	0.61360 0.45290 0.59660 0.04200
C 	C 	0.77870 0.15870 0.48020 0.37800
C 	C 	0.73390 0.38210 0.59610 0.38800
Co	Co	0.16515 0.23629 0.53861 1.16600
Co	Co	0.32740 0.22688 0.53151 1.16200
N 	N 	0.05960 0.26650 0.55240 -0.22900
O 	O 	0.15970 0.20970 0.38330 -0.42300
O 	O 	0.18600 0.26120 0.69860 -0.38800
O 	O 	0.28030 0.81330 0.00460 -0.53200
O 	O 	0.32480 0.64830 0.08150 -0.45300
O 	O 	0.28280 0.20090 0.39600 -0.47100
O 	O 	0.31000 0.25170 0.68090 -0.43100
N 	N 	0.93810 0.29120 0.54640 -0.28400
O 	O 	0.15810 0.81650 0.97950 -0.40200
O 	O 	0.20130 0.63780 0.08520 -0.43900
N 	N 	0.04160 0.30540 0.63740 -0.11500
C 	C 	0.99680 0.26140 0.50170 0.21800
C 	C 	0.22360 0.19880 0.34440 0.37800
C 	C 	0.25030 0.26310 0.73290 0.35100
C 	C 	0.96900 0.31770 0.63100 0.22200
N 	N 	0.99150 0.22950 0.40990 -0.34900
C 	C 	0.23060 0.17950 0.23090 -0.08000
C 	C 	0.26450 0.28230 0.84510 -0.03100
N 	N 	0.93320 0.35340 0.69960 -0.35300
H 	H 	0.03020 0.21210 0.38380 0.17400
H 	H 	0.94960 0.22680 0.37800 0.17600
C 	C 	0.29680 0.16340 0.19200 0.00000
C 	C 	0.16910 0.17490 0.16850 -0.00200
C 	C 	0.20520 0.29870 0.91020 0.03600
C 	C 	0.33360 0.28240 0.88620 -0.10300
H 	H 	0.95700 0.36980 0.75110 0.18700
H 	H 	0.88650 0.35990 0.69230 0.19500
H 	H 	0.33840 0.16420 0.23520 0.04500
C 	C 	0.30370 0.14580 0.08960 -0.03800
C 	C 	0.17420 0.15680 0.06500 -0.04000
H 	H 	0.12280 0.18430 0.19650 0.04500
H 	H 	0.15720 0.29660 0.88370 0.05200
C 	C 	0.21540 0.31740 0.01060 -0.06900
C 	C 	0.34380 0.30120 0.99020 0.18100
H 	H 	0.37390 0.27010 0.84570 0.09900
H 	H 	0.35040 0.13640 0.06310 0.04100
C 	C 	0.24360 0.14160 0.02530 -0.06700
H 	H 	0.13220 0.15470 0.02270 0.04300
H 	H 	0.17540 0.32970 0.05180 0.05600
C 	C 	0.28670 0.31780 0.05040 -0.12400
H 	H 	0.39150 0.30220 0.01810 -0.04700
S 	S 	0.25240 0.11212 0.89780 0.32800
S 	S 	0.30010 0.34617 0.18040 0.30900
O 	O 	0.32720 0.12370 0.86240 -0.22800
O 	O 	0.19090 0.13430 0.83690 -0.21200
C 	C 	0.24190 0.03190 0.91560 -0.00200
O 	O 	0.37580 0.33240 0.21150 -0.23100
O 	O 	0.23980 0.32610 0.24490 -0.22400
C 	C 	0.29220 0.42640 0.16240 -0.00600
C 	C 	0.30590 0.99820 0.93860 -0.06000
C 	C 	0.17340 0.00490 0.91310 -0.06700
C 	C 	0.22290 0.45520 0.17260 -0.07800
C 	C 	0.35050 0.46060 0.13540 -0.07100
H 	H 	0.35200 0.01720 0.94130 0.07100
C 	C 	0.29890 0.93440 0.95770 0.02800
C 	C 	0.16650 0.94270 0.93040 0.03400
H 	H 	0.13140 0.02860 0.89970 0.07700
H 	H 	0.18140 0.43250 0.19260 0.06700
C 	C 	0.21670 0.51590 0.15310 0.03300
C 	C 	0.34500 0.52400 0.11500 0.01800
H 	H 	0.39680 0.44180 0.12990 0.06200
H 	H 	0.34040 0.91040 0.97210 0.05600
C 	C 	0.22870 0.90850 0.95460 -0.09900
H 	H 	0.12030 0.92380 0.92580 0.04800
H 	H 	0.17050 0.53430 0.16060 0.03100
C 	C 	0.27470 0.55110 0.12330 -0.10400
H 	H 	0.38640 0.54710 0.09660 0.03600
C 	C 	0.22130 0.84130 0.98020 0.44000
C 	C 	0.26610 0.61790 0.09610 0.38500
