data_crystal

_cell_length_a 24.80300
_cell_length_b 24.80300
_cell_length_c 28.41200
_cell_angle_alpha 90.00000
_cell_angle_beta  90.00000
_cell_angle_gamma 90.00000

_symmetry_space_group_name_	'P 1'
_symmetry_space_group_name_H-M	'P 1'

loop_
_symmetry_equiv_pos_as_xyz
  x,y,z

loop_
_atom_site_label
_atom_site_type_symbol
_atom_site_fract_x
_atom_site_fract_y
_atom_site_fract_z
_atom_site_charge
S 	S 	0.99980 0.32390 0.08030 -0.45700
N 	N 	0.13970 0.33230 0.07840 -0.24600
N 	N 	0.92270 0.39130 0.17090 -0.24600
C 	C 	0.13420 0.31670 0.03380 0.06800
C 	C 	0.17810 0.31840 0.00430 -0.12600
C 	C 	0.22680 0.33400 0.01560 0.05900
C 	C 	0.23060 0.35170 0.06320 -0.14600
C 	C 	0.18780 0.34950 0.09060 0.09900
C 	C 	0.93350 0.44170 0.15640 0.08400
C 	C 	0.93670 0.48360 0.18440 -0.13200
C 	C 	0.92730 0.47700 0.23290 0.05800
C 	C 	0.91720 0.42420 0.24630 -0.13700
C 	C 	0.91360 0.38460 0.21520 0.09300
H 	H 	0.10030 0.30310 0.02380 -0.00900
H 	H 	0.17200 0.30760 0.97270 0.06900
H 	H 	0.26430 0.36470 0.07430 0.08500
H 	H 	0.19230 0.36030 0.12250 -0.01800
H 	H 	0.93860 0.44700 0.12360 -0.01000
H 	H 	0.94530 0.51840 0.17250 0.07800
H 	H 	0.91210 0.41680 0.27880 0.06800
H 	H 	0.90470 0.34940 0.22600 -0.01600
S 	S 	0.49980 0.82390 0.58030 -0.47300
N 	N 	0.63970 0.83230 0.57840 -0.24400
N 	N 	0.42270 0.89130 0.67090 -0.24600
C 	C 	0.63420 0.81670 0.53380 0.06800
C 	C 	0.67810 0.81840 0.50430 -0.12400
C 	C 	0.72680 0.83400 0.51560 0.06000
C 	C 	0.73060 0.85170 0.56320 -0.14600
C 	C 	0.68780 0.84950 0.59060 0.09900
C 	C 	0.43350 0.94170 0.65640 0.08300
C 	C 	0.43670 0.98360 0.68440 -0.13300
C 	C 	0.42730 0.97700 0.73290 0.05700
C 	C 	0.41720 0.92420 0.74630 -0.13800
C 	C 	0.41360 0.88460 0.71520 0.09200
H 	H 	0.60030 0.80310 0.52380 -0.00800
H 	H 	0.67200 0.80760 0.47270 0.06800
H 	H 	0.76430 0.86470 0.57430 0.08500
H 	H 	0.69230 0.86030 0.62250 -0.01800
H 	H 	0.43860 0.94700 0.62360 -0.01100
H 	H 	0.44530 0.01840 0.67250 0.07700
H 	H 	0.41210 0.91680 0.77880 0.06800
H 	H 	0.40470 0.84940 0.72600 -0.01600
S 	S 	0.50020 0.67610 0.58030 -0.47300
N 	N 	0.36030 0.66770 0.57840 -0.24400
N 	N 	0.57730 0.60870 0.67090 -0.24600
C 	C 	0.36580 0.68330 0.53380 0.06800
C 	C 	0.32190 0.68160 0.50430 -0.12400
C 	C 	0.27320 0.66600 0.51560 0.06000
C 	C 	0.26940 0.64830 0.56320 -0.14600
C 	C 	0.31220 0.65050 0.59060 0.09900
C 	C 	0.56650 0.55830 0.65640 0.08300
C 	C 	0.56330 0.51640 0.68440 -0.13300
C 	C 	0.57270 0.52300 0.73290 0.05700
C 	C 	0.58280 0.57580 0.74630 -0.13800
C 	C 	0.58640 0.61540 0.71520 0.09200
H 	H 	0.39970 0.69690 0.52380 -0.00800
H 	H 	0.32800 0.69240 0.47270 0.06800
H 	H 	0.23570 0.63530 0.57430 0.08500
H 	H 	0.30770 0.63970 0.62250 -0.01800
H 	H 	0.56140 0.55300 0.62360 -0.01100
H 	H 	0.55470 0.48160 0.67250 0.07700
H 	H 	0.58790 0.58320 0.77880 0.06800
H 	H 	0.59530 0.65060 0.72600 -0.01600
S 	S 	0.00020 0.17610 0.08030 -0.48100
N 	N 	0.86030 0.16770 0.07840 -0.24400
N 	N 	0.07730 0.10870 0.17090 -0.24600
C 	C 	0.86580 0.18330 0.03380 0.06800
C 	C 	0.82190 0.18160 0.00430 -0.12400
C 	C 	0.77320 0.16600 0.01560 0.06000
C 	C 	0.76940 0.14830 0.06320 -0.14500
C 	C 	0.81220 0.15050 0.09060 0.09900
C 	C 	0.06650 0.05830 0.15640 0.08200
C 	C 	0.06330 0.01640 0.18440 -0.13400
C 	C 	0.07270 0.02300 0.23290 0.05600
C 	C 	0.08280 0.07580 0.24630 -0.13800
C 	C 	0.08640 0.11540 0.21520 0.09100
H 	H 	0.89970 0.19690 0.02380 -0.00600
H 	H 	0.82800 0.19240 0.97270 0.06800
H 	H 	0.73570 0.13530 0.07430 0.08500
H 	H 	0.80770 0.13970 0.12250 -0.01800
H 	H 	0.06140 0.05300 0.12360 -0.01300
H 	H 	0.05470 0.98160 0.17250 0.07500
H 	H 	0.08790 0.08320 0.27880 0.06700
H 	H 	0.09530 0.15060 0.22600 -0.01600
S 	S 	0.92610 0.74980 0.33030 -0.46400
N 	N 	0.91770 0.88970 0.32840 -0.24300
N 	N 	0.85870 0.67270 0.42090 -0.24600
C 	C 	0.93330 0.88420 0.28380 0.07000
C 	C 	0.93160 0.92810 0.25430 -0.12400
C 	C 	0.91600 0.97680 0.26560 0.06100
C 	C 	0.89830 0.98060 0.31320 -0.14500
C 	C 	0.90050 0.93780 0.34060 0.10000
C 	C 	0.80830 0.68350 0.40640 0.08300
C 	C 	0.76640 0.68670 0.43440 -0.13300
C 	C 	0.77300 0.67730 0.48290 0.05700
C 	C 	0.82580 0.66720 0.49630 -0.13800
C 	C 	0.86540 0.66360 0.46520 0.09200
H 	H 	0.94690 0.85030 0.27380 -0.00500
H 	H 	0.94240 0.92200 0.22270 0.07100
H 	H 	0.88530 0.01430 0.32430 0.08500
H 	H 	0.88970 0.94230 0.37250 -0.01800
H 	H 	0.80300 0.68860 0.37360 -0.01100
H 	H 	0.73160 0.69530 0.42250 0.07700
H 	H 	0.83320 0.66210 0.52880 0.06800
H 	H 	0.90060 0.65470 0.47600 -0.01500
S 	S 	0.42610 0.24980 0.83030 -0.47300
N 	N 	0.41770 0.38970 0.82840 -0.24400
N 	N 	0.35870 0.17270 0.92090 -0.24600
C 	C 	0.43330 0.38420 0.78380 0.06800
C 	C 	0.43160 0.42810 0.75430 -0.12400
C 	C 	0.41600 0.47680 0.76560 0.06000
C 	C 	0.39830 0.48060 0.81320 -0.14600
C 	C 	0.40050 0.43780 0.84060 0.09900
C 	C 	0.30830 0.18350 0.90640 0.08300
C 	C 	0.26640 0.18670 0.93440 -0.13300
C 	C 	0.27300 0.17730 0.98290 0.05700
C 	C 	0.32580 0.16720 0.99630 -0.13800
C 	C 	0.36540 0.16360 0.96520 0.09200
H 	H 	0.44690 0.35030 0.77380 -0.00800
H 	H 	0.44240 0.42200 0.72270 0.06800
H 	H 	0.38530 0.51430 0.82430 0.08500
H 	H 	0.38970 0.44230 0.87250 -0.01800
H 	H 	0.30300 0.18860 0.87360 -0.01100
H 	H 	0.23160 0.19530 0.92250 0.07700
H 	H 	0.33320 0.16210 0.02880 0.06800
H 	H 	0.40060 0.15470 0.97600 -0.01600
S 	S 	0.57390 0.25020 0.83030 -0.47300
N 	N 	0.58230 0.11030 0.82840 -0.24400
N 	N 	0.64130 0.32730 0.92090 -0.24600
C 	C 	0.56670 0.11580 0.78380 0.06800
C 	C 	0.56840 0.07190 0.75430 -0.12400
C 	C 	0.58400 0.02320 0.76560 0.06000
C 	C 	0.60170 0.01940 0.81320 -0.14600
C 	C 	0.59950 0.06220 0.84060 0.09900
C 	C 	0.69170 0.31650 0.90640 0.08300
C 	C 	0.73360 0.31330 0.93440 -0.13300
C 	C 	0.72700 0.32270 0.98290 0.05700
C 	C 	0.67420 0.33280 0.99630 -0.13800
C 	C 	0.63460 0.33640 0.96520 0.09200
H 	H 	0.55310 0.14970 0.77380 -0.00800
H 	H 	0.55760 0.07800 0.72270 0.06800
H 	H 	0.61470 0.98570 0.82430 0.08500
H 	H 	0.61030 0.05770 0.87250 -0.01800
H 	H 	0.69700 0.31140 0.87360 -0.01100
H 	H 	0.76840 0.30470 0.92250 0.07700
H 	H 	0.66680 0.33790 0.02880 0.06800
H 	H 	0.59940 0.34530 0.97600 -0.01600
S 	S 	0.07390 0.75020 0.33030 -0.47300
N 	N 	0.08230 0.61030 0.32840 -0.24500
N 	N 	0.14130 0.82730 0.42090 -0.24600
C 	C 	0.06670 0.61580 0.28380 0.06700
C 	C 	0.06840 0.57190 0.25430 -0.12500
C 	C 	0.08400 0.52320 0.26560 0.05900
C 	C 	0.10170 0.51940 0.31320 -0.14600
C 	C 	0.09950 0.56220 0.34060 0.09800
C 	C 	0.19170 0.81650 0.40640 0.08300
C 	C 	0.23360 0.81330 0.43440 -0.13300
C 	C 	0.22700 0.82270 0.48290 0.05700
C 	C 	0.17420 0.83280 0.49630 -0.13800
C 	C 	0.13460 0.83640 0.46520 0.09200
H 	H 	0.05310 0.64970 0.27380 -0.01000
H 	H 	0.05760 0.57800 0.22270 0.06600
H 	H 	0.11470 0.48570 0.32430 0.08500
H 	H 	0.11030 0.55770 0.37250 -0.01900
H 	H 	0.19700 0.81140 0.37360 -0.01100
H 	H 	0.26840 0.80470 0.42250 0.07700
H 	H 	0.16680 0.83790 0.52880 0.06800
H 	H 	0.09940 0.84530 0.47600 -0.01600
S 	S 	0.50020 0.32390 0.91970 -0.47300
N 	N 	0.36030 0.33230 0.92160 -0.24400
N 	N 	0.57730 0.39130 0.82910 -0.24600
C 	C 	0.36580 0.31670 0.96620 0.06800
C 	C 	0.32190 0.31840 0.99570 -0.12400
C 	C 	0.27320 0.33400 0.98440 0.06000
C 	C 	0.26940 0.35170 0.93680 -0.14600
C 	C 	0.31220 0.34950 0.90940 0.09900
C 	C 	0.56650 0.44170 0.84360 0.08300
C 	C 	0.56330 0.48360 0.81560 -0.13300
C 	C 	0.57270 0.47700 0.76710 0.05700
C 	C 	0.58280 0.42420 0.75370 -0.13800
C 	C 	0.58640 0.38460 0.78480 0.09200
H 	H 	0.39970 0.30310 0.97620 -0.00800
H 	H 	0.32800 0.30760 0.02730 0.06800
H 	H 	0.23570 0.36470 0.92570 0.08500
H 	H 	0.30770 0.36030 0.87750 -0.01800
H 	H 	0.56140 0.44700 0.87640 -0.01100
H 	H 	0.55470 0.51840 0.82750 0.07700
H 	H 	0.58790 0.41680 0.72120 0.06800
H 	H 	0.59530 0.34940 0.77400 -0.01600
S 	S 	0.00020 0.82390 0.41970 -0.48100
N 	N 	0.86030 0.83230 0.42160 -0.24400
N 	N 	0.07730 0.89130 0.32910 -0.24600
C 	C 	0.86580 0.81670 0.46620 0.06800
C 	C 	0.82190 0.81840 0.49570 -0.12400
C 	C 	0.77320 0.83400 0.48440 0.06000
C 	C 	0.76940 0.85170 0.43680 -0.14500
C 	C 	0.81220 0.84950 0.40940 0.09900
C 	C 	0.06650 0.94170 0.34360 0.08200
C 	C 	0.06330 0.98360 0.31560 -0.13400
C 	C 	0.07270 0.97700 0.26710 0.05600
C 	C 	0.08280 0.92420 0.25370 -0.13800
C 	C 	0.08640 0.88460 0.28480 0.09100
H 	H 	0.89970 0.80310 0.47620 -0.00600
H 	H 	0.82800 0.80760 0.52730 0.06800
H 	H 	0.73570 0.86470 0.42570 0.08500
H 	H 	0.80770 0.86030 0.37750 -0.01800
H 	H 	0.06140 0.94700 0.37640 -0.01300
H 	H 	0.05470 0.01840 0.32750 0.07500
H 	H 	0.08790 0.91680 0.22120 0.06700
H 	H 	0.09530 0.84940 0.27400 -0.01600
S 	S 	0.99980 0.67610 0.41970 -0.45600
N 	N 	0.13970 0.66770 0.42160 -0.24500
N 	N 	0.92270 0.60870 0.32910 -0.24500
C 	C 	0.13420 0.68330 0.46620 0.06900
C 	C 	0.17810 0.68160 0.49570 -0.12500
C 	C 	0.22680 0.66600 0.48440 0.06100
C 	C 	0.23060 0.64830 0.43680 -0.14600
C 	C 	0.18780 0.65050 0.40940 0.09900
C 	C 	0.93350 0.55830 0.34360 0.08400
C 	C 	0.93670 0.51640 0.31560 -0.13200
C 	C 	0.92730 0.52300 0.26710 0.05800
C 	C 	0.91720 0.57580 0.25370 -0.13700
C 	C 	0.91360 0.61540 0.28480 0.09300
H 	H 	0.10030 0.69690 0.47620 -0.00900
H 	H 	0.17200 0.69240 0.52730 0.06800
H 	H 	0.26430 0.63530 0.42570 0.08500
H 	H 	0.19230 0.63970 0.37750 -0.01800
H 	H 	0.93860 0.55300 0.37640 -0.01000
H 	H 	0.94530 0.48160 0.32750 0.07800
H 	H 	0.91210 0.58320 0.22120 0.06800
H 	H 	0.90470 0.65060 0.27400 -0.01600
S 	S 	0.49980 0.17610 0.91970 -0.47300
N 	N 	0.63970 0.16770 0.92160 -0.24400
N 	N 	0.42270 0.10870 0.82910 -0.24600
C 	C 	0.63420 0.18330 0.96620 0.06800
C 	C 	0.67810 0.18160 0.99570 -0.12500
C 	C 	0.72680 0.16600 0.98440 0.06000
C 	C 	0.73060 0.14830 0.93680 -0.14600
C 	C 	0.68780 0.15050 0.90940 0.09900
C 	C 	0.43350 0.05830 0.84360 0.08300
C 	C 	0.43670 0.01640 0.81560 -0.13300
C 	C 	0.42730 0.02300 0.76710 0.05700
C 	C 	0.41720 0.07580 0.75370 -0.13800
C 	C 	0.41360 0.11540 0.78480 0.09200
H 	H 	0.60030 0.19690 0.97620 -0.00800
H 	H 	0.67200 0.19240 0.02730 0.06900
H 	H 	0.76430 0.13530 0.92570 0.08500
H 	H 	0.69230 0.13970 0.87750 -0.01800
H 	H 	0.43860 0.05300 0.87640 -0.01100
H 	H 	0.44530 0.98160 0.82750 0.07700
H 	H 	0.41210 0.08320 0.72120 0.06800
H 	H 	0.40470 0.15060 0.77400 -0.01600
S 	S 	0.57390 0.74980 0.66970 -0.47300
N 	N 	0.58230 0.88970 0.67160 -0.24400
N 	N 	0.64130 0.67270 0.57910 -0.24600
C 	C 	0.56670 0.88420 0.71620 0.06800
C 	C 	0.56840 0.92810 0.74570 -0.12400
C 	C 	0.58400 0.97680 0.73440 0.06000
C 	C 	0.60170 0.98060 0.68680 -0.14600
C 	C 	0.59950 0.93780 0.65940 0.09900
C 	C 	0.69170 0.68350 0.59360 0.08300
C 	C 	0.73360 0.68670 0.56560 -0.13300
C 	C 	0.72700 0.67730 0.51710 0.05700
C 	C 	0.67420 0.66720 0.50370 -0.13800
C 	C 	0.63460 0.66360 0.53480 0.09200
H 	H 	0.55310 0.85030 0.72620 -0.00800
H 	H 	0.55760 0.92200 0.77730 0.06800
H 	H 	0.61470 0.01430 0.67570 0.08500
H 	H 	0.61030 0.94230 0.62750 -0.01800
H 	H 	0.69700 0.68860 0.62640 -0.01100
H 	H 	0.76840 0.69530 0.57750 0.07700
H 	H 	0.66680 0.66210 0.47120 0.06800
H 	H 	0.59940 0.65470 0.52400 -0.01600
S 	S 	0.07390 0.24980 0.16970 -0.47300
N 	N 	0.08230 0.38970 0.17160 -0.24500
N 	N 	0.14130 0.17270 0.07910 -0.24600
C 	C 	0.06670 0.38420 0.21620 0.06700
C 	C 	0.06840 0.42810 0.24570 -0.12500
C 	C 	0.08400 0.47680 0.23440 0.05900
C 	C 	0.10170 0.48060 0.18680 -0.14600
C 	C 	0.09950 0.43780 0.15940 0.09800
C 	C 	0.19170 0.18350 0.09360 0.08300
C 	C 	0.23360 0.18670 0.06560 -0.13300
C 	C 	0.22700 0.17730 0.01710 0.05700
C 	C 	0.17420 0.16720 0.00370 -0.13800
C 	C 	0.13460 0.16360 0.03480 0.09200
H 	H 	0.05310 0.35030 0.22620 -0.01000
H 	H 	0.05760 0.42200 0.27730 0.06600
H 	H 	0.11470 0.51430 0.17570 0.08500
H 	H 	0.11030 0.44230 0.12750 -0.01900
H 	H 	0.19700 0.18860 0.12640 -0.01100
H 	H 	0.26840 0.19530 0.07750 0.07700
H 	H 	0.16680 0.16210 0.97120 0.06800
H 	H 	0.09940 0.15470 0.02400 -0.01600
S 	S 	0.92610 0.25020 0.16970 -0.46400
N 	N 	0.91770 0.11030 0.17160 -0.24300
N 	N 	0.85870 0.32730 0.07910 -0.24600
C 	C 	0.93330 0.11580 0.21620 0.07000
C 	C 	0.93160 0.07190 0.24570 -0.12400
C 	C 	0.91600 0.02320 0.23440 0.06100
C 	C 	0.89830 0.01940 0.18680 -0.14500
C 	C 	0.90050 0.06220 0.15940 0.10000
C 	C 	0.80830 0.31650 0.09360 0.08300
C 	C 	0.76640 0.31330 0.06560 -0.13300
C 	C 	0.77300 0.32270 0.01710 0.05700
C 	C 	0.82580 0.33280 0.00370 -0.13800
C 	C 	0.86540 0.33640 0.03480 0.09200
H 	H 	0.94690 0.14970 0.22620 -0.00500
H 	H 	0.94240 0.07800 0.27730 0.07100
H 	H 	0.88530 0.98570 0.17570 0.08500
H 	H 	0.88970 0.05770 0.12750 -0.01800
H 	H 	0.80300 0.31140 0.12640 -0.01100
H 	H 	0.73160 0.30470 0.07750 0.07700
H 	H 	0.83320 0.33790 0.97120 0.06800
H 	H 	0.90060 0.34530 0.02400 -0.01600
S 	S 	0.42610 0.75020 0.66970 -0.47300
N 	N 	0.41770 0.61030 0.67160 -0.24400
N 	N 	0.35870 0.82730 0.57910 -0.24600
C 	C 	0.43330 0.61580 0.71620 0.06800
C 	C 	0.43160 0.57190 0.74570 -0.12400
C 	C 	0.41600 0.52320 0.73440 0.06000
C 	C 	0.39830 0.51940 0.68680 -0.14600
C 	C 	0.40050 0.56220 0.65940 0.09900
C 	C 	0.30830 0.81650 0.59360 0.08300
C 	C 	0.26640 0.81330 0.56560 -0.13300
C 	C 	0.27300 0.82270 0.51710 0.05700
C 	C 	0.32580 0.83280 0.50370 -0.13800
C 	C 	0.36540 0.83640 0.53480 0.09200
H 	H 	0.44690 0.64970 0.72620 -0.00800
H 	H 	0.44240 0.57800 0.77730 0.06800
H 	H 	0.38530 0.48570 0.67570 0.08500
H 	H 	0.38970 0.55770 0.62750 -0.01800
H 	H 	0.30300 0.81140 0.62640 -0.01100
H 	H 	0.23160 0.80470 0.57750 0.07700
H 	H 	0.33320 0.83790 0.47120 0.06800
H 	H 	0.40060 0.84530 0.52400 -0.01600
W 	W 	0.00000 0.25000 0.12500 0.24700
W 	W 	0.50000 0.75000 0.62500 0.26500
W 	W 	0.00000 0.75000 0.37500 0.24600
W 	W 	0.50000 0.25000 0.87500 0.26500
Cu	Cu	0.07677 0.32677 0.12500 0.83300
Cu	Cu	0.57677 0.82677 0.62500 0.83500
Cu	Cu	0.42323 0.67323 0.62500 0.83500
Cu	Cu	0.92323 0.82677 0.37500 0.83800
Cu	Cu	0.57677 0.17323 0.87500 0.83500
Cu	Cu	0.42323 0.32677 0.87500 0.83500
Cu	Cu	0.07677 0.67323 0.37500 0.83300
Cu	Cu	0.92323 0.17323 0.12500 0.83800
Cu	Cu	0.92322 0.32678 0.12500 0.83500
Cu	Cu	0.42322 0.82678 0.62500 0.83500
Cu	Cu	0.57678 0.67322 0.62500 0.83400
Cu	Cu	0.07678 0.17322 0.12500 0.83500
Cu	Cu	0.92322 0.67322 0.37500 0.83500
Cu	Cu	0.42322 0.17322 0.87500 0.83500
Cu	Cu	0.57678 0.32678 0.87500 0.83400
Cu	Cu	0.07678 0.82678 0.37500 0.83500
S 	S 	0.00020 0.67610 0.91970 -0.48100
N 	N 	0.86030 0.66770 0.92160 -0.24400
N 	N 	0.07730 0.60870 0.82910 -0.24600
C 	C 	0.86580 0.68330 0.96620 0.06800
C 	C 	0.82190 0.68160 0.99570 -0.12400
C 	C 	0.77320 0.66600 0.98440 0.06000
C 	C 	0.76940 0.64830 0.93680 -0.14500
C 	C 	0.81220 0.65050 0.90940 0.09900
C 	C 	0.06650 0.55830 0.84360 0.08200
C 	C 	0.06330 0.51640 0.81560 -0.13400
C 	C 	0.07270 0.52300 0.76710 0.05600
C 	C 	0.08280 0.57580 0.75370 -0.13800
C 	C 	0.08640 0.61540 0.78480 0.09100
H 	H 	0.89970 0.69690 0.97620 -0.00600
H 	H 	0.82800 0.69240 0.02730 0.06800
H 	H 	0.73570 0.63530 0.92570 0.08500
H 	H 	0.80770 0.63970 0.87750 -0.01800
H 	H 	0.06140 0.55300 0.87640 -0.01300
H 	H 	0.05470 0.48160 0.82750 0.07500
H 	H 	0.08790 0.58320 0.72120 0.06700
H 	H 	0.09530 0.65060 0.77400 -0.01600
S 	S 	0.50020 0.17610 0.41970 -0.47300
N 	N 	0.36030 0.16770 0.42160 -0.24400
N 	N 	0.57730 0.10870 0.32910 -0.24600
C 	C 	0.36580 0.18330 0.46620 0.06800
C 	C 	0.32190 0.18160 0.49570 -0.12400
C 	C 	0.27320 0.16600 0.48440 0.06000
C 	C 	0.26940 0.14830 0.43680 -0.14600
C 	C 	0.31220 0.15050 0.40940 0.09900
C 	C 	0.56650 0.05830 0.34360 0.08300
C 	C 	0.56330 0.01640 0.31560 -0.13300
C 	C 	0.57270 0.02300 0.26710 0.05700
C 	C 	0.58280 0.07580 0.25370 -0.13800
C 	C 	0.58640 0.11540 0.28480 0.09200
H 	H 	0.39970 0.19690 0.47620 -0.00800
H 	H 	0.32800 0.19240 0.52730 0.06800
H 	H 	0.23570 0.13530 0.42570 0.08500
H 	H 	0.30770 0.13970 0.37750 -0.01800
H 	H 	0.56140 0.05300 0.37640 -0.01100
H 	H 	0.55470 0.98160 0.32750 0.07700
H 	H 	0.58790 0.08320 0.22120 0.06800
H 	H 	0.59530 0.15060 0.27400 -0.01600
S 	S 	0.49980 0.32390 0.41970 -0.47300
N 	N 	0.63970 0.33230 0.42160 -0.24400
N 	N 	0.42270 0.39130 0.32910 -0.24600
C 	C 	0.63420 0.31670 0.46620 0.06800
C 	C 	0.67810 0.31840 0.49570 -0.12400
C 	C 	0.72680 0.33400 0.48440 0.06000
C 	C 	0.73060 0.35170 0.43680 -0.14600
C 	C 	0.68780 0.34950 0.40940 0.09900
C 	C 	0.43350 0.44170 0.34360 0.08300
C 	C 	0.43670 0.48360 0.31560 -0.13300
C 	C 	0.42730 0.47700 0.26710 0.05700
C 	C 	0.41720 0.42420 0.25370 -0.13800
C 	C 	0.41360 0.38460 0.28480 0.09200
H 	H 	0.60030 0.30310 0.47620 -0.00800
H 	H 	0.67200 0.30760 0.52730 0.06800
H 	H 	0.76430 0.36470 0.42570 0.08500
H 	H 	0.69230 0.36030 0.37750 -0.01800
H 	H 	0.43860 0.44700 0.37640 -0.01100
H 	H 	0.44530 0.51840 0.32750 0.07700
H 	H 	0.41210 0.41680 0.22120 0.06800
H 	H 	0.40470 0.34940 0.27400 -0.01600
S 	S 	0.99980 0.82390 0.91970 -0.45700
N 	N 	0.13970 0.83230 0.92160 -0.24500
N 	N 	0.92270 0.89130 0.82910 -0.24500
C 	C 	0.13420 0.81670 0.96620 0.06900
C 	C 	0.17810 0.81840 0.99570 -0.12500
C 	C 	0.22680 0.83400 0.98440 0.06000
C 	C 	0.23060 0.85170 0.93680 -0.14600
C 	C 	0.18780 0.84950 0.90940 0.09900
C 	C 	0.93350 0.94170 0.84360 0.08400
C 	C 	0.93670 0.98360 0.81560 -0.13200
C 	C 	0.92730 0.97700 0.76710 0.05800
C 	C 	0.91720 0.92420 0.75370 -0.13700
C 	C 	0.91360 0.88460 0.78480 0.09300
H 	H 	0.10030 0.80310 0.97620 -0.00900
H 	H 	0.17200 0.80760 0.02730 0.06900
H 	H 	0.26430 0.86470 0.92570 0.08500
H 	H 	0.19230 0.86030 0.87750 -0.01800
H 	H 	0.93860 0.94700 0.87640 -0.01000
H 	H 	0.94530 0.01840 0.82750 0.07800
H 	H 	0.91210 0.91680 0.72120 0.06800
H 	H 	0.90470 0.84940 0.77400 -0.01600
S 	S 	0.07390 0.25020 0.66970 -0.47300
N 	N 	0.08230 0.11030 0.67160 -0.24500
N 	N 	0.14130 0.32730 0.57910 -0.24600
C 	C 	0.06670 0.11580 0.71620 0.06700
C 	C 	0.06840 0.07190 0.74570 -0.12500
C 	C 	0.08400 0.02320 0.73440 0.05900
C 	C 	0.10170 0.01940 0.68680 -0.14600
C 	C 	0.09950 0.06220 0.65940 0.09800
C 	C 	0.19170 0.31650 0.59360 0.08300
C 	C 	0.23360 0.31330 0.56560 -0.13300
C 	C 	0.22700 0.32270 0.51710 0.05700
C 	C 	0.17420 0.33280 0.50370 -0.13800
C 	C 	0.13460 0.33640 0.53480 0.09200
H 	H 	0.05310 0.14970 0.72620 -0.01000
H 	H 	0.05760 0.07800 0.77730 0.06600
H 	H 	0.11470 0.98570 0.67570 0.08500
H 	H 	0.11030 0.05770 0.62750 -0.01900
H 	H 	0.19700 0.31140 0.62640 -0.01100
H 	H 	0.26840 0.30470 0.57750 0.07700
H 	H 	0.16680 0.33790 0.47120 0.06800
H 	H 	0.09940 0.34530 0.52400 -0.01600
S 	S 	0.57390 0.75020 0.16970 -0.47300
N 	N 	0.58230 0.61030 0.17160 -0.24400
N 	N 	0.64130 0.82730 0.07910 -0.24600
C 	C 	0.56670 0.61580 0.21620 0.06800
C 	C 	0.56840 0.57190 0.24570 -0.12400
C 	C 	0.58400 0.52320 0.23440 0.06000
C 	C 	0.60170 0.51940 0.18680 -0.14600
C 	C 	0.59950 0.56220 0.15940 0.09900
C 	C 	0.69170 0.81650 0.09360 0.08300
C 	C 	0.73360 0.81330 0.06560 -0.13300
C 	C 	0.72700 0.82270 0.01710 0.05700
C 	C 	0.67420 0.83280 0.00370 -0.13800
C 	C 	0.63460 0.83640 0.03480 0.09200
H 	H 	0.55310 0.64970 0.22620 -0.00800
H 	H 	0.55760 0.57800 0.27730 0.06800
H 	H 	0.61470 0.48570 0.17570 0.08500
H 	H 	0.61030 0.55770 0.12750 -0.01800
H 	H 	0.69700 0.81140 0.12640 -0.01100
H 	H 	0.76840 0.80470 0.07750 0.07700
H 	H 	0.66680 0.83790 0.97120 0.06800
H 	H 	0.59940 0.84530 0.02400 -0.01600
S 	S 	0.42610 0.74980 0.16970 -0.47300
N 	N 	0.41770 0.88970 0.17160 -0.24400
N 	N 	0.35870 0.67270 0.07910 -0.24600
C 	C 	0.43330 0.88420 0.21620 0.06800
C 	C 	0.43160 0.92810 0.24570 -0.12400
C 	C 	0.41600 0.97680 0.23440 0.06000
C 	C 	0.39830 0.98060 0.18680 -0.14600
C 	C 	0.40050 0.93780 0.15940 0.09900
C 	C 	0.30830 0.68350 0.09360 0.08300
C 	C 	0.26640 0.68670 0.06560 -0.13300
C 	C 	0.27300 0.67730 0.01710 0.05700
C 	C 	0.32580 0.66720 0.00370 -0.13800
C 	C 	0.36540 0.66360 0.03480 0.09200
H 	H 	0.44690 0.85030 0.22620 -0.00800
H 	H 	0.44240 0.92200 0.27730 0.06800
H 	H 	0.38530 0.01430 0.17570 0.08500
H 	H 	0.38970 0.94230 0.12750 -0.01800
H 	H 	0.30300 0.68860 0.12640 -0.01100
H 	H 	0.23160 0.69530 0.07750 0.07700
H 	H 	0.33320 0.66210 0.97120 0.06800
H 	H 	0.40060 0.65470 0.02400 -0.01600
S 	S 	0.92610 0.24980 0.66970 -0.46400
N 	N 	0.91770 0.38970 0.67160 -0.24300
N 	N 	0.85870 0.17270 0.57910 -0.24600
C 	C 	0.93330 0.38420 0.71620 0.07000
C 	C 	0.93160 0.42810 0.74570 -0.12400
C 	C 	0.91600 0.47680 0.73440 0.06100
C 	C 	0.89830 0.48060 0.68680 -0.14500
C 	C 	0.90050 0.43780 0.65940 0.10000
C 	C 	0.80830 0.18350 0.59360 0.08300
C 	C 	0.76640 0.18670 0.56560 -0.13300
C 	C 	0.77300 0.17730 0.51710 0.05700
C 	C 	0.82580 0.16720 0.50370 -0.13800
C 	C 	0.86540 0.16360 0.53480 0.09200
H 	H 	0.94690 0.35030 0.72620 -0.00500
H 	H 	0.94240 0.42200 0.77730 0.07100
H 	H 	0.88530 0.51430 0.67570 0.08500
H 	H 	0.88970 0.44230 0.62750 -0.01800
H 	H 	0.80300 0.18860 0.62640 -0.01100
H 	H 	0.73160 0.19530 0.57750 0.07700
H 	H 	0.83320 0.16210 0.47120 0.06800
H 	H 	0.90060 0.15470 0.52400 -0.01500
S 	S 	0.49980 0.67610 0.08030 -0.47300
N 	N 	0.63970 0.66770 0.07840 -0.24400
N 	N 	0.42270 0.60870 0.17090 -0.24600
C 	C 	0.63420 0.68330 0.03380 0.06800
C 	C 	0.67810 0.68160 0.00430 -0.12500
C 	C 	0.72680 0.66600 0.01560 0.06000
C 	C 	0.73060 0.64830 0.06320 -0.14600
C 	C 	0.68780 0.65050 0.09060 0.09900
C 	C 	0.43350 0.55830 0.15640 0.08300
C 	C 	0.43670 0.51640 0.18440 -0.13300
C 	C 	0.42730 0.52300 0.23290 0.05700
C 	C 	0.41720 0.57580 0.24630 -0.13800
C 	C 	0.41360 0.61540 0.21520 0.09200
H 	H 	0.60030 0.69690 0.02380 -0.00800
H 	H 	0.67200 0.69240 0.97270 0.06900
H 	H 	0.76430 0.63530 0.07430 0.08500
H 	H 	0.69230 0.63970 0.12250 -0.01800
H 	H 	0.43860 0.55300 0.12360 -0.01100
H 	H 	0.44530 0.48160 0.17250 0.07700
H 	H 	0.41210 0.58320 0.27880 0.06800
H 	H 	0.40470 0.65060 0.22600 -0.01600
S 	S 	0.99980 0.17610 0.58030 -0.45600
N 	N 	0.13970 0.16770 0.57840 -0.24500
N 	N 	0.92270 0.10870 0.67090 -0.24500
C 	C 	0.13420 0.18330 0.53380 0.06900
C 	C 	0.17810 0.18160 0.50430 -0.12500
C 	C 	0.22680 0.16600 0.51560 0.06000
C 	C 	0.23060 0.14830 0.56320 -0.14600
C 	C 	0.18780 0.15050 0.59060 0.09900
C 	C 	0.93350 0.05830 0.65640 0.08400
C 	C 	0.93670 0.01640 0.68440 -0.13200
C 	C 	0.92730 0.02300 0.73290 0.05800
C 	C 	0.91720 0.07580 0.74630 -0.13700
C 	C 	0.91360 0.11540 0.71520 0.09300
H 	H 	0.10030 0.19690 0.52380 -0.00900
H 	H 	0.17200 0.19240 0.47270 0.06800
H 	H 	0.26430 0.13530 0.57430 0.08500
H 	H 	0.19230 0.13970 0.62250 -0.01800
H 	H 	0.93860 0.05300 0.62360 -0.01000
H 	H 	0.94530 0.98160 0.67250 0.07800
H 	H 	0.91210 0.08320 0.77880 0.06800
H 	H 	0.90470 0.15060 0.72600 -0.01600
S 	S 	0.00020 0.32390 0.58030 -0.48100
N 	N 	0.86030 0.33230 0.57840 -0.24400
N 	N 	0.07730 0.39130 0.67090 -0.24600
C 	C 	0.86580 0.31670 0.53380 0.06800
C 	C 	0.82190 0.31840 0.50430 -0.12400
C 	C 	0.77320 0.33400 0.51560 0.06000
C 	C 	0.76940 0.35170 0.56320 -0.14500
C 	C 	0.81220 0.34950 0.59060 0.09900
C 	C 	0.06650 0.44170 0.65640 0.08200
C 	C 	0.06330 0.48360 0.68440 -0.13400
C 	C 	0.07270 0.47700 0.73290 0.05600
C 	C 	0.08280 0.42420 0.74630 -0.13800
C 	C 	0.08640 0.38460 0.71520 0.09100
H 	H 	0.89970 0.30310 0.52380 -0.00600
H 	H 	0.82800 0.30760 0.47270 0.06800
H 	H 	0.73570 0.36470 0.57430 0.08500
H 	H 	0.80770 0.36030 0.62250 -0.01800
H 	H 	0.06140 0.44700 0.62360 -0.01300
H 	H 	0.05470 0.51840 0.67250 0.07500
H 	H 	0.08790 0.41680 0.77880 0.06700
H 	H 	0.09530 0.34940 0.72600 -0.01600
S 	S 	0.50020 0.82390 0.08030 -0.47300
N 	N 	0.36030 0.83230 0.07840 -0.24400
N 	N 	0.57730 0.89130 0.17090 -0.24600
C 	C 	0.36580 0.81670 0.03380 0.06800
C 	C 	0.32190 0.81840 0.00430 -0.12400
C 	C 	0.27320 0.83400 0.01560 0.06000
C 	C 	0.26940 0.85170 0.06320 -0.14600
C 	C 	0.31220 0.84950 0.09060 0.09900
C 	C 	0.56650 0.94170 0.15640 0.08300
C 	C 	0.56330 0.98360 0.18440 -0.13300
C 	C 	0.57270 0.97700 0.23290 0.05700
C 	C 	0.58280 0.92420 0.24630 -0.13800
C 	C 	0.58640 0.88460 0.21520 0.09200
H 	H 	0.39970 0.80310 0.02380 -0.00800
H 	H 	0.32800 0.80760 0.97270 0.06800
H 	H 	0.23570 0.86470 0.07430 0.08500
H 	H 	0.30770 0.86030 0.12250 -0.01800
H 	H 	0.56140 0.94700 0.12360 -0.01100
H 	H 	0.55470 0.01840 0.17250 0.07700
H 	H 	0.58790 0.91680 0.27880 0.06800
H 	H 	0.59530 0.84940 0.22600 -0.01600
S 	S 	0.42610 0.25020 0.33030 -0.47300
N 	N 	0.41770 0.11030 0.32840 -0.24400
N 	N 	0.35870 0.32730 0.42090 -0.24600
C 	C 	0.43330 0.11580 0.28380 0.06800
C 	C 	0.43160 0.07190 0.25430 -0.12400
C 	C 	0.41600 0.02320 0.26560 0.06000
C 	C 	0.39830 0.01940 0.31320 -0.14600
C 	C 	0.40050 0.06220 0.34060 0.09900
C 	C 	0.30830 0.31650 0.40640 0.08300
C 	C 	0.26640 0.31330 0.43440 -0.13300
C 	C 	0.27300 0.32270 0.48290 0.05700
C 	C 	0.32580 0.33280 0.49630 -0.13800
C 	C 	0.36540 0.33640 0.46520 0.09200
H 	H 	0.44690 0.14970 0.27380 -0.00800
H 	H 	0.44240 0.07800 0.22270 0.06800
H 	H 	0.38530 0.98570 0.32430 0.08500
H 	H 	0.38970 0.05770 0.37250 -0.01800
H 	H 	0.30300 0.31140 0.37360 -0.01100
H 	H 	0.23160 0.30470 0.42250 0.07700
H 	H 	0.33320 0.33790 0.52880 0.06800
H 	H 	0.40060 0.34530 0.47600 -0.01600
S 	S 	0.92610 0.75020 0.83030 -0.46400
N 	N 	0.91770 0.61030 0.82840 -0.24300
N 	N 	0.85870 0.82730 0.92090 -0.24600
C 	C 	0.93330 0.61580 0.78380 0.07000
C 	C 	0.93160 0.57190 0.75430 -0.12400
C 	C 	0.91600 0.52320 0.76560 0.06100
C 	C 	0.89830 0.51940 0.81320 -0.14500
C 	C 	0.90050 0.56220 0.84060 0.10000
C 	C 	0.80830 0.81650 0.90640 0.08300
C 	C 	0.76640 0.81330 0.93440 -0.13300
C 	C 	0.77300 0.82270 0.98290 0.05700
C 	C 	0.82580 0.83280 0.99630 -0.13800
C 	C 	0.86540 0.83640 0.96520 0.09200
H 	H 	0.94690 0.64970 0.77380 -0.00500
H 	H 	0.94240 0.57800 0.72270 0.07100
H 	H 	0.88530 0.48570 0.82430 0.08500
H 	H 	0.88970 0.55770 0.87250 -0.01800
H 	H 	0.80300 0.81140 0.87360 -0.01100
H 	H 	0.73160 0.80470 0.92250 0.07700
H 	H 	0.83320 0.83790 0.02880 0.06800
H 	H 	0.90060 0.84530 0.97600 -0.01600
S 	S 	0.07390 0.74980 0.83030 -0.47300
N 	N 	0.08230 0.88970 0.82840 -0.24500
N 	N 	0.14130 0.67270 0.92090 -0.24600
C 	C 	0.06670 0.88420 0.78380 0.06700
C 	C 	0.06840 0.92810 0.75430 -0.12500
C 	C 	0.08400 0.97680 0.76560 0.05900
C 	C 	0.10170 0.98060 0.81320 -0.14600
C 	C 	0.09950 0.93780 0.84060 0.09800
C 	C 	0.19170 0.68350 0.90640 0.08300
C 	C 	0.23360 0.68670 0.93440 -0.13300
C 	C 	0.22700 0.67730 0.98290 0.05700
C 	C 	0.17420 0.66720 0.99630 -0.13800
C 	C 	0.13460 0.66360 0.96520 0.09200
H 	H 	0.05310 0.85030 0.77380 -0.01000
H 	H 	0.05760 0.92200 0.72270 0.06600
H 	H 	0.11470 0.01430 0.82430 0.08500
H 	H 	0.11030 0.94230 0.87250 -0.01900
H 	H 	0.19700 0.68860 0.87360 -0.01100
H 	H 	0.26840 0.69530 0.92250 0.07700
H 	H 	0.16680 0.66210 0.02880 0.06800
H 	H 	0.09940 0.65470 0.97600 -0.01600
S 	S 	0.57390 0.24980 0.33030 -0.47300
N 	N 	0.58230 0.38970 0.32840 -0.24400
N 	N 	0.64130 0.17270 0.42090 -0.24600
C 	C 	0.56670 0.38420 0.28380 0.06800
C 	C 	0.56840 0.42810 0.25430 -0.12400
C 	C 	0.58400 0.47680 0.26560 0.06000
C 	C 	0.60170 0.48060 0.31320 -0.14600
C 	C 	0.59950 0.43780 0.34060 0.09900
C 	C 	0.69170 0.18350 0.40640 0.08300
C 	C 	0.73360 0.18670 0.43440 -0.13300
C 	C 	0.72700 0.17730 0.48290 0.05700
C 	C 	0.67420 0.16720 0.49630 -0.13800
C 	C 	0.63460 0.16360 0.46520 0.09200
H 	H 	0.55310 0.35030 0.27380 -0.00800
H 	H 	0.55760 0.42200 0.22270 0.06800
H 	H 	0.61470 0.51430 0.32430 0.08500
H 	H 	0.61030 0.44230 0.37250 -0.01800
H 	H 	0.69700 0.18860 0.37360 -0.01100
H 	H 	0.76840 0.19530 0.42250 0.07700
H 	H 	0.66680 0.16210 0.52880 0.06800
H 	H 	0.59940 0.15470 0.47600 -0.01600
W 	W 	0.00000 0.75000 0.87500 0.24700
W 	W 	0.50000 0.25000 0.37500 0.26500
W 	W 	0.00000 0.25000 0.62500 0.24600
W 	W 	0.50000 0.75000 0.12500 0.26500
Cu	Cu	0.92323 0.67323 0.87500 0.83800
Cu	Cu	0.42323 0.17323 0.37500 0.83500
Cu	Cu	0.57677 0.32677 0.37500 0.83500
Cu	Cu	0.07677 0.82677 0.87500 0.83300
Cu	Cu	0.07677 0.17323 0.62500 0.83300
Cu	Cu	0.42323 0.82677 0.12500 0.83500
Cu	Cu	0.57677 0.67323 0.12500 0.83500
Cu	Cu	0.92323 0.32677 0.62500 0.83800
Cu	Cu	0.07678 0.67322 0.87500 0.83500
Cu	Cu	0.57678 0.17322 0.37500 0.83400
Cu	Cu	0.42322 0.32678 0.37500 0.83500
Cu	Cu	0.92322 0.82678 0.87500 0.83500
Cu	Cu	0.07678 0.32678 0.62500 0.83500
Cu	Cu	0.57678 0.82678 0.12500 0.83400
Cu	Cu	0.42322 0.67322 0.12500 0.83500
Cu	Cu	0.92322 0.17322 0.62500 0.83500
I 	I 	0.33892 0.13411 0.15176 -0.31000
Cu	Cu	0.42986 0.16700 0.11801 0.82700
S 	S 	0.42690 0.24890 0.07910 -0.46900
N 	N 	0.45170 0.10540 0.07180 -0.21900
C 	C 	0.48620 0.11590 0.03660 0.01000
C 	C 	0.50530 0.07400 0.00860 -0.01500
C 	C 	0.49100 0.02140 0.01450 0.01100
C 	C 	0.47300 0.00900 0.06600 -0.01400
C 	C 	0.45700 0.05700 0.09100 -0.01700
C 	C 	0.43600 0.02000 0.03200 -0.02000
C 	C 	0.42500 0.06000 0.06600 0.04900
I 	I 	0.83892 0.63411 0.65176 -0.30900
Cu	Cu	0.92986 0.66700 0.61801 0.83000
S 	S 	0.92690 0.74890 0.57910 -0.46000
N 	N 	0.95170 0.60540 0.57180 -0.22300
C 	C 	0.98620 0.61590 0.53660 0.03100
C 	C 	0.00530 0.57400 0.50860 -0.05000
C 	C 	0.99100 0.52140 0.51450 0.05200
C 	C 	0.97300 0.50900 0.56600 -0.01700
C 	C 	0.95700 0.55700 0.59100 -0.01300
C 	C 	0.93600 0.52000 0.53200 -0.02800
C 	C 	0.92500 0.56000 0.56600 0.05200
I 	I 	0.16108 0.86589 0.65176 -0.31100
Cu	Cu	0.07014 0.83300 0.61801 0.82500
S 	S 	0.07310 0.75110 0.57910 -0.46900
N 	N 	0.04830 0.89460 0.57180 -0.21600
C 	C 	0.01380 0.88410 0.53660 -0.01100
C 	C 	0.99470 0.92600 0.50860 0.01900
C 	C 	0.00900 0.97860 0.51450 -0.02900
C 	C 	0.02700 0.99100 0.56600 -0.01200
C 	C 	0.04300 0.94300 0.59100 -0.02200
C 	C 	0.06400 0.98000 0.53200 -0.01200
C 	C 	0.07500 0.94000 0.56600 0.04700
I 	I 	0.66108 0.36589 0.15176 -0.31000
Cu	Cu	0.57014 0.33300 0.11801 0.82700
S 	S 	0.57310 0.25110 0.07910 -0.46900
N 	N 	0.54830 0.39460 0.07180 -0.21900
C 	C 	0.51380 0.38410 0.03660 0.01000
C 	C 	0.49470 0.42600 0.00860 -0.01500
C 	C 	0.50900 0.47860 0.01450 0.01100
C 	C 	0.52700 0.49100 0.06600 -0.01400
C 	C 	0.54300 0.44300 0.09100 -0.01700
C 	C 	0.56400 0.48000 0.03200 -0.02000
C 	C 	0.57500 0.44000 0.06600 0.05000
I 	I 	0.11589 0.08892 0.40176 -0.31300
Cu	Cu	0.08300 0.17986 0.36801 0.82700
S 	S 	0.00110 0.17690 0.32910 -0.47700
N 	N 	0.14460 0.20170 0.32180 -0.21900
C 	C 	0.13410 0.23620 0.28660 0.00900
C 	C 	0.17600 0.25530 0.25860 -0.01500
C 	C 	0.22860 0.24100 0.26450 0.01100
C 	C 	0.24100 0.22300 0.31600 -0.01400
C 	C 	0.19300 0.20700 0.34100 -0.01800
C 	C 	0.23000 0.18600 0.28200 -0.02000
C 	C 	0.19000 0.17500 0.31600 0.05000
I 	I 	0.61589 0.58892 0.90176 -0.31000
Cu	Cu	0.58300 0.67986 0.86801 0.82700
S 	S 	0.50110 0.67690 0.82910 -0.46900
N 	N 	0.64460 0.70170 0.82180 -0.21900
C 	C 	0.63410 0.73620 0.78660 0.01000
C 	C 	0.67600 0.75530 0.75860 -0.01500
C 	C 	0.72860 0.74100 0.76450 0.01100
C 	C 	0.74100 0.72300 0.81600 -0.01400
C 	C 	0.69300 0.70700 0.84100 -0.01700
C 	C 	0.73000 0.68600 0.78200 -0.02000
C 	C 	0.69000 0.67500 0.81600 0.05000
I 	I 	0.38411 0.91108 0.90176 -0.31000
Cu	Cu	0.41700 0.82014 0.86801 0.82700
S 	S 	0.49890 0.82310 0.82910 -0.46900
N 	N 	0.35540 0.79830 0.82180 -0.21900
C 	C 	0.36590 0.76380 0.78660 0.01000
C 	C 	0.32400 0.74470 0.75860 -0.01500
C 	C 	0.27140 0.75900 0.76450 0.01100
C 	C 	0.25900 0.77700 0.81600 -0.01400
C 	C 	0.30700 0.79300 0.84100 -0.01700
C 	C 	0.27000 0.81400 0.78200 -0.02000
C 	C 	0.31000 0.82500 0.81600 0.05000
I 	I 	0.88411 0.41108 0.40176 -0.30700
Cu	Cu	0.91700 0.32014 0.36801 0.82800
S 	S 	0.99890 0.32310 0.32910 -0.45200
N 	N 	0.85540 0.29830 0.32180 -0.22000
C 	C 	0.86590 0.26380 0.28660 0.01100
C 	C 	0.82400 0.24470 0.25860 -0.01500
C 	C 	0.77140 0.25900 0.26450 0.01200
C 	C 	0.75900 0.27700 0.31600 -0.01400
C 	C 	0.80700 0.29300 0.34100 -0.01800
C 	C 	0.77000 0.31400 0.28200 -0.02000
C 	C 	0.81000 0.32500 0.31600 0.04900
I 	I 	0.66108 0.86589 0.84824 -0.31000
Cu	Cu	0.57014 0.83300 0.88199 0.82700
S 	S 	0.57310 0.75110 0.92090 -0.46900
N 	N 	0.54830 0.89460 0.92820 -0.21900
C 	C 	0.51380 0.88410 0.96340 0.01000
C 	C 	0.49470 0.92600 0.99140 -0.01500
C 	C 	0.50900 0.97860 0.98550 0.01100
C 	C 	0.52700 0.99100 0.93400 -0.01400
C 	C 	0.54300 0.94300 0.90900 -0.01700
C 	C 	0.56400 0.98000 0.96800 -0.02000
C 	C 	0.57500 0.94000 0.93400 0.04900
I 	I 	0.16108 0.36589 0.34824 -0.31100
Cu	Cu	0.07014 0.33300 0.38199 0.82500
S 	S 	0.07310 0.25110 0.42090 -0.46900
N 	N 	0.04830 0.39460 0.42820 -0.21600
C 	C 	0.01380 0.38410 0.46340 -0.01100
C 	C 	0.99470 0.42600 0.49140 0.01900
C 	C 	0.00900 0.47860 0.48550 -0.02900
C 	C 	0.02700 0.49100 0.43400 -0.01200
C 	C 	0.04300 0.44300 0.40900 -0.02200
C 	C 	0.06400 0.48000 0.46800 -0.01200
C 	C 	0.07500 0.44000 0.43400 0.04700
I 	I 	0.83892 0.13411 0.34824 -0.30900
Cu	Cu	0.92986 0.16700 0.38199 0.83000
S 	S 	0.92690 0.24890 0.42090 -0.46000
N 	N 	0.95170 0.10540 0.42820 -0.22300
C 	C 	0.98620 0.11590 0.46340 0.03100
C 	C 	0.00530 0.07400 0.49140 -0.05000
C 	C 	0.99100 0.02140 0.48550 0.05100
C 	C 	0.97300 0.00900 0.43400 -0.01700
C 	C 	0.95700 0.05700 0.40900 -0.01300
C 	C 	0.93600 0.02000 0.46800 -0.02800
C 	C 	0.92500 0.06000 0.43400 0.05200
I 	I 	0.33892 0.63411 0.84824 -0.31000
Cu	Cu	0.42986 0.66700 0.88199 0.82700
S 	S 	0.42690 0.74890 0.92090 -0.46900
N 	N 	0.45170 0.60540 0.92820 -0.21900
C 	C 	0.48620 0.61590 0.96340 0.01000
C 	C 	0.50530 0.57400 0.99140 -0.01500
C 	C 	0.49100 0.52140 0.98550 0.01100
C 	C 	0.47300 0.50900 0.93400 -0.01400
C 	C 	0.45700 0.55700 0.90900 -0.01700
C 	C 	0.43600 0.52000 0.96800 -0.02000
C 	C 	0.42500 0.56000 0.93400 0.05000
I 	I 	0.88411 0.91108 0.59824 -0.30700
Cu	Cu	0.91700 0.82014 0.63199 0.82800
S 	S 	0.99890 0.82310 0.67090 -0.45200
N 	N 	0.85540 0.79830 0.67820 -0.22000
C 	C 	0.86590 0.76380 0.71340 0.01100
C 	C 	0.82400 0.74470 0.74140 -0.01500
C 	C 	0.77140 0.75900 0.73550 0.01200
C 	C 	0.75900 0.77700 0.68400 -0.01400
C 	C 	0.80700 0.79300 0.65900 -0.01700
C 	C 	0.77000 0.81400 0.71800 -0.02000
C 	C 	0.81000 0.82500 0.68400 0.04900
I 	I 	0.38411 0.41108 0.09824 -0.31000
Cu	Cu	0.41700 0.32014 0.13199 0.82700
S 	S 	0.49890 0.32310 0.17090 -0.46900
N 	N 	0.35540 0.29830 0.17820 -0.21900
C 	C 	0.36590 0.26380 0.21340 0.01000
C 	C 	0.32400 0.24470 0.24140 -0.01500
C 	C 	0.27140 0.25900 0.23550 0.01100
C 	C 	0.25900 0.27700 0.18400 -0.01400
C 	C 	0.30700 0.29300 0.15900 -0.01700
C 	C 	0.27000 0.31400 0.21800 -0.02000
C 	C 	0.31000 0.32500 0.18400 0.05000
I 	I 	0.61589 0.08892 0.09824 -0.31000
Cu	Cu	0.58300 0.17986 0.13199 0.82700
S 	S 	0.50110 0.17690 0.17090 -0.46900
N 	N 	0.64460 0.20170 0.17820 -0.21900
C 	C 	0.63410 0.23620 0.21340 0.01000
C 	C 	0.67600 0.25530 0.24140 -0.01500
C 	C 	0.72860 0.24100 0.23550 0.01100
C 	C 	0.74100 0.22300 0.18400 -0.01400
C 	C 	0.69300 0.20700 0.15900 -0.01700
C 	C 	0.73000 0.18600 0.21800 -0.02000
C 	C 	0.69000 0.17500 0.18400 0.04900
I 	I 	0.11589 0.58892 0.59824 -0.31300
Cu	Cu	0.08300 0.67986 0.63199 0.82700
S 	S 	0.00110 0.67690 0.67090 -0.47700
N 	N 	0.14460 0.70170 0.67820 -0.21900
C 	C 	0.13410 0.73620 0.71340 0.00900
C 	C 	0.17600 0.75530 0.74140 -0.01500
C 	C 	0.22860 0.74100 0.73550 0.01100
C 	C 	0.24100 0.72300 0.68400 -0.01400
C 	C 	0.19300 0.70700 0.65900 -0.01800
C 	C 	0.23000 0.68600 0.71800 -0.02000
C 	C 	0.19000 0.67500 0.68400 0.05000
W 	W 	0.50000 0.25000 0.12500 0.26200
W 	W 	0.00000 0.75000 0.62500 0.24300
W 	W 	0.00000 0.25000 0.37500 0.24300
W 	W 	0.50000 0.75000 0.87500 0.26200
I 	I 	0.16108 0.13411 0.84824 -0.31100
Cu	Cu	0.07014 0.16700 0.88199 0.82500
S 	S 	0.07310 0.24890 0.92090 -0.46900
N 	N 	0.04830 0.10540 0.92820 -0.21600
C 	C 	0.01380 0.11590 0.96340 -0.01100
C 	C 	0.99470 0.07400 0.99140 0.01800
C 	C 	0.00900 0.02140 0.98550 -0.02800
C 	C 	0.02700 0.00900 0.93400 -0.01200
C 	C 	0.04300 0.05700 0.90900 -0.02200
C 	C 	0.06400 0.02000 0.96800 -0.01200
C 	C 	0.07500 0.06000 0.93400 0.04700
I 	I 	0.66108 0.63411 0.34824 -0.31000
Cu	Cu	0.57014 0.66700 0.38199 0.82700
S 	S 	0.57310 0.74890 0.42090 -0.46900
N 	N 	0.54830 0.60540 0.42820 -0.21900
C 	C 	0.51380 0.61590 0.46340 0.01000
C 	C 	0.49470 0.57400 0.49140 -0.01500
C 	C 	0.50900 0.52140 0.48550 0.01100
C 	C 	0.52700 0.50900 0.43400 -0.01400
C 	C 	0.54300 0.55700 0.40900 -0.01700
C 	C 	0.56400 0.52000 0.46800 -0.02000
C 	C 	0.57500 0.56000 0.43400 0.05000
I 	I 	0.33892 0.86589 0.34824 -0.31000
Cu	Cu	0.42986 0.83300 0.38199 0.82700
S 	S 	0.42690 0.75110 0.42090 -0.46900
N 	N 	0.45170 0.89460 0.42820 -0.21900
C 	C 	0.48620 0.88410 0.46340 0.01000
C 	C 	0.50530 0.92600 0.49140 -0.01500
C 	C 	0.49100 0.97860 0.48550 0.01100
C 	C 	0.47300 0.99100 0.43400 -0.01400
C 	C 	0.45700 0.94300 0.40900 -0.01700
C 	C 	0.43600 0.98000 0.46800 -0.02000
C 	C 	0.42500 0.94000 0.43400 0.05000
I 	I 	0.83892 0.36589 0.84824 -0.30900
Cu	Cu	0.92986 0.33300 0.88199 0.83000
S 	S 	0.92690 0.25110 0.92090 -0.46000
N 	N 	0.95170 0.39460 0.92820 -0.22300
C 	C 	0.98620 0.38410 0.96340 0.03100
C 	C 	0.00530 0.42600 0.99140 -0.05000
C 	C 	0.99100 0.47860 0.98550 0.05100
C 	C 	0.97300 0.49100 0.93400 -0.01600
C 	C 	0.95700 0.44300 0.90900 -0.01300
C 	C 	0.93600 0.48000 0.96800 -0.02800
C 	C 	0.92500 0.44000 0.93400 0.05200
I 	I 	0.38411 0.08892 0.59824 -0.31000
Cu	Cu	0.41700 0.17986 0.63199 0.82700
S 	S 	0.49890 0.17690 0.67090 -0.46900
N 	N 	0.35540 0.20170 0.67820 -0.21900
C 	C 	0.36590 0.23620 0.71340 0.01000
C 	C 	0.32400 0.25530 0.74140 -0.01500
C 	C 	0.27140 0.24100 0.73550 0.01100
C 	C 	0.25900 0.22300 0.68400 -0.01400
C 	C 	0.30700 0.20700 0.65900 -0.01700
C 	C 	0.27000 0.18600 0.71800 -0.02000
C 	C 	0.31000 0.17500 0.68400 0.05000
I 	I 	0.88411 0.58892 0.09824 -0.30700
Cu	Cu	0.91700 0.67986 0.13199 0.82800
S 	S 	0.99890 0.67690 0.17090 -0.45200
N 	N 	0.85540 0.70170 0.17820 -0.22000
C 	C 	0.86590 0.73620 0.21340 0.01100
C 	C 	0.82400 0.75530 0.24140 -0.01500
C 	C 	0.77140 0.74100 0.23550 0.01200
C 	C 	0.75900 0.72300 0.18400 -0.01400
C 	C 	0.80700 0.70700 0.15900 -0.01800
C 	C 	0.77000 0.68600 0.21800 -0.02000
C 	C 	0.81000 0.67500 0.18400 0.04900
I 	I 	0.11589 0.91108 0.09824 -0.31300
Cu	Cu	0.08300 0.82014 0.13199 0.82700
S 	S 	0.00110 0.82310 0.17090 -0.47700
N 	N 	0.14460 0.79830 0.17820 -0.21900
C 	C 	0.13410 0.76380 0.21340 0.00900
C 	C 	0.17600 0.74470 0.24140 -0.01500
C 	C 	0.22860 0.75900 0.23550 0.01100
C 	C 	0.24100 0.77700 0.18400 -0.01400
C 	C 	0.19300 0.79300 0.15900 -0.01800
C 	C 	0.23000 0.81400 0.21800 -0.02000
C 	C 	0.19000 0.82500 0.18400 0.05000
I 	I 	0.61589 0.41108 0.59824 -0.31000
Cu	Cu	0.58300 0.32014 0.63199 0.82700
S 	S 	0.50110 0.32310 0.67090 -0.46900
N 	N 	0.64460 0.29830 0.67820 -0.21900
C 	C 	0.63410 0.26380 0.71340 0.01000
C 	C 	0.67600 0.24470 0.74140 -0.01500
C 	C 	0.72860 0.25900 0.73550 0.01100
C 	C 	0.74100 0.27700 0.68400 -0.01400
C 	C 	0.69300 0.29300 0.65900 -0.01700
C 	C 	0.73000 0.31400 0.71800 -0.02000
C 	C 	0.69000 0.32500 0.68400 0.05000
I 	I 	0.83892 0.86589 0.15176 -0.30900
Cu	Cu	0.92986 0.83300 0.11801 0.83000
S 	S 	0.92690 0.75110 0.07910 -0.46000
N 	N 	0.95170 0.89460 0.07180 -0.22300
C 	C 	0.98620 0.88410 0.03660 0.03000
C 	C 	0.00530 0.92600 0.00860 -0.04900
C 	C 	0.99100 0.97860 0.01450 0.05100
C 	C 	0.97300 0.99100 0.06600 -0.01700
C 	C 	0.95700 0.94300 0.09100 -0.01300
C 	C 	0.93600 0.98000 0.03200 -0.02800
C 	C 	0.92500 0.94000 0.06600 0.05200
I 	I 	0.33892 0.36589 0.65176 -0.31000
Cu	Cu	0.42986 0.33300 0.61801 0.82700
S 	S 	0.42690 0.25110 0.57910 -0.46900
N 	N 	0.45170 0.39460 0.57180 -0.21900
C 	C 	0.48620 0.38410 0.53660 0.01000
C 	C 	0.50530 0.42600 0.50860 -0.01500
C 	C 	0.49100 0.47860 0.51450 0.01100
C 	C 	0.47300 0.49100 0.56600 -0.01400
C 	C 	0.45700 0.44300 0.59100 -0.01700
C 	C 	0.43600 0.48000 0.53200 -0.02000
C 	C 	0.42500 0.44000 0.56600 0.05000
I 	I 	0.66108 0.13411 0.65176 -0.31000
Cu	Cu	0.57014 0.16700 0.61801 0.82700
S 	S 	0.57310 0.24890 0.57910 -0.46900
N 	N 	0.54830 0.10540 0.57180 -0.21900
C 	C 	0.51380 0.11590 0.53660 0.01000
C 	C 	0.49470 0.07400 0.50860 -0.01500
C 	C 	0.50900 0.02140 0.51450 0.01100
C 	C 	0.52700 0.00900 0.56600 -0.01400
C 	C 	0.54300 0.05700 0.59100 -0.01700
C 	C 	0.56400 0.02000 0.53200 -0.02000
C 	C 	0.57500 0.06000 0.56600 0.05000
I 	I 	0.16108 0.63411 0.15176 -0.31100
Cu	Cu	0.07014 0.66700 0.11801 0.82500
S 	S 	0.07310 0.74890 0.07910 -0.46900
N 	N 	0.04830 0.60540 0.07180 -0.21600
C 	C 	0.01380 0.61590 0.03660 -0.01100
C 	C 	0.99470 0.57400 0.00860 0.01900
C 	C 	0.00900 0.52140 0.01450 -0.02900
C 	C 	0.02700 0.50900 0.06600 -0.01200
C 	C 	0.04300 0.55700 0.09100 -0.02200
C 	C 	0.06400 0.52000 0.03200 -0.01200
C 	C 	0.07500 0.56000 0.06600 0.04700
I 	I 	0.61589 0.91108 0.40176 -0.31000
Cu	Cu	0.58300 0.82014 0.36801 0.82700
S 	S 	0.50110 0.82310 0.32910 -0.46900
N 	N 	0.64460 0.79830 0.32180 -0.21900
C 	C 	0.63410 0.76380 0.28660 0.01000
C 	C 	0.67600 0.74470 0.25860 -0.01500
C 	C 	0.72860 0.75900 0.26450 0.01100
C 	C 	0.74100 0.77700 0.31600 -0.01400
C 	C 	0.69300 0.79300 0.34100 -0.01700
C 	C 	0.73000 0.81400 0.28200 -0.02000
C 	C 	0.69000 0.82500 0.31600 0.04900
I 	I 	0.11589 0.41108 0.90176 -0.31300
Cu	Cu	0.08300 0.32014 0.86801 0.82700
S 	S 	0.00110 0.32310 0.82910 -0.47700
N 	N 	0.14460 0.29830 0.82180 -0.21900
C 	C 	0.13410 0.26380 0.78660 0.00900
C 	C 	0.17600 0.24470 0.75860 -0.01500
C 	C 	0.22860 0.25900 0.76450 0.01100
C 	C 	0.24100 0.27700 0.81600 -0.01400
C 	C 	0.19300 0.29300 0.84100 -0.01800
C 	C 	0.23000 0.31400 0.78200 -0.02000
C 	C 	0.19000 0.32500 0.81600 0.05000
I 	I 	0.88411 0.08892 0.90176 -0.30700
Cu	Cu	0.91700 0.17986 0.86801 0.82800
S 	S 	0.99890 0.17690 0.82910 -0.45200
N 	N 	0.85540 0.20170 0.82180 -0.22000
C 	C 	0.86590 0.23620 0.78660 0.01100
C 	C 	0.82400 0.25530 0.75860 -0.01500
C 	C 	0.77140 0.24100 0.76450 0.01200
C 	C 	0.75900 0.22300 0.81600 -0.01400
C 	C 	0.80700 0.20700 0.84100 -0.01700
C 	C 	0.77000 0.18600 0.78200 -0.02000
C 	C 	0.81000 0.17500 0.81600 0.04900
I 	I 	0.38411 0.58892 0.40176 -0.31000
Cu	Cu	0.41700 0.67986 0.36801 0.82700
S 	S 	0.49890 0.67690 0.32910 -0.46900
N 	N 	0.35540 0.70170 0.32180 -0.21900
C 	C 	0.36590 0.73620 0.28660 0.01000
C 	C 	0.32400 0.75530 0.25860 -0.01500
C 	C 	0.27140 0.74100 0.26450 0.01100
C 	C 	0.25900 0.72300 0.31600 -0.01400
C 	C 	0.30700 0.70700 0.34100 -0.01700
C 	C 	0.27000 0.68600 0.28200 -0.02000
C 	C 	0.31000 0.67500 0.31600 0.05000
W 	W 	0.00000 0.25000 0.87500 0.24300
W 	W 	0.50000 0.75000 0.37500 0.26200
W 	W 	0.50000 0.25000 0.62500 0.26200
W 	W 	0.00000 0.75000 0.12500 0.24300
