data_crystal

_cell_length_a 25.99700
_cell_length_b 25.99700
_cell_length_c 26.78470
_cell_angle_alpha 90.00000
_cell_angle_beta  90.00000
_cell_angle_gamma 90.00000

_symmetry_space_group_name_	'P 1'
_symmetry_space_group_name_H-M	'P 1'

loop_
_symmetry_equiv_pos_as_xyz
  x,y,z

loop_
_atom_site_label
_atom_site_type_symbol
_atom_site_fract_x
_atom_site_fract_y
_atom_site_fract_z
_atom_site_charge
La	La	0.75106 0.74073 0.08273 1.70000
O 	O 	0.78940 0.30780 0.19040 -0.26100
O 	O 	0.71800 0.16870 0.20270 -0.25900
O 	O 	0.82800 0.20340 0.19880 -0.26500
O 	O 	0.68540 0.27620 0.20350 -0.26400
O 	O 	0.82780 0.77920 0.04550 -0.27000
O 	O 	0.77940 0.80650 0.14060 -0.26900
O 	O 	0.68880 0.71270 0.01890 -0.26200
O 	O 	0.79230 0.67190 0.02760 -0.25200
O 	O 	0.32600 0.23010 0.12830 -0.26400
O 	O 	0.72090 0.81440 0.03560 -0.26800
O 	O 	0.18400 0.29680 0.14110 -0.26300
O 	O 	0.70790 0.66120 0.11830 -0.25700
N 	N 	0.77480 0.35669 0.18792 -0.07100
C 	C 	0.73835 0.36752 0.15478 0.05200
H 	H 	0.72140 0.34030 0.13770 0.03700
C 	C 	0.72481 0.41777 0.14499 -0.10500
H 	H 	0.69870 0.42480 0.12110 0.06900
C 	C 	0.74838 0.45780 0.16915 0.04500
C 	C 	0.78610 0.44488 0.20310 -0.10300
H 	H 	0.80370 0.47140 0.22050 0.06600
C 	C 	0.79890 0.39429 0.21233 0.04900
H 	H 	0.82480 0.38630 0.23610 0.02800
N 	N 	0.72520 0.11740 0.19890 -0.06900
C 	C 	0.69340 0.08205 0.21730 0.04800
H 	H 	0.66650 0.09190 0.23930 0.02600
C 	C 	0.69960 0.03100 0.20430 -0.10300
H 	H 	0.67460 0.00660 0.21470 0.06300
C 	C 	0.74130 0.01480 0.17680 0.04100
C 	C 	0.77460 0.05275 0.16180 -0.10100
H 	H 	0.80660 0.04340 0.14720 0.06300
C 	C 	0.76280 0.10436 0.16730 0.04500
H 	H 	0.78110 0.12990 0.14920 0.03400
N 	N 	0.87551 0.21417 0.18930 -0.06100
C 	C 	0.88693 0.25480 0.16100 0.03500
H 	H 	0.86030 0.27620 0.14820 0.04100
C 	C 	0.93783 0.26560 0.15030 -0.09500
H 	H 	0.94580 0.29030 0.12530 0.06300
C 	C 	0.97730 0.24110 0.17510 0.03800
C 	C 	0.96385 0.20000 0.20470 -0.09900
H 	H 	0.98980 0.18090 0.22140 0.06200
C 	C 	0.91278 0.18630 0.21010 0.04500
H 	H 	0.90410 0.15660 0.22900 0.02800
N 	N 	0.63540 0.26680 0.18850 -0.07100
C 	C 	0.60156 0.30040 0.20680 0.05400
H 	H 	0.61270 0.32810 0.22730 0.02800
C 	C 	0.54993 0.29440 0.19560 -0.10700
H 	H 	0.52540 0.31690 0.21030 0.06400
C 	C 	0.53350 0.25660 0.16350 0.04200
C 	C 	0.56997 0.22260 0.14730 -0.10200
H 	H 	0.55950 0.19330 0.12870 0.06400
C 	C 	0.62140 0.22980 0.15710 0.04400
H 	H 	0.64660 0.20870 0.14160 0.03400
N 	N 	0.87538 0.77150 0.02760 -0.06500
C 	C 	0.88939 0.73220 0.99880 0.03300
H 	H 	0.86510 0.70680 0.98900 0.03900
C 	C 	0.94026 0.72920 0.98330 -0.09700
H 	H 	0.94900 0.70760 0.95600 0.06400
C 	C 	0.97830 0.75690 0.00710 0.03900
C 	C 	0.96187 0.79450 0.03980 -0.10400
H 	H 	0.98640 0.81700 0.05450 0.06400
C 	C 	0.91044 0.80010 0.05130 0.05100
H 	H 	0.90000 0.82410 0.07610 0.02800
N 	N 	0.76718 0.85670 0.14980 -0.06900
C 	C 	0.80120 0.89079 0.13280 0.05100
H 	H 	0.83150 0.87920 0.11630 0.02800
C 	C 	0.79280 0.94290 0.13900 -0.10300
H 	H 	0.81550 0.96670 0.12350 0.06300
C 	C 	0.75240 0.96100 0.16720 0.03800
C 	C 	0.71610 0.92443 0.17960 -0.09700
H 	H 	0.68290 0.93510 0.19010 0.06200
C 	C 	0.72720 0.87250 0.17700 0.04100
H 	H 	0.70650 0.84830 0.19450 0.03600
N 	N 	0.63860 0.72487 0.01040 -0.07100
C 	C 	0.62572 0.76630 0.98390 0.04400
H 	H 	0.65150 0.78770 0.96980 0.03800
C 	C 	0.57409 0.77770 0.97710 -0.10100
H 	H 	0.56470 0.80510 0.95550 0.06500
C 	C 	0.53620 0.75020 0.00090 0.04300
C 	C 	0.55203 0.71000 0.03040 -0.10300
H 	H 	0.52760 0.69230 0.05050 0.06500
C 	C 	0.60307 0.69500 0.03150 0.04900
H 	H 	0.61270 0.66360 0.04700 0.02700
N 	N 	0.78080 0.62130 0.02410 -0.07300
C 	C 	0.74140 0.60770 0.99520 0.04300
H 	H 	0.72100 0.63340 0.97960 0.03800
C 	C 	0.73000 0.55635 0.98770 -0.09700
H 	H 	0.69980 0.54720 0.96980 0.06300
C 	C 	0.48200 0.76190 0.99420 0.03800
C 	C 	0.46550 0.80290 0.96590 -0.10000
H 	H 	0.48990 0.82770 0.95500 0.06200
C 	C 	0.80900 0.58560 0.04690 0.04800
H 	H 	0.83310 0.59520 0.07190 0.02500
N 	N 	0.37730 0.23504 0.13050 -0.06600
C 	C 	0.39043 0.27670 0.15630 0.04700
H 	H 	0.36510 0.30040 0.16730 0.03300
C 	C 	0.44181 0.28460 0.16650 -0.10200
H 	H 	0.45190 0.31590 0.18200 0.06300
C 	C 	0.47900 0.24890 0.15510 0.03900
C 	C 	0.46260 0.20680 0.12900 -0.10200
H 	H 	0.48730 0.18340 0.11590 0.06200
C 	C 	0.41090 0.19730 0.12140 0.04700
H 	H 	0.39940 0.16470 0.10980 0.02700
N 	N 	0.73101 0.86440 0.02710 -0.06500
C 	C 	0.77610 0.87764 0.00680 0.03800
H 	H 	0.80180 0.85250 0.00040 0.03800
C 	C 	0.78450 0.92878 0.99530 -0.09700
H 	H 	0.81480 0.93810 0.97760 0.06300
C 	C 	0.03320 0.75010 0.99110 0.04000
C 	C 	0.04950 0.70380 0.97200 -0.10400
H 	H 	0.02490 0.67790 0.96450 0.06300
C 	C 	0.69430 0.89890 0.03650 0.05000
H 	H 	0.66190 0.88810 0.04900 0.02700
N 	N 	0.13330 0.28160 0.14870 -0.07600
C 	C 	0.12208 0.24480 0.18170 0.04700
H 	H 	0.14890 0.22740 0.19880 0.03700
C 	C 	0.07148 0.23190 0.19080 -0.10300
H 	H 	0.06390 0.20560 0.21430 0.06600
C 	C 	0.03180 0.25640 0.16640 0.04400
C 	C 	0.04527 0.29500 0.13370 -0.10400
H 	H 	0.01910 0.31500 0.11820 0.06400
C 	C 	0.09630 0.30500 0.12290 0.05100
H 	H 	0.10500 0.32860 0.09710 0.02500
N 	N 	0.71761 0.61480 0.13260 -0.06200
C 	C 	0.75930 0.60310 0.15930 0.03100
H 	H 	0.78470 0.62860 0.16570 0.03800
C 	C 	0.76570 0.55400 0.17760 -0.09500
H 	H 	0.79020 0.54790 0.20320 0.06200
C 	C 	0.73700 0.51370 0.15960 0.03800
C 	C 	0.69420 0.52743 0.13240 -0.10300
H 	H 	0.67100 0.50150 0.12180 0.06300
C 	C 	0.68440 0.57800 0.12020 0.04900
H 	H 	0.65370 0.58660 0.10290 0.02600
La	La	0.24894 0.25927 0.08273 1.69900
O 	O 	0.21060 0.69220 0.19040 -0.26200
O 	O 	0.28200 0.83130 0.20270 -0.26000
O 	O 	0.17200 0.79660 0.19880 -0.26600
O 	O 	0.31460 0.72380 0.20350 -0.26500
O 	O 	0.17220 0.22080 0.04550 -0.27100
O 	O 	0.22060 0.19350 0.14060 -0.27000
O 	O 	0.31120 0.28730 0.01890 -0.26300
O 	O 	0.20770 0.32810 0.02760 -0.25300
O 	O 	0.67400 0.76990 0.12830 -0.26500
O 	O 	0.27910 0.18560 0.03560 -0.26900
O 	O 	0.81600 0.70320 0.14110 -0.26400
O 	O 	0.29210 0.33880 0.11830 -0.25800
N 	N 	0.22520 0.64331 0.18792 -0.07200
C 	C 	0.26165 0.63248 0.15478 0.05100
H 	H 	0.27860 0.65970 0.13770 0.03600
C 	C 	0.27519 0.58223 0.14499 -0.10600
H 	H 	0.30130 0.57520 0.12110 0.06800
C 	C 	0.25162 0.54220 0.16915 0.04400
C 	C 	0.21390 0.55512 0.20310 -0.10400
H 	H 	0.19630 0.52860 0.22050 0.06500
C 	C 	0.20110 0.60571 0.21233 0.04800
H 	H 	0.17520 0.61370 0.23610 0.02700
N 	N 	0.27480 0.88260 0.19890 -0.07000
C 	C 	0.30660 0.91795 0.21730 0.04800
H 	H 	0.33350 0.90810 0.23930 0.02600
C 	C 	0.30040 0.96900 0.20430 -0.10300
H 	H 	0.32540 0.99340 0.21470 0.06300
C 	C 	0.25870 0.98520 0.17680 0.04100
C 	C 	0.22540 0.94725 0.16180 -0.10100
H 	H 	0.19340 0.95660 0.14720 0.06300
C 	C 	0.23720 0.89564 0.16730 0.04500
H 	H 	0.21890 0.87010 0.14920 0.03400
N 	N 	0.12449 0.78583 0.18930 -0.06100
C 	C 	0.11307 0.74520 0.16100 0.03500
H 	H 	0.13970 0.72380 0.14820 0.04100
C 	C 	0.06217 0.73440 0.15030 -0.09500
H 	H 	0.05420 0.70970 0.12530 0.06300
C 	C 	0.02270 0.75890 0.17510 0.03800
C 	C 	0.03615 0.80000 0.20470 -0.09900
H 	H 	0.01020 0.81910 0.22140 0.06200
C 	C 	0.08722 0.81370 0.21010 0.04500
H 	H 	0.09590 0.84340 0.22900 0.02800
N 	N 	0.36460 0.73320 0.18850 -0.07100
C 	C 	0.39844 0.69960 0.20680 0.05400
H 	H 	0.38730 0.67190 0.22730 0.02800
C 	C 	0.45007 0.70560 0.19560 -0.10700
H 	H 	0.47460 0.68310 0.21030 0.06400
C 	C 	0.46650 0.74340 0.16350 0.04200
C 	C 	0.43003 0.77740 0.14730 -0.10200
H 	H 	0.44050 0.80670 0.12870 0.06400
C 	C 	0.37860 0.77020 0.15710 0.04400
H 	H 	0.35340 0.79130 0.14160 0.03400
N 	N 	0.12462 0.22850 0.02760 -0.06500
C 	C 	0.11061 0.26780 0.99880 0.03300
H 	H 	0.13490 0.29320 0.98900 0.03900
C 	C 	0.05974 0.27080 0.98330 -0.09700
H 	H 	0.05100 0.29240 0.95600 0.06400
C 	C 	0.02170 0.24310 0.00710 0.03900
C 	C 	0.03813 0.20550 0.03980 -0.10400
H 	H 	0.01360 0.18300 0.05450 0.06400
C 	C 	0.08956 0.19990 0.05130 0.05100
H 	H 	0.10000 0.17590 0.07610 0.02800
N 	N 	0.23282 0.14330 0.14980 -0.06900
C 	C 	0.19880 0.10921 0.13280 0.05100
H 	H 	0.16850 0.12080 0.11630 0.02800
C 	C 	0.20720 0.05710 0.13900 -0.10300
H 	H 	0.18450 0.03330 0.12350 0.06300
C 	C 	0.24760 0.03900 0.16720 0.03800
C 	C 	0.28390 0.07557 0.17960 -0.09700
H 	H 	0.31710 0.06490 0.19010 0.06200
C 	C 	0.27280 0.12750 0.17700 0.04100
H 	H 	0.29350 0.15170 0.19450 0.03600
N 	N 	0.36140 0.27513 0.01040 -0.07100
C 	C 	0.37428 0.23370 0.98390 0.04400
H 	H 	0.34850 0.21230 0.96980 0.03800
C 	C 	0.42591 0.22230 0.97710 -0.10100
H 	H 	0.43530 0.19490 0.95550 0.06500
C 	C 	0.46380 0.24980 0.00090 0.04300
C 	C 	0.44797 0.29000 0.03040 -0.10300
H 	H 	0.47240 0.30770 0.05050 0.06500
C 	C 	0.39693 0.30500 0.03150 0.04900
H 	H 	0.38730 0.33640 0.04700 0.02700
N 	N 	0.21920 0.37870 0.02410 -0.07300
C 	C 	0.25860 0.39230 0.99520 0.04300
H 	H 	0.27900 0.36660 0.97960 0.03800
C 	C 	0.27000 0.44365 0.98770 -0.09700
H 	H 	0.30020 0.45280 0.96980 0.06300
C 	C 	0.51800 0.23810 0.99420 0.03800
C 	C 	0.53450 0.19710 0.96590 -0.10000
H 	H 	0.51010 0.17230 0.95500 0.06200
C 	C 	0.19100 0.41440 0.04690 0.04800
H 	H 	0.16690 0.40480 0.07190 0.02500
N 	N 	0.62270 0.76496 0.13050 -0.06600
C 	C 	0.60957 0.72330 0.15630 0.04700
H 	H 	0.63490 0.69960 0.16730 0.03300
C 	C 	0.55819 0.71540 0.16650 -0.10200
H 	H 	0.54810 0.68410 0.18200 0.06300
C 	C 	0.52100 0.75110 0.15510 0.03900
C 	C 	0.53740 0.79320 0.12900 -0.10200
H 	H 	0.51270 0.81660 0.11590 0.06200
C 	C 	0.58910 0.80270 0.12140 0.04700
H 	H 	0.60060 0.83530 0.10980 0.02700
N 	N 	0.26899 0.13560 0.02710 -0.06500
C 	C 	0.22390 0.12236 0.00680 0.03800
H 	H 	0.19820 0.14750 0.00040 0.03800
C 	C 	0.21550 0.07122 0.99530 -0.09700
H 	H 	0.18520 0.06190 0.97760 0.06300
C 	C 	0.96680 0.24990 0.99110 0.04000
C 	C 	0.95050 0.29620 0.97200 -0.10400
H 	H 	0.97510 0.32210 0.96450 0.06300
C 	C 	0.30570 0.10110 0.03650 0.05000
H 	H 	0.33810 0.11190 0.04900 0.02700
N 	N 	0.86670 0.71840 0.14870 -0.07600
C 	C 	0.87792 0.75520 0.18170 0.04700
H 	H 	0.85110 0.77260 0.19880 0.03700
C 	C 	0.92852 0.76810 0.19080 -0.10300
H 	H 	0.93610 0.79440 0.21430 0.06600
C 	C 	0.96820 0.74360 0.16640 0.04400
C 	C 	0.95473 0.70500 0.13370 -0.10400
H 	H 	0.98090 0.68500 0.11820 0.06400
C 	C 	0.90370 0.69500 0.12290 0.05100
H 	H 	0.89500 0.67140 0.09710 0.02500
N 	N 	0.28239 0.38520 0.13260 -0.06200
C 	C 	0.24070 0.39690 0.15930 0.03100
H 	H 	0.21530 0.37140 0.16570 0.03800
C 	C 	0.23430 0.44600 0.17760 -0.09500
H 	H 	0.20980 0.45210 0.20320 0.06200
C 	C 	0.26300 0.48630 0.15960 0.03800
C 	C 	0.30580 0.47257 0.13240 -0.10300
H 	H 	0.32900 0.49850 0.12180 0.06300
C 	C 	0.31560 0.42200 0.12020 0.04900
H 	H 	0.34630 0.41340 0.10290 0.02600
La	La	0.74073 0.24894 0.91727 1.69900
O 	O 	0.30780 0.21060 0.80960 -0.26200
O 	O 	0.16870 0.28200 0.79730 -0.26000
O 	O 	0.20340 0.17200 0.80120 -0.26600
O 	O 	0.27620 0.31460 0.79650 -0.26500
O 	O 	0.77920 0.17220 0.95450 -0.27100
O 	O 	0.80650 0.22060 0.85940 -0.27000
O 	O 	0.71270 0.31120 0.98110 -0.26300
O 	O 	0.67190 0.20770 0.97240 -0.25300
O 	O 	0.23010 0.67400 0.87170 -0.26500
O 	O 	0.81440 0.27910 0.96440 -0.26900
O 	O 	0.29680 0.81600 0.85890 -0.26400
O 	O 	0.66120 0.29210 0.88170 -0.25800
N 	N 	0.35669 0.22520 0.81208 -0.07200
C 	C 	0.36752 0.26165 0.84522 0.05100
H 	H 	0.34030 0.27860 0.86230 0.03600
C 	C 	0.41777 0.27519 0.85501 -0.10600
H 	H 	0.42480 0.30130 0.87890 0.06800
C 	C 	0.45780 0.25162 0.83085 0.04400
C 	C 	0.44488 0.21390 0.79690 -0.10400
H 	H 	0.47140 0.19630 0.77950 0.06500
C 	C 	0.39429 0.20110 0.78767 0.04800
H 	H 	0.38630 0.17520 0.76390 0.02700
N 	N 	0.11740 0.27480 0.80110 -0.07000
C 	C 	0.08205 0.30660 0.78270 0.04800
H 	H 	0.09190 0.33350 0.76070 0.02600
C 	C 	0.03100 0.30040 0.79570 -0.10300
H 	H 	0.00660 0.32540 0.78530 0.06300
C 	C 	0.01480 0.25870 0.82320 0.04100
C 	C 	0.05275 0.22540 0.83820 -0.10100
H 	H 	0.04340 0.19340 0.85280 0.06300
C 	C 	0.10436 0.23720 0.83270 0.04500
H 	H 	0.12990 0.21890 0.85080 0.03400
N 	N 	0.21417 0.12449 0.81070 -0.06100
C 	C 	0.25480 0.11307 0.83900 0.03500
H 	H 	0.27620 0.13970 0.85180 0.04100
C 	C 	0.26560 0.06217 0.84970 -0.09500
H 	H 	0.29030 0.05420 0.87470 0.06300
C 	C 	0.24110 0.02270 0.82490 0.03800
C 	C 	0.20000 0.03615 0.79530 -0.09900
H 	H 	0.18090 0.01020 0.77860 0.06200
C 	C 	0.18630 0.08722 0.78990 0.04500
H 	H 	0.15660 0.09590 0.77100 0.02800
N 	N 	0.26680 0.36460 0.81150 -0.07100
C 	C 	0.30040 0.39844 0.79320 0.05400
H 	H 	0.32810 0.38730 0.77270 0.02800
C 	C 	0.29440 0.45007 0.80440 -0.10700
H 	H 	0.31690 0.47460 0.78970 0.06400
C 	C 	0.25660 0.46650 0.83650 0.04200
C 	C 	0.22260 0.43003 0.85270 -0.10200
H 	H 	0.19330 0.44050 0.87130 0.06400
C 	C 	0.22980 0.37860 0.84290 0.04400
H 	H 	0.20870 0.35340 0.85840 0.03400
N 	N 	0.77150 0.12462 0.97240 -0.06500
C 	C 	0.73220 0.11061 0.00120 0.03300
H 	H 	0.70680 0.13490 0.01100 0.03900
C 	C 	0.72920 0.05974 0.01670 -0.09700
H 	H 	0.70760 0.05100 0.04400 0.06400
C 	C 	0.75690 0.02170 0.99290 0.03900
C 	C 	0.79450 0.03813 0.96020 -0.10400
H 	H 	0.81700 0.01360 0.94550 0.06400
C 	C 	0.80010 0.08956 0.94870 0.05100
H 	H 	0.82410 0.10000 0.92390 0.02800
N 	N 	0.85670 0.23282 0.85020 -0.06900
C 	C 	0.89079 0.19880 0.86720 0.05100
H 	H 	0.87920 0.16850 0.88370 0.02800
C 	C 	0.94290 0.20720 0.86100 -0.10300
H 	H 	0.96670 0.18450 0.87650 0.06300
C 	C 	0.96100 0.24760 0.83280 0.03800
C 	C 	0.92443 0.28390 0.82040 -0.09700
H 	H 	0.93510 0.31710 0.80990 0.06200
C 	C 	0.87250 0.27280 0.82300 0.04100
H 	H 	0.84830 0.29350 0.80550 0.03600
N 	N 	0.72487 0.36140 0.98960 -0.07100
C 	C 	0.76630 0.37428 0.01610 0.04400
H 	H 	0.78770 0.34850 0.03020 0.03800
C 	C 	0.77770 0.42591 0.02290 -0.10100
H 	H 	0.80510 0.43530 0.04450 0.06500
C 	C 	0.75020 0.46380 0.99910 0.04300
C 	C 	0.71000 0.44797 0.96960 -0.10300
H 	H 	0.69230 0.47240 0.94950 0.06500
C 	C 	0.69500 0.39693 0.96850 0.04900
H 	H 	0.66360 0.38730 0.95300 0.02700
N 	N 	0.62130 0.21920 0.97590 -0.07300
C 	C 	0.60770 0.25860 0.00480 0.04300
H 	H 	0.63340 0.27900 0.02040 0.03800
C 	C 	0.55635 0.27000 0.01230 -0.09700
H 	H 	0.54720 0.30020 0.03020 0.06300
C 	C 	0.76190 0.51800 0.00580 0.03800
C 	C 	0.80290 0.53450 0.03410 -0.10000
H 	H 	0.82770 0.51010 0.04500 0.06200
C 	C 	0.58560 0.19100 0.95310 0.04800
H 	H 	0.59520 0.16690 0.92810 0.02500
N 	N 	0.23504 0.62270 0.86950 -0.06600
C 	C 	0.27670 0.60957 0.84370 0.04700
H 	H 	0.30040 0.63490 0.83270 0.03300
C 	C 	0.28460 0.55819 0.83350 -0.10200
H 	H 	0.31590 0.54810 0.81800 0.06300
C 	C 	0.24890 0.52100 0.84490 0.03900
C 	C 	0.20680 0.53740 0.87100 -0.10200
H 	H 	0.18340 0.51270 0.88410 0.06200
C 	C 	0.19730 0.58910 0.87860 0.04700
H 	H 	0.16470 0.60060 0.89020 0.02700
N 	N 	0.86440 0.26899 0.97290 -0.06500
C 	C 	0.87764 0.22390 0.99320 0.03800
H 	H 	0.85250 0.19820 0.99960 0.03800
C 	C 	0.92878 0.21550 0.00470 -0.09700
H 	H 	0.93810 0.18520 0.02240 0.06300
C 	C 	0.75010 0.96680 0.00890 0.04000
C 	C 	0.70380 0.95050 0.02800 -0.10400
H 	H 	0.67790 0.97510 0.03550 0.06300
C 	C 	0.89890 0.30570 0.96350 0.05000
H 	H 	0.88810 0.33810 0.95100 0.02700
N 	N 	0.28160 0.86670 0.85130 -0.07600
C 	C 	0.24480 0.87792 0.81830 0.04700
H 	H 	0.22740 0.85110 0.80120 0.03700
C 	C 	0.23190 0.92852 0.80920 -0.10300
H 	H 	0.20560 0.93610 0.78570 0.06600
C 	C 	0.25640 0.96820 0.83360 0.04400
C 	C 	0.29500 0.95473 0.86630 -0.10400
H 	H 	0.31500 0.98090 0.88180 0.06400
C 	C 	0.30500 0.90370 0.87710 0.05100
H 	H 	0.32860 0.89500 0.90290 0.02500
N 	N 	0.61480 0.28239 0.86740 -0.06200
C 	C 	0.60310 0.24070 0.84070 0.03100
H 	H 	0.62860 0.21530 0.83430 0.03800
C 	C 	0.55400 0.23430 0.82240 -0.09500
H 	H 	0.54790 0.20980 0.79680 0.06200
C 	C 	0.51370 0.26300 0.84040 0.03800
C 	C 	0.52743 0.30580 0.86760 -0.10300
H 	H 	0.50150 0.32900 0.87820 0.06300
C 	C 	0.57800 0.31560 0.87980 0.04900
H 	H 	0.58660 0.34630 0.89710 0.02600
La	La	0.25927 0.75106 0.91727 1.69900
O 	O 	0.69220 0.78940 0.80960 -0.26200
O 	O 	0.83130 0.71800 0.79730 -0.26000
O 	O 	0.79660 0.82800 0.80120 -0.26600
O 	O 	0.72380 0.68540 0.79650 -0.26500
O 	O 	0.22080 0.82780 0.95450 -0.27100
O 	O 	0.19350 0.77940 0.85940 -0.27000
O 	O 	0.28730 0.68880 0.98110 -0.26300
O 	O 	0.32810 0.79230 0.97240 -0.25300
O 	O 	0.76990 0.32600 0.87170 -0.26500
O 	O 	0.18560 0.72090 0.96440 -0.26900
O 	O 	0.70320 0.18400 0.85890 -0.26400
O 	O 	0.33880 0.70790 0.88170 -0.25800
N 	N 	0.64331 0.77480 0.81208 -0.07200
C 	C 	0.63248 0.73835 0.84522 0.05100
H 	H 	0.65970 0.72140 0.86230 0.03600
C 	C 	0.58223 0.72481 0.85501 -0.10600
H 	H 	0.57520 0.69870 0.87890 0.06800
C 	C 	0.54220 0.74838 0.83085 0.04400
C 	C 	0.55512 0.78610 0.79690 -0.10400
H 	H 	0.52860 0.80370 0.77950 0.06500
C 	C 	0.60571 0.79890 0.78767 0.04800
H 	H 	0.61370 0.82480 0.76390 0.02700
N 	N 	0.88260 0.72520 0.80110 -0.07000
C 	C 	0.91795 0.69340 0.78270 0.04800
H 	H 	0.90810 0.66650 0.76070 0.02600
C 	C 	0.96900 0.69960 0.79570 -0.10300
H 	H 	0.99340 0.67460 0.78530 0.06300
C 	C 	0.98520 0.74130 0.82320 0.04100
C 	C 	0.94725 0.77460 0.83820 -0.10100
H 	H 	0.95660 0.80660 0.85280 0.06300
C 	C 	0.89564 0.76280 0.83270 0.04500
H 	H 	0.87010 0.78110 0.85080 0.03400
N 	N 	0.78583 0.87551 0.81070 -0.06100
C 	C 	0.74520 0.88693 0.83900 0.03500
H 	H 	0.72380 0.86030 0.85180 0.04100
C 	C 	0.73440 0.93783 0.84970 -0.09500
H 	H 	0.70970 0.94580 0.87470 0.06300
C 	C 	0.75890 0.97730 0.82490 0.03800
C 	C 	0.80000 0.96385 0.79530 -0.09900
H 	H 	0.81910 0.98980 0.77860 0.06200
C 	C 	0.81370 0.91278 0.78990 0.04500
H 	H 	0.84340 0.90410 0.77100 0.02800
N 	N 	0.73320 0.63540 0.81150 -0.07100
C 	C 	0.69960 0.60156 0.79320 0.05400
H 	H 	0.67190 0.61270 0.77270 0.02800
C 	C 	0.70560 0.54993 0.80440 -0.10700
H 	H 	0.68310 0.52540 0.78970 0.06400
C 	C 	0.74340 0.53350 0.83650 0.04200
C 	C 	0.77740 0.56997 0.85270 -0.10200
H 	H 	0.80670 0.55950 0.87130 0.06400
C 	C 	0.77020 0.62140 0.84290 0.04400
H 	H 	0.79130 0.64660 0.85840 0.03400
N 	N 	0.22850 0.87538 0.97240 -0.06500
C 	C 	0.26780 0.88939 0.00120 0.03300
H 	H 	0.29320 0.86510 0.01100 0.03900
C 	C 	0.27080 0.94026 0.01670 -0.09700
H 	H 	0.29240 0.94900 0.04400 0.06400
C 	C 	0.24310 0.97830 0.99290 0.03900
C 	C 	0.20550 0.96187 0.96020 -0.10400
H 	H 	0.18300 0.98640 0.94550 0.06400
C 	C 	0.19990 0.91044 0.94870 0.05100
H 	H 	0.17590 0.90000 0.92390 0.02800
N 	N 	0.14330 0.76718 0.85020 -0.06900
C 	C 	0.10921 0.80120 0.86720 0.05100
H 	H 	0.12080 0.83150 0.88370 0.02800
C 	C 	0.05710 0.79280 0.86100 -0.10300
H 	H 	0.03330 0.81550 0.87650 0.06300
C 	C 	0.03900 0.75240 0.83280 0.03800
C 	C 	0.07557 0.71610 0.82040 -0.09700
H 	H 	0.06490 0.68290 0.80990 0.06200
C 	C 	0.12750 0.72720 0.82300 0.04100
H 	H 	0.15170 0.70650 0.80550 0.03600
N 	N 	0.27513 0.63860 0.98960 -0.07100
C 	C 	0.23370 0.62572 0.01610 0.04400
H 	H 	0.21230 0.65150 0.03020 0.03800
C 	C 	0.22230 0.57409 0.02290 -0.10100
H 	H 	0.19490 0.56470 0.04450 0.06500
C 	C 	0.24980 0.53620 0.99910 0.04300
C 	C 	0.29000 0.55203 0.96960 -0.10300
H 	H 	0.30770 0.52760 0.94950 0.06500
C 	C 	0.30500 0.60307 0.96850 0.04900
H 	H 	0.33640 0.61270 0.95300 0.02700
N 	N 	0.37870 0.78080 0.97590 -0.07300
C 	C 	0.39230 0.74140 0.00480 0.04300
H 	H 	0.36660 0.72100 0.02040 0.03800
C 	C 	0.44365 0.73000 0.01230 -0.09700
H 	H 	0.45280 0.69980 0.03020 0.06300
C 	C 	0.23810 0.48200 0.00580 0.03800
C 	C 	0.19710 0.46550 0.03410 -0.10000
H 	H 	0.17230 0.48990 0.04500 0.06200
C 	C 	0.41440 0.80900 0.95310 0.04800
H 	H 	0.40480 0.83310 0.92810 0.02500
N 	N 	0.76496 0.37730 0.86950 -0.06600
C 	C 	0.72330 0.39043 0.84370 0.04700
H 	H 	0.69960 0.36510 0.83270 0.03300
C 	C 	0.71540 0.44181 0.83350 -0.10200
H 	H 	0.68410 0.45190 0.81800 0.06300
C 	C 	0.75110 0.47900 0.84490 0.03900
C 	C 	0.79320 0.46260 0.87100 -0.10200
H 	H 	0.81660 0.48730 0.88410 0.06200
C 	C 	0.80270 0.41090 0.87860 0.04700
H 	H 	0.83530 0.39940 0.89020 0.02700
N 	N 	0.13560 0.73101 0.97290 -0.06500
C 	C 	0.12236 0.77610 0.99320 0.03800
H 	H 	0.14750 0.80180 0.99960 0.03800
C 	C 	0.07122 0.78450 0.00470 -0.09700
H 	H 	0.06190 0.81480 0.02240 0.06300
C 	C 	0.24990 0.03320 0.00890 0.04000
C 	C 	0.29620 0.04950 0.02800 -0.10400
H 	H 	0.32210 0.02490 0.03550 0.06300
C 	C 	0.10110 0.69430 0.96350 0.05000
H 	H 	0.11190 0.66190 0.95100 0.02700
N 	N 	0.71840 0.13330 0.85130 -0.07600
C 	C 	0.75520 0.12208 0.81830 0.04700
H 	H 	0.77260 0.14890 0.80120 0.03700
C 	C 	0.76810 0.07148 0.80920 -0.10300
H 	H 	0.79440 0.06390 0.78570 0.06600
C 	C 	0.74360 0.03180 0.83360 0.04400
C 	C 	0.70500 0.04527 0.86630 -0.10400
H 	H 	0.68500 0.01910 0.88180 0.06400
C 	C 	0.69500 0.09630 0.87710 0.05100
H 	H 	0.67140 0.10500 0.90290 0.02500
N 	N 	0.38520 0.71761 0.86740 -0.06200
C 	C 	0.39690 0.75930 0.84070 0.03100
H 	H 	0.37140 0.78470 0.83430 0.03800
C 	C 	0.44600 0.76570 0.82240 -0.09500
H 	H 	0.45210 0.79020 0.79680 0.06200
C 	C 	0.48630 0.73700 0.84040 0.03800
C 	C 	0.47257 0.69420 0.86760 -0.10300
H 	H 	0.49850 0.67100 0.87820 0.06300
C 	C 	0.42200 0.68440 0.87980 0.04900
H 	H 	0.41340 0.65370 0.89710 0.02600
La	La	0.75106 0.25927 0.58273 1.69900
O 	O 	0.78940 0.69220 0.69040 -0.26200
O 	O 	0.71800 0.83130 0.70270 -0.26000
O 	O 	0.82800 0.79660 0.69880 -0.26600
O 	O 	0.68540 0.72380 0.70350 -0.26500
O 	O 	0.82780 0.22080 0.54550 -0.27100
O 	O 	0.77940 0.19350 0.64060 -0.27000
O 	O 	0.68880 0.28730 0.51890 -0.26300
O 	O 	0.79230 0.32810 0.52760 -0.25300
O 	O 	0.32600 0.76990 0.62830 -0.26500
O 	O 	0.72090 0.18560 0.53560 -0.26900
O 	O 	0.18400 0.70320 0.64110 -0.26400
O 	O 	0.70790 0.33880 0.61830 -0.25800
N 	N 	0.77480 0.64331 0.68792 -0.07200
C 	C 	0.73835 0.63248 0.65478 0.05100
H 	H 	0.72140 0.65970 0.63770 0.03600
C 	C 	0.72481 0.58223 0.64499 -0.10600
H 	H 	0.69870 0.57520 0.62110 0.06800
C 	C 	0.74838 0.54220 0.66915 0.04400
C 	C 	0.78610 0.55512 0.70310 -0.10400
H 	H 	0.80370 0.52860 0.72050 0.06500
C 	C 	0.79890 0.60571 0.71233 0.04800
H 	H 	0.82480 0.61370 0.73610 0.02700
N 	N 	0.72520 0.88260 0.69890 -0.07000
C 	C 	0.69340 0.91795 0.71730 0.04800
H 	H 	0.66650 0.90810 0.73930 0.02600
C 	C 	0.69960 0.96900 0.70430 -0.10300
H 	H 	0.67460 0.99340 0.71470 0.06300
C 	C 	0.74130 0.98520 0.67680 0.04100
C 	C 	0.77460 0.94725 0.66180 -0.10100
H 	H 	0.80660 0.95660 0.64720 0.06300
C 	C 	0.76280 0.89564 0.66730 0.04500
H 	H 	0.78110 0.87010 0.64920 0.03400
N 	N 	0.87551 0.78583 0.68930 -0.06100
C 	C 	0.88693 0.74520 0.66100 0.03500
H 	H 	0.86030 0.72380 0.64820 0.04100
C 	C 	0.93783 0.73440 0.65030 -0.09500
H 	H 	0.94580 0.70970 0.62530 0.06300
C 	C 	0.97730 0.75890 0.67510 0.03800
C 	C 	0.96385 0.80000 0.70470 -0.09900
H 	H 	0.98980 0.81910 0.72140 0.06200
C 	C 	0.91278 0.81370 0.71010 0.04500
H 	H 	0.90410 0.84340 0.72900 0.02800
N 	N 	0.63540 0.73320 0.68850 -0.07100
C 	C 	0.60156 0.69960 0.70680 0.05400
H 	H 	0.61270 0.67190 0.72730 0.02800
C 	C 	0.54993 0.70560 0.69560 -0.10700
H 	H 	0.52540 0.68310 0.71030 0.06400
C 	C 	0.53350 0.74340 0.66350 0.04200
C 	C 	0.56997 0.77740 0.64730 -0.10200
H 	H 	0.55950 0.80670 0.62870 0.06400
C 	C 	0.62140 0.77020 0.65710 0.04400
H 	H 	0.64660 0.79130 0.64160 0.03400
N 	N 	0.87538 0.22850 0.52760 -0.06500
C 	C 	0.88939 0.26780 0.49880 0.03300
H 	H 	0.86510 0.29320 0.48900 0.03900
C 	C 	0.94026 0.27080 0.48330 -0.09700
H 	H 	0.94900 0.29240 0.45600 0.06400
C 	C 	0.97830 0.24310 0.50710 0.03900
C 	C 	0.96187 0.20550 0.53980 -0.10400
H 	H 	0.98640 0.18300 0.55450 0.06400
C 	C 	0.91044 0.19990 0.55130 0.05100
H 	H 	0.90000 0.17590 0.57610 0.02800
N 	N 	0.76718 0.14330 0.64980 -0.06900
C 	C 	0.80120 0.10921 0.63280 0.05100
H 	H 	0.83150 0.12080 0.61630 0.02800
C 	C 	0.79280 0.05710 0.63900 -0.10300
H 	H 	0.81550 0.03330 0.62350 0.06300
C 	C 	0.75240 0.03900 0.66720 0.03800
C 	C 	0.71610 0.07557 0.67960 -0.09700
H 	H 	0.68290 0.06490 0.69010 0.06200
C 	C 	0.72720 0.12750 0.67700 0.04100
H 	H 	0.70650 0.15170 0.69450 0.03600
N 	N 	0.63860 0.27513 0.51040 -0.07100
C 	C 	0.62572 0.23370 0.48390 0.04500
H 	H 	0.65150 0.21230 0.46980 0.03800
C 	C 	0.57409 0.22230 0.47710 -0.10100
H 	H 	0.56470 0.19490 0.45550 0.06500
C 	C 	0.53620 0.24980 0.50090 0.04300
C 	C 	0.55203 0.29000 0.53040 -0.10300
H 	H 	0.52760 0.30770 0.55050 0.06500
C 	C 	0.60307 0.30500 0.53150 0.04900
H 	H 	0.61270 0.33640 0.54700 0.02700
N 	N 	0.78080 0.37870 0.52410 -0.07300
C 	C 	0.74140 0.39230 0.49520 0.04300
H 	H 	0.72100 0.36660 0.47960 0.03800
C 	C 	0.73000 0.44365 0.48770 -0.09700
H 	H 	0.69980 0.45280 0.46980 0.06300
C 	C 	0.48200 0.23810 0.49420 0.03900
C 	C 	0.46550 0.19710 0.46590 -0.10000
H 	H 	0.48990 0.17230 0.45500 0.06200
C 	C 	0.80900 0.41440 0.54690 0.04800
H 	H 	0.83310 0.40480 0.57190 0.02500
N 	N 	0.37730 0.76496 0.63050 -0.06600
C 	C 	0.39043 0.72330 0.65630 0.04700
H 	H 	0.36510 0.69960 0.66730 0.03300
C 	C 	0.44181 0.71540 0.66650 -0.10200
H 	H 	0.45190 0.68410 0.68200 0.06300
C 	C 	0.47900 0.75110 0.65510 0.03900
C 	C 	0.46260 0.79320 0.62900 -0.10200
H 	H 	0.48730 0.81660 0.61590 0.06200
C 	C 	0.41090 0.80270 0.62140 0.04700
H 	H 	0.39940 0.83530 0.60980 0.02700
N 	N 	0.73101 0.13560 0.52710 -0.06500
C 	C 	0.77610 0.12236 0.50680 0.03800
H 	H 	0.80180 0.14750 0.50040 0.03800
C 	C 	0.78450 0.07122 0.49530 -0.09700
H 	H 	0.81480 0.06190 0.47760 0.06300
C 	C 	0.03320 0.24990 0.49110 0.04000
C 	C 	0.04950 0.29620 0.47200 -0.10400
H 	H 	0.02490 0.32210 0.46450 0.06300
C 	C 	0.69430 0.10110 0.53650 0.05000
H 	H 	0.66190 0.11190 0.54900 0.02700
N 	N 	0.13330 0.71840 0.64870 -0.07600
C 	C 	0.12208 0.75520 0.68170 0.04700
H 	H 	0.14890 0.77260 0.69880 0.03700
C 	C 	0.07148 0.76810 0.69080 -0.10300
H 	H 	0.06390 0.79440 0.71430 0.06600
C 	C 	0.03180 0.74360 0.66640 0.04400
C 	C 	0.04527 0.70500 0.63370 -0.10400
H 	H 	0.01910 0.68500 0.61820 0.06400
C 	C 	0.09630 0.69500 0.62290 0.05100
H 	H 	0.10500 0.67140 0.59710 0.02500
N 	N 	0.71761 0.38520 0.63260 -0.06200
C 	C 	0.75930 0.39690 0.65930 0.03100
H 	H 	0.78470 0.37140 0.66570 0.03800
C 	C 	0.76570 0.44600 0.67760 -0.09500
H 	H 	0.79020 0.45210 0.70320 0.06200
C 	C 	0.73700 0.48630 0.65960 0.03800
C 	C 	0.69420 0.47257 0.63240 -0.10300
H 	H 	0.67100 0.49850 0.62180 0.06300
C 	C 	0.68440 0.42200 0.62020 0.04900
H 	H 	0.65370 0.41340 0.60290 0.02600
La	La	0.24894 0.74073 0.58273 1.69900
O 	O 	0.21060 0.30780 0.69040 -0.26200
O 	O 	0.28200 0.16870 0.70270 -0.26000
O 	O 	0.17200 0.20340 0.69880 -0.26600
O 	O 	0.31460 0.27620 0.70350 -0.26500
O 	O 	0.17220 0.77920 0.54550 -0.27100
O 	O 	0.22060 0.80650 0.64060 -0.27000
O 	O 	0.31120 0.71270 0.51890 -0.26300
O 	O 	0.20770 0.67190 0.52760 -0.25300
O 	O 	0.67400 0.23010 0.62830 -0.26500
O 	O 	0.27910 0.81440 0.53560 -0.26900
O 	O 	0.81600 0.29680 0.64110 -0.26400
O 	O 	0.29210 0.66120 0.61830 -0.25800
N 	N 	0.22520 0.35669 0.68792 -0.07200
C 	C 	0.26165 0.36752 0.65478 0.05100
H 	H 	0.27860 0.34030 0.63770 0.03600
C 	C 	0.27519 0.41777 0.64499 -0.10600
H 	H 	0.30130 0.42480 0.62110 0.06800
C 	C 	0.25162 0.45780 0.66915 0.04400
C 	C 	0.21390 0.44488 0.70310 -0.10400
H 	H 	0.19630 0.47140 0.72050 0.06500
C 	C 	0.20110 0.39429 0.71233 0.04800
H 	H 	0.17520 0.38630 0.73610 0.02700
N 	N 	0.27480 0.11740 0.69890 -0.07000
C 	C 	0.30660 0.08205 0.71730 0.04800
H 	H 	0.33350 0.09190 0.73930 0.02600
C 	C 	0.30040 0.03100 0.70430 -0.10300
H 	H 	0.32540 0.00660 0.71470 0.06300
C 	C 	0.25870 0.01480 0.67680 0.04100
C 	C 	0.22540 0.05275 0.66180 -0.10100
H 	H 	0.19340 0.04340 0.64720 0.06300
C 	C 	0.23720 0.10436 0.66730 0.04500
H 	H 	0.21890 0.12990 0.64920 0.03400
N 	N 	0.12449 0.21417 0.68930 -0.06100
C 	C 	0.11307 0.25480 0.66100 0.03500
H 	H 	0.13970 0.27620 0.64820 0.04100
C 	C 	0.06217 0.26560 0.65030 -0.09500
H 	H 	0.05420 0.29030 0.62530 0.06300
C 	C 	0.02270 0.24110 0.67510 0.03800
C 	C 	0.03615 0.20000 0.70470 -0.09900
H 	H 	0.01020 0.18090 0.72140 0.06200
C 	C 	0.08722 0.18630 0.71010 0.04500
H 	H 	0.09590 0.15660 0.72900 0.02800
N 	N 	0.36460 0.26680 0.68850 -0.07100
C 	C 	0.39844 0.30040 0.70680 0.05400
H 	H 	0.38730 0.32810 0.72730 0.02800
C 	C 	0.45007 0.29440 0.69560 -0.10700
H 	H 	0.47460 0.31690 0.71030 0.06400
C 	C 	0.46650 0.25660 0.66350 0.04200
C 	C 	0.43003 0.22260 0.64730 -0.10200
H 	H 	0.44050 0.19330 0.62870 0.06400
C 	C 	0.37860 0.22980 0.65710 0.04400
H 	H 	0.35340 0.20870 0.64160 0.03400
N 	N 	0.12462 0.77150 0.52760 -0.06500
C 	C 	0.11061 0.73220 0.49880 0.03300
H 	H 	0.13490 0.70680 0.48900 0.03900
C 	C 	0.05974 0.72920 0.48330 -0.09700
H 	H 	0.05100 0.70760 0.45600 0.06400
C 	C 	0.02170 0.75690 0.50710 0.03900
C 	C 	0.03813 0.79450 0.53980 -0.10400
H 	H 	0.01360 0.81700 0.55450 0.06400
C 	C 	0.08956 0.80010 0.55130 0.05100
H 	H 	0.10000 0.82410 0.57610 0.02800
N 	N 	0.23282 0.85670 0.64980 -0.06900
C 	C 	0.19880 0.89079 0.63280 0.05100
H 	H 	0.16850 0.87920 0.61630 0.02800
C 	C 	0.20720 0.94290 0.63900 -0.10300
H 	H 	0.18450 0.96670 0.62350 0.06300
C 	C 	0.24760 0.96100 0.66720 0.03800
C 	C 	0.28390 0.92443 0.67960 -0.09700
H 	H 	0.31710 0.93510 0.69010 0.06200
C 	C 	0.27280 0.87250 0.67700 0.04100
H 	H 	0.29350 0.84830 0.69450 0.03600
N 	N 	0.36140 0.72487 0.51040 -0.07100
C 	C 	0.37428 0.76630 0.48390 0.04500
H 	H 	0.34850 0.78770 0.46980 0.03800
C 	C 	0.42591 0.77770 0.47710 -0.10100
H 	H 	0.43530 0.80510 0.45550 0.06500
C 	C 	0.46380 0.75020 0.50090 0.04300
C 	C 	0.44797 0.71000 0.53040 -0.10300
H 	H 	0.47240 0.69230 0.55050 0.06500
C 	C 	0.39693 0.69500 0.53150 0.04900
H 	H 	0.38730 0.66360 0.54700 0.02700
N 	N 	0.21920 0.62130 0.52410 -0.07300
C 	C 	0.25860 0.60770 0.49520 0.04300
H 	H 	0.27900 0.63340 0.47960 0.03800
C 	C 	0.27000 0.55635 0.48770 -0.09700
H 	H 	0.30020 0.54720 0.46980 0.06300
C 	C 	0.51800 0.76190 0.49420 0.03900
C 	C 	0.53450 0.80290 0.46590 -0.10000
H 	H 	0.51010 0.82770 0.45500 0.06200
C 	C 	0.19100 0.58560 0.54690 0.04800
H 	H 	0.16690 0.59520 0.57190 0.02500
N 	N 	0.62270 0.23504 0.63050 -0.06600
C 	C 	0.60957 0.27670 0.65630 0.04700
H 	H 	0.63490 0.30040 0.66730 0.03300
C 	C 	0.55819 0.28460 0.66650 -0.10200
H 	H 	0.54810 0.31590 0.68200 0.06300
C 	C 	0.52100 0.24890 0.65510 0.03900
C 	C 	0.53740 0.20680 0.62900 -0.10200
H 	H 	0.51270 0.18340 0.61590 0.06200
C 	C 	0.58910 0.19730 0.62140 0.04700
H 	H 	0.60060 0.16470 0.60980 0.02700
N 	N 	0.26899 0.86440 0.52710 -0.06500
C 	C 	0.22390 0.87764 0.50680 0.03800
H 	H 	0.19820 0.85250 0.50040 0.03800
C 	C 	0.21550 0.92878 0.49530 -0.09700
H 	H 	0.18520 0.93810 0.47760 0.06300
C 	C 	0.96680 0.75010 0.49110 0.04000
C 	C 	0.95050 0.70380 0.47200 -0.10400
H 	H 	0.97510 0.67790 0.46450 0.06300
C 	C 	0.30570 0.89890 0.53650 0.05000
H 	H 	0.33810 0.88810 0.54900 0.02700
N 	N 	0.86670 0.28160 0.64870 -0.07600
C 	C 	0.87792 0.24480 0.68170 0.04700
H 	H 	0.85110 0.22740 0.69880 0.03700
C 	C 	0.92852 0.23190 0.69080 -0.10300
H 	H 	0.93610 0.20560 0.71430 0.06600
C 	C 	0.96820 0.25640 0.66640 0.04400
C 	C 	0.95473 0.29500 0.63370 -0.10400
H 	H 	0.98090 0.31500 0.61820 0.06400
C 	C 	0.90370 0.30500 0.62290 0.05100
H 	H 	0.89500 0.32860 0.59710 0.02500
N 	N 	0.28239 0.61480 0.63260 -0.06200
C 	C 	0.24070 0.60310 0.65930 0.03100
H 	H 	0.21530 0.62860 0.66570 0.03800
C 	C 	0.23430 0.55400 0.67760 -0.09500
H 	H 	0.20980 0.54790 0.70320 0.06200
C 	C 	0.26300 0.51370 0.65960 0.03800
C 	C 	0.30580 0.52743 0.63240 -0.10300
H 	H 	0.32900 0.50150 0.62180 0.06300
C 	C 	0.31560 0.57800 0.62020 0.04900
H 	H 	0.34630 0.58660 0.60290 0.02600
La	La	0.74073 0.75106 0.41727 1.69900
O 	O 	0.30780 0.78940 0.30960 -0.26200
O 	O 	0.16870 0.71800 0.29730 -0.26000
O 	O 	0.20340 0.82800 0.30120 -0.26600
O 	O 	0.27620 0.68540 0.29650 -0.26500
O 	O 	0.77920 0.82780 0.45450 -0.27100
O 	O 	0.80650 0.77940 0.35940 -0.27000
O 	O 	0.71270 0.68880 0.48110 -0.26300
O 	O 	0.67190 0.79230 0.47240 -0.25300
O 	O 	0.23010 0.32600 0.37170 -0.26500
O 	O 	0.81440 0.72090 0.46440 -0.26900
O 	O 	0.29680 0.18400 0.35890 -0.26400
O 	O 	0.66120 0.70790 0.38170 -0.25800
N 	N 	0.35669 0.77480 0.31208 -0.07200
C 	C 	0.36752 0.73835 0.34522 0.05100
H 	H 	0.34030 0.72140 0.36230 0.03600
C 	C 	0.41777 0.72481 0.35501 -0.10600
H 	H 	0.42480 0.69870 0.37890 0.06800
C 	C 	0.45780 0.74838 0.33085 0.04400
C 	C 	0.44488 0.78610 0.29690 -0.10400
H 	H 	0.47140 0.80370 0.27950 0.06500
C 	C 	0.39429 0.79890 0.28767 0.04800
H 	H 	0.38630 0.82480 0.26390 0.02700
N 	N 	0.11740 0.72520 0.30110 -0.07000
C 	C 	0.08205 0.69340 0.28270 0.04800
H 	H 	0.09190 0.66650 0.26070 0.02600
C 	C 	0.03100 0.69960 0.29570 -0.10300
H 	H 	0.00660 0.67460 0.28530 0.06300
C 	C 	0.01480 0.74130 0.32320 0.04100
C 	C 	0.05275 0.77460 0.33820 -0.10100
H 	H 	0.04340 0.80660 0.35280 0.06300
C 	C 	0.10436 0.76280 0.33270 0.04500
H 	H 	0.12990 0.78110 0.35080 0.03400
N 	N 	0.21417 0.87551 0.31070 -0.06100
C 	C 	0.25480 0.88693 0.33900 0.03500
H 	H 	0.27620 0.86030 0.35180 0.04100
C 	C 	0.26560 0.93783 0.34970 -0.09500
H 	H 	0.29030 0.94580 0.37470 0.06300
C 	C 	0.24110 0.97730 0.32490 0.03800
C 	C 	0.20000 0.96385 0.29530 -0.09900
H 	H 	0.18090 0.98980 0.27860 0.06200
C 	C 	0.18630 0.91278 0.28990 0.04500
H 	H 	0.15660 0.90410 0.27100 0.02800
N 	N 	0.26680 0.63540 0.31150 -0.07100
C 	C 	0.30040 0.60156 0.29320 0.05400
H 	H 	0.32810 0.61270 0.27270 0.02800
C 	C 	0.29440 0.54993 0.30440 -0.10700
H 	H 	0.31690 0.52540 0.28970 0.06400
C 	C 	0.25660 0.53350 0.33650 0.04200
C 	C 	0.22260 0.56997 0.35270 -0.10200
H 	H 	0.19330 0.55950 0.37130 0.06400
C 	C 	0.22980 0.62140 0.34290 0.04400
H 	H 	0.20870 0.64660 0.35840 0.03400
N 	N 	0.77150 0.87538 0.47240 -0.06500
C 	C 	0.73220 0.88939 0.50120 0.03300
H 	H 	0.70680 0.86510 0.51100 0.03900
C 	C 	0.72920 0.94026 0.51670 -0.09700
H 	H 	0.70760 0.94900 0.54400 0.06400
C 	C 	0.75690 0.97830 0.49290 0.03900
C 	C 	0.79450 0.96187 0.46020 -0.10400
H 	H 	0.81700 0.98640 0.44550 0.06400
C 	C 	0.80010 0.91044 0.44870 0.05100
H 	H 	0.82410 0.90000 0.42390 0.02800
N 	N 	0.85670 0.76718 0.35020 -0.06900
C 	C 	0.89079 0.80120 0.36720 0.05100
H 	H 	0.87920 0.83150 0.38370 0.02800
C 	C 	0.94290 0.79280 0.36100 -0.10300
H 	H 	0.96670 0.81550 0.37650 0.06300
C 	C 	0.96100 0.75240 0.33280 0.03800
C 	C 	0.92443 0.71610 0.32040 -0.09700
H 	H 	0.93510 0.68290 0.30990 0.06200
C 	C 	0.87250 0.72720 0.32300 0.04100
H 	H 	0.84830 0.70650 0.30550 0.03600
N 	N 	0.72487 0.63860 0.48960 -0.07100
C 	C 	0.76630 0.62572 0.51610 0.04500
H 	H 	0.78770 0.65150 0.53020 0.03800
C 	C 	0.77770 0.57409 0.52290 -0.10100
H 	H 	0.80510 0.56470 0.54450 0.06500
C 	C 	0.75020 0.53620 0.49910 0.04300
C 	C 	0.71000 0.55203 0.46960 -0.10300
H 	H 	0.69230 0.52760 0.44950 0.06500
C 	C 	0.69500 0.60307 0.46850 0.04900
H 	H 	0.66360 0.61270 0.45300 0.02700
N 	N 	0.62130 0.78080 0.47590 -0.07300
C 	C 	0.60770 0.74140 0.50480 0.04300
H 	H 	0.63340 0.72100 0.52040 0.03800
C 	C 	0.55635 0.73000 0.51230 -0.09700
H 	H 	0.54720 0.69980 0.53020 0.06300
C 	C 	0.76190 0.48200 0.50580 0.03900
C 	C 	0.80290 0.46550 0.53410 -0.10000
H 	H 	0.82770 0.48990 0.54500 0.06200
C 	C 	0.58560 0.80900 0.45310 0.04800
H 	H 	0.59520 0.83310 0.42810 0.02500
N 	N 	0.23504 0.37730 0.36950 -0.06600
C 	C 	0.27670 0.39043 0.34370 0.04700
H 	H 	0.30040 0.36510 0.33270 0.03300
C 	C 	0.28460 0.44181 0.33350 -0.10200
H 	H 	0.31590 0.45190 0.31800 0.06300
C 	C 	0.24890 0.47900 0.34490 0.03900
C 	C 	0.20680 0.46260 0.37100 -0.10200
H 	H 	0.18340 0.48730 0.38410 0.06200
C 	C 	0.19730 0.41090 0.37860 0.04700
H 	H 	0.16470 0.39940 0.39020 0.02700
N 	N 	0.86440 0.73101 0.47290 -0.06500
C 	C 	0.87764 0.77610 0.49320 0.03800
H 	H 	0.85250 0.80180 0.49960 0.03800
C 	C 	0.92878 0.78450 0.50470 -0.09700
H 	H 	0.93810 0.81480 0.52240 0.06300
C 	C 	0.75010 0.03320 0.50890 0.04000
C 	C 	0.70380 0.04950 0.52800 -0.10400
H 	H 	0.67790 0.02490 0.53550 0.06300
C 	C 	0.89890 0.69430 0.46350 0.05000
H 	H 	0.88810 0.66190 0.45100 0.02700
N 	N 	0.28160 0.13330 0.35130 -0.07600
C 	C 	0.24480 0.12208 0.31830 0.04700
H 	H 	0.22740 0.14890 0.30120 0.03700
C 	C 	0.23190 0.07148 0.30920 -0.10300
H 	H 	0.20560 0.06390 0.28570 0.06600
C 	C 	0.25640 0.03180 0.33360 0.04400
C 	C 	0.29500 0.04527 0.36630 -0.10400
H 	H 	0.31500 0.01910 0.38180 0.06400
C 	C 	0.30500 0.09630 0.37710 0.05100
H 	H 	0.32860 0.10500 0.40290 0.02500
N 	N 	0.61480 0.71761 0.36740 -0.06200
C 	C 	0.60310 0.75930 0.34070 0.03100
H 	H 	0.62860 0.78470 0.33430 0.03800
C 	C 	0.55400 0.76570 0.32240 -0.09500
H 	H 	0.54790 0.79020 0.29680 0.06200
C 	C 	0.51370 0.73700 0.34040 0.03800
C 	C 	0.52743 0.69420 0.36760 -0.10300
H 	H 	0.50150 0.67100 0.37820 0.06300
C 	C 	0.57800 0.68440 0.37980 0.04900
H 	H 	0.58660 0.65370 0.39710 0.02600
La	La	0.25927 0.24894 0.41727 1.69900
O 	O 	0.69220 0.21060 0.30960 -0.26200
O 	O 	0.83130 0.28200 0.29730 -0.26000
O 	O 	0.79660 0.17200 0.30120 -0.26600
O 	O 	0.72380 0.31460 0.29650 -0.26500
O 	O 	0.22080 0.17220 0.45450 -0.27100
O 	O 	0.19350 0.22060 0.35940 -0.27000
O 	O 	0.28730 0.31120 0.48110 -0.26300
O 	O 	0.32810 0.20770 0.47240 -0.25300
O 	O 	0.76990 0.67400 0.37170 -0.26500
O 	O 	0.18560 0.27910 0.46440 -0.26900
O 	O 	0.70320 0.81600 0.35890 -0.26400
O 	O 	0.33880 0.29210 0.38170 -0.25800
N 	N 	0.64331 0.22520 0.31208 -0.07200
C 	C 	0.63248 0.26165 0.34522 0.05100
H 	H 	0.65970 0.27860 0.36230 0.03600
C 	C 	0.58223 0.27519 0.35501 -0.10600
H 	H 	0.57520 0.30130 0.37890 0.06800
C 	C 	0.54220 0.25162 0.33085 0.04400
C 	C 	0.55512 0.21390 0.29690 -0.10400
H 	H 	0.52860 0.19630 0.27950 0.06500
C 	C 	0.60571 0.20110 0.28767 0.04800
H 	H 	0.61370 0.17520 0.26390 0.02700
N 	N 	0.88260 0.27480 0.30110 -0.07000
C 	C 	0.91795 0.30660 0.28270 0.04800
H 	H 	0.90810 0.33350 0.26070 0.02600
C 	C 	0.96900 0.30040 0.29570 -0.10300
H 	H 	0.99340 0.32540 0.28530 0.06300
C 	C 	0.98520 0.25870 0.32320 0.04100
C 	C 	0.94725 0.22540 0.33820 -0.10100
H 	H 	0.95660 0.19340 0.35280 0.06300
C 	C 	0.89564 0.23720 0.33270 0.04500
H 	H 	0.87010 0.21890 0.35080 0.03400
N 	N 	0.78583 0.12449 0.31070 -0.06100
C 	C 	0.74520 0.11307 0.33900 0.03500
H 	H 	0.72380 0.13970 0.35180 0.04100
C 	C 	0.73440 0.06217 0.34970 -0.09500
H 	H 	0.70970 0.05420 0.37470 0.06300
C 	C 	0.75890 0.02270 0.32490 0.03800
C 	C 	0.80000 0.03615 0.29530 -0.09900
H 	H 	0.81910 0.01020 0.27860 0.06200
C 	C 	0.81370 0.08722 0.28990 0.04500
H 	H 	0.84340 0.09590 0.27100 0.02800
N 	N 	0.73320 0.36460 0.31150 -0.07100
C 	C 	0.69960 0.39844 0.29320 0.05400
H 	H 	0.67190 0.38730 0.27270 0.02800
C 	C 	0.70560 0.45007 0.30440 -0.10700
H 	H 	0.68310 0.47460 0.28970 0.06400
C 	C 	0.74340 0.46650 0.33650 0.04200
C 	C 	0.77740 0.43003 0.35270 -0.10200
H 	H 	0.80670 0.44050 0.37130 0.06400
C 	C 	0.77020 0.37860 0.34290 0.04400
H 	H 	0.79130 0.35340 0.35840 0.03400
N 	N 	0.22850 0.12462 0.47240 -0.06500
C 	C 	0.26780 0.11061 0.50120 0.03300
H 	H 	0.29320 0.13490 0.51100 0.03900
C 	C 	0.27080 0.05974 0.51670 -0.09700
H 	H 	0.29240 0.05100 0.54400 0.06400
C 	C 	0.24310 0.02170 0.49290 0.03900
C 	C 	0.20550 0.03813 0.46020 -0.10400
H 	H 	0.18300 0.01360 0.44550 0.06400
C 	C 	0.19990 0.08956 0.44870 0.05100
H 	H 	0.17590 0.10000 0.42390 0.02800
N 	N 	0.14330 0.23282 0.35020 -0.06900
C 	C 	0.10921 0.19880 0.36720 0.05100
H 	H 	0.12080 0.16850 0.38370 0.02800
C 	C 	0.05710 0.20720 0.36100 -0.10300
H 	H 	0.03330 0.18450 0.37650 0.06300
C 	C 	0.03900 0.24760 0.33280 0.03800
C 	C 	0.07557 0.28390 0.32040 -0.09700
H 	H 	0.06490 0.31710 0.30990 0.06200
C 	C 	0.12750 0.27280 0.32300 0.04100
H 	H 	0.15170 0.29350 0.30550 0.03600
N 	N 	0.27513 0.36140 0.48960 -0.07100
C 	C 	0.23370 0.37428 0.51610 0.04500
H 	H 	0.21230 0.34850 0.53020 0.03800
C 	C 	0.22230 0.42591 0.52290 -0.10100
H 	H 	0.19490 0.43530 0.54450 0.06500
C 	C 	0.24980 0.46380 0.49910 0.04300
C 	C 	0.29000 0.44797 0.46960 -0.10300
H 	H 	0.30770 0.47240 0.44950 0.06500
C 	C 	0.30500 0.39693 0.46850 0.04900
H 	H 	0.33640 0.38730 0.45300 0.02700
N 	N 	0.37870 0.21920 0.47590 -0.07300
C 	C 	0.39230 0.25860 0.50480 0.04300
H 	H 	0.36660 0.27900 0.52040 0.03800
C 	C 	0.44365 0.27000 0.51230 -0.09700
H 	H 	0.45280 0.30020 0.53020 0.06300
C 	C 	0.23810 0.51800 0.50580 0.03900
C 	C 	0.19710 0.53450 0.53410 -0.10000
H 	H 	0.17230 0.51010 0.54500 0.06200
C 	C 	0.41440 0.19100 0.45310 0.04800
H 	H 	0.40480 0.16690 0.42810 0.02500
N 	N 	0.76496 0.62270 0.36950 -0.06600
C 	C 	0.72330 0.60957 0.34370 0.04700
H 	H 	0.69960 0.63490 0.33270 0.03300
C 	C 	0.71540 0.55819 0.33350 -0.10200
H 	H 	0.68410 0.54810 0.31800 0.06300
C 	C 	0.75110 0.52100 0.34490 0.03900
C 	C 	0.79320 0.53740 0.37100 -0.10200
H 	H 	0.81660 0.51270 0.38410 0.06200
C 	C 	0.80270 0.58910 0.37860 0.04700
H 	H 	0.83530 0.60060 0.39020 0.02700
N 	N 	0.13560 0.26899 0.47290 -0.06500
C 	C 	0.12236 0.22390 0.49320 0.03800
H 	H 	0.14750 0.19820 0.49960 0.03800
C 	C 	0.07122 0.21550 0.50470 -0.09700
H 	H 	0.06190 0.18520 0.52240 0.06300
C 	C 	0.24990 0.96680 0.50890 0.04000
C 	C 	0.29620 0.95050 0.52800 -0.10400
H 	H 	0.32210 0.97510 0.53550 0.06300
C 	C 	0.10110 0.30570 0.46350 0.05000
H 	H 	0.11190 0.33810 0.45100 0.02700
N 	N 	0.71840 0.86670 0.35130 -0.07600
C 	C 	0.75520 0.87792 0.31830 0.04700
H 	H 	0.77260 0.85110 0.30120 0.03700
C 	C 	0.76810 0.92852 0.30920 -0.10300
H 	H 	0.79440 0.93610 0.28570 0.06600
C 	C 	0.74360 0.96820 0.33360 0.04400
C 	C 	0.70500 0.95473 0.36630 -0.10400
H 	H 	0.68500 0.98090 0.38180 0.06400
C 	C 	0.69500 0.90370 0.37710 0.05100
H 	H 	0.67140 0.89500 0.40290 0.02500
N 	N 	0.38520 0.28239 0.36740 -0.06200
C 	C 	0.39690 0.24070 0.34070 0.03100
H 	H 	0.37140 0.21530 0.33430 0.03800
C 	C 	0.44600 0.23430 0.32240 -0.09500
H 	H 	0.45210 0.20980 0.29680 0.06200
C 	C 	0.48630 0.26300 0.34040 0.03800
C 	C 	0.47257 0.30580 0.36760 -0.10300
H 	H 	0.49850 0.32900 0.37820 0.06300
C 	C 	0.42200 0.31560 0.37980 0.04900
H 	H 	0.41340 0.34630 0.39710 0.02600
La	La	0.75863 0.24137 0.25000 1.69800
La	La	0.24137 0.75863 0.25000 1.69800
La	La	0.24137 0.24137 0.75000 1.69800
La	La	0.75863 0.75863 0.75000 1.69800
