data_crystal

_cell_length_a 10.01240
_cell_length_b 14.19080
_cell_length_c 21.64820
_cell_angle_alpha 90.00000
_cell_angle_beta  102.26500
_cell_angle_gamma 90.00000

_symmetry_space_group_name_	'P 1'
_symmetry_space_group_name_H-M	'P 1'

loop_
_symmetry_equiv_pos_as_xyz
  x,y,z

loop_
_atom_site_label
_atom_site_type_symbol
_atom_site_fract_x
_atom_site_fract_y
_atom_site_fract_z
_atom_site_charge
Cu	Cu	0.06252 0.66638 0.94015 0.82100
Cu	Cu	0.87468 0.49449 0.94807 0.86700
Cu	Cu	0.93748 0.66638 0.55985 0.82200
Cu	Cu	0.12532 0.49449 0.55193 0.86600
Cu	Cu	0.93748 0.33362 0.05985 0.82200
Cu	Cu	0.12532 0.50551 0.05193 0.86800
Cu	Cu	0.06252 0.33362 0.44015 0.82300
Cu	Cu	0.87468 0.50551 0.44807 0.86700
H 	H 	0.93660 0.62600 0.02500 0.14000
H 	H 	0.90840 0.35740 0.84580 -0.07000
H 	H 	0.43400 0.00630 0.83330 0.02400
H 	H 	0.54480 0.93190 0.82420 0.01700
H 	H 	0.41020 0.89110 0.89970 0.12800
H 	H 	0.64920 0.12690 0.74560 0.02800
H 	H 	0.69990 0.05080 0.79840 0.02400
H 	H 	0.80690 0.22260 0.80070 0.13400
H 	H 	0.06890 0.69170 0.80600 -0.05300
H 	H 	0.17470 0.78210 0.74290 0.14100
H 	H 	0.29330 0.80150 0.95780 -0.06400
H 	H 	0.51330 0.26140 0.89880 0.12800
H 	H 	0.62370 0.39520 0.93980 -0.06700
H 	H 	0.64430 0.75890 0.82290 0.41000
H 	H 	0.57340 0.66010 0.81130 0.38600
H 	H 	0.56590 0.71770 0.87220 0.39500
H 	H 	0.06340 0.62600 0.47500 0.14200
H 	H 	0.09160 0.35740 0.65420 -0.07000
H 	H 	0.56600 0.00630 0.66670 0.02400
H 	H 	0.45520 0.93190 0.67580 0.01700
H 	H 	0.58980 0.89110 0.60030 0.12700
H 	H 	0.35080 0.12690 0.75440 0.02800
H 	H 	0.30010 0.05080 0.70160 0.02400
H 	H 	0.19310 0.22260 0.69930 0.13300
H 	H 	0.93110 0.69170 0.69400 -0.05200
H 	H 	0.82530 0.78210 0.75710 0.14200
H 	H 	0.70670 0.80150 0.54220 -0.06300
H 	H 	0.48670 0.26140 0.60120 0.12800
H 	H 	0.37630 0.39520 0.56020 -0.06700
H 	H 	0.35570 0.75890 0.67710 0.41000
H 	H 	0.42660 0.66010 0.68870 0.38600
H 	H 	0.43410 0.71770 0.62780 0.39500
H 	H 	0.06340 0.37400 0.97500 0.14000
H 	H 	0.09160 0.64260 0.15420 -0.07000
H 	H 	0.56600 0.99370 0.16670 0.02400
H 	H 	0.45520 0.06810 0.17580 0.01700
H 	H 	0.58980 0.10890 0.10030 0.12800
H 	H 	0.35080 0.87310 0.25440 0.02800
H 	H 	0.30010 0.94920 0.20160 0.02400
H 	H 	0.19310 0.77740 0.19930 0.13400
H 	H 	0.93110 0.30830 0.19400 -0.05300
H 	H 	0.82530 0.21790 0.25710 0.14100
H 	H 	0.70670 0.19850 0.04220 -0.06400
H 	H 	0.48670 0.73860 0.10120 0.12800
H 	H 	0.37630 0.60480 0.06020 -0.06700
H 	H 	0.35570 0.24110 0.17710 0.41000
H 	H 	0.42660 0.33990 0.18870 0.38600
H 	H 	0.43410 0.28230 0.12780 0.39500
H 	H 	0.93660 0.37400 0.52500 0.14200
H 	H 	0.90840 0.64260 0.34580 -0.07000
H 	H 	0.43400 0.99370 0.33330 0.02400
H 	H 	0.54480 0.06810 0.32420 0.01700
H 	H 	0.41020 0.10890 0.39970 0.12700
H 	H 	0.64920 0.87310 0.24560 0.02800
H 	H 	0.69990 0.94920 0.29840 0.02400
H 	H 	0.80690 0.77740 0.30070 0.13300
H 	H 	0.06890 0.30830 0.30600 -0.05200
H 	H 	0.17470 0.21790 0.24290 0.14200
H 	H 	0.29330 0.19850 0.45780 -0.06300
H 	H 	0.51330 0.73860 0.39880 0.12800
H 	H 	0.62370 0.60480 0.43980 -0.06700
H 	H 	0.64430 0.24110 0.32290 0.41000
H 	H 	0.57340 0.33990 0.31130 0.38600
H 	H 	0.56590 0.28230 0.37220 0.39500
C 	C 	0.82860 0.33680 0.85710 0.16300
C 	C 	0.30270 0.84900 0.81473 0.29200
C 	C 	0.46480 0.96650 0.80271 0.04700
C 	C 	0.33930 0.85230 0.87956 -0.31500
C 	C 	0.62250 0.08910 0.77830 0.04700
C 	C 	0.76840 0.25610 0.82948 -0.31800
C 	C 	0.75110 0.65600 0.87735 0.69700
C 	C 	0.13700 0.73340 0.82492 0.15700
C 	C 	0.20010 0.78710 0.78671 -0.30400
C 	C 	0.64990 0.22570 0.84537 0.30500
C 	C 	0.26960 0.79750 0.91391 0.15000
C 	C 	0.59440 0.27930 0.88760 -0.29900
C 	C 	0.66180 0.35890 0.91230 0.14200
C 	C 	0.62210 0.70240 0.84280 -1.24600
C 	C 	0.17140 0.33680 0.64290 0.16300
C 	C 	0.69730 0.84900 0.68527 0.29200
C 	C 	0.53520 0.96650 0.69729 0.04700
C 	C 	0.66070 0.85230 0.62044 -0.31500
C 	C 	0.37750 0.08910 0.72170 0.04700
C 	C 	0.23160 0.25610 0.67052 -0.31800
C 	C 	0.24890 0.65600 0.62265 0.69700
C 	C 	0.86300 0.73340 0.67508 0.15700
C 	C 	0.79990 0.78710 0.71329 -0.30300
C 	C 	0.35010 0.22570 0.65463 0.30400
C 	C 	0.73040 0.79750 0.58609 0.15000
C 	C 	0.40560 0.27930 0.61240 -0.29900
C 	C 	0.33820 0.35890 0.58770 0.14200
C 	C 	0.37790 0.70240 0.65720 -1.24600
C 	C 	0.17140 0.66320 0.14290 0.16300
C 	C 	0.69730 0.15100 0.18527 0.29200
C 	C 	0.53520 0.03350 0.19729 0.04700
C 	C 	0.66070 0.14770 0.12044 -0.31500
C 	C 	0.37750 0.91090 0.22170 0.04700
C 	C 	0.23160 0.74390 0.17052 -0.31800
C 	C 	0.24890 0.34400 0.12265 0.69700
C 	C 	0.86300 0.26660 0.17508 0.15700
C 	C 	0.79990 0.21290 0.21329 -0.30400
C 	C 	0.35010 0.77430 0.15463 0.30500
C 	C 	0.73040 0.20250 0.08609 0.15000
C 	C 	0.40560 0.72070 0.11240 -0.29900
C 	C 	0.33820 0.64110 0.08770 0.14200
C 	C 	0.37790 0.29760 0.15720 -1.24600
C 	C 	0.82860 0.66320 0.35710 0.16300
C 	C 	0.30270 0.15100 0.31473 0.29200
C 	C 	0.46480 0.03350 0.30271 0.04700
C 	C 	0.33930 0.14770 0.37956 -0.31500
C 	C 	0.62250 0.91090 0.27830 0.04700
C 	C 	0.76840 0.74390 0.32948 -0.31800
C 	C 	0.75110 0.34400 0.37735 0.69700
C 	C 	0.13700 0.26660 0.32492 0.15700
C 	C 	0.20010 0.21290 0.28671 -0.30300
C 	C 	0.64990 0.77430 0.34537 0.30400
C 	C 	0.26960 0.20250 0.41391 0.15000
C 	C 	0.59440 0.72070 0.38760 -0.29900
C 	C 	0.66180 0.64110 0.41230 0.14200
C 	C 	0.62210 0.29760 0.34280 -1.24600
C 	C 	0.50000 0.02650 0.75000 -0.02000
C 	C 	0.50000 0.97350 0.25000 -0.02000
N 	N 	0.77960 0.38720 0.89887 -0.28400
N 	N 	0.16880 0.73820 0.88793 -0.29100
N 	N 	0.22040 0.38720 0.60113 -0.28400
N 	N 	0.83120 0.73820 0.61207 -0.29000
N 	N 	0.22040 0.61280 0.10113 -0.28400
N 	N 	0.83120 0.26180 0.11207 -0.29100
N 	N 	0.77960 0.61280 0.39887 -0.28400
N 	N 	0.16880 0.26180 0.38793 -0.29000
O 	O 	0.98770 0.58880 0.99965 -0.69800
O 	O 	0.35840 0.90219 0.77467 -0.27700
O 	O 	0.57870 0.14794 0.82368 -0.27200
O 	O 	0.73500 0.57967 0.90647 -0.54600
O 	O 	0.86170 0.69290 0.87586 -0.53000
O 	O 	0.01230 0.58880 0.50035 -0.70100
O 	O 	0.64160 0.90219 0.72533 -0.27700
O 	O 	0.42130 0.14794 0.67632 -0.27200
O 	O 	0.26500 0.57967 0.59353 -0.54600
O 	O 	0.13830 0.69290 0.62414 -0.53100
O 	O 	0.01230 0.41120 0.00035 -0.69800
O 	O 	0.64160 0.09781 0.22533 -0.27700
O 	O 	0.42130 0.85206 0.17632 -0.27200
O 	O 	0.26500 0.42033 0.09353 -0.54600
O 	O 	0.13830 0.30710 0.12414 -0.53000
O 	O 	0.98770 0.41120 0.49965 -0.70100
O 	O 	0.35840 0.09781 0.27467 -0.27700
O 	O 	0.57870 0.85206 0.32368 -0.27200
O 	O 	0.73500 0.42033 0.40647 -0.54600
O 	O 	0.86170 0.30710 0.37586 -0.53100
