data_crystal

_cell_length_a 37.94100
_cell_length_b 19.90260
_cell_length_c 14.35330
_cell_angle_alpha 90.00000
_cell_angle_beta  90.00000
_cell_angle_gamma 90.00000

_symmetry_space_group_name_	'P 1'
_symmetry_space_group_name_H-M	'P 1'

loop_
_symmetry_equiv_pos_as_xyz
  x,y,z

loop_
_atom_site_label
_atom_site_type_symbol
_atom_site_fract_x
_atom_site_fract_y
_atom_site_fract_z
_atom_site_charge
Cd	Cd	0.61576 0.23933 0.50153 1.17400
Cd	Cd	0.24773 0.18304 0.75122 1.21800
Cd	Cd	0.32394 0.29005 0.41037 1.22200
Cd	Cd	0.31985 0.17015 0.58817 1.22400
C 	C 	0.36090 0.27890 0.20320 0.22300
C 	C 	0.22230 0.10230 0.36730 0.01600
H 	H 	0.20960 0.14100 0.35400 0.01200
C 	C 	0.45060 0.26440 0.44500 0.01700
H 	H 	0.43840 0.29420 0.40700 0.02500
C 	C 	0.27700 0.04830 0.39670 0.01800
H 	H 	0.30120 0.05050 0.40670 0.02400
C 	C 	0.26050 0.98690 0.39580 -0.04400
H 	H 	0.27380 0.94780 0.40130 0.04000
C 	C 	0.23430 0.48470 0.62970 -0.06300
C 	C 	0.21650 0.55230 0.62520 0.32400
C 	C 	0.31520 0.19540 0.88210 0.11100
H 	H 	0.30130 0.20180 0.93470 -0.04300
C 	C 	0.28540 0.29610 0.60410 0.35500
C 	C 	0.35900 0.19170 0.79460 0.18400
C 	C 	0.22430 0.98290 0.38680 -0.07300
C 	C 	0.26770 0.36170 0.61850 -0.11500
C 	C 	0.54560 0.22810 0.50700 0.30600
C 	C 	0.45130 0.17690 0.55640 0.01500
H 	H 	0.43940 0.14610 0.59360 0.02600
C 	C 	0.20620 0.91660 0.39370 0.32400
C 	C 	0.48790 0.17980 0.55900 -0.05700
H 	H 	0.50030 0.15060 0.59760 0.05800
C 	C 	0.27110 0.48120 0.62950 -0.03500
H 	H 	0.28440 0.52020 0.63510 0.04200
C 	C 	0.50580 0.22450 0.50600 -0.04300
C 	C 	0.20550 0.04060 0.37130 -0.04500
H 	H 	0.18120 0.03830 0.36340 0.04500
C 	C 	0.23140 0.36580 0.62470 0.00800
H 	H 	0.21810 0.32650 0.62610 0.01300
C 	C 	0.43250 0.21920 0.49920 -0.12300
C 	C 	0.39340 0.21800 0.49790 0.38900
C 	C 	0.28730 0.42060 0.62100 0.00500
H 	H 	0.31170 0.41860 0.61670 0.03500
C 	C 	0.31920 0.30720 0.11110 0.19700
C 	C 	0.25820 0.10620 0.38300 -0.13700
C 	C 	0.27520 0.17330 0.38490 0.40100
C 	C 	0.48710 0.26550 0.44700 -0.06000
H 	H 	0.49910 0.29450 0.40750 0.05900
C 	C 	0.21470 0.42670 0.62890 -0.04100
H 	H 	0.19020 0.42880 0.63110 0.03900
O 	O 	0.17360 0.91400 0.40610 -0.37100
O 	O 	0.26240 0.22060 0.34110 -0.47900
O 	O 	0.22399 0.86350 0.38720 -0.51100
O 	O 	0.30373 0.18050 0.43200 -0.53500
O 	O 	0.23530 0.60460 0.63960 -0.48100
O 	O 	0.56080 0.26130 0.44440 -0.43000
O 	O 	0.18516 0.55630 0.59930 -0.40600
O 	O 	0.56120 0.19660 0.56730 -0.41000
O 	O 	0.37739 0.17990 0.55310 -0.45000
O 	O 	0.31630 0.29430 0.57090 -0.49300
O 	O 	0.37887 0.25720 0.44070 -0.45700
O 	O 	0.26892 0.24290 0.62090 -0.50600
N 	N 	0.33403 0.29100 0.25720 -0.24900
N 	N 	0.30699 0.31070 0.19750 -0.24200
N 	N 	0.35374 0.28680 0.11240 -0.31900
N 	N 	0.30190 0.32630 0.03930 -0.34100
H 	H 	0.28100 0.34270 0.04560 0.15400
H 	H 	0.31110 0.32280 0.98480 0.11800
N 	N 	0.39280 0.19050 0.76250 -0.34400
H 	H 	0.39690 0.18270 0.70460 0.16000
H 	H 	0.41000 0.19750 0.80020 0.14600
N 	N 	0.33066 0.18150 0.74260 -0.23100
N 	N 	0.30177 0.18230 0.80290 -0.23500
N 	N 	0.35060 0.19950 0.88570 -0.30300
N 	N 	0.39180 0.26910 0.23290 -0.36600
H 	H 	0.39600 0.27020 0.29180 0.16200
H 	H 	0.40870 0.26120 0.19440 0.14200
Cd	Cd	0.88424 0.26067 0.00153 1.17400
Cd	Cd	0.25227 0.31696 0.25122 1.21900
Cd	Cd	0.17606 0.20995 0.91037 1.22300
Cd	Cd	0.18015 0.32985 0.08817 1.22500
C 	C 	0.13910 0.22110 0.70320 0.22300
C 	C 	0.27770 0.39770 0.86730 0.01600
H 	H 	0.29040 0.35900 0.85400 0.01200
C 	C 	0.04940 0.23560 0.94500 0.01800
H 	H 	0.06160 0.20580 0.90700 0.02500
C 	C 	0.22300 0.45170 0.89670 0.01800
H 	H 	0.19880 0.44950 0.90670 0.02400
C 	C 	0.23950 0.51310 0.89580 -0.04400
H 	H 	0.22620 0.55220 0.90130 0.04000
C 	C 	0.26570 0.01530 0.12970 -0.06300
C 	C 	0.28350 0.94770 0.12520 0.32500
C 	C 	0.18480 0.30460 0.38210 0.11100
H 	H 	0.19870 0.29820 0.43470 -0.04300
C 	C 	0.21460 0.20390 0.10410 0.35600
C 	C 	0.14100 0.30830 0.29460 0.18500
C 	C 	0.27570 0.51710 0.88680 -0.07300
C 	C 	0.23230 0.13830 0.11850 -0.11500
C 	C 	0.95440 0.27190 0.00700 0.30400
C 	C 	0.04870 0.32310 0.05640 0.01700
H 	H 	0.06060 0.35390 0.09360 0.02600
C 	C 	0.29380 0.58340 0.89370 0.32400
C 	C 	0.01210 0.32020 0.05900 -0.05600
H 	H 	0.99970 0.34940 0.09760 0.05800
C 	C 	0.22890 0.01880 0.12950 -0.03500
H 	H 	0.21560 0.97980 0.13510 0.04200
C 	C 	0.99420 0.27550 0.00600 -0.04300
C 	C 	0.29450 0.45940 0.87130 -0.04500
H 	H 	0.31880 0.46170 0.86340 0.04500
C 	C 	0.26860 0.13420 0.12470 0.00800
H 	H 	0.28190 0.17350 0.12610 0.01300
C 	C 	0.06750 0.28080 0.99920 -0.12400
C 	C 	0.10660 0.28200 0.99790 0.38700
C 	C 	0.21270 0.07940 0.12100 0.00600
H 	H 	0.18830 0.08140 0.11670 0.03500
C 	C 	0.18080 0.19280 0.61110 0.19700
C 	C 	0.24180 0.39380 0.88300 -0.13700
C 	C 	0.22480 0.32670 0.88490 0.40100
C 	C 	0.01290 0.23450 0.94700 -0.06100
H 	H 	0.00090 0.20550 0.90750 0.05900
C 	C 	0.28530 0.07330 0.12890 -0.04000
H 	H 	0.30980 0.07120 0.13110 0.03900
O 	O 	0.32640 0.58600 0.90610 -0.37200
O 	O 	0.23760 0.27940 0.84110 -0.47900
O 	O 	0.27601 0.63650 0.88720 -0.51200
O 	O 	0.19627 0.31950 0.93200 -0.53600
O 	O 	0.26470 0.89540 0.13960 -0.48100
O 	O 	0.93920 0.23870 0.94440 -0.42900
O 	O 	0.31484 0.94370 0.09930 -0.40500
O 	O 	0.93880 0.30340 0.06730 -0.41000
O 	O 	0.12261 0.32010 0.05310 -0.44800
O 	O 	0.18370 0.20570 0.07090 -0.49100
O 	O 	0.12113 0.24280 0.94070 -0.45700
O 	O 	0.23108 0.25710 0.12090 -0.50500
N 	N 	0.16597 0.20900 0.75720 -0.24900
N 	N 	0.19301 0.18930 0.69750 -0.24200
N 	N 	0.14626 0.21320 0.61240 -0.32000
N 	N 	0.19810 0.17370 0.53930 -0.34400
H 	H 	0.21900 0.15730 0.54560 0.15400
H 	H 	0.18890 0.17720 0.48480 0.12100
N 	N 	0.10720 0.30950 0.26250 -0.34400
H 	H 	0.10310 0.31730 0.20460 0.16000
H 	H 	0.09000 0.30250 0.30020 0.14600
N 	N 	0.16934 0.31850 0.24260 -0.23100
N 	N 	0.19823 0.31770 0.30290 -0.23500
N 	N 	0.14940 0.30050 0.38570 -0.30200
N 	N 	0.10820 0.23090 0.73290 -0.36600
H 	H 	0.10400 0.22980 0.79180 0.16200
H 	H 	0.09130 0.23880 0.69440 0.14200
Cd	Cd	0.38424 0.23933 0.99847 1.17500
Cd	Cd	0.75227 0.18304 0.74878 1.21900
Cd	Cd	0.67606 0.29005 0.08963 1.22300
Cd	Cd	0.68015 0.17015 0.91183 1.22500
C 	C 	0.63910 0.27890 0.29680 0.22300
C 	C 	0.77770 0.10230 0.13270 0.01600
H 	H 	0.79040 0.14100 0.14600 0.01200
C 	C 	0.54940 0.26440 0.05500 0.01900
H 	H 	0.56160 0.29420 0.09300 0.02500
C 	C 	0.72300 0.04830 0.10330 0.01800
H 	H 	0.69880 0.05050 0.09330 0.02400
C 	C 	0.73950 0.98690 0.10420 -0.04400
H 	H 	0.72620 0.94780 0.09870 0.04000
C 	C 	0.76570 0.48470 0.87030 -0.06300
C 	C 	0.78350 0.55230 0.87480 0.32500
C 	C 	0.68480 0.19540 0.61790 0.11100
H 	H 	0.69870 0.20180 0.56530 -0.04300
C 	C 	0.71460 0.29610 0.89590 0.35600
C 	C 	0.64100 0.19170 0.70540 0.18500
C 	C 	0.77570 0.98290 0.11320 -0.07300
C 	C 	0.73230 0.36170 0.88150 -0.11500
C 	C 	0.45440 0.22810 0.99300 0.30400
C 	C 	0.54870 0.17690 0.94360 0.01700
H 	H 	0.56060 0.14610 0.90640 0.02600
C 	C 	0.79380 0.91660 0.10630 0.32400
C 	C 	0.51210 0.17980 0.94100 -0.05900
H 	H 	0.49970 0.15060 0.90240 0.05900
C 	C 	0.72890 0.48120 0.87050 -0.03500
H 	H 	0.71560 0.52020 0.86490 0.04300
C 	C 	0.49420 0.22450 0.99400 -0.04200
C 	C 	0.79450 0.04060 0.12870 -0.04500
H 	H 	0.81880 0.03830 0.13660 0.04500
C 	C 	0.76860 0.36580 0.87530 0.00900
H 	H 	0.78190 0.32650 0.87390 0.01300
C 	C 	0.56750 0.21920 0.00080 -0.12400
C 	C 	0.60660 0.21800 0.00210 0.38700
C 	C 	0.71270 0.42060 0.87900 0.00600
H 	H 	0.68830 0.41860 0.88330 0.03500
C 	C 	0.68080 0.30720 0.38890 0.19700
C 	C 	0.74180 0.10620 0.11700 -0.13700
C 	C 	0.72480 0.17330 0.11510 0.40100
C 	C 	0.51290 0.26550 0.05300 -0.06100
H 	H 	0.50090 0.29450 0.09250 0.05900
C 	C 	0.78530 0.42670 0.87110 -0.04100
H 	H 	0.80980 0.42880 0.86890 0.04000
O 	O 	0.82640 0.91400 0.09390 -0.37200
O 	O 	0.73760 0.22060 0.15890 -0.47900
O 	O 	0.77601 0.86350 0.11280 -0.51200
O 	O 	0.69627 0.18050 0.06800 -0.53600
O 	O 	0.76470 0.60460 0.86040 -0.48100
O 	O 	0.43920 0.26130 0.05560 -0.42900
O 	O 	0.81484 0.55630 0.90070 -0.40500
O 	O 	0.43880 0.19660 0.93270 -0.41000
O 	O 	0.62261 0.17990 0.94690 -0.44800
O 	O 	0.68370 0.29430 0.92910 -0.49100
O 	O 	0.62113 0.25720 0.05930 -0.45700
O 	O 	0.73108 0.24290 0.87910 -0.50500
N 	N 	0.66597 0.29100 0.24280 -0.24900
N 	N 	0.69301 0.31070 0.30250 -0.24200
N 	N 	0.64626 0.28680 0.38760 -0.32000
N 	N 	0.69810 0.32630 0.46070 -0.34400
H 	H 	0.71900 0.34270 0.45440 0.15400
H 	H 	0.68890 0.32280 0.51520 0.12100
N 	N 	0.60720 0.19050 0.73750 -0.34400
H 	H 	0.60310 0.18270 0.79540 0.16000
H 	H 	0.59000 0.19750 0.69980 0.14600
N 	N 	0.66934 0.18150 0.75740 -0.23100
N 	N 	0.69823 0.18230 0.69710 -0.23500
N 	N 	0.64940 0.19950 0.61430 -0.30200
N 	N 	0.60820 0.26910 0.26710 -0.36600
H 	H 	0.60400 0.27020 0.20820 0.16200
H 	H 	0.59130 0.26120 0.30560 0.14200
Cd	Cd	0.11576 0.26067 0.49847 1.17500
Cd	Cd	0.74773 0.31696 0.24878 1.21900
Cd	Cd	0.82394 0.20995 0.58963 1.22300
Cd	Cd	0.81985 0.32985 0.41183 1.22500
C 	C 	0.86090 0.22110 0.79680 0.22300
C 	C 	0.72230 0.39770 0.63270 0.01600
H 	H 	0.70960 0.35900 0.64600 0.01200
C 	C 	0.95060 0.23560 0.55500 0.01700
H 	H 	0.93840 0.20580 0.59300 0.02500
C 	C 	0.77700 0.45170 0.60330 0.01800
H 	H 	0.80120 0.44950 0.59330 0.02400
C 	C 	0.76050 0.51310 0.60420 -0.04400
H 	H 	0.77380 0.55220 0.59870 0.04000
C 	C 	0.73430 0.01530 0.37030 -0.06400
C 	C 	0.71650 0.94770 0.37480 0.32400
C 	C 	0.81520 0.30460 0.11790 0.11100
H 	H 	0.80130 0.29820 0.06530 -0.04300
C 	C 	0.78540 0.20390 0.39590 0.35500
C 	C 	0.85900 0.30830 0.20540 0.18400
C 	C 	0.72430 0.51710 0.61320 -0.07300
C 	C 	0.76770 0.13830 0.38150 -0.11500
C 	C 	0.04560 0.27190 0.49300 0.30600
C 	C 	0.95130 0.32310 0.44360 0.01500
H 	H 	0.93940 0.35390 0.40640 0.02600
C 	C 	0.70620 0.58340 0.60630 0.32400
C 	C 	0.98790 0.32020 0.44100 -0.05700
H 	H 	0.00030 0.34940 0.40240 0.05800
C 	C 	0.77110 0.01880 0.37050 -0.03500
H 	H 	0.78440 0.97980 0.36490 0.04200
C 	C 	0.00580 0.27550 0.49400 -0.04300
C 	C 	0.70550 0.45940 0.62870 -0.04500
H 	H 	0.68120 0.46170 0.63660 0.04500
C 	C 	0.73140 0.13420 0.37530 0.00800
H 	H 	0.71810 0.17350 0.37390 0.01300
C 	C 	0.93250 0.28080 0.50080 -0.12300
C 	C 	0.89340 0.28200 0.50210 0.38900
C 	C 	0.78730 0.07940 0.37900 0.00500
H 	H 	0.81170 0.08140 0.38330 0.03500
C 	C 	0.81920 0.19280 0.88890 0.19700
C 	C 	0.75820 0.39380 0.61700 -0.13700
C 	C 	0.77520 0.32670 0.61510 0.40100
C 	C 	0.98710 0.23450 0.55300 -0.06000
H 	H 	0.99910 0.20550 0.59250 0.05900
C 	C 	0.71470 0.07330 0.37110 -0.04100
H 	H 	0.69020 0.07120 0.36890 0.03900
O 	O 	0.67360 0.58600 0.59390 -0.37100
O 	O 	0.76240 0.27940 0.65890 -0.47900
O 	O 	0.72399 0.63650 0.61280 -0.51100
O 	O 	0.80373 0.31950 0.56800 -0.53500
O 	O 	0.73530 0.89540 0.36040 -0.48100
O 	O 	0.06080 0.23870 0.55560 -0.43000
O 	O 	0.68516 0.94370 0.40070 -0.40600
O 	O 	0.06120 0.30340 0.43270 -0.41000
O 	O 	0.87739 0.32010 0.44690 -0.45000
O 	O 	0.81630 0.20570 0.42910 -0.49300
O 	O 	0.87887 0.24280 0.55930 -0.45700
O 	O 	0.76892 0.25710 0.37910 -0.50600
N 	N 	0.83403 0.20900 0.74280 -0.24900
N 	N 	0.80699 0.18930 0.80250 -0.24200
N 	N 	0.85374 0.21320 0.88760 -0.31900
N 	N 	0.80190 0.17370 0.96070 -0.34100
H 	H 	0.78100 0.15730 0.95440 0.15400
H 	H 	0.81110 0.17720 0.01520 0.11800
N 	N 	0.89280 0.30950 0.23750 -0.34400
H 	H 	0.89690 0.31730 0.29540 0.16000
H 	H 	0.91000 0.30250 0.19980 0.14600
N 	N 	0.83066 0.31850 0.25740 -0.23100
N 	N 	0.80177 0.31770 0.19710 -0.23500
N 	N 	0.85060 0.30050 0.11430 -0.30300
N 	N 	0.89180 0.23090 0.76710 -0.36600
H 	H 	0.89600 0.22980 0.70820 0.16200
H 	H 	0.90870 0.23880 0.80560 0.14200
Cd	Cd	0.38424 0.76067 0.49847 1.17500
Cd	Cd	0.75227 0.81696 0.24878 1.21900
Cd	Cd	0.67606 0.70995 0.58963 1.22300
Cd	Cd	0.68015 0.82985 0.41183 1.22500
C 	C 	0.63910 0.72110 0.79680 0.22300
C 	C 	0.77770 0.89770 0.63270 0.01600
H 	H 	0.79040 0.85900 0.64600 0.01200
C 	C 	0.54940 0.73560 0.55500 0.01700
H 	H 	0.56160 0.70580 0.59300 0.02500
C 	C 	0.72300 0.95170 0.60330 0.01800
H 	H 	0.69880 0.94950 0.59330 0.02400
C 	C 	0.73950 0.01310 0.60420 -0.04400
H 	H 	0.72620 0.05220 0.59870 0.04000
C 	C 	0.76570 0.51530 0.37030 -0.06300
C 	C 	0.78350 0.44770 0.37480 0.32400
C 	C 	0.68480 0.80460 0.11790 0.11100
H 	H 	0.69870 0.79820 0.06530 -0.04300
C 	C 	0.71460 0.70390 0.39590 0.35500
C 	C 	0.64100 0.80830 0.20540 0.18400
C 	C 	0.77570 0.01710 0.61320 -0.07300
C 	C 	0.73230 0.63830 0.38150 -0.11500
C 	C 	0.45440 0.77190 0.49300 0.30600
C 	C 	0.54870 0.82310 0.44360 0.01500
H 	H 	0.56060 0.85390 0.40640 0.02600
C 	C 	0.79380 0.08340 0.60630 0.32400
C 	C 	0.51210 0.82020 0.44100 -0.05700
H 	H 	0.49970 0.84940 0.40240 0.05800
C 	C 	0.72890 0.51880 0.37050 -0.03500
H 	H 	0.71560 0.47980 0.36490 0.04200
C 	C 	0.49420 0.77550 0.49400 -0.04300
C 	C 	0.79450 0.95940 0.62870 -0.04500
H 	H 	0.81880 0.96170 0.63660 0.04500
C 	C 	0.76860 0.63420 0.37530 0.00800
H 	H 	0.78190 0.67350 0.37390 0.01300
C 	C 	0.56750 0.78080 0.50080 -0.12300
C 	C 	0.60660 0.78200 0.50210 0.38900
C 	C 	0.71270 0.57940 0.37900 0.00500
H 	H 	0.68830 0.58140 0.38330 0.03500
C 	C 	0.68080 0.69280 0.88890 0.19700
C 	C 	0.74180 0.89380 0.61700 -0.13700
C 	C 	0.72480 0.82670 0.61510 0.40100
C 	C 	0.51290 0.73450 0.55300 -0.06000
H 	H 	0.50090 0.70550 0.59250 0.05900
C 	C 	0.78530 0.57330 0.37110 -0.04100
H 	H 	0.80980 0.57120 0.36890 0.03900
O 	O 	0.82640 0.08600 0.59390 -0.37100
O 	O 	0.73760 0.77940 0.65890 -0.47900
O 	O 	0.77601 0.13650 0.61280 -0.51100
O 	O 	0.69627 0.81950 0.56800 -0.53500
O 	O 	0.76470 0.39540 0.36040 -0.48100
O 	O 	0.43920 0.73870 0.55560 -0.43000
O 	O 	0.81484 0.44370 0.40070 -0.40600
O 	O 	0.43880 0.80340 0.43270 -0.41000
O 	O 	0.62261 0.82010 0.44690 -0.45000
O 	O 	0.68370 0.70570 0.42910 -0.49300
O 	O 	0.62113 0.74280 0.55930 -0.45700
O 	O 	0.73108 0.75710 0.37910 -0.50600
N 	N 	0.66597 0.70900 0.74280 -0.24900
N 	N 	0.69301 0.68930 0.80250 -0.24200
N 	N 	0.64626 0.71320 0.88760 -0.31900
N 	N 	0.69810 0.67370 0.96070 -0.34100
H 	H 	0.71900 0.65730 0.95440 0.15400
H 	H 	0.68890 0.67720 0.01520 0.11800
N 	N 	0.60720 0.80950 0.23750 -0.34400
H 	H 	0.60310 0.81730 0.29540 0.16000
H 	H 	0.59000 0.80250 0.19980 0.14600
N 	N 	0.66934 0.81850 0.25740 -0.23100
N 	N 	0.69823 0.81770 0.19710 -0.23500
N 	N 	0.64940 0.80050 0.11430 -0.30300
N 	N 	0.60820 0.73090 0.76710 -0.36600
H 	H 	0.60400 0.72980 0.70820 0.16200
H 	H 	0.59130 0.73880 0.80560 0.14200
Cd	Cd	0.11576 0.73933 0.99847 1.17400
Cd	Cd	0.74773 0.68304 0.74878 1.21900
Cd	Cd	0.82394 0.79005 0.08963 1.22300
Cd	Cd	0.81985 0.67015 0.91183 1.22500
C 	C 	0.86090 0.77890 0.29680 0.22300
C 	C 	0.72230 0.60230 0.13270 0.01600
H 	H 	0.70960 0.64100 0.14600 0.01200
C 	C 	0.95060 0.76440 0.05500 0.01800
H 	H 	0.93840 0.79420 0.09300 0.02500
C 	C 	0.77700 0.54830 0.10330 0.01800
H 	H 	0.80120 0.55050 0.09330 0.02400
C 	C 	0.76050 0.48690 0.10420 -0.04400
H 	H 	0.77380 0.44780 0.09870 0.04000
C 	C 	0.73430 0.98470 0.87030 -0.06300
C 	C 	0.71650 0.05230 0.87480 0.32500
C 	C 	0.81520 0.69540 0.61790 0.11100
H 	H 	0.80130 0.70180 0.56530 -0.04300
C 	C 	0.78540 0.79610 0.89590 0.35600
C 	C 	0.85900 0.69170 0.70540 0.18500
C 	C 	0.72430 0.48290 0.11320 -0.07300
C 	C 	0.76770 0.86170 0.88150 -0.11500
C 	C 	0.04560 0.72810 0.99300 0.30400
C 	C 	0.95130 0.67690 0.94360 0.01700
H 	H 	0.93940 0.64610 0.90640 0.02600
C 	C 	0.70620 0.41660 0.10630 0.32400
C 	C 	0.98790 0.67980 0.94100 -0.05600
H 	H 	0.00030 0.65060 0.90240 0.05800
C 	C 	0.77110 0.98120 0.87050 -0.03500
H 	H 	0.78440 0.02020 0.86490 0.04200
C 	C 	0.00580 0.72450 0.99400 -0.04300
C 	C 	0.70550 0.54060 0.12870 -0.04500
H 	H 	0.68120 0.53830 0.13660 0.04500
C 	C 	0.73140 0.86580 0.87530 0.00800
H 	H 	0.71810 0.82650 0.87390 0.01300
C 	C 	0.93250 0.71920 0.00080 -0.12400
C 	C 	0.89340 0.71800 0.00210 0.38700
C 	C 	0.78730 0.92060 0.87900 0.00600
H 	H 	0.81170 0.91860 0.88330 0.03500
C 	C 	0.81920 0.80720 0.38890 0.19700
C 	C 	0.75820 0.60620 0.11700 -0.13700
C 	C 	0.77520 0.67330 0.11510 0.40100
C 	C 	0.98710 0.76550 0.05300 -0.06100
H 	H 	0.99910 0.79450 0.09250 0.05900
C 	C 	0.71470 0.92670 0.87110 -0.04000
H 	H 	0.69020 0.92880 0.86890 0.03900
O 	O 	0.67360 0.41400 0.09390 -0.37200
O 	O 	0.76240 0.72060 0.15890 -0.47900
O 	O 	0.72399 0.36350 0.11280 -0.51200
O 	O 	0.80373 0.68050 0.06800 -0.53600
O 	O 	0.73530 0.10460 0.86040 -0.48100
O 	O 	0.06080 0.76130 0.05560 -0.42900
O 	O 	0.68516 0.05630 0.90070 -0.40500
O 	O 	0.06120 0.69660 0.93270 -0.41000
O 	O 	0.87739 0.67990 0.94690 -0.44800
O 	O 	0.81630 0.79430 0.92910 -0.49100
O 	O 	0.87887 0.75720 0.05930 -0.45700
O 	O 	0.76892 0.74290 0.87910 -0.50500
N 	N 	0.83403 0.79100 0.24280 -0.24900
N 	N 	0.80699 0.81070 0.30250 -0.24200
N 	N 	0.85374 0.78680 0.38760 -0.32000
N 	N 	0.80190 0.82630 0.46070 -0.34400
H 	H 	0.78100 0.84270 0.45440 0.15400
H 	H 	0.81110 0.82280 0.51520 0.12100
N 	N 	0.89280 0.69050 0.73750 -0.34400
H 	H 	0.89690 0.68270 0.79540 0.16000
H 	H 	0.91000 0.69750 0.69980 0.14600
N 	N 	0.83066 0.68150 0.75740 -0.23100
N 	N 	0.80177 0.68230 0.69710 -0.23500
N 	N 	0.85060 0.69950 0.61430 -0.30200
N 	N 	0.89180 0.76910 0.26710 -0.36600
H 	H 	0.89600 0.77020 0.20820 0.16200
H 	H 	0.90870 0.76120 0.30560 0.14200
Cd	Cd	0.61576 0.76067 0.00153 1.17500
Cd	Cd	0.24773 0.81696 0.25122 1.21900
Cd	Cd	0.32394 0.70995 0.91037 1.22300
Cd	Cd	0.31985 0.82985 0.08817 1.22500
C 	C 	0.36090 0.72110 0.70320 0.22300
C 	C 	0.22230 0.89770 0.86730 0.01600
H 	H 	0.20960 0.85900 0.85400 0.01200
C 	C 	0.45060 0.73560 0.94500 0.01900
H 	H 	0.43840 0.70580 0.90700 0.02500
C 	C 	0.27700 0.95170 0.89670 0.01800
H 	H 	0.30120 0.94950 0.90670 0.02400
C 	C 	0.26050 0.01310 0.89580 -0.04400
H 	H 	0.27380 0.05220 0.90130 0.04000
C 	C 	0.23430 0.51530 0.12970 -0.06300
C 	C 	0.21650 0.44770 0.12520 0.32500
C 	C 	0.31520 0.80460 0.38210 0.11100
H 	H 	0.30130 0.79820 0.43470 -0.04300
C 	C 	0.28540 0.70390 0.10410 0.35600
C 	C 	0.35900 0.80830 0.29460 0.18500
C 	C 	0.22430 0.01710 0.88680 -0.07300
C 	C 	0.26770 0.63830 0.11850 -0.11500
C 	C 	0.54560 0.77190 0.00700 0.30400
C 	C 	0.45130 0.82310 0.05640 0.01700
H 	H 	0.43940 0.85390 0.09360 0.02600
C 	C 	0.20620 0.08340 0.89370 0.32400
C 	C 	0.48790 0.82020 0.05900 -0.05900
H 	H 	0.50030 0.84940 0.09760 0.05900
C 	C 	0.27110 0.51880 0.12950 -0.03500
H 	H 	0.28440 0.47980 0.13510 0.04300
C 	C 	0.50580 0.77550 0.00600 -0.04200
C 	C 	0.20550 0.95940 0.87130 -0.04500
H 	H 	0.18120 0.96170 0.86340 0.04500
C 	C 	0.23140 0.63420 0.12470 0.00900
H 	H 	0.21810 0.67350 0.12610 0.01300
C 	C 	0.43250 0.78080 0.99920 -0.12400
C 	C 	0.39340 0.78200 0.99790 0.38700
C 	C 	0.28730 0.57940 0.12100 0.00600
H 	H 	0.31170 0.58140 0.11670 0.03500
C 	C 	0.31920 0.69280 0.61110 0.19700
C 	C 	0.25820 0.89380 0.88300 -0.13700
C 	C 	0.27520 0.82670 0.88490 0.40100
C 	C 	0.48710 0.73450 0.94700 -0.06100
H 	H 	0.49910 0.70550 0.90750 0.05900
C 	C 	0.21470 0.57330 0.12890 -0.04100
H 	H 	0.19020 0.57120 0.13110 0.04000
O 	O 	0.17360 0.08600 0.90610 -0.37200
O 	O 	0.26240 0.77940 0.84110 -0.47900
O 	O 	0.22399 0.13650 0.88720 -0.51200
O 	O 	0.30373 0.81950 0.93200 -0.53600
O 	O 	0.23530 0.39540 0.13960 -0.48100
O 	O 	0.56080 0.73870 0.94440 -0.42900
O 	O 	0.18516 0.44370 0.09930 -0.40500
O 	O 	0.56120 0.80340 0.06730 -0.41000
O 	O 	0.37739 0.82010 0.05310 -0.44800
O 	O 	0.31630 0.70570 0.07090 -0.49100
O 	O 	0.37887 0.74280 0.94070 -0.45700
O 	O 	0.26892 0.75710 0.12090 -0.50500
N 	N 	0.33403 0.70900 0.75720 -0.24900
N 	N 	0.30699 0.68930 0.69750 -0.24200
N 	N 	0.35374 0.71320 0.61240 -0.32000
N 	N 	0.30190 0.67370 0.53930 -0.34400
H 	H 	0.28100 0.65730 0.54560 0.15400
H 	H 	0.31110 0.67720 0.48480 0.12100
N 	N 	0.39280 0.80950 0.26250 -0.34400
H 	H 	0.39690 0.81730 0.20460 0.16000
H 	H 	0.41000 0.80250 0.30020 0.14600
N 	N 	0.33066 0.81850 0.24260 -0.23100
N 	N 	0.30177 0.81770 0.30290 -0.23500
N 	N 	0.35060 0.80050 0.38570 -0.30200
N 	N 	0.39180 0.73090 0.73290 -0.36600
H 	H 	0.39600 0.72980 0.79180 0.16200
H 	H 	0.40870 0.73880 0.69440 0.14200
Cd	Cd	0.88424 0.73933 0.50153 1.17500
Cd	Cd	0.25227 0.68304 0.75122 1.21900
Cd	Cd	0.17606 0.79005 0.41037 1.22300
Cd	Cd	0.18015 0.67015 0.58817 1.22500
C 	C 	0.13910 0.77890 0.20320 0.22300
C 	C 	0.27770 0.60230 0.36730 0.01600
H 	H 	0.29040 0.64100 0.35400 0.01200
C 	C 	0.04940 0.76440 0.44500 0.01700
H 	H 	0.06160 0.79420 0.40700 0.02500
C 	C 	0.22300 0.54830 0.39670 0.01800
H 	H 	0.19880 0.55050 0.40670 0.02400
C 	C 	0.23950 0.48690 0.39580 -0.04400
H 	H 	0.22620 0.44780 0.40130 0.04000
C 	C 	0.26570 0.98470 0.62970 -0.06400
C 	C 	0.28350 0.05230 0.62520 0.32400
C 	C 	0.18480 0.69540 0.88210 0.11100
H 	H 	0.19870 0.70180 0.93470 -0.04300
C 	C 	0.21460 0.79610 0.60410 0.35500
C 	C 	0.14100 0.69170 0.79460 0.18400
C 	C 	0.27570 0.48290 0.38680 -0.07300
C 	C 	0.23230 0.86170 0.61850 -0.11500
C 	C 	0.95440 0.72810 0.50700 0.30600
C 	C 	0.04870 0.67690 0.55640 0.01500
H 	H 	0.06060 0.64610 0.59360 0.02600
C 	C 	0.29380 0.41660 0.39370 0.32400
C 	C 	0.01210 0.67980 0.55900 -0.05700
H 	H 	0.99970 0.65060 0.59760 0.05800
C 	C 	0.22890 0.98120 0.62950 -0.03500
H 	H 	0.21560 0.02020 0.63510 0.04200
C 	C 	0.99420 0.72450 0.50600 -0.04300
C 	C 	0.29450 0.54060 0.37130 -0.04500
H 	H 	0.31880 0.53830 0.36340 0.04500
C 	C 	0.26860 0.86580 0.62470 0.00800
H 	H 	0.28190 0.82650 0.62610 0.01300
C 	C 	0.06750 0.71920 0.49920 -0.12300
C 	C 	0.10660 0.71800 0.49790 0.38900
C 	C 	0.21270 0.92060 0.62100 0.00500
H 	H 	0.18830 0.91860 0.61670 0.03500
C 	C 	0.18080 0.80720 0.11110 0.19700
C 	C 	0.24180 0.60620 0.38300 -0.13700
C 	C 	0.22480 0.67330 0.38490 0.40100
C 	C 	0.01290 0.76550 0.44700 -0.06000
H 	H 	0.00090 0.79450 0.40750 0.05900
C 	C 	0.28530 0.92670 0.62890 -0.04100
H 	H 	0.30980 0.92880 0.63110 0.03900
O 	O 	0.32640 0.41400 0.40610 -0.37100
O 	O 	0.23760 0.72060 0.34110 -0.47900
O 	O 	0.27601 0.36350 0.38720 -0.51100
O 	O 	0.19627 0.68050 0.43200 -0.53500
O 	O 	0.26470 0.10460 0.63960 -0.48100
O 	O 	0.93920 0.76130 0.44440 -0.43000
O 	O 	0.31484 0.05630 0.59930 -0.40600
O 	O 	0.93880 0.69660 0.56730 -0.41000
O 	O 	0.12261 0.67990 0.55310 -0.45000
O 	O 	0.18370 0.79430 0.57090 -0.49300
O 	O 	0.12113 0.75720 0.44070 -0.45700
O 	O 	0.23108 0.74290 0.62090 -0.50600
N 	N 	0.16597 0.79100 0.25720 -0.24900
N 	N 	0.19301 0.81070 0.19750 -0.24200
N 	N 	0.14626 0.78680 0.11240 -0.31900
N 	N 	0.19810 0.82630 0.03930 -0.34100
H 	H 	0.21900 0.84270 0.04560 0.15400
H 	H 	0.18890 0.82280 0.98480 0.11800
N 	N 	0.10720 0.69050 0.76250 -0.34400
H 	H 	0.10310 0.68270 0.70460 0.16000
H 	H 	0.09000 0.69750 0.80020 0.14600
N 	N 	0.16934 0.68150 0.74260 -0.23100
N 	N 	0.19823 0.68230 0.80290 -0.23500
N 	N 	0.14940 0.69950 0.88570 -0.30300
N 	N 	0.10820 0.76910 0.23290 -0.36600
H 	H 	0.10400 0.77020 0.29180 0.16200
H 	H 	0.09130 0.76120 0.19440 0.14200
