data_crystal

_cell_length_a 13.24330
_cell_length_b 26.33970
_cell_length_c 26.33970
_cell_angle_alpha 120.00000
_cell_angle_beta  90.00000
_cell_angle_gamma 90.00000

_symmetry_space_group_name_	'P 1'
_symmetry_space_group_name_H-M	'P 1'

loop_
_symmetry_equiv_pos_as_xyz
  x,y,z

loop_
_atom_site_label
_atom_site_type_symbol
_atom_site_fract_x
_atom_site_fract_y
_atom_site_fract_z
_atom_site_charge
Cd	Cd	-0.00000 0.84112 -0.00000 1.07000
Cd	Cd	0.75376 0.75104 0.50208 1.18900
Cd	Cd	0.24880 0.00000 0.24939 1.14900
Cd	Cd	0.34436 0.33333 0.66666 1.16200
Cd	Cd	0.75120 0.00000 0.24939 1.15300
Cd	Cd	0.75376 0.24897 0.75104 1.18800
Cd	Cd	0.75120 -0.00000 0.75061 1.15300
Cd	Cd	0.24880 -0.00000 0.75061 1.14900
Cd	Cd	-0.00000 0.15888 -0.00000 1.05800
Cd	Cd	-0.00000 0.00000 0.15888 1.05800
Cd	Cd	0.50000 0.00000 0.34182 1.12400
Cd	Cd	0.50000 0.34182 0.34182 1.15400
Cd	Cd	0.65564 0.33333 0.66666 1.16300
Cd	Cd	0.50000 0.65818 -0.00000 1.12400
Cd	Cd	0.50000 0.65818 0.65818 1.15500
Cd	Cd	0.75120 0.75061 -0.00000 1.15300
Cd	Cd	0.24624 0.24897 0.75104 1.18300
Cd	Cd	0.24624 0.75104 0.50208 1.18300
Cd	Cd	0.75120 0.24939 0.24939 1.17700
Cd	Cd	0.75120 0.75061 0.75061 1.18000
Cd	Cd	0.75376 0.49793 0.24897 1.18600
Cd	Cd	0.24624 0.24897 0.49793 1.18200
Cd	Cd	-0.00000 0.15888 0.15888 1.08300
Cd	Cd	0.75376 0.50207 0.75103 1.18800
Cd	Cd	0.24880 0.24939 0.24939 1.17300
Cd	Cd	0.24880 0.24939 -0.00000 1.14800
Cd	Cd	0.50000 0.34182 -0.00000 1.12400
Cd	Cd	0.24880 0.75061 0.75061 1.17600
Cd	Cd	0.34436 0.66667 0.33334 1.16100
Cd	Cd	-0.00000 0.00000 0.84112 1.06900
Cd	Cd	0.24624 0.49793 0.24897 1.18200
Cd	Cd	0.65564 0.66667 0.33334 1.16300
Cd	Cd	0.24880 0.75061 -0.00000 1.14900
Cd	Cd	0.75120 0.24939 -0.00000 1.15200
Cd	Cd	0.24624 0.50207 0.75103 1.18300
Cd	Cd	-0.00000 0.84112 0.84112 1.10600
Cd	Cd	0.75376 0.24897 0.49793 1.18600
Cd	Cd	0.24624 0.75104 0.24897 1.18300
Cd	Cd	0.75376 0.75104 0.24897 1.18700
Cd	Cd	0.50000 0.00000 0.65818 1.12400
H 	H 	0.68040 0.86780 0.13220 -0.02300
H 	H 	0.68040 0.26440 0.13220 -0.03700
H 	H 	0.31960 0.13220 0.26440 -0.03700
H 	H 	0.31960 0.73560 0.86780 -0.02200
H 	H 	-0.00000 0.72755 0.45510 -0.03300
H 	H 	0.58050 0.67820 0.54360 -0.04700
H 	H 	-0.00000 0.45510 0.72755 -0.03300
H 	H 	0.50000 0.45390 0.22695 -0.03800
H 	H 	0.41950 0.67820 0.54360 -0.04700
H 	H 	0.58050 0.32180 0.45640 -0.04700
H 	H 	0.68040 0.73560 0.86780 -0.02200
H 	H 	0.41950 0.54360 0.67820 -0.04700
H 	H 	0.50000 0.77305 0.54610 -0.03600
H 	H 	-0.00000 0.54490 0.27245 -0.03300
H 	H 	0.58050 0.86540 0.32180 -0.03800
H 	H 	0.31960 0.86780 0.73560 -0.02200
H 	H 	0.50000 0.22695 0.77305 -0.03600
H 	H 	0.50000 0.77305 0.22695 -0.03600
H 	H 	0.41950 0.86540 0.32180 -0.03800
H 	H 	0.41950 0.32180 0.45640 -0.04700
H 	H 	-0.00000 0.27245 0.72755 -0.03300
H 	H 	0.41950 0.45640 0.13460 -0.05200
H 	H 	0.50000 0.22695 0.45390 -0.03800
H 	H 	-0.00000 0.72755 0.27245 -0.03300
H 	H 	0.58050 0.54360 0.67820 -0.04700
H 	H 	0.58050 0.45640 0.13460 -0.05200
H 	H 	0.50000 0.54610 0.77305 -0.03600
H 	H 	0.58050 0.13460 0.67820 -0.05200
H 	H 	0.31960 0.86780 0.13220 -0.02300
H 	H 	0.41950 0.67820 0.13460 -0.05200
H 	H 	0.31960 0.26440 0.13220 -0.03700
H 	H 	0.41950 0.54360 0.86540 -0.03800
H 	H 	0.68040 0.13220 0.26440 -0.03700
H 	H 	0.68040 0.13220 0.86780 -0.02300
H 	H 	0.58050 0.86540 0.54360 -0.03800
H 	H 	0.41950 0.86540 0.54360 -0.03800
H 	H 	0.41950 0.13460 0.45640 -0.05200
H 	H 	0.58050 0.32180 0.86540 -0.03800
H 	H 	0.58050 0.54360 0.86540 -0.03800
H 	H 	0.58050 0.67820 0.13460 -0.05200
H 	H 	0.58050 0.13460 0.45640 -0.05200
H 	H 	0.41950 0.32180 0.86540 -0.03800
H 	H 	-0.00000 0.27245 0.54490 -0.03300
H 	H 	0.41950 0.13460 0.67820 -0.05200
H 	H 	0.68040 0.86780 0.73560 -0.02200
H 	H 	0.58050 0.45640 0.32180 -0.04700
H 	H 	0.41950 0.45640 0.32180 -0.04700
H 	H 	0.31960 0.13220 0.86780 -0.02300
C 	C 	0.04910 0.00000 0.32650 -0.12300
C 	C 	0.62970 0.30410 0.42620 0.09000
C 	C 	0.37030 0.30410 0.42620 0.08700
C 	C 	0.62970 0.57380 0.69590 0.09000
C 	C 	0.37030 0.12210 0.42620 0.08300
C 	C 	-0.00000 0.74835 0.25165 0.00900
C 	C 	0.62970 0.87790 0.57380 0.09900
C 	C 	0.84160 0.56210 0.17560 0.01700
C 	C 	0.15840 0.17560 0.61350 -0.01800
C 	C 	0.74240 0.12170 0.24340 0.09100
C 	C 	0.50000 0.24775 0.75225 0.10600
C 	C 	0.25760 0.12170 0.87830 0.09700
C 	C 	0.04910 0.67350 0.67350 -0.09100
C 	C 	0.95090 0.00000 0.67350 0.09100
C 	C 	0.54860 0.17270 0.17270 -0.01900
C 	C 	0.62970 0.30410 0.87790 0.09900
C 	C 	0.15840 0.61350 0.17560 -0.01800
C 	C 	-0.00000 0.50330 0.25165 0.00400
C 	C 	0.62970 0.12210 0.69590 0.08600
C 	C 	0.37030 0.69590 0.57380 0.08800
C 	C 	0.50000 0.75225 0.50450 0.10700
C 	C 	0.37030 0.57380 0.69590 0.08800
C 	C 	0.25760 0.12170 0.24340 0.08500
C 	C 	0.62970 0.87790 0.30410 0.09900
C 	C 	0.74240 0.12170 0.87830 0.10400
C 	C 	0.62970 0.12210 0.42620 0.08500
C 	C 	-0.00000 0.49670 0.74835 0.00900
C 	C 	0.37030 0.87790 0.57380 0.09600
C 	C 	0.00000 0.25165 0.74835 0.00900
C 	C 	0.04910 0.00000 0.67350 -0.12300
C 	C 	0.37030 0.42620 0.30410 0.08700
C 	C 	0.84160 0.17560 0.56210 0.01700
C 	C 	0.84160 0.61350 0.17560 0.01600
C 	C 	0.25760 0.24340 0.12170 0.08500
C 	C 	0.15840 0.56210 0.17560 -0.01800
C 	C 	0.84160 0.43790 0.82440 0.04100
C 	C 	0.37030 0.30410 0.87790 0.09600
C 	C 	0.37030 0.12210 0.69590 0.08400
C 	C 	0.45140 0.17270 0.17270 -0.02200
C 	C 	0.45140 0.82730 -0.00000 -0.02400
C 	C 	0.54860 0.17270 -0.00000 -0.04400
C 	C 	0.25760 0.87830 0.75660 0.10400
C 	C 	0.50000 0.50450 0.75225 0.10700
C 	C 	0.25760 0.87830 0.12170 0.09700
C 	C 	0.62970 0.57380 0.87790 0.09900
C 	C 	0.84160 0.61350 0.43790 0.02500
C 	C 	0.50000 0.49550 0.24775 0.10600
C 	C 	0.37030 0.87790 0.30410 0.09600
C 	C 	0.84160 0.17560 0.61350 0.01600
C 	C 	0.15840 0.43790 0.82440 0.00700
C 	C 	0.54860 0.82730 -0.00000 -0.02100
C 	C 	0.15840 0.61350 0.43790 -0.01000
C 	C 	0.37030 0.69590 0.12210 0.08400
C 	C 	0.50000 0.75225 0.24775 0.10600
C 	C 	0.37030 0.57380 0.87790 0.09600
C 	C 	0.95090 0.00000 0.32650 0.09200
C 	C 	0.84160 0.82440 0.38650 0.04200
C 	C 	0.45140 0.82730 0.82730 0.02600
C 	C 	0.95090 0.67350 -0.00000 0.09100
C 	C 	0.74240 0.87830 0.12170 0.10400
C 	C 	0.62970 0.42620 0.12210 0.08500
C 	C 	0.15840 0.43790 0.61350 -0.01000
C 	C 	0.04910 0.32650 0.32650 -0.09200
C 	C 	0.84160 0.38650 0.82440 0.04200
C 	C 	0.15840 0.17560 0.56210 -0.01800
C 	C 	0.54860 0.00000 0.17270 -0.04400
C 	C 	0.25760 0.75660 0.87830 0.10400
C 	C 	0.15840 0.82440 0.38650 0.00700
C 	C 	0.62970 0.42620 0.30410 0.09000
C 	C 	0.84160 0.38650 0.56210 0.02500
C 	C 	0.54860 0.00000 0.82730 -0.02100
C 	C 	0.15840 0.38650 0.56210 -0.01000
C 	C 	0.45140 0.17270 -0.00000 -0.04700
C 	C 	-0.00000 0.25165 0.50330 0.00400
C 	C 	0.95090 0.67350 0.67350 0.12300
C 	C 	0.45140 0.00000 0.17270 -0.04700
C 	C 	0.62970 0.69590 0.12210 0.08600
C 	C 	0.54860 0.82730 0.82730 0.02900
C 	C 	0.84160 0.82440 0.43790 0.04100
C 	C 	0.00000 0.74835 0.49670 0.00900
C 	C 	0.74240 0.87830 0.75660 0.11000
C 	C 	0.15840 0.82440 0.43790 0.00700
C 	C 	0.95090 0.32650 0.32650 0.12500
C 	C 	0.45140 0.00000 0.82730 -0.02400
C 	C 	0.37030 0.42620 0.12210 0.08300
C 	C 	0.04910 0.32650 -0.00000 -0.12300
C 	C 	0.74240 0.75660 0.87830 0.11000
C 	C 	0.84160 0.43790 0.61350 0.02500
C 	C 	0.74240 0.24340 0.12170 0.09100
C 	C 	0.84160 0.56210 0.38650 0.02500
C 	C 	0.15840 0.38650 0.82440 0.00700
C 	C 	0.95090 0.32650 -0.00000 0.09200
C 	C 	0.50000 0.24775 0.49550 0.10600
C 	C 	0.62970 0.69590 0.57380 0.09000
C 	C 	0.15840 0.56210 0.38650 -0.01000
C 	C 	0.04910 0.67350 -0.00000 -0.12300
N 	N 	0.87240 0.80170 0.87590 -0.17600
N 	N 	0.04920 0.20715 0.41430 -0.10000
N 	N 	0.75320 0.62470 0.24940 -0.19100
N 	N 	0.95080 0.79285 0.58570 -0.01500
N 	N 	0.21340 0.56970 0.34790 -0.20300
N 	N 	0.41840 0.22090 -0.00000 -0.21700
N 	N 	0.71050 0.84770 0.27630 -0.20000
N 	N 	0.24680 0.24940 0.62470 -0.19700
N 	N 	0.62650 0.07170 0.37570 -0.24200
N 	N 	0.20830 0.92770 0.77340 -0.19100
N 	N 	0.87240 0.19830 0.07420 -0.20500
N 	N 	0.58160 0.00000 0.77910 -0.21700
N 	N 	0.54960 0.70815 0.29185 -0.18700
N 	N 	0.79170 0.84570 0.77340 -0.21500
N 	N 	0.91880 0.53010 0.76505 -0.16400
N 	N 	0.20830 0.77340 0.84570 -0.22100
N 	N 	0.12760 0.80170 0.87590 -0.20400
N 	N 	-0.00000 0.74950 0.74950 -0.21900
N 	N 	0.24510 0.87880 0.25590 -0.06200
N 	N 	0.21340 0.65210 0.22180 -0.20300
N 	N 	0.62650 0.30400 0.37570 -0.22900
N 	N 	0.70640 0.92840 0.27260 -0.14200
N 	N 	0.78660 0.22180 0.65210 -0.19900
N 	N 	0.91860 0.27830 -0.00000 -0.19900
N 	N 	0.04920 0.79285 0.58570 -0.09200
N 	N 	0.20830 0.84570 0.77340 -0.22100
N 	N 	0.29360 0.65580 0.92840 -0.14400
N 	N 	0.20830 0.07230 0.84570 -0.23200
N 	N 	0.20830 0.07230 0.22660 -0.23600
N 	N 	0.29360 0.34420 0.27260 -0.17900
N 	N 	0.41760 0.73620 0.47240 -0.22100
N 	N 	-0.00000 0.25050 0.25050 -0.22200
N 	N 	0.28950 0.42860 0.15230 -0.20800
N 	N 	0.29360 0.65580 0.72740 -0.17800
N 	N 	0.58240 0.73620 0.47240 -0.22000
N 	N 	0.37350 0.69600 0.62430 -0.22900
N 	N 	0.79170 0.22660 0.07230 -0.23000
N 	N 	0.75490 0.87880 0.62290 -0.05400
N 	N 	0.79170 0.22660 0.15430 -0.22200
N 	N 	0.04920 0.79285 0.20715 -0.09300
N 	N 	0.24680 0.62470 0.37530 -0.19600
N 	N 	0.79170 0.84570 0.07230 -0.22600
N 	N 	0.37350 0.62430 0.92830 -0.19900
N 	N 	0.75490 0.87880 0.25590 -0.05400
N 	N 	0.91860 0.27830 0.27830 -0.18300
N 	N 	0.37350 0.07170 0.37570 -0.24200
N 	N 	0.45040 0.29185 0.70815 -0.18800
N 	N 	0.21340 0.22180 0.65210 -0.20300
N 	N 	0.29360 0.34420 0.07160 -0.18900
N 	N 	0.12760 0.87590 0.80170 -0.20400
N 	N 	0.58240 0.26380 0.73620 -0.22000
N 	N 	0.62650 0.30400 0.92830 -0.19800
N 	N 	0.91860 0.72170 -0.00000 -0.19900
N 	N 	0.95080 0.41430 0.20715 -0.02200
N 	N 	0.41840 0.22090 0.22090 -0.20000
N 	N 	0.95080 0.20715 0.79285 -0.01500
N 	N 	0.24680 0.37530 0.62470 -0.19600
N 	N 	0.12760 0.92580 0.12410 -0.19200
N 	N 	0.37350 0.92830 0.30400 -0.19900
N 	N 	0.71050 0.27630 0.42860 -0.20400
N 	N 	0.28950 0.42860 0.27630 -0.20700
N 	N 	0.87240 0.12410 0.19830 -0.19700
N 	N 	0.62650 0.92830 0.30400 -0.19800
N 	N 	0.75490 0.25590 0.87880 -0.05400
N 	N 	0.37350 0.30400 0.37570 -0.23000
N 	N 	0.58160 0.00000 0.22090 -0.21600
N 	N 	0.54960 0.41630 0.70815 -0.18700
N 	N 	0.70640 0.34420 0.27260 -0.17700
N 	N 	0.12760 0.87590 0.07420 -0.22100
N 	N 	0.75490 0.37710 0.12120 -0.06800
N 	N 	0.20830 0.92770 0.15430 -0.19300
N 	N 	0.71050 0.27630 0.84770 -0.20000
N 	N 	0.50000 0.74940 0.74940 -0.17700
N 	N 	0.78660 0.77820 0.34790 -0.19900
N 	N 	0.45040 0.41630 0.70815 -0.18700
N 	N 	0.29360 0.27260 0.34420 -0.17900
N 	N 	0.79170 0.07230 0.84570 -0.22600
N 	N 	0.75320 0.62470 0.37530 -0.19000
N 	N 	0.21340 0.34790 0.77820 -0.20300
N 	N 	0.87240 0.12410 0.92580 -0.16300
N 	N 	0.91880 0.76505 0.23495 -0.16500
N 	N 	0.79170 0.77340 0.84570 -0.21500
N 	N 	0.28950 0.72370 0.15230 -0.20800
N 	N 	0.20830 0.22660 0.15430 -0.22800
N 	N 	0.24680 0.62470 0.24940 -0.19600
N 	N 	0.54960 0.58370 0.29185 -0.18800
N 	N 	0.28950 0.84770 0.57140 -0.20300
N 	N 	0.04920 0.41430 0.20715 -0.10000
N 	N 	0.78660 0.77820 0.43030 -0.19800
N 	N 	0.08140 0.27830 -0.00000 -0.20800
N 	N 	0.91860 0.00000 0.27830 -0.19900
N 	N 	0.28950 0.15230 0.72370 -0.20800
N 	N 	0.24510 0.37710 0.12120 -0.07600
N 	N 	0.62650 0.62430 0.69600 -0.22800
N 	N 	0.37350 0.30400 0.92830 -0.19900
N 	N 	0.95080 0.20715 0.41430 -0.02200
N 	N 	0.75490 0.12120 0.74410 -0.06600
N 	N 	0.71050 0.57140 0.72370 -0.20300
N 	N 	0.87240 0.07420 0.19830 -0.20500
N 	N 	0.21340 0.43030 0.77820 -0.20300
N 	N 	0.21340 0.22180 0.56970 -0.20300
N 	N 	-0.00000 0.00000 0.25050 -0.24100
N 	N 	0.28950 0.84770 0.27630 -0.20300
N 	N 	0.28950 0.57140 0.84770 -0.20300
N 	N 	0.21340 0.34790 0.56970 -0.20300
N 	N 	0.62650 0.69600 0.62430 -0.22800
N 	N 	0.62650 0.92830 0.62430 -0.19800
N 	N 	0.20830 0.22660 0.07230 -0.23600
N 	N 	0.00000 0.00000 0.74950 -0.23900
N 	N 	0.50000 0.25060 -0.00000 -0.20000
N 	N 	0.75490 0.74410 0.62290 -0.06400
N 	N 	0.70640 0.92840 0.65580 -0.14200
N 	N 	0.50000 0.00000 0.74940 -0.19900
N 	N 	0.41760 0.26380 0.52760 -0.22200
N 	N 	0.20830 0.77340 0.92770 -0.19100
N 	N 	0.12760 0.19830 0.07420 -0.23400
N 	N 	0.75320 0.37530 0.62470 -0.19000
N 	N 	0.08120 0.23495 0.76505 -0.20500
N 	N 	0.78660 0.43030 0.77820 -0.19800
N 	N 	0.75320 0.75060 0.37530 -0.18900
N 	N 	0.21340 0.56970 0.22180 -0.20300
N 	N 	0.24510 0.12120 0.37710 -0.07600
N 	N 	0.08140 0.00000 0.27830 -0.20800
N 	N 	0.24510 0.87880 0.62290 -0.06200
N 	N 	-0.00000 0.74950 -0.00000 -0.23900
N 	N 	0.78660 0.56970 0.34790 -0.19900
N 	N 	0.87240 0.19830 0.12410 -0.19700
N 	N 	0.58240 0.26380 0.52760 -0.22100
N 	N 	0.28950 0.57140 0.72370 -0.20600
N 	N 	0.29360 0.92840 0.65580 -0.14400
N 	N 	0.95080 0.58570 0.79285 -0.01500
N 	N 	0.24510 0.74410 0.62290 -0.07300
N 	N 	0.79170 0.92770 0.15430 -0.18800
N 	N 	0.37350 0.62430 0.69600 -0.22900
N 	N 	0.37350 0.07170 0.69600 -0.24200
N 	N 	0.28950 0.72370 0.57140 -0.20600
N 	N 	0.24510 0.62290 0.74410 -0.07300
N 	N 	0.54960 0.29185 0.70815 -0.18700
N 	N 	0.12760 0.12410 0.92580 -0.19200
N 	N 	0.12760 0.12410 0.19830 -0.22600
N 	N 	0.12760 0.80170 0.92580 -0.18300
N 	N 	0.79170 0.07230 0.22660 -0.23000
N 	N 	0.70640 0.34420 0.07160 -0.18700
N 	N 	0.91860 0.00000 0.72170 -0.19900
N 	N 	0.29360 0.27260 0.92840 -0.14400
N 	N 	0.71050 0.15230 0.72370 -0.20500
N 	N 	0.24510 0.62290 0.87880 -0.06200
N 	N 	0.71050 0.84770 0.57140 -0.20000
N 	N 	0.87240 0.07420 0.87590 -0.19300
N 	N 	0.62650 0.62430 0.92830 -0.19800
N 	N 	0.41760 0.52760 0.26380 -0.22200
N 	N 	0.78660 0.56970 0.22180 -0.19900
N 	N 	0.37350 0.69600 0.07170 -0.24200
N 	N 	0.91880 0.23495 0.46990 -0.16600
N 	N 	0.41760 0.26380 0.73620 -0.22100
N 	N 	0.79170 0.92770 0.77340 -0.18500
N 	N 	0.87240 0.87590 0.07420 -0.19300
N 	N 	0.08120 0.76505 0.53010 -0.20500
N 	N 	0.91860 0.72170 0.72170 -0.18300
N 	N 	0.58240 0.47240 0.73620 -0.22000
N 	N 	0.28950 0.27630 0.84770 -0.20300
N 	N 	0.75490 0.62290 0.74410 -0.06400
N 	N 	0.08120 0.76505 0.23495 -0.20500
N 	N 	0.45040 0.70815 0.29185 -0.18800
N 	N 	0.75490 0.37710 0.25590 -0.06600
N 	N 	0.71050 0.42860 0.27630 -0.20400
N 	N 	0.87240 0.92580 0.80170 -0.15400
N 	N 	0.70640 0.27260 0.34420 -0.17700
N 	N 	0.87240 0.87590 0.80170 -0.17600
N 	N 	0.54960 0.29185 0.58370 -0.18800
N 	N 	0.41760 0.73620 0.26380 -0.22100
N 	N 	0.91880 0.76505 0.53010 -0.16400
N 	N 	0.87240 0.92580 0.12410 -0.16300
N 	N 	0.78660 0.65210 0.22180 -0.19900
N 	N 	0.08120 0.23495 0.46990 -0.20700
N 	N 	0.21340 0.77820 0.34790 -0.20300
N 	N 	0.70640 0.27260 0.92840 -0.14200
N 	N 	0.08140 0.00000 0.72170 -0.20800
N 	N 	0.28950 0.27630 0.42860 -0.20700
N 	N 	0.58160 0.22090 0.22090 -0.20000
N 	N 	0.24510 0.74410 0.12120 -0.07400
N 	N 	0.37350 0.92830 0.62430 -0.19900
N 	N 	0.70640 0.65580 0.72740 -0.17600
N 	N 	0.75320 0.37530 0.75060 -0.18900
N 	N 	0.58240 0.52760 0.26380 -0.22100
N 	N 	0.24510 0.25590 0.37710 -0.07400
N 	N 	0.71050 0.72370 0.15230 -0.20500
N 	N 	0.70640 0.72740 0.07160 -0.18600
N 	N 	0.29360 0.92840 0.27260 -0.14400
N 	N 	0.75320 0.24940 0.62470 -0.19100
N 	N 	0.62650 0.69600 0.07170 -0.24100
N 	N 	0.12760 0.92580 0.80170 -0.18300
N 	N 	0.50000 0.25060 0.25060 -0.18000
N 	N 	0.71050 0.72370 0.57140 -0.20300
N 	N 	0.70640 0.07160 0.72740 -0.18600
N 	N 	0.58160 0.77910 -0.00000 -0.21700
N 	N 	0.78660 0.65210 0.43030 -0.19900
N 	N 	0.75490 0.12120 0.37710 -0.06800
N 	N 	0.21340 0.77820 0.43030 -0.20300
N 	N 	0.41840 0.77910 -0.00000 -0.21700
N 	N 	0.24510 0.12120 0.74410 -0.07400
N 	N 	0.70640 0.65580 0.92840 -0.14200
N 	N 	0.71050 0.42860 0.15230 -0.20500
N 	N 	0.24510 0.25590 0.87880 -0.06200
N 	N 	0.58240 0.73620 0.26380 -0.22000
N 	N 	0.37350 0.37570 0.30400 -0.23000
N 	N 	0.12760 0.19830 0.12410 -0.22600
N 	N 	0.62650 0.07170 0.69600 -0.24100
N 	N 	0.37350 0.37570 0.07170 -0.24200
N 	N 	0.78660 0.34790 0.77820 -0.19900
N 	N 	0.04920 0.58570 0.79285 -0.09200
N 	N 	0.29360 0.07160 0.34420 -0.18900
N 	N 	0.04920 0.20715 0.79285 -0.09300
N 	N 	0.21340 0.65210 0.43030 -0.20300
N 	N 	0.29360 0.07160 0.72740 -0.18800
N 	N 	0.41760 0.47240 0.73620 -0.22100
N 	N 	0.45040 0.70815 0.41630 -0.18700
N 	N 	0.21340 0.43030 0.65210 -0.20300
N 	N 	0.41840 0.00000 0.77910 -0.21700
N 	N 	0.29360 0.72740 0.07160 -0.18800
N 	N 	0.24680 0.75060 0.37530 -0.19500
N 	N 	0.75490 0.74410 0.12120 -0.06600
N 	N 	0.12760 0.07420 0.87590 -0.22100
N 	N 	0.08120 0.46990 0.23495 -0.20700
N 	N 	0.08140 0.72170 0.72170 -0.19200
N 	N 	0.71050 0.15230 0.42860 -0.20500
N 	N 	0.78660 0.34790 0.56970 -0.19900
N 	N 	0.87240 0.80170 0.92580 -0.15400
N 	N 	0.54960 0.70815 0.41630 -0.18700
N 	N 	0.08140 0.72170 -0.00000 -0.20800
N 	N 	0.50000 0.00000 0.25060 -0.20000
N 	N 	0.20830 0.15430 0.22660 -0.22800
N 	N 	0.91880 0.46990 0.23495 -0.16600
N 	N 	0.08120 0.53010 0.76505 -0.20500
N 	N 	0.41840 0.77910 0.77910 -0.20100
N 	N 	0.78660 0.43030 0.65210 -0.19900
N 	N 	0.79170 0.15430 0.92770 -0.18800
N 	N 	0.08140 0.27830 0.27830 -0.19300
N 	N 	0.62650 0.37570 0.30400 -0.22900
N 	N 	0.29360 0.72740 0.65580 -0.17800
N 	N 	0.58160 0.77910 0.77910 -0.20100
N 	N 	0.78660 0.22180 0.56970 -0.19900
N 	N 	0.75490 0.62290 0.87880 -0.05400
N 	N 	0.45040 0.29185 0.58370 -0.18900
N 	N 	-0.00000 0.25050 -0.00000 -0.24100
N 	N 	0.75490 0.25590 0.37710 -0.06600
N 	N 	0.62650 0.37570 0.07170 -0.24200
N 	N 	0.71050 0.57140 0.84770 -0.20000
N 	N 	0.79170 0.77340 0.92770 -0.18500
N 	N 	0.50000 0.74940 -0.00000 -0.19900
N 	N 	0.24680 0.37530 0.75060 -0.19500
N 	N 	0.70640 0.07160 0.34420 -0.18700
N 	N 	0.20830 0.84570 0.07230 -0.23200
N 	N 	0.20830 0.15430 0.92770 -0.19300
N 	N 	0.91880 0.23495 0.76505 -0.16500
N 	N 	0.45040 0.58370 0.29185 -0.18900
N 	N 	0.12760 0.07420 0.19830 -0.23400
N 	N 	0.41840 0.00000 0.22090 -0.21700
N 	N 	0.79170 0.15430 0.22660 -0.22200
N 	N 	0.24510 0.37710 0.25590 -0.07400
N 	N 	0.70640 0.72740 0.65580 -0.17600
N 	N 	0.58160 0.22090 -0.00000 -0.21600
N 	N 	0.28950 0.15230 0.42860 -0.20900
N 	N 	0.95080 0.79285 0.20715 -0.01500
