data_crystal

_cell_length_a 27.02860
_cell_length_b 27.02880
_cell_length_c 27.02880
_cell_angle_alpha 63.54000
_cell_angle_beta  83.75070
_cell_angle_gamma 116.46000

_symmetry_space_group_name_	'P 1'
_symmetry_space_group_name_H-M	'P 1'

loop_
_symmetry_equiv_pos_as_xyz
  x,y,z

loop_
_atom_site_label
_atom_site_type_symbol
_atom_site_fract_x
_atom_site_fract_y
_atom_site_fract_z
_atom_site_charge
Zn	Zn	0.81930 0.97048 0.24770 1.20900
Zn	Zn	0.50617 0.33394 0.06199 1.17800
Zn	Zn	0.05823 0.02884 0.21616 1.18700
Zn	Zn	0.66429 0.40124 0.00503 1.14000
Zn	Zn	0.69250 0.27681 0.07914 1.19100
Zn	Zn	0.89594 0.83395 0.17222 1.17800
Zn	Zn	0.74500 0.52883 0.02939 1.18800
Zn	Zn	0.71817 0.47047 0.84883 1.20900
Zn	Zn	0.85594 0.77680 0.41570 1.19000
Zn	Zn	0.90627 0.90124 0.26305 1.13800
H 	H 	0.39800 0.05230 0.20490 0.05300
H 	H 	0.02260 0.87420 0.50660 0.03600
H 	H 	0.43400 0.36620 0.86740 0.03600
H 	H 	0.86110 0.52850 0.07860 0.06600
H 	H 	0.09570 0.19010 0.12460 0.05000
H 	H 	0.78820 0.61930 0.45290 0.06000
H 	H 	0.65940 0.51780 0.14260 0.08800
H 	H 	0.19640 0.98770 0.08550 0.02700
H 	H 	0.83080 0.28190 0.90530 0.03100
H 	H 	0.51560 0.41440 0.78560 0.05200
H 	H 	0.88080 0.37420 0.14840 0.03700
H 	H 	0.74490 0.53290 0.44200 0.03300
H 	H 	0.47870 0.41200 0.22110 0.03600
H 	H 	0.47490 0.03290 0.21200 0.03300
H 	H 	0.85480 0.74950 0.73290 0.02900
H 	H 	0.61040 0.44500 0.78940 0.07900
H 	H 	0.80350 0.65570 0.26400 0.07400
H 	H 	0.16040 0.01780 0.14160 0.08800
H 	H 	0.91820 0.48580 0.11060 0.03700
H 	H 	0.64910 0.98770 0.31620 0.14300
H 	H 	0.85460 0.37090 0.81270 0.04000
H 	H 	0.07690 0.27290 0.08640 0.06000
H 	H 	0.57220 0.11930 0.16890 0.06000
H 	H 	0.81470 0.69010 0.90560 0.05000
H 	H 	0.98240 0.24950 0.10530 0.02900
H 	H 	0.74930 0.75690 0.51540 0.07000
H 	H 	0.89980 0.14210 0.16110 0.08800
H 	H 	0.80390 0.48770 0.66140 0.14300
H 	H 	0.10710 0.02850 0.33260 0.06600
H 	H 	0.70000 0.91440 0.10120 0.05200
H 	H 	0.03020 0.86040 0.10700 0.06700
H 	H 	0.73440 0.94500 0.16540 0.07800
H 	H 	0.74160 0.07870 0.30710 -0.11000
H 	H 	0.13310 0.91200 0.06670 0.03600
H 	H 	0.46740 0.36040 0.16980 0.06700
H 	H 	0.57320 0.48770 0.20870 0.02700
H 	H 	0.96050 0.75760 0.07110 0.03800
H 	H 	0.93450 0.69700 0.02350 0.04400
H 	H 	0.73360 0.86620 0.06780 0.03600
H 	H 	0.91470 0.63450 0.55960 0.20700
H 	H 	0.32870 0.25760 0.20290 0.03900
H 	H 	0.69410 0.13450 0.28020 0.20800
H 	H 	0.80600 0.31400 0.12800 0.06700
H 	H 	0.09640 0.98580 0.43240 0.03800
H 	H 	0.80410 0.42370 0.80040 0.09900
H 	H 	0.80610 0.84780 0.09510 0.06100
H 	H 	0.94200 0.81400 0.49200 0.06800
H 	H 	0.85930 0.77290 0.80400 0.06000
H 	H 	0.77230 0.25690 0.99240 0.07000
H 	H 	0.75720 0.55230 0.34570 0.05300
H 	H 	0.22050 0.19700 0.23750 0.04400
H 	H 	0.44290 0.34780 0.95830 0.06100
H 	H 	0.86150 0.57790 0.55940 -0.07900
H 	H 	0.72410 0.92370 0.38040 0.09800
H 	H 	0.80320 0.64210 0.75770 0.08700
H 	H 	0.88580 0.57870 0.66290 -0.10900
H 	H 	0.68720 0.78190 0.54890 0.03100
H 	H 	0.41970 0.15570 0.14780 0.07400
H 	H 	0.68360 0.87090 0.48370 0.04000
H 	H 	0.63730 0.07790 0.28360 -0.07900
C 	C 	0.87333 0.72558 0.10549 -0.09000
C 	C 	0.90675 0.69686 0.04717 -0.02100
C 	C 	0.61371 0.45862 0.11383 0.07600
C 	C 	0.22193 0.16278 0.18517 -0.08300
C 	C 	0.74856 0.87770 0.09308 -0.01600
C 	C 	0.03467 0.91243 0.14404 0.05200
C 	C 	0.76304 0.37541 0.89235 0.07500
C 	C 	0.58040 0.41006 0.87816 0.06700
C 	C 	0.06830 0.96010 0.42260 -0.02300
C 	C 	0.78193 0.61512 0.89245 0.04500
C 	C 	0.86190 0.39290 0.12780 -0.01000
C 	C 	0.15549 0.96893 0.10090 -0.00600
C 	C 	0.79117 0.86569 0.10970 -0.11700
C 	C 	0.15784 0.11833 0.19703 0.31100
C 	C 	0.97645 0.88497 0.40268 0.05900
C 	C 	0.73051 0.89260 0.40665 -0.11400
C 	C 	0.81398 0.30590 0.90332 -0.01500
C 	C 	0.77317 0.58829 0.34952 -0.02400
C 	C 	0.72798 0.90672 0.11372 -0.02600
C 	C 	0.48481 0.07626 0.19033 -0.01400
C 	C 	0.57736 0.42478 0.82282 -0.10900
C 	C 	0.76776 0.87541 0.38763 0.07500
C 	C 	0.79925 0.39260 0.83791 -0.11400
C 	C 	0.92178 0.73226 0.07412 -0.01400
C 	C 	0.51232 0.42260 0.19450 -0.03500
C 	C 	0.84902 0.68552 0.50876 0.29000
C 	C 	0.66580 0.07970 0.25890 0.35600
C 	C 	0.33107 0.22558 0.14775 -0.09000
C 	C 	0.70740 0.12190 0.25750 -0.48500
C 	C 	0.74970 0.07170 0.24120 -0.37500
C 	C 	0.55447 0.19114 0.13099 0.06100
C 	C 	0.02362 0.94777 0.35467 0.06700
C 	C 	0.75123 0.32612 0.94743 0.06500
C 	C 	0.75770 0.01480 0.24330 0.72200
C 	C 	0.80127 0.64900 0.30121 -0.10500
C 	C 	0.98748 0.21450 0.12114 0.01400
C 	C 	0.47539 0.36569 0.92548 -0.11700
C 	C 	0.70484 0.85870 0.46786 -0.02300
C 	C 	0.77850 0.28943 0.95499 -0.11400
C 	C 	0.52044 0.40672 0.82126 -0.02600
C 	C 	0.53155 0.38202 0.92807 0.05900
C 	C 	0.78765 0.38497 0.09148 0.05900
C 	C 	0.80541 0.65081 0.78730 -0.13900
C 	C 	0.74760 0.92478 0.15258 -0.10900
C 	C 	0.83860 0.57970 0.58610 0.35500
C 	C 	0.81536 0.61833 0.03951 0.31100
C 	C 	0.82213 0.69114 0.36333 0.06100
C 	C 	0.50860 0.20222 0.12498 0.06400
C 	C 	0.56983 0.46893 0.18656 -0.00600
C 	C 	0.77355 0.82612 0.42511 0.06500
C 	C 	0.04486 0.22859 0.11001 -0.05000
C 	C 	0.81009 0.88202 0.14953 0.05900
C 	C 	0.81216 0.67984 0.87702 -0.08800
C 	C 	0.77778 0.59887 0.84825 0.08800
C 	C 	0.85136 0.48756 0.08620 -0.11000
C 	C 	0.70922 0.80590 0.50808 -0.01500
C 	C 	0.00757 0.11512 0.16681 0.04400
C 	C 	0.70242 0.13491 0.20047 -0.07700
C 	C 	0.07376 0.98756 0.36380 -0.10800
C 	C 	0.97407 0.85613 0.46090 -0.11500
C 	C 	0.45021 0.14900 0.15227 -0.10500
C 	C 	0.54197 0.12652 0.16471 -0.11200
C 	C 	0.82720 0.70222 0.30638 0.06400
C 	C 	0.94712 0.09887 0.17891 0.08900
C 	C 	0.74442 0.78943 0.48907 -0.11500
C 	C 	0.84795 0.66278 0.05915 -0.08300
C 	C 	0.82656 0.35870 0.84614 -0.02300
C 	C 	0.93811 0.15081 0.15460 -0.14000
C 	C 	0.87336 0.75886 0.13620 0.30500
C 	C 	0.05602 0.89268 0.11256 -0.11200
C 	C 	0.80670 0.52780 0.64530 -0.31000
C 	C 	0.87940 0.62190 0.58550 -0.48200
C 	C 	0.50524 0.39268 0.16334 -0.11100
C 	C 	0.30638 0.23226 0.18952 -0.01400
C 	C 	0.78822 0.91006 0.17034 0.06700
C 	C 	0.77800 0.54370 0.67990 0.12700
C 	C 	0.88270 0.46010 0.10820 -0.02200
C 	C 	0.24403 0.19686 0.20989 -0.02100
C 	C 	0.62160 0.48773 0.14707 -0.12900
C 	C 	0.69428 0.18552 0.16350 0.29000
C 	C 	0.73430 0.08900 0.27210 0.46700
C 	C 	0.67310 0.02780 0.27890 -0.31000
C 	C 	0.81703 0.35613 0.11794 -0.11300
C 	C 	0.75810 0.51480 0.74290 0.72100
C 	C 	0.83564 0.71450 0.77298 0.01200
C 	C 	0.55647 0.41243 0.12224 0.05200
C 	C 	0.72360 0.04370 0.23430 0.12900
C 	C 	0.79123 0.62652 0.41545 -0.11200
C 	C 	0.47078 0.37770 0.87086 -0.01600
C 	C 	0.39506 0.25886 0.11450 0.30500
C 	C 	0.83860 0.72859 0.81627 -0.04800
C 	C 	0.11710 0.92260 0.08972 -0.03500
C 	C 	0.83538 0.63491 0.56751 -0.07800
C 	C 	0.76659 0.57626 0.40855 -0.01400
C 	C 	0.07245 0.95862 0.15509 0.07600
C 	C 	0.86110 0.58900 0.64530 0.46300
C 	C 	0.13480 0.98773 0.13387 -0.12900
C 	C 	0.80244 0.44777 0.07585 0.06700
C 	C 	0.05686 0.17984 0.13232 -0.08700
C 	C 	0.43781 0.08829 0.18488 -0.02400
C 	C 	0.81290 0.57170 0.67800 -0.37200
C 	C 	0.02070 0.89290 0.46900 -0.00700
S 	S 	0.80907 0.67469 0.10290 0.06300
S 	S 	0.74117 0.11194 0.17059 0.07200
S 	S 	0.78253 0.61194 0.62923 0.07200
S 	S 	0.27759 0.17469 0.13438 0.06300
N 	N 	0.62845 0.42206 0.89477 -0.23100
N 	N 	0.72928 0.50855 0.93515 -0.20100
N 	N 	0.91006 0.03298 0.21188 -0.24000
N 	N 	0.85006 0.75188 0.35620 -0.24700
N 	N 	0.98274 0.92738 0.19736 -0.20900
N 	N 	0.81388 0.82438 0.39362 -0.24000
N 	N 	0.84877 0.87556 0.17481 -0.24400
N 	N 	0.01213 0.95825 0.30520 -0.23800
N 	N 	0.62474 0.42738 0.05536 -0.20800
N 	N 	0.70589 0.36993 0.96094 -0.20400
N 	N 	0.95896 0.90593 0.32069 -0.20200
N 	N 	0.73184 0.40222 0.90140 -0.23600
N 	N 	0.56495 0.39386 0.08305 -0.24100
N 	N 	0.53691 0.26954 0.08903 -0.21700
N 	N 	0.72662 0.40593 0.05303 -0.20200
N 	N 	0.74946 0.55512 0.94540 -0.24000
N 	N 	0.71800 0.32438 0.98950 -0.24000
N 	N 	0.85274 0.89994 0.20888 -0.21000
N 	N 	0.97691 0.89386 0.17109 -0.24200
N 	N 	0.60882 0.39994 0.95280 -0.20900
N 	N 	0.93576 0.86020 0.37918 -0.24600
N 	N 	0.74486 0.53298 0.87708 -0.24000
N 	N 	0.94370 0.00855 0.22073 -0.20000
N 	N 	0.81683 0.92206 0.20639 -0.23100
N 	N 	0.80362 0.90222 0.32962 -0.23600
N 	N 	0.86989 0.79745 0.29788 -0.20400
N 	N 	0.59533 0.29745 0.07244 -0.20400
N 	N 	0.60808 0.25188 0.09818 -0.24700
N 	N 	0.55037 0.37556 0.97321 -0.24400
N 	N 	0.65469 0.46591 0.07266 -0.23900
N 	N 	0.83087 0.86993 0.33596 -0.20400
N 	N 	0.85857 0.76954 0.26737 -0.21800
N 	N 	0.00052 0.05512 0.19434 -0.24000
N 	N 	0.76345 0.45825 0.05388 -0.23800
N 	N 	0.73938 0.36020 0.07556 -0.24500
N 	N 	0.03857 0.96591 0.18878 -0.23900
O 	O 	0.84306 0.61142 0.00760 -0.38600
O 	O 	0.82076 0.71471 0.50129 -0.45400
O 	O 	0.41218 0.25749 0.07115 -0.38500
O 	O 	0.73408 0.45061 0.77611 -0.39500
O 	O 	0.82864 0.75749 0.15469 -0.38600
O 	O 	0.72672 0.95061 0.28347 -0.39600
O 	O 	0.78670 0.01690 0.28220 -0.35700
O 	O 	0.11902 0.11142 0.23164 -0.38600
O 	O 	0.43169 0.29022 0.13203 -0.44400
O 	O 	0.75768 0.58379 0.06191 -0.44800
O 	O 	0.79910 0.51690 0.76980 -0.35800
O 	O 	0.14570 0.08379 0.17389 -0.44800
O 	O 	0.88991 0.70401 0.46366 -0.34400
O 	O 	0.66767 0.20401 0.18590 -0.34400
O 	O 	0.71600 0.21471 0.10605 -0.45400
O 	O 	0.78675 0.02299 0.20806 -0.63300
O 	O 	0.92225 0.79022 0.14147 -0.44400
O 	O 	0.73105 0.52299 0.76376 -0.63300
Zn	Zn	0.57914 0.77164 0.64406 1.19000
Zn	Zn	0.52939 0.77439 0.44177 1.18700
Zn	Zn	0.50503 0.66932 0.59373 1.13900
Zn	Zn	0.34882 0.56699 0.68070 1.20800
Zn	Zn	0.67223 0.06817 0.99383 1.17700
Zn	Zn	0.91569 0.27163 0.80751 1.19000
Zn	Zn	0.76305 0.16932 0.83571 1.13900
Zn	Zn	0.74770 0.06700 0.78182 1.20800
Zn	Zn	0.71617 0.27440 0.75499 1.18700
Zn	Zn	0.56199 0.56816 0.60407 1.17700
H 	H 	0.64260 0.80200 0.33960 0.08800
H 	H 	0.04890 0.23610 0.66920 0.03300
H 	H 	0.98370 0.16730 0.64540 0.03900
H 	H 	0.83260 0.43970 0.63890 0.06600
H 	H 	0.49240 0.76470 0.75070 0.07000
H 	H 	0.78360 0.92090 0.63850 -0.07900
H 	H 	0.66890 0.74110 0.71180 0.06000
H 	H 	0.00660 0.52920 0.61920 0.03700
H 	H 	0.40560 0.72030 0.40430 0.05000
H 	H 	0.58640 0.16330 0.64070 0.06000
H 	H 	0.70870 0.78190 0.30360 0.02700
H 	H 	0.01540 0.26470 0.72770 0.06800
H 	H 	0.58550 0.28190 0.92680 0.02700
H 	H 	0.30040 0.60450 0.77590 0.09900
H 	H 	0.30400 0.66330 0.42310 0.06000
H 	H 	0.88040 0.10450 0.69590 0.09900
H 	H 	0.28560 0.30120 0.80000 0.05200
H 	H 	0.45830 0.40120 0.69390 0.06100
H 	H 	0.36740 0.30140 0.76640 0.03600
H 	H 	0.56670 0.19980 0.02130 0.03700
H 	H 	0.73750 0.45800 0.56550 0.04400
H 	H 	0.66540 0.89980 0.88960 0.07900
H 	H 	0.72110 0.69980 0.36690 0.03600
H 	H 	0.76400 0.06750 0.08030 0.07300
H 	H 	0.95290 0.24110 0.92780 0.06100
H 	H 	0.64840 0.02920 0.47740 0.03700
H 	H 	0.59510 0.90120 0.05710 0.06200
H 	H 	0.57860 0.93970 0.39290 0.06600
H 	H 	0.99200 0.43400 0.69400 0.06700
H 	H 	0.66980 0.63720 0.46980 0.06700
H 	H 	0.71200 0.68690 0.75510 0.03300
H 	H 	0.56780 0.80140 0.06600 0.03700
H 	H 	0.80710 0.04870 0.61420 -0.10800
H 	H 	0.57110 0.03160 0.17130 0.04000
H 	H 	0.70490 0.60290 0.74280 0.05300
H 	H 	0.64160 0.30200 0.84060 0.08800
H 	H 	0.60700 0.13720 0.03260 0.06800
H 	H 	0.16140 0.46530 0.85090 0.14300
H 	H 	0.05940 0.42090 0.86270 -0.07900
H 	H 	0.28940 0.39980 0.76560 0.07900
H 	H 	0.52350 0.95800 0.27950 0.04300
H 	H 	0.94200 0.18690 0.02510 0.03200
H 	H 	0.60530 0.08770 0.64520 0.03000
H 	H 	0.61060 0.02880 0.40360 0.03800
H 	H 	0.31270 0.66730 0.81640 0.04000
H 	H 	0.62800 0.93400 0.55800 0.06700
H 	H 	0.62460 0.22030 0.68530 0.05000
H 	H 	0.25770 0.56090 0.60020 0.08700
H 	H 	0.60120 0.80120 0.98440 0.05200
H 	H 	0.81620 0.96530 0.69610 0.14300
H 	H 	0.93240 0.52880 0.58180 0.03700
H 	H 	0.23290 0.58770 0.51760 0.03000
H 	H 	0.84570 0.10290 0.10200 0.05400
H 	H 	0.78020 0.97430 0.58530 0.20600
H 	H 	0.64780 0.56750 0.69650 0.07400
H 	H 	0.16290 0.54870 0.75840 -0.10900
H 	H 	0.70290 0.53160 0.53950 0.03900
H 	H 	0.05960 0.47430 0.80590 0.20700
H 	H 	0.66110 0.06090 0.69680 0.08700
H 	H 	0.40530 0.73610 0.81280 0.03100
C 	C 	0.70989 0.45392 0.59325 -0.02100
C 	C 	0.28730 0.59271 0.56189 -0.13900
C 	C 	0.40332 0.71730 0.79078 -0.01500
C 	C 	0.90855 0.17514 0.01519 -0.01000
C 	C 	0.42548 0.40087 0.70883 -0.11700
C 	C 	0.67034 0.95856 0.91960 0.06700
C 	C 	0.70047 0.90289 0.66462 -0.07800
C 	C 	0.96900 0.48970 0.63810 -0.01000
C 	C 	0.37702 0.68918 0.44314 -0.08800
C 	C 	0.61001 0.15487 0.66140 -0.04800
C 	C 	0.73430 0.95790 0.72200 0.12500
C 	C 	0.63620 0.00956 0.10494 0.30700
C 	C 	0.42807 0.45962 0.68991 0.05900
C 	C 	0.61383 0.72754 0.42755 0.07600
C 	C 	0.60090 0.25639 0.93017 -0.00500
C 	C 	0.68656 0.75639 0.34451 -0.00600
C 	C 	0.68952 0.49590 0.57822 -0.01400
C 	C 	0.06751 0.40289 0.79758 -0.07700
C 	C 	0.60970 0.90087 0.02461 -0.11800
C 	C 	0.75890 0.92470 0.66140 0.35300
C 	C 	0.90268 0.37913 0.71235 0.05900
C 	C 	0.08550 0.46490 0.79260 -0.48200
C 	C 	0.31627 0.65487 0.45514 -0.04800
C 	C 	0.58972 0.20682 0.98768 -0.03600
C 	C 	0.59148 0.87913 0.52355 0.05900
C 	C 	0.37086 0.34164 0.75144 -0.01600
C 	C 	0.74120 0.99090 0.68710 -0.37000
C 	C 	0.14530 0.45200 0.82690 -0.31000
C 	C 	0.96786 0.17270 0.67344 -0.01900
C 	C 	0.86380 0.43756 0.64864 -0.11000
C 	C 	0.14530 0.50640 0.76570 0.46400
C 	C 	0.62780 0.98970 0.47930 -0.01000
C 	C 	0.63232 0.18918 0.68784 -0.08800
C 	C 	0.80638 0.13358 0.99140 0.06200
C 	C 	0.57585 0.87829 0.47638 0.06700
C 	C 	0.90665 0.13716 0.70075 -0.11700
C 	C 	0.53951 0.85487 0.34216 0.31100
C 	C 	0.96090 0.43497 0.68297 -0.11300
C 	C 	0.91545 0.20668 0.95803 -0.11500
C 	C 	0.39245 0.67438 0.49243 0.04500
C 	C 	0.75750 0.96490 0.62060 -0.48000
C 	C 	0.69450 0.70682 0.38290 -0.03500
C 	C 	0.24290 0.50100 0.74230 0.72100
C 	C 	0.61372 0.84170 0.97956 -0.02500
C 	C 	0.66350 0.85778 0.65098 0.29000
C 	C 	0.33791 0.63716 0.76949 -0.11400
C 	C 	0.68517 0.40710 0.65205 -0.08300
C 	C 	0.84952 0.12269 0.06219 -0.02600
C 	C 	0.74330 0.00100 0.74190 0.72100
C 	C 	0.92511 0.19866 0.74877 0.06300
C 	C 	0.62498 0.63358 0.67280 0.06400
C 	C 	0.08610 0.42470 0.83420 0.35500
C 	C 	0.34825 0.62603 0.55288 0.08800
C 	C 	0.77890 0.95200 0.69330 -0.30800
C 	C 	0.64775 0.47882 0.62667 -0.09000
C 	C 	0.69703 0.35487 0.68464 0.31100
C 	C 	0.44743 0.69866 0.72645 0.06500
C 	C 	0.54717 0.95392 0.25597 -0.02000
C 	C 	0.17990 0.45790 0.77640 0.12700
C 	C 	0.45499 0.73349 0.75558 -0.11400
C 	C 	0.65227 0.60248 0.69873 -0.10500
C 	C 	0.66471 0.70668 0.70877 -0.11200
C 	C 	0.66681 0.17438 0.71807 0.04500
C 	C 	0.27298 0.60862 0.51252 0.01200
C 	C 	0.64404 0.17871 0.94353 0.05200
C 	C 	0.68488 0.62269 0.72683 -0.02400
C 	C 	0.62114 0.10862 0.66436 0.01200
C 	C 	0.34614 0.67270 0.79516 -0.02300
C 	C 	0.67891 0.12603 0.72222 0.08800
C 	C 	0.65460 0.09271 0.69459 -0.13900
C 	C 	0.66334 0.66858 0.44398 -0.11100
C 	C 	0.32282 0.40018 0.75240 -0.10900
C 	C 	0.80121 0.10248 0.04979 -0.10200
C 	C 	0.61450 0.50956 0.62664 0.30500
C 	C 	0.85467 0.37829 0.69756 0.06700
C 	C 	0.92260 0.49090 0.61730 -0.02200
C 	C 	0.64953 0.95962 0.96845 0.06000
C 	C 	0.60549 0.97882 0.16893 -0.09100
C 	C 	0.64707 0.76867 0.36520 -0.12900
C 	C 	0.60820 0.99090 0.43170 -0.02200
C 	C 	0.65258 0.90018 0.92264 -0.10900
C 	C 	0.61256 0.16858 0.99476 -0.11200
C 	C 	0.58620 0.93756 0.42624 -0.10900
C 	C 	0.69033 0.67514 0.73341 -0.01400
C 	C 	0.88763 0.15539 0.73696 0.07700
C 	C 	0.77210 0.00640 0.63890 0.46100
C 	C 	0.39235 0.65539 0.73224 0.07500
C 	C 	0.55915 0.90710 0.27807 -0.08300
C 	C 	0.32126 0.34170 0.77202 -0.02600
C 	C 	0.98907 0.23349 0.72150 -0.11000
C 	C 	0.00876 0.35778 0.80572 0.28900
C 	C 	0.17800 0.49090 0.75030 -0.37200
C 	C 	0.37816 0.45856 0.71178 0.06700
C 	C 	0.61794 0.93497 0.52593 -0.11300
C 	C 	0.00808 0.21730 0.68602 -0.02000
C 	C 	0.86333 0.18546 0.94553 0.06200
C 	C 	0.59308 0.84164 0.02922 -0.01700
C 	C 	0.57412 0.99590 0.19362 -0.01600
C 	C 	0.63387 0.26867 0.87840 -0.13000
C 	C 	0.65509 0.22754 0.88629 0.07600
C 	C 	0.63099 0.68546 0.67787 0.06100
C 	C 	0.62224 0.67871 0.46533 0.05200
S 	S 	0.12923 0.41176 0.75883 0.07200
S 	S 	0.63438 0.41197 0.69093 0.06300
S 	S 	0.60290 0.91197 0.22241 0.06300
S 	S 	0.67059 0.91176 0.71747 0.07300
N 	N 	0.43515 0.66443 0.55630 -0.20100
N 	N 	0.82962 0.13324 0.76816 -0.23600
N 	N 	0.44540 0.69486 0.49948 -0.24000
N 	N 	0.71188 0.12194 0.75514 -0.24000
N 	N 	0.57556 0.81494 0.56424 -0.24500
N 	N 	0.68878 0.22735 0.84531 -0.23900
N 	N 	0.67109 0.14800 0.93505 -0.24200
N 	N 	0.45280 0.56162 0.64726 -0.20900
N 	N 	0.55536 0.68010 0.51726 -0.20800
N 	N 	0.46094 0.66683 0.66913 -0.20300
N 	N 	0.57266 0.72735 0.46143 -0.23900
N 	N 	0.70639 0.02322 0.87155 -0.23100
N 	N 	0.69736 0.18010 0.87526 -0.20800
N 	N 	0.37708 0.62194 0.58994 -0.24000
N 	N 	0.58305 0.64800 0.52309 -0.24200
N 	N 	0.76737 0.12594 0.96309 -0.21700
N 	N 	0.89362 0.20750 0.78200 -0.24000
N 	N 	0.55388 0.81733 0.48787 -0.23800
N 	N 	0.67481 0.02358 0.94963 -0.24400
N 	N 	0.40140 0.63324 0.69638 -0.23600
N 	N 	0.48950 0.70750 0.68612 -0.24000
N 	N 	0.85620 0.20626 0.89192 -0.24700
N 	N 	0.58903 0.62594 0.64143 -0.21800
N 	N 	0.55303 0.77965 0.54104 -0.20200
N 	N 	0.39477 0.52322 0.68317 -0.23100
N 	N 	0.83596 0.16683 0.79411 -0.20400
N 	N 	0.79788 0.16777 0.90467 -0.20400
N 	N 	0.47321 0.52358 0.65123 -0.24400
N 	N 	0.70888 0.06162 0.89118 -0.20900
N 	N 	0.59818 0.70626 0.64994 -0.24700
N 	N 	0.87918 0.31494 0.76062 -0.24500
N 	N 	0.82069 0.27965 0.77338 -0.20200
N 	N 	0.57244 0.66777 0.63011 -0.20400
N 	N 	0.80520 0.31733 0.73655 -0.23800
N 	N 	0.72073 0.16443 0.77072 -0.20100
N 	N 	0.69434 0.19486 0.75054 -0.24000
O 	O 	0.26980 0.56890 0.71330 -0.35700
O 	O 	0.50760 0.85066 0.38098 -0.38600
O 	O 	0.57115 0.48333 0.67136 -0.38600
O 	O 	0.70806 0.99481 0.76895 -0.63300
O 	O 	0.68590 0.85357 0.61009 -0.34400
O 	O 	0.26376 0.49481 0.71325 -0.63300
O 	O 	0.56191 0.81959 0.35430 -0.44800
O 	O 	0.64147 0.06372 0.06831 -0.44400
O 	O 	0.00129 0.32205 0.78400 -0.45400
O 	O 	0.60605 0.82205 0.67924 -0.45400
O 	O 	0.73164 0.35066 0.65694 -0.38600
O 	O 	0.96366 0.35357 0.83233 -0.34300
O 	O 	0.78220 0.06890 0.70090 -0.35800
O 	O 	0.27611 0.51019 0.77328 -0.39500
O 	O 	0.65469 0.98333 0.08782 -0.38700
O 	O 	0.78347 0.01019 0.76592 -0.39500
O 	O 	0.63203 0.56372 0.57775 -0.44400
O 	O 	0.67389 0.31959 0.74232 -0.44800
Zn	Zn	0.65118 0.43301 0.31930 1.20800
Zn	Zn	0.08431 0.72837 0.19249 1.19000
Zn	Zn	0.47061 0.22561 0.55823 1.18700
Zn	Zn	0.43801 0.43184 0.39593 1.17700
Zn	Zn	0.23695 0.83068 0.16429 1.13900
Zn	Zn	0.28383 0.72560 0.24501 1.18700
Zn	Zn	0.42086 0.22836 0.35594 1.19000
Zn	Zn	0.32777 0.93183 0.00617 1.17700
Zn	Zn	0.49497 0.33068 0.40627 1.13900
Zn	Zn	0.25230 0.93300 0.21818 1.20800
H 	H 	0.37540 0.77970 0.31470 0.05000
H 	H 	0.95110 0.76390 0.33080 0.03300
H 	H 	0.05800 0.81310 0.97490 0.03200
H 	H 	0.26250 0.54200 0.43450 0.04400
H 	H 	0.83860 0.53470 0.14910 0.14300
H 	H 	0.28800 0.31310 0.24490 0.03300
H 	H 	0.04710 0.75890 0.07220 0.06100
H 	H 	0.41450 0.71810 0.07320 0.02700
H 	H 	0.69960 0.39550 0.22410 0.09900
H 	H 	0.33020 0.36280 0.53020 0.06700
H 	H 	0.35160 0.97080 0.52260 0.03700
H 	H 	0.15430 0.89710 0.89800 0.05400
H 	H 	0.74230 0.43910 0.39980 0.08700
H 	H 	0.00800 0.56600 0.30600 0.06700
H 	H 	0.83710 0.45130 0.24160 -0.10900
H 	H 	0.29710 0.46840 0.46050 0.03900
H 	H 	0.16740 0.56030 0.36110 0.06600
H 	H 	0.35220 0.43250 0.30350 0.07400
H 	H 	0.94040 0.52570 0.19410 0.20700
H 	H 	0.42890 0.96840 0.82870 0.04000
H 	H 	0.19290 0.95130 0.38580 -0.10800
H 	H 	0.47650 0.04200 0.72050 0.04300
H 	H 	0.43220 0.19860 0.93400 0.03700
H 	H 	0.39300 0.86280 0.96740 0.06800
H 	H 	0.38940 0.97120 0.59640 0.03800
H 	H 	0.39880 0.19880 0.01560 0.05200
H 	H 	0.54170 0.59880 0.30610 0.06100
H 	H 	0.29510 0.39710 0.25720 0.05300
H 	H 	0.40490 0.09880 0.94290 0.06200
H 	H 	0.59470 0.26390 0.18720 0.03100
H 	H 	0.39470 0.91230 0.35480 0.03000
H 	H 	0.68730 0.33270 0.18360 0.04000
H 	H 	0.35740 0.19800 0.66040 0.08800
H 	H 	0.42140 0.06030 0.60710 0.06600
H 	H 	0.63260 0.69860 0.23360 0.03600
H 	H 	0.35840 0.69800 0.15940 0.08800
H 	H 	0.06760 0.47120 0.41820 0.03700
H 	H 	0.50760 0.23530 0.24930 0.07000
H 	H 	0.11960 0.89550 0.30410 0.09900
H 	H 	0.33110 0.25890 0.28820 0.06000
H 	H 	0.01630 0.83270 0.35460 0.03900
H 	H 	0.94060 0.57910 0.13730 -0.07900
H 	H 	0.23600 0.93250 0.91970 0.07300
H 	H 	0.29130 0.21810 0.69640 0.02700
H 	H 	0.71440 0.69880 0.20000 0.05200
H 	H 	0.43330 0.80020 0.97870 0.03700
H 	H 	0.76710 0.41230 0.48240 0.03000
H 	H 	0.41360 0.83670 0.35930 0.06000
H 	H 	0.69600 0.33670 0.57690 0.06000
H 	H 	0.99340 0.47080 0.38080 0.03700
H 	H 	0.21980 0.02570 0.41470 0.20600
H 	H 	0.27890 0.30020 0.63310 0.03600
H 	H 	0.98460 0.73530 0.27230 0.06800
H 	H 	0.37200 0.06600 0.44200 0.06700
H 	H 	0.59440 0.27970 0.59570 0.05000
H 	H 	0.33890 0.93910 0.30320 0.08700
H 	H 	0.71060 0.60020 0.23440 0.07900
H 	H 	0.18380 0.03470 0.30390 0.14300
H 	H 	0.21640 0.07910 0.36150 -0.07900
H 	H 	0.33460 0.10020 0.11040 0.07900
C 	C 	0.44085 0.09290 0.72193 -0.08300
C 	C 	0.37502 0.36642 0.32720 0.06400
C 	C 	0.30550 0.29318 0.61710 -0.03500
C 	C 	0.67874 0.65830 0.22798 -0.02600
C 	C 	0.38550 0.49044 0.37336 0.30500
C 	C 	0.31048 0.50410 0.42178 -0.01400
C 	C 	0.39180 0.00910 0.56830 -0.02200
C 	C 	0.14533 0.62171 0.30244 0.06700
C 	C 	0.36901 0.31454 0.32213 0.06100
C 	C 	0.33529 0.29332 0.29123 -0.11200
C 	C 	0.35596 0.82129 0.05647 0.05200
C 	C 	0.33319 0.82562 0.28193 0.04500
C 	C 	0.85470 0.54800 0.17310 -0.31000
C 	C 	0.39451 0.02118 0.83107 -0.09100
C 	C 	0.57193 0.54038 0.31009 0.05900
C 	C 	0.41380 0.06244 0.57376 -0.10900
C 	C 	0.13667 0.81454 0.05447 0.06200
C 	C 	0.01093 0.76651 0.27850 -0.11000
C 	C 	0.19362 0.86642 0.00860 0.06200
C 	C 	0.91450 0.53510 0.20740 -0.48200
C 	C 	0.29011 0.54608 0.40675 -0.02100
C 	C 	0.36768 0.81082 0.31216 -0.08800
C 	C 	0.38206 0.06503 0.47407 -0.11300
C 	C 	0.82010 0.54210 0.22360 0.12700
C 	C 	0.40852 0.12087 0.47645 0.05900
C 	C 	0.31483 0.59290 0.34795 -0.08300
C 	C 	0.75710 0.49900 0.25770 0.72100
C 	C 	0.09335 0.86284 0.29925 -0.11700
C 	C 	0.41028 0.79318 0.01232 -0.03600
C 	C 	0.37886 0.89138 0.33564 0.01200
C 	C 	0.33650 0.14222 0.34902 0.29000
C 	C 	0.35225 0.52118 0.37333 -0.09000
C 	C 	0.09145 0.82486 0.98481 -0.01000
C 	C 	0.46049 0.14513 0.65784 0.31100
C 	C 	0.60755 0.32562 0.50757 0.04500
C 	C 	0.37776 0.32129 0.53467 0.05200
C 	C 	0.54501 0.26651 0.24442 -0.11400
C 	C 	0.25670 0.99900 0.25810 0.72100
C 	C 	0.45283 0.04608 0.74403 -0.02000
C 	C 	0.40692 0.15836 0.97078 -0.01700
C 	C 	0.91390 0.57530 0.16580 0.35500
C 	C 	0.35293 0.23133 0.63480 -0.12900
C 	C 	0.65175 0.37397 0.44712 0.08800
C 	C 	0.11237 0.84461 0.26304 0.07700
C 	C 	0.19879 0.89752 0.95021 -0.10200
C 	C 	0.85470 0.49360 0.23430 0.46400
C 	C 	0.26570 0.04210 0.27800 0.12500
C 	C 	0.71270 0.40729 0.43811 -0.13900
C 	C 	0.59668 0.28270 0.20922 -0.01500
C 	C 	0.62914 0.65836 0.24856 -0.01600
C 	C 	0.36613 0.73133 0.12160 -0.13000
C 	C 	0.65386 0.32730 0.20484 -0.02300
C 	C 	0.38617 0.27246 0.57245 0.07600
C 	C 	0.30297 0.64513 0.31536 0.31100
C 	C 	0.36380 0.99044 0.89506 0.30700
C 	C 	0.55257 0.30134 0.27355 0.06500
C 	C 	0.34491 0.77246 0.11371 0.07600
C 	C 	0.24250 0.03510 0.37940 -0.48000
C 	C 	0.57452 0.59913 0.29117 -0.11700
C 	C 	0.15048 0.87731 0.93781 -0.02600
C 	C 	0.62298 0.31082 0.55686 -0.08800
C 	C 	0.72702 0.39138 0.48748 0.01200
C 	C 	0.60765 0.34461 0.26776 0.07500
C 	C 	0.39030 0.09913 0.97539 -0.11800
C 	C 	0.09732 0.62087 0.28765 0.05900
C 	C 	0.24110 0.07530 0.33860 0.35300
C 	C 	0.33666 0.33142 0.55602 -0.11100
C 	C 	0.25880 0.00910 0.31290 -0.37000
C 	C 	0.32109 0.87397 0.27778 0.08800
C 	C 	0.30967 0.32486 0.26659 -0.01400
C 	C 	0.07489 0.80134 0.25123 0.06300
C 	C 	0.32966 0.04144 0.08040 0.06700
C 	C 	0.62184 0.54144 0.28822 0.06700
C 	C 	0.93249 0.59711 0.20242 -0.07700
C 	C 	0.38744 0.83142 0.00524 -0.11200
C 	C 	0.31344 0.24361 0.65549 -0.00600
C 	C 	0.82200 0.50910 0.24970 -0.37200
C 	C 	0.34773 0.39752 0.30127 -0.10500
C 	C 	0.34742 0.09982 0.07736 -0.10900
C 	C 	0.35047 0.04038 0.03155 0.06000
C 	C 	0.68373 0.34513 0.54486 -0.04800
C 	C 	0.38628 0.15830 0.02044 -0.02500
C 	C 	0.37220 0.01030 0.52070 -0.01000
C 	C 	0.29953 0.09711 0.33538 -0.07800
C 	C 	0.34540 0.90729 0.30541 -0.13900
C 	C 	0.13620 0.56244 0.35136 -0.11000
C 	C 	0.38999 0.84513 0.33860 -0.04800
C 	C 	0.99192 0.78270 0.31398 -0.02000
C 	C 	0.42415 0.12171 0.52362 0.06700
C 	C 	0.39910 0.74361 0.06983 -0.00500
C 	C 	0.22790 0.99360 0.36110 0.46100
C 	C 	0.08455 0.79332 0.04197 -0.11500
C 	C 	0.31512 0.37731 0.27317 -0.02400
C 	C 	0.22110 0.04800 0.30670 -0.30800
C 	C 	0.03100 0.51030 0.36190 -0.01000
C 	C 	0.03910 0.56503 0.31703 -0.11300
C 	C 	0.07740 0.50910 0.38270 -0.02200
C 	C 	0.03214 0.82730 0.32656 -0.01900
C 	C 	0.67718 0.59982 0.24760 -0.10900
C 	C 	0.66209 0.36284 0.23051 -0.11400
C 	C 	0.42588 0.00410 0.80638 -0.01600
C 	C 	0.99124 0.64222 0.19428 0.28900
S 	S 	0.32941 0.08824 0.28253 0.07300
S 	S 	0.39710 0.08803 0.77759 0.06300
S 	S 	0.36562 0.58803 0.30907 0.06300
S 	S 	0.87077 0.58824 0.24117 0.07200
N 	N 	0.42444 0.18506 0.43576 -0.24500
N 	N 	0.27927 0.83557 0.22928 -0.20100
N 	N 	0.41097 0.37406 0.35857 -0.21800
N 	N 	0.54720 0.43838 0.35274 -0.20900
N 	N 	0.52679 0.47642 0.34877 -0.24400
N 	N 	0.31122 0.77265 0.15469 -0.23900
N 	N 	0.44697 0.22035 0.45896 -0.20200
N 	N 	0.40182 0.29374 0.35006 -0.24700
N 	N 	0.32891 0.85200 0.06495 -0.24200
N 	N 	0.32519 0.97642 0.05037 -0.24400
N 	N 	0.12082 0.68506 0.23938 -0.24500
N 	N 	0.30566 0.80514 0.24946 -0.24000
N 	N 	0.14380 0.79374 0.10808 -0.24700
N 	N 	0.56485 0.33557 0.44370 -0.20100
N 	N 	0.17038 0.86676 0.23184 -0.23600
N 	N 	0.44612 0.18267 0.51213 -0.23800
N 	N 	0.20212 0.83223 0.09533 -0.20400
N 	N 	0.30264 0.81990 0.12474 -0.20800
N 	N 	0.28812 0.87806 0.24486 -0.24000
N 	N 	0.53906 0.33317 0.33087 -0.20300
N 	N 	0.29112 0.93838 0.10882 -0.20900
N 	N 	0.16404 0.83317 0.20589 -0.20400
N 	N 	0.29361 0.97678 0.12845 -0.23100
N 	N 	0.19480 0.68267 0.26345 -0.23800
N 	N 	0.60523 0.47678 0.31683 -0.23100
N 	N 	0.23263 0.87406 0.03691 -0.21700
N 	N 	0.55460 0.30514 0.50052 -0.24000
N 	N 	0.59860 0.36676 0.30362 -0.23600
N 	N 	0.10638 0.79250 0.21800 -0.24000
N 	N 	0.41695 0.35200 0.47691 -0.24200
N 	N 	0.42734 0.27265 0.53857 -0.23900
N 	N 	0.44464 0.31990 0.48274 -0.20800
N 	N 	0.17931 0.72035 0.22662 -0.20200
N 	N 	0.42756 0.33223 0.36989 -0.20400
N 	N 	0.62292 0.37806 0.41006 -0.24000
N 	N 	0.51050 0.29250 0.31388 -0.24000
O 	O 	0.99871 0.67795 0.21600 -0.45400
O 	O 	0.34531 0.01667 0.91218 -0.38700
O 	O 	0.73624 0.50519 0.28675 -0.63300
O 	O 	0.42885 0.51667 0.32864 -0.38600
O 	O 	0.43809 0.18041 0.64570 -0.44800
O 	O 	0.21653 0.98981 0.23408 -0.39500
O 	O 	0.32611 0.68041 0.25768 -0.44800
O 	O 	0.49240 0.14934 0.61902 -0.38600
O 	O 	0.35853 0.93628 0.93169 -0.44400
O 	O 	0.29194 0.00519 0.23105 -0.63300
O 	O 	0.72389 0.48981 0.22672 -0.39500
O 	O 	0.73020 0.43110 0.28670 -0.35700
O 	O 	0.21780 0.93110 0.29910 -0.35800
O 	O 	0.39395 0.17795 0.32076 -0.45400
O 	O 	0.26836 0.64934 0.34306 -0.38600
O 	O 	0.36797 0.43628 0.42225 -0.44400
O 	O 	0.31410 0.14643 0.38991 -0.34400
O 	O 	0.03634 0.64643 0.16767 -0.34300
Zn	Zn	0.33571 0.59876 0.99497 1.13900
Zn	Zn	0.25500 0.47117 0.97061 1.18700
Zn	Zn	0.49383 0.66606 0.93801 1.17700
Zn	Zn	0.09373 0.09876 0.73695 1.13800
Zn	Zn	0.18070 0.02952 0.75230 1.20800
Zn	Zn	0.14406 0.22320 0.58430 1.19000
Zn	Zn	0.94177 0.97116 0.78384 1.18600
Zn	Zn	0.10406 0.16605 0.82778 1.17700
Zn	Zn	0.30750 0.72319 0.92086 1.19000
Zn	Zn	0.28183 0.52953 0.15117 1.20800
H 	H 	0.30590 0.86550 0.71980 0.20800
H 	H 	0.56600 0.63380 0.13260 0.03600
H 	H 	0.27590 0.07630 0.61960 0.09800
H 	H 	0.55710 0.65220 0.04170 0.06100
H 	H 	0.92310 0.72710 0.91360 0.06000
H 	H 	0.60200 0.94770 0.79510 0.05300
H 	H 	0.14520 0.25050 0.26710 0.02900
H 	H 	0.89290 0.97150 0.66740 0.06600
H 	H 	0.24280 0.44770 0.65430 0.05300
H 	H 	0.35090 0.01230 0.68380 0.14300
H 	H 	0.42780 0.88070 0.83110 0.06000
H 	H 	0.14540 0.62910 0.18730 0.04000
H 	H 	0.25070 0.24310 0.48460 0.07000
H 	H 	0.90430 0.80990 0.87540 0.05000
H 	H 	0.19390 0.15220 0.90490 0.06100
H 	H 	0.18530 0.30990 0.09440 0.05000
H 	H 	0.83960 0.98220 0.85840 0.08800
H 	H 	0.31640 0.12910 0.51630 0.04000
H 	H 	0.77950 0.80300 0.76250 0.04400
H 	H 	0.52510 0.96710 0.78800 0.03300
H 	H 	0.31280 0.21810 0.45110 0.03100
H 	H 	0.96980 0.13960 0.89300 0.06700
H 	H 	0.19610 0.51230 0.33860 0.14300
H 	H 	0.13850 0.42210 0.44060 -0.07900
H 	H 	0.30000 0.08560 0.89880 0.05200
H 	H 	0.03950 0.24240 0.92890 0.03800
H 	H 	0.97740 0.12580 0.49340 0.03600
H 	H 	0.06550 0.30300 0.97650 0.04400
H 	H 	0.80360 0.01230 0.91450 0.02700
H 	H 	0.11420 0.42130 0.33710 -0.10900
H 	H 	0.19590 0.57630 0.19960 0.09900
H 	H 	0.19680 0.35790 0.24230 0.08700
H 	H 	0.38960 0.55500 0.21060 0.07900
H 	H 	0.11920 0.62580 0.85160 0.03700
H 	H 	0.22770 0.74310 0.00760 0.07000
H 	H 	0.19400 0.68600 0.87200 0.06700
H 	H 	0.34060 0.48220 0.85740 0.08800
H 	H 	0.36270 0.92210 0.71640 -0.07900
H 	H 	0.01760 0.75050 0.89470 0.02900
H 	H 	0.52130 0.58800 0.77890 0.03600
H 	H 	0.48440 0.58560 0.21440 0.05200
H 	H 	0.67130 0.74240 0.79710 0.03900
H 	H 	0.08530 0.36550 0.44040 0.20700
H 	H 	0.53260 0.63960 0.83020 0.06700
H 	H 	0.26560 0.05500 0.83460 0.07800
H 	H 	0.90360 0.01420 0.56760 0.03800
H 	H 	0.14070 0.22710 0.19600 0.06000
H 	H 	0.05800 0.18600 0.50800 0.06800
H 	H 	0.25510 0.46710 0.55800 0.03300
H 	H 	0.21180 0.38070 0.54710 0.06000
H 	H 	0.10020 0.85790 0.83890 0.08800
H 	H 	0.16920 0.71810 0.09470 0.03100
H 	H 	0.08180 0.51420 0.88940 0.03700
H 	H 	0.25840 0.92130 0.69290 -0.11000
H 	H 	0.86690 0.08800 0.93330 0.03600
H 	H 	0.58030 0.84430 0.85220 0.07400
H 	H 	0.42680 0.51230 0.79130 0.02700
H 	H 	0.19650 0.34430 0.73600 0.07400
H 	H 	0.13890 0.47150 0.92140 0.06600
H 	H 	0.26640 0.13380 0.93220 0.03600
C 	C 	0.92755 0.04138 0.84491 0.07600
C 	C 	0.38629 0.54138 0.88617 0.07600
C 	C 	0.37840 0.51227 0.85293 -0.12900
C 	C 	0.17280 0.29778 0.69362 0.06400
C 	C 	0.24230 0.98520 0.75670 0.72200
C 	C 	0.02593 0.14387 0.53910 -0.11500
C 	C 	0.29078 0.19410 0.49192 -0.01500
C 	C 	0.16436 0.28550 0.22702 0.01200
C 	C 	0.01252 0.78550 0.87886 0.01400
C 	C 	0.25240 0.07522 0.84742 -0.10900
C 	C 	0.19330 0.47220 0.35470 -0.31000
C 	C 	0.18602 0.69410 0.09668 -0.01500
C 	C 	0.29516 0.14130 0.53214 -0.02300
C 	C 	0.96533 0.08757 0.85596 0.05200
C 	C 	0.14864 0.51244 0.91380 -0.11000
C 	C 	0.13810 0.60710 0.87220 -0.01000
C 	C 	0.60494 0.74114 0.88550 0.30500
C 	C 	0.24877 0.67388 0.05257 0.06500
C 	C 	0.20075 0.60740 0.16209 -0.11400
C 	C 	0.27640 0.95630 0.76570 0.12900
C 	C 	0.22683 0.41171 0.65048 -0.02400
C 	C 	0.19873 0.35100 0.69879 -0.10500
C 	C 	0.44553 0.80886 0.86901 0.06100
C 	C 	0.22150 0.71057 0.04501 -0.11400
C 	C 	0.45803 0.87348 0.83529 -0.11200
C 	C 	0.49476 0.60732 0.83666 -0.11100
C 	C 	0.92624 0.01244 0.63620 -0.10800
C 	C 	0.66893 0.77442 0.85225 -0.09000
C 	C 	0.69362 0.76774 0.81048 -0.01400
C 	C 	0.41960 0.58994 0.12184 0.06700
C 	C 	0.12664 0.24114 0.86380 0.30500
C 	C 	0.24190 0.48520 0.25710 0.72100
C 	C 	0.21235 0.61503 0.90852 0.05900
C 	C 	0.48768 0.57740 0.80550 -0.03500
C 	C 	0.22222 0.40113 0.15175 0.08800
C 	C 	0.97930 0.10710 0.53100 -0.00700
C 	C 	0.25144 0.12230 0.90692 -0.01600
C 	C 	0.22200 0.45630 0.32010 0.12700
C 	C 	0.19459 0.34919 0.21270 -0.13900
C 	C 	0.18710 0.42830 0.32200 -0.37200
C 	C 	0.09325 0.30314 0.95283 -0.02100
C 	C 	0.23341 0.42374 0.59145 -0.01400
C 	C 	0.23224 0.12459 0.61237 0.07500
C 	C 	0.42264 0.57522 0.17718 -0.10900
C 	C 	0.18991 0.11798 0.85047 0.05900
C 	C 	0.84216 0.88167 0.80297 0.31100
C 	C 	0.30572 0.81448 0.83650 0.29000
C 	C 	0.15098 0.31448 0.49124 0.29000
C 	C 	0.20877 0.37348 0.58455 -0.11200
C 	C 	0.32690 0.97220 0.72110 -0.31000
C 	C 	0.18784 0.32016 0.12298 -0.08800
C 	C 	0.44353 0.58757 0.87776 0.05200
C 	C 	0.11730 0.53990 0.89180 -0.02200
C 	C 	0.20883 0.13431 0.89030 -0.11700
C 	C 	0.94398 0.10732 0.88744 -0.11200
C 	C 	0.25030 0.92830 0.75880 -0.37500
C 	C 	0.21178 0.08994 0.82966 0.06700
C 	C 	0.25558 0.21057 0.51093 -0.11500
C 	C 	0.23696 0.62459 0.10765 0.07500
C 	C 	0.52461 0.63431 0.07452 -0.11700
C 	C 	0.99243 0.88488 0.83319 0.04400
C 	C 	0.29260 0.87810 0.74250 -0.48500
C 	C 	0.51519 0.92374 0.80967 -0.01400
C 	C 	0.88290 0.07740 0.91028 -0.03500
C 	C 	0.54979 0.85100 0.84773 -0.10500
C 	C 	0.16140 0.27141 0.18373 -0.04800
C 	C 	0.17787 0.30886 0.63667 0.06100
C 	C 	0.43017 0.53107 0.81344 -0.00600
C 	C 	0.07822 0.26774 0.92588 -0.01400
C 	C 	0.93170 0.03990 0.57740 -0.02300
C 	C 	0.19756 0.55223 0.92415 0.06700
C 	C 	0.06189 0.84919 0.84540 -0.14000
C 	C 	0.02355 0.11503 0.59732 0.05900
C 	C 	0.49140 0.79778 0.87502 0.06400
C 	C 	0.56219 0.91171 0.81512 -0.02400
C 	C 	0.46845 0.61798 0.07193 0.05900
C 	C 	0.77807 0.83722 0.81483 -0.08300
C 	C 	0.15205 0.33722 0.94085 -0.08300
C 	C 	0.27202 0.09328 0.88628 -0.02600
C 	C 	0.26570 0.91100 0.72790 0.46700
C 	C 	0.84451 0.03107 0.89910 -0.00600
C 	C 	0.94314 0.82016 0.86768 -0.08700
C 	C 	0.75597 0.80314 0.79011 -0.02100
C 	C 	0.17344 0.64130 0.15386 -0.02300
C 	C 	0.47956 0.59328 0.17874 -0.02600
C 	C 	0.95514 0.77141 0.88999 -0.05000
C 	C 	0.13890 0.41100 0.35470 0.46300
C 	C 	0.29758 0.86509 0.79953 -0.07700
C 	C 	0.52922 0.62230 0.12914 -0.01600
C 	C 	0.33420 0.92030 0.74110 0.35600
C 	C 	0.18464 0.38167 0.96049 0.31100
C 	C 	0.16140 0.42030 0.41390 0.35500
C 	C 	0.21807 0.38488 0.10755 0.04500
C 	C 	0.12060 0.37810 0.41450 -0.48200
C 	C 	0.86520 0.01227 0.86613 -0.12900
C 	C 	0.97638 0.05223 0.64533 0.06700
C 	C 	0.05288 0.90113 0.82109 0.08900
C 	C 	0.12667 0.27442 0.89451 -0.09000
C 	C 	0.26949 0.10740 0.59335 -0.11400
C 	C 	0.16462 0.36509 0.43249 -0.07800
C 	C 	0.18297 0.64387 0.88206 -0.11300
C 	C 	0.22645 0.17388 0.57489 0.06500
S 	S 	0.72241 0.82531 0.86562 0.06300
S 	S 	0.21747 0.38806 0.37077 0.07200
S 	S 	0.25883 0.88806 0.82941 0.07200
S 	S 	0.19093 0.32531 0.89710 0.06300
N 	N 	0.13011 0.20255 0.70212 -0.20400
N 	N 	0.19638 0.09778 0.67038 -0.23600
N 	N 	0.02309 0.10614 0.82891 -0.24200
N 	N 	0.37155 0.57794 0.10523 -0.23100
N 	N 	0.06424 0.13980 0.62082 -0.24600
N 	N 	0.23655 0.54175 0.94612 -0.23800
N 	N 	0.98787 0.04175 0.69480 -0.23800
N 	N 	0.46309 0.73046 0.91097 -0.21700
N 	N 	0.18317 0.07794 0.79361 -0.23100
N 	N 	0.05630 0.99145 0.77927 -0.20000
N 	N 	0.16913 0.13007 0.66404 -0.20400
N 	N 	0.18612 0.17562 0.60638 -0.24000
N 	N 	0.26062 0.63980 0.92444 -0.24500
N 	N 	0.15123 0.12444 0.82519 -0.24400
N 	N 	0.14994 0.24812 0.64380 -0.24700
N 	N 	0.08994 0.96702 0.78812 -0.24000
N 	N 	0.14143 0.23046 0.73263 -0.21800
N 	N 	0.44963 0.62444 0.02679 -0.24400
N 	N 	0.99948 0.94488 0.80566 -0.24000
N 	N 	0.43505 0.60614 0.91695 -0.24100
N 	N 	0.14726 0.10006 0.79112 -0.21000
N 	N 	0.26816 0.59778 0.09860 -0.23600
N 	N 	0.34531 0.53409 0.92734 -0.23900
N 	N 	0.29411 0.63007 0.03906 -0.20400
N 	N 	0.28200 0.67562 0.01050 -0.24000
N 	N 	0.04104 0.09407 0.67931 -0.20200
N 	N 	0.25054 0.44488 0.05460 -0.24000
N 	N 	0.39118 0.60006 0.04720 -0.20900
N 	N 	0.37526 0.57262 0.94464 -0.20800
N 	N 	0.27072 0.49145 0.06485 -0.20100
N 	N 	0.96143 0.03409 0.81122 -0.23900
N 	N 	0.01726 0.07262 0.80264 -0.20900
N 	N 	0.27338 0.59407 0.94697 -0.20200
N 	N 	0.40467 0.70255 0.92756 -0.20400
N 	N 	0.39192 0.74812 0.90182 -0.24700
N 	N 	0.25514 0.46702 0.12292 -0.24000
O 	O 	0.58782 0.74251 0.92885 -0.38500
O 	O 	0.17136 0.24251 0.84531 -0.38600
O 	O 	0.07775 0.20978 0.85853 -0.44400
O 	O 	0.33233 0.79599 0.81410 -0.34400
O 	O 	0.20090 0.48310 0.23020 -0.35800
O 	O 	0.11009 0.29599 0.53634 -0.34400
O 	O 	0.85430 0.91621 0.82611 -0.44800
O 	O 	0.27328 0.04939 0.71653 -0.39600
O 	O 	0.88098 0.88858 0.76836 -0.38600
O 	O 	0.21330 0.98310 0.71780 -0.35700
O 	O 	0.26895 0.47701 0.23624 -0.63300
O 	O 	0.24232 0.41621 0.93809 -0.44800
O 	O 	0.28400 0.78529 0.89395 -0.45400
O 	O 	0.56831 0.70978 0.86797 -0.44400
O 	O 	0.21325 0.97701 0.79194 -0.63300
O 	O 	0.15694 0.38858 0.99240 -0.38600
O 	O 	0.26592 0.54939 0.22389 -0.39500
O 	O 	0.17924 0.28529 0.49871 -0.45400
