data_crystal

_cell_length_a 34.22930
_cell_length_b 34.22890
_cell_length_c 34.22890
_cell_angle_alpha 109.47100
_cell_angle_beta  109.47100
_cell_angle_gamma 109.47100

_symmetry_space_group_name_	'P 1'
_symmetry_space_group_name_H-M	'P 1'

loop_
_symmetry_equiv_pos_as_xyz
  x,y,z

loop_
_atom_site_label
_atom_site_type_symbol
_atom_site_fract_x
_atom_site_fract_y
_atom_site_fract_z
_atom_site_charge
Dy	Dy	0.55124 0.55124 -0.00000 1.43000
Dy	Dy	0.62462 0.62462 0.62462 1.15300
Dy	Dy	-0.00000 0.49930 -0.00000 2.33500
Dy	Dy	-0.00000 0.37538 -0.00000 0.97200
Dy	Dy	0.00000 0.62462 -0.00000 1.39000
Dy	Dy	0.00000 0.00000 0.62462 1.39000
Dy	Dy	0.49930 0.00000 -0.00000 2.33500
Dy	Dy	0.00000 0.00000 0.37538 0.97200
Dy	Dy	0.50070 0.50070 0.50070 2.59300
Dy	Dy	0.00000 0.00000 0.49930 2.33500
Dy	Dy	0.37538 0.00000 -0.00000 0.97200
Dy	Dy	0.37538 0.37538 0.37538 1.51800
Dy	Dy	0.00000 0.55124 0.55124 1.43000
Dy	Dy	0.55124 -0.00000 0.55124 1.43000
Dy	Dy	0.00000 0.44876 0.44876 1.41100
Dy	Dy	0.44876 -0.00000 0.44876 1.41100
Dy	Dy	0.44876 0.44876 -0.00000 1.41100
Dy	Dy	0.62462 0.00000 -0.00000 1.39000
H 	H 	0.40230 0.03750 0.80740 0.20600
H 	H 	0.70400 0.30070 0.28770 0.06700
H 	H 	0.38830 0.40480 0.74970 0.06000
H 	H 	0.71040 0.71900 0.47960 0.05900
H 	H 	0.40230 0.80740 0.03750 0.20700
H 	H 	0.98650 0.54040 0.37110 0.21900
H 	H 	0.98290 0.53090 0.10820 0.43200
H 	H 	0.47310 0.15030 0.18800 0.04200
H 	H 	0.52690 0.71490 0.67720 0.05500
H 	H 	0.10820 0.53090 0.98290 0.43100
H 	H 	0.83070 0.45960 0.44610 0.01100
H 	H 	0.32280 0.84970 0.03770 0.00300
H 	H 	0.61170 0.36140 0.01650 -0.12300
H 	H 	0.79440 0.78360 0.46200 0.04300
H 	H 	0.03770 0.84970 0.32280 0.00300
H 	H 	0.82090 0.80070 0.36280 0.04000
H 	H 	0.61540 0.16930 0.62890 0.00300
H 	H 	0.69930 0.40330 0.98700 0.20900
H 	H 	0.03800 0.91680 0.37220 0.03800
H 	H 	0.12580 0.57730 0.16290 -0.01300
H 	H 	0.17910 0.54190 0.97980 0.49900
H 	H 	0.01300 0.71230 0.41630 -0.04300
H 	H 	0.19930 0.02020 0.56210 -0.41900
H 	H 	0.59520 0.98350 0.34490 0.23900
H 	H 	0.96290 0.41440 0.83710 0.07800
H 	H 	0.46200 0.79440 0.78360 0.04300
H 	H 	0.78360 0.46200 0.79440 0.04300
H 	H 	0.63520 0.40510 0.59770 0.07800
H 	H 	0.13200 0.98550 0.65390 0.12300
H 	H 	0.83070 0.44610 0.45960 0.01100
H 	H 	0.40330 0.98700 0.69930 0.20900
H 	H 	0.74840 0.74840 0.34240 0.10600
H 	H 	0.54460 0.66580 0.62780 -0.03400
H 	H 	0.67260 0.45890 0.98150 0.23900
H 	H 	0.01450 0.66840 0.14650 -0.13300
H 	H 	0.03750 0.40230 0.80740 0.20700
H 	H 	0.54850 0.42270 0.58560 0.00700
H 	H 	0.02150 0.63610 0.50340 -0.20000
H 	H 	0.01850 0.47740 0.69110 -0.16500
H 	H 	0.86730 0.38540 0.36390 -0.00400
H 	H 	0.15030 0.47310 0.18800 0.04200
H 	H 	0.01710 0.54800 0.12530 -0.39000
H 	H 	0.69930 0.98700 0.40330 0.20900
H 	H 	0.96230 0.81200 0.28510 0.08900
H 	H 	0.28100 0.99140 0.76060 0.29500
H 	H 	0.45200 0.57730 0.46910 0.01900
H 	H 	0.36390 0.86730 0.38540 -0.00400
H 	H 	0.46910 0.57730 0.45200 0.01900
H 	H 	0.45960 0.44610 0.83070 0.01100
H 	H 	0.32160 0.33240 0.53800 0.04000
H 	H 	0.47960 0.71900 0.71040 0.05900
H 	H 	0.21640 0.67840 0.01080 -0.16000
H 	H 	0.61170 0.01650 0.36140 -0.12300
H 	H 	0.23940 0.23080 0.52040 0.05400
H 	H 	0.38540 0.36390 0.86730 -0.00400
H 	H 	0.45200 0.46910 0.57730 0.01900
H 	H 	0.46200 0.78360 0.79440 0.04300
H 	H 	0.59770 0.63520 0.40510 0.07800
H 	H 	0.45960 0.83070 0.44610 0.01100
H 	H 	0.83710 0.41440 0.96290 0.07800
H 	H 	0.54040 0.98650 0.37110 0.21900
H 	H 	0.13270 0.51810 0.49660 -0.01600
H 	H 	0.01350 0.55390 0.38460 -0.20800
H 	H 	0.98150 0.45890 0.67260 0.23900
H 	H 	0.62780 0.66580 0.54460 -0.03400
H 	H 	0.41440 0.96290 0.83710 0.07800
H 	H 	0.28770 0.30070 0.70400 0.06700
H 	H 	0.23080 0.52040 0.23940 0.05400
H 	H 	0.98550 0.65390 0.13200 0.12300
H 	H 	0.76920 0.28960 0.00860 -0.16400
H 	H 	0.87420 0.03710 0.45150 -0.03400
H 	H 	0.76920 0.00860 0.28960 -0.16400
H 	H 	0.66840 0.01450 0.14650 -0.13300
H 	H 	0.25160 0.59400 -0.00000 0.09300
H 	H 	0.96200 0.87880 0.33420 -0.08000
H 	H 	0.65510 0.63860 0.25030 0.05900
H 	H 	0.01080 0.21640 0.67840 -0.16000
H 	H 	0.86800 0.85350 0.52190 0.00500
H 	H 	0.59490 0.23010 0.19260 0.07200
H 	H 	0.37110 0.98650 0.54040 0.21900
H 	H 	0.71230 0.01300 0.41630 -0.04300
H 	H 	0.89180 0.42270 0.87470 0.02300
H 	H 	0.98290 0.10820 0.53090 0.43200
H 	H 	0.36480 0.76990 0.96250 -0.05700
H 	H 	0.82090 0.36280 0.80070 0.04000
H 	H 	0.97980 0.17910 0.54190 0.50000
H 	H 	0.49660 0.13270 0.51810 -0.01600
H 	H 	0.62890 0.61540 0.16930 0.00300
H 	H 	0.87880 0.96200 0.33420 -0.08000
H 	H 	0.40480 0.74970 0.38830 0.06000
H 	H 	0.57730 0.45200 0.46910 0.01900
H 	H 	0.54110 0.52260 0.21370 0.03500
H 	H 	0.19260 0.23010 0.59490 0.07200
H 	H 	0.84970 0.03770 0.32280 0.00300
H 	H 	0.36390 0.38540 0.86730 -0.00400
H 	H 	0.96200 0.33420 0.87880 -0.08000
H 	H 	0.83710 0.96290 0.41440 0.07800
H 	H 	0.44610 0.83070 0.45960 0.01100
H 	H 	0.37220 0.91680 0.03800 0.03800
H 	H 	0.12120 0.45540 0.08320 -0.04000
H 	H 	0.36280 0.80070 0.82090 0.04000
H 	H 	0.58560 0.42270 0.54850 0.00700
H 	H 	0.21370 0.52260 0.54110 0.03500
H 	H 	0.59400 0.25160 -0.00000 0.09300
H 	H 	0.01650 0.61170 0.36140 -0.12300
H 	H 	0.36140 0.61170 0.01650 -0.12300
H 	H 	0.38540 0.86730 0.36390 -0.00400
H 	H 	0.89180 0.87470 0.42270 0.02300
H 	H 	0.67260 0.98150 0.45890 0.23900
H 	H 	0.54800 0.01710 0.12530 -0.38900
H 	H 	0.78630 0.30890 0.32740 0.03600
H 	H 	0.12530 0.54800 0.01710 -0.38900
H 	H 	0.80740 0.40230 0.03750 0.20700
H 	H 	0.97850 0.48190 0.61460 0.17900
H 	H 	0.28960 0.00860 0.76920 -0.16400
H 	H 	0.01350 0.38460 0.55390 -0.20800
H 	H 	0.87420 0.45150 0.03710 -0.03400
H 	H 	0.71900 0.47960 0.71040 0.05900
H 	H 	0.91680 0.37220 0.03800 0.03800
H 	H 	0.34240 0.74840 0.74840 0.10600
H 	H 	0.00860 0.76920 0.28960 -0.16400
H 	H 	0.28510 0.81200 0.96230 0.08900
H 	H 	0.80740 0.03750 0.40230 0.20700
H 	H 	0.59670 0.58370 0.29600 0.06900
H 	H 	0.28100 0.76060 0.99140 0.29500
H 	H 	0.76990 0.36480 0.96250 -0.05700
H 	H 	0.01080 0.67840 0.21640 -0.16000
H 	H 	0.53090 0.10820 0.98290 0.43200
H 	H 	0.47740 0.01850 0.69110 -0.16500
H 	H 	0.32280 0.03770 0.84970 0.00300
H 	H 	0.98920 0.20560 0.66760 0.23500
H 	H 	0.38460 0.01350 0.55390 -0.20800
H 	H 	0.78630 0.32740 0.30890 0.03600
H 	H 	0.45890 0.67260 0.98150 0.23900
H 	H 	0.71900 0.71040 0.47960 0.05900
H 	H 	0.86800 0.52190 0.85350 0.00500
H 	H 	0.98350 0.34490 0.59520 0.23900
H 	H 	0.57730 0.16290 0.12580 -0.01300
H 	H 	0.52190 0.85350 0.86800 0.00500
H 	H 	0.12120 0.08320 0.45540 -0.04000
H 	H 	0.56210 0.19930 0.02020 -0.41900
H 	H 	0.66760 0.20560 0.98920 0.23500
H 	H 	0.58370 0.59670 0.29600 0.06900
H 	H 	0.29600 0.58370 0.59670 0.06900
H 	H 	0.98350 0.59520 0.34490 0.23900
H 	H 	0.16930 0.61540 0.62890 0.00300
H 	H 	0.47740 0.69110 0.01850 -0.16500
H 	H 	0.33420 0.87880 0.96200 -0.08000
H 	H 	0.42270 0.87470 0.89180 0.02300
H 	H 	0.49660 0.51810 0.13270 -0.01600
H 	H 	0.03710 0.45150 0.87420 -0.03400
H 	H 	0.62780 0.54460 0.66580 -0.03400
H 	H 	0.91680 0.03800 0.37220 0.03800
H 	H 	0.71490 0.67720 0.52690 0.05500
H 	H 	0.96230 0.28510 0.81200 0.08900
H 	H 	0.52040 0.23080 0.23940 0.05400
H 	H 	0.45890 0.98150 0.67260 0.23900
H 	H 	0.65390 0.13200 0.98550 0.12300
H 	H 	0.32740 0.78630 0.30890 0.03600
H 	H 	0.98650 0.37110 0.54040 0.21900
H 	H 	0.37110 0.54040 0.98650 0.21900
H 	H 	0.56210 0.02020 0.19930 -0.41900
H 	H 	0.21640 0.01080 0.67840 -0.16000
H 	H 	0.23010 0.19260 0.59490 0.07200
H 	H 	0.54190 0.17910 0.97980 0.49900
H 	H 	0.30890 0.78630 0.32740 0.03600
H 	H 	0.61460 0.97850 0.48190 0.17900
H 	H 	0.17910 0.97980 0.54190 0.49900
H 	H 	0.40600 0.65760 0.40600 0.10800
H 	H 	0.66760 0.98920 0.20560 0.23500
H 	H 	0.38830 0.74970 0.40480 0.06000
H 	H 	0.33240 0.53800 0.32160 0.04000
H 	H 	0.51810 0.49660 0.13270 -0.01600
H 	H 	0.58370 0.29600 0.59670 0.06900
H 	H 	0.74970 0.40480 0.38830 0.06000
H 	H 	0.66580 0.54460 0.62780 -0.03400
H 	H 	0.14650 0.01450 0.66840 -0.13300
H 	H 	0.71040 0.47960 0.71900 0.05900
H 	H 	0.63720 0.43790 0.45810 0.04200
H 	H 	0.18800 0.47310 0.15030 0.04200
H 	H 	0.10820 0.98290 0.53090 0.43100
H 	H 	0.34610 0.33160 0.47810 -0.00900
H 	H 	0.20560 0.66760 0.98920 0.23500
H 	H 	0.33240 0.32160 0.53800 0.04000
H 	H 	0.30890 0.32740 0.78630 0.03600
H 	H 	0.54460 0.62780 0.66580 -0.03400
H 	H 	0.65510 0.25030 0.63860 0.05900
H 	H 	0.52260 0.21370 0.54110 0.03500
H 	H 	0.98920 0.66760 0.20560 0.23500
H 	H 	0.86730 0.36390 0.38540 -0.00400
H 	H 	0.00860 0.28960 0.76920 -0.16400
H 	H 	-0.00000 0.25160 0.59400 0.09300
H 	H 	0.23010 0.59490 0.19260 0.07200
H 	H 	0.63610 0.02150 0.50340 -0.20000
H 	H 	0.63860 0.65510 0.25030 0.05900
H 	H 	0.54190 0.97980 0.17910 0.49900
H 	H 	0.45810 0.63720 0.43790 0.04200
H 	H 	0.41440 0.83710 0.96290 0.07800
H 	H 	0.66840 0.14650 0.01450 -0.13300
H 	H 	0.32740 0.30890 0.78630 0.03600
H 	H 	0.80070 0.36280 0.82090 0.04000
H 	H 	0.53090 0.98290 0.10820 0.43200
H 	H 	0.34490 0.59520 0.98350 0.23900
H 	H 	0.34490 0.98350 0.59520 0.23900
H 	H 	0.03750 0.80740 0.40230 0.20700
H 	H 	0.59490 0.19260 0.23010 0.07200
H 	H 	0.29600 0.59670 0.58370 0.06900
H 	H 	0.96250 0.76990 0.36480 -0.05700
H 	H 	0.48190 0.97850 0.61460 0.17900
H 	H 	0.43790 0.45810 0.63720 0.04200
H 	H 	0.63520 0.59770 0.40510 0.07800
H 	H 	0.25030 0.63860 0.65510 0.05900
H 	H 	0.97980 0.54190 0.17910 0.50000
H 	H 	0.21370 0.54110 0.52260 0.03500
H 	H 	0.30070 0.70400 0.28770 0.06700
H 	H 	0.70400 0.28770 0.30070 0.06700
H 	H 	0.50340 0.02150 0.63610 -0.20000
H 	H 	0.55390 0.01350 0.38460 -0.20800
H 	H 	0.03800 0.37220 0.91680 0.03800
H 	H 	0.15030 0.18800 0.47310 0.04200
H 	H 	0.65760 0.40600 0.40600 0.10800
H 	H 	0.62890 0.16930 0.61540 0.00300
H 	H 	0.23080 0.23940 0.52040 0.05400
H 	H 	0.01450 0.14650 0.66840 -0.13300
H 	H 	0.47810 0.33160 0.34610 -0.00900
H 	H 	0.19260 0.59490 0.23010 0.07200
H 	H 	0.47310 0.18800 0.15030 0.04200
H 	H 	0.16930 0.62890 0.61540 0.00300
H 	H 	0.98700 0.40330 0.69930 0.20900
H 	H 	0.51810 0.13270 0.49660 -0.01600
H 	H 	0.42270 0.54850 0.58560 0.00700
H 	H 	0.48190 0.61460 0.97850 0.17900
H 	H 	0.40510 0.63520 0.59770 0.07800
H 	H 	0.36280 0.82090 0.80070 0.04000
H 	H 	0.59770 0.40510 0.63520 0.07800
H 	H 	0.02020 0.19930 0.56210 -0.42000
H 	H 	0.01650 0.36140 0.61170 -0.12300
H 	H 	0.52190 0.86800 0.85350 0.00500
H 	H 	0.34610 0.47810 0.33160 -0.00900
H 	H 	0.01300 0.41630 0.71230 -0.04300
H 	H 	0.25030 0.65510 0.63860 0.05900
H 	H 	0.81200 0.28510 0.96230 0.08900
H 	H 	0.45540 0.12120 0.08320 -0.04000
H 	H 	0.08320 0.45540 0.12120 -0.04000
H 	H 	0.33420 0.96200 0.87880 -0.08000
H 	H 	0.53800 0.32160 0.33240 0.04000
H 	H 	0.54850 0.58560 0.42270 0.00700
H 	H 	0.69110 0.01850 0.47740 -0.16500
H 	H 	0.59670 0.29600 0.58370 0.06900
H 	H 	0.55390 0.38460 0.01350 -0.20800
H 	H 	0.57730 0.12580 0.16290 -0.01300
H 	H 	0.01850 0.69110 0.47740 -0.16500
H 	H 	0.52260 0.54110 0.21370 0.03500
H 	H 	0.97850 0.61460 0.48190 0.17900
H 	H 	0.65390 0.98550 0.13200 0.12300
H 	H 	0.45150 0.03710 0.87420 -0.03400
H 	H 	0.13200 0.65390 0.98550 0.12300
H 	H 	0.13270 0.49660 0.51810 -0.01600
H 	H 	0.61540 0.62890 0.16930 0.00300
H 	H 	0.84970 0.32280 0.03770 0.00300
H 	H 	0.54040 0.37110 0.98650 0.21900
H 	H 	0.63610 0.50340 0.02150 -0.20000
H 	H 	0.32160 0.53800 0.33240 0.04000
H 	H 	0.85350 0.52190 0.86800 0.00500
H 	H 	0.18800 0.15030 0.47310 0.04200
H 	H 	0.78360 0.79440 0.46200 0.04300
H 	H 	0.41630 0.01300 0.71230 -0.04300
H 	H 	0.01710 0.12530 0.54800 -0.39000
H 	H 	0.16290 0.57730 0.12580 -0.01300
H 	H 	0.38460 0.55390 0.01350 -0.20800
H 	H 	0.28510 0.96230 0.81200 0.08900
H 	H 	0.45540 0.08320 0.12120 -0.04000
H 	H 	0.33160 0.47810 0.34610 -0.00900
H 	H 	0.40600 0.40600 0.65760 0.10800
H 	H 	0.71230 0.41630 0.01300 -0.04300
H 	H 	0.63860 0.25030 0.65510 0.05900
H 	H 	0.45810 0.43790 0.63720 0.04200
H 	H 	0.79440 0.46200 0.78360 0.04300
H 	H 	0.57730 0.46910 0.45200 0.01900
H 	H 	0.02150 0.50340 0.63610 -0.20000
H 	H 	0.66580 0.62780 0.54460 -0.03400
H 	H 	0.25160 -0.00000 0.59400 0.09300
H 	H 	0.81200 0.96230 0.28510 0.08900
H 	H 	0.80070 0.82090 0.36280 0.04000
H 	H 	0.43790 0.63720 0.45810 0.04200
H 	H 	0.54110 0.21370 0.52260 0.03500
H 	H 	0.46910 0.45200 0.57730 0.01900
H 	H 	0.74840 0.34240 0.74840 0.10600
H 	H 	0.96250 0.36480 0.76990 -0.05700
H 	H 	0.41630 0.71230 0.01300 -0.04300
H 	H 	0.40480 0.38830 0.74970 0.06000
H 	H 	0.67840 0.21640 0.01080 -0.16000
H 	H 	0.76990 0.96250 0.36480 -0.05700
H 	H 	0.28960 0.76920 0.00860 -0.16400
H 	H 	0.67840 0.01080 0.21640 -0.16000
H 	H 	0.36140 0.01650 0.61170 -0.12300
H 	H 	0.87470 0.89180 0.42270 0.02300
H 	H 	0.50340 0.63610 0.02150 -0.20000
H 	H 	0.40510 0.59770 0.63520 0.07800
H 	H 	0.33160 0.34610 0.47810 -0.00900
H 	H 	0.36480 0.96250 0.76990 -0.05700
H 	H 	0.96290 0.83710 0.41440 0.07800
H 	H 	0.45150 0.87420 0.03710 -0.03400
H 	H 	0.76060 0.28100 0.99140 0.29500
H 	H 	0.74970 0.38830 0.40480 0.06000
H 	H 	0.59400 -0.00000 0.25160 0.09300
H 	H 	0.03770 0.32280 0.84970 0.00300
H 	H 	0.40330 0.69930 0.98700 0.20900
H 	H 	0.52040 0.23940 0.23080 0.05400
H 	H 	-0.00000 0.59400 0.25160 0.09300
H 	H 	0.12530 0.01710 0.54800 -0.38900
H 	H 	0.44610 0.45960 0.83070 0.01100
H 	H 	0.42270 0.58560 0.54850 0.00700
H 	H 	0.87880 0.33420 0.96200 -0.08000
H 	H 	0.02020 0.56210 0.19930 -0.42000
H 	H 	0.47960 0.71040 0.71900 0.05900
H 	H 	0.30070 0.28770 0.70400 0.06700
H 	H 	0.42270 0.89180 0.87470 0.02300
H 	H 	0.69110 0.47740 0.01850 -0.16500
H 	H 	0.67720 0.52690 0.71490 0.05500
H 	H 	0.98150 0.67260 0.45890 0.23900
H 	H 	0.98700 0.69930 0.40330 0.20900
H 	H 	0.08320 0.12120 0.45540 -0.04000
H 	H 	0.87470 0.42270 0.89180 0.02300
H 	H 	0.63720 0.45810 0.43790 0.04200
H 	H 	0.52690 0.67720 0.71490 0.05500
H 	H 	0.54800 0.12530 0.01710 -0.38900
H 	H 	0.37220 0.03800 0.91680 0.03800
H 	H 	0.12580 0.16290 0.57730 -0.01300
H 	H 	0.76060 0.99140 0.28100 0.29500
H 	H 	0.19930 0.56210 0.02020 -0.41900
H 	H 	0.67720 0.71490 0.52690 0.05500
H 	H 	0.28770 0.70400 0.30070 0.06700
H 	H 	0.03710 0.87420 0.45150 -0.03400
H 	H 	0.99140 0.76060 0.28100 0.29600
H 	H 	0.98550 0.13200 0.65390 0.12300
H 	H 	0.20560 0.98920 0.66760 0.23500
H 	H 	0.58560 0.54850 0.42270 0.00700
H 	H 	0.53800 0.33240 0.32160 0.04000
H 	H 	0.71490 0.52690 0.67720 0.05500
H 	H 	0.47810 0.34610 0.33160 -0.00900
H 	H 	0.61460 0.48190 0.97850 0.17900
H 	H 	0.85350 0.86800 0.52190 0.00500
H 	H 	0.59520 0.34490 0.98350 0.23900
H 	H 	0.99140 0.28100 0.76060 0.29600
H 	H 	0.16290 0.12580 0.57730 -0.01300
H 	H 	0.14650 0.66840 0.01450 -0.13300
H 	H 	0.23940 0.52040 0.23080 0.05400
C 	C 	0.46862 0.62710 0.01072 0.68700
C 	C 	0.01110 0.14150 0.57220 1.22300
C 	C 	0.99350 0.18840 0.64230 -0.25800
C 	C 	0.48938 0.84690 0.85448 0.03000
C 	C 	0.00000 0.07525 0.59155 0.60500
C 	C 	0.61168 0.63390 0.43338 -0.13400
C 	C 	0.37290 0.38362 0.84152 0.03200
C 	C 	0.45451 0.90642 0.45451 0.51300
C 	C 	0.00758 0.64248 0.15310 0.29400
C 	C 	0.71920 0.99470 0.30650 0.26100
C 	C 	0.85404 0.41772 0.41772 -0.17600
C 	C 	0.01220 0.18450 0.57970 1.36300
C 	C 	0.64750 0.00000 0.28610 0.13600
C 	C 	0.59989 0.60994 0.18083 0.03100
C 	C 	0.64750 0.28610 -0.00000 0.13600
C 	C 	0.57089 0.98995 0.39006 -0.37100
C 	C 	0.43070 0.85850 0.86960 0.02900
C 	C 	0.38570 0.01017 0.61447 0.33900
C 	C 	0.65830 0.68065 0.50555 -0.14000
C 	C 	0.55650 0.54602 0.20632 -0.08100
C 	C 	0.41060 0.79550 0.79550 0.14300
C 	C 	0.88246 -0.00000 0.39793 -0.28400
C 	C 	0.80510 0.81160 0.45390 -0.07100
C 	C 	0.01017 0.38570 0.61447 0.33900
C 	C 	0.83891 0.97781 0.39550 -0.09400
C 	C 	0.56930 0.43890 0.42780 0.03400
C 	C 	0.42030 0.60480 0.43250 -0.07700
C 	C 	0.01820 0.69650 0.36610 0.94500
C 	C 	0.53138 0.54210 0.15848 0.03400
C 	C 	0.15275 0.17510 0.49445 -0.14000
C 	C 	0.37100 0.88667 0.02227 -0.12000
C 	C 	0.35250 0.35250 0.63860 0.18400
C 	C 	0.69650 0.01820 0.36610 0.94500
C 	C 	0.14150 0.57220 0.01110 1.22200
C 	C 	0.14596 0.56368 0.56368 -0.19400
C 	C 	0.51062 0.35752 0.36510 0.03500
C 	C 	0.36610 0.01820 0.69650 0.94500
C 	C 	0.34873 0.97773 0.86440 0.29200
C 	C 	0.41769 0.02219 0.86110 0.24400
C 	C 	0.28610 0.64750 -0.00000 0.13600
C 	C 	0.46440 0.66080 0.66080 0.23000
C 	C 	0.88667 0.02227 0.37100 -0.12000
C 	C 	0.60430 0.98983 0.37553 -0.48000
C 	C 	0.55659 0.13890 0.16109 0.07200
C 	C 	0.44341 0.60450 0.58231 0.07200
C 	C 	0.81160 0.80510 0.45390 -0.07100
C 	C 	0.43250 0.60480 0.42030 -0.07700
C 	C 	0.02235 0.84725 0.34170 0.02200
C 	C 	0.66080 0.66080 0.46440 0.23000
C 	C 	0.50555 0.65830 0.68065 -0.14000
C 	C 	0.62447 0.22877 0.61430 -0.08500
C 	C 	0.01048 0.45398 0.66030 0.51000
C 	C 	0.60207 0.48453 0.60207 -0.26000
C 	C 	0.43250 0.42030 0.60480 -0.07700
C 	C 	0.82170 0.38832 0.02222 -0.38000
C 	C 	0.88246 0.39793 -0.00000 -0.28400
C 	C 	0.84725 0.34170 0.02235 0.02200
C 	C 	0.44350 0.98952 0.64982 -0.64500
C 	C 	0.53560 0.19640 0.19640 0.22600
C 	C 	0.18450 0.01220 0.57970 1.36100
C 	C 	0.55650 0.20632 0.54602 -0.08100
C 	C 	0.54210 0.15848 0.53138 0.03400
C 	C 	0.17510 0.49445 0.15275 -0.14000
C 	C 	0.68820 0.41270 0.69350 0.06800
C 	C 	0.19490 0.00650 0.64880 0.14800
C 	C 	0.72450 0.31180 0.00530 -0.11600
C 	C 	0.98890 0.56110 0.13040 -1.13600
C 	C 	0.30350 0.32170 0.66960 0.08500
C 	C 	0.20632 0.55650 0.54602 -0.08100
C 	C 	0.45790 0.61638 0.98928 -0.58900
C 	C 	0.54610 0.35770 0.35120 -0.07600
C 	C 	0.32170 0.66960 0.30350 0.08500
C 	C 	0.00000 0.40740 0.64900 0.10700
C 	C 	0.67830 0.34790 0.98180 -0.75400
C 	C 	0.37290 0.84152 0.38362 0.03200
C 	C 	0.00000 0.54549 0.45191 0.53200
C 	C 	0.40011 0.01005 0.58094 0.46300
C 	C 	0.35120 0.54610 0.35770 -0.07600
C 	C 	0.00000 0.28610 0.64750 0.13600
C 	C 	0.02222 0.38832 0.82170 -0.38000
C 	C 	0.64230 0.18840 0.99350 -0.25800
C 	C 	0.35770 0.35120 0.54610 -0.07600
C 	C 	0.17230 0.56750 0.98780 -1.48000
C 	C 	0.01048 0.66030 0.45398 0.51000
C 	C 	0.56750 0.98780 0.17230 -1.48000
C 	C 	0.45398 0.01048 0.66030 0.51000
C 	C 	0.38362 0.37290 0.84152 0.03200
C 	C 	0.98180 0.34790 0.67830 -0.75400
C 	C 	0.39793 0.88246 -0.00000 -0.28400
C 	C 	0.63390 0.43338 0.61168 -0.13500
C 	C 	0.79550 0.79550 0.41060 0.14300
C 	C 	0.87920 0.87920 0.47900 -0.18900
C 	C 	0.84725 0.02235 0.34170 0.02200
C 	C 	0.00000 0.88246 0.39793 -0.28500
C 	C 	0.59260 0.59260 0.24160 0.15700
C 	C 	0.59989 0.18083 0.60994 0.03100
C 	C 	0.31180 0.72450 0.00530 -0.11600
C 	C 	0.98928 0.61638 0.45790 -0.59000
C 	C 	0.51547 0.11754 0.11754 -0.25900
C 	C 	0.45191 -0.00000 0.54549 0.53200
C 	C 	0.92567 0.43013 -0.00000 0.56100
C 	C 	0.63390 0.33040 0.65210 0.08600
C 	C 	0.98890 0.13040 0.56110 -1.13600
C 	C 	0.58940 0.38490 0.38490 0.14600
C 	C 	0.15848 0.53138 0.54210 0.03400
C 	C 	0.84690 0.48938 0.85448 0.03000
C 	C 	0.99350 0.64230 0.18840 -0.25800
C 	C 	0.34170 0.84725 0.02235 0.02200
C 	C 	0.28080 0.58730 0.27550 0.06500
C 	C 	0.42911 0.81917 0.41906 0.03000
C 	C 	0.18840 0.64230 0.99350 -0.25800
C 	C 	0.14150 0.01110 0.57220 1.22200
C 	C 	0.57970 0.01220 0.18450 1.36200
C 	C 	0.87920 0.47900 0.87920 -0.18900
C 	C 	0.02219 0.86110 0.41769 0.24400
C 	C 	0.92567 0.00000 0.43013 0.56100
C 	C 	0.15310 0.64248 0.00758 0.29400
C 	C 	0.43070 0.86960 0.85850 0.02900
C 	C 	0.57220 0.14150 0.01110 1.22200
C 	C 	0.41906 0.42911 0.81917 0.03000
C 	C 	0.71390 0.71390 0.36140 0.18500
C 	C 	0.81917 0.42911 0.41906 0.03000
C 	C 	0.68820 0.69350 0.41270 0.06800
C 	C 	0.51567 0.65127 0.62900 0.08300
C 	C 	0.20450 -0.00000 0.61510 0.07900
C 	C 	0.35752 0.51062 0.36510 0.03500
C 	C 	0.30350 0.66960 0.32170 0.08500
C 	C 	0.02227 0.37100 0.88667 -0.12000
C 	C 	0.54610 0.35120 0.35770 -0.07600
C 	C 	0.54549 0.45191 -0.00000 0.53200
C 	C 	0.65830 0.50555 0.68065 -0.14000
C 	C 	0.61638 0.45790 0.98928 -0.58900
C 	C 	0.13560 0.11333 0.48433 0.07900
C 	C 	0.85850 0.43070 0.86960 0.02900
C 	C 	0.13560 0.48433 0.11333 0.07900
C 	C 	0.01110 0.57220 0.14150 1.22300
C 	C 	0.07525 -0.00000 0.59155 0.60500
C 	C 	0.42780 0.43890 0.56930 0.03400
C 	C 	0.62710 0.46862 0.01072 0.68700
C 	C 	0.51567 0.62900 0.65127 0.08300
C 	C 	0.57089 0.39006 0.98995 -0.37100
C 	C 	0.38490 0.38490 0.58940 0.14600
C 	C 	0.56930 0.42780 0.43890 0.03400
C 	C 	0.42780 0.56930 0.43890 0.03400
C 	C 	0.50446 0.07433 0.07433 0.61000
C 	C 	0.54602 0.20632 0.55650 -0.08100
C 	C 	0.30650 0.71920 0.99470 0.26100
C 	C 	0.45398 0.66030 0.01048 0.51000
C 	C 	0.98952 0.64982 0.44350 -0.64600
C 	C 	0.98995 0.57089 0.39006 -0.37100
C 	C 	0.36610 0.79948 0.97778 0.16900
C 	C 	0.38553 0.39570 0.77123 -0.08100
C 	C 	0.66030 0.45398 0.01048 0.51000
C 	C 	0.59980 0.12080 -0.00000 -0.26100
C 	C 	0.43013 0.92567 -0.00000 0.56100
C 	C 	0.39550 0.83891 0.97781 -0.09400
C 	C 	0.39793 -0.00000 0.88246 -0.28400
C 	C 	0.41270 0.69350 0.68820 0.06800
C 	C 	0.45390 0.80510 0.81160 -0.07100
C 	C 	0.54602 0.55650 0.20632 -0.08100
C 	C 	0.39520 0.82770 0.81550 -0.07300
C 	C 	0.84152 0.38362 0.37290 0.03200
C 	C 	0.80360 0.33920 -0.00000 0.15100
C 	C 	0.64248 0.00758 0.15310 0.29400
C 	C 	0.01220 0.57970 0.18450 1.36300
C 	C 	0.86960 0.85850 0.43070 0.02900
C 	C 	0.39006 0.98995 0.57089 -0.37100
C 	C 	0.38362 0.84152 0.37290 0.03200
C 	C 	0.00758 0.15310 0.64248 0.29400
C 	C 	0.20052 0.17830 0.56662 -0.13700
C 	C 	0.60480 0.43250 0.42030 -0.07700
C 	C 	0.63390 0.65210 0.33040 0.08600
C 	C 	0.64880 0.19490 0.00650 0.14800
C 	C 	0.99242 0.14552 0.63490 -0.20600
C 	C 	0.59155 0.07525 -0.00000 0.60500
C 	C 	0.79550 0.41060 0.79550 0.14300
C 	C 	0.17510 0.15275 0.49445 -0.14000
C 	C 	0.99470 0.30650 0.71920 0.26100
C 	C 	0.19490 0.64880 0.00650 0.14800
C 	C 	0.54809 0.09358 0.54809 0.51600
C 	C 	0.57970 0.18450 0.01220 1.36200
C 	C 	0.36510 0.51062 0.35752 0.03500
C 	C 	0.41769 0.86110 0.02219 0.24400
C 	C 	0.60450 0.44341 0.58231 0.07200
C 	C 	0.97765 0.82490 0.31935 -0.24600
C 	C 	0.43338 0.61168 0.63390 -0.13400
C 	C 	0.01005 0.40011 0.58094 0.46300
C 	C 	0.00650 0.64880 0.19490 0.14800
C 	C 	0.38832 0.82170 0.02222 -0.38000
C 	C 	0.61430 0.62447 0.22877 -0.08500
C 	C 	0.81550 0.82770 0.39520 -0.07300
C 	C 	0.18083 0.59989 0.60994 0.03100
C 	C 	0.30650 0.99470 0.71920 0.26100
C 	C 	0.97781 0.39550 0.83891 -0.09400
C 	C 	0.35752 0.36510 0.51062 0.03500
C 	C 	0.49554 0.56987 0.56987 0.62900
C 	C 	0.45191 0.54549 -0.00000 0.53200
C 	C 	0.60994 0.59989 0.18083 0.03100
C 	C 	0.13890 0.55659 0.16109 0.07200
C 	C 	0.56110 0.13040 0.98890 -1.13500
C 	C 	0.56987 0.56987 0.49554 0.62900
C 	C 	0.58730 0.27550 0.28080 0.06500
C 	C 	0.00650 0.19490 0.64880 0.14800
C 	C 	0.86110 0.02219 0.41769 0.24400
C 	C 	0.00000 0.12080 0.59980 -0.26100
C 	C 	0.45390 0.81160 0.80510 -0.07100
C 	C 	0.56368 0.56368 0.14596 -0.19400
C 	C 	0.18840 0.99350 0.64230 -0.25800
C 	C 	0.02227 0.88667 0.37100 -0.12000
C 	C 	0.68065 0.65830 0.50555 -0.14000
C 	C 	0.19640 0.19640 0.53560 0.22600
C 	C 	0.61168 0.43338 0.63390 -0.13400
C 	C 	0.40740 0.00000 0.64900 0.10700
C 	C 	0.28610 0.00000 0.64750 0.13600
C 	C 	0.65127 0.62900 0.51567 0.08300
C 	C 	0.59980 -0.00000 0.12080 -0.26100
C 	C 	0.65210 0.33040 0.63390 0.08600
C 	C 	0.82490 0.97765 0.31935 -0.24600
C 	C 	0.60450 0.58231 0.44341 0.07200
C 	C 	0.60480 0.42030 0.43250 -0.07700
C 	C 	0.82170 0.02222 0.38832 -0.38000
C 	C 	0.52100 0.40020 0.40020 -0.21800
C 	C 	0.98180 0.67830 0.34790 -0.75400
C 	C 	0.86960 0.43070 0.85850 0.02900
C 	C 	0.17230 0.98780 0.56750 -1.48000
C 	C 	0.36140 0.71390 0.71390 0.18500
C 	C 	0.47900 0.87920 0.87920 -0.18900
C 	C 	0.41270 0.68820 0.69350 0.06800
C 	C 	0.79948 0.36610 0.97778 0.16900
C 	C 	-0.00000 0.58228 0.43632 -0.24900
C 	C 	0.39550 0.97781 0.83891 -0.09400
C 	C 	0.00000 0.43013 0.92567 0.56100
C 	C 	0.50555 0.68065 0.65830 -0.14000
C 	C 	0.72450 0.00530 0.31180 -0.11600
C 	C 	0.81917 0.41906 0.42911 0.03000
C 	C 	0.82770 0.81550 0.39520 -0.07300
C 	C 	0.02235 0.34170 0.84725 0.02200
C 	C 	0.71390 0.36140 0.71390 0.18500
C 	C 	0.48370 0.40845 0.40845 0.62000
C 	C 	-0.00000 0.61510 0.20450 0.07900
C 	C 	0.77123 0.38553 0.39570 -0.08100
C 	C 	0.98983 0.60430 0.37553 -0.48000
C 	C 	0.20632 0.54602 0.55650 -0.08100
C 	C 	0.57220 0.01110 0.14150 1.22200
C 	C 	0.01820 0.36610 0.69650 0.94500
C 	C 	0.07433 0.07433 0.50446 0.61000
C 	C 	0.77123 0.39570 0.38553 -0.08100
C 	C 	0.66030 0.01048 0.45398 0.51000
C 	C 	0.40845 0.40845 0.48370 0.62000
C 	C 	0.13890 0.16109 0.55659 0.07200
C 	C 	0.02219 0.41769 0.86110 0.24400
C 	C 	-0.00000 0.39793 0.88246 -0.28500
C 	C 	0.65127 0.51567 0.62900 0.08300
C 	C 	0.20450 0.61510 -0.00000 0.07900
C 	C 	0.56662 0.20052 0.17830 -0.13700
C 	C 	0.58228 0.00000 0.43632 -0.24900
C 	C 	0.98995 0.39006 0.57089 -0.37100
C 	C 	0.24160 0.59260 0.59260 0.15600
C 	C 	-0.00000 0.64750 0.28610 0.13600
C 	C 	0.12080 0.59980 -0.00000 -0.26100
C 	C 	0.60994 0.18083 0.59989 0.03100
C 	C 	0.11754 0.51547 0.11754 -0.25900
C 	C 	0.65210 0.63390 0.33040 0.08600
C 	C 	0.39570 0.77123 0.38553 -0.08100
C 	C 	0.80510 0.45390 0.81160 -0.07100
C 	C 	0.00000 0.92567 0.43013 0.56100
C 	C 	-0.00000 0.45191 0.54549 0.53200
C 	C 	0.48453 0.60207 0.60207 -0.26000
C 	C 	0.97773 0.34873 0.86440 0.29200
C 	C 	0.64982 0.44350 0.98952 -0.64500
C 	C 	0.58730 0.28080 0.27550 0.06500
C 	C 	0.92475 0.51630 0.92475 0.58400
C 	C 	0.51630 0.92475 0.92475 0.58400
C 	C 	0.64880 0.00650 0.19490 0.14800
C 	C 	0.42030 0.43250 0.60480 -0.07700
C 	C 	0.31935 0.97765 0.82490 -0.24600
C 	C 	0.39570 0.38553 0.77123 -0.08100
C 	C 	-0.00000 0.59980 0.12080 -0.26100
C 	C 	0.98780 0.56750 0.17230 -1.48100
C 	C 	0.55659 0.16109 0.13890 0.07200
C 	C 	-0.00000 0.59155 0.07525 0.60500
C 	C 	0.49445 0.17510 0.15275 -0.14000
C 	C 	0.64900 0.00000 0.40740 0.10700
C 	C 	0.63490 0.99242 0.14552 -0.20500
C 	C 	0.58094 0.01005 0.40011 0.46300
C 	C 	0.82770 0.39520 0.81550 -0.07300
C 	C 	0.33920 -0.00000 0.80360 0.15100
C 	C 	0.69350 0.68820 0.41270 0.06800
C 	C 	0.84152 0.37290 0.38362 0.03200
C 	C 	0.45790 0.98928 0.61638 -0.58900
C 	C 	0.35250 0.63860 0.35250 0.18400
C 	C 	0.38832 0.02222 0.82170 -0.38000
C 	C 	0.32170 0.30350 0.66960 0.08500
C 	C 	0.01072 0.46862 0.62710 0.68700
C 	C 	0.66960 0.32170 0.30350 0.08500
C 	C 	0.13040 0.98890 0.56110 -1.13500
C 	C 	0.62900 0.65127 0.51567 0.08300
C 	C 	0.14552 0.63490 0.99242 -0.20500
C 	C 	0.69650 0.36610 0.01820 0.94500
C 	C 	0.33040 0.65210 0.63390 0.08600
C 	C 	-0.00000 0.43632 0.58228 -0.24900
C 	C 	0.34170 0.02235 0.84725 0.02200
C 	C 	0.35120 0.35770 0.54610 -0.07600
C 	C 	0.34873 0.86440 0.97773 0.29200
C 	C 	0.97778 0.36610 0.79948 0.16900
C 	C 	0.66080 0.46440 0.66080 0.23000
C 	C 	0.64248 0.15310 0.00758 0.29400
C 	C 	0.64982 0.98952 0.44350 -0.64500
C 	C 	0.35100 0.75840 0.35100 0.15500
C 	C 	0.07433 0.50446 0.07433 0.61000
C 	C 	0.31935 0.82490 0.97765 -0.24600
C 	C 	0.58231 0.60450 0.44341 0.07200
C 	C 	0.17830 0.20052 0.56662 -0.13700
C 	C 	0.79368 0.33970 0.35018 -0.07700
C 	C 	0.54549 0.00000 0.45191 0.53200
C 	C 	0.00530 0.72450 0.31180 -0.11600
C 	C 	0.97781 0.83891 0.39550 -0.09400
C 	C 	0.22877 0.61430 0.62447 -0.08500
C 	C 	0.83891 0.39550 0.97781 -0.09400
C 	C 	0.82490 0.31935 0.97765 -0.24600
C 	C 	0.71920 0.30650 0.99470 0.26100
C 	C 	0.18450 0.57970 0.01220 1.36100
C 	C 	0.75840 0.35100 0.35100 0.15500
C 	C 	0.98983 0.37553 0.60430 -0.48000
C 	C 	0.98780 0.17230 0.56750 -1.48100
C 	C 	0.81550 0.39520 0.82770 -0.07300
C 	C 	0.38490 0.58940 0.38490 0.14600
C 	C 	0.60207 0.60207 0.48453 -0.26000
C 	C 	0.61447 0.38570 0.01017 0.33900
C 	C 	0.43013 0.00000 0.92567 0.56100
C 	C 	0.34790 0.67830 0.98180 -0.75400
C 	C 	0.15848 0.54210 0.53138 0.03400
C 	C 	0.40020 0.52100 0.40020 -0.21800
C 	C 	0.58228 0.43632 -0.00000 -0.24900
C 	C 	0.56987 0.49554 0.56987 0.62900
C 	C 	0.43338 0.63390 0.61168 -0.13400
C 	C 	0.46862 0.01072 0.62710 0.68700
C 	C 	0.16109 0.55659 0.13890 0.07200
C 	C 	0.64900 0.40740 -0.00000 0.10700
C 	C 	0.66960 0.30350 0.32170 0.08500
C 	C 	0.53138 0.15848 0.54210 0.03400
C 	C 	0.56110 0.98890 0.13040 -1.13500
C 	C 	0.19640 0.53560 0.19640 0.22600
C 	C 	0.88667 0.37100 0.02227 -0.12000
C 	C 	0.28080 0.27550 0.58730 0.06500
C 	C 	0.59260 0.24160 0.59260 0.15700
C 	C 	0.41772 0.41772 0.85404 -0.17600
C 	C 	0.20052 0.56662 0.17830 -0.13700
C 	C 	0.59155 -0.00000 0.07525 0.60500
C 	C 	0.11333 0.13560 0.48433 0.07900
C 	C 	0.45451 0.45451 0.90642 0.51300
C 	C 	0.33970 0.35018 0.79368 -0.07700
C 	C 	0.38553 0.77123 0.39570 -0.08100
C 	C 	0.00000 0.80360 0.33920 0.15100
C 	C 	0.92475 0.92475 0.51630 0.58400
C 	C 	0.85850 0.86960 0.43070 0.02900
C 	C 	0.40020 0.40020 0.52100 -0.21800
C 	C 	0.43890 0.42780 0.56930 0.03400
C 	C 	0.07525 0.59155 -0.00000 0.60500
C 	C 	0.61638 0.98928 0.45790 -0.58900
C 	C 	0.11754 0.11754 0.51547 -0.25900
C 	C 	0.62900 0.51567 0.65127 0.08300
C 	C 	0.62447 0.61430 0.22877 -0.08500
C 	C 	0.64230 0.99350 0.18840 -0.25800
C 	C 	0.35100 0.35100 0.75840 0.15500
C 	C 	0.79368 0.35018 0.33970 -0.07700
C 	C 	0.27550 0.58730 0.28080 0.06500
C 	C 	0.14552 0.99242 0.63490 -0.20500
C 	C 	0.43890 0.56930 0.42780 0.03400
C 	C 	0.02222 0.82170 0.38832 -0.38000
C 	C 	0.56368 0.14596 0.56368 -0.19400
C 	C 	0.39520 0.81550 0.82770 -0.07300
C 	C 	0.12080 -0.00000 0.59980 -0.26100
C 	C 	0.58094 0.40011 0.01005 0.46300
C 	C 	0.69350 0.41270 0.68820 0.06800
C 	C 	0.13040 0.56110 0.98890 -1.13500
C 	C 	0.36610 0.69650 0.01820 0.94500
C 	C 	0.33040 0.63390 0.65210 0.08600
C 	C 	0.43632 -0.00000 0.58228 -0.24900
C 	C 	0.58231 0.44341 0.60450 0.07200
C 	C 	0.48938 0.85448 0.84690 0.03000
C 	C 	0.01017 0.61447 0.38570 0.33900
C 	C 	0.33920 0.80360 -0.00000 0.15100
C 	C 	0.61447 0.01017 0.38570 0.33900
C 	C 	0.27550 0.28080 0.58730 0.06500
C 	C 	0.37553 0.60430 0.98983 -0.48000
C 	C 	0.16109 0.13890 0.55659 0.07200
C 	C 	0.61510 0.00000 0.20450 0.07900
C 	C 	0.18083 0.60994 0.59989 0.03100
C 	C 	0.43632 0.58228 -0.00000 -0.24900
C 	C 	0.63490 0.14552 0.99242 -0.20500
C 	C 	0.37100 0.02227 0.88667 -0.12000
C 	C 	0.99470 0.71920 0.30650 0.26100
C 	C 	0.44341 0.58231 0.60450 0.07200
C 	C 	0.56662 0.17830 0.20052 -0.13700
C 	C 	-0.00000 0.20450 0.61510 0.07900
C 	C 	0.85448 0.84690 0.48938 0.03000
C 	C 	0.15275 0.49445 0.17510 -0.14000
C 	C 	0.36510 0.35752 0.51062 0.03500
C 	C 	0.63390 0.61168 0.43338 -0.13500
C 	C 	0.61430 0.22877 0.62447 -0.08500
C 	C 	0.41906 0.81917 0.42911 0.03000
C 	C 	0.00000 0.64900 0.40740 0.10700
C 	C 	0.62710 0.01072 0.46862 0.68700
C 	C 	0.80360 0.00000 0.33920 0.15100
C 	C 	0.84690 0.85448 0.48938 0.03000
C 	C 	0.48433 0.13560 0.11333 0.07900
C 	C 	0.81160 0.45390 0.80510 -0.07100
C 	C 	0.49445 0.15275 0.17510 -0.14000
C 	C 	0.98952 0.44350 0.64982 -0.64600
C 	C 	0.54210 0.53138 0.15848 0.03400
C 	C 	0.97765 0.31935 0.82490 -0.24600
C 	C 	0.15310 0.00758 0.64248 0.29400
C 	C 	0.85448 0.48938 0.84690 0.03000
C 	C 	0.11333 0.48433 0.13560 0.07900
C 	C 	0.90642 0.45451 0.45451 0.51300
C 	C 	0.34790 0.98180 0.67830 -0.75400
C 	C 	0.35018 0.79368 0.33970 -0.07700
C 	C 	0.33970 0.79368 0.35018 -0.07700
C 	C 	0.01005 0.58094 0.40011 0.46300
C 	C 	0.40011 0.58094 0.01005 0.46300
C 	C 	0.56750 0.17230 0.98780 -1.48000
C 	C 	0.01072 0.62710 0.46862 0.68700
C 	C 	0.00000 0.33920 0.80360 0.15100
C 	C 	0.44350 0.64982 0.98952 -0.64500
C 	C 	0.79948 0.97778 0.36610 0.16900
C 	C 	0.86440 0.34873 0.97773 0.29200
C 	C 	0.48433 0.11333 0.13560 0.07900
C 	C 	0.86440 0.97773 0.34873 0.29200
C 	C 	0.98928 0.45790 0.61638 -0.59000
C 	C 	0.67830 0.98180 0.34790 -0.75400
C 	C 	0.00530 0.31180 0.72450 -0.11600
C 	C 	0.22877 0.62447 0.61430 -0.08500
C 	C 	0.60430 0.37553 0.98983 -0.48000
C 	C 	0.40845 0.48370 0.40845 0.62000
C 	C 	0.63860 0.35250 0.35250 0.18400
C 	C 	0.35018 0.33970 0.79368 -0.07700
C 	C 	0.31180 0.00530 0.72450 -0.11600
C 	C 	0.51062 0.36510 0.35752 0.03500
C 	C 	0.35770 0.54610 0.35120 -0.07600
C 	C 	0.68065 0.50555 0.65830 -0.14000
C 	C 	0.39006 0.57089 0.98995 -0.37100
C 	C 	0.17830 0.56662 0.20052 -0.13700
C 	C 	0.97778 0.79948 0.36610 0.16900
C 	C 	0.38570 0.61447 0.01017 0.33900
C 	C 	0.86110 0.41769 0.02219 0.24400
C 	C 	0.36610 0.97778 0.79948 0.16900
C 	C 	0.99242 0.63490 0.14552 -0.20600
C 	C 	0.97773 0.86440 0.34873 0.29200
C 	C 	0.41772 0.85404 0.41772 -0.17600
C 	C 	0.40740 0.64900 -0.00000 0.10700
C 	C 	0.61510 0.20450 -0.00000 0.07900
C 	C 	0.09358 0.54809 0.54809 0.51600
C 	C 	0.37553 0.98983 0.60430 -0.48000
C 	C 	0.54809 0.54809 0.09358 0.51600
C 	C 	0.42911 0.41906 0.81917 0.03000
N 	N 	0.64220 0.31870 0.98590 0.14800
N 	N 	0.71940 0.34440 0.99140 2.17900
N 	N 	0.60690 0.28880 0.60690 -0.23900
N 	N 	0.67650 0.34370 0.35780 -0.09600
N 	N 	0.33280 0.01410 0.65630 -0.32100
N 	N 	0.32100 0.31160 0.59420 -0.08000
N 	N 	0.67650 0.35780 0.34370 -0.09600
N 	N 	0.39310 -0.00000 0.68190 -0.26800
N 	N 	0.62500 0.27200 0.28060 -0.07800
N 	N 	0.37500 0.64700 0.65560 -0.07700
N 	N 	0.28880 0.60690 0.60690 -0.23900
N 	N 	0.64220 0.98590 0.31870 0.14800
N 	N 	0.45444 0.68982 0.68982 -0.23300
N 	N 	0.31018 0.76462 -0.00000 -0.25200
N 	N 	0.32350 0.68130 0.66720 -0.09700
N 	N 	0.99140 0.71940 0.34440 2.18000
N 	N 	0.72800 0.00860 0.35300 -2.33200
N 	N 	0.28260 0.00940 0.68840 -0.19700
N 	N 	0.23538 0.54556 0.23538 -0.23300
N 	N 	0.00860 0.72800 0.35300 -2.33200
N 	N 	0.68840 0.28260 0.00940 -0.19700
N 	N 	0.24750 0.00000 0.61870 -0.20700
N 	N 	0.31160 0.32100 0.59420 -0.08000
N 	N 	0.34370 0.67650 0.35780 -0.09600
N 	N 	0.75250 0.37120 0.75250 -0.21900
N 	N 	0.31870 0.98590 0.64220 0.14900
N 	N 	0.31018 0.00000 0.76462 -0.25200
N 	N 	0.38130 0.38130 0.62880 -0.22100
N 	N 	0.31810 0.31810 0.71120 -0.23700
N 	N 	0.62880 0.38130 0.38130 -0.22100
N 	N 	0.00000 0.68190 0.39310 -0.26800
N 	N 	0.72680 0.40580 0.71740 -0.07900
N 	N 	0.31870 0.64220 0.98590 0.14900
N 	N 	0.68130 0.32350 0.66720 -0.09700
N 	N 	0.24750 0.61870 -0.00000 -0.20700
N 	N 	0.59420 0.31160 0.32100 -0.08000
N 	N 	0.99060 0.67900 0.27320 0.05600
N 	N 	0.32350 0.66720 0.68130 -0.09700
N 	N 	0.61870 -0.00000 0.24750 -0.20700
N 	N 	0.65560 0.37500 0.64700 -0.07700
N 	N 	0.66720 0.32350 0.68130 -0.09700
N 	N 	0.65560 0.64700 0.37500 -0.07700
N 	N 	0.68982 0.68982 0.45444 -0.23300
N 	N 	0.28260 0.68840 0.00940 -0.19700
N 	N 	0.68190 0.39310 -0.00000 -0.26800
N 	N 	0.99140 0.34440 0.71940 2.18000
N 	N 	0.34440 0.99140 0.71940 2.18000
N 	N 	0.64700 0.37500 0.65560 -0.07700
N 	N 	0.67900 0.99060 0.27320 0.05500
N 	N 	0.31810 0.71120 0.31810 -0.23700
N 	N 	0.00000 0.39310 0.68190 -0.26800
N 	N 	0.01410 0.65630 0.33280 -0.32100
N 	N 	0.31160 0.59420 0.32100 -0.08000
N 	N 	0.62500 0.28060 0.27200 -0.07800
N 	N 	0.66720 0.68130 0.32350 -0.09700
N 	N 	0.33280 0.65630 0.01410 -0.32100
N 	N 	0.71120 0.31810 0.31810 -0.23700
N 	N 	0.76462 0.00000 0.31018 -0.25200
N 	N 	0.98590 0.64220 0.31870 0.14900
N 	N 	-0.00000 0.61870 0.24750 -0.20700
N 	N 	0.34370 0.35780 0.67650 -0.09600
N 	N 	0.00860 0.35300 0.72800 -2.33200
N 	N 	0.71940 0.99140 0.34440 2.17900
N 	N 	0.35780 0.67650 0.34370 -0.09600
N 	N 	0.75250 0.75250 0.37120 -0.21900
N 	N 	0.71740 0.40580 0.72680 -0.07900
N 	N 	0.00000 0.76462 0.31018 -0.25200
N 	N 	0.28060 0.62500 0.27200 -0.07800
N 	N 	0.38130 0.62880 0.38130 -0.22100
N 	N 	0.39310 0.68190 -0.00000 -0.26800
N 	N 	0.99060 0.27320 0.67900 0.05600
N 	N 	0.68982 0.45444 0.68982 -0.23300
N 	N 	0.23538 0.23538 0.54556 -0.23300
N 	N 	0.27200 0.62500 0.28060 -0.07800
N 	N 	0.28060 0.27200 0.62500 -0.07800
N 	N 	0.54556 0.23538 0.23538 -0.23300
N 	N 	0.61870 0.24750 -0.00000 -0.20700
N 	N 	0.00940 0.28260 0.68840 -0.19800
N 	N 	0.68130 0.66720 0.32350 -0.09700
N 	N 	0.65630 0.33280 0.01410 -0.32100
N 	N 	0.00940 0.68840 0.28260 -0.19800
N 	N 	0.35300 0.00860 0.72800 -2.33200
N 	N 	-0.00000 0.24750 0.61870 -0.20700
N 	N 	0.76462 0.31018 -0.00000 -0.25200
N 	N 	0.32100 0.59420 0.31160 -0.08000
N 	N 	0.27200 0.28060 0.62500 -0.07800
N 	N 	0.27320 0.99060 0.67900 0.05500
N 	N 	0.27320 0.67900 0.99060 0.05500
N 	N 	0.37120 0.75250 0.75250 -0.21900
N 	N 	0.98590 0.31870 0.64220 0.14900
N 	N 	0.35780 0.34370 0.67650 -0.09600
N 	N 	0.71740 0.72680 0.40580 -0.07900
N 	N 	0.37500 0.65560 0.64700 -0.07700
N 	N 	0.68840 0.00940 0.28260 -0.19700
N 	N 	0.00000 0.31018 0.76462 -0.25200
N 	N 	0.34440 0.71940 0.99140 2.18000
N 	N 	0.60690 0.60690 0.28880 -0.23900
N 	N 	0.68190 -0.00000 0.39310 -0.26800
N 	N 	0.67900 0.27320 0.99060 0.05500
N 	N 	0.40580 0.72680 0.71740 -0.07900
N 	N 	0.72680 0.71740 0.40580 -0.07900
N 	N 	0.01410 0.33280 0.65630 -0.32100
N 	N 	0.40580 0.71740 0.72680 -0.07900
N 	N 	0.35300 0.72800 0.00860 -2.33200
N 	N 	0.72800 0.35300 0.00860 -2.33200
N 	N 	0.59420 0.32100 0.31160 -0.08000
N 	N 	0.65630 0.01410 0.33280 -0.32100
N 	N 	0.64700 0.65560 0.37500 -0.07700
O 	O 	0.94530 0.47390 0.01740 -0.40600
O 	O 	0.52860 0.05470 0.07210 -0.39400
O 	O 	0.46044 0.05212 0.05212 -0.54400
O 	O 	0.91600 0.48960 0.48960 -0.44900
O 	O 	0.57360 0.57360 0.08400 -0.48500
O 	O 	0.94470 0.94470 0.49900 -0.54500
O 	O 	0.61880 0.05920 -0.00000 -0.64600
O 	O 	0.45650 0.92790 0.98260 -0.30100
O 	O 	0.94788 0.40832 -0.00000 -0.50700
O 	O 	0.44040 0.38120 0.38120 -0.65300
O 	O 	0.59168 0.59168 0.53956 -0.55700
O 	O 	0.00000 0.40832 0.94788 -0.50700
O 	O 	0.55337 0.48943 -0.00000 -0.58700
O 	O 	0.42640 -0.00000 0.51040 -0.49900
O 	O 	0.48943 0.55337 -0.00000 -0.58700
O 	O 	0.42640 0.51040 -0.00000 -0.49900
O 	O 	0.53956 0.59168 0.59168 -0.55700
O 	O 	0.98260 0.45650 0.92790 -0.30100
O 	O 	0.93606 0.44663 0.44663 -0.53000
O 	O 	0.01740 0.47390 0.94530 -0.40600
O 	O 	0.94530 0.01740 0.47390 -0.40600
O 	O 	0.48960 0.91600 0.48960 -0.44900
O 	O 	0.01740 0.94530 0.47390 -0.40600
O 	O 	0.94080 0.55960 0.94080 -0.56200
O 	O 	0.44570 0.44570 0.50100 -0.62200
O 	O 	0.94080 0.94080 0.55960 -0.56200
O 	O 	0.05530 0.55430 -0.00000 -0.61200
O 	O 	0.98260 0.92790 0.45650 -0.30100
O 	O 	0.52860 0.07210 0.05470 -0.39400
O 	O 	0.47390 0.01740 0.94530 -0.40600
O 	O 	0.55960 0.94080 0.94080 -0.56200
O 	O 	0.49900 0.94470 0.94470 -0.54500
O 	O 	0.00000 0.94788 0.40832 -0.50700
O 	O 	0.38120 0.38120 0.44040 -0.65300
O 	O 	0.00000 0.55430 0.05530 -0.61200
O 	O 	0.05920 -0.00000 0.61880 -0.64600
O 	O 	0.50100 0.44570 0.44570 -0.62200
O 	O 	0.44663 0.44663 0.93606 -0.53000
O 	O 	0.52610 0.54350 0.47140 -0.40900
O 	O 	0.40832 0.00000 0.94788 -0.50700
O 	O 	0.51040 -0.00000 0.42640 -0.49900
O 	O 	0.06394 0.51057 0.51057 -0.57100
O 	O 	-0.00000 0.05920 0.61880 -0.64600
O 	O 	0.59168 0.53956 0.59168 -0.55700
O 	O 	0.55430 -0.00000 0.05530 -0.61200
O 	O 	0.00000 0.51040 0.42640 -0.49900
O 	O 	0.47390 0.94530 0.01740 -0.40600
O 	O 	0.05470 0.52860 0.07210 -0.39400
O 	O 	0.51057 0.06394 0.51057 -0.57100
O 	O 	0.47140 0.54350 0.52610 -0.40900
O 	O 	0.38120 0.44040 0.38120 -0.65300
O 	O 	0.51040 0.42640 -0.00000 -0.49900
O 	O 	0.00000 0.42640 0.51040 -0.49900
O 	O 	0.55337 -0.00000 0.48943 -0.58700
O 	O 	0.05920 0.61880 -0.00000 -0.64600
O 	O 	0.00000 0.05530 0.55430 -0.61200
O 	O 	0.55430 0.05530 -0.00000 -0.61200
O 	O 	0.54350 0.52610 0.47140 -0.40900
O 	O 	0.05212 0.46044 0.05212 -0.54400
O 	O 	0.44570 0.50100 0.44570 -0.62200
O 	O 	0.51057 0.51057 0.06394 -0.57100
O 	O 	0.44663 0.93606 0.44663 -0.53000
O 	O 	0.05212 0.05212 0.46044 -0.54400
O 	O 	0.07210 0.52860 0.05470 -0.39400
O 	O 	0.54350 0.47140 0.52610 -0.40900
O 	O 	0.45650 0.98260 0.92790 -0.30100
O 	O 	0.40832 0.94788 -0.00000 -0.50700
O 	O 	-0.00000 0.61880 0.05920 -0.64600
O 	O 	0.52610 0.47140 0.54350 -0.40900
O 	O 	0.05470 0.07210 0.52860 -0.39400
O 	O 	0.94470 0.49900 0.94470 -0.54500
O 	O 	0.92790 0.98260 0.45650 -0.30100
O 	O 	0.08400 0.57360 0.57360 -0.48500
O 	O 	0.07210 0.05470 0.52860 -0.39400
O 	O 	0.47140 0.52610 0.54350 -0.40900
O 	O 	0.94788 0.00000 0.40832 -0.50700
O 	O 	0.48943 -0.00000 0.55337 -0.58700
O 	O 	0.92790 0.45650 0.98260 -0.30100
O 	O 	0.61880 -0.00000 0.05920 -0.64600
O 	O 	0.48960 0.48960 0.91600 -0.44900
O 	O 	0.05530 0.00000 0.55430 -0.61200
O 	O 	0.57360 0.08400 0.57360 -0.48500
O 	O 	0.00000 0.48943 0.55337 -0.58700
O 	O 	0.00000 0.55337 0.48943 -0.58700
