data_crystal

_cell_length_a 17.53550
_cell_length_b 17.53550
_cell_length_c 17.53550
_cell_angle_alpha 90.00000
_cell_angle_beta  90.00000
_cell_angle_gamma 90.00000

_symmetry_space_group_name_	'P 1'
_symmetry_space_group_name_H-M	'P 1'

loop_
_symmetry_equiv_pos_as_xyz
  x,y,z

loop_
_atom_site_label
_atom_site_type_symbol
_atom_site_fract_x
_atom_site_fract_y
_atom_site_fract_z
_atom_site_charge
Cu	Cu	0.50000 0.00000 0.85617 0.91200
Cu	Cu	0.00000 0.50000 0.85617 0.91200
Cu	Cu	0.50000 0.85617 -0.00000 0.91200
Cu	Cu	0.50000 0.00000 0.14383 0.88600
Cu	Cu	0.85617 0.00000 0.50000 0.91200
Cu	Cu	0.85617 0.50000 -0.00000 0.91200
Cu	Cu	0.50000 0.14383 -0.00000 0.88700
Cu	Cu	0.00000 0.14383 0.50000 0.88700
Cu	Cu	0.14383 0.00000 0.50000 0.88700
Cu	Cu	0.00000 0.85617 0.50000 0.91300
Cu	Cu	0.14383 0.50000 -0.00000 0.88700
Cu	Cu	0.00000 0.50000 0.14383 0.88700
H 	H 	0.08780 0.68610 0.74860 1.55600
H 	H 	0.40230 0.26340 0.09850 0.03200
H 	H 	0.31390 0.74860 0.08780 1.55400
H 	H 	0.31390 0.74860 0.91220 1.56800
H 	H 	0.09850 0.59770 0.26340 0.03300
H 	H 	0.85830 0.24330 0.75670 3.84400
H 	H 	0.74860 0.08780 0.68610 1.55600
H 	H 	0.08780 0.74860 0.68610 1.55600
H 	H 	0.59770 0.90150 0.73660 0.06100
H 	H 	0.90150 0.26340 0.40230 0.06300
H 	H 	0.26340 0.90150 0.59770 0.06400
H 	H 	0.59770 0.26340 0.09850 0.03300
H 	H 	0.25140 0.68610 0.08780 1.54800
H 	H 	0.74860 0.91220 0.31390 1.56800
H 	H 	0.90150 0.73660 0.40230 0.06000
H 	H 	0.31390 0.08780 0.74860 1.55400
H 	H 	0.90150 0.73660 0.59770 0.06100
H 	H 	0.26340 0.40230 0.90150 0.06300
H 	H 	0.85830 0.75670 0.75670 3.86300
H 	H 	0.75670 0.14170 0.24330 3.87100
H 	H 	0.68610 0.91220 0.74860 1.57000
H 	H 	0.09850 0.40230 0.26340 0.03200
H 	H 	0.90150 0.26340 0.59770 0.06400
H 	H 	0.26340 0.59770 0.90150 0.06400
H 	H 	0.14170 0.24330 0.24330 3.85200
H 	H 	0.40230 0.90150 0.73660 0.06000
H 	H 	0.31390 0.25140 0.08780 1.54600
H 	H 	0.24330 0.24330 0.14170 3.85200
H 	H 	0.91220 0.25140 0.31390 1.55900
H 	H 	0.25140 0.68610 0.91220 1.56200
H 	H 	0.90150 0.40230 0.26340 0.06300
H 	H 	0.91220 0.31390 0.25140 1.55900
H 	H 	0.91220 0.68610 0.25140 1.56200
H 	H 	0.75670 0.24330 0.85830 3.84400
H 	H 	0.68610 0.74860 0.91220 1.57000
H 	H 	0.73660 0.09850 0.59770 0.03000
H 	H 	0.08780 0.25140 0.31390 1.54600
H 	H 	0.73660 0.09850 0.40230 0.02900
H 	H 	0.74860 0.08780 0.31390 1.55400
H 	H 	0.26340 0.09850 0.40230 0.03200
H 	H 	0.09850 0.73660 0.40230 0.02900
H 	H 	0.68610 0.08780 0.74860 1.55600
H 	H 	0.73660 0.40230 0.09850 0.02900
H 	H 	0.24330 0.14170 0.24330 3.85200
H 	H 	0.91220 0.74860 0.31390 1.56800
H 	H 	0.25140 0.31390 0.91220 1.55900
H 	H 	0.75670 0.75670 0.14170 3.89000
H 	H 	0.90150 0.59770 0.26340 0.06400
H 	H 	0.31390 0.25140 0.91220 1.55900
H 	H 	0.25140 0.31390 0.08780 1.54600
H 	H 	0.68610 0.08780 0.25140 1.54800
H 	H 	0.40230 0.26340 0.90150 0.06300
H 	H 	0.08780 0.25140 0.68610 1.54800
H 	H 	0.25140 0.91220 0.68610 1.56200
H 	H 	0.26340 0.90150 0.40230 0.06300
H 	H 	0.26340 0.40230 0.09850 0.03200
H 	H 	0.25140 0.08780 0.31390 1.54600
H 	H 	0.73660 0.40230 0.90150 0.06000
H 	H 	0.08780 0.31390 0.74860 1.55400
H 	H 	0.08780 0.68610 0.25140 1.54800
H 	H 	0.09850 0.73660 0.59770 0.03000
H 	H 	0.75670 0.24330 0.14170 3.87100
H 	H 	0.31390 0.91220 0.74860 1.56800
H 	H 	0.90150 0.40230 0.73660 0.06000
H 	H 	0.09850 0.59770 0.73660 0.03000
H 	H 	0.75670 0.14170 0.75670 3.89000
H 	H 	0.68610 0.25140 0.08780 1.54800
H 	H 	0.73660 0.59770 0.09850 0.03000
H 	H 	0.59770 0.90150 0.26340 0.06400
H 	H 	0.31390 0.08780 0.25140 1.54600
H 	H 	0.24330 0.14170 0.75670 3.87100
H 	H 	0.85830 0.24330 0.24330 3.82600
H 	H 	0.74860 0.68610 0.91220 1.57000
H 	H 	0.08780 0.31390 0.25140 1.54600
H 	H 	0.26340 0.59770 0.09850 0.03300
H 	H 	0.09850 0.26340 0.40230 0.03200
H 	H 	0.25140 0.91220 0.31390 1.55900
H 	H 	0.40230 0.09850 0.73660 0.02900
H 	H 	0.73660 0.59770 0.90150 0.06100
H 	H 	0.73660 0.90150 0.40230 0.06000
H 	H 	0.24330 0.85830 0.75670 3.84400
H 	H 	0.40230 0.09850 0.26340 0.03200
H 	H 	0.09850 0.26340 0.59770 0.03300
H 	H 	0.14170 0.75670 0.24330 3.87100
H 	H 	0.59770 0.09850 0.26340 0.03300
H 	H 	0.74860 0.68610 0.08780 1.55600
H 	H 	0.59770 0.09850 0.73660 0.03000
H 	H 	0.09850 0.40230 0.73660 0.02900
H 	H 	0.68610 0.91220 0.25140 1.56200
H 	H 	0.14170 0.24330 0.75670 3.87100
H 	H 	0.25140 0.08780 0.68610 1.54800
H 	H 	0.40230 0.90150 0.26340 0.06300
H 	H 	0.31390 0.91220 0.25140 1.55900
H 	H 	0.90150 0.59770 0.73660 0.06100
H 	H 	0.68610 0.74860 0.08780 1.55600
H 	H 	0.74860 0.91220 0.68610 1.57000
H 	H 	0.24330 0.75670 0.85830 3.84400
H 	H 	0.91220 0.68610 0.74860 1.57000
H 	H 	0.24330 0.75670 0.14170 3.87100
H 	H 	0.91220 0.25140 0.68610 1.56200
H 	H 	0.73660 0.90150 0.59770 0.06100
H 	H 	0.85830 0.75670 0.24330 3.84400
H 	H 	0.59770 0.73660 0.09850 0.03000
H 	H 	0.40230 0.73660 0.90150 0.06000
H 	H 	0.75670 0.85830 0.24330 3.84400
H 	H 	0.74860 0.31390 0.08780 1.55400
H 	H 	0.24330 0.85830 0.24330 3.82600
H 	H 	0.59770 0.73660 0.90150 0.06100
H 	H 	0.75670 0.75670 0.85830 3.86300
H 	H 	0.08780 0.74860 0.31390 1.55400
H 	H 	0.24330 0.24330 0.85830 3.82600
H 	H 	0.26340 0.09850 0.59770 0.03300
H 	H 	0.91220 0.74860 0.68610 1.57000
H 	H 	0.75670 0.85830 0.75670 3.86300
H 	H 	0.59770 0.26340 0.90150 0.06400
H 	H 	0.91220 0.31390 0.74860 1.56800
H 	H 	0.74860 0.31390 0.91220 1.56800
H 	H 	0.14170 0.75670 0.75670 3.89000
H 	H 	0.68610 0.25140 0.91220 1.56200
H 	H 	0.40230 0.73660 0.09850 0.02900
C 	C 	0.16800 0.67300 0.16800 2.50400
C 	C 	0.22940 0.13260 0.29150 -4.62500
C 	C 	0.18920 0.22400 0.77600 -0.49900
C 	C 	0.32700 0.83200 0.16800 2.49900
C 	C 	0.60230 0.13490 0.13490 -0.08400
C 	C 	0.77060 0.29150 0.13260 -4.64000
C 	C 	0.86510 0.39770 0.86510 -0.11200
C 	C 	0.67300 0.83200 0.83200 2.49900
C 	C 	0.77600 0.18920 0.77600 -0.50700
C 	C 	0.13490 0.86510 0.60230 -0.09800
C 	C 	0.81080 0.77600 0.77600 -0.48400
C 	C 	0.77600 0.81080 0.22400 -0.47700
C 	C 	0.83200 0.32700 0.83200 2.49700
C 	C 	0.22330 0.74110 0.16160 0.12600
C 	C 	0.83200 0.16800 0.32700 2.49900
C 	C 	0.77060 0.86740 0.70850 -4.62500
C 	C 	0.86740 0.77060 0.29150 -4.62300
C 	C 	0.16800 0.83200 0.32700 2.49900
C 	C 	0.66640 0.81500 0.85540 0.78300
C 	C 	0.14460 0.66640 0.18500 0.78400
C 	C 	0.74110 0.16160 0.22330 0.12600
C 	C 	0.16800 0.67300 0.83200 2.50100
C 	C 	0.86510 0.13490 0.39770 -0.09800
C 	C 	0.13490 0.39770 0.86510 -0.09800
C 	C 	0.22330 0.74110 0.83840 0.13500
C 	C 	0.77600 0.18920 0.22400 -0.49900
C 	C 	0.60230 0.86510 0.13490 -0.09800
C 	C 	0.60230 0.86510 0.86510 -0.11100
C 	C 	0.22940 0.70850 0.86740 -4.61000
C 	C 	0.39770 0.86510 0.86510 -0.11200
C 	C 	0.86740 0.29150 0.22940 -4.60800
C 	C 	0.18920 0.22400 0.22400 -0.49200
C 	C 	0.77060 0.70850 0.86740 -4.62500
C 	C 	0.70850 0.77060 0.13260 -4.64200
C 	C 	0.29150 0.22940 0.86740 -4.60800
C 	C 	0.13260 0.77060 0.70850 -4.64200
C 	C 	0.70850 0.13260 0.77060 -4.64200
C 	C 	0.13490 0.13490 0.39770 -0.08500
C 	C 	0.77670 0.25890 0.16160 0.13400
C 	C 	0.83840 0.22330 0.25890 0.14400
C 	C 	0.70850 0.86740 0.22940 -4.61000
C 	C 	0.77670 0.83840 0.74110 0.13500
C 	C 	0.22330 0.16160 0.25890 0.13500
C 	C 	0.13490 0.86510 0.39770 -0.09800
C 	C 	0.22400 0.77600 0.18920 -0.49900
C 	C 	0.83840 0.22330 0.74110 0.13500
C 	C 	0.86510 0.13490 0.60230 -0.09800
C 	C 	0.77670 0.25890 0.83840 0.14300
C 	C 	0.70850 0.77060 0.86740 -4.62500
C 	C 	0.18920 0.77600 0.22400 -0.49900
C 	C 	0.22940 0.13260 0.70850 -4.62700
C 	C 	0.66640 0.85540 0.81500 0.78300
C 	C 	0.22400 0.22400 0.18920 -0.49200
C 	C 	0.33360 0.85540 0.18500 0.77600
C 	C 	0.77600 0.81080 0.77600 -0.48400
C 	C 	0.29150 0.22940 0.13260 -4.62500
C 	C 	0.66640 0.81500 0.14460 0.78800
C 	C 	0.81080 0.22400 0.22400 -0.47000
C 	C 	0.22940 0.86740 0.29150 -4.60800
C 	C 	0.22400 0.81080 0.22400 -0.47000
C 	C 	0.77670 0.16160 0.74110 0.12500
C 	C 	0.77670 0.16160 0.25890 0.13400
C 	C 	0.29150 0.13260 0.77060 -4.64000
C 	C 	0.70850 0.13260 0.22940 -4.62700
C 	C 	0.81500 0.66640 0.85540 0.78300
C 	C 	0.16160 0.77670 0.74110 0.12500
C 	C 	0.85540 0.81500 0.66640 0.78300
C 	C 	0.86510 0.86510 0.60230 -0.11100
C 	C 	0.86740 0.22940 0.70850 -4.61000
C 	C 	0.14460 0.33360 0.18500 0.78100
C 	C 	0.22400 0.18920 0.22400 -0.49200
C 	C 	0.74110 0.16160 0.77670 0.12500
C 	C 	0.33360 0.18500 0.85540 0.77600
C 	C 	0.13260 0.22940 0.29150 -4.62500
C 	C 	0.77060 0.70850 0.13260 -4.64200
C 	C 	0.81500 0.85540 0.33360 0.78000
C 	C 	0.22330 0.16160 0.74110 0.12600
C 	C 	0.81500 0.14460 0.66640 0.78800
C 	C 	0.16160 0.22330 0.74110 0.12600
C 	C 	0.22940 0.70850 0.13260 -4.62700
C 	C 	0.77600 0.77600 0.18920 -0.50700
C 	C 	0.25890 0.16160 0.22330 0.13500
C 	C 	0.18500 0.66640 0.14460 0.78400
C 	C 	0.86510 0.60230 0.13490 -0.09800
C 	C 	0.77670 0.74110 0.16160 0.12500
C 	C 	0.86740 0.29150 0.77060 -4.62300
C 	C 	0.85540 0.18500 0.33360 0.77600
C 	C 	0.39770 0.13490 0.86510 -0.09800
C 	C 	0.83200 0.83200 0.67300 2.49900
C 	C 	0.18920 0.77600 0.77600 -0.50700
C 	C 	0.25890 0.22330 0.83840 0.14400
C 	C 	0.22330 0.25890 0.16160 0.13500
C 	C 	0.66640 0.18500 0.14460 0.78400
C 	C 	0.33360 0.18500 0.14460 0.78100
C 	C 	0.74110 0.83840 0.77670 0.13500
C 	C 	0.13490 0.13490 0.60230 -0.08400
C 	C 	0.22400 0.81080 0.77600 -0.47700
C 	C 	0.25890 0.83840 0.22330 0.14400
C 	C 	0.77670 0.74110 0.83840 0.13500
C 	C 	0.18500 0.85540 0.33360 0.77600
C 	C 	0.14460 0.33360 0.81500 0.78400
C 	C 	0.16160 0.74110 0.77670 0.12500
C 	C 	0.14460 0.18500 0.33360 0.78100
C 	C 	0.83840 0.77670 0.74110 0.13500
C 	C 	0.13260 0.29150 0.22940 -4.62500
C 	C 	0.16160 0.25890 0.77670 0.13400
C 	C 	0.13260 0.22940 0.70850 -4.62700
C 	C 	0.18500 0.14460 0.33360 0.78100
C 	C 	0.81500 0.14460 0.33360 0.78400
C 	C 	0.74110 0.22330 0.83840 0.13500
C 	C 	0.77060 0.29150 0.86740 -4.62300
C 	C 	0.18500 0.66640 0.85540 0.77900
C 	C 	0.13260 0.70850 0.22940 -4.62700
C 	C 	0.85540 0.33360 0.81500 0.78000
C 	C 	0.66640 0.85540 0.18500 0.77900
C 	C 	0.33360 0.14460 0.81500 0.78400
C 	C 	0.83200 0.16800 0.67300 2.50100
C 	C 	0.81080 0.22400 0.77600 -0.47700
C 	C 	0.25890 0.77670 0.16160 0.13400
C 	C 	0.83840 0.74110 0.77670 0.13500
C 	C 	0.33360 0.85540 0.81500 0.78000
C 	C 	0.74110 0.22330 0.16160 0.12600
C 	C 	0.77060 0.13260 0.70850 -4.64200
C 	C 	0.22400 0.77600 0.81080 -0.47700
C 	C 	0.18500 0.85540 0.66640 0.77900
C 	C 	0.86510 0.39770 0.13490 -0.09800
C 	C 	0.86740 0.70850 0.22940 -4.61000
C 	C 	0.83840 0.25890 0.77670 0.14300
C 	C 	0.22330 0.83840 0.74110 0.13500
C 	C 	0.83200 0.67300 0.16800 2.50100
C 	C 	0.29150 0.86740 0.77060 -4.62300
C 	C 	0.39770 0.86510 0.13490 -0.09800
C 	C 	0.22400 0.22400 0.81080 -0.47000
C 	C 	0.32700 0.16800 0.83200 2.49900
C 	C 	0.70850 0.22940 0.86740 -4.61000
C 	C 	0.85540 0.33360 0.18500 0.77600
C 	C 	0.25890 0.77670 0.83840 0.14300
C 	C 	0.22940 0.86740 0.70850 -4.61000
C 	C 	0.16800 0.16800 0.32700 2.50100
C 	C 	0.67300 0.16800 0.16800 2.50400
C 	C 	0.74110 0.77670 0.83840 0.13500
C 	C 	0.83200 0.32700 0.16800 2.49900
C 	C 	0.33360 0.14460 0.18500 0.78100
C 	C 	0.14460 0.18500 0.66640 0.78400
C 	C 	0.67300 0.16800 0.83200 2.50100
C 	C 	0.83840 0.77670 0.25890 0.14300
C 	C 	0.81500 0.33360 0.85540 0.78000
C 	C 	0.77060 0.13260 0.29150 -4.64000
C 	C 	0.77600 0.22400 0.18920 -0.49900
C 	C 	0.18500 0.33360 0.14460 0.78100
C 	C 	0.33360 0.81500 0.85540 0.78000
C 	C 	0.13490 0.60230 0.13490 -0.08400
C 	C 	0.16800 0.83200 0.67300 2.50100
C 	C 	0.22940 0.29150 0.86740 -4.60800
C 	C 	0.22940 0.29150 0.13260 -4.62500
C 	C 	0.85540 0.81500 0.33360 0.78000
C 	C 	0.29150 0.13260 0.22940 -4.62500
C 	C 	0.18500 0.14460 0.66640 0.78400
C 	C 	0.13490 0.60230 0.86510 -0.09800
C 	C 	0.39770 0.13490 0.13490 -0.08500
C 	C 	0.16160 0.22330 0.25890 0.13500
C 	C 	0.85540 0.18500 0.66640 0.77900
C 	C 	0.13490 0.39770 0.13490 -0.08500
C 	C 	0.14460 0.66640 0.81500 0.78800
C 	C 	0.18500 0.33360 0.85540 0.77600
C 	C 	0.83840 0.25890 0.22330 0.14400
C 	C 	0.86740 0.22940 0.29150 -4.60800
C 	C 	0.81500 0.33360 0.14460 0.78400
C 	C 	0.60230 0.13490 0.86510 -0.09800
C 	C 	0.70850 0.86740 0.77060 -4.62500
C 	C 	0.77600 0.22400 0.81080 -0.47700
C 	C 	0.16800 0.32700 0.83200 2.49900
C 	C 	0.83840 0.74110 0.22330 0.13500
C 	C 	0.22400 0.18920 0.77600 -0.49900
C 	C 	0.81500 0.66640 0.14460 0.78800
C 	C 	0.81080 0.77600 0.22400 -0.47700
C 	C 	0.86740 0.70850 0.77060 -4.62500
C 	C 	0.70850 0.22940 0.13260 -4.62700
C 	C 	0.86510 0.60230 0.86510 -0.11100
C 	C 	0.13260 0.29150 0.77060 -4.64000
C 	C 	0.13260 0.77060 0.29150 -4.64000
C 	C 	0.16160 0.25890 0.22330 0.13500
C 	C 	0.16160 0.74110 0.22330 0.12600
C 	C 	0.77600 0.77600 0.81080 -0.48400
C 	C 	0.67300 0.83200 0.16800 2.50100
C 	C 	0.25890 0.22330 0.16160 0.13500
C 	C 	0.83200 0.83200 0.32700 2.49700
C 	C 	0.14460 0.81500 0.66640 0.78800
C 	C 	0.77670 0.83840 0.25890 0.14300
C 	C 	0.32700 0.83200 0.83200 2.49700
C 	C 	0.85540 0.66640 0.81500 0.78300
C 	C 	0.22330 0.25890 0.83840 0.14400
C 	C 	0.66640 0.14460 0.81500 0.78800
C 	C 	0.74110 0.83840 0.22330 0.13500
C 	C 	0.66640 0.18500 0.85540 0.77900
C 	C 	0.16160 0.77670 0.25890 0.13400
C 	C 	0.81500 0.85540 0.66640 0.78300
C 	C 	0.86510 0.86510 0.39770 -0.11200
C 	C 	0.29150 0.86740 0.22940 -4.60800
C 	C 	0.13260 0.70850 0.77060 -4.64200
C 	C 	0.33360 0.81500 0.14460 0.78400
C 	C 	0.14460 0.81500 0.33360 0.78400
C 	C 	0.77060 0.86740 0.29150 -4.62300
C 	C 	0.25890 0.16160 0.77670 0.13400
C 	C 	0.32700 0.16800 0.16800 2.50100
C 	C 	0.66640 0.14460 0.18500 0.78400
C 	C 	0.29150 0.77060 0.86740 -4.62300
C 	C 	0.86740 0.77060 0.70850 -4.62500
C 	C 	0.16800 0.32700 0.16800 2.50100
C 	C 	0.83200 0.67300 0.83200 2.49900
C 	C 	0.29150 0.77060 0.13260 -4.64000
C 	C 	0.85540 0.66640 0.18500 0.77900
C 	C 	0.22330 0.83840 0.25890 0.14400
C 	C 	0.16800 0.16800 0.67300 2.50400
C 	C 	0.25890 0.83840 0.77670 0.14300
C 	C 	0.74110 0.77670 0.16160 0.12500
N 	N 	0.11530 0.21510 0.60270 0.03300
N 	N 	0.88470 0.78490 0.39730 0.01000
N 	N 	0.83740 0.45250 0.88550 -0.12700
N 	N 	0.14430 0.57680 0.09890 0.36400
N 	N 	0.09890 0.14430 0.42320 0.36400
N 	N 	0.16100 0.88730 0.65000 -0.83600
N 	N 	0.42320 0.09890 0.14430 0.36400
N 	N 	0.21510 0.11530 0.60270 0.03300
N 	N 	0.45250 0.11450 0.16260 -0.12200
N 	N 	0.45250 0.16260 0.88550 -0.11000
N 	N 	0.54750 0.11450 0.83740 -0.14000
N 	N 	0.14430 0.42320 0.09890 0.36400
N 	N 	0.42320 0.85570 0.09890 0.53100
N 	N 	0.16100 0.11270 0.65000 -0.85900
N 	N 	0.14430 0.09890 0.57680 0.36400
N 	N 	0.11270 0.83900 0.35000 -0.85500
N 	N 	0.16260 0.11450 0.45250 -0.12200
N 	N 	0.65000 0.11270 0.83900 -0.85500
N 	N 	0.39730 0.88470 0.21510 -0.03900
N 	N 	0.65000 0.83900 0.11270 -0.85500
N 	N 	0.39730 0.21510 0.88470 -0.03900
N 	N 	0.83900 0.11270 0.65000 -0.85500
N 	N 	0.09890 0.14430 0.57680 0.36400
N 	N 	0.42320 0.14430 0.09890 0.36400
N 	N 	0.60270 0.78490 0.11530 0.08200
N 	N 	0.88470 0.21510 0.60270 -0.04100
N 	N 	0.54750 0.16260 0.88550 -0.11000
N 	N 	0.57680 0.90110 0.85570 0.36100
N 	N 	0.88550 0.16260 0.54750 -0.11000
N 	N 	0.39730 0.11530 0.78490 0.08300
N 	N 	0.57680 0.14430 0.09890 0.36400
N 	N 	0.90110 0.85570 0.42320 0.36200
N 	N 	0.57680 0.85570 0.09890 0.53200
N 	N 	0.42320 0.85570 0.90110 0.36200
N 	N 	0.83740 0.11450 0.45250 -0.13900
N 	N 	0.88550 0.83740 0.54750 -0.12700
N 	N 	0.60270 0.11530 0.21510 0.03300
N 	N 	0.09890 0.57680 0.85570 0.53200
N 	N 	0.57680 0.09890 0.14430 0.36400
N 	N 	0.39730 0.78490 0.88470 0.01000
N 	N 	0.83740 0.11450 0.54750 -0.14000
N 	N 	0.09890 0.42320 0.85570 0.53100
N 	N 	0.78490 0.39730 0.88470 0.01000
N 	N 	0.88730 0.16100 0.65000 -0.83600
N 	N 	0.21510 0.88470 0.60270 -0.04100
N 	N 	0.60270 0.21510 0.88470 -0.04100
N 	N 	0.88470 0.39730 0.78490 0.01000
N 	N 	0.45250 0.16260 0.11450 -0.12200
N 	N 	0.11530 0.78490 0.60270 0.08200
N 	N 	0.90110 0.57680 0.85570 0.36100
N 	N 	0.21510 0.60270 0.11530 0.03300
N 	N 	0.54750 0.11450 0.16260 -0.12300
N 	N 	0.14430 0.09890 0.42320 0.36400
N 	N 	0.60270 0.88470 0.78490 0.00800
N 	N 	0.60270 0.11530 0.78490 0.08200
N 	N 	0.88470 0.39730 0.21510 -0.03900
N 	N 	0.83740 0.54750 0.11450 -0.14000
N 	N 	0.88470 0.60270 0.78490 0.00800
N 	N 	0.45250 0.11450 0.83740 -0.13900
N 	N 	0.57680 0.14430 0.90110 0.19300
N 	N 	0.90110 0.42320 0.85570 0.36200
N 	N 	0.54750 0.83740 0.88550 -0.12700
N 	N 	0.78490 0.60270 0.88470 0.00800
N 	N 	0.11270 0.83900 0.65000 -0.85500
N 	N 	0.88730 0.83900 0.35000 -0.83100
N 	N 	0.11530 0.78490 0.39730 0.08300
N 	N 	0.35000 0.83900 0.88730 -0.83100
N 	N 	0.78490 0.11530 0.60270 0.08200
N 	N 	0.14430 0.57680 0.90110 0.19300
N 	N 	0.90110 0.85570 0.57680 0.36100
N 	N 	0.78490 0.60270 0.11530 0.08200
N 	N 	0.83740 0.45250 0.11450 -0.13900
N 	N 	0.11530 0.39730 0.21510 0.03400
N 	N 	0.45250 0.88550 0.83740 -0.12700
N 	N 	0.85570 0.57680 0.09890 0.53200
N 	N 	0.21510 0.39730 0.88470 -0.03900
N 	N 	0.90110 0.14430 0.57680 0.19300
N 	N 	0.88730 0.35000 0.16100 -0.83500
N 	N 	0.11450 0.16260 0.54750 -0.12300
N 	N 	0.42320 0.90110 0.14430 0.19500
N 	N 	0.83900 0.11270 0.35000 -0.85500
N 	N 	0.35000 0.16100 0.88730 -0.83500
N 	N 	0.21510 0.88470 0.39730 -0.03900
N 	N 	0.88550 0.54750 0.16260 -0.11000
N 	N 	0.78490 0.88470 0.39730 0.01000
N 	N 	0.11450 0.54750 0.83740 -0.14000
N 	N 	0.88470 0.78490 0.60270 0.00800
N 	N 	0.16260 0.54750 0.11450 -0.12300
N 	N 	0.54750 0.16260 0.11450 -0.12300
N 	N 	0.21510 0.39730 0.11530 0.03400
N 	N 	0.42320 0.90110 0.85570 0.36200
N 	N 	0.88730 0.16100 0.35000 -0.83500
N 	N 	0.16100 0.65000 0.11270 -0.85900
N 	N 	0.45250 0.83740 0.11450 -0.13900
N 	N 	0.11450 0.16260 0.45250 -0.12200
N 	N 	0.83900 0.35000 0.88730 -0.83100
N 	N 	0.11270 0.65000 0.16100 -0.85900
N 	N 	0.78490 0.88470 0.60270 0.00800
N 	N 	0.85570 0.09890 0.57680 0.53200
N 	N 	0.39730 0.88470 0.78490 0.01000
N 	N 	0.83900 0.35000 0.11270 -0.85500
N 	N 	0.88550 0.16260 0.45250 -0.11000
N 	N 	0.35000 0.16100 0.11270 -0.85900
N 	N 	0.65000 0.16100 0.11270 -0.85900
N 	N 	0.45250 0.83740 0.88550 -0.12700
N 	N 	0.21510 0.60270 0.88470 -0.04100
N 	N 	0.11270 0.16100 0.65000 -0.85900
N 	N 	0.88730 0.83900 0.65000 -0.83100
N 	N 	0.11530 0.21510 0.39730 0.03400
N 	N 	0.09890 0.85570 0.57680 0.53200
N 	N 	0.16100 0.88730 0.35000 -0.83500
N 	N 	0.39730 0.11530 0.21510 0.03400
N 	N 	0.54750 0.88550 0.16260 -0.11000
N 	N 	0.90110 0.42320 0.14430 0.19500
N 	N 	0.85570 0.09890 0.42320 0.53100
N 	N 	0.88550 0.45250 0.83740 -0.12700
N 	N 	0.85570 0.90110 0.42320 0.36200
N 	N 	0.60270 0.21510 0.11530 0.03300
N 	N 	0.83900 0.88730 0.65000 -0.83100
N 	N 	0.11450 0.45250 0.83740 -0.13900
N 	N 	0.85570 0.42320 0.90110 0.36200
N 	N 	0.88730 0.65000 0.83900 -0.83100
N 	N 	0.14430 0.42320 0.90110 0.19500
N 	N 	0.14430 0.90110 0.57680 0.19300
N 	N 	0.57680 0.09890 0.85570 0.53200
N 	N 	0.88730 0.65000 0.16100 -0.83600
N 	N 	0.35000 0.11270 0.16100 -0.85900
N 	N 	0.39730 0.21510 0.11530 0.03400
N 	N 	0.60270 0.88470 0.21510 -0.04100
N 	N 	0.57680 0.90110 0.14430 0.19300
N 	N 	0.11530 0.39730 0.78490 0.08300
N 	N 	0.90110 0.57680 0.14430 0.19300
N 	N 	0.60270 0.78490 0.88470 0.00800
N 	N 	0.83900 0.65000 0.11270 -0.85500
N 	N 	0.78490 0.39730 0.11530 0.08300
N 	N 	0.11450 0.83740 0.54750 -0.14000
N 	N 	0.83740 0.54750 0.88550 -0.12700
N 	N 	0.39730 0.78490 0.11530 0.08300
N 	N 	0.14430 0.90110 0.42320 0.19500
N 	N 	0.16260 0.11450 0.54750 -0.12300
N 	N 	0.11450 0.83740 0.45250 -0.13900
N 	N 	0.88470 0.21510 0.39730 -0.03900
N 	N 	0.54750 0.83740 0.11450 -0.14000
N 	N 	0.16260 0.54750 0.88550 -0.11000
N 	N 	0.83900 0.65000 0.88730 -0.83100
N 	N 	0.16100 0.11270 0.35000 -0.85900
N 	N 	0.11530 0.60270 0.21510 0.03300
N 	N 	0.16260 0.88550 0.45250 -0.11000
N 	N 	0.88470 0.60270 0.21510 -0.04100
N 	N 	0.09890 0.85570 0.42320 0.53100
N 	N 	0.35000 0.88730 0.16100 -0.83500
N 	N 	0.16260 0.88550 0.54750 -0.11000
N 	N 	0.54750 0.88550 0.83740 -0.12700
N 	N 	0.11450 0.45250 0.16260 -0.12200
N 	N 	0.88550 0.83740 0.45250 -0.12700
N 	N 	0.83740 0.88550 0.54750 -0.12700
N 	N 	0.88550 0.45250 0.16260 -0.11000
N 	N 	0.42320 0.14430 0.90110 0.19500
N 	N 	0.09890 0.57680 0.14430 0.36400
N 	N 	0.65000 0.88730 0.16100 -0.83600
N 	N 	0.78490 0.11530 0.39730 0.08300
N 	N 	0.57680 0.85570 0.90110 0.36100
N 	N 	0.16260 0.45250 0.11450 -0.12200
N 	N 	0.11450 0.54750 0.16260 -0.12300
N 	N 	0.85570 0.57680 0.90110 0.36100
N 	N 	0.42320 0.09890 0.85570 0.53100
N 	N 	0.85570 0.90110 0.57680 0.36100
N 	N 	0.11530 0.60270 0.78490 0.08200
N 	N 	0.88550 0.54750 0.83740 -0.12700
N 	N 	0.35000 0.83900 0.11270 -0.85500
N 	N 	0.11270 0.35000 0.83900 -0.85500
N 	N 	0.45250 0.88550 0.16260 -0.11000
N 	N 	0.11270 0.35000 0.16100 -0.85900
N 	N 	0.35000 0.11270 0.83900 -0.85500
N 	N 	0.65000 0.88730 0.83900 -0.83100
N 	N 	0.16260 0.45250 0.88550 -0.11000
N 	N 	0.90110 0.14430 0.42320 0.19500
N 	N 	0.16100 0.35000 0.11270 -0.85900
N 	N 	0.85570 0.42320 0.09890 0.53100
N 	N 	0.09890 0.42320 0.14430 0.36400
N 	N 	0.83740 0.88550 0.45250 -0.12700
N 	N 	0.83900 0.88730 0.35000 -0.83100
N 	N 	0.11270 0.16100 0.35000 -0.85900
N 	N 	0.21510 0.11530 0.39730 0.03400
N 	N 	0.11270 0.65000 0.83900 -0.85500
N 	N 	0.88730 0.35000 0.83900 -0.83100
N 	N 	0.65000 0.11270 0.16100 -0.85900
N 	N 	0.35000 0.88730 0.83900 -0.83100
N 	N 	0.65000 0.16100 0.88730 -0.83600
N 	N 	0.65000 0.83900 0.88730 -0.83100
N 	N 	0.16100 0.65000 0.88730 -0.83600
N 	N 	0.16100 0.35000 0.88730 -0.83500
Cl	Cl	0.50000 0.00000 -0.00000 -0.77500
Cl	Cl	-0.00000 0.50000 -0.00000 -0.77500
Cl	Cl	0.00000 0.00000 0.50000 -0.77500
O 	O 	0.57780 0.17720 0.08330 -0.40700
O 	O 	0.57780 0.08330 0.17720 -0.40700
O 	O 	0.91670 0.82280 0.42220 -0.33700
O 	O 	0.08330 0.57780 0.17720 -0.40700
O 	O 	0.57780 0.17720 0.91670 -0.19300
O 	O 	0.08330 0.42220 0.82280 -0.55100
O 	O 	0.42220 0.82280 0.08330 -0.55100
O 	O 	0.08330 0.17720 0.57780 -0.40700
O 	O 	0.82280 0.57780 0.91670 -0.33400
O 	O 	0.91670 0.82280 0.57780 -0.33400
O 	O 	0.08330 0.17720 0.42220 -0.40900
O 	O 	0.57780 0.08330 0.82280 -0.55000
O 	O 	0.91670 0.57780 0.82280 -0.33400
O 	O 	0.82280 0.08330 0.42220 -0.55100
O 	O 	0.17720 0.57780 0.08330 -0.40700
O 	O 	0.57780 0.91670 0.82280 -0.33400
O 	O 	0.17720 0.08330 0.57780 -0.40700
O 	O 	0.08330 0.82280 0.57780 -0.55000
O 	O 	0.42220 0.17720 0.91670 -0.19700
O 	O 	0.42220 0.82280 0.91670 -0.33700
O 	O 	0.42220 0.17720 0.08330 -0.40900
O 	O 	0.57780 0.82280 0.91670 -0.33400
O 	O 	0.08330 0.42220 0.17720 -0.40900
O 	O 	0.17720 0.91670 0.42220 -0.19700
O 	O 	0.91670 0.42220 0.17720 -0.19700
O 	O 	0.17720 0.08330 0.42220 -0.40900
O 	O 	0.17720 0.57780 0.91670 -0.19300
O 	O 	0.91670 0.17720 0.42220 -0.19700
O 	O 	0.17720 0.91670 0.57780 -0.19300
O 	O 	0.57780 0.82280 0.08330 -0.55000
O 	O 	0.08330 0.57780 0.82280 -0.55000
O 	O 	0.17720 0.42220 0.08330 -0.40900
O 	O 	0.42220 0.08330 0.82280 -0.55100
O 	O 	0.57780 0.91670 0.17720 -0.19300
O 	O 	0.82280 0.42220 0.08330 -0.55100
O 	O 	0.91670 0.57780 0.17720 -0.19300
O 	O 	0.08330 0.82280 0.42220 -0.55100
O 	O 	0.82280 0.42220 0.91670 -0.33700
O 	O 	0.42220 0.91670 0.82280 -0.33700
O 	O 	0.91670 0.42220 0.82280 -0.33700
O 	O 	0.17720 0.42220 0.91670 -0.19700
O 	O 	0.82280 0.91670 0.42220 -0.33700
O 	O 	0.82280 0.57780 0.08330 -0.55000
O 	O 	0.42220 0.08330 0.17720 -0.40900
O 	O 	0.82280 0.08330 0.57780 -0.55000
O 	O 	0.82280 0.91670 0.57780 -0.33400
O 	O 	0.42220 0.91670 0.17720 -0.19700
O 	O 	0.91670 0.17720 0.57780 -0.19300
