data_crystal

_cell_length_a 29.74250
_cell_length_b 31.10750
_cell_length_c 31.10750
_cell_angle_alpha 69.65700
_cell_angle_beta  71.41530
_cell_angle_gamma 108.58500

_symmetry_space_group_name_	'P 1'
_symmetry_space_group_name_H-M	'P 1'

loop_
_symmetry_equiv_pos_as_xyz
  x,y,z

loop_
_atom_site_label
_atom_site_type_symbol
_atom_site_fract_x
_atom_site_fract_y
_atom_site_fract_z
_atom_site_charge
Zn	Zn	0.37283 0.74701 0.54128 1.22900
Zn	Zn	0.77467 0.07104 0.97494 1.21100
Zn	Zn	0.94159 0.49485 0.63801 1.21300
Zn	Zn	0.90550 0.43101 0.75837 1.21000
Zn	Zn	0.02143 0.53161 0.68443 1.18000
Zn	Zn	0.57960 0.63801 0.86714 1.21300
Zn	Zn	0.74961 0.97494 0.95402 1.21200
Zn	Zn	0.70586 0.68443 0.78396 1.18100
Zn	Zn	0.48982 0.78396 0.53161 1.18100
Zn	Zn	0.44674 0.86714 0.49485 1.21400
Zn	Zn	0.66387 0.75837 0.81062 1.21100
Zn	Zn	0.91411 0.54128 0.71171 1.23000
Zn	Zn	0.47449 0.81062 0.43101 1.21100
Zn	Zn	0.70363 0.95402 0.07104 1.21100
Zn	Zn	0.82827 0.00000 -0.00000 1.22700
Zn	Zn	0.62582 0.71171 0.74701 1.23000
H 	H 	0.87500 0.73800 0.86090 0.07200
H 	H 	0.25150 0.59490 0.37840 0.13200
H 	H 	0.60440 0.83480 0.66790 0.06300
H 	H 	0.70940 0.34360 0.98470 0.07700
H 	H 	0.15750 0.59960 0.54300 0.02500
H 	H 	0.67990 0.70240 0.60550 0.02100
H 	H 	0.60730 0.03350 0.53570 0.09900
H 	H 	0.69410 0.98470 0.67170 0.07700
H 	H 	0.91200 0.92270 0.95410 0.01200
H 	H 	0.02900 0.76990 0.69650 0.08800
H 	H 	0.97750 0.69210 0.70240 0.02100
H 	H 	0.43830 0.68910 0.12370 0.13800
H 	H 	0.87650 0.93500 0.19740 0.09300
H 	H 	0.65660 0.02670 0.59490 0.12900
H 	H 	0.72510 0.05020 0.82720 0.00600
H 	H 	0.42970 0.67820 0.68230 0.03400
H 	H 	0.47400 0.63860 0.98830 0.01700
H 	H 	0.55790 0.85740 0.59960 0.02600
H 	H 	0.78960 0.17750 0.83360 0.03500
H 	H 	0.73590 0.86090 0.40110 0.07200
H 	H 	0.59650 0.76660 0.95070 0.04500
H 	H 	0.81080 0.89260 0.89550 0.03200
H 	H 	0.08990 0.44490 0.71820 0.03000
H 	H 	0.29660 0.49440 0.83240 0.13400
H 	H 	0.62990 0.37840 0.02670 0.12900
H 	H 	0.78130 0.37700 0.90440 0.04300
H 	H 	0.82990 0.28270 0.76660 0.04800
H 	H 	0.68570 0.90440 0.71860 0.04300
H 	H 	0.55480 0.98500 0.51090 0.01400
H 	H 	0.70050 0.54300 0.85740 0.02600
H 	H 	0.11200 0.68230 0.63950 0.03400
H 	H 	0.78300 0.83360 0.85030 0.04900
H 	H 	0.42550 0.63240 0.06430 0.09400
H 	H 	0.56200 0.12370 0.18720 0.13800
H 	H 	0.13700 0.40110 0.73800 0.07200
H 	H 	0.25910 0.53360 0.76990 0.08700
H 	H 	0.80220 0.67320 0.49440 0.13300
H 	H 	0.31720 0.89100 0.57430 0.01600
H 	H 	0.72550 0.69650 0.53360 0.08700
H 	H 	0.75150 0.63950 0.67820 0.03400
H 	H 	0.22660 0.74880 0.59890 0.03900
H 	H 	0.67490 0.12260 0.05020 0.00700
H 	H 	0.91520 0.78820 0.91290 0.12600
H 	H 	0.86610 0.95410 0.12320 0.01100
H 	H 	0.28540 0.60550 0.69210 0.02100
H 	H 	0.74920 0.18720 0.68910 0.13800
H 	H 	0.47280 0.75680 0.15390 0.11100
H 	H 	0.84810 0.60840 0.49410 0.09200
H 	H 	0.06570 0.51090 0.50410 0.01000
H 	H 	0.82550 0.59890 0.65230 0.03900
H 	H 	0.94940 0.31610 0.83360 0.04900
H 	H 	0.48980 0.06430 0.30330 0.09500
H 	H 	0.82810 0.91290 0.29890 0.12600
H 	H 	0.27230 0.66790 0.49730 0.06300
H 	H 	0.12900 0.83240 0.67320 0.13400
H 	H 	0.71600 0.08930 0.75680 0.11200
H 	H 	0.83540 0.37310 0.63860 0.02000
H 	H 	0.34220 0.49410 0.89750 0.09300
H 	H 	0.94150 0.86760 0.93500 0.09400
H 	H 	0.63330 0.85030 0.31610 0.04900
H 	H 	0.62320 0.83360 0.98890 0.04200
H 	H 	0.57380 0.43080 0.03350 0.09900
H 	H 	0.79310 0.30330 0.63240 0.09100
H 	H 	0.55230 0.82720 0.12260 0.00800
H 	H 	0.46230 0.98830 0.37310 0.01700
H 	H 	0.76960 0.49730 0.83480 0.06300
H 	H 	0.40430 0.71860 0.37700 0.04200
H 	H 	0.80810 0.71820 0.83690 0.03000
H 	H 	0.98930 0.12320 0.92270 0.01100
H 	H 	0.89150 0.57430 0.53470 0.01600
H 	H 	0.62670 0.15390 0.08930 0.11000
H 	H 	0.42620 0.53470 0.89100 0.01600
H 	H 	0.56980 0.50410 0.98500 0.01400
H 	H 	0.07390 0.19740 0.86760 0.09300
H 	H 	0.14300 0.53570 0.43080 0.10500
H 	H 	0.36580 0.67170 0.34360 0.07600
H 	H 	0.23970 0.89750 0.60840 0.09300
H 	H 	0.12700 0.29890 0.78820 0.12500
H 	H 	0.70630 0.89550 0.21190 0.03200
H 	H 	0.47780 0.65230 0.74880 0.03900
H 	H 	0.64500 0.83690 0.44490 0.03000
H 	H 	0.54720 0.95070 0.28270 0.04400
H 	H 	0.91820 0.21190 0.89260 0.03200
H 	H 	0.61210 0.98890 0.17750 0.04300
C 	C 	0.85850 0.91300 0.92670 -0.17100
C 	C 	0.34770 0.69960 0.44350 -0.08300
C 	C 	0.74040 0.90340 0.20900 0.04400
C 	C 	0.65100 0.05250 0.10550 -0.14400
C 	C 	0.55090 0.81350 0.10050 0.10300
C 	C 	0.80400 0.62130 0.59610 -0.04200
C 	C 	0.83000 0.60080 0.62060 0.01700
C 	C 	0.65380 0.85240 0.33320 -0.00700
C 	C 	0.62400 0.86520 0.66740 -0.02500
C 	C 	0.40010 0.59610 0.78260 -0.04200
C 	C 	0.80050 0.29850 0.66000 -0.16000
C 	C 	0.67740 0.47660 0.92180 -0.06900
C 	C 	0.28700 0.63340 0.40730 0.09800
C 	C 	0.25800 0.63540 0.45610 -0.00500
C 	C 	0.55127 0.91657 0.55266 -0.16900
C 	C 	0.61680 0.02230 0.15990 0.02400
C 	C 	0.75880 0.46740 0.86520 -0.02500
C 	C 	0.57480 0.82510 0.42410 0.37500
C 	C 	0.84240 0.92710 0.20030 -0.17700
C 	C 	0.59734 0.99818 0.54856 -0.18600
C 	C 	0.55330 0.77520 0.03850 -0.05600
C 	C 	0.59180 0.03850 0.18630 -0.05600
C 	C 	0.84350 0.60650 0.52580 -0.17600
C 	C 	0.85470 0.85460 0.89200 -0.05900
C 	C 	0.35960 0.54880 0.82710 0.13400
C 	C 	0.34500 0.66820 0.37550 -0.13200
C 	C 	0.07110 0.41030 0.74540 0.02200
C 	C 	0.32820 0.81440 0.55740 0.41500
C 	C 	0.78440 0.94820 0.11040 0.46600
C 	C 	0.45060 0.62060 0.77860 0.01700
C 	C 	0.10393 0.55266 0.53077 -0.17300
C 	C 	0.29140 0.66740 0.46740 -0.02600
C 	C 	0.99890 0.42410 0.75080 0.37500
C 	C 	0.64810 0.85690 0.69960 -0.08400
C 	C 	0.32860 0.56290 0.77280 0.14700
C 	C 	0.62470 0.12200 0.10810 -0.23300
C 	C 	0.22920 0.77860 0.60080 0.01700
C 	C 	0.67070 0.90540 0.69650 0.02900
C 	C 	0.59850 0.84200 0.05250 -0.14400
C 	C 	0.86960 0.58610 0.55010 0.07900
C 	C 	0.71120 0.67150 0.64900 -0.11400
C 	C 	0.69430 0.40730 0.95930 0.09800
C 	C 	0.72050 0.37550 0.95630 -0.13200
C 	C 	0.50410 0.74840 0.09090 0.19100
C 	C 	0.54120 0.05570 0.24340 0.12600
C 	C 	0.39550 0.64930 0.69990 0.00800
C 	C 	0.49810 0.95780 0.33990 -0.14600
C 	C 	0.67501 0.52051 0.89278 0.04800
C 	C 	0.80140 0.81440 0.85240 -0.00600
C 	C 	0.83620 0.94140 0.94820 0.46500
C 	C 	0.49040 0.66460 0.99480 0.09900
C 	C 	0.30900 0.60560 0.70570 0.05400
C 	C 	0.56590 0.96910 0.53370 0.09900
C 	C 	0.82100 0.28620 0.74010 0.00400
C 	C 	0.01530 0.30700 0.82630 -0.01200
C 	C 	0.01490 0.38480 0.77390 -0.10500
C 	C 	0.81080 0.62410 0.54880 0.13400
C 	C 	0.83800 0.33990 0.70230 -0.13800
C 	C 	0.37710 0.72890 0.46350 0.44500
C 	C 	0.20080 0.60160 0.47660 -0.07200
C 	C 	0.66080 0.84430 0.41030 0.02300
C 	C 	0.84160 0.82630 0.86670 -0.01200
C 	C 	0.48550 0.70090 0.05570 0.12600
C 	C 	0.36720 0.69650 0.39810 0.02900
C 	C 	0.57460 0.70220 0.91120 0.46600
C 	C 	0.77360 0.64730 0.60620 -0.04700
C 	C 	0.46050 0.66000 0.04150 -0.17100
C 	C 	0.59500 0.09090 0.16070 0.19000
C 	C 	0.81650 0.74540 0.84430 0.02300
C 	C 	0.74670 0.89200 0.25340 -0.05900
C 	C 	0.68480 0.68460 0.68880 0.34200
C 	C 	0.78520 0.92670 0.16030 -0.17200
C 	C 	0.29330 0.56260 0.75240 -0.17300
C 	C 	0.73900 0.87000 0.33250 0.07800
C 	C 	0.77670 0.15990 0.81780 0.04100
C 	C 	0.59680 0.49720 0.96910 0.09900
C 	C 	0.73740 0.08600 0.81350 0.10900
C 	C 	0.07150 0.33250 0.79750 0.07800
C 	C 	0.05440 0.53590 0.57890 0.47800
C 	C 	0.18670 0.82710 0.62410 0.13500
C 	C 	0.94940 0.20900 0.88760 0.04400
C 	C 	0.75170 0.07250 0.89300 0.40400
C 	C 	0.15450 0.58671 0.52051 0.05100
C 	C 	0.51380 0.62820 0.81440 0.41500
C 	C 	0.86900 0.79750 0.87000 0.07900
C 	C 	0.54030 0.70230 0.95780 -0.14500
C 	C 	0.18270 0.78260 0.62130 -0.04200
C 	C 	0.98700 0.33320 0.81440 -0.00700
C 	C 	0.74970 0.75080 0.82510 0.37500
C 	C 	0.00020 0.62660 0.68460 0.34200
C 	C 	0.64820 0.80760 0.72890 0.44500
C 	C 	0.14590 0.54856 0.45326 -0.19700
C 	C 	0.19656 0.58252 0.44294 0.15400
C 	C 	0.79120 0.44350 0.85690 -0.08400
C 	C 	0.37980 0.60620 0.74650 -0.04700
C 	C 	0.37360 0.68880 0.62660 0.34200
C 	C 	0.28350 0.86380 0.58610 0.07900
C 	C 	0.53420 0.74180 0.02010 -0.04200
C 	C 	0.63330 0.57890 0.88520 0.47700
C 	C 	0.83620 0.93850 0.15590 0.09100
C 	C 	0.12630 0.74650 0.64730 -0.04700
C 	C 	0.67920 0.03450 0.07250 0.39600
C 	C 	0.89390 0.84720 0.90380 0.13100
C 	C 	0.73070 0.68500 0.56260 -0.17300
C 	C 	0.71410 0.45610 0.90850 -0.00600
C 	C 	0.75570 0.16070 0.74840 0.19500
C 	C 	0.09950 0.38410 0.75700 -0.12100
C 	C 	0.76530 0.39810 0.90540 0.02900
C 	C 	0.23700 0.86770 0.60650 -0.17600
C 	C 	0.63010 0.84130 0.38480 -0.10500
C 	C 	0.77810 0.18630 0.77520 -0.06600
C 	C 	0.82580 0.34060 0.66460 0.08700
C 	C 	0.09960 0.53370 0.49720 0.10500
C 	C 	0.63950 0.44294 0.97454 0.15000
C 	C 	0.03970 0.67950 0.67150 -0.11400
C 	C 	0.65140 0.10050 0.08600 0.10200
C 	C 	0.27960 0.81920 0.58320 -0.14100
C 	C 	0.70830 0.86670 0.30700 -0.01200
C 	C 	0.87240 0.38660 0.70220 0.46300
C 	C 	0.53480 0.97370 0.28620 0.01600
C 	C 	0.83700 0.88760 0.90340 0.04400
C 	C 	0.46040 0.59760 0.81920 -0.14100
C 	C 	0.71540 0.85890 0.38410 -0.12100
C 	C 	0.75650 0.10550 0.84200 -0.15200
C 	C 	0.65360 0.95930 0.63340 0.09800
C 	C 	0.78880 0.77390 0.84130 -0.10500
C 	C 	0.78460 0.24340 0.70090 0.12000
C 	C 	0.62260 0.90850 0.63540 -0.00600
C 	C 	0.59450 0.81780 0.02230 0.02500
C 	C 	0.59920 0.92180 0.60160 -0.06900
C 	C 	0.79770 0.90380 0.24900 0.13100
C 	C 	0.84060 0.46350 0.80760 0.44500
C 	C 	0.88560 0.55740 0.62820 0.41500
C 	C 	0.89770 0.90560 0.93850 0.09000
C 	C 	0.00010 0.25340 0.85460 -0.05900
C 	C 	0.04270 0.20030 0.87260 -0.17600
C 	C 	0.61404 0.97454 0.58252 0.15000
C 	C 	0.01470 0.70570 0.68870 0.05500
C 	C 	0.73280 0.10810 0.76990 -0.23800
C 	C 	0.50270 0.76990 0.12200 -0.23300
C 	C 	0.59916 0.45326 0.99818 -0.18600
C 	C 	0.36930 0.52580 0.86770 -0.17600
C 	C 	0.55430 0.02010 0.23810 -0.04300
C 	C 	0.36020 0.64900 0.67950 -0.11400
C 	C 	0.41970 0.55010 0.86380 0.07900
C 	C 	0.51850 0.88520 0.53590 0.47700
C 	C 	0.48580 0.91120 0.38660 0.46700
C 	C 	0.74620 0.65080 0.64930 0.00800
C 	C 	0.09540 0.69990 0.65080 0.00900
C 	C 	0.10140 0.77280 0.66430 0.14700
C 	C 	0.56779 0.89278 0.58671 0.04800
C 	C 	0.89480 0.11040 0.94140 0.46500
C 	C 	0.79240 0.23810 0.74180 -0.03100
C 	C 	0.56110 0.74010 0.97370 0.01500
C 	C 	0.99210 0.15590 0.90560 0.09000
C 	C 	0.76570 0.66430 0.56290 0.14700
C 	C 	0.04570 0.75240 0.68500 -0.17300
C 	C 	0.85650 0.75700 0.85890 -0.12100
C 	C 	0.91530 0.87260 0.92710 -0.17600
C 	C 	0.48520 0.99480 0.34060 0.09900
C 	C 	0.86280 0.58320 0.59760 -0.14100
C 	C 	0.04670 0.24900 0.84720 0.13100
C 	C 	0.70340 0.68870 0.60560 0.05400
C 	C 	0.94550 0.16030 0.91300 -0.17200
C 	C 	0.63470 0.53077 0.91657 -0.16900
C 	C 	0.50200 0.04150 0.29850 -0.17200
C 	C 	0.64470 0.89300 0.03450 0.39700
C 	C 	0.67680 0.95630 0.66820 -0.13200
N 	N 	0.56610 0.09630 0.19430 -0.26100
N 	N 	0.09500 0.29420 0.80480 -0.21300
N 	N 	0.24600 0.60170 0.40350 -0.23500
N 	N 	0.32120 0.52660 0.81510 -0.24500
N 	N 	0.89980 0.80480 0.90100 -0.21300
N 	N 	0.76040 0.19430 0.70940 -0.26100
N 	N 	0.13630 0.81510 0.65830 -0.24500
N 	N 	0.64950 0.40350 0.99480 -0.23000
N 	N 	0.46980 0.70940 0.09630 -0.26100
N 	N 	0.80080 0.90100 0.29420 -0.21300
N 	N 	0.64430 0.99480 0.60170 -0.23000
N 	N 	0.79460 0.65830 0.52660 -0.24500
O 	O 	0.94960 0.60280 0.70640 -0.51800
O 	O 	0.79960 0.95030 0.93040 -0.47600
O 	O 	0.54300 0.81500 0.40200 -0.48900
O 	O 	0.88910 0.42470 0.66050 -0.53800
O 	O 	0.44480 0.80120 0.49890 -0.96600
O 	O 	0.77210 0.09680 0.90980 -0.52800
O 	O 	0.66370 0.81880 0.75780 -0.51200
O 	O 	0.94370 0.49890 0.69990 -0.96600
O 	O 	0.48810 0.87690 0.37870 -0.53800
O 	O 	0.85230 0.96390 0.96500 -0.56700
O 	O 	0.94500 0.40200 0.78300 -0.48900
O 	O 	0.84930 0.50260 0.77950 -0.56100
O 	O 	0.49550 0.90490 0.51260 -0.51200
O 	O 	0.51430 0.84370 0.54680 -0.54200
O 	O 	0.32630 0.77450 0.55800 -0.52700
O 	O 	0.34670 0.71790 0.50260 -0.56100
O 	O 	0.81730 0.96500 0.07110 -0.56900
O 	O 	0.56070 0.82270 0.46520 -0.54300
O 	O 	0.91350 0.53900 0.60620 -0.48400
O 	O 	0.67530 0.99340 0.09680 -0.52400
O 	O 	0.88840 0.07110 0.96390 -0.56900
O 	O 	0.64360 0.69990 0.80120 -0.96600
O 	O 	0.61120 0.74440 0.87690 -0.53700
O 	O 	0.68190 0.90980 0.99340 -0.52300
O 	O 	0.62880 0.77950 0.71790 -0.56100
O 	O 	0.65600 0.70640 0.69080 -0.51700
O 	O 	0.67060 0.60950 0.84370 -0.54200
O 	O 	0.59060 0.58250 0.90490 -0.51200
O 	O 	0.51970 0.60620 0.85480 -0.48400
O 	O 	0.00810 0.51260 0.58250 -0.51300
O 	O 	0.42000 0.72900 0.61010 -0.46700
O 	O 	0.76687 0.00000 -0.00000 -0.96700
O 	O 	0.84490 0.42340 0.81880 -0.51300
O 	O 	0.64920 0.89920 0.07370 -0.50900
O 	O 	0.34680 0.69080 0.60280 -0.51800
O 	O 	0.69100 0.66090 0.72900 -0.46700
O 	O 	0.06110 0.54680 0.60950 -0.54300
O 	O 	0.54960 0.66050 0.91480 -0.53800
O 	O 	0.72290 0.07370 0.02710 -0.51100
O 	O 	0.86680 0.37870 0.74440 -0.53700
O 	O 	0.73800 0.71210 0.82270 -0.54300
O 	O 	0.02590 0.46520 0.71210 -0.54300
O 	O 	0.37450 0.85480 0.53900 -0.48400
O 	O 	0.55180 0.66750 0.77450 -0.52700
O 	O 	0.75000 0.02710 0.89920 -0.51200
O 	O 	0.72800 0.78300 0.81500 -0.48900
O 	O 	0.03010 0.61010 0.66090 -0.46700
O 	O 	0.46440 0.91480 0.42470 -0.53800
O 	O 	0.73000 0.93040 0.11930 -0.47800
O 	O 	0.88430 0.55800 0.66750 -0.52700
O 	O 	0.42150 0.75780 0.42340 -0.51300
O 	O 	0.84930 0.11930 0.95030 -0.47700
Zn	Zn	0.25039 0.02506 0.04598 1.21000
Zn	Zn	0.05841 0.50515 0.36199 1.21400
Zn	Zn	0.29414 0.31557 0.21604 1.18000
Zn	Zn	0.22533 0.92896 0.02506 1.21100
Zn	Zn	0.37418 0.28829 0.25299 1.23000
Zn	Zn	0.42040 0.36199 0.13286 1.21400
Zn	Zn	0.97857 0.46839 0.31557 1.18000
Zn	Zn	0.55326 0.13286 0.50515 1.21400
Zn	Zn	0.17173 0.00000 -0.00000 1.22800
Zn	Zn	0.33613 0.24163 0.18938 1.21100
Zn	Zn	0.52551 0.18938 0.56899 1.21100
Zn	Zn	0.08589 0.45872 0.28829 1.23000
Zn	Zn	0.29637 0.04598 0.92896 1.21200
Zn	Zn	0.51018 0.21604 0.46839 1.18100
Zn	Zn	0.62717 0.25299 0.45872 1.23000
Zn	Zn	0.09450 0.56899 0.24163 1.21100
H 	H 	0.21870 0.62300 0.09560 0.04200
H 	H 	0.37010 0.62160 0.97330 0.13600
H 	H 	0.44770 0.17280 0.87740 0.00400
H 	H 	0.08180 0.78810 0.10740 0.03200
H 	H 	0.53770 0.01170 0.62690 0.02300
H 	H 	0.63420 0.32830 0.65640 0.07600
H 	H 	0.32010 0.29760 0.39450 0.02100
H 	H 	0.16460 0.62690 0.36140 0.02000
H 	H 	0.87100 0.16760 0.32680 0.13300
H 	H 	0.05060 0.68390 0.16640 0.04900
H 	H 	0.35500 0.16310 0.55510 0.02900
H 	H 	0.51020 0.93570 0.69670 0.08800
H 	H 	0.76030 0.10250 0.39160 0.09200
H 	H 	0.17450 0.40110 0.34770 0.03900
H 	H 	0.34340 0.97330 0.40510 0.13600
H 	H 	0.36670 0.14970 0.68390 0.04900
H 	H 	0.25080 0.81280 0.31090 0.13900
H 	H 	0.43800 0.87630 0.81280 0.13900
H 	H 	0.52220 0.34770 0.25120 0.03900
H 	H 	0.57450 0.36760 0.93570 0.08800
H 	H 	0.24850 0.36050 0.32180 0.03400
H 	H 	0.27490 0.94980 0.17280 0.00700
H 	H 	0.26410 0.13910 0.59890 0.07100
H 	H 	0.57380 0.46530 0.10900 0.01500
H 	H 	0.59570 0.28140 0.62300 0.04200
H 	H 	0.52720 0.24320 0.84610 0.11500
H 	H 	0.19190 0.28180 0.16310 0.02900
H 	H 	0.68280 0.10900 0.42570 0.01500
H 	H 	0.15190 0.39160 0.50590 0.09200
H 	H 	0.70340 0.50560 0.16760 0.13300
H 	H 	0.08800 0.07730 0.04590 0.01000
H 	H 	0.12500 0.26200 0.13910 0.07100
H 	H 	0.12350 0.06500 0.80260 0.09200
H 	H 	0.45280 0.04930 0.71730 0.05100
H 	H 	0.17010 0.71730 0.23340 0.04800
H 	H 	0.86300 0.59890 0.26200 0.07200
H 	H 	0.71460 0.39450 0.30790 0.02100
H 	H 	0.02250 0.30790 0.29760 0.02100
H 	H 	0.72770 0.33210 0.50270 0.06300
H 	H 	0.37680 0.16640 0.01110 0.02700
H 	H 	0.30590 0.01530 0.32830 0.07500
H 	H 	0.38790 0.01110 0.82250 0.02800
H 	H 	0.91010 0.55510 0.28180 0.02900
H 	H 	0.29950 0.45700 0.14260 0.02400
H 	H 	0.43020 0.49590 0.01500 0.00700
H 	H 	0.77340 0.25120 0.40110 0.03900
H 	H 	0.84250 0.40040 0.45700 0.02500
H 	H 	0.92610 0.80260 0.13240 0.09300
H 	H 	0.27450 0.30350 0.46640 0.08700
H 	H 	0.42620 0.56920 0.96650 0.11100
H 	H 	0.21700 0.16640 0.14970 0.04900
H 	H 	0.87300 0.70110 0.21180 0.12500
H 	H 	0.44210 0.14260 0.40040 0.02400
H 	H 	0.21040 0.82250 0.16640 0.03500
H 	H 	0.01070 0.87680 0.07730 0.01100
H 	H 	0.23040 0.50270 0.16520 0.06300
H 	H 	0.05850 0.13240 0.06500 0.09200
H 	H 	0.13390 0.04590 0.87680 0.01100
H 	H 	0.10850 0.42570 0.46530 0.01600
H 	H 	0.44520 0.01500 0.48910 0.00700
H 	H 	0.17190 0.08710 0.70110 0.12500
H 	H 	0.85700 0.46430 0.56920 0.10500
H 	H 	0.74850 0.40510 0.62160 0.13200
H 	H 	0.39560 0.16520 0.33210 0.06300
H 	H 	0.08480 0.21180 0.08710 0.12500
H 	H 	0.29370 0.10450 0.78810 0.03200
H 	H 	0.56170 0.31090 0.87630 0.13900
H 	H 	0.37330 0.84610 0.91070 0.11500
H 	H 	0.93430 0.48910 0.49590 0.01000
H 	H 	0.40350 0.23340 0.04930 0.05100
H 	H 	0.32510 0.87740 0.94980 0.00500
H 	H 	0.88800 0.31770 0.36050 0.03400
H 	H 	0.39270 0.96650 0.46430 0.11100
H 	H 	0.20690 0.69670 0.36760 0.09100
H 	H 	0.65780 0.50590 0.10250 0.09200
H 	H 	0.52600 0.36140 0.01170 0.02300
H 	H 	0.28400 0.91070 0.24320 0.11300
H 	H 	0.97100 0.23010 0.30350 0.08700
H 	H 	0.57030 0.32180 0.31770 0.03400
H 	H 	0.29060 0.65640 0.01530 0.07500
H 	H 	0.19780 0.32680 0.50560 0.13300
H 	H 	0.74090 0.46640 0.23010 0.08700
H 	H 	0.31430 0.09560 0.28140 0.04200
H 	H 	0.18920 0.10740 0.10450 0.03100
C 	C 	0.65230 0.30040 0.55650 -0.08400
C 	C 	0.99990 0.74660 0.14540 -0.05900
C 	C 	0.18920 0.37590 0.45120 0.13400
C 	C 	0.40080 0.07820 0.39840 -0.07500
C 	C 	0.17900 0.71380 0.25990 0.00400
C 	C 	0.35190 0.14310 0.30040 -0.08400
C 	C 	0.32080 0.96550 0.92750 0.41100
C 	C 	0.42520 0.17490 0.57590 0.37500
C 	C 	0.43410 0.03090 0.46630 0.11200
C 	C 	0.71650 0.13620 0.41390 0.07900
C 	C 	0.62640 0.31120 0.37340 0.34200
C 	C 	0.31520 0.31540 0.31120 0.34200
C 	C 	0.24430 0.83930 0.25160 0.19500
C 	C 	0.05450 0.83970 0.08700 -0.17200
C 	C 	0.90040 0.46630 0.50280 0.10500
C 	C 	0.63070 0.47420 0.13230 -0.17600
C 	C 	0.21540 0.75660 0.29910 0.12000
C 	C 	0.51480 0.00520 0.65940 0.07400
C 	C 	0.48150 0.11480 0.46410 0.48000
C 	C 	0.32320 0.04370 0.33180 -0.13300
C 	C 	0.58030 0.44990 0.13620 0.07900
C 	C 	0.69100 0.39440 0.29430 0.05400
C 	C 	0.99980 0.37340 0.31540 0.34200
C 	C 	0.24350 0.89450 0.15800 -0.15100
C 	C 	0.26260 0.91400 0.18650 0.10900
C 	C 	0.21480 0.07330 0.83970 -0.17200
C 	C 	0.76300 0.13230 0.39350 -0.17600
C 	C 	0.62020 0.39380 0.25350 -0.04700
C 	C 	0.13720 0.41680 0.40240 -0.14100
C 	C 	0.34640 0.04070 0.36660 0.09700
C 	C 	0.35530 0.10700 0.96550 0.41200
C 	C 	0.49800 0.95850 0.70150 -0.14900
C 	C 	0.16380 0.05860 0.05180 0.46600
C 	C 	0.23430 0.33570 0.43710 0.14600
C 	C 	0.40150 0.15800 0.94750 -0.16000
C 	C 	0.16200 0.66010 0.29770 -0.13800
C 	C 	0.32260 0.52340 0.07820 -0.07500
C 	C 	0.22640 0.35270 0.39380 -0.04700
C 	C 	0.17000 0.39920 0.37940 0.01700
C 	C 	0.74200 0.36460 0.54390 -0.00500
C 	C 	0.46520 0.02630 0.71380 -0.00600
C 	C 	0.34860 0.89950 0.91400 0.11500
C 	C 	0.38596 0.02546 0.41748 0.15800
C 	C 	0.12760 0.61340 0.29780 0.46300
C 	C 	0.20760 0.76190 0.25820 -0.03100
C 	C 	0.96030 0.32050 0.32850 -0.11400
C 	C 	0.18350 0.25460 0.15570 0.02200
C 	C 	0.21560 0.05180 0.88960 0.46500
C 	C 	0.92890 0.58970 0.25460 0.02300
C 	C 	0.05060 0.79100 0.11240 0.04400
C 	C 	0.23470 0.60190 0.09460 0.02900
C 	C 	0.32930 0.09460 0.30350 0.02900
C 	C 	0.84550 0.41329 0.47949 0.05100
C 	C 	0.87370 0.25350 0.35270 -0.04700
C 	C 	0.28590 0.54390 0.09150 -0.00500
C 	C 	0.98470 0.69300 0.17370 -0.01200
C 	C 	0.08470 0.12740 0.07290 -0.17800
C 	C 	0.30570 0.59270 0.04070 0.09700
C 	C 	0.95330 0.75100 0.15280 0.13000
C 	C 	0.67180 0.18560 0.44260 0.41500
C 	C 	0.49590 0.25160 0.90910 0.20000
C 	C 	0.36670 0.42110 0.11480 0.48000
C 	C 	0.14150 0.08700 0.07330 -0.17300
C 	C 	0.36990 0.15870 0.61520 -0.10500
C 	C 	0.51420 0.08880 0.61340 0.46000
C 	C 	0.40084 0.54674 0.00182 -0.20900
C 	C 	0.45880 0.94430 0.75660 0.11500
C 	C 	0.11440 0.44260 0.37180 0.41500
C 	C 	0.44570 0.97990 0.76190 -0.02000
C 	C 	0.44910 0.18650 0.89950 0.11500
C 	C 	0.51450 0.29910 0.94430 0.11500
C 	C 	0.22330 0.84010 0.18220 0.04000
C 	C 	0.10230 0.09440 0.06150 0.09100
C 	C 	0.77080 0.22140 0.39920 0.01700
C 	C 	0.40500 0.90910 0.83930 0.20000
C 	C 	0.36530 0.46923 0.08343 -0.17600
C 	C 	0.72040 0.18080 0.41680 -0.14100
C 	C 	0.16380 0.06150 0.84410 0.09000
C 	C 	0.13100 0.20250 0.13000 0.07800
C 	C 	0.63280 0.30350 0.60190 0.02900
C 	C 	0.20230 0.09620 0.75100 0.13000
C 	C 	0.36050 0.55706 0.02546 0.15800
C 	C 	0.00110 0.57590 0.24920 0.37500
C 	C 	0.89860 0.22720 0.33570 0.14600
C 	C 	0.54940 0.37940 0.22140 0.01700
C 	C 	0.92850 0.66750 0.20250 0.07800
C 	C 	0.43221 0.10722 0.41329 0.05400
C 	C 	0.37530 0.87800 0.89190 -0.24300
C 	C 	0.14350 0.24300 0.14110 -0.12200
C 	C 	0.65500 0.33180 0.62450 -0.13200
C 	C 	0.25030 0.24920 0.17490 0.37500
C 	C 	0.26720 0.89190 0.23010 -0.23800
C 	C 	0.40320 0.50280 0.03090 0.11200
C 	C 	0.95730 0.79970 0.12740 -0.17700
C 	C 	0.50190 0.04220 0.66010 -0.13100
C 	C 	0.34620 0.14760 0.66680 -0.00700
C 	C 	0.80344 0.41748 0.55706 0.15400
C 	C 	0.28460 0.14110 0.61590 -0.12100
C 	C 	0.98510 0.61520 0.22610 -0.10500
C 	C 	0.24830 0.92750 0.10700 0.40300
C 	C 	0.16300 0.11240 0.09660 0.04400
C 	C 	0.48620 0.37180 0.18560 0.41500
C 	C 	0.94560 0.46410 0.42110 0.47800
C 	C 	0.98530 0.29430 0.31130 0.05400
C 	C 	0.81330 0.17290 0.37590 0.13400
C 	C 	0.25330 0.10800 0.74660 -0.05900
C 	C 	0.35180 0.19240 0.27110 0.44500
C 	C 	0.15940 0.53650 0.19240 0.44500
C 	C 	0.28880 0.32850 0.35100 -0.11400
C 	C 	0.10520 0.88960 0.05860 0.46500
C 	C 	0.38320 0.97770 0.84010 0.05600
C 	C 	0.70670 0.43740 0.24760 -0.17300
C 	C 	0.85410 0.45144 0.54674 -0.19700
C 	C 	0.10610 0.15280 0.09620 0.13000
C 	C 	0.79920 0.39840 0.52340 -0.07200
C 	C 	0.90050 0.61590 0.24300 -0.12200
C 	C 	0.62290 0.27110 0.53650 0.44500
C 	C 	0.27950 0.62450 0.04370 -0.13300
C 	C 	0.37600 0.13480 0.33260 -0.02600
C 	C 	0.43890 0.25990 0.02630 -0.00700
C 	C 	0.15840 0.17370 0.13330 -0.01200
C 	C 	0.33920 0.15570 0.58970 0.02200
C 	C 	0.59990 0.40390 0.21740 -0.04200
C 	C 	0.34900 0.94750 0.89450 -0.15800
C 	C 	0.50960 0.33540 0.00520 0.07400
C 	C 	0.53960 0.40240 0.18080 -0.14100
C 	C 	0.19860 0.18560 0.14760 -0.00700
C 	C 	0.70860 0.33260 0.53260 -0.02600
C 	C 	0.26930 0.31500 0.43740 -0.17300
C 	C 	0.40820 0.96150 0.81370 -0.07500
C 	C 	0.24120 0.53260 0.13480 -0.02600
C 	C 	0.00790 0.84410 0.09440 0.09000
C 	C 	0.67140 0.43710 0.22720 0.14600
C 	C 	0.13040 0.41390 0.44990 0.07900
C 	C 	0.37740 0.09150 0.36460 -0.00500
C 	C 	0.40550 0.18220 0.97770 0.05700
C 	C 	0.40266 0.00182 0.45144 -0.20900
C 	C 	0.25380 0.34920 0.35070 0.00800
C 	C 	0.53950 0.34000 0.95850 -0.14900
C 	C 	0.89607 0.44734 0.46923 -0.17300
C 	C 	0.95430 0.24760 0.31500 -0.17300
C 	C 	0.21120 0.22610 0.15870 -0.10600
C 	C 	0.42540 0.29780 0.08880 0.46000
C 	C 	0.64040 0.45120 0.17290 0.13400
C 	C 	0.15760 0.07290 0.79970 -0.17700
C 	C 	0.22190 0.81370 0.22480 -0.06600
C 	C 	0.44670 0.22480 0.96150 -0.07600
C 	C 	0.29660 0.31130 0.39440 0.05400
C 	C 	0.25960 0.09660 0.79100 0.04400
C 	C 	0.14530 0.14540 0.10800 -0.06000
C 	C 	0.44873 0.08343 0.44734 -0.17600
C 	C 	0.60450 0.35070 0.30010 0.00800
C 	C 	0.19950 0.70150 0.34000 -0.16000
C 	C 	0.32499 0.47949 0.10722 0.05400
C 	C 	0.49730 0.23010 0.87800 -0.24400
C 	C 	0.19600 0.37870 0.40390 -0.04200
C 	C 	0.81730 0.21740 0.37870 -0.04200
C 	C 	0.15650 0.39350 0.47420 -0.17600
C 	C 	0.46580 0.25820 0.97990 -0.01900
C 	C 	0.20880 0.55650 0.14310 -0.08300
C 	C 	0.71300 0.36660 0.59270 0.09800
C 	C 	0.90460 0.30010 0.34920 0.00800
C 	C 	0.45970 0.29770 0.04220 -0.13100
C 	C 	0.63980 0.35100 0.32050 -0.11400
C 	C 	0.01300 0.66680 0.18560 -0.00700
C 	C 	0.26100 0.13000 0.66750 0.07800
C 	C 	0.29170 0.13330 0.69300 -0.01200
C 	C 	0.17420 0.65940 0.33540 0.08700
N 	N 	0.75400 0.39830 0.59650 -0.23500
N 	N 	0.23960 0.80570 0.29060 -0.26100
N 	N 	0.86370 0.18490 0.34170 -0.24500
N 	N 	0.67880 0.47340 0.18490 -0.24500
N 	N 	0.35050 0.59650 0.00520 -0.23900
N 	N 	0.53020 0.29060 0.90370 -0.26100
N 	N 	0.19920 0.09900 0.70580 -0.21300
N 	N 	0.10020 0.19520 0.09900 -0.21300
N 	N 	0.90500 0.70580 0.19520 -0.21300
N 	N 	0.43390 0.90370 0.80570 -0.26100
N 	N 	0.35570 0.00520 0.39830 -0.23900
N 	N 	0.20540 0.34170 0.47340 -0.24500
O 	O 	0.14770 0.03610 0.03500 -0.57100
O 	O 	0.96990 0.38990 0.33910 -0.46700
O 	O 	0.35640 0.30010 0.19880 -0.96600
O 	O 	0.22790 0.90320 0.09020 -0.52800
O 	O 	0.32470 0.00660 0.90320 -0.53200
O 	O 	0.43930 0.17730 0.53480 -0.54300
O 	O 	0.05500 0.59800 0.21700 -0.49000
O 	O 	0.53560 0.08520 0.57530 -0.53700
O 	O 	0.23313 0.00000 -0.00000 -0.96600
O 	O 	0.40940 0.41750 0.09510 -0.51400
O 	O 	0.37120 0.22050 0.28210 -0.56100
O 	O 	0.34400 0.29360 0.30920 -0.51800
O 	O 	0.50450 0.09510 0.48740 -0.51400
O 	O 	0.35080 0.10080 0.92630 -0.51200
O 	O 	0.25000 0.97290 0.10080 -0.50900
O 	O 	0.45040 0.33950 0.08520 -0.53700
O 	O 	0.27200 0.21700 0.18500 -0.49000
O 	O 	0.58000 0.27100 0.38990 -0.46700
O 	O 	0.97410 0.53480 0.28790 -0.54300
O 	O 	0.57850 0.24220 0.57660 -0.51300
O 	O 	0.45700 0.18500 0.59800 -0.49000
O 	O 	0.32940 0.39050 0.15630 -0.54300
O 	O 	0.05040 0.39720 0.29360 -0.51800
O 	O 	0.38880 0.25560 0.12310 -0.53600
O 	O 	0.30900 0.33910 0.27100 -0.46700
O 	O 	0.51190 0.12310 0.62130 -0.53600
O 	O 	0.11090 0.57530 0.33950 -0.53800
O 	O 	0.08650 0.46100 0.39380 -0.48400
O 	O 	0.18270 0.03500 0.92890 -0.56800
O 	O 	0.31810 0.09020 0.00660 -0.53400
O 	O 	0.67370 0.22550 0.44200 -0.52700
O 	O 	0.05630 0.50110 0.30010 -0.96600
O 	O 	0.65330 0.28210 0.49740 -0.56100
O 	O 	0.48570 0.15630 0.45320 -0.54300
O 	O 	0.33630 0.18120 0.24220 -0.51300
O 	O 	0.65320 0.30920 0.39720 -0.51800
O 	O 	0.44820 0.33250 0.22550 -0.52700
O 	O 	0.93890 0.45320 0.39050 -0.54300
O 	O 	0.26200 0.28790 0.17730 -0.54300
O 	O 	0.27000 0.06960 0.88070 -0.47700
O 	O 	0.55520 0.19880 0.50110 -0.96600
O 	O 	0.13320 0.62130 0.25560 -0.53700
O 	O 	0.48030 0.39380 0.14520 -0.48400
O 	O 	0.20040 0.04970 0.06960 -0.47900
O 	O 	0.15070 0.88070 0.04970 -0.47800
O 	O 	0.11160 0.92890 0.03610 -0.56900
O 	O 	0.15510 0.57660 0.18120 -0.51300
O 	O 	0.15070 0.49740 0.22050 -0.56100
O 	O 	0.27710 0.92630 0.97290 -0.50900
O 	O 	0.11570 0.44200 0.33250 -0.52700
O 	O 	0.62550 0.14520 0.46100 -0.48400
O 	O 	0.99190 0.48740 0.41750 -0.51300
