data_crystal

_cell_length_a 32.05640
_cell_length_b 32.05640
_cell_length_c 32.05640
_cell_angle_alpha 109.47100
_cell_angle_beta  109.47100
_cell_angle_gamma 109.47100

_symmetry_space_group_name_	'P 1'
_symmetry_space_group_name_H-M	'P 1'

loop_
_symmetry_equiv_pos_as_xyz
  x,y,z

loop_
_atom_site_label
_atom_site_type_symbol
_atom_site_fract_x
_atom_site_fract_y
_atom_site_fract_z
_atom_site_charge
Zn	Zn	0.38484 0.00000 -0.00000 1.18400
Zn	Zn	0.50000 0.00000 -0.00000 1.23100
Zn	Zn	0.50000 0.11516 0.50000 1.20200
Zn	Zn	0.50000 0.88484 0.50000 1.20300
Zn	Zn	0.00000 0.50000 0.50000 1.24000
Zn	Zn	-0.00000 0.50000 -0.00000 1.23200
Zn	Zn	0.61516 0.61516 0.11516 1.20200
Zn	Zn	0.50000 0.38484 0.50000 1.20200
Zn	Zn	0.50000 0.00000 0.50000 1.24000
Zn	Zn	0.00000 0.50000 0.88484 1.19100
Zn	Zn	0.88484 0.88484 0.38484 1.20300
Zn	Zn	0.50000 0.61516 0.50000 1.20200
Zn	Zn	-0.00000 0.50000 0.61516 1.19000
Zn	Zn	0.61516 0.00000 -0.00000 1.18400
Zn	Zn	-0.00000 0.50000 0.11516 1.19400
Zn	Zn	0.11516 0.00000 -0.00000 1.18200
Zn	Zn	-0.00000 0.00000 -0.00000 1.22200
Zn	Zn	0.50000 0.50000 0.50000 1.24900
Zn	Zn	0.11516 0.11516 0.61516 1.20000
Zn	Zn	0.00000 0.00000 0.50000 1.23000
Zn	Zn	0.38484 0.38484 0.88484 1.20200
Zn	Zn	0.00000 0.50000 0.38484 1.19400
Zn	Zn	0.50000 0.50000 -0.00000 1.23900
Zn	Zn	0.88484 0.00000 -0.00000 1.18400
B 	B 	0.43680 0.71840 0.96840 1.05200
B 	B 	0.03160 0.25000 0.96840 1.05200
B 	B 	0.46840 0.43680 0.21840 1.05400
B 	B 	0.25000 0.78160 0.21840 1.05200
B 	B 	0.53160 0.96840 0.25000 1.05400
B 	B 	0.71840 0.25000 0.28160 1.05300
B 	B 	0.25000 0.46840 0.53160 1.05300
B 	B 	0.28160 0.75000 0.71840 1.05000
B 	B 	0.78160 0.06320 0.53160 1.08500
B 	B 	0.53160 0.56320 0.78160 1.04900
B 	B 	0.93680 0.96840 0.71840 1.01800
B 	B 	0.75000 0.21840 0.78160 1.05000
B 	B 	0.71840 0.46840 0.93680 1.01600
B 	B 	0.03160 0.78160 0.56320 1.04700
B 	B 	0.28160 0.53160 0.06320 1.08700
B 	B 	0.06320 0.03160 0.28160 1.08400
B 	B 	0.96840 0.75000 0.03160 1.05200
B 	B 	0.21840 0.93680 0.46840 1.01700
B 	B 	0.75000 0.53160 0.46840 1.05000
B 	B 	0.46840 0.03160 0.75000 1.05000
B 	B 	0.21840 0.28160 0.25000 1.05500
B 	B 	0.56320 0.28160 0.03160 1.05000
B 	B 	0.78160 0.71840 0.75000 1.04900
B 	B 	0.96840 0.21840 0.43680 1.05600
H 	H 	0.38480 0.63480 0.26960 0.00600
H 	H 	0.59620 0.69600 0.98940 0.18200
H 	H 	0.21410 0.43600 0.23270 0.08600
H 	H 	0.03990 0.25630 0.20780 0.08100
H 	H 	0.13480 0.88480 0.76960 0.02900
H 	H 	0.36530 0.39750 0.25400 0.21000
H 	H 	0.56670 0.40400 0.95470 0.16000
H 	H 	0.74690 0.60690 0.51820 0.25700
H 	H 	0.06100 0.65260 0.64700 0.15400
H 	H 	0.18420 0.89680 0.51560 0.19500
H 	H 	0.70750 0.95700 0.42430 0.21000
H 	H 	0.72870 0.08870 0.48180 0.25400
H 	H 	0.26650 0.74360 0.10550 0.25700
H 	H 	0.10690 0.86000 0.58870 0.24200
H 	H 	0.28360 0.53990 0.83210 0.08300
H 	H 	0.33730 0.93330 0.38800 0.19500
H 	H 	0.73540 0.36930 0.29830 0.19800
H 	H 	0.44930 0.54530 0.61200 0.16900
H 	H 	0.29990 0.44160 0.38650 0.15000
H 	H 	0.96730 0.25050 0.54300 0.21600
H 	H 	0.93330 0.88800 0.83730 0.18600
H 	H 	0.20010 0.61350 0.55840 0.14900
H 	H 	0.83210 0.03990 0.28360 0.07200
H 	H 	0.83900 0.73350 0.97710 0.19500
H 	H 	0.98960 0.91870 0.70870 0.22200
H 	H 	0.50560 0.41400 0.85300 0.16400
H 	H 	0.29670 0.01860 0.73270 0.09000
H 	H 	0.26910 0.66320 0.19910 0.21800
H 	H 	0.61130 0.14350 0.74600 0.21200
H 	H 	0.13810 0.97710 0.24360 0.17400
H 	H 	0.14170 0.05510 0.44160 0.15100
H 	H 	0.78410 0.49190 0.87040 0.27200
H 	H 	0.29250 0.24950 0.21680 0.22300
H 	H 	0.28090 0.29130 0.21000 0.19700
H 	H 	0.78090 0.21000 0.29130 0.19600
H 	H 	0.90840 0.34740 0.99440 0.21700
H 	H 	0.33210 0.04850 0.79220 0.10100
H 	H 	0.37040 0.78410 0.99190 0.37800
H 	H 	0.55280 0.40460 0.38000 0.14900
H 	H 	0.22190 0.01860 0.28590 0.08900
H 	H 	0.29220 0.96010 0.24370 0.10100
H 	H 	0.44720 0.59540 0.62000 0.15000
H 	H 	0.85650 0.10250 0.46780 0.22300
H 	H 	0.29130 0.71000 0.78090 0.19600
H 	H 	0.98960 0.07090 0.78090 0.22700
H 	H 	0.80700 0.04170 0.23350 0.07800
H 	H 	0.26960 0.13480 0.38480 0.02100
H 	H 	0.47710 0.83900 0.23350 0.27200
H 	H 	0.76460 0.70170 0.63070 0.19900
H 	H 	0.00560 0.15260 0.09160 0.10700
H 	H 	0.89320 0.29340 0.98940 0.20000
H 	H 	0.85650 0.75400 0.88870 0.21100
H 	H 	0.96010 0.74370 0.79220 0.10400
H 	H 	0.10680 0.40020 0.59620 0.13000
H 	H 	0.70330 0.72190 0.93600 0.10100
H 	H 	0.09620 0.98940 0.69600 0.18900
H 	H 	0.92750 0.89300 0.51050 0.16900
H 	H 	0.92900 0.13070 0.86610 0.22800
H 	H 	0.73270 0.21410 0.93600 0.09900
H 	H 	0.73350 0.92650 0.69180 0.09700
H 	H 	0.93600 0.22190 0.70330 0.09900
H 	H 	0.29000 0.71910 0.20870 0.19900
H 	H 	0.87040 0.87850 0.58630 0.28500
H 	H 	0.06290 0.13390 0.26460 0.20700
H 	H 	0.38250 0.39300 0.46550 0.17700
H 	H 	0.51820 0.41130 0.27130 0.25900
H 	H 	0.38120 0.98440 0.66860 0.24500
H 	H 	0.75630 0.53990 0.70780 0.09500
H 	H 	0.90020 0.60680 0.09620 0.16300
H 	H 	0.43710 0.73540 0.86610 0.20200
H 	H 	0.73270 0.51860 0.29670 0.08900
H 	H 	0.00560 0.85300 0.41400 0.12900
H 	H 	0.70170 0.13070 0.26460 0.19600
H 	H 	0.20010 0.58660 0.14170 0.14800
H 	H 	0.16320 0.39410 0.96410 0.20400
H 	H 	0.12000 0.44720 0.09540 0.17300
H 	H 	0.21910 0.42910 0.01040 0.15800
H 	H 	0.08870 0.98180 0.22870 0.16900
H 	H 	0.28410 0.41370 0.29220 0.27300
H 	H 	0.29990 0.85830 0.41340 0.15200
H 	H 	0.72190 0.28590 0.01860 0.09200
H 	H 	0.30820 0.73470 0.54170 0.10100
H 	H 	0.48180 0.58870 0.72870 0.25500
H 	H 	0.22870 0.74690 0.64000 0.25600
H 	H 	0.02290 0.25640 0.36190 0.34400
H 	H 	0.89680 0.01560 0.68420 0.15800
H 	H 	0.64820 0.05280 0.17280 0.12900
H 	H 	0.10250 0.13470 0.24600 0.22100
H 	H 	0.90460 0.05280 0.88000 0.10900
H 	H 	0.71680 0.42430 0.46730 0.22500
H 	H 	0.03990 0.78360 0.33210 0.08400
H 	H 	0.66860 0.48440 0.38120 0.20800
H 	H 	0.46410 0.16320 0.89410 0.22200
H 	H 	0.30090 0.73090 0.83680 0.21500
H 	H 	0.04850 0.29220 0.83210 0.09200
H 	H 	0.64350 0.11130 0.24600 0.20800
H 	H 	0.98950 0.07250 0.60700 0.22300
H 	H 	0.79220 0.28410 0.91370 0.27100
H 	H 	0.73350 0.80700 0.54170 0.09500
H 	H 	0.79830 0.73540 0.86930 0.20000
H 	H 	0.73090 0.39410 0.43000 0.21700
H 	H 	0.91130 0.89310 0.64000 0.27100
H 	H 	0.40460 0.88000 0.05280 0.12200
H 	H 	0.09160 0.43900 0.58600 0.14300
H 	H 	0.49190 0.12150 0.70780 0.25800
H 	H 	0.70330 0.98140 0.26730 0.08500
H 	H 	0.92910 0.71910 0.51040 0.20900
H 	H 	0.48960 0.70870 0.91870 0.18300
H 	H 	0.75630 0.21640 0.54850 0.09300
H 	H 	0.30400 0.79340 0.90020 0.15500
H 	H 	0.77130 0.51820 0.91130 0.25900
H 	H 	0.25630 0.54850 0.21640 0.09100
H 	H 	0.33140 0.51560 0.61880 0.20700
H 	H 	0.31580 0.48440 0.10320 0.22100
H 	H 	0.36930 0.57100 0.63390 0.19900
H 	H 	0.75310 0.27130 0.86000 0.25700
H 	H 	0.98180 0.25310 0.89310 0.18900
H 	H 	0.06400 0.28590 0.26730 0.07600
H 	H 	0.59600 0.05070 0.16270 0.15000
H 	H 	0.14000 0.22870 0.24690 0.25800
H 	H 	0.64170 0.20010 0.08660 0.14500
H 	H 	0.89320 0.59980 0.40380 0.16800
H 	H 	0.98440 0.16860 0.88120 0.24700
H 	H 	0.04300 0.07570 0.79250 0.23100
H 	H 	0.90460 0.85180 0.52460 0.13700
H 	H 	0.01820 0.27130 0.41130 0.34200
H 	H 	0.78590 0.22190 0.51860 0.08900
H 	H 	0.66270 0.06670 0.61200 0.14300
H 	H 	0.70780 0.03990 0.75630 0.08500
H 	H 	0.11750 0.58300 0.01050 0.14300
H 	H 	0.16100 0.26650 0.02290 0.32900
H 	H 	0.42650 0.19300 0.73470 0.10800
H 	H 	0.14700 0.08600 0.49440 0.16900
H 	H 	0.46010 0.79220 0.74370 0.09400
H 	H 	0.39680 0.68420 0.01560 0.17000
H 	H 	0.36000 0.75310 0.77130 0.25600
H 	H 	0.30820 0.57350 0.26650 0.09900
H 	H 	0.42910 0.91870 0.21000 0.18100
H 	H 	0.07000 0.80090 0.46410 0.23300
H 	H 	0.88480 0.61520 0.75000 0.01300
H 	H 	0.42900 0.86610 0.13070 0.20000
H 	H 	0.60690 0.01820 0.24690 0.34200
H 	H 	0.91870 0.20870 0.48960 0.18200
H 	H 	0.53220 0.13470 0.88870 0.20900
H 	H 	0.43900 0.08600 0.59160 0.17100
H 	H 	0.61880 0.60320 0.78740 0.20800
H 	H 	0.40840 0.99440 0.34740 0.20000
H 	H 	0.73350 0.25640 0.89450 0.26100
H 	H 	0.57350 0.76650 0.80820 0.10700
H 	H 	0.39450 0.66100 0.13810 0.26000
H 	H 	0.05840 0.20010 0.11350 0.10400
H 	H 	0.79000 0.58130 0.57090 0.19900
H 	H 	0.21260 0.31580 0.33140 0.20700
H 	H 	0.23350 0.33900 0.47710 0.25900
H 	H 	0.89750 0.03220 0.64350 0.16400
H 	H 	0.53450 0.10700 0.61750 0.17300
H 	H 	0.55510 0.64170 0.94160 0.17900
H 	H 	0.55840 0.11350 0.20010 0.13200
H 	H 	0.10320 0.11880 0.28740 0.21900
H 	H 	0.60690 0.58870 0.86000 0.25500
H 	H 	0.59980 0.69600 0.70660 0.15000
H 	H 	0.73540 0.36610 0.93710 0.18700
H 	H 	0.54530 0.43330 0.09600 0.16400
H 	H 	0.09980 0.70660 0.69600 0.14400
H 	H 	0.37040 0.58630 0.87850 0.28600
H 	H 	0.92750 0.03450 0.91700 0.14100
H 	H 	0.76960 0.38480 0.13480 0.02500
H 	H 	0.25400 0.89750 0.36530 0.19500
H 	H 	0.61200 0.04530 0.44930 0.17800
H 	H 	0.26650 0.52290 0.66100 0.26000
H 	H 	0.58630 0.37850 0.87040 0.27200
H 	H 	0.39320 0.40380 0.59980 0.14800
H 	H 	0.64350 0.53220 0.89750 0.19600
H 	H 	0.99190 0.70780 0.12150 0.36500
H 	H 	0.60250 0.35650 0.96780 0.24400
H 	H 	0.34740 0.49440 0.40840 0.16300
H 	H 	0.69180 0.42650 0.73350 0.10200
H 	H 	0.70870 0.41870 0.98960 0.23900
H 	H 	0.42430 0.96730 0.21680 0.21400
H 	H 	0.09600 0.93330 0.54530 0.19000
H 	H 	0.28320 0.70750 0.25050 0.22700
H 	H 	0.85300 0.93900 0.84740 0.17500
H 	H 	0.11750 0.53450 0.60700 0.17600
H 	H 	0.71910 0.01040 0.42910 0.15700
H 	H 	0.06100 0.40840 0.91400 0.14600
H 	H 	0.51050 0.11750 0.08300 0.18200
H 	H 	0.58630 0.20780 0.21590 0.27200
H 	H 	0.69600 0.48940 0.09620 0.15700
H 	H 	0.40460 0.52460 0.85180 0.15100
H 	H 	0.16320 0.76910 0.69910 0.22000
H 	H 	0.38870 0.53220 0.63470 0.21000
H 	H 	0.44720 0.85180 0.32720 0.15200
H 	H 	0.86930 0.63390 0.57100 0.20100
H 	H 	0.33210 0.28360 0.03990 0.08000
H 	H 	0.05280 0.38000 0.40460 0.13000
H 	H 	0.22870 0.48180 0.08870 0.25500
H 	H 	0.51820 0.10690 0.74690 0.24400
H 	H 	0.28320 0.57570 0.53270 0.22600
H 	H 	0.86000 0.77130 0.75310 0.25600
H 	H 	0.23540 0.93710 0.36610 0.18700
H 	H 	0.65260 0.50560 0.59160 0.16300
H 	H 	0.59160 0.00560 0.65260 0.12700
H 	H 	0.88000 0.32720 0.47540 0.14100
H 	H 	0.86190 0.02290 0.75640 0.33600
H 	H 	0.93900 0.34740 0.35300 0.17200
H 	H 	0.05070 0.66270 0.09600 0.14700
H 	H 	0.16860 0.38120 0.48440 0.20700
H 	H 	0.46550 0.89300 0.38250 0.18200
H 	H 	0.75000 0.11520 0.88480 0.00800
H 	H 	0.74360 0.13810 0.47710 0.25800
H 	H 	0.85180 0.02460 0.40460 0.12400
H 	H 	0.93710 0.07100 0.70170 0.16000
H 	H 	0.94930 0.33730 0.90400 0.19100
H 	H 	0.39410 0.46410 0.66320 0.21700
H 	H 	0.05280 0.67280 0.14820 0.12900
H 	H 	0.55280 0.14820 0.67280 0.14700
H 	H 	0.23270 0.93600 0.21410 0.09800
H 	H 	0.72870 0.64000 0.74690 0.25500
H 	H 	0.46780 0.86530 0.11130 0.21200
H 	H 	0.29340 0.48940 0.39320 0.14900
H 	H 	0.41130 0.77130 0.01820 0.33600
H 	H 	0.91340 0.61350 0.05510 0.15700
H 	H 	0.88800 0.33730 0.43330 0.16000
H 	H 	0.61350 0.55510 0.41340 0.15000
H 	H 	0.58300 0.51050 0.61750 0.17700
H 	H 	0.25000 0.36520 0.63480 0.00600
H 	H 	0.70660 0.51060 0.60680 0.14900
H 	H 	0.11200 0.44930 0.04530 0.18600
H 	H 	0.40380 0.09980 0.89320 0.16200
H 	H 	0.08300 0.46550 0.07250 0.19600
H 	H 	0.45150 0.16790 0.70780 0.10100
H 	H 	0.36190 0.75640 0.02290 0.33700
H 	H 	0.86000 0.08870 0.60690 0.25400
H 	H 	0.01060 0.80400 0.40380 0.11700
H 	H 	0.36610 0.92900 0.63070 0.22700
H 	H 	0.43330 0.59600 0.04530 0.17700
H 	H 	0.43600 0.70330 0.22190 0.08700
H 	H 	0.41340 0.35830 0.29990 0.15000
H 	H 	0.65260 0.14700 0.56100 0.16100
H 	H 	0.96780 0.85650 0.60250 0.24200
H 	H 	0.28590 0.51860 0.22190 0.08700
H 	H 	0.76530 0.57350 0.30700 0.10200
H 	H 	0.20750 0.42430 0.95700 0.21000
H 	H 	0.44160 0.55510 0.14170 0.14900
H 	H 	0.82720 0.38000 0.97540 0.17900
H 	H 	0.13470 0.74600 0.60250 0.20700
H 	H 	0.24370 0.78360 0.45150 0.09200
H 	H 	0.91370 0.78410 0.79220 0.27000
H 	H 	0.76910 0.19910 0.66320 0.21800
H 	H 	0.70010 0.14170 0.58660 0.14900
H 	H 	0.62150 0.99190 0.20780 0.38600
H 	H 	0.93330 0.04530 0.59600 0.20200
H 	H 	0.24360 0.76650 0.60550 0.25900
H 	H 	0.53450 0.42750 0.41700 0.17700
H 	H 	0.60700 0.57250 0.98950 0.21100
H 	H 	0.59620 0.90020 0.10680 0.13800
H 	H 	0.80090 0.83680 0.73090 0.21600
H 	H 	0.44490 0.35830 0.05840 0.12000
H 	H 	0.07250 0.96550 0.08300 0.21500
H 	H 	0.33140 0.81580 0.21260 0.20600
H 	H 	0.10550 0.86190 0.33900 0.25800
H 	H 	0.71410 0.23270 0.43600 0.08800
H 	H 	0.21260 0.89680 0.38120 0.19400
H 	H 	0.42750 0.51050 0.89300 0.18100
H 	H 	0.01860 0.78590 0.72190 0.09400
H 	H 	0.08660 0.38650 0.94490 0.14400
H 	H 	0.25050 0.20750 0.28320 0.22600
H 	H 	0.43600 0.73270 0.71410 0.08900
H 	H 	0.29340 0.80400 0.40020 0.14900
H 	H 	0.56290 0.26460 0.13390 0.19500
H 	H 	0.88250 0.46550 0.39300 0.17900
H 	H 	0.57570 0.03270 0.78320 0.23700
H 	H 	0.96010 0.21640 0.66790 0.10200
H 	H 	0.01560 0.83140 0.11880 0.17000
H 	H 	0.03220 0.88870 0.13470 0.17800
H 	H 	0.63070 0.42900 0.36610 0.19900
H 	H 	0.21640 0.16790 0.46010 0.10000
H 	H 	0.74600 0.10250 0.63470 0.22500
H 	H 	0.83140 0.21260 0.81580 0.20700
H 	H 	0.77810 0.79670 0.56400 0.08100
H 	H 	0.58130 0.07090 0.29000 0.18700
H 	H 	0.13810 0.16100 0.39450 0.24600
H 	H 	0.56670 0.16270 0.11200 0.17700
H 	H 	0.13480 0.25000 0.86520 0.00500
H 	H 	0.20330 0.93600 0.72190 0.11000
H 	H 	0.01040 0.92910 0.21910 0.17300
H 	H 	0.49190 0.37040 0.28410 0.27400
H 	H 	0.61750 0.60700 0.53450 0.17700
H 	H 	0.38800 0.43330 0.33730 0.16900
H 	H 	0.88870 0.63470 0.53220 0.21200
H 	H 	0.66270 0.59600 0.55070 0.16900
H 	H 	0.19180 0.73350 0.42650 0.09900
H 	H 	0.95700 0.03270 0.24950 0.21900
H 	H 	0.63470 0.60250 0.74600 0.21000
H 	H 	0.69300 0.76650 0.95830 0.11600
H 	H 	0.14700 0.06100 0.15260 0.15000
H 	H 	0.60590 0.07000 0.76910 0.23400
H 	H 	0.66320 0.69910 0.76910 0.21900
H 	H 	0.06290 0.92900 0.29830 0.23900
H 	H 	0.59540 0.12000 0.94720 0.17800
H 	H 	0.38870 0.85650 0.25400 0.20900
H 	H 	0.88650 0.29990 0.94160 0.19500
H 	H 	0.21000 0.41870 0.42910 0.19700
H 	H 	0.78740 0.10320 0.61880 0.22100
H 	H 	0.01820 0.74690 0.10690 0.32400
H 	H 	0.79830 0.06290 0.42900 0.20900
H 	H 	0.58870 0.22870 0.98180 0.17200
H 	H 	0.61880 0.01560 0.33140 0.16800
H 	H 	0.51560 0.39680 0.18420 0.20800
H 	H 	0.20870 0.98960 0.41870 0.24000
H 	H 	0.86520 0.11520 0.23040 -0.01500
H 	H 	0.38000 0.47540 0.32720 0.15000
H 	H 	0.79670 0.73270 0.01860 0.08100
H 	H 	0.57250 0.48950 0.10700 0.17300
H 	H 	0.53990 0.20780 0.25630 0.09100
H 	H 	0.89410 0.66320 0.46410 0.22100
H 	H 	0.45470 0.56670 0.90400 0.17400
H 	H 	0.35300 0.50560 0.91400 0.15400
H 	H 	0.36000 0.60690 0.08870 0.25500
H 	H 	0.39450 0.73350 0.75640 0.25900
H 	H 	0.36930 0.79830 0.23540 0.19700
H 	H 	0.70660 0.19600 0.59980 0.14800
H 	H 	0.87040 0.99190 0.78410 0.37700
H 	H 	0.05840 0.85830 0.44490 0.12300
H 	H 	0.75640 0.23350 0.39450 0.25900
H 	H 	0.95470 0.90400 0.56670 0.16500
H 	H 	0.47710 0.63810 0.74360 0.25700
H 	H 	0.73090 0.33680 0.80090 0.21700
H 	H 	0.92910 0.21000 0.91870 0.19200
H 	H 	0.21680 0.46730 0.42430 0.22500
H 	H 	0.11880 0.33140 0.01560 0.16700
H 	H 	0.11350 0.70010 0.05840 0.10600
H 	H 	0.44930 0.90400 0.33730 0.17400
H 	H 	0.25050 0.04300 0.46730 0.24200
H 	H 	0.76650 0.45830 0.19300 0.11200
H 	H 	0.74370 0.45150 0.78360 0.09400
H 	H 	0.89310 0.14000 0.41130 0.27100
H 	H 	0.51040 0.21910 0.92910 0.21000
H 	H 	0.03270 0.28320 0.07570 0.22600
H 	H 	0.07350 0.26530 0.80700 0.09800
H 	H 	0.07090 0.79000 0.08130 0.20400
H 	H 	0.23540 0.29830 0.36930 0.19800
H 	H 	0.66790 0.95150 0.20780 0.08300
H 	H 	0.21590 0.70780 0.58630 0.27100
H 	H 	0.10700 0.98950 0.57250 0.20700
H 	H 	0.94720 0.62000 0.59540 0.16900
H 	H 	0.20660 0.60680 0.51060 0.14700
H 	H 	0.36520 0.13480 0.75000 0.02200
H 	H 	0.71910 0.70870 0.79000 0.20000
H 	H 	0.54170 0.30700 0.73350 0.10100
H 	H 	0.90400 0.83730 0.94930 0.19000
H 	H 	0.93000 0.19910 0.53590 0.20100
H 	H 	0.24690 0.72870 0.14000 0.25600
H 	H 	0.23270 0.29670 0.51860 0.08700
H 	H 	0.88250 0.41700 0.98950 0.21200
H 	H 	0.84740 0.43900 0.85300 0.16600
H 	H 	0.33730 0.40400 0.44930 0.16900
H 	H 	0.53590 0.69910 0.93000 0.20300
H 	H 	0.13390 0.36930 0.07100 0.16600
H 	H 	0.33900 0.36190 0.10550 0.25900
H 	H 	0.00810 0.29220 0.87850 0.17700
H 	H 	0.64000 0.39310 0.91130 0.25800
H 	H 	0.11520 0.38480 0.25000 0.00100
H 	H 	0.96730 0.71680 0.92430 0.22600
H 	H 	0.79220 0.54850 0.33210 0.09300
H 	H 	0.24950 0.71680 0.79250 0.22400
H 	H 	0.92650 0.73470 0.19300 0.10300
H 	H 	0.72190 0.43600 0.20330 0.10000
H 	H 	0.79340 0.39320 0.48940 0.15100
H 	H 	0.63810 0.39450 0.16100 0.24600
H 	H 	0.07570 0.29250 0.54300 0.21500
H 	H 	0.58300 0.07250 0.46550 0.19000
H 	H 	0.88000 0.55280 0.90460 0.12700
H 	H 	0.41400 0.35300 0.00560 0.12600
H 	H 	0.59980 0.90380 0.39320 0.14100
H 	H 	0.23090 0.80090 0.33680 0.21700
H 	H 	0.91400 0.00560 0.35300 0.11900
H 	H 	0.83730 0.44930 0.40400 0.17000
H 	H 	0.45830 0.69300 0.26650 0.10000
H 	H 	0.45830 0.76530 0.69180 0.10300
H 	H 	0.88120 0.66860 0.98440 0.24700
H 	H 	0.58600 0.64700 0.99440 0.19800
H 	H 	0.01040 0.08130 0.29130 0.17300
H 	H 	0.20660 0.59980 0.19600 0.14600
H 	H 	0.38650 0.94160 0.29990 0.18000
H 	H 	0.24370 0.46010 0.29220 0.09000
H 	H 	0.86190 0.83900 0.60550 0.27100
H 	H 	0.83680 0.23090 0.30090 0.21500
H 	H 	0.07350 0.80820 0.76650 0.11200
H 	H 	0.39300 0.96550 0.88250 0.19700
H 	H 	0.75640 0.52290 0.86190 0.25900
H 	H 	0.33680 0.03590 0.60590 0.23200
H 	H 	0.23470 0.42650 0.69300 0.09900
H 	H 	0.26460 0.63070 0.70170 0.19900
H 	H 	0.07100 0.86930 0.13390 0.17100
H 	H 	0.57100 0.43710 0.20170 0.19900
H 	H 	0.88800 0.55070 0.95470 0.15300
H 	H 	0.85300 0.91400 0.50560 0.15600
H 	H 	0.16860 0.78740 0.18420 0.20800
H 	H 	0.13070 0.36610 0.42900 0.19600
H 	H 	0.21910 0.79000 0.70870 0.20000
H 	H 	0.13390 0.76460 0.56290 0.19500
H 	H 	0.94490 0.05840 0.35830 0.12000
H 	H 	0.88650 0.58660 0.44490 0.16700
H 	H 	0.20870 0.21910 0.29000 0.19900
H 	H 	0.06670 0.11200 0.16270 0.15100
H 	H 	0.83140 0.61880 0.51560 0.20800
H 	H 	0.63470 0.03220 0.38870 0.17500
H 	H 	0.61520 0.36520 0.73040 0.00800
H 	H 	0.69600 0.20660 0.09980 0.14200
H 	H 	0.41340 0.05510 0.61350 0.15300
H 	H 	0.14000 0.91130 0.39310 0.25900
H 	H 	0.29670 0.27810 0.06400 0.07400
H 	H 	0.73350 0.47710 0.33900 0.25900
H 	H 	0.48960 0.78090 0.07090 0.18700
H 	H 	0.87850 0.79220 0.00810 0.18100
H 	H 	0.41370 0.79220 0.78410 0.27100
H 	H 	0.93710 0.86610 0.73540 0.19100
H 	H 	0.51060 0.10680 0.20660 0.12700
H 	H 	0.09980 0.39320 0.90380 0.13500
H 	H 	0.48440 0.60320 0.81580 0.20700
H 	H 	0.69180 0.26530 0.45830 0.10000
H 	H 	0.25400 0.35650 0.38870 0.21000
H 	H 	0.54300 0.79250 0.07570 0.21600
H 	H 	0.61130 0.46780 0.36530 0.21000
H 	H 	0.80820 0.26650 0.57350 0.10300
H 	H 	0.14170 0.08660 0.20010 0.14300
H 	H 	0.26650 0.19300 0.45830 0.10800
H 	H 	0.19910 0.03590 0.43000 0.23200
H 	H 	0.70780 0.08630 0.71590 0.27100
H 	H 	0.93900 0.59160 0.08600 0.18000
H 	H 	0.59600 0.54530 0.93330 0.19400
H 	H 	0.91870 0.71000 0.92910 0.19300
H 	H 	0.03590 0.93000 0.69910 0.21600
H 	H 	0.82720 0.44720 0.35180 0.15100
H 	H 	0.45700 0.20750 0.92430 0.23600
H 	H 	0.28590 0.76730 0.56400 0.08800
H 	H 	0.95150 0.70780 0.16790 0.09300
H 	H 	0.27130 0.91130 0.51820 0.26000
H 	H 	0.10320 0.98440 0.31580 0.26000
H 	H 	0.64000 0.24690 0.22870 0.25700
H 	H 	0.05510 0.94160 0.64170 0.18100
H 	H 	0.76530 0.19180 0.95830 0.11200
H 	H 	0.53590 0.83680 0.10590 0.21200
H 	H 	0.26730 0.78590 0.06400 0.07900
H 	H 	0.28410 0.87040 0.49190 0.27300
H 	H 	0.23470 0.80820 0.04170 0.09100
H 	H 	0.04300 0.96730 0.75050 0.23100
H 	H 	0.63390 0.07100 0.36930 0.16900
H 	H 	0.08130 0.79130 0.51040 0.21400
H 	H 	0.29220 0.37850 0.50810 0.27200
H 	H 	0.41400 0.06100 0.90840 0.17400
H 	H 	0.03450 0.61750 0.10700 0.15400
H 	H 	0.50560 0.09160 0.15260 0.14000
H 	H 	0.10680 0.70660 0.01060 0.09900
H 	H 	0.89310 0.75310 0.98180 0.19200
H 	H 	0.27130 0.36000 0.25310 0.25800
H 	H 	0.14820 0.17280 0.05280 0.12700
H 	H 	0.35180 0.40460 0.02460 0.12100
H 	H 	0.32720 0.35180 0.44720 0.14900
H 	H 	0.01050 0.92750 0.39300 0.13200
H 	H 	0.46730 0.54300 0.25050 0.22600
H 	H 	0.70170 0.57100 0.93710 0.18700
H 	H 	0.70780 0.62150 0.49190 0.27200
H 	H 	0.61350 0.05840 0.70010 0.12100
H 	H 	0.97540 0.88000 0.82720 0.17000
H 	H 	0.01050 0.08300 0.11750 0.14800
H 	H 	0.86520 0.75000 0.13480 0.00700
H 	H 	0.80700 0.76530 0.07350 0.10000
H 	H 	0.46730 0.92430 0.71680 0.23500
H 	H 	0.79000 0.20870 0.71910 0.19900
H 	H 	0.95830 0.26650 0.69300 0.11200
H 	H 	0.04850 0.75630 0.71640 0.10400
H 	H 	0.20170 0.26460 0.13070 0.19700
H 	H 	0.71260 0.38120 0.89680 0.19400
H 	H 	0.26650 0.07350 0.30820 0.10500
H 	H 	0.55510 0.91340 0.11350 0.14000
H 	H 	0.48950 0.60700 0.07250 0.18900
H 	H 	0.60700 0.03450 0.11750 0.15600
H 	H 	0.85830 0.94490 0.55840 0.14900
H 	H 	0.39300 0.42750 0.01050 0.14300
H 	H 	0.36610 0.43710 0.23540 0.19800
H 	H 	0.97710 0.23350 0.83900 0.19200
H 	H 	0.94930 0.61200 0.54530 0.18700
H 	H 	0.78320 0.25050 0.70750 0.22700
H 	H 	0.26530 0.95830 0.19180 0.11000
H 	H 	0.14820 0.97540 0.59540 0.17600
H 	H 	0.91340 0.29990 0.35830 0.15400
H 	H 	0.88120 0.21260 0.39680 0.21000
H 	H 	0.41370 0.62150 0.12960 0.27200
H 	H 	0.41870 0.48960 0.20870 0.19800
H 	H 	0.79130 0.01040 0.58130 0.15900
H 	H 	0.57090 0.08130 0.79000 0.21500
H 	H 	0.64700 0.49440 0.08600 0.17100
H 	H 	0.15260 0.59160 0.50560 0.16000
H 	H 	0.68420 0.51560 0.89680 0.19400
H 	H 	0.37850 0.37040 0.08630 0.27400
H 	H 	0.24600 0.61130 0.64350 0.21000
H 	H 	0.40400 0.94930 0.83730 0.18600
H 	H 	0.61520 0.25000 0.38480 0.00600
H 	H 	0.23350 0.54170 0.80700 0.09000
H 	H 	0.60680 0.01060 0.70660 0.11600
H 	H 	0.49440 0.90840 0.84740 0.18300
H 	H 	0.76650 0.30820 0.07350 0.10900
H 	H 	0.16270 0.61200 0.06670 0.14400
H 	H 	0.33900 0.97710 0.73350 0.18000
H 	H 	0.71000 0.28090 0.79130 0.19800
H 	H 	0.45700 0.24950 0.03270 0.23500
H 	H 	0.20750 0.78320 0.75050 0.22800
H 	H 	0.76650 0.10550 0.74360 0.25700
H 	H 	0.21640 0.04850 0.25630 0.09900
H 	H 	0.50810 0.62960 0.71590 0.27000
H 	H 	0.48940 0.89320 0.79340 0.16800
H 	H 	0.35650 0.46780 0.10250 0.22400
H 	H 	0.28360 0.74370 0.95150 0.08300
H 	H 	0.44160 0.88650 0.79990 0.16700
H 	H 	0.56100 0.91400 0.40840 0.15500
H 	H 	0.41130 0.64000 0.89310 0.27000
H 	H 	0.91130 0.01820 0.77130 0.33700
H 	H 	0.16790 0.96010 0.71640 0.11200
H 	H 	0.86610 0.63070 0.92900 0.23000
H 	H 	0.90840 0.56100 0.41400 0.18200
H 	H 	0.51560 0.11880 0.83140 0.20600
H 	H 	0.35300 0.84740 0.93900 0.17300
H 	H 	0.40380 0.30400 0.01060 0.11400
H 	H 	0.77810 0.98140 0.71410 0.08800
H 	H 	0.34740 0.85300 0.43900 0.16400
H 	H 	0.90380 0.89320 0.09980 0.15300
H 	H 	0.09620 0.10680 0.90020 0.14500
H 	H 	0.90020 0.29340 0.30400 0.15400
H 	H 	0.10700 0.11750 0.03450 0.15200
H 	H 	0.30400 0.51060 0.90380 0.14000
H 	H 	0.51860 0.79670 0.23270 0.07800
H 	H 	0.60320 0.28740 0.11880 0.20500
H 	H 	0.99440 0.14700 0.58600 0.19800
H 	H 	0.66790 0.71640 0.96010 0.10400
H 	H 	0.62000 0.52460 0.67280 0.15000
H 	H 	0.49440 0.58600 0.14700 0.16100
H 	H 	0.40020 0.30400 0.29340 0.14800
H 	H 	0.37850 0.00810 0.79220 0.16400
H 	H 	0.46410 0.30090 0.07000 0.23300
H 	H 	0.14350 0.24600 0.11130 0.20900
H 	H 	0.74950 0.79250 0.71680 0.22500
H 	H 	0.07090 0.28090 0.48960 0.18700
H 	H 	0.29220 0.91370 0.28410 0.27200
H 	H 	0.87850 0.08630 0.37040 0.28800
H 	H 	0.98950 0.91700 0.88250 0.20600
H 	H 	0.93000 0.73090 0.89410 0.20600
H 	H 	0.08660 0.70010 0.64170 0.14600
H 	H 	0.17280 0.62000 0.02460 0.12100
H 	H 	0.07250 0.10700 0.48950 0.18600
H 	H 	0.51060 0.40380 0.80400 0.14900
H 	H 	0.62000 0.09540 0.44720 0.16500
H 	H 	0.59160 0.58600 0.43900 0.16300
H 	H 	0.25640 0.39450 0.23350 0.26000
H 	H 	0.89450 0.75640 0.73350 0.26000
H 	H 	0.97540 0.09540 0.64820 0.19200
H 	H 	0.96410 0.07000 0.30090 0.21800
H 	H 	0.60320 0.31580 0.98440 0.24600
H 	H 	0.60550 0.33900 0.86190 0.25900
H 	H 	0.40400 0.45470 0.06670 0.14300
H 	H 	0.55070 0.09600 0.66270 0.16400
H 	H 	0.35180 0.94720 0.82720 0.16900
H 	H 	0.74690 0.14000 0.72870 0.25600
H 	H 	0.58660 0.64170 0.70010 0.15100
H 	H 	0.42430 0.45700 0.70750 0.22500
H 	H 	0.70750 0.75050 0.78320 0.22800
H 	H 	0.88480 0.26960 0.63480 0.01100
H 	H 	0.51860 0.72190 0.78590 0.09200
H 	H 	0.56400 0.26730 0.28590 0.08700
H 	H 	0.46010 0.66790 0.21640 0.09200
H 	H 	0.23350 0.89450 0.25640 0.26100
H 	H 	0.75400 0.38870 0.35650 0.21000
H 	H 	0.62960 0.41370 0.12150 0.25700
H 	H 	0.24600 0.63470 0.10250 0.22400
H 	H 	0.73470 0.69300 0.42650 0.10200
H 	H 	0.71590 0.58630 0.70780 0.27000
H 	H 	0.64820 0.59540 0.97540 0.17800
H 	H 	0.47540 0.82720 0.88000 0.14300
H 	H 	0.44490 0.08660 0.88650 0.16300
H 	H 	0.27810 0.71410 0.98140 0.08500
H 	H 	0.03270 0.74950 0.45700 0.23600
H 	H 	0.24360 0.47710 0.13810 0.25900
H 	H 	0.83900 0.10550 0.36190 0.27100
H 	H 	0.26910 0.60590 0.57000 0.21800
H 	H 	0.99190 0.28410 0.37040 0.38600
H 	H 	0.56100 0.64700 0.65260 0.16300
H 	H 	0.09540 0.94720 0.12000 0.19100
H 	H 	0.43000 0.53590 0.19910 0.21700
H 	H 	0.45470 0.88800 0.05070 0.14300
H 	H 	0.92430 0.21680 0.96730 0.22500
H 	H 	0.19180 0.45830 0.26530 0.09800
H 	H 	0.21680 0.74950 0.29250 0.22500
H 	H 	0.31580 0.83140 0.71260 0.20800
H 	H 	0.85830 0.91340 0.79990 0.15700
H 	H 	0.26460 0.63390 0.06290 0.21000
H 	H 	0.94160 0.14170 0.55510 0.17900
H 	H 	0.63810 0.24360 0.97710 0.17600
H 	H 	0.67280 0.02460 0.62000 0.12100
H 	H 	0.78740 0.68420 0.66860 0.20800
H 	H 	0.10690 0.24690 0.01820 0.32700
H 	H 	0.16100 0.89450 0.63810 0.24700
H 	H 	0.76910 0.57000 0.60590 0.21800
H 	H 	0.96550 0.58300 0.57250 0.19700
H 	H 	0.46780 0.60250 0.85650 0.20900
H 	H 	0.64170 0.44160 0.05510 0.15300
H 	H 	0.71680 0.29250 0.74950 0.22500
H 	H 	0.38120 0.39680 0.21260 0.20700
H 	H 	0.98940 0.79340 0.89320 0.19800
H 	H 	0.20780 0.75630 0.03990 0.08400
H 	H 	0.68420 0.16860 0.28740 0.20700
H 	H 	0.71000 0.42910 0.41870 0.19700
H 	H 	0.03590 0.10590 0.83680 0.22700
H 	H 	0.90380 0.01060 0.30400 0.10800
H 	H 	0.64700 0.15260 0.06100 0.15200
H 	H 	0.53270 0.45700 0.74950 0.22500
H 	H 	0.98140 0.76730 0.20330 0.09600
H 	H 	0.78590 0.56400 0.76730 0.09100
H 	H 	0.46550 0.57250 0.58300 0.17700
H 	H 	0.61200 0.56670 0.66270 0.16900
H 	H 	0.03220 0.14350 0.39750 0.17700
H 	H 	0.98140 0.21410 0.27810 0.08200
H 	H 	0.71410 0.48140 0.77810 0.08900
H 	H 	0.79670 0.06400 0.27810 0.06500
H 	H 	0.24690 0.51820 0.60690 0.25700
H 	H 	0.76650 0.66100 0.52290 0.26000
H 	H 	0.02460 0.12000 0.17280 0.12900
H 	H 	0.19600 0.09980 0.20660 0.14000
H 	H 	0.07570 0.78320 0.03270 0.22800
H 	H 	0.92430 0.70750 0.45700 0.23600
H 	H 	0.76460 0.06290 0.63390 0.21100
H 	H 	0.57100 0.13390 0.86930 0.19800
H 	H 	0.81580 0.71260 0.83140 0.20700
H 	H 	0.20780 0.71590 0.08630 0.27200
H 	H 	0.57000 0.46410 0.80090 0.21700
H 	H 	0.73470 0.04170 0.80820 0.09200
H 	H 	0.51040 0.29130 0.08130 0.21400
H 	H 	0.07100 0.20170 0.43710 0.17000
H 	H 	0.26530 0.30700 0.57350 0.09900
H 	H 	0.60250 0.24600 0.13470 0.20700
H 	H 	0.79250 0.57570 0.04300 0.24100
H 	H 	0.19600 0.09620 0.48940 0.15600
H 	H 	0.89450 0.13810 0.66100 0.26100
H 	H 	0.48940 0.59620 0.19600 0.14800
H 	H 	0.70010 0.55840 0.61350 0.15000
H 	H 	0.86930 0.23540 0.79830 0.20000
H 	H 	0.71640 0.46010 0.16790 0.10300
H 	H 	0.09160 0.65260 0.00560 0.10900
H 	H 	0.66860 0.18420 0.78740 0.20900
H 	H 	0.19300 0.23470 0.92650 0.10100
H 	H 	0.66100 0.63810 0.89450 0.26000
H 	H 	0.29830 0.42900 0.06290 0.21000
H 	H 	0.06670 0.95470 0.40400 0.13700
H 	H 	0.94490 0.88650 0.08660 0.15900
H 	H 	0.11520 0.73040 0.36520 0.00300
H 	H 	0.71590 0.12960 0.50810 0.27000
H 	H 	0.48950 0.88250 0.91700 0.17400
H 	H 	0.71260 0.33140 0.31580 0.20700
H 	H 	0.95150 0.24370 0.28360 0.08100
H 	H 	0.69910 0.26910 0.16320 0.22000
H 	H 	0.25310 0.86000 0.27130 0.25700
H 	H 	0.56400 0.29670 0.77810 0.08900
H 	H 	0.33680 0.30090 0.23090 0.21600
H 	H 	0.91700 0.53450 0.92750 0.16000
H 	H 	0.73040 0.86520 0.61520 -0.00600
H 	H 	0.11130 0.36530 0.46780 0.20800
H 	H 	0.83210 0.79220 0.04850 0.09300
H 	H 	0.08600 0.09160 0.93900 0.16200
H 	H 	0.56290 0.29830 0.92900 0.22800
H 	H 	0.04530 0.09600 0.43330 0.17300
H 	H 	0.40840 0.41400 0.56100 0.16200
H 	H 	0.52290 0.16100 0.76650 0.24800
H 	H 	0.30700 0.07350 0.76530 0.10700
H 	H 	0.63480 0.86520 0.25000 -0.00900
H 	H 	0.92900 0.79830 0.56290 0.22700
H 	H 	0.23040 0.61520 0.86520 -0.01000
H 	H 	0.88870 0.25400 0.85650 0.21100
H 	H 	0.24950 0.53270 0.95700 0.21000
H 	H 	0.38000 0.90460 0.55280 0.13500
H 	H 	0.12150 0.91370 0.62960 0.25600
H 	H 	0.32720 0.97540 0.38000 0.17900
H 	H 	0.78360 0.83210 0.53990 0.08600
H 	H 	0.18420 0.28740 0.16860 0.20800
H 	H 	0.11350 0.41340 0.55510 0.13400
H 	H 	0.48440 0.88120 0.16860 0.21000
H 	H 	0.78410 0.29220 0.41370 0.27200
H 	H 	0.13470 0.38870 0.03220 0.17300
H 	H 	0.75050 0.46730 0.04300 0.24200
H 	H 	0.91370 0.12960 0.62150 0.27100
H 	H 	0.41700 0.92750 0.53450 0.16500
H 	H 	0.17280 0.55280 0.64820 0.14900
H 	H 	0.41700 0.48950 0.38250 0.17700
H 	H 	0.42650 0.23350 0.19180 0.09500
H 	H 	0.86530 0.61130 0.96780 0.24600
H 	H 	0.21590 0.50810 0.12960 0.27100
H 	H 	0.50810 0.87850 0.29220 0.28700
H 	H 	0.12000 0.67280 0.52460 0.15800
H 	H 	0.57350 0.80700 0.26530 0.09200
H 	H 	0.95700 0.92430 0.20750 0.22300
H 	H 	0.10250 0.96780 0.35650 0.25800
H 	H 	0.85180 0.82720 0.94720 0.17100
H 	H 	0.94160 0.79990 0.88650 0.19400
H 	H 	0.28740 0.61880 0.10320 0.22100
H 	H 	0.47540 0.64820 0.09540 0.16400
H 	H 	0.74600 0.64350 0.61130 0.21000
H 	H 	0.08630 0.87040 0.37850 0.27300
H 	H 	0.39750 0.64350 0.03220 0.17700
H 	H 	0.04170 0.73350 0.30700 0.09000
H 	H 	0.26730 0.48140 0.70330 0.08700
H 	H 	0.05070 0.38800 0.45470 0.15100
H 	H 	0.38800 0.95470 0.55070 0.16100
H 	H 	0.58130 0.51040 0.79130 0.19800
H 	H 	0.59540 0.47540 0.14820 0.14800
H 	H 	0.09600 0.16270 0.05070 0.14600
H 	H 	0.53990 0.33210 0.78360 0.09300
H 	H 	0.14350 0.89750 0.53220 0.19700
H 	H 	0.11130 0.74600 0.14350 0.20900
H 	H 	0.79990 0.41340 0.85830 0.15300
H 	H 	0.89300 0.01050 0.42750 0.14800
H 	H 	0.29000 0.57090 0.58130 0.19900
H 	H 	0.20780 0.49190 0.62150 0.27300
H 	H 	0.19910 0.16320 0.26910 0.21900
H 	H 	0.98940 0.19600 0.59620 0.18200
H 	H 	0.08600 0.99440 0.64700 0.20600
H 	H 	0.22190 0.20330 0.43600 0.09600
H 	H 	0.48140 0.27810 0.21410 0.08400
H 	H 	0.01860 0.23270 0.79670 0.08000
H 	H 	0.77130 0.25310 0.36000 0.25700
H 	H 	0.43900 0.35300 0.34740 0.16200
H 	H 	0.06400 0.77810 0.29670 0.07800
H 	H 	0.36530 0.96780 0.61130 0.24400
H 	H 	0.43000 0.89410 0.73090 0.22100
H 	H 	0.36520 0.23040 0.11520 -0.00100
H 	H 	0.39310 0.98180 0.75310 0.17600
H 	H 	0.04530 0.94930 0.11200 0.20300
H 	H 	0.41870 0.92910 0.71000 0.20900
H 	H 	0.52460 0.35180 0.90460 0.13400
H 	H 	0.79130 0.78090 0.71000 0.19700
H 	H 	0.79990 0.38650 0.44160 0.15200
H 	H 	0.80820 0.54170 0.73470 0.10400
H 	H 	0.78320 0.53270 0.57570 0.22700
H 	H 	0.05510 0.11350 0.91340 0.14100
H 	H 	0.55070 0.45470 0.38800 0.16900
H 	H 	0.96780 0.11130 0.86530 0.24400
H 	H 	0.83730 0.38800 0.93330 0.19500
H 	H 	0.53270 0.07570 0.28320 0.21600
H 	H 	0.61750 0.01050 0.58300 0.14300
H 	H 	0.97710 0.74360 0.63810 0.17600
H 	H 	0.74360 0.60550 0.76650 0.25800
H 	H 	0.20170 0.93710 0.57100 0.18800
H 	H 	0.69910 0.43000 0.03590 0.23300
H 	H 	0.75400 0.36530 0.89750 0.19600
H 	H 	0.89410 0.23090 0.93000 0.20500
H 	H 	0.98180 0.72870 0.58870 0.17300
H 	H 	0.89750 0.86530 0.75400 0.19900
H 	H 	0.62150 0.62960 0.91370 0.27000
H 	H 	0.12960 0.00810 0.21590 0.15600
H 	H 	0.80400 0.90020 0.79340 0.15700
H 	H 	0.48180 0.89310 0.25310 0.27000
H 	H 	0.42900 0.56290 0.79830 0.19800
H 	H 	0.83680 0.60590 0.03590 0.23100
H 	H 	0.69300 0.92650 0.23470 0.09400
H 	H 	0.99440 0.84740 0.90840 0.21600
H 	H 	0.42750 0.91700 0.03450 0.15300
H 	H 	0.57250 0.08300 0.96550 0.20300
H 	H 	0.23350 0.69180 0.92650 0.09300
H 	H 	0.09540 0.14820 0.47540 0.16200
H 	H 	0.58600 0.93900 0.09160 0.15500
H 	H 	0.23090 0.43000 0.39410 0.21700
H 	H 	0.84740 0.40840 0.49440 0.16500
H 	H 	0.78360 0.95150 0.74370 0.08700
H 	H 	0.95830 0.69180 0.76530 0.11500
H 	H 	0.55840 0.44490 0.85830 0.15100
H 	H 	0.54850 0.83210 0.29220 0.08400
H 	H 	0.52290 0.36190 0.25640 0.26100
H 	H 	0.20780 0.45150 0.66790 0.09100
H 	H 	0.03450 0.41700 0.42750 0.15700
H 	H 	0.29130 0.58130 0.01040 0.15800
H 	H 	0.02290 0.76650 0.16100 0.32700
H 	H 	0.21000 0.79130 0.28090 0.19700
H 	H 	0.62960 0.21590 0.00810 0.15900
H 	H 	0.28740 0.66860 0.68420 0.20800
H 	H 	0.00810 0.71590 0.62960 0.16000
H 	H 	0.08300 0.61750 0.51050 0.18300
H 	H 	0.63480 0.76960 0.88480 0.01500
H 	H 	0.89680 0.88120 0.71260 0.19700
H 	H 	0.39320 0.98940 0.29340 0.18300
H 	H 	0.30700 0.23350 0.04170 0.08500
H 	H 	0.45150 0.28360 0.24370 0.08800
H 	H 	0.63070 0.20170 0.76460 0.20000
H 	H 	0.75050 0.28320 0.20750 0.22800
H 	H 	0.29830 0.86930 0.73540 0.20100
H 	H 	0.35830 0.79990 0.91340 0.15500
H 	H 	0.91700 0.38250 0.48950 0.17100
H 	H 	0.91400 0.90840 0.06100 0.16400
H 	H 	0.36190 0.60550 0.83900 0.27200
H 	H 	0.48140 0.20330 0.76730 0.09700
H 	H 	0.51050 0.39300 0.92750 0.16400
H 	H 	0.39410 0.93000 0.23090 0.20000
H 	H 	0.07000 0.26910 0.10590 0.22900
H 	H 	0.98440 0.81580 0.60320 0.24500
H 	H 	0.93600 0.71410 0.73270 0.10100
H 	H 	0.58870 0.36000 0.10690 0.24200
H 	H 	0.92650 0.19180 0.23350 0.09000
H 	H 	0.58660 0.94490 0.38650 0.14900
H 	H 	0.12960 0.12150 0.41370 0.25700
H 	H 	0.16270 0.55070 0.59600 0.16800
H 	H 	0.60590 0.53590 0.33680 0.21800
H 	H 	0.25000 0.88480 0.11520 0.00700
H 	H 	0.12150 0.20780 0.99190 0.37000
H 	H 	0.90400 0.06670 0.45470 0.14900
H 	H 	0.01060 0.20660 0.10680 0.09700
H 	H 	0.54850 0.71640 0.75630 0.09600
H 	H 	0.29220 0.33210 0.54850 0.09200
H 	H 	0.54530 0.11200 0.94930 0.19500
H 	H 	0.13070 0.76460 0.20170 0.19700
H 	H 	0.38250 0.98950 0.41700 0.21200
H 	H 	0.81580 0.10320 0.48440 0.22000
H 	H 	0.70870 0.29000 0.21910 0.20000
H 	H 	0.39750 0.75400 0.86530 0.21300
H 	H 	0.39310 0.41130 0.14000 0.25800
H 	H 	0.25640 0.86190 0.52290 0.26000
H 	H 	0.71640 0.25630 0.04850 0.10300
H 	H 	0.35650 0.88870 0.75400 0.21200
H 	H 	0.79220 0.24370 0.96010 0.10200
H 	H 	0.57090 0.48960 0.28090 0.19800
H 	H 	0.66100 0.02290 0.26650 0.34300
H 	H 	0.11880 0.78740 0.60320 0.20500
H 	H 	0.70780 0.66790 0.45150 0.09300
H 	H 	0.86530 0.25400 0.39750 0.21300
H 	H 	0.60680 0.59620 0.40020 0.14900
H 	H 	0.25630 0.70780 0.53990 0.09200
H 	H 	0.04170 0.30820 0.23470 0.08700
H 	H 	0.16790 0.20780 0.95150 0.09100
H 	H 	0.08870 0.10690 0.36000 0.24100
H 	H 	0.89300 0.88250 0.96550 0.20100
H 	H 	0.67280 0.64820 0.55280 0.15000
H 	H 	0.66320 0.96410 0.39410 0.20300
H 	H 	0.08130 0.29000 0.07090 0.20300
H 	H 	0.43710 0.70170 0.07100 0.17000
H 	H 	0.02460 0.90460 0.35180 0.10800
H 	H 	0.75310 0.48180 0.39310 0.25600
H 	H 	0.74950 0.95700 0.53270 0.21100
H 	H 	0.43330 0.83730 0.88800 0.16200
H 	H 	0.01560 0.18420 0.39680 0.16900
H 	H 	0.27810 0.56400 0.79670 0.07700
H 	H 	0.63390 0.56290 0.76460 0.19900
H 	H 	0.54300 0.75050 0.96730 0.21700
H 	H 	0.28090 0.98960 0.57090 0.23900
H 	H 	0.10590 0.76910 0.07000 0.23000
H 	H 	0.78090 0.57090 0.98960 0.23700
H 	H 	0.79220 0.50810 0.37850 0.27100
H 	H 	0.76730 0.70330 0.48140 0.08900
H 	H 	0.20330 0.26730 0.98140 0.09500
H 	H 	0.79250 0.21680 0.24950 0.22400
H 	H 	0.38480 0.75000 0.61520 0.00800
H 	H 	0.52460 0.17280 0.12000 0.15700
H 	H 	0.25310 0.39310 0.48180 0.25700
H 	H 	0.15260 0.56100 0.14700 0.15900
H 	H 	0.10550 0.24360 0.26650 0.25900
H 	H 	0.74370 0.29220 0.46010 0.09300
H 	H 	0.94720 0.32720 0.85180 0.17100
H 	H 	0.42910 0.51040 0.71910 0.19800
H 	H 	0.54170 0.23470 0.30820 0.09800
H 	H 	0.60550 0.26650 0.24360 0.26000
H 	H 	0.30090 0.57000 0.96410 0.20300
H 	H 	0.29250 0.04300 0.57570 0.24100
H 	H 	0.80090 0.96410 0.57000 0.20300
H 	H 	0.80400 0.90380 0.51060 0.14200
H 	H 	0.76730 0.06400 0.78590 0.08000
H 	H 	0.10590 0.33680 0.53590 0.21300
H 	H 	0.96410 0.89410 0.16320 0.21000
H 	H 	0.39680 0.71260 0.88120 0.20900
H 	H 	0.95470 0.05070 0.88800 0.13600
H 	H 	0.57570 0.54300 0.29250 0.22600
H 	H 	0.75000 0.63480 0.36520 0.00800
H 	H 	0.38650 0.44490 0.58660 0.15000
H 	H 	0.19300 0.95830 0.76650 0.12300
H 	H 	0.57000 0.10590 0.26910 0.21400
H 	H 	0.08630 0.21590 0.20780 0.27300
H 	H 	0.11200 0.66270 0.56670 0.17800
H 	H 	0.35830 0.55840 0.94490 0.14800
H 	H 	0.40020 0.09620 0.60680 0.15700
H 	H 	0.21410 0.77810 0.48140 0.08700
H 	H 	0.79340 0.40020 0.80400 0.15100
H 	H 	0.86610 0.23540 0.43710 0.20200
H 	H 	0.53220 0.39750 0.14350 0.21100
H 	H 	0.96550 0.38250 0.89300 0.20100
C 	C 	0.85447 0.83585 0.88612 0.05700
C 	C 	0.13581 0.67412 0.66531 0.03200
C 	C 	0.88300 0.13300 0.26600 0.07500
C 	C 	0.34682 0.37814 0.44252 -0.50200
C 	C 	0.28628 0.80966 0.31490 0.24500
C 	C 	0.00680 0.58010 0.96110 0.30600
C 	C 	0.90831 0.59265 0.07056 -0.52900
C 	C 	0.41990 0.53890 0.49320 0.40900
C 	C 	0.95420 0.20980 0.34880 0.52500
C 	C 	0.97791 0.81566 0.90735 -0.63000
C 	C 	0.36419 0.33469 0.32588 0.03700
C 	C 	0.08010 0.57330 0.11900 0.40900
C 	C 	0.15360 0.71461 0.17051 0.26400
C 	C 	0.97138 0.68510 0.49476 0.26400
C 	C 	0.11388 0.66415 0.14553 0.02900
C 	C 	0.53568 0.11747 0.86023 -0.69800
C 	C 	0.52950 0.66531 0.99119 0.12600
C 	C 	0.86990 0.75610 0.07560 -0.09400
C 	C 	0.29607 0.48845 0.52110 -0.57300
C 	C 	0.09169 0.40735 0.92944 -0.44500
C 	C 	0.00680 0.42670 0.54570 0.32300
C 	C 	0.38100 0.46110 0.95430 0.39200
C 	C 	0.68840 0.25000 0.31160 -0.67900
C 	C 	0.74390 0.63010 0.42440 -0.11700
C 	C 	0.47662 0.97138 0.78628 0.26200
C 	C 	0.82170 0.76220 0.05170 -0.32900
C 	C 	0.95430 0.96110 0.38100 0.37200
C 	C 	0.64553 0.11388 0.16415 0.03000
C 	C 	0.99320 0.57330 0.45430 0.49300
C 	C 	0.37459 0.99910 0.75891 -0.60800
C 	C 	0.01760 0.14218 0.51616 -0.23200
C 	C 	0.37542 0.85782 0.37398 -0.15000
C 	C 	0.59265 0.02209 0.68434 -0.39300
C 	C 	0.60540 0.95420 0.24440 0.52300
C 	C 	0.87459 0.11568 0.37549 -0.94900
C 	C 	0.70980 0.45420 0.84880 0.38800
C 	C 	0.55748 0.12186 0.65318 -0.49600
C 	C 	0.42944 0.33775 0.02209 -0.39000
C 	C 	0.24390 0.81950 0.11380 -0.12300
C 	C 	0.45420 0.34880 0.20980 0.39800
C 	C 	0.32170 0.05170 0.76220 -0.35800
C 	C 	0.20980 0.84880 0.45420 0.39100
C 	C 	0.49910 0.62451 0.74019 -0.89500
C 	C 	0.50144 0.01760 0.37542 -0.23400
C 	C 	0.18840 0.31160 0.25000 -0.68200
C 	C 	0.21050 0.44050 0.26220 -0.31200
C 	C 	0.05027 0.66415 0.51862 0.07500
C 	C 	0.32455 0.46432 0.08179 -0.75200
C 	C 	0.03890 0.11900 0.54570 0.43000
C 	C 	0.78553 0.98016 0.55485 -0.64000
C 	C 	0.66415 0.64553 0.61388 0.04300
C 	C 	0.49476 0.30966 0.02338 0.30100
C 	C 	0.59169 0.66225 0.68434 -0.48800
C 	C 	0.00144 0.37542 0.01760 -0.31700
C 	C 	0.80966 0.99476 0.52338 0.28700
C 	C 	0.84682 0.40430 0.96868 -0.58500
C 	C 	0.51691 0.45590 0.17051 0.26000
C 	C 	0.96835 0.11388 0.94973 -0.05200
C 	C 	0.63010 0.70570 0.88620 -0.10600
C 	C 	0.71447 0.44515 0.01984 -0.78700
C 	C 	0.74109 0.62541 0.50090 -0.90200
C 	C 	0.59265 0.57056 0.40831 -0.48700
C 	C 	0.09265 0.40831 0.57056 -0.43000
C 	C 	0.92440 0.74390 0.13010 -0.14400
C 	C 	0.96169 0.63581 0.47050 0.09600
C 	C 	0.17830 0.94050 0.73000 -0.37400
C 	C 	0.62451 0.38432 0.12541 -0.85700
C 	C 	0.77000 0.82170 0.55950 -0.29400
C 	C 	0.17830 0.23780 0.94830 -0.30600
C 	C 	0.62541 0.00090 0.24109 -1.21400
C 	C 	0.03165 0.88612 0.05027 0.13300
C 	C 	0.63977 0.17545 0.75724 -0.70900
C 	C 	0.17051 0.95590 0.51691 0.21300
C 	C 	0.53132 0.37814 0.93562 -0.45300
C 	C 	0.53831 0.00881 0.67412 -0.05200
C 	C 	0.69463 0.98016 0.42531 -0.63800
C 	C 	0.94515 0.21447 0.51984 -0.66100
C 	C 	0.05748 0.65318 0.12186 -0.46300
C 	C 	0.42440 0.13010 0.74390 -0.08600
C 	C 	0.55027 0.51862 0.66415 0.04300
C 	C 	0.68050 0.42440 0.79430 -0.11500
C 	C 	0.09570 0.44252 0.06438 -0.58300
C 	C 	0.02862 0.31490 0.50524 0.22800
C 	C 	0.29020 0.54580 0.15120 0.39800
C 	C 	0.10540 0.24440 0.95420 0.48500
C 	C 	0.31950 0.57560 0.20570 -0.12200
C 	C 	0.52338 0.49476 0.80966 0.24500
C 	C 	0.62458 0.14218 0.62602 -0.15000
C 	C 	0.32588 0.49119 0.46169 0.03800
C 	C 	0.17412 0.53831 0.50881 0.03400
C 	C 	0.13010 0.88620 0.70570 -0.07300
C 	C 	0.64218 0.12458 0.12602 -0.14400
C 	C 	0.87398 0.49856 0.01616 -0.21800
C 	C 	0.52110 0.98845 0.29607 -0.50100
C 	C 	0.99910 0.25891 0.87459 -0.64600
C 	C 	0.03568 0.17545 0.41821 -0.61600
C 	C 	0.66415 0.01862 0.55027 -0.03600
C 	C 	0.42531 0.48016 0.69463 -0.71100
C 	C 	0.03265 0.02110 0.22503 -0.65300
C 	C 	0.07560 0.81950 0.70570 -0.05100
C 	C 	0.29430 0.68050 0.92440 -0.17700
C 	C 	0.97662 0.78628 0.97138 0.21200
C 	C 	0.37542 0.51760 0.50144 -0.15000
C 	C 	0.49119 0.52950 0.16531 0.03700
C 	C 	0.37549 0.61568 0.87459 -0.94300
C 	C 	0.04570 0.00680 0.92670 0.34400
C 	C 	0.86700 0.23400 0.61700 0.01000
C 	C 	0.62602 0.64218 0.62458 -0.15000
C 	C 	0.82949 0.78539 0.84640 0.25000
C 	C 	0.12541 0.24109 0.00090 -1.16700
C 	C 	0.44830 0.17830 0.73780 -0.34800
C 	C 	0.29020 0.74440 0.63900 0.39200
C 	C 	0.11747 0.36023 0.03568 -0.60500
C 	C 	0.98845 0.79607 0.02110 -0.52400
C 	C 	0.47791 0.90735 0.81566 -0.54400
C 	C 	0.59169 0.92944 0.40735 -0.45800
C 	C 	0.49320 0.45430 0.57330 0.40900
C 	C 	0.45420 0.10540 0.74440 0.35800
C 	C 	0.73000 0.28950 0.05170 -0.36400
C 	C 	0.12320 0.06160 0.31160 -0.64900
C 	C 	0.21372 0.68510 0.19034 0.25000
C 	C 	0.50881 0.47050 0.83469 0.03800
C 	C 	0.46835 0.94973 0.11388 -0.00100
C 	C 	0.49119 0.96169 0.82588 0.09500
C 	C 	0.11568 0.24019 0.24109 -0.90600
C 	C 	0.94252 0.34682 0.87814 -0.54400
C 	C 	0.67412 0.16531 0.63581 0.03700
C 	C 	0.91990 0.42670 0.88100 0.40700
C 	C 	0.25560 0.86100 0.20980 0.39200
C 	C 	0.55950 0.23780 0.28950 -0.31400
C 	C 	0.31950 0.74390 0.61380 -0.11700
C 	C 	0.31566 0.47791 0.40735 -0.48700
C 	C 	0.57330 0.95430 0.49320 0.39200
C 	C 	0.42531 0.94515 0.23068 -0.65700
C 	C 	0.05950 0.28950 0.23780 -0.29400
C 	C 	0.48016 0.28553 0.05485 -0.76300
C 	C 	0.97138 0.28628 0.97662 0.21000
C 	C 	0.78628 0.47138 0.47662 0.24400
C 	C 	0.20980 0.36100 0.25560 0.39700
C 	C 	0.50680 0.96110 0.58010 0.38900
C 	C 	0.78950 0.55950 0.73780 -0.32500
C 	C 	0.56101 0.54410 0.71461 0.25700
C 	C 	0.57560 0.70570 0.81950 -0.11000
C 	C 	0.28950 0.73780 0.55950 -0.31900
C 	C 	0.83775 0.92944 0.52209 -0.46000
C 	C 	0.67051 0.51691 0.95590 0.21200
C 	C 	0.46835 0.51862 0.85447 0.04500
C 	C 	0.67412 0.50881 0.53831 0.03700
C 	C 	0.42670 0.38100 0.41990 0.40900
C 	C 	0.90735 0.59169 0.42944 -0.54400
C 	C 	0.38100 0.91990 0.92670 0.40500
C 	C 	0.86419 0.32588 0.33469 0.04300
C 	C 	0.95590 0.93899 0.78539 0.22300
C 	C 	0.69034 0.21372 0.18510 0.25200
C 	C 	0.48138 0.83585 0.94973 0.01600
C 	C 	0.23068 0.78553 0.30537 -0.71000
C 	C 	0.16531 0.13581 0.17412 0.02700
C 	C 	0.88612 0.55027 0.53165 0.05400
C 	C 	0.57056 0.66225 0.97791 -0.58000
C 	C 	0.84640 0.28539 0.82949 0.25100
C 	C 	0.03265 0.01155 0.30762 -0.70300
C 	C 	0.23780 0.78950 0.05950 -0.30100
C 	C 	0.55170 0.73000 0.78950 -0.33000
C 	C 	0.63581 0.97050 0.46169 0.00600
C 	C 	0.30537 0.28553 0.23068 -0.70900
C 	C 	0.01155 0.20393 0.97890 -0.62400
C 	C 	0.35782 0.87542 0.87398 -0.15400
C 	C 	0.78628 0.31490 0.80966 0.24300
C 	C 	0.08010 0.50680 0.46110 0.40800
C 	C 	0.98240 0.85782 0.48384 -0.07000
C 	C 	0.28553 0.73068 0.80537 -0.70600
C 	C 	0.36100 0.75560 0.70980 0.39200
C 	C 	0.13977 0.38253 0.46432 -0.70600
C 	C 	0.01984 0.07469 0.80537 -0.76800
C 	C 	0.12451 0.99910 0.24019 -0.58800
C 	C 	0.88100 0.92670 0.91990 0.40400
C 	C 	0.81566 0.40735 0.47791 -0.49200
C 	C 	0.38612 0.53165 0.55027 0.04300
C 	C 	0.49856 0.51616 0.37398 -0.15000
C 	C 	0.79020 0.15120 0.54580 0.39500
C 	C 	0.14553 0.16415 0.11388 0.02700
C 	C 	0.55485 0.07469 0.26932 -0.69900
C 	C 	0.17051 0.21461 0.15360 0.26500
C 	C 	0.25724 0.63977 0.67545 -0.70700
C 	C 	0.32170 0.27000 0.05950 -0.29100
C 	C 	0.86700 0.63300 0.75000 0.00500
C 	C 	0.04580 0.25560 0.89460 0.30600
C 	C 	0.11380 0.31950 0.24390 -0.12900
C 	C 	0.63300 0.25000 0.36700 0.01500
C 	C 	0.21372 0.52862 0.52338 0.24900
C 	C 	0.11900 0.04570 0.53890 0.42600
C 	C 	0.14218 0.01616 0.51760 -0.22000
C 	C 	0.01862 0.05027 0.16415 -0.00700
C 	C 	0.95430 0.99320 0.07330 0.47400
C 	C 	0.65318 0.62186 0.55748 -0.50300
C 	C 	0.78553 0.80537 0.73068 -0.70800
C 	C 	0.64218 0.51760 0.01616 -0.21900
C 	C 	0.46110 0.00680 0.08010 0.32000
C 	C 	0.42944 0.09169 0.90735 -0.53200
C 	C 	0.81566 0.40831 0.83775 -0.49400
C 	C 	0.86023 0.61747 0.53568 -0.70700
C 	C 	0.78539 0.34640 0.32949 0.25700
C 	C 	0.01616 0.99856 0.87398 -0.13500
C 	C 	0.46868 0.84682 0.90430 -0.47700
C 	C 	0.01155 0.80762 0.53265 -0.64100
C 	C 	0.00881 0.83469 0.47050 -0.05000
C 	C 	0.01760 0.87542 0.00144 -0.30900
C 	C 	0.57056 0.90831 0.09265 -0.45000
C 	C 	0.61388 0.46835 0.44973 0.04300
C 	C 	0.25000 0.81160 0.18840 -0.67800
C 	C 	0.76932 0.21447 0.69463 -0.71400
C 	C 	0.75891 0.25981 0.88432 -0.90200
C 	C 	0.74440 0.13900 0.79020 0.39300
C 	C 	0.62186 0.05748 0.15318 -0.46500
C 	C 	0.51760 0.00144 0.87542 -0.23700
C 	C 	0.46110 0.45430 0.88100 0.40700
C 	C 	0.69238 0.48845 0.96735 -0.51400
C 	C 	0.43840 0.06160 0.75000 -0.63700
C 	C 	0.99476 0.02338 0.30966 0.34100
C 	C 	0.37398 0.01616 0.49856 -0.22100
C 	C 	0.83469 0.97050 0.50881 0.00600
C 	C 	0.46735 0.69238 0.98845 -0.50500
C 	C 	0.26220 0.94050 0.21050 -0.33500
C 	C 	0.75560 0.20980 0.86100 0.39000
C 	C 	0.13300 0.76600 0.38300 0.01700
C 	C 	0.05950 0.77000 0.32170 -0.30000
C 	C 	0.11900 0.07330 0.08010 0.41000
C 	C 	0.44973 0.48138 0.33585 0.04300
C 	C 	0.81490 0.52862 0.00524 0.20300
C 	C 	0.69238 0.20393 0.22503 -0.57700
C 	C 	0.01691 0.17051 0.45590 0.17500
C 	C 	0.31490 0.00524 0.52862 0.20300
C 	C 	0.18510 0.47138 0.99476 0.28900
C 	C 	0.75610 0.18050 0.88620 -0.11200
C 	C 	0.84880 0.89460 0.63900 0.42100
C 	C 	0.75610 0.57560 0.36990 -0.11700
C 	C 	0.11747 0.75724 0.58179 -0.69700
C 	C 	0.94050 0.23000 0.67830 -0.33700
C 	C 	0.78539 0.43899 0.95590 0.21100
C 	C 	0.98016 0.05485 0.28553 -0.68700
C 	C 	0.88300 0.75000 0.11700 0.01400
C 	C 	0.67830 0.73000 0.94050 -0.34500
C 	C 	0.92944 0.02209 0.33775 -0.36500
C 	C 	0.53132 0.15318 0.09570 -0.53300
C 	C 	0.32588 0.83469 0.36419 0.03800
C 	C 	0.36419 0.02950 0.53831 0.07000
C 	C 	0.73068 0.42531 0.44515 -0.70900
C 	C 	0.61380 0.24390 0.31950 -0.12000
C 	C 	0.67545 0.13977 0.25724 -0.70700
C 	C 	0.16225 0.07056 0.47791 -0.51400
C 	C 	0.38300 0.11700 0.75000 -0.03600
C 	C 	0.12451 0.12541 0.38432 -0.86100
C 	C 	0.59570 0.53132 0.65318 -0.50300
C 	C 	0.79607 0.27497 0.80762 -0.57000
C 	C 	0.62458 0.48240 0.49856 -0.15000
C 	C 	0.16415 0.61388 0.64553 0.04100
C 	C 	0.55170 0.82170 0.26220 -0.28700
C 	C 	0.83469 0.86419 0.82588 0.04600
C 	C 	0.85782 0.98384 0.48240 -0.08100
C 	C 	0.53890 0.99320 0.91990 0.48600
C 	C 	0.85782 0.87398 0.87542 -0.15400
C 	C 	0.75000 0.13300 0.86700 0.01200
C 	C 	0.12458 0.62602 0.14218 -0.14500
C 	C 	0.53165 0.48138 0.14553 0.04000
C 	C 	0.48016 0.19463 0.92531 -0.72900
C 	C 	0.98309 0.82949 0.54410 0.33800
C 	C 	0.18050 0.38620 0.25610 -0.12400
C 	C 	0.37459 0.37549 0.11568 -0.90700
C 	C 	0.24276 0.91821 0.38253 -0.65900
C 	C 	0.71461 0.67051 0.65360 0.25700
C 	C 	0.75981 0.50090 0.87549 -0.90000
C 	C 	0.20570 0.07560 0.31950 -0.06000
C 	C 	0.28553 0.55485 0.98016 -0.64000
C 	C 	0.51862 0.16415 0.05027 0.07400
C 	C 	0.05170 0.78950 0.73000 -0.36800
C 	C 	0.06160 0.25000 0.93840 -0.68000
C 	C 	0.79020 0.63900 0.74440 0.38900
C 	C 	0.52862 0.02338 0.71372 0.30100
C 	C 	0.54410 0.21461 0.06101 0.24600
C 	C 	0.52110 0.53265 0.72503 -0.57200
C 	C 	0.82588 0.46169 0.49119 0.04100
C 	C 	0.79607 0.52110 0.48845 -0.57100
C 	C 	0.89460 0.13900 0.34880 0.43500
C 	C 	0.99119 0.16531 0.52950 0.12800
C 	C 	0.94830 0.21050 0.27000 -0.26800
C 	C 	0.57330 0.61900 0.58010 0.40900
C 	C 	0.56438 0.09570 0.94252 -0.56900
C 	C 	0.63581 0.66531 0.67412 0.03800
C 	C 	0.03890 0.91990 0.99320 0.50000
C 	C 	0.30762 0.79607 0.77497 -0.57000
C 	C 	0.07330 0.49320 0.95430 0.39400
C 	C 	0.30762 0.51155 0.03265 -0.63300
C 	C 	0.44515 0.92531 0.73068 -0.72500
C 	C 	0.82455 0.08179 0.46432 -0.74900
C 	C 	0.61747 0.03568 0.36023 -0.61200
C 	C 	0.96868 0.06438 0.62186 -0.63000
C 	C 	0.28628 0.47662 0.47138 0.24600
C 	C 	0.96868 0.90430 0.84682 -0.55400
C 	C 	0.40831 0.33775 0.31566 -0.48600
C 	C 	0.12458 0.49856 0.48240 -0.14500
C 	C 	0.06160 0.81160 0.62320 -0.63100
C 	C 	0.41990 0.88100 0.42670 0.40700
C 	C 	0.88432 0.12451 0.62541 -0.90200
C 	C 	0.55485 0.48016 0.78553 -0.71100
C 	C 	0.74390 0.11380 0.81950 -0.12100
C 	C 	0.25891 0.37459 0.49910 -0.90200
C 	C 	0.00524 0.02862 0.81490 0.18700
C 	C 	0.00144 0.62602 0.48384 -0.23900
C 	C 	0.18050 0.79430 0.42440 -0.12000
C 	C 	0.71372 0.19034 0.68510 0.24700
C 	C 	0.72503 0.69238 0.70393 -0.57200
C 	C 	0.35447 0.46835 0.01862 -0.03700
C 	C 	0.38432 0.75891 0.75981 -0.90100
C 	C 	0.21050 0.77000 0.44830 -0.31600
C 	C 	0.22503 0.52110 0.03265 -0.63300
C 	C 	0.97050 0.00881 0.33469 -0.08200
C 	C 	0.25000 0.38300 0.61700 0.01500
C 	C 	0.83585 0.38612 0.35447 0.04400
C 	C 	0.48240 0.99856 0.12458 -0.05200
C 	C 	0.55950 0.32170 0.77000 -0.32100
C 	C 	0.75560 0.54580 0.39460 0.39100
C 	C 	0.58179 0.32455 0.96432 -0.79900
C 	C 	0.14553 0.98138 0.53165 0.12000
C 	C 	0.05170 0.26220 0.82170 -0.32600
C 	C 	0.54570 0.92670 0.00680 0.32800
C 	C 	0.76600 0.88300 0.63300 0.05700
C 	C 	0.83775 0.90831 0.81566 -0.50500
C 	C 	0.96432 0.13977 0.88253 -0.80400
C 	C 	0.36023 0.53568 0.61747 -0.70600
C 	C 	0.95420 0.74440 0.10540 0.48000
C 	C 	0.70570 0.38620 0.13010 -0.08100
C 	C 	0.37398 0.35782 0.37542 -0.15000
C 	C 	0.75000 0.61700 0.38300 0.01200
C 	C 	0.20393 0.72503 0.19238 -0.57600
C 	C 	0.61380 0.36990 0.79430 -0.11500
C 	C 	0.24440 0.79020 0.13900 0.39500
C 	C 	0.89460 0.75560 0.04580 0.30900
C 	C 	0.90735 0.31566 0.97791 -0.63600
C 	C 	0.88620 0.20570 0.63010 -0.11200
C 	C 	0.61900 0.53890 0.04570 0.42500
C 	C 	0.94515 0.73068 0.92531 -0.67700
C 	C 	0.57469 0.51984 0.30537 -0.71200
C 	C 	0.62602 0.98384 0.50144 -0.08000
C 	C 	0.51984 0.80537 0.07469 -0.69500
C 	C 	0.61700 0.73400 0.86700 0.00300
C 	C 	0.13900 0.84880 0.39460 0.39200
C 	C 	0.44050 0.76220 0.71050 -0.32200
C 	C 	0.66531 0.49119 0.02950 0.06900
C 	C 	0.27000 0.55950 0.82170 -0.28500
C 	C 	0.51984 0.71447 0.94515 -0.66300
C 	C 	0.63900 0.24440 0.29020 0.39400
C 	C 	0.07056 0.09265 0.90831 -0.47700
C 	C 	0.06438 0.12186 0.46868 -0.54500
C 	C 	0.15318 0.59570 0.03132 -0.42200
C 	C 	0.01616 0.01760 0.64218 -0.29800
C 	C 	0.96110 0.88100 0.45430 0.38700
C 	C 	0.96735 0.98845 0.69238 -0.44800
C 	C 	0.76220 0.55170 0.32170 -0.32100
C 	C 	0.51155 0.97890 0.20393 -0.55600
C 	C 	0.43899 0.45590 0.28539 0.25800
C 	C 	0.70980 0.25560 0.36100 0.39400
C 	C 	0.19034 0.00524 0.47662 0.20500
C 	C 	0.50090 0.37549 0.25981 -0.90900
C 	C 	0.37680 0.68840 0.93840 -0.71900
C 	C 	0.80762 0.77497 0.79607 -0.56900
C 	C 	0.16531 0.02950 0.49119 0.06900
C 	C 	0.88432 0.75981 0.75891 -0.89800
C 	C 	0.37814 0.43562 0.03132 -0.42100
C 	C 	0.75724 0.67545 0.63977 -0.70700
C 	C 	0.86990 0.11380 0.29430 -0.16400
C 	C 	0.24109 0.74019 0.11568 -0.90100
C 	C 	0.87542 0.50144 0.51760 -0.15400
C 	C 	0.36100 0.60540 0.15120 0.39800
C 	C 	0.61388 0.14553 0.66415 0.04000
C 	C 	0.12186 0.96868 0.56438 -0.57800
C 	C 	0.48384 0.12602 0.00144 -0.24000
C 	C 	0.27497 0.96735 0.47890 -0.51300
C 	C 	0.82170 0.05950 0.27000 -0.26200
C 	C 	0.82588 0.36419 0.83469 0.04100
C 	C 	0.53265 0.22503 0.02110 -0.59400
C 	C 	0.76932 0.55485 0.57469 -0.71400
C 	C 	0.88612 0.33585 0.85447 0.05700
C 	C 	0.30966 0.52338 0.99476 0.28800
C 	C 	0.01691 0.84640 0.06101 0.16400
C 	C 	0.92670 0.41990 0.38100 0.40600
C 	C 	0.60540 0.65120 0.86100 0.38600
C 	C 	0.13977 0.75724 0.17545 -0.70900
C 	C 	0.23000 0.05170 0.28950 -0.35500
C 	C 	0.98240 0.12458 0.99856 0.02100
C 	C 	0.46432 0.88253 0.13977 -0.71700
C 	C 	0.30537 0.01984 0.57469 -0.78500
C 	C 	0.77000 0.94830 0.71050 -0.28600
C 	C 	0.94830 0.73780 0.17830 -0.31000
C 	C 	0.63300 0.38300 0.76600 0.01000
C 	C 	0.03165 0.14553 0.48138 0.09500
C 	C 	0.93562 0.87814 0.53132 -0.46100
C 	C 	0.33469 0.50881 0.97050 0.00500
C 	C 	0.05748 0.40430 0.43562 -0.46700
C 	C 	0.56160 0.93840 0.25000 -0.72200
C 	C 	0.02209 0.83775 0.42944 -0.39600
C 	C 	0.44973 0.96835 0.61388 -0.01100
C 	C 	0.72503 0.03265 0.52110 -0.63200
C 	C 	0.59570 0.06438 0.44252 -0.55300
C 	C 	0.36700 0.61700 0.23400 0.01800
C 	C 	0.75000 0.18840 0.81160 -0.67700
C 	C 	0.70393 0.19238 0.72503 -0.57400
C 	C 	0.97791 0.16225 0.57056 -0.58000
C 	C 	0.19238 0.22503 0.20393 -0.57800
C 	C 	0.86419 0.53831 0.02950 0.07400
C 	C 	0.62541 0.62451 0.88432 -0.89700
C 	C 	0.97662 0.19034 0.50524 0.19300
C 	C 	0.05485 0.78553 0.48016 -0.76200
C 	C 	0.09169 0.68434 0.66225 -0.47500
C 	C 	0.24440 0.45420 0.60540 0.39400
C 	C 	0.90430 0.55748 0.93562 -0.42600
C 	C 	0.16415 0.55027 0.01862 -0.03600
C 	C 	0.90430 0.34682 0.46868 -0.47000
C 	C 	0.97890 0.27497 0.46735 -0.55400
C 	C 	0.35447 0.88612 0.83585 0.05500
C 	C 	0.21461 0.56101 0.04410 0.30400
C 	C 	0.75000 0.56160 0.43840 -0.67700
C 	C 	0.68840 0.43840 0.87680 -0.66200
C 	C 	0.03568 0.86023 0.11747 -0.61300
C 	C 	0.53265 0.30762 0.01155 -0.64400
C 	C 	0.08179 0.11747 0.25724 -0.74400
C 	C 	0.51616 0.87398 0.99856 -0.06800
C 	C 	0.99910 0.74019 0.62451 -0.59500
C 	C 	0.23400 0.11700 0.36700 -0.03500
C 	C 	0.91821 0.88253 0.74276 -0.67100
C 	C 	0.37814 0.94252 0.84682 -0.53800
C 	C 	0.68434 0.16225 0.59169 -0.48500
C 	C 	0.11388 0.44973 0.46835 0.03100
C 	C 	0.44515 0.51984 0.21447 -0.71300
C 	C 	0.17545 0.25724 0.13977 -0.70900
C 	C 	0.03132 0.93562 0.37814 -0.37600
C 	C 	0.62451 0.24019 0.99910 -0.59200
C 	C 	0.91821 0.03568 0.67545 -0.57300
C 	C 	0.80537 0.57469 0.01984 -0.78100
C 	C 	0.80762 0.03265 0.51155 -0.63100
C 	C 	0.92944 0.90735 0.09169 -0.49800
C 	C 	0.73780 0.05950 0.78950 -0.30500
C 	C 	0.13900 0.29020 0.24440 0.39900
C 	C 	0.91990 0.49320 0.53890 0.40800
C 	C 	0.77497 0.29607 0.30762 -0.57200
C 	C 	0.00090 0.25981 0.37549 -1.21500
C 	C 	0.28539 0.95590 0.43899 0.21000
C 	C 	0.48309 0.93899 0.15360 0.27400
C 	C 	0.46169 0.47050 0.63581 0.03800
C 	C 	0.51760 0.51616 0.14218 -0.14900
C 	C 	0.98138 0.03165 0.64553 0.17300
C 	C 	0.65360 0.48309 0.43899 0.25700
C 	C 	0.08179 0.96432 0.32455 -0.84400
C 	C 	0.43899 0.98309 0.65360 0.34100
C 	C 	0.74276 0.38253 0.91821 -0.66100
C 	C 	0.63977 0.46432 0.38253 -0.70600
C 	C 	0.39460 0.34880 0.13900 0.39900
C 	C 	0.43562 0.53132 0.87814 -0.50900
C 	C 	0.86100 0.70980 0.75560 0.38700
C 	C 	0.11568 0.87549 0.37459 -0.90200
C 	C 	0.38620 0.63010 0.20570 -0.12200
C 	C 	0.38253 0.41821 0.24276 -0.70600
C 	C 	0.87549 0.87459 0.61568 -0.93900
C 	C 	0.47791 0.57056 0.16225 -0.48500
C 	C 	0.96432 0.82455 0.58179 -0.79400
C 	C 	0.21447 0.19463 0.26932 -0.71700
C 	C 	0.41821 0.74276 0.88253 -0.71400
C 	C 	0.88253 0.63977 0.96432 -0.80400
C 	C 	0.45590 0.78539 0.93899 0.26600
C 	C 	0.65360 0.17051 0.71461 0.26000
C 	C 	0.65318 0.03132 0.59570 -0.42100
C 	C 	0.70393 0.51155 0.47890 -0.57300
C 	C 	0.57469 0.05485 0.76932 -0.76600
C 	C 	0.74019 0.12451 0.49910 -0.90000
C 	C 	0.34682 0.96868 0.40430 -0.58600
C 	C 	0.78950 0.23000 0.55170 -0.32100
C 	C 	0.25000 0.86700 0.13300 0.01400
C 	C 	0.18434 0.59169 0.16225 -0.48000
C 	C 	0.48240 0.48384 0.85782 -0.15000
C 	C 	0.23000 0.17830 0.44050 -0.34600
C 	C 	0.11700 0.25000 0.88300 0.01600
C 	C 	0.51691 0.06101 0.84640 0.24300
C 	C 	0.26220 0.32170 0.55170 -0.31600
C 	C 	0.02110 0.29607 0.98845 -0.52200
C 	C 	0.15120 0.10540 0.36100 0.36100
C 	C 	0.50524 0.69034 0.97662 0.19400
C 	C 	0.34880 0.63900 0.89460 0.42900
C 	C 	0.47890 0.01155 0.70393 -0.64300
C 	C 	0.47138 0.97662 0.28628 0.19000
C 	C 	0.36023 0.82455 0.24276 -0.70300
C 	C 	0.90831 0.31566 0.33775 -0.50000
C 	C 	0.81950 0.61380 0.74390 -0.11200
C 	C 	0.54580 0.65120 0.79020 0.38700
C 	C 	0.32455 0.86023 0.74276 -0.70600
C 	C 	0.29607 0.80762 0.27497 -0.57300
C 	C 	0.53568 0.41821 0.17545 -0.70900
C 	C 	0.23780 0.44830 0.67830 -0.31600
C 	C 	0.87814 0.03132 0.43562 -0.42900
C 	C 	0.06101 0.71461 0.54410 0.24500
C 	C 	0.02338 0.21372 0.02862 0.28300
C 	C 	0.50090 0.12541 0.74109 -0.86200
C 	C 	0.79430 0.86990 0.61380 -0.14500
C 	C 	0.02209 0.18434 0.09265 -0.33600
C 	C 	0.42670 0.04570 0.50680 0.42600
C 	C 	0.19463 0.76932 0.71447 -0.71700
C 	C 	0.34640 0.51691 0.56101 0.25700
C 	C 	0.98309 0.15360 0.93899 0.35500
C 	C 	0.48384 0.35782 0.98240 -0.06700
C 	C 	0.99119 0.82588 0.96169 0.17600
C 	C 	0.25560 0.39460 0.54580 0.39400
C 	C 	0.96735 0.97890 0.77497 -0.49600
C 	C 	0.44252 0.56438 0.59570 -0.50300
C 	C 	0.24276 0.32455 0.36023 -0.70600
C 	C 	0.94050 0.71050 0.76220 -0.34300
C 	C 	0.04410 0.06101 0.21461 0.29400
C 	C 	0.51616 0.64218 0.01760 -0.23000
C 	C 	0.24019 0.74109 0.61568 -0.90100
C 	C 	0.04410 0.98309 0.32949 0.38800
C 	C 	0.25981 0.87549 0.50090 -0.90300
C 	C 	0.26932 0.69463 0.21447 -0.71500
C 	C 	0.10540 0.86100 0.65120 0.35100
C 	C 	0.56160 0.62320 0.81160 -0.67400
C 	C 	0.12541 0.88432 0.62451 -0.85600
C 	C 	0.40735 0.42944 0.59169 -0.48700
C 	C 	0.02950 0.99119 0.66531 0.15600
C 	C 	0.50680 0.54570 0.42670 0.40900
C 	C 	0.47050 0.13581 0.96169 0.09200
C 	C 	0.71372 0.52338 0.52862 0.24700
C 	C 	0.52209 0.42944 0.83775 -0.48900
C 	C 	0.95590 0.01691 0.67051 0.13100
C 	C 	0.36700 0.75000 0.63300 0.01200
C 	C 	0.96169 0.32588 0.99119 0.18300
C 	C 	0.61747 0.58179 0.75724 -0.70700
C 	C 	0.84682 0.44252 0.37814 -0.50500
C 	C 	0.47890 0.46735 0.27497 -0.57400
C 	C 	0.45430 0.07330 0.99320 0.49600
C 	C 	0.07469 0.30537 0.51984 -0.69700
C 	C 	0.33469 0.82588 0.86419 0.04500
C 	C 	0.03831 0.36419 0.52950 -0.02200
C 	C 	0.40735 0.97791 0.31566 -0.58400
C 	C 	0.79430 0.92440 0.68050 -0.17000
C 	C 	0.32949 0.84640 0.78539 0.25200
C 	C 	0.67051 0.15360 0.21461 0.26300
C 	C 	0.17545 0.91821 0.53568 -0.66200
C 	C 	0.53831 0.52950 0.36419 0.03800
C 	C 	0.33585 0.98138 0.44973 0.12400
C 	C 	0.38432 0.62541 0.12451 -0.90500
C 	C 	0.02338 0.80966 0.49476 0.29800
C 	C 	0.53890 0.54570 0.11900 0.41000
C 	C 	0.74440 0.60540 0.45420 0.39200
C 	C 	0.74109 0.11568 0.74019 -0.90000
C 	C 	0.99476 0.97138 0.18510 0.31100
C 	C 	0.99856 0.37398 0.51616 -0.05900
C 	C 	0.56101 0.01691 0.34640 0.17000
C 	C 	0.93899 0.65360 0.98309 0.34900
C 	C 	0.48845 0.46735 0.19238 -0.57500
C 	C 	0.24109 0.50090 0.62541 -0.90400
C 	C 	0.94973 0.33585 0.48138 0.01000
C 	C 	0.39460 0.04580 0.75560 0.27100
C 	C 	0.93840 0.18840 0.37680 -0.72500
C 	C 	0.27497 0.30762 0.29607 -0.57400
C 	C 	0.62186 0.56438 0.96868 -0.58300
C 	C 	0.31160 0.56160 0.12320 -0.69400
C 	C 	0.76220 0.21050 0.94050 -0.33800
C 	C 	0.26932 0.57469 0.55485 -0.71500
C 	C 	0.77497 0.47890 0.96735 -0.51300
C 	C 	0.35782 0.48240 0.98384 -0.08000
C 	C 	0.17412 0.63581 0.16531 0.03300
C 	C 	0.88100 0.95430 0.46110 0.39100
C 	C 	0.68434 0.52209 0.59265 -0.48700
C 	C 	0.73068 0.30537 0.78553 -0.70900
C 	C 	0.73000 0.44050 0.17830 -0.35400
C 	C 	0.44252 0.87814 0.34682 -0.51000
C 	C 	0.98384 0.98240 0.35782 -0.00200
C 	C 	0.00881 0.17412 0.03831 -0.11000
C 	C 	0.87680 0.93840 0.68840 -0.70200
C 	C 	0.73780 0.67830 0.44830 -0.32000
C 	C 	0.22503 0.70393 0.69238 -0.57400
C 	C 	0.02862 0.71372 0.02338 0.28200
C 	C 	0.43840 0.37680 0.18840 -0.68200
C 	C 	0.98384 0.00144 0.12602 -0.16500
C 	C 	0.18434 0.59265 0.52209 -0.48200
C 	C 	0.03132 0.09570 0.15318 -0.45100
C 	C 	0.38253 0.96432 0.63977 -0.79700
C 	C 	0.25981 0.38432 0.25891 -0.90600
C 	C 	0.46169 0.99119 0.32588 0.13000
C 	C 	0.13581 0.46169 0.97050 0.00100
C 	C 	0.82949 0.04410 0.48309 0.30100
C 	C 	0.38620 0.75610 0.68050 -0.11700
C 	C 	0.85447 0.01862 0.46835 -0.03300
C 	C 	0.34640 0.82949 0.28539 0.25500
C 	C 	0.41821 0.67545 0.03568 -0.61700
C 	C 	0.71447 0.26932 0.19463 -0.71900
C 	C 	0.55748 0.43562 0.40430 -0.50200
C 	C 	0.38300 0.26600 0.13300 0.02500
C 	C 	0.87398 0.37542 0.35782 -0.15000
C 	C 	0.48845 0.02110 0.79607 -0.59000
C 	C 	0.99320 0.41990 0.03890 0.51100
C 	C 	0.75891 0.49910 0.37459 -0.90000
C 	C 	0.18510 0.71372 0.69034 0.25000
C 	C 	0.00524 0.97662 0.69034 0.15400
C 	C 	0.33585 0.35447 0.38612 0.04200
C 	C 	0.05485 0.26932 0.07469 -0.74900
C 	C 	0.68510 0.99476 0.47138 0.28800
C 	C 	0.04580 0.79020 0.65120 0.26300
C 	C 	0.52950 0.86419 0.03831 -0.01000
C 	C 	0.07469 0.76932 0.05485 -0.75000
C 	C 	0.81490 0.28628 0.30966 0.24300
C 	C 	0.25610 0.88620 0.18050 -0.11400
C 	C 	0.11700 0.86700 0.73400 -0.04700
C 	C 	0.93899 0.28539 0.45590 0.26900
C 	C 	0.49910 0.87459 0.25891 -0.94500
C 	C 	0.51155 0.53265 0.80762 -0.57200
C 	C 	0.92440 0.18050 0.29430 -0.18700
C 	C 	0.81160 0.68840 0.75000 -0.67400
C 	C 	0.13300 0.36700 0.25000 0.02200
C 	C 	0.38612 0.85447 0.33585 0.04500
C 	C 	0.46868 0.62186 0.06438 -0.55000
C 	C 	0.48309 0.54410 0.82949 0.25500
C 	C 	0.00090 0.74109 0.12541 -1.15500
C 	C 	0.52862 0.50524 0.31490 0.24700
C 	C 	0.01862 0.96835 0.35447 -0.08700
C 	C 	0.68050 0.25610 0.38620 -0.11900
C 	C 	0.82455 0.74276 0.86023 -0.70400
C 	C 	0.40430 0.46868 0.34682 -0.50300
C 	C 	0.68510 0.69034 0.71372 0.24700
C 	C 	0.98016 0.92531 0.19463 -0.66400
C 	C 	0.12602 0.50144 0.98384 -0.08100
C 	C 	0.73400 0.36700 0.11700 -0.04100
C 	C 	0.47050 0.33469 0.00881 -0.05400
C 	C 	0.98138 0.94973 0.83585 0.09100
C 	C 	0.81950 0.20570 0.57560 -0.11700
C 	C 	0.86023 0.24276 0.82455 -0.70400
C 	C 	0.29430 0.61380 0.86990 -0.15300
C 	C 	0.31160 0.75000 0.68840 -0.67700
C 	C 	0.06101 0.34640 0.01691 0.16200
C 	C 	0.57560 0.86990 0.25610 -0.15300
C 	C 	0.11380 0.79430 0.36990 -0.12400
C 	C 	0.71461 0.04410 0.56101 0.30400
C 	C 	0.54580 0.89460 0.25560 0.43000
C 	C 	0.92531 0.69463 0.48016 -0.72600
C 	C 	0.02950 0.03831 0.86419 0.02000
C 	C 	0.61900 0.08010 0.07330 0.40900
C 	C 	0.46735 0.77497 0.97890 -0.55300
C 	C 	0.49476 0.18510 0.97138 0.26700
C 	C 	0.58179 0.25724 0.11747 -0.69700
C 	C 	0.75724 0.08179 0.61747 -0.75300
C 	C 	0.40430 0.93562 0.55748 -0.45500
C 	C 	0.54570 0.61900 0.03890 0.42800
C 	C 	0.01984 0.94515 0.71447 -0.73400
C 	C 	0.83585 0.44973 0.98138 0.12200
C 	C 	0.42440 0.29430 0.18050 -0.12700
C 	C 	0.80966 0.81490 0.78628 0.24100
C 	C 	0.06438 0.94252 0.09570 -0.61300
C 	C 	0.45590 0.67051 0.01691 0.17500
C 	C 	0.87549 0.00090 0.75981 -1.18600
C 	C 	0.19463 0.42531 0.98016 -0.64000
C 	C 	0.64553 0.53165 0.98138 0.12100
C 	C 	0.54410 0.32949 0.98309 0.34300
C 	C 	0.31566 0.83775 0.40831 -0.48900
C 	C 	0.15318 0.55748 0.62186 -0.50100
C 	C 	0.87814 0.84682 0.94252 -0.54400
C 	C 	0.99856 0.62458 0.98240 0.01500
C 	C 	0.34880 0.70980 0.95420 0.51300
C 	C 	0.88620 0.68050 0.75610 -0.10700
C 	C 	0.66531 0.17412 0.13581 0.02800
C 	C 	0.74019 0.61568 0.74109 -0.89700
C 	C 	0.25724 0.61747 0.08179 -0.75200
C 	C 	0.19238 0.96735 0.48845 -0.51400
C 	C 	0.63010 0.92440 0.24390 -0.18000
C 	C 	0.25610 0.36990 0.57560 -0.12000
C 	C 	0.61568 0.37459 0.87549 -0.89900
C 	C 	0.93562 0.05748 0.90430 -0.39200
C 	C 	0.84640 0.56101 0.51691 0.25300
C 	C 	0.03831 0.67412 0.00881 -0.10500
C 	C 	0.21447 0.01984 0.44515 -0.78900
C 	C 	0.36990 0.29430 0.11380 -0.13100
C 	C 	0.55027 0.03165 0.38612 0.09900
C 	C 	0.97050 0.96169 0.13581 0.05500
C 	C 	0.09265 0.68434 0.02209 -0.34200
C 	C 	0.52209 0.09265 0.18434 -0.42300
C 	C 	0.44050 0.67830 0.23000 -0.31600
C 	C 	0.48138 0.64553 0.03165 0.09600
C 	C 	0.31490 0.30966 0.28628 0.24600
C 	C 	0.51862 0.35447 0.96835 -0.01300
C 	C 	0.28539 0.32949 0.34640 0.25700
C 	C 	0.88253 0.24276 0.41821 -0.71600
C 	C 	0.46432 0.58179 0.82455 -0.70400
C 	C 	0.07560 0.25610 0.86990 -0.09400
C 	C 	0.71050 0.26220 0.44050 -0.31800
C 	C 	0.94252 0.59570 0.56438 -0.53800
C 	C 	0.98845 0.19238 0.46735 -0.50300
C 	C 	0.49856 0.98240 0.62458 -0.06900
C 	C 	0.87542 0.37398 0.85782 -0.15400
C 	C 	0.67830 0.94830 0.23780 -0.27600
C 	C 	0.81160 0.12320 0.56160 -0.69100
C 	C 	0.33775 0.81566 0.90831 -0.50300
C 	C 	0.66225 0.47791 0.07056 -0.51700
C 	C 	0.47662 0.50524 0.19034 0.24700
C 	C 	0.43562 0.90430 0.05748 -0.43700
C 	C 	0.20570 0.13010 0.38620 -0.08800
C 	C 	0.97890 0.70393 0.01155 -0.62200
C 	C 	0.45430 0.38100 0.96110 0.38800
C 	C 	0.28950 0.55170 0.23000 -0.31400
C 	C 	0.49320 0.03890 0.41990 0.43000
C 	C 	0.02110 0.72503 0.53265 -0.59100
C 	C 	0.52338 0.02862 0.21372 0.23000
C 	C 	0.92670 0.50680 0.04570 0.42200
C 	C 	0.40831 0.07056 0.59265 -0.51700
C 	C 	0.87459 0.75891 0.99910 -0.65700
C 	C 	0.70570 0.31950 0.07560 -0.05500
C 	C 	0.20393 0.47890 0.51155 -0.57600
C 	C 	0.12602 0.62458 0.64218 -0.14900
C 	C 	0.25891 0.88432 0.25981 -0.90300
C 	C 	0.80537 0.23068 0.28553 -0.70700
C 	C 	0.58010 0.11900 0.57330 0.41000
C 	C 	0.24390 0.42440 0.63010 -0.12000
C 	C 	0.32949 0.48309 0.04410 0.30400
C 	C 	0.13010 0.24390 0.92440 -0.14700
C 	C 	0.96110 0.08010 0.00680 0.30500
C 	C 	0.04570 0.03890 0.61900 0.44400
C 	C 	0.05027 0.38612 0.03165 0.12800
C 	C 	0.74276 0.36023 0.32455 -0.70600
C 	C 	0.94973 0.61388 0.96835 -0.04000
C 	C 	0.37549 0.75981 0.00090 -1.19100
C 	C 	0.93840 0.75000 0.06160 -0.67900
C 	C 	0.65120 0.36100 0.10540 0.35400
C 	C 	0.25000 0.43840 0.56160 -0.67900
C 	C 	0.33775 0.52209 0.92944 -0.45600
C 	C 	0.30966 0.78628 0.81490 0.24200
C 	C 	0.36990 0.07560 0.75610 -0.06000
C 	C 	0.61568 0.24109 0.24019 -0.90300
C 	C 	0.58010 0.46110 0.50680 0.40900
C 	C 	0.19034 0.18510 0.21372 0.25200
C 	C 	0.92531 0.23068 0.94515 -0.67400
C 	C 	0.53165 0.05027 0.88612 0.08400
C 	C 	0.21461 0.65360 0.67051 0.25800
C 	C 	0.23068 0.44515 0.42531 -0.71000
C 	C 	0.26600 0.63300 0.88300 0.06500
C 	C 	0.71050 0.44830 0.77000 -0.32200
C 	C 	0.75981 0.25891 0.38432 -0.90300
C 	C 	0.18840 0.87680 0.43840 -0.66500
C 	C 	0.69463 0.71447 0.76932 -0.71500
C 	C 	0.50881 0.03831 0.17412 -0.02700
C 	C 	0.66225 0.18434 0.09169 -0.47000
C 	C 	0.24019 0.49910 0.12451 -0.90400
C 	C 	0.61700 0.88300 0.25000 0.06700
C 	C 	0.16225 0.09169 0.18434 -0.46600
C 	C 	0.56438 0.46868 0.12186 -0.49600
C 	C 	0.15360 0.43899 0.48309 0.26200
C 	C 	0.07056 0.97791 0.66225 -0.60800
C 	C 	0.86100 0.15120 0.60540 0.39400
C 	C 	0.47138 0.49476 0.68510 0.24600
C 	C 	0.09570 0.65318 0.53132 -0.53500
C 	C 	0.12186 0.15318 0.05748 -0.45900
C 	C 	0.84880 0.95420 0.70980 0.50600
C 	C 	0.50144 0.48384 0.62602 -0.15000
C 	C 	0.44830 0.27000 0.21050 -0.30700
C 	C 	0.07330 0.58010 0.61900 0.41000
C 	C 	0.69034 0.47662 0.00524 0.20500
C 	C 	0.65120 0.29020 0.04580 0.26400
C 	C 	0.15120 0.04580 0.29020 0.26700
C 	C 	0.63900 0.39460 0.84880 0.38800
C 	C 	0.27000 0.71050 0.94830 -0.27700
C 	C 	0.14218 0.12602 0.12458 -0.14400
C 	C 	0.50524 0.81490 0.02862 0.22600
C 	C 	0.62320 0.31160 0.06160 -0.63300
C 	C 	0.96835 0.85447 0.51862 -0.00800
C 	C 	0.67545 0.53568 0.91821 -0.66100
O 	O 	0.45732 0.42767 0.43573 -0.46200
O 	O 	0.08274 0.93873 0.00059 -0.58400
O 	O 	0.35599 0.93873 0.93814 -0.52200
O 	O 	0.45732 0.02965 0.52159 -0.47700
O 	O 	0.50059 0.08274 0.43873 -0.55600
O 	O 	0.99941 0.43814 0.58215 -0.49200
O 	O 	0.00059 0.43873 0.08274 -0.60100
O 	O 	0.02159 0.56427 0.99194 -0.42700
O 	O 	0.47841 0.47035 0.54268 -0.46200
O 	O 	0.91726 0.06127 0.99941 -0.48700
O 	O 	0.64401 0.58274 0.08215 -0.55400
O 	O 	0.08215 0.99941 0.93814 -0.49600
O 	O 	0.49941 0.91726 0.56127 -0.53100
O 	O 	0.56186 0.91785 0.50059 -0.53200
O 	O 	0.06427 0.52159 0.49194 -0.46700
O 	O 	0.85599 0.91785 0.41726 -0.53100
O 	O 	0.56427 0.07233 0.54268 -0.46800
O 	O 	0.56427 0.49194 0.52159 -0.46200
O 	O 	0.52965 0.95732 0.02159 -0.43700
O 	O 	0.91726 0.85599 0.41785 -0.53100
O 	O 	0.97035 0.97841 0.04268 -0.45900
O 	O 	0.52159 0.52965 0.45732 -0.46200
O 	O 	0.97841 0.43573 0.00806 -0.49000
O 	O 	0.57233 0.50806 0.02965 -0.47700
O 	O 	0.50806 0.97841 0.93573 -0.45800
O 	O 	0.93814 0.49941 0.08215 -0.54200
O 	O 	0.43573 0.92767 0.45732 -0.45200
O 	O 	0.49941 0.58215 0.43814 -0.54400
O 	O 	0.06127 0.56186 0.14401 -0.55000
O 	O 	0.52965 0.57233 0.00806 -0.48300
O 	O 	0.14401 0.06186 0.06127 -0.55900
O 	O 	0.07233 0.02965 0.50806 -0.48300
O 	O 	0.97035 0.99194 0.42767 -0.41800
O 	O 	0.50059 0.41785 0.56186 -0.54400
O 	O 	0.93873 0.43814 0.85599 -0.53200
O 	O 	0.41785 0.06186 0.00059 -0.59900
O 	O 	0.56186 0.64401 0.56127 -0.54300
O 	O 	0.93814 0.43873 0.35599 -0.53100
O 	O 	0.04268 0.56427 0.57233 -0.47200
O 	O 	0.52159 0.99194 0.56427 -0.43600
O 	O 	0.07233 0.04268 0.06427 -0.48400
O 	O 	0.95732 0.52159 0.02965 -0.46200
O 	O 	0.43814 0.08215 0.49941 -0.55600
O 	O 	0.92767 0.95732 0.93573 -0.43000
O 	O 	0.93573 0.45732 0.92767 -0.44300
O 	O 	0.54268 0.97035 0.47841 -0.44300
O 	O 	0.91785 0.00059 0.06186 -0.58500
O 	O 	0.85599 0.93814 0.93873 -0.52100
O 	O 	0.00806 0.07233 0.52965 -0.49000
O 	O 	0.42767 0.93573 0.95732 -0.43800
O 	O 	0.57233 0.06427 0.04268 -0.47800
O 	O 	0.42767 0.49194 0.97035 -0.44300
O 	O 	0.00059 0.56186 0.41785 -0.59000
O 	O 	0.47841 0.00806 0.43573 -0.48400
O 	O 	0.08215 0.08274 0.64401 -0.56600
O 	O 	0.43873 0.85599 0.43814 -0.54300
O 	O 	0.41726 0.41785 0.85599 -0.54300
O 	O 	0.50806 0.52965 0.07233 -0.46800
O 	O 	0.93573 0.47841 0.50806 -0.45100
O 	O 	0.97841 0.54268 0.47035 -0.46800
O 	O 	0.06186 0.50059 0.91785 -0.54100
O 	O 	0.99194 0.06427 0.02159 -0.43100
O 	O 	0.06186 0.56127 0.64401 -0.55200
O 	O 	0.49194 0.47035 0.92767 -0.45200
O 	O 	0.41785 0.35599 0.91726 -0.53200
O 	O 	0.02965 0.02159 0.95732 -0.45200
O 	O 	0.56127 0.41726 0.49941 -0.54400
O 	O 	0.02159 0.45732 0.52965 -0.45100
O 	O 	0.41726 0.99941 0.06127 -0.49600
O 	O 	0.47035 0.42767 0.99194 -0.43600
O 	O 	0.64401 0.06127 0.06186 -0.55700
O 	O 	0.99941 0.56127 0.91726 -0.48200
O 	O 	0.99194 0.92767 0.47035 -0.42800
O 	O 	0.56127 0.14401 0.56186 -0.54500
O 	O 	0.02965 0.00806 0.57233 -0.49900
O 	O 	0.95732 0.43573 0.42767 -0.44700
O 	O 	0.54268 0.57233 0.56427 -0.46200
O 	O 	0.14401 0.08215 0.58274 -0.55600
O 	O 	0.04268 0.47841 0.97035 -0.45400
O 	O 	0.00806 0.93573 0.97841 -0.47900
O 	O 	0.91785 0.91726 0.35599 -0.52100
O 	O 	0.92767 0.97035 0.49194 -0.43400
O 	O 	0.43573 0.50806 0.47841 -0.46200
O 	O 	0.35599 0.41726 0.91785 -0.53300
O 	O 	0.06127 0.49941 0.41726 -0.55000
O 	O 	0.49194 0.02159 0.06427 -0.45600
O 	O 	0.58215 0.64401 0.08274 -0.55500
O 	O 	0.43873 0.58274 0.50059 -0.54400
O 	O 	0.43814 0.35599 0.43873 -0.54500
O 	O 	0.06427 0.54268 0.07233 -0.47300
O 	O 	0.08274 0.14401 0.58215 -0.55700
O 	O 	0.58215 0.93814 0.99941 -0.48400
O 	O 	0.93873 0.50059 0.58274 -0.53300
O 	O 	0.58274 0.00059 0.93873 -0.57600
O 	O 	0.47035 0.04268 0.97841 -0.47800
O 	O 	0.58274 0.58215 0.14401 -0.54400
