data_crystal

_cell_length_a 24.56210
_cell_length_b 24.56210
_cell_length_c 24.56210
_cell_angle_alpha 60.00000
_cell_angle_beta  60.00000
_cell_angle_gamma 60.00000

_symmetry_space_group_name_	'P 1'
_symmetry_space_group_name_H-M	'P 1'

loop_
_symmetry_equiv_pos_as_xyz
  x,y,z

loop_
_atom_site_label
_atom_site_type_symbol
_atom_site_fract_x
_atom_site_fract_y
_atom_site_fract_z
_atom_site_charge
Zn	Zn	0.75527 0.41491 0.41491 1.18600
Zn	Zn	0.35640 0.35640 0.93080 1.19200
Zn	Zn	0.35640 0.35640 0.35640 1.19200
Zn	Zn	0.41492 0.41491 0.41491 1.18600
Zn	Zn	0.35640 0.93080 0.35640 1.19200
Zn	Zn	0.41492 0.41491 0.75526 1.18600
Zn	Zn	0.93080 0.35640 0.35640 1.19200
Zn	Zn	0.41492 0.75526 0.41491 1.18600
H 	H 	0.03440 0.76020 0.49100 -0.02000
H 	H 	0.50120 0.93700 0.76360 0.09500
H 	H 	0.94050 0.35510 0.01050 -0.00600
H 	H 	0.76020 0.49100 0.03440 -0.02000
H 	H 	0.74650 0.66250 0.45050 0.11200
H 	H 	0.94530 0.37510 0.08330 0.11100
H 	H 	0.36450 0.18310 0.94210 -0.02700
H 	H 	0.78060 0.94380 0.91240 0.10800
H 	H 	0.36320 0.94380 0.78060 0.10700
H 	H 	0.74380 0.24040 0.57620 -0.04100
H 	H 	0.79820 0.50120 0.76360 0.09500
H 	H 	0.94210 0.18310 0.51030 -0.02700
H 	H 	0.50120 0.79820 0.93700 0.09500
H 	H 	0.66250 0.45050 0.74650 0.11200
H 	H 	0.18310 0.51030 0.94210 -0.02800
H 	H 	0.49100 0.03440 0.76020 -0.02100
H 	H 	0.18310 0.36450 0.51030 -0.02700
H 	H 	0.76360 0.50120 0.93700 0.09400
H 	H 	0.36450 0.51030 0.18310 -0.02700
H 	H 	0.51030 0.18310 0.36450 -0.02700
H 	H 	0.74650 0.45050 0.14050 0.11100
H 	H 	0.14050 0.45050 0.66250 0.11100
H 	H 	0.94210 0.51030 0.36450 -0.02700
H 	H 	0.03440 0.49100 0.71440 -0.02100
H 	H 	0.36450 0.94210 0.51030 -0.02700
H 	H 	0.93700 0.50120 0.79820 0.09400
H 	H 	0.79820 0.93700 0.50120 0.09400
H 	H 	0.59630 0.37510 0.94530 0.11000
H 	H 	0.36320 0.91240 0.94380 0.10600
H 	H 	0.71440 0.49100 0.76020 -0.02100
H 	H 	0.51030 0.36450 0.94210 -0.02700
H 	H 	0.76020 0.03440 0.71440 -0.02100
H 	H 	0.91240 0.36320 0.78060 0.10600
H 	H 	0.50120 0.76360 0.79820 0.09400
H 	H 	0.45050 0.66250 0.14050 0.11100
H 	H 	0.71440 0.76020 0.03440 -0.02100
H 	H 	0.14050 0.66250 0.74650 0.11100
H 	H 	0.36320 0.78060 0.91240 0.10600
H 	H 	0.94210 0.36450 0.18310 -0.02800
H 	H 	0.74380 0.57620 0.43960 -0.04200
H 	H 	0.94380 0.91240 0.78060 0.10700
H 	H 	0.01050 0.69390 0.94050 -0.00700
H 	H 	0.43960 0.57620 0.24040 -0.04200
H 	H 	0.69390 0.35510 0.94050 -0.00700
H 	H 	0.94380 0.36320 0.91240 0.10600
H 	H 	0.79820 0.76360 0.93700 0.09400
H 	H 	0.08330 0.94530 0.37510 0.11000
H 	H 	0.74650 0.14050 0.66250 0.11100
H 	H 	0.76360 0.93700 0.79820 0.09400
H 	H 	0.78060 0.36320 0.94380 0.10600
H 	H 	0.59630 0.08330 0.37510 0.11000
H 	H 	0.35510 0.94050 0.69390 -0.00700
H 	H 	0.74380 0.43960 0.24040 -0.04200
H 	H 	0.49100 0.71440 0.03440 -0.02100
H 	H 	0.37510 0.08330 0.94530 0.11000
H 	H 	0.01050 0.94050 0.35510 -0.00700
H 	H 	0.78060 0.91240 0.36320 0.10600
H 	H 	0.57620 0.24040 0.43960 -0.04200
H 	H 	0.24040 0.43960 0.57620 -0.04200
H 	H 	0.71440 0.03440 0.49100 -0.02100
H 	H 	0.18310 0.94210 0.36450 -0.02800
H 	H 	0.76020 0.71440 0.49100 -0.02100
H 	H 	0.35510 0.69390 0.01050 -0.00700
H 	H 	0.43960 0.74380 0.57620 -0.04200
H 	H 	0.24040 0.74380 0.43960 -0.04200
H 	H 	0.35510 0.01050 0.94050 -0.00700
H 	H 	0.24040 0.57620 0.74380 -0.04200
H 	H 	0.08330 0.37510 0.59630 0.11000
H 	H 	0.93700 0.79820 0.76360 0.09400
H 	H 	0.57620 0.74380 0.24040 -0.04200
H 	H 	0.66250 0.14050 0.45050 0.11100
H 	H 	0.94530 0.59630 0.37510 0.11000
H 	H 	0.14050 0.74650 0.45050 0.11100
H 	H 	0.59630 0.94530 0.08330 0.11000
H 	H 	0.69390 0.94050 0.01050 -0.00700
H 	H 	0.45050 0.74650 0.66250 0.11100
H 	H 	0.94380 0.78060 0.36320 0.10600
H 	H 	0.01050 0.35510 0.69390 -0.00700
H 	H 	0.69390 0.01050 0.35510 -0.00700
H 	H 	0.03440 0.71440 0.76020 -0.02100
H 	H 	0.91240 0.78060 0.94380 0.10700
H 	H 	0.37510 0.59630 0.08330 0.11000
H 	H 	0.45050 0.14050 0.74650 0.11100
H 	H 	0.08330 0.59630 0.94530 0.11000
H 	H 	0.37510 0.94530 0.59630 0.11000
H 	H 	0.43960 0.24040 0.74380 -0.04200
H 	H 	0.93700 0.76360 0.50120 0.09400
H 	H 	0.57620 0.43960 0.74380 -0.04200
H 	H 	0.66250 0.74650 0.14050 0.11100
H 	H 	0.94050 0.01050 0.69390 -0.00700
H 	H 	0.51030 0.94210 0.18310 -0.02800
H 	H 	0.76360 0.79820 0.50120 0.09400
H 	H 	0.49100 0.76020 0.71440 -0.02100
H 	H 	0.94530 0.08330 0.59630 0.11000
H 	H 	0.91240 0.94380 0.36320 0.10600
H 	H 	0.94050 0.69390 0.35510 -0.00700
C 	C 	0.59326 0.11514 0.38746 -0.23900
C 	C 	0.71610 0.38370 0.90370 0.08700
C 	C 	0.79920 0.95240 0.77820 -0.22000
C 	C 	0.90414 0.38746 0.11514 -0.23900
C 	C 	0.79756 0.46404 0.01056 0.09800
C 	C 	0.93750 0.76770 0.90610 -0.21400
C 	C 	0.43110 0.91510 0.85310 0.18000
C 	C 	0.84129 0.22273 0.53567 -0.25900
C 	C 	0.64063 0.10097 0.41131 0.17700
C 	C 	0.14899 0.43231 0.63261 -0.24400
C 	C 	0.90370 0.38370 0.99650 0.08800
C 	C 	0.84772 0.03660 0.69540 -0.13800
C 	C 	0.42596 0.78458 0.58050 0.18300
C 	C 	0.38870 0.76770 0.93750 -0.21300
C 	C 	0.80070 0.85310 0.91510 0.18000
C 	C 	0.38130 0.17470 0.90270 0.16800
C 	C 	0.63261 0.14899 0.43231 -0.24400
C 	C 	0.46404 0.01056 0.79756 0.09800
C 	C 	0.85310 0.43110 0.91510 0.18000
C 	C 	0.84129 0.53567 0.40031 -0.25900
C 	C 	0.54130 0.17470 0.38130 0.16800
C 	C 	0.64063 0.84709 0.10097 0.17700
C 	C 	0.99650 0.38370 0.71610 0.08700
C 	C 	0.90414 0.59326 0.38746 -0.23900
C 	C 	0.84772 0.69540 0.42028 -0.13700
C 	C 	0.53567 0.40031 0.84129 -0.25900
C 	C 	0.11514 0.38746 0.59326 -0.23900
C 	C 	0.20896 0.58050 0.78458 0.18400
C 	C 	0.71610 0.90370 0.99650 0.08900
C 	C 	0.38746 0.59326 0.11514 -0.23900
C 	C 	0.83999 0.28763 0.48017 0.52400
C 	C 	0.46404 0.72784 0.01056 0.09800
C 	C 	0.03660 0.84772 0.42028 -0.13700
C 	C 	0.39221 0.48017 0.28763 0.52400
C 	C 	0.84772 0.42028 0.03660 -0.13700
C 	C 	0.79756 0.01056 0.72784 0.09800
C 	C 	0.78458 0.42596 0.20896 0.18400
C 	C 	0.79920 0.77820 0.47020 -0.22000
C 	C 	0.90610 0.76770 0.38870 -0.21300
C 	C 	0.59326 0.38746 0.90414 -0.23900
C 	C 	0.48017 0.83999 0.28763 0.52400
C 	C 	0.38130 0.90270 0.54130 0.16800
C 	C 	0.38746 0.90414 0.59326 -0.23900
C 	C 	0.22273 0.84129 0.40031 -0.25900
C 	C 	0.47020 0.79920 0.77820 -0.22000
C 	C 	0.28763 0.48017 0.83999 0.52400
C 	C 	0.69540 0.42028 0.84772 -0.13700
C 	C 	0.53567 0.84129 0.22273 -0.25900
C 	C 	0.84709 0.10097 0.64063 0.17700
C 	C 	0.78609 0.63261 0.43231 -0.24400
C 	C 	0.90414 0.11514 0.59326 -0.23900
C 	C 	0.43231 0.14899 0.78609 -0.24400
C 	C 	0.63261 0.78609 0.14899 -0.24400
C 	C 	0.78609 0.43231 0.14899 -0.24400
C 	C 	0.20896 0.78458 0.42596 0.18400
C 	C 	0.91510 0.80070 0.85310 0.18000
C 	C 	0.76770 0.38870 0.90610 -0.21300
C 	C 	0.40031 0.22273 0.84129 -0.25900
C 	C 	0.38870 0.90610 0.76770 -0.21300
C 	C 	0.41131 0.64063 0.10097 0.17700
C 	C 	0.93750 0.38870 0.76770 -0.21300
C 	C 	0.14899 0.63261 0.78609 -0.24400
C 	C 	0.80070 0.43110 0.85310 0.17900
C 	C 	0.77820 0.95240 0.47020 -0.21900
C 	C 	0.84129 0.40031 0.22273 -0.25900
C 	C 	0.03660 0.69540 0.84772 -0.13800
C 	C 	0.72784 0.79756 0.01056 0.09800
C 	C 	0.53567 0.22273 0.40031 -0.25900
C 	C 	0.71610 0.99650 0.38370 0.08700
C 	C 	0.38370 0.99650 0.90370 0.08800
C 	C 	0.01056 0.46404 0.72784 0.09800
C 	C 	0.42028 0.69540 0.03660 -0.13700
C 	C 	0.54130 0.90270 0.17470 0.16800
C 	C 	0.80070 0.91510 0.43110 0.17900
C 	C 	0.72784 0.46404 0.79756 0.09800
C 	C 	0.48017 0.39221 0.83999 0.52400
C 	C 	0.72784 0.01056 0.46404 0.09800
C 	C 	0.78458 0.20896 0.58050 0.18400
C 	C 	0.83999 0.48017 0.39221 0.52400
C 	C 	0.42596 0.58050 0.20896 0.18300
C 	C 	0.64063 0.41131 0.84709 0.17700
C 	C 	0.90270 0.54130 0.38130 0.16800
C 	C 	0.58050 0.42596 0.78458 0.18400
C 	C 	0.79756 0.72784 0.46404 0.09800
C 	C 	0.95240 0.47020 0.77820 -0.21900
C 	C 	0.38870 0.93750 0.90610 -0.21300
C 	C 	0.10097 0.41131 0.64063 0.17600
C 	C 	0.83999 0.39221 0.28763 0.52400
C 	C 	0.22273 0.40031 0.53567 -0.25900
C 	C 	0.28763 0.83999 0.39221 0.52400
C 	C 	0.78458 0.58050 0.42596 0.18300
C 	C 	0.90270 0.38130 0.17470 0.16800
C 	C 	0.40031 0.53567 0.22273 -0.25900
C 	C 	0.85310 0.80070 0.43110 0.17900
C 	C 	0.38370 0.90370 0.71610 0.08700
C 	C 	0.99650 0.90370 0.38370 0.08800
C 	C 	0.91510 0.43110 0.80070 0.17900
C 	C 	0.85310 0.91510 0.80070 0.18000
C 	C 	0.78609 0.14899 0.63261 -0.24400
C 	C 	0.17470 0.38130 0.54130 0.16800
C 	C 	0.76770 0.90610 0.93750 -0.21400
C 	C 	0.77820 0.79920 0.95240 -0.22000
C 	C 	0.22273 0.53567 0.84129 -0.25900
C 	C 	0.14899 0.78609 0.43231 -0.24400
C 	C 	0.79920 0.47020 0.95240 -0.22000
C 	C 	0.48017 0.28763 0.39221 0.52400
C 	C 	0.84709 0.41131 0.10097 0.17700
C 	C 	0.99650 0.71610 0.90370 0.08900
C 	C 	0.84709 0.64063 0.41131 0.17700
C 	C 	0.41131 0.84709 0.64063 0.17700
C 	C 	0.46404 0.79756 0.72784 0.09800
C 	C 	0.01056 0.79756 0.46404 0.09800
C 	C 	0.90610 0.93750 0.76770 -0.21400
C 	C 	0.43110 0.80070 0.91510 0.17900
C 	C 	0.69540 0.84772 0.03660 -0.13800
C 	C 	0.95240 0.79920 0.47020 -0.22000
C 	C 	0.39221 0.28763 0.83999 0.52400
C 	C 	0.95240 0.77820 0.79920 -0.22000
C 	C 	0.38370 0.71610 0.99650 0.08700
C 	C 	0.17470 0.90270 0.38130 0.16800
C 	C 	0.38130 0.54130 0.17470 0.16800
C 	C 	0.40031 0.84129 0.53567 -0.25900
C 	C 	0.93750 0.90610 0.38870 -0.21300
C 	C 	0.03660 0.42028 0.69540 -0.13700
C 	C 	0.59326 0.90414 0.11514 -0.23900
C 	C 	0.28763 0.39221 0.48017 0.52300
C 	C 	0.20896 0.42596 0.58050 0.18300
C 	C 	0.11514 0.90414 0.38746 -0.23900
C 	C 	0.43231 0.63261 0.14899 -0.24400
C 	C 	0.39221 0.83999 0.48017 0.52400
C 	C 	0.42028 0.03660 0.84772 -0.13700
C 	C 	0.90270 0.17470 0.54130 0.16800
C 	C 	0.58050 0.20896 0.42596 0.18300
C 	C 	0.43231 0.78609 0.63261 -0.24400
C 	C 	0.42028 0.84772 0.69540 -0.13700
C 	C 	0.42596 0.20896 0.78458 0.18400
C 	C 	0.54130 0.38130 0.90270 0.16800
C 	C 	0.76770 0.93750 0.38870 -0.21300
C 	C 	0.17470 0.54130 0.90270 0.16800
C 	C 	0.41131 0.10097 0.84709 0.17700
C 	C 	0.11514 0.59326 0.90414 -0.23900
C 	C 	0.90370 0.71610 0.38370 0.08700
C 	C 	0.90370 0.99650 0.71610 0.08900
C 	C 	0.43110 0.85310 0.80070 0.17900
C 	C 	0.10097 0.84709 0.41131 0.17700
C 	C 	0.90610 0.38870 0.93750 -0.21300
C 	C 	0.77820 0.47020 0.79920 -0.22000
C 	C 	0.01056 0.72784 0.79756 0.09800
C 	C 	0.58050 0.78458 0.20896 0.18400
C 	C 	0.69540 0.03660 0.42028 -0.13700
C 	C 	0.63261 0.43231 0.78609 -0.24400
C 	C 	0.47020 0.95240 0.79920 -0.22000
C 	C 	0.47020 0.77820 0.95240 -0.21900
C 	C 	0.10097 0.64063 0.84709 0.17700
C 	C 	0.38746 0.11514 0.90414 -0.23900
C 	C 	0.91510 0.85310 0.43110 0.18000
N 	N 	0.85400 0.85400 0.85400 -0.20200
N 	N 	0.85400 0.43800 0.85400 -0.20100
N 	N 	0.43800 0.85400 0.85400 -0.20100
N 	N 	0.85400 0.85400 0.43800 -0.20100
O 	O 	0.37023 0.89357 0.44163 -0.57800
O 	O 	0.78335 0.32751 0.47779 -0.57700
O 	O 	0.29457 0.89357 0.37023 -0.57800
O 	O 	0.89357 0.29457 0.44163 -0.57800
O 	O 	0.32751 0.78335 0.41135 -0.57700
O 	O 	0.78335 0.47779 0.41135 -0.57700
O 	O 	0.47779 0.41135 0.78335 -0.57700
O 	O 	0.78335 0.41135 0.32751 -0.57700
O 	O 	0.41135 0.47779 0.32751 -0.57700
O 	O 	0.37023 0.44163 0.29457 -0.57800
O 	O 	0.29457 0.44163 0.89357 -0.57800
O 	O 	0.89357 0.37023 0.29457 -0.57800
O 	O 	0.89357 0.44163 0.37023 -0.57800
O 	O 	0.44163 0.37023 0.89357 -0.57800
O 	O 	0.41135 0.32751 0.78335 -0.57700
O 	O 	0.44163 0.89357 0.29457 -0.57800
O 	O 	0.37023 0.29457 0.89357 -0.57800
O 	O 	0.41135 0.78335 0.47779 -0.57700
O 	O 	0.47779 0.78335 0.32751 -0.57700
O 	O 	0.32751 0.47779 0.78335 -0.57700
O 	O 	0.32751 0.41135 0.47779 -0.57700
O 	O 	0.44163 0.29457 0.37023 -0.57800
O 	O 	0.29457 0.37023 0.44163 -0.57800
O 	O 	0.47779 0.32751 0.41135 -0.57700
Zn	Zn	0.58508 0.58509 0.58509 1.18500
Zn	Zn	0.64360 0.06920 0.64360 1.19100
Zn	Zn	0.64360 0.64360 0.06920 1.19100
Zn	Zn	0.58508 0.24474 0.58509 1.18500
Zn	Zn	0.58508 0.58509 0.24474 1.18500
Zn	Zn	0.64360 0.64360 0.64360 1.19100
Zn	Zn	0.24473 0.58509 0.58509 1.18500
Zn	Zn	0.06920 0.64360 0.64360 1.19100
H 	H 	0.63680 0.08760 0.21940 0.10600
H 	H 	0.85950 0.33750 0.54950 0.11100
H 	H 	0.96560 0.28560 0.50900 -0.02100
H 	H 	0.25620 0.56040 0.42380 -0.04200
H 	H 	0.40370 0.05470 0.62490 0.11000
H 	H 	0.06300 0.20180 0.49880 0.09400
H 	H 	0.91670 0.05470 0.40370 0.11000
H 	H 	0.96560 0.23980 0.28560 -0.02100
H 	H 	0.05470 0.91670 0.62490 0.11000
H 	H 	0.23640 0.06300 0.49880 0.09400
H 	H 	0.08760 0.05620 0.21940 0.10700
H 	H 	0.08760 0.21940 0.63680 0.10600
H 	H 	0.25350 0.54950 0.33750 0.11100
H 	H 	0.56040 0.25620 0.75960 -0.04200
H 	H 	0.91670 0.62490 0.05470 0.11000
H 	H 	0.98950 0.64490 0.05950 -0.00700
H 	H 	0.25350 0.33750 0.85950 0.11100
H 	H 	0.05620 0.08760 0.63680 0.10600
H 	H 	0.28560 0.50900 0.96560 -0.02100
H 	H 	0.48970 0.63550 0.81690 -0.02700
H 	H 	0.63680 0.21940 0.05620 0.10600
H 	H 	0.30610 0.64490 0.98950 -0.00700
H 	H 	0.75960 0.56040 0.25620 -0.04200
H 	H 	0.33750 0.54950 0.85950 0.11100
H 	H 	0.85950 0.25350 0.33750 0.11100
H 	H 	0.40370 0.62490 0.91670 0.11000
H 	H 	0.75960 0.42380 0.56040 -0.04200
H 	H 	0.63550 0.81690 0.48970 -0.02700
H 	H 	0.20180 0.23640 0.49880 0.09400
H 	H 	0.50900 0.28560 0.23980 -0.02100
H 	H 	0.64490 0.05950 0.98950 -0.00700
H 	H 	0.42380 0.56040 0.75960 -0.04200
H 	H 	0.49880 0.06300 0.20180 0.09400
H 	H 	0.56040 0.42380 0.25620 -0.04200
H 	H 	0.62490 0.91670 0.40370 0.11000
H 	H 	0.05620 0.63680 0.21940 0.10600
H 	H 	0.75960 0.25620 0.42380 -0.04200
H 	H 	0.05790 0.81690 0.63550 -0.02800
H 	H 	0.28560 0.23980 0.50900 -0.02100
H 	H 	0.05470 0.62490 0.40370 0.11000
H 	H 	0.20180 0.49880 0.06300 0.09400
H 	H 	0.08760 0.63680 0.05620 0.10600
H 	H 	0.30610 0.05950 0.64490 -0.00700
H 	H 	0.33750 0.25350 0.54950 0.11100
H 	H 	0.20180 0.06300 0.23640 0.09400
H 	H 	0.62490 0.05470 0.91670 0.11000
H 	H 	0.06300 0.23640 0.20180 0.09400
H 	H 	0.54950 0.85950 0.33750 0.11100
H 	H 	0.21940 0.08760 0.05620 0.10700
H 	H 	0.42380 0.25620 0.56040 -0.04200
H 	H 	0.56040 0.75960 0.42380 -0.04200
H 	H 	0.05620 0.21940 0.08760 0.10700
H 	H 	0.54950 0.25350 0.85950 0.11100
H 	H 	0.64490 0.30610 0.05950 -0.00700
H 	H 	0.50900 0.23980 0.96560 -0.02100
H 	H 	0.21940 0.63680 0.08760 0.10600
H 	H 	0.23640 0.49880 0.20180 0.09400
H 	H 	0.62490 0.40370 0.05470 0.11000
H 	H 	0.40370 0.91670 0.05470 0.11000
H 	H 	0.23980 0.28560 0.96560 -0.02100
H 	H 	0.49880 0.23640 0.06300 0.09400
H 	H 	0.05950 0.30610 0.98950 -0.00700
H 	H 	0.98950 0.30610 0.64490 -0.00700
H 	H 	0.91670 0.40370 0.62490 0.11000
H 	H 	0.81690 0.05790 0.48970 -0.02800
H 	H 	0.21940 0.05620 0.63680 0.10600
H 	H 	0.23980 0.96560 0.50900 -0.02100
H 	H 	0.50900 0.96560 0.28560 -0.02100
H 	H 	0.98950 0.05950 0.30610 -0.00700
H 	H 	0.23640 0.20180 0.06300 0.09400
H 	H 	0.54950 0.33750 0.25350 0.11100
H 	H 	0.63550 0.48970 0.05790 -0.02700
H 	H 	0.05790 0.48970 0.81690 -0.02800
H 	H 	0.25620 0.75960 0.56040 -0.04200
H 	H 	0.42380 0.75960 0.25620 -0.04200
H 	H 	0.81690 0.48970 0.63550 -0.02700
H 	H 	0.48970 0.81690 0.05790 -0.02800
H 	H 	0.85950 0.54950 0.25350 0.11100
H 	H 	0.25350 0.85950 0.54950 0.11100
H 	H 	0.64490 0.98950 0.30610 -0.00700
H 	H 	0.23980 0.50900 0.28560 -0.02100
H 	H 	0.48970 0.05790 0.63550 -0.02700
H 	H 	0.05470 0.40370 0.91670 0.11000
H 	H 	0.96560 0.50900 0.23980 -0.02100
H 	H 	0.06300 0.49880 0.23640 0.09400
H 	H 	0.25620 0.42380 0.75960 -0.04200
H 	H 	0.28560 0.96560 0.23980 -0.02100
H 	H 	0.33750 0.85950 0.25350 0.11100
H 	H 	0.05950 0.64490 0.30610 -0.00700
H 	H 	0.30610 0.98950 0.05950 -0.00700
H 	H 	0.63680 0.05620 0.08760 0.10600
H 	H 	0.81690 0.63550 0.05790 -0.02800
H 	H 	0.05790 0.63550 0.48970 -0.02700
H 	H 	0.05950 0.98950 0.64490 -0.00700
H 	H 	0.49880 0.20180 0.23640 0.09400
H 	H 	0.63550 0.05790 0.81690 -0.02800
C 	C 	0.45870 0.61870 0.82530 0.16800
C 	C 	0.08490 0.19930 0.56890 0.17900
C 	C 	0.21391 0.36739 0.85101 -0.24400
C 	C 	0.22180 0.20080 0.52980 -0.22000
C 	C 	0.09630 0.28390 0.00350 0.08900
C 	C 	0.41950 0.21542 0.57404 0.18400
C 	C 	0.28390 0.00350 0.09630 0.08900
C 	C 	0.51983 0.71237 0.16001 0.52400
C 	C 	0.61130 0.23230 0.09390 -0.21300
C 	C 	0.79104 0.41950 0.57404 0.18300
C 	C 	0.77727 0.59969 0.15871 -0.25900
C 	C 	0.08490 0.14690 0.19930 0.18000
C 	C 	0.04760 0.20080 0.22180 -0.22000
C 	C 	0.53596 0.20244 0.98944 0.09800
C 	C 	0.58869 0.15291 0.89903 0.17700
C 	C 	0.09390 0.06250 0.61130 -0.21300
C 	C 	0.30460 0.57972 0.96340 -0.13700
C 	C 	0.23230 0.09390 0.61130 -0.21300
C 	C 	0.27216 0.20244 0.53596 0.09800
C 	C 	0.28390 0.09630 0.61630 0.08700
C 	C 	0.61254 0.09586 0.88486 -0.23900
C 	C 	0.89903 0.58869 0.15291 0.17700
C 	C 	0.60779 0.51983 0.16001 0.52400
C 	C 	0.77727 0.46433 0.59969 -0.25900
C 	C 	0.15871 0.77727 0.59969 -0.25900
C 	C 	0.56769 0.21391 0.85101 -0.24400
C 	C 	0.09630 0.00350 0.61630 0.08800
C 	C 	0.82530 0.61870 0.09730 0.16800
C 	C 	0.71237 0.16001 0.51983 0.52400
C 	C 	0.96340 0.15228 0.30460 -0.13800
C 	C 	0.40674 0.61254 0.88486 -0.23900
C 	C 	0.15228 0.96340 0.57972 -0.13700
C 	C 	0.60779 0.16001 0.71237 0.52400
C 	C 	0.46433 0.77727 0.15871 -0.25900
C 	C 	0.41950 0.57404 0.79104 0.18300
C 	C 	0.09630 0.61630 0.28390 0.08700
C 	C 	0.00350 0.61630 0.09630 0.08800
C 	C 	0.30460 0.15228 0.57972 -0.13700
C 	C 	0.61630 0.00350 0.28390 0.08700
C 	C 	0.21391 0.85101 0.56769 -0.24400
C 	C 	0.82530 0.45870 0.61870 0.16800
C 	C 	0.19930 0.08490 0.14690 0.18000
C 	C 	0.59969 0.77727 0.46433 -0.25900
C 	C 	0.61254 0.40674 0.09586 -0.23900
C 	C 	0.28390 0.61630 0.00350 0.08700
C 	C 	0.22180 0.52980 0.04760 -0.21900
C 	C 	0.61870 0.45870 0.09730 0.16800
C 	C 	0.16001 0.71237 0.60779 0.52400
C 	C 	0.22180 0.04760 0.20080 -0.22000
C 	C 	0.20244 0.27216 0.98944 0.09800
C 	C 	0.51983 0.60779 0.71237 0.52400
C 	C 	0.89903 0.35937 0.58869 0.17600
C 	C 	0.36739 0.85101 0.21391 -0.24400
C 	C 	0.04760 0.52980 0.20080 -0.22000
C 	C 	0.35937 0.58869 0.89903 0.17700
C 	C 	0.56890 0.19930 0.14690 0.17900
C 	C 	0.20244 0.98944 0.53596 0.09800
C 	C 	0.59969 0.15871 0.77727 -0.25900
C 	C 	0.35937 0.15291 0.58869 0.17700
C 	C 	0.85101 0.56769 0.21391 -0.24400
C 	C 	0.98944 0.27216 0.53596 0.09800
C 	C 	0.15228 0.57972 0.30460 -0.13700
C 	C 	0.15291 0.58869 0.35937 0.17700
C 	C 	0.46433 0.15871 0.59969 -0.25900
C 	C 	0.06250 0.23230 0.61130 -0.21300
C 	C 	0.98944 0.20244 0.27216 0.09800
C 	C 	0.77727 0.15871 0.46433 -0.25900
C 	C 	0.57972 0.15228 0.96340 -0.13700
C 	C 	0.60779 0.71237 0.51983 0.52400
C 	C 	0.04760 0.22180 0.52980 -0.21900
C 	C 	0.30460 0.96340 0.15228 -0.13800
C 	C 	0.58869 0.89903 0.35937 0.17700
C 	C 	0.45870 0.82530 0.09730 0.16800
C 	C 	0.82530 0.09730 0.45870 0.16800
C 	C 	0.00350 0.28390 0.61630 0.08700
C 	C 	0.09586 0.61254 0.40674 -0.23900
C 	C 	0.19930 0.56890 0.08490 0.17900
C 	C 	0.36739 0.56769 0.85101 -0.24400
C 	C 	0.58869 0.35937 0.15291 0.17700
C 	C 	0.20080 0.22180 0.04760 -0.22000
C 	C 	0.16001 0.60779 0.51983 0.52400
C 	C 	0.20244 0.53596 0.27216 0.09800
C 	C 	0.21542 0.41950 0.79104 0.18400
C 	C 	0.61130 0.09390 0.06250 -0.21300
C 	C 	0.20080 0.04760 0.52980 -0.22000
C 	C 	0.23230 0.61130 0.06250 -0.21300
C 	C 	0.21542 0.57404 0.41950 0.18300
C 	C 	0.57404 0.41950 0.21542 0.18300
C 	C 	0.20080 0.52980 0.22180 -0.22000
C 	C 	0.23230 0.06250 0.09390 -0.21400
C 	C 	0.61254 0.88486 0.40674 -0.23900
C 	C 	0.14690 0.56890 0.19930 0.17900
C 	C 	0.16001 0.51983 0.71237 0.52400
C 	C 	0.15291 0.35937 0.89903 0.17700
C 	C 	0.45870 0.09730 0.61870 0.16800
C 	C 	0.56769 0.85101 0.36739 -0.24400
C 	C 	0.57404 0.21542 0.79104 0.18400
C 	C 	0.36739 0.21391 0.56769 -0.24400
C 	C 	0.09390 0.23230 0.06250 -0.21400
C 	C 	0.21391 0.56769 0.36739 -0.24400
C 	C 	0.40674 0.09586 0.61254 -0.23900
C 	C 	0.08490 0.56890 0.14690 0.18000
C 	C 	0.06250 0.09390 0.23230 -0.21400
C 	C 	0.61870 0.09730 0.82530 0.16800
C 	C 	0.09586 0.40674 0.88486 -0.23900
C 	C 	0.96340 0.30460 0.57972 -0.13700
C 	C 	0.35937 0.89903 0.15291 0.17700
C 	C 	0.40674 0.88486 0.09586 -0.23900
C 	C 	0.88486 0.40674 0.61254 -0.23900
C 	C 	0.09390 0.61130 0.23230 -0.21300
C 	C 	0.56890 0.08490 0.19930 0.17900
C 	C 	0.15871 0.46433 0.77727 -0.25900
C 	C 	0.71237 0.60779 0.16001 0.52400
C 	C 	0.89903 0.15291 0.35937 0.17700
C 	C 	0.96340 0.57972 0.15228 -0.13700
C 	C 	0.46433 0.59969 0.77727 -0.25900
C 	C 	0.41950 0.79104 0.21542 0.18400
C 	C 	0.53596 0.27216 0.20244 0.09800
C 	C 	0.98944 0.53596 0.20244 0.09800
C 	C 	0.61870 0.82530 0.45870 0.16800
C 	C 	0.19930 0.14690 0.56890 0.17900
C 	C 	0.06250 0.61130 0.09390 -0.21300
C 	C 	0.79104 0.57404 0.21542 0.18400
C 	C 	0.15871 0.59969 0.46433 -0.25900
C 	C 	0.27216 0.53596 0.98944 0.09800
C 	C 	0.09586 0.88486 0.61254 -0.23900
C 	C 	0.56890 0.14690 0.08490 0.18000
C 	C 	0.14690 0.19930 0.08490 0.18000
C 	C 	0.15228 0.30460 0.96340 -0.13800
C 	C 	0.88486 0.61254 0.09586 -0.23900
C 	C 	0.09730 0.82530 0.61870 0.16800
C 	C 	0.52980 0.22180 0.20080 -0.22000
C 	C 	0.15291 0.89903 0.58869 0.17700
C 	C 	0.09730 0.61870 0.45870 0.16800
C 	C 	0.85101 0.36739 0.56769 -0.24400
C 	C 	0.88486 0.09586 0.40674 -0.23900
C 	C 	0.00350 0.09630 0.28390 0.08900
C 	C 	0.59969 0.46433 0.15871 -0.25900
C 	C 	0.57972 0.96340 0.30460 -0.13700
C 	C 	0.14690 0.08490 0.56890 0.18000
C 	C 	0.52980 0.04760 0.22180 -0.21900
C 	C 	0.61130 0.06250 0.23230 -0.21300
C 	C 	0.61630 0.28390 0.09630 0.08700
C 	C 	0.56769 0.36739 0.21391 -0.24400
C 	C 	0.71237 0.51983 0.60779 0.52300
C 	C 	0.85101 0.21391 0.36739 -0.24400
C 	C 	0.57972 0.30460 0.15228 -0.13700
C 	C 	0.79104 0.21542 0.41950 0.18400
C 	C 	0.57404 0.79104 0.41950 0.18300
C 	C 	0.53596 0.98944 0.27216 0.09800
C 	C 	0.61630 0.09630 0.00350 0.08800
C 	C 	0.09730 0.45870 0.82530 0.16800
C 	C 	0.52980 0.20080 0.04760 -0.22000
C 	C 	0.27216 0.98944 0.20244 0.09800
C 	C 	0.21542 0.79104 0.57404 0.18400
C 	C 	0.51983 0.16001 0.60779 0.52400
N 	N 	0.14600 0.56200 0.14600 -0.20100
N 	N 	0.14600 0.14600 0.56200 -0.20100
N 	N 	0.14600 0.14600 0.14600 -0.20200
N 	N 	0.56200 0.14600 0.14600 -0.20100
O 	O 	0.70543 0.55837 0.62977 -0.57800
O 	O 	0.10643 0.55837 0.70543 -0.57800
O 	O 	0.67249 0.52221 0.58865 -0.57700
O 	O 	0.55837 0.70543 0.10643 -0.57800
O 	O 	0.70543 0.10643 0.55837 -0.57800
O 	O 	0.55837 0.62977 0.70543 -0.57800
O 	O 	0.52221 0.21665 0.58865 -0.57700
O 	O 	0.70543 0.62977 0.10643 -0.57800
O 	O 	0.67249 0.21665 0.52221 -0.57700
O 	O 	0.10643 0.62977 0.55837 -0.57800
O 	O 	0.21665 0.58865 0.52221 -0.57700
O 	O 	0.21665 0.52221 0.67249 -0.57700
O 	O 	0.67249 0.58865 0.21665 -0.57700
O 	O 	0.62977 0.70543 0.55837 -0.57800
O 	O 	0.21665 0.67249 0.58865 -0.57700
O 	O 	0.62977 0.10643 0.70543 -0.57800
O 	O 	0.58865 0.21665 0.67249 -0.57700
O 	O 	0.58865 0.52221 0.21665 -0.57700
O 	O 	0.58865 0.67249 0.52221 -0.57700
O 	O 	0.55837 0.10643 0.62977 -0.57800
O 	O 	0.52221 0.67249 0.21665 -0.57700
O 	O 	0.62977 0.55837 0.10643 -0.57800
O 	O 	0.52221 0.58865 0.67249 -0.57700
O 	O 	0.10643 0.70543 0.62977 -0.57800
