data_crystal

_cell_length_a 26.08870
_cell_length_b 26.08870
_cell_length_c 26.08870
_cell_angle_alpha 90.00000
_cell_angle_beta  90.00000
_cell_angle_gamma 90.00000

_symmetry_space_group_name_	'P 1'
_symmetry_space_group_name_H-M	'P 1'

loop_
_symmetry_equiv_pos_as_xyz
  x,y,z

loop_
_atom_site_label
_atom_site_type_symbol
_atom_site_fract_x
_atom_site_fract_y
_atom_site_fract_z
_atom_site_charge
Zr	Zr	0.48456 0.98355 0.09117 3.23600
Zr	Zr	0.51645 0.59117 0.48456 3.23600
Zr	Zr	0.98456 0.51645 0.90883 3.23600
Zr	Zr	0.48456 0.51645 0.59117 3.23600
Zr	Zr	0.51544 0.48355 0.40883 3.23600
Zr	Zr	0.51544 0.01645 0.90883 3.23600
Zr	Zr	0.01544 0.01645 0.59117 3.23600
Zr	Zr	0.40883 0.51544 0.48355 3.23600
Zr	Zr	0.51645 0.90883 0.98456 3.23600
Zr	Zr	0.09117 0.48456 0.98355 3.23600
Zr	Zr	0.98456 0.98355 0.40883 3.23600
Zr	Zr	0.98355 0.09117 0.48456 3.23600
Zr	Zr	0.01544 0.48355 0.09117 3.23600
Zr	Zr	0.01645 0.90883 0.51544 3.23600
Zr	Zr	0.09117 0.01544 0.48355 3.23600
Zr	Zr	0.98355 0.40883 0.98456 3.23600
Zr	Zr	0.01645 0.59117 0.01544 3.23600
Zr	Zr	0.90883 0.98456 0.51645 3.23600
Zr	Zr	0.90883 0.51544 0.01645 3.23600
Zr	Zr	0.48355 0.40883 0.51544 3.23600
Zr	Zr	0.59117 0.48456 0.51645 3.23600
Zr	Zr	0.48355 0.09117 0.01544 3.23600
Zr	Zr	0.59117 0.01544 0.01645 3.23600
Zr	Zr	0.40883 0.98456 0.98355 3.23600
Cu	Cu	0.21157 0.70751 0.48054 0.93200
Cu	Cu	0.20751 0.48054 0.28843 0.93200
Cu	Cu	0.01946 0.78843 0.20751 0.93200
Cu	Cu	0.28843 0.20751 0.48054 0.93200
Cu	Cu	0.48054 0.28843 0.20751 0.93200
Cu	Cu	0.79249 0.98054 0.21157 0.93200
Cu	Cu	0.70751 0.01946 0.71157 0.93200
Cu	Cu	0.78843 0.20751 0.01946 0.93200
Cu	Cu	0.21157 0.79249 0.98054 0.93200
Cu	Cu	0.71157 0.70751 0.01946 0.93200
Cu	Cu	0.78843 0.29249 0.51946 0.93200
Cu	Cu	0.98054 0.21157 0.79249 0.93200
Cu	Cu	0.48054 0.21157 0.70751 0.93100
Cu	Cu	0.29249 0.98054 0.28843 0.93100
Cu	Cu	0.51946 0.78843 0.29249 0.93100
Cu	Cu	0.79249 0.51946 0.71157 0.93100
Cu	Cu	0.29249 0.51946 0.78843 0.93100
Cu	Cu	0.28843 0.29249 0.98054 0.93100
Cu	Cu	0.01946 0.71157 0.70751 0.93100
Cu	Cu	0.98054 0.28843 0.29249 0.93100
Cu	Cu	0.71157 0.79249 0.51946 0.93100
Cu	Cu	0.20751 0.01946 0.78843 0.93100
Cu	Cu	0.70751 0.48054 0.21157 0.93100
Cu	Cu	0.51946 0.71157 0.79249 0.93100
H 	H 	0.80099 0.99615 0.64950 0.03700
H 	H 	0.64950 0.80099 0.99615 0.03700
H 	H 	0.30099 0.50385 0.35050 0.03900
H 	H 	0.06029 0.63888 0.30376 0.08600
H 	H 	0.36112 0.69624 0.93971 0.08600
H 	H 	0.63888 0.19624 0.56029 0.08600
H 	H 	0.91674 0.76574 0.56323 0.07500
H 	H 	0.30099 0.99615 0.85050 0.03800
H 	H 	0.58326 0.23426 0.06323 0.07500
H 	H 	0.98877 0.19558 0.35782 0.04500
H 	H 	0.07821 0.95508 0.26789 0.05700
H 	H 	0.08326 0.23426 0.43677 0.07500
H 	H 	0.80298 0.63104 0.55575 0.10100
H 	H 	0.64218 0.48877 0.30442 0.04500
H 	H 	0.14218 0.48877 0.19558 0.04500
H 	H 	0.99615 0.64950 0.80099 0.03700
H 	H 	0.69901 0.00385 0.14950 0.03800
H 	H 	0.06323 0.58326 0.23426 0.07500
H 	H 	0.80442 0.64218 0.01123 0.04500
H 	H 	0.23211 0.57821 0.95508 0.05700
H 	H 	0.92179 0.45508 0.23211 0.05700
H 	H 	0.93971 0.36112 0.69624 0.08600
H 	H 	0.63888 0.30376 0.06029 0.08600
H 	H 	0.76789 0.07821 0.54492 0.05700
H 	H 	0.35782 0.51123 0.69558 0.04500
H 	H 	0.13888 0.19624 0.93971 0.08700
H 	H 	0.99615 0.85050 0.30099 0.03800
H 	H 	0.19558 0.35782 0.98877 0.04500
H 	H 	0.85782 0.51123 0.80442 0.04500
H 	H 	0.56323 0.58326 0.26574 0.07500
H 	H 	0.19624 0.93971 0.13888 0.08700
H 	H 	0.86896 0.05575 0.80298 0.10200
H 	H 	0.41674 0.76574 0.93677 0.07500
H 	H 	0.95508 0.23211 0.57821 0.05700
H 	H 	0.69624 0.56029 0.86112 0.08600
H 	H 	0.93971 0.13888 0.19624 0.08700
H 	H 	0.56029 0.63888 0.19624 0.08600
H 	H 	0.13104 0.55575 0.69702 0.10100
H 	H 	0.64218 0.01123 0.80442 0.04500
H 	H 	0.73211 0.57821 0.54492 0.05700
H 	H 	0.05575 0.69702 0.36896 0.10100
H 	H 	0.35050 0.30099 0.50385 0.03900
H 	H 	0.14950 0.69901 0.00385 0.03800
H 	H 	0.69702 0.36896 0.05575 0.10100
H 	H 	0.45508 0.23211 0.92179 0.05700
H 	H 	0.48877 0.19558 0.14218 0.04500
H 	H 	0.51123 0.69558 0.35782 0.04500
H 	H 	0.30376 0.43971 0.13888 0.08600
H 	H 	0.63104 0.55575 0.80298 0.10100
H 	H 	0.23211 0.92179 0.45508 0.05700
H 	H 	0.69624 0.93971 0.36112 0.08600
H 	H 	0.95508 0.26789 0.07821 0.05700
H 	H 	0.06029 0.86112 0.80376 0.08700
H 	H 	0.54492 0.76789 0.07821 0.05700
H 	H 	0.85782 0.98877 0.30442 0.04500
H 	H 	0.49615 0.85050 0.19901 0.03900
H 	H 	0.43677 0.08326 0.23426 0.07500
H 	H 	0.86112 0.80376 0.06029 0.08700
H 	H 	0.06323 0.91674 0.73426 0.07500
H 	H 	0.19624 0.56029 0.63888 0.08600
H 	H 	0.85050 0.19901 0.49615 0.03900
H 	H 	0.80376 0.06029 0.86112 0.08700
H 	H 	0.91674 0.73426 0.06323 0.07500
H 	H 	0.69558 0.35782 0.51123 0.04500
H 	H 	0.01123 0.80442 0.64218 0.04500
H 	H 	0.56029 0.86112 0.69624 0.08600
H 	H 	0.73426 0.43677 0.41674 0.07500
H 	H 	0.51123 0.80442 0.85782 0.04500
H 	H 	0.07821 0.54492 0.76789 0.05700
H 	H 	0.41674 0.73426 0.43677 0.07500
H 	H 	0.63104 0.94425 0.30298 0.10100
H 	H 	0.36896 0.44425 0.19702 0.10100
H 	H 	0.49615 0.64950 0.69901 0.03900
H 	H 	0.19558 0.14218 0.48877 0.04500
H 	H 	0.04492 0.76789 0.42179 0.05700
H 	H 	0.23426 0.43677 0.08326 0.07500
H 	H 	0.43971 0.36112 0.80376 0.08600
H 	H 	0.00385 0.14950 0.69901 0.03800
H 	H 	0.86112 0.69624 0.56029 0.08600
H 	H 	0.64950 0.69901 0.49615 0.03900
H 	H 	0.30376 0.06029 0.63888 0.08600
H 	H 	0.55575 0.69702 0.13104 0.10100
H 	H 	0.05575 0.80298 0.86896 0.10200
H 	H 	0.44425 0.19702 0.36896 0.10100
H 	H 	0.93677 0.41674 0.76574 0.07500
H 	H 	0.23426 0.06323 0.58326 0.07500
H 	H 	0.73426 0.06323 0.91674 0.07500
H 	H 	0.14950 0.80099 0.50385 0.03900
H 	H 	0.92179 0.04492 0.73211 0.05700
H 	H 	0.13104 0.94425 0.19702 0.10200
H 	H 	0.69901 0.49615 0.64950 0.03900
H 	H 	0.76574 0.93677 0.41674 0.07500
H 	H 	0.26574 0.56323 0.58326 0.07500
H 	H 	0.76789 0.42179 0.04492 0.05700
H 	H 	0.50385 0.14950 0.80099 0.03900
H 	H 	0.35782 0.98877 0.19558 0.04500
H 	H 	0.58326 0.26574 0.56323 0.07500
H 	H 	0.26574 0.93677 0.08326 0.07500
H 	H 	0.42179 0.45508 0.26789 0.05700
H 	H 	0.26789 0.07821 0.95508 0.05700
H 	H 	0.54492 0.73211 0.57821 0.05700
H 	H 	0.57821 0.54492 0.73211 0.05700
H 	H 	0.80442 0.85782 0.51123 0.04500
H 	H 	0.69702 0.13104 0.55575 0.10100
H 	H 	0.35050 0.19901 0.00385 0.03700
H 	H 	0.50385 0.35050 0.30099 0.03900
H 	H 	0.19702 0.36896 0.44425 0.10100
H 	H 	0.19702 0.13104 0.94425 0.10200
H 	H 	0.30442 0.64218 0.48877 0.04500
H 	H 	0.93677 0.08326 0.26574 0.07500
H 	H 	0.43677 0.41674 0.73426 0.07500
H 	H 	0.48877 0.30442 0.64218 0.04500
H 	H 	0.94425 0.30298 0.63104 0.10100
H 	H 	0.44425 0.30298 0.86896 0.10100
H 	H 	0.57821 0.95508 0.23211 0.05700
H 	H 	0.55575 0.80298 0.63104 0.10100
H 	H 	0.94425 0.19702 0.13104 0.10200
H 	H 	0.36896 0.05575 0.69702 0.10100
H 	H 	0.19901 0.00385 0.35050 0.03700
H 	H 	0.30298 0.63104 0.94425 0.10100
H 	H 	0.01123 0.69558 0.14218 0.04500
H 	H 	0.80298 0.86896 0.05575 0.10200
H 	H 	0.00385 0.35050 0.19901 0.03700
H 	H 	0.86896 0.44425 0.30298 0.10100
H 	H 	0.80376 0.43971 0.36112 0.08600
H 	H 	0.30442 0.85782 0.98877 0.04500
H 	H 	0.14218 0.01123 0.69558 0.04500
H 	H 	0.56323 0.91674 0.76574 0.07500
H 	H 	0.08326 0.26574 0.93677 0.07500
H 	H 	0.73211 0.92179 0.04492 0.05700
H 	H 	0.42179 0.04492 0.76789 0.05700
H 	H 	0.36112 0.80376 0.43971 0.08600
H 	H 	0.76574 0.56323 0.91674 0.07500
H 	H 	0.19901 0.49615 0.85050 0.03900
H 	H 	0.43971 0.13888 0.30376 0.08600
H 	H 	0.45508 0.26789 0.42179 0.05700
H 	H 	0.80099 0.50385 0.14950 0.03900
H 	H 	0.69558 0.14218 0.01123 0.04500
H 	H 	0.30298 0.86896 0.44425 0.10100
H 	H 	0.98877 0.30442 0.85782 0.04500
H 	H 	0.13888 0.30376 0.43971 0.08600
H 	H 	0.85050 0.30099 0.99615 0.03800
H 	H 	0.26789 0.42179 0.45508 0.05700
H 	H 	0.04492 0.73211 0.92179 0.05700
C 	C 	0.54356 0.77160 0.64494 -0.11000
C 	C 	0.18088 0.81489 0.49167 0.07500
C 	C 	0.18088 0.68511 0.99167 0.07600
C 	C 	0.46250 0.36565 0.68189 -0.06700
C 	C 	0.68511 0.99167 0.18088 0.07600
C 	C 	0.19626 0.96765 0.23186 0.06700
C 	C 	0.26814 0.80374 0.46765 0.06600
C 	C 	0.48045 0.18434 0.86621 -0.11100
C 	C 	0.34953 0.77072 0.44974 -0.07700
C 	C 	0.77029 0.11370 0.53716 0.05800
C 	C 	0.88241 0.72964 0.05200 0.01800
C 	C 	0.30374 0.03235 0.73186 0.06600
C 	C 	0.54356 0.72840 0.14494 -0.10900
C 	C 	0.68398 0.32479 0.52126 0.04900
C 	C 	0.38630 0.46284 0.27029 0.05800
C 	C 	0.46598 0.29990 0.76405 0.03900
C 	C 	0.46068 0.09971 0.13860 0.21100
C 	C 	0.23595 0.96598 0.20010 0.03900
C 	C 	0.52126 0.81602 0.82479 0.04900
C 	C 	0.31811 0.53750 0.63435 -0.06700
C 	C 	0.53716 0.72971 0.61370 0.05800
C 	C 	0.53932 0.90029 0.86140 0.21100
C 	C 	0.31566 0.36621 0.48045 -0.11100
C 	C 	0.05026 0.84953 0.77072 -0.07700
C 	C 	0.97874 0.31602 0.82479 0.04900
C 	C 	0.02126 0.68398 0.17521 0.04900
C 	C 	0.46250 0.13435 0.18189 -0.06700
C 	C 	0.44974 0.15047 0.27072 -0.07700
C 	C 	0.81566 0.13379 0.51955 -0.11100
C 	C 	0.23186 0.30374 0.46765 0.06600
C 	C 	0.22971 0.88630 0.46284 0.05800
C 	C 	0.05200 0.88241 0.72964 0.01800
C 	C 	0.36565 0.81811 0.96250 -0.06600
C 	C 	0.17521 0.02126 0.68398 0.04900
C 	C 	0.53235 0.73186 0.19626 0.06600
C 	C 	0.55026 0.84953 0.72928 -0.07700
C 	C 	0.68434 0.86621 0.01955 -0.11100
C 	C 	0.36140 0.96068 0.09971 0.21100
C 	C 	0.53750 0.86565 0.81811 -0.06700
C 	C 	0.49167 0.31912 0.31489 0.07500
C 	C 	0.89911 0.01281 0.64020 0.31000
C 	C 	0.14494 0.95644 0.22840 -0.11000
C 	C 	0.23595 0.53402 0.70010 0.03900
C 	C 	0.84953 0.72928 0.55026 -0.07700
C 	C 	0.36621 0.01955 0.81566 -0.11100
C 	C 	0.86140 0.53932 0.90029 0.21100
C 	C 	0.96250 0.36565 0.81811 -0.06600
C 	C 	0.34953 0.72928 0.94974 -0.07700
C 	C 	0.48719 0.35980 0.39911 0.30900
C 	C 	0.63379 0.51955 0.68434 -0.11100
C 	C 	0.18398 0.17521 0.47874 0.04900
C 	C 	0.03932 0.90029 0.63860 0.21100
C 	C 	0.51281 0.85980 0.10089 0.30900
C 	C 	0.27036 0.55200 0.61759 0.01800
C 	C 	0.96068 0.40029 0.86140 0.21100
C 	C 	0.22964 0.05200 0.61759 0.01800
C 	C 	0.48719 0.14020 0.89911 0.30900
C 	C 	0.86140 0.96068 0.40029 0.21100
C 	C 	0.67521 0.47874 0.31602 0.04900
C 	C 	0.27072 0.05026 0.65047 -0.07700
C 	C 	0.63435 0.31811 0.53750 -0.06700
C 	C 	0.03716 0.72971 0.88630 0.05900
C 	C 	0.03402 0.79990 0.76405 0.03900
C 	C 	0.30374 0.46765 0.23186 0.06600
C 	C 	0.31912 0.18511 0.99167 0.07700
C 	C 	0.46284 0.22971 0.88630 0.05800
C 	C 	0.61759 0.27036 0.55200 0.01800
C 	C 	0.26405 0.03402 0.70010 0.03900
C 	C 	0.39911 0.48719 0.35980 0.30900
C 	C 	0.03402 0.70010 0.26405 0.03900
C 	C 	0.01955 0.81566 0.36621 -0.11100
C 	C 	0.90029 0.86140 0.53932 0.21100
C 	C 	0.64494 0.95644 0.27160 -0.11000
C 	C 	0.65047 0.22928 0.55026 -0.07700
C 	C 	0.82479 0.97874 0.31602 0.04900
C 	C 	0.77029 0.38630 0.03716 0.05800
C 	C 	0.95644 0.22840 0.14494 -0.11000
C 	C 	0.32479 0.52126 0.68398 0.04900
C 	C 	0.44800 0.38241 0.72964 0.01800
C 	C 	0.72971 0.88630 0.03716 0.05900
C 	C 	0.63860 0.46068 0.40029 0.21100
C 	C 	0.99167 0.18088 0.68511 0.07600
C 	C 	0.76405 0.03402 0.79990 0.03900
C 	C 	0.18189 0.46250 0.13435 -0.06700
C 	C 	0.50833 0.81912 0.18511 0.07500
C 	C 	0.98045 0.31566 0.13379 -0.11100
C 	C 	0.14020 0.60089 0.98719 0.31000
C 	C 	0.68088 0.68511 0.50833 0.07500
C 	C 	0.27160 0.85506 0.45644 -0.10900
C 	C 	0.01281 0.85980 0.39911 0.31000
C 	C 	0.46598 0.20010 0.26405 0.03900
C 	C 	0.76814 0.80374 0.03235 0.06700
C 	C 	0.13860 0.46068 0.09971 0.21100
C 	C 	0.26814 0.69626 0.96765 0.06600
C 	C 	0.96250 0.13435 0.31811 -0.06600
C 	C 	0.61370 0.96284 0.22971 0.05800
C 	C 	0.29990 0.73595 0.96598 0.03900
C 	C 	0.88241 0.77036 0.55200 0.01800
C 	C 	0.04356 0.77160 0.85506 -0.11000
C 	C 	0.47874 0.18398 0.17521 0.04900
C 	C 	0.53716 0.77029 0.11370 0.05800
C 	C 	0.13379 0.98045 0.31566 -0.11100
C 	C 	0.84953 0.77072 0.05026 -0.07700
C 	C 	0.77036 0.94800 0.38241 0.01800
C 	C 	0.97874 0.18398 0.32479 0.04900
C 	C 	0.81811 0.53750 0.86565 -0.06700
C 	C 	0.13860 0.03932 0.59971 0.21100
C 	C 	0.27029 0.11370 0.96284 0.05900
C 	C 	0.88630 0.46284 0.22971 0.05800
C 	C 	0.38630 0.03716 0.77029 0.05800
C 	C 	0.09971 0.36140 0.96068 0.21100
C 	C 	0.51281 0.64020 0.60089 0.30900
C 	C 	0.86565 0.81811 0.53750 -0.06700
C 	C 	0.96284 0.22971 0.61370 0.05800
C 	C 	0.31602 0.67521 0.47874 0.04900
C 	C 	0.76405 0.46598 0.29990 0.03900
C 	C 	0.22840 0.14494 0.95644 -0.11000
C 	C 	0.96284 0.27029 0.11370 0.05900
C 	C 	0.20010 0.23595 0.96598 0.03900
C 	C 	0.81811 0.96250 0.36565 -0.06600
C 	C 	0.68434 0.63379 0.51955 -0.11100
C 	C 	0.96068 0.09971 0.36140 0.21100
C 	C 	0.27036 0.94800 0.11759 0.01800
C 	C 	0.53932 0.59971 0.36140 0.21100
C 	C 	0.03932 0.59971 0.13860 0.21100
C 	C 	0.72928 0.94974 0.34953 -0.07700
C 	C 	0.10089 0.51281 0.85980 0.30900
C 	C 	0.35980 0.10089 0.98719 0.31000
C 	C 	0.01955 0.68434 0.86621 -0.11100
C 	C 	0.18511 0.99167 0.31912 0.07700
C 	C 	0.55026 0.65047 0.22928 -0.07700
C 	C 	0.96765 0.26814 0.69626 0.06600
C 	C 	0.11759 0.27036 0.94800 0.01800
C 	C 	0.94974 0.34953 0.72928 -0.07700
C 	C 	0.11370 0.53716 0.77029 0.05800
C 	C 	0.96598 0.20010 0.23595 0.03900
C 	C 	0.59971 0.13860 0.03932 0.21100
C 	C 	0.70010 0.26405 0.03402 0.03900
C 	C 	0.03235 0.73186 0.30374 0.06600
C 	C 	0.01281 0.64020 0.89911 0.31000
C 	C 	0.14020 0.89911 0.48719 0.30900
C 	C 	0.36140 0.53932 0.59971 0.21100
C 	C 	0.61370 0.53716 0.72971 0.05800
C 	C 	0.81602 0.67521 0.02126 0.04900
C 	C 	0.68088 0.81489 0.00833 0.07700
C 	C 	0.86565 0.68189 0.03750 -0.06600
C 	C 	0.95644 0.27160 0.64494 -0.11000
C 	C 	0.60089 0.98719 0.14020 0.31000
C 	C 	0.81912 0.18511 0.50833 0.07500
C 	C 	0.46284 0.27029 0.38630 0.05800
C 	C 	0.51955 0.68434 0.63379 -0.11100
C 	C 	0.44800 0.11759 0.22964 0.01800
C 	C 	0.68189 0.03750 0.86565 -0.06600
C 	C 	0.03750 0.63435 0.18189 -0.06600
C 	C 	0.73595 0.53402 0.79990 0.03900
C 	C 	0.26405 0.46598 0.20010 0.03900
C 	C 	0.05200 0.61759 0.22964 0.01800
C 	C 	0.77072 0.44974 0.34953 -0.07700
C 	C 	0.04356 0.72840 0.35506 -0.11000
C 	C 	0.85980 0.10089 0.51281 0.30900
C 	C 	0.50833 0.68088 0.68511 0.07500
C 	C 	0.31566 0.13379 0.98045 -0.11100
C 	C 	0.55200 0.88241 0.77036 0.01800
C 	C 	0.77160 0.64494 0.54356 -0.11000
C 	C 	0.27029 0.38630 0.46284 0.05800
C 	C 	0.31912 0.31489 0.49167 0.07500
C 	C 	0.59971 0.36140 0.53932 0.21100
C 	C 	0.13379 0.51955 0.81566 -0.11100
C 	C 	0.15047 0.22928 0.94974 -0.07700
C 	C 	0.18434 0.63379 0.98045 -0.11100
C 	C 	0.32479 0.97874 0.18398 0.04900
C 	C 	0.22971 0.61370 0.96284 0.05800
C 	C 	0.49167 0.18088 0.81489 0.07500
C 	C 	0.64494 0.54356 0.77160 -0.11000
C 	C 	0.13435 0.31811 0.96250 -0.06600
C 	C 	0.80374 0.46765 0.26814 0.06600
C 	C 	0.73186 0.30374 0.03235 0.06600
C 	C 	0.85506 0.04356 0.77160 -0.11000
C 	C 	0.00833 0.68088 0.81489 0.07700
C 	C 	0.31811 0.96250 0.13435 -0.06600
C 	C 	0.53750 0.63435 0.31811 -0.06700
C 	C 	0.88630 0.03716 0.72971 0.05900
C 	C 	0.81912 0.31489 0.00833 0.07600
C 	C 	0.72928 0.55026 0.84953 -0.07700
C 	C 	0.35506 0.45644 0.22840 -0.11000
C 	C 	0.53235 0.76814 0.69626 0.06600
C 	C 	0.77160 0.85506 0.04356 -0.11000
C 	C 	0.72964 0.44800 0.38241 0.01800
C 	C 	0.63860 0.03932 0.90029 0.21100
C 	C 	0.72840 0.35506 0.04356 -0.11000
C 	C 	0.68189 0.46250 0.36565 -0.06700
C 	C 	0.65047 0.27072 0.05026 -0.07700
C 	C 	0.79990 0.73595 0.53402 0.03900
C 	C 	0.64020 0.60089 0.51281 0.30900
C 	C 	0.46068 0.40029 0.63860 0.21100
C 	C 	0.96598 0.29990 0.73595 0.03900
C 	C 	0.67521 0.02126 0.81602 0.04900
C 	C 	0.80374 0.03235 0.76814 0.06700
C 	C 	0.98719 0.35980 0.10089 0.31000
C 	C 	0.51955 0.81566 0.13379 -0.11100
C 	C 	0.45644 0.22840 0.35506 -0.11000
C 	C 	0.68398 0.17521 0.02126 0.04900
C 	C 	0.39911 0.01281 0.85980 0.31000
C 	C 	0.63435 0.18189 0.03750 -0.06600
C 	C 	0.09971 0.13860 0.46068 0.21100
C 	C 	0.05026 0.65047 0.27072 -0.07700
C 	C 	0.22840 0.35506 0.45644 -0.11000
C 	C 	0.20010 0.26405 0.46598 0.03900
C 	C 	0.44974 0.34953 0.77072 -0.07700
C 	C 	0.94800 0.11759 0.27036 0.01800
C 	C 	0.72840 0.14494 0.54356 -0.10900
C 	C 	0.27160 0.64494 0.95644 -0.11000
C 	C 	0.31602 0.82479 0.97874 0.04900
C 	C 	0.81602 0.82479 0.52126 0.04900
C 	C 	0.29990 0.76405 0.46598 0.03900
C 	C 	0.69626 0.53235 0.76814 0.06600
C 	C 	0.22928 0.94974 0.15047 -0.07700
C 	C 	0.48045 0.31566 0.36621 -0.11100
C 	C 	0.36565 0.68189 0.46250 -0.06700
C 	C 	0.69626 0.96765 0.26814 0.06600
C 	C 	0.94974 0.15047 0.22928 -0.07700
C 	C 	0.03750 0.86565 0.68189 -0.06600
C 	C 	0.02126 0.81602 0.67521 0.04900
C 	C 	0.36621 0.48045 0.31566 -0.11100
C 	C 	0.46765 0.26814 0.80374 0.06600
C 	C 	0.90029 0.63860 0.03932 0.21100
C 	C 	0.19626 0.53235 0.73186 0.06600
C 	C 	0.64020 0.89911 0.01281 0.31000
C 	C 	0.35980 0.39911 0.48719 0.30900
C 	C 	0.89911 0.48719 0.14020 0.30900
C 	C 	0.40029 0.86140 0.96068 0.21100
C 	C 	0.85980 0.39911 0.01281 0.31000
C 	C 	0.13435 0.18189 0.46250 -0.06700
C 	C 	0.60089 0.51281 0.64020 0.30900
C 	C 	0.72971 0.61370 0.53716 0.05800
C 	C 	0.81489 0.00833 0.68088 0.07700
C 	C 	0.35506 0.04356 0.72840 -0.11000
C 	C 	0.81489 0.49167 0.18088 0.07500
C 	C 	0.31489 0.00833 0.81912 0.07600
C 	C 	0.22964 0.44800 0.11759 0.01800
C 	C 	0.52126 0.68398 0.32479 0.04900
C 	C 	0.15047 0.27072 0.44974 -0.07700
C 	C 	0.98719 0.14020 0.60089 0.31000
C 	C 	0.47874 0.31602 0.67521 0.04900
C 	C 	0.22928 0.55026 0.65047 -0.07700
C 	C 	0.31489 0.49167 0.31912 0.07500
C 	C 	0.40029 0.63860 0.46068 0.21100
C 	C 	0.61759 0.22964 0.05200 0.01800
C 	C 	0.55200 0.61759 0.27036 0.01800
C 	C 	0.63379 0.98045 0.18434 -0.11100
C 	C 	0.17521 0.47874 0.18398 0.04900
C 	C 	0.03716 0.77029 0.38630 0.05800
C 	C 	0.11759 0.22964 0.44800 0.01800
C 	C 	0.82479 0.52126 0.81602 0.04900
C 	C 	0.27072 0.44974 0.15047 -0.07700
C 	C 	0.86621 0.01955 0.68434 -0.11100
C 	C 	0.23186 0.19626 0.96765 0.06700
C 	C 	0.18189 0.03750 0.63435 -0.06600
C 	C 	0.76814 0.69626 0.53235 0.06600
C 	C 	0.98045 0.18434 0.63379 -0.11100
C 	C 	0.53402 0.70010 0.23595 0.03900
C 	C 	0.68511 0.50833 0.68088 0.07500
C 	C 	0.18511 0.50833 0.81912 0.07500
C 	C 	0.94800 0.38241 0.77036 0.01800
C 	C 	0.14494 0.54356 0.72840 -0.10900
C 	C 	0.00833 0.81912 0.31489 0.07600
C 	C 	0.03235 0.76814 0.80374 0.06700
C 	C 	0.45644 0.27160 0.85506 -0.10900
C 	C 	0.10089 0.98719 0.35980 0.31000
C 	C 	0.38241 0.72964 0.44800 0.01800
C 	C 	0.77072 0.05026 0.84953 -0.07700
C 	C 	0.79990 0.76405 0.03402 0.03900
C 	C 	0.70010 0.23595 0.53402 0.03900
C 	C 	0.99167 0.31912 0.18511 0.07700
C 	C 	0.73595 0.96598 0.29990 0.03900
C 	C 	0.53402 0.79990 0.73595 0.03900
C 	C 	0.11370 0.96284 0.27029 0.05900
C 	C 	0.46765 0.23186 0.30374 0.06600
C 	C 	0.18398 0.32479 0.97874 0.04900
C 	C 	0.73186 0.19626 0.53235 0.06600
C 	C 	0.77036 0.55200 0.88241 0.01800
C 	C 	0.81566 0.36621 0.01955 -0.11100
C 	C 	0.38241 0.77036 0.94800 0.01800
C 	C 	0.18434 0.86621 0.48045 -0.11100
C 	C 	0.72964 0.05200 0.88241 0.01800
C 	C 	0.96765 0.23186 0.19626 0.06700
C 	C 	0.86621 0.48045 0.18434 -0.11100
C 	C 	0.85506 0.45644 0.27160 -0.10900
N 	N 	0.01956 0.78396 0.71528 -0.21300
N 	N 	0.98543 0.27827 0.21557 -0.20600
N 	N 	0.71557 0.98543 0.22173 -0.20600
N 	N 	0.01457 0.77827 0.28443 -0.20600
N 	N 	0.78472 0.98044 0.28396 -0.21400
N 	N 	0.28472 0.51956 0.71604 -0.21400
N 	N 	0.71557 0.51457 0.72173 -0.20600
N 	N 	0.22173 0.71557 0.98543 -0.20600
N 	N 	0.48044 0.21604 0.21528 -0.21400
N 	N 	0.51457 0.77827 0.21557 -0.20600
N 	N 	0.71528 0.48044 0.28396 -0.21400
N 	N 	0.22173 0.78443 0.48543 -0.20600
N 	N 	0.01457 0.72173 0.78443 -0.20600
N 	N 	0.78443 0.01457 0.72173 -0.20600
N 	N 	0.21557 0.98543 0.27827 -0.20600
N 	N 	0.27827 0.28443 0.48543 -0.20600
N 	N 	0.21604 0.21528 0.48044 -0.21400
N 	N 	0.78396 0.71528 0.01956 -0.21300
N 	N 	0.98044 0.28396 0.78472 -0.21400
N 	N 	0.21528 0.01956 0.71604 -0.21400
N 	N 	0.72173 0.78443 0.01457 -0.20600
N 	N 	0.78396 0.78472 0.51956 -0.21400
N 	N 	0.21604 0.28472 0.98044 -0.21300
N 	N 	0.27827 0.21557 0.98543 -0.20600
N 	N 	0.98543 0.22173 0.71557 -0.20600
N 	N 	0.48543 0.27827 0.28443 -0.20600
N 	N 	0.21557 0.51457 0.77827 -0.20600
N 	N 	0.71604 0.28472 0.51956 -0.21400
N 	N 	0.78443 0.48543 0.22173 -0.20600
N 	N 	0.21528 0.48044 0.21604 -0.21400
N 	N 	0.51956 0.78396 0.78472 -0.21400
N 	N 	0.72173 0.71557 0.51457 -0.20600
N 	N 	0.51457 0.72173 0.71557 -0.20600
N 	N 	0.28396 0.78472 0.98044 -0.21400
N 	N 	0.71604 0.21528 0.01956 -0.21400
N 	N 	0.28443 0.48543 0.27827 -0.20600
N 	N 	0.98044 0.21604 0.28472 -0.21300
N 	N 	0.48543 0.22173 0.78443 -0.20600
N 	N 	0.28472 0.98044 0.21604 -0.21300
N 	N 	0.28443 0.01457 0.77827 -0.20600
N 	N 	0.77827 0.28443 0.01457 -0.20600
N 	N 	0.78472 0.51956 0.78396 -0.21400
N 	N 	0.51956 0.71604 0.28472 -0.21400
N 	N 	0.48044 0.28396 0.71528 -0.21400
N 	N 	0.01956 0.71604 0.21528 -0.21400
N 	N 	0.28396 0.71528 0.48044 -0.21400
N 	N 	0.77827 0.21557 0.51457 -0.20600
N 	N 	0.71528 0.01956 0.78396 -0.21300
Cl	Cl	0.96690 0.71010 0.64490 -0.43400
Cl	Cl	0.35510 0.03310 0.28990 -0.43400
Cl	Cl	0.36575 0.20280 0.46220 -0.45000
Cl	Cl	0.85510 0.46690 0.71010 -0.43300
Cl	Cl	0.20280 0.03780 0.86575 -0.44900
Cl	Cl	0.03310 0.28990 0.35510 -0.43400
Cl	Cl	0.29720 0.53780 0.86575 -0.45000
Cl	Cl	0.71010 0.85510 0.46690 -0.43300
Cl	Cl	0.36575 0.29720 0.96220 -0.44900
Cl	Cl	0.14490 0.96690 0.78990 -0.43300
Cl	Cl	0.13425 0.79720 0.96220 -0.44900
Cl	Cl	0.20280 0.46220 0.36575 -0.45000
Cl	Cl	0.96220 0.13425 0.79720 -0.44900
Cl	Cl	0.03780 0.86575 0.20280 -0.44900
Cl	Cl	0.78990 0.35510 0.46690 -0.43300
Cl	Cl	0.29720 0.96220 0.36575 -0.44900
Cl	Cl	0.86575 0.29720 0.53780 -0.45000
Cl	Cl	0.03780 0.63425 0.70280 -0.44900
Cl	Cl	0.96690 0.78990 0.14490 -0.43300
Cl	Cl	0.53780 0.86575 0.29720 -0.45000
Cl	Cl	0.79720 0.96220 0.13425 -0.44900
Cl	Cl	0.96220 0.36575 0.29720 -0.44900
Cl	Cl	0.86575 0.20280 0.03780 -0.44900
Cl	Cl	0.21010 0.64490 0.53310 -0.43300
Cl	Cl	0.21010 0.85510 0.03310 -0.43300
Cl	Cl	0.46220 0.13425 0.70280 -0.45000
Cl	Cl	0.03310 0.21010 0.85510 -0.43300
Cl	Cl	0.28990 0.14490 0.53310 -0.43300
Cl	Cl	0.53310 0.28990 0.14490 -0.43300
Cl	Cl	0.71010 0.64490 0.96690 -0.43400
Cl	Cl	0.14490 0.53310 0.28990 -0.43300
Cl	Cl	0.53310 0.21010 0.64490 -0.43300
Cl	Cl	0.46690 0.71010 0.85510 -0.43300
Cl	Cl	0.85510 0.03310 0.21010 -0.43300
Cl	Cl	0.46220 0.36575 0.20280 -0.45000
Cl	Cl	0.70280 0.46220 0.13425 -0.45000
Cl	Cl	0.79720 0.53780 0.63425 -0.45000
Cl	Cl	0.53780 0.63425 0.79720 -0.45000
Cl	Cl	0.78990 0.14490 0.96690 -0.43300
Cl	Cl	0.63425 0.70280 0.03780 -0.44900
Cl	Cl	0.63425 0.79720 0.53780 -0.45000
Cl	Cl	0.64490 0.96690 0.71010 -0.43400
Cl	Cl	0.64490 0.53310 0.21010 -0.43300
Cl	Cl	0.13425 0.70280 0.46220 -0.45000
Cl	Cl	0.70280 0.03780 0.63425 -0.44900
Cl	Cl	0.28990 0.35510 0.03310 -0.43400
Cl	Cl	0.46690 0.78990 0.35510 -0.43300
Cl	Cl	0.35510 0.46690 0.78990 -0.43300
O 	O 	0.04800 0.50540 0.85300 -0.16900
O 	O 	0.38278 0.90667 0.96337 -0.17300
O 	O 	0.59130 0.86840 0.98930 -0.35000
O 	O 	0.90667 0.96337 0.38278 -0.17300
O 	O 	0.63160 0.01070 0.09130 -0.34900
O 	O 	0.93032 0.47171 0.94644 0.80100
O 	O 	0.04800 0.99460 0.35300 -0.17100
O 	O 	0.54800 0.99460 0.14700 -0.17100
O 	O 	0.96122 0.94838 0.47048 -1.97600
O 	O 	0.59833 0.88058 0.99649 -0.16300
O 	O 	0.93032 0.02829 0.44644 0.80000
O 	O 	0.02829 0.05356 0.43032 0.80000
O 	O 	0.59333 0.46337 0.38278 -0.17300
O 	O 	0.03878 0.44838 0.02952 -1.97400
O 	O 	0.36980 0.58700 0.46450 -0.39000
O 	O 	0.35406 0.95637 0.05185 -0.32200
O 	O 	0.36840 0.51070 0.40870 -0.34900
O 	O 	0.63020 0.41300 0.53550 -0.39000
O 	O 	0.54210 0.15390 0.03150 -0.20700
O 	O 	0.46850 0.04210 0.15390 -0.20700
O 	O 	0.09833 0.61942 0.00351 -0.16400
O 	O 	0.53150 0.95790 0.84610 -0.20700
O 	O 	0.35300 0.45200 0.49460 -0.16900
O 	O 	0.03150 0.95790 0.65390 -0.20800
O 	O 	0.94649 0.02322 0.64339 -0.40600
O 	O 	0.91300 0.96450 0.36980 -0.39100
O 	O 	0.38058 0.50351 0.40167 -0.16400
O 	O 	0.03550 0.86980 0.58700 -0.39000
O 	O 	0.47048 0.96122 0.94838 -1.97600
O 	O 	0.45790 0.84610 0.96850 -0.20700
O 	O 	0.63160 0.48930 0.59130 -0.34900
O 	O 	0.59333 0.03663 0.88278 -0.17200
O 	O 	0.53878 0.44838 0.47048 -1.97400
O 	O 	0.99649 0.59833 0.88058 -0.16300
O 	O 	0.86840 0.51070 0.09130 -0.34900
O 	O 	0.94644 0.56968 0.97171 0.80000
O 	O 	0.53150 0.54210 0.34610 -0.20700
O 	O 	0.64339 0.55351 0.52322 -0.40900
O 	O 	0.40167 0.38058 0.50351 -0.16400
O 	O 	0.49460 0.35300 0.45200 -0.16900
O 	O 	0.55185 0.35406 0.54363 -0.32400
O 	O 	0.53540 0.96460 0.03540 -0.80400
O 	O 	0.11722 0.40667 0.96337 -0.17200
O 	O 	0.54363 0.94815 0.85406 -0.32400
O 	O 	0.50351 0.40167 0.38058 -0.16400
O 	O 	0.94610 0.05390 0.55390 -0.31100
O 	O 	0.61722 0.40667 0.53663 -0.17300
O 	O 	0.14339 0.94649 0.47678 -0.40900
O 	O 	0.95200 0.00540 0.64700 -0.17100
O 	O 	0.48930 0.90870 0.13160 -0.34900
O 	O 	0.96337 0.11722 0.40667 -0.17200
O 	O 	0.03540 0.53540 0.96460 -0.80400
O 	O 	0.00540 0.85300 0.45200 -0.17100
O 	O 	0.54210 0.34610 0.53150 -0.20700
O 	O 	0.65390 0.46850 0.45790 -0.20700
O 	O 	0.95637 0.05185 0.35406 -0.32200
O 	O 	0.09130 0.86840 0.51070 -0.34900
O 	O 	0.52829 0.44644 0.56968 0.80000
O 	O 	0.13020 0.41300 0.96450 -0.39000
O 	O 	0.84610 0.96850 0.45790 -0.20700
O 	O 	0.51070 0.09130 0.86840 -0.34900
O 	O 	0.48930 0.59130 0.63160 -0.34900
O 	O 	0.51070 0.40870 0.36840 -0.34900
O 	O 	0.14594 0.45637 0.05185 -0.32400
O 	O 	0.47678 0.14339 0.94649 -0.40900
O 	O 	0.97171 0.94644 0.56968 0.80000
O 	O 	0.97171 0.55356 0.06968 0.80000
O 	O 	0.03540 0.96460 0.46460 -0.80400
O 	O 	0.40167 0.11942 0.00351 -0.16300
O 	O 	0.13160 0.01070 0.40870 -0.35000
O 	O 	0.58700 0.46450 0.36980 -0.39000
O 	O 	0.97678 0.14339 0.55351 -0.40600
O 	O 	0.86980 0.91300 0.53550 -0.39100
O 	O 	0.11942 0.49649 0.90167 -0.16400
O 	O 	0.54800 0.50540 0.64700 -0.16900
O 	O 	0.43032 0.47171 0.55356 0.80000
O 	O 	0.44838 0.47048 0.53878 -1.97400
O 	O 	0.09333 0.03663 0.61722 -0.17300
O 	O 	0.63020 0.08700 0.03550 -0.39100
O 	O 	0.84610 0.53150 0.95790 -0.20700
O 	O 	0.46337 0.38278 0.59333 -0.17300
O 	O 	0.97048 0.96122 0.55162 -1.97400
O 	O 	0.55356 0.43032 0.47171 0.80000
O 	O 	0.45637 0.05185 0.14594 -0.32400
O 	O 	0.15390 0.03150 0.54210 -0.20700
O 	O 	0.94644 0.93032 0.47171 0.80100
O 	O 	0.56968 0.52829 0.44644 0.80000
O 	O 	0.94610 0.44610 0.05390 -0.31100
O 	O 	0.53550 0.63020 0.41300 -0.39000
O 	O 	0.09333 0.46337 0.11722 -0.17300
O 	O 	0.05162 0.52952 0.03878 -1.97600
O 	O 	0.85661 0.44649 0.02322 -0.40600
O 	O 	0.44649 0.47678 0.35661 -0.40900
O 	O 	0.64594 0.04363 0.94815 -0.32200
O 	O 	0.05390 0.94610 0.44610 -0.31100
O 	O 	0.02952 0.46122 0.94838 -1.97300
O 	O 	0.49460 0.14700 0.95200 -0.16900
O 	O 	0.11942 0.00351 0.40167 -0.16300
O 	O 	0.85406 0.54363 0.94815 -0.32400
O 	O 	0.96460 0.03540 0.53540 -0.80400
O 	O 	0.52322 0.64339 0.55351 -0.40900
O 	O 	0.46460 0.03540 0.96460 -0.80400
O 	O 	0.90870 0.36840 0.98930 -0.34900
O 	O 	0.01070 0.09130 0.63160 -0.34900
O 	O 	0.46450 0.13020 0.08700 -0.39100
O 	O 	0.58700 0.03550 0.86980 -0.39000
O 	O 	0.96122 0.55162 0.97048 -1.97400
O 	O 	0.95200 0.49460 0.14700 -0.16900
O 	O 	0.90667 0.53663 0.88278 -0.17300
O 	O 	0.88058 0.50351 0.09833 -0.16400
O 	O 	0.47048 0.53878 0.44838 -1.97400
O 	O 	0.97048 0.53878 0.05162 -1.97300
O 	O 	0.35300 0.04800 0.99460 -0.17100
O 	O 	0.04363 0.94815 0.64594 -0.32200
O 	O 	0.40870 0.13160 0.01070 -0.35000
O 	O 	0.35406 0.54363 0.55185 -0.32400
O 	O 	0.44649 0.02322 0.85661 -0.40600
O 	O 	0.14700 0.95200 0.49460 -0.16900
O 	O 	0.55162 0.52952 0.46122 -1.97400
O 	O 	0.02829 0.44644 0.93032 0.80000
O 	O 	0.99460 0.14700 0.54800 -0.17100
O 	O 	0.64339 0.94649 0.02322 -0.40600
O 	O 	0.52322 0.85661 0.05351 -0.40900
O 	O 	0.55185 0.14594 0.04363 -0.32400
O 	O 	0.03878 0.05162 0.52952 -1.97600
O 	O 	0.85406 0.95637 0.44815 -0.32400
O 	O 	0.44838 0.02952 0.03878 -1.97400
O 	O 	0.44644 0.93032 0.02829 0.80000
O 	O 	0.53550 0.86980 0.91300 -0.39100
O 	O 	0.05185 0.14594 0.45637 -0.32400
O 	O 	0.55351 0.97678 0.14339 -0.40600
O 	O 	0.45790 0.65390 0.46850 -0.20700
O 	O 	0.98930 0.90870 0.36840 -0.34900
O 	O 	0.44610 0.05390 0.94610 -0.31100
O 	O 	0.14700 0.54800 0.99460 -0.17100
O 	O 	0.88058 0.99649 0.59833 -0.16300
O 	O 	0.40667 0.53663 0.61722 -0.17300
O 	O 	0.59130 0.63160 0.48930 -0.34900
O 	O 	0.55351 0.52322 0.64339 -0.40900
O 	O 	0.90870 0.13160 0.48930 -0.34900
O 	O 	0.00351 0.40167 0.11942 -0.16300
O 	O 	0.08700 0.46450 0.13020 -0.39100
O 	O 	0.08700 0.03550 0.63020 -0.39100
O 	O 	0.49649 0.59833 0.61942 -0.16400
O 	O 	0.55356 0.06968 0.97171 0.80000
O 	O 	0.04210 0.15390 0.46850 -0.20700
O 	O 	0.06968 0.52829 0.05356 0.80100
O 	O 	0.45200 0.49460 0.35300 -0.16900
O 	O 	0.40667 0.96337 0.11722 -0.17200
O 	O 	0.05351 0.97678 0.35661 -0.40600
O 	O 	0.36980 0.91300 0.96450 -0.39100
O 	O 	0.38278 0.59333 0.46337 -0.17300
O 	O 	0.15390 0.46850 0.04210 -0.20700
O 	O 	0.52952 0.46122 0.55162 -1.97400
O 	O 	0.56968 0.97171 0.94644 0.80000
O 	O 	0.65390 0.03150 0.95790 -0.20800
O 	O 	0.11722 0.09333 0.46337 -0.17300
O 	O 	0.46460 0.46460 0.46460 -0.80500
O 	O 	0.55390 0.94610 0.05390 -0.31100
O 	O 	0.13020 0.08700 0.46450 -0.39100
O 	O 	0.50540 0.64700 0.54800 -0.16900
O 	O 	0.64700 0.95200 0.00540 -0.17100
O 	O 	0.03150 0.54210 0.15390 -0.20700
O 	O 	0.36840 0.98930 0.90870 -0.34900
O 	O 	0.94815 0.64594 0.04363 -0.32200
O 	O 	0.99460 0.35300 0.04800 -0.17100
O 	O 	0.00351 0.09833 0.61942 -0.16400
O 	O 	0.96450 0.13020 0.41300 -0.39000
O 	O 	0.99649 0.90167 0.38058 -0.16400
O 	O 	0.96850 0.04210 0.34610 -0.20800
O 	O 	0.85300 0.04800 0.50540 -0.16900
O 	O 	0.53540 0.53540 0.53540 -0.80500
O 	O 	0.86840 0.98930 0.59130 -0.35000
O 	O 	0.53663 0.61722 0.40667 -0.17300
O 	O 	0.41300 0.53550 0.63020 -0.39000
O 	O 	0.03663 0.61722 0.09333 -0.17300
O 	O 	0.59833 0.61942 0.49649 -0.16400
O 	O 	0.85661 0.05351 0.52322 -0.40900
O 	O 	0.04363 0.55185 0.14594 -0.32400
O 	O 	0.90167 0.38058 0.99649 -0.16400
O 	O 	0.53663 0.88278 0.90667 -0.17300
O 	O 	0.47678 0.35661 0.44649 -0.40900
O 	O 	0.97678 0.35661 0.05351 -0.40600
O 	O 	0.44610 0.44610 0.44610 -0.31100
O 	O 	0.01070 0.40870 0.13160 -0.35000
O 	O 	0.96850 0.45790 0.84610 -0.20700
O 	O 	0.02952 0.03878 0.44838 -1.97400
O 	O 	0.53878 0.05162 0.97048 -1.97300
O 	O 	0.61942 0.49649 0.59833 -0.16400
O 	O 	0.96460 0.46460 0.03540 -0.80400
O 	O 	0.09833 0.88058 0.50351 -0.16400
O 	O 	0.61722 0.09333 0.03663 -0.17300
O 	O 	0.00540 0.64700 0.95200 -0.17100
O 	O 	0.41300 0.96450 0.13020 -0.39000
O 	O 	0.52829 0.05356 0.06968 0.80100
O 	O 	0.49649 0.90167 0.11942 -0.16400
O 	O 	0.54363 0.55185 0.35406 -0.32400
O 	O 	0.45200 0.00540 0.85300 -0.17100
O 	O 	0.04210 0.34610 0.96850 -0.20800
O 	O 	0.47171 0.94644 0.93032 0.80100
O 	O 	0.88278 0.59333 0.03663 -0.17200
O 	O 	0.64700 0.54800 0.50540 -0.16900
O 	O 	0.95637 0.44815 0.85406 -0.32400
O 	O 	0.55162 0.97048 0.96122 -1.97400
O 	O 	0.44815 0.64594 0.45637 -0.32400
O 	O 	0.34610 0.96850 0.04210 -0.20800
O 	O 	0.85300 0.45200 0.00540 -0.17100
O 	O 	0.43032 0.02829 0.05356 0.80000
O 	O 	0.90167 0.11942 0.49649 -0.16400
O 	O 	0.94815 0.85406 0.54363 -0.32400
O 	O 	0.05356 0.43032 0.02829 0.80000
O 	O 	0.95790 0.65390 0.03150 -0.20800
O 	O 	0.44644 0.56968 0.52829 0.80000
O 	O 	0.94649 0.47678 0.14339 -0.40900
O 	O 	0.46122 0.55162 0.52952 -1.97400
O 	O 	0.55390 0.55390 0.55390 -0.31100
O 	O 	0.02322 0.64339 0.94649 -0.40600
O 	O 	0.05162 0.97048 0.53878 -1.97300
O 	O 	0.05185 0.35406 0.95637 -0.32200
O 	O 	0.06968 0.97171 0.55356 0.80000
O 	O 	0.95790 0.84610 0.53150 -0.20700
O 	O 	0.05356 0.06968 0.52829 0.80100
O 	O 	0.46450 0.36980 0.58700 -0.39000
O 	O 	0.46122 0.94838 0.02952 -1.97300
O 	O 	0.94838 0.47048 0.96122 -1.97600
O 	O 	0.96450 0.36980 0.91300 -0.39100
O 	O 	0.88278 0.90667 0.53663 -0.17300
O 	O 	0.14339 0.55351 0.97678 -0.40600
O 	O 	0.46337 0.11722 0.09333 -0.17300
O 	O 	0.98930 0.59130 0.86840 -0.35000
O 	O 	0.50540 0.85300 0.04800 -0.16900
O 	O 	0.13160 0.48930 0.90870 -0.34900
O 	O 	0.94838 0.02952 0.46122 -1.97300
O 	O 	0.47171 0.55356 0.43032 0.80000
O 	O 	0.03550 0.63020 0.08700 -0.39100
O 	O 	0.44815 0.85406 0.95637 -0.32400
O 	O 	0.38058 0.99649 0.90167 -0.16400
O 	O 	0.46850 0.45790 0.65390 -0.20700
O 	O 	0.50351 0.09833 0.88058 -0.16400
O 	O 	0.05390 0.55390 0.94610 -0.31100
O 	O 	0.09130 0.63160 0.01070 -0.34900
O 	O 	0.35661 0.05351 0.97678 -0.40600
O 	O 	0.64594 0.45637 0.44815 -0.32400
O 	O 	0.34610 0.53150 0.54210 -0.20700
O 	O 	0.61942 0.00351 0.09833 -0.16400
O 	O 	0.14594 0.04363 0.55185 -0.32400
O 	O 	0.91300 0.53550 0.86980 -0.39100
O 	O 	0.86980 0.58700 0.03550 -0.39000
O 	O 	0.35661 0.44649 0.47678 -0.40900
O 	O 	0.03663 0.88278 0.59333 -0.17200
O 	O 	0.45637 0.44815 0.64594 -0.32400
O 	O 	0.05351 0.52322 0.85661 -0.40900
O 	O 	0.52952 0.03878 0.05162 -1.97600
O 	O 	0.40870 0.36840 0.51070 -0.34900
O 	O 	0.02322 0.85661 0.44649 -0.40600
O 	O 	0.96337 0.38278 0.90667 -0.17300
