data_crystal

_cell_length_a 23.42280
_cell_length_b 23.42250
_cell_length_c 23.42250
_cell_angle_alpha 109.47100
_cell_angle_beta  109.47100
_cell_angle_gamma 109.47100

_symmetry_space_group_name_	'P 1'
_symmetry_space_group_name_H-M	'P 1'

loop_
_symmetry_equiv_pos_as_xyz
  x,y,z

loop_
_atom_site_label
_atom_site_type_symbol
_atom_site_fract_x
_atom_site_fract_y
_atom_site_fract_z
_atom_site_charge
K 	K 	0.03276 0.25000 0.28276 0.64400
K 	K 	0.71724 0.46724 0.25000 0.64100
K 	K 	0.46724 0.75000 0.21724 0.63900
K 	K 	0.78276 0.03276 0.75000 0.64200
K 	K 	0.75000 0.71724 0.96724 0.64700
K 	K 	0.25000 0.78276 0.53276 0.63800
Co	Co	0.79658 0.00000 -0.00000 1.04500
Co	Co	0.70342 0.70342 0.20342 1.05700
Co	Co	0.50000 0.79658 0.50000 1.05500
Co	Co	-0.00000 0.50000 0.29658 1.06500
H 	H 	0.01640 0.08760 0.88380 -0.06900
H 	H 	0.36630 0.62030 0.59580 1.04200
H 	H 	0.43870 0.94880 0.59970 0.05000
H 	H 	0.25040 0.86060 0.78720 -0.21900
H 	H 	0.71120 0.99400 0.32400 0.97100
H 	H 	0.48990 0.65090 0.05120 0.04800
H 	H 	0.78090 0.17620 0.88830 -0.31500
H 	H 	0.88300 0.87690 0.79710 1.17300
H 	H 	0.98770 0.07860 0.66950 -0.36500
H 	H 	0.79900 0.95440 0.55180 -0.09000
H 	H 	0.69290 0.91630 0.30160 0.98100
H 	H 	0.62310 0.00610 0.42020 1.13400
H 	H 	0.35070 0.45020 0.12210 1.23000
H 	H 	0.69840 0.11470 0.89130 1.02800
H 	H 	0.31410 0.91590 0.47260 -0.43800
H 	H 	0.38380 0.01640 0.58760 -0.10400
H 	H 	0.77090 0.48660 0.14910 0.99500
H 	H 	0.52740 0.94330 0.34150 -0.38000
H 	H 	0.49390 0.61700 0.91410 1.11500
H 	H 	0.00100 0.21090 0.11450 1.01300
H 	H 	0.07860 0.16950 0.48770 -0.18500
H 	H 	0.19750 0.63540 0.97650 -0.57800
H 	H 	0.67190 0.04980 0.40050 1.11700
H 	H 	0.59090 0.51230 0.68180 -0.21400
H 	H 	0.27900 0.93790 0.80250 -0.20400
H 	H 	0.07320 0.24840 0.04620 1.04300
H 	H 	0.64910 0.77090 0.98660 1.01000
H 	H 	0.25160 0.82480 0.29780 1.20800
H 	H 	0.97260 0.31410 0.41590 -0.36900
H 	H 	0.73180 0.39390 0.43970 -0.04800
H 	H 	0.76820 0.20790 0.66210 -0.04400
H 	H 	0.80710 0.10870 0.22340 1.01800
H 	H 	0.90910 0.59090 0.92140 -0.15900
H 	H 	0.71210 0.32380 0.10470 -0.29200
H 	H 	0.73340 0.82410 0.73970 1.11100
H 	H 	0.84460 0.59740 0.04560 -0.06100
H 	H 	0.72910 0.87820 0.71570 1.10100
H 	H 	0.70380 0.13260 0.61620 -0.07700
H 	H 	0.53540 0.72550 0.06490 0.01400
H 	H 	0.90160 0.09000 0.55820 0.03300
H 	H 	0.66740 0.27390 0.38310 0.03200
H 	H 	0.87750 0.99470 0.57340 -0.04800
H 	H 	0.05180 0.79900 0.45440 -0.09900
H 	H 	0.39130 0.69840 0.61470 1.04800
H 	H 	0.02950 0.69010 0.46460 0.02600
H 	H 	0.50600 0.71720 0.83000 0.95700
H 	H 	0.50630 0.59070 0.26660 1.18600
H 	H 	0.09000 0.05820 0.40160 0.04000
H 	H 	0.41240 0.92880 0.29620 -0.08800
H 	H 	0.17620 0.38830 0.28090 -0.29100
H 	H 	0.88650 0.88550 0.09640 0.95300
H 	H 	0.38980 0.92660 0.13940 -0.24700
H 	H 	0.44820 0.90260 0.74720 -0.10200
H 	H 	0.22100 0.02350 0.65890 -0.39900
H 	H 	0.62210 0.35070 0.95020 1.05100
H 	H 	0.62250 0.19590 0.11720 -0.04700
H 	H 	0.31820 0.33050 0.40910 -0.20900
H 	H 	0.93790 0.30250 0.77900 -0.19800
H 	H 	0.88550 0.59640 0.38650 1.11800
H 	H 	0.75400 0.13370 0.22950 1.01200
H 	H 	0.58410 0.39820 0.05670 -0.35200
H 	H 	0.15660 0.68840 0.09840 0.01700
H 	H 	0.91560 0.67590 0.40930 1.09200
H 	H 	0.11170 0.78790 0.39260 -0.35500
H 	H 	0.34110 0.86460 0.06210 -0.23000
H 	H 	0.11470 0.39130 0.19840 0.93600
H 	H 	0.66250 0.01340 0.78430 1.07800
H 	H 	0.45420 0.29210 0.06030 -0.04400
H 	H 	0.10180 0.18590 0.15850 -0.34200
H 	H 	0.80990 0.33940 0.27450 0.01600
H 	H 	0.51230 0.18180 0.09090 -0.23000
H 	H 	0.92880 0.79620 0.91240 -0.04200
H 	H 	0.40420 0.52450 0.27050 1.08800
H 	H 	0.70220 0.02700 0.45380 1.10400
H 	H 	0.00610 0.92020 0.12310 1.00100
H 	H 	0.57870 0.50530 0.38280 -0.05200
H 	H 	0.22860 0.87790 0.32810 1.22400
H 	H 	0.16060 0.47050 0.43510 0.01400
H 	H 	0.78790 0.89260 0.61170 -0.32900
H 	H 	0.60740 0.89530 0.21910 -0.31800
H 	H 	0.87970 0.74600 0.47550 1.00400
H 	H 	0.33940 0.77450 0.30990 0.01100
H 	H 	0.28430 0.66250 0.51340 1.12800
H 	H 	0.18590 0.65850 0.60180 -0.39800
H 	H 	0.34340 0.44180 0.53180 0.02200
H 	H 	0.28910 0.79010 0.40360 1.20000
H 	H 	0.77450 0.80990 0.83940 0.01500
H 	H 	0.57120 0.48360 0.86740 -0.06200
H 	H 	0.20790 0.16210 0.26820 -0.03000
H 	H 	0.66100 0.01010 0.56130 0.09900
H 	H 	0.10650 0.83260 0.71570 0.03200
H 	H 	0.04580 0.10610 0.83790 -0.03400
H 	H 	0.83750 0.62180 0.35090 1.08900
H 	H 	0.46820 0.41000 0.31160 0.01800
H 	H 	0.47050 0.93510 0.66060 0.01300
H 	H 	0.14930 0.27140 0.09950 1.05800
H 	H 	0.39820 0.55670 0.08410 -0.46200
H 	H 	0.29710 0.88300 0.37690 1.24000
H 	H 	0.97550 0.87970 0.24600 0.85400
H 	H 	0.38530 0.58370 0.27660 1.09600
H 	H 	0.90260 0.24720 0.94820 -0.07800
H 	H 	0.21280 0.57340 0.96320 -0.60600
H 	H 	0.82480 0.79780 0.75160 1.14500
H 	H 	0.59950 0.14930 0.77140 1.15300
H 	H 	0.72340 0.80710 0.60870 1.02500
H 	H 	0.02350 0.15890 0.72100 -0.33700
H 	H 	0.19590 0.61720 0.12250 -0.06200
H 	H 	0.65850 0.10180 0.68590 -0.37800
H 	H 	0.24840 0.54620 0.57320 1.17300
H 	H 	0.95380 0.70220 0.52700 1.12300
H 	H 	0.63540 0.47650 0.69750 -0.19700
H 	H 	0.67590 0.90930 0.41560 1.06500
H 	H 	0.89530 0.71910 0.10740 -0.26100
H 	H 	0.55670 0.58410 0.89820 -0.34800
H 	H 	0.07340 0.87750 0.49470 -0.05000
H 	H 	0.10870 0.72340 0.30710 1.09400
H 	H 	0.30410 0.42660 0.42130 -0.04300
H 	H 	0.33790 0.04580 0.60610 -0.06300
H 	H 	0.25280 0.65540 0.20100 -0.12100
H 	H 	0.01010 0.06130 0.16100 0.10400
H 	H 	0.61350 0.70990 0.99900 1.04500
H 	H 	0.01340 0.28430 0.16250 0.98400
H 	H 	0.77050 0.40420 0.02450 0.90200
H 	H 	0.77660 0.38530 0.08370 0.91500
H 	H 	0.39080 0.28430 0.11690 0.03100
H 	H 	0.81160 0.46820 0.91000 0.04800
H 	H 	0.86060 0.28720 0.75040 -0.21400
H 	H 	0.86460 0.56210 0.84110 -0.15000
H 	H 	0.41410 0.49390 0.11700 1.24900
H 	H 	0.79010 0.90360 0.78910 1.13100
H 	H 	0.58440 0.99370 0.76030 1.06400
H 	H 	0.42140 0.90910 0.09090 -0.25100
H 	H 	0.46320 0.21280 0.07340 -0.23000
H 	H 	0.16950 0.98770 0.57860 -0.43500
H 	H 	0.06130 0.66100 0.51010 0.06300
H 	H 	0.38720 0.67600 0.67000 1.04600
H 	H 	0.84150 0.52740 0.44330 -0.38500
H 	H 	0.29210 0.56030 0.95420 -0.06900
H 	H 	0.57980 0.08590 0.70290 1.17000
H 	H 	0.74600 0.97550 0.37970 0.97000
H 	H 	0.60470 0.71210 0.82380 -0.29900
H 	H 	0.59740 0.54560 0.34460 -0.09700
H 	H 	0.59640 0.88650 0.38550 1.09000
H 	H 	0.91630 0.80160 0.19290 0.86500
H 	H 	0.41000 0.81160 0.96820 0.00300
H 	H 	0.32380 0.60470 0.21210 -0.37300
H 	H 	0.03180 0.34340 0.94180 0.02800
H 	H 	0.63940 0.38980 0.42660 -0.22500
H 	H 	0.40030 0.84910 0.33900 0.05200
H 	H 	0.99470 0.07340 0.37750 -0.03300
H 	H 	0.54620 0.07320 0.74840 1.14300
H 	H 	0.42680 0.47300 0.17520 1.21700
H 	H 	0.39390 0.93970 0.23180 -0.05300
H 	H 	0.62180 0.85090 0.33750 1.06100
H 	H 	0.26030 0.58440 0.49370 1.13600
H 	H 	0.93970 0.73180 0.89390 -0.01300
H 	H 	0.59840 0.15660 0.18840 0.02000
H 	H 	0.05820 0.90160 0.59000 0.02400
H 	H 	0.84910 0.83900 0.90030 0.05800
H 	H 	0.56210 0.34110 0.36460 -0.20800
H 	H 	0.96460 0.02950 0.19010 0.05500
H 	H 	0.24720 0.44820 0.40260 -0.08500
H 	H 	0.83260 0.21570 0.60650 0.03500
H 	H 	0.42660 0.92130 0.80410 -0.05900
H 	H 	0.92660 0.63940 0.88980 -0.16500
H 	H 	0.92130 0.30410 0.92660 -0.04100
H 	H 	0.52450 0.77050 0.90420 0.96200
H 	H 	0.85090 0.83750 0.12180 0.93200
H 	H 	0.23970 0.73340 0.32410 1.17700
H 	H 	0.48360 0.36740 0.07120 -0.07800
H 	H 	0.13260 0.11620 0.20380 -0.06200
H 	H 	0.94880 0.09970 0.93870 0.06800
H 	H 	0.21570 0.72910 0.37820 1.16800
H 	H 	0.57340 0.46320 0.71280 -0.21300
H 	H 	0.62030 0.09580 0.86630 1.02300
H 	H 	0.39350 0.10920 0.72610 0.03000
H 	H 	0.58370 0.77660 0.88530 0.96200
H 	H 	0.16210 0.76820 0.70790 -0.04900
H 	H 	0.78880 0.11280 0.28280 1.01700
H 	H 	0.28720 0.25040 0.36060 -0.20700
H 	H 	0.82410 0.23970 0.23340 1.09900
H 	H 	0.87790 0.82810 0.72860 1.15700
H 	H 	0.80160 0.69290 0.41630 1.01200
H 	H 	0.67600 0.17000 0.88720 1.02500
H 	H 	0.61690 0.39080 0.78430 0.04500
H 	H 	0.21570 0.10650 0.33260 0.04100
H 	H 	0.72550 0.56490 0.03540 0.05900
H 	H 	0.68840 0.59840 0.65660 0.02500
H 	H 	0.82400 0.71120 0.49400 1.00800
H 	H 	0.08760 0.38380 0.51640 -0.06600
H 	H 	0.27140 0.59950 0.64930 1.18800
H 	H 	0.56030 0.45420 0.79210 -0.03000
H 	H 	0.49900 0.61350 0.20990 1.21100
H 	H 	0.47300 0.67520 0.92680 1.08900
H 	H 	0.33000 0.50600 0.21720 1.09300
H 	H 	0.55120 0.48990 0.15090 0.05100
H 	H 	0.91590 0.97260 0.81410 -0.38600
H 	H 	0.88310 0.66740 0.77390 0.04100
H 	H 	0.79780 0.25160 0.32480 1.13600
H 	H 	0.90050 0.67190 0.54980 1.14200
H 	H 	0.10610 0.33790 0.54580 -0.03400
H 	H 	0.71720 0.33000 0.00600 0.90200
H 	H 	0.08590 0.20290 0.07980 1.07300
H 	H 	0.10920 0.22610 0.89350 0.04000
H 	H 	0.11620 0.70380 0.63260 -0.08200
H 	H 	0.38830 0.78090 0.67620 -0.33700
H 	H 	0.89260 0.11170 0.28790 -0.31400
H 	H 	0.27390 0.88310 0.16740 0.02600
H 	H 	0.30250 0.27900 0.43790 -0.19100
H 	H 	0.92020 0.62310 0.50610 1.15600
H 	H 	0.20290 0.57980 0.58590 1.20400
H 	H 	0.82810 0.22860 0.37790 1.15000
H 	H 	0.71910 0.60740 0.39530 -0.32400
H 	H 	0.36740 0.57120 0.98360 -0.11500
H 	H 	0.88280 0.57870 0.00530 -0.03200
H 	H 	0.90360 0.28910 0.29010 1.11900
H 	H 	0.76660 0.50630 0.09070 0.99600
H 	H 	0.54560 0.84460 0.09740 -0.10500
H 	H 	0.72950 0.75400 0.63370 1.01900
H 	H 	0.87690 0.29710 0.38300 1.16300
H 	H 	0.17000 0.38720 0.17600 0.93000
H 	H 	0.24960 0.03680 0.61020 -0.42200
H 	H 	0.22610 0.39350 0.60920 0.03800
H 	H 	0.21090 0.61450 0.50100 1.16100
H 	H 	0.70990 0.49900 0.11350 1.02200
H 	H 	0.61720 0.62250 0.69590 -0.04200
H 	H 	0.70100 0.25280 0.15540 -0.08800
H 	H 	0.15890 0.22100 0.52350 -0.17300
H 	H 	0.65090 0.55120 0.98990 0.13100
H 	H 	0.04980 0.90050 0.17190 0.98700
H 	H 	0.83900 0.40030 0.34910 0.05500
H 	H 	0.79620 0.41240 0.42880 -0.08300
H 	H 	0.78280 0.78880 0.61280 1.02100
H 	H 	0.95440 0.05180 0.29900 -0.06800
H 	H 	0.44180 0.03180 0.84340 0.01200
H 	H 	0.11020 0.24960 0.53680 -0.18800
H 	H 	0.69010 0.96460 0.52950 0.04000
H 	H 	0.59090 0.42140 0.40910 -0.22600
H 	H 	0.50530 0.88280 0.07870 -0.06800
H 	H 	0.03680 0.11020 0.74960 -0.35700
H 	H 	0.67520 0.42680 0.97300 1.03900
H 	H 	0.99400 0.82400 0.21120 0.85300
H 	H 	0.09580 0.36630 0.12030 0.93100
H 	H 	0.13370 0.72950 0.25400 1.08500
H 	H 	0.61450 0.00100 0.71090 1.11000
H 	H 	0.02700 0.95380 0.20220 0.97400
H 	H 	0.47650 0.19750 0.13540 -0.20900
H 	H 	0.87820 0.21570 0.22910 1.08900
H 	H 	0.90930 0.91560 0.17590 0.93400
H 	H 	0.09970 0.43870 0.44880 0.05800
H 	H 	0.18180 0.59090 0.01230 -0.63000
H 	H 	0.90910 0.31820 0.83050 -0.21400
H 	H 	0.61700 0.41410 0.99390 1.07000
H 	H 	0.56490 0.53540 0.22550 0.01000
H 	H 	0.11280 0.78280 0.28880 1.09300
H 	H 	0.93510 0.16060 0.97050 0.03500
H 	H 	0.33050 0.90910 0.81820 -0.22200
H 	H 	0.99370 0.26030 0.08440 0.95900
H 	H 	0.45020 0.62210 0.85070 1.09500
H 	H 	0.94330 0.84150 0.02740 -0.30100
H 	H 	0.59070 0.76660 0.00630 0.98100
H 	H 	0.48660 0.64910 0.27090 1.17800
H 	H 	0.65540 0.70100 0.75280 -0.08400
H 	H 	0.28430 0.61690 0.89080 0.02900
C 	C 	0.21290 0.61040 0.99710 2.24100
C 	C 	0.68450 0.45860 0.37990 0.56600
C 	C 	0.22500 0.70310 0.62870 1.02300
C 	C 	0.64420 0.94760 0.35360 2.89500
C 	C 	0.28420 0.89750 0.78710 0.89100
C 	C 	0.70740 0.32780 0.34200 -0.16000
C 	C 	0.06950 0.87020 0.65490 -0.05800
C 	C 	0.34700 0.44560 0.71000 0.01100
C 	C 	0.64850 0.57250 0.21420 0.36700
C 	C 	0.83840 0.70410 0.45950 -3.47400
C 	C 	0.85360 0.64420 0.44760 2.99000
C 	C 	0.00760 0.10010 0.84750 0.32300
C 	C 	0.28670 0.70890 0.63220 -1.53100
C 	C 	0.66190 0.01350 0.41220 -3.68300
C 	C 	0.44240 0.77910 0.03190 -0.21400
C 	C 	0.24450 0.65250 0.15640 0.29900
C 	C 	0.64840 0.39870 0.98650 -3.44500
C 	C 	0.84750 0.59200 0.00390 0.08200
C 	C 	0.08810 0.84360 0.49610 0.25300
C 	C 	0.24970 0.58780 0.60130 -3.93800
C 	C 	0.67290 0.32680 0.10250 0.70700
C 	C 	0.00600 0.86650 0.71970 -0.08700
C 	C 	0.92560 0.79690 0.02190 0.70700
C 	C 	0.96560 0.88010 0.65370 -0.13700
C 	C 	0.19930 0.78470 0.12980 -0.07000
C 	C 	0.77360 0.61990 0.58550 -0.11700
C 	C 	0.34750 0.00760 0.60010 0.41900
C 	C 	0.09980 0.83180 0.67400 0.01200
C 	C 	0.57250 0.71420 0.14850 0.36500
C 	C 	0.10110 0.07140 0.37170 -0.03800
C 	C 	0.37130 0.57440 0.09630 1.18800
C 	C 	0.38720 0.96300 0.68200 0.17800
C 	C 	0.06570 0.42400 0.35150 0.36800
C 	C 	0.98470 0.06980 0.18510 -0.28400
C 	C 	0.60250 0.38670 0.38960 0.90200
C 	C 	0.65780 0.42580 0.82600 -0.03400
C 	C 	0.55240 0.69660 0.90600 2.81100
C 	C 	0.04140 0.22590 0.42130 0.54600
C 	C 	0.40600 0.55240 0.19660 3.25400
C 	C 	0.15370 0.96560 0.38010 -0.12500
C 	C 	0.58140 0.13280 0.28400 0.03800
C 	C 	0.27540 0.12140 0.47500 -0.01400
C 	C 	0.57780 0.92330 0.29110 -1.44300
C 	C 	0.92130 0.04140 0.72590 0.64500
C 	C 	0.01420 0.17220 0.87960 -0.13600
C 	C 	0.83180 0.17400 0.59980 -0.00800
C 	C 	0.07140 0.87170 0.60110 0.01300
C 	C 	0.58190 0.06900 0.22650 -0.00600
C 	C 	0.34010 0.59480 0.05710 -0.91900
C 	C 	0.84220 0.66820 0.76800 -0.03100
C 	C 	0.63350 0.13950 0.35320 -0.10800
C 	C 	0.99610 0.08810 0.34360 0.14800
C 	C 	0.22590 0.92130 0.54140 0.70500
C 	C 	0.26830 0.76720 0.87070 0.00200
C 	C 	0.15990 0.21700 0.25470 -0.62000
C 	C 	0.91860 0.20260 0.55140 0.03800
C 	C 	0.75470 0.15990 0.71700 -0.68200
C 	C 	0.95950 0.83840 0.20410 -2.98400
C 	C 	0.62830 0.19970 0.22940 -0.00800
C 	C 	0.05140 0.91860 0.70260 0.05600
C 	C 	0.34630 0.72640 0.81190 -0.11700
C 	C 	0.71530 0.41460 0.84510 -0.01000
C 	C 	0.47030 0.39890 0.27060 -0.00400
C 	C 	0.79260 0.13460 0.62040 -0.14600
C 	C 	0.38470 0.79960 0.31490 -0.18100
C 	C 	0.64680 0.28630 0.78030 -0.10700
C 	C 	0.71900 0.53700 0.92420 0.11900
C 	C 	0.90370 0.97810 0.77500 0.96600
C 	C 	0.66820 0.26800 0.34220 0.00100
C 	C 	0.76720 0.37070 0.76830 -0.00500
C 	C 	0.41050 0.96810 0.74720 -0.19300
C 	C 	0.42580 0.32600 0.15780 -0.00300
C 	C 	0.62980 0.19930 0.28470 -0.05200
C 	C 	0.74530 0.46230 0.40520 -0.69500
C 	C 	0.43100 0.51290 0.65750 -0.01300
C 	C 	0.70040 0.58510 0.01530 -0.34600
C 	C 	0.10010 0.34750 0.50760 0.27800
C 	C 	0.00290 0.11330 0.71580 1.38000
C 	C 	0.23170 0.10240 0.49890 0.00800
C 	C 	0.89750 0.28710 0.78420 0.86700
C 	C 	0.62500 0.01890 0.75870 -3.68400
C 	C 	0.57670 0.65450 0.86780 -1.37700
C 	C 	0.85580 0.20940 0.30340 2.99400
C 	C 	0.15490 0.06950 0.37020 -0.02400
C 	C 	0.72940 0.62830 0.69970 -0.02600
C 	C 	0.77350 0.34250 0.85540 -0.00600
C 	C 	0.12870 0.22500 0.20310 0.87900
C 	C 	0.26440 0.05440 0.40140 0.00200
C 	C 	0.32780 0.84200 0.20740 -0.17400
C 	C 	0.03770 0.28300 0.44290 -0.63600
C 	C 	0.16010 0.15250 0.25260 0.25900
C 	C 	0.58510 0.51530 0.20040 -0.18000
C 	C 	0.17320 0.34610 0.27570 0.70900
C 	C 	0.34880 0.29740 0.21600 0.04200
C 	C 	0.87990 0.68450 0.95860 0.47900
C 	C 	0.15300 0.86300 0.09860 0.00100
C 	C 	0.07580 0.11280 0.29480 0.14100
C 	C 	0.69960 0.34600 0.72460 -0.01300
C 	C 	0.77060 0.47030 0.89890 -0.06900
C 	C 	0.74460 0.37890 0.04050 -3.15700
C 	C 	0.25870 0.62500 0.51890 -3.87900
C 	C 	0.08540 0.30070 0.93050 -0.04800
C 	C 	0.11530 0.43020 0.41490 -0.18400
C 	C 	0.73280 0.50110 0.60350 -0.00600
C 	C 	0.70520 0.31800 0.28100 0.16800
C 	C 	0.37890 0.54050 0.24460 -3.75300
C 	C 	0.65640 0.24450 0.15250 0.18700
C 	C 	0.01890 0.25870 0.12500 -3.37100
C 	C 	0.14640 0.80040 0.02500 -0.01600
C 	C 	0.90140 0.26440 0.55440 0.00400
C 	C 	0.85150 0.06570 0.92400 0.37300
C 	C 	0.81550 0.19540 0.77410 0.55500
C 	C 	0.94760 0.85360 0.14420 2.52700
C 	C 	0.12040 0.79260 0.63460 -0.16700
C 	C 	0.58780 0.10130 0.74970 -3.81700
C 	C 	0.28300 0.94290 0.53770 -0.83200
C 	C 	0.13430 0.75540 0.29590 -3.73200
C 	C 	0.73980 0.48110 0.10610 -3.42900
C 	C 	0.87530 0.66630 0.00960 -0.42700
C 	C 	0.39760 0.12930 0.89650 0.01200
C 	C 	0.27410 0.81550 0.69540 0.58200
C 	C 	0.66160 0.12110 0.86570 -3.49900
C 	C 	0.66630 0.50960 0.37530 -0.49700
C 	C 	0.53190 0.44240 0.27910 -0.15500
C 	C 	0.72650 0.58190 0.56900 -0.01100
C 	C 	0.61040 0.49710 0.71290 0.85900
C 	C 	0.91810 0.14460 0.48710 -0.01100
C 	C 	0.17400 0.09980 0.33180 -0.02100
C 	C 	0.42400 0.85150 0.56570 0.36600
C 	C 	0.85320 0.63350 0.63950 -0.11400
C 	C 	0.40020 0.07420 0.73200 0.02700
C 	C 	0.91490 0.11530 0.93020 -0.19600
C 	C 	0.10240 0.99890 0.73170 0.00400
C 	C 	0.21000 0.34700 0.94560 0.00100
C 	C 	0.64170 0.92750 0.57600 0.39500
C 	C 	0.22460 0.69960 0.84600 0.00200
C 	C 	0.31800 0.78100 0.20520 0.19100
C 	C 	0.89750 0.72430 0.07040 0.62400
C 	C 	0.66330 0.25280 0.22090 -0.14500
C 	C 	0.20940 0.80340 0.35580 3.22000
C 	C 	0.13220 0.28670 0.20890 -1.34200
C 	C 	0.52500 0.14640 0.30040 -0.01200
C 	C 	0.86650 0.21970 0.50600 -0.11100
C 	C 	0.82710 0.92960 0.65390 0.80700
C 	C 	0.79110 0.57780 0.42330 -1.47600
C 	C 	0.46230 0.90520 0.24530 -0.69300
C 	C 	0.15250 0.75260 0.66010 0.33300
C 	C 	0.17220 0.37960 0.51420 -0.14400
C 	C 	0.85830 0.43430 0.28580 0.36800
C 	C 	0.37070 0.26830 0.26720 -0.00700
C 	C 	0.41190 0.90800 0.75550 0.23900
C 	C 	0.21970 0.00600 0.36650 -0.09400
C 	C 	0.68510 0.98470 0.56980 -0.27900
C 	C 	0.44860 0.15120 0.86720 0.03900
C 	C 	0.86570 0.99040 0.65670 -0.53500
C 	C 	0.80340 0.85580 0.70940 3.02800
C 	C 	0.83370 0.20900 0.84330 -0.48500
C 	C 	0.54050 0.74460 0.87890 -3.29600
C 	C 	0.42420 0.71900 0.03700 0.17900
C 	C 	0.60250 0.67290 0.82680 0.72900
C 	C 	0.53700 0.42420 0.21900 0.16700
C 	C 	0.41450 0.53440 0.68810 -0.11400
C 	C 	0.35540 0.77350 0.84250 -0.00500
C 	C 	0.12930 0.39650 0.89760 0.02100
C 	C 	0.29740 0.71600 0.84880 0.04800
C 	C 	0.25280 0.72090 0.16330 -0.17900
C 	C 	0.23560 0.63700 0.79000 0.01400
C 	C 	0.41460 0.34510 0.21530 -0.05700
C 	C 	0.08950 0.83670 0.55760 -0.16000
C 	C 	0.84200 0.70740 0.82780 -0.11300
C 	C 	0.61990 0.08550 0.27360 -0.11100
C 	C 	0.23200 0.40020 0.57420 -0.01200
C 	C 	0.59860 0.15300 0.36300 0.00900
C 	C 	0.59480 0.55710 0.84010 -0.63200
C 	C 	0.96810 0.24720 0.91050 -0.15100
C 	C 	0.85160 0.83810 0.75030 -3.84700
C 	C 	0.32600 0.65780 0.92580 0.04500
C 	C 	0.99890 0.23170 0.60240 -0.00800
C 	C 	0.65450 0.36780 0.07670 -1.34300
C 	C 	0.15750 0.43100 0.01290 -0.00400
C 	C 	0.88960 0.60250 0.88670 0.70200
C 	C 	0.42860 0.02970 0.80030 0.04700
C 	C 	0.18810 0.41450 0.03440 -0.15000
C 	C 	0.28630 0.28030 0.14680 -0.11300
C 	C 	0.59250 0.49240 0.83990 0.26000
C 	C 	0.72640 0.31190 0.84630 -0.10600
C 	C 	0.07600 0.64170 0.42750 0.37100
C 	C 	0.51530 0.70040 0.08510 -0.18000
C 	C 	0.06980 0.68510 0.48470 -0.19200
C 	C 	0.88010 0.15370 0.46560 -0.11200
C 	C 	0.32680 0.60250 0.17290 0.92900
C 	C 	0.83810 0.25030 0.35160 -3.81400
C 	C 	0.57870 0.30460 0.12010 0.52800
C 	C 	0.52190 0.92560 0.29690 0.96400
C 	C 	0.71600 0.34880 0.79740 0.02700
C 	C 	0.50390 0.84750 0.09200 0.24600
C 	C 	0.78400 0.58140 0.63280 0.03800
C 	C 	0.15670 0.86570 0.49040 -0.56800
C 	C 	0.10350 0.73280 0.00110 -0.00300
C 	C 	0.05760 0.08950 0.33670 -0.09400
C 	C 	0.43430 0.78580 0.35830 0.36800
C 	C 	0.92330 0.79110 0.07780 -1.21800
C 	C 	0.11330 0.21580 0.50290 0.78900
C 	C 	0.78100 0.70520 0.81800 0.14300
C 	C 	0.86630 0.24130 0.26020 -3.75500
C 	C 	0.48110 0.60610 0.23980 -4.04800
C 	C 	0.45860 0.87990 0.18450 0.57300
C 	C 	0.13950 0.85320 0.13350 -0.10400
C 	C 	0.26800 0.84220 0.16820 0.01600
C 	C 	0.79960 0.81490 0.88470 -0.18500
C 	C 	0.89390 0.87500 0.13370 -3.22600
C 	C 	0.27500 0.90370 0.47810 1.12300
C 	C 	0.39890 0.77060 0.97030 0.08300
C 	C 	0.53440 0.18810 0.91450 -0.10800
C 	C 	0.51290 0.15750 0.93100 0.00700
C 	C 	0.90520 0.74530 0.96230 -0.49400
C 	C 	0.36780 0.57670 0.15450 -1.66600
C 	C 	0.30030 0.42860 0.52970 -0.01700
C 	C 	0.87500 0.63370 0.39390 -3.74800
C 	C 	0.25550 0.41190 0.40800 0.17800
C 	C 	0.72430 0.57040 0.39750 0.79200
C 	C 	0.92750 0.07600 0.14170 0.39800
C 	C 	0.36540 0.65800 0.98580 -0.17200
C 	C 	0.77570 0.17320 0.84610 0.78400
C 	C 	0.13280 0.78400 0.08140 0.04400
C 	C 	0.70410 0.95950 0.33840 -3.37100
C 	C 	0.84550 0.92220 0.71330 -1.49300
C 	C 	0.80040 0.52500 0.64640 -0.01500
C 	C 	0.20260 0.05140 0.41860 0.03900
C 	C 	0.19540 0.27410 0.31550 0.51600
C 	C 	0.86300 0.59860 0.65300 0.00500
C 	C 	0.48650 0.64840 0.89870 -3.62400
C 	C 	0.64640 0.09400 0.79060 2.98700
C 	C 	0.12140 0.97500 0.77540 -0.01300
C 	C 	0.59630 0.37130 0.07440 0.88200
C 	C 	0.01350 0.91220 0.16190 -3.24900
C 	C 	0.21700 0.75470 0.65990 -0.71800
C 	C 	0.19970 0.72940 0.12830 0.02600
C 	C 	0.37860 0.15400 0.85360 -0.00100
C 	C 	0.25030 0.85160 0.33810 -4.06400
C 	C 	0.75540 0.79590 0.63430 -3.51700
C 	C 	0.79590 0.13430 0.25540 -3.48900
C 	C 	0.20900 0.34330 0.33370 -0.44800
C 	C 	0.60610 0.73980 0.98110 -3.44100
C 	C 	0.79480 0.07580 0.61280 0.15400
C 	C 	0.30070 0.43050 0.58540 -0.04600
C 	C 	0.70310 0.12870 0.72500 0.97400
C 	C 	0.63430 0.29100 0.12470 -0.45600
C 	C 	0.87170 0.10110 0.57140 -0.02300
C 	C 	0.65250 0.65640 0.74450 0.17800
C 	C 	0.29100 0.62470 0.13430 -0.61700
C 	C 	0.24720 0.41050 0.46810 -0.13900
C 	C 	0.97500 0.27540 0.62140 -0.01500
C 	C 	0.57040 0.89750 0.22430 0.77700
C 	C 	0.78580 0.85830 0.93430 0.37100
C 	C 	0.36570 0.66160 0.62110 -3.59400
C 	C 	0.05440 0.90140 0.76440 0.00000
C 	C 	0.34330 0.83370 0.70900 -0.51800
C 	C 	0.31190 0.34630 0.22640 -0.11600
C 	C 	0.08550 0.77360 0.11990 -0.10700
C 	C 	0.74740 0.39990 0.40750 0.31900
C 	C 	0.33990 0.59250 0.99240 0.48600
C 	C 	0.21370 0.36050 0.99400 -0.07600
C 	C 	0.39870 0.48650 0.14840 -4.09700
C 	C 	0.96300 0.18200 0.88720 0.15900
C 	C 	0.13460 0.12040 0.29260 -0.12300
C 	C 	0.59200 0.50390 0.34750 0.21100
C 	C 	0.43050 0.08540 0.80070 -0.07500
C 	C 	0.21580 0.00290 0.61330 1.59800
C 	C 	0.79690 0.52190 0.42560 0.98400
C 	C 	0.37960 0.01420 0.67220 -0.17200
C 	C 	0.77910 0.53190 0.94240 -0.05200
C 	C 	0.34250 0.35540 0.27350 -0.01400
C 	C 	0.48580 0.36540 0.15800 -0.15400
C 	C 	0.15390 0.82710 0.42960 0.88700
C 	C 	0.99040 0.15670 0.36570 -0.48700
C 	C 	0.49710 0.21290 0.11040 0.90100
C 	C 	0.84360 0.99610 0.58810 0.18900
C 	C 	0.24130 0.76020 0.36630 -4.01300
C 	C 	0.21330 0.84550 0.42220 -1.61900
C 	C 	0.34510 0.71530 0.91460 -0.08900
C 	C 	0.90800 0.25550 0.91190 0.19700
C 	C 	0.38670 0.88960 0.10250 0.96400
C 	C 	0.14460 0.98710 0.41810 -0.00400
C 	C 	0.28710 0.28420 0.39750 0.84100
C 	C 	0.06900 0.72650 0.08190 -0.01100
C 	C 	0.49400 0.21370 0.86050 -0.10200
C 	C 	0.71420 0.64850 0.07250 0.41300
C 	C 	0.11280 0.79480 0.57580 0.18300
C 	C 	0.02970 0.30030 0.92860 0.01500
C 	C 	0.75260 0.16010 0.65250 0.30500
C 	C 	0.36720 0.44860 0.65120 0.03700
C 	C 	0.91220 0.66190 0.51350 -3.79600
C 	C 	0.43020 0.91490 0.61530 -0.18100
C 	C 	0.94290 0.03770 0.78300 -0.70100
C 	C 	0.49240 0.33990 0.09250 0.28800
C 	C 	0.83670 0.05760 0.58950 -0.11200
C 	C 	0.63370 0.89390 0.37500 -3.65000
C 	C 	0.18200 0.38720 0.46300 0.15800
C 	C 	0.44560 0.21000 0.84700 0.01300
C 	C 	0.35360 0.37860 0.65400 -0.01100
C 	C 	0.30460 0.62010 0.07870 0.81300
C 	C 	0.07420 0.23200 0.90020 0.00300
C 	C 	0.92220 0.21330 0.34550 -1.45400
C 	C 	0.36050 0.49400 0.71370 -0.11000
C 	C 	0.29060 0.64640 0.59400 3.10000
C 	C 	0.29000 0.23560 0.13700 0.00500
C 	C 	0.70890 0.13220 0.78670 -1.46700
C 	C 	0.81490 0.38470 0.29960 -0.18500
C 	C 	0.28030 0.64680 0.78630 -0.11300
C 	C 	0.98710 0.91810 0.64460 -0.02300
C 	C 	0.15120 0.36720 0.94860 0.05300
C 	C 	0.62470 0.63430 0.79100 -0.45600
C 	C 	0.15400 0.35360 0.87860 -0.00600
C 	C 	0.34610 0.77570 0.67320 0.82800
C 	C 	0.90750 0.74740 0.89990 0.18900
C 	C 	0.65800 0.48580 0.86540 -0.11400
C 	C 	0.34600 0.22460 0.19960 -0.01300
C 	C 	0.63700 0.29000 0.73560 0.00700
C 	C 	0.10130 0.24970 0.08780 -3.51300
C 	C 	0.39990 0.90750 0.24740 0.32900
C 	C 	0.97810 0.27500 0.40370 0.92200
C 	C 	0.50960 0.87530 0.16630 -0.50200
C 	C 	0.57440 0.59630 0.87130 0.90300
C 	C 	0.09400 0.29060 0.14640 2.73400
C 	C 	0.55710 0.34010 0.09480 -0.63800
C 	C 	0.50110 0.10350 0.23280 -0.00100
C 	C 	0.78470 0.62980 0.69930 -0.03700
C 	C 	0.76020 0.86630 0.74130 -3.79300
C 	C 	0.69660 0.40600 0.05240 2.69700
C 	C 	0.72090 0.66330 0.75280 -0.13000
C 	C 	0.62010 0.57870 0.80460 0.52600
C 	C 	0.92960 0.15390 0.32710 0.77100
C 	C 	0.12110 0.36570 0.16160 -3.21000
C 	C 	0.39650 0.39760 0.62930 -0.00700
C 	C 	0.87020 0.15490 0.56950 -0.04000
O 	O 	0.23350 0.27610 0.38000 -0.53900
O 	O 	0.59653 0.46728 0.22001 -0.23400
O 	O 	0.26650 0.64650 0.04260 -1.06100
O 	O 	0.46400 0.75750 0.33312 -0.47800
O 	O 	0.37075 0.90347 0.62348 -0.23800
O 	O 	0.12348 0.37075 0.40347 -0.23000
O 	O 	0.06232 0.47828 0.36074 -0.51000
O 	O 	0.43768 0.79842 0.41596 -0.51700
O 	O 	0.02172 0.58404 0.38246 -0.50600
O 	O 	0.27610 0.88000 0.73350 -0.56500
O 	O 	0.58404 0.88246 0.52172 -0.52500
O 	O 	0.10390 0.22390 0.45740 -0.52500
O 	O 	0.13088 0.66688 0.42438 -0.47900
O 	O 	0.83312 0.46400 0.25750 -0.47200
O 	O 	0.75750 0.83312 0.96400 -0.45400
O 	O 	0.92438 0.13088 0.16688 -0.49000
O 	O 	0.63926 0.61754 0.20158 -0.51600
O 	O 	0.66688 0.92438 0.63088 -0.49000
O 	O 	0.74250 0.70650 0.07562 -0.48800
O 	O 	0.61754 0.70158 0.13926 -0.51600
O 	O 	0.57562 0.74250 0.20650 -0.47500
O 	O 	0.95740 0.10390 0.72390 -0.74100
O 	O 	0.70650 0.57562 0.24250 -0.47100
O 	O 	0.79350 0.03600 0.86912 -0.46400
O 	O 	0.75273 0.03272 0.62925 -0.19800
O 	O 	0.62000 0.39610 0.35350 -0.56700
O 	O 	0.88246 0.02172 0.08404 -0.52500
O 	O 	0.39610 0.85350 0.12000 -0.58500
O 	O 	0.85350 0.62000 0.89610 -0.48300
O 	O 	0.36912 0.79350 0.53600 -0.47900
O 	O 	0.91596 0.43768 0.29842 -0.52500
O 	O 	0.03600 0.36912 0.29350 -0.46100
O 	O 	0.77999 0.74727 0.87652 -0.22500
O 	O 	0.64650 0.54260 0.76650 -0.54700
O 	O 	0.46728 0.72001 0.09653 -0.23800
O 	O 	0.37652 0.77999 0.24727 -0.23700
O 	O 	0.79842 0.91596 0.93768 -0.51100
O 	O 	0.12925 0.75273 0.53272 -0.23400
O 	O 	0.86074 0.06232 0.97828 -0.48800
O 	O 	0.03272 0.12925 0.25273 -0.19500
O 	O 	0.88000 0.23350 0.77610 -0.55300
O 	O 	0.90347 0.12348 0.87075 -0.22700
O 	O 	0.54260 0.26650 0.14650 -0.56100
O 	O 	0.74727 0.37652 0.27999 -0.23400
O 	O 	0.72001 0.59653 0.96728 -0.16700
O 	O 	0.47828 0.86074 0.56232 -0.51700
O 	O 	0.22390 0.95740 0.60390 -0.82700
O 	O 	0.70158 0.63926 0.11754 -0.52800
