data_crystal

_cell_length_a 33.42320
_cell_length_b 33.42320
_cell_length_c 33.42320
_cell_angle_alpha 60.49520
_cell_angle_beta  60.49520
_cell_angle_gamma 60.49520

_symmetry_space_group_name_	'P 1'
_symmetry_space_group_name_H-M	'P 1'

loop_
_symmetry_equiv_pos_as_xyz
  x,y,z

loop_
_atom_site_label
_atom_site_type_symbol
_atom_site_fract_x
_atom_site_fract_y
_atom_site_fract_z
_atom_site_charge
Cu	Cu	0.13286 0.59423 0.05462 0.91900
Cu	Cu	0.05462 0.13286 0.59423 0.91900
Cu	Cu	0.59423 0.05462 0.13286 0.91900
Cu	Cu	0.59423 0.13286 0.05462 0.91900
Cu	Cu	0.13286 0.05462 0.59423 0.91900
Cu	Cu	0.05462 0.59423 0.13286 0.91900
Cu	Cu	0.05553 0.59310 0.59310 0.92000
Cu	Cu	0.13300 0.59467 0.59467 0.90300
Cu	Cu	0.59310 0.05553 0.59310 0.92000
Cu	Cu	0.59467 0.13300 0.59467 0.90300
Cu	Cu	0.59310 0.59310 0.05553 0.92000
Cu	Cu	0.59467 0.59467 0.13300 0.90300
H 	H 	0.97250 0.56550 0.08810 0.02200
H 	H 	0.93250 0.56570 0.04810 0.07600
H 	H 	0.01450 0.56710 0.89630 0.06100
H 	H 	0.02910 0.60340 0.81750 0.07000
H 	H 	0.07030 0.60470 0.73840 0.03000
H 	H 	0.94990 0.53350 0.83490 0.08400
H 	H 	0.98870 0.53880 0.75420 0.03300
H 	H 	0.10090 0.61990 0.21470 0.01300
H 	H 	0.13860 0.62640 0.25300 0.08800
H 	H 	0.17240 0.62170 0.29110 0.05300
H 	H 	0.15140 0.59320 0.36850 0.07600
H 	H 	0.11320 0.59000 0.44770 0.02300
H 	H 	0.21320 0.62720 0.43920 0.02300
H 	H 	0.25040 0.63400 0.35830 0.07600
H 	H 	0.96900 0.74620 0.08400 0.01200
H 	H 	0.93020 0.82460 0.04590 0.09200
H 	H 	0.10570 0.44410 0.22270 0.02300
H 	H 	0.14580 0.36690 0.26190 0.08100
H 	H 	0.29200 0.60140 0.87220 0.02700
H 	H 	0.17450 0.56110 0.97120 0.02500
H 	H 	0.23780 0.56310 0.89690 0.07300
H 	H 	0.28380 0.63680 0.92180 0.07100
H 	H 	0.22020 0.63460 0.99600 0.02100
H 	H 	0.08810 0.97250 0.56550 0.02200
H 	H 	0.04810 0.93250 0.56570 0.07600
H 	H 	0.89630 0.01450 0.56710 0.06100
H 	H 	0.81750 0.02910 0.60340 0.07000
H 	H 	0.73840 0.07030 0.60470 0.03000
H 	H 	0.83490 0.94990 0.53350 0.08400
H 	H 	0.75420 0.98870 0.53880 0.03300
H 	H 	0.21470 0.10090 0.61990 0.01300
H 	H 	0.25300 0.13860 0.62640 0.08800
H 	H 	0.29110 0.17240 0.62170 0.05300
H 	H 	0.36850 0.15140 0.59320 0.07600
H 	H 	0.44770 0.11320 0.59000 0.02300
H 	H 	0.43920 0.21320 0.62720 0.02300
H 	H 	0.35830 0.25040 0.63400 0.07500
H 	H 	0.08400 0.96900 0.74620 0.01100
H 	H 	0.04590 0.93020 0.82460 0.09100
H 	H 	0.22270 0.10570 0.44410 0.02200
H 	H 	0.26190 0.14580 0.36690 0.08000
H 	H 	0.87220 0.29200 0.60140 0.02600
H 	H 	0.97120 0.17450 0.56110 0.02400
H 	H 	0.89690 0.23780 0.56310 0.07200
H 	H 	0.92180 0.28380 0.63680 0.07000
H 	H 	0.99600 0.22020 0.63460 0.02000
H 	H 	0.56550 0.08810 0.97250 0.02100
H 	H 	0.56570 0.04810 0.93250 0.07500
H 	H 	0.56710 0.89630 0.01450 0.06000
H 	H 	0.60340 0.81750 0.02910 0.06900
H 	H 	0.60470 0.73840 0.07030 0.02900
H 	H 	0.53350 0.83490 0.94990 0.08300
H 	H 	0.53880 0.75420 0.98870 0.03200
H 	H 	0.61990 0.21470 0.10090 0.01200
H 	H 	0.62640 0.25300 0.13860 0.08700
H 	H 	0.62170 0.29110 0.17240 0.05200
H 	H 	0.59320 0.36850 0.15140 0.07500
H 	H 	0.59000 0.44770 0.11320 0.02200
H 	H 	0.62720 0.43920 0.21320 0.02200
H 	H 	0.63400 0.35830 0.25040 0.07500
H 	H 	0.74620 0.08400 0.96900 0.01100
H 	H 	0.82460 0.04590 0.93020 0.09100
H 	H 	0.44410 0.22270 0.10570 0.02200
H 	H 	0.36690 0.26190 0.14580 0.08000
H 	H 	0.60140 0.87220 0.29200 0.02600
H 	H 	0.56110 0.97120 0.17450 0.02400
H 	H 	0.56310 0.89690 0.23780 0.07200
H 	H 	0.63680 0.92180 0.28380 0.07000
H 	H 	0.63460 0.99600 0.22020 0.02000
H 	H 	0.56550 0.97250 0.08810 0.02100
H 	H 	0.56570 0.93250 0.04810 0.07500
H 	H 	0.56710 0.01450 0.89630 0.06000
H 	H 	0.60340 0.02910 0.81750 0.06900
H 	H 	0.60470 0.07030 0.73840 0.02900
H 	H 	0.53350 0.94990 0.83490 0.08300
H 	H 	0.53880 0.98870 0.75420 0.03200
H 	H 	0.61990 0.10090 0.21470 0.01200
H 	H 	0.62640 0.13860 0.25300 0.08700
H 	H 	0.62170 0.17240 0.29110 0.05200
H 	H 	0.59320 0.15140 0.36850 0.07500
H 	H 	0.59000 0.11320 0.44770 0.02200
H 	H 	0.62720 0.21320 0.43920 0.02200
H 	H 	0.63400 0.25040 0.35830 0.07500
H 	H 	0.74620 0.96900 0.08400 0.01100
H 	H 	0.82460 0.93020 0.04590 0.09100
H 	H 	0.44410 0.10570 0.22270 0.02200
H 	H 	0.36690 0.14580 0.26190 0.08000
H 	H 	0.60140 0.29200 0.87220 0.02600
H 	H 	0.56110 0.17450 0.97120 0.02400
H 	H 	0.56310 0.23780 0.89690 0.07200
H 	H 	0.63680 0.28380 0.92180 0.07000
H 	H 	0.63460 0.22020 0.99600 0.02000
H 	H 	0.97250 0.08810 0.56550 0.02100
H 	H 	0.93250 0.04810 0.56570 0.07500
H 	H 	0.01450 0.89630 0.56710 0.06000
H 	H 	0.02910 0.81750 0.60340 0.06900
H 	H 	0.07030 0.73840 0.60470 0.02900
H 	H 	0.94990 0.83490 0.53350 0.08300
H 	H 	0.98870 0.75420 0.53880 0.03200
H 	H 	0.10090 0.21470 0.61990 0.01200
H 	H 	0.13860 0.25300 0.62640 0.08700
H 	H 	0.17240 0.29110 0.62170 0.05200
H 	H 	0.15140 0.36850 0.59320 0.07500
H 	H 	0.11320 0.44770 0.59000 0.02200
H 	H 	0.21320 0.43920 0.62720 0.02200
H 	H 	0.25040 0.35830 0.63400 0.07500
H 	H 	0.96900 0.08400 0.74620 0.01100
H 	H 	0.93020 0.04590 0.82460 0.09100
H 	H 	0.10570 0.22270 0.44410 0.02200
H 	H 	0.14580 0.26190 0.36690 0.08000
H 	H 	0.29200 0.87220 0.60140 0.02600
H 	H 	0.17450 0.97120 0.56110 0.02400
H 	H 	0.23780 0.89690 0.56310 0.07200
H 	H 	0.28380 0.92180 0.63680 0.07000
H 	H 	0.22020 0.99600 0.63460 0.02000
H 	H 	0.08810 0.56550 0.97250 0.02100
H 	H 	0.04810 0.56570 0.93250 0.07500
H 	H 	0.89630 0.56710 0.01450 0.06000
H 	H 	0.81750 0.60340 0.02910 0.06900
H 	H 	0.73840 0.60470 0.07030 0.02900
H 	H 	0.83490 0.53350 0.94990 0.08300
H 	H 	0.75420 0.53880 0.98870 0.03200
H 	H 	0.21470 0.61990 0.10090 0.01200
H 	H 	0.25300 0.62640 0.13860 0.08700
H 	H 	0.29110 0.62170 0.17240 0.05200
H 	H 	0.36850 0.59320 0.15140 0.07500
H 	H 	0.44770 0.59000 0.11320 0.02200
H 	H 	0.43920 0.62720 0.21320 0.02200
H 	H 	0.35830 0.63400 0.25040 0.07500
H 	H 	0.08400 0.74620 0.96900 0.01100
H 	H 	0.04590 0.82460 0.93020 0.09100
H 	H 	0.22270 0.44410 0.10570 0.02200
H 	H 	0.26190 0.36690 0.14580 0.08000
H 	H 	0.87220 0.60140 0.29200 0.02600
H 	H 	0.97120 0.56110 0.17450 0.02400
H 	H 	0.89690 0.56310 0.23780 0.07200
H 	H 	0.92180 0.63680 0.28380 0.07000
H 	H 	0.99600 0.63460 0.22020 0.02000
H 	H 	0.02430 0.55175 0.55175 0.04400
H 	H 	0.94540 0.55640 0.55640 -0.00400
H 	H 	0.88690 0.58910 0.58910 0.08900
H 	H 	0.87390 0.63370 0.63370 0.03200
H 	H 	0.94750 0.63245 0.63245 0.02700
H 	H 	0.55175 0.02430 0.55175 0.04400
H 	H 	0.55640 0.94540 0.55640 -0.00400
H 	H 	0.58910 0.88690 0.58910 0.08900
H 	H 	0.63370 0.87390 0.63370 0.03200
H 	H 	0.63245 0.94750 0.63245 0.02700
H 	H 	0.55175 0.55175 0.02430 0.04400
H 	H 	0.55640 0.55640 0.94540 -0.00400
H 	H 	0.58910 0.58910 0.88690 0.08900
H 	H 	0.63370 0.63370 0.87390 0.03200
H 	H 	0.63245 0.63245 0.94750 0.02700
H 	H 	0.89530 0.56670 0.89530 0.06900
H 	H 	0.89530 0.89530 0.56670 0.06900
H 	H 	0.56670 0.89530 0.89530 0.06900
H 	H 	0.29430 0.61360 0.29430 0.05900
H 	H 	0.29430 0.29430 0.61360 0.05900
H 	H 	0.61360 0.29430 0.29430 0.05900
H 	H 	0.89505 0.89505 0.01330 0.04600
H 	H 	0.01330 0.89505 0.89505 0.04600
H 	H 	0.89505 0.01330 0.89505 0.04600
H 	H 	0.29720 0.29720 0.17810 0.05300
H 	H 	0.17810 0.29720 0.29720 0.05300
H 	H 	0.29720 0.17810 0.29720 0.05300
C 	C 	0.98789 0.56778 0.05543 0.07200
C 	C 	0.96421 0.56679 0.03147 -0.13600
C 	C 	0.98265 0.56670 0.91217 -0.09400
C 	C 	0.98419 0.56844 0.83617 0.05000
C 	C 	0.02084 0.58998 0.80525 -0.11200
C 	C 	0.04490 0.59187 0.75740 0.04300
C 	C 	0.97324 0.54887 0.81560 -0.11700
C 	C 	0.99669 0.55214 0.76680 0.05100
C 	C 	0.03085 0.57426 0.73725 -0.11800
C 	C 	0.05529 0.57937 0.68442 0.36900
C 	C 	0.95935 0.56666 0.88691 0.03400
C 	C 	0.13279 0.62025 0.19848 0.10400
C 	C 	0.15609 0.62352 0.22207 -0.16800
C 	C 	0.20475 0.62081 0.27563 -0.07700
C 	C 	0.22937 0.61788 0.30146 0.01800
C 	C 	0.20451 0.61524 0.35362 0.06700
C 	C 	0.16397 0.60130 0.38206 -0.13500
C 	C 	0.14127 0.59881 0.42990 0.06700
C 	C 	0.15879 0.60873 0.45199 -0.13800
C 	C 	0.20006 0.62119 0.42478 0.06400
C 	C 	0.22269 0.62493 0.37612 -0.13300
C 	C 	0.13374 0.60602 0.50384 0.37800
C 	C 	0.98520 0.76170 0.05194 0.11000
C 	C 	0.96192 0.80927 0.02912 -0.17600
C 	C 	0.13766 0.42894 0.20629 0.07300
C 	C 	0.16179 0.38216 0.22969 -0.14100
C 	C 	0.26695 0.60028 0.90197 0.03300
C 	C 	0.19707 0.57550 0.96123 0.05400
C 	C 	0.23448 0.57728 0.91676 -0.10300
C 	C 	0.26201 0.62151 0.93164 -0.10500
C 	C 	0.22461 0.61973 0.97613 0.05900
C 	C 	0.05543 0.98789 0.56778 0.07200
C 	C 	0.03147 0.96421 0.56679 -0.13600
C 	C 	0.91217 0.98265 0.56670 -0.09400
C 	C 	0.83617 0.98419 0.56844 0.05000
C 	C 	0.80525 0.02084 0.58998 -0.11200
C 	C 	0.75740 0.04490 0.59187 0.04300
C 	C 	0.81560 0.97324 0.54887 -0.11700
C 	C 	0.76680 0.99669 0.55214 0.05100
C 	C 	0.73725 0.03085 0.57426 -0.11800
C 	C 	0.68442 0.05529 0.57937 0.36900
C 	C 	0.88691 0.95935 0.56666 0.03400
C 	C 	0.19848 0.13279 0.62025 0.10400
C 	C 	0.22207 0.15609 0.62352 -0.16800
C 	C 	0.27563 0.20475 0.62081 -0.07700
C 	C 	0.30146 0.22937 0.61788 0.01800
C 	C 	0.35362 0.20451 0.61524 0.06700
C 	C 	0.38206 0.16397 0.60130 -0.13500
C 	C 	0.42990 0.14127 0.59881 0.06700
C 	C 	0.45199 0.15879 0.60873 -0.13800
C 	C 	0.42478 0.20006 0.62119 0.06400
C 	C 	0.37612 0.22269 0.62493 -0.13300
C 	C 	0.50384 0.13374 0.60602 0.37800
C 	C 	0.05194 0.98520 0.76170 0.11000
C 	C 	0.02912 0.96192 0.80927 -0.17600
C 	C 	0.20629 0.13766 0.42894 0.07300
C 	C 	0.22969 0.16179 0.38216 -0.14100
C 	C 	0.90197 0.26695 0.60028 0.03300
C 	C 	0.96123 0.19707 0.57550 0.05400
C 	C 	0.91676 0.23448 0.57728 -0.10300
C 	C 	0.93164 0.26201 0.62151 -0.10500
C 	C 	0.97613 0.22461 0.61973 0.05900
C 	C 	0.56778 0.05543 0.98789 0.07200
C 	C 	0.56679 0.03147 0.96421 -0.13600
C 	C 	0.56670 0.91217 0.98265 -0.09400
C 	C 	0.56844 0.83617 0.98419 0.05000
C 	C 	0.58998 0.80525 0.02084 -0.11200
C 	C 	0.59187 0.75740 0.04490 0.04300
C 	C 	0.54887 0.81560 0.97324 -0.11700
C 	C 	0.55214 0.76680 0.99669 0.05100
C 	C 	0.57426 0.73725 0.03085 -0.11800
C 	C 	0.57937 0.68442 0.05529 0.36900
C 	C 	0.56666 0.88691 0.95935 0.03400
C 	C 	0.62025 0.19848 0.13279 0.10400
C 	C 	0.62352 0.22207 0.15609 -0.16800
C 	C 	0.62081 0.27563 0.20475 -0.07700
C 	C 	0.61788 0.30146 0.22937 0.01800
C 	C 	0.61524 0.35362 0.20451 0.06700
C 	C 	0.60130 0.38206 0.16397 -0.13500
C 	C 	0.59881 0.42990 0.14127 0.06700
C 	C 	0.60873 0.45199 0.15879 -0.13800
C 	C 	0.62119 0.42478 0.20006 0.06400
C 	C 	0.62493 0.37612 0.22269 -0.13300
C 	C 	0.60602 0.50384 0.13374 0.37800
C 	C 	0.76170 0.05194 0.98520 0.11000
C 	C 	0.80927 0.02912 0.96192 -0.17600
C 	C 	0.42894 0.20629 0.13766 0.07300
C 	C 	0.38216 0.22969 0.16179 -0.14100
C 	C 	0.60028 0.90197 0.26695 0.03300
C 	C 	0.57550 0.96123 0.19707 0.05400
C 	C 	0.57728 0.91676 0.23448 -0.10300
C 	C 	0.62151 0.93164 0.26201 -0.10500
C 	C 	0.61973 0.97613 0.22461 0.05900
C 	C 	0.56778 0.98789 0.05543 0.07200
C 	C 	0.56679 0.96421 0.03147 -0.13600
C 	C 	0.56670 0.98265 0.91217 -0.09400
C 	C 	0.56844 0.98419 0.83617 0.05000
C 	C 	0.58998 0.02084 0.80525 -0.11200
C 	C 	0.59187 0.04490 0.75740 0.04300
C 	C 	0.54887 0.97324 0.81560 -0.11700
C 	C 	0.55214 0.99669 0.76680 0.05100
C 	C 	0.57426 0.03085 0.73725 -0.11800
C 	C 	0.57937 0.05529 0.68442 0.36900
C 	C 	0.56666 0.95935 0.88691 0.03400
C 	C 	0.62025 0.13279 0.19848 0.10400
C 	C 	0.62352 0.15609 0.22207 -0.16800
C 	C 	0.62081 0.20475 0.27563 -0.07700
C 	C 	0.61788 0.22937 0.30146 0.01800
C 	C 	0.61524 0.20451 0.35362 0.06700
C 	C 	0.60130 0.16397 0.38206 -0.13500
C 	C 	0.59881 0.14127 0.42990 0.06700
C 	C 	0.60873 0.15879 0.45199 -0.13800
C 	C 	0.62119 0.20006 0.42478 0.06400
C 	C 	0.62493 0.22269 0.37612 -0.13300
C 	C 	0.60602 0.13374 0.50384 0.37800
C 	C 	0.76170 0.98520 0.05194 0.11000
C 	C 	0.80927 0.96192 0.02912 -0.17600
C 	C 	0.42894 0.13766 0.20629 0.07300
C 	C 	0.38216 0.16179 0.22969 -0.14100
C 	C 	0.60028 0.26695 0.90197 0.03300
C 	C 	0.57550 0.19707 0.96123 0.05400
C 	C 	0.57728 0.23448 0.91676 -0.10300
C 	C 	0.62151 0.26201 0.93164 -0.10500
C 	C 	0.61973 0.22461 0.97613 0.05900
C 	C 	0.98789 0.05543 0.56778 0.07200
C 	C 	0.96421 0.03147 0.56679 -0.13600
C 	C 	0.98265 0.91217 0.56670 -0.09400
C 	C 	0.98419 0.83617 0.56844 0.05000
C 	C 	0.02084 0.80525 0.58998 -0.11200
C 	C 	0.04490 0.75740 0.59187 0.04300
C 	C 	0.97324 0.81560 0.54887 -0.11700
C 	C 	0.99669 0.76680 0.55214 0.05100
C 	C 	0.03085 0.73725 0.57426 -0.11800
C 	C 	0.05529 0.68442 0.57937 0.36900
C 	C 	0.95935 0.88691 0.56666 0.03400
C 	C 	0.13279 0.19848 0.62025 0.10400
C 	C 	0.15609 0.22207 0.62352 -0.16800
C 	C 	0.20475 0.27563 0.62081 -0.07700
C 	C 	0.22937 0.30146 0.61788 0.01800
C 	C 	0.20451 0.35362 0.61524 0.06700
C 	C 	0.16397 0.38206 0.60130 -0.13500
C 	C 	0.14127 0.42990 0.59881 0.06700
C 	C 	0.15879 0.45199 0.60873 -0.13800
C 	C 	0.20006 0.42478 0.62119 0.06400
C 	C 	0.22269 0.37612 0.62493 -0.13300
C 	C 	0.13374 0.50384 0.60602 0.37800
C 	C 	0.98520 0.05194 0.76170 0.11000
C 	C 	0.96192 0.02912 0.80927 -0.17600
C 	C 	0.13766 0.20629 0.42894 0.07300
C 	C 	0.16179 0.22969 0.38216 -0.14100
C 	C 	0.26695 0.90197 0.60028 0.03300
C 	C 	0.19707 0.96123 0.57550 0.05400
C 	C 	0.23448 0.91676 0.57728 -0.10300
C 	C 	0.26201 0.93164 0.62151 -0.10500
C 	C 	0.22461 0.97613 0.61973 0.05900
C 	C 	0.05543 0.56778 0.98789 0.07200
C 	C 	0.03147 0.56679 0.96421 -0.13600
C 	C 	0.91217 0.56670 0.98265 -0.09400
C 	C 	0.83617 0.56844 0.98419 0.05000
C 	C 	0.80525 0.58998 0.02084 -0.11200
C 	C 	0.75740 0.59187 0.04490 0.04300
C 	C 	0.81560 0.54887 0.97324 -0.11700
C 	C 	0.76680 0.55214 0.99669 0.05100
C 	C 	0.73725 0.57426 0.03085 -0.11800
C 	C 	0.68442 0.57937 0.05529 0.36900
C 	C 	0.88691 0.56666 0.95935 0.03400
C 	C 	0.19848 0.62025 0.13279 0.10400
C 	C 	0.22207 0.62352 0.15609 -0.16800
C 	C 	0.27563 0.62081 0.20475 -0.07700
C 	C 	0.30146 0.61788 0.22937 0.01800
C 	C 	0.35362 0.61524 0.20451 0.06700
C 	C 	0.38206 0.60130 0.16397 -0.13500
C 	C 	0.42990 0.59881 0.14127 0.06700
C 	C 	0.45199 0.60873 0.15879 -0.13800
C 	C 	0.42478 0.62119 0.20006 0.06400
C 	C 	0.37612 0.62493 0.22269 -0.13300
C 	C 	0.50384 0.60602 0.13374 0.37800
C 	C 	0.05194 0.76170 0.98520 0.11000
C 	C 	0.02912 0.80927 0.96192 -0.17600
C 	C 	0.20629 0.42894 0.13766 0.07300
C 	C 	0.22969 0.38216 0.16179 -0.14100
C 	C 	0.90197 0.60028 0.26695 0.03300
C 	C 	0.96123 0.57550 0.19707 0.05400
C 	C 	0.91676 0.57728 0.23448 -0.10300
C 	C 	0.93164 0.62151 0.26201 -0.10500
C 	C 	0.97613 0.61973 0.22461 0.05900
C 	C 	0.99465 0.56936 0.56936 -0.02000
C 	C 	0.94445 0.57287 0.57286 0.10000
C 	C 	0.91385 0.58996 0.58996 -0.17500
C 	C 	0.90487 0.61691 0.61691 -0.00600
C 	C 	0.94995 0.61556 0.61556 0.02800
C 	C 	0.56936 0.99465 0.56936 -0.02000
C 	C 	0.57286 0.94445 0.57286 0.10000
C 	C 	0.58996 0.91385 0.58996 -0.17500
C 	C 	0.61691 0.90487 0.61691 -0.00600
C 	C 	0.61556 0.94995 0.61556 0.02800
C 	C 	0.56936 0.56936 0.99465 -0.02000
C 	C 	0.57287 0.57286 0.94445 0.10000
C 	C 	0.58996 0.58996 0.91385 -0.17500
C 	C 	0.61691 0.61691 0.90487 -0.00600
C 	C 	0.61556 0.61556 0.94995 0.02800
C 	C 	0.05666 0.57650 0.05666 0.36800
C 	C 	0.03243 0.57189 0.03243 -0.13900
C 	C 	0.98539 0.56721 0.98539 0.07500
C 	C 	0.95981 0.56614 0.95981 0.02700
C 	C 	0.91139 0.56665 0.91139 -0.09800
C 	C 	0.05441 0.68411 0.05441 0.38900
C 	C 	0.02997 0.73674 0.02997 -0.17000
C 	C 	0.98340 0.83432 0.98340 0.11200
C 	C 	0.95821 0.88632 0.95821 -0.00800
C 	C 	0.13415 0.50498 0.13415 0.37000
C 	C 	0.15945 0.45354 0.15945 -0.14200
C 	C 	0.20789 0.35705 0.20789 0.08000
C 	C 	0.23370 0.30635 0.23370 0.01100
C 	C 	0.05666 0.05666 0.57650 0.36800
C 	C 	0.03243 0.03243 0.57189 -0.13900
C 	C 	0.98539 0.98539 0.56721 0.07500
C 	C 	0.95981 0.95981 0.56614 0.02700
C 	C 	0.91139 0.91139 0.56665 -0.09800
C 	C 	0.05441 0.05441 0.68411 0.38900
C 	C 	0.02997 0.02997 0.73674 -0.17000
C 	C 	0.98340 0.98340 0.83432 0.11200
C 	C 	0.95821 0.95821 0.88632 -0.00800
C 	C 	0.13415 0.13415 0.50498 0.37000
C 	C 	0.15945 0.15945 0.45354 -0.14200
C 	C 	0.20789 0.20789 0.35705 0.08000
C 	C 	0.23370 0.23370 0.30635 0.01100
C 	C 	0.57650 0.05666 0.05666 0.36800
C 	C 	0.57189 0.03243 0.03243 -0.13900
C 	C 	0.56721 0.98539 0.98539 0.07500
C 	C 	0.56614 0.95981 0.95981 0.02700
C 	C 	0.56665 0.91139 0.91139 -0.09800
C 	C 	0.68411 0.05441 0.05441 0.38900
C 	C 	0.73674 0.02997 0.02997 -0.17000
C 	C 	0.83432 0.98340 0.98340 0.11200
C 	C 	0.88632 0.95821 0.95821 -0.00800
C 	C 	0.50498 0.13415 0.13415 0.37000
C 	C 	0.45354 0.15945 0.15945 -0.14200
C 	C 	0.35705 0.20789 0.20789 0.08000
C 	C 	0.30635 0.23370 0.23370 0.01100
C 	C 	0.13060 0.61214 0.13060 0.39200
C 	C 	0.15472 0.61766 0.15472 -0.17100
C 	C 	0.20170 0.62264 0.20170 0.10700
C 	C 	0.22759 0.62216 0.22759 0.00400
C 	C 	0.27750 0.61612 0.27750 -0.08600
C 	C 	0.13060 0.13060 0.61214 0.39200
C 	C 	0.15472 0.15472 0.61766 -0.17100
C 	C 	0.20170 0.20170 0.62264 0.10700
C 	C 	0.22759 0.22759 0.62216 0.00400
C 	C 	0.27750 0.27750 0.61612 -0.08600
C 	C 	0.61214 0.13060 0.13060 0.39200
C 	C 	0.61766 0.15472 0.15472 -0.17100
C 	C 	0.62264 0.20170 0.20170 0.10700
C 	C 	0.62216 0.22759 0.22759 0.00400
C 	C 	0.61612 0.27750 0.27750 -0.08600
C 	C 	0.91087 0.91087 0.98127 -0.05800
C 	C 	0.98127 0.91087 0.91087 -0.05800
C 	C 	0.91087 0.98127 0.91087 -0.05800
C 	C 	0.28151 0.28151 0.21026 -0.07600
C 	C 	0.21026 0.28151 0.28151 -0.07600
C 	C 	0.28151 0.21026 0.28151 -0.07600
N 	N 	0.19453 0.59529 0.98985 -0.17900
N 	N 	0.98985 0.19453 0.59529 -0.17900
N 	N 	0.59529 0.98985 0.19453 -0.17900
N 	N 	0.59529 0.19453 0.98985 -0.17900
N 	N 	0.19453 0.98985 0.59529 -0.17900
N 	N 	0.98985 0.59529 0.19453 -0.17900
N 	N 	0.99185 0.59296 0.59296 -0.16600
N 	N 	0.59296 0.99185 0.59296 -0.16600
N 	N 	0.59296 0.59296 0.99185 -0.16600
O 	O 	0.09912 0.57879 0.03267 -0.40600
O 	O 	0.03227 0.58079 0.66333 -0.40400
O 	O 	0.09714 0.58328 0.66458 -0.40900
O 	O 	0.15488 0.60941 0.08874 -0.41000
O 	O 	0.15716 0.60621 0.52436 -0.40900
O 	O 	0.09220 0.60377 0.52321 -0.40900
O 	O 	0.09646 0.66381 0.03038 -0.40600
O 	O 	0.15773 0.52501 0.09147 -0.40500
O 	O 	0.03267 0.09912 0.57879 -0.40600
O 	O 	0.66333 0.03227 0.58079 -0.40400
O 	O 	0.66458 0.09714 0.58328 -0.40900
O 	O 	0.08874 0.15488 0.60941 -0.41000
O 	O 	0.52436 0.15716 0.60621 -0.40900
O 	O 	0.52321 0.09220 0.60377 -0.40900
O 	O 	0.03038 0.09646 0.66381 -0.40600
O 	O 	0.09147 0.15773 0.52501 -0.40500
O 	O 	0.57879 0.03267 0.09912 -0.40600
O 	O 	0.58079 0.66333 0.03227 -0.40400
O 	O 	0.58328 0.66458 0.09714 -0.40900
O 	O 	0.60941 0.08874 0.15488 -0.41000
O 	O 	0.60621 0.52436 0.15716 -0.40900
O 	O 	0.60377 0.52321 0.09220 -0.40900
O 	O 	0.66381 0.03038 0.09646 -0.40600
O 	O 	0.52501 0.09147 0.15773 -0.40500
O 	O 	0.57879 0.09912 0.03267 -0.40600
O 	O 	0.58079 0.03227 0.66333 -0.40400
O 	O 	0.58328 0.09714 0.66458 -0.40900
O 	O 	0.60941 0.15488 0.08874 -0.41000
O 	O 	0.60621 0.15716 0.52436 -0.40900
O 	O 	0.60377 0.09220 0.52321 -0.40900
O 	O 	0.66381 0.09646 0.03038 -0.40600
O 	O 	0.52501 0.15773 0.09147 -0.40500
O 	O 	0.09912 0.03267 0.57879 -0.40600
O 	O 	0.03227 0.66333 0.58079 -0.40400
O 	O 	0.09714 0.66458 0.58328 -0.40900
O 	O 	0.15488 0.08874 0.60941 -0.41000
O 	O 	0.15716 0.52436 0.60621 -0.40900
O 	O 	0.09220 0.52321 0.60377 -0.40900
O 	O 	0.09646 0.03038 0.66381 -0.40600
O 	O 	0.15773 0.09147 0.52501 -0.40500
O 	O 	0.03267 0.57879 0.09912 -0.40600
O 	O 	0.66333 0.58079 0.03227 -0.40400
O 	O 	0.66458 0.58328 0.09714 -0.40900
O 	O 	0.08874 0.60941 0.15488 -0.41000
O 	O 	0.52436 0.60621 0.15716 -0.40900
O 	O 	0.52321 0.60377 0.09220 -0.40900
O 	O 	0.03038 0.66381 0.09646 -0.40600
O 	O 	0.09147 0.52501 0.15773 -0.40500
Cu	Cu	0.40577 0.86714 0.94538 0.91800
Cu	Cu	0.86714 0.94538 0.40577 0.91800
Cu	Cu	0.94538 0.40577 0.86714 0.91800
Cu	Cu	0.86714 0.40577 0.94538 0.91800
Cu	Cu	0.94538 0.86714 0.40577 0.91800
Cu	Cu	0.40577 0.94538 0.86714 0.91800
Cu	Cu	0.40690 0.94447 0.40690 0.91900
Cu	Cu	0.40533 0.86700 0.40533 0.90200
Cu	Cu	0.94447 0.40690 0.40690 0.91900
Cu	Cu	0.86700 0.40533 0.40533 0.90200
Cu	Cu	0.40690 0.40690 0.94447 0.91900
Cu	Cu	0.40533 0.40533 0.86700 0.90200
H 	H 	0.43450 0.02750 0.91190 0.02100
H 	H 	0.43430 0.06750 0.95190 0.07500
H 	H 	0.43290 0.98550 0.10370 0.06000
H 	H 	0.39660 0.97090 0.18250 0.06900
H 	H 	0.39530 0.92970 0.26160 0.02900
H 	H 	0.46650 0.05010 0.16510 0.08300
H 	H 	0.46120 0.01130 0.24580 0.03200
H 	H 	0.38010 0.89910 0.78530 0.01200
H 	H 	0.37360 0.86140 0.74700 0.08700
H 	H 	0.37830 0.82760 0.70890 0.05200
H 	H 	0.40680 0.84860 0.63150 0.07500
H 	H 	0.41000 0.88680 0.55230 0.02200
H 	H 	0.37280 0.78680 0.56080 0.02200
H 	H 	0.36600 0.74960 0.64170 0.07500
H 	H 	0.25380 0.03100 0.91600 0.01100
H 	H 	0.17540 0.06980 0.95410 0.09100
H 	H 	0.55590 0.89430 0.77730 0.02200
H 	H 	0.63310 0.85420 0.73810 0.08000
H 	H 	0.39860 0.70800 0.12780 0.02600
H 	H 	0.43890 0.82550 0.02880 0.02400
H 	H 	0.43690 0.76220 0.10310 0.07200
H 	H 	0.36320 0.71620 0.07820 0.07000
H 	H 	0.36540 0.77980 0.00400 0.02000
H 	H 	0.02750 0.91190 0.43450 0.02100
H 	H 	0.06750 0.95190 0.43430 0.07500
H 	H 	0.98550 0.10370 0.43290 0.06000
H 	H 	0.97090 0.18250 0.39660 0.06900
H 	H 	0.92970 0.26160 0.39530 0.02900
H 	H 	0.05010 0.16510 0.46650 0.08300
H 	H 	0.01130 0.24580 0.46120 0.03200
H 	H 	0.89910 0.78530 0.38010 0.01200
H 	H 	0.86140 0.74700 0.37360 0.08700
H 	H 	0.82760 0.70890 0.37830 0.05200
H 	H 	0.84860 0.63150 0.40680 0.07500
H 	H 	0.88680 0.55230 0.41000 0.02200
H 	H 	0.78680 0.56080 0.37280 0.02200
H 	H 	0.74960 0.64170 0.36600 0.07500
H 	H 	0.03100 0.91600 0.25380 0.01100
H 	H 	0.06980 0.95410 0.17540 0.09100
H 	H 	0.89430 0.77730 0.55590 0.02200
H 	H 	0.85420 0.73810 0.63310 0.08000
H 	H 	0.70800 0.12780 0.39860 0.02600
H 	H 	0.82550 0.02880 0.43890 0.02400
H 	H 	0.76220 0.10310 0.43690 0.07200
H 	H 	0.71620 0.07820 0.36320 0.07000
H 	H 	0.77980 0.00400 0.36540 0.02000
H 	H 	0.91190 0.43450 0.02750 0.02100
H 	H 	0.95190 0.43430 0.06750 0.07500
H 	H 	0.10370 0.43290 0.98550 0.06000
H 	H 	0.18250 0.39660 0.97090 0.06900
H 	H 	0.26160 0.39530 0.92970 0.02900
H 	H 	0.16510 0.46650 0.05010 0.08300
H 	H 	0.24580 0.46120 0.01130 0.03200
H 	H 	0.78530 0.38010 0.89910 0.01200
H 	H 	0.74700 0.37360 0.86140 0.08700
H 	H 	0.70890 0.37830 0.82760 0.05200
H 	H 	0.63150 0.40680 0.84860 0.07500
H 	H 	0.55230 0.41000 0.88680 0.02200
H 	H 	0.56080 0.37280 0.78680 0.02200
H 	H 	0.64170 0.36600 0.74960 0.07500
H 	H 	0.91600 0.25380 0.03100 0.01100
H 	H 	0.95410 0.17540 0.06980 0.09100
H 	H 	0.77730 0.55590 0.89430 0.02200
H 	H 	0.73810 0.63310 0.85420 0.08000
H 	H 	0.12780 0.39860 0.70800 0.02600
H 	H 	0.02880 0.43890 0.82550 0.02400
H 	H 	0.10310 0.43690 0.76220 0.07200
H 	H 	0.07820 0.36320 0.71620 0.07000
H 	H 	0.00400 0.36540 0.77980 0.02000
H 	H 	0.02750 0.43450 0.91190 0.02100
H 	H 	0.06750 0.43430 0.95190 0.07500
H 	H 	0.98550 0.43290 0.10370 0.06000
H 	H 	0.97090 0.39660 0.18250 0.06900
H 	H 	0.92970 0.39530 0.26160 0.02900
H 	H 	0.05010 0.46650 0.16510 0.08300
H 	H 	0.01130 0.46120 0.24580 0.03200
H 	H 	0.89910 0.38010 0.78530 0.01200
H 	H 	0.86140 0.37360 0.74700 0.08700
H 	H 	0.82760 0.37830 0.70890 0.05200
H 	H 	0.84860 0.40680 0.63150 0.07500
H 	H 	0.88680 0.41000 0.55230 0.02200
H 	H 	0.78680 0.37280 0.56080 0.02200
H 	H 	0.74960 0.36600 0.64170 0.07500
H 	H 	0.03100 0.25380 0.91600 0.01100
H 	H 	0.06980 0.17540 0.95410 0.09100
H 	H 	0.89430 0.55590 0.77730 0.02200
H 	H 	0.85420 0.63310 0.73810 0.08000
H 	H 	0.70800 0.39860 0.12780 0.02600
H 	H 	0.82550 0.43890 0.02880 0.02400
H 	H 	0.76220 0.43690 0.10310 0.07200
H 	H 	0.71620 0.36320 0.07820 0.07000
H 	H 	0.77980 0.36540 0.00400 0.02000
H 	H 	0.91190 0.02750 0.43450 0.02100
H 	H 	0.95190 0.06750 0.43430 0.07500
H 	H 	0.10370 0.98550 0.43290 0.06000
H 	H 	0.18250 0.97090 0.39660 0.06900
H 	H 	0.26160 0.92970 0.39530 0.02900
H 	H 	0.16510 0.05010 0.46650 0.08300
H 	H 	0.24580 0.01130 0.46120 0.03200
H 	H 	0.78530 0.89910 0.38010 0.01200
H 	H 	0.74700 0.86140 0.37360 0.08700
H 	H 	0.70890 0.82760 0.37830 0.05200
H 	H 	0.63150 0.84860 0.40680 0.07500
H 	H 	0.55230 0.88680 0.41000 0.02200
H 	H 	0.56080 0.78680 0.37280 0.02200
H 	H 	0.64170 0.74960 0.36600 0.07500
H 	H 	0.91600 0.03100 0.25380 0.01100
H 	H 	0.95410 0.06980 0.17540 0.09100
H 	H 	0.77730 0.89430 0.55590 0.02200
H 	H 	0.73810 0.85420 0.63310 0.08000
H 	H 	0.12780 0.70800 0.39860 0.02600
H 	H 	0.02880 0.82550 0.43890 0.02400
H 	H 	0.10310 0.76220 0.43690 0.07200
H 	H 	0.07820 0.71620 0.36320 0.07000
H 	H 	0.00400 0.77980 0.36540 0.02000
H 	H 	0.43450 0.91190 0.02750 0.02100
H 	H 	0.43430 0.95190 0.06750 0.07500
H 	H 	0.43290 0.10370 0.98550 0.06000
H 	H 	0.39660 0.18250 0.97090 0.06900
H 	H 	0.39530 0.26160 0.92970 0.02900
H 	H 	0.46650 0.16510 0.05010 0.08300
H 	H 	0.46120 0.24580 0.01130 0.03200
H 	H 	0.38010 0.78530 0.89910 0.01200
H 	H 	0.37360 0.74700 0.86140 0.08700
H 	H 	0.37830 0.70890 0.82760 0.05200
H 	H 	0.40680 0.63150 0.84860 0.07500
H 	H 	0.41000 0.55230 0.88680 0.02200
H 	H 	0.37280 0.56080 0.78680 0.02200
H 	H 	0.36600 0.64170 0.74960 0.07500
H 	H 	0.25380 0.91600 0.03100 0.01100
H 	H 	0.17540 0.95410 0.06980 0.09100
H 	H 	0.55590 0.77730 0.89430 0.02200
H 	H 	0.63310 0.73810 0.85420 0.08000
H 	H 	0.39860 0.12780 0.70800 0.02600
H 	H 	0.43890 0.02880 0.82550 0.02400
H 	H 	0.43690 0.10310 0.76220 0.07200
H 	H 	0.36320 0.07820 0.71620 0.07000
H 	H 	0.36540 0.00400 0.77980 0.02000
H 	H 	0.44825 0.97570 0.44825 0.04400
H 	H 	0.44360 0.05460 0.44360 -0.00400
H 	H 	0.41090 0.11310 0.41090 0.08900
H 	H 	0.36630 0.12610 0.36630 0.03200
H 	H 	0.36755 0.05250 0.36755 0.02700
H 	H 	0.97570 0.44825 0.44825 0.04400
H 	H 	0.05460 0.44360 0.44360 -0.00400
H 	H 	0.11310 0.41090 0.41090 0.08900
H 	H 	0.12610 0.36630 0.36630 0.03200
H 	H 	0.05250 0.36755 0.36755 0.02700
H 	H 	0.44825 0.44825 0.97570 0.04400
H 	H 	0.44360 0.44360 0.05460 -0.00400
H 	H 	0.41090 0.41090 0.11310 0.08900
H 	H 	0.36630 0.36630 0.12610 0.03200
H 	H 	0.36755 0.36755 0.05250 0.02700
H 	H 	0.43330 0.10470 0.10470 0.06900
H 	H 	0.10470 0.10470 0.43330 0.06900
H 	H 	0.10470 0.43330 0.10470 0.06900
H 	H 	0.38640 0.70570 0.70570 0.05900
H 	H 	0.70570 0.70570 0.38640 0.05900
H 	H 	0.70570 0.38640 0.70570 0.05900
H 	H 	0.10495 0.10495 0.98670 0.04600
H 	H 	0.10495 0.98670 0.10495 0.04600
H 	H 	0.98670 0.10495 0.10495 0.04600
H 	H 	0.70280 0.70280 0.82190 0.05300
H 	H 	0.70280 0.82190 0.70280 0.05300
H 	H 	0.82190 0.70280 0.70280 0.05300
C 	C 	0.43222 0.01211 0.94457 0.07200
C 	C 	0.43321 0.03579 0.96853 -0.13600
C 	C 	0.43330 0.01735 0.08783 -0.09400
C 	C 	0.43156 0.01581 0.16383 0.05000
C 	C 	0.41002 0.97916 0.19475 -0.11200
C 	C 	0.40813 0.95510 0.24260 0.04300
C 	C 	0.45113 0.02676 0.18440 -0.11700
C 	C 	0.44786 0.00331 0.23320 0.05100
C 	C 	0.42574 0.96915 0.26275 -0.11800
C 	C 	0.42063 0.94471 0.31558 0.36900
C 	C 	0.43334 0.04065 0.11309 0.03400
C 	C 	0.37975 0.86721 0.80152 0.10400
C 	C 	0.37648 0.84391 0.77793 -0.16800
C 	C 	0.37919 0.79525 0.72437 -0.07700
C 	C 	0.38212 0.77063 0.69854 0.01800
C 	C 	0.38476 0.79549 0.64638 0.06700
C 	C 	0.39870 0.83603 0.61794 -0.13500
C 	C 	0.40119 0.85873 0.57010 0.06700
C 	C 	0.39127 0.84121 0.54801 -0.13800
C 	C 	0.37881 0.79994 0.57522 0.06400
C 	C 	0.37507 0.77731 0.62388 -0.13300
C 	C 	0.39398 0.86626 0.49616 0.37800
C 	C 	0.23830 0.01480 0.94806 0.11000
C 	C 	0.19073 0.03808 0.97088 -0.17600
C 	C 	0.57106 0.86234 0.79371 0.07300
C 	C 	0.61784 0.83821 0.77031 -0.14100
C 	C 	0.39972 0.73305 0.09803 0.03300
C 	C 	0.42450 0.80293 0.03877 0.05400
C 	C 	0.42272 0.76552 0.08324 -0.10300
C 	C 	0.37849 0.73799 0.06836 -0.10500
C 	C 	0.38027 0.77539 0.02387 0.05900
C 	C 	0.01211 0.94457 0.43222 0.07200
C 	C 	0.03579 0.96853 0.43321 -0.13600
C 	C 	0.01735 0.08783 0.43330 -0.09400
C 	C 	0.01581 0.16383 0.43156 0.05000
C 	C 	0.97916 0.19475 0.41002 -0.11200
C 	C 	0.95510 0.24260 0.40813 0.04300
C 	C 	0.02676 0.18440 0.45113 -0.11700
C 	C 	0.00331 0.23320 0.44786 0.05100
C 	C 	0.96915 0.26275 0.42574 -0.11800
C 	C 	0.94471 0.31558 0.42063 0.36900
C 	C 	0.04065 0.11309 0.43334 0.03400
C 	C 	0.86721 0.80152 0.37975 0.10400
C 	C 	0.84391 0.77793 0.37648 -0.16800
C 	C 	0.79525 0.72437 0.37919 -0.07700
C 	C 	0.77063 0.69854 0.38212 0.01800
C 	C 	0.79549 0.64638 0.38476 0.06700
C 	C 	0.83603 0.61794 0.39870 -0.13500
C 	C 	0.85873 0.57010 0.40119 0.06700
C 	C 	0.84121 0.54801 0.39127 -0.13800
C 	C 	0.79994 0.57522 0.37881 0.06400
C 	C 	0.77731 0.62388 0.37507 -0.13300
C 	C 	0.86626 0.49616 0.39398 0.37800
C 	C 	0.01480 0.94806 0.23830 0.11000
C 	C 	0.03808 0.97088 0.19073 -0.17600
C 	C 	0.86234 0.79371 0.57106 0.07300
C 	C 	0.83821 0.77031 0.61784 -0.14100
C 	C 	0.73305 0.09803 0.39972 0.03300
C 	C 	0.80293 0.03877 0.42450 0.05400
C 	C 	0.76552 0.08324 0.42272 -0.10300
C 	C 	0.73799 0.06836 0.37849 -0.10500
C 	C 	0.77539 0.02387 0.38027 0.05900
C 	C 	0.94457 0.43222 0.01211 0.07200
C 	C 	0.96853 0.43321 0.03579 -0.13600
C 	C 	0.08783 0.43330 0.01735 -0.09400
C 	C 	0.16383 0.43156 0.01581 0.05000
C 	C 	0.19475 0.41002 0.97916 -0.11200
C 	C 	0.24260 0.40813 0.95510 0.04300
C 	C 	0.18440 0.45113 0.02676 -0.11700
C 	C 	0.23320 0.44786 0.00331 0.05100
C 	C 	0.26275 0.42574 0.96915 -0.11800
C 	C 	0.31558 0.42063 0.94471 0.36900
C 	C 	0.11309 0.43334 0.04065 0.03400
C 	C 	0.80152 0.37975 0.86721 0.10400
C 	C 	0.77793 0.37648 0.84391 -0.16800
C 	C 	0.72437 0.37919 0.79525 -0.07700
C 	C 	0.69854 0.38212 0.77063 0.01800
C 	C 	0.64638 0.38476 0.79549 0.06700
C 	C 	0.61794 0.39870 0.83603 -0.13500
C 	C 	0.57010 0.40119 0.85873 0.06700
C 	C 	0.54801 0.39127 0.84121 -0.13800
C 	C 	0.57522 0.37881 0.79994 0.06400
C 	C 	0.62388 0.37507 0.77731 -0.13300
C 	C 	0.49616 0.39398 0.86626 0.37800
C 	C 	0.94806 0.23830 0.01480 0.11000
C 	C 	0.97088 0.19073 0.03808 -0.17600
C 	C 	0.79371 0.57106 0.86234 0.07300
C 	C 	0.77031 0.61784 0.83821 -0.14100
C 	C 	0.09803 0.39972 0.73305 0.03300
C 	C 	0.03877 0.42450 0.80293 0.05400
C 	C 	0.08324 0.42272 0.76552 -0.10300
C 	C 	0.06836 0.37849 0.73799 -0.10500
C 	C 	0.02387 0.38027 0.77539 0.05900
C 	C 	0.01211 0.43222 0.94457 0.07200
C 	C 	0.03579 0.43321 0.96853 -0.13600
C 	C 	0.01735 0.43330 0.08783 -0.09400
C 	C 	0.01581 0.43156 0.16383 0.05000
C 	C 	0.97916 0.41002 0.19475 -0.11200
C 	C 	0.95510 0.40813 0.24260 0.04300
C 	C 	0.02676 0.45113 0.18440 -0.11700
C 	C 	0.00331 0.44786 0.23320 0.05100
C 	C 	0.96915 0.42574 0.26275 -0.11800
C 	C 	0.94471 0.42063 0.31558 0.36900
C 	C 	0.04065 0.43334 0.11309 0.03400
C 	C 	0.86721 0.37975 0.80152 0.10400
C 	C 	0.84391 0.37648 0.77793 -0.16800
C 	C 	0.79525 0.37919 0.72437 -0.07700
C 	C 	0.77063 0.38212 0.69854 0.01800
C 	C 	0.79549 0.38476 0.64638 0.06700
C 	C 	0.83603 0.39870 0.61794 -0.13500
C 	C 	0.85873 0.40119 0.57010 0.06700
C 	C 	0.84121 0.39127 0.54801 -0.13800
C 	C 	0.79994 0.37881 0.57522 0.06400
C 	C 	0.77731 0.37507 0.62388 -0.13300
C 	C 	0.86626 0.39398 0.49616 0.37800
C 	C 	0.01480 0.23830 0.94806 0.11000
C 	C 	0.03808 0.19073 0.97088 -0.17600
C 	C 	0.86234 0.57106 0.79371 0.07300
C 	C 	0.83821 0.61784 0.77031 -0.14100
C 	C 	0.73305 0.39972 0.09803 0.03300
C 	C 	0.80293 0.42450 0.03877 0.05400
C 	C 	0.76552 0.42272 0.08324 -0.10300
C 	C 	0.73799 0.37849 0.06836 -0.10500
C 	C 	0.77539 0.38027 0.02387 0.05900
C 	C 	0.94457 0.01211 0.43222 0.07200
C 	C 	0.96853 0.03579 0.43321 -0.13600
C 	C 	0.08783 0.01735 0.43330 -0.09400
C 	C 	0.16383 0.01581 0.43156 0.05000
C 	C 	0.19475 0.97916 0.41002 -0.11200
C 	C 	0.24260 0.95510 0.40813 0.04300
C 	C 	0.18440 0.02676 0.45113 -0.11700
C 	C 	0.23320 0.00331 0.44786 0.05100
C 	C 	0.26275 0.96915 0.42574 -0.11800
C 	C 	0.31558 0.94471 0.42063 0.36900
C 	C 	0.11309 0.04065 0.43334 0.03400
C 	C 	0.80152 0.86721 0.37975 0.10400
C 	C 	0.77793 0.84391 0.37648 -0.16800
C 	C 	0.72437 0.79525 0.37919 -0.07700
C 	C 	0.69854 0.77063 0.38212 0.01800
C 	C 	0.64638 0.79549 0.38476 0.06700
C 	C 	0.61794 0.83603 0.39870 -0.13500
C 	C 	0.57010 0.85873 0.40119 0.06700
C 	C 	0.54801 0.84121 0.39127 -0.13800
C 	C 	0.57522 0.79994 0.37881 0.06400
C 	C 	0.62388 0.77731 0.37507 -0.13300
C 	C 	0.49616 0.86626 0.39398 0.37800
C 	C 	0.94806 0.01480 0.23830 0.11000
C 	C 	0.97088 0.03808 0.19073 -0.17600
C 	C 	0.79371 0.86234 0.57106 0.07300
C 	C 	0.77031 0.83821 0.61784 -0.14100
C 	C 	0.09803 0.73305 0.39972 0.03300
C 	C 	0.03877 0.80293 0.42450 0.05400
C 	C 	0.08324 0.76552 0.42272 -0.10300
C 	C 	0.06836 0.73799 0.37849 -0.10500
C 	C 	0.02387 0.77539 0.38027 0.05900
C 	C 	0.43222 0.94457 0.01211 0.07200
C 	C 	0.43321 0.96853 0.03579 -0.13600
C 	C 	0.43330 0.08783 0.01735 -0.09400
C 	C 	0.43156 0.16383 0.01581 0.05000
C 	C 	0.41002 0.19475 0.97916 -0.11200
C 	C 	0.40813 0.24260 0.95510 0.04300
C 	C 	0.45113 0.18440 0.02676 -0.11700
C 	C 	0.44786 0.23320 0.00331 0.05100
C 	C 	0.42574 0.26275 0.96915 -0.11800
C 	C 	0.42063 0.31558 0.94471 0.36900
C 	C 	0.43334 0.11309 0.04065 0.03400
C 	C 	0.37975 0.80152 0.86721 0.10400
C 	C 	0.37648 0.77793 0.84391 -0.16800
C 	C 	0.37919 0.72437 0.79525 -0.07700
C 	C 	0.38212 0.69854 0.77063 0.01800
C 	C 	0.38476 0.64638 0.79549 0.06700
C 	C 	0.39870 0.61794 0.83603 -0.13500
C 	C 	0.40119 0.57010 0.85873 0.06700
C 	C 	0.39127 0.54801 0.84121 -0.13800
C 	C 	0.37881 0.57522 0.79994 0.06400
C 	C 	0.37507 0.62388 0.77731 -0.13300
C 	C 	0.39398 0.49616 0.86626 0.37800
C 	C 	0.23830 0.94806 0.01480 0.11000
C 	C 	0.19073 0.97088 0.03808 -0.17600
C 	C 	0.57106 0.79371 0.86234 0.07300
C 	C 	0.61784 0.77031 0.83821 -0.14100
C 	C 	0.39972 0.09803 0.73305 0.03300
C 	C 	0.42450 0.03877 0.80293 0.05400
C 	C 	0.42272 0.08324 0.76552 -0.10300
C 	C 	0.37849 0.06836 0.73799 -0.10500
C 	C 	0.38027 0.02387 0.77539 0.05900
C 	C 	0.43064 0.00535 0.43064 -0.02000
C 	C 	0.42714 0.05555 0.42714 0.10000
C 	C 	0.41004 0.08615 0.41004 -0.17500
C 	C 	0.38309 0.09513 0.38309 -0.00600
C 	C 	0.38444 0.05005 0.38444 0.02800
C 	C 	0.00535 0.43064 0.43064 -0.02000
C 	C 	0.05555 0.42714 0.42713 0.10000
C 	C 	0.08615 0.41004 0.41004 -0.17500
C 	C 	0.09513 0.38309 0.38309 -0.00600
C 	C 	0.05005 0.38444 0.38443 0.02800
C 	C 	0.43064 0.43064 0.00535 -0.02000
C 	C 	0.42714 0.42714 0.05555 0.10000
C 	C 	0.41004 0.41004 0.08615 -0.17500
C 	C 	0.38309 0.38309 0.09513 -0.00600
C 	C 	0.38444 0.38444 0.05005 0.02800
C 	C 	0.42350 0.94334 0.94334 0.36800
C 	C 	0.42811 0.96757 0.96757 -0.13900
C 	C 	0.43279 0.01461 0.01461 0.07500
C 	C 	0.43386 0.04019 0.04019 0.02700
C 	C 	0.43335 0.08861 0.08861 -0.09800
C 	C 	0.31589 0.94559 0.94559 0.38900
C 	C 	0.26326 0.97003 0.97003 -0.17000
C 	C 	0.16568 0.01660 0.01660 0.11200
C 	C 	0.11368 0.04179 0.04179 -0.00800
C 	C 	0.49502 0.86585 0.86585 0.37000
C 	C 	0.54646 0.84055 0.84055 -0.14200
C 	C 	0.64295 0.79211 0.79211 0.08000
C 	C 	0.69365 0.76630 0.76630 0.01100
C 	C 	0.94334 0.94334 0.42350 0.36800
C 	C 	0.96757 0.96757 0.42811 -0.13900
C 	C 	0.01461 0.01461 0.43279 0.07500
C 	C 	0.04019 0.04019 0.43386 0.02700
C 	C 	0.08861 0.08861 0.43335 -0.09800
C 	C 	0.94559 0.94559 0.31589 0.38900
C 	C 	0.97003 0.97003 0.26326 -0.17000
C 	C 	0.01660 0.01660 0.16568 0.11200
C 	C 	0.04179 0.04179 0.11368 -0.00800
C 	C 	0.86585 0.86585 0.49502 0.37000
C 	C 	0.84055 0.84055 0.54646 -0.14200
C 	C 	0.79211 0.79211 0.64295 0.08000
C 	C 	0.76630 0.76630 0.69365 0.01100
C 	C 	0.94334 0.42350 0.94334 0.36800
C 	C 	0.96757 0.42811 0.96757 -0.13900
C 	C 	0.01461 0.43279 0.01461 0.07500
C 	C 	0.04019 0.43386 0.04019 0.02700
C 	C 	0.08861 0.43335 0.08861 -0.09800
C 	C 	0.94559 0.31589 0.94559 0.38900
C 	C 	0.97003 0.26326 0.97003 -0.17000
C 	C 	0.01660 0.16568 0.01660 0.11200
C 	C 	0.04179 0.11368 0.04179 -0.00800
C 	C 	0.86585 0.49502 0.86585 0.37000
C 	C 	0.84055 0.54646 0.84055 -0.14200
C 	C 	0.79211 0.64295 0.79211 0.08000
C 	C 	0.76630 0.69365 0.76630 0.01100
C 	C 	0.38786 0.86940 0.86940 0.39200
C 	C 	0.38234 0.84528 0.84528 -0.17100
C 	C 	0.37736 0.79830 0.79830 0.10700
C 	C 	0.37784 0.77241 0.77241 0.00400
C 	C 	0.38388 0.72250 0.72250 -0.08600
C 	C 	0.86940 0.86940 0.38786 0.39200
C 	C 	0.84528 0.84528 0.38234 -0.17100
C 	C 	0.79830 0.79830 0.37736 0.10700
C 	C 	0.77241 0.77241 0.37784 0.00400
C 	C 	0.72250 0.72250 0.38388 -0.08600
C 	C 	0.86940 0.38786 0.86940 0.39200
C 	C 	0.84528 0.38234 0.84528 -0.17100
C 	C 	0.79830 0.37736 0.79830 0.10700
C 	C 	0.77241 0.37784 0.77241 0.00400
C 	C 	0.72250 0.38388 0.72250 -0.08600
C 	C 	0.08913 0.08913 0.01873 -0.05800
C 	C 	0.08913 0.01873 0.08913 -0.05800
C 	C 	0.01873 0.08913 0.08913 -0.05800
C 	C 	0.71849 0.71849 0.78974 -0.07600
C 	C 	0.71849 0.78974 0.71849 -0.07600
C 	C 	0.78974 0.71849 0.71849 -0.07600
N 	N 	0.40471 0.80547 0.01015 -0.17900
N 	N 	0.80547 0.01015 0.40471 -0.17900
N 	N 	0.01015 0.40471 0.80547 -0.17900
N 	N 	0.80547 0.40471 0.01015 -0.17900
N 	N 	0.01015 0.80547 0.40471 -0.17900
N 	N 	0.40471 0.01015 0.80547 -0.17900
N 	N 	0.40704 0.00815 0.40704 -0.16600
N 	N 	0.00815 0.40704 0.40704 -0.16600
N 	N 	0.40704 0.40704 0.00815 -0.16600
O 	O 	0.42121 0.90088 0.96733 -0.40600
O 	O 	0.41921 0.96773 0.33667 -0.40400
O 	O 	0.41672 0.90286 0.33542 -0.40900
O 	O 	0.39059 0.84512 0.91126 -0.41000
O 	O 	0.39379 0.84284 0.47564 -0.40900
O 	O 	0.39623 0.90780 0.47679 -0.40900
O 	O 	0.33619 0.90354 0.96962 -0.40600
O 	O 	0.47499 0.84227 0.90853 -0.40500
O 	O 	0.90088 0.96733 0.42121 -0.40600
O 	O 	0.96773 0.33667 0.41921 -0.40400
O 	O 	0.90286 0.33542 0.41672 -0.40900
O 	O 	0.84512 0.91126 0.39059 -0.41000
O 	O 	0.84284 0.47564 0.39379 -0.40900
O 	O 	0.90780 0.47679 0.39623 -0.40900
O 	O 	0.90354 0.96962 0.33619 -0.40600
O 	O 	0.84227 0.90853 0.47499 -0.40500
O 	O 	0.96733 0.42121 0.90088 -0.40600
O 	O 	0.33667 0.41921 0.96773 -0.40400
O 	O 	0.33542 0.41672 0.90286 -0.40900
O 	O 	0.91126 0.39059 0.84512 -0.41000
O 	O 	0.47564 0.39379 0.84284 -0.40900
O 	O 	0.47679 0.39623 0.90780 -0.40900
O 	O 	0.96962 0.33619 0.90354 -0.40600
O 	O 	0.90853 0.47499 0.84227 -0.40500
O 	O 	0.90088 0.42121 0.96733 -0.40600
O 	O 	0.96773 0.41921 0.33667 -0.40400
O 	O 	0.90286 0.41672 0.33542 -0.40900
O 	O 	0.84512 0.39059 0.91126 -0.41000
O 	O 	0.84284 0.39379 0.47564 -0.40900
O 	O 	0.90780 0.39623 0.47679 -0.40900
O 	O 	0.90354 0.33619 0.96962 -0.40600
O 	O 	0.84227 0.47499 0.90853 -0.40500
O 	O 	0.96733 0.90088 0.42121 -0.40600
O 	O 	0.33667 0.96773 0.41921 -0.40400
O 	O 	0.33542 0.90286 0.41672 -0.40900
O 	O 	0.91126 0.84512 0.39059 -0.41000
O 	O 	0.47564 0.84284 0.39379 -0.40900
O 	O 	0.47679 0.90780 0.39623 -0.40900
O 	O 	0.96962 0.90354 0.33619 -0.40600
O 	O 	0.90853 0.84227 0.47499 -0.40500
O 	O 	0.42121 0.96733 0.90088 -0.40600
O 	O 	0.41921 0.33667 0.96773 -0.40400
O 	O 	0.41672 0.33542 0.90286 -0.40900
O 	O 	0.39059 0.91126 0.84512 -0.41000
O 	O 	0.39379 0.47564 0.84284 -0.40900
O 	O 	0.39623 0.47679 0.90780 -0.40900
O 	O 	0.33619 0.96962 0.90354 -0.40600
O 	O 	0.47499 0.90853 0.84227 -0.40500
