data_crystal

_cell_length_a 27.56000
_cell_length_b 27.56000
_cell_length_c 27.56000
_cell_angle_alpha 90.00000
_cell_angle_beta  90.00000
_cell_angle_gamma 90.00000

_symmetry_space_group_name_	'P 1'
_symmetry_space_group_name_H-M	'P 1'

loop_
_symmetry_equiv_pos_as_xyz
  x,y,z

loop_
_atom_site_label
_atom_site_type_symbol
_atom_site_fract_x
_atom_site_fract_y
_atom_site_fract_z
_atom_site_charge
Ni	Ni	0.50000 0.79844 -0.00000 1.09200
Ni	Ni	0.50000 0.20156 1.00000 1.08700
Ni	Ni	0.00000 0.50000 0.79844 1.07900
Ni	Ni	-0.00000 0.50000 0.20156 1.07900
Ni	Ni	0.79844 0.00000 0.50000 1.08000
Ni	Ni	0.20156 0.00000 0.50000 1.07900
Ni	Ni	0.29844 0.00000 0.50000 1.08000
Ni	Ni	0.70156 0.00000 0.50000 1.08100
Ni	Ni	0.00000 0.50000 0.70156 1.08100
Ni	Ni	0.00000 0.50000 0.29844 1.08100
Ni	Ni	0.50000 0.29844 1.00000 1.08900
Ni	Ni	0.50000 0.70156 -0.00000 1.09300
H 	H 	0.60980 0.82260 0.88880 0.03100
H 	H 	0.66830 0.82210 0.82950 0.07700
H 	H 	0.39020 0.17740 0.88880 0.02600
H 	H 	0.33170 0.17790 0.82950 0.07100
H 	H 	0.39020 0.82260 0.11120 0.03100
H 	H 	0.33170 0.82210 0.17050 0.07600
H 	H 	0.60980 0.17740 0.11120 0.02800
H 	H 	0.66830 0.17790 0.17050 0.07200
H 	H 	0.88880 0.60980 0.82260 0.03300
H 	H 	0.82950 0.66830 0.82210 0.07400
H 	H 	0.88880 0.39020 0.17740 0.03300
H 	H 	0.82950 0.33170 0.17790 0.07400
H 	H 	0.11120 0.39020 0.82260 0.02600
H 	H 	0.17050 0.33170 0.82210 0.07200
H 	H 	0.11120 0.60980 0.17740 0.02700
H 	H 	0.17050 0.66830 0.17790 0.07400
H 	H 	0.82260 0.88880 0.60980 0.03500
H 	H 	0.82210 0.82950 0.66830 0.07700
H 	H 	0.17740 0.88880 0.39020 0.03100
H 	H 	0.17790 0.82950 0.33170 0.07200
H 	H 	0.82260 0.11120 0.39020 0.02900
H 	H 	0.82210 0.17050 0.33170 0.07500
H 	H 	0.17740 0.11120 0.60980 0.02400
H 	H 	0.17790 0.17050 0.66830 0.07100
H 	H 	0.32260 0.10980 0.61120 0.02700
H 	H 	0.32210 0.16830 0.67050 0.07300
H 	H 	0.67740 0.89020 0.61120 0.03500
H 	H 	0.67790 0.83170 0.67050 0.07400
H 	H 	0.32260 0.89020 0.38880 0.03500
H 	H 	0.32210 0.83170 0.32950 0.07400
H 	H 	0.67740 0.10980 0.38880 0.02800
H 	H 	0.67790 0.16830 0.32950 0.07300
H 	H 	0.10980 0.38880 0.67740 0.02700
H 	H 	0.16830 0.32950 0.67790 0.07300
H 	H 	0.89020 0.38880 0.32260 0.03500
H 	H 	0.83170 0.32950 0.32210 0.07400
H 	H 	0.89020 0.61120 0.67740 0.03500
H 	H 	0.83170 0.67050 0.67790 0.07400
H 	H 	0.10980 0.61120 0.32260 0.02800
H 	H 	0.16830 0.67050 0.32210 0.07400
H 	H 	0.38880 0.32260 0.89020 0.02800
H 	H 	0.32950 0.32210 0.83170 0.07400
H 	H 	0.38880 0.67740 0.10980 0.02900
H 	H 	0.32950 0.67790 0.16830 0.07400
H 	H 	0.61120 0.32260 0.10980 0.03000
H 	H 	0.67050 0.32210 0.16830 0.07400
H 	H 	0.61120 0.67740 0.89020 0.02900
H 	H 	0.67050 0.67790 0.83170 0.07400
H 	H 	0.39020 0.17740 0.11120 0.02700
H 	H 	0.33170 0.17790 0.17050 0.07100
H 	H 	0.60980 0.82260 0.11120 0.03200
H 	H 	0.66830 0.82210 0.17050 0.07700
H 	H 	0.60980 0.17740 0.88880 0.02700
H 	H 	0.66830 0.17790 0.82950 0.07200
H 	H 	0.39020 0.82260 0.88880 0.03000
H 	H 	0.33170 0.82210 0.82950 0.07600
H 	H 	0.11120 0.39020 0.17740 0.02600
H 	H 	0.17050 0.33170 0.17790 0.07300
H 	H 	0.11120 0.60980 0.82260 0.02700
H 	H 	0.17050 0.66830 0.82210 0.07300
H 	H 	0.88880 0.60980 0.17740 0.03400
H 	H 	0.82950 0.66830 0.17790 0.07500
H 	H 	0.88880 0.39020 0.82260 0.03200
H 	H 	0.82950 0.33170 0.82210 0.07300
H 	H 	0.17740 0.11120 0.39020 0.02500
H 	H 	0.17790 0.17050 0.33170 0.07100
H 	H 	0.82260 0.11120 0.60980 0.02900
H 	H 	0.82210 0.17050 0.66830 0.07500
H 	H 	0.17740 0.88880 0.60980 0.03100
H 	H 	0.17790 0.82950 0.66830 0.07200
H 	H 	0.82260 0.88880 0.39020 0.03500
H 	H 	0.82210 0.82950 0.33170 0.07700
H 	H 	0.67740 0.89020 0.38880 0.03500
H 	H 	0.67790 0.83170 0.32950 0.07400
H 	H 	0.32260 0.10980 0.38880 0.02700
H 	H 	0.32210 0.16830 0.32950 0.07300
H 	H 	0.67740 0.10980 0.61120 0.02700
H 	H 	0.67790 0.16830 0.67050 0.07300
H 	H 	0.32260 0.89020 0.61120 0.03500
H 	H 	0.32210 0.83170 0.67050 0.07400
H 	H 	0.89020 0.61120 0.32260 0.03500
H 	H 	0.83170 0.67050 0.32210 0.07400
H 	H 	0.10980 0.61120 0.67740 0.02700
H 	H 	0.16830 0.67050 0.67790 0.07400
H 	H 	0.10980 0.38880 0.32260 0.02700
H 	H 	0.16830 0.32950 0.32210 0.07300
H 	H 	0.89020 0.38880 0.67740 0.03500
H 	H 	0.83170 0.32950 0.67790 0.07400
H 	H 	0.61120 0.67740 0.10980 0.03000
H 	H 	0.67050 0.67790 0.16830 0.07400
H 	H 	0.61120 0.32260 0.89020 0.02800
H 	H 	0.67050 0.32210 0.83170 0.07400
H 	H 	0.38880 0.67740 0.89020 0.02800
H 	H 	0.32950 0.67790 0.83170 0.07400
H 	H 	0.38880 0.32260 0.10980 0.02900
H 	H 	0.32950 0.32210 0.16830 0.07400
H 	H 	0.75000 0.69070 0.80930 0.06700
H 	H 	0.25000 0.30930 0.80930 0.06500
H 	H 	0.25000 0.69070 0.19070 0.06600
H 	H 	0.75000 0.30930 0.19070 0.06700
H 	H 	0.80930 0.75000 0.69070 0.06900
H 	H 	0.80930 0.25000 0.30930 0.06800
H 	H 	0.19070 0.25000 0.69070 0.06400
H 	H 	0.19070 0.75000 0.30930 0.06600
H 	H 	0.69070 0.80930 0.75000 0.06900
H 	H 	0.30930 0.80930 0.25000 0.06800
H 	H 	0.69070 0.19070 0.25000 0.06500
H 	H 	0.30930 0.19070 0.75000 0.06400
H 	H 	0.25000 0.30930 0.19070 0.06500
H 	H 	0.75000 0.69070 0.19070 0.06800
H 	H 	0.75000 0.30930 0.80930 0.06600
H 	H 	0.25000 0.69070 0.80930 0.06600
H 	H 	0.19070 0.25000 0.30930 0.06400
H 	H 	0.19070 0.75000 0.69070 0.06600
H 	H 	0.80930 0.75000 0.30930 0.07000
H 	H 	0.80930 0.25000 0.69070 0.06800
H 	H 	0.30930 0.19070 0.25000 0.06400
H 	H 	0.69070 0.19070 0.75000 0.06500
H 	H 	0.30930 0.80930 0.75000 0.06800
H 	H 	0.69070 0.80930 0.25000 0.06900
H 	H 	0.50000 0.96290 0.92650 0.09400
H 	H 	0.50000 0.87880 0.92920 0.00500
H 	H 	0.50000 0.03710 0.92650 0.05600
H 	H 	0.50000 0.12120 0.92920 0.01200
H 	H 	0.50000 0.96290 0.07350 0.09400
H 	H 	0.50000 0.87880 0.07080 0.00400
H 	H 	0.50000 0.03710 0.07350 0.05600
H 	H 	0.50000 0.12120 0.07080 0.01200
H 	H 	0.92650 0.50000 0.96290 0.06500
H 	H 	0.92920 0.50000 0.87880 0.00500
H 	H 	0.92650 0.50000 0.03710 0.07100
H 	H 	0.92920 0.50000 0.12120 0.00400
H 	H 	0.07350 0.50000 0.96290 0.06700
H 	H 	0.07080 0.50000 0.87880 0.01000
H 	H 	0.07350 0.50000 0.03710 0.07300
H 	H 	0.07080 0.50000 0.12120 0.00900
H 	H 	0.96290 0.92650 0.50000 0.08800
H 	H 	0.87880 0.92920 0.50000 0.00100
H 	H 	0.03710 0.92650 0.50000 0.04800
H 	H 	0.12120 0.92920 0.50000 0.00900
H 	H 	0.96290 0.07350 0.50000 0.09000
H 	H 	0.87880 0.07080 0.50000 0.00600
H 	H 	0.03710 0.07350 0.50000 0.05100
H 	H 	0.12120 0.07080 0.50000 0.01400
H 	H 	0.46290 0.00000 0.57350 0.07000
H 	H 	0.37880 0.00000 0.57080 0.00200
H 	H 	0.53710 0.00000 0.57350 0.07000
H 	H 	0.62120 0.00000 0.57080 0.00200
H 	H 	0.46290 0.00000 0.42650 0.07000
H 	H 	0.37880 0.00000 0.42920 0.00200
H 	H 	0.53710 0.00000 0.42650 0.07000
H 	H 	0.62120 0.00000 0.42920 0.00300
H 	H 	0.00000 0.42650 0.53710 0.07000
H 	H 	-0.00000 0.42920 0.62120 0.00200
H 	H 	0.00000 0.42650 0.46290 0.07000
H 	H 	0.00000 0.42920 0.37880 0.00200
H 	H 	-0.00000 0.57350 0.53710 0.07000
H 	H 	-0.00000 0.57080 0.62120 0.00300
H 	H 	-0.00000 0.57350 0.46290 0.07000
H 	H 	-0.00000 0.57080 0.37880 0.00300
H 	H 	0.42650 0.46290 -0.00000 0.05800
H 	H 	0.42920 0.37880 -0.00000 0.02600
H 	H 	0.42650 0.53710 -0.00000 0.08900
H 	H 	0.42920 0.62120 -0.00000 0.00200
H 	H 	0.57350 0.46290 1.00000 0.05000
H 	H 	0.57080 0.37880 -0.00000 0.02800
H 	H 	0.57350 0.53710 -0.00000 0.08000
H 	H 	0.57080 0.62120 -0.00000 0.00700
C 	C 	0.62179 0.79318 0.87731 0.05400
C 	C 	0.65700 0.79284 0.84182 -0.12000
C 	C 	0.37821 0.20682 0.87731 0.05300
C 	C 	0.34300 0.20716 0.84182 -0.12300
C 	C 	0.37821 0.79318 0.12269 0.05300
C 	C 	0.34300 0.79284 0.15818 -0.12000
C 	C 	0.62179 0.20682 0.12269 0.05200
C 	C 	0.65700 0.20716 0.15818 -0.12100
C 	C 	0.87731 0.62179 0.79318 0.05000
C 	C 	0.84182 0.65700 0.79284 -0.11600
C 	C 	0.87731 0.37821 0.20682 0.04900
C 	C 	0.84182 0.34300 0.20716 -0.11600
C 	C 	0.12269 0.37821 0.79318 0.05300
C 	C 	0.15818 0.34300 0.79284 -0.12300
C 	C 	0.12269 0.62179 0.20682 0.05300
C 	C 	0.15818 0.65700 0.20716 -0.12200
C 	C 	0.79318 0.87731 0.62179 0.05000
C 	C 	0.79284 0.84182 0.65700 -0.11500
C 	C 	0.20682 0.87731 0.37821 0.04900
C 	C 	0.20716 0.84182 0.34300 -0.11700
C 	C 	0.79318 0.12269 0.37821 0.05300
C 	C 	0.79284 0.15818 0.34300 -0.12200
C 	C 	0.20682 0.12269 0.62179 0.05200
C 	C 	0.20716 0.15818 0.65700 -0.12400
C 	C 	0.29318 0.12179 0.62269 0.05300
C 	C 	0.29284 0.15700 0.65818 -0.12300
C 	C 	0.70682 0.87821 0.62269 0.04900
C 	C 	0.70716 0.84300 0.65818 -0.11500
C 	C 	0.29318 0.87821 0.37731 0.04900
C 	C 	0.29284 0.84300 0.34182 -0.11600
C 	C 	0.70682 0.12179 0.37731 0.05300
C 	C 	0.70716 0.15700 0.34182 -0.12200
C 	C 	0.12179 0.37731 0.70682 0.05300
C 	C 	0.15700 0.34182 0.70716 -0.12300
C 	C 	0.87821 0.37731 0.29318 0.04900
C 	C 	0.84300 0.34182 0.29284 -0.11600
C 	C 	0.87821 0.62269 0.70682 0.04900
C 	C 	0.84300 0.65818 0.70716 -0.11500
C 	C 	0.12179 0.62269 0.29318 0.05300
C 	C 	0.15700 0.65818 0.29284 -0.12200
C 	C 	0.37731 0.29318 0.87821 0.05300
C 	C 	0.34182 0.29284 0.84300 -0.12200
C 	C 	0.37731 0.70682 0.12179 0.05300
C 	C 	0.34182 0.70716 0.15700 -0.12000
C 	C 	0.62269 0.29318 0.12179 0.05300
C 	C 	0.65818 0.29284 0.15700 -0.12000
C 	C 	0.62269 0.70682 0.87821 0.05300
C 	C 	0.65818 0.70716 0.84300 -0.12100
C 	C 	0.37821 0.20682 0.12269 0.05200
C 	C 	0.34300 0.20716 0.15818 -0.12100
C 	C 	0.62179 0.79318 0.12269 0.05300
C 	C 	0.65700 0.79284 0.15818 -0.11900
C 	C 	0.62179 0.20682 0.87731 0.05300
C 	C 	0.65700 0.20716 0.84182 -0.12200
C 	C 	0.37821 0.79318 0.87731 0.05400
C 	C 	0.34300 0.79284 0.84182 -0.12100
C 	C 	0.12269 0.37821 0.20682 0.05300
C 	C 	0.15818 0.34300 0.20716 -0.12300
C 	C 	0.12269 0.62179 0.79318 0.05300
C 	C 	0.15818 0.65700 0.79284 -0.12300
C 	C 	0.87731 0.62179 0.20682 0.05000
C 	C 	0.84182 0.65700 0.20716 -0.11500
C 	C 	0.87731 0.37821 0.79318 0.04900
C 	C 	0.84182 0.34300 0.79284 -0.11600
C 	C 	0.20682 0.12269 0.37821 0.05200
C 	C 	0.20716 0.15818 0.34300 -0.12400
C 	C 	0.79318 0.12269 0.62179 0.05300
C 	C 	0.79284 0.15818 0.65700 -0.12200
C 	C 	0.20682 0.87731 0.62179 0.04900
C 	C 	0.20716 0.84182 0.65700 -0.11700
C 	C 	0.79318 0.87731 0.37821 0.05000
C 	C 	0.79284 0.84182 0.34300 -0.11500
C 	C 	0.70682 0.87821 0.37731 0.04900
C 	C 	0.70716 0.84300 0.34182 -0.11500
C 	C 	0.29318 0.12179 0.37731 0.05300
C 	C 	0.29284 0.15700 0.34182 -0.12300
C 	C 	0.70682 0.12179 0.62269 0.05300
C 	C 	0.70716 0.15700 0.65818 -0.12200
C 	C 	0.29318 0.87821 0.62269 0.04900
C 	C 	0.29284 0.84300 0.65818 -0.11600
C 	C 	0.87821 0.62269 0.29318 0.04900
C 	C 	0.84300 0.65818 0.29284 -0.11500
C 	C 	0.12179 0.62269 0.70682 0.05300
C 	C 	0.15700 0.65818 0.70716 -0.12200
C 	C 	0.12179 0.37731 0.29318 0.05300
C 	C 	0.15700 0.34182 0.29284 -0.12300
C 	C 	0.87821 0.37731 0.70682 0.04900
C 	C 	0.84300 0.34182 0.70716 -0.11600
C 	C 	0.62269 0.70682 0.12179 0.05300
C 	C 	0.65818 0.70716 0.15700 -0.12000
C 	C 	0.62269 0.29318 0.87821 0.05300
C 	C 	0.65818 0.29284 0.84300 -0.12200
C 	C 	0.37731 0.70682 0.87821 0.05300
C 	C 	0.34182 0.70716 0.84300 -0.12100
C 	C 	0.37731 0.29318 0.12179 0.05200
C 	C 	0.34182 0.29284 0.15700 -0.12100
C 	C 	0.50000 0.97276 -0.00000 0.11000
C 	C 	0.50000 0.02724 -0.00000 0.00600
C 	C 	0.00000 0.50000 0.97276 0.01600
C 	C 	0.00000 0.50000 0.02724 0.03400
C 	C 	0.97276 0.00000 0.50000 0.07900
C 	C 	0.02724 0.00000 0.50000 -0.02900
C 	C 	0.47276 0.00000 0.50000 0.05100
C 	C 	0.52724 0.00000 0.50000 0.05100
C 	C 	0.00000 0.50000 0.52724 0.05100
C 	C 	0.00000 0.50000 0.47276 0.05100
C 	C 	0.50000 0.47276 1.00000 0.00900
C 	C 	0.50000 0.52724 1.00000 0.07300
C 	C 	0.56562 0.75000 0.93438 0.38200
C 	C 	0.60409 0.75000 0.89591 -0.12200
C 	C 	0.71404 0.75000 0.78596 0.03800
C 	C 	0.67579 0.75000 0.82421 0.05600
C 	C 	0.43438 0.25000 0.93438 0.38200
C 	C 	0.39591 0.25000 0.89591 -0.12400
C 	C 	0.28596 0.25000 0.78596 0.03300
C 	C 	0.32421 0.25000 0.82421 0.05600
C 	C 	0.43438 0.75000 0.06562 0.38200
C 	C 	0.39591 0.75000 0.10409 -0.12100
C 	C 	0.28596 0.75000 0.21404 0.03700
C 	C 	0.32421 0.75000 0.17579 0.05600
C 	C 	0.56562 0.25000 0.06562 0.38100
C 	C 	0.60409 0.25000 0.10409 -0.12200
C 	C 	0.71404 0.25000 0.21404 0.03600
C 	C 	0.67579 0.25000 0.17579 0.05500
C 	C 	0.93438 0.56562 0.75000 0.37800
C 	C 	0.89591 0.60409 0.75000 -0.11400
C 	C 	0.78596 0.71404 0.75000 0.04000
C 	C 	0.82421 0.67579 0.75000 0.05400
C 	C 	0.93438 0.43438 0.25000 0.37800
C 	C 	0.89591 0.39591 0.25000 -0.11500
C 	C 	0.78596 0.28596 0.25000 0.03800
C 	C 	0.82421 0.32421 0.25000 0.05400
C 	C 	0.06562 0.43438 0.75000 0.38100
C 	C 	0.10409 0.39591 0.75000 -0.12500
C 	C 	0.21404 0.28596 0.75000 0.03300
C 	C 	0.17579 0.32421 0.75000 0.05600
C 	C 	0.06562 0.56562 0.25000 0.38100
C 	C 	0.10409 0.60409 0.25000 -0.12500
C 	C 	0.21404 0.71404 0.25000 0.03600
C 	C 	0.17579 0.67579 0.25000 0.05600
C 	C 	0.75000 0.93438 0.56562 0.37800
C 	C 	0.75000 0.89591 0.60409 -0.11400
C 	C 	0.75000 0.78596 0.71404 0.04000
C 	C 	0.75000 0.82421 0.67579 0.05400
C 	C 	0.25000 0.93438 0.43438 0.37800
C 	C 	0.25000 0.89591 0.39591 -0.11500
C 	C 	0.25000 0.78596 0.28596 0.03800
C 	C 	0.25000 0.82421 0.32421 0.05300
C 	C 	0.75000 0.06562 0.43438 0.38100
C 	C 	0.75000 0.10409 0.39591 -0.12400
C 	C 	0.75000 0.21404 0.28596 0.03600
C 	C 	0.75000 0.17579 0.32421 0.05600
C 	C 	0.25000 0.06562 0.56562 0.38100
C 	C 	0.25000 0.10409 0.60409 -0.12600
C 	C 	0.25000 0.21404 0.71404 0.03300
C 	C 	0.25000 0.17579 0.67579 0.05500
C 	C 	0.43438 0.25000 0.06562 0.38100
C 	C 	0.39591 0.25000 0.10409 -0.12200
C 	C 	0.28596 0.25000 0.21404 0.03400
C 	C 	0.32421 0.25000 0.17579 0.05500
C 	C 	0.56562 0.75000 0.06562 0.38200
C 	C 	0.60409 0.75000 0.10409 -0.12100
C 	C 	0.71404 0.75000 0.21404 0.03900
C 	C 	0.67579 0.75000 0.17579 0.05600
C 	C 	0.56562 0.25000 0.93438 0.38200
C 	C 	0.60409 0.25000 0.89591 -0.12400
C 	C 	0.71404 0.25000 0.78596 0.03600
C 	C 	0.67579 0.25000 0.82421 0.05600
C 	C 	0.43438 0.75000 0.93438 0.38200
C 	C 	0.39591 0.75000 0.89591 -0.12300
C 	C 	0.28596 0.75000 0.78596 0.03600
C 	C 	0.32421 0.75000 0.82421 0.05600
C 	C 	0.06562 0.43438 0.25000 0.38100
C 	C 	0.10409 0.39591 0.25000 -0.12500
C 	C 	0.21404 0.28596 0.25000 0.03400
C 	C 	0.17579 0.32421 0.25000 0.05600
C 	C 	0.06562 0.56562 0.75000 0.38100
C 	C 	0.10409 0.60409 0.75000 -0.12500
C 	C 	0.21404 0.71404 0.75000 0.03500
C 	C 	0.17579 0.67579 0.75000 0.05600
C 	C 	0.93438 0.56562 0.25000 0.37800
C 	C 	0.89591 0.60409 0.25000 -0.11400
C 	C 	0.78596 0.71404 0.25000 0.04000
C 	C 	0.82421 0.67579 0.25000 0.05400
C 	C 	0.93438 0.43438 0.75000 0.37800
C 	C 	0.89591 0.39591 0.75000 -0.11500
C 	C 	0.78596 0.28596 0.75000 0.03800
C 	C 	0.82421 0.32421 0.75000 0.05300
C 	C 	0.25000 0.06562 0.43438 0.38100
C 	C 	0.25000 0.10409 0.39591 -0.12600
C 	C 	0.25000 0.21404 0.28596 0.03300
C 	C 	0.25000 0.17579 0.32421 0.05500
C 	C 	0.75000 0.06562 0.56562 0.38100
C 	C 	0.75000 0.10409 0.60409 -0.12400
C 	C 	0.75000 0.21404 0.71404 0.03600
C 	C 	0.75000 0.17579 0.67579 0.05600
C 	C 	0.25000 0.93438 0.56562 0.37800
C 	C 	0.25000 0.89591 0.60409 -0.11500
C 	C 	0.25000 0.78596 0.71404 0.03700
C 	C 	0.25000 0.82421 0.67579 0.05300
C 	C 	0.75000 0.93438 0.43438 0.37800
C 	C 	0.75000 0.89591 0.39591 -0.11400
C 	C 	0.75000 0.78596 0.28596 0.04100
C 	C 	0.75000 0.82421 0.32421 0.05400
C 	C 	0.75000 0.71457 0.78543 -0.10400
C 	C 	0.25000 0.28543 0.78543 -0.10200
C 	C 	0.25000 0.71457 0.21457 -0.10300
C 	C 	0.75000 0.28543 0.21457 -0.10400
C 	C 	0.78543 0.75000 0.71457 -0.10500
C 	C 	0.78543 0.25000 0.28543 -0.10400
C 	C 	0.21457 0.25000 0.71457 -0.10200
C 	C 	0.21457 0.75000 0.28543 -0.10300
C 	C 	0.71457 0.78543 0.75000 -0.10400
C 	C 	0.28543 0.78543 0.25000 -0.10400
C 	C 	0.71457 0.21457 0.25000 -0.10300
C 	C 	0.28543 0.21457 0.75000 -0.10200
C 	C 	0.25000 0.28543 0.21457 -0.10200
C 	C 	0.75000 0.71457 0.21457 -0.10400
C 	C 	0.75000 0.28543 0.78543 -0.10300
C 	C 	0.25000 0.71457 0.78543 -0.10300
C 	C 	0.21457 0.25000 0.28543 -0.10200
C 	C 	0.21457 0.75000 0.71457 -0.10300
C 	C 	0.78543 0.75000 0.28543 -0.10500
C 	C 	0.78543 0.25000 0.71457 -0.10300
C 	C 	0.28543 0.21457 0.25000 -0.10200
C 	C 	0.71457 0.21457 0.75000 -0.10300
C 	C 	0.28543 0.78543 0.75000 -0.10300
C 	C 	0.71457 0.78543 0.25000 -0.10400
C 	C 	0.50000 0.94679 0.95610 -0.15500
C 	C 	0.50000 0.89617 0.95810 0.09000
C 	C 	0.50000 0.05321 0.95610 -0.10500
C 	C 	0.50000 0.10383 0.95810 0.05500
C 	C 	0.50000 0.94679 0.04390 -0.15100
C 	C 	0.50000 0.89617 0.04190 0.09400
C 	C 	0.50000 0.05321 0.04390 -0.10000
C 	C 	0.50000 0.10383 0.04190 0.06100
C 	C 	0.95610 0.50000 0.94679 -0.08700
C 	C 	0.95810 0.50000 0.89617 0.09400
C 	C 	0.95610 0.50000 0.05321 -0.09600
C 	C 	0.95810 0.50000 0.10383 0.09900
C 	C 	0.04390 0.50000 0.94679 -0.11300
C 	C 	0.04190 0.50000 0.89617 0.06300
C 	C 	0.04390 0.50000 0.05321 -0.12200
C 	C 	0.04190 0.50000 0.10383 0.06900
C 	C 	0.94679 0.95610 0.50000 -0.11800
C 	C 	0.89617 0.95810 0.50000 0.11400
C 	C 	0.05321 0.95610 0.50000 -0.06500
C 	C 	0.10383 0.95810 0.50000 0.07900
C 	C 	0.94679 0.04390 0.50000 -0.14400
C 	C 	0.89617 0.04190 0.50000 0.08400
C 	C 	0.05321 0.04390 0.50000 -0.09100
C 	C 	0.10383 0.04190 0.50000 0.04900
C 	C 	0.44679 0.00000 0.54390 -0.12700
C 	C 	0.39617 0.00000 0.54190 0.07300
C 	C 	0.55321 0.00000 0.54390 -0.12600
C 	C 	0.60383 0.00000 0.54190 0.07300
C 	C 	0.44679 0.00000 0.45610 -0.12700
C 	C 	0.39617 0.00000 0.45810 0.07300
C 	C 	0.55321 0.00000 0.45610 -0.12600
C 	C 	0.60383 0.00000 0.45810 0.07300
C 	C 	-0.00000 0.45610 0.55321 -0.12600
C 	C 	-0.00000 0.45810 0.60383 0.07300
C 	C 	0.00000 0.45610 0.44679 -0.12600
C 	C 	0.00000 0.45810 0.39617 0.07300
C 	C 	-0.00000 0.54390 0.55321 -0.12600
C 	C 	0.00000 0.54190 0.60383 0.07300
C 	C 	0.00000 0.54390 0.44679 -0.12600
C 	C 	-0.00000 0.54190 0.39617 0.07300
C 	C 	0.45610 0.44679 -0.00000 -0.07600
C 	C 	0.45810 0.39617 1.00000 0.03300
C 	C 	0.45610 0.55321 1.00000 -0.15600
C 	C 	0.45810 0.60383 -0.00000 0.09500
C 	C 	0.54390 0.44679 -0.00000 -0.06600
C 	C 	0.54190 0.39617 1.00000 0.02800
C 	C 	0.54390 0.55321 -0.00000 -0.13300
C 	C 	0.54190 0.60383 -0.00000 0.08300
N 	N 	0.50000 0.87160 -0.00000 -0.22700
N 	N 	0.50000 0.12840 -0.00000 -0.21500
N 	N 	-0.00000 0.50000 0.87160 -0.23900
N 	N 	-0.00000 0.50000 0.12840 -0.24100
N 	N 	0.87160 0.00000 0.50000 -0.24600
N 	N 	0.12840 0.00000 0.50000 -0.23500
N 	N 	0.37160 0.00000 0.50000 -0.22800
N 	N 	0.62840 0.00000 0.50000 -0.22800
N 	N 	-0.00000 0.50000 0.62840 -0.22800
N 	N 	0.00000 0.50000 0.37160 -0.22800
N 	N 	0.50000 0.37160 -0.00000 -0.20400
N 	N 	0.50000 0.62840 -0.00000 -0.22800
O 	O 	0.55081 0.79041 0.94884 -0.43900
O 	O 	0.44919 0.20959 0.94884 -0.44100
O 	O 	0.44919 0.79041 0.05116 -0.43600
O 	O 	0.55081 0.20959 0.05116 -0.43700
O 	O 	0.94884 0.55081 0.79041 -0.42400
O 	O 	0.94884 0.44919 0.20959 -0.42400
O 	O 	0.05116 0.44919 0.79041 -0.44400
O 	O 	0.05116 0.55081 0.20959 -0.44300
O 	O 	0.79041 0.94884 0.55081 -0.42300
O 	O 	0.20959 0.94884 0.44919 -0.42500
O 	O 	0.79041 0.05116 0.44919 -0.44200
O 	O 	0.20959 0.05116 0.55081 -0.44400
O 	O 	0.29041 0.05081 0.55116 -0.44300
O 	O 	0.70959 0.94919 0.55116 -0.42200
O 	O 	0.29041 0.94919 0.44884 -0.42200
O 	O 	0.70959 0.05081 0.44884 -0.44200
O 	O 	0.05081 0.44884 0.70959 -0.44300
O 	O 	0.94919 0.44884 0.29041 -0.42200
O 	O 	0.94919 0.55116 0.70959 -0.42200
O 	O 	0.05081 0.55116 0.29041 -0.44200
O 	O 	0.44884 0.29041 0.94919 -0.44000
O 	O 	0.44884 0.70959 0.05081 -0.43700
O 	O 	0.55116 0.29041 0.05081 -0.43600
O 	O 	0.55116 0.70959 0.94919 -0.44000
O 	O 	0.44919 0.20959 0.05116 -0.43700
O 	O 	0.55081 0.79041 0.05116 -0.43600
O 	O 	0.55081 0.20959 0.94884 -0.44000
O 	O 	0.44919 0.79041 0.94884 -0.43900
O 	O 	0.05116 0.44919 0.20959 -0.44300
O 	O 	0.05116 0.55081 0.79041 -0.44300
O 	O 	0.94884 0.55081 0.20959 -0.42400
O 	O 	0.94884 0.44919 0.79041 -0.42500
O 	O 	0.20959 0.05116 0.44919 -0.44400
O 	O 	0.79041 0.05116 0.55081 -0.44200
O 	O 	0.20959 0.94884 0.55081 -0.42500
O 	O 	0.79041 0.94884 0.44919 -0.42300
O 	O 	0.70959 0.94919 0.44884 -0.42200
O 	O 	0.29041 0.05081 0.44884 -0.44300
O 	O 	0.70959 0.05081 0.55116 -0.44200
O 	O 	0.29041 0.94919 0.55116 -0.42200
O 	O 	0.94919 0.55116 0.29041 -0.42200
O 	O 	0.05081 0.55116 0.70959 -0.44200
O 	O 	0.05081 0.44884 0.29041 -0.44300
O 	O 	0.94919 0.44884 0.70959 -0.42200
O 	O 	0.55116 0.70959 0.05081 -0.43700
O 	O 	0.55116 0.29041 0.94919 -0.44000
O 	O 	0.44884 0.70959 0.94919 -0.44000
O 	O 	0.44884 0.29041 0.05081 -0.43600
