data_crystal

_cell_length_a 48.44800
_cell_length_b 48.89800
_cell_length_c 35.85100
_cell_angle_alpha 90.00000
_cell_angle_beta  131.50200
_cell_angle_gamma 90.00000

_symmetry_space_group_name_	'P 1'
_symmetry_space_group_name_H-M	'P 1'

loop_
_symmetry_equiv_pos_as_xyz
  x,y,z

loop_
_atom_site_label
_atom_site_type_symbol
_atom_site_fract_x
_atom_site_fract_y
_atom_site_fract_z
_atom_site_charge
C 	C 	0.33420 0.51690 0.62310 0.03800
C 	C 	0.30630 0.50240 0.58050 -0.09400
C 	C 	0.30330 0.47430 0.58310 0.02400
C 	C 	0.32820 0.46080 0.62840 -0.01500
C 	C 	0.35610 0.47540 0.67100 0.01800
C 	C 	0.35910 0.50340 0.66840 -0.03500
C 	C 	0.05600 0.55630 0.60250 0.12400
C 	C 	0.02690 0.54670 0.59810 -0.05200
C 	C 	0.99960 0.53060 0.55760 0.02000
C 	C 	0.00130 0.52410 0.52140 -0.02400
C 	C 	0.03040 0.53370 0.52580 0.03200
C 	C 	0.05770 0.54980 0.56630 -0.13100
C 	C 	0.09250 0.63630 0.75220 0.10700
C 	C 	0.05630 0.64560 0.71860 -0.08200
C 	C 	0.03560 0.64710 0.73270 0.02600
C 	C 	0.05120 0.63930 0.78040 -0.02200
C 	C 	0.08730 0.63000 0.81400 0.03000
C 	C 	0.10800 0.62850 0.79990 -0.08600
C 	C 	0.13460 0.56331 0.47580 0.06600
C 	C 	0.11690 0.56750 0.42610 -0.02700
C 	C 	0.09330 0.54770 0.39080 0.01500
C 	C 	0.08730 0.52366 0.40530 -0.01600
C 	C 	0.10490 0.51947 0.45500 0.02900
C 	C 	0.12860 0.53930 0.49030 -0.11100
C 	C 	0.41590 0.72760 0.04290 0.04400
C 	C 	0.42840 0.73990 0.08670 -0.02600
C 	C 	0.45680 0.72790 0.13240 0.01200
C 	C 	0.47260 0.70360 0.13430 -0.01600
C 	C 	0.46010 0.69130 0.09050 0.03700
C 	C 	0.43170 0.70330 0.04480 -0.11900
C 	C 	0.21330 0.46720 0.69060 0.05900
C 	C 	0.22490 0.44100 0.69160 -0.02600
C 	C 	0.19910 0.42100 0.65980 0.01300
C 	C 	0.16170 0.42720 0.62700 -0.01800
C 	C 	0.15010 0.45340 0.62600 0.02800
C 	C 	0.17590 0.47340 0.65780 -0.11600
C 	C 	0.34340 0.57800 0.51350 0.05400
C 	C 	0.37330 0.56180 0.55030 -0.08000
C 	C 	0.40900 0.57170 0.57770 0.02300
C 	C 	0.41470 0.59760 0.56820 -0.01700
C 	C 	0.38480 0.61380 0.53130 0.01200
C 	C 	0.34910 0.60390 0.50400 -0.03500
C 	C 	0.14000 0.49600 0.70610 0.07000
C 	C 	0.14390 0.47150 0.72880 -0.05600
C 	C 	0.11560 0.45230 0.70290 0.02100
C 	C 	0.08350 0.45770 0.65430 -0.01900
C 	C 	0.07960 0.48220 0.63160 0.02900
C 	C 	0.10790 0.50130 0.65750 -0.08700
C 	C 	0.36400 0.48850 0.84470 0.09000
C 	C 	0.39480 0.48080 0.89280 -0.07700
C 	C 	0.41780 0.46020 0.90020 0.02200
C 	C 	0.40990 0.44730 0.85960 -0.01600
C 	C 	0.37910 0.45500 0.81150 0.02300
C 	C 	0.35610 0.47560 0.80400 -0.04900
C 	C 	0.15540 0.71600 0.81020 0.05100
C 	C 	0.15420 0.69280 0.83140 -0.12300
C 	C 	0.14570 0.69510 0.86150 0.02900
C 	C 	0.13850 0.72060 0.87040 -0.01800
C 	C 	0.13960 0.74390 0.84910 0.01000
C 	C 	0.14810 0.74160 0.81900 -0.02100
C 	C 	0.05800 0.59080 0.49090 0.08800
C 	C 	0.02570 0.60190 0.45500 -0.04900
C 	C 	0.00890 0.56190 0.40750 -0.02200
C 	C 	0.06380 0.56870 0.47650 -0.09500
C 	C 	0.23230 0.49870 0.59400 0.08300
C 	C 	0.20160 0.49290 0.54470 -0.08700
C 	C 	0.19290 0.46590 0.52840 0.02600
C 	C 	0.21490 0.44480 0.56150 -0.01800
C 	C 	0.24550 0.45060 0.61080 0.01800
C 	C 	0.25420 0.47760 0.62700 -0.04300
C 	C 	0.40090 0.53320 0.78800 0.03000
C 	C 	0.42430 0.55820 0.80350 -0.09800
C 	C 	0.46630 0.54970 0.85070 0.01200
C 	C 	0.42550 0.51370 0.83200 -0.02600
C 	C 	0.33160 0.68230 0.00840 -0.02500
C 	C 	0.29490 0.68450 0.99510 -0.05800
C 	C 	0.29880 0.70580 0.02900 0.00200
C 	C 	0.34140 0.69980 0.07760 -0.00100
C 	C 	0.36480 0.68590 0.06100 0.00400
C 	C 	0.42390 0.55260 0.98390 0.04000
C 	C 	0.44810 0.55020 0.03730 -0.01500
C 	C 	0.48450 0.53650 0.05880 0.00600
C 	C 	0.49020 0.52880 0.02710 -0.01200
C 	C 	0.46880 0.53140 0.97750 0.01700
C 	C 	0.43050 0.54330 0.95520 -0.11200
C 	C 	0.93380 0.68930 0.54240 0.05600
C 	C 	0.95730 0.69170 0.59490 -0.06900
C 	C 	0.94470 0.68360 0.61820 0.02100
C 	C 	0.90730 0.67500 0.59200 -0.01200
C 	C 	0.87890 0.67600 0.53560 0.01200
C 	C 	0.89600 0.68320 0.51350 -0.04100
C 	C 	0.34110 0.75970 0.73520 0.07400
C 	C 	0.25530 0.83840 0.73060 0.00800
C 	C 	0.30030 0.64320 0.52430 0.10800
C 	C 	0.25920 0.83530 0.69540 -0.01400
C 	C 	0.12090 0.81590 0.57240 -0.02000
C 	C 	0.52650 0.66780 0.92770 0.00900
C 	C 	0.13890 0.50830 0.36040 -0.01300
C 	C 	0.13430 0.73750 0.52670 -0.11300
C 	C 	0.12600 0.76180 0.49930 0.02900
C 	C 	0.27690 0.58050 0.00630 -0.07300
C 	C 	0.25390 0.81300 0.75490 -0.01700
C 	C 	0.26410 0.81090 0.68350 0.02600
C 	C 	0.34440 0.85300 0.89240 0.01100
C 	C 	0.22850 0.68480 0.49370 -0.07100
C 	C 	0.18660 0.49910 0.35860 -0.10600
C 	C 	0.53830 0.61690 0.04900 -0.01200
C 	C 	0.46850 0.60640 0.99270 -0.07700
C 	C 	0.16530 0.50460 0.41250 0.01300
C 	C 	0.09370 0.79860 0.56100 0.02600
C 	C 	0.19560 0.60600 0.45560 -0.11600
C 	C 	0.96590 0.66740 0.37480 -0.01800
C 	C 	0.17410 0.62290 0.41310 0.03400
C 	C 	0.50930 0.59540 0.02070 0.01500
C 	C 	0.34850 0.80520 0.88070 0.04800
C 	C 	0.10230 0.77380 0.58380 -0.07100
C 	C 	0.21320 0.73110 0.46610 -0.01600
C 	C 	0.50740 0.62220 0.93540 0.02200
C 	C 	0.32070 0.60360 0.35520 -0.01400
C 	C 	0.49440 0.74910 0.88650 -0.01100
C 	C 	0.32100 0.79820 0.88180 -0.09500
C 	C 	0.31920 0.68340 0.49910 0.00900
C 	C 	0.11580 0.71410 0.49960 0.05400
C 	C 	0.32170 0.57620 0.33860 0.02400
C 	C 	0.18540 0.61760 0.93670 0.02400
C 	C 	0.14840 0.50640 0.33220 0.03100
C 	C 	0.17190 0.58620 0.36540 0.01000
C 	C 	0.16640 0.78050 0.63040 -0.08800
C 	C 	0.32030 0.78580 0.66190 0.02600
C 	C 	0.29010 0.67530 0.44700 -0.01400
C 	C 	0.08350 0.73790 0.42280 0.01200
C 	C 	0.22850 0.70660 0.46890 0.02300
C 	C 	0.48850 0.67690 0.89670 -0.02400
C 	C 	0.19400 0.60860 0.90820 -0.10300
C 	C 	0.10110 0.76120 0.44810 -0.01600
C 	C 	0.31980 0.76190 0.68330 -0.07800
C 	C 	0.16330 0.59830 0.93960 -0.01300
C 	C 	0.26290 0.78660 0.70480 -0.11200
C 	C 	0.51860 0.74330 0.93890 0.00900
C 	C 	0.26540 0.65340 0.43180 0.02400
C 	C 	0.21070 0.49470 0.41030 0.05100
C 	C 	0.31540 0.84640 0.89100 -0.01400
C 	C 	0.36260 0.80660 0.74310 0.01800
C 	C 	0.53390 0.64200 0.94880 -0.01400
C 	C 	0.95170 0.68310 0.39050 0.02400
C 	C 	0.20010 0.49710 0.43710 -0.03000
C 	C 	0.18010 0.58510 0.88230 0.04900
C 	C 	0.41520 0.61730 0.74810 0.11900
C 	C 	0.19950 0.71230 0.51570 -0.08500
C 	C 	0.52880 0.64470 0.05080 0.02000
C 	C 	0.36360 0.78190 0.76650 -0.05000
C 	C 	0.46070 0.65810 0.88420 0.05200
C 	C 	0.46360 0.63510 0.99720 0.07400
C 	C 	0.50500 0.73520 0.96000 -0.02500
C 	C 	0.34050 0.80830 0.69140 -0.01600
C 	C 	0.97500 0.69520 0.43700 -0.09300
C 	C 	0.46670 0.73290 0.93170 0.05200
C 	C 	0.09040 0.71330 0.44830 -0.02000
C 	C 	0.21420 0.68790 0.51780 0.07100
C 	C 	0.30200 0.60930 0.37080 0.01400
C 	C 	0.20410 0.57920 0.45280 0.05900
C 	C 	0.01280 0.69070 0.46910 0.06600
C 	C 	0.49010 0.65270 0.01910 -0.06900
C 	C 	0.25940 0.78840 0.73960 0.04800
C 	C 	0.19780 0.73440 0.48910 0.02800
C 	C 	0.44270 0.73930 0.88190 -0.10700
C 	C 	0.13720 0.76450 0.61790 0.08800
C 	C 	0.36000 0.83120 0.88510 -0.02500
C 	C 	0.45580 0.74760 0.85830 0.03600
C 	C 	0.32730 0.66470 0.54250 -0.04200
C 	C 	0.29750 0.55570 0.33470 -0.10200
C 	C 	0.98460 0.61940 0.51500 0.02300
C 	C 	0.14750 0.57500 0.91340 0.00700
C 	C 	0.19350 0.56840 0.40960 -0.05200
C 	C 	0.30550 0.82000 0.88970 0.02900
C 	C 	0.15710 0.80620 0.60560 0.02800
C 	C 	0.16270 0.61290 0.36700 -0.01600
C 	C 	0.27270 0.63780 0.47150 -0.08600
C 	C 	0.46920 0.63150 0.90210 -0.09800
C 	C 	0.27710 0.56140 0.34500 0.05900
C 	C 	0.27870 0.58710 0.36590 -0.04400
C 	C 	0.00470 0.66340 0.40690 0.03000
C 	C 	0.15560 0.56720 0.88190 -0.01700
C 	C 	0.02820 0.67530 0.45430 -0.08200
C 	C 	0.26900 0.74610 0.90860 0.06200
C 	C 	0.08150 0.78300 0.69160 0.01600
C 	C 	0.29200 0.75610 0.95120 -0.07300
C 	C 	0.07970 0.75400 0.69440 -0.04000
C 	C 	0.03300 0.78350 0.59960 0.01800
C 	C 	0.05920 0.79800 0.64360 -0.01100
C 	C 	0.03230 0.75280 0.60270 -0.11000
C 	C 	0.41940 0.71820 0.71170 -0.01200
C 	C 	0.39170 0.72370 0.66220 0.01200
C 	C 	0.35380 0.71450 0.63470 -0.02500
C 	C 	0.41490 0.70380 0.74260 0.03100
C 	C 	0.37670 0.69480 0.71480 -0.10100
C 	C 	0.05660 0.74030 0.64820 0.05600
C 	C 	0.34820 0.69970 0.66540 0.08100
C 	C 	0.29860 0.59800 0.99730 0.06000
C 	C 	0.27320 0.59050 0.03990 0.01800
S 	S 	0.34175 0.69872 0.86162 -1.10000
S 	S 	0.19799 0.63117 0.63675 -1.14300
S 	S 	0.23103 0.68091 0.75433 -1.15600
S 	S 	0.19554 0.60120 0.74393 -1.14200
S 	S 	0.30752 0.65255 0.74546 -1.15200
S 	S 	0.27246 0.57268 0.73826 -1.16000
S 	S 	0.30655 0.62231 0.85456 -1.15500
S 	S 	0.45119 0.72168 0.96230 -0.51200
S 	S 	0.26993 0.54461 0.84472 -1.08900
S 	S 	0.12396 0.65998 0.64571 -1.09000
S 	S 	0.34285 0.72994 0.76480 -0.54800
S 	S 	0.08926 0.61395 0.53951 -0.56800
S 	S 	0.23052 0.71566 0.64489 -0.84500
S 	S 	0.27577 0.60005 0.63473 -1.08700
S 	S 	0.16051 0.58965 0.51850 -0.52700
S 	S 	0.21347 0.65813 0.54567 -0.53400
S 	S 	0.36978 0.77983 0.87147 -0.49400
S 	S 	0.04096 0.70687 0.52794 -0.52600
S 	S 	0.25841 0.75849 0.76761 -0.52400
S 	S 	0.17342 0.52214 0.74597 -0.55300
S 	S 	0.14808 0.73228 0.64875 -0.57300
S 	S 	0.16120 0.54869 0.62324 -0.85200
S 	S 	0.12554 0.68210 0.53124 -0.51800
S 	S 	0.41458 0.67079 0.84350 -0.52500
S 	S 	0.23046 0.55711 0.50346 -0.51900
S 	S 	0.22897 0.65166 0.86479 -0.86200
S 	S 	0.41543 0.64604 0.95925 -0.54700
S 	S 	0.38031 0.74431 0.98590 -0.50400
S 	S 	0.30251 0.69134 0.63453 -0.52500
S 	S 	0.38590 0.59136 0.84881 -0.86000
S 	S 	0.16376 0.71644 0.76926 -0.52600
S 	S 	0.05378 0.70404 0.65359 -0.50100
S 	S 	0.25772 0.48524 0.44194 -0.51400
S 	S 	0.27471 0.72762 0.87162 -0.57600
S 	S 	0.18530 0.57377 0.83914 -0.52800
S 	S 	0.35029 0.53569 0.74066 -0.51300
S 	S 	0.24640 0.49320 0.72710 -0.52300
S 	S 	0.24709 0.53768 0.33912 -0.49900
S 	S 	0.24814 0.53015 0.62563 -0.59100
S 	S 	0.34611 0.66346 0.97392 -0.51700
S 	S 	0.11718 0.63535 0.73286 -0.58900
S 	S 	0.36899 0.61942 0.72145 -0.59900
S 	S 	0.38114 0.56991 0.95862 -0.52800
S 	S 	0.30797 0.62375 0.56652 -0.55500
S 	S 	0.34819 0.50416 0.46445 -0.53100
S 	S 	0.01972 0.63475 0.57344 -0.51600
S 	S 	0.33539 0.51590 0.83646 -0.59600
S 	S 	0.30268 0.58850 0.95546 -0.56500
S 	S 	0.34440 0.55345 0.62659 -0.49400
S 	S 	0.09156 0.57545 0.64500 -0.55000
S 	S 	0.94855 0.69692 0.50987 -0.46700
S 	S 	0.29984 0.56660 0.47808 -0.47800
Cd	Cd	0.18922 0.64258 0.69696 1.12400
Cd	Cd	0.26324 0.61453 0.69029 1.12300
Cd	Cd	0.26130 0.58592 0.79532 1.12500
Cd	Cd	0.21701 0.72175 0.69976 1.14200
Cd	Cd	0.15243 0.59278 0.58272 1.14300
Cd	Cd	0.29518 0.66263 0.80206 1.12400
Cd	Cd	0.37071 0.63037 0.79393 1.14000
Cd	Cd	0.37244 0.60695 0.90095 1.14200
Cd	Cd	0.15683 0.56104 0.68650 1.14300
Cd	Cd	0.22722 0.53689 0.67492 1.14100
Cd	Cd	0.10907 0.69468 0.58261 1.14900
Cd	Cd	0.32306 0.74291 0.81326 1.14800
Cd	Cd	0.19570 0.67442 0.59531 1.14100
Cd	Cd	0.33841 0.55647 0.79400 1.14300
Cd	Cd	0.08066 0.61954 0.60263 1.15200
Cd	Cd	0.29106 0.63281 0.90841 1.14000
Cd	Cd	0.33802 0.70586 0.92800 1.14800
Cd	Cd	0.01677 0.68615 0.56583 1.16000
Cd	Cd	0.29388 0.69675 0.69750 1.13900
Cd	Cd	0.40616 0.68374 0.90328 1.14900
Cd	Cd	0.28265 0.64321 0.60355 1.15400
Cd	Cd	0.28721 0.52323 0.43046 1.15900
Cd	Cd	0.22523 0.69096 0.81837 1.14000
Cd	Cd	0.23729 0.50360 0.78728 1.15000
Cd	Cd	0.22373 0.57006 0.56557 1.14900
Cd	Cd	0.18391 0.61778 0.79989 1.14400
Cd	Cd	0.25019 0.55636 0.89279 1.15000
Cd	Cd	0.11754 0.68273 0.70295 1.14800
Cd	Cd	0.33722 0.53178 0.90551 1.15000
Cd	Cd	0.29345 0.57414 0.54210 1.16200
Cd	Cd	0.41441 0.75986 0.95899 1.15900
Cd	Cd	0.33568 0.57389 0.68333 1.15200
C 	C 	0.29990 0.62280 0.02500 -0.04400
C 	C 	0.46700 0.52250 0.85300 -0.00100
C 	C 	0.95920 0.62460 0.45690 -0.04400
C 	C 	0.03590 0.55090 0.44200 0.03500
C 	C 	0.38480 0.52510 0.48230 0.02200
C 	C 	0.47940 0.63180 0.80140 0.02900
C 	C 	0.99360 0.58300 0.40400 0.01600
C 	C 	0.41490 0.59260 0.71700 -0.08300
C 	C 	0.25030 0.78870 0.92760 -0.00900
C 	C 	0.43910 0.63010 0.77880 -0.10000
C 	C 	0.48910 0.61190 0.79220 -0.01000
C 	C 	0.28860 0.77850 0.97220 0.01900
C 	C 	0.83420 0.01690 0.62310 0.03900
C 	C 	0.80630 0.00240 0.58050 -0.09300
C 	C 	0.80330 0.97430 0.58310 0.02500
C 	C 	0.82820 0.96080 0.62840 -0.01400
C 	C 	0.85610 0.97540 0.67100 0.01900
C 	C 	0.85910 0.00340 0.66840 -0.03400
C 	C 	0.55600 0.05630 0.60250 0.12500
C 	C 	0.52690 0.04670 0.59810 -0.05100
C 	C 	0.49960 0.03060 0.55760 0.02000
C 	C 	0.50130 0.02410 0.52140 -0.02400
C 	C 	0.53040 0.03370 0.52580 0.03200
C 	C 	0.55770 0.04980 0.56630 -0.13100
C 	C 	0.59250 0.13630 0.75220 0.10700
C 	C 	0.55630 0.14560 0.71860 -0.08200
C 	C 	0.53560 0.14710 0.73270 0.02600
C 	C 	0.55120 0.13930 0.78040 -0.02200
C 	C 	0.58730 0.13000 0.81400 0.03000
C 	C 	0.60800 0.12850 0.79990 -0.08600
C 	C 	0.63460 0.06331 0.47580 0.06600
C 	C 	0.61690 0.06750 0.42610 -0.02700
C 	C 	0.59330 0.04770 0.39080 0.01500
C 	C 	0.58730 0.02366 0.40530 -0.01600
C 	C 	0.60490 0.01947 0.45500 0.02900
C 	C 	0.62860 0.03930 0.49030 -0.11100
C 	C 	0.91590 0.22760 0.04290 0.04400
C 	C 	0.92840 0.23990 0.08670 -0.02600
C 	C 	0.95680 0.22790 0.13240 0.01200
C 	C 	0.97260 0.20360 0.13430 -0.01600
C 	C 	0.96010 0.19130 0.09050 0.03700
C 	C 	0.93170 0.20330 0.04480 -0.12000
C 	C 	0.71330 0.96720 0.69060 0.05900
C 	C 	0.72490 0.94100 0.69160 -0.02600
C 	C 	0.69910 0.92100 0.65980 0.01300
C 	C 	0.66170 0.92720 0.62700 -0.01800
C 	C 	0.65010 0.95340 0.62600 0.02800
C 	C 	0.67590 0.97340 0.65780 -0.11600
C 	C 	0.84340 0.07800 0.51350 0.05400
C 	C 	0.87330 0.06180 0.55030 -0.08000
C 	C 	0.90900 0.07170 0.57770 0.02300
C 	C 	0.91470 0.09760 0.56820 -0.01700
C 	C 	0.88480 0.11380 0.53130 0.01200
C 	C 	0.84910 0.10390 0.50400 -0.03500
C 	C 	0.64000 0.99600 0.70610 0.07000
C 	C 	0.64390 0.97150 0.72880 -0.05600
C 	C 	0.61560 0.95230 0.70290 0.02100
C 	C 	0.58350 0.95770 0.65430 -0.01900
C 	C 	0.57960 0.98220 0.63160 0.02900
C 	C 	0.60790 0.00130 0.65750 -0.08700
C 	C 	0.86400 0.98850 0.84470 0.09000
C 	C 	0.89480 0.98080 0.89280 -0.07700
C 	C 	0.91780 0.96020 0.90020 0.02200
C 	C 	0.90990 0.94730 0.85960 -0.01600
C 	C 	0.87910 0.95500 0.81150 0.02300
C 	C 	0.85610 0.97560 0.80400 -0.04900
C 	C 	0.65540 0.21600 0.81020 0.05100
C 	C 	0.65420 0.19280 0.83140 -0.12300
C 	C 	0.64570 0.19510 0.86150 0.02900
C 	C 	0.63850 0.22060 0.87040 -0.01800
C 	C 	0.63960 0.24390 0.84910 0.01000
C 	C 	0.64810 0.24160 0.81900 -0.02100
C 	C 	0.55800 0.09080 0.49090 0.08800
C 	C 	0.52570 0.10190 0.45500 -0.04900
C 	C 	0.50890 0.06190 0.40750 -0.02200
C 	C 	0.56380 0.06870 0.47650 -0.09500
C 	C 	0.73230 0.99870 0.59400 0.08300
C 	C 	0.70160 0.99290 0.54470 -0.08700
C 	C 	0.69290 0.96590 0.52840 0.02600
C 	C 	0.71490 0.94480 0.56150 -0.01800
C 	C 	0.74550 0.95060 0.61080 0.01800
C 	C 	0.75420 0.97760 0.62700 -0.04300
C 	C 	0.90090 0.03320 0.78800 0.03000
C 	C 	0.92430 0.05820 0.80350 -0.09800
C 	C 	0.96630 0.04970 0.85070 0.01200
C 	C 	0.92550 0.01370 0.83200 -0.02600
C 	C 	0.83160 0.18230 0.00840 -0.02500
C 	C 	0.79490 0.18450 0.99510 -0.05700
C 	C 	0.79880 0.20580 0.02900 0.00200
C 	C 	0.84140 0.19980 0.07760 -0.00100
C 	C 	0.86480 0.18590 0.06100 0.00400
C 	C 	0.92390 0.05260 0.98390 0.04000
C 	C 	0.94810 0.05020 0.03730 -0.01500
C 	C 	0.98450 0.03650 0.05880 0.00600
C 	C 	0.99020 0.02880 0.02710 -0.01200
C 	C 	0.96880 0.03140 0.97750 0.01700
C 	C 	0.93050 0.04330 0.95520 -0.11200
C 	C 	0.43380 0.18930 0.54240 0.05600
C 	C 	0.45730 0.19170 0.59490 -0.06900
C 	C 	0.44470 0.18360 0.61820 0.02100
C 	C 	0.40730 0.17500 0.59200 -0.01200
C 	C 	0.37890 0.17600 0.53560 0.01200
C 	C 	0.39600 0.18320 0.51350 -0.04100
C 	C 	0.84110 0.25970 0.73520 0.07400
C 	C 	0.75530 0.33840 0.73060 0.00800
C 	C 	0.80030 0.14320 0.52430 0.10800
C 	C 	0.75920 0.33530 0.69540 -0.01400
C 	C 	0.62090 0.31590 0.57240 -0.02000
C 	C 	0.02650 0.16780 0.92770 0.00900
C 	C 	0.63890 0.00830 0.36040 -0.01300
C 	C 	0.63430 0.23750 0.52670 -0.11300
C 	C 	0.62600 0.26180 0.49930 0.02900
C 	C 	0.77690 0.08050 0.00630 -0.07300
C 	C 	0.75390 0.31300 0.75490 -0.01700
C 	C 	0.76410 0.31090 0.68350 0.02600
C 	C 	0.84440 0.35300 0.89240 0.01100
C 	C 	0.72850 0.18480 0.49370 -0.07100
C 	C 	0.68660 0.99910 0.35860 -0.10600
C 	C 	0.03830 0.11690 0.04900 -0.01200
C 	C 	0.96850 0.10640 0.99270 -0.07700
C 	C 	0.66530 0.00460 0.41250 0.01300
C 	C 	0.59370 0.29860 0.56100 0.02600
C 	C 	0.69560 0.10600 0.45560 -0.11600
C 	C 	0.46590 0.16740 0.37480 -0.01800
C 	C 	0.67410 0.12290 0.41310 0.03400
C 	C 	0.00930 0.09540 0.02070 0.01500
C 	C 	0.84850 0.30520 0.88070 0.04800
C 	C 	0.60230 0.27380 0.58380 -0.07100
C 	C 	0.71320 0.23110 0.46610 -0.01600
C 	C 	0.00740 0.12220 0.93540 0.02200
C 	C 	0.82070 0.10360 0.35520 -0.01400
C 	C 	0.99440 0.24910 0.88650 -0.01100
C 	C 	0.82100 0.29820 0.88180 -0.09500
C 	C 	0.81920 0.18340 0.49910 0.00900
C 	C 	0.61580 0.21410 0.49960 0.05400
C 	C 	0.82170 0.07620 0.33860 0.02400
C 	C 	0.68540 0.11760 0.93670 0.02400
C 	C 	0.64840 0.00640 0.33220 0.03100
C 	C 	0.67190 0.08620 0.36540 0.01000
C 	C 	0.66640 0.28050 0.63040 -0.08800
C 	C 	0.82030 0.28580 0.66190 0.02600
C 	C 	0.79010 0.17530 0.44700 -0.01400
C 	C 	0.58350 0.23790 0.42280 0.01200
C 	C 	0.72850 0.20660 0.46890 0.02300
C 	C 	0.98850 0.17690 0.89670 -0.02400
C 	C 	0.69400 0.10860 0.90820 -0.10300
C 	C 	0.60110 0.26120 0.44810 -0.01600
C 	C 	0.81980 0.26190 0.68330 -0.07800
C 	C 	0.66330 0.09830 0.93960 -0.01300
C 	C 	0.76290 0.28660 0.70480 -0.11200
C 	C 	0.01860 0.24330 0.93890 0.00900
C 	C 	0.76540 0.15340 0.43180 0.02400
C 	C 	0.71070 0.99470 0.41030 0.05100
C 	C 	0.81540 0.34640 0.89100 -0.01400
C 	C 	0.86260 0.30660 0.74310 0.01800
C 	C 	0.03390 0.14200 0.94880 -0.01400
C 	C 	0.45170 0.18310 0.39050 0.02400
C 	C 	0.70010 0.99710 0.43710 -0.03000
C 	C 	0.68010 0.08510 0.88230 0.04900
C 	C 	0.91520 0.11730 0.74810 0.11900
C 	C 	0.69950 0.21230 0.51570 -0.08500
C 	C 	0.02880 0.14470 0.05080 0.02000
C 	C 	0.86360 0.28190 0.76650 -0.05000
C 	C 	0.96070 0.15810 0.88420 0.05200
C 	C 	0.96360 0.13510 0.99720 0.07400
C 	C 	0.00500 0.23520 0.96000 -0.02600
C 	C 	0.84050 0.30830 0.69140 -0.01600
C 	C 	0.47500 0.19520 0.43700 -0.09300
C 	C 	0.96670 0.23290 0.93170 0.05200
C 	C 	0.59040 0.21330 0.44830 -0.02000
C 	C 	0.71420 0.18790 0.51780 0.07100
C 	C 	0.80200 0.10930 0.37080 0.01400
C 	C 	0.70410 0.07920 0.45280 0.05900
C 	C 	0.51280 0.19070 0.46910 0.06600
C 	C 	0.99010 0.15270 0.01910 -0.06900
C 	C 	0.75940 0.28840 0.73960 0.04800
C 	C 	0.69780 0.23440 0.48910 0.02800
C 	C 	0.94270 0.23930 0.88190 -0.10700
C 	C 	0.63720 0.26450 0.61790 0.08800
C 	C 	0.86000 0.33120 0.88510 -0.02500
C 	C 	0.95580 0.24760 0.85830 0.03600
C 	C 	0.82730 0.16470 0.54250 -0.04200
C 	C 	0.79750 0.05570 0.33470 -0.10200
C 	C 	0.48460 0.11940 0.51500 0.02300
C 	C 	0.64750 0.07500 0.91340 0.00700
C 	C 	0.69350 0.06840 0.40960 -0.05200
C 	C 	0.80550 0.32000 0.88970 0.02900
C 	C 	0.65710 0.30620 0.60560 0.02800
C 	C 	0.66270 0.11290 0.36700 -0.01600
C 	C 	0.77270 0.13780 0.47150 -0.08600
C 	C 	0.96920 0.13150 0.90210 -0.09800
C 	C 	0.77710 0.06140 0.34500 0.05900
C 	C 	0.77870 0.08710 0.36590 -0.04400
C 	C 	0.50470 0.16340 0.40690 0.03000
C 	C 	0.65560 0.06720 0.88190 -0.01700
C 	C 	0.52820 0.17530 0.45430 -0.08200
C 	C 	0.76900 0.24610 0.90860 0.06200
C 	C 	0.58150 0.28300 0.69160 0.01600
C 	C 	0.79200 0.25610 0.95120 -0.07300
C 	C 	0.57970 0.25400 0.69440 -0.04000
C 	C 	0.53300 0.28350 0.59960 0.01800
C 	C 	0.55920 0.29800 0.64360 -0.01100
C 	C 	0.53230 0.25280 0.60270 -0.10900
C 	C 	0.91940 0.21820 0.71170 -0.01200
C 	C 	0.89170 0.22370 0.66220 0.01200
C 	C 	0.85380 0.21450 0.63470 -0.02500
C 	C 	0.91490 0.20380 0.74260 0.03100
C 	C 	0.87670 0.19480 0.71480 -0.10100
C 	C 	0.55660 0.24030 0.64820 0.05600
C 	C 	0.84820 0.19970 0.66540 0.08100
C 	C 	0.79860 0.09800 0.99730 0.06000
C 	C 	0.77320 0.09050 0.03990 0.01800
S 	S 	0.84175 0.19872 0.86162 -1.10000
S 	S 	0.69799 0.13117 0.63675 -1.14300
S 	S 	0.73103 0.18091 0.75433 -1.15600
S 	S 	0.69554 0.10120 0.74393 -1.14200
S 	S 	0.80752 0.15255 0.74546 -1.15200
S 	S 	0.77246 0.07268 0.73826 -1.16000
S 	S 	0.80655 0.12231 0.85456 -1.15500
S 	S 	0.95119 0.22168 0.96230 -0.51200
S 	S 	0.76993 0.04461 0.84472 -1.08900
S 	S 	0.62396 0.15998 0.64571 -1.09000
S 	S 	0.84285 0.22994 0.76480 -0.54800
S 	S 	0.58926 0.11395 0.53951 -0.56700
S 	S 	0.73052 0.21566 0.64489 -0.84500
S 	S 	0.77577 0.10005 0.63473 -1.08700
S 	S 	0.66051 0.08965 0.51850 -0.52700
S 	S 	0.71347 0.15813 0.54567 -0.53400
S 	S 	0.86978 0.27983 0.87147 -0.49400
S 	S 	0.54096 0.20687 0.52794 -0.52600
S 	S 	0.75841 0.25849 0.76761 -0.52400
S 	S 	0.67342 0.02214 0.74597 -0.55300
S 	S 	0.64808 0.23228 0.64875 -0.57300
S 	S 	0.66120 0.04869 0.62324 -0.85200
S 	S 	0.62554 0.18210 0.53124 -0.51800
S 	S 	0.91458 0.17079 0.84350 -0.52500
S 	S 	0.73046 0.05711 0.50346 -0.51900
S 	S 	0.72897 0.15166 0.86479 -0.86200
S 	S 	0.91543 0.14604 0.95925 -0.54700
S 	S 	0.88031 0.24431 0.98590 -0.50400
S 	S 	0.80251 0.19134 0.63453 -0.52500
S 	S 	0.88590 0.09136 0.84881 -0.86000
S 	S 	0.66376 0.21644 0.76926 -0.52600
S 	S 	0.55378 0.20404 0.65359 -0.50100
S 	S 	0.75772 0.98524 0.44194 -0.51400
S 	S 	0.77471 0.22762 0.87162 -0.57600
S 	S 	0.68530 0.07377 0.83914 -0.52800
S 	S 	0.85029 0.03569 0.74066 -0.51300
S 	S 	0.74640 0.99320 0.72710 -0.52300
S 	S 	0.74709 0.03768 0.33912 -0.49900
S 	S 	0.74814 0.03015 0.62563 -0.59100
S 	S 	0.84611 0.16346 0.97392 -0.51700
S 	S 	0.61718 0.13535 0.73286 -0.58900
S 	S 	0.86899 0.11942 0.72145 -0.59900
S 	S 	0.88114 0.06991 0.95862 -0.52800
S 	S 	0.80797 0.12375 0.56652 -0.55500
S 	S 	0.84819 0.00416 0.46445 -0.53100
S 	S 	0.51972 0.13475 0.57344 -0.51600
S 	S 	0.83539 0.01590 0.83646 -0.59600
S 	S 	0.80268 0.08850 0.95546 -0.56500
S 	S 	0.84440 0.05345 0.62659 -0.49400
S 	S 	0.59156 0.07545 0.64500 -0.55000
S 	S 	0.44855 0.19692 0.50987 -0.46700
S 	S 	0.79984 0.06660 0.47808 -0.47800
Cd	Cd	0.68922 0.14258 0.69696 1.12400
Cd	Cd	0.76324 0.11453 0.69029 1.12300
Cd	Cd	0.76130 0.08592 0.79532 1.12500
Cd	Cd	0.71701 0.22175 0.69976 1.14200
Cd	Cd	0.65243 0.09278 0.58272 1.14300
Cd	Cd	0.79518 0.16263 0.80206 1.12400
Cd	Cd	0.87071 0.13037 0.79393 1.14000
Cd	Cd	0.87244 0.10695 0.90095 1.14200
Cd	Cd	0.65683 0.06104 0.68650 1.14300
Cd	Cd	0.72722 0.03689 0.67492 1.14100
Cd	Cd	0.60907 0.19468 0.58261 1.14900
Cd	Cd	0.82306 0.24291 0.81326 1.14800
Cd	Cd	0.69570 0.17442 0.59531 1.14100
Cd	Cd	0.83841 0.05647 0.79400 1.14300
Cd	Cd	0.58066 0.11954 0.60263 1.15200
Cd	Cd	0.79106 0.13281 0.90841 1.14000
Cd	Cd	0.83802 0.20586 0.92800 1.14800
Cd	Cd	0.51677 0.18615 0.56583 1.16000
Cd	Cd	0.79388 0.19675 0.69750 1.13900
Cd	Cd	0.90616 0.18374 0.90328 1.14900
Cd	Cd	0.78265 0.14321 0.60355 1.15400
Cd	Cd	0.78721 0.02323 0.43046 1.15900
Cd	Cd	0.72523 0.19096 0.81837 1.14000
Cd	Cd	0.73729 0.00360 0.78728 1.15000
Cd	Cd	0.72373 0.07006 0.56557 1.14900
Cd	Cd	0.68391 0.11778 0.79989 1.14400
Cd	Cd	0.75019 0.05636 0.89279 1.15000
Cd	Cd	0.61754 0.18273 0.70295 1.14800
Cd	Cd	0.83722 0.03178 0.90551 1.15000
Cd	Cd	0.79345 0.07414 0.54210 1.16200
Cd	Cd	0.91441 0.25986 0.95899 1.15900
Cd	Cd	0.83568 0.07389 0.68333 1.15200
C 	C 	0.79990 0.12280 0.02500 -0.04400
C 	C 	0.96700 0.02250 0.85300 -0.00100
C 	C 	0.45920 0.12460 0.45690 -0.04300
C 	C 	0.53590 0.05090 0.44200 0.03500
C 	C 	0.88480 0.02510 0.48230 0.02200
C 	C 	0.97940 0.13180 0.80140 0.02900
C 	C 	0.49360 0.08300 0.40400 0.01700
C 	C 	0.91490 0.09260 0.71700 -0.08300
C 	C 	0.75030 0.28870 0.92760 -0.00900
C 	C 	0.93910 0.13010 0.77880 -0.10000
C 	C 	0.98910 0.11190 0.79220 -0.01000
C 	C 	0.78860 0.27850 0.97220 0.01900
C 	C 	0.33420 0.48310 0.12310 0.03900
C 	C 	0.30630 0.49760 0.08050 -0.09300
C 	C 	0.30330 0.52570 0.08310 0.02500
C 	C 	0.32820 0.53920 0.12840 -0.01400
C 	C 	0.35610 0.52460 0.17100 0.01900
C 	C 	0.35910 0.49660 0.16840 -0.03400
C 	C 	0.05600 0.44370 0.10250 0.12500
C 	C 	0.02690 0.45330 0.09810 -0.05100
C 	C 	0.99960 0.46940 0.05760 0.01900
C 	C 	0.00130 0.47590 0.02140 -0.02400
C 	C 	0.03040 0.46630 0.02580 0.03200
C 	C 	0.05770 0.45020 0.06630 -0.13100
C 	C 	0.09250 0.36370 0.25220 0.10700
C 	C 	0.05630 0.35440 0.21860 -0.08200
C 	C 	0.03560 0.35290 0.23270 0.02600
C 	C 	0.05120 0.36070 0.28040 -0.02200
C 	C 	0.08730 0.37000 0.31400 0.03000
C 	C 	0.10800 0.37150 0.29990 -0.08600
C 	C 	0.13460 0.43669 0.97580 0.06600
C 	C 	0.11690 0.43250 0.92610 -0.02700
C 	C 	0.09330 0.45230 0.89080 0.01500
C 	C 	0.08730 0.47634 0.90530 -0.01600
C 	C 	0.10490 0.48053 0.95500 0.02900
C 	C 	0.12860 0.46070 0.99030 -0.11100
C 	C 	0.41590 0.27240 0.54290 0.04400
C 	C 	0.42840 0.26010 0.58670 -0.02600
C 	C 	0.45680 0.27210 0.63240 0.01200
C 	C 	0.47260 0.29640 0.63430 -0.01600
C 	C 	0.46010 0.30870 0.59050 0.03700
C 	C 	0.43170 0.29670 0.54480 -0.11900
C 	C 	0.21330 0.53280 0.19060 0.05900
C 	C 	0.22490 0.55900 0.19160 -0.02600
C 	C 	0.19910 0.57900 0.15980 0.01200
C 	C 	0.16170 0.57280 0.12700 -0.01800
C 	C 	0.15010 0.54660 0.12600 0.02800
C 	C 	0.17590 0.52660 0.15780 -0.11600
C 	C 	0.34340 0.42200 0.01350 0.05400
C 	C 	0.37330 0.43820 0.05030 -0.08100
C 	C 	0.40900 0.42830 0.07770 0.02300
C 	C 	0.41470 0.40240 0.06820 -0.01700
C 	C 	0.38480 0.38620 0.03130 0.01200
C 	C 	0.34910 0.39610 0.00400 -0.03600
C 	C 	0.14000 0.50400 0.20610 0.07000
C 	C 	0.14390 0.52850 0.22880 -0.05600
C 	C 	0.11560 0.54770 0.20290 0.02100
C 	C 	0.08350 0.54230 0.15430 -0.01900
C 	C 	0.07960 0.51780 0.13160 0.02900
C 	C 	0.10790 0.49870 0.15750 -0.08700
C 	C 	0.36400 0.51150 0.34470 0.09000
C 	C 	0.39480 0.51920 0.39280 -0.07700
C 	C 	0.41780 0.53980 0.40020 0.02200
C 	C 	0.40990 0.55270 0.35960 -0.01600
C 	C 	0.37910 0.54500 0.31150 0.02300
C 	C 	0.35610 0.52440 0.30400 -0.04900
C 	C 	0.15540 0.28400 0.31020 0.05100
C 	C 	0.15420 0.30720 0.33140 -0.12300
C 	C 	0.14570 0.30490 0.36150 0.03000
C 	C 	0.13850 0.27940 0.37040 -0.01800
C 	C 	0.13960 0.25610 0.34910 0.01000
C 	C 	0.14810 0.25840 0.31900 -0.02100
C 	C 	0.05800 0.40920 0.99090 0.08800
C 	C 	0.02570 0.39810 0.95500 -0.04900
C 	C 	0.00890 0.43810 0.90750 -0.02200
C 	C 	0.06380 0.43130 0.97650 -0.09500
C 	C 	0.23230 0.50130 0.09400 0.08300
C 	C 	0.20160 0.50710 0.04470 -0.08800
C 	C 	0.19290 0.53410 0.02840 0.02600
C 	C 	0.21490 0.55520 0.06150 -0.01800
C 	C 	0.24550 0.54940 0.11080 0.01800
C 	C 	0.25420 0.52240 0.12700 -0.04300
C 	C 	0.40090 0.46680 0.28800 0.03000
C 	C 	0.42430 0.44180 0.30350 -0.09800
C 	C 	0.46630 0.45030 0.35070 0.01200
C 	C 	0.42550 0.48630 0.33200 -0.02600
C 	C 	0.33160 0.31770 0.50840 -0.02500
C 	C 	0.29490 0.31550 0.49510 -0.05700
C 	C 	0.29880 0.29420 0.52900 0.00300
C 	C 	0.34140 0.30020 0.57760 -0.00100
C 	C 	0.36480 0.31410 0.56100 0.00400
C 	C 	0.42390 0.44740 0.48390 0.04000
C 	C 	0.44810 0.44980 0.53730 -0.01500
C 	C 	0.48450 0.46350 0.55880 0.00600
C 	C 	0.49020 0.47120 0.52710 -0.01200
C 	C 	0.46880 0.46860 0.47750 0.01700
C 	C 	0.43050 0.45670 0.45520 -0.11200
C 	C 	0.93380 0.31070 0.04240 0.05600
C 	C 	0.95730 0.30830 0.09490 -0.06900
C 	C 	0.94470 0.31640 0.11820 0.02100
C 	C 	0.90730 0.32500 0.09200 -0.01200
C 	C 	0.87890 0.32400 0.03560 0.01200
C 	C 	0.89600 0.31680 0.01350 -0.04100
C 	C 	0.34110 0.24030 0.23520 0.07400
C 	C 	0.25530 0.16160 0.23060 0.00800
C 	C 	0.30030 0.35680 0.02430 0.10700
C 	C 	0.25920 0.16470 0.19540 -0.01400
C 	C 	0.12090 0.18410 0.07240 -0.02000
C 	C 	0.52650 0.33220 0.42770 0.01000
C 	C 	0.13890 0.49170 0.86040 -0.01300
C 	C 	0.13430 0.26250 0.02670 -0.11300
C 	C 	0.12600 0.23820 0.99930 0.02800
C 	C 	0.27690 0.41950 0.50630 -0.07300
C 	C 	0.25390 0.18700 0.25490 -0.01700
C 	C 	0.26410 0.18910 0.18350 0.02600
C 	C 	0.34440 0.14700 0.39240 0.01100
C 	C 	0.22850 0.31520 0.99370 -0.07100
C 	C 	0.18660 0.50090 0.85860 -0.10600
C 	C 	0.53830 0.38310 0.54900 -0.01200
C 	C 	0.46850 0.39360 0.49270 -0.07700
C 	C 	0.16530 0.49540 0.91250 0.01300
C 	C 	0.09370 0.20140 0.06100 0.02600
C 	C 	0.19560 0.39400 0.95560 -0.11600
C 	C 	0.96590 0.33260 0.87480 -0.01800
C 	C 	0.17410 0.37710 0.91310 0.03400
C 	C 	0.50930 0.40460 0.52070 0.01500
C 	C 	0.34850 0.19480 0.38070 0.04800
C 	C 	0.10230 0.22620 0.08380 -0.07100
C 	C 	0.21320 0.26890 0.96610 -0.01600
C 	C 	0.50740 0.37780 0.43540 0.02200
C 	C 	0.32070 0.39640 0.85520 -0.01400
C 	C 	0.49440 0.25090 0.38650 -0.01100
C 	C 	0.32100 0.20180 0.38180 -0.09500
C 	C 	0.31920 0.31660 0.99910 0.00900
C 	C 	0.11580 0.28590 0.99960 0.05300
C 	C 	0.32170 0.42380 0.83860 0.02400
C 	C 	0.18540 0.38240 0.43670 0.02500
C 	C 	0.14840 0.49360 0.83220 0.03100
C 	C 	0.17190 0.41380 0.86540 0.01000
C 	C 	0.16640 0.21950 0.13040 -0.08800
C 	C 	0.32030 0.21420 0.16190 0.02600
C 	C 	0.29010 0.32470 0.94700 -0.01400
C 	C 	0.08350 0.26210 0.92280 0.01200
C 	C 	0.22850 0.29340 0.96890 0.02300
C 	C 	0.48850 0.32310 0.39670 -0.02400
C 	C 	0.19400 0.39140 0.40820 -0.10300
C 	C 	0.10110 0.23880 0.94810 -0.01600
C 	C 	0.31980 0.23810 0.18330 -0.07800
C 	C 	0.16330 0.40170 0.43960 -0.01300
C 	C 	0.26290 0.21340 0.20480 -0.11200
C 	C 	0.51860 0.25670 0.43890 0.00900
C 	C 	0.26540 0.34660 0.93180 0.02400
C 	C 	0.21070 0.50530 0.91030 0.05100
C 	C 	0.31540 0.15360 0.39100 -0.01400
C 	C 	0.36260 0.19340 0.24310 0.01800
C 	C 	0.53390 0.35800 0.44880 -0.01400
C 	C 	0.95170 0.31690 0.89050 0.02400
C 	C 	0.20010 0.50290 0.93710 -0.03000
C 	C 	0.18010 0.41490 0.38230 0.04900
C 	C 	0.41520 0.38270 0.24810 0.11900
C 	C 	0.19950 0.28770 0.01570 -0.08600
C 	C 	0.52880 0.35530 0.55080 0.02000
C 	C 	0.36360 0.21810 0.26650 -0.05000
C 	C 	0.46070 0.34190 0.38420 0.05200
C 	C 	0.46360 0.36490 0.49720 0.07400
C 	C 	0.50500 0.26480 0.46000 -0.02500
C 	C 	0.34050 0.19170 0.19140 -0.01600
C 	C 	0.97500 0.30480 0.93700 -0.09200
C 	C 	0.46670 0.26710 0.43170 0.05200
C 	C 	0.09040 0.28670 0.94830 -0.02000
C 	C 	0.21420 0.31210 0.01780 0.07100
C 	C 	0.30200 0.39070 0.87080 0.01400
C 	C 	0.20410 0.42080 0.95280 0.05900
C 	C 	0.01280 0.30930 0.96910 0.06500
C 	C 	0.49010 0.34730 0.51910 -0.06900
C 	C 	0.25940 0.21160 0.23960 0.04800
C 	C 	0.19780 0.26560 0.98910 0.02800
C 	C 	0.44270 0.26070 0.38190 -0.10700
C 	C 	0.13720 0.23550 0.11790 0.08800
C 	C 	0.36000 0.16880 0.38510 -0.02500
C 	C 	0.45580 0.25240 0.35830 0.03600
C 	C 	0.32730 0.33530 0.04250 -0.04200
C 	C 	0.29750 0.44430 0.83470 -0.10200
C 	C 	0.98460 0.38060 0.01500 0.02200
C 	C 	0.14750 0.42500 0.41340 0.00700
C 	C 	0.19350 0.43160 0.90960 -0.05200
C 	C 	0.30550 0.18000 0.38970 0.02900
C 	C 	0.15710 0.19380 0.10560 0.02800
C 	C 	0.16270 0.38710 0.86700 -0.01600
C 	C 	0.27270 0.36220 0.97150 -0.08600
C 	C 	0.46920 0.36850 0.40210 -0.09800
C 	C 	0.27710 0.43860 0.84500 0.05900
C 	C 	0.27870 0.41290 0.86590 -0.04400
C 	C 	0.00470 0.33660 0.90690 0.03000
C 	C 	0.15560 0.43280 0.38190 -0.01700
C 	C 	0.02820 0.32470 0.95430 -0.08200
C 	C 	0.26900 0.25390 0.40860 0.06200
C 	C 	0.08150 0.21700 0.19160 0.01600
C 	C 	0.29200 0.24390 0.45120 -0.07300
C 	C 	0.07970 0.24600 0.19440 -0.04000
C 	C 	0.03300 0.21650 0.09960 0.01800
C 	C 	0.05920 0.20200 0.14360 -0.01100
C 	C 	0.03230 0.24720 0.10270 -0.11000
C 	C 	0.41940 0.28180 0.21170 -0.01200
C 	C 	0.39170 0.27630 0.16220 0.01200
C 	C 	0.35380 0.28550 0.13470 -0.02500
C 	C 	0.41490 0.29620 0.24260 0.03100
C 	C 	0.37670 0.30520 0.21480 -0.10100
C 	C 	0.05660 0.25970 0.14820 0.05600
C 	C 	0.34820 0.30030 0.16540 0.08100
C 	C 	0.29860 0.40200 0.49730 0.06000
C 	C 	0.27320 0.40950 0.53990 0.01800
S 	S 	0.34175 0.30128 0.36162 -1.10000
S 	S 	0.19799 0.36883 0.13675 -1.14300
S 	S 	0.23103 0.31909 0.25433 -1.15600
S 	S 	0.19554 0.39880 0.24393 -1.14200
S 	S 	0.30752 0.34745 0.24546 -1.15200
S 	S 	0.27246 0.42732 0.23826 -1.16000
S 	S 	0.30655 0.37769 0.35456 -1.15500
S 	S 	0.45119 0.27832 0.46230 -0.51100
S 	S 	0.26993 0.45539 0.34472 -1.08900
S 	S 	0.12396 0.34002 0.14571 -1.09000
S 	S 	0.34285 0.27006 0.26480 -0.54800
S 	S 	0.08926 0.38605 0.03951 -0.56800
S 	S 	0.23052 0.28434 0.14489 -0.84500
S 	S 	0.27577 0.39995 0.13473 -1.08700
S 	S 	0.16051 0.41035 0.01850 -0.52800
S 	S 	0.21347 0.34187 0.04567 -0.53400
S 	S 	0.36978 0.22017 0.37147 -0.49400
S 	S 	0.04096 0.29313 0.02794 -0.52600
S 	S 	0.25841 0.24151 0.26761 -0.52400
S 	S 	0.17342 0.47786 0.24597 -0.55300
S 	S 	0.14808 0.26772 0.14875 -0.57300
S 	S 	0.16120 0.45131 0.12324 -0.85200
S 	S 	0.12554 0.31790 0.03124 -0.51800
S 	S 	0.41458 0.32921 0.34350 -0.52500
S 	S 	0.23046 0.44289 0.00346 -0.52000
S 	S 	0.22897 0.34834 0.36479 -0.86200
S 	S 	0.41543 0.35396 0.45925 -0.54700
S 	S 	0.38031 0.25569 0.48590 -0.50400
S 	S 	0.30251 0.30866 0.13453 -0.52500
S 	S 	0.38590 0.40864 0.34881 -0.86000
S 	S 	0.16376 0.28356 0.26926 -0.52600
S 	S 	0.05378 0.29596 0.15359 -0.50100
S 	S 	0.25772 0.51476 0.94194 -0.51400
S 	S 	0.27471 0.27238 0.37162 -0.57600
S 	S 	0.18530 0.42623 0.33914 -0.52800
S 	S 	0.35029 0.46431 0.24066 -0.51300
S 	S 	0.24640 0.50680 0.22710 -0.52300
S 	S 	0.24709 0.46232 0.83912 -0.49900
S 	S 	0.24814 0.46985 0.12563 -0.59100
S 	S 	0.34611 0.33654 0.47392 -0.51700
S 	S 	0.11718 0.36465 0.23286 -0.58900
S 	S 	0.36899 0.38058 0.22145 -0.59900
S 	S 	0.38114 0.43009 0.45862 -0.52800
S 	S 	0.30797 0.37625 0.06652 -0.55500
S 	S 	0.34819 0.49584 0.96445 -0.53100
S 	S 	0.01972 0.36525 0.07344 -0.51600
S 	S 	0.33539 0.48410 0.33646 -0.59500
S 	S 	0.30268 0.41150 0.45546 -0.56500
S 	S 	0.34440 0.44655 0.12659 -0.49400
S 	S 	0.09156 0.42455 0.14500 -0.55000
S 	S 	0.94855 0.30308 0.00987 -0.46700
S 	S 	0.29984 0.43340 0.97808 -0.47800
Cd	Cd	0.18922 0.35742 0.19696 1.12400
Cd	Cd	0.26324 0.38547 0.19029 1.12300
Cd	Cd	0.26130 0.41408 0.29532 1.12500
Cd	Cd	0.21701 0.27825 0.19976 1.14200
Cd	Cd	0.15243 0.40722 0.08272 1.14300
Cd	Cd	0.29518 0.33737 0.30206 1.12400
Cd	Cd	0.37071 0.36963 0.29393 1.14000
Cd	Cd	0.37244 0.39305 0.40095 1.14200
Cd	Cd	0.15683 0.43896 0.18650 1.14300
Cd	Cd	0.22722 0.46311 0.17492 1.14100
Cd	Cd	0.10907 0.30532 0.08261 1.14900
Cd	Cd	0.32306 0.25709 0.31326 1.14800
Cd	Cd	0.19570 0.32558 0.09531 1.14100
Cd	Cd	0.33841 0.44352 0.29400 1.14300
Cd	Cd	0.08066 0.38046 0.10263 1.15200
Cd	Cd	0.29106 0.36719 0.40841 1.14000
Cd	Cd	0.33802 0.29414 0.42800 1.14800
Cd	Cd	0.01677 0.31385 0.06583 1.16000
Cd	Cd	0.29388 0.30325 0.19750 1.13900
Cd	Cd	0.40616 0.31626 0.40328 1.14900
Cd	Cd	0.28265 0.35679 0.10355 1.15400
Cd	Cd	0.28721 0.47677 0.93046 1.15900
Cd	Cd	0.22523 0.30904 0.31837 1.14000
Cd	Cd	0.23729 0.49640 0.28728 1.15000
Cd	Cd	0.22373 0.42994 0.06557 1.14900
Cd	Cd	0.18391 0.38222 0.29989 1.14400
Cd	Cd	0.25019 0.44364 0.39279 1.15000
Cd	Cd	0.11754 0.31727 0.20295 1.14800
Cd	Cd	0.33722 0.46822 0.40551 1.15000
Cd	Cd	0.29345 0.42586 0.04210 1.16200
Cd	Cd	0.41441 0.24014 0.45899 1.15900
Cd	Cd	0.33568 0.42611 0.18333 1.15200
C 	C 	0.29990 0.37720 0.52500 -0.04400
C 	C 	0.46700 0.47750 0.35300 -0.00100
C 	C 	0.95920 0.37540 0.95690 -0.04400
C 	C 	0.03590 0.44910 0.94200 0.03500
C 	C 	0.38480 0.47490 0.98230 0.02100
C 	C 	0.47940 0.36820 0.30140 0.02900
C 	C 	0.99360 0.41700 0.90400 0.01700
C 	C 	0.41490 0.40740 0.21700 -0.08300
C 	C 	0.25030 0.21130 0.42760 -0.00900
C 	C 	0.43910 0.36990 0.27880 -0.10000
C 	C 	0.48910 0.38810 0.29220 -0.01000
C 	C 	0.28860 0.22150 0.47220 0.01900
C 	C 	0.83420 0.98310 0.12310 0.03900
C 	C 	0.80630 0.99760 0.08050 -0.09300
C 	C 	0.80330 0.02570 0.08310 0.02500
C 	C 	0.82820 0.03920 0.12840 -0.01400
C 	C 	0.85610 0.02460 0.17100 0.01900
C 	C 	0.85910 0.99660 0.16840 -0.03400
C 	C 	0.55600 0.94370 0.10250 0.12500
C 	C 	0.52690 0.95330 0.09810 -0.05100
C 	C 	0.49960 0.96940 0.05760 0.02000
C 	C 	0.50130 0.97590 0.02140 -0.02400
C 	C 	0.53040 0.96630 0.02580 0.03200
C 	C 	0.55770 0.95020 0.06630 -0.13100
C 	C 	0.59250 0.86370 0.25220 0.10700
C 	C 	0.55630 0.85440 0.21860 -0.08200
C 	C 	0.53560 0.85290 0.23270 0.02600
C 	C 	0.55120 0.86070 0.28040 -0.02200
C 	C 	0.58730 0.87000 0.31400 0.03000
C 	C 	0.60800 0.87150 0.29990 -0.08600
C 	C 	0.63460 0.93669 0.97580 0.06600
C 	C 	0.61690 0.93250 0.92610 -0.02700
C 	C 	0.59330 0.95230 0.89080 0.01500
C 	C 	0.58730 0.97634 0.90530 -0.01600
C 	C 	0.60490 0.98053 0.95500 0.02900
C 	C 	0.62860 0.96070 0.99030 -0.11100
C 	C 	0.91590 0.77240 0.54290 0.04400
C 	C 	0.92840 0.76010 0.58670 -0.02600
C 	C 	0.95680 0.77210 0.63240 0.01200
C 	C 	0.97260 0.79640 0.63430 -0.01600
C 	C 	0.96010 0.80870 0.59050 0.03700
C 	C 	0.93170 0.79670 0.54480 -0.11900
C 	C 	0.71330 0.03280 0.19060 0.05900
C 	C 	0.72490 0.05900 0.19160 -0.02600
C 	C 	0.69910 0.07900 0.15980 0.01200
C 	C 	0.66170 0.07280 0.12700 -0.01800
C 	C 	0.65010 0.04660 0.12600 0.02800
C 	C 	0.67590 0.02660 0.15780 -0.11600
C 	C 	0.84340 0.92200 0.01350 0.05400
C 	C 	0.87330 0.93820 0.05030 -0.08100
C 	C 	0.90900 0.92830 0.07770 0.02300
C 	C 	0.91470 0.90240 0.06820 -0.01700
C 	C 	0.88480 0.88620 0.03130 0.01200
C 	C 	0.84910 0.89610 0.00400 -0.03600
C 	C 	0.64000 0.00400 0.20610 0.07000
C 	C 	0.64390 0.02850 0.22880 -0.05600
C 	C 	0.61560 0.04770 0.20290 0.02100
C 	C 	0.58350 0.04230 0.15430 -0.01900
C 	C 	0.57960 0.01780 0.13160 0.02900
C 	C 	0.60790 0.99870 0.15750 -0.08700
C 	C 	0.86400 0.01150 0.34470 0.09000
C 	C 	0.89480 0.01920 0.39280 -0.07700
C 	C 	0.91780 0.03980 0.40020 0.02200
C 	C 	0.90990 0.05270 0.35960 -0.01600
C 	C 	0.87910 0.04500 0.31150 0.02300
C 	C 	0.85610 0.02440 0.30400 -0.04900
C 	C 	0.65540 0.78400 0.31020 0.05100
C 	C 	0.65420 0.80720 0.33140 -0.12300
C 	C 	0.64570 0.80490 0.36150 0.03000
C 	C 	0.63850 0.77940 0.37040 -0.01800
C 	C 	0.63960 0.75610 0.34910 0.01000
C 	C 	0.64810 0.75840 0.31900 -0.02100
C 	C 	0.55800 0.90920 0.99090 0.08800
C 	C 	0.52570 0.89810 0.95500 -0.04900
C 	C 	0.50890 0.93810 0.90750 -0.02200
C 	C 	0.56380 0.93130 0.97650 -0.09500
C 	C 	0.73230 0.00130 0.09400 0.08300
C 	C 	0.70160 0.00710 0.04470 -0.08800
C 	C 	0.69290 0.03410 0.02840 0.02600
C 	C 	0.71490 0.05520 0.06150 -0.01800
C 	C 	0.74550 0.04940 0.11080 0.01800
C 	C 	0.75420 0.02240 0.12700 -0.04300
C 	C 	0.90090 0.96680 0.28800 0.03000
C 	C 	0.92430 0.94180 0.30350 -0.09800
C 	C 	0.96630 0.95030 0.35070 0.01200
C 	C 	0.92550 0.98630 0.33200 -0.02600
C 	C 	0.83160 0.81770 0.50840 -0.02500
C 	C 	0.79490 0.81550 0.49510 -0.05700
C 	C 	0.79880 0.79420 0.52900 0.00300
C 	C 	0.84140 0.80020 0.57760 -0.00100
C 	C 	0.86480 0.81410 0.56100 0.00400
C 	C 	0.92390 0.94740 0.48390 0.04000
C 	C 	0.94810 0.94980 0.53730 -0.01500
C 	C 	0.98450 0.96350 0.55880 0.00600
C 	C 	0.99020 0.97120 0.52710 -0.01200
C 	C 	0.96880 0.96860 0.47750 0.01700
C 	C 	0.93050 0.95670 0.45520 -0.11200
C 	C 	0.43380 0.81070 0.04240 0.05600
C 	C 	0.45730 0.80830 0.09490 -0.06900
C 	C 	0.44470 0.81640 0.11820 0.02100
C 	C 	0.40730 0.82500 0.09200 -0.01200
C 	C 	0.37890 0.82400 0.03560 0.01200
C 	C 	0.39600 0.81680 0.01350 -0.04100
C 	C 	0.84110 0.74030 0.23520 0.07400
C 	C 	0.75530 0.66160 0.23060 0.00800
C 	C 	0.80030 0.85680 0.02430 0.10700
C 	C 	0.75920 0.66470 0.19540 -0.01400
C 	C 	0.62090 0.68410 0.07240 -0.02000
C 	C 	0.02650 0.83220 0.42770 0.01000
C 	C 	0.63890 0.99170 0.86040 -0.01300
C 	C 	0.63430 0.76250 0.02670 -0.11300
C 	C 	0.62600 0.73820 0.99930 0.02800
C 	C 	0.77690 0.91950 0.50630 -0.07300
C 	C 	0.75390 0.68700 0.25490 -0.01700
C 	C 	0.76410 0.68910 0.18350 0.02600
C 	C 	0.84440 0.64700 0.39240 0.01100
C 	C 	0.72850 0.81520 0.99370 -0.07100
C 	C 	0.68660 0.00090 0.85860 -0.10600
C 	C 	0.03830 0.88310 0.54900 -0.01200
C 	C 	0.96850 0.89360 0.49270 -0.07700
C 	C 	0.66530 0.99540 0.91250 0.01300
C 	C 	0.59370 0.70140 0.06100 0.02600
C 	C 	0.69560 0.89400 0.95560 -0.11600
C 	C 	0.46590 0.83260 0.87480 -0.01800
C 	C 	0.67410 0.87710 0.91310 0.03400
C 	C 	0.00930 0.90460 0.52070 0.01500
C 	C 	0.84850 0.69480 0.38070 0.04800
C 	C 	0.60230 0.72620 0.08380 -0.07100
C 	C 	0.71320 0.76890 0.96610 -0.01600
C 	C 	0.00740 0.87780 0.43540 0.02200
C 	C 	0.82070 0.89640 0.85520 -0.01400
C 	C 	0.99440 0.75090 0.38650 -0.01100
C 	C 	0.82100 0.70180 0.38180 -0.09500
C 	C 	0.81920 0.81660 0.99910 0.00900
C 	C 	0.61580 0.78590 0.99960 0.05300
C 	C 	0.82170 0.92380 0.83860 0.02400
C 	C 	0.68540 0.88240 0.43670 0.02500
C 	C 	0.64840 0.99360 0.83220 0.03100
C 	C 	0.67190 0.91380 0.86540 0.01000
C 	C 	0.66640 0.71950 0.13040 -0.08800
C 	C 	0.82030 0.71420 0.16190 0.02600
C 	C 	0.79010 0.82470 0.94700 -0.01400
C 	C 	0.58350 0.76210 0.92280 0.01200
C 	C 	0.72850 0.79340 0.96890 0.02300
C 	C 	0.98850 0.82310 0.39670 -0.02400
C 	C 	0.69400 0.89140 0.40820 -0.10300
C 	C 	0.60110 0.73880 0.94810 -0.01600
C 	C 	0.81980 0.73810 0.18330 -0.07800
C 	C 	0.66330 0.90170 0.43960 -0.01300
C 	C 	0.76290 0.71340 0.20480 -0.11200
C 	C 	0.01860 0.75670 0.43890 0.00900
C 	C 	0.76540 0.84660 0.93180 0.02400
C 	C 	0.71070 0.00530 0.91030 0.05100
C 	C 	0.81540 0.65360 0.39100 -0.01400
C 	C 	0.86260 0.69340 0.24310 0.01800
C 	C 	0.03390 0.85800 0.44880 -0.01400
C 	C 	0.45170 0.81690 0.89050 0.02400
C 	C 	0.70010 0.00290 0.93710 -0.03000
C 	C 	0.68010 0.91490 0.38230 0.04900
C 	C 	0.91520 0.88270 0.24810 0.11900
C 	C 	0.69950 0.78770 0.01570 -0.08600
C 	C 	0.02880 0.85530 0.55080 0.02000
C 	C 	0.86360 0.71810 0.26650 -0.05000
C 	C 	0.96070 0.84190 0.38420 0.05200
C 	C 	0.96360 0.86490 0.49720 0.07400
C 	C 	0.00500 0.76480 0.46000 -0.02500
C 	C 	0.84050 0.69170 0.19140 -0.01600
C 	C 	0.47500 0.80480 0.93700 -0.09300
C 	C 	0.96670 0.76710 0.43170 0.05200
C 	C 	0.59040 0.78670 0.94830 -0.02000
C 	C 	0.71420 0.81210 0.01780 0.07100
C 	C 	0.80200 0.89070 0.87080 0.01400
C 	C 	0.70410 0.92080 0.95280 0.05900
C 	C 	0.51280 0.80930 0.96910 0.06600
C 	C 	0.99010 0.84730 0.51910 -0.06900
C 	C 	0.75940 0.71160 0.23960 0.04800
C 	C 	0.69780 0.76560 0.98910 0.02800
C 	C 	0.94270 0.76070 0.38190 -0.10700
C 	C 	0.63720 0.73550 0.11790 0.08800
C 	C 	0.86000 0.66880 0.38510 -0.02500
C 	C 	0.95580 0.75240 0.35830 0.03600
C 	C 	0.82730 0.83530 0.04250 -0.04200
C 	C 	0.79750 0.94430 0.83470 -0.10200
C 	C 	0.48460 0.88060 0.01500 0.02300
C 	C 	0.64750 0.92500 0.41340 0.00700
C 	C 	0.69350 0.93160 0.90960 -0.05200
C 	C 	0.80550 0.68000 0.38970 0.02900
C 	C 	0.65710 0.69380 0.10560 0.02800
C 	C 	0.66270 0.88710 0.86700 -0.01600
C 	C 	0.77270 0.86220 0.97150 -0.08600
C 	C 	0.96920 0.86850 0.40210 -0.09800
C 	C 	0.77710 0.93860 0.84500 0.05900
C 	C 	0.77870 0.91290 0.86590 -0.04400
C 	C 	0.50470 0.83660 0.90690 0.03000
C 	C 	0.65560 0.93280 0.38190 -0.01700
C 	C 	0.52820 0.82470 0.95430 -0.08300
C 	C 	0.76900 0.75390 0.40860 0.06200
C 	C 	0.58150 0.71700 0.19160 0.01600
C 	C 	0.79200 0.74390 0.45120 -0.07300
C 	C 	0.57970 0.74600 0.19440 -0.04000
C 	C 	0.53300 0.71650 0.09960 0.01800
C 	C 	0.55920 0.70200 0.14360 -0.01100
C 	C 	0.53230 0.74720 0.10270 -0.10900
C 	C 	0.91940 0.78180 0.21170 -0.01200
C 	C 	0.89170 0.77630 0.16220 0.01200
C 	C 	0.85380 0.78550 0.13470 -0.02500
C 	C 	0.91490 0.79620 0.24260 0.03100
C 	C 	0.87670 0.80520 0.21480 -0.10100
C 	C 	0.55660 0.75970 0.14820 0.05600
C 	C 	0.84820 0.80030 0.16540 0.08100
C 	C 	0.79860 0.90200 0.49730 0.06000
C 	C 	0.77320 0.90950 0.53990 0.01800
S 	S 	0.84175 0.80128 0.36162 -1.10000
S 	S 	0.69799 0.86883 0.13675 -1.14300
S 	S 	0.73103 0.81909 0.25433 -1.15600
S 	S 	0.69554 0.89880 0.24393 -1.14200
S 	S 	0.80752 0.84745 0.24546 -1.15200
S 	S 	0.77246 0.92732 0.23826 -1.16000
S 	S 	0.80655 0.87769 0.35456 -1.15500
S 	S 	0.95119 0.77832 0.46230 -0.51200
S 	S 	0.76993 0.95539 0.34472 -1.08900
S 	S 	0.62396 0.84002 0.14571 -1.09000
S 	S 	0.84285 0.77006 0.26480 -0.54800
S 	S 	0.58926 0.88605 0.03951 -0.56800
S 	S 	0.73052 0.78434 0.14489 -0.84500
S 	S 	0.77577 0.89995 0.13473 -1.08700
S 	S 	0.66051 0.91035 0.01850 -0.52800
S 	S 	0.71347 0.84187 0.04567 -0.53400
S 	S 	0.86978 0.72017 0.37147 -0.49400
S 	S 	0.54096 0.79313 0.02794 -0.52600
S 	S 	0.75841 0.74151 0.26761 -0.52400
S 	S 	0.67342 0.97786 0.24597 -0.55300
S 	S 	0.64808 0.76772 0.14875 -0.57300
S 	S 	0.66120 0.95131 0.12324 -0.85200
S 	S 	0.62554 0.81790 0.03124 -0.51800
S 	S 	0.91458 0.82921 0.34350 -0.52500
S 	S 	0.73046 0.94289 0.00346 -0.52000
S 	S 	0.72897 0.84834 0.36479 -0.86200
S 	S 	0.91543 0.85396 0.45925 -0.54700
S 	S 	0.88031 0.75569 0.48590 -0.50400
S 	S 	0.80251 0.80866 0.13453 -0.52500
S 	S 	0.88590 0.90864 0.34881 -0.86000
S 	S 	0.66376 0.78356 0.26926 -0.52600
S 	S 	0.55378 0.79596 0.15359 -0.50100
S 	S 	0.75772 0.01476 0.94194 -0.51400
S 	S 	0.77471 0.77238 0.37162 -0.57600
S 	S 	0.68530 0.92623 0.33914 -0.52800
S 	S 	0.85029 0.96431 0.24066 -0.51300
S 	S 	0.74640 0.00680 0.22710 -0.52300
S 	S 	0.74709 0.96232 0.83912 -0.49900
S 	S 	0.74814 0.96985 0.12563 -0.59100
S 	S 	0.84611 0.83654 0.47392 -0.51700
S 	S 	0.61718 0.86465 0.23286 -0.58900
S 	S 	0.86899 0.88058 0.22145 -0.59900
S 	S 	0.88114 0.93009 0.45862 -0.52800
S 	S 	0.80797 0.87625 0.06652 -0.55500
S 	S 	0.84819 0.99584 0.96445 -0.53100
S 	S 	0.51972 0.86525 0.07344 -0.51600
S 	S 	0.83539 0.98410 0.33646 -0.59600
S 	S 	0.80268 0.91150 0.45546 -0.56500
S 	S 	0.84440 0.94655 0.12659 -0.49400
S 	S 	0.59156 0.92455 0.14500 -0.55000
S 	S 	0.44855 0.80308 0.00987 -0.46700
S 	S 	0.79984 0.93340 0.97808 -0.47800
Cd	Cd	0.68922 0.85742 0.19696 1.12400
Cd	Cd	0.76324 0.88547 0.19029 1.12300
Cd	Cd	0.76130 0.91408 0.29532 1.12500
Cd	Cd	0.71701 0.77825 0.19976 1.14200
Cd	Cd	0.65243 0.90722 0.08272 1.14300
Cd	Cd	0.79518 0.83737 0.30206 1.12400
Cd	Cd	0.87071 0.86963 0.29393 1.14000
Cd	Cd	0.87244 0.89305 0.40095 1.14200
Cd	Cd	0.65683 0.93896 0.18650 1.14300
Cd	Cd	0.72722 0.96311 0.17492 1.14100
Cd	Cd	0.60907 0.80532 0.08261 1.14900
Cd	Cd	0.82306 0.75709 0.31326 1.14800
Cd	Cd	0.69570 0.82558 0.09531 1.14100
Cd	Cd	0.83841 0.94352 0.29400 1.14300
Cd	Cd	0.58066 0.88046 0.10263 1.15200
Cd	Cd	0.79106 0.86719 0.40841 1.14000
Cd	Cd	0.83802 0.79414 0.42800 1.14800
Cd	Cd	0.51677 0.81385 0.06583 1.16000
Cd	Cd	0.79388 0.80325 0.19750 1.13900
Cd	Cd	0.90616 0.81625 0.40328 1.14900
Cd	Cd	0.78265 0.85679 0.10355 1.15400
Cd	Cd	0.78721 0.97677 0.93046 1.15900
Cd	Cd	0.72523 0.80904 0.31837 1.14000
Cd	Cd	0.73729 0.99640 0.28728 1.15000
Cd	Cd	0.72373 0.92993 0.06557 1.14900
Cd	Cd	0.68391 0.88222 0.29989 1.14400
Cd	Cd	0.75019 0.94364 0.39279 1.15000
Cd	Cd	0.61754 0.81727 0.20295 1.14800
Cd	Cd	0.83722 0.96822 0.40551 1.15000
Cd	Cd	0.79345 0.92586 0.04210 1.16200
Cd	Cd	0.91441 0.74014 0.45899 1.15900
Cd	Cd	0.83568 0.92611 0.18333 1.15200
C 	C 	0.79990 0.87720 0.52500 -0.04400
C 	C 	0.96700 0.97750 0.35300 -0.00100
C 	C 	0.45920 0.87540 0.95690 -0.04400
C 	C 	0.53590 0.94910 0.94200 0.03500
C 	C 	0.88480 0.97490 0.98230 0.02100
C 	C 	0.97940 0.86820 0.30140 0.02900
C 	C 	0.49360 0.91700 0.90400 0.01600
C 	C 	0.91490 0.90740 0.21700 -0.08300
C 	C 	0.75030 0.71130 0.42760 -0.00900
C 	C 	0.93910 0.86990 0.27880 -0.10000
C 	C 	0.98910 0.88810 0.29220 -0.01000
C 	C 	0.78860 0.72150 0.47220 0.01900
C 	C 	0.66580 0.51690 0.87690 0.03900
C 	C 	0.69370 0.50240 0.91950 -0.09300
C 	C 	0.69670 0.47430 0.91690 0.02500
C 	C 	0.67180 0.46080 0.87160 -0.01400
C 	C 	0.64390 0.47540 0.82900 0.01900
C 	C 	0.64090 0.50340 0.83160 -0.03400
C 	C 	0.94400 0.55630 0.89750 0.12500
C 	C 	0.97310 0.54670 0.90190 -0.05100
C 	C 	0.00040 0.53060 0.94240 0.01900
C 	C 	0.99870 0.52410 0.97860 -0.02400
C 	C 	0.96960 0.53370 0.97420 0.03200
C 	C 	0.94230 0.54980 0.93370 -0.13100
C 	C 	0.90750 0.63630 0.74780 0.10700
C 	C 	0.94370 0.64560 0.78140 -0.08200
C 	C 	0.96440 0.64710 0.76730 0.02600
C 	C 	0.94880 0.63930 0.71960 -0.02200
C 	C 	0.91270 0.63000 0.68600 0.03000
C 	C 	0.89200 0.62850 0.70010 -0.08600
C 	C 	0.86540 0.56331 0.02420 0.06600
C 	C 	0.88310 0.56750 0.07390 -0.02700
C 	C 	0.90670 0.54770 0.10920 0.01500
C 	C 	0.91270 0.52366 0.09470 -0.01600
C 	C 	0.89510 0.51947 0.04500 0.02900
C 	C 	0.87140 0.53930 0.00970 -0.11100
C 	C 	0.58410 0.72760 0.45710 0.04400
C 	C 	0.57160 0.73990 0.41330 -0.02600
C 	C 	0.54320 0.72790 0.36760 0.01200
C 	C 	0.52740 0.70360 0.36570 -0.01600
C 	C 	0.53990 0.69130 0.40950 0.03700
C 	C 	0.56830 0.70330 0.45520 -0.11900
C 	C 	0.78670 0.46720 0.80940 0.05900
C 	C 	0.77510 0.44100 0.80840 -0.02600
C 	C 	0.80090 0.42100 0.84020 0.01200
C 	C 	0.83830 0.42720 0.87300 -0.01800
C 	C 	0.84990 0.45340 0.87400 0.02800
C 	C 	0.82410 0.47340 0.84220 -0.11600
C 	C 	0.65660 0.57800 0.98650 0.05400
C 	C 	0.62670 0.56180 0.94970 -0.08100
C 	C 	0.59100 0.57170 0.92230 0.02300
C 	C 	0.58530 0.59760 0.93180 -0.01700
C 	C 	0.61520 0.61380 0.96870 0.01200
C 	C 	0.65090 0.60390 0.99600 -0.03600
C 	C 	0.86000 0.49600 0.79390 0.07000
C 	C 	0.85610 0.47150 0.77120 -0.05600
C 	C 	0.88440 0.45230 0.79710 0.02100
C 	C 	0.91650 0.45770 0.84570 -0.01900
C 	C 	0.92040 0.48220 0.86840 0.02900
C 	C 	0.89210 0.50130 0.84250 -0.08700
C 	C 	0.63600 0.48850 0.65530 0.09000
C 	C 	0.60520 0.48080 0.60720 -0.07700
C 	C 	0.58220 0.46020 0.59980 0.02200
C 	C 	0.59010 0.44730 0.64040 -0.01600
C 	C 	0.62090 0.45500 0.68850 0.02300
C 	C 	0.64390 0.47560 0.69600 -0.04900
C 	C 	0.84460 0.71600 0.68980 0.05100
C 	C 	0.84580 0.69280 0.66860 -0.12300
C 	C 	0.85430 0.69510 0.63850 0.03000
C 	C 	0.86150 0.72060 0.62960 -0.01800
C 	C 	0.86040 0.74390 0.65090 0.01000
C 	C 	0.85190 0.74160 0.68100 -0.02100
C 	C 	0.94200 0.59080 0.00910 0.08800
C 	C 	0.97430 0.60190 0.04500 -0.04900
C 	C 	0.99110 0.56190 0.09250 -0.02200
C 	C 	0.93620 0.56870 0.02350 -0.09500
C 	C 	0.76770 0.49870 0.90600 0.08300
C 	C 	0.79840 0.49290 0.95530 -0.08800
C 	C 	0.80710 0.46590 0.97160 0.02600
C 	C 	0.78510 0.44480 0.93850 -0.01800
C 	C 	0.75450 0.45060 0.88920 0.01800
C 	C 	0.74580 0.47760 0.87300 -0.04300
C 	C 	0.59910 0.53320 0.71200 0.03000
C 	C 	0.57570 0.55820 0.69650 -0.09800
C 	C 	0.53370 0.54970 0.64930 0.01200
C 	C 	0.57450 0.51370 0.66800 -0.02600
C 	C 	0.66840 0.68230 0.49160 -0.02500
C 	C 	0.70510 0.68450 0.50490 -0.05700
C 	C 	0.70120 0.70580 0.47100 0.00300
C 	C 	0.65860 0.69980 0.42240 -0.00100
C 	C 	0.63520 0.68590 0.43900 0.00400
C 	C 	0.57610 0.55260 0.51610 0.04000
C 	C 	0.55190 0.55020 0.46270 -0.01500
C 	C 	0.51550 0.53650 0.44120 0.00600
C 	C 	0.50980 0.52880 0.47290 -0.01200
C 	C 	0.53120 0.53140 0.52250 0.01700
C 	C 	0.56950 0.54330 0.54480 -0.11200
C 	C 	0.06620 0.68930 0.95760 0.05600
C 	C 	0.04270 0.69170 0.90510 -0.06900
C 	C 	0.05530 0.68360 0.88180 0.02100
C 	C 	0.09270 0.67500 0.90800 -0.01200
C 	C 	0.12110 0.67600 0.96440 0.01200
C 	C 	0.10400 0.68320 0.98650 -0.04100
C 	C 	0.65890 0.75970 0.76480 0.07400
C 	C 	0.74470 0.83840 0.76940 0.00800
C 	C 	0.69970 0.64320 0.97570 0.10700
C 	C 	0.74080 0.83530 0.80460 -0.01400
C 	C 	0.87910 0.81590 0.92760 -0.02000
C 	C 	0.47350 0.66780 0.57230 0.01000
C 	C 	0.86110 0.50830 0.13960 -0.01300
C 	C 	0.86570 0.73750 0.97330 -0.11300
C 	C 	0.87400 0.76180 0.00070 0.02800
C 	C 	0.72310 0.58050 0.49370 -0.07300
C 	C 	0.74610 0.81300 0.74510 -0.01700
C 	C 	0.73590 0.81090 0.81650 0.02600
C 	C 	0.65560 0.85300 0.60760 0.01100
C 	C 	0.77150 0.68480 0.00630 -0.07100
C 	C 	0.81340 0.49910 0.14140 -0.10600
C 	C 	0.46170 0.61690 0.45100 -0.01200
C 	C 	0.53150 0.60640 0.50730 -0.07700
C 	C 	0.83470 0.50460 0.08750 0.01300
C 	C 	0.90630 0.79860 0.93900 0.02600
C 	C 	0.80440 0.60600 0.04440 -0.11600
C 	C 	0.03410 0.66740 0.12520 -0.01800
C 	C 	0.82590 0.62290 0.08690 0.03400
C 	C 	0.49070 0.59540 0.47930 0.01500
C 	C 	0.65150 0.80520 0.61930 0.04800
C 	C 	0.89770 0.77380 0.91620 -0.07100
C 	C 	0.78680 0.73110 0.03390 -0.01600
C 	C 	0.49260 0.62220 0.56460 0.02200
C 	C 	0.67930 0.60360 0.14480 -0.01400
C 	C 	0.50560 0.74910 0.61350 -0.01100
C 	C 	0.67900 0.79820 0.61820 -0.09500
C 	C 	0.68080 0.68340 0.00090 0.00900
C 	C 	0.88420 0.71410 0.00040 0.05300
C 	C 	0.67830 0.57620 0.16140 0.02400
C 	C 	0.81460 0.61760 0.56330 0.02500
C 	C 	0.85160 0.50640 0.16780 0.03100
C 	C 	0.82810 0.58620 0.13460 0.01000
C 	C 	0.83360 0.78050 0.86960 -0.08800
C 	C 	0.67970 0.78580 0.83810 0.02600
C 	C 	0.70990 0.67530 0.05300 -0.01400
C 	C 	0.91650 0.73790 0.07720 0.01200
C 	C 	0.77150 0.70660 0.03110 0.02300
C 	C 	0.51150 0.67690 0.60330 -0.02400
C 	C 	0.80600 0.60860 0.59180 -0.10300
C 	C 	0.89890 0.76120 0.05190 -0.01600
C 	C 	0.68020 0.76190 0.81670 -0.07800
C 	C 	0.83670 0.59830 0.56040 -0.01300
C 	C 	0.73710 0.78660 0.79520 -0.11200
C 	C 	0.48140 0.74330 0.56110 0.00900
C 	C 	0.73460 0.65340 0.06820 0.02400
C 	C 	0.78930 0.49470 0.08970 0.05100
C 	C 	0.68460 0.84640 0.60900 -0.01400
C 	C 	0.63740 0.80660 0.75690 0.01800
C 	C 	0.46610 0.64200 0.55120 -0.01400
C 	C 	0.04830 0.68310 0.10950 0.02400
C 	C 	0.79990 0.49710 0.06290 -0.03000
C 	C 	0.81990 0.58510 0.61770 0.04900
C 	C 	0.58480 0.61730 0.75190 0.11900
C 	C 	0.80050 0.71230 0.98430 -0.08600
C 	C 	0.47120 0.64470 0.44920 0.02000
C 	C 	0.63640 0.78190 0.73350 -0.05000
C 	C 	0.53930 0.65810 0.61580 0.05200
C 	C 	0.53640 0.63510 0.50280 0.07400
C 	C 	0.49500 0.73520 0.54000 -0.02500
C 	C 	0.65950 0.80830 0.80860 -0.01600
C 	C 	0.02500 0.69520 0.06300 -0.09200
C 	C 	0.53330 0.73290 0.56830 0.05200
C 	C 	0.90960 0.71330 0.05170 -0.02000
C 	C 	0.78580 0.68790 0.98220 0.07100
C 	C 	0.69800 0.60930 0.12920 0.01400
C 	C 	0.79590 0.57920 0.04720 0.05900
C 	C 	0.98720 0.69070 0.03090 0.06500
C 	C 	0.50990 0.65270 0.48090 -0.06900
C 	C 	0.74060 0.78840 0.76040 0.04800
C 	C 	0.80220 0.73440 0.01090 0.02800
C 	C 	0.55730 0.73930 0.61810 -0.10700
C 	C 	0.86280 0.76450 0.88210 0.08800
C 	C 	0.64000 0.83120 0.61490 -0.02500
C 	C 	0.54420 0.74760 0.64170 0.03600
C 	C 	0.67270 0.66470 0.95750 -0.04200
C 	C 	0.70250 0.55570 0.16530 -0.10200
C 	C 	0.01540 0.61940 0.98500 0.02200
C 	C 	0.85250 0.57500 0.58660 0.00700
C 	C 	0.80650 0.56840 0.09040 -0.05200
C 	C 	0.69450 0.82000 0.61030 0.02900
C 	C 	0.84290 0.80620 0.89440 0.02800
C 	C 	0.83730 0.61290 0.13300 -0.01600
C 	C 	0.72730 0.63780 0.02850 -0.08600
C 	C 	0.53080 0.63150 0.59790 -0.09800
C 	C 	0.72290 0.56140 0.15500 0.05900
C 	C 	0.72130 0.58710 0.13410 -0.04400
C 	C 	0.99530 0.66340 0.09310 0.03000
C 	C 	0.84440 0.56720 0.61810 -0.01700
C 	C 	0.97180 0.67530 0.04570 -0.08200
C 	C 	0.73100 0.74610 0.59140 0.06200
C 	C 	0.91850 0.78300 0.80840 0.01600
C 	C 	0.70800 0.75610 0.54880 -0.07300
C 	C 	0.92030 0.75400 0.80560 -0.04000
C 	C 	0.96700 0.78350 0.90040 0.01800
C 	C 	0.94080 0.79800 0.85640 -0.01100
C 	C 	0.96770 0.75280 0.89730 -0.11000
C 	C 	0.58060 0.71820 0.78830 -0.01200
C 	C 	0.60830 0.72370 0.83780 0.01200
C 	C 	0.64620 0.71450 0.86530 -0.02500
C 	C 	0.58510 0.70380 0.75740 0.03100
C 	C 	0.62330 0.69480 0.78520 -0.10100
C 	C 	0.94340 0.74030 0.85180 0.05600
C 	C 	0.65180 0.69970 0.83460 0.08100
C 	C 	0.70140 0.59800 0.50270 0.06000
C 	C 	0.72680 0.59050 0.46010 0.01800
S 	S 	0.65825 0.69872 0.63838 -1.10000
S 	S 	0.80201 0.63117 0.86325 -1.14300
S 	S 	0.76897 0.68091 0.74567 -1.15600
S 	S 	0.80446 0.60120 0.75607 -1.14200
S 	S 	0.69248 0.65255 0.75454 -1.15200
S 	S 	0.72754 0.57268 0.76174 -1.16000
S 	S 	0.69345 0.62231 0.64544 -1.15500
S 	S 	0.54881 0.72168 0.53770 -0.51100
S 	S 	0.73007 0.54461 0.65528 -1.08900
S 	S 	0.87604 0.65998 0.85429 -1.09000
S 	S 	0.65715 0.72994 0.73520 -0.54800
S 	S 	0.91074 0.61395 0.96049 -0.56800
S 	S 	0.76948 0.71566 0.85511 -0.84500
S 	S 	0.72423 0.60005 0.86527 -1.08700
S 	S 	0.83949 0.58965 0.98150 -0.52800
S 	S 	0.78653 0.65813 0.95433 -0.53400
S 	S 	0.63022 0.77983 0.62853 -0.49400
S 	S 	0.95904 0.70687 0.97206 -0.52600
S 	S 	0.74159 0.75849 0.73239 -0.52400
S 	S 	0.82658 0.52214 0.75403 -0.55300
S 	S 	0.85192 0.73228 0.85125 -0.57300
S 	S 	0.83880 0.54869 0.87676 -0.85200
S 	S 	0.87446 0.68210 0.96876 -0.51800
S 	S 	0.58542 0.67079 0.65650 -0.52500
S 	S 	0.76954 0.55711 0.99654 -0.52000
S 	S 	0.77103 0.65166 0.63521 -0.86200
S 	S 	0.58457 0.64604 0.54075 -0.54700
S 	S 	0.61969 0.74431 0.51410 -0.50400
S 	S 	0.69749 0.69134 0.86547 -0.52500
S 	S 	0.61410 0.59136 0.65119 -0.86000
S 	S 	0.83624 0.71644 0.73074 -0.52600
S 	S 	0.94622 0.70404 0.84641 -0.50100
S 	S 	0.74228 0.48524 0.05806 -0.51400
S 	S 	0.72529 0.72762 0.62838 -0.57600
S 	S 	0.81470 0.57377 0.66086 -0.52800
S 	S 	0.64971 0.53569 0.75934 -0.51300
S 	S 	0.75360 0.49320 0.77290 -0.52300
S 	S 	0.75291 0.53768 0.16088 -0.49900
S 	S 	0.75186 0.53015 0.87437 -0.59100
S 	S 	0.65389 0.66346 0.52608 -0.51700
S 	S 	0.88282 0.63535 0.76714 -0.58900
S 	S 	0.63101 0.61942 0.77855 -0.59900
S 	S 	0.61886 0.56991 0.54138 -0.52800
S 	S 	0.69203 0.62375 0.93348 -0.55500
S 	S 	0.65181 0.50416 0.03555 -0.53100
S 	S 	0.98028 0.63475 0.92656 -0.51600
S 	S 	0.66461 0.51590 0.66354 -0.59600
S 	S 	0.69732 0.58850 0.54454 -0.56500
S 	S 	0.65560 0.55345 0.87341 -0.49400
S 	S 	0.90844 0.57545 0.85500 -0.55000
S 	S 	0.05145 0.69692 0.99013 -0.46700
S 	S 	0.70016 0.56660 0.02192 -0.47800
Cd	Cd	0.81078 0.64258 0.80304 1.12400
Cd	Cd	0.73676 0.61453 0.80971 1.12300
Cd	Cd	0.73870 0.58592 0.70468 1.12500
Cd	Cd	0.78299 0.72175 0.80024 1.14200
Cd	Cd	0.84757 0.59278 0.91728 1.14300
Cd	Cd	0.70482 0.66263 0.69794 1.12400
Cd	Cd	0.62929 0.63037 0.70607 1.14000
Cd	Cd	0.62756 0.60695 0.59905 1.14200
Cd	Cd	0.84317 0.56104 0.81350 1.14300
Cd	Cd	0.77278 0.53689 0.82508 1.14100
Cd	Cd	0.89093 0.69468 0.91739 1.14900
Cd	Cd	0.67694 0.74291 0.68674 1.14800
Cd	Cd	0.80430 0.67442 0.90469 1.14100
Cd	Cd	0.66159 0.55647 0.70600 1.14300
Cd	Cd	0.91934 0.61954 0.89737 1.15200
Cd	Cd	0.70894 0.63281 0.59159 1.14000
Cd	Cd	0.66198 0.70586 0.57200 1.14800
Cd	Cd	0.98323 0.68615 0.93417 1.16000
Cd	Cd	0.70612 0.69675 0.80250 1.13900
Cd	Cd	0.59384 0.68374 0.59672 1.14900
Cd	Cd	0.71735 0.64321 0.89645 1.15400
Cd	Cd	0.71279 0.52323 0.06954 1.15900
Cd	Cd	0.77477 0.69096 0.68163 1.14000
Cd	Cd	0.76271 0.50360 0.71272 1.15000
Cd	Cd	0.77627 0.57006 0.93443 1.14900
Cd	Cd	0.81609 0.61778 0.70011 1.14400
Cd	Cd	0.74981 0.55636 0.60721 1.15000
Cd	Cd	0.88246 0.68273 0.79705 1.14800
Cd	Cd	0.66278 0.53178 0.59449 1.15000
Cd	Cd	0.70655 0.57414 0.95790 1.16200
Cd	Cd	0.58559 0.75986 0.54101 1.15900
Cd	Cd	0.66432 0.57389 0.81667 1.15200
C 	C 	0.70010 0.62280 0.47500 -0.04400
C 	C 	0.53300 0.52250 0.64700 -0.00100
C 	C 	0.04080 0.62460 0.04310 -0.04400
C 	C 	0.96410 0.55090 0.05800 0.03500
C 	C 	0.61520 0.52510 0.01770 0.02100
C 	C 	0.52060 0.63180 0.69860 0.02900
C 	C 	0.00640 0.58300 0.09600 0.01700
C 	C 	0.58510 0.59260 0.78300 -0.08300
C 	C 	0.74970 0.78870 0.57240 -0.00900
C 	C 	0.56090 0.63010 0.72120 -0.10000
C 	C 	0.51090 0.61190 0.70780 -0.01000
C 	C 	0.71140 0.77850 0.52780 0.01900
C 	C 	0.16580 0.01690 0.87690 0.03900
C 	C 	0.19370 0.00240 0.91950 -0.09300
C 	C 	0.19670 0.97430 0.91690 0.02500
C 	C 	0.17180 0.96080 0.87160 -0.01400
C 	C 	0.14390 0.97540 0.82900 0.01900
C 	C 	0.14090 0.00340 0.83160 -0.03400
C 	C 	0.44400 0.05630 0.89750 0.12500
C 	C 	0.47310 0.04670 0.90190 -0.05100
C 	C 	0.50040 0.03060 0.94240 0.02000
C 	C 	0.49870 0.02410 0.97860 -0.02400
C 	C 	0.46960 0.03370 0.97420 0.03200
C 	C 	0.44230 0.04980 0.93370 -0.13100
C 	C 	0.40750 0.13630 0.74780 0.10700
C 	C 	0.44370 0.14560 0.78140 -0.08200
C 	C 	0.46440 0.14710 0.76730 0.02600
C 	C 	0.44880 0.13930 0.71960 -0.02200
C 	C 	0.41270 0.13000 0.68600 0.03000
C 	C 	0.39200 0.12850 0.70010 -0.08600
C 	C 	0.36540 0.06331 0.02420 0.06600
C 	C 	0.38310 0.06750 0.07390 -0.02700
C 	C 	0.40670 0.04770 0.10920 0.01500
C 	C 	0.41270 0.02366 0.09470 -0.01600
C 	C 	0.39510 0.01947 0.04500 0.02900
C 	C 	0.37140 0.03930 0.00970 -0.11100
C 	C 	0.08410 0.22760 0.45710 0.04400
C 	C 	0.07160 0.23990 0.41330 -0.02600
C 	C 	0.04320 0.22790 0.36760 0.01200
C 	C 	0.02740 0.20360 0.36570 -0.01600
C 	C 	0.03990 0.19130 0.40950 0.03700
C 	C 	0.06830 0.20330 0.45520 -0.11900
C 	C 	0.28670 0.96720 0.80940 0.05900
C 	C 	0.27510 0.94100 0.80840 -0.02600
C 	C 	0.30090 0.92100 0.84020 0.01200
C 	C 	0.33830 0.92720 0.87300 -0.01800
C 	C 	0.34990 0.95340 0.87400 0.02800
C 	C 	0.32410 0.97340 0.84220 -0.11600
C 	C 	0.15660 0.07800 0.98650 0.05400
C 	C 	0.12670 0.06180 0.94970 -0.08100
C 	C 	0.09100 0.07170 0.92230 0.02300
C 	C 	0.08530 0.09760 0.93180 -0.01700
C 	C 	0.11520 0.11380 0.96870 0.01200
C 	C 	0.15090 0.10390 0.99600 -0.03600
C 	C 	0.36000 0.99600 0.79390 0.07000
C 	C 	0.35610 0.97150 0.77120 -0.05600
C 	C 	0.38440 0.95230 0.79710 0.02100
C 	C 	0.41650 0.95770 0.84570 -0.01900
C 	C 	0.42040 0.98220 0.86840 0.02900
C 	C 	0.39210 0.00130 0.84250 -0.08700
C 	C 	0.13600 0.98850 0.65530 0.09000
C 	C 	0.10520 0.98080 0.60720 -0.07700
C 	C 	0.08220 0.96020 0.59980 0.02200
C 	C 	0.09010 0.94730 0.64040 -0.01600
C 	C 	0.12090 0.95500 0.68850 0.02300
C 	C 	0.14390 0.97560 0.69600 -0.04900
C 	C 	0.34460 0.21600 0.68980 0.05100
C 	C 	0.34580 0.19280 0.66860 -0.12300
C 	C 	0.35430 0.19510 0.63850 0.03000
C 	C 	0.36150 0.22060 0.62960 -0.01800
C 	C 	0.36040 0.24390 0.65090 0.01000
C 	C 	0.35190 0.24160 0.68100 -0.02100
C 	C 	0.44200 0.09080 0.00910 0.08800
C 	C 	0.47430 0.10190 0.04500 -0.04900
C 	C 	0.49110 0.06190 0.09250 -0.02200
C 	C 	0.43620 0.06870 0.02350 -0.09500
C 	C 	0.26770 0.99870 0.90600 0.08300
C 	C 	0.29840 0.99290 0.95530 -0.08800
C 	C 	0.30710 0.96590 0.97160 0.02600
C 	C 	0.28510 0.94480 0.93850 -0.01800
C 	C 	0.25450 0.95060 0.88920 0.01800
C 	C 	0.24580 0.97760 0.87300 -0.04300
C 	C 	0.09910 0.03320 0.71200 0.03000
C 	C 	0.07570 0.05820 0.69650 -0.09800
C 	C 	0.03370 0.04970 0.64930 0.01200
C 	C 	0.07450 0.01370 0.66800 -0.02600
C 	C 	0.16840 0.18230 0.49160 -0.02500
C 	C 	0.20510 0.18450 0.50490 -0.05700
C 	C 	0.20120 0.20580 0.47100 0.00300
C 	C 	0.15860 0.19980 0.42240 -0.00100
C 	C 	0.13520 0.18590 0.43900 0.00400
C 	C 	0.07610 0.05260 0.51610 0.04000
C 	C 	0.05190 0.05020 0.46270 -0.01500
C 	C 	0.01550 0.03650 0.44120 0.00600
C 	C 	0.00980 0.02880 0.47290 -0.01200
C 	C 	0.03120 0.03140 0.52250 0.01700
C 	C 	0.06950 0.04330 0.54480 -0.11200
C 	C 	0.56620 0.18930 0.95760 0.05600
C 	C 	0.54270 0.19170 0.90510 -0.06900
C 	C 	0.55530 0.18360 0.88180 0.02100
C 	C 	0.59270 0.17500 0.90800 -0.01200
C 	C 	0.62110 0.17600 0.96440 0.01200
C 	C 	0.60400 0.18320 0.98650 -0.04100
C 	C 	0.15890 0.25970 0.76480 0.07400
C 	C 	0.24470 0.33840 0.76940 0.00800
C 	C 	0.19970 0.14320 0.97570 0.10700
C 	C 	0.24080 0.33530 0.80460 -0.01400
C 	C 	0.37910 0.31590 0.92760 -0.02000
C 	C 	0.97350 0.16780 0.57230 0.01000
C 	C 	0.36110 0.00830 0.13960 -0.01300
C 	C 	0.36570 0.23750 0.97330 -0.11300
C 	C 	0.37400 0.26180 0.00070 0.02800
C 	C 	0.22310 0.08050 0.49370 -0.07300
C 	C 	0.24610 0.31300 0.74510 -0.01700
C 	C 	0.23590 0.31090 0.81650 0.02600
C 	C 	0.15560 0.35300 0.60760 0.01100
C 	C 	0.27150 0.18480 0.00630 -0.07100
C 	C 	0.31340 0.99910 0.14140 -0.10600
C 	C 	0.96170 0.11690 0.45100 -0.01200
C 	C 	0.03150 0.10640 0.50730 -0.07700
C 	C 	0.33470 0.00460 0.08750 0.01300
C 	C 	0.40630 0.29860 0.93900 0.02600
C 	C 	0.30440 0.10600 0.04440 -0.11600
C 	C 	0.53410 0.16740 0.12520 -0.01800
C 	C 	0.32590 0.12290 0.08690 0.03400
C 	C 	0.99070 0.09540 0.47930 0.01500
C 	C 	0.15150 0.30520 0.61930 0.04800
C 	C 	0.39770 0.27380 0.91620 -0.07100
C 	C 	0.28680 0.23110 0.03390 -0.01600
C 	C 	0.99260 0.12220 0.56460 0.02200
C 	C 	0.17930 0.10360 0.14480 -0.01400
C 	C 	0.00560 0.24910 0.61350 -0.01100
C 	C 	0.17900 0.29820 0.61820 -0.09500
C 	C 	0.18080 0.18340 0.00090 0.00900
C 	C 	0.38420 0.21410 0.00040 0.05300
C 	C 	0.17830 0.07620 0.16140 0.02400
C 	C 	0.31460 0.11760 0.56330 0.02500
C 	C 	0.35160 0.00640 0.16780 0.03100
C 	C 	0.32810 0.08620 0.13460 0.01000
C 	C 	0.33360 0.28050 0.86960 -0.08800
C 	C 	0.17970 0.28580 0.83810 0.02600
C 	C 	0.20990 0.17530 0.05300 -0.01400
C 	C 	0.41650 0.23790 0.07720 0.01200
C 	C 	0.27150 0.20660 0.03110 0.02300
C 	C 	0.01150 0.17690 0.60330 -0.02400
C 	C 	0.30600 0.10860 0.59180 -0.10300
C 	C 	0.39890 0.26120 0.05190 -0.01600
C 	C 	0.18020 0.26190 0.81670 -0.07800
C 	C 	0.33670 0.09830 0.56040 -0.01300
C 	C 	0.23710 0.28660 0.79520 -0.11200
C 	C 	0.98140 0.24330 0.56110 0.00900
C 	C 	0.23460 0.15340 0.06820 0.02400
C 	C 	0.28930 0.99470 0.08970 0.05100
C 	C 	0.18460 0.34640 0.60900 -0.01400
C 	C 	0.13740 0.30660 0.75690 0.01800
C 	C 	0.96610 0.14200 0.55120 -0.01400
C 	C 	0.54830 0.18310 0.10950 0.02400
C 	C 	0.29990 0.99710 0.06290 -0.03000
C 	C 	0.31990 0.08510 0.61770 0.04900
C 	C 	0.08480 0.11730 0.75190 0.11900
C 	C 	0.30050 0.21230 0.98430 -0.08600
C 	C 	0.97120 0.14470 0.44920 0.02000
C 	C 	0.13640 0.28190 0.73350 -0.05000
C 	C 	0.03930 0.15810 0.61580 0.05200
C 	C 	0.03640 0.13510 0.50280 0.07400
C 	C 	0.99500 0.23520 0.54000 -0.02500
C 	C 	0.15950 0.30830 0.80860 -0.01600
C 	C 	0.52500 0.19520 0.06300 -0.09300
C 	C 	0.03330 0.23290 0.56830 0.05200
C 	C 	0.40960 0.21330 0.05170 -0.02000
C 	C 	0.28580 0.18790 0.98220 0.07100
C 	C 	0.19800 0.10930 0.12920 0.01400
C 	C 	0.29590 0.07920 0.04720 0.05900
C 	C 	0.48720 0.19070 0.03090 0.06600
C 	C 	0.00990 0.15270 0.48090 -0.06900
C 	C 	0.24060 0.28840 0.76040 0.04800
C 	C 	0.30220 0.23440 0.01090 0.02800
C 	C 	0.05730 0.23930 0.61810 -0.10700
C 	C 	0.36280 0.26450 0.88210 0.08800
C 	C 	0.14000 0.33120 0.61490 -0.02500
C 	C 	0.04420 0.24760 0.64170 0.03600
C 	C 	0.17270 0.16470 0.95750 -0.04200
C 	C 	0.20250 0.05570 0.16530 -0.10200
C 	C 	0.51540 0.11940 0.98500 0.02300
C 	C 	0.35250 0.07500 0.58660 0.00700
C 	C 	0.30650 0.06840 0.09040 -0.05200
C 	C 	0.19450 0.32000 0.61030 0.02900
C 	C 	0.34290 0.30620 0.89440 0.02800
C 	C 	0.33730 0.11290 0.13300 -0.01600
C 	C 	0.22730 0.13780 0.02850 -0.08600
C 	C 	0.03080 0.13150 0.59790 -0.09800
C 	C 	0.22290 0.06140 0.15500 0.05900
C 	C 	0.22130 0.08710 0.13410 -0.04400
C 	C 	0.49530 0.16340 0.09310 0.03000
C 	C 	0.34440 0.06720 0.61810 -0.01700
C 	C 	0.47180 0.17530 0.04570 -0.08300
C 	C 	0.23100 0.24610 0.59140 0.06200
C 	C 	0.41850 0.28300 0.80840 0.01600
C 	C 	0.20800 0.25610 0.54880 -0.07300
C 	C 	0.42030 0.25400 0.80560 -0.04000
C 	C 	0.46700 0.28350 0.90040 0.01800
C 	C 	0.44080 0.29800 0.85640 -0.01100
C 	C 	0.46770 0.25280 0.89730 -0.10900
C 	C 	0.08060 0.21820 0.78830 -0.01200
C 	C 	0.10830 0.22370 0.83780 0.01200
C 	C 	0.14620 0.21450 0.86530 -0.02500
C 	C 	0.08510 0.20380 0.75740 0.03100
C 	C 	0.12330 0.19480 0.78520 -0.10100
C 	C 	0.44340 0.24030 0.85180 0.05600
C 	C 	0.15180 0.19970 0.83460 0.08100
C 	C 	0.20140 0.09800 0.50270 0.06000
C 	C 	0.22680 0.09050 0.46010 0.01800
S 	S 	0.15825 0.19872 0.63838 -1.10000
S 	S 	0.30201 0.13117 0.86325 -1.14300
S 	S 	0.26897 0.18091 0.74567 -1.15600
S 	S 	0.30446 0.10120 0.75607 -1.14200
S 	S 	0.19248 0.15255 0.75454 -1.15200
S 	S 	0.22754 0.07268 0.76174 -1.16000
S 	S 	0.19345 0.12231 0.64544 -1.15500
S 	S 	0.04881 0.22168 0.53770 -0.51200
S 	S 	0.23007 0.04461 0.65528 -1.08900
S 	S 	0.37604 0.15998 0.85429 -1.09000
S 	S 	0.15715 0.22994 0.73520 -0.54800
S 	S 	0.41074 0.11395 0.96049 -0.56800
S 	S 	0.26948 0.21566 0.85511 -0.84500
S 	S 	0.22423 0.10005 0.86527 -1.08700
S 	S 	0.33949 0.08965 0.98150 -0.52800
S 	S 	0.28653 0.15813 0.95433 -0.53400
S 	S 	0.13022 0.27983 0.62853 -0.49400
S 	S 	0.45904 0.20687 0.97206 -0.52600
S 	S 	0.24159 0.25849 0.73239 -0.52400
S 	S 	0.32658 0.02214 0.75403 -0.55300
S 	S 	0.35192 0.23228 0.85125 -0.57300
S 	S 	0.33880 0.04869 0.87676 -0.85200
S 	S 	0.37446 0.18210 0.96876 -0.51800
S 	S 	0.08542 0.17079 0.65650 -0.52500
S 	S 	0.26954 0.05711 0.99654 -0.52000
S 	S 	0.27103 0.15166 0.63521 -0.86200
S 	S 	0.08457 0.14604 0.54075 -0.54700
S 	S 	0.11969 0.24431 0.51410 -0.50400
S 	S 	0.19749 0.19134 0.86547 -0.52500
S 	S 	0.11410 0.09136 0.65119 -0.86000
S 	S 	0.33624 0.21644 0.73074 -0.52600
S 	S 	0.44622 0.20404 0.84641 -0.50100
S 	S 	0.24228 0.98524 0.05806 -0.51400
S 	S 	0.22529 0.22762 0.62838 -0.57600
S 	S 	0.31470 0.07377 0.66086 -0.52800
S 	S 	0.14971 0.03569 0.75934 -0.51300
S 	S 	0.25360 0.99320 0.77290 -0.52300
S 	S 	0.25291 0.03768 0.16088 -0.49900
S 	S 	0.25186 0.03015 0.87437 -0.59100
S 	S 	0.15389 0.16346 0.52608 -0.51700
S 	S 	0.38282 0.13535 0.76714 -0.58900
S 	S 	0.13101 0.11942 0.77855 -0.59900
S 	S 	0.11886 0.06991 0.54138 -0.52800
S 	S 	0.19203 0.12375 0.93348 -0.55500
S 	S 	0.15181 0.00416 0.03555 -0.53100
S 	S 	0.48028 0.13475 0.92656 -0.51600
S 	S 	0.16461 0.01590 0.66354 -0.59600
S 	S 	0.19732 0.08850 0.54454 -0.56500
S 	S 	0.15560 0.05345 0.87341 -0.49400
S 	S 	0.40844 0.07545 0.85500 -0.55000
S 	S 	0.55145 0.19692 0.99013 -0.46700
S 	S 	0.20016 0.06660 0.02192 -0.47800
Cd	Cd	0.31078 0.14258 0.80304 1.12400
Cd	Cd	0.23676 0.11453 0.80971 1.12400
Cd	Cd	0.23870 0.08592 0.70468 1.12500
Cd	Cd	0.28299 0.22175 0.80024 1.14200
Cd	Cd	0.34757 0.09278 0.91728 1.14300
Cd	Cd	0.20482 0.16263 0.69794 1.12400
Cd	Cd	0.12929 0.13037 0.70607 1.14000
Cd	Cd	0.12756 0.10695 0.59905 1.14200
Cd	Cd	0.34317 0.06104 0.81350 1.14300
Cd	Cd	0.27278 0.03689 0.82508 1.14100
Cd	Cd	0.39093 0.19468 0.91739 1.14900
Cd	Cd	0.17694 0.24291 0.68674 1.14800
Cd	Cd	0.30430 0.17442 0.90469 1.14100
Cd	Cd	0.16159 0.05647 0.70600 1.14300
Cd	Cd	0.41934 0.11954 0.89737 1.15200
Cd	Cd	0.20894 0.13281 0.59159 1.14000
Cd	Cd	0.16198 0.20586 0.57200 1.14800
Cd	Cd	0.48323 0.18615 0.93417 1.16000
Cd	Cd	0.20612 0.19675 0.80250 1.13900
Cd	Cd	0.09384 0.18374 0.59672 1.14900
Cd	Cd	0.21735 0.14321 0.89645 1.15400
Cd	Cd	0.21279 0.02323 0.06954 1.15900
Cd	Cd	0.27477 0.19096 0.68163 1.14000
Cd	Cd	0.26271 0.00360 0.71272 1.15000
Cd	Cd	0.27627 0.07006 0.93443 1.14900
Cd	Cd	0.31609 0.11778 0.70011 1.14400
Cd	Cd	0.24981 0.05636 0.60721 1.15000
Cd	Cd	0.38246 0.18273 0.79705 1.14800
Cd	Cd	0.16278 0.03178 0.59449 1.15000
Cd	Cd	0.20655 0.07414 0.95790 1.16200
Cd	Cd	0.08559 0.25986 0.54101 1.15900
Cd	Cd	0.16432 0.07389 0.81667 1.15200
C 	C 	0.20010 0.12280 0.47500 -0.04400
C 	C 	0.03300 0.02250 0.64700 -0.00100
C 	C 	0.54080 0.12460 0.04310 -0.04400
C 	C 	0.46410 0.05090 0.05800 0.03500
C 	C 	0.11520 0.02510 0.01770 0.02100
C 	C 	0.02060 0.13180 0.69860 0.02900
C 	C 	0.50640 0.08300 0.09600 0.01600
C 	C 	0.08510 0.09260 0.78300 -0.08300
C 	C 	0.24970 0.28870 0.57240 -0.00900
C 	C 	0.06090 0.13010 0.72120 -0.10000
C 	C 	0.01090 0.11190 0.70780 -0.01000
C 	C 	0.21140 0.27850 0.52780 0.01900
C 	C 	0.66580 0.48310 0.37690 0.03900
C 	C 	0.69370 0.49760 0.41950 -0.09300
C 	C 	0.69670 0.52570 0.41690 0.02500
C 	C 	0.67180 0.53920 0.37160 -0.01400
C 	C 	0.64390 0.52460 0.32900 0.01900
C 	C 	0.64090 0.49660 0.33160 -0.03400
C 	C 	0.94400 0.44370 0.39750 0.12500
C 	C 	0.97310 0.45330 0.40190 -0.05100
C 	C 	0.00040 0.46940 0.44240 0.02000
C 	C 	0.99870 0.47590 0.47860 -0.02400
C 	C 	0.96960 0.46630 0.47420 0.03200
C 	C 	0.94230 0.45020 0.43370 -0.13100
C 	C 	0.90750 0.36370 0.24780 0.10700
C 	C 	0.94370 0.35440 0.28140 -0.08200
C 	C 	0.96440 0.35290 0.26730 0.02600
C 	C 	0.94880 0.36070 0.21960 -0.02200
C 	C 	0.91270 0.37000 0.18600 0.03000
C 	C 	0.89200 0.37150 0.20010 -0.08600
C 	C 	0.86540 0.43669 0.52420 0.06600
C 	C 	0.88310 0.43250 0.57390 -0.02700
C 	C 	0.90670 0.45230 0.60920 0.01500
C 	C 	0.91270 0.47634 0.59470 -0.01600
C 	C 	0.89510 0.48053 0.54500 0.02900
C 	C 	0.87140 0.46070 0.50970 -0.11100
C 	C 	0.58410 0.27240 0.95710 0.04400
C 	C 	0.57160 0.26010 0.91330 -0.02600
C 	C 	0.54320 0.27210 0.86760 0.01200
C 	C 	0.52740 0.29640 0.86570 -0.01600
C 	C 	0.53990 0.30870 0.90950 0.03700
C 	C 	0.56830 0.29670 0.95520 -0.11900
C 	C 	0.78670 0.53280 0.30940 0.05900
C 	C 	0.77510 0.55900 0.30840 -0.02600
C 	C 	0.80090 0.57900 0.34020 0.01300
C 	C 	0.83830 0.57280 0.37300 -0.01800
C 	C 	0.84990 0.54660 0.37400 0.02800
C 	C 	0.82410 0.52660 0.34220 -0.11600
C 	C 	0.65660 0.42200 0.48650 0.05400
C 	C 	0.62670 0.43820 0.44970 -0.08000
C 	C 	0.59100 0.42830 0.42230 0.02300
C 	C 	0.58530 0.40240 0.43180 -0.01700
C 	C 	0.61520 0.38620 0.46870 0.01200
C 	C 	0.65090 0.39610 0.49600 -0.03500
C 	C 	0.86000 0.50400 0.29390 0.07000
C 	C 	0.85610 0.52850 0.27120 -0.05600
C 	C 	0.88440 0.54770 0.29710 0.02100
C 	C 	0.91650 0.54230 0.34570 -0.01900
C 	C 	0.92040 0.51780 0.36840 0.02900
C 	C 	0.89210 0.49870 0.34250 -0.08700
C 	C 	0.63600 0.51150 0.15530 0.09000
C 	C 	0.60520 0.51920 0.10720 -0.07700
C 	C 	0.58220 0.53980 0.09980 0.02200
C 	C 	0.59010 0.55270 0.14040 -0.01600
C 	C 	0.62090 0.54500 0.18850 0.02300
C 	C 	0.64390 0.52440 0.19600 -0.04900
C 	C 	0.84460 0.28400 0.18980 0.05100
C 	C 	0.84580 0.30720 0.16860 -0.12300
C 	C 	0.85430 0.30490 0.13850 0.02900
C 	C 	0.86150 0.27940 0.12960 -0.01800
C 	C 	0.86040 0.25610 0.15090 0.01000
C 	C 	0.85190 0.25840 0.18100 -0.02100
C 	C 	0.94200 0.40920 0.50910 0.08800
C 	C 	0.97430 0.39810 0.54500 -0.04900
C 	C 	0.99110 0.43810 0.59250 -0.02200
C 	C 	0.93620 0.43130 0.52350 -0.09500
C 	C 	0.76770 0.50130 0.40600 0.08300
C 	C 	0.79840 0.50710 0.45530 -0.08700
C 	C 	0.80710 0.53410 0.47160 0.02600
C 	C 	0.78510 0.55520 0.43850 -0.01800
C 	C 	0.75450 0.54940 0.38920 0.01800
C 	C 	0.74580 0.52240 0.37300 -0.04300
C 	C 	0.59910 0.46680 0.21200 0.03000
C 	C 	0.57570 0.44180 0.19650 -0.09800
C 	C 	0.53370 0.45030 0.14930 0.01200
C 	C 	0.57450 0.48630 0.16800 -0.02600
C 	C 	0.66840 0.31770 0.99160 -0.02500
C 	C 	0.70510 0.31550 0.00490 -0.05800
C 	C 	0.70120 0.29420 0.97100 0.00200
C 	C 	0.65860 0.30020 0.92240 -0.00100
C 	C 	0.63520 0.31410 0.93900 0.00400
C 	C 	0.57610 0.44740 0.01610 0.04000
C 	C 	0.55190 0.44980 0.96270 -0.01500
C 	C 	0.51550 0.46350 0.94120 0.00600
C 	C 	0.50980 0.47120 0.97290 -0.01200
C 	C 	0.53120 0.46860 0.02250 0.01700
C 	C 	0.56950 0.45670 0.04480 -0.11200
C 	C 	0.06620 0.31070 0.45760 0.05600
C 	C 	0.04270 0.30830 0.40510 -0.06900
C 	C 	0.05530 0.31640 0.38180 0.02100
C 	C 	0.09270 0.32500 0.40800 -0.01200
C 	C 	0.12110 0.32400 0.46440 0.01200
C 	C 	0.10400 0.31680 0.48650 -0.04100
C 	C 	0.65890 0.24030 0.26480 0.07400
C 	C 	0.74470 0.16160 0.26940 0.00800
C 	C 	0.69970 0.35680 0.47570 0.10800
C 	C 	0.74080 0.16470 0.30460 -0.01400
C 	C 	0.87910 0.18410 0.42760 -0.02000
C 	C 	0.47350 0.33220 0.07230 0.00900
C 	C 	0.86110 0.49170 0.63960 -0.01300
C 	C 	0.86570 0.26250 0.47330 -0.11300
C 	C 	0.87400 0.23820 0.50070 0.02900
C 	C 	0.72310 0.41950 0.99370 -0.07300
C 	C 	0.74610 0.18700 0.24510 -0.01700
C 	C 	0.73590 0.18910 0.31650 0.02600
C 	C 	0.65560 0.14700 0.10760 0.01100
C 	C 	0.77150 0.31520 0.50630 -0.07100
C 	C 	0.81340 0.50090 0.64140 -0.10600
C 	C 	0.46170 0.38310 0.95100 -0.01200
C 	C 	0.53150 0.39360 0.00730 -0.07700
C 	C 	0.83470 0.49540 0.58750 0.01300
C 	C 	0.90630 0.20140 0.43900 0.02600
C 	C 	0.80440 0.39400 0.54440 -0.11600
C 	C 	0.03410 0.33260 0.62520 -0.01800
C 	C 	0.82590 0.37710 0.58690 0.03400
C 	C 	0.49070 0.40460 0.97930 0.01500
C 	C 	0.65150 0.19480 0.11930 0.04800
C 	C 	0.89770 0.22620 0.41620 -0.07100
C 	C 	0.78680 0.26890 0.53390 -0.01600
C 	C 	0.49260 0.37780 0.06460 0.02200
C 	C 	0.67930 0.39640 0.64480 -0.01400
C 	C 	0.50560 0.25090 0.11350 -0.01100
C 	C 	0.67900 0.20180 0.11820 -0.09500
C 	C 	0.68080 0.31660 0.50090 0.00900
C 	C 	0.88420 0.28590 0.50040 0.05400
C 	C 	0.67830 0.42380 0.66140 0.02400
C 	C 	0.81460 0.38240 0.06330 0.02400
C 	C 	0.85160 0.49360 0.66780 0.03100
C 	C 	0.82810 0.41380 0.63460 0.01000
C 	C 	0.83360 0.21950 0.36960 -0.08800
C 	C 	0.67970 0.21420 0.33810 0.02600
C 	C 	0.70990 0.32470 0.55300 -0.01400
C 	C 	0.91650 0.26210 0.57720 0.01200
C 	C 	0.77150 0.29340 0.53110 0.02300
C 	C 	0.51150 0.32310 0.10330 -0.02400
C 	C 	0.80600 0.39140 0.09180 -0.10300
C 	C 	0.89890 0.23880 0.55190 -0.01600
C 	C 	0.68020 0.23810 0.31670 -0.07800
C 	C 	0.83670 0.40170 0.06040 -0.01300
C 	C 	0.73710 0.21340 0.29520 -0.11200
C 	C 	0.48140 0.25670 0.06110 0.00900
C 	C 	0.73460 0.34660 0.56820 0.02400
C 	C 	0.78930 0.50530 0.58970 0.05100
C 	C 	0.68460 0.15360 0.10900 -0.01400
C 	C 	0.63740 0.19340 0.25690 0.01800
C 	C 	0.46610 0.35800 0.05120 -0.01400
C 	C 	0.04830 0.31690 0.60950 0.02400
C 	C 	0.79990 0.50290 0.56290 -0.03000
C 	C 	0.81990 0.41490 0.11770 0.04900
C 	C 	0.58480 0.38270 0.25190 0.11900
C 	C 	0.80050 0.28770 0.48430 -0.08500
C 	C 	0.47120 0.35530 0.94920 0.02000
C 	C 	0.63640 0.21810 0.23350 -0.05000
C 	C 	0.53930 0.34190 0.11580 0.05200
C 	C 	0.53640 0.36490 0.00280 0.07400
C 	C 	0.49500 0.26480 0.04000 -0.02500
C 	C 	0.65950 0.19170 0.30860 -0.01600
C 	C 	0.02500 0.30480 0.56300 -0.09300
C 	C 	0.53330 0.26710 0.06830 0.05200
C 	C 	0.90960 0.28670 0.55170 -0.02000
C 	C 	0.78580 0.31210 0.48220 0.07100
C 	C 	0.69800 0.39070 0.62920 0.01400
C 	C 	0.79590 0.42080 0.54720 0.05900
C 	C 	0.98720 0.30930 0.53090 0.06600
C 	C 	0.50990 0.34730 0.98090 -0.06900
C 	C 	0.74060 0.21160 0.26040 0.04800
C 	C 	0.80220 0.26560 0.51090 0.02800
C 	C 	0.55730 0.26070 0.11810 -0.10700
C 	C 	0.86280 0.23550 0.38210 0.08800
C 	C 	0.64000 0.16880 0.11490 -0.02500
C 	C 	0.54420 0.25240 0.14170 0.03600
C 	C 	0.67270 0.33530 0.45750 -0.04200
C 	C 	0.70250 0.44430 0.66530 -0.10200
C 	C 	0.01540 0.38060 0.48500 0.02300
C 	C 	0.85250 0.42500 0.08660 0.00700
C 	C 	0.80650 0.43160 0.59040 -0.05200
C 	C 	0.69450 0.18000 0.11030 0.02900
C 	C 	0.84290 0.19380 0.39440 0.02800
C 	C 	0.83730 0.38710 0.63300 -0.01600
C 	C 	0.72730 0.36220 0.52850 -0.08600
C 	C 	0.53080 0.36850 0.09790 -0.09800
C 	C 	0.72290 0.43860 0.65500 0.05900
C 	C 	0.72130 0.41290 0.63410 -0.04400
C 	C 	0.99530 0.33660 0.59310 0.03000
C 	C 	0.84440 0.43280 0.11810 -0.01700
C 	C 	0.97180 0.32470 0.54570 -0.08200
C 	C 	0.73100 0.25390 0.09140 0.06200
C 	C 	0.91850 0.21700 0.30840 0.01600
C 	C 	0.70800 0.24390 0.04880 -0.07300
C 	C 	0.92030 0.24600 0.30560 -0.04000
C 	C 	0.96700 0.21650 0.40040 0.01800
C 	C 	0.94080 0.20200 0.35640 -0.01100
C 	C 	0.96770 0.24720 0.39730 -0.11000
C 	C 	0.58060 0.28180 0.28830 -0.01200
C 	C 	0.60830 0.27630 0.33780 0.01200
C 	C 	0.64620 0.28550 0.36530 -0.02500
C 	C 	0.58510 0.29620 0.25740 0.03100
C 	C 	0.62330 0.30520 0.28520 -0.10100
C 	C 	0.94340 0.25970 0.35180 0.05600
C 	C 	0.65180 0.30030 0.33460 0.08100
C 	C 	0.70140 0.40200 0.00270 0.06000
C 	C 	0.72680 0.40950 0.96010 0.01800
S 	S 	0.65825 0.30128 0.13838 -1.10000
S 	S 	0.80201 0.36883 0.36325 -1.14300
S 	S 	0.76897 0.31909 0.24567 -1.15600
S 	S 	0.80446 0.39880 0.25607 -1.14200
S 	S 	0.69248 0.34745 0.25454 -1.15200
S 	S 	0.72754 0.42732 0.26174 -1.16000
S 	S 	0.69345 0.37769 0.14544 -1.15500
S 	S 	0.54881 0.27832 0.03770 -0.51200
S 	S 	0.73007 0.45539 0.15528 -1.08900
S 	S 	0.87604 0.34002 0.35429 -1.09000
S 	S 	0.65715 0.27006 0.23520 -0.54800
S 	S 	0.91074 0.38605 0.46049 -0.56800
S 	S 	0.76948 0.28434 0.35511 -0.84500
S 	S 	0.72423 0.39995 0.36527 -1.08700
S 	S 	0.83949 0.41035 0.48150 -0.52700
S 	S 	0.78653 0.34187 0.45433 -0.53400
S 	S 	0.63022 0.22017 0.12853 -0.49400
S 	S 	0.95904 0.29313 0.47206 -0.52600
S 	S 	0.74159 0.24151 0.23239 -0.52400
S 	S 	0.82658 0.47786 0.25403 -0.55300
S 	S 	0.85192 0.26772 0.35125 -0.57300
S 	S 	0.83880 0.45131 0.37676 -0.85200
S 	S 	0.87446 0.31790 0.46876 -0.51800
S 	S 	0.58542 0.32921 0.15650 -0.52500
S 	S 	0.76954 0.44289 0.49654 -0.51900
S 	S 	0.77103 0.34834 0.13521 -0.86200
S 	S 	0.58457 0.35396 0.04075 -0.54700
S 	S 	0.61969 0.25569 0.01410 -0.50400
S 	S 	0.69749 0.30866 0.36547 -0.52500
S 	S 	0.61410 0.40864 0.15119 -0.86000
S 	S 	0.83624 0.28356 0.23074 -0.52600
S 	S 	0.94622 0.29596 0.34641 -0.50100
S 	S 	0.74228 0.51476 0.55806 -0.51400
S 	S 	0.72529 0.27238 0.12838 -0.57600
S 	S 	0.81470 0.42623 0.16086 -0.52800
S 	S 	0.64971 0.46431 0.25934 -0.51300
S 	S 	0.75360 0.50680 0.27290 -0.52300
S 	S 	0.75291 0.46232 0.66088 -0.49900
S 	S 	0.75186 0.46985 0.37437 -0.59100
S 	S 	0.65389 0.33654 0.02608 -0.51700
S 	S 	0.88282 0.36465 0.26714 -0.58900
S 	S 	0.63101 0.38058 0.27855 -0.59900
S 	S 	0.61886 0.43009 0.04138 -0.52800
S 	S 	0.69203 0.37625 0.43348 -0.55500
S 	S 	0.65181 0.49584 0.53555 -0.53100
S 	S 	0.98028 0.36525 0.42656 -0.51600
S 	S 	0.66461 0.48410 0.16354 -0.59600
S 	S 	0.69732 0.41150 0.04454 -0.56500
S 	S 	0.65560 0.44655 0.37341 -0.49400
S 	S 	0.90844 0.42455 0.35500 -0.55000
S 	S 	0.05145 0.30308 0.49013 -0.46700
S 	S 	0.70016 0.43340 0.52192 -0.47800
Cd	Cd	0.81078 0.35742 0.30304 1.12400
Cd	Cd	0.73676 0.38547 0.30971 1.12300
Cd	Cd	0.73870 0.41408 0.20468 1.12500
Cd	Cd	0.78299 0.27825 0.30024 1.14200
Cd	Cd	0.84757 0.40722 0.41728 1.14300
Cd	Cd	0.70482 0.33737 0.19794 1.12400
Cd	Cd	0.62929 0.36963 0.20607 1.14000
Cd	Cd	0.62756 0.39305 0.09905 1.14200
Cd	Cd	0.84317 0.43896 0.31350 1.14300
Cd	Cd	0.77278 0.46311 0.32508 1.14100
Cd	Cd	0.89093 0.30532 0.41739 1.14900
Cd	Cd	0.67694 0.25709 0.18674 1.14800
Cd	Cd	0.80430 0.32558 0.40469 1.14100
Cd	Cd	0.66159 0.44353 0.20600 1.14300
Cd	Cd	0.91934 0.38046 0.39737 1.15200
Cd	Cd	0.70894 0.36719 0.09159 1.14000
Cd	Cd	0.66198 0.29414 0.07200 1.14800
Cd	Cd	0.98323 0.31385 0.43417 1.16000
Cd	Cd	0.70612 0.30325 0.30250 1.13900
Cd	Cd	0.59384 0.31626 0.09672 1.14900
Cd	Cd	0.71735 0.35679 0.39645 1.15400
Cd	Cd	0.71279 0.47677 0.56954 1.15900
Cd	Cd	0.77477 0.30904 0.18163 1.14000
Cd	Cd	0.76271 0.49640 0.21272 1.15000
Cd	Cd	0.77627 0.42994 0.43443 1.14900
Cd	Cd	0.81609 0.38222 0.20011 1.14400
Cd	Cd	0.74981 0.44364 0.10721 1.15000
Cd	Cd	0.88246 0.31727 0.29705 1.14800
Cd	Cd	0.66278 0.46822 0.09449 1.15000
Cd	Cd	0.70655 0.42586 0.45790 1.16200
Cd	Cd	0.58559 0.24014 0.04101 1.15900
Cd	Cd	0.66432 0.42611 0.31667 1.15200
C 	C 	0.70010 0.37720 0.97500 -0.04400
C 	C 	0.53300 0.47750 0.14700 -0.00100
C 	C 	0.04080 0.37540 0.54310 -0.04400
C 	C 	0.96410 0.44910 0.55800 0.03500
C 	C 	0.61520 0.47490 0.51770 0.02200
C 	C 	0.52060 0.36820 0.19860 0.02900
C 	C 	0.00640 0.41700 0.59600 0.01600
C 	C 	0.58510 0.40740 0.28300 -0.08300
C 	C 	0.74970 0.21130 0.07240 -0.00900
C 	C 	0.56090 0.36990 0.22120 -0.10000
C 	C 	0.51090 0.38810 0.20780 -0.01000
C 	C 	0.71140 0.22150 0.02780 0.01900
C 	C 	0.16580 0.98310 0.37690 0.03900
C 	C 	0.19370 0.99760 0.41950 -0.09300
C 	C 	0.19670 0.02570 0.41690 0.02500
C 	C 	0.17180 0.03920 0.37160 -0.01400
C 	C 	0.14390 0.02460 0.32900 0.01900
C 	C 	0.14090 0.99660 0.33160 -0.03400
C 	C 	0.44400 0.94370 0.39750 0.12500
C 	C 	0.47310 0.95330 0.40190 -0.05100
C 	C 	0.50040 0.96940 0.44240 0.02000
C 	C 	0.49870 0.97590 0.47860 -0.02400
C 	C 	0.46960 0.96630 0.47420 0.03200
C 	C 	0.44230 0.95020 0.43370 -0.13100
C 	C 	0.40750 0.86370 0.24780 0.10700
C 	C 	0.44370 0.85440 0.28140 -0.08200
C 	C 	0.46440 0.85290 0.26730 0.02600
C 	C 	0.44880 0.86070 0.21960 -0.02200
C 	C 	0.41270 0.87000 0.18600 0.03000
C 	C 	0.39200 0.87150 0.20010 -0.08600
C 	C 	0.36540 0.93669 0.52420 0.06600
C 	C 	0.38310 0.93250 0.57390 -0.02700
C 	C 	0.40670 0.95230 0.60920 0.01500
C 	C 	0.41270 0.97634 0.59470 -0.01600
C 	C 	0.39510 0.98053 0.54500 0.02900
C 	C 	0.37140 0.96070 0.50970 -0.11100
C 	C 	0.08410 0.77240 0.95710 0.04400
C 	C 	0.07160 0.76010 0.91330 -0.02600
C 	C 	0.04320 0.77210 0.86760 0.01200
C 	C 	0.02740 0.79640 0.86570 -0.01600
C 	C 	0.03990 0.80870 0.90950 0.03700
C 	C 	0.06830 0.79670 0.95520 -0.12000
C 	C 	0.28670 0.03280 0.30940 0.05900
C 	C 	0.27510 0.05900 0.30840 -0.02600
C 	C 	0.30090 0.07900 0.34020 0.01300
C 	C 	0.33830 0.07280 0.37300 -0.01800
C 	C 	0.34990 0.04660 0.37400 0.02800
C 	C 	0.32410 0.02660 0.34220 -0.11600
C 	C 	0.15660 0.92200 0.48650 0.05400
C 	C 	0.12670 0.93820 0.44970 -0.08000
C 	C 	0.09100 0.92830 0.42230 0.02300
C 	C 	0.08530 0.90240 0.43180 -0.01700
C 	C 	0.11520 0.88620 0.46870 0.01200
C 	C 	0.15090 0.89610 0.49600 -0.03500
C 	C 	0.36000 0.00400 0.29390 0.07000
C 	C 	0.35610 0.02850 0.27120 -0.05600
C 	C 	0.38440 0.04770 0.29710 0.02100
C 	C 	0.41650 0.04230 0.34570 -0.01900
C 	C 	0.42040 0.01780 0.36840 0.02900
C 	C 	0.39210 0.99870 0.34250 -0.08700
C 	C 	0.13600 0.01150 0.15530 0.09000
C 	C 	0.10520 0.01920 0.10720 -0.07700
C 	C 	0.08220 0.03980 0.09980 0.02200
C 	C 	0.09010 0.05270 0.14040 -0.01600
C 	C 	0.12090 0.04500 0.18850 0.02300
C 	C 	0.14390 0.02440 0.19600 -0.04900
C 	C 	0.34460 0.78400 0.18980 0.05100
C 	C 	0.34580 0.80720 0.16860 -0.12300
C 	C 	0.35430 0.80490 0.13850 0.02900
C 	C 	0.36150 0.77940 0.12960 -0.01800
C 	C 	0.36040 0.75610 0.15090 0.01000
C 	C 	0.35190 0.75840 0.18100 -0.02100
C 	C 	0.44200 0.90920 0.50910 0.08800
C 	C 	0.47430 0.89810 0.54500 -0.04900
C 	C 	0.49110 0.93810 0.59250 -0.02200
C 	C 	0.43620 0.93130 0.52350 -0.09500
C 	C 	0.26770 0.00130 0.40600 0.08300
C 	C 	0.29840 0.00710 0.45530 -0.08700
C 	C 	0.30710 0.03410 0.47160 0.02600
C 	C 	0.28510 0.05520 0.43850 -0.01800
C 	C 	0.25450 0.04940 0.38920 0.01800
C 	C 	0.24580 0.02240 0.37300 -0.04300
C 	C 	0.09910 0.96680 0.21200 0.03000
C 	C 	0.07570 0.94180 0.19650 -0.09800
C 	C 	0.03370 0.95030 0.14930 0.01200
C 	C 	0.07450 0.98630 0.16800 -0.02600
C 	C 	0.16840 0.81770 0.99160 -0.02500
C 	C 	0.20510 0.81550 0.00490 -0.05700
C 	C 	0.20120 0.79420 0.97100 0.00200
C 	C 	0.15860 0.80020 0.92240 -0.00100
C 	C 	0.13520 0.81410 0.93900 0.00400
C 	C 	0.07610 0.94740 0.01610 0.04000
C 	C 	0.05190 0.94980 0.96270 -0.01500
C 	C 	0.01550 0.96350 0.94120 0.00600
C 	C 	0.00980 0.97120 0.97290 -0.01200
C 	C 	0.03120 0.96860 0.02250 0.01700
C 	C 	0.06950 0.95670 0.04480 -0.11200
C 	C 	0.56620 0.81070 0.45760 0.05600
C 	C 	0.54270 0.80830 0.40510 -0.06900
C 	C 	0.55530 0.81640 0.38180 0.02100
C 	C 	0.59270 0.82500 0.40800 -0.01200
C 	C 	0.62110 0.82400 0.46440 0.01200
C 	C 	0.60400 0.81680 0.48650 -0.04100
C 	C 	0.15890 0.74030 0.26480 0.07400
C 	C 	0.24470 0.66160 0.26940 0.00800
C 	C 	0.19970 0.85680 0.47570 0.10800
C 	C 	0.24080 0.66470 0.30460 -0.01400
C 	C 	0.37910 0.68410 0.42760 -0.02000
C 	C 	0.97350 0.83220 0.07230 0.00900
C 	C 	0.36110 0.99170 0.63960 -0.01300
C 	C 	0.36570 0.76250 0.47330 -0.11300
C 	C 	0.37400 0.73820 0.50070 0.02900
C 	C 	0.22310 0.91950 0.99370 -0.07300
C 	C 	0.24610 0.68700 0.24510 -0.01700
C 	C 	0.23590 0.68910 0.31650 0.02600
C 	C 	0.15560 0.64700 0.10760 0.01100
C 	C 	0.27150 0.81520 0.50630 -0.07100
C 	C 	0.31340 0.00090 0.64140 -0.10600
C 	C 	0.96170 0.88310 0.95100 -0.01200
C 	C 	0.03150 0.89360 0.00730 -0.07700
C 	C 	0.33470 0.99540 0.58750 0.01300
C 	C 	0.40630 0.70140 0.43900 0.02600
C 	C 	0.30440 0.89400 0.54440 -0.11600
C 	C 	0.53410 0.83260 0.62520 -0.01800
C 	C 	0.32590 0.87710 0.58690 0.03400
C 	C 	0.99070 0.90460 0.97930 0.01500
C 	C 	0.15150 0.69480 0.11930 0.04800
C 	C 	0.39770 0.72620 0.41620 -0.07100
C 	C 	0.28680 0.76890 0.53390 -0.01600
C 	C 	0.99260 0.87780 0.06460 0.02200
C 	C 	0.17930 0.89640 0.64480 -0.01400
C 	C 	0.00560 0.75090 0.11350 -0.01100
C 	C 	0.17900 0.70180 0.11820 -0.09500
C 	C 	0.18080 0.81660 0.50090 0.00900
C 	C 	0.38420 0.78590 0.50040 0.05400
C 	C 	0.17830 0.92380 0.66140 0.02400
C 	C 	0.31460 0.88240 0.06330 0.02400
C 	C 	0.35160 0.99360 0.66780 0.03100
C 	C 	0.32810 0.91380 0.63460 0.01000
C 	C 	0.33360 0.71950 0.36960 -0.08800
C 	C 	0.17970 0.71420 0.33810 0.02600
C 	C 	0.20990 0.82470 0.55300 -0.01400
C 	C 	0.41650 0.76210 0.57720 0.01200
C 	C 	0.27150 0.79340 0.53110 0.02300
C 	C 	0.01150 0.82310 0.10330 -0.02400
C 	C 	0.30600 0.89140 0.09180 -0.10300
C 	C 	0.39890 0.73880 0.55190 -0.01600
C 	C 	0.18020 0.73810 0.31670 -0.07800
C 	C 	0.33670 0.90170 0.06040 -0.01300
C 	C 	0.23710 0.71340 0.29520 -0.11200
C 	C 	0.98140 0.75670 0.06110 0.00900
C 	C 	0.23460 0.84660 0.56820 0.02400
C 	C 	0.28930 0.00530 0.58970 0.05100
C 	C 	0.18460 0.65360 0.10900 -0.01400
C 	C 	0.13740 0.69340 0.25690 0.01800
C 	C 	0.96610 0.85800 0.05120 -0.01400
C 	C 	0.54830 0.81690 0.60950 0.02400
C 	C 	0.29990 0.00290 0.56290 -0.03000
C 	C 	0.31990 0.91490 0.11770 0.04900
C 	C 	0.08480 0.88270 0.25190 0.11900
C 	C 	0.30050 0.78770 0.48430 -0.08500
C 	C 	0.97120 0.85530 0.94920 0.02000
C 	C 	0.13640 0.71810 0.23350 -0.05000
C 	C 	0.03930 0.84190 0.11580 0.05200
C 	C 	0.03640 0.86490 0.00280 0.07400
C 	C 	0.99500 0.76480 0.04000 -0.02600
C 	C 	0.15950 0.69170 0.30860 -0.01600
C 	C 	0.52500 0.80480 0.56300 -0.09300
C 	C 	0.03330 0.76710 0.06830 0.05200
C 	C 	0.40960 0.78670 0.55170 -0.02000
C 	C 	0.28580 0.81210 0.48220 0.07100
C 	C 	0.19800 0.89070 0.62920 0.01400
C 	C 	0.29590 0.92080 0.54720 0.05900
C 	C 	0.48720 0.80930 0.53090 0.06600
C 	C 	0.00990 0.84730 0.98090 -0.06900
C 	C 	0.24060 0.71160 0.26040 0.04800
C 	C 	0.30220 0.76560 0.51090 0.02800
C 	C 	0.05730 0.76070 0.11810 -0.10700
C 	C 	0.36280 0.73550 0.38210 0.08800
C 	C 	0.14000 0.66880 0.11490 -0.02500
C 	C 	0.04420 0.75240 0.14170 0.03600
C 	C 	0.17270 0.83530 0.45750 -0.04200
C 	C 	0.20250 0.94430 0.66530 -0.10200
C 	C 	0.51540 0.88060 0.48500 0.02300
C 	C 	0.35250 0.92500 0.08660 0.00700
C 	C 	0.30650 0.93160 0.59040 -0.05200
C 	C 	0.19450 0.68000 0.11030 0.02900
C 	C 	0.34290 0.69380 0.39440 0.02800
C 	C 	0.33730 0.88710 0.63300 -0.01600
C 	C 	0.22730 0.86220 0.52850 -0.08600
C 	C 	0.03080 0.86850 0.09790 -0.09800
C 	C 	0.22290 0.93860 0.65500 0.05900
C 	C 	0.22130 0.91290 0.63410 -0.04400
C 	C 	0.49530 0.83660 0.59310 0.03000
C 	C 	0.34440 0.93280 0.11810 -0.01700
C 	C 	0.47180 0.82470 0.54570 -0.08200
C 	C 	0.23100 0.75390 0.09140 0.06200
C 	C 	0.41850 0.71700 0.30840 0.01600
C 	C 	0.20800 0.74390 0.04880 -0.07300
C 	C 	0.42030 0.74600 0.30560 -0.04000
C 	C 	0.46700 0.71650 0.40040 0.01800
C 	C 	0.44080 0.70200 0.35640 -0.01100
C 	C 	0.46770 0.74720 0.39730 -0.10900
C 	C 	0.08060 0.78180 0.28830 -0.01200
C 	C 	0.10830 0.77630 0.33780 0.01200
C 	C 	0.14620 0.78550 0.36530 -0.02500
C 	C 	0.08510 0.79620 0.25740 0.03100
C 	C 	0.12330 0.80520 0.28520 -0.10100
C 	C 	0.44340 0.75970 0.35180 0.05600
C 	C 	0.15180 0.80030 0.33460 0.08100
C 	C 	0.20140 0.90200 0.00270 0.06000
C 	C 	0.22680 0.90950 0.96010 0.01800
S 	S 	0.15825 0.80128 0.13838 -1.10000
S 	S 	0.30201 0.86883 0.36325 -1.14300
S 	S 	0.26897 0.81909 0.24567 -1.15600
S 	S 	0.30446 0.89880 0.25607 -1.14200
S 	S 	0.19248 0.84745 0.25454 -1.15200
S 	S 	0.22754 0.92732 0.26174 -1.16000
S 	S 	0.19345 0.87769 0.14544 -1.15500
S 	S 	0.04881 0.77832 0.03770 -0.51200
S 	S 	0.23007 0.95539 0.15528 -1.08900
S 	S 	0.37604 0.84002 0.35429 -1.09000
S 	S 	0.15715 0.77006 0.23520 -0.54800
S 	S 	0.41074 0.88605 0.46049 -0.56700
S 	S 	0.26948 0.78434 0.35511 -0.84500
S 	S 	0.22423 0.89995 0.36527 -1.08700
S 	S 	0.33949 0.91035 0.48150 -0.52700
S 	S 	0.28653 0.84187 0.45433 -0.53400
S 	S 	0.13022 0.72017 0.12853 -0.49400
S 	S 	0.45904 0.79313 0.47206 -0.52600
S 	S 	0.24159 0.74151 0.23239 -0.52400
S 	S 	0.32658 0.97786 0.25403 -0.55300
S 	S 	0.35192 0.76772 0.35125 -0.57300
S 	S 	0.33880 0.95131 0.37676 -0.85200
S 	S 	0.37446 0.81790 0.46876 -0.51800
S 	S 	0.08542 0.82921 0.15650 -0.52500
S 	S 	0.26954 0.94289 0.49654 -0.51900
S 	S 	0.27103 0.84834 0.13521 -0.86200
S 	S 	0.08457 0.85396 0.04075 -0.54700
S 	S 	0.11969 0.75569 0.01410 -0.50400
S 	S 	0.19749 0.80866 0.36547 -0.52500
S 	S 	0.11410 0.90864 0.15119 -0.86000
S 	S 	0.33624 0.78356 0.23074 -0.52600
S 	S 	0.44622 0.79596 0.34641 -0.50100
S 	S 	0.24228 0.01476 0.55806 -0.51400
S 	S 	0.22529 0.77238 0.12838 -0.57600
S 	S 	0.31470 0.92623 0.16086 -0.52800
S 	S 	0.14971 0.96431 0.25934 -0.51300
S 	S 	0.25360 0.00680 0.27290 -0.52300
S 	S 	0.25291 0.96232 0.66088 -0.49900
S 	S 	0.25186 0.96985 0.37437 -0.59100
S 	S 	0.15389 0.83654 0.02608 -0.51700
S 	S 	0.38282 0.86465 0.26714 -0.58900
S 	S 	0.13101 0.88058 0.27855 -0.59900
S 	S 	0.11886 0.93009 0.04138 -0.52800
S 	S 	0.19203 0.87625 0.43348 -0.55500
S 	S 	0.15181 0.99584 0.53555 -0.53100
S 	S 	0.48028 0.86525 0.42656 -0.51600
S 	S 	0.16461 0.98410 0.16354 -0.59600
S 	S 	0.19732 0.91150 0.04454 -0.56500
S 	S 	0.15560 0.94655 0.37341 -0.49400
S 	S 	0.40844 0.92455 0.35500 -0.55000
S 	S 	0.55145 0.80308 0.49013 -0.46700
S 	S 	0.20016 0.93340 0.52192 -0.47800
Cd	Cd	0.31078 0.85742 0.30304 1.12400
Cd	Cd	0.23676 0.88547 0.30971 1.12300
Cd	Cd	0.23870 0.91408 0.20468 1.12500
Cd	Cd	0.28299 0.77825 0.30024 1.14200
Cd	Cd	0.34757 0.90722 0.41728 1.14300
Cd	Cd	0.20482 0.83737 0.19794 1.12400
Cd	Cd	0.12929 0.86963 0.20607 1.14000
Cd	Cd	0.12756 0.89305 0.09905 1.14200
Cd	Cd	0.34317 0.93896 0.31350 1.14300
Cd	Cd	0.27278 0.96311 0.32508 1.14100
Cd	Cd	0.39093 0.80532 0.41739 1.14900
Cd	Cd	0.17694 0.75709 0.18674 1.14800
Cd	Cd	0.30430 0.82558 0.40469 1.14100
Cd	Cd	0.16159 0.94352 0.20600 1.14300
Cd	Cd	0.41934 0.88046 0.39737 1.15200
Cd	Cd	0.20894 0.86719 0.09159 1.14000
Cd	Cd	0.16198 0.79414 0.07200 1.14800
Cd	Cd	0.48323 0.81385 0.43417 1.16000
Cd	Cd	0.20612 0.80325 0.30250 1.13900
Cd	Cd	0.09384 0.81625 0.09672 1.14900
Cd	Cd	0.21735 0.85679 0.39645 1.15400
Cd	Cd	0.21279 0.97677 0.56954 1.15900
Cd	Cd	0.27477 0.80904 0.18163 1.14000
Cd	Cd	0.26271 0.99640 0.21272 1.15000
Cd	Cd	0.27627 0.92993 0.43443 1.14900
Cd	Cd	0.31609 0.88222 0.20011 1.14400
Cd	Cd	0.24981 0.94364 0.10721 1.15000
Cd	Cd	0.38246 0.81727 0.29705 1.14800
Cd	Cd	0.16278 0.96822 0.09449 1.15000
Cd	Cd	0.20655 0.92586 0.45790 1.16200
Cd	Cd	0.08559 0.74014 0.04101 1.15900
Cd	Cd	0.16432 0.92611 0.31667 1.15200
C 	C 	0.20010 0.87720 0.97500 -0.04400
C 	C 	0.03300 0.97750 0.14700 -0.00100
C 	C 	0.54080 0.87540 0.54310 -0.04300
C 	C 	0.46410 0.94910 0.55800 0.03500
C 	C 	0.11520 0.97490 0.51770 0.02200
C 	C 	0.02060 0.86820 0.19860 0.02900
C 	C 	0.50640 0.91700 0.59600 0.01700
C 	C 	0.08510 0.90740 0.28300 -0.08300
C 	C 	0.24970 0.71130 0.07240 -0.00900
C 	C 	0.06090 0.86990 0.22120 -0.10000
C 	C 	0.01090 0.88810 0.20780 -0.01000
C 	C 	0.21140 0.72150 0.02780 0.01900
