data_crystal

_cell_length_a 46.37400
_cell_length_b 51.58100
_cell_length_c 53.40700
_cell_angle_alpha 90.00000
_cell_angle_beta  90.00000
_cell_angle_gamma 90.00000

_symmetry_space_group_name_	'P 1'
_symmetry_space_group_name_H-M	'P 1'

loop_
_symmetry_equiv_pos_as_xyz
  x,y,z

loop_
_atom_site_label
_atom_site_type_symbol
_atom_site_fract_x
_atom_site_fract_y
_atom_site_fract_z
_atom_site_charge
C 	C 	0.49490 0.52040 0.79100 0.05400
C 	C 	0.46990 0.51670 0.77670 -0.02700
C 	C 	0.44310 0.51130 0.78750 0.01200
C 	C 	0.44150 0.50730 0.81310 -0.01300
C 	C 	0.46510 0.50990 0.82800 0.03900
C 	C 	0.49120 0.51770 0.81700 -0.10700
C 	C 	0.76840 0.50960 0.93440 0.06000
C 	C 	0.76730 0.49580 0.95680 -0.10800
C 	C 	0.76130 0.46790 0.95690 0.02700
C 	C 	0.75750 0.45450 0.93670 -0.01700
C 	C 	0.75920 0.46940 0.91520 0.02500
C 	C 	0.76540 0.49580 0.91410 -0.05000
C 	C 	0.66170 0.49560 0.95080 0.08400
C 	C 	0.63520 0.48530 0.95330 -0.09100
C 	C 	0.62610 0.46040 0.96650 0.02600
C 	C 	0.64810 0.44980 0.97890 -0.01400
C 	C 	0.67730 0.45620 0.97540 0.01700
C 	C 	0.68390 0.47720 0.96050 -0.04100
C 	C 	0.47890 0.59710 0.80820 0.05900
C 	C 	0.45600 0.57980 0.80250 -0.02700
C 	C 	0.43530 0.58870 0.78520 0.01000
C 	C 	0.43640 0.61500 0.77350 -0.01200
C 	C 	0.46000 0.63090 0.77900 0.02300
C 	C 	0.48130 0.62170 0.79740 -0.09800
C 	C 	0.50670 0.51460 0.88740 0.08900
C 	C 	0.50970 0.49000 0.88150 -0.07700
C 	C 	0.48670 0.47200 0.89180 0.02000
C 	C 	0.46480 0.48320 0.90850 -0.01100
C 	C 	0.45970 0.51070 0.90890 0.01500
C 	C 	0.48160 0.52640 0.89400 -0.04400
C 	C 	0.49030 0.56340 0.94870 0.07800
C 	C 	0.50560 0.54470 0.95840 -0.11600
C 	C 	0.49440 0.52590 0.97370 0.03200
C 	C 	0.46500 0.52790 0.98290 -0.01800
C 	C 	0.44640 0.54650 0.97230 0.01300
C 	C 	0.46030 0.56550 0.95410 -0.03000
C 	C 	0.54460 0.58460 0.00300 0.08000
C 	C 	0.55840 0.56210 0.00840 -0.08700
C 	C 	0.54660 0.54360 0.02360 0.03300
C 	C 	0.51960 0.54870 0.03540 -0.02500
C 	C 	0.50750 0.57190 0.03070 0.03700
C 	C 	0.51690 0.58600 0.01300 -0.07500
C 	C 	0.59410 0.47600 0.90160 0.05200
C 	C 	0.57250 0.48420 0.91700 -0.11000
C 	C 	0.55560 0.46640 0.93350 0.02000
C 	C 	0.56370 0.43800 0.93110 -0.00800
C 	C 	0.58940 0.43140 0.91420 0.00800
C 	C 	0.60270 0.45060 0.89750 -0.01600
C 	C 	0.58470 0.45270 0.83180 0.04900
C 	C 	0.57200 0.42830 0.83830 -0.01700
C 	C 	0.59400 0.41090 0.84340 0.01200
C 	C 	0.62190 0.41380 0.83610 -0.01300
C 	C 	0.63280 0.43640 0.83200 0.03000
C 	C 	0.61260 0.45910 0.82870 -0.10000
C 	C 	0.53664 0.61283 0.75344 0.05800
C 	C 	0.53030 0.63916 0.75350 -0.08200
C 	C 	0.50810 0.64867 0.73858 0.03000
C 	C 	0.49230 0.63180 0.72359 -0.01500
C 	C 	0.49870 0.60550 0.72353 0.02000
C 	C 	0.52082 0.59600 0.73845 -0.04900
C 	C 	0.60850 0.51531 0.74000 0.10100
C 	C 	0.59130 0.53678 0.73510 -0.14100
C 	C 	0.58720 0.54509 0.71063 0.04400
C 	C 	0.60030 0.53190 0.69100 -0.02000
C 	C 	0.61750 0.51050 0.69580 0.01900
C 	C 	0.62170 0.50220 0.72030 -0.04200
C 	C 	0.67500 0.56139 0.75390 0.01300
C 	C 	0.67230 0.55115 0.72990 -0.01200
C 	C 	0.69600 0.53968 0.71840 0.01100
C 	C 	0.72230 0.53844 0.73080 -0.01200
C 	C 	0.72500 0.54867 0.75470 0.03000
C 	C 	0.70130 0.56015 0.76630 -0.09300
C 	C 	0.45610 0.64820 0.87170 0.07000
C 	C 	0.45860 0.62690 0.85590 -0.07700
C 	C 	0.43580 0.62020 0.84030 0.02800
C 	C 	0.41070 0.63490 0.84030 -0.01500
C 	C 	0.40820 0.65620 0.85610 0.02000
C 	C 	0.43100 0.66290 0.87170 -0.05400
C 	C 	0.63370 0.55170 0.01040 0.06200
C 	C 	0.62440 0.52930 0.99830 -0.11500
C 	C 	0.61500 0.50720 0.01540 0.02500
C 	C 	0.61710 0.50850 0.04080 -0.01400
C 	C 	0.62610 0.53100 0.05050 0.01400
C 	C 	0.63700 0.55260 0.03540 -0.02500
C 	C 	0.72350 0.56060 0.02240 0.05500
C 	C 	0.73570 0.54900 0.04280 -0.06000
C 	C 	0.73530 0.56230 0.06720 0.01600
C 	C 	0.72430 0.58860 0.06900 -0.01200
C 	C 	0.71530 0.60170 0.04520 0.03300
C 	C 	0.71370 0.58650 0.02390 -0.10700
C 	C 	0.75020 0.52900 0.85290 0.05600
C 	C 	0.75900 0.50380 0.84770 -0.02000
C 	C 	0.78150 0.49940 0.83100 0.01300
C 	C 	0.79520 0.52020 0.81960 -0.01500
C 	C 	0.78640 0.54540 0.82480 0.03200
C 	C 	0.76400 0.54980 0.84150 -0.11800
C 	C 	0.80330 0.61970 0.96650 0.06900
C 	C 	0.82550 0.62910 0.98300 -0.02300
C 	C 	0.85420 0.63550 0.97400 0.01000
C 	C 	0.85890 0.63520 0.94580 -0.00700
C 	C 	0.83530 0.62450 0.92810 0.02700
C 	C 	0.80850 0.61750 0.94040 -0.10000
C 	C 	0.58880 0.44010 0.74710 0.05100
C 	C 	0.59470 0.44450 0.72040 -0.07600
C 	C 	0.62280 0.43710 0.71170 0.02300
C 	C 	0.64320 0.42870 0.72740 -0.01100
C 	C 	0.63760 0.42340 0.75370 0.01300
C 	C 	0.60970 0.43040 0.76430 -0.03100
Cd	Cd	0.60641 0.58980 0.85400 1.12600
Cd	Cd	0.54925 0.56788 0.90800 1.14100
Cd	Cd	0.66414 0.60793 0.90674 1.12600
Cd	Cd	0.60245 0.58839 0.96000 1.14300
Cd	Cd	0.62675 0.53699 0.91043 1.14300
Cd	Cd	0.52657 0.62468 0.85291 1.14700
Cd	Cd	0.66788 0.61063 0.79957 1.14400
Cd	Cd	0.68306 0.55938 0.96597 1.14900
Cd	Cd	0.72996 0.62762 0.95255 1.15200
Cd	Cd	0.54319 0.56778 0.80359 1.14900
Cd	Cd	0.62619 0.54290 0.79471 1.14900
Cd	Cd	0.68458 0.55729 0.84955 1.14200
Cd	Cd	0.73966 0.56508 0.90576 1.15000
Cd	Cd	0.57589 0.51496 0.85397 1.15200
S 	S 	0.64599 0.57106 0.88030 -1.15300
S 	S 	0.58784 0.55345 0.82662 -1.09900
S 	S 	0.56571 0.60581 0.88070 -1.14900
S 	S 	0.58547 0.54980 0.93716 -0.85500
S 	S 	0.70446 0.58943 0.93315 -1.09500
S 	S 	0.61439 0.49823 0.88251 -0.52100
S 	S 	0.70761 0.59103 0.82358 -0.85600
S 	S 	0.55987 0.60914 0.98279 -0.56200
S 	S 	0.64297 0.57906 0.99166 -0.52500
S 	S 	0.67157 0.52354 0.93524 -0.58000
S 	S 	0.50228 0.58533 0.92669 -0.52900
S 	S 	0.53232 0.53638 0.87386 -0.56700
Cd	Cd	0.76865 0.56045 0.97596 1.15700
Cd	Cd	0.56125 0.49211 0.78198 1.16000
S 	S 	0.72236 0.54237 0.99463 -0.51300
S 	S 	0.52641 0.52976 0.77631 -0.51200
S 	S 	0.65998 0.52063 0.82542 -0.54900
S 	S 	0.50359 0.58595 0.83051 -0.52000
S 	S 	0.49224 0.64271 0.88632 -0.56600
S 	S 	0.77042 0.61007 0.97849 -0.50800
S 	S 	0.61126 0.50479 0.76825 -0.52600
S 	S 	0.72211 0.53236 0.87500 -0.52300
S 	S 	0.55727 0.47771 0.82762 -0.48900
S 	S 	0.64310 0.58050 0.76838 -0.51300
S 	S 	0.77790 0.54321 0.93287 -0.51700
S 	S 	0.56630 0.60011 0.77371 -0.54600
S 	S 	0.55512 0.44915 0.75982 -0.47000
C 	C 	0.68640 0.49840 0.80620 0.06400
C 	C 	0.70490 0.47590 0.77090 0.01300
C 	C 	0.68370 0.49110 0.78160 -0.03700
C 	C 	0.70150 0.51670 0.79340 -0.07400
C 	C 	0.49490 0.02040 0.29100 0.05400
C 	C 	0.46990 0.01670 0.27670 -0.02700
C 	C 	0.44310 0.01130 0.28750 0.01200
C 	C 	0.44150 0.00730 0.31310 -0.01300
C 	C 	0.46510 0.00990 0.32800 0.03900
C 	C 	0.49120 0.01770 0.31700 -0.10700
C 	C 	0.76840 0.00960 0.43440 0.06000
C 	C 	0.76730 0.99580 0.45680 -0.10800
C 	C 	0.76130 0.96790 0.45690 0.02700
C 	C 	0.75750 0.95450 0.43670 -0.01700
C 	C 	0.75920 0.96940 0.41520 0.02500
C 	C 	0.76540 0.99580 0.41410 -0.05000
C 	C 	0.66170 0.99560 0.45080 0.08400
C 	C 	0.63520 0.98530 0.45330 -0.09100
C 	C 	0.62610 0.96040 0.46650 0.02600
C 	C 	0.64810 0.94980 0.47890 -0.01400
C 	C 	0.67730 0.95620 0.47540 0.01700
C 	C 	0.68390 0.97720 0.46050 -0.04100
C 	C 	0.47890 0.09710 0.30820 0.05900
C 	C 	0.45600 0.07980 0.30250 -0.02700
C 	C 	0.43530 0.08870 0.28520 0.01000
C 	C 	0.43640 0.11500 0.27350 -0.01200
C 	C 	0.46000 0.13090 0.27900 0.02300
C 	C 	0.48130 0.12170 0.29740 -0.09800
C 	C 	0.50670 0.01460 0.38740 0.08900
C 	C 	0.50970 0.99000 0.38150 -0.07700
C 	C 	0.48670 0.97200 0.39180 0.02000
C 	C 	0.46480 0.98320 0.40850 -0.01100
C 	C 	0.45970 0.01070 0.40890 0.01500
C 	C 	0.48160 0.02640 0.39400 -0.04400
C 	C 	0.49030 0.06340 0.44870 0.07800
C 	C 	0.50560 0.04470 0.45840 -0.11600
C 	C 	0.49440 0.02590 0.47370 0.03200
C 	C 	0.46500 0.02790 0.48290 -0.01800
C 	C 	0.44640 0.04650 0.47230 0.01300
C 	C 	0.46030 0.06550 0.45410 -0.03000
C 	C 	0.54460 0.08460 0.50300 0.08000
C 	C 	0.55840 0.06210 0.50840 -0.08700
C 	C 	0.54660 0.04360 0.52360 0.03300
C 	C 	0.51960 0.04870 0.53540 -0.02600
C 	C 	0.50750 0.07190 0.53070 0.03600
C 	C 	0.51690 0.08600 0.51300 -0.07600
C 	C 	0.59410 0.97600 0.40160 0.05100
C 	C 	0.57250 0.98420 0.41700 -0.11100
C 	C 	0.55560 0.96640 0.43350 0.01900
C 	C 	0.56370 0.93800 0.43110 -0.00900
C 	C 	0.58940 0.93140 0.41420 0.00700
C 	C 	0.60270 0.95060 0.39750 -0.01700
C 	C 	0.58470 0.95270 0.33180 0.04800
C 	C 	0.57200 0.92830 0.33830 -0.01800
C 	C 	0.59400 0.91090 0.34340 0.01100
C 	C 	0.62190 0.91380 0.33610 -0.01400
C 	C 	0.63280 0.93640 0.33200 0.02900
C 	C 	0.61260 0.95910 0.32870 -0.10100
C 	C 	0.53664 0.11283 0.25344 0.05700
C 	C 	0.53030 0.13916 0.25350 -0.08300
C 	C 	0.50810 0.14867 0.23858 0.02900
C 	C 	0.49230 0.13180 0.22359 -0.01600
C 	C 	0.49870 0.10550 0.22353 0.01900
C 	C 	0.52082 0.09600 0.23845 -0.05000
C 	C 	0.60850 0.01531 0.24000 0.10000
C 	C 	0.59130 0.03678 0.23510 -0.14200
C 	C 	0.58720 0.04509 0.21063 0.04300
C 	C 	0.60030 0.03190 0.19100 -0.02100
C 	C 	0.61750 0.01050 0.19580 0.01800
C 	C 	0.62170 0.00220 0.22030 -0.04300
C 	C 	0.67500 0.06139 0.25390 0.01200
C 	C 	0.67230 0.05115 0.22990 -0.01300
C 	C 	0.69600 0.03968 0.21840 0.01000
C 	C 	0.72230 0.03844 0.23080 -0.01300
C 	C 	0.72500 0.04867 0.25470 0.02900
C 	C 	0.70130 0.06015 0.26630 -0.09400
C 	C 	0.45610 0.14820 0.37170 0.06900
C 	C 	0.45860 0.12690 0.35590 -0.07800
C 	C 	0.43580 0.12020 0.34030 0.02700
C 	C 	0.41070 0.13490 0.34030 -0.01600
C 	C 	0.40820 0.15620 0.35610 0.01900
C 	C 	0.43100 0.16290 0.37170 -0.05500
C 	C 	0.63370 0.05170 0.51040 0.06100
C 	C 	0.62440 0.02930 0.49830 -0.11600
C 	C 	0.61500 0.00720 0.51540 0.02400
C 	C 	0.61710 0.00850 0.54080 -0.01500
C 	C 	0.62610 0.03100 0.55050 0.01300
C 	C 	0.63700 0.05260 0.53540 -0.02600
C 	C 	0.72350 0.06060 0.52240 0.05400
C 	C 	0.73570 0.04900 0.54280 -0.06100
C 	C 	0.73530 0.06230 0.56720 0.01500
C 	C 	0.72430 0.08860 0.56900 -0.01300
C 	C 	0.71530 0.10170 0.54520 0.03200
C 	C 	0.71370 0.08650 0.52390 -0.10800
C 	C 	0.75020 0.02900 0.35290 0.05500
C 	C 	0.75900 0.00380 0.34770 -0.02100
C 	C 	0.78150 0.99940 0.33100 0.01200
C 	C 	0.79520 0.02020 0.31960 -0.01600
C 	C 	0.78640 0.04540 0.32480 0.03100
C 	C 	0.76400 0.04980 0.34150 -0.11900
C 	C 	0.80330 0.11970 0.46650 0.06800
C 	C 	0.82550 0.12910 0.48300 -0.02400
C 	C 	0.85420 0.13550 0.47400 0.00900
C 	C 	0.85890 0.13520 0.44580 -0.00800
C 	C 	0.83530 0.12450 0.42810 0.02600
C 	C 	0.80850 0.11750 0.44040 -0.10100
C 	C 	0.58880 0.94010 0.24710 0.05000
C 	C 	0.59470 0.94450 0.22040 -0.07700
C 	C 	0.62280 0.93710 0.21170 0.02200
C 	C 	0.64320 0.92870 0.22740 -0.01200
C 	C 	0.63760 0.92340 0.25370 0.01200
C 	C 	0.60970 0.93040 0.26430 -0.03200
Cd	Cd	0.60641 0.08980 0.35400 1.12500
Cd	Cd	0.54925 0.06788 0.40800 1.14000
Cd	Cd	0.66414 0.10793 0.40674 1.12500
Cd	Cd	0.60245 0.08839 0.46000 1.14200
Cd	Cd	0.62675 0.03699 0.41043 1.14200
Cd	Cd	0.52657 0.12468 0.35291 1.14600
Cd	Cd	0.66788 0.11063 0.29957 1.14300
Cd	Cd	0.68306 0.05938 0.46597 1.14800
Cd	Cd	0.72996 0.12762 0.45255 1.15100
Cd	Cd	0.54319 0.06778 0.30359 1.14800
Cd	Cd	0.62619 0.04290 0.29471 1.14800
Cd	Cd	0.68458 0.05729 0.34955 1.14100
Cd	Cd	0.73966 0.06508 0.40576 1.14900
Cd	Cd	0.57589 0.01496 0.35397 1.15100
S 	S 	0.64599 0.07106 0.38030 -1.15400
S 	S 	0.58784 0.05345 0.32662 -1.10000
S 	S 	0.56571 0.10581 0.38070 -1.15000
S 	S 	0.58547 0.04980 0.43716 -0.85600
S 	S 	0.70446 0.08943 0.43315 -1.09600
S 	S 	0.61439 0.99823 0.38251 -0.52200
S 	S 	0.70761 0.09103 0.32358 -0.85700
S 	S 	0.55987 0.10914 0.48279 -0.56300
S 	S 	0.64297 0.07906 0.49166 -0.52600
S 	S 	0.67157 0.02354 0.43524 -0.58100
S 	S 	0.50228 0.08533 0.42669 -0.53000
S 	S 	0.53232 0.03638 0.37386 -0.56800
Cd	Cd	0.76865 0.06045 0.47596 1.15600
Cd	Cd	0.56125 0.99211 0.28198 1.15900
S 	S 	0.72236 0.04237 0.49463 -0.51400
S 	S 	0.52641 0.02976 0.27631 -0.51300
S 	S 	0.65998 0.02063 0.32542 -0.55000
S 	S 	0.50359 0.08595 0.33051 -0.52100
S 	S 	0.49224 0.14271 0.38632 -0.56700
S 	S 	0.77042 0.11007 0.47849 -0.50900
S 	S 	0.61126 0.00479 0.26825 -0.52700
S 	S 	0.72211 0.03236 0.37500 -0.52400
S 	S 	0.55727 0.97771 0.32762 -0.49000
S 	S 	0.64310 0.08050 0.26838 -0.51400
S 	S 	0.77790 0.04321 0.43287 -0.51800
S 	S 	0.56630 0.10011 0.27371 -0.54700
S 	S 	0.55512 0.94915 0.25982 -0.47100
C 	C 	0.68640 0.99840 0.30620 0.06300
C 	C 	0.70490 0.97590 0.27090 0.01200
C 	C 	0.68370 0.99110 0.28160 -0.03800
C 	C 	0.70150 0.01670 0.29340 -0.07500
C 	C 	0.99490 0.52040 0.29100 0.05300
C 	C 	0.96990 0.51670 0.27670 -0.02800
C 	C 	0.94310 0.51130 0.28750 0.01100
C 	C 	0.94150 0.50730 0.31310 -0.01400
C 	C 	0.96510 0.50990 0.32800 0.03800
C 	C 	0.99120 0.51770 0.31700 -0.10800
C 	C 	0.26840 0.50960 0.43440 0.05900
C 	C 	0.26730 0.49580 0.45680 -0.10900
C 	C 	0.26130 0.46790 0.45690 0.02600
C 	C 	0.25750 0.45450 0.43670 -0.01800
C 	C 	0.25920 0.46940 0.41520 0.02400
C 	C 	0.26540 0.49580 0.41410 -0.05100
C 	C 	0.16170 0.49560 0.45080 0.08300
C 	C 	0.13520 0.48530 0.45330 -0.09200
C 	C 	0.12610 0.46040 0.46650 0.02500
C 	C 	0.14810 0.44980 0.47890 -0.01500
C 	C 	0.17730 0.45620 0.47540 0.01600
C 	C 	0.18390 0.47720 0.46050 -0.04200
C 	C 	0.97890 0.59710 0.30820 0.05800
C 	C 	0.95600 0.57980 0.30250 -0.02800
C 	C 	0.93530 0.58870 0.28520 0.00900
C 	C 	0.93640 0.61500 0.27350 -0.01300
C 	C 	0.96000 0.63090 0.27900 0.02200
C 	C 	0.98130 0.62170 0.29740 -0.09900
C 	C 	0.00670 0.51460 0.38740 0.08800
C 	C 	0.00970 0.49000 0.38150 -0.07800
C 	C 	0.98670 0.47200 0.39180 0.01900
C 	C 	0.96480 0.48320 0.40850 -0.01200
C 	C 	0.95970 0.51070 0.40890 0.01400
C 	C 	0.98160 0.52640 0.39400 -0.04500
C 	C 	0.99030 0.56340 0.44870 0.07700
C 	C 	0.00560 0.54470 0.45840 -0.11700
C 	C 	0.99440 0.52590 0.47370 0.03100
C 	C 	0.96500 0.52790 0.48290 -0.01900
C 	C 	0.94640 0.54650 0.47230 0.01200
C 	C 	0.96030 0.56550 0.45410 -0.03100
C 	C 	0.04460 0.58460 0.50300 0.07900
C 	C 	0.05840 0.56210 0.50840 -0.08800
C 	C 	0.04660 0.54360 0.52360 0.03200
C 	C 	0.01960 0.54870 0.53540 -0.02600
C 	C 	0.00750 0.57190 0.53070 0.03600
C 	C 	0.01690 0.58600 0.51300 -0.07600
C 	C 	0.09410 0.47600 0.40160 0.05100
C 	C 	0.07250 0.48420 0.41700 -0.11100
C 	C 	0.05560 0.46640 0.43350 0.01900
C 	C 	0.06370 0.43800 0.43110 -0.00900
C 	C 	0.08940 0.43140 0.41420 0.00700
C 	C 	0.10270 0.45060 0.39750 -0.01700
C 	C 	0.08470 0.45270 0.33180 0.04800
C 	C 	0.07200 0.42830 0.33830 -0.01800
C 	C 	0.09400 0.41090 0.34340 0.01100
C 	C 	0.12190 0.41380 0.33610 -0.01400
C 	C 	0.13280 0.43640 0.33200 0.02900
C 	C 	0.11260 0.45910 0.32870 -0.10100
C 	C 	0.03664 0.61283 0.25344 0.05700
C 	C 	0.03030 0.63916 0.25350 -0.08300
C 	C 	0.00810 0.64867 0.23858 0.02900
C 	C 	0.99230 0.63180 0.22359 -0.01600
C 	C 	0.99870 0.60550 0.22353 0.01900
C 	C 	0.02082 0.59600 0.23845 -0.05000
C 	C 	0.10850 0.51531 0.24000 0.10000
C 	C 	0.09130 0.53678 0.23510 -0.14200
C 	C 	0.08720 0.54509 0.21063 0.04300
C 	C 	0.10030 0.53190 0.19100 -0.02100
C 	C 	0.11750 0.51050 0.19580 0.01800
C 	C 	0.12170 0.50220 0.22030 -0.04300
C 	C 	0.17500 0.56139 0.25390 0.01200
C 	C 	0.17230 0.55115 0.22990 -0.01300
C 	C 	0.19600 0.53968 0.21840 0.01000
C 	C 	0.22230 0.53844 0.23080 -0.01300
C 	C 	0.22500 0.54867 0.25470 0.02900
C 	C 	0.20130 0.56015 0.26630 -0.09400
C 	C 	0.95610 0.64820 0.37170 0.06900
C 	C 	0.95860 0.62690 0.35590 -0.07800
C 	C 	0.93580 0.62020 0.34030 0.02700
C 	C 	0.91070 0.63490 0.34030 -0.01600
C 	C 	0.90820 0.65620 0.35610 0.01900
C 	C 	0.93100 0.66290 0.37170 -0.05500
C 	C 	0.13370 0.55170 0.51040 0.06100
C 	C 	0.12440 0.52930 0.49830 -0.11600
C 	C 	0.11500 0.50720 0.51540 0.02400
C 	C 	0.11710 0.50850 0.54080 -0.01500
C 	C 	0.12610 0.53100 0.55050 0.01300
C 	C 	0.13700 0.55260 0.53540 -0.02600
C 	C 	0.22350 0.56060 0.52240 0.05400
C 	C 	0.23570 0.54900 0.54280 -0.06100
C 	C 	0.23530 0.56230 0.56720 0.01500
C 	C 	0.22430 0.58860 0.56900 -0.01300
C 	C 	0.21530 0.60170 0.54520 0.03200
C 	C 	0.21370 0.58650 0.52390 -0.10800
C 	C 	0.25020 0.52900 0.35290 0.05500
C 	C 	0.25900 0.50380 0.34770 -0.02100
C 	C 	0.28150 0.49940 0.33100 0.01200
C 	C 	0.29520 0.52020 0.31960 -0.01600
C 	C 	0.28640 0.54540 0.32480 0.03100
C 	C 	0.26400 0.54980 0.34150 -0.11900
C 	C 	0.30330 0.61970 0.46650 0.06800
C 	C 	0.32550 0.62910 0.48300 -0.02400
C 	C 	0.35420 0.63550 0.47400 0.00900
C 	C 	0.35890 0.63520 0.44580 -0.00800
C 	C 	0.33530 0.62450 0.42810 0.02600
C 	C 	0.30850 0.61750 0.44040 -0.10100
C 	C 	0.08880 0.44010 0.24710 0.05000
C 	C 	0.09470 0.44450 0.22040 -0.07700
C 	C 	0.12280 0.43710 0.21170 0.02200
C 	C 	0.14320 0.42870 0.22740 -0.01200
C 	C 	0.13760 0.42340 0.25370 0.01200
C 	C 	0.10970 0.43040 0.26430 -0.03200
Cd	Cd	0.10641 0.58980 0.35400 1.12500
Cd	Cd	0.04925 0.56788 0.40800 1.14000
Cd	Cd	0.16414 0.60793 0.40674 1.12500
Cd	Cd	0.10245 0.58839 0.46000 1.14200
Cd	Cd	0.12675 0.53699 0.41043 1.14200
Cd	Cd	0.02657 0.62468 0.35291 1.14600
Cd	Cd	0.16788 0.61063 0.29957 1.14300
Cd	Cd	0.18306 0.55938 0.46597 1.14800
Cd	Cd	0.22996 0.62762 0.45255 1.15100
Cd	Cd	0.04319 0.56778 0.30359 1.14800
Cd	Cd	0.12619 0.54290 0.29471 1.14800
Cd	Cd	0.18458 0.55729 0.34955 1.14100
Cd	Cd	0.23966 0.56508 0.40576 1.14900
Cd	Cd	0.07589 0.51496 0.35397 1.15100
S 	S 	0.14599 0.57106 0.38030 -1.15400
S 	S 	0.08784 0.55345 0.32662 -1.10000
S 	S 	0.06571 0.60581 0.38070 -1.15000
S 	S 	0.08547 0.54980 0.43716 -0.85600
S 	S 	0.20446 0.58943 0.43315 -1.09600
S 	S 	0.11439 0.49823 0.38251 -0.52200
S 	S 	0.20761 0.59103 0.32358 -0.85700
S 	S 	0.05987 0.60914 0.48279 -0.56300
S 	S 	0.14297 0.57906 0.49166 -0.52600
S 	S 	0.17157 0.52354 0.43524 -0.58100
S 	S 	0.00228 0.58533 0.42669 -0.53000
S 	S 	0.03232 0.53638 0.37386 -0.56800
Cd	Cd	0.26865 0.56045 0.47596 1.15600
Cd	Cd	0.06125 0.49211 0.28198 1.15900
S 	S 	0.22236 0.54237 0.49463 -0.51400
S 	S 	0.02641 0.52976 0.27631 -0.51300
S 	S 	0.15998 0.52063 0.32542 -0.55000
S 	S 	0.00359 0.58595 0.33051 -0.52100
S 	S 	0.99224 0.64271 0.38632 -0.56700
S 	S 	0.27042 0.61007 0.47849 -0.50900
S 	S 	0.11126 0.50479 0.26825 -0.52700
S 	S 	0.22211 0.53236 0.37500 -0.52400
S 	S 	0.05727 0.47771 0.32762 -0.49000
S 	S 	0.14310 0.58050 0.26838 -0.51400
S 	S 	0.27790 0.54321 0.43287 -0.51800
S 	S 	0.06630 0.60011 0.27371 -0.54700
S 	S 	0.05512 0.44915 0.25982 -0.47100
C 	C 	0.18640 0.49840 0.30620 0.06300
C 	C 	0.20490 0.47590 0.27090 0.01200
C 	C 	0.18370 0.49110 0.28160 -0.03800
C 	C 	0.20150 0.51670 0.29340 -0.07500
C 	C 	0.99490 0.02040 0.79100 0.05300
C 	C 	0.96990 0.01670 0.77670 -0.02800
C 	C 	0.94310 0.01130 0.78750 0.01100
C 	C 	0.94150 0.00730 0.81310 -0.01400
C 	C 	0.96510 0.00990 0.82800 0.03800
C 	C 	0.99120 0.01770 0.81700 -0.10800
C 	C 	0.26840 0.00960 0.93440 0.05900
C 	C 	0.26730 0.99580 0.95680 -0.10900
C 	C 	0.26130 0.96790 0.95690 0.02600
C 	C 	0.25750 0.95450 0.93670 -0.01800
C 	C 	0.25920 0.96940 0.91520 0.02400
C 	C 	0.26540 0.99580 0.91410 -0.05100
C 	C 	0.16170 0.99560 0.95080 0.08300
C 	C 	0.13520 0.98530 0.95330 -0.09200
C 	C 	0.12610 0.96040 0.96650 0.02500
C 	C 	0.14810 0.94980 0.97890 -0.01500
C 	C 	0.17730 0.95620 0.97540 0.01600
C 	C 	0.18390 0.97720 0.96050 -0.04200
C 	C 	0.97890 0.09710 0.80820 0.05800
C 	C 	0.95600 0.07980 0.80250 -0.02800
C 	C 	0.93530 0.08870 0.78520 0.00900
C 	C 	0.93640 0.11500 0.77350 -0.01300
C 	C 	0.96000 0.13090 0.77900 0.02200
C 	C 	0.98130 0.12170 0.79740 -0.09900
C 	C 	0.00670 0.01460 0.88740 0.08800
C 	C 	0.00970 0.99000 0.88150 -0.07800
C 	C 	0.98670 0.97200 0.89180 0.01900
C 	C 	0.96480 0.98320 0.90850 -0.01200
C 	C 	0.95970 0.01070 0.90890 0.01400
C 	C 	0.98160 0.02640 0.89400 -0.04500
C 	C 	0.99030 0.06340 0.94870 0.07700
C 	C 	0.00560 0.04470 0.95840 -0.11700
C 	C 	0.99440 0.02590 0.97370 0.03100
C 	C 	0.96500 0.02790 0.98290 -0.01900
C 	C 	0.94640 0.04650 0.97230 0.01200
C 	C 	0.96030 0.06550 0.95410 -0.03100
C 	C 	0.04460 0.08460 0.00300 0.07900
C 	C 	0.05840 0.06210 0.00840 -0.08800
C 	C 	0.04660 0.04360 0.02360 0.03200
C 	C 	0.01960 0.04870 0.03540 -0.02600
C 	C 	0.00750 0.07190 0.03070 0.03600
C 	C 	0.01690 0.08600 0.01300 -0.07600
C 	C 	0.09410 0.97600 0.90160 0.05100
C 	C 	0.07250 0.98420 0.91700 -0.11100
C 	C 	0.05560 0.96640 0.93350 0.01900
C 	C 	0.06370 0.93800 0.93110 -0.00900
C 	C 	0.08940 0.93140 0.91420 0.00700
C 	C 	0.10270 0.95060 0.89750 -0.01700
C 	C 	0.08470 0.95270 0.83180 0.04800
C 	C 	0.07200 0.92830 0.83830 -0.01800
C 	C 	0.09400 0.91090 0.84340 0.01100
C 	C 	0.12190 0.91380 0.83610 -0.01400
C 	C 	0.13280 0.93640 0.83200 0.02900
C 	C 	0.11260 0.95910 0.82870 -0.10100
C 	C 	0.03664 0.11283 0.75344 0.05700
C 	C 	0.03030 0.13916 0.75350 -0.08300
C 	C 	0.00810 0.14867 0.73858 0.02900
C 	C 	0.99230 0.13180 0.72359 -0.01600
C 	C 	0.99870 0.10550 0.72353 0.01900
C 	C 	0.02082 0.09600 0.73845 -0.05000
C 	C 	0.10850 0.01531 0.74000 0.10000
C 	C 	0.09130 0.03678 0.73510 -0.14200
C 	C 	0.08720 0.04509 0.71063 0.04300
C 	C 	0.10030 0.03190 0.69100 -0.02100
C 	C 	0.11750 0.01050 0.69580 0.01800
C 	C 	0.12170 0.00220 0.72030 -0.04300
C 	C 	0.17500 0.06139 0.75390 0.01200
C 	C 	0.17230 0.05115 0.72990 -0.01300
C 	C 	0.19600 0.03968 0.71840 0.01000
C 	C 	0.22230 0.03844 0.73080 -0.01300
C 	C 	0.22500 0.04867 0.75470 0.02900
C 	C 	0.20130 0.06015 0.76630 -0.09400
C 	C 	0.95610 0.14820 0.87170 0.06900
C 	C 	0.95860 0.12690 0.85590 -0.07800
C 	C 	0.93580 0.12020 0.84030 0.02700
C 	C 	0.91070 0.13490 0.84030 -0.01600
C 	C 	0.90820 0.15620 0.85610 0.01900
C 	C 	0.93100 0.16290 0.87170 -0.05500
C 	C 	0.13370 0.05170 0.01040 0.06100
C 	C 	0.12440 0.02930 0.99830 -0.11600
C 	C 	0.11500 0.00720 0.01540 0.02400
C 	C 	0.11710 0.00850 0.04080 -0.01500
C 	C 	0.12610 0.03100 0.05050 0.01300
C 	C 	0.13700 0.05260 0.03540 -0.02600
C 	C 	0.22350 0.06060 0.02240 0.05400
C 	C 	0.23570 0.04900 0.04280 -0.06100
C 	C 	0.23530 0.06230 0.06720 0.01500
C 	C 	0.22430 0.08860 0.06900 -0.01300
C 	C 	0.21530 0.10170 0.04520 0.03200
C 	C 	0.21370 0.08650 0.02390 -0.10800
C 	C 	0.25020 0.02900 0.85290 0.05500
C 	C 	0.25900 0.00380 0.84770 -0.02100
C 	C 	0.28150 0.99940 0.83100 0.01200
C 	C 	0.29520 0.02020 0.81960 -0.01600
C 	C 	0.28640 0.04540 0.82480 0.03100
C 	C 	0.26400 0.04980 0.84150 -0.11900
C 	C 	0.30330 0.11970 0.96650 0.06800
C 	C 	0.32550 0.12910 0.98300 -0.02400
C 	C 	0.35420 0.13550 0.97400 0.00900
C 	C 	0.35890 0.13520 0.94580 -0.00800
C 	C 	0.33530 0.12450 0.92810 0.02600
C 	C 	0.30850 0.11750 0.94040 -0.10100
C 	C 	0.08880 0.94010 0.74710 0.05000
C 	C 	0.09470 0.94450 0.72040 -0.07700
C 	C 	0.12280 0.93710 0.71170 0.02200
C 	C 	0.14320 0.92870 0.72740 -0.01200
C 	C 	0.13760 0.92340 0.75370 0.01200
C 	C 	0.10970 0.93040 0.76430 -0.03200
Cd	Cd	0.10641 0.08980 0.85400 1.12500
Cd	Cd	0.04925 0.06788 0.90800 1.14000
Cd	Cd	0.16414 0.10793 0.90674 1.12500
Cd	Cd	0.10245 0.08839 0.96000 1.14200
Cd	Cd	0.12675 0.03699 0.91043 1.14200
Cd	Cd	0.02657 0.12468 0.85291 1.14600
Cd	Cd	0.16788 0.11063 0.79957 1.14300
Cd	Cd	0.18306 0.05938 0.96597 1.14800
Cd	Cd	0.22996 0.12762 0.95255 1.15100
Cd	Cd	0.04319 0.06778 0.80359 1.14800
Cd	Cd	0.12619 0.04290 0.79471 1.14800
Cd	Cd	0.18458 0.05729 0.84955 1.14100
Cd	Cd	0.23966 0.06508 0.90576 1.14900
Cd	Cd	0.07589 0.01496 0.85397 1.15100
S 	S 	0.14599 0.07106 0.88030 -1.15400
S 	S 	0.08784 0.05345 0.82662 -1.10000
S 	S 	0.06571 0.10581 0.88070 -1.15000
S 	S 	0.08547 0.04980 0.93716 -0.85600
S 	S 	0.20446 0.08943 0.93315 -1.09600
S 	S 	0.11439 0.99823 0.88251 -0.52200
S 	S 	0.20761 0.09103 0.82358 -0.85700
S 	S 	0.05987 0.10914 0.98279 -0.56300
S 	S 	0.14297 0.07906 0.99166 -0.52600
S 	S 	0.17157 0.02354 0.93524 -0.58100
S 	S 	0.00228 0.08533 0.92669 -0.53000
S 	S 	0.03232 0.03638 0.87386 -0.56800
Cd	Cd	0.26865 0.06045 0.97596 1.15600
Cd	Cd	0.06125 0.99211 0.78198 1.15900
S 	S 	0.22236 0.04237 0.99463 -0.51400
S 	S 	0.02641 0.02976 0.77631 -0.51300
S 	S 	0.15998 0.02063 0.82542 -0.55000
S 	S 	0.00359 0.08595 0.83051 -0.52100
S 	S 	0.99224 0.14271 0.88632 -0.56700
S 	S 	0.27042 0.11007 0.97849 -0.50900
S 	S 	0.11126 0.00479 0.76825 -0.52700
S 	S 	0.22211 0.03236 0.87500 -0.52400
S 	S 	0.05727 0.97771 0.82762 -0.49000
S 	S 	0.14310 0.08050 0.76838 -0.51400
S 	S 	0.27790 0.04321 0.93287 -0.51800
S 	S 	0.06630 0.10011 0.77371 -0.54700
S 	S 	0.05512 0.94915 0.75982 -0.47100
C 	C 	0.18640 0.99840 0.80620 0.06300
C 	C 	0.20490 0.97590 0.77090 0.01200
C 	C 	0.18370 0.99110 0.78160 -0.03800
C 	C 	0.20150 0.01670 0.79340 -0.07500
C 	C 	0.25510 0.22960 0.79100 0.05300
C 	C 	0.28010 0.23330 0.77670 -0.02800
C 	C 	0.30690 0.23870 0.78750 0.01100
C 	C 	0.30850 0.24270 0.81310 -0.01400
C 	C 	0.28490 0.24010 0.82800 0.03800
C 	C 	0.25880 0.23230 0.81700 -0.10800
C 	C 	0.98160 0.24040 0.93440 0.05900
C 	C 	0.98270 0.25420 0.95680 -0.10900
C 	C 	0.98870 0.28210 0.95690 0.02600
C 	C 	0.99250 0.29550 0.93670 -0.01800
C 	C 	0.99080 0.28060 0.91520 0.02400
C 	C 	0.98460 0.25420 0.91410 -0.05100
C 	C 	0.08830 0.25440 0.95080 0.08300
C 	C 	0.11480 0.26470 0.95330 -0.09200
C 	C 	0.12390 0.28960 0.96650 0.02500
C 	C 	0.10190 0.30020 0.97890 -0.01500
C 	C 	0.07270 0.29380 0.97540 0.01600
C 	C 	0.06610 0.27280 0.96050 -0.04200
C 	C 	0.27110 0.15290 0.80820 0.05800
C 	C 	0.29400 0.17020 0.80250 -0.02800
C 	C 	0.31470 0.16130 0.78520 0.00900
C 	C 	0.31360 0.13500 0.77350 -0.01300
C 	C 	0.29000 0.11910 0.77900 0.02200
C 	C 	0.26870 0.12830 0.79740 -0.09900
C 	C 	0.24330 0.23540 0.88740 0.08800
C 	C 	0.24030 0.26000 0.88150 -0.07800
C 	C 	0.26330 0.27800 0.89180 0.01900
C 	C 	0.28520 0.26680 0.90850 -0.01200
C 	C 	0.29030 0.23930 0.90890 0.01400
C 	C 	0.26840 0.22360 0.89400 -0.04500
C 	C 	0.25970 0.18660 0.94870 0.07700
C 	C 	0.24440 0.20530 0.95840 -0.11700
C 	C 	0.25560 0.22410 0.97370 0.03100
C 	C 	0.28500 0.22210 0.98290 -0.01900
C 	C 	0.30360 0.20350 0.97230 0.01200
C 	C 	0.28970 0.18450 0.95410 -0.03100
C 	C 	0.20540 0.16540 0.00300 0.07900
C 	C 	0.19160 0.18790 0.00840 -0.08800
C 	C 	0.20340 0.20640 0.02360 0.03200
C 	C 	0.23040 0.20130 0.03540 -0.02600
C 	C 	0.24250 0.17810 0.03070 0.03600
C 	C 	0.23310 0.16400 0.01300 -0.07600
C 	C 	0.15590 0.27400 0.90160 0.05100
C 	C 	0.17750 0.26580 0.91700 -0.11100
C 	C 	0.19440 0.28360 0.93350 0.01900
C 	C 	0.18630 0.31200 0.93110 -0.00900
C 	C 	0.16060 0.31860 0.91420 0.00700
C 	C 	0.14730 0.29940 0.89750 -0.01700
C 	C 	0.16530 0.29730 0.83180 0.04800
C 	C 	0.17800 0.32170 0.83830 -0.01800
C 	C 	0.15600 0.33910 0.84340 0.01100
C 	C 	0.12810 0.33620 0.83610 -0.01400
C 	C 	0.11720 0.31360 0.83200 0.02900
C 	C 	0.13740 0.29090 0.82870 -0.10100
C 	C 	0.21336 0.13717 0.75344 0.05700
C 	C 	0.21970 0.11084 0.75350 -0.08300
C 	C 	0.24190 0.10133 0.73858 0.02900
C 	C 	0.25770 0.11820 0.72359 -0.01600
C 	C 	0.25130 0.14450 0.72353 0.01900
C 	C 	0.22918 0.15400 0.73845 -0.05000
C 	C 	0.14150 0.23469 0.74000 0.10000
C 	C 	0.15870 0.21322 0.73510 -0.14200
C 	C 	0.16280 0.20491 0.71063 0.04300
C 	C 	0.14970 0.21810 0.69100 -0.02100
C 	C 	0.13250 0.23950 0.69580 0.01800
C 	C 	0.12830 0.24780 0.72030 -0.04300
C 	C 	0.07500 0.18861 0.75390 0.01200
C 	C 	0.07770 0.19885 0.72990 -0.01300
C 	C 	0.05400 0.21032 0.71840 0.01000
C 	C 	0.02770 0.21156 0.73080 -0.01300
C 	C 	0.02500 0.20133 0.75470 0.02900
C 	C 	0.04870 0.18985 0.76630 -0.09400
C 	C 	0.29390 0.10180 0.87170 0.06900
C 	C 	0.29140 0.12310 0.85590 -0.07800
C 	C 	0.31420 0.12980 0.84030 0.02700
C 	C 	0.33930 0.11510 0.84030 -0.01600
C 	C 	0.34180 0.09380 0.85610 0.01900
C 	C 	0.31900 0.08710 0.87170 -0.05500
C 	C 	0.11630 0.19830 0.01040 0.06100
C 	C 	0.12560 0.22070 0.99830 -0.11600
C 	C 	0.13500 0.24280 0.01540 0.02400
C 	C 	0.13290 0.24150 0.04080 -0.01500
C 	C 	0.12390 0.21900 0.05050 0.01300
C 	C 	0.11300 0.19740 0.03540 -0.02600
C 	C 	0.02650 0.18940 0.02240 0.05400
C 	C 	0.01430 0.20100 0.04280 -0.06100
C 	C 	0.01470 0.18770 0.06720 0.01500
C 	C 	0.02570 0.16140 0.06900 -0.01300
C 	C 	0.03470 0.14830 0.04520 0.03200
C 	C 	0.03630 0.16350 0.02390 -0.10800
C 	C 	0.99980 0.22100 0.85290 0.05500
C 	C 	0.99100 0.24620 0.84770 -0.02100
C 	C 	0.96850 0.25060 0.83100 0.01200
C 	C 	0.95480 0.22980 0.81960 -0.01600
C 	C 	0.96360 0.20460 0.82480 0.03100
C 	C 	0.98600 0.20020 0.84150 -0.11900
C 	C 	0.94670 0.13030 0.96650 0.06800
C 	C 	0.92450 0.12090 0.98300 -0.02400
C 	C 	0.89580 0.11450 0.97400 0.00900
C 	C 	0.89110 0.11480 0.94580 -0.00800
C 	C 	0.91470 0.12550 0.92810 0.02600
C 	C 	0.94150 0.13250 0.94040 -0.10100
C 	C 	0.16120 0.30990 0.74710 0.05000
C 	C 	0.15530 0.30550 0.72040 -0.07700
C 	C 	0.12720 0.31290 0.71170 0.02200
C 	C 	0.10680 0.32130 0.72740 -0.01200
C 	C 	0.11240 0.32660 0.75370 0.01200
C 	C 	0.14030 0.31960 0.76430 -0.03200
Cd	Cd	0.14359 0.16020 0.85400 1.12500
Cd	Cd	0.20075 0.18212 0.90800 1.14000
Cd	Cd	0.08586 0.14207 0.90674 1.12500
Cd	Cd	0.14755 0.16161 0.96000 1.14200
Cd	Cd	0.12325 0.21301 0.91043 1.14200
Cd	Cd	0.22343 0.12532 0.85291 1.14600
Cd	Cd	0.08212 0.13937 0.79957 1.14300
Cd	Cd	0.06694 0.19062 0.96597 1.14800
Cd	Cd	0.02004 0.12238 0.95255 1.15100
Cd	Cd	0.20681 0.18222 0.80359 1.14800
Cd	Cd	0.12381 0.20710 0.79471 1.14800
Cd	Cd	0.06542 0.19271 0.84955 1.14100
Cd	Cd	0.01034 0.18492 0.90576 1.14900
Cd	Cd	0.17411 0.23504 0.85397 1.15100
S 	S 	0.10401 0.17894 0.88030 -1.15400
S 	S 	0.16216 0.19655 0.82662 -1.10000
S 	S 	0.18429 0.14419 0.88070 -1.15000
S 	S 	0.16453 0.20020 0.93716 -0.85600
S 	S 	0.04554 0.16057 0.93315 -1.09600
S 	S 	0.13561 0.25177 0.88251 -0.52200
S 	S 	0.04239 0.15897 0.82358 -0.85700
S 	S 	0.19013 0.14086 0.98279 -0.56300
S 	S 	0.10703 0.17094 0.99166 -0.52600
S 	S 	0.07843 0.22646 0.93524 -0.58100
S 	S 	0.24772 0.16467 0.92669 -0.53000
S 	S 	0.21768 0.21362 0.87386 -0.56800
Cd	Cd	0.98135 0.18955 0.97596 1.15600
Cd	Cd	0.18875 0.25789 0.78198 1.15900
S 	S 	0.02764 0.20763 0.99463 -0.51400
S 	S 	0.22359 0.22024 0.77631 -0.51300
S 	S 	0.09002 0.22937 0.82542 -0.55000
S 	S 	0.24641 0.16405 0.83051 -0.52100
S 	S 	0.25776 0.10729 0.88632 -0.56700
S 	S 	0.97958 0.13993 0.97849 -0.50900
S 	S 	0.13874 0.24521 0.76825 -0.52700
S 	S 	0.02789 0.21764 0.87500 -0.52400
S 	S 	0.19273 0.27229 0.82762 -0.49000
S 	S 	0.10690 0.16950 0.76838 -0.51400
S 	S 	0.97210 0.20679 0.93287 -0.51800
S 	S 	0.18370 0.14989 0.77371 -0.54700
S 	S 	0.19488 0.30085 0.75982 -0.47100
C 	C 	0.06360 0.25160 0.80620 0.06300
C 	C 	0.04510 0.27410 0.77090 0.01200
C 	C 	0.06630 0.25890 0.78160 -0.03800
C 	C 	0.04850 0.23330 0.79340 -0.07500
C 	C 	0.25510 0.72960 0.29100 0.05300
C 	C 	0.28010 0.73330 0.27670 -0.02800
C 	C 	0.30690 0.73870 0.28750 0.01100
C 	C 	0.30850 0.74270 0.31310 -0.01400
C 	C 	0.28490 0.74010 0.32800 0.03800
C 	C 	0.25880 0.73230 0.31700 -0.10800
C 	C 	0.98160 0.74040 0.43440 0.05900
C 	C 	0.98270 0.75420 0.45680 -0.10900
C 	C 	0.98870 0.78210 0.45690 0.02600
C 	C 	0.99250 0.79550 0.43670 -0.01800
C 	C 	0.99080 0.78060 0.41520 0.02400
C 	C 	0.98460 0.75420 0.41410 -0.05100
C 	C 	0.08830 0.75440 0.45080 0.08300
C 	C 	0.11480 0.76470 0.45330 -0.09200
C 	C 	0.12390 0.78960 0.46650 0.02500
C 	C 	0.10190 0.80020 0.47890 -0.01500
C 	C 	0.07270 0.79380 0.47540 0.01600
C 	C 	0.06610 0.77280 0.46050 -0.04200
C 	C 	0.27110 0.65290 0.30820 0.05800
C 	C 	0.29400 0.67020 0.30250 -0.02800
C 	C 	0.31470 0.66130 0.28520 0.00900
C 	C 	0.31360 0.63500 0.27350 -0.01300
C 	C 	0.29000 0.61910 0.27900 0.02200
C 	C 	0.26870 0.62830 0.29740 -0.09900
C 	C 	0.24330 0.73540 0.38740 0.08800
C 	C 	0.24030 0.76000 0.38150 -0.07800
C 	C 	0.26330 0.77800 0.39180 0.01900
C 	C 	0.28520 0.76680 0.40850 -0.01200
C 	C 	0.29030 0.73930 0.40890 0.01400
C 	C 	0.26840 0.72360 0.39400 -0.04500
C 	C 	0.25970 0.68660 0.44870 0.07700
C 	C 	0.24440 0.70530 0.45840 -0.11700
C 	C 	0.25560 0.72410 0.47370 0.03100
C 	C 	0.28500 0.72210 0.48290 -0.01900
C 	C 	0.30360 0.70350 0.47230 0.01200
C 	C 	0.28970 0.68450 0.45410 -0.03100
C 	C 	0.20540 0.66540 0.50300 0.07900
C 	C 	0.19160 0.68790 0.50840 -0.08800
C 	C 	0.20340 0.70640 0.52360 0.03200
C 	C 	0.23040 0.70130 0.53540 -0.02600
C 	C 	0.24250 0.67810 0.53070 0.03600
C 	C 	0.23310 0.66400 0.51300 -0.07600
C 	C 	0.15590 0.77400 0.40160 0.05100
C 	C 	0.17750 0.76580 0.41700 -0.11100
C 	C 	0.19440 0.78360 0.43350 0.01900
C 	C 	0.18630 0.81200 0.43110 -0.00900
C 	C 	0.16060 0.81860 0.41420 0.00700
C 	C 	0.14730 0.79940 0.39750 -0.01700
C 	C 	0.16530 0.79730 0.33180 0.04800
C 	C 	0.17800 0.82170 0.33830 -0.01800
C 	C 	0.15600 0.83910 0.34340 0.01100
C 	C 	0.12810 0.83620 0.33610 -0.01400
C 	C 	0.11720 0.81360 0.33200 0.02900
C 	C 	0.13740 0.79090 0.32870 -0.10100
C 	C 	0.21336 0.63717 0.25344 0.05700
C 	C 	0.21970 0.61084 0.25350 -0.08300
C 	C 	0.24190 0.60133 0.23858 0.02900
C 	C 	0.25770 0.61820 0.22359 -0.01600
C 	C 	0.25130 0.64450 0.22353 0.01900
C 	C 	0.22918 0.65400 0.23845 -0.05000
C 	C 	0.14150 0.73469 0.24000 0.10000
C 	C 	0.15870 0.71322 0.23510 -0.14200
C 	C 	0.16280 0.70491 0.21063 0.04300
C 	C 	0.14970 0.71810 0.19100 -0.02100
C 	C 	0.13250 0.73950 0.19580 0.01800
C 	C 	0.12830 0.74780 0.22030 -0.04300
C 	C 	0.07500 0.68861 0.25390 0.01200
C 	C 	0.07770 0.69885 0.22990 -0.01300
C 	C 	0.05400 0.71032 0.21840 0.01000
C 	C 	0.02770 0.71156 0.23080 -0.01300
C 	C 	0.02500 0.70133 0.25470 0.02900
C 	C 	0.04870 0.68985 0.26630 -0.09400
C 	C 	0.29390 0.60180 0.37170 0.06900
C 	C 	0.29140 0.62310 0.35590 -0.07800
C 	C 	0.31420 0.62980 0.34030 0.02700
C 	C 	0.33930 0.61510 0.34030 -0.01600
C 	C 	0.34180 0.59380 0.35610 0.01900
C 	C 	0.31900 0.58710 0.37170 -0.05500
C 	C 	0.11630 0.69830 0.51040 0.06100
C 	C 	0.12560 0.72070 0.49830 -0.11600
C 	C 	0.13500 0.74280 0.51540 0.02400
C 	C 	0.13290 0.74150 0.54080 -0.01500
C 	C 	0.12390 0.71900 0.55050 0.01300
C 	C 	0.11300 0.69740 0.53540 -0.02600
C 	C 	0.02650 0.68940 0.52240 0.05400
C 	C 	0.01430 0.70100 0.54280 -0.06100
C 	C 	0.01470 0.68770 0.56720 0.01500
C 	C 	0.02570 0.66140 0.56900 -0.01300
C 	C 	0.03470 0.64830 0.54520 0.03200
C 	C 	0.03630 0.66350 0.52390 -0.10800
C 	C 	0.99980 0.72100 0.35290 0.05500
C 	C 	0.99100 0.74620 0.34770 -0.02100
C 	C 	0.96850 0.75060 0.33100 0.01200
C 	C 	0.95480 0.72980 0.31960 -0.01600
C 	C 	0.96360 0.70460 0.32480 0.03100
C 	C 	0.98600 0.70020 0.34150 -0.11900
C 	C 	0.94670 0.63030 0.46650 0.06800
C 	C 	0.92450 0.62090 0.48300 -0.02400
C 	C 	0.89580 0.61450 0.47400 0.00900
C 	C 	0.89110 0.61480 0.44580 -0.00800
C 	C 	0.91470 0.62550 0.42810 0.02600
C 	C 	0.94150 0.63250 0.44040 -0.10100
C 	C 	0.16120 0.80990 0.24710 0.05000
C 	C 	0.15530 0.80550 0.22040 -0.07700
C 	C 	0.12720 0.81290 0.21170 0.02200
C 	C 	0.10680 0.82130 0.22740 -0.01200
C 	C 	0.11240 0.82660 0.25370 0.01200
C 	C 	0.14030 0.81960 0.26430 -0.03200
Cd	Cd	0.14359 0.66020 0.35400 1.12500
Cd	Cd	0.20075 0.68212 0.40800 1.14000
Cd	Cd	0.08586 0.64207 0.40674 1.12500
Cd	Cd	0.14755 0.66161 0.46000 1.14200
Cd	Cd	0.12325 0.71301 0.41043 1.14200
Cd	Cd	0.22343 0.62532 0.35291 1.14600
Cd	Cd	0.08212 0.63937 0.29957 1.14300
Cd	Cd	0.06694 0.69062 0.46597 1.14800
Cd	Cd	0.02004 0.62238 0.45255 1.15100
Cd	Cd	0.20681 0.68222 0.30359 1.14800
Cd	Cd	0.12381 0.70710 0.29471 1.14800
Cd	Cd	0.06542 0.69271 0.34955 1.14100
Cd	Cd	0.01034 0.68492 0.40576 1.14900
Cd	Cd	0.17411 0.73504 0.35397 1.15100
S 	S 	0.10401 0.67894 0.38030 -1.15400
S 	S 	0.16216 0.69655 0.32662 -1.10000
S 	S 	0.18429 0.64419 0.38070 -1.15000
S 	S 	0.16453 0.70020 0.43716 -0.85600
S 	S 	0.04554 0.66057 0.43315 -1.09600
S 	S 	0.13561 0.75177 0.38251 -0.52200
S 	S 	0.04239 0.65897 0.32358 -0.85700
S 	S 	0.19013 0.64086 0.48279 -0.56300
S 	S 	0.10703 0.67094 0.49166 -0.52600
S 	S 	0.07843 0.72646 0.43524 -0.58100
S 	S 	0.24772 0.66467 0.42669 -0.53000
S 	S 	0.21768 0.71362 0.37386 -0.56800
Cd	Cd	0.98135 0.68955 0.47596 1.15600
Cd	Cd	0.18875 0.75789 0.28198 1.15900
S 	S 	0.02764 0.70763 0.49463 -0.51400
S 	S 	0.22359 0.72024 0.27631 -0.51300
S 	S 	0.09002 0.72937 0.32542 -0.55000
S 	S 	0.24641 0.66405 0.33051 -0.52100
S 	S 	0.25776 0.60729 0.38632 -0.56700
S 	S 	0.97958 0.63993 0.47849 -0.50900
S 	S 	0.13874 0.74521 0.26825 -0.52700
S 	S 	0.02789 0.71764 0.37500 -0.52400
S 	S 	0.19273 0.77229 0.32762 -0.49000
S 	S 	0.10690 0.66950 0.26838 -0.51400
S 	S 	0.97210 0.70679 0.43287 -0.51800
S 	S 	0.18370 0.64989 0.27371 -0.54700
S 	S 	0.19488 0.80085 0.25982 -0.47100
C 	C 	0.06360 0.75160 0.30620 0.06300
C 	C 	0.04510 0.77410 0.27090 0.01200
C 	C 	0.06630 0.75890 0.28160 -0.03800
C 	C 	0.04850 0.73330 0.29340 -0.07500
C 	C 	0.75510 0.22960 0.29100 0.05300
C 	C 	0.78010 0.23330 0.27670 -0.02800
C 	C 	0.80690 0.23870 0.28750 0.01100
C 	C 	0.80850 0.24270 0.31310 -0.01400
C 	C 	0.78490 0.24010 0.32800 0.03800
C 	C 	0.75880 0.23230 0.31700 -0.10800
C 	C 	0.48160 0.24040 0.43440 0.05900
C 	C 	0.48270 0.25420 0.45680 -0.10900
C 	C 	0.48870 0.28210 0.45690 0.02600
C 	C 	0.49250 0.29550 0.43670 -0.01800
C 	C 	0.49080 0.28060 0.41520 0.02400
C 	C 	0.48460 0.25420 0.41410 -0.05100
C 	C 	0.58830 0.25440 0.45080 0.08300
C 	C 	0.61480 0.26470 0.45330 -0.09200
C 	C 	0.62390 0.28960 0.46650 0.02500
C 	C 	0.60190 0.30020 0.47890 -0.01500
C 	C 	0.57270 0.29380 0.47540 0.01600
C 	C 	0.56610 0.27280 0.46050 -0.04200
C 	C 	0.77110 0.15290 0.30820 0.05800
C 	C 	0.79400 0.17020 0.30250 -0.02800
C 	C 	0.81470 0.16130 0.28520 0.00900
C 	C 	0.81360 0.13500 0.27350 -0.01300
C 	C 	0.79000 0.11910 0.27900 0.02200
C 	C 	0.76870 0.12830 0.29740 -0.09900
C 	C 	0.74330 0.23540 0.38740 0.08800
C 	C 	0.74030 0.26000 0.38150 -0.07800
C 	C 	0.76330 0.27800 0.39180 0.01900
C 	C 	0.78520 0.26680 0.40850 -0.01200
C 	C 	0.79030 0.23930 0.40890 0.01400
C 	C 	0.76840 0.22360 0.39400 -0.04500
C 	C 	0.75970 0.18660 0.44870 0.07700
C 	C 	0.74440 0.20530 0.45840 -0.11700
C 	C 	0.75560 0.22410 0.47370 0.03100
C 	C 	0.78500 0.22210 0.48290 -0.01900
C 	C 	0.80360 0.20350 0.47230 0.01200
C 	C 	0.78970 0.18450 0.45410 -0.03100
C 	C 	0.70540 0.16540 0.50300 0.07900
C 	C 	0.69160 0.18790 0.50840 -0.08800
C 	C 	0.70340 0.20640 0.52360 0.03200
C 	C 	0.73040 0.20130 0.53540 -0.02600
C 	C 	0.74250 0.17810 0.53070 0.03600
C 	C 	0.73310 0.16400 0.51300 -0.07600
C 	C 	0.65590 0.27400 0.40160 0.05100
C 	C 	0.67750 0.26580 0.41700 -0.11100
C 	C 	0.69440 0.28360 0.43350 0.01900
C 	C 	0.68630 0.31200 0.43110 -0.00900
C 	C 	0.66060 0.31860 0.41420 0.00700
C 	C 	0.64730 0.29940 0.39750 -0.01700
C 	C 	0.66530 0.29730 0.33180 0.04800
C 	C 	0.67800 0.32170 0.33830 -0.01800
C 	C 	0.65600 0.33910 0.34340 0.01100
C 	C 	0.62810 0.33620 0.33610 -0.01400
C 	C 	0.61720 0.31360 0.33200 0.02900
C 	C 	0.63740 0.29090 0.32870 -0.10100
C 	C 	0.71336 0.13717 0.25344 0.05700
C 	C 	0.71970 0.11084 0.25350 -0.08300
C 	C 	0.74190 0.10133 0.23858 0.02900
C 	C 	0.75770 0.11820 0.22359 -0.01600
C 	C 	0.75130 0.14450 0.22353 0.01900
C 	C 	0.72918 0.15400 0.23845 -0.05000
C 	C 	0.64150 0.23469 0.24000 0.10000
C 	C 	0.65870 0.21322 0.23510 -0.14200
C 	C 	0.66280 0.20491 0.21063 0.04300
C 	C 	0.64970 0.21810 0.19100 -0.02100
C 	C 	0.63250 0.23950 0.19580 0.01800
C 	C 	0.62830 0.24780 0.22030 -0.04300
C 	C 	0.57500 0.18861 0.25390 0.01200
C 	C 	0.57770 0.19885 0.22990 -0.01300
C 	C 	0.55400 0.21032 0.21840 0.01000
C 	C 	0.52770 0.21156 0.23080 -0.01300
C 	C 	0.52500 0.20133 0.25470 0.02900
C 	C 	0.54870 0.18985 0.26630 -0.09400
C 	C 	0.79390 0.10180 0.37170 0.06900
C 	C 	0.79140 0.12310 0.35590 -0.07800
C 	C 	0.81420 0.12980 0.34030 0.02700
C 	C 	0.83930 0.11510 0.34030 -0.01600
C 	C 	0.84180 0.09380 0.35610 0.01900
C 	C 	0.81900 0.08710 0.37170 -0.05500
C 	C 	0.61630 0.19830 0.51040 0.06100
C 	C 	0.62560 0.22070 0.49830 -0.11600
C 	C 	0.63500 0.24280 0.51540 0.02400
C 	C 	0.63290 0.24150 0.54080 -0.01500
C 	C 	0.62390 0.21900 0.55050 0.01300
C 	C 	0.61300 0.19740 0.53540 -0.02600
C 	C 	0.52650 0.18940 0.52240 0.05400
C 	C 	0.51430 0.20100 0.54280 -0.06100
C 	C 	0.51470 0.18770 0.56720 0.01500
C 	C 	0.52570 0.16140 0.56900 -0.01300
C 	C 	0.53470 0.14830 0.54520 0.03200
C 	C 	0.53630 0.16350 0.52390 -0.10800
C 	C 	0.49980 0.22100 0.35290 0.05500
C 	C 	0.49100 0.24620 0.34770 -0.02100
C 	C 	0.46850 0.25060 0.33100 0.01200
C 	C 	0.45480 0.22980 0.31960 -0.01600
C 	C 	0.46360 0.20460 0.32480 0.03100
C 	C 	0.48600 0.20020 0.34150 -0.11900
C 	C 	0.44670 0.13030 0.46650 0.06800
C 	C 	0.42450 0.12090 0.48300 -0.02400
C 	C 	0.39580 0.11450 0.47400 0.00900
C 	C 	0.39110 0.11480 0.44580 -0.00800
C 	C 	0.41470 0.12550 0.42810 0.02600
C 	C 	0.44150 0.13250 0.44040 -0.10100
C 	C 	0.66120 0.30990 0.24710 0.05000
C 	C 	0.65530 0.30550 0.22040 -0.07700
C 	C 	0.62720 0.31290 0.21170 0.02200
C 	C 	0.60680 0.32130 0.22740 -0.01200
C 	C 	0.61240 0.32660 0.25370 0.01200
C 	C 	0.64030 0.31960 0.26430 -0.03200
Cd	Cd	0.64359 0.16020 0.35400 1.12500
Cd	Cd	0.70075 0.18212 0.40800 1.14000
Cd	Cd	0.58586 0.14207 0.40674 1.12500
Cd	Cd	0.64755 0.16161 0.46000 1.14200
Cd	Cd	0.62325 0.21301 0.41043 1.14200
Cd	Cd	0.72343 0.12532 0.35291 1.14600
Cd	Cd	0.58212 0.13937 0.29957 1.14300
Cd	Cd	0.56694 0.19062 0.46597 1.14800
Cd	Cd	0.52004 0.12238 0.45255 1.15100
Cd	Cd	0.70681 0.18222 0.30359 1.14800
Cd	Cd	0.62381 0.20710 0.29471 1.14800
Cd	Cd	0.56542 0.19271 0.34955 1.14100
Cd	Cd	0.51034 0.18492 0.40576 1.14900
Cd	Cd	0.67411 0.23504 0.35397 1.15100
S 	S 	0.60401 0.17894 0.38030 -1.15400
S 	S 	0.66216 0.19655 0.32662 -1.10000
S 	S 	0.68429 0.14419 0.38070 -1.15000
S 	S 	0.66453 0.20020 0.43716 -0.85600
S 	S 	0.54554 0.16057 0.43315 -1.09600
S 	S 	0.63561 0.25177 0.38251 -0.52200
S 	S 	0.54239 0.15897 0.32358 -0.85700
S 	S 	0.69013 0.14086 0.48279 -0.56300
S 	S 	0.60703 0.17094 0.49166 -0.52600
S 	S 	0.57843 0.22646 0.43524 -0.58100
S 	S 	0.74772 0.16467 0.42669 -0.53000
S 	S 	0.71768 0.21362 0.37386 -0.56800
Cd	Cd	0.48135 0.18955 0.47596 1.15600
Cd	Cd	0.68875 0.25789 0.28198 1.15900
S 	S 	0.52764 0.20763 0.49463 -0.51400
S 	S 	0.72359 0.22024 0.27631 -0.51300
S 	S 	0.59002 0.22937 0.32542 -0.55000
S 	S 	0.74641 0.16405 0.33051 -0.52100
S 	S 	0.75776 0.10729 0.38632 -0.56700
S 	S 	0.47958 0.13993 0.47849 -0.50900
S 	S 	0.63874 0.24521 0.26825 -0.52700
S 	S 	0.52789 0.21764 0.37500 -0.52400
S 	S 	0.69273 0.27229 0.32762 -0.49000
S 	S 	0.60690 0.16950 0.26838 -0.51400
S 	S 	0.47210 0.20679 0.43287 -0.51800
S 	S 	0.68370 0.14989 0.27371 -0.54700
S 	S 	0.69488 0.30085 0.25982 -0.47100
C 	C 	0.56360 0.25160 0.30620 0.06300
C 	C 	0.54510 0.27410 0.27090 0.01200
C 	C 	0.56630 0.25890 0.28160 -0.03800
C 	C 	0.54850 0.23330 0.29340 -0.07500
C 	C 	0.75510 0.72960 0.79100 0.05300
C 	C 	0.78010 0.73330 0.77670 -0.02800
C 	C 	0.80690 0.73870 0.78750 0.01100
C 	C 	0.80850 0.74270 0.81310 -0.01400
C 	C 	0.78490 0.74010 0.82800 0.03800
C 	C 	0.75880 0.73230 0.81700 -0.10800
C 	C 	0.48160 0.74040 0.93440 0.05900
C 	C 	0.48270 0.75420 0.95680 -0.10900
C 	C 	0.48870 0.78210 0.95690 0.02600
C 	C 	0.49250 0.79550 0.93670 -0.01800
C 	C 	0.49080 0.78060 0.91520 0.02400
C 	C 	0.48460 0.75420 0.91410 -0.05100
C 	C 	0.58830 0.75440 0.95080 0.08300
C 	C 	0.61480 0.76470 0.95330 -0.09200
C 	C 	0.62390 0.78960 0.96650 0.02500
C 	C 	0.60190 0.80020 0.97890 -0.01500
C 	C 	0.57270 0.79380 0.97540 0.01600
C 	C 	0.56610 0.77280 0.96050 -0.04200
C 	C 	0.77110 0.65290 0.80820 0.05800
C 	C 	0.79400 0.67020 0.80250 -0.02800
C 	C 	0.81470 0.66130 0.78520 0.00900
C 	C 	0.81360 0.63500 0.77350 -0.01300
C 	C 	0.79000 0.61910 0.77900 0.02200
C 	C 	0.76870 0.62830 0.79740 -0.09900
C 	C 	0.74330 0.73540 0.88740 0.08800
C 	C 	0.74030 0.76000 0.88150 -0.07800
C 	C 	0.76330 0.77800 0.89180 0.01900
C 	C 	0.78520 0.76680 0.90850 -0.01200
C 	C 	0.79030 0.73930 0.90890 0.01400
C 	C 	0.76840 0.72360 0.89400 -0.04500
C 	C 	0.75970 0.68660 0.94870 0.07700
C 	C 	0.74440 0.70530 0.95840 -0.11700
C 	C 	0.75560 0.72410 0.97370 0.03100
C 	C 	0.78500 0.72210 0.98290 -0.01900
C 	C 	0.80360 0.70350 0.97230 0.01200
C 	C 	0.78970 0.68450 0.95410 -0.03100
C 	C 	0.70540 0.66540 0.00300 0.07900
C 	C 	0.69160 0.68790 0.00840 -0.08800
C 	C 	0.70340 0.70640 0.02360 0.03200
C 	C 	0.73040 0.70130 0.03540 -0.02600
C 	C 	0.74250 0.67810 0.03070 0.03600
C 	C 	0.73310 0.66400 0.01300 -0.07600
C 	C 	0.65590 0.77400 0.90160 0.05100
C 	C 	0.67750 0.76580 0.91700 -0.11100
C 	C 	0.69440 0.78360 0.93350 0.01900
C 	C 	0.68630 0.81200 0.93110 -0.00900
C 	C 	0.66060 0.81860 0.91420 0.00700
C 	C 	0.64730 0.79940 0.89750 -0.01700
C 	C 	0.66530 0.79730 0.83180 0.04800
C 	C 	0.67800 0.82170 0.83830 -0.01800
C 	C 	0.65600 0.83910 0.84340 0.01100
C 	C 	0.62810 0.83620 0.83610 -0.01400
C 	C 	0.61720 0.81360 0.83200 0.02900
C 	C 	0.63740 0.79090 0.82870 -0.10100
C 	C 	0.71336 0.63717 0.75344 0.05700
C 	C 	0.71970 0.61084 0.75350 -0.08300
C 	C 	0.74190 0.60133 0.73858 0.02900
C 	C 	0.75770 0.61820 0.72359 -0.01600
C 	C 	0.75130 0.64450 0.72353 0.01900
C 	C 	0.72918 0.65400 0.73845 -0.05000
C 	C 	0.64150 0.73469 0.74000 0.10000
C 	C 	0.65870 0.71322 0.73510 -0.14200
C 	C 	0.66280 0.70491 0.71063 0.04300
C 	C 	0.64970 0.71810 0.69100 -0.02100
C 	C 	0.63250 0.73950 0.69580 0.01800
C 	C 	0.62830 0.74780 0.72030 -0.04300
C 	C 	0.57500 0.68861 0.75390 0.01200
C 	C 	0.57770 0.69885 0.72990 -0.01300
C 	C 	0.55400 0.71032 0.71840 0.01000
C 	C 	0.52770 0.71156 0.73080 -0.01300
C 	C 	0.52500 0.70133 0.75470 0.02900
C 	C 	0.54870 0.68985 0.76630 -0.09400
C 	C 	0.79390 0.60180 0.87170 0.06900
C 	C 	0.79140 0.62310 0.85590 -0.07800
C 	C 	0.81420 0.62980 0.84030 0.02700
C 	C 	0.83930 0.61510 0.84030 -0.01600
C 	C 	0.84180 0.59380 0.85610 0.01900
C 	C 	0.81900 0.58710 0.87170 -0.05500
C 	C 	0.61630 0.69830 0.01040 0.06100
C 	C 	0.62560 0.72070 0.99830 -0.11600
C 	C 	0.63500 0.74280 0.01540 0.02400
C 	C 	0.63290 0.74150 0.04080 -0.01500
C 	C 	0.62390 0.71900 0.05050 0.01300
C 	C 	0.61300 0.69740 0.03540 -0.02600
C 	C 	0.52650 0.68940 0.02240 0.05400
C 	C 	0.51430 0.70100 0.04280 -0.06100
C 	C 	0.51470 0.68770 0.06720 0.01500
C 	C 	0.52570 0.66140 0.06900 -0.01300
C 	C 	0.53470 0.64830 0.04520 0.03200
C 	C 	0.53630 0.66350 0.02390 -0.10800
C 	C 	0.49980 0.72100 0.85290 0.05500
C 	C 	0.49100 0.74620 0.84770 -0.02100
C 	C 	0.46850 0.75060 0.83100 0.01200
C 	C 	0.45480 0.72980 0.81960 -0.01600
C 	C 	0.46360 0.70460 0.82480 0.03100
C 	C 	0.48600 0.70020 0.84150 -0.11900
C 	C 	0.44670 0.63030 0.96650 0.06800
C 	C 	0.42450 0.62090 0.98300 -0.02400
C 	C 	0.39580 0.61450 0.97400 0.00900
C 	C 	0.39110 0.61480 0.94580 -0.00800
C 	C 	0.41470 0.62550 0.92810 0.02600
C 	C 	0.44150 0.63250 0.94040 -0.10100
C 	C 	0.66120 0.80990 0.74710 0.05000
C 	C 	0.65530 0.80550 0.72040 -0.07700
C 	C 	0.62720 0.81290 0.71170 0.02200
C 	C 	0.60680 0.82130 0.72740 -0.01200
C 	C 	0.61240 0.82660 0.75370 0.01200
C 	C 	0.64030 0.81960 0.76430 -0.03200
Cd	Cd	0.64359 0.66020 0.85400 1.12500
Cd	Cd	0.70075 0.68212 0.90800 1.14000
Cd	Cd	0.58586 0.64207 0.90674 1.12500
Cd	Cd	0.64755 0.66161 0.96000 1.14200
Cd	Cd	0.62325 0.71301 0.91043 1.14200
Cd	Cd	0.72343 0.62532 0.85291 1.14600
Cd	Cd	0.58212 0.63937 0.79957 1.14300
Cd	Cd	0.56694 0.69062 0.96597 1.14800
Cd	Cd	0.52004 0.62238 0.95255 1.15100
Cd	Cd	0.70681 0.68222 0.80359 1.14800
Cd	Cd	0.62381 0.70710 0.79471 1.14800
Cd	Cd	0.56542 0.69271 0.84955 1.14100
Cd	Cd	0.51034 0.68492 0.90576 1.14900
Cd	Cd	0.67411 0.73504 0.85397 1.15100
S 	S 	0.60401 0.67894 0.88030 -1.15400
S 	S 	0.66216 0.69655 0.82662 -1.10000
S 	S 	0.68429 0.64419 0.88070 -1.15000
S 	S 	0.66453 0.70020 0.93716 -0.85600
S 	S 	0.54554 0.66057 0.93315 -1.09600
S 	S 	0.63561 0.75177 0.88251 -0.52200
S 	S 	0.54239 0.65897 0.82358 -0.85700
S 	S 	0.69013 0.64086 0.98279 -0.56300
S 	S 	0.60703 0.67094 0.99166 -0.52600
S 	S 	0.57843 0.72646 0.93524 -0.58100
S 	S 	0.74772 0.66467 0.92669 -0.53000
S 	S 	0.71768 0.71362 0.87386 -0.56800
Cd	Cd	0.48135 0.68955 0.97596 1.15600
Cd	Cd	0.68875 0.75789 0.78198 1.15900
S 	S 	0.52764 0.70763 0.99463 -0.51400
S 	S 	0.72359 0.72024 0.77631 -0.51300
S 	S 	0.59002 0.72937 0.82542 -0.55000
S 	S 	0.74641 0.66405 0.83051 -0.52100
S 	S 	0.75776 0.60729 0.88632 -0.56700
S 	S 	0.47958 0.63993 0.97849 -0.50900
S 	S 	0.63874 0.74521 0.76825 -0.52700
S 	S 	0.52789 0.71764 0.87500 -0.52400
S 	S 	0.69273 0.77229 0.82762 -0.49000
S 	S 	0.60690 0.66950 0.76838 -0.51400
S 	S 	0.47210 0.70679 0.93287 -0.51800
S 	S 	0.68370 0.64989 0.77371 -0.54700
S 	S 	0.69488 0.80085 0.75982 -0.47100
C 	C 	0.56360 0.75160 0.80620 0.06300
C 	C 	0.54510 0.77410 0.77090 0.01200
C 	C 	0.56630 0.75890 0.78160 -0.03800
C 	C 	0.54850 0.73330 0.79340 -0.07500
C 	C 	0.74490 0.47960 0.04100 0.05300
C 	C 	0.71990 0.48330 0.02670 -0.02800
C 	C 	0.69310 0.48870 0.03750 0.01100
C 	C 	0.69150 0.49270 0.06310 -0.01400
C 	C 	0.71510 0.49010 0.07800 0.03800
C 	C 	0.74120 0.48230 0.06700 -0.10800
C 	C 	0.01840 0.49040 0.18440 0.05900
C 	C 	0.01730 0.50420 0.20680 -0.10900
C 	C 	0.01130 0.53210 0.20690 0.02600
C 	C 	0.00750 0.54550 0.18670 -0.01800
C 	C 	0.00920 0.53060 0.16520 0.02400
C 	C 	0.01540 0.50420 0.16410 -0.05100
C 	C 	0.91170 0.50440 0.20080 0.08300
C 	C 	0.88520 0.51470 0.20330 -0.09200
C 	C 	0.87610 0.53960 0.21650 0.02500
C 	C 	0.89810 0.55020 0.22890 -0.01500
C 	C 	0.92730 0.54380 0.22540 0.01600
C 	C 	0.93390 0.52280 0.21050 -0.04200
C 	C 	0.72890 0.40290 0.05820 0.05800
C 	C 	0.70600 0.42020 0.05250 -0.02800
C 	C 	0.68530 0.41130 0.03520 0.00900
C 	C 	0.68640 0.38500 0.02350 -0.01300
C 	C 	0.71000 0.36910 0.02900 0.02200
C 	C 	0.73130 0.37830 0.04740 -0.09900
C 	C 	0.75670 0.48540 0.13740 0.08800
C 	C 	0.75970 0.51000 0.13150 -0.07800
C 	C 	0.73670 0.52800 0.14180 0.01900
C 	C 	0.71480 0.51680 0.15850 -0.01200
C 	C 	0.70970 0.48930 0.15890 0.01400
C 	C 	0.73160 0.47360 0.14400 -0.04500
C 	C 	0.74030 0.43660 0.19870 0.07700
C 	C 	0.75560 0.45530 0.20840 -0.11700
C 	C 	0.74440 0.47410 0.22370 0.03100
C 	C 	0.71500 0.47210 0.23290 -0.01900
C 	C 	0.69640 0.45350 0.22230 0.01200
C 	C 	0.71030 0.43450 0.20410 -0.03100
C 	C 	0.79460 0.41540 0.25300 0.07900
C 	C 	0.80840 0.43790 0.25840 -0.08800
C 	C 	0.79660 0.45640 0.27360 0.03200
C 	C 	0.76960 0.45130 0.28540 -0.02600
C 	C 	0.75750 0.42810 0.28070 0.03600
C 	C 	0.76690 0.41400 0.26300 -0.07600
C 	C 	0.84410 0.52400 0.15160 0.05100
C 	C 	0.82250 0.51580 0.16700 -0.11100
C 	C 	0.80560 0.53360 0.18350 0.01900
C 	C 	0.81370 0.56200 0.18110 -0.00900
C 	C 	0.83940 0.56860 0.16420 0.00700
C 	C 	0.85270 0.54940 0.14750 -0.01700
C 	C 	0.83470 0.54730 0.08180 0.04800
C 	C 	0.82200 0.57170 0.08830 -0.01800
C 	C 	0.84400 0.58910 0.09340 0.01100
C 	C 	0.87190 0.58620 0.08610 -0.01400
C 	C 	0.88280 0.56360 0.08200 0.02900
C 	C 	0.86260 0.54090 0.07870 -0.10100
C 	C 	0.78664 0.38717 0.00344 0.05700
C 	C 	0.78030 0.36084 0.00350 -0.08300
C 	C 	0.75810 0.35133 0.98858 0.02900
C 	C 	0.74230 0.36820 0.97359 -0.01600
C 	C 	0.74870 0.39450 0.97353 0.01900
C 	C 	0.77082 0.40400 0.98845 -0.05000
C 	C 	0.85850 0.48469 0.99000 0.10000
C 	C 	0.84130 0.46322 0.98510 -0.14200
C 	C 	0.83720 0.45491 0.96063 0.04300
C 	C 	0.85030 0.46810 0.94100 -0.02100
C 	C 	0.86750 0.48950 0.94580 0.01800
C 	C 	0.87170 0.49780 0.97030 -0.04300
C 	C 	0.92500 0.43861 0.00390 0.01200
C 	C 	0.92230 0.44885 0.97990 -0.01300
C 	C 	0.94600 0.46032 0.96840 0.01000
C 	C 	0.97230 0.46156 0.98080 -0.01300
C 	C 	0.97500 0.45133 0.00470 0.02900
C 	C 	0.95130 0.43985 0.01630 -0.09400
C 	C 	0.70610 0.35180 0.12170 0.06900
C 	C 	0.70860 0.37310 0.10590 -0.07800
C 	C 	0.68580 0.37980 0.09030 0.02700
C 	C 	0.66070 0.36510 0.09030 -0.01600
C 	C 	0.65820 0.34380 0.10610 0.01900
C 	C 	0.68100 0.33710 0.12170 -0.05500
C 	C 	0.88370 0.44830 0.26040 0.06100
C 	C 	0.87440 0.47070 0.24830 -0.11600
C 	C 	0.86500 0.49280 0.26540 0.02400
C 	C 	0.86710 0.49150 0.29080 -0.01500
C 	C 	0.87610 0.46900 0.30050 0.01300
C 	C 	0.88700 0.44740 0.28540 -0.02600
C 	C 	0.97350 0.43940 0.27240 0.05400
C 	C 	0.98570 0.45100 0.29280 -0.06100
C 	C 	0.98530 0.43770 0.31720 0.01500
C 	C 	0.97430 0.41140 0.31900 -0.01300
C 	C 	0.96530 0.39830 0.29520 0.03200
C 	C 	0.96370 0.41350 0.27390 -0.10800
C 	C 	0.00020 0.47100 0.10290 0.05500
C 	C 	0.00900 0.49620 0.09770 -0.02100
C 	C 	0.03150 0.50060 0.08100 0.01200
C 	C 	0.04520 0.47980 0.06960 -0.01600
C 	C 	0.03640 0.45460 0.07480 0.03100
C 	C 	0.01400 0.45020 0.09150 -0.11900
C 	C 	0.05330 0.38030 0.21650 0.06800
C 	C 	0.07550 0.37090 0.23300 -0.02400
C 	C 	0.10420 0.36450 0.22400 0.00900
C 	C 	0.10890 0.36480 0.19580 -0.00800
C 	C 	0.08530 0.37550 0.17810 0.02600
C 	C 	0.05850 0.38250 0.19040 -0.10100
C 	C 	0.83880 0.55990 0.99710 0.05000
C 	C 	0.84470 0.55550 0.97040 -0.07700
C 	C 	0.87280 0.56290 0.96170 0.02200
C 	C 	0.89320 0.57130 0.97740 -0.01200
C 	C 	0.88760 0.57660 0.00370 0.01200
C 	C 	0.85970 0.56960 0.01430 -0.03200
Cd	Cd	0.85641 0.41020 0.10400 1.12500
Cd	Cd	0.79925 0.43212 0.15800 1.14000
Cd	Cd	0.91414 0.39207 0.15674 1.12500
Cd	Cd	0.85245 0.41161 0.21000 1.14200
Cd	Cd	0.87675 0.46301 0.16043 1.14200
Cd	Cd	0.77657 0.37532 0.10291 1.14600
Cd	Cd	0.91788 0.38937 0.04957 1.14300
Cd	Cd	0.93306 0.44062 0.21597 1.14800
Cd	Cd	0.97996 0.37238 0.20255 1.15100
Cd	Cd	0.79319 0.43222 0.05359 1.14800
Cd	Cd	0.87619 0.45710 0.04471 1.14800
Cd	Cd	0.93458 0.44271 0.09955 1.14100
Cd	Cd	0.98966 0.43492 0.15576 1.14900
Cd	Cd	0.82589 0.48504 0.10397 1.15100
S 	S 	0.89599 0.42894 0.13030 -1.15400
S 	S 	0.83784 0.44655 0.07662 -1.10000
S 	S 	0.81571 0.39419 0.13070 -1.15000
S 	S 	0.83547 0.45020 0.18716 -0.85600
S 	S 	0.95446 0.41057 0.18315 -1.09600
S 	S 	0.86439 0.50177 0.13251 -0.52200
S 	S 	0.95761 0.40897 0.07358 -0.85700
S 	S 	0.80987 0.39086 0.23279 -0.56300
S 	S 	0.89297 0.42094 0.24166 -0.52600
S 	S 	0.92157 0.47646 0.18524 -0.58100
S 	S 	0.75228 0.41467 0.17669 -0.53000
S 	S 	0.78232 0.46362 0.12386 -0.56800
Cd	Cd	0.01865 0.43955 0.22596 1.15600
Cd	Cd	0.81125 0.50789 0.03198 1.15900
S 	S 	0.97236 0.45763 0.24463 -0.51400
S 	S 	0.77641 0.47024 0.02631 -0.51300
S 	S 	0.90998 0.47937 0.07542 -0.55000
S 	S 	0.75359 0.41405 0.08051 -0.52100
S 	S 	0.74224 0.35729 0.13632 -0.56700
S 	S 	0.02042 0.38993 0.22849 -0.50900
S 	S 	0.86126 0.49521 0.01825 -0.52700
S 	S 	0.97211 0.46764 0.12500 -0.52400
S 	S 	0.80727 0.52229 0.07762 -0.49000
S 	S 	0.89310 0.41950 0.01838 -0.51400
S 	S 	0.02790 0.45679 0.18287 -0.51800
S 	S 	0.81630 0.39989 0.02371 -0.54700
S 	S 	0.80512 0.55085 0.00982 -0.47100
C 	C 	0.93640 0.50160 0.05620 0.06300
C 	C 	0.95490 0.52410 0.02090 0.01200
C 	C 	0.93370 0.50890 0.03160 -0.03800
C 	C 	0.95150 0.48330 0.04340 -0.07500
C 	C 	0.74490 0.97960 0.54100 0.05300
C 	C 	0.71990 0.98330 0.52670 -0.02800
C 	C 	0.69310 0.98870 0.53750 0.01100
C 	C 	0.69150 0.99270 0.56310 -0.01400
C 	C 	0.71510 0.99010 0.57800 0.03800
C 	C 	0.74120 0.98230 0.56700 -0.10800
C 	C 	0.01840 0.99040 0.68440 0.05900
C 	C 	0.01730 0.00420 0.70680 -0.10900
C 	C 	0.01130 0.03210 0.70690 0.02600
C 	C 	0.00750 0.04550 0.68670 -0.01800
C 	C 	0.00920 0.03060 0.66520 0.02400
C 	C 	0.01540 0.00420 0.66410 -0.05100
C 	C 	0.91170 0.00440 0.70080 0.08300
C 	C 	0.88520 0.01470 0.70330 -0.09200
C 	C 	0.87610 0.03960 0.71650 0.02500
C 	C 	0.89810 0.05020 0.72890 -0.01500
C 	C 	0.92730 0.04380 0.72540 0.01600
C 	C 	0.93390 0.02280 0.71050 -0.04200
C 	C 	0.72890 0.90290 0.55820 0.05800
C 	C 	0.70600 0.92020 0.55250 -0.02800
C 	C 	0.68530 0.91130 0.53520 0.00900
C 	C 	0.68640 0.88500 0.52350 -0.01300
C 	C 	0.71000 0.86910 0.52900 0.02200
C 	C 	0.73130 0.87830 0.54740 -0.09900
C 	C 	0.75670 0.98540 0.63740 0.08800
C 	C 	0.75970 0.01000 0.63150 -0.07800
C 	C 	0.73670 0.02800 0.64180 0.01900
C 	C 	0.71480 0.01680 0.65850 -0.01200
C 	C 	0.70970 0.98930 0.65890 0.01400
C 	C 	0.73160 0.97360 0.64400 -0.04500
C 	C 	0.74030 0.93660 0.69870 0.07700
C 	C 	0.75560 0.95530 0.70840 -0.11700
C 	C 	0.74440 0.97410 0.72370 0.03100
C 	C 	0.71500 0.97210 0.73290 -0.01900
C 	C 	0.69640 0.95350 0.72230 0.01200
C 	C 	0.71030 0.93450 0.70410 -0.03100
C 	C 	0.79460 0.91540 0.75300 0.07900
C 	C 	0.80840 0.93790 0.75840 -0.08800
C 	C 	0.79660 0.95640 0.77360 0.03200
C 	C 	0.76960 0.95130 0.78540 -0.02600
C 	C 	0.75750 0.92810 0.78070 0.03600
C 	C 	0.76690 0.91400 0.76300 -0.07600
C 	C 	0.84410 0.02400 0.65160 0.05100
C 	C 	0.82250 0.01580 0.66700 -0.11100
C 	C 	0.80560 0.03360 0.68350 0.01900
C 	C 	0.81370 0.06200 0.68110 -0.00900
C 	C 	0.83940 0.06860 0.66420 0.00700
C 	C 	0.85270 0.04940 0.64750 -0.01700
C 	C 	0.83470 0.04730 0.58180 0.04800
C 	C 	0.82200 0.07170 0.58830 -0.01800
C 	C 	0.84400 0.08910 0.59340 0.01100
C 	C 	0.87190 0.08620 0.58610 -0.01400
C 	C 	0.88280 0.06360 0.58200 0.02900
C 	C 	0.86260 0.04090 0.57870 -0.10100
C 	C 	0.78664 0.88717 0.50344 0.05700
C 	C 	0.78030 0.86084 0.50350 -0.08300
C 	C 	0.75810 0.85133 0.48858 0.02900
C 	C 	0.74230 0.86820 0.47359 -0.01600
C 	C 	0.74870 0.89450 0.47353 0.01900
C 	C 	0.77082 0.90400 0.48845 -0.05000
C 	C 	0.85850 0.98469 0.49000 0.10000
C 	C 	0.84130 0.96322 0.48510 -0.14200
C 	C 	0.83720 0.95491 0.46063 0.04300
C 	C 	0.85030 0.96810 0.44100 -0.02100
C 	C 	0.86750 0.98950 0.44580 0.01800
C 	C 	0.87170 0.99780 0.47030 -0.04300
C 	C 	0.92500 0.93861 0.50390 0.01200
C 	C 	0.92230 0.94885 0.47990 -0.01300
C 	C 	0.94600 0.96032 0.46840 0.01000
C 	C 	0.97230 0.96156 0.48080 -0.01300
C 	C 	0.97500 0.95133 0.50470 0.02900
C 	C 	0.95130 0.93985 0.51630 -0.09400
C 	C 	0.70610 0.85180 0.62170 0.06900
C 	C 	0.70860 0.87310 0.60590 -0.07800
C 	C 	0.68580 0.87980 0.59030 0.02700
C 	C 	0.66070 0.86510 0.59030 -0.01600
C 	C 	0.65820 0.84380 0.60610 0.01900
C 	C 	0.68100 0.83710 0.62170 -0.05500
C 	C 	0.88370 0.94830 0.76040 0.06100
C 	C 	0.87440 0.97070 0.74830 -0.11600
C 	C 	0.86500 0.99280 0.76540 0.02400
C 	C 	0.86710 0.99150 0.79080 -0.01500
C 	C 	0.87610 0.96900 0.80050 0.01300
C 	C 	0.88700 0.94740 0.78540 -0.02600
C 	C 	0.97350 0.93940 0.77240 0.05400
C 	C 	0.98570 0.95100 0.79280 -0.06100
C 	C 	0.98530 0.93770 0.81720 0.01500
C 	C 	0.97430 0.91140 0.81900 -0.01300
C 	C 	0.96530 0.89830 0.79520 0.03200
C 	C 	0.96370 0.91350 0.77390 -0.10800
C 	C 	0.00020 0.97100 0.60290 0.05500
C 	C 	0.00900 0.99620 0.59770 -0.02100
C 	C 	0.03150 0.00060 0.58100 0.01200
C 	C 	0.04520 0.97980 0.56960 -0.01600
C 	C 	0.03640 0.95460 0.57480 0.03100
C 	C 	0.01400 0.95020 0.59150 -0.11900
C 	C 	0.05330 0.88030 0.71650 0.06800
C 	C 	0.07550 0.87090 0.73300 -0.02400
C 	C 	0.10420 0.86450 0.72400 0.00900
C 	C 	0.10890 0.86480 0.69580 -0.00800
C 	C 	0.08530 0.87550 0.67810 0.02600
C 	C 	0.05850 0.88250 0.69040 -0.10100
C 	C 	0.83880 0.05990 0.49710 0.05000
C 	C 	0.84470 0.05550 0.47040 -0.07700
C 	C 	0.87280 0.06290 0.46170 0.02200
C 	C 	0.89320 0.07130 0.47740 -0.01200
C 	C 	0.88760 0.07660 0.50370 0.01200
C 	C 	0.85970 0.06960 0.51430 -0.03200
Cd	Cd	0.85641 0.91020 0.60400 1.12500
Cd	Cd	0.79925 0.93212 0.65800 1.14000
Cd	Cd	0.91414 0.89207 0.65674 1.12500
Cd	Cd	0.85245 0.91161 0.71000 1.14200
Cd	Cd	0.87675 0.96301 0.66043 1.14200
Cd	Cd	0.77657 0.87532 0.60291 1.14600
Cd	Cd	0.91788 0.88937 0.54957 1.14300
Cd	Cd	0.93306 0.94062 0.71597 1.14800
Cd	Cd	0.97996 0.87238 0.70255 1.15100
Cd	Cd	0.79319 0.93222 0.55359 1.14800
Cd	Cd	0.87619 0.95710 0.54471 1.14800
Cd	Cd	0.93458 0.94271 0.59955 1.14100
Cd	Cd	0.98966 0.93492 0.65576 1.14900
Cd	Cd	0.82589 0.98504 0.60397 1.15100
S 	S 	0.89599 0.92894 0.63030 -1.15400
S 	S 	0.83784 0.94655 0.57662 -1.10000
S 	S 	0.81571 0.89419 0.63070 -1.15000
S 	S 	0.83547 0.95020 0.68716 -0.85600
S 	S 	0.95446 0.91057 0.68315 -1.09600
S 	S 	0.86439 0.00177 0.63251 -0.52200
S 	S 	0.95761 0.90897 0.57358 -0.85700
S 	S 	0.80987 0.89086 0.73279 -0.56300
S 	S 	0.89297 0.92094 0.74166 -0.52600
S 	S 	0.92157 0.97646 0.68524 -0.58100
S 	S 	0.75228 0.91467 0.67669 -0.53000
S 	S 	0.78232 0.96362 0.62386 -0.56800
Cd	Cd	0.01865 0.93955 0.72596 1.15600
Cd	Cd	0.81125 0.00789 0.53198 1.15900
S 	S 	0.97236 0.95763 0.74463 -0.51400
S 	S 	0.77641 0.97024 0.52631 -0.51300
S 	S 	0.90998 0.97937 0.57542 -0.55000
S 	S 	0.75359 0.91405 0.58051 -0.52100
S 	S 	0.74224 0.85729 0.63632 -0.56700
S 	S 	0.02042 0.88993 0.72849 -0.50900
S 	S 	0.86126 0.99521 0.51825 -0.52700
S 	S 	0.97211 0.96764 0.62500 -0.52400
S 	S 	0.80727 0.02229 0.57762 -0.49000
S 	S 	0.89310 0.91950 0.51838 -0.51400
S 	S 	0.02790 0.95679 0.68287 -0.51800
S 	S 	0.81630 0.89989 0.52371 -0.54700
S 	S 	0.80512 0.05085 0.50982 -0.47100
C 	C 	0.93640 0.00160 0.55620 0.06300
C 	C 	0.95490 0.02410 0.52090 0.01200
C 	C 	0.93370 0.00890 0.53160 -0.03800
C 	C 	0.95150 0.98330 0.54340 -0.07500
C 	C 	0.24490 0.47960 0.54100 0.05300
C 	C 	0.21990 0.48330 0.52670 -0.02800
C 	C 	0.19310 0.48870 0.53750 0.01100
C 	C 	0.19150 0.49270 0.56310 -0.01400
C 	C 	0.21510 0.49010 0.57800 0.03800
C 	C 	0.24120 0.48230 0.56700 -0.10800
C 	C 	0.51840 0.49040 0.68440 0.05900
C 	C 	0.51730 0.50420 0.70680 -0.10900
C 	C 	0.51130 0.53210 0.70690 0.02600
C 	C 	0.50750 0.54550 0.68670 -0.01800
C 	C 	0.50920 0.53060 0.66520 0.02400
C 	C 	0.51540 0.50420 0.66410 -0.05100
C 	C 	0.41170 0.50440 0.70080 0.08300
C 	C 	0.38520 0.51470 0.70330 -0.09200
C 	C 	0.37610 0.53960 0.71650 0.02500
C 	C 	0.39810 0.55020 0.72890 -0.01500
C 	C 	0.42730 0.54380 0.72540 0.01600
C 	C 	0.43390 0.52280 0.71050 -0.04200
C 	C 	0.22890 0.40290 0.55820 0.05800
C 	C 	0.20600 0.42020 0.55250 -0.02800
C 	C 	0.18530 0.41130 0.53520 0.00900
C 	C 	0.18640 0.38500 0.52350 -0.01300
C 	C 	0.21000 0.36910 0.52900 0.02200
C 	C 	0.23130 0.37830 0.54740 -0.09900
C 	C 	0.25670 0.48540 0.63740 0.08800
C 	C 	0.25970 0.51000 0.63150 -0.07800
C 	C 	0.23670 0.52800 0.64180 0.01900
C 	C 	0.21480 0.51680 0.65850 -0.01200
C 	C 	0.20970 0.48930 0.65890 0.01400
C 	C 	0.23160 0.47360 0.64400 -0.04500
C 	C 	0.24030 0.43660 0.69870 0.07700
C 	C 	0.25560 0.45530 0.70840 -0.11700
C 	C 	0.24440 0.47410 0.72370 0.03100
C 	C 	0.21500 0.47210 0.73290 -0.01900
C 	C 	0.19640 0.45350 0.72230 0.01200
C 	C 	0.21030 0.43450 0.70410 -0.03100
C 	C 	0.29460 0.41540 0.75300 0.07900
C 	C 	0.30840 0.43790 0.75840 -0.08800
C 	C 	0.29660 0.45640 0.77360 0.03200
C 	C 	0.26960 0.45130 0.78540 -0.02600
C 	C 	0.25750 0.42810 0.78070 0.03600
C 	C 	0.26690 0.41400 0.76300 -0.07600
C 	C 	0.34410 0.52400 0.65160 0.05100
C 	C 	0.32250 0.51580 0.66700 -0.11100
C 	C 	0.30560 0.53360 0.68350 0.01900
C 	C 	0.31370 0.56200 0.68110 -0.00900
C 	C 	0.33940 0.56860 0.66420 0.00700
C 	C 	0.35270 0.54940 0.64750 -0.01700
C 	C 	0.33470 0.54730 0.58180 0.04800
C 	C 	0.32200 0.57170 0.58830 -0.01800
C 	C 	0.34400 0.58910 0.59340 0.01100
C 	C 	0.37190 0.58620 0.58610 -0.01400
C 	C 	0.38280 0.56360 0.58200 0.02900
C 	C 	0.36260 0.54090 0.57870 -0.10100
C 	C 	0.28664 0.38717 0.50344 0.05700
C 	C 	0.28030 0.36084 0.50350 -0.08300
C 	C 	0.25810 0.35133 0.48858 0.02900
C 	C 	0.24230 0.36820 0.47359 -0.01600
C 	C 	0.24870 0.39450 0.47353 0.01900
C 	C 	0.27082 0.40400 0.48845 -0.05000
C 	C 	0.35850 0.48469 0.49000 0.10000
C 	C 	0.34130 0.46322 0.48510 -0.14200
C 	C 	0.33720 0.45491 0.46063 0.04300
C 	C 	0.35030 0.46810 0.44100 -0.02100
C 	C 	0.36750 0.48950 0.44580 0.01800
C 	C 	0.37170 0.49780 0.47030 -0.04300
C 	C 	0.42500 0.43861 0.50390 0.01200
C 	C 	0.42230 0.44885 0.47990 -0.01300
C 	C 	0.44600 0.46032 0.46840 0.01000
C 	C 	0.47230 0.46156 0.48080 -0.01300
C 	C 	0.47500 0.45133 0.50470 0.02900
C 	C 	0.45130 0.43985 0.51630 -0.09400
C 	C 	0.20610 0.35180 0.62170 0.06900
C 	C 	0.20860 0.37310 0.60590 -0.07800
C 	C 	0.18580 0.37980 0.59030 0.02700
C 	C 	0.16070 0.36510 0.59030 -0.01600
C 	C 	0.15820 0.34380 0.60610 0.01900
C 	C 	0.18100 0.33710 0.62170 -0.05500
C 	C 	0.38370 0.44830 0.76040 0.06100
C 	C 	0.37440 0.47070 0.74830 -0.11600
C 	C 	0.36500 0.49280 0.76540 0.02400
C 	C 	0.36710 0.49150 0.79080 -0.01500
C 	C 	0.37610 0.46900 0.80050 0.01300
C 	C 	0.38700 0.44740 0.78540 -0.02600
C 	C 	0.47350 0.43940 0.77240 0.05400
C 	C 	0.48570 0.45100 0.79280 -0.06100
C 	C 	0.48530 0.43770 0.81720 0.01500
C 	C 	0.47430 0.41140 0.81900 -0.01300
C 	C 	0.46530 0.39830 0.79520 0.03200
C 	C 	0.46370 0.41350 0.77390 -0.10800
C 	C 	0.50020 0.47100 0.60290 0.05500
C 	C 	0.50900 0.49620 0.59770 -0.02100
C 	C 	0.53150 0.50060 0.58100 0.01200
C 	C 	0.54520 0.47980 0.56960 -0.01600
C 	C 	0.53640 0.45460 0.57480 0.03100
C 	C 	0.51400 0.45020 0.59150 -0.11900
C 	C 	0.55330 0.38030 0.71650 0.06800
C 	C 	0.57550 0.37090 0.73300 -0.02400
C 	C 	0.60420 0.36450 0.72400 0.00900
C 	C 	0.60890 0.36480 0.69580 -0.00800
C 	C 	0.58530 0.37550 0.67810 0.02600
C 	C 	0.55850 0.38250 0.69040 -0.10100
C 	C 	0.33880 0.55990 0.49710 0.05000
C 	C 	0.34470 0.55550 0.47040 -0.07700
C 	C 	0.37280 0.56290 0.46170 0.02200
C 	C 	0.39320 0.57130 0.47740 -0.01200
C 	C 	0.38760 0.57660 0.50370 0.01200
C 	C 	0.35970 0.56960 0.51430 -0.03200
Cd	Cd	0.35641 0.41020 0.60400 1.12500
Cd	Cd	0.29925 0.43212 0.65800 1.14000
Cd	Cd	0.41414 0.39207 0.65674 1.12500
Cd	Cd	0.35245 0.41161 0.71000 1.14200
Cd	Cd	0.37675 0.46301 0.66043 1.14200
Cd	Cd	0.27657 0.37532 0.60291 1.14600
Cd	Cd	0.41788 0.38937 0.54957 1.14300
Cd	Cd	0.43306 0.44062 0.71597 1.14800
Cd	Cd	0.47996 0.37238 0.70255 1.15100
Cd	Cd	0.29319 0.43222 0.55359 1.14800
Cd	Cd	0.37619 0.45710 0.54471 1.14800
Cd	Cd	0.43458 0.44271 0.59955 1.14100
Cd	Cd	0.48966 0.43492 0.65576 1.14900
Cd	Cd	0.32589 0.48504 0.60397 1.15100
S 	S 	0.39599 0.42894 0.63030 -1.15400
S 	S 	0.33784 0.44655 0.57662 -1.10000
S 	S 	0.31571 0.39419 0.63070 -1.15000
S 	S 	0.33547 0.45020 0.68716 -0.85600
S 	S 	0.45446 0.41057 0.68315 -1.09600
S 	S 	0.36439 0.50177 0.63251 -0.52200
S 	S 	0.45761 0.40897 0.57358 -0.85700
S 	S 	0.30987 0.39086 0.73279 -0.56300
S 	S 	0.39297 0.42094 0.74166 -0.52600
S 	S 	0.42157 0.47646 0.68524 -0.58100
S 	S 	0.25228 0.41467 0.67669 -0.53000
S 	S 	0.28232 0.46362 0.62386 -0.56800
Cd	Cd	0.51865 0.43955 0.72596 1.15600
Cd	Cd	0.31125 0.50789 0.53198 1.15900
S 	S 	0.47236 0.45763 0.74463 -0.51400
S 	S 	0.27641 0.47024 0.52631 -0.51300
S 	S 	0.40998 0.47937 0.57542 -0.55000
S 	S 	0.25359 0.41405 0.58051 -0.52100
S 	S 	0.24224 0.35729 0.63632 -0.56700
S 	S 	0.52042 0.38993 0.72849 -0.50900
S 	S 	0.36126 0.49521 0.51825 -0.52700
S 	S 	0.47211 0.46764 0.62500 -0.52400
S 	S 	0.30727 0.52229 0.57762 -0.49000
S 	S 	0.39310 0.41950 0.51838 -0.51400
S 	S 	0.52790 0.45679 0.68287 -0.51800
S 	S 	0.31630 0.39989 0.52371 -0.54700
S 	S 	0.30512 0.55085 0.50982 -0.47100
C 	C 	0.43640 0.50160 0.55620 0.06300
C 	C 	0.45490 0.52410 0.52090 0.01200
C 	C 	0.43370 0.50890 0.53160 -0.03800
C 	C 	0.45150 0.48330 0.54340 -0.07500
C 	C 	0.24490 0.97960 0.04100 0.05300
C 	C 	0.21990 0.98330 0.02670 -0.02800
C 	C 	0.19310 0.98870 0.03750 0.01100
C 	C 	0.19150 0.99270 0.06310 -0.01400
C 	C 	0.21510 0.99010 0.07800 0.03800
C 	C 	0.24120 0.98230 0.06700 -0.10800
C 	C 	0.51840 0.99040 0.18440 0.05900
C 	C 	0.51730 0.00420 0.20680 -0.10900
C 	C 	0.51130 0.03210 0.20690 0.02600
C 	C 	0.50750 0.04550 0.18670 -0.01800
C 	C 	0.50920 0.03060 0.16520 0.02400
C 	C 	0.51540 0.00420 0.16410 -0.05100
C 	C 	0.41170 0.00440 0.20080 0.08300
C 	C 	0.38520 0.01470 0.20330 -0.09200
C 	C 	0.37610 0.03960 0.21650 0.02500
C 	C 	0.39810 0.05020 0.22890 -0.01500
C 	C 	0.42730 0.04380 0.22540 0.01600
C 	C 	0.43390 0.02280 0.21050 -0.04200
C 	C 	0.22890 0.90290 0.05820 0.05800
C 	C 	0.20600 0.92020 0.05250 -0.02800
C 	C 	0.18530 0.91130 0.03520 0.00900
C 	C 	0.18640 0.88500 0.02350 -0.01300
C 	C 	0.21000 0.86910 0.02900 0.02200
C 	C 	0.23130 0.87830 0.04740 -0.09900
C 	C 	0.25670 0.98540 0.13740 0.08800
C 	C 	0.25970 0.01000 0.13150 -0.07800
C 	C 	0.23670 0.02800 0.14180 0.01900
C 	C 	0.21480 0.01680 0.15850 -0.01200
C 	C 	0.20970 0.98930 0.15890 0.01400
C 	C 	0.23160 0.97360 0.14400 -0.04500
C 	C 	0.24030 0.93660 0.19870 0.07700
C 	C 	0.25560 0.95530 0.20840 -0.11700
C 	C 	0.24440 0.97410 0.22370 0.03100
C 	C 	0.21500 0.97210 0.23290 -0.01900
C 	C 	0.19640 0.95350 0.22230 0.01200
C 	C 	0.21030 0.93450 0.20410 -0.03100
C 	C 	0.29460 0.91540 0.25300 0.07900
C 	C 	0.30840 0.93790 0.25840 -0.08800
C 	C 	0.29660 0.95640 0.27360 0.03200
C 	C 	0.26960 0.95130 0.28540 -0.02600
C 	C 	0.25750 0.92810 0.28070 0.03600
C 	C 	0.26690 0.91400 0.26300 -0.07600
C 	C 	0.34410 0.02400 0.15160 0.05100
C 	C 	0.32250 0.01580 0.16700 -0.11100
C 	C 	0.30560 0.03360 0.18350 0.01900
C 	C 	0.31370 0.06200 0.18110 -0.00900
C 	C 	0.33940 0.06860 0.16420 0.00700
C 	C 	0.35270 0.04940 0.14750 -0.01700
C 	C 	0.33470 0.04730 0.08180 0.04800
C 	C 	0.32200 0.07170 0.08830 -0.01800
C 	C 	0.34400 0.08910 0.09340 0.01100
C 	C 	0.37190 0.08620 0.08610 -0.01400
C 	C 	0.38280 0.06360 0.08200 0.02900
C 	C 	0.36260 0.04090 0.07870 -0.10100
C 	C 	0.28664 0.88717 0.00344 0.05700
C 	C 	0.28030 0.86084 0.00350 -0.08300
C 	C 	0.25810 0.85133 0.98858 0.02900
C 	C 	0.24230 0.86820 0.97359 -0.01600
C 	C 	0.24870 0.89450 0.97353 0.01900
C 	C 	0.27082 0.90400 0.98845 -0.05000
C 	C 	0.35850 0.98469 0.99000 0.10000
C 	C 	0.34130 0.96322 0.98510 -0.14200
C 	C 	0.33720 0.95491 0.96063 0.04300
C 	C 	0.35030 0.96810 0.94100 -0.02100
C 	C 	0.36750 0.98950 0.94580 0.01800
C 	C 	0.37170 0.99780 0.97030 -0.04300
C 	C 	0.42500 0.93861 0.00390 0.01200
C 	C 	0.42230 0.94885 0.97990 -0.01300
C 	C 	0.44600 0.96032 0.96840 0.01000
C 	C 	0.47230 0.96156 0.98080 -0.01300
C 	C 	0.47500 0.95133 0.00470 0.02900
C 	C 	0.45130 0.93985 0.01630 -0.09400
C 	C 	0.20610 0.85180 0.12170 0.06900
C 	C 	0.20860 0.87310 0.10590 -0.07800
C 	C 	0.18580 0.87980 0.09030 0.02700
C 	C 	0.16070 0.86510 0.09030 -0.01600
C 	C 	0.15820 0.84380 0.10610 0.01900
C 	C 	0.18100 0.83710 0.12170 -0.05500
C 	C 	0.38370 0.94830 0.26040 0.06100
C 	C 	0.37440 0.97070 0.24830 -0.11600
C 	C 	0.36500 0.99280 0.26540 0.02400
C 	C 	0.36710 0.99150 0.29080 -0.01500
C 	C 	0.37610 0.96900 0.30050 0.01300
C 	C 	0.38700 0.94740 0.28540 -0.02600
C 	C 	0.47350 0.93940 0.27240 0.05400
C 	C 	0.48570 0.95100 0.29280 -0.06100
C 	C 	0.48530 0.93770 0.31720 0.01500
C 	C 	0.47430 0.91140 0.31900 -0.01300
C 	C 	0.46530 0.89830 0.29520 0.03200
C 	C 	0.46370 0.91350 0.27390 -0.10800
C 	C 	0.50020 0.97100 0.10290 0.05500
C 	C 	0.50900 0.99620 0.09770 -0.02100
C 	C 	0.53150 0.00060 0.08100 0.01200
C 	C 	0.54520 0.97980 0.06960 -0.01600
C 	C 	0.53640 0.95460 0.07480 0.03100
C 	C 	0.51400 0.95020 0.09150 -0.11900
C 	C 	0.55330 0.88030 0.21650 0.06800
C 	C 	0.57550 0.87090 0.23300 -0.02400
C 	C 	0.60420 0.86450 0.22400 0.00900
C 	C 	0.60890 0.86480 0.19580 -0.00800
C 	C 	0.58530 0.87550 0.17810 0.02600
C 	C 	0.55850 0.88250 0.19040 -0.10100
C 	C 	0.33880 0.05990 0.99710 0.05000
C 	C 	0.34470 0.05550 0.97040 -0.07700
C 	C 	0.37280 0.06290 0.96170 0.02200
C 	C 	0.39320 0.07130 0.97740 -0.01200
C 	C 	0.38760 0.07660 0.00370 0.01200
C 	C 	0.35970 0.06960 0.01430 -0.03200
Cd	Cd	0.35641 0.91020 0.10400 1.12500
Cd	Cd	0.29925 0.93212 0.15800 1.14000
Cd	Cd	0.41414 0.89207 0.15674 1.12500
Cd	Cd	0.35245 0.91161 0.21000 1.14200
Cd	Cd	0.37675 0.96301 0.16043 1.14200
Cd	Cd	0.27657 0.87532 0.10291 1.14600
Cd	Cd	0.41788 0.88937 0.04957 1.14300
Cd	Cd	0.43306 0.94062 0.21597 1.14800
Cd	Cd	0.47996 0.87238 0.20255 1.15100
Cd	Cd	0.29319 0.93222 0.05359 1.14800
Cd	Cd	0.37619 0.95710 0.04471 1.14800
Cd	Cd	0.43458 0.94271 0.09955 1.14100
Cd	Cd	0.48966 0.93492 0.15576 1.14900
Cd	Cd	0.32589 0.98504 0.10397 1.15100
S 	S 	0.39599 0.92894 0.13030 -1.15400
S 	S 	0.33784 0.94655 0.07662 -1.10000
S 	S 	0.31571 0.89419 0.13070 -1.15000
S 	S 	0.33547 0.95020 0.18716 -0.85600
S 	S 	0.45446 0.91057 0.18315 -1.09600
S 	S 	0.36439 0.00177 0.13251 -0.52200
S 	S 	0.45761 0.90897 0.07358 -0.85700
S 	S 	0.30987 0.89086 0.23279 -0.56300
S 	S 	0.39297 0.92094 0.24166 -0.52600
S 	S 	0.42157 0.97646 0.18524 -0.58100
S 	S 	0.25228 0.91467 0.17669 -0.53000
S 	S 	0.28232 0.96362 0.12386 -0.56800
Cd	Cd	0.51865 0.93955 0.22596 1.15600
Cd	Cd	0.31125 0.00789 0.03198 1.15900
S 	S 	0.47236 0.95763 0.24463 -0.51400
S 	S 	0.27641 0.97024 0.02631 -0.51300
S 	S 	0.40998 0.97937 0.07542 -0.55000
S 	S 	0.25359 0.91405 0.08051 -0.52100
S 	S 	0.24224 0.85729 0.13632 -0.56700
S 	S 	0.52042 0.88993 0.22849 -0.50900
S 	S 	0.36126 0.99521 0.01825 -0.52700
S 	S 	0.47211 0.96764 0.12500 -0.52400
S 	S 	0.30727 0.02229 0.07762 -0.49000
S 	S 	0.39310 0.91950 0.01838 -0.51400
S 	S 	0.52790 0.95679 0.18287 -0.51800
S 	S 	0.31630 0.89989 0.02371 -0.54700
S 	S 	0.30512 0.05085 0.00982 -0.47100
C 	C 	0.43640 0.00160 0.05620 0.06300
C 	C 	0.45490 0.02410 0.02090 0.01200
C 	C 	0.43370 0.00890 0.03160 -0.03800
C 	C 	0.45150 0.98330 0.04340 -0.07500
C 	C 	0.50510 0.77040 0.04100 0.05300
C 	C 	0.53010 0.76670 0.02670 -0.02800
C 	C 	0.55690 0.76130 0.03750 0.01100
C 	C 	0.55850 0.75730 0.06310 -0.01400
C 	C 	0.53490 0.75990 0.07800 0.03800
C 	C 	0.50880 0.76770 0.06700 -0.10800
C 	C 	0.23160 0.75960 0.18440 0.05900
C 	C 	0.23270 0.74580 0.20680 -0.10900
C 	C 	0.23870 0.71790 0.20690 0.02600
C 	C 	0.24250 0.70450 0.18670 -0.01800
C 	C 	0.24080 0.71940 0.16520 0.02400
C 	C 	0.23460 0.74580 0.16410 -0.05100
C 	C 	0.33830 0.74560 0.20080 0.08300
C 	C 	0.36480 0.73530 0.20330 -0.09200
C 	C 	0.37390 0.71040 0.21650 0.02500
C 	C 	0.35190 0.69980 0.22890 -0.01500
C 	C 	0.32270 0.70620 0.22540 0.01600
C 	C 	0.31610 0.72720 0.21050 -0.04200
C 	C 	0.52110 0.84710 0.05820 0.05800
C 	C 	0.54400 0.82980 0.05250 -0.02800
C 	C 	0.56470 0.83870 0.03520 0.00900
C 	C 	0.56360 0.86500 0.02350 -0.01300
C 	C 	0.54000 0.88090 0.02900 0.02200
C 	C 	0.51870 0.87170 0.04740 -0.09900
C 	C 	0.49330 0.76460 0.13740 0.08800
C 	C 	0.49030 0.74000 0.13150 -0.07800
C 	C 	0.51330 0.72200 0.14180 0.01900
C 	C 	0.53520 0.73320 0.15850 -0.01200
C 	C 	0.54030 0.76070 0.15890 0.01400
C 	C 	0.51840 0.77640 0.14400 -0.04500
C 	C 	0.50970 0.81340 0.19870 0.07700
C 	C 	0.49440 0.79470 0.20840 -0.11700
C 	C 	0.50560 0.77590 0.22370 0.03100
C 	C 	0.53500 0.77790 0.23290 -0.01900
C 	C 	0.55360 0.79650 0.22230 0.01200
C 	C 	0.53970 0.81550 0.20410 -0.03100
C 	C 	0.45540 0.83460 0.25300 0.07900
C 	C 	0.44160 0.81210 0.25840 -0.08800
C 	C 	0.45340 0.79360 0.27360 0.03200
C 	C 	0.48040 0.79870 0.28540 -0.02600
C 	C 	0.49250 0.82190 0.28070 0.03600
C 	C 	0.48310 0.83600 0.26300 -0.07600
C 	C 	0.40590 0.72600 0.15160 0.05100
C 	C 	0.42750 0.73420 0.16700 -0.11100
C 	C 	0.44440 0.71640 0.18350 0.01900
C 	C 	0.43630 0.68800 0.18110 -0.00900
C 	C 	0.41060 0.68140 0.16420 0.00700
C 	C 	0.39730 0.70060 0.14750 -0.01700
C 	C 	0.41530 0.70270 0.08180 0.04800
C 	C 	0.42800 0.67830 0.08830 -0.01800
C 	C 	0.40600 0.66090 0.09340 0.01100
C 	C 	0.37810 0.66380 0.08610 -0.01400
C 	C 	0.36720 0.68640 0.08200 0.02900
C 	C 	0.38740 0.70910 0.07870 -0.10100
C 	C 	0.46336 0.86283 0.00344 0.05700
C 	C 	0.46970 0.88916 0.00350 -0.08300
C 	C 	0.49190 0.89867 0.98858 0.02900
C 	C 	0.50770 0.88180 0.97359 -0.01600
C 	C 	0.50130 0.85550 0.97353 0.01900
C 	C 	0.47918 0.84600 0.98845 -0.05000
C 	C 	0.39150 0.76531 0.99000 0.10000
C 	C 	0.40870 0.78678 0.98510 -0.14200
C 	C 	0.41280 0.79509 0.96063 0.04300
C 	C 	0.39970 0.78190 0.94100 -0.02100
C 	C 	0.38250 0.76050 0.94580 0.01800
C 	C 	0.37830 0.75220 0.97030 -0.04300
C 	C 	0.32500 0.81139 0.00390 0.01200
C 	C 	0.32770 0.80115 0.97990 -0.01300
C 	C 	0.30400 0.78968 0.96840 0.01000
C 	C 	0.27770 0.78844 0.98080 -0.01300
C 	C 	0.27500 0.79867 0.00470 0.02900
C 	C 	0.29870 0.81015 0.01630 -0.09400
C 	C 	0.54390 0.89820 0.12170 0.06900
C 	C 	0.54140 0.87690 0.10590 -0.07800
C 	C 	0.56420 0.87020 0.09030 0.02700
C 	C 	0.58930 0.88490 0.09030 -0.01600
C 	C 	0.59180 0.90620 0.10610 0.01900
C 	C 	0.56900 0.91290 0.12170 -0.05500
C 	C 	0.36630 0.80170 0.26040 0.06100
C 	C 	0.37560 0.77930 0.24830 -0.11600
C 	C 	0.38500 0.75720 0.26540 0.02400
C 	C 	0.38290 0.75850 0.29080 -0.01500
C 	C 	0.37390 0.78100 0.30050 0.01300
C 	C 	0.36300 0.80260 0.28540 -0.02600
C 	C 	0.27650 0.81060 0.27240 0.05400
C 	C 	0.26430 0.79900 0.29280 -0.06100
C 	C 	0.26470 0.81230 0.31720 0.01500
C 	C 	0.27570 0.83860 0.31900 -0.01300
C 	C 	0.28470 0.85170 0.29520 0.03200
C 	C 	0.28630 0.83650 0.27390 -0.10800
C 	C 	0.24980 0.77900 0.10290 0.05500
C 	C 	0.24100 0.75380 0.09770 -0.02100
C 	C 	0.21850 0.74940 0.08100 0.01200
C 	C 	0.20480 0.77020 0.06960 -0.01600
C 	C 	0.21360 0.79540 0.07480 0.03100
C 	C 	0.23600 0.79980 0.09150 -0.11900
C 	C 	0.19670 0.86970 0.21650 0.06800
C 	C 	0.17450 0.87910 0.23300 -0.02400
C 	C 	0.14580 0.88550 0.22400 0.00900
C 	C 	0.14110 0.88520 0.19580 -0.00800
C 	C 	0.16470 0.87450 0.17810 0.02600
C 	C 	0.19150 0.86750 0.19040 -0.10100
C 	C 	0.41120 0.69010 0.99710 0.05000
C 	C 	0.40530 0.69450 0.97040 -0.07700
C 	C 	0.37720 0.68710 0.96170 0.02200
C 	C 	0.35680 0.67870 0.97740 -0.01200
C 	C 	0.36240 0.67340 0.00370 0.01200
C 	C 	0.39030 0.68040 0.01430 -0.03200
Cd	Cd	0.39359 0.83980 0.10400 1.12500
Cd	Cd	0.45075 0.81788 0.15800 1.14000
Cd	Cd	0.33586 0.85793 0.15674 1.12500
Cd	Cd	0.39755 0.83839 0.21000 1.14200
Cd	Cd	0.37325 0.78699 0.16043 1.14200
Cd	Cd	0.47343 0.87468 0.10291 1.14600
Cd	Cd	0.33212 0.86063 0.04957 1.14300
Cd	Cd	0.31694 0.80938 0.21597 1.14800
Cd	Cd	0.27004 0.87762 0.20255 1.15100
Cd	Cd	0.45681 0.81778 0.05359 1.14800
Cd	Cd	0.37381 0.79290 0.04471 1.14800
Cd	Cd	0.31542 0.80729 0.09955 1.14100
Cd	Cd	0.26034 0.81508 0.15576 1.14900
Cd	Cd	0.42411 0.76496 0.10397 1.15100
S 	S 	0.35401 0.82106 0.13030 -1.15400
S 	S 	0.41216 0.80345 0.07662 -1.10000
S 	S 	0.43429 0.85581 0.13070 -1.15000
S 	S 	0.41453 0.79980 0.18716 -0.85600
S 	S 	0.29554 0.83943 0.18315 -1.09600
S 	S 	0.38561 0.74823 0.13251 -0.52200
S 	S 	0.29239 0.84103 0.07358 -0.85700
S 	S 	0.44013 0.85914 0.23279 -0.56300
S 	S 	0.35703 0.82906 0.24166 -0.52600
S 	S 	0.32843 0.77354 0.18524 -0.58100
S 	S 	0.49772 0.83533 0.17669 -0.53000
S 	S 	0.46768 0.78638 0.12386 -0.56800
Cd	Cd	0.23135 0.81045 0.22596 1.15600
Cd	Cd	0.43875 0.74211 0.03198 1.15900
S 	S 	0.27764 0.79237 0.24463 -0.51400
S 	S 	0.47359 0.77976 0.02631 -0.51300
S 	S 	0.34002 0.77063 0.07542 -0.55000
S 	S 	0.49641 0.83595 0.08051 -0.52100
S 	S 	0.50776 0.89271 0.13632 -0.56700
S 	S 	0.22958 0.86007 0.22849 -0.50900
S 	S 	0.38874 0.75479 0.01825 -0.52700
S 	S 	0.27789 0.78236 0.12500 -0.52400
S 	S 	0.44273 0.72771 0.07762 -0.49000
S 	S 	0.35690 0.83050 0.01838 -0.51400
S 	S 	0.22210 0.79321 0.18287 -0.51800
S 	S 	0.43370 0.85011 0.02371 -0.54700
S 	S 	0.44488 0.69915 0.00982 -0.47100
C 	C 	0.31360 0.74840 0.05620 0.06300
C 	C 	0.29510 0.72590 0.02090 0.01200
C 	C 	0.31630 0.74110 0.03160 -0.03800
C 	C 	0.29850 0.76670 0.04340 -0.07500
C 	C 	0.50510 0.27040 0.54100 0.05300
C 	C 	0.53010 0.26670 0.52670 -0.02800
C 	C 	0.55690 0.26130 0.53750 0.01100
C 	C 	0.55850 0.25730 0.56310 -0.01400
C 	C 	0.53490 0.25990 0.57800 0.03800
C 	C 	0.50880 0.26770 0.56700 -0.10800
C 	C 	0.23160 0.25960 0.68440 0.05900
C 	C 	0.23270 0.24580 0.70680 -0.10900
C 	C 	0.23870 0.21790 0.70690 0.02600
C 	C 	0.24250 0.20450 0.68670 -0.01800
C 	C 	0.24080 0.21940 0.66520 0.02400
C 	C 	0.23460 0.24580 0.66410 -0.05100
C 	C 	0.33830 0.24560 0.70080 0.08300
C 	C 	0.36480 0.23530 0.70330 -0.09200
C 	C 	0.37390 0.21040 0.71650 0.02500
C 	C 	0.35190 0.19980 0.72890 -0.01500
C 	C 	0.32270 0.20620 0.72540 0.01600
C 	C 	0.31610 0.22720 0.71050 -0.04200
C 	C 	0.52110 0.34710 0.55820 0.05800
C 	C 	0.54400 0.32980 0.55250 -0.02800
C 	C 	0.56470 0.33870 0.53520 0.00900
C 	C 	0.56360 0.36500 0.52350 -0.01300
C 	C 	0.54000 0.38090 0.52900 0.02200
C 	C 	0.51870 0.37170 0.54740 -0.09900
C 	C 	0.49330 0.26460 0.63740 0.08800
C 	C 	0.49030 0.24000 0.63150 -0.07800
C 	C 	0.51330 0.22200 0.64180 0.01900
C 	C 	0.53520 0.23320 0.65850 -0.01200
C 	C 	0.54030 0.26070 0.65890 0.01400
C 	C 	0.51840 0.27640 0.64400 -0.04500
C 	C 	0.50970 0.31340 0.69870 0.07700
C 	C 	0.49440 0.29470 0.70840 -0.11700
C 	C 	0.50560 0.27590 0.72370 0.03100
C 	C 	0.53500 0.27790 0.73290 -0.01900
C 	C 	0.55360 0.29650 0.72230 0.01200
C 	C 	0.53970 0.31550 0.70410 -0.03100
C 	C 	0.45540 0.33460 0.75300 0.07900
C 	C 	0.44160 0.31210 0.75840 -0.08800
C 	C 	0.45340 0.29360 0.77360 0.03200
C 	C 	0.48040 0.29870 0.78540 -0.02600
C 	C 	0.49250 0.32190 0.78070 0.03600
C 	C 	0.48310 0.33600 0.76300 -0.07600
C 	C 	0.40590 0.22600 0.65160 0.05100
C 	C 	0.42750 0.23420 0.66700 -0.11100
C 	C 	0.44440 0.21640 0.68350 0.01900
C 	C 	0.43630 0.18800 0.68110 -0.00900
C 	C 	0.41060 0.18140 0.66420 0.00700
C 	C 	0.39730 0.20060 0.64750 -0.01700
C 	C 	0.41530 0.20270 0.58180 0.04800
C 	C 	0.42800 0.17830 0.58830 -0.01800
C 	C 	0.40600 0.16090 0.59340 0.01100
C 	C 	0.37810 0.16380 0.58610 -0.01400
C 	C 	0.36720 0.18640 0.58200 0.02900
C 	C 	0.38740 0.20910 0.57870 -0.10100
C 	C 	0.46336 0.36283 0.50344 0.05700
C 	C 	0.46970 0.38916 0.50350 -0.08300
C 	C 	0.49190 0.39867 0.48858 0.02900
C 	C 	0.50770 0.38180 0.47359 -0.01600
C 	C 	0.50130 0.35550 0.47353 0.01900
C 	C 	0.47918 0.34600 0.48845 -0.05000
C 	C 	0.39150 0.26531 0.49000 0.10000
C 	C 	0.40870 0.28678 0.48510 -0.14200
C 	C 	0.41280 0.29509 0.46063 0.04300
C 	C 	0.39970 0.28190 0.44100 -0.02100
C 	C 	0.38250 0.26050 0.44580 0.01800
C 	C 	0.37830 0.25220 0.47030 -0.04300
C 	C 	0.32500 0.31139 0.50390 0.01200
C 	C 	0.32770 0.30115 0.47990 -0.01300
C 	C 	0.30400 0.28968 0.46840 0.01000
C 	C 	0.27770 0.28844 0.48080 -0.01300
C 	C 	0.27500 0.29867 0.50470 0.02900
C 	C 	0.29870 0.31015 0.51630 -0.09400
C 	C 	0.54390 0.39820 0.62170 0.06900
C 	C 	0.54140 0.37690 0.60590 -0.07800
C 	C 	0.56420 0.37020 0.59030 0.02700
C 	C 	0.58930 0.38490 0.59030 -0.01600
C 	C 	0.59180 0.40620 0.60610 0.01900
C 	C 	0.56900 0.41290 0.62170 -0.05500
C 	C 	0.36630 0.30170 0.76040 0.06100
C 	C 	0.37560 0.27930 0.74830 -0.11600
C 	C 	0.38500 0.25720 0.76540 0.02400
C 	C 	0.38290 0.25850 0.79080 -0.01500
C 	C 	0.37390 0.28100 0.80050 0.01300
C 	C 	0.36300 0.30260 0.78540 -0.02600
C 	C 	0.27650 0.31060 0.77240 0.05400
C 	C 	0.26430 0.29900 0.79280 -0.06100
C 	C 	0.26470 0.31230 0.81720 0.01500
C 	C 	0.27570 0.33860 0.81900 -0.01300
C 	C 	0.28470 0.35170 0.79520 0.03200
C 	C 	0.28630 0.33650 0.77390 -0.10800
C 	C 	0.24980 0.27900 0.60290 0.05500
C 	C 	0.24100 0.25380 0.59770 -0.02100
C 	C 	0.21850 0.24940 0.58100 0.01200
C 	C 	0.20480 0.27020 0.56960 -0.01600
C 	C 	0.21360 0.29540 0.57480 0.03100
C 	C 	0.23600 0.29980 0.59150 -0.11900
C 	C 	0.19670 0.36970 0.71650 0.06800
C 	C 	0.17450 0.37910 0.73300 -0.02400
C 	C 	0.14580 0.38550 0.72400 0.00900
C 	C 	0.14110 0.38520 0.69580 -0.00800
C 	C 	0.16470 0.37450 0.67810 0.02600
C 	C 	0.19150 0.36750 0.69040 -0.10100
C 	C 	0.41120 0.19010 0.49710 0.05000
C 	C 	0.40530 0.19450 0.47040 -0.07700
C 	C 	0.37720 0.18710 0.46170 0.02200
C 	C 	0.35680 0.17870 0.47740 -0.01200
C 	C 	0.36240 0.17340 0.50370 0.01200
C 	C 	0.39030 0.18040 0.51430 -0.03200
Cd	Cd	0.39359 0.33980 0.60400 1.12500
Cd	Cd	0.45075 0.31788 0.65800 1.14000
Cd	Cd	0.33586 0.35793 0.65674 1.12500
Cd	Cd	0.39755 0.33839 0.71000 1.14200
Cd	Cd	0.37325 0.28699 0.66043 1.14200
Cd	Cd	0.47343 0.37468 0.60291 1.14600
Cd	Cd	0.33212 0.36063 0.54957 1.14300
Cd	Cd	0.31694 0.30938 0.71597 1.14800
Cd	Cd	0.27004 0.37762 0.70255 1.15100
Cd	Cd	0.45681 0.31778 0.55359 1.14800
Cd	Cd	0.37381 0.29290 0.54471 1.14800
Cd	Cd	0.31542 0.30729 0.59955 1.14100
Cd	Cd	0.26034 0.31508 0.65576 1.14900
Cd	Cd	0.42411 0.26496 0.60397 1.15100
S 	S 	0.35401 0.32106 0.63030 -1.15400
S 	S 	0.41216 0.30345 0.57662 -1.10000
S 	S 	0.43429 0.35581 0.63070 -1.15000
S 	S 	0.41453 0.29980 0.68716 -0.85600
S 	S 	0.29554 0.33943 0.68315 -1.09600
S 	S 	0.38561 0.24823 0.63251 -0.52200
S 	S 	0.29239 0.34103 0.57358 -0.85700
S 	S 	0.44013 0.35914 0.73279 -0.56300
S 	S 	0.35703 0.32906 0.74166 -0.52600
S 	S 	0.32843 0.27354 0.68524 -0.58100
S 	S 	0.49772 0.33533 0.67669 -0.53000
S 	S 	0.46768 0.28638 0.62386 -0.56800
Cd	Cd	0.23135 0.31045 0.72596 1.15600
Cd	Cd	0.43875 0.24211 0.53198 1.15900
S 	S 	0.27764 0.29237 0.74463 -0.51400
S 	S 	0.47359 0.27976 0.52631 -0.51300
S 	S 	0.34002 0.27063 0.57542 -0.55000
S 	S 	0.49641 0.33595 0.58051 -0.52100
S 	S 	0.50776 0.39271 0.63632 -0.56700
S 	S 	0.22958 0.36007 0.72849 -0.50900
S 	S 	0.38874 0.25479 0.51825 -0.52700
S 	S 	0.27789 0.28236 0.62500 -0.52400
S 	S 	0.44273 0.22771 0.57762 -0.49000
S 	S 	0.35690 0.33050 0.51838 -0.51400
S 	S 	0.22210 0.29321 0.68287 -0.51800
S 	S 	0.43370 0.35011 0.52371 -0.54700
S 	S 	0.44488 0.19915 0.50982 -0.47100
C 	C 	0.31360 0.24840 0.55620 0.06300
C 	C 	0.29510 0.22590 0.52090 0.01200
C 	C 	0.31630 0.24110 0.53160 -0.03800
C 	C 	0.29850 0.26670 0.54340 -0.07500
C 	C 	0.00510 0.77040 0.54100 0.05300
C 	C 	0.03010 0.76670 0.52670 -0.02800
C 	C 	0.05690 0.76130 0.53750 0.01100
C 	C 	0.05850 0.75730 0.56310 -0.01400
C 	C 	0.03490 0.75990 0.57800 0.03800
C 	C 	0.00880 0.76770 0.56700 -0.10800
C 	C 	0.73160 0.75960 0.68440 0.05900
C 	C 	0.73270 0.74580 0.70680 -0.10900
C 	C 	0.73870 0.71790 0.70690 0.02600
C 	C 	0.74250 0.70450 0.68670 -0.01800
C 	C 	0.74080 0.71940 0.66520 0.02400
C 	C 	0.73460 0.74580 0.66410 -0.05100
C 	C 	0.83830 0.74560 0.70080 0.08300
C 	C 	0.86480 0.73530 0.70330 -0.09200
C 	C 	0.87390 0.71040 0.71650 0.02500
C 	C 	0.85190 0.69980 0.72890 -0.01500
C 	C 	0.82270 0.70620 0.72540 0.01600
C 	C 	0.81610 0.72720 0.71050 -0.04200
C 	C 	0.02110 0.84710 0.55820 0.05800
C 	C 	0.04400 0.82980 0.55250 -0.02800
C 	C 	0.06470 0.83870 0.53520 0.00900
C 	C 	0.06360 0.86500 0.52350 -0.01300
C 	C 	0.04000 0.88090 0.52900 0.02200
C 	C 	0.01870 0.87170 0.54740 -0.09900
C 	C 	0.99330 0.76460 0.63740 0.08800
C 	C 	0.99030 0.74000 0.63150 -0.07800
C 	C 	0.01330 0.72200 0.64180 0.01900
C 	C 	0.03520 0.73320 0.65850 -0.01200
C 	C 	0.04030 0.76070 0.65890 0.01400
C 	C 	0.01840 0.77640 0.64400 -0.04500
C 	C 	0.00970 0.81340 0.69870 0.07700
C 	C 	0.99440 0.79470 0.70840 -0.11700
C 	C 	0.00560 0.77590 0.72370 0.03100
C 	C 	0.03500 0.77790 0.73290 -0.01900
C 	C 	0.05360 0.79650 0.72230 0.01200
C 	C 	0.03970 0.81550 0.70410 -0.03100
C 	C 	0.95540 0.83460 0.75300 0.07900
C 	C 	0.94160 0.81210 0.75840 -0.08800
C 	C 	0.95340 0.79360 0.77360 0.03200
C 	C 	0.98040 0.79870 0.78540 -0.02600
C 	C 	0.99250 0.82190 0.78070 0.03600
C 	C 	0.98310 0.83600 0.76300 -0.07600
C 	C 	0.90590 0.72600 0.65160 0.05100
C 	C 	0.92750 0.73420 0.66700 -0.11100
C 	C 	0.94440 0.71640 0.68350 0.01900
C 	C 	0.93630 0.68800 0.68110 -0.00900
C 	C 	0.91060 0.68140 0.66420 0.00700
C 	C 	0.89730 0.70060 0.64750 -0.01700
C 	C 	0.91530 0.70270 0.58180 0.04800
C 	C 	0.92800 0.67830 0.58830 -0.01800
C 	C 	0.90600 0.66090 0.59340 0.01100
C 	C 	0.87810 0.66380 0.58610 -0.01400
C 	C 	0.86720 0.68640 0.58200 0.02900
C 	C 	0.88740 0.70910 0.57870 -0.10100
C 	C 	0.96336 0.86283 0.50344 0.05700
C 	C 	0.96970 0.88916 0.50350 -0.08300
C 	C 	0.99190 0.89867 0.48858 0.02900
C 	C 	0.00770 0.88180 0.47359 -0.01600
C 	C 	0.00130 0.85550 0.47353 0.01900
C 	C 	0.97918 0.84600 0.48845 -0.05000
C 	C 	0.89150 0.76531 0.49000 0.10000
C 	C 	0.90870 0.78678 0.48510 -0.14200
C 	C 	0.91280 0.79509 0.46063 0.04300
C 	C 	0.89970 0.78190 0.44100 -0.02100
C 	C 	0.88250 0.76050 0.44580 0.01800
C 	C 	0.87830 0.75220 0.47030 -0.04300
C 	C 	0.82500 0.81139 0.50390 0.01200
C 	C 	0.82770 0.80115 0.47990 -0.01300
C 	C 	0.80400 0.78968 0.46840 0.01000
C 	C 	0.77770 0.78844 0.48080 -0.01300
C 	C 	0.77500 0.79867 0.50470 0.02900
C 	C 	0.79870 0.81015 0.51630 -0.09400
C 	C 	0.04390 0.89820 0.62170 0.06900
C 	C 	0.04140 0.87690 0.60590 -0.07800
C 	C 	0.06420 0.87020 0.59030 0.02700
C 	C 	0.08930 0.88490 0.59030 -0.01600
C 	C 	0.09180 0.90620 0.60610 0.01900
C 	C 	0.06900 0.91290 0.62170 -0.05500
C 	C 	0.86630 0.80170 0.76040 0.06100
C 	C 	0.87560 0.77930 0.74830 -0.11600
C 	C 	0.88500 0.75720 0.76540 0.02400
C 	C 	0.88290 0.75850 0.79080 -0.01500
C 	C 	0.87390 0.78100 0.80050 0.01300
C 	C 	0.86300 0.80260 0.78540 -0.02600
C 	C 	0.77650 0.81060 0.77240 0.05400
C 	C 	0.76430 0.79900 0.79280 -0.06100
C 	C 	0.76470 0.81230 0.81720 0.01500
C 	C 	0.77570 0.83860 0.81900 -0.01300
C 	C 	0.78470 0.85170 0.79520 0.03200
C 	C 	0.78630 0.83650 0.77390 -0.10800
C 	C 	0.74980 0.77900 0.60290 0.05500
C 	C 	0.74100 0.75380 0.59770 -0.02100
C 	C 	0.71850 0.74940 0.58100 0.01200
C 	C 	0.70480 0.77020 0.56960 -0.01600
C 	C 	0.71360 0.79540 0.57480 0.03100
C 	C 	0.73600 0.79980 0.59150 -0.11900
C 	C 	0.69670 0.86970 0.71650 0.06800
C 	C 	0.67450 0.87910 0.73300 -0.02400
C 	C 	0.64580 0.88550 0.72400 0.00900
C 	C 	0.64110 0.88520 0.69580 -0.00800
C 	C 	0.66470 0.87450 0.67810 0.02600
C 	C 	0.69150 0.86750 0.69040 -0.10100
C 	C 	0.91120 0.69010 0.49710 0.05000
C 	C 	0.90530 0.69450 0.47040 -0.07700
C 	C 	0.87720 0.68710 0.46170 0.02200
C 	C 	0.85680 0.67870 0.47740 -0.01200
C 	C 	0.86240 0.67340 0.50370 0.01200
C 	C 	0.89030 0.68040 0.51430 -0.03200
Cd	Cd	0.89359 0.83980 0.60400 1.12500
Cd	Cd	0.95075 0.81788 0.65800 1.14000
Cd	Cd	0.83586 0.85793 0.65674 1.12500
Cd	Cd	0.89755 0.83839 0.71000 1.14200
Cd	Cd	0.87325 0.78699 0.66043 1.14200
Cd	Cd	0.97343 0.87468 0.60291 1.14600
Cd	Cd	0.83212 0.86063 0.54957 1.14300
Cd	Cd	0.81694 0.80938 0.71597 1.14800
Cd	Cd	0.77004 0.87762 0.70255 1.15100
Cd	Cd	0.95681 0.81778 0.55359 1.14800
Cd	Cd	0.87381 0.79290 0.54471 1.14800
Cd	Cd	0.81542 0.80729 0.59955 1.14100
Cd	Cd	0.76034 0.81508 0.65576 1.14900
Cd	Cd	0.92411 0.76496 0.60397 1.15100
S 	S 	0.85401 0.82106 0.63030 -1.15400
S 	S 	0.91216 0.80345 0.57662 -1.10000
S 	S 	0.93429 0.85581 0.63070 -1.15000
S 	S 	0.91453 0.79980 0.68716 -0.85600
S 	S 	0.79554 0.83943 0.68315 -1.09600
S 	S 	0.88561 0.74823 0.63251 -0.52200
S 	S 	0.79239 0.84103 0.57358 -0.85700
S 	S 	0.94013 0.85914 0.73279 -0.56300
S 	S 	0.85703 0.82906 0.74166 -0.52600
S 	S 	0.82843 0.77354 0.68524 -0.58100
S 	S 	0.99772 0.83533 0.67669 -0.53000
S 	S 	0.96768 0.78638 0.62386 -0.56800
Cd	Cd	0.73135 0.81045 0.72596 1.15600
Cd	Cd	0.93875 0.74211 0.53198 1.15900
S 	S 	0.77764 0.79237 0.74463 -0.51400
S 	S 	0.97359 0.77976 0.52631 -0.51300
S 	S 	0.84002 0.77063 0.57542 -0.55000
S 	S 	0.99641 0.83595 0.58051 -0.52100
S 	S 	0.00776 0.89271 0.63632 -0.56700
S 	S 	0.72958 0.86007 0.72849 -0.50900
S 	S 	0.88874 0.75479 0.51825 -0.52700
S 	S 	0.77789 0.78236 0.62500 -0.52400
S 	S 	0.94273 0.72771 0.57762 -0.49000
S 	S 	0.85690 0.83050 0.51838 -0.51400
S 	S 	0.72210 0.79321 0.68287 -0.51800
S 	S 	0.93370 0.85011 0.52371 -0.54700
S 	S 	0.94488 0.69915 0.50982 -0.47100
C 	C 	0.81360 0.74840 0.55620 0.06300
C 	C 	0.79510 0.72590 0.52090 0.01200
C 	C 	0.81630 0.74110 0.53160 -0.03800
C 	C 	0.79850 0.76670 0.54340 -0.07500
C 	C 	0.00510 0.27040 0.04100 0.05300
C 	C 	0.03010 0.26670 0.02670 -0.02800
C 	C 	0.05690 0.26130 0.03750 0.01100
C 	C 	0.05850 0.25730 0.06310 -0.01400
C 	C 	0.03490 0.25990 0.07800 0.03800
C 	C 	0.00880 0.26770 0.06700 -0.10800
C 	C 	0.73160 0.25960 0.18440 0.05900
C 	C 	0.73270 0.24580 0.20680 -0.10900
C 	C 	0.73870 0.21790 0.20690 0.02600
C 	C 	0.74250 0.20450 0.18670 -0.01800
C 	C 	0.74080 0.21940 0.16520 0.02400
C 	C 	0.73460 0.24580 0.16410 -0.05100
C 	C 	0.83830 0.24560 0.20080 0.08300
C 	C 	0.86480 0.23530 0.20330 -0.09200
C 	C 	0.87390 0.21040 0.21650 0.02500
C 	C 	0.85190 0.19980 0.22890 -0.01500
C 	C 	0.82270 0.20620 0.22540 0.01600
C 	C 	0.81610 0.22720 0.21050 -0.04200
C 	C 	0.02110 0.34710 0.05820 0.05800
C 	C 	0.04400 0.32980 0.05250 -0.02800
C 	C 	0.06470 0.33870 0.03520 0.00900
C 	C 	0.06360 0.36500 0.02350 -0.01300
C 	C 	0.04000 0.38090 0.02900 0.02200
C 	C 	0.01870 0.37170 0.04740 -0.09900
C 	C 	0.99330 0.26460 0.13740 0.08800
C 	C 	0.99030 0.24000 0.13150 -0.07800
C 	C 	0.01330 0.22200 0.14180 0.01900
C 	C 	0.03520 0.23320 0.15850 -0.01200
C 	C 	0.04030 0.26070 0.15890 0.01400
C 	C 	0.01840 0.27640 0.14400 -0.04500
C 	C 	0.00970 0.31340 0.19870 0.07700
C 	C 	0.99440 0.29470 0.20840 -0.11700
C 	C 	0.00560 0.27590 0.22370 0.03100
C 	C 	0.03500 0.27790 0.23290 -0.01900
C 	C 	0.05360 0.29650 0.22230 0.01200
C 	C 	0.03970 0.31550 0.20410 -0.03100
C 	C 	0.95540 0.33460 0.25300 0.07900
C 	C 	0.94160 0.31210 0.25840 -0.08800
C 	C 	0.95340 0.29360 0.27360 0.03200
C 	C 	0.98040 0.29870 0.28540 -0.02600
C 	C 	0.99250 0.32190 0.28070 0.03600
C 	C 	0.98310 0.33600 0.26300 -0.07600
C 	C 	0.90590 0.22600 0.15160 0.05100
C 	C 	0.92750 0.23420 0.16700 -0.11100
C 	C 	0.94440 0.21640 0.18350 0.01900
C 	C 	0.93630 0.18800 0.18110 -0.00900
C 	C 	0.91060 0.18140 0.16420 0.00700
C 	C 	0.89730 0.20060 0.14750 -0.01700
C 	C 	0.91530 0.20270 0.08180 0.04800
C 	C 	0.92800 0.17830 0.08830 -0.01800
C 	C 	0.90600 0.16090 0.09340 0.01100
C 	C 	0.87810 0.16380 0.08610 -0.01400
C 	C 	0.86720 0.18640 0.08200 0.02900
C 	C 	0.88740 0.20910 0.07870 -0.10100
C 	C 	0.96336 0.36283 0.00344 0.05700
C 	C 	0.96970 0.38916 0.00350 -0.08300
C 	C 	0.99190 0.39867 0.98858 0.02900
C 	C 	0.00770 0.38180 0.97359 -0.01600
C 	C 	0.00130 0.35550 0.97353 0.01900
C 	C 	0.97918 0.34600 0.98845 -0.05000
C 	C 	0.89150 0.26531 0.99000 0.10000
C 	C 	0.90870 0.28678 0.98510 -0.14200
C 	C 	0.91280 0.29509 0.96063 0.04300
C 	C 	0.89970 0.28190 0.94100 -0.02100
C 	C 	0.88250 0.26050 0.94580 0.01800
C 	C 	0.87830 0.25220 0.97030 -0.04300
C 	C 	0.82500 0.31139 0.00390 0.01200
C 	C 	0.82770 0.30115 0.97990 -0.01300
C 	C 	0.80400 0.28968 0.96840 0.01000
C 	C 	0.77770 0.28844 0.98080 -0.01300
C 	C 	0.77500 0.29867 0.00470 0.02900
C 	C 	0.79870 0.31015 0.01630 -0.09400
C 	C 	0.04390 0.39820 0.12170 0.06900
C 	C 	0.04140 0.37690 0.10590 -0.07800
C 	C 	0.06420 0.37020 0.09030 0.02700
C 	C 	0.08930 0.38490 0.09030 -0.01600
C 	C 	0.09180 0.40620 0.10610 0.01900
C 	C 	0.06900 0.41290 0.12170 -0.05500
C 	C 	0.86630 0.30170 0.26040 0.06100
C 	C 	0.87560 0.27930 0.24830 -0.11600
C 	C 	0.88500 0.25720 0.26540 0.02400
C 	C 	0.88290 0.25850 0.29080 -0.01500
C 	C 	0.87390 0.28100 0.30050 0.01300
C 	C 	0.86300 0.30260 0.28540 -0.02600
C 	C 	0.77650 0.31060 0.27240 0.05400
C 	C 	0.76430 0.29900 0.29280 -0.06100
C 	C 	0.76470 0.31230 0.31720 0.01500
C 	C 	0.77570 0.33860 0.31900 -0.01300
C 	C 	0.78470 0.35170 0.29520 0.03200
C 	C 	0.78630 0.33650 0.27390 -0.10800
C 	C 	0.74980 0.27900 0.10290 0.05500
C 	C 	0.74100 0.25380 0.09770 -0.02100
C 	C 	0.71850 0.24940 0.08100 0.01200
C 	C 	0.70480 0.27020 0.06960 -0.01600
C 	C 	0.71360 0.29540 0.07480 0.03100
C 	C 	0.73600 0.29980 0.09150 -0.11900
C 	C 	0.69670 0.36970 0.21650 0.06800
C 	C 	0.67450 0.37910 0.23300 -0.02400
C 	C 	0.64580 0.38550 0.22400 0.00900
C 	C 	0.64110 0.38520 0.19580 -0.00800
C 	C 	0.66470 0.37450 0.17810 0.02600
C 	C 	0.69150 0.36750 0.19040 -0.10100
C 	C 	0.91120 0.19010 0.99710 0.05000
C 	C 	0.90530 0.19450 0.97040 -0.07700
C 	C 	0.87720 0.18710 0.96170 0.02200
C 	C 	0.85680 0.17870 0.97740 -0.01200
C 	C 	0.86240 0.17340 0.00370 0.01200
C 	C 	0.89030 0.18040 0.01430 -0.03200
Cd	Cd	0.89359 0.33980 0.10400 1.12500
Cd	Cd	0.95075 0.31788 0.15800 1.14000
Cd	Cd	0.83586 0.35793 0.15674 1.12500
Cd	Cd	0.89755 0.33839 0.21000 1.14200
Cd	Cd	0.87325 0.28699 0.16043 1.14200
Cd	Cd	0.97343 0.37468 0.10291 1.14600
Cd	Cd	0.83212 0.36063 0.04957 1.14300
Cd	Cd	0.81694 0.30938 0.21597 1.14800
Cd	Cd	0.77004 0.37762 0.20255 1.15100
Cd	Cd	0.95681 0.31778 0.05359 1.14800
Cd	Cd	0.87381 0.29290 0.04471 1.14800
Cd	Cd	0.81542 0.30729 0.09955 1.14100
Cd	Cd	0.76034 0.31508 0.15576 1.14900
Cd	Cd	0.92411 0.26496 0.10397 1.15100
S 	S 	0.85401 0.32106 0.13030 -1.15400
S 	S 	0.91216 0.30345 0.07662 -1.10000
S 	S 	0.93429 0.35581 0.13070 -1.15000
S 	S 	0.91453 0.29980 0.18716 -0.85600
S 	S 	0.79554 0.33943 0.18315 -1.09600
S 	S 	0.88561 0.24823 0.13251 -0.52200
S 	S 	0.79239 0.34103 0.07358 -0.85700
S 	S 	0.94013 0.35914 0.23279 -0.56300
S 	S 	0.85703 0.32906 0.24166 -0.52600
S 	S 	0.82843 0.27354 0.18524 -0.58100
S 	S 	0.99772 0.33533 0.17669 -0.53000
S 	S 	0.96768 0.28638 0.12386 -0.56800
Cd	Cd	0.73135 0.31045 0.22596 1.15600
Cd	Cd	0.93875 0.24211 0.03198 1.15900
S 	S 	0.77764 0.29237 0.24463 -0.51400
S 	S 	0.97359 0.27976 0.02631 -0.51300
S 	S 	0.84002 0.27063 0.07542 -0.55000
S 	S 	0.99641 0.33595 0.08051 -0.52100
S 	S 	0.00776 0.39271 0.13632 -0.56700
S 	S 	0.72958 0.36007 0.22849 -0.50900
S 	S 	0.88874 0.25479 0.01825 -0.52700
S 	S 	0.77789 0.28236 0.12500 -0.52400
S 	S 	0.94273 0.22771 0.07762 -0.49000
S 	S 	0.85690 0.33050 0.01838 -0.51400
S 	S 	0.72210 0.29321 0.18287 -0.51800
S 	S 	0.93370 0.35011 0.02371 -0.54700
S 	S 	0.94488 0.19915 0.00982 -0.47100
C 	C 	0.81360 0.24840 0.05620 0.06300
C 	C 	0.79510 0.22590 0.02090 0.01200
C 	C 	0.81630 0.24110 0.03160 -0.03800
C 	C 	0.79850 0.26670 0.04340 -0.07500
S 	S 	0.62500 0.62500 0.93506 -1.14900
S 	S 	0.62500 0.62500 0.82562 -1.16100
S 	S 	0.62500 0.12500 0.43506 -1.14900
S 	S 	0.62500 0.12500 0.32562 -1.16100
S 	S 	0.12500 0.12500 0.93506 -1.14900
S 	S 	0.12500 0.12500 0.82562 -1.16100
S 	S 	0.12500 0.62500 0.43506 -1.14900
S 	S 	0.12500 0.62500 0.32562 -1.16100
S 	S 	0.87500 0.37500 0.18506 -1.14900
S 	S 	0.87500 0.37500 0.07562 -1.16100
S 	S 	0.87500 0.87500 0.68506 -1.14900
S 	S 	0.87500 0.87500 0.57562 -1.16100
S 	S 	0.37500 0.87500 0.18506 -1.14900
S 	S 	0.37500 0.87500 0.07562 -1.16100
S 	S 	0.37500 0.37500 0.68506 -1.14900
S 	S 	0.37500 0.37500 0.57562 -1.16100
C 	C 	0.25510 0.52040 0.95900 0.05300
C 	C 	0.28010 0.51670 0.97330 -0.02800
C 	C 	0.30690 0.51130 0.96250 0.01100
C 	C 	0.30850 0.50730 0.93690 -0.01400
C 	C 	0.28490 0.50990 0.92200 0.03800
C 	C 	0.25880 0.51770 0.93300 -0.10800
C 	C 	0.98160 0.50960 0.81560 0.05900
C 	C 	0.98270 0.49580 0.79320 -0.10900
C 	C 	0.98870 0.46790 0.79310 0.02600
C 	C 	0.99250 0.45450 0.81330 -0.01800
C 	C 	0.99080 0.46940 0.83480 0.02400
C 	C 	0.98460 0.49580 0.83590 -0.05100
C 	C 	0.08830 0.49560 0.79920 0.08300
C 	C 	0.11480 0.48530 0.79670 -0.09200
C 	C 	0.12390 0.46040 0.78350 0.02500
C 	C 	0.10190 0.44980 0.77110 -0.01500
C 	C 	0.07270 0.45620 0.77460 0.01600
C 	C 	0.06610 0.47720 0.78950 -0.04200
C 	C 	0.27110 0.59710 0.94180 0.05800
C 	C 	0.29400 0.57980 0.94750 -0.02800
C 	C 	0.31470 0.58870 0.96480 0.00900
C 	C 	0.31360 0.61500 0.97650 -0.01300
C 	C 	0.29000 0.63090 0.97100 0.02200
C 	C 	0.26870 0.62170 0.95260 -0.09900
C 	C 	0.24330 0.51460 0.86260 0.08800
C 	C 	0.24030 0.49000 0.86850 -0.07800
C 	C 	0.26330 0.47200 0.85820 0.01900
C 	C 	0.28520 0.48320 0.84150 -0.01200
C 	C 	0.29030 0.51070 0.84110 0.01400
C 	C 	0.26840 0.52640 0.85600 -0.04500
C 	C 	0.25970 0.56340 0.80130 0.07700
C 	C 	0.24440 0.54470 0.79160 -0.11700
C 	C 	0.25560 0.52590 0.77630 0.03100
C 	C 	0.28500 0.52790 0.76710 -0.01900
C 	C 	0.30360 0.54650 0.77770 0.01200
C 	C 	0.28970 0.56550 0.79590 -0.03100
C 	C 	0.20540 0.58460 0.74700 0.07900
C 	C 	0.19160 0.56210 0.74160 -0.08800
C 	C 	0.20340 0.54360 0.72640 0.03200
C 	C 	0.23040 0.54870 0.71460 -0.02600
C 	C 	0.24250 0.57190 0.71930 0.03600
C 	C 	0.23310 0.58600 0.73700 -0.07600
C 	C 	0.15590 0.47600 0.84840 0.05100
C 	C 	0.17750 0.48420 0.83300 -0.11100
C 	C 	0.19440 0.46640 0.81650 0.01900
C 	C 	0.18630 0.43800 0.81890 -0.00900
C 	C 	0.16060 0.43140 0.83580 0.00700
C 	C 	0.14730 0.45060 0.85250 -0.01700
C 	C 	0.16530 0.45270 0.91820 0.04800
C 	C 	0.17800 0.42830 0.91170 -0.01800
C 	C 	0.15600 0.41090 0.90660 0.01100
C 	C 	0.12810 0.41380 0.91390 -0.01400
C 	C 	0.11720 0.43640 0.91800 0.02900
C 	C 	0.13740 0.45910 0.92130 -0.10100
C 	C 	0.21336 0.61283 0.99656 0.05700
C 	C 	0.21970 0.63916 0.99650 -0.08300
C 	C 	0.24190 0.64867 0.01142 0.02900
C 	C 	0.25770 0.63180 0.02641 -0.01600
C 	C 	0.25130 0.60550 0.02647 0.01900
C 	C 	0.22918 0.59600 0.01155 -0.05000
C 	C 	0.14150 0.51531 0.01000 0.10000
C 	C 	0.15870 0.53678 0.01490 -0.14200
C 	C 	0.16280 0.54509 0.03937 0.04300
C 	C 	0.14970 0.53190 0.05900 -0.02100
C 	C 	0.13250 0.51050 0.05420 0.01800
C 	C 	0.12830 0.50220 0.02970 -0.04300
C 	C 	0.07500 0.56139 0.99610 0.01200
C 	C 	0.07770 0.55115 0.02010 -0.01300
C 	C 	0.05400 0.53968 0.03160 0.01000
C 	C 	0.02770 0.53844 0.01920 -0.01300
C 	C 	0.02500 0.54867 0.99530 0.02900
C 	C 	0.04870 0.56015 0.98370 -0.09400
C 	C 	0.29390 0.64820 0.87830 0.06900
C 	C 	0.29140 0.62690 0.89410 -0.07800
C 	C 	0.31420 0.62020 0.90970 0.02700
C 	C 	0.33930 0.63490 0.90970 -0.01600
C 	C 	0.34180 0.65620 0.89390 0.01900
C 	C 	0.31900 0.66290 0.87830 -0.05500
C 	C 	0.11630 0.55170 0.73960 0.06100
C 	C 	0.12560 0.52930 0.75170 -0.11600
C 	C 	0.13500 0.50720 0.73460 0.02400
C 	C 	0.13290 0.50850 0.70920 -0.01500
C 	C 	0.12390 0.53100 0.69950 0.01300
C 	C 	0.11300 0.55260 0.71460 -0.02600
C 	C 	0.02650 0.56060 0.72760 0.05400
C 	C 	0.01430 0.54900 0.70720 -0.06100
C 	C 	0.01470 0.56230 0.68280 0.01500
C 	C 	0.02570 0.58860 0.68100 -0.01300
C 	C 	0.03470 0.60170 0.70480 0.03200
C 	C 	0.03630 0.58650 0.72610 -0.10800
C 	C 	0.99980 0.52900 0.89710 0.05500
C 	C 	0.99100 0.50380 0.90230 -0.02100
C 	C 	0.96850 0.49940 0.91900 0.01200
C 	C 	0.95480 0.52020 0.93040 -0.01600
C 	C 	0.96360 0.54540 0.92520 0.03100
C 	C 	0.98600 0.54980 0.90850 -0.11900
C 	C 	0.94670 0.61970 0.78350 0.06800
C 	C 	0.92450 0.62910 0.76700 -0.02400
C 	C 	0.89580 0.63550 0.77600 0.00900
C 	C 	0.89110 0.63520 0.80420 -0.00800
C 	C 	0.91470 0.62450 0.82190 0.02600
C 	C 	0.94150 0.61750 0.80960 -0.10100
C 	C 	0.16120 0.44010 0.00290 0.05000
C 	C 	0.15530 0.44450 0.02960 -0.07700
C 	C 	0.12720 0.43710 0.03830 0.02200
C 	C 	0.10680 0.42870 0.02260 -0.01200
C 	C 	0.11240 0.42340 0.99630 0.01200
C 	C 	0.14030 0.43040 0.98570 -0.03200
Cd	Cd	0.14359 0.58980 0.89600 1.12500
Cd	Cd	0.20075 0.56788 0.84200 1.14000
Cd	Cd	0.08586 0.60793 0.84326 1.12500
Cd	Cd	0.14755 0.58839 0.79000 1.14200
Cd	Cd	0.12325 0.53699 0.83957 1.14200
Cd	Cd	0.22343 0.62468 0.89709 1.14600
Cd	Cd	0.08212 0.61063 0.95043 1.14300
Cd	Cd	0.06694 0.55938 0.78403 1.14800
Cd	Cd	0.02004 0.62762 0.79745 1.15100
Cd	Cd	0.20681 0.56778 0.94641 1.14800
Cd	Cd	0.12381 0.54290 0.95529 1.14800
Cd	Cd	0.06542 0.55729 0.90045 1.14100
Cd	Cd	0.01034 0.56508 0.84424 1.14900
Cd	Cd	0.17411 0.51496 0.89603 1.15100
S 	S 	0.10401 0.57106 0.86970 -1.15400
S 	S 	0.16216 0.55345 0.92338 -1.10000
S 	S 	0.18429 0.60581 0.86930 -1.15000
S 	S 	0.16453 0.54980 0.81284 -0.85600
S 	S 	0.04554 0.58943 0.81685 -1.09600
S 	S 	0.13561 0.49823 0.86749 -0.52200
S 	S 	0.04239 0.59103 0.92642 -0.85700
S 	S 	0.19013 0.60914 0.76721 -0.56300
S 	S 	0.10703 0.57906 0.75834 -0.52600
S 	S 	0.07843 0.52354 0.81476 -0.58100
S 	S 	0.24772 0.58533 0.82331 -0.53000
S 	S 	0.21768 0.53638 0.87614 -0.56800
Cd	Cd	0.98135 0.56045 0.77404 1.15600
Cd	Cd	0.18875 0.49211 0.96802 1.15900
S 	S 	0.02764 0.54237 0.75537 -0.51400
S 	S 	0.22359 0.52976 0.97369 -0.51300
S 	S 	0.09002 0.52063 0.92458 -0.55000
S 	S 	0.24641 0.58595 0.91949 -0.52100
S 	S 	0.25776 0.64271 0.86368 -0.56700
S 	S 	0.97958 0.61007 0.77151 -0.50900
S 	S 	0.13874 0.50479 0.98175 -0.52700
S 	S 	0.02789 0.53236 0.87500 -0.52400
S 	S 	0.19273 0.47771 0.92238 -0.49000
S 	S 	0.10690 0.58050 0.98162 -0.51400
S 	S 	0.97210 0.54321 0.81713 -0.51800
S 	S 	0.18370 0.60011 0.97629 -0.54700
S 	S 	0.19488 0.44915 0.99018 -0.47100
C 	C 	0.06360 0.49840 0.94380 0.06300
C 	C 	0.04510 0.47590 0.97910 0.01200
C 	C 	0.06630 0.49110 0.96840 -0.03800
C 	C 	0.04850 0.51670 0.95660 -0.07500
C 	C 	0.25510 0.02040 0.45900 0.05300
C 	C 	0.28010 0.01670 0.47330 -0.02800
C 	C 	0.30690 0.01130 0.46250 0.01100
C 	C 	0.30850 0.00730 0.43690 -0.01400
C 	C 	0.28490 0.00990 0.42200 0.03800
C 	C 	0.25880 0.01770 0.43300 -0.10800
C 	C 	0.98160 0.00960 0.31560 0.05900
C 	C 	0.98270 0.99580 0.29320 -0.10900
C 	C 	0.98870 0.96790 0.29310 0.02600
C 	C 	0.99250 0.95450 0.31330 -0.01800
C 	C 	0.99080 0.96940 0.33480 0.02400
C 	C 	0.98460 0.99580 0.33590 -0.05100
C 	C 	0.08830 0.99560 0.29920 0.08300
C 	C 	0.11480 0.98530 0.29670 -0.09200
C 	C 	0.12390 0.96040 0.28350 0.02500
C 	C 	0.10190 0.94980 0.27110 -0.01500
C 	C 	0.07270 0.95620 0.27460 0.01600
C 	C 	0.06610 0.97720 0.28950 -0.04200
C 	C 	0.27110 0.09710 0.44180 0.05800
C 	C 	0.29400 0.07980 0.44750 -0.02800
C 	C 	0.31470 0.08870 0.46480 0.00900
C 	C 	0.31360 0.11500 0.47650 -0.01300
C 	C 	0.29000 0.13090 0.47100 0.02200
C 	C 	0.26870 0.12170 0.45260 -0.09900
C 	C 	0.24330 0.01460 0.36260 0.08800
C 	C 	0.24030 0.99000 0.36850 -0.07800
C 	C 	0.26330 0.97200 0.35820 0.01900
C 	C 	0.28520 0.98320 0.34150 -0.01200
C 	C 	0.29030 0.01070 0.34110 0.01400
C 	C 	0.26840 0.02640 0.35600 -0.04500
C 	C 	0.25970 0.06340 0.30130 0.07700
C 	C 	0.24440 0.04470 0.29160 -0.11700
C 	C 	0.25560 0.02590 0.27630 0.03100
C 	C 	0.28500 0.02790 0.26710 -0.01900
C 	C 	0.30360 0.04650 0.27770 0.01200
C 	C 	0.28970 0.06550 0.29590 -0.03100
C 	C 	0.20540 0.08460 0.24700 0.07900
C 	C 	0.19160 0.06210 0.24160 -0.08800
C 	C 	0.20340 0.04360 0.22640 0.03200
C 	C 	0.23040 0.04870 0.21460 -0.02600
C 	C 	0.24250 0.07190 0.21930 0.03600
C 	C 	0.23310 0.08600 0.23700 -0.07600
C 	C 	0.15590 0.97600 0.34840 0.05100
C 	C 	0.17750 0.98420 0.33300 -0.11100
C 	C 	0.19440 0.96640 0.31650 0.01900
C 	C 	0.18630 0.93800 0.31890 -0.00900
C 	C 	0.16060 0.93140 0.33580 0.00700
C 	C 	0.14730 0.95060 0.35250 -0.01700
C 	C 	0.16530 0.95270 0.41820 0.04800
C 	C 	0.17800 0.92830 0.41170 -0.01800
C 	C 	0.15600 0.91090 0.40660 0.01100
C 	C 	0.12810 0.91380 0.41390 -0.01400
C 	C 	0.11720 0.93640 0.41800 0.02900
C 	C 	0.13740 0.95910 0.42130 -0.10100
C 	C 	0.21336 0.11283 0.49656 0.05700
C 	C 	0.21970 0.13916 0.49650 -0.08300
C 	C 	0.24190 0.14867 0.51142 0.02900
C 	C 	0.25770 0.13180 0.52641 -0.01600
C 	C 	0.25130 0.10550 0.52647 0.01900
C 	C 	0.22918 0.09600 0.51155 -0.05000
C 	C 	0.14150 0.01531 0.51000 0.10000
C 	C 	0.15870 0.03678 0.51490 -0.14200
C 	C 	0.16280 0.04509 0.53937 0.04300
C 	C 	0.14970 0.03190 0.55900 -0.02100
C 	C 	0.13250 0.01050 0.55420 0.01800
C 	C 	0.12830 0.00220 0.52970 -0.04300
C 	C 	0.07500 0.06139 0.49610 0.01200
C 	C 	0.07770 0.05115 0.52010 -0.01300
C 	C 	0.05400 0.03968 0.53160 0.01000
C 	C 	0.02770 0.03844 0.51920 -0.01300
C 	C 	0.02500 0.04867 0.49530 0.02900
C 	C 	0.04870 0.06015 0.48370 -0.09400
C 	C 	0.29390 0.14820 0.37830 0.06900
C 	C 	0.29140 0.12690 0.39410 -0.07800
C 	C 	0.31420 0.12020 0.40970 0.02700
C 	C 	0.33930 0.13490 0.40970 -0.01600
C 	C 	0.34180 0.15620 0.39390 0.01900
C 	C 	0.31900 0.16290 0.37830 -0.05500
C 	C 	0.11630 0.05170 0.23960 0.06100
C 	C 	0.12560 0.02930 0.25170 -0.11600
C 	C 	0.13500 0.00720 0.23460 0.02400
C 	C 	0.13290 0.00850 0.20920 -0.01500
C 	C 	0.12390 0.03100 0.19950 0.01300
C 	C 	0.11300 0.05260 0.21460 -0.02600
C 	C 	0.02650 0.06060 0.22760 0.05400
C 	C 	0.01430 0.04900 0.20720 -0.06100
C 	C 	0.01470 0.06230 0.18280 0.01500
C 	C 	0.02570 0.08860 0.18100 -0.01300
C 	C 	0.03470 0.10170 0.20480 0.03200
C 	C 	0.03630 0.08650 0.22610 -0.10800
C 	C 	0.99980 0.02900 0.39710 0.05500
C 	C 	0.99100 0.00380 0.40230 -0.02100
C 	C 	0.96850 0.99940 0.41900 0.01200
C 	C 	0.95480 0.02020 0.43040 -0.01600
C 	C 	0.96360 0.04540 0.42520 0.03100
C 	C 	0.98600 0.04980 0.40850 -0.11900
C 	C 	0.94670 0.11970 0.28350 0.06800
C 	C 	0.92450 0.12910 0.26700 -0.02400
C 	C 	0.89580 0.13550 0.27600 0.00900
C 	C 	0.89110 0.13520 0.30420 -0.00800
C 	C 	0.91470 0.12450 0.32190 0.02600
C 	C 	0.94150 0.11750 0.30960 -0.10100
C 	C 	0.16120 0.94010 0.50290 0.05000
C 	C 	0.15530 0.94450 0.52960 -0.07700
C 	C 	0.12720 0.93710 0.53830 0.02200
C 	C 	0.10680 0.92870 0.52260 -0.01200
C 	C 	0.11240 0.92340 0.49630 0.01200
C 	C 	0.14030 0.93040 0.48570 -0.03200
Cd	Cd	0.14359 0.08980 0.39600 1.12500
Cd	Cd	0.20075 0.06788 0.34200 1.14000
Cd	Cd	0.08586 0.10793 0.34326 1.12500
Cd	Cd	0.14755 0.08839 0.29000 1.14200
Cd	Cd	0.12325 0.03699 0.33957 1.14200
Cd	Cd	0.22343 0.12468 0.39709 1.14600
Cd	Cd	0.08212 0.11063 0.45043 1.14300
Cd	Cd	0.06694 0.05938 0.28403 1.14800
Cd	Cd	0.02004 0.12762 0.29745 1.15100
Cd	Cd	0.20681 0.06778 0.44641 1.14800
Cd	Cd	0.12381 0.04290 0.45529 1.14800
Cd	Cd	0.06542 0.05729 0.40045 1.14100
Cd	Cd	0.01034 0.06508 0.34424 1.14900
Cd	Cd	0.17411 0.01496 0.39603 1.15100
S 	S 	0.10401 0.07106 0.36970 -1.15400
S 	S 	0.16216 0.05345 0.42338 -1.10000
S 	S 	0.18429 0.10581 0.36930 -1.15000
S 	S 	0.16453 0.04980 0.31284 -0.85600
S 	S 	0.04554 0.08943 0.31685 -1.09600
S 	S 	0.13561 0.99823 0.36749 -0.52200
S 	S 	0.04239 0.09103 0.42642 -0.85700
S 	S 	0.19013 0.10914 0.26721 -0.56300
S 	S 	0.10703 0.07906 0.25834 -0.52600
S 	S 	0.07843 0.02354 0.31476 -0.58100
S 	S 	0.24772 0.08533 0.32331 -0.53000
S 	S 	0.21768 0.03638 0.37614 -0.56800
Cd	Cd	0.98135 0.06045 0.27404 1.15600
Cd	Cd	0.18875 0.99211 0.46802 1.15900
S 	S 	0.02764 0.04237 0.25537 -0.51400
S 	S 	0.22359 0.02976 0.47369 -0.51300
S 	S 	0.09002 0.02063 0.42458 -0.55000
S 	S 	0.24641 0.08595 0.41949 -0.52100
S 	S 	0.25776 0.14271 0.36368 -0.56700
S 	S 	0.97958 0.11007 0.27151 -0.50900
S 	S 	0.13874 0.00479 0.48175 -0.52700
S 	S 	0.02789 0.03236 0.37500 -0.52400
S 	S 	0.19273 0.97771 0.42238 -0.49000
S 	S 	0.10690 0.08050 0.48162 -0.51400
S 	S 	0.97210 0.04321 0.31713 -0.51800
S 	S 	0.18370 0.10011 0.47629 -0.54700
S 	S 	0.19488 0.94915 0.49018 -0.47100
C 	C 	0.06360 0.99840 0.44380 0.06300
C 	C 	0.04510 0.97590 0.47910 0.01200
C 	C 	0.06630 0.99110 0.46840 -0.03800
C 	C 	0.04850 0.01670 0.45660 -0.07500
C 	C 	0.75510 0.52040 0.45900 0.05300
C 	C 	0.78010 0.51670 0.47330 -0.02800
C 	C 	0.80690 0.51130 0.46250 0.01100
C 	C 	0.80850 0.50730 0.43690 -0.01400
C 	C 	0.78490 0.50990 0.42200 0.03800
C 	C 	0.75880 0.51770 0.43300 -0.10800
C 	C 	0.48160 0.50960 0.31560 0.05900
C 	C 	0.48270 0.49580 0.29320 -0.10900
C 	C 	0.48870 0.46790 0.29310 0.02600
C 	C 	0.49250 0.45450 0.31330 -0.01800
C 	C 	0.49080 0.46940 0.33480 0.02400
C 	C 	0.48460 0.49580 0.33590 -0.05100
C 	C 	0.58830 0.49560 0.29920 0.08300
C 	C 	0.61480 0.48530 0.29670 -0.09200
C 	C 	0.62390 0.46040 0.28350 0.02500
C 	C 	0.60190 0.44980 0.27110 -0.01500
C 	C 	0.57270 0.45620 0.27460 0.01600
C 	C 	0.56610 0.47720 0.28950 -0.04200
C 	C 	0.77110 0.59710 0.44180 0.05800
C 	C 	0.79400 0.57980 0.44750 -0.02800
C 	C 	0.81470 0.58870 0.46480 0.00900
C 	C 	0.81360 0.61500 0.47650 -0.01300
C 	C 	0.79000 0.63090 0.47100 0.02200
C 	C 	0.76870 0.62170 0.45260 -0.09900
C 	C 	0.74330 0.51460 0.36260 0.08800
C 	C 	0.74030 0.49000 0.36850 -0.07800
C 	C 	0.76330 0.47200 0.35820 0.01900
C 	C 	0.78520 0.48320 0.34150 -0.01200
C 	C 	0.79030 0.51070 0.34110 0.01400
C 	C 	0.76840 0.52640 0.35600 -0.04500
C 	C 	0.75970 0.56340 0.30130 0.07700
C 	C 	0.74440 0.54470 0.29160 -0.11700
C 	C 	0.75560 0.52590 0.27630 0.03100
C 	C 	0.78500 0.52790 0.26710 -0.01900
C 	C 	0.80360 0.54650 0.27770 0.01200
C 	C 	0.78970 0.56550 0.29590 -0.03100
C 	C 	0.70540 0.58460 0.24700 0.07900
C 	C 	0.69160 0.56210 0.24160 -0.08800
C 	C 	0.70340 0.54360 0.22640 0.03200
C 	C 	0.73040 0.54870 0.21460 -0.02600
C 	C 	0.74250 0.57190 0.21930 0.03600
C 	C 	0.73310 0.58600 0.23700 -0.07600
C 	C 	0.65590 0.47600 0.34840 0.05100
C 	C 	0.67750 0.48420 0.33300 -0.11100
C 	C 	0.69440 0.46640 0.31650 0.01900
C 	C 	0.68630 0.43800 0.31890 -0.00900
C 	C 	0.66060 0.43140 0.33580 0.00700
C 	C 	0.64730 0.45060 0.35250 -0.01700
C 	C 	0.66530 0.45270 0.41820 0.04800
C 	C 	0.67800 0.42830 0.41170 -0.01800
C 	C 	0.65600 0.41090 0.40660 0.01100
C 	C 	0.62810 0.41380 0.41390 -0.01400
C 	C 	0.61720 0.43640 0.41800 0.02900
C 	C 	0.63740 0.45910 0.42130 -0.10100
C 	C 	0.71336 0.61283 0.49656 0.05700
C 	C 	0.71970 0.63916 0.49650 -0.08300
C 	C 	0.74190 0.64867 0.51142 0.02900
C 	C 	0.75770 0.63180 0.52641 -0.01600
C 	C 	0.75130 0.60550 0.52647 0.01900
C 	C 	0.72918 0.59600 0.51155 -0.05000
C 	C 	0.64150 0.51531 0.51000 0.10000
C 	C 	0.65870 0.53678 0.51490 -0.14200
C 	C 	0.66280 0.54509 0.53937 0.04300
C 	C 	0.64970 0.53190 0.55900 -0.02100
C 	C 	0.63250 0.51050 0.55420 0.01800
C 	C 	0.62830 0.50220 0.52970 -0.04300
C 	C 	0.57500 0.56139 0.49610 0.01200
C 	C 	0.57770 0.55115 0.52010 -0.01300
C 	C 	0.55400 0.53968 0.53160 0.01000
C 	C 	0.52770 0.53844 0.51920 -0.01300
C 	C 	0.52500 0.54867 0.49530 0.02900
C 	C 	0.54870 0.56015 0.48370 -0.09400
C 	C 	0.79390 0.64820 0.37830 0.06900
C 	C 	0.79140 0.62690 0.39410 -0.07800
C 	C 	0.81420 0.62020 0.40970 0.02700
C 	C 	0.83930 0.63490 0.40970 -0.01600
C 	C 	0.84180 0.65620 0.39390 0.01900
C 	C 	0.81900 0.66290 0.37830 -0.05500
C 	C 	0.61630 0.55170 0.23960 0.06100
C 	C 	0.62560 0.52930 0.25170 -0.11600
C 	C 	0.63500 0.50720 0.23460 0.02400
C 	C 	0.63290 0.50850 0.20920 -0.01500
C 	C 	0.62390 0.53100 0.19950 0.01300
C 	C 	0.61300 0.55260 0.21460 -0.02600
C 	C 	0.52650 0.56060 0.22760 0.05400
C 	C 	0.51430 0.54900 0.20720 -0.06100
C 	C 	0.51470 0.56230 0.18280 0.01500
C 	C 	0.52570 0.58860 0.18100 -0.01300
C 	C 	0.53470 0.60170 0.20480 0.03200
C 	C 	0.53630 0.58650 0.22610 -0.10800
C 	C 	0.49980 0.52900 0.39710 0.05500
C 	C 	0.49100 0.50380 0.40230 -0.02100
C 	C 	0.46850 0.49940 0.41900 0.01200
C 	C 	0.45480 0.52020 0.43040 -0.01600
C 	C 	0.46360 0.54540 0.42520 0.03100
C 	C 	0.48600 0.54980 0.40850 -0.11900
C 	C 	0.44670 0.61970 0.28350 0.06800
C 	C 	0.42450 0.62910 0.26700 -0.02400
C 	C 	0.39580 0.63550 0.27600 0.00900
C 	C 	0.39110 0.63520 0.30420 -0.00800
C 	C 	0.41470 0.62450 0.32190 0.02600
C 	C 	0.44150 0.61750 0.30960 -0.10100
C 	C 	0.66120 0.44010 0.50290 0.05000
C 	C 	0.65530 0.44450 0.52960 -0.07700
C 	C 	0.62720 0.43710 0.53830 0.02200
C 	C 	0.60680 0.42870 0.52260 -0.01200
C 	C 	0.61240 0.42340 0.49630 0.01200
C 	C 	0.64030 0.43040 0.48570 -0.03200
Cd	Cd	0.64359 0.58980 0.39600 1.12500
Cd	Cd	0.70075 0.56788 0.34200 1.14000
Cd	Cd	0.58586 0.60793 0.34326 1.12500
Cd	Cd	0.64755 0.58839 0.29000 1.14200
Cd	Cd	0.62325 0.53699 0.33957 1.14200
Cd	Cd	0.72343 0.62468 0.39709 1.14600
Cd	Cd	0.58212 0.61063 0.45043 1.14300
Cd	Cd	0.56694 0.55938 0.28403 1.14800
Cd	Cd	0.52004 0.62762 0.29745 1.15100
Cd	Cd	0.70681 0.56778 0.44641 1.14800
Cd	Cd	0.62381 0.54290 0.45529 1.14800
Cd	Cd	0.56542 0.55729 0.40045 1.14100
Cd	Cd	0.51034 0.56508 0.34424 1.14900
Cd	Cd	0.67411 0.51496 0.39603 1.15100
S 	S 	0.60401 0.57106 0.36970 -1.15400
S 	S 	0.66216 0.55345 0.42338 -1.10000
S 	S 	0.68429 0.60581 0.36930 -1.15000
S 	S 	0.66453 0.54980 0.31284 -0.85600
S 	S 	0.54554 0.58943 0.31685 -1.09600
S 	S 	0.63561 0.49823 0.36749 -0.52200
S 	S 	0.54239 0.59103 0.42642 -0.85700
S 	S 	0.69013 0.60914 0.26721 -0.56300
S 	S 	0.60703 0.57906 0.25834 -0.52600
S 	S 	0.57843 0.52354 0.31476 -0.58100
S 	S 	0.74772 0.58533 0.32331 -0.53000
S 	S 	0.71768 0.53638 0.37614 -0.56800
Cd	Cd	0.48135 0.56045 0.27404 1.15600
Cd	Cd	0.68875 0.49211 0.46802 1.15900
S 	S 	0.52764 0.54237 0.25537 -0.51400
S 	S 	0.72359 0.52976 0.47369 -0.51300
S 	S 	0.59002 0.52063 0.42458 -0.55000
S 	S 	0.74641 0.58595 0.41949 -0.52100
S 	S 	0.75776 0.64271 0.36368 -0.56700
S 	S 	0.47958 0.61007 0.27151 -0.50900
S 	S 	0.63874 0.50479 0.48175 -0.52700
S 	S 	0.52789 0.53236 0.37500 -0.52400
S 	S 	0.69273 0.47771 0.42238 -0.49000
S 	S 	0.60690 0.58050 0.48162 -0.51400
S 	S 	0.47210 0.54321 0.31713 -0.51800
S 	S 	0.68370 0.60011 0.47629 -0.54700
S 	S 	0.69488 0.44915 0.49018 -0.47100
C 	C 	0.56360 0.49840 0.44380 0.06300
C 	C 	0.54510 0.47590 0.47910 0.01200
C 	C 	0.56630 0.49110 0.46840 -0.03800
C 	C 	0.54850 0.51670 0.45660 -0.07500
C 	C 	0.75510 0.02040 0.95900 0.05300
C 	C 	0.78010 0.01670 0.97330 -0.02800
C 	C 	0.80690 0.01130 0.96250 0.01100
C 	C 	0.80850 0.00730 0.93690 -0.01400
C 	C 	0.78490 0.00990 0.92200 0.03800
C 	C 	0.75880 0.01770 0.93300 -0.10800
C 	C 	0.48160 0.00960 0.81560 0.05900
C 	C 	0.48270 0.99580 0.79320 -0.10900
C 	C 	0.48870 0.96790 0.79310 0.02600
C 	C 	0.49250 0.95450 0.81330 -0.01800
C 	C 	0.49080 0.96940 0.83480 0.02400
C 	C 	0.48460 0.99580 0.83590 -0.05100
C 	C 	0.58830 0.99560 0.79920 0.08300
C 	C 	0.61480 0.98530 0.79670 -0.09200
C 	C 	0.62390 0.96040 0.78350 0.02500
C 	C 	0.60190 0.94980 0.77110 -0.01500
C 	C 	0.57270 0.95620 0.77460 0.01600
C 	C 	0.56610 0.97720 0.78950 -0.04200
C 	C 	0.77110 0.09710 0.94180 0.05800
C 	C 	0.79400 0.07980 0.94750 -0.02800
C 	C 	0.81470 0.08870 0.96480 0.00900
C 	C 	0.81360 0.11500 0.97650 -0.01300
C 	C 	0.79000 0.13090 0.97100 0.02200
C 	C 	0.76870 0.12170 0.95260 -0.09900
C 	C 	0.74330 0.01460 0.86260 0.08800
C 	C 	0.74030 0.99000 0.86850 -0.07800
C 	C 	0.76330 0.97200 0.85820 0.01900
C 	C 	0.78520 0.98320 0.84150 -0.01200
C 	C 	0.79030 0.01070 0.84110 0.01400
C 	C 	0.76840 0.02640 0.85600 -0.04500
C 	C 	0.75970 0.06340 0.80130 0.07700
C 	C 	0.74440 0.04470 0.79160 -0.11700
C 	C 	0.75560 0.02590 0.77630 0.03100
C 	C 	0.78500 0.02790 0.76710 -0.01900
C 	C 	0.80360 0.04650 0.77770 0.01200
C 	C 	0.78970 0.06550 0.79590 -0.03100
C 	C 	0.70540 0.08460 0.74700 0.07900
C 	C 	0.69160 0.06210 0.74160 -0.08800
C 	C 	0.70340 0.04360 0.72640 0.03200
C 	C 	0.73040 0.04870 0.71460 -0.02600
C 	C 	0.74250 0.07190 0.71930 0.03600
C 	C 	0.73310 0.08600 0.73700 -0.07600
C 	C 	0.65590 0.97600 0.84840 0.05100
C 	C 	0.67750 0.98420 0.83300 -0.11100
C 	C 	0.69440 0.96640 0.81650 0.01900
C 	C 	0.68630 0.93800 0.81890 -0.00900
C 	C 	0.66060 0.93140 0.83580 0.00700
C 	C 	0.64730 0.95060 0.85250 -0.01700
C 	C 	0.66530 0.95270 0.91820 0.04800
C 	C 	0.67800 0.92830 0.91170 -0.01800
C 	C 	0.65600 0.91090 0.90660 0.01100
C 	C 	0.62810 0.91380 0.91390 -0.01400
C 	C 	0.61720 0.93640 0.91800 0.02900
C 	C 	0.63740 0.95910 0.92130 -0.10100
C 	C 	0.71336 0.11283 0.99656 0.05700
C 	C 	0.71970 0.13916 0.99650 -0.08300
C 	C 	0.74190 0.14867 0.01142 0.02900
C 	C 	0.75770 0.13180 0.02641 -0.01600
C 	C 	0.75130 0.10550 0.02647 0.01900
C 	C 	0.72918 0.09600 0.01155 -0.05000
C 	C 	0.64150 0.01531 0.01000 0.10000
C 	C 	0.65870 0.03678 0.01490 -0.14200
C 	C 	0.66280 0.04509 0.03937 0.04300
C 	C 	0.64970 0.03190 0.05900 -0.02100
C 	C 	0.63250 0.01050 0.05420 0.01800
C 	C 	0.62830 0.00220 0.02970 -0.04300
C 	C 	0.57500 0.06139 0.99610 0.01200
C 	C 	0.57770 0.05115 0.02010 -0.01300
C 	C 	0.55400 0.03968 0.03160 0.01000
C 	C 	0.52770 0.03844 0.01920 -0.01300
C 	C 	0.52500 0.04867 0.99530 0.02900
C 	C 	0.54870 0.06015 0.98370 -0.09400
C 	C 	0.79390 0.14820 0.87830 0.06900
C 	C 	0.79140 0.12690 0.89410 -0.07800
C 	C 	0.81420 0.12020 0.90970 0.02700
C 	C 	0.83930 0.13490 0.90970 -0.01600
C 	C 	0.84180 0.15620 0.89390 0.01900
C 	C 	0.81900 0.16290 0.87830 -0.05500
C 	C 	0.61630 0.05170 0.73960 0.06100
C 	C 	0.62560 0.02930 0.75170 -0.11600
C 	C 	0.63500 0.00720 0.73460 0.02400
C 	C 	0.63290 0.00850 0.70920 -0.01500
C 	C 	0.62390 0.03100 0.69950 0.01300
C 	C 	0.61300 0.05260 0.71460 -0.02600
C 	C 	0.52650 0.06060 0.72760 0.05400
C 	C 	0.51430 0.04900 0.70720 -0.06100
C 	C 	0.51470 0.06230 0.68280 0.01500
C 	C 	0.52570 0.08860 0.68100 -0.01300
C 	C 	0.53470 0.10170 0.70480 0.03200
C 	C 	0.53630 0.08650 0.72610 -0.10800
C 	C 	0.49980 0.02900 0.89710 0.05500
C 	C 	0.49100 0.00380 0.90230 -0.02100
C 	C 	0.46850 0.99940 0.91900 0.01200
C 	C 	0.45480 0.02020 0.93040 -0.01600
C 	C 	0.46360 0.04540 0.92520 0.03100
C 	C 	0.48600 0.04980 0.90850 -0.11900
C 	C 	0.44670 0.11970 0.78350 0.06800
C 	C 	0.42450 0.12910 0.76700 -0.02400
C 	C 	0.39580 0.13550 0.77600 0.00900
C 	C 	0.39110 0.13520 0.80420 -0.00800
C 	C 	0.41470 0.12450 0.82190 0.02600
C 	C 	0.44150 0.11750 0.80960 -0.10100
C 	C 	0.66120 0.94010 0.00290 0.05000
C 	C 	0.65530 0.94450 0.02960 -0.07700
C 	C 	0.62720 0.93710 0.03830 0.02200
C 	C 	0.60680 0.92870 0.02260 -0.01200
C 	C 	0.61240 0.92340 0.99630 0.01200
C 	C 	0.64030 0.93040 0.98570 -0.03200
Cd	Cd	0.64359 0.08980 0.89600 1.12500
Cd	Cd	0.70075 0.06788 0.84200 1.14000
Cd	Cd	0.58586 0.10793 0.84326 1.12500
Cd	Cd	0.64755 0.08839 0.79000 1.14200
Cd	Cd	0.62325 0.03699 0.83957 1.14200
Cd	Cd	0.72343 0.12468 0.89709 1.14600
Cd	Cd	0.58212 0.11063 0.95043 1.14300
Cd	Cd	0.56694 0.05938 0.78403 1.14800
Cd	Cd	0.52004 0.12762 0.79745 1.15100
Cd	Cd	0.70681 0.06778 0.94641 1.14800
Cd	Cd	0.62381 0.04290 0.95529 1.14800
Cd	Cd	0.56542 0.05729 0.90045 1.14100
Cd	Cd	0.51034 0.06508 0.84424 1.14900
Cd	Cd	0.67411 0.01496 0.89603 1.15100
S 	S 	0.60401 0.07106 0.86970 -1.15400
S 	S 	0.66216 0.05345 0.92338 -1.10000
S 	S 	0.68429 0.10581 0.86930 -1.15000
S 	S 	0.66453 0.04980 0.81284 -0.85600
S 	S 	0.54554 0.08943 0.81685 -1.09600
S 	S 	0.63561 0.99823 0.86749 -0.52200
S 	S 	0.54239 0.09103 0.92642 -0.85700
S 	S 	0.69013 0.10914 0.76721 -0.56300
S 	S 	0.60703 0.07906 0.75834 -0.52600
S 	S 	0.57843 0.02354 0.81476 -0.58100
S 	S 	0.74772 0.08533 0.82331 -0.53000
S 	S 	0.71768 0.03638 0.87614 -0.56800
Cd	Cd	0.48135 0.06045 0.77404 1.15600
Cd	Cd	0.68875 0.99211 0.96802 1.15900
S 	S 	0.52764 0.04237 0.75537 -0.51400
S 	S 	0.72359 0.02976 0.97369 -0.51300
S 	S 	0.59002 0.02063 0.92458 -0.55000
S 	S 	0.74641 0.08595 0.91949 -0.52100
S 	S 	0.75776 0.14271 0.86368 -0.56700
S 	S 	0.47958 0.11007 0.77151 -0.50900
S 	S 	0.63874 0.00479 0.98175 -0.52700
S 	S 	0.52789 0.03236 0.87500 -0.52400
S 	S 	0.69273 0.97771 0.92238 -0.49000
S 	S 	0.60690 0.08050 0.98162 -0.51400
S 	S 	0.47210 0.04321 0.81713 -0.51800
S 	S 	0.68370 0.10011 0.97629 -0.54700
S 	S 	0.69488 0.94915 0.99018 -0.47100
C 	C 	0.56360 0.99840 0.94380 0.06300
C 	C 	0.54510 0.97590 0.97910 0.01200
C 	C 	0.56630 0.99110 0.96840 -0.03800
C 	C 	0.54850 0.01670 0.95660 -0.07500
C 	C 	0.49490 0.22960 0.95900 0.05300
C 	C 	0.46990 0.23330 0.97330 -0.02800
C 	C 	0.44310 0.23870 0.96250 0.01100
C 	C 	0.44150 0.24270 0.93690 -0.01400
C 	C 	0.46510 0.24010 0.92200 0.03800
C 	C 	0.49120 0.23230 0.93300 -0.10800
C 	C 	0.76840 0.24040 0.81560 0.05900
C 	C 	0.76730 0.25420 0.79320 -0.10900
C 	C 	0.76130 0.28210 0.79310 0.02600
C 	C 	0.75750 0.29550 0.81330 -0.01800
C 	C 	0.75920 0.28060 0.83480 0.02400
C 	C 	0.76540 0.25420 0.83590 -0.05100
C 	C 	0.66170 0.25440 0.79920 0.08300
C 	C 	0.63520 0.26470 0.79670 -0.09200
C 	C 	0.62610 0.28960 0.78350 0.02500
C 	C 	0.64810 0.30020 0.77110 -0.01500
C 	C 	0.67730 0.29380 0.77460 0.01600
C 	C 	0.68390 0.27280 0.78950 -0.04200
C 	C 	0.47890 0.15290 0.94180 0.05800
C 	C 	0.45600 0.17020 0.94750 -0.02800
C 	C 	0.43530 0.16130 0.96480 0.00900
C 	C 	0.43640 0.13500 0.97650 -0.01300
C 	C 	0.46000 0.11910 0.97100 0.02200
C 	C 	0.48130 0.12830 0.95260 -0.09900
C 	C 	0.50670 0.23540 0.86260 0.08800
C 	C 	0.50970 0.26000 0.86850 -0.07800
C 	C 	0.48670 0.27800 0.85820 0.01900
C 	C 	0.46480 0.26680 0.84150 -0.01200
C 	C 	0.45970 0.23930 0.84110 0.01400
C 	C 	0.48160 0.22360 0.85600 -0.04500
C 	C 	0.49030 0.18660 0.80130 0.07700
C 	C 	0.50560 0.20530 0.79160 -0.11700
C 	C 	0.49440 0.22410 0.77630 0.03100
C 	C 	0.46500 0.22210 0.76710 -0.01900
C 	C 	0.44640 0.20350 0.77770 0.01200
C 	C 	0.46030 0.18450 0.79590 -0.03100
C 	C 	0.54460 0.16540 0.74700 0.07900
C 	C 	0.55840 0.18790 0.74160 -0.08800
C 	C 	0.54660 0.20640 0.72640 0.03200
C 	C 	0.51960 0.20130 0.71460 -0.02600
C 	C 	0.50750 0.17810 0.71930 0.03600
C 	C 	0.51690 0.16400 0.73700 -0.07600
C 	C 	0.59410 0.27400 0.84840 0.05100
C 	C 	0.57250 0.26580 0.83300 -0.11100
C 	C 	0.55560 0.28360 0.81650 0.01900
C 	C 	0.56370 0.31200 0.81890 -0.00900
C 	C 	0.58940 0.31860 0.83580 0.00700
C 	C 	0.60270 0.29940 0.85250 -0.01700
C 	C 	0.58470 0.29730 0.91820 0.04800
C 	C 	0.57200 0.32170 0.91170 -0.01800
C 	C 	0.59400 0.33910 0.90660 0.01100
C 	C 	0.62190 0.33620 0.91390 -0.01400
C 	C 	0.63280 0.31360 0.91800 0.02900
C 	C 	0.61260 0.29090 0.92130 -0.10100
C 	C 	0.53664 0.13717 0.99656 0.05700
C 	C 	0.53030 0.11084 0.99650 -0.08300
C 	C 	0.50810 0.10133 0.01142 0.02900
C 	C 	0.49230 0.11820 0.02641 -0.01600
C 	C 	0.49870 0.14450 0.02647 0.01900
C 	C 	0.52082 0.15400 0.01155 -0.05000
C 	C 	0.60850 0.23469 0.01000 0.10000
C 	C 	0.59130 0.21322 0.01490 -0.14200
C 	C 	0.58720 0.20491 0.03937 0.04300
C 	C 	0.60030 0.21810 0.05900 -0.02100
C 	C 	0.61750 0.23950 0.05420 0.01800
C 	C 	0.62170 0.24780 0.02970 -0.04300
C 	C 	0.67500 0.18861 0.99610 0.01200
C 	C 	0.67230 0.19885 0.02010 -0.01300
C 	C 	0.69600 0.21032 0.03160 0.01000
C 	C 	0.72230 0.21156 0.01920 -0.01300
C 	C 	0.72500 0.20133 0.99530 0.02900
C 	C 	0.70130 0.18985 0.98370 -0.09400
C 	C 	0.45610 0.10180 0.87830 0.06900
C 	C 	0.45860 0.12310 0.89410 -0.07800
C 	C 	0.43580 0.12980 0.90970 0.02700
C 	C 	0.41070 0.11510 0.90970 -0.01600
C 	C 	0.40820 0.09380 0.89390 0.01900
C 	C 	0.43100 0.08710 0.87830 -0.05500
C 	C 	0.63370 0.19830 0.73960 0.06100
C 	C 	0.62440 0.22070 0.75170 -0.11600
C 	C 	0.61500 0.24280 0.73460 0.02400
C 	C 	0.61710 0.24150 0.70920 -0.01500
C 	C 	0.62610 0.21900 0.69950 0.01300
C 	C 	0.63700 0.19740 0.71460 -0.02600
C 	C 	0.72350 0.18940 0.72760 0.05400
C 	C 	0.73570 0.20100 0.70720 -0.06100
C 	C 	0.73530 0.18770 0.68280 0.01500
C 	C 	0.72430 0.16140 0.68100 -0.01300
C 	C 	0.71530 0.14830 0.70480 0.03200
C 	C 	0.71370 0.16350 0.72610 -0.10800
C 	C 	0.75020 0.22100 0.89710 0.05500
C 	C 	0.75900 0.24620 0.90230 -0.02100
C 	C 	0.78150 0.25060 0.91900 0.01200
C 	C 	0.79520 0.22980 0.93040 -0.01600
C 	C 	0.78640 0.20460 0.92520 0.03100
C 	C 	0.76400 0.20020 0.90850 -0.11900
C 	C 	0.80330 0.13030 0.78350 0.06800
C 	C 	0.82550 0.12090 0.76700 -0.02400
C 	C 	0.85420 0.11450 0.77600 0.00900
C 	C 	0.85890 0.11480 0.80420 -0.00800
C 	C 	0.83530 0.12550 0.82190 0.02600
C 	C 	0.80850 0.13250 0.80960 -0.10100
C 	C 	0.58880 0.30990 0.00290 0.05000
C 	C 	0.59470 0.30550 0.02960 -0.07700
C 	C 	0.62280 0.31290 0.03830 0.02200
C 	C 	0.64320 0.32130 0.02260 -0.01200
C 	C 	0.63760 0.32660 0.99630 0.01200
C 	C 	0.60970 0.31960 0.98570 -0.03200
Cd	Cd	0.60641 0.16020 0.89600 1.12500
Cd	Cd	0.54925 0.18212 0.84200 1.14000
Cd	Cd	0.66414 0.14207 0.84326 1.12500
Cd	Cd	0.60245 0.16161 0.79000 1.14200
Cd	Cd	0.62675 0.21301 0.83957 1.14200
Cd	Cd	0.52657 0.12532 0.89709 1.14600
Cd	Cd	0.66788 0.13937 0.95043 1.14300
Cd	Cd	0.68306 0.19062 0.78403 1.14800
Cd	Cd	0.72996 0.12238 0.79745 1.15100
Cd	Cd	0.54319 0.18222 0.94641 1.14800
Cd	Cd	0.62619 0.20710 0.95529 1.14800
Cd	Cd	0.68458 0.19271 0.90045 1.14100
Cd	Cd	0.73966 0.18492 0.84424 1.14900
Cd	Cd	0.57589 0.23504 0.89603 1.15100
S 	S 	0.64599 0.17894 0.86970 -1.15400
S 	S 	0.58784 0.19655 0.92338 -1.10000
S 	S 	0.56571 0.14419 0.86930 -1.15000
S 	S 	0.58547 0.20020 0.81284 -0.85600
S 	S 	0.70446 0.16057 0.81685 -1.09600
S 	S 	0.61439 0.25177 0.86749 -0.52200
S 	S 	0.70761 0.15897 0.92642 -0.85700
S 	S 	0.55987 0.14086 0.76721 -0.56300
S 	S 	0.64297 0.17094 0.75834 -0.52600
S 	S 	0.67157 0.22646 0.81476 -0.58100
S 	S 	0.50228 0.16467 0.82331 -0.53000
S 	S 	0.53232 0.21362 0.87614 -0.56800
Cd	Cd	0.76865 0.18955 0.77404 1.15600
Cd	Cd	0.56125 0.25789 0.96802 1.15900
S 	S 	0.72236 0.20763 0.75537 -0.51400
S 	S 	0.52641 0.22024 0.97369 -0.51300
S 	S 	0.65998 0.22937 0.92458 -0.55000
S 	S 	0.50359 0.16405 0.91949 -0.52100
S 	S 	0.49224 0.10729 0.86368 -0.56700
S 	S 	0.77042 0.13993 0.77151 -0.50900
S 	S 	0.61126 0.24521 0.98175 -0.52700
S 	S 	0.72211 0.21764 0.87500 -0.52400
S 	S 	0.55727 0.27229 0.92238 -0.49000
S 	S 	0.64310 0.16950 0.98162 -0.51400
S 	S 	0.77790 0.20679 0.81713 -0.51800
S 	S 	0.56630 0.14989 0.97629 -0.54700
S 	S 	0.55512 0.30085 0.99018 -0.47100
C 	C 	0.68640 0.25160 0.94380 0.06300
C 	C 	0.70490 0.27410 0.97910 0.01200
C 	C 	0.68370 0.25890 0.96840 -0.03800
C 	C 	0.70150 0.23330 0.95660 -0.07500
C 	C 	0.49490 0.72960 0.45900 0.05300
C 	C 	0.46990 0.73330 0.47330 -0.02800
C 	C 	0.44310 0.73870 0.46250 0.01100
C 	C 	0.44150 0.74270 0.43690 -0.01400
C 	C 	0.46510 0.74010 0.42200 0.03800
C 	C 	0.49120 0.73230 0.43300 -0.10800
C 	C 	0.76840 0.74040 0.31560 0.05900
C 	C 	0.76730 0.75420 0.29320 -0.10900
C 	C 	0.76130 0.78210 0.29310 0.02600
C 	C 	0.75750 0.79550 0.31330 -0.01800
C 	C 	0.75920 0.78060 0.33480 0.02400
C 	C 	0.76540 0.75420 0.33590 -0.05100
C 	C 	0.66170 0.75440 0.29920 0.08300
C 	C 	0.63520 0.76470 0.29670 -0.09200
C 	C 	0.62610 0.78960 0.28350 0.02500
C 	C 	0.64810 0.80020 0.27110 -0.01500
C 	C 	0.67730 0.79380 0.27460 0.01600
C 	C 	0.68390 0.77280 0.28950 -0.04200
C 	C 	0.47890 0.65290 0.44180 0.05800
C 	C 	0.45600 0.67020 0.44750 -0.02800
C 	C 	0.43530 0.66130 0.46480 0.00900
C 	C 	0.43640 0.63500 0.47650 -0.01300
C 	C 	0.46000 0.61910 0.47100 0.02200
C 	C 	0.48130 0.62830 0.45260 -0.09900
C 	C 	0.50670 0.73540 0.36260 0.08800
C 	C 	0.50970 0.76000 0.36850 -0.07800
C 	C 	0.48670 0.77800 0.35820 0.01900
C 	C 	0.46480 0.76680 0.34150 -0.01200
C 	C 	0.45970 0.73930 0.34110 0.01400
C 	C 	0.48160 0.72360 0.35600 -0.04500
C 	C 	0.49030 0.68660 0.30130 0.07700
C 	C 	0.50560 0.70530 0.29160 -0.11700
C 	C 	0.49440 0.72410 0.27630 0.03100
C 	C 	0.46500 0.72210 0.26710 -0.01900
C 	C 	0.44640 0.70350 0.27770 0.01200
C 	C 	0.46030 0.68450 0.29590 -0.03100
C 	C 	0.54460 0.66540 0.24700 0.07900
C 	C 	0.55840 0.68790 0.24160 -0.08800
C 	C 	0.54660 0.70640 0.22640 0.03200
C 	C 	0.51960 0.70130 0.21460 -0.02600
C 	C 	0.50750 0.67810 0.21930 0.03600
C 	C 	0.51690 0.66400 0.23700 -0.07600
C 	C 	0.59410 0.77400 0.34840 0.05100
C 	C 	0.57250 0.76580 0.33300 -0.11100
C 	C 	0.55560 0.78360 0.31650 0.01900
C 	C 	0.56370 0.81200 0.31890 -0.00900
C 	C 	0.58940 0.81860 0.33580 0.00700
C 	C 	0.60270 0.79940 0.35250 -0.01700
C 	C 	0.58470 0.79730 0.41820 0.04800
C 	C 	0.57200 0.82170 0.41170 -0.01800
C 	C 	0.59400 0.83910 0.40660 0.01100
C 	C 	0.62190 0.83620 0.41390 -0.01400
C 	C 	0.63280 0.81360 0.41800 0.02900
C 	C 	0.61260 0.79090 0.42130 -0.10100
C 	C 	0.53664 0.63717 0.49656 0.05700
C 	C 	0.53030 0.61084 0.49650 -0.08300
C 	C 	0.50810 0.60133 0.51142 0.02900
C 	C 	0.49230 0.61820 0.52641 -0.01600
C 	C 	0.49870 0.64450 0.52647 0.01900
C 	C 	0.52082 0.65400 0.51155 -0.05000
C 	C 	0.60850 0.73469 0.51000 0.10000
C 	C 	0.59130 0.71322 0.51490 -0.14200
C 	C 	0.58720 0.70491 0.53937 0.04300
C 	C 	0.60030 0.71810 0.55900 -0.02100
C 	C 	0.61750 0.73950 0.55420 0.01800
C 	C 	0.62170 0.74780 0.52970 -0.04300
C 	C 	0.67500 0.68861 0.49610 0.01200
C 	C 	0.67230 0.69885 0.52010 -0.01300
C 	C 	0.69600 0.71032 0.53160 0.01000
C 	C 	0.72230 0.71156 0.51920 -0.01300
C 	C 	0.72500 0.70133 0.49530 0.02900
C 	C 	0.70130 0.68985 0.48370 -0.09400
C 	C 	0.45610 0.60180 0.37830 0.06900
C 	C 	0.45860 0.62310 0.39410 -0.07800
C 	C 	0.43580 0.62980 0.40970 0.02700
C 	C 	0.41070 0.61510 0.40970 -0.01600
C 	C 	0.40820 0.59380 0.39390 0.01900
C 	C 	0.43100 0.58710 0.37830 -0.05500
C 	C 	0.63370 0.69830 0.23960 0.06100
C 	C 	0.62440 0.72070 0.25170 -0.11600
C 	C 	0.61500 0.74280 0.23460 0.02400
C 	C 	0.61710 0.74150 0.20920 -0.01500
C 	C 	0.62610 0.71900 0.19950 0.01300
C 	C 	0.63700 0.69740 0.21460 -0.02600
C 	C 	0.72350 0.68940 0.22760 0.05400
C 	C 	0.73570 0.70100 0.20720 -0.06100
C 	C 	0.73530 0.68770 0.18280 0.01500
C 	C 	0.72430 0.66140 0.18100 -0.01300
C 	C 	0.71530 0.64830 0.20480 0.03200
C 	C 	0.71370 0.66350 0.22610 -0.10800
C 	C 	0.75020 0.72100 0.39710 0.05500
C 	C 	0.75900 0.74620 0.40230 -0.02100
C 	C 	0.78150 0.75060 0.41900 0.01200
C 	C 	0.79520 0.72980 0.43040 -0.01600
C 	C 	0.78640 0.70460 0.42520 0.03100
C 	C 	0.76400 0.70020 0.40850 -0.11900
C 	C 	0.80330 0.63030 0.28350 0.06800
C 	C 	0.82550 0.62090 0.26700 -0.02400
C 	C 	0.85420 0.61450 0.27600 0.00900
C 	C 	0.85890 0.61480 0.30420 -0.00800
C 	C 	0.83530 0.62550 0.32190 0.02600
C 	C 	0.80850 0.63250 0.30960 -0.10100
C 	C 	0.58880 0.80990 0.50290 0.05000
C 	C 	0.59470 0.80550 0.52960 -0.07700
C 	C 	0.62280 0.81290 0.53830 0.02200
C 	C 	0.64320 0.82130 0.52260 -0.01200
C 	C 	0.63760 0.82660 0.49630 0.01200
C 	C 	0.60970 0.81960 0.48570 -0.03200
Cd	Cd	0.60641 0.66020 0.39600 1.12500
Cd	Cd	0.54925 0.68212 0.34200 1.14000
Cd	Cd	0.66414 0.64207 0.34326 1.12500
Cd	Cd	0.60245 0.66161 0.29000 1.14200
Cd	Cd	0.62675 0.71301 0.33957 1.14200
Cd	Cd	0.52657 0.62532 0.39709 1.14600
Cd	Cd	0.66788 0.63937 0.45043 1.14300
Cd	Cd	0.68306 0.69062 0.28403 1.14800
Cd	Cd	0.72996 0.62238 0.29745 1.15100
Cd	Cd	0.54319 0.68222 0.44641 1.14800
Cd	Cd	0.62619 0.70710 0.45529 1.14800
Cd	Cd	0.68458 0.69271 0.40045 1.14100
Cd	Cd	0.73966 0.68492 0.34424 1.14900
Cd	Cd	0.57589 0.73504 0.39603 1.15100
S 	S 	0.64599 0.67894 0.36970 -1.15400
S 	S 	0.58784 0.69655 0.42338 -1.10000
S 	S 	0.56571 0.64419 0.36930 -1.15000
S 	S 	0.58547 0.70020 0.31284 -0.85600
S 	S 	0.70446 0.66057 0.31685 -1.09600
S 	S 	0.61439 0.75177 0.36749 -0.52200
S 	S 	0.70761 0.65897 0.42642 -0.85700
S 	S 	0.55987 0.64086 0.26721 -0.56300
S 	S 	0.64297 0.67094 0.25834 -0.52600
S 	S 	0.67157 0.72646 0.31476 -0.58100
S 	S 	0.50228 0.66467 0.32331 -0.53000
S 	S 	0.53232 0.71362 0.37614 -0.56800
Cd	Cd	0.76865 0.68955 0.27404 1.15600
Cd	Cd	0.56125 0.75789 0.46802 1.15900
S 	S 	0.72236 0.70763 0.25537 -0.51400
S 	S 	0.52641 0.72024 0.47369 -0.51300
S 	S 	0.65998 0.72937 0.42458 -0.55000
S 	S 	0.50359 0.66405 0.41949 -0.52100
S 	S 	0.49224 0.60729 0.36368 -0.56700
S 	S 	0.77042 0.63993 0.27151 -0.50900
S 	S 	0.61126 0.74521 0.48175 -0.52700
S 	S 	0.72211 0.71764 0.37500 -0.52400
S 	S 	0.55727 0.77229 0.42238 -0.49000
S 	S 	0.64310 0.66950 0.48162 -0.51400
S 	S 	0.77790 0.70679 0.31713 -0.51800
S 	S 	0.56630 0.64989 0.47629 -0.54700
S 	S 	0.55512 0.80085 0.49018 -0.47100
C 	C 	0.68640 0.75160 0.44380 0.06300
C 	C 	0.70490 0.77410 0.47910 0.01200
C 	C 	0.68370 0.75890 0.46840 -0.03800
C 	C 	0.70150 0.73330 0.45660 -0.07500
C 	C 	0.99490 0.22960 0.45900 0.05300
C 	C 	0.96990 0.23330 0.47330 -0.02800
C 	C 	0.94310 0.23870 0.46250 0.01100
C 	C 	0.94150 0.24270 0.43690 -0.01400
C 	C 	0.96510 0.24010 0.42200 0.03800
C 	C 	0.99120 0.23230 0.43300 -0.10800
C 	C 	0.26840 0.24040 0.31560 0.05900
C 	C 	0.26730 0.25420 0.29320 -0.10900
C 	C 	0.26130 0.28210 0.29310 0.02600
C 	C 	0.25750 0.29550 0.31330 -0.01800
C 	C 	0.25920 0.28060 0.33480 0.02400
C 	C 	0.26540 0.25420 0.33590 -0.05100
C 	C 	0.16170 0.25440 0.29920 0.08300
C 	C 	0.13520 0.26470 0.29670 -0.09200
C 	C 	0.12610 0.28960 0.28350 0.02500
C 	C 	0.14810 0.30020 0.27110 -0.01500
C 	C 	0.17730 0.29380 0.27460 0.01600
C 	C 	0.18390 0.27280 0.28950 -0.04200
C 	C 	0.97890 0.15290 0.44180 0.05800
C 	C 	0.95600 0.17020 0.44750 -0.02800
C 	C 	0.93530 0.16130 0.46480 0.00900
C 	C 	0.93640 0.13500 0.47650 -0.01300
C 	C 	0.96000 0.11910 0.47100 0.02200
C 	C 	0.98130 0.12830 0.45260 -0.09900
C 	C 	0.00670 0.23540 0.36260 0.08800
C 	C 	0.00970 0.26000 0.36850 -0.07800
C 	C 	0.98670 0.27800 0.35820 0.01900
C 	C 	0.96480 0.26680 0.34150 -0.01200
C 	C 	0.95970 0.23930 0.34110 0.01400
C 	C 	0.98160 0.22360 0.35600 -0.04500
C 	C 	0.99030 0.18660 0.30130 0.07700
C 	C 	0.00560 0.20530 0.29160 -0.11700
C 	C 	0.99440 0.22410 0.27630 0.03100
C 	C 	0.96500 0.22210 0.26710 -0.01900
C 	C 	0.94640 0.20350 0.27770 0.01200
C 	C 	0.96030 0.18450 0.29590 -0.03100
C 	C 	0.04460 0.16540 0.24700 0.07900
C 	C 	0.05840 0.18790 0.24160 -0.08800
C 	C 	0.04660 0.20640 0.22640 0.03200
C 	C 	0.01960 0.20130 0.21460 -0.02600
C 	C 	0.00750 0.17810 0.21930 0.03600
C 	C 	0.01690 0.16400 0.23700 -0.07600
C 	C 	0.09410 0.27400 0.34840 0.05100
C 	C 	0.07250 0.26580 0.33300 -0.11100
C 	C 	0.05560 0.28360 0.31650 0.01900
C 	C 	0.06370 0.31200 0.31890 -0.00900
C 	C 	0.08940 0.31860 0.33580 0.00700
C 	C 	0.10270 0.29940 0.35250 -0.01700
C 	C 	0.08470 0.29730 0.41820 0.04800
C 	C 	0.07200 0.32170 0.41170 -0.01800
C 	C 	0.09400 0.33910 0.40660 0.01100
C 	C 	0.12190 0.33620 0.41390 -0.01400
C 	C 	0.13280 0.31360 0.41800 0.02900
C 	C 	0.11260 0.29090 0.42130 -0.10100
C 	C 	0.03664 0.13717 0.49656 0.05700
C 	C 	0.03030 0.11084 0.49650 -0.08300
C 	C 	0.00810 0.10133 0.51142 0.02900
C 	C 	0.99230 0.11820 0.52641 -0.01600
C 	C 	0.99870 0.14450 0.52647 0.01900
C 	C 	0.02082 0.15400 0.51155 -0.05000
C 	C 	0.10850 0.23469 0.51000 0.10000
C 	C 	0.09130 0.21322 0.51490 -0.14200
C 	C 	0.08720 0.20491 0.53937 0.04300
C 	C 	0.10030 0.21810 0.55900 -0.02100
C 	C 	0.11750 0.23950 0.55420 0.01800
C 	C 	0.12170 0.24780 0.52970 -0.04300
C 	C 	0.17500 0.18861 0.49610 0.01200
C 	C 	0.17230 0.19885 0.52010 -0.01300
C 	C 	0.19600 0.21032 0.53160 0.01000
C 	C 	0.22230 0.21156 0.51920 -0.01300
C 	C 	0.22500 0.20133 0.49530 0.02900
C 	C 	0.20130 0.18985 0.48370 -0.09400
C 	C 	0.95610 0.10180 0.37830 0.06900
C 	C 	0.95860 0.12310 0.39410 -0.07800
C 	C 	0.93580 0.12980 0.40970 0.02700
C 	C 	0.91070 0.11510 0.40970 -0.01600
C 	C 	0.90820 0.09380 0.39390 0.01900
C 	C 	0.93100 0.08710 0.37830 -0.05500
C 	C 	0.13370 0.19830 0.23960 0.06100
C 	C 	0.12440 0.22070 0.25170 -0.11600
C 	C 	0.11500 0.24280 0.23460 0.02400
C 	C 	0.11710 0.24150 0.20920 -0.01500
C 	C 	0.12610 0.21900 0.19950 0.01300
C 	C 	0.13700 0.19740 0.21460 -0.02600
C 	C 	0.22350 0.18940 0.22760 0.05400
C 	C 	0.23570 0.20100 0.20720 -0.06100
C 	C 	0.23530 0.18770 0.18280 0.01500
C 	C 	0.22430 0.16140 0.18100 -0.01300
C 	C 	0.21530 0.14830 0.20480 0.03200
C 	C 	0.21370 0.16350 0.22610 -0.10800
C 	C 	0.25020 0.22100 0.39710 0.05500
C 	C 	0.25900 0.24620 0.40230 -0.02100
C 	C 	0.28150 0.25060 0.41900 0.01200
C 	C 	0.29520 0.22980 0.43040 -0.01600
C 	C 	0.28640 0.20460 0.42520 0.03100
C 	C 	0.26400 0.20020 0.40850 -0.11900
C 	C 	0.30330 0.13030 0.28350 0.06800
C 	C 	0.32550 0.12090 0.26700 -0.02400
C 	C 	0.35420 0.11450 0.27600 0.00900
C 	C 	0.35890 0.11480 0.30420 -0.00800
C 	C 	0.33530 0.12550 0.32190 0.02600
C 	C 	0.30850 0.13250 0.30960 -0.10100
C 	C 	0.08880 0.30990 0.50290 0.05000
C 	C 	0.09470 0.30550 0.52960 -0.07700
C 	C 	0.12280 0.31290 0.53830 0.02200
C 	C 	0.14320 0.32130 0.52260 -0.01200
C 	C 	0.13760 0.32660 0.49630 0.01200
C 	C 	0.10970 0.31960 0.48570 -0.03200
Cd	Cd	0.10641 0.16020 0.39600 1.12500
Cd	Cd	0.04925 0.18212 0.34200 1.14000
Cd	Cd	0.16414 0.14207 0.34326 1.12500
Cd	Cd	0.10245 0.16161 0.29000 1.14200
Cd	Cd	0.12675 0.21301 0.33957 1.14200
Cd	Cd	0.02657 0.12532 0.39709 1.14600
Cd	Cd	0.16788 0.13937 0.45043 1.14300
Cd	Cd	0.18306 0.19062 0.28403 1.14800
Cd	Cd	0.22996 0.12238 0.29745 1.15100
Cd	Cd	0.04319 0.18222 0.44641 1.14800
Cd	Cd	0.12619 0.20710 0.45529 1.14800
Cd	Cd	0.18458 0.19271 0.40045 1.14100
Cd	Cd	0.23966 0.18492 0.34424 1.14900
Cd	Cd	0.07589 0.23504 0.39603 1.15100
S 	S 	0.14599 0.17894 0.36970 -1.15400
S 	S 	0.08784 0.19655 0.42338 -1.10000
S 	S 	0.06571 0.14419 0.36930 -1.15000
S 	S 	0.08547 0.20020 0.31284 -0.85600
S 	S 	0.20446 0.16057 0.31685 -1.09600
S 	S 	0.11439 0.25177 0.36749 -0.52200
S 	S 	0.20761 0.15897 0.42642 -0.85700
S 	S 	0.05987 0.14086 0.26721 -0.56300
S 	S 	0.14297 0.17094 0.25834 -0.52600
S 	S 	0.17157 0.22646 0.31476 -0.58100
S 	S 	0.00228 0.16467 0.32331 -0.53000
S 	S 	0.03232 0.21362 0.37614 -0.56800
Cd	Cd	0.26865 0.18955 0.27404 1.15600
Cd	Cd	0.06125 0.25789 0.46802 1.15900
S 	S 	0.22236 0.20763 0.25537 -0.51400
S 	S 	0.02641 0.22024 0.47369 -0.51300
S 	S 	0.15998 0.22937 0.42458 -0.55000
S 	S 	0.00359 0.16405 0.41949 -0.52100
S 	S 	0.99224 0.10729 0.36368 -0.56700
S 	S 	0.27042 0.13993 0.27151 -0.50900
S 	S 	0.11126 0.24521 0.48175 -0.52700
S 	S 	0.22211 0.21764 0.37500 -0.52400
S 	S 	0.05727 0.27229 0.42238 -0.49000
S 	S 	0.14310 0.16950 0.48162 -0.51400
S 	S 	0.27790 0.20679 0.31713 -0.51800
S 	S 	0.06630 0.14989 0.47629 -0.54700
S 	S 	0.05512 0.30085 0.49018 -0.47100
C 	C 	0.18640 0.25160 0.44380 0.06300
C 	C 	0.20490 0.27410 0.47910 0.01200
C 	C 	0.18370 0.25890 0.46840 -0.03800
C 	C 	0.20150 0.23330 0.45660 -0.07500
C 	C 	0.99490 0.72960 0.95900 0.05300
C 	C 	0.96990 0.73330 0.97330 -0.02800
C 	C 	0.94310 0.73870 0.96250 0.01100
C 	C 	0.94150 0.74270 0.93690 -0.01400
C 	C 	0.96510 0.74010 0.92200 0.03800
C 	C 	0.99120 0.73230 0.93300 -0.10800
C 	C 	0.26840 0.74040 0.81560 0.05900
C 	C 	0.26730 0.75420 0.79320 -0.10900
C 	C 	0.26130 0.78210 0.79310 0.02600
C 	C 	0.25750 0.79550 0.81330 -0.01800
C 	C 	0.25920 0.78060 0.83480 0.02400
C 	C 	0.26540 0.75420 0.83590 -0.05100
C 	C 	0.16170 0.75440 0.79920 0.08300
C 	C 	0.13520 0.76470 0.79670 -0.09200
C 	C 	0.12610 0.78960 0.78350 0.02500
C 	C 	0.14810 0.80020 0.77110 -0.01500
C 	C 	0.17730 0.79380 0.77460 0.01600
C 	C 	0.18390 0.77280 0.78950 -0.04200
C 	C 	0.97890 0.65290 0.94180 0.05800
C 	C 	0.95600 0.67020 0.94750 -0.02800
C 	C 	0.93530 0.66130 0.96480 0.00900
C 	C 	0.93640 0.63500 0.97650 -0.01300
C 	C 	0.96000 0.61910 0.97100 0.02200
C 	C 	0.98130 0.62830 0.95260 -0.09900
C 	C 	0.00670 0.73540 0.86260 0.08800
C 	C 	0.00970 0.76000 0.86850 -0.07800
C 	C 	0.98670 0.77800 0.85820 0.01900
C 	C 	0.96480 0.76680 0.84150 -0.01200
C 	C 	0.95970 0.73930 0.84110 0.01400
C 	C 	0.98160 0.72360 0.85600 -0.04500
C 	C 	0.99030 0.68660 0.80130 0.07700
C 	C 	0.00560 0.70530 0.79160 -0.11700
C 	C 	0.99440 0.72410 0.77630 0.03100
C 	C 	0.96500 0.72210 0.76710 -0.01900
C 	C 	0.94640 0.70350 0.77770 0.01200
C 	C 	0.96030 0.68450 0.79590 -0.03100
C 	C 	0.04460 0.66540 0.74700 0.07900
C 	C 	0.05840 0.68790 0.74160 -0.08800
C 	C 	0.04660 0.70640 0.72640 0.03200
C 	C 	0.01960 0.70130 0.71460 -0.02600
C 	C 	0.00750 0.67810 0.71930 0.03600
C 	C 	0.01690 0.66400 0.73700 -0.07600
C 	C 	0.09410 0.77400 0.84840 0.05100
C 	C 	0.07250 0.76580 0.83300 -0.11100
C 	C 	0.05560 0.78360 0.81650 0.01900
C 	C 	0.06370 0.81200 0.81890 -0.00900
C 	C 	0.08940 0.81860 0.83580 0.00700
C 	C 	0.10270 0.79940 0.85250 -0.01700
C 	C 	0.08470 0.79730 0.91820 0.04800
C 	C 	0.07200 0.82170 0.91170 -0.01800
C 	C 	0.09400 0.83910 0.90660 0.01100
C 	C 	0.12190 0.83620 0.91390 -0.01400
C 	C 	0.13280 0.81360 0.91800 0.02900
C 	C 	0.11260 0.79090 0.92130 -0.10100
C 	C 	0.03664 0.63717 0.99656 0.05700
C 	C 	0.03030 0.61084 0.99650 -0.08300
C 	C 	0.00810 0.60133 0.01142 0.02900
C 	C 	0.99230 0.61820 0.02641 -0.01600
C 	C 	0.99870 0.64450 0.02647 0.01900
C 	C 	0.02082 0.65400 0.01155 -0.05000
C 	C 	0.10850 0.73469 0.01000 0.10000
C 	C 	0.09130 0.71322 0.01490 -0.14200
C 	C 	0.08720 0.70491 0.03937 0.04300
C 	C 	0.10030 0.71810 0.05900 -0.02100
C 	C 	0.11750 0.73950 0.05420 0.01800
C 	C 	0.12170 0.74780 0.02970 -0.04300
C 	C 	0.17500 0.68861 0.99610 0.01200
C 	C 	0.17230 0.69885 0.02010 -0.01300
C 	C 	0.19600 0.71032 0.03160 0.01000
C 	C 	0.22230 0.71156 0.01920 -0.01300
C 	C 	0.22500 0.70133 0.99530 0.02900
C 	C 	0.20130 0.68985 0.98370 -0.09400
C 	C 	0.95610 0.60180 0.87830 0.06900
C 	C 	0.95860 0.62310 0.89410 -0.07800
C 	C 	0.93580 0.62980 0.90970 0.02700
C 	C 	0.91070 0.61510 0.90970 -0.01600
C 	C 	0.90820 0.59380 0.89390 0.01900
C 	C 	0.93100 0.58710 0.87830 -0.05500
C 	C 	0.13370 0.69830 0.73960 0.06100
C 	C 	0.12440 0.72070 0.75170 -0.11600
C 	C 	0.11500 0.74280 0.73460 0.02400
C 	C 	0.11710 0.74150 0.70920 -0.01500
C 	C 	0.12610 0.71900 0.69950 0.01300
C 	C 	0.13700 0.69740 0.71460 -0.02600
C 	C 	0.22350 0.68940 0.72760 0.05400
C 	C 	0.23570 0.70100 0.70720 -0.06100
C 	C 	0.23530 0.68770 0.68280 0.01500
C 	C 	0.22430 0.66140 0.68100 -0.01300
C 	C 	0.21530 0.64830 0.70480 0.03200
C 	C 	0.21370 0.66350 0.72610 -0.10800
C 	C 	0.25020 0.72100 0.89710 0.05500
C 	C 	0.25900 0.74620 0.90230 -0.02100
C 	C 	0.28150 0.75060 0.91900 0.01200
C 	C 	0.29520 0.72980 0.93040 -0.01600
C 	C 	0.28640 0.70460 0.92520 0.03100
C 	C 	0.26400 0.70020 0.90850 -0.11900
C 	C 	0.30330 0.63030 0.78350 0.06800
C 	C 	0.32550 0.62090 0.76700 -0.02400
C 	C 	0.35420 0.61450 0.77600 0.00900
C 	C 	0.35890 0.61480 0.80420 -0.00800
C 	C 	0.33530 0.62550 0.82190 0.02600
C 	C 	0.30850 0.63250 0.80960 -0.10100
C 	C 	0.08880 0.80990 0.00290 0.05000
C 	C 	0.09470 0.80550 0.02960 -0.07700
C 	C 	0.12280 0.81290 0.03830 0.02200
C 	C 	0.14320 0.82130 0.02260 -0.01200
C 	C 	0.13760 0.82660 0.99630 0.01200
C 	C 	0.10970 0.81960 0.98570 -0.03200
Cd	Cd	0.10641 0.66020 0.89600 1.12500
Cd	Cd	0.04925 0.68212 0.84200 1.14000
Cd	Cd	0.16414 0.64207 0.84326 1.12500
Cd	Cd	0.10245 0.66161 0.79000 1.14200
Cd	Cd	0.12675 0.71301 0.83957 1.14200
Cd	Cd	0.02657 0.62532 0.89709 1.14600
Cd	Cd	0.16788 0.63937 0.95043 1.14300
Cd	Cd	0.18306 0.69062 0.78403 1.14800
Cd	Cd	0.22996 0.62238 0.79745 1.15100
Cd	Cd	0.04319 0.68222 0.94641 1.14800
Cd	Cd	0.12619 0.70710 0.95529 1.14800
Cd	Cd	0.18458 0.69271 0.90045 1.14100
Cd	Cd	0.23966 0.68492 0.84424 1.14900
Cd	Cd	0.07589 0.73504 0.89603 1.15100
S 	S 	0.14599 0.67894 0.86970 -1.15400
S 	S 	0.08784 0.69655 0.92338 -1.10000
S 	S 	0.06571 0.64419 0.86930 -1.15000
S 	S 	0.08547 0.70020 0.81284 -0.85600
S 	S 	0.20446 0.66057 0.81685 -1.09600
S 	S 	0.11439 0.75177 0.86749 -0.52200
S 	S 	0.20761 0.65897 0.92642 -0.85700
S 	S 	0.05987 0.64086 0.76721 -0.56300
S 	S 	0.14297 0.67094 0.75834 -0.52600
S 	S 	0.17157 0.72646 0.81476 -0.58100
S 	S 	0.00228 0.66467 0.82331 -0.53000
S 	S 	0.03232 0.71362 0.87614 -0.56800
Cd	Cd	0.26865 0.68955 0.77404 1.15600
Cd	Cd	0.06125 0.75789 0.96802 1.15900
S 	S 	0.22236 0.70763 0.75537 -0.51400
S 	S 	0.02641 0.72024 0.97369 -0.51300
S 	S 	0.15998 0.72937 0.92458 -0.55000
S 	S 	0.00359 0.66405 0.91949 -0.52100
S 	S 	0.99224 0.60729 0.86368 -0.56700
S 	S 	0.27042 0.63993 0.77151 -0.50900
S 	S 	0.11126 0.74521 0.98175 -0.52700
S 	S 	0.22211 0.71764 0.87500 -0.52400
S 	S 	0.05727 0.77229 0.92238 -0.49000
S 	S 	0.14310 0.66950 0.98162 -0.51400
S 	S 	0.27790 0.70679 0.81713 -0.51800
S 	S 	0.06630 0.64989 0.97629 -0.54700
S 	S 	0.05512 0.80085 0.99018 -0.47100
C 	C 	0.18640 0.75160 0.94380 0.06300
C 	C 	0.20490 0.77410 0.97910 0.01200
C 	C 	0.18370 0.75890 0.96840 -0.03800
C 	C 	0.20150 0.73330 0.95660 -0.07500
C 	C 	0.50510 0.47960 0.20900 0.05300
C 	C 	0.53010 0.48330 0.22330 -0.02800
C 	C 	0.55690 0.48870 0.21250 0.01100
C 	C 	0.55850 0.49270 0.18690 -0.01400
C 	C 	0.53490 0.49010 0.17200 0.03800
C 	C 	0.50880 0.48230 0.18300 -0.10800
C 	C 	0.23160 0.49040 0.06560 0.05900
C 	C 	0.23270 0.50420 0.04320 -0.10900
C 	C 	0.23870 0.53210 0.04310 0.02600
C 	C 	0.24250 0.54550 0.06330 -0.01800
C 	C 	0.24080 0.53060 0.08480 0.02400
C 	C 	0.23460 0.50420 0.08590 -0.05100
C 	C 	0.33830 0.50440 0.04920 0.08300
C 	C 	0.36480 0.51470 0.04670 -0.09200
C 	C 	0.37390 0.53960 0.03350 0.02500
C 	C 	0.35190 0.55020 0.02110 -0.01500
C 	C 	0.32270 0.54380 0.02460 0.01600
C 	C 	0.31610 0.52280 0.03950 -0.04200
C 	C 	0.52110 0.40290 0.19180 0.05800
C 	C 	0.54400 0.42020 0.19750 -0.02800
C 	C 	0.56470 0.41130 0.21480 0.00900
C 	C 	0.56360 0.38500 0.22650 -0.01300
C 	C 	0.54000 0.36910 0.22100 0.02200
C 	C 	0.51870 0.37830 0.20260 -0.09900
C 	C 	0.49330 0.48540 0.11260 0.08800
C 	C 	0.49030 0.51000 0.11850 -0.07800
C 	C 	0.51330 0.52800 0.10820 0.01900
C 	C 	0.53520 0.51680 0.09150 -0.01200
C 	C 	0.54030 0.48930 0.09110 0.01400
C 	C 	0.51840 0.47360 0.10600 -0.04500
C 	C 	0.50970 0.43660 0.05130 0.07700
C 	C 	0.49440 0.45530 0.04160 -0.11700
C 	C 	0.50560 0.47410 0.02630 0.03100
C 	C 	0.53500 0.47210 0.01710 -0.01900
C 	C 	0.55360 0.45350 0.02770 0.01200
C 	C 	0.53970 0.43450 0.04590 -0.03100
C 	C 	0.45540 0.41540 0.99700 0.07900
C 	C 	0.44160 0.43790 0.99160 -0.08800
C 	C 	0.45340 0.45640 0.97640 0.03200
C 	C 	0.48040 0.45130 0.96460 -0.02600
C 	C 	0.49250 0.42810 0.96930 0.03600
C 	C 	0.48310 0.41400 0.98700 -0.07600
C 	C 	0.40590 0.52400 0.09840 0.05100
C 	C 	0.42750 0.51580 0.08300 -0.11100
C 	C 	0.44440 0.53360 0.06650 0.01900
C 	C 	0.43630 0.56200 0.06890 -0.00900
C 	C 	0.41060 0.56860 0.08580 0.00700
C 	C 	0.39730 0.54940 0.10250 -0.01700
C 	C 	0.41530 0.54730 0.16820 0.04800
C 	C 	0.42800 0.57170 0.16170 -0.01800
C 	C 	0.40600 0.58910 0.15660 0.01100
C 	C 	0.37810 0.58620 0.16390 -0.01400
C 	C 	0.36720 0.56360 0.16800 0.02900
C 	C 	0.38740 0.54090 0.17130 -0.10100
C 	C 	0.46336 0.38717 0.24656 0.05700
C 	C 	0.46970 0.36084 0.24650 -0.08300
C 	C 	0.49190 0.35133 0.26142 0.02900
C 	C 	0.50770 0.36820 0.27641 -0.01600
C 	C 	0.50130 0.39450 0.27647 0.01900
C 	C 	0.47918 0.40400 0.26155 -0.05000
C 	C 	0.39150 0.48469 0.26000 0.10000
C 	C 	0.40870 0.46322 0.26490 -0.14200
C 	C 	0.41280 0.45491 0.28937 0.04300
C 	C 	0.39970 0.46810 0.30900 -0.02100
C 	C 	0.38250 0.48950 0.30420 0.01800
C 	C 	0.37830 0.49780 0.27970 -0.04300
C 	C 	0.32500 0.43861 0.24610 0.01200
C 	C 	0.32770 0.44885 0.27010 -0.01300
C 	C 	0.30400 0.46032 0.28160 0.01000
C 	C 	0.27770 0.46156 0.26920 -0.01300
C 	C 	0.27500 0.45133 0.24530 0.02900
C 	C 	0.29870 0.43985 0.23370 -0.09400
C 	C 	0.54390 0.35180 0.12830 0.06900
C 	C 	0.54140 0.37310 0.14410 -0.07800
C 	C 	0.56420 0.37980 0.15970 0.02700
C 	C 	0.58930 0.36510 0.15970 -0.01600
C 	C 	0.59180 0.34380 0.14390 0.01900
C 	C 	0.56900 0.33710 0.12830 -0.05500
C 	C 	0.36630 0.44830 0.98960 0.06100
C 	C 	0.37560 0.47070 0.00170 -0.11600
C 	C 	0.38500 0.49280 0.98460 0.02400
C 	C 	0.38290 0.49150 0.95920 -0.01500
C 	C 	0.37390 0.46900 0.94950 0.01300
C 	C 	0.36300 0.44740 0.96460 -0.02600
C 	C 	0.27650 0.43940 0.97760 0.05400
C 	C 	0.26430 0.45100 0.95720 -0.06100
C 	C 	0.26470 0.43770 0.93280 0.01500
C 	C 	0.27570 0.41140 0.93100 -0.01300
C 	C 	0.28470 0.39830 0.95480 0.03200
C 	C 	0.28630 0.41350 0.97610 -0.10800
C 	C 	0.24980 0.47100 0.14710 0.05500
C 	C 	0.24100 0.49620 0.15230 -0.02100
C 	C 	0.21850 0.50060 0.16900 0.01200
C 	C 	0.20480 0.47980 0.18040 -0.01600
C 	C 	0.21360 0.45460 0.17520 0.03100
C 	C 	0.23600 0.45020 0.15850 -0.11900
C 	C 	0.19670 0.38030 0.03350 0.06800
C 	C 	0.17450 0.37090 0.01700 -0.02400
C 	C 	0.14580 0.36450 0.02600 0.00900
C 	C 	0.14110 0.36480 0.05420 -0.00800
C 	C 	0.16470 0.37550 0.07190 0.02600
C 	C 	0.19150 0.38250 0.05960 -0.10100
C 	C 	0.41120 0.55990 0.25290 0.05000
C 	C 	0.40530 0.55550 0.27960 -0.07700
C 	C 	0.37720 0.56290 0.28830 0.02200
C 	C 	0.35680 0.57130 0.27260 -0.01200
C 	C 	0.36240 0.57660 0.24630 0.01200
C 	C 	0.39030 0.56960 0.23570 -0.03200
Cd	Cd	0.39359 0.41020 0.14600 1.12500
Cd	Cd	0.45075 0.43212 0.09200 1.14000
Cd	Cd	0.33586 0.39207 0.09326 1.12500
Cd	Cd	0.39755 0.41161 0.04000 1.14200
Cd	Cd	0.37325 0.46301 0.08957 1.14200
Cd	Cd	0.47343 0.37532 0.14709 1.14600
Cd	Cd	0.33212 0.38937 0.20043 1.14300
Cd	Cd	0.31694 0.44062 0.03403 1.14800
Cd	Cd	0.27004 0.37238 0.04745 1.15100
Cd	Cd	0.45681 0.43222 0.19641 1.14800
Cd	Cd	0.37381 0.45710 0.20529 1.14800
Cd	Cd	0.31542 0.44271 0.15045 1.14100
Cd	Cd	0.26034 0.43492 0.09424 1.14900
Cd	Cd	0.42411 0.48504 0.14603 1.15100
S 	S 	0.35401 0.42894 0.11970 -1.15400
S 	S 	0.41216 0.44655 0.17338 -1.10000
S 	S 	0.43429 0.39419 0.11930 -1.15000
S 	S 	0.41453 0.45020 0.06284 -0.85600
S 	S 	0.29554 0.41057 0.06685 -1.09600
S 	S 	0.38561 0.50177 0.11749 -0.52200
S 	S 	0.29239 0.40897 0.17642 -0.85700
S 	S 	0.44013 0.39086 0.01721 -0.56300
S 	S 	0.35703 0.42094 0.00834 -0.52600
S 	S 	0.32843 0.47646 0.06476 -0.58100
S 	S 	0.49772 0.41467 0.07331 -0.53000
S 	S 	0.46768 0.46362 0.12614 -0.56800
Cd	Cd	0.23135 0.43955 0.02404 1.15600
Cd	Cd	0.43875 0.50789 0.21802 1.15900
S 	S 	0.27764 0.45763 0.00537 -0.51400
S 	S 	0.47359 0.47024 0.22369 -0.51300
S 	S 	0.34002 0.47937 0.17458 -0.55000
S 	S 	0.49641 0.41405 0.16949 -0.52100
S 	S 	0.50776 0.35729 0.11368 -0.56700
S 	S 	0.22958 0.38993 0.02151 -0.50900
S 	S 	0.38874 0.49521 0.23175 -0.52700
S 	S 	0.27789 0.46764 0.12500 -0.52400
S 	S 	0.44273 0.52229 0.17238 -0.49000
S 	S 	0.35690 0.41950 0.23162 -0.51400
S 	S 	0.22210 0.45679 0.06713 -0.51800
S 	S 	0.43370 0.39989 0.22629 -0.54700
S 	S 	0.44488 0.55085 0.24018 -0.47100
C 	C 	0.31360 0.50160 0.19380 0.06300
C 	C 	0.29510 0.52410 0.22910 0.01200
C 	C 	0.31630 0.50890 0.21840 -0.03800
C 	C 	0.29850 0.48330 0.20660 -0.07500
C 	C 	0.50510 0.97960 0.70900 0.05300
C 	C 	0.53010 0.98330 0.72330 -0.02800
C 	C 	0.55690 0.98870 0.71250 0.01100
C 	C 	0.55850 0.99270 0.68690 -0.01400
C 	C 	0.53490 0.99010 0.67200 0.03800
C 	C 	0.50880 0.98230 0.68300 -0.10800
C 	C 	0.23160 0.99040 0.56560 0.05900
C 	C 	0.23270 0.00420 0.54320 -0.10900
C 	C 	0.23870 0.03210 0.54310 0.02600
C 	C 	0.24250 0.04550 0.56330 -0.01800
C 	C 	0.24080 0.03060 0.58480 0.02400
C 	C 	0.23460 0.00420 0.58590 -0.05100
C 	C 	0.33830 0.00440 0.54920 0.08300
C 	C 	0.36480 0.01470 0.54670 -0.09200
C 	C 	0.37390 0.03960 0.53350 0.02500
C 	C 	0.35190 0.05020 0.52110 -0.01500
C 	C 	0.32270 0.04380 0.52460 0.01600
C 	C 	0.31610 0.02280 0.53950 -0.04200
C 	C 	0.52110 0.90290 0.69180 0.05800
C 	C 	0.54400 0.92020 0.69750 -0.02800
C 	C 	0.56470 0.91130 0.71480 0.00900
C 	C 	0.56360 0.88500 0.72650 -0.01300
C 	C 	0.54000 0.86910 0.72100 0.02200
C 	C 	0.51870 0.87830 0.70260 -0.09900
C 	C 	0.49330 0.98540 0.61260 0.08800
C 	C 	0.49030 0.01000 0.61850 -0.07800
C 	C 	0.51330 0.02800 0.60820 0.01900
C 	C 	0.53520 0.01680 0.59150 -0.01200
C 	C 	0.54030 0.98930 0.59110 0.01400
C 	C 	0.51840 0.97360 0.60600 -0.04500
C 	C 	0.50970 0.93660 0.55130 0.07700
C 	C 	0.49440 0.95530 0.54160 -0.11700
C 	C 	0.50560 0.97410 0.52630 0.03100
C 	C 	0.53500 0.97210 0.51710 -0.01900
C 	C 	0.55360 0.95350 0.52770 0.01200
C 	C 	0.53970 0.93450 0.54590 -0.03100
C 	C 	0.45540 0.91540 0.49700 0.07900
C 	C 	0.44160 0.93790 0.49160 -0.08800
C 	C 	0.45340 0.95640 0.47640 0.03200
C 	C 	0.48040 0.95130 0.46460 -0.02600
C 	C 	0.49250 0.92810 0.46930 0.03600
C 	C 	0.48310 0.91400 0.48700 -0.07600
C 	C 	0.40590 0.02400 0.59840 0.05100
C 	C 	0.42750 0.01580 0.58300 -0.11100
C 	C 	0.44440 0.03360 0.56650 0.01900
C 	C 	0.43630 0.06200 0.56890 -0.00900
C 	C 	0.41060 0.06860 0.58580 0.00700
C 	C 	0.39730 0.04940 0.60250 -0.01700
C 	C 	0.41530 0.04730 0.66820 0.04800
C 	C 	0.42800 0.07170 0.66170 -0.01800
C 	C 	0.40600 0.08910 0.65660 0.01100
C 	C 	0.37810 0.08620 0.66390 -0.01400
C 	C 	0.36720 0.06360 0.66800 0.02900
C 	C 	0.38740 0.04090 0.67130 -0.10100
C 	C 	0.46336 0.88717 0.74656 0.05700
C 	C 	0.46970 0.86084 0.74650 -0.08300
C 	C 	0.49190 0.85133 0.76142 0.02900
C 	C 	0.50770 0.86820 0.77641 -0.01600
C 	C 	0.50130 0.89450 0.77647 0.01900
C 	C 	0.47918 0.90400 0.76155 -0.05000
C 	C 	0.39150 0.98469 0.76000 0.10000
C 	C 	0.40870 0.96322 0.76490 -0.14200
C 	C 	0.41280 0.95491 0.78937 0.04300
C 	C 	0.39970 0.96810 0.80900 -0.02100
C 	C 	0.38250 0.98950 0.80420 0.01800
C 	C 	0.37830 0.99780 0.77970 -0.04300
C 	C 	0.32500 0.93861 0.74610 0.01200
C 	C 	0.32770 0.94885 0.77010 -0.01300
C 	C 	0.30400 0.96032 0.78160 0.01000
C 	C 	0.27770 0.96156 0.76920 -0.01300
C 	C 	0.27500 0.95133 0.74530 0.02900
C 	C 	0.29870 0.93985 0.73370 -0.09400
C 	C 	0.54390 0.85180 0.62830 0.06900
C 	C 	0.54140 0.87310 0.64410 -0.07800
C 	C 	0.56420 0.87980 0.65970 0.02700
C 	C 	0.58930 0.86510 0.65970 -0.01600
C 	C 	0.59180 0.84380 0.64390 0.01900
C 	C 	0.56900 0.83710 0.62830 -0.05500
C 	C 	0.36630 0.94830 0.48960 0.06100
C 	C 	0.37560 0.97070 0.50170 -0.11600
C 	C 	0.38500 0.99280 0.48460 0.02400
C 	C 	0.38290 0.99150 0.45920 -0.01500
C 	C 	0.37390 0.96900 0.44950 0.01300
C 	C 	0.36300 0.94740 0.46460 -0.02600
C 	C 	0.27650 0.93940 0.47760 0.05400
C 	C 	0.26430 0.95100 0.45720 -0.06100
C 	C 	0.26470 0.93770 0.43280 0.01500
C 	C 	0.27570 0.91140 0.43100 -0.01300
C 	C 	0.28470 0.89830 0.45480 0.03200
C 	C 	0.28630 0.91350 0.47610 -0.10800
C 	C 	0.24980 0.97100 0.64710 0.05500
C 	C 	0.24100 0.99620 0.65230 -0.02100
C 	C 	0.21850 0.00060 0.66900 0.01200
C 	C 	0.20480 0.97980 0.68040 -0.01600
C 	C 	0.21360 0.95460 0.67520 0.03100
C 	C 	0.23600 0.95020 0.65850 -0.11900
C 	C 	0.19670 0.88030 0.53350 0.06800
C 	C 	0.17450 0.87090 0.51700 -0.02400
C 	C 	0.14580 0.86450 0.52600 0.00900
C 	C 	0.14110 0.86480 0.55420 -0.00800
C 	C 	0.16470 0.87550 0.57190 0.02600
C 	C 	0.19150 0.88250 0.55960 -0.10100
C 	C 	0.41120 0.05990 0.75290 0.05000
C 	C 	0.40530 0.05550 0.77960 -0.07700
C 	C 	0.37720 0.06290 0.78830 0.02200
C 	C 	0.35680 0.07130 0.77260 -0.01200
C 	C 	0.36240 0.07660 0.74630 0.01200
C 	C 	0.39030 0.06960 0.73570 -0.03200
Cd	Cd	0.39359 0.91020 0.64600 1.12500
Cd	Cd	0.45075 0.93212 0.59200 1.14000
Cd	Cd	0.33586 0.89207 0.59326 1.12500
Cd	Cd	0.39755 0.91161 0.54000 1.14200
Cd	Cd	0.37325 0.96301 0.58957 1.14200
Cd	Cd	0.47343 0.87532 0.64709 1.14600
Cd	Cd	0.33212 0.88937 0.70043 1.14300
Cd	Cd	0.31694 0.94062 0.53403 1.14800
Cd	Cd	0.27004 0.87238 0.54745 1.15100
Cd	Cd	0.45681 0.93222 0.69641 1.14800
Cd	Cd	0.37381 0.95710 0.70529 1.14800
Cd	Cd	0.31542 0.94271 0.65045 1.14100
Cd	Cd	0.26034 0.93492 0.59424 1.14900
Cd	Cd	0.42411 0.98504 0.64603 1.15100
S 	S 	0.35401 0.92894 0.61970 -1.15400
S 	S 	0.41216 0.94655 0.67338 -1.10000
S 	S 	0.43429 0.89419 0.61930 -1.15000
S 	S 	0.41453 0.95020 0.56284 -0.85600
S 	S 	0.29554 0.91057 0.56685 -1.09600
S 	S 	0.38561 0.00177 0.61749 -0.52200
S 	S 	0.29239 0.90897 0.67642 -0.85700
S 	S 	0.44013 0.89086 0.51721 -0.56300
S 	S 	0.35703 0.92094 0.50834 -0.52600
S 	S 	0.32843 0.97646 0.56476 -0.58100
S 	S 	0.49772 0.91467 0.57331 -0.53000
S 	S 	0.46768 0.96362 0.62614 -0.56800
Cd	Cd	0.23135 0.93955 0.52404 1.15600
Cd	Cd	0.43875 0.00789 0.71802 1.15900
S 	S 	0.27764 0.95763 0.50537 -0.51400
S 	S 	0.47359 0.97024 0.72369 -0.51300
S 	S 	0.34002 0.97937 0.67458 -0.55000
S 	S 	0.49641 0.91405 0.66949 -0.52100
S 	S 	0.50776 0.85729 0.61368 -0.56700
S 	S 	0.22958 0.88993 0.52151 -0.50900
S 	S 	0.38874 0.99521 0.73175 -0.52700
S 	S 	0.27789 0.96764 0.62500 -0.52400
S 	S 	0.44273 0.02229 0.67238 -0.49000
S 	S 	0.35690 0.91950 0.73162 -0.51400
S 	S 	0.22210 0.95679 0.56713 -0.51800
S 	S 	0.43370 0.89989 0.72629 -0.54700
S 	S 	0.44488 0.05085 0.74018 -0.47100
C 	C 	0.31360 0.00160 0.69380 0.06300
C 	C 	0.29510 0.02410 0.72910 0.01200
C 	C 	0.31630 0.00890 0.71840 -0.03800
C 	C 	0.29850 0.98330 0.70660 -0.07500
C 	C 	0.00510 0.47960 0.70900 0.05300
C 	C 	0.03010 0.48330 0.72330 -0.02800
C 	C 	0.05690 0.48870 0.71250 0.01100
C 	C 	0.05850 0.49270 0.68690 -0.01400
C 	C 	0.03490 0.49010 0.67200 0.03800
C 	C 	0.00880 0.48230 0.68300 -0.10800
C 	C 	0.73160 0.49040 0.56560 0.05900
C 	C 	0.73270 0.50420 0.54320 -0.10900
C 	C 	0.73870 0.53210 0.54310 0.02600
C 	C 	0.74250 0.54550 0.56330 -0.01800
C 	C 	0.74080 0.53060 0.58480 0.02400
C 	C 	0.73460 0.50420 0.58590 -0.05100
C 	C 	0.83830 0.50440 0.54920 0.08300
C 	C 	0.86480 0.51470 0.54670 -0.09200
C 	C 	0.87390 0.53960 0.53350 0.02500
C 	C 	0.85190 0.55020 0.52110 -0.01500
C 	C 	0.82270 0.54380 0.52460 0.01600
C 	C 	0.81610 0.52280 0.53950 -0.04200
C 	C 	0.02110 0.40290 0.69180 0.05800
C 	C 	0.04400 0.42020 0.69750 -0.02800
C 	C 	0.06470 0.41130 0.71480 0.00900
C 	C 	0.06360 0.38500 0.72650 -0.01300
C 	C 	0.04000 0.36910 0.72100 0.02200
C 	C 	0.01870 0.37830 0.70260 -0.09900
C 	C 	0.99330 0.48540 0.61260 0.08800
C 	C 	0.99030 0.51000 0.61850 -0.07800
C 	C 	0.01330 0.52800 0.60820 0.01900
C 	C 	0.03520 0.51680 0.59150 -0.01200
C 	C 	0.04030 0.48930 0.59110 0.01400
C 	C 	0.01840 0.47360 0.60600 -0.04500
C 	C 	0.00970 0.43660 0.55130 0.07700
C 	C 	0.99440 0.45530 0.54160 -0.11700
C 	C 	0.00560 0.47410 0.52630 0.03100
C 	C 	0.03500 0.47210 0.51710 -0.01900
C 	C 	0.05360 0.45350 0.52770 0.01200
C 	C 	0.03970 0.43450 0.54590 -0.03100
C 	C 	0.95540 0.41540 0.49700 0.07900
C 	C 	0.94160 0.43790 0.49160 -0.08800
C 	C 	0.95340 0.45640 0.47640 0.03200
C 	C 	0.98040 0.45130 0.46460 -0.02600
C 	C 	0.99250 0.42810 0.46930 0.03600
C 	C 	0.98310 0.41400 0.48700 -0.07600
C 	C 	0.90590 0.52400 0.59840 0.05100
C 	C 	0.92750 0.51580 0.58300 -0.11100
C 	C 	0.94440 0.53360 0.56650 0.01900
C 	C 	0.93630 0.56200 0.56890 -0.00900
C 	C 	0.91060 0.56860 0.58580 0.00700
C 	C 	0.89730 0.54940 0.60250 -0.01700
C 	C 	0.91530 0.54730 0.66820 0.04800
C 	C 	0.92800 0.57170 0.66170 -0.01800
C 	C 	0.90600 0.58910 0.65660 0.01100
C 	C 	0.87810 0.58620 0.66390 -0.01400
C 	C 	0.86720 0.56360 0.66800 0.02900
C 	C 	0.88740 0.54090 0.67130 -0.10100
C 	C 	0.96336 0.38717 0.74656 0.05700
C 	C 	0.96970 0.36084 0.74650 -0.08300
C 	C 	0.99190 0.35133 0.76142 0.02900
C 	C 	0.00770 0.36820 0.77641 -0.01600
C 	C 	0.00130 0.39450 0.77647 0.01900
C 	C 	0.97918 0.40400 0.76155 -0.05000
C 	C 	0.89150 0.48469 0.76000 0.10000
C 	C 	0.90870 0.46322 0.76490 -0.14200
C 	C 	0.91280 0.45491 0.78937 0.04300
C 	C 	0.89970 0.46810 0.80900 -0.02100
C 	C 	0.88250 0.48950 0.80420 0.01800
C 	C 	0.87830 0.49780 0.77970 -0.04300
C 	C 	0.82500 0.43861 0.74610 0.01200
C 	C 	0.82770 0.44885 0.77010 -0.01300
C 	C 	0.80400 0.46032 0.78160 0.01000
C 	C 	0.77770 0.46156 0.76920 -0.01300
C 	C 	0.77500 0.45133 0.74530 0.02900
C 	C 	0.79870 0.43985 0.73370 -0.09400
C 	C 	0.04390 0.35180 0.62830 0.06900
C 	C 	0.04140 0.37310 0.64410 -0.07800
C 	C 	0.06420 0.37980 0.65970 0.02700
C 	C 	0.08930 0.36510 0.65970 -0.01600
C 	C 	0.09180 0.34380 0.64390 0.01900
C 	C 	0.06900 0.33710 0.62830 -0.05500
C 	C 	0.86630 0.44830 0.48960 0.06100
C 	C 	0.87560 0.47070 0.50170 -0.11600
C 	C 	0.88500 0.49280 0.48460 0.02400
C 	C 	0.88290 0.49150 0.45920 -0.01500
C 	C 	0.87390 0.46900 0.44950 0.01300
C 	C 	0.86300 0.44740 0.46460 -0.02600
C 	C 	0.77650 0.43940 0.47760 0.05400
C 	C 	0.76430 0.45100 0.45720 -0.06100
C 	C 	0.76470 0.43770 0.43280 0.01500
C 	C 	0.77570 0.41140 0.43100 -0.01300
C 	C 	0.78470 0.39830 0.45480 0.03200
C 	C 	0.78630 0.41350 0.47610 -0.10800
C 	C 	0.74980 0.47100 0.64710 0.05500
C 	C 	0.74100 0.49620 0.65230 -0.02100
C 	C 	0.71850 0.50060 0.66900 0.01200
C 	C 	0.70480 0.47980 0.68040 -0.01600
C 	C 	0.71360 0.45460 0.67520 0.03100
C 	C 	0.73600 0.45020 0.65850 -0.11900
C 	C 	0.69670 0.38030 0.53350 0.06800
C 	C 	0.67450 0.37090 0.51700 -0.02400
C 	C 	0.64580 0.36450 0.52600 0.00900
C 	C 	0.64110 0.36480 0.55420 -0.00800
C 	C 	0.66470 0.37550 0.57190 0.02600
C 	C 	0.69150 0.38250 0.55960 -0.10100
C 	C 	0.91120 0.55990 0.75290 0.05000
C 	C 	0.90530 0.55550 0.77960 -0.07700
C 	C 	0.87720 0.56290 0.78830 0.02200
C 	C 	0.85680 0.57130 0.77260 -0.01200
C 	C 	0.86240 0.57660 0.74630 0.01200
C 	C 	0.89030 0.56960 0.73570 -0.03200
Cd	Cd	0.89359 0.41020 0.64600 1.12500
Cd	Cd	0.95075 0.43212 0.59200 1.14000
Cd	Cd	0.83586 0.39207 0.59326 1.12500
Cd	Cd	0.89755 0.41161 0.54000 1.14200
Cd	Cd	0.87325 0.46301 0.58957 1.14200
Cd	Cd	0.97343 0.37532 0.64709 1.14600
Cd	Cd	0.83212 0.38937 0.70043 1.14300
Cd	Cd	0.81694 0.44062 0.53403 1.14800
Cd	Cd	0.77004 0.37238 0.54745 1.15100
Cd	Cd	0.95681 0.43222 0.69641 1.14800
Cd	Cd	0.87381 0.45710 0.70529 1.14800
Cd	Cd	0.81542 0.44271 0.65045 1.14100
Cd	Cd	0.76034 0.43492 0.59424 1.14900
Cd	Cd	0.92411 0.48504 0.64603 1.15100
S 	S 	0.85401 0.42894 0.61970 -1.15400
S 	S 	0.91216 0.44655 0.67338 -1.10000
S 	S 	0.93429 0.39419 0.61930 -1.15000
S 	S 	0.91453 0.45020 0.56284 -0.85600
S 	S 	0.79554 0.41057 0.56685 -1.09600
S 	S 	0.88561 0.50177 0.61749 -0.52200
S 	S 	0.79239 0.40897 0.67642 -0.85700
S 	S 	0.94013 0.39086 0.51721 -0.56300
S 	S 	0.85703 0.42094 0.50834 -0.52600
S 	S 	0.82843 0.47646 0.56476 -0.58100
S 	S 	0.99772 0.41467 0.57331 -0.53000
S 	S 	0.96768 0.46362 0.62614 -0.56800
Cd	Cd	0.73135 0.43955 0.52404 1.15600
Cd	Cd	0.93875 0.50789 0.71802 1.15900
S 	S 	0.77764 0.45763 0.50537 -0.51400
S 	S 	0.97359 0.47024 0.72369 -0.51300
S 	S 	0.84002 0.47937 0.67458 -0.55000
S 	S 	0.99641 0.41405 0.66949 -0.52100
S 	S 	0.00776 0.35729 0.61368 -0.56700
S 	S 	0.72958 0.38993 0.52151 -0.50900
S 	S 	0.88874 0.49521 0.73175 -0.52700
S 	S 	0.77789 0.46764 0.62500 -0.52400
S 	S 	0.94273 0.52229 0.67238 -0.49000
S 	S 	0.85690 0.41950 0.73162 -0.51400
S 	S 	0.72210 0.45679 0.56713 -0.51800
S 	S 	0.93370 0.39989 0.72629 -0.54700
S 	S 	0.94488 0.55085 0.74018 -0.47100
C 	C 	0.81360 0.50160 0.69380 0.06300
C 	C 	0.79510 0.52410 0.72910 0.01200
C 	C 	0.81630 0.50890 0.71840 -0.03800
C 	C 	0.79850 0.48330 0.70660 -0.07500
C 	C 	0.00510 0.97960 0.20900 0.05300
C 	C 	0.03010 0.98330 0.22330 -0.02800
C 	C 	0.05690 0.98870 0.21250 0.01100
C 	C 	0.05850 0.99270 0.18690 -0.01400
C 	C 	0.03490 0.99010 0.17200 0.03800
C 	C 	0.00880 0.98230 0.18300 -0.10800
C 	C 	0.73160 0.99040 0.06560 0.05900
C 	C 	0.73270 0.00420 0.04320 -0.10900
C 	C 	0.73870 0.03210 0.04310 0.02600
C 	C 	0.74250 0.04550 0.06330 -0.01800
C 	C 	0.74080 0.03060 0.08480 0.02400
C 	C 	0.73460 0.00420 0.08590 -0.05100
C 	C 	0.83830 0.00440 0.04920 0.08300
C 	C 	0.86480 0.01470 0.04670 -0.09200
C 	C 	0.87390 0.03960 0.03350 0.02500
C 	C 	0.85190 0.05020 0.02110 -0.01500
C 	C 	0.82270 0.04380 0.02460 0.01600
C 	C 	0.81610 0.02280 0.03950 -0.04200
C 	C 	0.02110 0.90290 0.19180 0.05800
C 	C 	0.04400 0.92020 0.19750 -0.02800
C 	C 	0.06470 0.91130 0.21480 0.00900
C 	C 	0.06360 0.88500 0.22650 -0.01300
C 	C 	0.04000 0.86910 0.22100 0.02200
C 	C 	0.01870 0.87830 0.20260 -0.09900
C 	C 	0.99330 0.98540 0.11260 0.08800
C 	C 	0.99030 0.01000 0.11850 -0.07800
C 	C 	0.01330 0.02800 0.10820 0.01900
C 	C 	0.03520 0.01680 0.09150 -0.01200
C 	C 	0.04030 0.98930 0.09110 0.01400
C 	C 	0.01840 0.97360 0.10600 -0.04500
C 	C 	0.00970 0.93660 0.05130 0.07700
C 	C 	0.99440 0.95530 0.04160 -0.11700
C 	C 	0.00560 0.97410 0.02630 0.03100
C 	C 	0.03500 0.97210 0.01710 -0.01900
C 	C 	0.05360 0.95350 0.02770 0.01200
C 	C 	0.03970 0.93450 0.04590 -0.03100
C 	C 	0.95540 0.91540 0.99700 0.07900
C 	C 	0.94160 0.93790 0.99160 -0.08800
C 	C 	0.95340 0.95640 0.97640 0.03200
C 	C 	0.98040 0.95130 0.96460 -0.02600
C 	C 	0.99250 0.92810 0.96930 0.03600
C 	C 	0.98310 0.91400 0.98700 -0.07600
C 	C 	0.90590 0.02400 0.09840 0.05100
C 	C 	0.92750 0.01580 0.08300 -0.11100
C 	C 	0.94440 0.03360 0.06650 0.01900
C 	C 	0.93630 0.06200 0.06890 -0.00900
C 	C 	0.91060 0.06860 0.08580 0.00700
C 	C 	0.89730 0.04940 0.10250 -0.01700
C 	C 	0.91530 0.04730 0.16820 0.04800
C 	C 	0.92800 0.07170 0.16170 -0.01800
C 	C 	0.90600 0.08910 0.15660 0.01100
C 	C 	0.87810 0.08620 0.16390 -0.01400
C 	C 	0.86720 0.06360 0.16800 0.02900
C 	C 	0.88740 0.04090 0.17130 -0.10100
C 	C 	0.96336 0.88717 0.24656 0.05700
C 	C 	0.96970 0.86084 0.24650 -0.08300
C 	C 	0.99190 0.85133 0.26142 0.02900
C 	C 	0.00770 0.86820 0.27641 -0.01600
C 	C 	0.00130 0.89450 0.27647 0.01900
C 	C 	0.97918 0.90400 0.26155 -0.05000
C 	C 	0.89150 0.98469 0.26000 0.10000
C 	C 	0.90870 0.96322 0.26490 -0.14200
C 	C 	0.91280 0.95491 0.28937 0.04300
C 	C 	0.89970 0.96810 0.30900 -0.02100
C 	C 	0.88250 0.98950 0.30420 0.01800
C 	C 	0.87830 0.99780 0.27970 -0.04300
C 	C 	0.82500 0.93861 0.24610 0.01200
C 	C 	0.82770 0.94885 0.27010 -0.01300
C 	C 	0.80400 0.96032 0.28160 0.01000
C 	C 	0.77770 0.96156 0.26920 -0.01300
C 	C 	0.77500 0.95133 0.24530 0.02900
C 	C 	0.79870 0.93985 0.23370 -0.09400
C 	C 	0.04390 0.85180 0.12830 0.06900
C 	C 	0.04140 0.87310 0.14410 -0.07800
C 	C 	0.06420 0.87980 0.15970 0.02700
C 	C 	0.08930 0.86510 0.15970 -0.01600
C 	C 	0.09180 0.84380 0.14390 0.01900
C 	C 	0.06900 0.83710 0.12830 -0.05500
C 	C 	0.86630 0.94830 0.98960 0.06100
C 	C 	0.87560 0.97070 0.00170 -0.11600
C 	C 	0.88500 0.99280 0.98460 0.02400
C 	C 	0.88290 0.99150 0.95920 -0.01500
C 	C 	0.87390 0.96900 0.94950 0.01300
C 	C 	0.86300 0.94740 0.96460 -0.02600
C 	C 	0.77650 0.93940 0.97760 0.05400
C 	C 	0.76430 0.95100 0.95720 -0.06100
C 	C 	0.76470 0.93770 0.93280 0.01500
C 	C 	0.77570 0.91140 0.93100 -0.01300
C 	C 	0.78470 0.89830 0.95480 0.03200
C 	C 	0.78630 0.91350 0.97610 -0.10800
C 	C 	0.74980 0.97100 0.14710 0.05500
C 	C 	0.74100 0.99620 0.15230 -0.02100
C 	C 	0.71850 0.00060 0.16900 0.01200
C 	C 	0.70480 0.97980 0.18040 -0.01600
C 	C 	0.71360 0.95460 0.17520 0.03100
C 	C 	0.73600 0.95020 0.15850 -0.11900
C 	C 	0.69670 0.88030 0.03350 0.06800
C 	C 	0.67450 0.87090 0.01700 -0.02400
C 	C 	0.64580 0.86450 0.02600 0.00900
C 	C 	0.64110 0.86480 0.05420 -0.00800
C 	C 	0.66470 0.87550 0.07190 0.02600
C 	C 	0.69150 0.88250 0.05960 -0.10100
C 	C 	0.91120 0.05990 0.25290 0.05000
C 	C 	0.90530 0.05550 0.27960 -0.07700
C 	C 	0.87720 0.06290 0.28830 0.02200
C 	C 	0.85680 0.07130 0.27260 -0.01200
C 	C 	0.86240 0.07660 0.24630 0.01200
C 	C 	0.89030 0.06960 0.23570 -0.03200
Cd	Cd	0.89359 0.91020 0.14600 1.12500
Cd	Cd	0.95075 0.93212 0.09200 1.14000
Cd	Cd	0.83586 0.89207 0.09326 1.12500
Cd	Cd	0.89755 0.91161 0.04000 1.14200
Cd	Cd	0.87325 0.96301 0.08957 1.14200
Cd	Cd	0.97343 0.87532 0.14709 1.14600
Cd	Cd	0.83212 0.88937 0.20043 1.14300
Cd	Cd	0.81694 0.94062 0.03403 1.14800
Cd	Cd	0.77004 0.87238 0.04745 1.15100
Cd	Cd	0.95681 0.93222 0.19641 1.14800
Cd	Cd	0.87381 0.95710 0.20529 1.14800
Cd	Cd	0.81542 0.94271 0.15045 1.14100
Cd	Cd	0.76034 0.93492 0.09424 1.14900
Cd	Cd	0.92411 0.98504 0.14603 1.15100
S 	S 	0.85401 0.92894 0.11970 -1.15400
S 	S 	0.91216 0.94655 0.17338 -1.10000
S 	S 	0.93429 0.89419 0.11930 -1.15000
S 	S 	0.91453 0.95020 0.06284 -0.85600
S 	S 	0.79554 0.91057 0.06685 -1.09600
S 	S 	0.88561 0.00177 0.11749 -0.52200
S 	S 	0.79239 0.90897 0.17642 -0.85700
S 	S 	0.94013 0.89086 0.01721 -0.56300
S 	S 	0.85703 0.92094 0.00834 -0.52600
S 	S 	0.82843 0.97646 0.06476 -0.58100
S 	S 	0.99772 0.91467 0.07331 -0.53000
S 	S 	0.96768 0.96362 0.12614 -0.56800
Cd	Cd	0.73135 0.93955 0.02404 1.15600
Cd	Cd	0.93875 0.00789 0.21802 1.15900
S 	S 	0.77764 0.95763 0.00537 -0.51400
S 	S 	0.97359 0.97024 0.22369 -0.51300
S 	S 	0.84002 0.97937 0.17458 -0.55000
S 	S 	0.99641 0.91405 0.16949 -0.52100
S 	S 	0.00776 0.85729 0.11368 -0.56700
S 	S 	0.72958 0.88993 0.02151 -0.50900
S 	S 	0.88874 0.99521 0.23175 -0.52700
S 	S 	0.77789 0.96764 0.12500 -0.52400
S 	S 	0.94273 0.02229 0.17238 -0.49000
S 	S 	0.85690 0.91950 0.23162 -0.51400
S 	S 	0.72210 0.95679 0.06713 -0.51800
S 	S 	0.93370 0.89989 0.22629 -0.54700
S 	S 	0.94488 0.05085 0.24018 -0.47100
C 	C 	0.81360 0.00160 0.19380 0.06300
C 	C 	0.79510 0.02410 0.22910 0.01200
C 	C 	0.81630 0.00890 0.21840 -0.03800
C 	C 	0.79850 0.98330 0.20660 -0.07500
C 	C 	0.74490 0.77040 0.20900 0.05300
C 	C 	0.71990 0.76670 0.22330 -0.02800
C 	C 	0.69310 0.76130 0.21250 0.01100
C 	C 	0.69150 0.75730 0.18690 -0.01400
C 	C 	0.71510 0.75990 0.17200 0.03800
C 	C 	0.74120 0.76770 0.18300 -0.10800
C 	C 	0.01840 0.75960 0.06560 0.05900
C 	C 	0.01730 0.74580 0.04320 -0.10900
C 	C 	0.01130 0.71790 0.04310 0.02600
C 	C 	0.00750 0.70450 0.06330 -0.01800
C 	C 	0.00920 0.71940 0.08480 0.02400
C 	C 	0.01540 0.74580 0.08590 -0.05100
C 	C 	0.91170 0.74560 0.04920 0.08300
C 	C 	0.88520 0.73530 0.04670 -0.09200
C 	C 	0.87610 0.71040 0.03350 0.02500
C 	C 	0.89810 0.69980 0.02110 -0.01500
C 	C 	0.92730 0.70620 0.02460 0.01600
C 	C 	0.93390 0.72720 0.03950 -0.04200
C 	C 	0.72890 0.84710 0.19180 0.05800
C 	C 	0.70600 0.82980 0.19750 -0.02800
C 	C 	0.68530 0.83870 0.21480 0.00900
C 	C 	0.68640 0.86500 0.22650 -0.01300
C 	C 	0.71000 0.88090 0.22100 0.02200
C 	C 	0.73130 0.87170 0.20260 -0.09900
C 	C 	0.75670 0.76460 0.11260 0.08800
C 	C 	0.75970 0.74000 0.11850 -0.07800
C 	C 	0.73670 0.72200 0.10820 0.01900
C 	C 	0.71480 0.73320 0.09150 -0.01200
C 	C 	0.70970 0.76070 0.09110 0.01400
C 	C 	0.73160 0.77640 0.10600 -0.04500
C 	C 	0.74030 0.81340 0.05130 0.07700
C 	C 	0.75560 0.79470 0.04160 -0.11700
C 	C 	0.74440 0.77590 0.02630 0.03100
C 	C 	0.71500 0.77790 0.01710 -0.01900
C 	C 	0.69640 0.79650 0.02770 0.01200
C 	C 	0.71030 0.81550 0.04590 -0.03100
C 	C 	0.79460 0.83460 0.99700 0.07900
C 	C 	0.80840 0.81210 0.99160 -0.08800
C 	C 	0.79660 0.79360 0.97640 0.03200
C 	C 	0.76960 0.79870 0.96460 -0.02600
C 	C 	0.75750 0.82190 0.96930 0.03600
C 	C 	0.76690 0.83600 0.98700 -0.07600
C 	C 	0.84410 0.72600 0.09840 0.05100
C 	C 	0.82250 0.73420 0.08300 -0.11100
C 	C 	0.80560 0.71640 0.06650 0.01900
C 	C 	0.81370 0.68800 0.06890 -0.00900
C 	C 	0.83940 0.68140 0.08580 0.00700
C 	C 	0.85270 0.70060 0.10250 -0.01700
C 	C 	0.83470 0.70270 0.16820 0.04800
C 	C 	0.82200 0.67830 0.16170 -0.01800
C 	C 	0.84400 0.66090 0.15660 0.01100
C 	C 	0.87190 0.66380 0.16390 -0.01400
C 	C 	0.88280 0.68640 0.16800 0.02900
C 	C 	0.86260 0.70910 0.17130 -0.10100
C 	C 	0.78664 0.86283 0.24656 0.05700
C 	C 	0.78030 0.88916 0.24650 -0.08300
C 	C 	0.75810 0.89867 0.26142 0.02900
C 	C 	0.74230 0.88180 0.27641 -0.01600
C 	C 	0.74870 0.85550 0.27647 0.01900
C 	C 	0.77082 0.84600 0.26155 -0.05000
C 	C 	0.85850 0.76531 0.26000 0.10000
C 	C 	0.84130 0.78678 0.26490 -0.14200
C 	C 	0.83720 0.79509 0.28937 0.04300
C 	C 	0.85030 0.78190 0.30900 -0.02100
C 	C 	0.86750 0.76050 0.30420 0.01800
C 	C 	0.87170 0.75220 0.27970 -0.04300
C 	C 	0.92500 0.81139 0.24610 0.01200
C 	C 	0.92230 0.80115 0.27010 -0.01300
C 	C 	0.94600 0.78968 0.28160 0.01000
C 	C 	0.97230 0.78844 0.26920 -0.01300
C 	C 	0.97500 0.79867 0.24530 0.02900
C 	C 	0.95130 0.81015 0.23370 -0.09400
C 	C 	0.70610 0.89820 0.12830 0.06900
C 	C 	0.70860 0.87690 0.14410 -0.07800
C 	C 	0.68580 0.87020 0.15970 0.02700
C 	C 	0.66070 0.88490 0.15970 -0.01600
C 	C 	0.65820 0.90620 0.14390 0.01900
C 	C 	0.68100 0.91290 0.12830 -0.05500
C 	C 	0.88370 0.80170 0.98960 0.06100
C 	C 	0.87440 0.77930 0.00170 -0.11600
C 	C 	0.86500 0.75720 0.98460 0.02400
C 	C 	0.86710 0.75850 0.95920 -0.01500
C 	C 	0.87610 0.78100 0.94950 0.01300
C 	C 	0.88700 0.80260 0.96460 -0.02600
C 	C 	0.97350 0.81060 0.97760 0.05400
C 	C 	0.98570 0.79900 0.95720 -0.06100
C 	C 	0.98530 0.81230 0.93280 0.01500
C 	C 	0.97430 0.83860 0.93100 -0.01300
C 	C 	0.96530 0.85170 0.95480 0.03200
C 	C 	0.96370 0.83650 0.97610 -0.10800
C 	C 	0.00020 0.77900 0.14710 0.05500
C 	C 	0.00900 0.75380 0.15230 -0.02100
C 	C 	0.03150 0.74940 0.16900 0.01200
C 	C 	0.04520 0.77020 0.18040 -0.01600
C 	C 	0.03640 0.79540 0.17520 0.03100
C 	C 	0.01400 0.79980 0.15850 -0.11900
C 	C 	0.05330 0.86970 0.03350 0.06800
C 	C 	0.07550 0.87910 0.01700 -0.02400
C 	C 	0.10420 0.88550 0.02600 0.00900
C 	C 	0.10890 0.88520 0.05420 -0.00800
C 	C 	0.08530 0.87450 0.07190 0.02600
C 	C 	0.05850 0.86750 0.05960 -0.10100
C 	C 	0.83880 0.69010 0.25290 0.05000
C 	C 	0.84470 0.69450 0.27960 -0.07700
C 	C 	0.87280 0.68710 0.28830 0.02200
C 	C 	0.89320 0.67870 0.27260 -0.01200
C 	C 	0.88760 0.67340 0.24630 0.01200
C 	C 	0.85970 0.68040 0.23570 -0.03200
Cd	Cd	0.85641 0.83980 0.14600 1.12500
Cd	Cd	0.79925 0.81788 0.09200 1.14000
Cd	Cd	0.91414 0.85793 0.09326 1.12500
Cd	Cd	0.85245 0.83839 0.04000 1.14200
Cd	Cd	0.87675 0.78699 0.08957 1.14200
Cd	Cd	0.77657 0.87468 0.14709 1.14600
Cd	Cd	0.91788 0.86063 0.20043 1.14300
Cd	Cd	0.93306 0.80938 0.03403 1.14800
Cd	Cd	0.97996 0.87762 0.04745 1.15100
Cd	Cd	0.79319 0.81778 0.19641 1.14800
Cd	Cd	0.87619 0.79290 0.20529 1.14800
Cd	Cd	0.93458 0.80729 0.15045 1.14100
Cd	Cd	0.98966 0.81508 0.09424 1.14900
Cd	Cd	0.82589 0.76496 0.14603 1.15100
S 	S 	0.89599 0.82106 0.11970 -1.15400
S 	S 	0.83784 0.80345 0.17338 -1.10000
S 	S 	0.81571 0.85581 0.11930 -1.15000
S 	S 	0.83547 0.79980 0.06284 -0.85600
S 	S 	0.95446 0.83943 0.06685 -1.09600
S 	S 	0.86439 0.74823 0.11749 -0.52200
S 	S 	0.95761 0.84103 0.17642 -0.85700
S 	S 	0.80987 0.85914 0.01721 -0.56300
S 	S 	0.89297 0.82906 0.00834 -0.52600
S 	S 	0.92157 0.77354 0.06476 -0.58100
S 	S 	0.75228 0.83533 0.07331 -0.53000
S 	S 	0.78232 0.78638 0.12614 -0.56800
Cd	Cd	0.01865 0.81045 0.02404 1.15600
Cd	Cd	0.81125 0.74211 0.21802 1.15900
S 	S 	0.97236 0.79237 0.00537 -0.51400
S 	S 	0.77641 0.77976 0.22369 -0.51300
S 	S 	0.90998 0.77063 0.17458 -0.55000
S 	S 	0.75359 0.83595 0.16949 -0.52100
S 	S 	0.74224 0.89271 0.11368 -0.56700
S 	S 	0.02042 0.86007 0.02151 -0.50900
S 	S 	0.86126 0.75479 0.23175 -0.52700
S 	S 	0.97211 0.78236 0.12500 -0.52400
S 	S 	0.80727 0.72771 0.17238 -0.49000
S 	S 	0.89310 0.83050 0.23162 -0.51400
S 	S 	0.02790 0.79321 0.06713 -0.51800
S 	S 	0.81630 0.85011 0.22629 -0.54700
S 	S 	0.80512 0.69915 0.24018 -0.47100
C 	C 	0.93640 0.74840 0.19380 0.06300
C 	C 	0.95490 0.72590 0.22910 0.01200
C 	C 	0.93370 0.74110 0.21840 -0.03800
C 	C 	0.95150 0.76670 0.20660 -0.07500
C 	C 	0.74490 0.27040 0.70900 0.05300
C 	C 	0.71990 0.26670 0.72330 -0.02800
C 	C 	0.69310 0.26130 0.71250 0.01100
C 	C 	0.69150 0.25730 0.68690 -0.01400
C 	C 	0.71510 0.25990 0.67200 0.03800
C 	C 	0.74120 0.26770 0.68300 -0.10800
C 	C 	0.01840 0.25960 0.56560 0.05900
C 	C 	0.01730 0.24580 0.54320 -0.10900
C 	C 	0.01130 0.21790 0.54310 0.02600
C 	C 	0.00750 0.20450 0.56330 -0.01800
C 	C 	0.00920 0.21940 0.58480 0.02400
C 	C 	0.01540 0.24580 0.58590 -0.05100
C 	C 	0.91170 0.24560 0.54920 0.08300
C 	C 	0.88520 0.23530 0.54670 -0.09200
C 	C 	0.87610 0.21040 0.53350 0.02500
C 	C 	0.89810 0.19980 0.52110 -0.01500
C 	C 	0.92730 0.20620 0.52460 0.01600
C 	C 	0.93390 0.22720 0.53950 -0.04200
C 	C 	0.72890 0.34710 0.69180 0.05800
C 	C 	0.70600 0.32980 0.69750 -0.02800
C 	C 	0.68530 0.33870 0.71480 0.00900
C 	C 	0.68640 0.36500 0.72650 -0.01300
C 	C 	0.71000 0.38090 0.72100 0.02200
C 	C 	0.73130 0.37170 0.70260 -0.09900
C 	C 	0.75670 0.26460 0.61260 0.08800
C 	C 	0.75970 0.24000 0.61850 -0.07800
C 	C 	0.73670 0.22200 0.60820 0.01900
C 	C 	0.71480 0.23320 0.59150 -0.01200
C 	C 	0.70970 0.26070 0.59110 0.01400
C 	C 	0.73160 0.27640 0.60600 -0.04500
C 	C 	0.74030 0.31340 0.55130 0.07700
C 	C 	0.75560 0.29470 0.54160 -0.11700
C 	C 	0.74440 0.27590 0.52630 0.03100
C 	C 	0.71500 0.27790 0.51710 -0.01900
C 	C 	0.69640 0.29650 0.52770 0.01200
C 	C 	0.71030 0.31550 0.54590 -0.03100
C 	C 	0.79460 0.33460 0.49700 0.07900
C 	C 	0.80840 0.31210 0.49160 -0.08800
C 	C 	0.79660 0.29360 0.47640 0.03200
C 	C 	0.76960 0.29870 0.46460 -0.02600
C 	C 	0.75750 0.32190 0.46930 0.03600
C 	C 	0.76690 0.33600 0.48700 -0.07600
C 	C 	0.84410 0.22600 0.59840 0.05100
C 	C 	0.82250 0.23420 0.58300 -0.11100
C 	C 	0.80560 0.21640 0.56650 0.01900
C 	C 	0.81370 0.18800 0.56890 -0.00900
C 	C 	0.83940 0.18140 0.58580 0.00700
C 	C 	0.85270 0.20060 0.60250 -0.01700
C 	C 	0.83470 0.20270 0.66820 0.04800
C 	C 	0.82200 0.17830 0.66170 -0.01800
C 	C 	0.84400 0.16090 0.65660 0.01100
C 	C 	0.87190 0.16380 0.66390 -0.01400
C 	C 	0.88280 0.18640 0.66800 0.02900
C 	C 	0.86260 0.20910 0.67130 -0.10100
C 	C 	0.78664 0.36283 0.74656 0.05700
C 	C 	0.78030 0.38916 0.74650 -0.08300
C 	C 	0.75810 0.39867 0.76142 0.02900
C 	C 	0.74230 0.38180 0.77641 -0.01600
C 	C 	0.74870 0.35550 0.77647 0.01900
C 	C 	0.77082 0.34600 0.76155 -0.05000
C 	C 	0.85850 0.26531 0.76000 0.10000
C 	C 	0.84130 0.28678 0.76490 -0.14200
C 	C 	0.83720 0.29509 0.78937 0.04300
C 	C 	0.85030 0.28190 0.80900 -0.02100
C 	C 	0.86750 0.26050 0.80420 0.01800
C 	C 	0.87170 0.25220 0.77970 -0.04300
C 	C 	0.92500 0.31139 0.74610 0.01200
C 	C 	0.92230 0.30115 0.77010 -0.01300
C 	C 	0.94600 0.28968 0.78160 0.01000
C 	C 	0.97230 0.28844 0.76920 -0.01300
C 	C 	0.97500 0.29867 0.74530 0.02900
C 	C 	0.95130 0.31015 0.73370 -0.09400
C 	C 	0.70610 0.39820 0.62830 0.06900
C 	C 	0.70860 0.37690 0.64410 -0.07800
C 	C 	0.68580 0.37020 0.65970 0.02700
C 	C 	0.66070 0.38490 0.65970 -0.01600
C 	C 	0.65820 0.40620 0.64390 0.01900
C 	C 	0.68100 0.41290 0.62830 -0.05500
C 	C 	0.88370 0.30170 0.48960 0.06100
C 	C 	0.87440 0.27930 0.50170 -0.11600
C 	C 	0.86500 0.25720 0.48460 0.02400
C 	C 	0.86710 0.25850 0.45920 -0.01500
C 	C 	0.87610 0.28100 0.44950 0.01300
C 	C 	0.88700 0.30260 0.46460 -0.02600
C 	C 	0.97350 0.31060 0.47760 0.05400
C 	C 	0.98570 0.29900 0.45720 -0.06100
C 	C 	0.98530 0.31230 0.43280 0.01500
C 	C 	0.97430 0.33860 0.43100 -0.01300
C 	C 	0.96530 0.35170 0.45480 0.03200
C 	C 	0.96370 0.33650 0.47610 -0.10800
C 	C 	0.00020 0.27900 0.64710 0.05500
C 	C 	0.00900 0.25380 0.65230 -0.02100
C 	C 	0.03150 0.24940 0.66900 0.01200
C 	C 	0.04520 0.27020 0.68040 -0.01600
C 	C 	0.03640 0.29540 0.67520 0.03100
C 	C 	0.01400 0.29980 0.65850 -0.11900
C 	C 	0.05330 0.36970 0.53350 0.06800
C 	C 	0.07550 0.37910 0.51700 -0.02400
C 	C 	0.10420 0.38550 0.52600 0.00900
C 	C 	0.10890 0.38520 0.55420 -0.00800
C 	C 	0.08530 0.37450 0.57190 0.02600
C 	C 	0.05850 0.36750 0.55960 -0.10100
C 	C 	0.83880 0.19010 0.75290 0.05000
C 	C 	0.84470 0.19450 0.77960 -0.07700
C 	C 	0.87280 0.18710 0.78830 0.02200
C 	C 	0.89320 0.17870 0.77260 -0.01200
C 	C 	0.88760 0.17340 0.74630 0.01200
C 	C 	0.85970 0.18040 0.73570 -0.03200
Cd	Cd	0.85641 0.33980 0.64600 1.12500
Cd	Cd	0.79925 0.31788 0.59200 1.14000
Cd	Cd	0.91414 0.35793 0.59326 1.12500
Cd	Cd	0.85245 0.33839 0.54000 1.14200
Cd	Cd	0.87675 0.28699 0.58957 1.14200
Cd	Cd	0.77657 0.37468 0.64709 1.14600
Cd	Cd	0.91788 0.36063 0.70043 1.14300
Cd	Cd	0.93306 0.30938 0.53403 1.14800
Cd	Cd	0.97996 0.37762 0.54745 1.15100
Cd	Cd	0.79319 0.31778 0.69641 1.14800
Cd	Cd	0.87619 0.29290 0.70529 1.14800
Cd	Cd	0.93458 0.30729 0.65045 1.14100
Cd	Cd	0.98966 0.31508 0.59424 1.14900
Cd	Cd	0.82589 0.26496 0.64603 1.15100
S 	S 	0.89599 0.32106 0.61970 -1.15400
S 	S 	0.83784 0.30345 0.67338 -1.10000
S 	S 	0.81571 0.35581 0.61930 -1.15000
S 	S 	0.83547 0.29980 0.56284 -0.85600
S 	S 	0.95446 0.33943 0.56685 -1.09600
S 	S 	0.86439 0.24823 0.61749 -0.52200
S 	S 	0.95761 0.34103 0.67642 -0.85700
S 	S 	0.80987 0.35914 0.51721 -0.56300
S 	S 	0.89297 0.32906 0.50834 -0.52600
S 	S 	0.92157 0.27354 0.56476 -0.58100
S 	S 	0.75228 0.33533 0.57331 -0.53000
S 	S 	0.78232 0.28638 0.62614 -0.56800
Cd	Cd	0.01865 0.31045 0.52404 1.15600
Cd	Cd	0.81125 0.24211 0.71802 1.15900
S 	S 	0.97236 0.29237 0.50537 -0.51400
S 	S 	0.77641 0.27976 0.72369 -0.51300
S 	S 	0.90998 0.27063 0.67458 -0.55000
S 	S 	0.75359 0.33595 0.66949 -0.52100
S 	S 	0.74224 0.39271 0.61368 -0.56700
S 	S 	0.02042 0.36007 0.52151 -0.50900
S 	S 	0.86126 0.25479 0.73175 -0.52700
S 	S 	0.97211 0.28236 0.62500 -0.52400
S 	S 	0.80727 0.22771 0.67238 -0.49000
S 	S 	0.89310 0.33050 0.73162 -0.51400
S 	S 	0.02790 0.29321 0.56713 -0.51800
S 	S 	0.81630 0.35011 0.72629 -0.54700
S 	S 	0.80512 0.19915 0.74018 -0.47100
C 	C 	0.93640 0.24840 0.69380 0.06300
C 	C 	0.95490 0.22590 0.72910 0.01200
C 	C 	0.93370 0.24110 0.71840 -0.03800
C 	C 	0.95150 0.26670 0.70660 -0.07500
C 	C 	0.24490 0.77040 0.70900 0.05300
C 	C 	0.21990 0.76670 0.72330 -0.02800
C 	C 	0.19310 0.76130 0.71250 0.01100
C 	C 	0.19150 0.75730 0.68690 -0.01400
C 	C 	0.21510 0.75990 0.67200 0.03800
C 	C 	0.24120 0.76770 0.68300 -0.10800
C 	C 	0.51840 0.75960 0.56560 0.05900
C 	C 	0.51730 0.74580 0.54320 -0.10900
C 	C 	0.51130 0.71790 0.54310 0.02600
C 	C 	0.50750 0.70450 0.56330 -0.01800
C 	C 	0.50920 0.71940 0.58480 0.02400
C 	C 	0.51540 0.74580 0.58590 -0.05100
C 	C 	0.41170 0.74560 0.54920 0.08300
C 	C 	0.38520 0.73530 0.54670 -0.09200
C 	C 	0.37610 0.71040 0.53350 0.02500
C 	C 	0.39810 0.69980 0.52110 -0.01500
C 	C 	0.42730 0.70620 0.52460 0.01600
C 	C 	0.43390 0.72720 0.53950 -0.04200
C 	C 	0.22890 0.84710 0.69180 0.05800
C 	C 	0.20600 0.82980 0.69750 -0.02800
C 	C 	0.18530 0.83870 0.71480 0.00900
C 	C 	0.18640 0.86500 0.72650 -0.01300
C 	C 	0.21000 0.88090 0.72100 0.02200
C 	C 	0.23130 0.87170 0.70260 -0.09900
C 	C 	0.25670 0.76460 0.61260 0.08800
C 	C 	0.25970 0.74000 0.61850 -0.07800
C 	C 	0.23670 0.72200 0.60820 0.01900
C 	C 	0.21480 0.73320 0.59150 -0.01200
C 	C 	0.20970 0.76070 0.59110 0.01400
C 	C 	0.23160 0.77640 0.60600 -0.04500
C 	C 	0.24030 0.81340 0.55130 0.07700
C 	C 	0.25560 0.79470 0.54160 -0.11700
C 	C 	0.24440 0.77590 0.52630 0.03100
C 	C 	0.21500 0.77790 0.51710 -0.01900
C 	C 	0.19640 0.79650 0.52770 0.01200
C 	C 	0.21030 0.81550 0.54590 -0.03100
C 	C 	0.29460 0.83460 0.49700 0.07900
C 	C 	0.30840 0.81210 0.49160 -0.08800
C 	C 	0.29660 0.79360 0.47640 0.03200
C 	C 	0.26960 0.79870 0.46460 -0.02600
C 	C 	0.25750 0.82190 0.46930 0.03600
C 	C 	0.26690 0.83600 0.48700 -0.07600
C 	C 	0.34410 0.72600 0.59840 0.05100
C 	C 	0.32250 0.73420 0.58300 -0.11100
C 	C 	0.30560 0.71640 0.56650 0.01900
C 	C 	0.31370 0.68800 0.56890 -0.00900
C 	C 	0.33940 0.68140 0.58580 0.00700
C 	C 	0.35270 0.70060 0.60250 -0.01700
C 	C 	0.33470 0.70270 0.66820 0.04800
C 	C 	0.32200 0.67830 0.66170 -0.01800
C 	C 	0.34400 0.66090 0.65660 0.01100
C 	C 	0.37190 0.66380 0.66390 -0.01400
C 	C 	0.38280 0.68640 0.66800 0.02900
C 	C 	0.36260 0.70910 0.67130 -0.10100
C 	C 	0.28664 0.86283 0.74656 0.05700
C 	C 	0.28030 0.88916 0.74650 -0.08300
C 	C 	0.25810 0.89867 0.76142 0.02900
C 	C 	0.24230 0.88180 0.77641 -0.01600
C 	C 	0.24870 0.85550 0.77647 0.01900
C 	C 	0.27082 0.84600 0.76155 -0.05000
C 	C 	0.35850 0.76531 0.76000 0.10000
C 	C 	0.34130 0.78678 0.76490 -0.14200
C 	C 	0.33720 0.79509 0.78937 0.04300
C 	C 	0.35030 0.78190 0.80900 -0.02100
C 	C 	0.36750 0.76050 0.80420 0.01800
C 	C 	0.37170 0.75220 0.77970 -0.04300
C 	C 	0.42500 0.81139 0.74610 0.01200
C 	C 	0.42230 0.80115 0.77010 -0.01300
C 	C 	0.44600 0.78968 0.78160 0.01000
C 	C 	0.47230 0.78844 0.76920 -0.01300
C 	C 	0.47500 0.79867 0.74530 0.02900
C 	C 	0.45130 0.81015 0.73370 -0.09400
C 	C 	0.20610 0.89820 0.62830 0.06900
C 	C 	0.20860 0.87690 0.64410 -0.07800
C 	C 	0.18580 0.87020 0.65970 0.02700
C 	C 	0.16070 0.88490 0.65970 -0.01600
C 	C 	0.15820 0.90620 0.64390 0.01900
C 	C 	0.18100 0.91290 0.62830 -0.05500
C 	C 	0.38370 0.80170 0.48960 0.06100
C 	C 	0.37440 0.77930 0.50170 -0.11600
C 	C 	0.36500 0.75720 0.48460 0.02400
C 	C 	0.36710 0.75850 0.45920 -0.01500
C 	C 	0.37610 0.78100 0.44950 0.01300
C 	C 	0.38700 0.80260 0.46460 -0.02600
C 	C 	0.47350 0.81060 0.47760 0.05400
C 	C 	0.48570 0.79900 0.45720 -0.06100
C 	C 	0.48530 0.81230 0.43280 0.01500
C 	C 	0.47430 0.83860 0.43100 -0.01300
C 	C 	0.46530 0.85170 0.45480 0.03200
C 	C 	0.46370 0.83650 0.47610 -0.10800
C 	C 	0.50020 0.77900 0.64710 0.05500
C 	C 	0.50900 0.75380 0.65230 -0.02100
C 	C 	0.53150 0.74940 0.66900 0.01200
C 	C 	0.54520 0.77020 0.68040 -0.01600
C 	C 	0.53640 0.79540 0.67520 0.03100
C 	C 	0.51400 0.79980 0.65850 -0.11900
C 	C 	0.55330 0.86970 0.53350 0.06800
C 	C 	0.57550 0.87910 0.51700 -0.02400
C 	C 	0.60420 0.88550 0.52600 0.00900
C 	C 	0.60890 0.88520 0.55420 -0.00800
C 	C 	0.58530 0.87450 0.57190 0.02600
C 	C 	0.55850 0.86750 0.55960 -0.10100
C 	C 	0.33880 0.69010 0.75290 0.05000
C 	C 	0.34470 0.69450 0.77960 -0.07700
C 	C 	0.37280 0.68710 0.78830 0.02200
C 	C 	0.39320 0.67870 0.77260 -0.01200
C 	C 	0.38760 0.67340 0.74630 0.01200
C 	C 	0.35970 0.68040 0.73570 -0.03200
Cd	Cd	0.35641 0.83980 0.64600 1.12500
Cd	Cd	0.29925 0.81788 0.59200 1.14000
Cd	Cd	0.41414 0.85793 0.59326 1.12500
Cd	Cd	0.35245 0.83839 0.54000 1.14200
Cd	Cd	0.37675 0.78699 0.58957 1.14200
Cd	Cd	0.27657 0.87468 0.64709 1.14600
Cd	Cd	0.41788 0.86063 0.70043 1.14300
Cd	Cd	0.43306 0.80938 0.53403 1.14800
Cd	Cd	0.47996 0.87762 0.54745 1.15100
Cd	Cd	0.29319 0.81778 0.69641 1.14800
Cd	Cd	0.37619 0.79290 0.70529 1.14800
Cd	Cd	0.43458 0.80729 0.65045 1.14100
Cd	Cd	0.48966 0.81508 0.59424 1.14900
Cd	Cd	0.32589 0.76496 0.64603 1.15100
S 	S 	0.39599 0.82106 0.61970 -1.15400
S 	S 	0.33784 0.80345 0.67338 -1.10000
S 	S 	0.31571 0.85581 0.61930 -1.15000
S 	S 	0.33547 0.79980 0.56284 -0.85600
S 	S 	0.45446 0.83943 0.56685 -1.09600
S 	S 	0.36439 0.74823 0.61749 -0.52200
S 	S 	0.45761 0.84103 0.67642 -0.85700
S 	S 	0.30987 0.85914 0.51721 -0.56300
S 	S 	0.39297 0.82906 0.50834 -0.52600
S 	S 	0.42157 0.77354 0.56476 -0.58100
S 	S 	0.25228 0.83533 0.57331 -0.53000
S 	S 	0.28232 0.78638 0.62614 -0.56800
Cd	Cd	0.51865 0.81045 0.52404 1.15600
Cd	Cd	0.31125 0.74211 0.71802 1.15900
S 	S 	0.47236 0.79237 0.50537 -0.51400
S 	S 	0.27641 0.77976 0.72369 -0.51300
S 	S 	0.40998 0.77063 0.67458 -0.55000
S 	S 	0.25359 0.83595 0.66949 -0.52100
S 	S 	0.24224 0.89271 0.61368 -0.56700
S 	S 	0.52042 0.86007 0.52151 -0.50900
S 	S 	0.36126 0.75479 0.73175 -0.52700
S 	S 	0.47211 0.78236 0.62500 -0.52400
S 	S 	0.30727 0.72771 0.67238 -0.49000
S 	S 	0.39310 0.83050 0.73162 -0.51400
S 	S 	0.52790 0.79321 0.56713 -0.51800
S 	S 	0.31630 0.85011 0.72629 -0.54700
S 	S 	0.30512 0.69915 0.74018 -0.47100
C 	C 	0.43640 0.74840 0.69380 0.06300
C 	C 	0.45490 0.72590 0.72910 0.01200
C 	C 	0.43370 0.74110 0.71840 -0.03800
C 	C 	0.45150 0.76670 0.70660 -0.07500
C 	C 	0.24490 0.27040 0.20900 0.05300
C 	C 	0.21990 0.26670 0.22330 -0.02800
C 	C 	0.19310 0.26130 0.21250 0.01100
C 	C 	0.19150 0.25730 0.18690 -0.01400
C 	C 	0.21510 0.25990 0.17200 0.03800
C 	C 	0.24120 0.26770 0.18300 -0.10800
C 	C 	0.51840 0.25960 0.06560 0.05900
C 	C 	0.51730 0.24580 0.04320 -0.10900
C 	C 	0.51130 0.21790 0.04310 0.02600
C 	C 	0.50750 0.20450 0.06330 -0.01800
C 	C 	0.50920 0.21940 0.08480 0.02400
C 	C 	0.51540 0.24580 0.08590 -0.05100
C 	C 	0.41170 0.24560 0.04920 0.08300
C 	C 	0.38520 0.23530 0.04670 -0.09200
C 	C 	0.37610 0.21040 0.03350 0.02500
C 	C 	0.39810 0.19980 0.02110 -0.01500
C 	C 	0.42730 0.20620 0.02460 0.01600
C 	C 	0.43390 0.22720 0.03950 -0.04200
C 	C 	0.22890 0.34710 0.19180 0.05800
C 	C 	0.20600 0.32980 0.19750 -0.02800
C 	C 	0.18530 0.33870 0.21480 0.00900
C 	C 	0.18640 0.36500 0.22650 -0.01300
C 	C 	0.21000 0.38090 0.22100 0.02200
C 	C 	0.23130 0.37170 0.20260 -0.09900
C 	C 	0.25670 0.26460 0.11260 0.08800
C 	C 	0.25970 0.24000 0.11850 -0.07800
C 	C 	0.23670 0.22200 0.10820 0.01900
C 	C 	0.21480 0.23320 0.09150 -0.01200
C 	C 	0.20970 0.26070 0.09110 0.01400
C 	C 	0.23160 0.27640 0.10600 -0.04500
C 	C 	0.24030 0.31340 0.05130 0.07700
C 	C 	0.25560 0.29470 0.04160 -0.11700
C 	C 	0.24440 0.27590 0.02630 0.03100
C 	C 	0.21500 0.27790 0.01710 -0.01900
C 	C 	0.19640 0.29650 0.02770 0.01200
C 	C 	0.21030 0.31550 0.04590 -0.03100
C 	C 	0.29460 0.33460 0.99700 0.07900
C 	C 	0.30840 0.31210 0.99160 -0.08800
C 	C 	0.29660 0.29360 0.97640 0.03200
C 	C 	0.26960 0.29870 0.96460 -0.02600
C 	C 	0.25750 0.32190 0.96930 0.03600
C 	C 	0.26690 0.33600 0.98700 -0.07600
C 	C 	0.34410 0.22600 0.09840 0.05100
C 	C 	0.32250 0.23420 0.08300 -0.11100
C 	C 	0.30560 0.21640 0.06650 0.01900
C 	C 	0.31370 0.18800 0.06890 -0.00900
C 	C 	0.33940 0.18140 0.08580 0.00700
C 	C 	0.35270 0.20060 0.10250 -0.01700
C 	C 	0.33470 0.20270 0.16820 0.04800
C 	C 	0.32200 0.17830 0.16170 -0.01800
C 	C 	0.34400 0.16090 0.15660 0.01100
C 	C 	0.37190 0.16380 0.16390 -0.01400
C 	C 	0.38280 0.18640 0.16800 0.02900
C 	C 	0.36260 0.20910 0.17130 -0.10100
C 	C 	0.28664 0.36283 0.24656 0.05700
C 	C 	0.28030 0.38916 0.24650 -0.08300
C 	C 	0.25810 0.39867 0.26142 0.02900
C 	C 	0.24230 0.38180 0.27641 -0.01600
C 	C 	0.24870 0.35550 0.27647 0.01900
C 	C 	0.27082 0.34600 0.26155 -0.05000
C 	C 	0.35850 0.26531 0.26000 0.10000
C 	C 	0.34130 0.28678 0.26490 -0.14200
C 	C 	0.33720 0.29509 0.28937 0.04300
C 	C 	0.35030 0.28190 0.30900 -0.02100
C 	C 	0.36750 0.26050 0.30420 0.01800
C 	C 	0.37170 0.25220 0.27970 -0.04300
C 	C 	0.42500 0.31139 0.24610 0.01200
C 	C 	0.42230 0.30115 0.27010 -0.01300
C 	C 	0.44600 0.28968 0.28160 0.01000
C 	C 	0.47230 0.28844 0.26920 -0.01300
C 	C 	0.47500 0.29867 0.24530 0.02900
C 	C 	0.45130 0.31015 0.23370 -0.09400
C 	C 	0.20610 0.39820 0.12830 0.06900
C 	C 	0.20860 0.37690 0.14410 -0.07800
C 	C 	0.18580 0.37020 0.15970 0.02700
C 	C 	0.16070 0.38490 0.15970 -0.01600
C 	C 	0.15820 0.40620 0.14390 0.01900
C 	C 	0.18100 0.41290 0.12830 -0.05500
C 	C 	0.38370 0.30170 0.98960 0.06100
C 	C 	0.37440 0.27930 0.00170 -0.11600
C 	C 	0.36500 0.25720 0.98460 0.02400
C 	C 	0.36710 0.25850 0.95920 -0.01500
C 	C 	0.37610 0.28100 0.94950 0.01300
C 	C 	0.38700 0.30260 0.96460 -0.02600
C 	C 	0.47350 0.31060 0.97760 0.05400
C 	C 	0.48570 0.29900 0.95720 -0.06100
C 	C 	0.48530 0.31230 0.93280 0.01500
C 	C 	0.47430 0.33860 0.93100 -0.01300
C 	C 	0.46530 0.35170 0.95480 0.03200
C 	C 	0.46370 0.33650 0.97610 -0.10800
C 	C 	0.50020 0.27900 0.14710 0.05500
C 	C 	0.50900 0.25380 0.15230 -0.02100
C 	C 	0.53150 0.24940 0.16900 0.01200
C 	C 	0.54520 0.27020 0.18040 -0.01600
C 	C 	0.53640 0.29540 0.17520 0.03100
C 	C 	0.51400 0.29980 0.15850 -0.11900
C 	C 	0.55330 0.36970 0.03350 0.06800
C 	C 	0.57550 0.37910 0.01700 -0.02400
C 	C 	0.60420 0.38550 0.02600 0.00900
C 	C 	0.60890 0.38520 0.05420 -0.00800
C 	C 	0.58530 0.37450 0.07190 0.02600
C 	C 	0.55850 0.36750 0.05960 -0.10100
C 	C 	0.33880 0.19010 0.25290 0.05000
C 	C 	0.34470 0.19450 0.27960 -0.07700
C 	C 	0.37280 0.18710 0.28830 0.02200
C 	C 	0.39320 0.17870 0.27260 -0.01200
C 	C 	0.38760 0.17340 0.24630 0.01200
C 	C 	0.35970 0.18040 0.23570 -0.03200
Cd	Cd	0.35641 0.33980 0.14600 1.12500
Cd	Cd	0.29925 0.31788 0.09200 1.14000
Cd	Cd	0.41414 0.35793 0.09326 1.12500
Cd	Cd	0.35245 0.33839 0.04000 1.14200
Cd	Cd	0.37675 0.28699 0.08957 1.14200
Cd	Cd	0.27657 0.37468 0.14709 1.14600
Cd	Cd	0.41788 0.36063 0.20043 1.14300
Cd	Cd	0.43306 0.30938 0.03403 1.14800
Cd	Cd	0.47996 0.37762 0.04745 1.15100
Cd	Cd	0.29319 0.31778 0.19641 1.14800
Cd	Cd	0.37619 0.29290 0.20529 1.14800
Cd	Cd	0.43458 0.30729 0.15045 1.14100
Cd	Cd	0.48966 0.31508 0.09424 1.14900
Cd	Cd	0.32589 0.26496 0.14603 1.15100
S 	S 	0.39599 0.32106 0.11970 -1.15400
S 	S 	0.33784 0.30345 0.17338 -1.10000
S 	S 	0.31571 0.35581 0.11930 -1.15000
S 	S 	0.33547 0.29980 0.06284 -0.85600
S 	S 	0.45446 0.33943 0.06685 -1.09600
S 	S 	0.36439 0.24823 0.11749 -0.52200
S 	S 	0.45761 0.34103 0.17642 -0.85700
S 	S 	0.30987 0.35914 0.01721 -0.56300
S 	S 	0.39297 0.32906 0.00834 -0.52600
S 	S 	0.42157 0.27354 0.06476 -0.58100
S 	S 	0.25228 0.33533 0.07331 -0.53000
S 	S 	0.28232 0.28638 0.12614 -0.56800
Cd	Cd	0.51865 0.31045 0.02404 1.15600
Cd	Cd	0.31125 0.24211 0.21802 1.15900
S 	S 	0.47236 0.29237 0.00537 -0.51400
S 	S 	0.27641 0.27976 0.22369 -0.51300
S 	S 	0.40998 0.27063 0.17458 -0.55000
S 	S 	0.25359 0.33595 0.16949 -0.52100
S 	S 	0.24224 0.39271 0.11368 -0.56700
S 	S 	0.52042 0.36007 0.02151 -0.50900
S 	S 	0.36126 0.25479 0.23175 -0.52700
S 	S 	0.47211 0.28236 0.12500 -0.52400
S 	S 	0.30727 0.22771 0.17238 -0.49000
S 	S 	0.39310 0.33050 0.23162 -0.51400
S 	S 	0.52790 0.29321 0.06713 -0.51800
S 	S 	0.31630 0.35011 0.22629 -0.54700
S 	S 	0.30512 0.19915 0.24018 -0.47100
C 	C 	0.43640 0.24840 0.19380 0.06300
C 	C 	0.45490 0.22590 0.22910 0.01200
C 	C 	0.43370 0.24110 0.21840 -0.03800
C 	C 	0.45150 0.26670 0.20660 -0.07500
S 	S 	0.12500 0.62500 0.81494 -1.14900
S 	S 	0.12500 0.62500 0.92438 -1.16100
S 	S 	0.12500 0.12500 0.31494 -1.14900
S 	S 	0.12500 0.12500 0.42438 -1.16100
S 	S 	0.62500 0.62500 0.31494 -1.14900
S 	S 	0.62500 0.62500 0.42438 -1.16100
S 	S 	0.62500 0.12500 0.81494 -1.14900
S 	S 	0.62500 0.12500 0.92438 -1.16100
S 	S 	0.37500 0.37500 0.06494 -1.14900
S 	S 	0.37500 0.37500 0.17438 -1.16100
S 	S 	0.37500 0.87500 0.56494 -1.14900
S 	S 	0.37500 0.87500 0.67438 -1.16100
S 	S 	0.87500 0.87500 0.06494 -1.14900
S 	S 	0.87500 0.87500 0.17438 -1.16100
S 	S 	0.87500 0.37500 0.56494 -1.14900
S 	S 	0.87500 0.37500 0.67438 -1.16100
