data_crystal

_cell_length_a 9.31600
_cell_length_b 11.91700
_cell_length_c 25.51500
_cell_angle_alpha 90.00000
_cell_angle_beta  94.66300
_cell_angle_gamma 90.00000

_symmetry_space_group_name_	'P 1'
_symmetry_space_group_name_H-M	'P 1'

loop_
_symmetry_equiv_pos_as_xyz
  x,y,z

loop_
_atom_site_label
_atom_site_type_symbol
_atom_site_fract_x
_atom_site_fract_y
_atom_site_fract_z
_atom_site_charge
Mn	Mn	0.55567 0.91943 0.97874 1.23200
Mn	Mn	0.07356 0.60055 0.29405 1.23500
Mn	Mn	0.55567 0.08057 0.47874 1.23700
Mn	Mn	0.07356 0.39945 0.79405 1.23500
H 	H 	0.38110 0.31220 0.00790 0.08400
H 	H 	0.52240 0.45270 0.05050 0.03800
H 	H 	0.76040 0.48130 0.02620 0.05900
H 	H 	0.70630 0.23670 0.91660 0.05900
H 	H 	0.91440 0.25420 0.04770 0.06700
H 	H 	0.94570 0.23560 0.13910 0.05200
H 	H 	0.05850 0.37020 0.19130 0.05400
H 	H 	0.15540 0.54020 0.05970 0.05800
H 	H 	0.36810 0.56200 0.95700 0.05600
H 	H 	0.57700 0.62070 0.91800 0.00700
H 	H 	0.57950 0.59300 0.82310 0.09900
H 	H 	0.39180 0.50330 0.77800 0.01800
H 	H 	0.87930 0.97480 0.50830 0.01100
H 	H 	0.08260 0.92140 0.46880 0.08400
H 	H 	0.08270 0.92520 0.37690 0.03600
H 	H 	0.88230 0.00610 0.32680 0.06300
H 	H 	0.23940 0.00420 0.24070 0.01900
H 	H 	0.00180 0.02180 0.20400 0.10200
H 	H 	0.85640 0.16330 0.23020 -0.00700
H 	H 	0.17030 0.27660 0.33330 0.01600
H 	H 	0.63260 0.99560 0.21450 0.05900
H 	H 	0.51890 0.17790 0.08190 0.04900
H 	H 	0.39930 0.30560 0.13330 0.05900
H 	H 	0.37700 0.27760 0.22200 0.06000
H 	H 	0.38110 0.68780 0.50790 0.04600
H 	H 	0.52240 0.54730 0.55050 0.05200
H 	H 	0.76040 0.51870 0.52620 0.05600
H 	H 	0.70630 0.76330 0.41660 0.05700
H 	H 	0.91440 0.74580 0.54770 0.05700
H 	H 	0.94570 0.76440 0.63910 0.05700
H 	H 	0.05850 0.62980 0.69130 0.05100
H 	H 	0.15540 0.45980 0.55970 0.04800
H 	H 	0.36810 0.43800 0.45700 0.06100
H 	H 	0.57700 0.37930 0.41800 0.00900
H 	H 	0.57950 0.40700 0.32310 0.09900
H 	H 	0.39180 0.49670 0.27800 0.01800
H 	H 	0.87930 0.02520 0.00830 0.03600
H 	H 	0.08260 0.07860 0.96880 0.07100
H 	H 	0.08270 0.07480 0.87690 0.04100
H 	H 	0.88230 0.99390 0.82680 0.06000
H 	H 	0.23940 0.99580 0.74070 0.01900
H 	H 	0.00180 0.97820 0.70400 0.10100
H 	H 	0.85640 0.83670 0.73020 -0.00700
H 	H 	0.17030 0.72340 0.83330 0.01500
H 	H 	0.63260 0.00440 0.71450 0.05800
H 	H 	0.51890 0.82210 0.58190 0.04500
H 	H 	0.39930 0.69440 0.63330 0.05900
H 	H 	0.37700 0.72240 0.72200 0.05900
C 	C 	0.52520 0.26590 0.95600 -0.05400
C 	C 	0.47470 0.32700 0.99740 -0.07900
C 	C 	0.55880 0.40920 0.02340 0.00100
C 	C 	0.70100 0.42650 0.00830 -0.04400
C 	C 	0.75410 0.36600 0.96850 -0.00700
C 	C 	0.66830 0.28210 0.94270 -0.03700
C 	C 	0.89770 0.38430 0.95190 0.06900
C 	C 	0.02190 0.41320 0.98650 -0.00300
C 	C 	0.03030 0.40040 0.04410 0.00800
C 	C 	0.96750 0.30890 0.06820 -0.04100
C 	C 	0.98440 0.29960 0.12310 0.01000
C 	C 	0.05330 0.37740 0.15410 -0.05200
C 	C 	0.11850 0.47100 0.13020 -0.08000
C 	C 	0.10880 0.47990 0.07570 -0.02900
C 	C 	0.13990 0.45280 0.91350 0.08100
C 	C 	0.26790 0.49720 0.88920 0.05200
C 	C 	0.37720 0.55050 0.92060 -0.10200
C 	C 	0.49870 0.58620 0.89790 0.03000
C 	C 	0.50020 0.56780 0.84120 -0.11200
C 	C 	0.38800 0.51490 0.81470 0.06900
C 	C 	0.87920 0.98040 0.47120 0.08400
C 	C 	0.00040 0.94740 0.44790 -0.13000
C 	C 	0.00210 0.95250 0.39360 -0.01000
C 	C 	0.88320 0.99840 0.36380 -0.05400
C 	C 	0.76710 0.03200 0.39080 0.04400
C 	C 	0.63620 0.07700 0.36180 0.09400
C 	C 	0.50670 0.11370 0.28470 0.04800
C 	C 	0.38240 0.13120 0.31360 0.06200
C 	C 	0.23700 0.14390 0.29040 -0.06200
C 	C 	0.18040 0.06350 0.25150 0.04100
C 	C 	0.03860 0.07380 0.22990 -0.20600
C 	C 	0.95240 0.15740 0.24560 0.18800
C 	C 	0.00070 0.23230 0.28270 -0.23100
C 	C 	0.13980 0.22540 0.30620 0.06700
C 	C 	0.50420 0.13010 0.22660 0.01700
C 	C 	0.58220 0.05700 0.19790 -0.02400
C 	C 	0.58510 0.07630 0.14300 -0.07300
C 	C 	0.51670 0.16630 0.11870 -0.00600
C 	C 	0.44290 0.24130 0.14980 -0.03500
C 	C 	0.43060 0.22710 0.20230 -0.04000
C 	C 	0.52520 0.73410 0.45600 -0.07600
C 	C 	0.47470 0.67300 0.49740 -0.00300
C 	C 	0.55880 0.59080 0.52340 -0.04900
C 	C 	0.70100 0.57350 0.50830 -0.04900
C 	C 	0.75410 0.63400 0.46850 0.00700
C 	C 	0.66830 0.71790 0.44270 -0.02800
C 	C 	0.89770 0.61570 0.45190 0.06300
C 	C 	0.02190 0.58680 0.48650 0.02200
C 	C 	0.03030 0.59960 0.54410 -0.02000
C 	C 	0.96750 0.69110 0.56820 -0.02500
C 	C 	0.98440 0.70040 0.62310 -0.00300
C 	C 	0.05330 0.62260 0.65410 -0.04200
C 	C 	0.11850 0.52900 0.63020 -0.08900
C 	C 	0.10880 0.52010 0.57570 -0.01400
C 	C 	0.13990 0.54720 0.41350 0.08200
C 	C 	0.26790 0.50280 0.38920 0.05300
C 	C 	0.37720 0.44950 0.42060 -0.10200
C 	C 	0.49870 0.41380 0.39790 0.03100
C 	C 	0.50020 0.43220 0.34120 -0.11200
C 	C 	0.38800 0.48510 0.31470 0.06900
C 	C 	0.87920 0.01960 0.97120 0.04400
C 	C 	0.00040 0.05260 0.94790 -0.10600
C 	C 	0.00210 0.04750 0.89360 -0.02600
C 	C 	0.88320 0.00160 0.86380 -0.04400
C 	C 	0.76710 0.96800 0.89080 0.03900
C 	C 	0.63620 0.92300 0.86180 0.09500
C 	C 	0.50670 0.88630 0.78470 0.04800
C 	C 	0.38240 0.86880 0.81360 0.06200
C 	C 	0.23700 0.85610 0.79040 -0.06200
C 	C 	0.18040 0.93650 0.75150 0.04100
C 	C 	0.03860 0.92620 0.72990 -0.20600
C 	C 	0.95240 0.84260 0.74560 0.18800
C 	C 	0.00070 0.76770 0.78270 -0.23100
C 	C 	0.13980 0.77460 0.80620 0.06700
C 	C 	0.50420 0.86990 0.72660 0.01600
C 	C 	0.58220 0.94300 0.69790 -0.02300
C 	C 	0.58510 0.92370 0.64300 -0.07500
C 	C 	0.51670 0.83370 0.61870 -0.00500
C 	C 	0.44290 0.75870 0.64980 -0.03700
C 	C 	0.43060 0.77290 0.70230 -0.03900
S 	S 	0.41740 0.16210 0.92317 0.48200
S 	S 	0.22060 0.56710 0.16948 0.56200
S 	S 	0.68730 0.98380 0.10583 0.53600
S 	S 	0.88980 0.34410 0.30183 0.67100
S 	S 	0.41740 0.83790 0.42317 0.49200
S 	S 	0.22060 0.43290 0.66948 0.56500
S 	S 	0.68730 0.01620 0.60583 0.53700
S 	S 	0.88980 0.65590 0.80183 0.67100
N 	N 	0.91240 0.37400 0.90060 -0.08500
N 	N 	0.03810 0.40190 0.88120 -0.21000
N 	N 	0.14000 0.45380 0.96650 -0.11900
N 	N 	0.27230 0.47790 0.83710 -0.23100
N 	N 	0.53070 0.11470 0.39110 -0.20500
N 	N 	0.39980 0.13950 0.36510 -0.10100
N 	N 	0.62880 0.08350 0.30910 -0.11600
N 	N 	0.75870 0.02070 0.44330 -0.23200
N 	N 	0.91240 0.62600 0.40060 -0.08400
N 	N 	0.03810 0.59810 0.38120 -0.21000
N 	N 	0.14000 0.54620 0.46650 -0.11900
N 	N 	0.27230 0.52210 0.33710 -0.23100
N 	N 	0.53070 0.88530 0.89110 -0.20600
N 	N 	0.39980 0.86050 0.86510 -0.10100
N 	N 	0.62880 0.91650 0.80910 -0.11700
N 	N 	0.75870 0.97930 0.94330 -0.22800
O 	O 	0.41960 0.06700 0.95970 -0.42400
O 	O 	0.27140 0.21160 0.91420 -0.27000
O 	O 	0.48130 0.13530 0.87480 -0.27100
O 	O 	0.16170 0.56910 0.21950 -0.46600
O 	O 	0.20230 0.67170 0.14270 -0.28900
O 	O 	0.36680 0.52380 0.17440 -0.27000
O 	O 	0.88520 0.33660 0.35520 -0.31500
O 	O 	0.75260 0.33090 0.27150 -0.29000
O 	O 	0.96020 0.44400 0.28690 -0.46000
O 	O 	0.68380 0.87600 0.12790 -0.28800
O 	O 	0.61780 0.99090 0.05230 -0.45600
O 	O 	0.83530 0.02430 0.10980 -0.26400
O 	O 	0.41960 0.93300 0.45970 -0.42100
O 	O 	0.27140 0.78840 0.41420 -0.27000
O 	O 	0.48130 0.86470 0.37480 -0.27300
O 	O 	0.16170 0.43090 0.71950 -0.46700
O 	O 	0.20230 0.32830 0.64270 -0.29200
O 	O 	0.36680 0.47620 0.67440 -0.27100
O 	O 	0.88520 0.66340 0.85520 -0.31700
O 	O 	0.75260 0.66910 0.77150 -0.29000
O 	O 	0.96020 0.55600 0.78690 -0.46000
O 	O 	0.68380 0.12400 0.62790 -0.29100
O 	O 	0.61780 0.00910 0.55230 -0.46500
O 	O 	0.83530 0.97570 0.60980 -0.26500
