data_crystal

_cell_length_a 31.11620
_cell_length_b 31.11620
_cell_length_c 31.11620
_cell_angle_alpha 109.47100
_cell_angle_beta  109.47100
_cell_angle_gamma 109.47100

_symmetry_space_group_name_	'P 1'
_symmetry_space_group_name_H-M	'P 1'

loop_
_symmetry_equiv_pos_as_xyz
  x,y,z

loop_
_atom_site_label
_atom_site_type_symbol
_atom_site_fract_x
_atom_site_fract_y
_atom_site_fract_z
_atom_site_charge
Zn	Zn	0.89039 0.75000 0.64039 1.24700
Zn	Zn	0.60961 0.25000 0.85961 1.24900
Zn	Zn	0.14039 0.89039 0.25000 1.24700
Zn	Zn	0.35961 0.60961 0.75000 1.24900
Zn	Zn	0.25000 0.35961 0.10961 1.24600
Zn	Zn	0.75000 0.14039 0.39039 1.24800
Zn	Zn	0.75000 0.60961 0.85961 1.24800
Zn	Zn	0.25000 0.89039 0.64039 1.24600
Zn	Zn	0.60961 0.35961 0.25000 1.24800
Zn	Zn	0.89039 0.14039 0.75000 1.24600
Zn	Zn	0.14039 0.25000 0.39039 1.24800
Zn	Zn	0.35961 0.75000 0.10961 1.24600
Zn	Zn	0.75000 0.50064 0.49936 1.24400
Zn	Zn	0.50128 0.25064 0.00064 1.23400
Zn	Zn	0.99872 0.99936 0.74936 1.22700
Zn	Zn	0.75000 0.24936 0.75064 1.24300
Zn	Zn	0.24936 0.99872 0.49936 1.23500
Zn	Zn	0.25064 0.75000 0.74936 1.24300
Zn	Zn	0.99936 0.75000 0.00064 1.22500
Zn	Zn	0.50064 0.50128 0.75064 1.24400
Zn	Zn	0.25064 0.50064 0.00128 1.23400
Zn	Zn	0.50064 0.99936 0.25000 1.23500
Zn	Zn	0.24936 0.25064 0.25000 1.24300
Zn	Zn	0.99936 0.24936 0.49872 1.23500
H 	H 	0.61790 0.61530 0.58740 0.15200
H 	H 	0.92150 0.72050 0.80760 0.09300
H 	H 	0.00570 0.93120 0.88030 0.15400
H 	H 	0.00450 0.85560 0.94190 0.15300
H 	H 	0.59960 0.52240 0.47640 0.09500
H 	H 	0.69700 0.66790 0.59610 0.10300
H 	H 	0.96320 0.85630 0.80730 0.11700
H 	H 	0.74900 0.59520 0.51440 0.06700
H 	H 	0.52790 0.03050 0.91260 0.16300
H 	H 	0.41290 0.11390 0.69240 0.09100
H 	H 	0.55090 0.12540 0.61970 0.15100
H 	H 	0.41370 0.06260 0.55810 0.11200
H 	H 	0.54600 0.12320 0.02360 0.10300
H 	H 	0.57180 0.10090 0.90390 0.11100
H 	H 	0.54900 0.15590 0.69270 0.12300
H 	H 	0.58080 0.23460 0.98560 0.06200
H 	H 	0.97210 0.88470 0.50260 0.14400
H 	H 	0.08710 0.77950 0.70100 0.12200
H 	H 	0.94910 0.56880 0.57450 0.15400
H 	H 	0.08630 0.64440 0.64890 0.13500
H 	H 	0.95400 0.97760 0.57720 0.08500
H 	H 	0.92820 0.83210 0.52910 0.10100
H 	H 	0.95100 0.64370 0.60690 0.17200
H 	H 	0.91920 0.90480 0.65380 0.06900
H 	H 	0.88210 0.46950 0.99740 0.15500
H 	H 	0.57850 0.38610 0.79900 0.08900
H 	H 	0.49430 0.37460 0.92550 0.15500
H 	H 	0.49550 0.43740 0.85110 0.10800
H 	H 	0.90040 0.37680 0.92280 0.09800
H 	H 	0.80300 0.39910 0.97090 0.10700
H 	H 	0.53680 0.34410 0.89310 0.12300
H 	H 	0.75100 0.26540 0.84620 0.06900
H 	H 	0.00260 0.97210 0.38470 0.14900
H 	H 	0.20100 0.08710 0.27950 0.12000
H 	H 	0.07450 0.94910 0.06880 0.15200
H 	H 	0.14890 0.08630 0.14440 0.13300
H 	H 	0.07720 0.95400 0.47760 0.09300
H 	H 	0.02910 0.92820 0.33210 0.10300
H 	H 	0.10690 0.95100 0.14370 0.16900
H 	H 	0.15380 0.91920 0.40480 0.06700
H 	H 	0.49740 0.88210 0.96950 0.15900
H 	H 	0.29900 0.57850 0.88610 0.09100
H 	H 	0.42550 0.49430 0.87460 0.15100
H 	H 	0.35110 0.49550 0.93740 0.11300
H 	H 	0.42280 0.90040 0.87680 0.09300
H 	H 	0.47090 0.80300 0.89910 0.10600
H 	H 	0.39310 0.53680 0.84410 0.12300
H 	H 	0.34620 0.75100 0.76540 0.06800
H 	H 	0.08740 0.61790 0.11530 0.15400
H 	H 	0.30760 0.92150 0.22050 0.09100
H 	H 	0.38030 0.00570 0.43120 0.15900
H 	H 	0.44190 0.00450 0.35560 0.14700
H 	H 	0.97640 0.59960 0.02240 0.09800
H 	H 	0.09610 0.69700 0.16790 0.10900
H 	H 	0.30730 0.96320 0.35630 0.11700
H 	H 	0.01440 0.74900 0.09520 0.06500
H 	H 	0.41260 0.52790 0.53050 0.15200
H 	H 	0.19240 0.41290 0.61390 0.09100
H 	H 	0.11970 0.55090 0.62540 0.15000
H 	H 	0.05810 0.41370 0.56260 0.11400
H 	H 	0.52360 0.54600 0.62320 0.09500
H 	H 	0.40390 0.57180 0.60090 0.10400
H 	H 	0.19270 0.54900 0.65590 0.12300
H 	H 	0.48560 0.58080 0.73460 0.06800
H 	H 	0.03050 0.41260 0.02790 0.15300
H 	H 	0.11390 0.19240 0.91290 0.12700
H 	H 	0.12540 0.11970 0.05090 0.15500
H 	H 	0.06260 0.05810 0.91370 0.14800
H 	H 	0.12320 0.52360 0.04600 0.08900
H 	H 	0.10090 0.40390 0.07180 0.10300
H 	H 	0.15590 0.19270 0.04900 0.17700
H 	H 	0.23460 0.48560 0.08080 0.06600
H 	H 	0.61530 0.08740 0.11790 0.15200
H 	H 	0.72050 0.30760 0.42150 0.08800
H 	H 	0.93120 0.38030 0.50570 0.14400
H 	H 	0.85560 0.44190 0.50450 0.10600
H 	H 	0.52240 0.97640 0.09960 0.09800
H 	H 	0.66790 0.09610 0.19700 0.10400
H 	H 	0.85630 0.30730 0.46320 0.12000
H 	H 	0.59520 0.01440 0.24900 0.06100
H 	H 	0.46950 0.49740 0.38210 0.15200
H 	H 	0.38610 0.29900 0.07850 0.09300
H 	H 	0.37460 0.42550 0.99430 0.16000
H 	H 	0.43740 0.35110 0.99550 0.15200
H 	H 	0.37680 0.42280 0.40040 0.09500
H 	H 	0.39910 0.47090 0.30300 0.10300
H 	H 	0.34410 0.39310 0.03680 0.11700
H 	H 	0.26540 0.34620 0.25100 0.06800
H 	H 	0.88470 0.00260 0.47210 0.15600
H 	H 	0.77950 0.20100 0.58710 0.08800
H 	H 	0.56880 0.07450 0.44910 0.15400
H 	H 	0.64440 0.14890 0.58630 0.10700
H 	H 	0.97760 0.07720 0.45400 0.09600
H 	H 	0.83210 0.02910 0.42820 0.10900
H 	H 	0.64370 0.10690 0.45100 0.12300
H 	H 	0.90480 0.15380 0.41920 0.07200
H 	H 	0.88470 0.88210 0.91260 0.15200
H 	H 	0.77950 0.57850 0.69240 0.08800
H 	H 	0.56880 0.49430 0.61970 0.15000
H 	H 	0.64440 0.49550 0.55810 0.10700
H 	H 	0.97760 0.90040 0.02360 0.09600
H 	H 	0.83210 0.80300 0.90390 0.10800
H 	H 	0.64370 0.53680 0.69270 0.12200
H 	H 	0.90480 0.75100 0.98560 0.06400
H 	H 	0.46950 0.97210 0.58740 0.14500
H 	H 	0.38610 0.08710 0.80760 0.12300
H 	H 	0.37460 0.94910 0.88030 0.15400
H 	H 	0.43740 0.08630 0.94190 0.14200
H 	H 	0.37680 0.95400 0.47640 0.08800
H 	H 	0.39910 0.92820 0.59610 0.10000
H 	H 	0.34410 0.95100 0.80730 0.17200
H 	H 	0.26540 0.91920 0.51440 0.06600
H 	H 	0.61530 0.52790 0.99740 0.15600
H 	H 	0.72050 0.41290 0.79900 0.08900
H 	H 	0.93120 0.55090 0.92550 0.14900
H 	H 	0.85560 0.41370 0.85110 0.10600
H 	H 	0.52240 0.54600 0.92280 0.10000
H 	H 	0.66790 0.57180 0.97090 0.10700
H 	H 	0.85630 0.54900 0.89310 0.12200
H 	H 	0.59520 0.58080 0.84620 0.06900
H 	H 	0.03050 0.61790 0.50260 0.16000
H 	H 	0.11390 0.92150 0.70100 0.09400
H 	H 	0.12540 0.00570 0.57450 0.15900
H 	H 	0.06260 0.00450 0.64890 0.15100
H 	H 	0.12320 0.59960 0.57720 0.09600
H 	H 	0.10090 0.69700 0.52910 0.10700
H 	H 	0.15590 0.96320 0.60690 0.11900
H 	H 	0.23460 0.74900 0.65380 0.06800
H 	H 	0.52790 0.49740 0.11530 0.15100
H 	H 	0.41290 0.29900 0.22050 0.08800
H 	H 	0.55090 0.42550 0.43120 0.15000
H 	H 	0.41370 0.35110 0.35560 0.10700
H 	H 	0.54600 0.42280 0.02240 0.09100
H 	H 	0.57180 0.47090 0.16790 0.10500
H 	H 	0.54900 0.39310 0.35630 0.12200
H 	H 	0.58080 0.34620 0.09520 0.07100
H 	H 	0.61790 0.00260 0.53050 0.15600
H 	H 	0.92150 0.20100 0.61390 0.09200
H 	H 	0.00570 0.07450 0.62540 0.16300
H 	H 	0.00450 0.14890 0.56260 0.14700
H 	H 	0.59960 0.07720 0.62320 0.10000
H 	H 	0.69700 0.02910 0.60090 0.10800
H 	H 	0.96320 0.10690 0.65590 0.11900
H 	H 	0.74900 0.15380 0.73460 0.06900
H 	H 	0.88210 0.41260 0.38470 0.15000
H 	H 	0.57850 0.19240 0.27950 0.09000
H 	H 	0.49430 0.11970 0.06880 0.14400
H 	H 	0.49550 0.05810 0.14440 0.11200
H 	H 	0.90040 0.52360 0.47760 0.09200
H 	H 	0.80300 0.40390 0.33210 0.10100
H 	H 	0.53680 0.19270 0.14370 0.12100
H 	H 	0.75100 0.48560 0.40480 0.06700
H 	H 	0.97210 0.08740 0.96950 0.15700
H 	H 	0.08710 0.30760 0.88610 0.12300
H 	H 	0.94910 0.38030 0.87460 0.15500
H 	H 	0.08630 0.44190 0.93740 0.14000
H 	H 	0.95400 0.97640 0.87680 0.09600
H 	H 	0.92820 0.09610 0.89910 0.10700
H 	H 	0.95100 0.30730 0.84410 0.17200
H 	H 	0.91920 0.01440 0.76540 0.06100
H 	H 	0.08740 0.46950 0.47210 0.15400
H 	H 	0.30760 0.38610 0.58710 0.08900
H 	H 	0.38030 0.37460 0.44910 0.15000
H 	H 	0.44190 0.43740 0.58630 0.10700
H 	H 	0.97640 0.37680 0.45400 0.10100
H 	H 	0.09610 0.39910 0.42820 0.10700
H 	H 	0.30730 0.34410 0.45100 0.12200
H 	H 	0.01440 0.26540 0.41920 0.06200
H 	H 	0.41260 0.88470 0.38210 0.15200
H 	H 	0.19240 0.77950 0.07850 0.09300
H 	H 	0.11970 0.56880 0.99430 0.16000
H 	H 	0.05810 0.64440 0.99550 0.15700
H 	H 	0.52360 0.97760 0.40040 0.09100
H 	H 	0.40390 0.83210 0.30300 0.10500
H 	H 	0.19270 0.64370 0.03680 0.11800
H 	H 	0.48560 0.90480 0.25100 0.07000
H 	H 	0.00260 0.03050 0.11790 0.16200
H 	H 	0.20100 0.11390 0.42150 0.09100
H 	H 	0.07450 0.12540 0.50570 0.15500
H 	H 	0.14890 0.06260 0.50450 0.11300
H 	H 	0.07720 0.12320 0.09960 0.09800
H 	H 	0.02910 0.10090 0.19700 0.10900
H 	H 	0.10690 0.15590 0.46320 0.12400
H 	H 	0.15380 0.23460 0.24900 0.06900
H 	H 	0.49740 0.61530 0.02790 0.14400
H 	H 	0.29900 0.72050 0.91290 0.12500
H 	H 	0.42550 0.93120 0.05090 0.14800
H 	H 	0.35110 0.85560 0.91370 0.13600
H 	H 	0.42280 0.52240 0.04600 0.08700
H 	H 	0.47090 0.66790 0.07180 0.09800
H 	H 	0.39310 0.85630 0.04900 0.17500
H 	H 	0.34620 0.59520 0.08080 0.06500
C 	C 	0.98769 0.86635 0.87892 0.17700
C 	C 	0.93801 0.75700 0.82529 -0.07000
C 	C 	0.91447 0.75699 0.73794 0.31100
C 	C 	0.55192 0.56596 0.52674 0.20900
C 	C 	0.98731 0.83793 0.90532 -0.19200
C 	C 	0.63294 0.55217 0.49739 -0.11900
C 	C 	0.64110 0.59377 0.53927 0.16800
C 	C 	0.96107 0.78290 0.87699 0.03000
C 	C 	0.69068 0.63816 0.56862 -0.13400
C 	C 	0.96308 0.83790 0.82554 -0.15000
C 	C 	0.67008 0.55169 0.48483 -0.02700
C 	C 	0.72145 0.59635 0.51932 -0.05100
C 	C 	0.73149 0.63999 0.55858 0.00500
C 	C 	0.04179 0.95936 0.95283 0.20200
C 	C 	0.78319 0.68688 0.59219 0.28400
C 	C 	0.93764 0.78305 0.79613 0.01400
C 	C 	0.66009 0.50392 0.43943 0.30600
C 	C 	0.96076 0.75276 0.90780 0.32100
C 	C 	0.48743 0.10877 0.62108 0.18300
C 	C 	0.43171 0.11272 0.67471 -0.05500
C 	C 	0.51905 0.17653 0.76206 0.31400
C 	C 	0.53922 0.02518 0.97326 0.26200
C 	C 	0.43261 0.08199 0.59468 -0.13500
C 	C 	0.55478 0.13555 0.00261 -0.16500
C 	C 	0.55450 0.10183 0.96073 0.21200
C 	C 	0.40591 0.08408 0.62301 0.01100
C 	C 	0.56954 0.12206 0.93138 -0.14500
C 	C 	0.51236 0.13754 0.67446 -0.14500
C 	C 	0.56686 0.18525 0.01517 -0.04800
C 	C 	0.57703 0.20213 0.98068 -0.01700
C 	C 	0.58141 0.17291 0.94142 0.00400
C 	C 	0.50653 0.08896 0.54717 0.21800
C 	C 	0.59469 0.19100 0.90781 0.28600
C 	C 	0.48692 0.14151 0.70387 0.01200
C 	C 	0.56449 0.22066 0.06057 0.30600
C 	C 	0.34496 0.05296 0.59220 0.33100
C 	C 	0.01257 0.63365 0.62134 0.29700
C 	C 	0.06829 0.74300 0.68101 -0.14500
C 	C 	0.98095 0.74301 0.65748 0.21300
C 	C 	0.96078 0.93404 0.48596 0.19800
C 	C 	0.06739 0.66207 0.64938 -0.21100
C 	C 	0.94522 0.94783 0.58077 -0.13400
C 	C 	0.94550 0.90623 0.54733 0.16600
C 	C 	0.09409 0.71710 0.67817 0.07500
C 	C 	0.93046 0.86184 0.55252 -0.13900
C 	C 	0.98764 0.66210 0.62518 -0.30600
C 	C 	0.93314 0.94831 0.61839 -0.01400
C 	C 	0.92297 0.90365 0.62510 -0.06600
C 	C 	0.91859 0.86001 0.59150 0.00800
C 	C 	0.99347 0.54064 0.58243 0.19100
C 	C 	0.90531 0.81312 0.59631 0.28000
C 	C 	0.01308 0.71695 0.65459 0.14700
C 	C 	0.93551 0.99608 0.65617 0.23600
C 	C 	0.15504 0.74724 0.70800 0.30900
C 	C 	0.51231 0.39123 0.87866 0.18200
C 	C 	0.56199 0.38728 0.81899 -0.05400
C 	C 	0.58553 0.32347 0.84252 0.31400
C 	C 	0.94808 0.47482 0.01404 0.17700
C 	C 	0.51269 0.41801 0.85062 -0.13500
C 	C 	0.86706 0.36445 0.91923 -0.11900
C 	C 	0.85890 0.39817 0.95267 0.17200
C 	C 	0.53893 0.41592 0.82183 0.00600
C 	C 	0.80932 0.37794 0.94748 -0.13500
C 	C 	0.53692 0.36246 0.87482 -0.14500
C 	C 	0.82992 0.31475 0.88161 -0.02500
C 	C 	0.77855 0.29787 0.87490 -0.05200
C 	C 	0.76851 0.32709 0.90850 0.00900
C 	C 	0.45821 0.41104 0.91757 0.21900
C 	C 	0.71681 0.30900 0.90369 0.28300
C 	C 	0.56236 0.35849 0.84541 0.01000
C 	C 	0.83991 0.27934 0.84383 0.30500
C 	C 	0.53924 0.44704 0.79200 0.33200
C 	C 	0.12134 0.01257 0.13365 0.29000
C 	C 	0.18101 0.06829 0.24300 -0.14000
C 	C 	0.15748 0.98095 0.24301 0.21800
C 	C 	0.98596 0.96078 0.43404 0.17700
C 	C 	0.14938 0.06739 0.16207 -0.20700
C 	C 	0.08077 0.94522 0.44783 -0.11800
C 	C 	0.04733 0.94550 0.40623 0.16600
C 	C 	0.17817 0.09409 0.21710 0.07000
C 	C 	0.05252 0.93046 0.36184 -0.13400
C 	C 	0.12518 0.98764 0.16210 -0.29700
C 	C 	0.11839 0.93314 0.44831 -0.02900
C 	C 	0.12510 0.92297 0.40365 -0.05200
C 	C 	0.09150 0.91859 0.36001 0.00400
C 	C 	0.08243 0.99347 0.04064 0.17200
C 	C 	0.09631 0.90531 0.31312 0.28200
C 	C 	0.15459 0.01308 0.21695 0.14000
C 	C 	0.15617 0.93551 0.49608 0.30300
C 	C 	0.20800 0.15504 0.24724 0.31100
C 	C 	0.37866 0.51231 0.89123 0.18400
C 	C 	0.31899 0.56199 0.88728 -0.05500
C 	C 	0.34252 0.58553 0.82347 0.31400
C 	C 	0.51404 0.94808 0.97482 0.23200
C 	C 	0.35062 0.51269 0.91801 -0.13500
C 	C 	0.41923 0.86706 0.86445 -0.12200
C 	C 	0.45267 0.85890 0.89817 0.17100
C 	C 	0.32183 0.53893 0.91592 0.01300
C 	C 	0.44748 0.80932 0.87794 -0.13600
C 	C 	0.37482 0.53692 0.86246 -0.14500
C 	C 	0.38161 0.82992 0.81475 -0.02700
C 	C 	0.37490 0.77855 0.79787 -0.05300
C 	C 	0.40850 0.76851 0.82709 0.00700
C 	C 	0.41757 0.45821 0.91104 0.21900
C 	C 	0.40369 0.71681 0.80900 0.28300
C 	C 	0.34541 0.56236 0.85849 0.01300
C 	C 	0.34383 0.83991 0.77934 0.30500
C 	C 	0.29200 0.53924 0.94704 0.33100
C 	C 	0.37892 0.98769 0.36635 0.17600
C 	C 	0.32529 0.93801 0.25700 -0.06700
C 	C 	0.23794 0.91447 0.25699 0.31100
C 	C 	0.02674 0.55192 0.06596 0.23100
C 	C 	0.40532 0.98731 0.33793 -0.18900
C 	C 	0.99739 0.63294 0.05217 -0.17600
C 	C 	0.03927 0.64110 0.09377 0.21000
C 	C 	0.37699 0.96107 0.28290 0.02500
C 	C 	0.06862 0.69068 0.13816 -0.14900
C 	C 	0.32554 0.96308 0.33790 -0.14800
C 	C 	0.98483 0.67008 0.05169 -0.02700
C 	C 	0.01932 0.72145 0.09635 -0.03400
C 	C 	0.05858 0.73149 0.13999 0.01000
C 	C 	0.45283 0.04179 0.45936 0.22000
C 	C 	0.09219 0.78319 0.18688 0.28300
C 	C 	0.29613 0.93764 0.28305 0.01300
C 	C 	0.93943 0.66009 0.00392 0.23100
C 	C 	0.40780 0.96076 0.25276 0.32400
C 	C 	0.12108 0.48743 0.60877 0.18200
C 	C 	0.17471 0.43171 0.61272 -0.05600
C 	C 	0.26206 0.51905 0.67653 0.31300
C 	C 	0.47326 0.53922 0.52518 0.20900
C 	C 	0.09468 0.43261 0.58199 -0.13800
C 	C 	0.50261 0.55478 0.63555 -0.12000
C 	C 	0.46073 0.55450 0.60183 0.16900
C 	C 	0.12301 0.40591 0.58408 0.01100
C 	C 	0.43138 0.56954 0.62206 -0.13500
C 	C 	0.17446 0.51236 0.63754 -0.14600
C 	C 	0.51517 0.56686 0.68525 -0.02600
C 	C 	0.48068 0.57703 0.70213 -0.05200
C 	C 	0.44142 0.58141 0.67291 0.00600
C 	C 	0.04717 0.50653 0.58896 0.21800
C 	C 	0.40781 0.59469 0.69100 0.28300
C 	C 	0.20387 0.48692 0.64151 0.01200
C 	C 	0.56057 0.56449 0.72066 0.30600
C 	C 	0.09220 0.34496 0.55296 0.32900
C 	C 	0.10877 0.12108 0.98743 0.31300
C 	C 	0.11272 0.17471 0.93171 -0.15600
C 	C 	0.17653 0.26206 0.01905 0.20500
C 	C 	0.02518 0.47326 0.03922 0.22800
C 	C 	0.08199 0.09468 0.93261 -0.22100
C 	C 	0.13555 0.50261 0.05478 -0.12100
C 	C 	0.10183 0.46073 0.05450 0.16600
C 	C 	0.08408 0.12301 0.90591 0.09000
C 	C 	0.12206 0.43138 0.06954 -0.13600
C 	C 	0.13754 0.17446 0.01236 -0.32000
C 	C 	0.18525 0.51517 0.06686 -0.03100
C 	C 	0.20213 0.48068 0.07703 -0.05300
C 	C 	0.17291 0.44142 0.08141 0.00400
C 	C 	0.08896 0.04717 0.00653 0.19800
C 	C 	0.19100 0.40781 0.09469 0.28200
C 	C 	0.14151 0.20387 0.98692 0.16200
C 	C 	0.22066 0.56057 0.06449 0.30300
C 	C 	0.05296 0.09220 0.84496 0.30400
C 	C 	0.86635 0.37892 0.48769 0.17500
C 	C 	0.75700 0.32529 0.43801 -0.05200
C 	C 	0.75699 0.23794 0.41447 0.31400
C 	C 	0.56596 0.02674 0.05192 0.23000
C 	C 	0.83793 0.40532 0.48731 -0.13200
C 	C 	0.55217 0.99739 0.13294 -0.15400
C 	C 	0.59377 0.03927 0.14110 0.19900
C 	C 	0.78290 0.37699 0.46107 0.00400
C 	C 	0.63816 0.06862 0.19068 -0.13900
C 	C 	0.83790 0.32554 0.46308 -0.14200
C 	C 	0.55169 0.98483 0.17008 -0.05100
C 	C 	0.59635 0.01932 0.22145 -0.01600
C 	C 	0.63999 0.05858 0.23149 -0.00100
C 	C 	0.95936 0.45283 0.54179 0.19000
C 	C 	0.68688 0.09219 0.28319 0.28700
C 	C 	0.78305 0.29613 0.43764 0.00700
C 	C 	0.50392 0.93943 0.16009 0.30800
C 	C 	0.75276 0.40780 0.46076 0.33200
C 	C 	0.39123 0.37866 0.01231 0.17700
C 	C 	0.38728 0.31899 0.06199 -0.06900
C 	C 	0.32347 0.34252 0.08553 0.31100
C 	C 	0.47482 0.51404 0.44808 0.20900
C 	C 	0.41801 0.35062 0.01269 -0.19600
C 	C 	0.36445 0.41923 0.36706 -0.12000
C 	C 	0.39817 0.45267 0.35890 0.16900
C 	C 	0.41592 0.32183 0.03893 0.02800
C 	C 	0.37794 0.44748 0.30932 -0.13400
C 	C 	0.36246 0.37482 0.03692 -0.14900
C 	C 	0.31475 0.38161 0.32992 -0.02600
C 	C 	0.29787 0.37490 0.27855 -0.05200
C 	C 	0.32709 0.40850 0.26851 0.00600
C 	C 	0.41104 0.41757 0.95821 0.22200
C 	C 	0.30900 0.40369 0.21681 0.28400
C 	C 	0.35849 0.34541 0.06236 0.01400
C 	C 	0.27934 0.34383 0.33991 0.30600
C 	C 	0.44704 0.29200 0.03924 0.32300
C 	C 	0.63365 0.12134 0.51257 0.18100
C 	C 	0.74300 0.18101 0.56829 -0.05300
C 	C 	0.74301 0.15748 0.48095 0.31400
C 	C 	0.93404 0.98596 0.46078 0.17900
C 	C 	0.66207 0.14938 0.56739 -0.13400
C 	C 	0.94783 0.08077 0.44522 -0.13700
C 	C 	0.90623 0.04733 0.44550 0.17800
C 	C 	0.71710 0.17817 0.59409 0.00500
C 	C 	0.86184 0.05252 0.43046 -0.14300
C 	C 	0.66210 0.12518 0.48764 -0.14400
C 	C 	0.94831 0.11839 0.43314 -0.00500
C 	C 	0.90365 0.12510 0.42297 -0.06800
C 	C 	0.86001 0.09150 0.41859 0.01700
C 	C 	0.54064 0.08243 0.49347 0.21800
C 	C 	0.81312 0.09631 0.40531 0.27900
C 	C 	0.71695 0.15459 0.51308 0.00900
C 	C 	0.99608 0.15617 0.43551 0.23700
C 	C 	0.74724 0.20800 0.65504 0.33200
C 	C 	0.63365 0.51231 0.62108 0.17800
C 	C 	0.74300 0.56199 0.67471 -0.05200
C 	C 	0.74301 0.58553 0.76206 0.31400
C 	C 	0.93404 0.94808 0.97326 0.22900
C 	C 	0.66207 0.51269 0.59468 -0.13400
C 	C 	0.94783 0.86706 0.00261 -0.17600
C 	C 	0.90623 0.85890 0.96073 0.20900
C 	C 	0.71710 0.53893 0.62301 0.00500
C 	C 	0.86184 0.80932 0.93138 -0.14700
C 	C 	0.66210 0.53692 0.67446 -0.14300
C 	C 	0.94831 0.82992 0.01517 -0.03300
C 	C 	0.90365 0.77855 0.98068 -0.02900
C 	C 	0.86001 0.76851 0.94142 0.00700
C 	C 	0.54064 0.45821 0.54717 0.21400
C 	C 	0.81312 0.71681 0.90781 0.28400
C 	C 	0.71695 0.56236 0.70387 0.00800
C 	C 	0.99608 0.83991 0.06057 0.23800
C 	C 	0.74724 0.53924 0.59220 0.33200
C 	C 	0.39123 0.01257 0.87892 0.29900
C 	C 	0.38728 0.06829 0.82529 -0.14700
C 	C 	0.32347 0.98095 0.73794 0.21400
C 	C 	0.47482 0.96078 0.52674 0.20300
C 	C 	0.41801 0.06739 0.90532 -0.21400
C 	C 	0.36445 0.94522 0.49739 -0.11800
C 	C 	0.39817 0.94550 0.53927 0.16200
C 	C 	0.41592 0.09409 0.87699 0.07900
C 	C 	0.37794 0.93046 0.56862 -0.13300
C 	C 	0.36246 0.98764 0.82554 -0.30500
C 	C 	0.31475 0.93314 0.48483 -0.03200
C 	C 	0.29787 0.92297 0.51932 -0.05100
C 	C 	0.32709 0.91859 0.55858 0.00100
C 	C 	0.41104 0.99347 0.95283 0.19600
C 	C 	0.30900 0.90531 0.59219 0.28300
C 	C 	0.35849 0.01308 0.79613 0.14700
C 	C 	0.27934 0.93551 0.43943 0.30400
C 	C 	0.44704 0.15504 0.90780 0.30600
C 	C 	0.86635 0.48743 0.87866 0.17800
C 	C 	0.75700 0.43171 0.81899 -0.05200
C 	C 	0.75699 0.51905 0.84252 0.31400
C 	C 	0.56596 0.53922 0.01404 0.18000
C 	C 	0.83793 0.43261 0.85062 -0.13300
C 	C 	0.55217 0.55478 0.91923 -0.12000
C 	C 	0.59377 0.55450 0.95267 0.17400
C 	C 	0.78290 0.40591 0.82183 0.00500
C 	C 	0.63816 0.56954 0.94748 -0.13500
C 	C 	0.83790 0.51236 0.87482 -0.14300
C 	C 	0.55169 0.56686 0.88161 -0.02400
C 	C 	0.59635 0.57703 0.87490 -0.05300
C 	C 	0.63999 0.58141 0.90850 0.00900
C 	C 	0.95936 0.50653 0.91757 0.19500
C 	C 	0.68688 0.59469 0.90369 0.28200
C 	C 	0.78305 0.48692 0.84541 0.00900
C 	C 	0.50392 0.56449 0.84383 0.30500
C 	C 	0.75276 0.34496 0.79200 0.33200
C 	C 	0.10877 0.98769 0.62134 0.18100
C 	C 	0.11272 0.93801 0.68101 -0.06900
C 	C 	0.17653 0.91447 0.65748 0.31100
C 	C 	0.02518 0.55192 0.48596 0.23400
C 	C 	0.08199 0.98731 0.64938 -0.18900
C 	C 	0.13555 0.63294 0.58077 -0.12300
C 	C 	0.10183 0.64110 0.54733 0.17400
C 	C 	0.08408 0.96107 0.67817 0.03100
C 	C 	0.12206 0.69068 0.55252 -0.13700
C 	C 	0.13754 0.96308 0.62518 -0.15000
C 	C 	0.18525 0.67008 0.61839 -0.02400
C 	C 	0.20213 0.72145 0.62510 -0.05400
C 	C 	0.17291 0.73149 0.59150 0.00900
C 	C 	0.08896 0.04179 0.58243 0.22500
C 	C 	0.19100 0.78319 0.59631 0.28300
C 	C 	0.14151 0.93764 0.65459 0.01600
C 	C 	0.22066 0.66009 0.65617 0.30500
C 	C 	0.05296 0.96076 0.70800 0.32300
C 	C 	0.48743 0.37866 0.36635 0.17800
C 	C 	0.43171 0.31899 0.25700 -0.05200
C 	C 	0.51905 0.34252 0.25699 0.31400
C 	C 	0.53922 0.51404 0.06596 0.20400
C 	C 	0.43261 0.35062 0.33793 -0.13400
C 	C 	0.55478 0.41923 0.05217 -0.13800
C 	C 	0.55450 0.45267 0.09377 0.17300
C 	C 	0.40591 0.32183 0.28290 0.00500
C 	C 	0.56954 0.44748 0.13816 -0.14200
C 	C 	0.51236 0.37482 0.33790 -0.14300
C 	C 	0.56686 0.38161 0.05169 -0.00600
C 	C 	0.57703 0.37490 0.09635 -0.06900
C 	C 	0.58141 0.40850 0.13999 0.01400
C 	C 	0.50653 0.41757 0.45936 0.21400
C 	C 	0.59469 0.40369 0.18688 0.28000
C 	C 	0.48692 0.34541 0.28305 0.00900
C 	C 	0.56449 0.34383 0.00392 0.23000
C 	C 	0.34496 0.29200 0.25276 0.33200
C 	C 	0.98769 0.12134 0.60877 0.17900
C 	C 	0.93801 0.18101 0.61272 -0.06800
C 	C 	0.91447 0.15748 0.67653 0.31100
C 	C 	0.55192 0.98596 0.52518 0.18400
C 	C 	0.98731 0.14938 0.58199 -0.19000
C 	C 	0.63294 0.08077 0.63555 -0.12100
C 	C 	0.64110 0.04733 0.60183 0.17400
C 	C 	0.96107 0.17817 0.58408 0.02600
C 	C 	0.69068 0.05252 0.62206 -0.13600
C 	C 	0.96308 0.12518 0.63754 -0.15000
C 	C 	0.67008 0.11839 0.68525 -0.02300
C 	C 	0.72145 0.12510 0.70213 -0.05300
C 	C 	0.73149 0.09150 0.67291 0.01000
C 	C 	0.04179 0.08243 0.58896 0.22500
C 	C 	0.78319 0.09631 0.69100 0.28300
C 	C 	0.93764 0.15459 0.64151 0.01400
C 	C 	0.66009 0.15617 0.72066 0.30500
C 	C 	0.96076 0.20800 0.55296 0.32400
C 	C 	0.51231 0.12108 0.13365 0.17800
C 	C 	0.56199 0.17471 0.24300 -0.05500
C 	C 	0.58553 0.26206 0.24301 0.31400
C 	C 	0.94808 0.47326 0.43404 0.20400
C 	C 	0.51269 0.09468 0.16207 -0.13600
C 	C 	0.86706 0.50261 0.44783 -0.11800
C 	C 	0.85890 0.46073 0.40623 0.16500
C 	C 	0.53893 0.12301 0.21710 0.00900
C 	C 	0.80932 0.43138 0.36184 -0.13300
C 	C 	0.53692 0.17446 0.16210 -0.14400
C 	C 	0.82992 0.51517 0.44831 -0.03000
C 	C 	0.77855 0.48068 0.40365 -0.05000
C 	C 	0.76851 0.44142 0.36001 0.00300
C 	C 	0.45821 0.04717 0.04064 0.19200
C 	C 	0.71681 0.40781 0.31312 0.28400
C 	C 	0.56236 0.20387 0.21695 0.01000
C 	C 	0.83991 0.56057 0.49608 0.30600
C 	C 	0.53924 0.09220 0.24724 0.32900
C 	C 	0.01257 0.37892 0.89123 0.29900
C 	C 	0.06829 0.32529 0.88728 -0.14500
C 	C 	0.98095 0.23794 0.82347 0.21600
C 	C 	0.96078 0.02674 0.97482 0.25600
C 	C 	0.06739 0.40532 0.91801 -0.21100
C 	C 	0.94522 0.99739 0.86445 -0.15800
C 	C 	0.94550 0.03927 0.89817 0.20200
C 	C 	0.09409 0.37699 0.91592 0.07900
C 	C 	0.93046 0.06862 0.87794 -0.14300
C 	C 	0.98764 0.32554 0.86246 -0.30300
C 	C 	0.93314 0.98483 0.81475 -0.05100
C 	C 	0.92297 0.01932 0.79787 -0.02000
C 	C 	0.91859 0.05858 0.82709 -0.00000
C 	C 	0.99347 0.45283 0.91104 0.19600
C 	C 	0.90531 0.09219 0.80900 0.28500
C 	C 	0.01308 0.29613 0.85849 0.14700
C 	C 	0.93551 0.93943 0.77934 0.30400
C 	C 	0.15504 0.40780 0.94704 0.30900
C 	C 	0.37892 0.39123 0.51257 0.17800
C 	C 	0.32529 0.38728 0.56829 -0.05300
C 	C 	0.23794 0.32347 0.48095 0.31400
C 	C 	0.02674 0.47482 0.46078 0.23600
C 	C 	0.40532 0.41801 0.56739 -0.13400
C 	C 	0.99739 0.36445 0.44522 -0.15800
C 	C 	0.03927 0.39817 0.44550 0.20400
C 	C 	0.37699 0.41592 0.59409 0.00600
C 	C 	0.06862 0.37794 0.43046 -0.14200
C 	C 	0.32554 0.36246 0.48764 -0.14400
C 	C 	0.98483 0.31475 0.43314 -0.04700
C 	C 	0.01932 0.29787 0.42297 -0.01800
C 	C 	0.05858 0.32709 0.41859 0.00200
C 	C 	0.45283 0.41104 0.49347 0.21400
C 	C 	0.09219 0.30900 0.40531 0.28600
C 	C 	0.29613 0.35849 0.51308 0.00900
C 	C 	0.93943 0.27934 0.43551 0.30700
C 	C 	0.40780 0.44704 0.65504 0.33200
C 	C 	0.12108 0.63365 0.01231 0.18000
C 	C 	0.17471 0.74300 0.06199 -0.07100
C 	C 	0.26206 0.74301 0.08553 0.31100
C 	C 	0.47326 0.93404 0.44808 0.20500
C 	C 	0.09468 0.66207 0.01269 -0.19800
C 	C 	0.50261 0.94783 0.36706 -0.13600
C 	C 	0.46073 0.90623 0.35890 0.17400
C 	C 	0.12301 0.71710 0.03893 0.03200
C 	C 	0.43138 0.86184 0.30932 -0.14100
C 	C 	0.17446 0.66210 0.03692 -0.15100
C 	C 	0.51517 0.94831 0.32992 -0.00700
C 	C 	0.48068 0.90365 0.27855 -0.06700
C 	C 	0.44142 0.86001 0.26851 0.01300
C 	C 	0.04717 0.54064 0.95821 0.22500
C 	C 	0.40781 0.81312 0.21681 0.28000
C 	C 	0.20387 0.71695 0.06236 0.01500
C 	C 	0.56057 0.99608 0.33991 0.23700
C 	C 	0.09220 0.74724 0.03924 0.32000
C 	C 	0.12134 0.10877 0.48769 0.18600
C 	C 	0.18101 0.11272 0.43801 -0.05500
C 	C 	0.15748 0.17653 0.41447 0.31400
C 	C 	0.98596 0.02518 0.05192 0.20400
C 	C 	0.14938 0.08199 0.48731 -0.13600
C 	C 	0.08077 0.13555 0.13294 -0.12200
C 	C 	0.04733 0.10183 0.14110 0.17600
C 	C 	0.17817 0.08408 0.46107 0.01200
C 	C 	0.05252 0.12206 0.19068 -0.13700
C 	C 	0.12518 0.13754 0.46308 -0.14600
C 	C 	0.11839 0.18525 0.17008 -0.02400
C 	C 	0.12510 0.20213 0.22145 -0.05400
C 	C 	0.09150 0.17291 0.23149 0.01100
C 	C 	0.08243 0.08896 0.54179 0.22300
C 	C 	0.09631 0.19100 0.28319 0.28200
C 	C 	0.15459 0.14151 0.43764 0.01300
C 	C 	0.15617 0.22066 0.16009 0.30500
C 	C 	0.20800 0.05296 0.46076 0.33100
C 	C 	0.37866 0.86635 0.98743 0.30300
C 	C 	0.31899 0.75700 0.93171 -0.15200
C 	C 	0.34252 0.75699 0.01905 0.20500
C 	C 	0.51404 0.56596 0.03922 0.20100
C 	C 	0.35062 0.83793 0.93261 -0.21600
C 	C 	0.41923 0.55217 0.05478 -0.11700
C 	C 	0.45267 0.59377 0.05450 0.15900
C 	C 	0.32183 0.78290 0.90591 0.07900
C 	C 	0.44748 0.63816 0.06954 -0.13200
C 	C 	0.37482 0.83790 0.01236 -0.31700
C 	C 	0.38161 0.55169 0.06686 -0.03400
C 	C 	0.37490 0.59635 0.07703 -0.05100
C 	C 	0.40850 0.63999 0.08141 -0.00100
C 	C 	0.41757 0.95936 0.00653 0.16600
C 	C 	0.40369 0.68688 0.09469 0.28300
C 	C 	0.34541 0.78305 0.98692 0.15700
C 	C 	0.34383 0.50392 0.06449 0.30400
C 	C 	0.29200 0.75276 0.84496 0.30800
N 	N 	0.60477 0.59384 0.55455 -0.25000
N 	N 	0.05857 0.00807 0.95760 -0.14700
N 	N 	0.52599 0.56666 0.55455 -0.17000
N 	N 	0.01146 0.92023 0.90249 -0.23900
N 	N 	0.53929 0.05022 0.94545 -0.26400
N 	N 	0.55047 0.10097 0.54240 -0.17900
N 	N 	0.51211 0.97144 0.94545 -0.19200
N 	N 	0.51774 0.10897 0.59751 -0.25100
N 	N 	0.96071 0.90616 0.51093 -0.25000
N 	N 	0.94953 0.49193 0.55050 -0.17400
N 	N 	0.98789 0.93334 0.45933 -0.17300
N 	N 	0.98226 0.57977 0.59123 -0.28300
N 	N 	0.89523 0.44978 0.98907 -0.23400
N 	N 	0.44143 0.39903 0.94950 -0.17500
N 	N 	0.97401 0.52856 0.04067 -0.18900
N 	N 	0.48854 0.39103 0.90877 -0.25200
N 	N 	0.01093 0.96071 0.40616 -0.23500
N 	N 	0.05050 0.94953 0.99193 -0.15300
N 	N 	0.95933 0.98789 0.43334 -0.17500
N 	N 	0.09123 0.98226 0.07977 -0.27700
N 	N 	0.48907 0.89523 0.94978 -0.25500
N 	N 	0.44950 0.44143 0.89903 -0.17800
N 	N 	0.54067 0.97401 0.02856 -0.20500
N 	N 	0.40877 0.48854 0.89103 -0.25100
N 	N 	0.05455 0.60477 0.09384 -0.26000
N 	N 	0.45760 0.05857 0.50807 -0.17600
N 	N 	0.05455 0.52599 0.06666 -0.17600
N 	N 	0.40249 0.01146 0.42023 -0.24300
N 	N 	0.44545 0.53929 0.55022 -0.25000
N 	N 	0.04240 0.55047 0.60097 -0.16600
N 	N 	0.44545 0.51211 0.47144 -0.17000
N 	N 	0.09751 0.51774 0.60897 -0.25200
N 	N 	0.05022 0.44545 0.03929 -0.25400
N 	N 	0.10097 0.04240 0.05047 -0.16200
N 	N 	0.97144 0.44545 0.01211 -0.19000
N 	N 	0.10897 0.09751 0.01774 -0.28500
N 	N 	0.59384 0.05455 0.10477 -0.25700
N 	N 	0.00807 0.45760 0.55857 -0.16100
N 	N 	0.56666 0.05455 0.02599 -0.19400
N 	N 	0.92023 0.40249 0.51146 -0.24700
N 	N 	0.44978 0.48907 0.39523 -0.25000
N 	N 	0.39903 0.44950 0.94143 -0.17600
N 	N 	0.52856 0.54067 0.47401 -0.17000
N 	N 	0.39103 0.40877 0.98854 -0.24200
N 	N 	0.90616 0.01093 0.46071 -0.23800
N 	N 	0.49193 0.05050 0.44953 -0.17600
N 	N 	0.93334 0.95933 0.48789 -0.17100
N 	N 	0.57977 0.09123 0.48226 -0.25200
N 	N 	0.90616 0.89523 0.94545 -0.26000
N 	N 	0.49193 0.44143 0.54240 -0.17900
N 	N 	0.93334 0.97401 0.94545 -0.19300
N 	N 	0.57977 0.48854 0.59751 -0.25100
N 	N 	0.44978 0.96071 0.55455 -0.24900
N 	N 	0.39903 0.94953 0.95760 -0.16100
N 	N 	0.52856 0.98789 0.55455 -0.17300
N 	N 	0.39103 0.98226 0.90249 -0.28300
N 	N 	0.59384 0.53929 0.98907 -0.23500
N 	N 	0.00807 0.55047 0.94950 -0.15800
N 	N 	0.56666 0.51211 0.04067 -0.17200
N 	N 	0.92023 0.51774 0.90877 -0.24800
N 	N 	0.05022 0.60477 0.51093 -0.25500
N 	N 	0.10097 0.05857 0.55050 -0.17600
N 	N 	0.97144 0.52599 0.45933 -0.18700
N 	N 	0.10897 0.01146 0.59123 -0.24300
N 	N 	0.53929 0.48907 0.09384 -0.25200
N 	N 	0.55047 0.44950 0.50807 -0.17900
N 	N 	0.51211 0.54067 0.06666 -0.17000
N 	N 	0.51774 0.40877 0.42023 -0.25100
N 	N 	0.60477 0.01093 0.55022 -0.23600
N 	N 	0.05857 0.05050 0.60097 -0.17300
N 	N 	0.52599 0.95933 0.47144 -0.17100
N 	N 	0.01146 0.09123 0.60897 -0.24400
N 	N 	0.89523 0.44545 0.40616 -0.24900
N 	N 	0.44143 0.04240 0.99193 -0.14700
N 	N 	0.97401 0.44545 0.43334 -0.18700
N 	N 	0.48854 0.09751 0.07977 -0.24700
N 	N 	0.96071 0.05455 0.94978 -0.26300
N 	N 	0.94953 0.45760 0.89903 -0.17400
N 	N 	0.98789 0.05455 0.02856 -0.19700
N 	N 	0.98226 0.40249 0.89103 -0.28200
N 	N 	0.05455 0.44978 0.46071 -0.25800
N 	N 	0.45760 0.39903 0.44953 -0.17900
N 	N 	0.05455 0.52856 0.48789 -0.17500
N 	N 	0.40249 0.39103 0.48226 -0.25100
N 	N 	0.44545 0.90616 0.39523 -0.25200
N 	N 	0.04240 0.49193 0.94143 -0.16400
N 	N 	0.44545 0.93334 0.47401 -0.17000
N 	N 	0.09751 0.57977 0.98854 -0.24300
N 	N 	0.01093 0.05022 0.10477 -0.24100
N 	N 	0.05050 0.10097 0.55857 -0.17500
N 	N 	0.95933 0.97144 0.02599 -0.20600
N 	N 	0.09123 0.10897 0.51146 -0.25200
N 	N 	0.48907 0.59384 0.03929 -0.24800
N 	N 	0.44950 0.00807 0.05047 -0.15700
N 	N 	0.54067 0.56666 0.01211 -0.17400
N 	N 	0.40877 0.92023 0.01774 -0.28100
O 	O 	0.69300 0.49161 0.43965 -0.42500
O 	O 	0.82314 0.68396 0.58976 -0.38000
O 	O 	0.89368 0.70881 0.71307 -0.26000
O 	O 	0.78998 0.73006 0.62130 -0.26700
O 	O 	0.61400 0.48435 0.39635 -0.20600
O 	O 	0.91516 0.78466 0.71650 -0.39800
O 	O 	0.99801 0.77881 0.95494 -0.44100
O 	O 	0.92678 0.70810 0.88524 -0.27200
O 	O 	0.55196 0.25335 0.06035 -0.43400
O 	O 	0.59420 0.23338 0.91024 -0.37700
O 	O 	0.49574 0.18061 0.78693 -0.25700
O 	O 	0.60876 0.16868 0.87870 -0.26200
O 	O 	0.58800 0.21765 0.10365 -0.20900
O 	O 	0.56816 0.19866 0.78350 -0.39300
O 	O 	0.32387 0.04307 0.54506 -0.43500
O 	O 	0.32286 0.04154 0.61476 -0.26500
O 	O 	0.94804 0.00839 0.70139 -0.38800
O 	O 	0.90580 0.81604 0.63918 -0.38300
O 	O 	0.00426 0.79119 0.68487 -0.21000
O 	O 	0.89124 0.76994 0.55992 -0.26900
O 	O 	0.91200 0.01565 0.62965 -0.17600
O 	O 	0.93184 0.71534 0.63050 -0.37300
O 	O 	0.17613 0.72119 0.71920 -0.44000
O 	O 	0.17714 0.79190 0.71868 -0.26900
O 	O 	0.80700 0.24665 0.79861 -0.42600
O 	O 	0.67686 0.26662 0.86082 -0.37700
O 	O 	0.60632 0.31939 0.81513 -0.25800
O 	O 	0.71002 0.33132 0.94008 -0.26100
O 	O 	0.88600 0.28235 0.87035 -0.20800
O 	O 	0.58484 0.30134 0.86950 -0.39300
O 	O 	0.50199 0.45693 0.78080 -0.44600
O 	O 	0.57322 0.45846 0.78132 -0.27500
O 	O 	0.20139 0.94804 0.50839 -0.43100
O 	O 	0.13918 0.90580 0.31604 -0.38200
O 	O 	0.18487 0.00426 0.29119 -0.21100
O 	O 	0.05992 0.89124 0.26994 -0.26600
O 	O 	0.12965 0.91200 0.51565 -0.20500
O 	O 	0.13050 0.93184 0.21534 -0.37400
O 	O 	0.21920 0.17613 0.22119 -0.44100
O 	O 	0.21868 0.17714 0.29190 -0.26800
O 	O 	0.29861 0.80700 0.74665 -0.42600
O 	O 	0.36082 0.67686 0.76662 -0.37800
O 	O 	0.31513 0.60632 0.81939 -0.25700
O 	O 	0.44008 0.71002 0.83132 -0.26400
O 	O 	0.37035 0.88600 0.78235 -0.21300
O 	O 	0.36950 0.58484 0.80134 -0.39300
O 	O 	0.28080 0.50199 0.95693 -0.43300
O 	O 	0.28132 0.57322 0.95846 -0.26400
O 	O 	0.93965 0.69300 0.99161 -0.38600
O 	O 	0.08976 0.82314 0.18396 -0.37900
O 	O 	0.21307 0.89368 0.20881 -0.26100
O 	O 	0.12130 0.78998 0.23006 -0.26400
O 	O 	0.89635 0.61400 0.98435 -0.17200
O 	O 	0.21650 0.91516 0.28466 -0.39700
O 	O 	0.45494 0.99801 0.27881 -0.45700
O 	O 	0.38524 0.92678 0.20810 -0.27700
O 	O 	0.56035 0.55196 0.75335 -0.42500
O 	O 	0.41024 0.59420 0.73338 -0.37800
O 	O 	0.28693 0.49574 0.68061 -0.25700
O 	O 	0.37870 0.60876 0.66868 -0.26500
O 	O 	0.60365 0.58800 0.71765 -0.20600
O 	O 	0.28350 0.56816 0.69866 -0.39400
O 	O 	0.04506 0.32387 0.54307 -0.43200
O 	O 	0.11476 0.32286 0.54154 -0.27100
O 	O 	0.25335 0.56035 0.05196 -0.43200
O 	O 	0.23338 0.41024 0.09420 -0.38200
O 	O 	0.18061 0.28693 0.99574 -0.20500
O 	O 	0.16868 0.37870 0.10876 -0.26700
O 	O 	0.21765 0.60365 0.08800 -0.20800
O 	O 	0.19866 0.28350 0.06816 -0.37100
O 	O 	0.04307 0.04506 0.82387 -0.41500
O 	O 	0.04154 0.11476 0.82286 -0.25500
O 	O 	0.49161 0.93965 0.19300 -0.43500
O 	O 	0.68396 0.08976 0.32314 -0.37800
O 	O 	0.70881 0.21307 0.39368 -0.25800
O 	O 	0.73006 0.12130 0.28998 -0.26700
O 	O 	0.48435 0.89635 0.11400 -0.21600
O 	O 	0.78466 0.21650 0.41516 -0.39500
O 	O 	0.77881 0.45494 0.49801 -0.44700
O 	O 	0.70810 0.38524 0.42678 -0.27500
O 	O 	0.24665 0.29861 0.30700 -0.42500
O 	O 	0.26662 0.36082 0.17686 -0.38000
O 	O 	0.31939 0.31513 0.10632 -0.26000
O 	O 	0.33132 0.44008 0.21002 -0.26500
O 	O 	0.28235 0.37035 0.38600 -0.20600
O 	O 	0.30134 0.36950 0.08484 -0.39800
O 	O 	0.45693 0.28080 0.00199 -0.45700
O 	O 	0.45846 0.28132 0.07322 -0.27500
O 	O 	0.00839 0.20139 0.44804 -0.38200
O 	O 	0.81604 0.13918 0.40580 -0.37700
O 	O 	0.79119 0.18487 0.50426 -0.25900
O 	O 	0.76994 0.05992 0.39124 -0.26100
O 	O 	0.01565 0.12965 0.41200 -0.17100
O 	O 	0.71534 0.13050 0.43184 -0.39300
O 	O 	0.72119 0.21920 0.67613 -0.44700
O 	O 	0.79190 0.21868 0.67714 -0.27600
O 	O 	0.00839 0.80700 0.06035 -0.39200
O 	O 	0.81604 0.67686 0.91024 -0.37800
O 	O 	0.79119 0.60632 0.78693 -0.25900
O 	O 	0.76994 0.71002 0.87870 -0.26500
O 	O 	0.01565 0.88600 0.10365 -0.18200
O 	O 	0.71534 0.58484 0.78350 -0.39400
O 	O 	0.72119 0.50199 0.54506 -0.44700
O 	O 	0.79190 0.57322 0.61476 -0.27600
O 	O 	0.24665 0.94804 0.43965 -0.43100
O 	O 	0.26662 0.90580 0.58976 -0.38200
O 	O 	0.31939 0.00426 0.71307 -0.21000
O 	O 	0.33132 0.89124 0.62130 -0.26900
O 	O 	0.28235 0.91200 0.39635 -0.20800
O 	O 	0.30134 0.93184 0.71650 -0.37300
O 	O 	0.45693 0.17613 0.95494 -0.42400
O 	O 	0.45846 0.17714 0.88524 -0.26400
O 	O 	0.49161 0.55196 0.79861 -0.42500
O 	O 	0.68396 0.59420 0.86082 -0.37800
O 	O 	0.70881 0.49574 0.81513 -0.25800
O 	O 	0.73006 0.60876 0.94008 -0.26200
O 	O 	0.48435 0.58800 0.87035 -0.20300
O 	O 	0.78466 0.56816 0.86950 -0.39400
O 	O 	0.77881 0.32387 0.78080 -0.44700
O 	O 	0.70810 0.32286 0.78132 -0.27500
O 	O 	0.25335 0.69300 0.70139 -0.42500
O 	O 	0.23338 0.82314 0.63918 -0.37900
O 	O 	0.18061 0.89368 0.68487 -0.25900
O 	O 	0.16868 0.78998 0.55992 -0.26300
O 	O 	0.21765 0.61400 0.62965 -0.20600
O 	O 	0.19866 0.91516 0.63050 -0.39700
O 	O 	0.04307 0.99801 0.71920 -0.44400
O 	O 	0.04154 0.92678 0.71868 -0.26500
O 	O 	0.55196 0.29861 0.99161 -0.37700
O 	O 	0.59420 0.36082 0.18396 -0.37800
O 	O 	0.49574 0.31513 0.20881 -0.25900
O 	O 	0.60876 0.44008 0.23006 -0.26600
O 	O 	0.58800 0.37035 0.98435 -0.17100
O 	O 	0.56816 0.36950 0.28466 -0.39400
O 	O 	0.32387 0.28080 0.27881 -0.44600
O 	O 	0.32286 0.28132 0.20810 -0.27600
O 	O 	0.69300 0.20139 0.75335 -0.42400
O 	O 	0.82314 0.13918 0.73338 -0.37800
O 	O 	0.89368 0.18487 0.68061 -0.26000
O 	O 	0.78998 0.05992 0.66868 -0.26000
O 	O 	0.61400 0.12965 0.71765 -0.20200
O 	O 	0.91516 0.13050 0.69866 -0.39700
O 	O 	0.99801 0.21920 0.54307 -0.45600
O 	O 	0.92678 0.21868 0.54154 -0.27500
O 	O 	0.80700 0.56035 0.50839 -0.42700
O 	O 	0.67686 0.41024 0.31604 -0.37900
O 	O 	0.60632 0.28693 0.29119 -0.25800
O 	O 	0.71002 0.37870 0.26994 -0.26800
O 	O 	0.88600 0.60365 0.51565 -0.21300
O 	O 	0.58484 0.28350 0.21534 -0.39500
O 	O 	0.50199 0.04506 0.22119 -0.43300
O 	O 	0.57322 0.11476 0.29190 -0.27200
O 	O 	0.94804 0.93965 0.74665 -0.43900
O 	O 	0.90580 0.08976 0.76662 -0.38100
O 	O 	0.00426 0.21307 0.81939 -0.21000
O 	O 	0.89124 0.12130 0.83132 -0.26500
O 	O 	0.91200 0.89635 0.78235 -0.21100
O 	O 	0.93184 0.21650 0.80134 -0.37300
O 	O 	0.17613 0.45494 0.95693 -0.42700
O 	O 	0.17714 0.38524 0.95846 -0.25700
O 	O 	0.93965 0.24665 0.44804 -0.43300
O 	O 	0.08976 0.26662 0.40580 -0.37700
O 	O 	0.21307 0.31939 0.50426 -0.25800
O 	O 	0.12130 0.33132 0.39124 -0.26400
O 	O 	0.89635 0.28235 0.41200 -0.20900
O 	O 	0.21650 0.30134 0.43184 -0.39400
O 	O 	0.45494 0.45693 0.67613 -0.44600
O 	O 	0.38524 0.45846 0.67714 -0.27400
O 	O 	0.56035 0.00839 0.30700 -0.38200
O 	O 	0.41024 0.81604 0.17686 -0.38000
O 	O 	0.28693 0.79119 0.10632 -0.26100
O 	O 	0.37870 0.76994 0.21002 -0.26500
O 	O 	0.60365 0.01565 0.38600 -0.17400
O 	O 	0.28350 0.71534 0.08484 -0.39800
O 	O 	0.04506 0.72119 0.00199 -0.44300
O 	O 	0.11476 0.79190 0.07322 -0.27400
O 	O 	0.20139 0.25335 0.19300 -0.42600
O 	O 	0.13918 0.23338 0.32314 -0.37700
O 	O 	0.18487 0.18061 0.39368 -0.25700
O 	O 	0.05992 0.16868 0.28998 -0.26000
O 	O 	0.12965 0.21765 0.11400 -0.21000
O 	O 	0.13050 0.19866 0.41516 -0.39300
O 	O 	0.21920 0.04307 0.49801 -0.43500
O 	O 	0.21868 0.04154 0.42678 -0.26500
O 	O 	0.29861 0.49161 0.05196 -0.43200
O 	O 	0.36082 0.68396 0.09420 -0.38300
O 	O 	0.31513 0.70881 0.99574 -0.20500
O 	O 	0.44008 0.73006 0.10876 -0.27100
O 	O 	0.37035 0.48435 0.08800 -0.20900
O 	O 	0.36950 0.78466 0.06816 -0.37200
O 	O 	0.28080 0.77881 0.82387 -0.44000
O 	O 	0.28132 0.70810 0.82286 -0.26700
