data_crystal

_cell_length_a 31.21500
_cell_length_b 31.21500
_cell_length_c 31.21500
_cell_angle_alpha 109.47100
_cell_angle_beta  109.47100
_cell_angle_gamma 109.47100

_symmetry_space_group_name_	'P 1'
_symmetry_space_group_name_H-M	'P 1'

loop_
_symmetry_equiv_pos_as_xyz
  x,y,z

loop_
_atom_site_label
_atom_site_type_symbol
_atom_site_fract_x
_atom_site_fract_y
_atom_site_fract_z
_atom_site_charge
Zn	Zn	0.25000 0.85928 0.60928 1.24400
Zn	Zn	0.75000 0.64072 0.89072 1.24200
Zn	Zn	0.39072 0.75000 0.14072 1.24400
Zn	Zn	0.10928 0.25000 0.35928 1.24200
Zn	Zn	0.64072 0.39072 0.25000 1.24500
Zn	Zn	0.85928 0.10928 0.75000 1.24300
Zn	Zn	0.64072 0.25000 0.89072 1.24300
Zn	Zn	0.85928 0.75000 0.60928 1.24500
Zn	Zn	0.75000 0.10928 0.35928 1.24300
Zn	Zn	0.25000 0.39072 0.14072 1.24500
Zn	Zn	0.10928 0.85928 0.25000 1.24300
Zn	Zn	0.39072 0.64072 0.75000 1.24400
Zn	Zn	0.00131 0.75131 0.50262 1.23100
Zn	Zn	0.74869 0.49869 0.99738 1.23100
Zn	Zn	0.75131 0.74869 0.75000 1.24000
Zn	Zn	0.49869 0.00131 0.75000 1.23100
Zn	Zn	0.25000 0.75131 0.24869 1.24000
Zn	Zn	0.25000 0.49869 0.50131 1.24000
Zn	Zn	0.00262 0.00131 0.25131 1.22300
Zn	Zn	0.49738 0.74869 0.99869 1.23000
Zn	Zn	0.49869 0.49738 0.24869 1.24000
Zn	Zn	0.75131 0.00262 0.50131 1.23200
Zn	Zn	0.00131 0.25000 0.99869 1.22100
Zn	Zn	0.74869 0.25000 0.25131 1.24000
H 	H 	0.11380 0.99620 0.52580 0.15600
H 	H 	0.35550 0.84830 0.41280 0.10300
H 	H 	0.35660 0.89480 0.55020 0.12000
H 	H 	0.02180 0.92300 0.54660 0.09600
H 	H 	0.43160 0.92610 0.55070 0.15300
H 	H 	0.16850 0.97070 0.57240 0.11100
H 	H 	0.09580 0.84840 0.58500 0.07600
H 	H 	0.21990 0.80030 0.41380 0.08700
H 	H 	0.97040 0.58800 0.97420 0.15400
H 	H 	0.93550 0.94270 0.08720 0.14000
H 	H 	0.84460 0.80640 0.94980 0.16900
H 	H 	0.87640 0.47520 0.95340 0.09000
H 	H 	0.87540 0.88090 0.94930 0.15300
H 	H 	0.89830 0.59610 0.92760 0.10500
H 	H 	0.76340 0.51080 0.91500 0.07100
H 	H 	0.88650 0.80610 0.08620 0.12100
H 	H 	0.52960 0.50380 0.61760 0.15200
H 	H 	0.56450 0.65170 0.00720 0.14900
H 	H 	0.65540 0.60520 0.96180 0.11500
H 	H 	0.62360 0.57700 0.59880 0.09600
H 	H 	0.62460 0.57390 0.00550 0.15800
H 	H 	0.60170 0.52930 0.69780 0.10600
H 	H 	0.73660 0.65160 0.74740 0.07300
H 	H 	0.61350 0.69970 0.91960 0.09100
H 	H 	0.38620 0.91200 0.88240 0.15200
H 	H 	0.14450 0.55730 0.49280 0.10100
H 	H 	0.14340 0.69360 0.53820 0.11700
H 	H 	0.47820 0.02480 0.90120 0.09700
H 	H 	0.06840 0.61910 0.49450 0.14200
H 	H 	0.33150 0.90390 0.80220 0.10500
H 	H 	0.40420 0.98920 0.75260 0.06400
H 	H 	0.28010 0.69390 0.58040 0.08700
H 	H 	0.11760 0.52960 0.00380 0.15600
H 	H 	0.50720 0.56450 0.15170 0.10300
H 	H 	0.46180 0.65540 0.10520 0.12000
H 	H 	0.09880 0.62360 0.07700 0.09800
H 	H 	0.50550 0.62460 0.07390 0.15400
H 	H 	0.19780 0.60170 0.02930 0.10900
H 	H 	0.24740 0.73660 0.15160 0.07400
H 	H 	0.41960 0.61350 0.19970 0.08800
H 	H 	0.38240 0.38620 0.41200 0.15200
H 	H 	0.99280 0.14450 0.05730 0.15000
H 	H 	0.03820 0.14340 0.19360 0.11500
H 	H 	0.40120 0.47820 0.52480 0.09500
H 	H 	0.99450 0.06840 0.11910 0.15200
H 	H 	0.30220 0.33150 0.40390 0.10500
H 	H 	0.25260 0.40420 0.48920 0.07200
H 	H 	0.08040 0.28010 0.19390 0.09200
H 	H 	0.02580 0.11380 0.49620 0.14500
H 	H 	0.91280 0.35550 0.34830 0.12700
H 	H 	0.05020 0.35660 0.39480 0.16400
H 	H 	0.04660 0.02180 0.42300 0.08500
H 	H 	0.05070 0.43160 0.42610 0.15100
H 	H 	0.07240 0.16850 0.47070 0.10300
H 	H 	0.08500 0.09580 0.34840 0.07300
H 	H 	0.91380 0.21990 0.30030 0.11600
H 	H 	0.47420 0.97040 0.08800 0.16300
H 	H 	0.58720 0.93550 0.44270 0.10800
H 	H 	0.44980 0.84460 0.30640 0.12000
H 	H 	0.45340 0.87640 0.97520 0.10200
H 	H 	0.44930 0.87540 0.38090 0.14900
H 	H 	0.42760 0.89830 0.09610 0.11200
H 	H 	0.41500 0.76340 0.01080 0.06400
H 	H 	0.58620 0.88650 0.30610 0.08900
H 	H 	0.58800 0.47420 0.47040 0.15300
H 	H 	0.94270 0.58720 0.43550 0.10900
H 	H 	0.80640 0.44980 0.34460 0.12000
H 	H 	0.47520 0.45340 0.37640 0.09600
H 	H 	0.88090 0.44930 0.37540 0.14800
H 	H 	0.59610 0.42760 0.39830 0.10600
H 	H 	0.51080 0.41500 0.26340 0.07300
H 	H 	0.80610 0.58620 0.38650 0.08900
H 	H 	0.99620 0.02580 0.61380 0.14900
H 	H 	0.84830 0.91280 0.85550 0.12500
H 	H 	0.89480 0.05020 0.85660 0.16200
H 	H 	0.92300 0.04660 0.52180 0.09400
H 	H 	0.92610 0.05070 0.93160 0.15000
H 	H 	0.97070 0.07240 0.66850 0.10500
H 	H 	0.84840 0.08500 0.59580 0.07200
H 	H 	0.80030 0.91380 0.71990 0.11500
H 	H 	0.91200 0.38240 0.88620 0.15400
H 	H 	0.55730 0.99280 0.64450 0.14400
H 	H 	0.69360 0.03820 0.64340 0.11500
H 	H 	0.02480 0.40120 0.97820 0.09600
H 	H 	0.61910 0.99450 0.56840 0.15700
H 	H 	0.90390 0.30220 0.83150 0.11000
H 	H 	0.98920 0.25260 0.90420 0.06700
H 	H 	0.69390 0.08040 0.78010 0.08900
H 	H 	0.50380 0.11760 0.02960 0.16000
H 	H 	0.65170 0.50720 0.06450 0.10800
H 	H 	0.60520 0.46180 0.15540 0.12000
H 	H 	0.57700 0.09880 0.12360 0.09400
H 	H 	0.57390 0.50550 0.12460 0.14900
H 	H 	0.52930 0.19780 0.10170 0.10800
H 	H 	0.65160 0.24740 0.23660 0.07300
H 	H 	0.69970 0.41960 0.11350 0.09000
H 	H 	0.50380 0.38620 0.97420 0.14400
H 	H 	0.65170 0.14450 0.08720 0.12800
H 	H 	0.60520 0.14340 0.94980 0.16700
H 	H 	0.57700 0.47820 0.95340 0.08800
H 	H 	0.57390 0.06840 0.94930 0.14600
H 	H 	0.52930 0.33150 0.92760 0.10000
H 	H 	0.65160 0.40420 0.91500 0.07000
H 	H 	0.69970 0.28010 0.08620 0.11900
H 	H 	0.91200 0.52960 0.52580 0.15500
H 	H 	0.55730 0.56450 0.41280 0.10300
H 	H 	0.69360 0.65540 0.55020 0.11900
H 	H 	0.02480 0.62360 0.54660 0.10000
H 	H 	0.61910 0.62460 0.55070 0.14800
H 	H 	0.90390 0.60170 0.57240 0.10800
H 	H 	0.98920 0.73660 0.58500 0.06500
H 	H 	0.69390 0.61350 0.41380 0.08800
H 	H 	0.99620 0.97040 0.88240 0.16300
H 	H 	0.84830 0.93550 0.49280 0.10800
H 	H 	0.89480 0.84460 0.53820 0.12100
H 	H 	0.92300 0.87640 0.90120 0.09800
H 	H 	0.92610 0.87540 0.49450 0.15400
H 	H 	0.97070 0.89830 0.80220 0.11200
H 	H 	0.84840 0.76340 0.75260 0.07400
H 	H 	0.80030 0.88650 0.58040 0.08900
H 	H 	0.58800 0.11380 0.61760 0.15200
H 	H 	0.94270 0.35550 0.00720 0.15400
H 	H 	0.80640 0.35660 0.96180 0.11500
H 	H 	0.47520 0.02180 0.59880 0.09100
H 	H 	0.88090 0.43160 0.00550 0.15800
H 	H 	0.59610 0.16850 0.69780 0.10700
H 	H 	0.51080 0.09580 0.74740 0.07500
H 	H 	0.80610 0.21990 0.91960 0.09100
H 	H 	0.97040 0.38240 0.49620 0.16100
H 	H 	0.93550 0.99280 0.34830 0.14700
H 	H 	0.84460 0.03820 0.39480 0.11600
H 	H 	0.87640 0.40120 0.42300 0.09700
H 	H 	0.87540 0.99450 0.42610 0.15800
H 	H 	0.89830 0.30220 0.47070 0.10900
H 	H 	0.76340 0.25260 0.34840 0.07300
H 	H 	0.88650 0.08040 0.30030 0.09200
H 	H 	0.11380 0.11760 0.08800 0.15300
H 	H 	0.35550 0.50720 0.44270 0.10200
H 	H 	0.35660 0.46180 0.30640 0.11900
H 	H 	0.02180 0.09880 0.97520 0.09400
H 	H 	0.43160 0.50550 0.38090 0.14800
H 	H 	0.16850 0.19780 0.09610 0.10800
H 	H 	0.09580 0.24740 0.01080 0.06600
H 	H 	0.21990 0.41960 0.30610 0.08700
H 	H 	0.38620 0.47420 0.00380 0.15700
H 	H 	0.14450 0.58720 0.15170 0.10200
H 	H 	0.14340 0.44980 0.10520 0.11900
H 	H 	0.47820 0.45340 0.07700 0.10100
H 	H 	0.06840 0.44930 0.07390 0.14800
H 	H 	0.33150 0.42760 0.02930 0.10900
H 	H 	0.40420 0.41500 0.15160 0.07300
H 	H 	0.28010 0.58620 0.19970 0.08800
H 	H 	0.52960 0.02580 0.41200 0.14600
H 	H 	0.56450 0.91280 0.05730 0.13400
H 	H 	0.65540 0.05020 0.19360 0.16400
H 	H 	0.62360 0.04660 0.52480 0.08900
H 	H 	0.62460 0.05070 0.11910 0.15100
H 	H 	0.60170 0.07240 0.40390 0.10200
H 	H 	0.73660 0.08500 0.48920 0.07100
H 	H 	0.61350 0.91380 0.19390 0.11800
H 	H 	0.02580 0.91200 0.02960 0.15700
H 	H 	0.91280 0.55730 0.06450 0.13200
H 	H 	0.05020 0.69360 0.15540 0.16400
H 	H 	0.04660 0.02480 0.12360 0.09500
H 	H 	0.05070 0.61910 0.12460 0.15200
H 	H 	0.07240 0.90390 0.10170 0.10800
H 	H 	0.08500 0.98920 0.23660 0.06400
H 	H 	0.91380 0.69390 0.11350 0.11800
H 	H 	0.47420 0.50380 0.88620 0.15100
H 	H 	0.58720 0.65170 0.64450 0.10300
H 	H 	0.44980 0.60520 0.64340 0.11900
H 	H 	0.45340 0.57700 0.97820 0.09100
H 	H 	0.44930 0.57390 0.56840 0.14800
H 	H 	0.42760 0.52930 0.83150 0.10700
H 	H 	0.41500 0.65160 0.90420 0.07500
H 	H 	0.58620 0.69970 0.78010 0.08700
H 	H 	0.11760 0.58800 0.61380 0.15000
H 	H 	0.50720 0.94270 0.85550 0.10800
H 	H 	0.46180 0.80640 0.85660 0.11800
H 	H 	0.09880 0.47520 0.52180 0.09200
H 	H 	0.50550 0.88090 0.93160 0.14200
H 	H 	0.19780 0.59610 0.66850 0.10300
H 	H 	0.24740 0.51080 0.59580 0.07100
H 	H 	0.41960 0.80610 0.71990 0.08900
H 	H 	0.38240 0.99620 0.47040 0.15700
H 	H 	0.99280 0.84830 0.43550 0.14400
H 	H 	0.03820 0.89480 0.34460 0.11700
H 	H 	0.40120 0.92300 0.37640 0.10100
H 	H 	0.99450 0.92610 0.37540 0.16200
H 	H 	0.30220 0.97070 0.39830 0.11000
H 	H 	0.25260 0.84840 0.26340 0.07400
H 	H 	0.08040 0.80030 0.38650 0.09100
C 	C 	0.13860 0.90745 0.58039 0.03100
C 	C 	0.06610 0.01423 0.53917 0.17900
C 	C 	0.45923 0.91758 0.50627 0.21800
C 	C 	0.28291 0.84549 0.48654 0.00900
C 	C 	0.28335 0.82143 0.40546 -0.00500
C 	C 	0.36558 0.87750 0.48670 0.16300
C 	C 	0.33771 0.84881 0.43150 -0.12200
C 	C 	0.33833 0.87584 0.51377 -0.13300
C 	C 	0.05150 0.91941 0.55477 -0.13800
C 	C 	0.05301 0.88196 0.56803 0.00400
C 	C 	0.18612 0.90300 0.59368 0.25400
C 	C 	0.13835 0.94710 0.56929 -0.14500
C 	C 	0.09612 0.87556 0.57874 -0.08400
C 	C 	0.09308 0.95190 0.55336 0.17400
C 	C 	0.25635 0.81941 0.43228 -0.04800
C 	C 	0.25570 0.84186 0.51888 0.31500
C 	C 	0.25390 0.79140 0.34510 0.34100
C 	C 	0.00370 0.84550 0.56680 0.23000
C 	C 	0.82706 0.55821 0.91961 0.01800
C 	C 	0.97506 0.52693 0.96083 0.22800
C 	C 	0.91131 0.95296 0.99373 0.19500
C 	C 	0.85895 0.79637 0.01346 0.14600
C 	C 	0.91597 0.87789 0.09454 0.06700
C 	C 	0.89080 0.87888 0.01330 0.28000
C 	C 	0.91731 0.90621 0.06850 -0.19600
C 	C 	0.86207 0.82456 0.98623 -0.29100
C 	C 	0.86464 0.49673 0.94523 -0.12500
C 	C 	0.81393 0.48498 0.93197 -0.02000
C 	C 	0.80932 0.59244 0.90632 0.25600
C 	C 	0.87781 0.56906 0.93071 -0.13900
C 	C 	0.79682 0.51738 0.92126 -0.06900
C 	C 	0.89854 0.53972 0.94664 0.16300
C 	C 	0.88713 0.82407 0.06772 -0.13700
C 	C 	0.82298 0.73682 0.98112 0.21400
C 	C 	0.94630 0.90880 0.15490 0.31600
C 	C 	0.77870 0.43690 0.93320 0.29700
C 	C 	0.67294 0.59255 0.73115 0.02200
C 	C 	0.52494 0.48577 0.55187 0.20900
C 	C 	0.58869 0.58242 0.04165 0.22100
C 	C 	0.64105 0.65451 0.93742 0.01400
C 	C 	0.58403 0.67857 0.96192 0.01800
C 	C 	0.60920 0.62250 0.98808 0.16000
C 	C 	0.58269 0.65119 0.98890 -0.18500
C 	C 	0.63793 0.62416 0.96249 -0.14000
C 	C 	0.63536 0.58059 0.63209 -0.12400
C 	C 	0.68607 0.61804 0.67105 -0.01500
C 	C 	0.69068 0.59700 0.78312 0.25800
C 	C 	0.62219 0.55290 0.69125 -0.13800
C 	C 	0.70318 0.62444 0.72056 -0.06800
C 	C 	0.60146 0.54810 0.64118 0.16600
C 	C 	0.61287 0.68059 0.93694 -0.06400
C 	C 	0.67702 0.65814 0.91384 0.31100
C 	C 	0.55370 0.70860 0.96250 0.33100
C 	C 	0.72130 0.65450 0.65820 0.30000
C 	C 	0.36140 0.94179 0.76885 0.01000
C 	C 	0.43390 0.97307 0.94813 0.23000
C 	C 	0.04077 0.54704 0.45835 0.18900
C 	C 	0.21709 0.70363 0.56258 0.00700
C 	C 	0.21665 0.62211 0.53808 -0.00600
C 	C 	0.13442 0.62112 0.51192 0.15800
C 	C 	0.16229 0.59379 0.51110 -0.12000
C 	C 	0.16167 0.67544 0.53751 -0.13100
C 	C 	0.44850 0.00327 0.86791 -0.15400
C 	C 	0.44699 0.01502 0.82895 -0.04700
C 	C 	0.31388 0.90756 0.71688 0.26300
C 	C 	0.36165 0.93094 0.80875 -0.13900
C 	C 	0.40388 0.98262 0.77944 -0.02500
C 	C 	0.40692 0.96028 0.85882 0.19300
C 	C 	0.24365 0.67593 0.56306 -0.04800
C 	C 	0.24430 0.76318 0.58616 0.31500
C 	C 	0.24610 0.59120 0.53750 0.34100
C 	C 	0.49630 0.06310 0.84180 0.30400
C 	C 	0.23115 0.67294 0.09255 0.02400
C 	C 	0.05187 0.52494 0.98577 0.17600
C 	C 	0.54165 0.58869 0.08242 0.21800
C 	C 	0.43742 0.64105 0.15451 0.01000
C 	C 	0.46192 0.58403 0.17857 -0.00400
C 	C 	0.48808 0.60920 0.12250 0.16400
C 	C 	0.48890 0.58269 0.15119 -0.12200
C 	C 	0.46249 0.63793 0.12416 -0.13400
C 	C 	0.13209 0.63536 0.08059 -0.12300
C 	C 	0.17105 0.68607 0.11804 -0.01400
C 	C 	0.28312 0.69068 0.09700 0.25700
C 	C 	0.19125 0.62219 0.05290 -0.13800
C 	C 	0.22056 0.70318 0.12444 -0.06800
C 	C 	0.14118 0.60146 0.04810 0.16900
C 	C 	0.43694 0.61287 0.18059 -0.04900
C 	C 	0.41384 0.67702 0.15814 0.31500
C 	C 	0.46250 0.55370 0.20860 0.34000
C 	C 	0.15820 0.72130 0.15450 0.29900
C 	C 	0.26885 0.36140 0.44179 0.02100
C 	C 	0.44813 0.43390 0.47307 0.20900
C 	C 	0.95835 0.04077 0.04704 0.20100
C 	C 	0.06258 0.21709 0.20363 0.01400
C 	C 	0.03808 0.21665 0.12211 0.01900
C 	C 	0.01192 0.13442 0.12112 0.16100
C 	C 	0.01110 0.16229 0.09379 -0.18000
C 	C 	0.03751 0.16167 0.17544 -0.14000
C 	C 	0.36791 0.44850 0.50327 -0.12300
C 	C 	0.32895 0.44699 0.51502 -0.01600
C 	C 	0.21688 0.31388 0.40756 0.25800
C 	C 	0.30875 0.36165 0.43094 -0.13800
C 	C 	0.27944 0.40388 0.48262 -0.06700
C 	C 	0.35882 0.40692 0.46028 0.16600
C 	C 	0.06306 0.24365 0.17593 -0.06400
C 	C 	0.08616 0.24430 0.26318 0.31100
C 	C 	0.03750 0.24610 0.09120 0.32900
C 	C 	0.34180 0.49630 0.56310 0.30000
C 	C 	0.08039 0.13860 0.40745 0.02200
C 	C 	0.03917 0.06610 0.51423 0.19800
C 	C 	0.00627 0.45923 0.41758 0.18800
C 	C 	0.98654 0.28291 0.34549 0.13300
C 	C 	0.90546 0.28335 0.32143 0.05200
C 	C 	0.98670 0.36558 0.37750 0.26600
C 	C 	0.93150 0.33771 0.34881 -0.18700
C 	C 	0.01377 0.33833 0.37584 -0.27800
C 	C 	0.05477 0.05150 0.41941 -0.13600
C 	C 	0.06803 0.05301 0.38196 -0.00400
C 	C 	0.09368 0.18612 0.40300 0.25400
C 	C 	0.06929 0.13835 0.44710 -0.14200
C 	C 	0.07874 0.09612 0.37556 -0.08200
C 	C 	0.05336 0.09308 0.45190 0.16100
C 	C 	0.93228 0.25635 0.31941 -0.12700
C 	C 	0.01888 0.25570 0.34186 0.22200
C 	C 	0.84510 0.25390 0.29140 0.32200
C 	C 	0.06680 0.00370 0.34550 0.23000
C 	C 	0.41961 0.82706 0.05821 0.01400
C 	C 	0.46083 0.97506 0.02693 0.26300
C 	C 	0.49373 0.91131 0.45296 0.21700
C 	C 	0.51346 0.85895 0.29637 0.01200
C 	C 	0.59454 0.91597 0.37789 0.00100
C 	C 	0.51330 0.89080 0.37888 0.16500
C 	C 	0.56850 0.91731 0.40621 -0.12200
C 	C 	0.48623 0.86207 0.32456 -0.13300
C 	C 	0.44523 0.86464 0.99673 -0.16300
C 	C 	0.43197 0.81393 0.98498 -0.04500
C 	C 	0.40632 0.80932 0.09244 0.26200
C 	C 	0.43071 0.87781 0.06906 -0.14400
C 	C 	0.42126 0.79682 0.01738 -0.02400
C 	C 	0.44664 0.89854 0.03972 0.20500
C 	C 	0.56772 0.88713 0.32407 -0.05000
C 	C 	0.48112 0.82298 0.23682 0.31500
C 	C 	0.65490 0.94630 0.40880 0.33900
C 	C 	0.43320 0.77870 0.93690 0.30300
C 	C 	0.55821 0.41961 0.32706 0.02200
C 	C 	0.52693 0.46083 0.47506 0.20900
C 	C 	0.95296 0.49373 0.41131 0.21700
C 	C 	0.79637 0.51346 0.35895 0.01100
C 	C 	0.87789 0.59454 0.41597 0.00000
C 	C 	0.87888 0.51330 0.39080 0.16500
C 	C 	0.90621 0.56850 0.41731 -0.12500
C 	C 	0.82456 0.48623 0.36207 -0.13500
C 	C 	0.49673 0.44523 0.36464 -0.12400
C 	C 	0.48498 0.43197 0.31393 -0.01500
C 	C 	0.59244 0.40632 0.30932 0.25800
C 	C 	0.56906 0.43071 0.37781 -0.13800
C 	C 	0.51738 0.42126 0.29682 -0.06800
C 	C 	0.53972 0.44664 0.39854 0.16600
C 	C 	0.82407 0.56772 0.38713 -0.05100
C 	C 	0.73682 0.48112 0.32298 0.31400
C 	C 	0.90880 0.65490 0.44630 0.33700
C 	C 	0.43690 0.43320 0.27870 0.30000
C 	C 	0.90745 0.08039 0.63860 0.01900
C 	C 	0.01423 0.03917 0.56610 0.17600
C 	C 	0.91758 0.00627 0.95923 0.16900
C 	C 	0.84549 0.98654 0.78291 0.12600
C 	C 	0.82143 0.90546 0.78335 0.04800
C 	C 	0.87750 0.98670 0.86558 0.25900
C 	C 	0.84881 0.93150 0.83771 -0.18300
C 	C 	0.87584 0.01377 0.83833 -0.27000
C 	C 	0.91941 0.05477 0.55150 -0.12200
C 	C 	0.88196 0.06803 0.55301 -0.01800
C 	C 	0.90300 0.09368 0.68612 0.25700
C 	C 	0.94710 0.06929 0.63835 -0.13700
C 	C 	0.87556 0.07874 0.59612 -0.06800
C 	C 	0.95190 0.05336 0.59308 0.16300
C 	C 	0.81941 0.93228 0.75635 -0.12300
C 	C 	0.84186 0.01888 0.75570 0.22600
C 	C 	0.79140 0.84510 0.75390 0.32300
C 	C 	0.84550 0.06680 0.50370 0.29700
C 	C 	0.94179 0.26885 0.86140 0.02000
C 	C 	0.97307 0.44813 0.93390 0.23100
C 	C 	0.54704 0.95835 0.54077 0.22000
C 	C 	0.70363 0.06258 0.71709 0.01300
C 	C 	0.62211 0.03808 0.71665 0.01400
C 	C 	0.62112 0.01192 0.63442 0.15900
C 	C 	0.59379 0.01110 0.66229 -0.17800
C 	C 	0.67544 0.03751 0.66167 -0.13800
C 	C 	0.00327 0.36791 0.94850 -0.17200
C 	C 	0.01502 0.32895 0.94699 -0.02500
C 	C 	0.90756 0.21688 0.81388 0.26000
C 	C 	0.93094 0.30875 0.86165 -0.14700
C 	C 	0.98262 0.27944 0.90388 -0.04200
C 	C 	0.96028 0.35882 0.90692 0.20200
C 	C 	0.67593 0.06306 0.74365 -0.06200
C 	C 	0.76318 0.08616 0.74430 0.31200
C 	C 	0.59120 0.03750 0.74610 0.33300
C 	C 	0.06310 0.34180 0.99630 0.22600
C 	C 	0.59255 0.23115 0.17294 0.02300
C 	C 	0.48577 0.05187 0.02494 0.23300
C 	C 	0.58242 0.54165 0.08869 0.21800
C 	C 	0.65451 0.43742 0.14105 0.01200
C 	C 	0.67857 0.46192 0.08403 0.00200
C 	C 	0.62250 0.48808 0.10920 0.16600
C 	C 	0.65119 0.48890 0.08269 -0.12200
C 	C 	0.62416 0.46249 0.13793 -0.13400
C 	C 	0.58059 0.13209 0.13536 -0.12500
C 	C 	0.61804 0.17105 0.18607 -0.01600
C 	C 	0.59700 0.28312 0.19068 0.25700
C 	C 	0.55290 0.19125 0.12219 -0.14000
C 	C 	0.62444 0.22056 0.20318 -0.06900
C 	C 	0.54810 0.14118 0.10146 0.16900
C 	C 	0.68059 0.43694 0.11287 -0.05000
C 	C 	0.65814 0.41384 0.17702 0.31500
C 	C 	0.70860 0.46250 0.05370 0.33900
C 	C 	0.65450 0.15820 0.22130 0.30000
C 	C 	0.59255 0.36140 0.91961 0.01400
C 	C 	0.48577 0.43390 0.96083 0.20100
C 	C 	0.58242 0.04077 0.99373 0.16300
C 	C 	0.65451 0.21709 0.01346 0.14200
C 	C 	0.67857 0.21665 0.09454 0.05600
C 	C 	0.62250 0.13442 0.01330 0.27100
C 	C 	0.65119 0.16229 0.06850 -0.19200
C 	C 	0.62416 0.16167 0.98623 -0.28900
C 	C 	0.58059 0.44850 0.94523 -0.12100
C 	C 	0.61804 0.44699 0.93197 -0.02200
C 	C 	0.59700 0.31388 0.90632 0.25700
C 	C 	0.55290 0.36165 0.93071 -0.13600
C 	C 	0.62444 0.40388 0.92126 -0.06600
C 	C 	0.54810 0.40692 0.94664 0.15700
C 	C 	0.68059 0.24365 0.06772 -0.13300
C 	C 	0.65814 0.24430 0.98112 0.21400
C 	C 	0.70860 0.24610 0.15490 0.32100
C 	C 	0.65450 0.49630 0.93320 0.29800
C 	C 	0.94179 0.67294 0.58039 0.01300
C 	C 	0.97307 0.52494 0.53917 0.23500
C 	C 	0.54704 0.58869 0.50627 0.21300
C 	C 	0.70363 0.64105 0.48654 0.00900
C 	C 	0.62211 0.58403 0.40546 -0.00500
C 	C 	0.62112 0.60920 0.48670 0.16100
C 	C 	0.59379 0.58269 0.43150 -0.12100
C 	C 	0.67544 0.63793 0.51377 -0.13300
C 	C 	0.00327 0.63536 0.55477 -0.15700
C 	C 	0.01502 0.68607 0.56803 -0.04400
C 	C 	0.90756 0.69068 0.59368 0.26200
C 	C 	0.93094 0.62219 0.56929 -0.14100
C 	C 	0.98262 0.70318 0.57874 -0.02700
C 	C 	0.96028 0.60146 0.55336 0.19800
C 	C 	0.67593 0.61287 0.43228 -0.04900
C 	C 	0.76318 0.67702 0.51888 0.31500
C 	C 	0.59120 0.55370 0.34510 0.34100
C 	C 	0.06310 0.72130 0.56680 0.30300
C 	C 	0.90745 0.82706 0.76885 0.02600
C 	C 	0.01423 0.97506 0.94813 0.20400
C 	C 	0.91758 0.91131 0.45835 0.22200
C 	C 	0.84549 0.85895 0.56258 0.01200
C 	C 	0.82143 0.91597 0.53808 0.00100
C 	C 	0.87750 0.89080 0.51192 0.16800
C 	C 	0.84881 0.91731 0.51110 -0.12300
C 	C 	0.87584 0.86207 0.53751 -0.13400
C 	C 	0.91941 0.86464 0.86791 -0.12500
C 	C 	0.88196 0.81393 0.82895 -0.01300
C 	C 	0.90300 0.80932 0.71688 0.25700
C 	C 	0.94710 0.87781 0.80875 -0.14100
C 	C 	0.87556 0.79682 0.77944 -0.07000
C 	C 	0.95190 0.89854 0.85882 0.17300
C 	C 	0.81941 0.88713 0.56306 -0.05000
C 	C 	0.84186 0.82298 0.58616 0.31500
C 	C 	0.79140 0.94630 0.53750 0.33900
C 	C 	0.84550 0.77870 0.84180 0.29900
C 	C 	0.55821 0.13860 0.73115 0.02800
C 	C 	0.52693 0.06610 0.55187 0.20500
C 	C 	0.95296 0.45923 0.04165 0.22400
C 	C 	0.79637 0.28291 0.93742 0.01500
C 	C 	0.87789 0.28335 0.96192 0.02100
C 	C 	0.87888 0.36558 0.98808 0.16300
C 	C 	0.90621 0.33771 0.98890 -0.18600
C 	C 	0.82456 0.33833 0.96249 -0.14100
C 	C 	0.49673 0.05150 0.63209 -0.13800
C 	C 	0.48498 0.05301 0.67105 0.00200
C 	C 	0.59244 0.18612 0.78312 0.25500
C 	C 	0.56906 0.13835 0.69125 -0.14400
C 	C 	0.51738 0.09612 0.72056 -0.08300
C 	C 	0.53972 0.09308 0.64118 0.17000
C 	C 	0.82407 0.25635 0.93694 -0.06600
C 	C 	0.73682 0.25570 0.91384 0.31100
C 	C 	0.90880 0.25390 0.96250 0.32900
C 	C 	0.43690 0.00370 0.65820 0.23000
C 	C 	0.82706 0.26885 0.40745 0.02400
C 	C 	0.97506 0.44813 0.51423 0.23500
C 	C 	0.91131 0.95835 0.41758 0.22400
C 	C 	0.85895 0.06258 0.34549 0.01600
C 	C 	0.91597 0.03808 0.32143 0.02100
C 	C 	0.89080 0.01192 0.37750 0.16400
C 	C 	0.91731 0.01110 0.34881 -0.17700
C 	C 	0.86207 0.03751 0.37584 -0.13900
C 	C 	0.86464 0.36791 0.41941 -0.12700
C 	C 	0.81393 0.32895 0.38196 -0.01300
C 	C 	0.80932 0.21688 0.40300 0.25700
C 	C 	0.87781 0.30875 0.44710 -0.14100
C 	C 	0.79682 0.27944 0.37556 -0.07000
C 	C 	0.89854 0.35882 0.45190 0.17100
C 	C 	0.88713 0.06306 0.31941 -0.06300
C 	C 	0.82298 0.08616 0.34186 0.31200
C 	C 	0.94630 0.03750 0.29140 0.33100
C 	C 	0.77870 0.34180 0.34550 0.29900
C 	C 	0.13860 0.23115 0.05821 0.01700
C 	C 	0.06610 0.05187 0.02693 0.22900
C 	C 	0.45923 0.54165 0.45296 0.21300
C 	C 	0.28291 0.43742 0.29637 0.00800
C 	C 	0.28335 0.46192 0.37789 -0.00600
C 	C 	0.36558 0.48808 0.37888 0.16100
C 	C 	0.33771 0.48890 0.40621 -0.12100
C 	C 	0.33833 0.46249 0.32456 -0.13200
C 	C 	0.05150 0.13209 0.99673 -0.17200
C 	C 	0.05301 0.17105 0.98498 -0.03200
C 	C 	0.18612 0.28312 0.09244 0.26000
C 	C 	0.13835 0.19125 0.06906 -0.14600
C 	C 	0.09612 0.22056 0.01738 -0.03600
C 	C 	0.09308 0.14118 0.03972 0.20100
C 	C 	0.25635 0.43694 0.32407 -0.04800
C 	C 	0.25570 0.41384 0.23682 0.31500
C 	C 	0.25390 0.46250 0.40880 0.34100
C 	C 	0.00370 0.15820 0.93690 0.23400
C 	C 	0.36140 0.41961 0.09255 0.02400
C 	C 	0.43390 0.46083 0.98577 0.17900
C 	C 	0.04077 0.49373 0.08242 0.19400
C 	C 	0.21709 0.51346 0.15451 0.00900
C 	C 	0.21665 0.59454 0.17857 -0.00600
C 	C 	0.13442 0.51330 0.12250 0.16100
C 	C 	0.16229 0.56850 0.15119 -0.12000
C 	C 	0.16167 0.48623 0.12416 -0.13200
C 	C 	0.44850 0.44523 0.08059 -0.12400
C 	C 	0.44699 0.43197 0.11804 -0.01300
C 	C 	0.31388 0.40632 0.09700 0.25700
C 	C 	0.36165 0.43071 0.05290 -0.13900
C 	C 	0.40388 0.42126 0.12444 -0.06900
C 	C 	0.40692 0.44664 0.04810 0.17100
C 	C 	0.24365 0.56772 0.18059 -0.04800
C 	C 	0.24430 0.48112 0.15814 0.31500
C 	C 	0.24610 0.65490 0.20860 0.34100
C 	C 	0.49630 0.43320 0.15450 0.29900
C 	C 	0.67294 0.08039 0.44179 0.01700
C 	C 	0.52494 0.03917 0.47307 0.20300
C 	C 	0.58869 0.00627 0.04704 0.19300
C 	C 	0.64105 0.98654 0.20363 0.13200
C 	C 	0.58403 0.90546 0.12211 0.05700
C 	C 	0.60920 0.98670 0.12112 0.26700
C 	C 	0.58269 0.93150 0.09379 -0.19000
C 	C 	0.63793 0.01377 0.17544 -0.27700
C 	C 	0.63536 0.05477 0.50327 -0.12200
C 	C 	0.68607 0.06803 0.51502 -0.02100
C 	C 	0.69068 0.09368 0.40756 0.25700
C 	C 	0.62219 0.06929 0.43094 -0.13700
C 	C 	0.70318 0.07874 0.48262 -0.06700
C 	C 	0.60146 0.05336 0.46028 0.15900
C 	C 	0.61287 0.93228 0.17593 -0.12900
C 	C 	0.67702 0.01888 0.26318 0.22300
C 	C 	0.55370 0.84510 0.09120 0.31900
C 	C 	0.72130 0.06680 0.56310 0.29800
C 	C 	0.08039 0.94179 0.17294 0.01100
C 	C 	0.03917 0.97307 0.02494 0.25700
C 	C 	0.00627 0.54704 0.08869 0.19300
C 	C 	0.98654 0.70363 0.14105 0.13200
C 	C 	0.90546 0.62211 0.08403 0.05700
C 	C 	0.98670 0.62112 0.10920 0.26800
C 	C 	0.93150 0.59379 0.08269 -0.18700
C 	C 	0.01377 0.67544 0.13793 -0.27500
C 	C 	0.05477 0.00327 0.13536 -0.15700
C 	C 	0.06803 0.01502 0.18607 -0.04700
C 	C 	0.09368 0.90756 0.19068 0.26100
C 	C 	0.06929 0.93094 0.12219 -0.14200
C 	C 	0.07874 0.98262 0.20318 -0.02800
C 	C 	0.05336 0.96028 0.10146 0.19500
C 	C 	0.93228 0.67593 0.11287 -0.12700
C 	C 	0.01888 0.76318 0.17702 0.22400
C 	C 	0.84510 0.59120 0.05370 0.32100
C 	C 	0.06680 0.06310 0.22130 0.30100
C 	C 	0.41961 0.59255 0.86140 0.02900
C 	C 	0.46083 0.48577 0.93390 0.20300
C 	C 	0.49373 0.58242 0.54077 0.21300
C 	C 	0.51346 0.65451 0.71709 0.00900
C 	C 	0.59454 0.67857 0.71665 -0.00500
C 	C 	0.51330 0.62250 0.63442 0.16100
C 	C 	0.56850 0.65119 0.66229 -0.12100
C 	C 	0.48623 0.62416 0.66167 -0.13200
C 	C 	0.44523 0.58059 0.94850 -0.13900
C 	C 	0.43197 0.61804 0.94699 0.00300
C 	C 	0.40632 0.59700 0.81388 0.25400
C 	C 	0.43071 0.55290 0.86165 -0.14500
C 	C 	0.42126 0.62444 0.90388 -0.08400
C 	C 	0.44664 0.54810 0.90692 0.16900
C 	C 	0.56772 0.68059 0.74365 -0.04800
C 	C 	0.48112 0.65814 0.74430 0.31500
C 	C 	0.65490 0.70860 0.74610 0.34100
C 	C 	0.43320 0.65450 0.99630 0.22300
C 	C 	0.23115 0.55821 0.63860 0.01900
C 	C 	0.05187 0.52693 0.56610 0.20400
C 	C 	0.54165 0.95296 0.95923 0.19100
C 	C 	0.43742 0.79637 0.78291 0.01000
C 	C 	0.46192 0.87789 0.78335 -0.00100
C 	C 	0.48808 0.87888 0.86558 0.16100
C 	C 	0.48890 0.90621 0.83771 -0.12300
C 	C 	0.46249 0.82456 0.83833 -0.13300
C 	C 	0.13209 0.49673 0.55150 -0.12200
C 	C 	0.17105 0.48498 0.55301 -0.01800
C 	C 	0.28312 0.59244 0.68612 0.25800
C 	C 	0.19125 0.56906 0.63835 -0.13700
C 	C 	0.22056 0.51738 0.59612 -0.06600
C 	C 	0.14118 0.53972 0.59308 0.16300
C 	C 	0.43694 0.82407 0.75635 -0.05000
C 	C 	0.41384 0.73682 0.75570 0.31400
C 	C 	0.46250 0.90880 0.75390 0.33800
C 	C 	0.15820 0.43690 0.50370 0.30000
C 	C 	0.26885 0.90745 0.32706 0.02500
C 	C 	0.44813 0.01423 0.47506 0.18300
C 	C 	0.95835 0.91758 0.41131 0.22500
C 	C 	0.06258 0.84549 0.35895 0.01400
C 	C 	0.03808 0.82143 0.41597 0.01600
C 	C 	0.01192 0.87750 0.39080 0.16200
C 	C 	0.01110 0.84881 0.41731 -0.17900
C 	C 	0.03751 0.87584 0.36207 -0.14000
C 	C 	0.36791 0.91941 0.36464 -0.12400
C 	C 	0.32895 0.88196 0.31393 -0.01200
C 	C 	0.21688 0.90300 0.30932 0.25800
C 	C 	0.30875 0.94710 0.37781 -0.13900
C 	C 	0.27944 0.87556 0.29682 -0.06900
C 	C 	0.35882 0.95190 0.39854 0.17100
C 	C 	0.06306 0.81941 0.38713 -0.06300
C 	C 	0.08616 0.84186 0.32298 0.31200
C 	C 	0.03750 0.79140 0.44630 0.33200
C 	C 	0.34180 0.84550 0.27870 0.29900
N 	N 	0.06679 0.04035 0.51250 -0.17100
N 	N 	0.44948 0.89915 0.45787 -0.17700
N 	N 	0.09315 0.98851 0.53802 -0.23600
N 	N 	0.42057 0.90894 0.51771 -0.24600
N 	N 	0.02785 0.55429 0.98750 -0.19100
N 	N 	0.94128 0.99161 0.04213 -0.14400
N 	N 	0.95049 0.55513 0.96198 -0.25200
N 	N 	0.89123 0.90286 0.98229 -0.27400
N 	N 	0.47215 0.45965 0.52644 -0.17000
N 	N 	0.55872 0.60085 0.05033 -0.17400
N 	N 	0.54951 0.51149 0.60464 -0.24800
N 	N 	0.60877 0.59106 0.01163 -0.23600
N 	N 	0.43321 0.94571 0.97356 -0.19400
N 	N 	0.05052 0.50839 0.44967 -0.17300
N 	N 	0.40685 0.94487 0.89536 -0.25500
N 	N 	0.07943 0.59714 0.48837 -0.24100
N 	N 	0.02644 0.47215 0.95965 -0.18800
N 	N 	0.55033 0.55872 0.10085 -0.17700
N 	N 	0.10464 0.54951 0.01149 -0.23200
N 	N 	0.51163 0.60877 0.09106 -0.24600
N 	N 	0.47356 0.43321 0.44571 -0.17000
N 	N 	0.94967 0.05052 0.00839 -0.15100
N 	N 	0.39536 0.40685 0.44487 -0.24800
N 	N 	0.98837 0.07943 0.09714 -0.23300
N 	N 	0.01250 0.06679 0.54035 -0.17300
N 	N 	0.95787 0.44948 0.39915 -0.16400
N 	N 	0.03802 0.09315 0.48851 -0.24800
N 	N 	0.01771 0.42057 0.40894 -0.27200
N 	N 	0.48750 0.02785 0.05429 -0.19300
N 	N 	0.54213 0.94128 0.49161 -0.17500
N 	N 	0.46198 0.95049 0.05513 -0.26200
N 	N 	0.48229 0.89123 0.40286 -0.24500
N 	N 	0.55429 0.48750 0.52785 -0.16900
N 	N 	0.99161 0.54213 0.44128 -0.16000
N 	N 	0.55513 0.46198 0.45049 -0.24800
N 	N 	0.90286 0.48229 0.39123 -0.24600
N 	N 	0.04035 0.01250 0.56679 -0.17400
N 	N 	0.89915 0.95787 0.94948 -0.16000
N 	N 	0.98851 0.03802 0.59315 -0.23300
N 	N 	0.90894 0.01771 0.92057 -0.26700
N 	N 	0.94571 0.47356 0.93321 -0.17600
N 	N 	0.50839 0.94967 0.55052 -0.17400
N 	N 	0.94487 0.39536 0.90685 -0.25700
N 	N 	0.59714 0.98837 0.57943 -0.23700
N 	N 	0.45965 0.02644 0.97215 -0.20500
N 	N 	0.60085 0.55033 0.05872 -0.17500
N 	N 	0.51149 0.10464 0.04951 -0.25400
N 	N 	0.59106 0.51163 0.10877 -0.24500
N 	N 	0.45965 0.43321 0.98750 -0.17400
N 	N 	0.60085 0.05052 0.04213 -0.15800
N 	N 	0.51149 0.40685 0.96198 -0.24700
N 	N 	0.59106 0.07943 0.98229 -0.26900
N 	N 	0.94571 0.47215 0.51250 -0.17500
N 	N 	0.50839 0.55872 0.45787 -0.17800
N 	N 	0.94487 0.54951 0.53802 -0.25600
N 	N 	0.59714 0.60877 0.51771 -0.24500
N 	N 	0.04035 0.02785 0.97356 -0.20600
N 	N 	0.89915 0.94128 0.44967 -0.17500
N 	N 	0.98851 0.95049 0.89536 -0.23900
N 	N 	0.90894 0.89123 0.48837 -0.24600
N 	N 	0.55429 0.06679 0.52644 -0.17000
N 	N 	0.99161 0.44948 0.05033 -0.15600
N 	N 	0.55513 0.09315 0.60464 -0.25000
N 	N 	0.90286 0.42057 0.01163 -0.23700
N 	N 	0.02785 0.47356 0.54035 -0.18700
N 	N 	0.94128 0.94967 0.39915 -0.17200
N 	N 	0.95049 0.39536 0.48851 -0.25400
N 	N 	0.89123 0.98837 0.40894 -0.23700
N 	N 	0.06679 0.02644 0.05429 -0.19300
N 	N 	0.44948 0.55033 0.49161 -0.17800
N 	N 	0.09315 0.10464 0.05513 -0.25700
N 	N 	0.42057 0.51163 0.40286 -0.24500
N 	N 	0.43321 0.48750 0.95965 -0.17100
N 	N 	0.05052 0.54213 0.10085 -0.17300
N 	N 	0.40685 0.46198 0.01149 -0.23300
N 	N 	0.07943 0.48229 0.09106 -0.24200
N 	N 	0.47215 0.01250 0.44571 -0.17300
N 	N 	0.55872 0.95787 0.00839 -0.14500
N 	N 	0.54951 0.03802 0.44487 -0.24700
N 	N 	0.60877 0.01771 0.09714 -0.27200
N 	N 	0.01250 0.94571 0.97215 -0.19800
N 	N 	0.95787 0.50839 0.05872 -0.16100
N 	N 	0.03802 0.94487 0.04951 -0.26000
N 	N 	0.01771 0.59714 0.10877 -0.27100
N 	N 	0.48750 0.45965 0.93321 -0.17000
N 	N 	0.54213 0.60085 0.55052 -0.17800
N 	N 	0.46198 0.51149 0.90685 -0.25000
N 	N 	0.48229 0.59106 0.57943 -0.24500
N 	N 	0.02644 0.55429 0.56679 -0.18700
N 	N 	0.55033 0.99161 0.94948 -0.15500
N 	N 	0.10464 0.55513 0.59315 -0.24800
N 	N 	0.51163 0.90286 0.92057 -0.24100
N 	N 	0.47356 0.04035 0.52785 -0.17100
N 	N 	0.94967 0.89915 0.44128 -0.17400
N 	N 	0.39536 0.98851 0.45049 -0.23400
N 	N 	0.98837 0.90894 0.39123 -0.23800
O 	O 	0.18327 0.86041 0.59352 -0.36800
O 	O 	0.99114 0.79897 0.55289 -0.37300
O 	O 	0.28379 0.87001 0.56778 -0.39700
O 	O 	0.20801 0.81385 0.49532 -0.26100
O 	O 	0.27884 0.78052 0.32354 -0.45000
O 	O 	0.22984 0.94063 0.60693 -0.24600
O 	O 	0.20908 0.78157 0.32327 -0.27500
O 	O 	0.98627 0.87117 0.59110 -0.17500
O 	O 	0.76689 0.58975 0.90648 -0.37300
O 	O 	0.74608 0.43825 0.94711 -0.42200
O 	O 	0.80223 0.71601 0.93222 -0.37700
O 	O 	0.81853 0.71269 0.00468 -0.20800
O 	O 	0.95698 0.95530 0.17646 -0.41800
O 	O 	0.83370 0.62291 0.89307 -0.25200
O 	O 	0.95830 0.88581 0.17673 -0.25400
O 	O 	0.78007 0.39517 0.90890 -0.21500
O 	O 	0.73311 0.63959 0.82286 -0.37000
O 	O 	0.75392 0.70103 0.69217 -0.41500
O 	O 	0.69777 0.62999 0.91378 -0.40100
O 	O 	0.68147 0.68615 0.89416 -0.26200
O 	O 	0.54302 0.71948 0.99832 -0.46000
O 	O 	0.66630 0.55937 0.78921 -0.25000
O 	O 	0.54170 0.71843 0.92751 -0.27400
O 	O 	0.71993 0.62883 0.61510 -0.21300
O 	O 	0.31673 0.91025 0.67714 -0.36900
O 	O 	0.50886 0.06175 0.80783 -0.42500
O 	O 	0.21621 0.78399 0.58622 -0.39900
O 	O 	0.29199 0.78731 0.60584 -0.26100
O 	O 	0.22116 0.54470 0.50168 -0.45000
O 	O 	0.27016 0.87709 0.71079 -0.25200
O 	O 	0.29092 0.61419 0.57249 -0.27300
O 	O 	0.51373 0.10483 0.88490 -0.22400
O 	O 	0.32286 0.73311 0.13959 -0.36800
O 	O 	0.19217 0.75392 0.20103 -0.41500
O 	O 	0.41378 0.69777 0.12999 -0.39700
O 	O 	0.39416 0.68147 0.18615 -0.26000
O 	O 	0.49832 0.54302 0.21948 -0.44900
O 	O 	0.28921 0.66630 0.05937 -0.24600
O 	O 	0.42751 0.54170 0.21843 -0.27300
O 	O 	0.11510 0.71993 0.12883 -0.21500
O 	O 	0.17714 0.31673 0.41025 -0.37100
O 	O 	0.30783 0.50886 0.56175 -0.41500
O 	O 	0.08622 0.21621 0.28399 -0.40100
O 	O 	0.10584 0.29199 0.28731 -0.26200
O 	O 	0.00168 0.22116 0.04470 -0.44400
O 	O 	0.21079 0.27016 0.37709 -0.25200
O 	O 	0.07249 0.29092 0.11419 -0.27100
O 	O 	0.38490 0.51373 0.60483 -0.21400
O 	O 	0.09352 0.18327 0.36041 -0.37400
O 	O 	0.05289 0.99114 0.29897 -0.37900
O 	O 	0.06778 0.28379 0.37001 -0.37900
O 	O 	0.99532 0.20801 0.31385 -0.21300
O 	O 	0.82354 0.27884 0.28052 -0.44300
O 	O 	0.10693 0.22984 0.44063 -0.25400
O 	O 	0.82327 0.20908 0.28157 -0.26800
O 	O 	0.09110 0.98627 0.37117 -0.18000
O 	O 	0.40648 0.76689 0.08975 -0.36800
O 	O 	0.44711 0.74608 0.93825 -0.42500
O 	O 	0.43222 0.80223 0.21601 -0.39700
O 	O 	0.50468 0.81853 0.21269 -0.26000
O 	O 	0.67646 0.95698 0.45530 -0.43800
O 	O 	0.39307 0.83370 0.12291 -0.24700
O 	O 	0.67673 0.95830 0.38581 -0.26400
O 	O 	0.40890 0.78007 0.89517 -0.21700
O 	O 	0.58975 0.40648 0.26689 -0.36900
O 	O 	0.43825 0.44711 0.24608 -0.41500
O 	O 	0.71601 0.43222 0.30223 -0.39800
O 	O 	0.71269 0.50468 0.31853 -0.26000
O 	O 	0.95530 0.67646 0.45698 -0.43400
O 	O 	0.62291 0.39307 0.33370 -0.25000
O 	O 	0.88581 0.67673 0.45830 -0.27000
O 	O 	0.39517 0.40890 0.28007 -0.21300
O 	O 	0.86041 0.09352 0.68327 -0.37300
O 	O 	0.79897 0.05289 0.49114 -0.42100
O 	O 	0.87001 0.06778 0.78379 -0.38000
O 	O 	0.81385 0.99532 0.70801 -0.21500
O 	O 	0.78052 0.82354 0.77884 -0.44400
O 	O 	0.94063 0.10693 0.72984 -0.25100
O 	O 	0.78157 0.82327 0.70908 -0.26800
O 	O 	0.87117 0.09110 0.48627 -0.21200
O 	O 	0.91025 0.17714 0.81673 -0.37000
O 	O 	0.06175 0.30783 0.00886 -0.37700
O 	O 	0.78399 0.08622 0.71621 -0.40100
O 	O 	0.78731 0.10584 0.79199 -0.26400
O 	O 	0.54470 0.00168 0.72116 -0.45900
O 	O 	0.87709 0.21079 0.77016 -0.24900
O 	O 	0.61419 0.07249 0.79092 -0.27600
O 	O 	0.10483 0.38490 0.01373 -0.17700
O 	O 	0.63959 0.32286 0.23311 -0.36900
O 	O 	0.70103 0.19217 0.25392 -0.41600
O 	O 	0.62999 0.41378 0.19777 -0.39700
O 	O 	0.68615 0.39416 0.18147 -0.25900
O 	O 	0.71948 0.49832 0.04302 -0.43600
O 	O 	0.55937 0.28921 0.16630 -0.24900
O 	O 	0.71843 0.42751 0.04170 -0.26200
O 	O 	0.62883 0.11510 0.21993 -0.22000
O 	O 	0.63959 0.31673 0.90648 -0.37400
O 	O 	0.70103 0.50886 0.94711 -0.42200
O 	O 	0.62999 0.21621 0.93222 -0.37800
O 	O 	0.68615 0.29199 0.00468 -0.20900
O 	O 	0.71948 0.22116 0.17646 -0.44300
O 	O 	0.55937 0.27016 0.89307 -0.25600
O 	O 	0.71843 0.29092 0.17673 -0.26600
O 	O 	0.62883 0.51373 0.90890 -0.21600
O 	O 	0.91025 0.73311 0.59352 -0.36800
O 	O 	0.06175 0.75392 0.55289 -0.42400
O 	O 	0.78399 0.69777 0.56778 -0.39800
O 	O 	0.78731 0.68147 0.49532 -0.26000
O 	O 	0.54470 0.54302 0.32354 -0.44900
O 	O 	0.87709 0.66630 0.60693 -0.25000
O 	O 	0.61419 0.54170 0.32327 -0.27300
O 	O 	0.10483 0.71993 0.59110 -0.21700
O 	O 	0.86041 0.76689 0.67714 -0.36800
O 	O 	0.79897 0.74608 0.80783 -0.41600
O 	O 	0.87001 0.80223 0.58622 -0.39600
O 	O 	0.81385 0.81853 0.60584 -0.26000
O 	O 	0.78052 0.95698 0.50168 -0.43800
O 	O 	0.94063 0.83370 0.71079 -0.24500
O 	O 	0.78157 0.95830 0.57249 -0.26400
O 	O 	0.87117 0.78007 0.88490 -0.21600
O 	O 	0.58975 0.18327 0.82286 -0.37100
O 	O 	0.43825 0.99114 0.69217 -0.37300
O 	O 	0.71601 0.28379 0.91378 -0.40100
O 	O 	0.71269 0.20801 0.89416 -0.26300
O 	O 	0.95530 0.27884 0.99832 -0.44600
O 	O 	0.62291 0.22984 0.78921 -0.25000
O 	O 	0.88581 0.20908 0.92751 -0.27200
O 	O 	0.39517 0.98627 0.61510 -0.17800
O 	O 	0.76689 0.17714 0.36041 -0.37000
O 	O 	0.74608 0.30783 0.29897 -0.41500
O 	O 	0.80223 0.08622 0.37001 -0.40000
O 	O 	0.81853 0.10584 0.31385 -0.26100
O 	O 	0.95698 0.00168 0.28052 -0.44700
O 	O 	0.83370 0.21079 0.44063 -0.24800
O 	O 	0.95830 0.07249 0.28157 -0.26400
O 	O 	0.78007 0.38490 0.37117 -0.21300
O 	O 	0.18327 0.32286 0.08975 -0.36900
O 	O 	0.99114 0.19217 0.93825 -0.38300
O 	O 	0.28379 0.41378 0.21601 -0.39800
O 	O 	0.20801 0.39416 0.21269 -0.26200
O 	O 	0.27884 0.49832 0.45530 -0.44900
O 	O 	0.22984 0.28921 0.12291 -0.25000
O 	O 	0.20908 0.42751 0.38581 -0.27500
O 	O 	0.98627 0.11510 0.89517 -0.18700
O 	O 	0.31673 0.40648 0.13959 -0.36800
O 	O 	0.50886 0.44711 0.20103 -0.41400
O 	O 	0.21621 0.43222 0.12999 -0.39800
O 	O 	0.29199 0.50468 0.18615 -0.26100
O 	O 	0.22116 0.67646 0.21948 -0.45000
O 	O 	0.27016 0.39307 0.05937 -0.24700
O 	O 	0.29092 0.67673 0.21843 -0.27400
O 	O 	0.51373 0.40890 0.12883 -0.21000
O 	O 	0.73311 0.09352 0.41025 -0.37300
O 	O 	0.75392 0.05289 0.56175 -0.42100
O 	O 	0.69777 0.06778 0.28399 -0.37900
O 	O 	0.68147 0.99532 0.28731 -0.21400
O 	O 	0.54302 0.82354 0.04470 -0.42700
O 	O 	0.66630 0.10693 0.37709 -0.25400
O 	O 	0.54170 0.82327 0.11419 -0.26400
O 	O 	0.71993 0.09110 0.60483 -0.21500
O 	O 	0.09352 0.91025 0.23311 -0.37200
O 	O 	0.05289 0.06175 0.25392 -0.42900
O 	O 	0.06778 0.78399 0.19777 -0.37900
O 	O 	0.99532 0.78731 0.18147 -0.21400
O 	O 	0.82354 0.54470 0.04302 -0.43000
O 	O 	0.10693 0.87709 0.16630 -0.25000
O 	O 	0.82327 0.61419 0.04170 -0.25700
O 	O 	0.09110 0.10483 0.21993 -0.21800
O 	O 	0.40648 0.63959 0.81673 -0.36900
O 	O 	0.44711 0.70103 0.00886 -0.36800
O 	O 	0.43222 0.62999 0.71621 -0.39800
O 	O 	0.50468 0.68615 0.79199 -0.26100
O 	O 	0.67646 0.71948 0.72116 -0.44900
O 	O 	0.39307 0.55937 0.77016 -0.25100
O 	O 	0.67673 0.71843 0.79092 -0.27400
O 	O 	0.40890 0.62883 0.01373 -0.17500
O 	O 	0.32286 0.58975 0.68327 -0.37000
O 	O 	0.19217 0.43825 0.49114 -0.41700
O 	O 	0.41378 0.71601 0.78379 -0.39800
O 	O 	0.39416 0.71269 0.70801 -0.26100
O 	O 	0.49832 0.95530 0.77884 -0.43500
O 	O 	0.28921 0.62291 0.72984 -0.25300
O 	O 	0.42751 0.88581 0.70908 -0.27000
O 	O 	0.11510 0.39517 0.48627 -0.22000
O 	O 	0.17714 0.86041 0.26689 -0.36900
O 	O 	0.30783 0.79897 0.24608 -0.41400
O 	O 	0.08622 0.87001 0.30223 -0.40000
O 	O 	0.10584 0.81385 0.31853 -0.26200
O 	O 	0.00168 0.78052 0.45698 -0.45900
O 	O 	0.21079 0.94063 0.33370 -0.24500
O 	O 	0.07249 0.78157 0.45830 -0.27400
O 	O 	0.38490 0.87117 0.28007 -0.20900
