data_crystal

_cell_length_a 7.36200
_cell_length_b 13.90800
_cell_length_c 18.01500
_cell_angle_alpha 90.00000
_cell_angle_beta  90.00000
_cell_angle_gamma 90.52000

_symmetry_space_group_name_	'P 1'
_symmetry_space_group_name_H-M	'P 1'

loop_
_symmetry_equiv_pos_as_xyz
  x,y,z

loop_
_atom_site_label
_atom_site_type_symbol
_atom_site_fract_x
_atom_site_fract_y
_atom_site_fract_z
_atom_site_charge
Mn	Mn	0.10103 0.92000 0.68591 1.20800
Mn	Mn	0.60571 0.18751 0.70829 1.31100
Mn	Mn	0.89897 0.58000 0.18591 1.20800
Mn	Mn	0.39429 0.31249 0.20829 1.31100
Mn	Mn	0.89897 0.08000 0.31409 1.20800
Mn	Mn	0.39429 0.81249 0.29171 1.31100
Mn	Mn	0.10103 0.42000 0.81409 1.20900
Mn	Mn	0.60571 0.68751 0.79171 1.31200
H 	H 	0.58160 0.72840 0.61430 -0.02100
H 	H 	0.57790 0.47810 0.71070 -0.01900
H 	H 	0.52700 0.66190 0.50210 0.07100
H 	H 	0.52550 0.40310 0.59980 0.07800
H 	H 	0.08450 0.82220 0.84230 -0.02300
H 	H 	0.08020 0.09660 0.80180 -0.02000
H 	H 	0.02910 0.84480 0.96380 0.06000
H 	H 	0.02520 0.12870 0.92430 0.05600
H 	H 	0.41840 0.77160 0.11430 -0.02100
H 	H 	0.42210 0.02190 0.21070 -0.01900
H 	H 	0.47300 0.83810 0.00210 0.07100
H 	H 	0.47450 0.09690 0.09980 0.07800
H 	H 	0.91550 0.67780 0.34230 -0.02300
H 	H 	0.91980 0.40340 0.30180 -0.02000
H 	H 	0.97090 0.65520 0.46380 0.06100
H 	H 	0.97480 0.37130 0.42430 0.05700
H 	H 	0.41840 0.27160 0.38570 -0.02100
H 	H 	0.42210 0.52190 0.28930 -0.01900
H 	H 	0.47300 0.33810 0.49790 0.07100
H 	H 	0.47450 0.59690 0.40020 0.07800
H 	H 	0.91550 0.17780 0.15770 -0.02300
H 	H 	0.91980 0.90340 0.19820 -0.02000
H 	H 	0.97090 0.15520 0.03620 0.06000
H 	H 	0.97480 0.87130 0.07570 0.05600
H 	H 	0.58160 0.22840 0.88570 -0.02100
H 	H 	0.57790 0.97810 0.78930 -0.01900
H 	H 	0.52700 0.16190 0.99790 0.07100
H 	H 	0.52550 0.90310 0.90020 0.07800
H 	H 	0.08450 0.32220 0.65770 -0.02300
H 	H 	0.08020 0.59660 0.69820 -0.02000
H 	H 	0.02910 0.34480 0.53620 0.06100
H 	H 	0.02520 0.62870 0.57570 0.05700
C 	C 	0.77960 0.08430 0.68310 -0.22100
C 	C 	0.40630 0.09730 0.68290 -0.22300
C 	C 	0.42590 0.77470 0.74570 -0.20900
C 	C 	0.79780 0.76010 0.73740 -0.21000
C 	C 	0.56790 0.66190 0.61150 0.07200
C 	C 	0.56640 0.51570 0.66830 0.07600
C 	C 	0.53640 0.62250 0.54360 -0.14100
C 	C 	0.53520 0.46970 0.60130 -0.13500
C 	C 	0.51810 0.52260 0.53610 0.05800
C 	C 	0.06920 0.88490 0.85890 0.06900
C 	C 	0.06720 0.04540 0.83460 0.06900
C 	C 	0.03760 0.89760 0.93220 -0.12900
C 	C 	0.03520 0.06520 0.90880 -0.11900
C 	C 	0.01780 0.99100 0.96040 0.04800
C 	C 	0.22040 0.41570 0.18310 -0.22100
C 	C 	0.59370 0.40270 0.18290 -0.22300
C 	C 	0.57410 0.72530 0.24570 -0.20900
C 	C 	0.20220 0.73990 0.23740 -0.21100
C 	C 	0.43210 0.83810 0.11150 0.07300
C 	C 	0.43360 0.98430 0.16830 0.07700
C 	C 	0.46360 0.87750 0.04360 -0.14100
C 	C 	0.46480 0.03030 0.10130 -0.13700
C 	C 	0.48190 0.97740 0.03610 0.05900
C 	C 	0.93080 0.61510 0.35890 0.07100
C 	C 	0.93280 0.45460 0.33460 0.06800
C 	C 	0.96240 0.60240 0.43220 -0.13000
C 	C 	0.96480 0.43480 0.40880 -0.12200
C 	C 	0.98220 0.50900 0.46040 0.05100
C 	C 	0.22040 0.91570 0.31690 -0.22100
C 	C 	0.59370 0.90270 0.31710 -0.22300
C 	C 	0.57410 0.22530 0.25430 -0.20900
C 	C 	0.20220 0.23990 0.26260 -0.21000
C 	C 	0.43210 0.33810 0.38850 0.07200
C 	C 	0.43360 0.48430 0.33170 0.07600
C 	C 	0.46360 0.37750 0.45640 -0.14100
C 	C 	0.46480 0.53030 0.39870 -0.13500
C 	C 	0.48190 0.47740 0.46390 0.05800
C 	C 	0.93080 0.11510 0.14110 0.06900
C 	C 	0.93280 0.95460 0.16540 0.06900
C 	C 	0.96240 0.10240 0.06780 -0.12900
C 	C 	0.96480 0.93480 0.09120 -0.11900
C 	C 	0.98220 0.00900 0.03960 0.04800
C 	C 	0.77960 0.58430 0.81690 -0.22100
C 	C 	0.40630 0.59730 0.81710 -0.22300
C 	C 	0.42590 0.27470 0.75430 -0.20900
C 	C 	0.79780 0.26010 0.76260 -0.21100
C 	C 	0.56790 0.16190 0.88850 0.07300
C 	C 	0.56640 0.01570 0.83170 0.07700
C 	C 	0.53640 0.12250 0.95640 -0.14100
C 	C 	0.53520 0.96970 0.89870 -0.13700
C 	C 	0.51810 0.02260 0.96390 0.05900
C 	C 	0.06920 0.38490 0.64110 0.07100
C 	C 	0.06720 0.54540 0.66540 0.06800
C 	C 	0.03760 0.39760 0.56780 -0.13000
C 	C 	0.03520 0.56520 0.59120 -0.12200
C 	C 	0.01780 0.49100 0.53960 0.05100
N 	N 	0.62180 0.23900 0.63410 -0.39000
N 	N 	0.58080 0.61110 0.67550 -0.22500
N 	N 	0.08030 0.95580 0.80790 -0.25000
N 	N 	0.32510 0.82520 0.71840 -0.21100
N 	N 	0.29520 0.04180 0.66940 -0.21000
N 	N 	0.87720 0.02370 0.66760 -0.21100
N 	N 	0.90270 0.80440 0.70450 -0.21200
N 	N 	0.37820 0.26100 0.13410 -0.38900
N 	N 	0.41920 0.88890 0.17550 -0.22500
N 	N 	0.91970 0.54420 0.30790 -0.24900
N 	N 	0.67490 0.67480 0.21840 -0.21000
N 	N 	0.70480 0.45820 0.16940 -0.21000
N 	N 	0.12280 0.47630 0.16760 -0.21000
N 	N 	0.09730 0.69560 0.20450 -0.21300
N 	N 	0.37820 0.76100 0.36590 -0.39000
N 	N 	0.41920 0.38890 0.32450 -0.22500
N 	N 	0.91970 0.04420 0.19210 -0.25000
N 	N 	0.67490 0.17480 0.28160 -0.21100
N 	N 	0.70480 0.95820 0.33060 -0.21000
N 	N 	0.12280 0.97630 0.33240 -0.21100
N 	N 	0.09730 0.19560 0.29550 -0.21200
N 	N 	0.62180 0.73900 0.86590 -0.38900
N 	N 	0.58080 0.11110 0.82450 -0.22500
N 	N 	0.08030 0.45580 0.69210 -0.24900
N 	N 	0.32510 0.32520 0.78160 -0.21000
N 	N 	0.29520 0.54180 0.83060 -0.21000
N 	N 	0.87720 0.52370 0.83240 -0.21000
N 	N 	0.90270 0.30440 0.79550 -0.21300
