data_crystal

_cell_length_a 23.11800
_cell_length_b 20.91920
_cell_length_c 12.00210
_cell_angle_alpha 90.00000
_cell_angle_beta  111.62700
_cell_angle_gamma 90.00000

_symmetry_space_group_name_	'P 1'
_symmetry_space_group_name_H-M	'P 1'

loop_
_symmetry_equiv_pos_as_xyz
  x,y,z

loop_
_atom_site_label
_atom_site_type_symbol
_atom_site_fract_x
_atom_site_fract_y
_atom_site_fract_z
_atom_site_charge
O 	O 	0.03780 0.00040 0.18550 -0.89700
O 	O 	0.93400 0.12460 0.14400 -0.39600
O 	O 	0.95870 0.08980 0.98700 -0.38400
O 	O 	0.55820 0.37590 0.36610 -0.46900
O 	O 	0.58070 0.45670 0.49720 -0.48200
C 	C 	0.92810 0.12320 0.02800 0.30900
C 	C 	0.87940 0.16690 0.95300 -0.09300
C 	C 	0.85000 0.21140 0.99400 0.09400
C 	C 	0.80360 0.25080 0.92100 -0.11900
C 	C 	0.78630 0.24530 0.79400 0.05100
C 	C 	0.81510 0.19910 0.75200 -0.10000
C 	C 	0.86240 0.16070 0.82700 0.04100
C 	C 	0.73550 0.28650 0.71300 0.04300
C 	C 	0.72600 0.34910 0.74200 -0.10400
C 	C 	0.67700 0.38560 0.66200 0.04900
C 	C 	0.64010 0.36110 0.55300 -0.13400
C 	C 	0.65000 0.30000 0.52500 0.04800
C 	C 	0.69680 0.26110 0.60000 -0.10800
C 	C 	0.59070 0.40200 0.46800 0.36900
H 	H 	0.86190 0.21590 0.07860 0.01600
H 	H 	0.78370 0.28100 0.95410 0.08600
H 	H 	0.80210 0.19310 0.66770 0.06500
H 	H 	0.88310 0.13090 0.79460 0.01900
H 	H 	0.75250 0.36730 0.81550 0.08000
H 	H 	0.66960 0.42770 0.68330 0.02000
H 	H 	0.62350 0.28340 0.45040 0.02700
H 	H 	0.70270 0.21900 0.57670 0.06200
H 	H 	0.08200 0.00030 0.21770 0.21100
O 	O 	0.53780 0.50040 0.18550 -0.80800
O 	O 	0.43400 0.62460 0.14400 -0.45900
O 	O 	0.45870 0.58980 0.98700 -0.45200
O 	O 	0.05820 0.87590 0.36610 -0.51100
O 	O 	0.08070 0.95670 0.49720 -0.48200
C 	C 	0.42810 0.62320 0.02800 0.31500
C 	C 	0.37940 0.66690 0.95300 -0.11400
C 	C 	0.35000 0.71140 0.99400 0.10500
C 	C 	0.30360 0.75080 0.92100 -0.13500
C 	C 	0.28630 0.74530 0.79400 0.05300
C 	C 	0.31510 0.69910 0.75200 -0.11200
C 	C 	0.36240 0.66070 0.82700 0.04500
C 	C 	0.23550 0.78650 0.71300 0.03700
C 	C 	0.22600 0.84910 0.74200 -0.10500
C 	C 	0.17700 0.88560 0.66200 0.04700
C 	C 	0.14010 0.86110 0.55300 -0.14400
C 	C 	0.15000 0.80000 0.52500 0.04700
C 	C 	0.19680 0.76110 0.60000 -0.11500
C 	C 	0.09070 0.90200 0.46800 0.36400
H 	H 	0.36190 0.71590 0.07860 -0.00300
H 	H 	0.28370 0.78100 0.95410 0.08700
H 	H 	0.30210 0.69310 0.66770 0.06600
H 	H 	0.38310 0.63090 0.79460 0.01200
H 	H 	0.25250 0.86730 0.81550 0.07700
H 	H 	0.16960 0.92770 0.68330 0.02400
H 	H 	0.12350 0.78340 0.45040 0.01000
H 	H 	0.20270 0.71900 0.57670 0.05800
H 	H 	0.58200 0.50030 0.21770 0.21500
O 	O 	0.96220 0.00040 0.31450 -0.70600
O 	O 	0.06600 0.12460 0.35600 -0.51400
O 	O 	0.04130 0.08980 0.51300 -0.56400
O 	O 	0.44180 0.37590 0.13390 -0.46800
O 	O 	0.41930 0.45670 0.00280 -0.49400
C 	C 	0.07190 0.12320 0.47200 0.37700
C 	C 	0.12060 0.16690 0.54700 -0.16800
C 	C 	0.15000 0.21140 0.50600 0.06600
C 	C 	0.19640 0.25080 0.57900 -0.13200
C 	C 	0.21370 0.24530 0.70600 0.04500
C 	C 	0.18490 0.19910 0.74800 -0.12800
C 	C 	0.13760 0.16070 0.67300 0.05600
C 	C 	0.26450 0.28650 0.78700 0.04200
C 	C 	0.27400 0.34910 0.75800 -0.11000
C 	C 	0.32300 0.38560 0.83800 0.04200
C 	C 	0.35990 0.36110 0.94700 -0.12700
C 	C 	0.35000 0.30000 0.97500 0.10200
C 	C 	0.30320 0.26110 0.90000 -0.13200
C 	C 	0.40930 0.40200 0.03200 0.34700
H 	H 	0.13810 0.21590 0.42140 0.00700
H 	H 	0.21630 0.28100 0.54590 0.06600
H 	H 	0.19790 0.19310 0.83230 0.07300
H 	H 	0.11690 0.13090 0.70540 -0.00900
H 	H 	0.24750 0.36730 0.68450 0.05600
H 	H 	0.33040 0.42770 0.81670 0.01700
H 	H 	0.37650 0.28340 0.04960 -0.00800
H 	H 	0.29730 0.21900 0.92330 0.07800
H 	H 	0.91800 0.00030 0.28230 0.18600
O 	O 	0.46220 0.50040 0.31450 -0.80500
O 	O 	0.56600 0.62460 0.35600 -0.46600
O 	O 	0.54130 0.58980 0.51300 -0.49100
O 	O 	0.94180 0.87590 0.13390 -0.37800
O 	O 	0.91930 0.95670 0.00280 -0.40600
C 	C 	0.57190 0.62320 0.47200 0.37700
C 	C 	0.62060 0.66690 0.54700 -0.13700
C 	C 	0.65000 0.71140 0.50600 0.06400
C 	C 	0.69640 0.75080 0.57900 -0.11400
C 	C 	0.71370 0.74530 0.70600 0.05200
C 	C 	0.68490 0.69910 0.74800 -0.11100
C 	C 	0.63760 0.66070 0.67300 0.05800
C 	C 	0.76450 0.78650 0.78700 0.04600
C 	C 	0.77400 0.84910 0.75800 -0.09500
C 	C 	0.82300 0.88560 0.83800 0.03900
C 	C 	0.85990 0.86110 0.94700 -0.09500
C 	C 	0.85000 0.80000 0.97500 0.08700
C 	C 	0.80320 0.76110 0.90000 -0.11200
C 	C 	0.90930 0.90200 0.03200 0.33900
H 	H 	0.63810 0.71590 0.42140 0.02700
H 	H 	0.71630 0.78100 0.54590 0.07300
H 	H 	0.69790 0.69310 0.83230 0.07700
H 	H 	0.61690 0.63090 0.70540 0.01000
H 	H 	0.74750 0.86730 0.68450 0.07100
H 	H 	0.83040 0.92770 0.81670 0.03600
H 	H 	0.87650 0.78340 0.04960 0.02300
H 	H 	0.79730 0.71900 0.92330 0.08600
H 	H 	0.41800 0.50030 0.28230 0.21100
O 	O 	0.96220 0.99960 0.81450 -0.64800
O 	O 	0.06600 0.87540 0.85600 -0.50700
O 	O 	0.04130 0.91020 0.01300 -0.55900
O 	O 	0.44180 0.62410 0.63390 -0.46500
O 	O 	0.41930 0.54330 0.50280 -0.48600
C 	C 	0.07190 0.87680 0.97200 0.42700
C 	C 	0.12060 0.83310 0.04700 -0.17200
C 	C 	0.15000 0.78860 0.00600 0.01800
C 	C 	0.19640 0.74920 0.07900 -0.10800
C 	C 	0.21370 0.75470 0.20600 0.03800
C 	C 	0.18490 0.80090 0.24800 -0.11800
C 	C 	0.13760 0.83930 0.17300 0.05700
C 	C 	0.26450 0.71350 0.28700 0.03400
C 	C 	0.27400 0.65090 0.25800 -0.10600
C 	C 	0.32300 0.61440 0.33800 0.03800
C 	C 	0.35990 0.63890 0.44700 -0.13300
C 	C 	0.35000 0.70000 0.47500 0.04400
C 	C 	0.30320 0.73890 0.40000 -0.10700
C 	C 	0.40930 0.59800 0.53200 0.36500
H 	H 	0.13810 0.78410 0.92140 0.04000
H 	H 	0.21630 0.71900 0.04590 0.05100
H 	H 	0.19790 0.80690 0.33230 0.07100
H 	H 	0.11690 0.86910 0.20540 0.00500
H 	H 	0.24750 0.63270 0.18450 0.05100
H 	H 	0.33040 0.57230 0.31670 0.01100
H 	H 	0.37650 0.71660 0.54960 0.03500
H 	H 	0.29730 0.78100 0.42330 0.07100
H 	H 	0.91800 0.99970 0.78230 0.21200
O 	O 	0.46220 0.49960 0.81450 -0.79800
O 	O 	0.56600 0.37540 0.85600 -0.47300
O 	O 	0.54130 0.41020 0.01300 -0.53000
O 	O 	0.94180 0.12410 0.63390 -0.39400
O 	O 	0.91930 0.04330 0.50280 -0.44900
C 	C 	0.57190 0.37680 0.97200 0.43400
C 	C 	0.62060 0.33310 0.04700 -0.16100
C 	C 	0.65000 0.28860 0.00600 0.01400
C 	C 	0.69640 0.24920 0.07900 -0.09800
C 	C 	0.71370 0.25470 0.20600 0.04100
C 	C 	0.68490 0.30090 0.24800 -0.11300
C 	C 	0.63760 0.33930 0.17300 0.06000
C 	C 	0.76450 0.21350 0.28700 0.03500
C 	C 	0.77400 0.15090 0.25800 -0.10000
C 	C 	0.82300 0.11440 0.33800 0.03500
C 	C 	0.85990 0.13890 0.44700 -0.11300
C 	C 	0.85000 0.20000 0.47500 0.03900
C 	C 	0.80320 0.23890 0.40000 -0.09500
C 	C 	0.90930 0.09800 0.53200 0.36000
H 	H 	0.63810 0.28410 0.92140 0.05500
H 	H 	0.71630 0.21900 0.04590 0.05200
H 	H 	0.69790 0.30690 0.33230 0.07100
H 	H 	0.61690 0.36910 0.20540 0.00500
H 	H 	0.74750 0.13270 0.18450 0.05200
H 	H 	0.83040 0.07230 0.31670 0.01100
H 	H 	0.87650 0.21660 0.54960 0.05500
H 	H 	0.79730 0.28100 0.42330 0.07300
H 	H 	0.41800 0.49970 0.78230 0.21400
O 	O 	0.03780 0.99960 0.68550 -0.83400
O 	O 	0.93400 0.87540 0.64400 -0.39100
O 	O 	0.95870 0.91020 0.48700 -0.38600
O 	O 	0.55820 0.62410 0.86610 -0.46500
O 	O 	0.58070 0.54330 0.99720 -0.47200
C 	C 	0.92810 0.87680 0.52800 0.36000
C 	C 	0.87940 0.83310 0.45300 -0.09900
C 	C 	0.85000 0.78860 0.49400 0.04700
C 	C 	0.80360 0.74920 0.42100 -0.09600
C 	C 	0.78630 0.75470 0.29400 0.04400
C 	C 	0.81510 0.80090 0.25200 -0.09100
C 	C 	0.86240 0.83930 0.32700 0.04300
C 	C 	0.73550 0.71350 0.21300 0.03600
C 	C 	0.72600 0.65090 0.24200 -0.10100
C 	C 	0.67700 0.61440 0.16200 0.04500
C 	C 	0.64010 0.63890 0.05300 -0.13900
C 	C 	0.65000 0.70000 0.02500 -0.00800
C 	C 	0.69680 0.73890 0.10000 -0.08400
C 	C 	0.59070 0.59800 0.96800 0.38600
H 	H 	0.86190 0.78410 0.57860 0.04800
H 	H 	0.78370 0.71900 0.45410 0.07100
H 	H 	0.80210 0.80690 0.16770 0.06400
H 	H 	0.88310 0.86910 0.29460 0.03200
H 	H 	0.75250 0.63270 0.31550 0.07500
H 	H 	0.66960 0.57230 0.18330 0.01500
H 	H 	0.62350 0.71660 0.95040 0.06900
H 	H 	0.70270 0.78100 0.07670 0.05500
H 	H 	0.08200 0.99970 0.71770 0.23800
O 	O 	0.53780 0.49960 0.68550 -0.80400
O 	O 	0.43400 0.37540 0.64400 -0.46600
O 	O 	0.45870 0.41020 0.48700 -0.49300
O 	O 	0.05820 0.12410 0.86610 -0.52900
O 	O 	0.08070 0.04330 0.99720 -0.52500
C 	C 	0.42810 0.37680 0.52800 0.37300
C 	C 	0.37940 0.33310 0.45300 -0.13900
C 	C 	0.35000 0.28860 0.49400 0.05600
C 	C 	0.30360 0.24920 0.42100 -0.12000
C 	C 	0.28630 0.25470 0.29400 0.04200
C 	C 	0.31510 0.30090 0.25200 -0.11400
C 	C 	0.36240 0.33930 0.32700 0.04800
C 	C 	0.23550 0.21350 0.21300 0.02600
C 	C 	0.22600 0.15090 0.24200 -0.11000
C 	C 	0.17700 0.11440 0.16200 0.04300
C 	C 	0.14010 0.13890 0.05300 -0.16300
C 	C 	0.15000 0.20000 0.02500 -0.00700
C 	C 	0.19680 0.23890 0.10000 -0.09600
C 	C 	0.09070 0.09800 0.96800 0.38600
H 	H 	0.36190 0.28410 0.57860 0.02500
H 	H 	0.28370 0.21900 0.45410 0.06600
H 	H 	0.30210 0.30690 0.16770 0.06000
H 	H 	0.38310 0.36910 0.29460 0.00700
H 	H 	0.25250 0.13270 0.31550 0.05800
H 	H 	0.16960 0.07230 0.18330 -0.00200
H 	H 	0.12350 0.21660 0.95040 0.04500
H 	H 	0.20270 0.28100 0.07670 0.04300
H 	H 	0.58200 0.49970 0.71770 0.21800
Zn	Zn	-0.00000 0.00000 -0.00000 1.15300
Zn	Zn	0.50000 0.50000 -0.00000 1.22600
Zn	Zn	0.00000 0.00000 0.50000 1.15900
Zn	Zn	0.50000 0.50000 0.50000 1.23500
Zn	Zn	0.00000 0.07090 0.25000 1.15200
Zn	Zn	0.00000 0.93180 0.25000 1.18200
Zn	Zn	0.50000 0.57090 0.25000 1.20900
Zn	Zn	0.50000 0.43180 0.25000 1.22000
Zn	Zn	0.00000 0.92910 0.75000 1.16000
Zn	Zn	0.00000 0.06820 0.75000 1.15000
Zn	Zn	0.50000 0.42910 0.75000 1.21100
Zn	Zn	0.50000 0.56820 0.75000 1.22000
