data_crystal

_cell_length_a 8.90700
_cell_length_b 18.93200
_cell_length_c 28.64400
_cell_angle_alpha 90.00000
_cell_angle_beta  98.64100
_cell_angle_gamma 90.00000

_symmetry_space_group_name_	'P 1'
_symmetry_space_group_name_H-M	'P 1'

loop_
_symmetry_equiv_pos_as_xyz
  x,y,z

loop_
_atom_site_label
_atom_site_type_symbol
_atom_site_fract_x
_atom_site_fract_y
_atom_site_fract_z
_atom_site_charge
Co	Co	0.32436 0.03870 0.78048 1.11200
Co	Co	0.90996 0.77687 0.03806 1.07300
Co	Co	0.17564 0.53870 0.71952 1.11200
Co	Co	0.59004 0.27687 0.46194 1.07400
Co	Co	0.67564 0.96130 0.21952 1.11200
Co	Co	0.09004 0.22313 0.96194 1.07300
Co	Co	0.82436 0.46130 0.28048 1.11200
Co	Co	0.40996 0.72313 0.53806 1.07400
Mo	Mo	0.39731 0.90500 0.86421 1.15400
Mo	Mo	0.56773 0.81771 0.95874 1.16200
Mo	Mo	0.53242 0.62953 0.92639 1.07200
Mo	Mo	0.46338 0.63066 0.80760 1.16300
Mo	Mo	0.35676 0.79255 0.77051 1.08000
Mo	Mo	0.10269 0.40500 0.63579 1.15300
Mo	Mo	0.93227 0.31771 0.54126 1.16300
Mo	Mo	0.96758 0.12953 0.57361 1.07300
Mo	Mo	0.03662 0.13066 0.69240 1.16300
Mo	Mo	0.14324 0.29255 0.72949 1.07900
Mo	Mo	0.60269 0.09500 0.13579 1.15400
Mo	Mo	0.43227 0.18229 0.04126 1.16200
Mo	Mo	0.46758 0.37047 0.07361 1.07200
Mo	Mo	0.53662 0.36934 0.19240 1.16300
Mo	Mo	0.64324 0.20745 0.22949 1.08000
Mo	Mo	0.89731 0.59500 0.36421 1.15300
Mo	Mo	0.06773 0.68229 0.45874 1.16300
Mo	Mo	0.03242 0.87047 0.42639 1.07300
Mo	Mo	0.96338 0.86934 0.30760 1.16300
Mo	Mo	0.85676 0.70745 0.27051 1.07900
P 	P 	0.26717 0.73915 0.87771 0.47000
P 	P 	0.67097 0.77011 0.85694 0.46800
P 	P 	0.23283 0.23915 0.62229 0.46900
P 	P 	0.82903 0.27011 0.64306 0.46700
P 	P 	0.73283 0.26085 0.12229 0.47000
P 	P 	0.32903 0.22989 0.14306 0.46800
P 	P 	0.76717 0.76085 0.37771 0.46900
P 	P 	0.17097 0.72989 0.35694 0.46700
H 	H 	0.09560 0.92540 0.73330 -0.05200
H 	H 	0.84730 0.89160 0.73260 0.05500
H 	H 	0.70680 0.94370 0.78580 -0.01000
H 	H 	0.82350 0.02750 0.83880 0.08300
H 	H 	0.58410 0.22400 0.88380 0.06100
H 	H 	0.80420 0.23180 0.84970 -0.03400
H 	H 	0.81900 0.17170 0.77980 0.07100
H 	H 	0.61920 0.09960 0.74860 -0.04500
H 	H 	0.22220 0.37460 0.97550 -0.07800
H 	H 	0.34610 0.45590 0.93480 0.02700
H 	H 	0.42420 0.42230 0.86480 -0.01400
H 	H 	0.39000 0.30660 0.83910 0.04200
H 	H 	0.96360 0.97870 0.90600 0.06200
H 	H 	0.80250 0.94890 0.95990 0.02800
H 	H 	0.73460 0.03520 0.01030 0.04700
H 	H 	0.84160 0.14640 0.00930 -0.05100
H 	H 	0.07050 0.81580 0.85590 0.14000
H 	H 	0.04610 0.77530 0.90190 0.13700
H 	H 	0.84520 0.80750 0.81160 0.15000
H 	H 	0.77240 0.73650 0.79190 0.14000
H 	H 	0.00770 0.70040 0.81620 -0.05000
H 	H 	0.93490 0.68270 0.86140 -0.05800
H 	H 	0.40440 0.42540 0.76670 -0.05400
H 	H 	0.65270 0.39160 0.76740 0.05700
H 	H 	0.79320 0.44370 0.71420 -0.01200
H 	H 	0.67650 0.52750 0.66120 0.08600
H 	H 	0.91590 0.72400 0.61620 0.06000
H 	H 	0.69580 0.73180 0.65030 -0.03400
H 	H 	0.68100 0.67170 0.72020 0.07000
H 	H 	0.88080 0.59960 0.75140 -0.04500
H 	H 	0.27780 0.87460 0.52450 -0.07700
H 	H 	0.15390 0.95590 0.56520 0.02700
H 	H 	0.07580 0.92230 0.63520 -0.01400
H 	H 	0.11000 0.80660 0.66090 0.04100
H 	H 	0.53640 0.47870 0.59400 0.06200
H 	H 	0.69750 0.44890 0.54010 0.02800
H 	H 	0.76540 0.53520 0.48970 0.04600
H 	H 	0.65840 0.64640 0.49070 -0.05100
H 	H 	0.42950 0.31580 0.64410 0.14000
H 	H 	0.45390 0.27530 0.59810 0.13600
H 	H 	0.65480 0.30750 0.68840 0.15000
H 	H 	0.72760 0.23650 0.70810 0.14000
H 	H 	0.49230 0.20040 0.68380 -0.04800
H 	H 	0.56510 0.18270 0.63860 -0.05700
H 	H 	0.90440 0.07460 0.26670 -0.05200
H 	H 	0.15270 0.10840 0.26740 0.05500
H 	H 	0.29320 0.05630 0.21420 -0.01000
H 	H 	0.17650 0.97250 0.16120 0.08300
H 	H 	0.41590 0.77600 0.11620 0.06100
H 	H 	0.19580 0.76820 0.15030 -0.03400
H 	H 	0.18100 0.82830 0.22020 0.07100
H 	H 	0.38080 0.90040 0.25140 -0.04500
H 	H 	0.77780 0.62540 0.02450 -0.07800
H 	H 	0.65390 0.54410 0.06520 0.02700
H 	H 	0.57580 0.57770 0.13520 -0.01400
H 	H 	0.61000 0.69340 0.16090 0.04200
H 	H 	0.03640 0.02130 0.09400 0.06200
H 	H 	0.19750 0.05110 0.04010 0.02800
H 	H 	0.26540 0.96480 0.98970 0.04700
H 	H 	0.15840 0.85360 0.99070 -0.05100
H 	H 	0.92950 0.18420 0.14410 0.14000
H 	H 	0.95390 0.22470 0.09810 0.13700
H 	H 	0.15480 0.19250 0.18840 0.15000
H 	H 	0.22760 0.26350 0.20810 0.14000
H 	H 	0.99230 0.29960 0.18380 -0.05000
H 	H 	0.06510 0.31730 0.13860 -0.05800
H 	H 	0.59560 0.57460 0.23330 -0.05400
H 	H 	0.34730 0.60840 0.23260 0.05700
H 	H 	0.20680 0.55630 0.28580 -0.01200
H 	H 	0.32350 0.47250 0.33880 0.08600
H 	H 	0.08410 0.27600 0.38380 0.06000
H 	H 	0.30420 0.26820 0.34970 -0.03400
H 	H 	0.31900 0.32830 0.27980 0.07000
H 	H 	0.11920 0.40040 0.24860 -0.04500
H 	H 	0.72220 0.12540 0.47550 -0.07700
H 	H 	0.84610 0.04410 0.43480 0.02700
H 	H 	0.92420 0.07770 0.36480 -0.01400
H 	H 	0.89000 0.19340 0.33910 0.04100
H 	H 	0.46360 0.52130 0.40600 0.06200
H 	H 	0.30250 0.55110 0.45990 0.02800
H 	H 	0.23460 0.46480 0.51030 0.04600
H 	H 	0.34160 0.35360 0.50930 -0.05100
H 	H 	0.57050 0.68420 0.35590 0.14000
H 	H 	0.54610 0.72470 0.40190 0.13600
H 	H 	0.34520 0.69250 0.31160 0.15000
H 	H 	0.27240 0.76350 0.29190 0.14000
H 	H 	0.50770 0.79960 0.31620 -0.04800
H 	H 	0.43490 0.81730 0.36140 -0.05700
C 	C 	0.04040 0.94537 0.75509 0.06400
C 	C 	0.89110 0.92524 0.75417 -0.16300
C 	C 	0.80790 0.95600 0.78586 0.04500
C 	C 	0.87790 0.00530 0.81771 -0.14400
C 	C 	0.02960 0.02121 0.81773 0.04700
C 	C 	0.11620 0.07560 0.84887 -0.01300
C 	C 	0.32290 0.15412 0.85013 -0.01000
C 	C 	0.47120 0.16093 0.83307 0.06400
C 	C 	0.59160 0.20060 0.85565 -0.15700
C 	C 	0.72290 0.20460 0.83556 0.07000
C 	C 	0.73290 0.16810 0.79447 -0.17200
C 	C 	0.61150 0.12596 0.77549 0.08600
C 	C 	0.08160 0.10770 0.89026 -0.00100
C 	C 	0.25780 0.36055 0.94808 0.04800
C 	C 	0.33040 0.41004 0.92356 -0.15700
C 	C 	0.37830 0.38970 0.88246 0.02700
C 	C 	0.35860 0.32083 0.86712 -0.15000
C 	C 	0.29100 0.27318 0.89430 0.04400
C 	C 	0.25690 0.19827 0.88129 -0.01100
C 	C 	0.98350 0.08183 0.92422 0.06500
C 	C 	0.93390 0.01270 0.92623 -0.12100
C 	C 	0.83940 0.99480 0.95868 0.03900
C 	C 	0.80090 0.04560 0.98905 -0.12700
C 	C 	0.86280 0.11280 0.98752 0.05900
C 	C 	0.07550 0.76965 0.87084 -0.40900
C 	C 	0.81610 0.76065 0.82058 -0.41800
C 	C 	0.96130 0.72092 0.84162 0.22100
C 	C 	0.45960 0.44537 0.74491 0.06700
C 	C 	0.60890 0.42524 0.74583 -0.16900
C 	C 	0.69210 0.45600 0.71414 0.05200
C 	C 	0.62210 0.50530 0.68229 -0.15300
C 	C 	0.47040 0.52121 0.68227 0.05400
C 	C 	0.38380 0.57560 0.65113 -0.01600
C 	C 	0.17710 0.65412 0.64987 -0.01000
C 	C 	0.02880 0.66093 0.66693 0.06300
C 	C 	0.90840 0.70060 0.64435 -0.15600
C 	C 	0.77710 0.70460 0.66444 0.07000
C 	C 	0.76710 0.66810 0.70553 -0.17200
C 	C 	0.88850 0.62596 0.72451 0.08800
C 	C 	0.41840 0.60770 0.60974 0.00300
C 	C 	0.24220 0.86055 0.55192 0.04800
C 	C 	0.16960 0.91004 0.57644 -0.15700
C 	C 	0.12170 0.88970 0.61754 0.02800
C 	C 	0.14140 0.82083 0.63288 -0.15000
C 	C 	0.20900 0.77318 0.60570 0.04400
C 	C 	0.24310 0.69827 0.61871 -0.01100
C 	C 	0.51650 0.58183 0.57578 0.06200
C 	C 	0.56610 0.51270 0.57377 -0.12000
C 	C 	0.66060 0.49480 0.54132 0.03800
C 	C 	0.69910 0.54560 0.51095 -0.12500
C 	C 	0.63720 0.61280 0.51248 0.05800
C 	C 	0.42450 0.26965 0.62916 -0.40600
C 	C 	0.68390 0.26065 0.67942 -0.41600
C 	C 	0.53870 0.22092 0.65838 0.21700
C 	C 	0.95960 0.05463 0.24491 0.06400
C 	C 	0.10890 0.07476 0.24583 -0.16300
C 	C 	0.19210 0.04400 0.21414 0.04500
C 	C 	0.12210 0.99470 0.18229 -0.14400
C 	C 	0.97040 0.97879 0.18227 0.04700
C 	C 	0.88380 0.92440 0.15113 -0.01300
C 	C 	0.67710 0.84588 0.14987 -0.01000
C 	C 	0.52880 0.83907 0.16693 0.06400
C 	C 	0.40840 0.79940 0.14435 -0.15700
C 	C 	0.27710 0.79540 0.16444 0.07000
C 	C 	0.26710 0.83190 0.20553 -0.17200
C 	C 	0.38850 0.87404 0.22451 0.08600
C 	C 	0.91840 0.89230 0.10974 -0.00100
C 	C 	0.74220 0.63945 0.05192 0.04800
C 	C 	0.66960 0.58996 0.07644 -0.15700
C 	C 	0.62170 0.61030 0.11754 0.02700
C 	C 	0.64140 0.67917 0.13288 -0.15000
C 	C 	0.70900 0.72682 0.10570 0.04400
C 	C 	0.74310 0.80173 0.11871 -0.01100
C 	C 	0.01650 0.91817 0.07578 0.06500
C 	C 	0.06610 0.98730 0.07377 -0.12100
C 	C 	0.16060 0.00520 0.04132 0.03900
C 	C 	0.19910 0.95440 0.01095 -0.12700
C 	C 	0.13720 0.88720 0.01248 0.05900
C 	C 	0.92450 0.23035 0.12916 -0.40900
C 	C 	0.18390 0.23935 0.17942 -0.41800
C 	C 	0.03870 0.27908 0.15838 0.22100
C 	C 	0.54040 0.55463 0.25509 0.06700
C 	C 	0.39110 0.57476 0.25417 -0.16900
C 	C 	0.30790 0.54400 0.28586 0.05200
C 	C 	0.37790 0.49470 0.31771 -0.15300
C 	C 	0.52960 0.47879 0.31773 0.05400
C 	C 	0.61620 0.42440 0.34887 -0.01600
C 	C 	0.82290 0.34588 0.35013 -0.01000
C 	C 	0.97120 0.33907 0.33307 0.06300
C 	C 	0.09160 0.29940 0.35565 -0.15600
C 	C 	0.22290 0.29540 0.33556 0.07000
C 	C 	0.23290 0.33190 0.29447 -0.17200
C 	C 	0.11150 0.37404 0.27549 0.08800
C 	C 	0.58160 0.39230 0.39026 0.00300
C 	C 	0.75780 0.13945 0.44808 0.04800
C 	C 	0.83040 0.08996 0.42356 -0.15700
C 	C 	0.87830 0.11030 0.38246 0.02800
C 	C 	0.85860 0.17917 0.36712 -0.15000
C 	C 	0.79100 0.22682 0.39430 0.04400
C 	C 	0.75690 0.30173 0.38129 -0.01100
C 	C 	0.48350 0.41817 0.42422 0.06200
C 	C 	0.43390 0.48730 0.42623 -0.12000
C 	C 	0.33940 0.50520 0.45868 0.03800
C 	C 	0.30090 0.45440 0.48905 -0.12500
C 	C 	0.36280 0.38720 0.48752 0.05800
C 	C 	0.57550 0.73035 0.37084 -0.40600
C 	C 	0.31610 0.73935 0.32058 -0.41600
C 	C 	0.46130 0.77908 0.34162 0.21700
N 	N 	0.10900 0.99243 0.78599 -0.25600
N 	N 	0.24330 0.09731 0.83322 -0.21800
N 	N 	0.48440 0.12194 0.79450 -0.24800
N 	N 	0.23710 0.29373 0.93384 -0.26600
N 	N 	0.14640 0.17026 0.90215 -0.21800
N 	N 	0.95200 0.13093 0.95569 -0.25100
N 	N 	0.39100 0.49243 0.71401 -0.25800
N 	N 	0.25670 0.59731 0.66678 -0.21700
N 	N 	0.01560 0.62194 0.70550 -0.24900
N 	N 	0.26290 0.79373 0.56616 -0.26600
N 	N 	0.35360 0.67026 0.59785 -0.21800
N 	N 	0.54800 0.63093 0.54431 -0.25100
N 	N 	0.89100 0.00757 0.21401 -0.25600
N 	N 	0.75670 0.90269 0.16678 -0.21800
N 	N 	0.51560 0.87806 0.20550 -0.24800
N 	N 	0.76290 0.70627 0.06616 -0.26600
N 	N 	0.85360 0.82974 0.09785 -0.21800
N 	N 	0.04800 0.86907 0.04431 -0.25100
N 	N 	0.60900 0.50757 0.28599 -0.25800
N 	N 	0.74330 0.40269 0.33322 -0.21700
N 	N 	0.98440 0.37806 0.29450 -0.24900
N 	N 	0.73710 0.20627 0.43384 -0.26600
N 	N 	0.64640 0.32974 0.40215 -0.21800
N 	N 	0.45200 0.36907 0.45569 -0.25100
O 	O 	0.46140 0.97479 0.83304 -0.54300
O 	O 	0.54560 0.90083 0.91985 -0.49400
O 	O 	0.36950 0.80143 0.89799 -0.46100
O 	O 	0.55480 0.82281 0.83166 -0.41300
O 	O 	0.73330 0.83566 0.99692 -0.53900
O 	O 	0.73450 0.79480 0.90625 -0.35500
O 	O 	0.56590 0.71793 0.95895 -0.55300
O 	O 	0.29320 0.67740 0.91148 -0.38100
O 	O 	0.44950 0.58660 0.86750 -0.52800
O 	O 	0.59890 0.69609 0.86118 -0.45300
O 	O 	0.30450 0.59226 0.77587 -0.56100
O 	O 	0.30240 0.71784 0.82863 -0.41600
O 	O 	0.48140 0.71111 0.76792 -0.53300
O 	O 	0.28060 0.85924 0.81056 -0.54500
O 	O 	0.03860 0.47479 0.66696 -0.54400
O 	O 	0.95440 0.40083 0.58015 -0.49300
O 	O 	0.13050 0.30143 0.60201 -0.46200
O 	O 	0.94520 0.32281 0.66834 -0.41200
O 	O 	0.76670 0.33566 0.50308 -0.53900
O 	O 	0.76550 0.29480 0.59375 -0.35500
O 	O 	0.93410 0.21793 0.54105 -0.55300
O 	O 	0.20680 0.17740 0.58852 -0.38100
O 	O 	0.05050 0.08660 0.63250 -0.52900
O 	O 	0.90110 0.19609 0.63882 -0.45100
O 	O 	0.19550 0.09226 0.72413 -0.56100
O 	O 	0.19760 0.21784 0.67137 -0.41600
O 	O 	0.01860 0.21111 0.73208 -0.53400
O 	O 	0.21940 0.35924 0.68944 -0.54500
O 	O 	0.53860 0.02521 0.16696 -0.54300
O 	O 	0.45440 0.09917 0.08015 -0.49400
O 	O 	0.63050 0.19857 0.10201 -0.46100
O 	O 	0.44520 0.17719 0.16834 -0.41300
O 	O 	0.26670 0.16434 0.00308 -0.53900
O 	O 	0.26550 0.20520 0.09375 -0.35500
O 	O 	0.43410 0.28207 0.04105 -0.55300
O 	O 	0.70680 0.32260 0.08852 -0.38100
O 	O 	0.55050 0.41340 0.13250 -0.52800
O 	O 	0.40110 0.30391 0.13882 -0.45300
O 	O 	0.69550 0.40774 0.22413 -0.56100
O 	O 	0.69760 0.28216 0.17137 -0.41600
O 	O 	0.51860 0.28889 0.23208 -0.53300
O 	O 	0.71940 0.14076 0.18944 -0.54500
O 	O 	0.96140 0.52521 0.33304 -0.54400
O 	O 	0.04560 0.59917 0.41985 -0.49300
O 	O 	0.86950 0.69857 0.39799 -0.46200
O 	O 	0.05480 0.67719 0.33166 -0.41200
O 	O 	0.23330 0.66434 0.49692 -0.53900
O 	O 	0.23450 0.70520 0.40625 -0.35500
O 	O 	0.06590 0.78207 0.45895 -0.55300
O 	O 	0.79320 0.82260 0.41148 -0.38100
O 	O 	0.94950 0.91340 0.36750 -0.52900
O 	O 	0.09890 0.80391 0.36118 -0.45100
O 	O 	0.80450 0.90774 0.27587 -0.56100
O 	O 	0.80240 0.78216 0.32863 -0.41600
O 	O 	0.98140 0.78889 0.26792 -0.53400
O 	O 	0.78060 0.64076 0.31056 -0.54500
