data_crystal

_cell_length_a 26.43660
_cell_length_b 26.43660
_cell_length_c 5.32870
_cell_angle_alpha 90.00000
_cell_angle_beta  90.00000
_cell_angle_gamma 90.00000

_symmetry_space_group_name_	'P 1'
_symmetry_space_group_name_H-M	'P 1'

loop_
_symmetry_equiv_pos_as_xyz
  x,y,z

loop_
_atom_site_label
_atom_site_type_symbol
_atom_site_fract_x
_atom_site_fract_y
_atom_site_fract_z
_atom_site_charge
Zn	Zn	0.72623 0.71490 0.33260 1.22400
H 	H 	0.83200 0.50650 0.53110 0.08300
H 	H 	0.81270 0.67930 0.72660 0.04300
H 	H 	0.87710 0.66970 0.05710 0.05900
H 	H 	0.90010 0.50060 0.84640 0.06100
H 	H 	0.94800 0.53760 0.15080 0.03400
H 	H 	0.70460 0.60710 0.11560 0.00600
H 	H 	0.93510 0.62130 0.26630 0.03400
H 	H 	0.81160 0.48560 0.10680 0.12500
H 	H 	0.78610 0.40490 0.96830 -0.02500
H 	H 	0.66790 0.52140 0.20940 0.14200
H 	H 	0.64250 0.45300 0.99270 -0.01900
C 	C 	0.74157 0.51149 0.17340 0.23400
C 	C 	0.82774 0.54038 0.57240 -0.13800
C 	C 	0.79160 0.56947 0.45430 0.08700
C 	C 	0.85277 0.61560 0.81480 0.03800
C 	C 	0.85786 0.56330 0.75620 0.04600
C 	C 	0.81676 0.64515 0.68880 -0.12700
C 	C 	0.78733 0.62200 0.50580 0.04700
C 	C 	0.88160 0.63600 0.01140 -0.08300
C 	C 	0.89510 0.53450 0.88640 -0.08700
C 	C 	0.92340 0.55660 0.06890 -0.03000
C 	C 	0.73140 0.60402 0.22770 0.10700
C 	C 	0.91630 0.60720 0.13640 -0.02700
C 	C 	0.77740 0.47740 0.09900 -0.26500
C 	C 	0.71500 0.41887 0.98360 -0.26600
C 	C 	0.76190 0.42910 0.00900 0.18800
C 	C 	0.69200 0.49920 0.14600 -0.28300
C 	C 	0.67630 0.45770 0.03600 0.18300
C 	C 	0.69590 0.36920 0.89700 0.51400
N 	N 	0.74947 0.64139 0.35640 -0.26800
N 	N 	0.75587 0.55987 0.27460 -0.17300
O 	O 	0.22398 0.24618 0.15620 -0.61000
O 	O 	0.72421 0.33484 0.86030 -0.54200
O 	O 	0.65530 0.35790 0.81800 -0.36800
H 	H 	0.30250 0.24247 0.82510 0.06900
Zn	Zn	0.22623 0.21490 0.83260 1.22200
H 	H 	0.33200 0.00650 0.03110 0.07800
H 	H 	0.31270 0.17930 0.22660 0.04600
H 	H 	0.37710 0.16970 0.55710 0.05700
H 	H 	0.40010 0.00060 0.34640 0.05900
H 	H 	0.44800 0.03760 0.65080 0.03200
H 	H 	0.20460 0.10710 0.61560 0.00400
H 	H 	0.43510 0.12130 0.76630 0.03300
H 	H 	0.31160 0.98560 0.60680 0.13700
H 	H 	0.28610 0.90490 0.46830 -0.04900
H 	H 	0.16790 0.02140 0.70940 0.15300
H 	H 	0.14250 0.95300 0.49270 -0.03600
C 	C 	0.24157 0.01149 0.67340 0.25900
C 	C 	0.32774 0.04038 0.07240 -0.12500
C 	C 	0.29160 0.06947 0.95430 0.07200
C 	C 	0.35277 0.11560 0.31480 0.04300
C 	C 	0.35786 0.06330 0.25620 0.04100
C 	C 	0.31676 0.14515 0.18880 -0.13500
C 	C 	0.28733 0.12200 0.00580 0.06200
C 	C 	0.38160 0.13600 0.51140 -0.08600
C 	C 	0.39510 0.03450 0.38640 -0.09000
C 	C 	0.42340 0.05660 0.56890 -0.02600
C 	C 	0.23140 0.10402 0.72770 0.10800
C 	C 	0.41630 0.10720 0.63640 -0.02800
C 	C 	0.27740 0.97740 0.59900 -0.30000
C 	C 	0.21500 0.91887 0.48360 -0.31000
C 	C 	0.26190 0.92910 0.50900 0.24500
C 	C 	0.19200 0.99920 0.64600 -0.31800
C 	C 	0.17630 0.95770 0.53600 0.22800
C 	C 	0.19590 0.86920 0.39700 0.53200
N 	N 	0.24947 0.14139 0.85640 -0.27300
N 	N 	0.25587 0.05987 0.77460 -0.17500
O 	O 	0.72398 0.74618 0.65620 -0.61300
O 	O 	0.22421 0.83484 0.36030 -0.54900
O 	O 	0.15530 0.85790 0.31800 -0.37400
H 	H 	0.80250 0.74247 0.32510 0.07200
Zn	Zn	0.27377 0.28510 0.33260 1.22300
H 	H 	0.16800 0.49350 0.53110 0.08200
H 	H 	0.18730 0.32070 0.72660 0.04200
H 	H 	0.12290 0.33030 0.05710 0.05800
H 	H 	0.09990 0.49940 0.84640 0.06000
H 	H 	0.05200 0.46240 0.15080 0.03300
H 	H 	0.29540 0.39290 0.11560 0.00500
H 	H 	0.06490 0.37870 0.26630 0.03300
H 	H 	0.18840 0.51440 0.10680 0.12400
H 	H 	0.21390 0.59510 0.96830 -0.02600
H 	H 	0.33210 0.47860 0.20940 0.14100
H 	H 	0.35750 0.54700 0.99270 -0.02000
C 	C 	0.25843 0.48851 0.17340 0.23400
C 	C 	0.17226 0.45962 0.57240 -0.13800
C 	C 	0.20840 0.43053 0.45430 0.08700
C 	C 	0.14723 0.38440 0.81480 0.03800
C 	C 	0.14214 0.43670 0.75620 0.04600
C 	C 	0.18324 0.35485 0.68880 -0.12700
C 	C 	0.21267 0.37800 0.50580 0.04700
C 	C 	0.11840 0.36400 0.01140 -0.08300
C 	C 	0.10490 0.46550 0.88640 -0.08700
C 	C 	0.07660 0.44340 0.06890 -0.03000
C 	C 	0.26860 0.39598 0.22770 0.10700
C 	C 	0.08370 0.39280 0.13640 -0.02700
C 	C 	0.22260 0.52260 0.09900 -0.26500
C 	C 	0.28500 0.58113 0.98360 -0.26600
C 	C 	0.23810 0.57090 0.00900 0.18800
C 	C 	0.30800 0.50080 0.14600 -0.28300
C 	C 	0.32370 0.54230 0.03600 0.18300
C 	C 	0.30410 0.63080 0.89700 0.51400
N 	N 	0.25053 0.35861 0.35640 -0.26800
N 	N 	0.24413 0.44013 0.27460 -0.17300
O 	O 	0.77602 0.75382 0.15620 -0.61000
O 	O 	0.27579 0.66516 0.86030 -0.54200
O 	O 	0.34470 0.64210 0.81800 -0.36800
H 	H 	0.69750 0.75753 0.82510 0.06900
Zn	Zn	0.77377 0.78510 0.83260 1.22200
H 	H 	0.66800 0.99350 0.03110 0.07800
H 	H 	0.68730 0.82070 0.22660 0.04600
H 	H 	0.62290 0.83030 0.55710 0.05700
H 	H 	0.59990 0.99940 0.34640 0.05900
H 	H 	0.55200 0.96240 0.65080 0.03200
H 	H 	0.79540 0.89290 0.61560 0.00400
H 	H 	0.56490 0.87870 0.76630 0.03300
H 	H 	0.68840 0.01440 0.60680 0.13700
H 	H 	0.71390 0.09510 0.46830 -0.04900
H 	H 	0.83210 0.97860 0.70940 0.15300
H 	H 	0.85750 0.04700 0.49270 -0.03600
C 	C 	0.75843 0.98851 0.67340 0.25900
C 	C 	0.67226 0.95962 0.07240 -0.12500
C 	C 	0.70840 0.93053 0.95430 0.07200
C 	C 	0.64723 0.88440 0.31480 0.04300
C 	C 	0.64214 0.93670 0.25620 0.04100
C 	C 	0.68324 0.85485 0.18880 -0.13500
C 	C 	0.71267 0.87800 0.00580 0.06200
C 	C 	0.61840 0.86400 0.51140 -0.08600
C 	C 	0.60490 0.96550 0.38640 -0.09000
C 	C 	0.57660 0.94340 0.56890 -0.02600
C 	C 	0.76860 0.89598 0.72770 0.10800
C 	C 	0.58370 0.89280 0.63640 -0.02800
C 	C 	0.72260 0.02260 0.59900 -0.30000
C 	C 	0.78500 0.08113 0.48360 -0.31000
C 	C 	0.73810 0.07090 0.50900 0.24500
C 	C 	0.80800 0.00080 0.64600 -0.31800
C 	C 	0.82370 0.04230 0.53600 0.22800
C 	C 	0.80410 0.13080 0.39700 0.53200
N 	N 	0.75053 0.85861 0.85640 -0.27300
N 	N 	0.74413 0.94013 0.77460 -0.17500
O 	O 	0.27602 0.25382 0.65620 -0.61300
O 	O 	0.77579 0.16516 0.36030 -0.54900
O 	O 	0.84470 0.14210 0.31800 -0.37400
H 	H 	0.19750 0.25753 0.32510 0.07200
Zn	Zn	0.71490 0.27377 0.66740 1.22300
H 	H 	0.50650 0.16800 0.46890 0.08200
H 	H 	0.67930 0.18730 0.27340 0.04200
H 	H 	0.66970 0.12290 0.94290 0.05800
H 	H 	0.50060 0.09990 0.15360 0.06000
H 	H 	0.53760 0.05200 0.84920 0.03300
H 	H 	0.60710 0.29540 0.88440 0.00500
H 	H 	0.62130 0.06490 0.73370 0.03300
H 	H 	0.48560 0.18840 0.89320 0.12400
H 	H 	0.40490 0.21390 0.03170 -0.02600
H 	H 	0.52140 0.33210 0.79060 0.14100
H 	H 	0.45300 0.35750 0.00730 -0.02000
C 	C 	0.51149 0.25843 0.82660 0.23400
C 	C 	0.54038 0.17226 0.42760 -0.13800
C 	C 	0.56947 0.20840 0.54570 0.08700
C 	C 	0.61560 0.14723 0.18520 0.03800
C 	C 	0.56330 0.14214 0.24380 0.04600
C 	C 	0.64515 0.18324 0.31120 -0.12700
C 	C 	0.62200 0.21267 0.49420 0.04700
C 	C 	0.63600 0.11840 0.98860 -0.08300
C 	C 	0.53450 0.10490 0.11360 -0.08700
C 	C 	0.55660 0.07660 0.93110 -0.03000
C 	C 	0.60402 0.26860 0.77230 0.10700
C 	C 	0.60720 0.08370 0.86360 -0.02700
C 	C 	0.47740 0.22260 0.90100 -0.26500
C 	C 	0.41887 0.28500 0.01640 -0.26600
C 	C 	0.42910 0.23810 0.99100 0.18800
C 	C 	0.49920 0.30800 0.85400 -0.28300
C 	C 	0.45770 0.32370 0.96400 0.18300
C 	C 	0.36920 0.30410 0.10300 0.51400
N 	N 	0.64139 0.25053 0.64360 -0.26800
N 	N 	0.55987 0.24413 0.72540 -0.17300
O 	O 	0.24618 0.77602 0.84380 -0.61000
O 	O 	0.33484 0.27579 0.13970 -0.54200
O 	O 	0.35790 0.34470 0.18200 -0.36800
H 	H 	0.24247 0.69750 0.17490 0.06900
Zn	Zn	0.21490 0.77377 0.16740 1.22200
H 	H 	0.00650 0.66800 0.96890 0.07800
H 	H 	0.17930 0.68730 0.77340 0.04600
H 	H 	0.16970 0.62290 0.44290 0.05700
H 	H 	0.00060 0.59990 0.65360 0.05900
H 	H 	0.03760 0.55200 0.34920 0.03200
H 	H 	0.10710 0.79540 0.38440 0.00400
H 	H 	0.12130 0.56490 0.23370 0.03300
H 	H 	0.98560 0.68840 0.39320 0.13700
H 	H 	0.90490 0.71390 0.53170 -0.04900
H 	H 	0.02140 0.83210 0.29060 0.15300
H 	H 	0.95300 0.85750 0.50730 -0.03600
C 	C 	0.01149 0.75843 0.32660 0.25900
C 	C 	0.04038 0.67226 0.92760 -0.12500
C 	C 	0.06947 0.70840 0.04570 0.07200
C 	C 	0.11560 0.64723 0.68520 0.04300
C 	C 	0.06330 0.64214 0.74380 0.04100
C 	C 	0.14515 0.68324 0.81120 -0.13500
C 	C 	0.12200 0.71267 0.99420 0.06200
C 	C 	0.13600 0.61840 0.48860 -0.08600
C 	C 	0.03450 0.60490 0.61360 -0.09000
C 	C 	0.05660 0.57660 0.43110 -0.02600
C 	C 	0.10402 0.76860 0.27230 0.10800
C 	C 	0.10720 0.58370 0.36360 -0.02800
C 	C 	0.97740 0.72260 0.40100 -0.30000
C 	C 	0.91887 0.78500 0.51640 -0.31000
C 	C 	0.92910 0.73810 0.49100 0.24500
C 	C 	0.99920 0.80800 0.35400 -0.31800
C 	C 	0.95770 0.82370 0.46400 0.22800
C 	C 	0.86920 0.80410 0.60300 0.53200
N 	N 	0.14139 0.75053 0.14360 -0.27300
N 	N 	0.05987 0.74413 0.22540 -0.17500
O 	O 	0.74618 0.27602 0.34380 -0.61300
O 	O 	0.83484 0.77579 0.63970 -0.54900
O 	O 	0.85790 0.84470 0.68200 -0.37400
H 	H 	0.74247 0.19750 0.67490 0.07200
Zn	Zn	0.28510 0.72623 0.66740 1.22300
H 	H 	0.49350 0.83200 0.46890 0.08200
H 	H 	0.32070 0.81270 0.27340 0.04200
H 	H 	0.33030 0.87710 0.94290 0.05800
H 	H 	0.49940 0.90010 0.15360 0.06000
H 	H 	0.46240 0.94800 0.84920 0.03300
H 	H 	0.39290 0.70460 0.88440 0.00500
H 	H 	0.37870 0.93510 0.73370 0.03300
H 	H 	0.51440 0.81160 0.89320 0.12400
H 	H 	0.59510 0.78610 0.03170 -0.02600
H 	H 	0.47860 0.66790 0.79060 0.14100
H 	H 	0.54700 0.64250 0.00730 -0.02000
C 	C 	0.48851 0.74157 0.82660 0.23400
C 	C 	0.45962 0.82774 0.42760 -0.13800
C 	C 	0.43053 0.79160 0.54570 0.08700
C 	C 	0.38440 0.85277 0.18520 0.03800
C 	C 	0.43670 0.85786 0.24380 0.04600
C 	C 	0.35485 0.81676 0.31120 -0.12700
C 	C 	0.37800 0.78733 0.49420 0.04700
C 	C 	0.36400 0.88160 0.98860 -0.08300
C 	C 	0.46550 0.89510 0.11360 -0.08700
C 	C 	0.44340 0.92340 0.93110 -0.03000
C 	C 	0.39598 0.73140 0.77230 0.10700
C 	C 	0.39280 0.91630 0.86360 -0.02700
C 	C 	0.52260 0.77740 0.90100 -0.26500
C 	C 	0.58113 0.71500 0.01640 -0.26600
C 	C 	0.57090 0.76190 0.99100 0.18800
C 	C 	0.50080 0.69200 0.85400 -0.28300
C 	C 	0.54230 0.67630 0.96400 0.18300
C 	C 	0.63080 0.69590 0.10300 0.51400
N 	N 	0.35861 0.74947 0.64360 -0.26800
N 	N 	0.44013 0.75587 0.72540 -0.17300
O 	O 	0.75382 0.22398 0.84380 -0.61000
O 	O 	0.66516 0.72421 0.13970 -0.54200
O 	O 	0.64210 0.65530 0.18200 -0.36800
H 	H 	0.75753 0.30250 0.17490 0.06900
Zn	Zn	0.78510 0.22623 0.16740 1.22200
H 	H 	0.99350 0.33200 0.96890 0.07800
H 	H 	0.82070 0.31270 0.77340 0.04600
H 	H 	0.83030 0.37710 0.44290 0.05700
H 	H 	0.99940 0.40010 0.65360 0.05900
H 	H 	0.96240 0.44800 0.34920 0.03200
H 	H 	0.89290 0.20460 0.38440 0.00400
H 	H 	0.87870 0.43510 0.23370 0.03300
H 	H 	0.01440 0.31160 0.39320 0.13700
H 	H 	0.09510 0.28610 0.53170 -0.04900
H 	H 	0.97860 0.16790 0.29060 0.15300
H 	H 	0.04700 0.14250 0.50730 -0.03600
C 	C 	0.98851 0.24157 0.32660 0.25900
C 	C 	0.95962 0.32774 0.92760 -0.12500
C 	C 	0.93053 0.29160 0.04570 0.07200
C 	C 	0.88440 0.35277 0.68520 0.04300
C 	C 	0.93670 0.35786 0.74380 0.04100
C 	C 	0.85485 0.31676 0.81120 -0.13500
C 	C 	0.87800 0.28733 0.99420 0.06200
C 	C 	0.86400 0.38160 0.48860 -0.08600
C 	C 	0.96550 0.39510 0.61360 -0.09000
C 	C 	0.94340 0.42340 0.43110 -0.02600
C 	C 	0.89598 0.23140 0.27230 0.10800
C 	C 	0.89280 0.41630 0.36360 -0.02800
C 	C 	0.02260 0.27740 0.40100 -0.30000
C 	C 	0.08113 0.21500 0.51640 -0.31000
C 	C 	0.07090 0.26190 0.49100 0.24500
C 	C 	0.00080 0.19200 0.35400 -0.31800
C 	C 	0.04230 0.17630 0.46400 0.22800
C 	C 	0.13080 0.19590 0.60300 0.53200
N 	N 	0.85861 0.24947 0.14360 -0.27300
N 	N 	0.94013 0.25587 0.22540 -0.17500
O 	O 	0.25382 0.72398 0.34380 -0.61300
O 	O 	0.16516 0.22421 0.63970 -0.54900
O 	O 	0.14210 0.15530 0.68200 -0.37400
H 	H 	0.25753 0.80250 0.67490 0.07200
