data_crystal

_cell_length_a 5.39600
_cell_length_b 18.71590
_cell_length_c 18.71590
_cell_angle_alpha 88.80930
_cell_angle_beta  81.71190
_cell_angle_gamma 81.71160

_symmetry_space_group_name_	'P 1'
_symmetry_space_group_name_H-M	'P 1'

loop_
_symmetry_equiv_pos_as_xyz
  x,y,z

loop_
_atom_site_label
_atom_site_type_symbol
_atom_site_fract_x
_atom_site_fract_y
_atom_site_fract_z
_atom_site_charge
Zn	Zn	0.66126 0.94231 0.48865 1.21700
Zn	Zn	0.09222 0.05769 0.51135 1.21300
Zn	Zn	0.85009 0.48865 0.05769 1.21700
Zn	Zn	0.39643 0.51135 0.94231 1.21300
H 	H 	0.74470 0.84540 0.16640 0.07000
H 	H 	0.42330 0.90530 0.09290 0.04800
H 	H 	0.00370 0.04240 0.29380 0.05900
H 	H 	0.19580 0.65100 0.12900 0.00500
H 	H 	0.65900 0.66750 0.27690 0.02900
H 	H 	0.04000 0.81660 0.40120 -0.03800
H 	H 	0.84560 0.05260 0.18440 0.02200
H 	H 	0.32860 0.98770 0.36810 0.03500
H 	H 	0.90720 0.74520 0.18440 0.10300
H 	H 	0.37990 0.76550 0.33030 0.09000
H 	H 	0.06090 0.98470 0.08350 0.04400
H 	H 	0.75650 0.15460 0.83360 0.07600
H 	H 	0.42150 0.09470 0.90710 0.05800
H 	H 	0.33990 0.95760 0.70620 0.04700
H 	H 	0.97580 0.34900 0.87100 0.04600
H 	H 	0.60340 0.33250 0.72310 0.04100
H 	H 	0.25780 0.18340 0.59880 -0.01600
H 	H 	0.08260 0.94740 0.81560 0.03800
H 	H 	0.68440 0.01230 0.63190 0.03200
H 	H 	0.83680 0.25480 0.81560 0.06600
H 	H 	0.47570 0.23450 0.66970 0.08100
H 	H 	0.12910 0.01530 0.91650 0.02700
H 	H 	0.08890 0.16640 0.15460 0.07800
H 	H 	0.48380 0.09290 0.09470 0.06400
H 	H 	0.70250 0.29380 0.95760 0.03700
H 	H 	0.67520 0.12900 0.34900 0.01900
H 	H 	0.06410 0.27690 0.33250 0.02300
H 	H 	0.55880 0.40120 0.18340 -0.01400
H 	H 	0.97000 0.18440 0.94740 0.05000
H 	H 	0.30330 0.36810 0.01230 0.01900
H 	H 	0.90840 0.18440 0.25480 0.09400
H 	H 	0.28980 0.33030 0.23450 0.09100
H 	H 	0.85560 0.08350 0.01530 0.02900
H 	H 	0.40990 0.83360 0.84540 0.07200
H 	H 	0.67140 0.90710 0.90530 0.05800
H 	H 	0.95390 0.70620 0.04240 0.04800
H 	H 	0.15320 0.87100 0.65100 0.02000
H 	H 	0.67350 0.72310 0.66750 0.03600
H 	H 	0.14340 0.59880 0.81660 -0.01500
H 	H 	0.10180 0.81560 0.05260 0.02600
H 	H 	0.68370 0.63190 0.98770 0.02900
H 	H 	0.34760 0.81560 0.74520 0.08100
H 	H 	0.85460 0.66970 0.76550 0.08400
H 	H 	0.95440 0.91650 0.98470 0.03900
C 	C 	0.11323 0.76328 0.26406 0.15100
C 	C 	0.65840 0.87321 0.20679 -0.10900
C 	C 	0.63176 0.58523 0.16445 0.34900
C 	C 	0.74178 0.86545 0.27279 0.06900
C 	C 	0.44181 0.92333 0.20045 0.02100
C 	C 	0.33999 0.93242 0.13400 -0.05300
C 	C 	0.08987 0.01430 0.25356 -0.12400
C 	C 	0.61923 0.90928 0.33226 0.05000
C 	C 	0.31388 0.96615 0.26109 0.05800
C 	C 	0.23094 0.67282 0.17110 0.09800
C 	C 	0.44974 0.64758 0.19854 -0.13800
C 	C 	0.50574 0.68312 0.25820 0.07100
C 	C 	0.92648 0.83933 0.37051 0.12900
C 	C 	0.99637 0.02062 0.18864 0.02900
C 	C 	0.40839 0.95896 0.32766 -0.13300
C 	C 	0.05984 0.72950 0.20342 -0.19100
C 	C 	0.33888 0.74122 0.29042 -0.16300
C 	C 	0.12478 0.97951 0.12833 -0.07100
C 	C 	0.14057 0.23672 0.73594 0.10900
C 	C 	0.73840 0.12679 0.79321 -0.12500
C 	C 	0.38144 0.41477 0.83555 0.33100
C 	C 	0.88002 0.13455 0.72721 0.08500
C 	C 	0.56559 0.07667 0.79955 0.04600
C 	C 	0.40641 0.06758 0.86600 -0.08600
C 	C 	0.35773 0.98570 0.74644 -0.06700
C 	C 	0.86077 0.09072 0.66774 0.05500
C 	C 	0.54112 0.03385 0.73891 0.02800
C 	C 	0.07486 0.32718 0.82890 0.00900
C 	C 	0.29586 0.35242 0.80146 -0.09400
C 	C 	0.44706 0.31688 0.74180 0.03500
C 	C 	0.13632 0.16067 0.62949 0.09700
C 	C 	0.20563 0.97938 0.81136 -0.03600
C 	C 	0.69501 0.04104 0.67234 -0.11800
C 	C 	0.99276 0.27050 0.79658 -0.09200
C 	C 	0.37052 0.25878 0.70958 -0.12700
C 	C 	0.23262 0.02049 0.87167 -0.02400
C 	C 	0.62271 0.26406 0.23672 0.15500
C 	C 	0.13481 0.20679 0.12679 -0.15400
C 	C 	0.20379 0.16445 0.41477 0.32700
C 	C 	0.98543 0.27279 0.13455 0.10700
C 	C 	0.35774 0.20045 0.07667 0.06200
C 	C 	0.52601 0.13400 0.06758 -0.09900
C 	C 	0.65657 0.25356 0.98570 -0.05200
C 	C 	0.04851 0.33226 0.09072 0.01200
C 	C 	0.42503 0.26109 0.03385 0.00900
C 	C 	0.59796 0.17110 0.32718 0.08200
C 	C 	0.35172 0.19854 0.35242 -0.12800
C 	C 	0.23606 0.25820 0.31688 0.06500
C 	C 	0.70301 0.37051 0.16067 0.10300
C 	C 	0.81499 0.18864 0.97938 -0.05000
C 	C 	0.26395 0.32766 0.04104 -0.09600
C 	C 	0.73674 0.20342 0.27050 -0.16500
C 	C 	0.37070 0.29042 0.25878 -0.16100
C 	C 	0.74689 0.12833 0.02049 -0.00600
C 	C 	0.12349 0.73594 0.76328 0.12300
C 	C 	0.46839 0.79321 0.87321 -0.12000
C 	C 	0.78301 0.83555 0.58523 0.34400
C 	C 	0.39277 0.72721 0.86545 0.07200
C 	C 	0.63486 0.79955 0.92333 0.04000
C 	C 	0.72759 0.86600 0.93242 -0.07600
C 	C 	0.89583 0.74644 0.01430 -0.08000
C 	C 	0.47149 0.66774 0.90928 0.04100
C 	C 	0.71997 0.73891 0.96615 0.03500
C 	C 	0.09624 0.82890 0.67282 0.04400
C 	C 	0.90268 0.80146 0.64758 -0.10100
C 	C 	0.81114 0.74180 0.68312 0.04400
C 	C 	0.23419 0.62949 0.83933 0.10000
C 	C 	0.98301 0.81136 0.02062 -0.01100
C 	C 	0.63265 0.67234 0.95896 -0.11800
C 	C 	0.21066 0.79658 0.72950 -0.14100
C 	C 	0.91990 0.70958 0.74122 -0.12400
C 	C 	0.89571 0.87167 0.97951 -0.03200
N 	N 	0.74333 0.89115 0.39199 -0.28000
N 	N 	0.93944 0.82075 0.29957 -0.15600
N 	N 	0.02647 0.10885 0.60801 -0.28500
N 	N 	0.05976 0.17925 0.70043 -0.15900
N 	N 	0.86468 0.39199 0.10885 -0.26800
N 	N 	0.76099 0.29957 0.17925 -0.16200
N 	N 	0.36552 0.60801 0.89115 -0.27600
N 	N 	0.23981 0.70043 0.82075 -0.15400
O 	O 	0.30616 0.96558 0.52110 -0.75100
O 	O 	0.57727 0.55894 0.10772 -0.47300
O 	O 	0.82538 0.56457 0.19207 -0.30400
O 	O 	0.79284 0.03442 0.47890 -0.62100
O 	O 	0.24393 0.44106 0.89228 -0.47000
O 	O 	0.58202 0.43543 0.80793 -0.30100
O 	O 	0.17274 0.52110 0.03442 -0.65000
O 	O 	0.31501 0.10772 0.44106 -0.47800
O 	O 	0.98255 0.19207 0.43543 -0.29100
O 	O 	0.72826 0.47890 0.96558 -0.64100
O 	O 	0.86379 0.89228 0.55894 -0.48500
O 	O 	0.61005 0.80793 0.56457 -0.31600
H 	H 	0.72826 0.42546 0.96669 0.12100
H 	H 	0.64147 0.08334 0.48417 0.11700
H 	H 	0.23047 0.92591 0.52507 0.24400
H 	H 	0.17274 0.57454 0.03331 0.12800
