data_crystal

_cell_length_a 26.71300
_cell_length_b 26.71300
_cell_length_c 5.08830
_cell_angle_alpha 90.00000
_cell_angle_beta  90.00000
_cell_angle_gamma 90.00000

_symmetry_space_group_name_	'P 1'
_symmetry_space_group_name_H-M	'P 1'

loop_
_symmetry_equiv_pos_as_xyz
  x,y,z

loop_
_atom_site_label
_atom_site_type_symbol
_atom_site_fract_x
_atom_site_fract_y
_atom_site_fract_z
_atom_site_charge
Zn	Zn	0.78670 0.77091 0.30051 1.22500
H 	H 	0.89290 0.79230 0.05780 -0.01400
H 	H 	0.82030 0.68800 0.71440 0.02600
H 	H 	0.82830 0.62220 0.06150 0.04100
H 	H 	0.87650 0.56330 0.28140 0.04100
H 	H 	0.96200 0.55340 0.17610 0.03200
H 	H 	0.99840 0.59930 0.84680 0.05800
H 	H 	0.99390 0.66840 0.52080 0.07500
H 	H 	0.96150 0.77810 0.78330 0.09000
H 	H 	0.03940 0.79990 0.60200 0.03100
H 	H 	0.10700 0.76350 0.28650 0.01800
H 	H 	0.02970 0.74430 0.47300 0.08700
C 	C 	0.89617 0.76647 0.18500 0.10000
C 	C 	0.87799 0.71156 0.48970 0.04200
C 	C 	0.85486 0.68367 0.67640 -0.11800
C 	C 	0.88384 0.64804 0.81170 0.02700
C 	C 	0.86257 0.61804 0.01600 -0.06700
C 	C 	0.89110 0.58330 0.14740 -0.03600
C 	C 	0.94252 0.57723 0.08280 -0.02500
C 	C 	0.96429 0.60483 0.89060 -0.07900
C 	C 	0.93627 0.64228 0.75320 0.04500
C 	C 	0.95941 0.67207 0.56150 -0.12400
C 	C 	0.93002 0.70694 0.43450 0.07300
C 	C 	0.98811 0.75749 0.13760 0.14200
C 	C 	0.08022 0.78528 0.93910 -0.11500
C 	C 	0.12966 0.80023 0.82150 0.32000
C 	C 	0.99100 0.77510 0.88590 -0.15300
C 	C 	0.03700 0.78860 0.77870 0.04800
C 	C 	0.07730 0.76740 0.18600 0.07100
C 	C 	0.03180 0.75470 0.29500 -0.16100
N 	N 	0.85844 0.74912 0.32460 -0.27500
N 	N 	0.94012 0.74350 0.24230 -0.15600
O 	O 	0.74869 0.71902 0.12380 -0.81900
O 	O 	0.16822 0.78026 0.91670 -0.46700
O 	O 	0.12980 0.81650 0.58020 -0.30300
H 	H 	0.25618 0.18907 0.62380 0.32300
Zn	Zn	0.28670 0.27091 0.80051 1.22400
H 	H 	0.39290 0.29230 0.55780 -0.01400
H 	H 	0.32030 0.18800 0.21440 0.02400
H 	H 	0.32830 0.12220 0.56150 0.03800
H 	H 	0.37650 0.06330 0.78140 0.04200
H 	H 	0.46200 0.05340 0.67610 0.02900
H 	H 	0.49840 0.09930 0.34680 0.06000
H 	H 	0.49390 0.16840 0.02080 0.07500
H 	H 	0.46150 0.27810 0.28330 0.09400
H 	H 	0.53940 0.29990 0.10200 0.02900
H 	H 	0.60700 0.26350 0.78650 0.01500
H 	H 	0.52970 0.24430 0.97300 0.08900
C 	C 	0.39617 0.26647 0.68500 0.10000
C 	C 	0.37799 0.21156 0.98970 0.03200
C 	C 	0.35486 0.18367 0.17640 -0.10500
C 	C 	0.38384 0.14804 0.31170 0.02000
C 	C 	0.36257 0.11804 0.51600 -0.06000
C 	C 	0.39110 0.08330 0.64740 -0.04300
C 	C 	0.44252 0.07723 0.58280 -0.01400
C 	C 	0.46429 0.10483 0.39060 -0.08900
C 	C 	0.43627 0.14228 0.25320 0.05000
C 	C 	0.45941 0.17207 0.06150 -0.12100
C 	C 	0.43002 0.20694 0.93450 0.07100
C 	C 	0.48811 0.25749 0.63760 0.14900
C 	C 	0.58022 0.28528 0.43910 -0.12600
C 	C 	0.62966 0.30023 0.32150 0.32400
C 	C 	0.49100 0.27510 0.38590 -0.16200
C 	C 	0.53700 0.28860 0.27870 0.05600
C 	C 	0.57730 0.26740 0.68600 0.08400
C 	C 	0.53180 0.25470 0.79500 -0.16800
N 	N 	0.35844 0.24912 0.82460 -0.27500
N 	N 	0.44012 0.24350 0.74230 -0.15700
O 	O 	0.24869 0.21902 0.62380 -0.82300
O 	O 	0.66822 0.28026 0.41670 -0.47000
O 	O 	0.62980 0.31650 0.08020 -0.30400
H 	H 	0.75618 0.68907 0.12380 0.32300
Zn	Zn	0.21330 0.22909 0.30051 1.22500
H 	H 	0.10710 0.20770 0.05780 -0.01400
H 	H 	0.17970 0.31200 0.71440 0.02600
H 	H 	0.17170 0.37780 0.06150 0.04100
H 	H 	0.12350 0.43670 0.28140 0.04100
H 	H 	0.03800 0.44660 0.17610 0.03200
H 	H 	0.00160 0.40070 0.84680 0.05800
H 	H 	0.00610 0.33160 0.52080 0.07500
H 	H 	0.03850 0.22190 0.78330 0.09000
H 	H 	0.96060 0.20010 0.60200 0.03100
H 	H 	0.89300 0.23650 0.28650 0.01800
H 	H 	0.97030 0.25570 0.47300 0.08700
C 	C 	0.10383 0.23353 0.18500 0.10000
C 	C 	0.12201 0.28844 0.48970 0.04200
C 	C 	0.14514 0.31633 0.67640 -0.11800
C 	C 	0.11616 0.35196 0.81170 0.02700
C 	C 	0.13743 0.38196 0.01600 -0.06700
C 	C 	0.10890 0.41670 0.14740 -0.03600
C 	C 	0.05748 0.42277 0.08280 -0.02500
C 	C 	0.03571 0.39517 0.89060 -0.07900
C 	C 	0.06373 0.35772 0.75320 0.04500
C 	C 	0.04059 0.32793 0.56150 -0.12400
C 	C 	0.06998 0.29306 0.43450 0.07300
C 	C 	0.01189 0.24251 0.13760 0.14200
C 	C 	0.91978 0.21472 0.93910 -0.11500
C 	C 	0.87034 0.19977 0.82150 0.32000
C 	C 	0.00900 0.22490 0.88590 -0.15300
C 	C 	0.96300 0.21140 0.77870 0.04800
C 	C 	0.92270 0.23260 0.18600 0.07100
C 	C 	0.96820 0.24530 0.29500 -0.16100
N 	N 	0.14156 0.25088 0.32460 -0.27500
N 	N 	0.05988 0.25650 0.24230 -0.15600
O 	O 	0.25131 0.28098 0.12380 -0.81900
O 	O 	0.83178 0.21974 0.91670 -0.46700
O 	O 	0.87020 0.18350 0.58020 -0.30300
H 	H 	0.74382 0.81093 0.62380 0.32300
Zn	Zn	0.71330 0.72909 0.80051 1.22400
H 	H 	0.60710 0.70770 0.55780 -0.01400
H 	H 	0.67970 0.81200 0.21440 0.02400
H 	H 	0.67170 0.87780 0.56150 0.03800
H 	H 	0.62350 0.93670 0.78140 0.04200
H 	H 	0.53800 0.94660 0.67610 0.02900
H 	H 	0.50160 0.90070 0.34680 0.06000
H 	H 	0.50610 0.83160 0.02080 0.07500
H 	H 	0.53850 0.72190 0.28330 0.09400
H 	H 	0.46060 0.70010 0.10200 0.02900
H 	H 	0.39300 0.73650 0.78650 0.01500
H 	H 	0.47030 0.75570 0.97300 0.08900
C 	C 	0.60383 0.73353 0.68500 0.10000
C 	C 	0.62201 0.78844 0.98970 0.03200
C 	C 	0.64514 0.81633 0.17640 -0.10500
C 	C 	0.61616 0.85196 0.31170 0.02000
C 	C 	0.63743 0.88196 0.51600 -0.06000
C 	C 	0.60890 0.91670 0.64740 -0.04300
C 	C 	0.55748 0.92277 0.58280 -0.01400
C 	C 	0.53571 0.89517 0.39060 -0.08900
C 	C 	0.56373 0.85772 0.25320 0.05000
C 	C 	0.54059 0.82793 0.06150 -0.12100
C 	C 	0.56998 0.79306 0.93450 0.07100
C 	C 	0.51189 0.74251 0.63760 0.14900
C 	C 	0.41978 0.71472 0.43910 -0.12600
C 	C 	0.37034 0.69977 0.32150 0.32400
C 	C 	0.50900 0.72490 0.38590 -0.16200
C 	C 	0.46300 0.71140 0.27870 0.05600
C 	C 	0.42270 0.73260 0.68600 0.08400
C 	C 	0.46820 0.74530 0.79500 -0.16800
N 	N 	0.64156 0.75088 0.82460 -0.27500
N 	N 	0.55988 0.75650 0.74230 -0.15700
O 	O 	0.75131 0.78098 0.62380 -0.82300
O 	O 	0.33178 0.71974 0.41670 -0.47000
O 	O 	0.37020 0.68350 0.08020 -0.30400
H 	H 	0.24382 0.31093 0.12380 0.32300
Zn	Zn	0.77091 0.21330 0.69949 1.22500
H 	H 	0.79230 0.10710 0.94220 -0.01400
H 	H 	0.68800 0.17970 0.28560 0.02600
H 	H 	0.62220 0.17170 0.93850 0.04100
H 	H 	0.56330 0.12350 0.71860 0.04100
H 	H 	0.55340 0.03800 0.82390 0.03200
H 	H 	0.59930 0.00160 0.15320 0.05800
H 	H 	0.66840 0.00610 0.47920 0.07500
H 	H 	0.77810 0.03850 0.21670 0.09000
H 	H 	0.79990 0.96060 0.39800 0.03100
H 	H 	0.76350 0.89300 0.71350 0.01800
H 	H 	0.74430 0.97030 0.52700 0.08700
C 	C 	0.76647 0.10383 0.81500 0.10000
C 	C 	0.71156 0.12201 0.51030 0.04200
C 	C 	0.68367 0.14514 0.32360 -0.11800
C 	C 	0.64804 0.11616 0.18830 0.02700
C 	C 	0.61804 0.13743 0.98400 -0.06700
C 	C 	0.58330 0.10890 0.85260 -0.03600
C 	C 	0.57723 0.05748 0.91720 -0.02500
C 	C 	0.60483 0.03571 0.10940 -0.07900
C 	C 	0.64228 0.06373 0.24680 0.04500
C 	C 	0.67207 0.04059 0.43850 -0.12400
C 	C 	0.70694 0.06998 0.56550 0.07300
C 	C 	0.75749 0.01189 0.86240 0.14200
C 	C 	0.78528 0.91978 0.06090 -0.11500
C 	C 	0.80023 0.87034 0.17850 0.32000
C 	C 	0.77510 0.00900 0.11410 -0.15300
C 	C 	0.78860 0.96300 0.22130 0.04800
C 	C 	0.76740 0.92270 0.81400 0.07100
C 	C 	0.75470 0.96820 0.70500 -0.16100
N 	N 	0.74912 0.14156 0.67540 -0.27500
N 	N 	0.74350 0.05988 0.75770 -0.15600
O 	O 	0.71902 0.25131 0.87620 -0.81900
O 	O 	0.78026 0.83178 0.08330 -0.46700
O 	O 	0.81650 0.87020 0.41980 -0.30300
H 	H 	0.18907 0.74382 0.37620 0.32300
Zn	Zn	0.27091 0.71330 0.19949 1.22400
H 	H 	0.29230 0.60710 0.44220 -0.01400
H 	H 	0.18800 0.67970 0.78560 0.02400
H 	H 	0.12220 0.67170 0.43850 0.03800
H 	H 	0.06330 0.62350 0.21860 0.04200
H 	H 	0.05340 0.53800 0.32390 0.02900
H 	H 	0.09930 0.50160 0.65320 0.06000
H 	H 	0.16840 0.50610 0.97920 0.07500
H 	H 	0.27810 0.53850 0.71670 0.09400
H 	H 	0.29990 0.46060 0.89800 0.02900
H 	H 	0.26350 0.39300 0.21350 0.01500
H 	H 	0.24430 0.47030 0.02700 0.08900
C 	C 	0.26647 0.60383 0.31500 0.10000
C 	C 	0.21156 0.62201 0.01030 0.03200
C 	C 	0.18367 0.64514 0.82360 -0.10500
C 	C 	0.14804 0.61616 0.68830 0.02000
C 	C 	0.11804 0.63743 0.48400 -0.06000
C 	C 	0.08330 0.60890 0.35260 -0.04300
C 	C 	0.07723 0.55748 0.41720 -0.01400
C 	C 	0.10483 0.53571 0.60940 -0.08900
C 	C 	0.14228 0.56373 0.74680 0.05000
C 	C 	0.17207 0.54059 0.93850 -0.12100
C 	C 	0.20694 0.56998 0.06550 0.07100
C 	C 	0.25749 0.51189 0.36240 0.14900
C 	C 	0.28528 0.41978 0.56090 -0.12600
C 	C 	0.30023 0.37034 0.67850 0.32400
C 	C 	0.27510 0.50900 0.61410 -0.16200
C 	C 	0.28860 0.46300 0.72130 0.05600
C 	C 	0.26740 0.42270 0.31400 0.08400
C 	C 	0.25470 0.46820 0.20500 -0.16800
N 	N 	0.24912 0.64156 0.17540 -0.27500
N 	N 	0.24350 0.55988 0.25770 -0.15700
O 	O 	0.21902 0.75131 0.37620 -0.82300
O 	O 	0.28026 0.33178 0.58330 -0.47000
O 	O 	0.31650 0.37020 0.91980 -0.30400
H 	H 	0.68907 0.24382 0.87620 0.32300
Zn	Zn	0.22909 0.78670 0.69949 1.22500
H 	H 	0.20770 0.89290 0.94220 -0.01400
H 	H 	0.31200 0.82030 0.28560 0.02600
H 	H 	0.37780 0.82830 0.93850 0.04100
H 	H 	0.43670 0.87650 0.71860 0.04100
H 	H 	0.44660 0.96200 0.82390 0.03200
H 	H 	0.40070 0.99840 0.15320 0.05800
H 	H 	0.33160 0.99390 0.47920 0.07500
H 	H 	0.22190 0.96150 0.21670 0.09000
H 	H 	0.20010 0.03940 0.39800 0.03100
H 	H 	0.23650 0.10700 0.71350 0.01800
H 	H 	0.25570 0.02970 0.52700 0.08700
C 	C 	0.23353 0.89617 0.81500 0.10000
C 	C 	0.28844 0.87799 0.51030 0.04200
C 	C 	0.31633 0.85486 0.32360 -0.11800
C 	C 	0.35196 0.88384 0.18830 0.02700
C 	C 	0.38196 0.86257 0.98400 -0.06700
C 	C 	0.41670 0.89110 0.85260 -0.03600
C 	C 	0.42277 0.94252 0.91720 -0.02500
C 	C 	0.39517 0.96429 0.10940 -0.07900
C 	C 	0.35772 0.93627 0.24680 0.04500
C 	C 	0.32793 0.95941 0.43850 -0.12400
C 	C 	0.29306 0.93002 0.56550 0.07300
C 	C 	0.24251 0.98811 0.86240 0.14200
C 	C 	0.21472 0.08022 0.06090 -0.11500
C 	C 	0.19977 0.12966 0.17850 0.32000
C 	C 	0.22490 0.99100 0.11410 -0.15300
C 	C 	0.21140 0.03700 0.22130 0.04800
C 	C 	0.23260 0.07730 0.81400 0.07100
C 	C 	0.24530 0.03180 0.70500 -0.16100
N 	N 	0.25088 0.85844 0.67540 -0.27500
N 	N 	0.25650 0.94012 0.75770 -0.15600
O 	O 	0.28098 0.74869 0.87620 -0.81900
O 	O 	0.21974 0.16822 0.08330 -0.46700
O 	O 	0.18350 0.12980 0.41980 -0.30300
H 	H 	0.81093 0.25618 0.37620 0.32300
Zn	Zn	0.72909 0.28670 0.19949 1.22400
H 	H 	0.70770 0.39290 0.44220 -0.01400
H 	H 	0.81200 0.32030 0.78560 0.02400
H 	H 	0.87780 0.32830 0.43850 0.03800
H 	H 	0.93670 0.37650 0.21860 0.04200
H 	H 	0.94660 0.46200 0.32390 0.02900
H 	H 	0.90070 0.49840 0.65320 0.06000
H 	H 	0.83160 0.49390 0.97920 0.07500
H 	H 	0.72190 0.46150 0.71670 0.09400
H 	H 	0.70010 0.53940 0.89800 0.02900
H 	H 	0.73650 0.60700 0.21350 0.01500
H 	H 	0.75570 0.52970 0.02700 0.08900
C 	C 	0.73353 0.39617 0.31500 0.10000
C 	C 	0.78844 0.37799 0.01030 0.03200
C 	C 	0.81633 0.35486 0.82360 -0.10500
C 	C 	0.85196 0.38384 0.68830 0.02000
C 	C 	0.88196 0.36257 0.48400 -0.06000
C 	C 	0.91670 0.39110 0.35260 -0.04300
C 	C 	0.92277 0.44252 0.41720 -0.01400
C 	C 	0.89517 0.46429 0.60940 -0.08900
C 	C 	0.85772 0.43627 0.74680 0.05000
C 	C 	0.82793 0.45941 0.93850 -0.12100
C 	C 	0.79306 0.43002 0.06550 0.07100
C 	C 	0.74251 0.48811 0.36240 0.14900
C 	C 	0.71472 0.58022 0.56090 -0.12600
C 	C 	0.69977 0.62966 0.67850 0.32400
C 	C 	0.72490 0.49100 0.61410 -0.16200
C 	C 	0.71140 0.53700 0.72130 0.05600
C 	C 	0.73260 0.57730 0.31400 0.08400
C 	C 	0.74530 0.53180 0.20500 -0.16800
N 	N 	0.75088 0.35844 0.17540 -0.27500
N 	N 	0.75650 0.44012 0.25770 -0.15700
O 	O 	0.78098 0.24869 0.37620 -0.82300
O 	O 	0.71974 0.66822 0.58330 -0.47000
O 	O 	0.68350 0.62980 0.91980 -0.30400
H 	H 	0.31093 0.75618 0.87620 0.32300
