data_crystal

_cell_length_a 27.47560
_cell_length_b 27.47560
_cell_length_c 27.47560
_cell_angle_alpha 90.00000
_cell_angle_beta  90.00000
_cell_angle_gamma 90.00000

_symmetry_space_group_name_	'P 1'
_symmetry_space_group_name_H-M	'P 1'

loop_
_symmetry_equiv_pos_as_xyz
  x,y,z

loop_
_atom_site_label
_atom_site_type_symbol
_atom_site_fract_x
_atom_site_fract_y
_atom_site_fract_z
_atom_site_charge
C 	C 	0.29330 0.85280 0.51620 4.03900
H 	H 	0.28600 0.88470 0.52740 -7.61700
C 	C 	0.25740 0.81650 0.51520 -1.94100
H 	H 	0.22500 0.82370 0.52480 0.27000
F 	F 	0.27510 0.89640 0.53130 5.92600
C 	C 	0.29330 0.35280 0.01620 4.01400
H 	H 	0.28600 0.38470 0.02740 -7.81200
C 	C 	0.25740 0.31650 0.01520 -1.59700
H 	H 	0.22500 0.32370 0.02480 0.15800
F 	F 	0.27510 0.39640 0.03130 6.12000
C 	C 	0.79330 0.85280 0.01620 3.98400
H 	H 	0.78600 0.88470 0.02740 -7.83300
C 	C 	0.75740 0.81650 0.01520 -1.46700
H 	H 	0.72500 0.82370 0.02480 0.12000
F 	F 	0.77510 0.89640 0.03130 6.15400
C 	C 	0.79330 0.35280 0.51620 4.05100
H 	H 	0.78600 0.38470 0.52740 -7.64500
C 	C 	0.75740 0.31650 0.51520 -1.94300
H 	H 	0.72500 0.32370 0.52480 0.27100
F 	F 	0.77510 0.39640 0.53130 5.94900
C 	C 	0.70670 0.14720 0.51620 4.06100
H 	H 	0.71400 0.11530 0.52740 -7.69400
C 	C 	0.74260 0.18350 0.51520 -1.91100
H 	H 	0.77500 0.17630 0.52480 0.26000
F 	F 	0.72490 0.10360 0.53130 5.98800
C 	C 	0.70670 0.64720 0.01620 3.99500
H 	H 	0.71400 0.61530 0.02740 -7.86200
C 	C 	0.74260 0.68350 0.01520 -1.46300
H 	H 	0.77500 0.67630 0.02480 0.11900
F 	F 	0.72490 0.60360 0.03130 6.17800
C 	C 	0.20670 0.14720 0.01620 4.02300
H 	H 	0.21400 0.11530 0.02740 -7.83700
C 	C 	0.24260 0.18350 0.01520 -1.59200
H 	H 	0.27500 0.17630 0.02480 0.15700
F 	F 	0.22490 0.10360 0.03130 6.14000
C 	C 	0.20670 0.64720 0.51620 4.04700
H 	H 	0.21400 0.61530 0.52740 -7.65400
C 	C 	0.24260 0.68350 0.51520 -1.90700
H 	H 	0.27500 0.67630 0.52480 0.26000
F 	F 	0.22490 0.60360 0.53130 5.95800
C 	C 	0.70670 0.85280 0.48380 4.03800
H 	H 	0.71400 0.88470 0.47260 -7.58800
C 	C 	0.74260 0.81650 0.48480 -1.96000
H 	H 	0.77500 0.82370 0.47520 0.28000
F 	F 	0.72490 0.89640 0.46870 5.90100
C 	C 	0.70670 0.35280 0.98380 4.09400
H 	H 	0.71400 0.38470 0.97260 -7.44800
C 	C 	0.74260 0.31650 0.98480 -2.35600
H 	H 	0.77500 0.32370 0.97520 0.40300
F 	F 	0.72490 0.39640 0.96870 5.74300
C 	C 	0.20670 0.85280 0.98380 4.08300
H 	H 	0.21400 0.88470 0.97260 -7.41700
C 	C 	0.24260 0.81650 0.98480 -2.35400
H 	H 	0.27500 0.82370 0.97520 0.40300
F 	F 	0.22490 0.89640 0.96870 5.71900
C 	C 	0.20670 0.35280 0.48380 4.05000
H 	H 	0.21400 0.38470 0.47260 -7.63400
C 	C 	0.24260 0.31650 0.48480 -1.94400
H 	H 	0.27500 0.32370 0.47520 0.27100
F 	F 	0.22490 0.39640 0.46870 5.93800
C 	C 	0.29330 0.14720 0.48380 4.06700
H 	H 	0.28600 0.11530 0.47260 -7.68000
C 	C 	0.25740 0.18350 0.48480 -1.95600
H 	H 	0.22500 0.17630 0.47520 0.27200
F 	F 	0.27510 0.10360 0.46870 5.97300
C 	C 	0.29330 0.64720 0.98380 4.10000
H 	H 	0.28600 0.61530 0.97260 -7.46200
C 	C 	0.25740 0.68350 0.98480 -2.36100
H 	H 	0.22500 0.67630 0.97520 0.40300
F 	F 	0.27510 0.60360 0.96870 5.75400
C 	C 	0.79330 0.14720 0.98380 4.11500
H 	H 	0.78600 0.11530 0.97260 -7.50100
C 	C 	0.75740 0.18350 0.98480 -2.36500
H 	H 	0.72500 0.17630 0.97520 0.40300
F 	F 	0.77510 0.10360 0.96870 5.78300
C 	C 	0.79330 0.64720 0.48380 4.05500
H 	H 	0.78600 0.61530 0.47260 -7.63500
C 	C 	0.75740 0.68350 0.48480 -1.97200
H 	H 	0.72500 0.67630 0.47520 0.28100
F 	F 	0.77510 0.60360 0.46870 5.93800
C 	C 	0.51620 0.29330 0.85280 4.04000
H 	H 	0.52740 0.28600 0.88470 -7.61600
C 	C 	0.51520 0.25740 0.81650 -1.94000
H 	H 	0.52480 0.22500 0.82370 0.27100
F 	F 	0.53130 0.27510 0.89640 5.92700
C 	C 	0.51620 0.79330 0.35280 4.05100
H 	H 	0.52740 0.78600 0.38470 -7.64500
C 	C 	0.51520 0.75740 0.31650 -1.94300
H 	H 	0.52480 0.72500 0.32370 0.27100
F 	F 	0.53130 0.77510 0.39640 5.94900
C 	C 	0.01620 0.29330 0.35280 4.01500
H 	H 	0.02740 0.28600 0.38470 -7.81100
C 	C 	0.01520 0.25740 0.31650 -1.59600
H 	H 	0.02480 0.22500 0.32370 0.15900
F 	F 	0.03130 0.27510 0.39640 6.12100
C 	C 	0.01620 0.79330 0.85280 3.98500
H 	H 	0.02740 0.78600 0.88470 -7.83200
C 	C 	0.01520 0.75740 0.81650 -1.46600
H 	H 	0.02480 0.72500 0.82370 0.12100
F 	F 	0.03130 0.77510 0.89640 6.15500
C 	C 	0.51620 0.70670 0.14720 4.06100
H 	H 	0.52740 0.71400 0.11530 -7.69400
C 	C 	0.51520 0.74260 0.18350 -1.91100
H 	H 	0.52480 0.77500 0.17630 0.26000
F 	F 	0.53130 0.72490 0.10360 5.98800
C 	C 	0.51620 0.20670 0.64720 4.04700
H 	H 	0.52740 0.21400 0.61530 -7.65400
C 	C 	0.51520 0.24260 0.68350 -1.90700
H 	H 	0.52480 0.27500 0.67630 0.26000
F 	F 	0.53130 0.22490 0.60360 5.95800
C 	C 	0.01620 0.70670 0.64720 3.99500
H 	H 	0.02740 0.71400 0.61530 -7.86200
C 	C 	0.01520 0.74260 0.68350 -1.46300
H 	H 	0.02480 0.77500 0.67630 0.11900
F 	F 	0.03130 0.72490 0.60360 6.17800
C 	C 	0.01620 0.20670 0.14720 4.02300
H 	H 	0.02740 0.21400 0.11530 -7.83700
C 	C 	0.01520 0.24260 0.18350 -1.59200
H 	H 	0.02480 0.27500 0.17630 0.15700
F 	F 	0.03130 0.22490 0.10360 6.14000
C 	C 	0.48380 0.70670 0.85280 4.03800
H 	H 	0.47260 0.71400 0.88470 -7.58800
C 	C 	0.48480 0.74260 0.81650 -1.96000
H 	H 	0.47520 0.77500 0.82370 0.28000
F 	F 	0.46870 0.72490 0.89640 5.90100
C 	C 	0.48380 0.20670 0.35280 4.05000
H 	H 	0.47260 0.21400 0.38470 -7.63400
C 	C 	0.48480 0.24260 0.31650 -1.94400
H 	H 	0.47520 0.27500 0.32370 0.27100
F 	F 	0.46870 0.22490 0.39640 5.93800
C 	C 	0.98380 0.70670 0.35280 4.09400
H 	H 	0.97260 0.71400 0.38470 -7.44800
C 	C 	0.98480 0.74260 0.31650 -2.35600
H 	H 	0.97520 0.77500 0.32370 0.40300
F 	F 	0.96870 0.72490 0.39640 5.74300
C 	C 	0.98380 0.20670 0.85280 4.08300
H 	H 	0.97260 0.21400 0.88470 -7.41700
C 	C 	0.98480 0.24260 0.81650 -2.35400
H 	H 	0.97520 0.27500 0.82370 0.40300
F 	F 	0.96870 0.22490 0.89640 5.71900
C 	C 	0.48380 0.29330 0.14720 4.06700
H 	H 	0.47260 0.28600 0.11530 -7.68000
C 	C 	0.48480 0.25740 0.18350 -1.95600
H 	H 	0.47520 0.22500 0.17630 0.27200
F 	F 	0.46870 0.27510 0.10360 5.97300
C 	C 	0.48380 0.79330 0.64720 4.05500
H 	H 	0.47260 0.78600 0.61530 -7.63500
C 	C 	0.48480 0.75740 0.68350 -1.97200
H 	H 	0.47520 0.72500 0.67630 0.28100
F 	F 	0.46870 0.77510 0.60360 5.93800
C 	C 	0.98380 0.29330 0.64720 4.10000
H 	H 	0.97260 0.28600 0.61530 -7.46200
C 	C 	0.98480 0.25740 0.68350 -2.36100
H 	H 	0.97520 0.22500 0.67630 0.40300
F 	F 	0.96870 0.27510 0.60360 5.75400
C 	C 	0.98380 0.79330 0.14720 4.11500
H 	H 	0.97260 0.78600 0.11530 -7.50100
C 	C 	0.98480 0.75740 0.18350 -2.36500
H 	H 	0.97520 0.72500 0.17630 0.40300
F 	F 	0.96870 0.77510 0.10360 5.78300
C 	C 	0.85280 0.51620 0.29330 4.04000
H 	H 	0.88470 0.52740 0.28600 -7.61600
C 	C 	0.81650 0.51520 0.25740 -1.94000
H 	H 	0.82370 0.52480 0.22500 0.27100
F 	F 	0.89640 0.53130 0.27510 5.92700
C 	C 	0.85280 0.01620 0.79330 3.98500
H 	H 	0.88470 0.02740 0.78600 -7.83200
C 	C 	0.81650 0.01520 0.75740 -1.46600
H 	H 	0.82370 0.02480 0.72500 0.12100
F 	F 	0.89640 0.03130 0.77510 6.15500
C 	C 	0.35280 0.51620 0.79330 4.05100
H 	H 	0.38470 0.52740 0.78600 -7.64500
C 	C 	0.31650 0.51520 0.75740 -1.94300
H 	H 	0.32370 0.52480 0.72500 0.27100
F 	F 	0.39640 0.53130 0.77510 5.94900
C 	C 	0.35280 0.01620 0.29330 4.01500
H 	H 	0.38470 0.02740 0.28600 -7.81100
C 	C 	0.31650 0.01520 0.25740 -1.59600
H 	H 	0.32370 0.02480 0.22500 0.15900
F 	F 	0.39640 0.03130 0.27510 6.12100
C 	C 	0.14720 0.51620 0.70670 4.06100
H 	H 	0.11530 0.52740 0.71400 -7.69400
C 	C 	0.18350 0.51520 0.74260 -1.91100
H 	H 	0.17630 0.52480 0.77500 0.26000
F 	F 	0.10360 0.53130 0.72490 5.98800
C 	C 	0.14720 0.01620 0.20670 4.02300
H 	H 	0.11530 0.02740 0.21400 -7.83700
C 	C 	0.18350 0.01520 0.24260 -1.59200
H 	H 	0.17630 0.02480 0.27500 0.15700
F 	F 	0.10360 0.03130 0.22490 6.14000
C 	C 	0.64720 0.51620 0.20670 4.04700
H 	H 	0.61530 0.52740 0.21400 -7.65400
C 	C 	0.68350 0.51520 0.24260 -1.90700
H 	H 	0.67630 0.52480 0.27500 0.26000
F 	F 	0.60360 0.53130 0.22490 5.95800
C 	C 	0.64720 0.01620 0.70670 3.99500
H 	H 	0.61530 0.02740 0.71400 -7.86200
C 	C 	0.68350 0.01520 0.74260 -1.46300
H 	H 	0.67630 0.02480 0.77500 0.11900
F 	F 	0.60360 0.03130 0.72490 6.17800
C 	C 	0.85280 0.48380 0.70670 4.03800
H 	H 	0.88470 0.47260 0.71400 -7.58800
C 	C 	0.81650 0.48480 0.74260 -1.96000
H 	H 	0.82370 0.47520 0.77500 0.28000
F 	F 	0.89640 0.46870 0.72490 5.90100
C 	C 	0.85280 0.98380 0.20670 4.08300
H 	H 	0.88470 0.97260 0.21400 -7.41700
C 	C 	0.81650 0.98480 0.24260 -2.35400
H 	H 	0.82370 0.97520 0.27500 0.40300
F 	F 	0.89640 0.96870 0.22490 5.71900
C 	C 	0.35280 0.48380 0.20670 4.05000
H 	H 	0.38470 0.47260 0.21400 -7.63400
C 	C 	0.31650 0.48480 0.24260 -1.94400
H 	H 	0.32370 0.47520 0.27500 0.27100
F 	F 	0.39640 0.46870 0.22490 5.93800
C 	C 	0.35280 0.98380 0.70670 4.09400
H 	H 	0.38470 0.97260 0.71400 -7.44800
C 	C 	0.31650 0.98480 0.74260 -2.35600
H 	H 	0.32370 0.97520 0.77500 0.40300
F 	F 	0.39640 0.96870 0.72490 5.74300
C 	C 	0.14720 0.48380 0.29330 4.06700
H 	H 	0.11530 0.47260 0.28600 -7.68000
C 	C 	0.18350 0.48480 0.25740 -1.95600
H 	H 	0.17630 0.47520 0.22500 0.27200
F 	F 	0.10360 0.46870 0.27510 5.97300
C 	C 	0.14720 0.98380 0.79330 4.11500
H 	H 	0.11530 0.97260 0.78600 -7.50100
C 	C 	0.18350 0.98480 0.75740 -2.36500
H 	H 	0.17630 0.97520 0.72500 0.40300
F 	F 	0.10360 0.96870 0.77510 5.78300
C 	C 	0.64720 0.48380 0.79330 4.05500
H 	H 	0.61530 0.47260 0.78600 -7.63500
C 	C 	0.68350 0.48480 0.75740 -1.97200
H 	H 	0.67630 0.47520 0.72500 0.28100
F 	F 	0.60360 0.46870 0.77510 5.93800
C 	C 	0.64720 0.98380 0.29330 4.10000
H 	H 	0.61530 0.97260 0.28600 -7.46200
C 	C 	0.68350 0.98480 0.25740 -2.36100
H 	H 	0.67630 0.97520 0.22500 0.40300
F 	F 	0.60360 0.96870 0.27510 5.75400
C 	C 	0.85280 0.29330 0.48380 4.04100
H 	H 	0.88470 0.28600 0.47260 -7.62200
C 	C 	0.81650 0.25740 0.48480 -1.93100
H 	H 	0.82370 0.22500 0.47520 0.26800
F 	F 	0.89640 0.27510 0.46870 5.93200
C 	C 	0.85280 0.79330 0.98380 4.08900
H 	H 	0.88470 0.78600 0.97260 -7.40300
C 	C 	0.81650 0.75740 0.98480 -2.40500
H 	H 	0.82370 0.72500 0.97520 0.42100
F 	F 	0.89640 0.77510 0.96870 5.70400
C 	C 	0.35280 0.29330 0.98380 4.09200
H 	H 	0.38470 0.28600 0.97260 -7.49300
C 	C 	0.31650 0.25740 0.98480 -2.29200
H 	H 	0.32370 0.22500 0.97520 0.38100
F 	F 	0.39640 0.27510 0.96870 5.78600
C 	C 	0.35280 0.79330 0.48380 4.05200
H 	H 	0.38470 0.78600 0.47260 -7.65000
C 	C 	0.31650 0.75740 0.48480 -1.93700
H 	H 	0.32370 0.72500 0.47520 0.26900
F 	F 	0.39640 0.77510 0.46870 5.95300
C 	C 	0.14720 0.70670 0.48380 4.06900
H 	H 	0.11530 0.71400 0.47260 -7.65700
C 	C 	0.18350 0.74260 0.48480 -1.98700
H 	H 	0.17630 0.77500 0.47520 0.28400
F 	F 	0.10360 0.72490 0.46870 5.95100
C 	C 	0.14720 0.20670 0.98380 4.10500
H 	H 	0.11530 0.21400 0.97260 -7.50700
C 	C 	0.18350 0.24260 0.98480 -2.31100
H 	H 	0.17630 0.27500 0.97520 0.38600
F 	F 	0.10360 0.22490 0.96870 5.79200
C 	C 	0.64720 0.70670 0.98380 4.10300
H 	H 	0.61530 0.71400 0.97260 -7.42000
C 	C 	0.68350 0.74260 0.98480 -2.42500
H 	H 	0.67630 0.77500 0.97520 0.42600
F 	F 	0.60360 0.72490 0.96870 5.71300
C 	C 	0.64720 0.20670 0.48380 4.05500
H 	H 	0.61530 0.21400 0.47260 -7.61900
C 	C 	0.68350 0.24260 0.48480 -1.97900
H 	H 	0.67630 0.27500 0.47520 0.28300
F 	F 	0.60360 0.22490 0.46870 5.92200
C 	C 	0.85280 0.70670 0.51620 4.02900
H 	H 	0.88470 0.71400 0.52740 -7.61100
C 	C 	0.81650 0.74260 0.51520 -1.90700
H 	H 	0.82370 0.77500 0.52480 0.26400
F 	F 	0.89640 0.72490 0.53130 5.92800
C 	C 	0.85280 0.20670 0.01620 3.99100
H 	H 	0.88470 0.21400 0.02740 -7.79600
C 	C 	0.81650 0.24260 0.01520 -1.52400
H 	H 	0.82370 0.27500 0.02480 0.13900
F 	F 	0.89640 0.22490 0.03130 6.11800
C 	C 	0.35280 0.70670 0.01620 4.00100
H 	H 	0.38470 0.71400 0.02740 -7.82600
C 	C 	0.31650 0.74260 0.01520 -1.52900
H 	H 	0.32370 0.77500 0.02480 0.14000
F 	F 	0.39640 0.72490 0.03130 6.14100
C 	C 	0.35280 0.20670 0.51620 4.04900
H 	H 	0.38470 0.21400 0.52740 -7.63500
C 	C 	0.31650 0.24260 0.51520 -1.94100
H 	H 	0.32370 0.27500 0.52480 0.27000
F 	F 	0.39640 0.22490 0.53130 5.94000
C 	C 	0.14720 0.29330 0.51620 4.06800
H 	H 	0.11530 0.28600 0.52740 -7.68700
C 	C 	0.18350 0.25740 0.51520 -1.94200
H 	H 	0.17630 0.22500 0.52480 0.26700
F 	F 	0.10360 0.27510 0.53130 5.97900
C 	C 	0.14720 0.79330 0.01620 4.02100
H 	H 	0.11530 0.78600 0.02740 -7.88000
C 	C 	0.18350 0.75740 0.01520 -1.53600
H 	H 	0.17630 0.72500 0.02480 0.13900
F 	F 	0.10360 0.77510 0.03130 6.18200
C 	C 	0.64720 0.29330 0.01620 4.00700
H 	H 	0.61530 0.28600 0.02740 -7.84400
C 	C 	0.68350 0.25740 0.01520 -1.52800
H 	H 	0.67630 0.22500 0.02480 0.13800
F 	F 	0.60360 0.27510 0.03130 6.15500
C 	C 	0.64720 0.79330 0.51620 4.04900
H 	H 	0.61530 0.78600 0.52740 -7.66400
C 	C 	0.68350 0.75740 0.51520 -1.90900
H 	H 	0.67630 0.72500 0.52480 0.26100
F 	F 	0.60360 0.77510 0.53130 5.96900
C 	C 	0.29330 0.51620 0.14720 4.06800
H 	H 	0.28600 0.52740 0.11530 -7.68700
C 	C 	0.25740 0.51520 0.18350 -1.94200
H 	H 	0.22500 0.52480 0.17630 0.26700
F 	F 	0.27510 0.53130 0.10360 5.97900
C 	C 	0.29330 0.01620 0.64720 4.00700
H 	H 	0.28600 0.02740 0.61530 -7.84400
C 	C 	0.25740 0.01520 0.68350 -1.52800
H 	H 	0.22500 0.02480 0.67630 0.13800
F 	F 	0.27510 0.03130 0.60360 6.15500
C 	C 	0.79330 0.51620 0.64720 4.04900
H 	H 	0.78600 0.52740 0.61530 -7.66400
C 	C 	0.75740 0.51520 0.68350 -1.90900
H 	H 	0.72500 0.52480 0.67630 0.26100
F 	F 	0.77510 0.53130 0.60360 5.96900
C 	C 	0.79330 0.01620 0.14720 4.02100
H 	H 	0.78600 0.02740 0.11530 -7.88000
C 	C 	0.75740 0.01520 0.18350 -1.53600
H 	H 	0.72500 0.02480 0.17630 0.13900
F 	F 	0.77510 0.03130 0.10360 6.18200
C 	C 	0.70670 0.51620 0.85280 4.02900
H 	H 	0.71400 0.52740 0.88470 -7.61100
C 	C 	0.74260 0.51520 0.81650 -1.90700
H 	H 	0.77500 0.52480 0.82370 0.26400
F 	F 	0.72490 0.53130 0.89640 5.92800
C 	C 	0.70670 0.01620 0.35280 4.00100
H 	H 	0.71400 0.02740 0.38470 -7.82600
C 	C 	0.74260 0.01520 0.31650 -1.52900
H 	H 	0.77500 0.02480 0.32370 0.14000
F 	F 	0.72490 0.03130 0.39640 6.14100
C 	C 	0.20670 0.51620 0.35280 4.04900
H 	H 	0.21400 0.52740 0.38470 -7.63500
C 	C 	0.24260 0.51520 0.31650 -1.94100
H 	H 	0.27500 0.52480 0.32370 0.27000
F 	F 	0.22490 0.53130 0.39640 5.94000
C 	C 	0.20670 0.01620 0.85280 3.99100
H 	H 	0.21400 0.02740 0.88470 -7.79600
C 	C 	0.24260 0.01520 0.81650 -1.52400
H 	H 	0.27500 0.02480 0.82370 0.13900
F 	F 	0.22490 0.03130 0.89640 6.11800
C 	C 	0.70670 0.48380 0.14720 4.06900
H 	H 	0.71400 0.47260 0.11530 -7.65700
C 	C 	0.74260 0.48480 0.18350 -1.98700
H 	H 	0.77500 0.47520 0.17630 0.28400
F 	F 	0.72490 0.46870 0.10360 5.95100
C 	C 	0.70670 0.98380 0.64720 4.10300
H 	H 	0.71400 0.97260 0.61530 -7.42000
C 	C 	0.74260 0.98480 0.68350 -2.42500
H 	H 	0.77500 0.97520 0.67630 0.42600
F 	F 	0.72490 0.96870 0.60360 5.71300
C 	C 	0.20670 0.48380 0.64720 4.05500
H 	H 	0.21400 0.47260 0.61530 -7.61900
C 	C 	0.24260 0.48480 0.68350 -1.97900
H 	H 	0.27500 0.47520 0.67630 0.28300
F 	F 	0.22490 0.46870 0.60360 5.92200
C 	C 	0.20670 0.98380 0.14720 4.10500
H 	H 	0.21400 0.97260 0.11530 -7.50700
C 	C 	0.24260 0.98480 0.18350 -2.31100
H 	H 	0.27500 0.97520 0.17630 0.38600
F 	F 	0.22490 0.96870 0.10360 5.79200
C 	C 	0.29330 0.48380 0.85280 4.04100
H 	H 	0.28600 0.47260 0.88470 -7.62200
C 	C 	0.25740 0.48480 0.81650 -1.93100
H 	H 	0.22500 0.47520 0.82370 0.26800
F 	F 	0.27510 0.46870 0.89640 5.93200
C 	C 	0.29330 0.98380 0.35280 4.09200
H 	H 	0.28600 0.97260 0.38470 -7.49300
C 	C 	0.25740 0.98480 0.31650 -2.29200
H 	H 	0.22500 0.97520 0.32370 0.38100
F 	F 	0.27510 0.96870 0.39640 5.78600
C 	C 	0.79330 0.48380 0.35280 4.05200
H 	H 	0.78600 0.47260 0.38470 -7.65000
C 	C 	0.75740 0.48480 0.31650 -1.93700
H 	H 	0.72500 0.47520 0.32370 0.26900
F 	F 	0.77510 0.46870 0.39640 5.95300
C 	C 	0.79330 0.98380 0.85280 4.08900
H 	H 	0.78600 0.97260 0.88470 -7.40300
C 	C 	0.75740 0.98480 0.81650 -2.40500
H 	H 	0.72500 0.97520 0.82370 0.42100
F 	F 	0.77510 0.96870 0.89640 5.70400
C 	C 	0.51620 0.85280 0.70670 4.02900
H 	H 	0.52740 0.88470 0.71400 -7.61100
C 	C 	0.51520 0.81650 0.74260 -1.90700
H 	H 	0.52480 0.82370 0.77500 0.26400
F 	F 	0.53130 0.89640 0.72490 5.92800
C 	C 	0.51620 0.35280 0.20670 4.04900
H 	H 	0.52740 0.38470 0.21400 -7.63500
C 	C 	0.51520 0.31650 0.24260 -1.94100
H 	H 	0.52480 0.32370 0.27500 0.27000
F 	F 	0.53130 0.39640 0.22490 5.94000
C 	C 	0.01620 0.85280 0.20670 3.99100
H 	H 	0.02740 0.88470 0.21400 -7.79600
C 	C 	0.01520 0.81650 0.24260 -1.52400
H 	H 	0.02480 0.82370 0.27500 0.13900
F 	F 	0.03130 0.89640 0.22490 6.11800
C 	C 	0.01620 0.35280 0.70670 4.00100
H 	H 	0.02740 0.38470 0.71400 -7.82600
C 	C 	0.01520 0.31650 0.74260 -1.52900
H 	H 	0.02480 0.32370 0.77500 0.14000
F 	F 	0.03130 0.39640 0.72490 6.14100
C 	C 	0.51620 0.14720 0.29330 4.06800
H 	H 	0.52740 0.11530 0.28600 -7.68700
C 	C 	0.51520 0.18350 0.25740 -1.94200
H 	H 	0.52480 0.17630 0.22500 0.26700
F 	F 	0.53130 0.10360 0.27510 5.97900
C 	C 	0.51620 0.64720 0.79330 4.04900
H 	H 	0.52740 0.61530 0.78600 -7.66400
C 	C 	0.51520 0.68350 0.75740 -1.90900
H 	H 	0.52480 0.67630 0.72500 0.26100
F 	F 	0.53130 0.60360 0.77510 5.96900
C 	C 	0.01620 0.14720 0.79330 4.02100
H 	H 	0.02740 0.11530 0.78600 -7.88000
C 	C 	0.01520 0.18350 0.75740 -1.53600
H 	H 	0.02480 0.17630 0.72500 0.13900
F 	F 	0.03130 0.10360 0.77510 6.18200
C 	C 	0.01620 0.64720 0.29330 4.00700
H 	H 	0.02740 0.61530 0.28600 -7.84400
C 	C 	0.01520 0.68350 0.25740 -1.52800
H 	H 	0.02480 0.67630 0.22500 0.13800
F 	F 	0.03130 0.60360 0.27510 6.15500
C 	C 	0.48380 0.85280 0.29330 4.04100
H 	H 	0.47260 0.88470 0.28600 -7.62200
C 	C 	0.48480 0.81650 0.25740 -1.93100
H 	H 	0.47520 0.82370 0.22500 0.26800
F 	F 	0.46870 0.89640 0.27510 5.93200
C 	C 	0.48380 0.35280 0.79330 4.05200
H 	H 	0.47260 0.38470 0.78600 -7.65000
C 	C 	0.48480 0.31650 0.75740 -1.93700
H 	H 	0.47520 0.32370 0.72500 0.26900
F 	F 	0.46870 0.39640 0.77510 5.95300
C 	C 	0.98380 0.85280 0.79330 4.08900
H 	H 	0.97260 0.88470 0.78600 -7.40300
C 	C 	0.98480 0.81650 0.75740 -2.40500
H 	H 	0.97520 0.82370 0.72500 0.42100
F 	F 	0.96870 0.89640 0.77510 5.70400
C 	C 	0.98380 0.35280 0.29330 4.09200
H 	H 	0.97260 0.38470 0.28600 -7.49300
C 	C 	0.98480 0.31650 0.25740 -2.29200
H 	H 	0.97520 0.32370 0.22500 0.38100
F 	F 	0.96870 0.39640 0.27510 5.78600
C 	C 	0.48380 0.14720 0.70670 4.06900
H 	H 	0.47260 0.11530 0.71400 -7.65700
C 	C 	0.48480 0.18350 0.74260 -1.98700
H 	H 	0.47520 0.17630 0.77500 0.28400
F 	F 	0.46870 0.10360 0.72490 5.95100
C 	C 	0.48380 0.64720 0.20670 4.05500
H 	H 	0.47260 0.61530 0.21400 -7.61900
C 	C 	0.48480 0.68350 0.24260 -1.97900
H 	H 	0.47520 0.67630 0.27500 0.28300
F 	F 	0.46870 0.60360 0.22490 5.92200
C 	C 	0.98380 0.14720 0.20670 4.10500
H 	H 	0.97260 0.11530 0.21400 -7.50700
C 	C 	0.98480 0.18350 0.24260 -2.31100
H 	H 	0.97520 0.17630 0.27500 0.38600
F 	F 	0.96870 0.10360 0.22490 5.79200
C 	C 	0.98380 0.64720 0.70670 4.10300
H 	H 	0.97260 0.61530 0.71400 -7.42000
C 	C 	0.98480 0.68350 0.74260 -2.42500
H 	H 	0.97520 0.67630 0.77500 0.42600
F 	F 	0.96870 0.60360 0.72490 5.71300
C 	C 	0.70670 0.14720 0.48380 4.06900
H 	H 	0.71400 0.11530 0.47260 -7.65700
C 	C 	0.74260 0.18350 0.48480 -1.98700
H 	H 	0.77500 0.17630 0.47520 0.28400
F 	F 	0.72490 0.10360 0.46870 5.95100
C 	C 	0.70670 0.64720 0.98380 4.10300
H 	H 	0.71400 0.61530 0.97260 -7.42000
C 	C 	0.74260 0.68350 0.98480 -2.42500
H 	H 	0.77500 0.67630 0.97520 0.42600
F 	F 	0.72490 0.60360 0.96870 5.71300
C 	C 	0.20670 0.14720 0.98380 4.10500
H 	H 	0.21400 0.11530 0.97260 -7.50700
C 	C 	0.24260 0.18350 0.98480 -2.31100
H 	H 	0.27500 0.17630 0.97520 0.38600
F 	F 	0.22490 0.10360 0.96870 5.79200
C 	C 	0.20670 0.64720 0.48380 4.05500
H 	H 	0.21400 0.61530 0.47260 -7.61900
C 	C 	0.24260 0.68350 0.48480 -1.97900
H 	H 	0.27500 0.67630 0.47520 0.28300
F 	F 	0.22490 0.60360 0.46870 5.92200
C 	C 	0.29330 0.85280 0.48380 4.04100
H 	H 	0.28600 0.88470 0.47260 -7.62200
C 	C 	0.25740 0.81650 0.48480 -1.93100
H 	H 	0.22500 0.82370 0.47520 0.26800
F 	F 	0.27510 0.89640 0.46870 5.93200
C 	C 	0.29330 0.35280 0.98380 4.09200
H 	H 	0.28600 0.38470 0.97260 -7.49300
C 	C 	0.25740 0.31650 0.98480 -2.29200
H 	H 	0.22500 0.32370 0.97520 0.38100
F 	F 	0.27510 0.39640 0.96870 5.78600
C 	C 	0.79330 0.85280 0.98380 4.08900
H 	H 	0.78600 0.88470 0.97260 -7.40300
C 	C 	0.75740 0.81650 0.98480 -2.40500
H 	H 	0.72500 0.82370 0.97520 0.42100
F 	F 	0.77510 0.89640 0.96870 5.70400
C 	C 	0.79330 0.35280 0.48380 4.05200
H 	H 	0.78600 0.38470 0.47260 -7.65000
C 	C 	0.75740 0.31650 0.48480 -1.93700
H 	H 	0.72500 0.32370 0.47520 0.26900
F 	F 	0.77510 0.39640 0.46870 5.95300
C 	C 	0.29330 0.14720 0.51620 4.06800
H 	H 	0.28600 0.11530 0.52740 -7.68700
C 	C 	0.25740 0.18350 0.51520 -1.94200
H 	H 	0.22500 0.17630 0.52480 0.26700
F 	F 	0.27510 0.10360 0.53130 5.97900
C 	C 	0.29330 0.64720 0.01620 4.00700
H 	H 	0.28600 0.61530 0.02740 -7.84400
C 	C 	0.25740 0.68350 0.01520 -1.52800
H 	H 	0.22500 0.67630 0.02480 0.13800
F 	F 	0.27510 0.60360 0.03130 6.15500
C 	C 	0.79330 0.14720 0.01620 4.02100
H 	H 	0.78600 0.11530 0.02740 -7.88000
C 	C 	0.75740 0.18350 0.01520 -1.53600
H 	H 	0.72500 0.17630 0.02480 0.13900
F 	F 	0.77510 0.10360 0.03130 6.18200
C 	C 	0.79330 0.64720 0.51620 4.04900
H 	H 	0.78600 0.61530 0.52740 -7.66400
C 	C 	0.75740 0.68350 0.51520 -1.90900
H 	H 	0.72500 0.67630 0.52480 0.26100
F 	F 	0.77510 0.60360 0.53130 5.96900
C 	C 	0.70670 0.85280 0.51620 4.02900
H 	H 	0.71400 0.88470 0.52740 -7.61100
C 	C 	0.74260 0.81650 0.51520 -1.90700
H 	H 	0.77500 0.82370 0.52480 0.26400
F 	F 	0.72490 0.89640 0.53130 5.92800
C 	C 	0.70670 0.35280 0.01620 4.00100
H 	H 	0.71400 0.38470 0.02740 -7.82600
C 	C 	0.74260 0.31650 0.01520 -1.52900
H 	H 	0.77500 0.32370 0.02480 0.14000
F 	F 	0.72490 0.39640 0.03130 6.14100
C 	C 	0.20670 0.85280 0.01620 3.99100
H 	H 	0.21400 0.88470 0.02740 -7.79600
C 	C 	0.24260 0.81650 0.01520 -1.52400
H 	H 	0.27500 0.82370 0.02480 0.13900
F 	F 	0.22490 0.89640 0.03130 6.11800
C 	C 	0.20670 0.35280 0.51620 4.04900
H 	H 	0.21400 0.38470 0.52740 -7.63500
C 	C 	0.24260 0.31650 0.51520 -1.94100
H 	H 	0.27500 0.32370 0.52480 0.27000
F 	F 	0.22490 0.39640 0.53130 5.94000
C 	C 	0.48380 0.70670 0.14720 4.06900
H 	H 	0.47260 0.71400 0.11530 -7.65700
C 	C 	0.48480 0.74260 0.18350 -1.98700
H 	H 	0.47520 0.77500 0.17630 0.28400
F 	F 	0.46870 0.72490 0.10360 5.95100
C 	C 	0.48380 0.20670 0.64720 4.05500
H 	H 	0.47260 0.21400 0.61530 -7.61900
C 	C 	0.48480 0.24260 0.68350 -1.97900
H 	H 	0.47520 0.27500 0.67630 0.28300
F 	F 	0.46870 0.22490 0.60360 5.92200
C 	C 	0.98380 0.70670 0.64720 4.10300
H 	H 	0.97260 0.71400 0.61530 -7.42000
C 	C 	0.98480 0.74260 0.68350 -2.42500
H 	H 	0.97520 0.77500 0.67630 0.42600
F 	F 	0.96870 0.72490 0.60360 5.71300
C 	C 	0.98380 0.20670 0.14720 4.10500
H 	H 	0.97260 0.21400 0.11530 -7.50700
C 	C 	0.98480 0.24260 0.18350 -2.31100
H 	H 	0.97520 0.27500 0.17630 0.38600
F 	F 	0.96870 0.22490 0.10360 5.79200
C 	C 	0.48380 0.29330 0.85280 4.04100
H 	H 	0.47260 0.28600 0.88470 -7.62200
C 	C 	0.48480 0.25740 0.81650 -1.93100
H 	H 	0.47520 0.22500 0.82370 0.26800
F 	F 	0.46870 0.27510 0.89640 5.93200
C 	C 	0.48380 0.79330 0.35280 4.05200
H 	H 	0.47260 0.78600 0.38470 -7.65000
C 	C 	0.48480 0.75740 0.31650 -1.93700
H 	H 	0.47520 0.72500 0.32370 0.26900
F 	F 	0.46870 0.77510 0.39640 5.95300
C 	C 	0.98380 0.29330 0.35280 4.09200
H 	H 	0.97260 0.28600 0.38470 -7.49300
C 	C 	0.98480 0.25740 0.31650 -2.29200
H 	H 	0.97520 0.22500 0.32370 0.38100
F 	F 	0.96870 0.27510 0.39640 5.78600
C 	C 	0.98380 0.79330 0.85280 4.08900
H 	H 	0.97260 0.78600 0.88470 -7.40300
C 	C 	0.98480 0.75740 0.81650 -2.40500
H 	H 	0.97520 0.72500 0.82370 0.42100
F 	F 	0.96870 0.77510 0.89640 5.70400
C 	C 	0.51620 0.29330 0.14720 4.06800
H 	H 	0.52740 0.28600 0.11530 -7.68700
C 	C 	0.51520 0.25740 0.18350 -1.94200
H 	H 	0.52480 0.22500 0.17630 0.26700
F 	F 	0.53130 0.27510 0.10360 5.97900
C 	C 	0.51620 0.79330 0.64720 4.04900
H 	H 	0.52740 0.78600 0.61530 -7.66400
C 	C 	0.51520 0.75740 0.68350 -1.90900
H 	H 	0.52480 0.72500 0.67630 0.26100
F 	F 	0.53130 0.77510 0.60360 5.96900
C 	C 	0.01620 0.29330 0.64720 4.00700
H 	H 	0.02740 0.28600 0.61530 -7.84400
C 	C 	0.01520 0.25740 0.68350 -1.52800
H 	H 	0.02480 0.22500 0.67630 0.13800
F 	F 	0.03130 0.27510 0.60360 6.15500
C 	C 	0.01620 0.79330 0.14720 4.02100
H 	H 	0.02740 0.78600 0.11530 -7.88000
C 	C 	0.01520 0.75740 0.18350 -1.53600
H 	H 	0.02480 0.72500 0.17630 0.13900
F 	F 	0.03130 0.77510 0.10360 6.18200
C 	C 	0.51620 0.70670 0.85280 4.02900
H 	H 	0.52740 0.71400 0.88470 -7.61100
C 	C 	0.51520 0.74260 0.81650 -1.90700
H 	H 	0.52480 0.77500 0.82370 0.26400
F 	F 	0.53130 0.72490 0.89640 5.92800
C 	C 	0.51620 0.20670 0.35280 4.04900
H 	H 	0.52740 0.21400 0.38470 -7.63500
C 	C 	0.51520 0.24260 0.31650 -1.94100
H 	H 	0.52480 0.27500 0.32370 0.27000
F 	F 	0.53130 0.22490 0.39640 5.94000
C 	C 	0.01620 0.70670 0.35280 4.00100
H 	H 	0.02740 0.71400 0.38470 -7.82600
C 	C 	0.01520 0.74260 0.31650 -1.52900
H 	H 	0.02480 0.77500 0.32370 0.14000
F 	F 	0.03130 0.72490 0.39640 6.14100
C 	C 	0.01620 0.20670 0.85280 3.99100
H 	H 	0.02740 0.21400 0.88470 -7.79600
C 	C 	0.01520 0.24260 0.81650 -1.52400
H 	H 	0.02480 0.27500 0.82370 0.13900
F 	F 	0.03130 0.22490 0.89640 6.11800
C 	C 	0.14720 0.48380 0.70670 4.06900
H 	H 	0.11530 0.47260 0.71400 -7.65700
C 	C 	0.18350 0.48480 0.74260 -1.98700
H 	H 	0.17630 0.47520 0.77500 0.28400
F 	F 	0.10360 0.46870 0.72490 5.95100
C 	C 	0.14720 0.98380 0.20670 4.10500
H 	H 	0.11530 0.97260 0.21400 -7.50700
C 	C 	0.18350 0.98480 0.24260 -2.31100
H 	H 	0.17630 0.97520 0.27500 0.38600
F 	F 	0.10360 0.96870 0.22490 5.79200
C 	C 	0.64720 0.48380 0.20670 4.05500
H 	H 	0.61530 0.47260 0.21400 -7.61900
C 	C 	0.68350 0.48480 0.24260 -1.97900
H 	H 	0.67630 0.47520 0.27500 0.28300
F 	F 	0.60360 0.46870 0.22490 5.92200
C 	C 	0.64720 0.98380 0.70670 4.10300
H 	H 	0.61530 0.97260 0.71400 -7.42000
C 	C 	0.68350 0.98480 0.74260 -2.42500
H 	H 	0.67630 0.97520 0.77500 0.42600
F 	F 	0.60360 0.96870 0.72490 5.71300
C 	C 	0.85280 0.48380 0.29330 4.04100
H 	H 	0.88470 0.47260 0.28600 -7.62200
C 	C 	0.81650 0.48480 0.25740 -1.93100
H 	H 	0.82370 0.47520 0.22500 0.26800
F 	F 	0.89640 0.46870 0.27510 5.93200
C 	C 	0.85280 0.98380 0.79330 4.08900
H 	H 	0.88470 0.97260 0.78600 -7.40300
C 	C 	0.81650 0.98480 0.75740 -2.40500
H 	H 	0.82370 0.97520 0.72500 0.42100
F 	F 	0.89640 0.96870 0.77510 5.70400
C 	C 	0.35280 0.48380 0.79330 4.05200
H 	H 	0.38470 0.47260 0.78600 -7.65000
C 	C 	0.31650 0.48480 0.75740 -1.93700
H 	H 	0.32370 0.47520 0.72500 0.26900
F 	F 	0.39640 0.46870 0.77510 5.95300
C 	C 	0.35280 0.98380 0.29330 4.09200
H 	H 	0.38470 0.97260 0.28600 -7.49300
C 	C 	0.31650 0.98480 0.25740 -2.29200
H 	H 	0.32370 0.97520 0.22500 0.38100
F 	F 	0.39640 0.96870 0.27510 5.78600
C 	C 	0.14720 0.51620 0.29330 4.06800
H 	H 	0.11530 0.52740 0.28600 -7.68700
C 	C 	0.18350 0.51520 0.25740 -1.94200
H 	H 	0.17630 0.52480 0.22500 0.26700
F 	F 	0.10360 0.53130 0.27510 5.97900
C 	C 	0.14720 0.01620 0.79330 4.02100
H 	H 	0.11530 0.02740 0.78600 -7.88000
C 	C 	0.18350 0.01520 0.75740 -1.53600
H 	H 	0.17630 0.02480 0.72500 0.13900
F 	F 	0.10360 0.03130 0.77510 6.18200
C 	C 	0.64720 0.51620 0.79330 4.04900
H 	H 	0.61530 0.52740 0.78600 -7.66400
C 	C 	0.68350 0.51520 0.75740 -1.90900
H 	H 	0.67630 0.52480 0.72500 0.26100
F 	F 	0.60360 0.53130 0.77510 5.96900
C 	C 	0.64720 0.01620 0.29330 4.00700
H 	H 	0.61530 0.02740 0.28600 -7.84400
C 	C 	0.68350 0.01520 0.25740 -1.52800
H 	H 	0.67630 0.02480 0.22500 0.13800
F 	F 	0.60360 0.03130 0.27510 6.15500
C 	C 	0.85280 0.51620 0.70670 4.02900
H 	H 	0.88470 0.52740 0.71400 -7.61100
C 	C 	0.81650 0.51520 0.74260 -1.90700
H 	H 	0.82370 0.52480 0.77500 0.26400
F 	F 	0.89640 0.53130 0.72490 5.92800
C 	C 	0.85280 0.01620 0.20670 3.99100
H 	H 	0.88470 0.02740 0.21400 -7.79600
C 	C 	0.81650 0.01520 0.24260 -1.52400
H 	H 	0.82370 0.02480 0.27500 0.13900
F 	F 	0.89640 0.03130 0.22490 6.11800
C 	C 	0.35280 0.51620 0.20670 4.04900
H 	H 	0.38470 0.52740 0.21400 -7.63500
C 	C 	0.31650 0.51520 0.24260 -1.94100
H 	H 	0.32370 0.52480 0.27500 0.27000
F 	F 	0.39640 0.53130 0.22490 5.94000
C 	C 	0.35280 0.01620 0.70670 4.00100
H 	H 	0.38470 0.02740 0.71400 -7.82600
C 	C 	0.31650 0.01520 0.74260 -1.52900
H 	H 	0.32370 0.02480 0.77500 0.14000
F 	F 	0.39640 0.03130 0.72490 6.14100
C 	C 	0.14720 0.70670 0.51620 4.06100
H 	H 	0.11530 0.71400 0.52740 -7.69400
C 	C 	0.18350 0.74260 0.51520 -1.91100
H 	H 	0.17630 0.77500 0.52480 0.26000
F 	F 	0.10360 0.72490 0.53130 5.98800
C 	C 	0.14720 0.20670 0.01620 4.02300
H 	H 	0.11530 0.21400 0.02740 -7.83700
C 	C 	0.18350 0.24260 0.01520 -1.59200
H 	H 	0.17630 0.27500 0.02480 0.15700
F 	F 	0.10360 0.22490 0.03130 6.14000
C 	C 	0.64720 0.70670 0.01620 3.99500
H 	H 	0.61530 0.71400 0.02740 -7.86200
C 	C 	0.68350 0.74260 0.01520 -1.46300
H 	H 	0.67630 0.77500 0.02480 0.11900
F 	F 	0.60360 0.72490 0.03130 6.17800
C 	C 	0.64720 0.20670 0.51620 4.04700
H 	H 	0.61530 0.21400 0.52740 -7.65400
C 	C 	0.68350 0.24260 0.51520 -1.90700
H 	H 	0.67630 0.27500 0.52480 0.26000
F 	F 	0.60360 0.22490 0.53130 5.95800
C 	C 	0.85280 0.29330 0.51620 4.04000
H 	H 	0.88470 0.28600 0.52740 -7.61600
C 	C 	0.81650 0.25740 0.51520 -1.94000
H 	H 	0.82370 0.22500 0.52480 0.27100
F 	F 	0.89640 0.27510 0.53130 5.92700
C 	C 	0.85280 0.79330 0.01620 3.98500
H 	H 	0.88470 0.78600 0.02740 -7.83200
C 	C 	0.81650 0.75740 0.01520 -1.46600
H 	H 	0.82370 0.72500 0.02480 0.12100
F 	F 	0.89640 0.77510 0.03130 6.15500
C 	C 	0.35280 0.29330 0.01620 4.01500
H 	H 	0.38470 0.28600 0.02740 -7.81100
C 	C 	0.31650 0.25740 0.01520 -1.59600
H 	H 	0.32370 0.22500 0.02480 0.15900
F 	F 	0.39640 0.27510 0.03130 6.12100
C 	C 	0.35280 0.79330 0.51620 4.05100
H 	H 	0.38470 0.78600 0.52740 -7.64500
C 	C 	0.31650 0.75740 0.51520 -1.94300
H 	H 	0.32370 0.72500 0.52480 0.27100
F 	F 	0.39640 0.77510 0.53130 5.94900
C 	C 	0.14720 0.29330 0.48380 4.06700
H 	H 	0.11530 0.28600 0.47260 -7.68000
C 	C 	0.18350 0.25740 0.48480 -1.95600
H 	H 	0.17630 0.22500 0.47520 0.27200
F 	F 	0.10360 0.27510 0.46870 5.97300
C 	C 	0.14720 0.79330 0.98380 4.11500
H 	H 	0.11530 0.78600 0.97260 -7.50100
C 	C 	0.18350 0.75740 0.98480 -2.36500
H 	H 	0.17630 0.72500 0.97520 0.40300
F 	F 	0.10360 0.77510 0.96870 5.78300
C 	C 	0.64720 0.29330 0.98380 4.10000
H 	H 	0.61530 0.28600 0.97260 -7.46200
C 	C 	0.68350 0.25740 0.98480 -2.36100
H 	H 	0.67630 0.22500 0.97520 0.40300
F 	F 	0.60360 0.27510 0.96870 5.75400
C 	C 	0.64720 0.79330 0.48380 4.05500
H 	H 	0.61530 0.78600 0.47260 -7.63500
C 	C 	0.68350 0.75740 0.48480 -1.97200
H 	H 	0.67630 0.72500 0.47520 0.28100
F 	F 	0.60360 0.77510 0.46870 5.93800
C 	C 	0.85280 0.70670 0.48380 4.03800
H 	H 	0.88470 0.71400 0.47260 -7.58800
C 	C 	0.81650 0.74260 0.48480 -1.96000
H 	H 	0.82370 0.77500 0.47520 0.28000
F 	F 	0.89640 0.72490 0.46870 5.90100
C 	C 	0.85280 0.20670 0.98380 4.08300
H 	H 	0.88470 0.21400 0.97260 -7.41700
C 	C 	0.81650 0.24260 0.98480 -2.35400
H 	H 	0.82370 0.27500 0.97520 0.40300
F 	F 	0.89640 0.22490 0.96870 5.71900
C 	C 	0.35280 0.70670 0.98380 4.09400
H 	H 	0.38470 0.71400 0.97260 -7.44800
C 	C 	0.31650 0.74260 0.98480 -2.35600
H 	H 	0.32370 0.77500 0.97520 0.40300
F 	F 	0.39640 0.72490 0.96870 5.74300
C 	C 	0.35280 0.20670 0.48380 4.05000
H 	H 	0.38470 0.21400 0.47260 -7.63400
C 	C 	0.31650 0.24260 0.48480 -1.94400
H 	H 	0.32370 0.27500 0.47520 0.27100
F 	F 	0.39640 0.22490 0.46870 5.93800
C 	C 	0.70670 0.48380 0.85280 4.03800
H 	H 	0.71400 0.47260 0.88470 -7.58800
C 	C 	0.74260 0.48480 0.81650 -1.96000
H 	H 	0.77500 0.47520 0.82370 0.28000
F 	F 	0.72490 0.46870 0.89640 5.90100
C 	C 	0.70670 0.98380 0.35280 4.09400
H 	H 	0.71400 0.97260 0.38470 -7.44800
C 	C 	0.74260 0.98480 0.31650 -2.35600
H 	H 	0.77500 0.97520 0.32370 0.40300
F 	F 	0.72490 0.96870 0.39640 5.74300
C 	C 	0.20670 0.48380 0.35280 4.05000
H 	H 	0.21400 0.47260 0.38470 -7.63400
C 	C 	0.24260 0.48480 0.31650 -1.94400
H 	H 	0.27500 0.47520 0.32370 0.27100
F 	F 	0.22490 0.46870 0.39640 5.93800
C 	C 	0.20670 0.98380 0.85280 4.08300
H 	H 	0.21400 0.97260 0.88470 -7.41700
C 	C 	0.24260 0.98480 0.81650 -2.35400
H 	H 	0.27500 0.97520 0.82370 0.40300
F 	F 	0.22490 0.96870 0.89640 5.71900
C 	C 	0.29330 0.48380 0.14720 4.06700
H 	H 	0.28600 0.47260 0.11530 -7.68000
C 	C 	0.25740 0.48480 0.18350 -1.95600
H 	H 	0.22500 0.47520 0.17630 0.27200
F 	F 	0.27510 0.46870 0.10360 5.97300
C 	C 	0.29330 0.98380 0.64720 4.10000
H 	H 	0.28600 0.97260 0.61530 -7.46200
C 	C 	0.25740 0.98480 0.68350 -2.36100
H 	H 	0.22500 0.97520 0.67630 0.40300
F 	F 	0.27510 0.96870 0.60360 5.75400
C 	C 	0.79330 0.48380 0.64720 4.05500
H 	H 	0.78600 0.47260 0.61530 -7.63500
C 	C 	0.75740 0.48480 0.68350 -1.97200
H 	H 	0.72500 0.47520 0.67630 0.28100
F 	F 	0.77510 0.46870 0.60360 5.93800
C 	C 	0.79330 0.98380 0.14720 4.11500
H 	H 	0.78600 0.97260 0.11530 -7.50100
C 	C 	0.75740 0.98480 0.18350 -2.36500
H 	H 	0.72500 0.97520 0.17630 0.40300
F 	F 	0.77510 0.96870 0.10360 5.78300
C 	C 	0.29330 0.51620 0.85280 4.04000
H 	H 	0.28600 0.52740 0.88470 -7.61600
C 	C 	0.25740 0.51520 0.81650 -1.94000
H 	H 	0.22500 0.52480 0.82370 0.27100
F 	F 	0.27510 0.53130 0.89640 5.92700
C 	C 	0.29330 0.01620 0.35280 4.01500
H 	H 	0.28600 0.02740 0.38470 -7.81100
C 	C 	0.25740 0.01520 0.31650 -1.59600
H 	H 	0.22500 0.02480 0.32370 0.15900
F 	F 	0.27510 0.03130 0.39640 6.12100
C 	C 	0.79330 0.51620 0.35280 4.05100
H 	H 	0.78600 0.52740 0.38470 -7.64500
C 	C 	0.75740 0.51520 0.31650 -1.94300
H 	H 	0.72500 0.52480 0.32370 0.27100
F 	F 	0.77510 0.53130 0.39640 5.94900
C 	C 	0.79330 0.01620 0.85280 3.98500
H 	H 	0.78600 0.02740 0.88470 -7.83200
C 	C 	0.75740 0.01520 0.81650 -1.46600
H 	H 	0.72500 0.02480 0.82370 0.12100
F 	F 	0.77510 0.03130 0.89640 6.15500
C 	C 	0.70670 0.51620 0.14720 4.06100
H 	H 	0.71400 0.52740 0.11530 -7.69400
C 	C 	0.74260 0.51520 0.18350 -1.91100
H 	H 	0.77500 0.52480 0.17630 0.26000
F 	F 	0.72490 0.53130 0.10360 5.98800
C 	C 	0.70670 0.01620 0.64720 3.99500
H 	H 	0.71400 0.02740 0.61530 -7.86200
C 	C 	0.74260 0.01520 0.68350 -1.46300
H 	H 	0.77500 0.02480 0.67630 0.11900
F 	F 	0.72490 0.03130 0.60360 6.17800
C 	C 	0.20670 0.51620 0.64720 4.04700
H 	H 	0.21400 0.52740 0.61530 -7.65400
C 	C 	0.24260 0.51520 0.68350 -1.90700
H 	H 	0.27500 0.52480 0.67630 0.26000
F 	F 	0.22490 0.53130 0.60360 5.95800
C 	C 	0.20670 0.01620 0.14720 4.02300
H 	H 	0.21400 0.02740 0.11530 -7.83700
C 	C 	0.24260 0.01520 0.18350 -1.59200
H 	H 	0.27500 0.02480 0.17630 0.15700
F 	F 	0.22490 0.03130 0.10360 6.14000
C 	C 	0.48380 0.14720 0.29330 4.06700
H 	H 	0.47260 0.11530 0.28600 -7.68000
C 	C 	0.48480 0.18350 0.25740 -1.95600
H 	H 	0.47520 0.17630 0.22500 0.27200
F 	F 	0.46870 0.10360 0.27510 5.97300
C 	C 	0.48380 0.64720 0.79330 4.05500
H 	H 	0.47260 0.61530 0.78600 -7.63500
C 	C 	0.48480 0.68350 0.75740 -1.97200
H 	H 	0.47520 0.67630 0.72500 0.28100
F 	F 	0.46870 0.60360 0.77510 5.93800
C 	C 	0.98380 0.14720 0.79330 4.11500
H 	H 	0.97260 0.11530 0.78600 -7.50100
C 	C 	0.98480 0.18350 0.75740 -2.36500
H 	H 	0.97520 0.17630 0.72500 0.40300
F 	F 	0.96870 0.10360 0.77510 5.78300
C 	C 	0.98380 0.64720 0.29330 4.10000
H 	H 	0.97260 0.61530 0.28600 -7.46200
C 	C 	0.98480 0.68350 0.25740 -2.36100
H 	H 	0.97520 0.67630 0.22500 0.40300
F 	F 	0.96870 0.60360 0.27510 5.75400
C 	C 	0.48380 0.85280 0.70670 4.03800
H 	H 	0.47260 0.88470 0.71400 -7.58800
C 	C 	0.48480 0.81650 0.74260 -1.96000
H 	H 	0.47520 0.82370 0.77500 0.28000
F 	F 	0.46870 0.89640 0.72490 5.90100
C 	C 	0.48380 0.35280 0.20670 4.05000
H 	H 	0.47260 0.38470 0.21400 -7.63400
C 	C 	0.48480 0.31650 0.24260 -1.94400
H 	H 	0.47520 0.32370 0.27500 0.27100
F 	F 	0.46870 0.39640 0.22490 5.93800
C 	C 	0.98380 0.85280 0.20670 4.08300
H 	H 	0.97260 0.88470 0.21400 -7.41700
C 	C 	0.98480 0.81650 0.24260 -2.35400
H 	H 	0.97520 0.82370 0.27500 0.40300
F 	F 	0.96870 0.89640 0.22490 5.71900
C 	C 	0.98380 0.35280 0.70670 4.09400
H 	H 	0.97260 0.38470 0.71400 -7.44800
C 	C 	0.98480 0.31650 0.74260 -2.35600
H 	H 	0.97520 0.32370 0.77500 0.40300
F 	F 	0.96870 0.39640 0.72490 5.74300
C 	C 	0.51620 0.14720 0.70670 4.06100
H 	H 	0.52740 0.11530 0.71400 -7.69400
C 	C 	0.51520 0.18350 0.74260 -1.91100
H 	H 	0.52480 0.17630 0.77500 0.26000
F 	F 	0.53130 0.10360 0.72490 5.98800
C 	C 	0.51620 0.64720 0.20670 4.04700
H 	H 	0.52740 0.61530 0.21400 -7.65400
C 	C 	0.51520 0.68350 0.24260 -1.90700
H 	H 	0.52480 0.67630 0.27500 0.26000
F 	F 	0.53130 0.60360 0.22490 5.95800
C 	C 	0.01620 0.14720 0.20670 4.02300
H 	H 	0.02740 0.11530 0.21400 -7.83700
C 	C 	0.01520 0.18350 0.24260 -1.59200
H 	H 	0.02480 0.17630 0.27500 0.15700
F 	F 	0.03130 0.10360 0.22490 6.14000
C 	C 	0.01620 0.64720 0.70670 3.99500
H 	H 	0.02740 0.61530 0.71400 -7.86200
C 	C 	0.01520 0.68350 0.74260 -1.46300
H 	H 	0.02480 0.67630 0.77500 0.11900
F 	F 	0.03130 0.60360 0.72490 6.17800
C 	C 	0.51620 0.85280 0.29330 4.04000
H 	H 	0.52740 0.88470 0.28600 -7.61600
C 	C 	0.51520 0.81650 0.25740 -1.94000
H 	H 	0.52480 0.82370 0.22500 0.27100
F 	F 	0.53130 0.89640 0.27510 5.92700
C 	C 	0.51620 0.35280 0.79330 4.05100
H 	H 	0.52740 0.38470 0.78600 -7.64500
C 	C 	0.51520 0.31650 0.75740 -1.94300
H 	H 	0.52480 0.32370 0.72500 0.27100
F 	F 	0.53130 0.39640 0.77510 5.94900
C 	C 	0.01620 0.85280 0.79330 3.98500
H 	H 	0.02740 0.88470 0.78600 -7.83200
C 	C 	0.01520 0.81650 0.75740 -1.46600
H 	H 	0.02480 0.82370 0.72500 0.12100
F 	F 	0.03130 0.89640 0.77510 6.15500
C 	C 	0.01620 0.35280 0.29330 4.01500
H 	H 	0.02740 0.38470 0.28600 -7.81100
C 	C 	0.01520 0.31650 0.25740 -1.59600
H 	H 	0.02480 0.32370 0.22500 0.15900
F 	F 	0.03130 0.39640 0.27510 6.12100
Tb	Tb	0.50000 0.90003 0.50000 2.29500
Tb	Tb	0.50000 0.40003 -0.00000 2.30800
Tb	Tb	-0.00000 0.90003 -0.00000 2.32300
Tb	Tb	-0.00000 0.40003 0.50000 2.30800
Tb	Tb	0.50000 0.09997 0.50000 2.29600
Tb	Tb	0.50000 0.59997 -0.00000 2.31000
Tb	Tb	-0.00000 0.09997 -0.00000 2.31700
Tb	Tb	-0.00000 0.59997 0.50000 2.31000
Tb	Tb	0.50000 0.50000 0.90003 2.29500
Tb	Tb	0.50000 0.00000 0.40003 2.30800
Tb	Tb	-0.00000 0.50000 0.40003 2.30800
Tb	Tb	0.00000 0.00000 0.90003 2.32300
Tb	Tb	0.50000 0.50000 0.09997 2.29600
Tb	Tb	0.50000 0.00000 0.59997 2.31000
Tb	Tb	-0.00000 0.50000 0.59997 2.31000
Tb	Tb	0.00000 0.00000 0.09997 2.31700
Tb	Tb	0.90003 0.50000 0.50000 2.29500
Tb	Tb	0.90003 0.00000 -0.00000 2.32300
Tb	Tb	0.40003 0.50000 -0.00000 2.30800
Tb	Tb	0.40003 0.00000 0.50000 2.30800
Tb	Tb	0.09997 0.50000 0.50000 2.29600
Tb	Tb	0.09997 0.00000 -0.00000 2.31700
Tb	Tb	0.59997 0.50000 -0.00000 2.31000
Tb	Tb	0.59997 0.00000 0.50000 2.31000
O 	O 	0.54594 0.95406 0.45406 -0.83100
O 	O 	0.45406 0.04594 0.45406 -0.82800
O 	O 	0.45406 0.95406 0.54594 -0.83100
O 	O 	0.54594 0.04594 0.54594 -0.82800
O 	O 	0.45406 0.54594 0.95406 -0.83100
O 	O 	0.45406 0.45406 0.04594 -0.82800
O 	O 	0.54594 0.45406 0.95406 -0.83100
O 	O 	0.54594 0.54594 0.04594 -0.82800
O 	O 	0.95406 0.45406 0.54594 -0.83100
O 	O 	0.95406 0.95406 0.04594 -0.83700
O 	O 	0.04594 0.45406 0.45406 -0.82800
O 	O 	0.04594 0.95406 0.95406 -0.83700
O 	O 	0.95406 0.54594 0.45406 -0.83100
O 	O 	0.95406 0.04594 0.95406 -0.83700
O 	O 	0.04594 0.54594 0.54594 -0.82800
O 	O 	0.04594 0.04594 0.04594 -0.83000
O 	O 	0.95406 0.54594 0.54594 -0.83100
O 	O 	0.95406 0.04594 0.04594 -0.83300
O 	O 	0.04594 0.45406 0.54594 -0.82800
O 	O 	0.04594 0.95406 0.04594 -0.83300
O 	O 	0.95406 0.45406 0.45406 -0.83100
O 	O 	0.95406 0.95406 0.95406 -0.84400
O 	O 	0.04594 0.54594 0.45406 -0.82800
O 	O 	0.04594 0.04594 0.95406 -0.83300
O 	O 	0.54594 0.45406 0.04594 -0.82800
O 	O 	0.45406 0.45406 0.95406 -0.83100
O 	O 	0.45406 0.54594 0.04594 -0.82800
O 	O 	0.54594 0.54594 0.95406 -0.83100
O 	O 	0.45406 0.95406 0.45406 -0.83100
O 	O 	0.45406 0.04594 0.54594 -0.82800
O 	O 	0.54594 0.95406 0.54594 -0.83100
O 	O 	0.54594 0.04594 0.45406 -0.82800
O 	O 	0.42340 0.86437 0.50000 -1.14900
O 	O 	0.42340 0.36437 -0.00000 -1.14900
O 	O 	0.92340 0.86437 -0.00000 -1.14800
O 	O 	0.92340 0.36437 0.50000 -1.15100
O 	O 	0.57660 0.13563 0.50000 -1.15100
O 	O 	0.57660 0.63563 -0.00000 -1.14800
O 	O 	0.07660 0.13563 -0.00000 -1.15400
O 	O 	0.07660 0.63563 0.50000 -1.15300
O 	O 	0.57660 0.86437 0.50000 -1.14800
O 	O 	0.57660 0.36437 -0.00000 -1.14800
O 	O 	0.07660 0.86437 -0.00000 -1.15200
O 	O 	0.07660 0.36437 0.50000 -1.15400
O 	O 	0.42340 0.13563 0.50000 -1.15100
O 	O 	0.42340 0.63563 -0.00000 -1.14800
O 	O 	0.92340 0.13563 -0.00000 -1.15000
O 	O 	0.92340 0.63563 0.50000 -1.15000
O 	O 	0.50000 0.42340 0.86437 -1.14900
O 	O 	0.50000 0.92340 0.36437 -1.15100
O 	O 	0.00000 0.42340 0.36437 -1.14900
O 	O 	0.00000 0.92340 0.86437 -1.14800
O 	O 	0.50000 0.57660 0.13563 -1.15100
O 	O 	0.50000 0.07660 0.63563 -1.15300
O 	O 	0.00000 0.57660 0.63563 -1.14800
O 	O 	-0.00000 0.07660 0.13563 -1.15400
O 	O 	0.50000 0.57660 0.86437 -1.14800
O 	O 	0.50000 0.07660 0.36437 -1.15400
O 	O 	0.00000 0.57660 0.36437 -1.14800
O 	O 	0.00000 0.07660 0.86437 -1.15200
O 	O 	0.50000 0.42340 0.13563 -1.15100
O 	O 	0.50000 0.92340 0.63563 -1.15000
O 	O 	0.00000 0.42340 0.63563 -1.14800
O 	O 	-0.00000 0.92340 0.13563 -1.15000
O 	O 	0.86437 0.50000 0.42340 -1.14900
O 	O 	0.86437 0.00000 0.92340 -1.14800
O 	O 	0.36437 0.50000 0.92340 -1.15100
O 	O 	0.36437 0.00000 0.42340 -1.14900
O 	O 	0.13563 0.50000 0.57660 -1.15100
O 	O 	0.13563 0.00000 0.07660 -1.15400
O 	O 	0.63563 0.50000 0.07660 -1.15300
O 	O 	0.63563 0.00000 0.57660 -1.14800
O 	O 	0.86437 0.50000 0.57660 -1.14800
O 	O 	0.86437 0.00000 0.07660 -1.15200
O 	O 	0.36437 0.50000 0.07660 -1.15400
O 	O 	0.36437 0.00000 0.57660 -1.14800
O 	O 	0.13563 0.50000 0.42340 -1.15100
O 	O 	0.13563 0.00000 0.92340 -1.15000
O 	O 	0.63563 0.50000 0.92340 -1.15000
O 	O 	0.63563 0.00000 0.42340 -1.14800
O 	O 	0.86437 0.42340 0.50000 -1.14900
O 	O 	0.86437 0.92340 -0.00000 -1.14800
O 	O 	0.36437 0.42340 -0.00000 -1.14900
O 	O 	0.36437 0.92340 0.50000 -1.15100
O 	O 	0.13563 0.57660 0.50000 -1.15100
O 	O 	0.13563 0.07660 -0.00000 -1.15400
O 	O 	0.63563 0.57660 -0.00000 -1.14800
O 	O 	0.63563 0.07660 0.50000 -1.15300
O 	O 	0.86437 0.57660 0.50000 -1.14800
O 	O 	0.86437 0.07660 -0.00000 -1.15200
O 	O 	0.36437 0.57660 -0.00000 -1.14800
O 	O 	0.36437 0.07660 0.50000 -1.15400
O 	O 	0.13563 0.42340 0.50000 -1.15100
O 	O 	0.13563 0.92340 -0.00000 -1.15000
O 	O 	0.63563 0.42340 -0.00000 -1.14800
O 	O 	0.63563 0.92340 0.50000 -1.15000
O 	O 	0.42340 0.50000 0.13563 -1.15100
O 	O 	0.42340 0.00000 0.63563 -1.14800
O 	O 	0.92340 0.50000 0.63563 -1.15000
O 	O 	0.92340 0.00000 0.13563 -1.15000
O 	O 	0.57660 0.50000 0.86437 -1.14800
O 	O 	0.57660 0.00000 0.36437 -1.14800
O 	O 	0.07660 0.50000 0.36437 -1.15400
O 	O 	0.07660 0.00000 0.86437 -1.15200
O 	O 	0.57660 0.50000 0.13563 -1.15100
O 	O 	0.57660 0.00000 0.63563 -1.14800
O 	O 	0.07660 0.50000 0.63563 -1.15300
O 	O 	0.07660 0.00000 0.13563 -1.15400
O 	O 	0.42340 0.50000 0.86437 -1.14900
O 	O 	0.42340 0.00000 0.36437 -1.14900
O 	O 	0.92340 0.50000 0.36437 -1.15100
O 	O 	0.92340 0.00000 0.86437 -1.14800
O 	O 	0.50000 0.86437 0.57660 -1.14800
O 	O 	0.50000 0.36437 0.07660 -1.15400
O 	O 	0.00000 0.86437 0.07660 -1.15200
O 	O 	-0.00000 0.36437 0.57660 -1.14800
O 	O 	0.50000 0.13563 0.42340 -1.15100
O 	O 	0.50000 0.63563 0.92340 -1.15000
O 	O 	-0.00000 0.13563 0.92340 -1.15000
O 	O 	0.00000 0.63563 0.42340 -1.14800
O 	O 	0.50000 0.86437 0.42340 -1.14900
O 	O 	0.50000 0.36437 0.92340 -1.15100
O 	O 	0.00000 0.86437 0.92340 -1.14800
O 	O 	0.00000 0.36437 0.42340 -1.14900
O 	O 	0.50000 0.13563 0.57660 -1.15100
O 	O 	0.50000 0.63563 0.07660 -1.15300
O 	O 	-0.00000 0.13563 0.07660 -1.15400
O 	O 	0.00000 0.63563 0.57660 -1.14800
C 	C 	0.34050 0.84050 0.50000 -4.96700
C 	C 	0.38080 0.88080 0.50000 2.37700
C 	C 	0.26980 0.76980 0.50000 1.55400
C 	C 	0.34050 0.34050 -0.00000 -4.97300
C 	C 	0.38080 0.38080 -0.00000 2.38000
C 	C 	0.26980 0.26980 -0.00000 1.56200
C 	C 	0.65950 0.15950 0.50000 -4.98400
C 	C 	0.61920 0.11920 0.50000 2.38200
C 	C 	0.73020 0.23020 0.50000 1.56600
C 	C 	0.65950 0.65950 -0.00000 -4.96600
C 	C 	0.61920 0.61920 -0.00000 2.37800
C 	C 	0.73020 0.73020 -0.00000 1.57100
C 	C 	0.65950 0.84050 0.50000 -4.96200
C 	C 	0.61920 0.88080 0.50000 2.37600
C 	C 	0.73020 0.76980 0.50000 1.55700
C 	C 	0.65950 0.34050 -0.00000 -4.96800
C 	C 	0.61920 0.38080 -0.00000 2.37900
C 	C 	0.73020 0.26980 -0.00000 1.56500
C 	C 	0.34050 0.15950 0.50000 -4.98500
C 	C 	0.38080 0.11920 0.50000 2.38200
C 	C 	0.26980 0.23020 0.50000 1.56200
C 	C 	0.34050 0.65950 -0.00000 -4.96800
C 	C 	0.38080 0.61920 -0.00000 2.37900
C 	C 	0.26980 0.73020 -0.00000 1.56500
C 	C 	0.50000 0.34050 0.84050 -4.96700
C 	C 	0.50000 0.38080 0.88080 2.37700
C 	C 	0.50000 0.26980 0.76980 1.55400
C 	C 	0.00000 0.34050 0.34050 -4.97300
C 	C 	0.00000 0.38080 0.38080 2.38000
C 	C 	0.00000 0.26980 0.26980 1.56200
C 	C 	0.50000 0.65950 0.15950 -4.98400
C 	C 	0.50000 0.61920 0.11920 2.38200
C 	C 	0.50000 0.73020 0.23020 1.56600
C 	C 	0.00000 0.65950 0.65950 -4.96600
C 	C 	-0.00000 0.61920 0.61920 2.37800
C 	C 	0.00000 0.73020 0.73020 1.57100
C 	C 	0.50000 0.65950 0.84050 -4.96200
C 	C 	0.50000 0.61920 0.88080 2.37600
C 	C 	0.50000 0.73020 0.76980 1.55700
C 	C 	0.00000 0.65950 0.34050 -4.96800
C 	C 	-0.00000 0.61920 0.38080 2.37900
C 	C 	0.00000 0.73020 0.26980 1.56500
C 	C 	0.50000 0.34050 0.15950 -4.98500
C 	C 	0.50000 0.38080 0.11920 2.38200
C 	C 	0.50000 0.26980 0.23020 1.56200
C 	C 	0.00000 0.34050 0.65950 -4.96800
C 	C 	-0.00000 0.38080 0.61920 2.37900
C 	C 	0.00000 0.26980 0.73020 1.56500
C 	C 	0.84050 0.50000 0.34050 -4.96700
C 	C 	0.88080 0.50000 0.38080 2.37700
C 	C 	0.76980 0.50000 0.26980 1.55400
C 	C 	0.84050 0.00000 0.84050 -4.94800
C 	C 	0.88080 0.00000 0.88080 2.37500
C 	C 	0.76980 0.00000 0.76980 1.55900
C 	C 	0.15950 0.50000 0.65950 -4.98400
C 	C 	0.11920 0.50000 0.61920 2.38200
C 	C 	0.23020 0.50000 0.73020 1.56600
C 	C 	0.15950 0.00000 0.15950 -4.98900
C 	C 	0.11920 0.00000 0.11920 2.38500
C 	C 	0.23020 0.00000 0.23020 1.57200
C 	C 	0.84050 0.50000 0.65950 -4.96200
C 	C 	0.88080 0.50000 0.61920 2.37600
C 	C 	0.76980 0.50000 0.73020 1.55700
C 	C 	0.84050 0.00000 0.15950 -4.97100
C 	C 	0.88080 0.00000 0.11920 2.38100
C 	C 	0.76980 0.00000 0.23020 1.56700
C 	C 	0.15950 0.50000 0.34050 -4.98500
C 	C 	0.11920 0.50000 0.38080 2.38200
C 	C 	0.23020 0.50000 0.26980 1.56200
C 	C 	0.15950 0.00000 0.84050 -4.97100
C 	C 	0.11920 0.00000 0.88080 2.38100
C 	C 	0.23020 0.00000 0.76980 1.56700
C 	C 	0.84050 0.34050 0.50000 -4.96700
C 	C 	0.88080 0.38080 0.50000 2.37700
C 	C 	0.76980 0.26980 0.50000 1.55400
C 	C 	0.84050 0.84050 -0.00000 -4.94800
C 	C 	0.88080 0.88080 -0.00000 2.37500
C 	C 	0.76980 0.76980 -0.00000 1.55900
C 	C 	0.15950 0.65950 0.50000 -4.98400
C 	C 	0.11920 0.61920 0.50000 2.38200
C 	C 	0.23020 0.73020 0.50000 1.56600
C 	C 	0.15950 0.15950 -0.00000 -4.98900
C 	C 	0.11920 0.11920 -0.00000 2.38500
C 	C 	0.23020 0.23020 -0.00000 1.57200
C 	C 	0.84050 0.65950 0.50000 -4.96200
C 	C 	0.88080 0.61920 0.50000 2.37600
C 	C 	0.76980 0.73020 0.50000 1.55700
C 	C 	0.84050 0.15950 -0.00000 -4.97100
C 	C 	0.88080 0.11920 -0.00000 2.38100
C 	C 	0.76980 0.23020 -0.00000 1.56700
C 	C 	0.15950 0.34050 0.50000 -4.98500
C 	C 	0.11920 0.38080 0.50000 2.38200
C 	C 	0.23020 0.26980 0.50000 1.56200
C 	C 	0.15950 0.84050 -0.00000 -4.97100
C 	C 	0.11920 0.88080 -0.00000 2.38100
C 	C 	0.23020 0.76980 -0.00000 1.56700
C 	C 	0.34050 0.50000 0.15950 -4.98500
C 	C 	0.38080 0.50000 0.11920 2.38200
C 	C 	0.26980 0.50000 0.23020 1.56200
C 	C 	0.34050 0.00000 0.65950 -4.96800
C 	C 	0.38080 0.00000 0.61920 2.37900
C 	C 	0.26980 0.00000 0.73020 1.56500
C 	C 	0.65950 0.50000 0.84050 -4.96200
C 	C 	0.61920 0.50000 0.88080 2.37600
C 	C 	0.73020 0.50000 0.76980 1.55700
C 	C 	0.65950 0.00000 0.34050 -4.96800
C 	C 	0.61920 0.00000 0.38080 2.37900
C 	C 	0.73020 0.00000 0.26980 1.56500
C 	C 	0.65950 0.50000 0.15950 -4.98400
C 	C 	0.61920 0.50000 0.11920 2.38200
C 	C 	0.73020 0.50000 0.23020 1.56600
C 	C 	0.65950 0.00000 0.65950 -4.96600
C 	C 	0.61920 0.00000 0.61920 2.37800
C 	C 	0.73020 0.00000 0.73020 1.57100
C 	C 	0.34050 0.50000 0.84050 -4.96700
C 	C 	0.38080 0.50000 0.88080 2.37700
C 	C 	0.26980 0.50000 0.76980 1.55400
C 	C 	0.34050 0.00000 0.34050 -4.97300
C 	C 	0.38080 0.00000 0.38080 2.38000
C 	C 	0.26980 0.00000 0.26980 1.56200
C 	C 	0.50000 0.84050 0.65950 -4.96200
C 	C 	0.50000 0.88080 0.61920 2.37600
C 	C 	0.50000 0.76980 0.73020 1.55700
C 	C 	-0.00000 0.84050 0.15950 -4.97100
C 	C 	-0.00000 0.88080 0.11920 2.38100
C 	C 	-0.00000 0.76980 0.23020 1.56700
C 	C 	0.50000 0.15950 0.34050 -4.98500
C 	C 	0.50000 0.11920 0.38080 2.38200
C 	C 	0.50000 0.23020 0.26980 1.56200
C 	C 	-0.00000 0.15950 0.84050 -4.97100
C 	C 	0.00000 0.11920 0.88080 2.38100
C 	C 	-0.00000 0.23020 0.76980 1.56700
C 	C 	0.50000 0.84050 0.34050 -4.96700
C 	C 	0.50000 0.88080 0.38080 2.37700
C 	C 	0.50000 0.76980 0.26980 1.55400
C 	C 	-0.00000 0.84050 0.84050 -4.94800
C 	C 	0.00000 0.88080 0.88080 2.37500
C 	C 	0.00000 0.76980 0.76980 1.55900
C 	C 	0.50000 0.15950 0.65950 -4.98400
C 	C 	0.50000 0.11920 0.61920 2.38200
C 	C 	0.50000 0.23020 0.73020 1.56600
C 	C 	0.00000 0.15950 0.15950 -4.98900
C 	C 	0.00000 0.11920 0.11920 2.38500
C 	C 	0.00000 0.23020 0.23020 1.57200
