data_crystal

_cell_length_a 27.51270
_cell_length_b 27.51270
_cell_length_c 27.51270
_cell_angle_alpha 90.00000
_cell_angle_beta  90.00000
_cell_angle_gamma 90.00000

_symmetry_space_group_name_	'P 1'
_symmetry_space_group_name_H-M	'P 1'

loop_
_symmetry_equiv_pos_as_xyz
  x,y,z

loop_
_atom_site_label
_atom_site_type_symbol
_atom_site_fract_x
_atom_site_fract_y
_atom_site_fract_z
_atom_site_charge
C 	C 	0.20780 0.85320 0.01260 -15.40000
H 	H 	0.21700 0.88650 0.01210 27.07400
F 	F 	0.22300 0.90020 0.01210 -22.43900
C 	C 	0.24490 0.81800 0.01420 8.42200
H 	H 	0.27820 0.82700 0.01490 -2.99200
C 	C 	0.20780 0.35320 0.51260 -26.79000
H 	H 	0.21700 0.38650 0.51210 46.30400
F 	F 	0.22300 0.40020 0.51210 -37.66200
C 	C 	0.24490 0.31800 0.51420 13.52800
H 	H 	0.27820 0.32700 0.51490 -2.35500
C 	C 	0.70780 0.85320 0.51260 -62.31300
H 	H 	0.71700 0.88650 0.51210 127.48100
F 	F 	0.72300 0.90020 0.51210 -112.78000
C 	C 	0.74490 0.81800 0.51420 25.07800
H 	H 	0.77820 0.82700 0.51490 -6.73200
C 	C 	0.70780 0.35320 0.01260 77.71800
H 	H 	0.71700 0.38650 0.01210 -150.08500
F 	F 	0.72300 0.40020 0.01210 130.91300
C 	C 	0.74490 0.31800 0.01420 -36.37700
H 	H 	0.77820 0.32700 0.01490 10.75300
C 	C 	0.79220 0.14680 0.01260 -15.64900
H 	H 	0.78300 0.11350 0.01210 27.65300
F 	F 	0.77700 0.09980 0.01210 -22.97100
C 	C 	0.75510 0.18200 0.01420 8.50600
H 	H 	0.72180 0.17300 0.01490 -3.02300
C 	C 	0.79220 0.64680 0.51260 -26.70600
H 	H 	0.78300 0.61350 0.51210 46.18300
F 	F 	0.77700 0.59980 0.51210 -37.57100
C 	C 	0.75510 0.68200 0.51420 13.47100
H 	H 	0.72180 0.67300 0.51490 -2.34700
C 	C 	0.29220 0.14680 0.51260 -62.67700
H 	H 	0.28300 0.11350 0.51210 128.26200
F 	F 	0.27700 0.09980 0.51210 -113.47400
C 	C 	0.25510 0.18200 0.51420 25.23400
H 	H 	0.22180 0.17300 0.51490 -6.77500
C 	C 	0.29220 0.64680 0.01260 77.68700
H 	H 	0.28300 0.61350 0.01210 -150.01400
F 	F 	0.27700 0.59980 0.01210 130.84900
C 	C 	0.25510 0.68200 0.01420 -36.36700
H 	H 	0.22180 0.67300 0.01490 10.74800
C 	C 	0.79220 0.85320 0.98740 -13.68000
H 	H 	0.78300 0.88650 0.98790 27.22200
F 	F 	0.77700 0.90020 0.98790 -22.76100
C 	C 	0.75510 0.81800 0.98580 9.11100
H 	H 	0.72180 0.82700 0.98510 -3.02000
C 	C 	0.79220 0.35320 0.48740 -26.64900
H 	H 	0.78300 0.38650 0.48790 46.08000
F 	F 	0.77700 0.40020 0.48790 -37.48300
C 	C 	0.75510 0.31800 0.48580 13.44700
H 	H 	0.72180 0.32700 0.48510 -2.33400
C 	C 	0.29220 0.85320 0.48740 -62.28400
H 	H 	0.28300 0.88650 0.48790 127.44700
F 	F 	0.27700 0.90020 0.48790 -112.75300
C 	C 	0.25510 0.81800 0.48580 25.06500
H 	H 	0.22180 0.82700 0.48510 -6.72400
C 	C 	0.29220 0.35320 0.98740 79.35600
H 	H 	0.28300 0.38650 0.98790 -149.74800
F 	F 	0.27700 0.40020 0.98790 130.43500
C 	C 	0.25510 0.31800 0.98580 -35.61800
H 	H 	0.22180 0.32700 0.98510 10.71400
C 	C 	0.20780 0.14680 0.98740 -14.17500
H 	H 	0.21700 0.11350 0.98790 28.23200
F 	F 	0.22300 0.09980 0.98790 -23.63800
C 	C 	0.24490 0.18200 0.98580 9.36500
H 	H 	0.27820 0.17300 0.98510 -3.08800
C 	C 	0.20780 0.64680 0.48740 -26.83700
H 	H 	0.21700 0.61350 0.48790 46.40300
F 	F 	0.22300 0.59980 0.48790 -37.74700
C 	C 	0.24490 0.68200 0.48580 13.55700
H 	H 	0.27820 0.67300 0.48510 -2.36600
C 	C 	0.70780 0.14680 0.48740 -62.69300
H 	H 	0.71700 0.11350 0.48790 128.28900
F 	F 	0.72300 0.09980 0.48790 -113.49600
C 	C 	0.74490 0.18200 0.48580 25.25200
H 	H 	0.77820 0.17300 0.48510 -6.78100
C 	C 	0.70780 0.64680 0.98740 79.28400
H 	H 	0.71700 0.61350 0.98790 -149.63400
F 	F 	0.72300 0.59980 0.98790 130.33900
C 	C 	0.74490 0.68200 0.98580 -35.58300
H 	H 	0.77820 0.67300 0.98510 10.69600
C 	C 	0.01260 0.20780 0.85320 -15.39900
H 	H 	0.01210 0.21700 0.88650 27.07500
F 	F 	0.01210 0.22300 0.90020 -22.43800
C 	C 	0.01420 0.24490 0.81800 8.42300
H 	H 	0.01490 0.27820 0.82700 -2.99100
C 	C 	0.01260 0.70780 0.35320 77.71900
H 	H 	0.01210 0.71700 0.38650 -150.08400
F 	F 	0.01210 0.72300 0.40020 130.91400
C 	C 	0.01420 0.74490 0.31800 -36.37600
H 	H 	0.01490 0.77820 0.32700 10.75400
C 	C 	0.51260 0.20780 0.35320 -26.78900
H 	H 	0.51210 0.21700 0.38650 46.30500
F 	F 	0.51210 0.22300 0.40020 -37.66100
C 	C 	0.51420 0.24490 0.31800 13.52900
H 	H 	0.51490 0.27820 0.32700 -2.35400
C 	C 	0.51260 0.70780 0.85320 -62.31200
H 	H 	0.51210 0.71700 0.88650 127.48200
F 	F 	0.51210 0.72300 0.90020 -112.77900
C 	C 	0.51420 0.74490 0.81800 25.07900
H 	H 	0.51490 0.77820 0.82700 -6.73100
C 	C 	0.01260 0.79220 0.14680 -15.64800
H 	H 	0.01210 0.78300 0.11350 27.65400
F 	F 	0.01210 0.77700 0.09980 -22.97000
C 	C 	0.01420 0.75510 0.18200 8.50700
H 	H 	0.01490 0.72180 0.17300 -3.02200
C 	C 	0.01260 0.29220 0.64680 77.68700
H 	H 	0.01210 0.28300 0.61350 -150.01400
F 	F 	0.01210 0.27700 0.59980 130.84900
C 	C 	0.01420 0.25510 0.68200 -36.36700
H 	H 	0.01490 0.22180 0.67300 10.74800
C 	C 	0.51260 0.79220 0.64680 -26.70600
H 	H 	0.51210 0.78300 0.61350 46.18300
F 	F 	0.51210 0.77700 0.59980 -37.57100
C 	C 	0.51420 0.75510 0.68200 13.47100
H 	H 	0.51490 0.72180 0.67300 -2.34700
C 	C 	0.51260 0.29220 0.14680 -62.67700
H 	H 	0.51210 0.28300 0.11350 128.26200
F 	F 	0.51210 0.27700 0.09980 -113.47400
C 	C 	0.51420 0.25510 0.18200 25.23400
H 	H 	0.51490 0.22180 0.17300 -6.77500
C 	C 	0.98740 0.79220 0.85320 -13.68000
H 	H 	0.98790 0.78300 0.88650 27.22200
F 	F 	0.98790 0.77700 0.90020 -22.76100
C 	C 	0.98580 0.75510 0.81800 9.11100
H 	H 	0.98510 0.72180 0.82700 -3.02000
C 	C 	0.98740 0.29220 0.35320 79.35600
H 	H 	0.98790 0.28300 0.38650 -149.74800
F 	F 	0.98790 0.27700 0.40020 130.43500
C 	C 	0.98580 0.25510 0.31800 -35.61800
H 	H 	0.98510 0.22180 0.32700 10.71400
C 	C 	0.48740 0.79220 0.35320 -26.64900
H 	H 	0.48790 0.78300 0.38650 46.08000
F 	F 	0.48790 0.77700 0.40020 -37.48300
C 	C 	0.48580 0.75510 0.31800 13.44700
H 	H 	0.48510 0.72180 0.32700 -2.33400
C 	C 	0.48740 0.29220 0.85320 -62.28400
H 	H 	0.48790 0.28300 0.88650 127.44700
F 	F 	0.48790 0.27700 0.90020 -112.75300
C 	C 	0.48580 0.25510 0.81800 25.06500
H 	H 	0.48510 0.22180 0.82700 -6.72400
C 	C 	0.98740 0.20780 0.14680 -14.17500
H 	H 	0.98790 0.21700 0.11350 28.23200
F 	F 	0.98790 0.22300 0.09980 -23.63800
C 	C 	0.98580 0.24490 0.18200 9.36500
H 	H 	0.98510 0.27820 0.17300 -3.08800
C 	C 	0.98740 0.70780 0.64680 79.28400
H 	H 	0.98790 0.71700 0.61350 -149.63400
F 	F 	0.98790 0.72300 0.59980 130.33900
C 	C 	0.98580 0.74490 0.68200 -35.58300
H 	H 	0.98510 0.77820 0.67300 10.69600
C 	C 	0.48740 0.20780 0.64680 -26.83700
H 	H 	0.48790 0.21700 0.61350 46.40300
F 	F 	0.48790 0.22300 0.59980 -37.74700
C 	C 	0.48580 0.24490 0.68200 13.55700
H 	H 	0.48510 0.27820 0.67300 -2.36600
C 	C 	0.48740 0.70780 0.14680 -62.69300
H 	H 	0.48790 0.71700 0.11350 128.28900
F 	F 	0.48790 0.72300 0.09980 -113.49600
C 	C 	0.48580 0.74490 0.18200 25.25200
H 	H 	0.48510 0.77820 0.17300 -6.78100
C 	C 	0.85320 0.01260 0.20780 -15.39900
H 	H 	0.88650 0.01210 0.21700 27.07500
F 	F 	0.90020 0.01210 0.22300 -22.43800
C 	C 	0.81800 0.01420 0.24490 8.42300
H 	H 	0.82700 0.01490 0.27820 -2.99100
C 	C 	0.85320 0.51260 0.70780 -62.31200
H 	H 	0.88650 0.51210 0.71700 127.48200
F 	F 	0.90020 0.51210 0.72300 -112.77900
C 	C 	0.81800 0.51420 0.74490 25.07900
H 	H 	0.82700 0.51490 0.77820 -6.73100
C 	C 	0.35320 0.01260 0.70780 77.71900
H 	H 	0.38650 0.01210 0.71700 -150.08400
F 	F 	0.40020 0.01210 0.72300 130.91400
C 	C 	0.31800 0.01420 0.74490 -36.37600
H 	H 	0.32700 0.01490 0.77820 10.75400
C 	C 	0.35320 0.51260 0.20780 -26.78900
H 	H 	0.38650 0.51210 0.21700 46.30500
F 	F 	0.40020 0.51210 0.22300 -37.66100
C 	C 	0.31800 0.51420 0.24490 13.52900
H 	H 	0.32700 0.51490 0.27820 -2.35400
C 	C 	0.14680 0.01260 0.79220 -15.64800
H 	H 	0.11350 0.01210 0.78300 27.65400
F 	F 	0.09980 0.01210 0.77700 -22.97000
C 	C 	0.18200 0.01420 0.75510 8.50700
H 	H 	0.17300 0.01490 0.72180 -3.02200
C 	C 	0.14680 0.51260 0.29220 -62.67700
H 	H 	0.11350 0.51210 0.28300 128.26200
F 	F 	0.09980 0.51210 0.27700 -113.47400
C 	C 	0.18200 0.51420 0.25510 25.23400
H 	H 	0.17300 0.51490 0.22180 -6.77500
C 	C 	0.64680 0.01260 0.29220 77.68700
H 	H 	0.61350 0.01210 0.28300 -150.01400
F 	F 	0.59980 0.01210 0.27700 130.84900
C 	C 	0.68200 0.01420 0.25510 -36.36700
H 	H 	0.67300 0.01490 0.22180 10.74800
C 	C 	0.64680 0.51260 0.79220 -26.70600
H 	H 	0.61350 0.51210 0.78300 46.18300
F 	F 	0.59980 0.51210 0.77700 -37.57100
C 	C 	0.68200 0.51420 0.75510 13.47100
H 	H 	0.67300 0.51490 0.72180 -2.34700
C 	C 	0.85320 0.98740 0.79220 -13.68000
H 	H 	0.88650 0.98790 0.78300 27.22200
F 	F 	0.90020 0.98790 0.77700 -22.76100
C 	C 	0.81800 0.98580 0.75510 9.11100
H 	H 	0.82700 0.98510 0.72180 -3.02000
C 	C 	0.85320 0.48740 0.29220 -62.28400
H 	H 	0.88650 0.48790 0.28300 127.44700
F 	F 	0.90020 0.48790 0.27700 -112.75300
C 	C 	0.81800 0.48580 0.25510 25.06500
H 	H 	0.82700 0.48510 0.22180 -6.72400
C 	C 	0.35320 0.98740 0.29220 79.35600
H 	H 	0.38650 0.98790 0.28300 -149.74800
F 	F 	0.40020 0.98790 0.27700 130.43500
C 	C 	0.31800 0.98580 0.25510 -35.61800
H 	H 	0.32700 0.98510 0.22180 10.71400
C 	C 	0.35320 0.48740 0.79220 -26.64900
H 	H 	0.38650 0.48790 0.78300 46.08000
F 	F 	0.40020 0.48790 0.77700 -37.48300
C 	C 	0.31800 0.48580 0.75510 13.44700
H 	H 	0.32700 0.48510 0.72180 -2.33400
C 	C 	0.14680 0.98740 0.20780 -14.17500
H 	H 	0.11350 0.98790 0.21700 28.23200
F 	F 	0.09980 0.98790 0.22300 -23.63800
C 	C 	0.18200 0.98580 0.24490 9.36500
H 	H 	0.17300 0.98510 0.27820 -3.08800
C 	C 	0.14680 0.48740 0.70780 -62.69300
H 	H 	0.11350 0.48790 0.71700 128.28900
F 	F 	0.09980 0.48790 0.72300 -113.49600
C 	C 	0.18200 0.48580 0.74490 25.25200
H 	H 	0.17300 0.48510 0.77820 -6.78100
C 	C 	0.64680 0.98740 0.70780 79.28400
H 	H 	0.61350 0.98790 0.71700 -149.63400
F 	F 	0.59980 0.98790 0.72300 130.33900
C 	C 	0.68200 0.98580 0.74490 -35.58300
H 	H 	0.67300 0.98510 0.77820 10.69600
C 	C 	0.64680 0.48740 0.20780 -26.83700
H 	H 	0.61350 0.48790 0.21700 46.40300
F 	F 	0.59980 0.48790 0.22300 -37.74700
C 	C 	0.68200 0.48580 0.24490 13.55700
H 	H 	0.67300 0.48510 0.27820 -2.36600
C 	C 	0.85320 0.20780 0.98740 -13.80200
H 	H 	0.88650 0.21700 0.98790 27.43200
F 	F 	0.90020 0.22300 0.98790 -22.92800
C 	C 	0.81800 0.24490 0.98580 9.19300
H 	H 	0.82700 0.27820 0.98510 -3.03800
C 	C 	0.85320 0.70780 0.48740 -62.30800
H 	H 	0.88650 0.71700 0.48790 127.48100
F 	F 	0.90020 0.72300 0.48790 -112.78000
C 	C 	0.81800 0.74490 0.48580 25.08200
H 	H 	0.82700 0.77820 0.48510 -6.73100
C 	C 	0.35320 0.20780 0.48740 -26.78500
H 	H 	0.38650 0.21700 0.48790 46.30500
F 	F 	0.40020 0.22300 0.48790 -37.66200
C 	C 	0.31800 0.24490 0.48580 13.53100
H 	H 	0.32700 0.27820 0.48510 -2.35300
C 	C 	0.35320 0.70780 0.98740 79.33300
H 	H 	0.38650 0.71700 0.98790 -149.72400
F 	F 	0.40020 0.72300 0.98790 130.41800
C 	C 	0.31800 0.74490 0.98580 -35.60600
H 	H 	0.32700 0.77820 0.98510 10.70800
C 	C 	0.14680 0.79220 0.98740 -14.04800
H 	H 	0.11350 0.78300 0.98790 28.01200
F 	F 	0.09980 0.77700 0.98790 -23.46100
C 	C 	0.18200 0.75510 0.98580 9.28000
H 	H 	0.17300 0.72180 0.98510 -3.06900
C 	C 	0.14680 0.29220 0.48740 -62.67300
H 	H 	0.11350 0.28300 0.48790 128.26200
F 	F 	0.09980 0.27700 0.48790 -113.47500
C 	C 	0.18200 0.25510 0.48580 25.23600
H 	H 	0.17300 0.22180 0.48510 -6.77500
C 	C 	0.64680 0.79220 0.48740 -26.70200
H 	H 	0.61350 0.78300 0.48790 46.18200
F 	F 	0.59980 0.77700 0.48790 -37.57200
C 	C 	0.68200 0.75510 0.48580 13.47400
H 	H 	0.67300 0.72180 0.48510 -2.34600
C 	C 	0.64680 0.29220 0.98740 79.30400
H 	H 	0.61350 0.28300 0.98790 -149.65300
F 	F 	0.59980 0.27700 0.98790 130.35200
C 	C 	0.68200 0.25510 0.98580 -35.59400
H 	H 	0.67300 0.22180 0.98510 10.70100
C 	C 	0.85320 0.79220 0.01260 -15.26400
H 	H 	0.88650 0.78300 0.01210 26.86800
F 	F 	0.90020 0.77700 0.01210 -22.27500
C 	C 	0.81800 0.75510 0.01420 8.34500
H 	H 	0.82700 0.72180 0.01490 -2.97300
C 	C 	0.85320 0.29220 0.51260 -62.28800
H 	H 	0.88650 0.28300 0.51210 127.44700
F 	F 	0.90020 0.27700 0.51210 -112.75200
C 	C 	0.81800 0.25510 0.51420 25.06200
H 	H 	0.82700 0.22180 0.51490 -6.72500
C 	C 	0.35320 0.79220 0.51260 -26.65200
H 	H 	0.38650 0.78300 0.51210 46.08100
F 	F 	0.40020 0.77700 0.51210 -37.48200
C 	C 	0.31800 0.75510 0.51420 13.44400
H 	H 	0.32700 0.72180 0.51490 -2.33400
C 	C 	0.35320 0.29220 0.01260 77.73500
H 	H 	0.38650 0.28300 0.01210 -150.11000
F 	F 	0.40020 0.27700 0.01210 130.93300
C 	C 	0.31800 0.25510 0.01420 -36.39400
H 	H 	0.32700 0.22180 0.01490 10.76000
C 	C 	0.14680 0.20780 0.01260 -15.78800
H 	H 	0.11350 0.21700 0.01210 27.87200
F 	F 	0.09980 0.22300 0.01210 -23.14200
C 	C 	0.18200 0.24490 0.01420 8.58800
H 	H 	0.17300 0.27820 0.01490 -3.04100
C 	C 	0.14680 0.70780 0.51260 -62.69700
H 	H 	0.11350 0.71700 0.51210 128.29000
F 	F 	0.09980 0.72300 0.51210 -113.49500
C 	C 	0.18200 0.74490 0.51420 25.25000
H 	H 	0.17300 0.77820 0.51490 -6.78200
C 	C 	0.64680 0.20780 0.51260 -26.84000
H 	H 	0.61350 0.21700 0.51210 46.40300
F 	F 	0.59980 0.22300 0.51210 -37.74600
C 	C 	0.68200 0.24490 0.51420 13.55500
H 	H 	0.67300 0.27820 0.51490 -2.36600
C 	C 	0.64680 0.70780 0.01260 77.67400
H 	H 	0.61350 0.71700 0.01210 -149.99300
F 	F 	0.59980 0.72300 0.01210 130.83400
C 	C 	0.68200 0.74490 0.01420 -36.35000
H 	H 	0.67300 0.77820 0.01490 10.74200
C 	C 	0.20780 0.01260 0.14680 -15.78800
H 	H 	0.21700 0.01210 0.11350 27.87200
F 	F 	0.22300 0.01210 0.09980 -23.14200
C 	C 	0.24490 0.01420 0.18200 8.58800
H 	H 	0.27820 0.01490 0.17300 -3.04100
C 	C 	0.20780 0.51260 0.64680 -26.84000
H 	H 	0.21700 0.51210 0.61350 46.40300
F 	F 	0.22300 0.51210 0.59980 -37.74600
C 	C 	0.24490 0.51420 0.68200 13.55500
H 	H 	0.27820 0.51490 0.67300 -2.36600
C 	C 	0.70780 0.01260 0.64680 77.67400
H 	H 	0.71700 0.01210 0.61350 -149.99300
F 	F 	0.72300 0.01210 0.59980 130.83400
C 	C 	0.74490 0.01420 0.68200 -36.35000
H 	H 	0.77820 0.01490 0.67300 10.74200
C 	C 	0.70780 0.51260 0.14680 -62.69700
H 	H 	0.71700 0.51210 0.11350 128.29000
F 	F 	0.72300 0.51210 0.09980 -113.49500
C 	C 	0.74490 0.51420 0.18200 25.25000
H 	H 	0.77820 0.51490 0.17300 -6.78200
C 	C 	0.79220 0.01260 0.85320 -15.26400
H 	H 	0.78300 0.01210 0.88650 26.86800
F 	F 	0.77700 0.01210 0.90020 -22.27500
C 	C 	0.75510 0.01420 0.81800 8.34500
H 	H 	0.72180 0.01490 0.82700 -2.97300
C 	C 	0.79220 0.51260 0.35320 -26.65200
H 	H 	0.78300 0.51210 0.38650 46.08100
F 	F 	0.77700 0.51210 0.40020 -37.48200
C 	C 	0.75510 0.51420 0.31800 13.44400
H 	H 	0.72180 0.51490 0.32700 -2.33400
C 	C 	0.29220 0.01260 0.35320 77.73500
H 	H 	0.28300 0.01210 0.38650 -150.11000
F 	F 	0.27700 0.01210 0.40020 130.93300
C 	C 	0.25510 0.01420 0.31800 -36.39400
H 	H 	0.22180 0.01490 0.32700 10.76000
C 	C 	0.29220 0.51260 0.85320 -62.28800
H 	H 	0.28300 0.51210 0.88650 127.44700
F 	F 	0.27700 0.51210 0.90020 -112.75200
C 	C 	0.25510 0.51420 0.81800 25.06200
H 	H 	0.22180 0.51490 0.82700 -6.72500
C 	C 	0.79220 0.98740 0.14680 -14.04800
H 	H 	0.78300 0.98790 0.11350 28.01200
F 	F 	0.77700 0.98790 0.09980 -23.46100
C 	C 	0.75510 0.98580 0.18200 9.28000
H 	H 	0.72180 0.98510 0.17300 -3.06900
C 	C 	0.79220 0.48740 0.64680 -26.70200
H 	H 	0.78300 0.48790 0.61350 46.18200
F 	F 	0.77700 0.48790 0.59980 -37.57200
C 	C 	0.75510 0.48580 0.68200 13.47400
H 	H 	0.72180 0.48510 0.67300 -2.34600
C 	C 	0.29220 0.98740 0.64680 79.30400
H 	H 	0.28300 0.98790 0.61350 -149.65300
F 	F 	0.27700 0.98790 0.59980 130.35200
C 	C 	0.25510 0.98580 0.68200 -35.59400
H 	H 	0.22180 0.98510 0.67300 10.70100
C 	C 	0.29220 0.48740 0.14680 -62.67300
H 	H 	0.28300 0.48790 0.11350 128.26200
F 	F 	0.27700 0.48790 0.09980 -113.47500
C 	C 	0.25510 0.48580 0.18200 25.23600
H 	H 	0.22180 0.48510 0.17300 -6.77500
C 	C 	0.20780 0.98740 0.85320 -13.80200
H 	H 	0.21700 0.98790 0.88650 27.43200
F 	F 	0.22300 0.98790 0.90020 -22.92800
C 	C 	0.24490 0.98580 0.81800 9.19300
H 	H 	0.27820 0.98510 0.82700 -3.03800
C 	C 	0.20780 0.48740 0.35320 -26.78500
H 	H 	0.21700 0.48790 0.38650 46.30500
F 	F 	0.22300 0.48790 0.40020 -37.66200
C 	C 	0.24490 0.48580 0.31800 13.53100
H 	H 	0.27820 0.48510 0.32700 -2.35300
C 	C 	0.70780 0.98740 0.35320 79.33300
H 	H 	0.71700 0.98790 0.38650 -149.72400
F 	F 	0.72300 0.98790 0.40020 130.41800
C 	C 	0.74490 0.98580 0.31800 -35.60600
H 	H 	0.77820 0.98510 0.32700 10.70800
C 	C 	0.70780 0.48740 0.85320 -62.30800
H 	H 	0.71700 0.48790 0.88650 127.48100
F 	F 	0.72300 0.48790 0.90020 -112.78000
C 	C 	0.74490 0.48580 0.81800 25.08200
H 	H 	0.77820 0.48510 0.82700 -6.73100
C 	C 	0.01260 0.85320 0.79220 -15.26400
H 	H 	0.01210 0.88650 0.78300 26.86800
F 	F 	0.01210 0.90020 0.77700 -22.27500
C 	C 	0.01420 0.81800 0.75510 8.34500
H 	H 	0.01490 0.82700 0.72180 -2.97300
C 	C 	0.01260 0.35320 0.29220 77.73500
H 	H 	0.01210 0.38650 0.28300 -150.11000
F 	F 	0.01210 0.40020 0.27700 130.93300
C 	C 	0.01420 0.31800 0.25510 -36.39400
H 	H 	0.01490 0.32700 0.22180 10.76000
C 	C 	0.51260 0.85320 0.29220 -62.28800
H 	H 	0.51210 0.88650 0.28300 127.44700
F 	F 	0.51210 0.90020 0.27700 -112.75200
C 	C 	0.51420 0.81800 0.25510 25.06200
H 	H 	0.51490 0.82700 0.22180 -6.72500
C 	C 	0.51260 0.35320 0.79220 -26.65200
H 	H 	0.51210 0.38650 0.78300 46.08100
F 	F 	0.51210 0.40020 0.77700 -37.48200
C 	C 	0.51420 0.31800 0.75510 13.44400
H 	H 	0.51490 0.32700 0.72180 -2.33400
C 	C 	0.01260 0.14680 0.20780 -15.78800
H 	H 	0.01210 0.11350 0.21700 27.87200
F 	F 	0.01210 0.09980 0.22300 -23.14200
C 	C 	0.01420 0.18200 0.24490 8.58800
H 	H 	0.01490 0.17300 0.27820 -3.04100
C 	C 	0.01260 0.64680 0.70780 77.67400
H 	H 	0.01210 0.61350 0.71700 -149.99300
F 	F 	0.01210 0.59980 0.72300 130.83400
C 	C 	0.01420 0.68200 0.74490 -36.35000
H 	H 	0.01490 0.67300 0.77820 10.74200
C 	C 	0.51260 0.14680 0.70780 -62.69700
H 	H 	0.51210 0.11350 0.71700 128.29000
F 	F 	0.51210 0.09980 0.72300 -113.49500
C 	C 	0.51420 0.18200 0.74490 25.25000
H 	H 	0.51490 0.17300 0.77820 -6.78200
C 	C 	0.51260 0.64680 0.20780 -26.84000
H 	H 	0.51210 0.61350 0.21700 46.40300
F 	F 	0.51210 0.59980 0.22300 -37.74600
C 	C 	0.51420 0.68200 0.24490 13.55500
H 	H 	0.51490 0.67300 0.27820 -2.36600
C 	C 	0.98740 0.85320 0.20780 -13.80200
H 	H 	0.98790 0.88650 0.21700 27.43200
F 	F 	0.98790 0.90020 0.22300 -22.92800
C 	C 	0.98580 0.81800 0.24490 9.19300
H 	H 	0.98510 0.82700 0.27820 -3.03800
C 	C 	0.98740 0.35320 0.70780 79.33300
H 	H 	0.98790 0.38650 0.71700 -149.72400
F 	F 	0.98790 0.40020 0.72300 130.41800
C 	C 	0.98580 0.31800 0.74490 -35.60600
H 	H 	0.98510 0.32700 0.77820 10.70800
C 	C 	0.48740 0.85320 0.70780 -62.30800
H 	H 	0.48790 0.88650 0.71700 127.48100
F 	F 	0.48790 0.90020 0.72300 -112.78000
C 	C 	0.48580 0.81800 0.74490 25.08200
H 	H 	0.48510 0.82700 0.77820 -6.73100
C 	C 	0.48740 0.35320 0.20780 -26.78500
H 	H 	0.48790 0.38650 0.21700 46.30500
F 	F 	0.48790 0.40020 0.22300 -37.66200
C 	C 	0.48580 0.31800 0.24490 13.53100
H 	H 	0.48510 0.32700 0.27820 -2.35300
C 	C 	0.98740 0.14680 0.79220 -14.04800
H 	H 	0.98790 0.11350 0.78300 28.01200
F 	F 	0.98790 0.09980 0.77700 -23.46100
C 	C 	0.98580 0.18200 0.75510 9.28000
H 	H 	0.98510 0.17300 0.72180 -3.06900
C 	C 	0.98740 0.64680 0.29220 79.30400
H 	H 	0.98790 0.61350 0.28300 -149.65300
F 	F 	0.98790 0.59980 0.27700 130.35200
C 	C 	0.98580 0.68200 0.25510 -35.59400
H 	H 	0.98510 0.67300 0.22180 10.70100
C 	C 	0.48740 0.14680 0.29220 -62.67300
H 	H 	0.48790 0.11350 0.28300 128.26200
F 	F 	0.48790 0.09980 0.27700 -113.47500
C 	C 	0.48580 0.18200 0.25510 25.23600
H 	H 	0.48510 0.17300 0.22180 -6.77500
C 	C 	0.48740 0.64680 0.79220 -26.70200
H 	H 	0.48790 0.61350 0.78300 46.18200
F 	F 	0.48790 0.59980 0.77700 -37.57200
C 	C 	0.48580 0.68200 0.75510 13.47400
H 	H 	0.48510 0.67300 0.72180 -2.34600
C 	C 	0.79220 0.14680 0.98740 -14.04800
H 	H 	0.78300 0.11350 0.98790 28.01200
F 	F 	0.77700 0.09980 0.98790 -23.46100
C 	C 	0.75510 0.18200 0.98580 9.28000
H 	H 	0.72180 0.17300 0.98510 -3.06900
C 	C 	0.79220 0.64680 0.48740 -26.70200
H 	H 	0.78300 0.61350 0.48790 46.18200
F 	F 	0.77700 0.59980 0.48790 -37.57200
C 	C 	0.75510 0.68200 0.48580 13.47400
H 	H 	0.72180 0.67300 0.48510 -2.34600
C 	C 	0.29220 0.14680 0.48740 -62.67300
H 	H 	0.28300 0.11350 0.48790 128.26200
F 	F 	0.27700 0.09980 0.48790 -113.47500
C 	C 	0.25510 0.18200 0.48580 25.23600
H 	H 	0.22180 0.17300 0.48510 -6.77500
C 	C 	0.29220 0.64680 0.98740 79.30400
H 	H 	0.28300 0.61350 0.98790 -149.65300
F 	F 	0.27700 0.59980 0.98790 130.35200
C 	C 	0.25510 0.68200 0.98580 -35.59400
H 	H 	0.22180 0.67300 0.98510 10.70100
C 	C 	0.20780 0.85320 0.98740 -13.80200
H 	H 	0.21700 0.88650 0.98790 27.43200
F 	F 	0.22300 0.90020 0.98790 -22.92800
C 	C 	0.24490 0.81800 0.98580 9.19300
H 	H 	0.27820 0.82700 0.98510 -3.03800
C 	C 	0.20780 0.35320 0.48740 -26.78500
H 	H 	0.21700 0.38650 0.48790 46.30500
F 	F 	0.22300 0.40020 0.48790 -37.66200
C 	C 	0.24490 0.31800 0.48580 13.53100
H 	H 	0.27820 0.32700 0.48510 -2.35300
C 	C 	0.70780 0.85320 0.48740 -62.30800
H 	H 	0.71700 0.88650 0.48790 127.48100
F 	F 	0.72300 0.90020 0.48790 -112.78000
C 	C 	0.74490 0.81800 0.48580 25.08200
H 	H 	0.77820 0.82700 0.48510 -6.73100
C 	C 	0.70780 0.35320 0.98740 79.33300
H 	H 	0.71700 0.38650 0.98790 -149.72400
F 	F 	0.72300 0.40020 0.98790 130.41800
C 	C 	0.74490 0.31800 0.98580 -35.60600
H 	H 	0.77820 0.32700 0.98510 10.70800
C 	C 	0.20780 0.14680 0.01260 -15.78800
H 	H 	0.21700 0.11350 0.01210 27.87200
F 	F 	0.22300 0.09980 0.01210 -23.14200
C 	C 	0.24490 0.18200 0.01420 8.58800
H 	H 	0.27820 0.17300 0.01490 -3.04100
C 	C 	0.20780 0.64680 0.51260 -26.84000
H 	H 	0.21700 0.61350 0.51210 46.40300
F 	F 	0.22300 0.59980 0.51210 -37.74600
C 	C 	0.24490 0.68200 0.51420 13.55500
H 	H 	0.27820 0.67300 0.51490 -2.36600
C 	C 	0.70780 0.14680 0.51260 -62.69700
H 	H 	0.71700 0.11350 0.51210 128.29000
F 	F 	0.72300 0.09980 0.51210 -113.49500
C 	C 	0.74490 0.18200 0.51420 25.25000
H 	H 	0.77820 0.17300 0.51490 -6.78200
C 	C 	0.70780 0.64680 0.01260 77.67400
H 	H 	0.71700 0.61350 0.01210 -149.99300
F 	F 	0.72300 0.59980 0.01210 130.83400
C 	C 	0.74490 0.68200 0.01420 -36.35000
H 	H 	0.77820 0.67300 0.01490 10.74200
C 	C 	0.79220 0.85320 0.01260 -15.26400
H 	H 	0.78300 0.88650 0.01210 26.86800
F 	F 	0.77700 0.90020 0.01210 -22.27500
C 	C 	0.75510 0.81800 0.01420 8.34500
H 	H 	0.72180 0.82700 0.01490 -2.97300
C 	C 	0.79220 0.35320 0.51260 -26.65200
H 	H 	0.78300 0.38650 0.51210 46.08100
F 	F 	0.77700 0.40020 0.51210 -37.48200
C 	C 	0.75510 0.31800 0.51420 13.44400
H 	H 	0.72180 0.32700 0.51490 -2.33400
C 	C 	0.29220 0.85320 0.51260 -62.28800
H 	H 	0.28300 0.88650 0.51210 127.44700
F 	F 	0.27700 0.90020 0.51210 -112.75200
C 	C 	0.25510 0.81800 0.51420 25.06200
H 	H 	0.22180 0.82700 0.51490 -6.72500
C 	C 	0.29220 0.35320 0.01260 77.73500
H 	H 	0.28300 0.38650 0.01210 -150.11000
F 	F 	0.27700 0.40020 0.01210 130.93300
C 	C 	0.25510 0.31800 0.01420 -36.39400
H 	H 	0.22180 0.32700 0.01490 10.76000
C 	C 	0.98740 0.79220 0.14680 -14.04800
H 	H 	0.98790 0.78300 0.11350 28.01200
F 	F 	0.98790 0.77700 0.09980 -23.46100
C 	C 	0.98580 0.75510 0.18200 9.28000
H 	H 	0.98510 0.72180 0.17300 -3.06900
C 	C 	0.98740 0.29220 0.64680 79.30400
H 	H 	0.98790 0.28300 0.61350 -149.65300
F 	F 	0.98790 0.27700 0.59980 130.35200
C 	C 	0.98580 0.25510 0.68200 -35.59400
H 	H 	0.98510 0.22180 0.67300 10.70100
C 	C 	0.48740 0.79220 0.64680 -26.70200
H 	H 	0.48790 0.78300 0.61350 46.18200
F 	F 	0.48790 0.77700 0.59980 -37.57200
C 	C 	0.48580 0.75510 0.68200 13.47400
H 	H 	0.48510 0.72180 0.67300 -2.34600
C 	C 	0.48740 0.29220 0.14680 -62.67300
H 	H 	0.48790 0.28300 0.11350 128.26200
F 	F 	0.48790 0.27700 0.09980 -113.47500
C 	C 	0.48580 0.25510 0.18200 25.23600
H 	H 	0.48510 0.22180 0.17300 -6.77500
C 	C 	0.98740 0.20780 0.85320 -13.80200
H 	H 	0.98790 0.21700 0.88650 27.43200
F 	F 	0.98790 0.22300 0.90020 -22.92800
C 	C 	0.98580 0.24490 0.81800 9.19300
H 	H 	0.98510 0.27820 0.82700 -3.03800
C 	C 	0.98740 0.70780 0.35320 79.33300
H 	H 	0.98790 0.71700 0.38650 -149.72400
F 	F 	0.98790 0.72300 0.40020 130.41800
C 	C 	0.98580 0.74490 0.31800 -35.60600
H 	H 	0.98510 0.77820 0.32700 10.70800
C 	C 	0.48740 0.20780 0.35320 -26.78500
H 	H 	0.48790 0.21700 0.38650 46.30500
F 	F 	0.48790 0.22300 0.40020 -37.66200
C 	C 	0.48580 0.24490 0.31800 13.53100
H 	H 	0.48510 0.27820 0.32700 -2.35300
C 	C 	0.48740 0.70780 0.85320 -62.30800
H 	H 	0.48790 0.71700 0.88650 127.48100
F 	F 	0.48790 0.72300 0.90020 -112.78000
C 	C 	0.48580 0.74490 0.81800 25.08200
H 	H 	0.48510 0.77820 0.82700 -6.73100
C 	C 	0.01260 0.20780 0.14680 -15.78800
H 	H 	0.01210 0.21700 0.11350 27.87200
F 	F 	0.01210 0.22300 0.09980 -23.14200
C 	C 	0.01420 0.24490 0.18200 8.58800
H 	H 	0.01490 0.27820 0.17300 -3.04100
C 	C 	0.01260 0.70780 0.64680 77.67400
H 	H 	0.01210 0.71700 0.61350 -149.99300
F 	F 	0.01210 0.72300 0.59980 130.83400
C 	C 	0.01420 0.74490 0.68200 -36.35000
H 	H 	0.01490 0.77820 0.67300 10.74200
C 	C 	0.51260 0.20780 0.64680 -26.84000
H 	H 	0.51210 0.21700 0.61350 46.40300
F 	F 	0.51210 0.22300 0.59980 -37.74600
C 	C 	0.51420 0.24490 0.68200 13.55500
H 	H 	0.51490 0.27820 0.67300 -2.36600
C 	C 	0.51260 0.70780 0.14680 -62.69700
H 	H 	0.51210 0.71700 0.11350 128.29000
F 	F 	0.51210 0.72300 0.09980 -113.49500
C 	C 	0.51420 0.74490 0.18200 25.25000
H 	H 	0.51490 0.77820 0.17300 -6.78200
C 	C 	0.01260 0.79220 0.85320 -15.26400
H 	H 	0.01210 0.78300 0.88650 26.86800
F 	F 	0.01210 0.77700 0.90020 -22.27500
C 	C 	0.01420 0.75510 0.81800 8.34500
H 	H 	0.01490 0.72180 0.82700 -2.97300
C 	C 	0.01260 0.29220 0.35320 77.73500
H 	H 	0.01210 0.28300 0.38650 -150.11000
F 	F 	0.01210 0.27700 0.40020 130.93300
C 	C 	0.01420 0.25510 0.31800 -36.39400
H 	H 	0.01490 0.22180 0.32700 10.76000
C 	C 	0.51260 0.79220 0.35320 -26.65200
H 	H 	0.51210 0.78300 0.38650 46.08100
F 	F 	0.51210 0.77700 0.40020 -37.48200
C 	C 	0.51420 0.75510 0.31800 13.44400
H 	H 	0.51490 0.72180 0.32700 -2.33400
C 	C 	0.51260 0.29220 0.85320 -62.28800
H 	H 	0.51210 0.28300 0.88650 127.44700
F 	F 	0.51210 0.27700 0.90020 -112.75200
C 	C 	0.51420 0.25510 0.81800 25.06200
H 	H 	0.51490 0.22180 0.82700 -6.72500
C 	C 	0.14680 0.98740 0.79220 -14.04800
H 	H 	0.11350 0.98790 0.78300 28.01200
F 	F 	0.09980 0.98790 0.77700 -23.46100
C 	C 	0.18200 0.98580 0.75510 9.28000
H 	H 	0.17300 0.98510 0.72180 -3.06900
C 	C 	0.14680 0.48740 0.29220 -62.67300
H 	H 	0.11350 0.48790 0.28300 128.26200
F 	F 	0.09980 0.48790 0.27700 -113.47500
C 	C 	0.18200 0.48580 0.25510 25.23600
H 	H 	0.17300 0.48510 0.22180 -6.77500
C 	C 	0.64680 0.98740 0.29220 79.30400
H 	H 	0.61350 0.98790 0.28300 -149.65300
F 	F 	0.59980 0.98790 0.27700 130.35200
C 	C 	0.68200 0.98580 0.25510 -35.59400
H 	H 	0.67300 0.98510 0.22180 10.70100
C 	C 	0.64680 0.48740 0.79220 -26.70200
H 	H 	0.61350 0.48790 0.78300 46.18200
F 	F 	0.59980 0.48790 0.77700 -37.57200
C 	C 	0.68200 0.48580 0.75510 13.47400
H 	H 	0.67300 0.48510 0.72180 -2.34600
C 	C 	0.85320 0.98740 0.20780 -13.80200
H 	H 	0.88650 0.98790 0.21700 27.43200
F 	F 	0.90020 0.98790 0.22300 -22.92800
C 	C 	0.81800 0.98580 0.24490 9.19300
H 	H 	0.82700 0.98510 0.27820 -3.03800
C 	C 	0.85320 0.48740 0.70780 -62.30800
H 	H 	0.88650 0.48790 0.71700 127.48100
F 	F 	0.90020 0.48790 0.72300 -112.78000
C 	C 	0.81800 0.48580 0.74490 25.08200
H 	H 	0.82700 0.48510 0.77820 -6.73100
C 	C 	0.35320 0.98740 0.70780 79.33300
H 	H 	0.38650 0.98790 0.71700 -149.72400
F 	F 	0.40020 0.98790 0.72300 130.41800
C 	C 	0.31800 0.98580 0.74490 -35.60600
H 	H 	0.32700 0.98510 0.77820 10.70800
C 	C 	0.35320 0.48740 0.20780 -26.78500
H 	H 	0.38650 0.48790 0.21700 46.30500
F 	F 	0.40020 0.48790 0.22300 -37.66200
C 	C 	0.31800 0.48580 0.24490 13.53100
H 	H 	0.32700 0.48510 0.27820 -2.35300
C 	C 	0.14680 0.01260 0.20780 -15.78800
H 	H 	0.11350 0.01210 0.21700 27.87200
F 	F 	0.09980 0.01210 0.22300 -23.14200
C 	C 	0.18200 0.01420 0.24490 8.58800
H 	H 	0.17300 0.01490 0.27820 -3.04100
C 	C 	0.14680 0.51260 0.70780 -62.69700
H 	H 	0.11350 0.51210 0.71700 128.29000
F 	F 	0.09980 0.51210 0.72300 -113.49500
C 	C 	0.18200 0.51420 0.74490 25.25000
H 	H 	0.17300 0.51490 0.77820 -6.78200
C 	C 	0.64680 0.01260 0.70780 77.67400
H 	H 	0.61350 0.01210 0.71700 -149.99300
F 	F 	0.59980 0.01210 0.72300 130.83400
C 	C 	0.68200 0.01420 0.74490 -36.35000
H 	H 	0.67300 0.01490 0.77820 10.74200
C 	C 	0.64680 0.51260 0.20780 -26.84000
H 	H 	0.61350 0.51210 0.21700 46.40300
F 	F 	0.59980 0.51210 0.22300 -37.74600
C 	C 	0.68200 0.51420 0.24490 13.55500
H 	H 	0.67300 0.51490 0.27820 -2.36600
C 	C 	0.85320 0.01260 0.79220 -15.26400
H 	H 	0.88650 0.01210 0.78300 26.86800
F 	F 	0.90020 0.01210 0.77700 -22.27500
C 	C 	0.81800 0.01420 0.75510 8.34500
H 	H 	0.82700 0.01490 0.72180 -2.97300
C 	C 	0.85320 0.51260 0.29220 -62.28800
H 	H 	0.88650 0.51210 0.28300 127.44700
F 	F 	0.90020 0.51210 0.27700 -112.75200
C 	C 	0.81800 0.51420 0.25510 25.06200
H 	H 	0.82700 0.51490 0.22180 -6.72500
C 	C 	0.35320 0.01260 0.29220 77.73500
H 	H 	0.38650 0.01210 0.28300 -150.11000
F 	F 	0.40020 0.01210 0.27700 130.93300
C 	C 	0.31800 0.01420 0.25510 -36.39400
H 	H 	0.32700 0.01490 0.22180 10.76000
C 	C 	0.35320 0.51260 0.79220 -26.65200
H 	H 	0.38650 0.51210 0.78300 46.08100
F 	F 	0.40020 0.51210 0.77700 -37.48200
C 	C 	0.31800 0.51420 0.75510 13.44400
H 	H 	0.32700 0.51490 0.72180 -2.33400
C 	C 	0.14680 0.79220 0.01260 -15.64800
H 	H 	0.11350 0.78300 0.01210 27.65400
F 	F 	0.09980 0.77700 0.01210 -22.97000
C 	C 	0.18200 0.75510 0.01420 8.50700
H 	H 	0.17300 0.72180 0.01490 -3.02200
C 	C 	0.14680 0.29220 0.51260 -62.67700
H 	H 	0.11350 0.28300 0.51210 128.26200
F 	F 	0.09980 0.27700 0.51210 -113.47400
C 	C 	0.18200 0.25510 0.51420 25.23400
H 	H 	0.17300 0.22180 0.51490 -6.77500
C 	C 	0.64680 0.79220 0.51260 -26.70600
H 	H 	0.61350 0.78300 0.51210 46.18300
F 	F 	0.59980 0.77700 0.51210 -37.57100
C 	C 	0.68200 0.75510 0.51420 13.47100
H 	H 	0.67300 0.72180 0.51490 -2.34700
C 	C 	0.64680 0.29220 0.01260 77.68700
H 	H 	0.61350 0.28300 0.01210 -150.01400
F 	F 	0.59980 0.27700 0.01210 130.84900
C 	C 	0.68200 0.25510 0.01420 -36.36700
H 	H 	0.67300 0.22180 0.01490 10.74800
C 	C 	0.85320 0.20780 0.01260 -15.39900
H 	H 	0.88650 0.21700 0.01210 27.07500
F 	F 	0.90020 0.22300 0.01210 -22.43800
C 	C 	0.81800 0.24490 0.01420 8.42300
H 	H 	0.82700 0.27820 0.01490 -2.99100
C 	C 	0.85320 0.70780 0.51260 -62.31200
H 	H 	0.88650 0.71700 0.51210 127.48200
F 	F 	0.90020 0.72300 0.51210 -112.77900
C 	C 	0.81800 0.74490 0.51420 25.07900
H 	H 	0.82700 0.77820 0.51490 -6.73100
C 	C 	0.35320 0.20780 0.51260 -26.78900
H 	H 	0.38650 0.21700 0.51210 46.30500
F 	F 	0.40020 0.22300 0.51210 -37.66100
C 	C 	0.31800 0.24490 0.51420 13.52900
H 	H 	0.32700 0.27820 0.51490 -2.35400
C 	C 	0.35320 0.70780 0.01260 77.71900
H 	H 	0.38650 0.71700 0.01210 -150.08400
F 	F 	0.40020 0.72300 0.01210 130.91400
C 	C 	0.31800 0.74490 0.01420 -36.37600
H 	H 	0.32700 0.77820 0.01490 10.75400
C 	C 	0.14680 0.20780 0.98740 -14.17500
H 	H 	0.11350 0.21700 0.98790 28.23200
F 	F 	0.09980 0.22300 0.98790 -23.63800
C 	C 	0.18200 0.24490 0.98580 9.36500
H 	H 	0.17300 0.27820 0.98510 -3.08800
C 	C 	0.14680 0.70780 0.48740 -62.69300
H 	H 	0.11350 0.71700 0.48790 128.28900
F 	F 	0.09980 0.72300 0.48790 -113.49600
C 	C 	0.18200 0.74490 0.48580 25.25200
H 	H 	0.17300 0.77820 0.48510 -6.78100
C 	C 	0.64680 0.20780 0.48740 -26.83700
H 	H 	0.61350 0.21700 0.48790 46.40300
F 	F 	0.59980 0.22300 0.48790 -37.74700
C 	C 	0.68200 0.24490 0.48580 13.55700
H 	H 	0.67300 0.27820 0.48510 -2.36600
C 	C 	0.64680 0.70780 0.98740 79.28400
H 	H 	0.61350 0.71700 0.98790 -149.63400
F 	F 	0.59980 0.72300 0.98790 130.33900
C 	C 	0.68200 0.74490 0.98580 -35.58300
H 	H 	0.67300 0.77820 0.98510 10.69600
C 	C 	0.85320 0.79220 0.98740 -13.68000
H 	H 	0.88650 0.78300 0.98790 27.22200
F 	F 	0.90020 0.77700 0.98790 -22.76100
C 	C 	0.81800 0.75510 0.98580 9.11100
H 	H 	0.82700 0.72180 0.98510 -3.02000
C 	C 	0.85320 0.29220 0.48740 -62.28400
H 	H 	0.88650 0.28300 0.48790 127.44700
F 	F 	0.90020 0.27700 0.48790 -112.75300
C 	C 	0.81800 0.25510 0.48580 25.06500
H 	H 	0.82700 0.22180 0.48510 -6.72400
C 	C 	0.35320 0.79220 0.48740 -26.64900
H 	H 	0.38650 0.78300 0.48790 46.08000
F 	F 	0.40020 0.77700 0.48790 -37.48300
C 	C 	0.31800 0.75510 0.48580 13.44700
H 	H 	0.32700 0.72180 0.48510 -2.33400
C 	C 	0.35320 0.29220 0.98740 79.35600
H 	H 	0.38650 0.28300 0.98790 -149.74800
F 	F 	0.40020 0.27700 0.98790 130.43500
C 	C 	0.31800 0.25510 0.98580 -35.61800
H 	H 	0.32700 0.22180 0.98510 10.71400
C 	C 	0.79220 0.98740 0.85320 -13.68000
H 	H 	0.78300 0.98790 0.88650 27.22200
F 	F 	0.77700 0.98790 0.90020 -22.76100
C 	C 	0.75510 0.98580 0.81800 9.11100
H 	H 	0.72180 0.98510 0.82700 -3.02000
C 	C 	0.79220 0.48740 0.35320 -26.64900
H 	H 	0.78300 0.48790 0.38650 46.08000
F 	F 	0.77700 0.48790 0.40020 -37.48300
C 	C 	0.75510 0.48580 0.31800 13.44700
H 	H 	0.72180 0.48510 0.32700 -2.33400
C 	C 	0.29220 0.98740 0.35320 79.35600
H 	H 	0.28300 0.98790 0.38650 -149.74800
F 	F 	0.27700 0.98790 0.40020 130.43500
C 	C 	0.25510 0.98580 0.31800 -35.61800
H 	H 	0.22180 0.98510 0.32700 10.71400
C 	C 	0.29220 0.48740 0.85320 -62.28400
H 	H 	0.28300 0.48790 0.88650 127.44700
F 	F 	0.27700 0.48790 0.90020 -112.75300
C 	C 	0.25510 0.48580 0.81800 25.06500
H 	H 	0.22180 0.48510 0.82700 -6.72400
C 	C 	0.20780 0.98740 0.14680 -14.17500
H 	H 	0.21700 0.98790 0.11350 28.23200
F 	F 	0.22300 0.98790 0.09980 -23.63800
C 	C 	0.24490 0.98580 0.18200 9.36500
H 	H 	0.27820 0.98510 0.17300 -3.08800
C 	C 	0.20780 0.48740 0.64680 -26.83700
H 	H 	0.21700 0.48790 0.61350 46.40300
F 	F 	0.22300 0.48790 0.59980 -37.74700
C 	C 	0.24490 0.48580 0.68200 13.55700
H 	H 	0.27820 0.48510 0.67300 -2.36600
C 	C 	0.70780 0.98740 0.64680 79.28400
H 	H 	0.71700 0.98790 0.61350 -149.63400
F 	F 	0.72300 0.98790 0.59980 130.33900
C 	C 	0.74490 0.98580 0.68200 -35.58300
H 	H 	0.77820 0.98510 0.67300 10.69600
C 	C 	0.70780 0.48740 0.14680 -62.69300
H 	H 	0.71700 0.48790 0.11350 128.28900
F 	F 	0.72300 0.48790 0.09980 -113.49600
C 	C 	0.74490 0.48580 0.18200 25.25200
H 	H 	0.77820 0.48510 0.17300 -6.78100
C 	C 	0.20780 0.01260 0.85320 -15.39900
H 	H 	0.21700 0.01210 0.88650 27.07500
F 	F 	0.22300 0.01210 0.90020 -22.43800
C 	C 	0.24490 0.01420 0.81800 8.42300
H 	H 	0.27820 0.01490 0.82700 -2.99100
C 	C 	0.20780 0.51260 0.35320 -26.78900
H 	H 	0.21700 0.51210 0.38650 46.30500
F 	F 	0.22300 0.51210 0.40020 -37.66100
C 	C 	0.24490 0.51420 0.31800 13.52900
H 	H 	0.27820 0.51490 0.32700 -2.35400
C 	C 	0.70780 0.01260 0.35320 77.71900
H 	H 	0.71700 0.01210 0.38650 -150.08400
F 	F 	0.72300 0.01210 0.40020 130.91400
C 	C 	0.74490 0.01420 0.31800 -36.37600
H 	H 	0.77820 0.01490 0.32700 10.75400
C 	C 	0.70780 0.51260 0.85320 -62.31200
H 	H 	0.71700 0.51210 0.88650 127.48200
F 	F 	0.72300 0.51210 0.90020 -112.77900
C 	C 	0.74490 0.51420 0.81800 25.07900
H 	H 	0.77820 0.51490 0.82700 -6.73100
C 	C 	0.79220 0.01260 0.14680 -15.64800
H 	H 	0.78300 0.01210 0.11350 27.65400
F 	F 	0.77700 0.01210 0.09980 -22.97000
C 	C 	0.75510 0.01420 0.18200 8.50700
H 	H 	0.72180 0.01490 0.17300 -3.02200
C 	C 	0.79220 0.51260 0.64680 -26.70600
H 	H 	0.78300 0.51210 0.61350 46.18300
F 	F 	0.77700 0.51210 0.59980 -37.57100
C 	C 	0.75510 0.51420 0.68200 13.47100
H 	H 	0.72180 0.51490 0.67300 -2.34700
C 	C 	0.29220 0.01260 0.64680 77.68700
H 	H 	0.28300 0.01210 0.61350 -150.01400
F 	F 	0.27700 0.01210 0.59980 130.84900
C 	C 	0.25510 0.01420 0.68200 -36.36700
H 	H 	0.22180 0.01490 0.67300 10.74800
C 	C 	0.29220 0.51260 0.14680 -62.67700
H 	H 	0.28300 0.51210 0.11350 128.26200
F 	F 	0.27700 0.51210 0.09980 -113.47400
C 	C 	0.25510 0.51420 0.18200 25.23400
H 	H 	0.22180 0.51490 0.17300 -6.77500
C 	C 	0.98740 0.14680 0.20780 -14.17500
H 	H 	0.98790 0.11350 0.21700 28.23200
F 	F 	0.98790 0.09980 0.22300 -23.63800
C 	C 	0.98580 0.18200 0.24490 9.36500
H 	H 	0.98510 0.17300 0.27820 -3.08800
C 	C 	0.98740 0.64680 0.70780 79.28400
H 	H 	0.98790 0.61350 0.71700 -149.63400
F 	F 	0.98790 0.59980 0.72300 130.33900
C 	C 	0.98580 0.68200 0.74490 -35.58300
H 	H 	0.98510 0.67300 0.77820 10.69600
C 	C 	0.48740 0.14680 0.70780 -62.69300
H 	H 	0.48790 0.11350 0.71700 128.28900
F 	F 	0.48790 0.09980 0.72300 -113.49600
C 	C 	0.48580 0.18200 0.74490 25.25200
H 	H 	0.48510 0.17300 0.77820 -6.78100
C 	C 	0.48740 0.64680 0.20780 -26.83700
H 	H 	0.48790 0.61350 0.21700 46.40300
F 	F 	0.48790 0.59980 0.22300 -37.74700
C 	C 	0.48580 0.68200 0.24490 13.55700
H 	H 	0.48510 0.67300 0.27820 -2.36600
C 	C 	0.98740 0.85320 0.79220 -13.68000
H 	H 	0.98790 0.88650 0.78300 27.22200
F 	F 	0.98790 0.90020 0.77700 -22.76100
C 	C 	0.98580 0.81800 0.75510 9.11100
H 	H 	0.98510 0.82700 0.72180 -3.02000
C 	C 	0.98740 0.35320 0.29220 79.35600
H 	H 	0.98790 0.38650 0.28300 -149.74800
F 	F 	0.98790 0.40020 0.27700 130.43500
C 	C 	0.98580 0.31800 0.25510 -35.61800
H 	H 	0.98510 0.32700 0.22180 10.71400
C 	C 	0.48740 0.85320 0.29220 -62.28400
H 	H 	0.48790 0.88650 0.28300 127.44700
F 	F 	0.48790 0.90020 0.27700 -112.75300
C 	C 	0.48580 0.81800 0.25510 25.06500
H 	H 	0.48510 0.82700 0.22180 -6.72400
C 	C 	0.48740 0.35320 0.79220 -26.64900
H 	H 	0.48790 0.38650 0.78300 46.08000
F 	F 	0.48790 0.40020 0.77700 -37.48300
C 	C 	0.48580 0.31800 0.75510 13.44700
H 	H 	0.48510 0.32700 0.72180 -2.33400
C 	C 	0.01260 0.14680 0.79220 -15.64800
H 	H 	0.01210 0.11350 0.78300 27.65400
F 	F 	0.01210 0.09980 0.77700 -22.97000
C 	C 	0.01420 0.18200 0.75510 8.50700
H 	H 	0.01490 0.17300 0.72180 -3.02200
C 	C 	0.01260 0.64680 0.29220 77.68700
H 	H 	0.01210 0.61350 0.28300 -150.01400
F 	F 	0.01210 0.59980 0.27700 130.84900
C 	C 	0.01420 0.68200 0.25510 -36.36700
H 	H 	0.01490 0.67300 0.22180 10.74800
C 	C 	0.51260 0.14680 0.29220 -62.67700
H 	H 	0.51210 0.11350 0.28300 128.26200
F 	F 	0.51210 0.09980 0.27700 -113.47400
C 	C 	0.51420 0.18200 0.25510 25.23400
H 	H 	0.51490 0.17300 0.22180 -6.77500
C 	C 	0.51260 0.64680 0.79220 -26.70600
H 	H 	0.51210 0.61350 0.78300 46.18300
F 	F 	0.51210 0.59980 0.77700 -37.57100
C 	C 	0.51420 0.68200 0.75510 13.47100
H 	H 	0.51490 0.67300 0.72180 -2.34700
C 	C 	0.01260 0.85320 0.20780 -15.39900
H 	H 	0.01210 0.88650 0.21700 27.07500
F 	F 	0.01210 0.90020 0.22300 -22.43800
C 	C 	0.01420 0.81800 0.24490 8.42300
H 	H 	0.01490 0.82700 0.27820 -2.99100
C 	C 	0.01260 0.35320 0.70780 77.71900
H 	H 	0.01210 0.38650 0.71700 -150.08400
F 	F 	0.01210 0.40020 0.72300 130.91400
C 	C 	0.01420 0.31800 0.74490 -36.37600
H 	H 	0.01490 0.32700 0.77820 10.75400
C 	C 	0.51260 0.85320 0.70780 -62.31200
H 	H 	0.51210 0.88650 0.71700 127.48200
F 	F 	0.51210 0.90020 0.72300 -112.77900
C 	C 	0.51420 0.81800 0.74490 25.07900
H 	H 	0.51490 0.82700 0.77820 -6.73100
C 	C 	0.51260 0.35320 0.20780 -26.78900
H 	H 	0.51210 0.38650 0.21700 46.30500
F 	F 	0.51210 0.40020 0.22300 -37.66100
C 	C 	0.51420 0.31800 0.24490 13.52900
H 	H 	0.51490 0.32700 0.27820 -2.35400
Tb	Tb	0.10040 0.00000 -0.00000 2.62100
Tb	Tb	0.10040 0.50000 0.50000 2.43700
Tb	Tb	0.60040 0.00000 0.50000 2.70100
Tb	Tb	0.60040 0.50000 -0.00000 2.70100
Tb	Tb	0.89960 0.00000 -0.00000 2.61900
Tb	Tb	0.89960 0.50000 0.50000 2.43000
Tb	Tb	0.39960 0.00000 0.50000 2.70200
Tb	Tb	0.39960 0.50000 -0.00000 2.70200
Tb	Tb	-0.00000 0.10040 -0.00000 2.62100
Tb	Tb	0.00000 0.60040 0.50000 2.70100
Tb	Tb	0.50000 0.10040 0.50000 2.43700
Tb	Tb	0.50000 0.60040 -0.00000 2.70100
Tb	Tb	-0.00000 0.89960 -0.00000 2.61900
Tb	Tb	0.00000 0.39960 0.50000 2.70200
Tb	Tb	0.50000 0.89960 0.50000 2.43000
Tb	Tb	0.50000 0.39960 -0.00000 2.70200
Tb	Tb	0.00000 0.00000 0.10040 2.62100
Tb	Tb	-0.00000 0.50000 0.60040 2.70100
Tb	Tb	0.50000 0.00000 0.60040 2.70100
Tb	Tb	0.50000 0.50000 0.10040 2.43700
Tb	Tb	-0.00000 -0.00000 0.89960 2.61900
Tb	Tb	0.00000 0.50000 0.39960 2.70200
Tb	Tb	0.50000 0.00000 0.39960 2.70200
Tb	Tb	0.50000 0.50000 0.89960 2.43000
C 	C 	0.12030 0.87970 -0.00000 -6.10800
C 	C 	0.12030 0.37970 0.50000 -18.46400
C 	C 	0.62030 0.87970 0.50000 -18.39600
C 	C 	0.62030 0.37970 -0.00000 33.31800
C 	C 	0.87970 0.12030 -0.00000 -6.10800
C 	C 	0.87970 0.62030 0.50000 -18.39600
C 	C 	0.37970 0.12030 0.50000 -18.46400
C 	C 	0.37970 0.62030 -0.00000 33.31800
C 	C 	0.87970 0.87970 -0.00000 -6.02700
C 	C 	0.87970 0.37970 0.50000 -18.37900
C 	C 	0.37970 0.87970 0.50000 -18.37900
C 	C 	0.37970 0.37970 -0.00000 33.33200
C 	C 	0.12030 0.12030 -0.00000 -6.19200
C 	C 	0.12030 0.62030 0.50000 -18.48000
C 	C 	0.62030 0.12030 0.50000 -18.48000
C 	C 	0.62030 0.62030 -0.00000 33.30400
C 	C 	-0.00000 0.12030 0.87970 -6.10800
C 	C 	-0.00000 0.62030 0.37970 33.31800
C 	C 	0.50000 0.12030 0.37970 -18.46400
C 	C 	0.50000 0.62030 0.87970 -18.39600
C 	C 	-0.00000 0.87970 0.12030 -6.10800
C 	C 	-0.00000 0.37970 0.62030 33.31800
C 	C 	0.50000 0.87970 0.62030 -18.39600
C 	C 	0.50000 0.37970 0.12030 -18.46400
C 	C 	0.00000 0.87970 0.87970 -6.02700
C 	C 	-0.00000 0.37970 0.37970 33.33200
C 	C 	0.50000 0.87970 0.37970 -18.37900
C 	C 	0.50000 0.37970 0.87970 -18.37900
C 	C 	0.00000 0.12030 0.12030 -6.19200
C 	C 	-0.00000 0.62030 0.62030 33.30400
C 	C 	0.50000 0.12030 0.62030 -18.48000
C 	C 	0.50000 0.62030 0.12030 -18.48000
C 	C 	0.87970 0.00000 0.12030 -6.10800
C 	C 	0.87970 0.50000 0.62030 -18.39600
C 	C 	0.37970 0.00000 0.62030 33.31800
C 	C 	0.37970 0.50000 0.12030 -18.46400
C 	C 	0.12030 -0.00000 0.87970 -6.10800
C 	C 	0.12030 0.50000 0.37970 -18.46400
C 	C 	0.62030 -0.00000 0.37970 33.31800
C 	C 	0.62030 0.50000 0.87970 -18.39600
C 	C 	0.87970 -0.00000 0.87970 -6.02700
C 	C 	0.87970 0.50000 0.37970 -18.37900
C 	C 	0.37970 -0.00000 0.37970 33.33200
C 	C 	0.37970 0.50000 0.87970 -18.37900
C 	C 	0.12030 0.00000 0.12030 -6.19200
C 	C 	0.12030 0.50000 0.62030 -18.48000
C 	C 	0.62030 0.00000 0.62030 33.30400
C 	C 	0.62030 0.50000 0.12030 -18.48000
C 	C 	0.15815 0.84185 0.01160 8.27200
C 	C 	0.23075 0.76925 0.01470 -8.42100
C 	C 	0.15815 0.34185 0.51160 25.43800
C 	C 	0.23075 0.26925 0.51470 -6.82700
C 	C 	0.65815 0.84185 0.51160 25.30200
C 	C 	0.73075 0.76925 0.51470 -6.79700
C 	C 	0.65815 0.34185 0.01160 -44.64100
C 	C 	0.73075 0.26925 0.01470 18.64900
C 	C 	0.84185 0.15815 0.01160 8.27200
C 	C 	0.76925 0.23075 0.01470 -8.42100
C 	C 	0.84185 0.65815 0.51160 25.30200
C 	C 	0.76925 0.73075 0.51470 -6.79700
C 	C 	0.34185 0.15815 0.51160 25.43800
C 	C 	0.26925 0.23075 0.51470 -6.82700
C 	C 	0.34185 0.65815 0.01160 -44.64100
C 	C 	0.26925 0.73075 0.01470 18.64900
C 	C 	0.84185 0.84185 0.98840 9.23000
C 	C 	0.76925 0.76925 0.98530 -8.45100
C 	C 	0.84185 0.34185 0.48840 25.28700
C 	C 	0.76925 0.26925 0.48530 -6.76500
C 	C 	0.34185 0.84185 0.48840 25.28700
C 	C 	0.26925 0.76925 0.48530 -6.76500
C 	C 	0.34185 0.34185 0.98840 -43.52800
C 	C 	0.26925 0.26925 0.98530 18.57800
C 	C 	0.15815 0.15815 0.98840 9.54600
C 	C 	0.23075 0.23075 0.98530 -8.56800
C 	C 	0.15815 0.65815 0.48840 25.46300
C 	C 	0.23075 0.73075 0.48530 -6.85200
C 	C 	0.65815 0.15815 0.48840 25.46300
C 	C 	0.73075 0.23075 0.48530 -6.85200
C 	C 	0.65815 0.65815 0.98840 -43.49600
C 	C 	0.73075 0.73075 0.98530 18.52100
C 	C 	0.01160 0.15815 0.84185 8.27200
C 	C 	0.01470 0.23075 0.76925 -8.42100
C 	C 	0.01160 0.65815 0.34185 -44.64100
C 	C 	0.01470 0.73075 0.26925 18.64900
C 	C 	0.51160 0.15815 0.34185 25.43800
C 	C 	0.51470 0.23075 0.26925 -6.82700
C 	C 	0.51160 0.65815 0.84185 25.30200
C 	C 	0.51470 0.73075 0.76925 -6.79700
C 	C 	0.01160 0.84185 0.15815 8.27200
C 	C 	0.01470 0.76925 0.23075 -8.42100
C 	C 	0.01160 0.34185 0.65815 -44.64100
C 	C 	0.01470 0.26925 0.73075 18.64900
C 	C 	0.51160 0.84185 0.65815 25.30200
C 	C 	0.51470 0.76925 0.73075 -6.79700
C 	C 	0.51160 0.34185 0.15815 25.43800
C 	C 	0.51470 0.26925 0.23075 -6.82700
C 	C 	0.98840 0.84185 0.84185 9.23000
C 	C 	0.98530 0.76925 0.76925 -8.45100
C 	C 	0.98840 0.34185 0.34185 -43.52800
C 	C 	0.98530 0.26925 0.26925 18.57800
C 	C 	0.48840 0.84185 0.34185 25.28700
C 	C 	0.48530 0.76925 0.26925 -6.76500
C 	C 	0.48840 0.34185 0.84185 25.28700
C 	C 	0.48530 0.26925 0.76925 -6.76500
C 	C 	0.98840 0.15815 0.15815 9.54600
C 	C 	0.98530 0.23075 0.23075 -8.56800
C 	C 	0.98840 0.65815 0.65815 -43.49600
C 	C 	0.98530 0.73075 0.73075 18.52100
C 	C 	0.48840 0.15815 0.65815 25.46300
C 	C 	0.48530 0.23075 0.73075 -6.85200
C 	C 	0.48840 0.65815 0.15815 25.46300
C 	C 	0.48530 0.73075 0.23075 -6.85200
C 	C 	0.84185 0.01160 0.15815 8.27200
C 	C 	0.76925 0.01470 0.23075 -8.42100
C 	C 	0.84185 0.51160 0.65815 25.30200
C 	C 	0.76925 0.51470 0.73075 -6.79700
C 	C 	0.34185 0.01160 0.65815 -44.64100
C 	C 	0.26925 0.01470 0.73075 18.64900
C 	C 	0.34185 0.51160 0.15815 25.43800
C 	C 	0.26925 0.51470 0.23075 -6.82700
C 	C 	0.15815 0.01160 0.84185 8.27200
C 	C 	0.23075 0.01470 0.76925 -8.42100
C 	C 	0.15815 0.51160 0.34185 25.43800
C 	C 	0.23075 0.51470 0.26925 -6.82700
C 	C 	0.65815 0.01160 0.34185 -44.64100
C 	C 	0.73075 0.01470 0.26925 18.64900
C 	C 	0.65815 0.51160 0.84185 25.30200
C 	C 	0.73075 0.51470 0.76925 -6.79700
C 	C 	0.84185 0.98840 0.84185 9.23000
C 	C 	0.76925 0.98530 0.76925 -8.45100
C 	C 	0.84185 0.48840 0.34185 25.28700
C 	C 	0.76925 0.48530 0.26925 -6.76500
C 	C 	0.34185 0.98840 0.34185 -43.52800
C 	C 	0.26925 0.98530 0.26925 18.57800
C 	C 	0.34185 0.48840 0.84185 25.28700
C 	C 	0.26925 0.48530 0.76925 -6.76500
C 	C 	0.15815 0.98840 0.15815 9.54600
C 	C 	0.23075 0.98530 0.23075 -8.56800
C 	C 	0.15815 0.48840 0.65815 25.46300
C 	C 	0.23075 0.48530 0.73075 -6.85200
C 	C 	0.65815 0.98840 0.65815 -43.49600
C 	C 	0.73075 0.98530 0.73075 18.52100
C 	C 	0.65815 0.48840 0.15815 25.46300
C 	C 	0.73075 0.48530 0.23075 -6.85200
C 	C 	0.84185 0.15815 0.98840 9.38600
C 	C 	0.76925 0.23075 0.98530 -8.50900
C 	C 	0.84185 0.65815 0.48840 25.30800
C 	C 	0.76925 0.73075 0.48530 -6.79400
C 	C 	0.34185 0.15815 0.48840 25.44400
C 	C 	0.26925 0.23075 0.48530 -6.82400
C 	C 	0.34185 0.65815 0.98840 -43.51100
C 	C 	0.26925 0.73075 0.98530 18.54900
C 	C 	0.15815 0.84185 0.98840 9.38600
C 	C 	0.23075 0.76925 0.98530 -8.50900
C 	C 	0.15815 0.34185 0.48840 25.44400
C 	C 	0.23075 0.26925 0.48530 -6.82400
C 	C 	0.65815 0.84185 0.48840 25.30800
C 	C 	0.73075 0.76925 0.48530 -6.79400
C 	C 	0.65815 0.34185 0.98840 -43.51100
C 	C 	0.73075 0.26925 0.98530 18.54900
C 	C 	0.84185 0.84185 0.01160 8.12600
C 	C 	0.76925 0.76925 0.01470 -8.36700
C 	C 	0.84185 0.34185 0.51160 25.28100
C 	C 	0.76925 0.26925 0.51470 -6.76900
C 	C 	0.34185 0.84185 0.51160 25.28100
C 	C 	0.26925 0.76925 0.51470 -6.76900
C 	C 	0.34185 0.34185 0.01160 -44.66100
C 	C 	0.26925 0.26925 0.01470 18.67500
C 	C 	0.15815 0.15815 0.01160 8.42100
C 	C 	0.23075 0.23075 0.01470 -8.47700
C 	C 	0.15815 0.65815 0.51160 25.45700
C 	C 	0.23075 0.73075 0.51470 -6.85600
C 	C 	0.65815 0.15815 0.51160 25.45700
C 	C 	0.73075 0.23075 0.51470 -6.85600
C 	C 	0.65815 0.65815 0.01160 -44.62300
C 	C 	0.73075 0.73075 0.01470 18.62300
C 	C 	0.15815 0.01160 0.15815 8.42100
C 	C 	0.23075 0.01470 0.23075 -8.47700
C 	C 	0.15815 0.51160 0.65815 25.45700
C 	C 	0.23075 0.51470 0.73075 -6.85600
C 	C 	0.65815 0.01160 0.65815 -44.62300
C 	C 	0.73075 0.01470 0.73075 18.62300
C 	C 	0.65815 0.51160 0.15815 25.45700
C 	C 	0.73075 0.51470 0.23075 -6.85600
C 	C 	0.84185 0.01160 0.84185 8.12600
C 	C 	0.76925 0.01470 0.76925 -8.36700
C 	C 	0.84185 0.51160 0.34185 25.28100
C 	C 	0.76925 0.51470 0.26925 -6.76900
C 	C 	0.34185 0.01160 0.34185 -44.66100
C 	C 	0.26925 0.01470 0.26925 18.67500
C 	C 	0.34185 0.51160 0.84185 25.28100
C 	C 	0.26925 0.51470 0.76925 -6.76900
C 	C 	0.84185 0.98840 0.15815 9.38600
C 	C 	0.76925 0.98530 0.23075 -8.50900
C 	C 	0.84185 0.48840 0.65815 25.30800
C 	C 	0.76925 0.48530 0.73075 -6.79400
C 	C 	0.34185 0.98840 0.65815 -43.51100
C 	C 	0.26925 0.98530 0.73075 18.54900
C 	C 	0.34185 0.48840 0.15815 25.44400
C 	C 	0.26925 0.48530 0.23075 -6.82400
C 	C 	0.15815 0.98840 0.84185 9.38600
C 	C 	0.23075 0.98530 0.76925 -8.50900
C 	C 	0.15815 0.48840 0.34185 25.44400
C 	C 	0.23075 0.48530 0.26925 -6.82400
C 	C 	0.65815 0.98840 0.34185 -43.51100
C 	C 	0.73075 0.98530 0.26925 18.54900
C 	C 	0.65815 0.48840 0.84185 25.30800
C 	C 	0.73075 0.48530 0.76925 -6.79400
C 	C 	0.01160 0.84185 0.84185 8.12600
C 	C 	0.01470 0.76925 0.76925 -8.36700
C 	C 	0.01160 0.34185 0.34185 -44.66100
C 	C 	0.01470 0.26925 0.26925 18.67500
C 	C 	0.51160 0.84185 0.34185 25.28100
C 	C 	0.51470 0.76925 0.26925 -6.76900
C 	C 	0.51160 0.34185 0.84185 25.28100
C 	C 	0.51470 0.26925 0.76925 -6.76900
C 	C 	0.01160 0.15815 0.15815 8.42100
C 	C 	0.01470 0.23075 0.23075 -8.47700
C 	C 	0.01160 0.65815 0.65815 -44.62300
C 	C 	0.01470 0.73075 0.73075 18.62300
C 	C 	0.51160 0.15815 0.65815 25.45700
C 	C 	0.51470 0.23075 0.73075 -6.85600
C 	C 	0.51160 0.65815 0.15815 25.45700
C 	C 	0.51470 0.73075 0.23075 -6.85600
C 	C 	0.98840 0.84185 0.15815 9.38600
C 	C 	0.98530 0.76925 0.23075 -8.50900
C 	C 	0.98840 0.34185 0.65815 -43.51100
C 	C 	0.98530 0.26925 0.73075 18.54900
C 	C 	0.48840 0.84185 0.65815 25.30800
C 	C 	0.48530 0.76925 0.73075 -6.79400
C 	C 	0.48840 0.34185 0.15815 25.44400
C 	C 	0.48530 0.26925 0.23075 -6.82400
C 	C 	0.98840 0.15815 0.84185 9.38600
C 	C 	0.98530 0.23075 0.76925 -8.50900
C 	C 	0.98840 0.65815 0.34185 -43.51100
C 	C 	0.98530 0.73075 0.26925 18.54900
C 	C 	0.48840 0.15815 0.34185 25.44400
C 	C 	0.48530 0.23075 0.26925 -6.82400
C 	C 	0.48840 0.65815 0.84185 25.30800
C 	C 	0.48530 0.73075 0.76925 -6.79400
O 	O 	0.04628 0.04628 0.04628 -0.69100
O 	O 	0.04628 0.54628 0.54628 -0.79100
O 	O 	0.54628 0.04628 0.54628 -0.79100
O 	O 	0.54628 0.54628 0.04628 -0.79100
O 	O 	0.95372 0.95372 0.04628 -0.45500
O 	O 	0.95372 0.45372 0.54628 -0.67000
O 	O 	0.45372 0.95372 0.54628 -0.67000
O 	O 	0.45372 0.45372 0.04628 -0.79100
O 	O 	0.95372 0.04628 0.95372 -0.45500
O 	O 	0.95372 0.54628 0.45372 -0.67000
O 	O 	0.45372 0.04628 0.45372 -0.79100
O 	O 	0.45372 0.54628 0.95372 -0.67000
O 	O 	0.04628 0.95372 0.95372 -0.45500
O 	O 	0.04628 0.45372 0.45372 -0.79100
O 	O 	0.54628 0.95372 0.45372 -0.67000
O 	O 	0.54628 0.45372 0.95372 -0.67000
O 	O 	0.04628 0.04628 0.95372 -0.57200
O 	O 	0.04628 0.54628 0.45372 -0.79100
O 	O 	0.54628 0.04628 0.45372 -0.79100
O 	O 	0.54628 0.54628 0.95372 -0.67000
O 	O 	0.95372 0.95372 0.95372 -0.34000
O 	O 	0.95372 0.45372 0.45372 -0.67000
O 	O 	0.45372 0.95372 0.45372 -0.67000
O 	O 	0.45372 0.45372 0.95372 -0.67000
O 	O 	0.04628 0.95372 0.04628 -0.57200
O 	O 	0.04628 0.45372 0.54628 -0.79100
O 	O 	0.54628 0.95372 0.54628 -0.67000
O 	O 	0.54628 0.45372 0.04628 -0.79100
O 	O 	0.95372 0.04628 0.04628 -0.57200
O 	O 	0.95372 0.54628 0.54628 -0.67000
O 	O 	0.45372 0.04628 0.54628 -0.79100
O 	O 	0.45372 0.54628 0.04628 -0.79100
O 	O 	0.13637 0.92325 -0.00000 2.79600
O 	O 	0.13637 0.42325 0.50000 6.77600
O 	O 	0.63637 0.92325 0.50000 5.69300
O 	O 	0.63637 0.42325 -0.00000 -10.90900
O 	O 	0.86363 0.07675 -0.00000 2.74500
O 	O 	0.86363 0.57675 0.50000 6.74200
O 	O 	0.36363 0.07675 0.50000 5.67700
O 	O 	0.36363 0.57675 -0.00000 -10.90800
O 	O 	0.86363 0.92325 -0.00000 2.75700
O 	O 	0.86363 0.42325 0.50000 6.73600
O 	O 	0.36363 0.92325 0.50000 5.68800
O 	O 	0.36363 0.42325 -0.00000 -10.91400
O 	O 	0.13637 0.07675 -0.00000 2.78500
O 	O 	0.13637 0.57675 0.50000 6.78200
O 	O 	0.63637 0.07675 0.50000 5.68200
O 	O 	0.63637 0.57675 -0.00000 -10.90400
O 	O 	-0.00000 0.13637 0.92325 2.79600
O 	O 	-0.00000 0.63637 0.42325 -10.90900
O 	O 	0.50000 0.13637 0.42325 6.77600
O 	O 	0.50000 0.63637 0.92325 5.69300
O 	O 	-0.00000 0.86363 0.07675 2.74500
O 	O 	-0.00000 0.36363 0.57675 -10.90800
O 	O 	0.50000 0.86363 0.57675 6.74200
O 	O 	0.50000 0.36363 0.07675 5.67700
O 	O 	-0.00000 0.86363 0.92325 2.75700
O 	O 	-0.00000 0.36363 0.42325 -10.91400
O 	O 	0.50000 0.86363 0.42325 6.73600
O 	O 	0.50000 0.36363 0.92325 5.68800
O 	O 	-0.00000 0.13637 0.07675 2.78500
O 	O 	0.00000 0.63637 0.57675 -10.90400
O 	O 	0.50000 0.13637 0.57675 6.78200
O 	O 	0.50000 0.63637 0.07675 5.68200
O 	O 	0.92325 0.00000 0.13637 2.79600
O 	O 	0.92325 0.50000 0.63637 5.69300
O 	O 	0.42325 -0.00000 0.63637 -10.90900
O 	O 	0.42325 0.50000 0.13637 6.77600
O 	O 	0.07675 -0.00000 0.86363 2.74500
O 	O 	0.07675 0.50000 0.36363 5.67700
O 	O 	0.57675 0.00000 0.36363 -10.90800
O 	O 	0.57675 0.50000 0.86363 6.74200
O 	O 	0.92325 -0.00000 0.86363 2.75700
O 	O 	0.92325 0.50000 0.36363 5.68800
O 	O 	0.42325 0.00000 0.36363 -10.91400
O 	O 	0.42325 0.50000 0.86363 6.73600
O 	O 	0.07675 0.00000 0.13637 2.78500
O 	O 	0.07675 0.50000 0.63637 5.68200
O 	O 	0.57675 -0.00000 0.63637 -10.90400
O 	O 	0.57675 0.50000 0.13637 6.78200
O 	O 	0.92325 0.13637 -0.00000 2.79600
O 	O 	0.92325 0.63637 0.50000 5.69300
O 	O 	0.42325 0.13637 0.50000 6.77600
O 	O 	0.42325 0.63637 -0.00000 -10.90900
O 	O 	0.07675 0.86363 -0.00000 2.74500
O 	O 	0.07675 0.36363 0.50000 5.67700
O 	O 	0.57675 0.86363 0.50000 6.74200
O 	O 	0.57675 0.36363 -0.00000 -10.90800
O 	O 	0.92325 0.86363 -0.00000 2.75700
O 	O 	0.92325 0.36363 0.50000 5.68800
O 	O 	0.42325 0.86363 0.50000 6.73600
O 	O 	0.42325 0.36363 -0.00000 -10.91400
O 	O 	0.07675 0.13637 -0.00000 2.78500
O 	O 	0.07675 0.63637 0.50000 5.68200
O 	O 	0.57675 0.13637 0.50000 6.78200
O 	O 	0.57675 0.63637 -0.00000 -10.90400
O 	O 	0.13637 -0.00000 0.07675 2.78500
O 	O 	0.13637 0.50000 0.57675 6.78200
O 	O 	0.63637 -0.00000 0.57675 -10.90400
O 	O 	0.63637 0.50000 0.07675 5.68200
O 	O 	0.86363 -0.00000 0.92325 2.75700
O 	O 	0.86363 0.50000 0.42325 6.73600
O 	O 	0.36363 0.00000 0.42325 -10.91400
O 	O 	0.36363 0.50000 0.92325 5.68800
O 	O 	0.86363 -0.00000 0.07675 2.74500
O 	O 	0.86363 0.50000 0.57675 6.74200
O 	O 	0.36363 -0.00000 0.57675 -10.90800
O 	O 	0.36363 0.50000 0.07675 5.67700
O 	O 	0.13637 -0.00000 0.92325 2.79600
O 	O 	0.13637 0.50000 0.42325 6.77600
O 	O 	0.63637 0.00000 0.42325 -10.90900
O 	O 	0.63637 0.50000 0.92325 5.69300
O 	O 	-0.00000 0.92325 0.86363 2.75700
O 	O 	-0.00000 0.42325 0.36363 -10.91400
O 	O 	0.50000 0.92325 0.36363 5.68800
O 	O 	0.50000 0.42325 0.86363 6.73600
O 	O 	-0.00000 0.07675 0.13637 2.78500
O 	O 	0.00000 0.57675 0.63637 -10.90400
O 	O 	0.50000 0.07675 0.63637 5.68200
O 	O 	0.50000 0.57675 0.13637 6.78200
O 	O 	-0.00000 0.92325 0.13637 2.79600
O 	O 	-0.00000 0.42325 0.63637 -10.90900
O 	O 	0.50000 0.92325 0.63637 5.69300
O 	O 	0.50000 0.42325 0.13637 6.77600
O 	O 	-0.00000 0.07675 0.86363 2.74500
O 	O 	-0.00000 0.57675 0.36363 -10.90800
O 	O 	0.50000 0.07675 0.36363 5.67700
O 	O 	0.50000 0.57675 0.86363 6.74200
