data_crystal

_cell_length_a 15.61390
_cell_length_b 18.34390
_cell_length_c 34.33600
_cell_angle_alpha 90.00000
_cell_angle_beta  90.00000
_cell_angle_gamma 90.00000

_symmetry_space_group_name_	'P 1'
_symmetry_space_group_name_H-M	'P 1'

loop_
_symmetry_equiv_pos_as_xyz
  x,y,z

loop_
_atom_site_label
_atom_site_type_symbol
_atom_site_fract_x
_atom_site_fract_y
_atom_site_fract_z
_atom_site_charge
Co	Co	0.50379 0.61040 0.48158 1.12600
N 	N 	0.67600 0.55680 0.50860 -0.19100
O 	O 	0.83230 0.58920 0.52589 -0.36000
C 	C 	0.72010 0.50550 0.52759 -0.04000
C 	C 	0.80930 0.52720 0.53810 0.30700
O 	O 	0.74070 0.34830 0.56220 -0.38400
O 	O 	0.60020 0.34160 0.55570 -0.36500
N 	N 	0.58800 0.46920 0.52115 -0.18900
O 	O 	0.85430 0.48730 0.55976 -0.38400
C 	C 	0.67000 0.37380 0.55281 0.34000
N 	N 	0.59570 0.53480 0.50529 -0.16900
C 	C 	0.66450 0.44880 0.53534 -0.04500
N 	N 	0.83100 0.38020 0.68250 -0.22400
C 	C 	0.80930 0.38340 0.64594 0.12000
H 	H 	0.75310 0.39090 0.63780 -0.00700
Co	Co	0.50379 0.11040 0.98158 1.12700
N 	N 	0.67600 0.05680 0.00860 -0.19000
O 	O 	0.83230 0.08920 0.02589 -0.36000
C 	C 	0.72010 0.00550 0.02759 -0.03900
C 	C 	0.80930 0.02720 0.03810 0.30900
O 	O 	0.74070 0.84830 0.06220 -0.38400
O 	O 	0.60020 0.84160 0.05570 -0.36500
N 	N 	0.58800 0.96920 0.02115 -0.19000
O 	O 	0.85430 0.98730 0.05976 -0.38700
C 	C 	0.67000 0.87380 0.05281 0.34000
N 	N 	0.59570 0.03480 0.00529 -0.16900
C 	C 	0.66450 0.94880 0.03534 -0.04700
N 	N 	0.83100 0.88020 0.18250 -0.22500
C 	C 	0.80930 0.88340 0.14594 0.12000
H 	H 	0.75310 0.89090 0.13780 -0.00800
Co	Co	0.00379 0.61040 0.98158 1.12700
N 	N 	0.17600 0.55680 0.00860 -0.18900
O 	O 	0.33230 0.58920 0.02589 -0.35900
C 	C 	0.22010 0.50550 0.02759 -0.03900
C 	C 	0.30930 0.52720 0.03810 0.30700
O 	O 	0.24070 0.34830 0.06220 -0.38400
O 	O 	0.10020 0.34160 0.05570 -0.36500
N 	N 	0.08800 0.46920 0.02115 -0.18900
O 	O 	0.35430 0.48730 0.05976 -0.38400
C 	C 	0.17000 0.37380 0.05281 0.34000
N 	N 	0.09570 0.53480 0.00529 -0.16900
C 	C 	0.16450 0.44880 0.03534 -0.04500
N 	N 	0.33100 0.38020 0.18250 -0.22400
C 	C 	0.30930 0.38340 0.14594 0.12000
H 	H 	0.25310 0.39090 0.13780 -0.00700
Co	Co	0.00379 0.11040 0.48158 1.12700
N 	N 	0.17600 0.05680 0.50860 -0.18900
O 	O 	0.33230 0.08920 0.52589 -0.35900
C 	C 	0.22010 0.00550 0.52759 -0.04200
C 	C 	0.30930 0.02720 0.53810 0.30600
O 	O 	0.24070 0.84830 0.56220 -0.38300
O 	O 	0.10020 0.84160 0.55570 -0.36400
N 	N 	0.08800 0.96920 0.52115 -0.18800
O 	O 	0.35430 0.98730 0.55976 -0.38400
C 	C 	0.17000 0.87380 0.55281 0.33900
N 	N 	0.09570 0.03480 0.50529 -0.17100
C 	C 	0.16450 0.94880 0.53534 -0.04300
N 	N 	0.33100 0.88020 0.68250 -0.22400
C 	C 	0.30930 0.88340 0.64594 0.12000
H 	H 	0.25310 0.89090 0.63780 -0.00700
Co	Co	0.24621 0.13960 0.48158 1.12700
N 	N 	0.07400 0.19320 0.50860 -0.19000
O 	O 	0.91770 0.16080 0.52589 -0.35900
C 	C 	0.02990 0.24450 0.52759 -0.04100
C 	C 	0.94070 0.22280 0.53810 0.30800
O 	O 	0.00930 0.40170 0.56220 -0.38400
O 	O 	0.14980 0.40840 0.55570 -0.36500
N 	N 	0.16200 0.28080 0.52115 -0.18900
O 	O 	0.89570 0.26270 0.55976 -0.38400
C 	C 	0.08000 0.37620 0.55281 0.34000
N 	N 	0.15430 0.21520 0.50529 -0.16900
C 	C 	0.08550 0.30120 0.53534 -0.04500
N 	N 	0.91900 0.36980 0.68250 -0.22400
C 	C 	0.94070 0.36660 0.64594 0.12000
H 	H 	0.99690 0.35910 0.63780 -0.00700
Co	Co	0.24621 0.63960 0.98158 1.12700
N 	N 	0.07400 0.69320 0.00860 -0.19000
O 	O 	0.91770 0.66080 0.02589 -0.35900
C 	C 	0.02990 0.74450 0.02759 -0.03700
C 	C 	0.94070 0.72280 0.03810 0.30400
O 	O 	0.00930 0.90170 0.06220 -0.38200
O 	O 	0.14980 0.90840 0.05570 -0.36500
N 	N 	0.16200 0.78080 0.02115 -0.18900
O 	O 	0.89570 0.76270 0.05976 -0.38400
C 	C 	0.08000 0.87620 0.05281 0.34000
N 	N 	0.15430 0.71520 0.00529 -0.16900
C 	C 	0.08550 0.80120 0.03534 -0.04500
N 	N 	0.91900 0.86980 0.18250 -0.22500
C 	C 	0.94070 0.86660 0.14594 0.12000
H 	H 	0.99690 0.85910 0.13780 -0.00800
Co	Co	0.74621 0.13960 0.98158 1.12700
N 	N 	0.57400 0.19320 0.00860 -0.19000
O 	O 	0.41770 0.16080 0.02589 -0.35900
C 	C 	0.52990 0.24450 0.02759 -0.03900
C 	C 	0.44070 0.22280 0.03810 0.30700
O 	O 	0.50930 0.40170 0.06220 -0.38400
O 	O 	0.64980 0.40840 0.05570 -0.36500
N 	N 	0.66200 0.28080 0.02115 -0.18900
O 	O 	0.39570 0.26270 0.05976 -0.38400
C 	C 	0.58000 0.37620 0.05281 0.34000
N 	N 	0.65430 0.21520 0.00529 -0.16900
C 	C 	0.58550 0.30120 0.03534 -0.04500
N 	N 	0.41900 0.36980 0.18250 -0.22400
C 	C 	0.44070 0.36660 0.14594 0.12000
H 	H 	0.49690 0.35910 0.13780 -0.00700
Co	Co	0.74621 0.63960 0.48158 1.12700
N 	N 	0.57400 0.69320 0.50860 -0.19000
O 	O 	0.41770 0.66080 0.52589 -0.35900
C 	C 	0.52990 0.74450 0.52759 -0.03900
C 	C 	0.44070 0.72280 0.53810 0.30700
O 	O 	0.50930 0.90170 0.56220 -0.38400
O 	O 	0.64980 0.90840 0.55570 -0.36500
N 	N 	0.66200 0.78080 0.52115 -0.18900
O 	O 	0.39570 0.76270 0.55976 -0.38400
C 	C 	0.58000 0.87620 0.55281 0.34000
N 	N 	0.65430 0.71520 0.50529 -0.16900
C 	C 	0.58550 0.80120 0.53534 -0.04500
N 	N 	0.41900 0.86980 0.68250 -0.22400
C 	C 	0.44070 0.86660 0.64594 0.12000
H 	H 	0.49690 0.85910 0.63780 -0.00700
Co	Co	0.24621 0.61040 0.26842 1.12700
N 	N 	0.07400 0.55680 0.24140 -0.19000
O 	O 	0.91770 0.58920 0.22411 -0.35900
C 	C 	0.02990 0.50550 0.22241 -0.03800
C 	C 	0.94070 0.52720 0.21190 0.30600
O 	O 	0.00930 0.34830 0.18780 -0.38400
O 	O 	0.14980 0.34160 0.19430 -0.36500
N 	N 	0.16200 0.46920 0.22885 -0.18900
O 	O 	0.89570 0.48730 0.19024 -0.38400
C 	C 	0.08000 0.37380 0.19719 0.34000
N 	N 	0.15430 0.53480 0.24471 -0.16900
C 	C 	0.08550 0.44880 0.21466 -0.04500
N 	N 	0.91900 0.38020 0.06750 -0.22400
C 	C 	0.94070 0.38340 0.10406 0.12000
H 	H 	0.99690 0.39090 0.11220 -0.00700
Co	Co	0.24621 0.11040 0.76842 1.12700
N 	N 	0.07400 0.05680 0.74140 -0.18900
O 	O 	0.91770 0.08920 0.72411 -0.36000
C 	C 	0.02990 0.00550 0.72241 -0.04700
C 	C 	0.94070 0.02720 0.71190 0.31400
O 	O 	0.00930 0.84830 0.68780 -0.38200
O 	O 	0.14980 0.84160 0.69430 -0.36400
N 	N 	0.16200 0.96920 0.72885 -0.18900
O 	O 	0.89570 0.98730 0.69024 -0.38800
C 	C 	0.08000 0.87380 0.69719 0.33800
N 	N 	0.15430 0.03480 0.74471 -0.17000
C 	C 	0.08550 0.94880 0.71466 -0.04000
N 	N 	0.91900 0.88020 0.56750 -0.22500
C 	C 	0.94070 0.88340 0.60406 0.12000
H 	H 	0.99690 0.89090 0.61220 -0.00800
Co	Co	0.74621 0.61040 0.76842 1.12700
N 	N 	0.57400 0.55680 0.74140 -0.19000
O 	O 	0.41770 0.58920 0.72411 -0.35900
C 	C 	0.52990 0.50550 0.72241 -0.03900
C 	C 	0.44070 0.52720 0.71190 0.30700
O 	O 	0.50930 0.34830 0.68780 -0.38400
O 	O 	0.64980 0.34160 0.69430 -0.36500
N 	N 	0.66200 0.46920 0.72885 -0.18900
O 	O 	0.39570 0.48730 0.69024 -0.38400
C 	C 	0.58000 0.37380 0.69719 0.34000
N 	N 	0.65430 0.53480 0.74471 -0.16900
C 	C 	0.58550 0.44880 0.71466 -0.04500
N 	N 	0.41900 0.38020 0.56750 -0.22400
C 	C 	0.44070 0.38340 0.60406 0.12000
H 	H 	0.49690 0.39090 0.61220 -0.00700
Co	Co	0.74621 0.11040 0.26842 1.12700
N 	N 	0.57400 0.05680 0.24140 -0.19000
O 	O 	0.41770 0.08920 0.22411 -0.35900
C 	C 	0.52990 0.00550 0.22241 -0.03900
C 	C 	0.44070 0.02720 0.21190 0.30600
O 	O 	0.50930 0.84830 0.18780 -0.38400
O 	O 	0.64980 0.84160 0.19430 -0.36500
N 	N 	0.66200 0.96920 0.22885 -0.19000
O 	O 	0.39570 0.98730 0.19024 -0.38400
C 	C 	0.58000 0.87380 0.19719 0.34000
N 	N 	0.65430 0.03480 0.24471 -0.16900
C 	C 	0.58550 0.94880 0.21466 -0.04600
N 	N 	0.41900 0.88020 0.06750 -0.22400
C 	C 	0.44070 0.88340 0.10406 0.12000
H 	H 	0.49690 0.89090 0.11220 -0.00800
Co	Co	0.50379 0.13960 0.26842 1.12700
N 	N 	0.67600 0.19320 0.24140 -0.19000
O 	O 	0.83230 0.16080 0.22411 -0.35900
C 	C 	0.72010 0.24450 0.22241 -0.03900
C 	C 	0.80930 0.22280 0.21190 0.30700
O 	O 	0.74070 0.40170 0.18780 -0.38400
O 	O 	0.60020 0.40840 0.19430 -0.36500
N 	N 	0.58800 0.28080 0.22885 -0.18900
O 	O 	0.85430 0.26270 0.19024 -0.38400
C 	C 	0.67000 0.37620 0.19719 0.34000
N 	N 	0.59570 0.21520 0.24471 -0.16900
C 	C 	0.66450 0.30120 0.21466 -0.04500
N 	N 	0.83100 0.36980 0.06750 -0.22500
C 	C 	0.80930 0.36660 0.10406 0.12000
H 	H 	0.75310 0.35910 0.11220 -0.00700
Co	Co	0.50379 0.63960 0.76842 1.12700
N 	N 	0.67600 0.69320 0.74140 -0.19000
O 	O 	0.83230 0.66080 0.72411 -0.35900
C 	C 	0.72010 0.74450 0.72241 -0.04000
C 	C 	0.80930 0.72280 0.71190 0.30700
O 	O 	0.74070 0.90170 0.68780 -0.38400
O 	O 	0.60020 0.90840 0.69430 -0.36500
N 	N 	0.58800 0.78080 0.72885 -0.18900
O 	O 	0.85430 0.76270 0.69024 -0.38500
C 	C 	0.67000 0.87620 0.69719 0.34000
N 	N 	0.59570 0.71520 0.74471 -0.16900
C 	C 	0.66450 0.80120 0.71466 -0.04500
N 	N 	0.83100 0.86980 0.56750 -0.22500
C 	C 	0.80930 0.86660 0.60406 0.12000
H 	H 	0.75310 0.85910 0.61220 -0.00700
Co	Co	0.00379 0.13960 0.76842 1.12600
N 	N 	0.17600 0.19320 0.74140 -0.19000
O 	O 	0.33230 0.16080 0.72411 -0.35900
C 	C 	0.22010 0.24450 0.72241 -0.04000
C 	C 	0.30930 0.22280 0.71190 0.30700
O 	O 	0.24070 0.40170 0.68780 -0.38400
O 	O 	0.10020 0.40840 0.69430 -0.36500
N 	N 	0.08800 0.28080 0.72885 -0.19000
O 	O 	0.35430 0.26270 0.69024 -0.38400
C 	C 	0.17000 0.37620 0.69719 0.34000
N 	N 	0.09570 0.21520 0.74471 -0.17000
C 	C 	0.16450 0.30120 0.71466 -0.04500
N 	N 	0.33100 0.36980 0.56750 -0.22400
C 	C 	0.30930 0.36660 0.60406 0.12000
H 	H 	0.25310 0.35910 0.61220 -0.00700
Co	Co	0.00379 0.63960 0.26842 1.12800
N 	N 	0.17600 0.69320 0.24140 -0.19000
O 	O 	0.33230 0.66080 0.22411 -0.35900
C 	C 	0.22010 0.74450 0.22241 -0.03900
C 	C 	0.30930 0.72280 0.21190 0.30700
O 	O 	0.24070 0.90170 0.18780 -0.38400
O 	O 	0.10020 0.90840 0.19430 -0.36400
N 	N 	0.08800 0.78080 0.22885 -0.18900
O 	O 	0.35430 0.76270 0.19024 -0.38400
C 	C 	0.17000 0.87620 0.19719 0.34000
N 	N 	0.09570 0.71520 0.24471 -0.16900
C 	C 	0.16450 0.80120 0.21466 -0.04500
N 	N 	0.33100 0.86980 0.06750 -0.22400
C 	C 	0.30930 0.86660 0.10406 0.12000
H 	H 	0.25310 0.85910 0.11220 -0.00700
Co	Co	0.49621 0.38960 0.51842 1.12700
N 	N 	0.32400 0.44320 0.49140 -0.19000
O 	O 	0.16770 0.41080 0.47411 -0.35900
C 	C 	0.27990 0.49450 0.47241 -0.03900
C 	C 	0.19070 0.47280 0.46190 0.30700
O 	O 	0.25930 0.65170 0.43780 -0.38400
O 	O 	0.39980 0.65840 0.44430 -0.36500
N 	N 	0.41200 0.53080 0.47885 -0.18900
O 	O 	0.14570 0.51270 0.44024 -0.38400
C 	C 	0.33000 0.62620 0.44719 0.34000
N 	N 	0.40430 0.46520 0.49471 -0.16900
C 	C 	0.33550 0.55120 0.46466 -0.04500
N 	N 	0.16900 0.61980 0.31750 -0.22400
C 	C 	0.19070 0.61660 0.35406 0.12000
H 	H 	0.24690 0.60910 0.36220 -0.00700
Co	Co	0.49621 0.88960 0.01842 1.12700
N 	N 	0.32400 0.94320 0.99140 -0.19000
O 	O 	0.16770 0.91080 0.97411 -0.36000
C 	C 	0.27990 0.99450 0.97241 -0.03900
C 	C 	0.19070 0.97280 0.96190 0.30900
O 	O 	0.25930 0.15170 0.93780 -0.38400
O 	O 	0.39980 0.15840 0.94430 -0.36500
N 	N 	0.41200 0.03080 0.97885 -0.19000
O 	O 	0.14570 0.01270 0.94024 -0.38700
C 	C 	0.33000 0.12620 0.94719 0.34000
N 	N 	0.40430 0.96520 0.99471 -0.16900
C 	C 	0.33550 0.05120 0.96466 -0.04700
N 	N 	0.16900 0.11980 0.81750 -0.22500
C 	C 	0.19070 0.11660 0.85406 0.12000
H 	H 	0.24690 0.10910 0.86220 -0.00800
Co	Co	0.99621 0.38960 0.01842 1.12700
N 	N 	0.82400 0.44320 0.99140 -0.18900
O 	O 	0.66770 0.41080 0.97411 -0.35900
C 	C 	0.77990 0.49450 0.97241 -0.03900
C 	C 	0.69070 0.47280 0.96190 0.30700
O 	O 	0.75930 0.65170 0.93780 -0.38400
O 	O 	0.89980 0.65840 0.94430 -0.36500
N 	N 	0.91200 0.53080 0.97885 -0.18900
O 	O 	0.64570 0.51270 0.94024 -0.38400
C 	C 	0.83000 0.62620 0.94719 0.34000
N 	N 	0.90430 0.46520 0.99471 -0.16900
C 	C 	0.83550 0.55120 0.96466 -0.04500
N 	N 	0.66900 0.61980 0.81750 -0.22400
C 	C 	0.69070 0.61660 0.85406 0.12000
H 	H 	0.74690 0.60910 0.86220 -0.00700
Co	Co	0.99621 0.88960 0.51842 1.12700
N 	N 	0.82400 0.94320 0.49140 -0.18900
O 	O 	0.66770 0.91080 0.47411 -0.35900
C 	C 	0.77990 0.99450 0.47241 -0.04200
C 	C 	0.69070 0.97280 0.46190 0.30600
O 	O 	0.75930 0.15170 0.43780 -0.38300
O 	O 	0.89980 0.15840 0.44430 -0.36400
N 	N 	0.91200 0.03080 0.47885 -0.18800
O 	O 	0.64570 0.01270 0.44024 -0.38400
C 	C 	0.83000 0.12620 0.44719 0.33900
N 	N 	0.90430 0.96520 0.49471 -0.17100
C 	C 	0.83550 0.05120 0.46466 -0.04300
N 	N 	0.66900 0.11980 0.31750 -0.22400
C 	C 	0.69070 0.11660 0.35406 0.12000
H 	H 	0.74690 0.10910 0.36220 -0.00700
Co	Co	0.75379 0.86040 0.51842 1.12700
N 	N 	0.92600 0.80680 0.49140 -0.19000
O 	O 	0.08230 0.83920 0.47411 -0.35900
C 	C 	0.97010 0.75550 0.47241 -0.04100
C 	C 	0.05930 0.77720 0.46190 0.30800
O 	O 	0.99070 0.59830 0.43780 -0.38400
O 	O 	0.85020 0.59160 0.44430 -0.36500
N 	N 	0.83800 0.71920 0.47885 -0.18900
O 	O 	0.10430 0.73730 0.44024 -0.38400
C 	C 	0.92000 0.62380 0.44719 0.34000
N 	N 	0.84570 0.78480 0.49471 -0.16900
C 	C 	0.91450 0.69880 0.46466 -0.04500
N 	N 	0.08100 0.63020 0.31750 -0.22400
C 	C 	0.05930 0.63340 0.35406 0.12000
H 	H 	0.00310 0.64090 0.36220 -0.00700
Co	Co	0.75379 0.36040 0.01842 1.12700
N 	N 	0.92600 0.30680 0.99140 -0.19000
O 	O 	0.08230 0.33920 0.97411 -0.35900
C 	C 	0.97010 0.25550 0.97241 -0.03700
C 	C 	0.05930 0.27720 0.96190 0.30400
O 	O 	0.99070 0.09830 0.93780 -0.38200
O 	O 	0.85020 0.09160 0.94430 -0.36500
N 	N 	0.83800 0.21920 0.97885 -0.18900
O 	O 	0.10430 0.23730 0.94024 -0.38400
C 	C 	0.92000 0.12380 0.94719 0.34000
N 	N 	0.84570 0.28480 0.99471 -0.16900
C 	C 	0.91450 0.19880 0.96466 -0.04500
N 	N 	0.08100 0.13020 0.81750 -0.22500
C 	C 	0.05930 0.13340 0.85406 0.12000
H 	H 	0.00310 0.14090 0.86220 -0.00800
Co	Co	0.25379 0.86040 0.01842 1.12700
N 	N 	0.42600 0.80680 0.99140 -0.19000
O 	O 	0.58230 0.83920 0.97411 -0.35900
C 	C 	0.47010 0.75550 0.97241 -0.03900
C 	C 	0.55930 0.77720 0.96190 0.30700
O 	O 	0.49070 0.59830 0.93780 -0.38400
O 	O 	0.35020 0.59160 0.94430 -0.36500
N 	N 	0.33800 0.71920 0.97885 -0.18900
O 	O 	0.60430 0.73730 0.94024 -0.38400
C 	C 	0.42000 0.62380 0.94719 0.34000
N 	N 	0.34570 0.78480 0.99471 -0.16900
C 	C 	0.41450 0.69880 0.96466 -0.04500
N 	N 	0.58100 0.63020 0.81750 -0.22400
C 	C 	0.55930 0.63340 0.85406 0.12000
H 	H 	0.50310 0.64090 0.86220 -0.00700
Co	Co	0.25379 0.36040 0.51842 1.12700
N 	N 	0.42600 0.30680 0.49140 -0.19000
O 	O 	0.58230 0.33920 0.47411 -0.35900
C 	C 	0.47010 0.25550 0.47241 -0.03900
C 	C 	0.55930 0.27720 0.46190 0.30700
O 	O 	0.49070 0.09830 0.43780 -0.38400
O 	O 	0.35020 0.09160 0.44430 -0.36500
N 	N 	0.33800 0.21920 0.47885 -0.18900
O 	O 	0.60430 0.23730 0.44024 -0.38400
C 	C 	0.42000 0.12380 0.44719 0.34000
N 	N 	0.34570 0.28480 0.49471 -0.16900
C 	C 	0.41450 0.19880 0.46466 -0.04500
N 	N 	0.58100 0.13020 0.31750 -0.22400
C 	C 	0.55930 0.13340 0.35406 0.12000
H 	H 	0.50310 0.14090 0.36220 -0.00700
Co	Co	0.75379 0.38960 0.73158 1.12700
N 	N 	0.92600 0.44320 0.75860 -0.19000
O 	O 	0.08230 0.41080 0.77589 -0.35900
C 	C 	0.97010 0.49450 0.77759 -0.03800
C 	C 	0.05930 0.47280 0.78810 0.30600
O 	O 	0.99070 0.65170 0.81220 -0.38400
O 	O 	0.85020 0.65840 0.80570 -0.36500
N 	N 	0.83800 0.53080 0.77115 -0.18900
O 	O 	0.10430 0.51270 0.80976 -0.38400
C 	C 	0.92000 0.62620 0.80281 0.34000
N 	N 	0.84570 0.46520 0.75529 -0.16900
C 	C 	0.91450 0.55120 0.78534 -0.04500
N 	N 	0.08100 0.61980 0.93250 -0.22400
C 	C 	0.05930 0.61660 0.89594 0.12000
H 	H 	0.00310 0.60910 0.88780 -0.00700
Co	Co	0.75379 0.88960 0.23158 1.12700
N 	N 	0.92600 0.94320 0.25860 -0.18900
O 	O 	0.08230 0.91080 0.27589 -0.36000
C 	C 	0.97010 0.99450 0.27759 -0.04700
C 	C 	0.05930 0.97280 0.28810 0.31400
O 	O 	0.99070 0.15170 0.31220 -0.38200
O 	O 	0.85020 0.15840 0.30570 -0.36400
N 	N 	0.83800 0.03080 0.27115 -0.18900
O 	O 	0.10430 0.01270 0.30976 -0.38800
C 	C 	0.92000 0.12620 0.30281 0.33800
N 	N 	0.84570 0.96520 0.25529 -0.17000
C 	C 	0.91450 0.05120 0.28534 -0.04000
N 	N 	0.08100 0.11980 0.43250 -0.22500
C 	C 	0.05930 0.11660 0.39594 0.12000
H 	H 	0.00310 0.10910 0.38780 -0.00800
Co	Co	0.25379 0.38960 0.23158 1.12700
N 	N 	0.42600 0.44320 0.25860 -0.19000
O 	O 	0.58230 0.41080 0.27589 -0.35900
C 	C 	0.47010 0.49450 0.27759 -0.03900
C 	C 	0.55930 0.47280 0.28810 0.30700
O 	O 	0.49070 0.65170 0.31220 -0.38400
O 	O 	0.35020 0.65840 0.30570 -0.36500
N 	N 	0.33800 0.53080 0.27115 -0.18900
O 	O 	0.60430 0.51270 0.30976 -0.38400
C 	C 	0.42000 0.62620 0.30281 0.34000
N 	N 	0.34570 0.46520 0.25529 -0.16900
C 	C 	0.41450 0.55120 0.28534 -0.04500
N 	N 	0.58100 0.61980 0.43250 -0.22400
C 	C 	0.55930 0.61660 0.39594 0.12000
H 	H 	0.50310 0.60910 0.38780 -0.00700
Co	Co	0.25379 0.88960 0.73158 1.12700
N 	N 	0.42600 0.94320 0.75860 -0.19000
O 	O 	0.58230 0.91080 0.77589 -0.35900
C 	C 	0.47010 0.99450 0.77759 -0.03900
C 	C 	0.55930 0.97280 0.78810 0.30600
O 	O 	0.49070 0.15170 0.81220 -0.38400
O 	O 	0.35020 0.15840 0.80570 -0.36500
N 	N 	0.33800 0.03080 0.77115 -0.19000
O 	O 	0.60430 0.01270 0.80976 -0.38400
C 	C 	0.42000 0.12620 0.80281 0.34000
N 	N 	0.34570 0.96520 0.75529 -0.16900
C 	C 	0.41450 0.05120 0.78534 -0.04600
N 	N 	0.58100 0.11980 0.93250 -0.22400
C 	C 	0.55930 0.11660 0.89594 0.12000
H 	H 	0.50310 0.10910 0.88780 -0.00800
Co	Co	0.49621 0.86040 0.73158 1.12700
N 	N 	0.32400 0.80680 0.75860 -0.19000
O 	O 	0.16770 0.83920 0.77589 -0.35900
C 	C 	0.27990 0.75550 0.77759 -0.03900
C 	C 	0.19070 0.77720 0.78810 0.30700
O 	O 	0.25930 0.59830 0.81220 -0.38400
O 	O 	0.39980 0.59160 0.80570 -0.36500
N 	N 	0.41200 0.71920 0.77115 -0.18900
O 	O 	0.14570 0.73730 0.80976 -0.38400
C 	C 	0.33000 0.62380 0.80281 0.34000
N 	N 	0.40430 0.78480 0.75529 -0.16900
C 	C 	0.33550 0.69880 0.78534 -0.04500
N 	N 	0.16900 0.63020 0.93250 -0.22500
C 	C 	0.19070 0.63340 0.89594 0.12000
H 	H 	0.24690 0.64090 0.88780 -0.00700
Co	Co	0.49621 0.36040 0.23158 1.12700
N 	N 	0.32400 0.30680 0.25860 -0.19000
O 	O 	0.16770 0.33920 0.27589 -0.35900
C 	C 	0.27990 0.25550 0.27759 -0.04000
C 	C 	0.19070 0.27720 0.28810 0.30700
O 	O 	0.25930 0.09830 0.31220 -0.38400
O 	O 	0.39980 0.09160 0.30570 -0.36500
N 	N 	0.41200 0.21920 0.27115 -0.18900
O 	O 	0.14570 0.23730 0.30976 -0.38500
C 	C 	0.33000 0.12380 0.30281 0.34000
N 	N 	0.40430 0.28480 0.25529 -0.16900
C 	C 	0.33550 0.19880 0.28534 -0.04500
N 	N 	0.16900 0.13020 0.43250 -0.22500
C 	C 	0.19070 0.13340 0.39594 0.12000
H 	H 	0.24690 0.14090 0.38780 -0.00700
Co	Co	0.99621 0.86040 0.23158 1.12600
N 	N 	0.82400 0.80680 0.25860 -0.19000
O 	O 	0.66770 0.83920 0.27589 -0.35900
C 	C 	0.77990 0.75550 0.27759 -0.04000
C 	C 	0.69070 0.77720 0.28810 0.30700
O 	O 	0.75930 0.59830 0.31220 -0.38400
O 	O 	0.89980 0.59160 0.30570 -0.36500
N 	N 	0.91200 0.71920 0.27115 -0.19000
O 	O 	0.64570 0.73730 0.30976 -0.38400
C 	C 	0.83000 0.62380 0.30281 0.34000
N 	N 	0.90430 0.78480 0.25529 -0.17000
C 	C 	0.83550 0.69880 0.28534 -0.04500
N 	N 	0.66900 0.63020 0.43250 -0.22400
C 	C 	0.69070 0.63340 0.39594 0.12000
H 	H 	0.74690 0.64090 0.38780 -0.00700
Co	Co	0.99621 0.36040 0.73158 1.12800
N 	N 	0.82400 0.30680 0.75860 -0.19000
O 	O 	0.66770 0.33920 0.77589 -0.35900
C 	C 	0.77990 0.25550 0.77759 -0.03900
C 	C 	0.69070 0.27720 0.78810 0.30700
O 	O 	0.75930 0.09830 0.81220 -0.38400
O 	O 	0.89980 0.09160 0.80570 -0.36400
N 	N 	0.91200 0.21920 0.77115 -0.18900
O 	O 	0.64570 0.23730 0.80976 -0.38400
C 	C 	0.83000 0.12380 0.80281 0.34000
N 	N 	0.90430 0.28480 0.75529 -0.16900
C 	C 	0.83550 0.19880 0.78534 -0.04500
N 	N 	0.66900 0.13020 0.93250 -0.22400
C 	C 	0.69070 0.13340 0.89594 0.12000
H 	H 	0.74690 0.14090 0.88780 -0.00700
Co	Co	0.87500 0.37500 0.56079 1.16000
N 	N 	0.87500 0.37500 0.62090 -0.23500
Co	Co	0.87500 0.87500 0.06079 1.15900
N 	N 	0.87500 0.87500 0.12090 -0.23500
Co	Co	0.37500 0.37500 0.06079 1.16000
N 	N 	0.37500 0.37500 0.12090 -0.23500
Co	Co	0.37500 0.87500 0.56079 1.16000
N 	N 	0.37500 0.87500 0.62090 -0.23500
Co	Co	0.87500 0.37500 0.18921 1.16000
N 	N 	0.87500 0.37500 0.12910 -0.23500
Co	Co	0.87500 0.87500 0.68921 1.16000
N 	N 	0.87500 0.87500 0.62910 -0.23500
Co	Co	0.37500 0.37500 0.68921 1.16000
N 	N 	0.37500 0.37500 0.62910 -0.23500
Co	Co	0.37500 0.87500 0.18921 1.16000
N 	N 	0.37500 0.87500 0.12910 -0.23500
Co	Co	0.12500 0.62500 0.43921 1.16000
N 	N 	0.12500 0.62500 0.37910 -0.23500
Co	Co	0.12500 0.12500 0.93921 1.15900
N 	N 	0.12500 0.12500 0.87910 -0.23500
Co	Co	0.62500 0.62500 0.93921 1.16000
N 	N 	0.62500 0.62500 0.87910 -0.23500
Co	Co	0.62500 0.12500 0.43921 1.16000
N 	N 	0.62500 0.12500 0.37910 -0.23500
Co	Co	0.12500 0.62500 0.81079 1.16000
N 	N 	0.12500 0.62500 0.87090 -0.23500
Co	Co	0.12500 0.12500 0.31079 1.16000
N 	N 	0.12500 0.12500 0.37090 -0.23500
Co	Co	0.62500 0.62500 0.31079 1.16000
N 	N 	0.62500 0.62500 0.37090 -0.23500
Co	Co	0.62500 0.12500 0.81079 1.16000
N 	N 	0.62500 0.12500 0.87090 -0.23500
