data_crystal

_cell_length_a 26.38800
_cell_length_b 29.72000
_cell_length_c 29.72000
_cell_angle_alpha 120.00000
_cell_angle_beta  90.00000
_cell_angle_gamma 90.00000

_symmetry_space_group_name_	'P 1'
_symmetry_space_group_name_H-M	'P 1'

loop_
_symmetry_equiv_pos_as_xyz
  x,y,z

loop_
_atom_site_label
_atom_site_type_symbol
_atom_site_fract_x
_atom_site_fract_y
_atom_site_fract_z
_atom_site_charge
Cr	Cr	0.75000 0.00000 0.58370 1.58200
Cr	Cr	0.75000 0.58370 -0.00000 1.59400
Cr	Cr	0.75000 0.41630 0.41630 1.60600
Cr	Cr	0.25000 0.00000 0.41630 1.58200
Cr	Cr	0.25000 0.41630 -0.00000 1.59700
Cr	Cr	0.25000 0.58370 0.58370 1.60600
Cr	Cr	0.68800 0.00000 0.67810 1.55400
Cr	Cr	0.68800 0.67810 1.00000 1.58500
Cr	Cr	0.68800 0.32190 0.32190 1.57600
Cr	Cr	0.18800 0.00000 0.32190 1.55300
Cr	Cr	0.18800 0.32190 -0.00000 1.56800
Cr	Cr	0.18800 0.67810 0.67810 1.57700
Cr	Cr	0.81200 0.32190 0.32190 1.57700
Cr	Cr	0.81200 0.67810 1.00000 1.58600
Cr	Cr	0.81200 0.00000 0.67810 1.55500
Cr	Cr	0.31200 0.67810 0.67810 1.57800
Cr	Cr	0.31200 0.32190 -0.00000 1.56900
Cr	Cr	0.31200 0.00000 0.32190 1.55400
Cu	Cu	0.50000 0.76346 0.38173 0.92300
Cu	Cu	0.50000 0.61827 0.23654 0.92200
Cu	Cu	0.50000 0.61827 0.38173 0.92200
Cu	Cu	1.00000 0.23654 0.61827 0.92200
Cu	Cu	1.00000 0.38173 0.76346 0.92200
Cu	Cu	1.00000 0.38173 0.61827 0.92200
Cu	Cu	0.50000 0.23654 0.61827 0.92200
Cu	Cu	0.50000 0.38173 0.76346 0.92300
Cu	Cu	0.50000 0.38173 0.61827 0.92200
Cu	Cu	-0.00000 0.76346 0.38173 0.92300
Cu	Cu	-0.00000 0.61827 0.23654 0.92200
Cu	Cu	-0.00000 0.61827 0.38173 0.92200
H 	H 	0.55310 0.73390 0.43270 0.15400
H 	H 	0.58570 0.73140 0.39090 0.12900
H 	H 	0.63730 0.80540 0.40550 0.13200
H 	H 	0.59540 0.87560 0.57680 -0.00300
H 	H 	0.55080 0.80360 0.51560 0.14900
H 	H 	0.67290 0.88480 0.46550 -0.00200
H 	H 	0.67370 0.78530 0.67370 0.10200
H 	H 	0.67360 0.86840 0.68380 0.02600
H 	H 	0.77890 0.70960 0.66440 0.13700
H 	H 	0.55310 0.69880 0.26610 0.15500
H 	H 	0.58570 0.65950 0.26860 0.12900
H 	H 	0.63730 0.60010 0.19460 0.13200
H 	H 	0.59540 0.70120 0.12440 -0.01200
H 	H 	0.55080 0.71200 0.19640 0.15000
H 	H 	0.67290 0.58070 0.11520 -0.01400
H 	H 	0.67370 0.88840 0.21470 0.11000
H 	H 	0.67360 0.81540 0.13160 0.01900
H 	H 	0.77890 0.95480 0.29040 0.15800
H 	H 	0.55310 0.56730 0.30120 0.15400
H 	H 	0.58570 0.60910 0.34050 0.12900
H 	H 	0.63730 0.59450 0.39990 0.13200
H 	H 	0.59540 0.42320 0.29880 -0.01300
H 	H 	0.55080 0.48440 0.28800 0.14800
H 	H 	0.67290 0.53450 0.41930 -0.01100
H 	H 	0.67370 0.32630 0.11160 0.09300
H 	H 	0.67360 0.31620 0.18460 0.01700
H 	H 	0.77890 0.33560 0.04520 0.12700
H 	H 	0.05310 0.26610 0.56730 0.15400
H 	H 	0.08570 0.26860 0.60910 0.12900
H 	H 	0.13730 0.19460 0.59450 0.13200
H 	H 	0.09540 0.12440 0.42320 -0.01800
H 	H 	0.05080 0.19640 0.48440 0.14800
H 	H 	0.17290 0.11520 0.53450 -0.01900
H 	H 	0.17370 0.21470 0.32630 0.09600
H 	H 	0.17360 0.13160 0.31620 0.01300
H 	H 	0.27890 0.29040 0.33560 0.13400
H 	H 	0.05310 0.30120 0.73390 0.15400
H 	H 	0.08570 0.34050 0.73140 0.12900
H 	H 	0.13730 0.39990 0.80540 0.13200
H 	H 	0.09540 0.29880 0.87560 -0.01000
H 	H 	0.05080 0.28800 0.80360 0.14700
H 	H 	0.17290 0.41930 0.88480 -0.00800
H 	H 	0.17370 0.11160 0.78530 0.08900
H 	H 	0.17360 0.18460 0.86840 0.02000
H 	H 	0.27890 0.04520 0.70960 0.11400
H 	H 	0.05310 0.43270 0.69880 0.15400
H 	H 	0.08570 0.39090 0.65950 0.12900
H 	H 	0.13730 0.40550 0.60010 0.13200
H 	H 	0.09540 0.57680 0.70120 -0.01000
H 	H 	0.05080 0.51560 0.71200 0.14900
H 	H 	0.17290 0.46550 0.58070 -0.01100
H 	H 	0.17370 0.67370 0.88840 0.10500
H 	H 	0.17360 0.68380 0.81540 0.02200
H 	H 	0.27890 0.66440 0.95480 0.14400
H 	H 	0.94690 0.30120 0.56730 0.15400
H 	H 	0.91430 0.34050 0.60910 0.12900
H 	H 	0.86270 0.39990 0.59450 0.13200
H 	H 	0.90460 0.29880 0.42320 -0.01300
H 	H 	0.94920 0.28800 0.48440 0.14700
H 	H 	0.82710 0.41930 0.53450 -0.01100
H 	H 	0.82630 0.11160 0.32630 0.08700
H 	H 	0.82640 0.18460 0.31620 0.01700
H 	H 	0.72110 0.04520 0.33560 0.11300
H 	H 	0.94690 0.43270 0.73390 0.15400
H 	H 	0.91430 0.39090 0.73140 0.12900
H 	H 	0.86270 0.40550 0.80540 0.13200
H 	H 	0.90460 0.57680 0.87560 -0.00800
H 	H 	0.94920 0.51560 0.80360 0.14900
H 	H 	0.82710 0.46550 0.88480 -0.00800
H 	H 	0.82630 0.67370 0.78530 0.10100
H 	H 	0.82640 0.68380 0.86840 0.02300
H 	H 	0.72110 0.66440 0.70960 0.13700
H 	H 	0.94690 0.26610 0.69880 0.15400
H 	H 	0.91430 0.26860 0.65950 0.12900
H 	H 	0.86270 0.19460 0.60010 0.13200
H 	H 	0.90460 0.12440 0.70120 -0.01700
H 	H 	0.94920 0.19640 0.71200 0.14800
H 	H 	0.82710 0.11520 0.58070 -0.01900
H 	H 	0.82630 0.21470 0.88840 0.10100
H 	H 	0.82640 0.13160 0.81540 0.01400
H 	H 	0.72110 0.29040 0.95480 0.14200
H 	H 	0.44690 0.69880 0.43270 0.15500
H 	H 	0.41430 0.65950 0.39090 0.12900
H 	H 	0.36270 0.60010 0.40550 0.13200
H 	H 	0.40460 0.70120 0.57680 -0.00900
H 	H 	0.44920 0.71200 0.51560 0.15000
H 	H 	0.32710 0.58070 0.46550 -0.01100
H 	H 	0.32630 0.88840 0.67370 0.11100
H 	H 	0.32640 0.81540 0.68380 0.02100
H 	H 	0.22110 0.95480 0.66440 0.15800
H 	H 	0.44690 0.56730 0.26610 0.15400
H 	H 	0.41430 0.60910 0.26860 0.12900
H 	H 	0.36270 0.59450 0.19460 0.13200
H 	H 	0.40460 0.42320 0.12440 -0.01500
H 	H 	0.44920 0.48440 0.19640 0.14800
H 	H 	0.32710 0.53450 0.11520 -0.01400
H 	H 	0.32630 0.32630 0.21470 0.09600
H 	H 	0.32640 0.31620 0.13160 0.01500
H 	H 	0.22110 0.33560 0.29040 0.13400
H 	H 	0.44690 0.73390 0.30120 0.15400
H 	H 	0.41430 0.73140 0.34050 0.12900
H 	H 	0.36270 0.80540 0.39990 0.13200
H 	H 	0.40460 0.87560 0.29880 -0.00400
H 	H 	0.44920 0.80360 0.28800 0.14800
H 	H 	0.32710 0.88480 0.41930 -0.00200
H 	H 	0.32630 0.78530 0.11160 0.09700
H 	H 	0.32640 0.86840 0.18460 0.02500
H 	H 	0.22110 0.70960 0.04520 0.12900
H 	H 	0.44690 0.26610 0.56730 0.15400
H 	H 	0.41430 0.26860 0.60910 0.12900
H 	H 	0.36270 0.19460 0.59450 0.13200
H 	H 	0.40460 0.12440 0.42320 -0.01900
H 	H 	0.44920 0.19640 0.48440 0.14800
H 	H 	0.32710 0.11520 0.53450 -0.01900
H 	H 	0.32630 0.21470 0.32630 0.09600
H 	H 	0.32640 0.13160 0.31620 0.01300
H 	H 	0.22110 0.29040 0.33560 0.13400
H 	H 	0.44690 0.30120 0.73390 0.15400
H 	H 	0.41430 0.34050 0.73140 0.12900
H 	H 	0.36270 0.39990 0.80540 0.13200
H 	H 	0.40460 0.29880 0.87560 -0.01000
H 	H 	0.44920 0.28800 0.80360 0.14700
H 	H 	0.32710 0.41930 0.88480 -0.00800
H 	H 	0.32630 0.11160 0.78530 0.08900
H 	H 	0.32640 0.18460 0.86840 0.02000
H 	H 	0.22110 0.04520 0.70960 0.11400
H 	H 	0.44690 0.43270 0.69880 0.15400
H 	H 	0.41430 0.39090 0.65950 0.12900
H 	H 	0.36270 0.40550 0.60010 0.13200
H 	H 	0.40460 0.57680 0.70120 -0.01000
H 	H 	0.44920 0.51560 0.71200 0.14900
H 	H 	0.32710 0.46550 0.58070 -0.01100
H 	H 	0.32630 0.67370 0.88840 0.10500
H 	H 	0.32640 0.68380 0.81540 0.02100
H 	H 	0.22110 0.66440 0.95480 0.14400
H 	H 	0.94690 0.73390 0.43270 0.15400
H 	H 	0.91430 0.73140 0.39090 0.12900
H 	H 	0.86270 0.80540 0.40550 0.13200
H 	H 	0.90460 0.87560 0.57680 -0.00300
H 	H 	0.94920 0.80360 0.51560 0.14900
H 	H 	0.82710 0.88480 0.46550 -0.00200
H 	H 	0.82630 0.78530 0.67370 0.10200
H 	H 	0.82640 0.86840 0.68380 0.02600
H 	H 	0.72110 0.70960 0.66440 0.13700
H 	H 	0.94690 0.69880 0.26610 0.15500
H 	H 	0.91430 0.65950 0.26860 0.12900
H 	H 	0.86270 0.60010 0.19460 0.13200
H 	H 	0.90460 0.70120 0.12440 -0.01200
H 	H 	0.94920 0.71200 0.19640 0.15000
H 	H 	0.82710 0.58070 0.11520 -0.01400
H 	H 	0.82630 0.88840 0.21470 0.11000
H 	H 	0.82640 0.81540 0.13160 0.01900
H 	H 	0.72110 0.95480 0.29040 0.15800
H 	H 	0.94690 0.56730 0.30120 0.15400
H 	H 	0.91430 0.60910 0.34050 0.12900
H 	H 	0.86270 0.59450 0.39990 0.13200
H 	H 	0.90460 0.42320 0.29880 -0.01300
H 	H 	0.94920 0.48440 0.28800 0.14800
H 	H 	0.82710 0.53450 0.41930 -0.01100
H 	H 	0.82630 0.32630 0.11160 0.09400
H 	H 	0.82640 0.31620 0.18460 0.01700
H 	H 	0.72110 0.33560 0.04520 0.12700
H 	H 	0.05310 0.69880 0.43270 0.15400
H 	H 	0.08570 0.65950 0.39090 0.12900
H 	H 	0.13730 0.60010 0.40550 0.13200
H 	H 	0.09540 0.70120 0.57680 -0.00900
H 	H 	0.05080 0.71200 0.51560 0.15000
H 	H 	0.17290 0.58070 0.46550 -0.01100
H 	H 	0.17370 0.88840 0.67370 0.11100
H 	H 	0.17360 0.81540 0.68380 0.02100
H 	H 	0.27890 0.95480 0.66440 0.15800
H 	H 	0.05310 0.56730 0.26610 0.15400
H 	H 	0.08570 0.60910 0.26860 0.12900
H 	H 	0.13730 0.59450 0.19460 0.13200
H 	H 	0.09540 0.42320 0.12440 -0.01500
H 	H 	0.05080 0.48440 0.19640 0.14800
H 	H 	0.17290 0.53450 0.11520 -0.01400
H 	H 	0.17370 0.32630 0.21470 0.09600
H 	H 	0.17360 0.31620 0.13160 0.01500
H 	H 	0.27890 0.33560 0.29040 0.13400
H 	H 	0.05310 0.73390 0.30120 0.15400
H 	H 	0.08570 0.73140 0.34050 0.12900
H 	H 	0.13730 0.80540 0.39990 0.13200
H 	H 	0.09540 0.87560 0.29880 -0.00400
H 	H 	0.05080 0.80360 0.28800 0.14800
H 	H 	0.17290 0.88480 0.41930 -0.00300
H 	H 	0.17370 0.78530 0.11160 0.09700
H 	H 	0.17360 0.86840 0.18460 0.02500
H 	H 	0.27890 0.70960 0.04520 0.12900
H 	H 	0.55310 0.30120 0.56730 0.15400
H 	H 	0.58570 0.34050 0.60910 0.12900
H 	H 	0.63730 0.39990 0.59450 0.13200
H 	H 	0.59540 0.29880 0.42320 -0.01300
H 	H 	0.55080 0.28800 0.48440 0.14700
H 	H 	0.67290 0.41930 0.53450 -0.01100
H 	H 	0.67370 0.11160 0.32630 0.08700
H 	H 	0.67360 0.18460 0.31620 0.01700
H 	H 	0.77890 0.04520 0.33560 0.11300
H 	H 	0.55310 0.43270 0.73390 0.15400
H 	H 	0.58570 0.39090 0.73140 0.12900
H 	H 	0.63730 0.40550 0.80540 0.13200
H 	H 	0.59540 0.57680 0.87560 -0.00800
H 	H 	0.55080 0.51560 0.80360 0.14900
H 	H 	0.67290 0.46550 0.88480 -0.00800
H 	H 	0.67370 0.67370 0.78530 0.10200
H 	H 	0.67360 0.68380 0.86840 0.02300
H 	H 	0.77890 0.66440 0.70960 0.13700
H 	H 	0.55310 0.26610 0.69880 0.15400
H 	H 	0.58570 0.26860 0.65950 0.12900
H 	H 	0.63730 0.19460 0.60010 0.13200
H 	H 	0.59540 0.12440 0.70120 -0.01700
H 	H 	0.55080 0.19640 0.71200 0.14800
H 	H 	0.67290 0.11520 0.58070 -0.01900
H 	H 	0.67370 0.21470 0.88840 0.10100
H 	H 	0.67360 0.13160 0.81540 0.01400
H 	H 	0.77890 0.29040 0.95480 0.14200
C 	C 	0.58930 0.79960 0.45470 0.22100
C 	C 	0.62710 0.82180 0.44090 -0.25200
C 	C 	0.64130 0.88420 0.52790 -0.23100
C 	C 	0.60350 0.86130 0.54110 0.18300
C 	C 	0.57670 0.81880 0.50540 -0.25600
C 	C 	0.65090 0.86660 0.47610 0.17900
C 	C 	0.66970 0.92990 0.56820 0.50400
C 	C 	0.70480 0.80240 0.67580 -0.18900
C 	C 	0.70500 0.85180 0.68180 0.09600
C 	C 	0.58930 0.65510 0.20040 0.22400
C 	C 	0.62710 0.61910 0.17820 -0.26100
C 	C 	0.64130 0.64370 0.11580 -0.24800
C 	C 	0.60350 0.67980 0.13870 0.19000
C 	C 	0.57670 0.68660 0.18120 -0.26500
C 	C 	0.65090 0.60950 0.13340 0.18600
C 	C 	0.66970 0.63830 0.07010 0.51200
C 	C 	0.70480 0.87340 0.19760 -0.20000
C 	C 	0.70500 0.83000 0.14820 0.10600
C 	C 	0.58930 0.54530 0.34490 0.22300
C 	C 	0.62710 0.55910 0.38090 -0.26000
C 	C 	0.64130 0.47210 0.35630 -0.24500
C 	C 	0.60350 0.45890 0.32020 0.18900
C 	C 	0.57670 0.49460 0.31340 -0.26500
C 	C 	0.65090 0.52390 0.39050 0.18500
C 	C 	0.66970 0.43180 0.36170 0.51200
C 	C 	0.70480 0.32420 0.12660 -0.19200
C 	C 	0.70500 0.31820 0.17000 0.09300
C 	C 	0.08930 0.20040 0.54530 0.22500
C 	C 	0.12710 0.17820 0.55910 -0.26500
C 	C 	0.14130 0.11580 0.47210 -0.25400
C 	C 	0.10350 0.13870 0.45890 0.19200
C 	C 	0.07670 0.18120 0.49460 -0.27000
C 	C 	0.15090 0.13340 0.52390 0.18800
C 	C 	0.16970 0.07010 0.43180 0.51300
C 	C 	0.20480 0.19760 0.32420 -0.19700
C 	C 	0.20500 0.14820 0.31820 0.09700
C 	C 	0.08930 0.34490 0.79960 0.22200
C 	C 	0.12710 0.38090 0.82180 -0.25700
C 	C 	0.14130 0.35630 0.88420 -0.24100
C 	C 	0.10350 0.32020 0.86130 0.18700
C 	C 	0.07670 0.31340 0.81880 -0.26200
C 	C 	0.15090 0.39050 0.86660 0.18300
C 	C 	0.16970 0.36170 0.92990 0.50900
C 	C 	0.20480 0.12660 0.80240 -0.18600
C 	C 	0.20500 0.17000 0.85180 0.08800
C 	C 	0.08930 0.45470 0.65510 0.22300
C 	C 	0.12710 0.44090 0.61910 -0.25900
C 	C 	0.14130 0.52790 0.64370 -0.24400
C 	C 	0.10350 0.54110 0.67980 0.18800
C 	C 	0.07670 0.50540 0.68660 -0.26300
C 	C 	0.15090 0.47610 0.60950 0.18400
C 	C 	0.16970 0.56820 0.63830 0.51100
C 	C 	0.20480 0.67580 0.87340 -0.19400
C 	C 	0.20500 0.68180 0.83000 0.10100
C 	C 	0.91070 0.34490 0.54530 0.22300
C 	C 	0.87290 0.38090 0.55910 -0.26000
C 	C 	0.85870 0.35630 0.47210 -0.24500
C 	C 	0.89650 0.32020 0.45890 0.18900
C 	C 	0.92330 0.31340 0.49460 -0.26500
C 	C 	0.84910 0.39050 0.52390 0.18500
C 	C 	0.83030 0.36170 0.43180 0.51200
C 	C 	0.79520 0.12660 0.32420 -0.18800
C 	C 	0.79500 0.17000 0.31820 0.08800
C 	C 	0.91070 0.45470 0.79960 0.22200
C 	C 	0.87290 0.44090 0.82180 -0.25700
C 	C 	0.85870 0.52790 0.88420 -0.24000
C 	C 	0.89650 0.54110 0.86130 0.18600
C 	C 	0.92330 0.50540 0.81880 -0.26100
C 	C 	0.84910 0.47610 0.86660 0.18300
C 	C 	0.83030 0.56820 0.92990 0.50900
C 	C 	0.79520 0.67580 0.80240 -0.19100
C 	C 	0.79500 0.68180 0.85180 0.09800
C 	C 	0.91070 0.20040 0.65510 0.22500
C 	C 	0.87290 0.17820 0.61910 -0.26500
C 	C 	0.85870 0.11580 0.64370 -0.25400
C 	C 	0.89650 0.13870 0.67980 0.19100
C 	C 	0.92330 0.18120 0.68660 -0.26900
C 	C 	0.84910 0.13340 0.60950 0.18800
C 	C 	0.83030 0.07010 0.63830 0.51300
C 	C 	0.79520 0.19760 0.87340 -0.19800
C 	C 	0.79500 0.14820 0.83000 0.10100
C 	C 	0.41070 0.65510 0.45470 0.22300
C 	C 	0.37290 0.61910 0.44090 -0.25900
C 	C 	0.35870 0.64370 0.52790 -0.24400
C 	C 	0.39650 0.67980 0.54110 0.18800
C 	C 	0.42330 0.68660 0.50540 -0.26300
C 	C 	0.34910 0.60950 0.47610 0.18400
C 	C 	0.33030 0.63830 0.56820 0.51100
C 	C 	0.29520 0.87340 0.67580 -0.19800
C 	C 	0.29500 0.83000 0.68180 0.10600
C 	C 	0.41070 0.54530 0.20040 0.22400
C 	C 	0.37290 0.55910 0.17820 -0.26200
C 	C 	0.35870 0.47210 0.11580 -0.24800
C 	C 	0.39650 0.45890 0.13870 0.19000
C 	C 	0.42330 0.49460 0.18120 -0.26600
C 	C 	0.34910 0.52390 0.13340 0.18600
C 	C 	0.33030 0.43180 0.07010 0.51200
C 	C 	0.29520 0.32420 0.19760 -0.19500
C 	C 	0.29500 0.31820 0.14820 0.09600
C 	C 	0.41070 0.79960 0.34490 0.22100
C 	C 	0.37290 0.82180 0.38090 -0.25200
C 	C 	0.35870 0.88420 0.35630 -0.23200
C 	C 	0.39650 0.86130 0.32020 0.18300
C 	C 	0.42330 0.81880 0.31340 -0.25600
C 	C 	0.34910 0.86660 0.39050 0.17900
C 	C 	0.33030 0.92990 0.36170 0.50400
C 	C 	0.29520 0.80240 0.12660 -0.18700
C 	C 	0.29500 0.85180 0.17000 0.09300
C 	C 	0.41070 0.20040 0.54530 0.22500
C 	C 	0.37290 0.17820 0.55910 -0.26500
C 	C 	0.35870 0.11580 0.47210 -0.25400
C 	C 	0.39650 0.13870 0.45890 0.19200
C 	C 	0.42330 0.18120 0.49460 -0.27000
C 	C 	0.34910 0.13340 0.52390 0.18800
C 	C 	0.33030 0.07010 0.43180 0.51300
C 	C 	0.29520 0.19760 0.32420 -0.19700
C 	C 	0.29500 0.14820 0.31820 0.09700
C 	C 	0.41070 0.34490 0.79960 0.22200
C 	C 	0.37290 0.38090 0.82180 -0.25700
C 	C 	0.35870 0.35630 0.88420 -0.24100
C 	C 	0.39650 0.32020 0.86130 0.18600
C 	C 	0.42330 0.31340 0.81880 -0.26200
C 	C 	0.34910 0.39050 0.86660 0.18300
C 	C 	0.33030 0.36170 0.92990 0.50900
C 	C 	0.29520 0.12660 0.80240 -0.18600
C 	C 	0.29500 0.17000 0.85180 0.08800
C 	C 	0.41070 0.45470 0.65510 0.22300
C 	C 	0.37290 0.44090 0.61910 -0.25900
C 	C 	0.35870 0.52790 0.64370 -0.24400
C 	C 	0.39650 0.54110 0.67980 0.18800
C 	C 	0.42330 0.50540 0.68660 -0.26300
C 	C 	0.34910 0.47610 0.60950 0.18400
C 	C 	0.33030 0.56820 0.63830 0.51100
C 	C 	0.29520 0.67580 0.87340 -0.19400
C 	C 	0.29500 0.68180 0.83000 0.10100
C 	C 	0.91070 0.79960 0.45470 0.22100
C 	C 	0.87290 0.82180 0.44090 -0.25200
C 	C 	0.85870 0.88420 0.52790 -0.23100
C 	C 	0.89650 0.86130 0.54110 0.18300
C 	C 	0.92330 0.81880 0.50540 -0.25600
C 	C 	0.84910 0.86660 0.47610 0.17900
C 	C 	0.83030 0.92990 0.56820 0.50400
C 	C 	0.79520 0.80240 0.67580 -0.18900
C 	C 	0.79500 0.85180 0.68180 0.09600
C 	C 	0.91070 0.65510 0.20040 0.22400
C 	C 	0.87290 0.61910 0.17820 -0.26100
C 	C 	0.85870 0.64370 0.11580 -0.24700
C 	C 	0.89650 0.67980 0.13870 0.19000
C 	C 	0.92330 0.68660 0.18120 -0.26500
C 	C 	0.84910 0.60950 0.13340 0.18600
C 	C 	0.83030 0.63830 0.07010 0.51200
C 	C 	0.79520 0.87340 0.19760 -0.20000
C 	C 	0.79500 0.83000 0.14820 0.10600
C 	C 	0.91070 0.54530 0.34490 0.22400
C 	C 	0.87290 0.55910 0.38090 -0.26000
C 	C 	0.85870 0.47210 0.35630 -0.24500
C 	C 	0.89650 0.45890 0.32020 0.18900
C 	C 	0.92330 0.49460 0.31340 -0.26500
C 	C 	0.84910 0.52390 0.39050 0.18500
C 	C 	0.83030 0.43180 0.36170 0.51200
C 	C 	0.79520 0.32420 0.12660 -0.19200
C 	C 	0.79500 0.31820 0.17000 0.09300
C 	C 	0.08930 0.65510 0.45470 0.22300
C 	C 	0.12710 0.61910 0.44090 -0.25900
C 	C 	0.14130 0.64370 0.52790 -0.24400
C 	C 	0.10350 0.67980 0.54110 0.18800
C 	C 	0.07670 0.68660 0.50540 -0.26300
C 	C 	0.15090 0.60950 0.47610 0.18400
C 	C 	0.16970 0.63830 0.56820 0.51100
C 	C 	0.20480 0.87340 0.67580 -0.19800
C 	C 	0.20500 0.83000 0.68180 0.10600
C 	C 	0.08930 0.54530 0.20040 0.22400
C 	C 	0.12710 0.55910 0.17820 -0.26200
C 	C 	0.14130 0.47210 0.11580 -0.24800
C 	C 	0.10350 0.45890 0.13870 0.19000
C 	C 	0.07670 0.49460 0.18120 -0.26600
C 	C 	0.15090 0.52390 0.13340 0.18600
C 	C 	0.16970 0.43180 0.07010 0.51200
C 	C 	0.20480 0.32420 0.19760 -0.19500
C 	C 	0.20500 0.31820 0.14820 0.09600
C 	C 	0.08930 0.79960 0.34490 0.22000
C 	C 	0.12710 0.82180 0.38090 -0.25200
C 	C 	0.14130 0.88420 0.35630 -0.23200
C 	C 	0.10350 0.86130 0.32020 0.18300
C 	C 	0.07670 0.81880 0.31340 -0.25600
C 	C 	0.15090 0.86660 0.39050 0.17900
C 	C 	0.16970 0.92990 0.36170 0.50400
C 	C 	0.20480 0.80240 0.12660 -0.18700
C 	C 	0.20500 0.85180 0.17000 0.09300
C 	C 	0.58930 0.34490 0.54530 0.22300
C 	C 	0.62710 0.38090 0.55910 -0.26000
C 	C 	0.64130 0.35630 0.47210 -0.24600
C 	C 	0.60350 0.32020 0.45890 0.18900
C 	C 	0.57670 0.31340 0.49460 -0.26500
C 	C 	0.65090 0.39050 0.52390 0.18500
C 	C 	0.66970 0.36170 0.43180 0.51200
C 	C 	0.70480 0.12660 0.32420 -0.18800
C 	C 	0.70500 0.17000 0.31820 0.08800
C 	C 	0.58930 0.45470 0.79960 0.22200
C 	C 	0.62710 0.44090 0.82180 -0.25700
C 	C 	0.64130 0.52790 0.88420 -0.24000
C 	C 	0.60350 0.54110 0.86130 0.18600
C 	C 	0.57670 0.50540 0.81880 -0.26100
C 	C 	0.65090 0.47610 0.86660 0.18300
C 	C 	0.66970 0.56820 0.92990 0.50900
C 	C 	0.70480 0.67580 0.80240 -0.19100
C 	C 	0.70500 0.68180 0.85180 0.09800
C 	C 	0.58930 0.20040 0.65510 0.22500
C 	C 	0.62710 0.17820 0.61910 -0.26500
C 	C 	0.64130 0.11580 0.64370 -0.25400
C 	C 	0.60350 0.13870 0.67980 0.19100
C 	C 	0.57670 0.18120 0.68660 -0.26900
C 	C 	0.65090 0.13340 0.60950 0.18800
C 	C 	0.66970 0.07010 0.63830 0.51300
C 	C 	0.70480 0.19760 0.87340 -0.19800
C 	C 	0.70500 0.14820 0.83000 0.10100
C 	C 	0.75000 0.93100 0.69170 0.38500
C 	C 	0.75000 0.87760 0.68490 -0.13600
C 	C 	0.75000 0.77850 0.67290 0.18300
C 	C 	0.75000 0.76070 0.06900 0.38700
C 	C 	0.75000 0.80730 0.12240 -0.14800
C 	C 	0.75000 0.89440 0.22150 0.19900
C 	C 	0.75000 0.30830 0.23930 0.38300
C 	C 	0.75000 0.31510 0.19270 -0.14500
C 	C 	0.75000 0.32710 0.10560 0.17400
C 	C 	0.25000 0.06900 0.30830 0.38300
C 	C 	0.25000 0.12240 0.31510 -0.15000
C 	C 	0.25000 0.22150 0.32710 0.18000
C 	C 	0.25000 0.23930 0.93100 0.38200
C 	C 	0.25000 0.19270 0.87760 -0.13900
C 	C 	0.25000 0.10560 0.77850 0.16500
C 	C 	0.25000 0.69170 0.76070 0.38600
C 	C 	0.25000 0.68490 0.80730 -0.14300
C 	C 	0.25000 0.67290 0.89440 0.18900
C 	C 	0.75000 0.23930 0.30830 0.38200
C 	C 	0.75000 0.19270 0.31510 -0.14200
C 	C 	0.75000 0.10560 0.32710 0.16400
C 	C 	0.75000 0.69170 0.93100 0.38600
C 	C 	0.75000 0.68490 0.87760 -0.14000
C 	C 	0.75000 0.67290 0.77850 0.18400
C 	C 	0.75000 0.06900 0.76070 0.38400
C 	C 	0.75000 0.12240 0.80730 -0.15000
C 	C 	0.75000 0.22150 0.89440 0.18600
C 	C 	0.25000 0.76070 0.69170 0.38700
C 	C 	0.25000 0.80730 0.68490 -0.14500
C 	C 	0.25000 0.89440 0.67290 0.19900
C 	C 	0.25000 0.30830 0.06900 0.38300
C 	C 	0.25000 0.31510 0.12240 -0.14700
C 	C 	0.25000 0.32710 0.22150 0.17900
C 	C 	0.25000 0.93100 0.23930 0.38400
C 	C 	0.25000 0.87760 0.19270 -0.13600
C 	C 	0.25000 0.77850 0.10560 0.17600
N 	N 	0.56300 0.75190 0.41650 -0.34100
N 	N 	0.56300 0.66460 0.24810 -0.34200
N 	N 	0.56300 0.58350 0.33540 -0.34200
N 	N 	0.06300 0.24810 0.58350 -0.34300
N 	N 	0.06300 0.33540 0.75190 -0.34200
N 	N 	0.06300 0.41650 0.66460 -0.34200
N 	N 	0.93700 0.33540 0.58350 -0.34200
N 	N 	0.93700 0.41650 0.75190 -0.34200
N 	N 	0.93700 0.24810 0.66460 -0.34300
N 	N 	0.43700 0.66460 0.41650 -0.34200
N 	N 	0.43700 0.58350 0.24810 -0.34200
N 	N 	0.43700 0.75190 0.33540 -0.34100
N 	N 	0.43700 0.24810 0.58350 -0.34300
N 	N 	0.43700 0.33540 0.75190 -0.34200
N 	N 	0.43700 0.41650 0.66460 -0.34200
N 	N 	0.93700 0.75190 0.41650 -0.34100
N 	N 	0.93700 0.66460 0.24810 -0.34200
N 	N 	0.93700 0.58350 0.33540 -0.34200
N 	N 	0.06300 0.66460 0.41650 -0.34200
N 	N 	0.06300 0.58350 0.24810 -0.34200
N 	N 	0.06300 0.75190 0.33540 -0.34100
N 	N 	0.56300 0.33540 0.58350 -0.34200
N 	N 	0.56300 0.41650 0.75190 -0.34200
N 	N 	0.56300 0.24810 0.66460 -0.34300
N 	N 	0.75000 0.72500 0.66600 -0.29200
N 	N 	0.75000 0.94100 0.27500 -0.30000
N 	N 	0.75000 0.33400 0.05900 -0.29000
N 	N 	0.25000 0.27500 0.33400 -0.29200
N 	N 	0.25000 0.05900 0.72500 -0.28500
N 	N 	0.25000 0.66600 0.94100 -0.29500
N 	N 	0.75000 0.05900 0.33400 -0.28500
N 	N 	0.75000 0.66600 0.72500 -0.29200
N 	N 	0.75000 0.27500 0.94100 -0.29500
N 	N 	0.25000 0.94100 0.66600 -0.30000
N 	N 	0.25000 0.33400 0.27500 -0.29200
N 	N 	0.25000 0.72500 0.05900 -0.29000
Cl	Cl	0.45380 0.78640 0.45530 -0.46600
Cl	Cl	0.45380 0.66890 0.21360 -0.47500
Cl	Cl	0.45380 0.54470 0.33110 -0.47500
Cl	Cl	0.95380 0.21360 0.54470 -0.48100
Cl	Cl	0.95380 0.33110 0.78640 -0.47200
Cl	Cl	0.95380 0.45530 0.66890 -0.47300
Cl	Cl	0.04620 0.33110 0.54470 -0.47400
Cl	Cl	0.04620 0.45530 0.78640 -0.47000
Cl	Cl	0.04620 0.21360 0.66890 -0.48000
Cl	Cl	0.54620 0.66890 0.45530 -0.47300
Cl	Cl	0.54620 0.54470 0.21360 -0.47700
Cl	Cl	0.54620 0.78640 0.33110 -0.46700
Cl	Cl	0.54620 0.21360 0.54470 -0.48100
Cl	Cl	0.54620 0.33110 0.78640 -0.47200
Cl	Cl	0.54620 0.45530 0.66890 -0.47300
Cl	Cl	0.04620 0.78640 0.45530 -0.46600
Cl	Cl	0.04620 0.66890 0.21360 -0.47600
Cl	Cl	0.04620 0.54470 0.33110 -0.47500
Cl	Cl	0.95380 0.66890 0.45530 -0.47200
Cl	Cl	0.95380 0.54470 0.21360 -0.47600
Cl	Cl	0.95380 0.78640 0.33110 -0.46600
Cl	Cl	0.45380 0.33110 0.54470 -0.47500
Cl	Cl	0.45380 0.45530 0.78640 -0.47100
Cl	Cl	0.45380 0.21360 0.66890 -0.48000
Cl	Cl	0.50000 0.66667 0.33334 -0.65500
Cl	Cl	1.00000 0.33333 0.66666 -0.65500
Cl	Cl	0.50000 0.33333 0.66666 -0.65400
Cl	Cl	-0.00000 0.66667 0.33334 -0.65500
O 	O 	0.70290 0.94790 0.55170 -0.52900
O 	O 	0.65840 0.94620 0.61430 -0.51100
O 	O 	0.70460 0.94780 0.69230 -0.48700
O 	O 	0.70290 0.60380 0.05210 -0.56900
O 	O 	0.65840 0.66810 0.05380 -0.55300
O 	O 	0.70460 0.74450 0.05220 -0.52800
O 	O 	0.70290 0.44830 0.39620 -0.56200
O 	O 	0.65840 0.38570 0.33190 -0.54500
O 	O 	0.70460 0.30770 0.25550 -0.52300
O 	O 	0.20290 0.05210 0.44830 -0.57700
O 	O 	0.15840 0.05380 0.38570 -0.55900
O 	O 	0.20460 0.05220 0.30770 -0.53600
O 	O 	0.20290 0.39620 0.94790 -0.55000
O 	O 	0.15840 0.33190 0.94620 -0.53300
O 	O 	0.20460 0.25550 0.94780 -0.51000
O 	O 	0.20290 0.55170 0.60380 -0.56200
O 	O 	0.15840 0.61430 0.66810 -0.54300
O 	O 	0.20460 0.69230 0.74450 -0.51700
O 	O 	0.79710 0.39620 0.44830 -0.56200
O 	O 	0.84160 0.33190 0.38570 -0.54500
O 	O 	0.79540 0.25550 0.30770 -0.52300
O 	O 	0.79710 0.55170 0.94790 -0.55300
O 	O 	0.84160 0.61430 0.94620 -0.53700
O 	O 	0.79540 0.69230 0.94780 -0.51300
O 	O 	0.79710 0.05210 0.60380 -0.57700
O 	O 	0.84160 0.05380 0.66810 -0.55800
O 	O 	0.79540 0.05220 0.74450 -0.53400
O 	O 	0.29710 0.60380 0.55170 -0.56200
O 	O 	0.34160 0.66810 0.61430 -0.54200
O 	O 	0.29540 0.74450 0.69230 -0.51700
O 	O 	0.29710 0.44830 0.05210 -0.56700
O 	O 	0.34160 0.38570 0.05380 -0.55000
O 	O 	0.29540 0.30770 0.05220 -0.52700
O 	O 	0.29710 0.94790 0.39620 -0.52900
O 	O 	0.34160 0.94620 0.33190 -0.51100
O 	O 	0.29540 0.94780 0.25550 -0.48800
O 	O 	0.29710 0.05210 0.44830 -0.57700
O 	O 	0.34160 0.05380 0.38570 -0.55900
O 	O 	0.29540 0.05220 0.30770 -0.53600
O 	O 	0.29710 0.39620 0.94790 -0.55000
O 	O 	0.34160 0.33190 0.94620 -0.53300
O 	O 	0.29540 0.25550 0.94780 -0.51000
O 	O 	0.29710 0.55170 0.60380 -0.56200
O 	O 	0.34160 0.61430 0.66810 -0.54300
O 	O 	0.29540 0.69230 0.74450 -0.51700
O 	O 	0.79710 0.94790 0.55170 -0.52900
O 	O 	0.84160 0.94620 0.61430 -0.51100
O 	O 	0.79540 0.94780 0.69230 -0.48700
O 	O 	0.79710 0.60380 0.05210 -0.56900
O 	O 	0.84160 0.66810 0.05380 -0.55200
O 	O 	0.79540 0.74450 0.05220 -0.52800
O 	O 	0.79710 0.44830 0.39620 -0.56200
O 	O 	0.84160 0.38570 0.33190 -0.54500
O 	O 	0.79540 0.30770 0.25550 -0.52300
O 	O 	0.20290 0.60380 0.55170 -0.56200
O 	O 	0.15840 0.66810 0.61430 -0.54200
O 	O 	0.20460 0.74450 0.69230 -0.51700
O 	O 	0.20290 0.44830 0.05210 -0.56700
O 	O 	0.15840 0.38570 0.05380 -0.55000
O 	O 	0.20460 0.30770 0.05220 -0.52700
O 	O 	0.20290 0.94790 0.39620 -0.52900
O 	O 	0.15840 0.94620 0.33190 -0.51200
O 	O 	0.20460 0.94780 0.25550 -0.48900
O 	O 	0.70290 0.39620 0.44830 -0.56200
O 	O 	0.65840 0.33190 0.38570 -0.54500
O 	O 	0.70460 0.25550 0.30770 -0.52300
O 	O 	0.70290 0.55170 0.94790 -0.55300
O 	O 	0.65840 0.61430 0.94620 -0.53700
O 	O 	0.70460 0.69230 0.94780 -0.51200
O 	O 	0.70290 0.05210 0.60380 -0.57700
O 	O 	0.65840 0.05380 0.66810 -0.55800
O 	O 	0.70460 0.05220 0.74450 -0.53400
O 	O 	0.75000 0.00000 0.64590 -0.85100
O 	O 	0.75000 0.64590 1.00000 -0.80700
O 	O 	0.75000 0.35410 0.35410 -0.82000
O 	O 	0.25000 0.00000 0.35410 -0.85100
O 	O 	0.25000 0.35410 -0.00000 -0.83100
O 	O 	0.25000 0.64590 0.64590 -0.82100
