data_crystal

_cell_length_a 14.00030
_cell_length_b 12.16920
_cell_length_c 14.67110
_cell_angle_alpha 90.00000
_cell_angle_beta  105.86700
_cell_angle_gamma 90.00000

_symmetry_space_group_name_	'P 1'
_symmetry_space_group_name_H-M	'P 1'

loop_
_symmetry_equiv_pos_as_xyz
  x,y,z

loop_
_atom_site_label
_atom_site_type_symbol
_atom_site_fract_x
_atom_site_fract_y
_atom_site_fract_z
_atom_site_charge
Zn	Zn	0.35037 0.52140 0.65771 1.22800
Zn	Zn	0.19539 0.74271 0.57481 1.20900
O 	O 	0.20978 0.56795 0.59683 -0.53900
O 	O 	0.17537 0.41115 0.51503 -0.28100
O 	O 	0.82363 0.71376 0.17490 -0.46100
O 	O 	0.89639 0.86364 0.25475 -0.47500
O 	O 	0.32892 0.40174 0.75069 -0.42500
O 	O 	0.39140 0.24611 0.82697 -0.41200
O 	O 	0.71226 0.26643 0.52288 -0.43700
O 	O 	0.61254 0.40680 0.45719 -0.45200
N 	N 	0.07964 0.67905 0.46227 -0.22900
N 	N 	0.46331 0.40750 0.65702 -0.22300
C 	C 	0.08040 0.56910 0.45302 -0.00100
C 	C 	0.01470 0.51410 0.37900 -0.07400
H 	H 	0.01490 0.43620 0.37560 0.07400
C 	C 	0.94850 0.57560 0.31010 0.05200
H 	H 	0.90250 0.54010 0.25890 0.03300
C 	C 	0.95020 0.68920 0.31682 -0.13600
C 	C 	0.01640 0.73760 0.39546 0.09800
H 	H 	0.01640 0.81530 0.40160 -0.00900
C 	C 	0.16030 0.50830 0.52620 0.30100
C 	C 	0.88350 0.76100 0.24260 0.41000
C 	C 	0.46220 0.31660 0.70909 -0.02200
C 	C 	0.52320 0.22760 0.70700 -0.05800
H 	H 	0.52310 0.16540 0.74600 0.06200
C 	C 	0.58510 0.23060 0.64640 0.03100
H 	H 	0.62680 0.16990 0.64320 0.03300
C 	C 	0.58480 0.32310 0.59130 -0.12500
C 	C 	0.52510 0.41100 0.60180 0.08100
H 	H 	0.52840 0.47690 0.56800 0.01900
C 	C 	0.38800 0.32140 0.76761 0.31800
C 	C 	0.64320 0.33190 0.51820 0.40200
Zn	Zn	0.14963 0.02140 0.84229 1.22700
Zn	Zn	0.30461 0.24271 0.92519 1.20900
O 	O 	0.29022 0.06795 0.90317 -0.53800
O 	O 	0.32463 0.91115 0.98497 -0.27000
O 	O 	0.67637 0.21376 0.32510 -0.46000
O 	O 	0.60361 0.36364 0.24525 -0.47300
O 	O 	0.17108 0.90174 0.74931 -0.42200
O 	O 	0.10860 0.74611 0.67303 -0.41000
O 	O 	0.78774 0.76643 0.97712 -0.43700
O 	O 	0.88746 0.90680 0.04281 -0.45900
N 	N 	0.42036 0.17905 0.03773 -0.22800
N 	N 	0.03669 0.90750 0.84298 -0.22000
C 	C 	0.41960 0.06910 0.04698 0.00500
C 	C 	0.48530 0.01410 0.12100 -0.06500
H 	H 	0.48510 0.93620 0.12440 0.06800
C 	C 	0.55150 0.07560 0.18990 0.04700
H 	H 	0.59750 0.04010 0.24110 0.03600
C 	C 	0.54980 0.18920 0.18318 -0.13000
C 	C 	0.48360 0.23760 0.10454 0.09400
H 	H 	0.48360 0.31530 0.09840 -0.00800
C 	C 	0.33970 0.00830 0.97380 0.28400
C 	C 	0.61650 0.26100 0.25740 0.40900
C 	C 	0.03780 0.81660 0.79091 -0.01700
C 	C 	0.97680 0.72760 0.79300 -0.06400
H 	H 	0.97690 0.66540 0.75400 0.06400
C 	C 	0.91490 0.73060 0.85360 0.03400
H 	H 	0.87320 0.66990 0.85680 0.03200
C 	C 	0.91520 0.82310 0.90870 -0.12700
C 	C 	0.97490 0.91100 0.89820 0.07900
H 	H 	0.97160 0.97690 0.93200 0.02100
C 	C 	0.11200 0.82140 0.73239 0.31700
C 	C 	0.85680 0.83190 0.98180 0.40900
Zn	Zn	0.64963 0.47860 0.34229 1.22900
Zn	Zn	0.80461 0.25729 0.42519 1.21000
O 	O 	0.79022 0.43205 0.40317 -0.53900
O 	O 	0.82463 0.58885 0.48497 -0.28100
O 	O 	0.17637 0.28624 0.82510 -0.46100
O 	O 	0.10361 0.13636 0.74525 -0.47500
O 	O 	0.67108 0.59826 0.24931 -0.42500
O 	O 	0.60860 0.75389 0.17303 -0.41200
O 	O 	0.28774 0.73357 0.47712 -0.43700
O 	O 	0.38746 0.59320 0.54281 -0.45200
N 	N 	0.92036 0.32095 0.53773 -0.22900
N 	N 	0.53669 0.59250 0.34298 -0.22300
C 	C 	0.91960 0.43090 0.54698 -0.00100
C 	C 	0.98530 0.48590 0.62100 -0.07400
H 	H 	0.98510 0.56380 0.62440 0.07400
C 	C 	0.05150 0.42440 0.68990 0.05200
H 	H 	0.09750 0.45990 0.74110 0.03300
C 	C 	0.04980 0.31080 0.68318 -0.13600
C 	C 	0.98360 0.26240 0.60454 0.09800
H 	H 	0.98360 0.18470 0.59840 -0.00900
C 	C 	0.83970 0.49170 0.47380 0.30100
C 	C 	0.11650 0.23900 0.75740 0.41000
C 	C 	0.53780 0.68340 0.29091 -0.02200
C 	C 	0.47680 0.77240 0.29300 -0.05800
H 	H 	0.47690 0.83460 0.25400 0.06200
C 	C 	0.41490 0.76940 0.35360 0.03100
H 	H 	0.37320 0.83010 0.35680 0.03300
C 	C 	0.41520 0.67690 0.40870 -0.12500
C 	C 	0.47490 0.58900 0.39820 0.08100
H 	H 	0.47160 0.52310 0.43200 0.01900
C 	C 	0.61200 0.67860 0.23239 0.31800
C 	C 	0.35680 0.66810 0.48180 0.40200
Zn	Zn	0.85037 0.97860 0.15771 1.22700
Zn	Zn	0.69539 0.75729 0.07481 1.20900
O 	O 	0.70978 0.93205 0.09683 -0.53800
O 	O 	0.67537 0.08885 0.01503 -0.27000
O 	O 	0.32363 0.78624 0.67490 -0.46000
O 	O 	0.39639 0.63636 0.75475 -0.47300
O 	O 	0.82892 0.09826 0.25069 -0.42200
O 	O 	0.89140 0.25389 0.32697 -0.41000
O 	O 	0.21226 0.23357 0.02288 -0.43700
O 	O 	0.11254 0.09320 0.95719 -0.45900
N 	N 	0.57964 0.82095 0.96227 -0.22800
N 	N 	0.96331 0.09250 0.15702 -0.22000
C 	C 	0.58040 0.93090 0.95302 0.00500
C 	C 	0.51470 0.98590 0.87900 -0.06500
H 	H 	0.51490 0.06380 0.87560 0.06800
C 	C 	0.44850 0.92440 0.81010 0.04700
H 	H 	0.40250 0.95990 0.75890 0.03600
C 	C 	0.45020 0.81080 0.81682 -0.13000
C 	C 	0.51640 0.76240 0.89546 0.09400
H 	H 	0.51640 0.68470 0.90160 -0.00800
C 	C 	0.66030 0.99170 0.02620 0.28400
C 	C 	0.38350 0.73900 0.74260 0.40900
C 	C 	0.96220 0.18340 0.20909 -0.01700
C 	C 	0.02320 0.27240 0.20700 -0.06400
H 	H 	0.02310 0.33460 0.24600 0.06400
C 	C 	0.08510 0.26940 0.14640 0.03400
H 	H 	0.12680 0.33010 0.14320 0.03200
C 	C 	0.08480 0.17690 0.09130 -0.12700
C 	C 	0.02510 0.08900 0.10180 0.07900
H 	H 	0.02840 0.02310 0.06800 0.02100
C 	C 	0.88800 0.17860 0.26761 0.31700
C 	C 	0.14320 0.16810 0.01820 0.40900
