data_crystal

_cell_length_a 15.19900
_cell_length_b 16.95800
_cell_length_c 19.93200
_cell_angle_alpha 90.00000
_cell_angle_beta  90.92700
_cell_angle_gamma 90.00000

_symmetry_space_group_name_	'P 1'
_symmetry_space_group_name_H-M	'P 1'

loop_
_symmetry_equiv_pos_as_xyz
  x,y,z

loop_
_atom_site_label
_atom_site_type_symbol
_atom_site_fract_x
_atom_site_fract_y
_atom_site_fract_z
_atom_site_charge
Na	Na	0.80380 0.98800 0.49360 0.56300
Na	Na	0.81260 0.84430 0.62660 0.57000
Na	Na	0.01690 0.79310 0.70990 0.56700
Na	Na	0.79650 0.11290 0.35380 0.58300
Na	Na	0.58480 0.04360 0.41480 0.56100
Na	Na	0.00470 0.93330 0.57180 0.50700
O 	O 	0.73550 0.14100 0.24730 -0.48800
O 	O 	0.92320 0.62450 0.32570 -0.53100
O 	O 	0.80320 0.70170 0.38280 -0.51400
O 	O 	0.78430 0.79910 0.27970 -0.44400
O 	O 	0.91910 0.72160 0.22180 -0.46000
O 	O 	0.97180 0.65600 0.44460 -0.48300
O 	O 	0.12560 0.71380 0.40270 -0.42000
O 	O 	0.06980 0.68330 0.27660 -0.44900
O 	O 	0.07390 0.76650 0.15390 -0.48200
O 	O 	0.11820 0.83650 0.27720 -0.44400
O 	O 	0.96580 0.87340 0.22110 -0.45200
O 	O 	0.07670 0.98590 0.26140 -0.44800
O 	O 	0.06200 0.93020 0.68910 -0.53800
O 	O 	0.83480 0.94780 0.27540 -0.46300
O 	O 	0.73450 0.98330 0.38200 -0.51900
O 	O 	0.69000 0.82700 0.38420 -0.47900
O 	O 	0.66720 0.71720 0.48500 -0.47900
O 	O 	0.74310 0.86080 0.51230 -0.51900
O 	O 	0.96080 0.80080 0.59430 -0.54600
O 	O 	0.09110 0.72310 0.52950 -0.43900
O 	O 	0.14700 0.87840 0.53390 -0.58300
O 	O 	0.16970 0.86400 0.40090 -0.48000
O 	O 	0.84930 0.73540 0.50640 -0.52600
O 	O 	0.96220 0.77530 0.33960 -0.38300
O 	O 	0.99630 0.91860 0.35750 -0.43900
O 	O 	0.00140 0.82310 0.45620 -0.43800
O 	O 	0.85620 0.86080 0.40270 -0.42100
O 	O 	0.14010 0.02100 0.38750 -0.57900
O 	O 	0.65580 0.15890 0.39670 -0.32400
O 	O 	0.15480 0.74800 0.66430 -0.28400
O 	O 	0.88100 0.84900 0.73740 -0.33300
O 	O 	0.66020 0.03970 0.52180 -0.34900
P 	P 	0.95392 0.84506 0.39028 0.52200
Ru	Ru	0.85692 0.59098 0.41301 0.95300
W 	W 	0.83697 0.70462 0.29026 1.26200
W 	W 	0.04215 0.65224 0.36464 0.95300
W 	W 	0.03039 0.78377 0.23231 1.24600
W 	W 	0.94902 0.98802 0.25817 0.98600
W 	W 	0.74226 0.90390 0.32510 0.96500
W 	W 	0.75142 0.77906 0.45896 1.20500
W 	W 	0.96609 0.72218 0.53728 0.94200
W 	W 	0.15448 0.79956 0.47761 0.98500
W 	W 	0.14552 0.93935 0.33296 0.96700
C 	C 	0.89320 0.47590 0.45270 -0.11800
H 	H 	0.94840 0.45490 0.46240 0.01900
C 	C 	0.84600 0.52040 0.50270 -0.14700
H 	H 	0.87030 0.52650 0.54550 0.02100
C 	C 	0.76350 0.55240 0.48760 -0.11700
H 	H 	0.73340 0.58000 0.52040 0.04000
C 	C 	0.72820 0.54300 0.42660 -0.12500
H 	H 	0.67390 0.56610 0.41740 0.03500
C 	C 	0.76820 0.50140 0.37400 -0.13800
H 	H 	0.74250 0.49500 0.33170 0.05100
C 	C 	0.85650 0.46720 0.38990 -0.13700
H 	H 	0.88650 0.43890 0.35750 0.03400
Na	Na	0.99940 0.01840 0.47830 0.42700
Na	Na	0.02090 0.79210 0.03720 0.56000
Na	Na	0.69620 0.48800 0.00640 0.56100
Na	Na	0.68740 0.34430 0.87340 0.56900
Na	Na	0.48310 0.29310 0.79010 0.56800
Na	Na	0.70350 0.61290 0.14620 0.58300
Na	Na	0.91520 0.54360 0.08520 0.56100
Na	Na	0.49530 0.43330 0.92820 0.50800
O 	O 	0.76450 0.64100 0.25270 -0.48800
O 	O 	0.57680 0.12450 0.17430 -0.53200
O 	O 	0.69680 0.20170 0.11720 -0.51400
O 	O 	0.71570 0.29910 0.22030 -0.44400
O 	O 	0.58090 0.22160 0.27820 -0.46200
O 	O 	0.52820 0.15600 0.05540 -0.48400
O 	O 	0.37440 0.21380 0.09730 -0.41900
O 	O 	0.43020 0.18330 0.22340 -0.44900
O 	O 	0.42610 0.26650 0.34610 -0.48200
O 	O 	0.38180 0.33650 0.22280 -0.44400
O 	O 	0.53420 0.37340 0.27890 -0.45400
O 	O 	0.42330 0.48590 0.23860 -0.44500
O 	O 	0.43800 0.43020 0.81090 -0.53400
O 	O 	0.66520 0.44780 0.22460 -0.46200
O 	O 	0.76550 0.48330 0.11800 -0.52000
O 	O 	0.81000 0.32700 0.11580 -0.47900
O 	O 	0.83280 0.21720 0.01500 -0.48000
O 	O 	0.75690 0.36080 0.98770 -0.52000
O 	O 	0.53920 0.30080 0.90570 -0.54800
O 	O 	0.40890 0.22310 0.97050 -0.43800
O 	O 	0.35300 0.37840 0.96610 -0.58200
O 	O 	0.33030 0.36400 0.09910 -0.48000
O 	O 	0.65070 0.23540 0.99360 -0.52600
O 	O 	0.53780 0.27530 0.16040 -0.38400
O 	O 	0.50370 0.41860 0.14250 -0.44100
O 	O 	0.49860 0.32310 0.04380 -0.43600
O 	O 	0.64380 0.36080 0.09730 -0.42100
O 	O 	0.35990 0.52100 0.11250 -0.58200
O 	O 	0.84420 0.65890 0.10330 -0.32300
O 	O 	0.34520 0.24800 0.83570 -0.28300
O 	O 	0.61900 0.34900 0.76260 -0.33500
O 	O 	0.83980 0.53970 0.97820 -0.34800
P 	P 	0.54608 0.34506 0.10972 0.52000
Ru	Ru	0.64308 0.09098 0.08699 0.95200
W 	W 	0.66303 0.20462 0.20974 1.26200
W 	W 	0.45785 0.15224 0.13536 0.95500
W 	W 	0.46961 0.28377 0.26769 1.25100
W 	W 	0.55098 0.48802 0.24183 0.97700
W 	W 	0.75774 0.40390 0.17490 0.96400
W 	W 	0.74858 0.27906 0.04104 1.20500
W 	W 	0.53391 0.22218 0.96272 0.93900
W 	W 	0.34552 0.29956 0.02239 0.98500
W 	W 	0.35448 0.43935 0.16704 0.97100
C 	C 	0.60680 0.97590 0.04730 -0.12600
H 	H 	0.55160 0.95490 0.03760 0.02200
C 	C 	0.65400 0.02040 0.99730 -0.13700
H 	H 	0.62970 0.02650 0.95450 0.01700
C 	C 	0.73650 0.05240 0.01240 -0.13100
H 	H 	0.76660 0.08000 0.97960 0.04500
C 	C 	0.77180 0.04300 0.07340 -0.11000
H 	H 	0.82610 0.06610 0.08260 0.02900
C 	C 	0.73180 0.00140 0.12600 -0.15700
H 	H 	0.75750 0.99500 0.16830 0.05900
C 	C 	0.64350 0.96720 0.11010 -0.12400
H 	H 	0.61350 0.93890 0.14250 0.02900
Na	Na	0.50060 0.51840 0.02170 0.42700
Na	Na	0.47910 0.29210 0.46280 0.56000
Na	Na	0.19620 0.01200 0.50640 0.56200
Na	Na	0.18740 0.15570 0.37340 0.56900
Na	Na	0.98310 0.20690 0.29010 0.56700
Na	Na	0.20350 0.88710 0.64620 0.58300
Na	Na	0.41520 0.95640 0.58520 0.56100
Na	Na	0.99530 0.06670 0.42820 0.50700
O 	O 	0.26450 0.85900 0.75270 -0.48800
O 	O 	0.07680 0.37550 0.67430 -0.53100
O 	O 	0.19680 0.29830 0.61720 -0.51400
O 	O 	0.21570 0.20090 0.72030 -0.44400
O 	O 	0.08090 0.27840 0.77820 -0.46000
O 	O 	0.02820 0.34400 0.55540 -0.48300
O 	O 	0.87440 0.28620 0.59730 -0.42000
O 	O 	0.93020 0.31670 0.72340 -0.44900
O 	O 	0.92610 0.23350 0.84610 -0.48200
O 	O 	0.88180 0.16350 0.72280 -0.44400
O 	O 	0.03420 0.12660 0.77890 -0.45200
O 	O 	0.92330 0.01410 0.73860 -0.44800
O 	O 	0.93800 0.06980 0.31090 -0.53800
O 	O 	0.16520 0.05220 0.72460 -0.46300
O 	O 	0.26550 0.01670 0.61800 -0.51900
O 	O 	0.31000 0.17300 0.61580 -0.47900
O 	O 	0.33280 0.28280 0.51500 -0.47900
O 	O 	0.25690 0.13920 0.48770 -0.51900
O 	O 	0.03920 0.19920 0.40570 -0.54600
O 	O 	0.90890 0.27690 0.47050 -0.43900
O 	O 	0.85300 0.12160 0.46610 -0.58300
O 	O 	0.83030 0.13600 0.59910 -0.48000
O 	O 	0.15070 0.26460 0.49360 -0.52600
O 	O 	0.03780 0.22470 0.66040 -0.38300
O 	O 	0.00370 0.08140 0.64250 -0.43900
O 	O 	0.99860 0.17690 0.54380 -0.43800
O 	O 	0.14380 0.13920 0.59730 -0.42100
O 	O 	0.85990 0.97900 0.61250 -0.57900
O 	O 	0.34420 0.84110 0.60330 -0.32400
O 	O 	0.84520 0.25200 0.33570 -0.28400
O 	O 	0.11900 0.15100 0.26260 -0.33300
O 	O 	0.33980 0.96030 0.47820 -0.34900
P 	P 	0.04608 0.15494 0.60972 0.52200
Ru	Ru	0.14308 0.40902 0.58699 0.95300
W 	W 	0.16303 0.29538 0.70974 1.26200
W 	W 	0.95785 0.34776 0.63536 0.95300
W 	W 	0.96961 0.21623 0.76769 1.24600
W 	W 	0.05098 0.01198 0.74183 0.98600
W 	W 	0.25774 0.09610 0.67490 0.96500
W 	W 	0.24858 0.22094 0.54104 1.20500
W 	W 	0.03391 0.27782 0.46272 0.94200
W 	W 	0.84552 0.20044 0.52239 0.98500
W 	W 	0.85448 0.06065 0.66704 0.96700
C 	C 	0.10680 0.52410 0.54730 -0.11800
H 	H 	0.05160 0.54510 0.53760 0.01900
C 	C 	0.15400 0.47960 0.49730 -0.14700
H 	H 	0.12970 0.47350 0.45450 0.02100
C 	C 	0.23650 0.44760 0.51240 -0.11700
H 	H 	0.26660 0.42000 0.47960 0.04000
C 	C 	0.27180 0.45700 0.57340 -0.12500
H 	H 	0.32610 0.43390 0.58260 0.03500
C 	C 	0.23180 0.49860 0.62600 -0.13800
H 	H 	0.25750 0.50500 0.66830 0.05100
C 	C 	0.14350 0.53280 0.61010 -0.13700
H 	H 	0.11350 0.56110 0.64250 0.03400
Na	Na	0.00060 0.98160 0.52170 0.42700
Na	Na	0.97910 0.20790 0.96280 0.56000
Na	Na	0.30380 0.51200 0.99360 0.56100
Na	Na	0.31260 0.65570 0.12660 0.56900
Na	Na	0.51690 0.70690 0.20990 0.56800
Na	Na	0.29650 0.38710 0.85380 0.58300
Na	Na	0.08480 0.45640 0.91480 0.56100
Na	Na	0.50470 0.56670 0.07180 0.50800
O 	O 	0.23550 0.35900 0.74730 -0.48800
O 	O 	0.42320 0.87550 0.82570 -0.53200
O 	O 	0.30320 0.79830 0.88280 -0.51400
O 	O 	0.28430 0.70090 0.77970 -0.44400
O 	O 	0.41910 0.77840 0.72180 -0.46200
O 	O 	0.47180 0.84400 0.94460 -0.48400
O 	O 	0.62560 0.78620 0.90270 -0.41900
O 	O 	0.56980 0.81670 0.77660 -0.44900
O 	O 	0.57390 0.73350 0.65390 -0.48200
O 	O 	0.61820 0.66350 0.77720 -0.44400
O 	O 	0.46580 0.62660 0.72110 -0.45400
O 	O 	0.57670 0.51410 0.76140 -0.44500
O 	O 	0.56200 0.56980 0.18910 -0.53400
O 	O 	0.33480 0.55220 0.77540 -0.46200
O 	O 	0.23450 0.51670 0.88200 -0.52000
O 	O 	0.19000 0.67300 0.88420 -0.47900
O 	O 	0.16720 0.78280 0.98500 -0.48000
O 	O 	0.24310 0.63920 0.01230 -0.52000
O 	O 	0.46080 0.69920 0.09430 -0.54800
O 	O 	0.59110 0.77690 0.02950 -0.43800
O 	O 	0.64700 0.62160 0.03390 -0.58200
O 	O 	0.66970 0.63600 0.90090 -0.48000
O 	O 	0.34930 0.76460 0.00640 -0.52600
O 	O 	0.46220 0.72470 0.83960 -0.38400
O 	O 	0.49630 0.58140 0.85750 -0.44100
O 	O 	0.50140 0.67690 0.95620 -0.43600
O 	O 	0.35620 0.63920 0.90270 -0.42100
O 	O 	0.64010 0.47900 0.88750 -0.58200
O 	O 	0.15580 0.34110 0.89670 -0.32300
O 	O 	0.65480 0.75200 0.16430 -0.28300
O 	O 	0.38100 0.65100 0.23740 -0.33500
O 	O 	0.16020 0.46030 0.02180 -0.34800
P 	P 	0.45392 0.65494 0.89028 0.52000
Ru	Ru	0.35692 0.90902 0.91301 0.95200
W 	W 	0.33697 0.79538 0.79026 1.26200
W 	W 	0.54215 0.84776 0.86464 0.95500
W 	W 	0.53039 0.71623 0.73231 1.25100
W 	W 	0.44902 0.51198 0.75817 0.97700
W 	W 	0.24226 0.59610 0.82510 0.96400
W 	W 	0.25142 0.72094 0.95896 1.20500
W 	W 	0.46609 0.77782 0.03728 0.93900
W 	W 	0.65448 0.70044 0.97761 0.98500
W 	W 	0.64552 0.56065 0.83296 0.97100
C 	C 	0.39320 0.02410 0.95270 -0.12600
H 	H 	0.44840 0.04510 0.96240 0.02200
C 	C 	0.34600 0.97960 0.00270 -0.13700
H 	H 	0.37030 0.97350 0.04550 0.01700
C 	C 	0.26350 0.94760 0.98760 -0.13100
H 	H 	0.23340 0.92000 0.02040 0.04500
C 	C 	0.22820 0.95700 0.92660 -0.11000
H 	H 	0.17390 0.93390 0.91740 0.02900
C 	C 	0.26820 0.99860 0.87400 -0.15700
H 	H 	0.24250 0.00500 0.83170 0.05900
C 	C 	0.35650 0.03280 0.88990 -0.12400
H 	H 	0.38650 0.06110 0.85750 0.02900
Na	Na	0.49940 0.48160 0.97830 0.42700
Na	Na	0.52090 0.70790 0.53720 0.56000
