data_crystal

_cell_length_a 22.55610
_cell_length_b 17.43680
_cell_length_c 10.19950
_cell_angle_alpha 90.00000
_cell_angle_beta  109.40200
_cell_angle_gamma 90.00000

_symmetry_space_group_name_	'P 1'
_symmetry_space_group_name_H-M	'P 1'

loop_
_symmetry_equiv_pos_as_xyz
  x,y,z

loop_
_atom_site_label
_atom_site_type_symbol
_atom_site_fract_x
_atom_site_fract_y
_atom_site_fract_z
_atom_site_charge
Sr	Sr	0.33828 0.10270 0.52899 1.51800
P 	P 	0.47658 0.15600 0.45982 0.42600
P 	P 	0.60911 0.08730 0.57917 0.44400
P 	P 	0.19428 0.17905 0.59832 0.43700
P 	P 	0.19190 0.01526 0.47234 0.43500
O 	O 	0.45668 0.12889 0.57890 -0.51000
O 	O 	0.45797 0.10558 0.33290 -0.41400
O 	O 	0.44930 0.23979 0.41480 -0.38700
H 	H 	0.41450 0.24350 0.42340 0.27300
O 	O 	0.60113 0.06688 0.71580 -0.52600
O 	O 	0.59407 0.02782 0.46730 -0.48700
O 	O 	0.67846 0.11579 0.60400 -0.42900
H 	H 	0.69270 0.13510 0.68150 0.27100
O 	O 	0.25973 0.01137 0.55960 -0.39400
O 	O 	0.16331 0.25586 0.55260 -0.39200
O 	O 	0.20536 0.14282 0.35790 -0.38600
H 	H 	0.21350 0.19000 0.35600 0.21500
O 	O 	0.17254 0.97965 0.32970 -0.24200
O 	O 	0.16537 0.14785 0.70820 -0.40300
H 	H 	0.17680 0.10350 0.72810 0.27900
O 	O 	0.14908 0.97917 0.55150 -0.39300
H 	H 	0.16030 0.99520 0.63160 0.27000
O 	O 	0.26522 0.18041 0.65290 -0.38100
O 	O 	0.57597 0.20595 0.39890 -0.27200
H 	H 	0.56550 0.17550 0.33400 0.23400
C 	C 	0.56128 0.17413 0.51560 -0.03900
C 	C 	0.57783 0.23388 0.63230 0.03400
C 	C 	0.16867 0.11680 0.44390 -0.04200
C 	C 	0.09789 0.12302 0.36770 0.04000
Sr	Sr	0.83828 0.60270 0.52899 1.51900
P 	P 	0.97658 0.65600 0.45982 0.47800
P 	P 	0.10911 0.58730 0.57917 0.44500
P 	P 	0.69428 0.67905 0.59832 0.43900
P 	P 	0.69190 0.51526 0.47234 0.43700
O 	O 	0.95668 0.62889 0.57890 -0.48600
O 	O 	0.95797 0.60558 0.33290 -0.39000
O 	O 	0.94930 0.73979 0.41480 -0.36200
H 	H 	0.91450 0.74350 0.42340 0.26700
O 	O 	0.10113 0.56688 0.71580 -0.53600
O 	O 	0.09407 0.52782 0.46730 -0.50000
O 	O 	0.17846 0.61579 0.60400 -0.42700
H 	H 	0.19270 0.63510 0.68150 0.27100
O 	O 	0.75973 0.51137 0.55960 -0.39400
O 	O 	0.66331 0.75586 0.55260 -0.39100
O 	O 	0.70536 0.64282 0.35790 -0.38400
H 	H 	0.71350 0.69000 0.35600 0.21500
O 	O 	0.67254 0.47965 0.32970 -0.23600
O 	O 	0.66537 0.64785 0.70820 -0.39700
H 	H 	0.67680 0.60350 0.72810 0.28000
O 	O 	0.64908 0.47917 0.55150 -0.38300
H 	H 	0.66030 0.49520 0.63160 0.26900
O 	O 	0.76522 0.68041 0.65290 -0.38200
O 	O 	0.07597 0.70595 0.39890 -0.27500
H 	H 	0.06550 0.67550 0.33400 0.22200
C 	C 	0.06128 0.67413 0.51560 -0.08500
C 	C 	0.07783 0.73388 0.63230 0.01200
C 	C 	0.66867 0.61680 0.44390 -0.04500
C 	C 	0.59789 0.62302 0.36770 0.06800
Sr	Sr	0.66172 0.10270 0.97101 1.51700
P 	P 	0.52342 0.15600 0.04018 0.43600
P 	P 	0.39089 0.08730 0.92083 0.44100
P 	P 	0.80572 0.17905 0.90168 0.43600
P 	P 	0.80810 0.01526 0.02766 0.44900
O 	O 	0.54332 0.12889 0.92110 -0.51500
O 	O 	0.54203 0.10558 0.16710 -0.41300
O 	O 	0.55070 0.23979 0.08520 -0.38700
H 	H 	0.58550 0.24350 0.07660 0.27400
O 	O 	0.39887 0.06688 0.78420 -0.52500
O 	O 	0.40593 0.02782 0.03270 -0.48100
O 	O 	0.32154 0.11579 0.89600 -0.43100
H 	H 	0.30730 0.13510 0.81850 0.27100
O 	O 	0.74027 0.01137 0.94040 -0.40100
O 	O 	0.83669 0.25586 0.94740 -0.39100
O 	O 	0.79464 0.14282 0.14210 -0.38200
H 	H 	0.78650 0.19000 0.14400 0.21500
O 	O 	0.82746 0.97965 0.17030 -0.23300
O 	O 	0.83463 0.14785 0.79180 -0.39100
H 	H 	0.82320 0.10350 0.77190 0.27900
O 	O 	0.85092 0.97917 0.94850 -0.37900
H 	H 	0.83970 0.99520 0.86840 0.27100
O 	O 	0.73478 0.18041 0.84710 -0.38300
O 	O 	0.42403 0.20595 0.10110 -0.26500
H 	H 	0.43450 0.17550 0.16600 0.23300
C 	C 	0.43872 0.17413 0.98440 -0.04700
C 	C 	0.42217 0.23388 0.86770 0.03400
C 	C 	0.83133 0.11680 0.05610 -0.04600
C 	C 	0.90211 0.12302 0.13230 0.09900
Sr	Sr	0.16172 0.60270 0.97101 1.51800
P 	P 	0.02342 0.65600 0.04018 0.38500
P 	P 	0.89089 0.58730 0.92083 0.44100
P 	P 	0.30572 0.67905 0.90168 0.43700
P 	P 	0.30810 0.51526 0.02766 0.44400
O 	O 	0.04332 0.62889 0.92110 -0.53300
O 	O 	0.04203 0.60558 0.16710 -0.43200
O 	O 	0.05070 0.73979 0.08520 -0.41100
H 	H 	0.08550 0.74350 0.07660 0.27900
O 	O 	0.89887 0.56688 0.78420 -0.51000
O 	O 	0.90593 0.52782 0.03270 -0.46600
O 	O 	0.82154 0.61579 0.89600 -0.43200
H 	H 	0.80730 0.63510 0.81850 0.27100
O 	O 	0.24027 0.51137 0.94040 -0.39800
O 	O 	0.33669 0.75586 0.94740 -0.39200
O 	O 	0.29464 0.64282 0.14210 -0.38400
H 	H 	0.28650 0.69000 0.14400 0.21500
O 	O 	0.32746 0.47965 0.17030 -0.23700
O 	O 	0.33463 0.64785 0.79180 -0.39700
H 	H 	0.32320 0.60350 0.77190 0.28000
O 	O 	0.35092 0.47917 0.94850 -0.38800
H 	H 	0.33970 0.49520 0.86840 0.27000
O 	O 	0.23478 0.68041 0.84710 -0.38200
O 	O 	0.92403 0.70595 0.10110 -0.26400
H 	H 	0.93450 0.67550 0.16600 0.24600
C 	C 	0.93872 0.67413 0.98440 0.00100
C 	C 	0.92217 0.73388 0.86770 0.05600
C 	C 	0.33133 0.61680 0.05610 -0.04300
C 	C 	0.40211 0.62302 0.13230 0.06900
Sr	Sr	0.66172 0.89730 0.47101 1.51900
P 	P 	0.52342 0.84400 0.54018 0.42700
P 	P 	0.39089 0.91270 0.42083 0.44500
P 	P 	0.80572 0.82095 0.40168 0.44100
P 	P 	0.80810 0.98474 0.52766 0.43800
O 	O 	0.54332 0.87111 0.42110 -0.50900
O 	O 	0.54203 0.89442 0.66710 -0.41300
O 	O 	0.55070 0.76021 0.58520 -0.38700
H 	H 	0.58550 0.75650 0.57660 0.27200
O 	O 	0.39887 0.93312 0.28420 -0.52500
O 	O 	0.40593 0.97218 0.53270 -0.48700
O 	O 	0.32154 0.88421 0.39600 -0.42900
H 	H 	0.30730 0.86490 0.31850 0.27100
O 	O 	0.74027 0.98863 0.44040 -0.39400
O 	O 	0.83669 0.74414 0.44740 -0.38800
O 	O 	0.79464 0.85718 0.64210 -0.38300
H 	H 	0.78650 0.81000 0.64400 0.21400
O 	O 	0.82746 0.02035 0.67030 -0.23200
O 	O 	0.83463 0.85215 0.29180 -0.39100
H 	H 	0.82320 0.89650 0.27190 0.28100
O 	O 	0.85092 0.02083 0.44850 -0.37300
H 	H 	0.83970 0.00480 0.36840 0.26900
O 	O 	0.73478 0.81959 0.34710 -0.38200
O 	O 	0.42403 0.79405 0.60110 -0.27200
H 	H 	0.43450 0.82450 0.66600 0.23400
C 	C 	0.43872 0.82587 0.48440 -0.03900
C 	C 	0.42217 0.76612 0.36770 0.03500
C 	C 	0.83133 0.88320 0.55610 -0.04900
C 	C 	0.90211 0.87698 0.63230 0.09600
Sr	Sr	0.16172 0.39730 0.47101 1.51900
P 	P 	0.02342 0.34400 0.54018 0.37600
P 	P 	0.89089 0.41270 0.42083 0.44500
P 	P 	0.30572 0.32095 0.40168 0.44000
P 	P 	0.30810 0.48474 0.52766 0.43700
O 	O 	0.04332 0.37111 0.42110 -0.52800
O 	O 	0.04203 0.39442 0.66710 -0.43300
O 	O 	0.05070 0.26021 0.58520 -0.41200
H 	H 	0.08550 0.25650 0.57660 0.27800
O 	O 	0.89887 0.43312 0.28420 -0.50900
O 	O 	0.90593 0.47218 0.53270 -0.47100
O 	O 	0.82154 0.38421 0.39600 -0.43000
H 	H 	0.80730 0.36490 0.31850 0.27100
O 	O 	0.24027 0.48863 0.44040 -0.39300
O 	O 	0.33669 0.24414 0.44740 -0.39000
O 	O 	0.29464 0.35718 0.64210 -0.38500
H 	H 	0.28650 0.31000 0.64400 0.21500
O 	O 	0.32746 0.52035 0.67030 -0.23700
O 	O 	0.33463 0.35215 0.29180 -0.39600
H 	H 	0.32320 0.39650 0.27190 0.28000
O 	O 	0.35092 0.52083 0.44850 -0.38300
H 	H 	0.33970 0.50480 0.36840 0.26900
O 	O 	0.23478 0.31959 0.34710 -0.38100
O 	O 	0.92403 0.29405 0.60110 -0.27000
H 	H 	0.93450 0.32450 0.66600 0.24800
C 	C 	0.93872 0.32587 0.48440 0.00900
C 	C 	0.92217 0.26612 0.36770 0.05700
C 	C 	0.33133 0.38320 0.55610 -0.04500
C 	C 	0.40211 0.37698 0.63230 0.06700
Sr	Sr	0.33828 0.89730 0.02899 1.51900
P 	P 	0.47658 0.84400 0.95982 0.42200
P 	P 	0.60911 0.91270 0.07917 0.44700
P 	P 	0.19428 0.82095 0.09832 0.44000
P 	P 	0.19190 0.98474 0.97234 0.43300
O 	O 	0.45668 0.87111 0.07890 -0.50700
O 	O 	0.45797 0.89442 0.83290 -0.41300
O 	O 	0.44930 0.76021 0.91480 -0.38800
H 	H 	0.41450 0.75650 0.92340 0.27200
O 	O 	0.60113 0.93312 0.21580 -0.52500
O 	O 	0.59407 0.97218 0.96730 -0.48900
O 	O 	0.67846 0.88421 0.10400 -0.42700
H 	H 	0.69270 0.86490 0.18150 0.27000
O 	O 	0.25973 0.98863 0.05960 -0.39100
O 	O 	0.16331 0.74414 0.05260 -0.39000
O 	O 	0.20536 0.85718 0.85790 -0.38700
H 	H 	0.21350 0.81000 0.85600 0.21400
O 	O 	0.17254 0.02035 0.82970 -0.24500
O 	O 	0.16537 0.85215 0.20820 -0.40200
H 	H 	0.17680 0.89650 0.22810 0.28000
O 	O 	0.14908 0.02083 0.05150 -0.38700
H 	H 	0.16030 0.00480 0.13160 0.26800
O 	O 	0.26522 0.81959 0.15290 -0.38100
O 	O 	0.57597 0.79405 0.89890 -0.27600
H 	H 	0.56550 0.82450 0.83400 0.23500
C 	C 	0.56128 0.82587 0.01560 -0.03400
C 	C 	0.57783 0.76612 0.13230 0.03500
C 	C 	0.16867 0.88320 0.94390 -0.04300
C 	C 	0.09789 0.87698 0.86770 0.03800
Sr	Sr	0.83828 0.39730 0.02899 1.52000
P 	P 	0.97658 0.34400 0.95982 0.46700
P 	P 	0.10911 0.41270 0.07917 0.44900
P 	P 	0.69428 0.32095 0.09832 0.44300
P 	P 	0.69190 0.48474 0.97234 0.42900
O 	O 	0.95668 0.37111 0.07890 -0.48000
O 	O 	0.95797 0.39442 0.83290 -0.39000
O 	O 	0.94930 0.26021 0.91480 -0.36300
H 	H 	0.91450 0.25650 0.92340 0.26600
O 	O 	0.10113 0.43312 0.21580 -0.53600
O 	O 	0.09407 0.47218 0.96730 -0.50500
O 	O 	0.17846 0.38421 0.10400 -0.42500
H 	H 	0.19270 0.36490 0.18150 0.27100
O 	O 	0.75973 0.48863 0.05960 -0.38900
O 	O 	0.66331 0.24414 0.05260 -0.38800
O 	O 	0.70536 0.35718 0.85790 -0.38500
H 	H 	0.71350 0.31000 0.85600 0.21400
O 	O 	0.67254 0.52035 0.82970 -0.23600
O 	O 	0.66537 0.35215 0.20820 -0.39700
H 	H 	0.67680 0.39650 0.22810 0.28100
O 	O 	0.64908 0.52083 0.05150 -0.37800
H 	H 	0.66030 0.50480 0.13160 0.26800
O 	O 	0.76522 0.31959 0.15290 -0.38000
O 	O 	0.07597 0.29405 0.89890 -0.28200
H 	H 	0.06550 0.32450 0.83400 0.22300
C 	C 	0.06128 0.32587 0.01560 -0.07500
C 	C 	0.07783 0.26612 0.13230 0.01300
C 	C 	0.66867 0.38320 0.94390 -0.04800
C 	C 	0.59789 0.37698 0.86770 0.06600
Sr	Sr	0.50000 0.01385 0.75000 1.52500
Sr	Sr	-0.00000 0.51385 0.75000 1.50800
Sr	Sr	0.50000 0.98615 0.25000 1.52500
Sr	Sr	0.00000 0.48615 0.25000 1.50800
