data_crystal

_cell_length_a 20.13500
_cell_length_b 15.96400
_cell_length_c 29.30700
_cell_angle_alpha 90.00000
_cell_angle_beta  90.00000
_cell_angle_gamma 90.00000

_symmetry_space_group_name_	'P 1'
_symmetry_space_group_name_H-M	'P 1'

loop_
_symmetry_equiv_pos_as_xyz
  x,y,z

loop_
_atom_site_label
_atom_site_type_symbol
_atom_site_fract_x
_atom_site_fract_y
_atom_site_fract_z
_atom_site_charge
N 	N 	0.38350 0.08570 0.04782 -0.24900
N 	N 	0.17490 0.08180 0.05160 -0.19400
O 	O 	0.17440 0.02920 0.12347 -0.22000
O 	O 	0.17450 0.13240 0.97915 -0.23400
C 	C 	0.46050 0.27110 0.39020 0.04200
H 	H 	0.44010 0.23780 0.41350 0.03100
C 	C 	0.45830 0.24740 0.34510 -0.09400
H 	H 	0.43090 0.20100 0.33620 0.07000
C 	C 	0.35060 0.01500 0.05610 0.14300
H 	H 	0.37480 0.96620 0.06120 -0.02300
C 	C 	0.28200 0.01080 0.05760 -0.23800
H 	H 	0.26040 0.96020 0.06270 0.14700
C 	C 	0.24660 0.08380 0.05130 0.23900
C 	C 	0.27940 0.15700 0.04400 -0.23600
H 	H 	0.25640 0.20700 0.04000 0.13700
C 	C 	0.34880 0.15500 0.04280 0.13900
H 	H 	0.37160 0.20500 0.03820 -0.01400
C 	C 	0.14180 0.05120 0.09080 0.21000
C 	C 	0.06950 0.04980 0.09030 -0.04400
C 	C 	0.03540 0.02070 0.12710 -0.06200
H 	H 	0.06500 0.99800 0.14900 0.06700
C 	C 	0.03480 0.07860 0.05140 0.00300
C 	C 	0.06930 0.10880 0.01250 -0.04600
C 	C 	0.03500 0.13750 0.97500 -0.03000
H 	H 	0.06000 0.15500 0.94400 0.06300
C 	C 	0.14250 0.11030 0.01190 0.21400
N 	N 	0.61650 0.41430 0.54782 -0.24800
N 	N 	0.82510 0.41820 0.55160 -0.19700
O 	O 	0.82560 0.47080 0.62347 -0.22200
O 	O 	0.82550 0.36760 0.47915 -0.23700
C 	C 	0.53950 0.22890 0.89020 0.04200
H 	H 	0.55990 0.26220 0.91350 0.03100
C 	C 	0.54170 0.25260 0.84510 -0.09300
H 	H 	0.56910 0.29900 0.83620 0.07000
C 	C 	0.64940 0.48500 0.55610 0.14400
H 	H 	0.62520 0.53380 0.56120 -0.02300
C 	C 	0.71800 0.48920 0.55760 -0.23800
H 	H 	0.73960 0.53980 0.56270 0.14700
C 	C 	0.75340 0.41620 0.55130 0.23900
C 	C 	0.72060 0.34300 0.54400 -0.23600
H 	H 	0.74360 0.29300 0.54000 0.13700
C 	C 	0.65120 0.34500 0.54280 0.14000
H 	H 	0.62840 0.29500 0.53820 -0.01400
C 	C 	0.85820 0.44880 0.59080 0.22500
C 	C 	0.93050 0.45020 0.59030 -0.08300
C 	C 	0.96460 0.47930 0.62710 0.00700
H 	H 	0.93500 0.50200 0.64900 0.04900
C 	C 	0.96520 0.42140 0.55140 0.06100
C 	C 	0.93070 0.39120 0.51250 -0.07700
C 	C 	0.96500 0.36250 0.47500 0.01900
H 	H 	0.94000 0.34500 0.44400 0.05500
C 	C 	0.85750 0.38970 0.51190 0.22600
N 	N 	0.61650 0.58570 0.45218 -0.24800
N 	N 	0.82510 0.58180 0.44840 -0.19700
O 	O 	0.82560 0.52920 0.37653 -0.22200
O 	O 	0.82550 0.63240 0.52085 -0.23700
C 	C 	0.53950 0.77110 0.10980 0.04200
H 	H 	0.55990 0.73780 0.08650 0.03100
C 	C 	0.54170 0.74740 0.15490 -0.09300
H 	H 	0.56910 0.70100 0.16380 0.07000
C 	C 	0.64940 0.51500 0.44390 0.14400
H 	H 	0.62520 0.46620 0.43880 -0.02300
C 	C 	0.71800 0.51080 0.44240 -0.23800
H 	H 	0.73960 0.46020 0.43730 0.14700
C 	C 	0.75340 0.58380 0.44870 0.23900
C 	C 	0.72060 0.65700 0.45600 -0.23600
H 	H 	0.74360 0.70700 0.46000 0.13700
C 	C 	0.65120 0.65500 0.45720 0.14000
H 	H 	0.62840 0.70500 0.46180 -0.01400
C 	C 	0.85820 0.55120 0.40920 0.22500
C 	C 	0.93050 0.54980 0.40970 -0.08300
C 	C 	0.96460 0.52070 0.37290 0.00700
H 	H 	0.93500 0.49800 0.35100 0.04900
C 	C 	0.96520 0.57860 0.44860 0.06100
C 	C 	0.93070 0.60880 0.48750 -0.07700
C 	C 	0.96500 0.63750 0.52500 0.01900
H 	H 	0.94000 0.65500 0.55600 0.05500
C 	C 	0.85750 0.61030 0.48810 0.22600
N 	N 	0.38350 0.91430 0.95218 -0.24800
N 	N 	0.17490 0.91820 0.94840 -0.19300
O 	O 	0.17440 0.97080 0.87653 -0.22000
O 	O 	0.17450 0.86760 0.02085 -0.23400
C 	C 	0.46050 0.72890 0.60980 0.04200
H 	H 	0.44010 0.76220 0.58650 0.03100
C 	C 	0.45830 0.75260 0.65490 -0.09400
H 	H 	0.43090 0.79900 0.66380 0.07000
C 	C 	0.35060 0.98500 0.94390 0.14300
H 	H 	0.37480 0.03380 0.93880 -0.02300
C 	C 	0.28200 0.98920 0.94240 -0.23800
H 	H 	0.26040 0.03980 0.93730 0.14700
C 	C 	0.24660 0.91620 0.94870 0.23900
C 	C 	0.27940 0.84300 0.95600 -0.23600
H 	H 	0.25640 0.79300 0.96000 0.13700
C 	C 	0.34880 0.84500 0.95720 0.13900
H 	H 	0.37160 0.79500 0.96180 -0.01400
C 	C 	0.14180 0.94880 0.90920 0.21000
C 	C 	0.06950 0.95020 0.90970 -0.04400
C 	C 	0.03540 0.97930 0.87290 -0.06200
H 	H 	0.06500 0.00200 0.85100 0.06700
C 	C 	0.03480 0.92140 0.94860 0.00300
C 	C 	0.06930 0.89120 0.98750 -0.04600
C 	C 	0.03500 0.86250 0.02500 -0.03000
H 	H 	0.06000 0.84500 0.05600 0.06300
C 	C 	0.14250 0.88970 0.98810 0.21400
N 	N 	0.61650 0.91430 0.95218 -0.24800
N 	N 	0.82510 0.91820 0.94840 -0.19700
O 	O 	0.82560 0.97080 0.87653 -0.22300
O 	O 	0.82550 0.86760 0.02085 -0.23700
C 	C 	0.53950 0.72890 0.60980 0.04200
H 	H 	0.55990 0.76220 0.58650 0.03100
C 	C 	0.54170 0.75260 0.65490 -0.09300
H 	H 	0.56910 0.79900 0.66380 0.07000
C 	C 	0.64940 0.98500 0.94390 0.14300
H 	H 	0.62520 0.03380 0.93880 -0.02300
C 	C 	0.71800 0.98920 0.94240 -0.23900
H 	H 	0.73960 0.03980 0.93730 0.14800
C 	C 	0.75340 0.91620 0.94870 0.24000
C 	C 	0.72060 0.84300 0.95600 -0.23600
H 	H 	0.74360 0.79300 0.96000 0.13700
C 	C 	0.65120 0.84500 0.95720 0.14000
H 	H 	0.62840 0.79500 0.96180 -0.01400
C 	C 	0.85820 0.94880 0.90920 0.22400
C 	C 	0.93050 0.95020 0.90970 -0.08300
C 	C 	0.96460 0.97930 0.87290 0.00600
H 	H 	0.93500 0.00200 0.85100 0.04900
C 	C 	0.96520 0.92140 0.94860 0.06000
C 	C 	0.93070 0.89120 0.98750 -0.07700
C 	C 	0.96500 0.86250 0.02500 0.01900
H 	H 	0.94000 0.84500 0.05600 0.05500
C 	C 	0.85750 0.88970 0.98810 0.22500
N 	N 	0.38350 0.58570 0.45218 -0.24800
N 	N 	0.17490 0.58180 0.44840 -0.19300
O 	O 	0.17440 0.52920 0.37653 -0.22000
O 	O 	0.17450 0.63240 0.52085 -0.23400
C 	C 	0.46050 0.77110 0.10980 0.04200
H 	H 	0.44010 0.73780 0.08650 0.03100
C 	C 	0.45830 0.74740 0.15490 -0.09400
H 	H 	0.43090 0.70100 0.16380 0.07000
C 	C 	0.35060 0.51500 0.44390 0.14300
H 	H 	0.37480 0.46620 0.43880 -0.02300
C 	C 	0.28200 0.51080 0.44240 -0.23700
H 	H 	0.26040 0.46020 0.43730 0.14700
C 	C 	0.24660 0.58380 0.44870 0.23800
C 	C 	0.27940 0.65700 0.45600 -0.23600
H 	H 	0.25640 0.70700 0.46000 0.13700
C 	C 	0.34880 0.65500 0.45720 0.13900
H 	H 	0.37160 0.70500 0.46180 -0.01400
C 	C 	0.14180 0.55120 0.40920 0.20900
C 	C 	0.06950 0.54980 0.40970 -0.04400
C 	C 	0.03540 0.52070 0.37290 -0.06300
H 	H 	0.06500 0.49800 0.35100 0.06700
C 	C 	0.03480 0.57860 0.44860 0.00300
C 	C 	0.06930 0.60880 0.48750 -0.04600
C 	C 	0.03500 0.63750 0.52500 -0.03000
H 	H 	0.06000 0.65500 0.55600 0.06300
C 	C 	0.14250 0.61030 0.48810 0.21400
N 	N 	0.38350 0.41430 0.54782 -0.24800
N 	N 	0.17490 0.41820 0.55160 -0.19300
O 	O 	0.17440 0.47080 0.62347 -0.22000
O 	O 	0.17450 0.36760 0.47915 -0.23400
C 	C 	0.46050 0.22890 0.89020 0.04200
H 	H 	0.44010 0.26220 0.91350 0.03100
C 	C 	0.45830 0.25260 0.84510 -0.09400
H 	H 	0.43090 0.29900 0.83620 0.07000
C 	C 	0.35060 0.48500 0.55610 0.14300
H 	H 	0.37480 0.53380 0.56120 -0.02300
C 	C 	0.28200 0.48920 0.55760 -0.23700
H 	H 	0.26040 0.53980 0.56270 0.14700
C 	C 	0.24660 0.41620 0.55130 0.23800
C 	C 	0.27940 0.34300 0.54400 -0.23600
H 	H 	0.25640 0.29300 0.54000 0.13700
C 	C 	0.34880 0.34500 0.54280 0.13900
H 	H 	0.37160 0.29500 0.53820 -0.01400
C 	C 	0.14180 0.44880 0.59080 0.20900
C 	C 	0.06950 0.45020 0.59030 -0.04400
C 	C 	0.03540 0.47930 0.62710 -0.06300
H 	H 	0.06500 0.50200 0.64900 0.06700
C 	C 	0.03480 0.42140 0.55140 0.00300
C 	C 	0.06930 0.39120 0.51250 -0.04600
C 	C 	0.03500 0.36250 0.47500 -0.03000
H 	H 	0.06000 0.34500 0.44400 0.06300
C 	C 	0.14250 0.38970 0.51190 0.21400
N 	N 	0.61650 0.08570 0.04782 -0.24800
N 	N 	0.82510 0.08180 0.05160 -0.19700
O 	O 	0.82560 0.02920 0.12347 -0.22300
O 	O 	0.82550 0.13240 0.97915 -0.23700
C 	C 	0.53950 0.27110 0.39020 0.04200
H 	H 	0.55990 0.23780 0.41350 0.03100
C 	C 	0.54170 0.24740 0.34510 -0.09300
H 	H 	0.56910 0.20100 0.33620 0.07000
C 	C 	0.64940 0.01500 0.05610 0.14300
H 	H 	0.62520 0.96620 0.06120 -0.02300
C 	C 	0.71800 0.01080 0.05760 -0.23900
H 	H 	0.73960 0.96020 0.06270 0.14800
C 	C 	0.75340 0.08380 0.05130 0.24000
C 	C 	0.72060 0.15700 0.04400 -0.23600
H 	H 	0.74360 0.20700 0.04000 0.13700
C 	C 	0.65120 0.15500 0.04280 0.14000
H 	H 	0.62840 0.20500 0.03820 -0.01400
C 	C 	0.85820 0.05120 0.09080 0.22400
C 	C 	0.93050 0.04980 0.09030 -0.08300
C 	C 	0.96460 0.02070 0.12710 0.00600
H 	H 	0.93500 0.99800 0.14900 0.04900
C 	C 	0.96520 0.07860 0.05140 0.06000
C 	C 	0.93070 0.10880 0.01250 -0.07700
C 	C 	0.96500 0.13750 0.97500 0.01900
H 	H 	0.94000 0.15500 0.94400 0.05500
C 	C 	0.85750 0.11030 0.01190 0.22500
Cd	Cd	0.50000 0.09257 0.04360 1.23100
C 	C 	0.50000 0.17010 0.12610 0.31900
O 	O 	0.50000 0.31730 0.48120 -0.42100
O 	O 	0.50000 0.44510 0.46207 -0.52700
C 	C 	0.50000 0.20410 0.17370 -0.08100
O 	O 	0.50000 0.21850 0.09295 -0.35700
C 	C 	0.50000 0.28800 0.18240 0.01700
H 	H 	0.50000 0.32540 0.15810 0.04200
O 	O 	0.50000 0.09210 0.12180 -0.38500
C 	C 	0.50000 0.31860 0.22620 -0.07400
H 	H 	0.50000 0.37620 0.23100 0.05800
C 	C 	0.50000 0.17990 0.25440 -0.07500
H 	H 	0.50000 0.14250 0.27880 0.05900
C 	C 	0.50000 0.14900 0.21040 0.01600
H 	H 	0.50000 0.09150 0.20530 0.04300
C 	C 	0.50000 0.26470 0.26330 0.00900
C 	C 	0.50000 0.29550 0.31050 0.10400
C 	C 	0.50000 0.37150 0.32270 -0.17400
H 	H 	0.50000 0.41210 0.30000 0.09700
C 	C 	0.50000 0.39880 0.36840 0.12000
H 	H 	0.50000 0.45600 0.37430 0.00400
C 	C 	0.50000 0.34740 0.40230 -0.19000
C 	C 	0.50000 0.37130 0.45160 0.43700
Cd	Cd	0.50000 0.40743 0.54360 1.23100
C 	C 	0.50000 0.32990 0.62610 0.31900
O 	O 	0.50000 0.18270 0.98120 -0.42100
O 	O 	0.50000 0.05490 0.96207 -0.52700
C 	C 	0.50000 0.29590 0.67370 -0.08100
O 	O 	0.50000 0.28150 0.59295 -0.35700
C 	C 	0.50000 0.21200 0.68240 0.01700
H 	H 	0.50000 0.17460 0.65810 0.04200
O 	O 	0.50000 0.40790 0.62180 -0.38500
C 	C 	0.50000 0.18140 0.72620 -0.07400
H 	H 	0.50000 0.12380 0.73100 0.05800
C 	C 	0.50000 0.32010 0.75440 -0.07500
H 	H 	0.50000 0.35750 0.77880 0.05900
C 	C 	0.50000 0.35100 0.71040 0.01600
H 	H 	0.50000 0.40850 0.70530 0.04300
C 	C 	0.50000 0.23530 0.76330 0.00900
C 	C 	0.50000 0.20450 0.81050 0.10400
C 	C 	0.50000 0.12850 0.82270 -0.17400
H 	H 	0.50000 0.08790 0.80000 0.09700
C 	C 	0.50000 0.10120 0.86840 0.12000
H 	H 	0.50000 0.04400 0.87430 0.00400
C 	C 	0.50000 0.15260 0.90230 -0.19000
C 	C 	0.50000 0.12870 0.95160 0.43700
Cd	Cd	0.50000 0.59257 0.45640 1.23100
C 	C 	0.50000 0.67010 0.37390 0.31900
O 	O 	0.50000 0.81730 0.01880 -0.42100
O 	O 	0.50000 0.94510 0.03793 -0.52700
C 	C 	0.50000 0.70410 0.32630 -0.08100
O 	O 	0.50000 0.71850 0.40705 -0.35700
C 	C 	0.50000 0.78800 0.31760 0.01700
H 	H 	0.50000 0.82540 0.34190 0.04200
O 	O 	0.50000 0.59210 0.37820 -0.38500
C 	C 	0.50000 0.81860 0.27380 -0.07400
H 	H 	0.50000 0.87620 0.26900 0.05800
C 	C 	0.50000 0.67990 0.24560 -0.07500
H 	H 	0.50000 0.64250 0.22120 0.05900
C 	C 	0.50000 0.64900 0.28960 0.01600
H 	H 	0.50000 0.59150 0.29470 0.04300
C 	C 	0.50000 0.76470 0.23670 0.00900
C 	C 	0.50000 0.79550 0.18950 0.10400
C 	C 	0.50000 0.87150 0.17730 -0.17400
H 	H 	0.50000 0.91210 0.20000 0.09700
C 	C 	0.50000 0.89880 0.13160 0.12000
H 	H 	0.50000 0.95600 0.12570 0.00400
C 	C 	0.50000 0.84740 0.09770 -0.19000
C 	C 	0.50000 0.87130 0.04840 0.43700
Cd	Cd	0.50000 0.90743 0.95640 1.23100
C 	C 	0.50000 0.82990 0.87390 0.31900
O 	O 	0.50000 0.68270 0.51880 -0.42100
O 	O 	0.50000 0.55490 0.53793 -0.52700
C 	C 	0.50000 0.79590 0.82630 -0.08100
O 	O 	0.50000 0.78150 0.90705 -0.35700
C 	C 	0.50000 0.71200 0.81760 0.01700
H 	H 	0.50000 0.67460 0.84190 0.04200
O 	O 	0.50000 0.90790 0.87820 -0.38500
C 	C 	0.50000 0.68140 0.77380 -0.07400
H 	H 	0.50000 0.62380 0.76900 0.05800
C 	C 	0.50000 0.82010 0.74560 -0.07500
H 	H 	0.50000 0.85750 0.72120 0.05900
C 	C 	0.50000 0.85100 0.78960 0.01600
H 	H 	0.50000 0.90850 0.79470 0.04300
C 	C 	0.50000 0.73530 0.73670 0.00900
C 	C 	0.50000 0.70450 0.68950 0.10400
C 	C 	0.50000 0.62850 0.67730 -0.17400
H 	H 	0.50000 0.58790 0.70000 0.09700
C 	C 	0.50000 0.60120 0.63160 0.12000
H 	H 	0.50000 0.54400 0.62570 0.00400
C 	C 	0.50000 0.65260 0.59770 -0.19000
C 	C 	0.50000 0.62870 0.54840 0.43700
N 	N 	0.88350 0.58570 0.04782 -0.24500
N 	N 	0.67490 0.58180 0.05160 -0.19500
O 	O 	0.67440 0.52920 0.12347 -0.22100
O 	O 	0.67450 0.63240 0.97915 -0.23600
C 	C 	0.96050 0.77110 0.39020 0.05400
H 	H 	0.94010 0.73780 0.41350 0.02900
C 	C 	0.95830 0.74740 0.34510 -0.08300
H 	H 	0.93090 0.70100 0.33620 0.06900
C 	C 	0.85060 0.51500 0.05610 0.14300
H 	H 	0.87480 0.46620 0.06120 -0.02000
C 	C 	0.78200 0.51080 0.05760 -0.23700
H 	H 	0.76040 0.46020 0.06270 0.14700
C 	C 	0.74660 0.58380 0.05130 0.23900
C 	C 	0.77940 0.65700 0.04400 -0.23500
H 	H 	0.75640 0.70700 0.04000 0.13700
C 	C 	0.84880 0.65500 0.04280 0.14000
H 	H 	0.87160 0.70500 0.03820 -0.01200
C 	C 	0.64180 0.55120 0.09080 0.21700
C 	C 	0.56950 0.54980 0.09030 -0.06300
C 	C 	0.53540 0.52070 0.12710 -0.02900
H 	H 	0.56500 0.49800 0.14900 0.05700
C 	C 	0.53480 0.57860 0.05140 0.03200
C 	C 	0.56930 0.60880 0.01250 -0.06200
C 	C 	0.53500 0.63750 0.97500 -0.00600
H 	H 	0.56000 0.65500 0.94400 0.05800
C 	C 	0.64250 0.61030 0.01190 0.22000
N 	N 	0.11650 0.91430 0.54782 -0.24800
N 	N 	0.32510 0.91820 0.55160 -0.19500
O 	O 	0.32560 0.97080 0.62347 -0.22200
O 	O 	0.32550 0.86760 0.47915 -0.23600
C 	C 	0.03950 0.72890 0.89020 0.03700
H 	H 	0.05990 0.76220 0.91350 0.03100
C 	C 	0.04170 0.75260 0.84510 -0.09700
H 	H 	0.06910 0.79900 0.83620 0.07000
C 	C 	0.14940 0.98500 0.55610 0.14300
H 	H 	0.12520 0.03380 0.56120 -0.02300
C 	C 	0.21800 0.98920 0.55760 -0.23800
H 	H 	0.23960 0.03980 0.56270 0.14700
C 	C 	0.25340 0.91620 0.55130 0.23900
C 	C 	0.22060 0.84300 0.54400 -0.23600
H 	H 	0.24360 0.79300 0.54000 0.13700
C 	C 	0.15120 0.84500 0.54280 0.13900
H 	H 	0.12840 0.79500 0.53820 -0.01400
C 	C 	0.35820 0.94880 0.59080 0.21700
C 	C 	0.43050 0.95020 0.59030 -0.06400
C 	C 	0.46460 0.97930 0.62710 -0.02800
H 	H 	0.43500 0.00200 0.64900 0.05700
C 	C 	0.46520 0.92140 0.55140 0.03200
C 	C 	0.43070 0.89120 0.51250 -0.06200
C 	C 	0.46500 0.86250 0.47500 -0.00600
H 	H 	0.44000 0.84500 0.44400 0.05800
C 	C 	0.35750 0.88970 0.51190 0.22000
N 	N 	0.11650 0.08570 0.45218 -0.24800
N 	N 	0.32510 0.08180 0.44840 -0.19500
O 	O 	0.32560 0.02920 0.37653 -0.22200
O 	O 	0.32550 0.13240 0.52085 -0.23600
C 	C 	0.03950 0.27110 0.10980 0.03700
H 	H 	0.05990 0.23780 0.08650 0.03100
C 	C 	0.04170 0.24740 0.15490 -0.09700
H 	H 	0.06910 0.20100 0.16380 0.07000
C 	C 	0.14940 0.01500 0.44390 0.14300
H 	H 	0.12520 0.96620 0.43880 -0.02300
C 	C 	0.21800 0.01080 0.44240 -0.23800
H 	H 	0.23960 0.96020 0.43730 0.14700
C 	C 	0.25340 0.08380 0.44870 0.23900
C 	C 	0.22060 0.15700 0.45600 -0.23600
H 	H 	0.24360 0.20700 0.46000 0.13700
C 	C 	0.15120 0.15500 0.45720 0.13900
H 	H 	0.12840 0.20500 0.46180 -0.01400
C 	C 	0.35820 0.05120 0.40920 0.21700
C 	C 	0.43050 0.04980 0.40970 -0.06400
C 	C 	0.46460 0.02070 0.37290 -0.02800
H 	H 	0.43500 0.99800 0.35100 0.05700
C 	C 	0.46520 0.07860 0.44860 0.03200
C 	C 	0.43070 0.10880 0.48750 -0.06200
C 	C 	0.46500 0.13750 0.52500 -0.00600
H 	H 	0.44000 0.15500 0.55600 0.05800
C 	C 	0.35750 0.11030 0.48810 0.22000
N 	N 	0.88350 0.41430 0.95218 -0.24500
N 	N 	0.67490 0.41820 0.94840 -0.19500
O 	O 	0.67440 0.47080 0.87653 -0.22100
O 	O 	0.67450 0.36760 0.02085 -0.23600
C 	C 	0.96050 0.22890 0.60980 0.05400
H 	H 	0.94010 0.26220 0.58650 0.02900
C 	C 	0.95830 0.25260 0.65490 -0.08300
H 	H 	0.93090 0.29900 0.66380 0.06900
C 	C 	0.85060 0.48500 0.94390 0.14300
H 	H 	0.87480 0.53380 0.93880 -0.02000
C 	C 	0.78200 0.48920 0.94240 -0.23700
H 	H 	0.76040 0.53980 0.93730 0.14700
C 	C 	0.74660 0.41620 0.94870 0.23900
C 	C 	0.77940 0.34300 0.95600 -0.23500
H 	H 	0.75640 0.29300 0.96000 0.13700
C 	C 	0.84880 0.34500 0.95720 0.14000
H 	H 	0.87160 0.29500 0.96180 -0.01200
C 	C 	0.64180 0.44880 0.90920 0.21700
C 	C 	0.56950 0.45020 0.90970 -0.06300
C 	C 	0.53540 0.47930 0.87290 -0.02900
H 	H 	0.56500 0.50200 0.85100 0.05700
C 	C 	0.53480 0.42140 0.94860 0.03200
C 	C 	0.56930 0.39120 0.98750 -0.06200
C 	C 	0.53500 0.36250 0.02500 -0.00600
H 	H 	0.56000 0.34500 0.05600 0.05800
C 	C 	0.64250 0.38970 0.98810 0.22000
N 	N 	0.11650 0.41430 0.95218 -0.24800
N 	N 	0.32510 0.41820 0.94840 -0.19500
O 	O 	0.32560 0.47080 0.87653 -0.22200
O 	O 	0.32550 0.36760 0.02085 -0.23600
C 	C 	0.03950 0.22890 0.60980 0.03700
H 	H 	0.05990 0.26220 0.58650 0.03100
C 	C 	0.04170 0.25260 0.65490 -0.09700
H 	H 	0.06910 0.29900 0.66380 0.07000
C 	C 	0.14940 0.48500 0.94390 0.14300
H 	H 	0.12520 0.53380 0.93880 -0.02300
C 	C 	0.21800 0.48920 0.94240 -0.23800
H 	H 	0.23960 0.53980 0.93730 0.14700
C 	C 	0.25340 0.41620 0.94870 0.23900
C 	C 	0.22060 0.34300 0.95600 -0.23600
H 	H 	0.24360 0.29300 0.96000 0.13700
C 	C 	0.15120 0.34500 0.95720 0.13900
H 	H 	0.12840 0.29500 0.96180 -0.01400
C 	C 	0.35820 0.44880 0.90920 0.21700
C 	C 	0.43050 0.45020 0.90970 -0.06400
C 	C 	0.46460 0.47930 0.87290 -0.02800
H 	H 	0.43500 0.50200 0.85100 0.05700
C 	C 	0.46520 0.42140 0.94860 0.03200
C 	C 	0.43070 0.39120 0.98750 -0.06200
C 	C 	0.46500 0.36250 0.02500 -0.00600
H 	H 	0.44000 0.34500 0.05600 0.05800
C 	C 	0.35750 0.38970 0.98810 0.22000
N 	N 	0.88350 0.08570 0.45218 -0.24500
N 	N 	0.67490 0.08180 0.44840 -0.19500
O 	O 	0.67440 0.02920 0.37653 -0.22100
O 	O 	0.67450 0.13240 0.52085 -0.23600
C 	C 	0.96050 0.27110 0.10980 0.05400
H 	H 	0.94010 0.23780 0.08650 0.02900
C 	C 	0.95830 0.24740 0.15490 -0.08300
H 	H 	0.93090 0.20100 0.16380 0.06900
C 	C 	0.85060 0.01500 0.44390 0.14300
H 	H 	0.87480 0.96620 0.43880 -0.02000
C 	C 	0.78200 0.01080 0.44240 -0.23700
H 	H 	0.76040 0.96020 0.43730 0.14700
C 	C 	0.74660 0.08380 0.44870 0.23900
C 	C 	0.77940 0.15700 0.45600 -0.23500
H 	H 	0.75640 0.20700 0.46000 0.13700
C 	C 	0.84880 0.15500 0.45720 0.14000
H 	H 	0.87160 0.20500 0.46180 -0.01200
C 	C 	0.64180 0.05120 0.40920 0.21700
C 	C 	0.56950 0.04980 0.40970 -0.06300
C 	C 	0.53540 0.02070 0.37290 -0.02900
H 	H 	0.56500 0.99800 0.35100 0.05700
C 	C 	0.53480 0.07860 0.44860 0.03200
C 	C 	0.56930 0.10880 0.48750 -0.06200
C 	C 	0.53500 0.13750 0.52500 -0.00600
H 	H 	0.56000 0.15500 0.55600 0.05800
C 	C 	0.64250 0.11030 0.48810 0.22000
N 	N 	0.88350 0.91430 0.54782 -0.24500
N 	N 	0.67490 0.91820 0.55160 -0.19500
O 	O 	0.67440 0.97080 0.62347 -0.22100
O 	O 	0.67450 0.86760 0.47915 -0.23600
C 	C 	0.96050 0.72890 0.89020 0.05400
H 	H 	0.94010 0.76220 0.91350 0.02900
C 	C 	0.95830 0.75260 0.84510 -0.08300
H 	H 	0.93090 0.79900 0.83620 0.06900
C 	C 	0.85060 0.98500 0.55610 0.14300
H 	H 	0.87480 0.03380 0.56120 -0.02000
C 	C 	0.78200 0.98920 0.55760 -0.23700
H 	H 	0.76040 0.03980 0.56270 0.14700
C 	C 	0.74660 0.91620 0.55130 0.23900
C 	C 	0.77940 0.84300 0.54400 -0.23500
H 	H 	0.75640 0.79300 0.54000 0.13700
C 	C 	0.84880 0.84500 0.54280 0.14000
H 	H 	0.87160 0.79500 0.53820 -0.01200
C 	C 	0.64180 0.94880 0.59080 0.21700
C 	C 	0.56950 0.95020 0.59030 -0.06300
C 	C 	0.53540 0.97930 0.62710 -0.02900
H 	H 	0.56500 0.00200 0.64900 0.05700
C 	C 	0.53480 0.92140 0.55140 0.03200
C 	C 	0.56930 0.89120 0.51250 -0.06200
C 	C 	0.53500 0.86250 0.47500 -0.00600
H 	H 	0.56000 0.84500 0.44400 0.05800
C 	C 	0.64250 0.88970 0.51190 0.22000
N 	N 	0.11650 0.58570 0.04782 -0.24800
N 	N 	0.32510 0.58180 0.05160 -0.19500
O 	O 	0.32560 0.52920 0.12347 -0.22200
O 	O 	0.32550 0.63240 0.97915 -0.23600
C 	C 	0.03950 0.77110 0.39020 0.03700
H 	H 	0.05990 0.73780 0.41350 0.03100
C 	C 	0.04170 0.74740 0.34510 -0.09700
H 	H 	0.06910 0.70100 0.33620 0.07000
C 	C 	0.14940 0.51500 0.05610 0.14300
H 	H 	0.12520 0.46620 0.06120 -0.02300
C 	C 	0.21800 0.51080 0.05760 -0.23800
H 	H 	0.23960 0.46020 0.06270 0.14700
C 	C 	0.25340 0.58380 0.05130 0.23900
C 	C 	0.22060 0.65700 0.04400 -0.23600
H 	H 	0.24360 0.70700 0.04000 0.13700
C 	C 	0.15120 0.65500 0.04280 0.13900
H 	H 	0.12840 0.70500 0.03820 -0.01400
C 	C 	0.35820 0.55120 0.09080 0.21700
C 	C 	0.43050 0.54980 0.09030 -0.06400
C 	C 	0.46460 0.52070 0.12710 -0.02800
H 	H 	0.43500 0.49800 0.14900 0.05700
C 	C 	0.46520 0.57860 0.05140 0.03200
C 	C 	0.43070 0.60880 0.01250 -0.06200
C 	C 	0.46500 0.63750 0.97500 -0.00600
H 	H 	0.44000 0.65500 0.94400 0.05800
C 	C 	0.35750 0.61030 0.01190 0.22000
Cd	Cd	0.00000 0.59257 0.04360 1.22900
C 	C 	0.00000 0.67010 0.12610 0.31900
O 	O 	0.00000 0.81730 0.48120 -0.42500
O 	O 	0.00000 0.94510 0.46207 -0.53000
C 	C 	0.00000 0.70410 0.17370 -0.08400
O 	O 	-0.00000 0.71850 0.09295 -0.36100
C 	C 	0.00000 0.78800 0.18240 0.01900
H 	H 	0.00000 0.82540 0.15810 0.03900
O 	O 	-0.00000 0.59210 0.12180 -0.38700
C 	C 	-0.00000 0.81860 0.22620 -0.07800
H 	H 	0.00000 0.87620 0.23100 0.05800
C 	C 	-0.00000 0.67990 0.25440 -0.07900
H 	H 	0.00000 0.64250 0.27880 0.05800
C 	C 	-0.00000 0.64900 0.21040 0.01700
H 	H 	0.00000 0.59150 0.20530 0.04100
C 	C 	0.00000 0.76470 0.26330 0.01100
C 	C 	0.00000 0.79550 0.31050 0.09600
C 	C 	0.00000 0.87150 0.32270 -0.17300
H 	H 	0.00000 0.91210 0.30000 0.09500
C 	C 	-0.00000 0.89880 0.36840 0.12100
H 	H 	-0.00000 0.95600 0.37430 0.00200
C 	C 	0.00000 0.84740 0.40230 -0.19800
C 	C 	0.00000 0.87130 0.45160 0.43900
Cd	Cd	0.00000 0.90743 0.54360 1.22900
C 	C 	0.00000 0.82990 0.62610 0.31900
O 	O 	0.00000 0.68270 0.98120 -0.42500
O 	O 	0.00000 0.55490 0.96207 -0.53000
C 	C 	-0.00000 0.79590 0.67370 -0.08400
O 	O 	-0.00000 0.78150 0.59295 -0.36100
C 	C 	-0.00000 0.71200 0.68240 0.01900
H 	H 	0.00000 0.67460 0.65810 0.03900
O 	O 	-0.00000 0.90790 0.62180 -0.38700
C 	C 	0.00000 0.68140 0.72620 -0.07800
H 	H 	0.00000 0.62380 0.73100 0.05800
C 	C 	-0.00000 0.82010 0.75440 -0.07900
H 	H 	-0.00000 0.85750 0.77880 0.05800
C 	C 	0.00000 0.85100 0.71040 0.01700
H 	H 	-0.00000 0.90850 0.70530 0.04100
C 	C 	0.00000 0.73530 0.76330 0.01100
C 	C 	-0.00000 0.70450 0.81050 0.09600
C 	C 	-0.00000 0.62850 0.82270 -0.17300
H 	H 	0.00000 0.58790 0.80000 0.09500
C 	C 	0.00000 0.60120 0.86840 0.12100
H 	H 	0.00000 0.54400 0.87430 0.00200
C 	C 	-0.00000 0.65260 0.90230 -0.19800
C 	C 	0.00000 0.62870 0.95160 0.43900
Cd	Cd	0.00000 0.09257 0.45640 1.22900
C 	C 	0.00000 0.17010 0.37390 0.31900
O 	O 	-0.00000 0.31730 0.01880 -0.42500
O 	O 	0.00000 0.44510 0.03793 -0.53000
C 	C 	0.00000 0.20410 0.32630 -0.08400
O 	O 	0.00000 0.21850 0.40705 -0.36100
C 	C 	0.00000 0.28800 0.31760 0.01900
H 	H 	0.00000 0.32540 0.34190 0.03900
O 	O 	-0.00000 0.09210 0.37820 -0.38700
C 	C 	-0.00000 0.31860 0.27380 -0.07800
H 	H 	-0.00000 0.37620 0.26900 0.05800
C 	C 	-0.00000 0.17990 0.24560 -0.07900
H 	H 	-0.00000 0.14250 0.22120 0.05800
C 	C 	0.00000 0.14900 0.28960 0.01700
H 	H 	0.00000 0.09150 0.29470 0.04100
C 	C 	-0.00000 0.26470 0.23670 0.01100
C 	C 	-0.00000 0.29550 0.18950 0.09600
C 	C 	-0.00000 0.37150 0.17730 -0.17300
H 	H 	-0.00000 0.41210 0.20000 0.09500
C 	C 	-0.00000 0.39880 0.13160 0.12100
H 	H 	-0.00000 0.45600 0.12570 0.00200
C 	C 	0.00000 0.34740 0.09770 -0.19800
C 	C 	-0.00000 0.37130 0.04840 0.43900
Cd	Cd	-0.00000 0.40743 0.95640 1.22900
C 	C 	0.00000 0.32990 0.87390 0.31900
O 	O 	0.00000 0.18270 0.51880 -0.42500
O 	O 	-0.00000 0.05490 0.53793 -0.53000
C 	C 	0.00000 0.29590 0.82630 -0.08400
O 	O 	-0.00000 0.28150 0.90705 -0.36100
C 	C 	-0.00000 0.21200 0.81760 0.01900
H 	H 	0.00000 0.17460 0.84190 0.03900
O 	O 	0.00000 0.40790 0.87820 -0.38700
C 	C 	-0.00000 0.18140 0.77380 -0.07800
H 	H 	0.00000 0.12380 0.76900 0.05800
C 	C 	-0.00000 0.32010 0.74560 -0.07900
H 	H 	0.00000 0.35750 0.72120 0.05800
C 	C 	0.00000 0.35100 0.78960 0.01700
H 	H 	-0.00000 0.40850 0.79470 0.04100
C 	C 	-0.00000 0.23530 0.73670 0.01100
C 	C 	-0.00000 0.20450 0.68950 0.09600
C 	C 	-0.00000 0.12850 0.67730 -0.17300
H 	H 	0.00000 0.08790 0.70000 0.09500
C 	C 	-0.00000 0.10120 0.63160 0.12100
H 	H 	-0.00000 0.04400 0.62570 0.00200
C 	C 	-0.00000 0.15260 0.59770 -0.19800
C 	C 	-0.00000 0.12870 0.54840 0.43900
