data_crystal

_cell_length_a 13.01400
_cell_length_b 23.69500
_cell_length_c 16.21400
_cell_angle_alpha 90.00000
_cell_angle_beta  107.04000
_cell_angle_gamma 90.00000

_symmetry_space_group_name_	'P 1'
_symmetry_space_group_name_H-M	'P 1'

loop_
_symmetry_equiv_pos_as_xyz
  x,y,z

loop_
_atom_site_label
_atom_site_type_symbol
_atom_site_fract_x
_atom_site_fract_y
_atom_site_fract_z
_atom_site_charge
Sm	Sm	0.75230 0.32792 0.67742 1.49800
Sm	Sm	0.31176 0.32612 0.82740 1.48900
Sm	Sm	0.52649 0.57874 0.75290 1.47600
N 	N 	0.64370 0.31670 0.78030 -0.25200
N 	N 	0.50250 0.31130 0.83240 -0.25600
N 	N 	0.83490 0.29030 0.56690 -0.24600
N 	N 	0.84930 0.24270 0.44960 -0.24900
N 	N 	0.94230 0.34930 0.76020 -0.23600
N 	N 	0.12140 0.34140 0.81760 -0.24400
N 	N 	0.74170 0.42440 0.73660 -0.24600
N 	N 	0.66450 0.50550 0.75850 -0.25800
N 	N 	0.67310 0.39060 0.54860 -0.24700
N 	N 	0.59810 0.41720 0.41120 -0.26100
N 	N 	0.59200 0.26900 0.58630 -0.23600
N 	N 	0.48470 0.19620 0.53800 -0.20100
H 	H 	0.45500 0.16250 0.53360 0.10300
N 	N 	0.31750 0.42590 0.78290 -0.25400
N 	N 	0.39210 0.50840 0.76260 -0.26200
N 	N 	0.24420 0.23390 0.75520 -0.24700
N 	N 	0.14260 0.15500 0.73110 -0.26000
N 	N 	0.28780 0.33670 0.66090 -0.23000
N 	N 	0.20420 0.34930 0.52360 -0.20600
H 	H 	0.15490 0.34540 0.47350 0.09700
N 	N 	0.40020 0.65100 0.76930 -0.26100
N 	N 	0.30820 0.73250 0.74400 -0.24600
N 	N 	0.44440 0.58050 0.59790 -0.26400
N 	N 	0.36190 0.61380 0.46300 -0.24200
C 	C 	0.53860 0.30540 0.76540 0.11600
H 	H 	0.49380 0.29400 0.71050 -0.04800
C 	C 	0.67720 0.32870 0.86580 0.00800
H 	H 	0.74880 0.33770 0.89790 -0.00400
C 	C 	0.59230 0.32580 0.89840 -0.00600
H 	H 	0.59460 0.33260 0.95660 -0.00100
C 	C 	0.80220 0.24700 0.51340 0.11700
H 	H 	0.74950 0.22090 0.51960 -0.05300
C 	C 	0.90950 0.31730 0.53370 -0.00100
H 	H 	0.94820 0.35060 0.55620 0.01100
C 	C 	0.91740 0.28810 0.46390 0.01100
H 	H 	0.96320 0.29770 0.43000 0.01000
C 	C 	0.03480 0.32800 0.75220 0.06200
H 	H 	0.03830 0.30550 0.70450 -0.04800
C 	C 	0.97250 0.37710 0.83880 0.06700
H 	H 	0.92620 0.39670 0.86460 -0.01400
C 	C 	0.07980 0.37120 0.87200 -0.06700
H 	H 	0.12080 0.38590 0.92610 0.01400
C 	C 	0.65990 0.44860 0.75750 0.11100
H 	H 	0.60410 0.42780 0.77040 -0.05200
C 	C 	0.80240 0.46950 0.72260 -0.00300
H 	H 	0.86640 0.46690 0.70600 0.00600
C 	C 	0.75500 0.51800 0.73650 -0.00300
H 	H 	0.78090 0.55500 0.73160 -0.00200
C 	C 	0.66960 0.38480 0.46530 0.12200
H 	H 	0.71490 0.35950 0.44680 -0.05000
C 	C 	0.59480 0.43070 0.54590 -0.00200
H 	H 	0.57540 0.44500 0.59400 -0.00900
C 	C 	0.55050 0.44610 0.46220 -0.00400
H 	H 	0.49470 0.47300 0.44250 -0.00400
C 	C 	0.57110 0.21500 0.59980 0.10900
H 	H 	0.61210 0.19290 0.64690 -0.03200
C 	C 	0.51530 0.28420 0.51350 0.01300
H 	H 	0.50850 0.32080 0.48850 0.00000
C 	C 	0.45260 0.24230 0.48240 -0.00300
H 	H 	0.39460 0.24260 0.43060 0.01600
C 	C 	0.40430 0.45740 0.79790 0.12800
H 	H 	0.47240 0.44430 0.83230 -0.06400
C 	C 	0.23800 0.45990 0.73180 0.00800
H 	H 	0.16440 0.44990 0.70870 -0.00800
C 	C 	0.28250 0.50990 0.72010 -0.01000
H 	H 	0.24480 0.54090 0.68800 -0.00100
C 	C 	0.17370 0.20110 0.77920 0.10800
H 	H 	0.14810 0.21000 0.82680 -0.06400
C 	C 	0.25860 0.20640 0.68500 0.00500
H 	H 	0.30380 0.21870 0.65200 0.00800
C 	C 	0.19840 0.15890 0.67020 -0.01000
H 	H 	0.19470 0.13250 0.62530 -0.00400
C 	C 	0.20220 0.32620 0.59850 0.12400
H 	H 	0.14390 0.30440 0.60510 -0.04500
C 	C 	0.34800 0.37220 0.62370 0.00700
H 	H 	0.41530 0.38850 0.65360 -0.00700
C 	C 	0.29690 0.37990 0.53950 0.00200
H 	H 	0.32020 0.40200 0.49940 0.01300
C 	C 	0.38490 0.70120 0.72950 0.11300
H 	H 	0.42640 0.71340 0.69350 -0.05700
C 	C 	0.32410 0.65040 0.81300 0.00300
H 	H 	0.31240 0.62030 0.84790 -0.00000
C 	C 	0.26910 0.69930 0.79850 -0.00400
H 	H 	0.21260 0.70950 0.82190 0.00700
C 	C 	0.42960 0.62420 0.54020 0.10700
H 	H 	0.46530 0.65950 0.55450 -0.04600
C 	C 	0.38120 0.53910 0.55160 0.00200
H 	H 	0.38200 0.49800 0.57600 -0.00700
C 	C 	0.33030 0.55860 0.47170 -0.00700
H 	H 	0.28040 0.53760 0.42790 0.00600
Sm	Sm	0.25230 0.82792 0.67742 1.47900
Sm	Sm	0.81176 0.82612 0.82740 1.52200
Sm	Sm	0.02649 0.07874 0.75290 1.38100
N 	N 	0.14370 0.81670 0.78030 -0.24000
N 	N 	0.00250 0.81130 0.83240 -0.26100
N 	N 	0.33490 0.79030 0.56690 -0.24700
N 	N 	0.34930 0.74270 0.44960 -0.25000
N 	N 	0.44230 0.84930 0.76020 -0.24800
N 	N 	0.62140 0.84140 0.81760 -0.26200
N 	N 	0.24170 0.92440 0.73660 -0.24600
N 	N 	0.16450 0.00550 0.75850 -0.25600
N 	N 	0.17310 0.89060 0.54860 -0.25300
N 	N 	0.09810 0.91720 0.41120 -0.24500
N 	N 	0.09200 0.76900 0.58630 -0.21800
N 	N 	0.98470 0.69620 0.53800 -0.19000
H 	H 	0.95500 0.66250 0.53360 0.11100
N 	N 	0.81750 0.92590 0.78290 -0.25200
N 	N 	0.89210 0.00840 0.76260 -0.24600
N 	N 	0.74420 0.73390 0.75520 -0.24800
N 	N 	0.64260 0.65500 0.73110 -0.26100
N 	N 	0.78780 0.83670 0.66090 -0.22800
N 	N 	0.70420 0.84930 0.52360 -0.20700
H 	H 	0.65490 0.84540 0.47350 0.10700
N 	N 	0.90020 0.15100 0.76930 -0.24300
N 	N 	0.80820 0.23250 0.74400 -0.24500
N 	N 	0.94440 0.08050 0.59790 -0.24500
N 	N 	0.86190 0.11380 0.46300 -0.24100
C 	C 	0.03860 0.80540 0.76540 0.03700
H 	H 	0.99380 0.79400 0.71050 0.00900
C 	C 	0.17720 0.82870 0.86580 0.00700
H 	H 	0.24880 0.83770 0.89790 -0.00600
C 	C 	0.09230 0.82580 0.89840 -0.01100
H 	H 	0.09460 0.83260 0.95660 -0.01000
C 	C 	0.30220 0.74700 0.51340 0.11500
H 	H 	0.24950 0.72090 0.51960 -0.05400
C 	C 	0.40950 0.81730 0.53370 -0.00700
H 	H 	0.44820 0.85060 0.55620 -0.00000
C 	C 	0.41740 0.78810 0.46390 0.00700
H 	H 	0.46320 0.79770 0.43000 -0.00200
C 	C 	0.53480 0.82800 0.75220 0.10900
H 	H 	0.53830 0.80550 0.70450 -0.05000
C 	C 	0.47250 0.87710 0.83880 -0.01300
H 	H 	0.42620 0.89670 0.86460 0.00600
C 	C 	0.57980 0.87120 0.87200 0.01200
H 	H 	0.62080 0.88590 0.92610 -0.00500
C 	C 	0.15990 0.94860 0.75750 0.10800
H 	H 	0.10410 0.92780 0.77040 -0.06000
C 	C 	0.30240 0.96950 0.72260 -0.00400
H 	H 	0.36640 0.96690 0.70600 -0.00100
C 	C 	0.25500 0.01800 0.73650 -0.00700
H 	H 	0.28090 0.05500 0.73160 -0.00400
C 	C 	0.16960 0.88480 0.46530 0.11700
H 	H 	0.21490 0.85950 0.44680 -0.04900
C 	C 	0.09480 0.93070 0.54590 0.03800
H 	H 	0.07540 0.94500 0.59400 -0.03300
C 	C 	0.05050 0.94610 0.46220 -0.10300
H 	H 	0.99470 0.97300 0.44250 0.05900
C 	C 	0.07110 0.71500 0.59980 0.06200
H 	H 	0.11210 0.69290 0.64690 -0.02400
C 	C 	0.01530 0.78420 0.51350 -0.08600
H 	H 	0.00850 0.82080 0.48850 0.02100
C 	C 	0.95260 0.74230 0.48240 0.09600
H 	H 	0.89460 0.74260 0.43060 -0.01100
C 	C 	0.90430 0.95740 0.79790 0.12800
H 	H 	0.97240 0.94430 0.83230 -0.04700
C 	C 	0.73800 0.95990 0.73180 0.01000
H 	H 	0.66440 0.94990 0.70870 -0.00100
C 	C 	0.78250 0.00990 0.72010 -0.00800
H 	H 	0.74480 0.04090 0.68800 0.00600
C 	C 	0.67370 0.70110 0.77920 0.11400
H 	H 	0.64810 0.71000 0.82680 -0.06200
C 	C 	0.75860 0.70640 0.68500 0.00800
H 	H 	0.80380 0.71870 0.65200 0.01200
C 	C 	0.69840 0.65890 0.67020 -0.00400
H 	H 	0.69470 0.63250 0.62530 0.00000
C 	C 	0.70220 0.82620 0.59850 0.12800
H 	H 	0.64390 0.80440 0.60510 -0.03700
C 	C 	0.84800 0.87220 0.62370 0.00600
H 	H 	0.91530 0.88850 0.65360 0.00600
C 	C 	0.79690 0.87990 0.53950 0.01100
H 	H 	0.82020 0.90200 0.49940 0.01800
C 	C 	0.88490 0.20120 0.72950 0.11700
H 	H 	0.92640 0.21340 0.69350 -0.04500
C 	C 	0.82410 0.15040 0.81300 0.00700
H 	H 	0.81240 0.12030 0.84790 0.00700
C 	C 	0.76910 0.19930 0.79850 0.00100
H 	H 	0.71260 0.20950 0.82190 0.01000
C 	C 	0.92960 0.12420 0.54020 0.11200
H 	H 	0.96530 0.15950 0.55450 -0.03300
C 	C 	0.88120 0.03910 0.55160 0.00600
H 	H 	0.88200 0.99800 0.57600 0.00100
C 	C 	0.83030 0.05860 0.47170 -0.00500
H 	H 	0.78040 0.03760 0.42790 0.00900
Sm	Sm	0.75230 0.67208 0.17742 1.50200
Sm	Sm	0.31176 0.67388 0.32740 1.49300
Sm	Sm	0.52649 0.42126 0.25290 1.47900
N 	N 	0.64370 0.68330 0.28030 -0.25200
N 	N 	0.50250 0.68870 0.33240 -0.25500
N 	N 	0.83490 0.70970 0.06690 -0.24900
N 	N 	0.84930 0.75730 0.94960 -0.25200
N 	N 	0.94230 0.65070 0.26020 -0.23600
N 	N 	0.12140 0.65860 0.31760 -0.24400
N 	N 	0.74170 0.57560 0.23660 -0.24600
N 	N 	0.66450 0.49450 0.25850 -0.25800
N 	N 	0.67310 0.60940 0.04860 -0.24500
N 	N 	0.59810 0.58280 0.91120 -0.25700
N 	N 	0.59200 0.73100 0.08630 -0.24300
N 	N 	0.48470 0.80380 0.03800 -0.19000
H 	H 	0.45500 0.83750 0.03360 0.10300
N 	N 	0.31750 0.57410 0.28290 -0.25400
N 	N 	0.39210 0.49160 0.26260 -0.26200
N 	N 	0.24420 0.76610 0.25520 -0.24800
N 	N 	0.14260 0.84500 0.23110 -0.26000
N 	N 	0.28780 0.66330 0.16090 -0.22800
N 	N 	0.20420 0.65070 0.02360 -0.20100
H 	H 	0.15490 0.65460 0.97350 0.09000
N 	N 	0.40020 0.34900 0.26930 -0.26100
N 	N 	0.30820 0.26750 0.24400 -0.24600
N 	N 	0.44440 0.41950 0.09790 -0.26700
N 	N 	0.36190 0.38620 0.96300 -0.24600
C 	C 	0.53860 0.69460 0.26540 0.11600
H 	H 	0.49380 0.70600 0.21050 -0.04800
C 	C 	0.67720 0.67130 0.36580 0.00900
H 	H 	0.74880 0.66230 0.39790 -0.00300
C 	C 	0.59230 0.67420 0.39840 -0.00600
H 	H 	0.59460 0.66740 0.45660 0.00300
C 	C 	0.80220 0.75300 0.01340 0.12700
H 	H 	0.74950 0.77910 0.01960 -0.05400
C 	C 	0.90950 0.68270 0.03370 0.01600
H 	H 	0.94820 0.64940 0.05620 0.00700
C 	C 	0.91740 0.71190 0.96390 -0.00700
H 	H 	0.96320 0.70230 0.93000 0.01400
C 	C 	0.03480 0.67200 0.25220 0.06200
H 	H 	0.03830 0.69450 0.20450 -0.04800
C 	C 	0.97250 0.62290 0.33880 0.06900
H 	H 	0.92620 0.60330 0.36460 -0.01300
C 	C 	0.07980 0.62880 0.37200 -0.06800
H 	H 	0.12080 0.61410 0.42610 0.01600
C 	C 	0.65990 0.55140 0.25750 0.11200
H 	H 	0.60410 0.57220 0.27040 -0.05200
C 	C 	0.80240 0.53050 0.22260 -0.00200
H 	H 	0.86640 0.53310 0.20600 0.00700
C 	C 	0.75500 0.48200 0.23650 -0.00200
H 	H 	0.78090 0.44500 0.23160 -0.00100
C 	C 	0.66960 0.61520 0.96530 0.11100
H 	H 	0.71490 0.64050 0.94680 -0.05000
C 	C 	0.59480 0.56930 0.04590 0.01700
H 	H 	0.57540 0.55500 0.09400 -0.01400
C 	C 	0.55050 0.55390 0.96220 -0.02200
H 	H 	0.49470 0.52700 0.94250 0.00000
C 	C 	0.57110 0.78500 0.09980 0.11100
H 	H 	0.61210 0.80710 0.14690 -0.03100
C 	C 	0.51530 0.71580 0.01350 0.06100
H 	H 	0.50850 0.67920 0.98850 -0.02300
C 	C 	0.45260 0.75770 0.98240 -0.04700
H 	H 	0.39460 0.75740 0.93060 0.03000
C 	C 	0.40430 0.54260 0.29790 0.12900
H 	H 	0.47240 0.55570 0.33230 -0.06300
C 	C 	0.23800 0.54010 0.23180 0.00900
H 	H 	0.16440 0.55010 0.20870 -0.00700
C 	C 	0.28250 0.49010 0.22010 -0.00900
H 	H 	0.24480 0.45910 0.18800 -0.00100
C 	C 	0.17370 0.79890 0.27920 0.10900
H 	H 	0.14810 0.79000 0.32680 -0.06300
C 	C 	0.25860 0.79360 0.18500 0.00500
H 	H 	0.30380 0.78130 0.15200 0.00900
C 	C 	0.19840 0.84110 0.17020 -0.00900
H 	H 	0.19470 0.86750 0.12530 -0.00200
C 	C 	0.20220 0.67380 0.09850 0.12400
H 	H 	0.14390 0.69560 0.10510 -0.04300
C 	C 	0.34800 0.62780 0.12370 -0.00200
H 	H 	0.41530 0.61150 0.15360 -0.00300
C 	C 	0.29690 0.62010 0.03950 0.02200
H 	H 	0.32020 0.59800 0.99940 0.00000
C 	C 	0.38490 0.29880 0.22950 0.11400
H 	H 	0.42640 0.28660 0.19350 -0.05700
C 	C 	0.32410 0.34960 0.31300 0.00300
H 	H 	0.31240 0.37970 0.34790 0.00000
C 	C 	0.26910 0.30070 0.29850 -0.00300
H 	H 	0.21260 0.29050 0.32190 0.00800
C 	C 	0.42960 0.37580 0.04020 0.11800
H 	H 	0.46530 0.34050 0.05450 -0.04700
C 	C 	0.38120 0.46090 0.05160 0.01700
H 	H 	0.38200 0.50200 0.07600 -0.00900
C 	C 	0.33030 0.44140 0.97170 -0.02400
H 	H 	0.28040 0.46240 0.92790 0.01000
Sm	Sm	0.25230 0.17208 0.17742 1.48300
Sm	Sm	0.81176 0.17388 0.32740 1.52600
Sm	Sm	0.02649 0.92126 0.25290 1.38200
N 	N 	0.14370 0.18330 0.28030 -0.24000
N 	N 	0.00250 0.18870 0.33240 -0.26100
N 	N 	0.33490 0.20970 0.06690 -0.25000
N 	N 	0.34930 0.25730 0.94960 -0.25300
N 	N 	0.44230 0.15070 0.26020 -0.24800
N 	N 	0.62140 0.15860 0.31760 -0.26200
N 	N 	0.24170 0.07560 0.23660 -0.24600
N 	N 	0.16450 0.99450 0.25850 -0.25600
N 	N 	0.17310 0.10940 0.04860 -0.25000
N 	N 	0.09810 0.08280 0.91120 -0.24100
N 	N 	0.09200 0.23100 0.08630 -0.22500
N 	N 	0.98470 0.30380 0.03800 -0.17900
H 	H 	0.95500 0.33750 0.03360 0.11100
N 	N 	0.81750 0.07410 0.28290 -0.25300
N 	N 	0.89210 0.99160 0.26260 -0.24600
N 	N 	0.74420 0.26610 0.25520 -0.24800
N 	N 	0.64260 0.34500 0.23110 -0.26100
N 	N 	0.78780 0.16330 0.16090 -0.22700
N 	N 	0.70420 0.15070 0.02360 -0.20200
H 	H 	0.65490 0.15460 0.97350 0.09900
N 	N 	0.90020 0.84900 0.26930 -0.24300
N 	N 	0.80820 0.76750 0.24400 -0.24500
N 	N 	0.94440 0.91950 0.09790 -0.24800
N 	N 	0.86190 0.88620 0.96300 -0.24500
C 	C 	0.03860 0.19460 0.26540 0.03700
H 	H 	0.99380 0.20600 0.21050 0.01000
C 	C 	0.17720 0.17130 0.36580 0.00800
H 	H 	0.24880 0.16230 0.39790 -0.00500
C 	C 	0.09230 0.17420 0.39840 -0.01100
H 	H 	0.09460 0.16740 0.45660 -0.00800
C 	C 	0.30220 0.25300 0.01340 0.12500
H 	H 	0.24950 0.27910 0.01960 -0.05500
C 	C 	0.40950 0.18270 0.03370 0.01100
H 	H 	0.44820 0.14940 0.05620 -0.00400
C 	C 	0.41740 0.21190 0.96390 -0.01200
H 	H 	0.46320 0.20230 0.93000 0.00200
C 	C 	0.53480 0.17200 0.25220 0.10900
H 	H 	0.53830 0.19450 0.20450 -0.05000
C 	C 	0.47250 0.12290 0.33880 -0.01200
H 	H 	0.42620 0.10330 0.36460 0.00700
C 	C 	0.57980 0.12880 0.37200 0.01300
H 	H 	0.62080 0.11410 0.42610 -0.00300
C 	C 	0.15990 0.05140 0.25750 0.10900
H 	H 	0.10410 0.07220 0.27040 -0.06000
C 	C 	0.30240 0.03050 0.22260 -0.00300
H 	H 	0.36640 0.03310 0.20600 -0.00000
C 	C 	0.25500 0.98200 0.23650 -0.00700
H 	H 	0.28090 0.94500 0.23160 -0.00300
C 	C 	0.16960 0.11520 0.96530 0.10700
H 	H 	0.21490 0.14050 0.94680 -0.04900
C 	C 	0.09480 0.06930 0.04590 0.05400
H 	H 	0.07540 0.05500 0.09400 -0.03700
C 	C 	0.05050 0.05390 0.96220 -0.11700
H 	H 	0.99470 0.02700 0.94250 0.06100
C 	C 	0.07110 0.28500 0.09980 0.06300
H 	H 	0.11210 0.30710 0.14690 -0.02400
C 	C 	0.01530 0.21580 0.01350 -0.03800
H 	H 	0.00850 0.17920 0.98850 -0.00100
C 	C 	0.95260 0.25770 0.98240 0.05100
H 	H 	0.89460 0.25740 0.93060 0.00300
C 	C 	0.90430 0.04260 0.29790 0.12900
H 	H 	0.97240 0.05570 0.33230 -0.04700
C 	C 	0.73800 0.04010 0.23180 0.01100
H 	H 	0.66440 0.05010 0.20870 -0.00100
C 	C 	0.78250 0.99010 0.22010 -0.00900
H 	H 	0.74480 0.95910 0.18800 0.00700
C 	C 	0.67370 0.29890 0.27920 0.11400
H 	H 	0.64810 0.29000 0.32680 -0.06100
C 	C 	0.75860 0.29360 0.18500 0.00900
H 	H 	0.80380 0.28130 0.15200 0.01300
C 	C 	0.69840 0.34110 0.17020 -0.00300
H 	H 	0.69470 0.36750 0.12530 0.00200
C 	C 	0.70220 0.17380 0.09850 0.12800
H 	H 	0.64390 0.19560 0.10510 -0.03600
C 	C 	0.84800 0.12780 0.12370 -0.00300
H 	H 	0.91530 0.11150 0.15360 0.01000
C 	C 	0.79690 0.12010 0.03950 0.03100
H 	H 	0.82020 0.09800 0.99940 0.00400
C 	C 	0.88490 0.79880 0.22950 0.11800
H 	H 	0.92640 0.78660 0.19350 -0.04500
C 	C 	0.82410 0.84960 0.31300 0.00700
H 	H 	0.81240 0.87970 0.34790 0.00700
C 	C 	0.76910 0.80070 0.29850 0.00200
H 	H 	0.71260 0.79050 0.32190 0.01100
C 	C 	0.92960 0.87580 0.04020 0.12300
H 	H 	0.96530 0.84050 0.05450 -0.03400
C 	C 	0.88120 0.96090 0.05160 0.02100
H 	H 	0.88200 0.00200 0.07600 -0.00000
C 	C 	0.83030 0.94140 0.97170 -0.02200
H 	H 	0.78040 0.96240 0.92790 0.01300
