data_crystal

_cell_length_a 13.54200
_cell_length_b 13.54200
_cell_length_c 15.19200
_cell_angle_alpha 90.00000
_cell_angle_beta  90.00000
_cell_angle_gamma 120.00000

_symmetry_space_group_name_	'P 1'
_symmetry_space_group_name_H-M	'P 1'

loop_
_symmetry_equiv_pos_as_xyz
  x,y,z

loop_
_atom_site_label
_atom_site_type_symbol
_atom_site_fract_x
_atom_site_fract_y
_atom_site_fract_z
_atom_site_charge
Si	Si	0.23319 0.99990 0.10023 2.48500
Al	Al	0.23342 0.00057 0.89956 2.41500
O 	O 	0.27390 0.00030 0.99920 -1.23800
O 	O 	0.33440 0.01510 0.16690 -1.17500
O 	O 	0.20530 0.10370 0.11330 -1.24800
O 	O 	0.12000 0.87880 0.12370 -1.23100
P 	P 	0.33343 0.89996 0.76690 0.68800
Si	Si	0.89986 0.33323 0.43356 2.58000
Al	Al	0.90009 0.33390 0.23289 2.41600
O 	O 	0.94057 0.33363 0.33253 -1.25300
O 	O 	0.00107 0.34843 0.50023 -1.20600
O 	O 	0.87197 0.43703 0.44663 -1.27800
O 	O 	0.78667 0.21213 0.45703 -1.23600
P 	P 	0.00010 0.23329 0.10023 0.68700
Si	Si	0.56652 0.66657 0.76690 2.58600
Al	Al	0.56675 0.66724 0.56623 2.41600
O 	O 	0.60723 0.66697 0.66587 -1.25400
O 	O 	0.66773 0.68177 0.83357 -1.20900
O 	O 	0.53863 0.77037 0.77997 -1.27700
O 	O 	0.45333 0.54547 0.79037 -1.23600
P 	P 	0.66677 0.56662 0.43356 0.68700
Al	Al	0.99943 0.23285 0.89956 2.41500
O 	O 	0.99970 0.27360 0.99920 -0.81700
O 	O 	0.98490 0.31930 0.16690 -0.73400
O 	O 	0.89630 0.10160 0.11330 -0.80900
O 	O 	0.12120 0.24120 0.12370 -0.75700
P 	P 	0.10004 0.43348 0.76690 0.68700
Al	Al	0.66610 0.56618 0.23289 2.41700
O 	O 	0.66637 0.60693 0.33253 -0.79300
O 	O 	0.65157 0.65263 0.50023 -0.74100
O 	O 	0.56297 0.43493 0.44663 -0.82300
O 	O 	0.78787 0.57453 0.45703 -0.75700
P 	P 	0.76671 0.76681 0.10023 0.68600
Al	Al	0.33276 0.89952 0.56623 2.41700
O 	O 	0.33303 0.94027 0.66587 -0.79200
O 	O 	0.31823 0.98597 0.83357 -0.73400
O 	O 	0.22963 0.76827 0.77997 -0.82100
O 	O 	0.45453 0.90787 0.79037 -0.75500
P 	P 	0.43338 0.10014 0.43356 0.68900
Al	Al	0.76715 0.76658 0.89956 2.42000
O 	O 	0.72640 0.72610 0.99920 -0.79100
O 	O 	0.68070 0.66560 0.16690 -0.74300
O 	O 	0.89840 0.79470 0.11330 -0.80600
O 	O 	0.75880 0.88000 0.12370 -0.78100
Al	Al	0.43382 0.09991 0.23289 2.42000
O 	O 	0.39307 0.05943 0.33253 -0.78900
O 	O 	0.34737 0.99893 0.50023 -0.74600
O 	O 	0.56507 0.12803 0.44663 -0.81300
O 	O 	0.42547 0.21333 0.45703 -0.77800
Al	Al	0.10048 0.43325 0.56623 2.42000
O 	O 	0.05973 0.39277 0.66587 -0.79000
O 	O 	0.01403 0.33227 0.83357 -0.73400
O 	O 	0.23173 0.46137 0.77997 -0.81100
O 	O 	0.09213 0.54667 0.79037 -0.77500
Si	Si	0.76681 0.00010 0.89977 2.48500
Al	Al	0.76658 0.99943 0.10044 2.41500
O 	O 	0.72610 0.99970 0.00080 -1.23800
O 	O 	0.66560 0.98490 0.83310 -1.17500
O 	O 	0.79470 0.89630 0.88670 -1.24800
O 	O 	0.88000 0.12120 0.87630 -1.23100
P 	P 	0.66657 0.10004 0.23310 0.68800
Si	Si	0.43348 0.33343 0.23310 2.58600
Al	Al	0.43325 0.33276 0.43377 2.41600
O 	O 	0.39277 0.33303 0.33413 -1.25400
O 	O 	0.33227 0.31823 0.16643 -1.20900
O 	O 	0.46137 0.22963 0.22003 -1.27700
O 	O 	0.54667 0.45453 0.20963 -1.23600
P 	P 	0.33323 0.43338 0.56644 0.68700
Si	Si	0.10014 0.66677 0.56644 2.58000
Al	Al	0.09991 0.66610 0.76711 2.41600
O 	O 	0.05943 0.66637 0.66747 -1.25300
O 	O 	0.99893 0.65157 0.49977 -1.20600
O 	O 	0.12803 0.56297 0.55337 -1.27800
O 	O 	0.21333 0.78787 0.54297 -1.23600
P 	P 	0.99990 0.76671 0.89977 0.68700
Al	Al	0.00057 0.76715 0.10044 2.41500
O 	O 	0.00030 0.72640 0.00080 -0.81700
O 	O 	0.01510 0.68070 0.83310 -0.73400
O 	O 	0.10370 0.89840 0.88670 -0.80900
O 	O 	0.87880 0.75880 0.87630 -0.75700
P 	P 	0.89996 0.56652 0.23310 0.68700
Al	Al	0.66724 0.10048 0.43377 2.41700
O 	O 	0.66697 0.05973 0.33413 -0.79200
O 	O 	0.68177 0.01403 0.16643 -0.73400
O 	O 	0.77037 0.23173 0.22003 -0.82100
O 	O 	0.54547 0.09213 0.20963 -0.75500
P 	P 	0.56662 0.89986 0.56644 0.68900
Al	Al	0.33390 0.43382 0.76711 2.41700
O 	O 	0.33363 0.39307 0.66747 -0.79300
O 	O 	0.34843 0.34737 0.49977 -0.74100
O 	O 	0.43703 0.56507 0.55337 -0.82300
O 	O 	0.21213 0.42547 0.54297 -0.75700
P 	P 	0.23329 0.23319 0.89977 0.68600
Al	Al	0.23285 0.23342 0.10044 2.42000
O 	O 	0.27360 0.27390 0.00080 -0.79100
O 	O 	0.31930 0.33440 0.83310 -0.74300
O 	O 	0.10160 0.20530 0.88670 -0.80600
O 	O 	0.24120 0.12000 0.87630 -0.78100
Al	Al	0.89952 0.56675 0.43377 2.42000
O 	O 	0.94027 0.60723 0.33413 -0.79000
O 	O 	0.98597 0.66773 0.16643 -0.73400
O 	O 	0.76827 0.53863 0.22003 -0.81100
O 	O 	0.90787 0.45333 0.20963 -0.77500
Al	Al	0.56618 0.90009 0.76711 2.42000
O 	O 	0.60693 0.94057 0.66747 -0.78900
O 	O 	0.65263 0.00107 0.49977 -0.74600
O 	O 	0.43493 0.87197 0.55337 -0.81300
O 	O 	0.57453 0.78667 0.54297 -0.77800
