data_crystal

_cell_length_a 9.79040
_cell_length_b 17.36600
_cell_length_c 15.25690
_cell_angle_alpha 90.00000
_cell_angle_beta  95.48290
_cell_angle_gamma 90.00000

_symmetry_space_group_name_	'P 1'
_symmetry_space_group_name_H-M	'P 1'

loop_
_symmetry_equiv_pos_as_xyz
  x,y,z

loop_
_atom_site_label
_atom_site_type_symbol
_atom_site_fract_x
_atom_site_fract_y
_atom_site_fract_z
_atom_site_charge
Cd	Cd	0.86450 0.58085 0.51929 1.22400
O 	O 	0.75390 0.53452 0.39227 -0.42000
O 	O 	0.67830 0.66685 0.52914 -0.37800
O 	O 	0.83870 0.66548 0.64016 -0.37100
O 	O 	0.93680 0.46188 0.40215 -0.48800
N 	N 	0.99810 0.16348 0.05289 -0.24000
N 	N 	0.24780 0.98740 0.90510 -0.23900
C 	C 	0.82160 0.47784 0.36912 0.38600
C 	C 	0.75330 0.42788 0.29650 -0.09800
C 	C 	0.82750 0.37218 0.25570 -0.00900
H 	H 	0.91920 0.36390 0.27520 0.04700
C 	C 	0.76570 0.32860 0.18590 -0.03100
C 	C 	0.62690 0.34030 0.15920 -0.02700
H 	H 	0.58470 0.31190 0.11250 0.04300
C 	C 	0.55140 0.39370 0.20180 -0.06000
H 	H 	0.45820 0.39980 0.18480 0.05500
C 	C 	0.61430 0.43810 0.26960 0.00800
H 	H 	0.56380 0.47470 0.29720 0.04500
C 	C 	0.01330 0.17130 0.13970 0.09300
H 	H 	0.07580 0.13940 0.17190 -0.01000
C 	C 	0.94140 0.22410 0.18500 -0.16500
H 	H 	0.95760 0.22790 0.24590 0.09500
C 	C 	0.84570 0.27120 0.13980 0.10400
C 	C 	0.82750 0.26220 0.04890 -0.16200
H 	H 	0.76320 0.29220 0.01550 0.08600
C 	C 	0.90450 0.20920 0.00830 0.09200
H 	H 	0.89130 0.20470 0.94740 -0.01100
C 	C 	0.72360 0.68670 0.60540 0.30500
C 	C 	0.63740 0.73800 0.65710 -0.08300
C 	C 	0.50800 0.76230 0.62270 0.01300
H 	H 	0.47250 0.74580 0.56720 0.03500
C 	C 	0.43160 0.81100 0.67090 -0.08000
H 	H 	0.34560 0.82730 0.64670 0.05500
C 	C 	0.48030 0.83583 0.75400 0.01500
C 	C 	0.60790 0.81000 0.78840 -0.08100
H 	H 	0.64260 0.82570 0.84450 0.06600
C 	C 	0.68470 0.76110 0.74060 0.01200
H 	H 	0.76950 0.74370 0.76550 0.04000
C 	C 	0.22210 0.98130 0.81820 0.10400
H 	H 	0.15230 0.01140 0.79040 -0.01500
C 	C 	0.29280 0.93290 0.76680 -0.16300
H 	H 	0.26980 0.93060 0.70630 0.08700
C 	C 	0.39870 0.88769 0.80590 0.09500
C 	C 	0.42500 0.89430 0.89650 -0.17100
H 	H 	0.49420 0.86500 0.92620 0.10900
C 	C 	0.34970 0.94370 0.94220 0.11000
H 	H 	0.37060 0.94710 0.00280 -0.01300
Cd	Cd	0.13550 0.08085 0.98071 1.22100
O 	O 	0.24610 0.03452 0.10773 -0.41700
O 	O 	0.32170 0.16685 0.97086 -0.38100
O 	O 	0.16130 0.16548 0.85984 -0.37300
O 	O 	0.06320 0.96188 0.09785 -0.48600
N 	N 	0.00190 0.66348 0.44711 -0.23800
N 	N 	0.75220 0.48740 0.59490 -0.23500
C 	C 	0.17840 0.97784 0.13088 0.38300
C 	C 	0.24670 0.92788 0.20350 -0.09600
C 	C 	0.17250 0.87218 0.24430 -0.01100
H 	H 	0.08080 0.86390 0.22480 0.04900
C 	C 	0.23430 0.82860 0.31410 -0.02800
C 	C 	0.37310 0.84030 0.34080 -0.02900
H 	H 	0.41530 0.81190 0.38750 0.04300
C 	C 	0.44860 0.89370 0.29820 -0.05800
H 	H 	0.54180 0.89980 0.31520 0.05300
C 	C 	0.38570 0.93810 0.23040 0.00600
H 	H 	0.43620 0.97470 0.20280 0.04500
C 	C 	0.98670 0.67130 0.36030 0.08500
H 	H 	0.92420 0.63940 0.32810 -0.00800
C 	C 	0.05860 0.72410 0.31500 -0.15800
H 	H 	0.04240 0.72790 0.25410 0.09400
C 	C 	0.15430 0.77120 0.36020 0.10000
C 	C 	0.17250 0.76220 0.45110 -0.15800
H 	H 	0.23680 0.79220 0.48450 0.08400
C 	C 	0.09550 0.70920 0.49170 0.08800
H 	H 	0.10870 0.70470 0.55260 -0.01000
C 	C 	0.27640 0.18670 0.89460 0.30600
C 	C 	0.36260 0.23800 0.84290 -0.08700
C 	C 	0.49200 0.26230 0.87730 0.01600
H 	H 	0.52750 0.24580 0.93280 0.03400
C 	C 	0.56840 0.31100 0.82910 -0.08400
H 	H 	0.65440 0.32730 0.85330 0.05600
C 	C 	0.51970 0.33583 0.74600 0.02000
C 	C 	0.39210 0.31000 0.71160 -0.08500
H 	H 	0.35740 0.32570 0.65550 0.06700
C 	C 	0.31530 0.26110 0.75940 0.01500
H 	H 	0.23050 0.24370 0.73450 0.03800
C 	C 	0.77790 0.48130 0.68180 0.08600
H 	H 	0.84770 0.51140 0.70960 -0.00400
C 	C 	0.70720 0.43290 0.73320 -0.15100
H 	H 	0.73020 0.43060 0.79370 0.08200
C 	C 	0.60130 0.38769 0.69410 0.08600
C 	C 	0.57500 0.39430 0.60350 -0.16100
H 	H 	0.50580 0.36500 0.57380 0.10300
C 	C 	0.65030 0.44370 0.55780 0.09600
H 	H 	0.62940 0.44710 0.49720 -0.00600
Cd	Cd	0.13550 0.41915 0.48071 1.22300
O 	O 	0.24610 0.46548 0.60773 -0.42100
O 	O 	0.32170 0.33315 0.47086 -0.37800
O 	O 	0.16130 0.33452 0.35984 -0.37100
O 	O 	0.06320 0.53812 0.59785 -0.48800
N 	N 	0.00190 0.83652 0.94711 -0.24000
N 	N 	0.75220 0.01260 0.09490 -0.23900
C 	C 	0.17840 0.52216 0.63088 0.38600
C 	C 	0.24670 0.57212 0.70350 -0.09800
C 	C 	0.17250 0.62782 0.74430 -0.00900
H 	H 	0.08080 0.63610 0.72480 0.04700
C 	C 	0.23430 0.67140 0.81410 -0.03100
C 	C 	0.37310 0.65970 0.84080 -0.02700
H 	H 	0.41530 0.68810 0.88750 0.04300
C 	C 	0.44860 0.60630 0.79820 -0.06000
H 	H 	0.54180 0.60020 0.81520 0.05500
C 	C 	0.38570 0.56190 0.73040 0.00800
H 	H 	0.43620 0.52530 0.70280 0.04500
C 	C 	0.98670 0.82870 0.86030 0.09300
H 	H 	0.92420 0.86060 0.82810 -0.01000
C 	C 	0.05860 0.77590 0.81500 -0.16500
H 	H 	0.04240 0.77210 0.75410 0.09500
C 	C 	0.15430 0.72880 0.86020 0.10400
C 	C 	0.17250 0.73780 0.95110 -0.16200
H 	H 	0.23680 0.70780 0.98450 0.08600
C 	C 	0.09550 0.79080 0.99170 0.09200
H 	H 	0.10870 0.79530 0.05260 -0.01100
C 	C 	0.27640 0.31330 0.39460 0.30500
C 	C 	0.36260 0.26200 0.34290 -0.08300
C 	C 	0.49200 0.23770 0.37730 0.01300
H 	H 	0.52750 0.25420 0.43280 0.03500
C 	C 	0.56840 0.18900 0.32910 -0.08000
H 	H 	0.65440 0.17270 0.35330 0.05500
C 	C 	0.51970 0.16417 0.24600 0.01500
C 	C 	0.39210 0.19000 0.21160 -0.08100
H 	H 	0.35740 0.17430 0.15550 0.06600
C 	C 	0.31530 0.23890 0.25940 0.01200
H 	H 	0.23050 0.25630 0.23450 0.04000
C 	C 	0.77790 0.01870 0.18180 0.10400
H 	H 	0.84770 0.98860 0.20960 -0.01500
C 	C 	0.70720 0.06710 0.23320 -0.16300
H 	H 	0.73020 0.06940 0.29370 0.08700
C 	C 	0.60130 0.11231 0.19410 0.09500
C 	C 	0.57500 0.10570 0.10350 -0.17100
H 	H 	0.50580 0.13500 0.07380 0.10900
C 	C 	0.65030 0.05630 0.05780 0.11000
H 	H 	0.62940 0.05290 0.99720 -0.01300
Cd	Cd	0.86450 0.91915 0.01929 1.22100
O 	O 	0.75390 0.96548 0.89227 -0.41700
O 	O 	0.67830 0.83315 0.02914 -0.38100
O 	O 	0.83870 0.83452 0.14016 -0.37300
O 	O 	0.93680 0.03812 0.90215 -0.48600
N 	N 	0.99810 0.33652 0.55289 -0.23800
N 	N 	0.24780 0.51260 0.40510 -0.23500
C 	C 	0.82160 0.02216 0.86912 0.38300
C 	C 	0.75330 0.07212 0.79650 -0.09600
C 	C 	0.82750 0.12782 0.75570 -0.01100
H 	H 	0.91920 0.13610 0.77520 0.04900
C 	C 	0.76570 0.17140 0.68590 -0.02800
C 	C 	0.62690 0.15970 0.65920 -0.02900
H 	H 	0.58470 0.18810 0.61250 0.04300
C 	C 	0.55140 0.10630 0.70180 -0.05800
H 	H 	0.45820 0.10020 0.68480 0.05300
C 	C 	0.61430 0.06190 0.76960 0.00600
H 	H 	0.56380 0.02530 0.79720 0.04500
C 	C 	0.01330 0.32870 0.63970 0.08500
H 	H 	0.07580 0.36060 0.67190 -0.00800
C 	C 	0.94140 0.27590 0.68500 -0.15800
H 	H 	0.95760 0.27210 0.74590 0.09400
C 	C 	0.84570 0.22880 0.63980 0.10000
C 	C 	0.82750 0.23780 0.54890 -0.15800
H 	H 	0.76320 0.20780 0.51550 0.08400
C 	C 	0.90450 0.29080 0.50830 0.08800
H 	H 	0.89130 0.29530 0.44740 -0.01000
C 	C 	0.72360 0.81330 0.10540 0.30600
C 	C 	0.63740 0.76200 0.15710 -0.08700
C 	C 	0.50800 0.73770 0.12270 0.01600
H 	H 	0.47250 0.75420 0.06720 0.03400
C 	C 	0.43160 0.68900 0.17090 -0.08400
H 	H 	0.34560 0.67270 0.14670 0.05600
C 	C 	0.48030 0.66417 0.25400 0.02000
C 	C 	0.60790 0.69000 0.28840 -0.08500
H 	H 	0.64260 0.67430 0.34450 0.06700
C 	C 	0.68470 0.73890 0.24060 0.01500
H 	H 	0.76950 0.75630 0.26550 0.03800
C 	C 	0.22210 0.51870 0.31820 0.08600
H 	H 	0.15230 0.48860 0.29040 -0.00400
C 	C 	0.29280 0.56710 0.26680 -0.15100
H 	H 	0.26980 0.56940 0.20630 0.08200
C 	C 	0.39870 0.61231 0.30590 0.08600
C 	C 	0.42500 0.60570 0.39650 -0.16100
H 	H 	0.49420 0.63500 0.42620 0.10300
C 	C 	0.34970 0.55630 0.44220 0.09600
H 	H 	0.37060 0.55290 0.50280 -0.00600
