data_crystal

_cell_length_a 9.72700
_cell_length_b 17.02040
_cell_length_c 15.29590
_cell_angle_alpha 90.00000
_cell_angle_beta  96.84770
_cell_angle_gamma 90.00000

_symmetry_space_group_name_	'P 1'
_symmetry_space_group_name_H-M	'P 1'

loop_
_symmetry_equiv_pos_as_xyz
  x,y,z

loop_
_atom_site_label
_atom_site_type_symbol
_atom_site_fract_x
_atom_site_fract_y
_atom_site_fract_z
_atom_site_charge
Cd	Cd	0.86686 0.58026 0.51932 1.22200
O 	O 	0.74460 0.53890 0.38993 -0.41500
O 	O 	0.68380 0.66776 0.53282 -0.37700
O 	O 	0.84550 0.66152 0.64735 -0.36100
O 	O 	0.93130 0.46602 0.40116 -0.48700
N 	N 	0.99660 0.16606 0.04835 -0.23600
N 	N 	0.24450 0.98427 0.90926 -0.23400
C 	C 	0.81380 0.48267 0.36599 0.37300
C 	C 	0.74690 0.43295 0.29057 -0.09100
C 	C 	0.82320 0.37753 0.25005 -0.01400
H 	H 	0.91780 0.36930 0.27150 0.05000
C 	C 	0.76250 0.33374 0.17810 -0.02200
C 	C 	0.62150 0.34550 0.14890 -0.03200
H 	H 	0.57850 0.31620 0.10030 0.04400
C 	C 	0.54420 0.39960 0.19070 -0.05000
H 	H 	0.44850 0.40620 0.17120 0.05000
C 	C 	0.60640 0.44410 0.26080 0.00100
H 	H 	0.55390 0.48190 0.28830 0.04800
C 	C 	0.01330 0.17459 0.13570 0.07600
H 	H 	0.07930 0.14210 0.16920 -0.00300
C 	C 	0.94050 0.22767 0.18040 -0.14000
H 	H 	0.95640 0.23100 0.24280 0.08500
C 	C 	0.84350 0.27636 0.13300 0.08600
C 	C 	0.82580 0.26730 0.04170 -0.14200
H 	H 	0.76040 0.29900 0.00670 0.07700
C 	C 	0.90200 0.21310 0.00230 0.08000
H 	H 	0.88790 0.20830 0.94000 -0.00700
C 	C 	0.72910 0.68460 0.61153 0.29500
C 	C 	0.64080 0.73380 0.66350 -0.07900
C 	C 	0.51020 0.75960 0.62720 0.01000
H 	H 	0.47520 0.74430 0.56900 0.03600
C 	C 	0.43120 0.80720 0.67490 -0.07400
H 	H 	0.34270 0.82430 0.64880 0.05100
C 	C 	0.47930 0.83037 0.76071 0.01500
C 	C 	0.60900 0.80260 0.79740 -0.07400
H 	H 	0.64390 0.81690 0.85590 0.06300
C 	C 	0.68670 0.75480 0.74970 0.00900
H 	H 	0.77360 0.73580 0.77630 0.04000
C 	C 	0.21540 0.97630 0.82200 0.09000
H 	H 	0.14060 0.00590 0.79310 -0.00900
C 	C 	0.28690 0.92782 0.77150 -0.14200
H 	H 	0.26210 0.92520 0.70960 0.07700
C 	C 	0.39660 0.88240 0.81185 0.08000
C 	C 	0.42520 0.89000 0.90286 -0.14800
H 	H 	0.49770 0.86000 0.93380 0.09900
C 	C 	0.34980 0.94010 0.94801 0.09300
H 	H 	0.37270 0.94420 0.01000 -0.00600
Cd	Cd	0.13314 0.08026 0.98068 1.22000
O 	O 	0.25540 0.03890 0.11007 -0.41000
O 	O 	0.31620 0.16776 0.96718 -0.38000
O 	O 	0.15450 0.16152 0.85265 -0.36400
O 	O 	0.06870 0.96602 0.09884 -0.48500
N 	N 	0.00340 0.66606 0.45165 -0.23500
N 	N 	0.75550 0.48427 0.59074 -0.23100
C 	C 	0.18620 0.98267 0.13401 0.36900
C 	C 	0.25310 0.93295 0.20943 -0.08900
C 	C 	0.17680 0.87753 0.24995 -0.01600
H 	H 	0.08220 0.86930 0.22850 0.05200
C 	C 	0.23750 0.83374 0.32190 -0.02000
C 	C 	0.37850 0.84550 0.35110 -0.03400
H 	H 	0.42150 0.81620 0.39970 0.04400
C 	C 	0.45580 0.89960 0.30930 -0.04900
H 	H 	0.55150 0.90620 0.32880 0.04900
C 	C 	0.39360 0.94410 0.23920 -0.00000
H 	H 	0.44610 0.98190 0.21170 0.04700
C 	C 	0.98670 0.67459 0.36430 0.06900
H 	H 	0.92070 0.64210 0.33080 -0.00200
C 	C 	0.05950 0.72767 0.31960 -0.13400
H 	H 	0.04360 0.73100 0.25720 0.08400
C 	C 	0.15650 0.77636 0.36700 0.08300
C 	C 	0.17420 0.76730 0.45830 -0.13900
H 	H 	0.23960 0.79900 0.49330 0.07500
C 	C 	0.09800 0.71310 0.49770 0.07500
H 	H 	0.11210 0.70830 0.56000 -0.00500
C 	C 	0.27090 0.18460 0.88847 0.29600
C 	C 	0.35920 0.23380 0.83650 -0.08200
C 	C 	0.48980 0.25960 0.87280 0.01200
H 	H 	0.52480 0.24430 0.93100 0.03500
C 	C 	0.56880 0.30720 0.82510 -0.07700
H 	H 	0.65730 0.32430 0.85120 0.05200
C 	C 	0.52070 0.33037 0.73929 0.01900
C 	C 	0.39100 0.30260 0.70260 -0.07700
H 	H 	0.35610 0.31690 0.64410 0.06300
C 	C 	0.31330 0.25480 0.75030 0.01100
H 	H 	0.22640 0.23580 0.72370 0.03900
C 	C 	0.78460 0.47630 0.67800 0.07300
H 	H 	0.85940 0.50590 0.70690 0.00200
C 	C 	0.71310 0.42782 0.72850 -0.13200
H 	H 	0.73790 0.42520 0.79040 0.07300
C 	C 	0.60340 0.38240 0.68815 0.07300
C 	C 	0.57480 0.39000 0.59714 -0.13900
H 	H 	0.50230 0.36000 0.56620 0.09500
C 	C 	0.65020 0.44010 0.55199 0.08000
H 	H 	0.62730 0.44420 0.49000 0.00200
Cd	Cd	0.13314 0.41974 0.48068 1.22300
O 	O 	0.25540 0.46110 0.61007 -0.41400
O 	O 	0.31620 0.33224 0.46718 -0.37700
O 	O 	0.15450 0.33848 0.35265 -0.36100
O 	O 	0.06870 0.53398 0.59884 -0.48700
N 	N 	0.00340 0.83394 0.95165 -0.23600
N 	N 	0.75550 0.01573 0.09074 -0.23400
C 	C 	0.18620 0.51733 0.63401 0.37300
C 	C 	0.25310 0.56705 0.70943 -0.09100
C 	C 	0.17680 0.62247 0.74995 -0.01400
H 	H 	0.08220 0.63070 0.72850 0.05000
C 	C 	0.23750 0.66626 0.82190 -0.02200
C 	C 	0.37850 0.65450 0.85110 -0.03200
H 	H 	0.42150 0.68380 0.89970 0.04400
C 	C 	0.45580 0.60040 0.80930 -0.05000
H 	H 	0.55150 0.59380 0.82880 0.05000
C 	C 	0.39360 0.55590 0.73920 0.00100
H 	H 	0.44610 0.51810 0.71170 0.04800
C 	C 	0.98670 0.82541 0.86430 0.07600
H 	H 	0.92070 0.85790 0.83080 -0.00300
C 	C 	0.05950 0.77233 0.81960 -0.14000
H 	H 	0.04360 0.76900 0.75720 0.08500
C 	C 	0.15650 0.72364 0.86700 0.08600
C 	C 	0.17420 0.73270 0.95830 -0.14200
H 	H 	0.23960 0.70100 0.99330 0.07700
C 	C 	0.09800 0.78690 0.99770 0.08000
H 	H 	0.11210 0.79170 0.06000 -0.00700
C 	C 	0.27090 0.31540 0.38847 0.29500
C 	C 	0.35920 0.26620 0.33650 -0.07900
C 	C 	0.48980 0.24040 0.37280 0.01000
H 	H 	0.52480 0.25570 0.43100 0.03600
C 	C 	0.56880 0.19280 0.32510 -0.07400
H 	H 	0.65730 0.17570 0.35120 0.05100
C 	C 	0.52070 0.16963 0.23929 0.01500
C 	C 	0.39100 0.19740 0.20260 -0.07400
H 	H 	0.35610 0.18310 0.14410 0.06300
C 	C 	0.31330 0.24520 0.25030 0.00900
H 	H 	0.22640 0.26420 0.22370 0.04000
C 	C 	0.78460 0.02370 0.17800 0.09000
H 	H 	0.85940 0.99410 0.20690 -0.00900
C 	C 	0.71310 0.07218 0.22850 -0.14200
H 	H 	0.73790 0.07480 0.29040 0.07700
C 	C 	0.60340 0.11760 0.18815 0.08000
C 	C 	0.57480 0.11000 0.09714 -0.14800
H 	H 	0.50230 0.14000 0.06620 0.09900
C 	C 	0.65020 0.05990 0.05199 0.09300
H 	H 	0.62730 0.05580 0.99000 -0.00600
Cd	Cd	0.86686 0.91974 0.01932 1.22000
O 	O 	0.74460 0.96110 0.88993 -0.41000
O 	O 	0.68380 0.83224 0.03282 -0.38000
O 	O 	0.84550 0.83848 0.14735 -0.36400
O 	O 	0.93130 0.03398 0.90116 -0.48500
N 	N 	0.99660 0.33394 0.54835 -0.23500
N 	N 	0.24450 0.51573 0.40926 -0.23100
C 	C 	0.81380 0.01733 0.86599 0.36900
C 	C 	0.74690 0.06705 0.79057 -0.08900
C 	C 	0.82320 0.12247 0.75005 -0.01600
H 	H 	0.91780 0.13070 0.77150 0.05200
C 	C 	0.76250 0.16626 0.67810 -0.02000
C 	C 	0.62150 0.15450 0.64890 -0.03400
H 	H 	0.57850 0.18380 0.60030 0.04400
C 	C 	0.54420 0.10040 0.69070 -0.04900
H 	H 	0.44850 0.09380 0.67120 0.04900
C 	C 	0.60640 0.05590 0.76080 -0.00000
H 	H 	0.55390 0.01810 0.78830 0.04700
C 	C 	0.01330 0.32541 0.63570 0.06900
H 	H 	0.07930 0.35790 0.66920 -0.00200
C 	C 	0.94050 0.27233 0.68040 -0.13400
H 	H 	0.95640 0.26900 0.74280 0.08400
C 	C 	0.84350 0.22364 0.63300 0.08300
C 	C 	0.82580 0.23270 0.54170 -0.13900
H 	H 	0.76040 0.20100 0.50670 0.07500
C 	C 	0.90200 0.28690 0.50230 0.07500
H 	H 	0.88790 0.29170 0.44000 -0.00500
C 	C 	0.72910 0.81540 0.11153 0.29600
C 	C 	0.64080 0.76620 0.16350 -0.08200
C 	C 	0.51020 0.74040 0.12720 0.01200
H 	H 	0.47520 0.75570 0.06900 0.03500
C 	C 	0.43120 0.69280 0.17490 -0.07700
H 	H 	0.34270 0.67570 0.14880 0.05200
C 	C 	0.47930 0.66963 0.26071 0.01900
C 	C 	0.60900 0.69740 0.29740 -0.07700
H 	H 	0.64390 0.68310 0.35590 0.06300
C 	C 	0.68670 0.74520 0.24970 0.01100
H 	H 	0.77360 0.76420 0.27630 0.03900
C 	C 	0.21540 0.52370 0.32200 0.07300
H 	H 	0.14060 0.49410 0.29310 0.00200
C 	C 	0.28690 0.57218 0.27150 -0.13200
H 	H 	0.26210 0.57480 0.20960 0.07300
C 	C 	0.39660 0.61760 0.31185 0.07300
C 	C 	0.42520 0.61000 0.40286 -0.13900
H 	H 	0.49770 0.64000 0.43380 0.09500
C 	C 	0.34980 0.55990 0.44801 0.08000
H 	H 	0.37270 0.55580 0.51000 0.00200
