data_crystal

_cell_length_a 8.91100
_cell_length_b 8.09800
_cell_length_c 10.28900
_cell_angle_alpha 90.00000
_cell_angle_beta  101.43300
_cell_angle_gamma 90.00000

_symmetry_space_group_name_	'P 1'
_symmetry_space_group_name_H-M	'P 1'

loop_
_symmetry_equiv_pos_as_xyz
  x,y,z

loop_
_atom_site_label
_atom_site_type_symbol
_atom_site_fract_x
_atom_site_fract_y
_atom_site_fract_z
_atom_site_charge
Zn	Zn	0.31382 0.05878 0.56136 1.18900
O 	O 	0.84180 0.12940 0.45900 -0.41100
N 	N 	0.37840 0.22050 0.71230 -0.29700
C 	C 	0.98160 0.09160 0.49230 0.21500
N 	N 	0.37690 0.36170 0.89660 -0.25900
N 	N 	0.51980 0.38150 0.86530 -0.25300
C 	C 	0.29920 0.26590 0.80350 0.10700
H 	H 	0.19870 0.23310 0.80150 -0.02400
C 	C 	0.51380 0.29440 0.75450 0.18100
O 	O 	0.09090 0.19020 0.51100 -0.36600
N 	N 	0.63440 0.28290 0.69020 -0.32300
H 	H 	0.71880 0.33340 0.72120 0.13600
H 	H 	0.62550 0.22530 0.61890 0.10900
Zn	Zn	0.68618 0.55878 0.93864 1.18800
O 	O 	0.15820 0.62940 0.04100 -0.41200
N 	N 	0.62160 0.72050 0.78770 -0.29800
C 	C 	0.01840 0.59160 0.00770 0.21300
N 	N 	0.62310 0.86170 0.60340 -0.26000
N 	N 	0.48020 0.88150 0.63470 -0.25400
C 	C 	0.70080 0.76590 0.69650 0.10700
H 	H 	0.80130 0.73310 0.69850 -0.02400
C 	C 	0.48620 0.79440 0.74550 0.18200
O 	O 	0.90910 0.69020 0.98900 -0.36500
N 	N 	0.36560 0.78290 0.80980 -0.32300
H 	H 	0.28120 0.83340 0.77880 0.13600
H 	H 	0.37450 0.72530 0.88110 0.10900
Zn	Zn	0.68618 0.94122 0.43864 1.18800
O 	O 	0.15820 0.87060 0.54100 -0.41200
N 	N 	0.62160 0.77950 0.28770 -0.29800
C 	C 	0.01840 0.90840 0.50770 0.21400
N 	N 	0.62310 0.63830 0.10340 -0.26000
N 	N 	0.48020 0.61850 0.13470 -0.25400
C 	C 	0.70080 0.73410 0.19650 0.10700
H 	H 	0.80130 0.76690 0.19850 -0.02400
C 	C 	0.48620 0.70560 0.24550 0.18100
O 	O 	0.90910 0.80980 0.48900 -0.36600
N 	N 	0.36560 0.71710 0.30980 -0.32300
H 	H 	0.28120 0.66660 0.27880 0.13600
H 	H 	0.37450 0.77470 0.38110 0.10900
Zn	Zn	0.31382 0.44122 0.06136 1.18800
O 	O 	0.84180 0.37060 0.95900 -0.41200
N 	N 	0.37840 0.27950 0.21230 -0.29800
C 	C 	0.98160 0.40840 0.99230 0.21300
N 	N 	0.37690 0.13830 0.39660 -0.26000
N 	N 	0.51980 0.11850 0.36530 -0.25400
C 	C 	0.29920 0.23410 0.30350 0.10700
H 	H 	0.19870 0.26690 0.30150 -0.02400
C 	C 	0.51380 0.20560 0.25450 0.18200
O 	O 	0.09090 0.30980 0.01100 -0.36500
N 	N 	0.63440 0.21710 0.19020 -0.32300
H 	H 	0.71880 0.16660 0.22120 0.13600
H 	H 	0.62550 0.27470 0.11890 0.10900
