data_crystal

_cell_length_a 8.65140
_cell_length_b 10.15310
_cell_length_c 11.17030
_cell_angle_alpha 65.43700
_cell_angle_beta  71.66600
_cell_angle_gamma 78.42100

_symmetry_space_group_name_	'P 1'
_symmetry_space_group_name_H-M	'P 1'

loop_
_symmetry_equiv_pos_as_xyz
  x,y,z

loop_
_atom_site_label
_atom_site_type_symbol
_atom_site_fract_x
_atom_site_fract_y
_atom_site_fract_z
_atom_site_charge
Tm	Tm	0.13211 0.44027 0.65278 1.46400
Tm	Tm	0.86789 0.55973 0.34722 1.46400
H 	H 	0.63360 0.11180 0.77310 0.04700
H 	H 	0.23030 0.07020 0.08110 0.05900
H 	H 	0.54390 0.35450 0.87690 0.05100
H 	H 	0.71320 0.61830 0.98470 0.05900
H 	H 	0.92590 0.78210 0.68010 0.04500
H 	H 	0.02070 0.02710 0.27950 0.05100
H 	H 	0.36640 0.88820 0.22690 0.04700
H 	H 	0.76970 0.92980 0.91890 0.05900
H 	H 	0.45610 0.64550 0.12310 0.05100
H 	H 	0.28680 0.38170 0.01530 0.05900
H 	H 	0.07410 0.21790 0.31990 0.04500
H 	H 	0.97930 0.97290 0.72050 0.05100
C 	C 	0.32580 0.23140 0.82090 0.29900
C 	C 	0.41810 0.11180 0.91100 -0.06000
C 	C 	0.57930 0.06740 0.86440 -0.01600
C 	C 	0.33930 0.04220 0.04810 -0.02500
C 	C 	0.82020 0.46150 0.83090 0.30100
C 	C 	0.65420 0.48290 0.91740 -0.05900
C 	C 	0.52610 0.41290 0.92660 -0.02800
C 	C 	0.62790 0.57080 0.99090 -0.03200
C 	C 	0.92990 0.76610 0.44760 0.33100
C 	C 	0.96610 0.88600 0.47640 -0.08800
C 	C 	0.95510 0.86920 0.60800 -0.03400
C 	C 	0.01200 0.01650 0.36810 -0.01600
C 	C 	0.67420 0.76860 0.17910 0.29900
C 	C 	0.58190 0.88820 0.08900 -0.06000
C 	C 	0.42070 0.93260 0.13560 -0.01600
C 	C 	0.66070 0.95780 0.95190 -0.02500
C 	C 	0.17980 0.53850 0.16910 0.30100
C 	C 	0.34580 0.51710 0.08260 -0.05900
C 	C 	0.47390 0.58710 0.07340 -0.02800
C 	C 	0.37210 0.42920 0.00910 -0.03200
C 	C 	0.07010 0.23390 0.55240 0.33100
C 	C 	0.03390 0.11400 0.52360 -0.08800
C 	C 	0.04490 0.13080 0.39200 -0.03400
C 	C 	0.98800 0.98350 0.63190 -0.01600
O 	O 	0.39780 0.29890 0.69610 -0.39100
O 	O 	0.17870 0.26560 0.86850 -0.36500
O 	O 	0.84330 0.38130 0.76370 -0.36400
O 	O 	0.93550 0.52360 0.82510 -0.37300
O 	O 	0.96230 0.63430 0.51890 -0.48600
O 	O 	0.86800 0.79940 0.35000 -0.37000
O 	O 	0.60220 0.70110 0.30390 -0.39100
O 	O 	0.82130 0.73440 0.13150 -0.36500
O 	O 	0.15670 0.61870 0.23630 -0.36400
O 	O 	0.06450 0.47640 0.17490 -0.37300
O 	O 	0.03770 0.36570 0.48110 -0.48600
O 	O 	0.13200 0.20060 0.65000 -0.37000
