data_crystal

_cell_length_a 9.95500
_cell_length_b 12.79500
_cell_length_c 13.80100
_cell_angle_alpha 69.41500
_cell_angle_beta  82.56200
_cell_angle_gamma 83.11700

_symmetry_space_group_name_	'P 1'
_symmetry_space_group_name_H-M	'P 1'

loop_
_symmetry_equiv_pos_as_xyz
  x,y,z

loop_
_atom_site_label
_atom_site_type_symbol
_atom_site_fract_x
_atom_site_fract_y
_atom_site_fract_z
_atom_site_charge
Tm	Tm	0.53018 0.64035 0.37478 1.48700
Tm	Tm	0.46982 0.35965 0.62522 1.48700
H 	H 	0.21020 0.98140 0.41110 0.20200
H 	H 	0.30220 0.87560 0.40350 0.22700
H 	H 	0.22290 0.87360 0.50990 0.21500
H 	H 	0.71080 0.85060 0.67780 0.18000
H 	H 	0.68250 0.76570 0.62550 0.19300
H 	H 	0.79300 0.85120 0.57270 0.17500
H 	H 	0.13460 0.42310 0.29740 0.19200
H 	H 	0.20370 0.53250 0.28170 0.20500
H 	H 	0.25970 0.41730 0.35800 0.20000
H 	H 	0.09500 0.56690 0.69400 0.17800
H 	H 	0.18910 0.63230 0.59660 0.20000
H 	H 	0.04070 0.68220 0.61670 0.18400
H 	H 	0.24490 0.03290 0.17150 0.18900
H 	H 	0.18740 0.95990 0.11830 0.19300
H 	H 	0.28030 0.90300 0.20920 0.21600
H 	H 	0.80890 0.86830 0.98650 0.16600
H 	H 	0.77490 0.85050 0.10510 0.17200
H 	H 	0.71940 0.77180 0.05700 0.18100
H 	H 	0.78980 0.01860 0.58890 0.20300
H 	H 	0.69780 0.12440 0.59650 0.22800
H 	H 	0.77710 0.12640 0.49010 0.21500
H 	H 	0.28920 0.14940 0.32220 0.18000
H 	H 	0.31750 0.23430 0.37450 0.19300
H 	H 	0.20700 0.14880 0.42730 0.17500
H 	H 	0.86540 0.57690 0.70260 0.19200
H 	H 	0.79630 0.46750 0.71830 0.20500
H 	H 	0.74030 0.58270 0.64200 0.20000
H 	H 	0.90500 0.43310 0.30600 0.17800
H 	H 	0.81090 0.36770 0.40340 0.20000
H 	H 	0.95930 0.31780 0.38330 0.18400
H 	H 	0.75510 0.96710 0.82850 0.18900
H 	H 	0.81260 0.04010 0.88170 0.19300
H 	H 	0.71970 0.09700 0.79080 0.21600
H 	H 	0.19110 0.13170 0.01350 0.16600
H 	H 	0.22510 0.14950 0.89490 0.17200
H 	H 	0.28060 0.22820 0.94300 0.18100
C 	C 	0.47470 0.76450 0.55600 0.40900
C 	C 	0.48860 0.88830 0.52620 -0.21900
C 	C 	0.38830 0.96250 0.47350 0.16700
C 	C 	0.27050 0.91940 0.44710 -0.65600
C 	C 	0.60010 0.92380 0.55330 0.12600
C 	C 	0.70620 0.84020 0.61270 -0.57800
C 	C 	0.26890 0.57320 0.45160 0.40500
C 	C 	0.12830 0.53440 0.47800 -0.24200
C 	C 	0.08520 0.48020 0.41830 0.14400
C 	C 	0.17930 0.46160 0.33100 -0.62900
C 	C 	0.04600 0.55530 0.55990 0.12400
C 	C 	0.09740 0.61440 0.62240 -0.59900
C 	C 	0.50490 0.81710 0.19430 0.36500
C 	C 	0.50210 0.91320 0.09200 -0.20400
C 	C 	0.38670 0.98550 0.07340 0.15400
C 	C 	0.26390 0.96860 0.14990 -0.61800
C 	C 	0.61460 0.92570 0.02110 0.12000
C 	C 	0.74090 0.84690 0.04440 -0.55300
C 	C 	0.52530 0.23550 0.44400 0.40900
C 	C 	0.51140 0.11170 0.47380 -0.21900
C 	C 	0.61170 0.03750 0.52650 0.16700
C 	C 	0.72950 0.08060 0.55290 -0.65600
C 	C 	0.39990 0.07620 0.44670 0.12600
C 	C 	0.29380 0.15980 0.38730 -0.57800
C 	C 	0.73110 0.42680 0.54840 0.40500
C 	C 	0.87170 0.46560 0.52200 -0.24200
C 	C 	0.91480 0.51980 0.58170 0.14400
C 	C 	0.82070 0.53840 0.66900 -0.62900
C 	C 	0.95400 0.44470 0.44010 0.12400
C 	C 	0.90260 0.38560 0.37760 -0.59900
C 	C 	0.49510 0.18290 0.80570 0.36500
C 	C 	0.49790 0.08680 0.90800 -0.20400
C 	C 	0.61330 0.01450 0.92660 0.15400
C 	C 	0.73610 0.03140 0.85010 -0.61800
C 	C 	0.38540 0.07430 0.97890 0.12000
C 	C 	0.25910 0.15310 0.95560 -0.55300
O 	O 	0.52910 0.71530 0.49460 -0.47800
O 	O 	0.41190 0.71540 0.63930 -0.33100
O 	O 	0.29010 0.66410 0.38230 -0.43800
O 	O 	0.36690 0.51330 0.49680 -0.55900
O 	O 	0.50780 0.83640 0.27640 -0.41600
O 	O 	0.50480 0.71990 0.19610 -0.45000
O 	O 	0.47090 0.28470 0.50540 -0.47800
O 	O 	0.58810 0.28460 0.36070 -0.33100
O 	O 	0.70990 0.33590 0.61770 -0.43800
O 	O 	0.63310 0.48670 0.50320 -0.55900
O 	O 	0.49220 0.16360 0.72360 -0.41600
O 	O 	0.49520 0.28010 0.80390 -0.45000
