data_crystal

_cell_length_a 18.84500
_cell_length_b 29.99600
_cell_length_c 12.41000
_cell_angle_alpha 90.00000
_cell_angle_beta  90.00000
_cell_angle_gamma 90.00000

_symmetry_space_group_name_	'P 1'
_symmetry_space_group_name_H-M	'P 1'

loop_
_symmetry_equiv_pos_as_xyz
  x,y,z

loop_
_atom_site_label
_atom_site_type_symbol
_atom_site_fract_x
_atom_site_fract_y
_atom_site_fract_z
_atom_site_charge
Cd	Cd	0.09219 0.65333 0.56054 1.22200
Cd	Cd	0.17650 0.61020 0.81729 1.21600
Cd	Cd	0.36493 0.61401 0.82189 1.18300
O 	O 	0.20460 0.67765 0.48910 -0.36200
O 	O 	0.12790 0.64475 0.38220 -0.38500
O 	O 	0.17720 0.62781 0.99340 -0.42000
O 	O 	0.27800 0.65177 0.92330 -0.49000
O 	O 	0.62090 0.66794 0.26630 -0.54500
O 	O 	0.64770 0.71807 0.14280 -0.30100
O 	O 	0.26660 0.61000 0.69450 -0.53000
O 	O 	0.16850 0.58856 0.61220 -0.45200
O 	O 	0.47320 0.64765 0.47490 -0.41500
O 	O 	0.50720 0.59885 0.35440 -0.37200
O 	O 	0.34670 0.56130 0.94410 -0.44800
O 	O 	0.23840 0.54759 0.87890 -0.42900
N 	N 	0.42870 0.56541 0.71510 -0.24800
C 	C 	0.18680 0.66490 0.39700 0.29600
C 	C 	0.23390 0.67210 0.30190 -0.06800
C 	C 	0.29800 0.69582 0.31300 -0.02900
H 	H 	0.31050 0.70760 0.37970 0.06000
C 	C 	0.34280 0.70177 0.22500 0.00400
C 	C 	0.32330 0.68490 0.12460 -0.01600
H 	H 	0.35330 0.68860 0.06580 0.02500
C 	C 	0.25920 0.66256 0.11190 -0.09600
C 	C 	0.21520 0.65610 0.20060 0.02000
H 	H 	0.17260 0.64080 0.19210 0.04600
C 	C 	0.23730 0.64633 0.00230 0.36000
C 	C 	0.41130 0.72742 0.23750 -0.00600
C 	C 	0.47560 0.70513 0.22400 -0.04800
H 	H 	0.47550 0.67500 0.20600 0.03200
C 	C 	0.53970 0.72714 0.23710 -0.09300
C 	C 	0.60860 0.70348 0.21300 0.33800
C 	C 	0.23470 0.59500 0.61200 0.36400
C 	C 	0.27830 0.58442 0.51540 -0.11700
C 	C 	0.34450 0.60446 0.50530 0.04900
H 	H 	0.35970 0.62480 0.55690 0.00700
C 	C 	0.38790 0.59430 0.41860 -0.08800
C 	C 	0.46020 0.61550 0.41420 0.32000
C 	C 	0.36450 0.56414 0.34110 -0.01900
H 	H 	0.39490 0.55610 0.28530 0.04800
C 	C 	0.29630 0.54565 0.34480 -0.00200
C 	C 	0.25320 0.55580 0.43400 -0.00800
H 	H 	0.20800 0.54360 0.43920 0.04300
C 	C 	0.27040 0.51983 0.24920 0.00100
C 	C 	0.28830 0.53883 0.14870 -0.03600
H 	H 	0.31400 0.56530 0.14800 0.05000
C 	C 	0.26920 0.51990 0.05120 -0.05600
C 	C 	0.28610 0.54410 0.94890 0.35900
C 	C 	0.49130 0.57540 0.66920 0.06500
H 	H 	0.51560 0.60050 0.69340 -0.02000
C 	C 	0.52160 0.55030 0.58760 -0.12600
H 	H 	0.56560 0.55840 0.56000 0.06700
C 	C 	0.48640 0.51289 0.54650 0.06100
C 	C 	0.42300 0.50151 0.59720 -0.13400
H 	H 	0.39810 0.47630 0.57530 0.08800
C 	C 	0.39700 0.52780 0.68070 0.07300
H 	H 	0.35530 0.51890 0.71460 -0.01100
Cd	Cd	0.40781 0.34667 0.56054 1.22100
Cd	Cd	0.32350 0.38980 0.81729 1.21500
Cd	Cd	0.13507 0.38599 0.82189 1.18100
O 	O 	0.29540 0.32235 0.48910 -0.36300
O 	O 	0.37210 0.35525 0.38220 -0.38600
O 	O 	0.32280 0.37219 0.99340 -0.42100
O 	O 	0.22200 0.34823 0.92330 -0.49100
O 	O 	0.87910 0.33206 0.26630 -0.54600
O 	O 	0.85230 0.28193 0.14280 -0.30200
O 	O 	0.23340 0.39000 0.69450 -0.53100
O 	O 	0.33150 0.41144 0.61220 -0.45300
O 	O 	0.02680 0.35235 0.47490 -0.41600
O 	O 	0.99280 0.40115 0.35440 -0.37300
O 	O 	0.15330 0.43870 0.94410 -0.45000
O 	O 	0.26160 0.45241 0.87890 -0.43000
N 	N 	0.07130 0.43459 0.71510 -0.24800
C 	C 	0.31320 0.33510 0.39700 0.29400
C 	C 	0.26610 0.32790 0.30190 -0.06900
C 	C 	0.20200 0.30418 0.31300 -0.03100
H 	H 	0.18950 0.29240 0.37970 0.05900
C 	C 	0.15720 0.29823 0.22500 0.00300
C 	C 	0.17670 0.31510 0.12460 -0.01800
H 	H 	0.14670 0.31140 0.06580 0.02400
C 	C 	0.24080 0.33744 0.11190 -0.09700
C 	C 	0.28480 0.34390 0.20060 0.01900
H 	H 	0.32740 0.35920 0.19210 0.04500
C 	C 	0.26270 0.35367 0.00230 0.36000
C 	C 	0.08870 0.27258 0.23750 -0.00600
C 	C 	0.02440 0.29487 0.22400 -0.04600
H 	H 	0.02450 0.32500 0.20600 0.03200
C 	C 	0.96030 0.27286 0.23710 -0.09400
C 	C 	0.89140 0.29652 0.21300 0.33800
C 	C 	0.26530 0.40500 0.61200 0.36400
C 	C 	0.22170 0.41558 0.51540 -0.11800
C 	C 	0.15550 0.39554 0.50530 0.04900
H 	H 	0.14030 0.37520 0.55690 0.00700
C 	C 	0.11210 0.40570 0.41860 -0.08800
C 	C 	0.03980 0.38450 0.41420 0.32100
C 	C 	0.13550 0.43586 0.34110 -0.01900
H 	H 	0.10510 0.44390 0.28530 0.04800
C 	C 	0.20370 0.45435 0.34480 -0.00200
C 	C 	0.24680 0.44420 0.43400 -0.00800
H 	H 	0.29200 0.45640 0.43920 0.04300
C 	C 	0.22960 0.48017 0.24920 0.00100
C 	C 	0.21170 0.46117 0.14870 -0.03600
H 	H 	0.18600 0.43470 0.14800 0.05100
C 	C 	0.23080 0.48010 0.05120 -0.05600
C 	C 	0.21390 0.45590 0.94890 0.35800
C 	C 	0.00870 0.42460 0.66920 0.06200
H 	H 	0.98440 0.39950 0.69340 -0.01900
C 	C 	0.97840 0.44970 0.58760 -0.12400
H 	H 	0.93440 0.44160 0.56000 0.06700
C 	C 	0.01360 0.48711 0.54650 0.06000
C 	C 	0.07700 0.49849 0.59720 -0.13400
H 	H 	0.10190 0.52370 0.57530 0.08800
C 	C 	0.10300 0.47220 0.68070 0.07200
H 	H 	0.14470 0.48110 0.71460 -0.01000
Cd	Cd	0.40781 0.15333 0.93946 1.22100
Cd	Cd	0.32350 0.11020 0.68271 1.21500
Cd	Cd	0.13507 0.11401 0.67811 1.18100
O 	O 	0.29540 0.17765 0.01090 -0.36300
O 	O 	0.37210 0.14475 0.11780 -0.38600
O 	O 	0.32280 0.12781 0.50660 -0.42000
O 	O 	0.22200 0.15177 0.57670 -0.49000
O 	O 	0.87910 0.16794 0.23370 -0.54600
O 	O 	0.85230 0.21807 0.35720 -0.30200
O 	O 	0.23340 0.11000 0.80550 -0.53100
O 	O 	0.33150 0.08856 0.88780 -0.45300
O 	O 	0.02680 0.14765 0.02510 -0.41500
O 	O 	0.99280 0.09885 0.14560 -0.37400
O 	O 	0.15330 0.06130 0.55590 -0.44900
O 	O 	0.26160 0.04759 0.62110 -0.43000
N 	N 	0.07130 0.06541 0.78490 -0.24700
C 	C 	0.31320 0.16490 0.10300 0.29400
C 	C 	0.26610 0.17210 0.19810 -0.06800
C 	C 	0.20200 0.19582 0.18700 -0.03100
H 	H 	0.18950 0.20760 0.12030 0.05900
C 	C 	0.15720 0.20177 0.27500 0.00300
C 	C 	0.17670 0.18490 0.37540 -0.01800
H 	H 	0.14670 0.18860 0.43420 0.02400
C 	C 	0.24080 0.16256 0.38810 -0.09700
C 	C 	0.28480 0.15610 0.29940 0.01800
H 	H 	0.32740 0.14080 0.30790 0.04500
C 	C 	0.26270 0.14633 0.49770 0.35800
C 	C 	0.08870 0.22742 0.26250 -0.00600
C 	C 	0.02440 0.20513 0.27600 -0.04700
H 	H 	0.02450 0.17500 0.29400 0.03200
C 	C 	0.96030 0.22714 0.26290 -0.09300
C 	C 	0.89140 0.20348 0.28700 0.33800
C 	C 	0.26530 0.09500 0.88800 0.36400
C 	C 	0.22170 0.08442 0.98460 -0.11800
C 	C 	0.15550 0.10446 0.99470 0.04700
H 	H 	0.14030 0.12480 0.94310 0.00800
C 	C 	0.11210 0.09430 0.08140 -0.08700
C 	C 	0.03980 0.11550 0.08580 0.32200
C 	C 	0.13550 0.06414 0.15890 -0.01900
H 	H 	0.10510 0.05610 0.21470 0.04800
C 	C 	0.20370 0.04565 0.15520 -0.00200
C 	C 	0.24680 0.05580 0.06600 -0.00700
H 	H 	0.29200 0.04360 0.06080 0.04200
C 	C 	0.22960 0.01983 0.25080 0.00000
C 	C 	0.21170 0.03883 0.35130 -0.03600
H 	H 	0.18600 0.06530 0.35200 0.05000
C 	C 	0.23080 0.01990 0.44880 -0.05700
C 	C 	0.21390 0.04410 0.55110 0.35900
C 	C 	0.00870 0.07540 0.83080 0.05800
H 	H 	0.98440 0.10050 0.80660 -0.01700
C 	C 	0.97840 0.05030 0.91240 -0.12000
H 	H 	0.93440 0.05840 0.94000 0.06500
C 	C 	0.01360 0.01289 0.95350 0.05800
C 	C 	0.07700 0.00151 0.90280 -0.13300
H 	H 	0.10190 0.97630 0.92470 0.08700
C 	C 	0.10300 0.02780 0.81930 0.07100
H 	H 	0.14470 0.01890 0.78540 -0.01000
Cd	Cd	0.09219 0.84667 0.93946 1.22100
Cd	Cd	0.17650 0.88980 0.68271 1.21500
Cd	Cd	0.36493 0.88599 0.67811 1.18200
O 	O 	0.20460 0.82235 0.01090 -0.36300
O 	O 	0.12790 0.85525 0.11780 -0.38600
O 	O 	0.17720 0.87219 0.50660 -0.42000
O 	O 	0.27800 0.84823 0.57670 -0.49000
O 	O 	0.62090 0.83206 0.23370 -0.54600
O 	O 	0.64770 0.78193 0.35720 -0.30200
O 	O 	0.26660 0.89000 0.80550 -0.53100
O 	O 	0.16850 0.91144 0.88780 -0.45300
O 	O 	0.47320 0.85235 0.02510 -0.41600
O 	O 	0.50720 0.90115 0.14560 -0.37300
O 	O 	0.34670 0.93870 0.55590 -0.44900
O 	O 	0.23840 0.95241 0.62110 -0.43000
N 	N 	0.42870 0.93459 0.78490 -0.24900
C 	C 	0.18680 0.83510 0.10300 0.29400
C 	C 	0.23390 0.82790 0.19810 -0.06800
C 	C 	0.29800 0.80418 0.18700 -0.03100
H 	H 	0.31050 0.79240 0.12030 0.05900
C 	C 	0.34280 0.79823 0.27500 0.00300
C 	C 	0.32330 0.81510 0.37540 -0.01800
H 	H 	0.35330 0.81140 0.43420 0.02400
C 	C 	0.25920 0.83744 0.38810 -0.09700
C 	C 	0.21520 0.84390 0.29940 0.01800
H 	H 	0.17260 0.85920 0.30790 0.04500
C 	C 	0.23730 0.85367 0.49770 0.35800
C 	C 	0.41130 0.77258 0.26250 -0.00600
C 	C 	0.47560 0.79487 0.27600 -0.04800
H 	H 	0.47550 0.82500 0.29400 0.03200
C 	C 	0.53970 0.77286 0.26290 -0.09300
C 	C 	0.60860 0.79652 0.28700 0.33800
C 	C 	0.23470 0.90500 0.88800 0.36500
C 	C 	0.27830 0.91558 0.98460 -0.11900
C 	C 	0.34450 0.89554 0.99470 0.04900
H 	H 	0.35970 0.87520 0.94310 0.00700
C 	C 	0.38790 0.90570 0.08140 -0.08800
C 	C 	0.46020 0.88450 0.08580 0.32000
C 	C 	0.36450 0.93586 0.15890 -0.01900
H 	H 	0.39490 0.94390 0.21470 0.04800
C 	C 	0.29630 0.95435 0.15520 -0.00300
C 	C 	0.25320 0.94420 0.06600 -0.00700
H 	H 	0.20800 0.95640 0.06080 0.04300
C 	C 	0.27040 0.98017 0.25080 0.00100
C 	C 	0.28830 0.96117 0.35130 -0.03600
H 	H 	0.31400 0.93470 0.35200 0.05000
C 	C 	0.26920 0.98010 0.44880 -0.05700
C 	C 	0.28610 0.95590 0.55110 0.35900
C 	C 	0.49130 0.92460 0.83080 0.06500
H 	H 	0.51560 0.89950 0.80660 -0.02000
C 	C 	0.52160 0.94970 0.91240 -0.12700
H 	H 	0.56560 0.94160 0.94000 0.06700
C 	C 	0.48640 0.98711 0.95350 0.06100
C 	C 	0.42300 0.99849 0.90280 -0.13500
H 	H 	0.39810 0.02370 0.92470 0.08800
C 	C 	0.39700 0.97220 0.81930 0.07300
H 	H 	0.35530 0.98110 0.78540 -0.01100
Cd	Cd	0.90781 0.34667 0.43946 1.22100
Cd	Cd	0.82350 0.38980 0.18271 1.21500
Cd	Cd	0.63507 0.38599 0.17811 1.18200
O 	O 	0.79540 0.32235 0.51090 -0.36300
O 	O 	0.87210 0.35525 0.61780 -0.38600
O 	O 	0.82280 0.37219 0.00660 -0.42100
O 	O 	0.72200 0.34823 0.07670 -0.49100
O 	O 	0.37910 0.33206 0.73370 -0.54600
O 	O 	0.35230 0.28193 0.85720 -0.30200
O 	O 	0.73340 0.39000 0.30550 -0.53100
O 	O 	0.83150 0.41144 0.38780 -0.45300
O 	O 	0.52680 0.35235 0.52510 -0.41600
O 	O 	0.49280 0.40115 0.64560 -0.37300
O 	O 	0.65330 0.43870 0.05590 -0.44900
O 	O 	0.76160 0.45241 0.12110 -0.43000
N 	N 	0.57130 0.43459 0.28490 -0.24900
C 	C 	0.81320 0.33510 0.60300 0.29500
C 	C 	0.76610 0.32790 0.69810 -0.06900
C 	C 	0.70200 0.30418 0.68700 -0.03000
H 	H 	0.68950 0.29240 0.62030 0.05900
C 	C 	0.65720 0.29823 0.77500 0.00300
C 	C 	0.67670 0.31510 0.87540 -0.01700
H 	H 	0.64670 0.31140 0.93420 0.02400
C 	C 	0.74080 0.33744 0.88810 -0.09700
C 	C 	0.78480 0.34390 0.79940 0.01900
H 	H 	0.82740 0.35920 0.80790 0.04500
C 	C 	0.76270 0.35367 0.99770 0.36000
C 	C 	0.58870 0.27258 0.76250 -0.00600
C 	C 	0.52440 0.29487 0.77600 -0.04800
H 	H 	0.52450 0.32500 0.79400 0.03200
C 	C 	0.46030 0.27286 0.76290 -0.09300
C 	C 	0.39140 0.29652 0.78700 0.33800
C 	C 	0.76530 0.40500 0.38800 0.36400
C 	C 	0.72170 0.41558 0.48460 -0.11700
C 	C 	0.65550 0.39554 0.49470 0.04900
H 	H 	0.64030 0.37520 0.44310 0.00700
C 	C 	0.61210 0.40570 0.58140 -0.08800
C 	C 	0.53980 0.38450 0.58580 0.32000
C 	C 	0.63550 0.43586 0.65890 -0.01900
H 	H 	0.60510 0.44390 0.71470 0.04800
C 	C 	0.70370 0.45435 0.65520 -0.00200
C 	C 	0.74680 0.44420 0.56600 -0.00800
H 	H 	0.79200 0.45640 0.56080 0.04300
C 	C 	0.72960 0.48017 0.75080 0.00100
C 	C 	0.71170 0.46117 0.85130 -0.03600
H 	H 	0.68600 0.43470 0.85200 0.05000
C 	C 	0.73080 0.48010 0.94880 -0.05600
C 	C 	0.71390 0.45590 0.05110 0.35900
C 	C 	0.50870 0.42460 0.33080 0.06500
H 	H 	0.48440 0.39950 0.30660 -0.02000
C 	C 	0.47840 0.44970 0.41240 -0.12600
H 	H 	0.43440 0.44160 0.44000 0.06700
C 	C 	0.51360 0.48711 0.45350 0.06100
C 	C 	0.57700 0.49849 0.40280 -0.13400
H 	H 	0.60190 0.52370 0.42470 0.08800
C 	C 	0.60300 0.47220 0.31930 0.07300
H 	H 	0.64470 0.48110 0.28540 -0.01100
Cd	Cd	0.59219 0.65333 0.43946 1.22100
Cd	Cd	0.67650 0.61020 0.18271 1.21500
Cd	Cd	0.86493 0.61401 0.17811 1.18100
O 	O 	0.70460 0.67765 0.51090 -0.36300
O 	O 	0.62790 0.64475 0.61780 -0.38600
O 	O 	0.67720 0.62781 0.00660 -0.42100
O 	O 	0.77800 0.65177 0.07670 -0.49100
O 	O 	0.12090 0.66794 0.73370 -0.54600
O 	O 	0.14770 0.71807 0.85720 -0.30200
O 	O 	0.76660 0.61000 0.30550 -0.53100
O 	O 	0.66850 0.58856 0.38780 -0.45300
O 	O 	0.97320 0.64765 0.52510 -0.41600
O 	O 	0.00720 0.59885 0.64560 -0.37300
O 	O 	0.84670 0.56130 0.05590 -0.45000
O 	O 	0.73840 0.54759 0.12110 -0.43000
N 	N 	0.92870 0.56541 0.28490 -0.24800
C 	C 	0.68680 0.66490 0.60300 0.29400
C 	C 	0.73390 0.67210 0.69810 -0.06900
C 	C 	0.79800 0.69582 0.68700 -0.03100
H 	H 	0.81050 0.70760 0.62030 0.05900
C 	C 	0.84280 0.70177 0.77500 0.00300
C 	C 	0.82330 0.68490 0.87540 -0.01800
H 	H 	0.85330 0.68860 0.93420 0.02400
C 	C 	0.75920 0.66256 0.88810 -0.09700
C 	C 	0.71520 0.65610 0.79940 0.01900
H 	H 	0.67260 0.64080 0.80790 0.04500
C 	C 	0.73730 0.64633 0.99770 0.36000
C 	C 	0.91130 0.72742 0.76250 -0.00600
C 	C 	0.97560 0.70513 0.77600 -0.04600
H 	H 	0.97550 0.67500 0.79400 0.03200
C 	C 	0.03970 0.72714 0.76290 -0.09400
C 	C 	0.10860 0.70348 0.78700 0.33800
C 	C 	0.73470 0.59500 0.38800 0.36400
C 	C 	0.77830 0.58442 0.48460 -0.11800
C 	C 	0.84450 0.60446 0.49470 0.04900
H 	H 	0.85970 0.62480 0.44310 0.00700
C 	C 	0.88790 0.59430 0.58140 -0.08800
C 	C 	0.96020 0.61550 0.58580 0.32100
C 	C 	0.86450 0.56414 0.65890 -0.01900
H 	H 	0.89490 0.55610 0.71470 0.04800
C 	C 	0.79630 0.54565 0.65520 -0.00200
C 	C 	0.75320 0.55580 0.56600 -0.00800
H 	H 	0.70800 0.54360 0.56080 0.04300
C 	C 	0.77040 0.51983 0.75080 0.00100
C 	C 	0.78830 0.53883 0.85130 -0.03600
H 	H 	0.81400 0.56530 0.85200 0.05100
C 	C 	0.76920 0.51990 0.94880 -0.05600
C 	C 	0.78610 0.54410 0.05110 0.35800
C 	C 	0.99130 0.57540 0.33080 0.06200
H 	H 	0.01560 0.60050 0.30660 -0.01900
C 	C 	0.02160 0.55030 0.41240 -0.12400
H 	H 	0.06560 0.55840 0.44000 0.06700
C 	C 	0.98640 0.51289 0.45350 0.06000
C 	C 	0.92300 0.50151 0.40280 -0.13400
H 	H 	0.89810 0.47630 0.42470 0.08800
C 	C 	0.89700 0.52780 0.31930 0.07200
H 	H 	0.85530 0.51890 0.28540 -0.01000
Cd	Cd	0.59219 0.84667 0.06054 1.22100
Cd	Cd	0.67650 0.88980 0.31729 1.21500
Cd	Cd	0.86493 0.88599 0.32189 1.18100
O 	O 	0.70460 0.82235 0.98910 -0.36300
O 	O 	0.62790 0.85525 0.88220 -0.38600
O 	O 	0.67720 0.87219 0.49340 -0.42000
O 	O 	0.77800 0.84823 0.42330 -0.49000
O 	O 	0.12090 0.83206 0.76630 -0.54600
O 	O 	0.14770 0.78193 0.64280 -0.30200
O 	O 	0.76660 0.89000 0.19450 -0.53100
O 	O 	0.66850 0.91144 0.11220 -0.45300
O 	O 	0.97320 0.85235 0.97490 -0.41500
O 	O 	0.00720 0.90115 0.85440 -0.37400
O 	O 	0.84670 0.93870 0.44410 -0.44900
O 	O 	0.73840 0.95241 0.37890 -0.43000
N 	N 	0.92870 0.93459 0.21510 -0.24700
C 	C 	0.68680 0.83510 0.89700 0.29400
C 	C 	0.73390 0.82790 0.80190 -0.06800
C 	C 	0.79800 0.80418 0.81300 -0.03100
H 	H 	0.81050 0.79240 0.87970 0.05900
C 	C 	0.84280 0.79823 0.72500 0.00300
C 	C 	0.82330 0.81510 0.62460 -0.01800
H 	H 	0.85330 0.81140 0.56580 0.02400
C 	C 	0.75920 0.83744 0.61190 -0.09700
C 	C 	0.71520 0.84390 0.70060 0.01800
H 	H 	0.67260 0.85920 0.69210 0.04500
C 	C 	0.73730 0.85367 0.50230 0.35800
C 	C 	0.91130 0.77258 0.73750 -0.00600
C 	C 	0.97560 0.79487 0.72400 -0.04700
H 	H 	0.97550 0.82500 0.70600 0.03200
C 	C 	0.03970 0.77286 0.73710 -0.09300
C 	C 	0.10860 0.79652 0.71300 0.33800
C 	C 	0.73470 0.90500 0.11200 0.36400
C 	C 	0.77830 0.91558 0.01540 -0.11800
C 	C 	0.84450 0.89554 0.00530 0.04700
H 	H 	0.85970 0.87520 0.05690 0.00800
C 	C 	0.88790 0.90570 0.91860 -0.08700
C 	C 	0.96020 0.88450 0.91420 0.32200
C 	C 	0.86450 0.93586 0.84110 -0.01900
H 	H 	0.89490 0.94390 0.78530 0.04800
C 	C 	0.79630 0.95435 0.84480 -0.00200
C 	C 	0.75320 0.94420 0.93400 -0.00700
H 	H 	0.70800 0.95640 0.93920 0.04200
C 	C 	0.77040 0.98017 0.74920 0.00000
C 	C 	0.78830 0.96117 0.64870 -0.03600
H 	H 	0.81400 0.93470 0.64800 0.05000
C 	C 	0.76920 0.98010 0.55120 -0.05700
C 	C 	0.78610 0.95590 0.44890 0.35900
C 	C 	0.99130 0.92460 0.16920 0.05800
H 	H 	0.01560 0.89950 0.19340 -0.01700
C 	C 	0.02160 0.94970 0.08760 -0.12000
H 	H 	0.06560 0.94160 0.06000 0.06500
C 	C 	0.98640 0.98711 0.04650 0.05800
C 	C 	0.92300 0.99849 0.09720 -0.13300
H 	H 	0.89810 0.02370 0.07530 0.08700
C 	C 	0.89700 0.97220 0.18070 0.07100
H 	H 	0.85530 0.98110 0.21460 -0.01000
Cd	Cd	0.90781 0.15333 0.06054 1.22100
Cd	Cd	0.82350 0.11020 0.31729 1.21500
Cd	Cd	0.63507 0.11401 0.32189 1.18200
O 	O 	0.79540 0.17765 0.98910 -0.36300
O 	O 	0.87210 0.14475 0.88220 -0.38600
O 	O 	0.82280 0.12781 0.49340 -0.42000
O 	O 	0.72200 0.15177 0.42330 -0.49000
O 	O 	0.37910 0.16794 0.76630 -0.54600
O 	O 	0.35230 0.21807 0.64280 -0.30200
O 	O 	0.73340 0.11000 0.19450 -0.53100
O 	O 	0.83150 0.08856 0.11220 -0.45300
O 	O 	0.52680 0.14765 0.97490 -0.41600
O 	O 	0.49280 0.09885 0.85440 -0.37300
O 	O 	0.65330 0.06130 0.44410 -0.44900
O 	O 	0.76160 0.04759 0.37890 -0.43000
N 	N 	0.57130 0.06541 0.21510 -0.24900
C 	C 	0.81320 0.16490 0.89700 0.29400
C 	C 	0.76610 0.17210 0.80190 -0.06800
C 	C 	0.70200 0.19582 0.81300 -0.03100
H 	H 	0.68950 0.20760 0.87970 0.05900
C 	C 	0.65720 0.20177 0.72500 0.00300
C 	C 	0.67670 0.18490 0.62460 -0.01800
H 	H 	0.64670 0.18860 0.56580 0.02400
C 	C 	0.74080 0.16256 0.61190 -0.09700
C 	C 	0.78480 0.15610 0.70060 0.01800
H 	H 	0.82740 0.14080 0.69210 0.04500
C 	C 	0.76270 0.14633 0.50230 0.35800
C 	C 	0.58870 0.22742 0.73750 -0.00600
C 	C 	0.52440 0.20513 0.72400 -0.04800
H 	H 	0.52450 0.17500 0.70600 0.03200
C 	C 	0.46030 0.22714 0.73710 -0.09300
C 	C 	0.39140 0.20348 0.71300 0.33800
C 	C 	0.76530 0.09500 0.11200 0.36500
C 	C 	0.72170 0.08442 0.01540 -0.11900
C 	C 	0.65550 0.10446 0.00530 0.04900
H 	H 	0.64030 0.12480 0.05690 0.00700
C 	C 	0.61210 0.09430 0.91860 -0.08800
C 	C 	0.53980 0.11550 0.91420 0.32000
C 	C 	0.63550 0.06414 0.84110 -0.01900
H 	H 	0.60510 0.05610 0.78530 0.04800
C 	C 	0.70370 0.04565 0.84480 -0.00300
C 	C 	0.74680 0.05580 0.93400 -0.00700
H 	H 	0.79200 0.04360 0.93920 0.04300
C 	C 	0.72960 0.01983 0.74920 0.00100
C 	C 	0.71170 0.03883 0.64870 -0.03600
H 	H 	0.68600 0.06530 0.64800 0.05000
C 	C 	0.73080 0.01990 0.55120 -0.05700
C 	C 	0.71390 0.04410 0.44890 0.35900
C 	C 	0.50870 0.07540 0.16920 0.06500
H 	H 	0.48440 0.10050 0.19340 -0.02000
C 	C 	0.47840 0.05030 0.08760 -0.12700
H 	H 	0.43440 0.05840 0.06000 0.06700
C 	C 	0.51360 0.01289 0.04650 0.06100
C 	C 	0.57700 0.00151 0.09720 -0.13500
H 	H 	0.60190 0.97630 0.07530 0.08800
C 	C 	0.60300 0.02780 0.18070 0.07300
H 	H 	0.64470 0.01890 0.21460 -0.01100
