data_crystal

_cell_length_a 36.60890
_cell_length_b 36.60890
_cell_length_c 15.39880
_cell_angle_alpha 90.00000
_cell_angle_beta  90.00000
_cell_angle_gamma 90.00000

_symmetry_space_group_name_	'P 1'
_symmetry_space_group_name_H-M	'P 1'

loop_
_symmetry_equiv_pos_as_xyz
  x,y,z

loop_
_atom_site_label
_atom_site_type_symbol
_atom_site_fract_x
_atom_site_fract_y
_atom_site_fract_z
_atom_site_charge
Mn	Mn	0.35204 0.14686 0.24885 1.31200
N 	N 	0.26164 0.19985 0.15960 -0.20500
N 	N 	0.45640 0.13590 0.33950 -0.20800
N 	N 	0.31636 0.04420 0.34250 -0.21100
O 	O 	0.31188 0.16210 0.16240 -0.34500
O 	O 	0.33235 0.19500 0.31200 -0.37300
O 	O 	0.28404 0.23140 0.30550 -0.41400
O 	O 	0.39453 0.13940 0.33550 -0.36300
O 	O 	0.39976 0.17190 0.17990 -0.33600
O 	O 	0.46203 0.17140 0.19140 -0.33100
O 	O 	0.36296 0.09710 0.18550 -0.36900
O 	O 	0.31789 0.10720 0.32440 -0.32000
O 	O 	0.35810 0.03470 0.20170 -0.36100
C 	C 	0.29130 0.18770 0.19290 0.06000
C 	C 	0.30240 0.20520 0.27770 0.24700
C 	C 	0.24930 0.18480 0.07700 -0.14500
C 	C 	0.22570 0.15520 0.07840 0.25200
C 	C 	0.21270 0.13850 0.16350 -0.56700
H 	H 	0.23220 0.14030 0.20700 0.18300
H 	H 	0.20650 0.11270 0.15420 0.17300
H 	H 	0.19110 0.15170 0.18410 0.16100
C 	C 	0.42580 0.14520 0.30430 0.09400
C 	C 	0.42890 0.16260 0.21550 0.21200
C 	C 	0.45490 0.11470 0.42160 -0.18900
C 	C 	0.45240 0.07760 0.42120 0.29600
C 	C 	0.44990 0.05760 0.33420 -0.61100
H 	H 	0.42660 0.06330 0.30610 0.20000
H 	H 	0.45150 0.03120 0.34410 0.17300
H 	H 	0.47010 0.06530 0.29670 0.18100
C 	C 	0.35280 0.06750 0.22280 0.22600
C 	C 	0.32570 0.07420 0.30390 0.07800
C 	C 	0.29600 0.04630 0.42210 -0.15200
C 	C 	0.25810 0.04770 0.42050 0.23500
C 	C 	0.23720 0.04970 0.33360 -0.53700
H 	H 	0.24260 0.07290 0.30470 0.17800
H 	H 	0.21090 0.04800 0.34470 0.16000
H 	H 	0.24480 0.02940 0.29620 0.14900
H 	H 	0.30130 0.23130 0.94010 0.12200
H 	H 	0.31490 0.21640 0.03230 0.15900
H 	H 	0.28540 0.24860 0.02760 0.13300
H 	H 	0.45370 0.18550 0.56000 0.17600
H 	H 	0.43220 0.18530 0.46950 0.19100
H 	H 	0.47590 0.18570 0.47050 0.15500
H 	H 	0.36640 0.04750 0.56000 0.17000
H 	H 	0.36540 0.07040 0.47140 0.18500
H 	H 	0.36740 0.02670 0.46860 0.14400
Mn	Mn	0.64796 0.85314 0.24885 1.31300
N 	N 	0.73836 0.80015 0.15960 -0.20400
N 	N 	0.54360 0.86410 0.33950 -0.20700
N 	N 	0.68364 0.95580 0.34250 -0.20600
O 	O 	0.68812 0.83790 0.16240 -0.34400
O 	O 	0.66765 0.80500 0.31200 -0.37200
O 	O 	0.71596 0.76860 0.30550 -0.41400
O 	O 	0.60547 0.86060 0.33550 -0.36200
O 	O 	0.60024 0.82810 0.17990 -0.33500
O 	O 	0.53797 0.82860 0.19140 -0.33000
O 	O 	0.63704 0.90290 0.18550 -0.36700
O 	O 	0.68211 0.89280 0.32440 -0.32000
O 	O 	0.64190 0.96530 0.20170 -0.35100
C 	C 	0.70870 0.81230 0.19290 0.06000
C 	C 	0.69760 0.79480 0.27770 0.24800
C 	C 	0.75070 0.81520 0.07700 -0.14600
C 	C 	0.77430 0.84480 0.07840 0.25700
C 	C 	0.78730 0.86150 0.16350 -0.57200
H 	H 	0.76780 0.85970 0.20700 0.18600
H 	H 	0.79350 0.88730 0.15420 0.17700
H 	H 	0.80890 0.84830 0.18410 0.16400
C 	C 	0.57420 0.85480 0.30430 0.09500
C 	C 	0.57110 0.83740 0.21550 0.21200
C 	C 	0.54510 0.88530 0.42160 -0.19400
C 	C 	0.54760 0.92240 0.42120 0.30600
C 	C 	0.55010 0.94240 0.33420 -0.62600
H 	H 	0.57340 0.93670 0.30610 0.20600
H 	H 	0.54850 0.96880 0.34410 0.18400
H 	H 	0.52990 0.93470 0.29670 0.18700
C 	C 	0.64720 0.93250 0.22280 0.22600
C 	C 	0.67430 0.92580 0.30390 0.07800
C 	C 	0.70400 0.95370 0.42210 -0.15800
C 	C 	0.74190 0.95230 0.42050 0.24900
C 	C 	0.76280 0.95030 0.33360 -0.55400
H 	H 	0.75740 0.92710 0.30470 0.18400
H 	H 	0.78910 0.95200 0.34470 0.17000
H 	H 	0.75520 0.97060 0.29620 0.16100
H 	H 	0.69870 0.76870 0.94010 0.12200
H 	H 	0.68510 0.78360 0.03230 0.15900
H 	H 	0.71460 0.75140 0.02760 0.13400
H 	H 	0.54630 0.81450 0.56000 0.17700
H 	H 	0.56780 0.81470 0.46950 0.19200
H 	H 	0.52410 0.81430 0.47050 0.15600
H 	H 	0.63360 0.95250 0.56000 0.17700
H 	H 	0.63460 0.92960 0.47140 0.19100
H 	H 	0.63260 0.97330 0.46860 0.15600
Mn	Mn	0.85314 0.35204 0.24885 1.31300
N 	N 	0.80015 0.26164 0.15960 -0.20400
N 	N 	0.86410 0.45640 0.33950 -0.20700
N 	N 	0.95580 0.31636 0.34250 -0.20600
O 	O 	0.83790 0.31188 0.16240 -0.34400
O 	O 	0.80500 0.33235 0.31200 -0.37200
O 	O 	0.76860 0.28404 0.30550 -0.41400
O 	O 	0.86060 0.39453 0.33550 -0.36200
O 	O 	0.82810 0.39976 0.17990 -0.33500
O 	O 	0.82860 0.46203 0.19140 -0.33000
O 	O 	0.90290 0.36296 0.18550 -0.36700
O 	O 	0.89280 0.31789 0.32440 -0.32000
O 	O 	0.96530 0.35810 0.20170 -0.35100
C 	C 	0.81230 0.29130 0.19290 0.06100
C 	C 	0.79480 0.30240 0.27770 0.24800
C 	C 	0.81520 0.24930 0.07700 -0.14500
C 	C 	0.84480 0.22570 0.07840 0.25600
C 	C 	0.86150 0.21270 0.16350 -0.57000
H 	H 	0.85970 0.23220 0.20700 0.18500
H 	H 	0.88730 0.20650 0.15420 0.17600
H 	H 	0.84830 0.19110 0.18410 0.16300
C 	C 	0.85480 0.42580 0.30430 0.09500
C 	C 	0.83740 0.42890 0.21550 0.21200
C 	C 	0.88530 0.45490 0.42160 -0.19400
C 	C 	0.92240 0.45240 0.42120 0.30600
C 	C 	0.94240 0.44990 0.33420 -0.62600
H 	H 	0.93670 0.42660 0.30610 0.20600
H 	H 	0.96880 0.45150 0.34410 0.18400
H 	H 	0.93470 0.47010 0.29670 0.18700
C 	C 	0.93250 0.35280 0.22280 0.22600
C 	C 	0.92580 0.32570 0.30390 0.07800
C 	C 	0.95370 0.29600 0.42210 -0.15800
C 	C 	0.95230 0.25810 0.42050 0.24800
C 	C 	0.95030 0.23720 0.33360 -0.55300
H 	H 	0.92710 0.24260 0.30470 0.18300
H 	H 	0.95200 0.21090 0.34470 0.16900
H 	H 	0.97060 0.24480 0.29620 0.16000
H 	H 	0.76870 0.30130 0.94010 0.12200
H 	H 	0.78360 0.31490 0.03230 0.15900
H 	H 	0.75140 0.28540 0.02760 0.13400
H 	H 	0.81450 0.45370 0.56000 0.17700
H 	H 	0.81470 0.43220 0.46950 0.19200
H 	H 	0.81430 0.47590 0.47050 0.15600
H 	H 	0.95250 0.36640 0.56000 0.17700
H 	H 	0.92960 0.36540 0.47140 0.19100
H 	H 	0.97330 0.36740 0.46860 0.15500
Mn	Mn	0.14686 0.64796 0.24885 1.31300
N 	N 	0.19985 0.73836 0.15960 -0.20400
N 	N 	0.13590 0.54360 0.33950 -0.20700
N 	N 	0.04420 0.68364 0.34250 -0.21000
O 	O 	0.16210 0.68812 0.16240 -0.34400
O 	O 	0.19500 0.66765 0.31200 -0.37200
O 	O 	0.23140 0.71596 0.30550 -0.41400
O 	O 	0.13940 0.60547 0.33550 -0.36200
O 	O 	0.17190 0.60024 0.17990 -0.33500
O 	O 	0.17140 0.53797 0.19140 -0.33000
O 	O 	0.09710 0.63704 0.18550 -0.36800
O 	O 	0.10720 0.68211 0.32440 -0.31900
O 	O 	0.03470 0.64190 0.20170 -0.36000
C 	C 	0.18770 0.70870 0.19290 0.06100
C 	C 	0.20520 0.69760 0.27770 0.24800
C 	C 	0.18480 0.75070 0.07700 -0.14400
C 	C 	0.15520 0.77430 0.07840 0.25500
C 	C 	0.13850 0.78730 0.16350 -0.56800
H 	H 	0.14030 0.76780 0.20700 0.18400
H 	H 	0.11270 0.79350 0.15420 0.17500
H 	H 	0.15170 0.80890 0.18410 0.16300
C 	C 	0.14520 0.57420 0.30430 0.09500
C 	C 	0.16260 0.57110 0.21550 0.21200
C 	C 	0.11470 0.54510 0.42160 -0.18900
C 	C 	0.07760 0.54760 0.42120 0.29600
C 	C 	0.05760 0.55010 0.33420 -0.61100
H 	H 	0.06330 0.57340 0.30610 0.20000
H 	H 	0.03120 0.54850 0.34410 0.17300
H 	H 	0.06530 0.52990 0.29670 0.18100
C 	C 	0.06750 0.64720 0.22280 0.22600
C 	C 	0.07420 0.67430 0.30390 0.07800
C 	C 	0.04630 0.70400 0.42210 -0.15200
C 	C 	0.04770 0.74190 0.42050 0.23600
C 	C 	0.04970 0.76280 0.33360 -0.53800
H 	H 	0.07290 0.75740 0.30470 0.17900
H 	H 	0.04800 0.78910 0.34470 0.16200
H 	H 	0.02940 0.75520 0.29620 0.15000
H 	H 	0.23130 0.69870 0.94010 0.12200
H 	H 	0.21640 0.68510 0.03230 0.15900
H 	H 	0.24860 0.71460 0.02760 0.13300
H 	H 	0.18550 0.54630 0.56000 0.17600
H 	H 	0.18530 0.56780 0.46950 0.19100
H 	H 	0.18570 0.52410 0.47050 0.15500
H 	H 	0.04750 0.63360 0.56000 0.17000
H 	H 	0.07040 0.63460 0.47140 0.18500
H 	H 	0.02670 0.63260 0.46860 0.14400
Mn	Mn	0.64796 0.14686 0.75115 1.31200
N 	N 	0.73836 0.19985 0.84040 -0.20300
N 	N 	0.54360 0.13590 0.66050 -0.20800
N 	N 	0.68364 0.04420 0.65750 -0.21100
O 	O 	0.68812 0.16210 0.83760 -0.35500
O 	O 	0.66765 0.19500 0.68800 -0.37400
O 	O 	0.71596 0.23140 0.69450 -0.41500
O 	O 	0.60547 0.13940 0.66450 -0.36200
O 	O 	0.60024 0.17190 0.82010 -0.34900
O 	O 	0.53797 0.17140 0.80860 -0.34400
O 	O 	0.63704 0.09710 0.81450 -0.38100
O 	O 	0.68211 0.10720 0.67560 -0.31900
O 	O 	0.64190 0.03470 0.79830 -0.37100
C 	C 	0.70870 0.18770 0.80710 0.06000
C 	C 	0.69760 0.20520 0.72230 0.24700
C 	C 	0.75070 0.18480 0.92300 -0.16800
C 	C 	0.77430 0.15520 0.92160 0.21600
C 	C 	0.78730 0.13850 0.83650 -0.53800
H 	H 	0.76780 0.14030 0.79300 0.17500
H 	H 	0.79350 0.11270 0.84580 0.15500
H 	H 	0.80890 0.15170 0.81590 0.15000
C 	C 	0.57420 0.14520 0.69570 0.09300
C 	C 	0.57110 0.16260 0.78450 0.21100
C 	C 	0.54510 0.11470 0.57840 -0.18800
C 	C 	0.54760 0.07760 0.57880 0.29400
C 	C 	0.55010 0.05760 0.66580 -0.60300
H 	H 	0.57340 0.06330 0.69390 0.19600
H 	H 	0.54850 0.03120 0.65590 0.16900
H 	H 	0.52990 0.06530 0.70330 0.17500
C 	C 	0.64720 0.06750 0.77720 0.22600
C 	C 	0.67430 0.07420 0.69610 0.07600
C 	C 	0.70400 0.04630 0.57790 -0.15100
C 	C 	0.74190 0.04770 0.57950 0.23300
C 	C 	0.76280 0.04970 0.66640 -0.52900
H 	H 	0.75740 0.07290 0.69530 0.17300
H 	H 	0.78910 0.04800 0.65530 0.15600
H 	H 	0.75520 0.02940 0.70380 0.14300
H 	H 	0.69870 0.23130 0.05990 0.10000
H 	H 	0.68510 0.21640 0.96770 0.09600
H 	H 	0.71460 0.24860 0.97240 0.06000
H 	H 	0.54630 0.18550 0.44000 0.17700
H 	H 	0.56780 0.18530 0.53050 0.19100
H 	H 	0.52410 0.18570 0.52950 0.15500
H 	H 	0.63360 0.04750 0.44000 0.17000
H 	H 	0.63460 0.07040 0.52860 0.18500
H 	H 	0.63260 0.02670 0.53140 0.14400
Mn	Mn	0.35204 0.85314 0.75115 1.31200
N 	N 	0.26164 0.80015 0.84040 -0.20300
N 	N 	0.45640 0.86410 0.66050 -0.20700
N 	N 	0.31636 0.95580 0.65750 -0.20700
O 	O 	0.31188 0.83790 0.83760 -0.35400
O 	O 	0.33235 0.80500 0.68800 -0.37400
O 	O 	0.28404 0.76860 0.69450 -0.41500
O 	O 	0.39453 0.86060 0.66450 -0.36200
O 	O 	0.39976 0.82810 0.82010 -0.34900
O 	O 	0.46203 0.82860 0.80860 -0.34400
O 	O 	0.36296 0.90290 0.81450 -0.38000
O 	O 	0.31789 0.89280 0.67560 -0.32000
O 	O 	0.35810 0.96530 0.79830 -0.36300
C 	C 	0.29130 0.81230 0.80710 0.05900
C 	C 	0.30240 0.79480 0.72230 0.24700
C 	C 	0.24930 0.81520 0.92300 -0.16900
C 	C 	0.22570 0.84480 0.92160 0.21800
C 	C 	0.21270 0.86150 0.83650 -0.54000
H 	H 	0.23220 0.85970 0.79300 0.17500
H 	H 	0.20650 0.88730 0.84580 0.15700
H 	H 	0.19110 0.84830 0.81590 0.15100
C 	C 	0.42580 0.85480 0.69570 0.09300
C 	C 	0.42890 0.83740 0.78450 0.21100
C 	C 	0.45490 0.88530 0.57840 -0.19300
C 	C 	0.45240 0.92240 0.57880 0.30400
C 	C 	0.44990 0.94240 0.66580 -0.61800
H 	H 	0.42660 0.93670 0.69390 0.20200
H 	H 	0.45150 0.96880 0.65590 0.18000
H 	H 	0.47010 0.93470 0.70330 0.18100
C 	C 	0.35280 0.93250 0.77720 0.22600
C 	C 	0.32570 0.92580 0.69610 0.07600
C 	C 	0.29600 0.95370 0.57790 -0.15700
C 	C 	0.25810 0.95230 0.57950 0.24500
C 	C 	0.23720 0.95030 0.66640 -0.54400
H 	H 	0.24260 0.92710 0.69530 0.17800
H 	H 	0.21090 0.95200 0.65530 0.16300
H 	H 	0.24480 0.97060 0.70380 0.15300
H 	H 	0.30130 0.76870 0.05990 0.10000
H 	H 	0.31490 0.78360 0.96770 0.09700
H 	H 	0.28540 0.75140 0.97240 0.06000
H 	H 	0.45370 0.81450 0.44000 0.17800
H 	H 	0.43220 0.81470 0.53050 0.19200
H 	H 	0.47590 0.81430 0.52950 0.15500
H 	H 	0.36640 0.95250 0.44000 0.17700
H 	H 	0.36540 0.92960 0.52860 0.19100
H 	H 	0.36740 0.97330 0.53140 0.15500
Mn	Mn	0.14686 0.35204 0.75115 1.31200
N 	N 	0.19985 0.26164 0.84040 -0.20300
N 	N 	0.13590 0.45640 0.66050 -0.20800
N 	N 	0.04420 0.31636 0.65750 -0.21100
O 	O 	0.16210 0.31188 0.83760 -0.35500
O 	O 	0.19500 0.33235 0.68800 -0.37400
O 	O 	0.23140 0.28404 0.69450 -0.41500
O 	O 	0.13940 0.39453 0.66450 -0.36200
O 	O 	0.17190 0.39976 0.82010 -0.34900
O 	O 	0.17140 0.46203 0.80860 -0.34400
O 	O 	0.09710 0.36296 0.81450 -0.38100
O 	O 	0.10720 0.31789 0.67560 -0.31900
O 	O 	0.03470 0.35810 0.79830 -0.37100
C 	C 	0.18770 0.29130 0.80710 0.06000
C 	C 	0.20520 0.30240 0.72230 0.24700
C 	C 	0.18480 0.24930 0.92300 -0.16800
C 	C 	0.15520 0.22570 0.92160 0.21500
C 	C 	0.13850 0.21270 0.83650 -0.53600
H 	H 	0.14030 0.23220 0.79300 0.17400
H 	H 	0.11270 0.20650 0.84580 0.15400
H 	H 	0.15170 0.19110 0.81590 0.15000
C 	C 	0.14520 0.42580 0.69570 0.09300
C 	C 	0.16260 0.42890 0.78450 0.21100
C 	C 	0.11470 0.45490 0.57840 -0.18800
C 	C 	0.07760 0.45240 0.57880 0.29400
C 	C 	0.05760 0.44990 0.66580 -0.60300
H 	H 	0.06330 0.42660 0.69390 0.19600
H 	H 	0.03120 0.45150 0.65590 0.16900
H 	H 	0.06530 0.47010 0.70330 0.17500
C 	C 	0.06750 0.35280 0.77720 0.22600
C 	C 	0.07420 0.32570 0.69610 0.07600
C 	C 	0.04630 0.29600 0.57790 -0.15100
C 	C 	0.04770 0.25810 0.57950 0.23200
C 	C 	0.04970 0.23720 0.66640 -0.52700
H 	H 	0.07290 0.24260 0.69530 0.17300
H 	H 	0.04800 0.21090 0.65530 0.15500
H 	H 	0.02940 0.24480 0.70380 0.14200
H 	H 	0.23130 0.30130 0.05990 0.10000
H 	H 	0.21640 0.31490 0.96770 0.09600
H 	H 	0.24860 0.28540 0.97240 0.06000
H 	H 	0.18550 0.45370 0.44000 0.17700
H 	H 	0.18530 0.43220 0.53050 0.19100
H 	H 	0.18570 0.47590 0.52950 0.15500
H 	H 	0.04750 0.36640 0.44000 0.17000
H 	H 	0.07040 0.36540 0.52860 0.18500
H 	H 	0.02670 0.36740 0.53140 0.14400
Mn	Mn	0.85314 0.64796 0.75115 1.31200
N 	N 	0.80015 0.73836 0.84040 -0.20300
N 	N 	0.86410 0.54360 0.66050 -0.20700
N 	N 	0.95580 0.68364 0.65750 -0.20600
O 	O 	0.83790 0.68812 0.83760 -0.35400
O 	O 	0.80500 0.66765 0.68800 -0.37400
O 	O 	0.76860 0.71596 0.69450 -0.41600
O 	O 	0.86060 0.60547 0.66450 -0.36200
O 	O 	0.82810 0.60024 0.82010 -0.34900
O 	O 	0.82860 0.53797 0.80860 -0.34400
O 	O 	0.90290 0.63704 0.81450 -0.38000
O 	O 	0.89280 0.68211 0.67560 -0.32000
O 	O 	0.96530 0.64190 0.79830 -0.36300
C 	C 	0.81230 0.70870 0.80710 0.05900
C 	C 	0.79480 0.69760 0.72230 0.24700
C 	C 	0.81520 0.75070 0.92300 -0.17000
C 	C 	0.84480 0.77430 0.92160 0.21900
C 	C 	0.86150 0.78730 0.83650 -0.54100
H 	H 	0.85970 0.76780 0.79300 0.17600
H 	H 	0.88730 0.79350 0.84580 0.15800
H 	H 	0.84830 0.80890 0.81590 0.15200
C 	C 	0.85480 0.57420 0.69570 0.09300
C 	C 	0.83740 0.57110 0.78450 0.21100
C 	C 	0.88530 0.54510 0.57840 -0.19300
C 	C 	0.92240 0.54760 0.57880 0.30300
C 	C 	0.94240 0.55010 0.66580 -0.61800
H 	H 	0.93670 0.57340 0.69390 0.20200
H 	H 	0.96880 0.54850 0.65590 0.17900
H 	H 	0.93470 0.52990 0.70330 0.18100
C 	C 	0.93250 0.64720 0.77720 0.22600
C 	C 	0.92580 0.67430 0.69610 0.07600
C 	C 	0.95370 0.70400 0.57790 -0.15800
C 	C 	0.95230 0.74190 0.57950 0.24600
C 	C 	0.95030 0.76280 0.66640 -0.54500
H 	H 	0.92710 0.75740 0.69530 0.17900
H 	H 	0.95200 0.78910 0.65530 0.16400
H 	H 	0.97060 0.75520 0.70380 0.15400
H 	H 	0.76870 0.69870 0.05990 0.10000
H 	H 	0.78360 0.68510 0.96770 0.09700
H 	H 	0.75140 0.71460 0.97240 0.06000
H 	H 	0.81450 0.54630 0.44000 0.17800
H 	H 	0.81470 0.56780 0.53050 0.19200
H 	H 	0.81430 0.52410 0.52950 0.15500
H 	H 	0.95250 0.63360 0.44000 0.17700
H 	H 	0.92960 0.63460 0.52860 0.19100
H 	H 	0.97330 0.63260 0.53140 0.15500
Mn	Mn	0.64796 0.85314 0.75115 1.31200
N 	N 	0.73836 0.80015 0.84040 -0.20300
N 	N 	0.54360 0.86410 0.66050 -0.20700
N 	N 	0.68364 0.95580 0.65750 -0.20600
O 	O 	0.68812 0.83790 0.83760 -0.35400
O 	O 	0.66765 0.80500 0.68800 -0.37400
O 	O 	0.71596 0.76860 0.69450 -0.41600
O 	O 	0.60547 0.86060 0.66450 -0.36200
O 	O 	0.60024 0.82810 0.82010 -0.34900
O 	O 	0.53797 0.82860 0.80860 -0.34400
O 	O 	0.63704 0.90290 0.81450 -0.38000
O 	O 	0.68211 0.89280 0.67560 -0.32000
O 	O 	0.64190 0.96530 0.79830 -0.36300
C 	C 	0.70870 0.81230 0.80710 0.05900
C 	C 	0.69760 0.79480 0.72230 0.24700
C 	C 	0.75070 0.81520 0.92300 -0.17000
C 	C 	0.77430 0.84480 0.92160 0.21900
C 	C 	0.78730 0.86150 0.83650 -0.54100
H 	H 	0.76780 0.85970 0.79300 0.17600
H 	H 	0.79350 0.88730 0.84580 0.15800
H 	H 	0.80890 0.84830 0.81590 0.15200
C 	C 	0.57420 0.85480 0.69570 0.09300
C 	C 	0.57110 0.83740 0.78450 0.21100
C 	C 	0.54510 0.88530 0.57840 -0.19300
C 	C 	0.54760 0.92240 0.57880 0.30300
C 	C 	0.55010 0.94240 0.66580 -0.61800
H 	H 	0.57340 0.93670 0.69390 0.20200
H 	H 	0.54850 0.96880 0.65590 0.17900
H 	H 	0.52990 0.93470 0.70330 0.18100
C 	C 	0.64720 0.93250 0.77720 0.22600
C 	C 	0.67430 0.92580 0.69610 0.07600
C 	C 	0.70400 0.95370 0.57790 -0.15800
C 	C 	0.74190 0.95230 0.57950 0.24600
C 	C 	0.76280 0.95030 0.66640 -0.54500
H 	H 	0.75740 0.92710 0.69530 0.17900
H 	H 	0.78910 0.95200 0.65530 0.16400
H 	H 	0.75520 0.97060 0.70380 0.15400
H 	H 	0.69870 0.76870 0.05990 0.10000
H 	H 	0.68510 0.78360 0.96770 0.09700
H 	H 	0.71460 0.75140 0.97240 0.06000
H 	H 	0.54630 0.81450 0.44000 0.17800
H 	H 	0.56780 0.81470 0.53050 0.19200
H 	H 	0.52410 0.81430 0.52950 0.15500
H 	H 	0.63360 0.95250 0.44000 0.17700
H 	H 	0.63460 0.92960 0.52860 0.19100
H 	H 	0.63260 0.97330 0.53140 0.15500
Mn	Mn	0.35204 0.14686 0.75115 1.31200
N 	N 	0.26164 0.19985 0.84040 -0.20300
N 	N 	0.45640 0.13590 0.66050 -0.20800
N 	N 	0.31636 0.04420 0.65750 -0.21100
O 	O 	0.31188 0.16210 0.83760 -0.35500
O 	O 	0.33235 0.19500 0.68800 -0.37400
O 	O 	0.28404 0.23140 0.69450 -0.41500
O 	O 	0.39453 0.13940 0.66450 -0.36200
O 	O 	0.39976 0.17190 0.82010 -0.34900
O 	O 	0.46203 0.17140 0.80860 -0.34400
O 	O 	0.36296 0.09710 0.81450 -0.38100
O 	O 	0.31789 0.10720 0.67560 -0.31900
O 	O 	0.35810 0.03470 0.79830 -0.37100
C 	C 	0.29130 0.18770 0.80710 0.06000
C 	C 	0.30240 0.20520 0.72230 0.24700
C 	C 	0.24930 0.18480 0.92300 -0.16800
C 	C 	0.22570 0.15520 0.92160 0.21500
C 	C 	0.21270 0.13850 0.83650 -0.53600
H 	H 	0.23220 0.14030 0.79300 0.17400
H 	H 	0.20650 0.11270 0.84580 0.15400
H 	H 	0.19110 0.15170 0.81590 0.15000
C 	C 	0.42580 0.14520 0.69570 0.09300
C 	C 	0.42890 0.16260 0.78450 0.21100
C 	C 	0.45490 0.11470 0.57840 -0.18800
C 	C 	0.45240 0.07760 0.57880 0.29400
C 	C 	0.44990 0.05760 0.66580 -0.60300
H 	H 	0.42660 0.06330 0.69390 0.19600
H 	H 	0.45150 0.03120 0.65590 0.16900
H 	H 	0.47010 0.06530 0.70330 0.17500
C 	C 	0.35280 0.06750 0.77720 0.22600
C 	C 	0.32570 0.07420 0.69610 0.07600
C 	C 	0.29600 0.04630 0.57790 -0.15100
C 	C 	0.25810 0.04770 0.57950 0.23200
C 	C 	0.23720 0.04970 0.66640 -0.52700
H 	H 	0.24260 0.07290 0.69530 0.17300
H 	H 	0.21090 0.04800 0.65530 0.15500
H 	H 	0.24480 0.02940 0.70380 0.14200
H 	H 	0.30130 0.23130 0.05990 0.10000
H 	H 	0.31490 0.21640 0.96770 0.09600
H 	H 	0.28540 0.24860 0.97240 0.06000
H 	H 	0.45370 0.18550 0.44000 0.17700
H 	H 	0.43220 0.18530 0.53050 0.19100
H 	H 	0.47590 0.18570 0.52950 0.15500
H 	H 	0.36640 0.04750 0.44000 0.17000
H 	H 	0.36540 0.07040 0.52860 0.18500
H 	H 	0.36740 0.02670 0.53140 0.14400
Mn	Mn	0.14686 0.64796 0.75115 1.31200
N 	N 	0.19985 0.73836 0.84040 -0.20300
N 	N 	0.13590 0.54360 0.66050 -0.20800
N 	N 	0.04420 0.68364 0.65750 -0.21100
O 	O 	0.16210 0.68812 0.83760 -0.35500
O 	O 	0.19500 0.66765 0.68800 -0.37400
O 	O 	0.23140 0.71596 0.69450 -0.41500
O 	O 	0.13940 0.60547 0.66450 -0.36200
O 	O 	0.17190 0.60024 0.82010 -0.34900
O 	O 	0.17140 0.53797 0.80860 -0.34400
O 	O 	0.09710 0.63704 0.81450 -0.38100
O 	O 	0.10720 0.68211 0.67560 -0.31900
O 	O 	0.03470 0.64190 0.79830 -0.37100
C 	C 	0.18770 0.70870 0.80710 0.06000
C 	C 	0.20520 0.69760 0.72230 0.24700
C 	C 	0.18480 0.75070 0.92300 -0.16800
C 	C 	0.15520 0.77430 0.92160 0.21600
C 	C 	0.13850 0.78730 0.83650 -0.53800
H 	H 	0.14030 0.76780 0.79300 0.17500
H 	H 	0.11270 0.79350 0.84580 0.15500
H 	H 	0.15170 0.80890 0.81590 0.15000
C 	C 	0.14520 0.57420 0.69570 0.09300
C 	C 	0.16260 0.57110 0.78450 0.21100
C 	C 	0.11470 0.54510 0.57840 -0.18800
C 	C 	0.07760 0.54760 0.57880 0.29400
C 	C 	0.05760 0.55010 0.66580 -0.60300
H 	H 	0.06330 0.57340 0.69390 0.19600
H 	H 	0.03120 0.54850 0.65590 0.16900
H 	H 	0.06530 0.52990 0.70330 0.17500
C 	C 	0.06750 0.64720 0.77720 0.22600
C 	C 	0.07420 0.67430 0.69610 0.07600
C 	C 	0.04630 0.70400 0.57790 -0.15100
C 	C 	0.04770 0.74190 0.57950 0.23300
C 	C 	0.04970 0.76280 0.66640 -0.52900
H 	H 	0.07290 0.75740 0.69530 0.17300
H 	H 	0.04800 0.78910 0.65530 0.15600
H 	H 	0.02940 0.75520 0.70380 0.14300
H 	H 	0.23130 0.69870 0.05990 0.10000
H 	H 	0.21640 0.68510 0.96770 0.09600
H 	H 	0.24860 0.71460 0.97240 0.06000
H 	H 	0.18550 0.54630 0.44000 0.17700
H 	H 	0.18530 0.56780 0.53050 0.19100
H 	H 	0.18570 0.52410 0.52950 0.15500
H 	H 	0.04750 0.63360 0.44000 0.17000
H 	H 	0.07040 0.63460 0.52860 0.18500
H 	H 	0.02670 0.63260 0.53140 0.14400
Mn	Mn	0.85314 0.35204 0.75115 1.31200
N 	N 	0.80015 0.26164 0.84040 -0.20300
N 	N 	0.86410 0.45640 0.66050 -0.20700
N 	N 	0.95580 0.31636 0.65750 -0.20700
O 	O 	0.83790 0.31188 0.83760 -0.35400
O 	O 	0.80500 0.33235 0.68800 -0.37400
O 	O 	0.76860 0.28404 0.69450 -0.41500
O 	O 	0.86060 0.39453 0.66450 -0.36200
O 	O 	0.82810 0.39976 0.82010 -0.34900
O 	O 	0.82860 0.46203 0.80860 -0.34400
O 	O 	0.90290 0.36296 0.81450 -0.38000
O 	O 	0.89280 0.31789 0.67560 -0.32000
O 	O 	0.96530 0.35810 0.79830 -0.36300
C 	C 	0.81230 0.29130 0.80710 0.05900
C 	C 	0.79480 0.30240 0.72230 0.24700
C 	C 	0.81520 0.24930 0.92300 -0.16900
C 	C 	0.84480 0.22570 0.92160 0.21800
C 	C 	0.86150 0.21270 0.83650 -0.54000
H 	H 	0.85970 0.23220 0.79300 0.17500
H 	H 	0.88730 0.20650 0.84580 0.15700
H 	H 	0.84830 0.19110 0.81590 0.15100
C 	C 	0.85480 0.42580 0.69570 0.09300
C 	C 	0.83740 0.42890 0.78450 0.21100
C 	C 	0.88530 0.45490 0.57840 -0.19300
C 	C 	0.92240 0.45240 0.57880 0.30400
C 	C 	0.94240 0.44990 0.66580 -0.61800
H 	H 	0.93670 0.42660 0.69390 0.20200
H 	H 	0.96880 0.45150 0.65590 0.18000
H 	H 	0.93470 0.47010 0.70330 0.18100
C 	C 	0.93250 0.35280 0.77720 0.22600
C 	C 	0.92580 0.32570 0.69610 0.07600
C 	C 	0.95370 0.29600 0.57790 -0.15700
C 	C 	0.95230 0.25810 0.57950 0.24500
C 	C 	0.95030 0.23720 0.66640 -0.54400
H 	H 	0.92710 0.24260 0.69530 0.17800
H 	H 	0.95200 0.21090 0.65530 0.16300
H 	H 	0.97060 0.24480 0.70380 0.15300
H 	H 	0.76870 0.30130 0.05990 0.10000
H 	H 	0.78360 0.31490 0.96770 0.09700
H 	H 	0.75140 0.28540 0.97240 0.06000
H 	H 	0.81450 0.45370 0.44000 0.17800
H 	H 	0.81470 0.43220 0.53050 0.19200
H 	H 	0.81430 0.47590 0.52950 0.15500
H 	H 	0.95250 0.36640 0.44000 0.17700
H 	H 	0.92960 0.36540 0.52860 0.19100
H 	H 	0.97330 0.36740 0.53140 0.15500
Mn	Mn	0.35204 0.85314 0.24885 1.31300
N 	N 	0.26164 0.80015 0.15960 -0.20400
N 	N 	0.45640 0.86410 0.33950 -0.20700
N 	N 	0.31636 0.95580 0.34250 -0.20600
O 	O 	0.31188 0.83790 0.16240 -0.34400
O 	O 	0.33235 0.80500 0.31200 -0.37200
O 	O 	0.28404 0.76860 0.30550 -0.41400
O 	O 	0.39453 0.86060 0.33550 -0.36200
O 	O 	0.39976 0.82810 0.17990 -0.33500
O 	O 	0.46203 0.82860 0.19140 -0.33000
O 	O 	0.36296 0.90290 0.18550 -0.36700
O 	O 	0.31789 0.89280 0.32440 -0.32000
O 	O 	0.35810 0.96530 0.20170 -0.35100
C 	C 	0.29130 0.81230 0.19290 0.06100
C 	C 	0.30240 0.79480 0.27770 0.24800
C 	C 	0.24930 0.81520 0.07700 -0.14500
C 	C 	0.22570 0.84480 0.07840 0.25600
C 	C 	0.21270 0.86150 0.16350 -0.57000
H 	H 	0.23220 0.85970 0.20700 0.18500
H 	H 	0.20650 0.88730 0.15420 0.17600
H 	H 	0.19110 0.84830 0.18410 0.16300
C 	C 	0.42580 0.85480 0.30430 0.09500
C 	C 	0.42890 0.83740 0.21550 0.21200
C 	C 	0.45490 0.88530 0.42160 -0.19400
C 	C 	0.45240 0.92240 0.42120 0.30600
C 	C 	0.44990 0.94240 0.33420 -0.62600
H 	H 	0.42660 0.93670 0.30610 0.20600
H 	H 	0.45150 0.96880 0.34410 0.18400
H 	H 	0.47010 0.93470 0.29670 0.18700
C 	C 	0.35280 0.93250 0.22280 0.22600
C 	C 	0.32570 0.92580 0.30390 0.07800
C 	C 	0.29600 0.95370 0.42210 -0.15800
C 	C 	0.25810 0.95230 0.42050 0.24800
C 	C 	0.23720 0.95030 0.33360 -0.55300
H 	H 	0.24260 0.92710 0.30470 0.18300
H 	H 	0.21090 0.95200 0.34470 0.16900
H 	H 	0.24480 0.97060 0.29620 0.16000
H 	H 	0.30130 0.76870 0.94010 0.12200
H 	H 	0.31490 0.78360 0.03230 0.15900
H 	H 	0.28540 0.75140 0.02760 0.13400
H 	H 	0.45370 0.81450 0.56000 0.17700
H 	H 	0.43220 0.81470 0.46950 0.19200
H 	H 	0.47590 0.81430 0.47050 0.15600
H 	H 	0.36640 0.95250 0.56000 0.17700
H 	H 	0.36540 0.92960 0.47140 0.19100
H 	H 	0.36740 0.97330 0.46860 0.15500
Mn	Mn	0.64796 0.14686 0.24885 1.31300
N 	N 	0.73836 0.19985 0.15960 -0.20400
N 	N 	0.54360 0.13590 0.33950 -0.20700
N 	N 	0.68364 0.04420 0.34250 -0.21000
O 	O 	0.68812 0.16210 0.16240 -0.34400
O 	O 	0.66765 0.19500 0.31200 -0.37200
O 	O 	0.71596 0.23140 0.30550 -0.41400
O 	O 	0.60547 0.13940 0.33550 -0.36200
O 	O 	0.60024 0.17190 0.17990 -0.33500
O 	O 	0.53797 0.17140 0.19140 -0.33000
O 	O 	0.63704 0.09710 0.18550 -0.36800
O 	O 	0.68211 0.10720 0.32440 -0.31900
O 	O 	0.64190 0.03470 0.20170 -0.36000
C 	C 	0.70870 0.18770 0.19290 0.06100
C 	C 	0.69760 0.20520 0.27770 0.24800
C 	C 	0.75070 0.18480 0.07700 -0.14400
C 	C 	0.77430 0.15520 0.07840 0.25500
C 	C 	0.78730 0.13850 0.16350 -0.56800
H 	H 	0.76780 0.14030 0.20700 0.18400
H 	H 	0.79350 0.11270 0.15420 0.17500
H 	H 	0.80890 0.15170 0.18410 0.16300
C 	C 	0.57420 0.14520 0.30430 0.09500
C 	C 	0.57110 0.16260 0.21550 0.21200
C 	C 	0.54510 0.11470 0.42160 -0.18900
C 	C 	0.54760 0.07760 0.42120 0.29600
C 	C 	0.55010 0.05760 0.33420 -0.61100
H 	H 	0.57340 0.06330 0.30610 0.20000
H 	H 	0.54850 0.03120 0.34410 0.17300
H 	H 	0.52990 0.06530 0.29670 0.18100
C 	C 	0.64720 0.06750 0.22280 0.22600
C 	C 	0.67430 0.07420 0.30390 0.07800
C 	C 	0.70400 0.04630 0.42210 -0.15200
C 	C 	0.74190 0.04770 0.42050 0.23600
C 	C 	0.76280 0.04970 0.33360 -0.53800
H 	H 	0.75740 0.07290 0.30470 0.17900
H 	H 	0.78910 0.04800 0.34470 0.16200
H 	H 	0.75520 0.02940 0.29620 0.15000
H 	H 	0.69870 0.23130 0.94010 0.12200
H 	H 	0.68510 0.21640 0.03230 0.15900
H 	H 	0.71460 0.24860 0.02760 0.13300
H 	H 	0.54630 0.18550 0.56000 0.17600
H 	H 	0.56780 0.18530 0.46950 0.19100
H 	H 	0.52410 0.18570 0.47050 0.15500
H 	H 	0.63360 0.04750 0.56000 0.17000
H 	H 	0.63460 0.07040 0.47140 0.18500
H 	H 	0.63260 0.02670 0.46860 0.14400
Mn	Mn	0.85314 0.64796 0.24885 1.31300
N 	N 	0.80015 0.73836 0.15960 -0.20400
N 	N 	0.86410 0.54360 0.33950 -0.20700
N 	N 	0.95580 0.68364 0.34250 -0.20600
O 	O 	0.83790 0.68812 0.16240 -0.34400
O 	O 	0.80500 0.66765 0.31200 -0.37200
O 	O 	0.76860 0.71596 0.30550 -0.41400
O 	O 	0.86060 0.60547 0.33550 -0.36200
O 	O 	0.82810 0.60024 0.17990 -0.33500
O 	O 	0.82860 0.53797 0.19140 -0.33000
O 	O 	0.90290 0.63704 0.18550 -0.36700
O 	O 	0.89280 0.68211 0.32440 -0.32000
O 	O 	0.96530 0.64190 0.20170 -0.35100
C 	C 	0.81230 0.70870 0.19290 0.06000
C 	C 	0.79480 0.69760 0.27770 0.24800
C 	C 	0.81520 0.75070 0.07700 -0.14600
C 	C 	0.84480 0.77430 0.07840 0.25700
C 	C 	0.86150 0.78730 0.16350 -0.57200
H 	H 	0.85970 0.76780 0.20700 0.18600
H 	H 	0.88730 0.79350 0.15420 0.17700
H 	H 	0.84830 0.80890 0.18410 0.16400
C 	C 	0.85480 0.57420 0.30430 0.09500
C 	C 	0.83740 0.57110 0.21550 0.21200
C 	C 	0.88530 0.54510 0.42160 -0.19400
C 	C 	0.92240 0.54760 0.42120 0.30600
C 	C 	0.94240 0.55010 0.33420 -0.62600
H 	H 	0.93670 0.57340 0.30610 0.20600
H 	H 	0.96880 0.54850 0.34410 0.18400
H 	H 	0.93470 0.52990 0.29670 0.18700
C 	C 	0.93250 0.64720 0.22280 0.22600
C 	C 	0.92580 0.67430 0.30390 0.07800
C 	C 	0.95370 0.70400 0.42210 -0.15800
C 	C 	0.95230 0.74190 0.42050 0.24900
C 	C 	0.95030 0.76280 0.33360 -0.55400
H 	H 	0.92710 0.75740 0.30470 0.18400
H 	H 	0.95200 0.78910 0.34470 0.17000
H 	H 	0.97060 0.75520 0.29620 0.16100
H 	H 	0.76870 0.69870 0.94010 0.12200
H 	H 	0.78360 0.68510 0.03230 0.15900
H 	H 	0.75140 0.71460 0.02760 0.13400
H 	H 	0.81450 0.54630 0.56000 0.17700
H 	H 	0.81470 0.56780 0.46950 0.19200
H 	H 	0.81430 0.52410 0.47050 0.15600
H 	H 	0.95250 0.63360 0.56000 0.17700
H 	H 	0.92960 0.63460 0.47140 0.19100
H 	H 	0.97330 0.63260 0.46860 0.15600
Mn	Mn	0.14686 0.35204 0.24885 1.31300
N 	N 	0.19985 0.26164 0.15960 -0.20400
N 	N 	0.13590 0.45640 0.33950 -0.20700
N 	N 	0.04420 0.31636 0.34250 -0.21000
O 	O 	0.16210 0.31188 0.16240 -0.34400
O 	O 	0.19500 0.33235 0.31200 -0.37200
O 	O 	0.23140 0.28404 0.30550 -0.41300
O 	O 	0.13940 0.39453 0.33550 -0.36200
O 	O 	0.17190 0.39976 0.17990 -0.33500
O 	O 	0.17140 0.46203 0.19140 -0.33000
O 	O 	0.09710 0.36296 0.18550 -0.36800
O 	O 	0.10720 0.31789 0.32440 -0.31900
O 	O 	0.03470 0.35810 0.20170 -0.36000
C 	C 	0.18770 0.29130 0.19290 0.06100
C 	C 	0.20520 0.30240 0.27770 0.24800
C 	C 	0.18480 0.24930 0.07700 -0.14400
C 	C 	0.15520 0.22570 0.07840 0.25300
C 	C 	0.13850 0.21270 0.16350 -0.56600
H 	H 	0.14030 0.23220 0.20700 0.18400
H 	H 	0.11270 0.20650 0.15420 0.17400
H 	H 	0.15170 0.19110 0.18410 0.16200
C 	C 	0.14520 0.42580 0.30430 0.09500
C 	C 	0.16260 0.42890 0.21550 0.21200
C 	C 	0.11470 0.45490 0.42160 -0.18900
C 	C 	0.07760 0.45240 0.42120 0.29600
C 	C 	0.05760 0.44990 0.33420 -0.61100
H 	H 	0.06330 0.42660 0.30610 0.20000
H 	H 	0.03120 0.45150 0.34410 0.17300
H 	H 	0.06530 0.47010 0.29670 0.18100
C 	C 	0.06750 0.35280 0.22280 0.22600
C 	C 	0.07420 0.32570 0.30390 0.07800
C 	C 	0.04630 0.29600 0.42210 -0.15200
C 	C 	0.04770 0.25810 0.42050 0.23500
C 	C 	0.04970 0.23720 0.33360 -0.53700
H 	H 	0.07290 0.24260 0.30470 0.17800
H 	H 	0.04800 0.21090 0.34470 0.16000
H 	H 	0.02940 0.24480 0.29620 0.14900
H 	H 	0.23130 0.30130 0.94010 0.12200
H 	H 	0.21640 0.31490 0.03230 0.15900
H 	H 	0.24860 0.28540 0.02760 0.13300
H 	H 	0.18550 0.45370 0.56000 0.17600
H 	H 	0.18530 0.43220 0.46950 0.19100
H 	H 	0.18570 0.47590 0.47050 0.15500
H 	H 	0.04750 0.36640 0.56000 0.17000
H 	H 	0.07040 0.36540 0.47140 0.18500
H 	H 	0.02670 0.36740 0.46860 0.14400
Cu	Cu	0.24093 0.24093 0.23031 0.86800
Na	Na	0.26920 0.26920 0.43150 0.57500
Cu	Cu	0.75907 0.75907 0.23031 0.86800
Na	Na	0.73080 0.73080 0.43150 0.57500
Cu	Cu	0.75907 0.24093 0.23031 0.86800
Na	Na	0.73080 0.26920 0.43150 0.57500
Cu	Cu	0.24093 0.75907 0.23031 0.86800
Na	Na	0.26920 0.73080 0.43150 0.57500
Cu	Cu	0.75907 0.24093 0.76969 0.86700
Na	Na	0.73080 0.26920 0.56850 0.57500
Cu	Cu	0.24093 0.75907 0.76969 0.86700
Na	Na	0.26920 0.73080 0.56850 0.57500
Cu	Cu	0.24093 0.24093 0.76969 0.86700
Na	Na	0.26920 0.26920 0.56850 0.57500
Cu	Cu	0.75907 0.75907 0.76969 0.86700
Na	Na	0.73080 0.73080 0.56850 0.57500
Cu	Cu	0.33201 0.00000 0.27477 0.86600
Cu	Cu	0.66799 0.00000 0.27477 0.86600
Cu	Cu	0.00000 0.33201 0.27477 0.86600
Cu	Cu	0.00000 0.66799 0.27477 0.86600
Cu	Cu	0.66799 0.00000 0.72523 0.86400
Cu	Cu	0.33201 0.00000 0.72523 0.86400
Cu	Cu	0.00000 0.33201 0.72523 0.86400
Cu	Cu	-0.00000 0.66799 0.72523 0.86400
Cu	Cu	0.50000 0.15086 0.26973 0.87000
Cu	Cu	0.50000 0.84914 0.26973 0.87100
Cu	Cu	0.84914 0.50000 0.26973 0.87100
Cu	Cu	0.15086 0.50000 0.26973 0.87000
Cu	Cu	0.50000 0.15086 0.73027 0.86800
Cu	Cu	0.50000 0.84914 0.73027 0.86800
Cu	Cu	0.15086 0.50000 0.73027 0.86800
Cu	Cu	0.84914 0.50000 0.73027 0.86800
C 	C 	0.21400 0.14240 -0.00000 -0.28100
H 	H 	0.19650 0.12330 -0.00000 0.11900
C 	C 	0.26260 0.19750 -0.00000 0.26400
C 	C 	0.29390 0.22610 -0.00000 -0.64200
C 	C 	0.78600 0.85760 -0.00000 -0.28400
H 	H 	0.80350 0.87670 -0.00000 0.12200
C 	C 	0.73740 0.80250 -0.00000 0.26600
C 	C 	0.70610 0.77390 -0.00000 -0.64400
C 	C 	0.85760 0.21400 -0.00000 -0.28300
H 	H 	0.87670 0.19650 -0.00000 0.12100
C 	C 	0.80250 0.26260 -0.00000 0.26500
C 	C 	0.77390 0.29390 -0.00000 -0.64400
C 	C 	0.14240 0.78600 -0.00000 -0.28200
H 	H 	0.12330 0.80350 -0.00000 0.12000
C 	C 	0.19750 0.73740 -0.00000 0.26400
C 	C 	0.22610 0.70610 -0.00000 -0.64300
C 	C 	0.78600 0.14240 -0.00000 -0.28200
H 	H 	0.80350 0.12330 -0.00000 0.12000
C 	C 	0.73740 0.19750 -0.00000 0.26400
C 	C 	0.70610 0.22610 -0.00000 -0.64300
C 	C 	0.21400 0.85760 -0.00000 -0.28300
H 	H 	0.19650 0.87670 -0.00000 0.12100
C 	C 	0.26260 0.80250 -0.00000 0.26500
C 	C 	0.29390 0.77390 -0.00000 -0.64400
C 	C 	0.14240 0.21400 -0.00000 -0.28100
H 	H 	0.12330 0.19650 -0.00000 0.11900
C 	C 	0.19750 0.26260 -0.00000 0.26400
C 	C 	0.22610 0.29390 -0.00000 -0.64200
C 	C 	0.85760 0.78600 -0.00000 -0.28400
H 	H 	0.87670 0.80350 -0.00000 0.12200
C 	C 	0.80250 0.73740 -0.00000 0.26600
C 	C 	0.77390 0.70610 -0.00000 -0.64400
C 	C 	0.45170 0.06090 0.50000 -0.39100
H 	H 	0.45060 0.03490 0.50000 0.12400
C 	C 	0.45440 0.13420 0.50000 0.31700
C 	C 	0.45400 0.17660 0.50000 -1.01800
C 	C 	0.23990 0.04830 0.50000 -0.29900
H 	H 	0.21390 0.04900 0.50000 0.11200
C 	C 	0.31560 0.04580 0.50000 0.28400
C 	C 	0.35750 0.04780 0.50000 -0.97600
O 	O 	0.29870 0.21430 0.50000 -0.19100
O 	O 	0.24510 0.21290 0.50000 -0.18400
C 	C 	0.54830 0.93910 0.50000 -0.40100
H 	H 	0.54940 0.96510 0.50000 0.13200
C 	C 	0.54560 0.86580 0.50000 0.32100
C 	C 	0.54600 0.82340 0.50000 -1.02300
C 	C 	0.76010 0.95170 0.50000 -0.30900
H 	H 	0.78610 0.95100 0.50000 0.11900
C 	C 	0.68440 0.95420 0.50000 0.30200
C 	C 	0.64250 0.95220 0.50000 -1.01600
O 	O 	0.70130 0.78570 0.50000 -0.19100
O 	O 	0.75490 0.78710 0.50000 -0.18400
C 	C 	0.93910 0.45170 0.50000 -0.40200
H 	H 	0.96510 0.45060 0.50000 0.13200
C 	C 	0.86580 0.45440 0.50000 0.32100
C 	C 	0.82340 0.45400 0.50000 -1.02300
C 	C 	0.95170 0.23990 0.50000 -0.30800
H 	H 	0.95100 0.21390 0.50000 0.11800
C 	C 	0.95420 0.31560 0.50000 0.30100
C 	C 	0.95220 0.35750 0.50000 -1.01600
O 	O 	0.78570 0.29870 0.50000 -0.19100
O 	O 	0.78710 0.24510 0.50000 -0.18400
C 	C 	0.06090 0.54830 0.50000 -0.39100
H 	H 	0.03490 0.54940 0.50000 0.12400
C 	C 	0.13420 0.54560 0.50000 0.31700
C 	C 	0.17660 0.54600 0.50000 -1.01800
C 	C 	0.04830 0.76010 0.50000 -0.30000
H 	H 	0.04900 0.78610 0.50000 0.11300
C 	C 	0.04580 0.68440 0.50000 0.28400
C 	C 	0.04780 0.64250 0.50000 -0.97700
O 	O 	0.21430 0.70130 0.50000 -0.19100
O 	O 	0.21290 0.75490 0.50000 -0.18400
C 	C 	0.54830 0.06090 0.50000 -0.39100
H 	H 	0.54940 0.03490 0.50000 0.12400
C 	C 	0.54560 0.13420 0.50000 0.31700
C 	C 	0.54600 0.17660 0.50000 -1.01800
C 	C 	0.76010 0.04830 0.50000 -0.30000
H 	H 	0.78610 0.04900 0.50000 0.11300
C 	C 	0.68440 0.04580 0.50000 0.28400
C 	C 	0.64250 0.04780 0.50000 -0.97700
O 	O 	0.70130 0.21430 0.50000 -0.19100
O 	O 	0.75490 0.21290 0.50000 -0.18400
C 	C 	0.45170 0.93910 0.50000 -0.40200
H 	H 	0.45060 0.96510 0.50000 0.13200
C 	C 	0.45440 0.86580 0.50000 0.32100
C 	C 	0.45400 0.82340 0.50000 -1.02300
C 	C 	0.23990 0.95170 0.50000 -0.30800
H 	H 	0.21390 0.95100 0.50000 0.11800
C 	C 	0.31560 0.95420 0.50000 0.30100
C 	C 	0.35750 0.95220 0.50000 -1.01600
O 	O 	0.29870 0.78570 0.50000 -0.19100
O 	O 	0.24510 0.78710 0.50000 -0.18400
C 	C 	0.06090 0.45170 0.50000 -0.39100
H 	H 	0.03490 0.45060 0.50000 0.12400
C 	C 	0.13420 0.45440 0.50000 0.31700
C 	C 	0.17660 0.45400 0.50000 -1.01800
C 	C 	0.04830 0.23990 0.50000 -0.29900
H 	H 	0.04900 0.21390 0.50000 0.11200
C 	C 	0.04580 0.31560 0.50000 0.28400
C 	C 	0.04780 0.35750 0.50000 -0.97600
O 	O 	0.21430 0.29870 0.50000 -0.19100
O 	O 	0.21290 0.24510 0.50000 -0.18400
C 	C 	0.93910 0.54830 0.50000 -0.40100
H 	H 	0.96510 0.54940 0.50000 0.13200
C 	C 	0.86580 0.54560 0.50000 0.32100
C 	C 	0.82340 0.54600 0.50000 -1.02300
C 	C 	0.95170 0.76010 0.50000 -0.30900
H 	H 	0.95100 0.78610 0.50000 0.11900
C 	C 	0.95420 0.68440 0.50000 0.30200
C 	C 	0.95220 0.64250 0.50000 -1.01600
O 	O 	0.78570 0.70130 0.50000 -0.19100
O 	O 	0.78710 0.75490 0.50000 -0.18400
O 	O 	0.31390 0.31390 0.50000 -0.25500
O 	O 	0.68610 0.68610 0.50000 -0.25500
O 	O 	0.68610 0.31390 0.50000 -0.25500
O 	O 	0.31390 0.68610 0.50000 -0.25500
