data_crystal

_cell_length_a 8.11560
_cell_length_b 20.38610
_cell_length_c 8.65790
_cell_angle_alpha 90.00000
_cell_angle_beta  91.19900
_cell_angle_gamma 90.00000

_symmetry_space_group_name_	'P 1'
_symmetry_space_group_name_H-M	'P 1'

loop_
_symmetry_equiv_pos_as_xyz
  x,y,z

loop_
_atom_site_label
_atom_site_type_symbol
_atom_site_fract_x
_atom_site_fract_y
_atom_site_fract_z
_atom_site_charge
C 	C 	0.88220 0.87020 0.68880 0.10500
H 	H 	0.99350 0.86310 0.72100 0.03700
C 	C 	0.61900 0.85600 0.64210 0.10400
H 	H 	0.51250 0.83670 0.63550 0.03100
C 	C 	0.83220 0.63530 0.84560 0.10800
H 	H 	0.94020 0.65100 0.82720 0.04400
C 	C 	0.56280 0.62980 0.85830 0.11400
H 	H 	0.44870 0.64000 0.85040 0.01700
C 	C 	0.81270 0.50030 0.21050 0.10600
H 	H 	0.89240 0.50300 0.13200 0.02300
C 	C 	0.69700 0.49380 0.43650 0.10300
H 	H 	0.68240 0.49160 0.54500 0.03500
N 	N 	0.82550 0.92370 0.62650 -0.13300
N 	N 	0.65580 0.91480 0.59720 -0.08400
N 	N 	0.75860 0.82590 0.70100 -0.09400
N 	N 	0.78940 0.76320 0.75620 -0.02900
N 	N 	0.65690 0.73290 0.75950 -0.03400
N 	N 	0.68780 0.66920 0.81440 -0.09600
N 	N 	0.79630 0.57850 0.90450 -0.07800
N 	N 	0.62500 0.57590 0.91280 -0.17600
N 	N 	0.65300 0.49810 0.18870 -0.18800
N 	N 	0.57920 0.49300 0.33320 -0.09900
N 	N 	0.84480 0.49810 0.36600 -0.08700
N 	N 	0.00310 0.50070 0.42740 -0.06100
C 	C 	0.11780 0.12980 0.31120 0.09200
H 	H 	0.00650 0.13690 0.27900 0.00100
C 	C 	0.38100 0.14400 0.35790 0.09600
H 	H 	0.48750 0.16330 0.36450 0.02800
C 	C 	0.16780 0.36470 0.15440 0.09100
H 	H 	0.05980 0.34900 0.17280 0.01400
C 	C 	0.43720 0.37020 0.14170 0.10100
H 	H 	0.55130 0.36000 0.14960 0.00800
C 	C 	0.18730 0.49970 0.78950 0.10500
H 	H 	0.10760 0.49700 0.86800 0.02500
C 	C 	0.30300 0.50620 0.56350 0.10500
H 	H 	0.31760 0.50840 0.45500 0.03000
N 	N 	0.17450 0.07630 0.37350 -0.15700
N 	N 	0.34420 0.08520 0.40280 -0.09500
N 	N 	0.24140 0.17410 0.29900 -0.10100
N 	N 	0.21060 0.23680 0.24380 -0.04600
N 	N 	0.34310 0.26710 0.24050 -0.04100
N 	N 	0.31220 0.33080 0.18560 -0.10100
N 	N 	0.20370 0.42150 0.09550 -0.10400
N 	N 	0.37500 0.42410 0.08720 -0.19400
N 	N 	0.34700 0.50190 0.81130 -0.17500
N 	N 	0.42080 0.50700 0.66680 -0.09900
N 	N 	0.15520 0.50190 0.63400 -0.11100
N 	N 	0.99690 0.49930 0.57260 -0.01100
Cu	Cu	0.50000 0.50000 -0.00000 0.87300
C 	C 	0.61780 0.37020 0.81120 0.10500
H 	H 	0.50650 0.36310 0.77900 0.02000
C 	C 	0.88100 0.35600 0.85790 0.10800
H 	H 	0.98750 0.33670 0.86450 0.04700
C 	C 	0.66780 0.13530 0.65440 0.10200
H 	H 	0.55980 0.15100 0.67280 0.02900
C 	C 	0.93720 0.12980 0.64170 0.17000
H 	H 	0.05130 0.14000 0.64960 -0.02700
C 	C 	0.68730 0.00030 0.28950 0.04300
H 	H 	0.60760 0.00300 0.36800 0.03500
C 	C 	0.80300 0.99380 0.06350 0.04000
H 	H 	0.81760 0.99160 0.95500 0.09100
N 	N 	0.67450 0.42370 0.87350 -0.13800
N 	N 	0.84420 0.41480 0.90280 -0.07500
N 	N 	0.74140 0.32590 0.79900 -0.09500
N 	N 	0.71060 0.26320 0.74380 -0.03400
N 	N 	0.84310 0.23290 0.74050 -0.02700
N 	N 	0.81220 0.16920 0.68560 -0.10500
N 	N 	0.70370 0.07850 0.59550 -0.09600
N 	N 	0.87500 0.07590 0.58720 -0.19100
N 	N 	0.84700 0.99810 0.31130 -0.14700
N 	N 	0.92080 0.99300 0.16680 -0.07100
N 	N 	0.65520 0.99810 0.13400 -0.06100
N 	N 	0.49690 0.00070 0.07260 -0.08200
C 	C 	0.38220 0.62980 0.18880 0.09100
H 	H 	0.49350 0.63690 0.22100 0.01600
C 	C 	0.11900 0.64400 0.14210 0.09100
H 	H 	0.01250 0.66330 0.13550 0.01100
C 	C 	0.33220 0.86470 0.34560 0.09800
H 	H 	0.44020 0.84900 0.32720 0.02900
C 	C 	0.06280 0.87020 0.35830 0.04800
H 	H 	0.94870 0.86000 0.35040 0.05100
C 	C 	0.31270 0.99970 0.71050 0.16900
H 	H 	0.39240 0.99700 0.63200 0.01300
C 	C 	0.19700 0.00620 0.93650 0.16900
H 	H 	0.18240 0.00840 0.04500 -0.02700
N 	N 	0.32550 0.57630 0.12650 -0.15300
N 	N 	0.15580 0.58520 0.09720 -0.10400
N 	N 	0.25860 0.67410 0.20100 -0.10000
N 	N 	0.28940 0.73680 0.25620 -0.04100
N 	N 	0.15690 0.76710 0.25950 -0.04700
N 	N 	0.18780 0.83080 0.31440 -0.09300
N 	N 	0.29630 0.92150 0.40450 -0.08600
N 	N 	0.12500 0.92410 0.41280 -0.17500
N 	N 	0.15300 0.00190 0.68870 -0.21400
N 	N 	0.07920 0.00700 0.83320 -0.12600
N 	N 	0.34480 0.00190 0.86600 -0.13600
N 	N 	0.50310 0.99930 0.92740 0.01000
Cu	Cu	0.00000 -0.00000 0.50000 0.86300
