data_crystal

_cell_length_a 9.84800
_cell_length_b 12.47000
_cell_length_c 12.60300
_cell_angle_alpha 63.47000
_cell_angle_beta  74.56000
_cell_angle_gamma 76.03000

_symmetry_space_group_name_	'P 1'
_symmetry_space_group_name_H-M	'P 1'

loop_
_symmetry_equiv_pos_as_xyz
  x,y,z

loop_
_atom_site_label
_atom_site_type_symbol
_atom_site_fract_x
_atom_site_fract_y
_atom_site_fract_z
_atom_site_charge
Ga	Ga	0.20020 0.88246 0.51811 2.06500
Ga	Ga	0.09730 0.40144 0.16234 2.06900
Ga	Ga	0.36690 0.16190 0.50600 2.06500
Co	Co	0.39210 0.66020 0.90310 1.21400
Co	Co	0.53140 0.53530 0.31000 1.22700
P 	P 	0.11570 0.16940 0.40040 0.69800
P 	P 	0.36160 0.89670 0.68510 0.68100
P 	P 	0.33870 0.50870 0.17060 0.58400
P 	P 	0.45180 0.69790 0.45120 0.65200
P 	P 	0.21020 0.48940 0.88310 0.64200
O 	O 	0.34490 0.81110 0.43320 -0.67800
O 	O 	0.23670 0.86680 0.66020 -0.71200
O 	O 	0.18280 0.04470 0.41440 -0.72400
O 	O 	0.96080 0.17830 0.46380 -0.67900
O 	O 	0.15690 0.40080 0.01070 -0.66300
O 	O 	0.09090 0.53310 0.81100 -0.64600
O 	O 	0.12710 0.24210 0.26450 -0.65900
O 	O 	0.18140 0.49650 0.19940 -0.60400
O 	O 	0.19280 0.22320 0.45260 -0.64300
O 	O 	0.34190 0.02930 0.65520 -0.65700
O 	O 	0.49760 0.85790 0.61540 -0.78600
O 	O 	0.59090 0.71940 0.46210 -0.65400
O 	O 	0.36540 0.82780 0.82100 -0.42400
O 	O 	0.25640 0.59470 0.88410 -0.54600
O 	O 	0.42160 0.40620 0.13700 -0.54500
O 	O 	0.36560 0.63000 0.06600 -0.44900
O 	O 	0.46920 0.66930 0.34230 -0.42900
O 	O 	0.33160 0.41800 0.82760 -0.44200
O 	O 	0.39400 0.59420 0.56290 -0.50400
O 	O 	0.37370 0.50720 0.28120 -0.45400
Ga	Ga	0.79980 0.11754 0.48189 2.06600
Ga	Ga	0.90270 0.59856 0.83766 2.07000
Ga	Ga	0.63310 0.83810 0.49400 2.06500
Co	Co	0.60790 0.33980 0.09690 1.21400
Co	Co	0.46860 0.46470 0.69000 1.22700
P 	P 	0.88430 0.83060 0.59960 0.69800
P 	P 	0.63840 0.10330 0.31490 0.68100
P 	P 	0.66130 0.49130 0.82940 0.58400
P 	P 	0.54820 0.30210 0.54880 0.65200
P 	P 	0.78980 0.51060 0.11690 0.64200
O 	O 	0.65510 0.18890 0.56680 -0.67800
O 	O 	0.76330 0.13320 0.33980 -0.71200
O 	O 	0.81720 0.95530 0.58560 -0.72400
O 	O 	0.03920 0.82170 0.53620 -0.67900
O 	O 	0.84310 0.59920 0.98930 -0.66300
O 	O 	0.90910 0.46690 0.18900 -0.64600
O 	O 	0.87290 0.75790 0.73550 -0.65900
O 	O 	0.81860 0.50350 0.80060 -0.60400
O 	O 	0.80720 0.77680 0.54740 -0.64300
O 	O 	0.65810 0.97070 0.34480 -0.65700
O 	O 	0.50240 0.14210 0.38460 -0.78600
O 	O 	0.40910 0.28060 0.53790 -0.65400
O 	O 	0.63460 0.17220 0.17900 -0.42400
O 	O 	0.74360 0.40530 0.11590 -0.54600
O 	O 	0.57840 0.59380 0.86300 -0.54500
O 	O 	0.63440 0.37000 0.93400 -0.44900
O 	O 	0.53080 0.33070 0.65770 -0.42900
O 	O 	0.66840 0.58200 0.17240 -0.44200
O 	O 	0.60600 0.40580 0.43710 -0.50400
O 	O 	0.62630 0.49280 0.71880 -0.45400
