data_crystal

_cell_length_a 8.40150
_cell_length_b 8.40150
_cell_length_c 12.01500
_cell_angle_alpha 90.00000
_cell_angle_beta  90.00000
_cell_angle_gamma 90.00000

_symmetry_space_group_name_	'P 1'
_symmetry_space_group_name_H-M	'P 1'

loop_
_symmetry_equiv_pos_as_xyz
  x,y,z

loop_
_atom_site_label
_atom_site_type_symbol
_atom_site_fract_x
_atom_site_fract_y
_atom_site_fract_z
_atom_site_charge
Cu	Cu	0.80664 0.40272 0.37512 0.92600
Cu	Cu	0.19336 0.59728 0.87512 0.92500
Cu	Cu	0.59728 0.80664 0.12512 0.92600
Cu	Cu	0.40272 0.19336 0.62512 0.92500
H 	H 	0.83320 0.02890 0.41030 0.24300
H 	H 	0.67920 0.93760 0.37460 0.23800
H 	H 	0.16680 0.97110 0.91030 0.23900
H 	H 	0.32080 0.06240 0.87460 0.23300
H 	H 	0.97110 0.83320 0.16030 0.24800
H 	H 	0.06240 0.67920 0.12460 0.24800
H 	H 	0.02890 0.16680 0.66030 0.24300
H 	H 	0.93760 0.32080 0.62460 0.23900
C 	C 	0.74150 0.11190 0.26250 0.53200
C 	C 	0.72700 0.04240 0.38000 -0.70700
C 	C 	0.62980 0.14120 0.46150 0.53500
C 	C 	0.25850 0.88810 0.76250 0.52900
C 	C 	0.27300 0.95760 0.88000 -0.69900
C 	C 	0.37020 0.85880 0.96150 0.52000
C 	C 	0.88810 0.74150 0.01250 0.55000
C 	C 	0.95760 0.72700 0.13000 -0.72400
C 	C 	0.85880 0.62980 0.21150 0.54000
C 	C 	0.11190 0.25850 0.51250 0.53300
C 	C 	0.04240 0.27300 0.63000 -0.71000
C 	C 	0.14120 0.37020 0.71150 0.53600
O 	O 	0.76790 0.25920 0.25290 -0.41700
O 	O 	0.73290 0.02160 0.18230 -0.41000
O 	O 	0.64810 0.28870 0.46620 -0.49200
O 	O 	0.53590 0.06630 0.52330 -0.44300
O 	O 	0.23210 0.74080 0.75290 -0.41900
O 	O 	0.26710 0.97840 0.68230 -0.41300
O 	O 	0.35190 0.71130 0.96620 -0.49300
O 	O 	0.46410 0.93370 0.02330 -0.43100
O 	O 	0.74080 0.76790 0.00290 -0.41900
O 	O 	0.97840 0.73290 0.93230 -0.42600
O 	O 	0.71130 0.64810 0.21620 -0.49200
O 	O 	0.93370 0.53590 0.27330 -0.44400
O 	O 	0.25920 0.23210 0.50290 -0.41900
O 	O 	0.02160 0.26710 0.43230 -0.41200
O 	O 	0.28870 0.35190 0.71620 -0.49300
O 	O 	0.06630 0.46410 0.77330 -0.44500
