data_crystal

_cell_length_a 6.11390
_cell_length_b 9.98300
_cell_length_c 13.41300
_cell_angle_alpha 68.93100
_cell_angle_beta  80.96000
_cell_angle_gamma 76.68900

_symmetry_space_group_name_	'P 1'
_symmetry_space_group_name_H-M	'P 1'

loop_
_symmetry_equiv_pos_as_xyz
  x,y,z

loop_
_atom_site_label
_atom_site_type_symbol
_atom_site_fract_x
_atom_site_fract_y
_atom_site_fract_z
_atom_site_charge
Sm	Sm	0.83082 0.61458 0.19641 1.85700
Sm	Sm	0.16918 0.38542 0.80359 1.85700
H 	H 	0.32250 0.04960 0.02900 0.01000
H 	H 	0.70200 0.32580 0.63060 -0.00300
H 	H 	0.67750 0.95040 0.97100 0.01000
H 	H 	0.29800 0.67420 0.36940 -0.00300
C 	C 	0.28630 0.76720 0.14040 0.41300
C 	C 	0.13250 0.89530 0.06840 -0.09600
C 	C 	0.18980 0.03140 0.01510 0.08300
C 	C 	0.94840 0.38350 0.43950 0.35200
C 	C 	0.71160 0.44390 0.47280 -0.07300
C 	C 	0.61620 0.39780 0.57820 0.07800
C 	C 	0.08920 0.44070 0.03330 0.25000
C 	C 	0.71370 0.23280 0.85960 0.41300
C 	C 	0.86750 0.10470 0.93160 -0.09600
C 	C 	0.81020 0.96860 0.98490 0.08300
C 	C 	0.05160 0.61650 0.56050 0.35200
C 	C 	0.28840 0.55610 0.52720 -0.07300
C 	C 	0.38380 0.60220 0.42180 0.07800
C 	C 	0.91080 0.55930 0.96670 0.25000
N 	N 	0.93890 0.86470 0.05460 -0.18900
N 	N 	0.59380 0.54620 0.39410 -0.19400
N 	N 	0.06110 0.13530 0.94540 -0.18900
N 	N 	0.40620 0.45380 0.60590 -0.19400
O 	O 	0.21290 0.65170 0.18430 -0.48400
O 	O 	0.47750 0.78500 0.15090 -0.48300
O 	O 	0.01430 0.43110 0.34230 -0.44600
O 	O 	0.06680 0.29070 0.50990 -0.27400
O 	O 	0.08350 0.43050 0.12960 -0.39100
O 	O 	0.22370 0.36240 0.98670 -0.41000
O 	O 	0.78710 0.34830 0.81570 -0.48400
O 	O 	0.52250 0.21500 0.84910 -0.48300
O 	O 	0.98570 0.56890 0.65770 -0.44600
O 	O 	0.93320 0.70930 0.49010 -0.27400
O 	O 	0.91650 0.56950 0.87040 -0.39100
O 	O 	0.77630 0.63760 0.01330 -0.41000
