data_crystal

_cell_length_a 6.10090
_cell_length_b 9.97580
_cell_length_c 13.38250
_cell_angle_alpha 68.87100
_cell_angle_beta  81.03300
_cell_angle_gamma 76.75000

_symmetry_space_group_name_	'P 1'
_symmetry_space_group_name_H-M	'P 1'

loop_
_symmetry_equiv_pos_as_xyz
  x,y,z

loop_
_atom_site_label
_atom_site_type_symbol
_atom_site_fract_x
_atom_site_fract_y
_atom_site_fract_z
_atom_site_charge
Eu	Eu	0.83164 0.61437 0.19600 1.76800
Eu	Eu	0.16836 0.38563 0.80400 1.76800
H 	H 	0.32480 0.04640 0.02880 0.01400
H 	H 	0.70600 0.32530 0.62890 0.00200
H 	H 	0.67520 0.95360 0.97120 0.01400
H 	H 	0.29400 0.67470 0.37110 0.00200
C 	C 	0.28660 0.76780 0.14160 0.40300
C 	C 	0.13250 0.89500 0.06810 -0.09000
C 	C 	0.19050 0.02940 0.01540 0.07900
C 	C 	0.95070 0.38360 0.43980 0.35200
C 	C 	0.70970 0.44380 0.47300 -0.06800
C 	C 	0.61840 0.39750 0.57700 0.07400
C 	C 	0.08760 0.43930 0.03450 0.25000
C 	C 	0.71340 0.23220 0.85840 0.40300
C 	C 	0.86750 0.10500 0.93190 -0.09000
C 	C 	0.80950 0.97060 0.98460 0.07900
C 	C 	0.04930 0.61640 0.56020 0.35200
C 	C 	0.29030 0.55620 0.52700 -0.06800
C 	C 	0.38160 0.60250 0.42300 0.07400
C 	C 	0.91240 0.56070 0.96550 0.25000
N 	N 	0.93950 0.86440 0.05420 -0.18200
N 	N 	0.59390 0.54700 0.39360 -0.18700
N 	N 	0.06050 0.13560 0.94580 -0.18200
N 	N 	0.40610 0.45300 0.60640 -0.18700
O 	O 	0.21440 0.65020 0.18430 -0.46400
O 	O 	0.47850 0.78430 0.15090 -0.46900
O 	O 	0.01420 0.43030 0.34260 -0.43300
O 	O 	0.06820 0.29040 0.51020 -0.27200
O 	O 	0.08440 0.42930 0.13010 -0.37900
O 	O 	0.22350 0.36250 0.98670 -0.39800
O 	O 	0.78560 0.34980 0.81570 -0.46400
O 	O 	0.52150 0.21570 0.84910 -0.46900
O 	O 	0.98580 0.56970 0.65740 -0.43300
O 	O 	0.93180 0.70960 0.48980 -0.27200
O 	O 	0.91560 0.57070 0.86990 -0.37900
O 	O 	0.77650 0.63750 0.01330 -0.39800
