data_crystal

_cell_length_a 6.09220
_cell_length_b 9.96330
_cell_length_c 13.35980
_cell_angle_alpha 68.85300
_cell_angle_beta  81.10400
_cell_angle_gamma 76.84800

_symmetry_space_group_name_	'P 1'
_symmetry_space_group_name_H-M	'P 1'

loop_
_symmetry_equiv_pos_as_xyz
  x,y,z

loop_
_atom_site_label
_atom_site_type_symbol
_atom_site_fract_x
_atom_site_fract_y
_atom_site_fract_z
_atom_site_charge
Gd	Gd	0.83214 0.61429 0.19572 1.44400
Gd	Gd	0.16786 0.38571 0.80429 1.44400
H 	H 	0.32690 0.04710 0.02810 0.02600
H 	H 	0.70400 0.32480 0.62970 0.01700
H 	H 	0.67310 0.95290 0.97190 0.02600
H 	H 	0.29600 0.67520 0.37030 0.01700
C 	C 	0.28830 0.76610 0.14100 0.37700
C 	C 	0.13400 0.89340 0.06870 -0.07000
C 	C 	0.19210 0.02980 0.01520 0.06700
C 	C 	0.95070 0.38260 0.43950 0.33500
C 	C 	0.71010 0.44410 0.47280 -0.04900
C 	C 	0.61720 0.39760 0.57760 0.06600
C 	C 	0.08880 0.43990 0.03450 0.24300
C 	C 	0.71170 0.23390 0.85900 0.37700
C 	C 	0.86600 0.10660 0.93130 -0.07000
C 	C 	0.80790 0.97020 0.98480 0.06700
C 	C 	0.04930 0.61740 0.56050 0.33500
C 	C 	0.28990 0.55590 0.52720 -0.04900
C 	C 	0.38280 0.60240 0.42240 0.06600
C 	C 	0.91120 0.56010 0.96550 0.24300
N 	N 	0.94010 0.86370 0.05420 -0.15900
N 	N 	0.59340 0.54650 0.39330 -0.16400
N 	N 	0.05990 0.13630 0.94580 -0.15900
N 	N 	0.40660 0.45350 0.60670 -0.16400
O 	O 	0.21420 0.64930 0.18370 -0.40600
O 	O 	0.47990 0.78340 0.15140 -0.41400
O 	O 	0.01420 0.43150 0.34180 -0.37800
O 	O 	0.06910 0.29060 0.51020 -0.25500
O 	O 	0.08470 0.42950 0.13030 -0.33100
O 	O 	0.22300 0.36120 0.98730 -0.34900
O 	O 	0.78580 0.35070 0.81630 -0.40600
O 	O 	0.52010 0.21660 0.84860 -0.41400
O 	O 	0.98580 0.56850 0.65820 -0.37800
O 	O 	0.93090 0.70940 0.48980 -0.25500
O 	O 	0.91530 0.57050 0.86970 -0.33100
O 	O 	0.77700 0.63880 0.01270 -0.34900
