data_crystal

_cell_length_a 6.05350
_cell_length_b 9.91590
_cell_length_c 13.29030
_cell_angle_alpha 68.83200
_cell_angle_beta  81.27300
_cell_angle_gamma 76.87500

_symmetry_space_group_name_	'P 1'
_symmetry_space_group_name_H-M	'P 1'

loop_
_symmetry_equiv_pos_as_xyz
  x,y,z

loop_
_atom_site_label
_atom_site_type_symbol
_atom_site_fract_x
_atom_site_fract_y
_atom_site_fract_z
_atom_site_charge
Dy	Dy	0.83464 0.61382 0.19511 1.63800
Dy	Dy	0.16536 0.38618 0.80489 1.63800
H 	H 	0.32660 0.04760 0.02920 0.01700
H 	H 	0.70550 0.32140 0.62860 0.00900
H 	H 	0.67340 0.95240 0.97080 0.01700
H 	H 	0.29450 0.67860 0.37140 0.00900
C 	C 	0.28940 0.76470 0.14170 0.40000
C 	C 	0.13660 0.89290 0.06960 -0.09100
C 	C 	0.19160 0.02960 0.01580 0.08400
C 	C 	0.95080 0.38170 0.43870 0.34500
C 	C 	0.71080 0.44480 0.47190 -0.06000
C 	C 	0.61820 0.39600 0.57690 0.07300
C 	C 	0.08920 0.43900 0.03430 0.24800
C 	C 	0.71060 0.23530 0.85830 0.40000
C 	C 	0.86340 0.10710 0.93040 -0.09100
C 	C 	0.80840 0.97040 0.98420 0.08400
C 	C 	0.04920 0.61830 0.56130 0.34500
C 	C 	0.28920 0.55520 0.52810 -0.06000
C 	C 	0.38180 0.60400 0.42310 0.07300
C 	C 	0.91080 0.56100 0.96570 0.24800
N 	N 	0.93890 0.86390 0.05390 -0.17400
N 	N 	0.59300 0.54790 0.39300 -0.17500
N 	N 	0.06110 0.13610 0.94610 -0.17400
N 	N 	0.40700 0.45210 0.60700 -0.17500
O 	O 	0.21620 0.64690 0.18400 -0.44400
O 	O 	0.48340 0.78110 0.15250 -0.45200
O 	O 	0.01560 0.43250 0.34060 -0.41400
O 	O 	0.07180 0.28940 0.50930 -0.26300
O 	O 	0.08430 0.42930 0.13080 -0.36100
O 	O 	0.22570 0.36120 0.98680 -0.38000
O 	O 	0.78380 0.35310 0.81600 -0.44400
O 	O 	0.51660 0.21890 0.84750 -0.45200
O 	O 	0.98440 0.56750 0.65940 -0.41400
O 	O 	0.92820 0.71060 0.49070 -0.26300
O 	O 	0.91570 0.57070 0.86920 -0.36100
O 	O 	0.77430 0.63880 0.01320 -0.38000
