data_crystal

_cell_length_a 48.83200
_cell_length_b 48.83200
_cell_length_c 8.48340
_cell_angle_alpha 90.00000
_cell_angle_beta  90.00000
_cell_angle_gamma 120.00000

_symmetry_space_group_name_	'P 1'
_symmetry_space_group_name_H-M	'P 1'

loop_
_symmetry_equiv_pos_as_xyz
  x,y,z

loop_
_atom_site_label
_atom_site_type_symbol
_atom_site_fract_x
_atom_site_fract_y
_atom_site_fract_z
_atom_site_charge
K 	K 	0.40824 0.91404 0.23740 0.65500
Sm	Sm	0.48613 0.99175 0.54866 2.05300
S 	S 	0.42463 0.90999 0.60525 0.54400
S 	S 	0.24365 0.91847 0.76822 0.55400
O 	O 	0.46616 0.97207 0.81030 -0.58500
O 	O 	0.44750 0.95655 0.04850 -0.50000
O 	O 	0.44462 0.93776 0.50690 -0.48500
O 	O 	0.40400 0.88309 0.50630 -0.32900
O 	O 	0.44237 0.90400 0.72070 -0.32300
O 	O 	0.21221 0.85286 0.38230 -0.47300
O 	O 	0.19361 0.85085 0.62020 -0.61600
O 	O 	0.22789 0.92322 0.63710 -0.33300
O 	O 	0.22163 0.89550 0.88290 -0.48500
O 	O 	0.26755 0.94725 0.84410 -0.26400
C 	C 	0.40965 0.93963 0.84270 -0.10600
C 	C 	0.39915 0.91960 0.71330 -0.05000
C 	C 	0.36812 0.90654 0.66330 -0.04600
H 	H 	0.36160 0.89410 0.57300 0.04100
C 	C 	0.34626 0.91187 0.74710 0.01900
C 	C 	0.35665 0.92992 0.87940 -0.08500
H 	H 	0.34250 0.93290 0.93960 0.06400
C 	C 	0.38797 0.94392 0.92640 0.00200
H 	H 	0.39450 0.95650 0.01640 0.03500
C 	C 	0.44287 0.95660 0.90510 0.41700
C 	C 	0.31322 0.89841 0.68870 0.04100
C 	C 	0.29868 0.87241 0.59180 -0.11500
H 	H 	0.30970 0.86220 0.56220 0.06200
C 	C 	0.26836 0.86107 0.53740 0.03600
H 	H 	0.26000 0.84460 0.46460 0.00600
C 	C 	0.25019 0.87352 0.58850 -0.12100
C 	C 	0.26358 0.89911 0.68910 -0.03800
C 	C 	0.29555 0.91227 0.73460 -0.07200
H 	H 	0.30490 0.93050 0.79610 0.07600
C 	C 	0.21660 0.85863 0.52770 0.40500
K 	K 	0.07491 0.24737 0.57073 0.65600
Sm	Sm	0.15280 0.32508 0.88199 2.05900
S 	S 	0.09130 0.24332 0.93858 0.54900
S 	S 	0.91032 0.25180 0.10155 0.54800
O 	O 	0.13283 0.30540 0.14363 -0.58300
O 	O 	0.11417 0.28988 0.38183 -0.49900
O 	O 	0.11129 0.27109 0.84023 -0.48600
O 	O 	0.07067 0.21642 0.83963 -0.32900
O 	O 	0.10904 0.23733 0.05403 -0.32400
O 	O 	0.87888 0.18619 0.71563 -0.47200
O 	O 	0.86028 0.18418 0.95353 -0.61200
O 	O 	0.89456 0.25655 0.97043 -0.32700
O 	O 	0.88830 0.22883 0.21623 -0.48400
O 	O 	0.93422 0.28058 0.17743 -0.26200
C 	C 	0.07632 0.27296 0.17603 -0.10200
C 	C 	0.06582 0.25293 0.04663 -0.05700
C 	C 	0.03479 0.23987 0.99663 -0.03700
H 	H 	0.02827 0.22743 0.90633 0.03700
C 	C 	0.01293 0.24520 0.08043 0.01100
C 	C 	0.02332 0.26325 0.21273 -0.08000
H 	H 	0.00917 0.26623 0.27293 0.06200
C 	C 	0.05464 0.27725 0.25973 -0.00300
H 	H 	0.06117 0.28983 0.34973 0.03700
C 	C 	0.10954 0.28993 0.23843 0.41700
C 	C 	0.97989 0.23174 0.02203 0.03900
C 	C 	0.96535 0.20574 0.92513 -0.10700
H 	H 	0.97637 0.19553 0.89553 0.06100
C 	C 	0.93503 0.19440 0.87073 0.03100
H 	H 	0.92667 0.17793 0.79793 0.00900
C 	C 	0.91686 0.20685 0.92183 -0.11200
C 	C 	0.93025 0.23244 0.02243 -0.04500
C 	C 	0.96222 0.24560 0.06793 -0.06900
H 	H 	0.97157 0.26383 0.12943 0.07700
C 	C 	0.88327 0.19196 0.86103 0.40200
K 	K 	0.74157 0.58071 0.90407 0.65700
Sm	Sm	0.81946 0.65842 0.21533 2.05300
S 	S 	0.75796 0.57666 0.27192 0.54500
S 	S 	0.57698 0.58514 0.43489 0.55400
O 	O 	0.79949 0.63874 0.47697 -0.58400
O 	O 	0.78083 0.62322 0.71517 -0.49900
O 	O 	0.77795 0.60443 0.17357 -0.48700
O 	O 	0.73733 0.54976 0.17297 -0.33100
O 	O 	0.77570 0.57067 0.38737 -0.32300
O 	O 	0.54554 0.51953 0.04897 -0.47400
O 	O 	0.52694 0.51752 0.28687 -0.61700
O 	O 	0.56122 0.58989 0.30377 -0.33300
O 	O 	0.55496 0.56217 0.54957 -0.48500
O 	O 	0.60088 0.61392 0.51077 -0.26300
C 	C 	0.74298 0.60630 0.50937 -0.10500
C 	C 	0.73248 0.58627 0.37997 -0.05100
C 	C 	0.70145 0.57321 0.32997 -0.04500
H 	H 	0.69493 0.56077 0.23967 0.04000
C 	C 	0.67959 0.57854 0.41377 0.01900
C 	C 	0.68998 0.59659 0.54607 -0.08500
H 	H 	0.67583 0.59957 0.60627 0.06500
C 	C 	0.72130 0.61059 0.59307 0.00200
H 	H 	0.72783 0.62317 0.68307 0.03600
C 	C 	0.77620 0.62327 0.57177 0.41800
C 	C 	0.64655 0.56508 0.35537 0.04100
C 	C 	0.63201 0.53908 0.25847 -0.11600
H 	H 	0.64303 0.52887 0.22887 0.06100
C 	C 	0.60169 0.52774 0.20407 0.03600
H 	H 	0.59333 0.51127 0.13127 0.00500
C 	C 	0.58352 0.54019 0.25517 -0.12200
C 	C 	0.59691 0.56578 0.35577 -0.03800
C 	C 	0.62888 0.57894 0.40127 -0.07200
H 	H 	0.63823 0.59717 0.46277 0.07700
C 	C 	0.54993 0.52530 0.19437 0.40500
K 	K 	0.08596 0.49420 0.23740 0.65600
Sm	Sm	0.00825 0.49438 0.54866 2.05400
S 	S 	0.09001 0.51464 0.60525 0.54500
S 	S 	0.08153 0.32518 0.76822 0.55400
O 	O 	0.02793 0.49409 0.81030 -0.58400
O 	O 	0.04345 0.49095 0.04850 -0.49900
O 	O 	0.06224 0.50686 0.50690 -0.48400
O 	O 	0.11691 0.52091 0.50630 -0.32800
O 	O 	0.09600 0.53837 0.72070 -0.32300
O 	O 	0.14714 0.35935 0.38230 -0.47300
O 	O 	0.14915 0.34276 0.62020 -0.61600
O 	O 	0.07678 0.30467 0.63710 -0.33300
O 	O 	0.10450 0.32613 0.88290 -0.48500
O 	O 	0.05275 0.32030 0.84410 -0.26400
C 	C 	0.06037 0.47002 0.84270 -0.10600
C 	C 	0.08040 0.47955 0.71330 -0.05000
C 	C 	0.09346 0.46158 0.66330 -0.04600
H 	H 	0.10590 0.46750 0.57300 0.04100
C 	C 	0.08813 0.43439 0.74710 0.01900
C 	C 	0.07008 0.42673 0.87940 -0.08500
H 	H 	0.06710 0.40960 0.93960 0.06400
C 	C 	0.05608 0.44405 0.92640 0.00200
H 	H 	0.04350 0.43800 0.01640 0.03500
C 	C 	0.04340 0.48627 0.90510 0.41700
C 	C 	0.10159 0.41481 0.68870 0.04100
C 	C 	0.12759 0.42627 0.59180 -0.11500
H 	H 	0.13780 0.44750 0.56220 0.06200
C 	C 	0.13893 0.40729 0.53740 0.03600
H 	H 	0.15540 0.41540 0.46460 0.00600
C 	C 	0.12648 0.37667 0.58850 -0.12100
C 	C 	0.10089 0.36447 0.68910 -0.03800
C 	C 	0.08773 0.38328 0.73460 -0.07200
H 	H 	0.06950 0.37440 0.79610 0.07600
C 	C 	0.14137 0.35797 0.52770 0.40500
K 	K 	0.75263 0.82753 0.57073 0.65600
Sm	Sm	0.67492 0.82771 0.88199 2.05900
S 	S 	0.75668 0.84797 0.93858 0.54800
S 	S 	0.74820 0.65851 0.10155 0.54900
O 	O 	0.69460 0.82742 0.14363 -0.58400
O 	O 	0.71012 0.82428 0.38183 -0.49900
O 	O 	0.72891 0.84019 0.84023 -0.48500
O 	O 	0.78358 0.85424 0.83963 -0.32900
O 	O 	0.76267 0.87170 0.05403 -0.32300
O 	O 	0.81381 0.69268 0.71563 -0.47200
O 	O 	0.81582 0.67609 0.95353 -0.61200
O 	O 	0.74345 0.63800 0.97043 -0.32700
O 	O 	0.77117 0.65946 0.21623 -0.48400
O 	O 	0.71942 0.65363 0.17743 -0.26300
C 	C 	0.72704 0.80335 0.17603 -0.10400
C 	C 	0.74707 0.81288 0.04663 -0.05400
C 	C 	0.76013 0.79491 0.99663 -0.04100
H 	H 	0.77257 0.80083 0.90633 0.04000
C 	C 	0.75480 0.76772 0.08043 0.01900
C 	C 	0.73675 0.76006 0.21273 -0.08400
H 	H 	0.73377 0.74293 0.27293 0.06500
C 	C 	0.72275 0.77738 0.25973 0.00100
H 	H 	0.71017 0.77133 0.34973 0.03600
C 	C 	0.71007 0.81960 0.23843 0.41800
C 	C 	0.76826 0.74814 0.02203 0.03200
C 	C 	0.79426 0.75960 0.92513 -0.10300
H 	H 	0.80447 0.78083 0.89553 0.05800
C 	C 	0.80560 0.74062 0.87073 0.02700
H 	H 	0.82207 0.74873 0.79793 0.00900
C 	C 	0.79315 0.71000 0.92183 -0.11000
C 	C 	0.76756 0.69780 0.02243 -0.04700
C 	C 	0.75440 0.71661 0.06793 -0.06500
H 	H 	0.73617 0.70773 0.12943 0.07400
C 	C 	0.80804 0.69130 0.86103 0.40200
K 	K 	0.41929 0.16087 0.90407 0.65700
Sm	Sm	0.34158 0.16105 0.21533 2.05300
S 	S 	0.42334 0.18131 0.27192 0.54500
S 	S 	0.41486 0.99185 0.43489 0.55000
O 	O 	0.36126 0.16076 0.47697 -0.58400
O 	O 	0.37678 0.15762 0.71517 -0.49900
O 	O 	0.39557 0.17353 0.17357 -0.48700
O 	O 	0.45024 0.18758 0.17297 -0.33100
O 	O 	0.42933 0.20504 0.38737 -0.32300
O 	O 	0.48047 0.02602 0.04897 -0.47200
O 	O 	0.48248 0.00943 0.28687 -0.61300
O 	O 	0.41011 0.97134 0.30377 -0.33300
O 	O 	0.43783 0.99280 0.54957 -0.48400
O 	O 	0.38608 0.98697 0.51077 -0.26400
C 	C 	0.39370 0.13669 0.50937 -0.10500
C 	C 	0.41373 0.14622 0.37997 -0.05100
C 	C 	0.42679 0.12825 0.32997 -0.04500
H 	H 	0.43923 0.13417 0.23967 0.04000
C 	C 	0.42146 0.10106 0.41377 0.01900
C 	C 	0.40341 0.09340 0.54607 -0.08400
H 	H 	0.40043 0.07627 0.60627 0.06500
C 	C 	0.38941 0.11072 0.59307 0.00200
H 	H 	0.37683 0.10467 0.68307 0.03600
C 	C 	0.37673 0.15294 0.57177 0.41800
C 	C 	0.43492 0.08148 0.35537 0.04200
C 	C 	0.46092 0.09294 0.25847 -0.11600
H 	H 	0.47113 0.11417 0.22887 0.06200
C 	C 	0.47226 0.07396 0.20407 0.03700
H 	H 	0.48873 0.08207 0.13127 0.00500
C 	C 	0.45981 0.04334 0.25517 -0.12300
C 	C 	0.43422 0.03114 0.35577 -0.03400
C 	C 	0.42106 0.04995 0.40127 -0.07400
H 	H 	0.40283 0.04107 0.46277 0.07800
C 	C 	0.47470 0.02464 0.19437 0.40500
K 	K 	0.50580 0.59176 0.23740 0.65600
Sm	Sm	0.50562 0.51387 0.54866 2.06200
S 	S 	0.48536 0.57537 0.60525 0.54500
S 	S 	0.67482 0.75635 0.76822 0.55400
O 	O 	0.50591 0.53384 0.81030 -0.58400
O 	O 	0.50905 0.55250 0.04850 -0.49900
O 	O 	0.49314 0.55538 0.50690 -0.48500
O 	O 	0.47909 0.59600 0.50630 -0.32900
O 	O 	0.46163 0.55763 0.72070 -0.32300
O 	O 	0.64065 0.78779 0.38230 -0.47300
O 	O 	0.65724 0.80639 0.62020 -0.61600
O 	O 	0.69533 0.77211 0.63710 -0.33300
O 	O 	0.67387 0.77837 0.88290 -0.48500
O 	O 	0.67970 0.73245 0.84410 -0.26300
C 	C 	0.52998 0.59035 0.84270 -0.10600
C 	C 	0.52045 0.60085 0.71330 -0.05100
C 	C 	0.53842 0.63188 0.66330 -0.04600
H 	H 	0.53250 0.63840 0.57300 0.04100
C 	C 	0.56561 0.65374 0.74710 0.01900
C 	C 	0.57327 0.64335 0.87940 -0.08500
H 	H 	0.59040 0.65750 0.93960 0.06400
C 	C 	0.55595 0.61203 0.92640 0.00200
H 	H 	0.56200 0.60550 0.01640 0.03600
C 	C 	0.51373 0.55713 0.90510 0.41800
C 	C 	0.58519 0.68678 0.68870 0.04100
C 	C 	0.57373 0.70132 0.59180 -0.11500
H 	H 	0.55250 0.69030 0.56220 0.06200
C 	C 	0.59271 0.73164 0.53740 0.03600
H 	H 	0.58460 0.74000 0.46460 0.00600
C 	C 	0.62333 0.74981 0.58850 -0.12200
C 	C 	0.63553 0.73642 0.68910 -0.03800
C 	C 	0.61672 0.70445 0.73460 -0.07200
H 	H 	0.62560 0.69510 0.79610 0.07700
C 	C 	0.64203 0.78340 0.52770 0.40500
K 	K 	0.17247 0.92509 0.57073 0.65600
Sm	Sm	0.17229 0.84720 0.88199 2.05900
S 	S 	0.15203 0.90870 0.93858 0.54900
S 	S 	0.34149 0.08968 0.10155 0.54800
O 	O 	0.17258 0.86717 0.14363 -0.58300
O 	O 	0.17572 0.88583 0.38183 -0.49900
O 	O 	0.15981 0.88871 0.84023 -0.48600
O 	O 	0.14576 0.92933 0.83963 -0.32900
O 	O 	0.12830 0.89096 0.05403 -0.32400
O 	O 	0.30732 0.12112 0.71563 -0.47200
O 	O 	0.32391 0.13972 0.95353 -0.61200
O 	O 	0.36200 0.10544 0.97043 -0.32700
O 	O 	0.34054 0.11170 0.21623 -0.48300
O 	O 	0.34637 0.06578 0.17743 -0.26200
C 	C 	0.19665 0.92368 0.17603 -0.10200
C 	C 	0.18712 0.93418 0.04663 -0.05700
C 	C 	0.20509 0.96521 0.99663 -0.03700
H 	H 	0.19917 0.97173 0.90633 0.03700
C 	C 	0.23228 0.98707 0.08043 0.01100
C 	C 	0.23994 0.97668 0.21273 -0.08000
H 	H 	0.25707 0.99083 0.27293 0.06200
C 	C 	0.22262 0.94536 0.25973 -0.00300
H 	H 	0.22867 0.93883 0.34973 0.03700
C 	C 	0.18040 0.89046 0.23843 0.41700
C 	C 	0.25186 0.02011 0.02203 0.03900
C 	C 	0.24040 0.03465 0.92513 -0.10700
H 	H 	0.21917 0.02363 0.89553 0.06100
C 	C 	0.25938 0.06497 0.87073 0.03100
H 	H 	0.25127 0.07333 0.79793 0.00800
C 	C 	0.29000 0.08314 0.92183 -0.11200
C 	C 	0.30220 0.06975 0.02243 -0.04500
C 	C 	0.28339 0.03778 0.06793 -0.06900
H 	H 	0.29227 0.02843 0.12943 0.07700
C 	C 	0.30870 0.11673 0.86103 0.40200
K 	K 	0.83913 0.25843 0.90407 0.65700
Sm	Sm	0.83895 0.18054 0.21533 2.05300
S 	S 	0.81869 0.24204 0.27192 0.54500
S 	S 	0.00815 0.42302 0.43489 0.55100
O 	O 	0.83924 0.20051 0.47697 -0.58400
O 	O 	0.84238 0.21917 0.71517 -0.49900
O 	O 	0.82647 0.22205 0.17357 -0.48700
O 	O 	0.81242 0.26267 0.17297 -0.33100
O 	O 	0.79496 0.22430 0.38737 -0.32300
O 	O 	0.97398 0.45446 0.04897 -0.47200
O 	O 	0.99057 0.47306 0.28687 -0.61300
O 	O 	0.02866 0.43878 0.30377 -0.33300
O 	O 	0.00720 0.44504 0.54957 -0.48400
O 	O 	0.01303 0.39912 0.51077 -0.26400
C 	C 	0.86331 0.25702 0.50937 -0.10500
C 	C 	0.85378 0.26752 0.37997 -0.05100
C 	C 	0.87175 0.29855 0.32997 -0.04500
H 	H 	0.86583 0.30507 0.23967 0.04000
C 	C 	0.89894 0.32041 0.41377 0.01900
C 	C 	0.90660 0.31002 0.54607 -0.08400
H 	H 	0.92373 0.32417 0.60627 0.06500
C 	C 	0.88928 0.27870 0.59307 0.00200
H 	H 	0.89533 0.27217 0.68307 0.03600
C 	C 	0.84706 0.22380 0.57177 0.41800
C 	C 	0.91852 0.35345 0.35537 0.04200
C 	C 	0.90706 0.36799 0.25847 -0.11600
H 	H 	0.88583 0.35697 0.22887 0.06200
C 	C 	0.92604 0.39831 0.20407 0.03700
H 	H 	0.91793 0.40667 0.13127 0.00500
C 	C 	0.95666 0.41648 0.25517 -0.12300
C 	C 	0.96886 0.40309 0.35577 -0.03400
C 	C 	0.95005 0.37112 0.40127 -0.07400
H 	H 	0.95893 0.36177 0.46277 0.07800
C 	C 	0.97536 0.45007 0.19437 0.40500
K 	K 	0.08596 0.59176 0.73740 0.65600
Sm	Sm	0.00825 0.51387 0.04866 2.05200
S 	S 	0.09001 0.57537 0.10525 0.54500
S 	S 	0.08153 0.75635 0.26822 0.55400
O 	O 	0.02793 0.53384 0.31030 -0.58400
O 	O 	0.04345 0.55250 0.54850 -0.50000
O 	O 	0.06224 0.55538 0.00690 -0.48400
O 	O 	0.11691 0.59600 0.00630 -0.32700
O 	O 	0.09600 0.55763 0.22070 -0.32200
O 	O 	0.14714 0.78779 0.88230 -0.47600
O 	O 	0.14915 0.80639 0.12020 -0.61700
O 	O 	0.07678 0.77211 0.13710 -0.33300
O 	O 	0.10450 0.77837 0.38290 -0.48500
O 	O 	0.05275 0.73245 0.34410 -0.26400
C 	C 	0.06037 0.59035 0.34270 -0.10600
C 	C 	0.08040 0.60085 0.21330 -0.05000
C 	C 	0.09346 0.63188 0.16330 -0.04500
H 	H 	0.10590 0.63840 0.07300 0.04100
C 	C 	0.08813 0.65374 0.24710 0.01800
C 	C 	0.07008 0.64335 0.37940 -0.08400
H 	H 	0.06710 0.65750 0.43960 0.06400
C 	C 	0.05608 0.61203 0.42640 0.00200
H 	H 	0.04350 0.60550 0.51640 0.03500
C 	C 	0.04340 0.55713 0.40510 0.41800
C 	C 	0.10159 0.68678 0.18870 0.04500
C 	C 	0.12759 0.70132 0.09180 -0.12300
H 	H 	0.13780 0.69030 0.06220 0.06600
C 	C 	0.13893 0.73164 0.03740 0.05000
H 	H 	0.15540 0.74000 0.96460 -0.00100
C 	C 	0.12648 0.74981 0.08850 -0.12800
C 	C 	0.10089 0.73642 0.18910 -0.03500
C 	C 	0.08773 0.70445 0.23460 -0.07500
H 	H 	0.06950 0.69510 0.29610 0.07700
C 	C 	0.14137 0.78340 0.02770 0.41100
K 	K 	0.75263 0.92509 0.07073 0.65600
Sm	Sm	0.67492 0.84720 0.38199 2.06200
S 	S 	0.75668 0.90870 0.43858 0.54600
S 	S 	0.74820 0.08968 0.60155 0.55300
O 	O 	0.69460 0.86717 0.64363 -0.58400
O 	O 	0.71012 0.88583 0.88183 -0.49900
O 	O 	0.72891 0.88871 0.34023 -0.48500
O 	O 	0.78358 0.92933 0.33963 -0.32900
O 	O 	0.76267 0.89096 0.55403 -0.32200
O 	O 	0.81381 0.12112 0.21563 -0.47400
O 	O 	0.81582 0.13972 0.45353 -0.61600
O 	O 	0.74345 0.10544 0.47043 -0.33300
O 	O 	0.77117 0.11170 0.71623 -0.48400
O 	O 	0.71942 0.06578 0.67743 -0.26200
C 	C 	0.72704 0.92368 0.67603 -0.10400
C 	C 	0.74707 0.93418 0.54663 -0.05200
C 	C 	0.76013 0.96521 0.49663 -0.04200
H 	H 	0.77257 0.97173 0.40633 0.03800
C 	C 	0.75480 0.98707 0.58043 0.01200
C 	C 	0.73675 0.97668 0.71273 -0.08000
H 	H 	0.73377 0.99083 0.77293 0.06200
C 	C 	0.72275 0.94536 0.75973 -0.00100
H 	H 	0.71017 0.93883 0.84973 0.03600
C 	C 	0.71007 0.89046 0.73843 0.41800
C 	C 	0.76826 0.02011 0.52203 0.04900
C 	C 	0.79426 0.03465 0.42513 -0.12000
H 	H 	0.80447 0.02363 0.39553 0.06500
C 	C 	0.80560 0.06497 0.37073 0.04000
H 	H 	0.82207 0.07333 0.29793 0.00400
C 	C 	0.79315 0.08314 0.42183 -0.12400
C 	C 	0.76756 0.06975 0.52243 -0.03500
C 	C 	0.75440 0.03778 0.56793 -0.07600
H 	H 	0.73617 0.02843 0.62943 0.07900
C 	C 	0.80804 0.11673 0.36103 0.40600
K 	K 	0.41929 0.25843 0.40407 0.65600
Sm	Sm	0.34158 0.18054 0.71533 2.06200
S 	S 	0.42334 0.24204 0.77192 0.54100
S 	S 	0.41486 0.42302 0.93489 0.55700
O 	O 	0.36126 0.20051 0.97697 -0.57800
O 	O 	0.37678 0.21917 0.21517 -0.49900
O 	O 	0.39557 0.22205 0.67357 -0.48400
O 	O 	0.45024 0.26267 0.67297 -0.32700
O 	O 	0.42933 0.22430 0.88737 -0.31800
O 	O 	0.48047 0.45446 0.54897 -0.47300
O 	O 	0.48248 0.47306 0.78687 -0.61600
O 	O 	0.41011 0.43878 0.80377 -0.33400
O 	O 	0.43783 0.44504 0.04957 -0.48600
O 	O 	0.38608 0.39912 0.01077 -0.26500
C 	C 	0.39370 0.25702 0.00937 -0.12000
C 	C 	0.41373 0.26752 0.87997 -0.03700
C 	C 	0.42679 0.29855 0.82997 -0.05700
H 	H 	0.43923 0.30507 0.73967 0.04400
C 	C 	0.42146 0.32041 0.91377 0.03500
C 	C 	0.40341 0.31002 0.04607 -0.10400
H 	H 	0.40043 0.32417 0.10627 0.07000
C 	C 	0.38941 0.27870 0.09307 0.01500
H 	H 	0.37683 0.27217 0.18307 0.03000
C 	C 	0.37673 0.22380 0.07177 0.41500
C 	C 	0.43492 0.35345 0.85537 0.03400
C 	C 	0.46092 0.36799 0.75847 -0.11000
H 	H 	0.47113 0.35697 0.72887 0.06000
C 	C 	0.47226 0.39831 0.70407 0.03300
H 	H 	0.48873 0.40667 0.63127 0.00700
C 	C 	0.45981 0.41648 0.75517 -0.11900
C 	C 	0.43422 0.40309 0.85577 -0.04000
C 	C 	0.42106 0.37112 0.90127 -0.06700
H 	H 	0.40283 0.36177 0.96277 0.07600
C 	C 	0.47470 0.45007 0.69437 0.40500
K 	K 	0.50580 0.91404 0.73740 0.65600
Sm	Sm	0.50562 0.99175 0.04866 2.05200
S 	S 	0.48536 0.90999 0.10525 0.54500
S 	S 	0.67482 0.91847 0.26822 0.55400
O 	O 	0.50591 0.97207 0.31030 -0.58400
O 	O 	0.50905 0.95655 0.54850 -0.50000
O 	O 	0.49314 0.93776 0.00690 -0.48400
O 	O 	0.47909 0.88309 0.00630 -0.32700
O 	O 	0.46163 0.90400 0.22070 -0.32200
O 	O 	0.64065 0.85286 0.88230 -0.47600
O 	O 	0.65724 0.85085 0.12020 -0.61700
O 	O 	0.69533 0.92322 0.13710 -0.33300
O 	O 	0.67387 0.89550 0.38290 -0.48500
O 	O 	0.67970 0.94725 0.34410 -0.26400
C 	C 	0.52998 0.93963 0.34270 -0.10600
C 	C 	0.52045 0.91960 0.21330 -0.05000
C 	C 	0.53842 0.90654 0.16330 -0.04500
H 	H 	0.53250 0.89410 0.07300 0.04100
C 	C 	0.56561 0.91187 0.24710 0.01800
C 	C 	0.57327 0.92992 0.37940 -0.08400
H 	H 	0.59040 0.93290 0.43960 0.06400
C 	C 	0.55595 0.94392 0.42640 0.00200
H 	H 	0.56200 0.95650 0.51640 0.03500
C 	C 	0.51373 0.95660 0.40510 0.41800
C 	C 	0.58519 0.89841 0.18870 0.04500
C 	C 	0.57373 0.87241 0.09180 -0.12300
H 	H 	0.55250 0.86220 0.06220 0.06600
C 	C 	0.59271 0.86107 0.03740 0.05000
H 	H 	0.58460 0.84460 0.96460 -0.00100
C 	C 	0.62333 0.87352 0.08850 -0.12800
C 	C 	0.63553 0.89911 0.18910 -0.03500
C 	C 	0.61672 0.91227 0.23460 -0.07500
H 	H 	0.62560 0.93050 0.29610 0.07700
C 	C 	0.64203 0.85863 0.02770 0.41100
K 	K 	0.17247 0.24737 0.07073 0.65600
Sm	Sm	0.17229 0.32508 0.38199 2.06200
S 	S 	0.15203 0.24332 0.43858 0.54500
S 	S 	0.34149 0.25180 0.60155 0.55400
O 	O 	0.17258 0.30540 0.64363 -0.58400
O 	O 	0.17572 0.28988 0.88183 -0.50000
O 	O 	0.15981 0.27109 0.34023 -0.48500
O 	O 	0.14576 0.21642 0.33963 -0.32900
O 	O 	0.12830 0.23733 0.55403 -0.32200
O 	O 	0.30732 0.18619 0.21563 -0.47400
O 	O 	0.32391 0.18418 0.45353 -0.61600
O 	O 	0.36200 0.25655 0.47043 -0.33300
O 	O 	0.34054 0.22883 0.71623 -0.48400
O 	O 	0.34637 0.28058 0.67743 -0.26300
C 	C 	0.19665 0.27296 0.67603 -0.10600
C 	C 	0.18712 0.25293 0.54663 -0.05000
C 	C 	0.20509 0.23987 0.49663 -0.04600
H 	H 	0.19917 0.22743 0.40633 0.04100
C 	C 	0.23228 0.24520 0.58043 0.02000
C 	C 	0.23994 0.26325 0.71273 -0.08500
H 	H 	0.25707 0.26623 0.77293 0.06500
C 	C 	0.22262 0.27725 0.75973 0.00300
H 	H 	0.22867 0.28983 0.84973 0.03500
C 	C 	0.18040 0.28993 0.73843 0.41900
C 	C 	0.25186 0.23174 0.52203 0.04100
C 	C 	0.24040 0.20574 0.42513 -0.11600
H 	H 	0.21917 0.19553 0.39553 0.06200
C 	C 	0.25938 0.19440 0.37073 0.03700
H 	H 	0.25127 0.17793 0.29793 0.00500
C 	C 	0.29000 0.20685 0.42183 -0.12200
C 	C 	0.30220 0.23244 0.52243 -0.03700
C 	C 	0.28339 0.24560 0.56793 -0.07200
H 	H 	0.29227 0.26383 0.62943 0.07700
C 	C 	0.30870 0.19196 0.36103 0.40600
K 	K 	0.83913 0.58071 0.40407 0.65600
Sm	Sm	0.83895 0.65842 0.71533 2.06200
S 	S 	0.81869 0.57666 0.77192 0.54100
S 	S 	0.00815 0.58514 0.93489 0.55300
O 	O 	0.83924 0.63874 0.97697 -0.57800
O 	O 	0.84238 0.62322 0.21517 -0.49900
O 	O 	0.82647 0.60443 0.67357 -0.48400
O 	O 	0.81242 0.54976 0.67297 -0.32700
O 	O 	0.79496 0.57067 0.88737 -0.31800
O 	O 	0.97398 0.51953 0.54897 -0.47100
O 	O 	0.99057 0.51752 0.78687 -0.61200
O 	O 	0.02866 0.58989 0.80377 -0.33400
O 	O 	0.00720 0.56217 0.04957 -0.48500
O 	O 	0.01303 0.61392 0.01077 -0.26500
C 	C 	0.86331 0.60630 0.00937 -0.11900
C 	C 	0.85378 0.58627 0.87997 -0.03700
C 	C 	0.87175 0.57321 0.82997 -0.05600
H 	H 	0.86583 0.56077 0.73967 0.04400
C 	C 	0.89894 0.57854 0.91377 0.03500
C 	C 	0.90660 0.59659 0.04607 -0.10400
H 	H 	0.92373 0.59957 0.10627 0.07000
C 	C 	0.88928 0.61059 0.09307 0.01500
H 	H 	0.89533 0.62317 0.18307 0.03100
C 	C 	0.84706 0.62327 0.07177 0.41500
C 	C 	0.91852 0.56508 0.85537 0.03500
C 	C 	0.90706 0.53908 0.75847 -0.11100
H 	H 	0.88583 0.52887 0.72887 0.06000
C 	C 	0.92604 0.52774 0.70407 0.03400
H 	H 	0.91793 0.51127 0.63127 0.00700
C 	C 	0.95666 0.54019 0.75517 -0.12000
C 	C 	0.96886 0.56578 0.85577 -0.03600
C 	C 	0.95005 0.57894 0.90127 -0.06900
H 	H 	0.95893 0.59717 0.96277 0.07700
C 	C 	0.97536 0.52530 0.69437 0.40500
K 	K 	0.40824 0.49420 0.73740 0.65600
Sm	Sm	0.48613 0.49438 0.04866 2.06000
S 	S 	0.42463 0.51464 0.10525 0.54500
S 	S 	0.24365 0.32518 0.26822 0.55300
O 	O 	0.46616 0.49409 0.31030 -0.58400
O 	O 	0.44750 0.49095 0.54850 -0.50000
O 	O 	0.44462 0.50686 0.00690 -0.48400
O 	O 	0.40400 0.52091 0.00630 -0.32700
O 	O 	0.44237 0.53837 0.22070 -0.32200
O 	O 	0.21221 0.35935 0.88230 -0.47600
O 	O 	0.19361 0.34276 0.12020 -0.61700
O 	O 	0.22789 0.30467 0.13710 -0.33300
O 	O 	0.22163 0.32613 0.38290 -0.48500
O 	O 	0.26755 0.32030 0.34410 -0.26300
C 	C 	0.40965 0.47002 0.34270 -0.10600
C 	C 	0.39915 0.47955 0.21330 -0.05000
C 	C 	0.36812 0.46158 0.16330 -0.04500
H 	H 	0.36160 0.46750 0.07300 0.04100
C 	C 	0.34626 0.43439 0.24710 0.01800
C 	C 	0.35665 0.42673 0.37940 -0.08400
H 	H 	0.34250 0.40960 0.43960 0.06400
C 	C 	0.38797 0.44405 0.42640 0.00200
H 	H 	0.39450 0.43800 0.51640 0.03500
C 	C 	0.44287 0.48627 0.40510 0.41800
C 	C 	0.31322 0.41481 0.18870 0.04500
C 	C 	0.29868 0.42627 0.09180 -0.12300
H 	H 	0.30970 0.44750 0.06220 0.06600
C 	C 	0.26836 0.40729 0.03740 0.05000
H 	H 	0.26000 0.41540 0.96460 -0.00100
C 	C 	0.25019 0.37667 0.08850 -0.12800
C 	C 	0.26358 0.36447 0.18910 -0.03500
C 	C 	0.29555 0.38328 0.23460 -0.07500
H 	H 	0.30490 0.37440 0.29610 0.07800
C 	C 	0.21660 0.35797 0.02770 0.41100
K 	K 	0.07491 0.82753 0.07073 0.65600
Sm	Sm	0.15280 0.82771 0.38199 2.06200
S 	S 	0.09130 0.84797 0.43858 0.54600
S 	S 	0.91032 0.65851 0.60155 0.55300
O 	O 	0.13283 0.82742 0.64363 -0.58400
O 	O 	0.11417 0.82428 0.88183 -0.49900
O 	O 	0.11129 0.84019 0.34023 -0.48500
O 	O 	0.07067 0.85424 0.33963 -0.33000
O 	O 	0.10904 0.87170 0.55403 -0.32300
O 	O 	0.87888 0.69268 0.21563 -0.47400
O 	O 	0.86028 0.67609 0.45353 -0.61600
O 	O 	0.89456 0.63800 0.47043 -0.33300
O 	O 	0.88830 0.65946 0.71623 -0.48300
O 	O 	0.93422 0.65363 0.67743 -0.26200
C 	C 	0.07632 0.80335 0.67603 -0.10400
C 	C 	0.06582 0.81288 0.54663 -0.05200
C 	C 	0.03479 0.79491 0.49663 -0.04200
H 	H 	0.02827 0.80083 0.40633 0.03800
C 	C 	0.01293 0.76772 0.58043 0.01200
C 	C 	0.02332 0.76006 0.71273 -0.08000
H 	H 	0.00917 0.74293 0.77293 0.06200
C 	C 	0.05464 0.77738 0.75973 -0.00100
H 	H 	0.06117 0.77133 0.84973 0.03600
C 	C 	0.10954 0.81960 0.73843 0.41800
C 	C 	0.97989 0.74814 0.52203 0.04900
C 	C 	0.96535 0.75960 0.42513 -0.12000
H 	H 	0.97637 0.78083 0.39553 0.06500
C 	C 	0.93503 0.74062 0.37073 0.04000
H 	H 	0.92667 0.74873 0.29793 0.00400
C 	C 	0.91686 0.71000 0.42183 -0.12400
C 	C 	0.93025 0.69780 0.52243 -0.03500
C 	C 	0.96222 0.71661 0.56793 -0.07600
H 	H 	0.97157 0.70773 0.62943 0.07900
C 	C 	0.88327 0.69130 0.36103 0.40600
K 	K 	0.74157 0.16087 0.40407 0.65600
Sm	Sm	0.81946 0.16105 0.71533 2.06200
S 	S 	0.75796 0.18131 0.77192 0.54100
S 	S 	0.57698 0.99185 0.93489 0.55300
O 	O 	0.79949 0.16076 0.97697 -0.57800
O 	O 	0.78083 0.15762 0.21517 -0.49900
O 	O 	0.77795 0.17353 0.67357 -0.48400
O 	O 	0.73733 0.18758 0.67297 -0.32700
O 	O 	0.77570 0.20504 0.88737 -0.31800
O 	O 	0.54554 0.02602 0.54897 -0.47100
O 	O 	0.52694 0.00943 0.78687 -0.61200
O 	O 	0.56122 0.97134 0.80377 -0.33400
O 	O 	0.55496 0.99280 0.04957 -0.48600
O 	O 	0.60088 0.98697 0.01077 -0.26500
C 	C 	0.74298 0.13669 0.00937 -0.11900
C 	C 	0.73248 0.14622 0.87997 -0.03700
C 	C 	0.70145 0.12825 0.82997 -0.05600
H 	H 	0.69493 0.13417 0.73967 0.04400
C 	C 	0.67959 0.10106 0.91377 0.03500
C 	C 	0.68998 0.09340 0.04607 -0.10400
H 	H 	0.67583 0.07627 0.10627 0.07000
C 	C 	0.72130 0.11072 0.09307 0.01500
H 	H 	0.72783 0.10467 0.18307 0.03100
C 	C 	0.77620 0.15294 0.07177 0.41500
C 	C 	0.64655 0.08148 0.85537 0.03500
C 	C 	0.63201 0.09294 0.75847 -0.11100
H 	H 	0.64303 0.11417 0.72887 0.06000
C 	C 	0.60169 0.07396 0.70407 0.03400
H 	H 	0.59333 0.08207 0.63127 0.00700
C 	C 	0.58352 0.04334 0.75517 -0.12000
C 	C 	0.59691 0.03114 0.85577 -0.03600
C 	C 	0.62888 0.04995 0.90127 -0.06900
H 	H 	0.63823 0.04107 0.96277 0.07700
C 	C 	0.54993 0.02464 0.69437 0.40500
