data_crystal

_cell_length_a 48.88400
_cell_length_b 48.88400
_cell_length_c 8.56320
_cell_angle_alpha 90.00000
_cell_angle_beta  90.00000
_cell_angle_gamma 120.00000

_symmetry_space_group_name_	'P 1'
_symmetry_space_group_name_H-M	'P 1'

loop_
_symmetry_equiv_pos_as_xyz
  x,y,z

loop_
_atom_site_label
_atom_site_type_symbol
_atom_site_fract_x
_atom_site_fract_y
_atom_site_fract_z
_atom_site_charge
K 	K 	0.59219 0.08755 0.75900 0.65800
Pr	Pr	0.51478 0.00956 0.45095 2.06000
S 	S 	0.57690 0.09194 0.39234 0.49400
S 	S 	0.75601 0.08047 0.23701 0.53500
O 	O 	0.53509 0.02976 0.19060 -0.60000
O 	O 	0.55390 0.04554 0.95420 -0.49000
O 	O 	0.55723 0.06459 0.49260 -0.47300
O 	O 	0.59792 0.11928 0.49160 -0.30600
O 	O 	0.55890 0.09765 0.27850 -0.30600
O 	O 	0.78779 0.14602 0.62100 -0.46400
O 	O 	0.80636 0.14848 0.38380 -0.61000
O 	O 	0.77202 0.07590 0.36810 -0.31900
O 	O 	0.77761 0.10265 0.12210 -0.47300
O 	O 	0.73248 0.05192 0.16670 -0.25600
C 	C 	0.59147 0.06200 0.15740 -0.11100
C 	C 	0.60164 0.08104 0.28980 -0.03700
C 	C 	0.63274 0.09456 0.33850 -0.05100
H 	H 	0.63920 0.10740 0.42650 0.04600
C 	C 	0.65483 0.08929 0.25750 0.02900
C 	C 	0.64461 0.07140 0.12280 -0.09200
H 	H 	0.65890 0.06830 0.06470 0.07000
C 	C 	0.61331 0.05798 0.07150 0.02200
H 	H 	0.60710 0.04630 0.97950 0.02900
C 	C 	0.55809 0.04502 0.09930 0.40500
C 	C 	0.68770 0.10228 0.31250 0.03400
C 	C 	0.70185 0.12810 0.41250 -0.10600
H 	H 	0.69080 0.13800 0.44500 0.06000
C 	C 	0.73259 0.13914 0.46390 0.03100
H 	H 	0.74150 0.15600 0.53330 0.01100
C 	C 	0.75007 0.12618 0.41640 -0.11200
C 	C 	0.73595 0.09983 0.31260 -0.03900
C 	C 	0.70517 0.08814 0.26730 -0.06200
H 	H 	0.69560 0.07020 0.20440 0.07500
C 	C 	0.78321 0.14083 0.47820 0.36900
K 	K 	0.25886 0.42088 0.09233 0.65900
Pr	Pr	0.18145 0.34289 0.78428 2.05700
S 	S 	0.24357 0.42527 0.72567 0.49600
S 	S 	0.42268 0.41380 0.57034 0.53400
O 	O 	0.20176 0.36309 0.52393 -0.59900
O 	O 	0.22057 0.37887 0.28753 -0.48200
O 	O 	0.22390 0.39792 0.82593 -0.47900
O 	O 	0.26459 0.45261 0.82493 -0.31200
O 	O 	0.22557 0.43098 0.61183 -0.30900
O 	O 	0.45446 0.47935 0.95433 -0.46800
O 	O 	0.47303 0.48181 0.71713 -0.61200
O 	O 	0.43869 0.40923 0.70143 -0.32000
O 	O 	0.44428 0.43598 0.45543 -0.47500
O 	O 	0.39915 0.38525 0.50003 -0.25800
C 	C 	0.25814 0.39533 0.49073 -0.10100
C 	C 	0.26831 0.41437 0.62313 -0.04500
C 	C 	0.29941 0.42789 0.67183 -0.04500
H 	H 	0.30587 0.44073 0.75983 0.04200
C 	C 	0.32150 0.42262 0.59083 0.02000
C 	C 	0.31128 0.40473 0.45613 -0.07800
H 	H 	0.32557 0.40163 0.39803 0.06500
C 	C 	0.27998 0.39131 0.40483 0.00000
H 	H 	0.27377 0.37963 0.31283 0.04200
C 	C 	0.22476 0.37835 0.43263 0.39300
C 	C 	0.35437 0.43561 0.64583 0.03800
C 	C 	0.36852 0.46143 0.74583 -0.11000
H 	H 	0.35747 0.47133 0.77833 0.06000
C 	C 	0.39926 0.47247 0.79723 0.03300
H 	H 	0.40817 0.48933 0.86663 0.00900
C 	C 	0.41674 0.45951 0.74973 -0.11400
C 	C 	0.40262 0.43316 0.64593 -0.03800
C 	C 	0.37184 0.42147 0.60063 -0.06500
H 	H 	0.36227 0.40353 0.53773 0.07600
C 	C 	0.44988 0.47416 0.81153 0.37000
K 	K 	0.92552 0.75422 0.42567 0.65700
Pr	Pr	0.84811 0.67623 0.11762 2.06100
S 	S 	0.91023 0.75861 0.05901 0.51400
S 	S 	0.08934 0.74714 0.90368 0.52300
O 	O 	0.86842 0.69643 0.85727 -0.60000
O 	O 	0.88723 0.71221 0.62087 -0.48300
O 	O 	0.89056 0.73126 0.15927 -0.47700
O 	O 	0.93125 0.78595 0.15827 -0.30900
O 	O 	0.89223 0.76432 0.94517 -0.31700
O 	O 	0.12112 0.81269 0.28767 -0.46300
O 	O 	0.13969 0.81515 0.05047 -0.60500
O 	O 	0.10535 0.74257 0.03477 -0.30900
O 	O 	0.11094 0.76932 0.78877 -0.47600
O 	O 	0.06581 0.71859 0.83337 -0.25700
C 	C 	0.92480 0.72867 0.82407 -0.09000
C 	C 	0.93497 0.74771 0.95647 -0.06800
C 	C 	0.96607 0.76123 0.00517 -0.01600
H 	H 	0.97253 0.77407 0.09317 0.03400
C 	C 	0.98816 0.75596 0.92417 0.00100
C 	C 	0.97794 0.73807 0.78947 -0.06600
H 	H 	0.99223 0.73497 0.73137 0.05900
C 	C 	0.94664 0.72465 0.73817 -0.01300
H 	H 	0.94043 0.71297 0.64617 0.04500
C 	C 	0.89142 0.71169 0.76597 0.38900
C 	C 	0.02103 0.76895 0.97917 0.03000
C 	C 	0.03518 0.79477 0.07917 -0.09000
H 	H 	0.02413 0.80467 0.11167 0.05800
C 	C 	0.06592 0.80581 0.13057 0.02000
H 	H 	0.07483 0.82267 0.19997 0.01700
C 	C 	0.08340 0.79285 0.08307 -0.09500
C 	C 	0.06928 0.76650 0.97927 -0.05300
C 	C 	0.03850 0.75481 0.93397 -0.05800
H 	H 	0.02893 0.73687 0.87107 0.07400
C 	C 	0.11654 0.80750 0.14487 0.36400
K 	K 	0.91245 0.50464 0.75900 0.65700
Pr	Pr	0.99044 0.50522 0.45095 2.05900
S 	S 	0.90806 0.48496 0.39234 0.49300
S 	S 	0.91953 0.67554 0.23701 0.53400
O 	O 	0.97024 0.50533 0.19060 -0.60100
O 	O 	0.95446 0.50836 0.95420 -0.49100
O 	O 	0.93541 0.49264 0.49260 -0.47400
O 	O 	0.88072 0.47864 0.49160 -0.30700
O 	O 	0.90235 0.46125 0.27850 -0.30700
O 	O 	0.85398 0.64177 0.62100 -0.46500
O 	O 	0.85152 0.65788 0.38380 -0.61100
O 	O 	0.92410 0.69612 0.36810 -0.32000
O 	O 	0.89735 0.67496 0.12210 -0.47400
O 	O 	0.94808 0.68056 0.16670 -0.25700
C 	C 	0.93800 0.52947 0.15740 -0.11200
C 	C 	0.91896 0.52060 0.28980 -0.03800
C 	C 	0.90544 0.53818 0.33850 -0.05200
H 	H 	0.89260 0.53180 0.42650 0.04500
C 	C 	0.91071 0.56554 0.25750 0.02800
C 	C 	0.92860 0.57321 0.12280 -0.09200
H 	H 	0.93170 0.59060 0.06470 0.07000
C 	C 	0.94202 0.55533 0.07150 0.02200
H 	H 	0.95370 0.56080 0.97950 0.02900
C 	C 	0.95498 0.51307 0.09930 0.40500
C 	C 	0.89772 0.58542 0.31250 0.03400
C 	C 	0.87190 0.57375 0.41250 -0.10600
H 	H 	0.86200 0.55280 0.44500 0.06000
C 	C 	0.86086 0.59345 0.46390 0.03100
H 	H 	0.84400 0.58550 0.53330 0.01100
C 	C 	0.87382 0.62389 0.41640 -0.11200
C 	C 	0.90017 0.63612 0.31260 -0.03900
C 	C 	0.91186 0.61703 0.26730 -0.06200
H 	H 	0.92980 0.62540 0.20440 0.07500
C 	C 	0.85917 0.64238 0.47820 0.36900
K 	K 	0.57912 0.83797 0.09233 0.65900
Pr	Pr	0.65711 0.83855 0.78428 2.05700
S 	S 	0.57473 0.81829 0.72567 0.49600
S 	S 	0.58620 0.00887 0.57034 0.53000
O 	O 	0.63691 0.83866 0.52393 -0.59900
O 	O 	0.62113 0.84169 0.28753 -0.48200
O 	O 	0.60208 0.82597 0.82593 -0.47900
O 	O 	0.54739 0.81197 0.82493 -0.31200
O 	O 	0.56902 0.79458 0.61183 -0.30900
O 	O 	0.52065 0.97510 0.95433 -0.46700
O 	O 	0.51819 0.99121 0.71713 -0.61000
O 	O 	0.59077 0.02945 0.70143 -0.32100
O 	O 	0.56402 0.00829 0.45543 -0.47600
O 	O 	0.61475 0.01389 0.50003 -0.25800
C 	C 	0.60467 0.86280 0.49073 -0.10000
C 	C 	0.58563 0.85393 0.62313 -0.04500
C 	C 	0.57211 0.87151 0.67183 -0.04500
H 	H 	0.55927 0.86513 0.75983 0.04100
C 	C 	0.57738 0.89887 0.59083 0.02000
C 	C 	0.59527 0.90654 0.45613 -0.07800
H 	H 	0.59837 0.92393 0.39803 0.06500
C 	C 	0.60869 0.88866 0.40483 0.00000
H 	H 	0.62037 0.89413 0.31283 0.04200
C 	C 	0.62165 0.84640 0.43263 0.39300
C 	C 	0.56439 0.91875 0.64583 0.03900
C 	C 	0.53857 0.90708 0.74583 -0.11100
H 	H 	0.52867 0.88613 0.77833 0.06100
C 	C 	0.52753 0.92678 0.79723 0.03400
H 	H 	0.51067 0.91883 0.86663 0.00800
C 	C 	0.54049 0.95722 0.74973 -0.11500
C 	C 	0.56684 0.96945 0.64593 -0.03400
C 	C 	0.57853 0.95036 0.60063 -0.06600
H 	H 	0.59647 0.95873 0.53773 0.07700
C 	C 	0.52584 0.97571 0.81153 0.37000
K 	K 	0.24578 0.17131 0.42567 0.65700
Pr	Pr	0.32377 0.17189 0.11762 2.06100
S 	S 	0.24139 0.15163 0.05901 0.51400
S 	S 	0.25286 0.34221 0.90368 0.52300
O 	O 	0.30357 0.17200 0.85727 -0.60000
O 	O 	0.28779 0.17503 0.62087 -0.48300
O 	O 	0.26874 0.15931 0.15927 -0.47700
O 	O 	0.21405 0.14531 0.15827 -0.30900
O 	O 	0.23568 0.12792 0.94517 -0.31600
O 	O 	0.18731 0.30844 0.28767 -0.46300
O 	O 	0.18485 0.32455 0.05047 -0.60500
O 	O 	0.25743 0.36279 0.03477 -0.31000
O 	O 	0.23068 0.34163 0.78877 -0.47600
O 	O 	0.28141 0.34723 0.83337 -0.25700
C 	C 	0.27133 0.19614 0.82407 -0.09200
C 	C 	0.25229 0.18727 0.95647 -0.06500
C 	C 	0.23877 0.20485 0.00517 -0.01900
H 	H 	0.22593 0.19847 0.09317 0.03600
C 	C 	0.24404 0.23221 0.92417 0.00900
C 	C 	0.26193 0.23988 0.78947 -0.07100
H 	H 	0.26503 0.25727 0.73137 0.06100
C 	C 	0.27535 0.22200 0.73817 -0.00900
H 	H 	0.28703 0.22747 0.64617 0.04400
C 	C 	0.28831 0.17974 0.76597 0.39000
C 	C 	0.23105 0.25209 0.97917 0.02300
C 	C 	0.20523 0.24042 0.07917 -0.08600
H 	H 	0.19533 0.21947 0.11167 0.05500
C 	C 	0.19419 0.26012 0.13057 0.01700
H 	H 	0.17733 0.25217 0.19997 0.01700
C 	C 	0.20715 0.29056 0.08307 -0.09300
C 	C 	0.23350 0.30279 0.97927 -0.05500
C 	C 	0.24519 0.28370 0.93397 -0.05400
H 	H 	0.26313 0.29207 0.87107 0.07200
C 	C 	0.19250 0.30905 0.14487 0.36300
K 	K 	0.49536 0.40781 0.75900 0.65700
Pr	Pr	0.49478 0.48522 0.45095 2.06000
S 	S 	0.51504 0.42310 0.39234 0.49300
S 	S 	0.32446 0.24399 0.23701 0.53400
O 	O 	0.49467 0.46491 0.19060 -0.60000
O 	O 	0.49164 0.44610 0.95420 -0.49000
O 	O 	0.50736 0.44277 0.49260 -0.47400
O 	O 	0.52136 0.40208 0.49160 -0.30700
O 	O 	0.53875 0.44110 0.27850 -0.30700
O 	O 	0.35823 0.21221 0.62100 -0.46500
O 	O 	0.34212 0.19364 0.38380 -0.61100
O 	O 	0.30388 0.22798 0.36810 -0.32000
O 	O 	0.32504 0.22239 0.12210 -0.47400
O 	O 	0.31944 0.26752 0.16670 -0.25600
C 	C 	0.47053 0.40853 0.15740 -0.11100
C 	C 	0.47940 0.39836 0.28980 -0.03800
C 	C 	0.46182 0.36726 0.33850 -0.05200
H 	H 	0.46820 0.36080 0.42650 0.04500
C 	C 	0.43446 0.34517 0.25750 0.02800
C 	C 	0.42679 0.35539 0.12280 -0.09100
H 	H 	0.40940 0.34110 0.06470 0.07000
C 	C 	0.44467 0.38669 0.07150 0.02200
H 	H 	0.43920 0.39290 0.97950 0.02900
C 	C 	0.48693 0.44191 0.09930 0.40500
C 	C 	0.41458 0.31230 0.31250 0.03400
C 	C 	0.42625 0.29815 0.41250 -0.10600
H 	H 	0.44720 0.30920 0.44500 0.06000
C 	C 	0.40655 0.26741 0.46390 0.03200
H 	H 	0.41450 0.25850 0.53330 0.01100
C 	C 	0.37611 0.24993 0.41640 -0.11200
C 	C 	0.36388 0.26405 0.31260 -0.03900
C 	C 	0.38297 0.29483 0.26730 -0.06200
H 	H 	0.37460 0.30440 0.20440 0.07500
C 	C 	0.35762 0.21679 0.47820 0.36900
K 	K 	0.16203 0.74114 0.09233 0.65900
Pr	Pr	0.16145 0.81855 0.78428 2.05700
S 	S 	0.18171 0.75643 0.72567 0.49600
S 	S 	0.99113 0.57732 0.57034 0.53000
O 	O 	0.16134 0.79824 0.52393 -0.59900
O 	O 	0.15831 0.77943 0.28753 -0.48300
O 	O 	0.17403 0.77610 0.82593 -0.47900
O 	O 	0.18803 0.73541 0.82493 -0.31200
O 	O 	0.20542 0.77443 0.61183 -0.30900
O 	O 	0.02490 0.54554 0.95433 -0.46700
O 	O 	0.00879 0.52697 0.71713 -0.61000
O 	O 	0.97055 0.56131 0.70143 -0.32100
O 	O 	0.99171 0.55572 0.45543 -0.47600
O 	O 	0.98611 0.60085 0.50003 -0.25800
C 	C 	0.13720 0.74186 0.49073 -0.10000
C 	C 	0.14607 0.73169 0.62313 -0.04500
C 	C 	0.12849 0.70059 0.67183 -0.04500
H 	H 	0.13487 0.69413 0.75983 0.04100
C 	C 	0.10113 0.67850 0.59083 0.02000
C 	C 	0.09346 0.68872 0.45613 -0.07800
H 	H 	0.07607 0.67443 0.39803 0.06500
C 	C 	0.11134 0.72002 0.40483 0.00000
H 	H 	0.10587 0.72623 0.31283 0.04200
C 	C 	0.15360 0.77524 0.43263 0.39300
C 	C 	0.08125 0.64563 0.64583 0.03900
C 	C 	0.09292 0.63148 0.74583 -0.11100
H 	H 	0.11387 0.64253 0.77833 0.06100
C 	C 	0.07322 0.60074 0.79723 0.03400
H 	H 	0.08117 0.59183 0.86663 0.00800
C 	C 	0.04278 0.58326 0.74973 -0.11500
C 	C 	0.03055 0.59738 0.64593 -0.03400
C 	C 	0.04964 0.62816 0.60063 -0.06600
H 	H 	0.04127 0.63773 0.53773 0.07700
C 	C 	0.02429 0.55012 0.81153 0.37000
K 	K 	0.82869 0.07448 0.42567 0.65700
Pr	Pr	0.82811 0.15189 0.11762 2.06100
S 	S 	0.84837 0.08977 0.05901 0.51400
S 	S 	0.65779 0.91066 0.90368 0.52300
O 	O 	0.82800 0.13158 0.85727 -0.60000
O 	O 	0.82497 0.11277 0.62087 -0.48300
O 	O 	0.84069 0.10944 0.15927 -0.47700
O 	O 	0.85469 0.06875 0.15827 -0.31000
O 	O 	0.87208 0.10777 0.94517 -0.31700
O 	O 	0.69156 0.87888 0.28767 -0.46300
O 	O 	0.67545 0.86031 0.05047 -0.60500
O 	O 	0.63721 0.89465 0.03477 -0.30900
O 	O 	0.65837 0.88906 0.78877 -0.47600
O 	O 	0.65277 0.93419 0.83337 -0.25700
C 	C 	0.80386 0.07520 0.82407 -0.09000
C 	C 	0.81273 0.06503 0.95647 -0.06800
C 	C 	0.79515 0.03393 0.00517 -0.01600
H 	H 	0.80153 0.02747 0.09317 0.03400
C 	C 	0.76779 0.01184 0.92417 0.00100
C 	C 	0.76012 0.02206 0.78947 -0.06600
H 	H 	0.74273 0.00777 0.73137 0.05800
C 	C 	0.77800 0.05336 0.73817 -0.01300
H 	H 	0.77253 0.05957 0.64617 0.04500
C 	C 	0.82026 0.10858 0.76597 0.38900
C 	C 	0.74791 0.97897 0.97917 0.03000
C 	C 	0.75958 0.96482 0.07917 -0.09000
H 	H 	0.78053 0.97587 0.11167 0.05800
C 	C 	0.73988 0.93408 0.13057 0.02000
H 	H 	0.74783 0.92517 0.19997 0.01600
C 	C 	0.70944 0.91660 0.08307 -0.09500
C 	C 	0.69721 0.93072 0.97927 -0.05300
C 	C 	0.71630 0.96150 0.93397 -0.05800
H 	H 	0.70793 0.97107 0.87107 0.07400
C 	C 	0.69095 0.88346 0.14487 0.36400
K 	K 	0.91245 0.40781 0.25900 0.65800
Pr	Pr	0.99044 0.48522 0.95095 2.05700
S 	S 	0.90806 0.42310 0.89234 0.49500
S 	S 	0.91953 0.24399 0.73701 0.53600
O 	O 	0.97024 0.46491 0.69060 -0.60100
O 	O 	0.95446 0.44610 0.45420 -0.48400
O 	O 	0.93541 0.44277 0.99260 -0.47700
O 	O 	0.88072 0.40208 0.99160 -0.30800
O 	O 	0.90235 0.44110 0.77850 -0.30800
O 	O 	0.85398 0.21221 0.12100 -0.46000
O 	O 	0.85152 0.19364 0.88380 -0.61100
O 	O 	0.92410 0.22798 0.86810 -0.32300
O 	O 	0.89735 0.22239 0.62210 -0.47600
O 	O 	0.94808 0.26752 0.66670 -0.26000
C 	C 	0.93800 0.40853 0.65740 -0.10200
C 	C 	0.91896 0.39836 0.78980 -0.04300
C 	C 	0.90544 0.36726 0.83850 -0.04700
H 	H 	0.89260 0.36080 0.92650 0.04300
C 	C 	0.91071 0.34517 0.75750 0.02200
C 	C 	0.92860 0.35539 0.62280 -0.08100
H 	H 	0.93170 0.34110 0.56470 0.06500
C 	C 	0.94202 0.38669 0.57150 0.00100
H 	H 	0.95370 0.39290 0.47950 0.04000
C 	C 	0.95498 0.44191 0.59930 0.39300
C 	C 	0.89772 0.31230 0.81250 0.03300
C 	C 	0.87190 0.29815 0.91250 -0.10200
H 	H 	0.86200 0.30920 0.94500 0.05800
C 	C 	0.86086 0.26741 0.96390 0.02100
H 	H 	0.84400 0.25850 0.03330 0.01800
C 	C 	0.87382 0.24993 0.91640 -0.10700
C 	C 	0.90017 0.26405 0.81260 -0.04200
C 	C 	0.91186 0.29483 0.76730 -0.06100
H 	H 	0.92980 0.30440 0.70440 0.07300
C 	C 	0.85917 0.21679 0.97820 0.36200
K 	K 	0.57912 0.74114 0.59233 0.65700
Pr	Pr	0.65711 0.81855 0.28428 2.06000
S 	S 	0.57473 0.75643 0.22567 0.48800
S 	S 	0.58620 0.57732 0.07034 0.54600
O 	O 	0.63691 0.79824 0.02393 -0.58800
O 	O 	0.62113 0.77943 0.78753 -0.48300
O 	O 	0.60208 0.77610 0.32593 -0.47300
O 	O 	0.54739 0.73541 0.32493 -0.30500
O 	O 	0.56902 0.77443 0.11183 -0.30100
O 	O 	0.52065 0.54554 0.45433 -0.46500
O 	O 	0.51819 0.52697 0.21713 -0.60800
O 	O 	0.59077 0.56131 0.20143 -0.32100
O 	O 	0.56402 0.55572 0.95543 -0.48400
O 	O 	0.61475 0.60085 0.00003 -0.25700
C 	C 	0.60467 0.74186 0.99073 -0.12700
C 	C 	0.58563 0.73169 0.12313 -0.01800
C 	C 	0.57211 0.70059 0.17183 -0.06700
H 	H 	0.55927 0.69413 0.25983 0.05100
C 	C 	0.57738 0.67850 0.09083 0.05200
C 	C 	0.59527 0.68872 0.95613 -0.11700
H 	H 	0.59837 0.67443 0.89803 0.07400
C 	C 	0.60869 0.72002 0.90483 0.02400
H 	H 	0.62037 0.72623 0.81283 0.03200
C 	C 	0.62165 0.77524 0.93263 0.38500
C 	C 	0.56439 0.64563 0.14583 0.02500
C 	C 	0.53857 0.63148 0.24583 -0.09800
H 	H 	0.52867 0.64253 0.27833 0.05800
C 	C 	0.52753 0.60074 0.29723 0.02600
H 	H 	0.51067 0.59183 0.36663 0.01300
C 	C 	0.54049 0.58326 0.24973 -0.10700
C 	C 	0.56684 0.59738 0.14593 -0.04300
C 	C 	0.57853 0.62816 0.10063 -0.05400
H 	H 	0.59647 0.63773 0.03773 0.07400
C 	C 	0.52584 0.55012 0.31153 0.36700
K 	K 	0.24578 0.07448 0.92567 0.65600
Pr	Pr	0.32377 0.15189 0.61762 2.06000
S 	S 	0.24139 0.08977 0.55901 0.49600
S 	S 	0.25286 0.91066 0.40368 0.53300
O 	O 	0.30357 0.13158 0.35727 -0.59900
O 	O 	0.28779 0.11277 0.12087 -0.48100
O 	O 	0.26874 0.10944 0.65927 -0.47500
O 	O 	0.21405 0.06875 0.65827 -0.30800
O 	O 	0.23568 0.10777 0.44517 -0.30800
O 	O 	0.18731 0.87888 0.78767 -0.46800
O 	O 	0.18485 0.86031 0.55047 -0.61200
O 	O 	0.25743 0.89465 0.53477 -0.32000
O 	O 	0.23068 0.88906 0.28877 -0.47400
O 	O 	0.28141 0.93419 0.33337 -0.25600
C 	C 	0.27133 0.07520 0.32407 -0.09800
C 	C 	0.25229 0.06503 0.45647 -0.04600
C 	C 	0.23877 0.03393 0.50517 -0.04100
H 	H 	0.22593 0.02747 0.59317 0.04000
C 	C 	0.24404 0.01184 0.42417 0.01300
C 	C 	0.26193 0.02206 0.28947 -0.07400
H 	H 	0.26503 0.00777 0.23137 0.06200
C 	C 	0.27535 0.05336 0.23817 -0.00300
H 	H 	0.28703 0.05957 0.14617 0.04400
C 	C 	0.28831 0.10858 0.26597 0.39200
C 	C 	0.23105 0.97897 0.47917 0.04600
C 	C 	0.20523 0.96482 0.57917 -0.11400
H 	H 	0.19533 0.97587 0.61167 0.06400
C 	C 	0.19419 0.93408 0.63057 0.03700
H 	H 	0.17733 0.92517 0.69997 0.00900
C 	C 	0.20715 0.91660 0.58307 -0.11600
C 	C 	0.23350 0.93072 0.47927 -0.03500
C 	C 	0.24519 0.96150 0.43397 -0.06900
H 	H 	0.26313 0.97107 0.37107 0.07900
C 	C 	0.19250 0.88346 0.64487 0.37100
K 	K 	0.49536 0.08755 0.25900 0.65800
Pr	Pr	0.49478 0.00956 0.95095 2.05700
S 	S 	0.51504 0.09194 0.89234 0.49500
S 	S 	0.32446 0.08047 0.73701 0.53600
O 	O 	0.49467 0.02976 0.69060 -0.60100
O 	O 	0.49164 0.04554 0.45420 -0.48400
O 	O 	0.50736 0.06459 0.99260 -0.47700
O 	O 	0.52136 0.11928 0.99160 -0.30800
O 	O 	0.53875 0.09765 0.77850 -0.30800
O 	O 	0.35823 0.14602 0.12100 -0.46000
O 	O 	0.34212 0.14848 0.88380 -0.61100
O 	O 	0.30388 0.07590 0.86810 -0.32300
O 	O 	0.32504 0.10265 0.62210 -0.47600
O 	O 	0.31944 0.05192 0.66670 -0.26000
C 	C 	0.47053 0.06200 0.65740 -0.10200
C 	C 	0.47940 0.08104 0.78980 -0.04300
C 	C 	0.46182 0.09456 0.83850 -0.04700
H 	H 	0.46820 0.10740 0.92650 0.04300
C 	C 	0.43446 0.08929 0.75750 0.02200
C 	C 	0.42679 0.07140 0.62280 -0.08100
H 	H 	0.40940 0.06830 0.56470 0.06500
C 	C 	0.44467 0.05798 0.57150 0.00100
H 	H 	0.43920 0.04630 0.47950 0.04000
C 	C 	0.48693 0.04502 0.59930 0.39400
C 	C 	0.41458 0.10228 0.81250 0.03300
C 	C 	0.42625 0.12810 0.91250 -0.10200
H 	H 	0.44720 0.13800 0.94500 0.05800
C 	C 	0.40655 0.13914 0.96390 0.02100
H 	H 	0.41450 0.15600 0.03330 0.01800
C 	C 	0.37611 0.12618 0.91640 -0.10700
C 	C 	0.36388 0.09983 0.81260 -0.04200
C 	C 	0.38297 0.08814 0.76730 -0.06100
H 	H 	0.37460 0.07020 0.70440 0.07300
C 	C 	0.35762 0.14083 0.97820 0.36200
K 	K 	0.16203 0.42088 0.59233 0.65700
Pr	Pr	0.16145 0.34289 0.28428 2.06000
S 	S 	0.18171 0.42527 0.22567 0.48800
S 	S 	0.99113 0.41380 0.07034 0.54200
O 	O 	0.16134 0.36309 0.02393 -0.58800
O 	O 	0.15831 0.37887 0.78753 -0.48300
O 	O 	0.17403 0.39792 0.32593 -0.47300
O 	O 	0.18803 0.45261 0.32493 -0.30500
O 	O 	0.20542 0.43098 0.11183 -0.30100
O 	O 	0.02490 0.47935 0.45433 -0.46300
O 	O 	0.00879 0.48181 0.21713 -0.60600
O 	O 	0.97055 0.40923 0.20143 -0.32100
O 	O 	0.99171 0.43598 0.95543 -0.48500
O 	O 	0.98611 0.38525 0.00003 -0.25800
C 	C 	0.13720 0.39533 0.99073 -0.12700
C 	C 	0.14607 0.41437 0.12313 -0.01900
C 	C 	0.12849 0.42789 0.17183 -0.06600
H 	H 	0.13487 0.44073 0.25983 0.05100
C 	C 	0.10113 0.42262 0.09083 0.05100
C 	C 	0.09346 0.40473 0.95613 -0.11600
H 	H 	0.07607 0.40163 0.89803 0.07400
C 	C 	0.11134 0.39131 0.90483 0.02400
H 	H 	0.10587 0.37963 0.81283 0.03200
C 	C 	0.15360 0.37835 0.93263 0.38500
C 	C 	0.08125 0.43561 0.14583 0.02600
C 	C 	0.09292 0.46143 0.24583 -0.09900
H 	H 	0.11387 0.47133 0.27833 0.05800
C 	C 	0.07322 0.47247 0.29723 0.02700
H 	H 	0.08117 0.48933 0.36663 0.01300
C 	C 	0.04278 0.45951 0.24973 -0.10800
C 	C 	0.03055 0.43316 0.14593 -0.04000
C 	C 	0.04964 0.42147 0.10063 -0.05600
H 	H 	0.04127 0.40353 0.03773 0.07600
C 	C 	0.02429 0.47416 0.31153 0.36800
K 	K 	0.82869 0.75422 0.92567 0.65600
Pr	Pr	0.82811 0.67623 0.61762 2.06000
S 	S 	0.84837 0.75861 0.55901 0.49600
S 	S 	0.65779 0.74714 0.40368 0.53400
O 	O 	0.82800 0.69643 0.35727 -0.59900
O 	O 	0.82497 0.71221 0.12087 -0.48100
O 	O 	0.84069 0.73126 0.65927 -0.47500
O 	O 	0.85469 0.78595 0.65827 -0.30800
O 	O 	0.87208 0.76432 0.44517 -0.30800
O 	O 	0.69156 0.81269 0.78767 -0.46800
O 	O 	0.67545 0.81515 0.55047 -0.61200
O 	O 	0.63721 0.74257 0.53477 -0.32000
O 	O 	0.65837 0.76932 0.28877 -0.47400
O 	O 	0.65277 0.71859 0.33337 -0.25700
C 	C 	0.80386 0.72867 0.32407 -0.10000
C 	C 	0.81273 0.74771 0.45647 -0.04400
C 	C 	0.79515 0.76123 0.50517 -0.04500
H 	H 	0.80153 0.77407 0.59317 0.04300
C 	C 	0.76779 0.75596 0.42417 0.02000
C 	C 	0.76012 0.73807 0.28947 -0.07800
H 	H 	0.74273 0.73497 0.23137 0.06500
C 	C 	0.77800 0.72465 0.23817 0.00000
H 	H 	0.77253 0.71297 0.14617 0.04300
C 	C 	0.82026 0.71169 0.26597 0.39300
C 	C 	0.74791 0.76895 0.47917 0.03800
C 	C 	0.75958 0.79477 0.57917 -0.11000
H 	H 	0.78053 0.80467 0.61167 0.06100
C 	C 	0.73988 0.80581 0.63057 0.03400
H 	H 	0.74783 0.82267 0.69997 0.00900
C 	C 	0.70944 0.79285 0.58307 -0.11400
C 	C 	0.69721 0.76650 0.47927 -0.03700
C 	C 	0.71630 0.75481 0.43397 -0.06500
H 	H 	0.70793 0.73687 0.37107 0.07600
C 	C 	0.69095 0.80750 0.64487 0.37000
K 	K 	0.59219 0.50464 0.25900 0.65800
Pr	Pr	0.51478 0.50522 0.95095 2.05800
S 	S 	0.57690 0.48496 0.89234 0.49500
S 	S 	0.75601 0.67554 0.73701 0.53600
O 	O 	0.53509 0.50533 0.69060 -0.59900
O 	O 	0.55390 0.50836 0.45420 -0.48300
O 	O 	0.55723 0.49264 0.99260 -0.47700
O 	O 	0.59792 0.47864 0.99160 -0.30800
O 	O 	0.55890 0.46125 0.77850 -0.30800
O 	O 	0.78779 0.64177 0.12100 -0.46000
O 	O 	0.80636 0.65788 0.88380 -0.61100
O 	O 	0.77202 0.69612 0.86810 -0.32300
O 	O 	0.77761 0.67496 0.62210 -0.47600
O 	O 	0.73248 0.68056 0.66670 -0.25900
C 	C 	0.59147 0.52947 0.65740 -0.10200
C 	C 	0.60164 0.52060 0.78980 -0.04300
C 	C 	0.63274 0.53818 0.83850 -0.04700
H 	H 	0.63920 0.53180 0.92650 0.04300
C 	C 	0.65483 0.56554 0.75750 0.02200
C 	C 	0.64461 0.57321 0.62280 -0.08100
H 	H 	0.65890 0.59060 0.56470 0.06500
C 	C 	0.61331 0.55533 0.57150 0.00100
H 	H 	0.60710 0.56080 0.47950 0.04100
C 	C 	0.55809 0.51307 0.59930 0.39300
C 	C 	0.68770 0.58542 0.81250 0.03300
C 	C 	0.70185 0.57375 0.91250 -0.10200
H 	H 	0.69080 0.55280 0.94500 0.05800
C 	C 	0.73259 0.59345 0.96390 0.02100
H 	H 	0.74150 0.58550 0.03330 0.01700
C 	C 	0.75007 0.62389 0.91640 -0.10700
C 	C 	0.73595 0.63612 0.81260 -0.04200
C 	C 	0.70517 0.61703 0.76730 -0.06100
H 	H 	0.69560 0.62540 0.70440 0.07400
C 	C 	0.78321 0.64238 0.97820 0.36200
K 	K 	0.25886 0.83797 0.59233 0.65700
Pr	Pr	0.18145 0.83855 0.28428 2.06000
S 	S 	0.24357 0.81829 0.22567 0.48800
S 	S 	0.42268 0.00887 0.07034 0.54200
O 	O 	0.20176 0.83866 0.02393 -0.58800
O 	O 	0.22057 0.84169 0.78753 -0.48300
O 	O 	0.22390 0.82597 0.32593 -0.47300
O 	O 	0.26459 0.81197 0.32493 -0.30500
O 	O 	0.22557 0.79458 0.11183 -0.30100
O 	O 	0.45446 0.97510 0.45433 -0.46300
O 	O 	0.47303 0.99121 0.21713 -0.60600
O 	O 	0.43869 0.02945 0.20143 -0.32100
O 	O 	0.44428 0.00829 0.95543 -0.48500
O 	O 	0.39915 0.01389 0.00003 -0.25800
C 	C 	0.25814 0.86280 0.99073 -0.12700
C 	C 	0.26831 0.85393 0.12313 -0.01900
C 	C 	0.29941 0.87151 0.17183 -0.06600
H 	H 	0.30587 0.86513 0.25983 0.05100
C 	C 	0.32150 0.89887 0.09083 0.05100
C 	C 	0.31128 0.90654 0.95613 -0.11600
H 	H 	0.32557 0.92393 0.89803 0.07400
C 	C 	0.27998 0.88866 0.90483 0.02400
H 	H 	0.27377 0.89413 0.81283 0.03200
C 	C 	0.22476 0.84640 0.93263 0.38500
C 	C 	0.35437 0.91875 0.14583 0.02600
C 	C 	0.36852 0.90708 0.24583 -0.09900
H 	H 	0.35747 0.88613 0.27833 0.05800
C 	C 	0.39926 0.92678 0.29723 0.02700
H 	H 	0.40817 0.91883 0.36663 0.01300
C 	C 	0.41674 0.95722 0.24973 -0.10800
C 	C 	0.40262 0.96945 0.14593 -0.04000
C 	C 	0.37184 0.95036 0.10063 -0.05600
H 	H 	0.36227 0.95873 0.03773 0.07600
C 	C 	0.44988 0.97571 0.31153 0.36800
K 	K 	0.92552 0.17131 0.92567 0.65600
Pr	Pr	0.84811 0.17189 0.61762 2.06000
S 	S 	0.91023 0.15163 0.55901 0.49600
S 	S 	0.08934 0.34221 0.40368 0.53300
O 	O 	0.86842 0.17200 0.35727 -0.59900
O 	O 	0.88723 0.17503 0.12087 -0.48100
O 	O 	0.89056 0.15931 0.65927 -0.47500
O 	O 	0.93125 0.14531 0.65827 -0.30900
O 	O 	0.89223 0.12792 0.44517 -0.30900
O 	O 	0.12112 0.30844 0.78767 -0.46800
O 	O 	0.13969 0.32455 0.55047 -0.61200
O 	O 	0.10535 0.36279 0.53477 -0.32000
O 	O 	0.11094 0.34163 0.28877 -0.47400
O 	O 	0.06581 0.34723 0.33337 -0.25600
C 	C 	0.92480 0.19614 0.32407 -0.09800
C 	C 	0.93497 0.18727 0.45647 -0.04600
C 	C 	0.96607 0.20485 0.50517 -0.04100
H 	H 	0.97253 0.19847 0.59317 0.04000
C 	C 	0.98816 0.23221 0.42417 0.01300
C 	C 	0.97794 0.23988 0.28947 -0.07400
H 	H 	0.99223 0.25727 0.23137 0.06200
C 	C 	0.94664 0.22200 0.23817 -0.00300
H 	H 	0.94043 0.22747 0.14617 0.04400
C 	C 	0.89142 0.17974 0.26597 0.39200
C 	C 	0.02103 0.25209 0.47917 0.04600
C 	C 	0.03518 0.24042 0.57917 -0.11400
H 	H 	0.02413 0.21947 0.61167 0.06400
C 	C 	0.06592 0.26012 0.63057 0.03700
H 	H 	0.07483 0.25217 0.69997 0.00800
C 	C 	0.08340 0.29056 0.58307 -0.11600
C 	C 	0.06928 0.30279 0.47927 -0.03500
C 	C 	0.03850 0.28370 0.43397 -0.06900
H 	H 	0.02893 0.29207 0.37107 0.07900
C 	C 	0.11654 0.30905 0.64487 0.37000
