data_crystal

_cell_length_a 48.79990
_cell_length_b 48.79990
_cell_length_c 8.45290
_cell_angle_alpha 90.00000
_cell_angle_beta  90.00000
_cell_angle_gamma 120.00000

_symmetry_space_group_name_	'P 1'
_symmetry_space_group_name_H-M	'P 1'

loop_
_symmetry_equiv_pos_as_xyz
  x,y,z

loop_
_atom_site_label
_atom_site_type_symbol
_atom_site_fract_x
_atom_site_fract_y
_atom_site_fract_z
_atom_site_charge
K 	K 	0.82706 0.07445 0.43158 0.65700
Eu	Eu	0.82765 0.15298 0.11809 1.96900
S 	S 	0.84792 0.09178 0.06418 0.54400
S 	S 	0.65891 0.91032 0.89880 0.54700
O 	O 	0.82728 0.13320 0.85960 -0.57700
O 	O 	0.82386 0.11444 0.62180 -0.49500
O 	O 	0.84006 0.11159 0.16300 -0.47200
O 	O 	0.85410 0.07122 0.16470 -0.32900
O 	O 	0.87188 0.10960 0.94960 -0.32100
O 	O 	0.69302 0.87877 0.28600 -0.46200
O 	O 	0.67663 0.86058 0.04840 -0.59300
O 	O 	0.63836 0.89452 0.03120 -0.32500
O 	O 	0.65993 0.88840 0.78420 -0.47100
O 	O 	0.65419 0.93422 0.82190 -0.26100
C 	C 	0.80321 0.07694 0.82670 -0.10800
C 	C 	0.81253 0.06626 0.95690 -0.04900
C 	C 	0.79487 0.03490 0.00520 -0.04600
H 	H 	0.80130 0.02830 0.09380 0.04000
C 	C 	0.76818 0.01347 0.92510 0.01900
C 	C 	0.76037 0.02343 0.79140 -0.08200
H 	H 	0.74340 0.00880 0.73110 0.06200
C 	C 	0.77718 0.05511 0.74160 -0.00100
H 	H 	0.77080 0.06140 0.65150 0.03700
C 	C 	0.81949 0.11027 0.76480 0.43400
C 	C 	0.74842 0.98050 0.98040 0.03600
C 	C 	0.76054 0.96567 0.07730 -0.10400
H 	H 	0.78180 0.97650 0.10540 0.06000
C 	C 	0.74136 0.93546 0.13090 0.02600
H 	H 	0.74930 0.92700 0.20390 0.01100
C 	C 	0.71039 0.91721 0.07910 -0.10900
C 	C 	0.69822 0.93020 0.97950 -0.04200
C 	C 	0.71706 0.96225 0.93390 -0.06700
H 	H 	0.70810 0.97140 0.87090 0.07600
C 	C 	0.69184 0.88328 0.14000 0.40400
K 	K 	0.49373 0.40778 0.76491 0.65700
Eu	Eu	0.49432 0.48631 0.45142 1.97100
S 	S 	0.51459 0.42511 0.39751 0.54300
S 	S 	0.32558 0.24365 0.23213 0.55100
O 	O 	0.49395 0.46653 0.19293 -0.57900
O 	O 	0.49053 0.44777 0.95513 -0.49400
O 	O 	0.50673 0.44492 0.49633 -0.47300
O 	O 	0.52077 0.40455 0.49803 -0.32900
O 	O 	0.53855 0.44293 0.28293 -0.32200
O 	O 	0.35969 0.21210 0.61933 -0.46200
O 	O 	0.34330 0.19391 0.38173 -0.59600
O 	O 	0.30503 0.22785 0.36453 -0.32900
O 	O 	0.32660 0.22173 0.11753 -0.47200
O 	O 	0.32086 0.26755 0.15523 -0.26200
C 	C 	0.46988 0.41027 0.16003 -0.10700
C 	C 	0.47920 0.39959 0.29023 -0.04800
C 	C 	0.46154 0.36823 0.33853 -0.05000
H 	H 	0.46797 0.36163 0.42713 0.04200
C 	C 	0.43485 0.34680 0.25843 0.02300
C 	C 	0.42704 0.35676 0.12473 -0.08300
H 	H 	0.41007 0.34213 0.06443 0.06300
C 	C 	0.44385 0.38844 0.07493 -0.00300
H 	H 	0.43747 0.39473 0.98483 0.03900
C 	C 	0.48616 0.44360 0.09813 0.43100
C 	C 	0.41509 0.31383 0.31373 0.03600
C 	C 	0.42721 0.29900 0.41063 -0.11000
H 	H 	0.44847 0.30983 0.43873 0.06000
C 	C 	0.40803 0.26879 0.46423 0.03000
H 	H 	0.41597 0.26033 0.53723 0.01000
C 	C 	0.37706 0.25054 0.41243 -0.11600
C 	C 	0.36489 0.26353 0.31283 -0.03700
C 	C 	0.38373 0.29558 0.26723 -0.06900
H 	H 	0.37477 0.30473 0.20423 0.07600
C 	C 	0.35851 0.21661 0.47333 0.40600
K 	K 	0.16039 0.74112 0.09825 0.65700
Eu	Eu	0.16098 0.81965 0.78476 1.96500
S 	S 	0.18125 0.75845 0.73085 0.54200
S 	S 	0.99224 0.57699 0.56547 0.54700
O 	O 	0.16061 0.79987 0.52627 -0.57900
O 	O 	0.15719 0.78111 0.28847 -0.49600
O 	O 	0.17339 0.77826 0.82967 -0.47500
O 	O 	0.18743 0.73789 0.83137 -0.33100
O 	O 	0.20521 0.77627 0.61627 -0.32100
O 	O 	0.02635 0.54544 0.95267 -0.46100
O 	O 	0.00996 0.52725 0.71507 -0.59300
O 	O 	0.97169 0.56119 0.69787 -0.32900
O 	O 	0.99326 0.55507 0.45087 -0.47100
O 	O 	0.98752 0.60089 0.48857 -0.26300
C 	C 	0.13654 0.74361 0.49337 -0.10900
C 	C 	0.14586 0.73293 0.62357 -0.04600
C 	C 	0.12820 0.70157 0.67187 -0.05100
H 	H 	0.13463 0.69497 0.76047 0.04200
C 	C 	0.10151 0.68014 0.59177 0.02500
C 	C 	0.09370 0.69010 0.45807 -0.08600
H 	H 	0.07673 0.67547 0.39777 0.06500
C 	C 	0.11051 0.72178 0.40827 0.00300
H 	H 	0.10413 0.72807 0.31817 0.03700
C 	C 	0.15282 0.77694 0.43147 0.43400
C 	C 	0.08175 0.64717 0.64707 0.03600
C 	C 	0.09387 0.63234 0.74397 -0.11000
H 	H 	0.11513 0.64317 0.77207 0.06000
C 	C 	0.07469 0.60213 0.79757 0.03100
H 	H 	0.08263 0.59367 0.87057 0.00900
C 	C 	0.04372 0.58388 0.74577 -0.11600
C 	C 	0.03155 0.59687 0.64617 -0.03300
C 	C 	0.05039 0.62892 0.60057 -0.07000
H 	H 	0.04143 0.63807 0.53757 0.07700
C 	C 	0.02517 0.54995 0.80667 0.40600
K 	K 	0.92555 0.75261 0.43158 0.65600
Eu	Eu	0.84702 0.67467 0.11809 1.96800
S 	S 	0.90822 0.75614 0.06418 0.54300
S 	S 	0.08968 0.74859 0.89880 0.54600
O 	O 	0.86680 0.69408 0.85960 -0.57800
O 	O 	0.88556 0.70942 0.62180 -0.49600
O 	O 	0.88841 0.72847 0.16300 -0.47300
O 	O 	0.92878 0.78288 0.16470 -0.32900
O 	O 	0.89040 0.76228 0.94960 -0.32000
O 	O 	0.12123 0.81425 0.28600 -0.46200
O 	O 	0.13942 0.81605 0.04840 -0.59300
O 	O 	0.10548 0.74384 0.03120 -0.32500
O 	O 	0.11160 0.77153 0.78420 -0.47100
O 	O 	0.06578 0.71997 0.82190 -0.26100
C 	C 	0.92306 0.72627 0.82670 -0.10800
C 	C 	0.93374 0.74627 0.95690 -0.04900
C 	C 	0.96510 0.75997 0.00520 -0.04600
H 	H 	0.97170 0.77300 0.09380 0.04100
C 	C 	0.98653 0.75471 0.92510 0.01900
C 	C 	0.97657 0.73694 0.79140 -0.08200
H 	H 	0.99120 0.73460 0.73110 0.06200
C 	C 	0.94489 0.72207 0.74160 -0.00100
H 	H 	0.93860 0.70940 0.65150 0.03700
C 	C 	0.88973 0.70922 0.76480 0.43400
C 	C 	0.01950 0.76792 0.98040 0.03600
C 	C 	0.03433 0.79487 0.07730 -0.10400
H 	H 	0.02350 0.80530 0.10540 0.06000
C 	C 	0.06454 0.80590 0.13090 0.02600
H 	H 	0.07300 0.82230 0.20390 0.01100
C 	C 	0.08279 0.79318 0.07910 -0.10900
C 	C 	0.06980 0.76802 0.97950 -0.04200
C 	C 	0.03775 0.75481 0.93390 -0.06700
H 	H 	0.02860 0.73670 0.87090 0.07600
C 	C 	0.11672 0.80856 0.14000 0.40400
K 	K 	0.59222 0.08594 0.76491 0.65700
Eu	Eu	0.51369 0.00800 0.45142 1.96500
S 	S 	0.57489 0.08947 0.39751 0.54200
S 	S 	0.75635 0.08192 0.23213 0.55100
O 	O 	0.53347 0.02741 0.19293 -0.57900
O 	O 	0.55223 0.04275 0.95513 -0.49400
O 	O 	0.55508 0.06180 0.49633 -0.47300
O 	O 	0.59545 0.11621 0.49803 -0.32900
O 	O 	0.55707 0.09561 0.28293 -0.32100
O 	O 	0.78790 0.14758 0.61933 -0.46200
O 	O 	0.80609 0.14938 0.38173 -0.59600
O 	O 	0.77215 0.07717 0.36453 -0.33000
O 	O 	0.77827 0.10486 0.11753 -0.47200
O 	O 	0.73245 0.05330 0.15523 -0.26300
C 	C 	0.58973 0.05960 0.16003 -0.10700
C 	C 	0.60041 0.07960 0.29023 -0.04700
C 	C 	0.63177 0.09330 0.33853 -0.05000
H 	H 	0.63837 0.10633 0.42713 0.04200
C 	C 	0.65320 0.08804 0.25843 0.02300
C 	C 	0.64324 0.07027 0.12473 -0.08300
H 	H 	0.65787 0.06793 0.06443 0.06300
C 	C 	0.61156 0.05540 0.07493 -0.00300
H 	H 	0.60527 0.04273 0.98483 0.03900
C 	C 	0.55640 0.04255 0.09813 0.43100
C 	C 	0.68617 0.10125 0.31373 0.03600
C 	C 	0.70100 0.12820 0.41063 -0.11000
H 	H 	0.69017 0.13863 0.43873 0.06000
C 	C 	0.73121 0.13923 0.46423 0.03000
H 	H 	0.73967 0.15563 0.53723 0.01000
C 	C 	0.74946 0.12651 0.41243 -0.11600
C 	C 	0.73647 0.10135 0.31283 -0.03700
C 	C 	0.70442 0.08814 0.26723 -0.06900
H 	H 	0.69527 0.07003 0.20423 0.07500
C 	C 	0.78339 0.14189 0.47333 0.40600
K 	K 	0.25888 0.41928 0.09825 0.65700
Eu	Eu	0.18035 0.34134 0.78476 1.96500
S 	S 	0.24155 0.42281 0.73085 0.54200
S 	S 	0.42301 0.41526 0.56547 0.55100
O 	O 	0.20013 0.36075 0.52627 -0.57900
O 	O 	0.21889 0.37609 0.28847 -0.49600
O 	O 	0.22174 0.39514 0.82967 -0.47500
O 	O 	0.26211 0.44955 0.83137 -0.33100
O 	O 	0.22373 0.42895 0.61627 -0.32100
O 	O 	0.45456 0.48092 0.95267 -0.46300
O 	O 	0.47275 0.48272 0.71507 -0.59600
O 	O 	0.43881 0.41051 0.69787 -0.32900
O 	O 	0.44493 0.43820 0.45087 -0.47200
O 	O 	0.39911 0.38664 0.48857 -0.26200
C 	C 	0.25639 0.39294 0.49337 -0.11000
C 	C 	0.26707 0.41294 0.62357 -0.04600
C 	C 	0.29843 0.42664 0.67187 -0.05100
H 	H 	0.30503 0.43967 0.76047 0.04200
C 	C 	0.31986 0.42138 0.59177 0.02500
C 	C 	0.30990 0.40361 0.45807 -0.08600
H 	H 	0.32453 0.40127 0.39777 0.06500
C 	C 	0.27822 0.38874 0.40827 0.00300
H 	H 	0.27193 0.37607 0.31817 0.03700
C 	C 	0.22306 0.37589 0.43147 0.43400
C 	C 	0.35283 0.43459 0.64707 0.03500
C 	C 	0.36766 0.46154 0.74397 -0.11000
H 	H 	0.35683 0.47197 0.77207 0.06000
C 	C 	0.39787 0.47257 0.79757 0.03000
H 	H 	0.40633 0.48897 0.87057 0.00900
C 	C 	0.41612 0.45985 0.74577 -0.11600
C 	C 	0.40313 0.43469 0.64617 -0.03600
C 	C 	0.37108 0.42148 0.60057 -0.06900
H 	H 	0.36193 0.40337 0.53757 0.07600
C 	C 	0.45005 0.47523 0.80667 0.40600
K 	K 	0.24739 0.17294 0.43158 0.65600
Eu	Eu	0.32533 0.17235 0.11809 1.96800
S 	S 	0.24386 0.15208 0.06418 0.54200
S 	S 	0.25141 0.34109 0.89880 0.54600
O 	O 	0.30592 0.17272 0.85960 -0.57800
O 	O 	0.29058 0.17614 0.62180 -0.49600
O 	O 	0.27153 0.15994 0.16300 -0.47300
O 	O 	0.21712 0.14590 0.16470 -0.32800
O 	O 	0.23772 0.12812 0.94960 -0.32000
O 	O 	0.18575 0.30698 0.28600 -0.46200
O 	O 	0.18395 0.32337 0.04840 -0.59300
O 	O 	0.25616 0.36164 0.03120 -0.32500
O 	O 	0.22847 0.34007 0.78420 -0.47100
O 	O 	0.28003 0.34581 0.82190 -0.26200
C 	C 	0.27373 0.19679 0.82670 -0.10900
C 	C 	0.25373 0.18747 0.95690 -0.04700
C 	C 	0.24003 0.20513 0.00520 -0.05000
H 	H 	0.22700 0.19870 0.09380 0.04300
C 	C 	0.24529 0.23182 0.92510 0.02600
C 	C 	0.26306 0.23963 0.79140 -0.08700
H 	H 	0.26540 0.25660 0.73110 0.06500
C 	C 	0.27793 0.22282 0.74160 0.00300
H 	H 	0.29060 0.22920 0.65150 0.03600
C 	C 	0.29078 0.18051 0.76480 0.43400
C 	C 	0.23208 0.25158 0.98040 0.02800
C 	C 	0.20513 0.23946 0.07730 -0.10000
H 	H 	0.19470 0.21820 0.10540 0.05800
C 	C 	0.19410 0.25864 0.13090 0.02300
H 	H 	0.17770 0.25070 0.20390 0.01200
C 	C 	0.20682 0.28961 0.07910 -0.10700
C 	C 	0.23198 0.30178 0.97950 -0.04400
C 	C 	0.24519 0.28294 0.93390 -0.06400
H 	H 	0.26330 0.29190 0.87090 0.07400
C 	C 	0.19144 0.30816 0.14000 0.40400
K 	K 	0.91406 0.50627 0.76491 0.65700
Eu	Eu	0.99200 0.50568 0.45142 1.96500
S 	S 	0.91053 0.48541 0.39751 0.54200
S 	S 	0.91808 0.67442 0.23213 0.55100
O 	O 	0.97259 0.50605 0.19293 -0.57900
O 	O 	0.95725 0.50947 0.95513 -0.49400
O 	O 	0.93820 0.49327 0.49633 -0.47300
O 	O 	0.88379 0.47923 0.49803 -0.32900
O 	O 	0.90439 0.46145 0.28293 -0.32100
O 	O 	0.85242 0.64031 0.61933 -0.46200
O 	O 	0.85062 0.65670 0.38173 -0.59600
O 	O 	0.92283 0.69497 0.36453 -0.33000
O 	O 	0.89514 0.67340 0.11753 -0.47200
O 	O 	0.94670 0.67914 0.15523 -0.26300
C 	C 	0.94040 0.53012 0.16003 -0.10700
C 	C 	0.92040 0.52080 0.29023 -0.04700
C 	C 	0.90670 0.53846 0.33853 -0.05000
H 	H 	0.89367 0.53203 0.42713 0.04200
C 	C 	0.91196 0.56515 0.25843 0.02300
C 	C 	0.92973 0.57296 0.12473 -0.08300
H 	H 	0.93207 0.58993 0.06443 0.06300
C 	C 	0.94460 0.55615 0.07493 -0.00300
H 	H 	0.95727 0.56253 0.98483 0.03900
C 	C 	0.95745 0.51384 0.09813 0.43100
C 	C 	0.89875 0.58491 0.31373 0.03600
C 	C 	0.87180 0.57279 0.41063 -0.11000
H 	H 	0.86137 0.55153 0.43873 0.06000
C 	C 	0.86077 0.59197 0.46423 0.03000
H 	H 	0.84437 0.58403 0.53723 0.01000
C 	C 	0.87349 0.62294 0.41243 -0.11600
C 	C 	0.89865 0.63511 0.31283 -0.03700
C 	C 	0.91186 0.61627 0.26723 -0.06900
H 	H 	0.92997 0.62523 0.20423 0.07500
C 	C 	0.85811 0.64149 0.47333 0.40600
K 	K 	0.58072 0.83961 0.09825 0.65700
Eu	Eu	0.65866 0.83902 0.78476 1.96500
S 	S 	0.57719 0.81875 0.73085 0.54200
S 	S 	0.58474 0.00776 0.56547 0.54700
O 	O 	0.63925 0.83939 0.52627 -0.57900
O 	O 	0.62391 0.84281 0.28847 -0.49600
O 	O 	0.60486 0.82661 0.82967 -0.47500
O 	O 	0.55045 0.81257 0.83137 -0.33100
O 	O 	0.57105 0.79479 0.61627 -0.32100
O 	O 	0.51908 0.97365 0.95267 -0.46100
O 	O 	0.51728 0.99004 0.71507 -0.59300
O 	O 	0.58949 0.02831 0.69787 -0.32900
O 	O 	0.56180 0.00674 0.45087 -0.47200
O 	O 	0.61336 0.01248 0.48857 -0.26300
C 	C 	0.60706 0.86346 0.49337 -0.10900
C 	C 	0.58706 0.85414 0.62357 -0.04600
C 	C 	0.57336 0.87180 0.67187 -0.05100
H 	H 	0.56033 0.86537 0.76047 0.04200
C 	C 	0.57862 0.89849 0.59177 0.02500
C 	C 	0.59639 0.90630 0.45807 -0.08600
H 	H 	0.59873 0.92327 0.39777 0.06500
C 	C 	0.61126 0.88949 0.40827 0.00300
H 	H 	0.62393 0.89587 0.31817 0.03700
C 	C 	0.62411 0.84718 0.43147 0.43400
C 	C 	0.56541 0.91825 0.64707 0.03600
C 	C 	0.53846 0.90613 0.74397 -0.11000
H 	H 	0.52803 0.88487 0.77207 0.06000
C 	C 	0.52743 0.92531 0.79757 0.03100
H 	H 	0.51103 0.91737 0.87057 0.00900
C 	C 	0.54015 0.95628 0.74577 -0.11600
C 	C 	0.56531 0.96845 0.64617 -0.03300
C 	C 	0.57852 0.94961 0.60057 -0.07000
H 	H 	0.59663 0.95857 0.53757 0.07700
C 	C 	0.52477 0.97483 0.80667 0.40600
K 	K 	0.92555 0.17294 0.93158 0.65600
Eu	Eu	0.84702 0.17235 0.61809 1.97200
S 	S 	0.90822 0.15208 0.56418 0.54300
S 	S 	0.08968 0.34109 0.39880 0.55000
O 	O 	0.86680 0.17272 0.35960 -0.57900
O 	O 	0.88556 0.17614 0.12180 -0.49600
O 	O 	0.88841 0.15994 0.66300 -0.47300
O 	O 	0.92878 0.14590 0.66470 -0.33000
O 	O 	0.89040 0.12812 0.44960 -0.32100
O 	O 	0.12123 0.30698 0.78600 -0.46400
O 	O 	0.13942 0.32337 0.54840 -0.59600
O 	O 	0.10548 0.36164 0.53120 -0.32900
O 	O 	0.11160 0.34007 0.28420 -0.47100
O 	O 	0.06578 0.34581 0.32190 -0.26200
C 	C 	0.92306 0.19679 0.32670 -0.10800
C 	C 	0.93374 0.18747 0.45690 -0.04800
C 	C 	0.96510 0.20513 0.50520 -0.04700
H 	H 	0.97170 0.19870 0.59380 0.04000
C 	C 	0.98653 0.23182 0.42510 0.01700
C 	C 	0.97657 0.23963 0.29140 -0.08200
H 	H 	0.99120 0.25660 0.23110 0.06200
C 	C 	0.94489 0.22282 0.24160 -0.00000
H 	H 	0.93860 0.22920 0.15150 0.03700
C 	C 	0.88973 0.18051 0.26480 0.43400
C 	C 	0.01950 0.25158 0.48040 0.04300
C 	C 	0.03433 0.23946 0.57730 -0.11400
H 	H 	0.02350 0.21820 0.60540 0.06300
C 	C 	0.06454 0.25864 0.63090 0.03400
H 	H 	0.07300 0.25070 0.70390 0.00800
C 	C 	0.08279 0.28961 0.57910 -0.11800
C 	C 	0.06980 0.30178 0.47950 -0.03400
C 	C 	0.03775 0.28294 0.43390 -0.07300
H 	H 	0.02860 0.29190 0.37090 0.07800
C 	C 	0.11672 0.30816 0.64000 0.40700
K 	K 	0.59222 0.50627 0.26491 0.65600
Eu	Eu	0.51369 0.50568 0.95142 1.97100
S 	S 	0.57489 0.48541 0.89751 0.54200
S 	S 	0.75635 0.67442 0.73213 0.54900
O 	O 	0.53347 0.50605 0.69293 -0.58000
O 	O 	0.55223 0.50947 0.45513 -0.49600
O 	O 	0.55508 0.49327 0.99633 -0.47200
O 	O 	0.59545 0.47923 0.99803 -0.32600
O 	O 	0.55707 0.46145 0.78293 -0.32000
O 	O 	0.78790 0.64031 0.11933 -0.46600
O 	O 	0.80609 0.65670 0.88173 -0.59700
O 	O 	0.77215 0.69497 0.86453 -0.32900
O 	O 	0.77827 0.67340 0.61753 -0.47200
O 	O 	0.73245 0.67914 0.65523 -0.26300
C 	C 	0.58973 0.53012 0.66003 -0.11000
C 	C 	0.60041 0.52080 0.79023 -0.04600
C 	C 	0.63177 0.53846 0.83853 -0.05000
H 	H 	0.63837 0.53203 0.92713 0.04300
C 	C 	0.65320 0.56515 0.75843 0.02300
C 	C 	0.64324 0.57296 0.62473 -0.08500
H 	H 	0.65787 0.58993 0.56443 0.06400
C 	C 	0.61156 0.55615 0.57493 0.00200
H 	H 	0.60527 0.56253 0.48483 0.03600
C 	C 	0.55640 0.51384 0.59813 0.43500
C 	C 	0.68617 0.58491 0.81373 0.04100
C 	C 	0.70100 0.57279 0.91063 -0.12000
H 	H 	0.69017 0.55153 0.93873 0.06500
C 	C 	0.73121 0.59197 0.96423 0.04800
H 	H 	0.73967 0.58403 0.03723 -0.00000
C 	C 	0.74946 0.62294 0.91243 -0.12400
C 	C 	0.73647 0.63511 0.81283 -0.03200
C 	C 	0.70442 0.61627 0.76723 -0.07300
H 	H 	0.69527 0.62523 0.70423 0.07700
C 	C 	0.78339 0.64149 0.97333 0.41400
K 	K 	0.25888 0.83961 0.59825 0.65600
Eu	Eu	0.18035 0.83902 0.28476 1.97200
S 	S 	0.24155 0.81875 0.23085 0.53900
S 	S 	0.42301 0.00776 0.06547 0.54500
O 	O 	0.20013 0.83939 0.02627 -0.57400
O 	O 	0.21889 0.84281 0.78847 -0.49500
O 	O 	0.22174 0.82661 0.32967 -0.47200
O 	O 	0.26211 0.81257 0.33137 -0.32800
O 	O 	0.22373 0.79479 0.11627 -0.31700
O 	O 	0.45456 0.97365 0.45267 -0.46000
O 	O 	0.47275 0.99004 0.21507 -0.59300
O 	O 	0.43881 0.02831 0.19787 -0.33000
O 	O 	0.44493 0.00674 0.95087 -0.47100
O 	O 	0.39911 0.01248 0.98857 -0.26300
C 	C 	0.25639 0.86346 0.99337 -0.12000
C 	C 	0.26707 0.85414 0.12357 -0.03600
C 	C 	0.29843 0.87180 0.17187 -0.06000
H 	H 	0.30503 0.86537 0.26047 0.04600
C 	C 	0.31986 0.89849 0.09177 0.03600
C 	C 	0.30990 0.90630 0.95807 -0.10000
H 	H 	0.32453 0.92327 0.89777 0.06900
C 	C 	0.27822 0.88949 0.90827 0.01200
H 	H 	0.27193 0.89587 0.81817 0.03300
C 	C 	0.22306 0.84718 0.93147 0.43100
C 	C 	0.35283 0.91825 0.14707 0.03200
C 	C 	0.36766 0.90613 0.24397 -0.10700
H 	H 	0.35683 0.88487 0.27207 0.05900
C 	C 	0.39787 0.92531 0.29757 0.02900
H 	H 	0.40633 0.91737 0.37057 0.01000
C 	C 	0.41612 0.95628 0.24577 -0.11500
C 	C 	0.40313 0.96845 0.14617 -0.03400
C 	C 	0.37108 0.94961 0.10057 -0.06700
H 	H 	0.36193 0.95857 0.03757 0.07600
C 	C 	0.45005 0.97483 0.30667 0.40600
K 	K 	0.24739 0.07445 0.93158 0.65600
Eu	Eu	0.32533 0.15298 0.61809 1.97200
S 	S 	0.24386 0.09178 0.56418 0.54300
S 	S 	0.25141 0.91032 0.39880 0.55000
O 	O 	0.30592 0.13320 0.35960 -0.57900
O 	O 	0.29058 0.11444 0.12180 -0.49600
O 	O 	0.27153 0.11159 0.66300 -0.47300
O 	O 	0.21712 0.07122 0.66470 -0.32900
O 	O 	0.23772 0.10960 0.44960 -0.32000
O 	O 	0.18575 0.87877 0.78600 -0.46400
O 	O 	0.18395 0.86058 0.54840 -0.59600
O 	O 	0.25616 0.89452 0.53120 -0.32900
O 	O 	0.22847 0.88840 0.28420 -0.47100
O 	O 	0.28003 0.93422 0.32190 -0.26200
C 	C 	0.27373 0.07694 0.32670 -0.10800
C 	C 	0.25373 0.06626 0.45690 -0.04800
C 	C 	0.24003 0.03490 0.50520 -0.04700
H 	H 	0.22700 0.02830 0.59380 0.04000
C 	C 	0.24529 0.01347 0.42510 0.01800
C 	C 	0.26306 0.02343 0.29140 -0.08200
H 	H 	0.26540 0.00880 0.23110 0.06200
C 	C 	0.27793 0.05511 0.24160 -0.00000
H 	H 	0.29060 0.06140 0.15150 0.03700
C 	C 	0.29078 0.11027 0.26480 0.43400
C 	C 	0.23208 0.98050 0.48040 0.04300
C 	C 	0.20513 0.96567 0.57730 -0.11400
H 	H 	0.19470 0.97650 0.60540 0.06300
C 	C 	0.19410 0.93546 0.63090 0.03400
H 	H 	0.17770 0.92700 0.70390 0.00800
C 	C 	0.20682 0.91721 0.57910 -0.11800
C 	C 	0.23198 0.93020 0.47950 -0.03400
C 	C 	0.24519 0.96225 0.43390 -0.07300
H 	H 	0.26330 0.97140 0.37090 0.07800
C 	C 	0.19144 0.88328 0.64000 0.40700
K 	K 	0.91406 0.40778 0.26491 0.65600
Eu	Eu	0.99200 0.48631 0.95142 1.96500
S 	S 	0.91053 0.42511 0.89751 0.54200
S 	S 	0.91808 0.24365 0.73213 0.55000
O 	O 	0.97259 0.46653 0.69293 -0.57900
O 	O 	0.95725 0.44777 0.45513 -0.49600
O 	O 	0.93820 0.44492 0.99633 -0.47100
O 	O 	0.88379 0.40455 0.99803 -0.32600
O 	O 	0.90439 0.44293 0.78293 -0.32000
O 	O 	0.85242 0.21210 0.11933 -0.46700
O 	O 	0.85062 0.19391 0.88173 -0.59700
O 	O 	0.92283 0.22785 0.86453 -0.32900
O 	O 	0.89514 0.22173 0.61753 -0.47200
O 	O 	0.94670 0.26755 0.65523 -0.26300
C 	C 	0.94040 0.41027 0.66003 -0.11000
C 	C 	0.92040 0.39959 0.79023 -0.04600
C 	C 	0.90670 0.36823 0.83853 -0.05000
H 	H 	0.89367 0.36163 0.92713 0.04300
C 	C 	0.91196 0.34680 0.75843 0.02300
C 	C 	0.92973 0.35676 0.62473 -0.08500
H 	H 	0.93207 0.34213 0.56443 0.06400
C 	C 	0.94460 0.38844 0.57493 0.00200
H 	H 	0.95727 0.39473 0.48483 0.03600
C 	C 	0.95745 0.44360 0.59813 0.43400
C 	C 	0.89875 0.31383 0.81373 0.04100
C 	C 	0.87180 0.29900 0.91063 -0.12000
H 	H 	0.86137 0.30983 0.93873 0.06500
C 	C 	0.86077 0.26879 0.96423 0.04800
H 	H 	0.84437 0.26033 0.03723 -0.00000
C 	C 	0.87349 0.25054 0.91243 -0.12400
C 	C 	0.89865 0.26353 0.81283 -0.03200
C 	C 	0.91186 0.29558 0.76723 -0.07300
H 	H 	0.92997 0.30473 0.70423 0.07700
C 	C 	0.85811 0.21661 0.97333 0.41400
K 	K 	0.58072 0.74112 0.59825 0.65600
Eu	Eu	0.65866 0.81965 0.28476 1.97200
S 	S 	0.57719 0.75845 0.23085 0.53900
S 	S 	0.58474 0.57699 0.06547 0.54900
O 	O 	0.63925 0.79987 0.02627 -0.57400
O 	O 	0.62391 0.78111 0.78847 -0.49500
O 	O 	0.60486 0.77826 0.32967 -0.47200
O 	O 	0.55045 0.73789 0.33137 -0.32800
O 	O 	0.57105 0.77627 0.11627 -0.31700
O 	O 	0.51908 0.54544 0.45267 -0.46300
O 	O 	0.51728 0.52725 0.21507 -0.59600
O 	O 	0.58949 0.56119 0.19787 -0.33000
O 	O 	0.56180 0.55507 0.95087 -0.47100
O 	O 	0.61336 0.60089 0.98857 -0.26200
C 	C 	0.60706 0.74361 0.99337 -0.12000
C 	C 	0.58706 0.73293 0.12357 -0.03600
C 	C 	0.57336 0.70157 0.17187 -0.06000
H 	H 	0.56033 0.69497 0.26047 0.04600
C 	C 	0.57862 0.68014 0.09177 0.03700
C 	C 	0.59639 0.69010 0.95807 -0.10000
H 	H 	0.59873 0.67547 0.89777 0.06900
C 	C 	0.61126 0.72178 0.90827 0.01200
H 	H 	0.62393 0.72807 0.81817 0.03300
C 	C 	0.62411 0.77694 0.93147 0.43100
C 	C 	0.56541 0.64717 0.14707 0.03100
C 	C 	0.53846 0.63234 0.24397 -0.10600
H 	H 	0.52803 0.64317 0.27207 0.05900
C 	C 	0.52743 0.60213 0.29757 0.02800
H 	H 	0.51103 0.59367 0.37057 0.01000
C 	C 	0.54015 0.58388 0.24577 -0.11400
C 	C 	0.56531 0.59687 0.14617 -0.03800
C 	C 	0.57852 0.62892 0.10057 -0.06600
H 	H 	0.59663 0.63807 0.03757 0.07500
C 	C 	0.52477 0.54995 0.30667 0.40600
K 	K 	0.82706 0.75261 0.93158 0.65700
Eu	Eu	0.82765 0.67467 0.61809 1.97200
S 	S 	0.84792 0.75614 0.56418 0.54200
S 	S 	0.65891 0.74859 0.39880 0.55100
O 	O 	0.82728 0.69408 0.35960 -0.57900
O 	O 	0.82386 0.70942 0.12180 -0.49600
O 	O 	0.84006 0.72847 0.66300 -0.47300
O 	O 	0.85410 0.78288 0.66470 -0.32900
O 	O 	0.87188 0.76228 0.44960 -0.32000
O 	O 	0.69302 0.81425 0.78600 -0.46300
O 	O 	0.67663 0.81605 0.54840 -0.59600
O 	O 	0.63836 0.74384 0.53120 -0.32900
O 	O 	0.65993 0.77153 0.28420 -0.47100
O 	O 	0.65419 0.71997 0.32190 -0.26200
C 	C 	0.80321 0.72627 0.32670 -0.11000
C 	C 	0.81253 0.74627 0.45690 -0.04600
C 	C 	0.79487 0.75997 0.50520 -0.05200
H 	H 	0.80130 0.77300 0.59380 0.04300
C 	C 	0.76818 0.75471 0.42510 0.02500
C 	C 	0.76037 0.73694 0.29140 -0.08700
H 	H 	0.74340 0.73460 0.23110 0.06500
C 	C 	0.77718 0.72207 0.24160 0.00300
H 	H 	0.77080 0.70940 0.15150 0.03600
C 	C 	0.81949 0.70922 0.26480 0.43500
C 	C 	0.74842 0.76792 0.48040 0.03500
C 	C 	0.76054 0.79487 0.57730 -0.10900
H 	H 	0.78180 0.80530 0.60540 0.06000
C 	C 	0.74136 0.80590 0.63090 0.03000
H 	H 	0.74930 0.82230 0.70390 0.00900
C 	C 	0.71039 0.79318 0.57910 -0.11600
C 	C 	0.69822 0.76802 0.47950 -0.03600
C 	C 	0.71706 0.75481 0.43390 -0.06900
H 	H 	0.70810 0.73670 0.37090 0.07600
C 	C 	0.69184 0.80856 0.64000 0.40700
K 	K 	0.49373 0.08594 0.26491 0.65600
Eu	Eu	0.49432 0.00800 0.95142 1.96500
S 	S 	0.51459 0.08947 0.89751 0.54200
S 	S 	0.32558 0.08192 0.73213 0.54900
O 	O 	0.49395 0.02741 0.69293 -0.57900
O 	O 	0.49053 0.04275 0.45513 -0.49600
O 	O 	0.50673 0.06180 0.99633 -0.47100
O 	O 	0.52077 0.11621 0.99803 -0.32600
O 	O 	0.53855 0.09561 0.78293 -0.32000
O 	O 	0.35969 0.14758 0.11933 -0.46600
O 	O 	0.34330 0.14938 0.88173 -0.59700
O 	O 	0.30503 0.07717 0.86453 -0.32900
O 	O 	0.32660 0.10486 0.61753 -0.47200
O 	O 	0.32086 0.05330 0.65523 -0.26300
C 	C 	0.46988 0.05960 0.66003 -0.11000
C 	C 	0.47920 0.07960 0.79023 -0.04600
C 	C 	0.46154 0.09330 0.83853 -0.05000
H 	H 	0.46797 0.10633 0.92713 0.04300
C 	C 	0.43485 0.08804 0.75843 0.02300
C 	C 	0.42704 0.07027 0.62473 -0.08500
H 	H 	0.41007 0.06793 0.56443 0.06400
C 	C 	0.44385 0.05540 0.57493 0.00200
H 	H 	0.43747 0.04273 0.48483 0.03600
C 	C 	0.48616 0.04255 0.59813 0.43400
C 	C 	0.41509 0.10125 0.81373 0.04100
C 	C 	0.42721 0.12820 0.91063 -0.12000
H 	H 	0.44847 0.13863 0.93873 0.06500
C 	C 	0.40803 0.13923 0.96423 0.04800
H 	H 	0.41597 0.15563 0.03723 -0.00000
C 	C 	0.37706 0.12651 0.91243 -0.12300
C 	C 	0.36489 0.10135 0.81283 -0.03200
C 	C 	0.38373 0.08814 0.76723 -0.07300
H 	H 	0.37477 0.07003 0.70423 0.07700
C 	C 	0.35851 0.14189 0.97333 0.41400
K 	K 	0.16039 0.41928 0.59825 0.65600
Eu	Eu	0.16098 0.34134 0.28476 1.97200
S 	S 	0.18125 0.42281 0.23085 0.53900
S 	S 	0.99224 0.41526 0.06547 0.54500
O 	O 	0.16061 0.36075 0.02627 -0.57400
O 	O 	0.15719 0.37609 0.78847 -0.49500
O 	O 	0.17339 0.39514 0.32967 -0.47200
O 	O 	0.18743 0.44955 0.33137 -0.32800
O 	O 	0.20521 0.42895 0.11627 -0.31700
O 	O 	0.02635 0.48092 0.45267 -0.46100
O 	O 	0.00996 0.48272 0.21507 -0.59300
O 	O 	0.97169 0.41051 0.19787 -0.33000
O 	O 	0.99326 0.43820 0.95087 -0.47100
O 	O 	0.98752 0.38664 0.98857 -0.26300
C 	C 	0.13654 0.39294 0.99337 -0.12000
C 	C 	0.14586 0.41294 0.12357 -0.03600
C 	C 	0.12820 0.42664 0.17187 -0.06000
H 	H 	0.13463 0.43967 0.26047 0.04600
C 	C 	0.10151 0.42138 0.09177 0.03600
C 	C 	0.09370 0.40361 0.95807 -0.10000
H 	H 	0.07673 0.40127 0.89777 0.06900
C 	C 	0.11051 0.38874 0.90827 0.01200
H 	H 	0.10413 0.37607 0.81817 0.03300
C 	C 	0.15282 0.37589 0.93147 0.43100
C 	C 	0.08175 0.43459 0.14707 0.03200
C 	C 	0.09387 0.46154 0.24397 -0.10700
H 	H 	0.11513 0.47197 0.27207 0.05900
C 	C 	0.07469 0.47257 0.29757 0.02900
H 	H 	0.08263 0.48897 0.37057 0.01000
C 	C 	0.04372 0.45985 0.24577 -0.11500
C 	C 	0.03155 0.43469 0.14617 -0.03400
C 	C 	0.05039 0.42148 0.10057 -0.06700
H 	H 	0.04143 0.40337 0.03757 0.07600
C 	C 	0.02517 0.47523 0.30667 0.40600
