data_crystal

_cell_length_a 14.08450
_cell_length_b 14.08450
_cell_length_c 44.20360
_cell_angle_alpha 90.00000
_cell_angle_beta  90.00000
_cell_angle_gamma 90.00000

_symmetry_space_group_name_	'P 1'
_symmetry_space_group_name_H-M	'P 1'

loop_
_symmetry_equiv_pos_as_xyz
  x,y,z

loop_
_atom_site_label
_atom_site_type_symbol
_atom_site_fract_x
_atom_site_fract_y
_atom_site_fract_z
_atom_site_charge
N 	N 	0.61789 0.40450 0.24249 -0.10500
N 	N 	0.69881 0.37295 0.22902 -0.09400
N 	N 	0.57102 0.32172 0.20410 -0.24400
N 	N 	0.63184 0.61952 0.34950 -0.10400
N 	N 	0.71271 0.64707 0.36414 -0.09400
N 	N 	0.58262 0.69003 0.39003 -0.24300
C 	C 	0.66684 0.32415 0.20596 0.08900
H 	H 	0.70640 0.29390 0.19210 -0.01100
C 	C 	0.54273 0.37301 0.22747 0.09700
H 	H 	0.47980 0.38510 0.23260 -0.00900
C 	C 	0.62215 0.46067 0.26965 0.03600
C 	C 	0.62450 0.55967 0.26704 0.00200
C 	C 	0.62099 0.60843 0.23881 -0.05500
H 	H 	0.61780 0.57400 0.22090 0.05900
C 	C 	0.62230 0.70483 0.23790 -0.03200
H 	H 	0.61980 0.73580 0.21930 0.04500
C 	C 	0.62730 0.75895 0.26501 -0.03200
H 	H 	0.62800 0.82490 0.26400 0.04600
C 	C 	0.63100 0.71560 0.29235 -0.05300
H 	H 	0.63450 0.75190 0.30990 0.05900
C 	C 	0.62961 0.61448 0.29437 0.00200
C 	C 	0.63318 0.56576 0.32178 0.03600
C 	C 	0.63318 0.46694 0.32431 -0.00100
C 	C 	0.63944 0.41883 0.35256 -0.05500
H 	H 	0.64620 0.45370 0.37030 0.05700
C 	C 	0.63560 0.32250 0.35385 -0.04300
H 	H 	0.64040 0.29200 0.37240 0.04400
C 	C 	0.62430 0.26821 0.32715 -0.03200
H 	H 	0.61940 0.20250 0.32850 0.04200
C 	C 	0.62053 0.31100 0.29966 -0.05800
H 	H 	0.61450 0.27420 0.28230 0.06200
C 	C 	0.62579 0.41206 0.29717 0.00200
C 	C 	0.67945 0.68918 0.38835 0.08900
H 	H 	0.71830 0.71610 0.40310 -0.00700
C 	C 	0.55556 0.64521 0.36512 0.09200
H 	H 	0.49300 0.63360 0.35950 -0.01100
N 	N 	0.11789 0.90450 0.74249 -0.09700
N 	N 	0.19881 0.87295 0.72902 -0.09400
N 	N 	0.07102 0.82172 0.70410 -0.23900
N 	N 	0.13184 0.11952 0.84950 -0.09600
N 	N 	0.21271 0.14707 0.86414 -0.09500
N 	N 	0.08262 0.19003 0.89003 -0.23800
C 	C 	0.16684 0.82415 0.70596 0.09000
H 	H 	0.20640 0.79390 0.69210 -0.01200
C 	C 	0.04273 0.87301 0.72747 0.05600
H 	H 	0.97980 0.88510 0.73260 0.01900
C 	C 	0.12215 0.96067 0.76965 0.03100
C 	C 	0.12450 0.05967 0.76704 0.00100
C 	C 	0.12099 0.10843 0.73881 -0.05700
H 	H 	0.11780 0.07400 0.72090 0.05700
C 	C 	0.12230 0.20483 0.73790 -0.03400
H 	H 	0.11980 0.23580 0.71930 0.04200
C 	C 	0.12730 0.25895 0.76501 -0.03400
H 	H 	0.12800 0.32490 0.76400 0.04300
C 	C 	0.13100 0.21560 0.79235 -0.05600
H 	H 	0.13450 0.25190 0.80990 0.05800
C 	C 	0.12961 0.11448 0.79437 0.00000
C 	C 	0.13318 0.06576 0.82178 0.03100
C 	C 	0.13318 0.96694 0.82431 -0.00200
C 	C 	0.13944 0.91883 0.85256 -0.05900
H 	H 	0.14620 0.95370 0.87030 0.05600
C 	C 	0.13560 0.82250 0.85385 -0.04700
H 	H 	0.14040 0.79200 0.87240 0.04400
C 	C 	0.12430 0.76821 0.82715 -0.03400
H 	H 	0.11940 0.70250 0.82850 0.03900
C 	C 	0.12053 0.81100 0.79966 -0.06200
H 	H 	0.11450 0.77420 0.78230 0.06000
C 	C 	0.12579 0.91206 0.79717 0.00100
C 	C 	0.17945 0.18918 0.88835 0.08900
H 	H 	0.21830 0.21610 0.90310 -0.00800
C 	C 	0.05556 0.14521 0.86512 0.04800
H 	H 	0.99300 0.13360 0.85950 0.02000
N 	N 	0.88211 0.59550 0.74249 -0.11000
N 	N 	0.80119 0.62705 0.72902 -0.09400
N 	N 	0.92898 0.67828 0.70410 -0.24500
N 	N 	0.86816 0.38048 0.84950 -0.11000
N 	N 	0.78729 0.35293 0.86414 -0.09400
N 	N 	0.91738 0.30997 0.89003 -0.24400
C 	C 	0.83316 0.67585 0.70596 0.09000
H 	H 	0.79360 0.70610 0.69210 -0.01000
C 	C 	0.95727 0.62699 0.72747 0.13700
H 	H 	0.02020 0.61490 0.73260 -0.03800
C 	C 	0.87785 0.53933 0.76965 0.04100
C 	C 	0.87550 0.44033 0.76704 0.00300
C 	C 	0.87901 0.39157 0.73881 -0.05200
H 	H 	0.88220 0.42600 0.72090 0.06000
C 	C 	0.87770 0.29517 0.73790 -0.03100
H 	H 	0.88020 0.26420 0.71930 0.04800
C 	C 	0.87270 0.24105 0.76501 -0.03000
H 	H 	0.87200 0.17510 0.76400 0.05000
C 	C 	0.86900 0.28440 0.79235 -0.05000
H 	H 	0.86550 0.24810 0.80990 0.06000
C 	C 	0.87039 0.38552 0.79437 0.00200
C 	C 	0.86682 0.43424 0.82178 0.04000
C 	C 	0.86682 0.53306 0.82431 0.00000
C 	C 	0.86056 0.58117 0.85256 -0.05300
H 	H 	0.85380 0.54630 0.87030 0.05700
C 	C 	0.86440 0.67750 0.85385 -0.04100
H 	H 	0.85960 0.70800 0.87240 0.04500
C 	C 	0.87570 0.73179 0.82715 -0.03100
H 	H 	0.88060 0.79750 0.82850 0.04400
C 	C 	0.87947 0.68900 0.79966 -0.05500
H 	H 	0.88550 0.72580 0.78230 0.06400
C 	C 	0.87421 0.58794 0.79717 0.00300
C 	C 	0.82055 0.31082 0.88835 0.08800
H 	H 	0.78170 0.28390 0.90310 -0.00600
C 	C 	0.94444 0.35479 0.86512 0.13600
H 	H 	0.00700 0.36640 0.85950 -0.04100
N 	N 	0.38211 0.09550 0.24249 -0.10400
N 	N 	0.30119 0.12705 0.22902 -0.09500
N 	N 	0.42898 0.17828 0.20410 -0.24300
N 	N 	0.36816 0.88048 0.34950 -0.10300
N 	N 	0.28729 0.85293 0.36414 -0.09600
N 	N 	0.41738 0.80997 0.39003 -0.24200
C 	C 	0.33316 0.17585 0.20596 0.09000
H 	H 	0.29360 0.20610 0.19210 -0.01100
C 	C 	0.45727 0.12699 0.22747 0.09600
H 	H 	0.52020 0.11490 0.23260 -0.01000
C 	C 	0.37785 0.03933 0.26965 0.03600
C 	C 	0.37550 0.94033 0.26704 0.00100
C 	C 	0.37901 0.89157 0.23881 -0.05400
H 	H 	0.38220 0.92600 0.22090 0.05800
C 	C 	0.37770 0.79517 0.23790 -0.03300
H 	H 	0.38020 0.76420 0.21930 0.04500
C 	C 	0.37270 0.74105 0.26501 -0.03100
H 	H 	0.37200 0.67510 0.26400 0.04600
C 	C 	0.36900 0.78440 0.29235 -0.05400
H 	H 	0.36550 0.74810 0.30990 0.05900
C 	C 	0.37039 0.88552 0.29437 0.00200
C 	C 	0.36682 0.93424 0.32178 0.03400
C 	C 	0.36682 0.03306 0.32431 -0.00100
C 	C 	0.36056 0.08117 0.35256 -0.05700
H 	H 	0.35380 0.04630 0.37030 0.05700
C 	C 	0.36440 0.17750 0.35385 -0.04400
H 	H 	0.35960 0.20800 0.37240 0.04400
C 	C 	0.37570 0.23179 0.32715 -0.03300
H 	H 	0.38060 0.29750 0.32850 0.04200
C 	C 	0.37947 0.18900 0.29966 -0.05800
H 	H 	0.38550 0.22580 0.28230 0.06200
C 	C 	0.37421 0.08794 0.29717 0.00100
C 	C 	0.32055 0.81082 0.38835 0.08800
H 	H 	0.28170 0.78390 0.40310 -0.00900
C 	C 	0.44444 0.85479 0.36512 0.09200
H 	H 	0.50700 0.86640 0.35950 -0.01100
N 	N 	0.34550 0.86789 0.49249 -0.10800
N 	N 	0.37705 0.94881 0.47902 -0.09400
N 	N 	0.42828 0.82102 0.45410 -0.24400
N 	N 	0.13048 0.88184 0.59950 -0.09900
N 	N 	0.10293 0.96271 0.61414 -0.09700
N 	N 	0.05997 0.83262 0.64003 -0.24500
C 	C 	0.42585 0.91684 0.45596 0.09000
H 	H 	0.45610 0.95640 0.44210 -0.01100
C 	C 	0.37699 0.79273 0.47747 0.09800
H 	H 	0.36490 0.72980 0.48260 -0.01100
C 	C 	0.28933 0.87215 0.51965 0.06100
C 	C 	0.19033 0.87450 0.51704 -0.05600
C 	C 	0.14157 0.87099 0.48881 0.02900
H 	H 	0.17600 0.86780 0.47090 0.02700
C 	C 	0.04517 0.87230 0.48790 -0.15800
H 	H 	0.01420 0.86980 0.46930 0.08200
C 	C 	0.99105 0.87730 0.51501 0.13100
H 	H 	0.92510 0.87800 0.51400 -0.00700
C 	C 	0.03440 0.88100 0.54235 -0.20900
H 	H 	0.99810 0.88450 0.55990 0.12600
C 	C 	0.13552 0.87961 0.54437 0.07300
C 	C 	0.18424 0.88318 0.57178 0.00200
C 	C 	0.28306 0.88318 0.57431 0.02200
C 	C 	0.33117 0.88944 0.60256 -0.07400
H 	H 	0.29630 0.89620 0.62030 0.06300
C 	C 	0.42750 0.88560 0.60385 -0.02800
H 	H 	0.45800 0.89040 0.62240 0.03900
C 	C 	0.48179 0.87430 0.57715 -0.04800
H 	H 	0.54750 0.86940 0.57850 0.04700
C 	C 	0.43900 0.87053 0.54966 -0.04200
H 	H 	0.47580 0.86450 0.53230 0.05600
C 	C 	0.33794 0.87579 0.54717 -0.01900
C 	C 	0.06082 0.92945 0.63835 0.08600
H 	H 	0.03390 0.96830 0.65310 -0.01100
C 	C 	0.10479 0.80556 0.61512 0.08600
H 	H 	0.11640 0.74300 0.60950 -0.01100
N 	N 	0.84550 0.36789 0.99249 -0.10100
N 	N 	0.87705 0.44881 0.97902 -0.09100
N 	N 	0.92828 0.32102 0.95410 -0.23700
N 	N 	0.63048 0.38184 0.09950 -0.10500
N 	N 	0.60293 0.46271 0.11414 -0.09400
N 	N 	0.55997 0.33262 0.14003 -0.24300
C 	C 	0.92585 0.41684 0.95596 0.09200
H 	H 	0.95610 0.45640 0.94210 -0.00400
C 	C 	0.87699 0.29273 0.97747 0.09800
H 	H 	0.86490 0.22980 0.98260 -0.00500
C 	C 	0.78933 0.37215 0.01965 0.02400
C 	C 	0.69033 0.37450 0.01704 0.01200
C 	C 	0.64157 0.37099 0.98881 -0.06200
H 	H 	0.67600 0.36780 0.97090 0.06100
C 	C 	0.54517 0.37230 0.98790 -0.02600
H 	H 	0.51420 0.36980 0.96930 0.04300
C 	C 	0.49105 0.37730 0.01501 -0.03800
H 	H 	0.42510 0.37800 0.01400 0.04800
C 	C 	0.53440 0.38100 0.04235 -0.04600
H 	H 	0.49810 0.38450 0.05990 0.05600
C 	C 	0.63552 0.37961 0.04437 -0.00800
C 	C 	0.68424 0.38318 0.07178 0.04800
C 	C 	0.78306 0.38318 0.07431 -0.02800
C 	C 	0.83117 0.38944 0.10256 -0.01100
H 	H 	0.79630 0.39620 0.12030 0.04200
C 	C 	0.92750 0.38560 0.10385 -0.10700
H 	H 	0.95800 0.39040 0.12240 0.07500
C 	C 	0.98179 0.37430 0.07715 0.06900
H 	H 	0.04750 0.36940 0.07850 -0.00800
C 	C 	0.93900 0.37053 0.04966 -0.11700
H 	H 	0.97580 0.36450 0.03230 0.09100
C 	C 	0.83794 0.37579 0.04717 0.03500
C 	C 	0.56082 0.42945 0.13835 0.08900
H 	H 	0.53390 0.46830 0.15310 -0.00800
C 	C 	0.60479 0.30556 0.11512 0.09300
H 	H 	0.61640 0.24300 0.10950 -0.01200
N 	N 	0.15450 0.13211 0.99249 -0.10600
N 	N 	0.12295 0.05119 0.97902 -0.09700
N 	N 	0.07172 0.17898 0.95410 -0.24700
N 	N 	0.36952 0.11816 0.09950 -0.10100
N 	N 	0.39707 0.03729 0.11414 -0.09500
N 	N 	0.44003 0.16738 0.14003 -0.24200
C 	C 	0.07415 0.08316 0.95596 0.08900
H 	H 	0.04390 0.04360 0.94210 -0.01700
C 	C 	0.12301 0.20727 0.97747 0.09500
H 	H 	0.13510 0.27020 0.98260 -0.01300
C 	C 	0.21067 0.12785 0.01965 0.04800
C 	C 	0.30967 0.12550 0.01704 -0.00700
C 	C 	0.35843 0.12901 0.98881 -0.04800
H 	H 	0.32400 0.13220 0.97090 0.05600
C 	C 	0.45483 0.12770 0.98790 -0.03900
H 	H 	0.48580 0.13020 0.96930 0.04700
C 	C 	0.50895 0.12270 0.01501 -0.02600
H 	H 	0.57490 0.12200 0.01400 0.04500
C 	C 	0.46560 0.11900 0.04235 -0.06000
H 	H 	0.50190 0.11550 0.05990 0.06200
C 	C 	0.36448 0.12039 0.04437 0.01000
C 	C 	0.31576 0.11682 0.07178 0.02400
C 	C 	0.21694 0.11682 0.07431 0.02600
C 	C 	0.16883 0.11056 0.10256 -0.10000
H 	H 	0.20370 0.10380 0.12030 0.07100
C 	C 	0.07250 0.11440 0.10385 0.01800
H 	H 	0.04200 0.10960 0.12240 0.01500
C 	C 	0.01821 0.12570 0.07715 -0.13200
H 	H 	0.95250 0.13060 0.07850 0.09000
C 	C 	0.06100 0.12947 0.04966 -0.00100
H 	H 	0.02420 0.13550 0.03230 0.03400
C 	C 	0.16206 0.12421 0.04717 -0.03000
C 	C 	0.43918 0.07055 0.13835 0.08800
H 	H 	0.46610 0.03170 0.15310 -0.00800
C 	C 	0.39521 0.19444 0.11512 0.09100
H 	H 	0.38360 0.25700 0.10950 -0.01100
N 	N 	0.65450 0.63211 0.49249 -0.09900
N 	N 	0.62295 0.55119 0.47902 -0.09400
N 	N 	0.57172 0.67898 0.45410 -0.24300
N 	N 	0.86952 0.61816 0.59950 -0.10800
N 	N 	0.89707 0.53729 0.61414 -0.09200
N 	N 	0.94003 0.66738 0.64003 -0.23800
C 	C 	0.57415 0.58316 0.45596 0.09000
H 	H 	0.54390 0.54360 0.44210 -0.01100
C 	C 	0.62301 0.70727 0.47747 0.09400
H 	H 	0.63510 0.77020 0.48260 -0.00800
C 	C 	0.71067 0.62785 0.51965 0.01100
C 	C 	0.80967 0.62550 0.51704 0.06100
C 	C 	0.85843 0.62901 0.48881 -0.14000
H 	H 	0.82400 0.63220 0.47090 0.09000
C 	C 	0.95483 0.62770 0.48790 0.09400
H 	H 	0.98580 0.63020 0.46930 0.00800
C 	C 	0.00895 0.62270 0.51501 -0.19500
H 	H 	0.07490 0.62200 0.51400 0.10000
C 	C 	0.96560 0.61900 0.54235 0.10400
H 	H 	0.00190 0.61550 0.55990 -0.00900
C 	C 	0.86448 0.62039 0.54437 -0.07100
C 	C 	0.81576 0.61682 0.57178 0.07000
C 	C 	0.71694 0.61682 0.57431 -0.02400
C 	C 	0.66883 0.61056 0.60256 -0.03700
H 	H 	0.70370 0.60380 0.62030 0.05000
C 	C 	0.57250 0.61440 0.60385 -0.06000
H 	H 	0.54200 0.60960 0.62240 0.05000
C 	C 	0.51821 0.62570 0.57715 -0.01700
H 	H 	0.45250 0.63060 0.57850 0.03600
C 	C 	0.56100 0.62947 0.54966 -0.07500
H 	H 	0.52420 0.63550 0.53230 0.06800
C 	C 	0.66206 0.62421 0.54717 0.02300
C 	C 	0.93918 0.57055 0.63835 0.09200
H 	H 	0.96610 0.53170 0.65310 -0.00300
C 	C 	0.89521 0.69444 0.61512 0.09800
H 	H 	0.88360 0.75700 0.60950 -0.01000
Cu	Cu	0.50000 0.25000 0.17191 0.85400
Cu	Cu	0.00000 0.75000 0.67191 0.84600
Cu	Cu	0.50000 0.75000 0.42191 0.85400
Cu	Cu	0.00000 0.25000 0.92191 0.84400
N 	N 	0.38211 0.59550 0.75751 -0.10400
N 	N 	0.30119 0.62705 0.77098 -0.09500
N 	N 	0.42898 0.67828 0.79590 -0.24300
N 	N 	0.36816 0.38048 0.65050 -0.10300
N 	N 	0.28729 0.35293 0.63586 -0.09600
N 	N 	0.41738 0.30997 0.60997 -0.24200
C 	C 	0.33316 0.67585 0.79404 0.09000
H 	H 	0.29360 0.70610 0.80790 -0.01100
C 	C 	0.45727 0.62699 0.77253 0.09600
H 	H 	0.52020 0.61490 0.76740 -0.01000
C 	C 	0.37785 0.53933 0.73035 0.03500
C 	C 	0.37550 0.44033 0.73296 0.00200
C 	C 	0.37901 0.39157 0.76119 -0.05500
H 	H 	0.38220 0.42600 0.77910 0.05800
C 	C 	0.37770 0.29517 0.76210 -0.03300
H 	H 	0.38020 0.26420 0.78070 0.04500
C 	C 	0.37270 0.24105 0.73499 -0.03200
H 	H 	0.37200 0.17510 0.73600 0.04700
C 	C 	0.36900 0.28440 0.70765 -0.05300
H 	H 	0.36550 0.24810 0.69010 0.05900
C 	C 	0.37039 0.38552 0.70563 0.00100
C 	C 	0.36682 0.43424 0.67822 0.03500
C 	C 	0.36682 0.53306 0.67569 -0.00200
C 	C 	0.36056 0.58117 0.64744 -0.05600
H 	H 	0.35380 0.54630 0.62970 0.05600
C 	C 	0.36440 0.67750 0.64615 -0.04400
H 	H 	0.35960 0.70800 0.62760 0.04400
C 	C 	0.37570 0.73179 0.67285 -0.03200
H 	H 	0.38060 0.79750 0.67150 0.04200
C 	C 	0.37947 0.68900 0.70034 -0.05900
H 	H 	0.38550 0.72580 0.71770 0.06200
C 	C 	0.37421 0.58794 0.70283 0.00200
C 	C 	0.32055 0.31082 0.61165 0.08800
H 	H 	0.28170 0.28390 0.59690 -0.00900
C 	C 	0.44444 0.35479 0.63488 0.09200
H 	H 	0.50700 0.36640 0.64050 -0.01100
N 	N 	0.88211 0.09550 0.25751 -0.11000
N 	N 	0.80119 0.12705 0.27098 -0.09400
N 	N 	0.92898 0.17828 0.29590 -0.24500
N 	N 	0.86816 0.88048 0.15050 -0.11000
N 	N 	0.78729 0.85293 0.13586 -0.09500
N 	N 	0.91738 0.80997 0.10997 -0.24400
C 	C 	0.83316 0.17585 0.29404 0.09000
H 	H 	0.79360 0.20610 0.30790 -0.01000
C 	C 	0.95727 0.12699 0.27253 0.13700
H 	H 	0.02020 0.11490 0.26740 -0.03800
C 	C 	0.87785 0.03933 0.23035 0.04100
C 	C 	0.87550 0.94033 0.23296 0.00200
C 	C 	0.87901 0.89157 0.26119 -0.05100
H 	H 	0.88220 0.92600 0.27910 0.05900
C 	C 	0.87770 0.79517 0.26210 -0.03100
H 	H 	0.88020 0.76420 0.28070 0.04800
C 	C 	0.87270 0.74105 0.23499 -0.02900
H 	H 	0.87200 0.67510 0.23600 0.04900
C 	C 	0.86900 0.78440 0.20765 -0.05100
H 	H 	0.86550 0.74810 0.19010 0.06100
C 	C 	0.87039 0.88552 0.20563 0.00300
C 	C 	0.86682 0.93424 0.17822 0.03900
C 	C 	0.86682 0.03306 0.17569 0.00100
C 	C 	0.86056 0.08117 0.14744 -0.05300
H 	H 	0.85380 0.04630 0.12970 0.05800
C 	C 	0.86440 0.17750 0.14615 -0.04000
H 	H 	0.85960 0.20800 0.12760 0.04500
C 	C 	0.87570 0.23179 0.17285 -0.03100
H 	H 	0.88060 0.29750 0.17150 0.04500
C 	C 	0.87947 0.18900 0.20034 -0.05400
H 	H 	0.88550 0.22580 0.21770 0.06400
C 	C 	0.87421 0.08794 0.20283 0.00200
C 	C 	0.82055 0.81082 0.11165 0.08800
H 	H 	0.78170 0.78390 0.09690 -0.00600
C 	C 	0.94444 0.85479 0.13488 0.13500
H 	H 	0.00700 0.86640 0.14050 -0.04100
N 	N 	0.11789 0.40450 0.25751 -0.09700
N 	N 	0.19881 0.37295 0.27098 -0.09400
N 	N 	0.07102 0.32172 0.29590 -0.23900
N 	N 	0.13184 0.61952 0.15050 -0.09600
N 	N 	0.21271 0.64707 0.13586 -0.09500
N 	N 	0.08262 0.69003 0.10997 -0.23800
C 	C 	0.16684 0.32415 0.29404 0.09000
H 	H 	0.20640 0.29390 0.30790 -0.01200
C 	C 	0.04273 0.37301 0.27253 0.05600
H 	H 	0.97980 0.38510 0.26740 0.02000
C 	C 	0.12215 0.46067 0.23035 0.03100
C 	C 	0.12450 0.55967 0.23296 0.00100
C 	C 	0.12099 0.60843 0.26119 -0.05700
H 	H 	0.11780 0.57400 0.27910 0.05700
C 	C 	0.12230 0.70483 0.26210 -0.03400
H 	H 	0.11980 0.73580 0.28070 0.04200
C 	C 	0.12730 0.75895 0.23499 -0.03400
H 	H 	0.12800 0.82490 0.23600 0.04300
C 	C 	0.13100 0.71560 0.20765 -0.05600
H 	H 	0.13450 0.75190 0.19010 0.05800
C 	C 	0.12961 0.61448 0.20563 0.00000
C 	C 	0.13318 0.56576 0.17822 0.03100
C 	C 	0.13318 0.46694 0.17569 -0.00200
C 	C 	0.13944 0.41883 0.14744 -0.05900
H 	H 	0.14620 0.45370 0.12970 0.05600
C 	C 	0.13560 0.32250 0.14615 -0.04700
H 	H 	0.14040 0.29200 0.12760 0.04400
C 	C 	0.12430 0.26821 0.17285 -0.03400
H 	H 	0.11940 0.20250 0.17150 0.03900
C 	C 	0.12053 0.31100 0.20034 -0.06200
H 	H 	0.11450 0.27420 0.21770 0.06000
C 	C 	0.12579 0.41206 0.20283 0.00100
C 	C 	0.17945 0.68918 0.11165 0.08900
H 	H 	0.21830 0.71610 0.09690 -0.00800
C 	C 	0.05556 0.64521 0.13488 0.04800
H 	H 	0.99300 0.63360 0.14050 0.02000
N 	N 	0.61789 0.90450 0.75751 -0.10400
N 	N 	0.69881 0.87295 0.77098 -0.09300
N 	N 	0.57102 0.82172 0.79590 -0.24300
N 	N 	0.63184 0.11952 0.65050 -0.10300
N 	N 	0.71271 0.14707 0.63586 -0.09300
N 	N 	0.58262 0.19003 0.60997 -0.24200
C 	C 	0.66684 0.82415 0.79404 0.09000
H 	H 	0.70640 0.79390 0.80790 -0.01100
C 	C 	0.54273 0.87301 0.77253 0.09600
H 	H 	0.47980 0.88510 0.76740 -0.00900
C 	C 	0.62215 0.96067 0.73035 0.03600
C 	C 	0.62450 0.05967 0.73296 0.00200
C 	C 	0.62099 0.10843 0.76119 -0.05500
H 	H 	0.61780 0.07400 0.77910 0.05900
C 	C 	0.62230 0.20483 0.76210 -0.03200
H 	H 	0.61980 0.23580 0.78070 0.04500
C 	C 	0.62730 0.25895 0.73499 -0.03200
H 	H 	0.62800 0.32490 0.73600 0.04600
C 	C 	0.63100 0.21560 0.70765 -0.05300
H 	H 	0.63450 0.25190 0.69010 0.05900
C 	C 	0.62961 0.11448 0.70563 0.00200
C 	C 	0.63318 0.06576 0.67822 0.03600
C 	C 	0.63318 0.96694 0.67569 -0.00100
C 	C 	0.63944 0.91883 0.64744 -0.05500
H 	H 	0.64620 0.95370 0.62970 0.05700
C 	C 	0.63560 0.82250 0.64615 -0.04300
H 	H 	0.64040 0.79200 0.62760 0.04400
C 	C 	0.62430 0.76821 0.67285 -0.03200
H 	H 	0.61940 0.70250 0.67150 0.04200
C 	C 	0.62053 0.81100 0.70034 -0.05800
H 	H 	0.61450 0.77420 0.71770 0.06200
C 	C 	0.62579 0.91206 0.70283 0.00200
C 	C 	0.67945 0.18918 0.61165 0.08900
H 	H 	0.71830 0.21610 0.59690 -0.00700
C 	C 	0.55556 0.14521 0.63488 0.09200
H 	H 	0.49300 0.13360 0.64050 -0.01100
N 	N 	0.65450 0.13211 0.50751 -0.09900
N 	N 	0.62295 0.05119 0.52098 -0.09400
N 	N 	0.57172 0.17898 0.54590 -0.24300
N 	N 	0.86952 0.11816 0.40050 -0.10800
N 	N 	0.89707 0.03729 0.38586 -0.09200
N 	N 	0.94003 0.16738 0.35997 -0.23800
C 	C 	0.57415 0.08316 0.54404 0.09000
H 	H 	0.54390 0.04360 0.55790 -0.01100
C 	C 	0.62301 0.20727 0.52253 0.09400
H 	H 	0.63510 0.27020 0.51740 -0.00800
C 	C 	0.71067 0.12785 0.48035 0.01100
C 	C 	0.80967 0.12550 0.48296 0.06100
C 	C 	0.85843 0.12901 0.51119 -0.14000
H 	H 	0.82400 0.13220 0.52910 0.08900
C 	C 	0.95483 0.12770 0.51210 0.09400
H 	H 	0.98580 0.13020 0.53070 0.00800
C 	C 	0.00895 0.12270 0.48499 -0.19500
H 	H 	0.07490 0.12200 0.48600 0.10000
C 	C 	0.96560 0.11900 0.45765 0.10400
H 	H 	0.00190 0.11550 0.44010 -0.00900
C 	C 	0.86448 0.12039 0.45563 -0.07100
C 	C 	0.81576 0.11682 0.42822 0.07000
C 	C 	0.71694 0.11682 0.42569 -0.02400
C 	C 	0.66883 0.11056 0.39744 -0.03800
H 	H 	0.70370 0.10380 0.37970 0.05000
C 	C 	0.57250 0.11440 0.39615 -0.06000
H 	H 	0.54200 0.10960 0.37760 0.05000
C 	C 	0.51821 0.12570 0.42285 -0.01700
H 	H 	0.45250 0.13060 0.42150 0.03600
C 	C 	0.56100 0.12947 0.45034 -0.07500
H 	H 	0.52420 0.13550 0.46770 0.06800
C 	C 	0.66206 0.12421 0.45283 0.02300
C 	C 	0.93918 0.07055 0.36165 0.09200
H 	H 	0.96610 0.03170 0.34690 -0.00300
C 	C 	0.89521 0.19444 0.38488 0.09800
H 	H 	0.88360 0.25700 0.39050 -0.01000
N 	N 	0.15450 0.63211 0.00751 -0.10600
N 	N 	0.12295 0.55119 0.02098 -0.09700
N 	N 	0.07172 0.67898 0.04590 -0.24700
N 	N 	0.36952 0.61816 0.90050 -0.10100
N 	N 	0.39707 0.53729 0.88586 -0.09500
N 	N 	0.44003 0.66738 0.85997 -0.24200
C 	C 	0.07415 0.58316 0.04404 0.08900
H 	H 	0.04390 0.54360 0.05790 -0.01700
C 	C 	0.12301 0.70727 0.02253 0.09500
H 	H 	0.13510 0.77020 0.01740 -0.01300
C 	C 	0.21067 0.62785 0.98035 0.04800
C 	C 	0.30967 0.62550 0.98296 -0.00700
C 	C 	0.35843 0.62901 0.01119 -0.04800
H 	H 	0.32400 0.63220 0.02910 0.05600
C 	C 	0.45483 0.62770 0.01210 -0.03900
H 	H 	0.48580 0.63020 0.03070 0.04700
C 	C 	0.50895 0.62270 0.98499 -0.02600
H 	H 	0.57490 0.62200 0.98600 0.04500
C 	C 	0.46560 0.61900 0.95765 -0.06000
H 	H 	0.50190 0.61550 0.94010 0.06200
C 	C 	0.36448 0.62039 0.95563 0.01000
C 	C 	0.31576 0.61682 0.92822 0.02400
C 	C 	0.21694 0.61682 0.92569 0.02600
C 	C 	0.16883 0.61056 0.89744 -0.10000
H 	H 	0.20370 0.60380 0.87970 0.07200
C 	C 	0.07250 0.61440 0.89615 0.01900
H 	H 	0.04200 0.60960 0.87760 0.01500
C 	C 	0.01821 0.62570 0.92285 -0.13300
H 	H 	0.95250 0.63060 0.92150 0.09000
C 	C 	0.06100 0.62947 0.95034 -0.00000
H 	H 	0.02420 0.63550 0.96770 0.03300
C 	C 	0.16206 0.62421 0.95283 -0.03000
C 	C 	0.43918 0.57055 0.86165 0.08800
H 	H 	0.46610 0.53170 0.84690 -0.00800
C 	C 	0.39521 0.69444 0.88488 0.09100
H 	H 	0.38360 0.75700 0.89050 -0.01100
N 	N 	0.84550 0.86789 0.00751 -0.10100
N 	N 	0.87705 0.94881 0.02098 -0.09200
N 	N 	0.92828 0.82102 0.04590 -0.23700
N 	N 	0.63048 0.88184 0.90050 -0.10500
N 	N 	0.60293 0.96271 0.88586 -0.09400
N 	N 	0.55997 0.83262 0.85997 -0.24300
C 	C 	0.92585 0.91684 0.04404 0.09200
H 	H 	0.95610 0.95640 0.05790 -0.00400
C 	C 	0.87699 0.79273 0.02253 0.09800
H 	H 	0.86490 0.72980 0.01740 -0.00500
C 	C 	0.78933 0.87215 0.98035 0.02400
C 	C 	0.69033 0.87450 0.98296 0.01100
C 	C 	0.64157 0.87099 0.01119 -0.06200
H 	H 	0.67600 0.86780 0.02910 0.06100
C 	C 	0.54517 0.87230 0.01210 -0.02600
H 	H 	0.51420 0.86980 0.03070 0.04200
C 	C 	0.49105 0.87730 0.98499 -0.03800
H 	H 	0.42510 0.87800 0.98600 0.04800
C 	C 	0.53440 0.88100 0.95765 -0.04600
H 	H 	0.49810 0.88450 0.94010 0.05600
C 	C 	0.63552 0.87961 0.95563 -0.00800
C 	C 	0.68424 0.88318 0.92822 0.04800
C 	C 	0.78306 0.88318 0.92569 -0.02800
C 	C 	0.83117 0.88944 0.89744 -0.01100
H 	H 	0.79630 0.89620 0.87970 0.04200
C 	C 	0.92750 0.88560 0.89615 -0.10600
H 	H 	0.95800 0.89040 0.87760 0.07400
C 	C 	0.98179 0.87430 0.92285 0.06800
H 	H 	0.04750 0.86940 0.92150 -0.00700
C 	C 	0.93900 0.87053 0.95034 -0.11700
H 	H 	0.97580 0.86450 0.96770 0.09100
C 	C 	0.83794 0.87579 0.95283 0.03400
C 	C 	0.56082 0.92945 0.86165 0.08900
H 	H 	0.53390 0.96830 0.84690 -0.00800
C 	C 	0.60479 0.80556 0.88488 0.09300
H 	H 	0.61640 0.74300 0.89050 -0.01200
N 	N 	0.34550 0.36789 0.50751 -0.10800
N 	N 	0.37705 0.44881 0.52098 -0.09400
N 	N 	0.42828 0.32102 0.54590 -0.24400
N 	N 	0.13048 0.38184 0.40050 -0.09900
N 	N 	0.10293 0.46271 0.38586 -0.09700
N 	N 	0.05997 0.33262 0.35997 -0.24500
C 	C 	0.42585 0.41684 0.54404 0.09000
H 	H 	0.45610 0.45640 0.55790 -0.01100
C 	C 	0.37699 0.29273 0.52253 0.09800
H 	H 	0.36490 0.22980 0.51740 -0.01100
C 	C 	0.28933 0.37215 0.48035 0.06100
C 	C 	0.19033 0.37450 0.48296 -0.05700
C 	C 	0.14157 0.37099 0.51119 0.03100
H 	H 	0.17600 0.36780 0.52910 0.02700
C 	C 	0.04517 0.37230 0.51210 -0.16000
H 	H 	0.01420 0.36980 0.53070 0.08300
C 	C 	0.99105 0.37730 0.48499 0.13300
H 	H 	0.92510 0.37800 0.48600 -0.00800
C 	C 	0.03440 0.38100 0.45765 -0.21200
H 	H 	0.99810 0.38450 0.44010 0.12800
C 	C 	0.13552 0.37961 0.45563 0.07500
C 	C 	0.18424 0.38318 0.42822 0.00100
C 	C 	0.28306 0.38318 0.42569 0.02200
C 	C 	0.33117 0.38944 0.39744 -0.07400
H 	H 	0.29630 0.39620 0.37970 0.06400
C 	C 	0.42750 0.38560 0.39615 -0.02800
H 	H 	0.45800 0.39040 0.37760 0.03900
C 	C 	0.48179 0.37430 0.42285 -0.04800
H 	H 	0.54750 0.36940 0.42150 0.04700
C 	C 	0.43900 0.37053 0.45034 -0.04100
H 	H 	0.47580 0.36450 0.46770 0.05600
C 	C 	0.33794 0.37579 0.45283 -0.02000
C 	C 	0.06082 0.42945 0.36165 0.08600
H 	H 	0.03390 0.46830 0.34690 -0.01100
C 	C 	0.10479 0.30556 0.38488 0.08600
H 	H 	0.11640 0.24300 0.39050 -0.01100
Cu	Cu	0.50000 0.75000 0.82809 0.85400
Cu	Cu	0.00000 0.25000 0.32809 0.84600
Cu	Cu	0.50000 0.25000 0.57809 0.85400
Cu	Cu	0.00000 0.75000 0.07809 0.84500
