data_crystal

_cell_length_a 9.11300
_cell_length_b 15.90400
_cell_length_c 16.01400
_cell_angle_alpha 73.48800
_cell_angle_beta  74.01600
_cell_angle_gamma 76.26400

_symmetry_space_group_name_	'P 1'
_symmetry_space_group_name_H-M	'P 1'

loop_
_symmetry_equiv_pos_as_xyz
  x,y,z

loop_
_atom_site_label
_atom_site_type_symbol
_atom_site_fract_x
_atom_site_fract_y
_atom_site_fract_z
_atom_site_charge
N 	N 	0.78940 0.82980 0.48790 -0.09900
N 	N 	0.71940 0.91780 0.47290 -0.19900
N 	N 	0.97410 0.91590 0.41430 -0.12000
N 	N 	0.64660 0.09580 0.43350 -0.21600
N 	N 	0.30780 0.61140 0.47570 -0.24500
N 	N 	0.18120 0.01800 0.13500 -0.17400
N 	N 	0.16860 0.98930 0.06560 -0.16700
N 	N 	0.39480 0.91800 0.09790 -0.12400
N 	N 	0.19100 0.91410 0.93400 -0.22200
N 	N 	0.46190 0.99680 0.37360 -0.19100
N 	N 	0.71850 0.63280 0.35660 -0.09700
N 	N 	0.63700 0.56380 0.38410 -0.20300
N 	N 	0.67420 0.60540 0.23590 -0.13000
N 	N 	0.45360 0.44760 0.40160 -0.23000
N 	N 	0.92470 0.88090 0.09580 -0.21600
C 	C 	0.60930 0.18520 0.41560 0.03700
H 	H 	0.50620 0.21040 0.43370 0.00700
C 	C 	0.71230 0.24040 0.37300 -0.06700
H 	H 	0.67960 0.30180 0.36180 0.05700
C 	C 	0.86470 0.20570 0.34660 -0.05900
H 	H 	0.93810 0.24230 0.31670 0.05700
C 	C 	0.90610 0.11370 0.36600 0.04600
H 	H 	0.00940 0.08760 0.35030 -0.01700
C 	C 	0.79700 0.06180 0.40770 -0.07300
C 	C 	0.83210 0.96430 0.43000 0.17000
C 	C 	0.93970 0.83320 0.45140 0.09400
C 	C 	0.16300 0.60050 0.50290 0.12600
H 	H 	0.14240 0.54320 0.52990 -0.02900
C 	C 	0.03860 0.66950 0.49370 -0.22500
H 	H 	0.93790 0.65780 0.51330 0.13100
C 	C 	0.06430 0.75440 0.45590 0.07900
C 	C 	0.21550 0.76600 0.42470 -0.16100
H 	H 	0.23970 0.82230 0.39620 0.09800
C 	C 	0.33130 0.69320 0.43610 0.10000
H 	H 	0.43330 0.70250 0.41430 -0.01000
C 	C 	0.20100 0.88050 0.86510 0.13400
H 	H 	0.11590 0.89590 0.83900 -0.00900
C 	C 	0.32340 0.82650 0.83090 -0.18700
H 	H 	0.32320 0.80530 0.78250 0.10300
C 	C 	0.45110 0.80230 0.86820 0.11100
H 	H 	0.53890 0.76470 0.84550 -0.00400
C 	C 	0.44480 0.83590 0.94140 -0.17400
H 	H 	0.52850 0.82070 0.96860 0.12200
C 	C 	0.31560 0.89070 0.97190 0.15000
C 	C 	0.29730 0.93120 0.04520 0.01200
C 	C 	0.31890 0.97280 0.15170 0.12000
C 	C 	0.52330 0.92860 0.33550 0.12400
H 	H 	0.59710 0.88450 0.36010 -0.01400
C 	C 	0.48490 0.91940 0.26240 -0.18300
H 	H 	0.53250 0.87050 0.23800 0.10500
C 	C 	0.37410 0.98370 0.22510 0.16400
C 	C 	0.31460 0.05570 0.26130 -0.24000
H 	H 	0.24350 0.10130 0.23610 0.09900
C 	C 	0.35840 0.06180 0.33490 0.03700
H 	H 	0.31590 0.11160 0.35850 -0.00100
C 	C 	0.36250 0.38820 0.41390 0.07600
H 	H 	0.31550 0.36220 0.47200 -0.00600
C 	C 	0.33590 0.36410 0.34490 -0.14200
H 	H 	0.27210 0.32260 0.35560 0.07300
C 	C 	0.40590 0.40280 0.25830 0.04700
H 	H 	0.39060 0.38720 0.20990 0.00200
C 	C 	0.49810 0.46420 0.24510 -0.12300
H 	H 	0.54540 0.49110 0.18740 0.07100
C 	C 	0.52000 0.48570 0.31700 0.05000
C 	C 	0.61340 0.55040 0.31010 0.06700
C 	C 	0.73740 0.65460 0.26890 0.08400
C 	C 	0.92630 0.85700 0.18270 0.08600
H 	H 	0.96880 0.89160 0.20480 0.02000
C 	C 	0.86860 0.78400 0.24160 -0.13900
H 	H 	0.87130 0.77090 0.30160 0.09300
C 	C 	0.80720 0.73110 0.21060 0.06700
C 	C 	0.80540 0.75560 0.12070 -0.14500
H 	H 	0.76340 0.72240 0.09680 0.08100
C 	C 	0.86550 0.82860 0.06750 0.08900
H 	H 	0.86490 0.84260 0.00710 -0.01600
N 	N 	0.21060 0.17020 0.51210 -0.10000
N 	N 	0.28060 0.08220 0.52710 -0.19100
N 	N 	0.02590 0.08410 0.58570 -0.13000
N 	N 	0.35340 0.90420 0.56650 -0.25100
N 	N 	0.69220 0.38860 0.52430 -0.23000
N 	N 	0.81880 0.98200 0.86500 -0.03100
N 	N 	0.83140 0.01070 0.93440 -0.22500
N 	N 	0.60520 0.08200 0.90210 -0.12800
N 	N 	0.80900 0.08590 0.06600 -0.22500
N 	N 	0.53810 0.00320 0.62640 -0.26800
N 	N 	0.28150 0.36720 0.64340 -0.10000
N 	N 	0.36300 0.43620 0.61590 -0.20300
N 	N 	0.32580 0.39460 0.76410 -0.12400
N 	N 	0.54640 0.55240 0.59840 -0.23100
N 	N 	0.07530 0.11910 0.90420 -0.23200
C 	C 	0.39070 0.81480 0.58440 0.13700
H 	H 	0.49380 0.78960 0.56630 -0.02200
C 	C 	0.28770 0.75960 0.62700 -0.23400
H 	H 	0.32040 0.69820 0.63820 0.11400
C 	C 	0.13530 0.79430 0.65340 0.17700
H 	H 	0.06190 0.75770 0.68330 -0.03900
C 	C 	0.09390 0.88630 0.63400 -0.29000
H 	H 	0.99060 0.91240 0.64970 0.17300
C 	C 	0.20300 0.93820 0.59230 0.19900
C 	C 	0.16790 0.03570 0.57000 -0.03400
C 	C 	0.06030 0.16680 0.54860 0.05300
C 	C 	0.83700 0.39950 0.49710 0.06500
H 	H 	0.85760 0.45680 0.47010 0.00500
C 	C 	0.96140 0.33050 0.50630 -0.08200
H 	H 	0.06210 0.34220 0.48670 0.04200
C 	C 	0.93570 0.24560 0.54410 0.08500
C 	C 	0.78450 0.23400 0.57530 -0.14800
H 	H 	0.76030 0.17770 0.60380 0.09600
C 	C 	0.66870 0.30680 0.56390 0.09300
H 	H 	0.56670 0.29750 0.58570 -0.00700
C 	C 	0.79900 0.11950 0.13490 0.07300
H 	H 	0.88410 0.10410 0.16100 -0.00700
C 	C 	0.67660 0.17350 0.16910 -0.13200
H 	H 	0.67680 0.19470 0.21750 0.07600
C 	C 	0.54890 0.19770 0.13180 0.01600
H 	H 	0.46110 0.23530 0.15450 0.01400
C 	C 	0.55520 0.16410 0.05860 -0.07600
H 	H 	0.47150 0.17930 0.03140 0.03800
C 	C 	0.68440 0.10930 0.02810 -0.03200
C 	C 	0.70270 0.06880 0.95480 0.14300
C 	C 	0.68110 0.02720 0.84830 0.05400
C 	C 	0.47670 0.07140 0.66450 0.05700
H 	H 	0.40290 0.11550 0.63990 -0.00000
C 	C 	0.51510 0.08060 0.73760 -0.11600
H 	H 	0.46750 0.12950 0.76200 0.08300
C 	C 	0.62590 0.01630 0.77490 -0.01300
C 	C 	0.68540 0.94430 0.73870 -0.04300
H 	H 	0.75650 0.89870 0.76390 0.06400
C 	C 	0.64160 0.93820 0.66510 0.10900
H 	H 	0.68410 0.88840 0.64150 -0.00700
C 	C 	0.63750 0.61180 0.58610 0.08100
H 	H 	0.68450 0.63780 0.52800 -0.00500
C 	C 	0.66410 0.63590 0.65510 -0.14100
H 	H 	0.72790 0.67740 0.64440 0.08500
C 	C 	0.59410 0.59720 0.74170 0.05600
H 	H 	0.60940 0.61280 0.79010 0.01800
C 	C 	0.50190 0.53580 0.75490 -0.12300
H 	H 	0.45460 0.50890 0.81260 0.08700
C 	C 	0.48000 0.51430 0.68300 0.05500
C 	C 	0.38660 0.44960 0.68990 0.06700
C 	C 	0.26260 0.34540 0.73110 0.08200
C 	C 	0.07370 0.14300 0.81730 0.08600
H 	H 	0.03120 0.10840 0.79520 -0.01700
C 	C 	0.13140 0.21600 0.75840 -0.14900
H 	H 	0.12870 0.22910 0.69840 0.08700
C 	C 	0.19280 0.26890 0.78940 0.07000
C 	C 	0.19460 0.24440 0.87930 -0.14500
H 	H 	0.23660 0.27760 0.90320 0.09800
C 	C 	0.13450 0.17140 0.93250 0.08900
H 	H 	0.13510 0.15740 0.99290 0.00300
Ni	Ni	0.50000 -0.00000 0.50000 1.02600
Ni	Ni	0.50000 0.50000 0.50000 1.05500
Ni	Ni	-0.00000 0.00000 -0.00000 0.98800
