data_crystal

_cell_length_a 9.45000
_cell_length_b 9.75000
_cell_length_c 10.29000
_cell_angle_alpha 96.11000
_cell_angle_beta  90.40000
_cell_angle_gamma 116.54000

_symmetry_space_group_name_	'P 1'
_symmetry_space_group_name_H-M	'P 1'

loop_
_symmetry_equiv_pos_as_xyz
  x,y,z

loop_
_atom_site_label
_atom_site_type_symbol
_atom_site_fract_x
_atom_site_fract_y
_atom_site_fract_z
_atom_site_charge
Cd	Cd	0.23604 0.05758 0.02924 1.20900
O 	O 	0.30540 0.12500 0.26040 -0.35700
O 	O 	0.36270 0.95120 0.15400 -0.39000
O 	O 	0.98400 0.86960 0.08150 -0.45600
O 	O 	0.77750 0.71820 0.95000 -0.42500
N 	N 	0.18860 0.89820 0.83600 -0.25500
C 	C 	0.36400 0.03000 0.25980 0.28200
C 	C 	0.43300 0.01250 0.38320 -0.06400
C 	C 	0.44400 0.10600 0.49870 -0.03200
C 	C 	0.48900 0.90700 0.38730 -0.01500
C 	C 	0.90100 0.74100 0.01490 0.34000
C 	C 	0.94870 0.61640 0.00850 -0.09100
C 	C 	0.05900 0.61730 0.10300 -0.02700
C 	C 	0.10700 0.50500 0.09400 -0.01200
C 	C 	0.08900 0.89400 0.73980 0.08000
C 	C 	0.05300 0.79400 0.62520 -0.15800
C 	C 	0.12100 0.69300 0.60880 0.15100
C 	C 	0.22300 0.70100 0.70750 -0.20600
C 	C 	0.25500 0.80100 0.81840 0.11600
C 	C 	0.07600 0.57700 0.48860 -0.19300
H 	H 	0.39750 0.17230 0.49780 0.05200
H 	H 	0.47930 0.84300 0.30810 0.03600
H 	H 	0.09960 0.70020 0.17440 0.04400
H 	H 	0.18380 0.51020 0.15870 0.04400
H 	H 	0.04390 0.96560 0.74840 -0.00500
H 	H 	0.98280 0.79550 0.55540 0.08100
H 	H 	0.27100 0.63610 0.69790 0.10300
H 	H 	0.32650 0.80260 0.88720 -0.03500
H 	H 	0.04770 0.61970 0.41670 0.08700
H 	H 	0.16090 0.55700 0.46470 0.09300
Cd	Cd	0.76396 0.94242 0.97076 1.21000
O 	O 	0.69460 0.87500 0.73960 -0.35600
O 	O 	0.63730 0.04880 0.84600 -0.38900
O 	O 	0.01600 0.13040 0.91850 -0.45500
O 	O 	0.22250 0.28180 0.05000 -0.42400
N 	N 	0.81140 0.10180 0.16400 -0.25400
C 	C 	0.63600 0.97000 0.74020 0.28200
C 	C 	0.56700 0.98750 0.61680 -0.06400
C 	C 	0.55600 0.89400 0.50130 -0.03200
C 	C 	0.51100 0.09300 0.61270 -0.01500
C 	C 	0.09900 0.25900 0.98510 0.34000
C 	C 	0.05130 0.38360 0.99150 -0.09100
C 	C 	0.94100 0.38270 0.89700 -0.02700
C 	C 	0.89300 0.49500 0.90600 -0.01200
C 	C 	0.91100 0.10600 0.26020 0.08000
C 	C 	0.94700 0.20600 0.37480 -0.15800
C 	C 	0.87900 0.30700 0.39120 0.15100
C 	C 	0.77700 0.29900 0.29250 -0.20600
C 	C 	0.74500 0.19900 0.18160 0.11600
C 	C 	0.92400 0.42300 0.51140 -0.19300
H 	H 	0.60250 0.82770 0.50220 0.05200
H 	H 	0.52070 0.15700 0.69190 0.03600
H 	H 	0.90040 0.29980 0.82560 0.04400
H 	H 	0.81620 0.48980 0.84130 0.04400
H 	H 	0.95610 0.03440 0.25160 -0.00500
H 	H 	0.01720 0.20450 0.44460 0.08100
H 	H 	0.72900 0.36390 0.30210 0.10300
H 	H 	0.67350 0.19740 0.11280 -0.03500
H 	H 	0.95230 0.38030 0.58330 0.08700
H 	H 	0.83910 0.44300 0.53530 0.09300
