data_crystal

_cell_length_a 33.32880
_cell_length_b 33.32880
_cell_length_c 27.85300
_cell_angle_alpha 90.00000
_cell_angle_beta  90.00000
_cell_angle_gamma 90.02430

_symmetry_space_group_name_	'P 1'
_symmetry_space_group_name_H-M	'P 1'

loop_
_symmetry_equiv_pos_as_xyz
  x,y,z

loop_
_atom_site_label
_atom_site_type_symbol
_atom_site_fract_x
_atom_site_fract_y
_atom_site_fract_z
_atom_site_charge
Co	Co	0.25037 0.24259 0.74999 1.10600
Co	Co	0.24967 0.25741 0.24999 1.10600
Co	Co	0.00034 0.49253 0.70779 1.19200
Co	Co	0.49969 0.00747 0.20779 1.19200
Co	Co	0.00034 0.49253 0.79221 1.19200
Co	Co	0.49969 0.00747 0.29221 1.19200
H 	H 	0.35983 0.35117 0.82724 0.04900
H 	H 	0.41119 0.40409 0.82750 0.03100
H 	H 	0.50041 0.06228 0.54492 0.04500
H 	H 	0.00052 0.05578 0.63171 0.02800
H 	H 	0.14005 0.14898 0.32724 0.05000
H 	H 	0.08865 0.09610 0.32750 0.03100
H 	H 	0.00033 0.43772 0.04492 0.04500
H 	H 	0.50007 0.44422 0.13171 0.02800
H 	H 	0.14077 0.13408 0.67276 0.05000
H 	H 	0.08909 0.08146 0.67250 0.03500
H 	H 	-0.00012 0.43378 0.96726 0.05300
H 	H 	0.00027 0.41315 0.83714 0.09700
H 	H 	0.02710 0.39998 0.88975 0.07800
H 	H 	0.47305 0.40004 0.88953 0.07800
H 	H 	0.35941 0.36577 0.17276 0.05000
H 	H 	0.41112 0.41836 0.17250 0.03500
H 	H 	0.49955 0.06621 0.46726 0.05300
H 	H 	0.49951 0.08685 0.33714 0.09700
H 	H 	0.47228 0.09982 0.38955 0.07800
H 	H 	0.02634 0.10016 0.38972 0.07800
H 	H 	0.14005 0.14898 0.17276 0.05000
H 	H 	0.08865 0.09610 0.17250 0.03100
H 	H 	0.00033 0.43772 0.45508 0.04500
H 	H 	0.50007 0.44422 0.36829 0.02800
H 	H 	0.35983 0.35117 0.67276 0.04900
H 	H 	0.41120 0.40409 0.67250 0.03100
H 	H 	0.50041 0.06228 0.95508 0.04500
H 	H 	0.00052 0.05578 0.86829 0.02800
H 	H 	0.35941 0.36577 0.32724 0.05000
H 	H 	0.41112 0.41836 0.32750 0.03500
H 	H 	0.49955 0.06621 0.03274 0.05300
H 	H 	0.49951 0.08685 0.16286 0.09700
H 	H 	0.47228 0.09982 0.11045 0.07800
H 	H 	0.02634 0.10016 0.11028 0.07800
H 	H 	0.14077 0.13408 0.82724 0.05000
H 	H 	0.08909 0.08146 0.82750 0.03500
H 	H 	-0.00012 0.43378 0.53274 0.05300
H 	H 	0.00027 0.41315 0.66286 0.09600
H 	H 	0.02710 0.39998 0.61025 0.07700
H 	H 	0.47305 0.40004 0.61047 0.07700
H 	H 	0.35891 0.13302 0.67276 0.04900
H 	H 	0.41148 0.08132 0.67250 0.03400
H 	H 	0.14194 0.35227 0.67276 0.04800
H 	H 	0.08966 0.40425 0.67250 0.03000
H 	H 	0.14126 0.36713 0.17276 0.04900
H 	H 	0.08873 0.41886 0.17250 0.03400
H 	H 	0.35794 0.14758 0.17276 0.04800
H 	H 	0.41018 0.09557 0.17251 0.03000
H 	H 	0.35891 0.13302 0.82724 0.04900
H 	H 	0.41148 0.08132 0.82750 0.03400
H 	H 	0.14194 0.35227 0.82724 0.04800
H 	H 	0.08966 0.40425 0.82749 0.03000
H 	H 	0.14126 0.36713 0.32724 0.04900
H 	H 	0.08873 0.41886 0.32750 0.03400
H 	H 	0.35794 0.14758 0.32724 0.04800
H 	H 	0.41018 0.09557 0.32749 0.03000
H 	H 	0.40219 0.20407 0.75000 0.04600
H 	H 	0.40432 0.28071 0.75000 0.04300
H 	H 	0.28897 0.39441 0.75000 0.04800
H 	H 	0.21235 0.39655 0.75000 0.04600
H 	H 	0.09789 0.29615 0.25000 0.04600
H 	H 	0.09566 0.21951 0.25000 0.04300
H 	H 	0.21085 0.10564 0.25000 0.04800
H 	H 	0.28746 0.10340 0.25000 0.04600
H 	H 	0.28840 0.08864 0.75000 0.04600
H 	H 	0.21176 0.09077 0.75000 0.04800
H 	H 	0.09640 0.20452 0.75000 0.04400
H 	H 	0.09855 0.28116 0.75000 0.04500
H 	H 	0.21185 0.41141 0.25000 0.04600
H 	H 	0.28848 0.40918 0.25000 0.04800
H 	H 	0.40368 0.29527 0.25000 0.04400
H 	H 	0.40142 0.21863 0.25000 0.04500
C 	C 	0.37091 0.36262 0.79335 -0.09200
C 	C 	0.40033 0.39293 0.79338 0.03000
C 	C 	0.00030 0.03228 0.55938 -0.07200
C 	C 	0.00038 0.02855 0.61059 0.04100
C 	C 	0.12896 0.13755 0.29335 -0.09200
C 	C 	0.09952 0.10725 0.29338 0.03000
C 	C 	0.50009 0.46772 0.05938 -0.07300
C 	C 	0.49996 0.47145 0.11059 0.04100
C 	C 	0.12964 0.12268 0.70665 -0.09000
C 	C 	0.10003 0.09254 0.70662 0.02900
C 	C 	0.00016 0.45827 0.89542 0.13000
C 	C 	0.00004 0.46136 0.94693 -0.10500
C 	C 	0.00014 0.41599 0.87625 -0.23000
C 	C 	0.37055 0.37716 0.20665 -0.09000
C 	C 	0.40017 0.40728 0.20662 0.02900
C 	C 	0.49962 0.04173 0.39542 0.13000
C 	C 	0.49970 0.03864 0.44693 -0.10500
C 	C 	0.49942 0.08401 0.37625 -0.23000
C 	C 	0.12896 0.13755 0.20665 -0.09200
C 	C 	0.09952 0.10725 0.20661 0.03000
C 	C 	0.50009 0.46772 0.44061 -0.07300
C 	C 	0.49996 0.47145 0.38941 0.04100
C 	C 	0.37091 0.36262 0.70665 -0.09200
C 	C 	0.40033 0.39293 0.70662 0.03000
C 	C 	0.00030 0.03228 0.94062 -0.07200
C 	C 	0.00038 0.02855 0.88941 0.04100
C 	C 	0.37055 0.37716 0.29335 -0.09000
C 	C 	0.40017 0.40728 0.29338 0.02900
C 	C 	0.49962 0.04173 0.10458 0.13000
C 	C 	0.49970 0.03864 0.05307 -0.10500
C 	C 	0.49942 0.08401 0.12375 -0.23000
C 	C 	0.12964 0.12268 0.79335 -0.09000
C 	C 	0.10003 0.09254 0.79338 0.02900
C 	C 	0.00016 0.45827 0.60458 0.13000
C 	C 	0.00004 0.46136 0.55307 -0.10500
C 	C 	0.00014 0.41599 0.62375 -0.23000
C 	C 	0.32235 0.16834 0.75000 -0.11700
C 	C 	0.35483 0.13696 0.75000 0.06900
C 	C 	0.41590 0.07686 0.75000 -0.10500
C 	C 	0.44784 0.04501 0.75000 0.35300
C 	C 	0.17839 0.31686 0.75000 -0.11800
C 	C 	0.14596 0.34827 0.75000 0.07000
C 	C 	0.08525 0.40871 0.75000 -0.11100
C 	C 	0.05334 0.44056 0.75000 0.35900
C 	C 	0.17778 0.33176 0.25000 -0.11700
C 	C 	0.14534 0.36319 0.25000 0.06900
C 	C 	0.08431 0.42332 0.25000 -0.10500
C 	C 	0.05234 0.45514 0.25000 0.35300
C 	C 	0.32153 0.18304 0.25000 -0.11800
C 	C 	0.35392 0.15158 0.25000 0.07000
C 	C 	0.41460 0.09111 0.25000 -0.11100
C 	C 	0.44654 0.05929 0.25000 0.35900
C 	C 	0.37029 0.12188 0.70665 -0.09000
C 	C 	0.40039 0.09224 0.70662 0.02900
C 	C 	0.13060 0.36345 0.70665 -0.09200
C 	C 	0.10067 0.39325 0.70662 0.03000
C 	C 	0.00009 0.49846 0.52828 0.03200
C 	C 	0.12990 0.37828 0.20665 -0.09000
C 	C 	0.09982 0.40793 0.20662 0.02900
C 	C 	0.36926 0.13639 0.20665 -0.09200
C 	C 	0.39918 0.10657 0.20662 0.03000
C 	C 	0.49995 0.00154 0.02828 0.03200
C 	C 	0.37029 0.12188 0.79335 -0.09000
C 	C 	0.40039 0.09224 0.79338 0.02900
C 	C 	0.13060 0.36345 0.79335 -0.09200
C 	C 	0.10067 0.39325 0.79338 0.03000
C 	C 	0.00009 0.49846 0.97171 0.03200
C 	C 	0.12990 0.37828 0.29335 -0.09000
C 	C 	0.09982 0.40793 0.29338 0.02900
C 	C 	0.36926 0.13639 0.29335 -0.09200
C 	C 	0.39918 0.10657 0.29338 0.03000
C 	C 	0.49995 0.00154 0.47171 0.03200
C 	C 	0.33383 0.21104 0.75000 0.08400
C 	C 	0.37609 0.22337 0.75000 -0.06500
C 	C 	0.37731 0.26265 0.75000 -0.05600
C 	C 	0.33572 0.27607 0.75000 0.07200
C 	C 	0.32461 0.31457 0.75000 -0.11800
C 	C 	0.28193 0.32604 0.75000 0.08500
C 	C 	0.26965 0.36831 0.75000 -0.06400
C 	C 	0.23038 0.36954 0.75000 -0.05600
C 	C 	0.21691 0.32795 0.75000 0.07200
C 	C 	0.35594 0.34708 0.75000 0.07000
C 	C 	0.41557 0.40857 0.75000 -0.11200
C 	C 	0.44730 0.44059 0.75000 0.35900
C 	C 	0.16625 0.28908 0.25000 0.08400
C 	C 	0.12397 0.27681 0.25000 -0.06500
C 	C 	0.12269 0.23753 0.25000 -0.05600
C 	C 	0.16426 0.22405 0.25000 0.07200
C 	C 	0.17532 0.18553 0.25000 -0.11800
C 	C 	0.21799 0.17400 0.25000 0.08500
C 	C 	0.23021 0.13172 0.25000 -0.06400
C 	C 	0.26948 0.13043 0.25000 -0.05600
C 	C 	0.28300 0.17200 0.25000 0.07200
C 	C 	0.14395 0.15307 0.25000 0.07000
C 	C 	0.08428 0.09162 0.25000 -0.11100
C 	C 	0.05258 0.05956 0.25000 0.35900
C 	C 	0.28383 0.15724 0.75000 0.07200
C 	C 	0.27037 0.11565 0.75000 -0.05600
C 	C 	0.23109 0.11687 0.75000 -0.06400
C 	C 	0.21879 0.15914 0.75000 0.08400
C 	C 	0.17610 0.17061 0.75000 -0.11700
C 	C 	0.16500 0.20912 0.75000 0.07200
C 	C 	0.12342 0.22257 0.75000 -0.05600
C 	C 	0.12465 0.26185 0.75000 -0.06500
C 	C 	0.16691 0.27416 0.75000 0.08400
C 	C 	0.14472 0.13813 0.75000 0.06900
C 	C 	0.08469 0.07698 0.75000 -0.10500
C 	C 	0.05291 0.04497 0.75000 0.35400
C 	C 	0.21632 0.34281 0.25000 0.07200
C 	C 	0.22984 0.38438 0.25000 -0.05600
C 	C 	0.26912 0.38310 0.25000 -0.06400
C 	C 	0.28135 0.34082 0.25000 0.08500
C 	C 	0.32403 0.32928 0.25000 -0.11800
C 	C 	0.33507 0.29076 0.25000 0.07200
C 	C 	0.37664 0.27726 0.25000 -0.05600
C 	C 	0.37536 0.23798 0.25000 -0.06500
C 	C 	0.33307 0.22573 0.25000 0.08400
C 	C 	0.35545 0.36172 0.25000 0.06900
C 	C 	0.41552 0.42284 0.25000 -0.10500
C 	C 	0.44727 0.45488 0.25000 0.35300
N 	N 	0.00031 0.49215 0.63391 -0.20900
N 	N 	0.49973 0.00785 0.13391 -0.20900
N 	N 	0.00031 0.49215 0.86609 -0.20900
N 	N 	0.49973 0.00785 0.36609 -0.20900
N 	N 	0.30945 0.24187 0.75000 -0.28300
N 	N 	0.25109 0.30167 0.75000 -0.28300
N 	N 	0.19058 0.25821 0.25000 -0.28300
N 	N 	0.24886 0.19833 0.25000 -0.28300
N 	N 	0.24965 0.18350 0.75000 -0.28300
N 	N 	0.19128 0.24332 0.75000 -0.28300
N 	N 	0.25047 0.31649 0.25000 -0.28300
N 	N 	0.30875 0.25660 0.25000 -0.28300
O 	O 	0.46099 0.45425 0.78982 -0.47200
O 	O 	0.03892 0.04587 0.28982 -0.47200
O 	O 	0.03928 0.03128 0.70999 -0.46300
O 	O 	0.46088 0.46859 0.20999 -0.46300
O 	O 	0.03892 0.04587 0.21018 -0.47200
O 	O 	0.46099 0.45425 0.71018 -0.47200
O 	O 	0.46088 0.46859 0.29001 -0.46300
O 	O 	0.03928 0.03128 0.79000 -0.46300
O 	O 	0.46149 0.03134 0.71000 -0.46300
O 	O 	0.03963 0.45420 0.71018 -0.47200
O 	O 	0.03866 0.46879 0.21000 -0.46300
O 	O 	0.46028 0.04568 0.21018 -0.47200
O 	O 	0.46149 0.03134 0.79000 -0.46300
O 	O 	0.03963 0.45420 0.78982 -0.47200
O 	O 	0.03866 0.46879 0.29000 -0.46300
O 	O 	0.46028 0.04568 0.28982 -0.47200
Co	Co	0.75036 0.24259 0.74999 1.10500
Co	Co	0.74967 0.25741 0.24999 1.10500
Co	Co	0.50034 0.49251 0.70779 1.19100
Co	Co	0.99969 0.00749 0.20779 1.19100
Co	Co	0.50034 0.49251 0.79221 1.19100
Co	Co	0.99969 0.00749 0.29221 1.19100
H 	H 	0.85869 0.35233 0.82724 0.04900
H 	H 	0.91095 0.40435 0.82750 0.03000
H 	H 	1.00041 0.06230 0.54492 0.04400
H 	H 	0.50052 0.05576 0.63171 0.02700
H 	H 	0.64119 0.14783 0.32724 0.04900
H 	H 	0.58889 0.09583 0.32750 0.03000
H 	H 	0.50032 0.43770 0.04493 0.04400
H 	H 	1.00007 0.44424 0.13171 0.02700
H 	H 	0.64191 0.13293 0.67276 0.04900
H 	H 	0.58934 0.08120 0.67250 0.03400
H 	H 	0.49988 0.43377 0.96726 0.05200
H 	H 	0.50026 0.41312 0.83715 0.09600
H 	H 	0.52710 0.39996 0.88976 0.07700
H 	H 	0.97305 0.40006 0.88951 0.07700
H 	H 	0.85827 0.36692 0.17276 0.04900
H 	H 	0.91086 0.41863 0.17250 0.03400
H 	H 	0.99956 0.06623 0.46727 0.05200
H 	H 	0.99952 0.08688 0.33715 0.09600
H 	H 	0.97229 0.09984 0.38957 0.07700
H 	H 	0.52633 0.10014 0.38971 0.07700
H 	H 	0.64119 0.14783 0.17276 0.04800
H 	H 	0.58889 0.09583 0.17250 0.03000
H 	H 	0.50032 0.43770 0.45507 0.04400
H 	H 	1.00007 0.44424 0.36829 0.02700
H 	H 	0.85869 0.35233 0.67276 0.04900
H 	H 	0.91095 0.40435 0.67250 0.03000
H 	H 	1.00041 0.06230 0.95508 0.04400
H 	H 	0.50052 0.05576 0.86829 0.02700
H 	H 	0.85827 0.36692 0.32724 0.04900
H 	H 	0.91086 0.41863 0.32750 0.03400
H 	H 	0.99956 0.06623 0.03273 0.05200
H 	H 	0.99952 0.08688 0.16285 0.09600
H 	H 	0.97229 0.09984 0.11043 0.07700
H 	H 	0.52633 0.10014 0.11029 0.07700
H 	H 	0.64191 0.13293 0.82724 0.04900
H 	H 	0.58935 0.08120 0.82750 0.03400
H 	H 	0.49988 0.43377 0.53273 0.05200
H 	H 	0.50026 0.41312 0.66285 0.09600
H 	H 	0.52710 0.39996 0.61024 0.07700
H 	H 	0.97305 0.40006 0.61049 0.07700
H 	H 	0.86006 0.13417 0.67276 0.04900
H 	H 	0.91174 0.08159 0.67250 0.03400
H 	H 	0.64079 0.35112 0.67276 0.04800
H 	H 	0.58940 0.40397 0.67251 0.03000
H 	H 	0.64012 0.36598 0.17276 0.04900
H 	H 	0.58846 0.41858 0.17250 0.03400
H 	H 	0.85909 0.14873 0.17276 0.04800
H 	H 	0.91044 0.09584 0.17251 0.03000
H 	H 	0.86006 0.13417 0.82724 0.04900
H 	H 	0.91174 0.08159 0.82750 0.03400
H 	H 	0.64079 0.35112 0.82724 0.04800
H 	H 	0.58940 0.40397 0.82749 0.03000
H 	H 	0.64012 0.36598 0.32724 0.04900
H 	H 	0.58846 0.41858 0.32750 0.03400
H 	H 	0.85909 0.14873 0.32724 0.04800
H 	H 	0.91044 0.09584 0.32749 0.03000
H 	H 	0.90435 0.20470 0.75000 0.04400
H 	H 	0.90215 0.28134 0.75000 0.04500
H 	H 	0.78832 0.39658 0.75000 0.04600
H 	H 	0.71170 0.39439 0.75000 0.04800
H 	H 	0.59573 0.29551 0.25000 0.04400
H 	H 	0.59783 0.21887 0.25000 0.04500
H 	H 	0.71149 0.10347 0.25000 0.04600
H 	H 	0.78811 0.10556 0.25000 0.04800
H 	H 	0.78903 0.09081 0.75000 0.04800
H 	H 	0.71239 0.08861 0.75000 0.04600
H 	H 	0.59856 0.20389 0.75000 0.04600
H 	H 	0.59638 0.28053 0.75000 0.04300
H 	H 	0.71122 0.40925 0.25000 0.04800
H 	H 	0.78785 0.41134 0.25000 0.04600
H 	H 	0.90152 0.29590 0.25000 0.04600
H 	H 	0.90359 0.21926 0.25000 0.04300
C 	C 	0.87002 0.36352 0.79335 -0.09200
C 	C 	0.89994 0.39334 0.79338 0.03100
C 	C 	0.50030 0.03226 0.55938 -0.07300
C 	C 	0.50038 0.02853 0.61059 0.04100
C 	C 	0.62985 0.13664 0.29335 -0.09200
C 	C 	0.59991 0.10684 0.29339 0.03000
C 	C 	1.00009 0.46774 0.05938 -0.07300
C 	C 	0.99996 0.47147 0.11059 0.04100
C 	C 	0.63053 0.12178 0.70665 -0.09000
C 	C 	0.60043 0.09213 0.70662 0.02900
C 	C 	0.50016 0.45825 0.89542 0.13000
C 	C 	0.50004 0.46135 0.94693 -0.10500
C 	C 	0.50014 0.41597 0.87626 -0.23000
C 	C 	0.86965 0.37806 0.20665 -0.09000
C 	C 	0.89977 0.40770 0.20662 0.02900
C 	C 	0.99963 0.04175 0.39542 0.13000
C 	C 	0.99970 0.03865 0.44693 -0.10500
C 	C 	0.99943 0.08403 0.37626 -0.23000
C 	C 	0.62985 0.13664 0.20665 -0.09200
C 	C 	0.59991 0.10684 0.20661 0.03000
C 	C 	1.00009 0.46774 0.44062 -0.07300
C 	C 	0.99996 0.47147 0.38941 0.04100
C 	C 	0.87002 0.36352 0.70665 -0.09200
C 	C 	0.89994 0.39334 0.70662 0.03000
C 	C 	0.50030 0.03226 0.94062 -0.07200
C 	C 	0.50038 0.02853 0.88941 0.04100
C 	C 	0.86965 0.37806 0.29335 -0.09000
C 	C 	0.89977 0.40770 0.29338 0.02900
C 	C 	0.99963 0.04175 0.10458 0.13000
C 	C 	0.99970 0.03865 0.05307 -0.10500
C 	C 	0.99943 0.08403 0.12374 -0.23100
C 	C 	0.63053 0.12178 0.79335 -0.09000
C 	C 	0.60043 0.09213 0.79338 0.02900
C 	C 	0.50016 0.45825 0.60458 0.13000
C 	C 	0.50004 0.46135 0.55307 -0.10500
C 	C 	0.50014 0.41597 0.62374 -0.23000
C 	C 	0.82468 0.17068 0.75000 -0.11700
C 	C 	0.85609 0.13823 0.75000 0.06900
C 	C 	0.91614 0.07711 0.75000 -0.10500
C 	C 	0.94789 0.04507 0.75000 0.35300
C 	C 	0.67606 0.31452 0.75000 -0.11800
C 	C 	0.64470 0.34701 0.75000 0.07000
C 	C 	0.58501 0.40846 0.75000 -0.11100
C 	C 	0.55329 0.44049 0.75000 0.35900
C 	C 	0.67545 0.32943 0.25000 -0.11700
C 	C 	0.64408 0.36192 0.25000 0.06900
C 	C 	0.58407 0.42307 0.25000 -0.10500
C 	C 	0.55229 0.45508 0.25000 0.35300
C 	C 	0.82387 0.18537 0.25000 -0.11800
C 	C 	0.85519 0.15285 0.25000 0.07000
C 	C 	0.91484 0.09136 0.25000 -0.11100
C 	C 	0.94660 0.05936 0.25000 0.35900
C 	C 	0.87118 0.12279 0.70665 -0.09000
C 	C 	0.90080 0.09266 0.70662 0.02900
C 	C 	0.62970 0.36254 0.70665 -0.09200
C 	C 	0.60027 0.39283 0.70662 0.03000
C 	C 	0.50009 0.49845 0.52828 0.03200
C 	C 	0.62900 0.37737 0.20665 -0.09000
C 	C 	0.59941 0.40751 0.20662 0.02900
C 	C 	0.87017 0.13730 0.20665 -0.09200
C 	C 	0.89958 0.10699 0.20662 0.03000
C 	C 	0.99996 0.00155 0.02828 0.03100
C 	C 	0.87118 0.12278 0.79335 -0.09000
C 	C 	0.90080 0.09266 0.79338 0.02900
C 	C 	0.62970 0.36254 0.79335 -0.09200
C 	C 	0.60027 0.39283 0.79338 0.03000
C 	C 	0.50009 0.49845 0.97172 0.03200
C 	C 	0.62900 0.37737 0.29335 -0.09000
C 	C 	0.59941 0.40751 0.29338 0.02900
C 	C 	0.87017 0.13730 0.29335 -0.09200
C 	C 	0.89958 0.10699 0.29338 0.03000
C 	C 	0.99996 0.00155 0.47172 0.03200
C 	C 	0.83575 0.20921 0.75000 0.07200
C 	C 	0.87733 0.22271 0.75000 -0.05600
C 	C 	0.87607 0.26199 0.75000 -0.06500
C 	C 	0.83379 0.27423 0.75000 0.08400
C 	C 	0.82227 0.31691 0.75000 -0.11800
C 	C 	0.78376 0.32797 0.75000 0.07200
C 	C 	0.77030 0.36955 0.75000 -0.05600
C 	C 	0.73103 0.36830 0.75000 -0.06400
C 	C 	0.71874 0.32602 0.75000 0.08500
C 	C 	0.85468 0.34834 0.75000 0.07000
C 	C 	0.91535 0.40881 0.75000 -0.11200
C 	C 	0.94726 0.44065 0.75000 0.35900
C 	C 	0.66433 0.29091 0.25000 0.07200
C 	C 	0.62273 0.27747 0.25000 -0.05600
C 	C 	0.62394 0.23819 0.25000 -0.06500
C 	C 	0.66620 0.22588 0.25000 0.08400
C 	C 	0.67765 0.18319 0.25000 -0.11800
C 	C 	0.71615 0.17207 0.25000 0.07200
C 	C 	0.72956 0.13048 0.25000 -0.05600
C 	C 	0.76883 0.13168 0.25000 -0.06400
C 	C 	0.78117 0.17394 0.25000 0.08500
C 	C 	0.64520 0.15180 0.25000 0.07000
C 	C 	0.58450 0.09137 0.25000 -0.11200
C 	C 	0.55262 0.05950 0.25000 0.35900
C 	C 	0.78198 0.15917 0.75000 0.08500
C 	C 	0.76970 0.11689 0.75000 -0.06400
C 	C 	0.73042 0.11564 0.75000 -0.05600
C 	C 	0.71695 0.15721 0.75000 0.07200
C 	C 	0.67843 0.16828 0.75000 -0.11800
C 	C 	0.66692 0.21096 0.75000 0.08400
C 	C 	0.62465 0.22323 0.75000 -0.06500
C 	C 	0.62340 0.26251 0.75000 -0.05600
C 	C 	0.66498 0.27600 0.75000 0.07200
C 	C 	0.64597 0.13687 0.75000 0.06900
C 	C 	0.58492 0.07674 0.75000 -0.10500
C 	C 	0.55296 0.04492 0.75000 0.35300
C 	C 	0.71816 0.34088 0.25000 0.08400
C 	C 	0.73051 0.38313 0.25000 -0.06400
C 	C 	0.76979 0.38434 0.25000 -0.05600
C 	C 	0.78320 0.34274 0.25000 0.07200
C 	C 	0.82170 0.33162 0.25000 -0.11800
C 	C 	0.83315 0.28892 0.25000 0.08400
C 	C 	0.87541 0.27659 0.25000 -0.06500
C 	C 	0.87660 0.23731 0.25000 -0.05600
C 	C 	0.83501 0.22388 0.25000 0.07200
C 	C 	0.85420 0.36298 0.25000 0.06900
C 	C 	0.91529 0.42308 0.25000 -0.10500
C 	C 	0.94722 0.45494 0.25000 0.35300
N 	N 	0.50030 0.49213 0.63390 -0.20900
N 	N 	0.99974 0.00787 0.13390 -0.21000
N 	N 	0.50030 0.49213 0.86609 -0.20900
N 	N 	0.99974 0.00787 0.36609 -0.20900
N 	N 	0.80945 0.24336 0.75000 -0.28300
N 	N 	0.74959 0.30168 0.75000 -0.28300
N 	N 	0.69058 0.25672 0.25000 -0.28300
N 	N 	0.75035 0.19832 0.25000 -0.28300
N 	N 	0.75113 0.18351 0.75000 -0.28300
N 	N 	0.69127 0.24183 0.75000 -0.28300
N 	N 	0.74899 0.31649 0.25000 -0.28300
N 	N 	0.80876 0.25809 0.25000 -0.28300
O 	O 	0.96098 0.45428 0.78982 -0.47200
O 	O 	0.53893 0.04585 0.28982 -0.47200
O 	O 	0.53929 0.03126 0.70999 -0.46300
O 	O 	0.96087 0.46861 0.20999 -0.46300
O 	O 	0.53893 0.04585 0.21018 -0.47200
O 	O 	0.96098 0.45428 0.71018 -0.47200
O 	O 	0.96087 0.46861 0.29001 -0.46300
O 	O 	0.53929 0.03126 0.79001 -0.46300
O 	O 	0.96150 0.03136 0.71000 -0.46300
O 	O 	0.53961 0.45417 0.71018 -0.47200
O 	O 	0.53865 0.46876 0.21000 -0.46300
O 	O 	0.96030 0.04571 0.21018 -0.47200
O 	O 	0.96150 0.03136 0.79000 -0.46300
O 	O 	0.53961 0.45417 0.78982 -0.47200
O 	O 	0.53865 0.46876 0.29000 -0.46300
O 	O 	0.96030 0.04571 0.28982 -0.47200
Co	Co	0.25036 0.74259 0.74999 1.10500
Co	Co	0.24966 0.75741 0.24999 1.10500
Co	Co	0.00034 0.99253 0.70779 1.19100
Co	Co	0.49969 0.50747 0.20779 1.19100
Co	Co	0.00034 0.99252 0.79221 1.19100
Co	Co	0.49969 0.50747 0.29221 1.19100
H 	H 	0.35869 0.85232 0.82724 0.04900
H 	H 	0.41095 0.90435 0.82750 0.03000
H 	H 	0.50038 0.56228 0.54492 0.04400
H 	H 	0.00049 0.55578 0.63171 0.02700
H 	H 	0.14004 0.64898 0.32724 0.04900
H 	H 	0.08864 0.59610 0.32750 0.03000
H 	H 	0.00029 0.93772 0.04493 0.04400
H 	H 	0.50004 0.94422 0.13171 0.02700
H 	H 	0.14191 0.63294 0.67276 0.04900
H 	H 	0.08935 0.58121 0.67250 0.03400
H 	H 	-0.00016 0.93378 0.96726 0.05200
H 	H 	0.00025 0.91314 0.83715 0.09600
H 	H 	0.02703 0.89995 0.88978 0.07700
H 	H 	0.47298 0.90006 0.88949 0.07700
H 	H 	0.35941 0.86577 0.17276 0.04900
H 	H 	0.41112 0.91836 0.17250 0.03400
H 	H 	0.49952 0.56622 0.46727 0.05200
H 	H 	0.49950 0.58686 0.33715 0.09600
H 	H 	0.47222 0.59980 0.38953 0.07700
H 	H 	0.02627 0.60018 0.38974 0.07700
H 	H 	0.14004 0.64898 0.17276 0.04900
H 	H 	0.08864 0.59610 0.17250 0.03000
H 	H 	0.00029 0.93772 0.45507 0.04400
H 	H 	0.50004 0.94422 0.36829 0.02700
H 	H 	0.35869 0.85232 0.67276 0.04900
H 	H 	0.41095 0.90435 0.67250 0.03000
H 	H 	0.50038 0.56228 0.95508 0.04400
H 	H 	0.00049 0.55578 0.86829 0.02700
H 	H 	0.35941 0.86577 0.32724 0.04900
H 	H 	0.41112 0.91836 0.32750 0.03400
H 	H 	0.49952 0.56622 0.03273 0.05200
H 	H 	0.49950 0.58686 0.16285 0.09600
H 	H 	0.47222 0.59980 0.11047 0.07700
H 	H 	0.02626 0.60018 0.11026 0.07700
H 	H 	0.14191 0.63294 0.82724 0.04900
H 	H 	0.08935 0.58121 0.82750 0.03400
H 	H 	-0.00016 0.93378 0.53274 0.05200
H 	H 	0.00025 0.91314 0.66285 0.09600
H 	H 	0.02703 0.89995 0.61022 0.07700
H 	H 	0.47298 0.90006 0.61051 0.07700
H 	H 	0.36006 0.63417 0.67276 0.04900
H 	H 	0.41174 0.58158 0.67250 0.03400
H 	H 	0.14079 0.85112 0.67276 0.04800
H 	H 	0.08940 0.90398 0.67251 0.03000
H 	H 	0.14126 0.86713 0.17276 0.04900
H 	H 	0.08873 0.91886 0.17250 0.03400
H 	H 	0.35793 0.64757 0.17276 0.04800
H 	H 	0.41018 0.59557 0.17251 0.03000
H 	H 	0.36006 0.63416 0.82724 0.04900
H 	H 	0.41174 0.58158 0.82750 0.03400
H 	H 	0.14079 0.85112 0.82724 0.04800
H 	H 	0.08940 0.90398 0.82749 0.03000
H 	H 	0.14126 0.86713 0.32724 0.04900
H 	H 	0.08873 0.91886 0.32750 0.03400
H 	H 	0.35793 0.64758 0.32724 0.04800
H 	H 	0.41018 0.59557 0.32749 0.03000
H 	H 	0.40435 0.70470 0.75000 0.04400
H 	H 	0.40215 0.78134 0.75000 0.04500
H 	H 	0.28833 0.89658 0.75000 0.04600
H 	H 	0.21171 0.89439 0.75000 0.04800
H 	H 	0.09789 0.79615 0.25000 0.04600
H 	H 	0.09566 0.71951 0.25000 0.04300
H 	H 	0.21084 0.60564 0.25000 0.04800
H 	H 	0.28746 0.60339 0.25000 0.04600
H 	H 	0.28902 0.59081 0.75000 0.04800
H 	H 	0.21239 0.58861 0.75000 0.04600
H 	H 	0.09856 0.70389 0.75000 0.04600
H 	H 	0.09638 0.78053 0.75000 0.04300
H 	H 	0.21185 0.91141 0.25000 0.04600
H 	H 	0.28848 0.90918 0.25000 0.04800
H 	H 	0.40368 0.79526 0.25000 0.04400
H 	H 	0.40142 0.71863 0.25000 0.04500
C 	C 	0.37002 0.86351 0.79335 -0.09200
C 	C 	0.39994 0.89333 0.79339 0.03000
C 	C 	0.00028 0.53228 0.55938 -0.07300
C 	C 	0.00037 0.52855 0.61059 0.04100
C 	C 	0.12895 0.63755 0.29335 -0.09200
C 	C 	0.09951 0.60725 0.29338 0.03000
C 	C 	0.50008 0.96772 0.05938 -0.07200
C 	C 	0.49995 0.97145 0.11059 0.04100
C 	C 	0.13054 0.62179 0.70665 -0.09000
C 	C 	0.10043 0.59214 0.70662 0.02900
C 	C 	0.00014 0.95827 0.89542 0.13000
C 	C 	0.00001 0.96136 0.94693 -0.10500
C 	C 	0.00010 0.91598 0.87625 -0.23100
C 	C 	0.37055 0.87716 0.20665 -0.09000
C 	C 	0.40017 0.90728 0.20662 0.02900
C 	C 	0.49960 0.54173 0.39542 0.13000
C 	C 	0.49968 0.53864 0.44693 -0.10500
C 	C 	0.49938 0.58402 0.37625 -0.23000
C 	C 	0.12895 0.63755 0.20665 -0.09200
C 	C 	0.09951 0.60725 0.20661 0.03000
C 	C 	0.50008 0.96772 0.44062 -0.07300
C 	C 	0.49995 0.97145 0.38941 0.04100
C 	C 	0.37002 0.86351 0.70665 -0.09200
C 	C 	0.39994 0.89333 0.70661 0.03000
C 	C 	0.00028 0.53228 0.94062 -0.07300
C 	C 	0.00037 0.52855 0.88941 0.04100
C 	C 	0.37055 0.87716 0.29335 -0.09000
C 	C 	0.40017 0.90728 0.29338 0.02900
C 	C 	0.49960 0.54173 0.10458 0.13000
C 	C 	0.49968 0.53864 0.05307 -0.10500
C 	C 	0.49938 0.58402 0.12375 -0.23000
C 	C 	0.13054 0.62179 0.79335 -0.09000
C 	C 	0.10044 0.59214 0.79338 0.02900
C 	C 	0.00014 0.95827 0.60458 0.13000
C 	C 	0.00001 0.96136 0.55307 -0.10500
C 	C 	0.00010 0.91598 0.62375 -0.23100
C 	C 	0.32468 0.67067 0.75000 -0.11700
C 	C 	0.35609 0.63822 0.75000 0.06900
C 	C 	0.41614 0.57709 0.75000 -0.10500
C 	C 	0.44789 0.54506 0.75000 0.35300
C 	C 	0.17606 0.81453 0.75000 -0.11800
C 	C 	0.14469 0.84701 0.75000 0.07000
C 	C 	0.08501 0.90847 0.75000 -0.11100
C 	C 	0.05329 0.94050 0.75000 0.35900
C 	C 	0.17778 0.83176 0.25000 -0.11700
C 	C 	0.14534 0.86319 0.25000 0.06900
C 	C 	0.08431 0.92332 0.25000 -0.10500
C 	C 	0.05234 0.95514 0.25000 0.35300
C 	C 	0.32153 0.68304 0.25000 -0.11800
C 	C 	0.35392 0.65158 0.25000 0.07000
C 	C 	0.41460 0.59111 0.25000 -0.11100
C 	C 	0.44654 0.55929 0.25000 0.35900
C 	C 	0.37119 0.62278 0.70665 -0.09000
C 	C 	0.40080 0.59265 0.70662 0.02900
C 	C 	0.12970 0.86255 0.70665 -0.09200
C 	C 	0.10026 0.89283 0.70662 0.03000
C 	C 	0.00009 0.99846 0.52828 0.03200
C 	C 	0.12990 0.87828 0.20665 -0.09000
C 	C 	0.09981 0.90793 0.20662 0.02900
C 	C 	0.36926 0.63639 0.20665 -0.09200
C 	C 	0.39917 0.60657 0.20662 0.03000
C 	C 	0.49995 0.50154 0.02828 0.03200
C 	C 	0.37118 0.62278 0.79335 -0.09000
C 	C 	0.40080 0.59265 0.79338 0.02900
C 	C 	0.12970 0.86255 0.79335 -0.09200
C 	C 	0.10026 0.89283 0.79338 0.03000
C 	C 	0.00009 0.99846 0.97171 0.03100
C 	C 	0.12990 0.87828 0.29335 -0.09000
C 	C 	0.09981 0.90793 0.29338 0.02900
C 	C 	0.36926 0.63639 0.29335 -0.09200
C 	C 	0.39917 0.60657 0.29338 0.03000
C 	C 	0.49995 0.50154 0.47171 0.03200
C 	C 	0.33575 0.70920 0.75000 0.07200
C 	C 	0.37733 0.72271 0.75000 -0.05600
C 	C 	0.37607 0.76198 0.75000 -0.06500
C 	C 	0.33379 0.77423 0.75000 0.08400
C 	C 	0.32227 0.81691 0.75000 -0.11800
C 	C 	0.28376 0.82797 0.75000 0.07200
C 	C 	0.27030 0.86955 0.75000 -0.05600
C 	C 	0.23103 0.86830 0.75000 -0.06400
C 	C 	0.21874 0.82602 0.75000 0.08500
C 	C 	0.35468 0.84834 0.75000 0.07000
C 	C 	0.41535 0.90880 0.75000 -0.11200
C 	C 	0.44726 0.94064 0.75000 0.35900
C 	C 	0.16625 0.78907 0.25000 0.08400
C 	C 	0.12396 0.77681 0.25000 -0.06500
C 	C 	0.12269 0.73753 0.25000 -0.05600
C 	C 	0.16426 0.72405 0.25000 0.07200
C 	C 	0.17532 0.68553 0.25000 -0.11800
C 	C 	0.21798 0.67400 0.25000 0.08500
C 	C 	0.23020 0.63172 0.25000 -0.06400
C 	C 	0.26947 0.63043 0.25000 -0.05600
C 	C 	0.28300 0.67200 0.25000 0.07200
C 	C 	0.14394 0.65307 0.25000 0.07000
C 	C 	0.08427 0.59162 0.25000 -0.11200
C 	C 	0.05258 0.55956 0.25000 0.35900
C 	C 	0.28198 0.65917 0.75000 0.08500
C 	C 	0.26970 0.61689 0.75000 -0.06400
C 	C 	0.23042 0.61564 0.75000 -0.05600
C 	C 	0.21695 0.65721 0.75000 0.07200
C 	C 	0.17843 0.66828 0.75000 -0.11800
C 	C 	0.16692 0.71097 0.75000 0.08400
C 	C 	0.12465 0.72323 0.75000 -0.06500
C 	C 	0.12340 0.76251 0.75000 -0.05600
C 	C 	0.16498 0.77600 0.75000 0.07200
C 	C 	0.14598 0.63688 0.75000 0.06900
C 	C 	0.08492 0.57676 0.75000 -0.10500
C 	C 	0.05296 0.54493 0.75000 0.35300
C 	C 	0.21632 0.84281 0.25000 0.07200
C 	C 	0.22984 0.88438 0.25000 -0.05600
C 	C 	0.26912 0.88310 0.25000 -0.06400
C 	C 	0.28135 0.84082 0.25000 0.08400
C 	C 	0.32403 0.82928 0.25000 -0.11800
C 	C 	0.33507 0.79076 0.25000 0.07200
C 	C 	0.37664 0.77725 0.25000 -0.05600
C 	C 	0.37535 0.73798 0.25000 -0.06500
C 	C 	0.33307 0.72572 0.25000 0.08400
C 	C 	0.35545 0.86172 0.25000 0.06900
C 	C 	0.41552 0.92283 0.25000 -0.10500
C 	C 	0.44727 0.95487 0.25000 0.35300
N 	N 	0.00030 0.99214 0.63391 -0.20900
N 	N 	0.49973 0.50786 0.13391 -0.20900
N 	N 	0.00030 0.99214 0.86609 -0.21000
N 	N 	0.49973 0.50786 0.36609 -0.20900
N 	N 	0.30945 0.74336 0.75000 -0.28300
N 	N 	0.24959 0.80168 0.75000 -0.28300
N 	N 	0.19057 0.75821 0.25000 -0.28300
N 	N 	0.24886 0.69832 0.25000 -0.28300
N 	N 	0.25113 0.68351 0.75000 -0.28300
N 	N 	0.19127 0.74183 0.75000 -0.28300
N 	N 	0.25046 0.81649 0.25000 -0.28300
N 	N 	0.30875 0.75660 0.25000 -0.28300
O 	O 	0.46098 0.95426 0.78982 -0.47200
O 	O 	0.03892 0.54587 0.28982 -0.47200
O 	O 	0.03929 0.53128 0.70999 -0.46300
O 	O 	0.46088 0.96859 0.20999 -0.46300
O 	O 	0.03892 0.54587 0.21018 -0.47200
O 	O 	0.46098 0.95426 0.71018 -0.47200
O 	O 	0.46088 0.96859 0.29001 -0.46300
O 	O 	0.03929 0.53128 0.79001 -0.46300
O 	O 	0.46150 0.53135 0.71000 -0.46300
O 	O 	0.03961 0.95418 0.71018 -0.47200
O 	O 	0.03866 0.96879 0.21000 -0.46300
O 	O 	0.46028 0.54568 0.21018 -0.47200
O 	O 	0.46150 0.53135 0.79000 -0.46300
O 	O 	0.03961 0.95418 0.78982 -0.47200
O 	O 	0.03866 0.96879 0.29000 -0.46300
O 	O 	0.46028 0.54568 0.28982 -0.47200
Co	Co	0.75036 0.74259 0.75000 1.10500
Co	Co	0.74966 0.75741 0.24999 1.10500
Co	Co	0.50034 0.99251 0.70779 1.19100
Co	Co	0.99969 0.50749 0.20779 1.19100
Co	Co	0.50034 0.99251 0.79221 1.19100
Co	Co	0.99969 0.50749 0.29221 1.19100
H 	H 	0.85868 0.85232 0.82724 0.04900
H 	H 	0.91094 0.90435 0.82750 0.03000
H 	H 	1.00038 0.56230 0.54492 0.04400
H 	H 	0.50049 0.55576 0.63171 0.02700
H 	H 	0.64004 0.64897 0.32724 0.04900
H 	H 	0.58864 0.59609 0.32750 0.03000
H 	H 	0.50029 0.93770 0.04492 0.04400
H 	H 	1.00004 0.94424 0.13171 0.02700
H 	H 	0.64191 0.63293 0.67276 0.04900
H 	H 	0.58935 0.58119 0.67250 0.03400
H 	H 	0.49984 0.93377 0.96726 0.05200
H 	H 	0.50025 0.91313 0.83714 0.09600
H 	H 	0.52703 0.89994 0.88978 0.07700
H 	H 	0.97298 0.90008 0.88949 0.07700
H 	H 	0.85941 0.86578 0.17276 0.04900
H 	H 	0.91112 0.91837 0.17250 0.03400
H 	H 	0.99952 0.56623 0.46726 0.05200
H 	H 	0.99950 0.58687 0.33714 0.09600
H 	H 	0.97222 0.59981 0.38953 0.07700
H 	H 	0.52627 0.60017 0.38974 0.07700
H 	H 	0.64004 0.64897 0.17276 0.04900
H 	H 	0.58864 0.59609 0.17250 0.03000
H 	H 	0.50029 0.93770 0.45508 0.04400
H 	H 	1.00004 0.94424 0.36829 0.02700
H 	H 	0.85868 0.85232 0.67276 0.04900
H 	H 	0.91094 0.90435 0.67250 0.03000
H 	H 	1.00038 0.56230 0.95508 0.04400
H 	H 	0.50049 0.55576 0.86829 0.02700
H 	H 	0.85941 0.86578 0.32724 0.04900
H 	H 	0.91112 0.91837 0.32750 0.03400
H 	H 	0.99952 0.56623 0.03274 0.05200
H 	H 	0.99950 0.58687 0.16286 0.09600
H 	H 	0.97222 0.59981 0.11047 0.07700
H 	H 	0.52627 0.60017 0.11025 0.07700
H 	H 	0.64191 0.63293 0.82724 0.04900
H 	H 	0.58935 0.58119 0.82750 0.03400
H 	H 	0.49984 0.93377 0.53274 0.05200
H 	H 	0.50025 0.91313 0.66286 0.09600
H 	H 	0.52703 0.89994 0.61022 0.07700
H 	H 	0.97298 0.90008 0.61051 0.07700
H 	H 	0.86006 0.63417 0.67276 0.04900
H 	H 	0.91174 0.58159 0.67250 0.03400
H 	H 	0.64079 0.85111 0.67276 0.04800
H 	H 	0.58940 0.90397 0.67251 0.03000
H 	H 	0.64127 0.86712 0.17276 0.04900
H 	H 	0.58873 0.91884 0.17250 0.03400
H 	H 	0.85794 0.64758 0.17276 0.04800
H 	H 	0.91018 0.59558 0.17251 0.03000
H 	H 	0.86006 0.63417 0.82724 0.04900
H 	H 	0.91174 0.58159 0.82750 0.03400
H 	H 	0.64079 0.85111 0.82724 0.04800
H 	H 	0.58940 0.90397 0.82749 0.03000
H 	H 	0.64127 0.86712 0.32724 0.04900
H 	H 	0.58873 0.91885 0.32750 0.03400
H 	H 	0.85794 0.64758 0.32724 0.04800
H 	H 	0.91018 0.59558 0.32749 0.03000
H 	H 	0.90435 0.70471 0.75000 0.04400
H 	H 	0.90215 0.78134 0.75000 0.04500
H 	H 	0.78832 0.89658 0.75000 0.04600
H 	H 	0.71170 0.89438 0.75000 0.04800
H 	H 	0.59789 0.79614 0.25000 0.04600
H 	H 	0.59566 0.71950 0.25000 0.04300
H 	H 	0.71085 0.60564 0.25000 0.04800
H 	H 	0.78747 0.60340 0.25000 0.04600
H 	H 	0.78902 0.59081 0.75000 0.04800
H 	H 	0.71239 0.58861 0.75000 0.04600
H 	H 	0.59856 0.70389 0.75000 0.04600
H 	H 	0.59638 0.78052 0.75000 0.04300
H 	H 	0.71184 0.91141 0.25000 0.04600
H 	H 	0.78847 0.90918 0.25000 0.04800
H 	H 	0.90368 0.79527 0.25000 0.04400
H 	H 	0.90142 0.71863 0.25000 0.04500
C 	C 	0.87002 0.86352 0.79335 -0.09200
C 	C 	0.89993 0.89334 0.79338 0.03000
C 	C 	0.50028 0.53226 0.55938 -0.07300
C 	C 	0.50037 0.52853 0.61059 0.04100
C 	C 	0.62895 0.63754 0.29335 -0.09200
C 	C 	0.59951 0.60724 0.29338 0.03000
C 	C 	1.00007 0.96774 0.05938 -0.07200
C 	C 	0.99995 0.97147 0.11059 0.04100
C 	C 	0.63053 0.62178 0.70665 -0.09000
C 	C 	0.60043 0.59213 0.70662 0.02900
C 	C 	0.50014 0.95826 0.89542 0.13000
C 	C 	0.50001 0.96135 0.94693 -0.10500
C 	C 	0.50010 0.91597 0.87625 -0.23000
C 	C 	0.87055 0.87717 0.20665 -0.09000
C 	C 	0.90018 0.90729 0.20662 0.02900
C 	C 	0.99960 0.54174 0.39542 0.13000
C 	C 	0.99968 0.53865 0.44693 -0.10500
C 	C 	0.99938 0.58403 0.37625 -0.23000
C 	C 	0.62895 0.63754 0.20665 -0.09200
C 	C 	0.59951 0.60724 0.20662 0.03000
C 	C 	1.00007 0.96774 0.44062 -0.07200
C 	C 	0.99995 0.97147 0.38941 0.04100
C 	C 	0.87002 0.86352 0.70665 -0.09200
C 	C 	0.89993 0.89334 0.70661 0.03000
C 	C 	0.50028 0.53226 0.94062 -0.07300
C 	C 	0.50037 0.52853 0.88941 0.04100
C 	C 	0.87055 0.87717 0.29335 -0.09000
C 	C 	0.90017 0.90729 0.29338 0.02900
C 	C 	0.99960 0.54174 0.10458 0.13000
C 	C 	0.99968 0.53865 0.05307 -0.10500
C 	C 	0.99938 0.58403 0.12375 -0.23000
C 	C 	0.63053 0.62178 0.79335 -0.09000
C 	C 	0.60043 0.59213 0.79338 0.02900
C 	C 	0.50014 0.95826 0.60458 0.13000
C 	C 	0.50001 0.96135 0.55307 -0.10500
C 	C 	0.50010 0.91597 0.62375 -0.23000
C 	C 	0.82468 0.67067 0.75000 -0.11700
C 	C 	0.85609 0.63822 0.75000 0.06900
C 	C 	0.91614 0.57711 0.75000 -0.10500
C 	C 	0.94789 0.54507 0.75000 0.35300
C 	C 	0.67605 0.81452 0.75000 -0.11800
C 	C 	0.64469 0.84701 0.75000 0.07000
C 	C 	0.58501 0.90846 0.75000 -0.11100
C 	C 	0.55329 0.94049 0.75000 0.35900
C 	C 	0.67778 0.83176 0.25000 -0.11700
C 	C 	0.64534 0.86318 0.25000 0.06900
C 	C 	0.58431 0.92331 0.25000 -0.10500
C 	C 	0.55234 0.95512 0.25000 0.35300
C 	C 	0.82153 0.68304 0.25000 -0.11800
C 	C 	0.85392 0.65159 0.25000 0.07000
C 	C 	0.91460 0.59112 0.25000 -0.11100
C 	C 	0.94654 0.55930 0.25000 0.35900
C 	C 	0.87118 0.62278 0.70665 -0.09000
C 	C 	0.90080 0.59266 0.70662 0.02900
C 	C 	0.62970 0.86254 0.70665 -0.09200
C 	C 	0.60026 0.89283 0.70662 0.03000
C 	C 	0.50009 0.99845 0.52828 0.03200
C 	C 	0.62990 0.87827 0.20665 -0.09000
C 	C 	0.59981 0.90792 0.20662 0.02900
C 	C 	0.86926 0.63640 0.20665 -0.09200
C 	C 	0.89918 0.60658 0.20662 0.03000
C 	C 	0.99995 0.50155 0.02828 0.03200
C 	C 	0.87118 0.62278 0.79335 -0.09000
C 	C 	0.90080 0.59266 0.79338 0.02900
C 	C 	0.62970 0.86254 0.79335 -0.09200
C 	C 	0.60026 0.89283 0.79338 0.03000
C 	C 	0.50009 0.99845 0.97172 0.03200
C 	C 	0.62990 0.87827 0.29335 -0.09000
C 	C 	0.59981 0.90792 0.29338 0.02900
C 	C 	0.86926 0.63640 0.29335 -0.09200
C 	C 	0.89918 0.60658 0.29338 0.03000
C 	C 	0.99996 0.50155 0.47172 0.03200
C 	C 	0.83575 0.70920 0.75000 0.07200
C 	C 	0.87732 0.72271 0.75000 -0.05600
C 	C 	0.87606 0.76199 0.75000 -0.06500
C 	C 	0.83379 0.77423 0.75000 0.08400
C 	C 	0.82227 0.81691 0.75000 -0.11800
C 	C 	0.78376 0.82797 0.75000 0.07200
C 	C 	0.77029 0.86955 0.75000 -0.05600
C 	C 	0.73102 0.86830 0.75000 -0.06400
C 	C 	0.71874 0.82602 0.75000 0.08500
C 	C 	0.85468 0.84834 0.75000 0.07000
C 	C 	0.91534 0.90881 0.75000 -0.11200
C 	C 	0.94725 0.94065 0.75000 0.35900
C 	C 	0.66625 0.78907 0.25000 0.08400
C 	C 	0.62397 0.77680 0.25000 -0.06500
C 	C 	0.62269 0.73753 0.25000 -0.05600
C 	C 	0.66426 0.72404 0.25000 0.07200
C 	C 	0.67532 0.68553 0.25000 -0.11800
C 	C 	0.71798 0.67400 0.25000 0.08500
C 	C 	0.73021 0.63172 0.25000 -0.06400
C 	C 	0.76948 0.63044 0.25000 -0.05600
C 	C 	0.78300 0.67200 0.25000 0.07200
C 	C 	0.64394 0.65306 0.25000 0.07000
C 	C 	0.58427 0.59161 0.25000 -0.11200
C 	C 	0.55258 0.55955 0.25000 0.35900
C 	C 	0.78198 0.65917 0.75000 0.08400
C 	C 	0.76970 0.61689 0.75000 -0.06400
C 	C 	0.73042 0.61563 0.75000 -0.05600
C 	C 	0.71695 0.65721 0.75000 0.07200
C 	C 	0.67843 0.66828 0.75000 -0.11800
C 	C 	0.66692 0.71096 0.75000 0.08400
C 	C 	0.62465 0.72323 0.75000 -0.06500
C 	C 	0.62340 0.76251 0.75000 -0.05600
C 	C 	0.66497 0.77600 0.75000 0.07200
C 	C 	0.64597 0.63687 0.75000 0.06900
C 	C 	0.58492 0.57674 0.75000 -0.10500
C 	C 	0.55296 0.54491 0.75000 0.35300
C 	C 	0.71632 0.84281 0.25000 0.07200
C 	C 	0.72984 0.88438 0.25000 -0.05600
C 	C 	0.76912 0.88310 0.25000 -0.06400
C 	C 	0.78135 0.84082 0.25000 0.08500
C 	C 	0.82403 0.82929 0.25000 -0.11700
C 	C 	0.83508 0.79076 0.25000 0.07200
C 	C 	0.87664 0.77726 0.25000 -0.05600
C 	C 	0.87536 0.73798 0.25000 -0.06500
C 	C 	0.83307 0.72573 0.25000 0.08400
C 	C 	0.85546 0.86173 0.25000 0.06900
C 	C 	0.91552 0.92285 0.25000 -0.10500
C 	C 	0.94727 0.95489 0.25000 0.35300
N 	N 	0.50030 0.99213 0.63391 -0.20900
N 	N 	0.99973 0.50787 0.13391 -0.20900
N 	N 	0.50030 0.99213 0.86609 -0.20900
N 	N 	0.99973 0.50787 0.36609 -0.20900
N 	N 	0.80945 0.74336 0.75000 -0.28300
N 	N 	0.74959 0.80167 0.75000 -0.28300
N 	N 	0.69058 0.75821 0.25000 -0.28300
N 	N 	0.74886 0.69833 0.25000 -0.28300
N 	N 	0.75112 0.68351 0.75000 -0.28300
N 	N 	0.69127 0.74183 0.75000 -0.28300
N 	N 	0.75047 0.81649 0.25000 -0.28300
N 	N 	0.80875 0.75660 0.25000 -0.28300
O 	O 	0.96098 0.95427 0.78982 -0.47200
O 	O 	0.53892 0.54586 0.28982 -0.47200
O 	O 	0.53929 0.53126 0.70999 -0.46300
O 	O 	0.96088 0.96861 0.20999 -0.46300
O 	O 	0.53892 0.54586 0.21018 -0.47200
O 	O 	0.96098 0.95427 0.71018 -0.47200
O 	O 	0.96088 0.96861 0.29001 -0.46300
O 	O 	0.53929 0.53126 0.79001 -0.46300
O 	O 	0.96150 0.53136 0.71000 -0.46300
O 	O 	0.53961 0.95417 0.71018 -0.47200
O 	O 	0.53866 0.96877 0.21000 -0.46300
O 	O 	0.96028 0.54569 0.21018 -0.47200
O 	O 	0.96150 0.53136 0.79000 -0.46300
O 	O 	0.53961 0.95417 0.78982 -0.47200
O 	O 	0.53866 0.96877 0.29000 -0.46300
O 	O 	0.96028 0.54569 0.28982 -0.47200
