data_crystal

_cell_length_a 15.32900
_cell_length_b 15.32900
_cell_length_c 15.40300
_cell_angle_alpha 90.00000
_cell_angle_beta  90.00000
_cell_angle_gamma 120.00000

_symmetry_space_group_name_	'P 1'
_symmetry_space_group_name_H-M	'P 1'

loop_
_symmetry_equiv_pos_as_xyz
  x,y,z

loop_
_atom_site_label
_atom_site_type_symbol
_atom_site_fract_x
_atom_site_fract_y
_atom_site_fract_z
_atom_site_charge
Nd	Nd	0.33333 0.66666 0.75000 2.25500
Nd	Nd	0.66667 0.33334 0.75000 2.22800
Nd	Nd	0.66667 0.33334 0.25000 2.20500
Nd	Nd	0.33333 0.66666 0.25000 2.23200
Fe	Fe	1.00000 0.50000 -0.00000 1.04300
Fe	Fe	0.50000 0.00000 -0.00000 1.04300
Fe	Fe	0.50000 0.50000 -0.00000 1.09500
Fe	Fe	0.50000 0.50000 0.50000 1.17200
Fe	Fe	0.50000 0.00000 0.50000 1.11900
Fe	Fe	1.00000 0.50000 0.50000 1.11900
H 	H 	0.05400 0.76770 0.84450 0.10000
H 	H 	0.71370 0.94600 0.84450 0.09000
H 	H 	0.23230 0.28630 0.84450 0.07200
H 	H 	0.94600 0.23230 0.84450 0.03400
H 	H 	0.28630 0.05400 0.84450 0.04400
H 	H 	0.76770 0.71370 0.84450 0.06200
H 	H 	0.28630 0.23230 0.65550 0.04200
H 	H 	0.76770 0.05400 0.65550 0.01300
H 	H 	0.94600 0.71370 0.65550 0.02300
H 	H 	0.71370 0.76770 0.65550 0.05100
H 	H 	0.23230 0.94600 0.65550 0.08100
H 	H 	0.05400 0.28630 0.65550 0.07000
H 	H 	0.94600 0.23230 0.15550 -0.00900
H 	H 	0.28630 0.05400 0.15550 0.00100
H 	H 	0.76770 0.71370 0.15550 0.01900
H 	H 	0.05400 0.76770 0.15550 0.06000
H 	H 	0.71370 0.94600 0.15550 0.04900
H 	H 	0.23230 0.28630 0.15550 0.02900
H 	H 	0.71370 0.76770 0.34450 0.04700
H 	H 	0.23230 0.94600 0.34450 0.07800
H 	H 	0.05400 0.28630 0.34450 0.06700
H 	H 	0.28630 0.23230 0.34450 0.03800
H 	H 	0.76770 0.05400 0.34450 0.00900
H 	H 	0.94600 0.71370 0.34450 0.01900
H 	H 	0.09925 0.90075 0.75000 0.08200
H 	H 	0.80150 0.90075 0.75000 0.05200
H 	H 	0.09925 0.19850 0.75000 0.05100
H 	H 	0.90075 0.09925 0.75000 0.00700
H 	H 	0.19850 0.09925 0.75000 0.03800
H 	H 	0.90075 0.80150 0.75000 0.03800
H 	H 	0.90075 0.09925 0.25000 0.00100
H 	H 	0.19850 0.09925 0.25000 0.03300
H 	H 	0.90075 0.80150 0.25000 0.03300
H 	H 	0.09925 0.90075 0.25000 0.07800
H 	H 	0.80150 0.90075 0.25000 0.04700
H 	H 	0.09925 0.19850 0.25000 0.04700
C 	C 	0.13650 0.64880 0.86130 0.36300
C 	C 	0.16000 0.73690 0.80390 -0.00100
C 	C 	0.10720 0.78680 0.80590 -0.02100
C 	C 	0.51230 0.86350 0.86130 0.36200
C 	C 	0.57690 0.84000 0.80390 -0.00800
C 	C 	0.67960 0.89280 0.80590 -0.02700
C 	C 	0.35120 0.48770 0.86130 0.36800
C 	C 	0.26310 0.42310 0.80390 -0.01800
C 	C 	0.21320 0.32040 0.80590 -0.02600
C 	C 	0.86350 0.35120 0.86130 0.36800
C 	C 	0.84000 0.26310 0.80390 -0.04800
C 	C 	0.89280 0.21320 0.80590 -0.02900
C 	C 	0.48770 0.13650 0.86130 0.36900
C 	C 	0.42310 0.16000 0.80390 -0.04100
C 	C 	0.32040 0.10720 0.80590 -0.02300
C 	C 	0.64880 0.51230 0.86130 0.36700
C 	C 	0.73690 0.57690 0.80390 -0.03300
C 	C 	0.78680 0.67960 0.80590 -0.02200
C 	C 	0.48770 0.35120 0.63870 0.37400
C 	C 	0.42310 0.26310 0.69610 -0.04800
C 	C 	0.32040 0.21320 0.69410 -0.02000
C 	C 	0.64880 0.13650 0.63870 0.37500
C 	C 	0.73690 0.16000 0.69610 -0.06300
C 	C 	0.78680 0.10720 0.69410 -0.02600
C 	C 	0.86350 0.51230 0.63870 0.37600
C 	C 	0.84000 0.57690 0.69610 -0.05600
C 	C 	0.89280 0.67960 0.69410 -0.02000
C 	C 	0.51230 0.64880 0.63870 0.37600
C 	C 	0.57690 0.73690 0.69610 -0.03300
C 	C 	0.67960 0.78680 0.69410 -0.02400
C 	C 	0.35120 0.86350 0.63870 0.37000
C 	C 	0.26310 0.84000 0.69610 -0.01600
C 	C 	0.21320 0.89280 0.69410 -0.01900
C 	C 	0.13650 0.48770 0.63870 0.36900
C 	C 	0.16000 0.42310 0.69610 -0.02300
C 	C 	0.10720 0.32040 0.69410 -0.02500
C 	C 	0.86350 0.35120 0.13870 0.37600
C 	C 	0.84000 0.26310 0.19610 -0.08300
C 	C 	0.89280 0.21320 0.19410 -0.01600
C 	C 	0.48770 0.13650 0.13870 0.37700
C 	C 	0.42310 0.16000 0.19610 -0.07700
C 	C 	0.32040 0.10720 0.19410 -0.00900
C 	C 	0.64880 0.51230 0.13870 0.37600
C 	C 	0.73690 0.57690 0.19610 -0.06800
C 	C 	0.78680 0.67960 0.19410 -0.00900
C 	C 	0.13650 0.64880 0.13870 0.37200
C 	C 	0.16000 0.73690 0.19610 -0.03400
C 	C 	0.10720 0.78680 0.19410 -0.00800
C 	C 	0.51230 0.86350 0.13870 0.37000
C 	C 	0.57690 0.84000 0.19610 -0.04200
C 	C 	0.67960 0.89280 0.19410 -0.01400
C 	C 	0.35120 0.48770 0.13870 0.37700
C 	C 	0.26310 0.42310 0.19610 -0.05300
C 	C 	0.21320 0.32040 0.19410 -0.01300
C 	C 	0.51230 0.64880 0.36130 0.37700
C 	C 	0.57690 0.73690 0.30390 -0.04100
C 	C 	0.67960 0.78680 0.30590 -0.01400
C 	C 	0.35120 0.86350 0.36130 0.37100
C 	C 	0.26310 0.84000 0.30390 -0.02300
C 	C 	0.21320 0.89280 0.30590 -0.00900
C 	C 	0.13650 0.48770 0.36130 0.37000
C 	C 	0.16000 0.42310 0.30390 -0.03100
C 	C 	0.10720 0.32040 0.30590 -0.01400
C 	C 	0.48770 0.35120 0.36130 0.37500
C 	C 	0.42310 0.26310 0.30390 -0.05700
C 	C 	0.32040 0.21320 0.30590 -0.01000
C 	C 	0.64880 0.13650 0.36130 0.37600
C 	C 	0.73690 0.16000 0.30390 -0.07200
C 	C 	0.78680 0.10720 0.30590 -0.01700
C 	C 	0.86350 0.51230 0.36130 0.37700
C 	C 	0.84000 0.57690 0.30390 -0.06500
C 	C 	0.89280 0.67960 0.30590 -0.01000
C 	C 	0.13425 0.86575 0.75000 -0.00800
C 	C 	0.73150 0.86575 0.75000 -0.02100
C 	C 	0.13425 0.26850 0.75000 -0.02100
C 	C 	0.86575 0.13425 0.75000 -0.07100
C 	C 	0.26850 0.13425 0.75000 -0.05900
C 	C 	0.86575 0.73150 0.75000 -0.05900
C 	C 	0.86575 0.13425 0.25000 -0.09600
C 	C 	0.26850 0.13425 0.25000 -0.08300
C 	C 	0.86575 0.73150 0.25000 -0.08300
C 	C 	0.13425 0.86575 0.25000 -0.03000
C 	C 	0.73150 0.86575 0.25000 -0.04500
C 	C 	0.13425 0.26850 0.25000 -0.04500
N 	N 	0.23720 0.76280 0.75000 -0.20700
N 	N 	0.52560 0.76280 0.75000 -0.20700
N 	N 	0.23720 0.47440 0.75000 -0.20700
N 	N 	0.76280 0.23720 0.75000 -0.20400
N 	N 	0.47440 0.23720 0.75000 -0.20400
N 	N 	0.76280 0.52560 0.75000 -0.20400
N 	N 	0.76280 0.23720 0.25000 -0.19900
N 	N 	0.47440 0.23720 0.25000 -0.19900
N 	N 	0.76280 0.52560 0.25000 -0.19900
N 	N 	0.23720 0.76280 0.25000 -0.20200
N 	N 	0.52560 0.76280 0.25000 -0.20200
N 	N 	0.23720 0.47440 0.25000 -0.20200
O 	O 	0.19630 0.61460 0.85810 -0.44000
O 	O 	0.06030 0.61610 0.90730 -0.31200
O 	O 	0.41830 0.80370 0.85810 -0.44200
O 	O 	0.55580 0.93970 0.90730 -0.31500
O 	O 	0.38540 0.58170 0.85810 -0.45600
O 	O 	0.38390 0.44420 0.90730 -0.36000
O 	O 	0.80370 0.38540 0.85810 -0.46600
O 	O 	0.93970 0.38390 0.90730 -0.39400
O 	O 	0.58170 0.19630 0.85810 -0.46500
O 	O 	0.44420 0.06030 0.90730 -0.39100
O 	O 	0.61460 0.41830 0.85810 -0.45600
O 	O 	0.61610 0.55580 0.90730 -0.36400
O 	O 	0.58170 0.38540 0.64190 -0.48800
O 	O 	0.44420 0.38390 0.59270 -0.43000
O 	O 	0.61460 0.19630 0.64190 -0.49900
O 	O 	0.61610 0.06030 0.59270 -0.46100
O 	O 	0.80370 0.41830 0.64190 -0.49800
O 	O 	0.93970 0.55580 0.59270 -0.45700
O 	O 	0.41830 0.61460 0.64190 -0.48800
O 	O 	0.55580 0.61610 0.59270 -0.42600
O 	O 	0.38540 0.80370 0.64190 -0.47200
O 	O 	0.38390 0.93970 0.59270 -0.37500
O 	O 	0.19630 0.58170 0.64190 -0.47300
O 	O 	0.06030 0.44420 0.59270 -0.37900
O 	O 	0.80370 0.38540 0.14190 -0.52000
O 	O 	0.93970 0.38390 0.09270 -0.49700
O 	O 	0.58170 0.19630 0.14190 -0.51900
O 	O 	0.44420 0.06030 0.09270 -0.49400
O 	O 	0.61460 0.41830 0.14190 -0.50900
O 	O 	0.61610 0.55580 0.09270 -0.46600
O 	O 	0.19630 0.61460 0.14190 -0.49200
O 	O 	0.06030 0.61610 0.09270 -0.40900
O 	O 	0.41830 0.80370 0.14190 -0.49300
O 	O 	0.55580 0.93970 0.09270 -0.41300
O 	O 	0.38540 0.58170 0.14190 -0.50900
O 	O 	0.38390 0.44420 0.09270 -0.46200
O 	O 	0.41830 0.61460 0.35810 -0.48600
O 	O 	0.55580 0.61610 0.40730 -0.42600
O 	O 	0.38540 0.80370 0.35810 -0.46900
O 	O 	0.38390 0.93970 0.40730 -0.37400
O 	O 	0.19630 0.58170 0.35810 -0.47100
O 	O 	0.06030 0.44420 0.40730 -0.37800
O 	O 	0.58170 0.38540 0.35810 -0.48600
O 	O 	0.44420 0.38390 0.40730 -0.43000
O 	O 	0.61460 0.19630 0.35810 -0.49700
O 	O 	0.61610 0.06030 0.40730 -0.46100
O 	O 	0.80370 0.41830 0.35810 -0.49600
O 	O 	0.93970 0.55580 0.40730 -0.45800
