data_crystal

_cell_length_a 15.30920
_cell_length_b 15.30920
_cell_length_c 15.34600
_cell_angle_alpha 90.00000
_cell_angle_beta  90.00000
_cell_angle_gamma 120.00000

_symmetry_space_group_name_	'P 1'
_symmetry_space_group_name_H-M	'P 1'

loop_
_symmetry_equiv_pos_as_xyz
  x,y,z

loop_
_atom_site_label
_atom_site_type_symbol
_atom_site_fract_x
_atom_site_fract_y
_atom_site_fract_z
_atom_site_charge
Sm	Sm	0.33333 0.66666 0.75000 2.04800
Sm	Sm	0.66667 0.33334 0.75000 2.04800
Sm	Sm	0.66667 0.33334 0.25000 2.04100
Sm	Sm	0.33333 0.66666 0.25000 2.04000
Co	Co	0.50000 0.50000 0.50000 1.16400
Co	Co	0.00000 0.50000 0.50000 1.12600
Co	Co	0.50000 -0.00000 0.50000 1.12600
Co	Co	-0.00000 0.50000 -0.00000 1.10600
Co	Co	0.50000 0.50000 1.00000 1.18600
Co	Co	0.50000 0.00000 -0.00000 1.10600
H 	H 	0.23360 0.28710 0.65530 0.04100
H 	H 	0.05350 0.76640 0.65530 0.03400
H 	H 	0.71290 0.94650 0.65530 0.07400
H 	H 	0.76640 0.71290 0.65530 0.05800
H 	H 	0.94650 0.23360 0.65530 0.06600
H 	H 	0.28710 0.05350 0.65530 0.02500
H 	H 	0.94650 0.71290 0.84470 0.08000
H 	H 	0.28710 0.23360 0.84470 0.04800
H 	H 	0.76640 0.05350 0.84470 0.04100
H 	H 	0.05350 0.28710 0.84470 0.03300
H 	H 	0.71290 0.76640 0.84470 0.06400
H 	H 	0.23360 0.94650 0.84470 0.07200
H 	H 	0.76640 0.71290 0.34470 0.05700
H 	H 	0.94650 0.23360 0.34470 0.06500
H 	H 	0.28710 0.05350 0.34470 0.02400
H 	H 	0.23360 0.28710 0.34470 0.04000
H 	H 	0.05350 0.76640 0.34470 0.03300
H 	H 	0.71290 0.94650 0.34470 0.07300
H 	H 	0.05350 0.28710 0.15530 0.01800
H 	H 	0.71290 0.76640 0.15530 0.05100
H 	H 	0.23360 0.94650 0.15530 0.06000
H 	H 	0.94650 0.71290 0.15530 0.06800
H 	H 	0.28710 0.23360 0.15530 0.03400
H 	H 	0.76640 0.05350 0.15530 0.02700
H 	H 	0.10015 0.20030 0.75000 0.01500
H 	H 	0.10015 0.89985 0.75000 0.04100
H 	H 	0.79970 0.89985 0.75000 0.06700
H 	H 	0.89985 0.79970 0.75000 0.06700
H 	H 	0.89985 0.10015 0.75000 0.04000
H 	H 	0.20030 0.10015 0.75000 0.01500
H 	H 	0.89985 0.79970 0.25000 0.06600
H 	H 	0.89985 0.10015 0.25000 0.03900
H 	H 	0.20030 0.10015 0.25000 0.01300
H 	H 	0.10015 0.20030 0.25000 0.01200
H 	H 	0.10015 0.89985 0.25000 0.03900
H 	H 	0.79970 0.89985 0.25000 0.06600
C 	C 	0.35410 0.49000 0.63840 0.36600
C 	C 	0.26480 0.42480 0.69640 -0.03700
C 	C 	0.21450 0.32140 0.69390 -0.03400
C 	C 	0.13590 0.64590 0.63840 0.36900
C 	C 	0.16000 0.73520 0.69640 -0.03800
C 	C 	0.10690 0.78550 0.69390 -0.02900
C 	C 	0.51000 0.86410 0.63840 0.36300
C 	C 	0.57520 0.84000 0.69640 -0.01700
C 	C 	0.67860 0.89310 0.69390 -0.02300
C 	C 	0.64590 0.51000 0.63840 0.36800
C 	C 	0.73520 0.57520 0.69640 -0.02600
C 	C 	0.78550 0.67860 0.69390 -0.02300
C 	C 	0.86410 0.35410 0.63840 0.36200
C 	C 	0.84000 0.26480 0.69640 -0.02300
C 	C 	0.89310 0.21450 0.69390 -0.02900
C 	C 	0.49000 0.13590 0.63840 0.36800
C 	C 	0.42480 0.16000 0.69640 -0.04400
C 	C 	0.32140 0.10690 0.69390 -0.03400
C 	C 	0.86410 0.51000 0.86160 0.36100
C 	C 	0.84000 0.57520 0.80360 -0.01300
C 	C 	0.89310 0.67860 0.80610 -0.02400
C 	C 	0.49000 0.35410 0.86160 0.36600
C 	C 	0.42480 0.26480 0.80360 -0.03300
C 	C 	0.32140 0.21450 0.80610 -0.03400
C 	C 	0.64590 0.13590 0.86160 0.36700
C 	C 	0.73520 0.16000 0.80360 -0.03300
C 	C 	0.78550 0.10690 0.80610 -0.03000
C 	C 	0.13590 0.49000 0.86160 0.36600
C 	C 	0.16000 0.42480 0.80360 -0.03900
C 	C 	0.10690 0.32140 0.80610 -0.03500
C 	C 	0.51000 0.64590 0.86160 0.36800
C 	C 	0.57520 0.73520 0.80360 -0.02200
C 	C 	0.67860 0.78550 0.80610 -0.02300
C 	C 	0.35410 0.86410 0.86160 0.36000
C 	C 	0.26480 0.84000 0.80360 -0.01800
C 	C 	0.21450 0.89310 0.80610 -0.02900
C 	C 	0.64590 0.51000 0.36160 0.36900
C 	C 	0.73520 0.57520 0.30360 -0.02800
C 	C 	0.78550 0.67860 0.30610 -0.02000
C 	C 	0.86410 0.35410 0.36160 0.36200
C 	C 	0.84000 0.26480 0.30360 -0.02500
C 	C 	0.89310 0.21450 0.30610 -0.02600
C 	C 	0.49000 0.13590 0.36160 0.36800
C 	C 	0.42480 0.16000 0.30360 -0.04700
C 	C 	0.32140 0.10690 0.30610 -0.03100
C 	C 	0.35410 0.49000 0.36160 0.36600
C 	C 	0.26480 0.42480 0.30360 -0.04000
C 	C 	0.21450 0.32140 0.30610 -0.03100
C 	C 	0.13590 0.64590 0.36160 0.36900
C 	C 	0.16000 0.73520 0.30360 -0.04100
C 	C 	0.10690 0.78550 0.30610 -0.02600
C 	C 	0.51000 0.86410 0.36160 0.36300
C 	C 	0.57520 0.84000 0.30360 -0.02000
C 	C 	0.67860 0.89310 0.30610 -0.02000
C 	C 	0.13590 0.49000 0.13840 0.36800
C 	C 	0.16000 0.42480 0.19640 -0.05000
C 	C 	0.10690 0.32140 0.19390 -0.03100
C 	C 	0.51000 0.64590 0.13840 0.37000
C 	C 	0.57520 0.73520 0.19640 -0.03200
C 	C 	0.67860 0.78550 0.19390 -0.01900
C 	C 	0.35410 0.86410 0.13840 0.36200
C 	C 	0.26480 0.84000 0.19640 -0.02800
C 	C 	0.21450 0.89310 0.19390 -0.02600
C 	C 	0.86410 0.51000 0.13840 0.36300
C 	C 	0.84000 0.57520 0.19640 -0.02300
C 	C 	0.89310 0.67860 0.19390 -0.02000
C 	C 	0.49000 0.35410 0.13840 0.36800
C 	C 	0.42480 0.26480 0.19640 -0.04400
C 	C 	0.32140 0.21450 0.19390 -0.03000
C 	C 	0.64590 0.13590 0.13840 0.36900
C 	C 	0.73520 0.16000 0.19640 -0.04400
C 	C 	0.78550 0.10690 0.19390 -0.02600
C 	C 	0.13490 0.26980 0.75000 -0.05000
C 	C 	0.13490 0.86510 0.75000 -0.03900
C 	C 	0.73020 0.86510 0.75000 -0.03000
C 	C 	0.86510 0.73020 0.75000 -0.03000
C 	C 	0.86510 0.13490 0.75000 -0.03900
C 	C 	0.26980 0.13490 0.75000 -0.05000
C 	C 	0.86510 0.73020 0.25000 -0.03600
C 	C 	0.86510 0.13490 0.25000 -0.04600
C 	C 	0.26980 0.13490 0.25000 -0.05800
C 	C 	0.13490 0.26980 0.25000 -0.05800
C 	C 	0.13490 0.86510 0.25000 -0.04600
C 	C 	0.73020 0.86510 0.25000 -0.03700
N 	N 	0.23790 0.47580 0.75000 -0.19500
N 	N 	0.23790 0.76210 0.75000 -0.19400
N 	N 	0.52420 0.76210 0.75000 -0.19400
N 	N 	0.76210 0.52420 0.75000 -0.19400
N 	N 	0.76210 0.23790 0.75000 -0.19500
N 	N 	0.47580 0.23790 0.75000 -0.19400
N 	N 	0.76210 0.52420 0.25000 -0.19300
N 	N 	0.76210 0.23790 0.25000 -0.19300
N 	N 	0.47580 0.23790 0.25000 -0.19300
N 	N 	0.23790 0.47580 0.25000 -0.19300
N 	N 	0.23790 0.76210 0.25000 -0.19300
N 	N 	0.52420 0.76210 0.25000 -0.19300
O 	O 	0.38770 0.58460 0.64260 -0.46200
O 	O 	0.38700 0.44630 0.59310 -0.43200
O 	O 	0.19690 0.61230 0.64260 -0.47000
O 	O 	0.05930 0.61300 0.59310 -0.45400
O 	O 	0.41540 0.80310 0.64260 -0.44800
O 	O 	0.55370 0.94070 0.59310 -0.38600
O 	O 	0.61230 0.41540 0.64260 -0.46000
O 	O 	0.61300 0.55370 0.59310 -0.42600
O 	O 	0.80310 0.38770 0.64260 -0.44800
O 	O 	0.94070 0.38700 0.59310 -0.38900
O 	O 	0.58460 0.19690 0.64260 -0.47100
O 	O 	0.44630 0.05930 0.59310 -0.45700
O 	O 	0.80310 0.41540 0.85740 -0.43800
O 	O 	0.94070 0.55370 0.90690 -0.36800
O 	O 	0.58460 0.38770 0.85740 -0.45400
O 	O 	0.44630 0.38700 0.90690 -0.41900
O 	O 	0.61230 0.19690 0.85740 -0.46000
O 	O 	0.61300 0.05930 0.90690 -0.43300
O 	O 	0.19690 0.58460 0.85740 -0.46100
O 	O 	0.05930 0.44630 0.90690 -0.43600
O 	O 	0.41540 0.61230 0.85740 -0.45200
O 	O 	0.55370 0.61300 0.90690 -0.41400
O 	O 	0.38770 0.80310 0.85740 -0.43900
O 	O 	0.38700 0.94070 0.90690 -0.37100
O 	O 	0.61230 0.41540 0.35740 -0.45900
O 	O 	0.61300 0.55370 0.40690 -0.42600
O 	O 	0.80310 0.38770 0.35740 -0.44800
O 	O 	0.94070 0.38700 0.40690 -0.38900
O 	O 	0.58460 0.19690 0.35740 -0.47000
O 	O 	0.44630 0.05930 0.40690 -0.45700
O 	O 	0.38770 0.58460 0.35740 -0.46100
O 	O 	0.38700 0.44630 0.40690 -0.43200
O 	O 	0.19690 0.61230 0.35740 -0.46900
O 	O 	0.05930 0.61300 0.40690 -0.45400
O 	O 	0.41540 0.80310 0.35740 -0.44700
O 	O 	0.55370 0.94070 0.40690 -0.38600
O 	O 	0.19690 0.58460 0.14260 -0.47700
O 	O 	0.05930 0.44630 0.09310 -0.46900
O 	O 	0.41540 0.61230 0.14260 -0.46900
O 	O 	0.55370 0.61300 0.09310 -0.44500
O 	O 	0.38770 0.80310 0.14260 -0.45500
O 	O 	0.38700 0.94070 0.09310 -0.40000
O 	O 	0.80310 0.41540 0.14260 -0.45400
O 	O 	0.94070 0.55370 0.09310 -0.39700
O 	O 	0.58460 0.38770 0.14260 -0.47100
O 	O 	0.44630 0.38700 0.09310 -0.45200
O 	O 	0.61230 0.19690 0.14260 -0.47600
O 	O 	0.61300 0.05930 0.09310 -0.46600
