data_crystal

_cell_length_a 46.61800
_cell_length_b 15.15900
_cell_length_c 27.70400
_cell_angle_alpha 90.00000
_cell_angle_beta  107.72100
_cell_angle_gamma 90.00000

_symmetry_space_group_name_	'P 1'
_symmetry_space_group_name_H-M	'P 1'

loop_
_symmetry_equiv_pos_as_xyz
  x,y,z

loop_
_atom_site_label
_atom_site_type_symbol
_atom_site_fract_x
_atom_site_fract_y
_atom_site_fract_z
_atom_site_charge
C 	C 	0.90772 0.83380 0.28694 0.09300
O 	O 	0.99577 0.12378 0.03396 -0.49400
H 	H 	0.99170 0.11530 0.06030 0.23900
Ni	Ni	0.87920 0.40998 0.44657 1.05600
N 	N 	0.91938 0.91010 0.26992 -0.15600
N 	N 	0.84191 0.57820 0.53387 -0.13400
N 	N 	0.20169 0.80300 0.13328 -0.14800
N 	N 	0.24013 0.52240 0.03403 -0.14900
N 	N 	0.98708 0.89370 0.13315 -0.13100
N 	N 	0.91849 0.23820 0.36549 -0.13000
N 	N 	0.89138 0.31360 0.50235 -0.23100
N 	N 	0.87264 0.60840 0.33833 -0.13700
N 	N 	0.04677 0.01760 0.02270 -0.22900
O 	O 	0.91732 0.48417 0.48672 -0.48700
H 	H 	0.91260 0.53610 0.48740 0.24100
O 	O 	0.20647 0.76510 0.50797 -0.48700
H 	H 	0.20790 0.77150 0.53800 0.23100
C 	C 	0.86020 0.80770 0.58072 -0.08500
H 	H 	0.87510 0.84980 0.58290 0.06500
C 	C 	0.00889 0.83380 0.13004 -0.00700
H 	H 	0.01660 0.78710 0.15200 0.03400
N 	N 	0.22853 0.73340 0.42301 -0.22600
C 	C 	0.85355 0.07150 0.53308 -0.04300
H 	H 	0.84930 0.08120 0.49850 0.05000
C 	C 	0.89709 0.75210 0.35443 -0.07500
H 	H 	0.89760 0.74800 0.38820 0.05900
N 	N 	0.00087 0.93020 0.06551 -0.22500
N 	N 	0.85449 0.47450 0.48757 -0.23700
N 	N 	0.86757 0.50180 0.38932 -0.24800
N 	N 	0.24771 0.38750 0.00899 -0.23600
N 	N 	0.90471 0.34500 0.40844 -0.23400
C 	C 	0.12720 0.86780 0.04339 -0.06700
H 	H 	0.11200 0.84500 0.01620 0.04800
C 	C 	0.91778 0.30220 0.54193 0.00700
H 	H 	0.93490 0.33710 0.54770 0.03700
C 	C 	0.91491 0.23270 0.57089 0.00100
H 	H 	0.92940 0.21180 0.59960 0.03700
N 	N 	0.76480 0.96430 0.75350 -0.14300
N 	N 	0.74702 0.95590 0.81780 -0.10300
C 	C 	0.77120 0.92670 0.80084 0.06900
H 	H 	0.78740 0.89090 0.81760 0.00200
C 	C 	0.87340 0.25040 0.50829 0.08600
H 	H 	0.85400 0.24140 0.48690 -0.02000
C 	C 	0.94255 0.29590 0.38190 -0.00200
H 	H 	0.96120 0.29100 0.37630 0.03600
C 	C 	0.74129 0.00560 0.74473 0.06000
H 	H 	0.73320 0.03550 0.71430 0.00400
C 	C 	0.94132 0.97880 0.21079 -0.07900
H 	H 	0.93230 0.03160 0.21520 0.05900
C 	C 	0.25444 0.53250 0.99823 0.02300
H 	H 	0.26010 0.58520 0.98650 0.02700
C 	C 	0.23492 0.76210 0.38210 0.09600
H 	H 	0.25240 0.79260 0.38280 -0.02200
C 	C 	0.83763 0.43810 0.51582 -0.00400
H 	H 	0.83220 0.37890 0.51500 0.02500
C 	C 	0.22390 0.74570 0.07070 -0.07800
H 	H 	0.22620 0.80340 0.06110 0.05700
C 	C 	0.89127 0.11610 0.31307 -0.05100
H 	H 	0.87310 0.14470 0.30970 0.04700
C 	C 	0.81961 0.86860 0.69394 -0.07500
H 	H 	0.83280 0.82120 0.69880 0.05900
C 	C 	0.20143 0.69110 0.40468 0.00900
H 	H 	0.19140 0.66330 0.42480 0.02900
C 	C 	0.84707 0.56240 0.31300 -0.00600
H 	H 	0.83420 0.57350 0.28060 0.03500
C 	C 	0.93362 0.36090 0.40791 0.01300
H 	H 	0.94530 0.40900 0.42300 0.03300
C 	C 	0.23615 0.75900 0.27165 -0.07600
H 	H 	0.25500 0.74640 0.29440 0.05500
C 	C 	0.81447 0.76360 0.59618 -0.09200
H 	H 	0.79850 0.77540 0.60860 0.06900
C 	C 	0.17604 0.85390 0.10452 0.09800
C 	C 	0.01687 0.85690 0.08832 0.01300
H 	H 	0.03110 0.82750 0.07690 0.02400
C 	C 	0.89619 0.27190 0.38220 0.08900
H 	H 	0.87720 0.24650 0.37590 -0.02900
C 	C 	0.95844 0.97560 0.17765 -0.05900
H 	H 	0.96110 0.02640 0.16060 0.04500
C 	C 	0.88380 0.56890 0.38360 0.10400
H 	H 	0.90120 0.58740 0.40820 -0.01800
C 	C 	0.85648 0.55970 0.49913 0.09500
H 	H 	0.86640 0.60130 0.48540 -0.02100
C 	C 	0.23001 0.59160 0.05947 0.09000
C 	C 	0.21087 0.72930 0.10870 0.08700
C 	C 	0.84026 0.66200 0.55609 0.08100
C 	C 	0.23653 0.43490 0.03945 0.09600
H 	H 	0.22730 0.41070 0.06180 -0.02000
C 	C 	0.86220 0.72610 0.55962 -0.06900
H 	H 	0.87840 0.71390 0.54770 0.05300
C 	C 	0.87312 0.12770 0.56782 0.07300
C 	C 	0.90847 0.82720 0.33734 -0.08400
H 	H 	0.91660 0.87290 0.35980 0.06600
C 	C 	0.89538 0.76540 0.25399 -0.08700
H 	H 	0.89440 0.76990 0.22010 0.06100
C 	C 	0.14736 0.98720 0.09974 -0.05100
H 	H 	0.14550 0.04390 0.11110 0.04300
C 	C 	0.23344 0.67620 0.04720 -0.08000
H 	H 	0.24250 0.68810 0.02230 0.05100
C 	C 	0.94548 0.11190 0.34594 -0.05000
H 	H 	0.96350 0.13710 0.36520 0.04800
C 	C 	0.21700 0.57420 0.09631 -0.07300
H 	H 	0.21450 0.51620 0.10520 0.05000
C 	C 	0.84683 0.98620 0.60213 0.12000
C 	C 	0.84445 0.49770 0.34500 0.00400
H 	H 	0.82900 0.45620 0.33780 0.00200
C 	C 	0.88448 0.69090 0.27096 -0.07300
H 	H 	0.87670 0.64500 0.24860 0.05800
C 	C 	0.19100 0.69490 0.35253 0.00400
H 	H 	0.17320 0.67130 0.33120 0.03000
C 	C 	0.94543 0.03190 0.32219 -0.11500
H 	H 	0.96360 0.00390 0.32470 0.07500
C 	C 	0.78383 0.95150 0.72014 0.09600
C 	C 	0.17366 0.93920 0.12039 -0.10000
H 	H 	0.18970 0.96470 0.14500 0.07600
C 	C 	0.23300 0.77430 0.22069 -0.07300
H 	H 	0.24980 0.77220 0.20930 0.06100
C 	C 	0.83589 0.82730 0.59876 0.09600
C 	C 	0.81663 0.68110 0.57497 -0.06700
H 	H 	0.80200 0.63850 0.57350 0.05800
C 	C 	0.87921 0.11350 0.61900 -0.05300
H 	H 	0.89210 0.15130 0.64210 0.05500
C 	C 	0.25880 0.44850 0.98301 0.02400
H 	H 	0.26800 0.43510 0.95850 0.01900
C 	C 	0.84036 0.00080 0.55058 -0.12100
H 	H 	0.82720 0.96340 0.52760 0.08300
C 	C 	0.20746 0.64330 0.12054 -0.08400
H 	H 	0.19850 0.63070 0.14550 0.06600
C 	C 	0.79886 0.99900 0.64897 -0.05000
H 	H 	0.79770 0.03950 0.62320 0.05400
C 	C 	0.18009 0.80070 0.20533 -0.07200
H 	H 	0.16130 0.81590 0.18340 0.06600
C 	C 	0.78209 0.01190 0.68174 -0.09900
H 	H 	0.76970 0.06110 0.67810 0.06700
C 	C 	0.81736 0.92630 0.65424 0.08100
C 	C 	0.21097 0.76270 0.28798 0.08900
C 	C 	0.72800 0.00600 0.78018 -0.04100
H 	H 	0.71010 0.03330 0.77990 0.04400
C 	C 	0.91836 0.15460 0.34086 0.06700
C 	C 	0.86614 0.04280 0.63610 -0.10800
H 	H 	0.87040 0.03320 0.67070 0.07300
C 	C 	0.83001 0.50030 0.54486 0.00800
H 	H 	0.81900 0.49210 0.56750 0.03000
C 	C 	0.80260 0.88000 0.72644 -0.08300
H 	H 	0.80390 0.83970 0.75230 0.05500
C 	C 	0.18349 0.78610 0.25556 -0.07900
H 	H 	0.16710 0.79220 0.26770 0.06700
C 	C 	0.15331 0.81910 0.06541 -0.09700
H 	H 	0.15530 0.76280 0.05350 0.06400
C 	C 	0.20467 0.79270 0.18678 0.08300
C 	C 	0.89157 0.03460 0.29043 -0.11200
H 	H 	0.87350 0.00800 0.27230 0.07200
N 	N 	0.21262 0.74110 0.33900 -0.13600
N 	N 	0.83418 0.91180 0.61985 -0.15500
C 	C 	0.88509 0.68410 0.32144 0.08300
C 	C 	0.93756 0.90460 0.23734 0.09200
C 	C 	0.96832 0.82360 0.19704 -0.06900
H 	H 	0.97740 0.77100 0.19250 0.05600
C 	C 	0.91859 0.99310 0.29476 0.11700
C 	C 	0.97137 0.89800 0.16997 0.07800
C 	C 	0.06115 0.09850 0.02863 -0.00000
H 	H 	0.05150 0.15310 0.02410 0.03400
C 	C 	0.95172 0.82730 0.23100 -0.08800
H 	H 	0.95010 0.77750 0.24960 0.06300
C 	C 	0.98281 0.94980 0.09372 0.08500
H 	H 	0.96910 0.99610 0.08690 -0.01600
N 	N 	0.88686 0.19930 0.55001 -0.13100
N 	N 	0.09595 0.99540 0.04450 -0.13200
C 	C 	0.06820 0.95760 0.03210 0.09900
H 	H 	0.06480 0.89700 0.03050 -0.01200
C 	C 	0.09159 0.08610 0.04215 -0.00000
H 	H 	0.10640 0.12950 0.04850 0.02500
C 	C 	0.12430 0.94980 0.06243 0.07200
C 	C 	0.40772 0.33380 0.28694 0.09100
O 	O 	0.49577 0.62378 0.03396 -0.49500
H 	H 	0.49170 0.61530 0.06030 0.23900
Ni	Ni	0.37920 0.90998 0.44657 1.05600
N 	N 	0.41938 0.41010 0.26992 -0.15500
N 	N 	0.34191 0.07820 0.53387 -0.13100
N 	N 	0.70169 0.30300 0.13328 -0.14800
N 	N 	0.74013 0.02240 0.03403 -0.15200
N 	N 	0.48708 0.39370 0.13315 -0.13400
N 	N 	0.41849 0.73820 0.36549 -0.13300
N 	N 	0.39138 0.81360 0.50235 -0.23200
N 	N 	0.37264 0.10840 0.33833 -0.13600
N 	N 	0.54677 0.51760 0.02270 -0.22400
O 	O 	0.41732 0.98417 0.48672 -0.48100
H 	H 	0.41260 0.03610 0.48740 0.23500
O 	O 	0.70647 0.26510 0.50797 -0.48800
H 	H 	0.70790 0.27150 0.53800 0.23000
C 	C 	0.36020 0.30770 0.58072 -0.08500
H 	H 	0.37510 0.34980 0.58290 0.06400
C 	C 	0.50889 0.33380 0.13004 -0.00500
H 	H 	0.51660 0.28710 0.15200 0.03300
N 	N 	0.72853 0.23340 0.42301 -0.22600
C 	C 	0.35355 0.57150 0.53308 -0.06600
H 	H 	0.34930 0.58120 0.49850 0.05900
C 	C 	0.39709 0.25210 0.35443 -0.07500
H 	H 	0.39760 0.24800 0.38820 0.05900
N 	N 	0.50087 0.43020 0.06551 -0.22500
N 	N 	0.35449 0.97450 0.48757 -0.23600
N 	N 	0.36757 0.00180 0.38932 -0.25300
N 	N 	0.74771 0.88750 0.00899 -0.23800
N 	N 	0.40471 0.84500 0.40844 -0.23400
C 	C 	0.62720 0.36780 0.04339 -0.07500
H 	H 	0.61200 0.34500 0.01620 0.05000
C 	C 	0.41778 0.80220 0.54193 0.00700
H 	H 	0.43490 0.83710 0.54770 0.03700
C 	C 	0.41491 0.73270 0.57089 0.00200
H 	H 	0.42940 0.71180 0.59960 0.03700
N 	N 	0.26480 0.46430 0.75350 -0.14300
N 	N 	0.24702 0.45590 0.81780 -0.10600
C 	C 	0.27120 0.42670 0.80084 0.06700
H 	H 	0.28740 0.39090 0.81760 0.00300
C 	C 	0.37340 0.75040 0.50829 0.08700
H 	H 	0.35400 0.74140 0.48690 -0.02000
C 	C 	0.44255 0.79590 0.38190 -0.00100
H 	H 	0.46120 0.79100 0.37630 0.03600
C 	C 	0.24129 0.50560 0.74473 0.06400
H 	H 	0.23320 0.53550 0.71430 0.00400
C 	C 	0.44132 0.47880 0.21079 -0.08600
H 	H 	0.43230 0.53160 0.21520 0.06600
C 	C 	0.75444 0.03250 0.99823 0.01500
H 	H 	0.76010 0.08520 0.98650 0.03000
C 	C 	0.73492 0.26210 0.38210 0.09600
H 	H 	0.75240 0.29260 0.38280 -0.02200
C 	C 	0.33763 0.93810 0.51582 0.01100
H 	H 	0.33220 0.87890 0.51500 0.02000
C 	C 	0.72390 0.24570 0.07070 -0.07800
H 	H 	0.72620 0.30340 0.06110 0.05600
C 	C 	0.39127 0.61610 0.31307 -0.06600
H 	H 	0.37310 0.64470 0.30970 0.05200
C 	C 	0.31961 0.36860 0.69394 -0.09300
H 	H 	0.33280 0.32120 0.69880 0.06500
C 	C 	0.70143 0.19110 0.40468 0.00900
H 	H 	0.69140 0.16330 0.42480 0.02800
C 	C 	0.34707 0.06240 0.31300 -0.01700
H 	H 	0.33420 0.07350 0.28060 0.03800
C 	C 	0.43362 0.86090 0.40791 0.01300
H 	H 	0.44530 0.90900 0.42300 0.03400
C 	C 	0.73615 0.25900 0.27165 -0.07700
H 	H 	0.75500 0.24640 0.29440 0.05500
C 	C 	0.31447 0.26360 0.59618 -0.09300
H 	H 	0.29850 0.27540 0.60860 0.06900
C 	C 	0.67604 0.35390 0.10452 0.09100
C 	C 	0.51687 0.35690 0.08832 0.01100
H 	H 	0.53110 0.32750 0.07690 0.02400
C 	C 	0.39619 0.77190 0.38220 0.09000
H 	H 	0.37720 0.74650 0.37590 -0.03000
C 	C 	0.45844 0.47560 0.17765 -0.06900
H 	H 	0.46110 0.52640 0.16060 0.05300
C 	C 	0.38380 0.06890 0.38360 0.10300
H 	H 	0.40120 0.08740 0.40820 -0.01800
C 	C 	0.35648 0.05970 0.49913 0.09000
H 	H 	0.36640 0.10130 0.48540 -0.01900
C 	C 	0.73001 0.09160 0.05947 0.08900
C 	C 	0.71087 0.22930 0.10870 0.08700
C 	C 	0.34026 0.16200 0.55609 0.08000
C 	C 	0.73653 0.93490 0.03945 0.10200
H 	H 	0.72730 0.91070 0.06180 -0.02100
C 	C 	0.36220 0.22610 0.55962 -0.06900
H 	H 	0.37840 0.21390 0.54770 0.05300
C 	C 	0.37312 0.62770 0.56782 0.08800
C 	C 	0.40847 0.32720 0.33734 -0.08400
H 	H 	0.41660 0.37290 0.35980 0.06500
C 	C 	0.39538 0.26540 0.25399 -0.08800
H 	H 	0.39440 0.26990 0.22010 0.06100
C 	C 	0.64736 0.48720 0.09974 -0.07300
H 	H 	0.64550 0.54390 0.11110 0.05500
C 	C 	0.73344 0.17620 0.04720 -0.08000
H 	H 	0.74250 0.18810 0.02230 0.05000
C 	C 	0.44548 0.61190 0.34594 -0.06400
H 	H 	0.46350 0.63710 0.36520 0.05300
C 	C 	0.71700 0.07420 0.09631 -0.07300
H 	H 	0.71450 0.01620 0.10520 0.04800
C 	C 	0.34683 0.48620 0.60213 0.09100
C 	C 	0.34445 0.99770 0.34500 0.01900
H 	H 	0.32900 0.95620 0.33780 -0.00200
C 	C 	0.38448 0.19090 0.27096 -0.07300
H 	H 	0.37670 0.14500 0.24860 0.05700
C 	C 	0.69100 0.19490 0.35253 0.00400
H 	H 	0.67320 0.17130 0.33120 0.03000
C 	C 	0.44543 0.53190 0.32219 -0.09200
H 	H 	0.46360 0.50390 0.32470 0.07000
C 	C 	0.28383 0.45150 0.72014 0.07500
C 	C 	0.67366 0.43920 0.12039 -0.08800
H 	H 	0.68970 0.46470 0.14500 0.06900
C 	C 	0.73300 0.27430 0.22069 -0.07300
H 	H 	0.74980 0.27220 0.20930 0.06100
C 	C 	0.33589 0.32730 0.59876 0.09600
C 	C 	0.31663 0.18110 0.57497 -0.06700
H 	H 	0.30200 0.13850 0.57350 0.05700
C 	C 	0.37921 0.61350 0.61900 -0.07200
H 	H 	0.39210 0.65130 0.64210 0.06100
C 	C 	0.75880 0.94850 0.98301 0.03200
H 	H 	0.76800 0.93510 0.95850 0.01700
C 	C 	0.34036 0.50080 0.55058 -0.08300
H 	H 	0.32720 0.46340 0.52760 0.06600
C 	C 	0.70746 0.14330 0.12054 -0.08400
H 	H 	0.69850 0.13070 0.14550 0.06500
C 	C 	0.29886 0.49900 0.64897 -0.08900
H 	H 	0.29770 0.53950 0.62320 0.07100
C 	C 	0.68009 0.30070 0.20533 -0.07200
H 	H 	0.66130 0.31590 0.18340 0.06600
C 	C 	0.28209 0.51190 0.68174 -0.06100
H 	H 	0.26970 0.56110 0.67810 0.05500
C 	C 	0.31736 0.42630 0.65424 0.09800
C 	C 	0.71097 0.26270 0.28798 0.08900
C 	C 	0.22800 0.50600 0.78018 -0.03700
H 	H 	0.21010 0.53330 0.77990 0.04400
C 	C 	0.41836 0.65460 0.34086 0.07700
C 	C 	0.36614 0.54280 0.63610 -0.08200
H 	H 	0.37040 0.53320 0.67070 0.06500
C 	C 	0.33001 0.00030 0.54486 -0.01300
H 	H 	0.31900 0.99210 0.56750 0.04100
C 	C 	0.30260 0.38000 0.72644 -0.06500
H 	H 	0.30390 0.33970 0.75230 0.04900
C 	C 	0.68349 0.28610 0.25556 -0.08000
H 	H 	0.66710 0.29220 0.26770 0.06600
C 	C 	0.65331 0.31910 0.06541 -0.09000
H 	H 	0.65530 0.26280 0.05350 0.06200
C 	C 	0.70467 0.29270 0.18678 0.08200
C 	C 	0.39157 0.53460 0.29043 -0.08900
H 	H 	0.37350 0.50800 0.27230 0.06700
N 	N 	0.71262 0.24110 0.33900 -0.13600
N 	N 	0.33418 0.41180 0.61985 -0.15400
C 	C 	0.38509 0.18410 0.32144 0.08200
C 	C 	0.43756 0.40460 0.23734 0.09400
C 	C 	0.46832 0.32360 0.19704 -0.07000
H 	H 	0.47740 0.27100 0.19250 0.05600
C 	C 	0.41859 0.49310 0.29476 0.09300
C 	C 	0.47137 0.39800 0.16997 0.08000
C 	C 	0.56115 0.59850 0.02863 -0.00300
H 	H 	0.55150 0.65310 0.02410 0.03500
C 	C 	0.45172 0.32730 0.23100 -0.08800
H 	H 	0.45010 0.27750 0.24960 0.06300
C 	C 	0.48281 0.44980 0.09372 0.08200
H 	H 	0.46910 0.49610 0.08690 -0.01800
N 	N 	0.38686 0.69930 0.55001 -0.13300
N 	N 	0.59595 0.49540 0.04450 -0.13700
C 	C 	0.56820 0.45760 0.03210 0.09100
H 	H 	0.56480 0.39700 0.03050 -0.01000
C 	C 	0.59159 0.58610 0.04215 0.00800
H 	H 	0.60640 0.62950 0.04850 0.02300
C 	C 	0.62430 0.44980 0.06243 0.08000
C 	C 	0.09228 0.83380 0.21306 0.09200
O 	O 	0.00423 0.12378 0.46604 -0.48700
H 	H 	0.00830 0.11530 0.43970 0.23700
Ni	Ni	0.12080 0.40998 0.05343 1.05100
N 	N 	0.08062 0.91010 0.23008 -0.15700
N 	N 	0.15809 0.57820 0.96613 -0.12100
N 	N 	0.79831 0.80300 0.36672 -0.14800
N 	N 	0.75987 0.52240 0.46597 -0.13900
N 	N 	0.01292 0.89370 0.36685 -0.13400
N 	N 	0.08151 0.23820 0.13451 -0.13100
N 	N 	0.10862 0.31360 0.99765 -0.23000
N 	N 	0.12736 0.60840 0.16167 -0.13700
N 	N 	0.95323 0.01760 0.47730 -0.22500
O 	O 	0.08268 0.48417 0.01328 -0.49600
H 	H 	0.08740 0.53610 0.01260 0.23900
O 	O 	0.79353 0.76510 0.99203 -0.47100
H 	H 	0.79210 0.77150 0.96200 0.22800
C 	C 	0.13980 0.80770 0.91928 -0.08400
H 	H 	0.12490 0.84980 0.91710 0.06800
C 	C 	0.99111 0.83380 0.36996 -0.00200
H 	H 	0.98340 0.78710 0.34800 0.03400
N 	N 	0.77147 0.73340 0.07699 -0.22900
C 	C 	0.14645 0.07150 0.96692 0.03000
H 	H 	0.15070 0.08120 0.00150 0.00900
C 	C 	0.10291 0.75210 0.14557 -0.07400
H 	H 	0.10240 0.74800 0.11180 0.05800
N 	N 	0.99913 0.93020 0.43449 -0.21800
N 	N 	0.14551 0.47450 0.01243 -0.24700
N 	N 	0.13243 0.50180 0.11068 -0.24800
N 	N 	0.75229 0.38750 0.49101 -0.22200
N 	N 	0.09529 0.34500 0.09156 -0.23600
C 	C 	0.87280 0.86780 0.45661 -0.06800
H 	H 	0.88800 0.84500 0.48380 0.05400
C 	C 	0.08222 0.30220 0.95807 0.01100
H 	H 	0.06510 0.33710 0.95230 0.04200
C 	C 	0.08509 0.23270 0.92911 0.00200
H 	H 	0.07060 0.21180 0.90040 0.03900
N 	N 	0.23520 0.96430 0.74650 -0.14300
N 	N 	0.25298 0.95590 0.68220 -0.10300
C 	C 	0.22880 0.92670 0.69916 0.06900
H 	H 	0.21260 0.89090 0.68240 0.00200
C 	C 	0.12660 0.25040 0.99171 0.13200
H 	H 	0.14600 0.24140 0.01310 -0.05100
C 	C 	0.05745 0.29590 0.11810 -0.00300
H 	H 	0.03880 0.29100 0.12370 0.03400
C 	C 	0.25871 0.00560 0.75527 0.06000
H 	H 	0.26680 0.03550 0.78570 0.00400
C 	C 	0.05868 0.97880 0.28921 -0.07800
H 	H 	0.06770 0.03160 0.28480 0.05800
C 	C 	0.74556 0.53250 0.50177 0.00400
H 	H 	0.73990 0.58520 0.51350 0.02700
C 	C 	0.76508 0.76210 0.11790 0.09600
H 	H 	0.74760 0.79260 0.11720 -0.02200
C 	C 	0.16237 0.43810 0.98418 0.02500
H 	H 	0.16780 0.37890 0.98500 0.02300
C 	C 	0.77610 0.74570 0.42930 -0.07300
H 	H 	0.77380 0.80340 0.43890 0.05900
C 	C 	0.10873 0.11610 0.18693 -0.05000
H 	H 	0.12690 0.14470 0.19030 0.04700
C 	C 	0.18039 0.86860 0.80606 -0.07700
H 	H 	0.16720 0.82120 0.80120 0.06000
C 	C 	0.79857 0.69110 0.09532 0.00800
H 	H 	0.80860 0.66330 0.07520 0.02600
C 	C 	0.15293 0.56240 0.18700 -0.00600
H 	H 	0.16580 0.57350 0.21940 0.03500
C 	C 	0.06638 0.36090 0.09209 0.01100
H 	H 	0.05470 0.40900 0.07700 0.03000
C 	C 	0.76385 0.75900 0.22835 -0.07600
H 	H 	0.74500 0.74640 0.20560 0.05500
C 	C 	0.18553 0.76360 0.90382 -0.09000
H 	H 	0.20150 0.77540 0.89140 0.06900
C 	C 	0.82396 0.85390 0.39548 0.09800
C 	C 	0.98313 0.85690 0.41168 0.01300
H 	H 	0.96890 0.82750 0.42310 0.02800
C 	C 	0.10381 0.27190 0.11780 0.08800
H 	H 	0.12280 0.24650 0.12410 -0.03000
C 	C 	0.04156 0.97560 0.32235 -0.06000
H 	H 	0.03890 0.02640 0.33940 0.04600
C 	C 	0.11620 0.56890 0.11640 0.10400
H 	H 	0.09880 0.58740 0.09180 -0.01900
C 	C 	0.14352 0.55970 0.00087 0.06900
H 	H 	0.13360 0.60130 0.01460 -0.01700
C 	C 	0.76999 0.59160 0.44053 0.09500
C 	C 	0.78913 0.72930 0.39130 0.08600
C 	C 	0.15974 0.66200 0.94391 0.08500
C 	C 	0.76347 0.43490 0.46055 0.10200
H 	H 	0.77270 0.41070 0.43820 -0.02000
C 	C 	0.13780 0.72610 0.94038 -0.06700
H 	H 	0.12160 0.71390 0.95230 0.06000
C 	C 	0.12688 0.12770 0.93218 0.04900
C 	C 	0.09153 0.82720 0.16266 -0.08500
H 	H 	0.08340 0.87290 0.14020 0.06600
C 	C 	0.10462 0.76540 0.24601 -0.08800
H 	H 	0.10560 0.76990 0.27990 0.06200
C 	C 	0.85264 0.98720 0.40026 -0.05400
H 	H 	0.85450 0.04390 0.38890 0.04500
C 	C 	0.76656 0.67620 0.45280 -0.08200
H 	H 	0.75750 0.68810 0.47770 0.06000
C 	C 	0.05452 0.11190 0.15406 -0.04900
H 	H 	0.03650 0.13710 0.13480 0.04600
C 	C 	0.78300 0.57420 0.40369 -0.07400
H 	H 	0.78550 0.51620 0.39480 0.05100
C 	C 	0.15317 0.98620 0.89787 0.14100
C 	C 	0.15555 0.49770 0.15500 0.00400
H 	H 	0.17100 0.45620 0.16220 0.00100
C 	C 	0.11552 0.69090 0.22904 -0.07200
H 	H 	0.12330 0.64500 0.25140 0.05700
C 	C 	0.80900 0.69490 0.14747 0.00400
H 	H 	0.82680 0.67130 0.16880 0.03000
C 	C 	0.05457 0.03190 0.17781 -0.11600
H 	H 	0.03640 0.00390 0.17530 0.07400
C 	C 	0.21617 0.95150 0.77986 0.09500
C 	C 	0.82634 0.93920 0.37961 -0.09800
H 	H 	0.81030 0.96470 0.35500 0.07500
C 	C 	0.76700 0.77430 0.27931 -0.07300
H 	H 	0.75020 0.77220 0.29070 0.06100
C 	C 	0.16411 0.82730 0.90124 0.09800
C 	C 	0.18337 0.68110 0.92503 -0.06600
H 	H 	0.19800 0.63850 0.92650 0.06000
C 	C 	0.12079 0.11350 0.88100 -0.03100
H 	H 	0.10790 0.15130 0.85790 0.04700
C 	C 	0.74120 0.44850 0.51699 0.00500
H 	H 	0.73200 0.43510 0.54150 0.02200
C 	C 	0.15964 0.00080 0.94942 -0.16000
H 	H 	0.17280 0.96340 0.97240 0.10500
C 	C 	0.79254 0.64330 0.37946 -0.08100
H 	H 	0.80150 0.63070 0.35450 0.06500
C 	C 	0.20114 0.99900 0.85103 -0.05300
H 	H 	0.20230 0.03950 0.87680 0.05700
C 	C 	0.81991 0.80070 0.29467 -0.07200
H 	H 	0.83870 0.81590 0.31660 0.06600
C 	C 	0.21791 0.01190 0.81826 -0.09700
H 	H 	0.23030 0.06110 0.82190 0.06600
C 	C 	0.18264 0.92630 0.84576 0.08300
C 	C 	0.78903 0.76270 0.21202 0.08900
C 	C 	0.27200 0.00600 0.71982 -0.04100
H 	H 	0.28990 0.03330 0.72010 0.04400
C 	C 	0.08164 0.15460 0.15914 0.06600
C 	C 	0.13386 0.04280 0.86390 -0.12800
H 	H 	0.12960 0.03320 0.82930 0.07900
C 	C 	0.16999 0.50030 0.95514 0.00100
H 	H 	0.18100 0.49210 0.93250 0.03500
C 	C 	0.19740 0.88000 0.77356 -0.08200
H 	H 	0.19610 0.83970 0.74770 0.05500
C 	C 	0.81651 0.78610 0.24444 -0.07900
H 	H 	0.83290 0.79220 0.23230 0.06600
C 	C 	0.84669 0.81910 0.43459 -0.09300
H 	H 	0.84470 0.76280 0.44650 0.06700
C 	C 	0.79533 0.79270 0.31322 0.08300
C 	C 	0.10843 0.03460 0.20957 -0.11300
H 	H 	0.12650 0.00800 0.22770 0.07300
N 	N 	0.78738 0.74110 0.16100 -0.13600
N 	N 	0.16582 0.91180 0.88015 -0.15900
C 	C 	0.11491 0.68410 0.17856 0.08200
C 	C 	0.06244 0.90460 0.26266 0.09200
C 	C 	0.03168 0.82360 0.30296 -0.06900
H 	H 	0.02260 0.77100 0.30750 0.05600
C 	C 	0.08141 0.99310 0.20524 0.11800
C 	C 	0.02863 0.89800 0.33003 0.07800
C 	C 	0.93885 0.09850 0.47137 0.00300
H 	H 	0.94850 0.15310 0.47590 0.03900
C 	C 	0.04828 0.82730 0.26900 -0.08800
H 	H 	0.04990 0.77750 0.25040 0.06300
C 	C 	0.01719 0.94980 0.40628 0.08200
H 	H 	0.03090 0.99610 0.41310 -0.01200
N 	N 	0.11314 0.19930 0.94999 -0.13100
N 	N 	0.90405 0.99540 0.45550 -0.13200
C 	C 	0.93180 0.95760 0.46790 0.10100
H 	H 	0.93520 0.89700 0.46950 -0.00800
C 	C 	0.90841 0.08610 0.45785 0.00300
H 	H 	0.89360 0.12950 0.45150 0.02800
C 	C 	0.87570 0.94980 0.43757 0.07600
C 	C 	0.59228 0.33380 0.21306 0.09100
O 	O 	0.50423 0.62378 0.46604 -0.48500
H 	H 	0.50830 0.61530 0.43970 0.23800
Ni	Ni	0.62080 0.90998 0.05343 1.05200
N 	N 	0.58062 0.41010 0.23008 -0.15500
N 	N 	0.65809 0.07820 0.96613 -0.11700
N 	N 	0.29831 0.30300 0.36672 -0.14700
N 	N 	0.25987 0.02240 0.46597 -0.14100
N 	N 	0.51292 0.39370 0.36685 -0.13400
N 	N 	0.58151 0.73820 0.13451 -0.13300
N 	N 	0.60862 0.81360 0.99765 -0.23100
N 	N 	0.62736 0.10840 0.16167 -0.13600
N 	N 	0.45323 0.51760 0.47730 -0.22000
O 	O 	0.58268 0.98417 0.01328 -0.48800
H 	H 	0.58740 0.03610 0.01260 0.23300
O 	O 	0.29353 0.26510 0.99203 -0.47100
H 	H 	0.29210 0.27150 0.96200 0.22700
C 	C 	0.63980 0.30770 0.91928 -0.08300
H 	H 	0.62490 0.34980 0.91710 0.06700
C 	C 	0.49111 0.33380 0.36996 -0.00400
H 	H 	0.48340 0.28710 0.34800 0.03400
N 	N 	0.27147 0.23340 0.07699 -0.22900
C 	C 	0.64645 0.57150 0.96692 0.00800
H 	H 	0.65070 0.58120 0.00150 0.01800
C 	C 	0.60291 0.25210 0.14557 -0.07500
H 	H 	0.60240 0.24800 0.11180 0.05800
N 	N 	0.49913 0.43020 0.43449 -0.22200
N 	N 	0.64551 0.97450 0.01243 -0.24500
N 	N 	0.63243 0.00180 0.11068 -0.25300
N 	N 	0.25229 0.88750 0.49101 -0.22400
N 	N 	0.59529 0.84500 0.09156 -0.23600
C 	C 	0.37280 0.36780 0.45661 -0.07500
H 	H 	0.38800 0.34500 0.48380 0.05600
C 	C 	0.58222 0.80220 0.95807 0.01000
H 	H 	0.56510 0.83710 0.95230 0.04200
C 	C 	0.58509 0.73270 0.92911 0.00300
H 	H 	0.57060 0.71180 0.90040 0.03800
N 	N 	0.73520 0.46430 0.74650 -0.14300
N 	N 	0.75298 0.45590 0.68220 -0.10600
C 	C 	0.72880 0.42670 0.69916 0.06700
H 	H 	0.71260 0.39090 0.68240 0.00200
C 	C 	0.62660 0.75040 0.99171 0.13200
H 	H 	0.64600 0.74140 0.01310 -0.05000
C 	C 	0.55745 0.79590 0.11810 -0.00200
H 	H 	0.53880 0.79100 0.12370 0.03400
C 	C 	0.75871 0.50560 0.75527 0.06400
H 	H 	0.76680 0.53550 0.78570 0.00400
C 	C 	0.55868 0.47880 0.28921 -0.08600
H 	H 	0.56770 0.53160 0.28480 0.06600
C 	C 	0.24556 0.03250 0.50177 -0.00600
H 	H 	0.23990 0.08520 0.51350 0.03000
C 	C 	0.26508 0.26210 0.11790 0.09600
H 	H 	0.24760 0.29260 0.11720 -0.02300
C 	C 	0.66237 0.93810 0.98418 0.03700
H 	H 	0.66780 0.87890 0.98500 0.01900
C 	C 	0.27610 0.24570 0.42930 -0.07300
H 	H 	0.27380 0.30340 0.43890 0.05800
C 	C 	0.60873 0.61610 0.18693 -0.06500
H 	H 	0.62690 0.64470 0.19030 0.05200
C 	C 	0.68039 0.36860 0.80606 -0.09400
H 	H 	0.66720 0.32120 0.80120 0.06500
C 	C 	0.29857 0.19110 0.09532 0.00800
H 	H 	0.30860 0.16330 0.07520 0.02500
C 	C 	0.65293 0.06240 0.18700 -0.01800
H 	H 	0.66580 0.07350 0.21940 0.03800
C 	C 	0.56638 0.86090 0.09209 0.01100
H 	H 	0.55470 0.90900 0.07700 0.03100
C 	C 	0.26385 0.25900 0.22835 -0.07600
H 	H 	0.24500 0.24640 0.20560 0.05500
C 	C 	0.68553 0.26360 0.90382 -0.09100
H 	H 	0.70150 0.27540 0.89140 0.06900
C 	C 	0.32396 0.35390 0.39548 0.09100
C 	C 	0.48313 0.35690 0.41168 0.01300
H 	H 	0.46890 0.32750 0.42310 0.02700
C 	C 	0.60381 0.77190 0.11780 0.08900
H 	H 	0.62280 0.74650 0.12410 -0.03000
C 	C 	0.54156 0.47560 0.32235 -0.06900
H 	H 	0.53890 0.52640 0.33940 0.05400
C 	C 	0.61620 0.06890 0.11640 0.10300
H 	H 	0.59880 0.08740 0.09180 -0.02000
C 	C 	0.64352 0.05970 0.00087 0.06300
H 	H 	0.63360 0.10130 0.01460 -0.01600
C 	C 	0.26999 0.09160 0.44053 0.09400
C 	C 	0.28913 0.22930 0.39130 0.08600
C 	C 	0.65974 0.16200 0.94391 0.08400
C 	C 	0.26347 0.93490 0.46055 0.10700
H 	H 	0.27270 0.91070 0.43820 -0.02000
C 	C 	0.63780 0.22610 0.94038 -0.06600
H 	H 	0.62160 0.21390 0.95230 0.06000
C 	C 	0.62688 0.62770 0.93218 0.06300
C 	C 	0.59153 0.32720 0.16266 -0.08400
H 	H 	0.58340 0.37290 0.14020 0.06600
C 	C 	0.60462 0.26540 0.24601 -0.08800
H 	H 	0.60560 0.26990 0.27990 0.06100
C 	C 	0.35264 0.48720 0.40026 -0.07400
H 	H 	0.35450 0.54390 0.38890 0.05500
C 	C 	0.26656 0.17620 0.45280 -0.08100
H 	H 	0.25750 0.18810 0.47770 0.06000
C 	C 	0.55452 0.61190 0.15406 -0.06400
H 	H 	0.53650 0.63710 0.13480 0.05200
C 	C 	0.28300 0.07420 0.40369 -0.07400
H 	H 	0.28550 0.01620 0.39480 0.04900
C 	C 	0.65317 0.48620 0.89787 0.11300
C 	C 	0.65555 0.99770 0.15500 0.01900
H 	H 	0.67100 0.95620 0.16220 -0.00300
C 	C 	0.61552 0.19090 0.22904 -0.07200
H 	H 	0.62330 0.14500 0.25140 0.05700
C 	C 	0.30900 0.19490 0.14747 0.00400
H 	H 	0.32680 0.17130 0.16880 0.03000
C 	C 	0.55457 0.53190 0.17781 -0.09300
H 	H 	0.53640 0.50390 0.17530 0.07000
C 	C 	0.71617 0.45150 0.77986 0.07400
C 	C 	0.32634 0.43920 0.37961 -0.08600
H 	H 	0.31030 0.46470 0.35500 0.06900
C 	C 	0.26700 0.27430 0.27931 -0.07300
H 	H 	0.25020 0.27220 0.29070 0.06100
C 	C 	0.66411 0.32730 0.90124 0.09700
C 	C 	0.68337 0.18110 0.92503 -0.06500
H 	H 	0.69800 0.13850 0.92650 0.05900
C 	C 	0.62079 0.61350 0.88100 -0.04800
H 	H 	0.60790 0.65130 0.85790 0.05400
C 	C 	0.24120 0.94850 0.51699 0.01500
H 	H 	0.23200 0.93510 0.54150 0.02000
C 	C 	0.65964 0.50080 0.94942 -0.12400
H 	H 	0.67280 0.46340 0.97240 0.08900
C 	C 	0.29254 0.14330 0.37946 -0.08200
H 	H 	0.30150 0.13070 0.35450 0.06400
C 	C 	0.70114 0.49900 0.85103 -0.09100
H 	H 	0.70230 0.53950 0.87680 0.07300
C 	C 	0.31991 0.30070 0.29467 -0.07200
H 	H 	0.33870 0.31590 0.31660 0.06600
C 	C 	0.71791 0.51190 0.81826 -0.06000
H 	H 	0.73030 0.56110 0.82190 0.05500
C 	C 	0.68264 0.42630 0.84576 0.10000
C 	C 	0.28903 0.26270 0.21202 0.08900
C 	C 	0.77200 0.50600 0.71982 -0.03700
H 	H 	0.78990 0.53330 0.72010 0.04400
C 	C 	0.58164 0.65460 0.15914 0.07700
C 	C 	0.63386 0.54280 0.86390 -0.10300
H 	H 	0.62960 0.53320 0.82930 0.07300
C 	C 	0.66999 0.00030 0.95514 -0.01700
H 	H 	0.68100 0.99210 0.93250 0.04400
C 	C 	0.69740 0.38000 0.77356 -0.06400
H 	H 	0.69610 0.33970 0.74770 0.04900
C 	C 	0.31651 0.28610 0.24444 -0.08000
H 	H 	0.33290 0.29220 0.23230 0.06600
C 	C 	0.34669 0.31910 0.43459 -0.08700
H 	H 	0.34470 0.26280 0.44650 0.06500
C 	C 	0.29533 0.29270 0.31322 0.08200
C 	C 	0.60843 0.53460 0.20957 -0.08900
H 	H 	0.62650 0.50800 0.22770 0.06700
N 	N 	0.28738 0.24110 0.16100 -0.13600
N 	N 	0.66582 0.41180 0.88015 -0.15800
C 	C 	0.61491 0.18410 0.17856 0.08100
C 	C 	0.56244 0.40460 0.26266 0.09300
C 	C 	0.53168 0.32360 0.30296 -0.07100
H 	H 	0.52260 0.27100 0.30750 0.05700
C 	C 	0.58141 0.49310 0.20524 0.09300
C 	C 	0.52863 0.39800 0.33003 0.08200
C 	C 	0.43885 0.59850 0.47137 0.00000
H 	H 	0.44850 0.65310 0.47590 0.04000
C 	C 	0.54828 0.32730 0.26900 -0.08700
H 	H 	0.54990 0.27750 0.25040 0.06200
C 	C 	0.51719 0.44980 0.40628 0.08400
H 	H 	0.53090 0.49610 0.41310 -0.01500
N 	N 	0.61314 0.69930 0.94999 -0.13300
N 	N 	0.40405 0.49540 0.45550 -0.13600
C 	C 	0.43180 0.45760 0.46790 0.09400
H 	H 	0.43520 0.39700 0.46950 -0.00700
C 	C 	0.40841 0.58610 0.45785 0.01100
H 	H 	0.39360 0.62950 0.45150 0.02600
C 	C 	0.37570 0.44980 0.43757 0.08300
C 	C 	0.09228 0.16620 0.71306 0.08900
O 	O 	0.00423 0.87622 0.96604 -0.47200
H 	H 	0.00830 0.88470 0.93970 0.23700
Ni	Ni	0.12080 0.59002 0.55343 1.05500
N 	N 	0.08062 0.08990 0.73008 -0.15200
N 	N 	0.15809 0.42180 0.46613 -0.13500
N 	N 	0.79831 0.19700 0.86672 -0.14600
N 	N 	0.75987 0.47760 0.96597 -0.12800
N 	N 	0.01292 0.10630 0.86685 -0.13600
N 	N 	0.08151 0.76180 0.63451 -0.13400
N 	N 	0.10862 0.68640 0.49765 -0.23200
N 	N 	0.12736 0.39160 0.66167 -0.13800
N 	N 	0.95323 0.98240 0.97730 -0.20900
O 	O 	0.08268 0.51583 0.51328 -0.48800
H 	H 	0.08740 0.46390 0.51260 0.24000
O 	O 	0.79353 0.23490 0.49203 -0.48700
H 	H 	0.79210 0.22850 0.46200 0.23000
C 	C 	0.13980 0.19230 0.41928 -0.08300
H 	H 	0.12490 0.15020 0.41710 0.06300
C 	C 	0.99111 0.16620 0.86996 -0.00100
H 	H 	0.98340 0.21290 0.84800 0.03400
N 	N 	0.77147 0.26660 0.57699 -0.22600
C 	C 	0.14645 0.92850 0.46692 -0.09000
H 	H 	0.15070 0.91880 0.50150 0.06900
C 	C 	0.10291 0.24790 0.64557 -0.07600
H 	H 	0.10240 0.25200 0.61180 0.05900
N 	N 	0.99913 0.06980 0.93449 -0.21500
N 	N 	0.14551 0.52550 0.51243 -0.23700
N 	N 	0.13243 0.49820 0.61068 -0.24800
N 	N 	0.75229 0.61250 0.99101 -0.20500
N 	N 	0.09529 0.65500 0.59156 -0.23500
C 	C 	0.87280 0.13220 0.95661 -0.08200
H 	H 	0.88800 0.15500 0.98380 0.06500
C 	C 	0.08222 0.69780 0.45807 0.00600
H 	H 	0.06510 0.66290 0.45230 0.03700
C 	C 	0.08509 0.76730 0.42911 0.00300
H 	H 	0.07060 0.78820 0.40040 0.03600
N 	N 	0.23520 0.03570 0.24650 -0.14300
N 	N 	0.25298 0.04410 0.18220 -0.10900
C 	C 	0.22880 0.07330 0.19916 0.06400
H 	H 	0.21260 0.10910 0.18240 0.00200
C 	C 	0.12660 0.74960 0.49171 0.08800
H 	H 	0.14600 0.75860 0.51310 -0.02000
C 	C 	0.05745 0.70410 0.61810 -0.00100
H 	H 	0.03880 0.70900 0.62370 0.03500
C 	C 	0.25871 0.99440 0.25527 0.06900
H 	H 	0.26680 0.96450 0.28570 0.00500
C 	C 	0.05868 0.02120 0.78921 -0.09200
H 	H 	0.06770 0.96840 0.78480 0.07200
C 	C 	0.74556 0.46750 0.00177 -0.01500
H 	H 	0.73990 0.41480 0.01350 0.02600
C 	C 	0.76508 0.23790 0.61790 0.09600
H 	H 	0.74760 0.20740 0.61720 -0.02300
C 	C 	0.16237 0.56190 0.48418 -0.00500
H 	H 	0.16780 0.62110 0.48500 0.02500
C 	C 	0.77610 0.25430 0.92930 -0.06800
H 	H 	0.77380 0.19660 0.93890 0.06000
C 	C 	0.10873 0.88390 0.68693 -0.07900
H 	H 	0.12690 0.85530 0.69030 0.05700
C 	C 	0.18039 0.13140 0.30606 -0.11200
H 	H 	0.16720 0.17880 0.30120 0.07100
C 	C 	0.79857 0.30890 0.59532 0.00900
H 	H 	0.80860 0.33670 0.57520 0.02900
C 	C 	0.15293 0.43760 0.68700 -0.00500
H 	H 	0.16580 0.42650 0.71940 0.03500
C 	C 	0.06638 0.63910 0.59209 0.01200
H 	H 	0.05470 0.59100 0.57700 0.03300
C 	C 	0.76385 0.24100 0.72835 -0.07700
H 	H 	0.74500 0.25360 0.70560 0.05500
C 	C 	0.18553 0.23640 0.40382 -0.09100
H 	H 	0.20150 0.22460 0.39140 0.06800
C 	C 	0.82396 0.14610 0.89548 0.08500
C 	C 	0.98313 0.14310 0.91168 0.01400
H 	H 	0.96890 0.17250 0.92310 0.03100
C 	C 	0.10381 0.72810 0.61780 0.09000
H 	H 	0.12280 0.75350 0.62410 -0.03000
C 	C 	0.04156 0.02440 0.82235 -0.07900
H 	H 	0.03890 0.97360 0.83940 0.06300
C 	C 	0.11620 0.43110 0.61640 0.10400
H 	H 	0.09880 0.41260 0.59180 -0.01800
C 	C 	0.14352 0.44030 0.50087 0.09500
H 	H 	0.13360 0.39870 0.51460 -0.02100
C 	C 	0.76999 0.40840 0.94053 0.10100
C 	C 	0.78913 0.27070 0.89130 0.08500
C 	C 	0.15974 0.33800 0.44391 0.08200
C 	C 	0.76347 0.56510 0.96055 0.10700
H 	H 	0.77270 0.58930 0.93820 -0.01900
C 	C 	0.13780 0.27390 0.44038 -0.07100
H 	H 	0.12160 0.28610 0.45230 0.05300
C 	C 	0.12688 0.87230 0.43218 0.10300
C 	C 	0.09153 0.17280 0.66266 -0.08200
H 	H 	0.08340 0.12710 0.64020 0.06400
C 	C 	0.10462 0.23460 0.74601 -0.08700
H 	H 	0.10560 0.23010 0.77990 0.06200
C 	C 	0.85264 0.01280 0.90026 -0.09600
H 	H 	0.85450 0.95610 0.88890 0.06600
C 	C 	0.76656 0.32380 0.95280 -0.08400
H 	H 	0.75750 0.31190 0.97770 0.07000
C 	C 	0.05452 0.88810 0.65406 -0.07800
H 	H 	0.03650 0.86290 0.63480 0.05800
C 	C 	0.78300 0.42580 0.90369 -0.07700
H 	H 	0.78550 0.48380 0.89480 0.05300
C 	C 	0.15317 0.01380 0.39787 0.06100
C 	C 	0.15555 0.50230 0.65500 0.00400
H 	H 	0.17100 0.54380 0.66220 0.00200
C 	C 	0.11552 0.30910 0.72904 -0.07300
H 	H 	0.12330 0.35500 0.75140 0.05800
C 	C 	0.80900 0.30510 0.64747 0.00400
H 	H 	0.82680 0.32870 0.66880 0.03000
C 	C 	0.05457 0.96810 0.67781 -0.07000
H 	H 	0.03640 0.99610 0.67530 0.06500
C 	C 	0.21617 0.04850 0.27986 0.05100
C 	C 	0.82634 0.06080 0.87961 -0.07300
H 	H 	0.81030 0.03530 0.85500 0.06200
C 	C 	0.76700 0.22570 0.77931 -0.07200
H 	H 	0.75020 0.22780 0.79070 0.06100
C 	C 	0.16411 0.17270 0.40124 0.09400
C 	C 	0.18337 0.31890 0.42503 -0.06800
H 	H 	0.19800 0.36150 0.42650 0.05800
C 	C 	0.12079 0.88650 0.38100 -0.09100
H 	H 	0.10790 0.84870 0.35790 0.06800
C 	C 	0.74120 0.55150 0.01699 -0.01400
H 	H 	0.73200 0.56490 0.04150 0.02500
C 	C 	0.15964 0.99920 0.44942 -0.04300
H 	H 	0.17280 0.03660 0.47240 0.04900
C 	C 	0.79254 0.35670 0.87946 -0.07800
H 	H 	0.80150 0.36930 0.85450 0.06400
C 	C 	0.20114 0.00100 0.35103 -0.13000
H 	H 	0.20230 0.96050 0.37680 0.08900
C 	C 	0.81991 0.19930 0.79467 -0.07200
H 	H 	0.83870 0.18410 0.81660 0.06500
C 	C 	0.21791 0.98810 0.31826 -0.02100
H 	H 	0.23030 0.93890 0.32190 0.04200
C 	C 	0.18264 0.07370 0.34576 0.11600
C 	C 	0.78903 0.23730 0.71202 0.08900
C 	C 	0.27200 0.99400 0.21982 -0.03300
H 	H 	0.28990 0.96670 0.22010 0.04400
C 	C 	0.08164 0.84540 0.65914 0.08700
C 	C 	0.13386 0.95720 0.36390 -0.05400
H 	H 	0.12960 0.96680 0.32930 0.05800
C 	C 	0.16999 0.49970 0.45514 0.00800
H 	H 	0.18100 0.50790 0.43250 0.03000
C 	C 	0.19740 0.12000 0.27356 -0.04500
H 	H 	0.19610 0.16030 0.24770 0.04200
C 	C 	0.81651 0.21390 0.74444 -0.08000
H 	H 	0.83290 0.20780 0.73230 0.06600
C 	C 	0.84669 0.18090 0.93459 -0.07700
H 	H 	0.84470 0.23720 0.94650 0.06600
C 	C 	0.79533 0.20730 0.81322 0.08200
C 	C 	0.10843 0.96540 0.70957 -0.06700
H 	H 	0.12650 0.99200 0.72770 0.06100
N 	N 	0.78738 0.25890 0.66100 -0.13600
N 	N 	0.16582 0.08820 0.38015 -0.15300
C 	C 	0.11491 0.31590 0.67856 0.08400
C 	C 	0.06244 0.09540 0.76266 0.09400
C 	C 	0.03168 0.17640 0.80296 -0.07200
H 	H 	0.02260 0.22900 0.80750 0.05800
C 	C 	0.08141 0.00690 0.70524 0.07000
C 	C 	0.02863 0.10200 0.83003 0.08500
C 	C 	0.93885 0.90150 0.97137 0.00100
H 	H 	0.94850 0.84690 0.97590 0.04600
C 	C 	0.04828 0.17270 0.76900 -0.08600
H 	H 	0.04990 0.22250 0.75040 0.06300
C 	C 	0.01719 0.05020 0.90628 0.08300
H 	H 	0.03090 0.00390 0.91310 -0.01300
N 	N 	0.11314 0.80070 0.44999 -0.13600
N 	N 	0.90405 0.00460 0.95550 -0.13900
C 	C 	0.93180 0.04240 0.96790 0.09100
H 	H 	0.93520 0.10300 0.96950 -0.00100
C 	C 	0.90841 0.91390 0.95785 0.02100
H 	H 	0.89360 0.87050 0.95150 0.02700
C 	C 	0.87570 0.05020 0.93757 0.09400
C 	C 	0.59228 0.66620 0.71306 0.09000
O 	O 	0.50423 0.37622 0.96604 -0.47200
H 	H 	0.50830 0.38470 0.93970 0.23700
Ni	Ni	0.62080 0.09002 0.55343 1.05400
N 	N 	0.58062 0.58990 0.73008 -0.15400
N 	N 	0.65809 0.92180 0.46613 -0.13900
N 	N 	0.29831 0.69700 0.86672 -0.14700
N 	N 	0.25987 0.97760 0.96597 -0.12800
N 	N 	0.51292 0.60630 0.86685 -0.13400
N 	N 	0.58151 0.26180 0.63451 -0.13300
N 	N 	0.60862 0.18640 0.49765 -0.23200
N 	N 	0.62736 0.89160 0.66167 -0.13900
N 	N 	0.45323 0.48240 0.97730 -0.21500
O 	O 	0.58268 0.01583 0.51328 -0.49400
H 	H 	0.58740 0.96390 0.51260 0.24600
O 	O 	0.29353 0.73490 0.49203 -0.48700
H 	H 	0.29210 0.72850 0.46200 0.23100
C 	C 	0.63980 0.69230 0.41928 -0.08300
H 	H 	0.62490 0.65020 0.41710 0.06400
C 	C 	0.49111 0.66620 0.86996 -0.00300
H 	H 	0.48340 0.71290 0.84800 0.03500
N 	N 	0.27147 0.76660 0.57699 -0.22600
C 	C 	0.64645 0.42850 0.46692 -0.06600
H 	H 	0.65070 0.41880 0.50150 0.05900
C 	C 	0.60291 0.74790 0.64557 -0.07600
H 	H 	0.60240 0.75200 0.61180 0.05900
N 	N 	0.49913 0.56980 0.93449 -0.21600
N 	N 	0.64551 0.02550 0.51243 -0.23800
N 	N 	0.63243 0.99820 0.61068 -0.24300
N 	N 	0.25229 0.11250 0.99101 -0.20300
N 	N 	0.59529 0.15500 0.59156 -0.23500
C 	C 	0.37280 0.63220 0.95661 -0.07500
H 	H 	0.38800 0.65500 0.98380 0.06300
C 	C 	0.58222 0.19780 0.45807 0.00700
H 	H 	0.56510 0.16290 0.45230 0.03600
C 	C 	0.58509 0.26730 0.42911 0.00200
H 	H 	0.57060 0.28820 0.40040 0.03700
N 	N 	0.73520 0.53570 0.24650 -0.14300
N 	N 	0.75298 0.54410 0.18220 -0.10600
C 	C 	0.72880 0.57330 0.19916 0.06700
H 	H 	0.71260 0.60910 0.18240 0.00200
C 	C 	0.62660 0.24960 0.49171 0.08700
H 	H 	0.64600 0.25860 0.51310 -0.02000
C 	C 	0.55745 0.20410 0.61810 -0.00200
H 	H 	0.53880 0.20900 0.62370 0.03500
C 	C 	0.75871 0.49440 0.25527 0.06400
H 	H 	0.76680 0.46450 0.28570 0.00400
C 	C 	0.55868 0.52120 0.78921 -0.08500
H 	H 	0.56770 0.46840 0.78480 0.06600
C 	C 	0.24556 0.96750 0.00177 -0.00300
H 	H 	0.23990 0.91480 0.01350 0.02200
C 	C 	0.26508 0.73790 0.61790 0.09600
H 	H 	0.24760 0.70740 0.61720 -0.02200
C 	C 	0.66237 0.06190 0.48418 -0.02000
H 	H 	0.66780 0.12110 0.48500 0.03000
C 	C 	0.27610 0.75430 0.92930 -0.06800
H 	H 	0.27380 0.69660 0.93890 0.06000
C 	C 	0.60873 0.38390 0.68693 -0.06600
H 	H 	0.62690 0.35530 0.69030 0.05200
C 	C 	0.68039 0.63140 0.30606 -0.09300
H 	H 	0.66720 0.67880 0.30120 0.06500
C 	C 	0.29857 0.80890 0.59532 0.00900
H 	H 	0.30860 0.83670 0.57520 0.02900
C 	C 	0.65293 0.93760 0.68700 0.00600
H 	H 	0.66580 0.92650 0.71940 0.03200
C 	C 	0.56638 0.13910 0.59209 0.01200
H 	H 	0.55470 0.09100 0.57700 0.03200
C 	C 	0.26385 0.74100 0.72835 -0.07600
H 	H 	0.24500 0.75360 0.70560 0.05500
C 	C 	0.68553 0.73640 0.40382 -0.09100
H 	H 	0.70150 0.72460 0.39140 0.06800
C 	C 	0.32396 0.64610 0.89548 0.09100
C 	C 	0.48313 0.64310 0.91168 0.01500
H 	H 	0.46890 0.67250 0.92310 0.03000
C 	C 	0.60381 0.22810 0.61780 0.09000
H 	H 	0.62280 0.25350 0.62410 -0.03000
C 	C 	0.54156 0.52440 0.82235 -0.07000
H 	H 	0.53890 0.47360 0.83940 0.05500
C 	C 	0.61620 0.93110 0.61640 0.10500
H 	H 	0.59880 0.91260 0.59180 -0.01700
C 	C 	0.64352 0.94030 0.50087 0.10000
H 	H 	0.63360 0.89870 0.51460 -0.02300
C 	C 	0.26999 0.90840 0.94053 0.10200
C 	C 	0.28913 0.77070 0.89130 0.08500
C 	C 	0.65974 0.83800 0.44391 0.08400
C 	C 	0.26347 0.06510 0.96055 0.10200
H 	H 	0.27270 0.08930 0.93820 -0.01800
C 	C 	0.63780 0.77390 0.44038 -0.07100
H 	H 	0.62160 0.78610 0.45230 0.05400
C 	C 	0.62688 0.37230 0.43218 0.08700
C 	C 	0.59153 0.67280 0.66266 -0.08300
H 	H 	0.58340 0.62710 0.64020 0.06500
C 	C 	0.60462 0.73460 0.74601 -0.08700
H 	H 	0.60560 0.73010 0.77990 0.06200
C 	C 	0.35264 0.51280 0.90026 -0.07600
H 	H 	0.35450 0.45610 0.88890 0.05600
C 	C 	0.26656 0.82380 0.95280 -0.08400
H 	H 	0.25750 0.81190 0.97770 0.07000
C 	C 	0.55452 0.38810 0.65406 -0.06400
H 	H 	0.53650 0.36290 0.63480 0.05300
C 	C 	0.28300 0.92580 0.90369 -0.07700
H 	H 	0.28550 0.98380 0.89480 0.05500
C 	C 	0.65317 0.51380 0.39787 0.09100
C 	C 	0.65555 0.00230 0.65500 -0.01100
H 	H 	0.67100 0.04380 0.66220 0.00500
C 	C 	0.61552 0.80910 0.72904 -0.07300
H 	H 	0.62330 0.85500 0.75140 0.05900
C 	C 	0.30900 0.80510 0.64747 0.00400
H 	H 	0.32680 0.82870 0.66880 0.03100
C 	C 	0.55457 0.46810 0.67781 -0.09200
H 	H 	0.53640 0.49610 0.67530 0.07000
C 	C 	0.71617 0.54850 0.27986 0.07500
C 	C 	0.32634 0.56080 0.87961 -0.08400
H 	H 	0.31030 0.53530 0.85500 0.06800
C 	C 	0.26700 0.72570 0.77931 -0.07200
H 	H 	0.25020 0.72780 0.79070 0.06100
C 	C 	0.66411 0.67270 0.40124 0.09500
C 	C 	0.68337 0.81890 0.42503 -0.06900
H 	H 	0.69800 0.86150 0.42650 0.05900
C 	C 	0.62079 0.38650 0.38100 -0.07100
H 	H 	0.60790 0.34870 0.35790 0.06100
C 	C 	0.24120 0.05150 0.01699 -0.02500
H 	H 	0.23200 0.06490 0.04150 0.02800
C 	C 	0.65964 0.49920 0.44942 -0.08300
H 	H 	0.67280 0.53660 0.47240 0.06600
C 	C 	0.29254 0.85670 0.87946 -0.07800
H 	H 	0.30150 0.86930 0.85450 0.06500
C 	C 	0.70114 0.50100 0.35103 -0.08900
H 	H 	0.70230 0.46050 0.37680 0.07100
C 	C 	0.31991 0.69930 0.79467 -0.07200
H 	H 	0.33870 0.68410 0.81660 0.06600
C 	C 	0.71791 0.48810 0.31826 -0.06100
H 	H 	0.73030 0.43890 0.32190 0.05500
C 	C 	0.68264 0.57370 0.34576 0.09800
C 	C 	0.28903 0.73730 0.71202 0.09000
C 	C 	0.77200 0.49400 0.21982 -0.03700
H 	H 	0.78990 0.46670 0.22010 0.04400
C 	C 	0.58164 0.34540 0.65914 0.07700
C 	C 	0.63386 0.45720 0.36390 -0.08200
H 	H 	0.62960 0.46680 0.32930 0.06600
C 	C 	0.66999 0.99970 0.45514 0.02900
H 	H 	0.68100 0.00790 0.43250 0.01900
C 	C 	0.69740 0.62000 0.27356 -0.06500
H 	H 	0.69610 0.66030 0.24770 0.04900
C 	C 	0.31651 0.71390 0.74444 -0.08000
H 	H 	0.33290 0.70780 0.73230 0.06600
C 	C 	0.34669 0.68090 0.93459 -0.08300
H 	H 	0.34470 0.73720 0.94650 0.06800
C 	C 	0.29533 0.70730 0.81322 0.08200
C 	C 	0.60843 0.46540 0.70957 -0.08900
H 	H 	0.62650 0.49200 0.72770 0.06600
N 	N 	0.28738 0.75890 0.66100 -0.13600
N 	N 	0.66582 0.58820 0.38015 -0.15400
C 	C 	0.61491 0.81590 0.67856 0.08400
C 	C 	0.56244 0.59540 0.76266 0.09300
C 	C 	0.53168 0.67640 0.80296 -0.07100
H 	H 	0.52260 0.72900 0.80750 0.05800
C 	C 	0.58141 0.50690 0.70524 0.09300
C 	C 	0.52863 0.60200 0.83003 0.08300
C 	C 	0.43885 0.40150 0.97137 0.00400
H 	H 	0.44850 0.34690 0.97590 0.04500
C 	C 	0.54828 0.67270 0.76900 -0.08600
H 	H 	0.54990 0.72250 0.75040 0.06300
C 	C 	0.51719 0.55020 0.90628 0.08600
H 	H 	0.53090 0.50390 0.91310 -0.01200
N 	N 	0.61314 0.30070 0.44999 -0.13300
N 	N 	0.40405 0.50460 0.95550 -0.13500
C 	C 	0.43180 0.54240 0.96790 0.09700
H 	H 	0.43520 0.60300 0.96950 -0.00300
C 	C 	0.40841 0.41390 0.95785 0.01400
H 	H 	0.39360 0.37050 0.95150 0.02900
C 	C 	0.37570 0.55020 0.93757 0.08700
C 	C 	0.90772 0.16620 0.78694 0.08900
O 	O 	0.99577 0.87622 0.53396 -0.48300
H 	H 	0.99170 0.88470 0.56030 0.23900
Ni	Ni	0.87920 0.59002 0.94657 1.05800
N 	N 	0.91938 0.08990 0.76992 -0.15200
N 	N 	0.84191 0.42180 0.03387 -0.14900
N 	N 	0.20169 0.19700 0.63328 -0.14600
N 	N 	0.24013 0.47760 0.53403 -0.13900
N 	N 	0.98708 0.10630 0.63315 -0.13400
N 	N 	0.91849 0.76180 0.86549 -0.13500
N 	N 	0.89138 0.68640 0.00235 -0.23300
N 	N 	0.87264 0.39160 0.83833 -0.13700
N 	N 	0.04677 0.98240 0.52270 -0.21500
O 	O 	0.91732 0.51583 0.98672 -0.47800
H 	H 	0.91260 0.46390 0.98740 0.24200
O 	O 	0.20647 0.23490 0.00797 -0.50100
H 	H 	0.20790 0.22850 0.03800 0.23300
C 	C 	0.86020 0.19230 0.08072 -0.08500
H 	H 	0.87510 0.15020 0.08290 0.06000
C 	C 	0.00889 0.16620 0.63004 -0.00700
H 	H 	0.01660 0.21290 0.65200 0.03500
N 	N 	0.22853 0.26660 0.92301 -0.22100
C 	C 	0.85355 0.92850 0.03308 -0.16200
H 	H 	0.84930 0.91880 0.99850 0.10800
C 	C 	0.89709 0.24790 0.85443 -0.07700
H 	H 	0.89760 0.25200 0.88820 0.06100
N 	N 	0.00087 0.06980 0.56551 -0.22400
N 	N 	0.85449 0.52550 0.98757 -0.22600
N 	N 	0.86757 0.49820 0.88932 -0.24700
N 	N 	0.24771 0.61250 0.50899 -0.22200
N 	N 	0.90471 0.65500 0.90844 -0.23300
C 	C 	0.12720 0.13220 0.54339 -0.08200
H 	H 	0.11200 0.15500 0.51620 0.05800
C 	C 	0.91778 0.69780 0.04193 0.00300
H 	H 	0.93490 0.66290 0.04770 0.03200
C 	C 	0.91491 0.76730 0.07089 0.00200
H 	H 	0.92940 0.78820 0.09960 0.03500
N 	N 	0.76480 0.03570 0.25350 -0.14300
N 	N 	0.74702 0.04410 0.31780 -0.10900
C 	C 	0.77120 0.07330 0.30084 0.06400
H 	H 	0.78740 0.10910 0.31760 0.00300
C 	C 	0.87340 0.74960 0.00829 0.04200
H 	H 	0.85400 0.75860 0.98690 0.01000
C 	C 	0.94255 0.70410 0.88190 -0.00000
H 	H 	0.96120 0.70900 0.87630 0.03700
C 	C 	0.74129 0.99440 0.24473 0.06900
H 	H 	0.73320 0.96450 0.21430 0.00400
C 	C 	0.94132 0.02120 0.71079 -0.09200
H 	H 	0.93230 0.96840 0.71520 0.07200
C 	C 	0.25444 0.46750 0.49823 0.00400
H 	H 	0.26010 0.41480 0.48650 0.02700
C 	C 	0.23492 0.23790 0.88210 0.09600
H 	H 	0.25240 0.20740 0.88280 -0.02200
C 	C 	0.83763 0.56190 0.01582 -0.03300
H 	H 	0.83220 0.62110 0.01500 0.02700
C 	C 	0.22390 0.25430 0.57070 -0.07200
H 	H 	0.22620 0.19660 0.56110 0.05800
C 	C 	0.89127 0.88390 0.81307 -0.07900
H 	H 	0.87310 0.85530 0.80970 0.05700
C 	C 	0.81961 0.13140 0.19394 -0.11100
H 	H 	0.83280 0.17880 0.19880 0.07100
C 	C 	0.20143 0.30890 0.90468 0.01100
H 	H 	0.19140 0.33670 0.92480 0.03200
C 	C 	0.84707 0.43760 0.81300 -0.00500
H 	H 	0.83420 0.42650 0.78060 0.03500
C 	C 	0.93362 0.63910 0.90791 0.01400
H 	H 	0.94530 0.59100 0.92300 0.03600
C 	C 	0.23615 0.24100 0.77165 -0.07700
H 	H 	0.25500 0.25360 0.79440 0.05500
C 	C 	0.81447 0.23640 0.09618 -0.09300
H 	H 	0.79850 0.22460 0.10860 0.06800
C 	C 	0.17604 0.14610 0.60452 0.08500
C 	C 	0.01687 0.14310 0.58832 0.01300
H 	H 	0.03110 0.17250 0.57690 0.02700
C 	C 	0.89619 0.72810 0.88220 0.09200
H 	H 	0.87720 0.75350 0.87590 -0.03000
C 	C 	0.95844 0.02440 0.67765 -0.07900
H 	H 	0.96110 0.97360 0.66060 0.06200
C 	C 	0.88380 0.43110 0.88360 0.10400
H 	H 	0.90120 0.41260 0.90820 -0.01600
C 	C 	0.85648 0.44030 0.99913 0.12100
H 	H 	0.86640 0.39870 0.98540 -0.02500
C 	C 	0.23001 0.40840 0.55947 0.09600
C 	C 	0.21087 0.27070 0.60870 0.08600
C 	C 	0.84026 0.33800 0.05609 0.07800
C 	C 	0.23653 0.56510 0.53945 0.10200
H 	H 	0.22730 0.58930 0.56180 -0.02000
C 	C 	0.86220 0.27390 0.05962 -0.07300
H 	H 	0.87840 0.28610 0.04770 0.04700
C 	C 	0.87312 0.87230 0.06782 0.12700
C 	C 	0.90847 0.17280 0.83734 -0.08100
H 	H 	0.91660 0.12710 0.85980 0.06400
C 	C 	0.89538 0.23460 0.75399 -0.08600
H 	H 	0.89440 0.23010 0.72010 0.06100
C 	C 	0.14736 0.01280 0.59974 -0.09500
H 	H 	0.14550 0.95610 0.61110 0.06600
C 	C 	0.23344 0.32380 0.54720 -0.08200
H 	H 	0.24250 0.31190 0.52230 0.06000
C 	C 	0.94548 0.88810 0.84594 -0.07800
H 	H 	0.96350 0.86290 0.86520 0.05900
C 	C 	0.21700 0.42580 0.59631 -0.07500
H 	H 	0.21450 0.48380 0.60520 0.05200
C 	C 	0.84683 0.01380 0.10213 0.03800
C 	C 	0.84445 0.50230 0.84500 0.00400
H 	H 	0.82900 0.54380 0.83780 0.00200
C 	C 	0.88448 0.30910 0.77096 -0.07400
H 	H 	0.87670 0.35500 0.74860 0.05800
C 	C 	0.19100 0.30510 0.85253 0.00400
H 	H 	0.17320 0.32870 0.83120 0.03100
C 	C 	0.94543 0.96810 0.82219 -0.07000
H 	H 	0.96360 0.99610 0.82470 0.06500
C 	C 	0.78383 0.04850 0.22014 0.05200
C 	C 	0.17366 0.06080 0.62039 -0.07400
H 	H 	0.18970 0.03530 0.64500 0.06300
C 	C 	0.23300 0.22570 0.72069 -0.07200
H 	H 	0.24980 0.22780 0.70930 0.06100
C 	C 	0.83589 0.17270 0.09876 0.09200
C 	C 	0.81663 0.31890 0.07497 -0.07000
H 	H 	0.80200 0.36150 0.07350 0.05600
C 	C 	0.87921 0.88650 0.11900 -0.11400
H 	H 	0.89210 0.84870 0.14210 0.07500
C 	C 	0.25880 0.55150 0.48301 0.00500
H 	H 	0.26800 0.56490 0.45850 0.02200
C 	C 	0.84036 0.99920 0.05058 -0.00200
H 	H 	0.82720 0.03660 0.02760 0.02600
C 	C 	0.20746 0.35670 0.62054 -0.08100
H 	H 	0.19850 0.36930 0.64550 0.06500
C 	C 	0.79886 0.00100 0.14897 -0.12900
H 	H 	0.79770 0.96050 0.12320 0.08800
C 	C 	0.18009 0.19930 0.70533 -0.07200
H 	H 	0.16130 0.18410 0.68340 0.06600
C 	C 	0.78209 0.98810 0.18174 -0.02200
H 	H 	0.76970 0.93890 0.17810 0.04300
C 	C 	0.81736 0.07370 0.15424 0.11400
C 	C 	0.21097 0.23730 0.78798 0.08900
C 	C 	0.72800 0.99400 0.28018 -0.03300
H 	H 	0.71010 0.96670 0.27990 0.04400
C 	C 	0.91836 0.84540 0.84086 0.08700
C 	C 	0.86614 0.95720 0.13610 -0.03300
H 	H 	0.87040 0.96680 0.17070 0.05100
C 	C 	0.83001 0.49970 0.04486 0.01500
H 	H 	0.81900 0.50790 0.06750 0.02600
C 	C 	0.80260 0.12000 0.22644 -0.04600
H 	H 	0.80390 0.16030 0.25230 0.04300
C 	C 	0.18349 0.21390 0.75556 -0.08000
H 	H 	0.16710 0.20780 0.76770 0.06600
C 	C 	0.15331 0.18090 0.56541 -0.08000
H 	H 	0.15530 0.23720 0.55350 0.06300
C 	C 	0.20467 0.20730 0.68678 0.08200
C 	C 	0.89157 0.96540 0.79043 -0.06700
H 	H 	0.87350 0.99200 0.77230 0.06100
N 	N 	0.21262 0.25890 0.83900 -0.13600
N 	N 	0.83418 0.08820 0.11985 -0.15000
C 	C 	0.88509 0.31590 0.82144 0.08400
C 	C 	0.93756 0.09540 0.73734 0.09400
C 	C 	0.96832 0.17640 0.69704 -0.07200
H 	H 	0.97740 0.22900 0.69250 0.05800
C 	C 	0.91859 0.00690 0.79476 0.07100
C 	C 	0.97137 0.10200 0.66997 0.08500
C 	C 	0.06115 0.90150 0.52863 -0.00200
H 	H 	0.05150 0.84690 0.52410 0.04000
C 	C 	0.95172 0.17270 0.73100 -0.08600
H 	H 	0.95010 0.22250 0.74960 0.06300
C 	C 	0.98281 0.05020 0.59372 0.08600
H 	H 	0.96910 0.00390 0.58690 -0.01800
N 	N 	0.88686 0.80070 0.05001 -0.13600
N 	N 	0.09595 0.00460 0.54450 -0.14000
C 	C 	0.06820 0.04240 0.53210 0.08700
H 	H 	0.06480 0.10300 0.53050 -0.00500
C 	C 	0.09159 0.91390 0.54215 0.01800
H 	H 	0.10640 0.87050 0.54850 0.02400
C 	C 	0.12430 0.05020 0.56243 0.09100
C 	C 	0.40772 0.66620 0.78694 0.09000
O 	O 	0.49577 0.37622 0.53396 -0.48600
H 	H 	0.49170 0.38470 0.56030 0.23800
Ni	Ni	0.37920 0.09002 0.94657 1.05800
N 	N 	0.41938 0.58990 0.76992 -0.15400
N 	N 	0.34191 0.92180 0.03387 -0.15300
N 	N 	0.70169 0.69700 0.63328 -0.14700
N 	N 	0.74013 0.97760 0.53403 -0.13800
N 	N 	0.48708 0.60630 0.63315 -0.13400
N 	N 	0.41849 0.26180 0.86549 -0.13300
N 	N 	0.39138 0.18640 0.00235 -0.23300
N 	N 	0.37264 0.89160 0.83833 -0.13900
N 	N 	0.54677 0.48240 0.52270 -0.22000
O 	O 	0.41732 0.01583 0.98672 -0.48500
H 	H 	0.41260 0.96390 0.98740 0.24700
O 	O 	0.70647 0.73490 0.00797 -0.50000
H 	H 	0.70790 0.72850 0.03800 0.23300
C 	C 	0.36020 0.69230 0.08072 -0.08500
H 	H 	0.37510 0.65020 0.08290 0.06100
C 	C 	0.50889 0.66620 0.63004 -0.00400
H 	H 	0.51660 0.71290 0.65200 0.03500
N 	N 	0.72853 0.76660 0.92301 -0.22100
C 	C 	0.35355 0.42850 0.03308 -0.14000
H 	H 	0.34930 0.41880 0.99850 0.10000
C 	C 	0.39709 0.74790 0.85443 -0.07700
H 	H 	0.39760 0.75200 0.88820 0.06100
N 	N 	0.50087 0.56980 0.56551 -0.22200
N 	N 	0.35449 0.02550 0.98757 -0.22700
N 	N 	0.36757 0.99820 0.88932 -0.24300
N 	N 	0.74771 0.11250 0.50899 -0.22000
N 	N 	0.40471 0.15500 0.90844 -0.23300
C 	C 	0.62720 0.63220 0.54339 -0.07500
H 	H 	0.61200 0.65500 0.51620 0.05600
C 	C 	0.41778 0.19780 0.04193 0.00300
H 	H 	0.43490 0.16290 0.04770 0.03100
C 	C 	0.41491 0.26730 0.07089 0.00100
H 	H 	0.42940 0.28820 0.09960 0.03500
N 	N 	0.26480 0.53570 0.25350 -0.14300
N 	N 	0.24702 0.54410 0.31780 -0.10600
C 	C 	0.27120 0.57330 0.30084 0.06700
H 	H 	0.28740 0.60910 0.31760 0.00200
C 	C 	0.37340 0.24960 0.00829 0.04000
H 	H 	0.35400 0.25860 0.98690 0.01100
C 	C 	0.44255 0.20410 0.88190 -0.00100
H 	H 	0.46120 0.20900 0.87630 0.03600
C 	C 	0.24129 0.49440 0.24473 0.06400
H 	H 	0.23320 0.46450 0.21430 0.00400
C 	C 	0.44132 0.52120 0.71079 -0.08600
H 	H 	0.43230 0.46840 0.71520 0.06600
C 	C 	0.75444 0.96750 0.49823 0.01400
H 	H 	0.76010 0.91480 0.48650 0.02400
C 	C 	0.73492 0.73790 0.88210 0.09600
H 	H 	0.75240 0.70740 0.88280 -0.02100
C 	C 	0.33763 0.06190 0.01582 -0.05000
H 	H 	0.33220 0.12110 0.01500 0.03300
C 	C 	0.72390 0.75430 0.57070 -0.07200
H 	H 	0.72620 0.69660 0.56110 0.05800
C 	C 	0.39127 0.38390 0.81307 -0.06600
H 	H 	0.37310 0.35530 0.80970 0.05200
C 	C 	0.31961 0.63140 0.19394 -0.09200
H 	H 	0.33280 0.67880 0.19880 0.06500
C 	C 	0.70143 0.80890 0.90468 0.01100
H 	H 	0.69140 0.83670 0.92480 0.03200
C 	C 	0.34707 0.93760 0.81300 0.00500
H 	H 	0.33420 0.92650 0.78060 0.03200
C 	C 	0.43362 0.13910 0.90791 0.01400
H 	H 	0.44530 0.09100 0.92300 0.03500
C 	C 	0.73615 0.74100 0.77165 -0.07700
H 	H 	0.75500 0.75360 0.79440 0.05500
C 	C 	0.31447 0.73640 0.09618 -0.09200
H 	H 	0.29850 0.72460 0.10860 0.06800
C 	C 	0.67604 0.64610 0.60452 0.09100
C 	C 	0.51687 0.64310 0.58832 0.01300
H 	H 	0.53110 0.67250 0.57690 0.02700
C 	C 	0.39619 0.22810 0.88220 0.09100
H 	H 	0.37720 0.25350 0.87590 -0.02900
C 	C 	0.45844 0.52440 0.67765 -0.06900
H 	H 	0.46110 0.47360 0.66060 0.05400
C 	C 	0.38380 0.93110 0.88360 0.10500
H 	H 	0.40120 0.91260 0.90820 -0.01600
C 	C 	0.35648 0.94030 0.99913 0.12500
H 	H 	0.36640 0.89870 0.98540 -0.02600
C 	C 	0.73001 0.90840 0.55947 0.09700
C 	C 	0.71087 0.77070 0.60870 0.08600
C 	C 	0.34026 0.83800 0.05609 0.08000
C 	C 	0.73653 0.06510 0.53945 0.09700
H 	H 	0.72730 0.08930 0.56180 -0.01900
C 	C 	0.36220 0.77390 0.05962 -0.07400
H 	H 	0.37840 0.78610 0.04770 0.04700
C 	C 	0.37312 0.37230 0.06782 0.11200
C 	C 	0.40847 0.67280 0.83734 -0.08200
H 	H 	0.41660 0.62710 0.85980 0.06500
C 	C 	0.39538 0.73460 0.75399 -0.08600
H 	H 	0.39440 0.73010 0.72010 0.06100
C 	C 	0.64736 0.51280 0.59974 -0.07500
H 	H 	0.64550 0.45610 0.61110 0.05500
C 	C 	0.73344 0.82380 0.54720 -0.08300
H 	H 	0.74250 0.81190 0.52230 0.06000
C 	C 	0.44548 0.38810 0.84594 -0.06500
H 	H 	0.46350 0.36290 0.86520 0.05400
C 	C 	0.71700 0.92580 0.59631 -0.07500
H 	H 	0.71450 0.98380 0.60520 0.05400
C 	C 	0.34683 0.51380 0.10213 0.06900
C 	C 	0.34445 0.00230 0.84500 -0.01000
H 	H 	0.32900 0.04380 0.83780 0.00500
C 	C 	0.38448 0.80910 0.77096 -0.07400
H 	H 	0.37670 0.85500 0.74860 0.05900
C 	C 	0.69100 0.80510 0.85253 0.00400
H 	H 	0.67320 0.82870 0.83120 0.03100
C 	C 	0.44543 0.46810 0.82219 -0.09200
H 	H 	0.46360 0.49610 0.82470 0.06900
C 	C 	0.28383 0.54850 0.22014 0.07600
C 	C 	0.67366 0.56080 0.62039 -0.08600
H 	H 	0.68970 0.53530 0.64500 0.06900
C 	C 	0.73300 0.72570 0.72069 -0.07200
H 	H 	0.74980 0.72780 0.70930 0.06100
C 	C 	0.33589 0.67270 0.09876 0.09300
C 	C 	0.31663 0.81890 0.07497 -0.07100
H 	H 	0.30200 0.86150 0.07350 0.05700
C 	C 	0.37921 0.38650 0.11900 -0.09500
H 	H 	0.39210 0.34870 0.14210 0.06800
C 	C 	0.75880 0.05150 0.48301 -0.00400
H 	H 	0.76800 0.06490 0.45850 0.02400
C 	C 	0.34036 0.49920 0.05058 -0.04200
H 	H 	0.32720 0.53660 0.02760 0.04300
C 	C 	0.70746 0.85670 0.62054 -0.08000
H 	H 	0.69850 0.86930 0.64550 0.06500
C 	C 	0.29886 0.50100 0.14897 -0.08700
H 	H 	0.29770 0.46050 0.12320 0.06900
C 	C 	0.68009 0.69930 0.70533 -0.07200
H 	H 	0.66130 0.68410 0.68340 0.06600
C 	C 	0.28209 0.48810 0.18174 -0.06300
H 	H 	0.26970 0.43890 0.17810 0.05500
C 	C 	0.31736 0.57370 0.15424 0.09600
C 	C 	0.71097 0.73730 0.78798 0.09000
C 	C 	0.22800 0.49400 0.28018 -0.03700
H 	H 	0.21010 0.46670 0.27990 0.04400
C 	C 	0.41836 0.34540 0.84086 0.07800
C 	C 	0.36614 0.45720 0.13610 -0.06100
H 	H 	0.37040 0.46680 0.17070 0.05800
C 	C 	0.33001 0.99970 0.04486 0.03800
H 	H 	0.31900 0.00790 0.06750 0.01400
C 	C 	0.30260 0.62000 0.22644 -0.06600
H 	H 	0.30390 0.66030 0.25230 0.05000
C 	C 	0.68349 0.71390 0.75556 -0.08000
H 	H 	0.66710 0.70780 0.76770 0.06600
C 	C 	0.65331 0.68090 0.56541 -0.08700
H 	H 	0.65530 0.73720 0.55350 0.06500
C 	C 	0.70467 0.70730 0.68678 0.08200
C 	C 	0.39157 0.46540 0.79043 -0.08900
H 	H 	0.37350 0.49200 0.77230 0.06600
N 	N 	0.71262 0.75890 0.83900 -0.13600
N 	N 	0.33418 0.58820 0.11985 -0.15100
C 	C 	0.38509 0.81590 0.82144 0.08500
C 	C 	0.43756 0.59540 0.73734 0.09300
C 	C 	0.46832 0.67640 0.69704 -0.07100
H 	H 	0.47740 0.72900 0.69250 0.05700
C 	C 	0.41859 0.50690 0.79476 0.09300
C 	C 	0.47137 0.60200 0.66997 0.08200
C 	C 	0.56115 0.40150 0.52863 0.00000
H 	H 	0.55150 0.34690 0.52410 0.04000
C 	C 	0.45172 0.67270 0.73100 -0.08700
H 	H 	0.45010 0.72250 0.74960 0.06300
C 	C 	0.48281 0.55020 0.59372 0.08400
H 	H 	0.46910 0.50390 0.58690 -0.01500
N 	N 	0.38686 0.30070 0.05001 -0.13300
N 	N 	0.59595 0.50460 0.54450 -0.13600
C 	C 	0.56820 0.54240 0.53210 0.09400
H 	H 	0.56480 0.60300 0.53050 -0.00600
C 	C 	0.59159 0.41390 0.54215 0.01100
H 	H 	0.60640 0.37050 0.54850 0.02600
C 	C 	0.62430 0.55020 0.56243 0.08300
Ni	Ni	-0.00000 0.00000 -0.00000 1.07100
Ni	Ni	0.50000 0.50000 -0.00000 1.07500
Ni	Ni	0.00000 0.00000 0.50000 1.08100
Ni	Ni	0.50000 0.50000 0.50000 1.08500
Ni	Ni	0.25000 0.75000 0.50000 1.08600
Ni	Ni	0.75000 0.75000 -0.00000 1.07600
Ni	Ni	0.75000 0.25000 0.50000 1.08600
Ni	Ni	0.25000 0.25000 -0.00000 1.07600
