data_crystal

_cell_length_a 14.57550
_cell_length_b 14.57550
_cell_length_c 14.57550
_cell_angle_alpha 109.47100
_cell_angle_beta  109.47100
_cell_angle_gamma 109.47100

_symmetry_space_group_name_	'P 1'
_symmetry_space_group_name_H-M	'P 1'

loop_
_symmetry_equiv_pos_as_xyz
  x,y,z

loop_
_atom_site_label
_atom_site_type_symbol
_atom_site_fract_x
_atom_site_fract_y
_atom_site_fract_z
_atom_site_charge
Zn	Zn	0.75000 0.50000 0.25000 1.17100
Zn	Zn	0.25000 0.50000 0.75000 1.17100
Zn	Zn	0.25000 0.75000 0.50000 1.17100
Zn	Zn	0.75000 0.25000 0.50000 1.17200
Zn	Zn	0.50000 0.75000 0.25000 1.17200
Zn	Zn	0.50000 0.25000 0.75000 1.17200
H 	H 	0.66900 0.53730 0.43490 -0.00300
H 	H 	0.10240 0.23410 0.56510 -0.00200
H 	H 	0.89760 0.46270 0.13170 -0.00600
H 	H 	0.33100 0.76590 0.86830 -0.00200
H 	H 	0.13170 0.89760 0.46270 -0.00600
H 	H 	0.86830 0.33100 0.76590 -0.00200
H 	H 	0.43490 0.66900 0.53730 -0.00300
H 	H 	0.56510 0.10240 0.23410 -0.00200
H 	H 	0.23410 0.56510 0.10240 -0.00200
H 	H 	0.53730 0.43490 0.66900 -0.00300
H 	H 	0.76590 0.86830 0.33100 -0.00200
H 	H 	0.46270 0.13170 0.89760 -0.00600
H 	H 	0.23410 0.10240 0.56510 -0.00200
H 	H 	0.53730 0.66900 0.43490 -0.00300
H 	H 	0.76590 0.33100 0.86830 -0.00200
H 	H 	0.46270 0.89760 0.13170 -0.00600
H 	H 	0.66900 0.43490 0.53730 -0.00300
H 	H 	0.10240 0.56510 0.23410 -0.00200
H 	H 	0.89760 0.13170 0.46270 -0.00600
H 	H 	0.33100 0.86830 0.76590 -0.00200
H 	H 	0.13170 0.46270 0.89760 -0.00600
H 	H 	0.86830 0.76590 0.33100 -0.00200
H 	H 	0.43490 0.53730 0.66900 -0.00300
H 	H 	0.56510 0.23410 0.10240 -0.00200
H 	H 	0.80300 0.35840 0.35840 -0.07400
H 	H 	-0.00000 0.44460 0.64160 -0.07400
H 	H 	-0.00000 0.64160 0.44460 -0.07400
H 	H 	0.19700 0.55540 0.55540 -0.07500
H 	H 	0.44460 0.00000 0.64160 -0.07400
H 	H 	0.55540 0.19700 0.55540 -0.07500
H 	H 	0.35840 0.80300 0.35840 -0.07400
H 	H 	0.64160 0.00000 0.44460 -0.07400
H 	H 	0.44460 0.64160 -0.00000 -0.07400
H 	H 	0.35840 0.35840 0.80300 -0.07400
H 	H 	0.55540 0.55540 0.19700 -0.07500
H 	H 	0.64160 0.44460 -0.00000 -0.07400
C 	C 	0.69120 0.48200 0.42580 -0.01000
C 	C 	0.05620 0.26540 0.57420 -0.01800
C 	C 	0.94380 0.51800 0.20920 -0.00300
C 	C 	0.30880 0.73460 0.79080 -0.01000
C 	C 	0.20920 0.94380 0.51800 -0.00300
C 	C 	0.79080 0.30880 0.73460 -0.01000
C 	C 	0.42580 0.69120 0.48200 -0.01000
C 	C 	0.57420 0.05620 0.26540 -0.01800
C 	C 	0.26540 0.57420 0.05620 -0.01800
C 	C 	0.48200 0.42580 0.69120 -0.01000
C 	C 	0.73460 0.79080 0.30880 -0.01000
C 	C 	0.51800 0.20920 0.94380 -0.00300
C 	C 	0.26540 0.05620 0.57420 -0.01800
C 	C 	0.48200 0.69120 0.42580 -0.01000
C 	C 	0.73460 0.30880 0.79080 -0.01000
C 	C 	0.51800 0.94380 0.20920 -0.00300
C 	C 	0.69120 0.42580 0.48200 -0.01000
C 	C 	0.05620 0.57420 0.26540 -0.01800
C 	C 	0.94380 0.20920 0.51800 -0.00300
C 	C 	0.30880 0.79080 0.73460 -0.01000
C 	C 	0.20920 0.51800 0.94380 -0.00300
C 	C 	0.79080 0.73460 0.30880 -0.01000
C 	C 	0.42580 0.48200 0.69120 -0.01000
C 	C 	0.57420 0.26540 0.05620 -0.01800
C 	C 	0.75874 0.38327 0.38327 0.12300
C 	C 	-0.00000 0.37547 0.61673 0.11800
C 	C 	-0.00000 0.61673 0.37547 0.11800
C 	C 	0.24126 0.62453 0.62453 0.12300
C 	C 	0.37547 0.00000 0.61673 0.11800
C 	C 	0.62453 0.24126 0.62453 0.12300
C 	C 	0.38327 0.75874 0.38327 0.12300
C 	C 	0.61673 0.00000 0.37547 0.11800
C 	C 	0.37547 0.61673 -0.00000 0.11800
C 	C 	0.38327 0.38327 0.75874 0.12300
C 	C 	0.62453 0.62453 0.24126 0.12300
C 	C 	0.61673 0.37547 -0.00000 0.11800
N 	N 	0.72781 0.44744 0.35373 -0.30300
N 	N 	0.09371 0.37408 0.64627 -0.30200
N 	N 	0.90629 0.55256 0.28037 -0.30200
N 	N 	0.27219 0.62592 0.71963 -0.30300
N 	N 	0.28037 0.90629 0.55256 -0.30200
N 	N 	0.71963 0.27219 0.62592 -0.30300
N 	N 	0.35373 0.72781 0.44744 -0.30300
N 	N 	0.64627 0.09371 0.37408 -0.30200
N 	N 	0.37408 0.64627 0.09371 -0.30200
N 	N 	0.44744 0.35373 0.72781 -0.30300
N 	N 	0.62592 0.71963 0.27219 -0.30300
N 	N 	0.55256 0.28037 0.90629 -0.30200
N 	N 	0.37408 0.09371 0.64627 -0.30200
N 	N 	0.44744 0.72781 0.35373 -0.30300
N 	N 	0.62592 0.27219 0.71963 -0.30300
N 	N 	0.55256 0.90629 0.28037 -0.30200
N 	N 	0.72781 0.35373 0.44744 -0.30300
N 	N 	0.09371 0.64627 0.37408 -0.30200
N 	N 	0.90629 0.28037 0.55256 -0.30200
N 	N 	0.27219 0.71963 0.62592 -0.30300
N 	N 	0.28037 0.55256 0.90629 -0.30200
N 	N 	0.71963 0.62592 0.27219 -0.30300
N 	N 	0.35373 0.44744 0.72781 -0.30300
N 	N 	0.64627 0.37408 0.09371 -0.30200
