data_crystal

_cell_length_a 51.12370
_cell_length_b 51.12370
_cell_length_c 51.12370
_cell_angle_alpha 90.00000
_cell_angle_beta  90.00000
_cell_angle_gamma 90.00000

_symmetry_space_group_name_	'P 1'
_symmetry_space_group_name_H-M	'P 1'

loop_
_symmetry_equiv_pos_as_xyz
  x,y,z

loop_
_atom_site_label
_atom_site_type_symbol
_atom_site_fract_x
_atom_site_fract_y
_atom_site_fract_z
_atom_site_charge
Zn	Zn	0.12515 0.87070 0.36760 0.83800
N 	N 	0.15345 0.90295 0.36333 -0.33800
C 	C 	0.18070 0.89800 0.36536 0.06300
C 	C 	0.19420 0.92041 0.35608 -0.11700
H 	H 	0.21230 0.92240 0.35520 0.05700
C 	C 	0.17530 0.93921 0.34831 -0.05400
H 	H 	0.17880 0.95570 0.34150 0.02800
C 	C 	0.15012 0.92842 0.35280 -0.01300
C 	C 	0.12509 0.93859 0.34860 0.03400
N 	N 	0.09672 0.90283 0.36341 -0.33700
C 	C 	0.10020 0.92829 0.35290 -0.01200
C 	C 	0.07508 0.93922 0.34841 -0.05000
H 	H 	0.07170 0.95570 0.34160 0.03200
C 	C 	0.05607 0.92052 0.35614 -0.11100
H 	H 	0.03800 0.92260 0.35530 0.06000
C 	C 	0.06945 0.89803 0.36542 0.07000
C 	C 	0.23475 0.89030 0.39280 -0.21800
H 	H 	0.22570 0.90050 0.40480 0.08300
C 	C 	0.26193 0.89020 0.39270 0.11900
H 	H 	0.27110 0.90040 0.40470 -0.01300
O 	O 	0.31699 0.88930 0.39070 -0.53500
C 	C 	0.01559 0.86290 0.35480 -0.20200
H 	H 	0.02470 0.85480 0.34130 0.08500
C 	C 	0.98841 0.86280 0.35470 0.10500
H 	H 	0.97940 0.85470 0.34110 -0.00500
O 	O 	0.93313 0.86080 0.35910 -0.53000
C 	C 	0.12508 0.96565 0.33741 -0.44100
C 	C 	0.12800 0.96930 0.31065 0.59700
C 	C 	0.12800 0.99440 0.30028 -0.73000
H 	H 	0.13000 0.99690 0.28240 0.25800
C 	C 	0.12507 0.01590 0.31670 0.69000
C 	C 	0.12215 0.01224 0.34350 -0.72900
H 	H 	0.12020 0.02660 0.35440 0.24100
C 	C 	0.12216 0.98710 0.35383 0.58700
C 	C 	0.13117 0.94600 0.29282 -1.10000
H 	H 	0.13290 0.95190 0.27510 0.33500
H 	H 	0.11610 0.93490 0.29430 0.33400
H 	H 	0.14650 0.93640 0.29780 0.33700
C 	C 	0.12506 0.04320 0.30540 -1.20500
H 	H 	0.12720 0.04230 0.28680 0.37000
H 	H 	0.13920 0.05310 0.31290 0.36000
H 	H 	0.10870 0.05160 0.30940 0.35500
C 	C 	0.11899 0.98320 0.38291 -1.08000
H 	H 	0.11720 0.99980 0.39130 0.31900
H 	H 	0.13410 0.97430 0.38970 0.32200
H 	H 	0.10370 0.97280 0.38620 0.32800
Zn	Zn	0.12515 0.37070 0.86760 0.83800
N 	N 	0.15345 0.40295 0.86333 -0.33800
C 	C 	0.18070 0.39800 0.86536 0.06300
C 	C 	0.19420 0.42041 0.85608 -0.11700
H 	H 	0.21230 0.42240 0.85520 0.05700
C 	C 	0.17530 0.43921 0.84831 -0.05400
H 	H 	0.17880 0.45570 0.84150 0.02800
C 	C 	0.15012 0.42842 0.85280 -0.01300
C 	C 	0.12509 0.43859 0.84860 0.03400
N 	N 	0.09672 0.40283 0.86341 -0.33700
C 	C 	0.10020 0.42829 0.85290 -0.01200
C 	C 	0.07508 0.43922 0.84841 -0.05000
H 	H 	0.07170 0.45570 0.84160 0.03200
C 	C 	0.05607 0.42052 0.85614 -0.11100
H 	H 	0.03800 0.42260 0.85530 0.06000
C 	C 	0.06945 0.39803 0.86542 0.07000
C 	C 	0.23475 0.39030 0.89280 -0.21800
H 	H 	0.22570 0.40050 0.90480 0.08300
C 	C 	0.26193 0.39020 0.89270 0.11900
H 	H 	0.27110 0.40040 0.90470 -0.01300
O 	O 	0.31699 0.38930 0.89070 -0.53500
C 	C 	0.01559 0.36290 0.85480 -0.20200
H 	H 	0.02470 0.35480 0.84130 0.08500
C 	C 	0.98841 0.36280 0.85470 0.10500
H 	H 	0.97940 0.35470 0.84110 -0.00500
O 	O 	0.93313 0.36080 0.85910 -0.53000
C 	C 	0.12508 0.46565 0.83741 -0.44100
C 	C 	0.12800 0.46930 0.81065 0.59700
C 	C 	0.12800 0.49440 0.80028 -0.73000
H 	H 	0.13000 0.49690 0.78240 0.25800
C 	C 	0.12507 0.51590 0.81670 0.69000
C 	C 	0.12215 0.51224 0.84350 -0.72900
H 	H 	0.12020 0.52660 0.85440 0.24100
C 	C 	0.12216 0.48710 0.85383 0.58700
C 	C 	0.13117 0.44600 0.79282 -1.10100
H 	H 	0.13290 0.45190 0.77510 0.33400
H 	H 	0.11610 0.43490 0.79430 0.33300
H 	H 	0.14650 0.43640 0.79780 0.33600
C 	C 	0.12506 0.54320 0.80540 -1.20600
H 	H 	0.12720 0.54230 0.78680 0.36900
H 	H 	0.13920 0.55310 0.81290 0.35900
H 	H 	0.10870 0.55160 0.80940 0.35400
C 	C 	0.11899 0.48320 0.88291 -1.08100
H 	H 	0.11720 0.49980 0.89130 0.31800
H 	H 	0.13410 0.47430 0.88970 0.32100
H 	H 	0.10370 0.47280 0.88620 0.32700
Zn	Zn	0.62515 0.87070 0.86760 0.83700
N 	N 	0.65345 0.90295 0.86333 -0.33900
C 	C 	0.68070 0.89800 0.86536 0.06200
C 	C 	0.69420 0.92041 0.85608 -0.11800
H 	H 	0.71230 0.92240 0.85520 0.05600
C 	C 	0.67530 0.93921 0.84831 -0.05500
H 	H 	0.67880 0.95570 0.84150 0.02700
C 	C 	0.65012 0.92842 0.85280 -0.01400
C 	C 	0.62509 0.93859 0.84860 0.03300
N 	N 	0.59672 0.90283 0.86341 -0.33800
C 	C 	0.60020 0.92829 0.85290 -0.01300
C 	C 	0.57508 0.93922 0.84841 -0.05100
H 	H 	0.57170 0.95570 0.84160 0.03100
C 	C 	0.55607 0.92052 0.85614 -0.11200
H 	H 	0.53800 0.92260 0.85530 0.05900
C 	C 	0.56945 0.89803 0.86542 0.06900
C 	C 	0.73475 0.89030 0.89280 -0.21900
H 	H 	0.72570 0.90050 0.90480 0.08200
C 	C 	0.76193 0.89020 0.89270 0.11800
H 	H 	0.77110 0.90040 0.90470 -0.01400
O 	O 	0.81699 0.88930 0.89070 -0.53600
C 	C 	0.51559 0.86290 0.85480 -0.20300
H 	H 	0.52470 0.85480 0.84130 0.08400
C 	C 	0.48841 0.86280 0.85470 0.10400
H 	H 	0.47940 0.85470 0.84110 -0.00600
O 	O 	0.43313 0.86080 0.85910 -0.53100
C 	C 	0.62508 0.96565 0.83741 -0.44200
C 	C 	0.62800 0.96930 0.81065 0.59600
C 	C 	0.62800 0.99440 0.80028 -0.73100
H 	H 	0.63000 0.99690 0.78240 0.25700
C 	C 	0.62507 0.01590 0.81670 0.68900
C 	C 	0.62215 0.01224 0.84350 -0.73000
H 	H 	0.62020 0.02660 0.85440 0.24000
C 	C 	0.62216 0.98710 0.85383 0.58600
C 	C 	0.63117 0.94600 0.79282 -1.10100
H 	H 	0.63290 0.95190 0.77510 0.33400
H 	H 	0.61610 0.93490 0.79430 0.33300
H 	H 	0.64650 0.93640 0.79780 0.33600
C 	C 	0.62506 0.04320 0.80540 -1.20600
H 	H 	0.62720 0.04230 0.78680 0.36900
H 	H 	0.63920 0.05310 0.81290 0.35900
H 	H 	0.60870 0.05160 0.80940 0.35400
C 	C 	0.61899 0.98320 0.88291 -1.08100
H 	H 	0.61720 0.99980 0.89130 0.31800
H 	H 	0.63410 0.97430 0.88970 0.32100
H 	H 	0.60370 0.97280 0.88620 0.32700
Zn	Zn	0.62515 0.37070 0.36760 0.83700
N 	N 	0.65345 0.40295 0.36333 -0.33900
C 	C 	0.68070 0.39800 0.36536 0.06200
C 	C 	0.69420 0.42041 0.35608 -0.11800
H 	H 	0.71230 0.42240 0.35520 0.05600
C 	C 	0.67530 0.43921 0.34831 -0.05500
H 	H 	0.67880 0.45570 0.34150 0.02700
C 	C 	0.65012 0.42842 0.35280 -0.01400
C 	C 	0.62509 0.43859 0.34860 0.03300
N 	N 	0.59672 0.40283 0.36341 -0.33800
C 	C 	0.60020 0.42829 0.35290 -0.01300
C 	C 	0.57508 0.43922 0.34841 -0.05100
H 	H 	0.57170 0.45570 0.34160 0.03100
C 	C 	0.55607 0.42052 0.35614 -0.11200
H 	H 	0.53800 0.42260 0.35530 0.05900
C 	C 	0.56945 0.39803 0.36542 0.06900
C 	C 	0.73475 0.39030 0.39280 -0.21900
H 	H 	0.72570 0.40050 0.40480 0.08200
C 	C 	0.76193 0.39020 0.39270 0.11800
H 	H 	0.77110 0.40040 0.40470 -0.01400
O 	O 	0.81699 0.38930 0.39070 -0.53600
C 	C 	0.51559 0.36290 0.35480 -0.20300
H 	H 	0.52470 0.35480 0.34130 0.08400
C 	C 	0.48841 0.36280 0.35470 0.10400
H 	H 	0.47940 0.35470 0.34110 -0.00600
O 	O 	0.43313 0.36080 0.35910 -0.53100
C 	C 	0.62508 0.46565 0.33741 -0.44200
C 	C 	0.62800 0.46930 0.31065 0.59600
C 	C 	0.62800 0.49440 0.30028 -0.73100
H 	H 	0.63000 0.49690 0.28240 0.25700
C 	C 	0.62507 0.51590 0.31670 0.68900
C 	C 	0.62215 0.51224 0.34350 -0.73000
H 	H 	0.62020 0.52660 0.35440 0.24000
C 	C 	0.62216 0.48710 0.35383 0.58600
C 	C 	0.63117 0.44600 0.29282 -1.10100
H 	H 	0.63290 0.45190 0.27510 0.33400
H 	H 	0.61610 0.43490 0.29430 0.33300
H 	H 	0.64650 0.43640 0.29780 0.33600
C 	C 	0.62506 0.54320 0.30540 -1.20600
H 	H 	0.62720 0.54230 0.28680 0.36900
H 	H 	0.63920 0.55310 0.31290 0.35900
H 	H 	0.60870 0.55160 0.30940 0.35400
C 	C 	0.61899 0.48320 0.38291 -1.08100
H 	H 	0.61720 0.49980 0.39130 0.31800
H 	H 	0.63410 0.47430 0.38970 0.32100
H 	H 	0.60370 0.47280 0.38620 0.32700
Zn	Zn	0.12485 0.37930 0.36760 0.83700
N 	N 	0.09655 0.34705 0.36333 -0.33900
C 	C 	0.06930 0.35200 0.36536 0.06200
C 	C 	0.05580 0.32959 0.35608 -0.11800
H 	H 	0.03770 0.32760 0.35520 0.05600
C 	C 	0.07470 0.31079 0.34831 -0.05500
H 	H 	0.07120 0.29430 0.34150 0.02700
C 	C 	0.09988 0.32158 0.35280 -0.01400
C 	C 	0.12491 0.31141 0.34860 0.03300
N 	N 	0.15328 0.34717 0.36341 -0.33800
C 	C 	0.14980 0.32171 0.35290 -0.01300
C 	C 	0.17492 0.31078 0.34841 -0.05100
H 	H 	0.17830 0.29430 0.34160 0.03100
C 	C 	0.19393 0.32948 0.35614 -0.11200
H 	H 	0.21200 0.32740 0.35530 0.05900
C 	C 	0.18055 0.35197 0.36542 0.06900
C 	C 	0.01525 0.35970 0.39280 -0.21900
H 	H 	0.02430 0.34950 0.40480 0.08200
C 	C 	0.98807 0.35980 0.39270 0.11800
H 	H 	0.97890 0.34960 0.40470 -0.01400
O 	O 	0.93301 0.36070 0.39070 -0.53600
C 	C 	0.23441 0.38710 0.35480 -0.20300
H 	H 	0.22530 0.39520 0.34130 0.08400
C 	C 	0.26159 0.38720 0.35470 0.10400
H 	H 	0.27060 0.39530 0.34110 -0.00600
O 	O 	0.31687 0.38920 0.35910 -0.53100
C 	C 	0.12492 0.28435 0.33741 -0.44200
C 	C 	0.12200 0.28070 0.31065 0.59600
C 	C 	0.12200 0.25560 0.30028 -0.73100
H 	H 	0.12000 0.25310 0.28240 0.25700
C 	C 	0.12493 0.23410 0.31670 0.68900
C 	C 	0.12785 0.23776 0.34350 -0.73000
H 	H 	0.12980 0.22340 0.35440 0.24000
C 	C 	0.12784 0.26290 0.35383 0.58600
C 	C 	0.11883 0.30400 0.29282 -1.10100
H 	H 	0.11710 0.29810 0.27510 0.33400
H 	H 	0.13390 0.31510 0.29430 0.33300
H 	H 	0.10350 0.31360 0.29780 0.33600
C 	C 	0.12494 0.20680 0.30540 -1.20600
H 	H 	0.12280 0.20770 0.28680 0.36900
H 	H 	0.11080 0.19690 0.31290 0.35900
H 	H 	0.14130 0.19840 0.30940 0.35400
C 	C 	0.13101 0.26680 0.38291 -1.08100
H 	H 	0.13280 0.25020 0.39130 0.31800
H 	H 	0.11590 0.27570 0.38970 0.32100
H 	H 	0.14630 0.27720 0.38620 0.32700
Zn	Zn	0.12485 0.87930 0.86760 0.83700
N 	N 	0.09655 0.84705 0.86333 -0.33900
C 	C 	0.06930 0.85200 0.86536 0.06200
C 	C 	0.05580 0.82959 0.85608 -0.11800
H 	H 	0.03770 0.82760 0.85520 0.05600
C 	C 	0.07470 0.81079 0.84831 -0.05500
H 	H 	0.07120 0.79430 0.84150 0.02700
C 	C 	0.09988 0.82158 0.85280 -0.01400
C 	C 	0.12491 0.81141 0.84860 0.03300
N 	N 	0.15328 0.84717 0.86341 -0.33800
C 	C 	0.14980 0.82171 0.85290 -0.01300
C 	C 	0.17492 0.81078 0.84841 -0.05100
H 	H 	0.17830 0.79430 0.84160 0.03100
C 	C 	0.19393 0.82948 0.85614 -0.11200
H 	H 	0.21200 0.82740 0.85530 0.05900
C 	C 	0.18055 0.85197 0.86542 0.06900
C 	C 	0.01525 0.85970 0.89280 -0.21900
H 	H 	0.02430 0.84950 0.90480 0.08200
C 	C 	0.98807 0.85980 0.89270 0.11800
H 	H 	0.97890 0.84960 0.90470 -0.01400
O 	O 	0.93301 0.86070 0.89070 -0.53600
C 	C 	0.23441 0.88710 0.85480 -0.20300
H 	H 	0.22530 0.89520 0.84130 0.08400
C 	C 	0.26159 0.88720 0.85470 0.10400
H 	H 	0.27060 0.89530 0.84110 -0.00600
O 	O 	0.31687 0.88920 0.85910 -0.53100
C 	C 	0.12492 0.78435 0.83741 -0.44200
C 	C 	0.12200 0.78070 0.81065 0.59600
C 	C 	0.12200 0.75560 0.80028 -0.73100
H 	H 	0.12000 0.75310 0.78240 0.25700
C 	C 	0.12493 0.73410 0.81670 0.68900
C 	C 	0.12785 0.73776 0.84350 -0.73000
H 	H 	0.12980 0.72340 0.85440 0.24000
C 	C 	0.12784 0.76290 0.85383 0.58600
C 	C 	0.11883 0.80400 0.79282 -1.10100
H 	H 	0.11710 0.79810 0.77510 0.33400
H 	H 	0.13390 0.81510 0.79430 0.33300
H 	H 	0.10350 0.81360 0.79780 0.33600
C 	C 	0.12494 0.70680 0.80540 -1.20600
H 	H 	0.12280 0.70770 0.78680 0.36900
H 	H 	0.11080 0.69690 0.81290 0.35900
H 	H 	0.14130 0.69840 0.80940 0.35400
C 	C 	0.13101 0.76680 0.88291 -1.08100
H 	H 	0.13280 0.75020 0.89130 0.31800
H 	H 	0.11590 0.77570 0.88970 0.32100
H 	H 	0.14630 0.77720 0.88620 0.32700
Zn	Zn	0.62485 0.37930 0.86760 0.83700
N 	N 	0.59655 0.34705 0.86333 -0.33900
C 	C 	0.56930 0.35200 0.86536 0.06200
C 	C 	0.55580 0.32959 0.85608 -0.11800
H 	H 	0.53770 0.32760 0.85520 0.05600
C 	C 	0.57470 0.31079 0.84831 -0.05500
H 	H 	0.57120 0.29430 0.84150 0.02700
C 	C 	0.59988 0.32158 0.85280 -0.01400
C 	C 	0.62491 0.31141 0.84860 0.03300
N 	N 	0.65328 0.34717 0.86341 -0.33800
C 	C 	0.64980 0.32171 0.85290 -0.01300
C 	C 	0.67492 0.31078 0.84841 -0.05100
H 	H 	0.67830 0.29430 0.84160 0.03100
C 	C 	0.69393 0.32948 0.85614 -0.11200
H 	H 	0.71200 0.32740 0.85530 0.05900
C 	C 	0.68055 0.35197 0.86542 0.06900
C 	C 	0.51525 0.35970 0.89280 -0.21900
H 	H 	0.52430 0.34950 0.90480 0.08200
C 	C 	0.48807 0.35980 0.89270 0.11800
H 	H 	0.47890 0.34960 0.90470 -0.01400
O 	O 	0.43301 0.36070 0.89070 -0.53600
C 	C 	0.73441 0.38710 0.85480 -0.20300
H 	H 	0.72530 0.39520 0.84130 0.08400
C 	C 	0.76159 0.38720 0.85470 0.10400
H 	H 	0.77060 0.39530 0.84110 -0.00600
O 	O 	0.81687 0.38920 0.85910 -0.53100
C 	C 	0.62492 0.28435 0.83741 -0.44200
C 	C 	0.62200 0.28070 0.81065 0.59600
C 	C 	0.62200 0.25560 0.80028 -0.73100
H 	H 	0.62000 0.25310 0.78240 0.25700
C 	C 	0.62493 0.23410 0.81670 0.68900
C 	C 	0.62785 0.23776 0.84350 -0.73000
H 	H 	0.62980 0.22340 0.85440 0.24000
C 	C 	0.62784 0.26290 0.85383 0.58600
C 	C 	0.61883 0.30400 0.79282 -1.10100
H 	H 	0.61710 0.29810 0.77510 0.33400
H 	H 	0.63390 0.31510 0.79430 0.33300
H 	H 	0.60350 0.31360 0.79780 0.33600
C 	C 	0.62494 0.20680 0.80540 -1.20600
H 	H 	0.62280 0.20770 0.78680 0.36900
H 	H 	0.61080 0.19690 0.81290 0.35900
H 	H 	0.64130 0.19840 0.80940 0.35400
C 	C 	0.63101 0.26680 0.88291 -1.08100
H 	H 	0.63280 0.25020 0.89130 0.31800
H 	H 	0.61590 0.27570 0.88970 0.32100
H 	H 	0.64630 0.27720 0.88620 0.32700
Zn	Zn	0.62485 0.87930 0.36760 0.83700
N 	N 	0.59655 0.84705 0.36333 -0.33900
C 	C 	0.56930 0.85200 0.36536 0.06200
C 	C 	0.55580 0.82959 0.35608 -0.11800
H 	H 	0.53770 0.82760 0.35520 0.05600
C 	C 	0.57470 0.81079 0.34831 -0.05500
H 	H 	0.57120 0.79430 0.34150 0.02700
C 	C 	0.59988 0.82158 0.35280 -0.01400
C 	C 	0.62491 0.81141 0.34860 0.03300
N 	N 	0.65328 0.84717 0.36341 -0.33800
C 	C 	0.64980 0.82171 0.35290 -0.01300
C 	C 	0.67492 0.81078 0.34841 -0.05100
H 	H 	0.67830 0.79430 0.34160 0.03100
C 	C 	0.69393 0.82948 0.35614 -0.11200
H 	H 	0.71200 0.82740 0.35530 0.05900
C 	C 	0.68055 0.85197 0.36542 0.06900
C 	C 	0.51525 0.85970 0.39280 -0.21900
H 	H 	0.52430 0.84950 0.40480 0.08200
C 	C 	0.48807 0.85980 0.39270 0.11800
H 	H 	0.47890 0.84960 0.40470 -0.01400
O 	O 	0.43301 0.86070 0.39070 -0.53600
C 	C 	0.73441 0.88710 0.35480 -0.20300
H 	H 	0.72530 0.89520 0.34130 0.08400
C 	C 	0.76159 0.88720 0.35470 0.10400
H 	H 	0.77060 0.89530 0.34110 -0.00600
O 	O 	0.81687 0.88920 0.35910 -0.53100
C 	C 	0.62492 0.78435 0.33741 -0.44200
C 	C 	0.62200 0.78070 0.31065 0.59600
C 	C 	0.62200 0.75560 0.30028 -0.73100
H 	H 	0.62000 0.75310 0.28240 0.25700
C 	C 	0.62493 0.73410 0.31670 0.68900
C 	C 	0.62785 0.73776 0.34350 -0.73000
H 	H 	0.62980 0.72340 0.35440 0.24000
C 	C 	0.62784 0.76290 0.35383 0.58600
C 	C 	0.61883 0.80400 0.29282 -1.10100
H 	H 	0.61710 0.79810 0.27510 0.33400
H 	H 	0.63390 0.81510 0.29430 0.33300
H 	H 	0.60350 0.81360 0.29780 0.33600
C 	C 	0.62494 0.70680 0.30540 -1.20600
H 	H 	0.62280 0.70770 0.28680 0.36900
H 	H 	0.61080 0.69690 0.31290 0.35900
H 	H 	0.64130 0.69840 0.30940 0.35400
C 	C 	0.63101 0.76680 0.38291 -1.08100
H 	H 	0.63280 0.75020 0.39130 0.31800
H 	H 	0.61590 0.77570 0.38970 0.32100
H 	H 	0.64630 0.77720 0.38620 0.32700
Zn	Zn	0.12485 0.87070 0.88240 0.83700
N 	N 	0.09655 0.90295 0.88667 -0.33900
C 	C 	0.06930 0.89800 0.88464 0.06200
C 	C 	0.05580 0.92041 0.89392 -0.11800
H 	H 	0.03770 0.92240 0.89480 0.05600
C 	C 	0.07470 0.93921 0.90169 -0.05500
H 	H 	0.07120 0.95570 0.90850 0.02700
C 	C 	0.09988 0.92842 0.89720 -0.01400
C 	C 	0.12491 0.93859 0.90140 0.03300
N 	N 	0.15328 0.90283 0.88659 -0.33800
C 	C 	0.14980 0.92829 0.89710 -0.01300
C 	C 	0.17492 0.93922 0.90159 -0.05100
H 	H 	0.17830 0.95570 0.90840 0.03100
C 	C 	0.19393 0.92052 0.89386 -0.11200
H 	H 	0.21200 0.92260 0.89470 0.05900
C 	C 	0.18055 0.89803 0.88458 0.06900
C 	C 	0.01525 0.89030 0.85720 -0.21900
H 	H 	0.02430 0.90050 0.84520 0.08200
C 	C 	0.98807 0.89020 0.85730 0.11800
H 	H 	0.97890 0.90040 0.84530 -0.01400
O 	O 	0.93301 0.88930 0.85930 -0.53600
C 	C 	0.23441 0.86290 0.89520 -0.20300
H 	H 	0.22530 0.85480 0.90870 0.08400
C 	C 	0.26159 0.86280 0.89530 0.10400
H 	H 	0.27060 0.85470 0.90890 -0.00600
O 	O 	0.31687 0.86080 0.89090 -0.53100
C 	C 	0.12492 0.96565 0.91259 -0.44200
C 	C 	0.12200 0.96930 0.93935 0.59600
C 	C 	0.12200 0.99440 0.94972 -0.73100
H 	H 	0.12000 0.99690 0.96760 0.25700
C 	C 	0.12493 0.01590 0.93330 0.68900
C 	C 	0.12785 0.01224 0.90650 -0.73000
H 	H 	0.12980 0.02660 0.89560 0.24000
C 	C 	0.12784 0.98710 0.89617 0.58600
C 	C 	0.11883 0.94600 0.95718 -1.10100
H 	H 	0.11710 0.95190 0.97490 0.33400
H 	H 	0.13390 0.93490 0.95570 0.33300
H 	H 	0.10350 0.93640 0.95220 0.33600
C 	C 	0.12494 0.04320 0.94460 -1.20600
H 	H 	0.12280 0.04230 0.96320 0.36900
H 	H 	0.11080 0.05310 0.93710 0.35900
H 	H 	0.14130 0.05160 0.94060 0.35400
C 	C 	0.13101 0.98320 0.86709 -1.08100
H 	H 	0.13280 0.99980 0.85870 0.31800
H 	H 	0.11590 0.97430 0.86030 0.32100
H 	H 	0.14630 0.97280 0.86380 0.32700
Zn	Zn	0.12485 0.37070 0.38240 0.83700
N 	N 	0.09655 0.40295 0.38667 -0.33900
C 	C 	0.06930 0.39800 0.38464 0.06200
C 	C 	0.05580 0.42041 0.39392 -0.11800
H 	H 	0.03770 0.42240 0.39480 0.05600
C 	C 	0.07470 0.43921 0.40169 -0.05500
H 	H 	0.07120 0.45570 0.40850 0.02700
C 	C 	0.09988 0.42842 0.39720 -0.01400
C 	C 	0.12491 0.43859 0.40140 0.03300
N 	N 	0.15328 0.40283 0.38659 -0.33800
C 	C 	0.14980 0.42829 0.39710 -0.01300
C 	C 	0.17492 0.43922 0.40159 -0.05100
H 	H 	0.17830 0.45570 0.40840 0.03100
C 	C 	0.19393 0.42052 0.39386 -0.11200
H 	H 	0.21200 0.42260 0.39470 0.05900
C 	C 	0.18055 0.39803 0.38458 0.06900
C 	C 	0.01525 0.39030 0.35720 -0.21900
H 	H 	0.02430 0.40050 0.34520 0.08200
C 	C 	0.98807 0.39020 0.35730 0.11800
H 	H 	0.97890 0.40040 0.34530 -0.01400
O 	O 	0.93301 0.38930 0.35930 -0.53600
C 	C 	0.23441 0.36290 0.39520 -0.20300
H 	H 	0.22530 0.35480 0.40870 0.08400
C 	C 	0.26159 0.36280 0.39530 0.10400
H 	H 	0.27060 0.35470 0.40890 -0.00600
O 	O 	0.31687 0.36080 0.39090 -0.53100
C 	C 	0.12492 0.46565 0.41259 -0.44200
C 	C 	0.12200 0.46930 0.43935 0.59600
C 	C 	0.12200 0.49440 0.44972 -0.73100
H 	H 	0.12000 0.49690 0.46760 0.25700
C 	C 	0.12493 0.51590 0.43330 0.68900
C 	C 	0.12785 0.51224 0.40650 -0.73000
H 	H 	0.12980 0.52660 0.39560 0.24000
C 	C 	0.12784 0.48710 0.39617 0.58600
C 	C 	0.11883 0.44600 0.45718 -1.10100
H 	H 	0.11710 0.45190 0.47490 0.33400
H 	H 	0.13390 0.43490 0.45570 0.33300
H 	H 	0.10350 0.43640 0.45220 0.33600
C 	C 	0.12494 0.54320 0.44460 -1.20600
H 	H 	0.12280 0.54230 0.46320 0.36900
H 	H 	0.11080 0.55310 0.43710 0.35900
H 	H 	0.14130 0.55160 0.44060 0.35400
C 	C 	0.13101 0.48320 0.36709 -1.08100
H 	H 	0.13280 0.49980 0.35870 0.31800
H 	H 	0.11590 0.47430 0.36030 0.32100
H 	H 	0.14630 0.47280 0.36380 0.32700
Zn	Zn	0.62485 0.87070 0.38240 0.83700
N 	N 	0.59655 0.90295 0.38667 -0.33900
C 	C 	0.56930 0.89800 0.38464 0.06200
C 	C 	0.55580 0.92041 0.39392 -0.11800
H 	H 	0.53770 0.92240 0.39480 0.05600
C 	C 	0.57470 0.93921 0.40169 -0.05500
H 	H 	0.57120 0.95570 0.40850 0.02700
C 	C 	0.59988 0.92842 0.39720 -0.01400
C 	C 	0.62491 0.93859 0.40140 0.03300
N 	N 	0.65328 0.90283 0.38659 -0.33800
C 	C 	0.64980 0.92829 0.39710 -0.01300
C 	C 	0.67492 0.93922 0.40159 -0.05100
H 	H 	0.67830 0.95570 0.40840 0.03100
C 	C 	0.69393 0.92052 0.39386 -0.11200
H 	H 	0.71200 0.92260 0.39470 0.05900
C 	C 	0.68055 0.89803 0.38458 0.06900
C 	C 	0.51525 0.89030 0.35720 -0.21900
H 	H 	0.52430 0.90050 0.34520 0.08200
C 	C 	0.48807 0.89020 0.35730 0.11800
H 	H 	0.47890 0.90040 0.34530 -0.01400
O 	O 	0.43301 0.88930 0.35930 -0.53600
C 	C 	0.73441 0.86290 0.39520 -0.20300
H 	H 	0.72530 0.85480 0.40870 0.08400
C 	C 	0.76159 0.86280 0.39530 0.10400
H 	H 	0.77060 0.85470 0.40890 -0.00600
O 	O 	0.81687 0.86080 0.39090 -0.53100
C 	C 	0.62492 0.96565 0.41259 -0.44200
C 	C 	0.62200 0.96930 0.43935 0.59600
C 	C 	0.62200 0.99440 0.44972 -0.73100
H 	H 	0.62000 0.99690 0.46760 0.25700
C 	C 	0.62493 0.01590 0.43330 0.68900
C 	C 	0.62785 0.01224 0.40650 -0.73000
H 	H 	0.62980 0.02660 0.39560 0.24000
C 	C 	0.62784 0.98710 0.39617 0.58600
C 	C 	0.61883 0.94600 0.45718 -1.10100
H 	H 	0.61710 0.95190 0.47490 0.33400
H 	H 	0.63390 0.93490 0.45570 0.33300
H 	H 	0.60350 0.93640 0.45220 0.33600
C 	C 	0.62494 0.04320 0.44460 -1.20600
H 	H 	0.62280 0.04230 0.46320 0.36900
H 	H 	0.61080 0.05310 0.43710 0.35900
H 	H 	0.64130 0.05160 0.44060 0.35400
C 	C 	0.63101 0.98320 0.36709 -1.08100
H 	H 	0.63280 0.99980 0.35870 0.31800
H 	H 	0.61590 0.97430 0.36030 0.32100
H 	H 	0.64630 0.97280 0.36380 0.32700
Zn	Zn	0.62485 0.37070 0.88240 0.83700
N 	N 	0.59655 0.40295 0.88667 -0.33900
C 	C 	0.56930 0.39800 0.88464 0.06200
C 	C 	0.55580 0.42041 0.89392 -0.11800
H 	H 	0.53770 0.42240 0.89480 0.05600
C 	C 	0.57470 0.43921 0.90169 -0.05500
H 	H 	0.57120 0.45570 0.90850 0.02700
C 	C 	0.59988 0.42842 0.89720 -0.01400
C 	C 	0.62491 0.43859 0.90140 0.03300
N 	N 	0.65328 0.40283 0.88659 -0.33800
C 	C 	0.64980 0.42829 0.89710 -0.01300
C 	C 	0.67492 0.43922 0.90159 -0.05100
H 	H 	0.67830 0.45570 0.90840 0.03100
C 	C 	0.69393 0.42052 0.89386 -0.11200
H 	H 	0.71200 0.42260 0.89470 0.05900
C 	C 	0.68055 0.39803 0.88458 0.06900
C 	C 	0.51525 0.39030 0.85720 -0.21900
H 	H 	0.52430 0.40050 0.84520 0.08200
C 	C 	0.48807 0.39020 0.85730 0.11800
H 	H 	0.47890 0.40040 0.84530 -0.01400
O 	O 	0.43301 0.38930 0.85930 -0.53600
C 	C 	0.73441 0.36290 0.89520 -0.20300
H 	H 	0.72530 0.35480 0.90870 0.08400
C 	C 	0.76159 0.36280 0.89530 0.10400
H 	H 	0.77060 0.35470 0.90890 -0.00600
O 	O 	0.81687 0.36080 0.89090 -0.53100
C 	C 	0.62492 0.46565 0.91259 -0.44200
C 	C 	0.62200 0.46930 0.93935 0.59600
C 	C 	0.62200 0.49440 0.94972 -0.73100
H 	H 	0.62000 0.49690 0.96760 0.25700
C 	C 	0.62493 0.51590 0.93330 0.68900
C 	C 	0.62785 0.51224 0.90650 -0.73000
H 	H 	0.62980 0.52660 0.89560 0.24000
C 	C 	0.62784 0.48710 0.89617 0.58600
C 	C 	0.61883 0.44600 0.95718 -1.10100
H 	H 	0.61710 0.45190 0.97490 0.33400
H 	H 	0.63390 0.43490 0.95570 0.33300
H 	H 	0.60350 0.43640 0.95220 0.33600
C 	C 	0.62494 0.54320 0.94460 -1.20600
H 	H 	0.62280 0.54230 0.96320 0.36900
H 	H 	0.61080 0.55310 0.93710 0.35900
H 	H 	0.64130 0.55160 0.94060 0.35400
C 	C 	0.63101 0.48320 0.86709 -1.08100
H 	H 	0.63280 0.49980 0.85870 0.31800
H 	H 	0.61590 0.47430 0.86030 0.32100
H 	H 	0.64630 0.47280 0.86380 0.32700
Zn	Zn	0.12515 0.37930 0.88240 0.83700
N 	N 	0.15345 0.34705 0.88667 -0.33900
C 	C 	0.18070 0.35200 0.88464 0.06200
C 	C 	0.19420 0.32959 0.89392 -0.11800
H 	H 	0.21230 0.32760 0.89480 0.05600
C 	C 	0.17530 0.31079 0.90169 -0.05500
H 	H 	0.17880 0.29430 0.90850 0.02700
C 	C 	0.15012 0.32158 0.89720 -0.01400
C 	C 	0.12509 0.31141 0.90140 0.03300
N 	N 	0.09672 0.34717 0.88659 -0.33800
C 	C 	0.10020 0.32171 0.89710 -0.01300
C 	C 	0.07508 0.31078 0.90159 -0.05100
H 	H 	0.07170 0.29430 0.90840 0.03100
C 	C 	0.05607 0.32948 0.89386 -0.11200
H 	H 	0.03800 0.32740 0.89470 0.05900
C 	C 	0.06945 0.35197 0.88458 0.06900
C 	C 	0.23475 0.35970 0.85720 -0.21900
H 	H 	0.22570 0.34950 0.84520 0.08200
C 	C 	0.26193 0.35980 0.85730 0.11800
H 	H 	0.27110 0.34960 0.84530 -0.01400
O 	O 	0.31699 0.36070 0.85930 -0.53600
C 	C 	0.01559 0.38710 0.89520 -0.20300
H 	H 	0.02470 0.39520 0.90870 0.08400
C 	C 	0.98841 0.38720 0.89530 0.10400
H 	H 	0.97940 0.39530 0.90890 -0.00600
O 	O 	0.93313 0.38920 0.89090 -0.53100
C 	C 	0.12508 0.28435 0.91259 -0.44200
C 	C 	0.12800 0.28070 0.93935 0.59600
C 	C 	0.12800 0.25560 0.94972 -0.73100
H 	H 	0.13000 0.25310 0.96760 0.25700
C 	C 	0.12507 0.23410 0.93330 0.68900
C 	C 	0.12215 0.23776 0.90650 -0.73000
H 	H 	0.12020 0.22340 0.89560 0.24000
C 	C 	0.12216 0.26290 0.89617 0.58600
C 	C 	0.13117 0.30400 0.95718 -1.10100
H 	H 	0.13290 0.29810 0.97490 0.33400
H 	H 	0.11610 0.31510 0.95570 0.33300
H 	H 	0.14650 0.31360 0.95220 0.33600
C 	C 	0.12506 0.20680 0.94460 -1.20600
H 	H 	0.12720 0.20770 0.96320 0.36900
H 	H 	0.13920 0.19690 0.93710 0.35900
H 	H 	0.10870 0.19840 0.94060 0.35400
C 	C 	0.11899 0.26680 0.86709 -1.08100
H 	H 	0.11720 0.25020 0.85870 0.31800
H 	H 	0.13410 0.27570 0.86030 0.32100
H 	H 	0.10370 0.27720 0.86380 0.32700
Zn	Zn	0.12515 0.87930 0.38240 0.83700
N 	N 	0.15345 0.84705 0.38667 -0.33900
C 	C 	0.18070 0.85200 0.38464 0.06200
C 	C 	0.19420 0.82959 0.39392 -0.11800
H 	H 	0.21230 0.82760 0.39480 0.05600
C 	C 	0.17530 0.81079 0.40169 -0.05500
H 	H 	0.17880 0.79430 0.40850 0.02700
C 	C 	0.15012 0.82158 0.39720 -0.01400
C 	C 	0.12509 0.81141 0.40140 0.03300
N 	N 	0.09672 0.84717 0.38659 -0.33800
C 	C 	0.10020 0.82171 0.39710 -0.01300
C 	C 	0.07508 0.81078 0.40159 -0.05100
H 	H 	0.07170 0.79430 0.40840 0.03100
C 	C 	0.05607 0.82948 0.39386 -0.11200
H 	H 	0.03800 0.82740 0.39470 0.05900
C 	C 	0.06945 0.85197 0.38458 0.06900
C 	C 	0.23475 0.85970 0.35720 -0.21900
H 	H 	0.22570 0.84950 0.34520 0.08200
C 	C 	0.26193 0.85980 0.35730 0.11800
H 	H 	0.27110 0.84960 0.34530 -0.01400
O 	O 	0.31699 0.86070 0.35930 -0.53600
C 	C 	0.01559 0.88710 0.39520 -0.20300
H 	H 	0.02470 0.89520 0.40870 0.08400
C 	C 	0.98841 0.88720 0.39530 0.10400
H 	H 	0.97940 0.89530 0.40890 -0.00600
O 	O 	0.93313 0.88920 0.39090 -0.53100
C 	C 	0.12508 0.78435 0.41259 -0.44200
C 	C 	0.12800 0.78070 0.43935 0.59600
C 	C 	0.12800 0.75560 0.44972 -0.73100
H 	H 	0.13000 0.75310 0.46760 0.25700
C 	C 	0.12507 0.73410 0.43330 0.68900
C 	C 	0.12215 0.73776 0.40650 -0.73000
H 	H 	0.12020 0.72340 0.39560 0.24000
C 	C 	0.12216 0.76290 0.39617 0.58600
C 	C 	0.13117 0.80400 0.45718 -1.10100
H 	H 	0.13290 0.79810 0.47490 0.33400
H 	H 	0.11610 0.81510 0.45570 0.33300
H 	H 	0.14650 0.81360 0.45220 0.33600
C 	C 	0.12506 0.70680 0.44460 -1.20600
H 	H 	0.12720 0.70770 0.46320 0.36900
H 	H 	0.13920 0.69690 0.43710 0.35900
H 	H 	0.10870 0.69840 0.44060 0.35400
C 	C 	0.11899 0.76680 0.36709 -1.08100
H 	H 	0.11720 0.75020 0.35870 0.31800
H 	H 	0.13410 0.77570 0.36030 0.32100
H 	H 	0.10370 0.77720 0.36380 0.32700
Zn	Zn	0.62515 0.37930 0.38240 0.83700
N 	N 	0.65345 0.34705 0.38667 -0.33900
C 	C 	0.68070 0.35200 0.38464 0.06200
C 	C 	0.69420 0.32959 0.39392 -0.11800
H 	H 	0.71230 0.32760 0.39480 0.05600
C 	C 	0.67530 0.31079 0.40169 -0.05500
H 	H 	0.67880 0.29430 0.40850 0.02700
C 	C 	0.65012 0.32158 0.39720 -0.01400
C 	C 	0.62509 0.31141 0.40140 0.03300
N 	N 	0.59672 0.34717 0.38659 -0.33800
C 	C 	0.60020 0.32171 0.39710 -0.01300
C 	C 	0.57508 0.31078 0.40159 -0.05100
H 	H 	0.57170 0.29430 0.40840 0.03100
C 	C 	0.55607 0.32948 0.39386 -0.11200
H 	H 	0.53800 0.32740 0.39470 0.05900
C 	C 	0.56945 0.35197 0.38458 0.06900
C 	C 	0.73475 0.35970 0.35720 -0.21900
H 	H 	0.72570 0.34950 0.34520 0.08200
C 	C 	0.76193 0.35980 0.35730 0.11800
H 	H 	0.77110 0.34960 0.34530 -0.01400
O 	O 	0.81699 0.36070 0.35930 -0.53600
C 	C 	0.51559 0.38710 0.39520 -0.20300
H 	H 	0.52470 0.39520 0.40870 0.08400
C 	C 	0.48841 0.38720 0.39530 0.10400
H 	H 	0.47940 0.39530 0.40890 -0.00600
O 	O 	0.43313 0.38920 0.39090 -0.53100
C 	C 	0.62508 0.28435 0.41259 -0.44200
C 	C 	0.62800 0.28070 0.43935 0.59600
C 	C 	0.62800 0.25560 0.44972 -0.73100
H 	H 	0.63000 0.25310 0.46760 0.25700
C 	C 	0.62507 0.23410 0.43330 0.68900
C 	C 	0.62215 0.23776 0.40650 -0.73000
H 	H 	0.62020 0.22340 0.39560 0.24000
C 	C 	0.62216 0.26290 0.39617 0.58600
C 	C 	0.63117 0.30400 0.45718 -1.10100
H 	H 	0.63290 0.29810 0.47490 0.33400
H 	H 	0.61610 0.31510 0.45570 0.33300
H 	H 	0.64650 0.31360 0.45220 0.33600
C 	C 	0.62506 0.20680 0.44460 -1.20600
H 	H 	0.62720 0.20770 0.46320 0.36900
H 	H 	0.63920 0.19690 0.43710 0.35900
H 	H 	0.60870 0.19840 0.44060 0.35400
C 	C 	0.61899 0.26680 0.36709 -1.08100
H 	H 	0.61720 0.25020 0.35870 0.31800
H 	H 	0.63410 0.27570 0.36030 0.32100
H 	H 	0.60370 0.27720 0.36380 0.32700
Zn	Zn	0.62515 0.87930 0.88240 0.83700
N 	N 	0.65345 0.84705 0.88667 -0.33900
C 	C 	0.68070 0.85200 0.88464 0.06200
C 	C 	0.69420 0.82959 0.89392 -0.11800
H 	H 	0.71230 0.82760 0.89480 0.05600
C 	C 	0.67530 0.81079 0.90169 -0.05500
H 	H 	0.67880 0.79430 0.90850 0.02700
C 	C 	0.65012 0.82158 0.89720 -0.01400
C 	C 	0.62509 0.81141 0.90140 0.03300
N 	N 	0.59672 0.84717 0.88659 -0.33800
C 	C 	0.60020 0.82171 0.89710 -0.01300
C 	C 	0.57508 0.81078 0.90159 -0.05100
H 	H 	0.57170 0.79430 0.90840 0.03100
C 	C 	0.55607 0.82948 0.89386 -0.11200
H 	H 	0.53800 0.82740 0.89470 0.05900
C 	C 	0.56945 0.85197 0.88458 0.06900
C 	C 	0.73475 0.85970 0.85720 -0.21900
H 	H 	0.72570 0.84950 0.84520 0.08200
C 	C 	0.76193 0.85980 0.85730 0.11800
H 	H 	0.77110 0.84960 0.84530 -0.01400
O 	O 	0.81699 0.86070 0.85930 -0.53600
C 	C 	0.51559 0.88710 0.89520 -0.20300
H 	H 	0.52470 0.89520 0.90870 0.08400
C 	C 	0.48841 0.88720 0.89530 0.10400
H 	H 	0.47940 0.89530 0.90890 -0.00600
O 	O 	0.43313 0.88920 0.89090 -0.53100
C 	C 	0.62508 0.78435 0.91259 -0.44200
C 	C 	0.62800 0.78070 0.93935 0.59600
C 	C 	0.62800 0.75560 0.94972 -0.73100
H 	H 	0.63000 0.75310 0.96760 0.25700
C 	C 	0.62507 0.73410 0.93330 0.68900
C 	C 	0.62215 0.73776 0.90650 -0.73000
H 	H 	0.62020 0.72340 0.89560 0.24000
C 	C 	0.62216 0.76290 0.89617 0.58600
C 	C 	0.63117 0.80400 0.95718 -1.10100
H 	H 	0.63290 0.79810 0.97490 0.33400
H 	H 	0.61610 0.81510 0.95570 0.33300
H 	H 	0.64650 0.81360 0.95220 0.33600
C 	C 	0.62506 0.70680 0.94460 -1.20600
H 	H 	0.62720 0.70770 0.96320 0.36900
H 	H 	0.63920 0.69690 0.93710 0.35900
H 	H 	0.60870 0.69840 0.94060 0.35400
C 	C 	0.61899 0.76680 0.86709 -1.08100
H 	H 	0.61720 0.75020 0.85870 0.31800
H 	H 	0.63410 0.77570 0.86030 0.32100
H 	H 	0.60370 0.77720 0.86380 0.32700
Zn	Zn	0.36760 0.12515 0.87070 0.83700
N 	N 	0.36333 0.15345 0.90295 -0.33900
C 	C 	0.36536 0.18070 0.89800 0.06200
C 	C 	0.35608 0.19420 0.92041 -0.11800
H 	H 	0.35520 0.21230 0.92240 0.05600
C 	C 	0.34831 0.17530 0.93921 -0.05500
H 	H 	0.34150 0.17880 0.95570 0.02700
C 	C 	0.35280 0.15012 0.92842 -0.01400
C 	C 	0.34860 0.12509 0.93859 0.03300
N 	N 	0.36341 0.09672 0.90283 -0.33800
C 	C 	0.35290 0.10020 0.92829 -0.01300
C 	C 	0.34841 0.07508 0.93922 -0.05100
H 	H 	0.34160 0.07170 0.95570 0.03100
C 	C 	0.35614 0.05607 0.92052 -0.11200
H 	H 	0.35530 0.03800 0.92260 0.05900
C 	C 	0.36542 0.06945 0.89803 0.06900
C 	C 	0.39280 0.23475 0.89030 -0.21900
H 	H 	0.40480 0.22570 0.90050 0.08200
C 	C 	0.39270 0.26193 0.89020 0.11800
H 	H 	0.40470 0.27110 0.90040 -0.01400
O 	O 	0.39070 0.31699 0.88930 -0.53600
C 	C 	0.35480 0.01559 0.86290 -0.20300
H 	H 	0.34130 0.02470 0.85480 0.08400
C 	C 	0.35470 0.98841 0.86280 0.10400
H 	H 	0.34110 0.97940 0.85470 -0.00600
O 	O 	0.35910 0.93313 0.86080 -0.53100
C 	C 	0.33741 0.12508 0.96565 -0.44200
C 	C 	0.31065 0.12800 0.96930 0.59600
C 	C 	0.30028 0.12800 0.99440 -0.73100
H 	H 	0.28240 0.13000 0.99690 0.25700
C 	C 	0.31670 0.12507 0.01590 0.68900
C 	C 	0.34350 0.12215 0.01224 -0.73000
H 	H 	0.35440 0.12020 0.02660 0.24000
C 	C 	0.35383 0.12216 0.98710 0.58600
C 	C 	0.29282 0.13117 0.94600 -1.10100
H 	H 	0.27510 0.13290 0.95190 0.33400
H 	H 	0.29430 0.11610 0.93490 0.33300
H 	H 	0.29780 0.14650 0.93640 0.33600
C 	C 	0.30540 0.12506 0.04320 -1.20600
H 	H 	0.28680 0.12720 0.04230 0.36900
H 	H 	0.31290 0.13920 0.05310 0.35900
H 	H 	0.30940 0.10870 0.05160 0.35400
C 	C 	0.38291 0.11899 0.98320 -1.08100
H 	H 	0.39130 0.11720 0.99980 0.31800
H 	H 	0.38970 0.13410 0.97430 0.32100
H 	H 	0.38620 0.10370 0.97280 0.32700
Zn	Zn	0.36760 0.62515 0.37070 0.83700
N 	N 	0.36333 0.65345 0.40295 -0.33900
C 	C 	0.36536 0.68070 0.39800 0.06200
C 	C 	0.35608 0.69420 0.42041 -0.11800
H 	H 	0.35520 0.71230 0.42240 0.05600
C 	C 	0.34831 0.67530 0.43921 -0.05500
H 	H 	0.34150 0.67880 0.45570 0.02700
C 	C 	0.35280 0.65012 0.42842 -0.01400
C 	C 	0.34860 0.62509 0.43859 0.03300
N 	N 	0.36341 0.59672 0.40283 -0.33800
C 	C 	0.35290 0.60020 0.42829 -0.01300
C 	C 	0.34841 0.57508 0.43922 -0.05100
H 	H 	0.34160 0.57170 0.45570 0.03100
C 	C 	0.35614 0.55607 0.42052 -0.11200
H 	H 	0.35530 0.53800 0.42260 0.05900
C 	C 	0.36542 0.56945 0.39803 0.06900
C 	C 	0.39280 0.73475 0.39030 -0.21900
H 	H 	0.40480 0.72570 0.40050 0.08200
C 	C 	0.39270 0.76193 0.39020 0.11800
H 	H 	0.40470 0.77110 0.40040 -0.01400
O 	O 	0.39070 0.81699 0.38930 -0.53600
C 	C 	0.35480 0.51559 0.36290 -0.20300
H 	H 	0.34130 0.52470 0.35480 0.08400
C 	C 	0.35470 0.48841 0.36280 0.10400
H 	H 	0.34110 0.47940 0.35470 -0.00600
O 	O 	0.35910 0.43313 0.36080 -0.53100
C 	C 	0.33741 0.62508 0.46565 -0.44200
C 	C 	0.31065 0.62800 0.46930 0.59600
C 	C 	0.30028 0.62800 0.49440 -0.73100
H 	H 	0.28240 0.63000 0.49690 0.25700
C 	C 	0.31670 0.62507 0.51590 0.68900
C 	C 	0.34350 0.62215 0.51224 -0.73000
H 	H 	0.35440 0.62020 0.52660 0.24000
C 	C 	0.35383 0.62216 0.48710 0.58600
C 	C 	0.29282 0.63117 0.44600 -1.10100
H 	H 	0.27510 0.63290 0.45190 0.33400
H 	H 	0.29430 0.61610 0.43490 0.33300
H 	H 	0.29780 0.64650 0.43640 0.33600
C 	C 	0.30540 0.62506 0.54320 -1.20600
H 	H 	0.28680 0.62720 0.54230 0.36900
H 	H 	0.31290 0.63920 0.55310 0.35900
H 	H 	0.30940 0.60870 0.55160 0.35400
C 	C 	0.38291 0.61899 0.48320 -1.08100
H 	H 	0.39130 0.61720 0.49980 0.31800
H 	H 	0.38970 0.63410 0.47430 0.32100
H 	H 	0.38620 0.60370 0.47280 0.32700
Zn	Zn	0.86760 0.12515 0.37070 0.83700
N 	N 	0.86333 0.15345 0.40295 -0.33900
C 	C 	0.86536 0.18070 0.39800 0.06200
C 	C 	0.85608 0.19420 0.42041 -0.11800
H 	H 	0.85520 0.21230 0.42240 0.05600
C 	C 	0.84831 0.17530 0.43921 -0.05500
H 	H 	0.84150 0.17880 0.45570 0.02700
C 	C 	0.85280 0.15012 0.42842 -0.01400
C 	C 	0.84860 0.12509 0.43859 0.03300
N 	N 	0.86341 0.09672 0.40283 -0.33800
C 	C 	0.85290 0.10020 0.42829 -0.01300
C 	C 	0.84841 0.07508 0.43922 -0.05100
H 	H 	0.84160 0.07170 0.45570 0.03100
C 	C 	0.85614 0.05607 0.42052 -0.11200
H 	H 	0.85530 0.03800 0.42260 0.05900
C 	C 	0.86542 0.06945 0.39803 0.06900
C 	C 	0.89280 0.23475 0.39030 -0.21900
H 	H 	0.90480 0.22570 0.40050 0.08200
C 	C 	0.89270 0.26193 0.39020 0.11800
H 	H 	0.90470 0.27110 0.40040 -0.01400
O 	O 	0.89070 0.31699 0.38930 -0.53600
C 	C 	0.85480 0.01559 0.36290 -0.20300
H 	H 	0.84130 0.02470 0.35480 0.08400
C 	C 	0.85470 0.98841 0.36280 0.10400
H 	H 	0.84110 0.97940 0.35470 -0.00600
O 	O 	0.85910 0.93313 0.36080 -0.53100
C 	C 	0.83741 0.12508 0.46565 -0.44200
C 	C 	0.81065 0.12800 0.46930 0.59600
C 	C 	0.80028 0.12800 0.49440 -0.73100
H 	H 	0.78240 0.13000 0.49690 0.25700
C 	C 	0.81670 0.12507 0.51590 0.68900
C 	C 	0.84350 0.12215 0.51224 -0.73000
H 	H 	0.85440 0.12020 0.52660 0.24000
C 	C 	0.85383 0.12216 0.48710 0.58600
C 	C 	0.79282 0.13117 0.44600 -1.10100
H 	H 	0.77510 0.13290 0.45190 0.33400
H 	H 	0.79430 0.11610 0.43490 0.33300
H 	H 	0.79780 0.14650 0.43640 0.33600
C 	C 	0.80540 0.12506 0.54320 -1.20600
H 	H 	0.78680 0.12720 0.54230 0.36900
H 	H 	0.81290 0.13920 0.55310 0.35900
H 	H 	0.80940 0.10870 0.55160 0.35400
C 	C 	0.88291 0.11899 0.48320 -1.08100
H 	H 	0.89130 0.11720 0.49980 0.31800
H 	H 	0.88970 0.13410 0.47430 0.32100
H 	H 	0.88620 0.10370 0.47280 0.32700
Zn	Zn	0.86760 0.62515 0.87070 0.83700
N 	N 	0.86333 0.65345 0.90295 -0.33900
C 	C 	0.86536 0.68070 0.89800 0.06200
C 	C 	0.85608 0.69420 0.92041 -0.11800
H 	H 	0.85520 0.71230 0.92240 0.05600
C 	C 	0.84831 0.67530 0.93921 -0.05500
H 	H 	0.84150 0.67880 0.95570 0.02700
C 	C 	0.85280 0.65012 0.92842 -0.01400
C 	C 	0.84860 0.62509 0.93859 0.03300
N 	N 	0.86341 0.59672 0.90283 -0.33800
C 	C 	0.85290 0.60020 0.92829 -0.01300
C 	C 	0.84841 0.57508 0.93922 -0.05100
H 	H 	0.84160 0.57170 0.95570 0.03100
C 	C 	0.85614 0.55607 0.92052 -0.11200
H 	H 	0.85530 0.53800 0.92260 0.05900
C 	C 	0.86542 0.56945 0.89803 0.06900
C 	C 	0.89280 0.73475 0.89030 -0.21900
H 	H 	0.90480 0.72570 0.90050 0.08200
C 	C 	0.89270 0.76193 0.89020 0.11800
H 	H 	0.90470 0.77110 0.90040 -0.01400
O 	O 	0.89070 0.81699 0.88930 -0.53600
C 	C 	0.85480 0.51559 0.86290 -0.20300
H 	H 	0.84130 0.52470 0.85480 0.08400
C 	C 	0.85470 0.48841 0.86280 0.10400
H 	H 	0.84110 0.47940 0.85470 -0.00600
O 	O 	0.85910 0.43313 0.86080 -0.53100
C 	C 	0.83741 0.62508 0.96565 -0.44200
C 	C 	0.81065 0.62800 0.96930 0.59600
C 	C 	0.80028 0.62800 0.99440 -0.73100
H 	H 	0.78240 0.63000 0.99690 0.25700
C 	C 	0.81670 0.62507 0.01590 0.68900
C 	C 	0.84350 0.62215 0.01224 -0.73000
H 	H 	0.85440 0.62020 0.02660 0.24000
C 	C 	0.85383 0.62216 0.98710 0.58600
C 	C 	0.79282 0.63117 0.94600 -1.10100
H 	H 	0.77510 0.63290 0.95190 0.33400
H 	H 	0.79430 0.61610 0.93490 0.33300
H 	H 	0.79780 0.64650 0.93640 0.33600
C 	C 	0.80540 0.62506 0.04320 -1.20600
H 	H 	0.78680 0.62720 0.04230 0.36900
H 	H 	0.81290 0.63920 0.05310 0.35900
H 	H 	0.80940 0.60870 0.05160 0.35400
C 	C 	0.88291 0.61899 0.98320 -1.08100
H 	H 	0.89130 0.61720 0.99980 0.31800
H 	H 	0.88970 0.63410 0.97430 0.32100
H 	H 	0.88620 0.60370 0.97280 0.32700
Zn	Zn	0.36760 0.12485 0.37930 0.83700
N 	N 	0.36333 0.09655 0.34705 -0.33900
C 	C 	0.36536 0.06930 0.35200 0.06200
C 	C 	0.35608 0.05580 0.32959 -0.11800
H 	H 	0.35520 0.03770 0.32760 0.05600
C 	C 	0.34831 0.07470 0.31079 -0.05500
H 	H 	0.34150 0.07120 0.29430 0.02700
C 	C 	0.35280 0.09988 0.32158 -0.01400
C 	C 	0.34860 0.12491 0.31141 0.03300
N 	N 	0.36341 0.15328 0.34717 -0.33800
C 	C 	0.35290 0.14980 0.32171 -0.01300
C 	C 	0.34841 0.17492 0.31078 -0.05100
H 	H 	0.34160 0.17830 0.29430 0.03100
C 	C 	0.35614 0.19393 0.32948 -0.11200
H 	H 	0.35530 0.21200 0.32740 0.05900
C 	C 	0.36542 0.18055 0.35197 0.06900
C 	C 	0.39280 0.01525 0.35970 -0.21900
H 	H 	0.40480 0.02430 0.34950 0.08200
C 	C 	0.39270 0.98807 0.35980 0.11800
H 	H 	0.40470 0.97890 0.34960 -0.01400
O 	O 	0.39070 0.93301 0.36070 -0.53600
C 	C 	0.35480 0.23441 0.38710 -0.20300
H 	H 	0.34130 0.22530 0.39520 0.08400
C 	C 	0.35470 0.26159 0.38720 0.10400
H 	H 	0.34110 0.27060 0.39530 -0.00600
O 	O 	0.35910 0.31687 0.38920 -0.53100
C 	C 	0.33741 0.12492 0.28435 -0.44200
C 	C 	0.31065 0.12200 0.28070 0.59600
C 	C 	0.30028 0.12200 0.25560 -0.73100
H 	H 	0.28240 0.12000 0.25310 0.25700
C 	C 	0.31670 0.12493 0.23410 0.68900
C 	C 	0.34350 0.12785 0.23776 -0.73000
H 	H 	0.35440 0.12980 0.22340 0.24000
C 	C 	0.35383 0.12784 0.26290 0.58600
C 	C 	0.29282 0.11883 0.30400 -1.10100
H 	H 	0.27510 0.11710 0.29810 0.33400
H 	H 	0.29430 0.13390 0.31510 0.33300
H 	H 	0.29780 0.10350 0.31360 0.33600
C 	C 	0.30540 0.12494 0.20680 -1.20600
H 	H 	0.28680 0.12280 0.20770 0.36900
H 	H 	0.31290 0.11080 0.19690 0.35900
H 	H 	0.30940 0.14130 0.19840 0.35400
C 	C 	0.38291 0.13101 0.26680 -1.08100
H 	H 	0.39130 0.13280 0.25020 0.31800
H 	H 	0.38970 0.11590 0.27570 0.32100
H 	H 	0.38620 0.14630 0.27720 0.32700
Zn	Zn	0.36760 0.62485 0.87930 0.83700
N 	N 	0.36333 0.59655 0.84705 -0.33900
C 	C 	0.36536 0.56930 0.85200 0.06200
C 	C 	0.35608 0.55580 0.82959 -0.11800
H 	H 	0.35520 0.53770 0.82760 0.05600
C 	C 	0.34831 0.57470 0.81079 -0.05500
H 	H 	0.34150 0.57120 0.79430 0.02700
C 	C 	0.35280 0.59988 0.82158 -0.01400
C 	C 	0.34860 0.62491 0.81141 0.03300
N 	N 	0.36341 0.65328 0.84717 -0.33800
C 	C 	0.35290 0.64980 0.82171 -0.01300
C 	C 	0.34841 0.67492 0.81078 -0.05100
H 	H 	0.34160 0.67830 0.79430 0.03100
C 	C 	0.35614 0.69393 0.82948 -0.11200
H 	H 	0.35530 0.71200 0.82740 0.05900
C 	C 	0.36542 0.68055 0.85197 0.06900
C 	C 	0.39280 0.51525 0.85970 -0.21900
H 	H 	0.40480 0.52430 0.84950 0.08200
C 	C 	0.39270 0.48807 0.85980 0.11800
H 	H 	0.40470 0.47890 0.84960 -0.01400
O 	O 	0.39070 0.43301 0.86070 -0.53600
C 	C 	0.35480 0.73441 0.88710 -0.20300
H 	H 	0.34130 0.72530 0.89520 0.08400
C 	C 	0.35470 0.76159 0.88720 0.10400
H 	H 	0.34110 0.77060 0.89530 -0.00600
O 	O 	0.35910 0.81687 0.88920 -0.53100
C 	C 	0.33741 0.62492 0.78435 -0.44200
C 	C 	0.31065 0.62200 0.78070 0.59600
C 	C 	0.30028 0.62200 0.75560 -0.73100
H 	H 	0.28240 0.62000 0.75310 0.25700
C 	C 	0.31670 0.62493 0.73410 0.68900
C 	C 	0.34350 0.62785 0.73776 -0.73000
H 	H 	0.35440 0.62980 0.72340 0.24000
C 	C 	0.35383 0.62784 0.76290 0.58600
C 	C 	0.29282 0.61883 0.80400 -1.10100
H 	H 	0.27510 0.61710 0.79810 0.33400
H 	H 	0.29430 0.63390 0.81510 0.33300
H 	H 	0.29780 0.60350 0.81360 0.33600
C 	C 	0.30540 0.62494 0.70680 -1.20600
H 	H 	0.28680 0.62280 0.70770 0.36900
H 	H 	0.31290 0.61080 0.69690 0.35900
H 	H 	0.30940 0.64130 0.69840 0.35400
C 	C 	0.38291 0.63101 0.76680 -1.08100
H 	H 	0.39130 0.63280 0.75020 0.31800
H 	H 	0.38970 0.61590 0.77570 0.32100
H 	H 	0.38620 0.64630 0.77720 0.32700
Zn	Zn	0.86760 0.12485 0.87930 0.83700
N 	N 	0.86333 0.09655 0.84705 -0.33900
C 	C 	0.86536 0.06930 0.85200 0.06200
C 	C 	0.85608 0.05580 0.82959 -0.11800
H 	H 	0.85520 0.03770 0.82760 0.05600
C 	C 	0.84831 0.07470 0.81079 -0.05500
H 	H 	0.84150 0.07120 0.79430 0.02700
C 	C 	0.85280 0.09988 0.82158 -0.01400
C 	C 	0.84860 0.12491 0.81141 0.03300
N 	N 	0.86341 0.15328 0.84717 -0.33800
C 	C 	0.85290 0.14980 0.82171 -0.01300
C 	C 	0.84841 0.17492 0.81078 -0.05100
H 	H 	0.84160 0.17830 0.79430 0.03100
C 	C 	0.85614 0.19393 0.82948 -0.11200
H 	H 	0.85530 0.21200 0.82740 0.05900
C 	C 	0.86542 0.18055 0.85197 0.06900
C 	C 	0.89280 0.01525 0.85970 -0.21900
H 	H 	0.90480 0.02430 0.84950 0.08200
C 	C 	0.89270 0.98807 0.85980 0.11800
H 	H 	0.90470 0.97890 0.84960 -0.01400
O 	O 	0.89070 0.93301 0.86070 -0.53600
C 	C 	0.85480 0.23441 0.88710 -0.20300
H 	H 	0.84130 0.22530 0.89520 0.08400
C 	C 	0.85470 0.26159 0.88720 0.10400
H 	H 	0.84110 0.27060 0.89530 -0.00600
O 	O 	0.85910 0.31687 0.88920 -0.53100
C 	C 	0.83741 0.12492 0.78435 -0.44200
C 	C 	0.81065 0.12200 0.78070 0.59600
C 	C 	0.80028 0.12200 0.75560 -0.73100
H 	H 	0.78240 0.12000 0.75310 0.25700
C 	C 	0.81670 0.12493 0.73410 0.68900
C 	C 	0.84350 0.12785 0.73776 -0.73000
H 	H 	0.85440 0.12980 0.72340 0.24000
C 	C 	0.85383 0.12784 0.76290 0.58600
C 	C 	0.79282 0.11883 0.80400 -1.10100
H 	H 	0.77510 0.11710 0.79810 0.33400
H 	H 	0.79430 0.13390 0.81510 0.33300
H 	H 	0.79780 0.10350 0.81360 0.33600
C 	C 	0.80540 0.12494 0.70680 -1.20600
H 	H 	0.78680 0.12280 0.70770 0.36900
H 	H 	0.81290 0.11080 0.69690 0.35900
H 	H 	0.80940 0.14130 0.69840 0.35400
C 	C 	0.88291 0.13101 0.76680 -1.08100
H 	H 	0.89130 0.13280 0.75020 0.31800
H 	H 	0.88970 0.11590 0.77570 0.32100
H 	H 	0.88620 0.14630 0.77720 0.32700
Zn	Zn	0.86760 0.62485 0.37930 0.83700
N 	N 	0.86333 0.59655 0.34705 -0.33900
C 	C 	0.86536 0.56930 0.35200 0.06200
C 	C 	0.85608 0.55580 0.32959 -0.11800
H 	H 	0.85520 0.53770 0.32760 0.05600
C 	C 	0.84831 0.57470 0.31079 -0.05500
H 	H 	0.84150 0.57120 0.29430 0.02700
C 	C 	0.85280 0.59988 0.32158 -0.01400
C 	C 	0.84860 0.62491 0.31141 0.03300
N 	N 	0.86341 0.65328 0.34717 -0.33800
C 	C 	0.85290 0.64980 0.32171 -0.01300
C 	C 	0.84841 0.67492 0.31078 -0.05100
H 	H 	0.84160 0.67830 0.29430 0.03100
C 	C 	0.85614 0.69393 0.32948 -0.11200
H 	H 	0.85530 0.71200 0.32740 0.05900
C 	C 	0.86542 0.68055 0.35197 0.06900
C 	C 	0.89280 0.51525 0.35970 -0.21900
H 	H 	0.90480 0.52430 0.34950 0.08200
C 	C 	0.89270 0.48807 0.35980 0.11800
H 	H 	0.90470 0.47890 0.34960 -0.01400
O 	O 	0.89070 0.43301 0.36070 -0.53600
C 	C 	0.85480 0.73441 0.38710 -0.20300
H 	H 	0.84130 0.72530 0.39520 0.08400
C 	C 	0.85470 0.76159 0.38720 0.10400
H 	H 	0.84110 0.77060 0.39530 -0.00600
O 	O 	0.85910 0.81687 0.38920 -0.53100
C 	C 	0.83741 0.62492 0.28435 -0.44200
C 	C 	0.81065 0.62200 0.28070 0.59600
C 	C 	0.80028 0.62200 0.25560 -0.73100
H 	H 	0.78240 0.62000 0.25310 0.25700
C 	C 	0.81670 0.62493 0.23410 0.68900
C 	C 	0.84350 0.62785 0.23776 -0.73000
H 	H 	0.85440 0.62980 0.22340 0.24000
C 	C 	0.85383 0.62784 0.26290 0.58600
C 	C 	0.79282 0.61883 0.30400 -1.10100
H 	H 	0.77510 0.61710 0.29810 0.33400
H 	H 	0.79430 0.63390 0.31510 0.33300
H 	H 	0.79780 0.60350 0.31360 0.33600
C 	C 	0.80540 0.62494 0.20680 -1.20600
H 	H 	0.78680 0.62280 0.20770 0.36900
H 	H 	0.81290 0.61080 0.19690 0.35900
H 	H 	0.80940 0.64130 0.19840 0.35400
C 	C 	0.88291 0.63101 0.26680 -1.08100
H 	H 	0.89130 0.63280 0.25020 0.31800
H 	H 	0.88970 0.61590 0.27570 0.32100
H 	H 	0.88620 0.64630 0.27720 0.32700
Zn	Zn	0.88240 0.12485 0.87070 0.83700
N 	N 	0.88667 0.09655 0.90295 -0.33900
C 	C 	0.88464 0.06930 0.89800 0.06200
C 	C 	0.89392 0.05580 0.92041 -0.11800
H 	H 	0.89480 0.03770 0.92240 0.05600
C 	C 	0.90169 0.07470 0.93921 -0.05500
H 	H 	0.90850 0.07120 0.95570 0.02700
C 	C 	0.89720 0.09988 0.92842 -0.01400
C 	C 	0.90140 0.12491 0.93859 0.03300
N 	N 	0.88659 0.15328 0.90283 -0.33800
C 	C 	0.89710 0.14980 0.92829 -0.01300
C 	C 	0.90159 0.17492 0.93922 -0.05100
H 	H 	0.90840 0.17830 0.95570 0.03100
C 	C 	0.89386 0.19393 0.92052 -0.11200
H 	H 	0.89470 0.21200 0.92260 0.05900
C 	C 	0.88458 0.18055 0.89803 0.06900
C 	C 	0.85720 0.01525 0.89030 -0.21900
H 	H 	0.84520 0.02430 0.90050 0.08200
C 	C 	0.85730 0.98807 0.89020 0.11800
H 	H 	0.84530 0.97890 0.90040 -0.01400
O 	O 	0.85930 0.93301 0.88930 -0.53600
C 	C 	0.89520 0.23441 0.86290 -0.20300
H 	H 	0.90870 0.22530 0.85480 0.08400
C 	C 	0.89530 0.26159 0.86280 0.10400
H 	H 	0.90890 0.27060 0.85470 -0.00600
O 	O 	0.89090 0.31687 0.86080 -0.53100
C 	C 	0.91259 0.12492 0.96565 -0.44200
C 	C 	0.93935 0.12200 0.96930 0.59600
C 	C 	0.94972 0.12200 0.99440 -0.73100
H 	H 	0.96760 0.12000 0.99690 0.25700
C 	C 	0.93330 0.12493 0.01590 0.68900
C 	C 	0.90650 0.12785 0.01224 -0.73000
H 	H 	0.89560 0.12980 0.02660 0.24000
C 	C 	0.89617 0.12784 0.98710 0.58600
C 	C 	0.95718 0.11883 0.94600 -1.10100
H 	H 	0.97490 0.11710 0.95190 0.33400
H 	H 	0.95570 0.13390 0.93490 0.33300
H 	H 	0.95220 0.10350 0.93640 0.33600
C 	C 	0.94460 0.12494 0.04320 -1.20600
H 	H 	0.96320 0.12280 0.04230 0.36900
H 	H 	0.93710 0.11080 0.05310 0.35900
H 	H 	0.94060 0.14130 0.05160 0.35400
C 	C 	0.86709 0.13101 0.98320 -1.08100
H 	H 	0.85870 0.13280 0.99980 0.31800
H 	H 	0.86030 0.11590 0.97430 0.32100
H 	H 	0.86380 0.14630 0.97280 0.32700
Zn	Zn	0.88240 0.62485 0.37070 0.83700
N 	N 	0.88667 0.59655 0.40295 -0.33900
C 	C 	0.88464 0.56930 0.39800 0.06200
C 	C 	0.89392 0.55580 0.42041 -0.11800
H 	H 	0.89480 0.53770 0.42240 0.05600
C 	C 	0.90169 0.57470 0.43921 -0.05500
H 	H 	0.90850 0.57120 0.45570 0.02700
C 	C 	0.89720 0.59988 0.42842 -0.01400
C 	C 	0.90140 0.62491 0.43859 0.03300
N 	N 	0.88659 0.65328 0.40283 -0.33800
C 	C 	0.89710 0.64980 0.42829 -0.01300
C 	C 	0.90159 0.67492 0.43922 -0.05100
H 	H 	0.90840 0.67830 0.45570 0.03100
C 	C 	0.89386 0.69393 0.42052 -0.11200
H 	H 	0.89470 0.71200 0.42260 0.05900
C 	C 	0.88458 0.68055 0.39803 0.06900
C 	C 	0.85720 0.51525 0.39030 -0.21900
H 	H 	0.84520 0.52430 0.40050 0.08200
C 	C 	0.85730 0.48807 0.39020 0.11800
H 	H 	0.84530 0.47890 0.40040 -0.01400
O 	O 	0.85930 0.43301 0.38930 -0.53600
C 	C 	0.89520 0.73441 0.36290 -0.20300
H 	H 	0.90870 0.72530 0.35480 0.08400
C 	C 	0.89530 0.76159 0.36280 0.10400
H 	H 	0.90890 0.77060 0.35470 -0.00600
O 	O 	0.89090 0.81687 0.36080 -0.53100
C 	C 	0.91259 0.62492 0.46565 -0.44200
C 	C 	0.93935 0.62200 0.46930 0.59600
C 	C 	0.94972 0.62200 0.49440 -0.73100
H 	H 	0.96760 0.62000 0.49690 0.25700
C 	C 	0.93330 0.62493 0.51590 0.68900
C 	C 	0.90650 0.62785 0.51224 -0.73000
H 	H 	0.89560 0.62980 0.52660 0.24000
C 	C 	0.89617 0.62784 0.48710 0.58600
C 	C 	0.95718 0.61883 0.44600 -1.10100
H 	H 	0.97490 0.61710 0.45190 0.33400
H 	H 	0.95570 0.63390 0.43490 0.33300
H 	H 	0.95220 0.60350 0.43640 0.33600
C 	C 	0.94460 0.62494 0.54320 -1.20600
H 	H 	0.96320 0.62280 0.54230 0.36900
H 	H 	0.93710 0.61080 0.55310 0.35900
H 	H 	0.94060 0.64130 0.55160 0.35400
C 	C 	0.86709 0.63101 0.48320 -1.08100
H 	H 	0.85870 0.63280 0.49980 0.31800
H 	H 	0.86030 0.61590 0.47430 0.32100
H 	H 	0.86380 0.64630 0.47280 0.32700
Zn	Zn	0.38240 0.12485 0.37070 0.83700
N 	N 	0.38667 0.09655 0.40295 -0.33900
C 	C 	0.38464 0.06930 0.39800 0.06200
C 	C 	0.39392 0.05580 0.42041 -0.11800
H 	H 	0.39480 0.03770 0.42240 0.05600
C 	C 	0.40169 0.07470 0.43921 -0.05500
H 	H 	0.40850 0.07120 0.45570 0.02700
C 	C 	0.39720 0.09988 0.42842 -0.01400
C 	C 	0.40140 0.12491 0.43859 0.03300
N 	N 	0.38659 0.15328 0.40283 -0.33800
C 	C 	0.39710 0.14980 0.42829 -0.01300
C 	C 	0.40159 0.17492 0.43922 -0.05100
H 	H 	0.40840 0.17830 0.45570 0.03100
C 	C 	0.39386 0.19393 0.42052 -0.11200
H 	H 	0.39470 0.21200 0.42260 0.05900
C 	C 	0.38458 0.18055 0.39803 0.06900
C 	C 	0.35720 0.01525 0.39030 -0.21900
H 	H 	0.34520 0.02430 0.40050 0.08200
C 	C 	0.35730 0.98807 0.39020 0.11800
H 	H 	0.34530 0.97890 0.40040 -0.01400
O 	O 	0.35930 0.93301 0.38930 -0.53600
C 	C 	0.39520 0.23441 0.36290 -0.20300
H 	H 	0.40870 0.22530 0.35480 0.08400
C 	C 	0.39530 0.26159 0.36280 0.10400
H 	H 	0.40890 0.27060 0.35470 -0.00600
O 	O 	0.39090 0.31687 0.36080 -0.53100
C 	C 	0.41259 0.12492 0.46565 -0.44200
C 	C 	0.43935 0.12200 0.46930 0.59600
C 	C 	0.44972 0.12200 0.49440 -0.73100
H 	H 	0.46760 0.12000 0.49690 0.25700
C 	C 	0.43330 0.12493 0.51590 0.68900
C 	C 	0.40650 0.12785 0.51224 -0.73000
H 	H 	0.39560 0.12980 0.52660 0.24000
C 	C 	0.39617 0.12784 0.48710 0.58600
C 	C 	0.45718 0.11883 0.44600 -1.10100
H 	H 	0.47490 0.11710 0.45190 0.33400
H 	H 	0.45570 0.13390 0.43490 0.33300
H 	H 	0.45220 0.10350 0.43640 0.33600
C 	C 	0.44460 0.12494 0.54320 -1.20600
H 	H 	0.46320 0.12280 0.54230 0.36900
H 	H 	0.43710 0.11080 0.55310 0.35900
H 	H 	0.44060 0.14130 0.55160 0.35400
C 	C 	0.36709 0.13101 0.48320 -1.08100
H 	H 	0.35870 0.13280 0.49980 0.31800
H 	H 	0.36030 0.11590 0.47430 0.32100
H 	H 	0.36380 0.14630 0.47280 0.32700
Zn	Zn	0.38240 0.62485 0.87070 0.83700
N 	N 	0.38667 0.59655 0.90295 -0.33900
C 	C 	0.38464 0.56930 0.89800 0.06200
C 	C 	0.39392 0.55580 0.92041 -0.11800
H 	H 	0.39480 0.53770 0.92240 0.05600
C 	C 	0.40169 0.57470 0.93921 -0.05500
H 	H 	0.40850 0.57120 0.95570 0.02700
C 	C 	0.39720 0.59988 0.92842 -0.01400
C 	C 	0.40140 0.62491 0.93859 0.03300
N 	N 	0.38659 0.65328 0.90283 -0.33800
C 	C 	0.39710 0.64980 0.92829 -0.01300
C 	C 	0.40159 0.67492 0.93922 -0.05100
H 	H 	0.40840 0.67830 0.95570 0.03100
C 	C 	0.39386 0.69393 0.92052 -0.11200
H 	H 	0.39470 0.71200 0.92260 0.05900
C 	C 	0.38458 0.68055 0.89803 0.06900
C 	C 	0.35720 0.51525 0.89030 -0.21900
H 	H 	0.34520 0.52430 0.90050 0.08200
C 	C 	0.35730 0.48807 0.89020 0.11800
H 	H 	0.34530 0.47890 0.90040 -0.01400
O 	O 	0.35930 0.43301 0.88930 -0.53600
C 	C 	0.39520 0.73441 0.86290 -0.20300
H 	H 	0.40870 0.72530 0.85480 0.08400
C 	C 	0.39530 0.76159 0.86280 0.10400
H 	H 	0.40890 0.77060 0.85470 -0.00600
O 	O 	0.39090 0.81687 0.86080 -0.53100
C 	C 	0.41259 0.62492 0.96565 -0.44200
C 	C 	0.43935 0.62200 0.96930 0.59600
C 	C 	0.44972 0.62200 0.99440 -0.73100
H 	H 	0.46760 0.62000 0.99690 0.25700
C 	C 	0.43330 0.62493 0.01590 0.68900
C 	C 	0.40650 0.62785 0.01224 -0.73000
H 	H 	0.39560 0.62980 0.02660 0.24000
C 	C 	0.39617 0.62784 0.98710 0.58600
C 	C 	0.45718 0.61883 0.94600 -1.10100
H 	H 	0.47490 0.61710 0.95190 0.33400
H 	H 	0.45570 0.63390 0.93490 0.33300
H 	H 	0.45220 0.60350 0.93640 0.33600
C 	C 	0.44460 0.62494 0.04320 -1.20600
H 	H 	0.46320 0.62280 0.04230 0.36900
H 	H 	0.43710 0.61080 0.05310 0.35900
H 	H 	0.44060 0.64130 0.05160 0.35400
C 	C 	0.36709 0.63101 0.98320 -1.08100
H 	H 	0.35870 0.63280 0.99980 0.31800
H 	H 	0.36030 0.61590 0.97430 0.32100
H 	H 	0.36380 0.64630 0.97280 0.32700
Zn	Zn	0.88240 0.12515 0.37930 0.83700
N 	N 	0.88667 0.15345 0.34705 -0.33900
C 	C 	0.88464 0.18070 0.35200 0.06200
C 	C 	0.89392 0.19420 0.32959 -0.11800
H 	H 	0.89480 0.21230 0.32760 0.05600
C 	C 	0.90169 0.17530 0.31079 -0.05500
H 	H 	0.90850 0.17880 0.29430 0.02700
C 	C 	0.89720 0.15012 0.32158 -0.01400
C 	C 	0.90140 0.12509 0.31141 0.03300
N 	N 	0.88659 0.09672 0.34717 -0.33800
C 	C 	0.89710 0.10020 0.32171 -0.01300
C 	C 	0.90159 0.07508 0.31078 -0.05100
H 	H 	0.90840 0.07170 0.29430 0.03100
C 	C 	0.89386 0.05607 0.32948 -0.11200
H 	H 	0.89470 0.03800 0.32740 0.05900
C 	C 	0.88458 0.06945 0.35197 0.06900
C 	C 	0.85720 0.23475 0.35970 -0.21900
H 	H 	0.84520 0.22570 0.34950 0.08200
C 	C 	0.85730 0.26193 0.35980 0.11800
H 	H 	0.84530 0.27110 0.34960 -0.01400
O 	O 	0.85930 0.31699 0.36070 -0.53600
C 	C 	0.89520 0.01559 0.38710 -0.20300
H 	H 	0.90870 0.02470 0.39520 0.08400
C 	C 	0.89530 0.98841 0.38720 0.10400
H 	H 	0.90890 0.97940 0.39530 -0.00600
O 	O 	0.89090 0.93313 0.38920 -0.53100
C 	C 	0.91259 0.12508 0.28435 -0.44200
C 	C 	0.93935 0.12800 0.28070 0.59600
C 	C 	0.94972 0.12800 0.25560 -0.73100
H 	H 	0.96760 0.13000 0.25310 0.25700
C 	C 	0.93330 0.12507 0.23410 0.68900
C 	C 	0.90650 0.12215 0.23776 -0.73000
H 	H 	0.89560 0.12020 0.22340 0.24000
C 	C 	0.89617 0.12216 0.26290 0.58600
C 	C 	0.95718 0.13117 0.30400 -1.10100
H 	H 	0.97490 0.13290 0.29810 0.33400
H 	H 	0.95570 0.11610 0.31510 0.33300
H 	H 	0.95220 0.14650 0.31360 0.33600
C 	C 	0.94460 0.12506 0.20680 -1.20600
H 	H 	0.96320 0.12720 0.20770 0.36900
H 	H 	0.93710 0.13920 0.19690 0.35900
H 	H 	0.94060 0.10870 0.19840 0.35400
C 	C 	0.86709 0.11899 0.26680 -1.08100
H 	H 	0.85870 0.11720 0.25020 0.31800
H 	H 	0.86030 0.13410 0.27570 0.32100
H 	H 	0.86380 0.10370 0.27720 0.32700
Zn	Zn	0.88240 0.62515 0.87930 0.83700
N 	N 	0.88667 0.65345 0.84705 -0.33900
C 	C 	0.88464 0.68070 0.85200 0.06200
C 	C 	0.89392 0.69420 0.82959 -0.11800
H 	H 	0.89480 0.71230 0.82760 0.05600
C 	C 	0.90169 0.67530 0.81079 -0.05500
H 	H 	0.90850 0.67880 0.79430 0.02700
C 	C 	0.89720 0.65012 0.82158 -0.01400
C 	C 	0.90140 0.62509 0.81141 0.03300
N 	N 	0.88659 0.59672 0.84717 -0.33800
C 	C 	0.89710 0.60020 0.82171 -0.01300
C 	C 	0.90159 0.57508 0.81078 -0.05100
H 	H 	0.90840 0.57170 0.79430 0.03100
C 	C 	0.89386 0.55607 0.82948 -0.11200
H 	H 	0.89470 0.53800 0.82740 0.05900
C 	C 	0.88458 0.56945 0.85197 0.06900
C 	C 	0.85720 0.73475 0.85970 -0.21900
H 	H 	0.84520 0.72570 0.84950 0.08200
C 	C 	0.85730 0.76193 0.85980 0.11800
H 	H 	0.84530 0.77110 0.84960 -0.01400
O 	O 	0.85930 0.81699 0.86070 -0.53600
C 	C 	0.89520 0.51559 0.88710 -0.20300
H 	H 	0.90870 0.52470 0.89520 0.08400
C 	C 	0.89530 0.48841 0.88720 0.10400
H 	H 	0.90890 0.47940 0.89530 -0.00600
O 	O 	0.89090 0.43313 0.88920 -0.53100
C 	C 	0.91259 0.62508 0.78435 -0.44200
C 	C 	0.93935 0.62800 0.78070 0.59600
C 	C 	0.94972 0.62800 0.75560 -0.73100
H 	H 	0.96760 0.63000 0.75310 0.25700
C 	C 	0.93330 0.62507 0.73410 0.68900
C 	C 	0.90650 0.62215 0.73776 -0.73000
H 	H 	0.89560 0.62020 0.72340 0.24000
C 	C 	0.89617 0.62216 0.76290 0.58600
C 	C 	0.95718 0.63117 0.80400 -1.10100
H 	H 	0.97490 0.63290 0.79810 0.33400
H 	H 	0.95570 0.61610 0.81510 0.33300
H 	H 	0.95220 0.64650 0.81360 0.33600
C 	C 	0.94460 0.62506 0.70680 -1.20600
H 	H 	0.96320 0.62720 0.70770 0.36900
H 	H 	0.93710 0.63920 0.69690 0.35900
H 	H 	0.94060 0.60870 0.69840 0.35400
C 	C 	0.86709 0.61899 0.76680 -1.08100
H 	H 	0.85870 0.61720 0.75020 0.31800
H 	H 	0.86030 0.63410 0.77570 0.32100
H 	H 	0.86380 0.60370 0.77720 0.32700
Zn	Zn	0.38240 0.12515 0.87930 0.83700
N 	N 	0.38667 0.15345 0.84705 -0.33900
C 	C 	0.38464 0.18070 0.85200 0.06200
C 	C 	0.39392 0.19420 0.82959 -0.11800
H 	H 	0.39480 0.21230 0.82760 0.05600
C 	C 	0.40169 0.17530 0.81079 -0.05500
H 	H 	0.40850 0.17880 0.79430 0.02700
C 	C 	0.39720 0.15012 0.82158 -0.01400
C 	C 	0.40140 0.12509 0.81141 0.03300
N 	N 	0.38659 0.09672 0.84717 -0.33800
C 	C 	0.39710 0.10020 0.82171 -0.01300
C 	C 	0.40159 0.07508 0.81078 -0.05100
H 	H 	0.40840 0.07170 0.79430 0.03100
C 	C 	0.39386 0.05607 0.82948 -0.11200
H 	H 	0.39470 0.03800 0.82740 0.05900
C 	C 	0.38458 0.06945 0.85197 0.06900
C 	C 	0.35720 0.23475 0.85970 -0.21900
H 	H 	0.34520 0.22570 0.84950 0.08200
C 	C 	0.35730 0.26193 0.85980 0.11800
H 	H 	0.34530 0.27110 0.84960 -0.01400
O 	O 	0.35930 0.31699 0.86070 -0.53600
C 	C 	0.39520 0.01559 0.88710 -0.20300
H 	H 	0.40870 0.02470 0.89520 0.08400
C 	C 	0.39530 0.98841 0.88720 0.10400
H 	H 	0.40890 0.97940 0.89530 -0.00600
O 	O 	0.39090 0.93313 0.88920 -0.53100
C 	C 	0.41259 0.12508 0.78435 -0.44200
C 	C 	0.43935 0.12800 0.78070 0.59600
C 	C 	0.44972 0.12800 0.75560 -0.73100
H 	H 	0.46760 0.13000 0.75310 0.25700
C 	C 	0.43330 0.12507 0.73410 0.68900
C 	C 	0.40650 0.12215 0.73776 -0.73000
H 	H 	0.39560 0.12020 0.72340 0.24000
C 	C 	0.39617 0.12216 0.76290 0.58600
C 	C 	0.45718 0.13117 0.80400 -1.10100
H 	H 	0.47490 0.13290 0.79810 0.33400
H 	H 	0.45570 0.11610 0.81510 0.33300
H 	H 	0.45220 0.14650 0.81360 0.33600
C 	C 	0.44460 0.12506 0.70680 -1.20600
H 	H 	0.46320 0.12720 0.70770 0.36900
H 	H 	0.43710 0.13920 0.69690 0.35900
H 	H 	0.44060 0.10870 0.69840 0.35400
C 	C 	0.36709 0.11899 0.76680 -1.08100
H 	H 	0.35870 0.11720 0.75020 0.31800
H 	H 	0.36030 0.13410 0.77570 0.32100
H 	H 	0.36380 0.10370 0.77720 0.32700
Zn	Zn	0.38240 0.62515 0.37930 0.83700
N 	N 	0.38667 0.65345 0.34705 -0.33900
C 	C 	0.38464 0.68070 0.35200 0.06200
C 	C 	0.39392 0.69420 0.32959 -0.11800
H 	H 	0.39480 0.71230 0.32760 0.05600
C 	C 	0.40169 0.67530 0.31079 -0.05500
H 	H 	0.40850 0.67880 0.29430 0.02700
C 	C 	0.39720 0.65012 0.32158 -0.01400
C 	C 	0.40140 0.62509 0.31141 0.03300
N 	N 	0.38659 0.59672 0.34717 -0.33800
C 	C 	0.39710 0.60020 0.32171 -0.01300
C 	C 	0.40159 0.57508 0.31078 -0.05100
H 	H 	0.40840 0.57170 0.29430 0.03100
C 	C 	0.39386 0.55607 0.32948 -0.11200
H 	H 	0.39470 0.53800 0.32740 0.05900
C 	C 	0.38458 0.56945 0.35197 0.06900
C 	C 	0.35720 0.73475 0.35970 -0.21900
H 	H 	0.34520 0.72570 0.34950 0.08200
C 	C 	0.35730 0.76193 0.35980 0.11800
H 	H 	0.34530 0.77110 0.34960 -0.01400
O 	O 	0.35930 0.81699 0.36070 -0.53600
C 	C 	0.39520 0.51559 0.38710 -0.20300
H 	H 	0.40870 0.52470 0.39520 0.08400
C 	C 	0.39530 0.48841 0.38720 0.10400
H 	H 	0.40890 0.47940 0.39530 -0.00600
O 	O 	0.39090 0.43313 0.38920 -0.53100
C 	C 	0.41259 0.62508 0.28435 -0.44200
C 	C 	0.43935 0.62800 0.28070 0.59600
C 	C 	0.44972 0.62800 0.25560 -0.73100
H 	H 	0.46760 0.63000 0.25310 0.25700
C 	C 	0.43330 0.62507 0.23410 0.68900
C 	C 	0.40650 0.62215 0.23776 -0.73000
H 	H 	0.39560 0.62020 0.22340 0.24000
C 	C 	0.39617 0.62216 0.26290 0.58600
C 	C 	0.45718 0.63117 0.30400 -1.10100
H 	H 	0.47490 0.63290 0.29810 0.33400
H 	H 	0.45570 0.61610 0.31510 0.33300
H 	H 	0.45220 0.64650 0.31360 0.33600
C 	C 	0.44460 0.62506 0.20680 -1.20600
H 	H 	0.46320 0.62720 0.20770 0.36900
H 	H 	0.43710 0.63920 0.19690 0.35900
H 	H 	0.44060 0.60870 0.19840 0.35400
C 	C 	0.36709 0.61899 0.26680 -1.08100
H 	H 	0.35870 0.61720 0.25020 0.31800
H 	H 	0.36030 0.63410 0.27570 0.32100
H 	H 	0.36380 0.60370 0.27720 0.32700
Zn	Zn	0.87070 0.36760 0.12515 0.83700
N 	N 	0.90295 0.36333 0.15345 -0.33900
C 	C 	0.89800 0.36536 0.18070 0.06200
C 	C 	0.92041 0.35608 0.19420 -0.11800
H 	H 	0.92240 0.35520 0.21230 0.05600
C 	C 	0.93921 0.34831 0.17530 -0.05500
H 	H 	0.95570 0.34150 0.17880 0.02700
C 	C 	0.92842 0.35280 0.15012 -0.01400
C 	C 	0.93859 0.34860 0.12509 0.03300
N 	N 	0.90283 0.36341 0.09672 -0.33800
C 	C 	0.92829 0.35290 0.10020 -0.01300
C 	C 	0.93922 0.34841 0.07508 -0.05100
H 	H 	0.95570 0.34160 0.07170 0.03100
C 	C 	0.92052 0.35614 0.05607 -0.11200
H 	H 	0.92260 0.35530 0.03800 0.05900
C 	C 	0.89803 0.36542 0.06945 0.06900
C 	C 	0.89030 0.39280 0.23475 -0.21900
H 	H 	0.90050 0.40480 0.22570 0.08200
C 	C 	0.89020 0.39270 0.26193 0.11800
H 	H 	0.90040 0.40470 0.27110 -0.01400
O 	O 	0.88930 0.39070 0.31699 -0.53600
C 	C 	0.86290 0.35480 0.01559 -0.20300
H 	H 	0.85480 0.34130 0.02470 0.08400
C 	C 	0.86280 0.35470 0.98841 0.10400
H 	H 	0.85470 0.34110 0.97940 -0.00600
O 	O 	0.86080 0.35910 0.93313 -0.53100
C 	C 	0.96565 0.33741 0.12508 -0.44200
C 	C 	0.96930 0.31065 0.12800 0.59600
C 	C 	0.99440 0.30028 0.12800 -0.73100
H 	H 	0.99690 0.28240 0.13000 0.25700
C 	C 	0.01590 0.31670 0.12507 0.68900
C 	C 	0.01224 0.34350 0.12215 -0.73000
H 	H 	0.02660 0.35440 0.12020 0.24000
C 	C 	0.98710 0.35383 0.12216 0.58600
C 	C 	0.94600 0.29282 0.13117 -1.10100
H 	H 	0.95190 0.27510 0.13290 0.33400
H 	H 	0.93490 0.29430 0.11610 0.33300
H 	H 	0.93640 0.29780 0.14650 0.33600
C 	C 	0.04320 0.30540 0.12506 -1.20600
H 	H 	0.04230 0.28680 0.12720 0.36900
H 	H 	0.05310 0.31290 0.13920 0.35900
H 	H 	0.05160 0.30940 0.10870 0.35400
C 	C 	0.98320 0.38291 0.11899 -1.08100
H 	H 	0.99980 0.39130 0.11720 0.31800
H 	H 	0.97430 0.38970 0.13410 0.32100
H 	H 	0.97280 0.38620 0.10370 0.32700
Zn	Zn	0.87070 0.86760 0.62515 0.83700
N 	N 	0.90295 0.86333 0.65345 -0.33900
C 	C 	0.89800 0.86536 0.68070 0.06200
C 	C 	0.92041 0.85608 0.69420 -0.11800
H 	H 	0.92240 0.85520 0.71230 0.05600
C 	C 	0.93921 0.84831 0.67530 -0.05500
H 	H 	0.95570 0.84150 0.67880 0.02700
C 	C 	0.92842 0.85280 0.65012 -0.01400
C 	C 	0.93859 0.84860 0.62509 0.03300
N 	N 	0.90283 0.86341 0.59672 -0.33800
C 	C 	0.92829 0.85290 0.60020 -0.01300
C 	C 	0.93922 0.84841 0.57508 -0.05100
H 	H 	0.95570 0.84160 0.57170 0.03100
C 	C 	0.92052 0.85614 0.55607 -0.11200
H 	H 	0.92260 0.85530 0.53800 0.05900
C 	C 	0.89803 0.86542 0.56945 0.06900
C 	C 	0.89030 0.89280 0.73475 -0.21900
H 	H 	0.90050 0.90480 0.72570 0.08200
C 	C 	0.89020 0.89270 0.76193 0.11800
H 	H 	0.90040 0.90470 0.77110 -0.01400
O 	O 	0.88930 0.89070 0.81699 -0.53600
C 	C 	0.86290 0.85480 0.51559 -0.20300
H 	H 	0.85480 0.84130 0.52470 0.08400
C 	C 	0.86280 0.85470 0.48841 0.10400
H 	H 	0.85470 0.84110 0.47940 -0.00600
O 	O 	0.86080 0.85910 0.43313 -0.53100
C 	C 	0.96565 0.83741 0.62508 -0.44200
C 	C 	0.96930 0.81065 0.62800 0.59600
C 	C 	0.99440 0.80028 0.62800 -0.73100
H 	H 	0.99690 0.78240 0.63000 0.25700
C 	C 	0.01590 0.81670 0.62507 0.68900
C 	C 	0.01224 0.84350 0.62215 -0.73000
H 	H 	0.02660 0.85440 0.62020 0.24000
C 	C 	0.98710 0.85383 0.62216 0.58600
C 	C 	0.94600 0.79282 0.63117 -1.10100
H 	H 	0.95190 0.77510 0.63290 0.33400
H 	H 	0.93490 0.79430 0.61610 0.33300
H 	H 	0.93640 0.79780 0.64650 0.33600
C 	C 	0.04320 0.80540 0.62506 -1.20600
H 	H 	0.04230 0.78680 0.62720 0.36900
H 	H 	0.05310 0.81290 0.63920 0.35900
H 	H 	0.05160 0.80940 0.60870 0.35400
C 	C 	0.98320 0.88291 0.61899 -1.08100
H 	H 	0.99980 0.89130 0.61720 0.31800
H 	H 	0.97430 0.88970 0.63410 0.32100
H 	H 	0.97280 0.88620 0.60370 0.32700
Zn	Zn	0.37070 0.36760 0.62515 0.83700
N 	N 	0.40295 0.36333 0.65345 -0.33900
C 	C 	0.39800 0.36536 0.68070 0.06200
C 	C 	0.42041 0.35608 0.69420 -0.11800
H 	H 	0.42240 0.35520 0.71230 0.05600
C 	C 	0.43921 0.34831 0.67530 -0.05500
H 	H 	0.45570 0.34150 0.67880 0.02700
C 	C 	0.42842 0.35280 0.65012 -0.01400
C 	C 	0.43859 0.34860 0.62509 0.03300
N 	N 	0.40283 0.36341 0.59672 -0.33800
C 	C 	0.42829 0.35290 0.60020 -0.01300
C 	C 	0.43922 0.34841 0.57508 -0.05100
H 	H 	0.45570 0.34160 0.57170 0.03100
C 	C 	0.42052 0.35614 0.55607 -0.11200
H 	H 	0.42260 0.35530 0.53800 0.05900
C 	C 	0.39803 0.36542 0.56945 0.06900
C 	C 	0.39030 0.39280 0.73475 -0.21900
H 	H 	0.40050 0.40480 0.72570 0.08200
C 	C 	0.39020 0.39270 0.76193 0.11800
H 	H 	0.40040 0.40470 0.77110 -0.01400
O 	O 	0.38930 0.39070 0.81699 -0.53600
C 	C 	0.36290 0.35480 0.51559 -0.20300
H 	H 	0.35480 0.34130 0.52470 0.08400
C 	C 	0.36280 0.35470 0.48841 0.10400
H 	H 	0.35470 0.34110 0.47940 -0.00600
O 	O 	0.36080 0.35910 0.43313 -0.53100
C 	C 	0.46565 0.33741 0.62508 -0.44200
C 	C 	0.46930 0.31065 0.62800 0.59600
C 	C 	0.49440 0.30028 0.62800 -0.73100
H 	H 	0.49690 0.28240 0.63000 0.25700
C 	C 	0.51590 0.31670 0.62507 0.68900
C 	C 	0.51224 0.34350 0.62215 -0.73000
H 	H 	0.52660 0.35440 0.62020 0.24000
C 	C 	0.48710 0.35383 0.62216 0.58600
C 	C 	0.44600 0.29282 0.63117 -1.10100
H 	H 	0.45190 0.27510 0.63290 0.33400
H 	H 	0.43490 0.29430 0.61610 0.33300
H 	H 	0.43640 0.29780 0.64650 0.33600
C 	C 	0.54320 0.30540 0.62506 -1.20600
H 	H 	0.54230 0.28680 0.62720 0.36900
H 	H 	0.55310 0.31290 0.63920 0.35900
H 	H 	0.55160 0.30940 0.60870 0.35400
C 	C 	0.48320 0.38291 0.61899 -1.08100
H 	H 	0.49980 0.39130 0.61720 0.31800
H 	H 	0.47430 0.38970 0.63410 0.32100
H 	H 	0.47280 0.38620 0.60370 0.32700
Zn	Zn	0.37070 0.86760 0.12515 0.83700
N 	N 	0.40295 0.86333 0.15345 -0.33900
C 	C 	0.39800 0.86536 0.18070 0.06200
C 	C 	0.42041 0.85608 0.19420 -0.11800
H 	H 	0.42240 0.85520 0.21230 0.05600
C 	C 	0.43921 0.84831 0.17530 -0.05500
H 	H 	0.45570 0.84150 0.17880 0.02700
C 	C 	0.42842 0.85280 0.15012 -0.01400
C 	C 	0.43859 0.84860 0.12509 0.03300
N 	N 	0.40283 0.86341 0.09672 -0.33800
C 	C 	0.42829 0.85290 0.10020 -0.01300
C 	C 	0.43922 0.84841 0.07508 -0.05100
H 	H 	0.45570 0.84160 0.07170 0.03100
C 	C 	0.42052 0.85614 0.05607 -0.11200
H 	H 	0.42260 0.85530 0.03800 0.05900
C 	C 	0.39803 0.86542 0.06945 0.06900
C 	C 	0.39030 0.89280 0.23475 -0.21900
H 	H 	0.40050 0.90480 0.22570 0.08200
C 	C 	0.39020 0.89270 0.26193 0.11800
H 	H 	0.40040 0.90470 0.27110 -0.01400
O 	O 	0.38930 0.89070 0.31699 -0.53600
C 	C 	0.36290 0.85480 0.01559 -0.20300
H 	H 	0.35480 0.84130 0.02470 0.08400
C 	C 	0.36280 0.85470 0.98841 0.10400
H 	H 	0.35470 0.84110 0.97940 -0.00600
O 	O 	0.36080 0.85910 0.93313 -0.53100
C 	C 	0.46565 0.83741 0.12508 -0.44200
C 	C 	0.46930 0.81065 0.12800 0.59600
C 	C 	0.49440 0.80028 0.12800 -0.73100
H 	H 	0.49690 0.78240 0.13000 0.25700
C 	C 	0.51590 0.81670 0.12507 0.68900
C 	C 	0.51224 0.84350 0.12215 -0.73000
H 	H 	0.52660 0.85440 0.12020 0.24000
C 	C 	0.48710 0.85383 0.12216 0.58600
C 	C 	0.44600 0.79282 0.13117 -1.10100
H 	H 	0.45190 0.77510 0.13290 0.33400
H 	H 	0.43490 0.79430 0.11610 0.33300
H 	H 	0.43640 0.79780 0.14650 0.33600
C 	C 	0.54320 0.80540 0.12506 -1.20600
H 	H 	0.54230 0.78680 0.12720 0.36900
H 	H 	0.55310 0.81290 0.13920 0.35900
H 	H 	0.55160 0.80940 0.10870 0.35400
C 	C 	0.48320 0.88291 0.11899 -1.08100
H 	H 	0.49980 0.89130 0.11720 0.31800
H 	H 	0.47430 0.88970 0.13410 0.32100
H 	H 	0.47280 0.88620 0.10370 0.32700
Zn	Zn	0.37930 0.36760 0.12485 0.83700
N 	N 	0.34705 0.36333 0.09655 -0.33900
C 	C 	0.35200 0.36536 0.06930 0.06200
C 	C 	0.32959 0.35608 0.05580 -0.11800
H 	H 	0.32760 0.35520 0.03770 0.05600
C 	C 	0.31079 0.34831 0.07470 -0.05500
H 	H 	0.29430 0.34150 0.07120 0.02700
C 	C 	0.32158 0.35280 0.09988 -0.01400
C 	C 	0.31141 0.34860 0.12491 0.03300
N 	N 	0.34717 0.36341 0.15328 -0.33800
C 	C 	0.32171 0.35290 0.14980 -0.01300
C 	C 	0.31078 0.34841 0.17492 -0.05100
H 	H 	0.29430 0.34160 0.17830 0.03100
C 	C 	0.32948 0.35614 0.19393 -0.11200
H 	H 	0.32740 0.35530 0.21200 0.05900
C 	C 	0.35197 0.36542 0.18055 0.06900
C 	C 	0.35970 0.39280 0.01525 -0.21900
H 	H 	0.34950 0.40480 0.02430 0.08200
C 	C 	0.35980 0.39270 0.98807 0.11800
H 	H 	0.34960 0.40470 0.97890 -0.01400
O 	O 	0.36070 0.39070 0.93301 -0.53600
C 	C 	0.38710 0.35480 0.23441 -0.20300
H 	H 	0.39520 0.34130 0.22530 0.08400
C 	C 	0.38720 0.35470 0.26159 0.10400
H 	H 	0.39530 0.34110 0.27060 -0.00600
O 	O 	0.38920 0.35910 0.31687 -0.53100
C 	C 	0.28435 0.33741 0.12492 -0.44200
C 	C 	0.28070 0.31065 0.12200 0.59600
C 	C 	0.25560 0.30028 0.12200 -0.73100
H 	H 	0.25310 0.28240 0.12000 0.25700
C 	C 	0.23410 0.31670 0.12493 0.68900
C 	C 	0.23776 0.34350 0.12785 -0.73000
H 	H 	0.22340 0.35440 0.12980 0.24000
C 	C 	0.26290 0.35383 0.12784 0.58600
C 	C 	0.30400 0.29282 0.11883 -1.10100
H 	H 	0.29810 0.27510 0.11710 0.33400
H 	H 	0.31510 0.29430 0.13390 0.33300
H 	H 	0.31360 0.29780 0.10350 0.33600
C 	C 	0.20680 0.30540 0.12494 -1.20600
H 	H 	0.20770 0.28680 0.12280 0.36900
H 	H 	0.19690 0.31290 0.11080 0.35900
H 	H 	0.19840 0.30940 0.14130 0.35400
C 	C 	0.26680 0.38291 0.13101 -1.08100
H 	H 	0.25020 0.39130 0.13280 0.31800
H 	H 	0.27570 0.38970 0.11590 0.32100
H 	H 	0.27720 0.38620 0.14630 0.32700
Zn	Zn	0.37930 0.86760 0.62485 0.83700
N 	N 	0.34705 0.86333 0.59655 -0.33900
C 	C 	0.35200 0.86536 0.56930 0.06200
C 	C 	0.32959 0.85608 0.55580 -0.11800
H 	H 	0.32760 0.85520 0.53770 0.05600
C 	C 	0.31079 0.84831 0.57470 -0.05500
H 	H 	0.29430 0.84150 0.57120 0.02700
C 	C 	0.32158 0.85280 0.59988 -0.01400
C 	C 	0.31141 0.84860 0.62491 0.03300
N 	N 	0.34717 0.86341 0.65328 -0.33800
C 	C 	0.32171 0.85290 0.64980 -0.01300
C 	C 	0.31078 0.84841 0.67492 -0.05100
H 	H 	0.29430 0.84160 0.67830 0.03100
C 	C 	0.32948 0.85614 0.69393 -0.11200
H 	H 	0.32740 0.85530 0.71200 0.05900
C 	C 	0.35197 0.86542 0.68055 0.06900
C 	C 	0.35970 0.89280 0.51525 -0.21900
H 	H 	0.34950 0.90480 0.52430 0.08200
C 	C 	0.35980 0.89270 0.48807 0.11800
H 	H 	0.34960 0.90470 0.47890 -0.01400
O 	O 	0.36070 0.89070 0.43301 -0.53600
C 	C 	0.38710 0.85480 0.73441 -0.20300
H 	H 	0.39520 0.84130 0.72530 0.08400
C 	C 	0.38720 0.85470 0.76159 0.10400
H 	H 	0.39530 0.84110 0.77060 -0.00600
O 	O 	0.38920 0.85910 0.81687 -0.53100
C 	C 	0.28435 0.83741 0.62492 -0.44200
C 	C 	0.28070 0.81065 0.62200 0.59600
C 	C 	0.25560 0.80028 0.62200 -0.73100
H 	H 	0.25310 0.78240 0.62000 0.25700
C 	C 	0.23410 0.81670 0.62493 0.68900
C 	C 	0.23776 0.84350 0.62785 -0.73000
H 	H 	0.22340 0.85440 0.62980 0.24000
C 	C 	0.26290 0.85383 0.62784 0.58600
C 	C 	0.30400 0.79282 0.61883 -1.10100
H 	H 	0.29810 0.77510 0.61710 0.33400
H 	H 	0.31510 0.79430 0.63390 0.33300
H 	H 	0.31360 0.79780 0.60350 0.33600
C 	C 	0.20680 0.80540 0.62494 -1.20600
H 	H 	0.20770 0.78680 0.62280 0.36900
H 	H 	0.19690 0.81290 0.61080 0.35900
H 	H 	0.19840 0.80940 0.64130 0.35400
C 	C 	0.26680 0.88291 0.63101 -1.08100
H 	H 	0.25020 0.89130 0.63280 0.31800
H 	H 	0.27570 0.88970 0.61590 0.32100
H 	H 	0.27720 0.88620 0.64630 0.32700
Zn	Zn	0.87930 0.36760 0.62485 0.83700
N 	N 	0.84705 0.36333 0.59655 -0.33900
C 	C 	0.85200 0.36536 0.56930 0.06200
C 	C 	0.82959 0.35608 0.55580 -0.11800
H 	H 	0.82760 0.35520 0.53770 0.05600
C 	C 	0.81079 0.34831 0.57470 -0.05500
H 	H 	0.79430 0.34150 0.57120 0.02700
C 	C 	0.82158 0.35280 0.59988 -0.01400
C 	C 	0.81141 0.34860 0.62491 0.03300
N 	N 	0.84717 0.36341 0.65328 -0.33800
C 	C 	0.82171 0.35290 0.64980 -0.01300
C 	C 	0.81078 0.34841 0.67492 -0.05100
H 	H 	0.79430 0.34160 0.67830 0.03100
C 	C 	0.82948 0.35614 0.69393 -0.11200
H 	H 	0.82740 0.35530 0.71200 0.05900
C 	C 	0.85197 0.36542 0.68055 0.06900
C 	C 	0.85970 0.39280 0.51525 -0.21900
H 	H 	0.84950 0.40480 0.52430 0.08200
C 	C 	0.85980 0.39270 0.48807 0.11800
H 	H 	0.84960 0.40470 0.47890 -0.01400
O 	O 	0.86070 0.39070 0.43301 -0.53600
C 	C 	0.88710 0.35480 0.73441 -0.20300
H 	H 	0.89520 0.34130 0.72530 0.08400
C 	C 	0.88720 0.35470 0.76159 0.10400
H 	H 	0.89530 0.34110 0.77060 -0.00600
O 	O 	0.88920 0.35910 0.81687 -0.53100
C 	C 	0.78435 0.33741 0.62492 -0.44200
C 	C 	0.78070 0.31065 0.62200 0.59600
C 	C 	0.75560 0.30028 0.62200 -0.73100
H 	H 	0.75310 0.28240 0.62000 0.25700
C 	C 	0.73410 0.31670 0.62493 0.68900
C 	C 	0.73776 0.34350 0.62785 -0.73000
H 	H 	0.72340 0.35440 0.62980 0.24000
C 	C 	0.76290 0.35383 0.62784 0.58600
C 	C 	0.80400 0.29282 0.61883 -1.10100
H 	H 	0.79810 0.27510 0.61710 0.33400
H 	H 	0.81510 0.29430 0.63390 0.33300
H 	H 	0.81360 0.29780 0.60350 0.33600
C 	C 	0.70680 0.30540 0.62494 -1.20600
H 	H 	0.70770 0.28680 0.62280 0.36900
H 	H 	0.69690 0.31290 0.61080 0.35900
H 	H 	0.69840 0.30940 0.64130 0.35400
C 	C 	0.76680 0.38291 0.63101 -1.08100
H 	H 	0.75020 0.39130 0.63280 0.31800
H 	H 	0.77570 0.38970 0.61590 0.32100
H 	H 	0.77720 0.38620 0.64630 0.32700
Zn	Zn	0.87930 0.86760 0.12485 0.83700
N 	N 	0.84705 0.86333 0.09655 -0.33900
C 	C 	0.85200 0.86536 0.06930 0.06200
C 	C 	0.82959 0.85608 0.05580 -0.11800
H 	H 	0.82760 0.85520 0.03770 0.05600
C 	C 	0.81079 0.84831 0.07470 -0.05500
H 	H 	0.79430 0.84150 0.07120 0.02700
C 	C 	0.82158 0.85280 0.09988 -0.01400
C 	C 	0.81141 0.84860 0.12491 0.03300
N 	N 	0.84717 0.86341 0.15328 -0.33800
C 	C 	0.82171 0.85290 0.14980 -0.01300
C 	C 	0.81078 0.84841 0.17492 -0.05100
H 	H 	0.79430 0.84160 0.17830 0.03100
C 	C 	0.82948 0.85614 0.19393 -0.11200
H 	H 	0.82740 0.85530 0.21200 0.05900
C 	C 	0.85197 0.86542 0.18055 0.06900
C 	C 	0.85970 0.89280 0.01525 -0.21900
H 	H 	0.84950 0.90480 0.02430 0.08200
C 	C 	0.85980 0.89270 0.98807 0.11800
H 	H 	0.84960 0.90470 0.97890 -0.01400
O 	O 	0.86070 0.89070 0.93301 -0.53600
C 	C 	0.88710 0.85480 0.23441 -0.20300
H 	H 	0.89520 0.84130 0.22530 0.08400
C 	C 	0.88720 0.85470 0.26159 0.10400
H 	H 	0.89530 0.84110 0.27060 -0.00600
O 	O 	0.88920 0.85910 0.31687 -0.53100
C 	C 	0.78435 0.83741 0.12492 -0.44200
C 	C 	0.78070 0.81065 0.12200 0.59600
C 	C 	0.75560 0.80028 0.12200 -0.73100
H 	H 	0.75310 0.78240 0.12000 0.25700
C 	C 	0.73410 0.81670 0.12493 0.68900
C 	C 	0.73776 0.84350 0.12785 -0.73000
H 	H 	0.72340 0.85440 0.12980 0.24000
C 	C 	0.76290 0.85383 0.12784 0.58600
C 	C 	0.80400 0.79282 0.11883 -1.10100
H 	H 	0.79810 0.77510 0.11710 0.33400
H 	H 	0.81510 0.79430 0.13390 0.33300
H 	H 	0.81360 0.79780 0.10350 0.33600
C 	C 	0.70680 0.80540 0.12494 -1.20600
H 	H 	0.70770 0.78680 0.12280 0.36900
H 	H 	0.69690 0.81290 0.11080 0.35900
H 	H 	0.69840 0.80940 0.14130 0.35400
C 	C 	0.76680 0.88291 0.13101 -1.08100
H 	H 	0.75020 0.89130 0.13280 0.31800
H 	H 	0.77570 0.88970 0.11590 0.32100
H 	H 	0.77720 0.88620 0.14630 0.32700
Zn	Zn	0.87070 0.88240 0.12485 0.83700
N 	N 	0.90295 0.88667 0.09655 -0.33900
C 	C 	0.89800 0.88464 0.06930 0.06200
C 	C 	0.92041 0.89392 0.05580 -0.11800
H 	H 	0.92240 0.89480 0.03770 0.05600
C 	C 	0.93921 0.90169 0.07470 -0.05500
H 	H 	0.95570 0.90850 0.07120 0.02700
C 	C 	0.92842 0.89720 0.09988 -0.01400
C 	C 	0.93859 0.90140 0.12491 0.03300
N 	N 	0.90283 0.88659 0.15328 -0.33800
C 	C 	0.92829 0.89710 0.14980 -0.01300
C 	C 	0.93922 0.90159 0.17492 -0.05100
H 	H 	0.95570 0.90840 0.17830 0.03100
C 	C 	0.92052 0.89386 0.19393 -0.11200
H 	H 	0.92260 0.89470 0.21200 0.05900
C 	C 	0.89803 0.88458 0.18055 0.06900
C 	C 	0.89030 0.85720 0.01525 -0.21900
H 	H 	0.90050 0.84520 0.02430 0.08200
C 	C 	0.89020 0.85730 0.98807 0.11800
H 	H 	0.90040 0.84530 0.97890 -0.01400
O 	O 	0.88930 0.85930 0.93301 -0.53600
C 	C 	0.86290 0.89520 0.23441 -0.20300
H 	H 	0.85480 0.90870 0.22530 0.08400
C 	C 	0.86280 0.89530 0.26159 0.10400
H 	H 	0.85470 0.90890 0.27060 -0.00600
O 	O 	0.86080 0.89090 0.31687 -0.53100
C 	C 	0.96565 0.91259 0.12492 -0.44200
C 	C 	0.96930 0.93935 0.12200 0.59600
C 	C 	0.99440 0.94972 0.12200 -0.73100
H 	H 	0.99690 0.96760 0.12000 0.25700
C 	C 	0.01590 0.93330 0.12493 0.68900
C 	C 	0.01224 0.90650 0.12785 -0.73000
H 	H 	0.02660 0.89560 0.12980 0.24000
C 	C 	0.98710 0.89617 0.12784 0.58600
C 	C 	0.94600 0.95718 0.11883 -1.10100
H 	H 	0.95190 0.97490 0.11710 0.33400
H 	H 	0.93490 0.95570 0.13390 0.33300
H 	H 	0.93640 0.95220 0.10350 0.33600
C 	C 	0.04320 0.94460 0.12494 -1.20600
H 	H 	0.04230 0.96320 0.12280 0.36900
H 	H 	0.05310 0.93710 0.11080 0.35900
H 	H 	0.05160 0.94060 0.14130 0.35400
C 	C 	0.98320 0.86709 0.13101 -1.08100
H 	H 	0.99980 0.85870 0.13280 0.31800
H 	H 	0.97430 0.86030 0.11590 0.32100
H 	H 	0.97280 0.86380 0.14630 0.32700
Zn	Zn	0.87070 0.38240 0.62485 0.83700
N 	N 	0.90295 0.38667 0.59655 -0.33900
C 	C 	0.89800 0.38464 0.56930 0.06200
C 	C 	0.92041 0.39392 0.55580 -0.11800
H 	H 	0.92240 0.39480 0.53770 0.05600
C 	C 	0.93921 0.40169 0.57470 -0.05500
H 	H 	0.95570 0.40850 0.57120 0.02700
C 	C 	0.92842 0.39720 0.59988 -0.01400
C 	C 	0.93859 0.40140 0.62491 0.03300
N 	N 	0.90283 0.38659 0.65328 -0.33800
C 	C 	0.92829 0.39710 0.64980 -0.01300
C 	C 	0.93922 0.40159 0.67492 -0.05100
H 	H 	0.95570 0.40840 0.67830 0.03100
C 	C 	0.92052 0.39386 0.69393 -0.11200
H 	H 	0.92260 0.39470 0.71200 0.05900
C 	C 	0.89803 0.38458 0.68055 0.06900
C 	C 	0.89030 0.35720 0.51525 -0.21900
H 	H 	0.90050 0.34520 0.52430 0.08200
C 	C 	0.89020 0.35730 0.48807 0.11800
H 	H 	0.90040 0.34530 0.47890 -0.01400
O 	O 	0.88930 0.35930 0.43301 -0.53600
C 	C 	0.86290 0.39520 0.73441 -0.20300
H 	H 	0.85480 0.40870 0.72530 0.08400
C 	C 	0.86280 0.39530 0.76159 0.10400
H 	H 	0.85470 0.40890 0.77060 -0.00600
O 	O 	0.86080 0.39090 0.81687 -0.53100
C 	C 	0.96565 0.41259 0.62492 -0.44200
C 	C 	0.96930 0.43935 0.62200 0.59600
C 	C 	0.99440 0.44972 0.62200 -0.73100
H 	H 	0.99690 0.46760 0.62000 0.25700
C 	C 	0.01590 0.43330 0.62493 0.68900
C 	C 	0.01224 0.40650 0.62785 -0.73000
H 	H 	0.02660 0.39560 0.62980 0.24000
C 	C 	0.98710 0.39617 0.62784 0.58600
C 	C 	0.94600 0.45718 0.61883 -1.10100
H 	H 	0.95190 0.47490 0.61710 0.33400
H 	H 	0.93490 0.45570 0.63390 0.33300
H 	H 	0.93640 0.45220 0.60350 0.33600
C 	C 	0.04320 0.44460 0.62494 -1.20600
H 	H 	0.04230 0.46320 0.62280 0.36900
H 	H 	0.05310 0.43710 0.61080 0.35900
H 	H 	0.05160 0.44060 0.64130 0.35400
C 	C 	0.98320 0.36709 0.63101 -1.08100
H 	H 	0.99980 0.35870 0.63280 0.31800
H 	H 	0.97430 0.36030 0.61590 0.32100
H 	H 	0.97280 0.36380 0.64630 0.32700
Zn	Zn	0.37070 0.88240 0.62485 0.83700
N 	N 	0.40295 0.88667 0.59655 -0.33900
C 	C 	0.39800 0.88464 0.56930 0.06200
C 	C 	0.42041 0.89392 0.55580 -0.11800
H 	H 	0.42240 0.89480 0.53770 0.05600
C 	C 	0.43921 0.90169 0.57470 -0.05500
H 	H 	0.45570 0.90850 0.57120 0.02700
C 	C 	0.42842 0.89720 0.59988 -0.01400
C 	C 	0.43859 0.90140 0.62491 0.03300
N 	N 	0.40283 0.88659 0.65328 -0.33800
C 	C 	0.42829 0.89710 0.64980 -0.01300
C 	C 	0.43922 0.90159 0.67492 -0.05100
H 	H 	0.45570 0.90840 0.67830 0.03100
C 	C 	0.42052 0.89386 0.69393 -0.11200
H 	H 	0.42260 0.89470 0.71200 0.05900
C 	C 	0.39803 0.88458 0.68055 0.06900
C 	C 	0.39030 0.85720 0.51525 -0.21900
H 	H 	0.40050 0.84520 0.52430 0.08200
C 	C 	0.39020 0.85730 0.48807 0.11800
H 	H 	0.40040 0.84530 0.47890 -0.01400
O 	O 	0.38930 0.85930 0.43301 -0.53600
C 	C 	0.36290 0.89520 0.73441 -0.20300
H 	H 	0.35480 0.90870 0.72530 0.08400
C 	C 	0.36280 0.89530 0.76159 0.10400
H 	H 	0.35470 0.90890 0.77060 -0.00600
O 	O 	0.36080 0.89090 0.81687 -0.53100
C 	C 	0.46565 0.91259 0.62492 -0.44200
C 	C 	0.46930 0.93935 0.62200 0.59600
C 	C 	0.49440 0.94972 0.62200 -0.73100
H 	H 	0.49690 0.96760 0.62000 0.25700
C 	C 	0.51590 0.93330 0.62493 0.68900
C 	C 	0.51224 0.90650 0.62785 -0.73000
H 	H 	0.52660 0.89560 0.62980 0.24000
C 	C 	0.48710 0.89617 0.62784 0.58600
C 	C 	0.44600 0.95718 0.61883 -1.10100
H 	H 	0.45190 0.97490 0.61710 0.33400
H 	H 	0.43490 0.95570 0.63390 0.33300
H 	H 	0.43640 0.95220 0.60350 0.33600
C 	C 	0.54320 0.94460 0.62494 -1.20600
H 	H 	0.54230 0.96320 0.62280 0.36900
H 	H 	0.55310 0.93710 0.61080 0.35900
H 	H 	0.55160 0.94060 0.64130 0.35400
C 	C 	0.48320 0.86709 0.63101 -1.08100
H 	H 	0.49980 0.85870 0.63280 0.31800
H 	H 	0.47430 0.86030 0.61590 0.32100
H 	H 	0.47280 0.86380 0.64630 0.32700
Zn	Zn	0.37070 0.38240 0.12485 0.83700
N 	N 	0.40295 0.38667 0.09655 -0.33900
C 	C 	0.39800 0.38464 0.06930 0.06200
C 	C 	0.42041 0.39392 0.05580 -0.11800
H 	H 	0.42240 0.39480 0.03770 0.05600
C 	C 	0.43921 0.40169 0.07470 -0.05500
H 	H 	0.45570 0.40850 0.07120 0.02700
C 	C 	0.42842 0.39720 0.09988 -0.01400
C 	C 	0.43859 0.40140 0.12491 0.03300
N 	N 	0.40283 0.38659 0.15328 -0.33800
C 	C 	0.42829 0.39710 0.14980 -0.01300
C 	C 	0.43922 0.40159 0.17492 -0.05100
H 	H 	0.45570 0.40840 0.17830 0.03100
C 	C 	0.42052 0.39386 0.19393 -0.11200
H 	H 	0.42260 0.39470 0.21200 0.05900
C 	C 	0.39803 0.38458 0.18055 0.06900
C 	C 	0.39030 0.35720 0.01525 -0.21900
H 	H 	0.40050 0.34520 0.02430 0.08200
C 	C 	0.39020 0.35730 0.98807 0.11800
H 	H 	0.40040 0.34530 0.97890 -0.01400
O 	O 	0.38930 0.35930 0.93301 -0.53600
C 	C 	0.36290 0.39520 0.23441 -0.20300
H 	H 	0.35480 0.40870 0.22530 0.08400
C 	C 	0.36280 0.39530 0.26159 0.10400
H 	H 	0.35470 0.40890 0.27060 -0.00600
O 	O 	0.36080 0.39090 0.31687 -0.53100
C 	C 	0.46565 0.41259 0.12492 -0.44200
C 	C 	0.46930 0.43935 0.12200 0.59600
C 	C 	0.49440 0.44972 0.12200 -0.73100
H 	H 	0.49690 0.46760 0.12000 0.25700
C 	C 	0.51590 0.43330 0.12493 0.68900
C 	C 	0.51224 0.40650 0.12785 -0.73000
H 	H 	0.52660 0.39560 0.12980 0.24000
C 	C 	0.48710 0.39617 0.12784 0.58600
C 	C 	0.44600 0.45718 0.11883 -1.10100
H 	H 	0.45190 0.47490 0.11710 0.33400
H 	H 	0.43490 0.45570 0.13390 0.33300
H 	H 	0.43640 0.45220 0.10350 0.33600
C 	C 	0.54320 0.44460 0.12494 -1.20600
H 	H 	0.54230 0.46320 0.12280 0.36900
H 	H 	0.55310 0.43710 0.11080 0.35900
H 	H 	0.55160 0.44060 0.14130 0.35400
C 	C 	0.48320 0.36709 0.13101 -1.08100
H 	H 	0.49980 0.35870 0.13280 0.31800
H 	H 	0.47430 0.36030 0.11590 0.32100
H 	H 	0.47280 0.36380 0.14630 0.32700
Zn	Zn	0.37930 0.88240 0.12515 0.83700
N 	N 	0.34705 0.88667 0.15345 -0.33900
C 	C 	0.35200 0.88464 0.18070 0.06200
C 	C 	0.32959 0.89392 0.19420 -0.11800
H 	H 	0.32760 0.89480 0.21230 0.05600
C 	C 	0.31079 0.90169 0.17530 -0.05500
H 	H 	0.29430 0.90850 0.17880 0.02700
C 	C 	0.32158 0.89720 0.15012 -0.01400
C 	C 	0.31141 0.90140 0.12509 0.03300
N 	N 	0.34717 0.88659 0.09672 -0.33800
C 	C 	0.32171 0.89710 0.10020 -0.01300
C 	C 	0.31078 0.90159 0.07508 -0.05100
H 	H 	0.29430 0.90840 0.07170 0.03100
C 	C 	0.32948 0.89386 0.05607 -0.11200
H 	H 	0.32740 0.89470 0.03800 0.05900
C 	C 	0.35197 0.88458 0.06945 0.06900
C 	C 	0.35970 0.85720 0.23475 -0.21900
H 	H 	0.34950 0.84520 0.22570 0.08200
C 	C 	0.35980 0.85730 0.26193 0.11800
H 	H 	0.34960 0.84530 0.27110 -0.01400
O 	O 	0.36070 0.85930 0.31699 -0.53600
C 	C 	0.38710 0.89520 0.01559 -0.20300
H 	H 	0.39520 0.90870 0.02470 0.08400
C 	C 	0.38720 0.89530 0.98841 0.10400
H 	H 	0.39530 0.90890 0.97940 -0.00600
O 	O 	0.38920 0.89090 0.93313 -0.53100
C 	C 	0.28435 0.91259 0.12508 -0.44200
C 	C 	0.28070 0.93935 0.12800 0.59600
C 	C 	0.25560 0.94972 0.12800 -0.73100
H 	H 	0.25310 0.96760 0.13000 0.25700
C 	C 	0.23410 0.93330 0.12507 0.68900
C 	C 	0.23776 0.90650 0.12215 -0.73000
H 	H 	0.22340 0.89560 0.12020 0.24000
C 	C 	0.26290 0.89617 0.12216 0.58600
C 	C 	0.30400 0.95718 0.13117 -1.10100
H 	H 	0.29810 0.97490 0.13290 0.33400
H 	H 	0.31510 0.95570 0.11610 0.33300
H 	H 	0.31360 0.95220 0.14650 0.33600
C 	C 	0.20680 0.94460 0.12506 -1.20600
H 	H 	0.20770 0.96320 0.12720 0.36900
H 	H 	0.19690 0.93710 0.13920 0.35900
H 	H 	0.19840 0.94060 0.10870 0.35400
C 	C 	0.26680 0.86709 0.11899 -1.08100
H 	H 	0.25020 0.85870 0.11720 0.31800
H 	H 	0.27570 0.86030 0.13410 0.32100
H 	H 	0.27720 0.86380 0.10370 0.32700
Zn	Zn	0.37930 0.38240 0.62515 0.83700
N 	N 	0.34705 0.38667 0.65345 -0.33900
C 	C 	0.35200 0.38464 0.68070 0.06200
C 	C 	0.32959 0.39392 0.69420 -0.11800
H 	H 	0.32760 0.39480 0.71230 0.05600
C 	C 	0.31079 0.40169 0.67530 -0.05500
H 	H 	0.29430 0.40850 0.67880 0.02700
C 	C 	0.32158 0.39720 0.65012 -0.01400
C 	C 	0.31141 0.40140 0.62509 0.03300
N 	N 	0.34717 0.38659 0.59672 -0.33800
C 	C 	0.32171 0.39710 0.60020 -0.01300
C 	C 	0.31078 0.40159 0.57508 -0.05100
H 	H 	0.29430 0.40840 0.57170 0.03100
C 	C 	0.32948 0.39386 0.55607 -0.11200
H 	H 	0.32740 0.39470 0.53800 0.05900
C 	C 	0.35197 0.38458 0.56945 0.06900
C 	C 	0.35970 0.35720 0.73475 -0.21900
H 	H 	0.34950 0.34520 0.72570 0.08200
C 	C 	0.35980 0.35730 0.76193 0.11800
H 	H 	0.34960 0.34530 0.77110 -0.01400
O 	O 	0.36070 0.35930 0.81699 -0.53600
C 	C 	0.38710 0.39520 0.51559 -0.20300
H 	H 	0.39520 0.40870 0.52470 0.08400
C 	C 	0.38720 0.39530 0.48841 0.10400
H 	H 	0.39530 0.40890 0.47940 -0.00600
O 	O 	0.38920 0.39090 0.43313 -0.53100
C 	C 	0.28435 0.41259 0.62508 -0.44200
C 	C 	0.28070 0.43935 0.62800 0.59600
C 	C 	0.25560 0.44972 0.62800 -0.73100
H 	H 	0.25310 0.46760 0.63000 0.25700
C 	C 	0.23410 0.43330 0.62507 0.68900
C 	C 	0.23776 0.40650 0.62215 -0.73000
H 	H 	0.22340 0.39560 0.62020 0.24000
C 	C 	0.26290 0.39617 0.62216 0.58600
C 	C 	0.30400 0.45718 0.63117 -1.10100
H 	H 	0.29810 0.47490 0.63290 0.33400
H 	H 	0.31510 0.45570 0.61610 0.33300
H 	H 	0.31360 0.45220 0.64650 0.33600
C 	C 	0.20680 0.44460 0.62506 -1.20600
H 	H 	0.20770 0.46320 0.62720 0.36900
H 	H 	0.19690 0.43710 0.63920 0.35900
H 	H 	0.19840 0.44060 0.60870 0.35400
C 	C 	0.26680 0.36709 0.61899 -1.08100
H 	H 	0.25020 0.35870 0.61720 0.31800
H 	H 	0.27570 0.36030 0.63410 0.32100
H 	H 	0.27720 0.36380 0.60370 0.32700
Zn	Zn	0.87930 0.88240 0.62515 0.83700
N 	N 	0.84705 0.88667 0.65345 -0.33900
C 	C 	0.85200 0.88464 0.68070 0.06200
C 	C 	0.82959 0.89392 0.69420 -0.11800
H 	H 	0.82760 0.89480 0.71230 0.05600
C 	C 	0.81079 0.90169 0.67530 -0.05500
H 	H 	0.79430 0.90850 0.67880 0.02700
C 	C 	0.82158 0.89720 0.65012 -0.01400
C 	C 	0.81141 0.90140 0.62509 0.03300
N 	N 	0.84717 0.88659 0.59672 -0.33800
C 	C 	0.82171 0.89710 0.60020 -0.01300
C 	C 	0.81078 0.90159 0.57508 -0.05100
H 	H 	0.79430 0.90840 0.57170 0.03100
C 	C 	0.82948 0.89386 0.55607 -0.11200
H 	H 	0.82740 0.89470 0.53800 0.05900
C 	C 	0.85197 0.88458 0.56945 0.06900
C 	C 	0.85970 0.85720 0.73475 -0.21900
H 	H 	0.84950 0.84520 0.72570 0.08200
C 	C 	0.85980 0.85730 0.76193 0.11800
H 	H 	0.84960 0.84530 0.77110 -0.01400
O 	O 	0.86070 0.85930 0.81699 -0.53600
C 	C 	0.88710 0.89520 0.51559 -0.20300
H 	H 	0.89520 0.90870 0.52470 0.08400
C 	C 	0.88720 0.89530 0.48841 0.10400
H 	H 	0.89530 0.90890 0.47940 -0.00600
O 	O 	0.88920 0.89090 0.43313 -0.53100
C 	C 	0.78435 0.91259 0.62508 -0.44200
C 	C 	0.78070 0.93935 0.62800 0.59600
C 	C 	0.75560 0.94972 0.62800 -0.73100
H 	H 	0.75310 0.96760 0.63000 0.25700
C 	C 	0.73410 0.93330 0.62507 0.68900
C 	C 	0.73776 0.90650 0.62215 -0.73000
H 	H 	0.72340 0.89560 0.62020 0.24000
C 	C 	0.76290 0.89617 0.62216 0.58600
C 	C 	0.80400 0.95718 0.63117 -1.10100
H 	H 	0.79810 0.97490 0.63290 0.33400
H 	H 	0.81510 0.95570 0.61610 0.33300
H 	H 	0.81360 0.95220 0.64650 0.33600
C 	C 	0.70680 0.94460 0.62506 -1.20600
H 	H 	0.70770 0.96320 0.62720 0.36900
H 	H 	0.69690 0.93710 0.63920 0.35900
H 	H 	0.69840 0.94060 0.60870 0.35400
C 	C 	0.76680 0.86709 0.61899 -1.08100
H 	H 	0.75020 0.85870 0.61720 0.31800
H 	H 	0.77570 0.86030 0.63410 0.32100
H 	H 	0.77720 0.86380 0.60370 0.32700
Zn	Zn	0.87930 0.38240 0.12515 0.83700
N 	N 	0.84705 0.38667 0.15345 -0.33900
C 	C 	0.85200 0.38464 0.18070 0.06200
C 	C 	0.82959 0.39392 0.19420 -0.11800
H 	H 	0.82760 0.39480 0.21230 0.05600
C 	C 	0.81079 0.40169 0.17530 -0.05500
H 	H 	0.79430 0.40850 0.17880 0.02700
C 	C 	0.82158 0.39720 0.15012 -0.01400
C 	C 	0.81141 0.40140 0.12509 0.03300
N 	N 	0.84717 0.38659 0.09672 -0.33800
C 	C 	0.82171 0.39710 0.10020 -0.01300
C 	C 	0.81078 0.40159 0.07508 -0.05100
H 	H 	0.79430 0.40840 0.07170 0.03100
C 	C 	0.82948 0.39386 0.05607 -0.11200
H 	H 	0.82740 0.39470 0.03800 0.05900
C 	C 	0.85197 0.38458 0.06945 0.06900
C 	C 	0.85970 0.35720 0.23475 -0.21900
H 	H 	0.84950 0.34520 0.22570 0.08200
C 	C 	0.85980 0.35730 0.26193 0.11800
H 	H 	0.84960 0.34530 0.27110 -0.01400
O 	O 	0.86070 0.35930 0.31699 -0.53600
C 	C 	0.88710 0.39520 0.01559 -0.20300
H 	H 	0.89520 0.40870 0.02470 0.08400
C 	C 	0.88720 0.39530 0.98841 0.10400
H 	H 	0.89530 0.40890 0.97940 -0.00600
O 	O 	0.88920 0.39090 0.93313 -0.53100
C 	C 	0.78435 0.41259 0.12508 -0.44200
C 	C 	0.78070 0.43935 0.12800 0.59600
C 	C 	0.75560 0.44972 0.12800 -0.73100
H 	H 	0.75310 0.46760 0.13000 0.25700
C 	C 	0.73410 0.43330 0.12507 0.68900
C 	C 	0.73776 0.40650 0.12215 -0.73000
H 	H 	0.72340 0.39560 0.12020 0.24000
C 	C 	0.76290 0.39617 0.12216 0.58600
C 	C 	0.80400 0.45718 0.13117 -1.10100
H 	H 	0.79810 0.47490 0.13290 0.33400
H 	H 	0.81510 0.45570 0.11610 0.33300
H 	H 	0.81360 0.45220 0.14650 0.33600
C 	C 	0.70680 0.44460 0.12506 -1.20600
H 	H 	0.70770 0.46320 0.12720 0.36900
H 	H 	0.69690 0.43710 0.13920 0.35900
H 	H 	0.69840 0.44060 0.10870 0.35400
C 	C 	0.76680 0.36709 0.11899 -1.08100
H 	H 	0.75020 0.35870 0.11720 0.31800
H 	H 	0.77570 0.36030 0.13410 0.32100
H 	H 	0.77720 0.36380 0.10370 0.32700
O 	O 	0.37500 0.87500 0.37500 -0.96700
O 	O 	0.87500 0.37500 0.37500 -0.96700
O 	O 	0.87500 0.87500 0.87500 -0.96700
O 	O 	0.37500 0.37500 0.87500 -0.96700
Zn	Zn	0.35328 0.89672 0.39672 1.22000
Zn	Zn	0.89672 0.35328 0.39672 1.22000
Zn	Zn	0.89672 0.89672 0.85328 1.22000
Zn	Zn	0.35328 0.35328 0.85328 1.22000
Zn	Zn	0.39672 0.35328 0.89672 1.22000
Zn	Zn	0.39672 0.85328 0.39672 1.22000
Zn	Zn	0.39672 0.89672 0.35328 1.22000
Zn	Zn	0.39672 0.39672 0.85328 1.22000
Zn	Zn	0.85328 0.89672 0.89672 1.22000
Zn	Zn	0.85328 0.39672 0.39672 1.22000
Zn	Zn	0.85328 0.35328 0.35328 1.22000
Zn	Zn	0.85328 0.85328 0.85328 1.22000
Zn	Zn	0.89672 0.39672 0.35328 1.22000
Zn	Zn	0.35328 0.39672 0.89672 1.22000
Zn	Zn	0.89672 0.85328 0.89672 1.22000
Zn	Zn	0.35328 0.85328 0.35328 1.22000
O 	O 	0.87500 0.87500 0.37500 -0.95100
O 	O 	0.37500 0.37500 0.37500 -0.95100
O 	O 	0.37500 0.87500 0.87500 -0.95100
O 	O 	0.87500 0.37500 0.87500 -0.95100
Zn	Zn	0.89692 0.85308 0.35308 1.21900
Zn	Zn	0.35308 0.39692 0.35308 1.21900
Zn	Zn	0.35308 0.89692 0.85308 1.21900
Zn	Zn	0.85308 0.89692 0.35308 1.21900
Zn	Zn	0.35308 0.85308 0.89692 1.21900
Zn	Zn	0.85308 0.85308 0.39692 1.21900
Zn	Zn	0.89692 0.39692 0.89692 1.21900
Zn	Zn	0.85308 0.39692 0.85308 1.21900
Zn	Zn	0.35308 0.35308 0.39692 1.21900
Zn	Zn	0.85308 0.35308 0.89692 1.21900
Zn	Zn	0.89692 0.35308 0.85308 1.21900
Zn	Zn	0.89692 0.89692 0.39692 1.21900
Zn	Zn	0.39692 0.35308 0.35308 1.21900
Zn	Zn	0.39692 0.85308 0.85308 1.21900
Zn	Zn	0.39692 0.89692 0.89692 1.21900
Zn	Zn	0.39692 0.39692 0.39692 1.21900
C 	C 	0.19180 0.87500 0.37500 -0.19300
C 	C 	0.05843 0.87500 0.37500 -0.18700
C 	C 	0.22105 0.87500 0.37500 0.15700
C 	C 	0.27540 0.87500 0.37500 -0.21200
C 	C 	0.30480 0.87500 0.37500 0.44800
C 	C 	0.02908 0.87500 0.37500 0.15100
C 	C 	0.97473 0.87500 0.37500 -0.19200
C 	C 	0.94530 0.87500 0.37500 0.43800
C 	C 	0.69180 0.87500 0.87500 -0.19300
C 	C 	0.55843 0.87500 0.87500 -0.18700
C 	C 	0.72105 0.87500 0.87500 0.15700
C 	C 	0.77540 0.87500 0.87500 -0.21200
C 	C 	0.80480 0.87500 0.87500 0.44800
C 	C 	0.52908 0.87500 0.87500 0.15100
C 	C 	0.47473 0.87500 0.87500 -0.19200
C 	C 	0.44530 0.87500 0.87500 0.43800
C 	C 	0.05820 0.37500 0.37500 -0.19300
C 	C 	0.19157 0.37500 0.37500 -0.18700
C 	C 	0.02895 0.37500 0.37500 0.15700
C 	C 	0.97460 0.37500 0.37500 -0.21200
C 	C 	0.94520 0.37500 0.37500 0.44800
C 	C 	0.22092 0.37500 0.37500 0.15100
C 	C 	0.27527 0.37500 0.37500 -0.19200
C 	C 	0.30470 0.37500 0.37500 0.43800
C 	C 	0.55820 0.37500 0.87500 -0.19300
C 	C 	0.69157 0.37500 0.87500 -0.18700
C 	C 	0.52895 0.37500 0.87500 0.15700
C 	C 	0.47460 0.37500 0.87500 -0.21200
C 	C 	0.44520 0.37500 0.87500 0.44800
C 	C 	0.72092 0.37500 0.87500 0.15100
C 	C 	0.77527 0.37500 0.87500 -0.19200
C 	C 	0.80470 0.37500 0.87500 0.43800
C 	C 	0.05820 0.87500 0.87500 -0.19300
C 	C 	0.19157 0.87500 0.87500 -0.18700
C 	C 	0.02895 0.87500 0.87500 0.15700
C 	C 	0.97460 0.87500 0.87500 -0.21200
C 	C 	0.94520 0.87500 0.87500 0.44800
C 	C 	0.22092 0.87500 0.87500 0.15100
C 	C 	0.27527 0.87500 0.87500 -0.19200
C 	C 	0.30470 0.87500 0.87500 0.43800
C 	C 	0.55820 0.87500 0.37500 -0.19300
C 	C 	0.69157 0.87500 0.37500 -0.18700
C 	C 	0.52895 0.87500 0.37500 0.15700
C 	C 	0.47460 0.87500 0.37500 -0.21200
C 	C 	0.44520 0.87500 0.37500 0.44800
C 	C 	0.72092 0.87500 0.37500 0.15100
C 	C 	0.77527 0.87500 0.37500 -0.19200
C 	C 	0.80470 0.87500 0.37500 0.43800
C 	C 	0.19180 0.37500 0.87500 -0.19300
C 	C 	0.05843 0.37500 0.87500 -0.18700
C 	C 	0.22105 0.37500 0.87500 0.15700
C 	C 	0.27540 0.37500 0.87500 -0.21200
C 	C 	0.30480 0.37500 0.87500 0.44800
C 	C 	0.02908 0.37500 0.87500 0.15100
C 	C 	0.97473 0.37500 0.87500 -0.19200
C 	C 	0.94530 0.37500 0.87500 0.43800
C 	C 	0.69180 0.37500 0.37500 -0.19300
C 	C 	0.55843 0.37500 0.37500 -0.18700
C 	C 	0.72105 0.37500 0.37500 0.15700
C 	C 	0.77540 0.37500 0.37500 -0.21200
C 	C 	0.80480 0.37500 0.37500 0.44800
C 	C 	0.52908 0.37500 0.37500 0.15100
C 	C 	0.47473 0.37500 0.37500 -0.19200
C 	C 	0.44530 0.37500 0.37500 0.43800
C 	C 	0.37500 0.19180 0.87500 -0.19300
C 	C 	0.37500 0.05843 0.87500 -0.18700
C 	C 	0.37500 0.22105 0.87500 0.15700
C 	C 	0.37500 0.27540 0.87500 -0.21200
C 	C 	0.37500 0.30480 0.87500 0.44800
C 	C 	0.37500 0.02908 0.87500 0.15100
C 	C 	0.37500 0.97473 0.87500 -0.19200
C 	C 	0.37500 0.94530 0.87500 0.43800
C 	C 	0.37500 0.69180 0.37500 -0.19300
C 	C 	0.37500 0.55843 0.37500 -0.18700
C 	C 	0.37500 0.72105 0.37500 0.15700
C 	C 	0.37500 0.77540 0.37500 -0.21200
C 	C 	0.37500 0.80480 0.37500 0.44800
C 	C 	0.37500 0.52908 0.37500 0.15100
C 	C 	0.37500 0.47473 0.37500 -0.19200
C 	C 	0.37500 0.44530 0.37500 0.43800
C 	C 	0.37500 0.05820 0.37500 -0.19300
C 	C 	0.37500 0.19157 0.37500 -0.18700
C 	C 	0.37500 0.02895 0.37500 0.15700
C 	C 	0.37500 0.97460 0.37500 -0.21200
C 	C 	0.37500 0.94520 0.37500 0.44800
C 	C 	0.37500 0.22092 0.37500 0.15100
C 	C 	0.37500 0.27527 0.37500 -0.19200
C 	C 	0.37500 0.30470 0.37500 0.43800
C 	C 	0.37500 0.55820 0.87500 -0.19300
C 	C 	0.37500 0.69157 0.87500 -0.18700
C 	C 	0.37500 0.52895 0.87500 0.15700
C 	C 	0.37500 0.47460 0.87500 -0.21200
C 	C 	0.37500 0.44520 0.87500 0.44800
C 	C 	0.37500 0.72092 0.87500 0.15100
C 	C 	0.37500 0.77527 0.87500 -0.19200
C 	C 	0.37500 0.80470 0.87500 0.43800
C 	C 	0.87500 0.05820 0.87500 -0.19300
C 	C 	0.87500 0.19157 0.87500 -0.18700
C 	C 	0.87500 0.02895 0.87500 0.15700
C 	C 	0.87500 0.97460 0.87500 -0.21200
C 	C 	0.87500 0.94520 0.87500 0.44800
C 	C 	0.87500 0.22092 0.87500 0.15100
C 	C 	0.87500 0.27527 0.87500 -0.19200
C 	C 	0.87500 0.30470 0.87500 0.43800
C 	C 	0.87500 0.55820 0.37500 -0.19300
C 	C 	0.87500 0.69157 0.37500 -0.18700
C 	C 	0.87500 0.52895 0.37500 0.15700
C 	C 	0.87500 0.47460 0.37500 -0.21200
C 	C 	0.87500 0.44520 0.37500 0.44800
C 	C 	0.87500 0.72092 0.37500 0.15100
C 	C 	0.87500 0.77527 0.37500 -0.19200
C 	C 	0.87500 0.80470 0.37500 0.43800
C 	C 	0.87500 0.19180 0.37500 -0.19300
C 	C 	0.87500 0.05843 0.37500 -0.18700
C 	C 	0.87500 0.22105 0.37500 0.15700
C 	C 	0.87500 0.27540 0.37500 -0.21200
C 	C 	0.87500 0.30480 0.37500 0.44800
C 	C 	0.87500 0.02908 0.37500 0.15100
C 	C 	0.87500 0.97473 0.37500 -0.19200
C 	C 	0.87500 0.94530 0.37500 0.43800
C 	C 	0.87500 0.69180 0.87500 -0.19300
C 	C 	0.87500 0.55843 0.87500 -0.18700
C 	C 	0.87500 0.72105 0.87500 0.15700
C 	C 	0.87500 0.77540 0.87500 -0.21200
C 	C 	0.87500 0.80480 0.87500 0.44800
C 	C 	0.87500 0.52908 0.87500 0.15100
C 	C 	0.87500 0.47473 0.87500 -0.19200
C 	C 	0.87500 0.44530 0.87500 0.43800
C 	C 	0.87500 0.37500 0.19180 -0.19300
C 	C 	0.87500 0.37500 0.05843 -0.18700
C 	C 	0.87500 0.37500 0.22105 0.15700
C 	C 	0.87500 0.37500 0.27540 -0.21200
C 	C 	0.87500 0.37500 0.30480 0.44800
C 	C 	0.87500 0.37500 0.02908 0.15100
C 	C 	0.87500 0.37500 0.97473 -0.19200
C 	C 	0.87500 0.37500 0.94530 0.43800
C 	C 	0.87500 0.87500 0.69180 -0.19300
C 	C 	0.87500 0.87500 0.55843 -0.18700
C 	C 	0.87500 0.87500 0.72105 0.15700
C 	C 	0.87500 0.87500 0.77540 -0.21200
C 	C 	0.87500 0.87500 0.80480 0.44800
C 	C 	0.87500 0.87500 0.52908 0.15100
C 	C 	0.87500 0.87500 0.47473 -0.19200
C 	C 	0.87500 0.87500 0.44530 0.43800
C 	C 	0.37500 0.37500 0.05820 -0.19300
C 	C 	0.37500 0.37500 0.19157 -0.18700
C 	C 	0.37500 0.37500 0.02895 0.15700
C 	C 	0.37500 0.37500 0.97460 -0.21200
C 	C 	0.37500 0.37500 0.94520 0.44800
C 	C 	0.37500 0.37500 0.22092 0.15100
C 	C 	0.37500 0.37500 0.27527 -0.19200
C 	C 	0.37500 0.37500 0.30470 0.43800
C 	C 	0.37500 0.87500 0.55820 -0.19300
C 	C 	0.37500 0.87500 0.69157 -0.18700
C 	C 	0.37500 0.87500 0.52895 0.15700
C 	C 	0.37500 0.87500 0.47460 -0.21200
C 	C 	0.37500 0.87500 0.44520 0.44800
C 	C 	0.37500 0.87500 0.72092 0.15100
C 	C 	0.37500 0.87500 0.77527 -0.19200
C 	C 	0.37500 0.87500 0.80470 0.43800
C 	C 	0.87500 0.87500 0.05820 -0.19300
C 	C 	0.87500 0.87500 0.19157 -0.18700
C 	C 	0.87500 0.87500 0.02895 0.15700
C 	C 	0.87500 0.87500 0.97460 -0.21200
C 	C 	0.87500 0.87500 0.94520 0.44800
C 	C 	0.87500 0.87500 0.22092 0.15100
C 	C 	0.87500 0.87500 0.27527 -0.19200
C 	C 	0.87500 0.87500 0.30470 0.43800
C 	C 	0.87500 0.37500 0.55820 -0.19300
C 	C 	0.87500 0.37500 0.69157 -0.18700
C 	C 	0.87500 0.37500 0.52895 0.15700
C 	C 	0.87500 0.37500 0.47460 -0.21200
C 	C 	0.87500 0.37500 0.44520 0.44800
C 	C 	0.87500 0.37500 0.72092 0.15100
C 	C 	0.87500 0.37500 0.77527 -0.19200
C 	C 	0.87500 0.37500 0.80470 0.43800
C 	C 	0.37500 0.87500 0.19180 -0.19300
C 	C 	0.37500 0.87500 0.05843 -0.18700
C 	C 	0.37500 0.87500 0.22105 0.15700
C 	C 	0.37500 0.87500 0.27540 -0.21200
C 	C 	0.37500 0.87500 0.30480 0.44800
C 	C 	0.37500 0.87500 0.02908 0.15100
C 	C 	0.37500 0.87500 0.97473 -0.19200
C 	C 	0.37500 0.87500 0.94530 0.43800
C 	C 	0.37500 0.37500 0.69180 -0.19300
C 	C 	0.37500 0.37500 0.55843 -0.18700
C 	C 	0.37500 0.37500 0.72105 0.15700
C 	C 	0.37500 0.37500 0.77540 -0.21200
C 	C 	0.37500 0.37500 0.80480 0.44800
C 	C 	0.37500 0.37500 0.52908 0.15100
C 	C 	0.37500 0.37500 0.47473 -0.19200
C 	C 	0.37500 0.37500 0.44530 0.43800
Zn	Zn	0.87485 0.12930 0.63240 0.83700
N 	N 	0.84655 0.09705 0.63667 -0.33900
C 	C 	0.81930 0.10200 0.63464 0.06200
C 	C 	0.80580 0.07959 0.64392 -0.11800
H 	H 	0.78770 0.07760 0.64480 0.05600
C 	C 	0.82470 0.06079 0.65169 -0.05500
H 	H 	0.82120 0.04430 0.65850 0.02700
C 	C 	0.84988 0.07158 0.64720 -0.01400
C 	C 	0.87491 0.06141 0.65140 0.03300
N 	N 	0.90328 0.09717 0.63659 -0.33800
C 	C 	0.89980 0.07171 0.64710 -0.01300
C 	C 	0.92492 0.06078 0.65159 -0.05100
H 	H 	0.92830 0.04430 0.65840 0.03100
C 	C 	0.94393 0.07948 0.64386 -0.11200
H 	H 	0.96200 0.07740 0.64470 0.05900
C 	C 	0.93055 0.10197 0.63458 0.06900
C 	C 	0.76525 0.10970 0.60720 -0.21900
H 	H 	0.77430 0.09950 0.59520 0.08200
C 	C 	0.73807 0.10980 0.60730 0.11800
H 	H 	0.72890 0.09960 0.59530 -0.01400
O 	O 	0.68301 0.11070 0.60930 -0.53600
C 	C 	0.98441 0.13710 0.64520 -0.20300
H 	H 	0.97530 0.14520 0.65870 0.08400
C 	C 	0.01159 0.13720 0.64530 0.10400
H 	H 	0.02060 0.14530 0.65890 -0.00600
O 	O 	0.06687 0.13920 0.64090 -0.53100
C 	C 	0.87492 0.03435 0.66259 -0.44200
C 	C 	0.87200 0.03070 0.68935 0.59600
C 	C 	0.87200 0.00560 0.69972 -0.73100
H 	H 	0.87000 0.00310 0.71760 0.25700
C 	C 	0.87493 0.98410 0.68330 0.68900
C 	C 	0.87785 0.98776 0.65650 -0.73000
H 	H 	0.87980 0.97340 0.64560 0.24000
C 	C 	0.87784 0.01290 0.64617 0.58600
C 	C 	0.86883 0.05400 0.70718 -1.10100
H 	H 	0.86710 0.04810 0.72490 0.33400
H 	H 	0.88390 0.06510 0.70570 0.33300
H 	H 	0.85350 0.06360 0.70220 0.33600
C 	C 	0.87494 0.95680 0.69460 -1.20600
H 	H 	0.87280 0.95770 0.71320 0.36900
H 	H 	0.86080 0.94690 0.68710 0.35900
H 	H 	0.89130 0.94840 0.69060 0.35400
C 	C 	0.88101 0.01680 0.61709 -1.08100
H 	H 	0.88280 0.00020 0.60870 0.31800
H 	H 	0.86590 0.02570 0.61030 0.32100
H 	H 	0.89630 0.02720 0.61380 0.32700
Zn	Zn	0.87485 0.62930 0.13240 0.83700
N 	N 	0.84655 0.59705 0.13667 -0.33900
C 	C 	0.81930 0.60200 0.13464 0.06200
C 	C 	0.80580 0.57959 0.14392 -0.11800
H 	H 	0.78770 0.57760 0.14480 0.05600
C 	C 	0.82470 0.56079 0.15169 -0.05500
H 	H 	0.82120 0.54430 0.15850 0.02700
C 	C 	0.84988 0.57158 0.14720 -0.01400
C 	C 	0.87491 0.56141 0.15140 0.03300
N 	N 	0.90328 0.59717 0.13659 -0.33800
C 	C 	0.89980 0.57171 0.14710 -0.01300
C 	C 	0.92492 0.56078 0.15159 -0.05100
H 	H 	0.92830 0.54430 0.15840 0.03100
C 	C 	0.94393 0.57948 0.14386 -0.11200
H 	H 	0.96200 0.57740 0.14470 0.05900
C 	C 	0.93055 0.60197 0.13458 0.06900
C 	C 	0.76525 0.60970 0.10720 -0.21900
H 	H 	0.77430 0.59950 0.09520 0.08200
C 	C 	0.73807 0.60980 0.10730 0.11800
H 	H 	0.72890 0.59960 0.09530 -0.01400
O 	O 	0.68301 0.61070 0.10930 -0.53600
C 	C 	0.98441 0.63710 0.14520 -0.20300
H 	H 	0.97530 0.64520 0.15870 0.08400
C 	C 	0.01159 0.63720 0.14530 0.10400
H 	H 	0.02060 0.64530 0.15890 -0.00600
O 	O 	0.06687 0.63920 0.14090 -0.53100
C 	C 	0.87492 0.53435 0.16259 -0.44200
C 	C 	0.87200 0.53070 0.18935 0.59600
C 	C 	0.87200 0.50560 0.19972 -0.73100
H 	H 	0.87000 0.50310 0.21760 0.25700
C 	C 	0.87493 0.48410 0.18330 0.68900
C 	C 	0.87785 0.48776 0.15650 -0.73000
H 	H 	0.87980 0.47340 0.14560 0.24000
C 	C 	0.87784 0.51290 0.14617 0.58600
C 	C 	0.86883 0.55400 0.20718 -1.10100
H 	H 	0.86710 0.54810 0.22490 0.33400
H 	H 	0.88390 0.56510 0.20570 0.33300
H 	H 	0.85350 0.56360 0.20220 0.33600
C 	C 	0.87494 0.45680 0.19460 -1.20600
H 	H 	0.87280 0.45770 0.21320 0.36900
H 	H 	0.86080 0.44690 0.18710 0.35900
H 	H 	0.89130 0.44840 0.19060 0.35400
C 	C 	0.88101 0.51680 0.11709 -1.08100
H 	H 	0.88280 0.50020 0.10870 0.31800
H 	H 	0.86590 0.52570 0.11030 0.32100
H 	H 	0.89630 0.52720 0.11380 0.32700
Zn	Zn	0.37485 0.12930 0.13240 0.83700
N 	N 	0.34655 0.09705 0.13667 -0.33900
C 	C 	0.31930 0.10200 0.13464 0.06200
C 	C 	0.30580 0.07959 0.14392 -0.11800
H 	H 	0.28770 0.07760 0.14480 0.05600
C 	C 	0.32470 0.06079 0.15169 -0.05500
H 	H 	0.32120 0.04430 0.15850 0.02700
C 	C 	0.34988 0.07158 0.14720 -0.01400
C 	C 	0.37491 0.06141 0.15140 0.03300
N 	N 	0.40328 0.09717 0.13659 -0.33800
C 	C 	0.39980 0.07171 0.14710 -0.01300
C 	C 	0.42492 0.06078 0.15159 -0.05100
H 	H 	0.42830 0.04430 0.15840 0.03100
C 	C 	0.44393 0.07948 0.14386 -0.11200
H 	H 	0.46200 0.07740 0.14470 0.05900
C 	C 	0.43055 0.10197 0.13458 0.06900
C 	C 	0.26525 0.10970 0.10720 -0.21900
H 	H 	0.27430 0.09950 0.09520 0.08200
C 	C 	0.23807 0.10980 0.10730 0.11800
H 	H 	0.22890 0.09960 0.09530 -0.01400
O 	O 	0.18301 0.11070 0.10930 -0.53600
C 	C 	0.48441 0.13710 0.14520 -0.20300
H 	H 	0.47530 0.14520 0.15870 0.08400
C 	C 	0.51159 0.13720 0.14530 0.10400
H 	H 	0.52060 0.14530 0.15890 -0.00600
O 	O 	0.56687 0.13920 0.14090 -0.53100
C 	C 	0.37492 0.03435 0.16259 -0.44200
C 	C 	0.37200 0.03070 0.18935 0.59600
C 	C 	0.37200 0.00560 0.19972 -0.73100
H 	H 	0.37000 0.00310 0.21760 0.25700
C 	C 	0.37493 0.98410 0.18330 0.68900
C 	C 	0.37785 0.98776 0.15650 -0.73000
H 	H 	0.37980 0.97340 0.14560 0.24000
C 	C 	0.37784 0.01290 0.14617 0.58600
C 	C 	0.36883 0.05400 0.20718 -1.10100
H 	H 	0.36710 0.04810 0.22490 0.33400
H 	H 	0.38390 0.06510 0.20570 0.33300
H 	H 	0.35350 0.06360 0.20220 0.33600
C 	C 	0.37494 0.95680 0.19460 -1.20600
H 	H 	0.37280 0.95770 0.21320 0.36900
H 	H 	0.36080 0.94690 0.18710 0.35900
H 	H 	0.39130 0.94840 0.19060 0.35400
C 	C 	0.38101 0.01680 0.11709 -1.08100
H 	H 	0.38280 0.00020 0.10870 0.31800
H 	H 	0.36590 0.02570 0.11030 0.32100
H 	H 	0.39630 0.02720 0.11380 0.32700
Zn	Zn	0.37485 0.62930 0.63240 0.83700
N 	N 	0.34655 0.59705 0.63667 -0.33900
C 	C 	0.31930 0.60200 0.63464 0.06200
C 	C 	0.30580 0.57959 0.64392 -0.11800
H 	H 	0.28770 0.57760 0.64480 0.05600
C 	C 	0.32470 0.56079 0.65169 -0.05500
H 	H 	0.32120 0.54430 0.65850 0.02700
C 	C 	0.34988 0.57158 0.64720 -0.01400
C 	C 	0.37491 0.56141 0.65140 0.03300
N 	N 	0.40328 0.59717 0.63659 -0.33800
C 	C 	0.39980 0.57171 0.64710 -0.01300
C 	C 	0.42492 0.56078 0.65159 -0.05100
H 	H 	0.42830 0.54430 0.65840 0.03100
C 	C 	0.44393 0.57948 0.64386 -0.11200
H 	H 	0.46200 0.57740 0.64470 0.05900
C 	C 	0.43055 0.60197 0.63458 0.06900
C 	C 	0.26525 0.60970 0.60720 -0.21900
H 	H 	0.27430 0.59950 0.59520 0.08200
C 	C 	0.23807 0.60980 0.60730 0.11800
H 	H 	0.22890 0.59960 0.59530 -0.01400
O 	O 	0.18301 0.61070 0.60930 -0.53600
C 	C 	0.48441 0.63710 0.64520 -0.20300
H 	H 	0.47530 0.64520 0.65870 0.08400
C 	C 	0.51159 0.63720 0.64530 0.10400
H 	H 	0.52060 0.64530 0.65890 -0.00600
O 	O 	0.56687 0.63920 0.64090 -0.53100
C 	C 	0.37492 0.53435 0.66259 -0.44200
C 	C 	0.37200 0.53070 0.68935 0.59600
C 	C 	0.37200 0.50560 0.69972 -0.73100
H 	H 	0.37000 0.50310 0.71760 0.25700
C 	C 	0.37493 0.48410 0.68330 0.68900
C 	C 	0.37785 0.48776 0.65650 -0.73000
H 	H 	0.37980 0.47340 0.64560 0.24000
C 	C 	0.37784 0.51290 0.64617 0.58600
C 	C 	0.36883 0.55400 0.70718 -1.10100
H 	H 	0.36710 0.54810 0.72490 0.33400
H 	H 	0.38390 0.56510 0.70570 0.33300
H 	H 	0.35350 0.56360 0.70220 0.33600
C 	C 	0.37494 0.45680 0.69460 -1.20600
H 	H 	0.37280 0.45770 0.71320 0.36900
H 	H 	0.36080 0.44690 0.68710 0.35900
H 	H 	0.39130 0.44840 0.69060 0.35400
C 	C 	0.38101 0.51680 0.61709 -1.08100
H 	H 	0.38280 0.50020 0.60870 0.31800
H 	H 	0.36590 0.52570 0.61030 0.32100
H 	H 	0.39630 0.52720 0.61380 0.32700
Zn	Zn	0.87515 0.62070 0.63240 0.83700
N 	N 	0.90345 0.65295 0.63667 -0.33900
C 	C 	0.93070 0.64800 0.63464 0.06200
C 	C 	0.94420 0.67041 0.64392 -0.11800
H 	H 	0.96230 0.67240 0.64480 0.05600
C 	C 	0.92530 0.68921 0.65169 -0.05500
H 	H 	0.92880 0.70570 0.65850 0.02700
C 	C 	0.90012 0.67842 0.64720 -0.01400
C 	C 	0.87509 0.68859 0.65140 0.03300
N 	N 	0.84672 0.65283 0.63659 -0.33800
C 	C 	0.85020 0.67829 0.64710 -0.01300
C 	C 	0.82508 0.68922 0.65159 -0.05100
H 	H 	0.82170 0.70570 0.65840 0.03100
C 	C 	0.80607 0.67052 0.64386 -0.11200
H 	H 	0.78800 0.67260 0.64470 0.05900
C 	C 	0.81945 0.64803 0.63458 0.06900
C 	C 	0.98475 0.64030 0.60720 -0.21900
H 	H 	0.97570 0.65050 0.59520 0.08200
C 	C 	0.01193 0.64020 0.60730 0.11800
H 	H 	0.02110 0.65040 0.59530 -0.01400
O 	O 	0.06699 0.63930 0.60930 -0.53600
C 	C 	0.76559 0.61290 0.64520 -0.20300
H 	H 	0.77470 0.60480 0.65870 0.08400
C 	C 	0.73841 0.61280 0.64530 0.10400
H 	H 	0.72940 0.60470 0.65890 -0.00600
O 	O 	0.68313 0.61080 0.64090 -0.53100
C 	C 	0.87508 0.71565 0.66259 -0.44200
C 	C 	0.87800 0.71930 0.68935 0.59600
C 	C 	0.87800 0.74440 0.69972 -0.73100
H 	H 	0.88000 0.74690 0.71760 0.25700
C 	C 	0.87507 0.76590 0.68330 0.68900
C 	C 	0.87215 0.76224 0.65650 -0.73000
H 	H 	0.87020 0.77660 0.64560 0.24000
C 	C 	0.87216 0.73710 0.64617 0.58600
C 	C 	0.88117 0.69600 0.70718 -1.10100
H 	H 	0.88290 0.70190 0.72490 0.33400
H 	H 	0.86610 0.68490 0.70570 0.33300
H 	H 	0.89650 0.68640 0.70220 0.33600
C 	C 	0.87506 0.79320 0.69460 -1.20600
H 	H 	0.87720 0.79230 0.71320 0.36900
H 	H 	0.88920 0.80310 0.68710 0.35900
H 	H 	0.85870 0.80160 0.69060 0.35400
C 	C 	0.86899 0.73320 0.61709 -1.08100
H 	H 	0.86720 0.74980 0.60870 0.31800
H 	H 	0.88410 0.72430 0.61030 0.32100
H 	H 	0.85370 0.72280 0.61380 0.32700
Zn	Zn	0.87515 0.12070 0.13240 0.83700
N 	N 	0.90345 0.15295 0.13667 -0.33900
C 	C 	0.93070 0.14800 0.13464 0.06200
C 	C 	0.94420 0.17041 0.14392 -0.11800
H 	H 	0.96230 0.17240 0.14480 0.05600
C 	C 	0.92530 0.18921 0.15169 -0.05500
H 	H 	0.92880 0.20570 0.15850 0.02700
C 	C 	0.90012 0.17842 0.14720 -0.01400
C 	C 	0.87509 0.18859 0.15140 0.03300
N 	N 	0.84672 0.15283 0.13659 -0.33800
C 	C 	0.85020 0.17829 0.14710 -0.01300
C 	C 	0.82508 0.18922 0.15159 -0.05100
H 	H 	0.82170 0.20570 0.15840 0.03100
C 	C 	0.80607 0.17052 0.14386 -0.11200
H 	H 	0.78800 0.17260 0.14470 0.05900
C 	C 	0.81945 0.14803 0.13458 0.06900
C 	C 	0.98475 0.14030 0.10720 -0.21900
H 	H 	0.97570 0.15050 0.09520 0.08200
C 	C 	0.01193 0.14020 0.10730 0.11800
H 	H 	0.02110 0.15040 0.09530 -0.01400
O 	O 	0.06699 0.13930 0.10930 -0.53600
C 	C 	0.76559 0.11290 0.14520 -0.20300
H 	H 	0.77470 0.10480 0.15870 0.08400
C 	C 	0.73841 0.11280 0.14530 0.10400
H 	H 	0.72940 0.10470 0.15890 -0.00600
O 	O 	0.68313 0.11080 0.14090 -0.53100
C 	C 	0.87508 0.21565 0.16259 -0.44200
C 	C 	0.87800 0.21930 0.18935 0.59600
C 	C 	0.87800 0.24440 0.19972 -0.73100
H 	H 	0.88000 0.24690 0.21760 0.25700
C 	C 	0.87507 0.26590 0.18330 0.68900
C 	C 	0.87215 0.26224 0.15650 -0.73000
H 	H 	0.87020 0.27660 0.14560 0.24000
C 	C 	0.87216 0.23710 0.14617 0.58600
C 	C 	0.88117 0.19600 0.20718 -1.10100
H 	H 	0.88290 0.20190 0.22490 0.33400
H 	H 	0.86610 0.18490 0.20570 0.33300
H 	H 	0.89650 0.18640 0.20220 0.33600
C 	C 	0.87506 0.29320 0.19460 -1.20600
H 	H 	0.87720 0.29230 0.21320 0.36900
H 	H 	0.88920 0.30310 0.18710 0.35900
H 	H 	0.85870 0.30160 0.19060 0.35400
C 	C 	0.86899 0.23320 0.11709 -1.08100
H 	H 	0.86720 0.24980 0.10870 0.31800
H 	H 	0.88410 0.22430 0.11030 0.32100
H 	H 	0.85370 0.22280 0.11380 0.32700
Zn	Zn	0.37515 0.62070 0.13240 0.83700
N 	N 	0.40345 0.65295 0.13667 -0.33900
C 	C 	0.43070 0.64800 0.13464 0.06200
C 	C 	0.44420 0.67041 0.14392 -0.11800
H 	H 	0.46230 0.67240 0.14480 0.05600
C 	C 	0.42530 0.68921 0.15169 -0.05500
H 	H 	0.42880 0.70570 0.15850 0.02700
C 	C 	0.40012 0.67842 0.14720 -0.01400
C 	C 	0.37509 0.68859 0.15140 0.03300
N 	N 	0.34672 0.65283 0.13659 -0.33800
C 	C 	0.35020 0.67829 0.14710 -0.01300
C 	C 	0.32508 0.68922 0.15159 -0.05100
H 	H 	0.32170 0.70570 0.15840 0.03100
C 	C 	0.30607 0.67052 0.14386 -0.11200
H 	H 	0.28800 0.67260 0.14470 0.05900
C 	C 	0.31945 0.64803 0.13458 0.06900
C 	C 	0.48475 0.64030 0.10720 -0.21900
H 	H 	0.47570 0.65050 0.09520 0.08200
C 	C 	0.51193 0.64020 0.10730 0.11800
H 	H 	0.52110 0.65040 0.09530 -0.01400
O 	O 	0.56699 0.63930 0.10930 -0.53600
C 	C 	0.26559 0.61290 0.14520 -0.20300
H 	H 	0.27470 0.60480 0.15870 0.08400
C 	C 	0.23841 0.61280 0.14530 0.10400
H 	H 	0.22940 0.60470 0.15890 -0.00600
O 	O 	0.18313 0.61080 0.14090 -0.53100
C 	C 	0.37508 0.71565 0.16259 -0.44200
C 	C 	0.37800 0.71930 0.18935 0.59600
C 	C 	0.37800 0.74440 0.19972 -0.73100
H 	H 	0.38000 0.74690 0.21760 0.25700
C 	C 	0.37507 0.76590 0.18330 0.68900
C 	C 	0.37215 0.76224 0.15650 -0.73000
H 	H 	0.37020 0.77660 0.14560 0.24000
C 	C 	0.37216 0.73710 0.14617 0.58600
C 	C 	0.38117 0.69600 0.20718 -1.10100
H 	H 	0.38290 0.70190 0.22490 0.33400
H 	H 	0.36610 0.68490 0.20570 0.33300
H 	H 	0.39650 0.68640 0.20220 0.33600
C 	C 	0.37506 0.79320 0.19460 -1.20600
H 	H 	0.37720 0.79230 0.21320 0.36900
H 	H 	0.38920 0.80310 0.18710 0.35900
H 	H 	0.35870 0.80160 0.19060 0.35400
C 	C 	0.36899 0.73320 0.11709 -1.08100
H 	H 	0.36720 0.74980 0.10870 0.31800
H 	H 	0.38410 0.72430 0.11030 0.32100
H 	H 	0.35370 0.72280 0.11380 0.32700
Zn	Zn	0.37515 0.12070 0.63240 0.83700
N 	N 	0.40345 0.15295 0.63667 -0.33900
C 	C 	0.43070 0.14800 0.63464 0.06200
C 	C 	0.44420 0.17041 0.64392 -0.11800
H 	H 	0.46230 0.17240 0.64480 0.05600
C 	C 	0.42530 0.18921 0.65169 -0.05500
H 	H 	0.42880 0.20570 0.65850 0.02700
C 	C 	0.40012 0.17842 0.64720 -0.01400
C 	C 	0.37509 0.18859 0.65140 0.03300
N 	N 	0.34672 0.15283 0.63659 -0.33800
C 	C 	0.35020 0.17829 0.64710 -0.01300
C 	C 	0.32508 0.18922 0.65159 -0.05100
H 	H 	0.32170 0.20570 0.65840 0.03100
C 	C 	0.30607 0.17052 0.64386 -0.11200
H 	H 	0.28800 0.17260 0.64470 0.05900
C 	C 	0.31945 0.14803 0.63458 0.06900
C 	C 	0.48475 0.14030 0.60720 -0.21900
H 	H 	0.47570 0.15050 0.59520 0.08200
C 	C 	0.51193 0.14020 0.60730 0.11800
H 	H 	0.52110 0.15040 0.59530 -0.01400
O 	O 	0.56699 0.13930 0.60930 -0.53600
C 	C 	0.26559 0.11290 0.64520 -0.20300
H 	H 	0.27470 0.10480 0.65870 0.08400
C 	C 	0.23841 0.11280 0.64530 0.10400
H 	H 	0.22940 0.10470 0.65890 -0.00600
O 	O 	0.18313 0.11080 0.64090 -0.53100
C 	C 	0.37508 0.21565 0.66259 -0.44200
C 	C 	0.37800 0.21930 0.68935 0.59600
C 	C 	0.37800 0.24440 0.69972 -0.73100
H 	H 	0.38000 0.24690 0.71760 0.25700
C 	C 	0.37507 0.26590 0.68330 0.68900
C 	C 	0.37215 0.26224 0.65650 -0.73000
H 	H 	0.37020 0.27660 0.64560 0.24000
C 	C 	0.37216 0.23710 0.64617 0.58600
C 	C 	0.38117 0.19600 0.70718 -1.10100
H 	H 	0.38290 0.20190 0.72490 0.33400
H 	H 	0.36610 0.18490 0.70570 0.33300
H 	H 	0.39650 0.18640 0.70220 0.33600
C 	C 	0.37506 0.29320 0.69460 -1.20600
H 	H 	0.37720 0.29230 0.71320 0.36900
H 	H 	0.38920 0.30310 0.68710 0.35900
H 	H 	0.35870 0.30160 0.69060 0.35400
C 	C 	0.36899 0.23320 0.61709 -1.08100
H 	H 	0.36720 0.24980 0.60870 0.31800
H 	H 	0.38410 0.22430 0.61030 0.32100
H 	H 	0.35370 0.22280 0.61380 0.32700
Zn	Zn	0.87515 0.12930 0.11760 0.83700
N 	N 	0.90345 0.09705 0.11333 -0.33900
C 	C 	0.93070 0.10200 0.11536 0.06200
C 	C 	0.94420 0.07959 0.10608 -0.11800
H 	H 	0.96230 0.07760 0.10520 0.05600
C 	C 	0.92530 0.06079 0.09831 -0.05500
H 	H 	0.92880 0.04430 0.09150 0.02700
C 	C 	0.90012 0.07158 0.10280 -0.01400
C 	C 	0.87509 0.06141 0.09860 0.03300
N 	N 	0.84672 0.09717 0.11341 -0.33800
C 	C 	0.85020 0.07171 0.10290 -0.01300
C 	C 	0.82508 0.06078 0.09841 -0.05100
H 	H 	0.82170 0.04430 0.09160 0.03100
C 	C 	0.80607 0.07948 0.10614 -0.11200
H 	H 	0.78800 0.07740 0.10530 0.05900
C 	C 	0.81945 0.10197 0.11542 0.06900
C 	C 	0.98475 0.10970 0.14280 -0.21900
H 	H 	0.97570 0.09950 0.15480 0.08200
C 	C 	0.01193 0.10980 0.14270 0.11800
H 	H 	0.02110 0.09960 0.15470 -0.01400
O 	O 	0.06699 0.11070 0.14070 -0.53600
C 	C 	0.76559 0.13710 0.10480 -0.20300
H 	H 	0.77470 0.14520 0.09130 0.08400
C 	C 	0.73841 0.13720 0.10470 0.10400
H 	H 	0.72940 0.14530 0.09110 -0.00600
O 	O 	0.68313 0.13920 0.10910 -0.53100
C 	C 	0.87508 0.03435 0.08741 -0.44200
C 	C 	0.87800 0.03070 0.06065 0.59600
C 	C 	0.87800 0.00560 0.05028 -0.73100
H 	H 	0.88000 0.00310 0.03240 0.25700
C 	C 	0.87507 0.98410 0.06670 0.68900
C 	C 	0.87215 0.98776 0.09350 -0.73000
H 	H 	0.87020 0.97340 0.10440 0.24000
C 	C 	0.87216 0.01290 0.10383 0.58600
C 	C 	0.88117 0.05400 0.04282 -1.10100
H 	H 	0.88290 0.04810 0.02510 0.33400
H 	H 	0.86610 0.06510 0.04430 0.33300
H 	H 	0.89650 0.06360 0.04780 0.33600
C 	C 	0.87506 0.95680 0.05540 -1.20600
H 	H 	0.87720 0.95770 0.03680 0.36900
H 	H 	0.88920 0.94690 0.06290 0.35900
H 	H 	0.85870 0.94840 0.05940 0.35400
C 	C 	0.86899 0.01680 0.13291 -1.08100
H 	H 	0.86720 0.00020 0.14130 0.31800
H 	H 	0.88410 0.02570 0.13970 0.32100
H 	H 	0.85370 0.02720 0.13620 0.32700
Zn	Zn	0.87515 0.62930 0.61760 0.83700
N 	N 	0.90345 0.59705 0.61333 -0.33900
C 	C 	0.93070 0.60200 0.61536 0.06200
C 	C 	0.94420 0.57959 0.60608 -0.11800
H 	H 	0.96230 0.57760 0.60520 0.05600
C 	C 	0.92530 0.56079 0.59831 -0.05500
H 	H 	0.92880 0.54430 0.59150 0.02700
C 	C 	0.90012 0.57158 0.60280 -0.01400
C 	C 	0.87509 0.56141 0.59860 0.03300
N 	N 	0.84672 0.59717 0.61341 -0.33800
C 	C 	0.85020 0.57171 0.60290 -0.01300
C 	C 	0.82508 0.56078 0.59841 -0.05100
H 	H 	0.82170 0.54430 0.59160 0.03100
C 	C 	0.80607 0.57948 0.60614 -0.11200
H 	H 	0.78800 0.57740 0.60530 0.05900
C 	C 	0.81945 0.60197 0.61542 0.06900
C 	C 	0.98475 0.60970 0.64280 -0.21900
H 	H 	0.97570 0.59950 0.65480 0.08200
C 	C 	0.01193 0.60980 0.64270 0.11800
H 	H 	0.02110 0.59960 0.65470 -0.01400
O 	O 	0.06699 0.61070 0.64070 -0.53600
C 	C 	0.76559 0.63710 0.60480 -0.20300
H 	H 	0.77470 0.64520 0.59130 0.08400
C 	C 	0.73841 0.63720 0.60470 0.10400
H 	H 	0.72940 0.64530 0.59110 -0.00600
O 	O 	0.68313 0.63920 0.60910 -0.53100
C 	C 	0.87508 0.53435 0.58741 -0.44200
C 	C 	0.87800 0.53070 0.56065 0.59600
C 	C 	0.87800 0.50560 0.55028 -0.73100
H 	H 	0.88000 0.50310 0.53240 0.25700
C 	C 	0.87507 0.48410 0.56670 0.68900
C 	C 	0.87215 0.48776 0.59350 -0.73000
H 	H 	0.87020 0.47340 0.60440 0.24000
C 	C 	0.87216 0.51290 0.60383 0.58600
C 	C 	0.88117 0.55400 0.54282 -1.10100
H 	H 	0.88290 0.54810 0.52510 0.33400
H 	H 	0.86610 0.56510 0.54430 0.33300
H 	H 	0.89650 0.56360 0.54780 0.33600
C 	C 	0.87506 0.45680 0.55540 -1.20600
H 	H 	0.87720 0.45770 0.53680 0.36900
H 	H 	0.88920 0.44690 0.56290 0.35900
H 	H 	0.85870 0.44840 0.55940 0.35400
C 	C 	0.86899 0.51680 0.63291 -1.08100
H 	H 	0.86720 0.50020 0.64130 0.31800
H 	H 	0.88410 0.52570 0.63970 0.32100
H 	H 	0.85370 0.52720 0.63620 0.32700
Zn	Zn	0.37515 0.12930 0.61760 0.83700
N 	N 	0.40345 0.09705 0.61333 -0.33900
C 	C 	0.43070 0.10200 0.61536 0.06200
C 	C 	0.44420 0.07959 0.60608 -0.11800
H 	H 	0.46230 0.07760 0.60520 0.05600
C 	C 	0.42530 0.06079 0.59831 -0.05500
H 	H 	0.42880 0.04430 0.59150 0.02700
C 	C 	0.40012 0.07158 0.60280 -0.01400
C 	C 	0.37509 0.06141 0.59860 0.03300
N 	N 	0.34672 0.09717 0.61341 -0.33800
C 	C 	0.35020 0.07171 0.60290 -0.01300
C 	C 	0.32508 0.06078 0.59841 -0.05100
H 	H 	0.32170 0.04430 0.59160 0.03100
C 	C 	0.30607 0.07948 0.60614 -0.11200
H 	H 	0.28800 0.07740 0.60530 0.05900
C 	C 	0.31945 0.10197 0.61542 0.06900
C 	C 	0.48475 0.10970 0.64280 -0.21900
H 	H 	0.47570 0.09950 0.65480 0.08200
C 	C 	0.51193 0.10980 0.64270 0.11800
H 	H 	0.52110 0.09960 0.65470 -0.01400
O 	O 	0.56699 0.11070 0.64070 -0.53600
C 	C 	0.26559 0.13710 0.60480 -0.20300
H 	H 	0.27470 0.14520 0.59130 0.08400
C 	C 	0.23841 0.13720 0.60470 0.10400
H 	H 	0.22940 0.14530 0.59110 -0.00600
O 	O 	0.18313 0.13920 0.60910 -0.53100
C 	C 	0.37508 0.03435 0.58741 -0.44200
C 	C 	0.37800 0.03070 0.56065 0.59600
C 	C 	0.37800 0.00560 0.55028 -0.73100
H 	H 	0.38000 0.00310 0.53240 0.25700
C 	C 	0.37507 0.98410 0.56670 0.68900
C 	C 	0.37215 0.98776 0.59350 -0.73000
H 	H 	0.37020 0.97340 0.60440 0.24000
C 	C 	0.37216 0.01290 0.60383 0.58600
C 	C 	0.38117 0.05400 0.54282 -1.10100
H 	H 	0.38290 0.04810 0.52510 0.33400
H 	H 	0.36610 0.06510 0.54430 0.33300
H 	H 	0.39650 0.06360 0.54780 0.33600
C 	C 	0.37506 0.95680 0.55540 -1.20600
H 	H 	0.37720 0.95770 0.53680 0.36900
H 	H 	0.38920 0.94690 0.56290 0.35900
H 	H 	0.35870 0.94840 0.55940 0.35400
C 	C 	0.36899 0.01680 0.63291 -1.08100
H 	H 	0.36720 0.00020 0.64130 0.31800
H 	H 	0.38410 0.02570 0.63970 0.32100
H 	H 	0.35370 0.02720 0.63620 0.32700
Zn	Zn	0.37515 0.62930 0.11760 0.83700
N 	N 	0.40345 0.59705 0.11333 -0.33900
C 	C 	0.43070 0.60200 0.11536 0.06200
C 	C 	0.44420 0.57959 0.10608 -0.11800
H 	H 	0.46230 0.57760 0.10520 0.05600
C 	C 	0.42530 0.56079 0.09831 -0.05500
H 	H 	0.42880 0.54430 0.09150 0.02700
C 	C 	0.40012 0.57158 0.10280 -0.01400
C 	C 	0.37509 0.56141 0.09860 0.03300
N 	N 	0.34672 0.59717 0.11341 -0.33800
C 	C 	0.35020 0.57171 0.10290 -0.01300
C 	C 	0.32508 0.56078 0.09841 -0.05100
H 	H 	0.32170 0.54430 0.09160 0.03100
C 	C 	0.30607 0.57948 0.10614 -0.11200
H 	H 	0.28800 0.57740 0.10530 0.05900
C 	C 	0.31945 0.60197 0.11542 0.06900
C 	C 	0.48475 0.60970 0.14280 -0.21900
H 	H 	0.47570 0.59950 0.15480 0.08200
C 	C 	0.51193 0.60980 0.14270 0.11800
H 	H 	0.52110 0.59960 0.15470 -0.01400
O 	O 	0.56699 0.61070 0.14070 -0.53600
C 	C 	0.26559 0.63710 0.10480 -0.20300
H 	H 	0.27470 0.64520 0.09130 0.08400
C 	C 	0.23841 0.63720 0.10470 0.10400
H 	H 	0.22940 0.64530 0.09110 -0.00600
O 	O 	0.18313 0.63920 0.10910 -0.53100
C 	C 	0.37508 0.53435 0.08741 -0.44200
C 	C 	0.37800 0.53070 0.06065 0.59600
C 	C 	0.37800 0.50560 0.05028 -0.73100
H 	H 	0.38000 0.50310 0.03240 0.25700
C 	C 	0.37507 0.48410 0.06670 0.68900
C 	C 	0.37215 0.48776 0.09350 -0.73000
H 	H 	0.37020 0.47340 0.10440 0.24000
C 	C 	0.37216 0.51290 0.10383 0.58600
C 	C 	0.38117 0.55400 0.04282 -1.10100
H 	H 	0.38290 0.54810 0.02510 0.33400
H 	H 	0.36610 0.56510 0.04430 0.33300
H 	H 	0.39650 0.56360 0.04780 0.33600
C 	C 	0.37506 0.45680 0.05540 -1.20600
H 	H 	0.37720 0.45770 0.03680 0.36900
H 	H 	0.38920 0.44690 0.06290 0.35900
H 	H 	0.35870 0.44840 0.05940 0.35400
C 	C 	0.36899 0.51680 0.13291 -1.08100
H 	H 	0.36720 0.50020 0.14130 0.31800
H 	H 	0.38410 0.52570 0.13970 0.32100
H 	H 	0.35370 0.52720 0.13620 0.32700
Zn	Zn	0.87485 0.62070 0.11760 0.83700
N 	N 	0.84655 0.65295 0.11333 -0.33900
C 	C 	0.81930 0.64800 0.11536 0.06200
C 	C 	0.80580 0.67041 0.10608 -0.11800
H 	H 	0.78770 0.67240 0.10520 0.05600
C 	C 	0.82470 0.68921 0.09831 -0.05500
H 	H 	0.82120 0.70570 0.09150 0.02700
C 	C 	0.84988 0.67842 0.10280 -0.01400
C 	C 	0.87491 0.68859 0.09860 0.03300
N 	N 	0.90328 0.65283 0.11341 -0.33800
C 	C 	0.89980 0.67829 0.10290 -0.01300
C 	C 	0.92492 0.68922 0.09841 -0.05100
H 	H 	0.92830 0.70570 0.09160 0.03100
C 	C 	0.94393 0.67052 0.10614 -0.11200
H 	H 	0.96200 0.67260 0.10530 0.05900
C 	C 	0.93055 0.64803 0.11542 0.06900
C 	C 	0.76525 0.64030 0.14280 -0.21900
H 	H 	0.77430 0.65050 0.15480 0.08200
C 	C 	0.73807 0.64020 0.14270 0.11800
H 	H 	0.72890 0.65040 0.15470 -0.01400
O 	O 	0.68301 0.63930 0.14070 -0.53600
C 	C 	0.98441 0.61290 0.10480 -0.20300
H 	H 	0.97530 0.60480 0.09130 0.08400
C 	C 	0.01159 0.61280 0.10470 0.10400
H 	H 	0.02060 0.60470 0.09110 -0.00600
O 	O 	0.06687 0.61080 0.10910 -0.53100
C 	C 	0.87492 0.71565 0.08741 -0.44200
C 	C 	0.87200 0.71930 0.06065 0.59600
C 	C 	0.87200 0.74440 0.05028 -0.73100
H 	H 	0.87000 0.74690 0.03240 0.25700
C 	C 	0.87493 0.76590 0.06670 0.68900
C 	C 	0.87785 0.76224 0.09350 -0.73000
H 	H 	0.87980 0.77660 0.10440 0.24000
C 	C 	0.87784 0.73710 0.10383 0.58600
C 	C 	0.86883 0.69600 0.04282 -1.10100
H 	H 	0.86710 0.70190 0.02510 0.33400
H 	H 	0.88390 0.68490 0.04430 0.33300
H 	H 	0.85350 0.68640 0.04780 0.33600
C 	C 	0.87494 0.79320 0.05540 -1.20600
H 	H 	0.87280 0.79230 0.03680 0.36900
H 	H 	0.86080 0.80310 0.06290 0.35900
H 	H 	0.89130 0.80160 0.05940 0.35400
C 	C 	0.88101 0.73320 0.13291 -1.08100
H 	H 	0.88280 0.74980 0.14130 0.31800
H 	H 	0.86590 0.72430 0.13970 0.32100
H 	H 	0.89630 0.72280 0.13620 0.32700
Zn	Zn	0.87485 0.12070 0.61760 0.83700
N 	N 	0.84655 0.15295 0.61333 -0.33900
C 	C 	0.81930 0.14800 0.61536 0.06200
C 	C 	0.80580 0.17041 0.60608 -0.11800
H 	H 	0.78770 0.17240 0.60520 0.05600
C 	C 	0.82470 0.18921 0.59831 -0.05500
H 	H 	0.82120 0.20570 0.59150 0.02700
C 	C 	0.84988 0.17842 0.60280 -0.01400
C 	C 	0.87491 0.18859 0.59860 0.03300
N 	N 	0.90328 0.15283 0.61341 -0.33800
C 	C 	0.89980 0.17829 0.60290 -0.01300
C 	C 	0.92492 0.18922 0.59841 -0.05100
H 	H 	0.92830 0.20570 0.59160 0.03100
C 	C 	0.94393 0.17052 0.60614 -0.11200
H 	H 	0.96200 0.17260 0.60530 0.05900
C 	C 	0.93055 0.14803 0.61542 0.06900
C 	C 	0.76525 0.14030 0.64280 -0.21900
H 	H 	0.77430 0.15050 0.65480 0.08200
C 	C 	0.73807 0.14020 0.64270 0.11800
H 	H 	0.72890 0.15040 0.65470 -0.01400
O 	O 	0.68301 0.13930 0.64070 -0.53600
C 	C 	0.98441 0.11290 0.60480 -0.20300
H 	H 	0.97530 0.10480 0.59130 0.08400
C 	C 	0.01159 0.11280 0.60470 0.10400
H 	H 	0.02060 0.10470 0.59110 -0.00600
O 	O 	0.06687 0.11080 0.60910 -0.53100
C 	C 	0.87492 0.21565 0.58741 -0.44200
C 	C 	0.87200 0.21930 0.56065 0.59600
C 	C 	0.87200 0.24440 0.55028 -0.73100
H 	H 	0.87000 0.24690 0.53240 0.25700
C 	C 	0.87493 0.26590 0.56670 0.68900
C 	C 	0.87785 0.26224 0.59350 -0.73000
H 	H 	0.87980 0.27660 0.60440 0.24000
C 	C 	0.87784 0.23710 0.60383 0.58600
C 	C 	0.86883 0.19600 0.54282 -1.10100
H 	H 	0.86710 0.20190 0.52510 0.33400
H 	H 	0.88390 0.18490 0.54430 0.33300
H 	H 	0.85350 0.18640 0.54780 0.33600
C 	C 	0.87494 0.29320 0.55540 -1.20600
H 	H 	0.87280 0.29230 0.53680 0.36900
H 	H 	0.86080 0.30310 0.56290 0.35900
H 	H 	0.89130 0.30160 0.55940 0.35400
C 	C 	0.88101 0.23320 0.63291 -1.08100
H 	H 	0.88280 0.24980 0.64130 0.31800
H 	H 	0.86590 0.22430 0.63970 0.32100
H 	H 	0.89630 0.22280 0.63620 0.32700
Zn	Zn	0.37485 0.62070 0.61760 0.83700
N 	N 	0.34655 0.65295 0.61333 -0.33900
C 	C 	0.31930 0.64800 0.61536 0.06200
C 	C 	0.30580 0.67041 0.60608 -0.11800
H 	H 	0.28770 0.67240 0.60520 0.05600
C 	C 	0.32470 0.68921 0.59831 -0.05500
H 	H 	0.32120 0.70570 0.59150 0.02700
C 	C 	0.34988 0.67842 0.60280 -0.01400
C 	C 	0.37491 0.68859 0.59860 0.03300
N 	N 	0.40328 0.65283 0.61341 -0.33800
C 	C 	0.39980 0.67829 0.60290 -0.01300
C 	C 	0.42492 0.68922 0.59841 -0.05100
H 	H 	0.42830 0.70570 0.59160 0.03100
C 	C 	0.44393 0.67052 0.60614 -0.11200
H 	H 	0.46200 0.67260 0.60530 0.05900
C 	C 	0.43055 0.64803 0.61542 0.06900
C 	C 	0.26525 0.64030 0.64280 -0.21900
H 	H 	0.27430 0.65050 0.65480 0.08200
C 	C 	0.23807 0.64020 0.64270 0.11800
H 	H 	0.22890 0.65040 0.65470 -0.01400
O 	O 	0.18301 0.63930 0.64070 -0.53600
C 	C 	0.48441 0.61290 0.60480 -0.20300
H 	H 	0.47530 0.60480 0.59130 0.08400
C 	C 	0.51159 0.61280 0.60470 0.10400
H 	H 	0.52060 0.60470 0.59110 -0.00600
O 	O 	0.56687 0.61080 0.60910 -0.53100
C 	C 	0.37492 0.71565 0.58741 -0.44200
C 	C 	0.37200 0.71930 0.56065 0.59600
C 	C 	0.37200 0.74440 0.55028 -0.73100
H 	H 	0.37000 0.74690 0.53240 0.25700
C 	C 	0.37493 0.76590 0.56670 0.68900
C 	C 	0.37785 0.76224 0.59350 -0.73000
H 	H 	0.37980 0.77660 0.60440 0.24000
C 	C 	0.37784 0.73710 0.60383 0.58600
C 	C 	0.36883 0.69600 0.54282 -1.10100
H 	H 	0.36710 0.70190 0.52510 0.33400
H 	H 	0.38390 0.68490 0.54430 0.33300
H 	H 	0.35350 0.68640 0.54780 0.33600
C 	C 	0.37494 0.79320 0.55540 -1.20600
H 	H 	0.37280 0.79230 0.53680 0.36900
H 	H 	0.36080 0.80310 0.56290 0.35900
H 	H 	0.39130 0.80160 0.55940 0.35400
C 	C 	0.38101 0.73320 0.63291 -1.08100
H 	H 	0.38280 0.74980 0.64130 0.31800
H 	H 	0.36590 0.72430 0.63970 0.32100
H 	H 	0.39630 0.72280 0.63620 0.32700
Zn	Zn	0.37485 0.12070 0.11760 0.83700
N 	N 	0.34655 0.15295 0.11333 -0.33900
C 	C 	0.31930 0.14800 0.11536 0.06200
C 	C 	0.30580 0.17041 0.10608 -0.11800
H 	H 	0.28770 0.17240 0.10520 0.05600
C 	C 	0.32470 0.18921 0.09831 -0.05500
H 	H 	0.32120 0.20570 0.09150 0.02700
C 	C 	0.34988 0.17842 0.10280 -0.01400
C 	C 	0.37491 0.18859 0.09860 0.03300
N 	N 	0.40328 0.15283 0.11341 -0.33800
C 	C 	0.39980 0.17829 0.10290 -0.01300
C 	C 	0.42492 0.18922 0.09841 -0.05100
H 	H 	0.42830 0.20570 0.09160 0.03100
C 	C 	0.44393 0.17052 0.10614 -0.11200
H 	H 	0.46200 0.17260 0.10530 0.05900
C 	C 	0.43055 0.14803 0.11542 0.06900
C 	C 	0.26525 0.14030 0.14280 -0.21900
H 	H 	0.27430 0.15050 0.15480 0.08200
C 	C 	0.23807 0.14020 0.14270 0.11800
H 	H 	0.22890 0.15040 0.15470 -0.01400
O 	O 	0.18301 0.13930 0.14070 -0.53600
C 	C 	0.48441 0.11290 0.10480 -0.20300
H 	H 	0.47530 0.10480 0.09130 0.08400
C 	C 	0.51159 0.11280 0.10470 0.10400
H 	H 	0.52060 0.10470 0.09110 -0.00600
O 	O 	0.56687 0.11080 0.10910 -0.53100
C 	C 	0.37492 0.21565 0.08741 -0.44200
C 	C 	0.37200 0.21930 0.06065 0.59600
C 	C 	0.37200 0.24440 0.05028 -0.73100
H 	H 	0.37000 0.24690 0.03240 0.25700
C 	C 	0.37493 0.26590 0.06670 0.68900
C 	C 	0.37785 0.26224 0.09350 -0.73000
H 	H 	0.37980 0.27660 0.10440 0.24000
C 	C 	0.37784 0.23710 0.10383 0.58600
C 	C 	0.36883 0.19600 0.04282 -1.10100
H 	H 	0.36710 0.20190 0.02510 0.33400
H 	H 	0.38390 0.18490 0.04430 0.33300
H 	H 	0.35350 0.18640 0.04780 0.33600
C 	C 	0.37494 0.29320 0.05540 -1.20600
H 	H 	0.37280 0.29230 0.03680 0.36900
H 	H 	0.36080 0.30310 0.06290 0.35900
H 	H 	0.39130 0.30160 0.05940 0.35400
C 	C 	0.38101 0.23320 0.13291 -1.08100
H 	H 	0.38280 0.24980 0.14130 0.31800
H 	H 	0.36590 0.22430 0.13970 0.32100
H 	H 	0.39630 0.22280 0.13620 0.32700
Zn	Zn	0.63240 0.87485 0.12930 0.83700
N 	N 	0.63667 0.84655 0.09705 -0.33900
C 	C 	0.63464 0.81930 0.10200 0.06200
C 	C 	0.64392 0.80580 0.07959 -0.11800
H 	H 	0.64480 0.78770 0.07760 0.05600
C 	C 	0.65169 0.82470 0.06079 -0.05500
H 	H 	0.65850 0.82120 0.04430 0.02700
C 	C 	0.64720 0.84988 0.07158 -0.01400
C 	C 	0.65140 0.87491 0.06141 0.03300
N 	N 	0.63659 0.90328 0.09717 -0.33800
C 	C 	0.64710 0.89980 0.07171 -0.01300
C 	C 	0.65159 0.92492 0.06078 -0.05100
H 	H 	0.65840 0.92830 0.04430 0.03100
C 	C 	0.64386 0.94393 0.07948 -0.11200
H 	H 	0.64470 0.96200 0.07740 0.05900
C 	C 	0.63458 0.93055 0.10197 0.06900
C 	C 	0.60720 0.76525 0.10970 -0.21900
H 	H 	0.59520 0.77430 0.09950 0.08200
C 	C 	0.60730 0.73807 0.10980 0.11800
H 	H 	0.59530 0.72890 0.09960 -0.01400
O 	O 	0.60930 0.68301 0.11070 -0.53600
C 	C 	0.64520 0.98441 0.13710 -0.20300
H 	H 	0.65870 0.97530 0.14520 0.08400
C 	C 	0.64530 0.01159 0.13720 0.10400
H 	H 	0.65890 0.02060 0.14530 -0.00600
O 	O 	0.64090 0.06687 0.13920 -0.53100
C 	C 	0.66259 0.87492 0.03435 -0.44200
C 	C 	0.68935 0.87200 0.03070 0.59600
C 	C 	0.69972 0.87200 0.00560 -0.73100
H 	H 	0.71760 0.87000 0.00310 0.25700
C 	C 	0.68330 0.87493 0.98410 0.68900
C 	C 	0.65650 0.87785 0.98776 -0.73000
H 	H 	0.64560 0.87980 0.97340 0.24000
C 	C 	0.64617 0.87784 0.01290 0.58600
C 	C 	0.70718 0.86883 0.05400 -1.10100
H 	H 	0.72490 0.86710 0.04810 0.33400
H 	H 	0.70570 0.88390 0.06510 0.33300
H 	H 	0.70220 0.85350 0.06360 0.33600
C 	C 	0.69460 0.87494 0.95680 -1.20600
H 	H 	0.71320 0.87280 0.95770 0.36900
H 	H 	0.68710 0.86080 0.94690 0.35900
H 	H 	0.69060 0.89130 0.94840 0.35400
C 	C 	0.61709 0.88101 0.01680 -1.08100
H 	H 	0.60870 0.88280 0.00020 0.31800
H 	H 	0.61030 0.86590 0.02570 0.32100
H 	H 	0.61380 0.89630 0.02720 0.32700
Zn	Zn	0.63240 0.37485 0.62930 0.83700
N 	N 	0.63667 0.34655 0.59705 -0.33900
C 	C 	0.63464 0.31930 0.60200 0.06200
C 	C 	0.64392 0.30580 0.57959 -0.11800
H 	H 	0.64480 0.28770 0.57760 0.05600
C 	C 	0.65169 0.32470 0.56079 -0.05500
H 	H 	0.65850 0.32120 0.54430 0.02700
C 	C 	0.64720 0.34988 0.57158 -0.01400
C 	C 	0.65140 0.37491 0.56141 0.03300
N 	N 	0.63659 0.40328 0.59717 -0.33800
C 	C 	0.64710 0.39980 0.57171 -0.01300
C 	C 	0.65159 0.42492 0.56078 -0.05100
H 	H 	0.65840 0.42830 0.54430 0.03100
C 	C 	0.64386 0.44393 0.57948 -0.11200
H 	H 	0.64470 0.46200 0.57740 0.05900
C 	C 	0.63458 0.43055 0.60197 0.06900
C 	C 	0.60720 0.26525 0.60970 -0.21900
H 	H 	0.59520 0.27430 0.59950 0.08200
C 	C 	0.60730 0.23807 0.60980 0.11800
H 	H 	0.59530 0.22890 0.59960 -0.01400
O 	O 	0.60930 0.18301 0.61070 -0.53600
C 	C 	0.64520 0.48441 0.63710 -0.20300
H 	H 	0.65870 0.47530 0.64520 0.08400
C 	C 	0.64530 0.51159 0.63720 0.10400
H 	H 	0.65890 0.52060 0.64530 -0.00600
O 	O 	0.64090 0.56687 0.63920 -0.53100
C 	C 	0.66259 0.37492 0.53435 -0.44200
C 	C 	0.68935 0.37200 0.53070 0.59600
C 	C 	0.69972 0.37200 0.50560 -0.73100
H 	H 	0.71760 0.37000 0.50310 0.25700
C 	C 	0.68330 0.37493 0.48410 0.68900
C 	C 	0.65650 0.37785 0.48776 -0.73000
H 	H 	0.64560 0.37980 0.47340 0.24000
C 	C 	0.64617 0.37784 0.51290 0.58600
C 	C 	0.70718 0.36883 0.55400 -1.10100
H 	H 	0.72490 0.36710 0.54810 0.33400
H 	H 	0.70570 0.38390 0.56510 0.33300
H 	H 	0.70220 0.35350 0.56360 0.33600
C 	C 	0.69460 0.37494 0.45680 -1.20600
H 	H 	0.71320 0.37280 0.45770 0.36900
H 	H 	0.68710 0.36080 0.44690 0.35900
H 	H 	0.69060 0.39130 0.44840 0.35400
C 	C 	0.61709 0.38101 0.51680 -1.08100
H 	H 	0.60870 0.38280 0.50020 0.31800
H 	H 	0.61030 0.36590 0.52570 0.32100
H 	H 	0.61380 0.39630 0.52720 0.32700
Zn	Zn	0.13240 0.87485 0.62930 0.83700
N 	N 	0.13667 0.84655 0.59705 -0.33900
C 	C 	0.13464 0.81930 0.60200 0.06200
C 	C 	0.14392 0.80580 0.57959 -0.11800
H 	H 	0.14480 0.78770 0.57760 0.05600
C 	C 	0.15169 0.82470 0.56079 -0.05500
H 	H 	0.15850 0.82120 0.54430 0.02700
C 	C 	0.14720 0.84988 0.57158 -0.01400
C 	C 	0.15140 0.87491 0.56141 0.03300
N 	N 	0.13659 0.90328 0.59717 -0.33800
C 	C 	0.14710 0.89980 0.57171 -0.01300
C 	C 	0.15159 0.92492 0.56078 -0.05100
H 	H 	0.15840 0.92830 0.54430 0.03100
C 	C 	0.14386 0.94393 0.57948 -0.11200
H 	H 	0.14470 0.96200 0.57740 0.05900
C 	C 	0.13458 0.93055 0.60197 0.06900
C 	C 	0.10720 0.76525 0.60970 -0.21900
H 	H 	0.09520 0.77430 0.59950 0.08200
C 	C 	0.10730 0.73807 0.60980 0.11800
H 	H 	0.09530 0.72890 0.59960 -0.01400
O 	O 	0.10930 0.68301 0.61070 -0.53600
C 	C 	0.14520 0.98441 0.63710 -0.20300
H 	H 	0.15870 0.97530 0.64520 0.08400
C 	C 	0.14530 0.01159 0.63720 0.10400
H 	H 	0.15890 0.02060 0.64530 -0.00600
O 	O 	0.14090 0.06687 0.63920 -0.53100
C 	C 	0.16259 0.87492 0.53435 -0.44200
C 	C 	0.18935 0.87200 0.53070 0.59600
C 	C 	0.19972 0.87200 0.50560 -0.73100
H 	H 	0.21760 0.87000 0.50310 0.25700
C 	C 	0.18330 0.87493 0.48410 0.68900
C 	C 	0.15650 0.87785 0.48776 -0.73000
H 	H 	0.14560 0.87980 0.47340 0.24000
C 	C 	0.14617 0.87784 0.51290 0.58600
C 	C 	0.20718 0.86883 0.55400 -1.10100
H 	H 	0.22490 0.86710 0.54810 0.33400
H 	H 	0.20570 0.88390 0.56510 0.33300
H 	H 	0.20220 0.85350 0.56360 0.33600
C 	C 	0.19460 0.87494 0.45680 -1.20600
H 	H 	0.21320 0.87280 0.45770 0.36900
H 	H 	0.18710 0.86080 0.44690 0.35900
H 	H 	0.19060 0.89130 0.44840 0.35400
C 	C 	0.11709 0.88101 0.51680 -1.08100
H 	H 	0.10870 0.88280 0.50020 0.31800
H 	H 	0.11030 0.86590 0.52570 0.32100
H 	H 	0.11380 0.89630 0.52720 0.32700
Zn	Zn	0.13240 0.37485 0.12930 0.83700
N 	N 	0.13667 0.34655 0.09705 -0.33900
C 	C 	0.13464 0.31930 0.10200 0.06200
C 	C 	0.14392 0.30580 0.07959 -0.11800
H 	H 	0.14480 0.28770 0.07760 0.05600
C 	C 	0.15169 0.32470 0.06079 -0.05500
H 	H 	0.15850 0.32120 0.04430 0.02700
C 	C 	0.14720 0.34988 0.07158 -0.01400
C 	C 	0.15140 0.37491 0.06141 0.03300
N 	N 	0.13659 0.40328 0.09717 -0.33800
C 	C 	0.14710 0.39980 0.07171 -0.01300
C 	C 	0.15159 0.42492 0.06078 -0.05100
H 	H 	0.15840 0.42830 0.04430 0.03100
C 	C 	0.14386 0.44393 0.07948 -0.11200
H 	H 	0.14470 0.46200 0.07740 0.05900
C 	C 	0.13458 0.43055 0.10197 0.06900
C 	C 	0.10720 0.26525 0.10970 -0.21900
H 	H 	0.09520 0.27430 0.09950 0.08200
C 	C 	0.10730 0.23807 0.10980 0.11800
H 	H 	0.09530 0.22890 0.09960 -0.01400
O 	O 	0.10930 0.18301 0.11070 -0.53600
C 	C 	0.14520 0.48441 0.13710 -0.20300
H 	H 	0.15870 0.47530 0.14520 0.08400
C 	C 	0.14530 0.51159 0.13720 0.10400
H 	H 	0.15890 0.52060 0.14530 -0.00600
O 	O 	0.14090 0.56687 0.13920 -0.53100
C 	C 	0.16259 0.37492 0.03435 -0.44200
C 	C 	0.18935 0.37200 0.03070 0.59600
C 	C 	0.19972 0.37200 0.00560 -0.73100
H 	H 	0.21760 0.37000 0.00310 0.25700
C 	C 	0.18330 0.37493 0.98410 0.68900
C 	C 	0.15650 0.37785 0.98776 -0.73000
H 	H 	0.14560 0.37980 0.97340 0.24000
C 	C 	0.14617 0.37784 0.01290 0.58600
C 	C 	0.20718 0.36883 0.05400 -1.10100
H 	H 	0.22490 0.36710 0.04810 0.33400
H 	H 	0.20570 0.38390 0.06510 0.33300
H 	H 	0.20220 0.35350 0.06360 0.33600
C 	C 	0.19460 0.37494 0.95680 -1.20600
H 	H 	0.21320 0.37280 0.95770 0.36900
H 	H 	0.18710 0.36080 0.94690 0.35900
H 	H 	0.19060 0.39130 0.94840 0.35400
C 	C 	0.11709 0.38101 0.01680 -1.08100
H 	H 	0.10870 0.38280 0.00020 0.31800
H 	H 	0.11030 0.36590 0.02570 0.32100
H 	H 	0.11380 0.39630 0.02720 0.32700
Zn	Zn	0.63240 0.87515 0.62070 0.83700
N 	N 	0.63667 0.90345 0.65295 -0.33900
C 	C 	0.63464 0.93070 0.64800 0.06200
C 	C 	0.64392 0.94420 0.67041 -0.11800
H 	H 	0.64480 0.96230 0.67240 0.05600
C 	C 	0.65169 0.92530 0.68921 -0.05500
H 	H 	0.65850 0.92880 0.70570 0.02700
C 	C 	0.64720 0.90012 0.67842 -0.01400
C 	C 	0.65140 0.87509 0.68859 0.03300
N 	N 	0.63659 0.84672 0.65283 -0.33800
C 	C 	0.64710 0.85020 0.67829 -0.01300
C 	C 	0.65159 0.82508 0.68922 -0.05100
H 	H 	0.65840 0.82170 0.70570 0.03100
C 	C 	0.64386 0.80607 0.67052 -0.11200
H 	H 	0.64470 0.78800 0.67260 0.05900
C 	C 	0.63458 0.81945 0.64803 0.06900
C 	C 	0.60720 0.98475 0.64030 -0.21900
H 	H 	0.59520 0.97570 0.65050 0.08200
C 	C 	0.60730 0.01193 0.64020 0.11800
H 	H 	0.59530 0.02110 0.65040 -0.01400
O 	O 	0.60930 0.06699 0.63930 -0.53600
C 	C 	0.64520 0.76559 0.61290 -0.20300
H 	H 	0.65870 0.77470 0.60480 0.08400
C 	C 	0.64530 0.73841 0.61280 0.10400
H 	H 	0.65890 0.72940 0.60470 -0.00600
O 	O 	0.64090 0.68313 0.61080 -0.53100
C 	C 	0.66259 0.87508 0.71565 -0.44200
C 	C 	0.68935 0.87800 0.71930 0.59600
C 	C 	0.69972 0.87800 0.74440 -0.73100
H 	H 	0.71760 0.88000 0.74690 0.25700
C 	C 	0.68330 0.87507 0.76590 0.68900
C 	C 	0.65650 0.87215 0.76224 -0.73000
H 	H 	0.64560 0.87020 0.77660 0.24000
C 	C 	0.64617 0.87216 0.73710 0.58600
C 	C 	0.70718 0.88117 0.69600 -1.10100
H 	H 	0.72490 0.88290 0.70190 0.33400
H 	H 	0.70570 0.86610 0.68490 0.33300
H 	H 	0.70220 0.89650 0.68640 0.33600
C 	C 	0.69460 0.87506 0.79320 -1.20600
H 	H 	0.71320 0.87720 0.79230 0.36900
H 	H 	0.68710 0.88920 0.80310 0.35900
H 	H 	0.69060 0.85870 0.80160 0.35400
C 	C 	0.61709 0.86899 0.73320 -1.08100
H 	H 	0.60870 0.86720 0.74980 0.31800
H 	H 	0.61030 0.88410 0.72430 0.32100
H 	H 	0.61380 0.85370 0.72280 0.32700
Zn	Zn	0.63240 0.37515 0.12070 0.83700
N 	N 	0.63667 0.40345 0.15295 -0.33900
C 	C 	0.63464 0.43070 0.14800 0.06200
C 	C 	0.64392 0.44420 0.17041 -0.11800
H 	H 	0.64480 0.46230 0.17240 0.05600
C 	C 	0.65169 0.42530 0.18921 -0.05500
H 	H 	0.65850 0.42880 0.20570 0.02700
C 	C 	0.64720 0.40012 0.17842 -0.01400
C 	C 	0.65140 0.37509 0.18859 0.03300
N 	N 	0.63659 0.34672 0.15283 -0.33800
C 	C 	0.64710 0.35020 0.17829 -0.01300
C 	C 	0.65159 0.32508 0.18922 -0.05100
H 	H 	0.65840 0.32170 0.20570 0.03100
C 	C 	0.64386 0.30607 0.17052 -0.11200
H 	H 	0.64470 0.28800 0.17260 0.05900
C 	C 	0.63458 0.31945 0.14803 0.06900
C 	C 	0.60720 0.48475 0.14030 -0.21900
H 	H 	0.59520 0.47570 0.15050 0.08200
C 	C 	0.60730 0.51193 0.14020 0.11800
H 	H 	0.59530 0.52110 0.15040 -0.01400
O 	O 	0.60930 0.56699 0.13930 -0.53600
C 	C 	0.64520 0.26559 0.11290 -0.20300
H 	H 	0.65870 0.27470 0.10480 0.08400
C 	C 	0.64530 0.23841 0.11280 0.10400
H 	H 	0.65890 0.22940 0.10470 -0.00600
O 	O 	0.64090 0.18313 0.11080 -0.53100
C 	C 	0.66259 0.37508 0.21565 -0.44200
C 	C 	0.68935 0.37800 0.21930 0.59600
C 	C 	0.69972 0.37800 0.24440 -0.73100
H 	H 	0.71760 0.38000 0.24690 0.25700
C 	C 	0.68330 0.37507 0.26590 0.68900
C 	C 	0.65650 0.37215 0.26224 -0.73000
H 	H 	0.64560 0.37020 0.27660 0.24000
C 	C 	0.64617 0.37216 0.23710 0.58600
C 	C 	0.70718 0.38117 0.19600 -1.10100
H 	H 	0.72490 0.38290 0.20190 0.33400
H 	H 	0.70570 0.36610 0.18490 0.33300
H 	H 	0.70220 0.39650 0.18640 0.33600
C 	C 	0.69460 0.37506 0.29320 -1.20600
H 	H 	0.71320 0.37720 0.29230 0.36900
H 	H 	0.68710 0.38920 0.30310 0.35900
H 	H 	0.69060 0.35870 0.30160 0.35400
C 	C 	0.61709 0.36899 0.23320 -1.08100
H 	H 	0.60870 0.36720 0.24980 0.31800
H 	H 	0.61030 0.38410 0.22430 0.32100
H 	H 	0.61380 0.35370 0.22280 0.32700
Zn	Zn	0.13240 0.87515 0.12070 0.83700
N 	N 	0.13667 0.90345 0.15295 -0.33900
C 	C 	0.13464 0.93070 0.14800 0.06200
C 	C 	0.14392 0.94420 0.17041 -0.11800
H 	H 	0.14480 0.96230 0.17240 0.05600
C 	C 	0.15169 0.92530 0.18921 -0.05500
H 	H 	0.15850 0.92880 0.20570 0.02700
C 	C 	0.14720 0.90012 0.17842 -0.01400
C 	C 	0.15140 0.87509 0.18859 0.03300
N 	N 	0.13659 0.84672 0.15283 -0.33800
C 	C 	0.14710 0.85020 0.17829 -0.01300
C 	C 	0.15159 0.82508 0.18922 -0.05100
H 	H 	0.15840 0.82170 0.20570 0.03100
C 	C 	0.14386 0.80607 0.17052 -0.11200
H 	H 	0.14470 0.78800 0.17260 0.05900
C 	C 	0.13458 0.81945 0.14803 0.06900
C 	C 	0.10720 0.98475 0.14030 -0.21900
H 	H 	0.09520 0.97570 0.15050 0.08200
C 	C 	0.10730 0.01193 0.14020 0.11800
H 	H 	0.09530 0.02110 0.15040 -0.01400
O 	O 	0.10930 0.06699 0.13930 -0.53600
C 	C 	0.14520 0.76559 0.11290 -0.20300
H 	H 	0.15870 0.77470 0.10480 0.08400
C 	C 	0.14530 0.73841 0.11280 0.10400
H 	H 	0.15890 0.72940 0.10470 -0.00600
O 	O 	0.14090 0.68313 0.11080 -0.53100
C 	C 	0.16259 0.87508 0.21565 -0.44200
C 	C 	0.18935 0.87800 0.21930 0.59600
C 	C 	0.19972 0.87800 0.24440 -0.73100
H 	H 	0.21760 0.88000 0.24690 0.25700
C 	C 	0.18330 0.87507 0.26590 0.68900
C 	C 	0.15650 0.87215 0.26224 -0.73000
H 	H 	0.14560 0.87020 0.27660 0.24000
C 	C 	0.14617 0.87216 0.23710 0.58600
C 	C 	0.20718 0.88117 0.19600 -1.10100
H 	H 	0.22490 0.88290 0.20190 0.33400
H 	H 	0.20570 0.86610 0.18490 0.33300
H 	H 	0.20220 0.89650 0.18640 0.33600
C 	C 	0.19460 0.87506 0.29320 -1.20600
H 	H 	0.21320 0.87720 0.29230 0.36900
H 	H 	0.18710 0.88920 0.30310 0.35900
H 	H 	0.19060 0.85870 0.30160 0.35400
C 	C 	0.11709 0.86899 0.23320 -1.08100
H 	H 	0.10870 0.86720 0.24980 0.31800
H 	H 	0.11030 0.88410 0.22430 0.32100
H 	H 	0.11380 0.85370 0.22280 0.32700
Zn	Zn	0.13240 0.37515 0.62070 0.83700
N 	N 	0.13667 0.40345 0.65295 -0.33900
C 	C 	0.13464 0.43070 0.64800 0.06200
C 	C 	0.14392 0.44420 0.67041 -0.11800
H 	H 	0.14480 0.46230 0.67240 0.05600
C 	C 	0.15169 0.42530 0.68921 -0.05500
H 	H 	0.15850 0.42880 0.70570 0.02700
C 	C 	0.14720 0.40012 0.67842 -0.01400
C 	C 	0.15140 0.37509 0.68859 0.03300
N 	N 	0.13659 0.34672 0.65283 -0.33800
C 	C 	0.14710 0.35020 0.67829 -0.01300
C 	C 	0.15159 0.32508 0.68922 -0.05100
H 	H 	0.15840 0.32170 0.70570 0.03100
C 	C 	0.14386 0.30607 0.67052 -0.11200
H 	H 	0.14470 0.28800 0.67260 0.05900
C 	C 	0.13458 0.31945 0.64803 0.06900
C 	C 	0.10720 0.48475 0.64030 -0.21900
H 	H 	0.09520 0.47570 0.65050 0.08200
C 	C 	0.10730 0.51193 0.64020 0.11800
H 	H 	0.09530 0.52110 0.65040 -0.01400
O 	O 	0.10930 0.56699 0.63930 -0.53600
C 	C 	0.14520 0.26559 0.61290 -0.20300
H 	H 	0.15870 0.27470 0.60480 0.08400
C 	C 	0.14530 0.23841 0.61280 0.10400
H 	H 	0.15890 0.22940 0.60470 -0.00600
O 	O 	0.14090 0.18313 0.61080 -0.53100
C 	C 	0.16259 0.37508 0.71565 -0.44200
C 	C 	0.18935 0.37800 0.71930 0.59600
C 	C 	0.19972 0.37800 0.74440 -0.73100
H 	H 	0.21760 0.38000 0.74690 0.25700
C 	C 	0.18330 0.37507 0.76590 0.68900
C 	C 	0.15650 0.37215 0.76224 -0.73000
H 	H 	0.14560 0.37020 0.77660 0.24000
C 	C 	0.14617 0.37216 0.73710 0.58600
C 	C 	0.20718 0.38117 0.69600 -1.10100
H 	H 	0.22490 0.38290 0.70190 0.33400
H 	H 	0.20570 0.36610 0.68490 0.33300
H 	H 	0.20220 0.39650 0.68640 0.33600
C 	C 	0.19460 0.37506 0.79320 -1.20600
H 	H 	0.21320 0.37720 0.79230 0.36900
H 	H 	0.18710 0.38920 0.80310 0.35900
H 	H 	0.19060 0.35870 0.80160 0.35400
C 	C 	0.11709 0.36899 0.73320 -1.08100
H 	H 	0.10870 0.36720 0.74980 0.31800
H 	H 	0.11030 0.38410 0.72430 0.32100
H 	H 	0.11380 0.35370 0.72280 0.32700
Zn	Zn	0.11760 0.87515 0.12930 0.83700
N 	N 	0.11333 0.90345 0.09705 -0.33900
C 	C 	0.11536 0.93070 0.10200 0.06200
C 	C 	0.10608 0.94420 0.07959 -0.11800
H 	H 	0.10520 0.96230 0.07760 0.05600
C 	C 	0.09831 0.92530 0.06079 -0.05500
H 	H 	0.09150 0.92880 0.04430 0.02700
C 	C 	0.10280 0.90012 0.07158 -0.01400
C 	C 	0.09860 0.87509 0.06141 0.03300
N 	N 	0.11341 0.84672 0.09717 -0.33800
C 	C 	0.10290 0.85020 0.07171 -0.01300
C 	C 	0.09841 0.82508 0.06078 -0.05100
H 	H 	0.09160 0.82170 0.04430 0.03100
C 	C 	0.10614 0.80607 0.07948 -0.11200
H 	H 	0.10530 0.78800 0.07740 0.05900
C 	C 	0.11542 0.81945 0.10197 0.06900
C 	C 	0.14280 0.98475 0.10970 -0.21900
H 	H 	0.15480 0.97570 0.09950 0.08200
C 	C 	0.14270 0.01193 0.10980 0.11800
H 	H 	0.15470 0.02110 0.09960 -0.01400
O 	O 	0.14070 0.06699 0.11070 -0.53600
C 	C 	0.10480 0.76559 0.13710 -0.20300
H 	H 	0.09130 0.77470 0.14520 0.08400
C 	C 	0.10470 0.73841 0.13720 0.10400
H 	H 	0.09110 0.72940 0.14530 -0.00600
O 	O 	0.10910 0.68313 0.13920 -0.53100
C 	C 	0.08741 0.87508 0.03435 -0.44200
C 	C 	0.06065 0.87800 0.03070 0.59600
C 	C 	0.05028 0.87800 0.00560 -0.73100
H 	H 	0.03240 0.88000 0.00310 0.25700
C 	C 	0.06670 0.87507 0.98410 0.68900
C 	C 	0.09350 0.87215 0.98776 -0.73000
H 	H 	0.10440 0.87020 0.97340 0.24000
C 	C 	0.10383 0.87216 0.01290 0.58600
C 	C 	0.04282 0.88117 0.05400 -1.10100
H 	H 	0.02510 0.88290 0.04810 0.33400
H 	H 	0.04430 0.86610 0.06510 0.33300
H 	H 	0.04780 0.89650 0.06360 0.33600
C 	C 	0.05540 0.87506 0.95680 -1.20600
H 	H 	0.03680 0.87720 0.95770 0.36900
H 	H 	0.06290 0.88920 0.94690 0.35900
H 	H 	0.05940 0.85870 0.94840 0.35400
C 	C 	0.13291 0.86899 0.01680 -1.08100
H 	H 	0.14130 0.86720 0.00020 0.31800
H 	H 	0.13970 0.88410 0.02570 0.32100
H 	H 	0.13620 0.85370 0.02720 0.32700
Zn	Zn	0.11760 0.37515 0.62930 0.83700
N 	N 	0.11333 0.40345 0.59705 -0.33900
C 	C 	0.11536 0.43070 0.60200 0.06200
C 	C 	0.10608 0.44420 0.57959 -0.11800
H 	H 	0.10520 0.46230 0.57760 0.05600
C 	C 	0.09831 0.42530 0.56079 -0.05500
H 	H 	0.09150 0.42880 0.54430 0.02700
C 	C 	0.10280 0.40012 0.57158 -0.01400
C 	C 	0.09860 0.37509 0.56141 0.03300
N 	N 	0.11341 0.34672 0.59717 -0.33800
C 	C 	0.10290 0.35020 0.57171 -0.01300
C 	C 	0.09841 0.32508 0.56078 -0.05100
H 	H 	0.09160 0.32170 0.54430 0.03100
C 	C 	0.10614 0.30607 0.57948 -0.11200
H 	H 	0.10530 0.28800 0.57740 0.05900
C 	C 	0.11542 0.31945 0.60197 0.06900
C 	C 	0.14280 0.48475 0.60970 -0.21900
H 	H 	0.15480 0.47570 0.59950 0.08200
C 	C 	0.14270 0.51193 0.60980 0.11800
H 	H 	0.15470 0.52110 0.59960 -0.01400
O 	O 	0.14070 0.56699 0.61070 -0.53600
C 	C 	0.10480 0.26559 0.63710 -0.20300
H 	H 	0.09130 0.27470 0.64520 0.08400
C 	C 	0.10470 0.23841 0.63720 0.10400
H 	H 	0.09110 0.22940 0.64530 -0.00600
O 	O 	0.10910 0.18313 0.63920 -0.53100
C 	C 	0.08741 0.37508 0.53435 -0.44200
C 	C 	0.06065 0.37800 0.53070 0.59600
C 	C 	0.05028 0.37800 0.50560 -0.73100
H 	H 	0.03240 0.38000 0.50310 0.25700
C 	C 	0.06670 0.37507 0.48410 0.68900
C 	C 	0.09350 0.37215 0.48776 -0.73000
H 	H 	0.10440 0.37020 0.47340 0.24000
C 	C 	0.10383 0.37216 0.51290 0.58600
C 	C 	0.04282 0.38117 0.55400 -1.10100
H 	H 	0.02510 0.38290 0.54810 0.33400
H 	H 	0.04430 0.36610 0.56510 0.33300
H 	H 	0.04780 0.39650 0.56360 0.33600
C 	C 	0.05540 0.37506 0.45680 -1.20600
H 	H 	0.03680 0.37720 0.45770 0.36900
H 	H 	0.06290 0.38920 0.44690 0.35900
H 	H 	0.05940 0.35870 0.44840 0.35400
C 	C 	0.13291 0.36899 0.51680 -1.08100
H 	H 	0.14130 0.36720 0.50020 0.31800
H 	H 	0.13970 0.38410 0.52570 0.32100
H 	H 	0.13620 0.35370 0.52720 0.32700
Zn	Zn	0.61760 0.87515 0.62930 0.83700
N 	N 	0.61333 0.90345 0.59705 -0.33900
C 	C 	0.61536 0.93070 0.60200 0.06200
C 	C 	0.60608 0.94420 0.57959 -0.11800
H 	H 	0.60520 0.96230 0.57760 0.05600
C 	C 	0.59831 0.92530 0.56079 -0.05500
H 	H 	0.59150 0.92880 0.54430 0.02700
C 	C 	0.60280 0.90012 0.57158 -0.01400
C 	C 	0.59860 0.87509 0.56141 0.03300
N 	N 	0.61341 0.84672 0.59717 -0.33800
C 	C 	0.60290 0.85020 0.57171 -0.01300
C 	C 	0.59841 0.82508 0.56078 -0.05100
H 	H 	0.59160 0.82170 0.54430 0.03100
C 	C 	0.60614 0.80607 0.57948 -0.11200
H 	H 	0.60530 0.78800 0.57740 0.05900
C 	C 	0.61542 0.81945 0.60197 0.06900
C 	C 	0.64280 0.98475 0.60970 -0.21900
H 	H 	0.65480 0.97570 0.59950 0.08200
C 	C 	0.64270 0.01193 0.60980 0.11800
H 	H 	0.65470 0.02110 0.59960 -0.01400
O 	O 	0.64070 0.06699 0.61070 -0.53600
C 	C 	0.60480 0.76559 0.63710 -0.20300
H 	H 	0.59130 0.77470 0.64520 0.08400
C 	C 	0.60470 0.73841 0.63720 0.10400
H 	H 	0.59110 0.72940 0.64530 -0.00600
O 	O 	0.60910 0.68313 0.63920 -0.53100
C 	C 	0.58741 0.87508 0.53435 -0.44200
C 	C 	0.56065 0.87800 0.53070 0.59600
C 	C 	0.55028 0.87800 0.50560 -0.73100
H 	H 	0.53240 0.88000 0.50310 0.25700
C 	C 	0.56670 0.87507 0.48410 0.68900
C 	C 	0.59350 0.87215 0.48776 -0.73000
H 	H 	0.60440 0.87020 0.47340 0.24000
C 	C 	0.60383 0.87216 0.51290 0.58600
C 	C 	0.54282 0.88117 0.55400 -1.10100
H 	H 	0.52510 0.88290 0.54810 0.33400
H 	H 	0.54430 0.86610 0.56510 0.33300
H 	H 	0.54780 0.89650 0.56360 0.33600
C 	C 	0.55540 0.87506 0.45680 -1.20600
H 	H 	0.53680 0.87720 0.45770 0.36900
H 	H 	0.56290 0.88920 0.44690 0.35900
H 	H 	0.55940 0.85870 0.44840 0.35400
C 	C 	0.63291 0.86899 0.51680 -1.08100
H 	H 	0.64130 0.86720 0.50020 0.31800
H 	H 	0.63970 0.88410 0.52570 0.32100
H 	H 	0.63620 0.85370 0.52720 0.32700
Zn	Zn	0.61760 0.37515 0.12930 0.83700
N 	N 	0.61333 0.40345 0.09705 -0.33900
C 	C 	0.61536 0.43070 0.10200 0.06200
C 	C 	0.60608 0.44420 0.07959 -0.11800
H 	H 	0.60520 0.46230 0.07760 0.05600
C 	C 	0.59831 0.42530 0.06079 -0.05500
H 	H 	0.59150 0.42880 0.04430 0.02700
C 	C 	0.60280 0.40012 0.07158 -0.01400
C 	C 	0.59860 0.37509 0.06141 0.03300
N 	N 	0.61341 0.34672 0.09717 -0.33800
C 	C 	0.60290 0.35020 0.07171 -0.01300
C 	C 	0.59841 0.32508 0.06078 -0.05100
H 	H 	0.59160 0.32170 0.04430 0.03100
C 	C 	0.60614 0.30607 0.07948 -0.11200
H 	H 	0.60530 0.28800 0.07740 0.05900
C 	C 	0.61542 0.31945 0.10197 0.06900
C 	C 	0.64280 0.48475 0.10970 -0.21900
H 	H 	0.65480 0.47570 0.09950 0.08200
C 	C 	0.64270 0.51193 0.10980 0.11800
H 	H 	0.65470 0.52110 0.09960 -0.01400
O 	O 	0.64070 0.56699 0.11070 -0.53600
C 	C 	0.60480 0.26559 0.13710 -0.20300
H 	H 	0.59130 0.27470 0.14520 0.08400
C 	C 	0.60470 0.23841 0.13720 0.10400
H 	H 	0.59110 0.22940 0.14530 -0.00600
O 	O 	0.60910 0.18313 0.13920 -0.53100
C 	C 	0.58741 0.37508 0.03435 -0.44200
C 	C 	0.56065 0.37800 0.03070 0.59600
C 	C 	0.55028 0.37800 0.00560 -0.73100
H 	H 	0.53240 0.38000 0.00310 0.25700
C 	C 	0.56670 0.37507 0.98410 0.68900
C 	C 	0.59350 0.37215 0.98776 -0.73000
H 	H 	0.60440 0.37020 0.97340 0.24000
C 	C 	0.60383 0.37216 0.01290 0.58600
C 	C 	0.54282 0.38117 0.05400 -1.10100
H 	H 	0.52510 0.38290 0.04810 0.33400
H 	H 	0.54430 0.36610 0.06510 0.33300
H 	H 	0.54780 0.39650 0.06360 0.33600
C 	C 	0.55540 0.37506 0.95680 -1.20600
H 	H 	0.53680 0.37720 0.95770 0.36900
H 	H 	0.56290 0.38920 0.94690 0.35900
H 	H 	0.55940 0.35870 0.94840 0.35400
C 	C 	0.63291 0.36899 0.01680 -1.08100
H 	H 	0.64130 0.36720 0.00020 0.31800
H 	H 	0.63970 0.38410 0.02570 0.32100
H 	H 	0.63620 0.35370 0.02720 0.32700
Zn	Zn	0.11760 0.87485 0.62070 0.83700
N 	N 	0.11333 0.84655 0.65295 -0.33900
C 	C 	0.11536 0.81930 0.64800 0.06200
C 	C 	0.10608 0.80580 0.67041 -0.11800
H 	H 	0.10520 0.78770 0.67240 0.05600
C 	C 	0.09831 0.82470 0.68921 -0.05500
H 	H 	0.09150 0.82120 0.70570 0.02700
C 	C 	0.10280 0.84988 0.67842 -0.01400
C 	C 	0.09860 0.87491 0.68859 0.03300
N 	N 	0.11341 0.90328 0.65283 -0.33800
C 	C 	0.10290 0.89980 0.67829 -0.01300
C 	C 	0.09841 0.92492 0.68922 -0.05100
H 	H 	0.09160 0.92830 0.70570 0.03100
C 	C 	0.10614 0.94393 0.67052 -0.11200
H 	H 	0.10530 0.96200 0.67260 0.05900
C 	C 	0.11542 0.93055 0.64803 0.06900
C 	C 	0.14280 0.76525 0.64030 -0.21900
H 	H 	0.15480 0.77430 0.65050 0.08200
C 	C 	0.14270 0.73807 0.64020 0.11800
H 	H 	0.15470 0.72890 0.65040 -0.01400
O 	O 	0.14070 0.68301 0.63930 -0.53600
C 	C 	0.10480 0.98441 0.61290 -0.20300
H 	H 	0.09130 0.97530 0.60480 0.08400
C 	C 	0.10470 0.01159 0.61280 0.10400
H 	H 	0.09110 0.02060 0.60470 -0.00600
O 	O 	0.10910 0.06687 0.61080 -0.53100
C 	C 	0.08741 0.87492 0.71565 -0.44200
C 	C 	0.06065 0.87200 0.71930 0.59600
C 	C 	0.05028 0.87200 0.74440 -0.73100
H 	H 	0.03240 0.87000 0.74690 0.25700
C 	C 	0.06670 0.87493 0.76590 0.68900
C 	C 	0.09350 0.87785 0.76224 -0.73000
H 	H 	0.10440 0.87980 0.77660 0.24000
C 	C 	0.10383 0.87784 0.73710 0.58600
C 	C 	0.04282 0.86883 0.69600 -1.10100
H 	H 	0.02510 0.86710 0.70190 0.33400
H 	H 	0.04430 0.88390 0.68490 0.33300
H 	H 	0.04780 0.85350 0.68640 0.33600
C 	C 	0.05540 0.87494 0.79320 -1.20600
H 	H 	0.03680 0.87280 0.79230 0.36900
H 	H 	0.06290 0.86080 0.80310 0.35900
H 	H 	0.05940 0.89130 0.80160 0.35400
C 	C 	0.13291 0.88101 0.73320 -1.08100
H 	H 	0.14130 0.88280 0.74980 0.31800
H 	H 	0.13970 0.86590 0.72430 0.32100
H 	H 	0.13620 0.89630 0.72280 0.32700
Zn	Zn	0.11760 0.37485 0.12070 0.83700
N 	N 	0.11333 0.34655 0.15295 -0.33900
C 	C 	0.11536 0.31930 0.14800 0.06200
C 	C 	0.10608 0.30580 0.17041 -0.11800
H 	H 	0.10520 0.28770 0.17240 0.05600
C 	C 	0.09831 0.32470 0.18921 -0.05500
H 	H 	0.09150 0.32120 0.20570 0.02700
C 	C 	0.10280 0.34988 0.17842 -0.01400
C 	C 	0.09860 0.37491 0.18859 0.03300
N 	N 	0.11341 0.40328 0.15283 -0.33800
C 	C 	0.10290 0.39980 0.17829 -0.01300
C 	C 	0.09841 0.42492 0.18922 -0.05100
H 	H 	0.09160 0.42830 0.20570 0.03100
C 	C 	0.10614 0.44393 0.17052 -0.11200
H 	H 	0.10530 0.46200 0.17260 0.05900
C 	C 	0.11542 0.43055 0.14803 0.06900
C 	C 	0.14280 0.26525 0.14030 -0.21900
H 	H 	0.15480 0.27430 0.15050 0.08200
C 	C 	0.14270 0.23807 0.14020 0.11800
H 	H 	0.15470 0.22890 0.15040 -0.01400
O 	O 	0.14070 0.18301 0.13930 -0.53600
C 	C 	0.10480 0.48441 0.11290 -0.20300
H 	H 	0.09130 0.47530 0.10480 0.08400
C 	C 	0.10470 0.51159 0.11280 0.10400
H 	H 	0.09110 0.52060 0.10470 -0.00600
O 	O 	0.10910 0.56687 0.11080 -0.53100
C 	C 	0.08741 0.37492 0.21565 -0.44200
C 	C 	0.06065 0.37200 0.21930 0.59600
C 	C 	0.05028 0.37200 0.24440 -0.73100
H 	H 	0.03240 0.37000 0.24690 0.25700
C 	C 	0.06670 0.37493 0.26590 0.68900
C 	C 	0.09350 0.37785 0.26224 -0.73000
H 	H 	0.10440 0.37980 0.27660 0.24000
C 	C 	0.10383 0.37784 0.23710 0.58600
C 	C 	0.04282 0.36883 0.19600 -1.10100
H 	H 	0.02510 0.36710 0.20190 0.33400
H 	H 	0.04430 0.38390 0.18490 0.33300
H 	H 	0.04780 0.35350 0.18640 0.33600
C 	C 	0.05540 0.37494 0.29320 -1.20600
H 	H 	0.03680 0.37280 0.29230 0.36900
H 	H 	0.06290 0.36080 0.30310 0.35900
H 	H 	0.05940 0.39130 0.30160 0.35400
C 	C 	0.13291 0.38101 0.23320 -1.08100
H 	H 	0.14130 0.38280 0.24980 0.31800
H 	H 	0.13970 0.36590 0.22430 0.32100
H 	H 	0.13620 0.39630 0.22280 0.32700
Zn	Zn	0.61760 0.87485 0.12070 0.83700
N 	N 	0.61333 0.84655 0.15295 -0.33900
C 	C 	0.61536 0.81930 0.14800 0.06200
C 	C 	0.60608 0.80580 0.17041 -0.11800
H 	H 	0.60520 0.78770 0.17240 0.05600
C 	C 	0.59831 0.82470 0.18921 -0.05500
H 	H 	0.59150 0.82120 0.20570 0.02700
C 	C 	0.60280 0.84988 0.17842 -0.01400
C 	C 	0.59860 0.87491 0.18859 0.03300
N 	N 	0.61341 0.90328 0.15283 -0.33800
C 	C 	0.60290 0.89980 0.17829 -0.01300
C 	C 	0.59841 0.92492 0.18922 -0.05100
H 	H 	0.59160 0.92830 0.20570 0.03100
C 	C 	0.60614 0.94393 0.17052 -0.11200
H 	H 	0.60530 0.96200 0.17260 0.05900
C 	C 	0.61542 0.93055 0.14803 0.06900
C 	C 	0.64280 0.76525 0.14030 -0.21900
H 	H 	0.65480 0.77430 0.15050 0.08200
C 	C 	0.64270 0.73807 0.14020 0.11800
H 	H 	0.65470 0.72890 0.15040 -0.01400
O 	O 	0.64070 0.68301 0.13930 -0.53600
C 	C 	0.60480 0.98441 0.11290 -0.20300
H 	H 	0.59130 0.97530 0.10480 0.08400
C 	C 	0.60470 0.01159 0.11280 0.10400
H 	H 	0.59110 0.02060 0.10470 -0.00600
O 	O 	0.60910 0.06687 0.11080 -0.53100
C 	C 	0.58741 0.87492 0.21565 -0.44200
C 	C 	0.56065 0.87200 0.21930 0.59600
C 	C 	0.55028 0.87200 0.24440 -0.73100
H 	H 	0.53240 0.87000 0.24690 0.25700
C 	C 	0.56670 0.87493 0.26590 0.68900
C 	C 	0.59350 0.87785 0.26224 -0.73000
H 	H 	0.60440 0.87980 0.27660 0.24000
C 	C 	0.60383 0.87784 0.23710 0.58600
C 	C 	0.54282 0.86883 0.19600 -1.10100
H 	H 	0.52510 0.86710 0.20190 0.33400
H 	H 	0.54430 0.88390 0.18490 0.33300
H 	H 	0.54780 0.85350 0.18640 0.33600
C 	C 	0.55540 0.87494 0.29320 -1.20600
H 	H 	0.53680 0.87280 0.29230 0.36900
H 	H 	0.56290 0.86080 0.30310 0.35900
H 	H 	0.55940 0.89130 0.30160 0.35400
C 	C 	0.63291 0.88101 0.23320 -1.08100
H 	H 	0.64130 0.88280 0.24980 0.31800
H 	H 	0.63970 0.86590 0.22430 0.32100
H 	H 	0.63620 0.89630 0.22280 0.32700
Zn	Zn	0.61760 0.37485 0.62070 0.83700
N 	N 	0.61333 0.34655 0.65295 -0.33900
C 	C 	0.61536 0.31930 0.64800 0.06200
C 	C 	0.60608 0.30580 0.67041 -0.11800
H 	H 	0.60520 0.28770 0.67240 0.05600
C 	C 	0.59831 0.32470 0.68921 -0.05500
H 	H 	0.59150 0.32120 0.70570 0.02700
C 	C 	0.60280 0.34988 0.67842 -0.01400
C 	C 	0.59860 0.37491 0.68859 0.03300
N 	N 	0.61341 0.40328 0.65283 -0.33800
C 	C 	0.60290 0.39980 0.67829 -0.01300
C 	C 	0.59841 0.42492 0.68922 -0.05100
H 	H 	0.59160 0.42830 0.70570 0.03100
C 	C 	0.60614 0.44393 0.67052 -0.11200
H 	H 	0.60530 0.46200 0.67260 0.05900
C 	C 	0.61542 0.43055 0.64803 0.06900
C 	C 	0.64280 0.26525 0.64030 -0.21900
H 	H 	0.65480 0.27430 0.65050 0.08200
C 	C 	0.64270 0.23807 0.64020 0.11800
H 	H 	0.65470 0.22890 0.65040 -0.01400
O 	O 	0.64070 0.18301 0.63930 -0.53600
C 	C 	0.60480 0.48441 0.61290 -0.20300
H 	H 	0.59130 0.47530 0.60480 0.08400
C 	C 	0.60470 0.51159 0.61280 0.10400
H 	H 	0.59110 0.52060 0.60470 -0.00600
O 	O 	0.60910 0.56687 0.61080 -0.53100
C 	C 	0.58741 0.37492 0.71565 -0.44200
C 	C 	0.56065 0.37200 0.71930 0.59600
C 	C 	0.55028 0.37200 0.74440 -0.73100
H 	H 	0.53240 0.37000 0.74690 0.25700
C 	C 	0.56670 0.37493 0.76590 0.68900
C 	C 	0.59350 0.37785 0.76224 -0.73000
H 	H 	0.60440 0.37980 0.77660 0.24000
C 	C 	0.60383 0.37784 0.73710 0.58600
C 	C 	0.54282 0.36883 0.69600 -1.10100
H 	H 	0.52510 0.36710 0.70190 0.33400
H 	H 	0.54430 0.38390 0.68490 0.33300
H 	H 	0.54780 0.35350 0.68640 0.33600
C 	C 	0.55540 0.37494 0.79320 -1.20600
H 	H 	0.53680 0.37280 0.79230 0.36900
H 	H 	0.56290 0.36080 0.80310 0.35900
H 	H 	0.55940 0.39130 0.80160 0.35400
C 	C 	0.63291 0.38101 0.73320 -1.08100
H 	H 	0.64130 0.38280 0.74980 0.31800
H 	H 	0.63970 0.36590 0.72430 0.32100
H 	H 	0.63620 0.39630 0.72280 0.32700
Zn	Zn	0.12930 0.63240 0.87485 0.83700
N 	N 	0.09705 0.63667 0.84655 -0.33900
C 	C 	0.10200 0.63464 0.81930 0.06200
C 	C 	0.07959 0.64392 0.80580 -0.11800
H 	H 	0.07760 0.64480 0.78770 0.05600
C 	C 	0.06079 0.65169 0.82470 -0.05500
H 	H 	0.04430 0.65850 0.82120 0.02700
C 	C 	0.07158 0.64720 0.84988 -0.01400
C 	C 	0.06141 0.65140 0.87491 0.03300
N 	N 	0.09717 0.63659 0.90328 -0.33800
C 	C 	0.07171 0.64710 0.89980 -0.01300
C 	C 	0.06078 0.65159 0.92492 -0.05100
H 	H 	0.04430 0.65840 0.92830 0.03100
C 	C 	0.07948 0.64386 0.94393 -0.11200
H 	H 	0.07740 0.64470 0.96200 0.05900
C 	C 	0.10197 0.63458 0.93055 0.06900
C 	C 	0.10970 0.60720 0.76525 -0.21900
H 	H 	0.09950 0.59520 0.77430 0.08200
C 	C 	0.10980 0.60730 0.73807 0.11800
H 	H 	0.09960 0.59530 0.72890 -0.01400
O 	O 	0.11070 0.60930 0.68301 -0.53600
C 	C 	0.13710 0.64520 0.98441 -0.20300
H 	H 	0.14520 0.65870 0.97530 0.08400
C 	C 	0.13720 0.64530 0.01159 0.10400
H 	H 	0.14530 0.65890 0.02060 -0.00600
O 	O 	0.13920 0.64090 0.06687 -0.53100
C 	C 	0.03435 0.66259 0.87492 -0.44200
C 	C 	0.03070 0.68935 0.87200 0.59600
C 	C 	0.00560 0.69972 0.87200 -0.73100
H 	H 	0.00310 0.71760 0.87000 0.25700
C 	C 	0.98410 0.68330 0.87493 0.68900
C 	C 	0.98776 0.65650 0.87785 -0.73000
H 	H 	0.97340 0.64560 0.87980 0.24000
C 	C 	0.01290 0.64617 0.87784 0.58600
C 	C 	0.05400 0.70718 0.86883 -1.10100
H 	H 	0.04810 0.72490 0.86710 0.33400
H 	H 	0.06510 0.70570 0.88390 0.33300
H 	H 	0.06360 0.70220 0.85350 0.33600
C 	C 	0.95680 0.69460 0.87494 -1.20600
H 	H 	0.95770 0.71320 0.87280 0.36900
H 	H 	0.94690 0.68710 0.86080 0.35900
H 	H 	0.94840 0.69060 0.89130 0.35400
C 	C 	0.01680 0.61709 0.88101 -1.08100
H 	H 	0.00020 0.60870 0.88280 0.31800
H 	H 	0.02570 0.61030 0.86590 0.32100
H 	H 	0.02720 0.61380 0.89630 0.32700
Zn	Zn	0.12930 0.13240 0.37485 0.83700
N 	N 	0.09705 0.13667 0.34655 -0.33900
C 	C 	0.10200 0.13464 0.31930 0.06200
C 	C 	0.07959 0.14392 0.30580 -0.11800
H 	H 	0.07760 0.14480 0.28770 0.05600
C 	C 	0.06079 0.15169 0.32470 -0.05500
H 	H 	0.04430 0.15850 0.32120 0.02700
C 	C 	0.07158 0.14720 0.34988 -0.01400
C 	C 	0.06141 0.15140 0.37491 0.03300
N 	N 	0.09717 0.13659 0.40328 -0.33800
C 	C 	0.07171 0.14710 0.39980 -0.01300
C 	C 	0.06078 0.15159 0.42492 -0.05100
H 	H 	0.04430 0.15840 0.42830 0.03100
C 	C 	0.07948 0.14386 0.44393 -0.11200
H 	H 	0.07740 0.14470 0.46200 0.05900
C 	C 	0.10197 0.13458 0.43055 0.06900
C 	C 	0.10970 0.10720 0.26525 -0.21900
H 	H 	0.09950 0.09520 0.27430 0.08200
C 	C 	0.10980 0.10730 0.23807 0.11800
H 	H 	0.09960 0.09530 0.22890 -0.01400
O 	O 	0.11070 0.10930 0.18301 -0.53600
C 	C 	0.13710 0.14520 0.48441 -0.20300
H 	H 	0.14520 0.15870 0.47530 0.08400
C 	C 	0.13720 0.14530 0.51159 0.10400
H 	H 	0.14530 0.15890 0.52060 -0.00600
O 	O 	0.13920 0.14090 0.56687 -0.53100
C 	C 	0.03435 0.16259 0.37492 -0.44200
C 	C 	0.03070 0.18935 0.37200 0.59600
C 	C 	0.00560 0.19972 0.37200 -0.73100
H 	H 	0.00310 0.21760 0.37000 0.25700
C 	C 	0.98410 0.18330 0.37493 0.68900
C 	C 	0.98776 0.15650 0.37785 -0.73000
H 	H 	0.97340 0.14560 0.37980 0.24000
C 	C 	0.01290 0.14617 0.37784 0.58600
C 	C 	0.05400 0.20718 0.36883 -1.10100
H 	H 	0.04810 0.22490 0.36710 0.33400
H 	H 	0.06510 0.20570 0.38390 0.33300
H 	H 	0.06360 0.20220 0.35350 0.33600
C 	C 	0.95680 0.19460 0.37494 -1.20600
H 	H 	0.95770 0.21320 0.37280 0.36900
H 	H 	0.94690 0.18710 0.36080 0.35900
H 	H 	0.94840 0.19060 0.39130 0.35400
C 	C 	0.01680 0.11709 0.38101 -1.08100
H 	H 	0.00020 0.10870 0.38280 0.31800
H 	H 	0.02570 0.11030 0.36590 0.32100
H 	H 	0.02720 0.11380 0.39630 0.32700
Zn	Zn	0.62930 0.63240 0.37485 0.83700
N 	N 	0.59705 0.63667 0.34655 -0.33900
C 	C 	0.60200 0.63464 0.31930 0.06200
C 	C 	0.57959 0.64392 0.30580 -0.11800
H 	H 	0.57760 0.64480 0.28770 0.05600
C 	C 	0.56079 0.65169 0.32470 -0.05500
H 	H 	0.54430 0.65850 0.32120 0.02700
C 	C 	0.57158 0.64720 0.34988 -0.01400
C 	C 	0.56141 0.65140 0.37491 0.03300
N 	N 	0.59717 0.63659 0.40328 -0.33800
C 	C 	0.57171 0.64710 0.39980 -0.01300
C 	C 	0.56078 0.65159 0.42492 -0.05100
H 	H 	0.54430 0.65840 0.42830 0.03100
C 	C 	0.57948 0.64386 0.44393 -0.11200
H 	H 	0.57740 0.64470 0.46200 0.05900
C 	C 	0.60197 0.63458 0.43055 0.06900
C 	C 	0.60970 0.60720 0.26525 -0.21900
H 	H 	0.59950 0.59520 0.27430 0.08200
C 	C 	0.60980 0.60730 0.23807 0.11800
H 	H 	0.59960 0.59530 0.22890 -0.01400
O 	O 	0.61070 0.60930 0.18301 -0.53600
C 	C 	0.63710 0.64520 0.48441 -0.20300
H 	H 	0.64520 0.65870 0.47530 0.08400
C 	C 	0.63720 0.64530 0.51159 0.10400
H 	H 	0.64530 0.65890 0.52060 -0.00600
O 	O 	0.63920 0.64090 0.56687 -0.53100
C 	C 	0.53435 0.66259 0.37492 -0.44200
C 	C 	0.53070 0.68935 0.37200 0.59600
C 	C 	0.50560 0.69972 0.37200 -0.73100
H 	H 	0.50310 0.71760 0.37000 0.25700
C 	C 	0.48410 0.68330 0.37493 0.68900
C 	C 	0.48776 0.65650 0.37785 -0.73000
H 	H 	0.47340 0.64560 0.37980 0.24000
C 	C 	0.51290 0.64617 0.37784 0.58600
C 	C 	0.55400 0.70718 0.36883 -1.10100
H 	H 	0.54810 0.72490 0.36710 0.33400
H 	H 	0.56510 0.70570 0.38390 0.33300
H 	H 	0.56360 0.70220 0.35350 0.33600
C 	C 	0.45680 0.69460 0.37494 -1.20600
H 	H 	0.45770 0.71320 0.37280 0.36900
H 	H 	0.44690 0.68710 0.36080 0.35900
H 	H 	0.44840 0.69060 0.39130 0.35400
C 	C 	0.51680 0.61709 0.38101 -1.08100
H 	H 	0.50020 0.60870 0.38280 0.31800
H 	H 	0.52570 0.61030 0.36590 0.32100
H 	H 	0.52720 0.61380 0.39630 0.32700
Zn	Zn	0.62930 0.13240 0.87485 0.83700
N 	N 	0.59705 0.13667 0.84655 -0.33900
C 	C 	0.60200 0.13464 0.81930 0.06200
C 	C 	0.57959 0.14392 0.80580 -0.11800
H 	H 	0.57760 0.14480 0.78770 0.05600
C 	C 	0.56079 0.15169 0.82470 -0.05500
H 	H 	0.54430 0.15850 0.82120 0.02700
C 	C 	0.57158 0.14720 0.84988 -0.01400
C 	C 	0.56141 0.15140 0.87491 0.03300
N 	N 	0.59717 0.13659 0.90328 -0.33800
C 	C 	0.57171 0.14710 0.89980 -0.01300
C 	C 	0.56078 0.15159 0.92492 -0.05100
H 	H 	0.54430 0.15840 0.92830 0.03100
C 	C 	0.57948 0.14386 0.94393 -0.11200
H 	H 	0.57740 0.14470 0.96200 0.05900
C 	C 	0.60197 0.13458 0.93055 0.06900
C 	C 	0.60970 0.10720 0.76525 -0.21900
H 	H 	0.59950 0.09520 0.77430 0.08200
C 	C 	0.60980 0.10730 0.73807 0.11800
H 	H 	0.59960 0.09530 0.72890 -0.01400
O 	O 	0.61070 0.10930 0.68301 -0.53600
C 	C 	0.63710 0.14520 0.98441 -0.20300
H 	H 	0.64520 0.15870 0.97530 0.08400
C 	C 	0.63720 0.14530 0.01159 0.10400
H 	H 	0.64530 0.15890 0.02060 -0.00600
O 	O 	0.63920 0.14090 0.06687 -0.53100
C 	C 	0.53435 0.16259 0.87492 -0.44200
C 	C 	0.53070 0.18935 0.87200 0.59600
C 	C 	0.50560 0.19972 0.87200 -0.73100
H 	H 	0.50310 0.21760 0.87000 0.25700
C 	C 	0.48410 0.18330 0.87493 0.68900
C 	C 	0.48776 0.15650 0.87785 -0.73000
H 	H 	0.47340 0.14560 0.87980 0.24000
C 	C 	0.51290 0.14617 0.87784 0.58600
C 	C 	0.55400 0.20718 0.86883 -1.10100
H 	H 	0.54810 0.22490 0.86710 0.33400
H 	H 	0.56510 0.20570 0.88390 0.33300
H 	H 	0.56360 0.20220 0.85350 0.33600
C 	C 	0.45680 0.19460 0.87494 -1.20600
H 	H 	0.45770 0.21320 0.87280 0.36900
H 	H 	0.44690 0.18710 0.86080 0.35900
H 	H 	0.44840 0.19060 0.89130 0.35400
C 	C 	0.51680 0.11709 0.88101 -1.08100
H 	H 	0.50020 0.10870 0.88280 0.31800
H 	H 	0.52570 0.11030 0.86590 0.32100
H 	H 	0.52720 0.11380 0.89630 0.32700
Zn	Zn	0.62070 0.63240 0.87515 0.83700
N 	N 	0.65295 0.63667 0.90345 -0.33900
C 	C 	0.64800 0.63464 0.93070 0.06200
C 	C 	0.67041 0.64392 0.94420 -0.11800
H 	H 	0.67240 0.64480 0.96230 0.05600
C 	C 	0.68921 0.65169 0.92530 -0.05500
H 	H 	0.70570 0.65850 0.92880 0.02700
C 	C 	0.67842 0.64720 0.90012 -0.01400
C 	C 	0.68859 0.65140 0.87509 0.03300
N 	N 	0.65283 0.63659 0.84672 -0.33800
C 	C 	0.67829 0.64710 0.85020 -0.01300
C 	C 	0.68922 0.65159 0.82508 -0.05100
H 	H 	0.70570 0.65840 0.82170 0.03100
C 	C 	0.67052 0.64386 0.80607 -0.11200
H 	H 	0.67260 0.64470 0.78800 0.05900
C 	C 	0.64803 0.63458 0.81945 0.06900
C 	C 	0.64030 0.60720 0.98475 -0.21900
H 	H 	0.65050 0.59520 0.97570 0.08200
C 	C 	0.64020 0.60730 0.01193 0.11800
H 	H 	0.65040 0.59530 0.02110 -0.01400
O 	O 	0.63930 0.60930 0.06699 -0.53600
C 	C 	0.61290 0.64520 0.76559 -0.20300
H 	H 	0.60480 0.65870 0.77470 0.08400
C 	C 	0.61280 0.64530 0.73841 0.10400
H 	H 	0.60470 0.65890 0.72940 -0.00600
O 	O 	0.61080 0.64090 0.68313 -0.53100
C 	C 	0.71565 0.66259 0.87508 -0.44200
C 	C 	0.71930 0.68935 0.87800 0.59600
C 	C 	0.74440 0.69972 0.87800 -0.73100
H 	H 	0.74690 0.71760 0.88000 0.25700
C 	C 	0.76590 0.68330 0.87507 0.68900
C 	C 	0.76224 0.65650 0.87215 -0.73000
H 	H 	0.77660 0.64560 0.87020 0.24000
C 	C 	0.73710 0.64617 0.87216 0.58600
C 	C 	0.69600 0.70718 0.88117 -1.10100
H 	H 	0.70190 0.72490 0.88290 0.33400
H 	H 	0.68490 0.70570 0.86610 0.33300
H 	H 	0.68640 0.70220 0.89650 0.33600
C 	C 	0.79320 0.69460 0.87506 -1.20600
H 	H 	0.79230 0.71320 0.87720 0.36900
H 	H 	0.80310 0.68710 0.88920 0.35900
H 	H 	0.80160 0.69060 0.85870 0.35400
C 	C 	0.73320 0.61709 0.86899 -1.08100
H 	H 	0.74980 0.60870 0.86720 0.31800
H 	H 	0.72430 0.61030 0.88410 0.32100
H 	H 	0.72280 0.61380 0.85370 0.32700
Zn	Zn	0.62070 0.13240 0.37515 0.83700
N 	N 	0.65295 0.13667 0.40345 -0.33900
C 	C 	0.64800 0.13464 0.43070 0.06200
C 	C 	0.67041 0.14392 0.44420 -0.11800
H 	H 	0.67240 0.14480 0.46230 0.05600
C 	C 	0.68921 0.15169 0.42530 -0.05500
H 	H 	0.70570 0.15850 0.42880 0.02700
C 	C 	0.67842 0.14720 0.40012 -0.01400
C 	C 	0.68859 0.15140 0.37509 0.03300
N 	N 	0.65283 0.13659 0.34672 -0.33800
C 	C 	0.67829 0.14710 0.35020 -0.01300
C 	C 	0.68922 0.15159 0.32508 -0.05100
H 	H 	0.70570 0.15840 0.32170 0.03100
C 	C 	0.67052 0.14386 0.30607 -0.11200
H 	H 	0.67260 0.14470 0.28800 0.05900
C 	C 	0.64803 0.13458 0.31945 0.06900
C 	C 	0.64030 0.10720 0.48475 -0.21900
H 	H 	0.65050 0.09520 0.47570 0.08200
C 	C 	0.64020 0.10730 0.51193 0.11800
H 	H 	0.65040 0.09530 0.52110 -0.01400
O 	O 	0.63930 0.10930 0.56699 -0.53600
C 	C 	0.61290 0.14520 0.26559 -0.20300
H 	H 	0.60480 0.15870 0.27470 0.08400
C 	C 	0.61280 0.14530 0.23841 0.10400
H 	H 	0.60470 0.15890 0.22940 -0.00600
O 	O 	0.61080 0.14090 0.18313 -0.53100
C 	C 	0.71565 0.16259 0.37508 -0.44200
C 	C 	0.71930 0.18935 0.37800 0.59600
C 	C 	0.74440 0.19972 0.37800 -0.73100
H 	H 	0.74690 0.21760 0.38000 0.25700
C 	C 	0.76590 0.18330 0.37507 0.68900
C 	C 	0.76224 0.15650 0.37215 -0.73000
H 	H 	0.77660 0.14560 0.37020 0.24000
C 	C 	0.73710 0.14617 0.37216 0.58600
C 	C 	0.69600 0.20718 0.38117 -1.10100
H 	H 	0.70190 0.22490 0.38290 0.33400
H 	H 	0.68490 0.20570 0.36610 0.33300
H 	H 	0.68640 0.20220 0.39650 0.33600
C 	C 	0.79320 0.19460 0.37506 -1.20600
H 	H 	0.79230 0.21320 0.37720 0.36900
H 	H 	0.80310 0.18710 0.38920 0.35900
H 	H 	0.80160 0.19060 0.35870 0.35400
C 	C 	0.73320 0.11709 0.36899 -1.08100
H 	H 	0.74980 0.10870 0.36720 0.31800
H 	H 	0.72430 0.11030 0.38410 0.32100
H 	H 	0.72280 0.11380 0.35370 0.32700
Zn	Zn	0.12070 0.63240 0.37515 0.83700
N 	N 	0.15295 0.63667 0.40345 -0.33900
C 	C 	0.14800 0.63464 0.43070 0.06200
C 	C 	0.17041 0.64392 0.44420 -0.11800
H 	H 	0.17240 0.64480 0.46230 0.05600
C 	C 	0.18921 0.65169 0.42530 -0.05500
H 	H 	0.20570 0.65850 0.42880 0.02700
C 	C 	0.17842 0.64720 0.40012 -0.01400
C 	C 	0.18859 0.65140 0.37509 0.03300
N 	N 	0.15283 0.63659 0.34672 -0.33800
C 	C 	0.17829 0.64710 0.35020 -0.01300
C 	C 	0.18922 0.65159 0.32508 -0.05100
H 	H 	0.20570 0.65840 0.32170 0.03100
C 	C 	0.17052 0.64386 0.30607 -0.11200
H 	H 	0.17260 0.64470 0.28800 0.05900
C 	C 	0.14803 0.63458 0.31945 0.06900
C 	C 	0.14030 0.60720 0.48475 -0.21900
H 	H 	0.15050 0.59520 0.47570 0.08200
C 	C 	0.14020 0.60730 0.51193 0.11800
H 	H 	0.15040 0.59530 0.52110 -0.01400
O 	O 	0.13930 0.60930 0.56699 -0.53600
C 	C 	0.11290 0.64520 0.26559 -0.20300
H 	H 	0.10480 0.65870 0.27470 0.08400
C 	C 	0.11280 0.64530 0.23841 0.10400
H 	H 	0.10470 0.65890 0.22940 -0.00600
O 	O 	0.11080 0.64090 0.18313 -0.53100
C 	C 	0.21565 0.66259 0.37508 -0.44200
C 	C 	0.21930 0.68935 0.37800 0.59600
C 	C 	0.24440 0.69972 0.37800 -0.73100
H 	H 	0.24690 0.71760 0.38000 0.25700
C 	C 	0.26590 0.68330 0.37507 0.68900
C 	C 	0.26224 0.65650 0.37215 -0.73000
H 	H 	0.27660 0.64560 0.37020 0.24000
C 	C 	0.23710 0.64617 0.37216 0.58600
C 	C 	0.19600 0.70718 0.38117 -1.10100
H 	H 	0.20190 0.72490 0.38290 0.33400
H 	H 	0.18490 0.70570 0.36610 0.33300
H 	H 	0.18640 0.70220 0.39650 0.33600
C 	C 	0.29320 0.69460 0.37506 -1.20600
H 	H 	0.29230 0.71320 0.37720 0.36900
H 	H 	0.30310 0.68710 0.38920 0.35900
H 	H 	0.30160 0.69060 0.35870 0.35400
C 	C 	0.23320 0.61709 0.36899 -1.08100
H 	H 	0.24980 0.60870 0.36720 0.31800
H 	H 	0.22430 0.61030 0.38410 0.32100
H 	H 	0.22280 0.61380 0.35370 0.32700
Zn	Zn	0.12070 0.13240 0.87515 0.83700
N 	N 	0.15295 0.13667 0.90345 -0.33900
C 	C 	0.14800 0.13464 0.93070 0.06200
C 	C 	0.17041 0.14392 0.94420 -0.11800
H 	H 	0.17240 0.14480 0.96230 0.05600
C 	C 	0.18921 0.15169 0.92530 -0.05500
H 	H 	0.20570 0.15850 0.92880 0.02700
C 	C 	0.17842 0.14720 0.90012 -0.01400
C 	C 	0.18859 0.15140 0.87509 0.03300
N 	N 	0.15283 0.13659 0.84672 -0.33800
C 	C 	0.17829 0.14710 0.85020 -0.01300
C 	C 	0.18922 0.15159 0.82508 -0.05100
H 	H 	0.20570 0.15840 0.82170 0.03100
C 	C 	0.17052 0.14386 0.80607 -0.11200
H 	H 	0.17260 0.14470 0.78800 0.05900
C 	C 	0.14803 0.13458 0.81945 0.06900
C 	C 	0.14030 0.10720 0.98475 -0.21900
H 	H 	0.15050 0.09520 0.97570 0.08200
C 	C 	0.14020 0.10730 0.01193 0.11800
H 	H 	0.15040 0.09530 0.02110 -0.01400
O 	O 	0.13930 0.10930 0.06699 -0.53600
C 	C 	0.11290 0.14520 0.76559 -0.20300
H 	H 	0.10480 0.15870 0.77470 0.08400
C 	C 	0.11280 0.14530 0.73841 0.10400
H 	H 	0.10470 0.15890 0.72940 -0.00600
O 	O 	0.11080 0.14090 0.68313 -0.53100
C 	C 	0.21565 0.16259 0.87508 -0.44200
C 	C 	0.21930 0.18935 0.87800 0.59600
C 	C 	0.24440 0.19972 0.87800 -0.73100
H 	H 	0.24690 0.21760 0.88000 0.25700
C 	C 	0.26590 0.18330 0.87507 0.68900
C 	C 	0.26224 0.15650 0.87215 -0.73000
H 	H 	0.27660 0.14560 0.87020 0.24000
C 	C 	0.23710 0.14617 0.87216 0.58600
C 	C 	0.19600 0.20718 0.88117 -1.10100
H 	H 	0.20190 0.22490 0.88290 0.33400
H 	H 	0.18490 0.20570 0.86610 0.33300
H 	H 	0.18640 0.20220 0.89650 0.33600
C 	C 	0.29320 0.19460 0.87506 -1.20600
H 	H 	0.29230 0.21320 0.87720 0.36900
H 	H 	0.30310 0.18710 0.88920 0.35900
H 	H 	0.30160 0.19060 0.85870 0.35400
C 	C 	0.23320 0.11709 0.86899 -1.08100
H 	H 	0.24980 0.10870 0.86720 0.31800
H 	H 	0.22430 0.11030 0.88410 0.32100
H 	H 	0.22280 0.11380 0.85370 0.32700
Zn	Zn	0.12930 0.11760 0.87515 0.83700
N 	N 	0.09705 0.11333 0.90345 -0.33900
C 	C 	0.10200 0.11536 0.93070 0.06200
C 	C 	0.07959 0.10608 0.94420 -0.11800
H 	H 	0.07760 0.10520 0.96230 0.05600
C 	C 	0.06079 0.09831 0.92530 -0.05500
H 	H 	0.04430 0.09150 0.92880 0.02700
C 	C 	0.07158 0.10280 0.90012 -0.01400
C 	C 	0.06141 0.09860 0.87509 0.03300
N 	N 	0.09717 0.11341 0.84672 -0.33800
C 	C 	0.07171 0.10290 0.85020 -0.01300
C 	C 	0.06078 0.09841 0.82508 -0.05100
H 	H 	0.04430 0.09160 0.82170 0.03100
C 	C 	0.07948 0.10614 0.80607 -0.11200
H 	H 	0.07740 0.10530 0.78800 0.05900
C 	C 	0.10197 0.11542 0.81945 0.06900
C 	C 	0.10970 0.14280 0.98475 -0.21900
H 	H 	0.09950 0.15480 0.97570 0.08200
C 	C 	0.10980 0.14270 0.01193 0.11800
H 	H 	0.09960 0.15470 0.02110 -0.01400
O 	O 	0.11070 0.14070 0.06699 -0.53600
C 	C 	0.13710 0.10480 0.76559 -0.20300
H 	H 	0.14520 0.09130 0.77470 0.08400
C 	C 	0.13720 0.10470 0.73841 0.10400
H 	H 	0.14530 0.09110 0.72940 -0.00600
O 	O 	0.13920 0.10910 0.68313 -0.53100
C 	C 	0.03435 0.08741 0.87508 -0.44200
C 	C 	0.03070 0.06065 0.87800 0.59600
C 	C 	0.00560 0.05028 0.87800 -0.73100
H 	H 	0.00310 0.03240 0.88000 0.25700
C 	C 	0.98410 0.06670 0.87507 0.68900
C 	C 	0.98776 0.09350 0.87215 -0.73000
H 	H 	0.97340 0.10440 0.87020 0.24000
C 	C 	0.01290 0.10383 0.87216 0.58600
C 	C 	0.05400 0.04282 0.88117 -1.10100
H 	H 	0.04810 0.02510 0.88290 0.33400
H 	H 	0.06510 0.04430 0.86610 0.33300
H 	H 	0.06360 0.04780 0.89650 0.33600
C 	C 	0.95680 0.05540 0.87506 -1.20600
H 	H 	0.95770 0.03680 0.87720 0.36900
H 	H 	0.94690 0.06290 0.88920 0.35900
H 	H 	0.94840 0.05940 0.85870 0.35400
C 	C 	0.01680 0.13291 0.86899 -1.08100
H 	H 	0.00020 0.14130 0.86720 0.31800
H 	H 	0.02570 0.13970 0.88410 0.32100
H 	H 	0.02720 0.13620 0.85370 0.32700
Zn	Zn	0.12930 0.61760 0.37515 0.83700
N 	N 	0.09705 0.61333 0.40345 -0.33900
C 	C 	0.10200 0.61536 0.43070 0.06200
C 	C 	0.07959 0.60608 0.44420 -0.11800
H 	H 	0.07760 0.60520 0.46230 0.05600
C 	C 	0.06079 0.59831 0.42530 -0.05500
H 	H 	0.04430 0.59150 0.42880 0.02700
C 	C 	0.07158 0.60280 0.40012 -0.01400
C 	C 	0.06141 0.59860 0.37509 0.03300
N 	N 	0.09717 0.61341 0.34672 -0.33800
C 	C 	0.07171 0.60290 0.35020 -0.01300
C 	C 	0.06078 0.59841 0.32508 -0.05100
H 	H 	0.04430 0.59160 0.32170 0.03100
C 	C 	0.07948 0.60614 0.30607 -0.11200
H 	H 	0.07740 0.60530 0.28800 0.05900
C 	C 	0.10197 0.61542 0.31945 0.06900
C 	C 	0.10970 0.64280 0.48475 -0.21900
H 	H 	0.09950 0.65480 0.47570 0.08200
C 	C 	0.10980 0.64270 0.51193 0.11800
H 	H 	0.09960 0.65470 0.52110 -0.01400
O 	O 	0.11070 0.64070 0.56699 -0.53600
C 	C 	0.13710 0.60480 0.26559 -0.20300
H 	H 	0.14520 0.59130 0.27470 0.08400
C 	C 	0.13720 0.60470 0.23841 0.10400
H 	H 	0.14530 0.59110 0.22940 -0.00600
O 	O 	0.13920 0.60910 0.18313 -0.53100
C 	C 	0.03435 0.58741 0.37508 -0.44200
C 	C 	0.03070 0.56065 0.37800 0.59600
C 	C 	0.00560 0.55028 0.37800 -0.73100
H 	H 	0.00310 0.53240 0.38000 0.25700
C 	C 	0.98410 0.56670 0.37507 0.68900
C 	C 	0.98776 0.59350 0.37215 -0.73000
H 	H 	0.97340 0.60440 0.37020 0.24000
C 	C 	0.01290 0.60383 0.37216 0.58600
C 	C 	0.05400 0.54282 0.38117 -1.10100
H 	H 	0.04810 0.52510 0.38290 0.33400
H 	H 	0.06510 0.54430 0.36610 0.33300
H 	H 	0.06360 0.54780 0.39650 0.33600
C 	C 	0.95680 0.55540 0.37506 -1.20600
H 	H 	0.95770 0.53680 0.37720 0.36900
H 	H 	0.94690 0.56290 0.38920 0.35900
H 	H 	0.94840 0.55940 0.35870 0.35400
C 	C 	0.01680 0.63291 0.36899 -1.08100
H 	H 	0.00020 0.64130 0.36720 0.31800
H 	H 	0.02570 0.63970 0.38410 0.32100
H 	H 	0.02720 0.63620 0.35370 0.32700
Zn	Zn	0.62930 0.11760 0.37515 0.83700
N 	N 	0.59705 0.11333 0.40345 -0.33900
C 	C 	0.60200 0.11536 0.43070 0.06200
C 	C 	0.57959 0.10608 0.44420 -0.11800
H 	H 	0.57760 0.10520 0.46230 0.05600
C 	C 	0.56079 0.09831 0.42530 -0.05500
H 	H 	0.54430 0.09150 0.42880 0.02700
C 	C 	0.57158 0.10280 0.40012 -0.01400
C 	C 	0.56141 0.09860 0.37509 0.03300
N 	N 	0.59717 0.11341 0.34672 -0.33800
C 	C 	0.57171 0.10290 0.35020 -0.01300
C 	C 	0.56078 0.09841 0.32508 -0.05100
H 	H 	0.54430 0.09160 0.32170 0.03100
C 	C 	0.57948 0.10614 0.30607 -0.11200
H 	H 	0.57740 0.10530 0.28800 0.05900
C 	C 	0.60197 0.11542 0.31945 0.06900
C 	C 	0.60970 0.14280 0.48475 -0.21900
H 	H 	0.59950 0.15480 0.47570 0.08200
C 	C 	0.60980 0.14270 0.51193 0.11800
H 	H 	0.59960 0.15470 0.52110 -0.01400
O 	O 	0.61070 0.14070 0.56699 -0.53600
C 	C 	0.63710 0.10480 0.26559 -0.20300
H 	H 	0.64520 0.09130 0.27470 0.08400
C 	C 	0.63720 0.10470 0.23841 0.10400
H 	H 	0.64530 0.09110 0.22940 -0.00600
O 	O 	0.63920 0.10910 0.18313 -0.53100
C 	C 	0.53435 0.08741 0.37508 -0.44200
C 	C 	0.53070 0.06065 0.37800 0.59600
C 	C 	0.50560 0.05028 0.37800 -0.73100
H 	H 	0.50310 0.03240 0.38000 0.25700
C 	C 	0.48410 0.06670 0.37507 0.68900
C 	C 	0.48776 0.09350 0.37215 -0.73000
H 	H 	0.47340 0.10440 0.37020 0.24000
C 	C 	0.51290 0.10383 0.37216 0.58600
C 	C 	0.55400 0.04282 0.38117 -1.10100
H 	H 	0.54810 0.02510 0.38290 0.33400
H 	H 	0.56510 0.04430 0.36610 0.33300
H 	H 	0.56360 0.04780 0.39650 0.33600
C 	C 	0.45680 0.05540 0.37506 -1.20600
H 	H 	0.45770 0.03680 0.37720 0.36900
H 	H 	0.44690 0.06290 0.38920 0.35900
H 	H 	0.44840 0.05940 0.35870 0.35400
C 	C 	0.51680 0.13291 0.36899 -1.08100
H 	H 	0.50020 0.14130 0.36720 0.31800
H 	H 	0.52570 0.13970 0.38410 0.32100
H 	H 	0.52720 0.13620 0.35370 0.32700
Zn	Zn	0.62930 0.61760 0.87515 0.83700
N 	N 	0.59705 0.61333 0.90345 -0.33900
C 	C 	0.60200 0.61536 0.93070 0.06200
C 	C 	0.57959 0.60608 0.94420 -0.11800
H 	H 	0.57760 0.60520 0.96230 0.05600
C 	C 	0.56079 0.59831 0.92530 -0.05500
H 	H 	0.54430 0.59150 0.92880 0.02700
C 	C 	0.57158 0.60280 0.90012 -0.01400
C 	C 	0.56141 0.59860 0.87509 0.03300
N 	N 	0.59717 0.61341 0.84672 -0.33800
C 	C 	0.57171 0.60290 0.85020 -0.01300
C 	C 	0.56078 0.59841 0.82508 -0.05100
H 	H 	0.54430 0.59160 0.82170 0.03100
C 	C 	0.57948 0.60614 0.80607 -0.11200
H 	H 	0.57740 0.60530 0.78800 0.05900
C 	C 	0.60197 0.61542 0.81945 0.06900
C 	C 	0.60970 0.64280 0.98475 -0.21900
H 	H 	0.59950 0.65480 0.97570 0.08200
C 	C 	0.60980 0.64270 0.01193 0.11800
H 	H 	0.59960 0.65470 0.02110 -0.01400
O 	O 	0.61070 0.64070 0.06699 -0.53600
C 	C 	0.63710 0.60480 0.76559 -0.20300
H 	H 	0.64520 0.59130 0.77470 0.08400
C 	C 	0.63720 0.60470 0.73841 0.10400
H 	H 	0.64530 0.59110 0.72940 -0.00600
O 	O 	0.63920 0.60910 0.68313 -0.53100
C 	C 	0.53435 0.58741 0.87508 -0.44200
C 	C 	0.53070 0.56065 0.87800 0.59600
C 	C 	0.50560 0.55028 0.87800 -0.73100
H 	H 	0.50310 0.53240 0.88000 0.25700
C 	C 	0.48410 0.56670 0.87507 0.68900
C 	C 	0.48776 0.59350 0.87215 -0.73000
H 	H 	0.47340 0.60440 0.87020 0.24000
C 	C 	0.51290 0.60383 0.87216 0.58600
C 	C 	0.55400 0.54282 0.88117 -1.10100
H 	H 	0.54810 0.52510 0.88290 0.33400
H 	H 	0.56510 0.54430 0.86610 0.33300
H 	H 	0.56360 0.54780 0.89650 0.33600
C 	C 	0.45680 0.55540 0.87506 -1.20600
H 	H 	0.45770 0.53680 0.87720 0.36900
H 	H 	0.44690 0.56290 0.88920 0.35900
H 	H 	0.44840 0.55940 0.85870 0.35400
C 	C 	0.51680 0.63291 0.86899 -1.08100
H 	H 	0.50020 0.64130 0.86720 0.31800
H 	H 	0.52570 0.63970 0.88410 0.32100
H 	H 	0.52720 0.63620 0.85370 0.32700
Zn	Zn	0.62070 0.11760 0.87485 0.83700
N 	N 	0.65295 0.11333 0.84655 -0.33900
C 	C 	0.64800 0.11536 0.81930 0.06200
C 	C 	0.67041 0.10608 0.80580 -0.11800
H 	H 	0.67240 0.10520 0.78770 0.05600
C 	C 	0.68921 0.09831 0.82470 -0.05500
H 	H 	0.70570 0.09150 0.82120 0.02700
C 	C 	0.67842 0.10280 0.84988 -0.01400
C 	C 	0.68859 0.09860 0.87491 0.03300
N 	N 	0.65283 0.11341 0.90328 -0.33800
C 	C 	0.67829 0.10290 0.89980 -0.01300
C 	C 	0.68922 0.09841 0.92492 -0.05100
H 	H 	0.70570 0.09160 0.92830 0.03100
C 	C 	0.67052 0.10614 0.94393 -0.11200
H 	H 	0.67260 0.10530 0.96200 0.05900
C 	C 	0.64803 0.11542 0.93055 0.06900
C 	C 	0.64030 0.14280 0.76525 -0.21900
H 	H 	0.65050 0.15480 0.77430 0.08200
C 	C 	0.64020 0.14270 0.73807 0.11800
H 	H 	0.65040 0.15470 0.72890 -0.01400
O 	O 	0.63930 0.14070 0.68301 -0.53600
C 	C 	0.61290 0.10480 0.98441 -0.20300
H 	H 	0.60480 0.09130 0.97530 0.08400
C 	C 	0.61280 0.10470 0.01159 0.10400
H 	H 	0.60470 0.09110 0.02060 -0.00600
O 	O 	0.61080 0.10910 0.06687 -0.53100
C 	C 	0.71565 0.08741 0.87492 -0.44200
C 	C 	0.71930 0.06065 0.87200 0.59600
C 	C 	0.74440 0.05028 0.87200 -0.73100
H 	H 	0.74690 0.03240 0.87000 0.25700
C 	C 	0.76590 0.06670 0.87493 0.68900
C 	C 	0.76224 0.09350 0.87785 -0.73000
H 	H 	0.77660 0.10440 0.87980 0.24000
C 	C 	0.73710 0.10383 0.87784 0.58600
C 	C 	0.69600 0.04282 0.86883 -1.10100
H 	H 	0.70190 0.02510 0.86710 0.33400
H 	H 	0.68490 0.04430 0.88390 0.33300
H 	H 	0.68640 0.04780 0.85350 0.33600
C 	C 	0.79320 0.05540 0.87494 -1.20600
H 	H 	0.79230 0.03680 0.87280 0.36900
H 	H 	0.80310 0.06290 0.86080 0.35900
H 	H 	0.80160 0.05940 0.89130 0.35400
C 	C 	0.73320 0.13291 0.88101 -1.08100
H 	H 	0.74980 0.14130 0.88280 0.31800
H 	H 	0.72430 0.13970 0.86590 0.32100
H 	H 	0.72280 0.13620 0.89630 0.32700
Zn	Zn	0.62070 0.61760 0.37485 0.83700
N 	N 	0.65295 0.61333 0.34655 -0.33900
C 	C 	0.64800 0.61536 0.31930 0.06200
C 	C 	0.67041 0.60608 0.30580 -0.11800
H 	H 	0.67240 0.60520 0.28770 0.05600
C 	C 	0.68921 0.59831 0.32470 -0.05500
H 	H 	0.70570 0.59150 0.32120 0.02700
C 	C 	0.67842 0.60280 0.34988 -0.01400
C 	C 	0.68859 0.59860 0.37491 0.03300
N 	N 	0.65283 0.61341 0.40328 -0.33800
C 	C 	0.67829 0.60290 0.39980 -0.01300
C 	C 	0.68922 0.59841 0.42492 -0.05100
H 	H 	0.70570 0.59160 0.42830 0.03100
C 	C 	0.67052 0.60614 0.44393 -0.11200
H 	H 	0.67260 0.60530 0.46200 0.05900
C 	C 	0.64803 0.61542 0.43055 0.06900
C 	C 	0.64030 0.64280 0.26525 -0.21900
H 	H 	0.65050 0.65480 0.27430 0.08200
C 	C 	0.64020 0.64270 0.23807 0.11800
H 	H 	0.65040 0.65470 0.22890 -0.01400
O 	O 	0.63930 0.64070 0.18301 -0.53600
C 	C 	0.61290 0.60480 0.48441 -0.20300
H 	H 	0.60480 0.59130 0.47530 0.08400
C 	C 	0.61280 0.60470 0.51159 0.10400
H 	H 	0.60470 0.59110 0.52060 -0.00600
O 	O 	0.61080 0.60910 0.56687 -0.53100
C 	C 	0.71565 0.58741 0.37492 -0.44200
C 	C 	0.71930 0.56065 0.37200 0.59600
C 	C 	0.74440 0.55028 0.37200 -0.73100
H 	H 	0.74690 0.53240 0.37000 0.25700
C 	C 	0.76590 0.56670 0.37493 0.68900
C 	C 	0.76224 0.59350 0.37785 -0.73000
H 	H 	0.77660 0.60440 0.37980 0.24000
C 	C 	0.73710 0.60383 0.37784 0.58600
C 	C 	0.69600 0.54282 0.36883 -1.10100
H 	H 	0.70190 0.52510 0.36710 0.33400
H 	H 	0.68490 0.54430 0.38390 0.33300
H 	H 	0.68640 0.54780 0.35350 0.33600
C 	C 	0.79320 0.55540 0.37494 -1.20600
H 	H 	0.79230 0.53680 0.37280 0.36900
H 	H 	0.80310 0.56290 0.36080 0.35900
H 	H 	0.80160 0.55940 0.39130 0.35400
C 	C 	0.73320 0.63291 0.38101 -1.08100
H 	H 	0.74980 0.64130 0.38280 0.31800
H 	H 	0.72430 0.63970 0.36590 0.32100
H 	H 	0.72280 0.63620 0.39630 0.32700
Zn	Zn	0.12070 0.11760 0.37485 0.83700
N 	N 	0.15295 0.11333 0.34655 -0.33900
C 	C 	0.14800 0.11536 0.31930 0.06200
C 	C 	0.17041 0.10608 0.30580 -0.11800
H 	H 	0.17240 0.10520 0.28770 0.05600
C 	C 	0.18921 0.09831 0.32470 -0.05500
H 	H 	0.20570 0.09150 0.32120 0.02700
C 	C 	0.17842 0.10280 0.34988 -0.01400
C 	C 	0.18859 0.09860 0.37491 0.03300
N 	N 	0.15283 0.11341 0.40328 -0.33800
C 	C 	0.17829 0.10290 0.39980 -0.01300
C 	C 	0.18922 0.09841 0.42492 -0.05100
H 	H 	0.20570 0.09160 0.42830 0.03100
C 	C 	0.17052 0.10614 0.44393 -0.11200
H 	H 	0.17260 0.10530 0.46200 0.05900
C 	C 	0.14803 0.11542 0.43055 0.06900
C 	C 	0.14030 0.14280 0.26525 -0.21900
H 	H 	0.15050 0.15480 0.27430 0.08200
C 	C 	0.14020 0.14270 0.23807 0.11800
H 	H 	0.15040 0.15470 0.22890 -0.01400
O 	O 	0.13930 0.14070 0.18301 -0.53600
C 	C 	0.11290 0.10480 0.48441 -0.20300
H 	H 	0.10480 0.09130 0.47530 0.08400
C 	C 	0.11280 0.10470 0.51159 0.10400
H 	H 	0.10470 0.09110 0.52060 -0.00600
O 	O 	0.11080 0.10910 0.56687 -0.53100
C 	C 	0.21565 0.08741 0.37492 -0.44200
C 	C 	0.21930 0.06065 0.37200 0.59600
C 	C 	0.24440 0.05028 0.37200 -0.73100
H 	H 	0.24690 0.03240 0.37000 0.25700
C 	C 	0.26590 0.06670 0.37493 0.68900
C 	C 	0.26224 0.09350 0.37785 -0.73000
H 	H 	0.27660 0.10440 0.37980 0.24000
C 	C 	0.23710 0.10383 0.37784 0.58600
C 	C 	0.19600 0.04282 0.36883 -1.10100
H 	H 	0.20190 0.02510 0.36710 0.33400
H 	H 	0.18490 0.04430 0.38390 0.33300
H 	H 	0.18640 0.04780 0.35350 0.33600
C 	C 	0.29320 0.05540 0.37494 -1.20600
H 	H 	0.29230 0.03680 0.37280 0.36900
H 	H 	0.30310 0.06290 0.36080 0.35900
H 	H 	0.30160 0.05940 0.39130 0.35400
C 	C 	0.23320 0.13291 0.38101 -1.08100
H 	H 	0.24980 0.14130 0.38280 0.31800
H 	H 	0.22430 0.13970 0.36590 0.32100
H 	H 	0.22280 0.13620 0.39630 0.32700
Zn	Zn	0.12070 0.61760 0.87485 0.83700
N 	N 	0.15295 0.61333 0.84655 -0.33900
C 	C 	0.14800 0.61536 0.81930 0.06200
C 	C 	0.17041 0.60608 0.80580 -0.11800
H 	H 	0.17240 0.60520 0.78770 0.05600
C 	C 	0.18921 0.59831 0.82470 -0.05500
H 	H 	0.20570 0.59150 0.82120 0.02700
C 	C 	0.17842 0.60280 0.84988 -0.01400
C 	C 	0.18859 0.59860 0.87491 0.03300
N 	N 	0.15283 0.61341 0.90328 -0.33800
C 	C 	0.17829 0.60290 0.89980 -0.01300
C 	C 	0.18922 0.59841 0.92492 -0.05100
H 	H 	0.20570 0.59160 0.92830 0.03100
C 	C 	0.17052 0.60614 0.94393 -0.11200
H 	H 	0.17260 0.60530 0.96200 0.05900
C 	C 	0.14803 0.61542 0.93055 0.06900
C 	C 	0.14030 0.64280 0.76525 -0.21900
H 	H 	0.15050 0.65480 0.77430 0.08200
C 	C 	0.14020 0.64270 0.73807 0.11800
H 	H 	0.15040 0.65470 0.72890 -0.01400
O 	O 	0.13930 0.64070 0.68301 -0.53600
C 	C 	0.11290 0.60480 0.98441 -0.20300
H 	H 	0.10480 0.59130 0.97530 0.08400
C 	C 	0.11280 0.60470 0.01159 0.10400
H 	H 	0.10470 0.59110 0.02060 -0.00600
O 	O 	0.11080 0.60910 0.06687 -0.53100
C 	C 	0.21565 0.58741 0.87492 -0.44200
C 	C 	0.21930 0.56065 0.87200 0.59600
C 	C 	0.24440 0.55028 0.87200 -0.73100
H 	H 	0.24690 0.53240 0.87000 0.25700
C 	C 	0.26590 0.56670 0.87493 0.68900
C 	C 	0.26224 0.59350 0.87785 -0.73000
H 	H 	0.27660 0.60440 0.87980 0.24000
C 	C 	0.23710 0.60383 0.87784 0.58600
C 	C 	0.19600 0.54282 0.86883 -1.10100
H 	H 	0.20190 0.52510 0.86710 0.33400
H 	H 	0.18490 0.54430 0.88390 0.33300
H 	H 	0.18640 0.54780 0.85350 0.33600
C 	C 	0.29320 0.55540 0.87494 -1.20600
H 	H 	0.29230 0.53680 0.87280 0.36900
H 	H 	0.30310 0.56290 0.86080 0.35900
H 	H 	0.30160 0.55940 0.89130 0.35400
C 	C 	0.23320 0.63291 0.88101 -1.08100
H 	H 	0.24980 0.64130 0.88280 0.31800
H 	H 	0.22430 0.63970 0.86590 0.32100
H 	H 	0.22280 0.63620 0.89630 0.32700
O 	O 	0.62500 0.12500 0.62500 -0.96700
O 	O 	0.12500 0.62500 0.62500 -0.96700
O 	O 	0.12500 0.12500 0.12500 -0.96700
O 	O 	0.62500 0.62500 0.12500 -0.96700
Zn	Zn	0.64672 0.10328 0.60328 1.22000
Zn	Zn	0.10328 0.64672 0.60328 1.22000
Zn	Zn	0.10328 0.10328 0.14672 1.22000
Zn	Zn	0.64672 0.64672 0.14672 1.22000
Zn	Zn	0.60328 0.64672 0.10328 1.22000
Zn	Zn	0.60328 0.14672 0.60328 1.22000
Zn	Zn	0.60328 0.10328 0.64672 1.22000
Zn	Zn	0.60328 0.60328 0.14672 1.22000
Zn	Zn	0.14672 0.10328 0.10328 1.22000
Zn	Zn	0.14672 0.60328 0.60328 1.22000
Zn	Zn	0.14672 0.64672 0.64672 1.22000
Zn	Zn	0.14672 0.14672 0.14672 1.22000
Zn	Zn	0.10328 0.60328 0.64672 1.22000
Zn	Zn	0.64672 0.60328 0.10328 1.22000
Zn	Zn	0.10328 0.14672 0.10328 1.22000
Zn	Zn	0.64672 0.14672 0.64672 1.22000
O 	O 	0.12500 0.12500 0.62500 -0.95100
O 	O 	0.62500 0.62500 0.62500 -0.95100
O 	O 	0.62500 0.12500 0.12500 -0.95100
O 	O 	0.12500 0.62500 0.12500 -0.95100
Zn	Zn	0.10308 0.14692 0.64692 1.21900
Zn	Zn	0.64692 0.60308 0.64692 1.21900
Zn	Zn	0.64692 0.14692 0.10308 1.21900
Zn	Zn	0.10308 0.60308 0.10308 1.21900
Zn	Zn	0.64692 0.10308 0.14692 1.21900
Zn	Zn	0.64692 0.64692 0.60308 1.21900
Zn	Zn	0.10308 0.64692 0.14692 1.21900
Zn	Zn	0.10308 0.10308 0.60308 1.21900
Zn	Zn	0.14692 0.64692 0.10308 1.21900
Zn	Zn	0.14692 0.14692 0.60308 1.21900
Zn	Zn	0.60308 0.64692 0.64692 1.21900
Zn	Zn	0.60308 0.14692 0.14692 1.21900
Zn	Zn	0.14692 0.10308 0.64692 1.21900
Zn	Zn	0.14692 0.60308 0.14692 1.21900
Zn	Zn	0.60308 0.10308 0.10308 1.21900
Zn	Zn	0.60308 0.60308 0.60308 1.21900
C 	C 	0.80820 0.12500 0.62500 -0.19300
C 	C 	0.94157 0.12500 0.62500 -0.18700
C 	C 	0.77895 0.12500 0.62500 0.15700
C 	C 	0.72460 0.12500 0.62500 -0.21200
C 	C 	0.69520 0.12500 0.62500 0.44800
C 	C 	0.97092 0.12500 0.62500 0.15100
C 	C 	0.02527 0.12500 0.62500 -0.19200
C 	C 	0.05470 0.12500 0.62500 0.43800
C 	C 	0.30820 0.12500 0.12500 -0.19300
C 	C 	0.44157 0.12500 0.12500 -0.18700
C 	C 	0.27895 0.12500 0.12500 0.15700
C 	C 	0.22460 0.12500 0.12500 -0.21200
C 	C 	0.19520 0.12500 0.12500 0.44800
C 	C 	0.47092 0.12500 0.12500 0.15100
C 	C 	0.52527 0.12500 0.12500 -0.19200
C 	C 	0.55470 0.12500 0.12500 0.43800
C 	C 	0.94180 0.62500 0.62500 -0.19300
C 	C 	0.80843 0.62500 0.62500 -0.18700
C 	C 	0.97105 0.62500 0.62500 0.15700
C 	C 	0.02540 0.62500 0.62500 -0.21200
C 	C 	0.05480 0.62500 0.62500 0.44800
C 	C 	0.77908 0.62500 0.62500 0.15100
C 	C 	0.72473 0.62500 0.62500 -0.19200
C 	C 	0.69530 0.62500 0.62500 0.43800
C 	C 	0.44180 0.62500 0.12500 -0.19300
C 	C 	0.30843 0.62500 0.12500 -0.18700
C 	C 	0.47105 0.62500 0.12500 0.15700
C 	C 	0.52540 0.62500 0.12500 -0.21200
C 	C 	0.55480 0.62500 0.12500 0.44800
C 	C 	0.27908 0.62500 0.12500 0.15100
C 	C 	0.22473 0.62500 0.12500 -0.19200
C 	C 	0.19530 0.62500 0.12500 0.43800
C 	C 	0.94180 0.12500 0.12500 -0.19300
C 	C 	0.80843 0.12500 0.12500 -0.18700
C 	C 	0.97105 0.12500 0.12500 0.15700
C 	C 	0.02540 0.12500 0.12500 -0.21200
C 	C 	0.05480 0.12500 0.12500 0.44800
C 	C 	0.77908 0.12500 0.12500 0.15100
C 	C 	0.72473 0.12500 0.12500 -0.19200
C 	C 	0.69530 0.12500 0.12500 0.43800
C 	C 	0.44180 0.12500 0.62500 -0.19300
C 	C 	0.30843 0.12500 0.62500 -0.18700
C 	C 	0.47105 0.12500 0.62500 0.15700
C 	C 	0.52540 0.12500 0.62500 -0.21200
C 	C 	0.55480 0.12500 0.62500 0.44800
C 	C 	0.27908 0.12500 0.62500 0.15100
C 	C 	0.22473 0.12500 0.62500 -0.19200
C 	C 	0.19530 0.12500 0.62500 0.43800
C 	C 	0.80820 0.62500 0.12500 -0.19300
C 	C 	0.94157 0.62500 0.12500 -0.18700
C 	C 	0.77895 0.62500 0.12500 0.15700
C 	C 	0.72460 0.62500 0.12500 -0.21200
C 	C 	0.69520 0.62500 0.12500 0.44800
C 	C 	0.97092 0.62500 0.12500 0.15100
C 	C 	0.02527 0.62500 0.12500 -0.19200
C 	C 	0.05470 0.62500 0.12500 0.43800
C 	C 	0.30820 0.62500 0.62500 -0.19300
C 	C 	0.44157 0.62500 0.62500 -0.18700
C 	C 	0.27895 0.62500 0.62500 0.15700
C 	C 	0.22460 0.62500 0.62500 -0.21200
C 	C 	0.19520 0.62500 0.62500 0.44800
C 	C 	0.47092 0.62500 0.62500 0.15100
C 	C 	0.52527 0.62500 0.62500 -0.19200
C 	C 	0.55470 0.62500 0.62500 0.43800
C 	C 	0.62500 0.80820 0.12500 -0.19300
C 	C 	0.62500 0.94157 0.12500 -0.18700
C 	C 	0.62500 0.77895 0.12500 0.15700
C 	C 	0.62500 0.72460 0.12500 -0.21200
C 	C 	0.62500 0.69520 0.12500 0.44800
C 	C 	0.62500 0.97092 0.12500 0.15100
C 	C 	0.62500 0.02527 0.12500 -0.19200
C 	C 	0.62500 0.05470 0.12500 0.43800
C 	C 	0.62500 0.30820 0.62500 -0.19300
C 	C 	0.62500 0.44157 0.62500 -0.18700
C 	C 	0.62500 0.27895 0.62500 0.15700
C 	C 	0.62500 0.22460 0.62500 -0.21200
C 	C 	0.62500 0.19520 0.62500 0.44800
C 	C 	0.62500 0.47092 0.62500 0.15100
C 	C 	0.62500 0.52527 0.62500 -0.19200
C 	C 	0.62500 0.55470 0.62500 0.43800
C 	C 	0.62500 0.94180 0.62500 -0.19300
C 	C 	0.62500 0.80843 0.62500 -0.18700
C 	C 	0.62500 0.97105 0.62500 0.15700
C 	C 	0.62500 0.02540 0.62500 -0.21200
C 	C 	0.62500 0.05480 0.62500 0.44800
C 	C 	0.62500 0.77908 0.62500 0.15100
C 	C 	0.62500 0.72473 0.62500 -0.19200
C 	C 	0.62500 0.69530 0.62500 0.43800
C 	C 	0.62500 0.44180 0.12500 -0.19300
C 	C 	0.62500 0.30843 0.12500 -0.18700
C 	C 	0.62500 0.47105 0.12500 0.15700
C 	C 	0.62500 0.52540 0.12500 -0.21200
C 	C 	0.62500 0.55480 0.12500 0.44800
C 	C 	0.62500 0.27908 0.12500 0.15100
C 	C 	0.62500 0.22473 0.12500 -0.19200
C 	C 	0.62500 0.19530 0.12500 0.43800
C 	C 	0.12500 0.94180 0.12500 -0.19300
C 	C 	0.12500 0.80843 0.12500 -0.18700
C 	C 	0.12500 0.97105 0.12500 0.15700
C 	C 	0.12500 0.02540 0.12500 -0.21200
C 	C 	0.12500 0.05480 0.12500 0.44800
C 	C 	0.12500 0.77908 0.12500 0.15100
C 	C 	0.12500 0.72473 0.12500 -0.19200
C 	C 	0.12500 0.69530 0.12500 0.43800
C 	C 	0.12500 0.44180 0.62500 -0.19300
C 	C 	0.12500 0.30843 0.62500 -0.18700
C 	C 	0.12500 0.47105 0.62500 0.15700
C 	C 	0.12500 0.52540 0.62500 -0.21200
C 	C 	0.12500 0.55480 0.62500 0.44800
C 	C 	0.12500 0.27908 0.62500 0.15100
C 	C 	0.12500 0.22473 0.62500 -0.19200
C 	C 	0.12500 0.19530 0.62500 0.43800
C 	C 	0.12500 0.80820 0.62500 -0.19300
C 	C 	0.12500 0.94157 0.62500 -0.18700
C 	C 	0.12500 0.77895 0.62500 0.15700
C 	C 	0.12500 0.72460 0.62500 -0.21200
C 	C 	0.12500 0.69520 0.62500 0.44800
C 	C 	0.12500 0.97092 0.62500 0.15100
C 	C 	0.12500 0.02527 0.62500 -0.19200
C 	C 	0.12500 0.05470 0.62500 0.43800
C 	C 	0.12500 0.30820 0.12500 -0.19300
C 	C 	0.12500 0.44157 0.12500 -0.18700
C 	C 	0.12500 0.27895 0.12500 0.15700
C 	C 	0.12500 0.22460 0.12500 -0.21200
C 	C 	0.12500 0.19520 0.12500 0.44800
C 	C 	0.12500 0.47092 0.12500 0.15100
C 	C 	0.12500 0.52527 0.12500 -0.19200
C 	C 	0.12500 0.55470 0.12500 0.43800
C 	C 	0.12500 0.62500 0.80820 -0.19300
C 	C 	0.12500 0.62500 0.94157 -0.18700
C 	C 	0.12500 0.62500 0.77895 0.15700
C 	C 	0.12500 0.62500 0.72460 -0.21200
C 	C 	0.12500 0.62500 0.69520 0.44800
C 	C 	0.12500 0.62500 0.97092 0.15100
C 	C 	0.12500 0.62500 0.02527 -0.19200
C 	C 	0.12500 0.62500 0.05470 0.43800
C 	C 	0.12500 0.12500 0.30820 -0.19300
C 	C 	0.12500 0.12500 0.44157 -0.18700
C 	C 	0.12500 0.12500 0.27895 0.15700
C 	C 	0.12500 0.12500 0.22460 -0.21200
C 	C 	0.12500 0.12500 0.19520 0.44800
C 	C 	0.12500 0.12500 0.47092 0.15100
C 	C 	0.12500 0.12500 0.52527 -0.19200
C 	C 	0.12500 0.12500 0.55470 0.43800
C 	C 	0.62500 0.62500 0.94180 -0.19300
C 	C 	0.62500 0.62500 0.80843 -0.18700
C 	C 	0.62500 0.62500 0.97105 0.15700
C 	C 	0.62500 0.62500 0.02540 -0.21200
C 	C 	0.62500 0.62500 0.05480 0.44800
C 	C 	0.62500 0.62500 0.77908 0.15100
C 	C 	0.62500 0.62500 0.72473 -0.19200
C 	C 	0.62500 0.62500 0.69530 0.43800
C 	C 	0.62500 0.12500 0.44180 -0.19300
C 	C 	0.62500 0.12500 0.30843 -0.18700
C 	C 	0.62500 0.12500 0.47105 0.15700
C 	C 	0.62500 0.12500 0.52540 -0.21200
C 	C 	0.62500 0.12500 0.55480 0.44800
C 	C 	0.62500 0.12500 0.27908 0.15100
C 	C 	0.62500 0.12500 0.22473 -0.19200
C 	C 	0.62500 0.12500 0.19530 0.43800
C 	C 	0.12500 0.12500 0.94180 -0.19300
C 	C 	0.12500 0.12500 0.80843 -0.18700
C 	C 	0.12500 0.12500 0.97105 0.15700
C 	C 	0.12500 0.12500 0.02540 -0.21200
C 	C 	0.12500 0.12500 0.05480 0.44800
C 	C 	0.12500 0.12500 0.77908 0.15100
C 	C 	0.12500 0.12500 0.72473 -0.19200
C 	C 	0.12500 0.12500 0.69530 0.43800
C 	C 	0.12500 0.62500 0.44180 -0.19300
C 	C 	0.12500 0.62500 0.30843 -0.18700
C 	C 	0.12500 0.62500 0.47105 0.15700
C 	C 	0.12500 0.62500 0.52540 -0.21200
C 	C 	0.12500 0.62500 0.55480 0.44800
C 	C 	0.12500 0.62500 0.27908 0.15100
C 	C 	0.12500 0.62500 0.22473 -0.19200
C 	C 	0.12500 0.62500 0.19530 0.43800
C 	C 	0.62500 0.12500 0.80820 -0.19300
C 	C 	0.62500 0.12500 0.94157 -0.18700
C 	C 	0.62500 0.12500 0.77895 0.15700
C 	C 	0.62500 0.12500 0.72460 -0.21200
C 	C 	0.62500 0.12500 0.69520 0.44800
C 	C 	0.62500 0.12500 0.97092 0.15100
C 	C 	0.62500 0.12500 0.02527 -0.19200
C 	C 	0.62500 0.12500 0.05470 0.43800
C 	C 	0.62500 0.62500 0.30820 -0.19300
C 	C 	0.62500 0.62500 0.44157 -0.18700
C 	C 	0.62500 0.62500 0.27895 0.15700
C 	C 	0.62500 0.62500 0.22460 -0.21200
C 	C 	0.62500 0.62500 0.19520 0.44800
C 	C 	0.62500 0.62500 0.47092 0.15100
C 	C 	0.62500 0.62500 0.52527 -0.19200
C 	C 	0.62500 0.62500 0.55470 0.43800
