data_crystal

_cell_length_a 22.26900
_cell_length_b 22.26900
_cell_length_c 22.26900
_cell_angle_alpha 109.47120
_cell_angle_beta  109.47120
_cell_angle_gamma 109.47120

_symmetry_space_group_name_	'P 1'
_symmetry_space_group_name_H-M	'P 1'

loop_
_symmetry_equiv_pos_as_xyz
  x,y,z

loop_
_atom_site_label
_atom_site_type_symbol
_atom_site_fract_x
_atom_site_fract_y
_atom_site_fract_z
_atom_site_charge
O 	O 	0.54650 0.81060 0.19150 -0.45300
O 	O 	0.67020 0.94020 0.08800 -0.58700
O 	O 	0.80360 0.93790 0.07930 -0.55000
O 	O 	0.53690 0.86610 0.27960 -0.47800
C 	C 	0.55970 0.86840 0.23610 0.42500
C 	C 	0.62060 0.92940 0.18120 0.14200
H 	H 	0.60001 0.87357 0.13349 0.01800
C 	C 	0.60100 0.93360 0.23960 -0.12800
O 	O 	0.61910 0.35500 0.80850 -0.44800
O 	O 	0.85220 0.58220 0.91200 -0.59600
O 	O 	0.85860 0.72430 0.92070 -0.55700
O 	O 	0.58650 0.25730 0.72040 -0.49900
C 	C 	0.63230 0.32360 0.76390 0.44200
C 	C 	0.74820 0.43940 0.81880 0.10500
H 	H 	0.74008 0.46653 0.86651 0.03800
C 	C 	0.69400 0.36140 0.76040 -0.18400
O 	O 	0.38090 0.18940 0.73590 -0.45300
O 	O 	0.14780 0.05980 0.73000 -0.62200
O 	O 	0.14140 0.06210 0.86570 -0.57100
O 	O 	0.41350 0.13390 0.67080 -0.50200
C 	C 	0.36770 0.13160 0.69130 0.43400
C 	C 	0.25180 0.07060 0.69120 0.10300
H 	H 	0.25992 0.12643 0.72645 0.02800
C 	C 	0.30600 0.06640 0.66740 -0.17700
O 	O 	0.45350 0.64500 0.26410 -0.45900
O 	O 	0.32980 0.41780 0.27000 -0.63200
O 	O 	0.19640 0.27570 0.13430 -0.59500
O 	O 	0.46310 0.74270 0.32920 -0.49400
C 	C 	0.44030 0.67640 0.30870 0.44200
C 	C 	0.37940 0.56060 0.30880 0.10200
H 	H 	0.39999 0.53347 0.27355 0.02500
C 	C 	0.39900 0.63860 0.33260 -0.18900
O 	O 	0.19150 0.54650 0.81060 -0.45300
O 	O 	0.08800 0.67020 0.94020 -0.58700
O 	O 	0.07930 0.80360 0.93790 -0.55000
O 	O 	0.27960 0.53690 0.86610 -0.47800
C 	C 	0.23610 0.55970 0.86840 0.42500
C 	C 	0.18120 0.62060 0.92940 0.14200
H 	H 	0.13349 0.60001 0.87357 0.01800
C 	C 	0.23960 0.60100 0.93360 -0.12800
O 	O 	0.80850 0.61910 0.35500 -0.44800
O 	O 	0.91200 0.85220 0.58220 -0.59600
O 	O 	0.92070 0.85860 0.72430 -0.55700
O 	O 	0.72040 0.58650 0.25730 -0.49900
C 	C 	0.76390 0.63230 0.32360 0.44200
C 	C 	0.81880 0.74820 0.43940 0.10500
H 	H 	0.86651 0.74008 0.46653 0.03800
C 	C 	0.76040 0.69400 0.36140 -0.18400
O 	O 	0.73590 0.38090 0.18940 -0.45300
O 	O 	0.73000 0.14780 0.05980 -0.62200
O 	O 	0.86570 0.14140 0.06210 -0.57100
O 	O 	0.67080 0.41350 0.13390 -0.50200
C 	C 	0.69130 0.36770 0.13160 0.43400
C 	C 	0.69120 0.25180 0.07060 0.10300
H 	H 	0.72645 0.25992 0.12643 0.02800
C 	C 	0.66740 0.30600 0.06640 -0.17700
O 	O 	0.26410 0.45350 0.64500 -0.45900
O 	O 	0.27000 0.32980 0.41780 -0.63200
O 	O 	0.13430 0.19640 0.27570 -0.59500
O 	O 	0.32920 0.46310 0.74270 -0.49400
C 	C 	0.30870 0.44030 0.67640 0.44200
C 	C 	0.30880 0.37940 0.56060 0.10200
H 	H 	0.27355 0.39999 0.53347 0.02500
C 	C 	0.33260 0.39900 0.63860 -0.18900
O 	O 	0.81060 0.19150 0.54650 -0.45300
O 	O 	0.94020 0.08800 0.67020 -0.58700
O 	O 	0.93790 0.07930 0.80360 -0.55000
O 	O 	0.86610 0.27960 0.53690 -0.47800
C 	C 	0.86840 0.23610 0.55970 0.42500
C 	C 	0.92940 0.18120 0.62060 0.14200
H 	H 	0.87357 0.13349 0.60001 0.01800
C 	C 	0.93360 0.23960 0.60100 -0.12800
O 	O 	0.35500 0.80850 0.61910 -0.44800
O 	O 	0.58220 0.91200 0.85220 -0.59600
O 	O 	0.72430 0.92070 0.85860 -0.55700
O 	O 	0.25730 0.72040 0.58650 -0.49900
C 	C 	0.32360 0.76390 0.63230 0.44200
C 	C 	0.43940 0.81880 0.74820 0.10400
H 	H 	0.46653 0.86651 0.74008 0.03800
C 	C 	0.36140 0.76040 0.69400 -0.18400
O 	O 	0.18940 0.73590 0.38090 -0.45300
O 	O 	0.05980 0.73000 0.14780 -0.62200
O 	O 	0.06210 0.86570 0.14140 -0.57100
O 	O 	0.13390 0.67080 0.41350 -0.50200
C 	C 	0.13160 0.69130 0.36770 0.43400
C 	C 	0.07060 0.69120 0.25180 0.10300
H 	H 	0.12643 0.72645 0.25992 0.02800
C 	C 	0.06640 0.66740 0.30600 -0.17700
O 	O 	0.64500 0.26410 0.45350 -0.45900
O 	O 	0.41780 0.27000 0.32980 -0.63200
O 	O 	0.27570 0.13430 0.19640 -0.59500
O 	O 	0.74270 0.32920 0.46310 -0.49400
C 	C 	0.67640 0.30870 0.44030 0.44200
C 	C 	0.56060 0.30880 0.37940 0.10200
H 	H 	0.53347 0.27355 0.39999 0.02500
C 	C 	0.63860 0.33260 0.39900 -0.18900
O 	O 	0.81060 0.54650 0.19150 -0.45300
O 	O 	0.94020 0.67020 0.08800 -0.58700
O 	O 	0.93790 0.80360 0.07930 -0.55000
O 	O 	0.86610 0.53690 0.27960 -0.47800
C 	C 	0.86840 0.55970 0.23610 0.42500
C 	C 	0.92940 0.62060 0.18120 0.14200
H 	H 	0.87357 0.60001 0.13349 0.01800
C 	C 	0.93360 0.60100 0.23960 -0.12800
O 	O 	0.35500 0.61910 0.80850 -0.44800
O 	O 	0.58220 0.85220 0.91200 -0.59600
O 	O 	0.72430 0.85860 0.92070 -0.55700
O 	O 	0.25730 0.58650 0.72040 -0.49900
C 	C 	0.32360 0.63230 0.76390 0.44200
C 	C 	0.43940 0.74820 0.81880 0.10500
H 	H 	0.46653 0.74008 0.86651 0.03800
C 	C 	0.36140 0.69400 0.76040 -0.18400
O 	O 	0.18940 0.38090 0.73590 -0.45300
O 	O 	0.05980 0.14780 0.73000 -0.62200
O 	O 	0.06210 0.14140 0.86570 -0.57100
O 	O 	0.13390 0.41350 0.67080 -0.50200
C 	C 	0.13160 0.36770 0.69130 0.43400
C 	C 	0.07060 0.25180 0.69120 0.10300
H 	H 	0.12643 0.25992 0.72645 0.02800
C 	C 	0.06640 0.30600 0.66740 -0.17700
O 	O 	0.64500 0.45350 0.26410 -0.45900
O 	O 	0.41780 0.32980 0.27000 -0.63200
O 	O 	0.27570 0.19640 0.13430 -0.59500
O 	O 	0.74270 0.46310 0.32920 -0.49400
C 	C 	0.67640 0.44030 0.30870 0.44200
C 	C 	0.56060 0.37940 0.30880 0.10200
H 	H 	0.53347 0.39999 0.27355 0.02500
C 	C 	0.63860 0.39900 0.33260 -0.18900
O 	O 	0.54650 0.19150 0.81060 -0.45300
O 	O 	0.67020 0.08800 0.94020 -0.58700
O 	O 	0.80360 0.07930 0.93790 -0.55000
O 	O 	0.53690 0.27960 0.86610 -0.47800
C 	C 	0.55970 0.23610 0.86840 0.42500
C 	C 	0.62060 0.18120 0.92940 0.14200
H 	H 	0.60001 0.13349 0.87357 0.01800
C 	C 	0.60100 0.23960 0.93360 -0.12800
O 	O 	0.61910 0.80850 0.35500 -0.44800
O 	O 	0.85220 0.91200 0.58220 -0.59600
O 	O 	0.85860 0.92070 0.72430 -0.55700
O 	O 	0.58650 0.72040 0.25730 -0.49900
C 	C 	0.63230 0.76390 0.32360 0.44200
C 	C 	0.74820 0.81880 0.43940 0.10400
H 	H 	0.74008 0.86651 0.46653 0.03800
C 	C 	0.69400 0.76040 0.36140 -0.18400
O 	O 	0.38090 0.73590 0.18940 -0.45300
O 	O 	0.14780 0.73000 0.05980 -0.62200
O 	O 	0.14140 0.86570 0.06210 -0.57100
O 	O 	0.41350 0.67080 0.13390 -0.50200
C 	C 	0.36770 0.69130 0.13160 0.43400
C 	C 	0.25180 0.69120 0.07060 0.10300
H 	H 	0.25992 0.72645 0.12643 0.02800
C 	C 	0.30600 0.66740 0.06640 -0.17700
O 	O 	0.45350 0.26410 0.64500 -0.45900
O 	O 	0.32980 0.27000 0.41780 -0.63200
O 	O 	0.19640 0.13430 0.27570 -0.59500
O 	O 	0.46310 0.32920 0.74270 -0.49400
C 	C 	0.44030 0.30870 0.67640 0.44200
C 	C 	0.37940 0.30880 0.56060 0.10200
H 	H 	0.39999 0.27355 0.53347 0.02500
C 	C 	0.39900 0.33260 0.63860 -0.18900
O 	O 	0.19150 0.81060 0.54650 -0.45300
O 	O 	0.08800 0.94020 0.67020 -0.58700
O 	O 	0.07930 0.93790 0.80360 -0.55000
O 	O 	0.27960 0.86610 0.53690 -0.47800
C 	C 	0.23610 0.86840 0.55970 0.42500
C 	C 	0.18120 0.92940 0.62060 0.14200
H 	H 	0.13349 0.87357 0.60001 0.01800
C 	C 	0.23960 0.93360 0.60100 -0.12800
O 	O 	0.80850 0.35500 0.61910 -0.44800
O 	O 	0.91200 0.58220 0.85220 -0.59600
O 	O 	0.92070 0.72430 0.85860 -0.55700
O 	O 	0.72040 0.25730 0.58650 -0.49900
C 	C 	0.76390 0.32360 0.63230 0.44200
C 	C 	0.81880 0.43940 0.74820 0.10400
H 	H 	0.86651 0.46653 0.74008 0.03800
C 	C 	0.76040 0.36140 0.69400 -0.18400
O 	O 	0.73590 0.18940 0.38090 -0.45300
O 	O 	0.73000 0.05980 0.14780 -0.62200
O 	O 	0.86570 0.06210 0.14140 -0.57100
O 	O 	0.67080 0.13390 0.41350 -0.50200
C 	C 	0.69130 0.13160 0.36770 0.43400
C 	C 	0.69120 0.07060 0.25180 0.10300
H 	H 	0.72645 0.12643 0.25992 0.02800
C 	C 	0.66740 0.06640 0.30600 -0.17700
O 	O 	0.26410 0.64500 0.45350 -0.45900
O 	O 	0.27000 0.41780 0.32980 -0.63200
O 	O 	0.13430 0.27570 0.19640 -0.59500
O 	O 	0.32920 0.74270 0.46310 -0.49400
C 	C 	0.30870 0.67640 0.44030 0.44200
C 	C 	0.30880 0.56060 0.37940 0.10200
H 	H 	0.27355 0.53347 0.39999 0.02500
C 	C 	0.33260 0.63860 0.39900 -0.18900
In	In	0.69437 0.90283 -0.00000 1.97700
In	In	0.90283 0.69437 -0.00000 1.97700
In	In	0.09717 0.09717 0.79154 1.98200
In	In	0.30563 0.30563 0.20846 1.98400
In	In	-0.00000 0.69437 0.90283 1.97700
In	In	-0.00000 0.90283 0.69437 1.97700
In	In	0.79154 0.09717 0.09717 1.98200
In	In	0.20846 0.30563 0.30563 1.98400
In	In	0.90283 -0.00000 0.69437 1.97700
In	In	0.69437 -0.00000 0.90283 1.97700
In	In	0.09717 0.79154 0.09717 1.98200
In	In	0.30563 0.20846 0.30563 1.98400
In	In	0.50000 0.75000 0.25000 2.00000
In	In	0.50000 0.25000 0.75000 2.00000
In	In	0.25000 0.50000 0.75000 2.00000
In	In	0.75000 0.50000 0.25000 2.00000
In	In	0.75000 0.25000 0.50000 2.00000
In	In	0.25000 0.75000 0.50000 2.00000
O 	O 	0.73140 0.00000 -0.00000 -1.08400
O 	O 	-0.00000 0.73140 -0.00000 -1.08400
O 	O 	-0.00000 0.00000 0.73140 -1.08400
O 	O 	0.26860 0.26860 0.26860 -1.02600
C 	C 	-0.00000 0.06590 0.19330 0.05800
H 	H 	-0.00125 0.11956 0.21120 0.01200
C 	C 	0.87260 0.80670 0.80670 0.11500
H 	H 	0.90836 0.78755 0.78880 0.03100
C 	C 	0.12740 0.93410 0.93410 0.20300
H 	H 	0.09164 0.88044 0.87919 0.00000
C 	C 	-0.00000 0.19330 0.06590 0.05800
H 	H 	0.00125 0.21245 0.12081 0.01300
C 	C 	0.19330 -0.00000 0.06590 0.05900
H 	H 	0.21120 -0.00125 0.11956 0.01200
C 	C 	0.80670 0.87260 0.80670 0.11500
H 	H 	0.78880 0.90836 0.78755 0.03100
C 	C 	0.93410 0.12740 0.93410 0.20300
H 	H 	0.87919 0.09164 0.88044 0.00000
C 	C 	0.06590 -0.00000 0.19330 0.05800
H 	H 	0.12081 0.00125 0.21245 0.01300
C 	C 	0.06590 0.19330 -0.00000 0.05800
H 	H 	0.12081 0.21245 0.00125 0.01300
C 	C 	0.80670 0.80670 0.87260 0.11500
H 	H 	0.78880 0.78755 0.90836 0.03100
C 	C 	0.93410 0.93410 0.12740 0.20300
H 	H 	0.87919 0.88044 0.09164 0.00000
C 	C 	0.19330 0.06590 -0.00000 0.05900
H 	H 	0.21120 0.11956 -0.00125 0.01200
C 	C 	0.93560 -0.00000 0.14960 -0.18300
C 	C 	0.69140 0.00000 0.13840 0.47500
C 	C 	0.86120 0.00000 0.12300 0.40200
C 	C 	0.62340 0.00000 0.29840 0.05300
H 	H 	0.60569 0.00033 0.34094 0.03900
C 	C 	0.66470 -0.00000 0.19470 -0.22100
C 	C 	0.85040 0.78600 0.85040 -0.16100
C 	C 	0.86160 0.55300 0.86160 0.52800
C 	C 	0.87700 0.73820 0.87700 0.46100
C 	C 	0.70160 0.32500 0.70160 0.12100
H 	H 	0.65906 0.26474 0.65939 0.04000
C 	C 	0.80530 0.47000 0.80530 -0.16700
C 	C 	0.14960 -0.00000 0.93560 -0.18300
C 	C 	0.13840 0.00000 0.69140 0.47500
C 	C 	0.12300 0.00000 0.86120 0.40200
C 	C 	0.29840 0.00000 0.62340 0.05300
H 	H 	0.34061 -0.00033 0.60536 0.03900
C 	C 	0.19470 0.00000 0.66470 -0.22100
C 	C 	0.06440 0.21400 0.06440 -0.16800
C 	C 	0.30860 0.44700 0.30860 0.53400
C 	C 	0.13880 0.26180 0.13880 0.45200
C 	C 	0.37660 0.67500 0.37660 0.12100
H 	H 	0.39464 0.73526 0.39431 0.04500
C 	C 	0.33530 0.53000 0.33530 -0.18000
C 	C 	0.14960 0.93560 -0.00000 -0.18300
C 	C 	0.13840 0.69140 -0.00000 0.47500
C 	C 	0.12300 0.86120 -0.00000 0.40200
C 	C 	0.29840 0.62340 -0.00000 0.05300
H 	H 	0.34094 0.60569 0.00033 0.03900
C 	C 	0.19470 0.66470 -0.00000 -0.22100
C 	C 	0.85040 0.85040 0.78600 -0.16100
C 	C 	0.86160 0.86160 0.55300 0.52800
C 	C 	0.87700 0.87700 0.73820 0.46100
C 	C 	0.70160 0.70160 0.32500 0.12100
H 	H 	0.65939 0.65906 0.26474 0.04000
C 	C 	0.80530 0.80530 0.47000 -0.16700
C 	C 	0.93560 0.14960 -0.00000 -0.18300
C 	C 	0.69140 0.13840 -0.00000 0.47500
C 	C 	0.86120 0.12300 -0.00000 0.40200
C 	C 	0.62340 0.29840 -0.00000 0.05300
H 	H 	0.60569 0.34094 0.00033 0.03900
C 	C 	0.66470 0.19470 -0.00000 -0.22100
C 	C 	0.06440 0.06440 0.21400 -0.16800
C 	C 	0.30860 0.30860 0.44700 0.53400
C 	C 	0.13880 0.13880 0.26180 0.45200
C 	C 	0.37660 0.37660 0.67500 0.12100
H 	H 	0.39464 0.39431 0.73526 0.04500
C 	C 	0.33530 0.33530 0.53000 -0.18000
C 	C 	-0.00000 0.14960 0.93560 -0.18300
C 	C 	0.00000 0.13840 0.69140 0.47500
C 	C 	0.00000 0.12300 0.86120 0.40200
C 	C 	-0.00000 0.29840 0.62340 0.05300
H 	H 	-0.00033 0.34061 0.60536 0.03900
C 	C 	0.00000 0.19470 0.66470 -0.22100
C 	C 	0.78600 0.85040 0.85040 -0.16100
C 	C 	0.55300 0.86160 0.86160 0.52800
C 	C 	0.73820 0.87700 0.87700 0.46100
C 	C 	0.32500 0.70160 0.70160 0.12100
H 	H 	0.26474 0.65906 0.65939 0.04000
C 	C 	0.47000 0.80530 0.80530 -0.16700
C 	C 	-0.00000 0.93560 0.14960 -0.18300
C 	C 	-0.00000 0.69140 0.13840 0.47500
C 	C 	-0.00000 0.86120 0.12300 0.40200
C 	C 	-0.00000 0.62340 0.29840 0.05300
H 	H 	-0.00033 0.60536 0.34061 0.03900
C 	C 	0.00000 0.66470 0.19470 -0.22100
C 	C 	0.21400 0.06440 0.06440 -0.16800
C 	C 	0.44700 0.30860 0.30860 0.53400
C 	C 	0.26180 0.13880 0.13880 0.45300
C 	C 	0.67500 0.37660 0.37660 0.12100
H 	H 	0.73526 0.39464 0.39431 0.04500
C 	C 	0.53000 0.33530 0.33530 -0.18000
