data_crystal

_cell_length_a 25.80660
_cell_length_b 25.80660
_cell_length_c 25.80660
_cell_angle_alpha 90.00000
_cell_angle_beta  90.00000
_cell_angle_gamma 90.00000

_symmetry_space_group_name_	'P 1'
_symmetry_space_group_name_H-M	'P 1'

loop_
_symmetry_equiv_pos_as_xyz
  x,y,z

loop_
_atom_site_label
_atom_site_type_symbol
_atom_site_fract_x
_atom_site_fract_y
_atom_site_fract_z
_atom_site_charge
In	In	0.20020 0.09634 0.11055 1.27200
O 	O 	0.23730 0.09100 0.17630 -0.68900
O 	O 	0.22870 0.02610 0.41700 -0.87700
O 	O 	0.16690 0.10610 0.02640 -0.69900
C 	C 	0.24530 0.05750 0.31630 0.20100
C 	C 	0.28740 0.04130 0.34890 -0.56800
C 	C 	0.27060 0.03170 0.40170 0.83200
O 	O 	0.30150 0.01960 0.43740 -1.06800
In	In	0.70020 0.59634 0.61055 1.27500
O 	O 	0.73730 0.59100 0.67630 -0.66600
O 	O 	0.72870 0.52610 0.91700 -0.74900
O 	O 	0.66690 0.60610 0.52640 -0.66600
C 	C 	0.74530 0.55750 0.81630 0.25000
C 	C 	0.78740 0.54130 0.84890 -0.52600
C 	C 	0.77060 0.53170 0.90170 0.80400
O 	O 	0.80150 0.51960 0.93740 -0.91100
In	In	0.79980 0.90366 0.11055 1.27700
O 	O 	0.76270 0.90900 0.17630 -0.66900
O 	O 	0.77130 0.97390 0.41700 -0.73200
O 	O 	0.83310 0.89390 0.02640 -0.64600
C 	C 	0.75470 0.94250 0.31630 0.25700
C 	C 	0.71260 0.95870 0.34890 -0.51400
C 	C 	0.72940 0.96830 0.40170 0.79400
O 	O 	0.69850 0.98040 0.43740 -0.91700
In	In	0.29980 0.40366 0.61055 1.27500
O 	O 	0.26270 0.40900 0.67630 -0.68100
O 	O 	0.27130 0.47390 0.91700 -0.75000
O 	O 	0.33310 0.39390 0.52640 -0.66900
C 	C 	0.25470 0.44250 0.81630 0.24000
C 	C 	0.21260 0.45870 0.84890 -0.52800
C 	C 	0.22940 0.46830 0.90170 0.79700
O 	O 	0.19850 0.48040 0.93740 -0.93700
In	In	0.79980 0.09634 0.88945 1.27400
O 	O 	0.76270 0.09100 0.82370 -0.68000
O 	O 	0.77130 0.02610 0.58300 -0.85700
O 	O 	0.83310 0.10610 0.97360 -0.68100
C 	C 	0.75470 0.05750 0.68370 0.21900
C 	C 	0.71260 0.04130 0.65110 -0.56400
C 	C 	0.72940 0.03170 0.59830 0.83100
O 	O 	0.69850 0.01960 0.56260 -1.06500
In	In	0.29980 0.59634 0.38945 1.27500
O 	O 	0.26270 0.59100 0.32370 -0.68200
O 	O 	0.27130 0.52610 0.08300 -0.85900
O 	O 	0.33310 0.60610 0.47360 -0.66800
C 	C 	0.25470 0.55750 0.18370 0.21400
C 	C 	0.21260 0.54130 0.15110 -0.55500
C 	C 	0.22940 0.53170 0.09830 0.82400
O 	O 	0.19850 0.51960 0.06260 -1.07300
In	In	0.20020 0.90366 0.88945 1.27800
O 	O 	0.23730 0.90900 0.82370 -0.66100
O 	O 	0.22870 0.97390 0.58300 -0.75000
O 	O 	0.16690 0.89390 0.97360 -0.64400
C 	C 	0.24530 0.94250 0.68370 0.24500
C 	C 	0.28740 0.95870 0.65110 -0.51600
C 	C 	0.27060 0.96830 0.59830 0.79700
O 	O 	0.30150 0.98040 0.56260 -0.91900
In	In	0.70020 0.40366 0.38945 1.27500
O 	O 	0.73730 0.40900 0.32370 -0.67100
O 	O 	0.72870 0.47390 0.08300 -0.85800
O 	O 	0.66690 0.39390 0.47360 -0.66600
C 	C 	0.74530 0.44250 0.18370 0.21900
C 	C 	0.78740 0.45870 0.15110 -0.55200
C 	C 	0.77060 0.46830 0.09830 0.82800
O 	O 	0.80150 0.48040 0.06260 -1.04700
In	In	0.11055 0.20020 0.09634 1.27300
O 	O 	0.17630 0.23730 0.09100 -0.68800
O 	O 	0.41700 0.22870 0.02610 -0.87600
O 	O 	0.02640 0.16690 0.10610 -0.69800
C 	C 	0.31630 0.24530 0.05750 0.20200
C 	C 	0.34890 0.28740 0.04130 -0.56700
C 	C 	0.40170 0.27060 0.03170 0.83300
O 	O 	0.43740 0.30150 0.01960 -1.06700
In	In	0.61055 0.70020 0.59634 1.27600
O 	O 	0.67630 0.73730 0.59100 -0.66600
O 	O 	0.91700 0.72870 0.52610 -0.74900
O 	O 	0.52640 0.66690 0.60610 -0.66600
C 	C 	0.81630 0.74530 0.55750 0.25000
C 	C 	0.84890 0.78740 0.54130 -0.52600
C 	C 	0.90170 0.77060 0.53170 0.80400
O 	O 	0.93740 0.80150 0.51960 -0.91100
In	In	0.11055 0.79980 0.90366 1.27700
O 	O 	0.17630 0.76270 0.90900 -0.66900
O 	O 	0.41700 0.77130 0.97390 -0.73200
O 	O 	0.02640 0.83310 0.89390 -0.64600
C 	C 	0.31630 0.75470 0.94250 0.25700
C 	C 	0.34890 0.71260 0.95870 -0.51400
C 	C 	0.40170 0.72940 0.96830 0.79400
O 	O 	0.43740 0.69850 0.98040 -0.91700
In	In	0.61055 0.29980 0.40366 1.27500
O 	O 	0.67630 0.26270 0.40900 -0.68100
O 	O 	0.91700 0.27130 0.47390 -0.75000
O 	O 	0.52640 0.33310 0.39390 -0.66900
C 	C 	0.81630 0.25470 0.44250 0.24000
C 	C 	0.84890 0.21260 0.45870 -0.52800
C 	C 	0.90170 0.22940 0.46830 0.79700
O 	O 	0.93740 0.19850 0.48040 -0.93700
In	In	0.88945 0.79980 0.09634 1.27400
O 	O 	0.82370 0.76270 0.09100 -0.68000
O 	O 	0.58300 0.77130 0.02610 -0.85700
O 	O 	0.97360 0.83310 0.10610 -0.68100
C 	C 	0.68370 0.75470 0.05750 0.21900
C 	C 	0.65110 0.71260 0.04130 -0.56400
C 	C 	0.59830 0.72940 0.03170 0.83100
O 	O 	0.56260 0.69850 0.01960 -1.06500
In	In	0.38945 0.29980 0.59634 1.27500
O 	O 	0.32370 0.26270 0.59100 -0.68200
O 	O 	0.08300 0.27130 0.52610 -0.85900
O 	O 	0.47360 0.33310 0.60610 -0.66800
C 	C 	0.18370 0.25470 0.55750 0.21400
C 	C 	0.15110 0.21260 0.54130 -0.55500
C 	C 	0.09830 0.22940 0.53170 0.82400
O 	O 	0.06260 0.19850 0.51960 -1.07300
In	In	0.88945 0.20020 0.90366 1.27800
O 	O 	0.82370 0.23730 0.90900 -0.66100
O 	O 	0.58300 0.22870 0.97390 -0.75000
O 	O 	0.97360 0.16690 0.89390 -0.64400
C 	C 	0.68370 0.24530 0.94250 0.24500
C 	C 	0.65110 0.28740 0.95870 -0.51600
C 	C 	0.59830 0.27060 0.96830 0.79700
O 	O 	0.56260 0.30150 0.98040 -0.91900
In	In	0.38945 0.70020 0.40366 1.27500
O 	O 	0.32370 0.73730 0.40900 -0.67100
O 	O 	0.08300 0.72870 0.47390 -0.85800
O 	O 	0.47360 0.66690 0.39390 -0.66600
C 	C 	0.18370 0.74530 0.44250 0.21900
C 	C 	0.15110 0.78740 0.45870 -0.55200
C 	C 	0.09830 0.77060 0.46830 0.82800
O 	O 	0.06260 0.80150 0.48040 -1.04700
In	In	0.09634 0.11055 0.20020 1.27300
O 	O 	0.09100 0.17630 0.23730 -0.68800
O 	O 	0.02610 0.41700 0.22870 -0.87600
O 	O 	0.10610 0.02640 0.16690 -0.69800
C 	C 	0.05750 0.31630 0.24530 0.20200
C 	C 	0.04130 0.34890 0.28740 -0.56700
C 	C 	0.03170 0.40170 0.27060 0.83300
O 	O 	0.01960 0.43740 0.30150 -1.06700
In	In	0.59634 0.61055 0.70020 1.27600
O 	O 	0.59100 0.67630 0.73730 -0.66600
O 	O 	0.52610 0.91700 0.72870 -0.74900
O 	O 	0.60610 0.52640 0.66690 -0.66600
C 	C 	0.55750 0.81630 0.74530 0.25000
C 	C 	0.54130 0.84890 0.78740 -0.52600
C 	C 	0.53170 0.90170 0.77060 0.80400
O 	O 	0.51960 0.93740 0.80150 -0.91100
In	In	0.90366 0.11055 0.79980 1.27700
O 	O 	0.90900 0.17630 0.76270 -0.66900
O 	O 	0.97390 0.41700 0.77130 -0.73200
O 	O 	0.89390 0.02640 0.83310 -0.64600
C 	C 	0.94250 0.31630 0.75470 0.25700
C 	C 	0.95870 0.34890 0.71260 -0.51400
C 	C 	0.96830 0.40170 0.72940 0.79400
O 	O 	0.98040 0.43740 0.69850 -0.91700
In	In	0.40366 0.61055 0.29980 1.27500
O 	O 	0.40900 0.67630 0.26270 -0.68100
O 	O 	0.47390 0.91700 0.27130 -0.75000
O 	O 	0.39390 0.52640 0.33310 -0.66900
C 	C 	0.44250 0.81630 0.25470 0.24000
C 	C 	0.45870 0.84890 0.21260 -0.52800
C 	C 	0.46830 0.90170 0.22940 0.79700
O 	O 	0.48040 0.93740 0.19850 -0.93700
In	In	0.09634 0.88945 0.79980 1.27400
O 	O 	0.09100 0.82370 0.76270 -0.68000
O 	O 	0.02610 0.58300 0.77130 -0.85700
O 	O 	0.10610 0.97360 0.83310 -0.68100
C 	C 	0.05750 0.68370 0.75470 0.21900
C 	C 	0.04130 0.65110 0.71260 -0.56400
C 	C 	0.03170 0.59830 0.72940 0.83100
O 	O 	0.01960 0.56260 0.69850 -1.06500
In	In	0.59634 0.38945 0.29980 1.27500
O 	O 	0.59100 0.32370 0.26270 -0.68200
O 	O 	0.52610 0.08300 0.27130 -0.85900
O 	O 	0.60610 0.47360 0.33310 -0.66800
C 	C 	0.55750 0.18370 0.25470 0.21400
C 	C 	0.54130 0.15110 0.21260 -0.55500
C 	C 	0.53170 0.09830 0.22940 0.82400
O 	O 	0.51960 0.06260 0.19850 -1.07300
In	In	0.90366 0.88945 0.20020 1.27800
O 	O 	0.90900 0.82370 0.23730 -0.66100
O 	O 	0.97390 0.58300 0.22870 -0.75000
O 	O 	0.89390 0.97360 0.16690 -0.64400
C 	C 	0.94250 0.68370 0.24530 0.24500
C 	C 	0.95870 0.65110 0.28740 -0.51600
C 	C 	0.96830 0.59830 0.27060 0.79700
O 	O 	0.98040 0.56260 0.30150 -0.91900
In	In	0.40366 0.38945 0.70020 1.27500
O 	O 	0.40900 0.32370 0.73730 -0.67100
O 	O 	0.47390 0.08300 0.72870 -0.85800
O 	O 	0.39390 0.47360 0.66690 -0.66600
C 	C 	0.44250 0.18370 0.74530 0.21900
C 	C 	0.45870 0.15110 0.78740 -0.55200
C 	C 	0.46830 0.09830 0.77060 0.82800
O 	O 	0.48040 0.06260 0.80150 -1.04700
In	In	0.09634 0.20020 0.11055 1.27300
O 	O 	0.09100 0.23730 0.17630 -0.68800
O 	O 	0.02610 0.22870 0.41700 -0.87600
O 	O 	0.10610 0.16690 0.02640 -0.69800
C 	C 	0.05750 0.24530 0.31630 0.20200
C 	C 	0.04130 0.28740 0.34890 -0.56700
C 	C 	0.03170 0.27060 0.40170 0.83300
O 	O 	0.01960 0.30150 0.43740 -1.06700
In	In	0.59634 0.70020 0.61055 1.27600
O 	O 	0.59100 0.73730 0.67630 -0.66600
O 	O 	0.52610 0.72870 0.91700 -0.74900
O 	O 	0.60610 0.66690 0.52640 -0.66600
C 	C 	0.55750 0.74530 0.81630 0.25000
C 	C 	0.54130 0.78740 0.84890 -0.52600
C 	C 	0.53170 0.77060 0.90170 0.80400
O 	O 	0.51960 0.80150 0.93740 -0.91100
In	In	0.90366 0.79980 0.11055 1.27700
O 	O 	0.90900 0.76270 0.17630 -0.66900
O 	O 	0.97390 0.77130 0.41700 -0.73200
O 	O 	0.89390 0.83310 0.02640 -0.64600
C 	C 	0.94250 0.75470 0.31630 0.25700
C 	C 	0.95870 0.71260 0.34890 -0.51400
C 	C 	0.96830 0.72940 0.40170 0.79400
O 	O 	0.98040 0.69850 0.43740 -0.91700
In	In	0.40366 0.29980 0.61055 1.27500
O 	O 	0.40900 0.26270 0.67630 -0.68100
O 	O 	0.47390 0.27130 0.91700 -0.75000
O 	O 	0.39390 0.33310 0.52640 -0.66900
C 	C 	0.44250 0.25470 0.81630 0.24000
C 	C 	0.45870 0.21260 0.84890 -0.52800
C 	C 	0.46830 0.22940 0.90170 0.79700
O 	O 	0.48040 0.19850 0.93740 -0.93700
In	In	0.09634 0.79980 0.88945 1.27400
O 	O 	0.09100 0.76270 0.82370 -0.68000
O 	O 	0.02610 0.77130 0.58300 -0.85700
O 	O 	0.10610 0.83310 0.97360 -0.68100
C 	C 	0.05750 0.75470 0.68370 0.21900
C 	C 	0.04130 0.71260 0.65110 -0.56400
C 	C 	0.03170 0.72940 0.59830 0.83100
O 	O 	0.01960 0.69850 0.56260 -1.06500
In	In	0.59634 0.29980 0.38945 1.27500
O 	O 	0.59100 0.26270 0.32370 -0.68200
O 	O 	0.52610 0.27130 0.08300 -0.85900
O 	O 	0.60610 0.33310 0.47360 -0.66800
C 	C 	0.55750 0.25470 0.18370 0.21400
C 	C 	0.54130 0.21260 0.15110 -0.55500
C 	C 	0.53170 0.22940 0.09830 0.82400
O 	O 	0.51960 0.19850 0.06260 -1.07300
In	In	0.90366 0.20020 0.88945 1.27800
O 	O 	0.90900 0.23730 0.82370 -0.66100
O 	O 	0.97390 0.22870 0.58300 -0.75000
O 	O 	0.89390 0.16690 0.97360 -0.64400
C 	C 	0.94250 0.24530 0.68370 0.24500
C 	C 	0.95870 0.28740 0.65110 -0.51600
C 	C 	0.96830 0.27060 0.59830 0.79700
O 	O 	0.98040 0.30150 0.56260 -0.91900
In	In	0.40366 0.70020 0.38945 1.27500
O 	O 	0.40900 0.73730 0.32370 -0.67100
O 	O 	0.47390 0.72870 0.08300 -0.85800
O 	O 	0.39390 0.66690 0.47360 -0.66600
C 	C 	0.44250 0.74530 0.18370 0.21900
C 	C 	0.45870 0.78740 0.15110 -0.55200
C 	C 	0.46830 0.77060 0.09830 0.82800
O 	O 	0.48040 0.80150 0.06260 -1.04700
In	In	0.20020 0.11055 0.09634 1.27300
O 	O 	0.23730 0.17630 0.09100 -0.68800
O 	O 	0.22870 0.41700 0.02610 -0.87600
O 	O 	0.16690 0.02640 0.10610 -0.69800
C 	C 	0.24530 0.31630 0.05750 0.20200
C 	C 	0.28740 0.34890 0.04130 -0.56700
C 	C 	0.27060 0.40170 0.03170 0.83300
O 	O 	0.30150 0.43740 0.01960 -1.06700
In	In	0.70020 0.61055 0.59634 1.27600
O 	O 	0.73730 0.67630 0.59100 -0.66600
O 	O 	0.72870 0.91700 0.52610 -0.74900
O 	O 	0.66690 0.52640 0.60610 -0.66600
C 	C 	0.74530 0.81630 0.55750 0.25000
C 	C 	0.78740 0.84890 0.54130 -0.52600
C 	C 	0.77060 0.90170 0.53170 0.80400
O 	O 	0.80150 0.93740 0.51960 -0.91100
In	In	0.79980 0.11055 0.90366 1.27700
O 	O 	0.76270 0.17630 0.90900 -0.66900
O 	O 	0.77130 0.41700 0.97390 -0.73200
O 	O 	0.83310 0.02640 0.89390 -0.64600
C 	C 	0.75470 0.31630 0.94250 0.25700
C 	C 	0.71260 0.34890 0.95870 -0.51400
C 	C 	0.72940 0.40170 0.96830 0.79400
O 	O 	0.69850 0.43740 0.98040 -0.91700
In	In	0.29980 0.61055 0.40366 1.27500
O 	O 	0.26270 0.67630 0.40900 -0.68100
O 	O 	0.27130 0.91700 0.47390 -0.75000
O 	O 	0.33310 0.52640 0.39390 -0.66900
C 	C 	0.25470 0.81630 0.44250 0.24000
C 	C 	0.21260 0.84890 0.45870 -0.52800
C 	C 	0.22940 0.90170 0.46830 0.79700
O 	O 	0.19850 0.93740 0.48040 -0.93700
In	In	0.79980 0.88945 0.09634 1.27400
O 	O 	0.76270 0.82370 0.09100 -0.68000
O 	O 	0.77130 0.58300 0.02610 -0.85700
O 	O 	0.83310 0.97360 0.10610 -0.68100
C 	C 	0.75470 0.68370 0.05750 0.21900
C 	C 	0.71260 0.65110 0.04130 -0.56400
C 	C 	0.72940 0.59830 0.03170 0.83100
O 	O 	0.69850 0.56260 0.01960 -1.06500
In	In	0.29980 0.38945 0.59634 1.27500
O 	O 	0.26270 0.32370 0.59100 -0.68200
O 	O 	0.27130 0.08300 0.52610 -0.85900
O 	O 	0.33310 0.47360 0.60610 -0.66800
C 	C 	0.25470 0.18370 0.55750 0.21400
C 	C 	0.21260 0.15110 0.54130 -0.55500
C 	C 	0.22940 0.09830 0.53170 0.82400
O 	O 	0.19850 0.06260 0.51960 -1.07300
In	In	0.20020 0.88945 0.90366 1.27800
O 	O 	0.23730 0.82370 0.90900 -0.66100
O 	O 	0.22870 0.58300 0.97390 -0.75000
O 	O 	0.16690 0.97360 0.89390 -0.64400
C 	C 	0.24530 0.68370 0.94250 0.24500
C 	C 	0.28740 0.65110 0.95870 -0.51600
C 	C 	0.27060 0.59830 0.96830 0.79700
O 	O 	0.30150 0.56260 0.98040 -0.91900
In	In	0.70020 0.38945 0.40366 1.27500
O 	O 	0.73730 0.32370 0.40900 -0.67100
O 	O 	0.72870 0.08300 0.47390 -0.85800
O 	O 	0.66690 0.47360 0.39390 -0.66600
C 	C 	0.74530 0.18370 0.44250 0.21900
C 	C 	0.78740 0.15110 0.45870 -0.55200
C 	C 	0.77060 0.09830 0.46830 0.82800
O 	O 	0.80150 0.06260 0.48040 -1.04700
In	In	0.11055 0.09634 0.20020 1.27300
O 	O 	0.17630 0.09100 0.23730 -0.68800
O 	O 	0.41700 0.02610 0.22870 -0.87600
O 	O 	0.02640 0.10610 0.16690 -0.69800
C 	C 	0.31630 0.05750 0.24530 0.20200
C 	C 	0.34890 0.04130 0.28740 -0.56700
C 	C 	0.40170 0.03170 0.27060 0.83300
O 	O 	0.43740 0.01960 0.30150 -1.06700
In	In	0.61055 0.59634 0.70020 1.27600
O 	O 	0.67630 0.59100 0.73730 -0.66600
O 	O 	0.91700 0.52610 0.72870 -0.74900
O 	O 	0.52640 0.60610 0.66690 -0.66600
C 	C 	0.81630 0.55750 0.74530 0.25000
C 	C 	0.84890 0.54130 0.78740 -0.52600
C 	C 	0.90170 0.53170 0.77060 0.80400
O 	O 	0.93740 0.51960 0.80150 -0.91100
In	In	0.11055 0.90366 0.79980 1.27700
O 	O 	0.17630 0.90900 0.76270 -0.66900
O 	O 	0.41700 0.97390 0.77130 -0.73200
O 	O 	0.02640 0.89390 0.83310 -0.64600
C 	C 	0.31630 0.94250 0.75470 0.25700
C 	C 	0.34890 0.95870 0.71260 -0.51400
C 	C 	0.40170 0.96830 0.72940 0.79400
O 	O 	0.43740 0.98040 0.69850 -0.91700
In	In	0.61055 0.40366 0.29980 1.27500
O 	O 	0.67630 0.40900 0.26270 -0.68100
O 	O 	0.91700 0.47390 0.27130 -0.75000
O 	O 	0.52640 0.39390 0.33310 -0.66900
C 	C 	0.81630 0.44250 0.25470 0.24000
C 	C 	0.84890 0.45870 0.21260 -0.52800
C 	C 	0.90170 0.46830 0.22940 0.79700
O 	O 	0.93740 0.48040 0.19850 -0.93700
In	In	0.88945 0.09634 0.79980 1.27400
O 	O 	0.82370 0.09100 0.76270 -0.68000
O 	O 	0.58300 0.02610 0.77130 -0.85700
O 	O 	0.97360 0.10610 0.83310 -0.68100
C 	C 	0.68370 0.05750 0.75470 0.21900
C 	C 	0.65110 0.04130 0.71260 -0.56400
C 	C 	0.59830 0.03170 0.72940 0.83100
O 	O 	0.56260 0.01960 0.69850 -1.06500
In	In	0.38945 0.59634 0.29980 1.27500
O 	O 	0.32370 0.59100 0.26270 -0.68200
O 	O 	0.08300 0.52610 0.27130 -0.85900
O 	O 	0.47360 0.60610 0.33310 -0.66800
C 	C 	0.18370 0.55750 0.25470 0.21400
C 	C 	0.15110 0.54130 0.21260 -0.55500
C 	C 	0.09830 0.53170 0.22940 0.82400
O 	O 	0.06260 0.51960 0.19850 -1.07300
In	In	0.88945 0.90366 0.20020 1.27800
O 	O 	0.82370 0.90900 0.23730 -0.66100
O 	O 	0.58300 0.97390 0.22870 -0.75000
O 	O 	0.97360 0.89390 0.16690 -0.64400
C 	C 	0.68370 0.94250 0.24530 0.24500
C 	C 	0.65110 0.95870 0.28740 -0.51600
C 	C 	0.59830 0.96830 0.27060 0.79700
O 	O 	0.56260 0.98040 0.30150 -0.91900
In	In	0.38945 0.40366 0.70020 1.27500
O 	O 	0.32370 0.40900 0.73730 -0.67100
O 	O 	0.08300 0.47390 0.72870 -0.85800
O 	O 	0.47360 0.39390 0.66690 -0.66600
C 	C 	0.18370 0.44250 0.74530 0.21900
C 	C 	0.15110 0.45870 0.78740 -0.55200
C 	C 	0.09830 0.46830 0.77060 0.82800
O 	O 	0.06260 0.48040 0.80150 -1.04700
In	In	0.21100 0.00000 0.50000 1.55100
In	In	0.25950 0.00000 0.50000 0.76800
In	In	0.71100 0.50000 -0.00000 1.55400
In	In	0.75950 0.50000 -0.00000 0.76800
In	In	0.78900 0.00000 0.50000 1.55600
In	In	0.74050 0.00000 0.50000 0.76800
In	In	0.28900 0.50000 -0.00000 1.55400
In	In	0.24050 0.50000 -0.00000 0.76800
In	In	0.50000 0.21100 -0.00000 1.55100
In	In	0.50000 0.25950 -0.00000 0.76800
In	In	0.00000 0.71100 0.50000 1.55400
In	In	0.00000 0.75950 0.50000 0.76800
In	In	0.50000 0.78900 -0.00000 1.55600
In	In	0.50000 0.74050 -0.00000 0.76800
In	In	-0.00000 0.28900 0.50000 1.55400
In	In	-0.00000 0.24050 0.50000 0.76800
In	In	0.00000 0.50000 0.21100 1.55100
In	In	-0.00000 0.50000 0.25950 0.76800
In	In	0.50000 0.00000 0.71100 1.55400
In	In	0.50000 0.00000 0.75950 0.76800
In	In	-0.00000 0.50000 0.78900 1.55600
In	In	-0.00000 0.50000 0.74050 0.76800
In	In	0.50000 -0.00000 0.28900 1.55400
In	In	0.50000 -0.00000 0.24050 0.76800
In	In	0.00000 0.21100 0.50000 1.55100
In	In	-0.00000 0.25950 0.50000 0.76800
In	In	0.50000 0.71100 -0.00000 1.55400
In	In	0.50000 0.75950 -0.00000 0.76800
In	In	-0.00000 0.78900 0.50000 1.55600
In	In	-0.00000 0.74050 0.50000 0.76800
In	In	0.50000 0.28900 -0.00000 1.55400
In	In	0.50000 0.24050 -0.00000 0.76800
In	In	0.21100 0.50000 -0.00000 1.55100
In	In	0.25950 0.50000 -0.00000 0.76800
In	In	0.71100 0.00000 0.50000 1.55400
In	In	0.75950 0.00000 0.50000 0.76800
In	In	0.78900 0.50000 -0.00000 1.55600
In	In	0.74050 0.50000 -0.00000 0.76800
In	In	0.28900 0.00000 0.50000 1.55400
In	In	0.24050 0.00000 0.50000 0.76800
In	In	0.50000 0.00000 0.21100 1.55100
In	In	0.50000 0.00000 0.25950 0.76800
In	In	-0.00000 0.50000 0.71100 1.55400
In	In	-0.00000 0.50000 0.75950 0.76800
In	In	0.50000 0.00000 0.78900 1.55600
In	In	0.50000 0.00000 0.74050 0.76800
In	In	-0.00000 0.50000 0.28900 1.55400
In	In	-0.00000 0.50000 0.24050 0.76800
O 	O 	0.26470 0.07020 0.07020 -0.55000
O 	O 	0.76470 0.57020 0.57020 -0.44500
O 	O 	0.73530 0.92980 0.07020 -0.45600
O 	O 	0.23530 0.42980 0.57020 -0.47100
O 	O 	0.73530 0.07020 0.92980 -0.45600
O 	O 	0.23530 0.57020 0.42980 -0.47100
O 	O 	0.26470 0.92980 0.92980 -0.36800
O 	O 	0.76470 0.42980 0.42980 -0.44600
O 	O 	0.07020 0.26470 0.07020 -0.55000
O 	O 	0.57020 0.76470 0.57020 -0.44500
O 	O 	0.07020 0.73530 0.92980 -0.45600
O 	O 	0.57020 0.23530 0.42980 -0.47100
O 	O 	0.92980 0.73530 0.07020 -0.45600
O 	O 	0.42980 0.23530 0.57020 -0.47100
O 	O 	0.92980 0.26470 0.92980 -0.36800
O 	O 	0.42980 0.76470 0.42980 -0.44600
O 	O 	0.07020 0.07020 0.26470 -0.55000
O 	O 	0.57020 0.57020 0.76470 -0.44500
O 	O 	0.92980 0.07020 0.73530 -0.45600
O 	O 	0.42980 0.57020 0.23530 -0.47100
O 	O 	0.07020 0.92980 0.73530 -0.45600
O 	O 	0.57020 0.42980 0.23530 -0.47100
O 	O 	0.92980 0.92980 0.26470 -0.36800
O 	O 	0.42980 0.42980 0.76470 -0.44600
O 	O 	0.13700 0.13700 0.13700 -1.25900
O 	O 	0.63700 0.63700 0.63700 -1.25200
O 	O 	0.86300 0.86300 0.13700 -1.25300
O 	O 	0.36300 0.36300 0.63700 -1.25500
O 	O 	0.86300 0.13700 0.86300 -1.25300
O 	O 	0.36300 0.63700 0.36300 -1.25500
O 	O 	0.13700 0.86300 0.86300 -1.25300
O 	O 	0.63700 0.36300 0.36300 -1.25500
C 	C 	0.10870 0.10870 0.95810 -0.07700
C 	C 	0.13060 0.13060 0.00670 0.35900
C 	C 	0.60870 0.60870 0.45810 -0.22700
C 	C 	0.63060 0.63060 0.50670 0.54700
C 	C 	0.89130 0.89130 0.95810 -0.03100
C 	C 	0.86940 0.86940 0.00670 0.37200
C 	C 	0.39130 0.39130 0.45810 -0.22700
C 	C 	0.36940 0.36940 0.50670 0.54600
C 	C 	0.89130 0.10870 0.04190 -0.40000
C 	C 	0.86940 0.13060 0.99330 0.73000
C 	C 	0.39130 0.60870 0.54190 -0.22700
C 	C 	0.36940 0.63060 0.49330 0.54700
C 	C 	0.10870 0.89130 0.04190 -0.40000
C 	C 	0.13060 0.86940 0.99330 0.73000
C 	C 	0.60870 0.39130 0.54190 -0.22700
C 	C 	0.63060 0.36940 0.49330 0.54700
C 	C 	0.95810 0.10870 0.10870 -0.07700
C 	C 	0.00670 0.13060 0.13060 0.35900
C 	C 	0.45810 0.60870 0.60870 -0.22700
C 	C 	0.50670 0.63060 0.63060 0.54700
C 	C 	0.95810 0.89130 0.89130 -0.03100
C 	C 	0.00670 0.86940 0.86940 0.37200
C 	C 	0.45810 0.39130 0.39130 -0.22700
C 	C 	0.50670 0.36940 0.36940 0.54600
C 	C 	0.04190 0.89130 0.10870 -0.40000
C 	C 	0.99330 0.86940 0.13060 0.73000
C 	C 	0.54190 0.39130 0.60870 -0.22700
C 	C 	0.49330 0.36940 0.63060 0.54700
C 	C 	0.04190 0.10870 0.89130 -0.40000
C 	C 	0.99330 0.13060 0.86940 0.73000
C 	C 	0.54190 0.60870 0.39130 -0.22700
C 	C 	0.49330 0.63060 0.36940 0.54700
C 	C 	0.10870 0.95810 0.10870 -0.07700
C 	C 	0.13060 0.00670 0.13060 0.35900
C 	C 	0.60870 0.45810 0.60870 -0.22700
C 	C 	0.63060 0.50670 0.63060 0.54700
C 	C 	0.89130 0.95810 0.89130 -0.03100
C 	C 	0.86940 0.00670 0.86940 0.37200
C 	C 	0.39130 0.45810 0.39130 -0.22700
C 	C 	0.36940 0.50670 0.36940 0.54600
C 	C 	0.10870 0.04190 0.89130 -0.40000
C 	C 	0.13060 0.99330 0.86940 0.73000
C 	C 	0.60870 0.54190 0.39130 -0.22700
C 	C 	0.63060 0.49330 0.36940 0.54700
C 	C 	0.89130 0.04190 0.10870 -0.40000
C 	C 	0.86940 0.99330 0.13060 0.73000
C 	C 	0.39130 0.54190 0.60870 -0.22700
C 	C 	0.36940 0.49330 0.63060 0.54700
C 	C 	0.06330 0.13170 0.93670 0.16200
C 	C 	0.56330 0.63170 0.43670 0.16700
C 	C 	0.93670 0.86830 0.93670 0.21800
C 	C 	0.43670 0.36830 0.43670 0.16400
C 	C 	0.93670 0.13170 0.06330 0.16200
C 	C 	0.43670 0.63170 0.56330 0.16700
C 	C 	0.06330 0.86830 0.06330 0.12500
C 	C 	0.56330 0.36830 0.56330 0.16500
C 	C 	0.93670 0.06330 0.13170 0.16200
C 	C 	0.43670 0.56330 0.63170 0.16700
C 	C 	0.93670 0.93670 0.86830 0.21800
C 	C 	0.43670 0.43670 0.36830 0.16400
C 	C 	0.06330 0.93670 0.13170 0.16200
C 	C 	0.56330 0.43670 0.63170 0.16700
C 	C 	0.06330 0.06330 0.86830 0.12500
C 	C 	0.56330 0.56330 0.36830 0.16500
C 	C 	0.13170 0.93670 0.06330 0.16200
C 	C 	0.63170 0.43670 0.56330 0.16700
C 	C 	0.86830 0.93670 0.93670 0.21800
C 	C 	0.36830 0.43670 0.43670 0.16400
C 	C 	0.13170 0.06330 0.93670 0.16200
C 	C 	0.63170 0.56330 0.43670 0.16700
C 	C 	0.86830 0.06330 0.06330 0.12500
C 	C 	0.36830 0.56330 0.56330 0.16500
C 	C 	0.22210 0.08340 0.22210 0.51000
C 	C 	0.26270 0.07030 0.26270 -0.24200
C 	C 	0.33060 0.03920 0.33060 0.48400
C 	C 	0.72210 0.58340 0.72210 0.52600
C 	C 	0.76270 0.57030 0.76270 -0.23100
C 	C 	0.83060 0.53920 0.83060 0.52900
C 	C 	0.77790 0.91660 0.22210 0.53100
C 	C 	0.73730 0.92970 0.26270 -0.23300
C 	C 	0.66940 0.96080 0.33060 0.51700
C 	C 	0.27790 0.41660 0.72210 0.52100
C 	C 	0.23730 0.42970 0.76270 -0.23900
C 	C 	0.16940 0.46080 0.83060 0.50000
C 	C 	0.77790 0.08340 0.77790 0.51500
C 	C 	0.73730 0.07030 0.73730 -0.24200
C 	C 	0.66940 0.03920 0.66940 0.48600
C 	C 	0.27790 0.58340 0.27790 0.51900
C 	C 	0.23730 0.57030 0.23730 -0.24200
C 	C 	0.16940 0.53920 0.16940 0.47500
C 	C 	0.22210 0.91660 0.77790 0.53100
C 	C 	0.26270 0.92970 0.73730 -0.23300
C 	C 	0.33060 0.96080 0.66940 0.51700
C 	C 	0.72210 0.41660 0.27790 0.52100
C 	C 	0.76270 0.42970 0.23730 -0.23900
C 	C 	0.83060 0.46080 0.16940 0.50000
C 	C 	0.22210 0.22210 0.08340 0.51000
C 	C 	0.26270 0.26270 0.07030 -0.24200
C 	C 	0.33060 0.33060 0.03920 0.48400
C 	C 	0.72210 0.72210 0.58340 0.52600
C 	C 	0.76270 0.76270 0.57030 -0.23100
C 	C 	0.83060 0.83060 0.53920 0.52900
C 	C 	0.22210 0.77790 0.91660 0.53100
C 	C 	0.26270 0.73730 0.92970 -0.23300
C 	C 	0.33060 0.66940 0.96080 0.51700
C 	C 	0.72210 0.27790 0.41660 0.52100
C 	C 	0.76270 0.23730 0.42970 -0.23900
C 	C 	0.83060 0.16940 0.46080 0.50000
C 	C 	0.77790 0.77790 0.08340 0.51500
C 	C 	0.73730 0.73730 0.07030 -0.24200
C 	C 	0.66940 0.66940 0.03920 0.48600
C 	C 	0.27790 0.27790 0.58340 0.51900
C 	C 	0.23730 0.23730 0.57030 -0.24200
C 	C 	0.16940 0.16940 0.53920 0.47500
C 	C 	0.77790 0.22210 0.91660 0.53100
C 	C 	0.73730 0.26270 0.92970 -0.23300
C 	C 	0.66940 0.33060 0.96080 0.51700
C 	C 	0.27790 0.72210 0.41660 0.52100
C 	C 	0.23730 0.76270 0.42970 -0.23900
C 	C 	0.16940 0.83060 0.46080 0.50000
C 	C 	0.08340 0.22210 0.22210 0.51000
C 	C 	0.07030 0.26270 0.26270 -0.24200
C 	C 	0.03920 0.33060 0.33060 0.48400
C 	C 	0.58340 0.72210 0.72210 0.52600
C 	C 	0.57030 0.76270 0.76270 -0.23100
C 	C 	0.53920 0.83060 0.83060 0.52900
C 	C 	0.91660 0.22210 0.77790 0.53100
C 	C 	0.92970 0.26270 0.73730 -0.23300
C 	C 	0.96080 0.33060 0.66940 0.51700
C 	C 	0.41660 0.72210 0.27790 0.52100
C 	C 	0.42970 0.76270 0.23730 -0.23900
C 	C 	0.46080 0.83060 0.16940 0.50000
C 	C 	0.08340 0.77790 0.77790 0.51500
C 	C 	0.07030 0.73730 0.73730 -0.24200
C 	C 	0.03920 0.66940 0.66940 0.48600
C 	C 	0.58340 0.27790 0.27790 0.51900
C 	C 	0.57030 0.23730 0.23730 -0.24200
C 	C 	0.53920 0.16940 0.16940 0.47500
C 	C 	0.91660 0.77790 0.22210 0.53100
C 	C 	0.92970 0.73730 0.26270 -0.23300
C 	C 	0.96080 0.66940 0.33060 0.51700
C 	C 	0.41660 0.27790 0.72210 0.52100
C 	C 	0.42970 0.23730 0.76270 -0.23900
C 	C 	0.46080 0.16940 0.83060 0.50000
