data_crystal

_cell_length_a 17.59100
_cell_length_b 22.78100
_cell_length_c 19.05800
_cell_angle_alpha 90.00000
_cell_angle_beta  93.22500
_cell_angle_gamma 90.00000

_symmetry_space_group_name_	'P 1'
_symmetry_space_group_name_H-M	'P 1'

loop_
_symmetry_equiv_pos_as_xyz
  x,y,z

loop_
_atom_site_label
_atom_site_type_symbol
_atom_site_fract_x
_atom_site_fract_y
_atom_site_fract_z
_atom_site_charge
N 	N 	0.99170 0.49784 0.31527 -0.11800
N 	N 	0.75800 0.30462 0.17088 -0.11600
N 	N 	0.88450 0.30910 0.18870 -0.24600
C 	C 	0.37370 0.33490 0.05170 0.30900
H 	H 	0.39320 0.35470 0.01400 -0.06900
N 	N 	0.90280 0.39780 0.09654 -0.13400
C 	C 	0.34530 0.36780 0.11040 -0.42800
H 	H 	0.34840 0.40850 0.10890 0.16400
C 	C 	0.78030 0.25393 0.20640 0.03800
O 	O 	0.53001 0.45006 0.41364 -0.53300
C 	C 	0.91240 0.42187 0.31350 0.06200
C 	C 	0.93720 0.47012 0.35180 0.03800
N 	N 	0.95630 0.26698 0.99454 -0.10100
N 	N 	0.05260 0.43400 0.14670 -0.13800
C 	C 	0.64300 0.35990 0.20330 0.16200
N 	N 	0.95300 0.41986 0.25259 -0.24900
C 	C 	0.12060 0.52619 0.36310 0.15200
C 	C 	0.82250 0.33556 0.16270 0.12900
N 	N 	0.00740 0.30660 0.09240 -0.25100
C 	C 	0.99930 0.46553 0.25650 0.12600
C 	C 	0.68870 0.23060 0.93840 0.18300
H 	H 	0.64580 0.23650 0.90830 -0.02400
C 	C 	0.60800 0.17146 0.01970 0.41900
C 	C 	0.73810 0.20620 0.22970 -0.08000
H 	H 	0.68530 0.20470 0.22330 0.04800
N 	N 	0.21080 0.36110 0.24000 -0.09900
C 	C 	0.89980 0.20950 0.24890 -0.11800
H 	H 	0.95260 0.20970 0.25500 0.05500
C 	C 	0.25120 0.55124 0.39100 0.11400
H 	H 	0.28850 0.58000 0.39720 -0.01700
O 	O 	0.46960 0.42195 0.53940 -0.57700
C 	C 	0.19720 0.32170 0.29370 0.02800
C 	C 	0.90300 0.36210 0.03120 -0.23000
H 	H 	0.85210 0.34740 0.01980 0.09900
H 	H 	0.91740 0.38680 0.99260 0.10200
C 	C 	0.95680 0.31201 0.03930 0.12200
C 	C 	0.75800 0.25050 0.91960 -0.27500
H 	H 	0.76130 0.27080 0.87750 0.12100
C 	C 	0.21220 0.45070 0.39840 0.10300
H 	H 	0.22350 0.41170 0.40870 0.01000
O 	O 	0.51210 0.51872 0.33069 -0.46800
C 	C 	0.01190 0.22740 0.02180 -0.00500
C 	C 	0.31680 0.34470 0.16320 0.39200
C 	C 	0.14290 0.37020 0.20380 0.12300
C 	C 	0.90710 0.48380 0.41790 -0.07200
H 	H 	0.92560 0.51500 0.44540 0.05500
C 	C 	0.05380 0.47950 0.20250 -0.20800
H 	H 	0.10480 0.48230 0.22460 0.09500
H 	H 	0.04100 0.51730 0.18160 0.08900
C 	C 	0.01550 0.45690 0.07910 -0.10000
H 	H 	0.02810 0.43180 0.04040 0.04600
H 	H 	0.03410 0.49610 0.07000 0.05100
O 	O 	0.40020 0.18680 0.00270 -0.44700
C 	C 	0.34980 0.47520 0.42390 0.38700
C 	C 	0.11890 0.31010 0.28720 0.06500
C 	C 	0.13830 0.46730 0.37790 -0.19400
H 	H 	0.10010 0.43910 0.37410 0.10400
C 	C 	0.85700 0.16330 0.27140 -0.01600
H 	H 	0.88190 0.13180 0.29340 0.02000
C 	C 	0.28490 0.38260 0.22030 -0.29900
H 	H 	0.32020 0.38260 0.26130 0.11600
H 	H 	0.27980 0.42270 0.20360 0.10900
C 	C 	0.82310 0.40020 0.39890 -0.01100
H 	H 	0.78370 0.37760 0.41510 0.04000
C 	C 	0.10060 0.22310 0.12160 -0.15000
H 	H 	0.12080 0.23860 0.16380 0.07800
C 	C 	0.77920 0.16190 0.26260 -0.05000
H 	H 	0.75330 0.12980 0.27950 0.03000
C 	C 	0.89960 0.25790 0.93690 -0.21100
H 	H 	0.91710 0.22720 0.90640 0.09400
H 	H 	0.89440 0.29370 0.90950 0.09000
C 	C 	0.85020 0.44900 0.43820 -0.04000
H 	H 	0.82780 0.45760 0.48000 0.05100
C 	C 	0.61950 0.38590 0.32200 0.11400
H 	H 	0.62840 0.37930 0.36990 -0.00100
C 	C 	0.53560 0.46940 0.35330 0.42300
C 	C 	0.12890 0.40820 0.14060 -0.21200
H 	H 	0.16720 0.43880 0.13950 0.09100
H 	H 	0.13050 0.38510 0.09790 0.08300
C 	C 	0.59370 0.40420 0.18010 -0.21300
H 	H 	0.58330 0.41010 0.13220 0.09700
C 	C 	0.37180 0.27780 0.05180 -0.37800
C 	C 	0.03560 0.17300 0.99670 -0.01000
H 	H 	0.01320 0.15580 0.95630 0.03700
C 	C 	0.65410 0.35060 0.27350 -0.20900
H 	H 	0.68550 0.32000 0.28950 0.10700
C 	C 	0.08740 0.27120 0.33520 -0.11600
H 	H 	0.03550 0.26310 0.33250 0.05800
C 	C 	0.13410 0.24590 0.38500 -0.00100
H 	H 	0.11390 0.21990 0.41670 0.03100
C 	C 	0.55930 0.44040 0.22950 0.12600
H 	H 	0.52780 0.47110 0.21410 -0.01300
C 	C 	0.24560 0.29570 0.34540 -0.06300
H 	H 	0.29760 0.30370 0.34910 0.05400
C 	C 	0.12580 0.17170 0.09700 0.03800
H 	H 	0.16540 0.15220 0.12160 0.01500
C 	C 	0.09330 0.14720 0.03510 -0.10000
H 	H 	0.11220 0.11160 0.01970 0.06000
C 	C 	0.39820 0.24050 0.99340 0.48000
C 	C 	0.33760 0.25480 0.10470 0.33600
H 	H 	0.32970 0.21450 0.10510 -0.07600
C 	C 	0.31260 0.28800 0.16030 -0.44500
H 	H 	0.29170 0.26830 0.19740 0.18600
C 	C 	0.21230 0.25800 0.39010 -0.04800
H 	H 	0.24260 0.23970 0.42520 0.05400
C 	C 	0.86010 0.25608 0.21640 0.05800
C 	C 	0.93020 0.45840 0.08500 -0.10600
H 	H 	0.91750 0.48330 0.12390 0.05200
H 	H 	0.90570 0.47430 0.04220 0.05200
C 	C 	0.82660 0.39527 0.12780 -0.21500
H 	H 	0.78600 0.39950 0.09150 0.09400
H 	H 	0.82190 0.42630 0.16210 0.08800
C 	C 	0.85500 0.38580 0.33630 -0.11200
H 	H 	0.83850 0.35310 0.31040 0.06600
C 	C 	0.26970 0.49340 0.40340 -0.18500
N 	N 	0.08610 0.34123 0.23100 -0.24700
C 	C 	0.82340 0.24108 0.96210 0.21900
C 	C 	0.17830 0.56710 0.36970 -0.21500
H 	H 	0.16750 0.60620 0.35950 0.10300
O 	O 	0.36500 0.42106 0.42010 -0.43400
C 	C 	0.81440 0.21510 0.02670 -0.27700
H 	H 	0.85660 0.21080 0.05790 0.13100
C 	C 	0.04340 0.25260 0.08220 0.08600
C 	C 	0.74580 0.19563 0.04570 0.17300
H 	H 	0.74170 0.17790 0.08930 -0.02200
O 	O 	0.39783 0.51568 0.44272 -0.50900
C 	C 	0.68160 0.20191 0.00090 -0.23300
O 	O 	0.55630 0.17018 0.96948 -0.43400
O 	O 	0.60430 0.14930 0.07855 -0.47500
C 	C 	0.57210 0.43050 0.29860 -0.20400
C 	C 	0.68000 0.32100 0.14970 -0.17300
H 	H 	0.64990 0.28560 0.14270 0.08600
H 	H 	0.67970 0.34150 0.10510 0.07900
C 	C 	0.04160 0.54650 0.33870 -0.17300
H 	H 	0.01880 0.56690 0.37700 0.08600
H 	H 	0.04550 0.57410 0.30040 0.08000
O 	O 	0.41550 0.26490 0.93870 -0.32000
Ni	Ni	0.98225 0.36090 0.17533 1.06200
Ni	Ni	0.46063 0.37471 0.45041 1.10700
Ni	Ni	0.54115 0.41520 0.61921 1.07100
N 	N 	0.00830 0.99784 0.18473 -0.11000
N 	N 	0.24200 0.80462 0.32912 -0.11600
N 	N 	0.11550 0.80910 0.31130 -0.24700
C 	C 	0.62630 0.83490 0.44830 0.27600
H 	H 	0.60680 0.85470 0.48600 -0.05400
N 	N 	0.09720 0.89780 0.40346 -0.13700
C 	C 	0.65470 0.86780 0.38960 -0.39900
H 	H 	0.65160 0.90850 0.39110 0.15800
C 	C 	0.21970 0.75393 0.29360 0.03700
O 	O 	0.46999 0.95006 0.08636 -0.53600
C 	C 	0.08760 0.92187 0.18650 0.07100
C 	C 	0.06280 0.97012 0.14820 0.02600
N 	N 	0.04370 0.76698 0.50546 -0.11800
N 	N 	0.94740 0.93400 0.35330 -0.14000
C 	C 	0.35700 0.85990 0.29670 0.16700
N 	N 	0.04700 0.91986 0.24741 -0.24900
C 	C 	0.87940 0.02619 0.13690 0.10600
C 	C 	0.17750 0.83556 0.33730 0.13000
N 	N 	0.99260 0.80660 0.40760 -0.25000
C 	C 	0.00070 0.96553 0.24350 0.12100
C 	C 	0.31130 0.73060 0.56160 0.13500
H 	H 	0.35420 0.73650 0.59170 -0.00900
C 	C 	0.39200 0.67146 0.48030 0.41900
C 	C 	0.26190 0.70620 0.27030 -0.07900
H 	H 	0.31470 0.70470 0.27670 0.04700
N 	N 	0.78920 0.86110 0.26000 -0.10100
C 	C 	0.10020 0.70950 0.25110 -0.11900
H 	H 	0.04740 0.70970 0.24500 0.05600
C 	C 	0.74880 0.05124 0.10900 0.05900
H 	H 	0.71150 0.08000 0.10280 -0.00100
O 	O 	0.53040 0.92195 0.96060 -0.56700
C 	C 	0.80280 0.82170 0.20630 0.02900
C 	C 	0.09700 0.86210 0.46880 -0.21300
H 	H 	0.14790 0.84740 0.48020 0.09900
H 	H 	0.08260 0.88680 0.50740 0.09000
C 	C 	0.04320 0.81201 0.46070 0.13100
C 	C 	0.24200 0.75050 0.58040 -0.23400
H 	H 	0.23870 0.77080 0.62250 0.10700
C 	C 	0.78780 0.95070 0.10160 0.06500
H 	H 	0.77650 0.91170 0.09130 0.02200
O 	O 	0.48790 0.01872 0.16931 -0.48300
C 	C 	0.98810 0.72740 0.47820 0.03400
C 	C 	0.68320 0.84470 0.33680 0.36600
C 	C 	0.85710 0.87020 0.29620 0.12400
C 	C 	0.09290 0.98380 0.08210 -0.03400
H 	H 	0.07440 0.01500 0.05460 0.03200
C 	C 	0.94620 0.97950 0.29750 -0.17400
H 	H 	0.89520 0.98230 0.27540 0.09000
H 	H 	0.95900 0.01730 0.31840 0.06600
C 	C 	0.98450 0.95690 0.42090 -0.10200
H 	H 	0.97190 0.93180 0.45960 0.05200
H 	H 	0.96590 0.99610 0.43000 0.06100
O 	O 	0.59980 0.68680 0.49730 -0.42800
C 	C 	0.65020 0.97520 0.07610 0.39000
C 	C 	0.88110 0.81010 0.21280 0.06500
C 	C 	0.86170 0.96730 0.12210 -0.14300
H 	H 	0.89990 0.93910 0.12590 0.08600
C 	C 	0.14300 0.66330 0.22860 -0.01500
H 	H 	0.11810 0.63180 0.20660 0.02100
C 	C 	0.71510 0.88260 0.27970 -0.28600
H 	H 	0.67980 0.88260 0.23870 0.11300
H 	H 	0.72020 0.92270 0.29640 0.10800
C 	C 	0.17690 0.90020 0.10110 0.00700
H 	H 	0.21630 0.87760 0.08490 0.03200
C 	C 	0.89940 0.72310 0.37840 -0.11800
H 	H 	0.87920 0.73860 0.33620 0.06700
C 	C 	0.22080 0.66190 0.23740 -0.05000
H 	H 	0.24670 0.62980 0.22050 0.03100
C 	C 	0.10040 0.75790 0.56310 -0.18500
H 	H 	0.08290 0.72720 0.59360 0.08600
H 	H 	0.10560 0.79370 0.59050 0.08200
C 	C 	0.14980 0.94900 0.06180 -0.06800
H 	H 	0.17220 0.95760 0.02000 0.05900
C 	C 	0.38050 0.88590 0.17800 0.12000
H 	H 	0.37160 0.87930 0.13010 -0.00500
C 	C 	0.46440 0.96940 0.14670 0.44200
C 	C 	0.87110 0.90820 0.35940 -0.21400
H 	H 	0.83280 0.93880 0.36050 0.09500
H 	H 	0.86950 0.88510 0.40210 0.08600
C 	C 	0.40630 0.90420 0.31990 -0.21700
H 	H 	0.41670 0.91010 0.36780 0.10100
C 	C 	0.62820 0.77780 0.44820 -0.33600
C 	C 	0.96440 0.67300 0.50330 -0.07100
H 	H 	0.98680 0.65580 0.54370 0.05600
C 	C 	0.34590 0.85060 0.22650 -0.21500
H 	H 	0.31450 0.82000 0.21050 0.10900
C 	C 	0.91260 0.77120 0.16480 -0.11700
H 	H 	0.96450 0.76310 0.16750 0.05700
C 	C 	0.86590 0.74590 0.11500 -0.00200
H 	H 	0.88610 0.71990 0.08330 0.02800
C 	C 	0.44070 0.94040 0.27050 0.13400
H 	H 	0.47220 0.97110 0.28590 -0.01100
C 	C 	0.75440 0.79570 0.15460 -0.06400
H 	H 	0.70240 0.80370 0.15090 0.05400
C 	C 	0.87420 0.67170 0.40300 -0.00200
H 	H 	0.83460 0.65220 0.37840 0.03100
C 	C 	0.90670 0.64720 0.46490 -0.04500
H 	H 	0.88780 0.61160 0.48030 0.04500
C 	C 	0.60180 0.74050 0.50660 0.44400
C 	C 	0.66240 0.75480 0.39530 0.30100
H 	H 	0.67030 0.71450 0.39490 -0.06300
C 	C 	0.68740 0.78800 0.33970 -0.41400
H 	H 	0.70830 0.76830 0.30260 0.17500
C 	C 	0.78770 0.75800 0.10990 -0.04800
H 	H 	0.75740 0.73970 0.07480 0.05200
C 	C 	0.13990 0.75608 0.28360 0.05900
C 	C 	0.06980 0.95840 0.41500 -0.10600
H 	H 	0.08250 0.98330 0.37610 0.05600
H 	H 	0.09430 0.97430 0.45780 0.06000
C 	C 	0.17340 0.89527 0.37220 -0.21700
H 	H 	0.21400 0.89950 0.40850 0.09700
H 	H 	0.17810 0.92630 0.33790 0.09100
C 	C 	0.14500 0.88580 0.16370 -0.12500
H 	H 	0.16150 0.85310 0.18960 0.07100
C 	C 	0.73030 0.99340 0.09660 -0.14400
N 	N 	0.91390 0.84123 0.26900 -0.24800
C 	C 	0.17660 0.74108 0.53790 0.17300
C 	C 	0.82170 0.06710 0.13030 -0.17300
H 	H 	0.83250 0.10620 0.14050 0.08800
O 	O 	0.63500 0.92106 0.07990 -0.43600
C 	C 	0.18560 0.71510 0.47330 -0.22400
H 	H 	0.14340 0.71080 0.44210 0.11500
C 	C 	0.95660 0.75260 0.41780 0.06400
C 	C 	0.25420 0.69563 0.45430 0.13400
H 	H 	0.25830 0.67790 0.41070 -0.00800
O 	O 	0.60217 0.01568 0.05728 -0.52200
C 	C 	0.31840 0.70191 0.49910 -0.19400
O 	O 	0.44370 0.67018 0.53052 -0.44200
O 	O 	0.39570 0.64930 0.42145 -0.47300
C 	C 	0.42790 0.93050 0.20140 -0.21100
C 	C 	0.32000 0.82100 0.35030 -0.17700
H 	H 	0.35010 0.78560 0.35730 0.08800
H 	H 	0.32030 0.84150 0.39490 0.08200
C 	C 	0.95840 0.04650 0.16130 -0.16700
H 	H 	0.98120 0.06690 0.12300 0.07900
H 	H 	0.95450 0.07410 0.19960 0.07500
O 	O 	0.58450 0.76490 0.56130 -0.31400
Ni	Ni	0.01775 0.86090 0.32467 1.06200
Ni	Ni	0.53937 0.87471 0.04959 1.10400
Ni	Ni	0.45885 0.91520 0.88079 1.07200
N 	N 	0.00830 0.50216 0.68473 -0.11900
N 	N 	0.24200 0.69538 0.82912 -0.11600
N 	N 	0.11550 0.69090 0.81130 -0.24700
C 	C 	0.62630 0.66510 0.94830 0.23500
H 	H 	0.60680 0.64530 0.98600 -0.03800
N 	N 	0.09720 0.60220 0.90346 -0.13900
C 	C 	0.65470 0.63220 0.88960 -0.36000
H 	H 	0.65160 0.59150 0.89110 0.14400
C 	C 	0.21970 0.74607 0.79360 0.03700
O 	O 	0.46999 0.54994 0.58636 -0.53300
C 	C 	0.08760 0.57813 0.68650 0.06200
C 	C 	0.06280 0.52988 0.64820 0.03900
N 	N 	0.04370 0.73302 0.00546 -0.13800
N 	N 	0.94740 0.56600 0.85330 -0.13600
C 	C 	0.35700 0.64010 0.79670 0.16400
N 	N 	0.04700 0.58014 0.74741 -0.24900
C 	C 	0.87940 0.47381 0.63690 0.15200
C 	C 	0.17750 0.66444 0.83730 0.13000
N 	N 	0.99260 0.69340 0.90760 -0.24500
C 	C 	0.00070 0.53447 0.74350 0.12800
C 	C 	0.31130 0.76940 0.06160 0.08800
H 	H 	0.35420 0.76350 0.09170 0.00500
C 	C 	0.39200 0.82854 0.98030 0.42100
C 	C 	0.26190 0.79380 0.77030 -0.07900
H 	H 	0.31470 0.79530 0.77670 0.04800
N 	N 	0.78920 0.63890 0.76000 -0.10400
C 	C 	0.10020 0.79050 0.75110 -0.11900
H 	H 	0.04740 0.79030 0.74500 0.05700
C 	C 	0.74880 0.44876 0.60900 0.11400
H 	H 	0.71150 0.42000 0.60280 -0.01700
O 	O 	0.53040 0.57805 0.46060 -0.57700
C 	C 	0.80280 0.67830 0.70630 0.03100
C 	C 	0.09700 0.63790 0.96880 -0.19600
H 	H 	0.14790 0.65260 0.98020 0.09600
H 	H 	0.08260 0.61320 0.00740 0.07600
C 	C 	0.04320 0.68799 0.96070 0.13500
C 	C 	0.24200 0.74950 0.08040 -0.19400
H 	H 	0.23870 0.72920 0.12250 0.09300
C 	C 	0.78780 0.54930 0.60160 0.10300
H 	H 	0.77650 0.58830 0.59130 0.01000
O 	O 	0.48790 0.48128 0.66931 -0.46700
C 	C 	0.98810 0.77260 0.97820 0.08800
C 	C 	0.68320 0.65530 0.83680 0.33000
C 	C 	0.85710 0.62980 0.79620 0.12600
C 	C 	0.09290 0.51620 0.58210 -0.07200
H 	H 	0.07440 0.48500 0.55460 0.05600
C 	C 	0.94620 0.52050 0.79750 -0.21000
H 	H 	0.89520 0.51770 0.77540 0.09600
H 	H 	0.95900 0.48270 0.81840 0.09000
C 	C 	0.98450 0.54310 0.92090 -0.10600
H 	H 	0.97190 0.56820 0.95960 0.05300
H 	H 	0.96590 0.50390 0.93000 0.05700
O 	O 	0.59980 0.81320 0.99730 -0.40600
C 	C 	0.65020 0.52480 0.57610 0.38700
C 	C 	0.88110 0.68990 0.71280 0.06500
C 	C 	0.86170 0.53270 0.62210 -0.19400
H 	H 	0.89990 0.56090 0.62590 0.10400
C 	C 	0.14300 0.83670 0.72860 -0.01500
H 	H 	0.11810 0.86820 0.70660 0.02200
C 	C 	0.71510 0.61740 0.77970 -0.26500
H 	H 	0.67980 0.61740 0.73870 0.10700
H 	H 	0.72020 0.57730 0.79640 0.10100
C 	C 	0.17690 0.59980 0.60110 -0.01100
H 	H 	0.21630 0.62240 0.58490 0.04000
C 	C 	0.89940 0.77690 0.87840 -0.07300
H 	H 	0.87920 0.76140 0.83620 0.05300
C 	C 	0.22080 0.83810 0.73740 -0.05100
H 	H 	0.24670 0.87020 0.72050 0.03400
C 	C 	0.10040 0.74210 0.06310 -0.15900
H 	H 	0.08290 0.77280 0.09360 0.07700
H 	H 	0.10560 0.70630 0.09050 0.07300
C 	C 	0.14980 0.55100 0.56180 -0.04000
H 	H 	0.17220 0.54240 0.52000 0.05100
C 	C 	0.38050 0.61410 0.67800 0.11500
H 	H 	0.37160 0.62070 0.63010 -0.00200
C 	C 	0.46440 0.53060 0.64670 0.42300
C 	C 	0.87110 0.59180 0.85940 -0.21600
H 	H 	0.83280 0.56120 0.86050 0.09400
H 	H 	0.86950 0.61490 0.90210 0.08700
C 	C 	0.40630 0.59580 0.81990 -0.21400
H 	H 	0.41670 0.58990 0.86780 0.10000
C 	C 	0.62820 0.72220 0.94820 -0.28600
C 	C 	0.96440 0.82700 0.00330 -0.15500
H 	H 	0.98680 0.84420 0.04370 0.08300
C 	C 	0.34590 0.64940 0.72650 -0.21100
H 	H 	0.31450 0.68000 0.71050 0.10700
C 	C 	0.91260 0.72880 0.66480 -0.11500
H 	H 	0.96450 0.73690 0.66750 0.05700
C 	C 	0.86590 0.75410 0.61500 -0.00200
H 	H 	0.88610 0.78010 0.58330 0.03200
C 	C 	0.44070 0.55960 0.77050 0.12800
H 	H 	0.47220 0.52890 0.78590 -0.01200
C 	C 	0.75440 0.70430 0.65460 -0.06400
H 	H 	0.70240 0.69630 0.65090 0.05500
C 	C 	0.87420 0.82830 0.90300 -0.05800
H 	H 	0.83460 0.84780 0.87840 0.05300
C 	C 	0.90670 0.85280 0.96490 0.03200
H 	H 	0.88780 0.88840 0.98030 0.02300
C 	C 	0.60180 0.75950 0.00660 0.40300
C 	C 	0.66240 0.74520 0.89530 0.25700
H 	H 	0.67030 0.78550 0.89490 -0.04600
C 	C 	0.68740 0.71200 0.83970 -0.37300
H 	H 	0.70830 0.73170 0.80260 0.16200
C 	C 	0.78770 0.74200 0.60990 -0.04500
H 	H 	0.75740 0.76030 0.57480 0.05500
C 	C 	0.13990 0.74392 0.78360 0.05900
C 	C 	0.06980 0.54160 0.91500 -0.10100
H 	H 	0.08250 0.51670 0.87610 0.05200
H 	H 	0.09430 0.52570 0.95780 0.05800
C 	C 	0.17340 0.60473 0.87220 -0.21600
H 	H 	0.21400 0.60050 0.90850 0.09700
H 	H 	0.17810 0.57370 0.83790 0.09000
C 	C 	0.14500 0.61420 0.66370 -0.11200
H 	H 	0.16150 0.64690 0.68960 0.06600
C 	C 	0.73030 0.50660 0.59660 -0.18500
N 	N 	0.91390 0.65877 0.76900 -0.24800
C 	C 	0.17660 0.75892 0.03790 0.12900
C 	C 	0.82170 0.43290 0.63030 -0.21500
H 	H 	0.83250 0.39380 0.64050 0.10300
O 	O 	0.63500 0.57894 0.57990 -0.43400
C 	C 	0.18560 0.78490 0.97330 -0.17300
H 	H 	0.14340 0.78920 0.94210 0.09800
C 	C 	0.95660 0.74740 0.91780 0.03400
C 	C 	0.25420 0.80437 0.95430 0.09600
H 	H 	0.25830 0.82210 0.91070 0.00500
O 	O 	0.60217 0.48432 0.55728 -0.50900
C 	C 	0.31840 0.79809 0.99910 -0.15600
O 	O 	0.44370 0.82982 0.03052 -0.45100
O 	O 	0.39570 0.85070 0.92145 -0.47100
C 	C 	0.42790 0.56950 0.70140 -0.20400
C 	C 	0.32000 0.67900 0.85030 -0.17600
H 	H 	0.35010 0.71440 0.85730 0.08800
H 	H 	0.32030 0.65850 0.89490 0.08300
C 	C 	0.95840 0.45350 0.66130 -0.17400
H 	H 	0.98120 0.43310 0.62300 0.08600
H 	H 	0.95450 0.42590 0.69960 0.08000
O 	O 	0.58450 0.73510 0.06130 -0.30800
Ni	Ni	0.01775 0.63910 0.82467 1.06200
Ni	Ni	0.53937 0.62529 0.54959 1.10800
Ni	Ni	0.45885 0.58480 0.38079 1.07000
N 	N 	0.99170 0.00216 0.81527 -0.12900
N 	N 	0.75800 0.19538 0.67088 -0.11700
N 	N 	0.88450 0.19090 0.68870 -0.24700
C 	C 	0.37370 0.16510 0.55170 0.27200
H 	H 	0.39320 0.14530 0.51400 -0.05600
N 	N 	0.90280 0.10220 0.59654 -0.13800
C 	C 	0.34530 0.13220 0.61040 -0.39400
H 	H 	0.34840 0.09150 0.60890 0.15200
C 	C 	0.78030 0.24607 0.70640 0.03700
O 	O 	0.53001 0.04994 0.91364 -0.52800
C 	C 	0.91240 0.07813 0.81350 0.04800
C 	C 	0.93720 0.02988 0.85180 0.05800
N 	N 	0.95630 0.23302 0.49454 -0.11900
N 	N 	0.05260 0.06600 0.64670 -0.13500
C 	C 	0.64300 0.14010 0.70330 0.15900
N 	N 	0.95300 0.08014 0.75259 -0.24800
C 	C 	0.12060 0.97381 0.86310 0.19000
C 	C 	0.82250 0.16444 0.66270 0.12900
N 	N 	0.00740 0.19340 0.59240 -0.24900
C 	C 	0.99930 0.03447 0.75650 0.12900
C 	C 	0.68870 0.26940 0.43840 0.13500
H 	H 	0.64580 0.26350 0.40830 -0.00900
C 	C 	0.60800 0.32854 0.51970 0.41900
C 	C 	0.73810 0.29380 0.72970 -0.07900
H 	H 	0.68530 0.29530 0.72330 0.04800
N 	N 	0.21080 0.13890 0.74000 -0.10200
C 	C 	0.89980 0.29050 0.74890 -0.11900
H 	H 	0.95260 0.29030 0.75500 0.05600
C 	C 	0.25120 0.94876 0.89100 0.16100
H 	H 	0.28850 0.92000 0.89720 -0.03200
O 	O 	0.46960 0.07805 0.03940 -0.58300
C 	C 	0.19720 0.17830 0.79370 0.03000
C 	C 	0.90300 0.13790 0.53120 -0.21000
H 	H 	0.85210 0.15260 0.51980 0.09700
H 	H 	0.91740 0.11320 0.49260 0.08600
C 	C 	0.95680 0.18799 0.53930 0.12800
C 	C 	0.75800 0.24950 0.41960 -0.23400
H 	H 	0.76130 0.22920 0.37750 0.10600
C 	C 	0.21220 0.04930 0.89840 0.13500
H 	H 	0.22350 0.08830 0.90870 0.00000
O 	O 	0.51210 0.98128 0.83069 -0.44900
C 	C 	0.01190 0.27260 0.52180 0.03600
C 	C 	0.31680 0.15530 0.66320 0.36000
C 	C 	0.14290 0.12980 0.70380 0.12400
C 	C 	0.90710 0.01620 0.91790 -0.13100
H 	H 	0.92560 0.98500 0.94540 0.09100
C 	C 	0.05380 0.02050 0.70250 -0.23300
H 	H 	0.10480 0.01770 0.72460 0.09900
H 	H 	0.04100 0.98270 0.68160 0.10600
C 	C 	0.01550 0.04310 0.57910 -0.10200
H 	H 	0.02810 0.06820 0.54040 0.04800
H 	H 	0.03410 0.00390 0.57000 0.04900
O 	O 	0.40020 0.31320 0.50270 -0.42800
C 	C 	0.34980 0.02480 0.92390 0.38100
C 	C 	0.11890 0.18990 0.78720 0.06500
C 	C 	0.13830 0.03270 0.87790 -0.23800
H 	H 	0.10010 0.06090 0.87410 0.11800
C 	C 	0.85700 0.33670 0.77140 -0.01500
H 	H 	0.88190 0.36820 0.79340 0.02200
C 	C 	0.28490 0.11740 0.72030 -0.28100
H 	H 	0.32020 0.11740 0.76130 0.11100
H 	H 	0.27980 0.07730 0.70360 0.10300
C 	C 	0.82310 0.09980 0.89890 -0.03900
H 	H 	0.78370 0.12240 0.91510 0.05100
C 	C 	0.10060 0.27690 0.62160 -0.11700
H 	H 	0.12080 0.26140 0.66380 0.06700
C 	C 	0.77920 0.33810 0.76260 -0.05100
H 	H 	0.75330 0.37020 0.77950 0.03300
C 	C 	0.89960 0.24210 0.43690 -0.18400
H 	H 	0.91710 0.27280 0.40640 0.08500
H 	H 	0.89440 0.20630 0.40950 0.08100
C 	C 	0.85020 0.05100 0.93820 0.00100
H 	H 	0.82780 0.04240 0.98000 0.03600
C 	C 	0.61950 0.11410 0.82200 0.10700
H 	H 	0.62840 0.12070 0.86990 0.00100
C 	C 	0.53560 0.03060 0.85330 0.40200
C 	C 	0.12890 0.09180 0.64060 -0.21300
H 	H 	0.16720 0.06120 0.63950 0.09000
H 	H 	0.13050 0.11490 0.59790 0.08400
C 	C 	0.59370 0.09580 0.68010 -0.20900
H 	H 	0.58330 0.08990 0.63220 0.09500
C 	C 	0.37180 0.22220 0.55180 -0.33400
C 	C 	0.03560 0.32700 0.49670 -0.07200
H 	H 	0.01320 0.34420 0.45630 0.05700
C 	C 	0.65410 0.14940 0.77350 -0.20500
H 	H 	0.68550 0.18000 0.78950 0.10600
C 	C 	0.08740 0.22880 0.83520 -0.11500
H 	H 	0.03550 0.23690 0.83250 0.05700
C 	C 	0.13410 0.25410 0.88500 -0.00200
H 	H 	0.11390 0.28010 0.91670 0.03400
C 	C 	0.55930 0.05960 0.72950 0.12000
H 	H 	0.52780 0.02890 0.71410 -0.01400
C 	C 	0.24560 0.20430 0.84540 -0.06300
H 	H 	0.29760 0.19630 0.84910 0.05600
C 	C 	0.12580 0.32830 0.59700 -0.00300
H 	H 	0.16540 0.34780 0.62160 0.03200
C 	C 	0.09330 0.35280 0.53510 -0.04400
H 	H 	0.11220 0.38840 0.51970 0.04400
C 	C 	0.39820 0.25950 0.49340 0.44300
C 	C 	0.33760 0.24520 0.60470 0.29700
H 	H 	0.32970 0.28550 0.60510 -0.06200
C 	C 	0.31260 0.21200 0.66030 -0.40900
H 	H 	0.29170 0.23170 0.69740 0.17400
C 	C 	0.21230 0.24200 0.89010 -0.04500
H 	H 	0.24260 0.26030 0.92520 0.05700
C 	C 	0.86010 0.24392 0.71640 0.05900
C 	C 	0.93020 0.04160 0.58500 -0.10300
H 	H 	0.91750 0.01670 0.62390 0.04800
H 	H 	0.90570 0.02570 0.54220 0.05100
C 	C 	0.82660 0.10473 0.62780 -0.21400
H 	H 	0.78600 0.10050 0.59150 0.09400
H 	H 	0.82190 0.07370 0.66210 0.08700
C 	C 	0.85500 0.11420 0.83630 -0.09200
H 	H 	0.83850 0.14690 0.81040 0.05900
C 	C 	0.26970 0.00660 0.90340 -0.22000
N 	N 	0.08610 0.15877 0.73100 -0.24700
C 	C 	0.82340 0.25892 0.46210 0.17300
C 	C 	0.17830 0.93290 0.86970 -0.25000
H 	H 	0.16750 0.89380 0.85950 0.11600
O 	O 	0.36500 0.07894 0.92010 -0.43100
C 	C 	0.81440 0.28490 0.52670 -0.22300
H 	H 	0.85660 0.28920 0.55790 0.11400
C 	C 	0.04340 0.24740 0.58220 0.06300
C 	C 	0.74580 0.30437 0.54570 0.13400
H 	H 	0.74170 0.32210 0.58930 -0.00800
O 	O 	0.39783 0.98432 0.94272 -0.49200
C 	C 	0.68160 0.29809 0.50090 -0.19400
O 	O 	0.55630 0.32982 0.46948 -0.44200
O 	O 	0.60430 0.35070 0.57855 -0.47300
C 	C 	0.57210 0.06950 0.79860 -0.19700
C 	C 	0.68000 0.17900 0.64970 -0.17200
H 	H 	0.64990 0.21440 0.64270 0.08600
H 	H 	0.67970 0.15850 0.60510 0.08000
C 	C 	0.04160 0.95350 0.83870 -0.17800
H 	H 	0.01880 0.93310 0.87700 0.08900
H 	H 	0.04550 0.92590 0.80040 0.08300
O 	O 	0.41550 0.23510 0.43870 -0.31600
Ni	Ni	0.98225 0.13910 0.67533 1.06200
Ni	Ni	0.46063 0.12529 0.95041 1.11100
Ni	Ni	0.54115 0.08480 0.11921 1.06900
Ni	Ni	0.50000 0.50000 0.50000 1.10500
Ni	Ni	0.50000 0.00000 -0.00000 1.09400
