data_crystal

_cell_length_a 42.55900
_cell_length_b 42.55900
_cell_length_c 42.55900
_cell_angle_alpha 90.00000
_cell_angle_beta  90.00000
_cell_angle_gamma 90.00000

_symmetry_space_group_name_	'P 1'
_symmetry_space_group_name_H-M	'P 1'

loop_
_symmetry_equiv_pos_as_xyz
  x,y,z

loop_
_atom_site_label
_atom_site_type_symbol
_atom_site_fract_x
_atom_site_fract_y
_atom_site_fract_z
_atom_site_charge
C 	C 	0.38171 0.86480 0.94991 0.28700
C 	C 	0.38794 0.86715 0.98421 -0.00900
C 	C 	0.41473 0.88770 0.99428 -0.13500
H 	H 	0.43220 0.88490 0.98030 0.01600
H 	H 	0.42120 0.88190 0.01510 0.02500
C 	C 	0.40440 0.92172 0.99380 0.02300
C 	C 	0.37590 0.93350 0.99930 -0.02900
H 	H 	0.35850 0.92120 0.00430 0.06600
C 	C 	0.37500 0.96830 0.99670 -0.00600
H 	H 	0.35710 0.98040 0.99980 0.01200
C 	C 	0.40280 0.98020 0.98930 -0.02200
H 	H 	0.40670 0.00150 0.98650 -0.03600
S 	S 	0.43055 0.95123 0.98540 -0.05400
C 	C 	0.36982 0.85007 0.00348 -0.11900
H 	H 	0.35540 0.83680 0.99380 0.09900
C 	C 	0.36984 0.84969 0.03736 0.08000
C 	C 	0.37629 0.87212 0.05945 -0.08500
H 	H 	0.38450 0.89190 0.05510 0.05200
C 	C 	0.35754 0.83201 0.08540 0.10400
C 	C 	0.34240 0.79624 0.04170 -0.01900
C 	C 	0.30717 0.80104 0.04071 0.10300
C 	C 	0.29374 0.83087 0.04111 -0.15900
H 	H 	0.30670 0.84850 0.04120 0.11100
C 	C 	0.26170 0.83461 0.04139 0.10200
H 	H 	0.25310 0.85470 0.04170 0.03000
C 	C 	0.24216 0.80872 0.04117 -0.17300
C 	C 	0.25536 0.77899 0.03988 0.09300
H 	H 	0.24240 0.76140 0.03890 -0.01900
C 	C 	0.28732 0.77529 0.04004 -0.16700
H 	H 	0.29580 0.75520 0.03970 0.05900
C 	C 	0.20775 0.81265 0.04316 0.43400
C 	C 	0.34718 0.81112 0.11148 -0.09300
H 	H 	0.32910 0.79930 0.10480 -0.08000
H 	H 	0.34110 0.82380 0.12910 -0.03000
C 	C 	0.37370 0.78800 0.12100 -0.44500
H 	H 	0.39230 0.79960 0.12730 -0.34800
H 	H 	0.37920 0.77470 0.10330 0.05600
C 	C 	0.36170 0.76760 0.14870 -1.91700
H 	H 	0.34110 0.75930 0.14360 0.51900
H 	H 	0.37580 0.74990 0.15170 0.53400
C 	C 	0.35970 0.78640 0.17940 0.69000
H 	H 	0.35230 0.77310 0.19600 -0.21800
H 	H 	0.38020 0.79430 0.18470 1.26400
H 	H 	0.34550 0.80370 0.17670 -0.71500
N 	N 	0.36888 0.86119 0.08910 -0.25300
N 	N 	0.35794 0.82414 0.05469 -0.13900
O 	O 	0.40084 0.87671 0.93060 -0.38500
O 	O 	0.35741 0.85118 0.93945 -0.38800
O 	O 	0.19883 0.84183 0.04485 -0.52100
H 	H 	0.18040 0.84740 0.04810 0.33200
O 	O 	0.18897 0.79078 0.04289 -0.29900
H 	H 	0.43330 0.88110 0.98330 0.04800
H 	H 	0.41830 0.88430 0.01630 -0.00500
C 	C 	0.41040 0.92240 0.98950 0.02600
C 	C 	0.42990 0.94440 0.97880 -0.03200
H 	H 	0.45040 0.94050 0.97250 0.04900
C 	C 	0.41480 0.97600 0.97830 -0.01400
H 	H 	0.42480 0.99420 0.97140 -0.00400
C 	C 	0.38530 0.97540 0.98890 -0.02100
H 	H 	0.37230 0.99280 0.99050 -0.04100
S 	S 	0.37477 0.93822 0.99897 -0.04800
H 	H 	0.33910 0.79200 0.10260 0.14200
H 	H 	0.33010 0.82130 0.12220 0.07400
C 	C 	0.37330 0.80140 0.13470 0.03000
H 	H 	0.38480 0.81980 0.14160 -0.01300
H 	H 	0.38790 0.78730 0.12450 0.59600
C 	C 	0.35770 0.78480 0.16340 1.84100
H 	H 	0.34300 0.79910 0.17340 -0.04400
H 	H 	0.34600 0.76660 0.15630 -0.06400
C 	C 	0.38260 0.77450 0.18730 -5.68200
H 	H 	0.37260 0.76430 0.20480 1.75100
H 	H 	0.39700 0.76010 0.17750 1.71900
H 	H 	0.39390 0.79260 0.19470 0.93100
C 	C 	0.88171 0.36480 0.44991 0.28700
C 	C 	0.88794 0.36715 0.48421 -0.00900
C 	C 	0.91473 0.38770 0.49428 -0.13500
H 	H 	0.93220 0.38490 0.48030 0.01600
H 	H 	0.92120 0.38190 0.51510 0.02500
C 	C 	0.90440 0.42172 0.49380 0.02300
C 	C 	0.87590 0.43350 0.49930 -0.02900
H 	H 	0.85850 0.42120 0.50430 0.06600
C 	C 	0.87500 0.46830 0.49670 -0.00600
H 	H 	0.85710 0.48040 0.49980 0.01200
C 	C 	0.90280 0.48020 0.48930 -0.02200
H 	H 	0.90670 0.50150 0.48650 -0.03700
S 	S 	0.93055 0.45123 0.48540 -0.05500
C 	C 	0.86982 0.35007 0.50348 -0.12000
H 	H 	0.85540 0.33680 0.49380 0.09800
C 	C 	0.86984 0.34969 0.53736 0.07900
C 	C 	0.87629 0.37212 0.55945 -0.08600
H 	H 	0.88450 0.39190 0.55510 0.05100
C 	C 	0.85754 0.33201 0.58540 0.10300
C 	C 	0.84240 0.29624 0.54170 -0.02000
C 	C 	0.80717 0.30104 0.54071 0.10200
C 	C 	0.79374 0.33087 0.54111 -0.16000
H 	H 	0.80670 0.34850 0.54120 0.11000
C 	C 	0.76170 0.33461 0.54139 0.10100
H 	H 	0.75310 0.35470 0.54170 0.02900
C 	C 	0.74216 0.30872 0.54117 -0.17500
C 	C 	0.75536 0.27899 0.53988 0.09200
H 	H 	0.74240 0.26140 0.53890 -0.02000
C 	C 	0.78732 0.27529 0.54004 -0.16800
H 	H 	0.79580 0.25520 0.53970 0.05800
C 	C 	0.70775 0.31265 0.54316 0.43300
C 	C 	0.84718 0.31112 0.61148 -0.09400
H 	H 	0.82910 0.29930 0.60480 -0.08100
H 	H 	0.84110 0.32380 0.62910 -0.03100
C 	C 	0.87370 0.28800 0.62100 -0.44600
H 	H 	0.89230 0.29960 0.62730 -0.34900
H 	H 	0.87920 0.27470 0.60330 0.05500
C 	C 	0.86170 0.26760 0.64870 -1.91800
H 	H 	0.84110 0.25930 0.64360 0.51800
H 	H 	0.87580 0.24990 0.65170 0.53300
C 	C 	0.85970 0.28640 0.67940 0.68900
H 	H 	0.85230 0.27310 0.69600 -0.21900
H 	H 	0.88020 0.29430 0.68470 1.26300
H 	H 	0.84550 0.30370 0.67670 -0.71600
N 	N 	0.86888 0.36119 0.58910 -0.25400
N 	N 	0.85794 0.32414 0.55469 -0.14000
O 	O 	0.90084 0.37671 0.43060 -0.38600
O 	O 	0.85741 0.35118 0.43945 -0.38900
O 	O 	0.69883 0.34183 0.54485 -0.52200
H 	H 	0.68040 0.34740 0.54810 0.33100
O 	O 	0.68897 0.29078 0.54289 -0.30000
H 	H 	0.93330 0.38110 0.48330 0.04700
H 	H 	0.91830 0.38430 0.51630 -0.00600
C 	C 	0.91040 0.42240 0.48950 0.02500
C 	C 	0.92990 0.44440 0.47880 -0.03300
H 	H 	0.95040 0.44050 0.47250 0.04800
C 	C 	0.91480 0.47600 0.47830 -0.01500
H 	H 	0.92480 0.49420 0.47140 -0.00500
C 	C 	0.88530 0.47540 0.48890 -0.02200
H 	H 	0.87230 0.49280 0.49050 -0.04200
S 	S 	0.87477 0.43822 0.49897 -0.04900
H 	H 	0.83910 0.29200 0.60260 0.14100
H 	H 	0.83010 0.32130 0.62220 0.07300
C 	C 	0.87330 0.30140 0.63470 0.02900
H 	H 	0.88480 0.31980 0.64160 -0.01400
H 	H 	0.88790 0.28730 0.62450 0.59500
C 	C 	0.85770 0.28480 0.66340 1.84000
H 	H 	0.84300 0.29910 0.67340 -0.04500
H 	H 	0.84600 0.26660 0.65630 -0.06500
C 	C 	0.88260 0.27450 0.68730 -5.68300
H 	H 	0.87260 0.26430 0.70480 1.75000
H 	H 	0.89700 0.26010 0.67750 1.71800
H 	H 	0.89390 0.29260 0.69470 0.93000
C 	C 	0.11829 0.13520 0.44991 0.28600
C 	C 	0.11206 0.13285 0.48421 -0.01000
C 	C 	0.08527 0.11230 0.49428 -0.13600
H 	H 	0.06780 0.11510 0.48030 0.01500
H 	H 	0.07880 0.11810 0.51510 0.02400
C 	C 	0.09560 0.07828 0.49380 0.02200
C 	C 	0.12410 0.06650 0.49930 -0.03000
H 	H 	0.14150 0.07880 0.50430 0.06500
C 	C 	0.12500 0.03170 0.49670 -0.00700
H 	H 	0.14290 0.01960 0.49980 0.01100
C 	C 	0.09720 0.01980 0.48930 -0.02300
H 	H 	0.09330 0.99850 0.48650 -0.03700
S 	S 	0.06945 0.04877 0.48540 -0.05500
C 	C 	0.13018 0.14993 0.50348 -0.12000
H 	H 	0.14460 0.16320 0.49380 0.09800
C 	C 	0.13016 0.15031 0.53736 0.07900
C 	C 	0.12371 0.12788 0.55945 -0.08600
H 	H 	0.11550 0.10810 0.55510 0.05100
C 	C 	0.14246 0.16799 0.58540 0.10300
C 	C 	0.15760 0.20376 0.54170 -0.02000
C 	C 	0.19283 0.19896 0.54071 0.10200
C 	C 	0.20626 0.16913 0.54111 -0.16000
H 	H 	0.19330 0.15150 0.54120 0.11000
C 	C 	0.23830 0.16539 0.54139 0.10100
H 	H 	0.24690 0.14530 0.54170 0.02900
C 	C 	0.25784 0.19128 0.54117 -0.17500
C 	C 	0.24464 0.22101 0.53988 0.09200
H 	H 	0.25760 0.23860 0.53890 -0.02000
C 	C 	0.21268 0.22471 0.54004 -0.16800
H 	H 	0.20420 0.24480 0.53970 0.05800
C 	C 	0.29225 0.18735 0.54316 0.43300
C 	C 	0.15282 0.18888 0.61148 -0.09400
H 	H 	0.17090 0.20070 0.60480 -0.08100
H 	H 	0.15890 0.17620 0.62910 -0.03100
C 	C 	0.12630 0.21200 0.62100 -0.44600
H 	H 	0.10770 0.20040 0.62730 -0.34900
H 	H 	0.12080 0.22530 0.60330 0.05500
C 	C 	0.13830 0.23240 0.64870 -1.91800
H 	H 	0.15890 0.24070 0.64360 0.51800
H 	H 	0.12420 0.25010 0.65170 0.53300
C 	C 	0.14030 0.21360 0.67940 0.68900
H 	H 	0.14770 0.22690 0.69600 -0.21900
H 	H 	0.11980 0.20570 0.68470 1.26300
H 	H 	0.15450 0.19630 0.67670 -0.71600
N 	N 	0.13112 0.13881 0.58910 -0.25400
N 	N 	0.14206 0.17586 0.55469 -0.14000
O 	O 	0.09916 0.12329 0.43060 -0.38600
O 	O 	0.14259 0.14882 0.43945 -0.38900
O 	O 	0.30117 0.15817 0.54485 -0.52200
H 	H 	0.31960 0.15260 0.54810 0.33100
O 	O 	0.31103 0.20922 0.54289 -0.30000
H 	H 	0.06670 0.11890 0.48330 0.04700
H 	H 	0.08170 0.11570 0.51630 -0.00600
C 	C 	0.08960 0.07760 0.48950 0.02500
C 	C 	0.07010 0.05560 0.47880 -0.03300
H 	H 	0.04960 0.05950 0.47250 0.04800
C 	C 	0.08520 0.02400 0.47830 -0.01500
H 	H 	0.07520 0.00580 0.47140 -0.00500
C 	C 	0.11470 0.02460 0.48890 -0.02200
H 	H 	0.12770 0.00720 0.49050 -0.04200
S 	S 	0.12523 0.06178 0.49897 -0.04900
H 	H 	0.16090 0.20800 0.60260 0.14100
H 	H 	0.16990 0.17870 0.62220 0.07300
C 	C 	0.12670 0.19860 0.63470 0.02900
H 	H 	0.11520 0.18020 0.64160 -0.01400
H 	H 	0.11210 0.21270 0.62450 0.59500
C 	C 	0.14230 0.21520 0.66340 1.84000
H 	H 	0.15700 0.20090 0.67340 -0.04500
H 	H 	0.15400 0.23340 0.65630 -0.06500
C 	C 	0.11740 0.22550 0.68730 -5.68300
H 	H 	0.12740 0.23570 0.70480 1.75000
H 	H 	0.10300 0.23990 0.67750 1.71800
H 	H 	0.10610 0.20740 0.69470 0.93000
C 	C 	0.61829 0.63520 0.94991 0.28600
C 	C 	0.61206 0.63285 0.98421 -0.01000
C 	C 	0.58527 0.61230 0.99428 -0.13600
H 	H 	0.56780 0.61510 0.98030 0.01500
H 	H 	0.57880 0.61810 0.01510 0.02400
C 	C 	0.59560 0.57828 0.99380 0.02200
C 	C 	0.62410 0.56650 0.99930 -0.03000
H 	H 	0.64150 0.57880 0.00430 0.06500
C 	C 	0.62500 0.53170 0.99670 -0.00700
H 	H 	0.64290 0.51960 0.99980 0.01100
C 	C 	0.59720 0.51980 0.98930 -0.02300
H 	H 	0.59330 0.49850 0.98650 -0.03700
S 	S 	0.56945 0.54877 0.98540 -0.05500
C 	C 	0.63018 0.64993 0.00348 -0.12000
H 	H 	0.64460 0.66320 0.99380 0.09800
C 	C 	0.63016 0.65031 0.03736 0.07900
C 	C 	0.62371 0.62788 0.05945 -0.08600
H 	H 	0.61550 0.60810 0.05510 0.05100
C 	C 	0.64246 0.66799 0.08540 0.10300
C 	C 	0.65760 0.70376 0.04170 -0.02000
C 	C 	0.69283 0.69896 0.04071 0.10200
C 	C 	0.70626 0.66913 0.04111 -0.16000
H 	H 	0.69330 0.65150 0.04120 0.11000
C 	C 	0.73830 0.66539 0.04139 0.10100
H 	H 	0.74690 0.64530 0.04170 0.02900
C 	C 	0.75784 0.69128 0.04117 -0.17400
C 	C 	0.74464 0.72101 0.03988 0.09200
H 	H 	0.75760 0.73860 0.03890 -0.02000
C 	C 	0.71268 0.72471 0.04004 -0.16800
H 	H 	0.70420 0.74480 0.03970 0.05800
C 	C 	0.79225 0.68735 0.04316 0.43300
C 	C 	0.65282 0.68888 0.11148 -0.09400
H 	H 	0.67090 0.70070 0.10480 -0.08100
H 	H 	0.65890 0.67620 0.12910 -0.03100
C 	C 	0.62630 0.71200 0.12100 -0.44600
H 	H 	0.60770 0.70040 0.12730 -0.34900
H 	H 	0.62080 0.72530 0.10330 0.05500
C 	C 	0.63830 0.73240 0.14870 -1.91800
H 	H 	0.65890 0.74070 0.14360 0.51800
H 	H 	0.62420 0.75010 0.15170 0.53300
C 	C 	0.64030 0.71360 0.17940 0.68900
H 	H 	0.64770 0.72690 0.19600 -0.21900
H 	H 	0.61980 0.70570 0.18470 1.26300
H 	H 	0.65450 0.69630 0.17670 -0.71600
N 	N 	0.63112 0.63881 0.08910 -0.25400
N 	N 	0.64206 0.67586 0.05469 -0.14000
O 	O 	0.59916 0.62329 0.93060 -0.38600
O 	O 	0.64259 0.64882 0.93945 -0.38900
O 	O 	0.80117 0.65817 0.04485 -0.52200
H 	H 	0.81960 0.65260 0.04810 0.33100
O 	O 	0.81103 0.70922 0.04289 -0.30000
H 	H 	0.56670 0.61890 0.98330 0.04700
H 	H 	0.58170 0.61570 0.01630 -0.00600
C 	C 	0.58960 0.57760 0.98950 0.02500
C 	C 	0.57010 0.55560 0.97880 -0.03300
H 	H 	0.54960 0.55950 0.97250 0.04800
C 	C 	0.58520 0.52400 0.97830 -0.01500
H 	H 	0.57520 0.50580 0.97140 -0.00500
C 	C 	0.61470 0.52460 0.98890 -0.02200
H 	H 	0.62770 0.50720 0.99050 -0.04200
S 	S 	0.62523 0.56178 0.99897 -0.04900
H 	H 	0.66090 0.70800 0.10260 0.14100
H 	H 	0.66990 0.67870 0.12220 0.07300
C 	C 	0.62670 0.69860 0.13470 0.02900
H 	H 	0.61520 0.68020 0.14160 -0.01400
H 	H 	0.61210 0.71270 0.12450 0.59500
C 	C 	0.64230 0.71520 0.16340 1.84000
H 	H 	0.65700 0.70090 0.17340 -0.04500
H 	H 	0.65400 0.73340 0.15630 -0.06500
C 	C 	0.61740 0.72550 0.18730 -5.68300
H 	H 	0.62740 0.73570 0.20480 1.75000
H 	H 	0.60300 0.73990 0.17750 1.71800
H 	H 	0.60610 0.70740 0.19470 0.93000
C 	C 	0.61829 0.36480 0.55009 0.28600
C 	C 	0.61206 0.36715 0.51579 -0.01000
C 	C 	0.58527 0.38770 0.50572 -0.13600
H 	H 	0.56780 0.38490 0.51970 0.01500
H 	H 	0.57880 0.38190 0.48490 0.02400
C 	C 	0.59560 0.42172 0.50620 0.02200
C 	C 	0.62410 0.43350 0.50070 -0.03000
H 	H 	0.64150 0.42120 0.49570 0.06500
C 	C 	0.62500 0.46830 0.50330 -0.00700
H 	H 	0.64290 0.48040 0.50020 0.01100
C 	C 	0.59720 0.48020 0.51070 -0.02300
H 	H 	0.59330 0.50150 0.51350 -0.03700
S 	S 	0.56945 0.45123 0.51460 -0.05500
C 	C 	0.63018 0.35007 0.49652 -0.12000
H 	H 	0.64460 0.33680 0.50620 0.09800
C 	C 	0.63016 0.34969 0.46264 0.07900
C 	C 	0.62371 0.37212 0.44055 -0.08600
H 	H 	0.61550 0.39190 0.44490 0.05100
C 	C 	0.64246 0.33201 0.41460 0.10300
C 	C 	0.65760 0.29624 0.45830 -0.02000
C 	C 	0.69283 0.30104 0.45929 0.10200
C 	C 	0.70626 0.33087 0.45889 -0.16000
H 	H 	0.69330 0.34850 0.45880 0.11000
C 	C 	0.73830 0.33461 0.45861 0.10100
H 	H 	0.74690 0.35470 0.45830 0.02900
C 	C 	0.75784 0.30872 0.45883 -0.17500
C 	C 	0.74464 0.27899 0.46012 0.09200
H 	H 	0.75760 0.26140 0.46110 -0.02000
C 	C 	0.71268 0.27529 0.45996 -0.16800
H 	H 	0.70420 0.25520 0.46030 0.05800
C 	C 	0.79225 0.31265 0.45684 0.43300
C 	C 	0.65282 0.31112 0.38852 -0.09400
H 	H 	0.67090 0.29930 0.39520 -0.08100
H 	H 	0.65890 0.32380 0.37090 -0.03100
C 	C 	0.62630 0.28800 0.37900 -0.44600
H 	H 	0.60770 0.29960 0.37270 -0.34900
H 	H 	0.62080 0.27470 0.39670 0.05500
C 	C 	0.63830 0.26760 0.35130 -1.91800
H 	H 	0.65890 0.25930 0.35640 0.51800
H 	H 	0.62420 0.24990 0.34830 0.53300
C 	C 	0.64030 0.28640 0.32060 0.68900
H 	H 	0.64770 0.27310 0.30400 -0.21900
H 	H 	0.61980 0.29430 0.31530 1.26300
H 	H 	0.65450 0.30370 0.32330 -0.71600
N 	N 	0.63112 0.36119 0.41090 -0.25400
N 	N 	0.64206 0.32414 0.44531 -0.14000
O 	O 	0.59916 0.37671 0.56940 -0.38600
O 	O 	0.64259 0.35118 0.56055 -0.38900
O 	O 	0.80117 0.34183 0.45515 -0.52200
H 	H 	0.81960 0.34740 0.45190 0.33100
O 	O 	0.81103 0.29078 0.45711 -0.30000
H 	H 	0.56670 0.38110 0.51670 0.04700
H 	H 	0.58170 0.38430 0.48370 -0.00600
C 	C 	0.58960 0.42240 0.51050 0.02500
C 	C 	0.57010 0.44440 0.52120 -0.03300
H 	H 	0.54960 0.44050 0.52750 0.04800
C 	C 	0.58520 0.47600 0.52170 -0.01500
H 	H 	0.57520 0.49420 0.52860 -0.00500
C 	C 	0.61470 0.47540 0.51110 -0.02200
H 	H 	0.62770 0.49280 0.50950 -0.04200
S 	S 	0.62523 0.43822 0.50103 -0.04900
H 	H 	0.66090 0.29200 0.39740 0.14100
H 	H 	0.66990 0.32130 0.37780 0.07300
C 	C 	0.62670 0.30140 0.36530 0.02900
H 	H 	0.61520 0.31980 0.35840 -0.01400
H 	H 	0.61210 0.28730 0.37550 0.59500
C 	C 	0.64230 0.28480 0.33660 1.84000
H 	H 	0.65700 0.29910 0.32660 -0.04500
H 	H 	0.65400 0.26660 0.34370 -0.06500
C 	C 	0.61740 0.27450 0.31270 -5.68300
H 	H 	0.62740 0.26430 0.29520 1.75000
H 	H 	0.60300 0.26010 0.32250 1.71800
H 	H 	0.60610 0.29260 0.30530 0.93000
C 	C 	0.11829 0.86480 0.05009 0.28600
C 	C 	0.11206 0.86715 0.01579 -0.01000
C 	C 	0.08527 0.88770 0.00572 -0.13600
H 	H 	0.06780 0.88490 0.01970 0.01500
H 	H 	0.07880 0.88190 0.98490 0.02400
C 	C 	0.09560 0.92172 0.00620 0.02200
C 	C 	0.12410 0.93350 0.00070 -0.03000
H 	H 	0.14150 0.92120 0.99570 0.06500
C 	C 	0.12500 0.96830 0.00330 -0.00700
H 	H 	0.14290 0.98040 0.00020 0.01100
C 	C 	0.09720 0.98020 0.01070 -0.02300
H 	H 	0.09330 0.00150 0.01350 -0.03700
S 	S 	0.06945 0.95123 0.01460 -0.05500
C 	C 	0.13018 0.85007 0.99652 -0.12000
H 	H 	0.14460 0.83680 0.00620 0.09800
C 	C 	0.13016 0.84969 0.96264 0.07900
C 	C 	0.12371 0.87212 0.94055 -0.08600
H 	H 	0.11550 0.89190 0.94490 0.05100
C 	C 	0.14246 0.83201 0.91460 0.10300
C 	C 	0.15760 0.79624 0.95830 -0.02000
C 	C 	0.19283 0.80104 0.95929 0.10200
C 	C 	0.20626 0.83087 0.95889 -0.16000
H 	H 	0.19330 0.84850 0.95880 0.11000
C 	C 	0.23830 0.83461 0.95861 0.10100
H 	H 	0.24690 0.85470 0.95830 0.02900
C 	C 	0.25784 0.80872 0.95883 -0.17400
C 	C 	0.24464 0.77899 0.96012 0.09200
H 	H 	0.25760 0.76140 0.96110 -0.02000
C 	C 	0.21268 0.77529 0.95996 -0.16800
H 	H 	0.20420 0.75520 0.96030 0.05800
C 	C 	0.29225 0.81265 0.95684 0.43300
C 	C 	0.15282 0.81112 0.88852 -0.09400
H 	H 	0.17090 0.79930 0.89520 -0.08100
H 	H 	0.15890 0.82380 0.87090 -0.03100
C 	C 	0.12630 0.78800 0.87900 -0.44600
H 	H 	0.10770 0.79960 0.87270 -0.34900
H 	H 	0.12080 0.77470 0.89670 0.05500
C 	C 	0.13830 0.76760 0.85130 -1.91800
H 	H 	0.15890 0.75930 0.85640 0.51800
H 	H 	0.12420 0.74990 0.84830 0.53300
C 	C 	0.14030 0.78640 0.82060 0.68900
H 	H 	0.14770 0.77310 0.80400 -0.21900
H 	H 	0.11980 0.79430 0.81530 1.26300
H 	H 	0.15450 0.80370 0.82330 -0.71600
N 	N 	0.13112 0.86119 0.91090 -0.25400
N 	N 	0.14206 0.82414 0.94531 -0.14000
O 	O 	0.09916 0.87671 0.06940 -0.38600
O 	O 	0.14259 0.85118 0.06055 -0.38900
O 	O 	0.30117 0.84183 0.95515 -0.52200
H 	H 	0.31960 0.84740 0.95190 0.33100
O 	O 	0.31103 0.79078 0.95711 -0.30000
H 	H 	0.06670 0.88110 0.01670 0.04700
H 	H 	0.08170 0.88430 0.98370 -0.00600
C 	C 	0.08960 0.92240 0.01050 0.02500
C 	C 	0.07010 0.94440 0.02120 -0.03300
H 	H 	0.04960 0.94050 0.02750 0.04800
C 	C 	0.08520 0.97600 0.02170 -0.01500
H 	H 	0.07520 0.99420 0.02860 -0.00500
C 	C 	0.11470 0.97540 0.01110 -0.02200
H 	H 	0.12770 0.99280 0.00950 -0.04200
S 	S 	0.12523 0.93822 0.00103 -0.04900
H 	H 	0.16090 0.79200 0.89740 0.14100
H 	H 	0.16990 0.82130 0.87780 0.07300
C 	C 	0.12670 0.80140 0.86530 0.02900
H 	H 	0.11520 0.81980 0.85840 -0.01400
H 	H 	0.11210 0.78730 0.87550 0.59500
C 	C 	0.14230 0.78480 0.83660 1.84000
H 	H 	0.15700 0.79910 0.82660 -0.04500
H 	H 	0.15400 0.76660 0.84370 -0.06500
C 	C 	0.11740 0.77450 0.81270 -5.68300
H 	H 	0.12740 0.76430 0.79520 1.75000
H 	H 	0.10300 0.76010 0.82250 1.71800
H 	H 	0.10610 0.79260 0.80530 0.93000
C 	C 	0.88171 0.63520 0.05009 0.28600
C 	C 	0.88794 0.63285 0.01579 -0.01000
C 	C 	0.91473 0.61230 0.00572 -0.13600
H 	H 	0.93220 0.61510 0.01970 0.01500
H 	H 	0.92120 0.61810 0.98490 0.02400
C 	C 	0.90440 0.57828 0.00620 0.02200
C 	C 	0.87590 0.56650 0.00070 -0.03000
H 	H 	0.85850 0.57880 0.99570 0.06500
C 	C 	0.87500 0.53170 0.00330 -0.00700
H 	H 	0.85710 0.51960 0.00020 0.01100
C 	C 	0.90280 0.51980 0.01070 -0.02300
H 	H 	0.90670 0.49850 0.01350 -0.03700
S 	S 	0.93055 0.54877 0.01460 -0.05500
C 	C 	0.86982 0.64993 0.99652 -0.12000
H 	H 	0.85540 0.66320 0.00620 0.09800
C 	C 	0.86984 0.65031 0.96264 0.07900
C 	C 	0.87629 0.62788 0.94055 -0.08600
H 	H 	0.88450 0.60810 0.94490 0.05100
C 	C 	0.85754 0.66799 0.91460 0.10300
C 	C 	0.84240 0.70376 0.95830 -0.02000
C 	C 	0.80717 0.69896 0.95929 0.10200
C 	C 	0.79374 0.66913 0.95889 -0.16000
H 	H 	0.80670 0.65150 0.95880 0.11000
C 	C 	0.76170 0.66539 0.95861 0.10100
H 	H 	0.75310 0.64530 0.95830 0.02900
C 	C 	0.74216 0.69128 0.95883 -0.17400
C 	C 	0.75536 0.72101 0.96012 0.09200
H 	H 	0.74240 0.73860 0.96110 -0.02000
C 	C 	0.78732 0.72471 0.95996 -0.16800
H 	H 	0.79580 0.74480 0.96030 0.05800
C 	C 	0.70775 0.68735 0.95684 0.43300
C 	C 	0.84718 0.68888 0.88852 -0.09400
H 	H 	0.82910 0.70070 0.89520 -0.08100
H 	H 	0.84110 0.67620 0.87090 -0.03100
C 	C 	0.87370 0.71200 0.87900 -0.44600
H 	H 	0.89230 0.70040 0.87270 -0.34900
H 	H 	0.87920 0.72530 0.89670 0.05500
C 	C 	0.86170 0.73240 0.85130 -1.91800
H 	H 	0.84110 0.74070 0.85640 0.51800
H 	H 	0.87580 0.75010 0.84830 0.53300
C 	C 	0.85970 0.71360 0.82060 0.68900
H 	H 	0.85230 0.72690 0.80400 -0.21900
H 	H 	0.88020 0.70570 0.81530 1.26300
H 	H 	0.84550 0.69630 0.82330 -0.71600
N 	N 	0.86888 0.63881 0.91090 -0.25400
N 	N 	0.85794 0.67586 0.94531 -0.14000
O 	O 	0.90084 0.62329 0.06940 -0.38600
O 	O 	0.85741 0.64882 0.06055 -0.38900
O 	O 	0.69883 0.65817 0.95515 -0.52200
H 	H 	0.68040 0.65260 0.95190 0.33100
O 	O 	0.68897 0.70922 0.95711 -0.30000
H 	H 	0.93330 0.61890 0.01670 0.04700
H 	H 	0.91830 0.61570 0.98370 -0.00600
C 	C 	0.91040 0.57760 0.01050 0.02500
C 	C 	0.92990 0.55560 0.02120 -0.03300
H 	H 	0.95040 0.55950 0.02750 0.04800
C 	C 	0.91480 0.52400 0.02170 -0.01500
H 	H 	0.92480 0.50580 0.02860 -0.00500
C 	C 	0.88530 0.52460 0.01110 -0.02200
H 	H 	0.87230 0.50720 0.00950 -0.04200
S 	S 	0.87477 0.56178 0.00103 -0.04900
H 	H 	0.83910 0.70800 0.89740 0.14100
H 	H 	0.83010 0.67870 0.87780 0.07300
C 	C 	0.87330 0.69860 0.86530 0.02900
H 	H 	0.88480 0.68020 0.85840 -0.01400
H 	H 	0.88790 0.71270 0.87550 0.59500
C 	C 	0.85770 0.71520 0.83660 1.84000
H 	H 	0.84300 0.70090 0.82660 -0.04500
H 	H 	0.84600 0.73340 0.84370 -0.06500
C 	C 	0.88260 0.72550 0.81270 -5.68300
H 	H 	0.87260 0.73570 0.79520 1.75000
H 	H 	0.89700 0.73990 0.82250 1.71800
H 	H 	0.89390 0.70740 0.80530 0.93000
C 	C 	0.38171 0.13520 0.55009 0.28600
C 	C 	0.38794 0.13285 0.51579 -0.01000
C 	C 	0.41473 0.11230 0.50572 -0.13600
H 	H 	0.43220 0.11510 0.51970 0.01500
H 	H 	0.42120 0.11810 0.48490 0.02400
C 	C 	0.40440 0.07828 0.50620 0.02200
C 	C 	0.37590 0.06650 0.50070 -0.03000
H 	H 	0.35850 0.07880 0.49570 0.06500
C 	C 	0.37500 0.03170 0.50330 -0.00700
H 	H 	0.35710 0.01960 0.50020 0.01100
C 	C 	0.40280 0.01980 0.51070 -0.02300
H 	H 	0.40670 0.99850 0.51350 -0.03700
S 	S 	0.43055 0.04877 0.51460 -0.05500
C 	C 	0.36982 0.14993 0.49652 -0.12000
H 	H 	0.35540 0.16320 0.50620 0.09800
C 	C 	0.36984 0.15031 0.46264 0.07900
C 	C 	0.37629 0.12788 0.44055 -0.08600
H 	H 	0.38450 0.10810 0.44490 0.05100
C 	C 	0.35754 0.16799 0.41460 0.10300
C 	C 	0.34240 0.20376 0.45830 -0.02000
C 	C 	0.30717 0.19896 0.45929 0.10200
C 	C 	0.29374 0.16913 0.45889 -0.16000
H 	H 	0.30670 0.15150 0.45880 0.11000
C 	C 	0.26170 0.16539 0.45861 0.10100
H 	H 	0.25310 0.14530 0.45830 0.02900
C 	C 	0.24216 0.19128 0.45883 -0.17500
C 	C 	0.25536 0.22101 0.46012 0.09200
H 	H 	0.24240 0.23860 0.46110 -0.02000
C 	C 	0.28732 0.22471 0.45996 -0.16800
H 	H 	0.29580 0.24480 0.46030 0.05800
C 	C 	0.20775 0.18735 0.45684 0.43300
C 	C 	0.34718 0.18888 0.38852 -0.09400
H 	H 	0.32910 0.20070 0.39520 -0.08100
H 	H 	0.34110 0.17620 0.37090 -0.03100
C 	C 	0.37370 0.21200 0.37900 -0.44600
H 	H 	0.39230 0.20040 0.37270 -0.34900
H 	H 	0.37920 0.22530 0.39670 0.05500
C 	C 	0.36170 0.23240 0.35130 -1.91800
H 	H 	0.34110 0.24070 0.35640 0.51800
H 	H 	0.37580 0.25010 0.34830 0.53300
C 	C 	0.35970 0.21360 0.32060 0.68900
H 	H 	0.35230 0.22690 0.30400 -0.21900
H 	H 	0.38020 0.20570 0.31530 1.26300
H 	H 	0.34550 0.19630 0.32330 -0.71600
N 	N 	0.36888 0.13881 0.41090 -0.25400
N 	N 	0.35794 0.17586 0.44531 -0.14000
O 	O 	0.40084 0.12329 0.56940 -0.38600
O 	O 	0.35741 0.14882 0.56055 -0.38900
O 	O 	0.19883 0.15817 0.45515 -0.52200
H 	H 	0.18040 0.15260 0.45190 0.33100
O 	O 	0.18897 0.20922 0.45711 -0.30000
H 	H 	0.43330 0.11890 0.51670 0.04700
H 	H 	0.41830 0.11570 0.48370 -0.00600
C 	C 	0.41040 0.07760 0.51050 0.02500
C 	C 	0.42990 0.05560 0.52120 -0.03300
H 	H 	0.45040 0.05950 0.52750 0.04800
C 	C 	0.41480 0.02400 0.52170 -0.01500
H 	H 	0.42480 0.00580 0.52860 -0.00500
C 	C 	0.38530 0.02460 0.51110 -0.02200
H 	H 	0.37230 0.00720 0.50950 -0.04200
S 	S 	0.37477 0.06178 0.50103 -0.04900
H 	H 	0.33910 0.20800 0.39740 0.14100
H 	H 	0.33010 0.17870 0.37780 0.07300
C 	C 	0.37330 0.19860 0.36530 0.02900
H 	H 	0.38480 0.18020 0.35840 -0.01400
H 	H 	0.38790 0.21270 0.37550 0.59500
C 	C 	0.35770 0.21520 0.33660 1.84000
H 	H 	0.34300 0.20090 0.32660 -0.04500
H 	H 	0.34600 0.23340 0.34370 -0.06500
C 	C 	0.38260 0.22550 0.31270 -5.68300
H 	H 	0.37260 0.23570 0.29520 1.75000
H 	H 	0.39700 0.23990 0.32250 1.71800
H 	H 	0.39390 0.20740 0.30530 0.93000
C 	C 	0.94991 0.38171 0.86480 0.28600
C 	C 	0.98421 0.38794 0.86715 -0.01000
C 	C 	0.99428 0.41473 0.88770 -0.13600
H 	H 	0.98030 0.43220 0.88490 0.01500
H 	H 	0.01510 0.42120 0.88190 0.02400
C 	C 	0.99380 0.40440 0.92172 0.02200
C 	C 	0.99930 0.37590 0.93350 -0.03000
H 	H 	0.00430 0.35850 0.92120 0.06500
C 	C 	0.99670 0.37500 0.96830 -0.00700
H 	H 	0.99980 0.35710 0.98040 0.01100
C 	C 	0.98930 0.40280 0.98020 -0.02300
H 	H 	0.98650 0.40670 0.00150 -0.03700
S 	S 	0.98540 0.43055 0.95123 -0.05500
C 	C 	0.00348 0.36982 0.85007 -0.12000
H 	H 	0.99380 0.35540 0.83680 0.09800
C 	C 	0.03736 0.36984 0.84969 0.07900
C 	C 	0.05945 0.37629 0.87212 -0.08600
H 	H 	0.05510 0.38450 0.89190 0.05100
C 	C 	0.08540 0.35754 0.83201 0.10300
C 	C 	0.04170 0.34240 0.79624 -0.02000
C 	C 	0.04071 0.30717 0.80104 0.10200
C 	C 	0.04111 0.29374 0.83087 -0.16000
H 	H 	0.04120 0.30670 0.84850 0.11000
C 	C 	0.04139 0.26170 0.83461 0.10100
H 	H 	0.04170 0.25310 0.85470 0.02900
C 	C 	0.04117 0.24216 0.80872 -0.17400
C 	C 	0.03988 0.25536 0.77899 0.09200
H 	H 	0.03890 0.24240 0.76140 -0.02000
C 	C 	0.04004 0.28732 0.77529 -0.16800
H 	H 	0.03970 0.29580 0.75520 0.05800
C 	C 	0.04316 0.20775 0.81265 0.43300
C 	C 	0.11148 0.34718 0.81112 -0.09400
H 	H 	0.10480 0.32910 0.79930 -0.08100
H 	H 	0.12910 0.34110 0.82380 -0.03100
C 	C 	0.12100 0.37370 0.78800 -0.44600
H 	H 	0.12730 0.39230 0.79960 -0.34900
H 	H 	0.10330 0.37920 0.77470 0.05500
C 	C 	0.14870 0.36170 0.76760 -1.91800
H 	H 	0.14360 0.34110 0.75930 0.51800
H 	H 	0.15170 0.37580 0.74990 0.53300
C 	C 	0.17940 0.35970 0.78640 0.68900
H 	H 	0.19600 0.35230 0.77310 -0.21900
H 	H 	0.18470 0.38020 0.79430 1.26300
H 	H 	0.17670 0.34550 0.80370 -0.71600
N 	N 	0.08910 0.36888 0.86119 -0.25400
N 	N 	0.05469 0.35794 0.82414 -0.14000
O 	O 	0.93060 0.40084 0.87671 -0.38600
O 	O 	0.93945 0.35741 0.85118 -0.38900
O 	O 	0.04485 0.19883 0.84183 -0.52200
H 	H 	0.04810 0.18040 0.84740 0.33100
O 	O 	0.04289 0.18897 0.79078 -0.30000
H 	H 	0.98330 0.43330 0.88110 0.04700
H 	H 	0.01630 0.41830 0.88430 -0.00600
C 	C 	0.98950 0.41040 0.92240 0.02500
C 	C 	0.97880 0.42990 0.94440 -0.03300
H 	H 	0.97250 0.45040 0.94050 0.04800
C 	C 	0.97830 0.41480 0.97600 -0.01500
H 	H 	0.97140 0.42480 0.99420 -0.00500
C 	C 	0.98890 0.38530 0.97540 -0.02200
H 	H 	0.99050 0.37230 0.99280 -0.04200
S 	S 	0.99897 0.37477 0.93822 -0.04900
H 	H 	0.10260 0.33910 0.79200 0.14100
H 	H 	0.12220 0.33010 0.82130 0.07300
C 	C 	0.13470 0.37330 0.80140 0.02900
H 	H 	0.14160 0.38480 0.81980 -0.01400
H 	H 	0.12450 0.38790 0.78730 0.59500
C 	C 	0.16340 0.35770 0.78480 1.84000
H 	H 	0.17340 0.34300 0.79910 -0.04500
H 	H 	0.15630 0.34600 0.76660 -0.06500
C 	C 	0.18730 0.38260 0.77450 -5.68300
H 	H 	0.20480 0.37260 0.76430 1.75000
H 	H 	0.17750 0.39700 0.76010 1.71800
H 	H 	0.19470 0.39390 0.79260 0.93000
C 	C 	0.44991 0.88171 0.36480 0.28600
C 	C 	0.48421 0.88794 0.36715 -0.01000
C 	C 	0.49428 0.91473 0.38770 -0.13600
H 	H 	0.48030 0.93220 0.38490 0.01500
H 	H 	0.51510 0.92120 0.38190 0.02400
C 	C 	0.49380 0.90440 0.42172 0.02200
C 	C 	0.49930 0.87590 0.43350 -0.03000
H 	H 	0.50430 0.85850 0.42120 0.06500
C 	C 	0.49670 0.87500 0.46830 -0.00700
H 	H 	0.49980 0.85710 0.48040 0.01100
C 	C 	0.48930 0.90280 0.48020 -0.02300
H 	H 	0.48650 0.90670 0.50150 -0.03700
S 	S 	0.48540 0.93055 0.45123 -0.05500
C 	C 	0.50348 0.86982 0.35007 -0.12000
H 	H 	0.49380 0.85540 0.33680 0.09800
C 	C 	0.53736 0.86984 0.34969 0.07900
C 	C 	0.55945 0.87629 0.37212 -0.08600
H 	H 	0.55510 0.88450 0.39190 0.05100
C 	C 	0.58540 0.85754 0.33201 0.10300
C 	C 	0.54170 0.84240 0.29624 -0.02000
C 	C 	0.54071 0.80717 0.30104 0.10200
C 	C 	0.54111 0.79374 0.33087 -0.16000
H 	H 	0.54120 0.80670 0.34850 0.11000
C 	C 	0.54139 0.76170 0.33461 0.10100
H 	H 	0.54170 0.75310 0.35470 0.02900
C 	C 	0.54117 0.74216 0.30872 -0.17500
C 	C 	0.53988 0.75536 0.27899 0.09200
H 	H 	0.53890 0.74240 0.26140 -0.02000
C 	C 	0.54004 0.78732 0.27529 -0.16800
H 	H 	0.53970 0.79580 0.25520 0.05800
C 	C 	0.54316 0.70775 0.31265 0.43300
C 	C 	0.61148 0.84718 0.31112 -0.09400
H 	H 	0.60480 0.82910 0.29930 -0.08100
H 	H 	0.62910 0.84110 0.32380 -0.03100
C 	C 	0.62100 0.87370 0.28800 -0.44600
H 	H 	0.62730 0.89230 0.29960 -0.34900
H 	H 	0.60330 0.87920 0.27470 0.05500
C 	C 	0.64870 0.86170 0.26760 -1.91800
H 	H 	0.64360 0.84110 0.25930 0.51800
H 	H 	0.65170 0.87580 0.24990 0.53300
C 	C 	0.67940 0.85970 0.28640 0.68900
H 	H 	0.69600 0.85230 0.27310 -0.21900
H 	H 	0.68470 0.88020 0.29430 1.26300
H 	H 	0.67670 0.84550 0.30370 -0.71600
N 	N 	0.58910 0.86888 0.36119 -0.25400
N 	N 	0.55469 0.85794 0.32414 -0.14000
O 	O 	0.43060 0.90084 0.37671 -0.38600
O 	O 	0.43945 0.85741 0.35118 -0.38900
O 	O 	0.54485 0.69883 0.34183 -0.52200
H 	H 	0.54810 0.68040 0.34740 0.33100
O 	O 	0.54289 0.68897 0.29078 -0.30000
H 	H 	0.48330 0.93330 0.38110 0.04700
H 	H 	0.51630 0.91830 0.38430 -0.00600
C 	C 	0.48950 0.91040 0.42240 0.02500
C 	C 	0.47880 0.92990 0.44440 -0.03300
H 	H 	0.47250 0.95040 0.44050 0.04800
C 	C 	0.47830 0.91480 0.47600 -0.01500
H 	H 	0.47140 0.92480 0.49420 -0.00500
C 	C 	0.48890 0.88530 0.47540 -0.02200
H 	H 	0.49050 0.87230 0.49280 -0.04200
S 	S 	0.49897 0.87477 0.43822 -0.04900
H 	H 	0.60260 0.83910 0.29200 0.14100
H 	H 	0.62220 0.83010 0.32130 0.07300
C 	C 	0.63470 0.87330 0.30140 0.02900
H 	H 	0.64160 0.88480 0.31980 -0.01400
H 	H 	0.62450 0.88790 0.28730 0.59500
C 	C 	0.66340 0.85770 0.28480 1.84000
H 	H 	0.67340 0.84300 0.29910 -0.04500
H 	H 	0.65630 0.84600 0.26660 -0.06500
C 	C 	0.68730 0.88260 0.27450 -5.68300
H 	H 	0.70480 0.87260 0.26430 1.75000
H 	H 	0.67750 0.89700 0.26010 1.71800
H 	H 	0.69470 0.89390 0.29260 0.93000
C 	C 	0.44991 0.11829 0.13520 0.28600
C 	C 	0.48421 0.11206 0.13285 -0.01000
C 	C 	0.49428 0.08527 0.11230 -0.13600
H 	H 	0.48030 0.06780 0.11510 0.01500
H 	H 	0.51510 0.07880 0.11810 0.02400
C 	C 	0.49380 0.09560 0.07828 0.02200
C 	C 	0.49930 0.12410 0.06650 -0.03000
H 	H 	0.50430 0.14150 0.07880 0.06500
C 	C 	0.49670 0.12500 0.03170 -0.00700
H 	H 	0.49980 0.14290 0.01960 0.01100
C 	C 	0.48930 0.09720 0.01980 -0.02300
H 	H 	0.48650 0.09330 0.99850 -0.03700
S 	S 	0.48540 0.06945 0.04877 -0.05500
C 	C 	0.50348 0.13018 0.14993 -0.12000
H 	H 	0.49380 0.14460 0.16320 0.09800
C 	C 	0.53736 0.13016 0.15031 0.07900
C 	C 	0.55945 0.12371 0.12788 -0.08600
H 	H 	0.55510 0.11550 0.10810 0.05100
C 	C 	0.58540 0.14246 0.16799 0.10300
C 	C 	0.54170 0.15760 0.20376 -0.02000
C 	C 	0.54071 0.19283 0.19896 0.10200
C 	C 	0.54111 0.20626 0.16913 -0.16000
H 	H 	0.54120 0.19330 0.15150 0.11000
C 	C 	0.54139 0.23830 0.16539 0.10100
H 	H 	0.54170 0.24690 0.14530 0.02900
C 	C 	0.54117 0.25784 0.19128 -0.17500
C 	C 	0.53988 0.24464 0.22101 0.09200
H 	H 	0.53890 0.25760 0.23860 -0.02000
C 	C 	0.54004 0.21268 0.22471 -0.16800
H 	H 	0.53970 0.20420 0.24480 0.05800
C 	C 	0.54316 0.29225 0.18735 0.43300
C 	C 	0.61148 0.15282 0.18888 -0.09400
H 	H 	0.60480 0.17090 0.20070 -0.08100
H 	H 	0.62910 0.15890 0.17620 -0.03100
C 	C 	0.62100 0.12630 0.21200 -0.44600
H 	H 	0.62730 0.10770 0.20040 -0.34900
H 	H 	0.60330 0.12080 0.22530 0.05500
C 	C 	0.64870 0.13830 0.23240 -1.91800
H 	H 	0.64360 0.15890 0.24070 0.51800
H 	H 	0.65170 0.12420 0.25010 0.53300
C 	C 	0.67940 0.14030 0.21360 0.68900
H 	H 	0.69600 0.14770 0.22690 -0.21900
H 	H 	0.68470 0.11980 0.20570 1.26300
H 	H 	0.67670 0.15450 0.19630 -0.71600
N 	N 	0.58910 0.13112 0.13881 -0.25400
N 	N 	0.55469 0.14206 0.17586 -0.14000
O 	O 	0.43060 0.09916 0.12329 -0.38600
O 	O 	0.43945 0.14259 0.14882 -0.38900
O 	O 	0.54485 0.30117 0.15817 -0.52200
H 	H 	0.54810 0.31960 0.15260 0.33100
O 	O 	0.54289 0.31103 0.20922 -0.30000
H 	H 	0.48330 0.06670 0.11890 0.04700
H 	H 	0.51630 0.08170 0.11570 -0.00600
C 	C 	0.48950 0.08960 0.07760 0.02500
C 	C 	0.47880 0.07010 0.05560 -0.03300
H 	H 	0.47250 0.04960 0.05950 0.04800
C 	C 	0.47830 0.08520 0.02400 -0.01500
H 	H 	0.47140 0.07520 0.00580 -0.00500
C 	C 	0.48890 0.11470 0.02460 -0.02200
H 	H 	0.49050 0.12770 0.00720 -0.04200
S 	S 	0.49897 0.12523 0.06178 -0.04900
H 	H 	0.60260 0.16090 0.20800 0.14100
H 	H 	0.62220 0.16990 0.17870 0.07300
C 	C 	0.63470 0.12670 0.19860 0.02900
H 	H 	0.64160 0.11520 0.18020 -0.01400
H 	H 	0.62450 0.11210 0.21270 0.59500
C 	C 	0.66340 0.14230 0.21520 1.84000
H 	H 	0.67340 0.15700 0.20090 -0.04500
H 	H 	0.65630 0.15400 0.23340 -0.06500
C 	C 	0.68730 0.11740 0.22550 -5.68300
H 	H 	0.70480 0.12740 0.23570 1.75000
H 	H 	0.67750 0.10300 0.23990 1.71800
H 	H 	0.69470 0.10610 0.20740 0.93000
C 	C 	0.94991 0.61829 0.63520 0.28600
C 	C 	0.98421 0.61206 0.63285 -0.01000
C 	C 	0.99428 0.58527 0.61230 -0.13600
H 	H 	0.98030 0.56780 0.61510 0.01500
H 	H 	0.01510 0.57880 0.61810 0.02400
C 	C 	0.99380 0.59560 0.57828 0.02200
C 	C 	0.99930 0.62410 0.56650 -0.03000
H 	H 	0.00430 0.64150 0.57880 0.06500
C 	C 	0.99670 0.62500 0.53170 -0.00700
H 	H 	0.99980 0.64290 0.51960 0.01100
C 	C 	0.98930 0.59720 0.51980 -0.02300
H 	H 	0.98650 0.59330 0.49850 -0.03700
S 	S 	0.98540 0.56945 0.54877 -0.05500
C 	C 	0.00348 0.63018 0.64993 -0.12000
H 	H 	0.99380 0.64460 0.66320 0.09800
C 	C 	0.03736 0.63016 0.65031 0.07900
C 	C 	0.05945 0.62371 0.62788 -0.08600
H 	H 	0.05510 0.61550 0.60810 0.05100
C 	C 	0.08540 0.64246 0.66799 0.10300
C 	C 	0.04170 0.65760 0.70376 -0.02000
C 	C 	0.04071 0.69283 0.69896 0.10200
C 	C 	0.04111 0.70626 0.66913 -0.16000
H 	H 	0.04120 0.69330 0.65150 0.11000
C 	C 	0.04139 0.73830 0.66539 0.10100
H 	H 	0.04170 0.74690 0.64530 0.02900
C 	C 	0.04117 0.75784 0.69128 -0.17400
C 	C 	0.03988 0.74464 0.72101 0.09200
H 	H 	0.03890 0.75760 0.73860 -0.02000
C 	C 	0.04004 0.71268 0.72471 -0.16800
H 	H 	0.03970 0.70420 0.74480 0.05800
C 	C 	0.04316 0.79225 0.68735 0.43300
C 	C 	0.11148 0.65282 0.68888 -0.09400
H 	H 	0.10480 0.67090 0.70070 -0.08100
H 	H 	0.12910 0.65890 0.67620 -0.03100
C 	C 	0.12100 0.62630 0.71200 -0.44600
H 	H 	0.12730 0.60770 0.70040 -0.34900
H 	H 	0.10330 0.62080 0.72530 0.05500
C 	C 	0.14870 0.63830 0.73240 -1.91800
H 	H 	0.14360 0.65890 0.74070 0.51800
H 	H 	0.15170 0.62420 0.75010 0.53300
C 	C 	0.17940 0.64030 0.71360 0.68900
H 	H 	0.19600 0.64770 0.72690 -0.21900
H 	H 	0.18470 0.61980 0.70570 1.26300
H 	H 	0.17670 0.65450 0.69630 -0.71600
N 	N 	0.08910 0.63112 0.63881 -0.25400
N 	N 	0.05469 0.64206 0.67586 -0.14000
O 	O 	0.93060 0.59916 0.62329 -0.38600
O 	O 	0.93945 0.64259 0.64882 -0.38900
O 	O 	0.04485 0.80117 0.65817 -0.52200
H 	H 	0.04810 0.81960 0.65260 0.33100
O 	O 	0.04289 0.81103 0.70922 -0.30000
H 	H 	0.98330 0.56670 0.61890 0.04700
H 	H 	0.01630 0.58170 0.61570 -0.00600
C 	C 	0.98950 0.58960 0.57760 0.02500
C 	C 	0.97880 0.57010 0.55560 -0.03300
H 	H 	0.97250 0.54960 0.55950 0.04800
C 	C 	0.97830 0.58520 0.52400 -0.01500
H 	H 	0.97140 0.57520 0.50580 -0.00500
C 	C 	0.98890 0.61470 0.52460 -0.02200
H 	H 	0.99050 0.62770 0.50720 -0.04200
S 	S 	0.99897 0.62523 0.56178 -0.04900
H 	H 	0.10260 0.66090 0.70800 0.14100
H 	H 	0.12220 0.66990 0.67870 0.07300
C 	C 	0.13470 0.62670 0.69860 0.02900
H 	H 	0.14160 0.61520 0.68020 -0.01400
H 	H 	0.12450 0.61210 0.71270 0.59500
C 	C 	0.16340 0.64230 0.71520 1.84000
H 	H 	0.17340 0.65700 0.70090 -0.04500
H 	H 	0.15630 0.65400 0.73340 -0.06500
C 	C 	0.18730 0.61740 0.72550 -5.68300
H 	H 	0.20480 0.62740 0.73570 1.75000
H 	H 	0.17750 0.60300 0.73990 1.71800
H 	H 	0.19470 0.60610 0.70740 0.93000
C 	C 	0.55009 0.61829 0.36480 0.28600
C 	C 	0.51579 0.61206 0.36715 -0.01000
C 	C 	0.50572 0.58527 0.38770 -0.13600
H 	H 	0.51970 0.56780 0.38490 0.01500
H 	H 	0.48490 0.57880 0.38190 0.02400
C 	C 	0.50620 0.59560 0.42172 0.02200
C 	C 	0.50070 0.62410 0.43350 -0.03000
H 	H 	0.49570 0.64150 0.42120 0.06500
C 	C 	0.50330 0.62500 0.46830 -0.00700
H 	H 	0.50020 0.64290 0.48040 0.01100
C 	C 	0.51070 0.59720 0.48020 -0.02300
H 	H 	0.51350 0.59330 0.50150 -0.03700
S 	S 	0.51460 0.56945 0.45123 -0.05500
C 	C 	0.49652 0.63018 0.35007 -0.12000
H 	H 	0.50620 0.64460 0.33680 0.09800
C 	C 	0.46264 0.63016 0.34969 0.07900
C 	C 	0.44055 0.62371 0.37212 -0.08600
H 	H 	0.44490 0.61550 0.39190 0.05100
C 	C 	0.41460 0.64246 0.33201 0.10300
C 	C 	0.45830 0.65760 0.29624 -0.02000
C 	C 	0.45929 0.69283 0.30104 0.10200
C 	C 	0.45889 0.70626 0.33087 -0.16000
H 	H 	0.45880 0.69330 0.34850 0.11000
C 	C 	0.45861 0.73830 0.33461 0.10100
H 	H 	0.45830 0.74690 0.35470 0.02900
C 	C 	0.45883 0.75784 0.30872 -0.17500
C 	C 	0.46012 0.74464 0.27899 0.09200
H 	H 	0.46110 0.75760 0.26140 -0.02000
C 	C 	0.45996 0.71268 0.27529 -0.16800
H 	H 	0.46030 0.70420 0.25520 0.05800
C 	C 	0.45684 0.79225 0.31265 0.43300
C 	C 	0.38852 0.65282 0.31112 -0.09400
H 	H 	0.39520 0.67090 0.29930 -0.08100
H 	H 	0.37090 0.65890 0.32380 -0.03100
C 	C 	0.37900 0.62630 0.28800 -0.44600
H 	H 	0.37270 0.60770 0.29960 -0.34900
H 	H 	0.39670 0.62080 0.27470 0.05500
C 	C 	0.35130 0.63830 0.26760 -1.91800
H 	H 	0.35640 0.65890 0.25930 0.51800
H 	H 	0.34830 0.62420 0.24990 0.53300
C 	C 	0.32060 0.64030 0.28640 0.68900
H 	H 	0.30400 0.64770 0.27310 -0.21900
H 	H 	0.31530 0.61980 0.29430 1.26300
H 	H 	0.32330 0.65450 0.30370 -0.71600
N 	N 	0.41090 0.63112 0.36119 -0.25400
N 	N 	0.44531 0.64206 0.32414 -0.14000
O 	O 	0.56940 0.59916 0.37671 -0.38600
O 	O 	0.56055 0.64259 0.35118 -0.38900
O 	O 	0.45515 0.80117 0.34183 -0.52200
H 	H 	0.45190 0.81960 0.34740 0.33100
O 	O 	0.45711 0.81103 0.29078 -0.30000
H 	H 	0.51670 0.56670 0.38110 0.04700
H 	H 	0.48370 0.58170 0.38430 -0.00600
C 	C 	0.51050 0.58960 0.42240 0.02500
C 	C 	0.52120 0.57010 0.44440 -0.03300
H 	H 	0.52750 0.54960 0.44050 0.04800
C 	C 	0.52170 0.58520 0.47600 -0.01500
H 	H 	0.52860 0.57520 0.49420 -0.00500
C 	C 	0.51110 0.61470 0.47540 -0.02200
H 	H 	0.50950 0.62770 0.49280 -0.04200
S 	S 	0.50103 0.62523 0.43822 -0.04900
H 	H 	0.39740 0.66090 0.29200 0.14100
H 	H 	0.37780 0.66990 0.32130 0.07300
C 	C 	0.36530 0.62670 0.30140 0.02900
H 	H 	0.35840 0.61520 0.31980 -0.01400
H 	H 	0.37550 0.61210 0.28730 0.59500
C 	C 	0.33660 0.64230 0.28480 1.84000
H 	H 	0.32660 0.65700 0.29910 -0.04500
H 	H 	0.34370 0.65400 0.26660 -0.06500
C 	C 	0.31270 0.61740 0.27450 -5.68300
H 	H 	0.29520 0.62740 0.26430 1.75000
H 	H 	0.32250 0.60300 0.26010 1.71800
H 	H 	0.30530 0.60610 0.29260 0.93000
C 	C 	0.05009 0.11829 0.86480 0.28600
C 	C 	0.01579 0.11206 0.86715 -0.01000
C 	C 	0.00572 0.08527 0.88770 -0.13600
H 	H 	0.01970 0.06780 0.88490 0.01500
H 	H 	0.98490 0.07880 0.88190 0.02400
C 	C 	0.00620 0.09560 0.92172 0.02200
C 	C 	0.00070 0.12410 0.93350 -0.03000
H 	H 	0.99570 0.14150 0.92120 0.06500
C 	C 	0.00330 0.12500 0.96830 -0.00700
H 	H 	0.00020 0.14290 0.98040 0.01100
C 	C 	0.01070 0.09720 0.98020 -0.02300
H 	H 	0.01350 0.09330 0.00150 -0.03700
S 	S 	0.01460 0.06945 0.95123 -0.05500
C 	C 	0.99652 0.13018 0.85007 -0.12000
H 	H 	0.00620 0.14460 0.83680 0.09800
C 	C 	0.96264 0.13016 0.84969 0.07900
C 	C 	0.94055 0.12371 0.87212 -0.08600
H 	H 	0.94490 0.11550 0.89190 0.05100
C 	C 	0.91460 0.14246 0.83201 0.10300
C 	C 	0.95830 0.15760 0.79624 -0.02000
C 	C 	0.95929 0.19283 0.80104 0.10200
C 	C 	0.95889 0.20626 0.83087 -0.16000
H 	H 	0.95880 0.19330 0.84850 0.11000
C 	C 	0.95861 0.23830 0.83461 0.10100
H 	H 	0.95830 0.24690 0.85470 0.02900
C 	C 	0.95883 0.25784 0.80872 -0.17400
C 	C 	0.96012 0.24464 0.77899 0.09200
H 	H 	0.96110 0.25760 0.76140 -0.02000
C 	C 	0.95996 0.21268 0.77529 -0.16800
H 	H 	0.96030 0.20420 0.75520 0.05800
C 	C 	0.95684 0.29225 0.81265 0.43300
C 	C 	0.88852 0.15282 0.81112 -0.09400
H 	H 	0.89520 0.17090 0.79930 -0.08100
H 	H 	0.87090 0.15890 0.82380 -0.03100
C 	C 	0.87900 0.12630 0.78800 -0.44600
H 	H 	0.87270 0.10770 0.79960 -0.34900
H 	H 	0.89670 0.12080 0.77470 0.05500
C 	C 	0.85130 0.13830 0.76760 -1.91800
H 	H 	0.85640 0.15890 0.75930 0.51800
H 	H 	0.84830 0.12420 0.74990 0.53300
C 	C 	0.82060 0.14030 0.78640 0.68900
H 	H 	0.80400 0.14770 0.77310 -0.21900
H 	H 	0.81530 0.11980 0.79430 1.26300
H 	H 	0.82330 0.15450 0.80370 -0.71600
N 	N 	0.91090 0.13112 0.86119 -0.25400
N 	N 	0.94531 0.14206 0.82414 -0.14000
O 	O 	0.06940 0.09916 0.87671 -0.38600
O 	O 	0.06055 0.14259 0.85118 -0.38900
O 	O 	0.95515 0.30117 0.84183 -0.52200
H 	H 	0.95190 0.31960 0.84740 0.33100
O 	O 	0.95711 0.31103 0.79078 -0.30000
H 	H 	0.01670 0.06670 0.88110 0.04700
H 	H 	0.98370 0.08170 0.88430 -0.00600
C 	C 	0.01050 0.08960 0.92240 0.02500
C 	C 	0.02120 0.07010 0.94440 -0.03300
H 	H 	0.02750 0.04960 0.94050 0.04800
C 	C 	0.02170 0.08520 0.97600 -0.01500
H 	H 	0.02860 0.07520 0.99420 -0.00500
C 	C 	0.01110 0.11470 0.97540 -0.02200
H 	H 	0.00950 0.12770 0.99280 -0.04200
S 	S 	0.00103 0.12523 0.93822 -0.04900
H 	H 	0.89740 0.16090 0.79200 0.14100
H 	H 	0.87780 0.16990 0.82130 0.07300
C 	C 	0.86530 0.12670 0.80140 0.02900
H 	H 	0.85840 0.11520 0.81980 -0.01400
H 	H 	0.87550 0.11210 0.78730 0.59500
C 	C 	0.83660 0.14230 0.78480 1.84000
H 	H 	0.82660 0.15700 0.79910 -0.04500
H 	H 	0.84370 0.15400 0.76660 -0.06500
C 	C 	0.81270 0.11740 0.77450 -5.68300
H 	H 	0.79520 0.12740 0.76430 1.75000
H 	H 	0.82250 0.10300 0.76010 1.71800
H 	H 	0.80530 0.10610 0.79260 0.93000
C 	C 	0.05009 0.88171 0.63520 0.28600
C 	C 	0.01579 0.88794 0.63285 -0.01000
C 	C 	0.00572 0.91473 0.61230 -0.13600
H 	H 	0.01970 0.93220 0.61510 0.01500
H 	H 	0.98490 0.92120 0.61810 0.02400
C 	C 	0.00620 0.90440 0.57828 0.02200
C 	C 	0.00070 0.87590 0.56650 -0.03000
H 	H 	0.99570 0.85850 0.57880 0.06500
C 	C 	0.00330 0.87500 0.53170 -0.00700
H 	H 	0.00020 0.85710 0.51960 0.01100
C 	C 	0.01070 0.90280 0.51980 -0.02300
H 	H 	0.01350 0.90670 0.49850 -0.03700
S 	S 	0.01460 0.93055 0.54877 -0.05500
C 	C 	0.99652 0.86982 0.64993 -0.12000
H 	H 	0.00620 0.85540 0.66320 0.09800
C 	C 	0.96264 0.86984 0.65031 0.07900
C 	C 	0.94055 0.87629 0.62788 -0.08600
H 	H 	0.94490 0.88450 0.60810 0.05100
C 	C 	0.91460 0.85754 0.66799 0.10300
C 	C 	0.95830 0.84240 0.70376 -0.02000
C 	C 	0.95929 0.80717 0.69896 0.10200
C 	C 	0.95889 0.79374 0.66913 -0.16000
H 	H 	0.95880 0.80670 0.65150 0.11000
C 	C 	0.95861 0.76170 0.66539 0.10100
H 	H 	0.95830 0.75310 0.64530 0.02900
C 	C 	0.95883 0.74216 0.69128 -0.17400
C 	C 	0.96012 0.75536 0.72101 0.09200
H 	H 	0.96110 0.74240 0.73860 -0.02000
C 	C 	0.95996 0.78732 0.72471 -0.16800
H 	H 	0.96030 0.79580 0.74480 0.05800
C 	C 	0.95684 0.70775 0.68735 0.43300
C 	C 	0.88852 0.84718 0.68888 -0.09400
H 	H 	0.89520 0.82910 0.70070 -0.08100
H 	H 	0.87090 0.84110 0.67620 -0.03100
C 	C 	0.87900 0.87370 0.71200 -0.44600
H 	H 	0.87270 0.89230 0.70040 -0.34900
H 	H 	0.89670 0.87920 0.72530 0.05500
C 	C 	0.85130 0.86170 0.73240 -1.91800
H 	H 	0.85640 0.84110 0.74070 0.51800
H 	H 	0.84830 0.87580 0.75010 0.53300
C 	C 	0.82060 0.85970 0.71360 0.68900
H 	H 	0.80400 0.85230 0.72690 -0.21900
H 	H 	0.81530 0.88020 0.70570 1.26300
H 	H 	0.82330 0.84550 0.69630 -0.71600
N 	N 	0.91090 0.86888 0.63881 -0.25400
N 	N 	0.94531 0.85794 0.67586 -0.14000
O 	O 	0.06940 0.90084 0.62329 -0.38600
O 	O 	0.06055 0.85741 0.64882 -0.38900
O 	O 	0.95515 0.69883 0.65817 -0.52200
H 	H 	0.95190 0.68040 0.65260 0.33100
O 	O 	0.95711 0.68897 0.70922 -0.30000
H 	H 	0.01670 0.93330 0.61890 0.04700
H 	H 	0.98370 0.91830 0.61570 -0.00600
C 	C 	0.01050 0.91040 0.57760 0.02500
C 	C 	0.02120 0.92990 0.55560 -0.03300
H 	H 	0.02750 0.95040 0.55950 0.04800
C 	C 	0.02170 0.91480 0.52400 -0.01500
H 	H 	0.02860 0.92480 0.50580 -0.00500
C 	C 	0.01110 0.88530 0.52460 -0.02200
H 	H 	0.00950 0.87230 0.50720 -0.04200
S 	S 	0.00103 0.87477 0.56178 -0.04900
H 	H 	0.89740 0.83910 0.70800 0.14100
H 	H 	0.87780 0.83010 0.67870 0.07300
C 	C 	0.86530 0.87330 0.69860 0.02900
H 	H 	0.85840 0.88480 0.68020 -0.01400
H 	H 	0.87550 0.88790 0.71270 0.59500
C 	C 	0.83660 0.85770 0.71520 1.84000
H 	H 	0.82660 0.84300 0.70090 -0.04500
H 	H 	0.84370 0.84600 0.73340 -0.06500
C 	C 	0.81270 0.88260 0.72550 -5.68300
H 	H 	0.79520 0.87260 0.73570 1.75000
H 	H 	0.82250 0.89700 0.73990 1.71800
H 	H 	0.80530 0.89390 0.70740 0.93000
C 	C 	0.55009 0.38171 0.13520 0.28600
C 	C 	0.51579 0.38794 0.13285 -0.01000
C 	C 	0.50572 0.41473 0.11230 -0.13600
H 	H 	0.51970 0.43220 0.11510 0.01500
H 	H 	0.48490 0.42120 0.11810 0.02400
C 	C 	0.50620 0.40440 0.07828 0.02200
C 	C 	0.50070 0.37590 0.06650 -0.03000
H 	H 	0.49570 0.35850 0.07880 0.06500
C 	C 	0.50330 0.37500 0.03170 -0.00700
H 	H 	0.50020 0.35710 0.01960 0.01100
C 	C 	0.51070 0.40280 0.01980 -0.02300
H 	H 	0.51350 0.40670 0.99850 -0.03700
S 	S 	0.51460 0.43055 0.04877 -0.05500
C 	C 	0.49652 0.36982 0.14993 -0.12000
H 	H 	0.50620 0.35540 0.16320 0.09800
C 	C 	0.46264 0.36984 0.15031 0.07900
C 	C 	0.44055 0.37629 0.12788 -0.08600
H 	H 	0.44490 0.38450 0.10810 0.05100
C 	C 	0.41460 0.35754 0.16799 0.10300
C 	C 	0.45830 0.34240 0.20376 -0.02000
C 	C 	0.45929 0.30717 0.19896 0.10200
C 	C 	0.45889 0.29374 0.16913 -0.16000
H 	H 	0.45880 0.30670 0.15150 0.11000
C 	C 	0.45861 0.26170 0.16539 0.10100
H 	H 	0.45830 0.25310 0.14530 0.02900
C 	C 	0.45883 0.24216 0.19128 -0.17500
C 	C 	0.46012 0.25536 0.22101 0.09200
H 	H 	0.46110 0.24240 0.23860 -0.02000
C 	C 	0.45996 0.28732 0.22471 -0.16800
H 	H 	0.46030 0.29580 0.24480 0.05800
C 	C 	0.45684 0.20775 0.18735 0.43300
C 	C 	0.38852 0.34718 0.18888 -0.09400
H 	H 	0.39520 0.32910 0.20070 -0.08100
H 	H 	0.37090 0.34110 0.17620 -0.03100
C 	C 	0.37900 0.37370 0.21200 -0.44600
H 	H 	0.37270 0.39230 0.20040 -0.34900
H 	H 	0.39670 0.37920 0.22530 0.05500
C 	C 	0.35130 0.36170 0.23240 -1.91800
H 	H 	0.35640 0.34110 0.24070 0.51800
H 	H 	0.34830 0.37580 0.25010 0.53300
C 	C 	0.32060 0.35970 0.21360 0.68900
H 	H 	0.30400 0.35230 0.22690 -0.21900
H 	H 	0.31530 0.38020 0.20570 1.26300
H 	H 	0.32330 0.34550 0.19630 -0.71600
N 	N 	0.41090 0.36888 0.13881 -0.25400
N 	N 	0.44531 0.35794 0.17586 -0.14000
O 	O 	0.56940 0.40084 0.12329 -0.38600
O 	O 	0.56055 0.35741 0.14882 -0.38900
O 	O 	0.45515 0.19883 0.15817 -0.52200
H 	H 	0.45190 0.18040 0.15260 0.33100
O 	O 	0.45711 0.18897 0.20922 -0.30000
H 	H 	0.51670 0.43330 0.11890 0.04700
H 	H 	0.48370 0.41830 0.11570 -0.00600
C 	C 	0.51050 0.41040 0.07760 0.02500
C 	C 	0.52120 0.42990 0.05560 -0.03300
H 	H 	0.52750 0.45040 0.05950 0.04800
C 	C 	0.52170 0.41480 0.02400 -0.01500
H 	H 	0.52860 0.42480 0.00580 -0.00500
C 	C 	0.51110 0.38530 0.02460 -0.02200
H 	H 	0.50950 0.37230 0.00720 -0.04200
S 	S 	0.50103 0.37477 0.06178 -0.04900
H 	H 	0.39740 0.33910 0.20800 0.14100
H 	H 	0.37780 0.33010 0.17870 0.07300
C 	C 	0.36530 0.37330 0.19860 0.02900
H 	H 	0.35840 0.38480 0.18020 -0.01400
H 	H 	0.37550 0.38790 0.21270 0.59500
C 	C 	0.33660 0.35770 0.21520 1.84000
H 	H 	0.32660 0.34300 0.20090 -0.04500
H 	H 	0.34370 0.34600 0.23340 -0.06500
C 	C 	0.31270 0.38260 0.22550 -5.68300
H 	H 	0.29520 0.37260 0.23570 1.75000
H 	H 	0.32250 0.39700 0.23990 1.71800
H 	H 	0.30530 0.39390 0.20740 0.93000
C 	C 	0.86480 0.94991 0.38171 0.28600
C 	C 	0.86715 0.98421 0.38794 -0.01000
C 	C 	0.88770 0.99428 0.41473 -0.13600
H 	H 	0.88490 0.98030 0.43220 0.01500
H 	H 	0.88190 0.01510 0.42120 0.02400
C 	C 	0.92172 0.99380 0.40440 0.02200
C 	C 	0.93350 0.99930 0.37590 -0.03000
H 	H 	0.92120 0.00430 0.35850 0.06500
C 	C 	0.96830 0.99670 0.37500 -0.00700
H 	H 	0.98040 0.99980 0.35710 0.01100
C 	C 	0.98020 0.98930 0.40280 -0.02300
H 	H 	0.00150 0.98650 0.40670 -0.03700
S 	S 	0.95123 0.98540 0.43055 -0.05500
C 	C 	0.85007 0.00348 0.36982 -0.12000
H 	H 	0.83680 0.99380 0.35540 0.09800
C 	C 	0.84969 0.03736 0.36984 0.07900
C 	C 	0.87212 0.05945 0.37629 -0.08600
H 	H 	0.89190 0.05510 0.38450 0.05100
C 	C 	0.83201 0.08540 0.35754 0.10300
C 	C 	0.79624 0.04170 0.34240 -0.02000
C 	C 	0.80104 0.04071 0.30717 0.10200
C 	C 	0.83087 0.04111 0.29374 -0.16000
H 	H 	0.84850 0.04120 0.30670 0.11000
C 	C 	0.83461 0.04139 0.26170 0.10100
H 	H 	0.85470 0.04170 0.25310 0.02900
C 	C 	0.80872 0.04117 0.24216 -0.17400
C 	C 	0.77899 0.03988 0.25536 0.09200
H 	H 	0.76140 0.03890 0.24240 -0.02000
C 	C 	0.77529 0.04004 0.28732 -0.16800
H 	H 	0.75520 0.03970 0.29580 0.05800
C 	C 	0.81265 0.04316 0.20775 0.43300
C 	C 	0.81112 0.11148 0.34718 -0.09400
H 	H 	0.79930 0.10480 0.32910 -0.08100
H 	H 	0.82380 0.12910 0.34110 -0.03100
C 	C 	0.78800 0.12100 0.37370 -0.44600
H 	H 	0.79960 0.12730 0.39230 -0.34900
H 	H 	0.77470 0.10330 0.37920 0.05500
C 	C 	0.76760 0.14870 0.36170 -1.91800
H 	H 	0.75930 0.14360 0.34110 0.51800
H 	H 	0.74990 0.15170 0.37580 0.53300
C 	C 	0.78640 0.17940 0.35970 0.68900
H 	H 	0.77310 0.19600 0.35230 -0.21900
H 	H 	0.79430 0.18470 0.38020 1.26300
H 	H 	0.80370 0.17670 0.34550 -0.71600
N 	N 	0.86119 0.08910 0.36888 -0.25400
N 	N 	0.82414 0.05469 0.35794 -0.14000
O 	O 	0.87671 0.93060 0.40084 -0.38600
O 	O 	0.85118 0.93945 0.35741 -0.38900
O 	O 	0.84183 0.04485 0.19883 -0.52200
H 	H 	0.84740 0.04810 0.18040 0.33100
O 	O 	0.79078 0.04289 0.18897 -0.30000
H 	H 	0.88110 0.98330 0.43330 0.04700
H 	H 	0.88430 0.01630 0.41830 -0.00600
C 	C 	0.92240 0.98950 0.41040 0.02500
C 	C 	0.94440 0.97880 0.42990 -0.03300
H 	H 	0.94050 0.97250 0.45040 0.04800
C 	C 	0.97600 0.97830 0.41480 -0.01500
H 	H 	0.99420 0.97140 0.42480 -0.00500
C 	C 	0.97540 0.98890 0.38530 -0.02200
H 	H 	0.99280 0.99050 0.37230 -0.04200
S 	S 	0.93822 0.99897 0.37477 -0.04900
H 	H 	0.79200 0.10260 0.33910 0.14100
H 	H 	0.82130 0.12220 0.33010 0.07300
C 	C 	0.80140 0.13470 0.37330 0.02900
H 	H 	0.81980 0.14160 0.38480 -0.01400
H 	H 	0.78730 0.12450 0.38790 0.59500
C 	C 	0.78480 0.16340 0.35770 1.84000
H 	H 	0.79910 0.17340 0.34300 -0.04500
H 	H 	0.76660 0.15630 0.34600 -0.06500
C 	C 	0.77450 0.18730 0.38260 -5.68300
H 	H 	0.76430 0.20480 0.37260 1.75000
H 	H 	0.76010 0.17750 0.39700 1.71800
H 	H 	0.79260 0.19470 0.39390 0.93000
C 	C 	0.36480 0.44991 0.88171 0.28600
C 	C 	0.36715 0.48421 0.88794 -0.01000
C 	C 	0.38770 0.49428 0.91473 -0.13600
H 	H 	0.38490 0.48030 0.93220 0.01500
H 	H 	0.38190 0.51510 0.92120 0.02400
C 	C 	0.42172 0.49380 0.90440 0.02200
C 	C 	0.43350 0.49930 0.87590 -0.03000
H 	H 	0.42120 0.50430 0.85850 0.06500
C 	C 	0.46830 0.49670 0.87500 -0.00700
H 	H 	0.48040 0.49980 0.85710 0.01100
C 	C 	0.48020 0.48930 0.90280 -0.02300
H 	H 	0.50150 0.48650 0.90670 -0.03700
S 	S 	0.45123 0.48540 0.93055 -0.05500
C 	C 	0.35007 0.50348 0.86982 -0.12000
H 	H 	0.33680 0.49380 0.85540 0.09800
C 	C 	0.34969 0.53736 0.86984 0.07900
C 	C 	0.37212 0.55945 0.87629 -0.08600
H 	H 	0.39190 0.55510 0.88450 0.05100
C 	C 	0.33201 0.58540 0.85754 0.10300
C 	C 	0.29624 0.54170 0.84240 -0.02000
C 	C 	0.30104 0.54071 0.80717 0.10200
C 	C 	0.33087 0.54111 0.79374 -0.16000
H 	H 	0.34850 0.54120 0.80670 0.11000
C 	C 	0.33461 0.54139 0.76170 0.10100
H 	H 	0.35470 0.54170 0.75310 0.02900
C 	C 	0.30872 0.54117 0.74216 -0.17500
C 	C 	0.27899 0.53988 0.75536 0.09200
H 	H 	0.26140 0.53890 0.74240 -0.02000
C 	C 	0.27529 0.54004 0.78732 -0.16800
H 	H 	0.25520 0.53970 0.79580 0.05800
C 	C 	0.31265 0.54316 0.70775 0.43300
C 	C 	0.31112 0.61148 0.84718 -0.09400
H 	H 	0.29930 0.60480 0.82910 -0.08100
H 	H 	0.32380 0.62910 0.84110 -0.03100
C 	C 	0.28800 0.62100 0.87370 -0.44600
H 	H 	0.29960 0.62730 0.89230 -0.34900
H 	H 	0.27470 0.60330 0.87920 0.05500
C 	C 	0.26760 0.64870 0.86170 -1.91800
H 	H 	0.25930 0.64360 0.84110 0.51800
H 	H 	0.24990 0.65170 0.87580 0.53300
C 	C 	0.28640 0.67940 0.85970 0.68900
H 	H 	0.27310 0.69600 0.85230 -0.21900
H 	H 	0.29430 0.68470 0.88020 1.26300
H 	H 	0.30370 0.67670 0.84550 -0.71600
N 	N 	0.36119 0.58910 0.86888 -0.25400
N 	N 	0.32414 0.55469 0.85794 -0.14000
O 	O 	0.37671 0.43060 0.90084 -0.38600
O 	O 	0.35118 0.43945 0.85741 -0.38900
O 	O 	0.34183 0.54485 0.69883 -0.52200
H 	H 	0.34740 0.54810 0.68040 0.33100
O 	O 	0.29078 0.54289 0.68897 -0.30000
H 	H 	0.38110 0.48330 0.93330 0.04700
H 	H 	0.38430 0.51630 0.91830 -0.00600
C 	C 	0.42240 0.48950 0.91040 0.02500
C 	C 	0.44440 0.47880 0.92990 -0.03300
H 	H 	0.44050 0.47250 0.95040 0.04800
C 	C 	0.47600 0.47830 0.91480 -0.01500
H 	H 	0.49420 0.47140 0.92480 -0.00500
C 	C 	0.47540 0.48890 0.88530 -0.02200
H 	H 	0.49280 0.49050 0.87230 -0.04200
S 	S 	0.43822 0.49897 0.87477 -0.04900
H 	H 	0.29200 0.60260 0.83910 0.14100
H 	H 	0.32130 0.62220 0.83010 0.07300
C 	C 	0.30140 0.63470 0.87330 0.02900
H 	H 	0.31980 0.64160 0.88480 -0.01400
H 	H 	0.28730 0.62450 0.88790 0.59500
C 	C 	0.28480 0.66340 0.85770 1.84000
H 	H 	0.29910 0.67340 0.84300 -0.04500
H 	H 	0.26660 0.65630 0.84600 -0.06500
C 	C 	0.27450 0.68730 0.88260 -5.68300
H 	H 	0.26430 0.70480 0.87260 1.75000
H 	H 	0.26010 0.67750 0.89700 1.71800
H 	H 	0.29260 0.69470 0.89390 0.93000
C 	C 	0.13520 0.44991 0.11829 0.28600
C 	C 	0.13285 0.48421 0.11206 -0.01000
C 	C 	0.11230 0.49428 0.08527 -0.13600
H 	H 	0.11510 0.48030 0.06780 0.01500
H 	H 	0.11810 0.51510 0.07880 0.02400
C 	C 	0.07828 0.49380 0.09560 0.02200
C 	C 	0.06650 0.49930 0.12410 -0.03000
H 	H 	0.07880 0.50430 0.14150 0.06500
C 	C 	0.03170 0.49670 0.12500 -0.00700
H 	H 	0.01960 0.49980 0.14290 0.01100
C 	C 	0.01980 0.48930 0.09720 -0.02300
H 	H 	0.99850 0.48650 0.09330 -0.03700
S 	S 	0.04877 0.48540 0.06945 -0.05500
C 	C 	0.14993 0.50348 0.13018 -0.12000
H 	H 	0.16320 0.49380 0.14460 0.09800
C 	C 	0.15031 0.53736 0.13016 0.07900
C 	C 	0.12788 0.55945 0.12371 -0.08600
H 	H 	0.10810 0.55510 0.11550 0.05100
C 	C 	0.16799 0.58540 0.14246 0.10300
C 	C 	0.20376 0.54170 0.15760 -0.02000
C 	C 	0.19896 0.54071 0.19283 0.10200
C 	C 	0.16913 0.54111 0.20626 -0.16000
H 	H 	0.15150 0.54120 0.19330 0.11000
C 	C 	0.16539 0.54139 0.23830 0.10100
H 	H 	0.14530 0.54170 0.24690 0.02900
C 	C 	0.19128 0.54117 0.25784 -0.17500
C 	C 	0.22101 0.53988 0.24464 0.09200
H 	H 	0.23860 0.53890 0.25760 -0.02000
C 	C 	0.22471 0.54004 0.21268 -0.16800
H 	H 	0.24480 0.53970 0.20420 0.05800
C 	C 	0.18735 0.54316 0.29225 0.43300
C 	C 	0.18888 0.61148 0.15282 -0.09400
H 	H 	0.20070 0.60480 0.17090 -0.08100
H 	H 	0.17620 0.62910 0.15890 -0.03100
C 	C 	0.21200 0.62100 0.12630 -0.44600
H 	H 	0.20040 0.62730 0.10770 -0.34900
H 	H 	0.22530 0.60330 0.12080 0.05500
C 	C 	0.23240 0.64870 0.13830 -1.91800
H 	H 	0.24070 0.64360 0.15890 0.51800
H 	H 	0.25010 0.65170 0.12420 0.53300
C 	C 	0.21360 0.67940 0.14030 0.68900
H 	H 	0.22690 0.69600 0.14770 -0.21900
H 	H 	0.20570 0.68470 0.11980 1.26300
H 	H 	0.19630 0.67670 0.15450 -0.71600
N 	N 	0.13881 0.58910 0.13112 -0.25400
N 	N 	0.17586 0.55469 0.14206 -0.14000
O 	O 	0.12329 0.43060 0.09916 -0.38600
O 	O 	0.14882 0.43945 0.14259 -0.38900
O 	O 	0.15817 0.54485 0.30117 -0.52200
H 	H 	0.15260 0.54810 0.31960 0.33100
O 	O 	0.20922 0.54289 0.31103 -0.30000
H 	H 	0.11890 0.48330 0.06670 0.04700
H 	H 	0.11570 0.51630 0.08170 -0.00600
C 	C 	0.07760 0.48950 0.08960 0.02500
C 	C 	0.05560 0.47880 0.07010 -0.03300
H 	H 	0.05950 0.47250 0.04960 0.04800
C 	C 	0.02400 0.47830 0.08520 -0.01500
H 	H 	0.00580 0.47140 0.07520 -0.00500
C 	C 	0.02460 0.48890 0.11470 -0.02200
H 	H 	0.00720 0.49050 0.12770 -0.04200
S 	S 	0.06178 0.49897 0.12523 -0.04900
H 	H 	0.20800 0.60260 0.16090 0.14100
H 	H 	0.17870 0.62220 0.16990 0.07300
C 	C 	0.19860 0.63470 0.12670 0.02900
H 	H 	0.18020 0.64160 0.11520 -0.01400
H 	H 	0.21270 0.62450 0.11210 0.59500
C 	C 	0.21520 0.66340 0.14230 1.84000
H 	H 	0.20090 0.67340 0.15700 -0.04500
H 	H 	0.23340 0.65630 0.15400 -0.06500
C 	C 	0.22550 0.68730 0.11740 -5.68300
H 	H 	0.23570 0.70480 0.12740 1.75000
H 	H 	0.23990 0.67750 0.10300 1.71800
H 	H 	0.20740 0.69470 0.10610 0.93000
C 	C 	0.63520 0.94991 0.61829 0.28600
C 	C 	0.63285 0.98421 0.61206 -0.01000
C 	C 	0.61230 0.99428 0.58527 -0.13600
H 	H 	0.61510 0.98030 0.56780 0.01500
H 	H 	0.61810 0.01510 0.57880 0.02400
C 	C 	0.57828 0.99380 0.59560 0.02200
C 	C 	0.56650 0.99930 0.62410 -0.03000
H 	H 	0.57880 0.00430 0.64150 0.06500
C 	C 	0.53170 0.99670 0.62500 -0.00700
H 	H 	0.51960 0.99980 0.64290 0.01100
C 	C 	0.51980 0.98930 0.59720 -0.02300
H 	H 	0.49850 0.98650 0.59330 -0.03700
S 	S 	0.54877 0.98540 0.56945 -0.05500
C 	C 	0.64993 0.00348 0.63018 -0.12000
H 	H 	0.66320 0.99380 0.64460 0.09800
C 	C 	0.65031 0.03736 0.63016 0.07900
C 	C 	0.62788 0.05945 0.62371 -0.08600
H 	H 	0.60810 0.05510 0.61550 0.05100
C 	C 	0.66799 0.08540 0.64246 0.10300
C 	C 	0.70376 0.04170 0.65760 -0.02000
C 	C 	0.69896 0.04071 0.69283 0.10200
C 	C 	0.66913 0.04111 0.70626 -0.16000
H 	H 	0.65150 0.04120 0.69330 0.11000
C 	C 	0.66539 0.04139 0.73830 0.10100
H 	H 	0.64530 0.04170 0.74690 0.02900
C 	C 	0.69128 0.04117 0.75784 -0.17400
C 	C 	0.72101 0.03988 0.74464 0.09200
H 	H 	0.73860 0.03890 0.75760 -0.02000
C 	C 	0.72471 0.04004 0.71268 -0.16800
H 	H 	0.74480 0.03970 0.70420 0.05800
C 	C 	0.68735 0.04316 0.79225 0.43300
C 	C 	0.68888 0.11148 0.65282 -0.09400
H 	H 	0.70070 0.10480 0.67090 -0.08100
H 	H 	0.67620 0.12910 0.65890 -0.03100
C 	C 	0.71200 0.12100 0.62630 -0.44600
H 	H 	0.70040 0.12730 0.60770 -0.34900
H 	H 	0.72530 0.10330 0.62080 0.05500
C 	C 	0.73240 0.14870 0.63830 -1.91800
H 	H 	0.74070 0.14360 0.65890 0.51800
H 	H 	0.75010 0.15170 0.62420 0.53300
C 	C 	0.71360 0.17940 0.64030 0.68900
H 	H 	0.72690 0.19600 0.64770 -0.21900
H 	H 	0.70570 0.18470 0.61980 1.26300
H 	H 	0.69630 0.17670 0.65450 -0.71600
N 	N 	0.63881 0.08910 0.63112 -0.25400
N 	N 	0.67586 0.05469 0.64206 -0.14000
O 	O 	0.62329 0.93060 0.59916 -0.38600
O 	O 	0.64882 0.93945 0.64259 -0.38900
O 	O 	0.65817 0.04485 0.80117 -0.52200
H 	H 	0.65260 0.04810 0.81960 0.33100
O 	O 	0.70922 0.04289 0.81103 -0.30000
H 	H 	0.61890 0.98330 0.56670 0.04700
H 	H 	0.61570 0.01630 0.58170 -0.00600
C 	C 	0.57760 0.98950 0.58960 0.02500
C 	C 	0.55560 0.97880 0.57010 -0.03300
H 	H 	0.55950 0.97250 0.54960 0.04800
C 	C 	0.52400 0.97830 0.58520 -0.01500
H 	H 	0.50580 0.97140 0.57520 -0.00500
C 	C 	0.52460 0.98890 0.61470 -0.02200
H 	H 	0.50720 0.99050 0.62770 -0.04200
S 	S 	0.56178 0.99897 0.62523 -0.04900
H 	H 	0.70800 0.10260 0.66090 0.14100
H 	H 	0.67870 0.12220 0.66990 0.07300
C 	C 	0.69860 0.13470 0.62670 0.02900
H 	H 	0.68020 0.14160 0.61520 -0.01400
H 	H 	0.71270 0.12450 0.61210 0.59500
C 	C 	0.71520 0.16340 0.64230 1.84000
H 	H 	0.70090 0.17340 0.65700 -0.04500
H 	H 	0.73340 0.15630 0.65400 -0.06500
C 	C 	0.72550 0.18730 0.61740 -5.68300
H 	H 	0.73570 0.20480 0.62740 1.75000
H 	H 	0.73990 0.17750 0.60300 1.71800
H 	H 	0.70740 0.19470 0.60610 0.93000
C 	C 	0.36480 0.55009 0.61829 0.28600
C 	C 	0.36715 0.51579 0.61206 -0.01000
C 	C 	0.38770 0.50572 0.58527 -0.13600
H 	H 	0.38490 0.51970 0.56780 0.01500
H 	H 	0.38190 0.48490 0.57880 0.02400
C 	C 	0.42172 0.50620 0.59560 0.02200
C 	C 	0.43350 0.50070 0.62410 -0.03000
H 	H 	0.42120 0.49570 0.64150 0.06500
C 	C 	0.46830 0.50330 0.62500 -0.00700
H 	H 	0.48040 0.50020 0.64290 0.01100
C 	C 	0.48020 0.51070 0.59720 -0.02300
H 	H 	0.50150 0.51350 0.59330 -0.03700
S 	S 	0.45123 0.51460 0.56945 -0.05500
C 	C 	0.35007 0.49652 0.63018 -0.12000
H 	H 	0.33680 0.50620 0.64460 0.09800
C 	C 	0.34969 0.46264 0.63016 0.07900
C 	C 	0.37212 0.44055 0.62371 -0.08600
H 	H 	0.39190 0.44490 0.61550 0.05100
C 	C 	0.33201 0.41460 0.64246 0.10300
C 	C 	0.29624 0.45830 0.65760 -0.02000
C 	C 	0.30104 0.45929 0.69283 0.10200
C 	C 	0.33087 0.45889 0.70626 -0.16000
H 	H 	0.34850 0.45880 0.69330 0.11000
C 	C 	0.33461 0.45861 0.73830 0.10100
H 	H 	0.35470 0.45830 0.74690 0.02900
C 	C 	0.30872 0.45883 0.75784 -0.17500
C 	C 	0.27899 0.46012 0.74464 0.09200
H 	H 	0.26140 0.46110 0.75760 -0.02000
C 	C 	0.27529 0.45996 0.71268 -0.16800
H 	H 	0.25520 0.46030 0.70420 0.05800
C 	C 	0.31265 0.45684 0.79225 0.43300
C 	C 	0.31112 0.38852 0.65282 -0.09400
H 	H 	0.29930 0.39520 0.67090 -0.08100
H 	H 	0.32380 0.37090 0.65890 -0.03100
C 	C 	0.28800 0.37900 0.62630 -0.44600
H 	H 	0.29960 0.37270 0.60770 -0.34900
H 	H 	0.27470 0.39670 0.62080 0.05500
C 	C 	0.26760 0.35130 0.63830 -1.91800
H 	H 	0.25930 0.35640 0.65890 0.51800
H 	H 	0.24990 0.34830 0.62420 0.53300
C 	C 	0.28640 0.32060 0.64030 0.68900
H 	H 	0.27310 0.30400 0.64770 -0.21900
H 	H 	0.29430 0.31530 0.61980 1.26300
H 	H 	0.30370 0.32330 0.65450 -0.71600
N 	N 	0.36119 0.41090 0.63112 -0.25400
N 	N 	0.32414 0.44531 0.64206 -0.14000
O 	O 	0.37671 0.56940 0.59916 -0.38600
O 	O 	0.35118 0.56055 0.64259 -0.38900
O 	O 	0.34183 0.45515 0.80117 -0.52200
H 	H 	0.34740 0.45190 0.81960 0.33100
O 	O 	0.29078 0.45711 0.81103 -0.30000
H 	H 	0.38110 0.51670 0.56670 0.04700
H 	H 	0.38430 0.48370 0.58170 -0.00600
C 	C 	0.42240 0.51050 0.58960 0.02500
C 	C 	0.44440 0.52120 0.57010 -0.03300
H 	H 	0.44050 0.52750 0.54960 0.04800
C 	C 	0.47600 0.52170 0.58520 -0.01500
H 	H 	0.49420 0.52860 0.57520 -0.00500
C 	C 	0.47540 0.51110 0.61470 -0.02200
H 	H 	0.49280 0.50950 0.62770 -0.04200
S 	S 	0.43822 0.50103 0.62523 -0.04900
H 	H 	0.29200 0.39740 0.66090 0.14100
H 	H 	0.32130 0.37780 0.66990 0.07300
C 	C 	0.30140 0.36530 0.62670 0.02900
H 	H 	0.31980 0.35840 0.61520 -0.01400
H 	H 	0.28730 0.37550 0.61210 0.59500
C 	C 	0.28480 0.33660 0.64230 1.84000
H 	H 	0.29910 0.32660 0.65700 -0.04500
H 	H 	0.26660 0.34370 0.65400 -0.06500
C 	C 	0.27450 0.31270 0.61740 -5.68300
H 	H 	0.26430 0.29520 0.62740 1.75000
H 	H 	0.26010 0.32250 0.60300 1.71800
H 	H 	0.29260 0.30530 0.60610 0.93000
C 	C 	0.86480 0.05009 0.11829 0.28600
C 	C 	0.86715 0.01579 0.11206 -0.01000
C 	C 	0.88770 0.00572 0.08527 -0.13600
H 	H 	0.88490 0.01970 0.06780 0.01500
H 	H 	0.88190 0.98490 0.07880 0.02400
C 	C 	0.92172 0.00620 0.09560 0.02200
C 	C 	0.93350 0.00070 0.12410 -0.03000
H 	H 	0.92120 0.99570 0.14150 0.06500
C 	C 	0.96830 0.00330 0.12500 -0.00700
H 	H 	0.98040 0.00020 0.14290 0.01100
C 	C 	0.98020 0.01070 0.09720 -0.02300
H 	H 	0.00150 0.01350 0.09330 -0.03700
S 	S 	0.95123 0.01460 0.06945 -0.05500
C 	C 	0.85007 0.99652 0.13018 -0.12000
H 	H 	0.83680 0.00620 0.14460 0.09800
C 	C 	0.84969 0.96264 0.13016 0.07900
C 	C 	0.87212 0.94055 0.12371 -0.08600
H 	H 	0.89190 0.94490 0.11550 0.05100
C 	C 	0.83201 0.91460 0.14246 0.10300
C 	C 	0.79624 0.95830 0.15760 -0.02000
C 	C 	0.80104 0.95929 0.19283 0.10200
C 	C 	0.83087 0.95889 0.20626 -0.16000
H 	H 	0.84850 0.95880 0.19330 0.11000
C 	C 	0.83461 0.95861 0.23830 0.10100
H 	H 	0.85470 0.95830 0.24690 0.02900
C 	C 	0.80872 0.95883 0.25784 -0.17400
C 	C 	0.77899 0.96012 0.24464 0.09200
H 	H 	0.76140 0.96110 0.25760 -0.02000
C 	C 	0.77529 0.95996 0.21268 -0.16800
H 	H 	0.75520 0.96030 0.20420 0.05800
C 	C 	0.81265 0.95684 0.29225 0.43300
C 	C 	0.81112 0.88852 0.15282 -0.09400
H 	H 	0.79930 0.89520 0.17090 -0.08100
H 	H 	0.82380 0.87090 0.15890 -0.03100
C 	C 	0.78800 0.87900 0.12630 -0.44600
H 	H 	0.79960 0.87270 0.10770 -0.34900
H 	H 	0.77470 0.89670 0.12080 0.05500
C 	C 	0.76760 0.85130 0.13830 -1.91800
H 	H 	0.75930 0.85640 0.15890 0.51800
H 	H 	0.74990 0.84830 0.12420 0.53300
C 	C 	0.78640 0.82060 0.14030 0.68900
H 	H 	0.77310 0.80400 0.14770 -0.21900
H 	H 	0.79430 0.81530 0.11980 1.26300
H 	H 	0.80370 0.82330 0.15450 -0.71600
N 	N 	0.86119 0.91090 0.13112 -0.25400
N 	N 	0.82414 0.94531 0.14206 -0.14000
O 	O 	0.87671 0.06940 0.09916 -0.38600
O 	O 	0.85118 0.06055 0.14259 -0.38900
O 	O 	0.84183 0.95515 0.30117 -0.52200
H 	H 	0.84740 0.95190 0.31960 0.33100
O 	O 	0.79078 0.95711 0.31103 -0.30000
H 	H 	0.88110 0.01670 0.06670 0.04700
H 	H 	0.88430 0.98370 0.08170 -0.00600
C 	C 	0.92240 0.01050 0.08960 0.02500
C 	C 	0.94440 0.02120 0.07010 -0.03300
H 	H 	0.94050 0.02750 0.04960 0.04800
C 	C 	0.97600 0.02170 0.08520 -0.01500
H 	H 	0.99420 0.02860 0.07520 -0.00500
C 	C 	0.97540 0.01110 0.11470 -0.02200
H 	H 	0.99280 0.00950 0.12770 -0.04200
S 	S 	0.93822 0.00103 0.12523 -0.04900
H 	H 	0.79200 0.89740 0.16090 0.14100
H 	H 	0.82130 0.87780 0.16990 0.07300
C 	C 	0.80140 0.86530 0.12670 0.02900
H 	H 	0.81980 0.85840 0.11520 -0.01400
H 	H 	0.78730 0.87550 0.11210 0.59500
C 	C 	0.78480 0.83660 0.14230 1.84000
H 	H 	0.79910 0.82660 0.15700 -0.04500
H 	H 	0.76660 0.84370 0.15400 -0.06500
C 	C 	0.77450 0.81270 0.11740 -5.68300
H 	H 	0.76430 0.79520 0.12740 1.75000
H 	H 	0.76010 0.82250 0.10300 1.71800
H 	H 	0.79260 0.80530 0.10610 0.93000
C 	C 	0.63520 0.05009 0.88171 0.28600
C 	C 	0.63285 0.01579 0.88794 -0.01000
C 	C 	0.61230 0.00572 0.91473 -0.13600
H 	H 	0.61510 0.01970 0.93220 0.01500
H 	H 	0.61810 0.98490 0.92120 0.02400
C 	C 	0.57828 0.00620 0.90440 0.02200
C 	C 	0.56650 0.00070 0.87590 -0.03000
H 	H 	0.57880 0.99570 0.85850 0.06500
C 	C 	0.53170 0.00330 0.87500 -0.00700
H 	H 	0.51960 0.00020 0.85710 0.01100
C 	C 	0.51980 0.01070 0.90280 -0.02300
H 	H 	0.49850 0.01350 0.90670 -0.03700
S 	S 	0.54877 0.01460 0.93055 -0.05500
C 	C 	0.64993 0.99652 0.86982 -0.12000
H 	H 	0.66320 0.00620 0.85540 0.09800
C 	C 	0.65031 0.96264 0.86984 0.07900
C 	C 	0.62788 0.94055 0.87629 -0.08600
H 	H 	0.60810 0.94490 0.88450 0.05100
C 	C 	0.66799 0.91460 0.85754 0.10300
C 	C 	0.70376 0.95830 0.84240 -0.02000
C 	C 	0.69896 0.95929 0.80717 0.10200
C 	C 	0.66913 0.95889 0.79374 -0.16000
H 	H 	0.65150 0.95880 0.80670 0.11000
C 	C 	0.66539 0.95861 0.76170 0.10100
H 	H 	0.64530 0.95830 0.75310 0.02900
C 	C 	0.69128 0.95883 0.74216 -0.17400
C 	C 	0.72101 0.96012 0.75536 0.09200
H 	H 	0.73860 0.96110 0.74240 -0.02000
C 	C 	0.72471 0.95996 0.78732 -0.16800
H 	H 	0.74480 0.96030 0.79580 0.05800
C 	C 	0.68735 0.95684 0.70775 0.43300
C 	C 	0.68888 0.88852 0.84718 -0.09400
H 	H 	0.70070 0.89520 0.82910 -0.08100
H 	H 	0.67620 0.87090 0.84110 -0.03100
C 	C 	0.71200 0.87900 0.87370 -0.44600
H 	H 	0.70040 0.87270 0.89230 -0.34900
H 	H 	0.72530 0.89670 0.87920 0.05500
C 	C 	0.73240 0.85130 0.86170 -1.91800
H 	H 	0.74070 0.85640 0.84110 0.51800
H 	H 	0.75010 0.84830 0.87580 0.53300
C 	C 	0.71360 0.82060 0.85970 0.68900
H 	H 	0.72690 0.80400 0.85230 -0.21900
H 	H 	0.70570 0.81530 0.88020 1.26300
H 	H 	0.69630 0.82330 0.84550 -0.71600
N 	N 	0.63881 0.91090 0.86888 -0.25400
N 	N 	0.67586 0.94531 0.85794 -0.14000
O 	O 	0.62329 0.06940 0.90084 -0.38600
O 	O 	0.64882 0.06055 0.85741 -0.38900
O 	O 	0.65817 0.95515 0.69883 -0.52200
H 	H 	0.65260 0.95190 0.68040 0.33100
O 	O 	0.70922 0.95711 0.68897 -0.30000
H 	H 	0.61890 0.01670 0.93330 0.04700
H 	H 	0.61570 0.98370 0.91830 -0.00600
C 	C 	0.57760 0.01050 0.91040 0.02500
C 	C 	0.55560 0.02120 0.92990 -0.03300
H 	H 	0.55950 0.02750 0.95040 0.04800
C 	C 	0.52400 0.02170 0.91480 -0.01500
H 	H 	0.50580 0.02860 0.92480 -0.00500
C 	C 	0.52460 0.01110 0.88530 -0.02200
H 	H 	0.50720 0.00950 0.87230 -0.04200
S 	S 	0.56178 0.00103 0.87477 -0.04900
H 	H 	0.70800 0.89740 0.83910 0.14100
H 	H 	0.67870 0.87780 0.83010 0.07300
C 	C 	0.69860 0.86530 0.87330 0.02900
H 	H 	0.68020 0.85840 0.88480 -0.01400
H 	H 	0.71270 0.87550 0.88790 0.59500
C 	C 	0.71520 0.83660 0.85770 1.84000
H 	H 	0.70090 0.82660 0.84300 -0.04500
H 	H 	0.73340 0.84370 0.84600 -0.06500
C 	C 	0.72550 0.81270 0.88260 -5.68300
H 	H 	0.73570 0.79520 0.87260 1.75000
H 	H 	0.73990 0.82250 0.89700 1.71800
H 	H 	0.70740 0.80530 0.89390 0.93000
C 	C 	0.13520 0.55009 0.38171 0.28600
C 	C 	0.13285 0.51579 0.38794 -0.01000
C 	C 	0.11230 0.50572 0.41473 -0.13600
H 	H 	0.11510 0.51970 0.43220 0.01500
H 	H 	0.11810 0.48490 0.42120 0.02400
C 	C 	0.07828 0.50620 0.40440 0.02200
C 	C 	0.06650 0.50070 0.37590 -0.03000
H 	H 	0.07880 0.49570 0.35850 0.06500
C 	C 	0.03170 0.50330 0.37500 -0.00700
H 	H 	0.01960 0.50020 0.35710 0.01100
C 	C 	0.01980 0.51070 0.40280 -0.02300
H 	H 	0.99850 0.51350 0.40670 -0.03700
S 	S 	0.04877 0.51460 0.43055 -0.05500
C 	C 	0.14993 0.49652 0.36982 -0.12000
H 	H 	0.16320 0.50620 0.35540 0.09800
C 	C 	0.15031 0.46264 0.36984 0.07900
C 	C 	0.12788 0.44055 0.37629 -0.08600
H 	H 	0.10810 0.44490 0.38450 0.05100
C 	C 	0.16799 0.41460 0.35754 0.10300
C 	C 	0.20376 0.45830 0.34240 -0.02000
C 	C 	0.19896 0.45929 0.30717 0.10200
C 	C 	0.16913 0.45889 0.29374 -0.16000
H 	H 	0.15150 0.45880 0.30670 0.11000
C 	C 	0.16539 0.45861 0.26170 0.10100
H 	H 	0.14530 0.45830 0.25310 0.02900
C 	C 	0.19128 0.45883 0.24216 -0.17500
C 	C 	0.22101 0.46012 0.25536 0.09200
H 	H 	0.23860 0.46110 0.24240 -0.02000
C 	C 	0.22471 0.45996 0.28732 -0.16800
H 	H 	0.24480 0.46030 0.29580 0.05800
C 	C 	0.18735 0.45684 0.20775 0.43300
C 	C 	0.18888 0.38852 0.34718 -0.09400
H 	H 	0.20070 0.39520 0.32910 -0.08100
H 	H 	0.17620 0.37090 0.34110 -0.03100
C 	C 	0.21200 0.37900 0.37370 -0.44600
H 	H 	0.20040 0.37270 0.39230 -0.34900
H 	H 	0.22530 0.39670 0.37920 0.05500
C 	C 	0.23240 0.35130 0.36170 -1.91800
H 	H 	0.24070 0.35640 0.34110 0.51800
H 	H 	0.25010 0.34830 0.37580 0.53300
C 	C 	0.21360 0.32060 0.35970 0.68900
H 	H 	0.22690 0.30400 0.35230 -0.21900
H 	H 	0.20570 0.31530 0.38020 1.26300
H 	H 	0.19630 0.32330 0.34550 -0.71600
N 	N 	0.13881 0.41090 0.36888 -0.25400
N 	N 	0.17586 0.44531 0.35794 -0.14000
O 	O 	0.12329 0.56940 0.40084 -0.38600
O 	O 	0.14882 0.56055 0.35741 -0.38900
O 	O 	0.15817 0.45515 0.19883 -0.52200
H 	H 	0.15260 0.45190 0.18040 0.33100
O 	O 	0.20922 0.45711 0.18897 -0.30000
H 	H 	0.11890 0.51670 0.43330 0.04700
H 	H 	0.11570 0.48370 0.41830 -0.00600
C 	C 	0.07760 0.51050 0.41040 0.02500
C 	C 	0.05560 0.52120 0.42990 -0.03300
H 	H 	0.05950 0.52750 0.45040 0.04800
C 	C 	0.02400 0.52170 0.41480 -0.01500
H 	H 	0.00580 0.52860 0.42480 -0.00500
C 	C 	0.02460 0.51110 0.38530 -0.02200
H 	H 	0.00720 0.50950 0.37230 -0.04200
S 	S 	0.06178 0.50103 0.37477 -0.04900
H 	H 	0.20800 0.39740 0.33910 0.14100
H 	H 	0.17870 0.37780 0.33010 0.07300
C 	C 	0.19860 0.36530 0.37330 0.02900
H 	H 	0.18020 0.35840 0.38480 -0.01400
H 	H 	0.21270 0.37550 0.38790 0.59500
C 	C 	0.21520 0.33660 0.35770 1.84000
H 	H 	0.20090 0.32660 0.34300 -0.04500
H 	H 	0.23340 0.34370 0.34600 -0.06500
C 	C 	0.22550 0.31270 0.38260 -5.68300
H 	H 	0.23570 0.29520 0.37260 1.75000
H 	H 	0.23990 0.32250 0.39700 1.71800
H 	H 	0.20740 0.30530 0.39390 0.93000
C 	C 	0.61480 0.63171 0.30009 0.28600
C 	C 	0.61715 0.63794 0.26579 -0.01000
C 	C 	0.63770 0.66473 0.25572 -0.13600
H 	H 	0.63490 0.68220 0.26970 0.01500
H 	H 	0.63190 0.67120 0.23490 0.02400
C 	C 	0.67172 0.65440 0.25620 0.02200
C 	C 	0.68350 0.62590 0.25070 -0.03000
H 	H 	0.67120 0.60850 0.24570 0.06500
C 	C 	0.71830 0.62500 0.25330 -0.00700
H 	H 	0.73040 0.60710 0.25020 0.01100
C 	C 	0.73020 0.65280 0.26070 -0.02300
H 	H 	0.75150 0.65670 0.26350 -0.03700
S 	S 	0.70123 0.68055 0.26460 -0.05500
C 	C 	0.60007 0.61982 0.24652 -0.12000
H 	H 	0.58680 0.60540 0.25620 0.09800
C 	C 	0.59969 0.61984 0.21264 0.07900
C 	C 	0.62212 0.62629 0.19055 -0.08600
H 	H 	0.64190 0.63450 0.19490 0.05100
C 	C 	0.58201 0.60754 0.16460 0.10300
C 	C 	0.54624 0.59240 0.20830 -0.02000
C 	C 	0.55104 0.55717 0.20929 0.10200
C 	C 	0.58087 0.54374 0.20889 -0.16000
H 	H 	0.59850 0.55670 0.20880 0.11000
C 	C 	0.58461 0.51170 0.20861 0.10100
H 	H 	0.60470 0.50310 0.20830 0.02900
C 	C 	0.55872 0.49216 0.20883 -0.17500
C 	C 	0.52899 0.50536 0.21012 0.09200
H 	H 	0.51140 0.49240 0.21110 -0.02000
C 	C 	0.52529 0.53732 0.20996 -0.16800
H 	H 	0.50520 0.54580 0.21030 0.05800
C 	C 	0.56265 0.45775 0.20684 0.43300
C 	C 	0.56112 0.59718 0.13852 -0.09400
H 	H 	0.54930 0.57910 0.14520 -0.08100
H 	H 	0.57380 0.59110 0.12090 -0.03100
C 	C 	0.53800 0.62370 0.12900 -0.44600
H 	H 	0.54960 0.64230 0.12270 -0.34900
H 	H 	0.52470 0.62920 0.14670 0.05500
C 	C 	0.51760 0.61170 0.10130 -1.91800
H 	H 	0.50930 0.59110 0.10640 0.51800
H 	H 	0.49990 0.62580 0.09830 0.53300
C 	C 	0.53640 0.60970 0.07060 0.68900
H 	H 	0.52310 0.60230 0.05400 -0.21900
H 	H 	0.54430 0.63020 0.06530 1.26300
H 	H 	0.55370 0.59550 0.07330 -0.71600
N 	N 	0.61119 0.61888 0.16090 -0.25400
N 	N 	0.57414 0.60794 0.19531 -0.14000
O 	O 	0.62671 0.65084 0.31940 -0.38600
O 	O 	0.60118 0.60741 0.31055 -0.38900
O 	O 	0.59183 0.44883 0.20515 -0.52200
H 	H 	0.59740 0.43040 0.20190 0.33100
O 	O 	0.54078 0.43897 0.20711 -0.30000
H 	H 	0.63110 0.68330 0.26670 0.04700
H 	H 	0.63430 0.66830 0.23370 -0.00600
C 	C 	0.67240 0.66040 0.26050 0.02500
C 	C 	0.69440 0.67990 0.27120 -0.03300
H 	H 	0.69050 0.70040 0.27750 0.04800
C 	C 	0.72600 0.66480 0.27170 -0.01500
H 	H 	0.74420 0.67480 0.27860 -0.00500
C 	C 	0.72540 0.63530 0.26110 -0.02200
H 	H 	0.74280 0.62230 0.25950 -0.04200
S 	S 	0.68822 0.62477 0.25103 -0.04900
H 	H 	0.54200 0.58910 0.14740 0.14100
H 	H 	0.57130 0.58010 0.12780 0.07300
C 	C 	0.55140 0.62330 0.11530 0.02900
H 	H 	0.56980 0.63480 0.10840 -0.01400
H 	H 	0.53730 0.63790 0.12550 0.59500
C 	C 	0.53480 0.60770 0.08660 1.84000
H 	H 	0.54910 0.59300 0.07660 -0.04500
H 	H 	0.51660 0.59600 0.09370 -0.06500
C 	C 	0.52450 0.63260 0.06270 -5.68300
H 	H 	0.51430 0.62260 0.04520 1.75000
H 	H 	0.51010 0.64700 0.07250 1.71800
H 	H 	0.54260 0.64390 0.05530 0.93000
C 	C 	0.11480 0.13171 0.80009 0.28600
C 	C 	0.11715 0.13794 0.76579 -0.01000
C 	C 	0.13770 0.16473 0.75572 -0.13600
H 	H 	0.13490 0.18220 0.76970 0.01500
H 	H 	0.13190 0.17120 0.73490 0.02400
C 	C 	0.17172 0.15440 0.75620 0.02200
C 	C 	0.18350 0.12590 0.75070 -0.03000
H 	H 	0.17120 0.10850 0.74570 0.06500
C 	C 	0.21830 0.12500 0.75330 -0.00700
H 	H 	0.23040 0.10710 0.75020 0.01100
C 	C 	0.23020 0.15280 0.76070 -0.02300
H 	H 	0.25150 0.15670 0.76350 -0.03700
S 	S 	0.20123 0.18055 0.76460 -0.05500
C 	C 	0.10007 0.11982 0.74652 -0.12000
H 	H 	0.08680 0.10540 0.75620 0.09800
C 	C 	0.09969 0.11984 0.71264 0.07900
C 	C 	0.12212 0.12629 0.69055 -0.08600
H 	H 	0.14190 0.13450 0.69490 0.05100
C 	C 	0.08201 0.10754 0.66460 0.10300
C 	C 	0.04624 0.09240 0.70830 -0.02000
C 	C 	0.05104 0.05717 0.70929 0.10200
C 	C 	0.08087 0.04374 0.70889 -0.16000
H 	H 	0.09850 0.05670 0.70880 0.11000
C 	C 	0.08461 0.01170 0.70861 0.10100
H 	H 	0.10470 0.00310 0.70830 0.02900
C 	C 	0.05872 0.99216 0.70883 -0.17400
C 	C 	0.02899 0.00536 0.71012 0.09200
H 	H 	0.01140 0.99240 0.71110 -0.02000
C 	C 	0.02529 0.03732 0.70996 -0.16800
H 	H 	0.00520 0.04580 0.71030 0.05800
C 	C 	0.06265 0.95775 0.70684 0.43300
C 	C 	0.06112 0.09718 0.63852 -0.09400
H 	H 	0.04930 0.07910 0.64520 -0.08100
H 	H 	0.07380 0.09110 0.62090 -0.03100
C 	C 	0.03800 0.12370 0.62900 -0.44600
H 	H 	0.04960 0.14230 0.62270 -0.34900
H 	H 	0.02470 0.12920 0.64670 0.05500
C 	C 	0.01760 0.11170 0.60130 -1.91800
H 	H 	0.00930 0.09110 0.60640 0.51800
H 	H 	0.99990 0.12580 0.59830 0.53300
C 	C 	0.03640 0.10970 0.57060 0.68900
H 	H 	0.02310 0.10230 0.55400 -0.21900
H 	H 	0.04430 0.13020 0.56530 1.26300
H 	H 	0.05370 0.09550 0.57330 -0.71600
N 	N 	0.11119 0.11888 0.66090 -0.25400
N 	N 	0.07414 0.10794 0.69531 -0.14000
O 	O 	0.12671 0.15084 0.81940 -0.38600
O 	O 	0.10118 0.10741 0.81055 -0.38900
O 	O 	0.09183 0.94883 0.70515 -0.52200
H 	H 	0.09740 0.93040 0.70190 0.33100
O 	O 	0.04078 0.93897 0.70711 -0.30000
H 	H 	0.13110 0.18330 0.76670 0.04700
H 	H 	0.13430 0.16830 0.73370 -0.00600
C 	C 	0.17240 0.16040 0.76050 0.02500
C 	C 	0.19440 0.17990 0.77120 -0.03300
H 	H 	0.19050 0.20040 0.77750 0.04800
C 	C 	0.22600 0.16480 0.77170 -0.01500
H 	H 	0.24420 0.17480 0.77860 -0.00500
C 	C 	0.22540 0.13530 0.76110 -0.02200
H 	H 	0.24280 0.12230 0.75950 -0.04200
S 	S 	0.18822 0.12477 0.75103 -0.04900
H 	H 	0.04200 0.08910 0.64740 0.14100
H 	H 	0.07130 0.08010 0.62780 0.07300
C 	C 	0.05140 0.12330 0.61530 0.02900
H 	H 	0.06980 0.13480 0.60840 -0.01400
H 	H 	0.03730 0.13790 0.62550 0.59500
C 	C 	0.03480 0.10770 0.58660 1.84000
H 	H 	0.04910 0.09300 0.57660 -0.04500
H 	H 	0.01660 0.09600 0.59370 -0.06500
C 	C 	0.02450 0.13260 0.56270 -5.68300
H 	H 	0.01430 0.12260 0.54520 1.75000
H 	H 	0.01010 0.14700 0.57250 1.71800
H 	H 	0.04260 0.14390 0.55530 0.93000
C 	C 	0.88520 0.36829 0.80009 0.28600
C 	C 	0.88285 0.36206 0.76579 -0.01000
C 	C 	0.86230 0.33527 0.75572 -0.13600
H 	H 	0.86510 0.31780 0.76970 0.01500
H 	H 	0.86810 0.32880 0.73490 0.02400
C 	C 	0.82828 0.34560 0.75620 0.02200
C 	C 	0.81650 0.37410 0.75070 -0.03000
H 	H 	0.82880 0.39150 0.74570 0.06500
C 	C 	0.78170 0.37500 0.75330 -0.00700
H 	H 	0.76960 0.39290 0.75020 0.01100
C 	C 	0.76980 0.34720 0.76070 -0.02300
H 	H 	0.74850 0.34330 0.76350 -0.03700
S 	S 	0.79877 0.31945 0.76460 -0.05500
C 	C 	0.89993 0.38018 0.74652 -0.12000
H 	H 	0.91320 0.39460 0.75620 0.09800
C 	C 	0.90031 0.38016 0.71264 0.07900
C 	C 	0.87788 0.37371 0.69055 -0.08600
H 	H 	0.85810 0.36550 0.69490 0.05100
C 	C 	0.91799 0.39246 0.66460 0.10300
C 	C 	0.95376 0.40760 0.70830 -0.02000
C 	C 	0.94896 0.44283 0.70929 0.10200
C 	C 	0.91913 0.45626 0.70889 -0.16000
H 	H 	0.90150 0.44330 0.70880 0.11000
C 	C 	0.91539 0.48830 0.70861 0.10100
H 	H 	0.89530 0.49690 0.70830 0.02900
C 	C 	0.94128 0.50784 0.70883 -0.17400
C 	C 	0.97101 0.49464 0.71012 0.09200
H 	H 	0.98860 0.50760 0.71110 -0.02000
C 	C 	0.97471 0.46268 0.70996 -0.16800
H 	H 	0.99480 0.45420 0.71030 0.05800
C 	C 	0.93735 0.54225 0.70684 0.43300
C 	C 	0.93888 0.40282 0.63852 -0.09400
H 	H 	0.95070 0.42090 0.64520 -0.08100
H 	H 	0.92620 0.40890 0.62090 -0.03100
C 	C 	0.96200 0.37630 0.62900 -0.44600
H 	H 	0.95040 0.35770 0.62270 -0.34900
H 	H 	0.97530 0.37080 0.64670 0.05500
C 	C 	0.98240 0.38830 0.60130 -1.91800
H 	H 	0.99070 0.40890 0.60640 0.51800
H 	H 	0.00010 0.37420 0.59830 0.53300
C 	C 	0.96360 0.39030 0.57060 0.68900
H 	H 	0.97690 0.39770 0.55400 -0.21900
H 	H 	0.95570 0.36980 0.56530 1.26300
H 	H 	0.94630 0.40450 0.57330 -0.71600
N 	N 	0.88881 0.38112 0.66090 -0.25400
N 	N 	0.92586 0.39206 0.69531 -0.14000
O 	O 	0.87329 0.34916 0.81940 -0.38600
O 	O 	0.89882 0.39259 0.81055 -0.38900
O 	O 	0.90817 0.55117 0.70515 -0.52200
H 	H 	0.90260 0.56960 0.70190 0.33100
O 	O 	0.95922 0.56103 0.70711 -0.30000
H 	H 	0.86890 0.31670 0.76670 0.04700
H 	H 	0.86570 0.33170 0.73370 -0.00600
C 	C 	0.82760 0.33960 0.76050 0.02500
C 	C 	0.80560 0.32010 0.77120 -0.03300
H 	H 	0.80950 0.29960 0.77750 0.04800
C 	C 	0.77400 0.33520 0.77170 -0.01500
H 	H 	0.75580 0.32520 0.77860 -0.00500
C 	C 	0.77460 0.36470 0.76110 -0.02200
H 	H 	0.75720 0.37770 0.75950 -0.04200
S 	S 	0.81178 0.37523 0.75103 -0.04900
H 	H 	0.95800 0.41090 0.64740 0.14100
H 	H 	0.92870 0.41990 0.62780 0.07300
C 	C 	0.94860 0.37670 0.61530 0.02900
H 	H 	0.93020 0.36520 0.60840 -0.01400
H 	H 	0.96270 0.36210 0.62550 0.59500
C 	C 	0.96520 0.39230 0.58660 1.84000
H 	H 	0.95090 0.40700 0.57660 -0.04500
H 	H 	0.98340 0.40400 0.59370 -0.06500
C 	C 	0.97550 0.36740 0.56270 -5.68300
H 	H 	0.98570 0.37740 0.54520 1.75000
H 	H 	0.98990 0.35300 0.57250 1.71800
H 	H 	0.95740 0.35610 0.55530 0.93000
C 	C 	0.38520 0.86829 0.30009 0.28600
C 	C 	0.38285 0.86206 0.26579 -0.01000
C 	C 	0.36230 0.83527 0.25572 -0.13600
H 	H 	0.36510 0.81780 0.26970 0.01500
H 	H 	0.36810 0.82880 0.23490 0.02400
C 	C 	0.32828 0.84560 0.25620 0.02200
C 	C 	0.31650 0.87410 0.25070 -0.03000
H 	H 	0.32880 0.89150 0.24570 0.06500
C 	C 	0.28170 0.87500 0.25330 -0.00700
H 	H 	0.26960 0.89290 0.25020 0.01100
C 	C 	0.26980 0.84720 0.26070 -0.02300
H 	H 	0.24850 0.84330 0.26350 -0.03700
S 	S 	0.29877 0.81945 0.26460 -0.05500
C 	C 	0.39993 0.88018 0.24652 -0.12000
H 	H 	0.41320 0.89460 0.25620 0.09800
C 	C 	0.40031 0.88016 0.21264 0.07900
C 	C 	0.37788 0.87371 0.19055 -0.08600
H 	H 	0.35810 0.86550 0.19490 0.05100
C 	C 	0.41799 0.89246 0.16460 0.10300
C 	C 	0.45376 0.90760 0.20830 -0.02000
C 	C 	0.44896 0.94283 0.20929 0.10200
C 	C 	0.41913 0.95626 0.20889 -0.16000
H 	H 	0.40150 0.94330 0.20880 0.11000
C 	C 	0.41539 0.98830 0.20861 0.10100
H 	H 	0.39530 0.99690 0.20830 0.02900
C 	C 	0.44128 0.00784 0.20883 -0.17400
C 	C 	0.47101 0.99464 0.21012 0.09200
H 	H 	0.48860 0.00760 0.21110 -0.02000
C 	C 	0.47471 0.96268 0.20996 -0.16800
H 	H 	0.49480 0.95420 0.21030 0.05800
C 	C 	0.43735 0.04225 0.20684 0.43300
C 	C 	0.43888 0.90282 0.13852 -0.09400
H 	H 	0.45070 0.92090 0.14520 -0.08100
H 	H 	0.42620 0.90890 0.12090 -0.03100
C 	C 	0.46200 0.87630 0.12900 -0.44600
H 	H 	0.45040 0.85770 0.12270 -0.34900
H 	H 	0.47530 0.87080 0.14670 0.05500
C 	C 	0.48240 0.88830 0.10130 -1.91800
H 	H 	0.49070 0.90890 0.10640 0.51800
H 	H 	0.50010 0.87420 0.09830 0.53300
C 	C 	0.46360 0.89030 0.07060 0.68900
H 	H 	0.47690 0.89770 0.05400 -0.21900
H 	H 	0.45570 0.86980 0.06530 1.26300
H 	H 	0.44630 0.90450 0.07330 -0.71600
N 	N 	0.38881 0.88112 0.16090 -0.25400
N 	N 	0.42586 0.89206 0.19531 -0.14000
O 	O 	0.37329 0.84916 0.31940 -0.38600
O 	O 	0.39882 0.89259 0.31055 -0.38900
O 	O 	0.40817 0.05117 0.20515 -0.52200
H 	H 	0.40260 0.06960 0.20190 0.33100
O 	O 	0.45922 0.06103 0.20711 -0.30000
H 	H 	0.36890 0.81670 0.26670 0.04700
H 	H 	0.36570 0.83170 0.23370 -0.00600
C 	C 	0.32760 0.83960 0.26050 0.02500
C 	C 	0.30560 0.82010 0.27120 -0.03300
H 	H 	0.30950 0.79960 0.27750 0.04800
C 	C 	0.27400 0.83520 0.27170 -0.01500
H 	H 	0.25580 0.82520 0.27860 -0.00500
C 	C 	0.27460 0.86470 0.26110 -0.02200
H 	H 	0.25720 0.87770 0.25950 -0.04200
S 	S 	0.31178 0.87523 0.25103 -0.04900
H 	H 	0.45800 0.91090 0.14740 0.14100
H 	H 	0.42870 0.91990 0.12780 0.07300
C 	C 	0.44860 0.87670 0.11530 0.02900
H 	H 	0.43020 0.86520 0.10840 -0.01400
H 	H 	0.46270 0.86210 0.12550 0.59500
C 	C 	0.46520 0.89230 0.08660 1.84000
H 	H 	0.45090 0.90700 0.07660 -0.04500
H 	H 	0.48340 0.90400 0.09370 -0.06500
C 	C 	0.47550 0.86740 0.06270 -5.68300
H 	H 	0.48570 0.87740 0.04520 1.75000
H 	H 	0.48990 0.85300 0.07250 1.71800
H 	H 	0.45740 0.85610 0.05530 0.93000
C 	C 	0.11480 0.86829 0.69991 0.28600
C 	C 	0.11715 0.86206 0.73421 -0.01000
C 	C 	0.13770 0.83527 0.74428 -0.13600
H 	H 	0.13490 0.81780 0.73030 0.01500
H 	H 	0.13190 0.82880 0.76510 0.02400
C 	C 	0.17172 0.84560 0.74380 0.02200
C 	C 	0.18350 0.87410 0.74930 -0.03000
H 	H 	0.17120 0.89150 0.75430 0.06500
C 	C 	0.21830 0.87500 0.74670 -0.00700
H 	H 	0.23040 0.89290 0.74980 0.01100
C 	C 	0.23020 0.84720 0.73930 -0.02300
H 	H 	0.25150 0.84330 0.73650 -0.03700
S 	S 	0.20123 0.81945 0.73540 -0.05500
C 	C 	0.10007 0.88018 0.75348 -0.12000
H 	H 	0.08680 0.89460 0.74380 0.09800
C 	C 	0.09969 0.88016 0.78736 0.07900
C 	C 	0.12212 0.87371 0.80945 -0.08600
H 	H 	0.14190 0.86550 0.80510 0.05100
C 	C 	0.08201 0.89246 0.83540 0.10300
C 	C 	0.04624 0.90760 0.79170 -0.02000
C 	C 	0.05104 0.94283 0.79071 0.10200
C 	C 	0.08087 0.95626 0.79111 -0.16000
H 	H 	0.09850 0.94330 0.79120 0.11000
C 	C 	0.08461 0.98830 0.79139 0.10100
H 	H 	0.10470 0.99690 0.79170 0.02900
C 	C 	0.05872 0.00784 0.79117 -0.17400
C 	C 	0.02899 0.99464 0.78988 0.09200
H 	H 	0.01140 0.00760 0.78890 -0.02000
C 	C 	0.02529 0.96268 0.79004 -0.16800
H 	H 	0.00520 0.95420 0.78970 0.05800
C 	C 	0.06265 0.04225 0.79316 0.43300
C 	C 	0.06112 0.90282 0.86148 -0.09400
H 	H 	0.04930 0.92090 0.85480 -0.08100
H 	H 	0.07380 0.90890 0.87910 -0.03100
C 	C 	0.03800 0.87630 0.87100 -0.44600
H 	H 	0.04960 0.85770 0.87730 -0.34900
H 	H 	0.02470 0.87080 0.85330 0.05500
C 	C 	0.01760 0.88830 0.89870 -1.91800
H 	H 	0.00930 0.90890 0.89360 0.51800
H 	H 	0.99990 0.87420 0.90170 0.53300
C 	C 	0.03640 0.89030 0.92940 0.68900
H 	H 	0.02310 0.89770 0.94600 -0.21900
H 	H 	0.04430 0.86980 0.93470 1.26300
H 	H 	0.05370 0.90450 0.92670 -0.71600
N 	N 	0.11119 0.88112 0.83910 -0.25400
N 	N 	0.07414 0.89206 0.80469 -0.14000
O 	O 	0.12671 0.84916 0.68060 -0.38600
O 	O 	0.10118 0.89259 0.68945 -0.38900
O 	O 	0.09183 0.05117 0.79485 -0.52200
H 	H 	0.09740 0.06960 0.79810 0.33100
O 	O 	0.04078 0.06103 0.79289 -0.30000
H 	H 	0.13110 0.81670 0.73330 0.04700
H 	H 	0.13430 0.83170 0.76630 -0.00600
C 	C 	0.17240 0.83960 0.73950 0.02500
C 	C 	0.19440 0.82010 0.72880 -0.03300
H 	H 	0.19050 0.79960 0.72250 0.04800
C 	C 	0.22600 0.83520 0.72830 -0.01500
H 	H 	0.24420 0.82520 0.72140 -0.00500
C 	C 	0.22540 0.86470 0.73890 -0.02200
H 	H 	0.24280 0.87770 0.74050 -0.04200
S 	S 	0.18822 0.87523 0.74897 -0.04900
H 	H 	0.04200 0.91090 0.85260 0.14100
H 	H 	0.07130 0.91990 0.87220 0.07300
C 	C 	0.05140 0.87670 0.88470 0.02900
H 	H 	0.06980 0.86520 0.89160 -0.01400
H 	H 	0.03730 0.86210 0.87450 0.59500
C 	C 	0.03480 0.89230 0.91340 1.84000
H 	H 	0.04910 0.90700 0.92340 -0.04500
H 	H 	0.01660 0.90400 0.90630 -0.06500
C 	C 	0.02450 0.86740 0.93730 -5.68300
H 	H 	0.01430 0.87740 0.95480 1.75000
H 	H 	0.01010 0.85300 0.92750 1.71800
H 	H 	0.04260 0.85610 0.94470 0.93000
C 	C 	0.61480 0.36829 0.19991 0.28600
C 	C 	0.61715 0.36206 0.23421 -0.01000
C 	C 	0.63770 0.33527 0.24428 -0.13600
H 	H 	0.63490 0.31780 0.23030 0.01500
H 	H 	0.63190 0.32880 0.26510 0.02400
C 	C 	0.67172 0.34560 0.24380 0.02200
C 	C 	0.68350 0.37410 0.24930 -0.03000
H 	H 	0.67120 0.39150 0.25430 0.06500
C 	C 	0.71830 0.37500 0.24670 -0.00700
H 	H 	0.73040 0.39290 0.24980 0.01100
C 	C 	0.73020 0.34720 0.23930 -0.02300
H 	H 	0.75150 0.34330 0.23650 -0.03700
S 	S 	0.70123 0.31945 0.23540 -0.05500
C 	C 	0.60007 0.38018 0.25348 -0.12000
H 	H 	0.58680 0.39460 0.24380 0.09800
C 	C 	0.59969 0.38016 0.28736 0.07900
C 	C 	0.62212 0.37371 0.30945 -0.08600
H 	H 	0.64190 0.36550 0.30510 0.05100
C 	C 	0.58201 0.39246 0.33540 0.10300
C 	C 	0.54624 0.40760 0.29170 -0.02000
C 	C 	0.55104 0.44283 0.29071 0.10200
C 	C 	0.58087 0.45626 0.29111 -0.16000
H 	H 	0.59850 0.44330 0.29120 0.11000
C 	C 	0.58461 0.48830 0.29139 0.10100
H 	H 	0.60470 0.49690 0.29170 0.02900
C 	C 	0.55872 0.50784 0.29117 -0.17500
C 	C 	0.52899 0.49464 0.28988 0.09200
H 	H 	0.51140 0.50760 0.28890 -0.02000
C 	C 	0.52529 0.46268 0.29004 -0.16800
H 	H 	0.50520 0.45420 0.28970 0.05800
C 	C 	0.56265 0.54225 0.29316 0.43300
C 	C 	0.56112 0.40282 0.36148 -0.09400
H 	H 	0.54930 0.42090 0.35480 -0.08100
H 	H 	0.57380 0.40890 0.37910 -0.03100
C 	C 	0.53800 0.37630 0.37100 -0.44600
H 	H 	0.54960 0.35770 0.37730 -0.34900
H 	H 	0.52470 0.37080 0.35330 0.05500
C 	C 	0.51760 0.38830 0.39870 -1.91800
H 	H 	0.50930 0.40890 0.39360 0.51800
H 	H 	0.49990 0.37420 0.40170 0.53300
C 	C 	0.53640 0.39030 0.42940 0.68900
H 	H 	0.52310 0.39770 0.44600 -0.21900
H 	H 	0.54430 0.36980 0.43470 1.26300
H 	H 	0.55370 0.40450 0.42670 -0.71600
N 	N 	0.61119 0.38112 0.33910 -0.25400
N 	N 	0.57414 0.39206 0.30469 -0.14000
O 	O 	0.62671 0.34916 0.18060 -0.38600
O 	O 	0.60118 0.39259 0.18945 -0.38900
O 	O 	0.59183 0.55117 0.29485 -0.52200
H 	H 	0.59740 0.56960 0.29810 0.33100
O 	O 	0.54078 0.56103 0.29289 -0.30000
H 	H 	0.63110 0.31670 0.23330 0.04700
H 	H 	0.63430 0.33170 0.26630 -0.00600
C 	C 	0.67240 0.33960 0.23950 0.02500
C 	C 	0.69440 0.32010 0.22880 -0.03300
H 	H 	0.69050 0.29960 0.22250 0.04800
C 	C 	0.72600 0.33520 0.22830 -0.01500
H 	H 	0.74420 0.32520 0.22140 -0.00500
C 	C 	0.72540 0.36470 0.23890 -0.02200
H 	H 	0.74280 0.37770 0.24050 -0.04200
S 	S 	0.68822 0.37523 0.24897 -0.04900
H 	H 	0.54200 0.41090 0.35260 0.14100
H 	H 	0.57130 0.41990 0.37220 0.07300
C 	C 	0.55140 0.37670 0.38470 0.02900
H 	H 	0.56980 0.36520 0.39160 -0.01400
H 	H 	0.53730 0.36210 0.37450 0.59500
C 	C 	0.53480 0.39230 0.41340 1.84000
H 	H 	0.54910 0.40700 0.42340 -0.04500
H 	H 	0.51660 0.40400 0.40630 -0.06500
C 	C 	0.52450 0.36740 0.43730 -5.68300
H 	H 	0.51430 0.37740 0.45480 1.75000
H 	H 	0.51010 0.35300 0.42750 1.71800
H 	H 	0.54260 0.35610 0.44470 0.93000
C 	C 	0.38520 0.13171 0.19991 0.28600
C 	C 	0.38285 0.13794 0.23421 -0.01000
C 	C 	0.36230 0.16473 0.24428 -0.13600
H 	H 	0.36510 0.18220 0.23030 0.01500
H 	H 	0.36810 0.17120 0.26510 0.02400
C 	C 	0.32828 0.15440 0.24380 0.02200
C 	C 	0.31650 0.12590 0.24930 -0.03000
H 	H 	0.32880 0.10850 0.25430 0.06500
C 	C 	0.28170 0.12500 0.24670 -0.00700
H 	H 	0.26960 0.10710 0.24980 0.01100
C 	C 	0.26980 0.15280 0.23930 -0.02300
H 	H 	0.24850 0.15670 0.23650 -0.03700
S 	S 	0.29877 0.18055 0.23540 -0.05500
C 	C 	0.39993 0.11982 0.25348 -0.12000
H 	H 	0.41320 0.10540 0.24380 0.09800
C 	C 	0.40031 0.11984 0.28736 0.07900
C 	C 	0.37788 0.12629 0.30945 -0.08600
H 	H 	0.35810 0.13450 0.30510 0.05100
C 	C 	0.41799 0.10754 0.33540 0.10300
C 	C 	0.45376 0.09240 0.29170 -0.02000
C 	C 	0.44896 0.05717 0.29071 0.10200
C 	C 	0.41913 0.04374 0.29111 -0.16000
H 	H 	0.40150 0.05670 0.29120 0.11000
C 	C 	0.41539 0.01170 0.29139 0.10100
H 	H 	0.39530 0.00310 0.29170 0.02900
C 	C 	0.44128 0.99216 0.29117 -0.17400
C 	C 	0.47101 0.00536 0.28988 0.09200
H 	H 	0.48860 0.99240 0.28890 -0.02000
C 	C 	0.47471 0.03732 0.29004 -0.16800
H 	H 	0.49480 0.04580 0.28970 0.05800
C 	C 	0.43735 0.95775 0.29316 0.43300
C 	C 	0.43888 0.09718 0.36148 -0.09400
H 	H 	0.45070 0.07910 0.35480 -0.08100
H 	H 	0.42620 0.09110 0.37910 -0.03100
C 	C 	0.46200 0.12370 0.37100 -0.44600
H 	H 	0.45040 0.14230 0.37730 -0.34900
H 	H 	0.47530 0.12920 0.35330 0.05500
C 	C 	0.48240 0.11170 0.39870 -1.91800
H 	H 	0.49070 0.09110 0.39360 0.51800
H 	H 	0.50010 0.12580 0.40170 0.53300
C 	C 	0.46360 0.10970 0.42940 0.68900
H 	H 	0.47690 0.10230 0.44600 -0.21900
H 	H 	0.45570 0.13020 0.43470 1.26300
H 	H 	0.44630 0.09550 0.42670 -0.71600
N 	N 	0.38881 0.11888 0.33910 -0.25400
N 	N 	0.42586 0.10794 0.30469 -0.14000
O 	O 	0.37329 0.15084 0.18060 -0.38600
O 	O 	0.39882 0.10741 0.18945 -0.38900
O 	O 	0.40817 0.94883 0.29485 -0.52200
H 	H 	0.40260 0.93040 0.29810 0.33100
O 	O 	0.45922 0.93897 0.29289 -0.30000
H 	H 	0.36890 0.18330 0.23330 0.04700
H 	H 	0.36570 0.16830 0.26630 -0.00600
C 	C 	0.32760 0.16040 0.23950 0.02500
C 	C 	0.30560 0.17990 0.22880 -0.03300
H 	H 	0.30950 0.20040 0.22250 0.04800
C 	C 	0.27400 0.16480 0.22830 -0.01500
H 	H 	0.25580 0.17480 0.22140 -0.00500
C 	C 	0.27460 0.13530 0.23890 -0.02200
H 	H 	0.25720 0.12230 0.24050 -0.04200
S 	S 	0.31178 0.12477 0.24897 -0.04900
H 	H 	0.45800 0.08910 0.35260 0.14100
H 	H 	0.42870 0.08010 0.37220 0.07300
C 	C 	0.44860 0.12330 0.38470 0.02900
H 	H 	0.43020 0.13480 0.39160 -0.01400
H 	H 	0.46270 0.13790 0.37450 0.59500
C 	C 	0.46520 0.10770 0.41340 1.84000
H 	H 	0.45090 0.09300 0.42340 -0.04500
H 	H 	0.48340 0.09600 0.40630 -0.06500
C 	C 	0.47550 0.13260 0.43730 -5.68300
H 	H 	0.48570 0.12260 0.45480 1.75000
H 	H 	0.48990 0.14700 0.42750 1.71800
H 	H 	0.45740 0.14390 0.44470 0.93000
C 	C 	0.88520 0.63171 0.69991 0.28600
C 	C 	0.88285 0.63794 0.73421 -0.01000
C 	C 	0.86230 0.66473 0.74428 -0.13600
H 	H 	0.86510 0.68220 0.73030 0.01500
H 	H 	0.86810 0.67120 0.76510 0.02400
C 	C 	0.82828 0.65440 0.74380 0.02200
C 	C 	0.81650 0.62590 0.74930 -0.03000
H 	H 	0.82880 0.60850 0.75430 0.06500
C 	C 	0.78170 0.62500 0.74670 -0.00700
H 	H 	0.76960 0.60710 0.74980 0.01100
C 	C 	0.76980 0.65280 0.73930 -0.02300
H 	H 	0.74850 0.65670 0.73650 -0.03700
S 	S 	0.79877 0.68055 0.73540 -0.05500
C 	C 	0.89993 0.61982 0.75348 -0.12000
H 	H 	0.91320 0.60540 0.74380 0.09800
C 	C 	0.90031 0.61984 0.78736 0.07900
C 	C 	0.87788 0.62629 0.80945 -0.08600
H 	H 	0.85810 0.63450 0.80510 0.05100
C 	C 	0.91799 0.60754 0.83540 0.10300
C 	C 	0.95376 0.59240 0.79170 -0.02000
C 	C 	0.94896 0.55717 0.79071 0.10200
C 	C 	0.91913 0.54374 0.79111 -0.16000
H 	H 	0.90150 0.55670 0.79120 0.11000
C 	C 	0.91539 0.51170 0.79139 0.10100
H 	H 	0.89530 0.50310 0.79170 0.02900
C 	C 	0.94128 0.49216 0.79117 -0.17400
C 	C 	0.97101 0.50536 0.78988 0.09200
H 	H 	0.98860 0.49240 0.78890 -0.02000
C 	C 	0.97471 0.53732 0.79004 -0.16800
H 	H 	0.99480 0.54580 0.78970 0.05800
C 	C 	0.93735 0.45775 0.79316 0.43300
C 	C 	0.93888 0.59718 0.86148 -0.09400
H 	H 	0.95070 0.57910 0.85480 -0.08100
H 	H 	0.92620 0.59110 0.87910 -0.03100
C 	C 	0.96200 0.62370 0.87100 -0.44600
H 	H 	0.95040 0.64230 0.87730 -0.34900
H 	H 	0.97530 0.62920 0.85330 0.05500
C 	C 	0.98240 0.61170 0.89870 -1.91800
H 	H 	0.99070 0.59110 0.89360 0.51800
H 	H 	0.00010 0.62580 0.90170 0.53300
C 	C 	0.96360 0.60970 0.92940 0.68900
H 	H 	0.97690 0.60230 0.94600 -0.21900
H 	H 	0.95570 0.63020 0.93470 1.26300
H 	H 	0.94630 0.59550 0.92670 -0.71600
N 	N 	0.88881 0.61888 0.83910 -0.25400
N 	N 	0.92586 0.60794 0.80469 -0.14000
O 	O 	0.87329 0.65084 0.68060 -0.38600
O 	O 	0.89882 0.60741 0.68945 -0.38900
O 	O 	0.90817 0.44883 0.79485 -0.52200
H 	H 	0.90260 0.43040 0.79810 0.33100
O 	O 	0.95922 0.43897 0.79289 -0.30000
H 	H 	0.86890 0.68330 0.73330 0.04700
H 	H 	0.86570 0.66830 0.76630 -0.00600
C 	C 	0.82760 0.66040 0.73950 0.02500
C 	C 	0.80560 0.67990 0.72880 -0.03300
H 	H 	0.80950 0.70040 0.72250 0.04800
C 	C 	0.77400 0.66480 0.72830 -0.01500
H 	H 	0.75580 0.67480 0.72140 -0.00500
C 	C 	0.77460 0.63530 0.73890 -0.02200
H 	H 	0.75720 0.62230 0.74050 -0.04200
S 	S 	0.81178 0.62477 0.74897 -0.04900
H 	H 	0.95800 0.58910 0.85260 0.14100
H 	H 	0.92870 0.58010 0.87220 0.07300
C 	C 	0.94860 0.62330 0.88470 0.02900
H 	H 	0.93020 0.63480 0.89160 -0.01400
H 	H 	0.96270 0.63790 0.87450 0.59500
C 	C 	0.96520 0.60770 0.91340 1.84000
H 	H 	0.95090 0.59300 0.92340 -0.04500
H 	H 	0.98340 0.59600 0.90630 -0.06500
C 	C 	0.97550 0.63260 0.93730 -5.68300
H 	H 	0.98570 0.62260 0.95480 1.75000
H 	H 	0.98990 0.64700 0.92750 1.71800
H 	H 	0.95740 0.64390 0.94470 0.93000
C 	C 	0.13171 0.19991 0.38520 0.28600
C 	C 	0.13794 0.23421 0.38285 -0.01000
C 	C 	0.16473 0.24428 0.36230 -0.13600
H 	H 	0.18220 0.23030 0.36510 0.01500
H 	H 	0.17120 0.26510 0.36810 0.02400
C 	C 	0.15440 0.24380 0.32828 0.02200
C 	C 	0.12590 0.24930 0.31650 -0.03000
H 	H 	0.10850 0.25430 0.32880 0.06500
C 	C 	0.12500 0.24670 0.28170 -0.00700
H 	H 	0.10710 0.24980 0.26960 0.01100
C 	C 	0.15280 0.23930 0.26980 -0.02300
H 	H 	0.15670 0.23650 0.24850 -0.03700
S 	S 	0.18055 0.23540 0.29877 -0.05500
C 	C 	0.11982 0.25348 0.39993 -0.12000
H 	H 	0.10540 0.24380 0.41320 0.09800
C 	C 	0.11984 0.28736 0.40031 0.07900
C 	C 	0.12629 0.30945 0.37788 -0.08600
H 	H 	0.13450 0.30510 0.35810 0.05100
C 	C 	0.10754 0.33540 0.41799 0.10300
C 	C 	0.09240 0.29170 0.45376 -0.02000
C 	C 	0.05717 0.29071 0.44896 0.10200
C 	C 	0.04374 0.29111 0.41913 -0.16000
H 	H 	0.05670 0.29120 0.40150 0.11000
C 	C 	0.01170 0.29139 0.41539 0.10100
H 	H 	0.00310 0.29170 0.39530 0.02900
C 	C 	0.99216 0.29117 0.44128 -0.17400
C 	C 	0.00536 0.28988 0.47101 0.09200
H 	H 	0.99240 0.28890 0.48860 -0.02000
C 	C 	0.03732 0.29004 0.47471 -0.16800
H 	H 	0.04580 0.28970 0.49480 0.05800
C 	C 	0.95775 0.29316 0.43735 0.43300
C 	C 	0.09718 0.36148 0.43888 -0.09400
H 	H 	0.07910 0.35480 0.45070 -0.08100
H 	H 	0.09110 0.37910 0.42620 -0.03100
C 	C 	0.12370 0.37100 0.46200 -0.44600
H 	H 	0.14230 0.37730 0.45040 -0.34900
H 	H 	0.12920 0.35330 0.47530 0.05500
C 	C 	0.11170 0.39870 0.48240 -1.91800
H 	H 	0.09110 0.39360 0.49070 0.51800
H 	H 	0.12580 0.40170 0.50010 0.53300
C 	C 	0.10970 0.42940 0.46360 0.68900
H 	H 	0.10230 0.44600 0.47690 -0.21900
H 	H 	0.13020 0.43470 0.45570 1.26300
H 	H 	0.09550 0.42670 0.44630 -0.71600
N 	N 	0.11888 0.33910 0.38881 -0.25400
N 	N 	0.10794 0.30469 0.42586 -0.14000
O 	O 	0.15084 0.18060 0.37329 -0.38600
O 	O 	0.10741 0.18945 0.39882 -0.38900
O 	O 	0.94883 0.29485 0.40817 -0.52200
H 	H 	0.93040 0.29810 0.40260 0.33100
O 	O 	0.93897 0.29289 0.45922 -0.30000
H 	H 	0.18330 0.23330 0.36890 0.04700
H 	H 	0.16830 0.26630 0.36570 -0.00600
C 	C 	0.16040 0.23950 0.32760 0.02500
C 	C 	0.17990 0.22880 0.30560 -0.03300
H 	H 	0.20040 0.22250 0.30950 0.04800
C 	C 	0.16480 0.22830 0.27400 -0.01500
H 	H 	0.17480 0.22140 0.25580 -0.00500
C 	C 	0.13530 0.23890 0.27460 -0.02200
H 	H 	0.12230 0.24050 0.25720 -0.04200
S 	S 	0.12477 0.24897 0.31178 -0.04900
H 	H 	0.08910 0.35260 0.45800 0.14100
H 	H 	0.08010 0.37220 0.42870 0.07300
C 	C 	0.12330 0.38470 0.44860 0.02900
H 	H 	0.13480 0.39160 0.43020 -0.01400
H 	H 	0.13790 0.37450 0.46270 0.59500
C 	C 	0.10770 0.41340 0.46520 1.84000
H 	H 	0.09300 0.42340 0.45090 -0.04500
H 	H 	0.09600 0.40630 0.48340 -0.06500
C 	C 	0.13260 0.43730 0.47550 -5.68300
H 	H 	0.12260 0.45480 0.48570 1.75000
H 	H 	0.14700 0.42750 0.48990 1.71800
H 	H 	0.14390 0.44470 0.45740 0.93000
C 	C 	0.63171 0.69991 0.88520 0.28600
C 	C 	0.63794 0.73421 0.88285 -0.01000
C 	C 	0.66473 0.74428 0.86230 -0.13600
H 	H 	0.68220 0.73030 0.86510 0.01500
H 	H 	0.67120 0.76510 0.86810 0.02400
C 	C 	0.65440 0.74380 0.82828 0.02200
C 	C 	0.62590 0.74930 0.81650 -0.03000
H 	H 	0.60850 0.75430 0.82880 0.06500
C 	C 	0.62500 0.74670 0.78170 -0.00700
H 	H 	0.60710 0.74980 0.76960 0.01100
C 	C 	0.65280 0.73930 0.76980 -0.02300
H 	H 	0.65670 0.73650 0.74850 -0.03700
S 	S 	0.68055 0.73540 0.79877 -0.05500
C 	C 	0.61982 0.75348 0.89993 -0.12000
H 	H 	0.60540 0.74380 0.91320 0.09800
C 	C 	0.61984 0.78736 0.90031 0.07900
C 	C 	0.62629 0.80945 0.87788 -0.08600
H 	H 	0.63450 0.80510 0.85810 0.05100
C 	C 	0.60754 0.83540 0.91799 0.10300
C 	C 	0.59240 0.79170 0.95376 -0.02000
C 	C 	0.55717 0.79071 0.94896 0.10200
C 	C 	0.54374 0.79111 0.91913 -0.16000
H 	H 	0.55670 0.79120 0.90150 0.11000
C 	C 	0.51170 0.79139 0.91539 0.10100
H 	H 	0.50310 0.79170 0.89530 0.02900
C 	C 	0.49216 0.79117 0.94128 -0.17400
C 	C 	0.50536 0.78988 0.97101 0.09200
H 	H 	0.49240 0.78890 0.98860 -0.02000
C 	C 	0.53732 0.79004 0.97471 -0.16800
H 	H 	0.54580 0.78970 0.99480 0.05800
C 	C 	0.45775 0.79316 0.93735 0.43300
C 	C 	0.59718 0.86148 0.93888 -0.09400
H 	H 	0.57910 0.85480 0.95070 -0.08100
H 	H 	0.59110 0.87910 0.92620 -0.03100
C 	C 	0.62370 0.87100 0.96200 -0.44600
H 	H 	0.64230 0.87730 0.95040 -0.34900
H 	H 	0.62920 0.85330 0.97530 0.05500
C 	C 	0.61170 0.89870 0.98240 -1.91800
H 	H 	0.59110 0.89360 0.99070 0.51800
H 	H 	0.62580 0.90170 0.00010 0.53300
C 	C 	0.60970 0.92940 0.96360 0.68900
H 	H 	0.60230 0.94600 0.97690 -0.21900
H 	H 	0.63020 0.93470 0.95570 1.26300
H 	H 	0.59550 0.92670 0.94630 -0.71600
N 	N 	0.61888 0.83910 0.88881 -0.25400
N 	N 	0.60794 0.80469 0.92586 -0.14000
O 	O 	0.65084 0.68060 0.87329 -0.38600
O 	O 	0.60741 0.68945 0.89882 -0.38900
O 	O 	0.44883 0.79485 0.90817 -0.52200
H 	H 	0.43040 0.79810 0.90260 0.33100
O 	O 	0.43897 0.79289 0.95922 -0.30000
H 	H 	0.68330 0.73330 0.86890 0.04700
H 	H 	0.66830 0.76630 0.86570 -0.00600
C 	C 	0.66040 0.73950 0.82760 0.02500
C 	C 	0.67990 0.72880 0.80560 -0.03300
H 	H 	0.70040 0.72250 0.80950 0.04800
C 	C 	0.66480 0.72830 0.77400 -0.01500
H 	H 	0.67480 0.72140 0.75580 -0.00500
C 	C 	0.63530 0.73890 0.77460 -0.02200
H 	H 	0.62230 0.74050 0.75720 -0.04200
S 	S 	0.62477 0.74897 0.81178 -0.04900
H 	H 	0.58910 0.85260 0.95800 0.14100
H 	H 	0.58010 0.87220 0.92870 0.07300
C 	C 	0.62330 0.88470 0.94860 0.02900
H 	H 	0.63480 0.89160 0.93020 -0.01400
H 	H 	0.63790 0.87450 0.96270 0.59500
C 	C 	0.60770 0.91340 0.96520 1.84000
H 	H 	0.59300 0.92340 0.95090 -0.04500
H 	H 	0.59600 0.90630 0.98340 -0.06500
C 	C 	0.63260 0.93730 0.97550 -5.68300
H 	H 	0.62260 0.95480 0.98570 1.75000
H 	H 	0.64700 0.92750 0.98990 1.71800
H 	H 	0.64390 0.94470 0.95740 0.93000
C 	C 	0.86829 0.69991 0.11480 0.28600
C 	C 	0.86206 0.73421 0.11715 -0.01000
C 	C 	0.83527 0.74428 0.13770 -0.13600
H 	H 	0.81780 0.73030 0.13490 0.01500
H 	H 	0.82880 0.76510 0.13190 0.02400
C 	C 	0.84560 0.74380 0.17172 0.02200
C 	C 	0.87410 0.74930 0.18350 -0.03000
H 	H 	0.89150 0.75430 0.17120 0.06500
C 	C 	0.87500 0.74670 0.21830 -0.00700
H 	H 	0.89290 0.74980 0.23040 0.01100
C 	C 	0.84720 0.73930 0.23020 -0.02300
H 	H 	0.84330 0.73650 0.25150 -0.03700
S 	S 	0.81945 0.73540 0.20123 -0.05500
C 	C 	0.88018 0.75348 0.10007 -0.12000
H 	H 	0.89460 0.74380 0.08680 0.09800
C 	C 	0.88016 0.78736 0.09969 0.07900
C 	C 	0.87371 0.80945 0.12212 -0.08600
H 	H 	0.86550 0.80510 0.14190 0.05100
C 	C 	0.89246 0.83540 0.08201 0.10300
C 	C 	0.90760 0.79170 0.04624 -0.02000
C 	C 	0.94283 0.79071 0.05104 0.10200
C 	C 	0.95626 0.79111 0.08087 -0.16000
H 	H 	0.94330 0.79120 0.09850 0.11000
C 	C 	0.98830 0.79139 0.08461 0.10100
H 	H 	0.99690 0.79170 0.10470 0.02900
C 	C 	0.00784 0.79117 0.05872 -0.17400
C 	C 	0.99464 0.78988 0.02899 0.09200
H 	H 	0.00760 0.78890 0.01140 -0.02000
C 	C 	0.96268 0.79004 0.02529 -0.16800
H 	H 	0.95420 0.78970 0.00520 0.05800
C 	C 	0.04225 0.79316 0.06265 0.43300
C 	C 	0.90282 0.86148 0.06112 -0.09400
H 	H 	0.92090 0.85480 0.04930 -0.08100
H 	H 	0.90890 0.87910 0.07380 -0.03100
C 	C 	0.87630 0.87100 0.03800 -0.44600
H 	H 	0.85770 0.87730 0.04960 -0.34900
H 	H 	0.87080 0.85330 0.02470 0.05500
C 	C 	0.88830 0.89870 0.01760 -1.91800
H 	H 	0.90890 0.89360 0.00930 0.51800
H 	H 	0.87420 0.90170 0.99990 0.53300
C 	C 	0.89030 0.92940 0.03640 0.68900
H 	H 	0.89770 0.94600 0.02310 -0.21900
H 	H 	0.86980 0.93470 0.04430 1.26300
H 	H 	0.90450 0.92670 0.05370 -0.71600
N 	N 	0.88112 0.83910 0.11119 -0.25400
N 	N 	0.89206 0.80469 0.07414 -0.14000
O 	O 	0.84916 0.68060 0.12671 -0.38600
O 	O 	0.89259 0.68945 0.10118 -0.38900
O 	O 	0.05117 0.79485 0.09183 -0.52200
H 	H 	0.06960 0.79810 0.09740 0.33100
O 	O 	0.06103 0.79289 0.04078 -0.30000
H 	H 	0.81670 0.73330 0.13110 0.04700
H 	H 	0.83170 0.76630 0.13430 -0.00600
C 	C 	0.83960 0.73950 0.17240 0.02500
C 	C 	0.82010 0.72880 0.19440 -0.03300
H 	H 	0.79960 0.72250 0.19050 0.04800
C 	C 	0.83520 0.72830 0.22600 -0.01500
H 	H 	0.82520 0.72140 0.24420 -0.00500
C 	C 	0.86470 0.73890 0.22540 -0.02200
H 	H 	0.87770 0.74050 0.24280 -0.04200
S 	S 	0.87523 0.74897 0.18822 -0.04900
H 	H 	0.91090 0.85260 0.04200 0.14100
H 	H 	0.91990 0.87220 0.07130 0.07300
C 	C 	0.87670 0.88470 0.05140 0.02900
H 	H 	0.86520 0.89160 0.06980 -0.01400
H 	H 	0.86210 0.87450 0.03730 0.59500
C 	C 	0.89230 0.91340 0.03480 1.84000
H 	H 	0.90700 0.92340 0.04910 -0.04500
H 	H 	0.90400 0.90630 0.01660 -0.06500
C 	C 	0.86740 0.93730 0.02450 -5.68300
H 	H 	0.87740 0.95480 0.01430 1.75000
H 	H 	0.85300 0.92750 0.01010 1.71800
H 	H 	0.85610 0.94470 0.04260 0.93000
C 	C 	0.36829 0.19991 0.61480 0.28600
C 	C 	0.36206 0.23421 0.61715 -0.01000
C 	C 	0.33527 0.24428 0.63770 -0.13600
H 	H 	0.31780 0.23030 0.63490 0.01500
H 	H 	0.32880 0.26510 0.63190 0.02400
C 	C 	0.34560 0.24380 0.67172 0.02200
C 	C 	0.37410 0.24930 0.68350 -0.03000
H 	H 	0.39150 0.25430 0.67120 0.06500
C 	C 	0.37500 0.24670 0.71830 -0.00700
H 	H 	0.39290 0.24980 0.73040 0.01100
C 	C 	0.34720 0.23930 0.73020 -0.02300
H 	H 	0.34330 0.23650 0.75150 -0.03700
S 	S 	0.31945 0.23540 0.70123 -0.05500
C 	C 	0.38018 0.25348 0.60007 -0.12000
H 	H 	0.39460 0.24380 0.58680 0.09800
C 	C 	0.38016 0.28736 0.59969 0.07900
C 	C 	0.37371 0.30945 0.62212 -0.08600
H 	H 	0.36550 0.30510 0.64190 0.05100
C 	C 	0.39246 0.33540 0.58201 0.10300
C 	C 	0.40760 0.29170 0.54624 -0.02000
C 	C 	0.44283 0.29071 0.55104 0.10200
C 	C 	0.45626 0.29111 0.58087 -0.16000
H 	H 	0.44330 0.29120 0.59850 0.11000
C 	C 	0.48830 0.29139 0.58461 0.10100
H 	H 	0.49690 0.29170 0.60470 0.02900
C 	C 	0.50784 0.29117 0.55872 -0.17500
C 	C 	0.49464 0.28988 0.52899 0.09200
H 	H 	0.50760 0.28890 0.51140 -0.02000
C 	C 	0.46268 0.29004 0.52529 -0.16800
H 	H 	0.45420 0.28970 0.50520 0.05800
C 	C 	0.54225 0.29316 0.56265 0.43300
C 	C 	0.40282 0.36148 0.56112 -0.09400
H 	H 	0.42090 0.35480 0.54930 -0.08100
H 	H 	0.40890 0.37910 0.57380 -0.03100
C 	C 	0.37630 0.37100 0.53800 -0.44600
H 	H 	0.35770 0.37730 0.54960 -0.34900
H 	H 	0.37080 0.35330 0.52470 0.05500
C 	C 	0.38830 0.39870 0.51760 -1.91800
H 	H 	0.40890 0.39360 0.50930 0.51800
H 	H 	0.37420 0.40170 0.49990 0.53300
C 	C 	0.39030 0.42940 0.53640 0.68900
H 	H 	0.39770 0.44600 0.52310 -0.21900
H 	H 	0.36980 0.43470 0.54430 1.26300
H 	H 	0.40450 0.42670 0.55370 -0.71600
N 	N 	0.38112 0.33910 0.61119 -0.25400
N 	N 	0.39206 0.30469 0.57414 -0.14000
O 	O 	0.34916 0.18060 0.62671 -0.38600
O 	O 	0.39259 0.18945 0.60118 -0.38900
O 	O 	0.55117 0.29485 0.59183 -0.52200
H 	H 	0.56960 0.29810 0.59740 0.33100
O 	O 	0.56103 0.29289 0.54078 -0.30000
H 	H 	0.31670 0.23330 0.63110 0.04700
H 	H 	0.33170 0.26630 0.63430 -0.00600
C 	C 	0.33960 0.23950 0.67240 0.02500
C 	C 	0.32010 0.22880 0.69440 -0.03300
H 	H 	0.29960 0.22250 0.69050 0.04800
C 	C 	0.33520 0.22830 0.72600 -0.01500
H 	H 	0.32520 0.22140 0.74420 -0.00500
C 	C 	0.36470 0.23890 0.72540 -0.02200
H 	H 	0.37770 0.24050 0.74280 -0.04200
S 	S 	0.37523 0.24897 0.68822 -0.04900
H 	H 	0.41090 0.35260 0.54200 0.14100
H 	H 	0.41990 0.37220 0.57130 0.07300
C 	C 	0.37670 0.38470 0.55140 0.02900
H 	H 	0.36520 0.39160 0.56980 -0.01400
H 	H 	0.36210 0.37450 0.53730 0.59500
C 	C 	0.39230 0.41340 0.53480 1.84000
H 	H 	0.40700 0.42340 0.54910 -0.04500
H 	H 	0.40400 0.40630 0.51660 -0.06500
C 	C 	0.36740 0.43730 0.52450 -5.68300
H 	H 	0.37740 0.45480 0.51430 1.75000
H 	H 	0.35300 0.42750 0.51010 1.71800
H 	H 	0.35610 0.44470 0.54260 0.93000
C 	C 	0.36829 0.80009 0.88520 0.28600
C 	C 	0.36206 0.76579 0.88285 -0.01000
C 	C 	0.33527 0.75572 0.86230 -0.13600
H 	H 	0.31780 0.76970 0.86510 0.01500
H 	H 	0.32880 0.73490 0.86810 0.02400
C 	C 	0.34560 0.75620 0.82828 0.02200
C 	C 	0.37410 0.75070 0.81650 -0.03000
H 	H 	0.39150 0.74570 0.82880 0.06500
C 	C 	0.37500 0.75330 0.78170 -0.00700
H 	H 	0.39290 0.75020 0.76960 0.01100
C 	C 	0.34720 0.76070 0.76980 -0.02300
H 	H 	0.34330 0.76350 0.74850 -0.03700
S 	S 	0.31945 0.76460 0.79877 -0.05500
C 	C 	0.38018 0.74652 0.89993 -0.12000
H 	H 	0.39460 0.75620 0.91320 0.09800
C 	C 	0.38016 0.71264 0.90031 0.07900
C 	C 	0.37371 0.69055 0.87788 -0.08600
H 	H 	0.36550 0.69490 0.85810 0.05100
C 	C 	0.39246 0.66460 0.91799 0.10300
C 	C 	0.40760 0.70830 0.95376 -0.02000
C 	C 	0.44283 0.70929 0.94896 0.10200
C 	C 	0.45626 0.70889 0.91913 -0.16000
H 	H 	0.44330 0.70880 0.90150 0.11000
C 	C 	0.48830 0.70861 0.91539 0.10100
H 	H 	0.49690 0.70830 0.89530 0.02900
C 	C 	0.50784 0.70883 0.94128 -0.17400
C 	C 	0.49464 0.71012 0.97101 0.09200
H 	H 	0.50760 0.71110 0.98860 -0.02000
C 	C 	0.46268 0.70996 0.97471 -0.16800
H 	H 	0.45420 0.71030 0.99480 0.05800
C 	C 	0.54225 0.70684 0.93735 0.43300
C 	C 	0.40282 0.63852 0.93888 -0.09400
H 	H 	0.42090 0.64520 0.95070 -0.08100
H 	H 	0.40890 0.62090 0.92620 -0.03100
C 	C 	0.37630 0.62900 0.96200 -0.44600
H 	H 	0.35770 0.62270 0.95040 -0.34900
H 	H 	0.37080 0.64670 0.97530 0.05500
C 	C 	0.38830 0.60130 0.98240 -1.91800
H 	H 	0.40890 0.60640 0.99070 0.51800
H 	H 	0.37420 0.59830 0.00010 0.53300
C 	C 	0.39030 0.57060 0.96360 0.68900
H 	H 	0.39770 0.55400 0.97690 -0.21900
H 	H 	0.36980 0.56530 0.95570 1.26300
H 	H 	0.40450 0.57330 0.94630 -0.71600
N 	N 	0.38112 0.66090 0.88881 -0.25400
N 	N 	0.39206 0.69531 0.92586 -0.14000
O 	O 	0.34916 0.81940 0.87329 -0.38600
O 	O 	0.39259 0.81055 0.89882 -0.38900
O 	O 	0.55117 0.70515 0.90817 -0.52200
H 	H 	0.56960 0.70190 0.90260 0.33100
O 	O 	0.56103 0.70711 0.95922 -0.30000
H 	H 	0.31670 0.76670 0.86890 0.04700
H 	H 	0.33170 0.73370 0.86570 -0.00600
C 	C 	0.33960 0.76050 0.82760 0.02500
C 	C 	0.32010 0.77120 0.80560 -0.03300
H 	H 	0.29960 0.77750 0.80950 0.04800
C 	C 	0.33520 0.77170 0.77400 -0.01500
H 	H 	0.32520 0.77860 0.75580 -0.00500
C 	C 	0.36470 0.76110 0.77460 -0.02200
H 	H 	0.37770 0.75950 0.75720 -0.04200
S 	S 	0.37523 0.75103 0.81178 -0.04900
H 	H 	0.41090 0.64740 0.95800 0.14100
H 	H 	0.41990 0.62780 0.92870 0.07300
C 	C 	0.37670 0.61530 0.94860 0.02900
H 	H 	0.36520 0.60840 0.93020 -0.01400
H 	H 	0.36210 0.62550 0.96270 0.59500
C 	C 	0.39230 0.58660 0.96520 1.84000
H 	H 	0.40700 0.57660 0.95090 -0.04500
H 	H 	0.40400 0.59370 0.98340 -0.06500
C 	C 	0.36740 0.56270 0.97550 -5.68300
H 	H 	0.37740 0.54520 0.98570 1.75000
H 	H 	0.35300 0.57250 0.98990 1.71800
H 	H 	0.35610 0.55530 0.95740 0.93000
C 	C 	0.86829 0.30009 0.38520 0.28600
C 	C 	0.86206 0.26579 0.38285 -0.01000
C 	C 	0.83527 0.25572 0.36230 -0.13600
H 	H 	0.81780 0.26970 0.36510 0.01500
H 	H 	0.82880 0.23490 0.36810 0.02400
C 	C 	0.84560 0.25620 0.32828 0.02200
C 	C 	0.87410 0.25070 0.31650 -0.03000
H 	H 	0.89150 0.24570 0.32880 0.06500
C 	C 	0.87500 0.25330 0.28170 -0.00700
H 	H 	0.89290 0.25020 0.26960 0.01100
C 	C 	0.84720 0.26070 0.26980 -0.02300
H 	H 	0.84330 0.26350 0.24850 -0.03700
S 	S 	0.81945 0.26460 0.29877 -0.05500
C 	C 	0.88018 0.24652 0.39993 -0.12000
H 	H 	0.89460 0.25620 0.41320 0.09800
C 	C 	0.88016 0.21264 0.40031 0.07900
C 	C 	0.87371 0.19055 0.37788 -0.08600
H 	H 	0.86550 0.19490 0.35810 0.05100
C 	C 	0.89246 0.16460 0.41799 0.10300
C 	C 	0.90760 0.20830 0.45376 -0.02000
C 	C 	0.94283 0.20929 0.44896 0.10200
C 	C 	0.95626 0.20889 0.41913 -0.16000
H 	H 	0.94330 0.20880 0.40150 0.11000
C 	C 	0.98830 0.20861 0.41539 0.10100
H 	H 	0.99690 0.20830 0.39530 0.02900
C 	C 	0.00784 0.20883 0.44128 -0.17400
C 	C 	0.99464 0.21012 0.47101 0.09200
H 	H 	0.00760 0.21110 0.48860 -0.02000
C 	C 	0.96268 0.20996 0.47471 -0.16800
H 	H 	0.95420 0.21030 0.49480 0.05800
C 	C 	0.04225 0.20684 0.43735 0.43300
C 	C 	0.90282 0.13852 0.43888 -0.09400
H 	H 	0.92090 0.14520 0.45070 -0.08100
H 	H 	0.90890 0.12090 0.42620 -0.03100
C 	C 	0.87630 0.12900 0.46200 -0.44600
H 	H 	0.85770 0.12270 0.45040 -0.34900
H 	H 	0.87080 0.14670 0.47530 0.05500
C 	C 	0.88830 0.10130 0.48240 -1.91800
H 	H 	0.90890 0.10640 0.49070 0.51800
H 	H 	0.87420 0.09830 0.50010 0.53300
C 	C 	0.89030 0.07060 0.46360 0.68900
H 	H 	0.89770 0.05400 0.47690 -0.21900
H 	H 	0.86980 0.06530 0.45570 1.26300
H 	H 	0.90450 0.07330 0.44630 -0.71600
N 	N 	0.88112 0.16090 0.38881 -0.25400
N 	N 	0.89206 0.19531 0.42586 -0.14000
O 	O 	0.84916 0.31940 0.37329 -0.38600
O 	O 	0.89259 0.31055 0.39882 -0.38900
O 	O 	0.05117 0.20515 0.40817 -0.52200
H 	H 	0.06960 0.20190 0.40260 0.33100
O 	O 	0.06103 0.20711 0.45922 -0.30000
H 	H 	0.81670 0.26670 0.36890 0.04700
H 	H 	0.83170 0.23370 0.36570 -0.00600
C 	C 	0.83960 0.26050 0.32760 0.02500
C 	C 	0.82010 0.27120 0.30560 -0.03300
H 	H 	0.79960 0.27750 0.30950 0.04800
C 	C 	0.83520 0.27170 0.27400 -0.01500
H 	H 	0.82520 0.27860 0.25580 -0.00500
C 	C 	0.86470 0.26110 0.27460 -0.02200
H 	H 	0.87770 0.25950 0.25720 -0.04200
S 	S 	0.87523 0.25103 0.31178 -0.04900
H 	H 	0.91090 0.14740 0.45800 0.14100
H 	H 	0.91990 0.12780 0.42870 0.07300
C 	C 	0.87670 0.11530 0.44860 0.02900
H 	H 	0.86520 0.10840 0.43020 -0.01400
H 	H 	0.86210 0.12550 0.46270 0.59500
C 	C 	0.89230 0.08660 0.46520 1.84000
H 	H 	0.90700 0.07660 0.45090 -0.04500
H 	H 	0.90400 0.09370 0.48340 -0.06500
C 	C 	0.86740 0.06270 0.47550 -5.68300
H 	H 	0.87740 0.04520 0.48570 1.75000
H 	H 	0.85300 0.07250 0.48990 1.71800
H 	H 	0.85610 0.05530 0.45740 0.93000
C 	C 	0.63171 0.30009 0.61480 0.28600
C 	C 	0.63794 0.26579 0.61715 -0.01000
C 	C 	0.66473 0.25572 0.63770 -0.13600
H 	H 	0.68220 0.26970 0.63490 0.01500
H 	H 	0.67120 0.23490 0.63190 0.02400
C 	C 	0.65440 0.25620 0.67172 0.02200
C 	C 	0.62590 0.25070 0.68350 -0.03000
H 	H 	0.60850 0.24570 0.67120 0.06500
C 	C 	0.62500 0.25330 0.71830 -0.00700
H 	H 	0.60710 0.25020 0.73040 0.01100
C 	C 	0.65280 0.26070 0.73020 -0.02300
H 	H 	0.65670 0.26350 0.75150 -0.03700
S 	S 	0.68055 0.26460 0.70123 -0.05500
C 	C 	0.61982 0.24652 0.60007 -0.12000
H 	H 	0.60540 0.25620 0.58680 0.09800
C 	C 	0.61984 0.21264 0.59969 0.07900
C 	C 	0.62629 0.19055 0.62212 -0.08600
H 	H 	0.63450 0.19490 0.64190 0.05100
C 	C 	0.60754 0.16460 0.58201 0.10300
C 	C 	0.59240 0.20830 0.54624 -0.02000
C 	C 	0.55717 0.20929 0.55104 0.10200
C 	C 	0.54374 0.20889 0.58087 -0.16000
H 	H 	0.55670 0.20880 0.59850 0.11000
C 	C 	0.51170 0.20861 0.58461 0.10100
H 	H 	0.50310 0.20830 0.60470 0.02900
C 	C 	0.49216 0.20883 0.55872 -0.17500
C 	C 	0.50536 0.21012 0.52899 0.09200
H 	H 	0.49240 0.21110 0.51140 -0.02000
C 	C 	0.53732 0.20996 0.52529 -0.16800
H 	H 	0.54580 0.21030 0.50520 0.05800
C 	C 	0.45775 0.20684 0.56265 0.43300
C 	C 	0.59718 0.13852 0.56112 -0.09400
H 	H 	0.57910 0.14520 0.54930 -0.08100
H 	H 	0.59110 0.12090 0.57380 -0.03100
C 	C 	0.62370 0.12900 0.53800 -0.44600
H 	H 	0.64230 0.12270 0.54960 -0.34900
H 	H 	0.62920 0.14670 0.52470 0.05500
C 	C 	0.61170 0.10130 0.51760 -1.91800
H 	H 	0.59110 0.10640 0.50930 0.51800
H 	H 	0.62580 0.09830 0.49990 0.53300
C 	C 	0.60970 0.07060 0.53640 0.68900
H 	H 	0.60230 0.05400 0.52310 -0.21900
H 	H 	0.63020 0.06530 0.54430 1.26300
H 	H 	0.59550 0.07330 0.55370 -0.71600
N 	N 	0.61888 0.16090 0.61119 -0.25400
N 	N 	0.60794 0.19531 0.57414 -0.14000
O 	O 	0.65084 0.31940 0.62671 -0.38600
O 	O 	0.60741 0.31055 0.60118 -0.38900
O 	O 	0.44883 0.20515 0.59183 -0.52200
H 	H 	0.43040 0.20190 0.59740 0.33100
O 	O 	0.43897 0.20711 0.54078 -0.30000
H 	H 	0.68330 0.26670 0.63110 0.04700
H 	H 	0.66830 0.23370 0.63430 -0.00600
C 	C 	0.66040 0.26050 0.67240 0.02500
C 	C 	0.67990 0.27120 0.69440 -0.03300
H 	H 	0.70040 0.27750 0.69050 0.04800
C 	C 	0.66480 0.27170 0.72600 -0.01500
H 	H 	0.67480 0.27860 0.74420 -0.00500
C 	C 	0.63530 0.26110 0.72540 -0.02200
H 	H 	0.62230 0.25950 0.74280 -0.04200
S 	S 	0.62477 0.25103 0.68822 -0.04900
H 	H 	0.58910 0.14740 0.54200 0.14100
H 	H 	0.58010 0.12780 0.57130 0.07300
C 	C 	0.62330 0.11530 0.55140 0.02900
H 	H 	0.63480 0.10840 0.56980 -0.01400
H 	H 	0.63790 0.12550 0.53730 0.59500
C 	C 	0.60770 0.08660 0.53480 1.84000
H 	H 	0.59300 0.07660 0.54910 -0.04500
H 	H 	0.59600 0.09370 0.51660 -0.06500
C 	C 	0.63260 0.06270 0.52450 -5.68300
H 	H 	0.62260 0.04520 0.51430 1.75000
H 	H 	0.64700 0.07250 0.51010 1.71800
H 	H 	0.64390 0.05530 0.54260 0.93000
C 	C 	0.13171 0.80009 0.11480 0.28600
C 	C 	0.13794 0.76579 0.11715 -0.01000
C 	C 	0.16473 0.75572 0.13770 -0.13600
H 	H 	0.18220 0.76970 0.13490 0.01500
H 	H 	0.17120 0.73490 0.13190 0.02400
C 	C 	0.15440 0.75620 0.17172 0.02200
C 	C 	0.12590 0.75070 0.18350 -0.03000
H 	H 	0.10850 0.74570 0.17120 0.06500
C 	C 	0.12500 0.75330 0.21830 -0.00700
H 	H 	0.10710 0.75020 0.23040 0.01100
C 	C 	0.15280 0.76070 0.23020 -0.02300
H 	H 	0.15670 0.76350 0.25150 -0.03700
S 	S 	0.18055 0.76460 0.20123 -0.05500
C 	C 	0.11982 0.74652 0.10007 -0.12000
H 	H 	0.10540 0.75620 0.08680 0.09800
C 	C 	0.11984 0.71264 0.09969 0.07900
C 	C 	0.12629 0.69055 0.12212 -0.08600
H 	H 	0.13450 0.69490 0.14190 0.05100
C 	C 	0.10754 0.66460 0.08201 0.10300
C 	C 	0.09240 0.70830 0.04624 -0.02000
C 	C 	0.05717 0.70929 0.05104 0.10200
C 	C 	0.04374 0.70889 0.08087 -0.16000
H 	H 	0.05670 0.70880 0.09850 0.11000
C 	C 	0.01170 0.70861 0.08461 0.10100
H 	H 	0.00310 0.70830 0.10470 0.02900
C 	C 	0.99216 0.70883 0.05872 -0.17400
C 	C 	0.00536 0.71012 0.02899 0.09200
H 	H 	0.99240 0.71110 0.01140 -0.02000
C 	C 	0.03732 0.70996 0.02529 -0.16800
H 	H 	0.04580 0.71030 0.00520 0.05800
C 	C 	0.95775 0.70684 0.06265 0.43300
C 	C 	0.09718 0.63852 0.06112 -0.09400
H 	H 	0.07910 0.64520 0.04930 -0.08100
H 	H 	0.09110 0.62090 0.07380 -0.03100
C 	C 	0.12370 0.62900 0.03800 -0.44600
H 	H 	0.14230 0.62270 0.04960 -0.34900
H 	H 	0.12920 0.64670 0.02470 0.05500
C 	C 	0.11170 0.60130 0.01760 -1.91800
H 	H 	0.09110 0.60640 0.00930 0.51800
H 	H 	0.12580 0.59830 0.99990 0.53300
C 	C 	0.10970 0.57060 0.03640 0.68900
H 	H 	0.10230 0.55400 0.02310 -0.21900
H 	H 	0.13020 0.56530 0.04430 1.26300
H 	H 	0.09550 0.57330 0.05370 -0.71600
N 	N 	0.11888 0.66090 0.11119 -0.25400
N 	N 	0.10794 0.69531 0.07414 -0.14000
O 	O 	0.15084 0.81940 0.12671 -0.38600
O 	O 	0.10741 0.81055 0.10118 -0.38900
O 	O 	0.94883 0.70515 0.09183 -0.52200
H 	H 	0.93040 0.70190 0.09740 0.33100
O 	O 	0.93897 0.70711 0.04078 -0.30000
H 	H 	0.18330 0.76670 0.13110 0.04700
H 	H 	0.16830 0.73370 0.13430 -0.00600
C 	C 	0.16040 0.76050 0.17240 0.02500
C 	C 	0.17990 0.77120 0.19440 -0.03300
H 	H 	0.20040 0.77750 0.19050 0.04800
C 	C 	0.16480 0.77170 0.22600 -0.01500
H 	H 	0.17480 0.77860 0.24420 -0.00500
C 	C 	0.13530 0.76110 0.22540 -0.02200
H 	H 	0.12230 0.75950 0.24280 -0.04200
S 	S 	0.12477 0.75103 0.18822 -0.04900
H 	H 	0.08910 0.64740 0.04200 0.14100
H 	H 	0.08010 0.62780 0.07130 0.07300
C 	C 	0.12330 0.61530 0.05140 0.02900
H 	H 	0.13480 0.60840 0.06980 -0.01400
H 	H 	0.13790 0.62550 0.03730 0.59500
C 	C 	0.10770 0.58660 0.03480 1.84000
H 	H 	0.09300 0.57660 0.04910 -0.04500
H 	H 	0.09600 0.59370 0.01660 -0.06500
C 	C 	0.13260 0.56270 0.02450 -5.68300
H 	H 	0.12260 0.54520 0.01430 1.75000
H 	H 	0.14700 0.57250 0.01010 1.71800
H 	H 	0.14390 0.55530 0.04260 0.93000
C 	C 	0.69991 0.11480 0.86829 0.28600
C 	C 	0.73421 0.11715 0.86206 -0.01000
C 	C 	0.74428 0.13770 0.83527 -0.13600
H 	H 	0.73030 0.13490 0.81780 0.01500
H 	H 	0.76510 0.13190 0.82880 0.02400
C 	C 	0.74380 0.17172 0.84560 0.02200
C 	C 	0.74930 0.18350 0.87410 -0.03000
H 	H 	0.75430 0.17120 0.89150 0.06500
C 	C 	0.74670 0.21830 0.87500 -0.00700
H 	H 	0.74980 0.23040 0.89290 0.01100
C 	C 	0.73930 0.23020 0.84720 -0.02300
H 	H 	0.73650 0.25150 0.84330 -0.03700
S 	S 	0.73540 0.20123 0.81945 -0.05500
C 	C 	0.75348 0.10007 0.88018 -0.12000
H 	H 	0.74380 0.08680 0.89460 0.09800
C 	C 	0.78736 0.09969 0.88016 0.07900
C 	C 	0.80945 0.12212 0.87371 -0.08600
H 	H 	0.80510 0.14190 0.86550 0.05100
C 	C 	0.83540 0.08201 0.89246 0.10300
C 	C 	0.79170 0.04624 0.90760 -0.02000
C 	C 	0.79071 0.05104 0.94283 0.10200
C 	C 	0.79111 0.08087 0.95626 -0.16000
H 	H 	0.79120 0.09850 0.94330 0.11000
C 	C 	0.79139 0.08461 0.98830 0.10100
H 	H 	0.79170 0.10470 0.99690 0.02900
C 	C 	0.79117 0.05872 0.00784 -0.17400
C 	C 	0.78988 0.02899 0.99464 0.09200
H 	H 	0.78890 0.01140 0.00760 -0.02000
C 	C 	0.79004 0.02529 0.96268 -0.16800
H 	H 	0.78970 0.00520 0.95420 0.05800
C 	C 	0.79316 0.06265 0.04225 0.43300
C 	C 	0.86148 0.06112 0.90282 -0.09400
H 	H 	0.85480 0.04930 0.92090 -0.08100
H 	H 	0.87910 0.07380 0.90890 -0.03100
C 	C 	0.87100 0.03800 0.87630 -0.44600
H 	H 	0.87730 0.04960 0.85770 -0.34900
H 	H 	0.85330 0.02470 0.87080 0.05500
C 	C 	0.89870 0.01760 0.88830 -1.91800
H 	H 	0.89360 0.00930 0.90890 0.51800
H 	H 	0.90170 0.99990 0.87420 0.53300
C 	C 	0.92940 0.03640 0.89030 0.68900
H 	H 	0.94600 0.02310 0.89770 -0.21900
H 	H 	0.93470 0.04430 0.86980 1.26300
H 	H 	0.92670 0.05370 0.90450 -0.71600
N 	N 	0.83910 0.11119 0.88112 -0.25400
N 	N 	0.80469 0.07414 0.89206 -0.14000
O 	O 	0.68060 0.12671 0.84916 -0.38600
O 	O 	0.68945 0.10118 0.89259 -0.38900
O 	O 	0.79485 0.09183 0.05117 -0.52200
H 	H 	0.79810 0.09740 0.06960 0.33100
O 	O 	0.79289 0.04078 0.06103 -0.30000
H 	H 	0.73330 0.13110 0.81670 0.04700
H 	H 	0.76630 0.13430 0.83170 -0.00600
C 	C 	0.73950 0.17240 0.83960 0.02500
C 	C 	0.72880 0.19440 0.82010 -0.03300
H 	H 	0.72250 0.19050 0.79960 0.04800
C 	C 	0.72830 0.22600 0.83520 -0.01500
H 	H 	0.72140 0.24420 0.82520 -0.00500
C 	C 	0.73890 0.22540 0.86470 -0.02200
H 	H 	0.74050 0.24280 0.87770 -0.04200
S 	S 	0.74897 0.18822 0.87523 -0.04900
H 	H 	0.85260 0.04200 0.91090 0.14100
H 	H 	0.87220 0.07130 0.91990 0.07300
C 	C 	0.88470 0.05140 0.87670 0.02900
H 	H 	0.89160 0.06980 0.86520 -0.01400
H 	H 	0.87450 0.03730 0.86210 0.59500
C 	C 	0.91340 0.03480 0.89230 1.84000
H 	H 	0.92340 0.04910 0.90700 -0.04500
H 	H 	0.90630 0.01660 0.90400 -0.06500
C 	C 	0.93730 0.02450 0.86740 -5.68300
H 	H 	0.95480 0.01430 0.87740 1.75000
H 	H 	0.92750 0.01010 0.85300 1.71800
H 	H 	0.94470 0.04260 0.85610 0.93000
C 	C 	0.19991 0.61480 0.36829 0.28600
C 	C 	0.23421 0.61715 0.36206 -0.01000
C 	C 	0.24428 0.63770 0.33527 -0.13600
H 	H 	0.23030 0.63490 0.31780 0.01500
H 	H 	0.26510 0.63190 0.32880 0.02400
C 	C 	0.24380 0.67172 0.34560 0.02200
C 	C 	0.24930 0.68350 0.37410 -0.03000
H 	H 	0.25430 0.67120 0.39150 0.06500
C 	C 	0.24670 0.71830 0.37500 -0.00700
H 	H 	0.24980 0.73040 0.39290 0.01100
C 	C 	0.23930 0.73020 0.34720 -0.02300
H 	H 	0.23650 0.75150 0.34330 -0.03700
S 	S 	0.23540 0.70123 0.31945 -0.05500
C 	C 	0.25348 0.60007 0.38018 -0.12000
H 	H 	0.24380 0.58680 0.39460 0.09800
C 	C 	0.28736 0.59969 0.38016 0.07900
C 	C 	0.30945 0.62212 0.37371 -0.08600
H 	H 	0.30510 0.64190 0.36550 0.05100
C 	C 	0.33540 0.58201 0.39246 0.10300
C 	C 	0.29170 0.54624 0.40760 -0.02000
C 	C 	0.29071 0.55104 0.44283 0.10200
C 	C 	0.29111 0.58087 0.45626 -0.16000
H 	H 	0.29120 0.59850 0.44330 0.11000
C 	C 	0.29139 0.58461 0.48830 0.10100
H 	H 	0.29170 0.60470 0.49690 0.02900
C 	C 	0.29117 0.55872 0.50784 -0.17500
C 	C 	0.28988 0.52899 0.49464 0.09200
H 	H 	0.28890 0.51140 0.50760 -0.02000
C 	C 	0.29004 0.52529 0.46268 -0.16800
H 	H 	0.28970 0.50520 0.45420 0.05800
C 	C 	0.29316 0.56265 0.54225 0.43300
C 	C 	0.36148 0.56112 0.40282 -0.09400
H 	H 	0.35480 0.54930 0.42090 -0.08100
H 	H 	0.37910 0.57380 0.40890 -0.03100
C 	C 	0.37100 0.53800 0.37630 -0.44600
H 	H 	0.37730 0.54960 0.35770 -0.34900
H 	H 	0.35330 0.52470 0.37080 0.05500
C 	C 	0.39870 0.51760 0.38830 -1.91800
H 	H 	0.39360 0.50930 0.40890 0.51800
H 	H 	0.40170 0.49990 0.37420 0.53300
C 	C 	0.42940 0.53640 0.39030 0.68900
H 	H 	0.44600 0.52310 0.39770 -0.21900
H 	H 	0.43470 0.54430 0.36980 1.26300
H 	H 	0.42670 0.55370 0.40450 -0.71600
N 	N 	0.33910 0.61119 0.38112 -0.25400
N 	N 	0.30469 0.57414 0.39206 -0.14000
O 	O 	0.18060 0.62671 0.34916 -0.38600
O 	O 	0.18945 0.60118 0.39259 -0.38900
O 	O 	0.29485 0.59183 0.55117 -0.52200
H 	H 	0.29810 0.59740 0.56960 0.33100
O 	O 	0.29289 0.54078 0.56103 -0.30000
H 	H 	0.23330 0.63110 0.31670 0.04700
H 	H 	0.26630 0.63430 0.33170 -0.00600
C 	C 	0.23950 0.67240 0.33960 0.02500
C 	C 	0.22880 0.69440 0.32010 -0.03300
H 	H 	0.22250 0.69050 0.29960 0.04800
C 	C 	0.22830 0.72600 0.33520 -0.01500
H 	H 	0.22140 0.74420 0.32520 -0.00500
C 	C 	0.23890 0.72540 0.36470 -0.02200
H 	H 	0.24050 0.74280 0.37770 -0.04200
S 	S 	0.24897 0.68822 0.37523 -0.04900
H 	H 	0.35260 0.54200 0.41090 0.14100
H 	H 	0.37220 0.57130 0.41990 0.07300
C 	C 	0.38470 0.55140 0.37670 0.02900
H 	H 	0.39160 0.56980 0.36520 -0.01400
H 	H 	0.37450 0.53730 0.36210 0.59500
C 	C 	0.41340 0.53480 0.39230 1.84000
H 	H 	0.42340 0.54910 0.40700 -0.04500
H 	H 	0.40630 0.51660 0.40400 -0.06500
C 	C 	0.43730 0.52450 0.36740 -5.68300
H 	H 	0.45480 0.51430 0.37740 1.75000
H 	H 	0.42750 0.51010 0.35300 1.71800
H 	H 	0.44470 0.54260 0.35610 0.93000
C 	C 	0.19991 0.38520 0.13171 0.28600
C 	C 	0.23421 0.38285 0.13794 -0.01000
C 	C 	0.24428 0.36230 0.16473 -0.13600
H 	H 	0.23030 0.36510 0.18220 0.01500
H 	H 	0.26510 0.36810 0.17120 0.02400
C 	C 	0.24380 0.32828 0.15440 0.02200
C 	C 	0.24930 0.31650 0.12590 -0.03000
H 	H 	0.25430 0.32880 0.10850 0.06500
C 	C 	0.24670 0.28170 0.12500 -0.00700
H 	H 	0.24980 0.26960 0.10710 0.01100
C 	C 	0.23930 0.26980 0.15280 -0.02300
H 	H 	0.23650 0.24850 0.15670 -0.03700
S 	S 	0.23540 0.29877 0.18055 -0.05500
C 	C 	0.25348 0.39993 0.11982 -0.12000
H 	H 	0.24380 0.41320 0.10540 0.09800
C 	C 	0.28736 0.40031 0.11984 0.07900
C 	C 	0.30945 0.37788 0.12629 -0.08600
H 	H 	0.30510 0.35810 0.13450 0.05100
C 	C 	0.33540 0.41799 0.10754 0.10300
C 	C 	0.29170 0.45376 0.09240 -0.02000
C 	C 	0.29071 0.44896 0.05717 0.10200
C 	C 	0.29111 0.41913 0.04374 -0.16000
H 	H 	0.29120 0.40150 0.05670 0.11000
C 	C 	0.29139 0.41539 0.01170 0.10100
H 	H 	0.29170 0.39530 0.00310 0.02900
C 	C 	0.29117 0.44128 0.99216 -0.17400
C 	C 	0.28988 0.47101 0.00536 0.09200
H 	H 	0.28890 0.48860 0.99240 -0.02000
C 	C 	0.29004 0.47471 0.03732 -0.16800
H 	H 	0.28970 0.49480 0.04580 0.05800
C 	C 	0.29316 0.43735 0.95775 0.43300
C 	C 	0.36148 0.43888 0.09718 -0.09400
H 	H 	0.35480 0.45070 0.07910 -0.08100
H 	H 	0.37910 0.42620 0.09110 -0.03100
C 	C 	0.37100 0.46200 0.12370 -0.44600
H 	H 	0.37730 0.45040 0.14230 -0.34900
H 	H 	0.35330 0.47530 0.12920 0.05500
C 	C 	0.39870 0.48240 0.11170 -1.91800
H 	H 	0.39360 0.49070 0.09110 0.51800
H 	H 	0.40170 0.50010 0.12580 0.53300
C 	C 	0.42940 0.46360 0.10970 0.68900
H 	H 	0.44600 0.47690 0.10230 -0.21900
H 	H 	0.43470 0.45570 0.13020 1.26300
H 	H 	0.42670 0.44630 0.09550 -0.71600
N 	N 	0.33910 0.38881 0.11888 -0.25400
N 	N 	0.30469 0.42586 0.10794 -0.14000
O 	O 	0.18060 0.37329 0.15084 -0.38600
O 	O 	0.18945 0.39882 0.10741 -0.38900
O 	O 	0.29485 0.40817 0.94883 -0.52200
H 	H 	0.29810 0.40260 0.93040 0.33100
O 	O 	0.29289 0.45922 0.93897 -0.30000
H 	H 	0.23330 0.36890 0.18330 0.04700
H 	H 	0.26630 0.36570 0.16830 -0.00600
C 	C 	0.23950 0.32760 0.16040 0.02500
C 	C 	0.22880 0.30560 0.17990 -0.03300
H 	H 	0.22250 0.30950 0.20040 0.04800
C 	C 	0.22830 0.27400 0.16480 -0.01500
H 	H 	0.22140 0.25580 0.17480 -0.00500
C 	C 	0.23890 0.27460 0.13530 -0.02200
H 	H 	0.24050 0.25720 0.12230 -0.04200
S 	S 	0.24897 0.31178 0.12477 -0.04900
H 	H 	0.35260 0.45800 0.08910 0.14100
H 	H 	0.37220 0.42870 0.08010 0.07300
C 	C 	0.38470 0.44860 0.12330 0.02900
H 	H 	0.39160 0.43020 0.13480 -0.01400
H 	H 	0.37450 0.46270 0.13790 0.59500
C 	C 	0.41340 0.46520 0.10770 1.84000
H 	H 	0.42340 0.45090 0.09300 -0.04500
H 	H 	0.40630 0.48340 0.09600 -0.06500
C 	C 	0.43730 0.47550 0.13260 -5.68300
H 	H 	0.45480 0.48570 0.12260 1.75000
H 	H 	0.42750 0.48990 0.14700 1.71800
H 	H 	0.44470 0.45740 0.14390 0.93000
C 	C 	0.69991 0.88520 0.63171 0.28600
C 	C 	0.73421 0.88285 0.63794 -0.01000
C 	C 	0.74428 0.86230 0.66473 -0.13600
H 	H 	0.73030 0.86510 0.68220 0.01500
H 	H 	0.76510 0.86810 0.67120 0.02400
C 	C 	0.74380 0.82828 0.65440 0.02200
C 	C 	0.74930 0.81650 0.62590 -0.03000
H 	H 	0.75430 0.82880 0.60850 0.06500
C 	C 	0.74670 0.78170 0.62500 -0.00700
H 	H 	0.74980 0.76960 0.60710 0.01100
C 	C 	0.73930 0.76980 0.65280 -0.02300
H 	H 	0.73650 0.74850 0.65670 -0.03700
S 	S 	0.73540 0.79877 0.68055 -0.05500
C 	C 	0.75348 0.89993 0.61982 -0.12000
H 	H 	0.74380 0.91320 0.60540 0.09800
C 	C 	0.78736 0.90031 0.61984 0.07900
C 	C 	0.80945 0.87788 0.62629 -0.08600
H 	H 	0.80510 0.85810 0.63450 0.05100
C 	C 	0.83540 0.91799 0.60754 0.10300
C 	C 	0.79170 0.95376 0.59240 -0.02000
C 	C 	0.79071 0.94896 0.55717 0.10200
C 	C 	0.79111 0.91913 0.54374 -0.16000
H 	H 	0.79120 0.90150 0.55670 0.11000
C 	C 	0.79139 0.91539 0.51170 0.10100
H 	H 	0.79170 0.89530 0.50310 0.02900
C 	C 	0.79117 0.94128 0.49216 -0.17400
C 	C 	0.78988 0.97101 0.50536 0.09200
H 	H 	0.78890 0.98860 0.49240 -0.02000
C 	C 	0.79004 0.97471 0.53732 -0.16800
H 	H 	0.78970 0.99480 0.54580 0.05800
C 	C 	0.79316 0.93735 0.45775 0.43300
C 	C 	0.86148 0.93888 0.59718 -0.09400
H 	H 	0.85480 0.95070 0.57910 -0.08100
H 	H 	0.87910 0.92620 0.59110 -0.03100
C 	C 	0.87100 0.96200 0.62370 -0.44600
H 	H 	0.87730 0.95040 0.64230 -0.34900
H 	H 	0.85330 0.97530 0.62920 0.05500
C 	C 	0.89870 0.98240 0.61170 -1.91800
H 	H 	0.89360 0.99070 0.59110 0.51800
H 	H 	0.90170 0.00010 0.62580 0.53300
C 	C 	0.92940 0.96360 0.60970 0.68900
H 	H 	0.94600 0.97690 0.60230 -0.21900
H 	H 	0.93470 0.95570 0.63020 1.26300
H 	H 	0.92670 0.94630 0.59550 -0.71600
N 	N 	0.83910 0.88881 0.61888 -0.25400
N 	N 	0.80469 0.92586 0.60794 -0.14000
O 	O 	0.68060 0.87329 0.65084 -0.38600
O 	O 	0.68945 0.89882 0.60741 -0.38900
O 	O 	0.79485 0.90817 0.44883 -0.52200
H 	H 	0.79810 0.90260 0.43040 0.33100
O 	O 	0.79289 0.95922 0.43897 -0.30000
H 	H 	0.73330 0.86890 0.68330 0.04700
H 	H 	0.76630 0.86570 0.66830 -0.00600
C 	C 	0.73950 0.82760 0.66040 0.02500
C 	C 	0.72880 0.80560 0.67990 -0.03300
H 	H 	0.72250 0.80950 0.70040 0.04800
C 	C 	0.72830 0.77400 0.66480 -0.01500
H 	H 	0.72140 0.75580 0.67480 -0.00500
C 	C 	0.73890 0.77460 0.63530 -0.02200
H 	H 	0.74050 0.75720 0.62230 -0.04200
S 	S 	0.74897 0.81178 0.62477 -0.04900
H 	H 	0.85260 0.95800 0.58910 0.14100
H 	H 	0.87220 0.92870 0.58010 0.07300
C 	C 	0.88470 0.94860 0.62330 0.02900
H 	H 	0.89160 0.93020 0.63480 -0.01400
H 	H 	0.87450 0.96270 0.63790 0.59500
C 	C 	0.91340 0.96520 0.60770 1.84000
H 	H 	0.92340 0.95090 0.59300 -0.04500
H 	H 	0.90630 0.98340 0.59600 -0.06500
C 	C 	0.93730 0.97550 0.63260 -5.68300
H 	H 	0.95480 0.98570 0.62260 1.75000
H 	H 	0.92750 0.98990 0.64700 1.71800
H 	H 	0.94470 0.95740 0.64390 0.93000
C 	C 	0.30009 0.61480 0.63171 0.28600
C 	C 	0.26579 0.61715 0.63794 -0.01000
C 	C 	0.25572 0.63770 0.66473 -0.13600
H 	H 	0.26970 0.63490 0.68220 0.01500
H 	H 	0.23490 0.63190 0.67120 0.02400
C 	C 	0.25620 0.67172 0.65440 0.02200
C 	C 	0.25070 0.68350 0.62590 -0.03000
H 	H 	0.24570 0.67120 0.60850 0.06500
C 	C 	0.25330 0.71830 0.62500 -0.00700
H 	H 	0.25020 0.73040 0.60710 0.01100
C 	C 	0.26070 0.73020 0.65280 -0.02300
H 	H 	0.26350 0.75150 0.65670 -0.03700
S 	S 	0.26460 0.70123 0.68055 -0.05500
C 	C 	0.24652 0.60007 0.61982 -0.12000
H 	H 	0.25620 0.58680 0.60540 0.09800
C 	C 	0.21264 0.59969 0.61984 0.07900
C 	C 	0.19055 0.62212 0.62629 -0.08600
H 	H 	0.19490 0.64190 0.63450 0.05100
C 	C 	0.16460 0.58201 0.60754 0.10300
C 	C 	0.20830 0.54624 0.59240 -0.02000
C 	C 	0.20929 0.55104 0.55717 0.10200
C 	C 	0.20889 0.58087 0.54374 -0.16000
H 	H 	0.20880 0.59850 0.55670 0.11000
C 	C 	0.20861 0.58461 0.51170 0.10100
H 	H 	0.20830 0.60470 0.50310 0.02900
C 	C 	0.20883 0.55872 0.49216 -0.17500
C 	C 	0.21012 0.52899 0.50536 0.09200
H 	H 	0.21110 0.51140 0.49240 -0.02000
C 	C 	0.20996 0.52529 0.53732 -0.16800
H 	H 	0.21030 0.50520 0.54580 0.05800
C 	C 	0.20684 0.56265 0.45775 0.43300
C 	C 	0.13852 0.56112 0.59718 -0.09400
H 	H 	0.14520 0.54930 0.57910 -0.08100
H 	H 	0.12090 0.57380 0.59110 -0.03100
C 	C 	0.12900 0.53800 0.62370 -0.44600
H 	H 	0.12270 0.54960 0.64230 -0.34900
H 	H 	0.14670 0.52470 0.62920 0.05500
C 	C 	0.10130 0.51760 0.61170 -1.91800
H 	H 	0.10640 0.50930 0.59110 0.51800
H 	H 	0.09830 0.49990 0.62580 0.53300
C 	C 	0.07060 0.53640 0.60970 0.68900
H 	H 	0.05400 0.52310 0.60230 -0.21900
H 	H 	0.06530 0.54430 0.63020 1.26300
H 	H 	0.07330 0.55370 0.59550 -0.71600
N 	N 	0.16090 0.61119 0.61888 -0.25400
N 	N 	0.19531 0.57414 0.60794 -0.14000
O 	O 	0.31940 0.62671 0.65084 -0.38600
O 	O 	0.31055 0.60118 0.60741 -0.38900
O 	O 	0.20515 0.59183 0.44883 -0.52200
H 	H 	0.20190 0.59740 0.43040 0.33100
O 	O 	0.20711 0.54078 0.43897 -0.30000
H 	H 	0.26670 0.63110 0.68330 0.04700
H 	H 	0.23370 0.63430 0.66830 -0.00600
C 	C 	0.26050 0.67240 0.66040 0.02500
C 	C 	0.27120 0.69440 0.67990 -0.03300
H 	H 	0.27750 0.69050 0.70040 0.04800
C 	C 	0.27170 0.72600 0.66480 -0.01500
H 	H 	0.27860 0.74420 0.67480 -0.00500
C 	C 	0.26110 0.72540 0.63530 -0.02200
H 	H 	0.25950 0.74280 0.62230 -0.04200
S 	S 	0.25103 0.68822 0.62477 -0.04900
H 	H 	0.14740 0.54200 0.58910 0.14100
H 	H 	0.12780 0.57130 0.58010 0.07300
C 	C 	0.11530 0.55140 0.62330 0.02900
H 	H 	0.10840 0.56980 0.63480 -0.01400
H 	H 	0.12550 0.53730 0.63790 0.59500
C 	C 	0.08660 0.53480 0.60770 1.84000
H 	H 	0.07660 0.54910 0.59300 -0.04500
H 	H 	0.09370 0.51660 0.59600 -0.06500
C 	C 	0.06270 0.52450 0.63260 -5.68300
H 	H 	0.04520 0.51430 0.62260 1.75000
H 	H 	0.07250 0.51010 0.64700 1.71800
H 	H 	0.05530 0.54260 0.64390 0.93000
C 	C 	0.80009 0.11480 0.13171 0.28600
C 	C 	0.76579 0.11715 0.13794 -0.01000
C 	C 	0.75572 0.13770 0.16473 -0.13600
H 	H 	0.76970 0.13490 0.18220 0.01500
H 	H 	0.73490 0.13190 0.17120 0.02400
C 	C 	0.75620 0.17172 0.15440 0.02200
C 	C 	0.75070 0.18350 0.12590 -0.03000
H 	H 	0.74570 0.17120 0.10850 0.06500
C 	C 	0.75330 0.21830 0.12500 -0.00700
H 	H 	0.75020 0.23040 0.10710 0.01100
C 	C 	0.76070 0.23020 0.15280 -0.02300
H 	H 	0.76350 0.25150 0.15670 -0.03700
S 	S 	0.76460 0.20123 0.18055 -0.05500
C 	C 	0.74652 0.10007 0.11982 -0.12000
H 	H 	0.75620 0.08680 0.10540 0.09800
C 	C 	0.71264 0.09969 0.11984 0.07900
C 	C 	0.69055 0.12212 0.12629 -0.08600
H 	H 	0.69490 0.14190 0.13450 0.05100
C 	C 	0.66460 0.08201 0.10754 0.10300
C 	C 	0.70830 0.04624 0.09240 -0.02000
C 	C 	0.70929 0.05104 0.05717 0.10200
C 	C 	0.70889 0.08087 0.04374 -0.16000
H 	H 	0.70880 0.09850 0.05670 0.11000
C 	C 	0.70861 0.08461 0.01170 0.10100
H 	H 	0.70830 0.10470 0.00310 0.02900
C 	C 	0.70883 0.05872 0.99216 -0.17400
C 	C 	0.71012 0.02899 0.00536 0.09200
H 	H 	0.71110 0.01140 0.99240 -0.02000
C 	C 	0.70996 0.02529 0.03732 -0.16800
H 	H 	0.71030 0.00520 0.04580 0.05800
C 	C 	0.70684 0.06265 0.95775 0.43300
C 	C 	0.63852 0.06112 0.09718 -0.09400
H 	H 	0.64520 0.04930 0.07910 -0.08100
H 	H 	0.62090 0.07380 0.09110 -0.03100
C 	C 	0.62900 0.03800 0.12370 -0.44600
H 	H 	0.62270 0.04960 0.14230 -0.34900
H 	H 	0.64670 0.02470 0.12920 0.05500
C 	C 	0.60130 0.01760 0.11170 -1.91800
H 	H 	0.60640 0.00930 0.09110 0.51800
H 	H 	0.59830 0.99990 0.12580 0.53300
C 	C 	0.57060 0.03640 0.10970 0.68900
H 	H 	0.55400 0.02310 0.10230 -0.21900
H 	H 	0.56530 0.04430 0.13020 1.26300
H 	H 	0.57330 0.05370 0.09550 -0.71600
N 	N 	0.66090 0.11119 0.11888 -0.25400
N 	N 	0.69531 0.07414 0.10794 -0.14000
O 	O 	0.81940 0.12671 0.15084 -0.38600
O 	O 	0.81055 0.10118 0.10741 -0.38900
O 	O 	0.70515 0.09183 0.94883 -0.52200
H 	H 	0.70190 0.09740 0.93040 0.33100
O 	O 	0.70711 0.04078 0.93897 -0.30000
H 	H 	0.76670 0.13110 0.18330 0.04700
H 	H 	0.73370 0.13430 0.16830 -0.00600
C 	C 	0.76050 0.17240 0.16040 0.02500
C 	C 	0.77120 0.19440 0.17990 -0.03300
H 	H 	0.77750 0.19050 0.20040 0.04800
C 	C 	0.77170 0.22600 0.16480 -0.01500
H 	H 	0.77860 0.24420 0.17480 -0.00500
C 	C 	0.76110 0.22540 0.13530 -0.02200
H 	H 	0.75950 0.24280 0.12230 -0.04200
S 	S 	0.75103 0.18822 0.12477 -0.04900
H 	H 	0.64740 0.04200 0.08910 0.14100
H 	H 	0.62780 0.07130 0.08010 0.07300
C 	C 	0.61530 0.05140 0.12330 0.02900
H 	H 	0.60840 0.06980 0.13480 -0.01400
H 	H 	0.62550 0.03730 0.13790 0.59500
C 	C 	0.58660 0.03480 0.10770 1.84000
H 	H 	0.57660 0.04910 0.09300 -0.04500
H 	H 	0.59370 0.01660 0.09600 -0.06500
C 	C 	0.56270 0.02450 0.13260 -5.68300
H 	H 	0.54520 0.01430 0.12260 1.75000
H 	H 	0.57250 0.01010 0.14700 1.71800
H 	H 	0.55530 0.04260 0.14390 0.93000
C 	C 	0.80009 0.88520 0.36829 0.28600
C 	C 	0.76579 0.88285 0.36206 -0.01000
C 	C 	0.75572 0.86230 0.33527 -0.13600
H 	H 	0.76970 0.86510 0.31780 0.01500
H 	H 	0.73490 0.86810 0.32880 0.02400
C 	C 	0.75620 0.82828 0.34560 0.02200
C 	C 	0.75070 0.81650 0.37410 -0.03000
H 	H 	0.74570 0.82880 0.39150 0.06500
C 	C 	0.75330 0.78170 0.37500 -0.00700
H 	H 	0.75020 0.76960 0.39290 0.01100
C 	C 	0.76070 0.76980 0.34720 -0.02300
H 	H 	0.76350 0.74850 0.34330 -0.03700
S 	S 	0.76460 0.79877 0.31945 -0.05500
C 	C 	0.74652 0.89993 0.38018 -0.12000
H 	H 	0.75620 0.91320 0.39460 0.09800
C 	C 	0.71264 0.90031 0.38016 0.07900
C 	C 	0.69055 0.87788 0.37371 -0.08600
H 	H 	0.69490 0.85810 0.36550 0.05100
C 	C 	0.66460 0.91799 0.39246 0.10300
C 	C 	0.70830 0.95376 0.40760 -0.02000
C 	C 	0.70929 0.94896 0.44283 0.10200
C 	C 	0.70889 0.91913 0.45626 -0.16000
H 	H 	0.70880 0.90150 0.44330 0.11000
C 	C 	0.70861 0.91539 0.48830 0.10100
H 	H 	0.70830 0.89530 0.49690 0.02900
C 	C 	0.70883 0.94128 0.50784 -0.17400
C 	C 	0.71012 0.97101 0.49464 0.09200
H 	H 	0.71110 0.98860 0.50760 -0.02000
C 	C 	0.70996 0.97471 0.46268 -0.16800
H 	H 	0.71030 0.99480 0.45420 0.05800
C 	C 	0.70684 0.93735 0.54225 0.43300
C 	C 	0.63852 0.93888 0.40282 -0.09400
H 	H 	0.64520 0.95070 0.42090 -0.08100
H 	H 	0.62090 0.92620 0.40890 -0.03100
C 	C 	0.62900 0.96200 0.37630 -0.44600
H 	H 	0.62270 0.95040 0.35770 -0.34900
H 	H 	0.64670 0.97530 0.37080 0.05500
C 	C 	0.60130 0.98240 0.38830 -1.91800
H 	H 	0.60640 0.99070 0.40890 0.51800
H 	H 	0.59830 0.00010 0.37420 0.53300
C 	C 	0.57060 0.96360 0.39030 0.68900
H 	H 	0.55400 0.97690 0.39770 -0.21900
H 	H 	0.56530 0.95570 0.36980 1.26300
H 	H 	0.57330 0.94630 0.40450 -0.71600
N 	N 	0.66090 0.88881 0.38112 -0.25400
N 	N 	0.69531 0.92586 0.39206 -0.14000
O 	O 	0.81940 0.87329 0.34916 -0.38600
O 	O 	0.81055 0.89882 0.39259 -0.38900
O 	O 	0.70515 0.90817 0.55117 -0.52200
H 	H 	0.70190 0.90260 0.56960 0.33100
O 	O 	0.70711 0.95922 0.56103 -0.30000
H 	H 	0.76670 0.86890 0.31670 0.04700
H 	H 	0.73370 0.86570 0.33170 -0.00600
C 	C 	0.76050 0.82760 0.33960 0.02500
C 	C 	0.77120 0.80560 0.32010 -0.03300
H 	H 	0.77750 0.80950 0.29960 0.04800
C 	C 	0.77170 0.77400 0.33520 -0.01500
H 	H 	0.77860 0.75580 0.32520 -0.00500
C 	C 	0.76110 0.77460 0.36470 -0.02200
H 	H 	0.75950 0.75720 0.37770 -0.04200
S 	S 	0.75103 0.81178 0.37523 -0.04900
H 	H 	0.64740 0.95800 0.41090 0.14100
H 	H 	0.62780 0.92870 0.41990 0.07300
C 	C 	0.61530 0.94860 0.37670 0.02900
H 	H 	0.60840 0.93020 0.36520 -0.01400
H 	H 	0.62550 0.96270 0.36210 0.59500
C 	C 	0.58660 0.96520 0.39230 1.84000
H 	H 	0.57660 0.95090 0.40700 -0.04500
H 	H 	0.59370 0.98340 0.40400 -0.06500
C 	C 	0.56270 0.97550 0.36740 -5.68300
H 	H 	0.54520 0.98570 0.37740 1.75000
H 	H 	0.57250 0.98990 0.35300 1.71800
H 	H 	0.55530 0.95740 0.35610 0.93000
C 	C 	0.30009 0.38520 0.86829 0.28600
C 	C 	0.26579 0.38285 0.86206 -0.01000
C 	C 	0.25572 0.36230 0.83527 -0.13600
H 	H 	0.26970 0.36510 0.81780 0.01500
H 	H 	0.23490 0.36810 0.82880 0.02400
C 	C 	0.25620 0.32828 0.84560 0.02200
C 	C 	0.25070 0.31650 0.87410 -0.03000
H 	H 	0.24570 0.32880 0.89150 0.06500
C 	C 	0.25330 0.28170 0.87500 -0.00700
H 	H 	0.25020 0.26960 0.89290 0.01100
C 	C 	0.26070 0.26980 0.84720 -0.02300
H 	H 	0.26350 0.24850 0.84330 -0.03700
S 	S 	0.26460 0.29877 0.81945 -0.05500
C 	C 	0.24652 0.39993 0.88018 -0.12000
H 	H 	0.25620 0.41320 0.89460 0.09800
C 	C 	0.21264 0.40031 0.88016 0.07900
C 	C 	0.19055 0.37788 0.87371 -0.08600
H 	H 	0.19490 0.35810 0.86550 0.05100
C 	C 	0.16460 0.41799 0.89246 0.10300
C 	C 	0.20830 0.45376 0.90760 -0.02000
C 	C 	0.20929 0.44896 0.94283 0.10200
C 	C 	0.20889 0.41913 0.95626 -0.16000
H 	H 	0.20880 0.40150 0.94330 0.11000
C 	C 	0.20861 0.41539 0.98830 0.10100
H 	H 	0.20830 0.39530 0.99690 0.02900
C 	C 	0.20883 0.44128 0.00784 -0.17400
C 	C 	0.21012 0.47101 0.99464 0.09200
H 	H 	0.21110 0.48860 0.00760 -0.02000
C 	C 	0.20996 0.47471 0.96268 -0.16800
H 	H 	0.21030 0.49480 0.95420 0.05800
C 	C 	0.20684 0.43735 0.04225 0.43300
C 	C 	0.13852 0.43888 0.90282 -0.09400
H 	H 	0.14520 0.45070 0.92090 -0.08100
H 	H 	0.12090 0.42620 0.90890 -0.03100
C 	C 	0.12900 0.46200 0.87630 -0.44600
H 	H 	0.12270 0.45040 0.85770 -0.34900
H 	H 	0.14670 0.47530 0.87080 0.05500
C 	C 	0.10130 0.48240 0.88830 -1.91800
H 	H 	0.10640 0.49070 0.90890 0.51800
H 	H 	0.09830 0.50010 0.87420 0.53300
C 	C 	0.07060 0.46360 0.89030 0.68900
H 	H 	0.05400 0.47690 0.89770 -0.21900
H 	H 	0.06530 0.45570 0.86980 1.26300
H 	H 	0.07330 0.44630 0.90450 -0.71600
N 	N 	0.16090 0.38881 0.88112 -0.25400
N 	N 	0.19531 0.42586 0.89206 -0.14000
O 	O 	0.31940 0.37329 0.84916 -0.38600
O 	O 	0.31055 0.39882 0.89259 -0.38900
O 	O 	0.20515 0.40817 0.05117 -0.52200
H 	H 	0.20190 0.40260 0.06960 0.33100
O 	O 	0.20711 0.45922 0.06103 -0.30000
H 	H 	0.26670 0.36890 0.81670 0.04700
H 	H 	0.23370 0.36570 0.83170 -0.00600
C 	C 	0.26050 0.32760 0.83960 0.02500
C 	C 	0.27120 0.30560 0.82010 -0.03300
H 	H 	0.27750 0.30950 0.79960 0.04800
C 	C 	0.27170 0.27400 0.83520 -0.01500
H 	H 	0.27860 0.25580 0.82520 -0.00500
C 	C 	0.26110 0.27460 0.86470 -0.02200
H 	H 	0.25950 0.25720 0.87770 -0.04200
S 	S 	0.25103 0.31178 0.87523 -0.04900
H 	H 	0.14740 0.45800 0.91090 0.14100
H 	H 	0.12780 0.42870 0.91990 0.07300
C 	C 	0.11530 0.44860 0.87670 0.02900
H 	H 	0.10840 0.43020 0.86520 -0.01400
H 	H 	0.12550 0.46270 0.86210 0.59500
C 	C 	0.08660 0.46520 0.89230 1.84000
H 	H 	0.07660 0.45090 0.90700 -0.04500
H 	H 	0.09370 0.48340 0.90400 -0.06500
C 	C 	0.06270 0.47550 0.86740 -5.68300
H 	H 	0.04520 0.48570 0.87740 1.75000
H 	H 	0.07250 0.48990 0.85300 1.71800
H 	H 	0.05530 0.45740 0.85610 0.93000
C 	C 	0.61829 0.13520 0.05009 0.28600
C 	C 	0.61206 0.13285 0.01579 -0.01000
C 	C 	0.58527 0.11230 0.00572 -0.13600
H 	H 	0.56780 0.11510 0.01970 0.01500
H 	H 	0.57880 0.11810 0.98490 0.02400
C 	C 	0.59560 0.07828 0.00620 0.02200
C 	C 	0.62410 0.06650 0.00070 -0.03000
H 	H 	0.64150 0.07880 0.99570 0.06500
C 	C 	0.62500 0.03170 0.00330 -0.00700
H 	H 	0.64290 0.01960 0.00020 0.01100
C 	C 	0.59720 0.01980 0.01070 -0.02300
H 	H 	0.59330 0.99850 0.01350 -0.03700
S 	S 	0.56945 0.04877 0.01460 -0.05500
C 	C 	0.63018 0.14993 0.99652 -0.12000
H 	H 	0.64460 0.16320 0.00620 0.09800
C 	C 	0.63016 0.15031 0.96264 0.07900
C 	C 	0.62371 0.12788 0.94055 -0.08600
H 	H 	0.61550 0.10810 0.94490 0.05100
C 	C 	0.64246 0.16799 0.91460 0.10300
C 	C 	0.65760 0.20376 0.95830 -0.02000
C 	C 	0.69283 0.19896 0.95929 0.10200
C 	C 	0.70626 0.16913 0.95889 -0.16000
H 	H 	0.69330 0.15150 0.95880 0.11000
C 	C 	0.73830 0.16539 0.95861 0.10100
H 	H 	0.74690 0.14530 0.95830 0.02900
C 	C 	0.75784 0.19128 0.95883 -0.17400
C 	C 	0.74464 0.22101 0.96012 0.09200
H 	H 	0.75760 0.23860 0.96110 -0.02000
C 	C 	0.71268 0.22471 0.95996 -0.16800
H 	H 	0.70420 0.24480 0.96030 0.05800
C 	C 	0.79225 0.18735 0.95684 0.43300
C 	C 	0.65282 0.18888 0.88852 -0.09400
H 	H 	0.67090 0.20070 0.89520 -0.08100
H 	H 	0.65890 0.17620 0.87090 -0.03100
C 	C 	0.62630 0.21200 0.87900 -0.44600
H 	H 	0.60770 0.20040 0.87270 -0.34900
H 	H 	0.62080 0.22530 0.89670 0.05500
C 	C 	0.63830 0.23240 0.85130 -1.91800
H 	H 	0.65890 0.24070 0.85640 0.51800
H 	H 	0.62420 0.25010 0.84830 0.53300
C 	C 	0.64030 0.21360 0.82060 0.68900
H 	H 	0.64770 0.22690 0.80400 -0.21900
H 	H 	0.61980 0.20570 0.81530 1.26300
H 	H 	0.65450 0.19630 0.82330 -0.71600
N 	N 	0.63112 0.13881 0.91090 -0.25400
N 	N 	0.64206 0.17586 0.94531 -0.14000
O 	O 	0.59916 0.12329 0.06940 -0.38600
O 	O 	0.64259 0.14882 0.06055 -0.38900
O 	O 	0.80117 0.15817 0.95515 -0.52200
H 	H 	0.81960 0.15260 0.95190 0.33100
O 	O 	0.81103 0.20922 0.95711 -0.30000
H 	H 	0.56670 0.11890 0.01670 0.04700
H 	H 	0.58170 0.11570 0.98370 -0.00600
C 	C 	0.58960 0.07760 0.01050 0.02500
C 	C 	0.57010 0.05560 0.02120 -0.03300
H 	H 	0.54960 0.05950 0.02750 0.04800
C 	C 	0.58520 0.02400 0.02170 -0.01500
H 	H 	0.57520 0.00580 0.02860 -0.00500
C 	C 	0.61470 0.02460 0.01110 -0.02200
H 	H 	0.62770 0.00720 0.00950 -0.04200
S 	S 	0.62523 0.06178 0.00103 -0.04900
H 	H 	0.66090 0.20800 0.89740 0.14100
H 	H 	0.66990 0.17870 0.87780 0.07300
C 	C 	0.62670 0.19860 0.86530 0.02900
H 	H 	0.61520 0.18020 0.85840 -0.01400
H 	H 	0.61210 0.21270 0.87550 0.59500
C 	C 	0.64230 0.21520 0.83660 1.84000
H 	H 	0.65700 0.20090 0.82660 -0.04500
H 	H 	0.65400 0.23340 0.84370 -0.06500
C 	C 	0.61740 0.22550 0.81270 -5.68300
H 	H 	0.62740 0.23570 0.79520 1.75000
H 	H 	0.60300 0.23990 0.82250 1.71800
H 	H 	0.60610 0.20740 0.80530 0.93000
C 	C 	0.11829 0.63520 0.55009 0.28600
C 	C 	0.11206 0.63285 0.51579 -0.01000
C 	C 	0.08527 0.61230 0.50572 -0.13600
H 	H 	0.06780 0.61510 0.51970 0.01500
H 	H 	0.07880 0.61810 0.48490 0.02400
C 	C 	0.09560 0.57828 0.50620 0.02200
C 	C 	0.12410 0.56650 0.50070 -0.03000
H 	H 	0.14150 0.57880 0.49570 0.06500
C 	C 	0.12500 0.53170 0.50330 -0.00700
H 	H 	0.14290 0.51960 0.50020 0.01100
C 	C 	0.09720 0.51980 0.51070 -0.02300
H 	H 	0.09330 0.49850 0.51350 -0.03700
S 	S 	0.06945 0.54877 0.51460 -0.05500
C 	C 	0.13018 0.64993 0.49652 -0.12000
H 	H 	0.14460 0.66320 0.50620 0.09800
C 	C 	0.13016 0.65031 0.46264 0.07900
C 	C 	0.12371 0.62788 0.44055 -0.08600
H 	H 	0.11550 0.60810 0.44490 0.05100
C 	C 	0.14246 0.66799 0.41460 0.10300
C 	C 	0.15760 0.70376 0.45830 -0.02000
C 	C 	0.19283 0.69896 0.45929 0.10200
C 	C 	0.20626 0.66913 0.45889 -0.16000
H 	H 	0.19330 0.65150 0.45880 0.11000
C 	C 	0.23830 0.66539 0.45861 0.10100
H 	H 	0.24690 0.64530 0.45830 0.02900
C 	C 	0.25784 0.69128 0.45883 -0.17500
C 	C 	0.24464 0.72101 0.46012 0.09200
H 	H 	0.25760 0.73860 0.46110 -0.02000
C 	C 	0.21268 0.72471 0.45996 -0.16800
H 	H 	0.20420 0.74480 0.46030 0.05800
C 	C 	0.29225 0.68735 0.45684 0.43300
C 	C 	0.15282 0.68888 0.38852 -0.09400
H 	H 	0.17090 0.70070 0.39520 -0.08100
H 	H 	0.15890 0.67620 0.37090 -0.03100
C 	C 	0.12630 0.71200 0.37900 -0.44600
H 	H 	0.10770 0.70040 0.37270 -0.34900
H 	H 	0.12080 0.72530 0.39670 0.05500
C 	C 	0.13830 0.73240 0.35130 -1.91800
H 	H 	0.15890 0.74070 0.35640 0.51800
H 	H 	0.12420 0.75010 0.34830 0.53300
C 	C 	0.14030 0.71360 0.32060 0.68900
H 	H 	0.14770 0.72690 0.30400 -0.21900
H 	H 	0.11980 0.70570 0.31530 1.26300
H 	H 	0.15450 0.69630 0.32330 -0.71600
N 	N 	0.13112 0.63881 0.41090 -0.25400
N 	N 	0.14206 0.67586 0.44531 -0.14000
O 	O 	0.09916 0.62329 0.56940 -0.38600
O 	O 	0.14259 0.64882 0.56055 -0.38900
O 	O 	0.30117 0.65817 0.45515 -0.52200
H 	H 	0.31960 0.65260 0.45190 0.33100
O 	O 	0.31103 0.70922 0.45711 -0.30000
H 	H 	0.06670 0.61890 0.51670 0.04700
H 	H 	0.08170 0.61570 0.48370 -0.00600
C 	C 	0.08960 0.57760 0.51050 0.02500
C 	C 	0.07010 0.55560 0.52120 -0.03300
H 	H 	0.04960 0.55950 0.52750 0.04800
C 	C 	0.08520 0.52400 0.52170 -0.01500
H 	H 	0.07520 0.50580 0.52860 -0.00500
C 	C 	0.11470 0.52460 0.51110 -0.02200
H 	H 	0.12770 0.50720 0.50950 -0.04200
S 	S 	0.12523 0.56178 0.50103 -0.04900
H 	H 	0.16090 0.70800 0.39740 0.14100
H 	H 	0.16990 0.67870 0.37780 0.07300
C 	C 	0.12670 0.69860 0.36530 0.02900
H 	H 	0.11520 0.68020 0.35840 -0.01400
H 	H 	0.11210 0.71270 0.37550 0.59500
C 	C 	0.14230 0.71520 0.33660 1.84000
H 	H 	0.15700 0.70090 0.32660 -0.04500
H 	H 	0.15400 0.73340 0.34370 -0.06500
C 	C 	0.11740 0.72550 0.31270 -5.68300
H 	H 	0.12740 0.73570 0.29520 1.75000
H 	H 	0.10300 0.73990 0.32250 1.71800
H 	H 	0.10610 0.70740 0.30530 0.93000
C 	C 	0.88171 0.86480 0.55009 0.28600
C 	C 	0.88794 0.86715 0.51579 -0.01000
C 	C 	0.91473 0.88770 0.50572 -0.13600
H 	H 	0.93220 0.88490 0.51970 0.01500
H 	H 	0.92120 0.88190 0.48490 0.02400
C 	C 	0.90440 0.92172 0.50620 0.02200
C 	C 	0.87590 0.93350 0.50070 -0.03000
H 	H 	0.85850 0.92120 0.49570 0.06500
C 	C 	0.87500 0.96830 0.50330 -0.00700
H 	H 	0.85710 0.98040 0.50020 0.01100
C 	C 	0.90280 0.98020 0.51070 -0.02300
H 	H 	0.90670 0.00150 0.51350 -0.03700
S 	S 	0.93055 0.95123 0.51460 -0.05500
C 	C 	0.86982 0.85007 0.49652 -0.12000
H 	H 	0.85540 0.83680 0.50620 0.09800
C 	C 	0.86984 0.84969 0.46264 0.07900
C 	C 	0.87629 0.87212 0.44055 -0.08600
H 	H 	0.88450 0.89190 0.44490 0.05100
C 	C 	0.85754 0.83201 0.41460 0.10300
C 	C 	0.84240 0.79624 0.45830 -0.02000
C 	C 	0.80717 0.80104 0.45929 0.10200
C 	C 	0.79374 0.83087 0.45889 -0.16000
H 	H 	0.80670 0.84850 0.45880 0.11000
C 	C 	0.76170 0.83461 0.45861 0.10100
H 	H 	0.75310 0.85470 0.45830 0.02900
C 	C 	0.74216 0.80872 0.45883 -0.17500
C 	C 	0.75536 0.77899 0.46012 0.09200
H 	H 	0.74240 0.76140 0.46110 -0.02000
C 	C 	0.78732 0.77529 0.45996 -0.16800
H 	H 	0.79580 0.75520 0.46030 0.05800
C 	C 	0.70775 0.81265 0.45684 0.43300
C 	C 	0.84718 0.81112 0.38852 -0.09400
H 	H 	0.82910 0.79930 0.39520 -0.08100
H 	H 	0.84110 0.82380 0.37090 -0.03100
C 	C 	0.87370 0.78800 0.37900 -0.44600
H 	H 	0.89230 0.79960 0.37270 -0.34900
H 	H 	0.87920 0.77470 0.39670 0.05500
C 	C 	0.86170 0.76760 0.35130 -1.91800
H 	H 	0.84110 0.75930 0.35640 0.51800
H 	H 	0.87580 0.74990 0.34830 0.53300
C 	C 	0.85970 0.78640 0.32060 0.68900
H 	H 	0.85230 0.77310 0.30400 -0.21900
H 	H 	0.88020 0.79430 0.31530 1.26300
H 	H 	0.84550 0.80370 0.32330 -0.71600
N 	N 	0.86888 0.86119 0.41090 -0.25400
N 	N 	0.85794 0.82414 0.44531 -0.14000
O 	O 	0.90084 0.87671 0.56940 -0.38600
O 	O 	0.85741 0.85118 0.56055 -0.38900
O 	O 	0.69883 0.84183 0.45515 -0.52200
H 	H 	0.68040 0.84740 0.45190 0.33100
O 	O 	0.68897 0.79078 0.45711 -0.30000
H 	H 	0.93330 0.88110 0.51670 0.04700
H 	H 	0.91830 0.88430 0.48370 -0.00600
C 	C 	0.91040 0.92240 0.51050 0.02500
C 	C 	0.92990 0.94440 0.52120 -0.03300
H 	H 	0.95040 0.94050 0.52750 0.04800
C 	C 	0.91480 0.97600 0.52170 -0.01500
H 	H 	0.92480 0.99420 0.52860 -0.00500
C 	C 	0.88530 0.97540 0.51110 -0.02200
H 	H 	0.87230 0.99280 0.50950 -0.04200
S 	S 	0.87477 0.93822 0.50103 -0.04900
H 	H 	0.83910 0.79200 0.39740 0.14100
H 	H 	0.83010 0.82130 0.37780 0.07300
C 	C 	0.87330 0.80140 0.36530 0.02900
H 	H 	0.88480 0.81980 0.35840 -0.01400
H 	H 	0.88790 0.78730 0.37550 0.59500
C 	C 	0.85770 0.78480 0.33660 1.84000
H 	H 	0.84300 0.79910 0.32660 -0.04500
H 	H 	0.84600 0.76660 0.34370 -0.06500
C 	C 	0.88260 0.77450 0.31270 -5.68300
H 	H 	0.87260 0.76430 0.29520 1.75000
H 	H 	0.89700 0.76010 0.32250 1.71800
H 	H 	0.89390 0.79260 0.30530 0.93000
C 	C 	0.38171 0.36480 0.05009 0.28600
C 	C 	0.38794 0.36715 0.01579 -0.01000
C 	C 	0.41473 0.38770 0.00572 -0.13600
H 	H 	0.43220 0.38490 0.01970 0.01500
H 	H 	0.42120 0.38190 0.98490 0.02400
C 	C 	0.40440 0.42172 0.00620 0.02200
C 	C 	0.37590 0.43350 0.00070 -0.03000
H 	H 	0.35850 0.42120 0.99570 0.06500
C 	C 	0.37500 0.46830 0.00330 -0.00700
H 	H 	0.35710 0.48040 0.00020 0.01100
C 	C 	0.40280 0.48020 0.01070 -0.02300
H 	H 	0.40670 0.50150 0.01350 -0.03700
S 	S 	0.43055 0.45123 0.01460 -0.05500
C 	C 	0.36982 0.35007 0.99652 -0.12000
H 	H 	0.35540 0.33680 0.00620 0.09800
C 	C 	0.36984 0.34969 0.96264 0.07900
C 	C 	0.37629 0.37212 0.94055 -0.08600
H 	H 	0.38450 0.39190 0.94490 0.05100
C 	C 	0.35754 0.33201 0.91460 0.10300
C 	C 	0.34240 0.29624 0.95830 -0.02000
C 	C 	0.30717 0.30104 0.95929 0.10200
C 	C 	0.29374 0.33087 0.95889 -0.16000
H 	H 	0.30670 0.34850 0.95880 0.11000
C 	C 	0.26170 0.33461 0.95861 0.10100
H 	H 	0.25310 0.35470 0.95830 0.02900
C 	C 	0.24216 0.30872 0.95883 -0.17400
C 	C 	0.25536 0.27899 0.96012 0.09200
H 	H 	0.24240 0.26140 0.96110 -0.02000
C 	C 	0.28732 0.27529 0.95996 -0.16800
H 	H 	0.29580 0.25520 0.96030 0.05800
C 	C 	0.20775 0.31265 0.95684 0.43300
C 	C 	0.34718 0.31112 0.88852 -0.09400
H 	H 	0.32910 0.29930 0.89520 -0.08100
H 	H 	0.34110 0.32380 0.87090 -0.03100
C 	C 	0.37370 0.28800 0.87900 -0.44600
H 	H 	0.39230 0.29960 0.87270 -0.34900
H 	H 	0.37920 0.27470 0.89670 0.05500
C 	C 	0.36170 0.26760 0.85130 -1.91800
H 	H 	0.34110 0.25930 0.85640 0.51800
H 	H 	0.37580 0.24990 0.84830 0.53300
C 	C 	0.35970 0.28640 0.82060 0.68900
H 	H 	0.35230 0.27310 0.80400 -0.21900
H 	H 	0.38020 0.29430 0.81530 1.26300
H 	H 	0.34550 0.30370 0.82330 -0.71600
N 	N 	0.36888 0.36119 0.91090 -0.25400
N 	N 	0.35794 0.32414 0.94531 -0.14000
O 	O 	0.40084 0.37671 0.06940 -0.38600
O 	O 	0.35741 0.35118 0.06055 -0.38900
O 	O 	0.19883 0.34183 0.95515 -0.52200
H 	H 	0.18040 0.34740 0.95190 0.33100
O 	O 	0.18897 0.29078 0.95711 -0.30000
H 	H 	0.43330 0.38110 0.01670 0.04700
H 	H 	0.41830 0.38430 0.98370 -0.00600
C 	C 	0.41040 0.42240 0.01050 0.02500
C 	C 	0.42990 0.44440 0.02120 -0.03300
H 	H 	0.45040 0.44050 0.02750 0.04800
C 	C 	0.41480 0.47600 0.02170 -0.01500
H 	H 	0.42480 0.49420 0.02860 -0.00500
C 	C 	0.38530 0.47540 0.01110 -0.02200
H 	H 	0.37230 0.49280 0.00950 -0.04200
S 	S 	0.37477 0.43822 0.00103 -0.04900
H 	H 	0.33910 0.29200 0.89740 0.14100
H 	H 	0.33010 0.32130 0.87780 0.07300
C 	C 	0.37330 0.30140 0.86530 0.02900
H 	H 	0.38480 0.31980 0.85840 -0.01400
H 	H 	0.38790 0.28730 0.87550 0.59500
C 	C 	0.35770 0.28480 0.83660 1.84000
H 	H 	0.34300 0.29910 0.82660 -0.04500
H 	H 	0.34600 0.26660 0.84370 -0.06500
C 	C 	0.38260 0.27450 0.81270 -5.68300
H 	H 	0.37260 0.26430 0.79520 1.75000
H 	H 	0.39700 0.26010 0.82250 1.71800
H 	H 	0.39390 0.29260 0.80530 0.93000
C 	C 	0.38171 0.63520 0.44991 0.28600
C 	C 	0.38794 0.63285 0.48421 -0.01000
C 	C 	0.41473 0.61230 0.49428 -0.13600
H 	H 	0.43220 0.61510 0.48030 0.01500
H 	H 	0.42120 0.61810 0.51510 0.02400
C 	C 	0.40440 0.57828 0.49380 0.02200
C 	C 	0.37590 0.56650 0.49930 -0.03000
H 	H 	0.35850 0.57880 0.50430 0.06500
C 	C 	0.37500 0.53170 0.49670 -0.00700
H 	H 	0.35710 0.51960 0.49980 0.01100
C 	C 	0.40280 0.51980 0.48930 -0.02300
H 	H 	0.40670 0.49850 0.48650 -0.03700
S 	S 	0.43055 0.54877 0.48540 -0.05500
C 	C 	0.36982 0.64993 0.50348 -0.12000
H 	H 	0.35540 0.66320 0.49380 0.09800
C 	C 	0.36984 0.65031 0.53736 0.07900
C 	C 	0.37629 0.62788 0.55945 -0.08600
H 	H 	0.38450 0.60810 0.55510 0.05100
C 	C 	0.35754 0.66799 0.58540 0.10300
C 	C 	0.34240 0.70376 0.54170 -0.02000
C 	C 	0.30717 0.69896 0.54071 0.10200
C 	C 	0.29374 0.66913 0.54111 -0.16000
H 	H 	0.30670 0.65150 0.54120 0.11000
C 	C 	0.26170 0.66539 0.54139 0.10100
H 	H 	0.25310 0.64530 0.54170 0.02900
C 	C 	0.24216 0.69128 0.54117 -0.17500
C 	C 	0.25536 0.72101 0.53988 0.09200
H 	H 	0.24240 0.73860 0.53890 -0.02000
C 	C 	0.28732 0.72471 0.54004 -0.16800
H 	H 	0.29580 0.74480 0.53970 0.05800
C 	C 	0.20775 0.68735 0.54316 0.43300
C 	C 	0.34718 0.68888 0.61148 -0.09400
H 	H 	0.32910 0.70070 0.60480 -0.08100
H 	H 	0.34110 0.67620 0.62910 -0.03100
C 	C 	0.37370 0.71200 0.62100 -0.44600
H 	H 	0.39230 0.70040 0.62730 -0.34900
H 	H 	0.37920 0.72530 0.60330 0.05500
C 	C 	0.36170 0.73240 0.64870 -1.91800
H 	H 	0.34110 0.74070 0.64360 0.51800
H 	H 	0.37580 0.75010 0.65170 0.53300
C 	C 	0.35970 0.71360 0.67940 0.68900
H 	H 	0.35230 0.72690 0.69600 -0.21900
H 	H 	0.38020 0.70570 0.68470 1.26300
H 	H 	0.34550 0.69630 0.67670 -0.71600
N 	N 	0.36888 0.63881 0.58910 -0.25400
N 	N 	0.35794 0.67586 0.55469 -0.14000
O 	O 	0.40084 0.62329 0.43060 -0.38600
O 	O 	0.35741 0.64882 0.43945 -0.38900
O 	O 	0.19883 0.65817 0.54485 -0.52200
H 	H 	0.18040 0.65260 0.54810 0.33100
O 	O 	0.18897 0.70922 0.54289 -0.30000
H 	H 	0.43330 0.61890 0.48330 0.04700
H 	H 	0.41830 0.61570 0.51630 -0.00600
C 	C 	0.41040 0.57760 0.48950 0.02500
C 	C 	0.42990 0.55560 0.47880 -0.03300
H 	H 	0.45040 0.55950 0.47250 0.04800
C 	C 	0.41480 0.52400 0.47830 -0.01500
H 	H 	0.42480 0.50580 0.47140 -0.00500
C 	C 	0.38530 0.52460 0.48890 -0.02200
H 	H 	0.37230 0.50720 0.49050 -0.04200
S 	S 	0.37477 0.56178 0.49897 -0.04900
H 	H 	0.33910 0.70800 0.60260 0.14100
H 	H 	0.33010 0.67870 0.62220 0.07300
C 	C 	0.37330 0.69860 0.63470 0.02900
H 	H 	0.38480 0.68020 0.64160 -0.01400
H 	H 	0.38790 0.71270 0.62450 0.59500
C 	C 	0.35770 0.71520 0.66340 1.84000
H 	H 	0.34300 0.70090 0.67340 -0.04500
H 	H 	0.34600 0.73340 0.65630 -0.06500
C 	C 	0.38260 0.72550 0.68730 -5.68300
H 	H 	0.37260 0.73570 0.70480 1.75000
H 	H 	0.39700 0.73990 0.67750 1.71800
H 	H 	0.39390 0.70740 0.69470 0.93000
C 	C 	0.88171 0.13520 0.94991 0.28600
C 	C 	0.88794 0.13285 0.98421 -0.01000
C 	C 	0.91473 0.11230 0.99428 -0.13600
H 	H 	0.93220 0.11510 0.98030 0.01500
H 	H 	0.92120 0.11810 0.01510 0.02400
C 	C 	0.90440 0.07828 0.99380 0.02200
C 	C 	0.87590 0.06650 0.99930 -0.03000
H 	H 	0.85850 0.07880 0.00430 0.06500
C 	C 	0.87500 0.03170 0.99670 -0.00700
H 	H 	0.85710 0.01960 0.99980 0.01100
C 	C 	0.90280 0.01980 0.98930 -0.02300
H 	H 	0.90670 0.99850 0.98650 -0.03700
S 	S 	0.93055 0.04877 0.98540 -0.05500
C 	C 	0.86982 0.14993 0.00348 -0.12000
H 	H 	0.85540 0.16320 0.99380 0.09800
C 	C 	0.86984 0.15031 0.03736 0.07900
C 	C 	0.87629 0.12788 0.05945 -0.08600
H 	H 	0.88450 0.10810 0.05510 0.05100
C 	C 	0.85754 0.16799 0.08540 0.10300
C 	C 	0.84240 0.20376 0.04170 -0.02000
C 	C 	0.80717 0.19896 0.04071 0.10200
C 	C 	0.79374 0.16913 0.04111 -0.16000
H 	H 	0.80670 0.15150 0.04120 0.11000
C 	C 	0.76170 0.16539 0.04139 0.10100
H 	H 	0.75310 0.14530 0.04170 0.02900
C 	C 	0.74216 0.19128 0.04117 -0.17400
C 	C 	0.75536 0.22101 0.03988 0.09200
H 	H 	0.74240 0.23860 0.03890 -0.02000
C 	C 	0.78732 0.22471 0.04004 -0.16800
H 	H 	0.79580 0.24480 0.03970 0.05800
C 	C 	0.70775 0.18735 0.04316 0.43300
C 	C 	0.84718 0.18888 0.11148 -0.09400
H 	H 	0.82910 0.20070 0.10480 -0.08100
H 	H 	0.84110 0.17620 0.12910 -0.03100
C 	C 	0.87370 0.21200 0.12100 -0.44600
H 	H 	0.89230 0.20040 0.12730 -0.34900
H 	H 	0.87920 0.22530 0.10330 0.05500
C 	C 	0.86170 0.23240 0.14870 -1.91800
H 	H 	0.84110 0.24070 0.14360 0.51800
H 	H 	0.87580 0.25010 0.15170 0.53300
C 	C 	0.85970 0.21360 0.17940 0.68900
H 	H 	0.85230 0.22690 0.19600 -0.21900
H 	H 	0.88020 0.20570 0.18470 1.26300
H 	H 	0.84550 0.19630 0.17670 -0.71600
N 	N 	0.86888 0.13881 0.08910 -0.25400
N 	N 	0.85794 0.17586 0.05469 -0.14000
O 	O 	0.90084 0.12329 0.93060 -0.38600
O 	O 	0.85741 0.14882 0.93945 -0.38900
O 	O 	0.69883 0.15817 0.04485 -0.52200
H 	H 	0.68040 0.15260 0.04810 0.33100
O 	O 	0.68897 0.20922 0.04289 -0.30000
H 	H 	0.93330 0.11890 0.98330 0.04700
H 	H 	0.91830 0.11570 0.01630 -0.00600
C 	C 	0.91040 0.07760 0.98950 0.02500
C 	C 	0.92990 0.05560 0.97880 -0.03300
H 	H 	0.95040 0.05950 0.97250 0.04800
C 	C 	0.91480 0.02400 0.97830 -0.01500
H 	H 	0.92480 0.00580 0.97140 -0.00500
C 	C 	0.88530 0.02460 0.98890 -0.02200
H 	H 	0.87230 0.00720 0.99050 -0.04200
S 	S 	0.87477 0.06178 0.99897 -0.04900
H 	H 	0.83910 0.20800 0.10260 0.14100
H 	H 	0.83010 0.17870 0.12220 0.07300
C 	C 	0.87330 0.19860 0.13470 0.02900
H 	H 	0.88480 0.18020 0.14160 -0.01400
H 	H 	0.88790 0.21270 0.12450 0.59500
C 	C 	0.85770 0.21520 0.16340 1.84000
H 	H 	0.84300 0.20090 0.17340 -0.04500
H 	H 	0.84600 0.23340 0.15630 -0.06500
C 	C 	0.88260 0.22550 0.18730 -5.68300
H 	H 	0.87260 0.23570 0.20480 1.75000
H 	H 	0.89700 0.23990 0.17750 1.71800
H 	H 	0.89390 0.20740 0.19470 0.93000
C 	C 	0.11829 0.36480 0.94991 0.28600
C 	C 	0.11206 0.36715 0.98421 -0.01000
C 	C 	0.08527 0.38770 0.99428 -0.13600
H 	H 	0.06780 0.38490 0.98030 0.01500
H 	H 	0.07880 0.38190 0.01510 0.02400
C 	C 	0.09560 0.42172 0.99380 0.02200
C 	C 	0.12410 0.43350 0.99930 -0.03000
H 	H 	0.14150 0.42120 0.00430 0.06500
C 	C 	0.12500 0.46830 0.99670 -0.00700
H 	H 	0.14290 0.48040 0.99980 0.01100
C 	C 	0.09720 0.48020 0.98930 -0.02300
H 	H 	0.09330 0.50150 0.98650 -0.03700
S 	S 	0.06945 0.45123 0.98540 -0.05500
C 	C 	0.13018 0.35007 0.00348 -0.12000
H 	H 	0.14460 0.33680 0.99380 0.09800
C 	C 	0.13016 0.34969 0.03736 0.07900
C 	C 	0.12371 0.37212 0.05945 -0.08600
H 	H 	0.11550 0.39190 0.05510 0.05100
C 	C 	0.14246 0.33201 0.08540 0.10300
C 	C 	0.15760 0.29624 0.04170 -0.02000
C 	C 	0.19283 0.30104 0.04071 0.10200
C 	C 	0.20626 0.33087 0.04111 -0.16000
H 	H 	0.19330 0.34850 0.04120 0.11000
C 	C 	0.23830 0.33461 0.04139 0.10100
H 	H 	0.24690 0.35470 0.04170 0.02900
C 	C 	0.25784 0.30872 0.04117 -0.17400
C 	C 	0.24464 0.27899 0.03988 0.09200
H 	H 	0.25760 0.26140 0.03890 -0.02000
C 	C 	0.21268 0.27529 0.04004 -0.16800
H 	H 	0.20420 0.25520 0.03970 0.05800
C 	C 	0.29225 0.31265 0.04316 0.43300
C 	C 	0.15282 0.31112 0.11148 -0.09400
H 	H 	0.17090 0.29930 0.10480 -0.08100
H 	H 	0.15890 0.32380 0.12910 -0.03100
C 	C 	0.12630 0.28800 0.12100 -0.44600
H 	H 	0.10770 0.29960 0.12730 -0.34900
H 	H 	0.12080 0.27470 0.10330 0.05500
C 	C 	0.13830 0.26760 0.14870 -1.91800
H 	H 	0.15890 0.25930 0.14360 0.51800
H 	H 	0.12420 0.24990 0.15170 0.53300
C 	C 	0.14030 0.28640 0.17940 0.68900
H 	H 	0.14770 0.27310 0.19600 -0.21900
H 	H 	0.11980 0.29430 0.18470 1.26300
H 	H 	0.15450 0.30370 0.17670 -0.71600
N 	N 	0.13112 0.36119 0.08910 -0.25400
N 	N 	0.14206 0.32414 0.05469 -0.14000
O 	O 	0.09916 0.37671 0.93060 -0.38600
O 	O 	0.14259 0.35118 0.93945 -0.38900
O 	O 	0.30117 0.34183 0.04485 -0.52200
H 	H 	0.31960 0.34740 0.04810 0.33100
O 	O 	0.31103 0.29078 0.04289 -0.30000
H 	H 	0.06670 0.38110 0.98330 0.04700
H 	H 	0.08170 0.38430 0.01630 -0.00600
C 	C 	0.08960 0.42240 0.98950 0.02500
C 	C 	0.07010 0.44440 0.97880 -0.03300
H 	H 	0.04960 0.44050 0.97250 0.04800
C 	C 	0.08520 0.47600 0.97830 -0.01500
H 	H 	0.07520 0.49420 0.97140 -0.00500
C 	C 	0.11470 0.47540 0.98890 -0.02200
H 	H 	0.12770 0.49280 0.99050 -0.04200
S 	S 	0.12523 0.43822 0.99897 -0.04900
H 	H 	0.16090 0.29200 0.10260 0.14100
H 	H 	0.16990 0.32130 0.12220 0.07300
C 	C 	0.12670 0.30140 0.13470 0.02900
H 	H 	0.11520 0.31980 0.14160 -0.01400
H 	H 	0.11210 0.28730 0.12450 0.59500
C 	C 	0.14230 0.28480 0.16340 1.84000
H 	H 	0.15700 0.29910 0.17340 -0.04500
H 	H 	0.15400 0.26660 0.15630 -0.06500
C 	C 	0.11740 0.27450 0.18730 -5.68300
H 	H 	0.12740 0.26430 0.20480 1.75000
H 	H 	0.10300 0.26010 0.17750 1.71800
H 	H 	0.10610 0.29260 0.19470 0.93000
C 	C 	0.61829 0.86480 0.44991 0.28600
C 	C 	0.61206 0.86715 0.48421 -0.01000
C 	C 	0.58527 0.88770 0.49428 -0.13600
H 	H 	0.56780 0.88490 0.48030 0.01500
H 	H 	0.57880 0.88190 0.51510 0.02400
C 	C 	0.59560 0.92172 0.49380 0.02200
C 	C 	0.62410 0.93350 0.49930 -0.03000
H 	H 	0.64150 0.92120 0.50430 0.06500
C 	C 	0.62500 0.96830 0.49670 -0.00700
H 	H 	0.64290 0.98040 0.49980 0.01100
C 	C 	0.59720 0.98020 0.48930 -0.02300
H 	H 	0.59330 0.00150 0.48650 -0.03700
S 	S 	0.56945 0.95123 0.48540 -0.05500
C 	C 	0.63018 0.85007 0.50348 -0.12000
H 	H 	0.64460 0.83680 0.49380 0.09800
C 	C 	0.63016 0.84969 0.53736 0.07900
C 	C 	0.62371 0.87212 0.55945 -0.08600
H 	H 	0.61550 0.89190 0.55510 0.05100
C 	C 	0.64246 0.83201 0.58540 0.10300
C 	C 	0.65760 0.79624 0.54170 -0.02000
C 	C 	0.69283 0.80104 0.54071 0.10200
C 	C 	0.70626 0.83087 0.54111 -0.16000
H 	H 	0.69330 0.84850 0.54120 0.11000
C 	C 	0.73830 0.83461 0.54139 0.10100
H 	H 	0.74690 0.85470 0.54170 0.02900
C 	C 	0.75784 0.80872 0.54117 -0.17500
C 	C 	0.74464 0.77899 0.53988 0.09200
H 	H 	0.75760 0.76140 0.53890 -0.02000
C 	C 	0.71268 0.77529 0.54004 -0.16800
H 	H 	0.70420 0.75520 0.53970 0.05800
C 	C 	0.79225 0.81265 0.54316 0.43300
C 	C 	0.65282 0.81112 0.61148 -0.09400
H 	H 	0.67090 0.79930 0.60480 -0.08100
H 	H 	0.65890 0.82380 0.62910 -0.03100
C 	C 	0.62630 0.78800 0.62100 -0.44600
H 	H 	0.60770 0.79960 0.62730 -0.34900
H 	H 	0.62080 0.77470 0.60330 0.05500
C 	C 	0.63830 0.76760 0.64870 -1.91800
H 	H 	0.65890 0.75930 0.64360 0.51800
H 	H 	0.62420 0.74990 0.65170 0.53300
C 	C 	0.64030 0.78640 0.67940 0.68900
H 	H 	0.64770 0.77310 0.69600 -0.21900
H 	H 	0.61980 0.79430 0.68470 1.26300
H 	H 	0.65450 0.80370 0.67670 -0.71600
N 	N 	0.63112 0.86119 0.58910 -0.25400
N 	N 	0.64206 0.82414 0.55469 -0.14000
O 	O 	0.59916 0.87671 0.43060 -0.38600
O 	O 	0.64259 0.85118 0.43945 -0.38900
O 	O 	0.80117 0.84183 0.54485 -0.52200
H 	H 	0.81960 0.84740 0.54810 0.33100
O 	O 	0.81103 0.79078 0.54289 -0.30000
H 	H 	0.56670 0.88110 0.48330 0.04700
H 	H 	0.58170 0.88430 0.51630 -0.00600
C 	C 	0.58960 0.92240 0.48950 0.02500
C 	C 	0.57010 0.94440 0.47880 -0.03300
H 	H 	0.54960 0.94050 0.47250 0.04800
C 	C 	0.58520 0.97600 0.47830 -0.01500
H 	H 	0.57520 0.99420 0.47140 -0.00500
C 	C 	0.61470 0.97540 0.48890 -0.02200
H 	H 	0.62770 0.99280 0.49050 -0.04200
S 	S 	0.62523 0.93822 0.49897 -0.04900
H 	H 	0.66090 0.79200 0.60260 0.14100
H 	H 	0.66990 0.82130 0.62220 0.07300
C 	C 	0.62670 0.80140 0.63470 0.02900
H 	H 	0.61520 0.81980 0.64160 -0.01400
H 	H 	0.61210 0.78730 0.62450 0.59500
C 	C 	0.64230 0.78480 0.66340 1.84000
H 	H 	0.65700 0.79910 0.67340 -0.04500
H 	H 	0.65400 0.76660 0.65630 -0.06500
C 	C 	0.61740 0.77450 0.68730 -5.68300
H 	H 	0.62740 0.76430 0.70480 1.75000
H 	H 	0.60300 0.76010 0.67750 1.71800
H 	H 	0.60610 0.79260 0.69470 0.93000
C 	C 	0.05009 0.61829 0.13520 0.28600
C 	C 	0.01579 0.61206 0.13285 -0.01000
C 	C 	0.00572 0.58527 0.11230 -0.13600
H 	H 	0.01970 0.56780 0.11510 0.01500
H 	H 	0.98490 0.57880 0.11810 0.02400
C 	C 	0.00620 0.59560 0.07828 0.02200
C 	C 	0.00070 0.62410 0.06650 -0.03000
H 	H 	0.99570 0.64150 0.07880 0.06500
C 	C 	0.00330 0.62500 0.03170 -0.00700
H 	H 	0.00020 0.64290 0.01960 0.01100
C 	C 	0.01070 0.59720 0.01980 -0.02300
H 	H 	0.01350 0.59330 0.99850 -0.03700
S 	S 	0.01460 0.56945 0.04877 -0.05500
C 	C 	0.99652 0.63018 0.14993 -0.12000
H 	H 	0.00620 0.64460 0.16320 0.09800
C 	C 	0.96264 0.63016 0.15031 0.07900
C 	C 	0.94055 0.62371 0.12788 -0.08600
H 	H 	0.94490 0.61550 0.10810 0.05100
C 	C 	0.91460 0.64246 0.16799 0.10300
C 	C 	0.95830 0.65760 0.20376 -0.02000
C 	C 	0.95929 0.69283 0.19896 0.10200
C 	C 	0.95889 0.70626 0.16913 -0.16000
H 	H 	0.95880 0.69330 0.15150 0.11000
C 	C 	0.95861 0.73830 0.16539 0.10100
H 	H 	0.95830 0.74690 0.14530 0.02900
C 	C 	0.95883 0.75784 0.19128 -0.17400
C 	C 	0.96012 0.74464 0.22101 0.09200
H 	H 	0.96110 0.75760 0.23860 -0.02000
C 	C 	0.95996 0.71268 0.22471 -0.16800
H 	H 	0.96030 0.70420 0.24480 0.05800
C 	C 	0.95684 0.79225 0.18735 0.43300
C 	C 	0.88852 0.65282 0.18888 -0.09400
H 	H 	0.89520 0.67090 0.20070 -0.08100
H 	H 	0.87090 0.65890 0.17620 -0.03100
C 	C 	0.87900 0.62630 0.21200 -0.44600
H 	H 	0.87270 0.60770 0.20040 -0.34900
H 	H 	0.89670 0.62080 0.22530 0.05500
C 	C 	0.85130 0.63830 0.23240 -1.91800
H 	H 	0.85640 0.65890 0.24070 0.51800
H 	H 	0.84830 0.62420 0.25010 0.53300
C 	C 	0.82060 0.64030 0.21360 0.68900
H 	H 	0.80400 0.64770 0.22690 -0.21900
H 	H 	0.81530 0.61980 0.20570 1.26300
H 	H 	0.82330 0.65450 0.19630 -0.71600
N 	N 	0.91090 0.63112 0.13881 -0.25400
N 	N 	0.94531 0.64206 0.17586 -0.14000
O 	O 	0.06940 0.59916 0.12329 -0.38600
O 	O 	0.06055 0.64259 0.14882 -0.38900
O 	O 	0.95515 0.80117 0.15817 -0.52200
H 	H 	0.95190 0.81960 0.15260 0.33100
O 	O 	0.95711 0.81103 0.20922 -0.30000
H 	H 	0.01670 0.56670 0.11890 0.04700
H 	H 	0.98370 0.58170 0.11570 -0.00600
C 	C 	0.01050 0.58960 0.07760 0.02500
C 	C 	0.02120 0.57010 0.05560 -0.03300
H 	H 	0.02750 0.54960 0.05950 0.04800
C 	C 	0.02170 0.58520 0.02400 -0.01500
H 	H 	0.02860 0.57520 0.00580 -0.00500
C 	C 	0.01110 0.61470 0.02460 -0.02200
H 	H 	0.00950 0.62770 0.00720 -0.04200
S 	S 	0.00103 0.62523 0.06178 -0.04900
H 	H 	0.89740 0.66090 0.20800 0.14100
H 	H 	0.87780 0.66990 0.17870 0.07300
C 	C 	0.86530 0.62670 0.19860 0.02900
H 	H 	0.85840 0.61520 0.18020 -0.01400
H 	H 	0.87550 0.61210 0.21270 0.59500
C 	C 	0.83660 0.64230 0.21520 1.84000
H 	H 	0.82660 0.65700 0.20090 -0.04500
H 	H 	0.84370 0.65400 0.23340 -0.06500
C 	C 	0.81270 0.61740 0.22550 -5.68300
H 	H 	0.79520 0.62740 0.23570 1.75000
H 	H 	0.82250 0.60300 0.23990 1.71800
H 	H 	0.80530 0.60610 0.20740 0.93000
C 	C 	0.55009 0.11829 0.63520 0.28600
C 	C 	0.51579 0.11206 0.63285 -0.01000
C 	C 	0.50572 0.08527 0.61230 -0.13600
H 	H 	0.51970 0.06780 0.61510 0.01500
H 	H 	0.48490 0.07880 0.61810 0.02400
C 	C 	0.50620 0.09560 0.57828 0.02200
C 	C 	0.50070 0.12410 0.56650 -0.03000
H 	H 	0.49570 0.14150 0.57880 0.06500
C 	C 	0.50330 0.12500 0.53170 -0.00700
H 	H 	0.50020 0.14290 0.51960 0.01100
C 	C 	0.51070 0.09720 0.51980 -0.02300
H 	H 	0.51350 0.09330 0.49850 -0.03700
S 	S 	0.51460 0.06945 0.54877 -0.05500
C 	C 	0.49652 0.13018 0.64993 -0.12000
H 	H 	0.50620 0.14460 0.66320 0.09800
C 	C 	0.46264 0.13016 0.65031 0.07900
C 	C 	0.44055 0.12371 0.62788 -0.08600
H 	H 	0.44490 0.11550 0.60810 0.05100
C 	C 	0.41460 0.14246 0.66799 0.10300
C 	C 	0.45830 0.15760 0.70376 -0.02000
C 	C 	0.45929 0.19283 0.69896 0.10200
C 	C 	0.45889 0.20626 0.66913 -0.16000
H 	H 	0.45880 0.19330 0.65150 0.11000
C 	C 	0.45861 0.23830 0.66539 0.10100
H 	H 	0.45830 0.24690 0.64530 0.02900
C 	C 	0.45883 0.25784 0.69128 -0.17500
C 	C 	0.46012 0.24464 0.72101 0.09200
H 	H 	0.46110 0.25760 0.73860 -0.02000
C 	C 	0.45996 0.21268 0.72471 -0.16800
H 	H 	0.46030 0.20420 0.74480 0.05800
C 	C 	0.45684 0.29225 0.68735 0.43300
C 	C 	0.38852 0.15282 0.68888 -0.09400
H 	H 	0.39520 0.17090 0.70070 -0.08100
H 	H 	0.37090 0.15890 0.67620 -0.03100
C 	C 	0.37900 0.12630 0.71200 -0.44600
H 	H 	0.37270 0.10770 0.70040 -0.34900
H 	H 	0.39670 0.12080 0.72530 0.05500
C 	C 	0.35130 0.13830 0.73240 -1.91800
H 	H 	0.35640 0.15890 0.74070 0.51800
H 	H 	0.34830 0.12420 0.75010 0.53300
C 	C 	0.32060 0.14030 0.71360 0.68900
H 	H 	0.30400 0.14770 0.72690 -0.21900
H 	H 	0.31530 0.11980 0.70570 1.26300
H 	H 	0.32330 0.15450 0.69630 -0.71600
N 	N 	0.41090 0.13112 0.63881 -0.25400
N 	N 	0.44531 0.14206 0.67586 -0.14000
O 	O 	0.56940 0.09916 0.62329 -0.38600
O 	O 	0.56055 0.14259 0.64882 -0.38900
O 	O 	0.45515 0.30117 0.65817 -0.52200
H 	H 	0.45190 0.31960 0.65260 0.33100
O 	O 	0.45711 0.31103 0.70922 -0.30000
H 	H 	0.51670 0.06670 0.61890 0.04700
H 	H 	0.48370 0.08170 0.61570 -0.00600
C 	C 	0.51050 0.08960 0.57760 0.02500
C 	C 	0.52120 0.07010 0.55560 -0.03300
H 	H 	0.52750 0.04960 0.55950 0.04800
C 	C 	0.52170 0.08520 0.52400 -0.01500
H 	H 	0.52860 0.07520 0.50580 -0.00500
C 	C 	0.51110 0.11470 0.52460 -0.02200
H 	H 	0.50950 0.12770 0.50720 -0.04200
S 	S 	0.50103 0.12523 0.56178 -0.04900
H 	H 	0.39740 0.16090 0.70800 0.14100
H 	H 	0.37780 0.16990 0.67870 0.07300
C 	C 	0.36530 0.12670 0.69860 0.02900
H 	H 	0.35840 0.11520 0.68020 -0.01400
H 	H 	0.37550 0.11210 0.71270 0.59500
C 	C 	0.33660 0.14230 0.71520 1.84000
H 	H 	0.32660 0.15700 0.70090 -0.04500
H 	H 	0.34370 0.15400 0.73340 -0.06500
C 	C 	0.31270 0.11740 0.72550 -5.68300
H 	H 	0.29520 0.12740 0.73570 1.75000
H 	H 	0.32250 0.10300 0.73990 1.71800
H 	H 	0.30530 0.10610 0.70740 0.93000
C 	C 	0.55009 0.88171 0.86480 0.28600
C 	C 	0.51579 0.88794 0.86715 -0.01000
C 	C 	0.50572 0.91473 0.88770 -0.13600
H 	H 	0.51970 0.93220 0.88490 0.01500
H 	H 	0.48490 0.92120 0.88190 0.02400
C 	C 	0.50620 0.90440 0.92172 0.02200
C 	C 	0.50070 0.87590 0.93350 -0.03000
H 	H 	0.49570 0.85850 0.92120 0.06500
C 	C 	0.50330 0.87500 0.96830 -0.00700
H 	H 	0.50020 0.85710 0.98040 0.01100
C 	C 	0.51070 0.90280 0.98020 -0.02300
H 	H 	0.51350 0.90670 0.00150 -0.03700
S 	S 	0.51460 0.93055 0.95123 -0.05500
C 	C 	0.49652 0.86982 0.85007 -0.12000
H 	H 	0.50620 0.85540 0.83680 0.09800
C 	C 	0.46264 0.86984 0.84969 0.07900
C 	C 	0.44055 0.87629 0.87212 -0.08600
H 	H 	0.44490 0.88450 0.89190 0.05100
C 	C 	0.41460 0.85754 0.83201 0.10300
C 	C 	0.45830 0.84240 0.79624 -0.02000
C 	C 	0.45929 0.80717 0.80104 0.10200
C 	C 	0.45889 0.79374 0.83087 -0.16000
H 	H 	0.45880 0.80670 0.84850 0.11000
C 	C 	0.45861 0.76170 0.83461 0.10100
H 	H 	0.45830 0.75310 0.85470 0.02900
C 	C 	0.45883 0.74216 0.80872 -0.17500
C 	C 	0.46012 0.75536 0.77899 0.09200
H 	H 	0.46110 0.74240 0.76140 -0.02000
C 	C 	0.45996 0.78732 0.77529 -0.16800
H 	H 	0.46030 0.79580 0.75520 0.05800
C 	C 	0.45684 0.70775 0.81265 0.43300
C 	C 	0.38852 0.84718 0.81112 -0.09400
H 	H 	0.39520 0.82910 0.79930 -0.08100
H 	H 	0.37090 0.84110 0.82380 -0.03100
C 	C 	0.37900 0.87370 0.78800 -0.44600
H 	H 	0.37270 0.89230 0.79960 -0.34900
H 	H 	0.39670 0.87920 0.77470 0.05500
C 	C 	0.35130 0.86170 0.76760 -1.91800
H 	H 	0.35640 0.84110 0.75930 0.51800
H 	H 	0.34830 0.87580 0.74990 0.53300
C 	C 	0.32060 0.85970 0.78640 0.68900
H 	H 	0.30400 0.85230 0.77310 -0.21900
H 	H 	0.31530 0.88020 0.79430 1.26300
H 	H 	0.32330 0.84550 0.80370 -0.71600
N 	N 	0.41090 0.86888 0.86119 -0.25400
N 	N 	0.44531 0.85794 0.82414 -0.14000
O 	O 	0.56940 0.90084 0.87671 -0.38600
O 	O 	0.56055 0.85741 0.85118 -0.38900
O 	O 	0.45515 0.69883 0.84183 -0.52200
H 	H 	0.45190 0.68040 0.84740 0.33100
O 	O 	0.45711 0.68897 0.79078 -0.30000
H 	H 	0.51670 0.93330 0.88110 0.04700
H 	H 	0.48370 0.91830 0.88430 -0.00600
C 	C 	0.51050 0.91040 0.92240 0.02500
C 	C 	0.52120 0.92990 0.94440 -0.03300
H 	H 	0.52750 0.95040 0.94050 0.04800
C 	C 	0.52170 0.91480 0.97600 -0.01500
H 	H 	0.52860 0.92480 0.99420 -0.00500
C 	C 	0.51110 0.88530 0.97540 -0.02200
H 	H 	0.50950 0.87230 0.99280 -0.04200
S 	S 	0.50103 0.87477 0.93822 -0.04900
H 	H 	0.39740 0.83910 0.79200 0.14100
H 	H 	0.37780 0.83010 0.82130 0.07300
C 	C 	0.36530 0.87330 0.80140 0.02900
H 	H 	0.35840 0.88480 0.81980 -0.01400
H 	H 	0.37550 0.88790 0.78730 0.59500
C 	C 	0.33660 0.85770 0.78480 1.84000
H 	H 	0.32660 0.84300 0.79910 -0.04500
H 	H 	0.34370 0.84600 0.76660 -0.06500
C 	C 	0.31270 0.88260 0.77450 -5.68300
H 	H 	0.29520 0.87260 0.76430 1.75000
H 	H 	0.32250 0.89700 0.76010 1.71800
H 	H 	0.30530 0.89390 0.79260 0.93000
C 	C 	0.05009 0.38171 0.36480 0.28600
C 	C 	0.01579 0.38794 0.36715 -0.01000
C 	C 	0.00572 0.41473 0.38770 -0.13600
H 	H 	0.01970 0.43220 0.38490 0.01500
H 	H 	0.98490 0.42120 0.38190 0.02400
C 	C 	0.00620 0.40440 0.42172 0.02200
C 	C 	0.00070 0.37590 0.43350 -0.03000
H 	H 	0.99570 0.35850 0.42120 0.06500
C 	C 	0.00330 0.37500 0.46830 -0.00700
H 	H 	0.00020 0.35710 0.48040 0.01100
C 	C 	0.01070 0.40280 0.48020 -0.02300
H 	H 	0.01350 0.40670 0.50150 -0.03700
S 	S 	0.01460 0.43055 0.45123 -0.05500
C 	C 	0.99652 0.36982 0.35007 -0.12000
H 	H 	0.00620 0.35540 0.33680 0.09800
C 	C 	0.96264 0.36984 0.34969 0.07900
C 	C 	0.94055 0.37629 0.37212 -0.08600
H 	H 	0.94490 0.38450 0.39190 0.05100
C 	C 	0.91460 0.35754 0.33201 0.10300
C 	C 	0.95830 0.34240 0.29624 -0.02000
C 	C 	0.95929 0.30717 0.30104 0.10200
C 	C 	0.95889 0.29374 0.33087 -0.16000
H 	H 	0.95880 0.30670 0.34850 0.11000
C 	C 	0.95861 0.26170 0.33461 0.10100
H 	H 	0.95830 0.25310 0.35470 0.02900
C 	C 	0.95883 0.24216 0.30872 -0.17400
C 	C 	0.96012 0.25536 0.27899 0.09200
H 	H 	0.96110 0.24240 0.26140 -0.02000
C 	C 	0.95996 0.28732 0.27529 -0.16800
H 	H 	0.96030 0.29580 0.25520 0.05800
C 	C 	0.95684 0.20775 0.31265 0.43300
C 	C 	0.88852 0.34718 0.31112 -0.09400
H 	H 	0.89520 0.32910 0.29930 -0.08100
H 	H 	0.87090 0.34110 0.32380 -0.03100
C 	C 	0.87900 0.37370 0.28800 -0.44600
H 	H 	0.87270 0.39230 0.29960 -0.34900
H 	H 	0.89670 0.37920 0.27470 0.05500
C 	C 	0.85130 0.36170 0.26760 -1.91800
H 	H 	0.85640 0.34110 0.25930 0.51800
H 	H 	0.84830 0.37580 0.24990 0.53300
C 	C 	0.82060 0.35970 0.28640 0.68900
H 	H 	0.80400 0.35230 0.27310 -0.21900
H 	H 	0.81530 0.38020 0.29430 1.26300
H 	H 	0.82330 0.34550 0.30370 -0.71600
N 	N 	0.91090 0.36888 0.36119 -0.25400
N 	N 	0.94531 0.35794 0.32414 -0.14000
O 	O 	0.06940 0.40084 0.37671 -0.38600
O 	O 	0.06055 0.35741 0.35118 -0.38900
O 	O 	0.95515 0.19883 0.34183 -0.52200
H 	H 	0.95190 0.18040 0.34740 0.33100
O 	O 	0.95711 0.18897 0.29078 -0.30000
H 	H 	0.01670 0.43330 0.38110 0.04700
H 	H 	0.98370 0.41830 0.38430 -0.00600
C 	C 	0.01050 0.41040 0.42240 0.02500
C 	C 	0.02120 0.42990 0.44440 -0.03300
H 	H 	0.02750 0.45040 0.44050 0.04800
C 	C 	0.02170 0.41480 0.47600 -0.01500
H 	H 	0.02860 0.42480 0.49420 -0.00500
C 	C 	0.01110 0.38530 0.47540 -0.02200
H 	H 	0.00950 0.37230 0.49280 -0.04200
S 	S 	0.00103 0.37477 0.43822 -0.04900
H 	H 	0.89740 0.33910 0.29200 0.14100
H 	H 	0.87780 0.33010 0.32130 0.07300
C 	C 	0.86530 0.37330 0.30140 0.02900
H 	H 	0.85840 0.38480 0.31980 -0.01400
H 	H 	0.87550 0.38790 0.28730 0.59500
C 	C 	0.83660 0.35770 0.28480 1.84000
H 	H 	0.82660 0.34300 0.29910 -0.04500
H 	H 	0.84370 0.34600 0.26660 -0.06500
C 	C 	0.81270 0.38260 0.27450 -5.68300
H 	H 	0.79520 0.37260 0.26430 1.75000
H 	H 	0.82250 0.39700 0.26010 1.71800
H 	H 	0.80530 0.39390 0.29260 0.93000
C 	C 	0.44991 0.38171 0.63520 0.28600
C 	C 	0.48421 0.38794 0.63285 -0.01000
C 	C 	0.49428 0.41473 0.61230 -0.13600
H 	H 	0.48030 0.43220 0.61510 0.01500
H 	H 	0.51510 0.42120 0.61810 0.02400
C 	C 	0.49380 0.40440 0.57828 0.02200
C 	C 	0.49930 0.37590 0.56650 -0.03000
H 	H 	0.50430 0.35850 0.57880 0.06500
C 	C 	0.49670 0.37500 0.53170 -0.00700
H 	H 	0.49980 0.35710 0.51960 0.01100
C 	C 	0.48930 0.40280 0.51980 -0.02300
H 	H 	0.48650 0.40670 0.49850 -0.03700
S 	S 	0.48540 0.43055 0.54877 -0.05500
C 	C 	0.50348 0.36982 0.64993 -0.12000
H 	H 	0.49380 0.35540 0.66320 0.09800
C 	C 	0.53736 0.36984 0.65031 0.07900
C 	C 	0.55945 0.37629 0.62788 -0.08600
H 	H 	0.55510 0.38450 0.60810 0.05100
C 	C 	0.58540 0.35754 0.66799 0.10300
C 	C 	0.54170 0.34240 0.70376 -0.02000
C 	C 	0.54071 0.30717 0.69896 0.10200
C 	C 	0.54111 0.29374 0.66913 -0.16000
H 	H 	0.54120 0.30670 0.65150 0.11000
C 	C 	0.54139 0.26170 0.66539 0.10100
H 	H 	0.54170 0.25310 0.64530 0.02900
C 	C 	0.54117 0.24216 0.69128 -0.17500
C 	C 	0.53988 0.25536 0.72101 0.09200
H 	H 	0.53890 0.24240 0.73860 -0.02000
C 	C 	0.54004 0.28732 0.72471 -0.16800
H 	H 	0.53970 0.29580 0.74480 0.05800
C 	C 	0.54316 0.20775 0.68735 0.43300
C 	C 	0.61148 0.34718 0.68888 -0.09400
H 	H 	0.60480 0.32910 0.70070 -0.08100
H 	H 	0.62910 0.34110 0.67620 -0.03100
C 	C 	0.62100 0.37370 0.71200 -0.44600
H 	H 	0.62730 0.39230 0.70040 -0.34900
H 	H 	0.60330 0.37920 0.72530 0.05500
C 	C 	0.64870 0.36170 0.73240 -1.91800
H 	H 	0.64360 0.34110 0.74070 0.51800
H 	H 	0.65170 0.37580 0.75010 0.53300
C 	C 	0.67940 0.35970 0.71360 0.68900
H 	H 	0.69600 0.35230 0.72690 -0.21900
H 	H 	0.68470 0.38020 0.70570 1.26300
H 	H 	0.67670 0.34550 0.69630 -0.71600
N 	N 	0.58910 0.36888 0.63881 -0.25400
N 	N 	0.55469 0.35794 0.67586 -0.14000
O 	O 	0.43060 0.40084 0.62329 -0.38600
O 	O 	0.43945 0.35741 0.64882 -0.38900
O 	O 	0.54485 0.19883 0.65817 -0.52200
H 	H 	0.54810 0.18040 0.65260 0.33100
O 	O 	0.54289 0.18897 0.70922 -0.30000
H 	H 	0.48330 0.43330 0.61890 0.04700
H 	H 	0.51630 0.41830 0.61570 -0.00600
C 	C 	0.48950 0.41040 0.57760 0.02500
C 	C 	0.47880 0.42990 0.55560 -0.03300
H 	H 	0.47250 0.45040 0.55950 0.04800
C 	C 	0.47830 0.41480 0.52400 -0.01500
H 	H 	0.47140 0.42480 0.50580 -0.00500
C 	C 	0.48890 0.38530 0.52460 -0.02200
H 	H 	0.49050 0.37230 0.50720 -0.04200
S 	S 	0.49897 0.37477 0.56178 -0.04900
H 	H 	0.60260 0.33910 0.70800 0.14100
H 	H 	0.62220 0.33010 0.67870 0.07300
C 	C 	0.63470 0.37330 0.69860 0.02900
H 	H 	0.64160 0.38480 0.68020 -0.01400
H 	H 	0.62450 0.38790 0.71270 0.59500
C 	C 	0.66340 0.35770 0.71520 1.84000
H 	H 	0.67340 0.34300 0.70090 -0.04500
H 	H 	0.65630 0.34600 0.73340 -0.06500
C 	C 	0.68730 0.38260 0.72550 -5.68300
H 	H 	0.70480 0.37260 0.73570 1.75000
H 	H 	0.67750 0.39700 0.73990 1.71800
H 	H 	0.69470 0.39390 0.70740 0.93000
C 	C 	0.94991 0.88171 0.13520 0.28600
C 	C 	0.98421 0.88794 0.13285 -0.01000
C 	C 	0.99428 0.91473 0.11230 -0.13600
H 	H 	0.98030 0.93220 0.11510 0.01500
H 	H 	0.01510 0.92120 0.11810 0.02400
C 	C 	0.99380 0.90440 0.07828 0.02200
C 	C 	0.99930 0.87590 0.06650 -0.03000
H 	H 	0.00430 0.85850 0.07880 0.06500
C 	C 	0.99670 0.87500 0.03170 -0.00700
H 	H 	0.99980 0.85710 0.01960 0.01100
C 	C 	0.98930 0.90280 0.01980 -0.02300
H 	H 	0.98650 0.90670 0.99850 -0.03700
S 	S 	0.98540 0.93055 0.04877 -0.05500
C 	C 	0.00348 0.86982 0.14993 -0.12000
H 	H 	0.99380 0.85540 0.16320 0.09800
C 	C 	0.03736 0.86984 0.15031 0.07900
C 	C 	0.05945 0.87629 0.12788 -0.08600
H 	H 	0.05510 0.88450 0.10810 0.05100
C 	C 	0.08540 0.85754 0.16799 0.10300
C 	C 	0.04170 0.84240 0.20376 -0.02000
C 	C 	0.04071 0.80717 0.19896 0.10200
C 	C 	0.04111 0.79374 0.16913 -0.16000
H 	H 	0.04120 0.80670 0.15150 0.11000
C 	C 	0.04139 0.76170 0.16539 0.10100
H 	H 	0.04170 0.75310 0.14530 0.02900
C 	C 	0.04117 0.74216 0.19128 -0.17400
C 	C 	0.03988 0.75536 0.22101 0.09200
H 	H 	0.03890 0.74240 0.23860 -0.02000
C 	C 	0.04004 0.78732 0.22471 -0.16800
H 	H 	0.03970 0.79580 0.24480 0.05800
C 	C 	0.04316 0.70775 0.18735 0.43300
C 	C 	0.11148 0.84718 0.18888 -0.09400
H 	H 	0.10480 0.82910 0.20070 -0.08100
H 	H 	0.12910 0.84110 0.17620 -0.03100
C 	C 	0.12100 0.87370 0.21200 -0.44600
H 	H 	0.12730 0.89230 0.20040 -0.34900
H 	H 	0.10330 0.87920 0.22530 0.05500
C 	C 	0.14870 0.86170 0.23240 -1.91800
H 	H 	0.14360 0.84110 0.24070 0.51800
H 	H 	0.15170 0.87580 0.25010 0.53300
C 	C 	0.17940 0.85970 0.21360 0.68900
H 	H 	0.19600 0.85230 0.22690 -0.21900
H 	H 	0.18470 0.88020 0.20570 1.26300
H 	H 	0.17670 0.84550 0.19630 -0.71600
N 	N 	0.08910 0.86888 0.13881 -0.25400
N 	N 	0.05469 0.85794 0.17586 -0.14000
O 	O 	0.93060 0.90084 0.12329 -0.38600
O 	O 	0.93945 0.85741 0.14882 -0.38900
O 	O 	0.04485 0.69883 0.15817 -0.52200
H 	H 	0.04810 0.68040 0.15260 0.33100
O 	O 	0.04289 0.68897 0.20922 -0.30000
H 	H 	0.98330 0.93330 0.11890 0.04700
H 	H 	0.01630 0.91830 0.11570 -0.00600
C 	C 	0.98950 0.91040 0.07760 0.02500
C 	C 	0.97880 0.92990 0.05560 -0.03300
H 	H 	0.97250 0.95040 0.05950 0.04800
C 	C 	0.97830 0.91480 0.02400 -0.01500
H 	H 	0.97140 0.92480 0.00580 -0.00500
C 	C 	0.98890 0.88530 0.02460 -0.02200
H 	H 	0.99050 0.87230 0.00720 -0.04200
S 	S 	0.99897 0.87477 0.06178 -0.04900
H 	H 	0.10260 0.83910 0.20800 0.14100
H 	H 	0.12220 0.83010 0.17870 0.07300
C 	C 	0.13470 0.87330 0.19860 0.02900
H 	H 	0.14160 0.88480 0.18020 -0.01400
H 	H 	0.12450 0.88790 0.21270 0.59500
C 	C 	0.16340 0.85770 0.21520 1.84000
H 	H 	0.17340 0.84300 0.20090 -0.04500
H 	H 	0.15630 0.84600 0.23340 -0.06500
C 	C 	0.18730 0.88260 0.22550 -5.68300
H 	H 	0.20480 0.87260 0.23570 1.75000
H 	H 	0.17750 0.89700 0.23990 1.71800
H 	H 	0.19470 0.89390 0.20740 0.93000
C 	C 	0.94991 0.11829 0.36480 0.28600
C 	C 	0.98421 0.11206 0.36715 -0.01000
C 	C 	0.99428 0.08527 0.38770 -0.13600
H 	H 	0.98030 0.06780 0.38490 0.01500
H 	H 	0.01510 0.07880 0.38190 0.02400
C 	C 	0.99380 0.09560 0.42172 0.02200
C 	C 	0.99930 0.12410 0.43350 -0.03000
H 	H 	0.00430 0.14150 0.42120 0.06500
C 	C 	0.99670 0.12500 0.46830 -0.00700
H 	H 	0.99980 0.14290 0.48040 0.01100
C 	C 	0.98930 0.09720 0.48020 -0.02300
H 	H 	0.98650 0.09330 0.50150 -0.03700
S 	S 	0.98540 0.06945 0.45123 -0.05500
C 	C 	0.00348 0.13018 0.35007 -0.12000
H 	H 	0.99380 0.14460 0.33680 0.09800
C 	C 	0.03736 0.13016 0.34969 0.07900
C 	C 	0.05945 0.12371 0.37212 -0.08600
H 	H 	0.05510 0.11550 0.39190 0.05100
C 	C 	0.08540 0.14246 0.33201 0.10300
C 	C 	0.04170 0.15760 0.29624 -0.02000
C 	C 	0.04071 0.19283 0.30104 0.10200
C 	C 	0.04111 0.20626 0.33087 -0.16000
H 	H 	0.04120 0.19330 0.34850 0.11000
C 	C 	0.04139 0.23830 0.33461 0.10100
H 	H 	0.04170 0.24690 0.35470 0.02900
C 	C 	0.04117 0.25784 0.30872 -0.17400
C 	C 	0.03988 0.24464 0.27899 0.09200
H 	H 	0.03890 0.25760 0.26140 -0.02000
C 	C 	0.04004 0.21268 0.27529 -0.16800
H 	H 	0.03970 0.20420 0.25520 0.05800
C 	C 	0.04316 0.29225 0.31265 0.43300
C 	C 	0.11148 0.15282 0.31112 -0.09400
H 	H 	0.10480 0.17090 0.29930 -0.08100
H 	H 	0.12910 0.15890 0.32380 -0.03100
C 	C 	0.12100 0.12630 0.28800 -0.44600
H 	H 	0.12730 0.10770 0.29960 -0.34900
H 	H 	0.10330 0.12080 0.27470 0.05500
C 	C 	0.14870 0.13830 0.26760 -1.91800
H 	H 	0.14360 0.15890 0.25930 0.51800
H 	H 	0.15170 0.12420 0.24990 0.53300
C 	C 	0.17940 0.14030 0.28640 0.68900
H 	H 	0.19600 0.14770 0.27310 -0.21900
H 	H 	0.18470 0.11980 0.29430 1.26300
H 	H 	0.17670 0.15450 0.30370 -0.71600
N 	N 	0.08910 0.13112 0.36119 -0.25400
N 	N 	0.05469 0.14206 0.32414 -0.14000
O 	O 	0.93060 0.09916 0.37671 -0.38600
O 	O 	0.93945 0.14259 0.35118 -0.38900
O 	O 	0.04485 0.30117 0.34183 -0.52200
H 	H 	0.04810 0.31960 0.34740 0.33100
O 	O 	0.04289 0.31103 0.29078 -0.30000
H 	H 	0.98330 0.06670 0.38110 0.04700
H 	H 	0.01630 0.08170 0.38430 -0.00600
C 	C 	0.98950 0.08960 0.42240 0.02500
C 	C 	0.97880 0.07010 0.44440 -0.03300
H 	H 	0.97250 0.04960 0.44050 0.04800
C 	C 	0.97830 0.08520 0.47600 -0.01500
H 	H 	0.97140 0.07520 0.49420 -0.00500
C 	C 	0.98890 0.11470 0.47540 -0.02200
H 	H 	0.99050 0.12770 0.49280 -0.04200
S 	S 	0.99897 0.12523 0.43822 -0.04900
H 	H 	0.10260 0.16090 0.29200 0.14100
H 	H 	0.12220 0.16990 0.32130 0.07300
C 	C 	0.13470 0.12670 0.30140 0.02900
H 	H 	0.14160 0.11520 0.31980 -0.01400
H 	H 	0.12450 0.11210 0.28730 0.59500
C 	C 	0.16340 0.14230 0.28480 1.84000
H 	H 	0.17340 0.15700 0.29910 -0.04500
H 	H 	0.15630 0.15400 0.26660 -0.06500
C 	C 	0.18730 0.11740 0.27450 -5.68300
H 	H 	0.20480 0.12740 0.26430 1.75000
H 	H 	0.17750 0.10300 0.26010 1.71800
H 	H 	0.19470 0.10610 0.29260 0.93000
C 	C 	0.44991 0.61829 0.86480 0.28600
C 	C 	0.48421 0.61206 0.86715 -0.01000
C 	C 	0.49428 0.58527 0.88770 -0.13600
H 	H 	0.48030 0.56780 0.88490 0.01500
H 	H 	0.51510 0.57880 0.88190 0.02400
C 	C 	0.49380 0.59560 0.92172 0.02200
C 	C 	0.49930 0.62410 0.93350 -0.03000
H 	H 	0.50430 0.64150 0.92120 0.06500
C 	C 	0.49670 0.62500 0.96830 -0.00700
H 	H 	0.49980 0.64290 0.98040 0.01100
C 	C 	0.48930 0.59720 0.98020 -0.02300
H 	H 	0.48650 0.59330 0.00150 -0.03700
S 	S 	0.48540 0.56945 0.95123 -0.05500
C 	C 	0.50348 0.63018 0.85007 -0.12000
H 	H 	0.49380 0.64460 0.83680 0.09800
C 	C 	0.53736 0.63016 0.84969 0.07900
C 	C 	0.55945 0.62371 0.87212 -0.08600
H 	H 	0.55510 0.61550 0.89190 0.05100
C 	C 	0.58540 0.64246 0.83201 0.10300
C 	C 	0.54170 0.65760 0.79624 -0.02000
C 	C 	0.54071 0.69283 0.80104 0.10200
C 	C 	0.54111 0.70626 0.83087 -0.16000
H 	H 	0.54120 0.69330 0.84850 0.11000
C 	C 	0.54139 0.73830 0.83461 0.10100
H 	H 	0.54170 0.74690 0.85470 0.02900
C 	C 	0.54117 0.75784 0.80872 -0.17500
C 	C 	0.53988 0.74464 0.77899 0.09200
H 	H 	0.53890 0.75760 0.76140 -0.02000
C 	C 	0.54004 0.71268 0.77529 -0.16800
H 	H 	0.53970 0.70420 0.75520 0.05800
C 	C 	0.54316 0.79225 0.81265 0.43300
C 	C 	0.61148 0.65282 0.81112 -0.09400
H 	H 	0.60480 0.67090 0.79930 -0.08100
H 	H 	0.62910 0.65890 0.82380 -0.03100
C 	C 	0.62100 0.62630 0.78800 -0.44600
H 	H 	0.62730 0.60770 0.79960 -0.34900
H 	H 	0.60330 0.62080 0.77470 0.05500
C 	C 	0.64870 0.63830 0.76760 -1.91800
H 	H 	0.64360 0.65890 0.75930 0.51800
H 	H 	0.65170 0.62420 0.74990 0.53300
C 	C 	0.67940 0.64030 0.78640 0.68900
H 	H 	0.69600 0.64770 0.77310 -0.21900
H 	H 	0.68470 0.61980 0.79430 1.26300
H 	H 	0.67670 0.65450 0.80370 -0.71600
N 	N 	0.58910 0.63112 0.86119 -0.25400
N 	N 	0.55469 0.64206 0.82414 -0.14000
O 	O 	0.43060 0.59916 0.87671 -0.38600
O 	O 	0.43945 0.64259 0.85118 -0.38900
O 	O 	0.54485 0.80117 0.84183 -0.52200
H 	H 	0.54810 0.81960 0.84740 0.33100
O 	O 	0.54289 0.81103 0.79078 -0.30000
H 	H 	0.48330 0.56670 0.88110 0.04700
H 	H 	0.51630 0.58170 0.88430 -0.00600
C 	C 	0.48950 0.58960 0.92240 0.02500
C 	C 	0.47880 0.57010 0.94440 -0.03300
H 	H 	0.47250 0.54960 0.94050 0.04800
C 	C 	0.47830 0.58520 0.97600 -0.01500
H 	H 	0.47140 0.57520 0.99420 -0.00500
C 	C 	0.48890 0.61470 0.97540 -0.02200
H 	H 	0.49050 0.62770 0.99280 -0.04200
S 	S 	0.49897 0.62523 0.93822 -0.04900
H 	H 	0.60260 0.66090 0.79200 0.14100
H 	H 	0.62220 0.66990 0.82130 0.07300
C 	C 	0.63470 0.62670 0.80140 0.02900
H 	H 	0.64160 0.61520 0.81980 -0.01400
H 	H 	0.62450 0.61210 0.78730 0.59500
C 	C 	0.66340 0.64230 0.78480 1.84000
H 	H 	0.67340 0.65700 0.79910 -0.04500
H 	H 	0.65630 0.65400 0.76660 -0.06500
C 	C 	0.68730 0.61740 0.77450 -5.68300
H 	H 	0.70480 0.62740 0.76430 1.75000
H 	H 	0.67750 0.60300 0.76010 1.71800
H 	H 	0.69470 0.60610 0.79260 0.93000
C 	C 	0.13520 0.05009 0.61829 0.28600
C 	C 	0.13285 0.01579 0.61206 -0.01000
C 	C 	0.11230 0.00572 0.58527 -0.13600
H 	H 	0.11510 0.01970 0.56780 0.01500
H 	H 	0.11810 0.98490 0.57880 0.02400
C 	C 	0.07828 0.00620 0.59560 0.02200
C 	C 	0.06650 0.00070 0.62410 -0.03000
H 	H 	0.07880 0.99570 0.64150 0.06500
C 	C 	0.03170 0.00330 0.62500 -0.00700
H 	H 	0.01960 0.00020 0.64290 0.01100
C 	C 	0.01980 0.01070 0.59720 -0.02300
H 	H 	0.99850 0.01350 0.59330 -0.03700
S 	S 	0.04877 0.01460 0.56945 -0.05500
C 	C 	0.14993 0.99652 0.63018 -0.12000
H 	H 	0.16320 0.00620 0.64460 0.09800
C 	C 	0.15031 0.96264 0.63016 0.07900
C 	C 	0.12788 0.94055 0.62371 -0.08600
H 	H 	0.10810 0.94490 0.61550 0.05100
C 	C 	0.16799 0.91460 0.64246 0.10300
C 	C 	0.20376 0.95830 0.65760 -0.02000
C 	C 	0.19896 0.95929 0.69283 0.10200
C 	C 	0.16913 0.95889 0.70626 -0.16000
H 	H 	0.15150 0.95880 0.69330 0.11000
C 	C 	0.16539 0.95861 0.73830 0.10100
H 	H 	0.14530 0.95830 0.74690 0.02900
C 	C 	0.19128 0.95883 0.75784 -0.17400
C 	C 	0.22101 0.96012 0.74464 0.09200
H 	H 	0.23860 0.96110 0.75760 -0.02000
C 	C 	0.22471 0.95996 0.71268 -0.16800
H 	H 	0.24480 0.96030 0.70420 0.05800
C 	C 	0.18735 0.95684 0.79225 0.43300
C 	C 	0.18888 0.88852 0.65282 -0.09400
H 	H 	0.20070 0.89520 0.67090 -0.08100
H 	H 	0.17620 0.87090 0.65890 -0.03100
C 	C 	0.21200 0.87900 0.62630 -0.44600
H 	H 	0.20040 0.87270 0.60770 -0.34900
H 	H 	0.22530 0.89670 0.62080 0.05500
C 	C 	0.23240 0.85130 0.63830 -1.91800
H 	H 	0.24070 0.85640 0.65890 0.51800
H 	H 	0.25010 0.84830 0.62420 0.53300
C 	C 	0.21360 0.82060 0.64030 0.68900
H 	H 	0.22690 0.80400 0.64770 -0.21900
H 	H 	0.20570 0.81530 0.61980 1.26300
H 	H 	0.19630 0.82330 0.65450 -0.71600
N 	N 	0.13881 0.91090 0.63112 -0.25400
N 	N 	0.17586 0.94531 0.64206 -0.14000
O 	O 	0.12329 0.06940 0.59916 -0.38600
O 	O 	0.14882 0.06055 0.64259 -0.38900
O 	O 	0.15817 0.95515 0.80117 -0.52200
H 	H 	0.15260 0.95190 0.81960 0.33100
O 	O 	0.20922 0.95711 0.81103 -0.30000
H 	H 	0.11890 0.01670 0.56670 0.04700
H 	H 	0.11570 0.98370 0.58170 -0.00600
C 	C 	0.07760 0.01050 0.58960 0.02500
C 	C 	0.05560 0.02120 0.57010 -0.03300
H 	H 	0.05950 0.02750 0.54960 0.04800
C 	C 	0.02400 0.02170 0.58520 -0.01500
H 	H 	0.00580 0.02860 0.57520 -0.00500
C 	C 	0.02460 0.01110 0.61470 -0.02200
H 	H 	0.00720 0.00950 0.62770 -0.04200
S 	S 	0.06178 0.00103 0.62523 -0.04900
H 	H 	0.20800 0.89740 0.66090 0.14100
H 	H 	0.17870 0.87780 0.66990 0.07300
C 	C 	0.19860 0.86530 0.62670 0.02900
H 	H 	0.18020 0.85840 0.61520 -0.01400
H 	H 	0.21270 0.87550 0.61210 0.59500
C 	C 	0.21520 0.83660 0.64230 1.84000
H 	H 	0.20090 0.82660 0.65700 -0.04500
H 	H 	0.23340 0.84370 0.65400 -0.06500
C 	C 	0.22550 0.81270 0.61740 -5.68300
H 	H 	0.23570 0.79520 0.62740 1.75000
H 	H 	0.23990 0.82250 0.60300 1.71800
H 	H 	0.20740 0.80530 0.60610 0.93000
C 	C 	0.63520 0.55009 0.11829 0.28600
C 	C 	0.63285 0.51579 0.11206 -0.01000
C 	C 	0.61230 0.50572 0.08527 -0.13600
H 	H 	0.61510 0.51970 0.06780 0.01500
H 	H 	0.61810 0.48490 0.07880 0.02400
C 	C 	0.57828 0.50620 0.09560 0.02200
C 	C 	0.56650 0.50070 0.12410 -0.03000
H 	H 	0.57880 0.49570 0.14150 0.06500
C 	C 	0.53170 0.50330 0.12500 -0.00700
H 	H 	0.51960 0.50020 0.14290 0.01100
C 	C 	0.51980 0.51070 0.09720 -0.02300
H 	H 	0.49850 0.51350 0.09330 -0.03700
S 	S 	0.54877 0.51460 0.06945 -0.05500
C 	C 	0.64993 0.49652 0.13018 -0.12000
H 	H 	0.66320 0.50620 0.14460 0.09800
C 	C 	0.65031 0.46264 0.13016 0.07900
C 	C 	0.62788 0.44055 0.12371 -0.08600
H 	H 	0.60810 0.44490 0.11550 0.05100
C 	C 	0.66799 0.41460 0.14246 0.10300
C 	C 	0.70376 0.45830 0.15760 -0.02000
C 	C 	0.69896 0.45929 0.19283 0.10200
C 	C 	0.66913 0.45889 0.20626 -0.16000
H 	H 	0.65150 0.45880 0.19330 0.11000
C 	C 	0.66539 0.45861 0.23830 0.10100
H 	H 	0.64530 0.45830 0.24690 0.02900
C 	C 	0.69128 0.45883 0.25784 -0.17500
C 	C 	0.72101 0.46012 0.24464 0.09200
H 	H 	0.73860 0.46110 0.25760 -0.02000
C 	C 	0.72471 0.45996 0.21268 -0.16800
H 	H 	0.74480 0.46030 0.20420 0.05800
C 	C 	0.68735 0.45684 0.29225 0.43300
C 	C 	0.68888 0.38852 0.15282 -0.09400
H 	H 	0.70070 0.39520 0.17090 -0.08100
H 	H 	0.67620 0.37090 0.15890 -0.03100
C 	C 	0.71200 0.37900 0.12630 -0.44600
H 	H 	0.70040 0.37270 0.10770 -0.34900
H 	H 	0.72530 0.39670 0.12080 0.05500
C 	C 	0.73240 0.35130 0.13830 -1.91800
H 	H 	0.74070 0.35640 0.15890 0.51800
H 	H 	0.75010 0.34830 0.12420 0.53300
C 	C 	0.71360 0.32060 0.14030 0.68900
H 	H 	0.72690 0.30400 0.14770 -0.21900
H 	H 	0.70570 0.31530 0.11980 1.26300
H 	H 	0.69630 0.32330 0.15450 -0.71600
N 	N 	0.63881 0.41090 0.13112 -0.25400
N 	N 	0.67586 0.44531 0.14206 -0.14000
O 	O 	0.62329 0.56940 0.09916 -0.38600
O 	O 	0.64882 0.56055 0.14259 -0.38900
O 	O 	0.65817 0.45515 0.30117 -0.52200
H 	H 	0.65260 0.45190 0.31960 0.33100
O 	O 	0.70922 0.45711 0.31103 -0.30000
H 	H 	0.61890 0.51670 0.06670 0.04700
H 	H 	0.61570 0.48370 0.08170 -0.00600
C 	C 	0.57760 0.51050 0.08960 0.02500
C 	C 	0.55560 0.52120 0.07010 -0.03300
H 	H 	0.55950 0.52750 0.04960 0.04800
C 	C 	0.52400 0.52170 0.08520 -0.01500
H 	H 	0.50580 0.52860 0.07520 -0.00500
C 	C 	0.52460 0.51110 0.11470 -0.02200
H 	H 	0.50720 0.50950 0.12770 -0.04200
S 	S 	0.56178 0.50103 0.12523 -0.04900
H 	H 	0.70800 0.39740 0.16090 0.14100
H 	H 	0.67870 0.37780 0.16990 0.07300
C 	C 	0.69860 0.36530 0.12670 0.02900
H 	H 	0.68020 0.35840 0.11520 -0.01400
H 	H 	0.71270 0.37550 0.11210 0.59500
C 	C 	0.71520 0.33660 0.14230 1.84000
H 	H 	0.70090 0.32660 0.15700 -0.04500
H 	H 	0.73340 0.34370 0.15400 -0.06500
C 	C 	0.72550 0.31270 0.11740 -5.68300
H 	H 	0.73570 0.29520 0.12740 1.75000
H 	H 	0.73990 0.32250 0.10300 1.71800
H 	H 	0.70740 0.30530 0.10610 0.93000
C 	C 	0.86480 0.55009 0.88171 0.28600
C 	C 	0.86715 0.51579 0.88794 -0.01000
C 	C 	0.88770 0.50572 0.91473 -0.13600
H 	H 	0.88490 0.51970 0.93220 0.01500
H 	H 	0.88190 0.48490 0.92120 0.02400
C 	C 	0.92172 0.50620 0.90440 0.02200
C 	C 	0.93350 0.50070 0.87590 -0.03000
H 	H 	0.92120 0.49570 0.85850 0.06500
C 	C 	0.96830 0.50330 0.87500 -0.00700
H 	H 	0.98040 0.50020 0.85710 0.01100
C 	C 	0.98020 0.51070 0.90280 -0.02300
H 	H 	0.00150 0.51350 0.90670 -0.03700
S 	S 	0.95123 0.51460 0.93055 -0.05500
C 	C 	0.85007 0.49652 0.86982 -0.12000
H 	H 	0.83680 0.50620 0.85540 0.09800
C 	C 	0.84969 0.46264 0.86984 0.07900
C 	C 	0.87212 0.44055 0.87629 -0.08600
H 	H 	0.89190 0.44490 0.88450 0.05100
C 	C 	0.83201 0.41460 0.85754 0.10300
C 	C 	0.79624 0.45830 0.84240 -0.02000
C 	C 	0.80104 0.45929 0.80717 0.10200
C 	C 	0.83087 0.45889 0.79374 -0.16000
H 	H 	0.84850 0.45880 0.80670 0.11000
C 	C 	0.83461 0.45861 0.76170 0.10100
H 	H 	0.85470 0.45830 0.75310 0.02900
C 	C 	0.80872 0.45883 0.74216 -0.17500
C 	C 	0.77899 0.46012 0.75536 0.09200
H 	H 	0.76140 0.46110 0.74240 -0.02000
C 	C 	0.77529 0.45996 0.78732 -0.16800
H 	H 	0.75520 0.46030 0.79580 0.05800
C 	C 	0.81265 0.45684 0.70775 0.43300
C 	C 	0.81112 0.38852 0.84718 -0.09400
H 	H 	0.79930 0.39520 0.82910 -0.08100
H 	H 	0.82380 0.37090 0.84110 -0.03100
C 	C 	0.78800 0.37900 0.87370 -0.44600
H 	H 	0.79960 0.37270 0.89230 -0.34900
H 	H 	0.77470 0.39670 0.87920 0.05500
C 	C 	0.76760 0.35130 0.86170 -1.91800
H 	H 	0.75930 0.35640 0.84110 0.51800
H 	H 	0.74990 0.34830 0.87580 0.53300
C 	C 	0.78640 0.32060 0.85970 0.68900
H 	H 	0.77310 0.30400 0.85230 -0.21900
H 	H 	0.79430 0.31530 0.88020 1.26300
H 	H 	0.80370 0.32330 0.84550 -0.71600
N 	N 	0.86119 0.41090 0.86888 -0.25400
N 	N 	0.82414 0.44531 0.85794 -0.14000
O 	O 	0.87671 0.56940 0.90084 -0.38600
O 	O 	0.85118 0.56055 0.85741 -0.38900
O 	O 	0.84183 0.45515 0.69883 -0.52200
H 	H 	0.84740 0.45190 0.68040 0.33100
O 	O 	0.79078 0.45711 0.68897 -0.30000
H 	H 	0.88110 0.51670 0.93330 0.04700
H 	H 	0.88430 0.48370 0.91830 -0.00600
C 	C 	0.92240 0.51050 0.91040 0.02500
C 	C 	0.94440 0.52120 0.92990 -0.03300
H 	H 	0.94050 0.52750 0.95040 0.04800
C 	C 	0.97600 0.52170 0.91480 -0.01500
H 	H 	0.99420 0.52860 0.92480 -0.00500
C 	C 	0.97540 0.51110 0.88530 -0.02200
H 	H 	0.99280 0.50950 0.87230 -0.04200
S 	S 	0.93822 0.50103 0.87477 -0.04900
H 	H 	0.79200 0.39740 0.83910 0.14100
H 	H 	0.82130 0.37780 0.83010 0.07300
C 	C 	0.80140 0.36530 0.87330 0.02900
H 	H 	0.81980 0.35840 0.88480 -0.01400
H 	H 	0.78730 0.37550 0.88790 0.59500
C 	C 	0.78480 0.33660 0.85770 1.84000
H 	H 	0.79910 0.32660 0.84300 -0.04500
H 	H 	0.76660 0.34370 0.84600 -0.06500
C 	C 	0.77450 0.31270 0.88260 -5.68300
H 	H 	0.76430 0.29520 0.87260 1.75000
H 	H 	0.76010 0.32250 0.89700 1.71800
H 	H 	0.79260 0.30530 0.89390 0.93000
C 	C 	0.36480 0.05009 0.38171 0.28600
C 	C 	0.36715 0.01579 0.38794 -0.01000
C 	C 	0.38770 0.00572 0.41473 -0.13600
H 	H 	0.38490 0.01970 0.43220 0.01500
H 	H 	0.38190 0.98490 0.42120 0.02400
C 	C 	0.42172 0.00620 0.40440 0.02200
C 	C 	0.43350 0.00070 0.37590 -0.03000
H 	H 	0.42120 0.99570 0.35850 0.06500
C 	C 	0.46830 0.00330 0.37500 -0.00700
H 	H 	0.48040 0.00020 0.35710 0.01100
C 	C 	0.48020 0.01070 0.40280 -0.02300
H 	H 	0.50150 0.01350 0.40670 -0.03700
S 	S 	0.45123 0.01460 0.43055 -0.05500
C 	C 	0.35007 0.99652 0.36982 -0.12000
H 	H 	0.33680 0.00620 0.35540 0.09800
C 	C 	0.34969 0.96264 0.36984 0.07900
C 	C 	0.37212 0.94055 0.37629 -0.08600
H 	H 	0.39190 0.94490 0.38450 0.05100
C 	C 	0.33201 0.91460 0.35754 0.10300
C 	C 	0.29624 0.95830 0.34240 -0.02000
C 	C 	0.30104 0.95929 0.30717 0.10200
C 	C 	0.33087 0.95889 0.29374 -0.16000
H 	H 	0.34850 0.95880 0.30670 0.11000
C 	C 	0.33461 0.95861 0.26170 0.10100
H 	H 	0.35470 0.95830 0.25310 0.02900
C 	C 	0.30872 0.95883 0.24216 -0.17400
C 	C 	0.27899 0.96012 0.25536 0.09200
H 	H 	0.26140 0.96110 0.24240 -0.02000
C 	C 	0.27529 0.95996 0.28732 -0.16800
H 	H 	0.25520 0.96030 0.29580 0.05800
C 	C 	0.31265 0.95684 0.20775 0.43300
C 	C 	0.31112 0.88852 0.34718 -0.09400
H 	H 	0.29930 0.89520 0.32910 -0.08100
H 	H 	0.32380 0.87090 0.34110 -0.03100
C 	C 	0.28800 0.87900 0.37370 -0.44600
H 	H 	0.29960 0.87270 0.39230 -0.34900
H 	H 	0.27470 0.89670 0.37920 0.05500
C 	C 	0.26760 0.85130 0.36170 -1.91800
H 	H 	0.25930 0.85640 0.34110 0.51800
H 	H 	0.24990 0.84830 0.37580 0.53300
C 	C 	0.28640 0.82060 0.35970 0.68900
H 	H 	0.27310 0.80400 0.35230 -0.21900
H 	H 	0.29430 0.81530 0.38020 1.26300
H 	H 	0.30370 0.82330 0.34550 -0.71600
N 	N 	0.36119 0.91090 0.36888 -0.25400
N 	N 	0.32414 0.94531 0.35794 -0.14000
O 	O 	0.37671 0.06940 0.40084 -0.38600
O 	O 	0.35118 0.06055 0.35741 -0.38900
O 	O 	0.34183 0.95515 0.19883 -0.52200
H 	H 	0.34740 0.95190 0.18040 0.33100
O 	O 	0.29078 0.95711 0.18897 -0.30000
H 	H 	0.38110 0.01670 0.43330 0.04700
H 	H 	0.38430 0.98370 0.41830 -0.00600
C 	C 	0.42240 0.01050 0.41040 0.02500
C 	C 	0.44440 0.02120 0.42990 -0.03300
H 	H 	0.44050 0.02750 0.45040 0.04800
C 	C 	0.47600 0.02170 0.41480 -0.01500
H 	H 	0.49420 0.02860 0.42480 -0.00500
C 	C 	0.47540 0.01110 0.38530 -0.02200
H 	H 	0.49280 0.00950 0.37230 -0.04200
S 	S 	0.43822 0.00103 0.37477 -0.04900
H 	H 	0.29200 0.89740 0.33910 0.14100
H 	H 	0.32130 0.87780 0.33010 0.07300
C 	C 	0.30140 0.86530 0.37330 0.02900
H 	H 	0.31980 0.85840 0.38480 -0.01400
H 	H 	0.28730 0.87550 0.38790 0.59500
C 	C 	0.28480 0.83660 0.35770 1.84000
H 	H 	0.29910 0.82660 0.34300 -0.04500
H 	H 	0.26660 0.84370 0.34600 -0.06500
C 	C 	0.27450 0.81270 0.38260 -5.68300
H 	H 	0.26430 0.79520 0.37260 1.75000
H 	H 	0.26010 0.82250 0.39700 1.71800
H 	H 	0.29260 0.80530 0.39390 0.93000
C 	C 	0.63520 0.44991 0.38171 0.28600
C 	C 	0.63285 0.48421 0.38794 -0.01000
C 	C 	0.61230 0.49428 0.41473 -0.13600
H 	H 	0.61510 0.48030 0.43220 0.01500
H 	H 	0.61810 0.51510 0.42120 0.02400
C 	C 	0.57828 0.49380 0.40440 0.02200
C 	C 	0.56650 0.49930 0.37590 -0.03000
H 	H 	0.57880 0.50430 0.35850 0.06500
C 	C 	0.53170 0.49670 0.37500 -0.00700
H 	H 	0.51960 0.49980 0.35710 0.01100
C 	C 	0.51980 0.48930 0.40280 -0.02300
H 	H 	0.49850 0.48650 0.40670 -0.03700
S 	S 	0.54877 0.48540 0.43055 -0.05500
C 	C 	0.64993 0.50348 0.36982 -0.12000
H 	H 	0.66320 0.49380 0.35540 0.09800
C 	C 	0.65031 0.53736 0.36984 0.07900
C 	C 	0.62788 0.55945 0.37629 -0.08600
H 	H 	0.60810 0.55510 0.38450 0.05100
C 	C 	0.66799 0.58540 0.35754 0.10300
C 	C 	0.70376 0.54170 0.34240 -0.02000
C 	C 	0.69896 0.54071 0.30717 0.10200
C 	C 	0.66913 0.54111 0.29374 -0.16000
H 	H 	0.65150 0.54120 0.30670 0.11000
C 	C 	0.66539 0.54139 0.26170 0.10100
H 	H 	0.64530 0.54170 0.25310 0.02900
C 	C 	0.69128 0.54117 0.24216 -0.17500
C 	C 	0.72101 0.53988 0.25536 0.09200
H 	H 	0.73860 0.53890 0.24240 -0.02000
C 	C 	0.72471 0.54004 0.28732 -0.16800
H 	H 	0.74480 0.53970 0.29580 0.05800
C 	C 	0.68735 0.54316 0.20775 0.43300
C 	C 	0.68888 0.61148 0.34718 -0.09400
H 	H 	0.70070 0.60480 0.32910 -0.08100
H 	H 	0.67620 0.62910 0.34110 -0.03100
C 	C 	0.71200 0.62100 0.37370 -0.44600
H 	H 	0.70040 0.62730 0.39230 -0.34900
H 	H 	0.72530 0.60330 0.37920 0.05500
C 	C 	0.73240 0.64870 0.36170 -1.91800
H 	H 	0.74070 0.64360 0.34110 0.51800
H 	H 	0.75010 0.65170 0.37580 0.53300
C 	C 	0.71360 0.67940 0.35970 0.68900
H 	H 	0.72690 0.69600 0.35230 -0.21900
H 	H 	0.70570 0.68470 0.38020 1.26300
H 	H 	0.69630 0.67670 0.34550 -0.71600
N 	N 	0.63881 0.58910 0.36888 -0.25400
N 	N 	0.67586 0.55469 0.35794 -0.14000
O 	O 	0.62329 0.43060 0.40084 -0.38600
O 	O 	0.64882 0.43945 0.35741 -0.38900
O 	O 	0.65817 0.54485 0.19883 -0.52200
H 	H 	0.65260 0.54810 0.18040 0.33100
O 	O 	0.70922 0.54289 0.18897 -0.30000
H 	H 	0.61890 0.48330 0.43330 0.04700
H 	H 	0.61570 0.51630 0.41830 -0.00600
C 	C 	0.57760 0.48950 0.41040 0.02500
C 	C 	0.55560 0.47880 0.42990 -0.03300
H 	H 	0.55950 0.47250 0.45040 0.04800
C 	C 	0.52400 0.47830 0.41480 -0.01500
H 	H 	0.50580 0.47140 0.42480 -0.00500
C 	C 	0.52460 0.48890 0.38530 -0.02200
H 	H 	0.50720 0.49050 0.37230 -0.04200
S 	S 	0.56178 0.49897 0.37477 -0.04900
H 	H 	0.70800 0.60260 0.33910 0.14100
H 	H 	0.67870 0.62220 0.33010 0.07300
C 	C 	0.69860 0.63470 0.37330 0.02900
H 	H 	0.68020 0.64160 0.38480 -0.01400
H 	H 	0.71270 0.62450 0.38790 0.59500
C 	C 	0.71520 0.66340 0.35770 1.84000
H 	H 	0.70090 0.67340 0.34300 -0.04500
H 	H 	0.73340 0.65630 0.34600 -0.06500
C 	C 	0.72550 0.68730 0.38260 -5.68300
H 	H 	0.73570 0.70480 0.37260 1.75000
H 	H 	0.73990 0.67750 0.39700 1.71800
H 	H 	0.70740 0.69470 0.39390 0.93000
C 	C 	0.13520 0.94991 0.88171 0.28600
C 	C 	0.13285 0.98421 0.88794 -0.01000
C 	C 	0.11230 0.99428 0.91473 -0.13600
H 	H 	0.11510 0.98030 0.93220 0.01500
H 	H 	0.11810 0.01510 0.92120 0.02400
C 	C 	0.07828 0.99380 0.90440 0.02200
C 	C 	0.06650 0.99930 0.87590 -0.03000
H 	H 	0.07880 0.00430 0.85850 0.06500
C 	C 	0.03170 0.99670 0.87500 -0.00700
H 	H 	0.01960 0.99980 0.85710 0.01100
C 	C 	0.01980 0.98930 0.90280 -0.02300
H 	H 	0.99850 0.98650 0.90670 -0.03700
S 	S 	0.04877 0.98540 0.93055 -0.05500
C 	C 	0.14993 0.00348 0.86982 -0.12000
H 	H 	0.16320 0.99380 0.85540 0.09800
C 	C 	0.15031 0.03736 0.86984 0.07900
C 	C 	0.12788 0.05945 0.87629 -0.08600
H 	H 	0.10810 0.05510 0.88450 0.05100
C 	C 	0.16799 0.08540 0.85754 0.10300
C 	C 	0.20376 0.04170 0.84240 -0.02000
C 	C 	0.19896 0.04071 0.80717 0.10200
C 	C 	0.16913 0.04111 0.79374 -0.16000
H 	H 	0.15150 0.04120 0.80670 0.11000
C 	C 	0.16539 0.04139 0.76170 0.10100
H 	H 	0.14530 0.04170 0.75310 0.02900
C 	C 	0.19128 0.04117 0.74216 -0.17400
C 	C 	0.22101 0.03988 0.75536 0.09200
H 	H 	0.23860 0.03890 0.74240 -0.02000
C 	C 	0.22471 0.04004 0.78732 -0.16800
H 	H 	0.24480 0.03970 0.79580 0.05800
C 	C 	0.18735 0.04316 0.70775 0.43300
C 	C 	0.18888 0.11148 0.84718 -0.09400
H 	H 	0.20070 0.10480 0.82910 -0.08100
H 	H 	0.17620 0.12910 0.84110 -0.03100
C 	C 	0.21200 0.12100 0.87370 -0.44600
H 	H 	0.20040 0.12730 0.89230 -0.34900
H 	H 	0.22530 0.10330 0.87920 0.05500
C 	C 	0.23240 0.14870 0.86170 -1.91800
H 	H 	0.24070 0.14360 0.84110 0.51800
H 	H 	0.25010 0.15170 0.87580 0.53300
C 	C 	0.21360 0.17940 0.85970 0.68900
H 	H 	0.22690 0.19600 0.85230 -0.21900
H 	H 	0.20570 0.18470 0.88020 1.26300
H 	H 	0.19630 0.17670 0.84550 -0.71600
N 	N 	0.13881 0.08910 0.86888 -0.25400
N 	N 	0.17586 0.05469 0.85794 -0.14000
O 	O 	0.12329 0.93060 0.90084 -0.38600
O 	O 	0.14882 0.93945 0.85741 -0.38900
O 	O 	0.15817 0.04485 0.69883 -0.52200
H 	H 	0.15260 0.04810 0.68040 0.33100
O 	O 	0.20922 0.04289 0.68897 -0.30000
H 	H 	0.11890 0.98330 0.93330 0.04700
H 	H 	0.11570 0.01630 0.91830 -0.00600
C 	C 	0.07760 0.98950 0.91040 0.02500
C 	C 	0.05560 0.97880 0.92990 -0.03300
H 	H 	0.05950 0.97250 0.95040 0.04800
C 	C 	0.02400 0.97830 0.91480 -0.01500
H 	H 	0.00580 0.97140 0.92480 -0.00500
C 	C 	0.02460 0.98890 0.88530 -0.02200
H 	H 	0.00720 0.99050 0.87230 -0.04200
S 	S 	0.06178 0.99897 0.87477 -0.04900
H 	H 	0.20800 0.10260 0.83910 0.14100
H 	H 	0.17870 0.12220 0.83010 0.07300
C 	C 	0.19860 0.13470 0.87330 0.02900
H 	H 	0.18020 0.14160 0.88480 -0.01400
H 	H 	0.21270 0.12450 0.88790 0.59500
C 	C 	0.21520 0.16340 0.85770 1.84000
H 	H 	0.20090 0.17340 0.84300 -0.04500
H 	H 	0.23340 0.15630 0.84600 -0.06500
C 	C 	0.22550 0.18730 0.88260 -5.68300
H 	H 	0.23570 0.20480 0.87260 1.75000
H 	H 	0.23990 0.17750 0.89700 1.71800
H 	H 	0.20740 0.19470 0.89390 0.93000
C 	C 	0.36480 0.94991 0.11829 0.28600
C 	C 	0.36715 0.98421 0.11206 -0.01000
C 	C 	0.38770 0.99428 0.08527 -0.13600
H 	H 	0.38490 0.98030 0.06780 0.01500
H 	H 	0.38190 0.01510 0.07880 0.02400
C 	C 	0.42172 0.99380 0.09560 0.02200
C 	C 	0.43350 0.99930 0.12410 -0.03000
H 	H 	0.42120 0.00430 0.14150 0.06500
C 	C 	0.46830 0.99670 0.12500 -0.00700
H 	H 	0.48040 0.99980 0.14290 0.01100
C 	C 	0.48020 0.98930 0.09720 -0.02300
H 	H 	0.50150 0.98650 0.09330 -0.03700
S 	S 	0.45123 0.98540 0.06945 -0.05500
C 	C 	0.35007 0.00348 0.13018 -0.12000
H 	H 	0.33680 0.99380 0.14460 0.09800
C 	C 	0.34969 0.03736 0.13016 0.07900
C 	C 	0.37212 0.05945 0.12371 -0.08600
H 	H 	0.39190 0.05510 0.11550 0.05100
C 	C 	0.33201 0.08540 0.14246 0.10300
C 	C 	0.29624 0.04170 0.15760 -0.02000
C 	C 	0.30104 0.04071 0.19283 0.10200
C 	C 	0.33087 0.04111 0.20626 -0.16000
H 	H 	0.34850 0.04120 0.19330 0.11000
C 	C 	0.33461 0.04139 0.23830 0.10100
H 	H 	0.35470 0.04170 0.24690 0.02900
C 	C 	0.30872 0.04117 0.25784 -0.17400
C 	C 	0.27899 0.03988 0.24464 0.09200
H 	H 	0.26140 0.03890 0.25760 -0.02000
C 	C 	0.27529 0.04004 0.21268 -0.16800
H 	H 	0.25520 0.03970 0.20420 0.05800
C 	C 	0.31265 0.04316 0.29225 0.43300
C 	C 	0.31112 0.11148 0.15282 -0.09400
H 	H 	0.29930 0.10480 0.17090 -0.08100
H 	H 	0.32380 0.12910 0.15890 -0.03100
C 	C 	0.28800 0.12100 0.12630 -0.44600
H 	H 	0.29960 0.12730 0.10770 -0.34900
H 	H 	0.27470 0.10330 0.12080 0.05500
C 	C 	0.26760 0.14870 0.13830 -1.91800
H 	H 	0.25930 0.14360 0.15890 0.51800
H 	H 	0.24990 0.15170 0.12420 0.53300
C 	C 	0.28640 0.17940 0.14030 0.68900
H 	H 	0.27310 0.19600 0.14770 -0.21900
H 	H 	0.29430 0.18470 0.11980 1.26300
H 	H 	0.30370 0.17670 0.15450 -0.71600
N 	N 	0.36119 0.08910 0.13112 -0.25400
N 	N 	0.32414 0.05469 0.14206 -0.14000
O 	O 	0.37671 0.93060 0.09916 -0.38600
O 	O 	0.35118 0.93945 0.14259 -0.38900
O 	O 	0.34183 0.04485 0.30117 -0.52200
H 	H 	0.34740 0.04810 0.31960 0.33100
O 	O 	0.29078 0.04289 0.31103 -0.30000
H 	H 	0.38110 0.98330 0.06670 0.04700
H 	H 	0.38430 0.01630 0.08170 -0.00600
C 	C 	0.42240 0.98950 0.08960 0.02500
C 	C 	0.44440 0.97880 0.07010 -0.03300
H 	H 	0.44050 0.97250 0.04960 0.04800
C 	C 	0.47600 0.97830 0.08520 -0.01500
H 	H 	0.49420 0.97140 0.07520 -0.00500
C 	C 	0.47540 0.98890 0.11470 -0.02200
H 	H 	0.49280 0.99050 0.12770 -0.04200
S 	S 	0.43822 0.99897 0.12523 -0.04900
H 	H 	0.29200 0.10260 0.16090 0.14100
H 	H 	0.32130 0.12220 0.16990 0.07300
C 	C 	0.30140 0.13470 0.12670 0.02900
H 	H 	0.31980 0.14160 0.11520 -0.01400
H 	H 	0.28730 0.12450 0.11210 0.59500
C 	C 	0.28480 0.16340 0.14230 1.84000
H 	H 	0.29910 0.17340 0.15700 -0.04500
H 	H 	0.26660 0.15630 0.15400 -0.06500
C 	C 	0.27450 0.18730 0.11740 -5.68300
H 	H 	0.26430 0.20480 0.12740 1.75000
H 	H 	0.26010 0.17750 0.10300 1.71800
H 	H 	0.29260 0.19470 0.10610 0.93000
C 	C 	0.86480 0.44991 0.61829 0.28600
C 	C 	0.86715 0.48421 0.61206 -0.01000
C 	C 	0.88770 0.49428 0.58527 -0.13600
H 	H 	0.88490 0.48030 0.56780 0.01500
H 	H 	0.88190 0.51510 0.57880 0.02400
C 	C 	0.92172 0.49380 0.59560 0.02200
C 	C 	0.93350 0.49930 0.62410 -0.03000
H 	H 	0.92120 0.50430 0.64150 0.06500
C 	C 	0.96830 0.49670 0.62500 -0.00700
H 	H 	0.98040 0.49980 0.64290 0.01100
C 	C 	0.98020 0.48930 0.59720 -0.02300
H 	H 	0.00150 0.48650 0.59330 -0.03700
S 	S 	0.95123 0.48540 0.56945 -0.05500
C 	C 	0.85007 0.50348 0.63018 -0.12000
H 	H 	0.83680 0.49380 0.64460 0.09800
C 	C 	0.84969 0.53736 0.63016 0.07900
C 	C 	0.87212 0.55945 0.62371 -0.08600
H 	H 	0.89190 0.55510 0.61550 0.05100
C 	C 	0.83201 0.58540 0.64246 0.10300
C 	C 	0.79624 0.54170 0.65760 -0.02000
C 	C 	0.80104 0.54071 0.69283 0.10200
C 	C 	0.83087 0.54111 0.70626 -0.16000
H 	H 	0.84850 0.54120 0.69330 0.11000
C 	C 	0.83461 0.54139 0.73830 0.10100
H 	H 	0.85470 0.54170 0.74690 0.02900
C 	C 	0.80872 0.54117 0.75784 -0.17500
C 	C 	0.77899 0.53988 0.74464 0.09200
H 	H 	0.76140 0.53890 0.75760 -0.02000
C 	C 	0.77529 0.54004 0.71268 -0.16800
H 	H 	0.75520 0.53970 0.70420 0.05800
C 	C 	0.81265 0.54316 0.79225 0.43300
C 	C 	0.81112 0.61148 0.65282 -0.09400
H 	H 	0.79930 0.60480 0.67090 -0.08100
H 	H 	0.82380 0.62910 0.65890 -0.03100
C 	C 	0.78800 0.62100 0.62630 -0.44600
H 	H 	0.79960 0.62730 0.60770 -0.34900
H 	H 	0.77470 0.60330 0.62080 0.05500
C 	C 	0.76760 0.64870 0.63830 -1.91800
H 	H 	0.75930 0.64360 0.65890 0.51800
H 	H 	0.74990 0.65170 0.62420 0.53300
C 	C 	0.78640 0.67940 0.64030 0.68900
H 	H 	0.77310 0.69600 0.64770 -0.21900
H 	H 	0.79430 0.68470 0.61980 1.26300
H 	H 	0.80370 0.67670 0.65450 -0.71600
N 	N 	0.86119 0.58910 0.63112 -0.25400
N 	N 	0.82414 0.55469 0.64206 -0.14000
O 	O 	0.87671 0.43060 0.59916 -0.38600
O 	O 	0.85118 0.43945 0.64259 -0.38900
O 	O 	0.84183 0.54485 0.80117 -0.52200
H 	H 	0.84740 0.54810 0.81960 0.33100
O 	O 	0.79078 0.54289 0.81103 -0.30000
H 	H 	0.88110 0.48330 0.56670 0.04700
H 	H 	0.88430 0.51630 0.58170 -0.00600
C 	C 	0.92240 0.48950 0.58960 0.02500
C 	C 	0.94440 0.47880 0.57010 -0.03300
H 	H 	0.94050 0.47250 0.54960 0.04800
C 	C 	0.97600 0.47830 0.58520 -0.01500
H 	H 	0.99420 0.47140 0.57520 -0.00500
C 	C 	0.97540 0.48890 0.61470 -0.02200
H 	H 	0.99280 0.49050 0.62770 -0.04200
S 	S 	0.93822 0.49897 0.62523 -0.04900
H 	H 	0.79200 0.60260 0.66090 0.14100
H 	H 	0.82130 0.62220 0.66990 0.07300
C 	C 	0.80140 0.63470 0.62670 0.02900
H 	H 	0.81980 0.64160 0.61520 -0.01400
H 	H 	0.78730 0.62450 0.61210 0.59500
C 	C 	0.78480 0.66340 0.64230 1.84000
H 	H 	0.79910 0.67340 0.65700 -0.04500
H 	H 	0.76660 0.65630 0.65400 -0.06500
C 	C 	0.77450 0.68730 0.61740 -5.68300
H 	H 	0.76430 0.70480 0.62740 1.75000
H 	H 	0.76010 0.67750 0.60300 1.71800
H 	H 	0.79260 0.69470 0.60610 0.93000
C 	C 	0.38520 0.36829 0.69991 0.28600
C 	C 	0.38285 0.36206 0.73421 -0.01000
C 	C 	0.36230 0.33527 0.74428 -0.13600
H 	H 	0.36510 0.31780 0.73030 0.01500
H 	H 	0.36810 0.32880 0.76510 0.02400
C 	C 	0.32828 0.34560 0.74380 0.02200
C 	C 	0.31650 0.37410 0.74930 -0.03000
H 	H 	0.32880 0.39150 0.75430 0.06500
C 	C 	0.28170 0.37500 0.74670 -0.00700
H 	H 	0.26960 0.39290 0.74980 0.01100
C 	C 	0.26980 0.34720 0.73930 -0.02300
H 	H 	0.24850 0.34330 0.73650 -0.03700
S 	S 	0.29877 0.31945 0.73540 -0.05500
C 	C 	0.39993 0.38018 0.75348 -0.12000
H 	H 	0.41320 0.39460 0.74380 0.09800
C 	C 	0.40031 0.38016 0.78736 0.07900
C 	C 	0.37788 0.37371 0.80945 -0.08600
H 	H 	0.35810 0.36550 0.80510 0.05100
C 	C 	0.41799 0.39246 0.83540 0.10300
C 	C 	0.45376 0.40760 0.79170 -0.02000
C 	C 	0.44896 0.44283 0.79071 0.10200
C 	C 	0.41913 0.45626 0.79111 -0.16000
H 	H 	0.40150 0.44330 0.79120 0.11000
C 	C 	0.41539 0.48830 0.79139 0.10100
H 	H 	0.39530 0.49690 0.79170 0.02900
C 	C 	0.44128 0.50784 0.79117 -0.17500
C 	C 	0.47101 0.49464 0.78988 0.09200
H 	H 	0.48860 0.50760 0.78890 -0.02000
C 	C 	0.47471 0.46268 0.79004 -0.16800
H 	H 	0.49480 0.45420 0.78970 0.05800
C 	C 	0.43735 0.54225 0.79316 0.43300
C 	C 	0.43888 0.40282 0.86148 -0.09400
H 	H 	0.45070 0.42090 0.85480 -0.08100
H 	H 	0.42620 0.40890 0.87910 -0.03100
C 	C 	0.46200 0.37630 0.87100 -0.44600
H 	H 	0.45040 0.35770 0.87730 -0.34900
H 	H 	0.47530 0.37080 0.85330 0.05500
C 	C 	0.48240 0.38830 0.89870 -1.91800
H 	H 	0.49070 0.40890 0.89360 0.51800
H 	H 	0.50010 0.37420 0.90170 0.53300
C 	C 	0.46360 0.39030 0.92940 0.68900
H 	H 	0.47690 0.39770 0.94600 -0.21900
H 	H 	0.45570 0.36980 0.93470 1.26300
H 	H 	0.44630 0.40450 0.92670 -0.71600
N 	N 	0.38881 0.38112 0.83910 -0.25400
N 	N 	0.42586 0.39206 0.80469 -0.14000
O 	O 	0.37329 0.34916 0.68060 -0.38600
O 	O 	0.39882 0.39259 0.68945 -0.38900
O 	O 	0.40817 0.55117 0.79485 -0.52200
H 	H 	0.40260 0.56960 0.79810 0.33100
O 	O 	0.45922 0.56103 0.79289 -0.30000
H 	H 	0.36890 0.31670 0.73330 0.04700
H 	H 	0.36570 0.33170 0.76630 -0.00600
C 	C 	0.32760 0.33960 0.73950 0.02500
C 	C 	0.30560 0.32010 0.72880 -0.03300
H 	H 	0.30950 0.29960 0.72250 0.04800
C 	C 	0.27400 0.33520 0.72830 -0.01500
H 	H 	0.25580 0.32520 0.72140 -0.00500
C 	C 	0.27460 0.36470 0.73890 -0.02200
H 	H 	0.25720 0.37770 0.74050 -0.04200
S 	S 	0.31178 0.37523 0.74897 -0.04900
H 	H 	0.45800 0.41090 0.85260 0.14100
H 	H 	0.42870 0.41990 0.87220 0.07300
C 	C 	0.44860 0.37670 0.88470 0.02900
H 	H 	0.43020 0.36520 0.89160 -0.01400
H 	H 	0.46270 0.36210 0.87450 0.59500
C 	C 	0.46520 0.39230 0.91340 1.84000
H 	H 	0.45090 0.40700 0.92340 -0.04500
H 	H 	0.48340 0.40400 0.90630 -0.06500
C 	C 	0.47550 0.36740 0.93730 -5.68300
H 	H 	0.48570 0.37740 0.95480 1.75000
H 	H 	0.48990 0.35300 0.92750 1.71800
H 	H 	0.45740 0.35610 0.94470 0.93000
C 	C 	0.88520 0.86829 0.19991 0.28600
C 	C 	0.88285 0.86206 0.23421 -0.01000
C 	C 	0.86230 0.83527 0.24428 -0.13600
H 	H 	0.86510 0.81780 0.23030 0.01500
H 	H 	0.86810 0.82880 0.26510 0.02400
C 	C 	0.82828 0.84560 0.24380 0.02200
C 	C 	0.81650 0.87410 0.24930 -0.03000
H 	H 	0.82880 0.89150 0.25430 0.06500
C 	C 	0.78170 0.87500 0.24670 -0.00700
H 	H 	0.76960 0.89290 0.24980 0.01100
C 	C 	0.76980 0.84720 0.23930 -0.02300
H 	H 	0.74850 0.84330 0.23650 -0.03700
S 	S 	0.79877 0.81945 0.23540 -0.05500
C 	C 	0.89993 0.88018 0.25348 -0.12000
H 	H 	0.91320 0.89460 0.24380 0.09800
C 	C 	0.90031 0.88016 0.28736 0.07900
C 	C 	0.87788 0.87371 0.30945 -0.08600
H 	H 	0.85810 0.86550 0.30510 0.05100
C 	C 	0.91799 0.89246 0.33540 0.10300
C 	C 	0.95376 0.90760 0.29170 -0.02000
C 	C 	0.94896 0.94283 0.29071 0.10200
C 	C 	0.91913 0.95626 0.29111 -0.16000
H 	H 	0.90150 0.94330 0.29120 0.11000
C 	C 	0.91539 0.98830 0.29139 0.10100
H 	H 	0.89530 0.99690 0.29170 0.02900
C 	C 	0.94128 0.00784 0.29117 -0.17400
C 	C 	0.97101 0.99464 0.28988 0.09200
H 	H 	0.98860 0.00760 0.28890 -0.02000
C 	C 	0.97471 0.96268 0.29004 -0.16800
H 	H 	0.99480 0.95420 0.28970 0.05800
C 	C 	0.93735 0.04225 0.29316 0.43300
C 	C 	0.93888 0.90282 0.36148 -0.09400
H 	H 	0.95070 0.92090 0.35480 -0.08100
H 	H 	0.92620 0.90890 0.37910 -0.03100
C 	C 	0.96200 0.87630 0.37100 -0.44600
H 	H 	0.95040 0.85770 0.37730 -0.34900
H 	H 	0.97530 0.87080 0.35330 0.05500
C 	C 	0.98240 0.88830 0.39870 -1.91800
H 	H 	0.99070 0.90890 0.39360 0.51800
H 	H 	0.00010 0.87420 0.40170 0.53300
C 	C 	0.96360 0.89030 0.42940 0.68900
H 	H 	0.97690 0.89770 0.44600 -0.21900
H 	H 	0.95570 0.86980 0.43470 1.26300
H 	H 	0.94630 0.90450 0.42670 -0.71600
N 	N 	0.88881 0.88112 0.33910 -0.25400
N 	N 	0.92586 0.89206 0.30469 -0.14000
O 	O 	0.87329 0.84916 0.18060 -0.38600
O 	O 	0.89882 0.89259 0.18945 -0.38900
O 	O 	0.90817 0.05117 0.29485 -0.52200
H 	H 	0.90260 0.06960 0.29810 0.33100
O 	O 	0.95922 0.06103 0.29289 -0.30000
H 	H 	0.86890 0.81670 0.23330 0.04700
H 	H 	0.86570 0.83170 0.26630 -0.00600
C 	C 	0.82760 0.83960 0.23950 0.02500
C 	C 	0.80560 0.82010 0.22880 -0.03300
H 	H 	0.80950 0.79960 0.22250 0.04800
C 	C 	0.77400 0.83520 0.22830 -0.01500
H 	H 	0.75580 0.82520 0.22140 -0.00500
C 	C 	0.77460 0.86470 0.23890 -0.02200
H 	H 	0.75720 0.87770 0.24050 -0.04200
S 	S 	0.81178 0.87523 0.24897 -0.04900
H 	H 	0.95800 0.91090 0.35260 0.14100
H 	H 	0.92870 0.91990 0.37220 0.07300
C 	C 	0.94860 0.87670 0.38470 0.02900
H 	H 	0.93020 0.86520 0.39160 -0.01400
H 	H 	0.96270 0.86210 0.37450 0.59500
C 	C 	0.96520 0.89230 0.41340 1.84000
H 	H 	0.95090 0.90700 0.42340 -0.04500
H 	H 	0.98340 0.90400 0.40630 -0.06500
C 	C 	0.97550 0.86740 0.43730 -5.68300
H 	H 	0.98570 0.87740 0.45480 1.75000
H 	H 	0.98990 0.85300 0.42750 1.71800
H 	H 	0.95740 0.85610 0.44470 0.93000
C 	C 	0.11480 0.63171 0.19991 0.28600
C 	C 	0.11715 0.63794 0.23421 -0.01000
C 	C 	0.13770 0.66473 0.24428 -0.13600
H 	H 	0.13490 0.68220 0.23030 0.01500
H 	H 	0.13190 0.67120 0.26510 0.02400
C 	C 	0.17172 0.65440 0.24380 0.02200
C 	C 	0.18350 0.62590 0.24930 -0.03000
H 	H 	0.17120 0.60850 0.25430 0.06500
C 	C 	0.21830 0.62500 0.24670 -0.00700
H 	H 	0.23040 0.60710 0.24980 0.01100
C 	C 	0.23020 0.65280 0.23930 -0.02300
H 	H 	0.25150 0.65670 0.23650 -0.03700
S 	S 	0.20123 0.68055 0.23540 -0.05500
C 	C 	0.10007 0.61982 0.25348 -0.12000
H 	H 	0.08680 0.60540 0.24380 0.09800
C 	C 	0.09969 0.61984 0.28736 0.07900
C 	C 	0.12212 0.62629 0.30945 -0.08600
H 	H 	0.14190 0.63450 0.30510 0.05100
C 	C 	0.08201 0.60754 0.33540 0.10300
C 	C 	0.04624 0.59240 0.29170 -0.02000
C 	C 	0.05104 0.55717 0.29071 0.10200
C 	C 	0.08087 0.54374 0.29111 -0.16000
H 	H 	0.09850 0.55670 0.29120 0.11000
C 	C 	0.08461 0.51170 0.29139 0.10100
H 	H 	0.10470 0.50310 0.29170 0.02900
C 	C 	0.05872 0.49216 0.29117 -0.17400
C 	C 	0.02899 0.50536 0.28988 0.09200
H 	H 	0.01140 0.49240 0.28890 -0.02000
C 	C 	0.02529 0.53732 0.29004 -0.16800
H 	H 	0.00520 0.54580 0.28970 0.05800
C 	C 	0.06265 0.45775 0.29316 0.43300
C 	C 	0.06112 0.59718 0.36148 -0.09400
H 	H 	0.04930 0.57910 0.35480 -0.08100
H 	H 	0.07380 0.59110 0.37910 -0.03100
C 	C 	0.03800 0.62370 0.37100 -0.44600
H 	H 	0.04960 0.64230 0.37730 -0.34900
H 	H 	0.02470 0.62920 0.35330 0.05500
C 	C 	0.01760 0.61170 0.39870 -1.91800
H 	H 	0.00930 0.59110 0.39360 0.51800
H 	H 	0.99990 0.62580 0.40170 0.53300
C 	C 	0.03640 0.60970 0.42940 0.68900
H 	H 	0.02310 0.60230 0.44600 -0.21900
H 	H 	0.04430 0.63020 0.43470 1.26300
H 	H 	0.05370 0.59550 0.42670 -0.71600
N 	N 	0.11119 0.61888 0.33910 -0.25400
N 	N 	0.07414 0.60794 0.30469 -0.14000
O 	O 	0.12671 0.65084 0.18060 -0.38600
O 	O 	0.10118 0.60741 0.18945 -0.38900
O 	O 	0.09183 0.44883 0.29485 -0.52200
H 	H 	0.09740 0.43040 0.29810 0.33100
O 	O 	0.04078 0.43897 0.29289 -0.30000
H 	H 	0.13110 0.68330 0.23330 0.04700
H 	H 	0.13430 0.66830 0.26630 -0.00600
C 	C 	0.17240 0.66040 0.23950 0.02500
C 	C 	0.19440 0.67990 0.22880 -0.03300
H 	H 	0.19050 0.70040 0.22250 0.04800
C 	C 	0.22600 0.66480 0.22830 -0.01500
H 	H 	0.24420 0.67480 0.22140 -0.00500
C 	C 	0.22540 0.63530 0.23890 -0.02200
H 	H 	0.24280 0.62230 0.24050 -0.04200
S 	S 	0.18822 0.62477 0.24897 -0.04900
H 	H 	0.04200 0.58910 0.35260 0.14100
H 	H 	0.07130 0.58010 0.37220 0.07300
C 	C 	0.05140 0.62330 0.38470 0.02900
H 	H 	0.06980 0.63480 0.39160 -0.01400
H 	H 	0.03730 0.63790 0.37450 0.59500
C 	C 	0.03480 0.60770 0.41340 1.84000
H 	H 	0.04910 0.59300 0.42340 -0.04500
H 	H 	0.01660 0.59600 0.40630 -0.06500
C 	C 	0.02450 0.63260 0.43730 -5.68300
H 	H 	0.01430 0.62260 0.45480 1.75000
H 	H 	0.01010 0.64700 0.42750 1.71800
H 	H 	0.04260 0.64390 0.44470 0.93000
C 	C 	0.61480 0.13171 0.69991 0.28600
C 	C 	0.61715 0.13794 0.73421 -0.01000
C 	C 	0.63770 0.16473 0.74428 -0.13600
H 	H 	0.63490 0.18220 0.73030 0.01500
H 	H 	0.63190 0.17120 0.76510 0.02400
C 	C 	0.67172 0.15440 0.74380 0.02200
C 	C 	0.68350 0.12590 0.74930 -0.03000
H 	H 	0.67120 0.10850 0.75430 0.06500
C 	C 	0.71830 0.12500 0.74670 -0.00700
H 	H 	0.73040 0.10710 0.74980 0.01100
C 	C 	0.73020 0.15280 0.73930 -0.02300
H 	H 	0.75150 0.15670 0.73650 -0.03700
S 	S 	0.70123 0.18055 0.73540 -0.05500
C 	C 	0.60007 0.11982 0.75348 -0.12000
H 	H 	0.58680 0.10540 0.74380 0.09800
C 	C 	0.59969 0.11984 0.78736 0.07900
C 	C 	0.62212 0.12629 0.80945 -0.08600
H 	H 	0.64190 0.13450 0.80510 0.05100
C 	C 	0.58201 0.10754 0.83540 0.10300
C 	C 	0.54624 0.09240 0.79170 -0.02000
C 	C 	0.55104 0.05717 0.79071 0.10200
C 	C 	0.58087 0.04374 0.79111 -0.16000
H 	H 	0.59850 0.05670 0.79120 0.11000
C 	C 	0.58461 0.01170 0.79139 0.10100
H 	H 	0.60470 0.00310 0.79170 0.02900
C 	C 	0.55872 0.99216 0.79117 -0.17400
C 	C 	0.52899 0.00536 0.78988 0.09200
H 	H 	0.51140 0.99240 0.78890 -0.02000
C 	C 	0.52529 0.03732 0.79004 -0.16800
H 	H 	0.50520 0.04580 0.78970 0.05800
C 	C 	0.56265 0.95775 0.79316 0.43300
C 	C 	0.56112 0.09718 0.86148 -0.09400
H 	H 	0.54930 0.07910 0.85480 -0.08100
H 	H 	0.57380 0.09110 0.87910 -0.03100
C 	C 	0.53800 0.12370 0.87100 -0.44600
H 	H 	0.54960 0.14230 0.87730 -0.34900
H 	H 	0.52470 0.12920 0.85330 0.05500
C 	C 	0.51760 0.11170 0.89870 -1.91800
H 	H 	0.50930 0.09110 0.89360 0.51800
H 	H 	0.49990 0.12580 0.90170 0.53300
C 	C 	0.53640 0.10970 0.92940 0.68900
H 	H 	0.52310 0.10230 0.94600 -0.21900
H 	H 	0.54430 0.13020 0.93470 1.26300
H 	H 	0.55370 0.09550 0.92670 -0.71600
N 	N 	0.61119 0.11888 0.83910 -0.25400
N 	N 	0.57414 0.10794 0.80469 -0.14000
O 	O 	0.62671 0.15084 0.68060 -0.38600
O 	O 	0.60118 0.10741 0.68945 -0.38900
O 	O 	0.59183 0.94883 0.79485 -0.52200
H 	H 	0.59740 0.93040 0.79810 0.33100
O 	O 	0.54078 0.93897 0.79289 -0.30000
H 	H 	0.63110 0.18330 0.73330 0.04700
H 	H 	0.63430 0.16830 0.76630 -0.00600
C 	C 	0.67240 0.16040 0.73950 0.02500
C 	C 	0.69440 0.17990 0.72880 -0.03300
H 	H 	0.69050 0.20040 0.72250 0.04800
C 	C 	0.72600 0.16480 0.72830 -0.01500
H 	H 	0.74420 0.17480 0.72140 -0.00500
C 	C 	0.72540 0.13530 0.73890 -0.02200
H 	H 	0.74280 0.12230 0.74050 -0.04200
S 	S 	0.68822 0.12477 0.74897 -0.04900
H 	H 	0.54200 0.08910 0.85260 0.14100
H 	H 	0.57130 0.08010 0.87220 0.07300
C 	C 	0.55140 0.12330 0.88470 0.02900
H 	H 	0.56980 0.13480 0.89160 -0.01400
H 	H 	0.53730 0.13790 0.87450 0.59500
C 	C 	0.53480 0.10770 0.91340 1.84000
H 	H 	0.54910 0.09300 0.92340 -0.04500
H 	H 	0.51660 0.09600 0.90630 -0.06500
C 	C 	0.52450 0.13260 0.93730 -5.68300
H 	H 	0.51430 0.12260 0.95480 1.75000
H 	H 	0.51010 0.14700 0.92750 1.71800
H 	H 	0.54260 0.14390 0.94470 0.93000
C 	C 	0.88520 0.13171 0.30009 0.28600
C 	C 	0.88285 0.13794 0.26579 -0.01000
C 	C 	0.86230 0.16473 0.25572 -0.13600
H 	H 	0.86510 0.18220 0.26970 0.01500
H 	H 	0.86810 0.17120 0.23490 0.02400
C 	C 	0.82828 0.15440 0.25620 0.02200
C 	C 	0.81650 0.12590 0.25070 -0.03000
H 	H 	0.82880 0.10850 0.24570 0.06500
C 	C 	0.78170 0.12500 0.25330 -0.00700
H 	H 	0.76960 0.10710 0.25020 0.01100
C 	C 	0.76980 0.15280 0.26070 -0.02300
H 	H 	0.74850 0.15670 0.26350 -0.03700
S 	S 	0.79877 0.18055 0.26460 -0.05500
C 	C 	0.89993 0.11982 0.24652 -0.12000
H 	H 	0.91320 0.10540 0.25620 0.09800
C 	C 	0.90031 0.11984 0.21264 0.07900
C 	C 	0.87788 0.12629 0.19055 -0.08600
H 	H 	0.85810 0.13450 0.19490 0.05100
C 	C 	0.91799 0.10754 0.16460 0.10300
C 	C 	0.95376 0.09240 0.20830 -0.02000
C 	C 	0.94896 0.05717 0.20929 0.10200
C 	C 	0.91913 0.04374 0.20889 -0.16000
H 	H 	0.90150 0.05670 0.20880 0.11000
C 	C 	0.91539 0.01170 0.20861 0.10100
H 	H 	0.89530 0.00310 0.20830 0.02900
C 	C 	0.94128 0.99216 0.20883 -0.17400
C 	C 	0.97101 0.00536 0.21012 0.09200
H 	H 	0.98860 0.99240 0.21110 -0.02000
C 	C 	0.97471 0.03732 0.20996 -0.16800
H 	H 	0.99480 0.04580 0.21030 0.05800
C 	C 	0.93735 0.95775 0.20684 0.43300
C 	C 	0.93888 0.09718 0.13852 -0.09400
H 	H 	0.95070 0.07910 0.14520 -0.08100
H 	H 	0.92620 0.09110 0.12090 -0.03100
C 	C 	0.96200 0.12370 0.12900 -0.44600
H 	H 	0.95040 0.14230 0.12270 -0.34900
H 	H 	0.97530 0.12920 0.14670 0.05500
C 	C 	0.98240 0.11170 0.10130 -1.91800
H 	H 	0.99070 0.09110 0.10640 0.51800
H 	H 	0.00010 0.12580 0.09830 0.53300
C 	C 	0.96360 0.10970 0.07060 0.68900
H 	H 	0.97690 0.10230 0.05400 -0.21900
H 	H 	0.95570 0.13020 0.06530 1.26300
H 	H 	0.94630 0.09550 0.07330 -0.71600
N 	N 	0.88881 0.11888 0.16090 -0.25400
N 	N 	0.92586 0.10794 0.19531 -0.14000
O 	O 	0.87329 0.15084 0.31940 -0.38600
O 	O 	0.89882 0.10741 0.31055 -0.38900
O 	O 	0.90817 0.94883 0.20515 -0.52200
H 	H 	0.90260 0.93040 0.20190 0.33100
O 	O 	0.95922 0.93897 0.20711 -0.30000
H 	H 	0.86890 0.18330 0.26670 0.04700
H 	H 	0.86570 0.16830 0.23370 -0.00600
C 	C 	0.82760 0.16040 0.26050 0.02500
C 	C 	0.80560 0.17990 0.27120 -0.03300
H 	H 	0.80950 0.20040 0.27750 0.04800
C 	C 	0.77400 0.16480 0.27170 -0.01500
H 	H 	0.75580 0.17480 0.27860 -0.00500
C 	C 	0.77460 0.13530 0.26110 -0.02200
H 	H 	0.75720 0.12230 0.25950 -0.04200
S 	S 	0.81178 0.12477 0.25103 -0.04900
H 	H 	0.95800 0.08910 0.14740 0.14100
H 	H 	0.92870 0.08010 0.12780 0.07300
C 	C 	0.94860 0.12330 0.11530 0.02900
H 	H 	0.93020 0.13480 0.10840 -0.01400
H 	H 	0.96270 0.13790 0.12550 0.59500
C 	C 	0.96520 0.10770 0.08660 1.84000
H 	H 	0.95090 0.09300 0.07660 -0.04500
H 	H 	0.98340 0.09600 0.09370 -0.06500
C 	C 	0.97550 0.13260 0.06270 -5.68300
H 	H 	0.98570 0.12260 0.04520 1.75000
H 	H 	0.98990 0.14700 0.07250 1.71800
H 	H 	0.95740 0.14390 0.05530 0.93000
C 	C 	0.38520 0.63171 0.80009 0.28600
C 	C 	0.38285 0.63794 0.76579 -0.01000
C 	C 	0.36230 0.66473 0.75572 -0.13600
H 	H 	0.36510 0.68220 0.76970 0.01500
H 	H 	0.36810 0.67120 0.73490 0.02400
C 	C 	0.32828 0.65440 0.75620 0.02200
C 	C 	0.31650 0.62590 0.75070 -0.03000
H 	H 	0.32880 0.60850 0.74570 0.06500
C 	C 	0.28170 0.62500 0.75330 -0.00700
H 	H 	0.26960 0.60710 0.75020 0.01100
C 	C 	0.26980 0.65280 0.76070 -0.02300
H 	H 	0.24850 0.65670 0.76350 -0.03700
S 	S 	0.29877 0.68055 0.76460 -0.05500
C 	C 	0.39993 0.61982 0.74652 -0.12000
H 	H 	0.41320 0.60540 0.75620 0.09800
C 	C 	0.40031 0.61984 0.71264 0.07900
C 	C 	0.37788 0.62629 0.69055 -0.08600
H 	H 	0.35810 0.63450 0.69490 0.05100
C 	C 	0.41799 0.60754 0.66460 0.10300
C 	C 	0.45376 0.59240 0.70830 -0.02000
C 	C 	0.44896 0.55717 0.70929 0.10200
C 	C 	0.41913 0.54374 0.70889 -0.16000
H 	H 	0.40150 0.55670 0.70880 0.11000
C 	C 	0.41539 0.51170 0.70861 0.10100
H 	H 	0.39530 0.50310 0.70830 0.02900
C 	C 	0.44128 0.49216 0.70883 -0.17500
C 	C 	0.47101 0.50536 0.71012 0.09200
H 	H 	0.48860 0.49240 0.71110 -0.02000
C 	C 	0.47471 0.53732 0.70996 -0.16800
H 	H 	0.49480 0.54580 0.71030 0.05800
C 	C 	0.43735 0.45775 0.70684 0.43300
C 	C 	0.43888 0.59718 0.63852 -0.09400
H 	H 	0.45070 0.57910 0.64520 -0.08100
H 	H 	0.42620 0.59110 0.62090 -0.03100
C 	C 	0.46200 0.62370 0.62900 -0.44600
H 	H 	0.45040 0.64230 0.62270 -0.34900
H 	H 	0.47530 0.62920 0.64670 0.05500
C 	C 	0.48240 0.61170 0.60130 -1.91800
H 	H 	0.49070 0.59110 0.60640 0.51800
H 	H 	0.50010 0.62580 0.59830 0.53300
C 	C 	0.46360 0.60970 0.57060 0.68900
H 	H 	0.47690 0.60230 0.55400 -0.21900
H 	H 	0.45570 0.63020 0.56530 1.26300
H 	H 	0.44630 0.59550 0.57330 -0.71600
N 	N 	0.38881 0.61888 0.66090 -0.25400
N 	N 	0.42586 0.60794 0.69531 -0.14000
O 	O 	0.37329 0.65084 0.81940 -0.38600
O 	O 	0.39882 0.60741 0.81055 -0.38900
O 	O 	0.40817 0.44883 0.70515 -0.52200
H 	H 	0.40260 0.43040 0.70190 0.33100
O 	O 	0.45922 0.43897 0.70711 -0.30000
H 	H 	0.36890 0.68330 0.76670 0.04700
H 	H 	0.36570 0.66830 0.73370 -0.00600
C 	C 	0.32760 0.66040 0.76050 0.02500
C 	C 	0.30560 0.67990 0.77120 -0.03300
H 	H 	0.30950 0.70040 0.77750 0.04800
C 	C 	0.27400 0.66480 0.77170 -0.01500
H 	H 	0.25580 0.67480 0.77860 -0.00500
C 	C 	0.27460 0.63530 0.76110 -0.02200
H 	H 	0.25720 0.62230 0.75950 -0.04200
S 	S 	0.31178 0.62477 0.75103 -0.04900
H 	H 	0.45800 0.58910 0.64740 0.14100
H 	H 	0.42870 0.58010 0.62780 0.07300
C 	C 	0.44860 0.62330 0.61530 0.02900
H 	H 	0.43020 0.63480 0.60840 -0.01400
H 	H 	0.46270 0.63790 0.62550 0.59500
C 	C 	0.46520 0.60770 0.58660 1.84000
H 	H 	0.45090 0.59300 0.57660 -0.04500
H 	H 	0.48340 0.59600 0.59370 -0.06500
C 	C 	0.47550 0.63260 0.56270 -5.68300
H 	H 	0.48570 0.62260 0.54520 1.75000
H 	H 	0.48990 0.64700 0.57250 1.71800
H 	H 	0.45740 0.64390 0.55530 0.93000
C 	C 	0.61480 0.86829 0.80009 0.28600
C 	C 	0.61715 0.86206 0.76579 -0.01000
C 	C 	0.63770 0.83527 0.75572 -0.13600
H 	H 	0.63490 0.81780 0.76970 0.01500
H 	H 	0.63190 0.82880 0.73490 0.02400
C 	C 	0.67172 0.84560 0.75620 0.02200
C 	C 	0.68350 0.87410 0.75070 -0.03000
H 	H 	0.67120 0.89150 0.74570 0.06500
C 	C 	0.71830 0.87500 0.75330 -0.00700
H 	H 	0.73040 0.89290 0.75020 0.01100
C 	C 	0.73020 0.84720 0.76070 -0.02300
H 	H 	0.75150 0.84330 0.76350 -0.03700
S 	S 	0.70123 0.81945 0.76460 -0.05500
C 	C 	0.60007 0.88018 0.74652 -0.12000
H 	H 	0.58680 0.89460 0.75620 0.09800
C 	C 	0.59969 0.88016 0.71264 0.07900
C 	C 	0.62212 0.87371 0.69055 -0.08600
H 	H 	0.64190 0.86550 0.69490 0.05100
C 	C 	0.58201 0.89246 0.66460 0.10300
C 	C 	0.54624 0.90760 0.70830 -0.02000
C 	C 	0.55104 0.94283 0.70929 0.10200
C 	C 	0.58087 0.95626 0.70889 -0.16000
H 	H 	0.59850 0.94330 0.70880 0.11000
C 	C 	0.58461 0.98830 0.70861 0.10100
H 	H 	0.60470 0.99690 0.70830 0.02900
C 	C 	0.55872 0.00784 0.70883 -0.17400
C 	C 	0.52899 0.99464 0.71012 0.09200
H 	H 	0.51140 0.00760 0.71110 -0.02000
C 	C 	0.52529 0.96268 0.70996 -0.16800
H 	H 	0.50520 0.95420 0.71030 0.05800
C 	C 	0.56265 0.04225 0.70684 0.43300
C 	C 	0.56112 0.90282 0.63852 -0.09400
H 	H 	0.54930 0.92090 0.64520 -0.08100
H 	H 	0.57380 0.90890 0.62090 -0.03100
C 	C 	0.53800 0.87630 0.62900 -0.44600
H 	H 	0.54960 0.85770 0.62270 -0.34900
H 	H 	0.52470 0.87080 0.64670 0.05500
C 	C 	0.51760 0.88830 0.60130 -1.91800
H 	H 	0.50930 0.90890 0.60640 0.51800
H 	H 	0.49990 0.87420 0.59830 0.53300
C 	C 	0.53640 0.89030 0.57060 0.68900
H 	H 	0.52310 0.89770 0.55400 -0.21900
H 	H 	0.54430 0.86980 0.56530 1.26300
H 	H 	0.55370 0.90450 0.57330 -0.71600
N 	N 	0.61119 0.88112 0.66090 -0.25400
N 	N 	0.57414 0.89206 0.69531 -0.14000
O 	O 	0.62671 0.84916 0.81940 -0.38600
O 	O 	0.60118 0.89259 0.81055 -0.38900
O 	O 	0.59183 0.05117 0.70515 -0.52200
H 	H 	0.59740 0.06960 0.70190 0.33100
O 	O 	0.54078 0.06103 0.70711 -0.30000
H 	H 	0.63110 0.81670 0.76670 0.04700
H 	H 	0.63430 0.83170 0.73370 -0.00600
C 	C 	0.67240 0.83960 0.76050 0.02500
C 	C 	0.69440 0.82010 0.77120 -0.03300
H 	H 	0.69050 0.79960 0.77750 0.04800
C 	C 	0.72600 0.83520 0.77170 -0.01500
H 	H 	0.74420 0.82520 0.77860 -0.00500
C 	C 	0.72540 0.86470 0.76110 -0.02200
H 	H 	0.74280 0.87770 0.75950 -0.04200
S 	S 	0.68822 0.87523 0.75103 -0.04900
H 	H 	0.54200 0.91090 0.64740 0.14100
H 	H 	0.57130 0.91990 0.62780 0.07300
C 	C 	0.55140 0.87670 0.61530 0.02900
H 	H 	0.56980 0.86520 0.60840 -0.01400
H 	H 	0.53730 0.86210 0.62550 0.59500
C 	C 	0.53480 0.89230 0.58660 1.84000
H 	H 	0.54910 0.90700 0.57660 -0.04500
H 	H 	0.51660 0.90400 0.59370 -0.06500
C 	C 	0.52450 0.86740 0.56270 -5.68300
H 	H 	0.51430 0.87740 0.54520 1.75000
H 	H 	0.51010 0.85300 0.57250 1.71800
H 	H 	0.54260 0.85610 0.55530 0.93000
C 	C 	0.11480 0.36829 0.30009 0.28600
C 	C 	0.11715 0.36206 0.26579 -0.01000
C 	C 	0.13770 0.33527 0.25572 -0.13600
H 	H 	0.13490 0.31780 0.26970 0.01500
H 	H 	0.13190 0.32880 0.23490 0.02400
C 	C 	0.17172 0.34560 0.25620 0.02200
C 	C 	0.18350 0.37410 0.25070 -0.03000
H 	H 	0.17120 0.39150 0.24570 0.06500
C 	C 	0.21830 0.37500 0.25330 -0.00700
H 	H 	0.23040 0.39290 0.25020 0.01100
C 	C 	0.23020 0.34720 0.26070 -0.02300
H 	H 	0.25150 0.34330 0.26350 -0.03700
S 	S 	0.20123 0.31945 0.26460 -0.05500
C 	C 	0.10007 0.38018 0.24652 -0.12000
H 	H 	0.08680 0.39460 0.25620 0.09800
C 	C 	0.09969 0.38016 0.21264 0.07900
C 	C 	0.12212 0.37371 0.19055 -0.08600
H 	H 	0.14190 0.36550 0.19490 0.05100
C 	C 	0.08201 0.39246 0.16460 0.10300
C 	C 	0.04624 0.40760 0.20830 -0.02000
C 	C 	0.05104 0.44283 0.20929 0.10200
C 	C 	0.08087 0.45626 0.20889 -0.16000
H 	H 	0.09850 0.44330 0.20880 0.11000
C 	C 	0.08461 0.48830 0.20861 0.10100
H 	H 	0.10470 0.49690 0.20830 0.02900
C 	C 	0.05872 0.50784 0.20883 -0.17400
C 	C 	0.02899 0.49464 0.21012 0.09200
H 	H 	0.01140 0.50760 0.21110 -0.02000
C 	C 	0.02529 0.46268 0.20996 -0.16800
H 	H 	0.00520 0.45420 0.21030 0.05800
C 	C 	0.06265 0.54225 0.20684 0.43300
C 	C 	0.06112 0.40282 0.13852 -0.09400
H 	H 	0.04930 0.42090 0.14520 -0.08100
H 	H 	0.07380 0.40890 0.12090 -0.03100
C 	C 	0.03800 0.37630 0.12900 -0.44600
H 	H 	0.04960 0.35770 0.12270 -0.34900
H 	H 	0.02470 0.37080 0.14670 0.05500
C 	C 	0.01760 0.38830 0.10130 -1.91800
H 	H 	0.00930 0.40890 0.10640 0.51800
H 	H 	0.99990 0.37420 0.09830 0.53300
C 	C 	0.03640 0.39030 0.07060 0.68900
H 	H 	0.02310 0.39770 0.05400 -0.21900
H 	H 	0.04430 0.36980 0.06530 1.26300
H 	H 	0.05370 0.40450 0.07330 -0.71600
N 	N 	0.11119 0.38112 0.16090 -0.25400
N 	N 	0.07414 0.39206 0.19531 -0.14000
O 	O 	0.12671 0.34916 0.31940 -0.38600
O 	O 	0.10118 0.39259 0.31055 -0.38900
O 	O 	0.09183 0.55117 0.20515 -0.52200
H 	H 	0.09740 0.56960 0.20190 0.33100
O 	O 	0.04078 0.56103 0.20711 -0.30000
H 	H 	0.13110 0.31670 0.26670 0.04700
H 	H 	0.13430 0.33170 0.23370 -0.00600
C 	C 	0.17240 0.33960 0.26050 0.02500
C 	C 	0.19440 0.32010 0.27120 -0.03300
H 	H 	0.19050 0.29960 0.27750 0.04800
C 	C 	0.22600 0.33520 0.27170 -0.01500
H 	H 	0.24420 0.32520 0.27860 -0.00500
C 	C 	0.22540 0.36470 0.26110 -0.02200
H 	H 	0.24280 0.37770 0.25950 -0.04200
S 	S 	0.18822 0.37523 0.25103 -0.04900
H 	H 	0.04200 0.41090 0.14740 0.14100
H 	H 	0.07130 0.41990 0.12780 0.07300
C 	C 	0.05140 0.37670 0.11530 0.02900
H 	H 	0.06980 0.36520 0.10840 -0.01400
H 	H 	0.03730 0.36210 0.12550 0.59500
C 	C 	0.03480 0.39230 0.08660 1.84000
H 	H 	0.04910 0.40700 0.07660 -0.04500
H 	H 	0.01660 0.40400 0.09370 -0.06500
C 	C 	0.02450 0.36740 0.06270 -5.68300
H 	H 	0.01430 0.37740 0.04520 1.75000
H 	H 	0.01010 0.35300 0.07250 1.71800
H 	H 	0.04260 0.35610 0.05530 0.93000
C 	C 	0.86829 0.80009 0.61480 0.28600
C 	C 	0.86206 0.76579 0.61715 -0.01000
C 	C 	0.83527 0.75572 0.63770 -0.13600
H 	H 	0.81780 0.76970 0.63490 0.01500
H 	H 	0.82880 0.73490 0.63190 0.02400
C 	C 	0.84560 0.75620 0.67172 0.02200
C 	C 	0.87410 0.75070 0.68350 -0.03000
H 	H 	0.89150 0.74570 0.67120 0.06500
C 	C 	0.87500 0.75330 0.71830 -0.00700
H 	H 	0.89290 0.75020 0.73040 0.01100
C 	C 	0.84720 0.76070 0.73020 -0.02300
H 	H 	0.84330 0.76350 0.75150 -0.03700
S 	S 	0.81945 0.76460 0.70123 -0.05500
C 	C 	0.88018 0.74652 0.60007 -0.12000
H 	H 	0.89460 0.75620 0.58680 0.09800
C 	C 	0.88016 0.71264 0.59969 0.07900
C 	C 	0.87371 0.69055 0.62212 -0.08600
H 	H 	0.86550 0.69490 0.64190 0.05100
C 	C 	0.89246 0.66460 0.58201 0.10300
C 	C 	0.90760 0.70830 0.54624 -0.02000
C 	C 	0.94283 0.70929 0.55104 0.10200
C 	C 	0.95626 0.70889 0.58087 -0.16000
H 	H 	0.94330 0.70880 0.59850 0.11000
C 	C 	0.98830 0.70861 0.58461 0.10100
H 	H 	0.99690 0.70830 0.60470 0.02900
C 	C 	0.00784 0.70883 0.55872 -0.17400
C 	C 	0.99464 0.71012 0.52899 0.09200
H 	H 	0.00760 0.71110 0.51140 -0.02000
C 	C 	0.96268 0.70996 0.52529 -0.16800
H 	H 	0.95420 0.71030 0.50520 0.05800
C 	C 	0.04225 0.70684 0.56265 0.43300
C 	C 	0.90282 0.63852 0.56112 -0.09400
H 	H 	0.92090 0.64520 0.54930 -0.08100
H 	H 	0.90890 0.62090 0.57380 -0.03100
C 	C 	0.87630 0.62900 0.53800 -0.44600
H 	H 	0.85770 0.62270 0.54960 -0.34900
H 	H 	0.87080 0.64670 0.52470 0.05500
C 	C 	0.88830 0.60130 0.51760 -1.91800
H 	H 	0.90890 0.60640 0.50930 0.51800
H 	H 	0.87420 0.59830 0.49990 0.53300
C 	C 	0.89030 0.57060 0.53640 0.68900
H 	H 	0.89770 0.55400 0.52310 -0.21900
H 	H 	0.86980 0.56530 0.54430 1.26300
H 	H 	0.90450 0.57330 0.55370 -0.71600
N 	N 	0.88112 0.66090 0.61119 -0.25400
N 	N 	0.89206 0.69531 0.57414 -0.14000
O 	O 	0.84916 0.81940 0.62671 -0.38600
O 	O 	0.89259 0.81055 0.60118 -0.38900
O 	O 	0.05117 0.70515 0.59183 -0.52200
H 	H 	0.06960 0.70190 0.59740 0.33100
O 	O 	0.06103 0.70711 0.54078 -0.30000
H 	H 	0.81670 0.76670 0.63110 0.04700
H 	H 	0.83170 0.73370 0.63430 -0.00600
C 	C 	0.83960 0.76050 0.67240 0.02500
C 	C 	0.82010 0.77120 0.69440 -0.03300
H 	H 	0.79960 0.77750 0.69050 0.04800
C 	C 	0.83520 0.77170 0.72600 -0.01500
H 	H 	0.82520 0.77860 0.74420 -0.00500
C 	C 	0.86470 0.76110 0.72540 -0.02200
H 	H 	0.87770 0.75950 0.74280 -0.04200
S 	S 	0.87523 0.75103 0.68822 -0.04900
H 	H 	0.91090 0.64740 0.54200 0.14100
H 	H 	0.91990 0.62780 0.57130 0.07300
C 	C 	0.87670 0.61530 0.55140 0.02900
H 	H 	0.86520 0.60840 0.56980 -0.01400
H 	H 	0.86210 0.62550 0.53730 0.59500
C 	C 	0.89230 0.58660 0.53480 1.84000
H 	H 	0.90700 0.57660 0.54910 -0.04500
H 	H 	0.90400 0.59370 0.51660 -0.06500
C 	C 	0.86740 0.56270 0.52450 -5.68300
H 	H 	0.87740 0.54520 0.51430 1.75000
H 	H 	0.85300 0.57250 0.51010 1.71800
H 	H 	0.85610 0.55530 0.54260 0.93000
C 	C 	0.36829 0.30009 0.11480 0.28600
C 	C 	0.36206 0.26579 0.11715 -0.01000
C 	C 	0.33527 0.25572 0.13770 -0.13600
H 	H 	0.31780 0.26970 0.13490 0.01500
H 	H 	0.32880 0.23490 0.13190 0.02400
C 	C 	0.34560 0.25620 0.17172 0.02200
C 	C 	0.37410 0.25070 0.18350 -0.03000
H 	H 	0.39150 0.24570 0.17120 0.06500
C 	C 	0.37500 0.25330 0.21830 -0.00700
H 	H 	0.39290 0.25020 0.23040 0.01100
C 	C 	0.34720 0.26070 0.23020 -0.02300
H 	H 	0.34330 0.26350 0.25150 -0.03700
S 	S 	0.31945 0.26460 0.20123 -0.05500
C 	C 	0.38018 0.24652 0.10007 -0.12000
H 	H 	0.39460 0.25620 0.08680 0.09800
C 	C 	0.38016 0.21264 0.09969 0.07900
C 	C 	0.37371 0.19055 0.12212 -0.08600
H 	H 	0.36550 0.19490 0.14190 0.05100
C 	C 	0.39246 0.16460 0.08201 0.10300
C 	C 	0.40760 0.20830 0.04624 -0.02000
C 	C 	0.44283 0.20929 0.05104 0.10200
C 	C 	0.45626 0.20889 0.08087 -0.16000
H 	H 	0.44330 0.20880 0.09850 0.11000
C 	C 	0.48830 0.20861 0.08461 0.10100
H 	H 	0.49690 0.20830 0.10470 0.02900
C 	C 	0.50784 0.20883 0.05872 -0.17400
C 	C 	0.49464 0.21012 0.02899 0.09200
H 	H 	0.50760 0.21110 0.01140 -0.02000
C 	C 	0.46268 0.20996 0.02529 -0.16800
H 	H 	0.45420 0.21030 0.00520 0.05800
C 	C 	0.54225 0.20684 0.06265 0.43300
C 	C 	0.40282 0.13852 0.06112 -0.09400
H 	H 	0.42090 0.14520 0.04930 -0.08100
H 	H 	0.40890 0.12090 0.07380 -0.03100
C 	C 	0.37630 0.12900 0.03800 -0.44600
H 	H 	0.35770 0.12270 0.04960 -0.34900
H 	H 	0.37080 0.14670 0.02470 0.05500
C 	C 	0.38830 0.10130 0.01760 -1.91800
H 	H 	0.40890 0.10640 0.00930 0.51800
H 	H 	0.37420 0.09830 0.99990 0.53300
C 	C 	0.39030 0.07060 0.03640 0.68900
H 	H 	0.39770 0.05400 0.02310 -0.21900
H 	H 	0.36980 0.06530 0.04430 1.26300
H 	H 	0.40450 0.07330 0.05370 -0.71600
N 	N 	0.38112 0.16090 0.11119 -0.25400
N 	N 	0.39206 0.19531 0.07414 -0.14000
O 	O 	0.34916 0.31940 0.12671 -0.38600
O 	O 	0.39259 0.31055 0.10118 -0.38900
O 	O 	0.55117 0.20515 0.09183 -0.52200
H 	H 	0.56960 0.20190 0.09740 0.33100
O 	O 	0.56103 0.20711 0.04078 -0.30000
H 	H 	0.31670 0.26670 0.13110 0.04700
H 	H 	0.33170 0.23370 0.13430 -0.00600
C 	C 	0.33960 0.26050 0.17240 0.02500
C 	C 	0.32010 0.27120 0.19440 -0.03300
H 	H 	0.29960 0.27750 0.19050 0.04800
C 	C 	0.33520 0.27170 0.22600 -0.01500
H 	H 	0.32520 0.27860 0.24420 -0.00500
C 	C 	0.36470 0.26110 0.22540 -0.02200
H 	H 	0.37770 0.25950 0.24280 -0.04200
S 	S 	0.37523 0.25103 0.18822 -0.04900
H 	H 	0.41090 0.14740 0.04200 0.14100
H 	H 	0.41990 0.12780 0.07130 0.07300
C 	C 	0.37670 0.11530 0.05140 0.02900
H 	H 	0.36520 0.10840 0.06980 -0.01400
H 	H 	0.36210 0.12550 0.03730 0.59500
C 	C 	0.39230 0.08660 0.03480 1.84000
H 	H 	0.40700 0.07660 0.04910 -0.04500
H 	H 	0.40400 0.09370 0.01660 -0.06500
C 	C 	0.36740 0.06270 0.02450 -5.68300
H 	H 	0.37740 0.04520 0.01430 1.75000
H 	H 	0.35300 0.07250 0.01010 1.71800
H 	H 	0.35610 0.05530 0.04260 0.93000
C 	C 	0.13171 0.30009 0.88520 0.28600
C 	C 	0.13794 0.26579 0.88285 -0.01000
C 	C 	0.16473 0.25572 0.86230 -0.13600
H 	H 	0.18220 0.26970 0.86510 0.01500
H 	H 	0.17120 0.23490 0.86810 0.02400
C 	C 	0.15440 0.25620 0.82828 0.02200
C 	C 	0.12590 0.25070 0.81650 -0.03000
H 	H 	0.10850 0.24570 0.82880 0.06500
C 	C 	0.12500 0.25330 0.78170 -0.00700
H 	H 	0.10710 0.25020 0.76960 0.01100
C 	C 	0.15280 0.26070 0.76980 -0.02300
H 	H 	0.15670 0.26350 0.74850 -0.03700
S 	S 	0.18055 0.26460 0.79877 -0.05500
C 	C 	0.11982 0.24652 0.89993 -0.12000
H 	H 	0.10540 0.25620 0.91320 0.09800
C 	C 	0.11984 0.21264 0.90031 0.07900
C 	C 	0.12629 0.19055 0.87788 -0.08600
H 	H 	0.13450 0.19490 0.85810 0.05100
C 	C 	0.10754 0.16460 0.91799 0.10300
C 	C 	0.09240 0.20830 0.95376 -0.02000
C 	C 	0.05717 0.20929 0.94896 0.10200
C 	C 	0.04374 0.20889 0.91913 -0.16000
H 	H 	0.05670 0.20880 0.90150 0.11000
C 	C 	0.01170 0.20861 0.91539 0.10100
H 	H 	0.00310 0.20830 0.89530 0.02900
C 	C 	0.99216 0.20883 0.94128 -0.17400
C 	C 	0.00536 0.21012 0.97101 0.09200
H 	H 	0.99240 0.21110 0.98860 -0.02000
C 	C 	0.03732 0.20996 0.97471 -0.16800
H 	H 	0.04580 0.21030 0.99480 0.05800
C 	C 	0.95775 0.20684 0.93735 0.43300
C 	C 	0.09718 0.13852 0.93888 -0.09400
H 	H 	0.07910 0.14520 0.95070 -0.08100
H 	H 	0.09110 0.12090 0.92620 -0.03100
C 	C 	0.12370 0.12900 0.96200 -0.44600
H 	H 	0.14230 0.12270 0.95040 -0.34900
H 	H 	0.12920 0.14670 0.97530 0.05500
C 	C 	0.11170 0.10130 0.98240 -1.91800
H 	H 	0.09110 0.10640 0.99070 0.51800
H 	H 	0.12580 0.09830 0.00010 0.53300
C 	C 	0.10970 0.07060 0.96360 0.68900
H 	H 	0.10230 0.05400 0.97690 -0.21900
H 	H 	0.13020 0.06530 0.95570 1.26300
H 	H 	0.09550 0.07330 0.94630 -0.71600
N 	N 	0.11888 0.16090 0.88881 -0.25400
N 	N 	0.10794 0.19531 0.92586 -0.14000
O 	O 	0.15084 0.31940 0.87329 -0.38600
O 	O 	0.10741 0.31055 0.89882 -0.38900
O 	O 	0.94883 0.20515 0.90817 -0.52200
H 	H 	0.93040 0.20190 0.90260 0.33100
O 	O 	0.93897 0.20711 0.95922 -0.30000
H 	H 	0.18330 0.26670 0.86890 0.04700
H 	H 	0.16830 0.23370 0.86570 -0.00600
C 	C 	0.16040 0.26050 0.82760 0.02500
C 	C 	0.17990 0.27120 0.80560 -0.03300
H 	H 	0.20040 0.27750 0.80950 0.04800
C 	C 	0.16480 0.27170 0.77400 -0.01500
H 	H 	0.17480 0.27860 0.75580 -0.00500
C 	C 	0.13530 0.26110 0.77460 -0.02200
H 	H 	0.12230 0.25950 0.75720 -0.04200
S 	S 	0.12477 0.25103 0.81178 -0.04900
H 	H 	0.08910 0.14740 0.95800 0.14100
H 	H 	0.08010 0.12780 0.92870 0.07300
C 	C 	0.12330 0.11530 0.94860 0.02900
H 	H 	0.13480 0.10840 0.93020 -0.01400
H 	H 	0.13790 0.12550 0.96270 0.59500
C 	C 	0.10770 0.08660 0.96520 1.84000
H 	H 	0.09300 0.07660 0.95090 -0.04500
H 	H 	0.09600 0.09370 0.98340 -0.06500
C 	C 	0.13260 0.06270 0.97550 -5.68300
H 	H 	0.12260 0.04520 0.98570 1.75000
H 	H 	0.14700 0.07250 0.98990 1.71800
H 	H 	0.14390 0.05530 0.95740 0.93000
C 	C 	0.63171 0.80009 0.38520 0.28600
C 	C 	0.63794 0.76579 0.38285 -0.01000
C 	C 	0.66473 0.75572 0.36230 -0.13600
H 	H 	0.68220 0.76970 0.36510 0.01500
H 	H 	0.67120 0.73490 0.36810 0.02400
C 	C 	0.65440 0.75620 0.32828 0.02200
C 	C 	0.62590 0.75070 0.31650 -0.03000
H 	H 	0.60850 0.74570 0.32880 0.06500
C 	C 	0.62500 0.75330 0.28170 -0.00700
H 	H 	0.60710 0.75020 0.26960 0.01100
C 	C 	0.65280 0.76070 0.26980 -0.02300
H 	H 	0.65670 0.76350 0.24850 -0.03700
S 	S 	0.68055 0.76460 0.29877 -0.05500
C 	C 	0.61982 0.74652 0.39993 -0.12000
H 	H 	0.60540 0.75620 0.41320 0.09800
C 	C 	0.61984 0.71264 0.40031 0.07900
C 	C 	0.62629 0.69055 0.37788 -0.08600
H 	H 	0.63450 0.69490 0.35810 0.05100
C 	C 	0.60754 0.66460 0.41799 0.10300
C 	C 	0.59240 0.70830 0.45376 -0.02000
C 	C 	0.55717 0.70929 0.44896 0.10200
C 	C 	0.54374 0.70889 0.41913 -0.16000
H 	H 	0.55670 0.70880 0.40150 0.11000
C 	C 	0.51170 0.70861 0.41539 0.10100
H 	H 	0.50310 0.70830 0.39530 0.02900
C 	C 	0.49216 0.70883 0.44128 -0.17500
C 	C 	0.50536 0.71012 0.47101 0.09200
H 	H 	0.49240 0.71110 0.48860 -0.02000
C 	C 	0.53732 0.70996 0.47471 -0.16800
H 	H 	0.54580 0.71030 0.49480 0.05800
C 	C 	0.45775 0.70684 0.43735 0.43300
C 	C 	0.59718 0.63852 0.43888 -0.09400
H 	H 	0.57910 0.64520 0.45070 -0.08100
H 	H 	0.59110 0.62090 0.42620 -0.03100
C 	C 	0.62370 0.62900 0.46200 -0.44600
H 	H 	0.64230 0.62270 0.45040 -0.34900
H 	H 	0.62920 0.64670 0.47530 0.05500
C 	C 	0.61170 0.60130 0.48240 -1.91800
H 	H 	0.59110 0.60640 0.49070 0.51800
H 	H 	0.62580 0.59830 0.50010 0.53300
C 	C 	0.60970 0.57060 0.46360 0.68900
H 	H 	0.60230 0.55400 0.47690 -0.21900
H 	H 	0.63020 0.56530 0.45570 1.26300
H 	H 	0.59550 0.57330 0.44630 -0.71600
N 	N 	0.61888 0.66090 0.38881 -0.25400
N 	N 	0.60794 0.69531 0.42586 -0.14000
O 	O 	0.65084 0.81940 0.37329 -0.38600
O 	O 	0.60741 0.81055 0.39882 -0.38900
O 	O 	0.44883 0.70515 0.40817 -0.52200
H 	H 	0.43040 0.70190 0.40260 0.33100
O 	O 	0.43897 0.70711 0.45922 -0.30000
H 	H 	0.68330 0.76670 0.36890 0.04700
H 	H 	0.66830 0.73370 0.36570 -0.00600
C 	C 	0.66040 0.76050 0.32760 0.02500
C 	C 	0.67990 0.77120 0.30560 -0.03300
H 	H 	0.70040 0.77750 0.30950 0.04800
C 	C 	0.66480 0.77170 0.27400 -0.01500
H 	H 	0.67480 0.77860 0.25580 -0.00500
C 	C 	0.63530 0.76110 0.27460 -0.02200
H 	H 	0.62230 0.75950 0.25720 -0.04200
S 	S 	0.62477 0.75103 0.31178 -0.04900
H 	H 	0.58910 0.64740 0.45800 0.14100
H 	H 	0.58010 0.62780 0.42870 0.07300
C 	C 	0.62330 0.61530 0.44860 0.02900
H 	H 	0.63480 0.60840 0.43020 -0.01400
H 	H 	0.63790 0.62550 0.46270 0.59500
C 	C 	0.60770 0.58660 0.46520 1.84000
H 	H 	0.59300 0.57660 0.45090 -0.04500
H 	H 	0.59600 0.59370 0.48340 -0.06500
C 	C 	0.63260 0.56270 0.47550 -5.68300
H 	H 	0.62260 0.54520 0.48570 1.75000
H 	H 	0.64700 0.57250 0.48990 1.71800
H 	H 	0.64390 0.55530 0.45740 0.93000
C 	C 	0.63171 0.19991 0.11480 0.28600
C 	C 	0.63794 0.23421 0.11715 -0.01000
C 	C 	0.66473 0.24428 0.13770 -0.13600
H 	H 	0.68220 0.23030 0.13490 0.01500
H 	H 	0.67120 0.26510 0.13190 0.02400
C 	C 	0.65440 0.24380 0.17172 0.02200
C 	C 	0.62590 0.24930 0.18350 -0.03000
H 	H 	0.60850 0.25430 0.17120 0.06500
C 	C 	0.62500 0.24670 0.21830 -0.00700
H 	H 	0.60710 0.24980 0.23040 0.01100
C 	C 	0.65280 0.23930 0.23020 -0.02300
H 	H 	0.65670 0.23650 0.25150 -0.03700
S 	S 	0.68055 0.23540 0.20123 -0.05500
C 	C 	0.61982 0.25348 0.10007 -0.12000
H 	H 	0.60540 0.24380 0.08680 0.09800
C 	C 	0.61984 0.28736 0.09969 0.07900
C 	C 	0.62629 0.30945 0.12212 -0.08600
H 	H 	0.63450 0.30510 0.14190 0.05100
C 	C 	0.60754 0.33540 0.08201 0.10300
C 	C 	0.59240 0.29170 0.04624 -0.02000
C 	C 	0.55717 0.29071 0.05104 0.10200
C 	C 	0.54374 0.29111 0.08087 -0.16000
H 	H 	0.55670 0.29120 0.09850 0.11000
C 	C 	0.51170 0.29139 0.08461 0.10100
H 	H 	0.50310 0.29170 0.10470 0.02900
C 	C 	0.49216 0.29117 0.05872 -0.17400
C 	C 	0.50536 0.28988 0.02899 0.09200
H 	H 	0.49240 0.28890 0.01140 -0.02000
C 	C 	0.53732 0.29004 0.02529 -0.16800
H 	H 	0.54580 0.28970 0.00520 0.05800
C 	C 	0.45775 0.29316 0.06265 0.43300
C 	C 	0.59718 0.36148 0.06112 -0.09400
H 	H 	0.57910 0.35480 0.04930 -0.08100
H 	H 	0.59110 0.37910 0.07380 -0.03100
C 	C 	0.62370 0.37100 0.03800 -0.44600
H 	H 	0.64230 0.37730 0.04960 -0.34900
H 	H 	0.62920 0.35330 0.02470 0.05500
C 	C 	0.61170 0.39870 0.01760 -1.91800
H 	H 	0.59110 0.39360 0.00930 0.51800
H 	H 	0.62580 0.40170 0.99990 0.53300
C 	C 	0.60970 0.42940 0.03640 0.68900
H 	H 	0.60230 0.44600 0.02310 -0.21900
H 	H 	0.63020 0.43470 0.04430 1.26300
H 	H 	0.59550 0.42670 0.05370 -0.71600
N 	N 	0.61888 0.33910 0.11119 -0.25400
N 	N 	0.60794 0.30469 0.07414 -0.14000
O 	O 	0.65084 0.18060 0.12671 -0.38600
O 	O 	0.60741 0.18945 0.10118 -0.38900
O 	O 	0.44883 0.29485 0.09183 -0.52200
H 	H 	0.43040 0.29810 0.09740 0.33100
O 	O 	0.43897 0.29289 0.04078 -0.30000
H 	H 	0.68330 0.23330 0.13110 0.04700
H 	H 	0.66830 0.26630 0.13430 -0.00600
C 	C 	0.66040 0.23950 0.17240 0.02500
C 	C 	0.67990 0.22880 0.19440 -0.03300
H 	H 	0.70040 0.22250 0.19050 0.04800
C 	C 	0.66480 0.22830 0.22600 -0.01500
H 	H 	0.67480 0.22140 0.24420 -0.00500
C 	C 	0.63530 0.23890 0.22540 -0.02200
H 	H 	0.62230 0.24050 0.24280 -0.04200
S 	S 	0.62477 0.24897 0.18822 -0.04900
H 	H 	0.58910 0.35260 0.04200 0.14100
H 	H 	0.58010 0.37220 0.07130 0.07300
C 	C 	0.62330 0.38470 0.05140 0.02900
H 	H 	0.63480 0.39160 0.06980 -0.01400
H 	H 	0.63790 0.37450 0.03730 0.59500
C 	C 	0.60770 0.41340 0.03480 1.84000
H 	H 	0.59300 0.42340 0.04910 -0.04500
H 	H 	0.59600 0.40630 0.01660 -0.06500
C 	C 	0.63260 0.43730 0.02450 -5.68300
H 	H 	0.62260 0.45480 0.01430 1.75000
H 	H 	0.64700 0.42750 0.01010 1.71800
H 	H 	0.64390 0.44470 0.04260 0.93000
C 	C 	0.13171 0.69991 0.61480 0.28600
C 	C 	0.13794 0.73421 0.61715 -0.01000
C 	C 	0.16473 0.74428 0.63770 -0.13600
H 	H 	0.18220 0.73030 0.63490 0.01500
H 	H 	0.17120 0.76510 0.63190 0.02400
C 	C 	0.15440 0.74380 0.67172 0.02200
C 	C 	0.12590 0.74930 0.68350 -0.03000
H 	H 	0.10850 0.75430 0.67120 0.06500
C 	C 	0.12500 0.74670 0.71830 -0.00700
H 	H 	0.10710 0.74980 0.73040 0.01100
C 	C 	0.15280 0.73930 0.73020 -0.02300
H 	H 	0.15670 0.73650 0.75150 -0.03700
S 	S 	0.18055 0.73540 0.70123 -0.05500
C 	C 	0.11982 0.75348 0.60007 -0.12000
H 	H 	0.10540 0.74380 0.58680 0.09800
C 	C 	0.11984 0.78736 0.59969 0.07900
C 	C 	0.12629 0.80945 0.62212 -0.08600
H 	H 	0.13450 0.80510 0.64190 0.05100
C 	C 	0.10754 0.83540 0.58201 0.10300
C 	C 	0.09240 0.79170 0.54624 -0.02000
C 	C 	0.05717 0.79071 0.55104 0.10200
C 	C 	0.04374 0.79111 0.58087 -0.16000
H 	H 	0.05670 0.79120 0.59850 0.11000
C 	C 	0.01170 0.79139 0.58461 0.10100
H 	H 	0.00310 0.79170 0.60470 0.02900
C 	C 	0.99216 0.79117 0.55872 -0.17400
C 	C 	0.00536 0.78988 0.52899 0.09200
H 	H 	0.99240 0.78890 0.51140 -0.02000
C 	C 	0.03732 0.79004 0.52529 -0.16800
H 	H 	0.04580 0.78970 0.50520 0.05800
C 	C 	0.95775 0.79316 0.56265 0.43300
C 	C 	0.09718 0.86148 0.56112 -0.09400
H 	H 	0.07910 0.85480 0.54930 -0.08100
H 	H 	0.09110 0.87910 0.57380 -0.03100
C 	C 	0.12370 0.87100 0.53800 -0.44600
H 	H 	0.14230 0.87730 0.54960 -0.34900
H 	H 	0.12920 0.85330 0.52470 0.05500
C 	C 	0.11170 0.89870 0.51760 -1.91800
H 	H 	0.09110 0.89360 0.50930 0.51800
H 	H 	0.12580 0.90170 0.49990 0.53300
C 	C 	0.10970 0.92940 0.53640 0.68900
H 	H 	0.10230 0.94600 0.52310 -0.21900
H 	H 	0.13020 0.93470 0.54430 1.26300
H 	H 	0.09550 0.92670 0.55370 -0.71600
N 	N 	0.11888 0.83910 0.61119 -0.25400
N 	N 	0.10794 0.80469 0.57414 -0.14000
O 	O 	0.15084 0.68060 0.62671 -0.38600
O 	O 	0.10741 0.68945 0.60118 -0.38900
O 	O 	0.94883 0.79485 0.59183 -0.52200
H 	H 	0.93040 0.79810 0.59740 0.33100
O 	O 	0.93897 0.79289 0.54078 -0.30000
H 	H 	0.18330 0.73330 0.63110 0.04700
H 	H 	0.16830 0.76630 0.63430 -0.00600
C 	C 	0.16040 0.73950 0.67240 0.02500
C 	C 	0.17990 0.72880 0.69440 -0.03300
H 	H 	0.20040 0.72250 0.69050 0.04800
C 	C 	0.16480 0.72830 0.72600 -0.01500
H 	H 	0.17480 0.72140 0.74420 -0.00500
C 	C 	0.13530 0.73890 0.72540 -0.02200
H 	H 	0.12230 0.74050 0.74280 -0.04200
S 	S 	0.12477 0.74897 0.68822 -0.04900
H 	H 	0.08910 0.85260 0.54200 0.14100
H 	H 	0.08010 0.87220 0.57130 0.07300
C 	C 	0.12330 0.88470 0.55140 0.02900
H 	H 	0.13480 0.89160 0.56980 -0.01400
H 	H 	0.13790 0.87450 0.53730 0.59500
C 	C 	0.10770 0.91340 0.53480 1.84000
H 	H 	0.09300 0.92340 0.54910 -0.04500
H 	H 	0.09600 0.90630 0.51660 -0.06500
C 	C 	0.13260 0.93730 0.52450 -5.68300
H 	H 	0.12260 0.95480 0.51430 1.75000
H 	H 	0.14700 0.92750 0.51010 1.71800
H 	H 	0.14390 0.94470 0.54260 0.93000
C 	C 	0.36829 0.69991 0.38520 0.28600
C 	C 	0.36206 0.73421 0.38285 -0.01000
C 	C 	0.33527 0.74428 0.36230 -0.13600
H 	H 	0.31780 0.73030 0.36510 0.01500
H 	H 	0.32880 0.76510 0.36810 0.02400
C 	C 	0.34560 0.74380 0.32828 0.02200
C 	C 	0.37410 0.74930 0.31650 -0.03000
H 	H 	0.39150 0.75430 0.32880 0.06500
C 	C 	0.37500 0.74670 0.28170 -0.00700
H 	H 	0.39290 0.74980 0.26960 0.01100
C 	C 	0.34720 0.73930 0.26980 -0.02300
H 	H 	0.34330 0.73650 0.24850 -0.03700
S 	S 	0.31945 0.73540 0.29877 -0.05500
C 	C 	0.38018 0.75348 0.39993 -0.12000
H 	H 	0.39460 0.74380 0.41320 0.09800
C 	C 	0.38016 0.78736 0.40031 0.07900
C 	C 	0.37371 0.80945 0.37788 -0.08600
H 	H 	0.36550 0.80510 0.35810 0.05100
C 	C 	0.39246 0.83540 0.41799 0.10300
C 	C 	0.40760 0.79170 0.45376 -0.02000
C 	C 	0.44283 0.79071 0.44896 0.10200
C 	C 	0.45626 0.79111 0.41913 -0.16000
H 	H 	0.44330 0.79120 0.40150 0.11000
C 	C 	0.48830 0.79139 0.41539 0.10100
H 	H 	0.49690 0.79170 0.39530 0.02900
C 	C 	0.50784 0.79117 0.44128 -0.17500
C 	C 	0.49464 0.78988 0.47101 0.09200
H 	H 	0.50760 0.78890 0.48860 -0.02000
C 	C 	0.46268 0.79004 0.47471 -0.16800
H 	H 	0.45420 0.78970 0.49480 0.05800
C 	C 	0.54225 0.79316 0.43735 0.43300
C 	C 	0.40282 0.86148 0.43888 -0.09400
H 	H 	0.42090 0.85480 0.45070 -0.08100
H 	H 	0.40890 0.87910 0.42620 -0.03100
C 	C 	0.37630 0.87100 0.46200 -0.44600
H 	H 	0.35770 0.87730 0.45040 -0.34900
H 	H 	0.37080 0.85330 0.47530 0.05500
C 	C 	0.38830 0.89870 0.48240 -1.91800
H 	H 	0.40890 0.89360 0.49070 0.51800
H 	H 	0.37420 0.90170 0.50010 0.53300
C 	C 	0.39030 0.92940 0.46360 0.68900
H 	H 	0.39770 0.94600 0.47690 -0.21900
H 	H 	0.36980 0.93470 0.45570 1.26300
H 	H 	0.40450 0.92670 0.44630 -0.71600
N 	N 	0.38112 0.83910 0.38881 -0.25400
N 	N 	0.39206 0.80469 0.42586 -0.14000
O 	O 	0.34916 0.68060 0.37329 -0.38600
O 	O 	0.39259 0.68945 0.39882 -0.38900
O 	O 	0.55117 0.79485 0.40817 -0.52200
H 	H 	0.56960 0.79810 0.40260 0.33100
O 	O 	0.56103 0.79289 0.45922 -0.30000
H 	H 	0.31670 0.73330 0.36890 0.04700
H 	H 	0.33170 0.76630 0.36570 -0.00600
C 	C 	0.33960 0.73950 0.32760 0.02500
C 	C 	0.32010 0.72880 0.30560 -0.03300
H 	H 	0.29960 0.72250 0.30950 0.04800
C 	C 	0.33520 0.72830 0.27400 -0.01500
H 	H 	0.32520 0.72140 0.25580 -0.00500
C 	C 	0.36470 0.73890 0.27460 -0.02200
H 	H 	0.37770 0.74050 0.25720 -0.04200
S 	S 	0.37523 0.74897 0.31178 -0.04900
H 	H 	0.41090 0.85260 0.45800 0.14100
H 	H 	0.41990 0.87220 0.42870 0.07300
C 	C 	0.37670 0.88470 0.44860 0.02900
H 	H 	0.36520 0.89160 0.43020 -0.01400
H 	H 	0.36210 0.87450 0.46270 0.59500
C 	C 	0.39230 0.91340 0.46520 1.84000
H 	H 	0.40700 0.92340 0.45090 -0.04500
H 	H 	0.40400 0.90630 0.48340 -0.06500
C 	C 	0.36740 0.93730 0.47550 -5.68300
H 	H 	0.37740 0.95480 0.48570 1.75000
H 	H 	0.35300 0.92750 0.48990 1.71800
H 	H 	0.35610 0.94470 0.45740 0.93000
C 	C 	0.86829 0.19991 0.88520 0.28600
C 	C 	0.86206 0.23421 0.88285 -0.01000
C 	C 	0.83527 0.24428 0.86230 -0.13600
H 	H 	0.81780 0.23030 0.86510 0.01500
H 	H 	0.82880 0.26510 0.86810 0.02400
C 	C 	0.84560 0.24380 0.82828 0.02200
C 	C 	0.87410 0.24930 0.81650 -0.03000
H 	H 	0.89150 0.25430 0.82880 0.06500
C 	C 	0.87500 0.24670 0.78170 -0.00700
H 	H 	0.89290 0.24980 0.76960 0.01100
C 	C 	0.84720 0.23930 0.76980 -0.02300
H 	H 	0.84330 0.23650 0.74850 -0.03700
S 	S 	0.81945 0.23540 0.79877 -0.05500
C 	C 	0.88018 0.25348 0.89993 -0.12000
H 	H 	0.89460 0.24380 0.91320 0.09800
C 	C 	0.88016 0.28736 0.90031 0.07900
C 	C 	0.87371 0.30945 0.87788 -0.08600
H 	H 	0.86550 0.30510 0.85810 0.05100
C 	C 	0.89246 0.33540 0.91799 0.10300
C 	C 	0.90760 0.29170 0.95376 -0.02000
C 	C 	0.94283 0.29071 0.94896 0.10200
C 	C 	0.95626 0.29111 0.91913 -0.16000
H 	H 	0.94330 0.29120 0.90150 0.11000
C 	C 	0.98830 0.29139 0.91539 0.10100
H 	H 	0.99690 0.29170 0.89530 0.02900
C 	C 	0.00784 0.29117 0.94128 -0.17400
C 	C 	0.99464 0.28988 0.97101 0.09200
H 	H 	0.00760 0.28890 0.98860 -0.02000
C 	C 	0.96268 0.29004 0.97471 -0.16800
H 	H 	0.95420 0.28970 0.99480 0.05800
C 	C 	0.04225 0.29316 0.93735 0.43300
C 	C 	0.90282 0.36148 0.93888 -0.09400
H 	H 	0.92090 0.35480 0.95070 -0.08100
H 	H 	0.90890 0.37910 0.92620 -0.03100
C 	C 	0.87630 0.37100 0.96200 -0.44600
H 	H 	0.85770 0.37730 0.95040 -0.34900
H 	H 	0.87080 0.35330 0.97530 0.05500
C 	C 	0.88830 0.39870 0.98240 -1.91800
H 	H 	0.90890 0.39360 0.99070 0.51800
H 	H 	0.87420 0.40170 0.00010 0.53300
C 	C 	0.89030 0.42940 0.96360 0.68900
H 	H 	0.89770 0.44600 0.97690 -0.21900
H 	H 	0.86980 0.43470 0.95570 1.26300
H 	H 	0.90450 0.42670 0.94630 -0.71600
N 	N 	0.88112 0.33910 0.88881 -0.25400
N 	N 	0.89206 0.30469 0.92586 -0.14000
O 	O 	0.84916 0.18060 0.87329 -0.38600
O 	O 	0.89259 0.18945 0.89882 -0.38900
O 	O 	0.05117 0.29485 0.90817 -0.52200
H 	H 	0.06960 0.29810 0.90260 0.33100
O 	O 	0.06103 0.29289 0.95922 -0.30000
H 	H 	0.81670 0.23330 0.86890 0.04700
H 	H 	0.83170 0.26630 0.86570 -0.00600
C 	C 	0.83960 0.23950 0.82760 0.02500
C 	C 	0.82010 0.22880 0.80560 -0.03300
H 	H 	0.79960 0.22250 0.80950 0.04800
C 	C 	0.83520 0.22830 0.77400 -0.01500
H 	H 	0.82520 0.22140 0.75580 -0.00500
C 	C 	0.86470 0.23890 0.77460 -0.02200
H 	H 	0.87770 0.24050 0.75720 -0.04200
S 	S 	0.87523 0.24897 0.81178 -0.04900
H 	H 	0.91090 0.35260 0.95800 0.14100
H 	H 	0.91990 0.37220 0.92870 0.07300
C 	C 	0.87670 0.38470 0.94860 0.02900
H 	H 	0.86520 0.39160 0.93020 -0.01400
H 	H 	0.86210 0.37450 0.96270 0.59500
C 	C 	0.89230 0.41340 0.96520 1.84000
H 	H 	0.90700 0.42340 0.95090 -0.04500
H 	H 	0.90400 0.40630 0.98340 -0.06500
C 	C 	0.86740 0.43730 0.97550 -5.68300
H 	H 	0.87740 0.45480 0.98570 1.75000
H 	H 	0.85300 0.42750 0.98990 1.71800
H 	H 	0.85610 0.44470 0.95740 0.93000
C 	C 	0.30009 0.88520 0.13171 0.28600
C 	C 	0.26579 0.88285 0.13794 -0.01000
C 	C 	0.25572 0.86230 0.16473 -0.13600
H 	H 	0.26970 0.86510 0.18220 0.01500
H 	H 	0.23490 0.86810 0.17120 0.02400
C 	C 	0.25620 0.82828 0.15440 0.02200
C 	C 	0.25070 0.81650 0.12590 -0.03000
H 	H 	0.24570 0.82880 0.10850 0.06500
C 	C 	0.25330 0.78170 0.12500 -0.00700
H 	H 	0.25020 0.76960 0.10710 0.01100
C 	C 	0.26070 0.76980 0.15280 -0.02300
H 	H 	0.26350 0.74850 0.15670 -0.03700
S 	S 	0.26460 0.79877 0.18055 -0.05500
C 	C 	0.24652 0.89993 0.11982 -0.12000
H 	H 	0.25620 0.91320 0.10540 0.09800
C 	C 	0.21264 0.90031 0.11984 0.07900
C 	C 	0.19055 0.87788 0.12629 -0.08600
H 	H 	0.19490 0.85810 0.13450 0.05100
C 	C 	0.16460 0.91799 0.10754 0.10300
C 	C 	0.20830 0.95376 0.09240 -0.02000
C 	C 	0.20929 0.94896 0.05717 0.10200
C 	C 	0.20889 0.91913 0.04374 -0.16000
H 	H 	0.20880 0.90150 0.05670 0.11000
C 	C 	0.20861 0.91539 0.01170 0.10100
H 	H 	0.20830 0.89530 0.00310 0.02900
C 	C 	0.20883 0.94128 0.99216 -0.17400
C 	C 	0.21012 0.97101 0.00536 0.09200
H 	H 	0.21110 0.98860 0.99240 -0.02000
C 	C 	0.20996 0.97471 0.03732 -0.16800
H 	H 	0.21030 0.99480 0.04580 0.05800
C 	C 	0.20684 0.93735 0.95775 0.43300
C 	C 	0.13852 0.93888 0.09718 -0.09400
H 	H 	0.14520 0.95070 0.07910 -0.08100
H 	H 	0.12090 0.92620 0.09110 -0.03100
C 	C 	0.12900 0.96200 0.12370 -0.44600
H 	H 	0.12270 0.95040 0.14230 -0.34900
H 	H 	0.14670 0.97530 0.12920 0.05500
C 	C 	0.10130 0.98240 0.11170 -1.91800
H 	H 	0.10640 0.99070 0.09110 0.51800
H 	H 	0.09830 0.00010 0.12580 0.53300
C 	C 	0.07060 0.96360 0.10970 0.68900
H 	H 	0.05400 0.97690 0.10230 -0.21900
H 	H 	0.06530 0.95570 0.13020 1.26300
H 	H 	0.07330 0.94630 0.09550 -0.71600
N 	N 	0.16090 0.88881 0.11888 -0.25400
N 	N 	0.19531 0.92586 0.10794 -0.14000
O 	O 	0.31940 0.87329 0.15084 -0.38600
O 	O 	0.31055 0.89882 0.10741 -0.38900
O 	O 	0.20515 0.90817 0.94883 -0.52200
H 	H 	0.20190 0.90260 0.93040 0.33100
O 	O 	0.20711 0.95922 0.93897 -0.30000
H 	H 	0.26670 0.86890 0.18330 0.04700
H 	H 	0.23370 0.86570 0.16830 -0.00600
C 	C 	0.26050 0.82760 0.16040 0.02500
C 	C 	0.27120 0.80560 0.17990 -0.03300
H 	H 	0.27750 0.80950 0.20040 0.04800
C 	C 	0.27170 0.77400 0.16480 -0.01500
H 	H 	0.27860 0.75580 0.17480 -0.00500
C 	C 	0.26110 0.77460 0.13530 -0.02200
H 	H 	0.25950 0.75720 0.12230 -0.04200
S 	S 	0.25103 0.81178 0.12477 -0.04900
H 	H 	0.14740 0.95800 0.08910 0.14100
H 	H 	0.12780 0.92870 0.08010 0.07300
C 	C 	0.11530 0.94860 0.12330 0.02900
H 	H 	0.10840 0.93020 0.13480 -0.01400
H 	H 	0.12550 0.96270 0.13790 0.59500
C 	C 	0.08660 0.96520 0.10770 1.84000
H 	H 	0.07660 0.95090 0.09300 -0.04500
H 	H 	0.09370 0.98340 0.09600 -0.06500
C 	C 	0.06270 0.97550 0.13260 -5.68300
H 	H 	0.04520 0.98570 0.12260 1.75000
H 	H 	0.07250 0.98990 0.14700 1.71800
H 	H 	0.05530 0.95740 0.14390 0.93000
C 	C 	0.80009 0.38520 0.63171 0.28600
C 	C 	0.76579 0.38285 0.63794 -0.01000
C 	C 	0.75572 0.36230 0.66473 -0.13600
H 	H 	0.76970 0.36510 0.68220 0.01500
H 	H 	0.73490 0.36810 0.67120 0.02400
C 	C 	0.75620 0.32828 0.65440 0.02200
C 	C 	0.75070 0.31650 0.62590 -0.03000
H 	H 	0.74570 0.32880 0.60850 0.06500
C 	C 	0.75330 0.28170 0.62500 -0.00700
H 	H 	0.75020 0.26960 0.60710 0.01100
C 	C 	0.76070 0.26980 0.65280 -0.02300
H 	H 	0.76350 0.24850 0.65670 -0.03700
S 	S 	0.76460 0.29877 0.68055 -0.05500
C 	C 	0.74652 0.39993 0.61982 -0.12000
H 	H 	0.75620 0.41320 0.60540 0.09800
C 	C 	0.71264 0.40031 0.61984 0.07900
C 	C 	0.69055 0.37788 0.62629 -0.08600
H 	H 	0.69490 0.35810 0.63450 0.05100
C 	C 	0.66460 0.41799 0.60754 0.10300
C 	C 	0.70830 0.45376 0.59240 -0.02000
C 	C 	0.70929 0.44896 0.55717 0.10200
C 	C 	0.70889 0.41913 0.54374 -0.16000
H 	H 	0.70880 0.40150 0.55670 0.11000
C 	C 	0.70861 0.41539 0.51170 0.10100
H 	H 	0.70830 0.39530 0.50310 0.02900
C 	C 	0.70883 0.44128 0.49216 -0.17500
C 	C 	0.71012 0.47101 0.50536 0.09200
H 	H 	0.71110 0.48860 0.49240 -0.02000
C 	C 	0.70996 0.47471 0.53732 -0.16800
H 	H 	0.71030 0.49480 0.54580 0.05800
C 	C 	0.70684 0.43735 0.45775 0.43300
C 	C 	0.63852 0.43888 0.59718 -0.09400
H 	H 	0.64520 0.45070 0.57910 -0.08100
H 	H 	0.62090 0.42620 0.59110 -0.03100
C 	C 	0.62900 0.46200 0.62370 -0.44600
H 	H 	0.62270 0.45040 0.64230 -0.34900
H 	H 	0.64670 0.47530 0.62920 0.05500
C 	C 	0.60130 0.48240 0.61170 -1.91800
H 	H 	0.60640 0.49070 0.59110 0.51800
H 	H 	0.59830 0.50010 0.62580 0.53300
C 	C 	0.57060 0.46360 0.60970 0.68900
H 	H 	0.55400 0.47690 0.60230 -0.21900
H 	H 	0.56530 0.45570 0.63020 1.26300
H 	H 	0.57330 0.44630 0.59550 -0.71600
N 	N 	0.66090 0.38881 0.61888 -0.25400
N 	N 	0.69531 0.42586 0.60794 -0.14000
O 	O 	0.81940 0.37329 0.65084 -0.38600
O 	O 	0.81055 0.39882 0.60741 -0.38900
O 	O 	0.70515 0.40817 0.44883 -0.52200
H 	H 	0.70190 0.40260 0.43040 0.33100
O 	O 	0.70711 0.45922 0.43897 -0.30000
H 	H 	0.76670 0.36890 0.68330 0.04700
H 	H 	0.73370 0.36570 0.66830 -0.00600
C 	C 	0.76050 0.32760 0.66040 0.02500
C 	C 	0.77120 0.30560 0.67990 -0.03300
H 	H 	0.77750 0.30950 0.70040 0.04800
C 	C 	0.77170 0.27400 0.66480 -0.01500
H 	H 	0.77860 0.25580 0.67480 -0.00500
C 	C 	0.76110 0.27460 0.63530 -0.02200
H 	H 	0.75950 0.25720 0.62230 -0.04200
S 	S 	0.75103 0.31178 0.62477 -0.04900
H 	H 	0.64740 0.45800 0.58910 0.14100
H 	H 	0.62780 0.42870 0.58010 0.07300
C 	C 	0.61530 0.44860 0.62330 0.02900
H 	H 	0.60840 0.43020 0.63480 -0.01400
H 	H 	0.62550 0.46270 0.63790 0.59500
C 	C 	0.58660 0.46520 0.60770 1.84000
H 	H 	0.57660 0.45090 0.59300 -0.04500
H 	H 	0.59370 0.48340 0.59600 -0.06500
C 	C 	0.56270 0.47550 0.63260 -5.68300
H 	H 	0.54520 0.48570 0.62260 1.75000
H 	H 	0.57250 0.48990 0.64700 1.71800
H 	H 	0.55530 0.45740 0.64390 0.93000
C 	C 	0.80009 0.61480 0.86829 0.28600
C 	C 	0.76579 0.61715 0.86206 -0.01000
C 	C 	0.75572 0.63770 0.83527 -0.13600
H 	H 	0.76970 0.63490 0.81780 0.01500
H 	H 	0.73490 0.63190 0.82880 0.02400
C 	C 	0.75620 0.67172 0.84560 0.02200
C 	C 	0.75070 0.68350 0.87410 -0.03000
H 	H 	0.74570 0.67120 0.89150 0.06500
C 	C 	0.75330 0.71830 0.87500 -0.00700
H 	H 	0.75020 0.73040 0.89290 0.01100
C 	C 	0.76070 0.73020 0.84720 -0.02300
H 	H 	0.76350 0.75150 0.84330 -0.03700
S 	S 	0.76460 0.70123 0.81945 -0.05500
C 	C 	0.74652 0.60007 0.88018 -0.12000
H 	H 	0.75620 0.58680 0.89460 0.09800
C 	C 	0.71264 0.59969 0.88016 0.07900
C 	C 	0.69055 0.62212 0.87371 -0.08600
H 	H 	0.69490 0.64190 0.86550 0.05100
C 	C 	0.66460 0.58201 0.89246 0.10300
C 	C 	0.70830 0.54624 0.90760 -0.02000
C 	C 	0.70929 0.55104 0.94283 0.10200
C 	C 	0.70889 0.58087 0.95626 -0.16000
H 	H 	0.70880 0.59850 0.94330 0.11000
C 	C 	0.70861 0.58461 0.98830 0.10100
H 	H 	0.70830 0.60470 0.99690 0.02900
C 	C 	0.70883 0.55872 0.00784 -0.17400
C 	C 	0.71012 0.52899 0.99464 0.09200
H 	H 	0.71110 0.51140 0.00760 -0.02000
C 	C 	0.70996 0.52529 0.96268 -0.16800
H 	H 	0.71030 0.50520 0.95420 0.05800
C 	C 	0.70684 0.56265 0.04225 0.43300
C 	C 	0.63852 0.56112 0.90282 -0.09400
H 	H 	0.64520 0.54930 0.92090 -0.08100
H 	H 	0.62090 0.57380 0.90890 -0.03100
C 	C 	0.62900 0.53800 0.87630 -0.44600
H 	H 	0.62270 0.54960 0.85770 -0.34900
H 	H 	0.64670 0.52470 0.87080 0.05500
C 	C 	0.60130 0.51760 0.88830 -1.91800
H 	H 	0.60640 0.50930 0.90890 0.51800
H 	H 	0.59830 0.49990 0.87420 0.53300
C 	C 	0.57060 0.53640 0.89030 0.68900
H 	H 	0.55400 0.52310 0.89770 -0.21900
H 	H 	0.56530 0.54430 0.86980 1.26300
H 	H 	0.57330 0.55370 0.90450 -0.71600
N 	N 	0.66090 0.61119 0.88112 -0.25400
N 	N 	0.69531 0.57414 0.89206 -0.14000
O 	O 	0.81940 0.62671 0.84916 -0.38600
O 	O 	0.81055 0.60118 0.89259 -0.38900
O 	O 	0.70515 0.59183 0.05117 -0.52200
H 	H 	0.70190 0.59740 0.06960 0.33100
O 	O 	0.70711 0.54078 0.06103 -0.30000
H 	H 	0.76670 0.63110 0.81670 0.04700
H 	H 	0.73370 0.63430 0.83170 -0.00600
C 	C 	0.76050 0.67240 0.83960 0.02500
C 	C 	0.77120 0.69440 0.82010 -0.03300
H 	H 	0.77750 0.69050 0.79960 0.04800
C 	C 	0.77170 0.72600 0.83520 -0.01500
H 	H 	0.77860 0.74420 0.82520 -0.00500
C 	C 	0.76110 0.72540 0.86470 -0.02200
H 	H 	0.75950 0.74280 0.87770 -0.04200
S 	S 	0.75103 0.68822 0.87523 -0.04900
H 	H 	0.64740 0.54200 0.91090 0.14100
H 	H 	0.62780 0.57130 0.91990 0.07300
C 	C 	0.61530 0.55140 0.87670 0.02900
H 	H 	0.60840 0.56980 0.86520 -0.01400
H 	H 	0.62550 0.53730 0.86210 0.59500
C 	C 	0.58660 0.53480 0.89230 1.84000
H 	H 	0.57660 0.54910 0.90700 -0.04500
H 	H 	0.59370 0.51660 0.90400 -0.06500
C 	C 	0.56270 0.52450 0.86740 -5.68300
H 	H 	0.54520 0.51430 0.87740 1.75000
H 	H 	0.57250 0.51010 0.85300 1.71800
H 	H 	0.55530 0.54260 0.85610 0.93000
C 	C 	0.30009 0.11480 0.36829 0.28600
C 	C 	0.26579 0.11715 0.36206 -0.01000
C 	C 	0.25572 0.13770 0.33527 -0.13600
H 	H 	0.26970 0.13490 0.31780 0.01500
H 	H 	0.23490 0.13190 0.32880 0.02400
C 	C 	0.25620 0.17172 0.34560 0.02200
C 	C 	0.25070 0.18350 0.37410 -0.03000
H 	H 	0.24570 0.17120 0.39150 0.06500
C 	C 	0.25330 0.21830 0.37500 -0.00700
H 	H 	0.25020 0.23040 0.39290 0.01100
C 	C 	0.26070 0.23020 0.34720 -0.02300
H 	H 	0.26350 0.25150 0.34330 -0.03700
S 	S 	0.26460 0.20123 0.31945 -0.05500
C 	C 	0.24652 0.10007 0.38018 -0.12000
H 	H 	0.25620 0.08680 0.39460 0.09800
C 	C 	0.21264 0.09969 0.38016 0.07900
C 	C 	0.19055 0.12212 0.37371 -0.08600
H 	H 	0.19490 0.14190 0.36550 0.05100
C 	C 	0.16460 0.08201 0.39246 0.10300
C 	C 	0.20830 0.04624 0.40760 -0.02000
C 	C 	0.20929 0.05104 0.44283 0.10200
C 	C 	0.20889 0.08087 0.45626 -0.16000
H 	H 	0.20880 0.09850 0.44330 0.11000
C 	C 	0.20861 0.08461 0.48830 0.10100
H 	H 	0.20830 0.10470 0.49690 0.02900
C 	C 	0.20883 0.05872 0.50784 -0.17400
C 	C 	0.21012 0.02899 0.49464 0.09200
H 	H 	0.21110 0.01140 0.50760 -0.02000
C 	C 	0.20996 0.02529 0.46268 -0.16800
H 	H 	0.21030 0.00520 0.45420 0.05800
C 	C 	0.20684 0.06265 0.54225 0.43300
C 	C 	0.13852 0.06112 0.40282 -0.09400
H 	H 	0.14520 0.04930 0.42090 -0.08100
H 	H 	0.12090 0.07380 0.40890 -0.03100
C 	C 	0.12900 0.03800 0.37630 -0.44600
H 	H 	0.12270 0.04960 0.35770 -0.34900
H 	H 	0.14670 0.02470 0.37080 0.05500
C 	C 	0.10130 0.01760 0.38830 -1.91800
H 	H 	0.10640 0.00930 0.40890 0.51800
H 	H 	0.09830 0.99990 0.37420 0.53300
C 	C 	0.07060 0.03640 0.39030 0.68900
H 	H 	0.05400 0.02310 0.39770 -0.21900
H 	H 	0.06530 0.04430 0.36980 1.26300
H 	H 	0.07330 0.05370 0.40450 -0.71600
N 	N 	0.16090 0.11119 0.38112 -0.25400
N 	N 	0.19531 0.07414 0.39206 -0.14000
O 	O 	0.31940 0.12671 0.34916 -0.38600
O 	O 	0.31055 0.10118 0.39259 -0.38900
O 	O 	0.20515 0.09183 0.55117 -0.52200
H 	H 	0.20190 0.09740 0.56960 0.33100
O 	O 	0.20711 0.04078 0.56103 -0.30000
H 	H 	0.26670 0.13110 0.31670 0.04700
H 	H 	0.23370 0.13430 0.33170 -0.00600
C 	C 	0.26050 0.17240 0.33960 0.02500
C 	C 	0.27120 0.19440 0.32010 -0.03300
H 	H 	0.27750 0.19050 0.29960 0.04800
C 	C 	0.27170 0.22600 0.33520 -0.01500
H 	H 	0.27860 0.24420 0.32520 -0.00500
C 	C 	0.26110 0.22540 0.36470 -0.02200
H 	H 	0.25950 0.24280 0.37770 -0.04200
S 	S 	0.25103 0.18822 0.37523 -0.04900
H 	H 	0.14740 0.04200 0.41090 0.14100
H 	H 	0.12780 0.07130 0.41990 0.07300
C 	C 	0.11530 0.05140 0.37670 0.02900
H 	H 	0.10840 0.06980 0.36520 -0.01400
H 	H 	0.12550 0.03730 0.36210 0.59500
C 	C 	0.08660 0.03480 0.39230 1.84000
H 	H 	0.07660 0.04910 0.40700 -0.04500
H 	H 	0.09370 0.01660 0.40400 -0.06500
C 	C 	0.06270 0.02450 0.36740 -5.68300
H 	H 	0.04520 0.01430 0.37740 1.75000
H 	H 	0.07250 0.01010 0.35300 1.71800
H 	H 	0.05530 0.04260 0.35610 0.93000
C 	C 	0.69991 0.38520 0.36829 0.28600
C 	C 	0.73421 0.38285 0.36206 -0.01000
C 	C 	0.74428 0.36230 0.33527 -0.13600
H 	H 	0.73030 0.36510 0.31780 0.01500
H 	H 	0.76510 0.36810 0.32880 0.02400
C 	C 	0.74380 0.32828 0.34560 0.02200
C 	C 	0.74930 0.31650 0.37410 -0.03000
H 	H 	0.75430 0.32880 0.39150 0.06500
C 	C 	0.74670 0.28170 0.37500 -0.00700
H 	H 	0.74980 0.26960 0.39290 0.01100
C 	C 	0.73930 0.26980 0.34720 -0.02300
H 	H 	0.73650 0.24850 0.34330 -0.03700
S 	S 	0.73540 0.29877 0.31945 -0.05500
C 	C 	0.75348 0.39993 0.38018 -0.12000
H 	H 	0.74380 0.41320 0.39460 0.09800
C 	C 	0.78736 0.40031 0.38016 0.07900
C 	C 	0.80945 0.37788 0.37371 -0.08600
H 	H 	0.80510 0.35810 0.36550 0.05100
C 	C 	0.83540 0.41799 0.39246 0.10300
C 	C 	0.79170 0.45376 0.40760 -0.02000
C 	C 	0.79071 0.44896 0.44283 0.10200
C 	C 	0.79111 0.41913 0.45626 -0.16000
H 	H 	0.79120 0.40150 0.44330 0.11000
C 	C 	0.79139 0.41539 0.48830 0.10100
H 	H 	0.79170 0.39530 0.49690 0.02900
C 	C 	0.79117 0.44128 0.50784 -0.17500
C 	C 	0.78988 0.47101 0.49464 0.09200
H 	H 	0.78890 0.48860 0.50760 -0.02000
C 	C 	0.79004 0.47471 0.46268 -0.16800
H 	H 	0.78970 0.49480 0.45420 0.05800
C 	C 	0.79316 0.43735 0.54225 0.43300
C 	C 	0.86148 0.43888 0.40282 -0.09400
H 	H 	0.85480 0.45070 0.42090 -0.08100
H 	H 	0.87910 0.42620 0.40890 -0.03100
C 	C 	0.87100 0.46200 0.37630 -0.44600
H 	H 	0.87730 0.45040 0.35770 -0.34900
H 	H 	0.85330 0.47530 0.37080 0.05500
C 	C 	0.89870 0.48240 0.38830 -1.91800
H 	H 	0.89360 0.49070 0.40890 0.51800
H 	H 	0.90170 0.50010 0.37420 0.53300
C 	C 	0.92940 0.46360 0.39030 0.68900
H 	H 	0.94600 0.47690 0.39770 -0.21900
H 	H 	0.93470 0.45570 0.36980 1.26300
H 	H 	0.92670 0.44630 0.40450 -0.71600
N 	N 	0.83910 0.38881 0.38112 -0.25400
N 	N 	0.80469 0.42586 0.39206 -0.14000
O 	O 	0.68060 0.37329 0.34916 -0.38600
O 	O 	0.68945 0.39882 0.39259 -0.38900
O 	O 	0.79485 0.40817 0.55117 -0.52200
H 	H 	0.79810 0.40260 0.56960 0.33100
O 	O 	0.79289 0.45922 0.56103 -0.30000
H 	H 	0.73330 0.36890 0.31670 0.04700
H 	H 	0.76630 0.36570 0.33170 -0.00600
C 	C 	0.73950 0.32760 0.33960 0.02500
C 	C 	0.72880 0.30560 0.32010 -0.03300
H 	H 	0.72250 0.30950 0.29960 0.04800
C 	C 	0.72830 0.27400 0.33520 -0.01500
H 	H 	0.72140 0.25580 0.32520 -0.00500
C 	C 	0.73890 0.27460 0.36470 -0.02200
H 	H 	0.74050 0.25720 0.37770 -0.04200
S 	S 	0.74897 0.31178 0.37523 -0.04900
H 	H 	0.85260 0.45800 0.41090 0.14100
H 	H 	0.87220 0.42870 0.41990 0.07300
C 	C 	0.88470 0.44860 0.37670 0.02900
H 	H 	0.89160 0.43020 0.36520 -0.01400
H 	H 	0.87450 0.46270 0.36210 0.59500
C 	C 	0.91340 0.46520 0.39230 1.84000
H 	H 	0.92340 0.45090 0.40700 -0.04500
H 	H 	0.90630 0.48340 0.40400 -0.06500
C 	C 	0.93730 0.47550 0.36740 -5.68300
H 	H 	0.95480 0.48570 0.37740 1.75000
H 	H 	0.92750 0.48990 0.35300 1.71800
H 	H 	0.94470 0.45740 0.35610 0.93000
C 	C 	0.19991 0.88520 0.86829 0.28600
C 	C 	0.23421 0.88285 0.86206 -0.01000
C 	C 	0.24428 0.86230 0.83527 -0.13600
H 	H 	0.23030 0.86510 0.81780 0.01500
H 	H 	0.26510 0.86810 0.82880 0.02400
C 	C 	0.24380 0.82828 0.84560 0.02200
C 	C 	0.24930 0.81650 0.87410 -0.03000
H 	H 	0.25430 0.82880 0.89150 0.06500
C 	C 	0.24670 0.78170 0.87500 -0.00700
H 	H 	0.24980 0.76960 0.89290 0.01100
C 	C 	0.23930 0.76980 0.84720 -0.02300
H 	H 	0.23650 0.74850 0.84330 -0.03700
S 	S 	0.23540 0.79877 0.81945 -0.05500
C 	C 	0.25348 0.89993 0.88018 -0.12000
H 	H 	0.24380 0.91320 0.89460 0.09800
C 	C 	0.28736 0.90031 0.88016 0.07900
C 	C 	0.30945 0.87788 0.87371 -0.08600
H 	H 	0.30510 0.85810 0.86550 0.05100
C 	C 	0.33540 0.91799 0.89246 0.10300
C 	C 	0.29170 0.95376 0.90760 -0.02000
C 	C 	0.29071 0.94896 0.94283 0.10200
C 	C 	0.29111 0.91913 0.95626 -0.16000
H 	H 	0.29120 0.90150 0.94330 0.11000
C 	C 	0.29139 0.91539 0.98830 0.10100
H 	H 	0.29170 0.89530 0.99690 0.02900
C 	C 	0.29117 0.94128 0.00784 -0.17400
C 	C 	0.28988 0.97101 0.99464 0.09200
H 	H 	0.28890 0.98860 0.00760 -0.02000
C 	C 	0.29004 0.97471 0.96268 -0.16800
H 	H 	0.28970 0.99480 0.95420 0.05800
C 	C 	0.29316 0.93735 0.04225 0.43300
C 	C 	0.36148 0.93888 0.90282 -0.09400
H 	H 	0.35480 0.95070 0.92090 -0.08100
H 	H 	0.37910 0.92620 0.90890 -0.03100
C 	C 	0.37100 0.96200 0.87630 -0.44600
H 	H 	0.37730 0.95040 0.85770 -0.34900
H 	H 	0.35330 0.97530 0.87080 0.05500
C 	C 	0.39870 0.98240 0.88830 -1.91800
H 	H 	0.39360 0.99070 0.90890 0.51800
H 	H 	0.40170 0.00010 0.87420 0.53300
C 	C 	0.42940 0.96360 0.89030 0.68900
H 	H 	0.44600 0.97690 0.89770 -0.21900
H 	H 	0.43470 0.95570 0.86980 1.26300
H 	H 	0.42670 0.94630 0.90450 -0.71600
N 	N 	0.33910 0.88881 0.88112 -0.25400
N 	N 	0.30469 0.92586 0.89206 -0.14000
O 	O 	0.18060 0.87329 0.84916 -0.38600
O 	O 	0.18945 0.89882 0.89259 -0.38900
O 	O 	0.29485 0.90817 0.05117 -0.52200
H 	H 	0.29810 0.90260 0.06960 0.33100
O 	O 	0.29289 0.95922 0.06103 -0.30000
H 	H 	0.23330 0.86890 0.81670 0.04700
H 	H 	0.26630 0.86570 0.83170 -0.00600
C 	C 	0.23950 0.82760 0.83960 0.02500
C 	C 	0.22880 0.80560 0.82010 -0.03300
H 	H 	0.22250 0.80950 0.79960 0.04800
C 	C 	0.22830 0.77400 0.83520 -0.01500
H 	H 	0.22140 0.75580 0.82520 -0.00500
C 	C 	0.23890 0.77460 0.86470 -0.02200
H 	H 	0.24050 0.75720 0.87770 -0.04200
S 	S 	0.24897 0.81178 0.87523 -0.04900
H 	H 	0.35260 0.95800 0.91090 0.14100
H 	H 	0.37220 0.92870 0.91990 0.07300
C 	C 	0.38470 0.94860 0.87670 0.02900
H 	H 	0.39160 0.93020 0.86520 -0.01400
H 	H 	0.37450 0.96270 0.86210 0.59500
C 	C 	0.41340 0.96520 0.89230 1.84000
H 	H 	0.42340 0.95090 0.90700 -0.04500
H 	H 	0.40630 0.98340 0.90400 -0.06500
C 	C 	0.43730 0.97550 0.86740 -5.68300
H 	H 	0.45480 0.98570 0.87740 1.75000
H 	H 	0.42750 0.98990 0.85300 1.71800
H 	H 	0.44470 0.95740 0.85610 0.93000
C 	C 	0.19991 0.11480 0.63171 0.28600
C 	C 	0.23421 0.11715 0.63794 -0.01000
C 	C 	0.24428 0.13770 0.66473 -0.13600
H 	H 	0.23030 0.13490 0.68220 0.01500
H 	H 	0.26510 0.13190 0.67120 0.02400
C 	C 	0.24380 0.17172 0.65440 0.02200
C 	C 	0.24930 0.18350 0.62590 -0.03000
H 	H 	0.25430 0.17120 0.60850 0.06500
C 	C 	0.24670 0.21830 0.62500 -0.00700
H 	H 	0.24980 0.23040 0.60710 0.01100
C 	C 	0.23930 0.23020 0.65280 -0.02300
H 	H 	0.23650 0.25150 0.65670 -0.03700
S 	S 	0.23540 0.20123 0.68055 -0.05500
C 	C 	0.25348 0.10007 0.61982 -0.12000
H 	H 	0.24380 0.08680 0.60540 0.09800
C 	C 	0.28736 0.09969 0.61984 0.07900
C 	C 	0.30945 0.12212 0.62629 -0.08600
H 	H 	0.30510 0.14190 0.63450 0.05100
C 	C 	0.33540 0.08201 0.60754 0.10300
C 	C 	0.29170 0.04624 0.59240 -0.02000
C 	C 	0.29071 0.05104 0.55717 0.10200
C 	C 	0.29111 0.08087 0.54374 -0.16000
H 	H 	0.29120 0.09850 0.55670 0.11000
C 	C 	0.29139 0.08461 0.51170 0.10100
H 	H 	0.29170 0.10470 0.50310 0.02900
C 	C 	0.29117 0.05872 0.49216 -0.17400
C 	C 	0.28988 0.02899 0.50536 0.09200
H 	H 	0.28890 0.01140 0.49240 -0.02000
C 	C 	0.29004 0.02529 0.53732 -0.16800
H 	H 	0.28970 0.00520 0.54580 0.05800
C 	C 	0.29316 0.06265 0.45775 0.43300
C 	C 	0.36148 0.06112 0.59718 -0.09400
H 	H 	0.35480 0.04930 0.57910 -0.08100
H 	H 	0.37910 0.07380 0.59110 -0.03100
C 	C 	0.37100 0.03800 0.62370 -0.44600
H 	H 	0.37730 0.04960 0.64230 -0.34900
H 	H 	0.35330 0.02470 0.62920 0.05500
C 	C 	0.39870 0.01760 0.61170 -1.91800
H 	H 	0.39360 0.00930 0.59110 0.51800
H 	H 	0.40170 0.99990 0.62580 0.53300
C 	C 	0.42940 0.03640 0.60970 0.68900
H 	H 	0.44600 0.02310 0.60230 -0.21900
H 	H 	0.43470 0.04430 0.63020 1.26300
H 	H 	0.42670 0.05370 0.59550 -0.71600
N 	N 	0.33910 0.11119 0.61888 -0.25400
N 	N 	0.30469 0.07414 0.60794 -0.14000
O 	O 	0.18060 0.12671 0.65084 -0.38600
O 	O 	0.18945 0.10118 0.60741 -0.38900
O 	O 	0.29485 0.09183 0.44883 -0.52200
H 	H 	0.29810 0.09740 0.43040 0.33100
O 	O 	0.29289 0.04078 0.43897 -0.30000
H 	H 	0.23330 0.13110 0.68330 0.04700
H 	H 	0.26630 0.13430 0.66830 -0.00600
C 	C 	0.23950 0.17240 0.66040 0.02500
C 	C 	0.22880 0.19440 0.67990 -0.03300
H 	H 	0.22250 0.19050 0.70040 0.04800
C 	C 	0.22830 0.22600 0.66480 -0.01500
H 	H 	0.22140 0.24420 0.67480 -0.00500
C 	C 	0.23890 0.22540 0.63530 -0.02200
H 	H 	0.24050 0.24280 0.62230 -0.04200
S 	S 	0.24897 0.18822 0.62477 -0.04900
H 	H 	0.35260 0.04200 0.58910 0.14100
H 	H 	0.37220 0.07130 0.58010 0.07300
C 	C 	0.38470 0.05140 0.62330 0.02900
H 	H 	0.39160 0.06980 0.63480 -0.01400
H 	H 	0.37450 0.03730 0.63790 0.59500
C 	C 	0.41340 0.03480 0.60770 1.84000
H 	H 	0.42340 0.04910 0.59300 -0.04500
H 	H 	0.40630 0.01660 0.59600 -0.06500
C 	C 	0.43730 0.02450 0.63260 -5.68300
H 	H 	0.45480 0.01430 0.62260 1.75000
H 	H 	0.42750 0.01010 0.64700 1.71800
H 	H 	0.44470 0.04260 0.64390 0.93000
C 	C 	0.69991 0.61480 0.13171 0.28600
C 	C 	0.73421 0.61715 0.13794 -0.01000
C 	C 	0.74428 0.63770 0.16473 -0.13600
H 	H 	0.73030 0.63490 0.18220 0.01500
H 	H 	0.76510 0.63190 0.17120 0.02400
C 	C 	0.74380 0.67172 0.15440 0.02200
C 	C 	0.74930 0.68350 0.12590 -0.03000
H 	H 	0.75430 0.67120 0.10850 0.06500
C 	C 	0.74670 0.71830 0.12500 -0.00700
H 	H 	0.74980 0.73040 0.10710 0.01100
C 	C 	0.73930 0.73020 0.15280 -0.02300
H 	H 	0.73650 0.75150 0.15670 -0.03700
S 	S 	0.73540 0.70123 0.18055 -0.05500
C 	C 	0.75348 0.60007 0.11982 -0.12000
H 	H 	0.74380 0.58680 0.10540 0.09800
C 	C 	0.78736 0.59969 0.11984 0.07900
C 	C 	0.80945 0.62212 0.12629 -0.08600
H 	H 	0.80510 0.64190 0.13450 0.05100
C 	C 	0.83540 0.58201 0.10754 0.10300
C 	C 	0.79170 0.54624 0.09240 -0.02000
C 	C 	0.79071 0.55104 0.05717 0.10200
C 	C 	0.79111 0.58087 0.04374 -0.16000
H 	H 	0.79120 0.59850 0.05670 0.11000
C 	C 	0.79139 0.58461 0.01170 0.10100
H 	H 	0.79170 0.60470 0.00310 0.02900
C 	C 	0.79117 0.55872 0.99216 -0.17400
C 	C 	0.78988 0.52899 0.00536 0.09200
H 	H 	0.78890 0.51140 0.99240 -0.02000
C 	C 	0.79004 0.52529 0.03732 -0.16800
H 	H 	0.78970 0.50520 0.04580 0.05800
C 	C 	0.79316 0.56265 0.95775 0.43300
C 	C 	0.86148 0.56112 0.09718 -0.09400
H 	H 	0.85480 0.54930 0.07910 -0.08100
H 	H 	0.87910 0.57380 0.09110 -0.03100
C 	C 	0.87100 0.53800 0.12370 -0.44600
H 	H 	0.87730 0.54960 0.14230 -0.34900
H 	H 	0.85330 0.52470 0.12920 0.05500
C 	C 	0.89870 0.51760 0.11170 -1.91800
H 	H 	0.89360 0.50930 0.09110 0.51800
H 	H 	0.90170 0.49990 0.12580 0.53300
C 	C 	0.92940 0.53640 0.10970 0.68900
H 	H 	0.94600 0.52310 0.10230 -0.21900
H 	H 	0.93470 0.54430 0.13020 1.26300
H 	H 	0.92670 0.55370 0.09550 -0.71600
N 	N 	0.83910 0.61119 0.11888 -0.25400
N 	N 	0.80469 0.57414 0.10794 -0.14000
O 	O 	0.68060 0.62671 0.15084 -0.38600
O 	O 	0.68945 0.60118 0.10741 -0.38900
O 	O 	0.79485 0.59183 0.94883 -0.52200
H 	H 	0.79810 0.59740 0.93040 0.33100
O 	O 	0.79289 0.54078 0.93897 -0.30000
H 	H 	0.73330 0.63110 0.18330 0.04700
H 	H 	0.76630 0.63430 0.16830 -0.00600
C 	C 	0.73950 0.67240 0.16040 0.02500
C 	C 	0.72880 0.69440 0.17990 -0.03300
H 	H 	0.72250 0.69050 0.20040 0.04800
C 	C 	0.72830 0.72600 0.16480 -0.01500
H 	H 	0.72140 0.74420 0.17480 -0.00500
C 	C 	0.73890 0.72540 0.13530 -0.02200
H 	H 	0.74050 0.74280 0.12230 -0.04200
S 	S 	0.74897 0.68822 0.12477 -0.04900
H 	H 	0.85260 0.54200 0.08910 0.14100
H 	H 	0.87220 0.57130 0.08010 0.07300
C 	C 	0.88470 0.55140 0.12330 0.02900
H 	H 	0.89160 0.56980 0.13480 -0.01400
H 	H 	0.87450 0.53730 0.13790 0.59500
C 	C 	0.91340 0.53480 0.10770 1.84000
H 	H 	0.92340 0.54910 0.09300 -0.04500
H 	H 	0.90630 0.51660 0.09600 -0.06500
C 	C 	0.93730 0.52450 0.13260 -5.68300
H 	H 	0.95480 0.51430 0.12260 1.75000
H 	H 	0.92750 0.51010 0.14700 1.71800
H 	H 	0.94470 0.54260 0.14390 0.93000
Zn	Zn	0.35920 0.89080 0.12500 1.21100
Zn	Zn	0.14080 0.10920 0.62500 1.21100
Zn	Zn	0.64080 0.39080 0.37500 1.21100
Zn	Zn	0.85920 0.60920 0.87500 1.21100
Zn	Zn	0.12500 0.35920 0.89080 1.21100
Zn	Zn	0.62500 0.14080 0.10920 1.21100
Zn	Zn	0.37500 0.64080 0.39080 1.21100
Zn	Zn	0.87500 0.85920 0.60920 1.21100
Zn	Zn	0.89080 0.12500 0.35920 1.21100
Zn	Zn	0.10920 0.62500 0.14080 1.21100
Zn	Zn	0.39080 0.37500 0.64080 1.21100
Zn	Zn	0.60920 0.87500 0.85920 1.21100
Zn	Zn	0.64080 0.60920 0.12500 1.21100
Zn	Zn	0.85920 0.39080 0.62500 1.21100
Zn	Zn	0.14080 0.89080 0.87500 1.21100
Zn	Zn	0.35920 0.10920 0.37500 1.21100
Zn	Zn	0.10920 0.37500 0.35920 1.21100
Zn	Zn	0.89080 0.87500 0.14080 1.21100
Zn	Zn	0.39080 0.62500 0.85920 1.21100
Zn	Zn	0.60920 0.12500 0.64080 1.21100
Zn	Zn	0.87500 0.14080 0.89080 1.21100
Zn	Zn	0.37500 0.35920 0.10920 1.21100
Zn	Zn	0.12500 0.64080 0.60920 1.21100
Zn	Zn	0.62500 0.85920 0.39080 1.21100
Zn	Zn	0.64080 0.10920 0.87500 1.21100
Zn	Zn	0.85920 0.89080 0.37500 1.21100
Zn	Zn	0.35920 0.60920 0.62500 1.21100
Zn	Zn	0.14080 0.39080 0.12500 1.21100
Zn	Zn	0.87500 0.64080 0.10920 1.21100
Zn	Zn	0.37500 0.85920 0.89080 1.21100
Zn	Zn	0.62500 0.35920 0.60920 1.21100
Zn	Zn	0.12500 0.14080 0.39080 1.21100
Zn	Zn	0.10920 0.87500 0.64080 1.21100
Zn	Zn	0.89080 0.37500 0.85920 1.21100
Zn	Zn	0.60920 0.62500 0.35920 1.21100
Zn	Zn	0.39080 0.12500 0.14080 1.21100
Zn	Zn	0.35920 0.39080 0.87500 1.21100
Zn	Zn	0.14080 0.60920 0.37500 1.21100
Zn	Zn	0.85920 0.10920 0.12500 1.21100
Zn	Zn	0.64080 0.89080 0.62500 1.21100
Zn	Zn	0.89080 0.62500 0.64080 1.21100
Zn	Zn	0.10920 0.12500 0.85920 1.21100
Zn	Zn	0.60920 0.37500 0.14080 1.21100
Zn	Zn	0.39080 0.87500 0.35920 1.21100
Zn	Zn	0.12500 0.85920 0.10920 1.21100
Zn	Zn	0.62500 0.64080 0.89080 1.21100
Zn	Zn	0.87500 0.35920 0.39080 1.21100
Zn	Zn	0.37500 0.14080 0.60920 1.21100
