data_crystal

_cell_length_a 11.91990
_cell_length_b 31.22460
_cell_length_c 31.22460
_cell_angle_alpha 61.59430
_cell_angle_beta  82.68940
_cell_angle_gamma 97.31060

_symmetry_space_group_name_	'P 1'
_symmetry_space_group_name_H-M	'P 1'

loop_
_symmetry_equiv_pos_as_xyz
  x,y,z

loop_
_atom_site_label
_atom_site_type_symbol
_atom_site_fract_x
_atom_site_fract_y
_atom_site_fract_z
_atom_site_charge
Cu	Cu	0.11962 0.76848 0.21032 0.90800
Cu	Cu	0.88021 0.71665 0.27231 0.90700
Cu	Cu	0.30439 0.50578 0.27591 0.90700
Cu	Cu	0.37983 0.72004 0.50424 0.90700
Cu	Cu	0.32994 0.21032 0.02120 0.90800
Cu	Cu	0.15252 0.27231 0.01104 0.90700
Cu	Cu	0.58030 0.27591 0.21831 0.90700
Cu	Cu	0.88407 0.50424 0.77572 0.90700
Cu	Cu	0.35114 0.02120 0.76848 0.90800
Cu	Cu	0.16356 0.01104 0.71665 0.90700
Cu	Cu	0.79861 0.21831 0.50578 0.90700
Cu	Cu	0.65979 0.77572 0.72004 0.90700
Cu	Cu	0.88038 0.23152 0.78968 0.90800
Cu	Cu	0.11979 0.28335 0.72769 0.90700
Cu	Cu	0.69561 0.49422 0.72409 0.90600
Cu	Cu	0.62017 0.27996 0.49576 0.90600
Cu	Cu	0.67006 0.78968 0.97880 0.90700
Cu	Cu	0.84748 0.72769 0.98896 0.90600
Cu	Cu	0.41970 0.72409 0.78169 0.90600
Cu	Cu	0.11593 0.49576 0.22428 0.90600
Cu	Cu	0.64886 0.97880 0.23152 0.90700
Cu	Cu	0.83644 0.98896 0.28335 0.90600
Cu	Cu	0.20139 0.78169 0.49422 0.90600
Cu	Cu	0.34021 0.22428 0.27996 0.90600
H 	H 	0.72440 0.84720 0.01880 0.04300
H 	H 	0.74200 0.90200 0.04660 0.03600
H 	H 	0.58100 0.90910 0.09270 0.05800
H 	H 	0.40480 0.86130 0.10940 0.06400
H 	H 	0.16060 0.72950 0.08980 0.06200
H 	H 	0.15080 0.68040 0.05420 0.05500
H 	H 	0.31850 0.67610 0.01120 0.04400
H 	H 	0.49380 0.72390 0.99870 0.02600
H 	H 	0.77390 0.76000 0.20250 0.02900
H 	H 	0.64510 0.79650 0.15620 0.04000
H 	H 	0.46450 0.74980 0.16710 0.05800
H 	H 	0.41470 0.66760 0.22230 0.06000
H 	H 	0.51600 0.51870 0.36260 0.06500
H 	H 	0.64570 0.48740 0.41020 0.06200
H 	H 	0.82770 0.53860 0.39330 0.03400
H 	H 	0.87170 0.61880 0.33250 0.04300
H 	H 	0.45850 0.47990 0.23500 0.02700
H 	H 	0.62170 0.46470 0.20300 0.04100
H 	H 	0.74280 0.42310 0.25350 0.05700
H 	H 	0.69650 0.39290 0.33670 0.06100
H 	H 	0.43230 0.38210 0.48160 0.06500
H 	H 	0.27480 0.40310 0.50980 0.05900
H 	H 	0.16100 0.44700 0.45500 0.03500
H 	H 	0.21010 0.47210 0.37270 0.04000
H 	H 	0.30210 0.66190 0.46770 0.04300
H 	H 	0.26240 0.60320 0.44560 0.03500
H 	H 	0.41050 0.58710 0.40190 0.06100
H 	H 	0.59580 0.63020 0.38140 0.06300
H 	H 	0.87890 0.75810 0.39110 0.06000
H 	H 	0.90990 0.80820 0.42380 0.05800
H 	H 	0.75750 0.82040 0.46750 0.04100
H 	H 	0.57320 0.77960 0.48160 0.02900
H 	H 	0.05190 0.83150 0.25810 0.03600
H 	H 	0.05700 0.78430 0.30810 0.03900
H 	H 	0.93710 0.79700 0.29710 0.04100
H 	H 	0.05810 0.69480 0.17840 0.02600
H 	H 	0.92730 0.69690 0.17900 0.02500
H 	H 	0.96260 0.65410 0.22440 0.02100
H 	H 	0.09390 0.39060 0.30320 0.03200
H 	H 	0.16410 0.39610 0.34020 0.02600
H 	H 	0.22740 0.39270 0.29510 0.02700
H 	H 	0.19620 0.60670 0.17400 0.03700
H 	H 	0.32690 0.61090 0.17730 0.04300
H 	H 	0.23550 0.61010 0.21850 0.03800
H 	H 	0.74320 0.01880 0.13400 0.04300
H 	H 	0.78860 0.04660 0.05140 0.03700
H 	H 	0.67370 0.09270 0.99820 0.05700
H 	H 	0.51420 0.10940 0.02930 0.06500
H 	H 	0.25040 0.08980 0.18070 0.06200
H 	H 	0.20500 0.05420 0.26540 0.05500
H 	H 	0.32970 0.01120 0.31270 0.04400
H 	H 	0.49250 0.99870 0.27740 0.02500
H 	H 	0.97640 0.20250 0.03750 0.03000
H 	H 	0.80130 0.15620 0.04730 0.04000
H 	H 	0.63160 0.16710 0.08310 0.05800
H 	H 	0.63700 0.22230 0.11010 0.06000
H 	H 	0.87860 0.36260 0.11870 0.06400
H 	H 	0.05590 0.41020 0.10240 0.06200
H 	H 	0.22100 0.39330 0.06810 0.03400
H 	H 	0.20420 0.33250 0.04870 0.04300
H 	H 	0.69350 0.23500 0.28510 0.02700
H 	H 	0.82470 0.20300 0.33230 0.04000
H 	H 	0.99630 0.25350 0.32340 0.05900
H 	H 	0.03320 0.33670 0.27040 0.05900
H 	H 	0.91390 0.48160 0.13630 0.06500
H 	H 	0.78460 0.50980 0.08710 0.05900
H 	H 	0.61600 0.45500 0.09800 0.03500
H 	H 	0.58280 0.37270 0.15520 0.04100
H 	H 	0.76980 0.46770 0.87040 0.04300
H 	H 	0.70800 0.44560 0.95120 0.03400
H 	H 	0.81240 0.40190 0.01100 0.06200
H 	H 	0.97720 0.38140 0.98840 0.06200
H 	H 	0.27000 0.39110 0.85080 0.05900
H 	H 	0.33370 0.42380 0.76800 0.05900
H 	H 	0.22500 0.46750 0.71210 0.04100
H 	H 	0.05480 0.48160 0.73880 0.03000
H 	H 	0.31000 0.25810 0.91040 0.03700
H 	H 	0.36510 0.30810 0.90760 0.03900
H 	H 	0.23420 0.29710 0.90590 0.04200
H 	H 	0.23650 0.17840 0.12680 0.02700
H 	H 	0.10630 0.17900 0.12410 0.02500
H 	H 	0.18700 0.22440 0.12150 0.02100
H 	H 	0.39710 0.30320 0.30620 0.03200
H 	H 	0.50430 0.34020 0.26370 0.02600
H 	H 	0.52250 0.29510 0.31220 0.02800
H 	H 	0.37020 0.17400 0.21930 0.03700
H 	H 	0.50420 0.17730 0.21180 0.04300
H 	H 	0.45400 0.21850 0.17140 0.03800
H 	H 	0.87720 0.13400 0.84720 0.04300
H 	H 	0.84000 0.05140 0.90200 0.03600
H 	H 	0.67190 0.99820 0.90910 0.05700
H 	H 	0.54350 0.02930 0.86130 0.06400
H 	H 	0.43110 0.18070 0.72950 0.06200
H 	H 	0.47040 0.26540 0.68040 0.05500
H 	H 	0.64240 0.31270 0.67610 0.04400
H 	H 	0.76990 0.27740 0.72390 0.02600
H 	H 	0.01390 0.03750 0.76000 0.02800
H 	H 	0.84860 0.04730 0.79650 0.04100
H 	H 	0.71470 0.08310 0.74980 0.05700
H 	H 	0.74710 0.11010 0.66760 0.06000
H 	H 	0.99730 0.11870 0.51870 0.06600
H 	H 	0.15830 0.10240 0.48740 0.06100
H 	H 	0.28910 0.06810 0.53860 0.03500
H 	H 	0.25290 0.04870 0.61880 0.04200
H 	H 	0.97860 0.28510 0.47990 0.02800
H 	H 	0.15700 0.33230 0.46470 0.04000
H 	H 	0.31970 0.32340 0.42310 0.05700
H 	H 	0.30360 0.27040 0.39290 0.06000
H 	H 	0.05020 0.13630 0.38210 0.06200
H 	H 	0.87170 0.08710 0.40310 0.06100
H 	H 	0.71400 0.09800 0.44700 0.03400
H 	H 	0.73800 0.15520 0.47210 0.04200
H 	H 	0.64020 0.87040 0.66190 0.04300
H 	H 	0.65920 0.95120 0.60320 0.03400
H 	H 	0.82340 0.01100 0.58710 0.06200
H 	H 	0.96560 0.98840 0.63020 0.06300
H 	H 	0.12080 0.85080 0.75810 0.06000
H 	H 	0.10170 0.76800 0.80820 0.05800
H 	H 	0.93710 0.71210 0.82040 0.04200
H 	H 	0.79360 0.73880 0.77960 0.02900
H 	H 	0.22040 0.91040 0.83150 0.03700
H 	H 	0.27270 0.90760 0.78430 0.03900
H 	H 	0.14010 0.90590 0.79700 0.04200
H 	H 	0.36330 0.12680 0.69480 0.02700
H 	H 	0.23040 0.12410 0.69690 0.02600
H 	H 	0.30850 0.12150 0.65410 0.02100
H 	H 	0.70330 0.30620 0.39060 0.03200
H 	H 	0.76800 0.26370 0.39610 0.02600
H 	H 	0.83470 0.31220 0.39270 0.02800
H 	H 	0.58950 0.21930 0.60670 0.03700
H 	H 	0.71600 0.21180 0.61090 0.04300
H 	H 	0.62540 0.17140 0.61010 0.03800
H 	H 	0.27560 0.15280 0.98120 0.04300
H 	H 	0.25800 0.09800 0.95340 0.03600
H 	H 	0.41900 0.09090 0.90730 0.05800
H 	H 	0.59520 0.13870 0.89060 0.06400
H 	H 	0.83940 0.27050 0.91020 0.06200
H 	H 	0.84920 0.31960 0.94580 0.05500
H 	H 	0.68150 0.32390 0.98880 0.04400
H 	H 	0.50620 0.27610 0.00130 0.02600
H 	H 	0.22610 0.24000 0.79750 0.02900
H 	H 	0.35490 0.20350 0.84380 0.04000
H 	H 	0.53550 0.25020 0.83290 0.05800
H 	H 	0.58530 0.33240 0.77770 0.06000
H 	H 	0.48400 0.48130 0.63740 0.06500
H 	H 	0.35430 0.51260 0.58980 0.06200
H 	H 	0.17230 0.46140 0.60670 0.03400
H 	H 	0.12830 0.38120 0.66750 0.04300
H 	H 	0.54150 0.52010 0.76500 0.02700
H 	H 	0.37830 0.53530 0.79700 0.04100
H 	H 	0.25720 0.57690 0.74650 0.05700
H 	H 	0.30350 0.60710 0.66330 0.06100
H 	H 	0.56770 0.61790 0.51840 0.06500
H 	H 	0.72520 0.59690 0.49020 0.05900
H 	H 	0.83900 0.55300 0.54500 0.03500
H 	H 	0.78990 0.52790 0.62730 0.04000
H 	H 	0.69790 0.33810 0.53230 0.04300
H 	H 	0.73760 0.39680 0.55440 0.03500
H 	H 	0.58950 0.41290 0.59810 0.06100
H 	H 	0.40420 0.36980 0.61860 0.06300
H 	H 	0.12110 0.24190 0.60890 0.06000
H 	H 	0.09010 0.19180 0.57620 0.05800
H 	H 	0.24250 0.17960 0.53250 0.04100
H 	H 	0.42680 0.22040 0.51840 0.02900
H 	H 	0.94810 0.16850 0.74190 0.03600
H 	H 	0.94300 0.21570 0.69190 0.03900
H 	H 	0.06290 0.20300 0.70290 0.04100
H 	H 	0.94190 0.30520 0.82160 0.02600
H 	H 	0.07270 0.30310 0.82100 0.02500
H 	H 	0.03740 0.34590 0.77560 0.02100
H 	H 	0.90610 0.60940 0.69680 0.03200
H 	H 	0.83590 0.60390 0.65980 0.02600
H 	H 	0.77260 0.60730 0.70490 0.02700
H 	H 	0.80380 0.39330 0.82600 0.03700
H 	H 	0.67310 0.38910 0.82270 0.04300
H 	H 	0.76450 0.38990 0.78150 0.03800
H 	H 	0.25680 0.98120 0.86600 0.04300
H 	H 	0.21140 0.95340 0.94860 0.03700
H 	H 	0.32630 0.90730 0.00180 0.05700
H 	H 	0.48580 0.89060 0.97070 0.06500
H 	H 	0.74960 0.91020 0.81930 0.06200
H 	H 	0.79500 0.94580 0.73460 0.05500
H 	H 	0.67030 0.98880 0.68730 0.04400
H 	H 	0.50750 0.00130 0.72260 0.02500
H 	H 	0.02360 0.79750 0.96250 0.03000
H 	H 	0.19870 0.84380 0.95270 0.04000
H 	H 	0.36840 0.83290 0.91690 0.05800
H 	H 	0.36300 0.77770 0.88990 0.06000
H 	H 	0.12140 0.63740 0.88130 0.06400
H 	H 	0.94410 0.58980 0.89760 0.06200
H 	H 	0.77900 0.60670 0.93190 0.03400
H 	H 	0.79580 0.66750 0.95130 0.04300
H 	H 	0.30650 0.76500 0.71490 0.02700
H 	H 	0.17530 0.79700 0.66770 0.04000
H 	H 	0.00370 0.74650 0.67660 0.05900
H 	H 	0.96680 0.66330 0.72960 0.05900
H 	H 	0.08610 0.51840 0.86370 0.06500
H 	H 	0.21540 0.49020 0.91290 0.05900
H 	H 	0.38400 0.54500 0.90200 0.03500
H 	H 	0.41720 0.62730 0.84480 0.04100
H 	H 	0.23020 0.53230 0.12960 0.04300
H 	H 	0.29200 0.55440 0.04880 0.03400
H 	H 	0.18760 0.59810 0.98900 0.06200
H 	H 	0.02280 0.61860 0.01160 0.06200
H 	H 	0.73000 0.60890 0.14920 0.05900
H 	H 	0.66630 0.57620 0.23200 0.05900
H 	H 	0.77500 0.53250 0.28790 0.04100
H 	H 	0.94520 0.51840 0.26120 0.03000
H 	H 	0.69000 0.74190 0.08960 0.03700
H 	H 	0.63490 0.69190 0.09240 0.03900
H 	H 	0.76580 0.70290 0.09410 0.04200
H 	H 	0.76350 0.82160 0.87320 0.02700
H 	H 	0.89370 0.82100 0.87590 0.02500
H 	H 	0.81300 0.77560 0.87850 0.02100
H 	H 	0.60290 0.69680 0.69380 0.03200
H 	H 	0.49570 0.65980 0.73630 0.02600
H 	H 	0.47750 0.70490 0.68780 0.02800
H 	H 	0.62980 0.82600 0.78070 0.03700
H 	H 	0.49580 0.82270 0.78820 0.04300
H 	H 	0.54600 0.78150 0.82860 0.03800
H 	H 	0.12280 0.86600 0.15280 0.04300
H 	H 	0.16000 0.94860 0.09800 0.03600
H 	H 	0.32810 0.00180 0.09090 0.05700
H 	H 	0.45650 0.97070 0.13870 0.06400
H 	H 	0.56890 0.81930 0.27050 0.06200
H 	H 	0.52960 0.73460 0.31960 0.05500
H 	H 	0.35760 0.68730 0.32390 0.04400
H 	H 	0.23010 0.72260 0.27610 0.02600
H 	H 	0.98610 0.96250 0.24000 0.02800
H 	H 	0.15140 0.95270 0.20350 0.04100
H 	H 	0.28530 0.91690 0.25020 0.05700
H 	H 	0.25290 0.88990 0.33240 0.06000
H 	H 	0.00270 0.88130 0.48130 0.06600
H 	H 	0.84170 0.89760 0.51260 0.06100
H 	H 	0.71090 0.93190 0.46140 0.03500
H 	H 	0.74710 0.95130 0.38120 0.04200
H 	H 	0.02140 0.71490 0.52010 0.02800
H 	H 	0.84300 0.66770 0.53530 0.04000
H 	H 	0.68030 0.67660 0.57690 0.05700
H 	H 	0.69640 0.72960 0.60710 0.06000
H 	H 	0.94980 0.86370 0.61790 0.06200
H 	H 	0.12830 0.91290 0.59690 0.06100
H 	H 	0.28600 0.90200 0.55300 0.03400
H 	H 	0.26200 0.84480 0.52790 0.04200
H 	H 	0.35980 0.12960 0.33810 0.04300
H 	H 	0.34080 0.04880 0.39680 0.03400
H 	H 	0.17660 0.98900 0.41290 0.06200
H 	H 	0.03440 0.01160 0.36980 0.06300
H 	H 	0.87920 0.14920 0.24190 0.06000
H 	H 	0.89830 0.23200 0.19180 0.05800
H 	H 	0.06290 0.28790 0.17960 0.04200
H 	H 	0.20640 0.26120 0.22040 0.02900
H 	H 	0.77960 0.08960 0.16850 0.03700
H 	H 	0.72730 0.09240 0.21570 0.03900
H 	H 	0.85990 0.09410 0.20300 0.04200
H 	H 	0.63670 0.87320 0.30520 0.02700
H 	H 	0.76960 0.87590 0.30310 0.02600
H 	H 	0.69150 0.87850 0.34590 0.02100
H 	H 	0.29670 0.69380 0.60940 0.03200
H 	H 	0.23200 0.73630 0.60390 0.02600
H 	H 	0.16530 0.68780 0.60730 0.02800
H 	H 	0.41050 0.78070 0.39330 0.03700
H 	H 	0.28400 0.78820 0.38910 0.04300
H 	H 	0.37460 0.82860 0.38990 0.03800
C 	C 	0.54935 0.81895 0.04620 0.05700
C 	C 	0.65934 0.84965 0.03673 -0.10100
C 	C 	0.66979 0.88208 0.05341 -0.00600
C 	C 	0.57222 0.88642 0.08136 -0.04300
C 	C 	0.46801 0.85795 0.09132 -0.06600
C 	C 	0.45176 0.82242 0.07484 0.03100
C 	C 	0.34441 0.79174 0.08481 -0.10200
C 	C 	0.23940 0.79242 0.11702 0.34200
C 	C 	0.33424 0.75939 0.06527 0.03800
C 	C 	0.22772 0.72908 0.07132 -0.06900
C 	C 	0.22181 0.69939 0.05066 -0.03700
C 	C 	0.32311 0.69744 0.02411 -0.01600
C 	C 	0.42803 0.72578 0.01669 -0.09100
C 	C 	0.43631 0.75837 0.03674 0.05400
C 	C 	0.67362 0.69028 0.24432 0.05800
C 	C 	0.70163 0.74097 0.20768 -0.09800
C 	C 	0.62524 0.76278 0.17966 -0.01200
C 	C 	0.51634 0.73444 0.18612 -0.04000
C 	C 	0.48640 0.68580 0.21920 -0.06500
C 	C 	0.56346 0.66127 0.24999 0.03700
C 	C 	0.53454 0.61096 0.28644 -0.10600
C 	C 	0.42081 0.57897 0.29264 0.34800
C 	C 	0.61103 0.58978 0.31689 0.03100
C 	C 	0.58702 0.53933 0.35617 -0.06500
C 	C 	0.66397 0.52053 0.38432 -0.04600
C 	C 	0.77374 0.55161 0.37439 -0.00200
C 	C 	0.79978 0.59921 0.33817 -0.10500
C 	C 	0.72042 0.62078 0.30802 0.06100
C 	C 	0.47579 0.44646 0.30779 0.05300
C 	C 	0.50563 0.46286 0.25597 -0.09300
C 	C 	0.60299 0.45368 0.23701 -0.01400
C 	C 	0.67549 0.42807 0.26750 -0.03900
C 	C 	0.64852 0.41075 0.31669 -0.06800
C 	C 	0.54819 0.41898 0.33911 0.03800
C 	C 	0.51807 0.40225 0.38994 -0.10400
C 	C 	0.58875 0.37102 0.42447 0.33700
C 	C 	0.42105 0.41404 0.40869 0.03200
C 	C 	0.38843 0.40000 0.45951 -0.06700
C 	C 	0.29454 0.41235 0.47633 -0.04400
C 	C 	0.22640 0.43925 0.44305 -0.00700
C 	C 	0.25510 0.45392 0.39412 -0.09900
C 	C 	0.35341 0.44189 0.37516 0.05800
C 	C 	0.47682 0.68241 0.44045 0.06200
C 	C 	0.36208 0.65542 0.45108 -0.10100
C 	C 	0.33807 0.62084 0.43753 -0.00200
C 	C 	0.42759 0.61111 0.41094 -0.04800
C 	C 	0.53781 0.63683 0.39880 -0.06300
C 	C 	0.56614 0.67364 0.41242 0.02900
C 	C 	0.67872 0.70134 0.40028 -0.09800
C 	C 	0.77476 0.69629 0.36751 0.32900
C 	C 	0.70300 0.73448 0.41788 0.03300
C 	C 	0.81684 0.76148 0.40966 -0.06600
C 	C 	0.83490 0.79166 0.42856 -0.04200
C 	C 	0.74300 0.79871 0.45541 -0.01000
C 	C 	0.63354 0.77428 0.46386 -0.09700
C 	C 	0.60896 0.74068 0.44640 0.05700
C 	C 	0.01370 0.79767 0.28247 -0.03000
C 	C 	0.98447 0.68867 0.19906 0.01400
C 	C 	0.16667 0.40504 0.30603 0.00100
C 	C 	0.24858 0.59736 0.19622 -0.03600
C 	C 	0.59555 0.04620 0.13485 0.05700
C 	C 	0.69607 0.03673 0.11362 -0.10000
C 	C 	0.72320 0.05341 0.06451 -0.00800
C 	C 	0.65358 0.08136 0.03222 -0.04100
C 	C 	0.55933 0.09132 0.05073 -0.06700
C 	C 	0.52660 0.07484 0.10274 0.03200
C 	C 	0.42922 0.08481 0.12345 -0.10300
C 	C 	0.35642 0.11702 0.09056 0.34200
C 	C 	0.39951 0.06527 0.17534 0.03800
C 	C 	0.29904 0.07132 0.19960 -0.06900
C 	C 	0.27247 0.05066 0.24995 -0.03700
C 	C 	0.34722 0.02411 0.27845 -0.01600
C 	C 	0.44472 0.01669 0.25753 -0.09000
C 	C 	0.47305 0.03674 0.20489 0.05300
C 	C 	0.91794 0.24432 0.06540 0.05900
C 	C 	0.90931 0.20768 0.05135 -0.09900
C 	C 	0.80490 0.17966 0.05756 -0.01200
C 	C 	0.70246 0.18612 0.07944 -0.04100
C 	C 	0.70560 0.21920 0.09500 -0.06500
C 	C 	0.81345 0.24999 0.08874 0.03600
C 	C 	0.82098 0.28644 0.10260 -0.10600
C 	C 	0.71345 0.29264 0.12839 0.34800
C 	C 	0.92792 0.31689 0.09333 0.03100
C 	C 	0.94319 0.35617 0.10450 -0.06300
C 	C 	0.04829 0.38432 0.09515 -0.04900
C 	C 	0.14813 0.37439 0.07400 -0.00100
C 	C 	0.13795 0.33817 0.06262 -0.10600
C 	C 	0.02844 0.30802 0.07120 0.06100
C 	C 	0.78358 0.30779 0.24575 0.05500
C 	C 	0.76160 0.25597 0.28117 -0.09500
C 	C 	0.84000 0.23701 0.30931 -0.01200
C 	C 	0.94299 0.26750 0.30443 -0.04300
C 	C 	0.96521 0.31669 0.27256 -0.06200
C 	C 	0.88730 0.33911 0.24191 0.03500
C 	C 	0.90801 0.38994 0.20781 -0.10200
C 	C 	0.01322 0.42447 0.20451 0.33400
C 	C 	0.82974 0.40869 0.17727 0.03100
C 	C 	0.84794 0.45951 0.14049 -0.06600
C 	C 	0.77087 0.47633 0.11132 -0.04500
C 	C 	0.66945 0.44305 0.11770 -0.00700
C 	C 	0.64922 0.39412 0.15196 -0.09900
C 	C 	0.72857 0.37516 0.18295 0.05800
C 	C 	0.91727 0.44045 0.87714 0.06300
C 	C 	0.81316 0.45108 0.89350 -0.10300
C 	C 	0.77560 0.43753 0.94163 0.00000
C 	C 	0.83853 0.41094 0.97795 -0.05100
C 	C 	0.93661 0.39880 0.96437 -0.06000
C 	C 	0.97856 0.41242 0.91394 0.02600
C 	C 	0.07900 0.40028 0.89838 -0.09600
C 	C 	0.14227 0.36751 0.93620 0.32900
C 	C 	0.12088 0.41788 0.84764 0.03200
C 	C 	0.22650 0.40966 0.82886 -0.06400
C 	C 	0.26346 0.42856 0.77978 -0.04400
C 	C 	0.19841 0.45541 0.74588 -0.00900
C 	C 	0.09740 0.46386 0.76186 -0.09800
C 	C 	0.05536 0.44640 0.81292 0.05900
C 	C 	0.29617 0.28247 0.91986 -0.03100
C 	C 	0.18353 0.19906 0.11227 0.01200
C 	C 	0.47270 0.30603 0.28893 0.00100
C 	C 	0.44480 0.19622 0.20642 -0.03600
C 	C 	0.73040 0.13485 0.81895 0.05700
C 	C 	0.80969 0.11362 0.84965 -0.10000
C 	C 	0.78771 0.06451 0.88208 -0.00700
C 	C 	0.68580 0.03222 0.88642 -0.04300
C 	C 	0.61006 0.05073 0.85795 -0.06700
C 	C 	0.62934 0.10274 0.82242 0.03100
C 	C 	0.55267 0.12345 0.79174 -0.10200
C 	C 	0.44698 0.09056 0.79242 0.34200
C 	C 	0.57485 0.17534 0.75939 0.03800
C 	C 	0.49864 0.19960 0.72908 -0.06900
C 	C 	0.52242 0.24995 0.69939 -0.03700
C 	C 	0.62567 0.27845 0.69744 -0.01600
C 	C 	0.70225 0.25753 0.72578 -0.09000
C 	C 	0.67794 0.20489 0.75837 0.05300
C 	C 	0.98334 0.06540 0.69028 0.05800
C 	C 	0.96066 0.05135 0.74097 -0.09600
C 	C 	0.86246 0.05756 0.76278 -0.01300
C 	C 	0.78190 0.07944 0.73444 -0.04000
C 	C 	0.80060 0.09500 0.68580 -0.06600
C 	C 	0.90219 0.08874 0.66127 0.03700
C 	C 	0.92358 0.10260 0.61096 -0.10600
C 	C 	0.84184 0.12839 0.57897 0.34800
C 	C 	0.02125 0.09333 0.58978 0.03100
C 	C 	0.04769 0.10450 0.53933 -0.06800
C 	C 	0.14344 0.09515 0.52053 -0.04400
C 	C 	0.22213 0.07400 0.55161 -0.00300
C 	C 	0.20057 0.06262 0.59921 -0.10400
C 	C 	0.09964 0.07120 0.62078 0.06100
C 	C 	0.02933 0.24575 0.44646 0.05400
C 	C 	0.04277 0.28117 0.46286 -0.09600
C 	C 	0.14931 0.30931 0.45368 -0.01200
C 	C 	0.24742 0.30443 0.42807 -0.04200
C 	C 	0.23777 0.27256 0.41075 -0.06600
C 	C 	0.12921 0.24191 0.41898 0.03600
C 	C 	0.11582 0.20781 0.40225 -0.10200
C 	C 	0.21773 0.20451 0.37102 0.33600
C 	C 	0.00701 0.17727 0.41404 0.02600
C 	C 	0.98843 0.14049 0.40000 -0.05900
C 	C 	0.88219 0.11132 0.41235 -0.05000
C 	C 	0.78715 0.11770 0.43925 -0.00200
C 	C 	0.80118 0.15196 0.45392 -0.10300
C 	C 	0.91152 0.18295 0.44189 0.06200
C 	C 	0.79441 0.87714 0.68241 0.06200
C 	C 	0.70666 0.89350 0.65542 -0.10200
C 	C 	0.71723 0.94163 0.62084 -0.00100
C 	C 	0.81648 0.97795 0.61111 -0.05000
C 	C 	0.90098 0.96437 0.63683 -0.06100
C 	C 	0.89250 0.91394 0.67364 0.02900
C 	C 	0.97738 0.89838 0.70134 -0.09900
C 	C 	0.07847 0.93620 0.69629 0.33000
C 	C 	0.96852 0.84764 0.73448 0.03300
C 	C 	0.05536 0.82886 0.76148 -0.06500
C 	C 	0.04324 0.77978 0.79166 -0.04100
C 	C 	0.94429 0.74588 0.79871 -0.01300
C 	C 	0.85926 0.76186 0.77428 -0.09600
C 	C 	0.86828 0.81292 0.74068 0.05700
C 	C 	0.21603 0.91986 0.79767 -0.03200
C 	C 	0.29580 0.11227 0.68867 0.01100
C 	C 	0.76163 0.28893 0.40504 0.00100
C 	C 	0.65122 0.20642 0.59736 -0.03600
C 	C 	0.45065 0.18105 0.95380 0.05700
C 	C 	0.34066 0.15035 0.96327 -0.10100
C 	C 	0.33021 0.11792 0.94659 -0.00600
C 	C 	0.42778 0.11358 0.91864 -0.04300
C 	C 	0.53199 0.14205 0.90868 -0.06600
C 	C 	0.54824 0.17758 0.92516 0.03100
C 	C 	0.65559 0.20826 0.91519 -0.10200
C 	C 	0.76060 0.20758 0.88298 0.34200
C 	C 	0.66576 0.24061 0.93473 0.03800
C 	C 	0.77228 0.27092 0.92868 -0.06900
C 	C 	0.77819 0.30061 0.94934 -0.03700
C 	C 	0.67689 0.30256 0.97589 -0.01600
C 	C 	0.57197 0.27422 0.98331 -0.09100
C 	C 	0.56369 0.24163 0.96326 0.05400
C 	C 	0.32638 0.30972 0.75568 0.05800
C 	C 	0.29837 0.25903 0.79232 -0.09800
C 	C 	0.37476 0.23722 0.82034 -0.01200
C 	C 	0.48366 0.26556 0.81388 -0.04000
C 	C 	0.51360 0.31420 0.78080 -0.06500
C 	C 	0.43654 0.33873 0.75001 0.03700
C 	C 	0.46546 0.38904 0.71356 -0.10600
C 	C 	0.57919 0.42103 0.70736 0.34800
C 	C 	0.38897 0.41022 0.68311 0.03100
C 	C 	0.41298 0.46067 0.64383 -0.06500
C 	C 	0.33603 0.47947 0.61568 -0.04600
C 	C 	0.22626 0.44839 0.62561 -0.00200
C 	C 	0.20022 0.40079 0.66183 -0.10500
C 	C 	0.27958 0.37922 0.69198 0.06100
C 	C 	0.52421 0.55354 0.69221 0.05300
C 	C 	0.49437 0.53714 0.74403 -0.09300
C 	C 	0.39701 0.54632 0.76299 -0.01400
C 	C 	0.32451 0.57193 0.73250 -0.03900
C 	C 	0.35148 0.58925 0.68331 -0.06800
C 	C 	0.45181 0.58102 0.66089 0.03800
C 	C 	0.48193 0.59775 0.61006 -0.10400
C 	C 	0.41125 0.62898 0.57553 0.33700
C 	C 	0.57895 0.58596 0.59131 0.03200
C 	C 	0.61157 0.60000 0.54049 -0.06700
C 	C 	0.70546 0.58765 0.52367 -0.04400
C 	C 	0.77360 0.56075 0.55695 -0.00700
C 	C 	0.74490 0.54608 0.60588 -0.09900
C 	C 	0.64659 0.55811 0.62484 0.05800
C 	C 	0.52318 0.31759 0.55955 0.06200
C 	C 	0.63792 0.34458 0.54892 -0.10100
C 	C 	0.66193 0.37916 0.56247 -0.00200
C 	C 	0.57241 0.38889 0.58906 -0.04800
C 	C 	0.46219 0.36317 0.60120 -0.06300
C 	C 	0.43386 0.32636 0.58758 0.02900
C 	C 	0.32128 0.29866 0.59972 -0.09800
C 	C 	0.22524 0.30371 0.63249 0.32900
C 	C 	0.29700 0.26552 0.58212 0.03300
C 	C 	0.18316 0.23852 0.59034 -0.06600
C 	C 	0.16510 0.20834 0.57144 -0.04200
C 	C 	0.25700 0.20129 0.54459 -0.01000
C 	C 	0.36646 0.22572 0.53614 -0.09700
C 	C 	0.39104 0.25932 0.55360 0.05700
C 	C 	0.98630 0.20233 0.71753 -0.03000
C 	C 	0.01553 0.31133 0.80094 0.01400
C 	C 	0.83333 0.59496 0.69397 0.00100
C 	C 	0.75142 0.40264 0.80378 -0.03600
C 	C 	0.40445 0.95380 0.86515 0.05700
C 	C 	0.30393 0.96327 0.88638 -0.10000
C 	C 	0.27680 0.94659 0.93549 -0.00800
C 	C 	0.34642 0.91864 0.96778 -0.04100
C 	C 	0.44067 0.90868 0.94927 -0.06700
C 	C 	0.47340 0.92516 0.89726 0.03200
C 	C 	0.57078 0.91519 0.87655 -0.10300
C 	C 	0.64358 0.88298 0.90944 0.34200
C 	C 	0.60049 0.93473 0.82466 0.03800
C 	C 	0.70096 0.92868 0.80040 -0.06900
C 	C 	0.72753 0.94934 0.75005 -0.03700
C 	C 	0.65278 0.97589 0.72155 -0.01600
C 	C 	0.55528 0.98331 0.74247 -0.09000
C 	C 	0.52695 0.96326 0.79511 0.05300
C 	C 	0.08206 0.75568 0.93460 0.05900
C 	C 	0.09069 0.79232 0.94865 -0.09900
C 	C 	0.19510 0.82034 0.94244 -0.01200
C 	C 	0.29754 0.81388 0.92056 -0.04100
C 	C 	0.29440 0.78080 0.90500 -0.06500
C 	C 	0.18655 0.75001 0.91126 0.03600
C 	C 	0.17902 0.71356 0.89740 -0.10600
C 	C 	0.28655 0.70736 0.87161 0.34800
C 	C 	0.07208 0.68311 0.90667 0.03100
C 	C 	0.05681 0.64383 0.89550 -0.06300
C 	C 	0.95171 0.61568 0.90485 -0.04900
C 	C 	0.85187 0.62561 0.92600 -0.00100
C 	C 	0.86205 0.66183 0.93738 -0.10600
C 	C 	0.97156 0.69198 0.92880 0.06100
C 	C 	0.21642 0.69221 0.75425 0.05500
C 	C 	0.23840 0.74403 0.71883 -0.09500
C 	C 	0.16000 0.76299 0.69069 -0.01200
C 	C 	0.05701 0.73250 0.69557 -0.04300
C 	C 	0.03479 0.68331 0.72744 -0.06200
C 	C 	0.11270 0.66089 0.75809 0.03500
C 	C 	0.09199 0.61006 0.79219 -0.10200
C 	C 	0.98678 0.57553 0.79549 0.33400
C 	C 	0.17026 0.59131 0.82273 0.03100
C 	C 	0.15206 0.54049 0.85951 -0.06600
C 	C 	0.22913 0.52367 0.88868 -0.04500
C 	C 	0.33055 0.55695 0.88230 -0.00700
C 	C 	0.35078 0.60588 0.84804 -0.09900
C 	C 	0.27143 0.62484 0.81705 0.05800
C 	C 	0.08273 0.55955 0.12286 0.06300
C 	C 	0.18684 0.54892 0.10650 -0.10300
C 	C 	0.22440 0.56247 0.05837 0.00000
C 	C 	0.16147 0.58906 0.02205 -0.05100
C 	C 	0.06339 0.60120 0.03563 -0.06000
C 	C 	0.02144 0.58758 0.08606 0.02600
C 	C 	0.92100 0.59972 0.10162 -0.09600
C 	C 	0.85773 0.63249 0.06380 0.32900
C 	C 	0.87912 0.58212 0.15236 0.03200
C 	C 	0.77350 0.59034 0.17114 -0.06400
C 	C 	0.73654 0.57144 0.22022 -0.04400
C 	C 	0.80159 0.54459 0.25412 -0.00900
C 	C 	0.90260 0.53614 0.23814 -0.09800
C 	C 	0.94464 0.55360 0.18708 0.05900
C 	C 	0.70383 0.71753 0.08014 -0.03100
C 	C 	0.81647 0.80094 0.88773 0.01200
C 	C 	0.52730 0.69397 0.71107 0.00100
C 	C 	0.55520 0.80378 0.79358 -0.03600
C 	C 	0.26960 0.86515 0.18105 0.05700
C 	C 	0.19031 0.88638 0.15035 -0.10000
C 	C 	0.21229 0.93549 0.11792 -0.00700
C 	C 	0.31420 0.96778 0.11358 -0.04300
C 	C 	0.38994 0.94927 0.14205 -0.06700
C 	C 	0.37066 0.89726 0.17758 0.03100
C 	C 	0.44733 0.87655 0.20826 -0.10200
C 	C 	0.55302 0.90944 0.20758 0.34200
C 	C 	0.42515 0.82466 0.24061 0.03800
C 	C 	0.50136 0.80040 0.27092 -0.06900
C 	C 	0.47758 0.75005 0.30061 -0.03700
C 	C 	0.37433 0.72155 0.30256 -0.01600
C 	C 	0.29775 0.74247 0.27422 -0.09000
C 	C 	0.32206 0.79511 0.24163 0.05300
C 	C 	0.01666 0.93460 0.30972 0.05800
C 	C 	0.03934 0.94865 0.25903 -0.09600
C 	C 	0.13754 0.94244 0.23722 -0.01300
C 	C 	0.21810 0.92056 0.26556 -0.04000
C 	C 	0.19940 0.90500 0.31420 -0.06600
C 	C 	0.09781 0.91126 0.33873 0.03700
C 	C 	0.07642 0.89740 0.38904 -0.10600
C 	C 	0.15816 0.87161 0.42103 0.34800
C 	C 	0.97875 0.90667 0.41022 0.03100
C 	C 	0.95231 0.89550 0.46067 -0.06800
C 	C 	0.85656 0.90485 0.47947 -0.04400
C 	C 	0.77787 0.92600 0.44839 -0.00300
C 	C 	0.79943 0.93738 0.40079 -0.10400
C 	C 	0.90036 0.92880 0.37922 0.06100
C 	C 	0.97067 0.75425 0.55354 0.05400
C 	C 	0.95723 0.71883 0.53714 -0.09600
C 	C 	0.85069 0.69069 0.54632 -0.01200
C 	C 	0.75258 0.69557 0.57193 -0.04200
C 	C 	0.76223 0.72744 0.58925 -0.06600
C 	C 	0.87079 0.75809 0.58102 0.03600
C 	C 	0.88418 0.79219 0.59775 -0.10200
C 	C 	0.78227 0.79549 0.62898 0.33600
C 	C 	0.99299 0.82273 0.58596 0.02600
C 	C 	0.01157 0.85951 0.60000 -0.05900
C 	C 	0.11781 0.88868 0.58765 -0.05000
C 	C 	0.21285 0.88230 0.56075 -0.00200
C 	C 	0.19882 0.84804 0.54608 -0.10300
C 	C 	0.08848 0.81705 0.55811 0.06200
C 	C 	0.20559 0.12286 0.31759 0.06200
C 	C 	0.29334 0.10650 0.34458 -0.10200
C 	C 	0.28277 0.05837 0.37916 -0.00100
C 	C 	0.18352 0.02205 0.38889 -0.05000
C 	C 	0.09902 0.03563 0.36317 -0.06100
C 	C 	0.10750 0.08606 0.32636 0.02900
C 	C 	0.02262 0.10162 0.29866 -0.09900
C 	C 	0.92153 0.06380 0.30371 0.33000
C 	C 	0.03148 0.15236 0.26552 0.03300
C 	C 	0.94464 0.17114 0.23852 -0.06500
C 	C 	0.95676 0.22022 0.20834 -0.04100
C 	C 	0.05571 0.25412 0.20129 -0.01300
C 	C 	0.14074 0.23814 0.22572 -0.09600
C 	C 	0.13172 0.18708 0.25932 0.05700
C 	C 	0.78397 0.08014 0.20233 -0.03200
C 	C 	0.70420 0.88773 0.31133 0.01100
C 	C 	0.23837 0.71107 0.59496 0.00100
C 	C 	0.34878 0.79358 0.40264 -0.03600
N 	N 	0.54168 0.78752 0.02728 -0.21700
N 	N 	0.74847 0.66941 0.27280 -0.21700
N 	N 	0.38049 0.45785 0.32548 -0.21700
N 	N 	0.50000 0.71525 0.45625 -0.21800
N 	N 	0.56896 0.02728 0.18520 -0.21700
N 	N 	0.02127 0.27280 0.05779 -0.21800
N 	N 	0.70597 0.32548 0.21667 -0.21800
N 	N 	0.95625 0.45625 0.82850 -0.21900
N 	N 	0.75416 0.18520 0.78752 -0.21700
N 	N 	0.07906 0.05779 0.66941 -0.21700
N 	N 	0.92264 0.21667 0.45785 -0.21800
N 	N 	0.78475 0.82850 0.71525 -0.21800
N 	N 	0.45832 0.21248 0.97272 -0.21700
N 	N 	0.25153 0.33059 0.72720 -0.21700
N 	N 	0.61951 0.54215 0.67452 -0.21700
N 	N 	0.50000 0.28475 0.54375 -0.21800
N 	N 	0.43104 0.97272 0.81480 -0.21700
N 	N 	0.97873 0.72720 0.94221 -0.21800
N 	N 	0.29403 0.67452 0.78333 -0.21800
N 	N 	0.04375 0.54375 0.17150 -0.21900
N 	N 	0.24584 0.81480 0.21248 -0.21700
N 	N 	0.92094 0.94221 0.33059 -0.21700
N 	N 	0.07736 0.78333 0.54215 -0.21800
N 	N 	0.21525 0.17150 0.28475 -0.21800
O 	O 	0.22803 0.76151 0.16312 -0.39800
O 	O 	0.17857 0.82134 0.09803 -0.30500
O 	O 	0.42469 0.55977 0.26480 -0.40300
O 	O 	0.33772 0.57250 0.32334 -0.30400
O 	O 	0.55592 0.32467 0.44091 -0.39600
O 	O 	0.66878 0.39127 0.43383 -0.30200
O 	O 	0.77758 0.72276 0.32102 -0.39600
O 	O 	0.84116 0.66889 0.38601 -0.29500
O 	O 	0.00614 0.76830 0.25898 -0.44900
O 	O 	0.99216 0.71799 0.22151 -0.45500
O 	O 	0.18820 0.45696 0.27626 -0.45400
O 	O 	0.22956 0.54437 0.22429 -0.44800
O 	O 	0.39115 0.16312 0.07537 -0.39800
O 	O 	0.27660 0.09803 0.08063 -0.30500
O 	O 	0.68949 0.26480 0.17543 -0.40300
O 	O 	0.66106 0.32334 0.10416 -0.30400
O 	O 	0.99683 0.44091 0.23442 -0.39400
O 	O 	0.10261 0.43383 0.17490 -0.30100
O 	O 	0.09860 0.32102 0.95622 -0.39500
O 	O 	0.22717 0.38601 0.94510 -0.29400
O 	O 	0.26512 0.25898 0.97272 -0.44800
O 	O 	0.21367 0.22151 0.06050 -0.45400
O 	O 	0.46446 0.27626 0.26678 -0.45400
O 	O 	0.45385 0.22429 0.23134 -0.44800
O 	O 	0.46652 0.07537 0.76151 -0.39800
O 	O 	0.35723 0.08063 0.82134 -0.30500
O 	O 	0.86492 0.17543 0.55977 -0.40300
O 	O 	0.76522 0.10416 0.57250 -0.30400
O 	O 	0.23125 0.23442 0.32467 -0.39600
O 	O 	0.27751 0.17490 0.39127 -0.30200
O 	O 	0.05482 0.95622 0.72276 -0.39600
O 	O 	0.17227 0.94510 0.66889 -0.29400
O 	O 	0.23784 0.97272 0.76830 -0.44800
O 	O 	0.27417 0.06050 0.71799 -0.45400
O 	O 	0.73124 0.26678 0.45696 -0.45400
O 	O 	0.68519 0.23134 0.54437 -0.44800
O 	O 	0.77197 0.23849 0.83688 -0.39800
O 	O 	0.82143 0.17866 0.90197 -0.30500
O 	O 	0.57531 0.44023 0.73520 -0.40300
O 	O 	0.66228 0.42750 0.67666 -0.30400
O 	O 	0.44408 0.67533 0.55909 -0.39600
O 	O 	0.33122 0.60873 0.56617 -0.30200
O 	O 	0.22242 0.27724 0.67898 -0.39600
O 	O 	0.15884 0.33111 0.61399 -0.29500
O 	O 	0.99386 0.23170 0.74102 -0.44900
O 	O 	0.00784 0.28201 0.77849 -0.45500
O 	O 	0.81180 0.54304 0.72374 -0.45400
O 	O 	0.77044 0.45563 0.77571 -0.44800
O 	O 	0.60885 0.83688 0.92463 -0.39800
O 	O 	0.72340 0.90197 0.91937 -0.30500
O 	O 	0.31051 0.73520 0.82457 -0.40300
O 	O 	0.33894 0.67666 0.89584 -0.30400
O 	O 	0.00317 0.55909 0.76558 -0.39400
O 	O 	0.89739 0.56617 0.82510 -0.30100
O 	O 	0.90140 0.67898 0.04378 -0.39500
O 	O 	0.77283 0.61399 0.05490 -0.29400
O 	O 	0.73488 0.74102 0.02728 -0.44800
O 	O 	0.78633 0.77849 0.93950 -0.45400
O 	O 	0.53554 0.72374 0.73322 -0.45400
O 	O 	0.54615 0.77571 0.76866 -0.44800
O 	O 	0.53348 0.92463 0.23849 -0.39800
O 	O 	0.64277 0.91937 0.17866 -0.30500
O 	O 	0.13508 0.82457 0.44023 -0.40300
O 	O 	0.23478 0.89584 0.42750 -0.30400
O 	O 	0.76875 0.76558 0.67533 -0.39600
O 	O 	0.72249 0.82510 0.60873 -0.30200
O 	O 	0.94518 0.04378 0.27724 -0.39600
O 	O 	0.82773 0.05490 0.33111 -0.29400
O 	O 	0.76216 0.02728 0.23170 -0.44800
O 	O 	0.72583 0.93950 0.28201 -0.45400
O 	O 	0.26876 0.73322 0.54304 -0.45400
O 	O 	0.31481 0.76866 0.45563 -0.44800
