data_crystal

_cell_length_a 13.25630
_cell_length_b 13.25630
_cell_length_c 27.56160
_cell_angle_alpha 90.00000
_cell_angle_beta  90.00000
_cell_angle_gamma 90.00000

_symmetry_space_group_name_	'P 1'
_symmetry_space_group_name_H-M	'P 1'

loop_
_symmetry_equiv_pos_as_xyz
  x,y,z

loop_
_atom_site_label
_atom_site_type_symbol
_atom_site_fract_x
_atom_site_fract_y
_atom_site_fract_z
_atom_site_charge
C 	C 	0.15330 0.72660 0.20143 -0.01700
C 	C 	0.09050 0.66730 0.23092 -0.07200
C 	C 	0.16810 0.58970 0.14494 -0.02000
C 	C 	0.10780 0.53110 0.17453 -0.06700
H 	H 	0.09320 0.46370 0.16510 0.04000
H 	H 	0.19450 0.56230 0.11570 0.03100
H 	H 	0.17030 0.79290 0.21160 0.02700
H 	H 	0.06340 0.69470 0.26000 0.05100
C 	C 	0.20630 0.82810 0.09584 -0.11500
C 	C 	0.35490 0.74510 0.12216 -0.00700
C 	C 	0.40880 0.80330 0.08865 -0.02300
H 	H 	0.48010 0.79610 0.08770 0.01300
C 	C 	0.26530 0.88190 0.06299 0.06800
H 	H 	0.23390 0.93080 0.04290 -0.01700
H 	H 	0.38980 0.69930 0.14270 0.02500
H 	H 	0.13600 0.84070 0.09840 0.06300
C 	C 	0.84670 0.27340 0.20143 -0.02400
C 	C 	0.90950 0.33270 0.23092 -0.06700
C 	C 	0.83190 0.41030 0.14494 -0.02800
C 	C 	0.89220 0.46890 0.17453 -0.05900
H 	H 	0.90680 0.53630 0.16510 0.03800
H 	H 	0.80550 0.43770 0.11570 0.03200
H 	H 	0.82970 0.20710 0.21160 0.02900
H 	H 	0.93660 0.30530 0.26000 0.04700
C 	C 	0.79370 0.17190 0.09584 -0.11300
C 	C 	0.64510 0.25490 0.12216 -0.00700
C 	C 	0.59120 0.19670 0.08865 -0.02200
H 	H 	0.51990 0.20390 0.08770 0.01300
C 	C 	0.73470 0.11810 0.06299 0.06600
H 	H 	0.76610 0.06920 0.04290 -0.01600
H 	H 	0.61020 0.30070 0.14270 0.02600
H 	H 	0.86400 0.15930 0.09840 0.06200
C 	C 	0.77340 0.65330 0.70143 -0.01700
C 	C 	0.83270 0.59050 0.73092 -0.07300
C 	C 	0.91030 0.66810 0.64494 -0.01800
C 	C 	0.96890 0.60780 0.67453 -0.07500
H 	H 	0.03630 0.59320 0.66510 0.04400
H 	H 	0.93770 0.69450 0.61570 0.02700
H 	H 	0.70710 0.67030 0.71160 0.02700
H 	H 	0.80530 0.56340 0.76000 0.05000
C 	C 	0.67190 0.70630 0.59584 -0.11100
C 	C 	0.75490 0.85490 0.62216 -0.00900
C 	C 	0.69670 0.90880 0.58865 -0.02300
H 	H 	0.70390 0.98010 0.58770 0.01100
C 	C 	0.61810 0.76530 0.56299 0.06800
H 	H 	0.56920 0.73390 0.54290 -0.01300
H 	H 	0.80070 0.88980 0.64270 0.02500
H 	H 	0.65930 0.63600 0.59840 0.06200
C 	C 	0.22660 0.34670 0.70143 -0.02500
C 	C 	0.16730 0.40950 0.73092 -0.06600
C 	C 	0.08970 0.33190 0.64494 -0.03200
C 	C 	0.03110 0.39220 0.67453 -0.05200
H 	H 	0.96370 0.40680 0.66510 0.03300
H 	H 	0.06230 0.30550 0.61570 0.03500
H 	H 	0.29290 0.32970 0.71160 0.03000
H 	H 	0.19470 0.43660 0.76000 0.04800
C 	C 	0.32810 0.29370 0.59584 -0.11100
C 	C 	0.24510 0.14510 0.62216 -0.01100
C 	C 	0.30330 0.09120 0.58865 -0.02200
H 	H 	0.29610 0.01990 0.58770 0.01500
C 	C 	0.38190 0.23470 0.56299 0.06700
H 	H 	0.43080 0.26610 0.54290 -0.01200
H 	H 	0.19930 0.11020 0.64270 0.02700
H 	H 	0.34070 0.36400 0.59840 0.06200
C 	C 	0.84670 0.72660 0.29857 -0.02400
C 	C 	0.90950 0.66730 0.26908 -0.06700
C 	C 	0.83190 0.58970 0.35506 -0.02800
C 	C 	0.89220 0.53110 0.32547 -0.05900
H 	H 	0.90680 0.46370 0.33490 0.03800
H 	H 	0.80550 0.56230 0.38430 0.03200
H 	H 	0.82970 0.79290 0.28840 0.02900
H 	H 	0.93660 0.69470 0.24000 0.04700
C 	C 	0.79370 0.82810 0.40416 -0.11200
C 	C 	0.64510 0.74510 0.37784 -0.01000
C 	C 	0.59120 0.80330 0.41135 -0.02300
H 	H 	0.51990 0.79610 0.41230 0.01300
C 	C 	0.73470 0.88190 0.43701 0.06800
H 	H 	0.76610 0.93080 0.45710 -0.01400
H 	H 	0.61020 0.69930 0.35730 0.02600
H 	H 	0.86400 0.84070 0.40160 0.06100
C 	C 	0.15330 0.27340 0.29857 -0.01800
C 	C 	0.09050 0.33270 0.26908 -0.07200
C 	C 	0.16810 0.41030 0.35506 -0.02100
C 	C 	0.10780 0.46890 0.32547 -0.06800
H 	H 	0.09320 0.53630 0.33490 0.03900
H 	H 	0.19450 0.43770 0.38430 0.03000
H 	H 	0.17030 0.20710 0.28840 0.02800
H 	H 	0.06340 0.30530 0.24000 0.05100
C 	C 	0.20630 0.17190 0.40416 -0.11000
C 	C 	0.35490 0.25490 0.37784 -0.01000
C 	C 	0.40880 0.19670 0.41135 -0.02200
H 	H 	0.48010 0.20390 0.41230 0.01300
C 	C 	0.26530 0.11810 0.43701 0.06700
H 	H 	0.23390 0.06920 0.45710 -0.01100
H 	H 	0.38980 0.30070 0.35730 0.02600
H 	H 	0.13600 0.15930 0.40160 0.06300
C 	C 	0.22660 0.65330 0.79857 -0.02500
C 	C 	0.16730 0.59050 0.76908 -0.06600
C 	C 	0.08970 0.66810 0.85506 -0.03100
C 	C 	0.03110 0.60780 0.82547 -0.05200
H 	H 	0.96370 0.59320 0.83490 0.03300
H 	H 	0.06230 0.69450 0.88430 0.03700
H 	H 	0.29290 0.67030 0.78840 0.03000
H 	H 	0.19470 0.56340 0.74000 0.04800
C 	C 	0.32810 0.70630 0.90416 -0.10600
C 	C 	0.24510 0.85490 0.87784 -0.01200
C 	C 	0.30330 0.90880 0.91135 -0.02600
H 	H 	0.29610 0.98010 0.91230 0.01500
C 	C 	0.38190 0.76530 0.93701 0.07100
H 	H 	0.43080 0.73390 0.95710 -0.00500
H 	H 	0.19930 0.88980 0.85730 0.02700
H 	H 	0.34070 0.63600 0.90160 0.06300
C 	C 	0.77340 0.34670 0.79857 -0.01800
C 	C 	0.83270 0.40950 0.76908 -0.07300
C 	C 	0.91030 0.33190 0.85506 -0.01800
C 	C 	0.96890 0.39220 0.82547 -0.07400
H 	H 	0.03630 0.40680 0.83490 0.04400
H 	H 	0.93770 0.30550 0.88430 0.02900
H 	H 	0.70710 0.32970 0.78840 0.02700
H 	H 	0.80530 0.43660 0.74000 0.05000
C 	C 	0.67190 0.29370 0.90416 -0.10600
C 	C 	0.75490 0.14510 0.87784 -0.01300
C 	C 	0.69670 0.09120 0.91135 -0.02600
H 	H 	0.70390 0.01990 0.91230 0.01900
C 	C 	0.61810 0.23470 0.93701 0.07100
H 	H 	0.56920 0.26610 0.95710 -0.00500
H 	H 	0.80070 0.11020 0.85730 0.02800
H 	H 	0.65930 0.36400 0.90160 0.06300
C 	C 	0.84670 0.27340 0.79857 -0.02500
C 	C 	0.90950 0.33270 0.76908 -0.06600
C 	C 	0.83190 0.41030 0.85506 -0.02800
C 	C 	0.89220 0.46890 0.82547 -0.05900
H 	H 	0.90680 0.53630 0.83490 0.03800
H 	H 	0.80550 0.43770 0.88430 0.03400
H 	H 	0.82970 0.20710 0.78840 0.03000
H 	H 	0.93660 0.30530 0.74000 0.04700
C 	C 	0.79370 0.17190 0.90416 -0.10500
C 	C 	0.64510 0.25490 0.87784 -0.01300
C 	C 	0.59120 0.19670 0.91135 -0.02600
H 	H 	0.51990 0.20390 0.91230 0.01700
C 	C 	0.73470 0.11810 0.93701 0.07000
H 	H 	0.76610 0.06920 0.95710 -0.00500
H 	H 	0.61020 0.30070 0.85730 0.02700
H 	H 	0.86400 0.15930 0.90160 0.06200
C 	C 	0.15330 0.72660 0.79857 -0.01800
C 	C 	0.09050 0.66730 0.76908 -0.07200
C 	C 	0.16810 0.58970 0.85506 -0.02100
C 	C 	0.10780 0.53110 0.82547 -0.06700
H 	H 	0.09320 0.46370 0.83490 0.04000
H 	H 	0.19450 0.56230 0.88430 0.03200
H 	H 	0.17030 0.79290 0.78840 0.02800
H 	H 	0.06340 0.69470 0.74000 0.05100
C 	C 	0.20630 0.82810 0.90416 -0.10700
C 	C 	0.35490 0.74510 0.87784 -0.01300
C 	C 	0.40880 0.80330 0.91135 -0.02600
H 	H 	0.48010 0.79610 0.91230 0.01700
C 	C 	0.26530 0.88190 0.93701 0.07100
H 	H 	0.23390 0.93080 0.95710 -0.00600
H 	H 	0.38980 0.69930 0.85730 0.02700
H 	H 	0.13600 0.84070 0.90160 0.06300
C 	C 	0.22660 0.34670 0.29857 -0.02500
C 	C 	0.16730 0.40950 0.26908 -0.06600
C 	C 	0.08970 0.33190 0.35506 -0.03200
C 	C 	0.03110 0.39220 0.32547 -0.05200
H 	H 	0.96370 0.40680 0.33490 0.03300
H 	H 	0.06230 0.30550 0.38430 0.03500
H 	H 	0.29290 0.32970 0.28840 0.03000
H 	H 	0.19470 0.43660 0.24000 0.04800
C 	C 	0.32810 0.29370 0.40416 -0.11100
C 	C 	0.24510 0.14510 0.37784 -0.01100
C 	C 	0.30330 0.09120 0.41135 -0.02200
H 	H 	0.29610 0.01990 0.41230 0.01500
C 	C 	0.38190 0.23470 0.43701 0.06700
H 	H 	0.43080 0.26610 0.45710 -0.01200
H 	H 	0.19930 0.11020 0.35730 0.02800
H 	H 	0.34070 0.36400 0.40160 0.06200
C 	C 	0.77340 0.65330 0.29857 -0.01700
C 	C 	0.83270 0.59050 0.26908 -0.07300
C 	C 	0.91030 0.66810 0.35506 -0.01800
C 	C 	0.96890 0.60780 0.32547 -0.07500
H 	H 	0.03630 0.59320 0.33490 0.04400
H 	H 	0.93770 0.69450 0.38430 0.02700
H 	H 	0.70710 0.67030 0.28840 0.02700
H 	H 	0.80530 0.56340 0.24000 0.05000
C 	C 	0.67190 0.70630 0.40416 -0.11100
C 	C 	0.75490 0.85490 0.37784 -0.00900
C 	C 	0.69670 0.90880 0.41135 -0.02300
H 	H 	0.70390 0.98010 0.41230 0.01100
C 	C 	0.61810 0.76530 0.43701 0.06800
H 	H 	0.56920 0.73390 0.45710 -0.01300
H 	H 	0.80070 0.88980 0.35730 0.02500
H 	H 	0.65930 0.63600 0.40160 0.06200
C 	C 	0.15330 0.27340 0.70143 -0.01800
C 	C 	0.09050 0.33270 0.73092 -0.07200
C 	C 	0.16810 0.41030 0.64494 -0.02100
C 	C 	0.10780 0.46890 0.67453 -0.06800
H 	H 	0.09320 0.53630 0.66510 0.03900
H 	H 	0.19450 0.43770 0.61570 0.03000
H 	H 	0.17030 0.20710 0.71160 0.02800
H 	H 	0.06340 0.30530 0.76000 0.05100
C 	C 	0.20630 0.17190 0.59584 -0.11000
C 	C 	0.35490 0.25490 0.62216 -0.01000
C 	C 	0.40880 0.19670 0.58865 -0.02200
H 	H 	0.48010 0.20390 0.58770 0.01300
C 	C 	0.26530 0.11810 0.56299 0.06700
H 	H 	0.23390 0.06920 0.54290 -0.01100
H 	H 	0.38980 0.30070 0.64270 0.02600
H 	H 	0.13600 0.15930 0.59840 0.06300
C 	C 	0.84670 0.72660 0.70143 -0.02400
C 	C 	0.90950 0.66730 0.73092 -0.06700
C 	C 	0.83190 0.58970 0.64494 -0.02800
C 	C 	0.89220 0.53110 0.67453 -0.05900
H 	H 	0.90680 0.46370 0.66510 0.03800
H 	H 	0.80550 0.56230 0.61570 0.03200
H 	H 	0.82970 0.79290 0.71160 0.02900
H 	H 	0.93660 0.69470 0.76000 0.04700
C 	C 	0.79370 0.82810 0.59584 -0.11200
C 	C 	0.64510 0.74510 0.62216 -0.01000
C 	C 	0.59120 0.80330 0.58865 -0.02300
H 	H 	0.51990 0.79610 0.58770 0.01300
C 	C 	0.73470 0.88190 0.56299 0.06800
H 	H 	0.76610 0.93080 0.54290 -0.01400
H 	H 	0.61020 0.69930 0.64270 0.02600
H 	H 	0.86400 0.84070 0.59840 0.06100
C 	C 	0.77340 0.34670 0.20143 -0.01700
C 	C 	0.83270 0.40950 0.23092 -0.07300
C 	C 	0.91030 0.33190 0.14494 -0.01800
C 	C 	0.96890 0.39220 0.17453 -0.07400
H 	H 	0.03630 0.40680 0.16510 0.04400
H 	H 	0.93770 0.30550 0.11570 0.02700
H 	H 	0.70710 0.32970 0.21160 0.02700
H 	H 	0.80530 0.43660 0.26000 0.05000
C 	C 	0.67190 0.29370 0.09584 -0.11400
C 	C 	0.75490 0.14510 0.12216 -0.00800
C 	C 	0.69670 0.09120 0.08865 -0.02300
H 	H 	0.70390 0.01990 0.08770 0.01500
C 	C 	0.61810 0.23470 0.06299 0.06700
H 	H 	0.56920 0.26610 0.04290 -0.01700
H 	H 	0.80070 0.11020 0.14270 0.02600
H 	H 	0.65930 0.36400 0.09840 0.06200
C 	C 	0.22660 0.65330 0.20143 -0.02500
C 	C 	0.16730 0.59050 0.23092 -0.06600
C 	C 	0.08970 0.66810 0.14494 -0.03200
C 	C 	0.03110 0.60780 0.17453 -0.05200
H 	H 	0.96370 0.59320 0.16510 0.03300
H 	H 	0.06230 0.69450 0.11570 0.03500
H 	H 	0.29290 0.67030 0.21160 0.03000
H 	H 	0.19470 0.56340 0.26000 0.04800
C 	C 	0.32810 0.70630 0.09584 -0.11400
C 	C 	0.24510 0.85490 0.12216 -0.00700
C 	C 	0.30330 0.90880 0.08865 -0.02300
H 	H 	0.29610 0.98010 0.08770 0.01100
C 	C 	0.38190 0.76530 0.06299 0.06700
H 	H 	0.43080 0.73390 0.04290 -0.01700
H 	H 	0.19930 0.88980 0.14270 0.02500
H 	H 	0.34070 0.63600 0.09840 0.06200
C 	C 	-0.00000 0.50000 0.25000 -0.11300
C 	C 	-0.00000 0.50000 0.75000 -0.11300
C 	C 	0.06778 0.56778 0.21761 0.08700
C 	C 	0.25370 0.75370 0.12558 0.05000
C 	C 	0.19079 0.69079 0.15814 -0.00900
N 	N 	0.36674 0.86674 0.05872 -0.23100
C 	C 	0.93222 0.43222 0.21761 0.08800
C 	C 	0.74630 0.24630 0.12558 0.05100
C 	C 	0.80921 0.30921 0.15814 -0.01200
N 	N 	0.63326 0.13326 0.05872 -0.23000
C 	C 	0.06778 0.43222 0.71761 0.08700
C 	C 	0.25370 0.24630 0.62558 0.05000
C 	C 	0.19079 0.30921 0.65814 -0.00900
N 	N 	0.36674 0.13326 0.55872 -0.22900
C 	C 	0.93222 0.56778 0.28239 0.08900
C 	C 	0.74630 0.75370 0.37442 0.05100
C 	C 	0.80921 0.69079 0.34186 -0.01200
N 	N 	0.63326 0.86674 0.44128 -0.22900
C 	C 	0.06778 0.43222 0.28239 0.08700
C 	C 	0.25370 0.24630 0.37442 0.05000
C 	C 	0.19079 0.30921 0.34186 -0.00900
N 	N 	0.36674 0.13326 0.44128 -0.22900
C 	C 	0.93222 0.43222 0.78239 0.08800
C 	C 	0.74630 0.24630 0.87442 0.05200
C 	C 	0.80921 0.30921 0.84186 -0.01100
N 	N 	0.63326 0.13326 0.94128 -0.22200
C 	C 	0.06778 0.56778 0.78239 0.08700
C 	C 	0.25370 0.75370 0.87442 0.05100
C 	C 	0.19079 0.69079 0.84186 -0.00900
N 	N 	0.36674 0.86674 0.94128 -0.22200
C 	C 	0.93222 0.56778 0.71761 0.08900
C 	C 	0.74630 0.75370 0.62558 0.05100
C 	C 	0.80921 0.69079 0.65814 -0.01200
N 	N 	0.63326 0.86674 0.55872 -0.22900
Cu	Cu	0.43382 0.93382 -0.00000 0.78500
Cu	Cu	0.56618 0.06618 -0.00000 0.78600
Cu	Cu	0.43382 0.06618 0.50000 0.79200
Cu	Cu	0.56618 0.93382 0.50000 0.79000
I 	I 	0.37581 0.12419 -0.00000 -0.47700
I 	I 	0.62419 0.87581 -0.00000 -0.48200
I 	I 	0.62419 0.12419 0.50000 -0.45500
I 	I 	0.37581 0.87581 0.50000 -0.45900
C 	C 	0.65330 0.22660 0.70143 -0.02500
C 	C 	0.59050 0.16730 0.73092 -0.06600
C 	C 	0.66810 0.08970 0.64494 -0.03200
C 	C 	0.60780 0.03110 0.67453 -0.05200
H 	H 	0.59320 0.96370 0.66510 0.03300
H 	H 	0.69450 0.06230 0.61570 0.03500
H 	H 	0.67030 0.29290 0.71160 0.03000
H 	H 	0.56340 0.19470 0.76000 0.04800
C 	C 	0.70630 0.32810 0.59584 -0.11100
C 	C 	0.85490 0.24510 0.62216 -0.00900
C 	C 	0.90880 0.30330 0.58865 -0.02300
H 	H 	0.98010 0.29610 0.58770 0.01100
C 	C 	0.76530 0.38190 0.56299 0.06800
H 	H 	0.73390 0.43080 0.54290 -0.01300
H 	H 	0.88980 0.19930 0.64270 0.02600
H 	H 	0.63600 0.34070 0.59840 0.06200
C 	C 	0.34670 0.77340 0.70143 -0.01700
C 	C 	0.40950 0.83270 0.73092 -0.07300
C 	C 	0.33190 0.91030 0.64494 -0.01800
C 	C 	0.39220 0.96890 0.67453 -0.07500
H 	H 	0.40680 0.03630 0.66510 0.04400
H 	H 	0.30550 0.93770 0.61570 0.02700
H 	H 	0.32970 0.70710 0.71160 0.02700
H 	H 	0.43660 0.80530 0.76000 0.05000
C 	C 	0.29370 0.67190 0.59584 -0.11100
C 	C 	0.14510 0.75490 0.62216 -0.01000
C 	C 	0.09120 0.69670 0.58865 -0.02300
H 	H 	0.01990 0.70390 0.58770 0.01500
C 	C 	0.23470 0.61810 0.56299 0.06700
H 	H 	0.26610 0.56920 0.54290 -0.01200
H 	H 	0.11020 0.80070 0.64270 0.02700
H 	H 	0.36400 0.65930 0.59840 0.06200
C 	C 	0.27340 0.15330 0.20143 -0.01800
C 	C 	0.33270 0.09050 0.23092 -0.07200
C 	C 	0.41030 0.16810 0.14494 -0.02100
C 	C 	0.46890 0.10780 0.17453 -0.06800
H 	H 	0.53630 0.09320 0.16510 0.03900
H 	H 	0.43770 0.19450 0.11570 0.03000
H 	H 	0.20710 0.17030 0.21160 0.02800
H 	H 	0.30530 0.06340 0.26000 0.05100
C 	C 	0.17190 0.20630 0.09584 -0.11300
C 	C 	0.25490 0.35490 0.12216 -0.00700
C 	C 	0.19670 0.40880 0.08865 -0.02200
H 	H 	0.20390 0.48010 0.08770 0.01300
C 	C 	0.11810 0.26530 0.06299 0.06600
H 	H 	0.06920 0.23390 0.04290 -0.01500
H 	H 	0.30070 0.38980 0.14270 0.02500
H 	H 	0.15930 0.13600 0.09840 0.06300
C 	C 	0.72660 0.84670 0.20143 -0.02400
C 	C 	0.66730 0.90950 0.23092 -0.06700
C 	C 	0.58970 0.83190 0.14494 -0.02800
C 	C 	0.53110 0.89220 0.17453 -0.05900
H 	H 	0.46370 0.90680 0.16510 0.03800
H 	H 	0.56230 0.80550 0.11570 0.03200
H 	H 	0.79290 0.82970 0.21160 0.02900
H 	H 	0.69470 0.93660 0.26000 0.04700
C 	C 	0.82810 0.79370 0.09584 -0.11500
C 	C 	0.74510 0.64510 0.12216 -0.00700
C 	C 	0.80330 0.59120 0.08865 -0.02300
H 	H 	0.79610 0.51990 0.08770 0.01300
C 	C 	0.88190 0.73470 0.06299 0.06800
H 	H 	0.93080 0.76610 0.04290 -0.01800
H 	H 	0.69930 0.61020 0.14270 0.02500
H 	H 	0.84070 0.86400 0.09840 0.06200
C 	C 	0.34670 0.22660 0.79857 -0.02500
C 	C 	0.40950 0.16730 0.76908 -0.06600
C 	C 	0.33190 0.08970 0.85506 -0.03100
C 	C 	0.39220 0.03110 0.82547 -0.05200
H 	H 	0.40680 0.96370 0.83490 0.03300
H 	H 	0.30550 0.06230 0.88430 0.03700
H 	H 	0.32970 0.29290 0.78840 0.03000
H 	H 	0.43660 0.19470 0.74000 0.04800
C 	C 	0.29370 0.32810 0.90416 -0.10500
C 	C 	0.14510 0.24510 0.87784 -0.01300
C 	C 	0.09120 0.30330 0.91135 -0.02600
H 	H 	0.01990 0.29610 0.91230 0.01900
C 	C 	0.23470 0.38190 0.93701 0.07000
H 	H 	0.26610 0.43080 0.95710 -0.00500
H 	H 	0.11020 0.19930 0.85730 0.02800
H 	H 	0.36400 0.34070 0.90160 0.06200
C 	C 	0.65330 0.77340 0.79857 -0.01800
C 	C 	0.59050 0.83270 0.76908 -0.07300
C 	C 	0.66810 0.91030 0.85506 -0.01800
C 	C 	0.60780 0.96890 0.82547 -0.07400
H 	H 	0.59320 0.03630 0.83490 0.04400
H 	H 	0.69450 0.93770 0.88430 0.02900
H 	H 	0.67030 0.70710 0.78840 0.02700
H 	H 	0.56340 0.80530 0.74000 0.05000
C 	C 	0.70630 0.67190 0.90416 -0.10600
C 	C 	0.85490 0.75490 0.87784 -0.01200
C 	C 	0.90880 0.69670 0.91135 -0.02600
H 	H 	0.98010 0.70390 0.91230 0.01500
C 	C 	0.76530 0.61810 0.93701 0.07100
H 	H 	0.73390 0.56920 0.95710 -0.00500
H 	H 	0.88980 0.80070 0.85730 0.02600
H 	H 	0.63600 0.65930 0.90160 0.06300
C 	C 	0.72660 0.15330 0.29857 -0.01800
C 	C 	0.66730 0.09050 0.26908 -0.07300
C 	C 	0.58970 0.16810 0.35506 -0.02100
C 	C 	0.53110 0.10780 0.32547 -0.06800
H 	H 	0.46370 0.09320 0.33490 0.03900
H 	H 	0.56230 0.19450 0.38430 0.03000
H 	H 	0.79290 0.17030 0.28840 0.02700
H 	H 	0.69470 0.06340 0.24000 0.05100
C 	C 	0.82810 0.20630 0.40416 -0.11200
C 	C 	0.74510 0.35490 0.37784 -0.01000
C 	C 	0.80330 0.40880 0.41135 -0.02300
H 	H 	0.79610 0.48010 0.41230 0.01300
C 	C 	0.88190 0.26530 0.43701 0.06800
H 	H 	0.93080 0.23390 0.45710 -0.01300
H 	H 	0.69930 0.38980 0.35730 0.02600
H 	H 	0.84070 0.13600 0.40160 0.06300
C 	C 	0.27340 0.84670 0.29857 -0.02400
C 	C 	0.33270 0.90950 0.26908 -0.06700
C 	C 	0.41030 0.83190 0.35506 -0.02800
C 	C 	0.46890 0.89220 0.32547 -0.05900
H 	H 	0.53630 0.90680 0.33490 0.03800
H 	H 	0.43770 0.80550 0.38430 0.03200
H 	H 	0.20710 0.82970 0.28840 0.03000
H 	H 	0.30530 0.93660 0.24000 0.04700
C 	C 	0.17190 0.79370 0.40416 -0.11000
C 	C 	0.25490 0.64510 0.37784 -0.01000
C 	C 	0.19670 0.59120 0.41135 -0.02300
H 	H 	0.20390 0.51990 0.41230 0.01300
C 	C 	0.11810 0.73470 0.43701 0.06700
H 	H 	0.06920 0.76610 0.45710 -0.01200
H 	H 	0.30070 0.61020 0.35730 0.02700
H 	H 	0.15930 0.86400 0.40160 0.06200
C 	C 	0.34670 0.77340 0.29857 -0.01700
C 	C 	0.40950 0.83270 0.26908 -0.07300
C 	C 	0.33190 0.91030 0.35506 -0.01800
C 	C 	0.39220 0.96890 0.32547 -0.07500
H 	H 	0.40680 0.03630 0.33490 0.04400
H 	H 	0.30550 0.93770 0.38430 0.02700
H 	H 	0.32970 0.70710 0.28840 0.02700
H 	H 	0.43660 0.80530 0.24000 0.05000
C 	C 	0.29370 0.67190 0.40416 -0.11100
C 	C 	0.14510 0.75490 0.37784 -0.01000
C 	C 	0.09120 0.69670 0.41135 -0.02300
H 	H 	0.01990 0.70390 0.41230 0.01500
C 	C 	0.23470 0.61810 0.43701 0.06700
H 	H 	0.26610 0.56920 0.45710 -0.01200
H 	H 	0.11020 0.80070 0.35730 0.02700
H 	H 	0.36400 0.65930 0.40160 0.06200
C 	C 	0.65330 0.22660 0.29857 -0.02500
C 	C 	0.59050 0.16730 0.26908 -0.06600
C 	C 	0.66810 0.08970 0.35506 -0.03200
C 	C 	0.60780 0.03110 0.32547 -0.05200
H 	H 	0.59320 0.96370 0.33490 0.03300
H 	H 	0.69450 0.06230 0.38430 0.03500
H 	H 	0.67030 0.29290 0.28840 0.03000
H 	H 	0.56340 0.19470 0.24000 0.04800
C 	C 	0.70630 0.32810 0.40416 -0.11100
C 	C 	0.85490 0.24510 0.37784 -0.00900
C 	C 	0.90880 0.30330 0.41135 -0.02300
H 	H 	0.98010 0.29610 0.41230 0.01100
C 	C 	0.76530 0.38190 0.43701 0.06800
H 	H 	0.73390 0.43080 0.45710 -0.01300
H 	H 	0.88980 0.19930 0.35730 0.02600
H 	H 	0.63600 0.34070 0.40160 0.06200
C 	C 	0.72660 0.84670 0.79857 -0.02400
C 	C 	0.66730 0.90950 0.76908 -0.06700
C 	C 	0.58970 0.83190 0.85506 -0.02800
C 	C 	0.53110 0.89220 0.82547 -0.05900
H 	H 	0.46370 0.90680 0.83490 0.03800
H 	H 	0.56230 0.80550 0.88430 0.03400
H 	H 	0.79290 0.82970 0.78840 0.02900
H 	H 	0.69470 0.93660 0.74000 0.04700
C 	C 	0.82810 0.79370 0.90416 -0.10700
C 	C 	0.74510 0.64510 0.87784 -0.01300
C 	C 	0.80330 0.59120 0.91135 -0.02600
H 	H 	0.79610 0.51990 0.91230 0.01700
C 	C 	0.88190 0.73470 0.93701 0.07200
H 	H 	0.93080 0.76610 0.95710 -0.00700
H 	H 	0.69930 0.61020 0.85730 0.02700
H 	H 	0.84070 0.86400 0.90160 0.06200
C 	C 	0.27340 0.15330 0.79857 -0.01800
C 	C 	0.33270 0.09050 0.76908 -0.07200
C 	C 	0.41030 0.16810 0.85506 -0.02100
C 	C 	0.46890 0.10780 0.82547 -0.06700
H 	H 	0.53630 0.09320 0.83490 0.04000
H 	H 	0.43770 0.19450 0.88430 0.03200
H 	H 	0.20710 0.17030 0.78840 0.02800
H 	H 	0.30530 0.06340 0.74000 0.05100
C 	C 	0.17190 0.20630 0.90416 -0.10500
C 	C 	0.25490 0.35490 0.87784 -0.01300
C 	C 	0.19670 0.40880 0.91135 -0.02600
H 	H 	0.20390 0.48010 0.91230 0.01700
C 	C 	0.11810 0.26530 0.93701 0.07000
H 	H 	0.06920 0.23390 0.95710 -0.00400
H 	H 	0.30070 0.38980 0.85730 0.02700
H 	H 	0.15930 0.13600 0.90160 0.06300
C 	C 	0.65330 0.77340 0.20143 -0.01700
C 	C 	0.59050 0.83270 0.23092 -0.07300
C 	C 	0.66810 0.91030 0.14494 -0.01800
C 	C 	0.60780 0.96890 0.17453 -0.07400
H 	H 	0.59320 0.03630 0.16510 0.04400
H 	H 	0.69450 0.93770 0.11570 0.02700
H 	H 	0.67030 0.70710 0.21160 0.02700
H 	H 	0.56340 0.80530 0.26000 0.05000
C 	C 	0.70630 0.67190 0.09584 -0.11500
C 	C 	0.85490 0.75490 0.12216 -0.00700
C 	C 	0.90880 0.69670 0.08865 -0.02300
H 	H 	0.98010 0.70390 0.08770 0.01100
C 	C 	0.76530 0.61810 0.06299 0.06700
H 	H 	0.73390 0.56920 0.04290 -0.01700
H 	H 	0.88980 0.80070 0.14270 0.02400
H 	H 	0.63600 0.65930 0.09840 0.06200
C 	C 	0.34670 0.22660 0.20143 -0.02500
C 	C 	0.40950 0.16730 0.23092 -0.06600
C 	C 	0.33190 0.08970 0.14494 -0.03200
C 	C 	0.39220 0.03110 0.17453 -0.05200
H 	H 	0.40680 0.96370 0.16510 0.03300
H 	H 	0.30550 0.06230 0.11570 0.03500
H 	H 	0.32970 0.29290 0.21160 0.03000
H 	H 	0.43660 0.19470 0.26000 0.04800
C 	C 	0.29370 0.32810 0.09584 -0.11400
C 	C 	0.14510 0.24510 0.12216 -0.00800
C 	C 	0.09120 0.30330 0.08865 -0.02200
H 	H 	0.01990 0.29610 0.08770 0.01500
C 	C 	0.23470 0.38190 0.06299 0.06700
H 	H 	0.26610 0.43080 0.04290 -0.01700
H 	H 	0.11020 0.19930 0.14270 0.02700
H 	H 	0.36400 0.34070 0.09840 0.06200
C 	C 	0.27340 0.84670 0.70143 -0.02400
C 	C 	0.33270 0.90950 0.73092 -0.06700
C 	C 	0.41030 0.83190 0.64494 -0.02900
C 	C 	0.46890 0.89220 0.67453 -0.05900
H 	H 	0.53630 0.90680 0.66510 0.03800
H 	H 	0.43770 0.80550 0.61570 0.03200
H 	H 	0.20710 0.82970 0.71160 0.02900
H 	H 	0.30530 0.93660 0.76000 0.04700
C 	C 	0.17190 0.79370 0.59584 -0.11000
C 	C 	0.25490 0.64510 0.62216 -0.01000
C 	C 	0.19670 0.59120 0.58865 -0.02300
H 	H 	0.20390 0.51990 0.58770 0.01300
C 	C 	0.11810 0.73470 0.56299 0.06700
H 	H 	0.06920 0.76610 0.54290 -0.01200
H 	H 	0.30070 0.61020 0.64270 0.02600
H 	H 	0.15930 0.86400 0.59840 0.06100
C 	C 	0.72660 0.15330 0.70143 -0.01800
C 	C 	0.66730 0.09050 0.73092 -0.07300
C 	C 	0.58970 0.16810 0.64494 -0.02100
C 	C 	0.53110 0.10780 0.67453 -0.06800
H 	H 	0.46370 0.09320 0.66510 0.03900
H 	H 	0.56230 0.19450 0.61570 0.03000
H 	H 	0.79290 0.17030 0.71160 0.02700
H 	H 	0.69470 0.06340 0.76000 0.05100
C 	C 	0.82810 0.20630 0.59584 -0.11200
C 	C 	0.74510 0.35490 0.62216 -0.01000
C 	C 	0.80330 0.40880 0.58865 -0.02300
H 	H 	0.79610 0.48010 0.58770 0.01300
C 	C 	0.88190 0.26530 0.56299 0.06800
H 	H 	0.93080 0.23390 0.54290 -0.01300
H 	H 	0.69930 0.38980 0.64270 0.02600
H 	H 	0.84070 0.13600 0.59840 0.06300
C 	C 	0.50000 0.00000 0.25000 -0.11300
C 	C 	0.50000 0.00000 0.75000 -0.11300
C 	C 	0.43222 0.06778 0.21761 0.08700
C 	C 	0.24630 0.25370 0.12558 0.05000
C 	C 	0.30921 0.19079 0.15814 -0.00900
N 	N 	0.13326 0.36674 0.05872 -0.23000
C 	C 	0.56778 0.93222 0.21761 0.08800
C 	C 	0.75370 0.74630 0.12558 0.05100
C 	C 	0.69079 0.80921 0.15814 -0.01200
N 	N 	0.86674 0.63326 0.05872 -0.23100
C 	C 	0.56778 0.06778 0.28239 0.08700
C 	C 	0.75370 0.25370 0.37442 0.05000
C 	C 	0.69079 0.19079 0.34186 -0.00900
N 	N 	0.86674 0.36674 0.44128 -0.22900
C 	C 	0.43222 0.93222 0.28239 0.08800
C 	C 	0.24630 0.74630 0.37442 0.05100
C 	C 	0.30921 0.80921 0.34186 -0.01200
N 	N 	0.13326 0.63326 0.44128 -0.22900
C 	C 	0.56778 0.93222 0.78239 0.08800
C 	C 	0.75370 0.74630 0.87442 0.05200
C 	C 	0.69079 0.80921 0.84186 -0.01200
N 	N 	0.86674 0.63326 0.94128 -0.22200
C 	C 	0.43222 0.06778 0.78239 0.08700
C 	C 	0.24630 0.25370 0.87442 0.05100
C 	C 	0.30921 0.19079 0.84186 -0.00900
N 	N 	0.13326 0.36674 0.94128 -0.22200
C 	C 	0.43222 0.93222 0.71761 0.08800
C 	C 	0.24630 0.74630 0.62558 0.05100
C 	C 	0.30921 0.80921 0.65814 -0.01200
N 	N 	0.13326 0.63326 0.55872 -0.22900
C 	C 	0.56778 0.06778 0.71761 0.08700
C 	C 	0.75370 0.25370 0.62558 0.05000
C 	C 	0.69079 0.19079 0.65814 -0.00900
N 	N 	0.86674 0.36674 0.55872 -0.22900
Cu	Cu	0.06618 0.43382 -0.00000 0.78600
Cu	Cu	0.93382 0.56618 -0.00000 0.78500
Cu	Cu	0.93382 0.43382 0.50000 0.79000
Cu	Cu	0.06618 0.56618 0.50000 0.79200
I 	I 	0.12419 0.37581 0.50000 -0.45500
I 	I 	0.87581 0.37581 -0.00000 -0.48200
I 	I 	0.12419 0.62419 -0.00000 -0.47700
I 	I 	0.87581 0.62419 0.50000 -0.46000
