data_crystal

_cell_length_a 9.48100
_cell_length_b 15.12600
_cell_length_c 15.23200
_cell_angle_alpha 64.81500
_cell_angle_beta  78.71700
_cell_angle_gamma 78.97700

_symmetry_space_group_name_	'P 1'
_symmetry_space_group_name_H-M	'P 1'

loop_
_symmetry_equiv_pos_as_xyz
  x,y,z

loop_
_atom_site_label
_atom_site_type_symbol
_atom_site_fract_x
_atom_site_fract_y
_atom_site_fract_z
_atom_site_charge
Co	Co	0.08969 0.39744 0.00843 1.15700
Co	Co	0.59289 0.00726 0.39888 1.16200
Co	Co	0.80015 0.42110 0.18581 1.13200
Co	Co	0.29800 0.18547 0.41906 1.12900
Co	Co	0.24375 0.09128 0.90750 1.06300
S 	S 	0.95950 0.43360 0.80013 0.51100
S 	S 	0.46410 0.79770 0.43538 0.51900
O 	O 	0.08820 0.25850 0.00560 -0.43700
O 	O 	0.03370 0.15340 0.95340 -0.47200
O 	O 	0.03350 0.36590 0.75710 -0.27400
O 	O 	0.05510 0.45470 0.85260 -0.49400
O 	O 	0.88960 0.52170 0.73220 -0.29200
O 	O 	0.38860 0.48490 0.85440 -0.45000
O 	O 	0.31370 0.35730 0.98780 -0.42900
O 	O 	0.54590 0.95370 0.15390 -0.45400
O 	O 	0.59480 0.00370 0.26210 -0.43600
O 	O 	0.55670 0.85290 0.45650 -0.49800
O 	O 	0.54140 0.75540 0.36790 -0.27700
O 	O 	0.39280 0.72860 0.52250 -0.29100
O 	O 	0.89270 0.85400 0.48750 -0.44600
O 	O 	0.81810 0.98760 0.35940 -0.42800
O 	O 	0.87750 0.45410 0.04080 -0.69200
H 	H 	0.80920 0.44500 0.00550 0.17600
O 	O 	0.37770 0.03960 0.45360 -0.69100
H 	H 	0.31080 0.00280 0.44500 0.17500
N 	N 	0.10840 0.33190 0.15680 -0.21300
N 	N 	0.98680 0.32700 0.22450 -0.22500
N 	N 	0.17290 0.23910 0.30410 -0.25600
N 	N 	0.48870 0.22380 0.32620 -0.22200
N 	N 	0.60680 0.15590 0.33210 -0.21100
N 	N 	0.67520 0.30550 0.23880 -0.25400
C 	C 	0.03140 0.27170 0.30970 0.10900
H 	H 	0.97030 0.25660 0.36860 -0.01600
C 	C 	0.21530 0.27800 0.20730 0.11000
H 	H 	0.30990 0.26810 0.17890 -0.01800
C 	C 	0.71630 0.20750 0.27900 0.10300
H 	H 	0.81110 0.17890 0.27070 -0.01400
C 	C 	0.53150 0.31060 0.27090 0.10600
H 	H 	0.46970 0.36940 0.25550 -0.01600
C 	C 	0.85360 0.27900 0.96440 -0.10200
C 	C 	0.82210 0.37030 0.89060 -0.08400
C 	C 	0.67870 0.41220 0.87760 0.00700
H 	H 	0.65890 0.47230 0.82580 0.04700
C 	C 	0.56570 0.36320 0.94290 -0.09300
C 	C 	0.59610 0.27270 0.01940 -0.02600
H 	H 	0.52130 0.24020 0.06380 0.04300
C 	C 	0.73840 0.23160 0.02890 -0.02000
H 	H 	0.75810 0.17070 0.07960 0.02200
C 	C 	0.00330 0.22600 0.97350 0.37700
C 	C 	0.40980 0.40660 0.92650 0.36900
C 	C 	0.35910 0.96060 0.27930 -0.07800
C 	C 	0.32550 0.88730 0.37260 -0.09500
C 	C 	0.18160 0.87780 0.41320 0.01900
H 	H 	0.16030 0.82770 0.47420 0.04200
C 	C 	0.06950 0.94130 0.36470 -0.10300
C 	C 	0.10160 0.01590 0.27400 -0.01500
H 	H 	0.02740 0.05950 0.24070 0.03700
C 	C 	0.24550 0.02510 0.23300 -0.04000
H 	H 	0.26610 0.07630 0.17250 0.02800
C 	C 	0.51230 0.97380 0.22930 0.35300
C 	C 	0.91430 0.92640 0.40790 0.36500
Co	Co	0.91031 0.60256 0.99157 1.15800
Co	Co	0.40711 0.99274 0.60112 1.16300
Co	Co	0.19985 0.57890 0.81419 1.13200
Co	Co	0.70200 0.81453 0.58094 1.12900
Co	Co	0.75625 0.90872 0.09250 1.06300
S 	S 	0.04050 0.56640 0.19987 0.51100
S 	S 	0.53590 0.20230 0.56462 0.51900
O 	O 	0.91180 0.74150 0.99440 -0.43700
O 	O 	0.96630 0.84660 0.04660 -0.47200
O 	O 	0.96650 0.63410 0.24290 -0.27400
O 	O 	0.94490 0.54530 0.14740 -0.49400
O 	O 	0.11040 0.47830 0.26780 -0.29200
O 	O 	0.61140 0.51510 0.14560 -0.45000
O 	O 	0.68630 0.64270 0.01220 -0.42900
O 	O 	0.45410 0.04630 0.84610 -0.45400
O 	O 	0.40520 0.99630 0.73790 -0.43600
O 	O 	0.44330 0.14710 0.54350 -0.49800
O 	O 	0.45860 0.24460 0.63210 -0.27700
O 	O 	0.60720 0.27140 0.47750 -0.29100
O 	O 	0.10730 0.14600 0.51250 -0.44600
O 	O 	0.18190 0.01240 0.64060 -0.42800
O 	O 	0.12250 0.54590 0.95920 -0.69200
H 	H 	0.19080 0.55500 0.99450 0.17600
O 	O 	0.62230 0.96040 0.54640 -0.69100
H 	H 	0.68920 0.99720 0.55500 0.17500
N 	N 	0.89160 0.66810 0.84320 -0.21300
N 	N 	0.01320 0.67300 0.77550 -0.22500
N 	N 	0.82710 0.76090 0.69590 -0.25600
N 	N 	0.51130 0.77620 0.67380 -0.22200
N 	N 	0.39320 0.84410 0.66790 -0.21100
N 	N 	0.32480 0.69450 0.76120 -0.25400
C 	C 	0.96860 0.72830 0.69030 0.10900
H 	H 	0.02970 0.74340 0.63140 -0.01600
C 	C 	0.78470 0.72200 0.79270 0.11000
H 	H 	0.69010 0.73190 0.82110 -0.01800
C 	C 	0.28370 0.79250 0.72100 0.10300
H 	H 	0.18890 0.82110 0.72930 -0.01400
C 	C 	0.46850 0.68940 0.72910 0.10600
H 	H 	0.53030 0.63060 0.74450 -0.01600
C 	C 	0.14640 0.72100 0.03560 -0.10200
C 	C 	0.17790 0.62970 0.10940 -0.08400
C 	C 	0.32130 0.58780 0.12240 0.00700
H 	H 	0.34110 0.52770 0.17420 0.04700
C 	C 	0.43430 0.63680 0.05710 -0.09300
C 	C 	0.40390 0.72730 0.98060 -0.02600
H 	H 	0.47870 0.75980 0.93620 0.04300
C 	C 	0.26160 0.76840 0.97110 -0.02000
H 	H 	0.24190 0.82930 0.92040 0.02200
C 	C 	0.99670 0.77400 0.02650 0.37700
C 	C 	0.59020 0.59340 0.07350 0.36900
C 	C 	0.64090 0.03940 0.72070 -0.07800
C 	C 	0.67450 0.11270 0.62740 -0.09500
C 	C 	0.81840 0.12220 0.58680 0.01900
H 	H 	0.83970 0.17230 0.52580 0.04200
C 	C 	0.93050 0.05870 0.63530 -0.10300
C 	C 	0.89840 0.98410 0.72600 -0.01500
H 	H 	0.97260 0.94050 0.75930 0.03700
C 	C 	0.75450 0.97490 0.76700 -0.04000
H 	H 	0.73390 0.92370 0.82750 0.02800
C 	C 	0.48770 0.02620 0.77070 0.35300
C 	C 	0.08570 0.07360 0.59210 0.36500
