data_crystal

_cell_length_a 23.77730
_cell_length_b 23.77730
_cell_length_c 23.77730
_cell_angle_alpha 90.00000
_cell_angle_beta  90.00000
_cell_angle_gamma 90.00000

_symmetry_space_group_name_	'P 1'
_symmetry_space_group_name_H-M	'P 1'

loop_
_symmetry_equiv_pos_as_xyz
  x,y,z

loop_
_atom_site_label
_atom_site_type_symbol
_atom_site_fract_x
_atom_site_fract_y
_atom_site_fract_z
_atom_site_charge
Co	Co	0.00660 0.55986 0.86587 1.20400
F 	F 	0.99821 0.58925 0.94788 -0.70700
O 	O 	0.06759 0.61959 0.85001 -0.44000
O 	O 	0.93396 0.48137 0.96457 -0.39500
O 	O 	0.93827 0.50866 0.87430 -0.41900
N 	N 	0.02861 0.52006 0.78827 -0.23000
N 	N 	0.12904 0.44663 0.61791 -0.13800
N 	N 	0.94940 0.62347 0.84020 -0.21700
N 	N 	0.79712 0.77029 0.85017 -0.14100
C 	C 	0.91442 0.48498 0.91549 0.37600
C 	C 	0.85791 0.45891 0.90327 -0.11300
C 	C 	0.82630 0.43330 0.94521 0.03800
H 	H 	0.83960 0.43290 0.98200 0.03500
C 	C 	0.77470 0.40810 0.93290 -0.10600
H 	H 	0.75420 0.39120 0.96160 0.06800
C 	C 	0.75360 0.40800 0.87860 0.04100
C 	C 	0.78590 0.43450 0.83620 -0.10500
H 	H 	0.77250 0.43530 0.79950 0.06800
C 	C 	0.83750 0.45940 0.84890 0.03800
H 	H 	0.85840 0.47640 0.82050 0.03000
C 	C 	0.70078 0.37790 0.86340 0.04300
C 	C 	0.66960 0.39390 0.81640 -0.10700
H 	H 	0.68060 0.42550 0.79600 0.06700
C 	C 	0.99710 0.48040 0.76580 0.09500
H 	H 	0.96280 0.47220 0.78270 0.00200
C 	C 	0.01240 0.45020 0.71840 -0.14900
H 	H 	0.98810 0.42370 0.70290 0.09300
C 	C 	0.06365 0.45992 0.69468 0.08000
C 	C 	0.09700 0.50020 0.71770 -0.14300
H 	H 	0.13230 0.50800 0.70260 0.09400
C 	C 	0.07730 0.52930 0.76440 0.09400
H 	H 	0.10020 0.55720 0.77960 0.01300
C 	C 	0.08337 0.42720 0.64384 0.09700
C 	C 	0.95779 0.65970 0.79774 0.08100
H 	H 	0.98800 0.65330 0.77370 0.00700
C 	C 	0.92409 0.70590 0.78770 -0.12900
H 	H 	0.93200 0.73030 0.75810 0.08600
C 	C 	0.87823 0.71513 0.82252 0.06100
C 	C 	0.86890 0.67810 0.86680 -0.12400
H 	H 	0.83890 0.68370 0.89130 0.08600
C 	C 	0.90440 0.63310 0.87400 0.07800
H 	H 	0.89730 0.60810 0.90320 0.01800
C 	C 	0.83979 0.76400 0.81312 0.10300
Co	Co	0.49340 0.44014 0.36587 1.20600
F 	F 	0.50179 0.41075 0.44788 -0.70800
O 	O 	0.43241 0.38041 0.35001 -0.43800
O 	O 	0.56604 0.51863 0.46457 -0.39500
O 	O 	0.56173 0.49134 0.37430 -0.41900
N 	N 	0.47139 0.47994 0.28827 -0.22800
N 	N 	0.37096 0.55337 0.11791 -0.13700
N 	N 	0.55060 0.37653 0.34020 -0.21600
N 	N 	0.70288 0.22971 0.35017 -0.14000
C 	C 	0.58558 0.51502 0.41549 0.37700
C 	C 	0.64209 0.54109 0.40327 -0.11200
C 	C 	0.67370 0.56670 0.44521 0.03900
H 	H 	0.66040 0.56710 0.48200 0.03600
C 	C 	0.72530 0.59190 0.43290 -0.10500
H 	H 	0.74580 0.60880 0.46160 0.06900
C 	C 	0.74640 0.59200 0.37860 0.04200
C 	C 	0.71410 0.56550 0.33620 -0.10400
H 	H 	0.72750 0.56470 0.29950 0.06900
C 	C 	0.66250 0.54060 0.34890 0.03900
H 	H 	0.64160 0.52360 0.32050 0.03100
C 	C 	0.79922 0.62210 0.36340 0.04300
C 	C 	0.83040 0.60610 0.31640 -0.10600
H 	H 	0.81940 0.57450 0.29600 0.06800
C 	C 	0.50290 0.51960 0.26580 0.09200
H 	H 	0.53720 0.52780 0.28270 0.00400
C 	C 	0.48760 0.54980 0.21840 -0.14500
H 	H 	0.51190 0.57630 0.20290 0.09100
C 	C 	0.43635 0.54008 0.19468 0.07800
C 	C 	0.40300 0.49980 0.21770 -0.14200
H 	H 	0.36770 0.49200 0.20260 0.09400
C 	C 	0.42270 0.47070 0.26440 0.09300
H 	H 	0.39980 0.44280 0.27960 0.01300
C 	C 	0.41663 0.57280 0.14384 0.09700
C 	C 	0.54221 0.34030 0.29774 0.08100
H 	H 	0.51200 0.34670 0.27370 0.00600
C 	C 	0.57591 0.29410 0.28770 -0.12900
H 	H 	0.56800 0.26970 0.25810 0.08600
C 	C 	0.62177 0.28487 0.32252 0.06100
C 	C 	0.63110 0.32190 0.36680 -0.12500
H 	H 	0.66110 0.31630 0.39130 0.08600
C 	C 	0.59560 0.36690 0.37400 0.07800
H 	H 	0.60270 0.39190 0.40320 0.01700
C 	C 	0.66021 0.23600 0.31312 0.10300
Co	Co	0.99340 0.05986 0.63413 1.20500
F 	F 	0.00179 0.08925 0.55212 -0.70700
O 	O 	0.93241 0.11959 0.64999 -0.43900
O 	O 	0.06604 0.98137 0.53543 -0.39500
O 	O 	0.06173 0.00866 0.62570 -0.41600
N 	N 	0.97139 0.02006 0.71173 -0.22700
N 	N 	0.87096 0.94663 0.88209 -0.13700
N 	N 	0.05060 0.12347 0.65980 -0.21600
N 	N 	0.20288 0.27029 0.64983 -0.14000
C 	C 	0.08558 0.98498 0.58451 0.37500
C 	C 	0.14209 0.95891 0.59673 -0.11200
C 	C 	0.17370 0.93330 0.55479 0.03800
H 	H 	0.16040 0.93290 0.51800 0.03500
C 	C 	0.22530 0.90810 0.56710 -0.10500
H 	H 	0.24580 0.89120 0.53840 0.06900
C 	C 	0.24640 0.90800 0.62140 0.04200
C 	C 	0.21410 0.93450 0.66380 -0.10400
H 	H 	0.22750 0.93530 0.70050 0.06900
C 	C 	0.16250 0.95940 0.65110 0.03900
H 	H 	0.14160 0.97640 0.67950 0.03000
C 	C 	0.29922 0.87790 0.63660 0.04400
C 	C 	0.33040 0.89390 0.68360 -0.10600
H 	H 	0.31940 0.92550 0.70400 0.06800
C 	C 	0.00290 0.98040 0.73420 0.08200
H 	H 	0.03720 0.97220 0.71730 0.00700
C 	C 	0.98760 0.95020 0.78160 -0.13000
H 	H 	0.01190 0.92370 0.79710 0.08400
C 	C 	0.93635 0.95992 0.80532 0.07600
C 	C 	0.90300 0.00020 0.78230 -0.14400
H 	H 	0.86770 0.00800 0.79740 0.09300
C 	C 	0.92270 0.02930 0.73560 0.09200
H 	H 	0.89980 0.05720 0.72040 0.01300
C 	C 	0.91663 0.92720 0.85616 0.09900
C 	C 	0.04221 0.15970 0.70226 0.08100
H 	H 	0.01200 0.15330 0.72630 0.00600
C 	C 	0.07591 0.20590 0.71230 -0.12900
H 	H 	0.06800 0.23030 0.74190 0.08600
C 	C 	0.12177 0.21513 0.67748 0.06100
C 	C 	0.13110 0.17810 0.63320 -0.12400
H 	H 	0.16110 0.18370 0.60870 0.08600
C 	C 	0.09560 0.13310 0.62600 0.07800
H 	H 	0.10270 0.10810 0.59680 0.01800
C 	C 	0.16021 0.26400 0.68688 0.10300
Co	Co	0.50660 0.94014 0.13413 1.20600
F 	F 	0.49821 0.91075 0.05212 -0.70900
O 	O 	0.56759 0.88041 0.14999 -0.43800
O 	O 	0.43396 0.01863 0.03543 -0.39400
O 	O 	0.43827 0.99134 0.12570 -0.42200
N 	N 	0.52861 0.97994 0.21173 -0.22900
N 	N 	0.62904 0.05337 0.38209 -0.13700
N 	N 	0.44940 0.87653 0.15980 -0.21600
N 	N 	0.29712 0.72971 0.14983 -0.14000
C 	C 	0.41442 0.01502 0.08451 0.38000
C 	C 	0.35791 0.04109 0.09673 -0.11300
C 	C 	0.32630 0.06670 0.05479 0.04000
H 	H 	0.33960 0.06710 0.01800 0.03600
C 	C 	0.27470 0.09190 0.06710 -0.10500
H 	H 	0.25420 0.10880 0.03840 0.07000
C 	C 	0.25360 0.09200 0.12140 0.04300
C 	C 	0.28590 0.06550 0.16380 -0.10400
H 	H 	0.27250 0.06470 0.20050 0.07000
C 	C 	0.33750 0.04060 0.15110 0.04000
H 	H 	0.35840 0.02360 0.17950 0.03100
C 	C 	0.20078 0.12210 0.13660 0.04400
C 	C 	0.16960 0.10610 0.18360 -0.10600
H 	H 	0.18060 0.07450 0.20400 0.06800
C 	C 	0.49710 0.01960 0.23420 0.09500
H 	H 	0.46280 0.02780 0.21730 0.00300
C 	C 	0.51240 0.04980 0.28160 -0.14700
H 	H 	0.48810 0.07630 0.29710 0.09200
C 	C 	0.56365 0.04008 0.30532 0.08000
C 	C 	0.59700 0.99980 0.28230 -0.14500
H 	H 	0.63230 0.99200 0.29740 0.09500
C 	C 	0.57730 0.97070 0.23560 0.09400
H 	H 	0.60020 0.94280 0.22040 0.01300
C 	C 	0.58337 0.07280 0.35616 0.09700
C 	C 	0.45779 0.84030 0.20226 0.08100
H 	H 	0.48800 0.84670 0.22630 0.00600
C 	C 	0.42409 0.79410 0.21230 -0.12900
H 	H 	0.43200 0.76970 0.24190 0.08600
C 	C 	0.37823 0.78487 0.17748 0.06100
C 	C 	0.36890 0.82190 0.13320 -0.12500
H 	H 	0.33890 0.81630 0.10870 0.08600
C 	C 	0.40440 0.86690 0.12600 0.07800
H 	H 	0.39730 0.89190 0.09680 0.01700
C 	C 	0.33979 0.73600 0.18688 0.10300
Co	Co	0.86587 0.00660 0.55986 1.20500
F 	F 	0.94788 0.99821 0.58925 -0.70600
O 	O 	0.85001 0.06759 0.61959 -0.43900
O 	O 	0.96457 0.93396 0.48137 -0.39400
O 	O 	0.87430 0.93827 0.50866 -0.41800
N 	N 	0.78827 0.02861 0.52006 -0.22900
N 	N 	0.61791 0.12904 0.44663 -0.13700
N 	N 	0.84020 0.94940 0.62347 -0.21600
N 	N 	0.85017 0.79712 0.77029 -0.14000
C 	C 	0.91549 0.91442 0.48498 0.37700
C 	C 	0.90327 0.85791 0.45891 -0.11200
C 	C 	0.94521 0.82630 0.43330 0.03900
H 	H 	0.98200 0.83960 0.43290 0.03600
C 	C 	0.93290 0.77470 0.40810 -0.10500
H 	H 	0.96160 0.75420 0.39120 0.06900
C 	C 	0.87860 0.75360 0.40800 0.04200
C 	C 	0.83620 0.78590 0.43450 -0.10400
H 	H 	0.79950 0.77250 0.43530 0.06900
C 	C 	0.84890 0.83750 0.45940 0.03900
H 	H 	0.82050 0.85840 0.47640 0.03100
C 	C 	0.86340 0.70078 0.37790 0.04400
C 	C 	0.81640 0.66960 0.39390 -0.10600
H 	H 	0.79600 0.68060 0.42550 0.06800
C 	C 	0.76580 0.99710 0.48040 0.09600
H 	H 	0.78270 0.96280 0.47220 0.00300
C 	C 	0.71840 0.01240 0.45020 -0.14900
H 	H 	0.70290 0.98810 0.42370 0.09300
C 	C 	0.69468 0.06365 0.45992 0.08000
C 	C 	0.71770 0.09700 0.50020 -0.14300
H 	H 	0.70260 0.13230 0.50800 0.09400
C 	C 	0.76440 0.07730 0.52930 0.09400
H 	H 	0.77960 0.10020 0.55720 0.01300
C 	C 	0.64384 0.08337 0.42720 0.09700
C 	C 	0.79774 0.95779 0.65970 0.08100
H 	H 	0.77370 0.98800 0.65330 0.00700
C 	C 	0.78770 0.92409 0.70590 -0.12900
H 	H 	0.75810 0.93200 0.73030 0.08600
C 	C 	0.82252 0.87823 0.71513 0.06100
C 	C 	0.86680 0.86890 0.67810 -0.12400
H 	H 	0.89130 0.83890 0.68370 0.08600
C 	C 	0.87400 0.90440 0.63310 0.07800
H 	H 	0.90320 0.89730 0.60810 0.01800
C 	C 	0.81312 0.83979 0.76400 0.10300
Co	Co	0.36587 0.49340 0.44014 1.20600
F 	F 	0.44788 0.50179 0.41075 -0.70800
O 	O 	0.35001 0.43241 0.38041 -0.43800
O 	O 	0.46457 0.56604 0.51863 -0.39500
O 	O 	0.37430 0.56173 0.49134 -0.41900
N 	N 	0.28827 0.47139 0.47994 -0.22800
N 	N 	0.11791 0.37096 0.55337 -0.13700
N 	N 	0.34020 0.55060 0.37653 -0.21600
N 	N 	0.35017 0.70288 0.22971 -0.14000
C 	C 	0.41549 0.58558 0.51502 0.37700
C 	C 	0.40327 0.64209 0.54109 -0.11200
C 	C 	0.44521 0.67370 0.56670 0.03900
H 	H 	0.48200 0.66040 0.56710 0.03600
C 	C 	0.43290 0.72530 0.59190 -0.10500
H 	H 	0.46160 0.74580 0.60880 0.06900
C 	C 	0.37860 0.74640 0.59200 0.04200
C 	C 	0.33620 0.71410 0.56550 -0.10400
H 	H 	0.29950 0.72750 0.56470 0.06900
C 	C 	0.34890 0.66250 0.54060 0.03900
H 	H 	0.32050 0.64160 0.52360 0.03100
C 	C 	0.36340 0.79922 0.62210 0.04300
C 	C 	0.31640 0.83040 0.60610 -0.10600
H 	H 	0.29600 0.81940 0.57450 0.06800
C 	C 	0.26580 0.50290 0.51960 0.09200
H 	H 	0.28270 0.53720 0.52780 0.00400
C 	C 	0.21840 0.48760 0.54980 -0.14500
H 	H 	0.20290 0.51190 0.57630 0.09100
C 	C 	0.19468 0.43635 0.54008 0.07800
C 	C 	0.21770 0.40300 0.49980 -0.14200
H 	H 	0.20260 0.36770 0.49200 0.09400
C 	C 	0.26440 0.42270 0.47070 0.09300
H 	H 	0.27960 0.39980 0.44280 0.01300
C 	C 	0.14384 0.41663 0.57280 0.09700
C 	C 	0.29774 0.54221 0.34030 0.08100
H 	H 	0.27370 0.51200 0.34670 0.00600
C 	C 	0.28770 0.57591 0.29410 -0.12900
H 	H 	0.25810 0.56800 0.26970 0.08600
C 	C 	0.32252 0.62177 0.28487 0.06100
C 	C 	0.36680 0.63110 0.32190 -0.12500
H 	H 	0.39130 0.66110 0.31630 0.08600
C 	C 	0.37400 0.59560 0.36690 0.07800
H 	H 	0.40320 0.60270 0.39190 0.01700
C 	C 	0.31312 0.66021 0.23600 0.10300
Co	Co	0.63413 0.99340 0.05986 1.20500
F 	F 	0.55212 0.00179 0.08925 -0.70700
O 	O 	0.64999 0.93241 0.11959 -0.43900
O 	O 	0.53543 0.06604 0.98137 -0.39500
O 	O 	0.62570 0.06173 0.00866 -0.41600
N 	N 	0.71173 0.97139 0.02006 -0.22700
N 	N 	0.88209 0.87096 0.94663 -0.13700
N 	N 	0.65980 0.05060 0.12347 -0.21600
N 	N 	0.64983 0.20288 0.27029 -0.14000
C 	C 	0.58451 0.08558 0.98498 0.37500
C 	C 	0.59673 0.14209 0.95891 -0.11200
C 	C 	0.55479 0.17370 0.93330 0.03800
H 	H 	0.51800 0.16040 0.93290 0.03500
C 	C 	0.56710 0.22530 0.90810 -0.10500
H 	H 	0.53840 0.24580 0.89120 0.06900
C 	C 	0.62140 0.24640 0.90800 0.04200
C 	C 	0.66380 0.21410 0.93450 -0.10400
H 	H 	0.70050 0.22750 0.93530 0.06900
C 	C 	0.65110 0.16250 0.95940 0.03900
H 	H 	0.67950 0.14160 0.97640 0.03000
C 	C 	0.63660 0.29922 0.87790 0.04400
C 	C 	0.68360 0.33040 0.89390 -0.10600
H 	H 	0.70400 0.31940 0.92550 0.06800
C 	C 	0.73420 0.00290 0.98040 0.08200
H 	H 	0.71730 0.03720 0.97220 0.00700
C 	C 	0.78160 0.98760 0.95020 -0.13000
H 	H 	0.79710 0.01190 0.92370 0.08400
C 	C 	0.80532 0.93635 0.95992 0.07600
C 	C 	0.78230 0.90300 0.00020 -0.14400
H 	H 	0.79740 0.86770 0.00800 0.09300
C 	C 	0.73560 0.92270 0.02930 0.09200
H 	H 	0.72040 0.89980 0.05720 0.01300
C 	C 	0.85616 0.91663 0.92720 0.09900
C 	C 	0.70226 0.04221 0.15970 0.08100
H 	H 	0.72630 0.01200 0.15330 0.00600
C 	C 	0.71230 0.07591 0.20590 -0.12900
H 	H 	0.74190 0.06800 0.23030 0.08600
C 	C 	0.67748 0.12177 0.21513 0.06100
C 	C 	0.63320 0.13110 0.17810 -0.12400
H 	H 	0.60870 0.16110 0.18370 0.08600
C 	C 	0.62600 0.09560 0.13310 0.07800
H 	H 	0.59680 0.10270 0.10810 0.01800
C 	C 	0.68688 0.16021 0.26400 0.10300
Co	Co	0.13413 0.50660 0.94014 1.20600
F 	F 	0.05212 0.49821 0.91075 -0.70900
O 	O 	0.14999 0.56759 0.88041 -0.43800
O 	O 	0.03543 0.43396 0.01863 -0.39400
O 	O 	0.12570 0.43827 0.99134 -0.42200
N 	N 	0.21173 0.52861 0.97994 -0.22900
N 	N 	0.38209 0.62904 0.05337 -0.13700
N 	N 	0.15980 0.44940 0.87653 -0.21600
N 	N 	0.14983 0.29712 0.72971 -0.14000
C 	C 	0.08451 0.41442 0.01502 0.38000
C 	C 	0.09673 0.35791 0.04109 -0.11300
C 	C 	0.05479 0.32630 0.06670 0.04000
H 	H 	0.01800 0.33960 0.06710 0.03600
C 	C 	0.06710 0.27470 0.09190 -0.10500
H 	H 	0.03840 0.25420 0.10880 0.07000
C 	C 	0.12140 0.25360 0.09200 0.04300
C 	C 	0.16380 0.28590 0.06550 -0.10400
H 	H 	0.20050 0.27250 0.06470 0.07000
C 	C 	0.15110 0.33750 0.04060 0.04000
H 	H 	0.17950 0.35840 0.02360 0.03100
C 	C 	0.13660 0.20078 0.12210 0.04400
C 	C 	0.18360 0.16960 0.10610 -0.10600
H 	H 	0.20400 0.18060 0.07450 0.06800
C 	C 	0.23420 0.49710 0.01960 0.09500
H 	H 	0.21730 0.46280 0.02780 0.00300
C 	C 	0.28160 0.51240 0.04980 -0.14700
H 	H 	0.29710 0.48810 0.07630 0.09200
C 	C 	0.30532 0.56365 0.04008 0.08000
C 	C 	0.28230 0.59700 0.99980 -0.14500
H 	H 	0.29740 0.63230 0.99200 0.09500
C 	C 	0.23560 0.57730 0.97070 0.09400
H 	H 	0.22040 0.60020 0.94280 0.01300
C 	C 	0.35616 0.58337 0.07280 0.09700
C 	C 	0.20226 0.45779 0.84030 0.08100
H 	H 	0.22630 0.48800 0.84670 0.00600
C 	C 	0.21230 0.42409 0.79410 -0.12900
H 	H 	0.24190 0.43200 0.76970 0.08600
C 	C 	0.17748 0.37823 0.78487 0.06100
C 	C 	0.13320 0.36890 0.82190 -0.12500
H 	H 	0.10870 0.33890 0.81630 0.08600
C 	C 	0.12600 0.40440 0.86690 0.07800
H 	H 	0.09680 0.39730 0.89190 0.01700
C 	C 	0.18688 0.33979 0.73600 0.10300
Co	Co	0.55986 0.86587 0.00660 1.20500
F 	F 	0.58925 0.94788 0.99821 -0.70600
O 	O 	0.61959 0.85001 0.06759 -0.43900
O 	O 	0.48137 0.96457 0.93396 -0.39400
O 	O 	0.50866 0.87430 0.93827 -0.41800
N 	N 	0.52006 0.78827 0.02861 -0.22900
N 	N 	0.44663 0.61791 0.12904 -0.13700
N 	N 	0.62347 0.84020 0.94940 -0.21600
N 	N 	0.77029 0.85017 0.79712 -0.14000
C 	C 	0.48498 0.91549 0.91442 0.37700
C 	C 	0.45891 0.90327 0.85791 -0.11200
C 	C 	0.43330 0.94521 0.82630 0.03900
H 	H 	0.43290 0.98200 0.83960 0.03600
C 	C 	0.40810 0.93290 0.77470 -0.10500
H 	H 	0.39120 0.96160 0.75420 0.06900
C 	C 	0.40800 0.87860 0.75360 0.04200
C 	C 	0.43450 0.83620 0.78590 -0.10400
H 	H 	0.43530 0.79950 0.77250 0.06900
C 	C 	0.45940 0.84890 0.83750 0.03900
H 	H 	0.47640 0.82050 0.85840 0.03100
C 	C 	0.37790 0.86340 0.70078 0.04400
C 	C 	0.39390 0.81640 0.66960 -0.10600
H 	H 	0.42550 0.79600 0.68060 0.06800
C 	C 	0.48040 0.76580 0.99710 0.09600
H 	H 	0.47220 0.78270 0.96280 0.00300
C 	C 	0.45020 0.71840 0.01240 -0.14900
H 	H 	0.42370 0.70290 0.98810 0.09300
C 	C 	0.45992 0.69468 0.06365 0.08000
C 	C 	0.50020 0.71770 0.09700 -0.14300
H 	H 	0.50800 0.70260 0.13230 0.09400
C 	C 	0.52930 0.76440 0.07730 0.09400
H 	H 	0.55720 0.77960 0.10020 0.01300
C 	C 	0.42720 0.64384 0.08337 0.09700
C 	C 	0.65970 0.79774 0.95779 0.08100
H 	H 	0.65330 0.77370 0.98800 0.00700
C 	C 	0.70590 0.78770 0.92409 -0.12900
H 	H 	0.73030 0.75810 0.93200 0.08600
C 	C 	0.71513 0.82252 0.87823 0.06100
C 	C 	0.67810 0.86680 0.86890 -0.12400
H 	H 	0.68370 0.89130 0.83890 0.08600
C 	C 	0.63310 0.87400 0.90440 0.07800
H 	H 	0.60810 0.90320 0.89730 0.01800
C 	C 	0.76400 0.81312 0.83979 0.10300
Co	Co	0.44014 0.36587 0.49340 1.20600
F 	F 	0.41075 0.44788 0.50179 -0.70800
O 	O 	0.38041 0.35001 0.43241 -0.43800
O 	O 	0.51863 0.46457 0.56604 -0.39500
O 	O 	0.49134 0.37430 0.56173 -0.41900
N 	N 	0.47994 0.28827 0.47139 -0.22800
N 	N 	0.55337 0.11791 0.37096 -0.13700
N 	N 	0.37653 0.34020 0.55060 -0.21600
N 	N 	0.22971 0.35017 0.70288 -0.14000
C 	C 	0.51502 0.41549 0.58558 0.37700
C 	C 	0.54109 0.40327 0.64209 -0.11200
C 	C 	0.56670 0.44521 0.67370 0.03900
H 	H 	0.56710 0.48200 0.66040 0.03600
C 	C 	0.59190 0.43290 0.72530 -0.10500
H 	H 	0.60880 0.46160 0.74580 0.06900
C 	C 	0.59200 0.37860 0.74640 0.04200
C 	C 	0.56550 0.33620 0.71410 -0.10400
H 	H 	0.56470 0.29950 0.72750 0.06900
C 	C 	0.54060 0.34890 0.66250 0.03900
H 	H 	0.52360 0.32050 0.64160 0.03100
C 	C 	0.62210 0.36340 0.79922 0.04300
C 	C 	0.60610 0.31640 0.83040 -0.10600
H 	H 	0.57450 0.29600 0.81940 0.06800
C 	C 	0.51960 0.26580 0.50290 0.09200
H 	H 	0.52780 0.28270 0.53720 0.00400
C 	C 	0.54980 0.21840 0.48760 -0.14500
H 	H 	0.57630 0.20290 0.51190 0.09100
C 	C 	0.54008 0.19468 0.43635 0.07800
C 	C 	0.49980 0.21770 0.40300 -0.14200
H 	H 	0.49200 0.20260 0.36770 0.09400
C 	C 	0.47070 0.26440 0.42270 0.09300
H 	H 	0.44280 0.27960 0.39980 0.01300
C 	C 	0.57280 0.14384 0.41663 0.09700
C 	C 	0.34030 0.29774 0.54221 0.08100
H 	H 	0.34670 0.27370 0.51200 0.00600
C 	C 	0.29410 0.28770 0.57591 -0.12900
H 	H 	0.26970 0.25810 0.56800 0.08600
C 	C 	0.28487 0.32252 0.62177 0.06100
C 	C 	0.32190 0.36680 0.63110 -0.12500
H 	H 	0.31630 0.39130 0.66110 0.08600
C 	C 	0.36690 0.37400 0.59560 0.07800
H 	H 	0.39190 0.40320 0.60270 0.01700
C 	C 	0.23600 0.31312 0.66021 0.10300
Co	Co	0.05986 0.63413 0.99340 1.20500
F 	F 	0.08925 0.55212 0.00179 -0.70700
O 	O 	0.11959 0.64999 0.93241 -0.43900
O 	O 	0.98137 0.53543 0.06604 -0.39500
O 	O 	0.00866 0.62570 0.06173 -0.41600
N 	N 	0.02006 0.71173 0.97139 -0.22700
N 	N 	0.94663 0.88209 0.87096 -0.13700
N 	N 	0.12347 0.65980 0.05060 -0.21600
N 	N 	0.27029 0.64983 0.20288 -0.14000
C 	C 	0.98498 0.58451 0.08558 0.37500
C 	C 	0.95891 0.59673 0.14209 -0.11200
C 	C 	0.93330 0.55479 0.17370 0.03800
H 	H 	0.93290 0.51800 0.16040 0.03500
C 	C 	0.90810 0.56710 0.22530 -0.10500
H 	H 	0.89120 0.53840 0.24580 0.06900
C 	C 	0.90800 0.62140 0.24640 0.04200
C 	C 	0.93450 0.66380 0.21410 -0.10400
H 	H 	0.93530 0.70050 0.22750 0.06900
C 	C 	0.95940 0.65110 0.16250 0.03900
H 	H 	0.97640 0.67950 0.14160 0.03000
C 	C 	0.87790 0.63660 0.29922 0.04400
C 	C 	0.89390 0.68360 0.33040 -0.10600
H 	H 	0.92550 0.70400 0.31940 0.06800
C 	C 	0.98040 0.73420 0.00290 0.08200
H 	H 	0.97220 0.71730 0.03720 0.00700
C 	C 	0.95020 0.78160 0.98760 -0.13000
H 	H 	0.92370 0.79710 0.01190 0.08400
C 	C 	0.95992 0.80532 0.93635 0.07600
C 	C 	0.00020 0.78230 0.90300 -0.14400
H 	H 	0.00800 0.79740 0.86770 0.09300
C 	C 	0.02930 0.73560 0.92270 0.09200
H 	H 	0.05720 0.72040 0.89980 0.01300
C 	C 	0.92720 0.85616 0.91663 0.09900
C 	C 	0.15970 0.70226 0.04221 0.08100
H 	H 	0.15330 0.72630 0.01200 0.00600
C 	C 	0.20590 0.71230 0.07591 -0.12900
H 	H 	0.23030 0.74190 0.06800 0.08600
C 	C 	0.21513 0.67748 0.12177 0.06100
C 	C 	0.17810 0.63320 0.13110 -0.12400
H 	H 	0.18370 0.60870 0.16110 0.08600
C 	C 	0.13310 0.62600 0.09560 0.07800
H 	H 	0.10810 0.59680 0.10270 0.01800
C 	C 	0.26400 0.68688 0.16021 0.10300
Co	Co	0.94014 0.13413 0.50660 1.20600
F 	F 	0.91075 0.05212 0.49821 -0.70900
O 	O 	0.88041 0.14999 0.56759 -0.43800
O 	O 	0.01863 0.03543 0.43396 -0.39400
O 	O 	0.99134 0.12570 0.43827 -0.42200
N 	N 	0.97994 0.21173 0.52861 -0.22900
N 	N 	0.05337 0.38209 0.62904 -0.13700
N 	N 	0.87653 0.15980 0.44940 -0.21600
N 	N 	0.72971 0.14983 0.29712 -0.14000
C 	C 	0.01502 0.08451 0.41442 0.38000
C 	C 	0.04109 0.09673 0.35791 -0.11300
C 	C 	0.06670 0.05479 0.32630 0.04000
H 	H 	0.06710 0.01800 0.33960 0.03600
C 	C 	0.09190 0.06710 0.27470 -0.10500
H 	H 	0.10880 0.03840 0.25420 0.07000
C 	C 	0.09200 0.12140 0.25360 0.04300
C 	C 	0.06550 0.16380 0.28590 -0.10400
H 	H 	0.06470 0.20050 0.27250 0.07000
C 	C 	0.04060 0.15110 0.33750 0.04000
H 	H 	0.02360 0.17950 0.35840 0.03100
C 	C 	0.12210 0.13660 0.20078 0.04400
C 	C 	0.10610 0.18360 0.16960 -0.10600
H 	H 	0.07450 0.20400 0.18060 0.06800
C 	C 	0.01960 0.23420 0.49710 0.09500
H 	H 	0.02780 0.21730 0.46280 0.00300
C 	C 	0.04980 0.28160 0.51240 -0.14700
H 	H 	0.07630 0.29710 0.48810 0.09200
C 	C 	0.04008 0.30532 0.56365 0.08000
C 	C 	0.99980 0.28230 0.59700 -0.14500
H 	H 	0.99200 0.29740 0.63230 0.09500
C 	C 	0.97070 0.23560 0.57730 0.09400
H 	H 	0.94280 0.22040 0.60020 0.01300
C 	C 	0.07280 0.35616 0.58337 0.09700
C 	C 	0.84030 0.20226 0.45779 0.08100
H 	H 	0.84670 0.22630 0.48800 0.00600
C 	C 	0.79410 0.21230 0.42409 -0.12900
H 	H 	0.76970 0.24190 0.43200 0.08600
C 	C 	0.78487 0.17748 0.37823 0.06100
C 	C 	0.82190 0.13320 0.36890 -0.12500
H 	H 	0.81630 0.10870 0.33890 0.08600
C 	C 	0.86690 0.12600 0.40440 0.07800
H 	H 	0.89190 0.09680 0.39730 0.01700
C 	C 	0.73600 0.18688 0.33979 0.10300
Co	Co	0.01127 0.51127 0.98873 1.23000
S 	S 	0.12508 0.62508 0.87492 0.68900
O 	O 	0.16031 0.66031 0.83969 -0.27200
Co	Co	0.48873 0.48873 0.48873 1.23100
S 	S 	0.37492 0.37492 0.37492 0.68900
O 	O 	0.33969 0.33969 0.33969 -0.27200
Co	Co	0.98873 0.01127 0.51127 1.23000
S 	S 	0.87492 0.12508 0.62508 0.68900
O 	O 	0.83969 0.16031 0.66031 -0.27200
Co	Co	0.51127 0.98873 0.01127 1.23000
S 	S 	0.62508 0.87492 0.12508 0.68900
O 	O 	0.66031 0.83969 0.16031 -0.27200
