data_crystal

_cell_length_a 10.24800
_cell_length_b 11.71500
_cell_length_c 15.15900
_cell_angle_alpha 91.81000
_cell_angle_beta  90.00000
_cell_angle_gamma 90.00000

_symmetry_space_group_name_	'P 1'
_symmetry_space_group_name_H-M	'P 1'

loop_
_symmetry_equiv_pos_as_xyz
  x,y,z

loop_
_atom_site_label
_atom_site_type_symbol
_atom_site_fract_x
_atom_site_fract_y
_atom_site_fract_z
_atom_site_charge
Mn	Mn	0.92306 0.24309 0.86786 1.34900
Mn	Mn	0.11206 0.26155 0.69035 1.29700
Mn	Mn	0.42306 0.25691 0.63214 1.30200
Mn	Mn	0.61206 0.23845 0.80965 1.31500
Mn	Mn	0.07694 0.75691 0.13214 1.25500
Mn	Mn	0.88794 0.73845 0.30965 1.33800
Mn	Mn	0.57694 0.74309 0.36786 1.30800
Mn	Mn	0.38794 0.76155 0.19035 1.31900
Mn	Mn	-0.00000 0.50000 -0.00000 1.22300
Mn	Mn	0.50000 0.00000 0.50000 1.29700
Mn	Mn	-0.00000 0.00000 -0.00000 1.19600
Mn	Mn	0.50000 0.50000 0.50000 1.32700
H 	H 	0.04290 0.51930 0.74260 -0.14000
H 	H 	0.71090 0.00020 0.97380 -0.08800
H 	H 	0.20720 0.03220 0.78200 -0.10800
H 	H 	0.76460 0.14830 0.63240 -0.12500
H 	H 	0.13810 0.30230 0.07860 -0.09100
H 	H 	0.62530 0.44690 0.94580 -0.07800
H 	H 	0.54290 0.98070 0.75740 0.04700
H 	H 	0.21090 0.49980 0.52620 -0.13100
H 	H 	0.70720 0.46780 0.71800 -0.11300
H 	H 	0.26460 0.35170 0.86760 -0.09700
H 	H 	0.63810 0.19770 0.42140 -0.12500
H 	H 	0.12530 0.05310 0.55420 -0.17500
H 	H 	0.95710 0.48070 0.25740 -0.09700
H 	H 	0.28910 0.99980 0.02620 -0.12600
H 	H 	0.79280 0.96780 0.21800 -0.15100
H 	H 	0.23540 0.85170 0.36760 -0.12300
H 	H 	0.86190 0.69770 0.92140 -0.12000
H 	H 	0.37470 0.55310 0.05420 -0.15000
H 	H 	0.45710 0.01930 0.24260 -0.29000
H 	H 	0.78910 0.50020 0.47380 -0.09100
H 	H 	0.29280 0.53220 0.28200 -0.16000
H 	H 	0.73540 0.64830 0.13240 -0.14600
H 	H 	0.36190 0.80230 0.57860 -0.10600
H 	H 	0.87470 0.94690 0.44580 -0.05700
C 	C 	0.02420 0.47960 0.79410 0.54400
C 	C 	0.72760 0.06250 0.93780 0.48700
C 	C 	0.14100 0.05620 0.82130 0.38500
C 	C 	0.83190 0.17650 0.66910 0.49700
C 	C 	0.09090 0.25820 0.03670 0.30500
C 	C 	0.71420 0.42760 0.94170 0.48800
C 	C 	0.52420 0.02040 0.70590 0.22300
C 	C 	0.22760 0.43750 0.56220 0.51900
C 	C 	0.64100 0.44380 0.67870 0.53000
C 	C 	0.33190 0.32350 0.83090 0.49800
C 	C 	0.59090 0.24180 0.46330 0.53300
C 	C 	0.21420 0.07240 0.55830 0.52800
C 	C 	0.97580 0.52040 0.20590 0.52200
C 	C 	0.27240 0.93750 0.06220 0.51700
C 	C 	0.85900 0.94380 0.17870 0.65000
C 	C 	0.16810 0.82350 0.33090 0.51800
C 	C 	0.90910 0.74180 0.96330 0.68100
C 	C 	0.28580 0.57240 0.05830 0.52300
C 	C 	0.47580 0.97960 0.29410 0.85400
C 	C 	0.77240 0.56250 0.43780 0.49700
C 	C 	0.35900 0.55620 0.32130 0.53800
C 	C 	0.66810 0.67650 0.16910 0.51500
C 	C 	0.40910 0.75820 0.53670 0.52100
C 	C 	0.78580 0.92760 0.44170 0.49000
O 	O 	0.08450 0.14960 0.80496 -0.59600
O 	O 	0.01180 0.37240 0.78529 -0.64600
O 	O 	0.80450 0.19390 0.75047 -0.56000
O 	O 	0.02540 0.31250 0.98059 -0.48400
O 	O 	0.74460 0.34400 0.88975 -0.55400
O 	O 	0.93860 0.19330 0.63431 -0.40100
O 	O 	0.84460 0.09800 0.93512 -0.51400
O 	O 	0.79120 0.48520 0.98700 -0.35400
O 	O 	0.63380 0.10180 0.89787 -0.45500
O 	O 	0.09890 0.15460 0.04190 -0.51300
O 	O 	0.01440 0.53650 0.86213 -0.47900
O 	O 	0.11820 0.99400 0.88280 -0.33600
O 	O 	0.58450 0.35040 0.69504 -0.59100
O 	O 	0.51180 0.12760 0.71471 -0.52600
O 	O 	0.30450 0.30610 0.74953 -0.57600
O 	O 	0.52540 0.18750 0.51941 -0.60200
O 	O 	0.24460 0.15600 0.61025 -0.61700
O 	O 	0.43860 0.30670 0.86569 -0.44100
O 	O 	0.34460 0.40200 0.56488 -0.59600
O 	O 	0.29120 0.01480 0.51300 -0.50700
O 	O 	0.13380 0.39820 0.60213 -0.49900
O 	O 	0.59890 0.34540 0.45810 -0.47500
O 	O 	0.51440 0.96350 0.63787 -0.31400
O 	O 	0.61820 0.50600 0.61720 -0.45700
O 	O 	0.91550 0.85040 0.19504 -0.57400
O 	O 	0.98820 0.62760 0.21471 -0.54000
O 	O 	0.19550 0.80610 0.24953 -0.60300
O 	O 	0.97460 0.68750 0.01941 -0.63100
O 	O 	0.25540 0.65600 0.11025 -0.62600
O 	O 	0.06140 0.80670 0.36569 -0.53100
O 	O 	0.15540 0.90200 0.06488 -0.63200
O 	O 	0.20880 0.51480 0.01300 -0.53500
O 	O 	0.36620 0.89820 0.10213 -0.46800
O 	O 	0.90110 0.84540 0.95810 -0.38700
O 	O 	0.98560 0.46350 0.13787 -0.42200
O 	O 	0.88180 0.00600 0.11720 -0.54200
O 	O 	0.41550 0.64960 0.30496 -0.59800
O 	O 	0.48820 0.87240 0.28529 -0.67100
O 	O 	0.69550 0.69390 0.25047 -0.58400
O 	O 	0.47460 0.81250 0.48059 -0.57400
O 	O 	0.75540 0.84400 0.38975 -0.56400
O 	O 	0.56140 0.69330 0.13431 -0.48700
O 	O 	0.65540 0.59800 0.43512 -0.58200
O 	O 	0.70880 0.98520 0.48700 -0.39600
O 	O 	0.86620 0.60180 0.39787 -0.42700
O 	O 	0.40110 0.65460 0.54190 -0.47000
O 	O 	0.48560 0.03650 0.36213 -0.62400
O 	O 	0.38180 0.49400 0.38280 -0.48700
