data_crystal

_cell_length_a 14.69050
_cell_length_b 8.04720
_cell_length_c 15.86880
_cell_angle_alpha 90.00000
_cell_angle_beta  112.92900
_cell_angle_gamma 90.00000

_symmetry_space_group_name_	'P 1'
_symmetry_space_group_name_H-M	'P 1'

loop_
_symmetry_equiv_pos_as_xyz
  x,y,z

loop_
_atom_site_label
_atom_site_type_symbol
_atom_site_fract_x
_atom_site_fract_y
_atom_site_fract_z
_atom_site_charge
P 	P 	0.51646 0.39359 0.39624 0.57400
H 	H 	0.54300 0.26900 0.35440 -0.02300
P 	P 	0.35225 0.15057 0.62141 0.58800
H 	H 	0.40900 0.00600 0.64840 -0.01400
Be	Be	0.36160 0.36810 0.47140 1.48100
O 	O 	0.60778 0.44980 0.47698 -0.54100
O 	O 	0.43775 0.32150 0.42348 -0.54100
O 	O 	0.47610 0.52660 0.32434 -0.57700
O 	O 	0.24836 0.10640 0.60813 -0.54100
O 	O 	0.40071 0.25320 0.70613 -0.55300
O 	O 	0.36486 0.21900 0.53872 -0.60100
P 	P 	0.01646 0.89359 0.39624 0.40200
H 	H 	0.04300 0.76900 0.35440 -0.03500
P 	P 	0.85225 0.65057 0.62141 0.59100
H 	H 	0.90900 0.50600 0.64840 0.01200
Be	Be	0.86160 0.86810 0.47140 1.48100
O 	O 	0.10778 0.94980 0.47698 -0.54000
O 	O 	0.93775 0.82150 0.42348 -0.44400
O 	O 	0.97610 0.02660 0.32434 -0.45700
O 	O 	0.74836 0.60640 0.60813 -0.53200
O 	O 	0.90071 0.75320 0.70613 -0.51300
O 	O 	0.86486 0.71900 0.53872 -0.58100
P 	P 	0.48354 0.39359 0.10376 0.57300
H 	H 	0.45700 0.26900 0.14560 -0.02400
P 	P 	0.64775 0.15057 0.87859 0.58800
H 	H 	0.59100 0.00600 0.85160 -0.01400
Be	Be	0.63840 0.36810 0.02860 1.48100
O 	O 	0.39222 0.44980 0.02302 -0.54100
O 	O 	0.56225 0.32150 0.07652 -0.53600
O 	O 	0.52390 0.52660 0.17566 -0.57400
O 	O 	0.75164 0.10640 0.89187 -0.53400
O 	O 	0.59929 0.25320 0.79387 -0.54900
O 	O 	0.63514 0.21900 0.96128 -0.60400
P 	P 	0.98354 0.89359 0.10376 0.74300
H 	H 	0.95700 0.76900 0.14560 -0.01300
P 	P 	0.14775 0.65057 0.87859 0.58500
H 	H 	0.09100 0.50600 0.85160 -0.03800
Be	Be	0.13840 0.86810 0.02860 1.48100
O 	O 	0.89222 0.94980 0.02302 -0.54300
O 	O 	0.06225 0.82150 0.07652 -0.63300
O 	O 	0.02390 0.02660 0.17566 -0.68900
O 	O 	0.25164 0.60640 0.89187 -0.54100
O 	O 	0.09929 0.75320 0.79387 -0.58500
O 	O 	0.13514 0.71900 0.96128 -0.62200
P 	P 	0.48354 0.60641 0.60376 0.57300
H 	H 	0.45700 0.73100 0.64560 -0.02500
P 	P 	0.64775 0.84943 0.37859 0.58800
H 	H 	0.59100 0.99400 0.35160 -0.01300
Be	Be	0.63840 0.63190 0.52860 1.48100
O 	O 	0.39222 0.55020 0.52302 -0.54500
O 	O 	0.56225 0.67850 0.57652 -0.53900
O 	O 	0.52390 0.47340 0.67566 -0.57500
O 	O 	0.75164 0.89360 0.39187 -0.53100
O 	O 	0.59929 0.74680 0.29387 -0.54800
O 	O 	0.63514 0.78100 0.46128 -0.60000
P 	P 	0.98354 0.10641 0.60376 0.74300
H 	H 	0.95700 0.23100 0.64560 -0.01400
P 	P 	0.14775 0.34943 0.37859 0.58500
H 	H 	0.09100 0.49400 0.35160 -0.03800
Be	Be	0.13840 0.13190 0.52860 1.48100
O 	O 	0.89222 0.05020 0.52302 -0.54500
O 	O 	0.06225 0.17850 0.57652 -0.63600
O 	O 	0.02390 0.97340 0.67566 -0.69000
O 	O 	0.25164 0.39360 0.39187 -0.53900
O 	O 	0.09929 0.24680 0.29387 -0.58500
O 	O 	0.13514 0.28100 0.46128 -0.62000
P 	P 	0.51646 0.60641 0.89624 0.57300
H 	H 	0.54300 0.73100 0.85440 -0.02400
P 	P 	0.35225 0.84943 0.12141 0.58800
H 	H 	0.40900 0.99400 0.14840 -0.01400
Be	Be	0.36160 0.63190 0.97140 1.48000
O 	O 	0.60778 0.55020 0.97698 -0.54500
O 	O 	0.43775 0.67850 0.92348 -0.54300
O 	O 	0.47610 0.47340 0.82434 -0.57800
O 	O 	0.24836 0.89360 0.10813 -0.53900
O 	O 	0.40071 0.74680 0.20613 -0.55200
O 	O 	0.36486 0.78100 0.03872 -0.59800
P 	P 	0.01646 0.10641 0.89624 0.40600
H 	H 	0.04300 0.23100 0.85440 -0.03500
P 	P 	0.85225 0.34943 0.12141 0.59100
H 	H 	0.90900 0.49400 0.14840 0.01300
Be	Be	0.86160 0.13190 0.97140 1.48000
O 	O 	0.10778 0.05020 0.97698 -0.54400
O 	O 	0.93775 0.17850 0.92348 -0.45000
O 	O 	0.97610 0.97340 0.82434 -0.46100
O 	O 	0.74836 0.39360 0.10813 -0.52900
O 	O 	0.90071 0.24680 0.20613 -0.51200
O 	O 	0.86486 0.28100 0.03872 -0.57600
Be	Be	0.50000 0.63410 0.25000 1.48100
Be	Be	0.00000 0.13410 0.25000 1.47600
Be	Be	0.50000 0.36590 0.75000 1.48100
Be	Be	0.00000 0.86590 0.75000 1.47600
