data_crystal

_cell_length_a 13.64400
_cell_length_b 13.64400
_cell_length_c 26.60900
_cell_angle_alpha 99.28860
_cell_angle_beta  99.28860
_cell_angle_gamma 104.46400

_symmetry_space_group_name_	'P 1'
_symmetry_space_group_name_H-M	'P 1'

loop_
_symmetry_equiv_pos_as_xyz
  x,y,z

loop_
_atom_site_label
_atom_site_type_symbol
_atom_site_fract_x
_atom_site_fract_y
_atom_site_fract_z
_atom_site_charge
Co	Co	0.42232 0.46084 0.55695 1.17500
Co	Co	0.53916 0.57768 0.94305 1.18000
Co	Co	0.57768 0.53916 0.44305 1.17600
Co	Co	0.46084 0.42232 0.05695 1.17100
Co	Co	0.50000 0.00000 -0.00000 1.10200
Co	Co	-0.00000 0.50000 0.50000 1.11100
H 	H 	0.18880 0.28360 0.43730 -0.04900
H 	H 	0.06000 0.17420 0.36980 0.16800
H 	H 	0.19680 0.30820 0.26780 0.17600
H 	H 	0.32160 0.42100 0.33570 -0.04300
H 	H 	0.94650 0.08390 0.30790 0.00100
H 	H 	0.32210 0.60130 0.49700 -0.01400
H 	H 	0.33210 0.77070 0.50000 0.11200
H 	H 	0.51070 0.98630 0.59380 0.08900
H 	H 	0.55070 0.84430 0.63010 0.12500
H 	H 	0.53010 0.67210 0.62450 -0.02000
H 	H 	0.55230 0.32250 0.59800 0.00000
H 	H 	0.54800 0.15140 0.59150 0.08900
H 	H 	0.34500 0.93620 0.51460 0.05200
H 	H 	0.27150 0.07510 0.49910 0.08700
H 	H 	0.28420 0.24740 0.50710 0.00300
H 	H 	0.11390 0.35150 0.61080 -0.03000
H 	H 	0.01350 0.30770 0.66840 0.14900
H 	H 	0.24720 0.47240 0.78540 0.15700
H 	H 	0.34960 0.50360 0.72790 -0.02300
H 	H 	0.74640 0.27360 0.84700 0.14700
H 	H 	0.65960 0.20060 0.90680 -0.01300
H 	H 	0.89190 0.08650 0.95240 -0.01500
H 	H 	0.97860 0.15520 0.89310 0.15400
H 	H 	0.34780 0.79680 0.93050 -0.00900
H 	H 	0.47560 0.05360 0.89080 -0.03300
H 	H 	0.39840 0.98520 0.80560 0.11800
H 	H 	0.27640 0.72000 0.84500 0.10400
H 	H 	0.31470 0.82790 0.73530 0.07400
H 	H 	0.05280 0.23880 0.83630 -0.02400
H 	H 	0.96410 0.14110 0.80410 -0.02700
H 	H 	0.04980 0.20560 0.74580 0.08100
H 	H 	0.94410 0.23330 0.73670 0.10500
H 	H 	0.71640 0.81120 0.06270 -0.05000
H 	H 	0.82580 0.94000 0.13020 0.17800
H 	H 	0.69180 0.80320 0.23220 0.17800
H 	H 	0.57900 0.67840 0.16430 -0.04200
H 	H 	0.91610 0.05350 0.19210 0.01900
H 	H 	0.39870 0.67790 0.00300 -0.03000
H 	H 	0.22930 0.66790 -0.00000 0.07500
H 	H 	0.01370 0.48930 0.90620 0.05600
H 	H 	0.15570 0.44930 0.86990 0.11300
H 	H 	0.32790 0.46990 0.87550 -0.01400
H 	H 	0.67750 0.44770 0.90200 -0.00600
H 	H 	0.84860 0.45200 0.90850 0.11100
H 	H 	0.06380 0.65500 0.98540 0.08500
H 	H 	0.92490 0.72850 0.00090 0.07900
H 	H 	0.75260 0.71580 0.99290 0.01400
H 	H 	0.64850 0.88610 0.88920 -0.02600
H 	H 	0.69230 0.98650 0.83160 0.16700
H 	H 	0.52760 0.75280 0.71460 0.16400
H 	H 	0.49640 0.65040 0.77210 -0.02700
H 	H 	0.72640 0.25360 0.65300 0.13800
H 	H 	0.79940 0.34040 0.59320 -0.00800
H 	H 	0.91350 0.10810 0.54760 -0.01300
H 	H 	0.84480 0.02140 0.60690 0.13500
H 	H 	0.20320 0.65220 0.56950 -0.00800
H 	H 	0.94640 0.52440 0.60920 0.01400
H 	H 	0.01480 0.60160 0.69440 0.09000
H 	H 	0.28000 0.72360 0.65500 0.09500
H 	H 	0.17210 0.68530 0.76470 0.06000
H 	H 	0.76120 0.94720 0.66370 0.05500
H 	H 	0.85890 0.03590 0.69590 0.03300
H 	H 	0.79440 0.95020 0.75420 0.03200
H 	H 	0.76670 0.05590 0.76330 0.03000
H 	H 	0.81120 0.71640 0.56270 -0.04300
H 	H 	0.94000 0.82580 0.63020 0.17800
H 	H 	0.80320 0.69180 0.73220 0.17700
H 	H 	0.67840 0.57900 0.66430 -0.04000
H 	H 	0.05350 0.91610 0.69210 0.01900
H 	H 	0.67790 0.39870 0.50300 -0.00900
H 	H 	0.66790 0.22930 0.50000 0.10000
H 	H 	0.48930 0.01370 0.40620 0.05500
H 	H 	0.44930 0.15570 0.36990 0.11400
H 	H 	0.46990 0.32790 0.37550 -0.01500
H 	H 	0.44770 0.67750 0.40200 -0.01000
H 	H 	0.45200 0.84860 0.40850 0.11600
H 	H 	0.65500 0.06380 0.48540 0.08200
H 	H 	0.72850 0.92490 0.50090 0.11800
H 	H 	0.71580 0.75260 0.49290 -0.00400
H 	H 	0.88610 0.64850 0.38920 -0.02700
H 	H 	0.98650 0.69230 0.33160 0.16800
H 	H 	0.75280 0.52760 0.21460 0.16400
H 	H 	0.65040 0.49640 0.27210 -0.02700
H 	H 	0.25360 0.72640 0.15300 0.13900
H 	H 	0.34040 0.79940 0.09320 -0.00900
H 	H 	0.10810 0.91350 0.04760 -0.01700
H 	H 	0.02140 0.84480 0.10690 0.13400
H 	H 	0.65220 0.20320 0.06950 -0.01100
H 	H 	0.52440 0.94640 0.10920 0.01400
H 	H 	0.60160 0.01480 0.19440 0.09000
H 	H 	0.72360 0.28000 0.15500 0.09500
H 	H 	0.68530 0.17210 0.26470 0.05900
H 	H 	0.94720 0.76120 0.16370 0.05600
H 	H 	0.03590 0.85890 0.19590 0.03400
H 	H 	0.95020 0.79440 0.25420 0.03000
H 	H 	0.05590 0.76670 0.26330 0.02800
H 	H 	0.28360 0.18880 0.93730 -0.04100
H 	H 	0.17420 0.06000 0.86980 0.16800
H 	H 	0.30820 0.19680 0.76780 0.17400
H 	H 	0.42100 0.32160 0.83570 -0.04100
H 	H 	0.08390 0.94650 0.80790 0.00200
H 	H 	0.60130 0.32210 0.99700 0.02400
H 	H 	0.77070 0.33210 -0.00000 0.08600
H 	H 	0.98630 0.51070 0.09380 0.07600
H 	H 	0.84430 0.55070 0.13010 0.11600
H 	H 	0.67210 0.53010 0.12450 -0.01500
H 	H 	0.32250 0.55230 0.09800 -0.00600
H 	H 	0.15140 0.54800 0.09150 0.09900
H 	H 	0.93620 0.34500 0.01460 0.05900
H 	H 	0.07510 0.27150 0.99910 0.13100
H 	H 	0.24740 0.28420 0.00710 -0.01800
H 	H 	0.35150 0.11390 0.11080 -0.03100
H 	H 	0.30770 0.01350 0.16840 0.15000
H 	H 	0.47240 0.24720 0.28540 0.15800
H 	H 	0.50360 0.34960 0.22790 -0.02300
H 	H 	0.27360 0.74640 0.34700 0.14700
H 	H 	0.20060 0.65960 0.40680 -0.01500
H 	H 	0.08650 0.89190 0.45240 -0.02000
H 	H 	0.15520 0.97860 0.39310 0.15400
H 	H 	0.79680 0.34780 0.43050 -0.01300
H 	H 	0.05360 0.47560 0.39080 -0.03700
H 	H 	0.98520 0.39840 0.30560 0.12000
H 	H 	0.72000 0.27640 0.34500 0.10500
H 	H 	0.82790 0.31470 0.23530 0.07500
H 	H 	0.23880 0.05280 0.33630 -0.02500
H 	H 	0.14110 0.96410 0.30410 -0.02700
H 	H 	0.20560 0.04980 0.24580 0.08000
H 	H 	0.23330 0.94410 0.23670 0.10500
C 	C 	0.33860 0.22840 0.52540 0.10200
C 	C 	0.33050 0.12390 0.52000 -0.16800
C 	C 	0.49370 0.27210 0.57780 0.10300
C 	C 	0.49130 0.16830 0.57390 -0.16700
C 	C 	0.40770 0.09150 0.54510 0.10400
C 	C 	0.35500 0.43180 0.43610 0.46700
C 	C 	0.26790 0.36330 0.39280 -0.30200
C 	C 	0.19030 0.28950 0.40310 0.26100
C 	C 	0.11380 0.22320 0.36260 -0.39400
C 	C 	0.11720 0.22960 0.31300 0.38200
C 	C 	0.19450 0.30330 0.30210 -0.37700
C 	C 	0.26920 0.37020 0.34280 0.26000
C 	C 	0.96360 0.09520 0.27650 0.11700
C 	C 	0.36870 0.65090 0.52420 0.12100
C 	C 	0.37480 0.75280 0.52570 -0.20900
C 	C 	0.44370 0.82970 0.56500 0.16700
C 	C 	0.45580 0.94100 0.56860 -0.12800
C 	C 	0.50320 0.79660 0.60260 -0.22400
C 	C 	0.49080 0.69280 0.59852 0.13100
C 	C 	0.39830 0.98170 0.54060 -0.04100
C 	C 	0.31350 0.44950 0.62570 0.36500
C 	C 	0.24560 0.43120 0.66267 -0.23800
C 	C 	0.14220 0.37340 0.64640 0.20900
C 	C 	0.08180 0.34800 0.68040 -0.32900
C 	C 	0.12140 0.38200 0.73290 0.31000
C 	C 	0.22120 0.44440 0.75010 -0.32800
C 	C 	0.28080 0.46480 0.71550 0.21500
C 	C 	0.87080 0.21760 0.86460 0.31600
C 	C 	0.77480 0.23480 0.86780 -0.29400
C 	C 	0.72370 0.19110 0.90380 0.16100
C 	C 	0.76650 0.13410 0.93490 -0.21800
C 	C 	0.86170 0.12290 0.93080 0.18700
C 	C 	0.91410 0.16410 0.89550 -0.32900
C 	C 	0.70760 0.08000 0.97060 0.38100
C 	C 	0.35960 0.83520 0.90510 0.11600
C 	C 	0.43310 0.98570 0.88178 0.15100
C 	C 	0.38840 0.94440 0.83020 -0.21300
C 	C 	0.32850 0.84290 0.81470 0.15900
C 	C 	0.31560 0.78900 0.85360 -0.19600
C 	C 	0.28280 0.79660 0.75930 -0.10700
C 	C 	0.98900 0.21600 0.81000 0.20100
C 	C 	0.00930 0.24670 0.76120 -0.15100
C 	C 	0.77160 0.66140 0.97460 0.10500
C 	C 	0.87610 0.66950 0.98000 -0.15600
C 	C 	0.72790 0.50630 0.92220 0.12500
C 	C 	0.83170 0.50870 0.92610 -0.20000
C 	C 	0.90850 0.59230 0.95490 0.17000
C 	C 	0.56820 0.64500 0.06390 0.46900
C 	C 	0.63670 0.73210 0.10720 -0.30300
C 	C 	0.71050 0.80970 0.09690 0.26200
C 	C 	0.77680 0.88620 0.13740 -0.38800
C 	C 	0.77040 0.88280 0.18700 0.37800
C 	C 	0.69670 0.80550 0.19790 -0.37100
C 	C 	0.62980 0.73080 0.15720 0.26000
C 	C 	0.90480 0.03640 0.22350 0.05600
C 	C 	0.34910 0.63130 0.97580 0.13200
C 	C 	0.24720 0.62520 0.97430 -0.15200
C 	C 	0.17030 0.55630 0.93500 0.12000
C 	C 	0.05900 0.54420 0.93140 -0.05600
C 	C 	0.20340 0.49680 0.89740 -0.19300
C 	C 	0.30720 0.50920 0.90148 0.11500
C 	C 	0.01830 0.60170 0.95940 -0.13300
C 	C 	0.55050 0.68650 0.87430 0.36700
C 	C 	0.56880 0.75440 0.83733 -0.24400
C 	C 	0.62660 0.85780 0.85360 0.22200
C 	C 	0.65200 0.91820 0.81960 -0.34300
C 	C 	0.61800 0.87860 0.76710 0.33300
C 	C 	0.55560 0.77880 0.74990 -0.34300
C 	C 	0.53520 0.71920 0.78450 0.22700
C 	C 	0.78240 0.12920 0.63540 0.28200
C 	C 	0.76520 0.22520 0.63220 -0.27400
C 	C 	0.80890 0.27630 0.59620 0.14700
C 	C 	0.86590 0.23350 0.56510 -0.20700
C 	C 	0.87710 0.13830 0.56920 0.16800
C 	C 	0.83590 0.08590 0.60450 -0.30600
C 	C 	0.92000 0.29240 0.52940 0.37700
C 	C 	0.16480 0.64040 0.59490 0.09800
C 	C 	0.01430 0.56690 0.61822 0.06800
C 	C 	0.05560 0.61160 0.66980 -0.15900
C 	C 	0.15710 0.67150 0.68530 0.12000
C 	C 	0.21100 0.68440 0.64640 -0.17000
C 	C 	0.20340 0.71720 0.74070 -0.07100
C 	C 	0.78400 0.01100 0.69000 -0.00900
C 	C 	0.75330 0.99070 0.73880 0.04400
C 	C 	0.66140 0.77160 0.47460 0.13400
C 	C 	0.66950 0.87610 0.48000 -0.22300
C 	C 	0.50630 0.72790 0.42220 0.13400
C 	C 	0.50870 0.83170 0.42610 -0.22100
C 	C 	0.59230 0.90850 0.45490 0.19600
C 	C 	0.64500 0.56820 0.56390 0.46500
C 	C 	0.73210 0.63670 0.60720 -0.29700
C 	C 	0.80970 0.71050 0.59690 0.25800
C 	C 	0.88620 0.77680 0.63740 -0.38300
C 	C 	0.88280 0.77040 0.68700 0.37600
C 	C 	0.80550 0.69670 0.69790 -0.36800
C 	C 	0.73080 0.62980 0.65720 0.25600
C 	C 	0.03640 0.90480 0.72350 0.05600
C 	C 	0.63130 0.34910 0.47580 0.10700
C 	C 	0.62520 0.24720 0.47430 -0.18200
C 	C 	0.55630 0.17030 0.43500 0.12600
C 	C 	0.54420 0.05900 0.43140 -0.05700
C 	C 	0.49680 0.20340 0.39740 -0.19800
C 	C 	0.50920 0.30720 0.40148 0.11700
C 	C 	0.60170 0.01830 0.45940 -0.14800
C 	C 	0.68650 0.55050 0.37430 0.36900
C 	C 	0.75440 0.56880 0.33733 -0.24600
C 	C 	0.85780 0.62660 0.35360 0.22400
C 	C 	0.91820 0.65200 0.31960 -0.34500
C 	C 	0.87860 0.61800 0.26710 0.33400
C 	C 	0.77880 0.55560 0.24990 -0.34500
C 	C 	0.71920 0.53520 0.28450 0.22900
C 	C 	0.12920 0.78240 0.13540 0.28200
C 	C 	0.22520 0.76520 0.13220 -0.27600
C 	C 	0.27630 0.80890 0.09620 0.14900
C 	C 	0.23350 0.86590 0.06510 -0.21100
C 	C 	0.13830 0.87710 0.06920 0.17000
C 	C 	0.08590 0.83590 0.10450 -0.30800
C 	C 	0.29240 0.92000 0.02940 0.37800
C 	C 	0.64040 0.16480 0.09490 0.09700
C 	C 	0.56690 0.01430 0.11822 0.06700
C 	C 	0.61160 0.05560 0.16980 -0.15900
C 	C 	0.67150 0.15710 0.18530 0.12000
C 	C 	0.68440 0.21100 0.14640 -0.17000
C 	C 	0.71720 0.20340 0.24070 -0.07000
C 	C 	0.01100 0.78400 0.19000 -0.01300
C 	C 	0.99070 0.75330 0.23880 0.04900
C 	C 	0.22840 0.33860 0.02540 0.13700
C 	C 	0.12390 0.33050 0.02000 -0.24600
C 	C 	0.27210 0.49370 0.07780 0.11800
C 	C 	0.16830 0.49130 0.07390 -0.19800
C 	C 	0.09150 0.40770 0.04510 0.14800
C 	C 	0.43180 0.35500 0.93610 0.46200
C 	C 	0.36330 0.26790 0.89280 -0.29600
C 	C 	0.28950 0.19030 0.90310 0.25600
C 	C 	0.22320 0.11380 0.86260 -0.38900
C 	C 	0.22960 0.11720 0.81300 0.37900
C 	C 	0.30330 0.19450 0.80210 -0.37300
C 	C 	0.37020 0.26920 0.84280 0.25600
C 	C 	0.09520 0.96360 0.77650 0.11500
C 	C 	0.65090 0.36870 0.02420 0.05400
C 	C 	0.75280 0.37480 0.02570 -0.16400
C 	C 	0.82970 0.44370 0.06500 0.13100
C 	C 	0.94100 0.45580 0.06860 -0.09400
C 	C 	0.79660 0.50320 0.10260 -0.20000
C 	C 	0.69280 0.49080 0.09852 0.11600
C 	C 	0.98170 0.39830 0.04060 -0.08400
C 	C 	0.44950 0.31350 0.12570 0.36700
C 	C 	0.43120 0.24560 0.16267 -0.23900
C 	C 	0.37340 0.14220 0.14640 0.21100
C 	C 	0.34800 0.08180 0.18040 -0.33100
C 	C 	0.38200 0.12140 0.23290 0.31100
C 	C 	0.44440 0.22120 0.25010 -0.32900
C 	C 	0.46480 0.28080 0.21550 0.21600
C 	C 	0.21760 0.87080 0.36460 0.31700
C 	C 	0.23480 0.77480 0.36780 -0.29700
C 	C 	0.19110 0.72370 0.40380 0.16200
C 	C 	0.13410 0.76650 0.43490 -0.22500
C 	C 	0.12290 0.86170 0.43080 0.19000
C 	C 	0.16410 0.91410 0.39550 -0.33300
C 	C 	0.08000 0.70760 0.47060 0.38200
C 	C 	0.83520 0.35960 0.40510 0.11600
C 	C 	0.98570 0.43310 0.38178 0.15700
C 	C 	0.94440 0.38840 0.33020 -0.21700
C 	C 	0.84290 0.32850 0.31470 0.16100
C 	C 	0.78900 0.31560 0.35360 -0.19800
C 	C 	0.79660 0.28280 0.25930 -0.10900
C 	C 	0.21600 0.98900 0.31000 0.20100
C 	C 	0.24670 0.00930 0.26120 -0.15100
N 	N 	0.41825 0.30275 0.55446 -0.23300
N 	N 	0.42679 0.61981 0.56004 -0.25300
N 	N 	0.41934 0.93406 0.91962 -0.24800
N 	N 	0.69725 0.58175 0.94554 -0.23400
N 	N 	0.38019 0.57321 0.93996 -0.24800
N 	N 	0.06594 0.58066 0.58038 -0.24100
N 	N 	0.58175 0.69725 0.44554 -0.24500
N 	N 	0.57321 0.38019 0.43996 -0.24700
N 	N 	0.58066 0.06594 0.08038 -0.24400
N 	N 	0.30275 0.41825 0.05446 -0.24600
N 	N 	0.61981 0.42679 0.06004 -0.24100
N 	N 	0.93406 0.41934 0.41962 -0.25300
O 	O 	0.35312 0.41504 0.48074 -0.47800
O 	O 	0.42327 0.49965 0.42456 -0.47600
O 	O 	0.04540 0.16720 0.27064 -0.31300
O 	O 	0.27406 0.43088 0.57758 -0.39700
O 	O 	0.40937 0.48203 0.64149 -0.37000
O 	O 	0.91770 0.25830 0.82720 -0.28400
O 	O 	0.06650 0.35870 0.77093 -0.22000
O 	O 	0.74730 0.02510 0.99459 -0.29400
O 	O 	0.61923 0.09357 0.97223 -0.42400
O 	O 	0.58496 0.64688 0.01926 -0.48900
O 	O 	0.50035 0.57673 0.07544 -0.47900
O 	O 	0.83280 0.95460 0.22936 -0.27300
O 	O 	0.56912 0.72594 0.92242 -0.38900
O 	O 	0.51797 0.59063 0.85851 -0.37000
O 	O 	0.74170 0.08230 0.67280 -0.24200
O 	O 	0.64130 0.93350 0.72907 -0.25000
O 	O 	0.97490 0.25270 0.50541 -0.29400
O 	O 	0.90643 0.38077 0.52777 -0.42600
O 	O 	0.64688 0.58496 0.51926 -0.47600
O 	O 	0.57673 0.50035 0.57544 -0.47600
O 	O 	0.95460 0.83280 0.72936 -0.27200
O 	O 	0.72594 0.56912 0.42242 -0.39400
O 	O 	0.59063 0.51797 0.35851 -0.37100
O 	O 	0.08230 0.74170 0.17280 -0.24200
O 	O 	0.93350 0.64130 0.22907 -0.25100
O 	O 	0.25270 0.97490 0.00541 -0.30300
O 	O 	0.38077 0.90643 0.02777 -0.43100
O 	O 	0.41504 0.35312 0.98074 -0.46400
O 	O 	0.49965 0.42327 0.92456 -0.47200
O 	O 	0.16720 0.04540 0.77064 -0.31100
O 	O 	0.43088 0.27406 0.07758 -0.40100
O 	O 	0.48203 0.40937 0.14149 -0.37100
O 	O 	0.25830 0.91770 0.32720 -0.28500
O 	O 	0.35870 0.06650 0.27093 -0.22000
O 	O 	0.02510 0.74730 0.49459 -0.30500
O 	O 	0.09357 0.61923 0.47223 -0.43500
