data_crystal

_cell_length_a 32.07910
_cell_length_b 11.90480
_cell_length_c 37.73840
_cell_angle_alpha 90.00000
_cell_angle_beta  99.26900
_cell_angle_gamma 90.00000

_symmetry_space_group_name_	'P 1'
_symmetry_space_group_name_H-M	'P 1'

loop_
_symmetry_equiv_pos_as_xyz
  x,y,z

loop_
_atom_site_label
_atom_site_type_symbol
_atom_site_fract_x
_atom_site_fract_y
_atom_site_fract_z
_atom_site_charge
Bi	Bi	0.24682 0.31581 0.30493 1.88100
C 	C 	0.00540 0.84440 0.04282 -0.03200
C 	C 	0.96580 0.81100 0.04341 -0.03800
C 	C 	0.09720 0.93050 0.11265 -0.03100
H 	H 	0.12480 0.90270 0.12120 0.05500
C 	C 	0.07160 0.87500 0.08532 -0.07200
H 	H 	0.08220 0.81000 0.07520 0.06000
C 	C 	0.03093 0.91110 0.07220 0.04200
C 	C 	0.01765 0.00790 0.08723 -0.07900
H 	H 	0.99010 0.03580 0.07860 0.06100
C 	C 	0.04265 0.06520 0.11405 -0.02300
H 	H 	0.03240 0.13200 0.12340 0.03700
C 	C 	0.08298 0.02670 0.12775 -0.01900
C 	C 	0.11016 0.08430 0.15757 0.07300
C 	C 	0.10490 0.19980 0.16524 -0.13300
H 	H 	0.08370 0.24250 0.15060 0.07200
C 	C 	0.13007 0.24980 0.19343 0.06400
H 	H 	0.12590 0.32710 0.19820 0.00600
C 	C 	0.16146 0.19100 0.21531 -0.14200
C 	C 	0.16750 0.07820 0.20805 0.05700
H 	H 	0.18920 0.03720 0.22270 -0.01000
C 	C 	0.14240 0.02540 0.17990 -0.14200
H 	H 	0.14680 0.94810 0.17550 0.06800
C 	C 	0.18801 0.24550 0.24639 0.35200
O 	O 	0.21919 0.18980 0.26345 -0.50200
O 	O 	0.17970 0.34290 0.25607 -0.46300
C 	C 	0.06070 0.68150 0.97659 -0.03100
H 	H 	0.06460 0.60580 0.96980 0.03900
C 	C 	0.03549 0.70470 0.00230 -0.07800
H 	H 	0.02210 0.64470 0.01270 0.05900
C 	C 	0.02945 0.81370 0.01312 0.04000
C 	C 	0.04977 0.89960 0.99723 -0.07700
H 	H 	0.04670 0.97520 0.00450 0.05800
C 	C 	0.07409 0.87660 0.97141 -0.03000
H 	H 	0.08700 0.93660 0.96070 0.04100
C 	C 	0.08018 0.76710 0.96069 -0.01600
C 	C 	0.10841 0.74430 0.93364 0.05800
C 	C 	0.14040 0.66510 0.94055 -0.10700
H 	H 	0.14290 0.62040 0.96170 0.06500
C 	C 	0.16870 0.65080 0.91663 0.02900
H 	H 	0.19110 0.59810 0.92170 0.03300
C 	C 	0.16425 0.71360 0.88536 -0.09900
C 	C 	0.13190 0.78880 0.87783 0.03200
H 	H 	0.12840 0.83010 0.85600 0.03500
C 	C 	0.10400 0.80500 0.90194 -0.11100
H 	H 	0.08180 0.85820 0.89670 0.06800
C 	C 	0.19598 0.69960 0.86018 0.31500
O 	O 	0.18944 0.74840 0.83032 -0.44500
O 	O 	0.22821 0.64090 0.86965 -0.40200
C 	C 	0.89270 0.59520 0.99357 -0.02000
H 	H 	0.87610 0.53430 0.99970 0.03300
C 	C 	0.91570 0.65790 0.02025 -0.08700
H 	H 	0.91490 0.63950 0.04460 0.06100
C 	C 	0.94031 0.74780 0.01238 0.04800
C 	C 	0.93914 0.77550 0.97668 -0.08400
H 	H 	0.95460 0.83870 0.97060 0.06200
C 	C 	0.91580 0.71270 0.94963 -0.01900
H 	H 	0.91530 0.73370 0.92530 0.03600
C 	C 	0.89320 0.61980 0.95761 -0.02500
C 	C 	0.87013 0.54330 0.92937 0.07000
C 	C 	0.86990 0.42870 0.93579 -0.12300
H 	H 	0.88440 0.40000 0.95790 0.07200
C 	C 	0.84910 0.35560 0.91064 0.04600
H 	H 	0.84990 0.27710 0.91530 0.02800
C 	C 	0.82704 0.39630 0.87828 -0.12000
C 	C 	0.82710 0.51060 0.87189 0.04900
H 	H 	0.81230 0.53920 0.84990 0.00500
C 	C 	0.84860 0.58450 0.89707 -0.12700
H 	H 	0.84840 0.66280 0.89220 0.07100
C 	C 	0.80424 0.31340 0.85284 0.31900
O 	O 	0.77451 0.35030 0.82851 -0.48200
O 	O 	0.81351 0.21170 0.85521 -0.40000
C 	C 	0.94192 0.81740 0.13902 -0.02200
H 	H 	0.95620 0.80310 0.16270 0.03600
C 	C 	0.96362 0.80530 0.11007 -0.08400
H 	H 	0.99210 0.78000 0.11420 0.06200
C 	C 	0.94429 0.82960 0.07532 0.04700
C 	C 	0.90225 0.86090 0.07000 -0.08700
H 	H 	0.88820 0.87520 0.04630 0.06100
C 	C 	0.88000 0.87200 0.09885 -0.02300
H 	H 	0.85120 0.89470 0.09450 0.03800
C 	C 	0.89970 0.85020 0.13391 -0.02600
C 	C 	0.87560 0.85500 0.16413 0.07300
C 	C 	0.84250 0.93010 0.16404 -0.12500
H 	H 	0.83670 0.98330 0.14510 0.07800
C 	C 	0.81760 0.92920 0.19097 0.05500
H 	H 	0.79560 0.98260 0.19070 0.03000
C 	C 	0.82512 0.85020 0.21826 -0.13800
C 	C 	0.85897 0.77690 0.21919 0.04800
H 	H 	0.86540 0.72550 0.23860 -0.00100
C 	C 	0.88350 0.77820 0.19204 -0.13200
H 	H 	0.90590 0.72580 0.19260 0.06800
C 	C 	0.79653 0.84280 0.24614 0.34900
O 	O 	0.80682 0.77710 0.27230 -0.48800
O 	O 	0.76394 0.90130 0.24245 -0.46900
K 	K 	0.20417 0.55108 0.23411 0.63800
Bi	Bi	0.74682 0.81581 0.30493 1.88000
C 	C 	0.50540 0.34440 0.04282 -0.03300
C 	C 	0.46580 0.31100 0.04341 -0.03900
C 	C 	0.59720 0.43050 0.11265 -0.03300
H 	H 	0.62480 0.40270 0.12120 0.05400
C 	C 	0.57160 0.37500 0.08532 -0.07300
H 	H 	0.58220 0.31000 0.07520 0.05900
C 	C 	0.53093 0.41110 0.07220 0.04100
C 	C 	0.51765 0.50790 0.08723 -0.07900
H 	H 	0.49010 0.53580 0.07860 0.06000
C 	C 	0.54265 0.56520 0.11405 -0.02400
H 	H 	0.53240 0.63200 0.12340 0.03600
C 	C 	0.58298 0.52670 0.12775 -0.02000
C 	C 	0.61016 0.58430 0.15757 0.07200
C 	C 	0.60490 0.69980 0.16524 -0.13300
H 	H 	0.58370 0.74250 0.15060 0.07100
C 	C 	0.63007 0.74980 0.19343 0.06300
H 	H 	0.62590 0.82710 0.19820 0.00500
C 	C 	0.66146 0.69100 0.21531 -0.14200
C 	C 	0.66750 0.57820 0.20805 0.05500
H 	H 	0.68920 0.53720 0.22270 -0.01000
C 	C 	0.64240 0.52540 0.17990 -0.14200
H 	H 	0.64680 0.44810 0.17550 0.06700
C 	C 	0.68801 0.74550 0.24639 0.35100
O 	O 	0.71919 0.68980 0.26345 -0.50200
O 	O 	0.67970 0.84290 0.25607 -0.46200
C 	C 	0.56070 0.18150 0.97659 -0.03100
H 	H 	0.56460 0.10580 0.96980 0.03900
C 	C 	0.53549 0.20470 0.00230 -0.07800
H 	H 	0.52210 0.14470 0.01270 0.05900
C 	C 	0.52945 0.31370 0.01312 0.04000
C 	C 	0.54977 0.39960 0.99723 -0.07700
H 	H 	0.54670 0.47520 0.00450 0.05800
C 	C 	0.57409 0.37660 0.97141 -0.03000
H 	H 	0.58700 0.43660 0.96070 0.04100
C 	C 	0.58018 0.26710 0.96069 -0.01600
C 	C 	0.60841 0.24430 0.93364 0.05800
C 	C 	0.64040 0.16510 0.94055 -0.10700
H 	H 	0.64290 0.12040 0.96170 0.06500
C 	C 	0.66870 0.15080 0.91663 0.02900
H 	H 	0.69110 0.09810 0.92170 0.03300
C 	C 	0.66425 0.21360 0.88536 -0.09900
C 	C 	0.63190 0.28880 0.87783 0.03200
H 	H 	0.62840 0.33010 0.85600 0.03500
C 	C 	0.60400 0.30500 0.90194 -0.11000
H 	H 	0.58180 0.35820 0.89670 0.06800
C 	C 	0.69598 0.19960 0.86018 0.31500
O 	O 	0.68944 0.24840 0.83032 -0.44500
O 	O 	0.72821 0.14090 0.86965 -0.40200
C 	C 	0.39270 0.09520 0.99357 -0.02000
H 	H 	0.37610 0.03430 0.99970 0.03300
C 	C 	0.41570 0.15790 0.02025 -0.08700
H 	H 	0.41490 0.13950 0.04460 0.06100
C 	C 	0.44031 0.24780 0.01238 0.04800
C 	C 	0.43914 0.27550 0.97668 -0.08400
H 	H 	0.45460 0.33870 0.97060 0.06200
C 	C 	0.41580 0.21270 0.94963 -0.01900
H 	H 	0.41530 0.23370 0.92530 0.03600
C 	C 	0.39320 0.11980 0.95761 -0.02600
C 	C 	0.37013 0.04330 0.92937 0.07100
C 	C 	0.36990 0.92870 0.93579 -0.12300
H 	H 	0.38440 0.90000 0.95790 0.07200
C 	C 	0.34910 0.85560 0.91064 0.04600
H 	H 	0.34990 0.77710 0.91530 0.02700
C 	C 	0.32704 0.89630 0.87828 -0.12000
C 	C 	0.32710 0.01060 0.87189 0.05000
H 	H 	0.31230 0.03920 0.84990 0.00500
C 	C 	0.34860 0.08450 0.89707 -0.12700
H 	H 	0.34840 0.16280 0.89220 0.07100
C 	C 	0.30424 0.81340 0.85284 0.31900
O 	O 	0.27451 0.85030 0.82851 -0.48200
O 	O 	0.31351 0.71170 0.85521 -0.40000
C 	C 	0.44192 0.31740 0.13902 -0.02200
H 	H 	0.45620 0.30310 0.16270 0.03600
C 	C 	0.46362 0.30530 0.11007 -0.08400
H 	H 	0.49210 0.28000 0.11420 0.06200
C 	C 	0.44429 0.32960 0.07532 0.04700
C 	C 	0.40225 0.36090 0.07000 -0.08700
H 	H 	0.38820 0.37520 0.04630 0.06100
C 	C 	0.38000 0.37200 0.09885 -0.02300
H 	H 	0.35120 0.39470 0.09450 0.03800
C 	C 	0.39970 0.35020 0.13391 -0.02600
C 	C 	0.37560 0.35500 0.16413 0.07300
C 	C 	0.34250 0.43010 0.16404 -0.12500
H 	H 	0.33670 0.48330 0.14510 0.07800
C 	C 	0.31760 0.42920 0.19097 0.05500
H 	H 	0.29560 0.48260 0.19070 0.03000
C 	C 	0.32512 0.35020 0.21826 -0.13800
C 	C 	0.35897 0.27690 0.21919 0.04800
H 	H 	0.36540 0.22550 0.23860 -0.00200
C 	C 	0.38350 0.27820 0.19204 -0.13200
H 	H 	0.40590 0.22580 0.19260 0.06800
C 	C 	0.29653 0.34280 0.24614 0.34900
O 	O 	0.30682 0.27710 0.27230 -0.48800
O 	O 	0.26394 0.40130 0.24245 -0.46900
K 	K 	0.70417 0.05108 0.23411 0.63800
Bi	Bi	0.75318 0.31581 0.19507 1.88000
C 	C 	0.99460 0.84440 0.45718 -0.03300
C 	C 	0.03420 0.81100 0.45659 -0.03900
C 	C 	0.90280 0.93050 0.38735 -0.03200
H 	H 	0.87520 0.90270 0.37880 0.05400
C 	C 	0.92840 0.87500 0.41468 -0.07300
H 	H 	0.91780 0.81000 0.42480 0.05900
C 	C 	0.96907 0.91110 0.42780 0.04100
C 	C 	0.98235 0.00790 0.41277 -0.08000
H 	H 	0.00990 0.03580 0.42140 0.06000
C 	C 	0.95735 0.06520 0.38595 -0.02400
H 	H 	0.96760 0.13200 0.37660 0.03600
C 	C 	0.91702 0.02670 0.37225 -0.02000
C 	C 	0.88984 0.08430 0.34243 0.07200
C 	C 	0.89510 0.19980 0.33476 -0.13400
H 	H 	0.91630 0.24250 0.34940 0.07100
C 	C 	0.86993 0.24980 0.30657 0.06300
H 	H 	0.87410 0.32710 0.30180 0.00500
C 	C 	0.83854 0.19100 0.28469 -0.14300
C 	C 	0.83250 0.07820 0.29195 0.05600
H 	H 	0.81080 0.03720 0.27730 -0.01100
C 	C 	0.85760 0.02540 0.32010 -0.14300
H 	H 	0.85320 0.94810 0.32450 0.06700
C 	C 	0.81199 0.24550 0.25361 0.35100
O 	O 	0.78081 0.18980 0.23655 -0.50200
O 	O 	0.82030 0.34290 0.24393 -0.46300
C 	C 	0.93930 0.68150 0.52341 -0.03100
H 	H 	0.93540 0.60580 0.53020 0.03900
C 	C 	0.96451 0.70470 0.49770 -0.07800
H 	H 	0.97790 0.64470 0.48730 0.05900
C 	C 	0.97055 0.81370 0.48688 0.04000
C 	C 	0.95023 0.89960 0.50277 -0.07700
H 	H 	0.95330 0.97520 0.49550 0.05800
C 	C 	0.92591 0.87660 0.52859 -0.03000
H 	H 	0.91300 0.93660 0.53930 0.04100
C 	C 	0.91982 0.76710 0.53931 -0.01600
C 	C 	0.89159 0.74430 0.56636 0.05800
C 	C 	0.85960 0.66510 0.55945 -0.10700
H 	H 	0.85710 0.62040 0.53830 0.06500
C 	C 	0.83130 0.65080 0.58337 0.02900
H 	H 	0.80890 0.59810 0.57830 0.03300
C 	C 	0.83575 0.71360 0.61464 -0.09900
C 	C 	0.86810 0.78880 0.62217 0.03200
H 	H 	0.87160 0.83010 0.64400 0.03500
C 	C 	0.89600 0.80500 0.59806 -0.11100
H 	H 	0.91820 0.85820 0.60330 0.06800
C 	C 	0.80402 0.69960 0.63982 0.31500
O 	O 	0.81056 0.74840 0.66968 -0.44500
O 	O 	0.77179 0.64090 0.63035 -0.40200
C 	C 	0.10730 0.59520 0.50643 -0.02000
H 	H 	0.12390 0.53430 0.50030 0.03300
C 	C 	0.08430 0.65790 0.47975 -0.08700
H 	H 	0.08510 0.63950 0.45540 0.06100
C 	C 	0.05969 0.74780 0.48762 0.04800
C 	C 	0.06086 0.77550 0.52332 -0.08400
H 	H 	0.04540 0.83870 0.52940 0.06200
C 	C 	0.08420 0.71270 0.55037 -0.01900
H 	H 	0.08470 0.73370 0.57470 0.03600
C 	C 	0.10680 0.61980 0.54239 -0.02500
C 	C 	0.12987 0.54330 0.57063 0.07000
C 	C 	0.13010 0.42870 0.56421 -0.12300
H 	H 	0.11560 0.40000 0.54210 0.07200
C 	C 	0.15090 0.35560 0.58936 0.04600
H 	H 	0.15010 0.27710 0.58470 0.02800
C 	C 	0.17296 0.39630 0.62172 -0.12000
C 	C 	0.17290 0.51060 0.62811 0.04900
H 	H 	0.18770 0.53920 0.65010 0.00500
C 	C 	0.15140 0.58450 0.60293 -0.12700
H 	H 	0.15160 0.66280 0.60780 0.07100
C 	C 	0.19576 0.31340 0.64716 0.31900
O 	O 	0.22549 0.35030 0.67149 -0.48200
O 	O 	0.18649 0.21170 0.64479 -0.40000
C 	C 	0.05808 0.81740 0.36098 -0.02200
H 	H 	0.04380 0.80310 0.33730 0.03600
C 	C 	0.03638 0.80530 0.38993 -0.08400
H 	H 	0.00790 0.78000 0.38580 0.06200
C 	C 	0.05571 0.82960 0.42468 0.04700
C 	C 	0.09775 0.86090 0.43000 -0.08700
H 	H 	0.11180 0.87520 0.45370 0.06100
C 	C 	0.12000 0.87200 0.40115 -0.02300
H 	H 	0.14880 0.89470 0.40550 0.03800
C 	C 	0.10030 0.85020 0.36609 -0.02600
C 	C 	0.12440 0.85500 0.33587 0.07300
C 	C 	0.15750 0.93010 0.33596 -0.12500
H 	H 	0.16330 0.98330 0.35490 0.07800
C 	C 	0.18240 0.92920 0.30903 0.05500
H 	H 	0.20440 0.98260 0.30930 0.03000
C 	C 	0.17488 0.85020 0.28174 -0.13800
C 	C 	0.14103 0.77690 0.28081 0.04800
H 	H 	0.13460 0.72550 0.26140 -0.00100
C 	C 	0.11650 0.77820 0.30796 -0.13200
H 	H 	0.09410 0.72580 0.30740 0.06800
C 	C 	0.20347 0.84280 0.25386 0.34900
O 	O 	0.19318 0.77710 0.22770 -0.48800
O 	O 	0.23606 0.90130 0.25755 -0.46900
K 	K 	0.79583 0.55108 0.26589 0.63800
Bi	Bi	0.25318 0.81581 0.19507 1.88000
C 	C 	0.49460 0.34440 0.45718 -0.03300
C 	C 	0.53420 0.31100 0.45659 -0.03900
C 	C 	0.40280 0.43050 0.38735 -0.03300
H 	H 	0.37520 0.40270 0.37880 0.05400
C 	C 	0.42840 0.37500 0.41468 -0.07300
H 	H 	0.41780 0.31000 0.42480 0.05900
C 	C 	0.46907 0.41110 0.42780 0.04100
C 	C 	0.48235 0.50790 0.41277 -0.07900
H 	H 	0.50990 0.53580 0.42140 0.06000
C 	C 	0.45735 0.56520 0.38595 -0.02400
H 	H 	0.46760 0.63200 0.37660 0.03600
C 	C 	0.41702 0.52670 0.37225 -0.02000
C 	C 	0.38984 0.58430 0.34243 0.07200
C 	C 	0.39510 0.69980 0.33476 -0.13300
H 	H 	0.41630 0.74250 0.34940 0.07100
C 	C 	0.36993 0.74980 0.30657 0.06300
H 	H 	0.37410 0.82710 0.30180 0.00500
C 	C 	0.33854 0.69100 0.28469 -0.14200
C 	C 	0.33250 0.57820 0.29195 0.05500
H 	H 	0.31080 0.53720 0.27730 -0.01000
C 	C 	0.35760 0.52540 0.32010 -0.14200
H 	H 	0.35320 0.44810 0.32450 0.06700
C 	C 	0.31199 0.74550 0.25361 0.35100
O 	O 	0.28081 0.68980 0.23655 -0.50200
O 	O 	0.32030 0.84290 0.24393 -0.46200
C 	C 	0.43930 0.18150 0.52341 -0.03100
H 	H 	0.43540 0.10580 0.53020 0.03900
C 	C 	0.46451 0.20470 0.49770 -0.07800
H 	H 	0.47790 0.14470 0.48730 0.05900
C 	C 	0.47055 0.31370 0.48688 0.04000
C 	C 	0.45023 0.39960 0.50277 -0.07700
H 	H 	0.45330 0.47520 0.49550 0.05800
C 	C 	0.42591 0.37660 0.52859 -0.03000
H 	H 	0.41300 0.43660 0.53930 0.04100
C 	C 	0.41982 0.26710 0.53931 -0.01600
C 	C 	0.39159 0.24430 0.56636 0.05800
C 	C 	0.35960 0.16510 0.55945 -0.10700
H 	H 	0.35710 0.12040 0.53830 0.06500
C 	C 	0.33130 0.15080 0.58337 0.02900
H 	H 	0.30890 0.09810 0.57830 0.03300
C 	C 	0.33575 0.21360 0.61464 -0.09900
C 	C 	0.36810 0.28880 0.62217 0.03200
H 	H 	0.37160 0.33010 0.64400 0.03500
C 	C 	0.39600 0.30500 0.59806 -0.11000
H 	H 	0.41820 0.35820 0.60330 0.06800
C 	C 	0.30402 0.19960 0.63982 0.31500
O 	O 	0.31056 0.24840 0.66968 -0.44500
O 	O 	0.27179 0.14090 0.63035 -0.40200
C 	C 	0.60730 0.09520 0.50643 -0.02000
H 	H 	0.62390 0.03430 0.50030 0.03300
C 	C 	0.58430 0.15790 0.47975 -0.08700
H 	H 	0.58510 0.13950 0.45540 0.06100
C 	C 	0.55969 0.24780 0.48762 0.04800
C 	C 	0.56086 0.27550 0.52332 -0.08400
H 	H 	0.54540 0.33870 0.52940 0.06200
C 	C 	0.58420 0.21270 0.55037 -0.01900
H 	H 	0.58470 0.23370 0.57470 0.03600
C 	C 	0.60680 0.11980 0.54239 -0.02600
C 	C 	0.62987 0.04330 0.57063 0.07100
C 	C 	0.63010 0.92870 0.56421 -0.12400
H 	H 	0.61560 0.90000 0.54210 0.07200
C 	C 	0.65090 0.85560 0.58936 0.04600
H 	H 	0.65010 0.77710 0.58470 0.02700
C 	C 	0.67296 0.89630 0.62172 -0.12000
C 	C 	0.67290 0.01060 0.62811 0.05000
H 	H 	0.68770 0.03920 0.65010 0.00500
C 	C 	0.65140 0.08450 0.60293 -0.12700
H 	H 	0.65160 0.16280 0.60780 0.07100
C 	C 	0.69576 0.81340 0.64716 0.31900
O 	O 	0.72549 0.85030 0.67149 -0.48200
O 	O 	0.68649 0.71170 0.64479 -0.40000
C 	C 	0.55808 0.31740 0.36098 -0.02200
H 	H 	0.54380 0.30310 0.33730 0.03600
C 	C 	0.53638 0.30530 0.38993 -0.08400
H 	H 	0.50790 0.28000 0.38580 0.06200
C 	C 	0.55571 0.32960 0.42468 0.04800
C 	C 	0.59775 0.36090 0.43000 -0.08700
H 	H 	0.61180 0.37520 0.45370 0.06100
C 	C 	0.62000 0.37200 0.40115 -0.02300
H 	H 	0.64880 0.39470 0.40550 0.03800
C 	C 	0.60030 0.35020 0.36609 -0.02600
C 	C 	0.62440 0.35500 0.33587 0.07300
C 	C 	0.65750 0.43010 0.33596 -0.12500
H 	H 	0.66330 0.48330 0.35490 0.07800
C 	C 	0.68240 0.42920 0.30903 0.05500
H 	H 	0.70440 0.48260 0.30930 0.03000
C 	C 	0.67488 0.35020 0.28174 -0.13800
C 	C 	0.64103 0.27690 0.28081 0.04800
H 	H 	0.63460 0.22550 0.26140 -0.00200
C 	C 	0.61650 0.27820 0.30796 -0.13200
H 	H 	0.59410 0.22580 0.30740 0.06800
C 	C 	0.70347 0.34280 0.25386 0.34900
O 	O 	0.69318 0.27710 0.22770 -0.48800
O 	O 	0.73606 0.40130 0.25755 -0.46900
K 	K 	0.29583 0.05108 0.26589 0.63800
Bi	Bi	0.75318 0.68419 0.69507 1.88000
C 	C 	0.99460 0.15560 0.95718 -0.03300
C 	C 	0.03420 0.18900 0.95659 -0.03900
C 	C 	0.90280 0.06950 0.88735 -0.03200
H 	H 	0.87520 0.09730 0.87880 0.05400
C 	C 	0.92840 0.12500 0.91468 -0.07300
H 	H 	0.91780 0.19000 0.92480 0.05900
C 	C 	0.96907 0.08890 0.92780 0.04100
C 	C 	0.98235 0.99210 0.91277 -0.08000
H 	H 	0.00990 0.96420 0.92140 0.06000
C 	C 	0.95735 0.93480 0.88595 -0.02400
H 	H 	0.96760 0.86800 0.87660 0.03600
C 	C 	0.91702 0.97330 0.87225 -0.02000
C 	C 	0.88984 0.91570 0.84243 0.07200
C 	C 	0.89510 0.80020 0.83476 -0.13400
H 	H 	0.91630 0.75750 0.84940 0.07100
C 	C 	0.86993 0.75020 0.80657 0.06300
H 	H 	0.87410 0.67290 0.80180 0.00500
C 	C 	0.83854 0.80900 0.78469 -0.14300
C 	C 	0.83250 0.92180 0.79195 0.05600
H 	H 	0.81080 0.96280 0.77730 -0.01100
C 	C 	0.85760 0.97460 0.82010 -0.14300
H 	H 	0.85320 0.05190 0.82450 0.06700
C 	C 	0.81199 0.75450 0.75361 0.35100
O 	O 	0.78081 0.81020 0.73655 -0.50200
O 	O 	0.82030 0.65710 0.74393 -0.46300
C 	C 	0.93930 0.31850 0.02341 -0.03100
H 	H 	0.93540 0.39420 0.03020 0.03900
C 	C 	0.96451 0.29530 0.99770 -0.07800
H 	H 	0.97790 0.35530 0.98730 0.05900
C 	C 	0.97055 0.18630 0.98688 0.04000
C 	C 	0.95023 0.10040 0.00277 -0.07700
H 	H 	0.95330 0.02480 0.99550 0.05800
C 	C 	0.92591 0.12340 0.02859 -0.03000
H 	H 	0.91300 0.06340 0.03930 0.04100
C 	C 	0.91982 0.23290 0.03931 -0.01600
C 	C 	0.89159 0.25570 0.06636 0.05800
C 	C 	0.85960 0.33490 0.05945 -0.10700
H 	H 	0.85710 0.37960 0.03830 0.06500
C 	C 	0.83130 0.34920 0.08337 0.02900
H 	H 	0.80890 0.40190 0.07830 0.03300
C 	C 	0.83575 0.28640 0.11464 -0.09900
C 	C 	0.86810 0.21120 0.12217 0.03200
H 	H 	0.87160 0.16990 0.14400 0.03500
C 	C 	0.89600 0.19500 0.09806 -0.11100
H 	H 	0.91820 0.14180 0.10330 0.06800
C 	C 	0.80402 0.30040 0.13982 0.31500
O 	O 	0.81056 0.25160 0.16968 -0.44500
O 	O 	0.77179 0.35910 0.13035 -0.40200
C 	C 	0.10730 0.40480 0.00643 -0.02000
H 	H 	0.12390 0.46570 0.00030 0.03300
C 	C 	0.08430 0.34210 0.97975 -0.08700
H 	H 	0.08510 0.36050 0.95540 0.06100
C 	C 	0.05969 0.25220 0.98762 0.04800
C 	C 	0.06086 0.22450 0.02332 -0.08400
H 	H 	0.04540 0.16130 0.02940 0.06200
C 	C 	0.08420 0.28730 0.05037 -0.01900
H 	H 	0.08470 0.26630 0.07470 0.03600
C 	C 	0.10680 0.38020 0.04239 -0.02500
C 	C 	0.12987 0.45670 0.07063 0.07000
C 	C 	0.13010 0.57130 0.06421 -0.12300
H 	H 	0.11560 0.60000 0.04210 0.07200
C 	C 	0.15090 0.64440 0.08936 0.04600
H 	H 	0.15010 0.72290 0.08470 0.02800
C 	C 	0.17296 0.60370 0.12172 -0.12000
C 	C 	0.17290 0.48940 0.12811 0.04900
H 	H 	0.18770 0.46080 0.15010 0.00500
C 	C 	0.15140 0.41550 0.10293 -0.12700
H 	H 	0.15160 0.33720 0.10780 0.07100
C 	C 	0.19576 0.68660 0.14716 0.31900
O 	O 	0.22549 0.64970 0.17149 -0.48200
O 	O 	0.18649 0.78830 0.14479 -0.40000
C 	C 	0.05808 0.18260 0.86098 -0.02200
H 	H 	0.04380 0.19690 0.83730 0.03600
C 	C 	0.03638 0.19470 0.88993 -0.08400
H 	H 	0.00790 0.22000 0.88580 0.06200
C 	C 	0.05571 0.17040 0.92468 0.04700
C 	C 	0.09775 0.13910 0.93000 -0.08700
H 	H 	0.11180 0.12480 0.95370 0.06100
C 	C 	0.12000 0.12800 0.90115 -0.02300
H 	H 	0.14880 0.10530 0.90550 0.03800
C 	C 	0.10030 0.14980 0.86609 -0.02600
C 	C 	0.12440 0.14500 0.83587 0.07300
C 	C 	0.15750 0.06990 0.83596 -0.12500
H 	H 	0.16330 0.01670 0.85490 0.07800
C 	C 	0.18240 0.07080 0.80903 0.05500
H 	H 	0.20440 0.01740 0.80930 0.03000
C 	C 	0.17488 0.14980 0.78174 -0.13800
C 	C 	0.14103 0.22310 0.78081 0.04800
H 	H 	0.13460 0.27450 0.76140 -0.00100
C 	C 	0.11650 0.22180 0.80796 -0.13200
H 	H 	0.09410 0.27420 0.80740 0.06800
C 	C 	0.20347 0.15720 0.75386 0.34900
O 	O 	0.19318 0.22290 0.72770 -0.48800
O 	O 	0.23606 0.09870 0.75755 -0.46900
K 	K 	0.79583 0.44892 0.76589 0.63800
Bi	Bi	0.25318 0.18419 0.69507 1.88000
C 	C 	0.49460 0.65560 0.95718 -0.03300
C 	C 	0.53420 0.68900 0.95659 -0.03900
C 	C 	0.40280 0.56950 0.88735 -0.03300
H 	H 	0.37520 0.59730 0.87880 0.05400
C 	C 	0.42840 0.62500 0.91468 -0.07300
H 	H 	0.41780 0.69000 0.92480 0.05900
C 	C 	0.46907 0.58890 0.92780 0.04100
C 	C 	0.48235 0.49210 0.91277 -0.07900
H 	H 	0.50990 0.46420 0.92140 0.06000
C 	C 	0.45735 0.43480 0.88595 -0.02400
H 	H 	0.46760 0.36800 0.87660 0.03600
C 	C 	0.41702 0.47330 0.87225 -0.02000
C 	C 	0.38984 0.41570 0.84243 0.07200
C 	C 	0.39510 0.30020 0.83476 -0.13300
H 	H 	0.41630 0.25750 0.84940 0.07100
C 	C 	0.36993 0.25020 0.80657 0.06300
H 	H 	0.37410 0.17290 0.80180 0.00500
C 	C 	0.33854 0.30900 0.78469 -0.14200
C 	C 	0.33250 0.42180 0.79195 0.05500
H 	H 	0.31080 0.46280 0.77730 -0.01000
C 	C 	0.35760 0.47460 0.82010 -0.14200
H 	H 	0.35320 0.55190 0.82450 0.06700
C 	C 	0.31199 0.25450 0.75361 0.35100
O 	O 	0.28081 0.31020 0.73655 -0.50200
O 	O 	0.32030 0.15710 0.74393 -0.46200
C 	C 	0.43930 0.81850 0.02341 -0.03100
H 	H 	0.43540 0.89420 0.03020 0.03900
C 	C 	0.46451 0.79530 0.99770 -0.07800
H 	H 	0.47790 0.85530 0.98730 0.05900
C 	C 	0.47055 0.68630 0.98688 0.04000
C 	C 	0.45023 0.60040 0.00277 -0.07700
H 	H 	0.45330 0.52480 0.99550 0.05800
C 	C 	0.42591 0.62340 0.02859 -0.03000
H 	H 	0.41300 0.56340 0.03930 0.04100
C 	C 	0.41982 0.73290 0.03931 -0.01600
C 	C 	0.39159 0.75570 0.06636 0.05800
C 	C 	0.35960 0.83490 0.05945 -0.10700
H 	H 	0.35710 0.87960 0.03830 0.06500
C 	C 	0.33130 0.84920 0.08337 0.02900
H 	H 	0.30890 0.90190 0.07830 0.03300
C 	C 	0.33575 0.78640 0.11464 -0.09900
C 	C 	0.36810 0.71120 0.12217 0.03200
H 	H 	0.37160 0.66990 0.14400 0.03500
C 	C 	0.39600 0.69500 0.09806 -0.11000
H 	H 	0.41820 0.64180 0.10330 0.06800
C 	C 	0.30402 0.80040 0.13982 0.31500
O 	O 	0.31056 0.75160 0.16968 -0.44500
O 	O 	0.27179 0.85910 0.13035 -0.40200
C 	C 	0.60730 0.90480 0.00643 -0.02000
H 	H 	0.62390 0.96570 0.00030 0.03300
C 	C 	0.58430 0.84210 0.97975 -0.08700
H 	H 	0.58510 0.86050 0.95540 0.06100
C 	C 	0.55969 0.75220 0.98762 0.04800
C 	C 	0.56086 0.72450 0.02332 -0.08400
H 	H 	0.54540 0.66130 0.02940 0.06200
C 	C 	0.58420 0.78730 0.05037 -0.01900
H 	H 	0.58470 0.76630 0.07470 0.03600
C 	C 	0.60680 0.88020 0.04239 -0.02600
C 	C 	0.62987 0.95670 0.07063 0.07100
C 	C 	0.63010 0.07130 0.06421 -0.12300
H 	H 	0.61560 0.10000 0.04210 0.07200
C 	C 	0.65090 0.14440 0.08936 0.04600
H 	H 	0.65010 0.22290 0.08470 0.02700
C 	C 	0.67296 0.10370 0.12172 -0.12000
C 	C 	0.67290 0.98940 0.12811 0.05000
H 	H 	0.68770 0.96080 0.15010 0.00500
C 	C 	0.65140 0.91550 0.10293 -0.12700
H 	H 	0.65160 0.83720 0.10780 0.07100
C 	C 	0.69576 0.18660 0.14716 0.31900
O 	O 	0.72549 0.14970 0.17149 -0.48200
O 	O 	0.68649 0.28830 0.14479 -0.40000
C 	C 	0.55808 0.68260 0.86098 -0.02200
H 	H 	0.54380 0.69690 0.83730 0.03600
C 	C 	0.53638 0.69470 0.88993 -0.08400
H 	H 	0.50790 0.72000 0.88580 0.06200
C 	C 	0.55571 0.67040 0.92468 0.04700
C 	C 	0.59775 0.63910 0.93000 -0.08700
H 	H 	0.61180 0.62480 0.95370 0.06100
C 	C 	0.62000 0.62800 0.90115 -0.02300
H 	H 	0.64880 0.60530 0.90550 0.03800
C 	C 	0.60030 0.64980 0.86609 -0.02600
C 	C 	0.62440 0.64500 0.83587 0.07300
C 	C 	0.65750 0.56990 0.83596 -0.12500
H 	H 	0.66330 0.51670 0.85490 0.07800
C 	C 	0.68240 0.57080 0.80903 0.05500
H 	H 	0.70440 0.51740 0.80930 0.03000
C 	C 	0.67488 0.64980 0.78174 -0.13800
C 	C 	0.64103 0.72310 0.78081 0.04800
H 	H 	0.63460 0.77450 0.76140 -0.00200
C 	C 	0.61650 0.72180 0.80796 -0.13200
H 	H 	0.59410 0.77420 0.80740 0.06800
C 	C 	0.70347 0.65720 0.75386 0.34900
O 	O 	0.69318 0.72290 0.72770 -0.48800
O 	O 	0.73606 0.59870 0.75755 -0.46900
K 	K 	0.29583 0.94892 0.76589 0.63800
Bi	Bi	0.24682 0.68419 0.80493 1.88000
C 	C 	0.00540 0.15560 0.54282 -0.03300
C 	C 	0.96580 0.18900 0.54341 -0.03900
C 	C 	0.09720 0.06950 0.61265 -0.03200
H 	H 	0.12480 0.09730 0.62120 0.05400
C 	C 	0.07160 0.12500 0.58532 -0.07300
H 	H 	0.08220 0.19000 0.57520 0.05900
C 	C 	0.03093 0.08890 0.57220 0.04100
C 	C 	0.01765 0.99210 0.58723 -0.08000
H 	H 	0.99010 0.96420 0.57860 0.06000
C 	C 	0.04265 0.93480 0.61405 -0.02400
H 	H 	0.03240 0.86800 0.62340 0.03600
C 	C 	0.08298 0.97330 0.62775 -0.02000
C 	C 	0.11016 0.91570 0.65757 0.07200
C 	C 	0.10490 0.80020 0.66524 -0.13400
H 	H 	0.08370 0.75750 0.65060 0.07100
C 	C 	0.13007 0.75020 0.69343 0.06300
H 	H 	0.12590 0.67290 0.69820 0.00500
C 	C 	0.16146 0.80900 0.71531 -0.14300
C 	C 	0.16750 0.92180 0.70805 0.05600
H 	H 	0.18920 0.96280 0.72270 -0.01100
C 	C 	0.14240 0.97460 0.67990 -0.14300
H 	H 	0.14680 0.05190 0.67550 0.06700
C 	C 	0.18801 0.75450 0.74639 0.35100
O 	O 	0.21919 0.81020 0.76345 -0.50200
O 	O 	0.17970 0.65710 0.75607 -0.46300
C 	C 	0.06070 0.31850 0.47659 -0.03100
H 	H 	0.06460 0.39420 0.46980 0.03900
C 	C 	0.03549 0.29530 0.50230 -0.07800
H 	H 	0.02210 0.35530 0.51270 0.05900
C 	C 	0.02945 0.18630 0.51312 0.04000
C 	C 	0.04977 0.10040 0.49723 -0.07700
H 	H 	0.04670 0.02480 0.50450 0.05800
C 	C 	0.07409 0.12340 0.47141 -0.03000
H 	H 	0.08700 0.06340 0.46070 0.04100
C 	C 	0.08018 0.23290 0.46069 -0.01600
C 	C 	0.10841 0.25570 0.43364 0.05800
C 	C 	0.14040 0.33490 0.44055 -0.10700
H 	H 	0.14290 0.37960 0.46170 0.06500
C 	C 	0.16870 0.34920 0.41663 0.02900
H 	H 	0.19110 0.40190 0.42170 0.03300
C 	C 	0.16425 0.28640 0.38536 -0.09900
C 	C 	0.13190 0.21120 0.37783 0.03200
H 	H 	0.12840 0.16990 0.35600 0.03500
C 	C 	0.10400 0.19500 0.40194 -0.11100
H 	H 	0.08180 0.14180 0.39670 0.06800
C 	C 	0.19598 0.30040 0.36018 0.31500
O 	O 	0.18944 0.25160 0.33032 -0.44500
O 	O 	0.22821 0.35910 0.36965 -0.40200
C 	C 	0.89270 0.40480 0.49357 -0.02000
H 	H 	0.87610 0.46570 0.49970 0.03300
C 	C 	0.91570 0.34210 0.52025 -0.08700
H 	H 	0.91490 0.36050 0.54460 0.06100
C 	C 	0.94031 0.25220 0.51238 0.04800
C 	C 	0.93914 0.22450 0.47668 -0.08400
H 	H 	0.95460 0.16130 0.47060 0.06200
C 	C 	0.91580 0.28730 0.44963 -0.01900
H 	H 	0.91530 0.26630 0.42530 0.03600
C 	C 	0.89320 0.38020 0.45761 -0.02500
C 	C 	0.87013 0.45670 0.42937 0.07000
C 	C 	0.86990 0.57130 0.43579 -0.12300
H 	H 	0.88440 0.60000 0.45790 0.07200
C 	C 	0.84910 0.64440 0.41064 0.04600
H 	H 	0.84990 0.72290 0.41530 0.02800
C 	C 	0.82704 0.60370 0.37828 -0.12000
C 	C 	0.82710 0.48940 0.37189 0.04900
H 	H 	0.81230 0.46080 0.34990 0.00500
C 	C 	0.84860 0.41550 0.39707 -0.12700
H 	H 	0.84840 0.33720 0.39220 0.07100
C 	C 	0.80424 0.68660 0.35284 0.31900
O 	O 	0.77451 0.64970 0.32851 -0.48200
O 	O 	0.81351 0.78830 0.35521 -0.40000
C 	C 	0.94192 0.18260 0.63902 -0.02200
H 	H 	0.95620 0.19690 0.66270 0.03600
C 	C 	0.96362 0.19470 0.61007 -0.08400
H 	H 	0.99210 0.22000 0.61420 0.06200
C 	C 	0.94429 0.17040 0.57532 0.04700
C 	C 	0.90225 0.13910 0.57000 -0.08700
H 	H 	0.88820 0.12480 0.54630 0.06100
C 	C 	0.88000 0.12800 0.59885 -0.02300
H 	H 	0.85120 0.10530 0.59450 0.03800
C 	C 	0.89970 0.14980 0.63391 -0.02600
C 	C 	0.87560 0.14500 0.66413 0.07300
C 	C 	0.84250 0.06990 0.66404 -0.12500
H 	H 	0.83670 0.01670 0.64510 0.07800
C 	C 	0.81760 0.07080 0.69097 0.05500
H 	H 	0.79560 0.01740 0.69070 0.03000
C 	C 	0.82512 0.14980 0.71826 -0.13800
C 	C 	0.85897 0.22310 0.71919 0.04800
H 	H 	0.86540 0.27450 0.73860 -0.00100
C 	C 	0.88350 0.22180 0.69204 -0.13200
H 	H 	0.90590 0.27420 0.69260 0.06800
C 	C 	0.79653 0.15720 0.74614 0.34900
O 	O 	0.80682 0.22290 0.77230 -0.48800
O 	O 	0.76394 0.09870 0.74245 -0.46900
K 	K 	0.20417 0.44892 0.73411 0.63800
Bi	Bi	0.74682 0.18419 0.80493 1.88000
C 	C 	0.50540 0.65560 0.54282 -0.03300
C 	C 	0.46580 0.68900 0.54341 -0.03900
C 	C 	0.59720 0.56950 0.61265 -0.03300
H 	H 	0.62480 0.59730 0.62120 0.05400
C 	C 	0.57160 0.62500 0.58532 -0.07300
H 	H 	0.58220 0.69000 0.57520 0.05900
C 	C 	0.53093 0.58890 0.57220 0.04100
C 	C 	0.51765 0.49210 0.58723 -0.07900
H 	H 	0.49010 0.46420 0.57860 0.06000
C 	C 	0.54265 0.43480 0.61405 -0.02400
H 	H 	0.53240 0.36800 0.62340 0.03600
C 	C 	0.58298 0.47330 0.62775 -0.02000
C 	C 	0.61016 0.41570 0.65757 0.07200
C 	C 	0.60490 0.30020 0.66524 -0.13300
H 	H 	0.58370 0.25750 0.65060 0.07100
C 	C 	0.63007 0.25020 0.69343 0.06300
H 	H 	0.62590 0.17290 0.69820 0.00500
C 	C 	0.66146 0.30900 0.71531 -0.14200
C 	C 	0.66750 0.42180 0.70805 0.05500
H 	H 	0.68920 0.46280 0.72270 -0.01000
C 	C 	0.64240 0.47460 0.67990 -0.14200
H 	H 	0.64680 0.55190 0.67550 0.06700
C 	C 	0.68801 0.25450 0.74639 0.35100
O 	O 	0.71919 0.31020 0.76345 -0.50200
O 	O 	0.67970 0.15710 0.75607 -0.46200
C 	C 	0.56070 0.81850 0.47659 -0.03100
H 	H 	0.56460 0.89420 0.46980 0.03900
C 	C 	0.53549 0.79530 0.50230 -0.07800
H 	H 	0.52210 0.85530 0.51270 0.05900
C 	C 	0.52945 0.68630 0.51312 0.04000
C 	C 	0.54977 0.60040 0.49723 -0.07700
H 	H 	0.54670 0.52480 0.50450 0.05800
C 	C 	0.57409 0.62340 0.47141 -0.03000
H 	H 	0.58700 0.56340 0.46070 0.04100
C 	C 	0.58018 0.73290 0.46069 -0.01600
C 	C 	0.60841 0.75570 0.43364 0.05800
C 	C 	0.64040 0.83490 0.44055 -0.10700
H 	H 	0.64290 0.87960 0.46170 0.06500
C 	C 	0.66870 0.84920 0.41663 0.02900
H 	H 	0.69110 0.90190 0.42170 0.03300
C 	C 	0.66425 0.78640 0.38536 -0.09900
C 	C 	0.63190 0.71120 0.37783 0.03200
H 	H 	0.62840 0.66990 0.35600 0.03500
C 	C 	0.60400 0.69500 0.40194 -0.11000
H 	H 	0.58180 0.64180 0.39670 0.06800
C 	C 	0.69598 0.80040 0.36018 0.31500
O 	O 	0.68944 0.75160 0.33032 -0.44500
O 	O 	0.72821 0.85910 0.36965 -0.40200
C 	C 	0.39270 0.90480 0.49357 -0.02000
H 	H 	0.37610 0.96570 0.49970 0.03300
C 	C 	0.41570 0.84210 0.52025 -0.08700
H 	H 	0.41490 0.86050 0.54460 0.06100
C 	C 	0.44031 0.75220 0.51238 0.04800
C 	C 	0.43914 0.72450 0.47668 -0.08400
H 	H 	0.45460 0.66130 0.47060 0.06200
C 	C 	0.41580 0.78730 0.44963 -0.01900
H 	H 	0.41530 0.76630 0.42530 0.03600
C 	C 	0.39320 0.88020 0.45761 -0.02600
C 	C 	0.37013 0.95670 0.42937 0.07100
C 	C 	0.36990 0.07130 0.43579 -0.12400
H 	H 	0.38440 0.10000 0.45790 0.07200
C 	C 	0.34910 0.14440 0.41064 0.04600
H 	H 	0.34990 0.22290 0.41530 0.02700
C 	C 	0.32704 0.10370 0.37828 -0.12000
C 	C 	0.32710 0.98940 0.37189 0.05000
H 	H 	0.31230 0.96080 0.34990 0.00500
C 	C 	0.34860 0.91550 0.39707 -0.12700
H 	H 	0.34840 0.83720 0.39220 0.07100
C 	C 	0.30424 0.18660 0.35284 0.31900
O 	O 	0.27451 0.14970 0.32851 -0.48200
O 	O 	0.31351 0.28830 0.35521 -0.40000
C 	C 	0.44192 0.68260 0.63902 -0.02200
H 	H 	0.45620 0.69690 0.66270 0.03600
C 	C 	0.46362 0.69470 0.61007 -0.08400
H 	H 	0.49210 0.72000 0.61420 0.06200
C 	C 	0.44429 0.67040 0.57532 0.04800
C 	C 	0.40225 0.63910 0.57000 -0.08700
H 	H 	0.38820 0.62480 0.54630 0.06100
C 	C 	0.38000 0.62800 0.59885 -0.02300
H 	H 	0.35120 0.60530 0.59450 0.03800
C 	C 	0.39970 0.64980 0.63391 -0.02600
C 	C 	0.37560 0.64500 0.66413 0.07300
C 	C 	0.34250 0.56990 0.66404 -0.12500
H 	H 	0.33670 0.51670 0.64510 0.07800
C 	C 	0.31760 0.57080 0.69097 0.05500
H 	H 	0.29560 0.51740 0.69070 0.03000
C 	C 	0.32512 0.64980 0.71826 -0.13800
C 	C 	0.35897 0.72310 0.71919 0.04800
H 	H 	0.36540 0.77450 0.73860 -0.00200
C 	C 	0.38350 0.72180 0.69204 -0.13200
H 	H 	0.40590 0.77420 0.69260 0.06800
C 	C 	0.29653 0.65720 0.74614 0.34900
O 	O 	0.30682 0.72290 0.77230 -0.48800
O 	O 	0.26394 0.59870 0.74245 -0.46900
K 	K 	0.70417 0.94892 0.73411 0.63800
