data_crystal

_cell_length_a 9.81550
_cell_length_b 10.18840
_cell_length_c 12.87100
_cell_angle_alpha 69.00200
_cell_angle_beta  69.67600
_cell_angle_gamma 63.28100

_symmetry_space_group_name_	'P 1'
_symmetry_space_group_name_H-M	'P 1'

loop_
_symmetry_equiv_pos_as_xyz
  x,y,z

loop_
_atom_site_label
_atom_site_type_symbol
_atom_site_fract_x
_atom_site_fract_y
_atom_site_fract_z
_atom_site_charge
Cd	Cd	0.83929 0.12656 0.41740 1.21600
C 	C 	0.91270 0.31140 0.21800 0.29800
C 	C 	0.95810 0.40640 0.10710 -0.06500
C 	C 	0.05000 0.34570 0.01350 -0.02100
H 	H 	0.08400 0.24210 0.02140 0.05700
C 	C 	0.90820 0.56270 0.09160 -0.02300
H 	H 	0.84580 0.60610 0.15300 0.05100
C 	C 	0.07450 0.18080 0.53680 0.35900
C 	C 	0.03450 0.34690 0.51820 -0.09000
C 	C 	0.98560 0.44750 0.42300 -0.02400
H 	H 	0.97690 0.41220 0.36910 0.04600
C 	C 	0.05160 0.39930 0.59580 -0.01500
H 	H 	0.08780 0.33210 0.66040 0.04800
C 	C 	0.59060 0.30870 0.60680 0.02000
H 	H 	0.57170 0.39920 0.55100 0.00500
C 	C 	0.51800 0.29730 0.71610 -0.02200
H 	H 	0.44280 0.37500 0.75040 0.05100
C 	C 	0.68610 0.07860 0.68560 0.08500
H 	H 	0.74790 0.97590 0.69790 0.00500
C 	C 	0.80660 0.11510 0.00310 -0.02500
H 	H 	0.88220 0.15740 0.97880 0.04200
C 	C 	0.73260 0.12430 0.92680 -0.05800
H 	H 	0.75880 0.17280 0.85050 0.06200
C 	C 	0.61750 0.06170 0.96160 0.00700
C 	C 	0.53590 0.07130 0.88670 0.03400
C 	C 	0.42230 0.01060 0.92050 -0.00300
C 	C 	0.33920 0.01940 0.84550 -0.04500
H 	H 	0.36050 0.06930 0.76900 0.05300
C 	C 	0.23160 0.95760 0.88280 -0.04700
H 	H 	0.18080 0.96310 0.83140 0.04900
N 	N 	0.57820 0.14480 0.76780 -0.12200
N 	N 	0.69470 0.17410 0.58650 -0.25100
O 	O 	0.80180 0.37070 0.29380 -0.38600
O 	O 	0.98340 0.17040 0.23390 -0.38300
O 	O 	0.04910 0.13360 0.47090 -0.49000
O 	O 	0.14510 0.09090 0.61190 -0.41700
Cd	Cd	0.16071 0.87344 0.58260 1.21500
C 	C 	0.08730 0.68860 0.78200 0.29700
C 	C 	0.04190 0.59360 0.89290 -0.06500
C 	C 	0.95000 0.65430 0.98650 -0.02100
H 	H 	0.91600 0.75790 0.97860 0.05700
C 	C 	0.09180 0.43730 0.90840 -0.02300
H 	H 	0.15420 0.39390 0.84700 0.05100
C 	C 	0.92550 0.81920 0.46320 0.35900
C 	C 	0.96550 0.65310 0.48180 -0.09000
C 	C 	0.01440 0.55250 0.57700 -0.02400
H 	H 	0.02310 0.58780 0.63090 0.04600
C 	C 	0.94840 0.60070 0.40420 -0.01500
H 	H 	0.91220 0.66790 0.33960 0.04800
C 	C 	0.40940 0.69130 0.39320 0.02000
H 	H 	0.42830 0.60080 0.44900 0.00500
C 	C 	0.48200 0.70270 0.28390 -0.02200
H 	H 	0.55720 0.62500 0.24960 0.05100
C 	C 	0.31390 0.92140 0.31440 0.08500
H 	H 	0.25210 0.02410 0.30210 0.00500
C 	C 	0.19340 0.88490 0.99690 -0.02500
H 	H 	0.11780 0.84260 0.02120 0.04200
C 	C 	0.26740 0.87570 0.07320 -0.05800
H 	H 	0.24120 0.82720 0.14950 0.06200
C 	C 	0.38250 0.93830 0.03840 0.00700
C 	C 	0.46410 0.92870 0.11330 0.03400
C 	C 	0.57770 0.98940 0.07950 -0.00300
C 	C 	0.66080 0.98060 0.15450 -0.04500
H 	H 	0.63950 0.93070 0.23100 0.05300
C 	C 	0.76840 0.04240 0.11720 -0.04700
H 	H 	0.81920 0.03690 0.16860 0.04900
N 	N 	0.42180 0.85520 0.23220 -0.12200
N 	N 	0.30530 0.82590 0.41350 -0.25100
O 	O 	0.19820 0.62930 0.70620 -0.38600
O 	O 	0.01660 0.82960 0.76610 -0.38300
O 	O 	0.95090 0.86640 0.52910 -0.49000
O 	O 	0.85490 0.90910 0.38810 -0.41700
