data_crystal

_cell_length_a 28.52000
_cell_length_b 9.92970
_cell_length_c 30.04400
_cell_angle_alpha 90.00000
_cell_angle_beta  116.46600
_cell_angle_gamma 90.00000

_symmetry_space_group_name_	'P 1'
_symmetry_space_group_name_H-M	'P 1'

loop_
_symmetry_equiv_pos_as_xyz
  x,y,z

loop_
_atom_site_label
_atom_site_type_symbol
_atom_site_fract_x
_atom_site_fract_y
_atom_site_fract_z
_atom_site_charge
C 	C 	0.28334 0.46280 0.40617 0.32900
C 	C 	0.25889 0.48190 0.35141 -0.17100
C 	C 	0.28932 0.51030 0.32739 0.11100
H 	H 	0.32560 0.51250 0.34560 0.00400
C 	C 	0.26711 0.53530 0.27714 -0.22500
H 	H 	0.28840 0.55450 0.26180 0.10900
C 	C 	0.21359 0.53210 0.24944 0.18900
C 	C 	0.18297 0.50010 0.27299 -0.22500
H 	H 	0.14680 0.49520 0.25470 0.11000
C 	C 	0.20576 0.47580 0.32310 0.11800
H 	H 	0.18460 0.45460 0.33830 0.00400
C 	C 	0.28665 0.43630 0.07315 0.37100
C 	C 	0.26388 0.47110 0.10787 -0.18800
C 	C 	0.24531 0.59780 0.10900 0.14200
H 	H 	0.24850 0.66480 0.08890 -0.00100
C 	C 	0.22222 0.62760 0.13892 -0.24100
H 	H 	0.20990 0.71430 0.13890 0.12500
C 	C 	0.21702 0.53080 0.16900 0.19900
C 	C 	0.23678 0.40310 0.16928 -0.23700
H 	H 	0.23450 0.33710 0.19020 0.11700
C 	C 	0.25956 0.37390 0.13913 0.13200
H 	H 	0.27240 0.28760 0.13940 -0.00600
C 	C 	0.92141 0.95060 0.09156 0.13500
H 	H 	0.90360 0.98610 0.10840 -0.02600
C 	C 	0.96854 0.88940 0.11945 -0.22200
H 	H 	0.98100 0.88200 0.15370 0.10900
C 	C 	0.99707 0.83950 0.09704 0.16100
C 	C 	0.97512 0.85440 0.04650 -0.20900
H 	H 	0.99250 0.82210 0.02890 0.10300
C 	C 	0.92720 0.91740 0.02155 0.11200
H 	H 	0.91380 0.92790 0.98730 -0.01700
C 	C 	0.04752 0.76860 0.12490 -0.11300
C 	C 	0.06122 0.66500 0.10218 0.06600
H 	H 	0.03860 0.64180 0.06960 0.00200
C 	C 	0.10787 0.59510 0.12690 -0.18800
H 	H 	0.11590 0.52420 0.11120 0.09900
C 	C 	0.14249 0.63100 0.17495 0.17100
C 	C 	0.12938 0.73350 0.19777 -0.19600
H 	H 	0.15210 0.75810 0.23020 0.10000
C 	C 	0.08236 0.80010 0.17252 0.07400
H 	H 	0.07410 0.86940 0.18860 0.00200
C 	C 	0.33487 0.17820 0.53840 0.08200
H 	H 	0.31360 0.19460 0.55400 0.01300
C 	C 	0.37631 0.20120 0.49519 0.00800
H 	H 	0.38950 0.23830 0.47460 0.02400
C 	C 	0.38649 0.07660 0.51421 -0.01500
H 	H 	0.40760 0.01260 0.50940 0.03500
C 	C 	0.36255 0.94960 0.57323 -0.19200
H 	H 	0.36670 0.86870 0.55720 0.09400
H 	H 	0.32880 0.94310 0.57370 0.11000
C 	C 	0.40295 0.94720 0.62487 0.15200
C 	C 	0.40070 0.86830 0.65807 -0.16400
H 	H 	0.37230 0.81030 0.64860 0.09700
C 	C 	0.43870 0.86620 0.70712 0.00300
H 	H 	0.43440 0.80760 0.72920 0.02800
C 	C 	0.48024 0.94270 0.72364 -0.00300
C 	C 	0.49170 0.98820 0.68660 -0.10400
H 	H 	0.52570 0.01430 0.69410 0.06300
C 	C 	0.45340 0.99550 0.63860 -0.00100
H 	H 	0.46130 0.03380 0.61450 0.03500
Co	Co	0.32232 0.46816 0.49798 1.14200
N 	N 	0.34360 0.26610 0.51052 -0.23000
N 	N 	0.35999 0.06200 0.54189 -0.09500
N 	N 	0.89940 0.96310 0.04316 -0.26800
N 	N 	0.19058 0.56180 0.19829 -0.20100
O 	O 	0.33198 0.46840 0.43055 -0.40000
O 	O 	0.25431 0.44500 0.42734 -0.39600
O 	O 	0.29513 0.31500 0.06827 -0.31200
O 	O 	0.29621 0.53350 0.05103 -0.43800
C 	C 	0.46620 0.07090 0.69450 0.06500
H 	H 	0.48500 0.14930 0.70810 0.00300
C 	C 	0.42510 0.07160 0.64730 -0.16400
H 	H 	0.41220 0.15230 0.63050 0.09300
C 	C 	0.78334 0.96280 0.40617 0.32900
C 	C 	0.75889 0.98190 0.35141 -0.16900
C 	C 	0.78932 0.01030 0.32739 0.11200
H 	H 	0.82560 0.01250 0.34560 0.00500
C 	C 	0.76711 0.03530 0.27714 -0.22200
H 	H 	0.78840 0.05450 0.26180 0.11000
C 	C 	0.71359 0.03210 0.24944 0.18900
C 	C 	0.68297 0.00010 0.27299 -0.21900
H 	H 	0.64680 0.99520 0.25470 0.10800
C 	C 	0.70576 0.97580 0.32310 0.11500
H 	H 	0.68460 0.95460 0.33830 0.00500
C 	C 	0.78665 0.93630 0.07315 0.37100
C 	C 	0.76388 0.97110 0.10787 -0.18900
C 	C 	0.74531 0.09780 0.10900 0.14300
H 	H 	0.74850 0.16480 0.08890 -0.00200
C 	C 	0.72222 0.12760 0.13892 -0.24200
H 	H 	0.70990 0.21430 0.13890 0.12600
C 	C 	0.71702 0.03080 0.16900 0.20000
C 	C 	0.73678 0.90310 0.16928 -0.23900
H 	H 	0.73450 0.83710 0.19020 0.11700
C 	C 	0.75956 0.87390 0.13913 0.13300
H 	H 	0.77240 0.78760 0.13940 -0.00600
C 	C 	0.42141 0.45060 0.09156 0.13500
H 	H 	0.40360 0.48610 0.10840 -0.02600
C 	C 	0.46854 0.38940 0.11945 -0.22100
H 	H 	0.48100 0.38200 0.15370 0.10800
C 	C 	0.49707 0.33950 0.09704 0.16000
C 	C 	0.47512 0.35440 0.04650 -0.20800
H 	H 	0.49250 0.32210 0.02890 0.10300
C 	C 	0.42720 0.41740 0.02155 0.11100
H 	H 	0.41380 0.42790 0.98730 -0.01700
C 	C 	0.54752 0.26860 0.12490 -0.11100
C 	C 	0.56122 0.16500 0.10218 0.06600
H 	H 	0.53860 0.14180 0.06960 0.00300
C 	C 	0.60787 0.09510 0.12690 -0.18700
H 	H 	0.61590 0.02420 0.11120 0.09900
C 	C 	0.64249 0.13100 0.17495 0.17000
C 	C 	0.62938 0.23350 0.19777 -0.19500
H 	H 	0.65210 0.25810 0.23020 0.10000
C 	C 	0.58236 0.30010 0.17252 0.07300
H 	H 	0.57410 0.36940 0.18860 0.00200
C 	C 	0.83487 0.67820 0.53840 0.08200
H 	H 	0.81360 0.69460 0.55400 0.01300
C 	C 	0.87631 0.70120 0.49519 0.00800
H 	H 	0.88950 0.73830 0.47460 0.02400
C 	C 	0.88649 0.57660 0.51421 -0.01600
H 	H 	0.90760 0.51260 0.50940 0.03500
C 	C 	0.86255 0.44960 0.57323 -0.20000
H 	H 	0.86670 0.36870 0.55720 0.09700
H 	H 	0.82880 0.44310 0.57370 0.11200
C 	C 	0.90295 0.44720 0.62487 0.16300
C 	C 	0.90070 0.36830 0.65807 -0.17900
H 	H 	0.87230 0.31030 0.64860 0.10200
C 	C 	0.93870 0.36620 0.70712 0.02000
H 	H 	0.93440 0.30760 0.72920 0.02200
C 	C 	0.98024 0.44270 0.72364 -0.02300
C 	C 	0.99170 0.48820 0.68660 -0.07000
H 	H 	0.02570 0.51430 0.69410 0.05200
C 	C 	0.95340 0.49550 0.63860 -0.03700
H 	H 	0.96130 0.53380 0.61450 0.04700
Co	Co	0.82232 0.96816 0.49798 1.14200
N 	N 	0.84360 0.76610 0.51052 -0.23000
N 	N 	0.85999 0.56200 0.54189 -0.09400
N 	N 	0.39940 0.46310 0.04316 -0.26800
N 	N 	0.69058 0.06180 0.19829 -0.20000
O 	O 	0.83198 0.96840 0.43055 -0.40000
O 	O 	0.75431 0.94500 0.42734 -0.39600
O 	O 	0.79513 0.81500 0.06827 -0.31200
O 	O 	0.79621 0.03350 0.05103 -0.43700
C 	C 	0.96620 0.57090 0.69450 0.04600
H 	H 	0.98500 0.64930 0.70810 0.00900
C 	C 	0.92510 0.57160 0.64730 -0.13900
H 	H 	0.91220 0.65230 0.63050 0.08400
C 	C 	0.71666 0.46280 0.09383 0.33000
C 	C 	0.74111 0.48190 0.14859 -0.17000
C 	C 	0.71068 0.51030 0.17261 0.11200
H 	H 	0.67440 0.51250 0.15440 0.00500
C 	C 	0.73289 0.53530 0.22286 -0.22300
H 	H 	0.71160 0.55450 0.23820 0.11000
C 	C 	0.78641 0.53210 0.25056 0.19000
C 	C 	0.81703 0.50010 0.22701 -0.22400
H 	H 	0.85320 0.49520 0.24530 0.11100
C 	C 	0.79424 0.47580 0.17690 0.11800
H 	H 	0.81540 0.45460 0.16170 0.00400
C 	C 	0.71335 0.43630 0.42685 0.37100
C 	C 	0.73612 0.47110 0.39213 -0.18800
C 	C 	0.75469 0.59780 0.39100 0.14200
H 	H 	0.75150 0.66480 0.41110 -0.00100
C 	C 	0.77778 0.62760 0.36108 -0.24100
H 	H 	0.79010 0.71430 0.36110 0.12500
C 	C 	0.78298 0.53080 0.33100 0.19900
C 	C 	0.76322 0.40310 0.33072 -0.23700
H 	H 	0.76550 0.33710 0.30980 0.11700
C 	C 	0.74044 0.37390 0.36087 0.13200
H 	H 	0.72760 0.28760 0.36060 -0.00600
C 	C 	0.07859 0.95060 0.40844 0.13400
H 	H 	0.09640 0.98610 0.39160 -0.02500
C 	C 	0.03146 0.88940 0.38055 -0.22100
H 	H 	0.01900 0.88200 0.34630 0.10800
C 	C 	0.00293 0.83950 0.40296 0.15900
C 	C 	0.02488 0.85440 0.45350 -0.20800
H 	H 	0.00750 0.82210 0.47110 0.10200
C 	C 	0.07280 0.91740 0.47845 0.11100
H 	H 	0.08620 0.92790 0.51270 -0.01600
C 	C 	0.95248 0.76860 0.37510 -0.11100
C 	C 	0.93878 0.66500 0.39782 0.06500
H 	H 	0.96140 0.64180 0.43040 0.00300
C 	C 	0.89213 0.59510 0.37310 -0.18700
H 	H 	0.88410 0.52420 0.38880 0.09800
C 	C 	0.85751 0.63100 0.32505 0.17000
C 	C 	0.87062 0.73350 0.30223 -0.19500
H 	H 	0.84790 0.75810 0.26980 0.10000
C 	C 	0.91764 0.80010 0.32748 0.07200
H 	H 	0.92590 0.86940 0.31140 0.00200
C 	C 	0.66513 0.17820 0.96160 0.08200
H 	H 	0.68640 0.19460 0.94600 0.01300
C 	C 	0.62369 0.20120 0.00481 0.01100
H 	H 	0.61050 0.23830 0.02540 0.02300
C 	C 	0.61351 0.07660 0.98579 -0.01700
H 	H 	0.59240 0.01260 0.99060 0.03500
C 	C 	0.63745 0.94960 0.92677 -0.19600
H 	H 	0.63330 0.86870 0.94280 0.09600
H 	H 	0.67120 0.94310 0.92630 0.11100
C 	C 	0.59705 0.94720 0.87513 0.15900
C 	C 	0.59930 0.86830 0.84193 -0.17300
H 	H 	0.62770 0.81030 0.85140 0.10000
C 	C 	0.56130 0.86620 0.79288 0.01400
H 	H 	0.56560 0.80760 0.77080 0.02500
C 	C 	0.51976 0.94270 0.77636 -0.01500
C 	C 	0.50830 0.98820 0.81340 -0.07700
H 	H 	0.47430 0.01430 0.80590 0.05400
C 	C 	0.54660 0.99550 0.86140 -0.02300
H 	H 	0.53870 0.03380 0.88550 0.04200
Co	Co	0.67768 0.46816 0.00202 1.14200
N 	N 	0.65640 0.26610 0.98948 -0.23000
N 	N 	0.64001 0.06200 0.95811 -0.09500
N 	N 	0.10060 0.96310 0.45684 -0.26800
N 	N 	0.80942 0.56180 0.30171 -0.20100
O 	O 	0.66802 0.46840 0.06945 -0.40000
O 	O 	0.74569 0.44500 0.07266 -0.39600
O 	O 	0.70487 0.31500 0.43173 -0.31200
O 	O 	0.70379 0.53350 0.44897 -0.43800
C 	C 	0.53380 0.07090 0.80550 0.04900
H 	H 	0.51500 0.14930 0.79190 0.00800
C 	C 	0.57490 0.07160 0.85270 -0.14800
H 	H 	0.58780 0.15230 0.86950 0.08700
C 	C 	0.21666 0.96280 0.09383 0.33000
C 	C 	0.24111 0.98190 0.14859 -0.16900
C 	C 	0.21068 0.01030 0.17261 0.11200
H 	H 	0.17440 0.01250 0.15440 0.00500
C 	C 	0.23289 0.03530 0.22286 -0.22200
H 	H 	0.21160 0.05450 0.23820 0.11000
C 	C 	0.28641 0.03210 0.25056 0.18900
C 	C 	0.31703 0.00010 0.22701 -0.21900
H 	H 	0.35320 0.99520 0.24530 0.10800
C 	C 	0.29424 0.97580 0.17690 0.11500
H 	H 	0.31540 0.95460 0.16170 0.00500
C 	C 	0.21335 0.93630 0.42685 0.37100
C 	C 	0.23612 0.97110 0.39213 -0.18800
C 	C 	0.25469 0.09780 0.39100 0.14100
H 	H 	0.25150 0.16480 0.41110 -0.00100
C 	C 	0.27778 0.12760 0.36108 -0.24100
H 	H 	0.29010 0.21430 0.36110 0.12500
C 	C 	0.28298 0.03080 0.33100 0.19900
C 	C 	0.26322 0.90310 0.33072 -0.23800
H 	H 	0.26550 0.83710 0.30980 0.11700
C 	C 	0.24044 0.87390 0.36087 0.13200
H 	H 	0.22760 0.78760 0.36060 -0.00600
C 	C 	0.57859 0.45060 0.40844 0.13500
H 	H 	0.59640 0.48610 0.39160 -0.02600
C 	C 	0.53146 0.38940 0.38055 -0.22100
H 	H 	0.51900 0.38200 0.34630 0.10800
C 	C 	0.50293 0.33950 0.40296 0.16000
C 	C 	0.52488 0.35440 0.45350 -0.20800
H 	H 	0.50750 0.32210 0.47110 0.10300
C 	C 	0.57280 0.41740 0.47845 0.11100
H 	H 	0.58620 0.42790 0.51270 -0.01700
C 	C 	0.45248 0.26860 0.37510 -0.11100
C 	C 	0.43878 0.16500 0.39782 0.06600
H 	H 	0.46140 0.14180 0.43040 0.00300
C 	C 	0.39213 0.09510 0.37310 -0.18700
H 	H 	0.38410 0.02420 0.38880 0.09800
C 	C 	0.35751 0.13100 0.32505 0.17000
C 	C 	0.37062 0.23350 0.30223 -0.19500
H 	H 	0.34790 0.25810 0.26980 0.10000
C 	C 	0.41764 0.30010 0.32748 0.07300
H 	H 	0.42590 0.36940 0.31140 0.00200
C 	C 	0.16513 0.67820 0.96160 0.08200
H 	H 	0.18640 0.69460 0.94600 0.01300
C 	C 	0.12369 0.70120 0.00481 0.00500
H 	H 	0.11050 0.73830 0.02540 0.02500
C 	C 	0.11351 0.57660 0.98579 -0.01300
H 	H 	0.09240 0.51260 0.99060 0.03500
C 	C 	0.13745 0.44960 0.92677 -0.19000
H 	H 	0.13330 0.36870 0.94280 0.09400
H 	H 	0.17120 0.44310 0.92630 0.11000
C 	C 	0.09705 0.44720 0.87513 0.14800
C 	C 	0.09930 0.36830 0.84193 -0.15800
H 	H 	0.12770 0.31030 0.85140 0.09500
C 	C 	0.06130 0.36620 0.79288 -0.00400
H 	H 	0.06560 0.30760 0.77080 0.03100
C 	C 	0.01976 0.44270 0.77636 0.00500
C 	C 	0.00830 0.48820 0.81340 -0.12600
H 	H 	0.97430 0.51430 0.80590 0.07100
C 	C 	0.04660 0.49550 0.86140 0.01400
H 	H 	0.03870 0.53380 0.88550 0.03000
Co	Co	0.17768 0.96816 0.00202 1.14100
N 	N 	0.15640 0.76610 0.98948 -0.22900
N 	N 	0.14001 0.56200 0.95811 -0.09600
N 	N 	0.60060 0.46310 0.45684 -0.26800
N 	N 	0.30942 0.06180 0.30171 -0.20000
O 	O 	0.16802 0.96840 0.06945 -0.40100
O 	O 	0.24569 0.94500 0.07266 -0.39700
O 	O 	0.20487 0.81500 0.43173 -0.31200
O 	O 	0.20379 0.03350 0.44897 -0.43800
C 	C 	0.03380 0.57090 0.80550 0.08100
H 	H 	0.01500 0.64930 0.79190 -0.00200
C 	C 	0.07490 0.57160 0.85270 -0.17600
H 	H 	0.08780 0.65230 0.86950 0.09700
C 	C 	0.71666 0.53720 0.59383 0.33000
C 	C 	0.74111 0.51810 0.64859 -0.17000
C 	C 	0.71068 0.48970 0.67261 0.11200
H 	H 	0.67440 0.48750 0.65440 0.00500
C 	C 	0.73289 0.46470 0.72286 -0.22400
H 	H 	0.71160 0.44550 0.73820 0.11000
C 	C 	0.78641 0.46790 0.75056 0.19000
C 	C 	0.81703 0.49990 0.72701 -0.22400
H 	H 	0.85320 0.50480 0.74530 0.11100
C 	C 	0.79424 0.52420 0.67690 0.11900
H 	H 	0.81540 0.54540 0.66170 0.00400
C 	C 	0.71335 0.56370 0.92685 0.37100
C 	C 	0.73612 0.52890 0.89213 -0.18800
C 	C 	0.75469 0.40220 0.89100 0.14200
H 	H 	0.75150 0.33520 0.91110 -0.00100
C 	C 	0.77778 0.37240 0.86108 -0.24100
H 	H 	0.79010 0.28570 0.86110 0.12500
C 	C 	0.78298 0.46920 0.83100 0.19900
C 	C 	0.76322 0.59690 0.83072 -0.23700
H 	H 	0.76550 0.66290 0.80980 0.11700
C 	C 	0.74044 0.62610 0.86087 0.13200
H 	H 	0.72760 0.71240 0.86060 -0.00600
C 	C 	0.07859 0.04940 0.90844 0.13500
H 	H 	0.09640 0.01390 0.89160 -0.02600
C 	C 	0.03146 0.11060 0.88055 -0.22200
H 	H 	0.01900 0.11800 0.84630 0.10900
C 	C 	0.00293 0.16050 0.90296 0.16100
C 	C 	0.02488 0.14560 0.95350 -0.20900
H 	H 	0.00750 0.17790 0.97110 0.10300
C 	C 	0.07280 0.08260 0.97845 0.11200
H 	H 	0.08620 0.07210 0.01270 -0.01700
C 	C 	0.95248 0.23140 0.87510 -0.11300
C 	C 	0.93878 0.33500 0.89782 0.06600
H 	H 	0.96140 0.35820 0.93040 0.00200
C 	C 	0.89213 0.40490 0.87310 -0.18800
H 	H 	0.88410 0.47580 0.88880 0.09900
C 	C 	0.85751 0.36900 0.82505 0.17100
C 	C 	0.87062 0.26650 0.80223 -0.19600
H 	H 	0.84790 0.24190 0.76980 0.10000
C 	C 	0.91764 0.19990 0.82748 0.07400
H 	H 	0.92590 0.13060 0.81140 0.00200
C 	C 	0.66513 0.82180 0.46160 0.08200
H 	H 	0.68640 0.80540 0.44600 0.01300
C 	C 	0.62369 0.79880 0.50481 0.00800
H 	H 	0.61050 0.76170 0.52540 0.02400
C 	C 	0.61351 0.92340 0.48579 -0.01500
H 	H 	0.59240 0.98740 0.49060 0.03500
C 	C 	0.63745 0.05040 0.42677 -0.19200
H 	H 	0.63330 0.13130 0.44280 0.09400
H 	H 	0.67120 0.05690 0.42630 0.11000
C 	C 	0.59705 0.05280 0.37513 0.15200
C 	C 	0.59930 0.13170 0.34193 -0.16400
H 	H 	0.62770 0.18970 0.35140 0.09700
C 	C 	0.56130 0.13380 0.29288 0.00300
H 	H 	0.56560 0.19240 0.27080 0.02800
C 	C 	0.51976 0.05730 0.27636 -0.00300
C 	C 	0.50830 0.01180 0.31340 -0.10400
H 	H 	0.47430 0.98570 0.30590 0.06300
C 	C 	0.54660 0.00450 0.36140 -0.00100
H 	H 	0.53870 0.96620 0.38550 0.03500
Co	Co	0.67768 0.53184 0.50202 1.14200
N 	N 	0.65640 0.73390 0.48948 -0.23000
N 	N 	0.64001 0.93800 0.45811 -0.09500
N 	N 	0.10060 0.03690 0.95684 -0.26800
N 	N 	0.80942 0.43820 0.80171 -0.20100
O 	O 	0.66802 0.53160 0.56945 -0.40000
O 	O 	0.74569 0.55500 0.57266 -0.39600
O 	O 	0.70487 0.68500 0.93173 -0.31200
O 	O 	0.70379 0.46650 0.94897 -0.43800
C 	C 	0.53380 0.92910 0.30550 0.06500
H 	H 	0.51500 0.85070 0.29190 0.00300
C 	C 	0.57490 0.92840 0.35270 -0.16400
H 	H 	0.58780 0.84770 0.36950 0.09300
C 	C 	0.21666 0.03720 0.59383 0.32900
C 	C 	0.24111 0.01810 0.64859 -0.16900
C 	C 	0.21068 0.98970 0.67261 0.11200
H 	H 	0.17440 0.98750 0.65440 0.00500
C 	C 	0.23289 0.96470 0.72286 -0.22200
H 	H 	0.21160 0.94550 0.73820 0.11000
C 	C 	0.28641 0.96790 0.75056 0.18900
C 	C 	0.31703 0.99990 0.72701 -0.21900
H 	H 	0.35320 0.00480 0.74530 0.10800
C 	C 	0.29424 0.02420 0.67690 0.11500
H 	H 	0.31540 0.04540 0.66170 0.00500
C 	C 	0.21335 0.06370 0.92685 0.37100
C 	C 	0.23612 0.02890 0.89213 -0.18900
C 	C 	0.25469 0.90220 0.89100 0.14300
H 	H 	0.25150 0.83520 0.91110 -0.00200
C 	C 	0.27778 0.87240 0.86108 -0.24200
H 	H 	0.29010 0.78570 0.86110 0.12600
C 	C 	0.28298 0.96920 0.83100 0.20000
C 	C 	0.26322 0.09690 0.83072 -0.23900
H 	H 	0.26550 0.16290 0.80980 0.11700
C 	C 	0.24044 0.12610 0.86087 0.13300
H 	H 	0.22760 0.21240 0.86060 -0.00600
C 	C 	0.57859 0.54940 0.90844 0.13500
H 	H 	0.59640 0.51390 0.89160 -0.02600
C 	C 	0.53146 0.61060 0.88055 -0.22100
H 	H 	0.51900 0.61800 0.84630 0.10800
C 	C 	0.50293 0.66050 0.90296 0.16000
C 	C 	0.52488 0.64560 0.95350 -0.20800
H 	H 	0.50750 0.67790 0.97110 0.10300
C 	C 	0.57280 0.58260 0.97845 0.11100
H 	H 	0.58620 0.57210 0.01270 -0.01700
C 	C 	0.45248 0.73140 0.87510 -0.11100
C 	C 	0.43878 0.83500 0.89782 0.06600
H 	H 	0.46140 0.85820 0.93040 0.00300
C 	C 	0.39213 0.90490 0.87310 -0.18700
H 	H 	0.38410 0.97580 0.88880 0.09900
C 	C 	0.35751 0.86900 0.82505 0.17000
C 	C 	0.37062 0.76650 0.80223 -0.19500
H 	H 	0.34790 0.74190 0.76980 0.10000
C 	C 	0.41764 0.69990 0.82748 0.07300
H 	H 	0.42590 0.63060 0.81140 0.00200
C 	C 	0.16513 0.32180 0.46160 0.08200
H 	H 	0.18640 0.30540 0.44600 0.01300
C 	C 	0.12369 0.29880 0.50481 0.00800
H 	H 	0.11050 0.26170 0.52540 0.02400
C 	C 	0.11351 0.42340 0.48579 -0.01600
H 	H 	0.09240 0.48740 0.49060 0.03500
C 	C 	0.13745 0.55040 0.42677 -0.20000
H 	H 	0.13330 0.63130 0.44280 0.09700
H 	H 	0.17120 0.55690 0.42630 0.11200
C 	C 	0.09705 0.55280 0.37513 0.16300
C 	C 	0.09930 0.63170 0.34193 -0.17900
H 	H 	0.12770 0.68970 0.35140 0.10200
C 	C 	0.06130 0.63380 0.29288 0.02000
H 	H 	0.06560 0.69240 0.27080 0.02200
C 	C 	0.01976 0.55730 0.27636 -0.02300
C 	C 	0.00830 0.51180 0.31340 -0.07000
H 	H 	0.97430 0.48570 0.30590 0.05200
C 	C 	0.04660 0.50450 0.36140 -0.03700
H 	H 	0.03870 0.46620 0.38550 0.04700
Co	Co	0.17768 0.03184 0.50202 1.14200
N 	N 	0.15640 0.23390 0.48948 -0.23000
N 	N 	0.14001 0.43800 0.45811 -0.09400
N 	N 	0.60060 0.53690 0.95684 -0.26800
N 	N 	0.30942 0.93820 0.80171 -0.20000
O 	O 	0.16802 0.03160 0.56945 -0.40000
O 	O 	0.24569 0.05500 0.57266 -0.39600
O 	O 	0.20487 0.18500 0.93173 -0.31200
O 	O 	0.20379 0.96650 0.94897 -0.43700
C 	C 	0.03380 0.42910 0.30550 0.04600
H 	H 	0.01500 0.35070 0.29190 0.00900
C 	C 	0.07490 0.42840 0.35270 -0.13900
H 	H 	0.08780 0.34770 0.36950 0.08400
C 	C 	0.28334 0.53720 0.90617 0.33000
C 	C 	0.25889 0.51810 0.85141 -0.17000
C 	C 	0.28932 0.48970 0.82739 0.11200
H 	H 	0.32560 0.48750 0.84560 0.00500
C 	C 	0.26711 0.46470 0.77714 -0.22300
H 	H 	0.28840 0.44550 0.76180 0.11000
C 	C 	0.21359 0.46790 0.74944 0.19000
C 	C 	0.18297 0.49990 0.77299 -0.22400
H 	H 	0.14680 0.50480 0.75470 0.11100
C 	C 	0.20576 0.52420 0.82310 0.11800
H 	H 	0.18460 0.54540 0.83830 0.00400
C 	C 	0.28665 0.56370 0.57315 0.37100
C 	C 	0.26388 0.52890 0.60787 -0.18800
C 	C 	0.24531 0.40220 0.60900 0.14200
H 	H 	0.24850 0.33520 0.58890 -0.00100
C 	C 	0.22222 0.37240 0.63892 -0.24100
H 	H 	0.20990 0.28570 0.63890 0.12500
C 	C 	0.21702 0.46920 0.66900 0.19900
C 	C 	0.23678 0.59690 0.66928 -0.23700
H 	H 	0.23450 0.66290 0.69020 0.11700
C 	C 	0.25956 0.62610 0.63913 0.13200
H 	H 	0.27240 0.71240 0.63940 -0.00600
C 	C 	0.92141 0.04940 0.59156 0.13400
H 	H 	0.90360 0.01390 0.60840 -0.02500
C 	C 	0.96854 0.11060 0.61945 -0.22100
H 	H 	0.98100 0.11800 0.65370 0.10800
C 	C 	0.99707 0.16050 0.59704 0.15900
C 	C 	0.97512 0.14560 0.54650 -0.20800
H 	H 	0.99250 0.17790 0.52890 0.10200
C 	C 	0.92720 0.08260 0.52155 0.11100
H 	H 	0.91380 0.07210 0.48730 -0.01600
C 	C 	0.04752 0.23140 0.62490 -0.11100
C 	C 	0.06122 0.33500 0.60218 0.06500
H 	H 	0.03860 0.35820 0.56960 0.00300
C 	C 	0.10787 0.40490 0.62690 -0.18700
H 	H 	0.11590 0.47580 0.61120 0.09800
C 	C 	0.14249 0.36900 0.67495 0.17000
C 	C 	0.12938 0.26650 0.69777 -0.19500
H 	H 	0.15210 0.24190 0.73020 0.10000
C 	C 	0.08236 0.19990 0.67252 0.07200
H 	H 	0.07410 0.13060 0.68860 0.00200
C 	C 	0.33487 0.82180 0.03840 0.08200
H 	H 	0.31360 0.80540 0.05400 0.01300
C 	C 	0.37631 0.79880 0.99519 0.01100
H 	H 	0.38950 0.76170 0.97460 0.02300
C 	C 	0.38649 0.92340 0.01421 -0.01700
H 	H 	0.40760 0.98740 0.00940 0.03500
C 	C 	0.36255 0.05040 0.07323 -0.19600
H 	H 	0.36670 0.13130 0.05720 0.09600
H 	H 	0.32880 0.05690 0.07370 0.11100
C 	C 	0.40295 0.05280 0.12487 0.15900
C 	C 	0.40070 0.13170 0.15807 -0.17300
H 	H 	0.37230 0.18970 0.14860 0.10000
C 	C 	0.43870 0.13380 0.20712 0.01400
H 	H 	0.43440 0.19240 0.22920 0.02500
C 	C 	0.48024 0.05730 0.22364 -0.01500
C 	C 	0.49170 0.01180 0.18660 -0.07700
H 	H 	0.52570 0.98570 0.19410 0.05400
C 	C 	0.45340 0.00450 0.13860 -0.02300
H 	H 	0.46130 0.96620 0.11450 0.04200
Co	Co	0.32232 0.53184 0.99798 1.14200
N 	N 	0.34360 0.73390 0.01052 -0.23000
N 	N 	0.35999 0.93800 0.04189 -0.09500
N 	N 	0.89940 0.03690 0.54316 -0.26800
N 	N 	0.19058 0.43820 0.69829 -0.20100
O 	O 	0.33198 0.53160 0.93055 -0.40000
O 	O 	0.25431 0.55500 0.92734 -0.39600
O 	O 	0.29513 0.68500 0.56827 -0.31200
O 	O 	0.29621 0.46650 0.55103 -0.43800
C 	C 	0.46620 0.92910 0.19450 0.04900
H 	H 	0.48500 0.85070 0.20810 0.00800
C 	C 	0.42510 0.92840 0.14730 -0.14800
H 	H 	0.41220 0.84770 0.13050 0.08700
C 	C 	0.78334 0.03720 0.90617 0.33000
C 	C 	0.75889 0.01810 0.85141 -0.16900
C 	C 	0.78932 0.98970 0.82739 0.11200
H 	H 	0.82560 0.98750 0.84560 0.00500
C 	C 	0.76711 0.96470 0.77714 -0.22200
H 	H 	0.78840 0.94550 0.76180 0.11000
C 	C 	0.71359 0.96790 0.74944 0.18900
C 	C 	0.68297 0.99990 0.77299 -0.21900
H 	H 	0.64680 0.00480 0.75470 0.10800
C 	C 	0.70576 0.02420 0.82310 0.11500
H 	H 	0.68460 0.04540 0.83830 0.00500
C 	C 	0.78665 0.06370 0.57315 0.37100
C 	C 	0.76388 0.02890 0.60787 -0.18800
C 	C 	0.74531 0.90220 0.60900 0.14100
H 	H 	0.74850 0.83520 0.58890 -0.00100
C 	C 	0.72222 0.87240 0.63892 -0.24100
H 	H 	0.70990 0.78570 0.63890 0.12500
C 	C 	0.71702 0.96920 0.66900 0.19900
C 	C 	0.73678 0.09690 0.66928 -0.23800
H 	H 	0.73450 0.16290 0.69020 0.11700
C 	C 	0.75956 0.12610 0.63913 0.13200
H 	H 	0.77240 0.21240 0.63940 -0.00600
C 	C 	0.42141 0.54940 0.59156 0.13500
H 	H 	0.40360 0.51390 0.60840 -0.02600
C 	C 	0.46854 0.61060 0.61945 -0.22100
H 	H 	0.48100 0.61800 0.65370 0.10800
C 	C 	0.49707 0.66050 0.59704 0.16000
C 	C 	0.47512 0.64560 0.54650 -0.20800
H 	H 	0.49250 0.67790 0.52890 0.10300
C 	C 	0.42720 0.58260 0.52155 0.11100
H 	H 	0.41380 0.57210 0.48730 -0.01700
C 	C 	0.54752 0.73140 0.62490 -0.11100
C 	C 	0.56122 0.83500 0.60218 0.06600
H 	H 	0.53860 0.85820 0.56960 0.00300
C 	C 	0.60787 0.90490 0.62690 -0.18700
H 	H 	0.61590 0.97580 0.61120 0.09800
C 	C 	0.64249 0.86900 0.67495 0.17000
C 	C 	0.62938 0.76650 0.69777 -0.19500
H 	H 	0.65210 0.74190 0.73020 0.10000
C 	C 	0.58236 0.69990 0.67252 0.07300
H 	H 	0.57410 0.63060 0.68860 0.00200
C 	C 	0.83487 0.32180 0.03840 0.08200
H 	H 	0.81360 0.30540 0.05400 0.01300
C 	C 	0.87631 0.29880 0.99519 0.00500
H 	H 	0.88950 0.26170 0.97460 0.02500
C 	C 	0.88649 0.42340 0.01421 -0.01300
H 	H 	0.90760 0.48740 0.00940 0.03500
C 	C 	0.86255 0.55040 0.07323 -0.19000
H 	H 	0.86670 0.63130 0.05720 0.09400
H 	H 	0.82880 0.55690 0.07370 0.11000
C 	C 	0.90295 0.55280 0.12487 0.14800
C 	C 	0.90070 0.63170 0.15807 -0.15800
H 	H 	0.87230 0.68970 0.14860 0.09500
C 	C 	0.93870 0.63380 0.20712 -0.00400
H 	H 	0.93440 0.69240 0.22920 0.03100
C 	C 	0.98024 0.55730 0.22364 0.00500
C 	C 	0.99170 0.51180 0.18660 -0.12600
H 	H 	0.02570 0.48570 0.19410 0.07100
C 	C 	0.95340 0.50450 0.13860 0.01400
H 	H 	0.96130 0.46620 0.11450 0.03000
Co	Co	0.82232 0.03184 0.99798 1.14100
N 	N 	0.84360 0.23390 0.01052 -0.22900
N 	N 	0.85999 0.43800 0.04189 -0.09600
N 	N 	0.39940 0.53690 0.54316 -0.26800
N 	N 	0.69058 0.93820 0.69829 -0.20000
O 	O 	0.83198 0.03160 0.93055 -0.40100
O 	O 	0.75431 0.05500 0.92734 -0.39700
O 	O 	0.79513 0.18500 0.56827 -0.31200
O 	O 	0.79621 0.96650 0.55103 -0.43800
C 	C 	0.96620 0.42910 0.19450 0.08100
H 	H 	0.98500 0.35070 0.20810 -0.00200
C 	C 	0.92510 0.42840 0.14730 -0.17600
H 	H 	0.91220 0.34770 0.13050 0.09700
