data_crystal

_cell_length_a 9.32650
_cell_length_b 9.65870
_cell_length_c 11.76310
_cell_angle_alpha 75.36300
_cell_angle_beta  78.55500
_cell_angle_gamma 87.17800

_symmetry_space_group_name_	'P 1'
_symmetry_space_group_name_H-M	'P 1'

loop_
_symmetry_equiv_pos_as_xyz
  x,y,z

loop_
_atom_site_label
_atom_site_type_symbol
_atom_site_fract_x
_atom_site_fract_y
_atom_site_fract_z
_atom_site_charge
Zn	Zn	0.55461 0.11495 0.11163 1.22300
O 	O 	0.92570 0.60260 0.37760 -0.22200
O 	O 	0.64300 0.29670 0.09273 -0.44600
N 	N 	0.28770 0.02980 0.45020 -0.12300
O 	O 	0.74280 0.19230 0.24840 -0.30400
C 	C 	0.68740 0.56870 0.12290 -0.02100
H 	H 	0.63310 0.56300 0.06600 0.06300
N 	N 	0.42780 0.04060 0.27280 -0.26300
C 	C 	0.79640 0.70890 0.22590 -0.11200
H 	H 	0.81610 0.79730 0.23740 0.09500
C 	C 	0.71370 0.70160 0.14170 -0.06700
C 	C 	0.82430 0.45370 0.27370 -0.13800
H 	H 	0.86190 0.37080 0.31740 0.09500
C 	C 	0.96780 0.47540 0.45520 0.00500
H 	H 	0.03950 0.42260 0.41090 0.04900
H 	H 	0.88370 0.41440 0.49440 0.04300
C 	C 	0.74210 0.44600 0.18900 -0.02000
C 	C 	0.85000 0.58520 0.29290 0.17700
C 	C 	0.34380 0.89580 0.45150 0.00200
H 	H 	0.32650 0.81500 0.51510 0.04400
C 	C 	0.70900 0.29900 0.17770 0.30400
C 	C 	0.34090 0.11500 0.34070 0.10700
C 	C 	0.42870 0.90310 0.34330 0.01000
H 	H 	0.48010 0.82680 0.31970 0.01600
C 	C 	0.31880 0.27150 0.30720 -0.03200
C 	C 	0.17390 0.06670 0.54470 0.05000
C 	C 	0.37110 0.35630 0.37120 -0.03300
H 	H 	0.41440 0.31270 0.43600 0.04900
C 	C 	0.24270 0.48580 0.17790 -0.03800
H 	H 	0.19910 0.53070 0.11360 0.05800
C 	C 	0.25490 0.33370 0.21200 -0.04900
H 	H 	0.21980 0.27760 0.16980 0.04600
C 	C 	0.35920 0.50310 0.33970 -0.04200
H 	H 	0.39210 0.55940 0.38280 0.04600
C 	C 	0.29670 0.56340 0.24190 -0.02400
H 	H 	0.29100 0.66270 0.21830 0.04100
C 	C 	0.02900 0.98030 0.56200 -0.02000
C 	C 	0.64570 0.83390 0.07740 0.42000
O 	O 	0.67790 0.95060 0.09490 -0.49300
O 	O 	0.56210 0.81920 0.01280 -0.51400
C 	C 	0.98070 0.93400 0.49150 0.01500
Zn	Zn	0.44539 0.88505 0.88837 1.22400
O 	O 	0.07430 0.39740 0.62240 -0.22100
O 	O 	0.35700 0.70330 0.90727 -0.44500
N 	N 	0.71230 0.97020 0.54980 -0.12200
O 	O 	0.25720 0.80770 0.75160 -0.30300
C 	C 	0.31260 0.43130 0.87710 -0.02000
H 	H 	0.36690 0.43700 0.93400 0.06300
N 	N 	0.57220 0.95940 0.72720 -0.26300
C 	C 	0.20360 0.29110 0.77410 -0.11200
H 	H 	0.18390 0.20270 0.76260 0.09500
C 	C 	0.28630 0.29840 0.85830 -0.06700
C 	C 	0.17570 0.54630 0.72630 -0.13800
H 	H 	0.13810 0.62920 0.68260 0.09500
C 	C 	0.03220 0.52460 0.54480 0.00500
H 	H 	0.96050 0.57740 0.58910 0.04900
H 	H 	0.11630 0.58560 0.50560 0.04300
C 	C 	0.25790 0.55400 0.81100 -0.02000
C 	C 	0.15000 0.41480 0.70710 0.17700
C 	C 	0.65620 0.10420 0.54850 0.00200
H 	H 	0.67350 0.18500 0.48490 0.04400
C 	C 	0.29100 0.70100 0.82230 0.30400
C 	C 	0.65910 0.88500 0.65930 0.10700
C 	C 	0.57130 0.09690 0.65670 0.01000
H 	H 	0.51990 0.17320 0.68030 0.01600
C 	C 	0.68120 0.72850 0.69280 -0.03200
C 	C 	0.82610 0.93330 0.45530 0.05000
C 	C 	0.62890 0.64370 0.62880 -0.03300
H 	H 	0.58560 0.68730 0.56400 0.04900
C 	C 	0.75730 0.51420 0.82210 -0.03800
H 	H 	0.80090 0.46930 0.88640 0.05800
C 	C 	0.74510 0.66630 0.78800 -0.04900
H 	H 	0.78020 0.72240 0.83020 0.04600
C 	C 	0.64080 0.49690 0.66030 -0.04200
H 	H 	0.60790 0.44060 0.61720 0.04600
C 	C 	0.70330 0.43660 0.75810 -0.02400
H 	H 	0.70900 0.33730 0.78170 0.04100
C 	C 	0.97100 0.01970 0.43800 -0.02000
C 	C 	0.35430 0.16610 0.92260 0.42000
O 	O 	0.32210 0.04940 0.90510 -0.49300
O 	O 	0.43790 0.18080 0.98720 -0.51400
C 	C 	0.01930 0.06600 0.50850 0.01500
