data_crystal

_cell_length_a 14.61630
_cell_length_b 26.06250
_cell_length_c 12.67840
_cell_angle_alpha 90.00000
_cell_angle_beta  105.04600
_cell_angle_gamma 90.00000

_symmetry_space_group_name_	'P 1'
_symmetry_space_group_name_H-M	'P 1'

loop_
_symmetry_equiv_pos_as_xyz
  x,y,z

loop_
_atom_site_label
_atom_site_type_symbol
_atom_site_fract_x
_atom_site_fract_y
_atom_site_fract_z
_atom_site_charge
Er	Er	0.22533 0.46538 0.30476 2.04500
Er	Er	0.24874 0.21581 0.18151 2.07300
Er	Er	0.28169 0.71437 0.19605 2.06000
Er	Er	0.24379 0.53473 0.80814 2.09700
O 	O 	0.37560 0.47070 0.43410 -0.41700
O 	O 	0.37500 0.48310 0.26590 -0.39700
O 	O 	0.10360 0.25512 0.06850 -0.37700
O 	O 	0.10170 0.22478 0.22830 -0.39800
O 	O 	0.13110 0.72030 0.07190 -0.43200
O 	O 	0.13400 0.73475 0.23910 -0.40700
O 	O 	0.38860 0.49960 0.92390 -0.39100
O 	O 	0.39100 0.52367 0.76000 -0.39000
O 	O 	0.26370 0.38480 0.25190 -0.50700
O 	O 	0.26670 0.30108 0.23040 -0.52300
O 	O 	0.40050 0.19241 0.21220 -0.56000
O 	O 	0.55380 0.20886 0.25940 -0.52900
O 	O 	0.29670 0.80205 0.23080 -0.49000
O 	O 	0.27450 0.88471 0.24570 -0.50100
O 	O 	0.21540 0.55303 0.26630 -0.50200
O 	O 	0.24680 0.63508 0.25860 -0.51200
O 	O 	0.18700 0.46793 0.11250 -0.46100
O 	O 	0.19140 0.49103 0.94670 -0.45300
O 	O 	0.18410 0.51278 0.44480 -0.45700
O 	O 	0.18840 0.53382 0.61540 -0.47000
O 	O 	0.06310 0.45692 0.24670 -0.53800
O 	O 	0.91060 0.44186 0.22530 -0.55700
O 	O 	0.19220 0.40598 0.42730 -0.52000
O 	O 	0.20230 0.33819 0.53260 -0.52500
O 	O 	0.30260 0.21706 0.37610 -0.44200
O 	O 	0.30220 0.24204 0.54250 -0.44100
O 	O 	0.22850 0.13384 0.24410 -0.52900
O 	O 	0.22920 0.05014 0.26030 -0.54300
O 	O 	0.30230 0.65262 0.07260 -0.53000
O 	O 	0.27730 0.58902 0.95500 -0.55100
O 	O 	0.32240 0.75930 0.05360 -0.46300
O 	O 	0.32780 0.78028 0.88730 -0.47600
C 	C 	0.41740 0.48380 0.36370 0.38100
H 	H 	0.48180 0.49420 0.38560 -0.04300
C 	C 	0.06230 0.24680 0.14170 0.36300
H 	H 	0.99850 0.25780 0.13060 -0.03300
C 	C 	0.09150 0.73410 0.14220 0.40300
H 	H 	0.02700 0.74440 0.12070 -0.04600
C 	C 	0.43050 0.50480 0.85180 0.36200
H 	H 	0.49470 0.49430 0.86610 -0.02900
C 	C 	0.22610 0.34130 0.24250 0.64700
H 	H 	0.16180 0.33910 0.24470 -0.17700
C 	C 	0.48570 0.18110 0.22700 0.72100
H 	H 	0.49890 0.14660 0.21100 -0.18400
C 	C 	0.24840 0.83980 0.24570 0.62900
H 	H 	0.18790 0.83330 0.25770 -0.17100
C 	C 	0.26800 0.58910 0.25750 0.64000
H 	H 	0.32910 0.58090 0.24940 -0.17000
C 	C 	0.22520 0.48960 0.04770 0.57900
H 	H 	0.28410 0.50630 0.07710 -0.13900
C 	C 	0.21630 0.50940 0.54650 0.58900
H 	H 	0.26670 0.48580 0.57270 -0.15900
C 	C 	0.99570 0.43080 0.25230 0.72300
H 	H 	0.01050 0.39730 0.28130 -0.17800
C 	C 	0.23700 0.37510 0.49510 0.64600
H 	H 	0.30350 0.38010 0.52060 -0.18400
C 	C 	0.26590 0.24040 0.44030 0.54500
H 	H 	0.20780 0.25790 0.41130 -0.13700
C 	C 	0.26560 0.09180 0.24890 0.70400
H 	H 	0.32920 0.09090 0.24330 -0.19100
C 	C 	0.25200 0.62670 0.99760 0.67800
H 	H 	0.18780 0.63710 0.97060 -0.18600
C 	C 	0.29230 0.75710 0.95260 0.60000
H 	H 	0.23830 0.73620 0.92330 -0.15800
Er	Er	0.77467 0.96538 0.19524 2.04000
Er	Er	0.75126 0.71581 0.31849 2.07300
Er	Er	0.71831 0.21437 0.30395 2.05900
Er	Er	0.75621 0.03473 0.69186 2.09200
O 	O 	0.62440 0.97070 0.06590 -0.41900
O 	O 	0.62500 0.98310 0.23410 -0.39800
O 	O 	0.89640 0.75512 0.43150 -0.37800
O 	O 	0.89830 0.72478 0.27170 -0.39900
O 	O 	0.86890 0.22030 0.42810 -0.43300
O 	O 	0.86600 0.23475 0.26090 -0.40800
O 	O 	0.61140 0.99960 0.57610 -0.38800
O 	O 	0.60900 0.02367 0.74000 -0.39000
O 	O 	0.73630 0.88480 0.24810 -0.50700
O 	O 	0.73330 0.80108 0.26960 -0.52300
O 	O 	0.59950 0.69241 0.28780 -0.56000
O 	O 	0.44620 0.70886 0.24060 -0.52900
O 	O 	0.70330 0.30205 0.26920 -0.49000
O 	O 	0.72550 0.38471 0.25430 -0.50100
O 	O 	0.78460 0.05303 0.23370 -0.50100
O 	O 	0.75320 0.13508 0.24140 -0.51200
O 	O 	0.81300 0.96793 0.38750 -0.46100
O 	O 	0.80860 0.99103 0.55330 -0.45000
O 	O 	0.81590 0.01278 0.05520 -0.45200
O 	O 	0.81160 0.03382 0.88460 -0.46700
O 	O 	0.93690 0.95692 0.25330 -0.53900
O 	O 	0.08940 0.94186 0.27470 -0.55700
O 	O 	0.80780 0.90598 0.07270 -0.51700
O 	O 	0.79770 0.83819 0.96740 -0.51900
O 	O 	0.69740 0.71706 0.12390 -0.44100
O 	O 	0.69780 0.74204 0.95750 -0.43800
O 	O 	0.77150 0.63384 0.25590 -0.53000
O 	O 	0.77080 0.55014 0.23970 -0.54500
O 	O 	0.69770 0.15262 0.42740 -0.53000
O 	O 	0.72270 0.08902 0.54500 -0.55100
O 	O 	0.67760 0.25930 0.44640 -0.46100
O 	O 	0.67220 0.28028 0.61270 -0.47600
C 	C 	0.58260 0.98380 0.13630 0.38100
H 	H 	0.51820 0.99420 0.11440 -0.04400
C 	C 	0.93770 0.74680 0.35830 0.36000
H 	H 	0.00150 0.75780 0.36940 -0.03200
C 	C 	0.90850 0.23410 0.35780 0.40200
H 	H 	0.97300 0.24440 0.37930 -0.04600
C 	C 	0.56950 0.00480 0.64820 0.35800
H 	H 	0.50530 0.99430 0.63390 -0.02700
C 	C 	0.77390 0.84130 0.25750 0.64700
H 	H 	0.83820 0.83910 0.25530 -0.17700
C 	C 	0.51430 0.68110 0.27300 0.72100
H 	H 	0.50110 0.64660 0.28900 -0.18400
C 	C 	0.75160 0.33980 0.25430 0.62900
H 	H 	0.81210 0.33330 0.24230 -0.17100
C 	C 	0.73200 0.08910 0.24250 0.64000
H 	H 	0.67090 0.08090 0.25060 -0.16900
C 	C 	0.77480 0.98960 0.45230 0.57700
H 	H 	0.71590 0.00630 0.42290 -0.13800
C 	C 	0.78370 0.00940 0.95350 0.57600
H 	H 	0.73330 0.98580 0.92730 -0.15100
C 	C 	0.00430 0.93080 0.24770 0.72500
H 	H 	0.98950 0.89730 0.21870 -0.17900
C 	C 	0.76300 0.87510 0.00490 0.63200
H 	H 	0.69650 0.88010 0.97940 -0.17800
C 	C 	0.73410 0.74040 0.05970 0.54100
H 	H 	0.79220 0.75790 0.08870 -0.13700
C 	C 	0.73440 0.59180 0.25110 0.70500
H 	H 	0.67080 0.59090 0.25670 -0.19200
C 	C 	0.74800 0.12670 0.50240 0.67700
H 	H 	0.81220 0.13710 0.52940 -0.18600
C 	C 	0.70770 0.25710 0.54740 0.59800
H 	H 	0.76170 0.23620 0.57670 -0.15800
Er	Er	0.77467 0.53462 0.69524 2.04400
Er	Er	0.75126 0.78419 0.81849 2.07200
Er	Er	0.71831 0.28563 0.80395 2.05900
Er	Er	0.75621 0.46527 0.19186 2.09600
O 	O 	0.62440 0.52930 0.56590 -0.41800
O 	O 	0.62500 0.51690 0.73410 -0.39800
O 	O 	0.89640 0.74488 0.93150 -0.37800
O 	O 	0.89830 0.77522 0.77170 -0.39900
O 	O 	0.86890 0.27970 0.92810 -0.43300
O 	O 	0.86600 0.26525 0.76090 -0.40800
O 	O 	0.61140 0.50040 0.07610 -0.39100
O 	O 	0.60900 0.47633 0.24000 -0.39000
O 	O 	0.73630 0.61520 0.74810 -0.50700
O 	O 	0.73330 0.69892 0.76960 -0.52300
O 	O 	0.59950 0.80759 0.78780 -0.56000
O 	O 	0.44620 0.79114 0.74060 -0.52900
O 	O 	0.70330 0.19795 0.76920 -0.49000
O 	O 	0.72550 0.11529 0.75430 -0.50100
O 	O 	0.78460 0.44697 0.73370 -0.50200
O 	O 	0.75320 0.36492 0.74140 -0.51200
O 	O 	0.81300 0.53207 0.88750 -0.46100
O 	O 	0.80860 0.50897 0.05330 -0.45300
O 	O 	0.81590 0.48722 0.55520 -0.45700
O 	O 	0.81160 0.46618 0.38460 -0.47000
O 	O 	0.93690 0.54308 0.75330 -0.53800
O 	O 	0.08940 0.55814 0.77470 -0.55700
O 	O 	0.80780 0.59402 0.57270 -0.52000
O 	O 	0.79770 0.66181 0.46740 -0.52500
O 	O 	0.69740 0.78294 0.62390 -0.44200
O 	O 	0.69780 0.75796 0.45750 -0.44100
O 	O 	0.77150 0.86616 0.75590 -0.52900
O 	O 	0.77080 0.94986 0.73970 -0.54300
O 	O 	0.69770 0.34738 0.92740 -0.53000
O 	O 	0.72270 0.41098 0.04500 -0.55100
O 	O 	0.67760 0.24070 0.94640 -0.46300
O 	O 	0.67220 0.21972 0.11270 -0.47600
C 	C 	0.58260 0.51620 0.63630 0.38100
H 	H 	0.51820 0.50580 0.61440 -0.04300
C 	C 	0.93770 0.75320 0.85830 0.36300
H 	H 	0.00150 0.74220 0.86940 -0.03300
C 	C 	0.90850 0.26590 0.85780 0.40300
H 	H 	0.97300 0.25560 0.87930 -0.04600
C 	C 	0.56950 0.49520 0.14820 0.36200
H 	H 	0.50530 0.50570 0.13390 -0.02900
C 	C 	0.77390 0.65870 0.75750 0.64700
H 	H 	0.83820 0.66090 0.75530 -0.17700
C 	C 	0.51430 0.81890 0.77300 0.72100
H 	H 	0.50110 0.85340 0.78900 -0.18400
C 	C 	0.75160 0.16020 0.75430 0.62900
H 	H 	0.81210 0.16670 0.74230 -0.17100
C 	C 	0.73200 0.41090 0.74250 0.64000
H 	H 	0.67090 0.41910 0.75060 -0.17000
C 	C 	0.77480 0.51040 0.95230 0.57900
H 	H 	0.71590 0.49370 0.92290 -0.13900
C 	C 	0.78370 0.49060 0.45350 0.58900
H 	H 	0.73330 0.51420 0.42730 -0.15900
C 	C 	0.00430 0.56920 0.74770 0.72300
H 	H 	0.98950 0.60270 0.71870 -0.17800
C 	C 	0.76300 0.62490 0.50490 0.64600
H 	H 	0.69650 0.61990 0.47940 -0.18400
C 	C 	0.73410 0.75960 0.55970 0.54500
H 	H 	0.79220 0.74210 0.58870 -0.13700
C 	C 	0.73440 0.90820 0.75110 0.70400
H 	H 	0.67080 0.90910 0.75670 -0.19100
C 	C 	0.74800 0.37330 0.00240 0.67800
H 	H 	0.81220 0.36290 0.02940 -0.18600
C 	C 	0.70770 0.24290 0.04740 0.60000
H 	H 	0.76170 0.26380 0.07670 -0.15800
Er	Er	0.22533 0.03462 0.80476 2.04000
Er	Er	0.24874 0.28419 0.68151 2.07300
Er	Er	0.28169 0.78563 0.69605 2.05900
Er	Er	0.24379 0.96527 0.30814 2.09200
O 	O 	0.37560 0.02930 0.93410 -0.41900
O 	O 	0.37500 0.01690 0.76590 -0.39800
O 	O 	0.10360 0.24488 0.56850 -0.37800
O 	O 	0.10170 0.27522 0.72830 -0.39900
O 	O 	0.13110 0.77970 0.57190 -0.43300
O 	O 	0.13400 0.76525 0.73910 -0.40800
O 	O 	0.38860 0.00040 0.42390 -0.38800
O 	O 	0.39100 0.97633 0.26000 -0.39000
O 	O 	0.26370 0.11520 0.75190 -0.50700
O 	O 	0.26670 0.19892 0.73040 -0.52300
O 	O 	0.40050 0.30759 0.71220 -0.56000
O 	O 	0.55380 0.29114 0.75940 -0.52900
O 	O 	0.29670 0.69795 0.73080 -0.49000
O 	O 	0.27450 0.61529 0.74570 -0.50100
O 	O 	0.21540 0.94697 0.76630 -0.50100
O 	O 	0.24680 0.86492 0.75860 -0.51200
O 	O 	0.18700 0.03207 0.61250 -0.46100
O 	O 	0.19140 0.00897 0.44670 -0.45000
O 	O 	0.18410 0.98722 0.94480 -0.45200
O 	O 	0.18840 0.96618 0.11540 -0.46700
O 	O 	0.06310 0.04308 0.74670 -0.53900
O 	O 	0.91060 0.05814 0.72530 -0.55700
O 	O 	0.19220 0.09402 0.92730 -0.51700
O 	O 	0.20230 0.16181 0.03260 -0.51900
O 	O 	0.30260 0.28294 0.87610 -0.44100
O 	O 	0.30220 0.25796 0.04250 -0.43800
O 	O 	0.22850 0.36616 0.74410 -0.53000
O 	O 	0.22920 0.44986 0.76030 -0.54500
O 	O 	0.30230 0.84738 0.57260 -0.53000
O 	O 	0.27730 0.91098 0.45500 -0.55100
O 	O 	0.32240 0.74070 0.55360 -0.46100
O 	O 	0.32780 0.71972 0.38730 -0.47600
C 	C 	0.41740 0.01620 0.86370 0.38100
H 	H 	0.48180 0.00580 0.88560 -0.04400
C 	C 	0.06230 0.25320 0.64170 0.36000
H 	H 	0.99850 0.24220 0.63060 -0.03200
C 	C 	0.09150 0.76590 0.64220 0.40200
H 	H 	0.02700 0.75560 0.62070 -0.04600
C 	C 	0.43050 0.99520 0.35180 0.35800
H 	H 	0.49470 0.00570 0.36610 -0.02700
C 	C 	0.22610 0.15870 0.74250 0.64700
H 	H 	0.16180 0.16090 0.74470 -0.17700
C 	C 	0.48570 0.31890 0.72700 0.72100
H 	H 	0.49890 0.35340 0.71100 -0.18400
C 	C 	0.24840 0.66020 0.74570 0.62900
H 	H 	0.18790 0.66670 0.75770 -0.17100
C 	C 	0.26800 0.91090 0.75750 0.64000
H 	H 	0.32910 0.91910 0.74940 -0.16900
C 	C 	0.22520 0.01040 0.54770 0.57700
H 	H 	0.28410 0.99370 0.57710 -0.13800
C 	C 	0.21630 0.99060 0.04650 0.57600
H 	H 	0.26670 0.01420 0.07270 -0.15100
C 	C 	0.99570 0.06920 0.75230 0.72500
H 	H 	0.01050 0.10270 0.78130 -0.17900
C 	C 	0.23700 0.12490 0.99510 0.63200
H 	H 	0.30350 0.11990 0.02060 -0.17800
C 	C 	0.26590 0.25960 0.94030 0.54100
H 	H 	0.20780 0.24210 0.91130 -0.13700
C 	C 	0.26560 0.40820 0.74890 0.70500
H 	H 	0.32920 0.40910 0.74330 -0.19200
C 	C 	0.25200 0.87330 0.49760 0.67700
H 	H 	0.18780 0.86290 0.47060 -0.18600
C 	C 	0.29230 0.74290 0.45260 0.59800
H 	H 	0.23830 0.76380 0.42330 -0.15800
