data_crystal

_cell_length_a 18.09390
_cell_length_b 13.31150
_cell_length_c 8.57750
_cell_angle_alpha 90.00000
_cell_angle_beta  90.00000
_cell_angle_gamma 90.00000

_symmetry_space_group_name_	'P 1'
_symmetry_space_group_name_H-M	'P 1'

loop_
_symmetry_equiv_pos_as_xyz
  x,y,z

loop_
_atom_site_label
_atom_site_type_symbol
_atom_site_fract_x
_atom_site_fract_y
_atom_site_fract_z
_atom_site_charge
Er	Er	0.60102 0.37458 0.25264 2.10300
Er	Er	0.39380 0.12491 0.75236 2.08500
O 	O 	0.56390 0.29410 0.48110 -0.53600
O 	O 	0.49710 0.21080 0.65210 -0.50900
O 	O 	0.64800 0.20570 0.23330 -0.42200
O 	O 	0.64780 0.04150 0.28190 -0.48800
O 	O 	0.70320 0.38640 0.42050 -0.57500
O 	O 	0.79570 0.38110 0.58150 -0.50900
O 	O 	0.70110 0.36600 0.09100 -0.48200
O 	O 	0.79150 0.36780 0.92390 -0.52000
O 	O 	0.64770 0.54330 0.23820 -0.47000
O 	O 	0.64750 0.70760 0.19590 -0.45100
O 	O 	0.50340 0.46710 0.33840 -0.52000
O 	O 	0.43430 0.55320 0.50770 -0.46200
O 	O 	0.50180 0.27980 0.15330 -0.49200
O 	O 	0.42710 0.21590 0.97310 -0.47600
O 	O 	0.49710 0.04060 0.84960 -0.51200
O 	O 	0.57190 0.96280 0.01640 -0.46300
C 	C 	0.51020 0.24680 0.52060 0.65800
H 	H 	0.47370 0.23570 0.44280 -0.18100
C 	C 	0.61550 0.11860 0.26290 0.56500
H 	H 	0.56310 0.11750 0.26940 -0.15900
C 	C 	0.73250 0.35420 0.52500 0.77300
H 	H 	0.70790 0.30120 0.57780 -0.18900
C 	C 	0.73300 0.39520 0.96090 0.68600
H 	H 	0.70730 0.44050 0.89450 -0.16100
C 	C 	0.61650 0.62170 0.21410 0.58500
H 	H 	0.56410 0.61980 0.20810 -0.16500
C 	C 	0.49320 0.50690 0.46720 0.57300
H 	H 	0.53200 0.50280 0.54150 -0.15800
C 	C 	0.48810 0.24860 0.02030 0.57100
H 	H 	0.52750 0.24960 0.94720 -0.14700
C 	C 	0.51050 0.00090 0.97490 0.61500
H 	H 	0.47130 0.99830 0.04840 -0.17700
Er	Er	0.39898 0.62542 0.75264 2.10200
Er	Er	0.60620 0.87509 0.25236 2.08000
O 	O 	0.43610 0.70590 0.98110 -0.51200
O 	O 	0.50290 0.78920 0.15210 -0.49700
O 	O 	0.35200 0.79430 0.73330 -0.41900
O 	O 	0.35220 0.95850 0.78190 -0.48500
O 	O 	0.29680 0.61360 0.92050 -0.56300
O 	O 	0.20430 0.61890 0.08150 -0.50600
O 	O 	0.29890 0.63400 0.59100 -0.47100
O 	O 	0.20850 0.63220 0.42390 -0.51700
O 	O 	0.35230 0.45670 0.73820 -0.46800
O 	O 	0.35250 0.29240 0.69590 -0.45000
O 	O 	0.49660 0.53290 0.83840 -0.52700
O 	O 	0.56570 0.44680 0.00770 -0.47800
O 	O 	0.49820 0.72020 0.65330 -0.49700
O 	O 	0.57290 0.78410 0.47310 -0.48600
O 	O 	0.50290 0.95940 0.34960 -0.50500
O 	O 	0.42810 0.03720 0.51640 -0.44800
C 	C 	0.48980 0.75320 0.02060 0.60900
H 	H 	0.52630 0.76430 0.94280 -0.15600
C 	C 	0.38450 0.88140 0.76290 0.56500
H 	H 	0.43690 0.88250 0.76940 -0.15800
C 	C 	0.26750 0.64580 0.02500 0.75400
H 	H 	0.29210 0.69880 0.07780 -0.18700
C 	C 	0.26700 0.60480 0.46090 0.66900
H 	H 	0.29270 0.55950 0.39450 -0.15800
C 	C 	0.38350 0.37830 0.71410 0.58600
H 	H 	0.43590 0.38020 0.70810 -0.16400
C 	C 	0.50680 0.49310 0.96720 0.60700
H 	H 	0.46800 0.49720 0.04150 -0.17600
C 	C 	0.51190 0.75140 0.52030 0.59500
H 	H 	0.47250 0.75040 0.44720 -0.16000
C 	C 	0.48950 0.99910 0.47490 0.58600
H 	H 	0.52870 0.00170 0.54840 -0.16100
Er	Er	0.10102 0.12542 0.25264 2.09800
Er	Er	0.89380 0.37509 0.75236 2.08900
O 	O 	0.06390 0.20590 0.48110 -0.53100
O 	O 	0.99710 0.28920 0.65210 -0.50000
O 	O 	0.14800 0.29430 0.23330 -0.42100
O 	O 	0.14780 0.45850 0.28190 -0.48900
O 	O 	0.20320 0.11360 0.42050 -0.57500
O 	O 	0.29570 0.11890 0.58150 -0.50900
O 	O 	0.20110 0.13400 0.09100 -0.47400
O 	O 	0.29150 0.13220 0.92390 -0.51800
O 	O 	0.14770 0.95670 0.23820 -0.46800
O 	O 	0.14750 0.79240 0.19590 -0.45000
O 	O 	0.00340 0.03290 0.33840 -0.52100
O 	O 	0.93430 0.94680 0.50770 -0.46100
O 	O 	0.00180 0.22020 0.15330 -0.49100
O 	O 	0.92710 0.28410 0.97310 -0.47000
O 	O 	0.99710 0.45940 0.84960 -0.50000
O 	O 	0.07190 0.53720 0.01640 -0.45200
C 	C 	0.01020 0.25320 0.52060 0.64000
H 	H 	0.97370 0.26430 0.44280 -0.17300
C 	C 	0.11550 0.38140 0.26290 0.56500
H 	H 	0.06310 0.38250 0.26940 -0.16000
C 	C 	0.23250 0.14580 0.52500 0.77200
H 	H 	0.20790 0.19880 0.57780 -0.19000
C 	C 	0.23300 0.10480 0.96090 0.67300
H 	H 	0.20730 0.05950 0.89450 -0.16000
C 	C 	0.11650 0.87830 0.21410 0.58400
H 	H 	0.06410 0.88020 0.20810 -0.16300
C 	C 	0.99320 0.99310 0.46720 0.56800
H 	H 	0.03200 0.99720 0.54150 -0.15500
C 	C 	0.98810 0.25140 0.02030 0.56800
H 	H 	0.02750 0.25040 0.94720 -0.15200
C 	C 	0.01050 0.49910 0.97490 0.59200
H 	H 	0.97130 0.50170 0.04840 -0.17000
Er	Er	0.89898 0.87458 0.75264 2.09600
Er	Er	0.10620 0.62491 0.25236 2.08200
O 	O 	0.93610 0.79410 0.98110 -0.50200
O 	O 	0.00290 0.71080 0.15210 -0.48900
O 	O 	0.85200 0.70570 0.73330 -0.41900
O 	O 	0.85220 0.54150 0.78190 -0.48700
O 	O 	0.79680 0.88640 0.92050 -0.55000
O 	O 	0.70430 0.88110 0.08150 -0.50300
O 	O 	0.79890 0.86600 0.59100 -0.47000
O 	O 	0.70850 0.86780 0.42390 -0.51700
O 	O 	0.85230 0.04330 0.73820 -0.46700
O 	O 	0.85250 0.20760 0.69590 -0.44900
O 	O 	0.99660 0.96710 0.83840 -0.50400
O 	O 	0.06570 0.05320 0.00770 -0.45600
O 	O 	0.99820 0.77980 0.65330 -0.49500
O 	O 	0.07290 0.71590 0.47310 -0.48600
O 	O 	0.00290 0.54060 0.34960 -0.50700
O 	O 	0.92810 0.46280 0.51640 -0.44900
C 	C 	0.98980 0.74680 0.02060 0.58900
H 	H 	0.02630 0.73570 0.94280 -0.15300
C 	C 	0.88450 0.61860 0.76290 0.56600
H 	H 	0.93690 0.61750 0.76940 -0.15800
C 	C 	0.76750 0.85420 0.02500 0.73400
H 	H 	0.79210 0.80120 0.07780 -0.18200
C 	C 	0.76700 0.89520 0.46090 0.66900
H 	H 	0.79270 0.94050 0.39450 -0.15900
C 	C 	0.88350 0.12170 0.71410 0.58500
H 	H 	0.93590 0.11980 0.70810 -0.16200
C 	C 	0.00680 0.00690 0.96720 0.54700
H 	H 	0.96800 0.00280 0.04150 -0.15100
C 	C 	0.01190 0.74860 0.52030 0.59300
H 	H 	0.97250 0.74960 0.44720 -0.16100
C 	C 	0.98950 0.50090 0.47490 0.58900
H 	H 	0.02870 0.49830 0.54840 -0.16400
