data_crystal

_cell_length_a 18.42020
_cell_length_b 9.55100
_cell_length_c 33.87900
_cell_angle_alpha 90.00000
_cell_angle_beta  92.71800
_cell_angle_gamma 90.00000

_symmetry_space_group_name_	'P 1'
_symmetry_space_group_name_H-M	'P 1'

loop_
_symmetry_equiv_pos_as_xyz
  x,y,z

loop_
_atom_site_label
_atom_site_type_symbol
_atom_site_fract_x
_atom_site_fract_y
_atom_site_fract_z
_atom_site_charge
Mn	Mn	0.47987 0.64725 0.02827 1.27200
C 	C 	0.61070 0.83150 0.05090 0.46700
C 	C 	0.66600 0.87100 0.08330 -0.33700
C 	C 	0.71760 0.97160 0.07670 0.37600
H 	H 	0.71720 0.01620 0.05230 -0.11000
C 	C 	0.76980 0.00780 0.10530 -0.50200
H 	H 	0.80540 0.07310 0.10000 0.21400
C 	C 	0.76820 0.94560 0.14180 0.45300
C 	C 	0.71600 0.84600 0.14950 -0.44400
H 	H 	0.71510 0.80500 0.17430 0.19800
C 	C 	0.66580 0.80780 0.12010 0.30700
H 	H 	0.63150 0.73920 0.12500 -0.06300
C 	C 	0.98710 0.81080 0.44990 0.55400
C 	C 	0.96880 0.80510 0.40780 -0.41000
C 	C 	0.98390 0.91630 0.38260 0.43200
H 	H 	0.00740 0.99520 0.39300 -0.13600
C 	C 	0.96520 0.91240 0.34330 -0.48300
H 	H 	0.97600 0.98690 0.32690 0.22900
C 	C 	0.92940 0.79370 0.32810 0.44900
C 	C 	0.91510 0.68280 0.35170 -0.46300
H 	H 	0.89240 0.60350 0.34110 0.20800
C 	C 	0.93410 0.68810 0.39100 0.35600
H 	H 	0.92370 0.61220 0.40700 -0.07900
C 	C 	0.56900 0.85190 0.41880 0.42200
C 	C 	0.59830 0.91130 0.38200 -0.19300
C 	C 	0.62060 0.82160 0.35290 0.15100
H 	H 	0.61330 0.72580 0.35550 0.00300
C 	C 	0.65400 0.87330 0.31980 -0.26400
H 	H 	0.66780 0.81310 0.29990 0.13900
C 	C 	0.66620 0.01560 0.31700 0.29200
C 	C 	0.64070 0.10590 0.34500 -0.27800
H 	H 	0.64630 0.20210 0.34200 0.14900
C 	C 	0.60690 0.05390 0.37750 0.14400
H 	H 	0.58990 0.11500 0.39630 -0.00900
C 	C 	0.81530 0.96150 0.20890 0.49900
C 	C 	0.86890 0.88690 0.22920 -0.53000
H 	H 	0.90720 0.84700 0.21630 0.26000
C 	C 	0.86390 0.87320 0.26910 0.48800
C 	C 	0.80780 0.93190 0.28920 -0.52200
H 	H 	0.80560 0.92100 0.31640 0.22300
C 	C 	0.75570 0.00620 0.26810 0.46500
C 	C 	0.75860 0.02430 0.22770 -0.54600
H 	H 	0.72360 0.07670 0.21360 0.23500
O 	O 	0.59850 0.91890 0.02441 -0.47500
O 	O 	0.58200 0.71090 0.05311 -0.47400
O 	O 	0.01010 0.92510 0.46540 -0.63300
O 	O 	0.97530 0.70810 0.47258 -0.56000
O 	O 	0.56500 0.72120 0.42120 -0.47500
O 	O 	0.55160 0.93130 0.44610 -0.46900
O 	O 	0.82410 0.98250 0.16857 -0.38200
O 	O 	0.91550 0.78370 0.28772 -0.37000
O 	O 	0.69940 0.07530 0.28530 -0.35000
Mn	Mn	0.97987 0.14725 0.02827 1.27700
C 	C 	0.11070 0.33150 0.05090 0.44100
C 	C 	0.16600 0.37100 0.08330 -0.27200
C 	C 	0.21760 0.47160 0.07670 0.23400
H 	H 	0.21720 0.51620 0.05230 -0.04900
C 	C 	0.26980 0.50780 0.10530 -0.36400
H 	H 	0.30540 0.57310 0.10000 0.17000
C 	C 	0.26820 0.44560 0.14180 0.36600
C 	C 	0.21600 0.34600 0.14950 -0.37400
H 	H 	0.21510 0.30500 0.17430 0.17000
C 	C 	0.16580 0.30780 0.12010 0.23600
H 	H 	0.13150 0.23920 0.12500 -0.04800
C 	C 	0.48710 0.31080 0.44990 0.47800
C 	C 	0.46880 0.30510 0.40780 -0.33700
C 	C 	0.48390 0.41630 0.38260 0.28300
H 	H 	0.50740 0.49520 0.39300 -0.06400
C 	C 	0.46520 0.41240 0.34330 -0.39400
H 	H 	0.47600 0.48690 0.32690 0.18200
C 	C 	0.42940 0.29370 0.32810 0.39100
C 	C 	0.41510 0.18280 0.35170 -0.40700
H 	H 	0.39240 0.10350 0.34110 0.18000
C 	C 	0.43410 0.18810 0.39100 0.28500
H 	H 	0.42370 0.11220 0.40700 -0.06500
C 	C 	0.06900 0.35190 0.41880 0.44300
C 	C 	0.09830 0.41130 0.38200 -0.26600
C 	C 	0.12060 0.32160 0.35290 0.21000
H 	H 	0.11330 0.22580 0.35550 -0.02600
C 	C 	0.15400 0.37330 0.31980 -0.34400
H 	H 	0.16780 0.31310 0.29990 0.15900
C 	C 	0.16620 0.51560 0.31700 0.35600
C 	C 	0.14070 0.60590 0.34500 -0.34300
H 	H 	0.14630 0.70210 0.34200 0.16900
C 	C 	0.10690 0.55390 0.37750 0.22200
H 	H 	0.08990 0.61500 0.39630 -0.04000
C 	C 	0.31530 0.46150 0.20890 0.46900
C 	C 	0.36890 0.38690 0.22920 -0.52100
H 	H 	0.40720 0.34700 0.21630 0.24700
C 	C 	0.36390 0.37320 0.26910 0.48400
C 	C 	0.30780 0.43190 0.28920 -0.54700
H 	H 	0.30560 0.42100 0.31640 0.22700
C 	C 	0.25570 0.50620 0.26810 0.48600
C 	C 	0.25860 0.52430 0.22770 -0.52200
H 	H 	0.22360 0.57670 0.21360 0.23100
O 	O 	0.09850 0.41890 0.02441 -0.48600
O 	O 	0.08200 0.21090 0.05311 -0.49000
O 	O 	0.51010 0.42510 0.46540 -0.59000
O 	O 	0.47530 0.20810 0.47258 -0.56100
O 	O 	0.06500 0.22120 0.42120 -0.49200
O 	O 	0.05160 0.43130 0.44610 -0.49400
O 	O 	0.32410 0.48250 0.16857 -0.36700
O 	O 	0.41550 0.28370 0.28772 -0.36600
O 	O 	0.19940 0.57530 0.28530 -0.36700
Mn	Mn	0.52013 0.64725 0.47173 1.27800
C 	C 	0.38930 0.83150 0.44910 0.46600
C 	C 	0.33400 0.87100 0.41670 -0.33400
C 	C 	0.28240 0.97160 0.42330 0.37400
H 	H 	0.28280 0.01620 0.44770 -0.10600
C 	C 	0.23020 0.00780 0.39470 -0.50100
H 	H 	0.19460 0.07310 0.40000 0.21400
C 	C 	0.23180 0.94560 0.35820 0.45100
C 	C 	0.28400 0.84600 0.35050 -0.44300
H 	H 	0.28490 0.80500 0.32570 0.19800
C 	C 	0.33420 0.80780 0.37990 0.30500
H 	H 	0.36850 0.73920 0.37500 -0.06200
C 	C 	0.01290 0.81080 0.05010 0.39800
C 	C 	0.03120 0.80510 0.09220 -0.25100
C 	C 	0.01610 0.91630 0.11740 0.12700
H 	H 	0.99260 0.99520 0.10700 0.02000
C 	C 	0.03480 0.91240 0.15670 -0.29500
H 	H 	0.02400 0.98690 0.17310 0.13900
C 	C 	0.07060 0.79370 0.17190 0.32900
C 	C 	0.08490 0.68280 0.14830 -0.34100
H 	H 	0.10760 0.60350 0.15890 0.15800
C 	C 	0.06590 0.68810 0.10900 0.20800
H 	H 	0.07630 0.61220 0.09300 -0.03700
C 	C 	0.43100 0.85190 0.08120 0.42300
C 	C 	0.40170 0.91130 0.11800 -0.19400
C 	C 	0.37940 0.82160 0.14710 0.15200
H 	H 	0.38670 0.72580 0.14450 0.00300
C 	C 	0.34600 0.87330 0.18020 -0.26400
H 	H 	0.33220 0.81310 0.20010 0.13900
C 	C 	0.33380 0.01560 0.18300 0.29100
C 	C 	0.35930 0.10590 0.15500 -0.27800
H 	H 	0.35370 0.20210 0.15800 0.14900
C 	C 	0.39310 0.05390 0.12250 0.14400
H 	H 	0.41010 0.11500 0.10370 -0.01000
C 	C 	0.18470 0.96150 0.29110 0.48900
C 	C 	0.13110 0.88690 0.27080 -0.52100
H 	H 	0.09280 0.84700 0.28370 0.23900
C 	C 	0.13610 0.87320 0.23090 0.47100
C 	C 	0.19220 0.93190 0.21080 -0.51200
H 	H 	0.19440 0.92100 0.18360 0.22000
C 	C 	0.24430 0.00620 0.23190 0.45700
C 	C 	0.24140 0.02430 0.27230 -0.54000
H 	H 	0.27640 0.07670 0.28640 0.23300
O 	O 	0.40150 0.91890 0.47559 -0.46700
O 	O 	0.41800 0.71090 0.44689 -0.47000
O 	O 	0.98990 0.92510 0.03460 -0.53800
O 	O 	0.02470 0.70810 0.02742 -0.55600
O 	O 	0.43500 0.72120 0.07880 -0.47700
O 	O 	0.44840 0.93130 0.05390 -0.47300
O 	O 	0.17590 0.98250 0.33143 -0.38700
O 	O 	0.08450 0.78370 0.21228 -0.35400
O 	O 	0.30060 0.07530 0.21470 -0.34900
Mn	Mn	0.02013 0.14725 0.47173 1.26500
C 	C 	0.88930 0.33150 0.44910 0.43700
C 	C 	0.83400 0.37100 0.41670 -0.25800
C 	C 	0.78240 0.47160 0.42330 0.22600
H 	H 	0.78280 0.51620 0.44770 -0.04200
C 	C 	0.73020 0.50780 0.39470 -0.35600
H 	H 	0.69460 0.57310 0.40000 0.16800
C 	C 	0.73180 0.44560 0.35820 0.36100
C 	C 	0.78400 0.34600 0.35050 -0.36600
H 	H 	0.78490 0.30500 0.32570 0.16900
C 	C 	0.83420 0.30780 0.37990 0.22800
H 	H 	0.86850 0.23920 0.37500 -0.03600
C 	C 	0.51290 0.31080 0.05010 0.47900
C 	C 	0.53120 0.30510 0.09220 -0.33900
C 	C 	0.51610 0.41630 0.11740 0.28300
H 	H 	0.49260 0.49520 0.10700 -0.06500
C 	C 	0.53480 0.41240 0.15670 -0.39400
H 	H 	0.52400 0.48690 0.17310 0.18200
C 	C 	0.57060 0.29370 0.17190 0.39100
C 	C 	0.58490 0.18280 0.14830 -0.40800
H 	H 	0.60760 0.10350 0.15890 0.18000
C 	C 	0.56590 0.18810 0.10900 0.28600
H 	H 	0.57630 0.11220 0.09300 -0.06500
C 	C 	0.93100 0.35190 0.08120 0.44400
C 	C 	0.90170 0.41130 0.11800 -0.25000
C 	C 	0.87940 0.32160 0.14710 0.20600
H 	H 	0.88670 0.22580 0.14450 -0.01800
C 	C 	0.84600 0.37330 0.18020 -0.33300
H 	H 	0.83220 0.31310 0.20010 0.16000
C 	C 	0.83380 0.51560 0.18300 0.35300
C 	C 	0.85930 0.60590 0.15500 -0.32800
H 	H 	0.85370 0.70210 0.15800 0.17000
C 	C 	0.89310 0.55390 0.12250 0.21800
H 	H 	0.91010 0.61500 0.10370 -0.02200
C 	C 	0.68470 0.46150 0.29110 0.46800
C 	C 	0.63110 0.38690 0.27080 -0.52000
H 	H 	0.59280 0.34700 0.28370 0.24600
C 	C 	0.63610 0.37320 0.23090 0.48300
C 	C 	0.69220 0.43190 0.21080 -0.54600
H 	H 	0.69440 0.42100 0.18360 0.22600
C 	C 	0.74430 0.50620 0.23190 0.48500
C 	C 	0.74140 0.52430 0.27230 -0.51900
H 	H 	0.77640 0.57670 0.28640 0.23100
O 	O 	0.90150 0.41890 0.47559 -0.45700
O 	O 	0.91800 0.21090 0.44689 -0.45300
O 	O 	0.48990 0.42510 0.03460 -0.59800
O 	O 	0.52470 0.20810 0.02742 -0.56900
O 	O 	0.93500 0.22120 0.07880 -0.48400
O 	O 	0.94840 0.43130 0.05390 -0.47200
O 	O 	0.67590 0.48250 0.33143 -0.36600
O 	O 	0.58450 0.28370 0.21228 -0.36600
O 	O 	0.80060 0.57530 0.21470 -0.36300
Mn	Mn	0.52013 0.35275 0.97173 1.28300
C 	C 	0.38930 0.16850 0.94910 0.41300
C 	C 	0.33400 0.12900 0.91670 -0.19500
C 	C 	0.28240 0.02840 0.92330 0.10100
H 	H 	0.28280 0.98380 0.94770 0.01400
C 	C 	0.23020 0.99220 0.89470 -0.23500
H 	H 	0.19460 0.92690 0.90000 0.13100
C 	C 	0.23180 0.05440 0.85820 0.28500
C 	C 	0.28400 0.15400 0.85050 -0.30200
H 	H 	0.28490 0.19500 0.82570 0.14600
C 	C 	0.33420 0.19220 0.87990 0.16500
H 	H 	0.36850 0.26080 0.87500 -0.01600
C 	C 	0.01290 0.18920 0.55010 0.40000
C 	C 	0.03120 0.19490 0.59220 -0.25700
C 	C 	0.01610 0.08370 0.61740 0.12900
H 	H 	0.99260 0.00480 0.60700 0.00900
C 	C 	0.03480 0.08760 0.65670 -0.30000
H 	H 	0.02400 0.01310 0.67310 0.13300
C 	C 	0.07060 0.20630 0.67190 0.33000
C 	C 	0.08490 0.31720 0.64830 -0.34500
H 	H 	0.10760 0.39650 0.65890 0.16000
C 	C 	0.06590 0.31190 0.60900 0.21100
H 	H 	0.07630 0.38780 0.59300 -0.03900
C 	C 	0.43100 0.14810 0.58120 0.45900
C 	C 	0.40170 0.08870 0.61800 -0.30600
C 	C 	0.37940 0.17840 0.64710 0.25200
H 	H 	0.38670 0.27420 0.64450 -0.03300
C 	C 	0.34600 0.12670 0.68020 -0.39500
H 	H 	0.33220 0.18690 0.70010 0.17800
C 	C 	0.33380 0.98440 0.68300 0.40400
C 	C 	0.35930 0.89410 0.65500 -0.38100
H 	H 	0.35370 0.79790 0.65800 0.18600
C 	C 	0.39310 0.94610 0.62250 0.28000
H 	H 	0.41010 0.88500 0.60370 -0.04900
C 	C 	0.18470 0.03850 0.79110 0.44200
C 	C 	0.13110 0.11310 0.77080 -0.51200
H 	H 	0.09280 0.15300 0.78370 0.23400
C 	C 	0.13610 0.12680 0.73090 0.47800
C 	C 	0.19220 0.06810 0.71080 -0.56400
H 	H 	0.19440 0.07900 0.68360 0.22900
C 	C 	0.24430 0.99380 0.73190 0.50000
C 	C 	0.24140 0.97570 0.77230 -0.50000
H 	H 	0.27640 0.92330 0.78640 0.22800
O 	O 	0.40150 0.08110 0.97559 -0.46000
O 	O 	0.41800 0.28910 0.94689 -0.45500
O 	O 	0.98990 0.07490 0.53460 -0.54500
O 	O 	0.02470 0.29190 0.52742 -0.55100
O 	O 	0.43500 0.27880 0.57880 -0.48600
O 	O 	0.44840 0.06870 0.55390 -0.49300
O 	O 	0.17590 0.01750 0.83143 -0.35300
O 	O 	0.08450 0.21630 0.71228 -0.35700
O 	O 	0.30060 0.92470 0.71470 -0.37600
Mn	Mn	0.02013 0.85275 0.97173 1.27700
C 	C 	0.88930 0.66850 0.94910 0.43400
C 	C 	0.83400 0.62900 0.91670 -0.24900
C 	C 	0.78240 0.52840 0.92330 0.22100
H 	H 	0.78280 0.48380 0.94770 -0.03700
C 	C 	0.73020 0.49220 0.89470 -0.35100
H 	H 	0.69460 0.42690 0.90000 0.16800
C 	C 	0.73180 0.55440 0.85820 0.35700
C 	C 	0.78400 0.65400 0.85050 -0.36100
H 	H 	0.78490 0.69500 0.82570 0.17000
C 	C 	0.83420 0.69220 0.87990 0.22400
H 	H 	0.86850 0.76080 0.87500 -0.02800
C 	C 	0.51290 0.68920 0.55010 0.47600
C 	C 	0.53120 0.69490 0.59220 -0.33100
C 	C 	0.51610 0.58370 0.61740 0.27800
H 	H 	0.49260 0.50480 0.60700 -0.06300
C 	C 	0.53480 0.58760 0.65670 -0.39100
H 	H 	0.52400 0.51310 0.67310 0.17900
C 	C 	0.57060 0.70630 0.67190 0.38900
C 	C 	0.58490 0.81720 0.64830 -0.40200
H 	H 	0.60760 0.89650 0.65890 0.18700
C 	C 	0.56590 0.81190 0.60900 0.28300
H 	H 	0.57630 0.88780 0.59300 -0.05400
C 	C 	0.93100 0.64810 0.58120 0.44100
C 	C 	0.90170 0.58870 0.61800 -0.24300
C 	C 	0.87940 0.67840 0.64710 0.20300
H 	H 	0.88670 0.77420 0.64450 -0.00800
C 	C 	0.84600 0.62670 0.68020 -0.32800
H 	H 	0.83220 0.68690 0.70010 0.16200
C 	C 	0.83380 0.48440 0.68300 0.35200
C 	C 	0.85930 0.39410 0.65500 -0.32600
H 	H 	0.85370 0.29790 0.65800 0.17000
C 	C 	0.89310 0.44610 0.62250 0.21400
H 	H 	0.91010 0.38500 0.60370 -0.02100
C 	C 	0.68470 0.53850 0.79110 0.46600
C 	C 	0.63110 0.61310 0.77080 -0.51900
H 	H 	0.59280 0.65300 0.78370 0.24600
C 	C 	0.63610 0.62680 0.73090 0.48300
C 	C 	0.69220 0.56810 0.71080 -0.54500
H 	H 	0.69440 0.57900 0.68360 0.22600
C 	C 	0.74430 0.49380 0.73190 0.48400
C 	C 	0.74140 0.47570 0.77230 -0.51900
H 	H 	0.77640 0.42330 0.78640 0.23100
O 	O 	0.90150 0.58110 0.97559 -0.44500
O 	O 	0.91800 0.78910 0.94689 -0.43900
O 	O 	0.48990 0.57490 0.53460 -0.58900
O 	O 	0.52470 0.79190 0.52742 -0.55300
O 	O 	0.93500 0.77880 0.57880 -0.47000
O 	O 	0.94840 0.56870 0.55390 -0.46600
O 	O 	0.67590 0.51750 0.83143 -0.36500
O 	O 	0.58450 0.71630 0.71228 -0.36300
O 	O 	0.80060 0.42470 0.71470 -0.36200
Mn	Mn	0.47987 0.35275 0.52827 1.27700
C 	C 	0.61070 0.16850 0.55090 0.41400
C 	C 	0.66600 0.12900 0.58330 -0.19600
C 	C 	0.71760 0.02840 0.57670 0.09800
H 	H 	0.71720 0.98380 0.55230 0.01300
C 	C 	0.76980 0.99220 0.60530 -0.23000
H 	H 	0.80540 0.92690 0.60000 0.12900
C 	C 	0.76820 0.05440 0.64180 0.28300
C 	C 	0.71600 0.15400 0.64950 -0.30100
H 	H 	0.71510 0.19500 0.67430 0.14500
C 	C 	0.66580 0.19220 0.62010 0.16400
H 	H 	0.63150 0.26080 0.62500 -0.01600
C 	C 	0.98710 0.18920 0.94990 0.55400
C 	C 	0.96880 0.19490 0.90780 -0.41400
C 	C 	0.98390 0.08370 0.88260 0.43200
H 	H 	0.00740 0.00480 0.89300 -0.14600
C 	C 	0.96520 0.08760 0.84330 -0.48800
H 	H 	0.97600 0.01310 0.82690 0.22200
C 	C 	0.92940 0.20630 0.82810 0.45000
C 	C 	0.91510 0.31720 0.85170 -0.46600
H 	H 	0.89240 0.39650 0.84110 0.20900
C 	C 	0.93410 0.31190 0.89100 0.35800
H 	H 	0.92370 0.38780 0.90700 -0.07900
C 	C 	0.56900 0.14810 0.91880 0.45700
C 	C 	0.59830 0.08870 0.88200 -0.30300
C 	C 	0.62060 0.17840 0.85290 0.25000
H 	H 	0.61330 0.27420 0.85550 -0.03200
C 	C 	0.65400 0.12670 0.81980 -0.39300
H 	H 	0.66780 0.18690 0.79990 0.17700
C 	C 	0.66620 0.98440 0.81700 0.40300
C 	C 	0.64070 0.89410 0.84500 -0.37800
H 	H 	0.64630 0.79790 0.84200 0.18600
C 	C 	0.60690 0.94610 0.87750 0.27700
H 	H 	0.58990 0.88500 0.89630 -0.04600
C 	C 	0.81530 0.03850 0.70890 0.45100
C 	C 	0.86890 0.11310 0.72920 -0.52000
H 	H 	0.90720 0.15300 0.71630 0.25400
C 	C 	0.86390 0.12680 0.76910 0.49500
C 	C 	0.80780 0.06810 0.78920 -0.57400
H 	H 	0.80560 0.07900 0.81640 0.23200
C 	C 	0.75570 0.99380 0.76810 0.50600
C 	C 	0.75860 0.97570 0.72770 -0.50500
H 	H 	0.72360 0.92330 0.71360 0.23000
O 	O 	0.59850 0.08110 0.52441 -0.47000
O 	O 	0.58200 0.28910 0.55311 -0.45900
O 	O 	0.01010 0.07490 0.96540 -0.63900
O 	O 	0.97530 0.29190 0.97258 -0.55100
O 	O 	0.56500 0.27880 0.92120 -0.48300
O 	O 	0.55160 0.06870 0.94610 -0.48500
O 	O 	0.82410 0.01750 0.66857 -0.34700
O 	O 	0.91550 0.21630 0.78772 -0.37300
O 	O 	0.69940 0.92470 0.78530 -0.37700
Mn	Mn	0.97987 0.85275 0.52827 1.29000
C 	C 	0.11070 0.66850 0.55090 0.43800
C 	C 	0.16600 0.62900 0.58330 -0.26400
C 	C 	0.21760 0.52840 0.57670 0.23000
H 	H 	0.21720 0.48380 0.55230 -0.04400
C 	C 	0.26980 0.49220 0.60530 -0.35900
H 	H 	0.30540 0.42690 0.60000 0.17000
C 	C 	0.26820 0.55440 0.64180 0.36300
C 	C 	0.21600 0.65400 0.64950 -0.36900
H 	H 	0.21510 0.69500 0.67430 0.17100
C 	C 	0.16580 0.69220 0.62010 0.23200
H 	H 	0.13150 0.76080 0.62500 -0.04000
C 	C 	0.48710 0.68920 0.94990 0.47400
C 	C 	0.46880 0.69490 0.90780 -0.32800
C 	C 	0.48390 0.58370 0.88260 0.27700
H 	H 	0.50740 0.50480 0.89300 -0.06200
C 	C 	0.46520 0.58760 0.84330 -0.38900
H 	H 	0.47600 0.51310 0.82690 0.17900
C 	C 	0.42940 0.70630 0.82810 0.38800
C 	C 	0.41510 0.81720 0.85170 -0.40100
H 	H 	0.39240 0.89650 0.84110 0.18700
C 	C 	0.43410 0.81190 0.89100 0.28100
H 	H 	0.42370 0.88780 0.90700 -0.05300
C 	C 	0.06900 0.64810 0.91880 0.43900
C 	C 	0.09830 0.58870 0.88200 -0.25900
C 	C 	0.12060 0.67840 0.85290 0.20600
H 	H 	0.11330 0.77420 0.85550 -0.01700
C 	C 	0.15400 0.62670 0.81980 -0.33900
H 	H 	0.16780 0.68690 0.79990 0.16100
C 	C 	0.16620 0.48440 0.81700 0.35400
C 	C 	0.14070 0.39410 0.84500 -0.33900
H 	H 	0.14630 0.29790 0.84200 0.16800
C 	C 	0.10690 0.44610 0.87750 0.21900
H 	H 	0.08990 0.38500 0.89630 -0.03900
C 	C 	0.31530 0.53850 0.70890 0.46800
C 	C 	0.36890 0.61310 0.72920 -0.52100
H 	H 	0.40720 0.65300 0.71630 0.24700
C 	C 	0.36390 0.62680 0.76910 0.48400
C 	C 	0.30780 0.56810 0.78920 -0.54700
H 	H 	0.30560 0.57900 0.81640 0.22700
C 	C 	0.25570 0.49380 0.76810 0.48500
C 	C 	0.25860 0.47570 0.72770 -0.52200
H 	H 	0.22360 0.42330 0.71360 0.23100
O 	O 	0.09850 0.58110 0.52441 -0.47700
O 	O 	0.08200 0.78910 0.55311 -0.47600
O 	O 	0.51010 0.57490 0.96540 -0.58000
O 	O 	0.47530 0.79190 0.97258 -0.54100
O 	O 	0.06500 0.77880 0.92120 -0.47900
O 	O 	0.05160 0.56870 0.94610 -0.48500
O 	O 	0.32410 0.51750 0.66857 -0.36600
O 	O 	0.41550 0.71630 0.78772 -0.36300
O 	O 	0.19940 0.42470 0.78530 -0.36600
Mn	Mn	0.50000 0.00000 -0.00000 1.29900
Mn	Mn	-0.00000 0.50000 -0.00000 1.29100
Mn	Mn	0.50000 0.00000 0.50000 1.30800
Mn	Mn	0.00000 0.50000 0.50000 1.30000
