data_crystal

_cell_length_a 46.15000
_cell_length_b 46.15000
_cell_length_c 46.15000
_cell_angle_alpha 90.00000
_cell_angle_beta  90.00000
_cell_angle_gamma 90.00000

_symmetry_space_group_name_	'P 1'
_symmetry_space_group_name_H-M	'P 1'

loop_
_symmetry_equiv_pos_as_xyz
  x,y,z

loop_
_atom_site_label
_atom_site_type_symbol
_atom_site_fract_x
_atom_site_fract_y
_atom_site_fract_z
_atom_site_charge
O 	O 	0.97008 0.10459 0.14617 -0.39500
C 	C 	0.95922 0.11553 0.16932 0.38100
C 	C 	0.93723 0.10069 0.18362 -0.15500
C 	C 	0.92640 0.11060 0.21180 0.07500
C 	C 	0.01390 0.24340 0.21360 -0.01900
C 	C 	0.02310 0.21330 0.20010 0.02300
O 	O 	0.96974 0.13868 0.18039 -0.38400
C 	C 	0.00860 0.22340 0.19100 0.02100
O 	O 	0.97008 0.60459 0.64617 -0.39500
C 	C 	0.95922 0.61553 0.66932 0.38100
C 	C 	0.93723 0.60069 0.68362 -0.15500
C 	C 	0.92640 0.61060 0.71180 0.07500
C 	C 	0.01390 0.74340 0.71360 -0.01900
C 	C 	0.02310 0.71330 0.70010 0.02300
O 	O 	0.96974 0.63868 0.68039 -0.38400
C 	C 	0.00860 0.72340 0.69100 0.02100
O 	O 	0.47008 0.10459 0.64617 -0.39600
C 	C 	0.45922 0.11553 0.66932 0.38100
C 	C 	0.43723 0.10069 0.68362 -0.15500
C 	C 	0.42640 0.11060 0.71180 0.07500
C 	C 	0.51390 0.24340 0.71360 -0.00200
C 	C 	0.52310 0.21330 0.70010 0.02400
O 	O 	0.46974 0.13868 0.68039 -0.38500
C 	C 	0.50860 0.22340 0.69100 0.02200
O 	O 	0.47008 0.60459 0.14617 -0.39600
C 	C 	0.45922 0.61553 0.16932 0.38100
C 	C 	0.43723 0.60069 0.18362 -0.15500
C 	C 	0.42640 0.61060 0.21180 0.07500
C 	C 	0.51390 0.74340 0.21360 -0.00200
C 	C 	0.52310 0.71330 0.20010 0.02400
O 	O 	0.46974 0.63868 0.18039 -0.38500
C 	C 	0.50860 0.72340 0.19100 0.02200
O 	O 	0.02992 0.89541 0.14617 -0.39700
C 	C 	0.04078 0.88447 0.16932 0.38100
C 	C 	0.06277 0.89931 0.18362 -0.15500
C 	C 	0.07360 0.88940 0.21180 0.07500
C 	C 	0.98610 0.75660 0.21360 0.01700
C 	C 	0.97690 0.78670 0.20010 0.02500
O 	O 	0.03026 0.86132 0.18039 -0.38600
C 	C 	0.99140 0.77660 0.19100 0.02300
O 	O 	0.02992 0.39541 0.64617 -0.39700
C 	C 	0.04078 0.38447 0.66932 0.38100
C 	C 	0.06277 0.39931 0.68362 -0.15500
C 	C 	0.07360 0.38940 0.71180 0.07400
C 	C 	0.98610 0.25660 0.71360 0.01700
C 	C 	0.97690 0.28670 0.70010 0.02500
O 	O 	0.03026 0.36132 0.68039 -0.38600
C 	C 	0.99140 0.27660 0.69100 0.02300
O 	O 	0.52992 0.89541 0.64617 -0.39600
C 	C 	0.54078 0.88447 0.66932 0.38100
C 	C 	0.56277 0.89931 0.68362 -0.15500
C 	C 	0.57360 0.88940 0.71180 0.07500
C 	C 	0.48610 0.75660 0.71360 -0.00200
C 	C 	0.47690 0.78670 0.70010 0.02400
O 	O 	0.53026 0.86132 0.68039 -0.38500
C 	C 	0.49140 0.77660 0.69100 0.02200
O 	O 	0.52992 0.39541 0.14617 -0.39600
C 	C 	0.54078 0.38447 0.16932 0.38100
C 	C 	0.56277 0.39931 0.18362 -0.15500
C 	C 	0.57360 0.38940 0.21180 0.07500
C 	C 	0.48610 0.25660 0.21360 -0.00200
C 	C 	0.47690 0.28670 0.20010 0.02400
O 	O 	0.53026 0.36132 0.18039 -0.38500
C 	C 	0.49140 0.27660 0.19100 0.02200
O 	O 	0.02992 0.10459 0.85383 -0.39700
C 	C 	0.04078 0.11553 0.83068 0.38100
C 	C 	0.06277 0.10069 0.81638 -0.15500
C 	C 	0.07360 0.11060 0.78820 0.07400
C 	C 	0.98610 0.24340 0.78640 0.01700
C 	C 	0.97690 0.21330 0.79990 0.02500
O 	O 	0.03026 0.13868 0.81961 -0.38600
C 	C 	0.99140 0.22340 0.80900 0.02300
O 	O 	0.02992 0.60459 0.35383 -0.39700
C 	C 	0.04078 0.61553 0.33068 0.38100
C 	C 	0.06277 0.60069 0.31638 -0.15500
C 	C 	0.07360 0.61060 0.28820 0.07400
C 	C 	0.98610 0.74340 0.28640 0.01700
C 	C 	0.97690 0.71330 0.29990 0.02500
O 	O 	0.03026 0.63868 0.31961 -0.38600
C 	C 	0.99140 0.72340 0.30900 0.02300
O 	O 	0.52992 0.10459 0.35383 -0.39600
C 	C 	0.54078 0.11553 0.33068 0.38100
C 	C 	0.56277 0.10069 0.31638 -0.15500
C 	C 	0.57360 0.11060 0.28820 0.07500
C 	C 	0.48610 0.24340 0.28640 -0.00200
C 	C 	0.47690 0.21330 0.29990 0.02400
O 	O 	0.53026 0.13868 0.31961 -0.38500
C 	C 	0.49140 0.22340 0.30900 0.02200
O 	O 	0.52992 0.60459 0.85383 -0.39600
C 	C 	0.54078 0.61553 0.83068 0.38100
C 	C 	0.56277 0.60069 0.81638 -0.15500
C 	C 	0.57360 0.61060 0.78820 0.07500
C 	C 	0.48610 0.74340 0.78640 -0.00200
C 	C 	0.47690 0.71330 0.79990 0.02400
O 	O 	0.53026 0.63868 0.81961 -0.38500
C 	C 	0.49140 0.72340 0.80900 0.02200
O 	O 	0.97008 0.89541 0.85383 -0.39500
C 	C 	0.95922 0.88447 0.83068 0.38100
C 	C 	0.93723 0.89931 0.81638 -0.15500
C 	C 	0.92640 0.88940 0.78820 0.07500
C 	C 	0.01390 0.75660 0.78640 -0.01900
C 	C 	0.02310 0.78670 0.79990 0.02300
O 	O 	0.96974 0.86132 0.81961 -0.38400
C 	C 	0.00860 0.77660 0.80900 0.02100
O 	O 	0.97008 0.39541 0.35383 -0.39500
C 	C 	0.95922 0.38447 0.33068 0.38100
C 	C 	0.93723 0.39931 0.31638 -0.15500
C 	C 	0.92640 0.38940 0.28820 0.07500
C 	C 	0.01390 0.25660 0.28640 -0.01900
C 	C 	0.02310 0.28670 0.29990 0.02300
O 	O 	0.96974 0.36132 0.31961 -0.38400
C 	C 	0.00860 0.27660 0.30900 0.02100
O 	O 	0.47008 0.89541 0.35383 -0.39600
C 	C 	0.45922 0.88447 0.33068 0.38100
C 	C 	0.43723 0.89931 0.31638 -0.15500
C 	C 	0.42640 0.88940 0.28820 0.07500
C 	C 	0.51390 0.75660 0.28640 -0.00200
C 	C 	0.52310 0.78670 0.29990 0.02400
O 	O 	0.46974 0.86132 0.31961 -0.38500
C 	C 	0.50860 0.77660 0.30900 0.02200
O 	O 	0.47008 0.39541 0.85383 -0.39600
C 	C 	0.45922 0.38447 0.83068 0.38100
C 	C 	0.43723 0.39931 0.81638 -0.15500
C 	C 	0.42640 0.38940 0.78820 0.07500
C 	C 	0.51390 0.25660 0.78640 -0.00200
C 	C 	0.52310 0.28670 0.79990 0.02400
O 	O 	0.46974 0.36132 0.81961 -0.38500
C 	C 	0.50860 0.27660 0.80900 0.02200
O 	O 	0.14617 0.97008 0.10459 -0.39500
C 	C 	0.16932 0.95922 0.11553 0.38100
C 	C 	0.18362 0.93723 0.10069 -0.15500
C 	C 	0.21180 0.92640 0.11060 0.07500
C 	C 	0.21360 0.01390 0.24340 -0.01900
C 	C 	0.20010 0.02310 0.21330 0.02300
O 	O 	0.18039 0.96974 0.13868 -0.38400
C 	C 	0.19100 0.00860 0.22340 0.02100
O 	O 	0.14617 0.47008 0.60459 -0.39600
C 	C 	0.16932 0.45922 0.61553 0.38100
C 	C 	0.18362 0.43723 0.60069 -0.15500
C 	C 	0.21180 0.42640 0.61060 0.07500
C 	C 	0.21360 0.51390 0.74340 -0.00200
C 	C 	0.20010 0.52310 0.71330 0.02400
O 	O 	0.18039 0.46974 0.63868 -0.38500
C 	C 	0.19100 0.50860 0.72340 0.02200
O 	O 	0.64617 0.97008 0.60459 -0.39500
C 	C 	0.66932 0.95922 0.61553 0.38100
C 	C 	0.68362 0.93723 0.60069 -0.15500
C 	C 	0.71180 0.92640 0.61060 0.07500
C 	C 	0.71360 0.01390 0.74340 -0.01900
C 	C 	0.70010 0.02310 0.71330 0.02300
O 	O 	0.68039 0.96974 0.63868 -0.38400
C 	C 	0.69100 0.00860 0.72340 0.02100
O 	O 	0.64617 0.47008 0.10459 -0.39600
C 	C 	0.66932 0.45922 0.11553 0.38100
C 	C 	0.68362 0.43723 0.10069 -0.15500
C 	C 	0.71180 0.42640 0.11060 0.07500
C 	C 	0.71360 0.51390 0.24340 -0.00200
C 	C 	0.70010 0.52310 0.21330 0.02400
O 	O 	0.68039 0.46974 0.13868 -0.38500
C 	C 	0.69100 0.50860 0.22340 0.02200
O 	O 	0.14617 0.02992 0.89541 -0.39700
C 	C 	0.16932 0.04078 0.88447 0.38100
C 	C 	0.18362 0.06277 0.89931 -0.15500
C 	C 	0.21180 0.07360 0.88940 0.07500
C 	C 	0.21360 0.98610 0.75660 0.01700
C 	C 	0.20010 0.97690 0.78670 0.02500
O 	O 	0.18039 0.03026 0.86132 -0.38600
C 	C 	0.19100 0.99140 0.77660 0.02300
O 	O 	0.14617 0.52992 0.39541 -0.39600
C 	C 	0.16932 0.54078 0.38447 0.38100
C 	C 	0.18362 0.56277 0.39931 -0.15500
C 	C 	0.21180 0.57360 0.38940 0.07500
C 	C 	0.21360 0.48610 0.25660 -0.00200
C 	C 	0.20010 0.47690 0.28670 0.02400
O 	O 	0.18039 0.53026 0.36132 -0.38500
C 	C 	0.19100 0.49140 0.27660 0.02200
O 	O 	0.64617 0.02992 0.39541 -0.39700
C 	C 	0.66932 0.04078 0.38447 0.38100
C 	C 	0.68362 0.06277 0.39931 -0.15500
C 	C 	0.71180 0.07360 0.38940 0.07400
C 	C 	0.71360 0.98610 0.25660 0.01700
C 	C 	0.70010 0.97690 0.28670 0.02500
O 	O 	0.68039 0.03026 0.36132 -0.38600
C 	C 	0.69100 0.99140 0.27660 0.02300
O 	O 	0.64617 0.52992 0.89541 -0.39600
C 	C 	0.66932 0.54078 0.88447 0.38100
C 	C 	0.68362 0.56277 0.89931 -0.15500
C 	C 	0.71180 0.57360 0.88940 0.07500
C 	C 	0.71360 0.48610 0.75660 -0.00200
C 	C 	0.70010 0.47690 0.78670 0.02400
O 	O 	0.68039 0.53026 0.86132 -0.38500
C 	C 	0.69100 0.49140 0.77660 0.02200
O 	O 	0.85383 0.02992 0.10459 -0.39700
C 	C 	0.83068 0.04078 0.11553 0.38100
C 	C 	0.81638 0.06277 0.10069 -0.15500
C 	C 	0.78820 0.07360 0.11060 0.07400
C 	C 	0.78640 0.98610 0.24340 0.01700
C 	C 	0.79990 0.97690 0.21330 0.02500
O 	O 	0.81961 0.03026 0.13868 -0.38600
C 	C 	0.80900 0.99140 0.22340 0.02300
O 	O 	0.85383 0.52992 0.60459 -0.39600
C 	C 	0.83068 0.54078 0.61553 0.38100
C 	C 	0.81638 0.56277 0.60069 -0.15500
C 	C 	0.78820 0.57360 0.61060 0.07500
C 	C 	0.78640 0.48610 0.74340 -0.00200
C 	C 	0.79990 0.47690 0.71330 0.02400
O 	O 	0.81961 0.53026 0.63868 -0.38500
C 	C 	0.80900 0.49140 0.72340 0.02200
O 	O 	0.35383 0.02992 0.60459 -0.39700
C 	C 	0.33068 0.04078 0.61553 0.38100
C 	C 	0.31638 0.06277 0.60069 -0.15500
C 	C 	0.28820 0.07360 0.61060 0.07400
C 	C 	0.28640 0.98610 0.74340 0.01700
C 	C 	0.29990 0.97690 0.71330 0.02500
O 	O 	0.31961 0.03026 0.63868 -0.38600
C 	C 	0.30900 0.99140 0.72340 0.02300
O 	O 	0.35383 0.52992 0.10459 -0.39600
C 	C 	0.33068 0.54078 0.11553 0.38100
C 	C 	0.31638 0.56277 0.10069 -0.15500
C 	C 	0.28820 0.57360 0.11060 0.07500
C 	C 	0.28640 0.48610 0.24340 -0.00200
C 	C 	0.29990 0.47690 0.21330 0.02400
O 	O 	0.31961 0.53026 0.13868 -0.38500
C 	C 	0.30900 0.49140 0.22340 0.02200
O 	O 	0.85383 0.97008 0.89541 -0.39500
C 	C 	0.83068 0.95922 0.88447 0.38100
C 	C 	0.81638 0.93723 0.89931 -0.15500
C 	C 	0.78820 0.92640 0.88940 0.07500
C 	C 	0.78640 0.01390 0.75660 -0.01900
C 	C 	0.79990 0.02310 0.78670 0.02300
O 	O 	0.81961 0.96974 0.86132 -0.38400
C 	C 	0.80900 0.00860 0.77660 0.02100
O 	O 	0.85383 0.47008 0.39541 -0.39600
C 	C 	0.83068 0.45922 0.38447 0.38100
C 	C 	0.81638 0.43723 0.39931 -0.15500
C 	C 	0.78820 0.42640 0.38940 0.07500
C 	C 	0.78640 0.51390 0.25660 -0.00200
C 	C 	0.79990 0.52310 0.28670 0.02400
O 	O 	0.81961 0.46974 0.36132 -0.38500
C 	C 	0.80900 0.50860 0.27660 0.02200
O 	O 	0.35383 0.97008 0.39541 -0.39500
C 	C 	0.33068 0.95922 0.38447 0.38100
C 	C 	0.31638 0.93723 0.39931 -0.15500
C 	C 	0.28820 0.92640 0.38940 0.07500
C 	C 	0.28640 0.01390 0.25660 -0.01900
C 	C 	0.29990 0.02310 0.28670 0.02300
O 	O 	0.31961 0.96974 0.36132 -0.38400
C 	C 	0.30900 0.00860 0.27660 0.02100
O 	O 	0.35383 0.47008 0.89541 -0.39600
C 	C 	0.33068 0.45922 0.88447 0.38100
C 	C 	0.31638 0.43723 0.89931 -0.15500
C 	C 	0.28820 0.42640 0.88940 0.07500
C 	C 	0.28640 0.51390 0.75660 -0.00200
C 	C 	0.29990 0.52310 0.78670 0.02400
O 	O 	0.31961 0.46974 0.86132 -0.38500
C 	C 	0.30900 0.50860 0.77660 0.02200
O 	O 	0.10459 0.14617 0.97008 -0.39500
C 	C 	0.11553 0.16932 0.95922 0.38100
C 	C 	0.10069 0.18362 0.93723 -0.15500
C 	C 	0.11060 0.21180 0.92640 0.07500
C 	C 	0.24340 0.21360 0.01390 -0.01900
C 	C 	0.21330 0.20010 0.02310 0.02300
O 	O 	0.13868 0.18039 0.96974 -0.38400
C 	C 	0.22340 0.19100 0.00860 0.02100
O 	O 	0.10459 0.64617 0.47008 -0.39600
C 	C 	0.11553 0.66932 0.45922 0.38100
C 	C 	0.10069 0.68362 0.43723 -0.15500
C 	C 	0.11060 0.71180 0.42640 0.07500
C 	C 	0.24340 0.71360 0.51390 -0.00200
C 	C 	0.21330 0.70010 0.52310 0.02400
O 	O 	0.13868 0.68039 0.46974 -0.38500
C 	C 	0.22340 0.69100 0.50860 0.02200
O 	O 	0.60459 0.14617 0.47008 -0.39600
C 	C 	0.61553 0.16932 0.45922 0.38100
C 	C 	0.60069 0.18362 0.43723 -0.15500
C 	C 	0.61060 0.21180 0.42640 0.07500
C 	C 	0.74340 0.21360 0.51390 -0.00200
C 	C 	0.71330 0.20010 0.52310 0.02400
O 	O 	0.63868 0.18039 0.46974 -0.38500
C 	C 	0.72340 0.19100 0.50860 0.02200
O 	O 	0.60459 0.64617 0.97008 -0.39500
C 	C 	0.61553 0.66932 0.95922 0.38100
C 	C 	0.60069 0.68362 0.93723 -0.15500
C 	C 	0.61060 0.71180 0.92640 0.07500
C 	C 	0.74340 0.71360 0.01390 -0.01900
C 	C 	0.71330 0.70010 0.02310 0.02300
O 	O 	0.63868 0.68039 0.96974 -0.38400
C 	C 	0.72340 0.69100 0.00860 0.02100
O 	O 	0.89541 0.14617 0.02992 -0.39700
C 	C 	0.88447 0.16932 0.04078 0.38100
C 	C 	0.89931 0.18362 0.06277 -0.15500
C 	C 	0.88940 0.21180 0.07360 0.07500
C 	C 	0.75660 0.21360 0.98610 0.01700
C 	C 	0.78670 0.20010 0.97690 0.02500
O 	O 	0.86132 0.18039 0.03026 -0.38600
C 	C 	0.77660 0.19100 0.99140 0.02300
O 	O 	0.89541 0.64617 0.52992 -0.39600
C 	C 	0.88447 0.66932 0.54078 0.38100
C 	C 	0.89931 0.68362 0.56277 -0.15500
C 	C 	0.88940 0.71180 0.57360 0.07500
C 	C 	0.75660 0.71360 0.48610 -0.00200
C 	C 	0.78670 0.70010 0.47690 0.02400
O 	O 	0.86132 0.68039 0.53026 -0.38500
C 	C 	0.77660 0.69100 0.49140 0.02200
O 	O 	0.39541 0.14617 0.52992 -0.39600
C 	C 	0.38447 0.16932 0.54078 0.38100
C 	C 	0.39931 0.18362 0.56277 -0.15500
C 	C 	0.38940 0.21180 0.57360 0.07500
C 	C 	0.25660 0.21360 0.48610 -0.00200
C 	C 	0.28670 0.20010 0.47690 0.02400
O 	O 	0.36132 0.18039 0.53026 -0.38500
C 	C 	0.27660 0.19100 0.49140 0.02200
O 	O 	0.39541 0.64617 0.02992 -0.39700
C 	C 	0.38447 0.66932 0.04078 0.38100
C 	C 	0.39931 0.68362 0.06277 -0.15500
C 	C 	0.38940 0.71180 0.07360 0.07400
C 	C 	0.25660 0.71360 0.98610 0.01700
C 	C 	0.28670 0.70010 0.97690 0.02500
O 	O 	0.36132 0.68039 0.03026 -0.38600
C 	C 	0.27660 0.69100 0.99140 0.02300
O 	O 	0.10459 0.85383 0.02992 -0.39700
C 	C 	0.11553 0.83068 0.04078 0.38100
C 	C 	0.10069 0.81638 0.06277 -0.15500
C 	C 	0.11060 0.78820 0.07360 0.07400
C 	C 	0.24340 0.78640 0.98610 0.01700
C 	C 	0.21330 0.79990 0.97690 0.02500
O 	O 	0.13868 0.81961 0.03026 -0.38600
C 	C 	0.22340 0.80900 0.99140 0.02300
O 	O 	0.10459 0.35383 0.52992 -0.39600
C 	C 	0.11553 0.33068 0.54078 0.38100
C 	C 	0.10069 0.31638 0.56277 -0.15500
C 	C 	0.11060 0.28820 0.57360 0.07500
C 	C 	0.24340 0.28640 0.48610 -0.00200
C 	C 	0.21330 0.29990 0.47690 0.02400
O 	O 	0.13868 0.31961 0.53026 -0.38500
C 	C 	0.22340 0.30900 0.49140 0.02200
O 	O 	0.60459 0.85383 0.52992 -0.39600
C 	C 	0.61553 0.83068 0.54078 0.38100
C 	C 	0.60069 0.81638 0.56277 -0.15500
C 	C 	0.61060 0.78820 0.57360 0.07500
C 	C 	0.74340 0.78640 0.48610 -0.00200
C 	C 	0.71330 0.79990 0.47690 0.02400
O 	O 	0.63868 0.81961 0.53026 -0.38500
C 	C 	0.72340 0.80900 0.49140 0.02200
O 	O 	0.60459 0.35383 0.02992 -0.39700
C 	C 	0.61553 0.33068 0.04078 0.38100
C 	C 	0.60069 0.31638 0.06277 -0.15500
C 	C 	0.61060 0.28820 0.07360 0.07400
C 	C 	0.74340 0.28640 0.98610 0.01700
C 	C 	0.71330 0.29990 0.97690 0.02500
O 	O 	0.63868 0.31961 0.03026 -0.38600
C 	C 	0.72340 0.30900 0.99140 0.02300
O 	O 	0.89541 0.85383 0.97008 -0.39500
C 	C 	0.88447 0.83068 0.95922 0.38100
C 	C 	0.89931 0.81638 0.93723 -0.15500
C 	C 	0.88940 0.78820 0.92640 0.07500
C 	C 	0.75660 0.78640 0.01390 -0.01900
C 	C 	0.78670 0.79990 0.02310 0.02300
O 	O 	0.86132 0.81961 0.96974 -0.38400
C 	C 	0.77660 0.80900 0.00860 0.02100
O 	O 	0.89541 0.35383 0.47008 -0.39600
C 	C 	0.88447 0.33068 0.45922 0.38100
C 	C 	0.89931 0.31638 0.43723 -0.15500
C 	C 	0.88940 0.28820 0.42640 0.07500
C 	C 	0.75660 0.28640 0.51390 -0.00200
C 	C 	0.78670 0.29990 0.52310 0.02400
O 	O 	0.86132 0.31961 0.46974 -0.38500
C 	C 	0.77660 0.30900 0.50860 0.02200
O 	O 	0.39541 0.85383 0.47008 -0.39600
C 	C 	0.38447 0.83068 0.45922 0.38100
C 	C 	0.39931 0.81638 0.43723 -0.15500
C 	C 	0.38940 0.78820 0.42640 0.07500
C 	C 	0.25660 0.78640 0.51390 -0.00200
C 	C 	0.28670 0.79990 0.52310 0.02400
O 	O 	0.36132 0.81961 0.46974 -0.38500
C 	C 	0.27660 0.80900 0.50860 0.02200
O 	O 	0.39541 0.35383 0.97008 -0.39500
C 	C 	0.38447 0.33068 0.95922 0.38100
C 	C 	0.39931 0.31638 0.93723 -0.15500
C 	C 	0.38940 0.28820 0.92640 0.07500
C 	C 	0.25660 0.28640 0.01390 -0.01900
C 	C 	0.28670 0.29990 0.02310 0.02300
O 	O 	0.36132 0.31961 0.96974 -0.38400
C 	C 	0.27660 0.30900 0.00860 0.02100
O 	O 	0.10459 0.97008 0.85383 -0.39500
C 	C 	0.11553 0.95922 0.83068 0.38100
C 	C 	0.10069 0.93723 0.81638 -0.15500
C 	C 	0.11060 0.92640 0.78820 0.07500
C 	C 	0.24340 0.01390 0.78640 -0.01900
C 	C 	0.21330 0.02310 0.79990 0.02300
O 	O 	0.13868 0.96974 0.81961 -0.38400
C 	C 	0.22340 0.00860 0.80900 0.02100
O 	O 	0.10459 0.47008 0.35383 -0.39600
C 	C 	0.11553 0.45922 0.33068 0.38100
C 	C 	0.10069 0.43723 0.31638 -0.15500
C 	C 	0.11060 0.42640 0.28820 0.07500
C 	C 	0.24340 0.51390 0.28640 -0.00200
C 	C 	0.21330 0.52310 0.29990 0.02400
O 	O 	0.13868 0.46974 0.31961 -0.38500
C 	C 	0.22340 0.50860 0.30900 0.02200
O 	O 	0.60459 0.97008 0.35383 -0.39500
C 	C 	0.61553 0.95922 0.33068 0.38100
C 	C 	0.60069 0.93723 0.31638 -0.15500
C 	C 	0.61060 0.92640 0.28820 0.07500
C 	C 	0.74340 0.01390 0.28640 -0.01900
C 	C 	0.71330 0.02310 0.29990 0.02300
O 	O 	0.63868 0.96974 0.31961 -0.38400
C 	C 	0.72340 0.00860 0.30900 0.02100
O 	O 	0.60459 0.47008 0.85383 -0.39600
C 	C 	0.61553 0.45922 0.83068 0.38100
C 	C 	0.60069 0.43723 0.81638 -0.15500
C 	C 	0.61060 0.42640 0.78820 0.07500
C 	C 	0.74340 0.51390 0.78640 -0.00200
C 	C 	0.71330 0.52310 0.79990 0.02400
O 	O 	0.63868 0.46974 0.81961 -0.38500
C 	C 	0.72340 0.50860 0.80900 0.02200
O 	O 	0.89541 0.02992 0.85383 -0.39700
C 	C 	0.88447 0.04078 0.83068 0.38100
C 	C 	0.89931 0.06277 0.81638 -0.15500
C 	C 	0.88940 0.07360 0.78820 0.07500
C 	C 	0.75660 0.98610 0.78640 0.01700
C 	C 	0.78670 0.97690 0.79990 0.02500
O 	O 	0.86132 0.03026 0.81961 -0.38600
C 	C 	0.77660 0.99140 0.80900 0.02300
O 	O 	0.89541 0.52992 0.35383 -0.39600
C 	C 	0.88447 0.54078 0.33068 0.38100
C 	C 	0.89931 0.56277 0.31638 -0.15500
C 	C 	0.88940 0.57360 0.28820 0.07500
C 	C 	0.75660 0.48610 0.28640 -0.00200
C 	C 	0.78670 0.47690 0.29990 0.02400
O 	O 	0.86132 0.53026 0.31961 -0.38500
C 	C 	0.77660 0.49140 0.30900 0.02200
O 	O 	0.39541 0.02992 0.35383 -0.39700
C 	C 	0.38447 0.04078 0.33068 0.38100
C 	C 	0.39931 0.06277 0.31638 -0.15500
C 	C 	0.38940 0.07360 0.28820 0.07400
C 	C 	0.25660 0.98610 0.28640 0.01700
C 	C 	0.28670 0.97690 0.29990 0.02500
O 	O 	0.36132 0.03026 0.31961 -0.38600
C 	C 	0.27660 0.99140 0.30900 0.02300
O 	O 	0.39541 0.52992 0.85383 -0.39600
C 	C 	0.38447 0.54078 0.83068 0.38100
C 	C 	0.39931 0.56277 0.81638 -0.15500
C 	C 	0.38940 0.57360 0.78820 0.07500
C 	C 	0.25660 0.48610 0.78640 -0.00200
C 	C 	0.28670 0.47690 0.79990 0.02400
O 	O 	0.36132 0.53026 0.81961 -0.38500
C 	C 	0.27660 0.49140 0.80900 0.02200
O 	O 	0.10459 0.02992 0.14617 -0.39700
C 	C 	0.11553 0.04078 0.16932 0.38100
C 	C 	0.10069 0.06277 0.18362 -0.15500
C 	C 	0.11060 0.07360 0.21180 0.07400
C 	C 	0.24340 0.98610 0.21360 0.01700
C 	C 	0.21330 0.97690 0.20010 0.02500
O 	O 	0.13868 0.03026 0.18039 -0.38600
C 	C 	0.22340 0.99140 0.19100 0.02300
O 	O 	0.10459 0.52992 0.64617 -0.39600
C 	C 	0.11553 0.54078 0.66932 0.38100
C 	C 	0.10069 0.56277 0.68362 -0.15500
C 	C 	0.11060 0.57360 0.71180 0.07500
C 	C 	0.24340 0.48610 0.71360 -0.00200
C 	C 	0.21330 0.47690 0.70010 0.02400
O 	O 	0.13868 0.53026 0.68039 -0.38500
C 	C 	0.22340 0.49140 0.69100 0.02200
O 	O 	0.60459 0.02992 0.64617 -0.39700
C 	C 	0.61553 0.04078 0.66932 0.38100
C 	C 	0.60069 0.06277 0.68362 -0.15500
C 	C 	0.61060 0.07360 0.71180 0.07400
C 	C 	0.74340 0.98610 0.71360 0.01700
C 	C 	0.71330 0.97690 0.70010 0.02500
O 	O 	0.63868 0.03026 0.68039 -0.38600
C 	C 	0.72340 0.99140 0.69100 0.02300
O 	O 	0.60459 0.52992 0.14617 -0.39600
C 	C 	0.61553 0.54078 0.16932 0.38100
C 	C 	0.60069 0.56277 0.18362 -0.15500
C 	C 	0.61060 0.57360 0.21180 0.07500
C 	C 	0.74340 0.48610 0.21360 -0.00200
C 	C 	0.71330 0.47690 0.20010 0.02400
O 	O 	0.63868 0.53026 0.18039 -0.38500
C 	C 	0.72340 0.49140 0.19100 0.02200
O 	O 	0.89541 0.97008 0.14617 -0.39500
C 	C 	0.88447 0.95922 0.16932 0.38100
C 	C 	0.89931 0.93723 0.18362 -0.15500
C 	C 	0.88940 0.92640 0.21180 0.07500
C 	C 	0.75660 0.01390 0.21360 -0.01900
C 	C 	0.78670 0.02310 0.20010 0.02300
O 	O 	0.86132 0.96974 0.18039 -0.38400
C 	C 	0.77660 0.00860 0.19100 0.02100
O 	O 	0.89541 0.47008 0.64617 -0.39600
C 	C 	0.88447 0.45922 0.66932 0.38100
C 	C 	0.89931 0.43723 0.68362 -0.15500
C 	C 	0.88940 0.42640 0.71180 0.07500
C 	C 	0.75660 0.51390 0.71360 -0.00200
C 	C 	0.78670 0.52310 0.70010 0.02400
O 	O 	0.86132 0.46974 0.68039 -0.38500
C 	C 	0.77660 0.50860 0.69100 0.02200
O 	O 	0.39541 0.97008 0.64617 -0.39500
C 	C 	0.38447 0.95922 0.66932 0.38100
C 	C 	0.39931 0.93723 0.68362 -0.15500
C 	C 	0.38940 0.92640 0.71180 0.07500
C 	C 	0.25660 0.01390 0.71360 -0.01900
C 	C 	0.28670 0.02310 0.70010 0.02300
O 	O 	0.36132 0.96974 0.68039 -0.38400
C 	C 	0.27660 0.00860 0.69100 0.02100
O 	O 	0.39541 0.47008 0.14617 -0.39600
C 	C 	0.38447 0.45922 0.16932 0.38100
C 	C 	0.39931 0.43723 0.18362 -0.15500
C 	C 	0.38940 0.42640 0.21180 0.07500
C 	C 	0.25660 0.51390 0.21360 -0.00200
C 	C 	0.28670 0.52310 0.20010 0.02400
O 	O 	0.36132 0.46974 0.18039 -0.38500
C 	C 	0.27660 0.50860 0.19100 0.02200
O 	O 	0.97008 0.14617 0.89541 -0.39500
C 	C 	0.95922 0.16932 0.88447 0.38100
C 	C 	0.93723 0.18362 0.89931 -0.15500
C 	C 	0.92640 0.21180 0.88940 0.07500
C 	C 	0.01390 0.21360 0.75660 -0.01900
C 	C 	0.02310 0.20010 0.78670 0.02300
O 	O 	0.96974 0.18039 0.86132 -0.38400
C 	C 	0.00860 0.19100 0.77660 0.02100
O 	O 	0.97008 0.64617 0.39541 -0.39500
C 	C 	0.95922 0.66932 0.38447 0.38100
C 	C 	0.93723 0.68362 0.39931 -0.15500
C 	C 	0.92640 0.71180 0.38940 0.07500
C 	C 	0.01390 0.71360 0.25660 -0.01900
C 	C 	0.02310 0.70010 0.28670 0.02300
O 	O 	0.96974 0.68039 0.36132 -0.38400
C 	C 	0.00860 0.69100 0.27660 0.02100
O 	O 	0.47008 0.14617 0.39541 -0.39600
C 	C 	0.45922 0.16932 0.38447 0.38100
C 	C 	0.43723 0.18362 0.39931 -0.15500
C 	C 	0.42640 0.21180 0.38940 0.07500
C 	C 	0.51390 0.21360 0.25660 -0.00200
C 	C 	0.52310 0.20010 0.28670 0.02400
O 	O 	0.46974 0.18039 0.36132 -0.38500
C 	C 	0.50860 0.19100 0.27660 0.02200
O 	O 	0.47008 0.64617 0.89541 -0.39600
C 	C 	0.45922 0.66932 0.88447 0.38100
C 	C 	0.43723 0.68362 0.89931 -0.15500
C 	C 	0.42640 0.71180 0.88940 0.07500
C 	C 	0.51390 0.71360 0.75660 -0.00200
C 	C 	0.52310 0.70010 0.78670 0.02400
O 	O 	0.46974 0.68039 0.86132 -0.38500
C 	C 	0.50860 0.69100 0.77660 0.02200
O 	O 	0.02992 0.14617 0.10459 -0.39700
C 	C 	0.04078 0.16932 0.11553 0.38100
C 	C 	0.06277 0.18362 0.10069 -0.15500
C 	C 	0.07360 0.21180 0.11060 0.07400
C 	C 	0.98610 0.21360 0.24340 0.01700
C 	C 	0.97690 0.20010 0.21330 0.02500
O 	O 	0.03026 0.18039 0.13868 -0.38600
C 	C 	0.99140 0.19100 0.22340 0.02300
O 	O 	0.02992 0.64617 0.60459 -0.39700
C 	C 	0.04078 0.66932 0.61553 0.38100
C 	C 	0.06277 0.68362 0.60069 -0.15500
C 	C 	0.07360 0.71180 0.61060 0.07400
C 	C 	0.98610 0.71360 0.74340 0.01700
C 	C 	0.97690 0.70010 0.71330 0.02500
O 	O 	0.03026 0.68039 0.63868 -0.38600
C 	C 	0.99140 0.69100 0.72340 0.02300
O 	O 	0.52992 0.14617 0.60459 -0.39600
C 	C 	0.54078 0.16932 0.61553 0.38100
C 	C 	0.56277 0.18362 0.60069 -0.15500
C 	C 	0.57360 0.21180 0.61060 0.07500
C 	C 	0.48610 0.21360 0.74340 -0.00200
C 	C 	0.47690 0.20010 0.71330 0.02400
O 	O 	0.53026 0.18039 0.63868 -0.38500
C 	C 	0.49140 0.19100 0.72340 0.02200
O 	O 	0.52992 0.64617 0.10459 -0.39600
C 	C 	0.54078 0.66932 0.11553 0.38100
C 	C 	0.56277 0.68362 0.10069 -0.15500
C 	C 	0.57360 0.71180 0.11060 0.07500
C 	C 	0.48610 0.71360 0.24340 -0.00200
C 	C 	0.47690 0.70010 0.21330 0.02400
O 	O 	0.53026 0.68039 0.13868 -0.38500
C 	C 	0.49140 0.69100 0.22340 0.02200
O 	O 	0.02992 0.85383 0.89541 -0.39700
C 	C 	0.04078 0.83068 0.88447 0.38100
C 	C 	0.06277 0.81638 0.89931 -0.15500
C 	C 	0.07360 0.78820 0.88940 0.07500
C 	C 	0.98610 0.78640 0.75660 0.01700
C 	C 	0.97690 0.79990 0.78670 0.02500
O 	O 	0.03026 0.81961 0.86132 -0.38600
C 	C 	0.99140 0.80900 0.77660 0.02300
O 	O 	0.02992 0.35383 0.39541 -0.39700
C 	C 	0.04078 0.33068 0.38447 0.38100
C 	C 	0.06277 0.31638 0.39931 -0.15500
C 	C 	0.07360 0.28820 0.38940 0.07400
C 	C 	0.98610 0.28640 0.25660 0.01700
C 	C 	0.97690 0.29990 0.28670 0.02500
O 	O 	0.03026 0.31961 0.36132 -0.38600
C 	C 	0.99140 0.30900 0.27660 0.02300
O 	O 	0.52992 0.85383 0.39541 -0.39600
C 	C 	0.54078 0.83068 0.38447 0.38100
C 	C 	0.56277 0.81638 0.39931 -0.15500
C 	C 	0.57360 0.78820 0.38940 0.07500
C 	C 	0.48610 0.78640 0.25660 -0.00200
C 	C 	0.47690 0.79990 0.28670 0.02400
O 	O 	0.53026 0.81961 0.36132 -0.38500
C 	C 	0.49140 0.80900 0.27660 0.02200
O 	O 	0.52992 0.35383 0.89541 -0.39600
C 	C 	0.54078 0.33068 0.88447 0.38100
C 	C 	0.56277 0.31638 0.89931 -0.15500
C 	C 	0.57360 0.28820 0.88940 0.07500
C 	C 	0.48610 0.28640 0.75660 -0.00200
C 	C 	0.47690 0.29990 0.78670 0.02400
O 	O 	0.53026 0.31961 0.86132 -0.38500
C 	C 	0.49140 0.30900 0.77660 0.02200
O 	O 	0.97008 0.85383 0.10459 -0.39500
C 	C 	0.95922 0.83068 0.11553 0.38100
C 	C 	0.93723 0.81638 0.10069 -0.15500
C 	C 	0.92640 0.78820 0.11060 0.07500
C 	C 	0.01390 0.78640 0.24340 -0.01900
C 	C 	0.02310 0.79990 0.21330 0.02300
O 	O 	0.96974 0.81961 0.13868 -0.38400
C 	C 	0.00860 0.80900 0.22340 0.02100
O 	O 	0.97008 0.35383 0.60459 -0.39500
C 	C 	0.95922 0.33068 0.61553 0.38100
C 	C 	0.93723 0.31638 0.60069 -0.15500
C 	C 	0.92640 0.28820 0.61060 0.07500
C 	C 	0.01390 0.28640 0.74340 -0.01900
C 	C 	0.02310 0.29990 0.71330 0.02300
O 	O 	0.96974 0.31961 0.63868 -0.38400
C 	C 	0.00860 0.30900 0.72340 0.02100
O 	O 	0.47008 0.85383 0.60459 -0.39600
C 	C 	0.45922 0.83068 0.61553 0.38100
C 	C 	0.43723 0.81638 0.60069 -0.15500
C 	C 	0.42640 0.78820 0.61060 0.07500
C 	C 	0.51390 0.78640 0.74340 -0.00200
C 	C 	0.52310 0.79990 0.71330 0.02400
O 	O 	0.46974 0.81961 0.63868 -0.38500
C 	C 	0.50860 0.80900 0.72340 0.02200
O 	O 	0.47008 0.35383 0.10459 -0.39600
C 	C 	0.45922 0.33068 0.11553 0.38100
C 	C 	0.43723 0.31638 0.10069 -0.15500
C 	C 	0.42640 0.28820 0.11060 0.07500
C 	C 	0.51390 0.28640 0.24340 -0.00200
C 	C 	0.52310 0.29990 0.21330 0.02400
O 	O 	0.46974 0.31961 0.13868 -0.38500
C 	C 	0.50860 0.30900 0.22340 0.02200
O 	O 	0.14617 0.10459 0.02992 -0.39700
C 	C 	0.16932 0.11553 0.04078 0.38100
C 	C 	0.18362 0.10069 0.06277 -0.15500
C 	C 	0.21180 0.11060 0.07360 0.07400
C 	C 	0.21360 0.24340 0.98610 0.01700
C 	C 	0.20010 0.21330 0.97690 0.02500
O 	O 	0.18039 0.13868 0.03026 -0.38600
C 	C 	0.19100 0.22340 0.99140 0.02300
O 	O 	0.14617 0.60459 0.52992 -0.39600
C 	C 	0.16932 0.61553 0.54078 0.38100
C 	C 	0.18362 0.60069 0.56277 -0.15500
C 	C 	0.21180 0.61060 0.57360 0.07500
C 	C 	0.21360 0.74340 0.48610 -0.00200
C 	C 	0.20010 0.71330 0.47690 0.02400
O 	O 	0.18039 0.63868 0.53026 -0.38500
C 	C 	0.19100 0.72340 0.49140 0.02200
O 	O 	0.64617 0.10459 0.52992 -0.39600
C 	C 	0.66932 0.11553 0.54078 0.38100
C 	C 	0.68362 0.10069 0.56277 -0.15500
C 	C 	0.71180 0.11060 0.57360 0.07500
C 	C 	0.71360 0.24340 0.48610 -0.00200
C 	C 	0.70010 0.21330 0.47690 0.02400
O 	O 	0.68039 0.13868 0.53026 -0.38500
C 	C 	0.69100 0.22340 0.49140 0.02200
O 	O 	0.64617 0.60459 0.02992 -0.39700
C 	C 	0.66932 0.61553 0.04078 0.38100
C 	C 	0.68362 0.60069 0.06277 -0.15500
C 	C 	0.71180 0.61060 0.07360 0.07400
C 	C 	0.71360 0.74340 0.98610 0.01700
C 	C 	0.70010 0.71330 0.97690 0.02500
O 	O 	0.68039 0.63868 0.03026 -0.38600
C 	C 	0.69100 0.72340 0.99140 0.02300
O 	O 	0.14617 0.89541 0.97008 -0.39500
C 	C 	0.16932 0.88447 0.95922 0.38100
C 	C 	0.18362 0.89931 0.93723 -0.15500
C 	C 	0.21180 0.88940 0.92640 0.07500
C 	C 	0.21360 0.75660 0.01390 -0.01900
C 	C 	0.20010 0.78670 0.02310 0.02300
O 	O 	0.18039 0.86132 0.96974 -0.38400
C 	C 	0.19100 0.77660 0.00860 0.02100
O 	O 	0.14617 0.39541 0.47008 -0.39600
C 	C 	0.16932 0.38447 0.45922 0.38100
C 	C 	0.18362 0.39931 0.43723 -0.15500
C 	C 	0.21180 0.38940 0.42640 0.07500
C 	C 	0.21360 0.25660 0.51390 -0.00200
C 	C 	0.20010 0.28670 0.52310 0.02400
O 	O 	0.18039 0.36132 0.46974 -0.38500
C 	C 	0.19100 0.27660 0.50860 0.02200
O 	O 	0.64617 0.89541 0.47008 -0.39600
C 	C 	0.66932 0.88447 0.45922 0.38100
C 	C 	0.68362 0.89931 0.43723 -0.15500
C 	C 	0.71180 0.88940 0.42640 0.07500
C 	C 	0.71360 0.75660 0.51390 -0.00200
C 	C 	0.70010 0.78670 0.52310 0.02400
O 	O 	0.68039 0.86132 0.46974 -0.38500
C 	C 	0.69100 0.77660 0.50860 0.02200
O 	O 	0.64617 0.39541 0.97008 -0.39500
C 	C 	0.66932 0.38447 0.95922 0.38100
C 	C 	0.68362 0.39931 0.93723 -0.15500
C 	C 	0.71180 0.38940 0.92640 0.07500
C 	C 	0.71360 0.25660 0.01390 -0.01900
C 	C 	0.70010 0.28670 0.02310 0.02300
O 	O 	0.68039 0.36132 0.96974 -0.38400
C 	C 	0.69100 0.27660 0.00860 0.02100
O 	O 	0.85383 0.10459 0.97008 -0.39500
C 	C 	0.83068 0.11553 0.95922 0.38100
C 	C 	0.81638 0.10069 0.93723 -0.15500
C 	C 	0.78820 0.11060 0.92640 0.07500
C 	C 	0.78640 0.24340 0.01390 -0.01900
C 	C 	0.79990 0.21330 0.02310 0.02300
O 	O 	0.81961 0.13868 0.96974 -0.38400
C 	C 	0.80900 0.22340 0.00860 0.02100
O 	O 	0.85383 0.60459 0.47008 -0.39600
C 	C 	0.83068 0.61553 0.45922 0.38100
C 	C 	0.81638 0.60069 0.43723 -0.15500
C 	C 	0.78820 0.61060 0.42640 0.07500
C 	C 	0.78640 0.74340 0.51390 -0.00200
C 	C 	0.79990 0.71330 0.52310 0.02400
O 	O 	0.81961 0.63868 0.46974 -0.38500
C 	C 	0.80900 0.72340 0.50860 0.02200
O 	O 	0.35383 0.10459 0.47008 -0.39600
C 	C 	0.33068 0.11553 0.45922 0.38100
C 	C 	0.31638 0.10069 0.43723 -0.15500
C 	C 	0.28820 0.11060 0.42640 0.07500
C 	C 	0.28640 0.24340 0.51390 -0.00200
C 	C 	0.29990 0.21330 0.52310 0.02400
O 	O 	0.31961 0.13868 0.46974 -0.38500
C 	C 	0.30900 0.22340 0.50860 0.02200
O 	O 	0.35383 0.60459 0.97008 -0.39500
C 	C 	0.33068 0.61553 0.95922 0.38100
C 	C 	0.31638 0.60069 0.93723 -0.15500
C 	C 	0.28820 0.61060 0.92640 0.07500
C 	C 	0.28640 0.74340 0.01390 -0.01900
C 	C 	0.29990 0.71330 0.02310 0.02300
O 	O 	0.31961 0.63868 0.96974 -0.38400
C 	C 	0.30900 0.72340 0.00860 0.02100
O 	O 	0.85383 0.89541 0.02992 -0.39700
C 	C 	0.83068 0.88447 0.04078 0.38100
C 	C 	0.81638 0.89931 0.06277 -0.15500
C 	C 	0.78820 0.88940 0.07360 0.07500
C 	C 	0.78640 0.75660 0.98610 0.01700
C 	C 	0.79990 0.78670 0.97690 0.02500
O 	O 	0.81961 0.86132 0.03026 -0.38600
C 	C 	0.80900 0.77660 0.99140 0.02300
O 	O 	0.85383 0.39541 0.52992 -0.39600
C 	C 	0.83068 0.38447 0.54078 0.38100
C 	C 	0.81638 0.39931 0.56277 -0.15500
C 	C 	0.78820 0.38940 0.57360 0.07500
C 	C 	0.78640 0.25660 0.48610 -0.00200
C 	C 	0.79990 0.28670 0.47690 0.02400
O 	O 	0.81961 0.36132 0.53026 -0.38500
C 	C 	0.80900 0.27660 0.49140 0.02200
O 	O 	0.35383 0.89541 0.52992 -0.39600
C 	C 	0.33068 0.88447 0.54078 0.38100
C 	C 	0.31638 0.89931 0.56277 -0.15500
C 	C 	0.28820 0.88940 0.57360 0.07500
C 	C 	0.28640 0.75660 0.48610 -0.00200
C 	C 	0.29990 0.78670 0.47690 0.02400
O 	O 	0.31961 0.86132 0.53026 -0.38500
C 	C 	0.30900 0.77660 0.49140 0.02200
O 	O 	0.35383 0.39541 0.02992 -0.39700
C 	C 	0.33068 0.38447 0.04078 0.38100
C 	C 	0.31638 0.39931 0.06277 -0.15500
C 	C 	0.28820 0.38940 0.07360 0.07400
C 	C 	0.28640 0.25660 0.98610 0.01700
C 	C 	0.29990 0.28670 0.97690 0.02500
O 	O 	0.31961 0.36132 0.03026 -0.38600
C 	C 	0.30900 0.27660 0.99140 0.02300
O 	O 	0.02992 0.89541 0.85383 -0.39700
C 	C 	0.04078 0.88447 0.83068 0.38100
C 	C 	0.06277 0.89931 0.81638 -0.15500
C 	C 	0.07360 0.88940 0.78820 0.07500
C 	C 	0.98610 0.75660 0.78640 0.01700
C 	C 	0.97690 0.78670 0.79990 0.02500
O 	O 	0.03026 0.86132 0.81961 -0.38600
C 	C 	0.99140 0.77660 0.80900 0.02300
O 	O 	0.02992 0.39541 0.35383 -0.39700
C 	C 	0.04078 0.38447 0.33068 0.38100
C 	C 	0.06277 0.39931 0.31638 -0.15500
C 	C 	0.07360 0.38940 0.28820 0.07400
C 	C 	0.98610 0.25660 0.28640 0.01700
C 	C 	0.97690 0.28670 0.29990 0.02500
O 	O 	0.03026 0.36132 0.31961 -0.38600
C 	C 	0.99140 0.27660 0.30900 0.02300
O 	O 	0.52992 0.89541 0.35383 -0.39600
C 	C 	0.54078 0.88447 0.33068 0.38100
C 	C 	0.56277 0.89931 0.31638 -0.15500
C 	C 	0.57360 0.88940 0.28820 0.07500
C 	C 	0.48610 0.75660 0.28640 -0.00200
C 	C 	0.47690 0.78670 0.29990 0.02400
O 	O 	0.53026 0.86132 0.31961 -0.38500
C 	C 	0.49140 0.77660 0.30900 0.02200
O 	O 	0.52992 0.39541 0.85383 -0.39600
C 	C 	0.54078 0.38447 0.83068 0.38100
C 	C 	0.56277 0.39931 0.81638 -0.15500
C 	C 	0.57360 0.38940 0.78820 0.07500
C 	C 	0.48610 0.25660 0.78640 -0.00200
C 	C 	0.47690 0.28670 0.79990 0.02400
O 	O 	0.53026 0.36132 0.81961 -0.38500
C 	C 	0.49140 0.27660 0.80900 0.02200
O 	O 	0.97008 0.10459 0.85383 -0.39500
C 	C 	0.95922 0.11553 0.83068 0.38100
C 	C 	0.93723 0.10069 0.81638 -0.15500
C 	C 	0.92640 0.11060 0.78820 0.07500
C 	C 	0.01390 0.24340 0.78640 -0.01900
C 	C 	0.02310 0.21330 0.79990 0.02300
O 	O 	0.96974 0.13868 0.81961 -0.38400
C 	C 	0.00860 0.22340 0.80900 0.02100
O 	O 	0.97008 0.60459 0.35383 -0.39500
C 	C 	0.95922 0.61553 0.33068 0.38100
C 	C 	0.93723 0.60069 0.31638 -0.15500
C 	C 	0.92640 0.61060 0.28820 0.07500
C 	C 	0.01390 0.74340 0.28640 -0.01900
C 	C 	0.02310 0.71330 0.29990 0.02300
O 	O 	0.96974 0.63868 0.31961 -0.38400
C 	C 	0.00860 0.72340 0.30900 0.02100
O 	O 	0.47008 0.10459 0.35383 -0.39600
C 	C 	0.45922 0.11553 0.33068 0.38100
C 	C 	0.43723 0.10069 0.31638 -0.15500
C 	C 	0.42640 0.11060 0.28820 0.07500
C 	C 	0.51390 0.24340 0.28640 -0.00200
C 	C 	0.52310 0.21330 0.29990 0.02400
O 	O 	0.46974 0.13868 0.31961 -0.38500
C 	C 	0.50860 0.22340 0.30900 0.02200
O 	O 	0.47008 0.60459 0.85383 -0.39600
C 	C 	0.45922 0.61553 0.83068 0.38100
C 	C 	0.43723 0.60069 0.81638 -0.15500
C 	C 	0.42640 0.61060 0.78820 0.07500
C 	C 	0.51390 0.74340 0.78640 -0.00200
C 	C 	0.52310 0.71330 0.79990 0.02400
O 	O 	0.46974 0.63868 0.81961 -0.38500
C 	C 	0.50860 0.72340 0.80900 0.02200
O 	O 	0.97008 0.89541 0.14617 -0.39500
C 	C 	0.95922 0.88447 0.16932 0.38100
C 	C 	0.93723 0.89931 0.18362 -0.15500
C 	C 	0.92640 0.88940 0.21180 0.07500
C 	C 	0.01390 0.75660 0.21360 -0.01900
C 	C 	0.02310 0.78670 0.20010 0.02300
O 	O 	0.96974 0.86132 0.18039 -0.38400
C 	C 	0.00860 0.77660 0.19100 0.02100
O 	O 	0.97008 0.39541 0.64617 -0.39500
C 	C 	0.95922 0.38447 0.66932 0.38100
C 	C 	0.93723 0.39931 0.68362 -0.15500
C 	C 	0.92640 0.38940 0.71180 0.07500
C 	C 	0.01390 0.25660 0.71360 -0.01900
C 	C 	0.02310 0.28670 0.70010 0.02300
O 	O 	0.96974 0.36132 0.68039 -0.38400
C 	C 	0.00860 0.27660 0.69100 0.02100
O 	O 	0.47008 0.89541 0.64617 -0.39600
C 	C 	0.45922 0.88447 0.66932 0.38100
C 	C 	0.43723 0.89931 0.68362 -0.15500
C 	C 	0.42640 0.88940 0.71180 0.07500
C 	C 	0.51390 0.75660 0.71360 -0.00200
C 	C 	0.52310 0.78670 0.70010 0.02400
O 	O 	0.46974 0.86132 0.68039 -0.38500
C 	C 	0.50860 0.77660 0.69100 0.02200
O 	O 	0.47008 0.39541 0.14617 -0.39600
C 	C 	0.45922 0.38447 0.16932 0.38100
C 	C 	0.43723 0.39931 0.18362 -0.15500
C 	C 	0.42640 0.38940 0.21180 0.07500
C 	C 	0.51390 0.25660 0.21360 -0.00200
C 	C 	0.52310 0.28670 0.20010 0.02400
O 	O 	0.46974 0.36132 0.18039 -0.38500
C 	C 	0.50860 0.27660 0.19100 0.02200
O 	O 	0.02992 0.10459 0.14617 -0.39700
C 	C 	0.04078 0.11553 0.16932 0.38100
C 	C 	0.06277 0.10069 0.18362 -0.15500
C 	C 	0.07360 0.11060 0.21180 0.07400
C 	C 	0.98610 0.24340 0.21360 0.01700
C 	C 	0.97690 0.21330 0.20010 0.02500
O 	O 	0.03026 0.13868 0.18039 -0.38600
C 	C 	0.99140 0.22340 0.19100 0.02300
O 	O 	0.02992 0.60459 0.64617 -0.39700
C 	C 	0.04078 0.61553 0.66932 0.38100
C 	C 	0.06277 0.60069 0.68362 -0.15500
C 	C 	0.07360 0.61060 0.71180 0.07400
C 	C 	0.98610 0.74340 0.71360 0.01700
C 	C 	0.97690 0.71330 0.70010 0.02500
O 	O 	0.03026 0.63868 0.68039 -0.38600
C 	C 	0.99140 0.72340 0.69100 0.02300
O 	O 	0.52992 0.10459 0.64617 -0.39600
C 	C 	0.54078 0.11553 0.66932 0.38100
C 	C 	0.56277 0.10069 0.68362 -0.15500
C 	C 	0.57360 0.11060 0.71180 0.07500
C 	C 	0.48610 0.24340 0.71360 -0.00200
C 	C 	0.47690 0.21330 0.70010 0.02400
O 	O 	0.53026 0.13868 0.68039 -0.38500
C 	C 	0.49140 0.22340 0.69100 0.02200
O 	O 	0.52992 0.60459 0.14617 -0.39600
C 	C 	0.54078 0.61553 0.16932 0.38100
C 	C 	0.56277 0.60069 0.18362 -0.15500
C 	C 	0.57360 0.61060 0.21180 0.07500
C 	C 	0.48610 0.74340 0.21360 -0.00200
C 	C 	0.47690 0.71330 0.20010 0.02400
O 	O 	0.53026 0.63868 0.18039 -0.38500
C 	C 	0.49140 0.72340 0.19100 0.02200
O 	O 	0.85383 0.02992 0.89541 -0.39700
C 	C 	0.83068 0.04078 0.88447 0.38100
C 	C 	0.81638 0.06277 0.89931 -0.15500
C 	C 	0.78820 0.07360 0.88940 0.07500
C 	C 	0.78640 0.98610 0.75660 0.01700
C 	C 	0.79990 0.97690 0.78670 0.02500
O 	O 	0.81961 0.03026 0.86132 -0.38600
C 	C 	0.80900 0.99140 0.77660 0.02300
O 	O 	0.85383 0.52992 0.39541 -0.39600
C 	C 	0.83068 0.54078 0.38447 0.38100
C 	C 	0.81638 0.56277 0.39931 -0.15500
C 	C 	0.78820 0.57360 0.38940 0.07500
C 	C 	0.78640 0.48610 0.25660 -0.00200
C 	C 	0.79990 0.47690 0.28670 0.02400
O 	O 	0.81961 0.53026 0.36132 -0.38500
C 	C 	0.80900 0.49140 0.27660 0.02200
O 	O 	0.35383 0.02992 0.39541 -0.39700
C 	C 	0.33068 0.04078 0.38447 0.38100
C 	C 	0.31638 0.06277 0.39931 -0.15500
C 	C 	0.28820 0.07360 0.38940 0.07400
C 	C 	0.28640 0.98610 0.25660 0.01700
C 	C 	0.29990 0.97690 0.28670 0.02500
O 	O 	0.31961 0.03026 0.36132 -0.38600
C 	C 	0.30900 0.99140 0.27660 0.02300
O 	O 	0.35383 0.52992 0.89541 -0.39600
C 	C 	0.33068 0.54078 0.88447 0.38100
C 	C 	0.31638 0.56277 0.89931 -0.15500
C 	C 	0.28820 0.57360 0.88940 0.07500
C 	C 	0.28640 0.48610 0.75660 -0.00200
C 	C 	0.29990 0.47690 0.78670 0.02400
O 	O 	0.31961 0.53026 0.86132 -0.38500
C 	C 	0.30900 0.49140 0.77660 0.02200
O 	O 	0.85383 0.97008 0.10459 -0.39500
C 	C 	0.83068 0.95922 0.11553 0.38100
C 	C 	0.81638 0.93723 0.10069 -0.15500
C 	C 	0.78820 0.92640 0.11060 0.07500
C 	C 	0.78640 0.01390 0.24340 -0.01900
C 	C 	0.79990 0.02310 0.21330 0.02300
O 	O 	0.81961 0.96974 0.13868 -0.38400
C 	C 	0.80900 0.00860 0.22340 0.02100
O 	O 	0.85383 0.47008 0.60459 -0.39600
C 	C 	0.83068 0.45922 0.61553 0.38100
C 	C 	0.81638 0.43723 0.60069 -0.15500
C 	C 	0.78820 0.42640 0.61060 0.07500
C 	C 	0.78640 0.51390 0.74340 -0.00200
C 	C 	0.79990 0.52310 0.71330 0.02400
O 	O 	0.81961 0.46974 0.63868 -0.38500
C 	C 	0.80900 0.50860 0.72340 0.02200
O 	O 	0.35383 0.97008 0.60459 -0.39500
C 	C 	0.33068 0.95922 0.61553 0.38100
C 	C 	0.31638 0.93723 0.60069 -0.15500
C 	C 	0.28820 0.92640 0.61060 0.07500
C 	C 	0.28640 0.01390 0.74340 -0.01900
C 	C 	0.29990 0.02310 0.71330 0.02300
O 	O 	0.31961 0.96974 0.63868 -0.38400
C 	C 	0.30900 0.00860 0.72340 0.02100
O 	O 	0.35383 0.47008 0.10459 -0.39600
C 	C 	0.33068 0.45922 0.11553 0.38100
C 	C 	0.31638 0.43723 0.10069 -0.15500
C 	C 	0.28820 0.42640 0.11060 0.07500
C 	C 	0.28640 0.51390 0.24340 -0.00200
C 	C 	0.29990 0.52310 0.21330 0.02400
O 	O 	0.31961 0.46974 0.13868 -0.38500
C 	C 	0.30900 0.50860 0.22340 0.02200
O 	O 	0.14617 0.97008 0.89541 -0.39500
C 	C 	0.16932 0.95922 0.88447 0.38100
C 	C 	0.18362 0.93723 0.89931 -0.15500
C 	C 	0.21180 0.92640 0.88940 0.07500
C 	C 	0.21360 0.01390 0.75660 -0.01900
C 	C 	0.20010 0.02310 0.78670 0.02300
O 	O 	0.18039 0.96974 0.86132 -0.38400
C 	C 	0.19100 0.00860 0.77660 0.02100
O 	O 	0.14617 0.47008 0.39541 -0.39600
C 	C 	0.16932 0.45922 0.38447 0.38100
C 	C 	0.18362 0.43723 0.39931 -0.15500
C 	C 	0.21180 0.42640 0.38940 0.07500
C 	C 	0.21360 0.51390 0.25660 -0.00200
C 	C 	0.20010 0.52310 0.28670 0.02400
O 	O 	0.18039 0.46974 0.36132 -0.38500
C 	C 	0.19100 0.50860 0.27660 0.02200
O 	O 	0.64617 0.97008 0.39541 -0.39500
C 	C 	0.66932 0.95922 0.38447 0.38100
C 	C 	0.68362 0.93723 0.39931 -0.15500
C 	C 	0.71180 0.92640 0.38940 0.07500
C 	C 	0.71360 0.01390 0.25660 -0.01900
C 	C 	0.70010 0.02310 0.28670 0.02300
O 	O 	0.68039 0.96974 0.36132 -0.38400
C 	C 	0.69100 0.00860 0.27660 0.02100
O 	O 	0.64617 0.47008 0.89541 -0.39600
C 	C 	0.66932 0.45922 0.88447 0.38100
C 	C 	0.68362 0.43723 0.89931 -0.15500
C 	C 	0.71180 0.42640 0.88940 0.07500
C 	C 	0.71360 0.51390 0.75660 -0.00200
C 	C 	0.70010 0.52310 0.78670 0.02400
O 	O 	0.68039 0.46974 0.86132 -0.38500
C 	C 	0.69100 0.50860 0.77660 0.02200
O 	O 	0.14617 0.02992 0.10459 -0.39700
C 	C 	0.16932 0.04078 0.11553 0.38100
C 	C 	0.18362 0.06277 0.10069 -0.15500
C 	C 	0.21180 0.07360 0.11060 0.07400
C 	C 	0.21360 0.98610 0.24340 0.01700
C 	C 	0.20010 0.97690 0.21330 0.02500
O 	O 	0.18039 0.03026 0.13868 -0.38600
C 	C 	0.19100 0.99140 0.22340 0.02300
O 	O 	0.14617 0.52992 0.60459 -0.39600
C 	C 	0.16932 0.54078 0.61553 0.38100
C 	C 	0.18362 0.56277 0.60069 -0.15500
C 	C 	0.21180 0.57360 0.61060 0.07500
C 	C 	0.21360 0.48610 0.74340 -0.00200
C 	C 	0.20010 0.47690 0.71330 0.02400
O 	O 	0.18039 0.53026 0.63868 -0.38500
C 	C 	0.19100 0.49140 0.72340 0.02200
O 	O 	0.64617 0.02992 0.60459 -0.39700
C 	C 	0.66932 0.04078 0.61553 0.38100
C 	C 	0.68362 0.06277 0.60069 -0.15500
C 	C 	0.71180 0.07360 0.61060 0.07400
C 	C 	0.71360 0.98610 0.74340 0.01700
C 	C 	0.70010 0.97690 0.71330 0.02500
O 	O 	0.68039 0.03026 0.63868 -0.38600
C 	C 	0.69100 0.99140 0.72340 0.02300
O 	O 	0.64617 0.52992 0.10459 -0.39600
C 	C 	0.66932 0.54078 0.11553 0.38100
C 	C 	0.68362 0.56277 0.10069 -0.15500
C 	C 	0.71180 0.57360 0.11060 0.07500
C 	C 	0.71360 0.48610 0.24340 -0.00200
C 	C 	0.70010 0.47690 0.21330 0.02400
O 	O 	0.68039 0.53026 0.13868 -0.38500
C 	C 	0.69100 0.49140 0.22340 0.02200
O 	O 	0.89541 0.85383 0.02992 -0.39700
C 	C 	0.88447 0.83068 0.04078 0.38100
C 	C 	0.89931 0.81638 0.06277 -0.15500
C 	C 	0.88940 0.78820 0.07360 0.07500
C 	C 	0.75660 0.78640 0.98610 0.01700
C 	C 	0.78670 0.79990 0.97690 0.02500
O 	O 	0.86132 0.81961 0.03026 -0.38600
C 	C 	0.77660 0.80900 0.99140 0.02300
O 	O 	0.89541 0.35383 0.52992 -0.39600
C 	C 	0.88447 0.33068 0.54078 0.38100
C 	C 	0.89931 0.31638 0.56277 -0.15500
C 	C 	0.88940 0.28820 0.57360 0.07500
C 	C 	0.75660 0.28640 0.48610 -0.00200
C 	C 	0.78670 0.29990 0.47690 0.02400
O 	O 	0.86132 0.31961 0.53026 -0.38500
C 	C 	0.77660 0.30900 0.49140 0.02200
O 	O 	0.39541 0.85383 0.52992 -0.39600
C 	C 	0.38447 0.83068 0.54078 0.38100
C 	C 	0.39931 0.81638 0.56277 -0.15500
C 	C 	0.38940 0.78820 0.57360 0.07500
C 	C 	0.25660 0.78640 0.48610 -0.00200
C 	C 	0.28670 0.79990 0.47690 0.02400
O 	O 	0.36132 0.81961 0.53026 -0.38500
C 	C 	0.27660 0.80900 0.49140 0.02200
O 	O 	0.39541 0.35383 0.02992 -0.39700
C 	C 	0.38447 0.33068 0.04078 0.38100
C 	C 	0.39931 0.31638 0.06277 -0.15500
C 	C 	0.38940 0.28820 0.07360 0.07400
C 	C 	0.25660 0.28640 0.98610 0.01700
C 	C 	0.28670 0.29990 0.97690 0.02500
O 	O 	0.36132 0.31961 0.03026 -0.38600
C 	C 	0.27660 0.30900 0.99140 0.02300
O 	O 	0.10459 0.85383 0.97008 -0.39500
C 	C 	0.11553 0.83068 0.95922 0.38100
C 	C 	0.10069 0.81638 0.93723 -0.15500
C 	C 	0.11060 0.78820 0.92640 0.07500
C 	C 	0.24340 0.78640 0.01390 -0.01900
C 	C 	0.21330 0.79990 0.02310 0.02300
O 	O 	0.13868 0.81961 0.96974 -0.38400
C 	C 	0.22340 0.80900 0.00860 0.02100
O 	O 	0.10459 0.35383 0.47008 -0.39600
C 	C 	0.11553 0.33068 0.45922 0.38100
C 	C 	0.10069 0.31638 0.43723 -0.15500
C 	C 	0.11060 0.28820 0.42640 0.07500
C 	C 	0.24340 0.28640 0.51390 -0.00200
C 	C 	0.21330 0.29990 0.52310 0.02400
O 	O 	0.13868 0.31961 0.46974 -0.38500
C 	C 	0.22340 0.30900 0.50860 0.02200
O 	O 	0.60459 0.85383 0.47008 -0.39600
C 	C 	0.61553 0.83068 0.45922 0.38100
C 	C 	0.60069 0.81638 0.43723 -0.15500
C 	C 	0.61060 0.78820 0.42640 0.07500
C 	C 	0.74340 0.78640 0.51390 -0.00200
C 	C 	0.71330 0.79990 0.52310 0.02400
O 	O 	0.63868 0.81961 0.46974 -0.38500
C 	C 	0.72340 0.80900 0.50860 0.02200
O 	O 	0.60459 0.35383 0.97008 -0.39500
C 	C 	0.61553 0.33068 0.95922 0.38100
C 	C 	0.60069 0.31638 0.93723 -0.15500
C 	C 	0.61060 0.28820 0.92640 0.07500
C 	C 	0.74340 0.28640 0.01390 -0.01900
C 	C 	0.71330 0.29990 0.02310 0.02300
O 	O 	0.63868 0.31961 0.96974 -0.38400
C 	C 	0.72340 0.30900 0.00860 0.02100
O 	O 	0.89541 0.14617 0.97008 -0.39500
C 	C 	0.88447 0.16932 0.95922 0.38100
C 	C 	0.89931 0.18362 0.93723 -0.15500
C 	C 	0.88940 0.21180 0.92640 0.07500
C 	C 	0.75660 0.21360 0.01390 -0.01900
C 	C 	0.78670 0.20010 0.02310 0.02300
O 	O 	0.86132 0.18039 0.96974 -0.38400
C 	C 	0.77660 0.19100 0.00860 0.02100
O 	O 	0.89541 0.64617 0.47008 -0.39600
C 	C 	0.88447 0.66932 0.45922 0.38100
C 	C 	0.89931 0.68362 0.43723 -0.15500
C 	C 	0.88940 0.71180 0.42640 0.07500
C 	C 	0.75660 0.71360 0.51390 -0.00200
C 	C 	0.78670 0.70010 0.52310 0.02400
O 	O 	0.86132 0.68039 0.46974 -0.38500
C 	C 	0.77660 0.69100 0.50860 0.02200
O 	O 	0.39541 0.14617 0.47008 -0.39600
C 	C 	0.38447 0.16932 0.45922 0.38100
C 	C 	0.39931 0.18362 0.43723 -0.15500
C 	C 	0.38940 0.21180 0.42640 0.07500
C 	C 	0.25660 0.21360 0.51390 -0.00200
C 	C 	0.28670 0.20010 0.52310 0.02400
O 	O 	0.36132 0.18039 0.46974 -0.38500
C 	C 	0.27660 0.19100 0.50860 0.02200
O 	O 	0.39541 0.64617 0.97008 -0.39500
C 	C 	0.38447 0.66932 0.95922 0.38100
C 	C 	0.39931 0.68362 0.93723 -0.15500
C 	C 	0.38940 0.71180 0.92640 0.07500
C 	C 	0.25660 0.71360 0.01390 -0.01900
C 	C 	0.28670 0.70010 0.02310 0.02300
O 	O 	0.36132 0.68039 0.96974 -0.38400
C 	C 	0.27660 0.69100 0.00860 0.02100
O 	O 	0.10459 0.14617 0.02992 -0.39700
C 	C 	0.11553 0.16932 0.04078 0.38100
C 	C 	0.10069 0.18362 0.06277 -0.15500
C 	C 	0.11060 0.21180 0.07360 0.07400
C 	C 	0.24340 0.21360 0.98610 0.01700
C 	C 	0.21330 0.20010 0.97690 0.02500
O 	O 	0.13868 0.18039 0.03026 -0.38600
C 	C 	0.22340 0.19100 0.99140 0.02300
O 	O 	0.10459 0.64617 0.52992 -0.39600
C 	C 	0.11553 0.66932 0.54078 0.38100
C 	C 	0.10069 0.68362 0.56277 -0.15500
C 	C 	0.11060 0.71180 0.57360 0.07500
C 	C 	0.24340 0.71360 0.48610 -0.00200
C 	C 	0.21330 0.70010 0.47690 0.02400
O 	O 	0.13868 0.68039 0.53026 -0.38500
C 	C 	0.22340 0.69100 0.49140 0.02200
O 	O 	0.60459 0.14617 0.52992 -0.39600
C 	C 	0.61553 0.16932 0.54078 0.38100
C 	C 	0.60069 0.18362 0.56277 -0.15500
C 	C 	0.61060 0.21180 0.57360 0.07500
C 	C 	0.74340 0.21360 0.48610 -0.00200
C 	C 	0.71330 0.20010 0.47690 0.02400
O 	O 	0.63868 0.18039 0.53026 -0.38500
C 	C 	0.72340 0.19100 0.49140 0.02200
O 	O 	0.60459 0.64617 0.02992 -0.39700
C 	C 	0.61553 0.66932 0.04078 0.38100
C 	C 	0.60069 0.68362 0.06277 -0.15500
C 	C 	0.61060 0.71180 0.07360 0.07400
C 	C 	0.74340 0.71360 0.98610 0.01700
C 	C 	0.71330 0.70010 0.97690 0.02500
O 	O 	0.63868 0.68039 0.03026 -0.38600
C 	C 	0.72340 0.69100 0.99140 0.02300
O 	O 	0.89541 0.02992 0.14617 -0.39700
C 	C 	0.88447 0.04078 0.16932 0.38100
C 	C 	0.89931 0.06277 0.18362 -0.15500
C 	C 	0.88940 0.07360 0.21180 0.07500
C 	C 	0.75660 0.98610 0.21360 0.01700
C 	C 	0.78670 0.97690 0.20010 0.02500
O 	O 	0.86132 0.03026 0.18039 -0.38600
C 	C 	0.77660 0.99140 0.19100 0.02300
O 	O 	0.89541 0.52992 0.64617 -0.39600
C 	C 	0.88447 0.54078 0.66932 0.38100
C 	C 	0.89931 0.56277 0.68362 -0.15500
C 	C 	0.88940 0.57360 0.71180 0.07500
C 	C 	0.75660 0.48610 0.71360 -0.00200
C 	C 	0.78670 0.47690 0.70010 0.02400
O 	O 	0.86132 0.53026 0.68039 -0.38500
C 	C 	0.77660 0.49140 0.69100 0.02200
O 	O 	0.39541 0.02992 0.64617 -0.39700
C 	C 	0.38447 0.04078 0.66932 0.38100
C 	C 	0.39931 0.06277 0.68362 -0.15500
C 	C 	0.38940 0.07360 0.71180 0.07400
C 	C 	0.25660 0.98610 0.71360 0.01700
C 	C 	0.28670 0.97690 0.70010 0.02500
O 	O 	0.36132 0.03026 0.68039 -0.38600
C 	C 	0.27660 0.99140 0.69100 0.02300
O 	O 	0.39541 0.52992 0.14617 -0.39600
C 	C 	0.38447 0.54078 0.16932 0.38100
C 	C 	0.39931 0.56277 0.18362 -0.15500
C 	C 	0.38940 0.57360 0.21180 0.07500
C 	C 	0.25660 0.48610 0.21360 -0.00200
C 	C 	0.28670 0.47690 0.20010 0.02400
O 	O 	0.36132 0.53026 0.18039 -0.38500
C 	C 	0.27660 0.49140 0.19100 0.02200
O 	O 	0.10459 0.97008 0.14617 -0.39500
C 	C 	0.11553 0.95922 0.16932 0.38100
C 	C 	0.10069 0.93723 0.18362 -0.15500
C 	C 	0.11060 0.92640 0.21180 0.07500
C 	C 	0.24340 0.01390 0.21360 -0.01900
C 	C 	0.21330 0.02310 0.20010 0.02300
O 	O 	0.13868 0.96974 0.18039 -0.38400
C 	C 	0.22340 0.00860 0.19100 0.02100
O 	O 	0.10459 0.47008 0.64617 -0.39600
C 	C 	0.11553 0.45922 0.66932 0.38100
C 	C 	0.10069 0.43723 0.68362 -0.15500
C 	C 	0.11060 0.42640 0.71180 0.07500
C 	C 	0.24340 0.51390 0.71360 -0.00200
C 	C 	0.21330 0.52310 0.70010 0.02400
O 	O 	0.13868 0.46974 0.68039 -0.38500
C 	C 	0.22340 0.50860 0.69100 0.02200
O 	O 	0.60459 0.97008 0.64617 -0.39500
C 	C 	0.61553 0.95922 0.66932 0.38100
C 	C 	0.60069 0.93723 0.68362 -0.15500
C 	C 	0.61060 0.92640 0.71180 0.07500
C 	C 	0.74340 0.01390 0.71360 -0.01900
C 	C 	0.71330 0.02310 0.70010 0.02300
O 	O 	0.63868 0.96974 0.68039 -0.38400
C 	C 	0.72340 0.00860 0.69100 0.02100
O 	O 	0.60459 0.47008 0.14617 -0.39600
C 	C 	0.61553 0.45922 0.16932 0.38100
C 	C 	0.60069 0.43723 0.18362 -0.15500
C 	C 	0.61060 0.42640 0.21180 0.07500
C 	C 	0.74340 0.51390 0.21360 -0.00200
C 	C 	0.71330 0.52310 0.20010 0.02400
O 	O 	0.63868 0.46974 0.18039 -0.38500
C 	C 	0.72340 0.50860 0.19100 0.02200
O 	O 	0.89541 0.97008 0.85383 -0.39500
C 	C 	0.88447 0.95922 0.83068 0.38100
C 	C 	0.89931 0.93723 0.81638 -0.15500
C 	C 	0.88940 0.92640 0.78820 0.07500
C 	C 	0.75660 0.01390 0.78640 -0.01900
C 	C 	0.78670 0.02310 0.79990 0.02300
O 	O 	0.86132 0.96974 0.81961 -0.38400
C 	C 	0.77660 0.00860 0.80900 0.02100
O 	O 	0.89541 0.47008 0.35383 -0.39600
C 	C 	0.88447 0.45922 0.33068 0.38100
C 	C 	0.89931 0.43723 0.31638 -0.15500
C 	C 	0.88940 0.42640 0.28820 0.07500
C 	C 	0.75660 0.51390 0.28640 -0.00200
C 	C 	0.78670 0.52310 0.29990 0.02400
O 	O 	0.86132 0.46974 0.31961 -0.38500
C 	C 	0.77660 0.50860 0.30900 0.02200
O 	O 	0.39541 0.97008 0.35383 -0.39500
C 	C 	0.38447 0.95922 0.33068 0.38100
C 	C 	0.39931 0.93723 0.31638 -0.15500
C 	C 	0.38940 0.92640 0.28820 0.07500
C 	C 	0.25660 0.01390 0.28640 -0.01900
C 	C 	0.28670 0.02310 0.29990 0.02300
O 	O 	0.36132 0.96974 0.31961 -0.38400
C 	C 	0.27660 0.00860 0.30900 0.02100
O 	O 	0.39541 0.47008 0.85383 -0.39600
C 	C 	0.38447 0.45922 0.83068 0.38100
C 	C 	0.39931 0.43723 0.81638 -0.15500
C 	C 	0.38940 0.42640 0.78820 0.07500
C 	C 	0.25660 0.51390 0.78640 -0.00200
C 	C 	0.28670 0.52310 0.79990 0.02400
O 	O 	0.36132 0.46974 0.81961 -0.38500
C 	C 	0.27660 0.50860 0.80900 0.02200
O 	O 	0.10459 0.02992 0.85383 -0.39700
C 	C 	0.11553 0.04078 0.83068 0.38100
C 	C 	0.10069 0.06277 0.81638 -0.15500
C 	C 	0.11060 0.07360 0.78820 0.07400
C 	C 	0.24340 0.98610 0.78640 0.01700
C 	C 	0.21330 0.97690 0.79990 0.02500
O 	O 	0.13868 0.03026 0.81961 -0.38600
C 	C 	0.22340 0.99140 0.80900 0.02300
O 	O 	0.10459 0.52992 0.35383 -0.39600
C 	C 	0.11553 0.54078 0.33068 0.38100
C 	C 	0.10069 0.56277 0.31638 -0.15500
C 	C 	0.11060 0.57360 0.28820 0.07500
C 	C 	0.24340 0.48610 0.28640 -0.00200
C 	C 	0.21330 0.47690 0.29990 0.02400
O 	O 	0.13868 0.53026 0.31961 -0.38500
C 	C 	0.22340 0.49140 0.30900 0.02200
O 	O 	0.60459 0.02992 0.35383 -0.39700
C 	C 	0.61553 0.04078 0.33068 0.38100
C 	C 	0.60069 0.06277 0.31638 -0.15500
C 	C 	0.61060 0.07360 0.28820 0.07400
C 	C 	0.74340 0.98610 0.28640 0.01700
C 	C 	0.71330 0.97690 0.29990 0.02500
O 	O 	0.63868 0.03026 0.31961 -0.38600
C 	C 	0.72340 0.99140 0.30900 0.02300
O 	O 	0.60459 0.52992 0.85383 -0.39600
C 	C 	0.61553 0.54078 0.83068 0.38100
C 	C 	0.60069 0.56277 0.81638 -0.15500
C 	C 	0.61060 0.57360 0.78820 0.07500
C 	C 	0.74340 0.48610 0.78640 -0.00200
C 	C 	0.71330 0.47690 0.79990 0.02400
O 	O 	0.63868 0.53026 0.81961 -0.38500
C 	C 	0.72340 0.49140 0.80900 0.02200
O 	O 	0.02992 0.85383 0.10459 -0.39700
C 	C 	0.04078 0.83068 0.11553 0.38100
C 	C 	0.06277 0.81638 0.10069 -0.15500
C 	C 	0.07360 0.78820 0.11060 0.07400
C 	C 	0.98610 0.78640 0.24340 0.01700
C 	C 	0.97690 0.79990 0.21330 0.02500
O 	O 	0.03026 0.81961 0.13868 -0.38600
C 	C 	0.99140 0.80900 0.22340 0.02300
O 	O 	0.02992 0.35383 0.60459 -0.39700
C 	C 	0.04078 0.33068 0.61553 0.38100
C 	C 	0.06277 0.31638 0.60069 -0.15500
C 	C 	0.07360 0.28820 0.61060 0.07400
C 	C 	0.98610 0.28640 0.74340 0.01700
C 	C 	0.97690 0.29990 0.71330 0.02500
O 	O 	0.03026 0.31961 0.63868 -0.38600
C 	C 	0.99140 0.30900 0.72340 0.02300
O 	O 	0.52992 0.85383 0.60459 -0.39600
C 	C 	0.54078 0.83068 0.61553 0.38100
C 	C 	0.56277 0.81638 0.60069 -0.15500
C 	C 	0.57360 0.78820 0.61060 0.07500
C 	C 	0.48610 0.78640 0.74340 -0.00200
C 	C 	0.47690 0.79990 0.71330 0.02400
O 	O 	0.53026 0.81961 0.63868 -0.38500
C 	C 	0.49140 0.80900 0.72340 0.02200
O 	O 	0.52992 0.35383 0.10459 -0.39600
C 	C 	0.54078 0.33068 0.11553 0.38100
C 	C 	0.56277 0.31638 0.10069 -0.15500
C 	C 	0.57360 0.28820 0.11060 0.07500
C 	C 	0.48610 0.28640 0.24340 -0.00200
C 	C 	0.47690 0.29990 0.21330 0.02400
O 	O 	0.53026 0.31961 0.13868 -0.38500
C 	C 	0.49140 0.30900 0.22340 0.02200
O 	O 	0.97008 0.85383 0.89541 -0.39500
C 	C 	0.95922 0.83068 0.88447 0.38100
C 	C 	0.93723 0.81638 0.89931 -0.15500
C 	C 	0.92640 0.78820 0.88940 0.07500
C 	C 	0.01390 0.78640 0.75660 -0.01900
C 	C 	0.02310 0.79990 0.78670 0.02300
O 	O 	0.96974 0.81961 0.86132 -0.38400
C 	C 	0.00860 0.80900 0.77660 0.02100
O 	O 	0.97008 0.35383 0.39541 -0.39500
C 	C 	0.95922 0.33068 0.38447 0.38100
C 	C 	0.93723 0.31638 0.39931 -0.15500
C 	C 	0.92640 0.28820 0.38940 0.07500
C 	C 	0.01390 0.28640 0.25660 -0.01900
C 	C 	0.02310 0.29990 0.28670 0.02300
O 	O 	0.96974 0.31961 0.36132 -0.38400
C 	C 	0.00860 0.30900 0.27660 0.02100
O 	O 	0.47008 0.85383 0.39541 -0.39600
C 	C 	0.45922 0.83068 0.38447 0.38100
C 	C 	0.43723 0.81638 0.39931 -0.15500
C 	C 	0.42640 0.78820 0.38940 0.07500
C 	C 	0.51390 0.78640 0.25660 -0.00200
C 	C 	0.52310 0.79990 0.28670 0.02400
O 	O 	0.46974 0.81961 0.36132 -0.38500
C 	C 	0.50860 0.80900 0.27660 0.02200
O 	O 	0.47008 0.35383 0.89541 -0.39600
C 	C 	0.45922 0.33068 0.88447 0.38100
C 	C 	0.43723 0.31638 0.89931 -0.15500
C 	C 	0.42640 0.28820 0.88940 0.07500
C 	C 	0.51390 0.28640 0.75660 -0.00200
C 	C 	0.52310 0.29990 0.78670 0.02400
O 	O 	0.46974 0.31961 0.86132 -0.38500
C 	C 	0.50860 0.30900 0.77660 0.02200
O 	O 	0.97008 0.14617 0.10459 -0.39500
C 	C 	0.95922 0.16932 0.11553 0.38100
C 	C 	0.93723 0.18362 0.10069 -0.15500
C 	C 	0.92640 0.21180 0.11060 0.07500
C 	C 	0.01390 0.21360 0.24340 -0.01900
C 	C 	0.02310 0.20010 0.21330 0.02300
O 	O 	0.96974 0.18039 0.13868 -0.38400
C 	C 	0.00860 0.19100 0.22340 0.02100
O 	O 	0.97008 0.64617 0.60459 -0.39500
C 	C 	0.95922 0.66932 0.61553 0.38100
C 	C 	0.93723 0.68362 0.60069 -0.15500
C 	C 	0.92640 0.71180 0.61060 0.07500
C 	C 	0.01390 0.71360 0.74340 -0.01900
C 	C 	0.02310 0.70010 0.71330 0.02300
O 	O 	0.96974 0.68039 0.63868 -0.38400
C 	C 	0.00860 0.69100 0.72340 0.02100
O 	O 	0.47008 0.14617 0.60459 -0.39600
C 	C 	0.45922 0.16932 0.61553 0.38100
C 	C 	0.43723 0.18362 0.60069 -0.15500
C 	C 	0.42640 0.21180 0.61060 0.07500
C 	C 	0.51390 0.21360 0.74340 -0.00200
C 	C 	0.52310 0.20010 0.71330 0.02400
O 	O 	0.46974 0.18039 0.63868 -0.38500
C 	C 	0.50860 0.19100 0.72340 0.02200
O 	O 	0.47008 0.64617 0.10459 -0.39600
C 	C 	0.45922 0.66932 0.11553 0.38100
C 	C 	0.43723 0.68362 0.10069 -0.15500
C 	C 	0.42640 0.71180 0.11060 0.07500
C 	C 	0.51390 0.71360 0.24340 -0.00200
C 	C 	0.52310 0.70010 0.21330 0.02400
O 	O 	0.46974 0.68039 0.13868 -0.38500
C 	C 	0.50860 0.69100 0.22340 0.02200
O 	O 	0.02992 0.14617 0.89541 -0.39700
C 	C 	0.04078 0.16932 0.88447 0.38100
C 	C 	0.06277 0.18362 0.89931 -0.15500
C 	C 	0.07360 0.21180 0.88940 0.07500
C 	C 	0.98610 0.21360 0.75660 0.01700
C 	C 	0.97690 0.20010 0.78670 0.02500
O 	O 	0.03026 0.18039 0.86132 -0.38600
C 	C 	0.99140 0.19100 0.77660 0.02300
O 	O 	0.02992 0.64617 0.39541 -0.39700
C 	C 	0.04078 0.66932 0.38447 0.38100
C 	C 	0.06277 0.68362 0.39931 -0.15500
C 	C 	0.07360 0.71180 0.38940 0.07400
C 	C 	0.98610 0.71360 0.25660 0.01700
C 	C 	0.97690 0.70010 0.28670 0.02500
O 	O 	0.03026 0.68039 0.36132 -0.38600
C 	C 	0.99140 0.69100 0.27660 0.02300
O 	O 	0.52992 0.14617 0.39541 -0.39600
C 	C 	0.54078 0.16932 0.38447 0.38100
C 	C 	0.56277 0.18362 0.39931 -0.15500
C 	C 	0.57360 0.21180 0.38940 0.07500
C 	C 	0.48610 0.21360 0.25660 -0.00200
C 	C 	0.47690 0.20010 0.28670 0.02400
O 	O 	0.53026 0.18039 0.36132 -0.38500
C 	C 	0.49140 0.19100 0.27660 0.02200
O 	O 	0.52992 0.64617 0.89541 -0.39600
C 	C 	0.54078 0.66932 0.88447 0.38100
C 	C 	0.56277 0.68362 0.89931 -0.15500
C 	C 	0.57360 0.71180 0.88940 0.07500
C 	C 	0.48610 0.71360 0.75660 -0.00200
C 	C 	0.47690 0.70010 0.78670 0.02400
O 	O 	0.53026 0.68039 0.86132 -0.38500
C 	C 	0.49140 0.69100 0.77660 0.02200
O 	O 	0.85383 0.89541 0.97008 -0.39500
C 	C 	0.83068 0.88447 0.95922 0.38100
C 	C 	0.81638 0.89931 0.93723 -0.15500
C 	C 	0.78820 0.88940 0.92640 0.07500
C 	C 	0.78640 0.75660 0.01390 -0.01900
C 	C 	0.79990 0.78670 0.02310 0.02300
O 	O 	0.81961 0.86132 0.96974 -0.38400
C 	C 	0.80900 0.77660 0.00860 0.02100
O 	O 	0.85383 0.39541 0.47008 -0.39600
C 	C 	0.83068 0.38447 0.45922 0.38100
C 	C 	0.81638 0.39931 0.43723 -0.15500
C 	C 	0.78820 0.38940 0.42640 0.07500
C 	C 	0.78640 0.25660 0.51390 -0.00200
C 	C 	0.79990 0.28670 0.52310 0.02400
O 	O 	0.81961 0.36132 0.46974 -0.38500
C 	C 	0.80900 0.27660 0.50860 0.02200
O 	O 	0.35383 0.89541 0.47008 -0.39600
C 	C 	0.33068 0.88447 0.45922 0.38100
C 	C 	0.31638 0.89931 0.43723 -0.15500
C 	C 	0.28820 0.88940 0.42640 0.07500
C 	C 	0.28640 0.75660 0.51390 -0.00200
C 	C 	0.29990 0.78670 0.52310 0.02400
O 	O 	0.31961 0.86132 0.46974 -0.38500
C 	C 	0.30900 0.77660 0.50860 0.02200
O 	O 	0.35383 0.39541 0.97008 -0.39500
C 	C 	0.33068 0.38447 0.95922 0.38100
C 	C 	0.31638 0.39931 0.93723 -0.15500
C 	C 	0.28820 0.38940 0.92640 0.07500
C 	C 	0.28640 0.25660 0.01390 -0.01900
C 	C 	0.29990 0.28670 0.02310 0.02300
O 	O 	0.31961 0.36132 0.96974 -0.38400
C 	C 	0.30900 0.27660 0.00860 0.02100
O 	O 	0.85383 0.10459 0.02992 -0.39700
C 	C 	0.83068 0.11553 0.04078 0.38100
C 	C 	0.81638 0.10069 0.06277 -0.15500
C 	C 	0.78820 0.11060 0.07360 0.07400
C 	C 	0.78640 0.24340 0.98610 0.01700
C 	C 	0.79990 0.21330 0.97690 0.02500
O 	O 	0.81961 0.13868 0.03026 -0.38600
C 	C 	0.80900 0.22340 0.99140 0.02300
O 	O 	0.85383 0.60459 0.52992 -0.39600
C 	C 	0.83068 0.61553 0.54078 0.38100
C 	C 	0.81638 0.60069 0.56277 -0.15500
C 	C 	0.78820 0.61060 0.57360 0.07500
C 	C 	0.78640 0.74340 0.48610 -0.00200
C 	C 	0.79990 0.71330 0.47690 0.02400
O 	O 	0.81961 0.63868 0.53026 -0.38500
C 	C 	0.80900 0.72340 0.49140 0.02200
O 	O 	0.35383 0.10459 0.52992 -0.39600
C 	C 	0.33068 0.11553 0.54078 0.38100
C 	C 	0.31638 0.10069 0.56277 -0.15500
C 	C 	0.28820 0.11060 0.57360 0.07500
C 	C 	0.28640 0.24340 0.48610 -0.00200
C 	C 	0.29990 0.21330 0.47690 0.02400
O 	O 	0.31961 0.13868 0.53026 -0.38500
C 	C 	0.30900 0.22340 0.49140 0.02200
O 	O 	0.35383 0.60459 0.02992 -0.39700
C 	C 	0.33068 0.61553 0.04078 0.38100
C 	C 	0.31638 0.60069 0.06277 -0.15500
C 	C 	0.28820 0.61060 0.07360 0.07400
C 	C 	0.28640 0.74340 0.98610 0.01700
C 	C 	0.29990 0.71330 0.97690 0.02500
O 	O 	0.31961 0.63868 0.03026 -0.38600
C 	C 	0.30900 0.72340 0.99140 0.02300
O 	O 	0.14617 0.89541 0.02992 -0.39700
C 	C 	0.16932 0.88447 0.04078 0.38100
C 	C 	0.18362 0.89931 0.06277 -0.15500
C 	C 	0.21180 0.88940 0.07360 0.07500
C 	C 	0.21360 0.75660 0.98610 0.01700
C 	C 	0.20010 0.78670 0.97690 0.02500
O 	O 	0.18039 0.86132 0.03026 -0.38600
C 	C 	0.19100 0.77660 0.99140 0.02300
O 	O 	0.14617 0.39541 0.52992 -0.39600
C 	C 	0.16932 0.38447 0.54078 0.38100
C 	C 	0.18362 0.39931 0.56277 -0.15500
C 	C 	0.21180 0.38940 0.57360 0.07500
C 	C 	0.21360 0.25660 0.48610 -0.00200
C 	C 	0.20010 0.28670 0.47690 0.02400
O 	O 	0.18039 0.36132 0.53026 -0.38500
C 	C 	0.19100 0.27660 0.49140 0.02200
O 	O 	0.64617 0.89541 0.52992 -0.39600
C 	C 	0.66932 0.88447 0.54078 0.38100
C 	C 	0.68362 0.89931 0.56277 -0.15500
C 	C 	0.71180 0.88940 0.57360 0.07500
C 	C 	0.71360 0.75660 0.48610 -0.00200
C 	C 	0.70010 0.78670 0.47690 0.02400
O 	O 	0.68039 0.86132 0.53026 -0.38500
C 	C 	0.69100 0.77660 0.49140 0.02200
O 	O 	0.64617 0.39541 0.02992 -0.39700
C 	C 	0.66932 0.38447 0.04078 0.38100
C 	C 	0.68362 0.39931 0.06277 -0.15500
C 	C 	0.71180 0.38940 0.07360 0.07400
C 	C 	0.71360 0.25660 0.98610 0.01700
C 	C 	0.70010 0.28670 0.97690 0.02500
O 	O 	0.68039 0.36132 0.03026 -0.38600
C 	C 	0.69100 0.27660 0.99140 0.02300
O 	O 	0.14617 0.10459 0.97008 -0.39500
C 	C 	0.16932 0.11553 0.95922 0.38100
C 	C 	0.18362 0.10069 0.93723 -0.15500
C 	C 	0.21180 0.11060 0.92640 0.07500
C 	C 	0.21360 0.24340 0.01390 -0.01900
C 	C 	0.20010 0.21330 0.02310 0.02300
O 	O 	0.18039 0.13868 0.96974 -0.38400
C 	C 	0.19100 0.22340 0.00860 0.02100
O 	O 	0.14617 0.60459 0.47008 -0.39600
C 	C 	0.16932 0.61553 0.45922 0.38100
C 	C 	0.18362 0.60069 0.43723 -0.15500
C 	C 	0.21180 0.61060 0.42640 0.07500
C 	C 	0.21360 0.74340 0.51390 -0.00200
C 	C 	0.20010 0.71330 0.52310 0.02400
O 	O 	0.18039 0.63868 0.46974 -0.38500
C 	C 	0.19100 0.72340 0.50860 0.02200
O 	O 	0.64617 0.10459 0.47008 -0.39600
C 	C 	0.66932 0.11553 0.45922 0.38100
C 	C 	0.68362 0.10069 0.43723 -0.15500
C 	C 	0.71180 0.11060 0.42640 0.07500
C 	C 	0.71360 0.24340 0.51390 -0.00200
C 	C 	0.70010 0.21330 0.52310 0.02400
O 	O 	0.68039 0.13868 0.46974 -0.38500
C 	C 	0.69100 0.22340 0.50860 0.02200
O 	O 	0.64617 0.60459 0.97008 -0.39500
C 	C 	0.66932 0.61553 0.95922 0.38100
C 	C 	0.68362 0.60069 0.93723 -0.15500
C 	C 	0.71180 0.61060 0.92640 0.07500
C 	C 	0.71360 0.74340 0.01390 -0.01900
C 	C 	0.70010 0.71330 0.02310 0.02300
O 	O 	0.68039 0.63868 0.96974 -0.38400
C 	C 	0.69100 0.72340 0.00860 0.02100
Cu	Cu	0.00000 0.12255 0.12255 0.91000
Cu	Cu	0.00000 0.16299 0.16299 0.92000
N 	N 	0.00000 0.19628 0.19628 -0.19200
C 	C 	0.00000 0.23798 0.23798 0.00700
Cu	Cu	0.00000 0.62255 0.62255 0.91000
Cu	Cu	-0.00000 0.66299 0.66299 0.92000
N 	N 	0.00000 0.69628 0.69628 -0.19200
C 	C 	0.00000 0.73798 0.73798 0.00700
Cu	Cu	0.50000 0.12255 0.62255 0.91100
Cu	Cu	0.50000 0.16299 0.66299 0.92100
N 	N 	0.50000 0.19628 0.69628 -0.19100
C 	C 	0.50000 0.23798 0.73798 0.01100
Cu	Cu	0.50000 0.62255 0.12255 0.91100
Cu	Cu	0.50000 0.66299 0.16299 0.92100
N 	N 	0.50000 0.69628 0.19628 -0.19100
C 	C 	0.50000 0.73798 0.23798 0.01100
Cu	Cu	-0.00000 0.87745 0.12255 0.91000
Cu	Cu	-0.00000 0.83701 0.16299 0.92000
N 	N 	-0.00000 0.80372 0.19628 -0.19200
C 	C 	-0.00000 0.76202 0.23798 0.00700
Cu	Cu	0.00000 0.37745 0.62255 0.91000
Cu	Cu	-0.00000 0.33701 0.66299 0.92000
N 	N 	-0.00000 0.30372 0.69628 -0.19200
C 	C 	0.00000 0.26202 0.73798 0.00700
Cu	Cu	0.50000 0.87745 0.62255 0.91100
Cu	Cu	0.50000 0.83701 0.66299 0.92100
N 	N 	0.50000 0.80372 0.69628 -0.19100
C 	C 	0.50000 0.76202 0.73798 0.01100
Cu	Cu	0.50000 0.37745 0.12255 0.91100
Cu	Cu	0.50000 0.33701 0.16299 0.92100
N 	N 	0.50000 0.30372 0.19628 -0.19100
C 	C 	0.50000 0.26202 0.23798 0.01100
Cu	Cu	-0.00000 0.12255 0.87745 0.91000
Cu	Cu	-0.00000 0.16299 0.83701 0.92000
N 	N 	-0.00000 0.19628 0.80372 -0.19200
C 	C 	-0.00000 0.23798 0.76202 0.00700
Cu	Cu	-0.00000 0.62255 0.37745 0.91000
Cu	Cu	-0.00000 0.66299 0.33701 0.92000
N 	N 	-0.00000 0.69628 0.30372 -0.19200
C 	C 	-0.00000 0.73798 0.26202 0.00700
Cu	Cu	0.50000 0.12255 0.37745 0.91100
Cu	Cu	0.50000 0.16299 0.33701 0.92100
N 	N 	0.50000 0.19628 0.30372 -0.19100
C 	C 	0.50000 0.23798 0.26202 0.01100
Cu	Cu	0.50000 0.62255 0.87745 0.91100
Cu	Cu	0.50000 0.66299 0.83701 0.92100
N 	N 	0.50000 0.69628 0.80372 -0.19100
C 	C 	0.50000 0.73798 0.76202 0.01100
Cu	Cu	0.00000 0.87745 0.87745 0.91000
Cu	Cu	0.00000 0.83701 0.83701 0.92000
N 	N 	0.00000 0.80372 0.80372 -0.19200
C 	C 	0.00000 0.76202 0.76202 0.00700
Cu	Cu	0.00000 0.37745 0.37745 0.91000
Cu	Cu	0.00000 0.33701 0.33701 0.92000
N 	N 	0.00000 0.30372 0.30372 -0.19200
C 	C 	0.00000 0.26202 0.26202 0.00700
Cu	Cu	0.50000 0.87745 0.37745 0.91100
Cu	Cu	0.50000 0.83701 0.33701 0.92100
N 	N 	0.50000 0.80372 0.30372 -0.19100
C 	C 	0.50000 0.76202 0.26202 0.01100
Cu	Cu	0.50000 0.37745 0.87745 0.91100
Cu	Cu	0.50000 0.33701 0.83701 0.92100
N 	N 	0.50000 0.30372 0.80372 -0.19100
C 	C 	0.50000 0.26202 0.76202 0.01100
Cu	Cu	0.12255 -0.00000 0.12255 0.91000
Cu	Cu	0.16299 0.00000 0.16299 0.92000
N 	N 	0.19628 -0.00000 0.19628 -0.19200
C 	C 	0.23798 0.00000 0.23798 0.00700
Cu	Cu	0.12255 0.50000 0.62255 0.91100
Cu	Cu	0.16299 0.50000 0.66299 0.92100
N 	N 	0.19628 0.50000 0.69628 -0.19100
C 	C 	0.23798 0.50000 0.73798 0.01100
Cu	Cu	0.62255 -0.00000 0.62255 0.91000
Cu	Cu	0.66299 -0.00000 0.66299 0.92000
N 	N 	0.69628 -0.00000 0.69628 -0.19200
C 	C 	0.73798 0.00000 0.73798 0.00700
Cu	Cu	0.62255 0.50000 0.12255 0.91100
Cu	Cu	0.66299 0.50000 0.16299 0.92100
N 	N 	0.69628 0.50000 0.19628 -0.19100
C 	C 	0.73798 0.50000 0.23798 0.01100
Cu	Cu	0.12255 0.00000 0.87745 0.91000
Cu	Cu	0.16299 -0.00000 0.83701 0.92000
N 	N 	0.19628 -0.00000 0.80372 -0.19200
C 	C 	0.23798 0.00000 0.76202 0.00700
Cu	Cu	0.12255 0.50000 0.37745 0.91100
Cu	Cu	0.16299 0.50000 0.33701 0.92100
N 	N 	0.19628 0.50000 0.30372 -0.19100
C 	C 	0.23798 0.50000 0.26202 0.01100
Cu	Cu	0.62255 0.00000 0.37745 0.91000
Cu	Cu	0.66299 -0.00000 0.33701 0.92000
N 	N 	0.69628 -0.00000 0.30372 -0.19200
C 	C 	0.73798 -0.00000 0.26202 0.00700
Cu	Cu	0.62255 0.50000 0.87745 0.91100
Cu	Cu	0.66299 0.50000 0.83701 0.92100
N 	N 	0.69628 0.50000 0.80372 -0.19100
C 	C 	0.73798 0.50000 0.76202 0.01100
Cu	Cu	0.87745 -0.00000 0.12255 0.91000
Cu	Cu	0.83701 0.00000 0.16299 0.92000
N 	N 	0.80372 -0.00000 0.19628 -0.19200
C 	C 	0.76202 0.00000 0.23798 0.00700
Cu	Cu	0.87745 0.50000 0.62255 0.91100
Cu	Cu	0.83701 0.50000 0.66299 0.92100
N 	N 	0.80372 0.50000 0.69628 -0.19100
C 	C 	0.76202 0.50000 0.73798 0.01100
Cu	Cu	0.37745 -0.00000 0.62255 0.91000
Cu	Cu	0.33701 -0.00000 0.66299 0.92000
N 	N 	0.30372 -0.00000 0.69628 -0.19200
C 	C 	0.26202 0.00000 0.73798 0.00700
Cu	Cu	0.37745 0.50000 0.12255 0.91100
Cu	Cu	0.33701 0.50000 0.16299 0.92100
N 	N 	0.30372 0.50000 0.19628 -0.19100
C 	C 	0.26202 0.50000 0.23798 0.01100
Cu	Cu	0.87745 0.00000 0.87745 0.91000
Cu	Cu	0.83701 -0.00000 0.83701 0.92000
N 	N 	0.80372 -0.00000 0.80372 -0.19200
C 	C 	0.76202 0.00000 0.76202 0.00700
Cu	Cu	0.87745 0.50000 0.37745 0.91100
Cu	Cu	0.83701 0.50000 0.33701 0.92100
N 	N 	0.80372 0.50000 0.30372 -0.19100
C 	C 	0.76202 0.50000 0.26202 0.01100
Cu	Cu	0.37745 0.00000 0.37745 0.91000
Cu	Cu	0.33701 -0.00000 0.33701 0.92000
N 	N 	0.30372 -0.00000 0.30372 -0.19200
C 	C 	0.26202 -0.00000 0.26202 0.00700
Cu	Cu	0.37745 0.50000 0.87745 0.91100
Cu	Cu	0.33701 0.50000 0.83701 0.92100
N 	N 	0.30372 0.50000 0.80372 -0.19100
C 	C 	0.26202 0.50000 0.76202 0.01100
Cu	Cu	0.12255 0.12255 -0.00000 0.91000
Cu	Cu	0.16299 0.16299 -0.00000 0.92000
N 	N 	0.19628 0.19628 -0.00000 -0.19200
C 	C 	0.23798 0.23798 -0.00000 0.00700
Cu	Cu	0.12255 0.62255 0.50000 0.91100
Cu	Cu	0.16299 0.66299 0.50000 0.92100
N 	N 	0.19628 0.69628 0.50000 -0.19100
C 	C 	0.23798 0.73798 0.50000 0.01100
Cu	Cu	0.62255 0.12255 0.50000 0.91100
Cu	Cu	0.66299 0.16299 0.50000 0.92100
N 	N 	0.69628 0.19628 0.50000 -0.19100
C 	C 	0.73798 0.23798 0.50000 0.01100
Cu	Cu	0.62255 0.62255 -0.00000 0.91000
Cu	Cu	0.66299 0.66299 -0.00000 0.92000
N 	N 	0.69628 0.69628 -0.00000 -0.19200
C 	C 	0.73798 0.73798 -0.00000 0.00700
Cu	Cu	0.87745 0.12255 -0.00000 0.91000
Cu	Cu	0.83701 0.16299 -0.00000 0.92000
N 	N 	0.80372 0.19628 -0.00000 -0.19200
C 	C 	0.76202 0.23798 -0.00000 0.00700
Cu	Cu	0.87745 0.62255 0.50000 0.91100
Cu	Cu	0.83701 0.66299 0.50000 0.92100
N 	N 	0.80372 0.69628 0.50000 -0.19100
C 	C 	0.76202 0.73798 0.50000 0.01100
Cu	Cu	0.37745 0.12255 0.50000 0.91100
Cu	Cu	0.33701 0.16299 0.50000 0.92100
N 	N 	0.30372 0.19628 0.50000 -0.19100
C 	C 	0.26202 0.23798 0.50000 0.01100
Cu	Cu	0.37745 0.62255 -0.00000 0.91000
Cu	Cu	0.33701 0.66299 -0.00000 0.92000
N 	N 	0.30372 0.69628 -0.00000 -0.19200
C 	C 	0.26202 0.73798 -0.00000 0.00700
Cu	Cu	0.12255 0.87745 -0.00000 0.91000
Cu	Cu	0.16299 0.83701 -0.00000 0.92000
N 	N 	0.19628 0.80372 -0.00000 -0.19200
C 	C 	0.23798 0.76202 -0.00000 0.00700
Cu	Cu	0.12255 0.37745 0.50000 0.91100
Cu	Cu	0.16299 0.33701 0.50000 0.92100
N 	N 	0.19628 0.30372 0.50000 -0.19100
C 	C 	0.23798 0.26202 0.50000 0.01100
Cu	Cu	0.62255 0.87745 0.50000 0.91100
Cu	Cu	0.66299 0.83701 0.50000 0.92100
N 	N 	0.69628 0.80372 0.50000 -0.19100
C 	C 	0.73798 0.76202 0.50000 0.01100
Cu	Cu	0.62255 0.37745 -0.00000 0.91000
Cu	Cu	0.66299 0.33701 -0.00000 0.92000
N 	N 	0.69628 0.30372 -0.00000 -0.19200
C 	C 	0.73798 0.26202 -0.00000 0.00700
Cu	Cu	0.87745 0.87745 -0.00000 0.91000
Cu	Cu	0.83701 0.83701 -0.00000 0.92000
N 	N 	0.80372 0.80372 -0.00000 -0.19200
C 	C 	0.76202 0.76202 -0.00000 0.00700
Cu	Cu	0.87745 0.37745 0.50000 0.91100
Cu	Cu	0.83701 0.33701 0.50000 0.92100
N 	N 	0.80372 0.30372 0.50000 -0.19100
C 	C 	0.76202 0.26202 0.50000 0.01100
Cu	Cu	0.37745 0.87745 0.50000 0.91100
Cu	Cu	0.33701 0.83701 0.50000 0.92100
N 	N 	0.30372 0.80372 0.50000 -0.19100
C 	C 	0.26202 0.76202 0.50000 0.01100
Cu	Cu	0.37745 0.37745 -0.00000 0.91000
Cu	Cu	0.33701 0.33701 -0.00000 0.92000
N 	N 	0.30372 0.30372 -0.00000 -0.19200
C 	C 	0.26202 0.26202 -0.00000 0.00700
C 	C 	0.92302 0.07698 0.17070 0.12800
C 	C 	0.89540 0.10460 0.21780 0.02700
N 	N 	0.88130 0.11870 0.24140 -0.06000
C 	C 	0.91000 0.09000 0.22810 0.01300
N 	N 	0.90290 0.09710 0.25740 -0.05800
C 	C 	0.92302 0.57698 0.67070 0.12900
C 	C 	0.89540 0.60460 0.71780 0.02700
N 	N 	0.88130 0.61870 0.74140 -0.06000
C 	C 	0.91000 0.59000 0.72810 0.01300
N 	N 	0.90290 0.59710 0.75740 -0.05800
C 	C 	0.42302 0.07698 0.67070 0.12800
C 	C 	0.39540 0.10460 0.71780 0.02700
N 	N 	0.38130 0.11870 0.74140 -0.06000
C 	C 	0.41000 0.09000 0.72810 0.01200
N 	N 	0.40290 0.09710 0.75740 -0.05800
C 	C 	0.42302 0.57698 0.17070 0.12800
C 	C 	0.39540 0.60460 0.21780 0.02700
N 	N 	0.38130 0.61870 0.24140 -0.06000
C 	C 	0.41000 0.59000 0.22810 0.01300
N 	N 	0.40290 0.59710 0.25740 -0.05800
C 	C 	0.07698 0.92302 0.17070 0.12800
C 	C 	0.10460 0.89540 0.21780 0.02700
N 	N 	0.11870 0.88130 0.24140 -0.06000
C 	C 	0.09000 0.91000 0.22810 0.01300
N 	N 	0.09710 0.90290 0.25740 -0.05800
C 	C 	0.07698 0.42302 0.67070 0.12800
C 	C 	0.10460 0.39540 0.71780 0.02700
N 	N 	0.11870 0.38130 0.74140 -0.06000
C 	C 	0.09000 0.41000 0.72810 0.01200
N 	N 	0.09710 0.40290 0.75740 -0.05800
C 	C 	0.57698 0.92302 0.67070 0.12900
C 	C 	0.60460 0.89540 0.71780 0.02700
N 	N 	0.61870 0.88130 0.74140 -0.06000
C 	C 	0.59000 0.91000 0.72810 0.01300
N 	N 	0.59710 0.90290 0.75740 -0.05800
C 	C 	0.57698 0.42302 0.17070 0.12800
C 	C 	0.60460 0.39540 0.21780 0.02700
N 	N 	0.61870 0.38130 0.24140 -0.06000
C 	C 	0.59000 0.41000 0.22810 0.01300
N 	N 	0.59710 0.40290 0.25740 -0.05800
C 	C 	0.07698 0.07698 0.82930 0.12800
C 	C 	0.10460 0.10460 0.78220 0.02800
N 	N 	0.11870 0.11870 0.75860 -0.06000
C 	C 	0.09000 0.09000 0.77190 0.01200
N 	N 	0.09710 0.09710 0.74260 -0.05900
C 	C 	0.07698 0.57698 0.32930 0.12800
C 	C 	0.10460 0.60460 0.28220 0.02800
N 	N 	0.11870 0.61870 0.25860 -0.06000
C 	C 	0.09000 0.59000 0.27190 0.01200
N 	N 	0.09710 0.59710 0.24260 -0.05800
C 	C 	0.57698 0.07698 0.32930 0.12800
C 	C 	0.60460 0.10460 0.28220 0.02800
N 	N 	0.61870 0.11870 0.25860 -0.06000
C 	C 	0.59000 0.09000 0.27190 0.01200
N 	N 	0.59710 0.09710 0.24260 -0.05800
C 	C 	0.57698 0.57698 0.82930 0.12800
C 	C 	0.60460 0.60460 0.78220 0.02700
N 	N 	0.61870 0.61870 0.75860 -0.06000
C 	C 	0.59000 0.59000 0.77190 0.01300
N 	N 	0.59710 0.59710 0.74260 -0.05800
C 	C 	0.92302 0.92302 0.82930 0.12900
C 	C 	0.89540 0.89540 0.78220 0.02700
N 	N 	0.88130 0.88130 0.75860 -0.06000
C 	C 	0.91000 0.91000 0.77190 0.01300
N 	N 	0.90290 0.90290 0.74260 -0.05800
C 	C 	0.92302 0.42302 0.32930 0.12900
C 	C 	0.89540 0.39540 0.28220 0.02700
N 	N 	0.88130 0.38130 0.25860 -0.06000
C 	C 	0.91000 0.41000 0.27190 0.01300
N 	N 	0.90290 0.40290 0.24260 -0.05800
C 	C 	0.42302 0.92302 0.32930 0.12900
C 	C 	0.39540 0.89540 0.28220 0.02700
N 	N 	0.38130 0.88130 0.25860 -0.06000
C 	C 	0.41000 0.91000 0.27190 0.01300
N 	N 	0.40290 0.90290 0.24260 -0.05800
C 	C 	0.42302 0.42302 0.82930 0.12800
C 	C 	0.39540 0.39540 0.78220 0.02700
N 	N 	0.38130 0.38130 0.75860 -0.06000
C 	C 	0.41000 0.41000 0.77190 0.01300
N 	N 	0.40290 0.40290 0.74260 -0.05800
C 	C 	0.17070 0.92302 0.07698 0.12800
C 	C 	0.21780 0.89540 0.10460 0.02700
N 	N 	0.24140 0.88130 0.11870 -0.06000
C 	C 	0.22810 0.91000 0.09000 0.01300
N 	N 	0.25740 0.90290 0.09710 -0.05800
C 	C 	0.17070 0.42302 0.57698 0.12800
C 	C 	0.21780 0.39540 0.60460 0.02700
N 	N 	0.24140 0.38130 0.61870 -0.06000
C 	C 	0.22810 0.41000 0.59000 0.01300
N 	N 	0.25740 0.40290 0.59710 -0.05800
C 	C 	0.67070 0.92302 0.57698 0.12900
C 	C 	0.71780 0.89540 0.60460 0.02700
N 	N 	0.74140 0.88130 0.61870 -0.06000
C 	C 	0.72810 0.91000 0.59000 0.01300
N 	N 	0.75740 0.90290 0.59710 -0.05800
C 	C 	0.67070 0.42302 0.07698 0.12800
C 	C 	0.71780 0.39540 0.10460 0.02700
N 	N 	0.74140 0.38130 0.11870 -0.06000
C 	C 	0.72810 0.41000 0.09000 0.01200
N 	N 	0.75740 0.40290 0.09710 -0.05800
C 	C 	0.17070 0.07698 0.92302 0.12800
C 	C 	0.21780 0.10460 0.89540 0.02700
N 	N 	0.24140 0.11870 0.88130 -0.06000
C 	C 	0.22810 0.09000 0.91000 0.01300
N 	N 	0.25740 0.09710 0.90290 -0.05800
C 	C 	0.17070 0.57698 0.42302 0.12800
C 	C 	0.21780 0.60460 0.39540 0.02700
N 	N 	0.24140 0.61870 0.38130 -0.06000
C 	C 	0.22810 0.59000 0.41000 0.01300
N 	N 	0.25740 0.59710 0.40290 -0.05800
C 	C 	0.67070 0.07698 0.42302 0.12800
C 	C 	0.71780 0.10460 0.39540 0.02700
N 	N 	0.74140 0.11870 0.38130 -0.06000
C 	C 	0.72810 0.09000 0.41000 0.01200
N 	N 	0.75740 0.09710 0.40290 -0.05800
C 	C 	0.67070 0.57698 0.92302 0.12900
C 	C 	0.71780 0.60460 0.89540 0.02700
N 	N 	0.74140 0.61870 0.88130 -0.06000
C 	C 	0.72810 0.59000 0.91000 0.01300
N 	N 	0.75740 0.59710 0.90290 -0.05800
C 	C 	0.82930 0.07698 0.07698 0.12800
C 	C 	0.78220 0.10460 0.10460 0.02800
N 	N 	0.75860 0.11870 0.11870 -0.06000
C 	C 	0.77190 0.09000 0.09000 0.01200
N 	N 	0.74260 0.09710 0.09710 -0.05900
C 	C 	0.82930 0.57698 0.57698 0.12800
C 	C 	0.78220 0.60460 0.60460 0.02700
N 	N 	0.75860 0.61870 0.61870 -0.06000
C 	C 	0.77190 0.59000 0.59000 0.01300
N 	N 	0.74260 0.59710 0.59710 -0.05800
C 	C 	0.32930 0.07698 0.57698 0.12800
C 	C 	0.28220 0.10460 0.60460 0.02800
N 	N 	0.25860 0.11870 0.61870 -0.06000
C 	C 	0.27190 0.09000 0.59000 0.01200
N 	N 	0.24260 0.09710 0.59710 -0.05800
C 	C 	0.32930 0.57698 0.07698 0.12800
C 	C 	0.28220 0.60460 0.10460 0.02800
N 	N 	0.25860 0.61870 0.11870 -0.06000
C 	C 	0.27190 0.59000 0.09000 0.01200
N 	N 	0.24260 0.59710 0.09710 -0.05800
C 	C 	0.82930 0.92302 0.92302 0.12900
C 	C 	0.78220 0.89540 0.89540 0.02700
N 	N 	0.75860 0.88130 0.88130 -0.06000
C 	C 	0.77190 0.91000 0.91000 0.01300
N 	N 	0.74260 0.90290 0.90290 -0.05800
C 	C 	0.82930 0.42302 0.42302 0.12800
C 	C 	0.78220 0.39540 0.39540 0.02700
N 	N 	0.75860 0.38130 0.38130 -0.06000
C 	C 	0.77190 0.41000 0.41000 0.01300
N 	N 	0.74260 0.40290 0.40290 -0.05800
C 	C 	0.32930 0.92302 0.42302 0.12900
C 	C 	0.28220 0.89540 0.39540 0.02700
N 	N 	0.25860 0.88130 0.38130 -0.06000
C 	C 	0.27190 0.91000 0.41000 0.01300
N 	N 	0.24260 0.90290 0.40290 -0.05800
C 	C 	0.32930 0.42302 0.92302 0.12900
C 	C 	0.28220 0.39540 0.89540 0.02700
N 	N 	0.25860 0.38130 0.88130 -0.06000
C 	C 	0.27190 0.41000 0.91000 0.01300
N 	N 	0.24260 0.40290 0.90290 -0.05800
C 	C 	0.07698 0.17070 0.92302 0.12800
C 	C 	0.10460 0.21780 0.89540 0.02700
N 	N 	0.11870 0.24140 0.88130 -0.06000
C 	C 	0.09000 0.22810 0.91000 0.01300
N 	N 	0.09710 0.25740 0.90290 -0.05800
C 	C 	0.07698 0.67070 0.42302 0.12800
C 	C 	0.10460 0.71780 0.39540 0.02700
N 	N 	0.11870 0.74140 0.38130 -0.06000
C 	C 	0.09000 0.72810 0.41000 0.01200
N 	N 	0.09710 0.75740 0.40290 -0.05800
C 	C 	0.57698 0.17070 0.42302 0.12800
C 	C 	0.60460 0.21780 0.39540 0.02700
N 	N 	0.61870 0.24140 0.38130 -0.06000
C 	C 	0.59000 0.22810 0.41000 0.01300
N 	N 	0.59710 0.25740 0.40290 -0.05800
C 	C 	0.57698 0.67070 0.92302 0.12900
C 	C 	0.60460 0.71780 0.89540 0.02700
N 	N 	0.61870 0.74140 0.88130 -0.06000
C 	C 	0.59000 0.72810 0.91000 0.01300
N 	N 	0.59710 0.75740 0.90290 -0.05800
C 	C 	0.92302 0.17070 0.07698 0.12800
C 	C 	0.89540 0.21780 0.10460 0.02700
N 	N 	0.88130 0.24140 0.11870 -0.06000
C 	C 	0.91000 0.22810 0.09000 0.01300
N 	N 	0.90290 0.25740 0.09710 -0.05800
C 	C 	0.92302 0.67070 0.57698 0.12900
C 	C 	0.89540 0.71780 0.60460 0.02700
N 	N 	0.88130 0.74140 0.61870 -0.06000
C 	C 	0.91000 0.72810 0.59000 0.01300
N 	N 	0.90290 0.75740 0.59710 -0.05800
C 	C 	0.42302 0.17070 0.57698 0.12800
C 	C 	0.39540 0.21780 0.60460 0.02700
N 	N 	0.38130 0.24140 0.61870 -0.06000
C 	C 	0.41000 0.22810 0.59000 0.01300
N 	N 	0.40290 0.25740 0.59710 -0.05800
C 	C 	0.42302 0.67070 0.07698 0.12800
C 	C 	0.39540 0.71780 0.10460 0.02700
N 	N 	0.38130 0.74140 0.11870 -0.06000
C 	C 	0.41000 0.72810 0.09000 0.01200
N 	N 	0.40290 0.75740 0.09710 -0.05800
C 	C 	0.07698 0.82930 0.07698 0.12800
C 	C 	0.10460 0.78220 0.10460 0.02800
N 	N 	0.11870 0.75860 0.11870 -0.06000
C 	C 	0.09000 0.77190 0.09000 0.01200
N 	N 	0.09710 0.74260 0.09710 -0.05900
C 	C 	0.07698 0.32930 0.57698 0.12800
C 	C 	0.10460 0.28220 0.60460 0.02800
N 	N 	0.11870 0.25860 0.61870 -0.06000
C 	C 	0.09000 0.27190 0.59000 0.01200
N 	N 	0.09710 0.24260 0.59710 -0.05800
C 	C 	0.57698 0.82930 0.57698 0.12800
C 	C 	0.60460 0.78220 0.60460 0.02700
N 	N 	0.61870 0.75860 0.61870 -0.06000
C 	C 	0.59000 0.77190 0.59000 0.01300
N 	N 	0.59710 0.74260 0.59710 -0.05800
C 	C 	0.57698 0.32930 0.07698 0.12800
C 	C 	0.60460 0.28220 0.10460 0.02800
N 	N 	0.61870 0.25860 0.11870 -0.06000
C 	C 	0.59000 0.27190 0.09000 0.01200
N 	N 	0.59710 0.24260 0.09710 -0.05800
C 	C 	0.92302 0.82930 0.92302 0.12900
C 	C 	0.89540 0.78220 0.89540 0.02700
N 	N 	0.88130 0.75860 0.88130 -0.06000
C 	C 	0.91000 0.77190 0.91000 0.01300
N 	N 	0.90290 0.74260 0.90290 -0.05800
C 	C 	0.92302 0.32930 0.42302 0.12900
C 	C 	0.89540 0.28220 0.39540 0.02700
N 	N 	0.88130 0.25860 0.38130 -0.06000
C 	C 	0.91000 0.27190 0.41000 0.01300
N 	N 	0.90290 0.24260 0.40290 -0.05800
C 	C 	0.42302 0.82930 0.42302 0.12800
C 	C 	0.39540 0.78220 0.39540 0.02700
N 	N 	0.38130 0.75860 0.38130 -0.06000
C 	C 	0.41000 0.77190 0.41000 0.01300
N 	N 	0.40290 0.74260 0.40290 -0.05800
C 	C 	0.42302 0.32930 0.92302 0.12900
C 	C 	0.39540 0.28220 0.89540 0.02700
N 	N 	0.38130 0.25860 0.88130 -0.06000
C 	C 	0.41000 0.27190 0.91000 0.01300
N 	N 	0.40290 0.24260 0.90290 -0.05800
C 	C 	0.07698 0.92302 0.82930 0.12800
C 	C 	0.10460 0.89540 0.78220 0.02700
N 	N 	0.11870 0.88130 0.75860 -0.06000
C 	C 	0.09000 0.91000 0.77190 0.01300
N 	N 	0.09710 0.90290 0.74260 -0.05800
C 	C 	0.07698 0.42302 0.32930 0.12800
C 	C 	0.10460 0.39540 0.28220 0.02800
N 	N 	0.11870 0.38130 0.25860 -0.06000
C 	C 	0.09000 0.41000 0.27190 0.01200
N 	N 	0.09710 0.40290 0.24260 -0.05800
C 	C 	0.57698 0.92302 0.32930 0.12900
C 	C 	0.60460 0.89540 0.28220 0.02700
N 	N 	0.61870 0.88130 0.25860 -0.06000
C 	C 	0.59000 0.91000 0.27190 0.01300
N 	N 	0.59710 0.90290 0.24260 -0.05800
C 	C 	0.57698 0.42302 0.82930 0.12800
C 	C 	0.60460 0.39540 0.78220 0.02700
N 	N 	0.61870 0.38130 0.75860 -0.06000
C 	C 	0.59000 0.41000 0.77190 0.01300
N 	N 	0.59710 0.40290 0.74260 -0.05800
C 	C 	0.92302 0.07698 0.82930 0.12800
C 	C 	0.89540 0.10460 0.78220 0.02700
N 	N 	0.88130 0.11870 0.75860 -0.06000
C 	C 	0.91000 0.09000 0.77190 0.01300
N 	N 	0.90290 0.09710 0.74260 -0.05800
C 	C 	0.92302 0.57698 0.32930 0.12900
C 	C 	0.89540 0.60460 0.28220 0.02700
N 	N 	0.88130 0.61870 0.25860 -0.06000
C 	C 	0.91000 0.59000 0.27190 0.01300
N 	N 	0.90290 0.59710 0.24260 -0.05800
C 	C 	0.42302 0.07698 0.32930 0.12800
C 	C 	0.39540 0.10460 0.28220 0.02800
N 	N 	0.38130 0.11870 0.25860 -0.06000
C 	C 	0.41000 0.09000 0.27190 0.01200
N 	N 	0.40290 0.09710 0.24260 -0.05800
C 	C 	0.42302 0.57698 0.82930 0.12800
C 	C 	0.39540 0.60460 0.78220 0.02700
N 	N 	0.38130 0.61870 0.75860 -0.06000
C 	C 	0.41000 0.59000 0.77190 0.01300
N 	N 	0.40290 0.59710 0.74260 -0.05800
C 	C 	0.07698 0.07698 0.17070 0.12800
C 	C 	0.10460 0.10460 0.21780 0.02800
N 	N 	0.11870 0.11870 0.24140 -0.06000
C 	C 	0.09000 0.09000 0.22810 0.01200
N 	N 	0.09710 0.09710 0.25740 -0.05900
C 	C 	0.07698 0.57698 0.67070 0.12800
C 	C 	0.10460 0.60460 0.71780 0.02700
N 	N 	0.11870 0.61870 0.74140 -0.06000
C 	C 	0.09000 0.59000 0.72810 0.01200
N 	N 	0.09710 0.59710 0.75740 -0.05800
C 	C 	0.57698 0.07698 0.67070 0.12800
C 	C 	0.60460 0.10460 0.71780 0.02700
N 	N 	0.61870 0.11870 0.74140 -0.06000
C 	C 	0.59000 0.09000 0.72810 0.01200
N 	N 	0.59710 0.09710 0.75740 -0.05800
C 	C 	0.57698 0.57698 0.17070 0.12800
C 	C 	0.60460 0.60460 0.21780 0.02700
N 	N 	0.61870 0.61870 0.24140 -0.06000
C 	C 	0.59000 0.59000 0.22810 0.01300
N 	N 	0.59710 0.59710 0.25740 -0.05800
C 	C 	0.92302 0.92302 0.17070 0.12900
C 	C 	0.89540 0.89540 0.21780 0.02700
N 	N 	0.88130 0.88130 0.24140 -0.06000
C 	C 	0.91000 0.91000 0.22810 0.01300
N 	N 	0.90290 0.90290 0.25740 -0.05800
C 	C 	0.92302 0.42302 0.67070 0.12900
C 	C 	0.89540 0.39540 0.71780 0.02700
N 	N 	0.88130 0.38130 0.74140 -0.06000
C 	C 	0.91000 0.41000 0.72810 0.01300
N 	N 	0.90290 0.40290 0.75740 -0.05800
C 	C 	0.42302 0.92302 0.67070 0.12900
C 	C 	0.39540 0.89540 0.71780 0.02700
N 	N 	0.38130 0.88130 0.74140 -0.06000
C 	C 	0.41000 0.91000 0.72810 0.01300
N 	N 	0.40290 0.90290 0.75740 -0.05800
C 	C 	0.42302 0.42302 0.17070 0.12800
C 	C 	0.39540 0.39540 0.21780 0.02700
N 	N 	0.38130 0.38130 0.24140 -0.06000
C 	C 	0.41000 0.41000 0.22810 0.01300
N 	N 	0.40290 0.40290 0.25740 -0.05800
C 	C 	0.92302 0.17070 0.92302 0.12900
C 	C 	0.89540 0.21780 0.89540 0.02700
N 	N 	0.88130 0.24140 0.88130 -0.06000
C 	C 	0.91000 0.22810 0.91000 0.01300
N 	N 	0.90290 0.25740 0.90290 -0.05800
C 	C 	0.92302 0.67070 0.42302 0.12900
C 	C 	0.89540 0.71780 0.39540 0.02700
N 	N 	0.88130 0.74140 0.38130 -0.06000
C 	C 	0.91000 0.72810 0.41000 0.01300
N 	N 	0.90290 0.75740 0.40290 -0.05800
C 	C 	0.42302 0.17070 0.42302 0.12800
C 	C 	0.39540 0.21780 0.39540 0.02700
N 	N 	0.38130 0.24140 0.38130 -0.06000
C 	C 	0.41000 0.22810 0.41000 0.01300
N 	N 	0.40290 0.25740 0.40290 -0.05800
C 	C 	0.42302 0.67070 0.92302 0.12900
C 	C 	0.39540 0.71780 0.89540 0.02700
N 	N 	0.38130 0.74140 0.88130 -0.06000
C 	C 	0.41000 0.72810 0.91000 0.01300
N 	N 	0.40290 0.75740 0.90290 -0.05800
C 	C 	0.07698 0.17070 0.07698 0.12800
C 	C 	0.10460 0.21780 0.10460 0.02800
N 	N 	0.11870 0.24140 0.11870 -0.06000
C 	C 	0.09000 0.22810 0.09000 0.01200
N 	N 	0.09710 0.25740 0.09710 -0.05900
C 	C 	0.07698 0.67070 0.57698 0.12800
C 	C 	0.10460 0.71780 0.60460 0.02700
N 	N 	0.11870 0.74140 0.61870 -0.06000
C 	C 	0.09000 0.72810 0.59000 0.01200
N 	N 	0.09710 0.75740 0.59710 -0.05800
C 	C 	0.57698 0.17070 0.57698 0.12800
C 	C 	0.60460 0.21780 0.60460 0.02700
N 	N 	0.61870 0.24140 0.61870 -0.06000
C 	C 	0.59000 0.22810 0.59000 0.01300
N 	N 	0.59710 0.25740 0.59710 -0.05800
C 	C 	0.57698 0.67070 0.07698 0.12800
C 	C 	0.60460 0.71780 0.10460 0.02700
N 	N 	0.61870 0.74140 0.11870 -0.06000
C 	C 	0.59000 0.72810 0.09000 0.01200
N 	N 	0.59710 0.75740 0.09710 -0.05800
C 	C 	0.07698 0.82930 0.92302 0.12800
C 	C 	0.10460 0.78220 0.89540 0.02700
N 	N 	0.11870 0.75860 0.88130 -0.06000
C 	C 	0.09000 0.77190 0.91000 0.01300
N 	N 	0.09710 0.74260 0.90290 -0.05800
C 	C 	0.07698 0.32930 0.42302 0.12800
C 	C 	0.10460 0.28220 0.39540 0.02800
N 	N 	0.11870 0.25860 0.38130 -0.06000
C 	C 	0.09000 0.27190 0.41000 0.01200
N 	N 	0.09710 0.24260 0.40290 -0.05800
C 	C 	0.57698 0.82930 0.42302 0.12800
C 	C 	0.60460 0.78220 0.39540 0.02700
N 	N 	0.61870 0.75860 0.38130 -0.06000
C 	C 	0.59000 0.77190 0.41000 0.01300
N 	N 	0.59710 0.74260 0.40290 -0.05800
C 	C 	0.57698 0.32930 0.92302 0.12900
C 	C 	0.60460 0.28220 0.89540 0.02700
N 	N 	0.61870 0.25860 0.88130 -0.06000
C 	C 	0.59000 0.27190 0.91000 0.01300
N 	N 	0.59710 0.24260 0.90290 -0.05800
C 	C 	0.92302 0.82930 0.07698 0.12800
C 	C 	0.89540 0.78220 0.10460 0.02700
N 	N 	0.88130 0.75860 0.11870 -0.06000
C 	C 	0.91000 0.77190 0.09000 0.01300
N 	N 	0.90290 0.74260 0.09710 -0.05800
C 	C 	0.92302 0.32930 0.57698 0.12900
C 	C 	0.89540 0.28220 0.60460 0.02700
N 	N 	0.88130 0.25860 0.61870 -0.06000
C 	C 	0.91000 0.27190 0.59000 0.01300
N 	N 	0.90290 0.24260 0.59710 -0.05800
C 	C 	0.42302 0.82930 0.57698 0.12800
C 	C 	0.39540 0.78220 0.60460 0.02700
N 	N 	0.38130 0.75860 0.61870 -0.06000
C 	C 	0.41000 0.77190 0.59000 0.01300
N 	N 	0.40290 0.74260 0.59710 -0.05800
C 	C 	0.42302 0.32930 0.07698 0.12800
C 	C 	0.39540 0.28220 0.10460 0.02800
N 	N 	0.38130 0.25860 0.11870 -0.06000
C 	C 	0.41000 0.27190 0.09000 0.01200
N 	N 	0.40290 0.24260 0.09710 -0.05800
C 	C 	0.17070 0.07698 0.07698 0.12800
C 	C 	0.21780 0.10460 0.10460 0.02800
N 	N 	0.24140 0.11870 0.11870 -0.06000
C 	C 	0.22810 0.09000 0.09000 0.01200
N 	N 	0.25740 0.09710 0.09710 -0.05900
C 	C 	0.17070 0.57698 0.57698 0.12800
C 	C 	0.21780 0.60460 0.60460 0.02700
N 	N 	0.24140 0.61870 0.61870 -0.06000
C 	C 	0.22810 0.59000 0.59000 0.01300
N 	N 	0.25740 0.59710 0.59710 -0.05800
C 	C 	0.67070 0.07698 0.57698 0.12800
C 	C 	0.71780 0.10460 0.60460 0.02700
N 	N 	0.74140 0.11870 0.61870 -0.06000
C 	C 	0.72810 0.09000 0.59000 0.01200
N 	N 	0.75740 0.09710 0.59710 -0.05800
C 	C 	0.67070 0.57698 0.07698 0.12800
C 	C 	0.71780 0.60460 0.10460 0.02700
N 	N 	0.74140 0.61870 0.11870 -0.06000
C 	C 	0.72810 0.59000 0.09000 0.01200
N 	N 	0.75740 0.59710 0.09710 -0.05800
C 	C 	0.17070 0.92302 0.92302 0.12900
C 	C 	0.21780 0.89540 0.89540 0.02700
N 	N 	0.24140 0.88130 0.88130 -0.06000
C 	C 	0.22810 0.91000 0.91000 0.01300
N 	N 	0.25740 0.90290 0.90290 -0.05800
C 	C 	0.17070 0.42302 0.42302 0.12800
C 	C 	0.21780 0.39540 0.39540 0.02700
N 	N 	0.24140 0.38130 0.38130 -0.06000
C 	C 	0.22810 0.41000 0.41000 0.01300
N 	N 	0.25740 0.40290 0.40290 -0.05800
C 	C 	0.67070 0.92302 0.42302 0.12900
C 	C 	0.71780 0.89540 0.39540 0.02700
N 	N 	0.74140 0.88130 0.38130 -0.06000
C 	C 	0.72810 0.91000 0.41000 0.01300
N 	N 	0.75740 0.90290 0.40290 -0.05800
C 	C 	0.67070 0.42302 0.92302 0.12900
C 	C 	0.71780 0.39540 0.89540 0.02700
N 	N 	0.74140 0.38130 0.88130 -0.06000
C 	C 	0.72810 0.41000 0.91000 0.01300
N 	N 	0.75740 0.40290 0.90290 -0.05800
C 	C 	0.82930 0.07698 0.92302 0.12800
C 	C 	0.78220 0.10460 0.89540 0.02700
N 	N 	0.75860 0.11870 0.88130 -0.06000
C 	C 	0.77190 0.09000 0.91000 0.01300
N 	N 	0.74260 0.09710 0.90290 -0.05800
C 	C 	0.82930 0.57698 0.42302 0.12800
C 	C 	0.78220 0.60460 0.39540 0.02700
N 	N 	0.75860 0.61870 0.38130 -0.06000
C 	C 	0.77190 0.59000 0.41000 0.01300
N 	N 	0.74260 0.59710 0.40290 -0.05800
C 	C 	0.32930 0.07698 0.42302 0.12800
C 	C 	0.28220 0.10460 0.39540 0.02800
N 	N 	0.25860 0.11870 0.38130 -0.06000
C 	C 	0.27190 0.09000 0.41000 0.01200
N 	N 	0.24260 0.09710 0.40290 -0.05800
C 	C 	0.32930 0.57698 0.92302 0.12900
C 	C 	0.28220 0.60460 0.89540 0.02700
N 	N 	0.25860 0.61870 0.88130 -0.06000
C 	C 	0.27190 0.59000 0.91000 0.01300
N 	N 	0.24260 0.59710 0.90290 -0.05800
C 	C 	0.82930 0.92302 0.07698 0.12800
C 	C 	0.78220 0.89540 0.10460 0.02700
N 	N 	0.75860 0.88130 0.11870 -0.06000
C 	C 	0.77190 0.91000 0.09000 0.01300
N 	N 	0.74260 0.90290 0.09710 -0.05800
C 	C 	0.82930 0.42302 0.57698 0.12800
C 	C 	0.78220 0.39540 0.60460 0.02700
N 	N 	0.75860 0.38130 0.61870 -0.06000
C 	C 	0.77190 0.41000 0.59000 0.01300
N 	N 	0.74260 0.40290 0.59710 -0.05800
C 	C 	0.32930 0.92302 0.57698 0.12900
C 	C 	0.28220 0.89540 0.60460 0.02700
N 	N 	0.25860 0.88130 0.61870 -0.06000
C 	C 	0.27190 0.91000 0.59000 0.01300
N 	N 	0.24260 0.90290 0.59710 -0.05800
C 	C 	0.32930 0.42302 0.07698 0.12800
C 	C 	0.28220 0.39540 0.10460 0.02800
N 	N 	0.25860 0.38130 0.11870 -0.06000
C 	C 	0.27190 0.41000 0.09000 0.01200
N 	N 	0.24260 0.40290 0.09710 -0.05800
C 	C 	0.02590 0.22790 0.22790 0.01600
C 	C 	0.02590 0.72790 0.72790 0.01600
C 	C 	0.52590 0.22790 0.72790 -0.00300
C 	C 	0.52590 0.72790 0.22790 -0.00300
C 	C 	0.97410 0.77210 0.22790 -0.02200
C 	C 	0.97410 0.27210 0.72790 -0.02200
C 	C 	0.47410 0.77210 0.72790 -0.00300
C 	C 	0.47410 0.27210 0.22790 -0.00300
C 	C 	0.97410 0.22790 0.77210 -0.02200
C 	C 	0.97410 0.72790 0.27210 -0.02200
C 	C 	0.47410 0.22790 0.27210 -0.00300
C 	C 	0.47410 0.72790 0.77210 -0.00300
C 	C 	0.02590 0.77210 0.77210 0.01600
C 	C 	0.02590 0.27210 0.27210 0.01600
C 	C 	0.52590 0.77210 0.27210 -0.00300
C 	C 	0.52590 0.27210 0.77210 -0.00300
C 	C 	0.22790 0.02590 0.22790 0.01600
C 	C 	0.22790 0.52590 0.72790 -0.00300
C 	C 	0.72790 0.02590 0.72790 0.01600
C 	C 	0.72790 0.52590 0.22790 -0.00300
C 	C 	0.22790 0.97410 0.77210 -0.02200
C 	C 	0.22790 0.47410 0.27210 -0.00300
C 	C 	0.72790 0.97410 0.27210 -0.02200
C 	C 	0.72790 0.47410 0.77210 -0.00300
C 	C 	0.77210 0.97410 0.22790 -0.02200
C 	C 	0.77210 0.47410 0.72790 -0.00300
C 	C 	0.27210 0.97410 0.72790 -0.02200
C 	C 	0.27210 0.47410 0.22790 -0.00300
C 	C 	0.77210 0.02590 0.77210 0.01600
C 	C 	0.77210 0.52590 0.27210 -0.00300
C 	C 	0.27210 0.02590 0.27210 0.01600
C 	C 	0.27210 0.52590 0.77210 -0.00300
C 	C 	0.22790 0.22790 0.02590 0.01600
C 	C 	0.22790 0.72790 0.52590 -0.00300
C 	C 	0.72790 0.22790 0.52590 -0.00300
C 	C 	0.72790 0.72790 0.02590 0.01600
C 	C 	0.77210 0.22790 0.97410 -0.02200
C 	C 	0.77210 0.72790 0.47410 -0.00300
C 	C 	0.27210 0.22790 0.47410 -0.00300
C 	C 	0.27210 0.72790 0.97410 -0.02200
C 	C 	0.22790 0.77210 0.97410 -0.02200
C 	C 	0.22790 0.27210 0.47410 -0.00300
C 	C 	0.72790 0.77210 0.47410 -0.00300
C 	C 	0.72790 0.27210 0.97410 -0.02200
C 	C 	0.77210 0.77210 0.02590 0.01600
C 	C 	0.77210 0.27210 0.52590 -0.00300
C 	C 	0.27210 0.77210 0.52590 -0.00300
C 	C 	0.27210 0.27210 0.02590 0.01600
C 	C 	0.22790 0.02590 0.77210 0.01600
C 	C 	0.22790 0.52590 0.27210 -0.00300
C 	C 	0.72790 0.02590 0.27210 0.01600
C 	C 	0.72790 0.52590 0.77210 -0.00300
C 	C 	0.77210 0.97410 0.77210 -0.02200
C 	C 	0.77210 0.47410 0.27210 -0.00300
C 	C 	0.27210 0.97410 0.27210 -0.02200
C 	C 	0.27210 0.47410 0.77210 -0.00300
C 	C 	0.22790 0.97410 0.22790 -0.02200
C 	C 	0.22790 0.47410 0.72790 -0.00300
C 	C 	0.72790 0.97410 0.72790 -0.02200
C 	C 	0.72790 0.47410 0.22790 -0.00300
C 	C 	0.77210 0.02590 0.22790 0.01600
C 	C 	0.77210 0.52590 0.72790 -0.00300
C 	C 	0.27210 0.02590 0.72790 0.01600
C 	C 	0.27210 0.52590 0.22790 -0.00300
C 	C 	0.02590 0.22790 0.77210 0.01600
C 	C 	0.02590 0.72790 0.27210 0.01600
C 	C 	0.52590 0.22790 0.27210 -0.00300
C 	C 	0.52590 0.72790 0.77210 -0.00300
C 	C 	0.97410 0.22790 0.22790 -0.02200
C 	C 	0.97410 0.72790 0.72790 -0.02200
C 	C 	0.47410 0.22790 0.72790 -0.00300
C 	C 	0.47410 0.72790 0.22790 -0.00300
C 	C 	0.97410 0.77210 0.77210 -0.02200
C 	C 	0.97410 0.27210 0.27210 -0.02200
C 	C 	0.47410 0.77210 0.27210 -0.00300
C 	C 	0.47410 0.27210 0.77210 -0.00300
C 	C 	0.02590 0.77210 0.22790 0.01600
C 	C 	0.02590 0.27210 0.72790 0.01600
C 	C 	0.52590 0.77210 0.72790 -0.00300
C 	C 	0.52590 0.27210 0.22790 -0.00300
C 	C 	0.22790 0.22790 0.97410 -0.02200
C 	C 	0.22790 0.72790 0.47410 -0.00300
C 	C 	0.72790 0.22790 0.47410 -0.00300
C 	C 	0.72790 0.72790 0.97410 -0.02200
C 	C 	0.22790 0.77210 0.02590 0.01600
C 	C 	0.22790 0.27210 0.52590 -0.00300
C 	C 	0.72790 0.77210 0.52590 -0.00300
C 	C 	0.72790 0.27210 0.02590 0.01600
C 	C 	0.77210 0.22790 0.02590 0.01600
C 	C 	0.77210 0.72790 0.52590 -0.00300
C 	C 	0.27210 0.22790 0.52590 -0.00300
C 	C 	0.27210 0.72790 0.02590 0.01600
C 	C 	0.77210 0.77210 0.97410 -0.02200
C 	C 	0.77210 0.27210 0.47410 -0.00300
C 	C 	0.27210 0.77210 0.47410 -0.00300
C 	C 	0.27210 0.27210 0.97410 -0.02200
