data_crystal

_cell_length_a 28.92340
_cell_length_b 28.92340
_cell_length_c 28.92340
_cell_angle_alpha 90.00000
_cell_angle_beta  90.00000
_cell_angle_gamma 90.00000

_symmetry_space_group_name_	'P 1'
_symmetry_space_group_name_H-M	'P 1'

loop_
_symmetry_equiv_pos_as_xyz
  x,y,z

loop_
_atom_site_label
_atom_site_type_symbol
_atom_site_fract_x
_atom_site_fract_y
_atom_site_fract_z
_atom_site_charge
O 	O 	0.37467 0.49295 0.04999 -0.42400
O 	O 	0.37505 0.55534 0.00514 -0.48600
C 	C 	0.37610 0.53736 0.04569 0.52800
O 	O 	0.37790 0.56138 0.08219 -0.55500
O 	O 	0.37467 0.99295 0.54999 -0.34000
O 	O 	0.37505 0.05534 0.50514 -0.45000
C 	C 	0.37610 0.03736 0.54569 0.44900
O 	O 	0.37790 0.06138 0.58219 -0.54300
O 	O 	0.87467 0.49295 0.54999 -0.40200
O 	O 	0.87505 0.55534 0.50514 -0.44800
C 	C 	0.87610 0.53736 0.54569 0.52600
O 	O 	0.87790 0.56138 0.58219 -0.54300
O 	O 	0.87467 0.99295 0.04999 -0.35000
O 	O 	0.87505 0.05534 0.00514 -0.47900
C 	C 	0.87610 0.03736 0.04569 0.45400
O 	O 	0.87790 0.06138 0.08219 -0.54700
O 	O 	0.87533 0.25705 0.54999 -0.40200
O 	O 	0.87495 0.19466 0.50514 -0.44800
C 	C 	0.87390 0.21264 0.54569 0.52600
O 	O 	0.87210 0.18862 0.58219 -0.54600
O 	O 	0.87533 0.75705 0.04999 -0.41600
O 	O 	0.87495 0.69466 0.00514 -0.48100
C 	C 	0.87390 0.71264 0.04569 0.52800
O 	O 	0.87210 0.68862 0.08219 -0.55300
O 	O 	0.37533 0.25705 0.04999 -0.42500
O 	O 	0.37495 0.19466 0.00514 -0.48700
C 	C 	0.37390 0.21264 0.04569 0.52700
O 	O 	0.37210 0.18862 0.08219 -0.55800
O 	O 	0.37533 0.75705 0.54999 -0.40800
O 	O 	0.37495 0.69466 0.50514 -0.45200
C 	C 	0.37390 0.71264 0.54569 0.52400
O 	O 	0.37210 0.68862 0.58219 -0.54800
O 	O 	0.37533 0.99295 0.20001 -0.34100
O 	O 	0.37495 0.05534 0.24486 -0.45100
C 	C 	0.37390 0.03736 0.20431 0.44800
O 	O 	0.37210 0.06138 0.16781 -0.54500
O 	O 	0.37533 0.49295 0.70001 -0.40800
O 	O 	0.37495 0.55534 0.74486 -0.45200
C 	C 	0.37390 0.53736 0.70431 0.52400
O 	O 	0.37210 0.56138 0.66781 -0.54800
O 	O 	0.87533 0.99295 0.70001 -0.33400
O 	O 	0.87495 0.05534 0.74486 -0.44400
C 	C 	0.87390 0.03736 0.70431 0.44800
O 	O 	0.87210 0.06138 0.66781 -0.54000
O 	O 	0.87533 0.49295 0.20001 -0.40300
O 	O 	0.87495 0.55534 0.24486 -0.44900
C 	C 	0.87390 0.53736 0.20431 0.52500
O 	O 	0.87210 0.56138 0.16781 -0.54700
O 	O 	0.87467 0.75705 0.70001 -0.40000
O 	O 	0.87505 0.69466 0.74486 -0.44700
C 	C 	0.87610 0.71264 0.70431 0.52400
O 	O 	0.87790 0.68862 0.66781 -0.54400
O 	O 	0.87467 0.25705 0.20001 -0.40300
O 	O 	0.87505 0.19466 0.24486 -0.44900
C 	C 	0.87610 0.21264 0.20431 0.52500
O 	O 	0.87790 0.18862 0.16781 -0.54800
O 	O 	0.37467 0.75705 0.20001 -0.40800
O 	O 	0.37505 0.69466 0.24486 -0.45300
C 	C 	0.37610 0.71264 0.20431 0.52400
O 	O 	0.37790 0.68862 0.16781 -0.55000
O 	O 	0.37467 0.25705 0.70001 -0.40800
O 	O 	0.37505 0.19466 0.74486 -0.45200
C 	C 	0.37610 0.21264 0.70431 0.52400
O 	O 	0.37790 0.18862 0.66781 -0.55000
O 	O 	0.04999 0.37467 0.49295 -0.42500
O 	O 	0.00514 0.37505 0.55534 -0.48700
C 	C 	0.04569 0.37610 0.53736 0.52700
O 	O 	0.08219 0.37790 0.56138 -0.55600
O 	O 	0.04999 0.87467 0.99295 -0.35100
O 	O 	0.00514 0.87505 0.05534 -0.48000
C 	C 	0.04569 0.87610 0.03736 0.45300
O 	O 	0.08219 0.87790 0.06138 -0.54800
O 	O 	0.54999 0.37467 0.99295 -0.34100
O 	O 	0.50514 0.37505 0.05534 -0.45100
C 	C 	0.54569 0.37610 0.03736 0.44800
O 	O 	0.58219 0.37790 0.06138 -0.54400
O 	O 	0.54999 0.87467 0.49295 -0.40300
O 	O 	0.50514 0.87505 0.55534 -0.44900
C 	C 	0.54569 0.87610 0.53736 0.52500
O 	O 	0.58219 0.87790 0.56138 -0.54400
O 	O 	0.54999 0.87533 0.25705 -0.40300
O 	O 	0.50514 0.87495 0.19466 -0.44900
C 	C 	0.54569 0.87390 0.21264 0.52500
O 	O 	0.58219 0.87210 0.18862 -0.54700
O 	O 	0.54999 0.37533 0.75705 -0.40800
O 	O 	0.50514 0.37495 0.69466 -0.45200
C 	C 	0.54569 0.37390 0.71264 0.52400
O 	O 	0.58219 0.37210 0.68862 -0.54800
O 	O 	0.04999 0.87533 0.75705 -0.41700
O 	O 	0.00514 0.87495 0.69466 -0.48100
C 	C 	0.04569 0.87390 0.71264 0.52800
O 	O 	0.08219 0.87210 0.68862 -0.55300
O 	O 	0.04999 0.37533 0.25705 -0.42500
O 	O 	0.00514 0.37495 0.19466 -0.48700
C 	C 	0.04569 0.37390 0.21264 0.52700
O 	O 	0.08219 0.37210 0.18862 -0.55800
O 	O 	0.20001 0.37533 0.99295 -0.34100
O 	O 	0.24486 0.37495 0.05534 -0.45100
C 	C 	0.20431 0.37390 0.03736 0.44800
O 	O 	0.16781 0.37210 0.06138 -0.54500
O 	O 	0.20001 0.87533 0.49295 -0.40300
O 	O 	0.24486 0.87495 0.55534 -0.44900
C 	C 	0.20431 0.87390 0.53736 0.52500
O 	O 	0.16781 0.87210 0.56138 -0.54700
O 	O 	0.70001 0.37533 0.49295 -0.40800
O 	O 	0.74486 0.37495 0.55534 -0.45200
C 	C 	0.70431 0.37390 0.53736 0.52400
O 	O 	0.66781 0.37210 0.56138 -0.54800
O 	O 	0.70001 0.87533 0.99295 -0.33400
O 	O 	0.74486 0.87495 0.05534 -0.44400
C 	C 	0.70431 0.87390 0.03736 0.44800
O 	O 	0.66781 0.87210 0.06138 -0.54000
O 	O 	0.70001 0.87467 0.75705 -0.40000
O 	O 	0.74486 0.87505 0.69466 -0.44700
C 	C 	0.70431 0.87610 0.71264 0.52400
O 	O 	0.66781 0.87790 0.68862 -0.54400
O 	O 	0.70001 0.37467 0.25705 -0.40800
O 	O 	0.74486 0.37505 0.19466 -0.45200
C 	C 	0.70431 0.37610 0.21264 0.52400
O 	O 	0.66781 0.37790 0.18862 -0.55000
O 	O 	0.20001 0.87467 0.25705 -0.40300
O 	O 	0.24486 0.87505 0.19466 -0.44900
C 	C 	0.20431 0.87610 0.21264 0.52500
O 	O 	0.16781 0.87790 0.18862 -0.54800
O 	O 	0.20001 0.37467 0.75705 -0.40800
O 	O 	0.24486 0.37505 0.69466 -0.45300
C 	C 	0.20431 0.37610 0.71264 0.52400
O 	O 	0.16781 0.37790 0.68862 -0.55000
O 	O 	0.49295 0.04999 0.37467 -0.42500
O 	O 	0.55534 0.00514 0.37505 -0.48700
C 	C 	0.53736 0.04569 0.37610 0.52700
O 	O 	0.56138 0.08219 0.37790 -0.55600
O 	O 	0.49295 0.54999 0.87467 -0.40300
O 	O 	0.55534 0.50514 0.87505 -0.44900
C 	C 	0.53736 0.54569 0.87610 0.52500
O 	O 	0.56138 0.58219 0.87790 -0.54400
O 	O 	0.99295 0.04999 0.87467 -0.35100
O 	O 	0.05534 0.00514 0.87505 -0.48000
C 	C 	0.03736 0.04569 0.87610 0.45300
O 	O 	0.06138 0.08219 0.87790 -0.54800
O 	O 	0.99295 0.54999 0.37467 -0.34100
O 	O 	0.05534 0.50514 0.37505 -0.45100
C 	C 	0.03736 0.54569 0.37610 0.44800
O 	O 	0.06138 0.58219 0.37790 -0.54400
O 	O 	0.25705 0.54999 0.87533 -0.40300
O 	O 	0.19466 0.50514 0.87495 -0.44900
C 	C 	0.21264 0.54569 0.87390 0.52500
O 	O 	0.18862 0.58219 0.87210 -0.54700
O 	O 	0.25705 0.04999 0.37533 -0.42500
O 	O 	0.19466 0.00514 0.37495 -0.48700
C 	C 	0.21264 0.04569 0.37390 0.52700
O 	O 	0.18862 0.08219 0.37210 -0.55800
O 	O 	0.75705 0.54999 0.37533 -0.40800
O 	O 	0.69466 0.50514 0.37495 -0.45200
C 	C 	0.71264 0.54569 0.37390 0.52400
O 	O 	0.68862 0.58219 0.37210 -0.54800
O 	O 	0.75705 0.04999 0.87533 -0.41700
O 	O 	0.69466 0.00514 0.87495 -0.48100
C 	C 	0.71264 0.04569 0.87390 0.52800
O 	O 	0.68862 0.08219 0.87210 -0.55300
O 	O 	0.99295 0.20001 0.37533 -0.34100
O 	O 	0.05534 0.24486 0.37495 -0.45100
C 	C 	0.03736 0.20431 0.37390 0.44800
O 	O 	0.06138 0.16781 0.37210 -0.54500
O 	O 	0.99295 0.70001 0.87533 -0.33400
O 	O 	0.05534 0.74486 0.87495 -0.44400
C 	C 	0.03736 0.70431 0.87390 0.44800
O 	O 	0.06138 0.66781 0.87210 -0.54000
O 	O 	0.49295 0.20001 0.87533 -0.40300
O 	O 	0.55534 0.24486 0.87495 -0.44900
C 	C 	0.53736 0.20431 0.87390 0.52500
O 	O 	0.56138 0.16781 0.87210 -0.54700
O 	O 	0.49295 0.70001 0.37533 -0.40800
O 	O 	0.55534 0.74486 0.37495 -0.45200
C 	C 	0.53736 0.70431 0.37390 0.52400
O 	O 	0.56138 0.66781 0.37210 -0.54800
O 	O 	0.75705 0.70001 0.87467 -0.40000
O 	O 	0.69466 0.74486 0.87505 -0.44700
C 	C 	0.71264 0.70431 0.87610 0.52400
O 	O 	0.68862 0.66781 0.87790 -0.54400
O 	O 	0.75705 0.20001 0.37467 -0.40800
O 	O 	0.69466 0.24486 0.37505 -0.45300
C 	C 	0.71264 0.20431 0.37610 0.52400
O 	O 	0.68862 0.16781 0.37790 -0.55000
O 	O 	0.25705 0.70001 0.37467 -0.40800
O 	O 	0.19466 0.74486 0.37505 -0.45200
C 	C 	0.21264 0.70431 0.37610 0.52400
O 	O 	0.18862 0.66781 0.37790 -0.55000
O 	O 	0.25705 0.20001 0.87467 -0.40300
O 	O 	0.19466 0.24486 0.87505 -0.44900
C 	C 	0.21264 0.20431 0.87610 0.52500
O 	O 	0.18862 0.16781 0.87790 -0.54800
O 	O 	0.24295 0.62467 0.95001 -0.39600
O 	O 	0.30534 0.62505 0.99486 -0.41800
C 	C 	0.28736 0.62610 0.95431 0.52100
O 	O 	0.31138 0.62790 0.91781 -0.53900
O 	O 	0.24295 0.12467 0.45001 -0.41700
O 	O 	0.30534 0.12505 0.49486 -0.45900
C 	C 	0.28736 0.12610 0.45431 0.52400
O 	O 	0.31138 0.12790 0.41781 -0.55100
O 	O 	0.74295 0.62467 0.45001 -0.40900
O 	O 	0.80534 0.62505 0.49486 -0.45300
C 	C 	0.78736 0.62610 0.45431 0.52400
O 	O 	0.81138 0.62790 0.41781 -0.54600
O 	O 	0.74295 0.12467 0.95001 -0.40000
O 	O 	0.80534 0.12505 0.99486 -0.42200
C 	C 	0.78736 0.12610 0.95431 0.52000
O 	O 	0.81138 0.12790 0.91781 -0.54000
O 	O 	0.00705 0.12533 0.45001 -0.48200
O 	O 	0.94466 0.12495 0.49486 -0.46000
C 	C 	0.96264 0.12390 0.45431 0.60000
O 	O 	0.93862 0.12210 0.41781 -0.55500
O 	O 	0.00705 0.62533 0.95001 -0.46100
O 	O 	0.94466 0.62495 0.99486 -0.42000
C 	C 	0.96264 0.62390 0.95431 0.59600
O 	O 	0.93862 0.62210 0.91781 -0.54200
O 	O 	0.50705 0.12533 0.95001 -0.40000
O 	O 	0.44466 0.12495 0.99486 -0.42200
C 	C 	0.46264 0.12390 0.95431 0.52000
O 	O 	0.43862 0.12210 0.91781 -0.54300
O 	O 	0.50705 0.62533 0.45001 -0.40900
O 	O 	0.44466 0.62495 0.49486 -0.45300
C 	C 	0.46264 0.62390 0.45431 0.52400
O 	O 	0.43862 0.62210 0.41781 -0.54800
O 	O 	0.74295 0.62533 0.79999 -0.40900
O 	O 	0.80534 0.62495 0.75514 -0.45200
C 	C 	0.78736 0.62390 0.79569 0.52400
O 	O 	0.81138 0.62210 0.83219 -0.54400
O 	O 	0.74295 0.12533 0.29999 -0.41700
O 	O 	0.80534 0.12495 0.25514 -0.45900
C 	C 	0.78736 0.12390 0.29569 0.52400
O 	O 	0.81138 0.12210 0.33219 -0.55000
O 	O 	0.24295 0.62533 0.29999 -0.41200
O 	O 	0.30534 0.62495 0.25514 -0.45500
C 	C 	0.28736 0.62390 0.29569 0.52500
O 	O 	0.31138 0.62210 0.33219 -0.54800
O 	O 	0.24295 0.12533 0.79999 -0.41700
O 	O 	0.30534 0.12495 0.75514 -0.45800
C 	C 	0.28736 0.12390 0.79569 0.52400
O 	O 	0.31138 0.12210 0.83219 -0.55000
O 	O 	0.50705 0.12467 0.29999 -0.41700
O 	O 	0.44466 0.12505 0.25514 -0.46000
C 	C 	0.46264 0.12610 0.29569 0.52400
O 	O 	0.43862 0.12790 0.33219 -0.55100
O 	O 	0.50705 0.62467 0.79999 -0.40900
O 	O 	0.44466 0.62505 0.75514 -0.45300
C 	C 	0.46264 0.62610 0.79569 0.52400
O 	O 	0.43862 0.62790 0.83219 -0.54600
O 	O 	0.00705 0.12467 0.79999 -0.48200
O 	O 	0.94466 0.12505 0.75514 -0.46000
C 	C 	0.96264 0.12610 0.79569 0.59900
O 	O 	0.93862 0.12790 0.83219 -0.55200
O 	O 	0.00705 0.62467 0.29999 -0.47700
O 	O 	0.94466 0.62505 0.25514 -0.45700
C 	C 	0.96264 0.62610 0.29569 0.60100
O 	O 	0.93862 0.62790 0.33219 -0.55100
O 	O 	0.12467 0.29999 0.50705 -0.41700
O 	O 	0.12505 0.25514 0.44466 -0.46000
C 	C 	0.12610 0.29569 0.46264 0.52400
O 	O 	0.12790 0.33219 0.43862 -0.55100
O 	O 	0.12467 0.79999 0.00705 -0.48200
O 	O 	0.12505 0.75514 0.94466 -0.46000
C 	C 	0.12610 0.79569 0.96264 0.59900
O 	O 	0.12790 0.83219 0.93862 -0.55200
O 	O 	0.62467 0.29999 0.00705 -0.47700
O 	O 	0.62505 0.25514 0.94466 -0.45700
C 	C 	0.62610 0.29569 0.96264 0.60100
O 	O 	0.62790 0.33219 0.93862 -0.55100
O 	O 	0.62467 0.79999 0.50705 -0.40900
O 	O 	0.62505 0.75514 0.44466 -0.45300
C 	C 	0.62610 0.79569 0.46264 0.52400
O 	O 	0.62790 0.83219 0.43862 -0.54600
O 	O 	0.62533 0.79999 0.74295 -0.40900
O 	O 	0.62495 0.75514 0.80534 -0.45200
C 	C 	0.62390 0.79569 0.78736 0.52400
O 	O 	0.62210 0.83219 0.81138 -0.54400
O 	O 	0.62533 0.29999 0.24295 -0.41200
O 	O 	0.62495 0.25514 0.30534 -0.45500
C 	C 	0.62390 0.29569 0.28736 0.52500
O 	O 	0.62210 0.33219 0.31138 -0.54800
O 	O 	0.12533 0.79999 0.24295 -0.41700
O 	O 	0.12495 0.75514 0.30534 -0.45800
C 	C 	0.12390 0.79569 0.28736 0.52400
O 	O 	0.12210 0.83219 0.31138 -0.55000
O 	O 	0.12533 0.29999 0.74295 -0.41700
O 	O 	0.12495 0.25514 0.80534 -0.45900
C 	C 	0.12390 0.29569 0.78736 0.52400
O 	O 	0.12210 0.33219 0.81138 -0.55000
O 	O 	0.12533 0.45001 0.00705 -0.48200
O 	O 	0.12495 0.49486 0.94466 -0.46000
C 	C 	0.12390 0.45431 0.96264 0.60000
O 	O 	0.12210 0.41781 0.93862 -0.55500
O 	O 	0.12533 0.95001 0.50705 -0.40000
O 	O 	0.12495 0.99486 0.44466 -0.42200
C 	C 	0.12390 0.95431 0.46264 0.52000
O 	O 	0.12210 0.91781 0.43862 -0.54300
O 	O 	0.62533 0.45001 0.50705 -0.40900
O 	O 	0.62495 0.49486 0.44466 -0.45300
C 	C 	0.62390 0.45431 0.46264 0.52400
O 	O 	0.62210 0.41781 0.43862 -0.54800
O 	O 	0.62533 0.95001 0.00705 -0.46100
O 	O 	0.62495 0.99486 0.94466 -0.42000
C 	C 	0.62390 0.95431 0.96264 0.59600
O 	O 	0.62210 0.91781 0.93862 -0.54200
O 	O 	0.62467 0.95001 0.24295 -0.39600
O 	O 	0.62505 0.99486 0.30534 -0.41800
C 	C 	0.62610 0.95431 0.28736 0.52100
O 	O 	0.62790 0.91781 0.31138 -0.53900
O 	O 	0.62467 0.45001 0.74295 -0.40900
O 	O 	0.62505 0.49486 0.80534 -0.45300
C 	C 	0.62610 0.45431 0.78736 0.52400
O 	O 	0.62790 0.41781 0.81138 -0.54600
O 	O 	0.12467 0.95001 0.74295 -0.40000
O 	O 	0.12505 0.99486 0.80534 -0.42200
C 	C 	0.12610 0.95431 0.78736 0.52000
O 	O 	0.12790 0.91781 0.81138 -0.54000
O 	O 	0.12467 0.45001 0.24295 -0.41700
O 	O 	0.12505 0.49486 0.30534 -0.45900
C 	C 	0.12610 0.45431 0.28736 0.52400
O 	O 	0.12790 0.41781 0.31138 -0.55100
O 	O 	0.79999 0.74295 0.62533 -0.40900
O 	O 	0.75514 0.80534 0.62495 -0.45200
C 	C 	0.79569 0.78736 0.62390 0.52400
O 	O 	0.83219 0.81138 0.62210 -0.54400
O 	O 	0.79999 0.24295 0.12533 -0.41700
O 	O 	0.75514 0.30534 0.12495 -0.45800
C 	C 	0.79569 0.28736 0.12390 0.52400
O 	O 	0.83219 0.31138 0.12210 -0.55000
O 	O 	0.29999 0.74295 0.12533 -0.41700
O 	O 	0.25514 0.80534 0.12495 -0.45900
C 	C 	0.29569 0.78736 0.12390 0.52400
O 	O 	0.33219 0.81138 0.12210 -0.55000
O 	O 	0.29999 0.24295 0.62533 -0.41200
O 	O 	0.25514 0.30534 0.62495 -0.45500
C 	C 	0.29569 0.28736 0.62390 0.52500
O 	O 	0.33219 0.31138 0.62210 -0.54800
O 	O 	0.29999 0.50705 0.12467 -0.41700
O 	O 	0.25514 0.44466 0.12505 -0.46000
C 	C 	0.29569 0.46264 0.12610 0.52400
O 	O 	0.33219 0.43862 0.12790 -0.55100
O 	O 	0.29999 0.00705 0.62467 -0.47700
O 	O 	0.25514 0.94466 0.62505 -0.45700
C 	C 	0.29569 0.96264 0.62610 0.60100
O 	O 	0.33219 0.93862 0.62790 -0.55100
O 	O 	0.79999 0.50705 0.62467 -0.40900
O 	O 	0.75514 0.44466 0.62505 -0.45300
C 	C 	0.79569 0.46264 0.62610 0.52400
O 	O 	0.83219 0.43862 0.62790 -0.54600
O 	O 	0.79999 0.00705 0.12467 -0.48200
O 	O 	0.75514 0.94466 0.12505 -0.46000
C 	C 	0.79569 0.96264 0.12610 0.59900
O 	O 	0.83219 0.93862 0.12790 -0.55200
O 	O 	0.95001 0.24295 0.62467 -0.39600
O 	O 	0.99486 0.30534 0.62505 -0.41800
C 	C 	0.95431 0.28736 0.62610 0.52100
O 	O 	0.91781 0.31138 0.62790 -0.53900
O 	O 	0.95001 0.74295 0.12467 -0.40000
O 	O 	0.99486 0.80534 0.12505 -0.42200
C 	C 	0.95431 0.78736 0.12610 0.52000
O 	O 	0.91781 0.81138 0.12790 -0.54000
O 	O 	0.45001 0.24295 0.12467 -0.41700
O 	O 	0.49486 0.30534 0.12505 -0.45900
C 	C 	0.45431 0.28736 0.12610 0.52400
O 	O 	0.41781 0.31138 0.12790 -0.55100
O 	O 	0.45001 0.74295 0.62467 -0.40900
O 	O 	0.49486 0.80534 0.62505 -0.45300
C 	C 	0.45431 0.78736 0.62610 0.52400
O 	O 	0.41781 0.81138 0.62790 -0.54600
O 	O 	0.45001 0.00705 0.12533 -0.48200
O 	O 	0.49486 0.94466 0.12495 -0.46000
C 	C 	0.45431 0.96264 0.12390 0.60000
O 	O 	0.41781 0.93862 0.12210 -0.55500
O 	O 	0.45001 0.50705 0.62533 -0.40900
O 	O 	0.49486 0.44466 0.62495 -0.45300
C 	C 	0.45431 0.46264 0.62390 0.52400
O 	O 	0.41781 0.43862 0.62210 -0.54800
O 	O 	0.95001 0.00705 0.62533 -0.46100
O 	O 	0.99486 0.94466 0.62495 -0.42000
C 	C 	0.95431 0.96264 0.62390 0.59600
O 	O 	0.91781 0.93862 0.62210 -0.54200
O 	O 	0.95001 0.50705 0.12533 -0.40000
O 	O 	0.99486 0.44466 0.12495 -0.42200
C 	C 	0.95431 0.46264 0.12390 0.52000
O 	O 	0.91781 0.43862 0.12210 -0.54300
O 	O 	0.62533 0.50705 0.95001 -0.39400
O 	O 	0.62495 0.44466 0.99486 -0.41700
C 	C 	0.62390 0.46264 0.95431 0.52100
O 	O 	0.62210 0.43862 0.91781 -0.53900
O 	O 	0.62533 0.00705 0.45001 -0.47600
O 	O 	0.62495 0.94466 0.49486 -0.45600
C 	C 	0.62390 0.96264 0.45431 0.60100
O 	O 	0.62210 0.93862 0.41781 -0.55100
O 	O 	0.12533 0.50705 0.45001 -0.41600
O 	O 	0.12495 0.44466 0.49486 -0.45800
C 	C 	0.12390 0.46264 0.45431 0.52400
O 	O 	0.12210 0.43862 0.41781 -0.55200
O 	O 	0.12533 0.00705 0.95001 -0.46600
O 	O 	0.12495 0.94466 0.99486 -0.42500
C 	C 	0.12390 0.96264 0.95431 0.59500
O 	O 	0.12210 0.93862 0.91781 -0.54600
O 	O 	0.12467 0.74295 0.45001 -0.41600
O 	O 	0.12505 0.80534 0.49486 -0.45800
C 	C 	0.12610 0.78736 0.45431 0.52400
O 	O 	0.12790 0.81138 0.41781 -0.54900
O 	O 	0.12467 0.24295 0.95001 -0.40200
O 	O 	0.12505 0.30534 0.99486 -0.42300
C 	C 	0.12610 0.28736 0.95431 0.52000
O 	O 	0.12790 0.31138 0.91781 -0.54200
O 	O 	0.62467 0.74295 0.95001 -0.39400
O 	O 	0.62505 0.80534 0.99486 -0.41700
C 	C 	0.62610 0.78736 0.95431 0.52100
O 	O 	0.62790 0.81138 0.91781 -0.53700
O 	O 	0.62467 0.24295 0.45001 -0.41100
O 	O 	0.62505 0.30534 0.49486 -0.45400
C 	C 	0.62610 0.28736 0.45431 0.52500
O 	O 	0.62790 0.31138 0.41781 -0.54800
O 	O 	0.62467 0.00705 0.79999 -0.47600
O 	O 	0.62505 0.94466 0.75514 -0.45500
C 	C 	0.62610 0.96264 0.79569 0.60000
O 	O 	0.62790 0.93862 0.83219 -0.54900
O 	O 	0.62467 0.50705 0.29999 -0.41100
O 	O 	0.62505 0.44466 0.25514 -0.45500
C 	C 	0.62610 0.46264 0.29569 0.52500
O 	O 	0.62790 0.43862 0.33219 -0.54800
O 	O 	0.12467 0.00705 0.29999 -0.48300
O 	O 	0.12505 0.94466 0.25514 -0.46200
C 	C 	0.12610 0.96264 0.29569 0.60000
O 	O 	0.12790 0.93862 0.33219 -0.55400
O 	O 	0.12467 0.50705 0.79999 -0.41600
O 	O 	0.12505 0.44466 0.75514 -0.45800
C 	C 	0.12610 0.46264 0.79569 0.52400
O 	O 	0.12790 0.43862 0.83219 -0.54900
O 	O 	0.12533 0.24295 0.29999 -0.41800
O 	O 	0.12495 0.30534 0.25514 -0.46000
C 	C 	0.12390 0.28736 0.29569 0.52400
O 	O 	0.12210 0.31138 0.33219 -0.55200
O 	O 	0.12533 0.74295 0.79999 -0.41500
O 	O 	0.12495 0.80534 0.75514 -0.45700
C 	C 	0.12390 0.78736 0.79569 0.52400
O 	O 	0.12210 0.81138 0.83219 -0.54800
O 	O 	0.62533 0.24295 0.79999 -0.41100
O 	O 	0.62495 0.30534 0.75514 -0.45400
C 	C 	0.62390 0.28736 0.79569 0.52500
O 	O 	0.62210 0.31138 0.83219 -0.54600
O 	O 	0.62533 0.74295 0.29999 -0.41000
O 	O 	0.62495 0.80534 0.25514 -0.45400
C 	C 	0.62390 0.78736 0.29569 0.52500
O 	O 	0.62210 0.81138 0.33219 -0.54600
O 	O 	0.95001 0.62533 0.50705 -0.39400
O 	O 	0.99486 0.62495 0.44466 -0.41700
C 	C 	0.95431 0.62390 0.46264 0.52100
O 	O 	0.91781 0.62210 0.43862 -0.53900
O 	O 	0.95001 0.12533 0.00705 -0.46600
O 	O 	0.99486 0.12495 0.94466 -0.42500
C 	C 	0.95431 0.12390 0.96264 0.59500
O 	O 	0.91781 0.12210 0.93862 -0.54600
O 	O 	0.45001 0.62533 0.00705 -0.47600
O 	O 	0.49486 0.62495 0.94466 -0.45600
C 	C 	0.45431 0.62390 0.96264 0.60100
O 	O 	0.41781 0.62210 0.93862 -0.55100
O 	O 	0.45001 0.12533 0.50705 -0.41600
O 	O 	0.49486 0.12495 0.44466 -0.45800
C 	C 	0.45431 0.12390 0.46264 0.52400
O 	O 	0.41781 0.12210 0.43862 -0.55200
O 	O 	0.45001 0.12467 0.74295 -0.41600
O 	O 	0.49486 0.12505 0.80534 -0.45800
C 	C 	0.45431 0.12610 0.78736 0.52400
O 	O 	0.41781 0.12790 0.81138 -0.54900
O 	O 	0.45001 0.62467 0.24295 -0.41100
O 	O 	0.49486 0.62505 0.30534 -0.45400
C 	C 	0.45431 0.62610 0.28736 0.52500
O 	O 	0.41781 0.62790 0.31138 -0.54800
O 	O 	0.95001 0.12467 0.24295 -0.40200
O 	O 	0.99486 0.12505 0.30534 -0.42300
C 	C 	0.95431 0.12610 0.28736 0.52000
O 	O 	0.91781 0.12790 0.31138 -0.54200
O 	O 	0.95001 0.62467 0.74295 -0.39400
O 	O 	0.99486 0.62505 0.80534 -0.41700
C 	C 	0.95431 0.62610 0.78736 0.52100
O 	O 	0.91781 0.62790 0.81138 -0.53700
O 	O 	0.79999 0.62467 0.00705 -0.47600
O 	O 	0.75514 0.62505 0.94466 -0.45500
C 	C 	0.79569 0.62610 0.96264 0.60000
O 	O 	0.83219 0.62790 0.93862 -0.54900
O 	O 	0.79999 0.12467 0.50705 -0.41600
O 	O 	0.75514 0.12505 0.44466 -0.45800
C 	C 	0.79569 0.12610 0.46264 0.52400
O 	O 	0.83219 0.12790 0.43862 -0.54900
O 	O 	0.29999 0.62467 0.50705 -0.41100
O 	O 	0.25514 0.62505 0.44466 -0.45500
C 	C 	0.29569 0.62610 0.46264 0.52500
O 	O 	0.33219 0.62790 0.43862 -0.54800
O 	O 	0.29999 0.12467 0.00705 -0.48300
O 	O 	0.25514 0.12505 0.94466 -0.46200
C 	C 	0.29569 0.12610 0.96264 0.60000
O 	O 	0.33219 0.12790 0.93862 -0.55400
O 	O 	0.29999 0.12533 0.24295 -0.41800
O 	O 	0.25514 0.12495 0.30534 -0.46000
C 	C 	0.29569 0.12390 0.28736 0.52400
O 	O 	0.33219 0.12210 0.31138 -0.55200
O 	O 	0.29999 0.62533 0.74295 -0.41000
O 	O 	0.25514 0.62495 0.80534 -0.45400
C 	C 	0.29569 0.62390 0.78736 0.52500
O 	O 	0.33219 0.62210 0.81138 -0.54600
O 	O 	0.79999 0.12533 0.74295 -0.41500
O 	O 	0.75514 0.12495 0.80534 -0.45700
C 	C 	0.79569 0.12390 0.78736 0.52400
O 	O 	0.83219 0.12210 0.81138 -0.54800
O 	O 	0.79999 0.62533 0.24295 -0.41100
O 	O 	0.75514 0.62495 0.30534 -0.45400
C 	C 	0.79569 0.62390 0.28736 0.52500
O 	O 	0.83219 0.62210 0.31138 -0.54600
O 	O 	0.50705 0.95001 0.62533 -0.39400
O 	O 	0.44466 0.99486 0.62495 -0.41700
C 	C 	0.46264 0.95431 0.62390 0.52100
O 	O 	0.43862 0.91781 0.62210 -0.53900
O 	O 	0.50705 0.45001 0.12533 -0.41600
O 	O 	0.44466 0.49486 0.12495 -0.45800
C 	C 	0.46264 0.45431 0.12390 0.52400
O 	O 	0.43862 0.41781 0.12210 -0.55200
O 	O 	0.00705 0.95001 0.12533 -0.46600
O 	O 	0.94466 0.99486 0.12495 -0.42500
C 	C 	0.96264 0.95431 0.12390 0.59500
O 	O 	0.93862 0.91781 0.12210 -0.54600
O 	O 	0.00705 0.45001 0.62533 -0.47600
O 	O 	0.94466 0.49486 0.62495 -0.45600
C 	C 	0.96264 0.45431 0.62390 0.60100
O 	O 	0.93862 0.41781 0.62210 -0.55100
O 	O 	0.74295 0.45001 0.12467 -0.41600
O 	O 	0.80534 0.49486 0.12505 -0.45800
C 	C 	0.78736 0.45431 0.12610 0.52400
O 	O 	0.81138 0.41781 0.12790 -0.54900
O 	O 	0.74295 0.95001 0.62467 -0.39400
O 	O 	0.80534 0.99486 0.62505 -0.41700
C 	C 	0.78736 0.95431 0.62610 0.52100
O 	O 	0.81138 0.91781 0.62790 -0.53700
O 	O 	0.24295 0.45001 0.62467 -0.41100
O 	O 	0.30534 0.49486 0.62505 -0.45400
C 	C 	0.28736 0.45431 0.62610 0.52500
O 	O 	0.31138 0.41781 0.62790 -0.54800
O 	O 	0.24295 0.95001 0.12467 -0.40200
O 	O 	0.30534 0.99486 0.12505 -0.42300
C 	C 	0.28736 0.95431 0.12610 0.52000
O 	O 	0.31138 0.91781 0.12790 -0.54200
O 	O 	0.00705 0.79999 0.62467 -0.47600
O 	O 	0.94466 0.75514 0.62505 -0.45500
C 	C 	0.96264 0.79569 0.62610 0.60000
O 	O 	0.93862 0.83219 0.62790 -0.54900
O 	O 	0.00705 0.29999 0.12467 -0.48300
O 	O 	0.94466 0.25514 0.12505 -0.46200
C 	C 	0.96264 0.29569 0.12610 0.60000
O 	O 	0.93862 0.33219 0.12790 -0.55400
O 	O 	0.50705 0.79999 0.12467 -0.41600
O 	O 	0.44466 0.75514 0.12505 -0.45800
C 	C 	0.46264 0.79569 0.12610 0.52400
O 	O 	0.43862 0.83219 0.12790 -0.54900
O 	O 	0.50705 0.29999 0.62467 -0.41100
O 	O 	0.44466 0.25514 0.62505 -0.45500
C 	C 	0.46264 0.29569 0.62610 0.52500
O 	O 	0.43862 0.33219 0.62790 -0.54800
O 	O 	0.24295 0.29999 0.12533 -0.41800
O 	O 	0.30534 0.25514 0.12495 -0.46000
C 	C 	0.28736 0.29569 0.12390 0.52400
O 	O 	0.31138 0.33219 0.12210 -0.55200
O 	O 	0.24295 0.79999 0.62533 -0.41100
O 	O 	0.30534 0.75514 0.62495 -0.45400
C 	C 	0.28736 0.79569 0.62390 0.52500
O 	O 	0.31138 0.83219 0.62210 -0.54600
O 	O 	0.74295 0.29999 0.62533 -0.41000
O 	O 	0.80534 0.25514 0.62495 -0.45400
C 	C 	0.78736 0.29569 0.62390 0.52500
O 	O 	0.81138 0.33219 0.62210 -0.54600
O 	O 	0.74295 0.79999 0.12533 -0.41500
O 	O 	0.80534 0.75514 0.12495 -0.45700
C 	C 	0.78736 0.79569 0.12390 0.52400
O 	O 	0.81138 0.83219 0.12210 -0.54800
O 	O 	0.75705 0.37533 0.04999 -0.42300
O 	O 	0.69466 0.37495 0.00514 -0.48600
C 	C 	0.71264 0.37390 0.04569 0.52700
O 	O 	0.68862 0.37210 0.08219 -0.55600
O 	O 	0.75705 0.87533 0.54999 -0.40200
O 	O 	0.69466 0.87495 0.50514 -0.44700
C 	C 	0.71264 0.87390 0.54569 0.52400
O 	O 	0.68862 0.87210 0.58219 -0.54500
O 	O 	0.25705 0.37533 0.54999 -0.41000
O 	O 	0.19466 0.37495 0.50514 -0.45400
C 	C 	0.21264 0.37390 0.54569 0.52400
O 	O 	0.18862 0.37210 0.58219 -0.55000
O 	O 	0.25705 0.87533 0.04999 -0.41800
O 	O 	0.19466 0.87495 0.00514 -0.48200
C 	C 	0.21264 0.87390 0.04569 0.52800
O 	O 	0.18862 0.87210 0.08219 -0.55500
O 	O 	0.99295 0.87467 0.54999 -0.33500
O 	O 	0.05534 0.87505 0.50514 -0.44600
C 	C 	0.03736 0.87610 0.54569 0.44900
O 	O 	0.06138 0.87790 0.58219 -0.54000
O 	O 	0.99295 0.37467 0.04999 -0.35700
O 	O 	0.05534 0.37505 0.00514 -0.48400
C 	C 	0.03736 0.37610 0.04569 0.45200
O 	O 	0.06138 0.37790 0.08219 -0.55200
O 	O 	0.49295 0.87467 0.04999 -0.41800
O 	O 	0.55534 0.87505 0.00514 -0.48300
C 	C 	0.53736 0.87610 0.04569 0.52800
O 	O 	0.56138 0.87790 0.08219 -0.55200
O 	O 	0.49295 0.37467 0.54999 -0.40900
O 	O 	0.55534 0.37505 0.50514 -0.45300
C 	C 	0.53736 0.37610 0.54569 0.52400
O 	O 	0.56138 0.37790 0.58219 -0.54800
O 	O 	0.25705 0.37467 0.20001 -0.41000
O 	O 	0.19466 0.37505 0.24486 -0.45400
C 	C 	0.21264 0.37610 0.20431 0.52400
O 	O 	0.18862 0.37790 0.16781 -0.55200
O 	O 	0.25705 0.87467 0.70001 -0.40200
O 	O 	0.19466 0.87505 0.74486 -0.44800
C 	C 	0.21264 0.87610 0.70431 0.52500
O 	O 	0.18862 0.87790 0.66781 -0.54600
O 	O 	0.75705 0.37467 0.70001 -0.40700
O 	O 	0.69466 0.37505 0.74486 -0.45100
C 	C 	0.71264 0.37610 0.70431 0.52400
O 	O 	0.68862 0.37790 0.66781 -0.54800
O 	O 	0.75705 0.87467 0.20001 -0.40200
O 	O 	0.69466 0.87505 0.24486 -0.44800
C 	C 	0.71264 0.87610 0.20431 0.52500
O 	O 	0.68862 0.87790 0.16781 -0.54600
O 	O 	0.49295 0.87533 0.70001 -0.40200
O 	O 	0.55534 0.87495 0.74486 -0.44700
C 	C 	0.53736 0.87390 0.70431 0.52400
O 	O 	0.56138 0.87210 0.66781 -0.54500
O 	O 	0.49295 0.37533 0.20001 -0.41000
O 	O 	0.55534 0.37495 0.24486 -0.45400
C 	C 	0.53736 0.37390 0.20431 0.52400
O 	O 	0.56138 0.37210 0.16781 -0.55000
O 	O 	0.99295 0.87533 0.20001 -0.33600
O 	O 	0.05534 0.87495 0.24486 -0.44600
C 	C 	0.03736 0.87390 0.20431 0.44900
O 	O 	0.06138 0.87210 0.16781 -0.54200
O 	O 	0.99295 0.37533 0.70001 -0.34000
O 	O 	0.05534 0.37495 0.74486 -0.44900
C 	C 	0.03736 0.37390 0.70431 0.44700
O 	O 	0.06138 0.37210 0.66781 -0.54300
O 	O 	0.87533 0.70001 0.49295 -0.40200
O 	O 	0.87495 0.74486 0.55534 -0.44700
C 	C 	0.87390 0.70431 0.53736 0.52400
O 	O 	0.87210 0.66781 0.56138 -0.54500
O 	O 	0.87533 0.20001 0.99295 -0.33600
O 	O 	0.87495 0.24486 0.05534 -0.44600
C 	C 	0.87390 0.20431 0.03736 0.44900
O 	O 	0.87210 0.16781 0.06138 -0.54200
O 	O 	0.37533 0.70001 0.99295 -0.34000
O 	O 	0.37495 0.74486 0.05534 -0.44900
C 	C 	0.37390 0.70431 0.03736 0.44700
O 	O 	0.37210 0.66781 0.06138 -0.54300
O 	O 	0.37533 0.20001 0.49295 -0.41000
O 	O 	0.37495 0.24486 0.55534 -0.45400
C 	C 	0.37390 0.20431 0.53736 0.52400
O 	O 	0.37210 0.16781 0.56138 -0.55000
O 	O 	0.37467 0.20001 0.25705 -0.41000
O 	O 	0.37505 0.24486 0.19466 -0.45400
C 	C 	0.37610 0.20431 0.21264 0.52400
O 	O 	0.37790 0.16781 0.18862 -0.55200
O 	O 	0.37467 0.70001 0.75705 -0.40700
O 	O 	0.37505 0.74486 0.69466 -0.45100
C 	C 	0.37610 0.70431 0.71264 0.52400
O 	O 	0.37790 0.66781 0.68862 -0.54800
O 	O 	0.87467 0.20001 0.75705 -0.40200
O 	O 	0.87505 0.24486 0.69466 -0.44800
C 	C 	0.87610 0.20431 0.71264 0.52500
O 	O 	0.87790 0.16781 0.68862 -0.54600
O 	O 	0.87467 0.70001 0.25705 -0.40200
O 	O 	0.87505 0.74486 0.19466 -0.44800
C 	C 	0.87610 0.70431 0.21264 0.52500
O 	O 	0.87790 0.66781 0.18862 -0.54600
O 	O 	0.87467 0.54999 0.99295 -0.33500
O 	O 	0.87505 0.50514 0.05534 -0.44600
C 	C 	0.87610 0.54569 0.03736 0.44900
O 	O 	0.87790 0.58219 0.06138 -0.54000
O 	O 	0.87467 0.04999 0.49295 -0.41800
O 	O 	0.87505 0.00514 0.55534 -0.48300
C 	C 	0.87610 0.04569 0.53736 0.52800
O 	O 	0.87790 0.08219 0.56138 -0.55200
O 	O 	0.37467 0.54999 0.49295 -0.40900
O 	O 	0.37505 0.50514 0.55534 -0.45300
C 	C 	0.37610 0.54569 0.53736 0.52400
O 	O 	0.37790 0.58219 0.56138 -0.54800
O 	O 	0.37467 0.04999 0.99295 -0.35700
O 	O 	0.37505 0.00514 0.05534 -0.48400
C 	C 	0.37610 0.04569 0.03736 0.45200
O 	O 	0.37790 0.08219 0.06138 -0.55200
O 	O 	0.37533 0.04999 0.75705 -0.42300
O 	O 	0.37495 0.00514 0.69466 -0.48600
C 	C 	0.37390 0.04569 0.71264 0.52700
O 	O 	0.37210 0.08219 0.68862 -0.55600
O 	O 	0.37533 0.54999 0.25705 -0.41000
O 	O 	0.37495 0.50514 0.19466 -0.45400
C 	C 	0.37390 0.54569 0.21264 0.52400
O 	O 	0.37210 0.58219 0.18862 -0.55000
O 	O 	0.87533 0.04999 0.25705 -0.41800
O 	O 	0.87495 0.00514 0.19466 -0.48200
C 	C 	0.87390 0.04569 0.21264 0.52800
O 	O 	0.87210 0.08219 0.18862 -0.55500
O 	O 	0.87533 0.54999 0.75705 -0.40200
O 	O 	0.87495 0.50514 0.69466 -0.44700
C 	C 	0.87390 0.54569 0.71264 0.52400
O 	O 	0.87210 0.58219 0.68862 -0.54500
O 	O 	0.20001 0.25705 0.37467 -0.41000
O 	O 	0.24486 0.19466 0.37505 -0.45400
C 	C 	0.20431 0.21264 0.37610 0.52400
O 	O 	0.16781 0.18862 0.37790 -0.55200
O 	O 	0.20001 0.75705 0.87467 -0.40200
O 	O 	0.24486 0.69466 0.87505 -0.44800
C 	C 	0.20431 0.71264 0.87610 0.52500
O 	O 	0.16781 0.68862 0.87790 -0.54600
O 	O 	0.70001 0.25705 0.87467 -0.40200
O 	O 	0.74486 0.19466 0.87505 -0.44800
C 	C 	0.70431 0.21264 0.87610 0.52500
O 	O 	0.66781 0.18862 0.87790 -0.54600
O 	O 	0.70001 0.75705 0.37467 -0.40700
O 	O 	0.74486 0.69466 0.37505 -0.45100
C 	C 	0.70431 0.71264 0.37610 0.52400
O 	O 	0.66781 0.68862 0.37790 -0.54800
O 	O 	0.70001 0.49295 0.87533 -0.40200
O 	O 	0.74486 0.55534 0.87495 -0.44700
C 	C 	0.70431 0.53736 0.87390 0.52400
O 	O 	0.66781 0.56138 0.87210 -0.54500
O 	O 	0.70001 0.99295 0.37533 -0.34000
O 	O 	0.74486 0.05534 0.37495 -0.44900
C 	C 	0.70431 0.03736 0.37390 0.44700
O 	O 	0.66781 0.06138 0.37210 -0.54300
O 	O 	0.20001 0.49295 0.37533 -0.41000
O 	O 	0.24486 0.55534 0.37495 -0.45400
C 	C 	0.20431 0.53736 0.37390 0.52400
O 	O 	0.16781 0.56138 0.37210 -0.55000
O 	O 	0.20001 0.99295 0.87533 -0.33600
O 	O 	0.24486 0.05534 0.87495 -0.44600
C 	C 	0.20431 0.03736 0.87390 0.44900
O 	O 	0.16781 0.06138 0.87210 -0.54200
O 	O 	0.04999 0.75705 0.37533 -0.42300
O 	O 	0.00514 0.69466 0.37495 -0.48600
C 	C 	0.04569 0.71264 0.37390 0.52700
O 	O 	0.08219 0.68862 0.37210 -0.55600
O 	O 	0.04999 0.25705 0.87533 -0.41800
O 	O 	0.00514 0.19466 0.87495 -0.48200
C 	C 	0.04569 0.21264 0.87390 0.52800
O 	O 	0.08219 0.18862 0.87210 -0.55500
O 	O 	0.54999 0.75705 0.87533 -0.40200
O 	O 	0.50514 0.69466 0.87495 -0.44700
C 	C 	0.54569 0.71264 0.87390 0.52400
O 	O 	0.58219 0.68862 0.87210 -0.54500
O 	O 	0.54999 0.25705 0.37533 -0.41000
O 	O 	0.50514 0.19466 0.37495 -0.45400
C 	C 	0.54569 0.21264 0.37390 0.52400
O 	O 	0.58219 0.18862 0.37210 -0.55000
O 	O 	0.54999 0.99295 0.87467 -0.33500
O 	O 	0.50514 0.05534 0.87505 -0.44600
C 	C 	0.54569 0.03736 0.87610 0.44900
O 	O 	0.58219 0.06138 0.87790 -0.54000
O 	O 	0.54999 0.49295 0.37467 -0.40900
O 	O 	0.50514 0.55534 0.37505 -0.45300
C 	C 	0.54569 0.53736 0.37610 0.52400
O 	O 	0.58219 0.56138 0.37790 -0.54800
O 	O 	0.04999 0.99295 0.37467 -0.35700
O 	O 	0.00514 0.05534 0.37505 -0.48400
C 	C 	0.04569 0.03736 0.37610 0.45200
O 	O 	0.08219 0.06138 0.37790 -0.55200
O 	O 	0.04999 0.49295 0.87467 -0.41800
O 	O 	0.00514 0.55534 0.87505 -0.48300
C 	C 	0.04569 0.53736 0.87610 0.52800
O 	O 	0.08219 0.56138 0.87790 -0.55200
Mg	Mg	0.37412 0.50000 0.12412 1.47400
Mg	Mg	0.37412 -0.00000 0.62412 1.46800
Mg	Mg	0.87412 0.50000 0.62412 1.47500
Mg	Mg	0.87412 -0.00000 0.12412 1.46900
Mg	Mg	0.87588 0.25000 0.62412 1.47400
Mg	Mg	0.87588 0.75000 0.12412 1.47400
Mg	Mg	0.37588 0.25000 0.12412 1.47400
Mg	Mg	0.37588 0.75000 0.62412 1.47400
Mg	Mg	0.37588 0.00000 0.12588 1.46800
Mg	Mg	0.37588 0.50000 0.62588 1.47400
Mg	Mg	0.87588 -0.00000 0.62588 1.46900
Mg	Mg	0.87588 0.50000 0.12588 1.47400
Mg	Mg	0.87412 0.75000 0.62588 1.47500
Mg	Mg	0.87412 0.25000 0.12588 1.47400
Mg	Mg	0.37412 0.75000 0.12588 1.47400
Mg	Mg	0.37412 0.25000 0.62588 1.47400
Mg	Mg	0.12412 0.37412 0.50000 1.47400
Mg	Mg	0.12412 0.87412 -0.00000 1.46900
Mg	Mg	0.62412 0.37412 -0.00000 1.46800
Mg	Mg	0.62412 0.87412 0.50000 1.47500
Mg	Mg	0.62412 0.87588 0.25000 1.47400
Mg	Mg	0.62412 0.37588 0.75000 1.47400
Mg	Mg	0.12412 0.87588 0.75000 1.47400
Mg	Mg	0.12412 0.37588 0.25000 1.47400
Mg	Mg	0.12588 0.37588 -0.00000 1.46800
Mg	Mg	0.12588 0.87588 0.50000 1.47400
Mg	Mg	0.62588 0.37588 0.50000 1.47400
Mg	Mg	0.62588 0.87588 -0.00000 1.46900
Mg	Mg	0.62588 0.87412 0.75000 1.47500
Mg	Mg	0.62588 0.37412 0.25000 1.47400
Mg	Mg	0.12588 0.87412 0.25000 1.47400
Mg	Mg	0.12588 0.37412 0.75000 1.47400
Mg	Mg	0.50000 0.12412 0.37412 1.47400
Mg	Mg	0.50000 0.62412 0.87412 1.47500
Mg	Mg	-0.00000 0.12412 0.87412 1.46900
Mg	Mg	-0.00000 0.62412 0.37412 1.46800
Mg	Mg	0.25000 0.62412 0.87588 1.47400
Mg	Mg	0.25000 0.12412 0.37588 1.47400
Mg	Mg	0.75000 0.62412 0.37588 1.47400
Mg	Mg	0.75000 0.12412 0.87588 1.47400
Mg	Mg	-0.00000 0.12588 0.37588 1.46800
Mg	Mg	0.00000 0.62588 0.87588 1.46900
Mg	Mg	0.50000 0.12588 0.87588 1.47400
Mg	Mg	0.50000 0.62588 0.37588 1.47400
Mg	Mg	0.75000 0.62588 0.87412 1.47500
Mg	Mg	0.75000 0.12588 0.37412 1.47400
Mg	Mg	0.25000 0.62588 0.37412 1.47400
Mg	Mg	0.25000 0.12588 0.87412 1.47400
Mg	Mg	0.62588 0.50000 0.87588 1.47400
Mg	Mg	0.62588 -0.00000 0.37588 1.46800
Mg	Mg	0.12588 0.50000 0.37588 1.47400
Mg	Mg	0.12588 0.00000 0.87588 1.46800
Mg	Mg	0.12412 0.75000 0.37588 1.47400
Mg	Mg	0.12412 0.25000 0.87588 1.47400
Mg	Mg	0.62412 0.75000 0.87588 1.47400
Mg	Mg	0.62412 0.25000 0.37588 1.47400
Mg	Mg	0.62412 0.00000 0.87412 1.46900
Mg	Mg	0.62412 0.50000 0.37412 1.47400
Mg	Mg	0.12412 0.00000 0.37412 1.46800
Mg	Mg	0.12412 0.50000 0.87412 1.47400
Mg	Mg	0.12588 0.25000 0.37412 1.47400
Mg	Mg	0.12588 0.75000 0.87412 1.47400
Mg	Mg	0.62588 0.25000 0.87412 1.47500
Mg	Mg	0.62588 0.75000 0.37412 1.47400
Mg	Mg	0.87588 0.62588 0.50000 1.47400
Mg	Mg	0.87588 0.12588 -0.00000 1.46800
Mg	Mg	0.37588 0.62588 -0.00000 1.46800
Mg	Mg	0.37588 0.12588 0.50000 1.47400
Mg	Mg	0.37588 0.12412 0.75000 1.47400
Mg	Mg	0.37588 0.62412 0.25000 1.47400
Mg	Mg	0.87588 0.12412 0.25000 1.47400
Mg	Mg	0.87588 0.62412 0.75000 1.47400
Mg	Mg	0.87412 0.62412 -0.00000 1.46900
Mg	Mg	0.87412 0.12412 0.50000 1.47400
Mg	Mg	0.37412 0.62412 0.50000 1.47400
Mg	Mg	0.37412 0.12412 -0.00000 1.46800
Mg	Mg	0.37412 0.12588 0.25000 1.47400
Mg	Mg	0.37412 0.62588 0.75000 1.47400
Mg	Mg	0.87412 0.12588 0.75000 1.47400
Mg	Mg	0.87412 0.62588 0.25000 1.47500
Mg	Mg	0.50000 0.87588 0.62588 1.47400
Mg	Mg	0.50000 0.37588 0.12588 1.47400
Mg	Mg	-0.00000 0.87588 0.12588 1.46800
Mg	Mg	-0.00000 0.37588 0.62588 1.46800
Mg	Mg	0.75000 0.37588 0.12412 1.47400
Mg	Mg	0.75000 0.87588 0.62412 1.47400
Mg	Mg	0.25000 0.37588 0.62412 1.47400
Mg	Mg	0.25000 0.87588 0.12412 1.47400
Mg	Mg	-0.00000 0.87412 0.62412 1.46900
Mg	Mg	-0.00000 0.37412 0.12412 1.46800
Mg	Mg	0.50000 0.87412 0.12412 1.47400
Mg	Mg	0.50000 0.37412 0.62412 1.47400
Mg	Mg	0.25000 0.37412 0.12588 1.47400
Mg	Mg	0.25000 0.87412 0.62588 1.47500
Mg	Mg	0.75000 0.37412 0.62588 1.47400
Mg	Mg	0.75000 0.87412 0.12588 1.47400
Na	Na	0.37500 0.62500 0.12500 0.59600
Na	Na	0.87500 0.12500 0.62500 0.59600
Na	Na	0.37500 0.12500 0.12500 0.59400
Na	Na	0.37500 0.62500 0.62500 0.59700
Na	Na	0.87500 0.62500 0.62500 0.59700
Na	Na	0.87500 0.12500 0.12500 0.59500
Na	Na	0.12500 0.37500 0.62500 0.59600
Na	Na	0.12500 0.87500 0.12500 0.59500
Na	Na	0.62500 0.87500 0.12500 0.59600
Na	Na	0.62500 0.37500 0.62500 0.59700
Na	Na	0.12500 0.37500 0.12500 0.59400
Na	Na	0.62500 0.87500 0.62500 0.59700
Na	Na	0.62500 0.12500 0.37500 0.59600
Na	Na	0.12500 0.62500 0.87500 0.59600
Na	Na	0.12500 0.12500 0.37500 0.59400
Na	Na	0.62500 0.62500 0.87500 0.59700
Na	Na	0.37500 0.62500 0.87500 0.59800
Na	Na	0.87500 0.12500 0.37500 0.59700
Na	Na	0.87500 0.62500 0.87500 0.59900
Na	Na	0.37500 0.12500 0.37500 0.59600
Na	Na	0.12500 0.37500 0.37500 0.59600
Na	Na	0.12500 0.87500 0.87500 0.59800
Na	Na	0.62500 0.87500 0.87500 0.59900
Na	Na	0.62500 0.37500 0.37500 0.59700
Na	Na	0.12500 0.37500 0.87500 0.59700
Na	Na	0.62500 0.87500 0.37500 0.59800
Na	Na	0.87500 0.87500 0.62500 0.59900
Na	Na	0.37500 0.37500 0.12500 0.59600
Na	Na	0.87500 0.37500 0.62500 0.59800
Na	Na	0.87500 0.87500 0.12500 0.59800
Na	Na	0.37500 0.87500 0.12500 0.59700
Na	Na	0.37500 0.37500 0.62500 0.59700
Na	Na	0.62500 0.37500 0.87500 0.59800
Na	Na	0.12500 0.87500 0.37500 0.59700
Na	Na	0.87500 0.62500 0.37500 0.59800
Na	Na	0.87500 0.12500 0.87500 0.59800
Na	Na	0.37500 0.12500 0.87500 0.59700
Na	Na	0.37500 0.62500 0.37500 0.59700
Na	Na	0.37500 0.87500 0.62500 0.59800
Na	Na	0.87500 0.37500 0.12500 0.59700
Na	Na	0.62500 0.37500 0.12500 0.59600
Na	Na	0.12500 0.87500 0.62500 0.59600
Na	Na	0.87500 0.62500 0.12500 0.59600
Na	Na	0.37500 0.12500 0.62500 0.59600
Na	Na	0.12500 0.62500 0.37500 0.59600
Na	Na	0.12500 0.12500 0.87500 0.59500
Na	Na	0.62500 0.12500 0.87500 0.59600
Na	Na	0.62500 0.62500 0.37500 0.59700
