data_crystal

_cell_length_a 29.01910
_cell_length_b 29.01910
_cell_length_c 29.01910
_cell_angle_alpha 90.00000
_cell_angle_beta  90.00000
_cell_angle_gamma 90.00000

_symmetry_space_group_name_	'P 1'
_symmetry_space_group_name_H-M	'P 1'

loop_
_symmetry_equiv_pos_as_xyz
  x,y,z

loop_
_atom_site_label
_atom_site_type_symbol
_atom_site_fract_x
_atom_site_fract_y
_atom_site_fract_z
_atom_site_charge
O 	O 	0.74280 0.62581 0.79786 -0.35800
C 	C 	0.78715 0.62475 0.79251 0.49400
O 	O 	0.80460 0.62433 0.75177 -0.39300
O 	O 	0.81155 0.62423 0.82890 -0.48400
O 	O 	0.74280 0.12581 0.29786 -0.36400
C 	C 	0.78715 0.12475 0.29251 0.49300
O 	O 	0.80460 0.12433 0.25177 -0.39800
O 	O 	0.81155 0.12423 0.32890 -0.48800
O 	O 	0.24280 0.62581 0.29786 -0.36100
C 	C 	0.28715 0.62475 0.29251 0.49400
O 	O 	0.30460 0.62433 0.25177 -0.39500
O 	O 	0.31155 0.62423 0.32890 -0.48700
O 	O 	0.24280 0.12581 0.79786 -0.36600
C 	C 	0.28715 0.12475 0.79251 0.49200
O 	O 	0.30460 0.12433 0.75177 -0.39800
O 	O 	0.31155 0.12423 0.82890 -0.48900
O 	O 	0.50720 0.12419 0.29786 -0.36600
C 	C 	0.46285 0.12525 0.29251 0.49200
O 	O 	0.44540 0.12567 0.25177 -0.39900
O 	O 	0.43845 0.12577 0.32890 -0.49000
O 	O 	0.50720 0.62419 0.79786 -0.36000
C 	C 	0.46285 0.62525 0.79251 0.49300
O 	O 	0.44540 0.62567 0.75177 -0.39400
O 	O 	0.43845 0.62577 0.82890 -0.48600
O 	O 	0.00720 0.12419 0.79786 -0.41400
C 	C 	0.96285 0.12525 0.79251 0.55100
O 	O 	0.94540 0.12567 0.75177 -0.40000
O 	O 	0.93845 0.12577 0.82890 -0.48700
O 	O 	0.00720 0.62419 0.29786 -0.41000
C 	C 	0.96285 0.62525 0.29251 0.55200
O 	O 	0.94540 0.62567 0.25177 -0.39700
O 	O 	0.93845 0.62577 0.32890 -0.48600
O 	O 	0.00720 0.12581 0.45214 -0.41400
C 	C 	0.96285 0.12475 0.45749 0.55100
O 	O 	0.94540 0.12433 0.49823 -0.40000
O 	O 	0.93845 0.12423 0.42110 -0.48900
O 	O 	0.00720 0.62581 0.95214 -0.39700
C 	C 	0.96285 0.62475 0.95749 0.54800
O 	O 	0.94540 0.62433 0.99823 -0.36400
O 	O 	0.93845 0.62423 0.92110 -0.47800
O 	O 	0.50720 0.12581 0.95214 -0.35300
C 	C 	0.46285 0.12475 0.95749 0.48900
O 	O 	0.44540 0.12433 0.99823 -0.36600
O 	O 	0.43845 0.12423 0.92110 -0.48200
O 	O 	0.50720 0.62581 0.45214 -0.36000
C 	C 	0.46285 0.62475 0.45749 0.49300
O 	O 	0.44540 0.62433 0.49823 -0.39500
O 	O 	0.43845 0.62423 0.42110 -0.48800
O 	O 	0.24280 0.62419 0.95214 -0.34900
C 	C 	0.28715 0.62525 0.95749 0.49000
O 	O 	0.30460 0.62567 0.99823 -0.36300
O 	O 	0.31155 0.62577 0.92110 -0.47900
O 	O 	0.24280 0.12419 0.45214 -0.36600
C 	C 	0.28715 0.12525 0.45749 0.49200
O 	O 	0.30460 0.12567 0.49823 -0.39900
O 	O 	0.31155 0.12577 0.42110 -0.49000
O 	O 	0.74280 0.62419 0.45214 -0.35900
C 	C 	0.78715 0.62525 0.45749 0.49300
O 	O 	0.80460 0.62567 0.49823 -0.39400
O 	O 	0.81155 0.62577 0.42110 -0.48600
O 	O 	0.74280 0.12419 0.95214 -0.35200
C 	C 	0.78715 0.12525 0.95749 0.48900
O 	O 	0.80460 0.12567 0.99823 -0.36600
O 	O 	0.81155 0.12577 0.92110 -0.48000
O 	O 	0.79786 0.74280 0.62581 -0.35900
C 	C 	0.79251 0.78715 0.62475 0.49300
O 	O 	0.75177 0.80460 0.62433 -0.39400
O 	O 	0.82890 0.81155 0.62423 -0.48500
O 	O 	0.79786 0.24280 0.12581 -0.36600
C 	C 	0.79251 0.28715 0.12475 0.49200
O 	O 	0.75177 0.30460 0.12433 -0.39800
O 	O 	0.82890 0.31155 0.12423 -0.48900
O 	O 	0.29786 0.74280 0.12581 -0.36500
C 	C 	0.29251 0.78715 0.12475 0.49200
O 	O 	0.25177 0.80460 0.12433 -0.39900
O 	O 	0.32890 0.81155 0.12423 -0.48900
O 	O 	0.29786 0.24280 0.62581 -0.36200
C 	C 	0.29251 0.28715 0.62475 0.49300
O 	O 	0.25177 0.30460 0.62433 -0.39600
O 	O 	0.32890 0.31155 0.62423 -0.48800
O 	O 	0.29786 0.50720 0.12419 -0.36600
C 	C 	0.29251 0.46285 0.12525 0.49200
O 	O 	0.25177 0.44540 0.12567 -0.39900
O 	O 	0.32890 0.43845 0.12577 -0.49000
O 	O 	0.29786 0.00720 0.62419 -0.41000
C 	C 	0.29251 0.96285 0.62525 0.55200
O 	O 	0.25177 0.94540 0.62567 -0.39700
O 	O 	0.32890 0.93845 0.62577 -0.48600
O 	O 	0.79786 0.50720 0.62419 -0.36000
C 	C 	0.79251 0.46285 0.62525 0.49300
O 	O 	0.75177 0.44540 0.62567 -0.39400
O 	O 	0.82890 0.43845 0.62577 -0.48600
O 	O 	0.79786 0.00720 0.12419 -0.41400
C 	C 	0.79251 0.96285 0.12525 0.55100
O 	O 	0.75177 0.94540 0.12567 -0.40000
O 	O 	0.82890 0.93845 0.12577 -0.48700
O 	O 	0.45214 0.00720 0.12581 -0.41400
C 	C 	0.45749 0.96285 0.12475 0.55100
O 	O 	0.49823 0.94540 0.12433 -0.40000
O 	O 	0.42110 0.93845 0.12423 -0.48900
O 	O 	0.45214 0.50720 0.62581 -0.36000
C 	C 	0.45749 0.46285 0.62475 0.49300
O 	O 	0.49823 0.44540 0.62433 -0.39500
O 	O 	0.42110 0.43845 0.62423 -0.48800
O 	O 	0.95214 0.00720 0.62581 -0.39700
C 	C 	0.95749 0.96285 0.62475 0.54800
O 	O 	0.99823 0.94540 0.62433 -0.36400
O 	O 	0.92110 0.93845 0.62423 -0.47800
O 	O 	0.95214 0.50720 0.12581 -0.35300
C 	C 	0.95749 0.46285 0.12475 0.48900
O 	O 	0.99823 0.44540 0.12433 -0.36600
O 	O 	0.92110 0.43845 0.12423 -0.48200
O 	O 	0.95214 0.24280 0.62419 -0.34900
C 	C 	0.95749 0.28715 0.62525 0.49000
O 	O 	0.99823 0.30460 0.62567 -0.36300
O 	O 	0.92110 0.31155 0.62577 -0.47900
O 	O 	0.95214 0.74280 0.12419 -0.35200
C 	C 	0.95749 0.78715 0.12525 0.48900
O 	O 	0.99823 0.80460 0.12567 -0.36600
O 	O 	0.92110 0.81155 0.12577 -0.48000
O 	O 	0.45214 0.24280 0.12419 -0.36600
C 	C 	0.45749 0.28715 0.12525 0.49200
O 	O 	0.49823 0.30460 0.12567 -0.39900
O 	O 	0.42110 0.31155 0.12577 -0.49000
O 	O 	0.45214 0.74280 0.62419 -0.35900
C 	C 	0.45749 0.78715 0.62525 0.49300
O 	O 	0.49823 0.80460 0.62567 -0.39400
O 	O 	0.42110 0.81155 0.62577 -0.48600
O 	O 	0.62581 0.79786 0.74280 -0.35900
C 	C 	0.62475 0.79251 0.78715 0.49300
O 	O 	0.62433 0.75177 0.80460 -0.39400
O 	O 	0.62423 0.82890 0.81155 -0.48500
O 	O 	0.62581 0.29786 0.24280 -0.36200
C 	C 	0.62475 0.29251 0.28715 0.49300
O 	O 	0.62433 0.25177 0.30460 -0.39600
O 	O 	0.62423 0.32890 0.31155 -0.48800
O 	O 	0.12581 0.79786 0.24280 -0.36600
C 	C 	0.12475 0.79251 0.28715 0.49200
O 	O 	0.12433 0.75177 0.30460 -0.39800
O 	O 	0.12423 0.82890 0.31155 -0.48900
O 	O 	0.12581 0.29786 0.74280 -0.36500
C 	C 	0.12475 0.29251 0.78715 0.49200
O 	O 	0.12433 0.25177 0.80460 -0.39900
O 	O 	0.12423 0.32890 0.81155 -0.48900
O 	O 	0.12419 0.29786 0.50720 -0.36600
C 	C 	0.12525 0.29251 0.46285 0.49200
O 	O 	0.12567 0.25177 0.44540 -0.39900
O 	O 	0.12577 0.32890 0.43845 -0.49000
O 	O 	0.12419 0.79786 0.00720 -0.41400
C 	C 	0.12525 0.79251 0.96285 0.55100
O 	O 	0.12567 0.75177 0.94540 -0.40000
O 	O 	0.12577 0.82890 0.93845 -0.48700
O 	O 	0.62419 0.29786 0.00720 -0.41000
C 	C 	0.62525 0.29251 0.96285 0.55200
O 	O 	0.62567 0.25177 0.94540 -0.39700
O 	O 	0.62577 0.32890 0.93845 -0.48600
O 	O 	0.62419 0.79786 0.50720 -0.36000
C 	C 	0.62525 0.79251 0.46285 0.49300
O 	O 	0.62567 0.75177 0.44540 -0.39400
O 	O 	0.62577 0.82890 0.43845 -0.48600
O 	O 	0.12581 0.45214 0.00720 -0.41400
C 	C 	0.12475 0.45749 0.96285 0.55100
O 	O 	0.12433 0.49823 0.94540 -0.40000
O 	O 	0.12423 0.42110 0.93845 -0.48900
O 	O 	0.12581 0.95214 0.50720 -0.35300
C 	C 	0.12475 0.95749 0.46285 0.48900
O 	O 	0.12433 0.99823 0.44540 -0.36600
O 	O 	0.12423 0.92110 0.43845 -0.48200
O 	O 	0.62581 0.45214 0.50720 -0.36000
C 	C 	0.62475 0.45749 0.46285 0.49300
O 	O 	0.62433 0.49823 0.44540 -0.39500
O 	O 	0.62423 0.42110 0.43845 -0.48800
O 	O 	0.62581 0.95214 0.00720 -0.39700
C 	C 	0.62475 0.95749 0.96285 0.54800
O 	O 	0.62433 0.99823 0.94540 -0.36400
O 	O 	0.62423 0.92110 0.93845 -0.47800
O 	O 	0.62419 0.95214 0.24280 -0.34900
C 	C 	0.62525 0.95749 0.28715 0.49000
O 	O 	0.62567 0.99823 0.30460 -0.36300
O 	O 	0.62577 0.92110 0.31155 -0.47900
O 	O 	0.62419 0.45214 0.74280 -0.35900
C 	C 	0.62525 0.45749 0.78715 0.49300
O 	O 	0.62567 0.49823 0.80460 -0.39400
O 	O 	0.62577 0.42110 0.81155 -0.48600
O 	O 	0.12419 0.95214 0.74280 -0.35200
C 	C 	0.12525 0.95749 0.78715 0.48900
O 	O 	0.12567 0.99823 0.80460 -0.36600
O 	O 	0.12577 0.92110 0.81155 -0.48000
O 	O 	0.12419 0.45214 0.24280 -0.36600
C 	C 	0.12525 0.45749 0.28715 0.49200
O 	O 	0.12567 0.49823 0.30460 -0.39900
O 	O 	0.12577 0.42110 0.31155 -0.49000
O 	O 	0.37581 0.99280 0.20214 -0.30300
C 	C 	0.37475 0.03715 0.20749 0.43300
O 	O 	0.37433 0.05460 0.24823 -0.39300
O 	O 	0.37423 0.06155 0.17110 -0.48300
O 	O 	0.37581 0.49280 0.70214 -0.35900
C 	C 	0.37475 0.53715 0.70749 0.49200
O 	O 	0.37433 0.55460 0.74823 -0.39300
O 	O 	0.37423 0.56155 0.67110 -0.48800
O 	O 	0.87581 0.99280 0.70214 -0.29800
C 	C 	0.87475 0.03715 0.70749 0.43300
O 	O 	0.87433 0.05460 0.74823 -0.38800
O 	O 	0.87423 0.06155 0.67110 -0.47900
O 	O 	0.87581 0.49280 0.20214 -0.35500
C 	C 	0.87475 0.53715 0.20749 0.49300
O 	O 	0.87433 0.55460 0.24823 -0.39100
O 	O 	0.87423 0.56155 0.17110 -0.48700
O 	O 	0.87419 0.75720 0.70214 -0.35200
C 	C 	0.87525 0.71285 0.70749 0.49300
O 	O 	0.87567 0.69540 0.74823 -0.38900
O 	O 	0.87577 0.68845 0.67110 -0.48500
O 	O 	0.87419 0.25720 0.20214 -0.35500
C 	C 	0.87525 0.21285 0.20749 0.49300
O 	O 	0.87567 0.19540 0.24823 -0.39100
O 	O 	0.87577 0.18845 0.17110 -0.48800
O 	O 	0.37419 0.75720 0.20214 -0.35800
C 	C 	0.37525 0.71285 0.20749 0.49200
O 	O 	0.37567 0.69540 0.24823 -0.39400
O 	O 	0.37577 0.68845 0.17110 -0.48900
O 	O 	0.37419 0.25720 0.70214 -0.35900
C 	C 	0.37525 0.21285 0.70749 0.49200
O 	O 	0.37567 0.19540 0.74823 -0.39400
O 	O 	0.37577 0.18845 0.67110 -0.48900
O 	O 	0.87581 0.25720 0.54786 -0.35500
C 	C 	0.87475 0.21285 0.54251 0.49300
O 	O 	0.87433 0.19540 0.50177 -0.39100
O 	O 	0.87423 0.18845 0.57890 -0.48700
O 	O 	0.87581 0.75720 0.04786 -0.36500
C 	C 	0.87475 0.71285 0.04251 0.49400
O 	O 	0.87433 0.69540 0.00177 -0.41400
O 	O 	0.87423 0.68845 0.07890 -0.49100
O 	O 	0.37581 0.25720 0.04786 -0.37200
C 	C 	0.37475 0.21285 0.04251 0.49400
O 	O 	0.37433 0.19540 0.00177 -0.41800
O 	O 	0.37423 0.18845 0.07890 -0.49500
O 	O 	0.37581 0.75720 0.54786 -0.35800
C 	C 	0.37475 0.71285 0.54251 0.49200
O 	O 	0.37433 0.69540 0.50177 -0.39400
O 	O 	0.37423 0.68845 0.57890 -0.48800
O 	O 	0.37419 0.49280 0.04786 -0.37100
C 	C 	0.37525 0.53715 0.04251 0.49400
O 	O 	0.37567 0.55460 0.00177 -0.41800
O 	O 	0.37577 0.56155 0.07890 -0.49300
O 	O 	0.37419 0.99280 0.54786 -0.30300
C 	C 	0.37525 0.03715 0.54251 0.43300
O 	O 	0.37567 0.05460 0.50177 -0.39300
O 	O 	0.37577 0.06155 0.57890 -0.48200
O 	O 	0.87419 0.49280 0.54786 -0.35500
C 	C 	0.87525 0.53715 0.54251 0.49300
O 	O 	0.87567 0.55460 0.50177 -0.39100
O 	O 	0.87577 0.56155 0.57890 -0.48500
O 	O 	0.87419 0.99280 0.04786 -0.31100
C 	C 	0.87525 0.03715 0.04251 0.43600
O 	O 	0.87567 0.05460 0.00177 -0.41300
O 	O 	0.87577 0.06155 0.07890 -0.48500
O 	O 	0.49280 0.04786 0.37419 -0.37100
C 	C 	0.53715 0.04251 0.37525 0.49400
O 	O 	0.55460 0.00177 0.37567 -0.41800
O 	O 	0.56155 0.07890 0.37577 -0.49300
O 	O 	0.49280 0.54786 0.87419 -0.35500
C 	C 	0.53715 0.54251 0.87525 0.49300
O 	O 	0.55460 0.50177 0.87567 -0.39100
O 	O 	0.56155 0.57890 0.87577 -0.48500
O 	O 	0.99280 0.04786 0.87419 -0.31100
C 	C 	0.03715 0.04251 0.87525 0.43600
O 	O 	0.05460 0.00177 0.87567 -0.41300
O 	O 	0.06155 0.07890 0.87577 -0.48500
O 	O 	0.99280 0.54786 0.37419 -0.30300
C 	C 	0.03715 0.54251 0.37525 0.43300
O 	O 	0.05460 0.50177 0.37567 -0.39300
O 	O 	0.06155 0.57890 0.37577 -0.48200
O 	O 	0.25720 0.54786 0.87581 -0.35500
C 	C 	0.21285 0.54251 0.87475 0.49300
O 	O 	0.19540 0.50177 0.87433 -0.39100
O 	O 	0.18845 0.57890 0.87423 -0.48700
O 	O 	0.25720 0.04786 0.37581 -0.37200
C 	C 	0.21285 0.04251 0.37475 0.49400
O 	O 	0.19540 0.00177 0.37433 -0.41800
O 	O 	0.18845 0.07890 0.37423 -0.49500
O 	O 	0.75720 0.54786 0.37581 -0.35800
C 	C 	0.71285 0.54251 0.37475 0.49200
O 	O 	0.69540 0.50177 0.37433 -0.39400
O 	O 	0.68845 0.57890 0.37423 -0.48800
O 	O 	0.75720 0.04786 0.87581 -0.36500
C 	C 	0.71285 0.04251 0.87475 0.49400
O 	O 	0.69540 0.00177 0.87433 -0.41400
O 	O 	0.68845 0.07890 0.87423 -0.49100
O 	O 	0.75720 0.70214 0.87419 -0.35200
C 	C 	0.71285 0.70749 0.87525 0.49300
O 	O 	0.69540 0.74823 0.87567 -0.38900
O 	O 	0.68845 0.67110 0.87577 -0.48500
O 	O 	0.75720 0.20214 0.37419 -0.35800
C 	C 	0.71285 0.20749 0.37525 0.49200
O 	O 	0.69540 0.24823 0.37567 -0.39400
O 	O 	0.68845 0.17110 0.37577 -0.48900
O 	O 	0.25720 0.70214 0.37419 -0.35900
C 	C 	0.21285 0.70749 0.37525 0.49200
O 	O 	0.19540 0.74823 0.37567 -0.39400
O 	O 	0.18845 0.67110 0.37577 -0.48900
O 	O 	0.25720 0.20214 0.87419 -0.35500
C 	C 	0.21285 0.20749 0.87525 0.49300
O 	O 	0.19540 0.24823 0.87567 -0.39100
O 	O 	0.18845 0.17110 0.87577 -0.48800
O 	O 	0.99280 0.20214 0.37581 -0.30300
C 	C 	0.03715 0.20749 0.37475 0.43300
O 	O 	0.05460 0.24823 0.37433 -0.39300
O 	O 	0.06155 0.17110 0.37423 -0.48300
O 	O 	0.99280 0.70214 0.87581 -0.29800
C 	C 	0.03715 0.70749 0.87475 0.43300
O 	O 	0.05460 0.74823 0.87433 -0.38800
O 	O 	0.06155 0.67110 0.87423 -0.47900
O 	O 	0.49280 0.20214 0.87581 -0.35500
C 	C 	0.53715 0.20749 0.87475 0.49300
O 	O 	0.55460 0.24823 0.87433 -0.39100
O 	O 	0.56155 0.17110 0.87423 -0.48700
O 	O 	0.49280 0.70214 0.37581 -0.35900
C 	C 	0.53715 0.70749 0.37475 0.49200
O 	O 	0.55460 0.74823 0.37433 -0.39300
O 	O 	0.56155 0.67110 0.37423 -0.48800
O 	O 	0.54786 0.87581 0.25720 -0.35500
C 	C 	0.54251 0.87475 0.21285 0.49300
O 	O 	0.50177 0.87433 0.19540 -0.39100
O 	O 	0.57890 0.87423 0.18845 -0.48700
O 	O 	0.54786 0.37581 0.75720 -0.35800
C 	C 	0.54251 0.37475 0.71285 0.49200
O 	O 	0.50177 0.37433 0.69540 -0.39400
O 	O 	0.57890 0.37423 0.68845 -0.48800
O 	O 	0.04786 0.87581 0.75720 -0.36500
C 	C 	0.04251 0.87475 0.71285 0.49400
O 	O 	0.00177 0.87433 0.69540 -0.41400
O 	O 	0.07890 0.87423 0.68845 -0.49100
O 	O 	0.04786 0.37581 0.25720 -0.37200
C 	C 	0.04251 0.37475 0.21285 0.49400
O 	O 	0.00177 0.37433 0.19540 -0.41800
O 	O 	0.07890 0.37423 0.18845 -0.49500
O 	O 	0.04786 0.37419 0.49280 -0.37100
C 	C 	0.04251 0.37525 0.53715 0.49400
O 	O 	0.00177 0.37567 0.55460 -0.41800
O 	O 	0.07890 0.37577 0.56155 -0.49300
O 	O 	0.04786 0.87419 0.99280 -0.31100
C 	C 	0.04251 0.87525 0.03715 0.43600
O 	O 	0.00177 0.87567 0.05460 -0.41300
O 	O 	0.07890 0.87577 0.06155 -0.48500
O 	O 	0.54786 0.37419 0.99280 -0.30300
C 	C 	0.54251 0.37525 0.03715 0.43300
O 	O 	0.50177 0.37567 0.05460 -0.39300
O 	O 	0.57890 0.37577 0.06155 -0.48200
O 	O 	0.54786 0.87419 0.49280 -0.35500
C 	C 	0.54251 0.87525 0.53715 0.49300
O 	O 	0.50177 0.87567 0.55460 -0.39100
O 	O 	0.57890 0.87577 0.56155 -0.48500
O 	O 	0.20214 0.37581 0.99280 -0.30300
C 	C 	0.20749 0.37475 0.03715 0.43300
O 	O 	0.24823 0.37433 0.05460 -0.39300
O 	O 	0.17110 0.37423 0.06155 -0.48300
O 	O 	0.20214 0.87581 0.49280 -0.35500
C 	C 	0.20749 0.87475 0.53715 0.49300
O 	O 	0.24823 0.87433 0.55460 -0.39100
O 	O 	0.17110 0.87423 0.56155 -0.48700
O 	O 	0.70214 0.37581 0.49280 -0.35900
C 	C 	0.70749 0.37475 0.53715 0.49200
O 	O 	0.74823 0.37433 0.55460 -0.39300
O 	O 	0.67110 0.37423 0.56155 -0.48800
O 	O 	0.70214 0.87581 0.99280 -0.29800
C 	C 	0.70749 0.87475 0.03715 0.43300
O 	O 	0.74823 0.87433 0.05460 -0.38800
O 	O 	0.67110 0.87423 0.06155 -0.47900
O 	O 	0.70214 0.87419 0.75720 -0.35200
C 	C 	0.70749 0.87525 0.71285 0.49300
O 	O 	0.74823 0.87567 0.69540 -0.38900
O 	O 	0.67110 0.87577 0.68845 -0.48500
O 	O 	0.70214 0.37419 0.25720 -0.35900
C 	C 	0.70749 0.37525 0.21285 0.49200
O 	O 	0.74823 0.37567 0.19540 -0.39400
O 	O 	0.67110 0.37577 0.18845 -0.48900
O 	O 	0.20214 0.87419 0.25720 -0.35500
C 	C 	0.20749 0.87525 0.21285 0.49300
O 	O 	0.24823 0.87567 0.19540 -0.39100
O 	O 	0.17110 0.87577 0.18845 -0.48800
O 	O 	0.20214 0.37419 0.75720 -0.35800
C 	C 	0.20749 0.37525 0.71285 0.49200
O 	O 	0.24823 0.37567 0.69540 -0.39400
O 	O 	0.17110 0.37577 0.68845 -0.48900
O 	O 	0.25720 0.37419 0.20214 -0.36000
C 	C 	0.21285 0.37525 0.20749 0.49300
O 	O 	0.19540 0.37567 0.24823 -0.39500
O 	O 	0.18845 0.37577 0.17110 -0.49100
O 	O 	0.25720 0.87419 0.70214 -0.35400
C 	C 	0.21285 0.87525 0.70749 0.49300
O 	O 	0.19540 0.87567 0.74823 -0.39000
O 	O 	0.18845 0.87577 0.67110 -0.48600
O 	O 	0.75720 0.37419 0.70214 -0.35700
C 	C 	0.71285 0.37525 0.70749 0.49200
O 	O 	0.69540 0.37567 0.74823 -0.39300
O 	O 	0.68845 0.37577 0.67110 -0.48800
O 	O 	0.75720 0.87419 0.20214 -0.35300
C 	C 	0.71285 0.87525 0.20749 0.49300
O 	O 	0.69540 0.87567 0.24823 -0.39100
O 	O 	0.68845 0.87577 0.17110 -0.48600
O 	O 	0.49280 0.87581 0.70214 -0.35400
C 	C 	0.53715 0.87475 0.70749 0.49300
O 	O 	0.55460 0.87433 0.74823 -0.39000
O 	O 	0.56155 0.87423 0.67110 -0.48500
O 	O 	0.49280 0.37581 0.20214 -0.36000
C 	C 	0.53715 0.37475 0.20749 0.49300
O 	O 	0.55460 0.37433 0.24823 -0.39500
O 	O 	0.56155 0.37423 0.17110 -0.48900
O 	O 	0.99280 0.87581 0.20214 -0.29900
C 	C 	0.03715 0.87475 0.20749 0.43400
O 	O 	0.05460 0.87433 0.24823 -0.38900
O 	O 	0.06155 0.87423 0.17110 -0.48100
O 	O 	0.99280 0.37581 0.70214 -0.30200
C 	C 	0.03715 0.37475 0.70749 0.43200
O 	O 	0.05460 0.37433 0.74823 -0.39100
O 	O 	0.06155 0.37423 0.67110 -0.48200
O 	O 	0.99280 0.87419 0.54786 -0.29800
C 	C 	0.03715 0.87525 0.54251 0.43300
O 	O 	0.05460 0.87567 0.50177 -0.38900
O 	O 	0.06155 0.87577 0.57890 -0.47900
O 	O 	0.99280 0.37419 0.04786 -0.31500
C 	C 	0.03715 0.37525 0.04251 0.43500
O 	O 	0.05460 0.37567 0.00177 -0.41600
O 	O 	0.06155 0.37577 0.07890 -0.48700
O 	O 	0.49280 0.87419 0.04786 -0.36600
C 	C 	0.53715 0.87525 0.04251 0.49500
O 	O 	0.55460 0.87567 0.00177 -0.41500
O 	O 	0.56155 0.87577 0.07890 -0.49100
O 	O 	0.49280 0.37419 0.54786 -0.36000
C 	C 	0.53715 0.37525 0.54251 0.49200
O 	O 	0.55460 0.37567 0.50177 -0.39500
O 	O 	0.56155 0.37577 0.57890 -0.48800
O 	O 	0.75720 0.37581 0.04786 -0.37000
C 	C 	0.71285 0.37475 0.04251 0.49400
O 	O 	0.69540 0.37433 0.00177 -0.41800
O 	O 	0.68845 0.37423 0.07890 -0.49300
O 	O 	0.75720 0.87581 0.54786 -0.35300
C 	C 	0.71285 0.87475 0.54251 0.49300
O 	O 	0.69540 0.87433 0.50177 -0.39000
O 	O 	0.68845 0.87423 0.57890 -0.48500
O 	O 	0.25720 0.37581 0.54786 -0.36000
C 	C 	0.21285 0.37475 0.54251 0.49200
O 	O 	0.19540 0.37433 0.50177 -0.39500
O 	O 	0.18845 0.37423 0.57890 -0.48900
O 	O 	0.25720 0.87581 0.04786 -0.36600
C 	C 	0.21285 0.87475 0.04251 0.49500
O 	O 	0.19540 0.87433 0.00177 -0.41500
O 	O 	0.18845 0.87423 0.07890 -0.49200
O 	O 	0.20214 0.25720 0.37419 -0.36000
C 	C 	0.20749 0.21285 0.37525 0.49300
O 	O 	0.24823 0.19540 0.37567 -0.39500
O 	O 	0.17110 0.18845 0.37577 -0.49100
O 	O 	0.20214 0.75720 0.87419 -0.35300
C 	C 	0.20749 0.71285 0.87525 0.49300
O 	O 	0.24823 0.69540 0.87567 -0.39100
O 	O 	0.17110 0.68845 0.87577 -0.48600
O 	O 	0.70214 0.25720 0.87419 -0.35400
C 	C 	0.70749 0.21285 0.87525 0.49300
O 	O 	0.74823 0.19540 0.87567 -0.39000
O 	O 	0.67110 0.18845 0.87577 -0.48600
O 	O 	0.70214 0.75720 0.37419 -0.35700
C 	C 	0.70749 0.71285 0.37525 0.49200
O 	O 	0.74823 0.69540 0.37567 -0.39300
O 	O 	0.67110 0.68845 0.37577 -0.48800
O 	O 	0.70214 0.49280 0.87581 -0.35400
C 	C 	0.70749 0.53715 0.87475 0.49300
O 	O 	0.74823 0.55460 0.87433 -0.39000
O 	O 	0.67110 0.56155 0.87423 -0.48500
O 	O 	0.70214 0.99280 0.37581 -0.30200
C 	C 	0.70749 0.03715 0.37475 0.43200
O 	O 	0.74823 0.05460 0.37433 -0.39100
O 	O 	0.67110 0.06155 0.37423 -0.48200
O 	O 	0.20214 0.49280 0.37581 -0.36000
C 	C 	0.20749 0.53715 0.37475 0.49300
O 	O 	0.24823 0.55460 0.37433 -0.39500
O 	O 	0.17110 0.56155 0.37423 -0.48900
O 	O 	0.20214 0.99280 0.87581 -0.29900
C 	C 	0.20749 0.03715 0.87475 0.43400
O 	O 	0.24823 0.05460 0.87433 -0.38900
O 	O 	0.17110 0.06155 0.87423 -0.48100
O 	O 	0.54786 0.99280 0.87419 -0.29800
C 	C 	0.54251 0.03715 0.87525 0.43300
O 	O 	0.50177 0.05460 0.87567 -0.38900
O 	O 	0.57890 0.06155 0.87577 -0.47900
O 	O 	0.54786 0.49280 0.37419 -0.36000
C 	C 	0.54251 0.53715 0.37525 0.49200
O 	O 	0.50177 0.55460 0.37567 -0.39500
O 	O 	0.57890 0.56155 0.37577 -0.48800
O 	O 	0.04786 0.99280 0.37419 -0.31500
C 	C 	0.04251 0.03715 0.37525 0.43500
O 	O 	0.00177 0.05460 0.37567 -0.41600
O 	O 	0.07890 0.06155 0.37577 -0.48700
O 	O 	0.04786 0.49280 0.87419 -0.36600
C 	C 	0.04251 0.53715 0.87525 0.49500
O 	O 	0.00177 0.55460 0.87567 -0.41500
O 	O 	0.07890 0.56155 0.87577 -0.49100
O 	O 	0.04786 0.75720 0.37581 -0.37000
C 	C 	0.04251 0.71285 0.37475 0.49400
O 	O 	0.00177 0.69540 0.37433 -0.41800
O 	O 	0.07890 0.68845 0.37423 -0.49300
O 	O 	0.04786 0.25720 0.87581 -0.36600
C 	C 	0.04251 0.21285 0.87475 0.49500
O 	O 	0.00177 0.19540 0.87433 -0.41500
O 	O 	0.07890 0.18845 0.87423 -0.49200
O 	O 	0.54786 0.75720 0.87581 -0.35300
C 	C 	0.54251 0.71285 0.87475 0.49300
O 	O 	0.50177 0.69540 0.87433 -0.39000
O 	O 	0.57890 0.68845 0.87423 -0.48500
O 	O 	0.54786 0.25720 0.37581 -0.36000
C 	C 	0.54251 0.21285 0.37475 0.49200
O 	O 	0.50177 0.19540 0.37433 -0.39500
O 	O 	0.57890 0.18845 0.37423 -0.48900
O 	O 	0.37419 0.20214 0.25720 -0.36000
C 	C 	0.37525 0.20749 0.21285 0.49300
O 	O 	0.37567 0.24823 0.19540 -0.39500
O 	O 	0.37577 0.17110 0.18845 -0.49100
O 	O 	0.37419 0.70214 0.75720 -0.35700
C 	C 	0.37525 0.70749 0.71285 0.49200
O 	O 	0.37567 0.74823 0.69540 -0.39300
O 	O 	0.37577 0.67110 0.68845 -0.48800
O 	O 	0.87419 0.20214 0.75720 -0.35300
C 	C 	0.87525 0.20749 0.71285 0.49300
O 	O 	0.87567 0.24823 0.69540 -0.39100
O 	O 	0.87577 0.17110 0.68845 -0.48600
O 	O 	0.87419 0.70214 0.25720 -0.35400
C 	C 	0.87525 0.70749 0.21285 0.49300
O 	O 	0.87567 0.74823 0.19540 -0.39000
O 	O 	0.87577 0.67110 0.18845 -0.48600
O 	O 	0.87581 0.70214 0.49280 -0.35400
C 	C 	0.87475 0.70749 0.53715 0.49300
O 	O 	0.87433 0.74823 0.55460 -0.39000
O 	O 	0.87423 0.67110 0.56155 -0.48500
O 	O 	0.87581 0.20214 0.99280 -0.29900
C 	C 	0.87475 0.20749 0.03715 0.43400
O 	O 	0.87433 0.24823 0.05460 -0.38900
O 	O 	0.87423 0.17110 0.06155 -0.48100
O 	O 	0.37581 0.70214 0.99280 -0.30200
C 	C 	0.37475 0.70749 0.03715 0.43200
O 	O 	0.37433 0.74823 0.05460 -0.39100
O 	O 	0.37423 0.67110 0.06155 -0.48200
O 	O 	0.37581 0.20214 0.49280 -0.36000
C 	C 	0.37475 0.20749 0.53715 0.49300
O 	O 	0.37433 0.24823 0.55460 -0.39500
O 	O 	0.37423 0.17110 0.56155 -0.48900
O 	O 	0.87419 0.54786 0.99280 -0.29800
C 	C 	0.87525 0.54251 0.03715 0.43300
O 	O 	0.87567 0.50177 0.05460 -0.38900
O 	O 	0.87577 0.57890 0.06155 -0.47900
O 	O 	0.87419 0.04786 0.49280 -0.36600
C 	C 	0.87525 0.04251 0.53715 0.49500
O 	O 	0.87567 0.00177 0.55460 -0.41500
O 	O 	0.87577 0.07890 0.56155 -0.49100
O 	O 	0.37419 0.54786 0.49280 -0.36000
C 	C 	0.37525 0.54251 0.53715 0.49200
O 	O 	0.37567 0.50177 0.55460 -0.39500
O 	O 	0.37577 0.57890 0.56155 -0.48800
O 	O 	0.37419 0.04786 0.99280 -0.31500
C 	C 	0.37525 0.04251 0.03715 0.43500
O 	O 	0.37567 0.00177 0.05460 -0.41600
O 	O 	0.37577 0.07890 0.06155 -0.48700
O 	O 	0.37581 0.04786 0.75720 -0.37000
C 	C 	0.37475 0.04251 0.71285 0.49400
O 	O 	0.37433 0.00177 0.69540 -0.41800
O 	O 	0.37423 0.07890 0.68845 -0.49300
O 	O 	0.37581 0.54786 0.25720 -0.36000
C 	C 	0.37475 0.54251 0.21285 0.49200
O 	O 	0.37433 0.50177 0.19540 -0.39500
O 	O 	0.37423 0.57890 0.18845 -0.48900
O 	O 	0.87581 0.04786 0.25720 -0.36600
C 	C 	0.87475 0.04251 0.21285 0.49500
O 	O 	0.87433 0.00177 0.19540 -0.41500
O 	O 	0.87423 0.07890 0.18845 -0.49200
O 	O 	0.87581 0.54786 0.75720 -0.35300
C 	C 	0.87475 0.54251 0.71285 0.49300
O 	O 	0.87433 0.50177 0.69540 -0.39000
O 	O 	0.87423 0.57890 0.68845 -0.48500
O 	O 	0.62419 0.00720 0.79786 -0.40900
C 	C 	0.62525 0.96285 0.79251 0.55100
O 	O 	0.62567 0.94540 0.75177 -0.39600
O 	O 	0.62577 0.93845 0.82890 -0.48500
O 	O 	0.62419 0.50720 0.29786 -0.36100
C 	C 	0.62525 0.46285 0.29251 0.49300
O 	O 	0.62567 0.44540 0.25177 -0.39600
O 	O 	0.62577 0.43845 0.32890 -0.48800
O 	O 	0.12419 0.00720 0.29786 -0.41500
C 	C 	0.12525 0.96285 0.29251 0.55100
O 	O 	0.12567 0.94540 0.25177 -0.40100
O 	O 	0.12577 0.93845 0.32890 -0.48900
O 	O 	0.12419 0.50720 0.79786 -0.36500
C 	C 	0.12525 0.46285 0.79251 0.49200
O 	O 	0.12567 0.44540 0.75177 -0.39800
O 	O 	0.12577 0.43845 0.82890 -0.48900
O 	O 	0.12581 0.24280 0.29786 -0.36700
C 	C 	0.12475 0.28715 0.29251 0.49200
O 	O 	0.12433 0.30460 0.25177 -0.40000
O 	O 	0.12423 0.31155 0.32890 -0.49000
O 	O 	0.12581 0.74280 0.79786 -0.36400
C 	C 	0.12475 0.78715 0.79251 0.49200
O 	O 	0.12433 0.80460 0.75177 -0.39800
O 	O 	0.12423 0.81155 0.82890 -0.48800
O 	O 	0.62581 0.24280 0.79786 -0.36100
C 	C 	0.62475 0.28715 0.79251 0.49300
O 	O 	0.62433 0.30460 0.75177 -0.39500
O 	O 	0.62423 0.31155 0.82890 -0.48600
O 	O 	0.62581 0.74280 0.29786 -0.36000
C 	C 	0.62475 0.78715 0.29251 0.49300
O 	O 	0.62433 0.80460 0.25177 -0.39600
O 	O 	0.62423 0.81155 0.32890 -0.48600
O 	O 	0.12419 0.74280 0.45214 -0.36400
C 	C 	0.12525 0.78715 0.45749 0.49200
O 	O 	0.12567 0.80460 0.49823 -0.39800
O 	O 	0.12577 0.81155 0.42110 -0.48900
O 	O 	0.12419 0.24280 0.95214 -0.35400
C 	C 	0.12525 0.28715 0.95749 0.48900
O 	O 	0.12567 0.30460 0.99823 -0.36700
O 	O 	0.12577 0.31155 0.92110 -0.48100
O 	O 	0.62419 0.74280 0.95214 -0.34700
C 	C 	0.62525 0.78715 0.95749 0.49000
O 	O 	0.62567 0.80460 0.99823 -0.36200
O 	O 	0.62577 0.81155 0.92110 -0.47800
O 	O 	0.62419 0.24280 0.45214 -0.36100
C 	C 	0.62525 0.28715 0.45749 0.49300
O 	O 	0.62567 0.30460 0.49823 -0.39500
O 	O 	0.62577 0.31155 0.42110 -0.48800
O 	O 	0.62581 0.50720 0.95214 -0.34800
C 	C 	0.62475 0.46285 0.95749 0.49000
O 	O 	0.62433 0.44540 0.99823 -0.36200
O 	O 	0.62423 0.43845 0.92110 -0.47900
O 	O 	0.62581 0.00720 0.45214 -0.40900
C 	C 	0.62475 0.96285 0.45749 0.55200
O 	O 	0.62433 0.94540 0.49823 -0.39600
O 	O 	0.62423 0.93845 0.42110 -0.48600
O 	O 	0.12581 0.50720 0.45214 -0.36500
C 	C 	0.12475 0.46285 0.45749 0.49200
O 	O 	0.12433 0.44540 0.49823 -0.39800
O 	O 	0.12423 0.43845 0.42110 -0.49000
O 	O 	0.12581 0.00720 0.95214 -0.40100
C 	C 	0.12475 0.96285 0.95749 0.54800
O 	O 	0.12433 0.94540 0.99823 -0.36800
O 	O 	0.12423 0.93845 0.92110 -0.48100
O 	O 	0.50720 0.95214 0.62581 -0.34800
C 	C 	0.46285 0.95749 0.62475 0.49000
O 	O 	0.44540 0.99823 0.62433 -0.36200
O 	O 	0.43845 0.92110 0.62423 -0.47900
O 	O 	0.50720 0.45214 0.12581 -0.36500
C 	C 	0.46285 0.45749 0.12475 0.49200
O 	O 	0.44540 0.49823 0.12433 -0.39800
O 	O 	0.43845 0.42110 0.12423 -0.49000
O 	O 	0.00720 0.95214 0.12581 -0.40100
C 	C 	0.96285 0.95749 0.12475 0.54800
O 	O 	0.94540 0.99823 0.12433 -0.36800
O 	O 	0.93845 0.92110 0.12423 -0.48100
O 	O 	0.00720 0.45214 0.62581 -0.40900
C 	C 	0.96285 0.45749 0.62475 0.55200
O 	O 	0.94540 0.49823 0.62433 -0.39600
O 	O 	0.93845 0.42110 0.62423 -0.48600
O 	O 	0.74280 0.45214 0.12419 -0.36400
C 	C 	0.78715 0.45749 0.12525 0.49200
O 	O 	0.80460 0.49823 0.12567 -0.39800
O 	O 	0.81155 0.42110 0.12577 -0.48900
O 	O 	0.74280 0.95214 0.62419 -0.34700
C 	C 	0.78715 0.95749 0.62525 0.49000
O 	O 	0.80460 0.99823 0.62567 -0.36200
O 	O 	0.81155 0.92110 0.62577 -0.47800
O 	O 	0.24280 0.45214 0.62419 -0.36100
C 	C 	0.28715 0.45749 0.62525 0.49300
O 	O 	0.30460 0.49823 0.62567 -0.39500
O 	O 	0.31155 0.42110 0.62577 -0.48800
O 	O 	0.24280 0.95214 0.12419 -0.35400
C 	C 	0.28715 0.95749 0.12525 0.48900
O 	O 	0.30460 0.99823 0.12567 -0.36700
O 	O 	0.31155 0.92110 0.12577 -0.48100
O 	O 	0.24280 0.29786 0.12581 -0.36700
C 	C 	0.28715 0.29251 0.12475 0.49200
O 	O 	0.30460 0.25177 0.12433 -0.40000
O 	O 	0.31155 0.32890 0.12423 -0.49000
O 	O 	0.24280 0.79786 0.62581 -0.36100
C 	C 	0.28715 0.79251 0.62475 0.49300
O 	O 	0.30460 0.75177 0.62433 -0.39500
O 	O 	0.31155 0.82890 0.62423 -0.48600
O 	O 	0.74280 0.29786 0.62581 -0.36000
C 	C 	0.78715 0.29251 0.62475 0.49300
O 	O 	0.80460 0.25177 0.62433 -0.39600
O 	O 	0.81155 0.32890 0.62423 -0.48600
O 	O 	0.74280 0.79786 0.12581 -0.36400
C 	C 	0.78715 0.79251 0.12475 0.49200
O 	O 	0.80460 0.75177 0.12433 -0.39800
O 	O 	0.81155 0.82890 0.12423 -0.48800
O 	O 	0.00720 0.79786 0.62419 -0.40900
C 	C 	0.96285 0.79251 0.62525 0.55100
O 	O 	0.94540 0.75177 0.62567 -0.39600
O 	O 	0.93845 0.82890 0.62577 -0.48500
O 	O 	0.00720 0.29786 0.12419 -0.41500
C 	C 	0.96285 0.29251 0.12525 0.55100
O 	O 	0.94540 0.25177 0.12567 -0.40100
O 	O 	0.93845 0.32890 0.12577 -0.48900
O 	O 	0.50720 0.79786 0.12419 -0.36500
C 	C 	0.46285 0.79251 0.12525 0.49200
O 	O 	0.44540 0.75177 0.12567 -0.39800
O 	O 	0.43845 0.82890 0.12577 -0.48900
O 	O 	0.50720 0.29786 0.62419 -0.36100
C 	C 	0.46285 0.29251 0.62525 0.49300
O 	O 	0.44540 0.25177 0.62567 -0.39600
O 	O 	0.43845 0.32890 0.62577 -0.48800
O 	O 	0.45214 0.12419 0.74280 -0.36400
C 	C 	0.45749 0.12525 0.78715 0.49200
O 	O 	0.49823 0.12567 0.80460 -0.39800
O 	O 	0.42110 0.12577 0.81155 -0.48900
O 	O 	0.45214 0.62419 0.24280 -0.36100
C 	C 	0.45749 0.62525 0.28715 0.49300
O 	O 	0.49823 0.62567 0.30460 -0.39500
O 	O 	0.42110 0.62577 0.31155 -0.48800
O 	O 	0.95214 0.12419 0.24280 -0.35400
C 	C 	0.95749 0.12525 0.28715 0.48900
O 	O 	0.99823 0.12567 0.30460 -0.36700
O 	O 	0.92110 0.12577 0.31155 -0.48100
O 	O 	0.95214 0.62419 0.74280 -0.34700
C 	C 	0.95749 0.62525 0.78715 0.49000
O 	O 	0.99823 0.62567 0.80460 -0.36200
O 	O 	0.92110 0.62577 0.81155 -0.47800
O 	O 	0.95214 0.62581 0.50720 -0.34800
C 	C 	0.95749 0.62475 0.46285 0.49000
O 	O 	0.99823 0.62433 0.44540 -0.36200
O 	O 	0.92110 0.62423 0.43845 -0.47900
O 	O 	0.95214 0.12581 0.00720 -0.40100
C 	C 	0.95749 0.12475 0.96285 0.54800
O 	O 	0.99823 0.12433 0.94540 -0.36800
O 	O 	0.92110 0.12423 0.93845 -0.48100
O 	O 	0.45214 0.62581 0.00720 -0.40900
C 	C 	0.45749 0.62475 0.96285 0.55200
O 	O 	0.49823 0.62433 0.94540 -0.39600
O 	O 	0.42110 0.62423 0.93845 -0.48600
O 	O 	0.45214 0.12581 0.50720 -0.36500
C 	C 	0.45749 0.12475 0.46285 0.49200
O 	O 	0.49823 0.12433 0.44540 -0.39800
O 	O 	0.42110 0.12423 0.43845 -0.49000
O 	O 	0.79786 0.62419 0.00720 -0.40900
C 	C 	0.79251 0.62525 0.96285 0.55100
O 	O 	0.75177 0.62567 0.94540 -0.39600
O 	O 	0.82890 0.62577 0.93845 -0.48500
O 	O 	0.79786 0.12419 0.50720 -0.36500
C 	C 	0.79251 0.12525 0.46285 0.49200
O 	O 	0.75177 0.12567 0.44540 -0.39800
O 	O 	0.82890 0.12577 0.43845 -0.48900
O 	O 	0.29786 0.62419 0.50720 -0.36100
C 	C 	0.29251 0.62525 0.46285 0.49300
O 	O 	0.25177 0.62567 0.44540 -0.39600
O 	O 	0.32890 0.62577 0.43845 -0.48800
O 	O 	0.29786 0.12419 0.00720 -0.41500
C 	C 	0.29251 0.12525 0.96285 0.55100
O 	O 	0.25177 0.12567 0.94540 -0.40100
O 	O 	0.32890 0.12577 0.93845 -0.48900
O 	O 	0.29786 0.12581 0.24280 -0.36700
C 	C 	0.29251 0.12475 0.28715 0.49200
O 	O 	0.25177 0.12433 0.30460 -0.40000
O 	O 	0.32890 0.12423 0.31155 -0.49000
O 	O 	0.29786 0.62581 0.74280 -0.36000
C 	C 	0.29251 0.62475 0.78715 0.49300
O 	O 	0.25177 0.62433 0.80460 -0.39600
O 	O 	0.32890 0.62423 0.81155 -0.48600
O 	O 	0.79786 0.12581 0.74280 -0.36400
C 	C 	0.79251 0.12475 0.78715 0.49200
O 	O 	0.75177 0.12433 0.80460 -0.39800
O 	O 	0.82890 0.12423 0.81155 -0.48800
O 	O 	0.79786 0.62581 0.24280 -0.36100
C 	C 	0.79251 0.62475 0.28715 0.49300
O 	O 	0.75177 0.62433 0.30460 -0.39500
O 	O 	0.82890 0.62423 0.31155 -0.48600
Fe	Fe	0.75000 0.62650 0.87350 1.20400
Fe	Fe	0.75000 0.12650 0.37350 1.20200
Fe	Fe	0.25000 0.62650 0.37350 1.20300
Fe	Fe	0.25000 0.12650 0.87350 1.20300
Fe	Fe	0.50000 0.12350 0.37350 1.20300
Fe	Fe	0.50000 0.62350 0.87350 1.20400
Fe	Fe	0.00000 0.12350 0.87350 1.17700
Fe	Fe	0.00000 0.62350 0.37350 1.17700
Fe	Fe	0.00000 0.12650 0.37650 1.17600
Fe	Fe	0.00000 0.62650 0.87650 1.17700
Fe	Fe	0.50000 0.12650 0.87650 1.20300
Fe	Fe	0.50000 0.62650 0.37650 1.20300
Fe	Fe	0.25000 0.62350 0.87650 1.20400
Fe	Fe	0.25000 0.12350 0.37650 1.20200
Fe	Fe	0.75000 0.62350 0.37650 1.20300
Fe	Fe	0.75000 0.12350 0.87650 1.20300
Fe	Fe	0.87350 0.75000 0.62650 1.20400
Fe	Fe	0.87350 0.25000 0.12650 1.20300
Fe	Fe	0.37350 0.75000 0.12650 1.20200
Fe	Fe	0.37350 0.25000 0.62650 1.20300
Fe	Fe	0.37350 0.50000 0.12350 1.20300
Fe	Fe	0.37350 0.00000 0.62350 1.17700
Fe	Fe	0.87350 0.50000 0.62350 1.20400
Fe	Fe	0.87350 0.00000 0.12350 1.17700
Fe	Fe	0.37650 0.00000 0.12650 1.17600
Fe	Fe	0.37650 0.50000 0.62650 1.20300
Fe	Fe	0.87650 -0.00000 0.62650 1.17700
Fe	Fe	0.87650 0.50000 0.12650 1.20300
Fe	Fe	0.87650 0.25000 0.62350 1.20400
Fe	Fe	0.87650 0.75000 0.12350 1.20300
Fe	Fe	0.37650 0.25000 0.12350 1.20200
Fe	Fe	0.37650 0.75000 0.62350 1.20300
Fe	Fe	0.62650 0.87350 0.75000 1.20400
Fe	Fe	0.62650 0.37350 0.25000 1.20300
Fe	Fe	0.12650 0.87350 0.25000 1.20300
Fe	Fe	0.12650 0.37350 0.75000 1.20200
Fe	Fe	0.12350 0.37350 0.50000 1.20300
Fe	Fe	0.12350 0.87350 -0.00000 1.17700
Fe	Fe	0.62350 0.37350 -0.00000 1.17700
Fe	Fe	0.62350 0.87350 0.50000 1.20400
Fe	Fe	0.12650 0.37650 -0.00000 1.17600
Fe	Fe	0.12650 0.87650 0.50000 1.20300
Fe	Fe	0.62650 0.37650 0.50000 1.20300
Fe	Fe	0.62650 0.87650 -0.00000 1.17700
Fe	Fe	0.62350 0.87650 0.25000 1.20400
Fe	Fe	0.62350 0.37650 0.75000 1.20300
Fe	Fe	0.12350 0.87650 0.75000 1.20300
Fe	Fe	0.12350 0.37650 0.25000 1.20200
Fe	Fe	0.25000 0.37350 0.12650 1.20200
Fe	Fe	0.25000 0.87350 0.62650 1.20400
Fe	Fe	0.75000 0.37350 0.62650 1.20300
Fe	Fe	0.75000 0.87350 0.12650 1.20300
Fe	Fe	0.50000 0.87650 0.62650 1.20400
Fe	Fe	0.50000 0.37650 0.12650 1.20200
Fe	Fe	0.00000 0.87650 0.12650 1.17700
Fe	Fe	-0.00000 0.37650 0.62650 1.17700
Fe	Fe	0.00000 0.87350 0.62350 1.17800
Fe	Fe	-0.00000 0.37350 0.12350 1.17600
Fe	Fe	0.50000 0.87350 0.12350 1.20300
Fe	Fe	0.50000 0.37350 0.62350 1.20300
Fe	Fe	0.75000 0.37650 0.12350 1.20300
Fe	Fe	0.75000 0.87650 0.62350 1.20400
Fe	Fe	0.25000 0.37650 0.62350 1.20300
Fe	Fe	0.25000 0.87650 0.12350 1.20300
Fe	Fe	0.12650 0.25000 0.37350 1.20200
Fe	Fe	0.12650 0.75000 0.87350 1.20300
Fe	Fe	0.62650 0.25000 0.87350 1.20400
Fe	Fe	0.62650 0.75000 0.37350 1.20300
Fe	Fe	0.62650 0.50000 0.87650 1.20400
Fe	Fe	0.62650 0.00000 0.37650 1.17700
Fe	Fe	0.12650 0.50000 0.37650 1.20200
Fe	Fe	0.12650 0.00000 0.87650 1.17700
Fe	Fe	0.62350 0.00000 0.87350 1.17800
Fe	Fe	0.62350 0.50000 0.37350 1.20300
Fe	Fe	0.12350 -0.00000 0.37350 1.17600
Fe	Fe	0.12350 0.50000 0.87350 1.20300
Fe	Fe	0.12350 0.75000 0.37650 1.20300
Fe	Fe	0.12350 0.25000 0.87650 1.20300
Fe	Fe	0.62350 0.75000 0.87650 1.20400
Fe	Fe	0.62350 0.25000 0.37650 1.20300
Fe	Fe	0.37350 0.12650 0.25000 1.20200
Fe	Fe	0.37350 0.62650 0.75000 1.20300
Fe	Fe	0.87350 0.12650 0.75000 1.20300
Fe	Fe	0.87350 0.62650 0.25000 1.20400
Fe	Fe	0.87650 0.62650 0.50000 1.20400
Fe	Fe	0.87650 0.12650 -0.00000 1.17700
Fe	Fe	0.37650 0.62650 -0.00000 1.17700
Fe	Fe	0.37650 0.12650 0.50000 1.20200
Fe	Fe	0.87350 0.62350 -0.00000 1.17800
Fe	Fe	0.87350 0.12350 0.50000 1.20300
Fe	Fe	0.37350 0.62350 0.50000 1.20300
Fe	Fe	0.37350 0.12350 -0.00000 1.17600
Fe	Fe	0.37650 0.12350 0.75000 1.20300
Fe	Fe	0.37650 0.62350 0.25000 1.20300
Fe	Fe	0.87650 0.12350 0.25000 1.20300
Fe	Fe	0.87650 0.62350 0.75000 1.20400
Na	Na	0.62500 0.62500 0.87500 0.59200
Na	Na	0.62500 0.12500 0.37500 0.59100
Na	Na	0.12500 0.12500 0.37500 0.59000
Na	Na	0.12500 0.62500 0.87500 0.59200
Na	Na	0.87500 0.62500 0.62500 0.59200
Na	Na	0.87500 0.12500 0.12500 0.59100
Na	Na	0.37500 0.62500 0.12500 0.59100
Na	Na	0.37500 0.12500 0.12500 0.59000
Na	Na	0.37500 0.62500 0.62500 0.59200
Na	Na	0.87500 0.12500 0.62500 0.59200
Na	Na	0.62500 0.87500 0.62500 0.59200
Na	Na	0.12500 0.37500 0.62500 0.59100
Na	Na	0.12500 0.87500 0.12500 0.59100
Na	Na	0.12500 0.37500 0.12500 0.59000
Na	Na	0.62500 0.87500 0.12500 0.59200
Na	Na	0.62500 0.37500 0.62500 0.59200
Na	Na	0.37500 0.87500 0.12500 0.59200
Na	Na	0.37500 0.37500 0.62500 0.59200
Na	Na	0.87500 0.87500 0.62500 0.59400
Na	Na	0.87500 0.37500 0.62500 0.59300
Na	Na	0.87500 0.87500 0.12500 0.59300
Na	Na	0.37500 0.37500 0.12500 0.59100
Na	Na	0.37500 0.12500 0.37500 0.59100
Na	Na	0.37500 0.62500 0.87500 0.59300
Na	Na	0.87500 0.62500 0.87500 0.59400
Na	Na	0.87500 0.12500 0.37500 0.59200
Na	Na	0.62500 0.87500 0.37500 0.59300
Na	Na	0.12500 0.37500 0.37500 0.59100
Na	Na	0.12500 0.87500 0.87500 0.59300
Na	Na	0.12500 0.37500 0.87500 0.59200
Na	Na	0.62500 0.87500 0.87500 0.59400
Na	Na	0.62500 0.37500 0.37500 0.59200
Na	Na	0.37500 0.87500 0.62500 0.59300
Na	Na	0.87500 0.37500 0.12500 0.59200
Na	Na	0.62500 0.37500 0.87500 0.59300
Na	Na	0.12500 0.87500 0.37500 0.59200
Na	Na	0.87500 0.62500 0.37500 0.59300
Na	Na	0.87500 0.12500 0.87500 0.59300
Na	Na	0.37500 0.12500 0.87500 0.59200
Na	Na	0.37500 0.62500 0.37500 0.59200
Na	Na	0.62500 0.12500 0.87500 0.59200
Na	Na	0.62500 0.62500 0.37500 0.59200
Na	Na	0.12500 0.62500 0.37500 0.59100
Na	Na	0.12500 0.12500 0.87500 0.59100
Na	Na	0.62500 0.37500 0.12500 0.59100
Na	Na	0.12500 0.87500 0.62500 0.59200
Na	Na	0.37500 0.12500 0.62500 0.59100
Na	Na	0.87500 0.62500 0.12500 0.59200
