data_crystal

_cell_length_a 28.77800
_cell_length_b 28.77800
_cell_length_c 28.77800
_cell_angle_alpha 90.00000
_cell_angle_beta  90.00000
_cell_angle_gamma 90.00000

_symmetry_space_group_name_	'P 1'
_symmetry_space_group_name_H-M	'P 1'

loop_
_symmetry_equiv_pos_as_xyz
  x,y,z

loop_
_atom_site_label
_atom_site_type_symbol
_atom_site_fract_x
_atom_site_fract_y
_atom_site_fract_z
_atom_site_charge
O 	O 	0.30026 0.50741 0.12343 -0.36000
C 	C 	0.29665 0.46250 0.12748 0.49100
O 	O 	0.25648 0.44325 0.12559 -0.38700
O 	O 	0.33391 0.43927 0.13185 -0.47800
O 	O 	0.30026 0.00741 0.62343 -0.40400
C 	C 	0.29665 0.96250 0.62748 0.54900
O 	O 	0.25648 0.94325 0.62559 -0.38500
O 	O 	0.33391 0.93927 0.63185 -0.47500
O 	O 	0.80026 0.50741 0.62343 -0.35400
C 	C 	0.79665 0.46250 0.62748 0.49200
O 	O 	0.75648 0.44325 0.62559 -0.38100
O 	O 	0.83391 0.43927 0.63185 -0.47300
O 	O 	0.80026 0.00741 0.12343 -0.40700
C 	C 	0.79665 0.96250 0.12748 0.54900
O 	O 	0.75648 0.94325 0.12559 -0.38700
O 	O 	0.83391 0.93927 0.13185 -0.47400
O 	O 	0.94974 0.24259 0.62343 -0.34300
C 	C 	0.95335 0.28750 0.62748 0.48900
O 	O 	0.99352 0.30675 0.62559 -0.35100
O 	O 	0.91609 0.31073 0.63185 -0.46800
O 	O 	0.94974 0.74259 0.12343 -0.34600
C 	C 	0.95335 0.78750 0.12748 0.48900
O 	O 	0.99352 0.80675 0.12559 -0.35400
O 	O 	0.91609 0.81073 0.13185 -0.46900
O 	O 	0.44974 0.24259 0.12343 -0.35900
C 	C 	0.45335 0.28750 0.12748 0.49200
O 	O 	0.49352 0.30675 0.12559 -0.38600
O 	O 	0.41609 0.31073 0.13185 -0.47700
O 	O 	0.44974 0.74259 0.62343 -0.35300
C 	C 	0.45335 0.78750 0.62748 0.49200
O 	O 	0.49352 0.80675 0.62559 -0.38100
O 	O 	0.41609 0.81073 0.63185 -0.47300
O 	O 	0.44974 0.00741 0.12657 -0.40600
C 	C 	0.45335 0.96250 0.12252 0.54900
O 	O 	0.49352 0.94325 0.12441 -0.38700
O 	O 	0.41609 0.93927 0.11815 -0.47700
O 	O 	0.44974 0.50741 0.62657 -0.35300
C 	C 	0.45335 0.46250 0.62252 0.49200
O 	O 	0.49352 0.44325 0.62441 -0.38100
O 	O 	0.41609 0.43927 0.61815 -0.47500
O 	O 	0.94974 0.00741 0.62657 -0.39000
C 	C 	0.95335 0.96250 0.62252 0.54600
O 	O 	0.99352 0.94325 0.62441 -0.35300
O 	O 	0.91609 0.93927 0.61815 -0.46700
O 	O 	0.94974 0.50741 0.12657 -0.34600
C 	C 	0.95335 0.46250 0.12252 0.48800
O 	O 	0.99352 0.44325 0.12441 -0.35400
O 	O 	0.91609 0.43927 0.11815 -0.47100
O 	O 	0.80026 0.74259 0.62657 -0.35300
C 	C 	0.79665 0.78750 0.62252 0.49200
O 	O 	0.75648 0.80675 0.62441 -0.38100
O 	O 	0.83391 0.81073 0.61815 -0.47200
O 	O 	0.80026 0.24259 0.12657 -0.35900
C 	C 	0.79665 0.28750 0.12252 0.49200
O 	O 	0.75648 0.30675 0.12441 -0.38500
O 	O 	0.83391 0.31073 0.11815 -0.47700
O 	O 	0.30026 0.74259 0.12657 -0.35900
C 	C 	0.29665 0.78750 0.12252 0.49200
O 	O 	0.25648 0.80675 0.12441 -0.38500
O 	O 	0.33391 0.81073 0.11815 -0.47700
O 	O 	0.30026 0.24259 0.62657 -0.35500
C 	C 	0.29665 0.28750 0.62252 0.49300
O 	O 	0.25648 0.30675 0.62441 -0.38300
O 	O 	0.33391 0.31073 0.61815 -0.47500
O 	O 	0.12343 0.30026 0.50741 -0.35900
C 	C 	0.12748 0.29665 0.46250 0.49200
O 	O 	0.12559 0.25648 0.44325 -0.38600
O 	O 	0.13185 0.33391 0.43927 -0.47700
O 	O 	0.12343 0.80026 0.00741 -0.40700
C 	C 	0.12748 0.79665 0.96250 0.54900
O 	O 	0.12559 0.75648 0.94325 -0.38700
O 	O 	0.13185 0.83391 0.93927 -0.47400
O 	O 	0.62343 0.30026 0.00741 -0.40300
C 	C 	0.62748 0.29665 0.96250 0.55000
O 	O 	0.62559 0.25648 0.94325 -0.38400
O 	O 	0.63185 0.33391 0.93927 -0.47400
O 	O 	0.62343 0.80026 0.50741 -0.35300
C 	C 	0.62748 0.79665 0.46250 0.49200
O 	O 	0.62559 0.75648 0.44325 -0.38100
O 	O 	0.63185 0.83391 0.43927 -0.47300
O 	O 	0.62343 0.94974 0.24259 -0.34300
C 	C 	0.62748 0.95335 0.28750 0.48900
O 	O 	0.62559 0.99352 0.30675 -0.35100
O 	O 	0.63185 0.91609 0.31073 -0.46800
O 	O 	0.62343 0.44974 0.74259 -0.35300
C 	C 	0.62748 0.45335 0.78750 0.49200
O 	O 	0.62559 0.49352 0.80675 -0.38100
O 	O 	0.63185 0.41609 0.81073 -0.47300
O 	O 	0.12343 0.94974 0.74259 -0.34600
C 	C 	0.12748 0.95335 0.78750 0.48900
O 	O 	0.12559 0.99352 0.80675 -0.35400
O 	O 	0.13185 0.91609 0.81073 -0.46900
O 	O 	0.12343 0.44974 0.24259 -0.35900
C 	C 	0.12748 0.45335 0.28750 0.49200
O 	O 	0.12559 0.49352 0.30675 -0.38600
O 	O 	0.13185 0.41609 0.31073 -0.47700
O 	O 	0.12657 0.44974 0.00741 -0.40600
C 	C 	0.12252 0.45335 0.96250 0.54900
O 	O 	0.12441 0.49352 0.94325 -0.38700
O 	O 	0.11815 0.41609 0.93927 -0.47700
O 	O 	0.12657 0.94974 0.50741 -0.34600
C 	C 	0.12252 0.95335 0.46250 0.48800
O 	O 	0.12441 0.99352 0.44325 -0.35400
O 	O 	0.11815 0.91609 0.43927 -0.47100
O 	O 	0.62657 0.44974 0.50741 -0.35300
C 	C 	0.62252 0.45335 0.46250 0.49200
O 	O 	0.62441 0.49352 0.44325 -0.38100
O 	O 	0.61815 0.41609 0.43927 -0.47500
O 	O 	0.62657 0.94974 0.00741 -0.39000
C 	C 	0.62252 0.95335 0.96250 0.54600
O 	O 	0.62441 0.99352 0.94325 -0.35300
O 	O 	0.61815 0.91609 0.93927 -0.46700
O 	O 	0.62657 0.80026 0.74259 -0.35300
C 	C 	0.62252 0.79665 0.78750 0.49200
O 	O 	0.62441 0.75648 0.80675 -0.38100
O 	O 	0.61815 0.83391 0.81073 -0.47200
O 	O 	0.62657 0.30026 0.24259 -0.35500
C 	C 	0.62252 0.29665 0.28750 0.49300
O 	O 	0.62441 0.25648 0.30675 -0.38300
O 	O 	0.61815 0.33391 0.31073 -0.47500
O 	O 	0.12657 0.80026 0.24259 -0.35900
C 	C 	0.12252 0.79665 0.28750 0.49200
O 	O 	0.12441 0.75648 0.30675 -0.38500
O 	O 	0.11815 0.83391 0.31073 -0.47700
O 	O 	0.12657 0.30026 0.74259 -0.35900
C 	C 	0.12252 0.29665 0.78750 0.49200
O 	O 	0.12441 0.25648 0.80675 -0.38500
O 	O 	0.11815 0.33391 0.81073 -0.47700
O 	O 	0.50741 0.12343 0.30026 -0.35900
C 	C 	0.46250 0.12748 0.29665 0.49200
O 	O 	0.44325 0.12559 0.25648 -0.38600
O 	O 	0.43927 0.13185 0.33391 -0.47700
O 	O 	0.50741 0.62343 0.80026 -0.35300
C 	C 	0.46250 0.62748 0.79665 0.49200
O 	O 	0.44325 0.62559 0.75648 -0.38100
O 	O 	0.43927 0.63185 0.83391 -0.47300
O 	O 	0.00741 0.12343 0.80026 -0.40700
C 	C 	0.96250 0.12748 0.79665 0.54900
O 	O 	0.94325 0.12559 0.75648 -0.38700
O 	O 	0.93927 0.13185 0.83391 -0.47400
O 	O 	0.00741 0.62343 0.30026 -0.40300
C 	C 	0.96250 0.62748 0.29665 0.55000
O 	O 	0.94325 0.62559 0.25648 -0.38400
O 	O 	0.93927 0.63185 0.33391 -0.47400
O 	O 	0.24259 0.62343 0.94974 -0.34300
C 	C 	0.28750 0.62748 0.95335 0.48900
O 	O 	0.30675 0.62559 0.99352 -0.35100
O 	O 	0.31073 0.63185 0.91609 -0.46800
O 	O 	0.24259 0.12343 0.44974 -0.35900
C 	C 	0.28750 0.12748 0.45335 0.49200
O 	O 	0.30675 0.12559 0.49352 -0.38600
O 	O 	0.31073 0.13185 0.41609 -0.47700
O 	O 	0.74259 0.62343 0.44974 -0.35300
C 	C 	0.78750 0.62748 0.45335 0.49200
O 	O 	0.80675 0.62559 0.49352 -0.38100
O 	O 	0.81073 0.63185 0.41609 -0.47300
O 	O 	0.74259 0.12343 0.94974 -0.34600
C 	C 	0.78750 0.12748 0.95335 0.48900
O 	O 	0.80675 0.12559 0.99352 -0.35400
O 	O 	0.81073 0.13185 0.91609 -0.46900
O 	O 	0.00741 0.12657 0.44974 -0.40600
C 	C 	0.96250 0.12252 0.45335 0.54900
O 	O 	0.94325 0.12441 0.49352 -0.38700
O 	O 	0.93927 0.11815 0.41609 -0.47700
O 	O 	0.00741 0.62657 0.94974 -0.39000
C 	C 	0.96250 0.62252 0.95335 0.54600
O 	O 	0.94325 0.62441 0.99352 -0.35300
O 	O 	0.93927 0.61815 0.91609 -0.46700
O 	O 	0.50741 0.12657 0.94974 -0.34600
C 	C 	0.46250 0.12252 0.95335 0.48800
O 	O 	0.44325 0.12441 0.99352 -0.35400
O 	O 	0.43927 0.11815 0.91609 -0.47100
O 	O 	0.50741 0.62657 0.44974 -0.35300
C 	C 	0.46250 0.62252 0.45335 0.49200
O 	O 	0.44325 0.62441 0.49352 -0.38100
O 	O 	0.43927 0.61815 0.41609 -0.47500
O 	O 	0.74259 0.62657 0.80026 -0.35300
C 	C 	0.78750 0.62252 0.79665 0.49200
O 	O 	0.80675 0.62441 0.75648 -0.38100
O 	O 	0.81073 0.61815 0.83391 -0.47200
O 	O 	0.74259 0.12657 0.30026 -0.35900
C 	C 	0.78750 0.12252 0.29665 0.49200
O 	O 	0.80675 0.12441 0.25648 -0.38500
O 	O 	0.81073 0.11815 0.33391 -0.47700
O 	O 	0.24259 0.62657 0.30026 -0.35500
C 	C 	0.28750 0.62252 0.29665 0.49300
O 	O 	0.30675 0.62441 0.25648 -0.38300
O 	O 	0.31073 0.61815 0.33391 -0.47500
O 	O 	0.24259 0.12657 0.80026 -0.35900
C 	C 	0.28750 0.12252 0.79665 0.49200
O 	O 	0.30675 0.12441 0.75648 -0.38500
O 	O 	0.31073 0.11815 0.83391 -0.47700
O 	O 	0.25741 0.55026 0.87657 -0.34800
C 	C 	0.21250 0.54665 0.87252 0.49300
O 	O 	0.19325 0.50648 0.87441 -0.37800
O 	O 	0.18927 0.58391 0.86815 -0.47500
O 	O 	0.25741 0.05026 0.37657 -0.36500
C 	C 	0.21250 0.04665 0.37252 0.49400
O 	O 	0.19325 0.00648 0.37441 -0.40500
O 	O 	0.18927 0.08391 0.36815 -0.48100
O 	O 	0.75741 0.55026 0.37657 -0.35200
C 	C 	0.71250 0.54665 0.37252 0.49200
O 	O 	0.69325 0.50648 0.37441 -0.38100
O 	O 	0.68927 0.58391 0.36815 -0.47500
O 	O 	0.75741 0.05026 0.87657 -0.35900
C 	C 	0.71250 0.04665 0.87252 0.49400
O 	O 	0.69325 0.00648 0.87441 -0.40000
O 	O 	0.68927 0.08391 0.86815 -0.47800
O 	O 	0.99259 0.19974 0.37657 -0.29900
C 	C 	0.03750 0.20335 0.37252 0.43400
O 	O 	0.05675 0.24352 0.37441 -0.37900
O 	O 	0.06073 0.16609 0.36815 -0.47100
O 	O 	0.99259 0.69974 0.87657 -0.29300
C 	C 	0.03750 0.70335 0.87252 0.43500
O 	O 	0.05675 0.74352 0.87441 -0.37400
O 	O 	0.06073 0.66609 0.86815 -0.46800
O 	O 	0.49259 0.19974 0.87657 -0.34800
C 	C 	0.53750 0.20335 0.87252 0.49300
O 	O 	0.55675 0.24352 0.87441 -0.37800
O 	O 	0.56073 0.16609 0.86815 -0.47500
O 	O 	0.49259 0.69974 0.37657 -0.35200
C 	C 	0.53750 0.70335 0.37252 0.49200
O 	O 	0.55675 0.74352 0.37441 -0.38000
O 	O 	0.56073 0.66609 0.36815 -0.47500
O 	O 	0.75741 0.69974 0.87343 -0.34700
C 	C 	0.71250 0.70335 0.87748 0.49300
O 	O 	0.69325 0.74352 0.87559 -0.37600
O 	O 	0.68927 0.66609 0.88185 -0.47200
O 	O 	0.75741 0.19974 0.37343 -0.35200
C 	C 	0.71250 0.20335 0.37748 0.49200
O 	O 	0.69325 0.24352 0.37559 -0.38100
O 	O 	0.68927 0.16609 0.38185 -0.47600
O 	O 	0.25741 0.69974 0.37343 -0.35300
C 	C 	0.21250 0.70335 0.37748 0.49200
O 	O 	0.19325 0.74352 0.37559 -0.38000
O 	O 	0.18927 0.66609 0.38185 -0.47600
O 	O 	0.25741 0.19974 0.87343 -0.34900
C 	C 	0.21250 0.20335 0.87748 0.49300
O 	O 	0.19325 0.24352 0.87559 -0.37800
O 	O 	0.18927 0.16609 0.88185 -0.47400
O 	O 	0.49259 0.05026 0.37343 -0.36500
C 	C 	0.53750 0.04665 0.37748 0.49400
O 	O 	0.55675 0.00648 0.37559 -0.40500
O 	O 	0.56073 0.08391 0.38185 -0.48000
O 	O 	0.49259 0.55026 0.87343 -0.34900
C 	C 	0.53750 0.54665 0.87748 0.49300
O 	O 	0.55675 0.50648 0.87559 -0.37800
O 	O 	0.56073 0.58391 0.88185 -0.47200
O 	O 	0.99259 0.05026 0.87343 -0.30700
C 	C 	0.03750 0.04665 0.87748 0.43800
O 	O 	0.05675 0.00648 0.87559 -0.39900
O 	O 	0.06073 0.08391 0.88185 -0.47200
O 	O 	0.99259 0.55026 0.37343 -0.29900
C 	C 	0.03750 0.54665 0.37748 0.43400
O 	O 	0.05675 0.50648 0.37559 -0.37900
O 	O 	0.06073 0.58391 0.38185 -0.47000
O 	O 	0.05026 0.37343 0.49259 -0.36500
C 	C 	0.04665 0.37748 0.53750 0.49400
O 	O 	0.00648 0.37559 0.55675 -0.40500
O 	O 	0.08391 0.38185 0.56073 -0.48000
O 	O 	0.05026 0.87343 0.99259 -0.30700
C 	C 	0.04665 0.87748 0.03750 0.43800
O 	O 	0.00648 0.87559 0.05675 -0.39900
O 	O 	0.08391 0.88185 0.06073 -0.47200
O 	O 	0.55026 0.37343 0.99259 -0.29900
C 	C 	0.54665 0.37748 0.03750 0.43400
O 	O 	0.50648 0.37559 0.05675 -0.37900
O 	O 	0.58391 0.38185 0.06073 -0.47000
O 	O 	0.55026 0.87343 0.49259 -0.34900
C 	C 	0.54665 0.87748 0.53750 0.49300
O 	O 	0.50648 0.87559 0.55675 -0.37800
O 	O 	0.58391 0.88185 0.56073 -0.47200
O 	O 	0.69974 0.87343 0.75741 -0.34700
C 	C 	0.70335 0.87748 0.71250 0.49300
O 	O 	0.74352 0.87559 0.69325 -0.37600
O 	O 	0.66609 0.88185 0.68927 -0.47200
O 	O 	0.69974 0.37343 0.25741 -0.35300
C 	C 	0.70335 0.37748 0.21250 0.49200
O 	O 	0.74352 0.37559 0.19325 -0.38000
O 	O 	0.66609 0.38185 0.18927 -0.47600
O 	O 	0.19974 0.87343 0.25741 -0.34900
C 	C 	0.20335 0.87748 0.21250 0.49300
O 	O 	0.24352 0.87559 0.19325 -0.37800
O 	O 	0.16609 0.88185 0.18927 -0.47400
O 	O 	0.19974 0.37343 0.75741 -0.35200
C 	C 	0.20335 0.37748 0.71250 0.49200
O 	O 	0.24352 0.37559 0.69325 -0.38100
O 	O 	0.16609 0.38185 0.68927 -0.47600
O 	O 	0.19974 0.37657 0.99259 -0.29900
C 	C 	0.20335 0.37252 0.03750 0.43400
O 	O 	0.24352 0.37441 0.05675 -0.37900
O 	O 	0.16609 0.36815 0.06073 -0.47100
O 	O 	0.19974 0.87657 0.49259 -0.34800
C 	C 	0.20335 0.87252 0.53750 0.49300
O 	O 	0.24352 0.87441 0.55675 -0.37800
O 	O 	0.16609 0.86815 0.56073 -0.47500
O 	O 	0.69974 0.37657 0.49259 -0.35200
C 	C 	0.70335 0.37252 0.53750 0.49200
O 	O 	0.74352 0.37441 0.55675 -0.38000
O 	O 	0.66609 0.36815 0.56073 -0.47500
O 	O 	0.69974 0.87657 0.99259 -0.29300
C 	C 	0.70335 0.87252 0.03750 0.43500
O 	O 	0.74352 0.87441 0.05675 -0.37400
O 	O 	0.66609 0.86815 0.06073 -0.46800
O 	O 	0.55026 0.87657 0.25741 -0.34800
C 	C 	0.54665 0.87252 0.21250 0.49300
O 	O 	0.50648 0.87441 0.19325 -0.37800
O 	O 	0.58391 0.86815 0.18927 -0.47500
O 	O 	0.55026 0.37657 0.75741 -0.35200
C 	C 	0.54665 0.37252 0.71250 0.49200
O 	O 	0.50648 0.37441 0.69325 -0.38100
O 	O 	0.58391 0.36815 0.68927 -0.47500
O 	O 	0.05026 0.87657 0.75741 -0.35900
C 	C 	0.04665 0.87252 0.71250 0.49400
O 	O 	0.00648 0.87441 0.69325 -0.40000
O 	O 	0.08391 0.86815 0.68927 -0.47800
O 	O 	0.05026 0.37657 0.25741 -0.36500
C 	C 	0.04665 0.37252 0.21250 0.49400
O 	O 	0.00648 0.37441 0.19325 -0.40500
O 	O 	0.08391 0.36815 0.18927 -0.48100
O 	O 	0.87343 0.75741 0.69974 -0.34700
C 	C 	0.87748 0.71250 0.70335 0.49300
O 	O 	0.87559 0.69325 0.74352 -0.37600
O 	O 	0.88185 0.68927 0.66609 -0.47200
O 	O 	0.87343 0.25741 0.19974 -0.34900
C 	C 	0.87748 0.21250 0.20335 0.49300
O 	O 	0.87559 0.19325 0.24352 -0.37800
O 	O 	0.88185 0.18927 0.16609 -0.47400
O 	O 	0.37343 0.75741 0.19974 -0.35200
C 	C 	0.37748 0.71250 0.20335 0.49200
O 	O 	0.37559 0.69325 0.24352 -0.38100
O 	O 	0.38185 0.68927 0.16609 -0.47600
O 	O 	0.37343 0.25741 0.69974 -0.35300
C 	C 	0.37748 0.21250 0.70335 0.49200
O 	O 	0.37559 0.19325 0.74352 -0.38000
O 	O 	0.38185 0.18927 0.66609 -0.47600
O 	O 	0.37343 0.49259 0.05026 -0.36500
C 	C 	0.37748 0.53750 0.04665 0.49400
O 	O 	0.37559 0.55675 0.00648 -0.40500
O 	O 	0.38185 0.56073 0.08391 -0.48000
O 	O 	0.37343 0.99259 0.55026 -0.29900
C 	C 	0.37748 0.03750 0.54665 0.43400
O 	O 	0.37559 0.05675 0.50648 -0.37900
O 	O 	0.38185 0.06073 0.58391 -0.47000
O 	O 	0.87343 0.49259 0.55026 -0.34900
C 	C 	0.87748 0.53750 0.54665 0.49300
O 	O 	0.87559 0.55675 0.50648 -0.37800
O 	O 	0.88185 0.56073 0.58391 -0.47200
O 	O 	0.87343 0.99259 0.05026 -0.30700
C 	C 	0.87748 0.03750 0.04665 0.43800
O 	O 	0.87559 0.05675 0.00648 -0.39900
O 	O 	0.88185 0.06073 0.08391 -0.47200
O 	O 	0.87657 0.25741 0.55026 -0.34800
C 	C 	0.87252 0.21250 0.54665 0.49300
O 	O 	0.87441 0.19325 0.50648 -0.37800
O 	O 	0.86815 0.18927 0.58391 -0.47500
O 	O 	0.87657 0.75741 0.05026 -0.35900
C 	C 	0.87252 0.71250 0.04665 0.49400
O 	O 	0.87441 0.69325 0.00648 -0.40000
O 	O 	0.86815 0.68927 0.08391 -0.47800
O 	O 	0.37657 0.25741 0.05026 -0.36500
C 	C 	0.37252 0.21250 0.04665 0.49400
O 	O 	0.37441 0.19325 0.00648 -0.40500
O 	O 	0.36815 0.18927 0.08391 -0.48100
O 	O 	0.37657 0.75741 0.55026 -0.35200
C 	C 	0.37252 0.71250 0.54665 0.49200
O 	O 	0.37441 0.69325 0.50648 -0.38100
O 	O 	0.36815 0.68927 0.58391 -0.47500
O 	O 	0.37657 0.99259 0.19974 -0.29900
C 	C 	0.37252 0.03750 0.20335 0.43400
O 	O 	0.37441 0.05675 0.24352 -0.37900
O 	O 	0.36815 0.06073 0.16609 -0.47100
O 	O 	0.37657 0.49259 0.69974 -0.35200
C 	C 	0.37252 0.53750 0.70335 0.49200
O 	O 	0.37441 0.55675 0.74352 -0.38000
O 	O 	0.36815 0.56073 0.66609 -0.47500
O 	O 	0.87657 0.99259 0.69974 -0.29300
C 	C 	0.87252 0.03750 0.70335 0.43500
O 	O 	0.87441 0.05675 0.74352 -0.37400
O 	O 	0.86815 0.06073 0.66609 -0.46800
O 	O 	0.87657 0.49259 0.19974 -0.34800
C 	C 	0.87252 0.53750 0.20335 0.49300
O 	O 	0.87441 0.55675 0.24352 -0.37800
O 	O 	0.86815 0.56073 0.16609 -0.47500
O 	O 	0.69974 0.49259 0.87657 -0.34700
C 	C 	0.70335 0.53750 0.87252 0.49200
O 	O 	0.74352 0.55675 0.87441 -0.37600
O 	O 	0.66609 0.56073 0.86815 -0.47300
O 	O 	0.69974 0.99259 0.37657 -0.29800
C 	C 	0.70335 0.03750 0.37252 0.43400
O 	O 	0.74352 0.05675 0.37441 -0.37800
O 	O 	0.66609 0.06073 0.36815 -0.47000
O 	O 	0.19974 0.49259 0.37657 -0.35300
C 	C 	0.20335 0.53750 0.37252 0.49200
O 	O 	0.24352 0.55675 0.37441 -0.38200
O 	O 	0.16609 0.56073 0.36815 -0.47700
O 	O 	0.19974 0.99259 0.87657 -0.29400
C 	C 	0.20335 0.03750 0.87252 0.43500
O 	O 	0.24352 0.05675 0.87441 -0.37600
O 	O 	0.16609 0.06073 0.86815 -0.46900
O 	O 	0.05026 0.75741 0.37657 -0.36400
C 	C 	0.04665 0.71250 0.37252 0.49400
O 	O 	0.00648 0.69325 0.37441 -0.40400
O 	O 	0.08391 0.68927 0.36815 -0.48000
O 	O 	0.05026 0.25741 0.87657 -0.36000
C 	C 	0.04665 0.21250 0.87252 0.49400
O 	O 	0.00648 0.19325 0.87441 -0.40100
O 	O 	0.08391 0.18927 0.86815 -0.47900
O 	O 	0.55026 0.75741 0.87657 -0.34700
C 	C 	0.54665 0.71250 0.87252 0.49200
O 	O 	0.50648 0.69325 0.87441 -0.37700
O 	O 	0.58391 0.68927 0.86815 -0.47300
O 	O 	0.55026 0.25741 0.37657 -0.35400
C 	C 	0.54665 0.21250 0.37252 0.49200
O 	O 	0.50648 0.19325 0.37441 -0.38100
O 	O 	0.58391 0.18927 0.36815 -0.47700
O 	O 	0.55026 0.99259 0.87343 -0.29400
C 	C 	0.54665 0.03750 0.87748 0.43500
O 	O 	0.50648 0.05675 0.87559 -0.37600
O 	O 	0.58391 0.06073 0.88185 -0.46700
O 	O 	0.55026 0.49259 0.37343 -0.35300
C 	C 	0.54665 0.53750 0.37748 0.49200
O 	O 	0.50648 0.55675 0.37559 -0.38100
O 	O 	0.58391 0.56073 0.38185 -0.47500
O 	O 	0.05026 0.99259 0.37343 -0.31100
C 	C 	0.04665 0.03750 0.37748 0.43600
O 	O 	0.00648 0.05675 0.37559 -0.40200
O 	O 	0.08391 0.06073 0.38185 -0.47500
O 	O 	0.05026 0.49259 0.87343 -0.36100
C 	C 	0.04665 0.53750 0.87748 0.49500
O 	O 	0.00648 0.55675 0.87559 -0.40100
O 	O 	0.08391 0.56073 0.88185 -0.47700
O 	O 	0.19974 0.25741 0.37343 -0.35400
C 	C 	0.20335 0.21250 0.37748 0.49200
O 	O 	0.24352 0.19325 0.37559 -0.38200
O 	O 	0.16609 0.18927 0.38185 -0.47800
O 	O 	0.19974 0.75741 0.87343 -0.34800
C 	C 	0.20335 0.71250 0.87748 0.49300
O 	O 	0.24352 0.69325 0.87559 -0.37800
O 	O 	0.16609 0.68927 0.88185 -0.47300
O 	O 	0.69974 0.25741 0.87343 -0.34800
C 	C 	0.70335 0.21250 0.87748 0.49300
O 	O 	0.74352 0.19325 0.87559 -0.37700
O 	O 	0.66609 0.18927 0.88185 -0.47300
O 	O 	0.69974 0.75741 0.37343 -0.35100
C 	C 	0.70335 0.71250 0.37748 0.49200
O 	O 	0.74352 0.69325 0.37559 -0.38000
O 	O 	0.66609 0.68927 0.38185 -0.47500
O 	O 	0.87657 0.69974 0.49259 -0.34700
C 	C 	0.87252 0.70335 0.53750 0.49200
O 	O 	0.87441 0.74352 0.55675 -0.37600
O 	O 	0.86815 0.66609 0.56073 -0.47300
O 	O 	0.87657 0.19974 0.99259 -0.29400
C 	C 	0.87252 0.20335 0.03750 0.43500
O 	O 	0.87441 0.24352 0.05675 -0.37600
O 	O 	0.86815 0.16609 0.06073 -0.46900
O 	O 	0.37657 0.69974 0.99259 -0.29800
C 	C 	0.37252 0.70335 0.03750 0.43400
O 	O 	0.37441 0.74352 0.05675 -0.37800
O 	O 	0.36815 0.66609 0.06073 -0.47000
O 	O 	0.37657 0.19974 0.49259 -0.35300
C 	C 	0.37252 0.20335 0.53750 0.49200
O 	O 	0.37441 0.24352 0.55675 -0.38200
O 	O 	0.36815 0.16609 0.56073 -0.47700
O 	O 	0.37657 0.05026 0.75741 -0.36400
C 	C 	0.37252 0.04665 0.71250 0.49400
O 	O 	0.37441 0.00648 0.69325 -0.40400
O 	O 	0.36815 0.08391 0.68927 -0.48000
O 	O 	0.37657 0.55026 0.25741 -0.35400
C 	C 	0.37252 0.54665 0.21250 0.49200
O 	O 	0.37441 0.50648 0.19325 -0.38100
O 	O 	0.36815 0.58391 0.18927 -0.47700
O 	O 	0.87657 0.05026 0.25741 -0.36000
C 	C 	0.87252 0.04665 0.21250 0.49400
O 	O 	0.87441 0.00648 0.19325 -0.40100
O 	O 	0.86815 0.08391 0.18927 -0.47900
O 	O 	0.87657 0.55026 0.75741 -0.34700
C 	C 	0.87252 0.54665 0.71250 0.49200
O 	O 	0.87441 0.50648 0.69325 -0.37700
O 	O 	0.86815 0.58391 0.68927 -0.47300
O 	O 	0.87343 0.55026 0.99259 -0.29400
C 	C 	0.87748 0.54665 0.03750 0.43500
O 	O 	0.87559 0.50648 0.05675 -0.37600
O 	O 	0.88185 0.58391 0.06073 -0.46700
O 	O 	0.87343 0.05026 0.49259 -0.36100
C 	C 	0.87748 0.04665 0.53750 0.49500
O 	O 	0.87559 0.00648 0.55675 -0.40100
O 	O 	0.88185 0.08391 0.56073 -0.47700
O 	O 	0.37343 0.55026 0.49259 -0.35300
C 	C 	0.37748 0.54665 0.53750 0.49200
O 	O 	0.37559 0.50648 0.55675 -0.38100
O 	O 	0.38185 0.58391 0.56073 -0.47500
O 	O 	0.37343 0.05026 0.99259 -0.31100
C 	C 	0.37748 0.04665 0.03750 0.43600
O 	O 	0.37559 0.00648 0.05675 -0.40200
O 	O 	0.38185 0.08391 0.06073 -0.47500
O 	O 	0.37343 0.19974 0.25741 -0.35400
C 	C 	0.37748 0.20335 0.21250 0.49200
O 	O 	0.37559 0.24352 0.19325 -0.38200
O 	O 	0.38185 0.16609 0.18927 -0.47800
O 	O 	0.37343 0.69974 0.75741 -0.35100
C 	C 	0.37748 0.70335 0.71250 0.49200
O 	O 	0.37559 0.74352 0.69325 -0.38000
O 	O 	0.38185 0.66609 0.68927 -0.47500
O 	O 	0.87343 0.19974 0.75741 -0.34800
C 	C 	0.87748 0.20335 0.71250 0.49300
O 	O 	0.87559 0.24352 0.69325 -0.37800
O 	O 	0.88185 0.16609 0.68927 -0.47300
O 	O 	0.87343 0.69974 0.25741 -0.34800
C 	C 	0.87748 0.70335 0.21250 0.49300
O 	O 	0.87559 0.74352 0.19325 -0.37700
O 	O 	0.88185 0.66609 0.18927 -0.47300
O 	O 	0.49259 0.87657 0.69974 -0.34700
C 	C 	0.53750 0.87252 0.70335 0.49200
O 	O 	0.55675 0.87441 0.74352 -0.37600
O 	O 	0.56073 0.86815 0.66609 -0.47300
O 	O 	0.49259 0.37657 0.19974 -0.35300
C 	C 	0.53750 0.37252 0.20335 0.49200
O 	O 	0.55675 0.37441 0.24352 -0.38200
O 	O 	0.56073 0.36815 0.16609 -0.47700
O 	O 	0.99259 0.87657 0.19974 -0.29400
C 	C 	0.03750 0.87252 0.20335 0.43500
O 	O 	0.05675 0.87441 0.24352 -0.37600
O 	O 	0.06073 0.86815 0.16609 -0.46900
O 	O 	0.99259 0.37657 0.69974 -0.29800
C 	C 	0.03750 0.37252 0.70335 0.43400
O 	O 	0.05675 0.37441 0.74352 -0.37800
O 	O 	0.06073 0.36815 0.66609 -0.47000
O 	O 	0.75741 0.37657 0.05026 -0.36400
C 	C 	0.71250 0.37252 0.04665 0.49400
O 	O 	0.69325 0.37441 0.00648 -0.40400
O 	O 	0.68927 0.36815 0.08391 -0.48000
O 	O 	0.75741 0.87657 0.55026 -0.34700
C 	C 	0.71250 0.87252 0.54665 0.49200
O 	O 	0.69325 0.87441 0.50648 -0.37700
O 	O 	0.68927 0.86815 0.58391 -0.47300
O 	O 	0.25741 0.37657 0.55026 -0.35400
C 	C 	0.21250 0.37252 0.54665 0.49200
O 	O 	0.19325 0.37441 0.50648 -0.38100
O 	O 	0.18927 0.36815 0.58391 -0.47700
O 	O 	0.25741 0.87657 0.05026 -0.36000
C 	C 	0.21250 0.87252 0.04665 0.49400
O 	O 	0.19325 0.87441 0.00648 -0.40100
O 	O 	0.18927 0.86815 0.08391 -0.47900
O 	O 	0.99259 0.87343 0.55026 -0.29400
C 	C 	0.03750 0.87748 0.54665 0.43500
O 	O 	0.05675 0.87559 0.50648 -0.37600
O 	O 	0.06073 0.88185 0.58391 -0.46700
O 	O 	0.99259 0.37343 0.05026 -0.31100
C 	C 	0.03750 0.37748 0.04665 0.43600
O 	O 	0.05675 0.37559 0.00648 -0.40200
O 	O 	0.06073 0.38185 0.08391 -0.47500
O 	O 	0.49259 0.87343 0.05026 -0.36100
C 	C 	0.53750 0.87748 0.04665 0.49500
O 	O 	0.55675 0.87559 0.00648 -0.40100
O 	O 	0.56073 0.88185 0.08391 -0.47700
O 	O 	0.49259 0.37343 0.55026 -0.35300
C 	C 	0.53750 0.37748 0.54665 0.49200
O 	O 	0.55675 0.37559 0.50648 -0.38100
O 	O 	0.56073 0.38185 0.58391 -0.47500
O 	O 	0.25741 0.37343 0.19974 -0.35400
C 	C 	0.21250 0.37748 0.20335 0.49200
O 	O 	0.19325 0.37559 0.24352 -0.38200
O 	O 	0.18927 0.38185 0.16609 -0.47800
O 	O 	0.25741 0.87343 0.69974 -0.34800
C 	C 	0.21250 0.87748 0.70335 0.49300
O 	O 	0.19325 0.87559 0.74352 -0.37700
O 	O 	0.18927 0.88185 0.66609 -0.47300
O 	O 	0.75741 0.37343 0.69974 -0.35100
C 	C 	0.71250 0.37748 0.70335 0.49200
O 	O 	0.69325 0.37559 0.74352 -0.38000
O 	O 	0.68927 0.38185 0.66609 -0.47500
O 	O 	0.75741 0.87343 0.19974 -0.34800
C 	C 	0.71250 0.87748 0.20335 0.49300
O 	O 	0.69325 0.87559 0.24352 -0.37800
O 	O 	0.68927 0.88185 0.16609 -0.47300
O 	O 	0.74259 0.44974 0.12343 -0.35800
C 	C 	0.78750 0.45335 0.12748 0.49200
O 	O 	0.80675 0.49352 0.12559 -0.38500
O 	O 	0.81073 0.41609 0.13185 -0.47500
O 	O 	0.74259 0.94974 0.62343 -0.34100
C 	C 	0.78750 0.95335 0.62748 0.48900
O 	O 	0.80675 0.99352 0.62559 -0.35100
O 	O 	0.81073 0.91609 0.63185 -0.46700
O 	O 	0.24259 0.44974 0.62343 -0.35500
C 	C 	0.28750 0.45335 0.62748 0.49300
O 	O 	0.30675 0.49352 0.62559 -0.38200
O 	O 	0.31073 0.41609 0.63185 -0.47500
O 	O 	0.24259 0.94974 0.12343 -0.34700
C 	C 	0.28750 0.95335 0.12748 0.48900
O 	O 	0.30675 0.99352 0.12559 -0.35500
O 	O 	0.31073 0.91609 0.13185 -0.47000
O 	O 	0.00741 0.80026 0.62343 -0.40200
C 	C 	0.96250 0.79665 0.62748 0.55000
O 	O 	0.94325 0.75648 0.62559 -0.38300
O 	O 	0.93927 0.83391 0.63185 -0.47200
O 	O 	0.00741 0.30026 0.12343 -0.40700
C 	C 	0.96250 0.29665 0.12748 0.54900
O 	O 	0.94325 0.25648 0.12559 -0.38800
O 	O 	0.93927 0.33391 0.13185 -0.47600
O 	O 	0.50741 0.80026 0.12343 -0.35800
C 	C 	0.46250 0.79665 0.12748 0.49200
O 	O 	0.44325 0.75648 0.12559 -0.38500
O 	O 	0.43927 0.83391 0.13185 -0.47600
O 	O 	0.50741 0.30026 0.62343 -0.35400
C 	C 	0.46250 0.29665 0.62748 0.49300
O 	O 	0.44325 0.25648 0.62559 -0.38200
O 	O 	0.43927 0.33391 0.63185 -0.47500
O 	O 	0.24259 0.30026 0.12657 -0.36000
C 	C 	0.28750 0.29665 0.12252 0.49200
O 	O 	0.30675 0.25648 0.12441 -0.38600
O 	O 	0.31073 0.33391 0.11815 -0.47800
O 	O 	0.24259 0.80026 0.62657 -0.35500
C 	C 	0.28750 0.79665 0.62252 0.49300
O 	O 	0.30675 0.75648 0.62441 -0.38200
O 	O 	0.31073 0.83391 0.61815 -0.47400
O 	O 	0.74259 0.30026 0.62657 -0.35400
C 	C 	0.78750 0.29665 0.62252 0.49300
O 	O 	0.80675 0.25648 0.62441 -0.38200
O 	O 	0.81073 0.33391 0.61815 -0.47400
O 	O 	0.74259 0.80026 0.12657 -0.35800
C 	C 	0.78750 0.79665 0.12252 0.49200
O 	O 	0.80675 0.75648 0.12441 -0.38400
O 	O 	0.81073 0.83391 0.11815 -0.47600
O 	O 	0.50741 0.94974 0.62657 -0.34100
C 	C 	0.46250 0.95335 0.62252 0.48900
O 	O 	0.44325 0.99352 0.62441 -0.35100
O 	O 	0.43927 0.91609 0.61815 -0.46800
O 	O 	0.50741 0.44974 0.12657 -0.35800
C 	C 	0.46250 0.45335 0.12252 0.49200
O 	O 	0.44325 0.49352 0.12441 -0.38400
O 	O 	0.43927 0.41609 0.11815 -0.47800
O 	O 	0.00741 0.94974 0.12657 -0.39400
C 	C 	0.96250 0.95335 0.12252 0.54500
O 	O 	0.94325 0.99352 0.12441 -0.35600
O 	O 	0.93927 0.91609 0.11815 -0.47000
O 	O 	0.00741 0.44974 0.62657 -0.40200
C 	C 	0.96250 0.45335 0.62252 0.55000
O 	O 	0.94325 0.49352 0.62441 -0.38300
O 	O 	0.93927 0.41609 0.61815 -0.47400
O 	O 	0.94974 0.62657 0.50741 -0.34100
C 	C 	0.95335 0.62252 0.46250 0.48900
O 	O 	0.99352 0.62441 0.44325 -0.35100
O 	O 	0.91609 0.61815 0.43927 -0.46800
O 	O 	0.94974 0.12657 0.00741 -0.39400
C 	C 	0.95335 0.12252 0.96250 0.54500
O 	O 	0.99352 0.12441 0.94325 -0.35600
O 	O 	0.91609 0.11815 0.93927 -0.47000
O 	O 	0.44974 0.62657 0.00741 -0.40200
C 	C 	0.45335 0.62252 0.96250 0.55000
O 	O 	0.49352 0.62441 0.94325 -0.38300
O 	O 	0.41609 0.61815 0.93927 -0.47400
O 	O 	0.44974 0.12657 0.50741 -0.35800
C 	C 	0.45335 0.12252 0.46250 0.49200
O 	O 	0.49352 0.12441 0.44325 -0.38400
O 	O 	0.41609 0.11815 0.43927 -0.47800
O 	O 	0.30026 0.12657 0.24259 -0.36000
C 	C 	0.29665 0.12252 0.28750 0.49200
O 	O 	0.25648 0.12441 0.30675 -0.38600
O 	O 	0.33391 0.11815 0.31073 -0.47800
O 	O 	0.30026 0.62657 0.74259 -0.35400
C 	C 	0.29665 0.62252 0.78750 0.49300
O 	O 	0.25648 0.62441 0.80675 -0.38200
O 	O 	0.33391 0.61815 0.81073 -0.47400
O 	O 	0.80026 0.12657 0.74259 -0.35800
C 	C 	0.79665 0.12252 0.78750 0.49200
O 	O 	0.75648 0.12441 0.80675 -0.38400
O 	O 	0.83391 0.11815 0.81073 -0.47600
O 	O 	0.80026 0.62657 0.24259 -0.35500
C 	C 	0.79665 0.62252 0.28750 0.49300
O 	O 	0.75648 0.62441 0.30675 -0.38200
O 	O 	0.83391 0.61815 0.31073 -0.47400
O 	O 	0.80026 0.62343 0.00741 -0.40200
C 	C 	0.79665 0.62748 0.96250 0.55000
O 	O 	0.75648 0.62559 0.94325 -0.38300
O 	O 	0.83391 0.63185 0.93927 -0.47200
O 	O 	0.80026 0.12343 0.50741 -0.35800
C 	C 	0.79665 0.12748 0.46250 0.49200
O 	O 	0.75648 0.12559 0.44325 -0.38500
O 	O 	0.83391 0.13185 0.43927 -0.47600
O 	O 	0.30026 0.62343 0.50741 -0.35400
C 	C 	0.29665 0.62748 0.46250 0.49300
O 	O 	0.25648 0.62559 0.44325 -0.38200
O 	O 	0.33391 0.63185 0.43927 -0.47500
O 	O 	0.30026 0.12343 0.00741 -0.40700
C 	C 	0.29665 0.12748 0.96250 0.54900
O 	O 	0.25648 0.12559 0.94325 -0.38800
O 	O 	0.33391 0.13185 0.93927 -0.47600
O 	O 	0.44974 0.12343 0.74259 -0.35800
C 	C 	0.45335 0.12748 0.78750 0.49200
O 	O 	0.49352 0.12559 0.80675 -0.38500
O 	O 	0.41609 0.13185 0.81073 -0.47500
O 	O 	0.44974 0.62343 0.24259 -0.35500
C 	C 	0.45335 0.62748 0.28750 0.49300
O 	O 	0.49352 0.62559 0.30675 -0.38200
O 	O 	0.41609 0.63185 0.31073 -0.47500
O 	O 	0.94974 0.12343 0.24259 -0.34700
C 	C 	0.95335 0.12748 0.28750 0.48900
O 	O 	0.99352 0.12559 0.30675 -0.35500
O 	O 	0.91609 0.13185 0.31073 -0.47000
O 	O 	0.94974 0.62343 0.74259 -0.34100
C 	C 	0.95335 0.62748 0.78750 0.48900
O 	O 	0.99352 0.62559 0.80675 -0.35100
O 	O 	0.91609 0.63185 0.81073 -0.46700
O 	O 	0.12657 0.24259 0.30026 -0.36000
C 	C 	0.12252 0.28750 0.29665 0.49200
O 	O 	0.12441 0.30675 0.25648 -0.38600
O 	O 	0.11815 0.31073 0.33391 -0.47800
O 	O 	0.12657 0.74259 0.80026 -0.35800
C 	C 	0.12252 0.78750 0.79665 0.49200
O 	O 	0.12441 0.80675 0.75648 -0.38400
O 	O 	0.11815 0.81073 0.83391 -0.47600
O 	O 	0.62657 0.24259 0.80026 -0.35500
C 	C 	0.62252 0.28750 0.79665 0.49300
O 	O 	0.62441 0.30675 0.75648 -0.38200
O 	O 	0.61815 0.31073 0.83391 -0.47400
O 	O 	0.62657 0.74259 0.30026 -0.35400
C 	C 	0.62252 0.78750 0.29665 0.49300
O 	O 	0.62441 0.80675 0.25648 -0.38200
O 	O 	0.61815 0.81073 0.33391 -0.47400
O 	O 	0.62657 0.50741 0.94974 -0.34100
C 	C 	0.62252 0.46250 0.95335 0.48900
O 	O 	0.62441 0.44325 0.99352 -0.35100
O 	O 	0.61815 0.43927 0.91609 -0.46800
O 	O 	0.62657 0.00741 0.44974 -0.40200
C 	C 	0.62252 0.96250 0.45335 0.55000
O 	O 	0.62441 0.94325 0.49352 -0.38300
O 	O 	0.61815 0.93927 0.41609 -0.47400
O 	O 	0.12657 0.50741 0.44974 -0.35800
C 	C 	0.12252 0.46250 0.45335 0.49200
O 	O 	0.12441 0.44325 0.49352 -0.38400
O 	O 	0.11815 0.43927 0.41609 -0.47800
O 	O 	0.12657 0.00741 0.94974 -0.39400
C 	C 	0.12252 0.96250 0.95335 0.54500
O 	O 	0.12441 0.94325 0.99352 -0.35600
O 	O 	0.11815 0.93927 0.91609 -0.47000
O 	O 	0.12343 0.74259 0.44974 -0.35800
C 	C 	0.12748 0.78750 0.45335 0.49200
O 	O 	0.12559 0.80675 0.49352 -0.38500
O 	O 	0.13185 0.81073 0.41609 -0.47500
O 	O 	0.12343 0.24259 0.94974 -0.34700
C 	C 	0.12748 0.28750 0.95335 0.48900
O 	O 	0.12559 0.30675 0.99352 -0.35500
O 	O 	0.13185 0.31073 0.91609 -0.47000
O 	O 	0.62343 0.74259 0.94974 -0.34100
C 	C 	0.62748 0.78750 0.95335 0.48900
O 	O 	0.62559 0.80675 0.99352 -0.35100
O 	O 	0.63185 0.81073 0.91609 -0.46700
O 	O 	0.62343 0.24259 0.44974 -0.35500
C 	C 	0.62748 0.28750 0.45335 0.49300
O 	O 	0.62559 0.30675 0.49352 -0.38200
O 	O 	0.63185 0.31073 0.41609 -0.47500
O 	O 	0.62343 0.00741 0.80026 -0.40200
C 	C 	0.62748 0.96250 0.79665 0.55000
O 	O 	0.62559 0.94325 0.75648 -0.38300
O 	O 	0.63185 0.93927 0.83391 -0.47200
O 	O 	0.62343 0.50741 0.30026 -0.35400
C 	C 	0.62748 0.46250 0.29665 0.49300
O 	O 	0.62559 0.44325 0.25648 -0.38200
O 	O 	0.63185 0.43927 0.33391 -0.47500
O 	O 	0.12343 0.00741 0.30026 -0.40700
C 	C 	0.12748 0.96250 0.29665 0.54900
O 	O 	0.12559 0.94325 0.25648 -0.38800
O 	O 	0.13185 0.93927 0.33391 -0.47600
O 	O 	0.12343 0.50741 0.80026 -0.35800
C 	C 	0.12748 0.46250 0.79665 0.49200
O 	O 	0.12559 0.44325 0.75648 -0.38500
O 	O 	0.13185 0.43927 0.83391 -0.47600
Ni	Ni	0.37308 0.50000 0.12308 1.13500
Ni	Ni	0.37308 0.00000 0.62308 1.11400
Ni	Ni	0.87308 0.50000 0.62308 1.13600
Ni	Ni	0.87308 0.00000 0.12308 1.11400
Ni	Ni	0.87692 0.25000 0.62308 1.13500
Ni	Ni	0.87692 0.75000 0.12308 1.13500
Ni	Ni	0.37692 0.25000 0.12308 1.13500
Ni	Ni	0.37692 0.75000 0.62308 1.13500
Ni	Ni	0.37692 0.00000 0.12692 1.11300
Ni	Ni	0.37692 0.50000 0.62692 1.13500
Ni	Ni	0.87692 -0.00000 0.62692 1.11400
Ni	Ni	0.87692 0.50000 0.12692 1.13500
Ni	Ni	0.87308 0.75000 0.62692 1.13600
Ni	Ni	0.87308 0.25000 0.12692 1.13500
Ni	Ni	0.37308 0.75000 0.12692 1.13500
Ni	Ni	0.37308 0.25000 0.62692 1.13500
Ni	Ni	0.12308 0.37308 0.50000 1.13500
Ni	Ni	0.12308 0.87308 -0.00000 1.11400
Ni	Ni	0.62308 0.37308 -0.00000 1.11400
Ni	Ni	0.62308 0.87308 0.50000 1.13600
Ni	Ni	0.62308 0.87692 0.25000 1.13500
Ni	Ni	0.62308 0.37692 0.75000 1.13500
Ni	Ni	0.12308 0.87692 0.75000 1.13500
Ni	Ni	0.12308 0.37692 0.25000 1.13500
Ni	Ni	0.12692 0.37692 -0.00000 1.11300
Ni	Ni	0.12692 0.87692 0.50000 1.13500
Ni	Ni	0.62692 0.37692 0.50000 1.13500
Ni	Ni	0.62692 0.87692 -0.00000 1.11400
Ni	Ni	0.62692 0.87308 0.75000 1.13600
Ni	Ni	0.62692 0.37308 0.25000 1.13500
Ni	Ni	0.12692 0.87308 0.25000 1.13500
Ni	Ni	0.12692 0.37308 0.75000 1.13500
Ni	Ni	0.50000 0.12308 0.37308 1.13500
Ni	Ni	0.50000 0.62308 0.87308 1.13600
Ni	Ni	0.00000 0.12308 0.87308 1.11400
Ni	Ni	0.00000 0.62308 0.37308 1.11400
Ni	Ni	0.25000 0.62308 0.87692 1.13500
Ni	Ni	0.25000 0.12308 0.37692 1.13500
Ni	Ni	0.75000 0.62308 0.37692 1.13500
Ni	Ni	0.75000 0.12308 0.87692 1.13500
Ni	Ni	0.00000 0.12692 0.37692 1.11300
Ni	Ni	0.00000 0.62692 0.87692 1.11400
Ni	Ni	0.50000 0.12692 0.87692 1.13500
Ni	Ni	0.50000 0.62692 0.37692 1.13500
Ni	Ni	0.75000 0.62692 0.87308 1.13600
Ni	Ni	0.75000 0.12692 0.37308 1.13500
Ni	Ni	0.25000 0.62692 0.37308 1.13500
Ni	Ni	0.25000 0.12692 0.87308 1.13500
Ni	Ni	0.62692 0.50000 0.87692 1.13500
Ni	Ni	0.62692 0.00000 0.37692 1.11400
Ni	Ni	0.12692 0.50000 0.37692 1.13400
Ni	Ni	0.12692 0.00000 0.87692 1.11300
Ni	Ni	0.12308 0.75000 0.37692 1.13500
Ni	Ni	0.12308 0.25000 0.87692 1.13500
Ni	Ni	0.62308 0.75000 0.87692 1.13600
Ni	Ni	0.62308 0.25000 0.37692 1.13500
Ni	Ni	0.62308 0.00000 0.87308 1.11400
Ni	Ni	0.62308 0.50000 0.37308 1.13500
Ni	Ni	0.12308 0.00000 0.37308 1.11300
Ni	Ni	0.12308 0.50000 0.87308 1.13500
Ni	Ni	0.12692 0.25000 0.37308 1.13400
Ni	Ni	0.12692 0.75000 0.87308 1.13500
Ni	Ni	0.62692 0.25000 0.87308 1.13600
Ni	Ni	0.62692 0.75000 0.37308 1.13500
Ni	Ni	0.87692 0.62692 0.50000 1.13500
Ni	Ni	0.87692 0.12692 -0.00000 1.11300
Ni	Ni	0.37692 0.62692 -0.00000 1.11400
Ni	Ni	0.37692 0.12692 0.50000 1.13400
Ni	Ni	0.37692 0.12308 0.75000 1.13500
Ni	Ni	0.37692 0.62308 0.25000 1.13500
Ni	Ni	0.87692 0.12308 0.25000 1.13500
Ni	Ni	0.87692 0.62308 0.75000 1.13600
Ni	Ni	0.87308 0.62308 -0.00000 1.11400
Ni	Ni	0.87308 0.12308 0.50000 1.13500
Ni	Ni	0.37308 0.62308 0.50000 1.13500
Ni	Ni	0.37308 0.12308 -0.00000 1.11300
Ni	Ni	0.37308 0.12692 0.25000 1.13400
Ni	Ni	0.37308 0.62692 0.75000 1.13500
Ni	Ni	0.87308 0.12692 0.75000 1.13500
Ni	Ni	0.87308 0.62692 0.25000 1.13600
Ni	Ni	0.50000 0.87692 0.62692 1.13500
Ni	Ni	0.50000 0.37692 0.12692 1.13400
Ni	Ni	0.00000 0.87692 0.12692 1.11300
Ni	Ni	0.00000 0.37692 0.62692 1.11400
Ni	Ni	0.75000 0.37692 0.12308 1.13500
Ni	Ni	0.75000 0.87692 0.62308 1.13600
Ni	Ni	0.25000 0.37692 0.62308 1.13500
Ni	Ni	0.25000 0.87692 0.12308 1.13500
Ni	Ni	0.00000 0.87308 0.62308 1.11400
Ni	Ni	0.00000 0.37308 0.12308 1.11300
Ni	Ni	0.50000 0.87308 0.12308 1.13500
Ni	Ni	0.50000 0.37308 0.62308 1.13500
Ni	Ni	0.25000 0.37308 0.12692 1.13400
Ni	Ni	0.25000 0.87308 0.62692 1.13600
Ni	Ni	0.75000 0.37308 0.62692 1.13500
Ni	Ni	0.75000 0.87308 0.12692 1.13500
Na	Na	0.37500 0.37500 0.12500 0.59900
Na	Na	0.87500 0.37500 0.62500 0.60100
Na	Na	0.87500 0.87500 0.12500 0.60100
Na	Na	0.37500 0.87500 0.12500 0.60000
Na	Na	0.37500 0.37500 0.62500 0.60000
Na	Na	0.87500 0.87500 0.62500 0.60200
Na	Na	0.12500 0.37500 0.37500 0.59900
Na	Na	0.12500 0.87500 0.87500 0.60100
Na	Na	0.62500 0.87500 0.37500 0.60100
Na	Na	0.12500 0.37500 0.87500 0.60000
Na	Na	0.62500 0.87500 0.87500 0.60200
Na	Na	0.62500 0.37500 0.37500 0.60000
Na	Na	0.37500 0.12500 0.37500 0.59900
Na	Na	0.37500 0.62500 0.87500 0.60100
Na	Na	0.87500 0.12500 0.37500 0.60000
Na	Na	0.87500 0.62500 0.87500 0.60200
Na	Na	0.12500 0.62500 0.87500 0.60000
Na	Na	0.12500 0.12500 0.37500 0.59800
Na	Na	0.62500 0.12500 0.87500 0.60000
Na	Na	0.62500 0.62500 0.87500 0.60000
Na	Na	0.62500 0.12500 0.37500 0.59900
Na	Na	0.12500 0.37500 0.62500 0.59900
Na	Na	0.12500 0.87500 0.12500 0.59900
Na	Na	0.62500 0.87500 0.62500 0.60000
Na	Na	0.12500 0.37500 0.12500 0.59800
Na	Na	0.12500 0.87500 0.62500 0.60000
Na	Na	0.62500 0.87500 0.12500 0.60000
Na	Na	0.62500 0.37500 0.62500 0.60000
Na	Na	0.87500 0.62500 0.62500 0.60000
Na	Na	0.87500 0.12500 0.12500 0.59900
Na	Na	0.37500 0.62500 0.12500 0.59900
Na	Na	0.87500 0.12500 0.62500 0.60000
Na	Na	0.37500 0.12500 0.12500 0.59800
Na	Na	0.37500 0.62500 0.62500 0.60000
Na	Na	0.87500 0.62500 0.12500 0.60000
Na	Na	0.12500 0.62500 0.37500 0.59900
Na	Na	0.12500 0.12500 0.87500 0.59900
Na	Na	0.62500 0.62500 0.37500 0.60000
Na	Na	0.37500 0.12500 0.62500 0.59900
Na	Na	0.62500 0.37500 0.12500 0.59900
Na	Na	0.87500 0.37500 0.12500 0.60000
Na	Na	0.37500 0.87500 0.62500 0.60100
Na	Na	0.87500 0.62500 0.37500 0.60100
Na	Na	0.87500 0.12500 0.87500 0.60100
Na	Na	0.37500 0.12500 0.87500 0.60000
Na	Na	0.37500 0.62500 0.37500 0.60000
Na	Na	0.62500 0.37500 0.87500 0.60100
Na	Na	0.12500 0.87500 0.37500 0.60000
