data_crystal

_cell_length_a 28.90570
_cell_length_b 28.90570
_cell_length_c 28.90570
_cell_angle_alpha 90.00000
_cell_angle_beta  90.00000
_cell_angle_gamma 90.00000

_symmetry_space_group_name_	'P 1'
_symmetry_space_group_name_H-M	'P 1'

loop_
_symmetry_equiv_pos_as_xyz
  x,y,z

loop_
_atom_site_label
_atom_site_type_symbol
_atom_site_fract_x
_atom_site_fract_y
_atom_site_fract_z
_atom_site_charge
O 	O 	0.99560 0.30547 0.12600 -0.36900
O 	O 	0.95195 0.24203 0.12496 -0.34800
O 	O 	0.91825 0.30993 0.12598 -0.48700
C 	C 	0.95547 0.28666 0.12559 0.49800
O 	O 	0.99560 0.80547 0.62600 -0.36500
O 	O 	0.95195 0.74203 0.62496 -0.34200
O 	O 	0.91825 0.80993 0.62598 -0.48300
C 	C 	0.95547 0.78666 0.62559 0.49900
O 	O 	0.49560 0.30547 0.62600 -0.39800
O 	O 	0.45195 0.24203 0.62496 -0.35600
O 	O 	0.41825 0.30993 0.62598 -0.49300
C 	C 	0.45547 0.28666 0.62559 0.50200
O 	O 	0.49560 0.80547 0.12600 -0.40100
O 	O 	0.45195 0.74203 0.12496 -0.36000
O 	O 	0.41825 0.80993 0.12598 -0.49500
C 	C 	0.45547 0.78666 0.12559 0.50000
O 	O 	0.25440 0.44453 0.62600 -0.39900
O 	O 	0.29805 0.50797 0.62496 -0.35600
O 	O 	0.33175 0.44007 0.62598 -0.49400
C 	C 	0.29453 0.46334 0.62559 0.50100
O 	O 	0.25440 0.94453 0.12600 -0.40500
O 	O 	0.29805 0.00797 0.12496 -0.41200
O 	O 	0.33175 0.94007 0.12598 -0.49500
C 	C 	0.29453 0.96334 0.12559 0.56100
O 	O 	0.75440 0.44453 0.12600 -0.40100
O 	O 	0.79805 0.50797 0.12496 -0.36000
O 	O 	0.83175 0.44007 0.12598 -0.49500
C 	C 	0.79453 0.46334 0.12559 0.50000
O 	O 	0.75440 0.94453 0.62600 -0.40000
O 	O 	0.79805 0.00797 0.62496 -0.40600
O 	O 	0.83175 0.94007 0.62598 -0.49100
C 	C 	0.79453 0.96334 0.62559 0.56100
O 	O 	0.75440 0.80547 0.12400 -0.40100
O 	O 	0.79805 0.74203 0.12504 -0.36000
O 	O 	0.83175 0.80993 0.12402 -0.49400
C 	C 	0.79453 0.78666 0.12441 0.50000
O 	O 	0.75440 0.30547 0.62400 -0.39800
O 	O 	0.79805 0.24203 0.62504 -0.35700
O 	O 	0.83175 0.30993 0.62402 -0.49200
C 	C 	0.79453 0.28666 0.62441 0.50100
O 	O 	0.25440 0.80547 0.62400 -0.39900
O 	O 	0.29805 0.74203 0.62504 -0.35600
O 	O 	0.33175 0.80993 0.62402 -0.49200
C 	C 	0.29453 0.78666 0.62441 0.50100
O 	O 	0.25440 0.30547 0.12400 -0.40300
O 	O 	0.29805 0.24203 0.12504 -0.36300
O 	O 	0.33175 0.30993 0.12402 -0.49700
C 	C 	0.29453 0.28666 0.12441 0.50100
O 	O 	0.49560 0.94453 0.62400 -0.40000
O 	O 	0.45195 0.00797 0.62504 -0.40600
O 	O 	0.41825 0.94007 0.62402 -0.49300
C 	C 	0.45547 0.96334 0.62441 0.56100
O 	O 	0.49560 0.44453 0.12400 -0.40100
O 	O 	0.45195 0.50797 0.12504 -0.36100
O 	O 	0.41825 0.44007 0.12402 -0.49600
C 	C 	0.45547 0.46334 0.12441 0.50000
O 	O 	0.99560 0.94453 0.12400 -0.37200
O 	O 	0.95195 0.00797 0.12504 -0.39800
O 	O 	0.91825 0.94007 0.12402 -0.48800
C 	C 	0.95547 0.96334 0.12441 0.55700
O 	O 	0.99560 0.44453 0.62400 -0.36600
O 	O 	0.95195 0.50797 0.62504 -0.34300
O 	O 	0.91825 0.44007 0.62402 -0.48600
C 	C 	0.95547 0.46334 0.62441 0.49800
O 	O 	0.12600 0.99560 0.30547 -0.37000
O 	O 	0.12496 0.95195 0.24203 -0.34900
O 	O 	0.12598 0.91825 0.30993 -0.48800
C 	C 	0.12559 0.95547 0.28666 0.49700
O 	O 	0.12600 0.49560 0.80547 -0.40100
O 	O 	0.12496 0.45195 0.74203 -0.36000
O 	O 	0.12598 0.41825 0.80993 -0.49500
C 	C 	0.12559 0.45547 0.78666 0.50000
O 	O 	0.62600 0.99560 0.80547 -0.36600
O 	O 	0.62496 0.95195 0.74203 -0.34300
O 	O 	0.62598 0.91825 0.80993 -0.48400
C 	C 	0.62559 0.95547 0.78666 0.49800
O 	O 	0.62600 0.49560 0.30547 -0.39900
O 	O 	0.62496 0.45195 0.24203 -0.35700
O 	O 	0.62598 0.41825 0.30993 -0.49400
C 	C 	0.62559 0.45547 0.28666 0.50100
O 	O 	0.62600 0.25440 0.44453 -0.39900
O 	O 	0.62496 0.29805 0.50797 -0.35600
O 	O 	0.62598 0.33175 0.44007 -0.49400
C 	C 	0.62559 0.29453 0.46334 0.50100
O 	O 	0.62600 0.75440 0.94453 -0.40000
O 	O 	0.62496 0.79805 0.00797 -0.40600
O 	O 	0.62598 0.83175 0.94007 -0.49100
C 	C 	0.62559 0.79453 0.96334 0.56100
O 	O 	0.12600 0.25440 0.94453 -0.40500
O 	O 	0.12496 0.29805 0.00797 -0.41200
O 	O 	0.12598 0.33175 0.94007 -0.49500
C 	C 	0.12559 0.29453 0.96334 0.56100
O 	O 	0.12600 0.75440 0.44453 -0.40100
O 	O 	0.12496 0.79805 0.50797 -0.36000
O 	O 	0.12598 0.83175 0.44007 -0.49500
C 	C 	0.12559 0.79453 0.46334 0.50000
O 	O 	0.12400 0.75440 0.80547 -0.40100
O 	O 	0.12504 0.79805 0.74203 -0.36000
O 	O 	0.12402 0.83175 0.80993 -0.49400
C 	C 	0.12441 0.79453 0.78666 0.50000
O 	O 	0.12400 0.25440 0.30547 -0.40300
O 	O 	0.12504 0.29805 0.24203 -0.36300
O 	O 	0.12402 0.33175 0.30993 -0.49700
C 	C 	0.12441 0.29453 0.28666 0.50100
O 	O 	0.62400 0.75440 0.30547 -0.39800
O 	O 	0.62504 0.79805 0.24203 -0.35700
O 	O 	0.62402 0.83175 0.30993 -0.49200
C 	C 	0.62441 0.79453 0.28666 0.50100
O 	O 	0.62400 0.25440 0.80547 -0.39900
O 	O 	0.62504 0.29805 0.74203 -0.35600
O 	O 	0.62402 0.33175 0.80993 -0.49200
C 	C 	0.62441 0.29453 0.78666 0.50100
O 	O 	0.62400 0.49560 0.94453 -0.40000
O 	O 	0.62504 0.45195 0.00797 -0.40600
O 	O 	0.62402 0.41825 0.94007 -0.49300
C 	C 	0.62441 0.45547 0.96334 0.56100
O 	O 	0.62400 0.99560 0.44453 -0.36600
O 	O 	0.62504 0.95195 0.50797 -0.34300
O 	O 	0.62402 0.91825 0.44007 -0.48600
C 	C 	0.62441 0.95547 0.46334 0.49800
O 	O 	0.12400 0.49560 0.44453 -0.40100
O 	O 	0.12504 0.45195 0.50797 -0.36100
O 	O 	0.12402 0.41825 0.44007 -0.49600
C 	C 	0.12441 0.45547 0.46334 0.50000
O 	O 	0.12400 0.99560 0.94453 -0.37200
O 	O 	0.12504 0.95195 0.00797 -0.39800
O 	O 	0.12402 0.91825 0.94007 -0.48800
C 	C 	0.12441 0.95547 0.96334 0.55700
O 	O 	0.30547 0.12600 0.99560 -0.37000
O 	O 	0.24203 0.12496 0.95195 -0.34900
O 	O 	0.30993 0.12598 0.91825 -0.48800
C 	C 	0.28666 0.12559 0.95547 0.49700
O 	O 	0.30547 0.62600 0.49560 -0.39900
O 	O 	0.24203 0.62496 0.45195 -0.35700
O 	O 	0.30993 0.62598 0.41825 -0.49400
C 	C 	0.28666 0.62559 0.45547 0.50100
O 	O 	0.80547 0.12600 0.49560 -0.40100
O 	O 	0.74203 0.12496 0.45195 -0.36000
O 	O 	0.80993 0.12598 0.41825 -0.49500
C 	C 	0.78666 0.12559 0.45547 0.50000
O 	O 	0.80547 0.62600 0.99560 -0.36600
O 	O 	0.74203 0.62496 0.95195 -0.34300
O 	O 	0.80993 0.62598 0.91825 -0.48400
C 	C 	0.78666 0.62559 0.95547 0.49800
O 	O 	0.44453 0.62600 0.25440 -0.39900
O 	O 	0.50797 0.62496 0.29805 -0.35600
O 	O 	0.44007 0.62598 0.33175 -0.49400
C 	C 	0.46334 0.62559 0.29453 0.50100
O 	O 	0.44453 0.12600 0.75440 -0.40100
O 	O 	0.50797 0.12496 0.79805 -0.36000
O 	O 	0.44007 0.12598 0.83175 -0.49500
C 	C 	0.46334 0.12559 0.79453 0.50000
O 	O 	0.94453 0.62600 0.75440 -0.40000
O 	O 	0.00797 0.62496 0.79805 -0.40600
O 	O 	0.94007 0.62598 0.83175 -0.49100
C 	C 	0.96334 0.62559 0.79453 0.56100
O 	O 	0.94453 0.12600 0.25440 -0.40500
O 	O 	0.00797 0.12496 0.29805 -0.41200
O 	O 	0.94007 0.12598 0.33175 -0.49500
C 	C 	0.96334 0.12559 0.29453 0.56100
O 	O 	0.80547 0.12400 0.75440 -0.40100
O 	O 	0.74203 0.12504 0.79805 -0.36000
O 	O 	0.80993 0.12402 0.83175 -0.49400
C 	C 	0.78666 0.12441 0.79453 0.50000
O 	O 	0.80547 0.62400 0.25440 -0.39900
O 	O 	0.74203 0.62504 0.29805 -0.35600
O 	O 	0.80993 0.62402 0.33175 -0.49200
C 	C 	0.78666 0.62441 0.29453 0.50100
O 	O 	0.30547 0.12400 0.25440 -0.40300
O 	O 	0.24203 0.12504 0.29805 -0.36300
O 	O 	0.30993 0.12402 0.33175 -0.49700
C 	C 	0.28666 0.12441 0.29453 0.50100
O 	O 	0.30547 0.62400 0.75440 -0.39800
O 	O 	0.24203 0.62504 0.79805 -0.35700
O 	O 	0.30993 0.62402 0.83175 -0.49200
C 	C 	0.28666 0.62441 0.79453 0.50100
O 	O 	0.94453 0.62400 0.49560 -0.40000
O 	O 	0.00797 0.62504 0.45195 -0.40600
O 	O 	0.94007 0.62402 0.41825 -0.49300
C 	C 	0.96334 0.62441 0.45547 0.56100
O 	O 	0.94453 0.12400 0.99560 -0.37200
O 	O 	0.00797 0.12504 0.95195 -0.39800
O 	O 	0.94007 0.12402 0.91825 -0.48800
C 	C 	0.96334 0.12441 0.95547 0.55700
O 	O 	0.44453 0.62400 0.99560 -0.36600
O 	O 	0.50797 0.62504 0.95195 -0.34300
O 	O 	0.44007 0.62402 0.91825 -0.48600
C 	C 	0.46334 0.62441 0.95547 0.49800
O 	O 	0.44453 0.12400 0.49560 -0.40100
O 	O 	0.50797 0.12504 0.45195 -0.36100
O 	O 	0.44007 0.12402 0.41825 -0.49600
C 	C 	0.46334 0.12441 0.45547 0.50000
O 	O 	0.05547 0.24560 0.87400 -0.39200
O 	O 	0.99203 0.20195 0.87504 -0.29400
O 	O 	0.05993 0.16825 0.87402 -0.48700
C 	C 	0.03666 0.20547 0.87441 0.44100
O 	O 	0.05547 0.74560 0.37400 -0.39400
O 	O 	0.99203 0.70195 0.37504 -0.29800
O 	O 	0.05993 0.66825 0.37402 -0.48800
C 	C 	0.03666 0.70547 0.37441 0.43900
O 	O 	0.55547 0.24560 0.37400 -0.39800
O 	O 	0.49203 0.20195 0.37504 -0.35600
O 	O 	0.55993 0.16825 0.37402 -0.49500
C 	C 	0.53666 0.20547 0.37441 0.50100
O 	O 	0.55547 0.74560 0.87400 -0.39300
O 	O 	0.49203 0.70195 0.87504 -0.34900
O 	O 	0.55993 0.66825 0.87402 -0.49100
C 	C 	0.53666 0.70547 0.87441 0.50100
O 	O 	0.19453 0.50440 0.37400 -0.39800
O 	O 	0.25797 0.54805 0.37504 -0.35600
O 	O 	0.19007 0.58175 0.37402 -0.49500
C 	C 	0.21334 0.54453 0.37441 0.50100
O 	O 	0.19453 0.00440 0.87400 -0.41800
O 	O 	0.25797 0.04805 0.87504 -0.36300
O 	O 	0.19007 0.08175 0.87402 -0.49800
C 	C 	0.21334 0.04453 0.87441 0.50300
O 	O 	0.69453 0.50440 0.87400 -0.39400
O 	O 	0.75797 0.54805 0.87504 -0.34900
O 	O 	0.69007 0.58175 0.87402 -0.49100
C 	C 	0.71334 0.54453 0.87441 0.50100
O 	O 	0.69453 0.00440 0.37400 -0.42100
O 	O 	0.75797 0.04805 0.37504 -0.36700
O 	O 	0.69007 0.08175 0.37402 -0.49900
C 	C 	0.71334 0.04453 0.37441 0.50300
O 	O 	0.55547 0.00440 0.87600 -0.41900
O 	O 	0.49203 0.04805 0.87496 -0.36300
O 	O 	0.55993 0.08175 0.87598 -0.49600
C 	C 	0.53666 0.04453 0.87559 0.50300
O 	O 	0.55547 0.50440 0.37600 -0.39800
O 	O 	0.49203 0.54805 0.37496 -0.35600
O 	O 	0.55993 0.58175 0.37598 -0.49400
C 	C 	0.53666 0.54453 0.37559 0.50100
O 	O 	0.05547 0.00440 0.37600 -0.41900
O 	O 	0.99203 0.04805 0.37496 -0.31200
O 	O 	0.05993 0.08175 0.37598 -0.49300
C 	C 	0.03666 0.04453 0.37559 0.44200
O 	O 	0.05547 0.50440 0.87600 -0.39200
O 	O 	0.99203 0.54805 0.87496 -0.29400
O 	O 	0.05993 0.58175 0.87598 -0.48500
C 	C 	0.03666 0.54453 0.87559 0.44000
O 	O 	0.69453 0.74560 0.37600 -0.39600
O 	O 	0.75797 0.70195 0.37496 -0.35300
O 	O 	0.69007 0.66825 0.37598 -0.49400
C 	C 	0.71334 0.70547 0.37559 0.50000
O 	O 	0.69453 0.24560 0.87600 -0.39400
O 	O 	0.75797 0.20195 0.87496 -0.34900
O 	O 	0.69007 0.16825 0.87598 -0.49200
C 	C 	0.71334 0.20547 0.87559 0.50100
O 	O 	0.19453 0.74560 0.87600 -0.39300
O 	O 	0.25797 0.70195 0.87496 -0.34900
O 	O 	0.19007 0.66825 0.87598 -0.49200
C 	C 	0.21334 0.70547 0.87559 0.50100
O 	O 	0.19453 0.24560 0.37600 -0.39800
O 	O 	0.25797 0.20195 0.37496 -0.35600
O 	O 	0.19007 0.16825 0.37598 -0.49700
C 	C 	0.21334 0.20547 0.37559 0.50100
O 	O 	0.74560 0.37600 0.69453 -0.39600
O 	O 	0.70195 0.37496 0.75797 -0.35300
O 	O 	0.66825 0.37598 0.69007 -0.49400
C 	C 	0.70547 0.37559 0.71334 0.50000
O 	O 	0.74560 0.87600 0.19453 -0.39300
O 	O 	0.70195 0.87496 0.25797 -0.34900
O 	O 	0.66825 0.87598 0.19007 -0.49200
C 	C 	0.70547 0.87559 0.21334 0.50100
O 	O 	0.24560 0.37600 0.19453 -0.39800
O 	O 	0.20195 0.37496 0.25797 -0.35600
O 	O 	0.16825 0.37598 0.19007 -0.49700
C 	C 	0.20547 0.37559 0.21334 0.50100
O 	O 	0.24560 0.87600 0.69453 -0.39400
O 	O 	0.20195 0.87496 0.75797 -0.34900
O 	O 	0.16825 0.87598 0.69007 -0.49200
C 	C 	0.20547 0.87559 0.71334 0.50100
O 	O 	0.00440 0.87600 0.55547 -0.41900
O 	O 	0.04805 0.87496 0.49203 -0.36300
O 	O 	0.08175 0.87598 0.55993 -0.49600
C 	C 	0.04453 0.87559 0.53666 0.50300
O 	O 	0.00440 0.37600 0.05547 -0.41900
O 	O 	0.04805 0.37496 0.99203 -0.31200
O 	O 	0.08175 0.37598 0.05993 -0.49300
C 	C 	0.04453 0.37559 0.03666 0.44200
O 	O 	0.50440 0.87600 0.05547 -0.39200
O 	O 	0.54805 0.87496 0.99203 -0.29400
O 	O 	0.58175 0.87598 0.05993 -0.48500
C 	C 	0.54453 0.87559 0.03666 0.44000
O 	O 	0.50440 0.37600 0.55547 -0.39800
O 	O 	0.54805 0.37496 0.49203 -0.35600
O 	O 	0.58175 0.37598 0.55993 -0.49400
C 	C 	0.54453 0.37559 0.53666 0.50100
O 	O 	0.50440 0.37400 0.19453 -0.39800
O 	O 	0.54805 0.37504 0.25797 -0.35600
O 	O 	0.58175 0.37402 0.19007 -0.49500
C 	C 	0.54453 0.37441 0.21334 0.50100
O 	O 	0.50440 0.87400 0.69453 -0.39400
O 	O 	0.54805 0.87504 0.75797 -0.34900
O 	O 	0.58175 0.87402 0.69007 -0.49100
C 	C 	0.54453 0.87441 0.71334 0.50100
O 	O 	0.00440 0.37400 0.69453 -0.42100
O 	O 	0.04805 0.37504 0.75797 -0.36700
O 	O 	0.08175 0.37402 0.69007 -0.49900
C 	C 	0.04453 0.37441 0.71334 0.50300
O 	O 	0.00440 0.87400 0.19453 -0.41800
O 	O 	0.04805 0.87504 0.25797 -0.36300
O 	O 	0.08175 0.87402 0.19007 -0.49800
C 	C 	0.04453 0.87441 0.21334 0.50300
O 	O 	0.24560 0.87400 0.05547 -0.39200
O 	O 	0.20195 0.87504 0.99203 -0.29400
O 	O 	0.16825 0.87402 0.05993 -0.48700
C 	C 	0.20547 0.87441 0.03666 0.44100
O 	O 	0.24560 0.37400 0.55547 -0.39800
O 	O 	0.20195 0.37504 0.49203 -0.35600
O 	O 	0.16825 0.37402 0.55993 -0.49500
C 	C 	0.20547 0.37441 0.53666 0.50100
O 	O 	0.74560 0.87400 0.55547 -0.39300
O 	O 	0.70195 0.87504 0.49203 -0.34900
O 	O 	0.66825 0.87402 0.55993 -0.49100
C 	C 	0.70547 0.87441 0.53666 0.50100
O 	O 	0.74560 0.37400 0.05547 -0.39400
O 	O 	0.70195 0.37504 0.99203 -0.29800
O 	O 	0.66825 0.37402 0.05993 -0.48800
C 	C 	0.70547 0.37441 0.03666 0.43900
O 	O 	0.87600 0.55547 0.00440 -0.41900
O 	O 	0.87496 0.49203 0.04805 -0.36300
O 	O 	0.87598 0.55993 0.08175 -0.49600
C 	C 	0.87559 0.53666 0.04453 0.50300
O 	O 	0.87600 0.05547 0.50440 -0.39200
O 	O 	0.87496 0.99203 0.54805 -0.29400
O 	O 	0.87598 0.05993 0.58175 -0.48500
C 	C 	0.87559 0.03666 0.54453 0.44000
O 	O 	0.37600 0.55547 0.50440 -0.39800
O 	O 	0.37496 0.49203 0.54805 -0.35600
O 	O 	0.37598 0.55993 0.58175 -0.49400
C 	C 	0.37559 0.53666 0.54453 0.50100
O 	O 	0.37600 0.05547 0.00440 -0.41900
O 	O 	0.37496 0.99203 0.04805 -0.31200
O 	O 	0.37598 0.05993 0.08175 -0.49300
C 	C 	0.37559 0.03666 0.04453 0.44200
O 	O 	0.37600 0.69453 0.74560 -0.39600
O 	O 	0.37496 0.75797 0.70195 -0.35300
O 	O 	0.37598 0.69007 0.66825 -0.49400
C 	C 	0.37559 0.71334 0.70547 0.50000
O 	O 	0.37600 0.19453 0.24560 -0.39800
O 	O 	0.37496 0.25797 0.20195 -0.35600
O 	O 	0.37598 0.19007 0.16825 -0.49700
C 	C 	0.37559 0.21334 0.20547 0.50100
O 	O 	0.87600 0.69453 0.24560 -0.39400
O 	O 	0.87496 0.75797 0.20195 -0.34900
O 	O 	0.87598 0.69007 0.16825 -0.49200
C 	C 	0.87559 0.71334 0.20547 0.50100
O 	O 	0.87600 0.19453 0.74560 -0.39300
O 	O 	0.87496 0.25797 0.70195 -0.34900
O 	O 	0.87598 0.19007 0.66825 -0.49200
C 	C 	0.87559 0.21334 0.70547 0.50100
O 	O 	0.87400 0.05547 0.24560 -0.39200
O 	O 	0.87504 0.99203 0.20195 -0.29400
O 	O 	0.87402 0.05993 0.16825 -0.48700
C 	C 	0.87441 0.03666 0.20547 0.44100
O 	O 	0.87400 0.55547 0.74560 -0.39300
O 	O 	0.87504 0.49203 0.70195 -0.34900
O 	O 	0.87402 0.55993 0.66825 -0.49100
C 	C 	0.87441 0.53666 0.70547 0.50100
O 	O 	0.37400 0.05547 0.74560 -0.39400
O 	O 	0.37504 0.99203 0.70195 -0.29800
O 	O 	0.37402 0.05993 0.66825 -0.48800
C 	C 	0.37441 0.03666 0.70547 0.43900
O 	O 	0.37400 0.55547 0.24560 -0.39800
O 	O 	0.37504 0.49203 0.20195 -0.35600
O 	O 	0.37402 0.55993 0.16825 -0.49500
C 	C 	0.37441 0.53666 0.20547 0.50100
O 	O 	0.37400 0.19453 0.50440 -0.39800
O 	O 	0.37504 0.25797 0.54805 -0.35600
O 	O 	0.37402 0.19007 0.58175 -0.49500
C 	C 	0.37441 0.21334 0.54453 0.50100
O 	O 	0.37400 0.69453 0.00440 -0.42100
O 	O 	0.37504 0.75797 0.04805 -0.36700
O 	O 	0.37402 0.69007 0.08175 -0.49900
C 	C 	0.37441 0.71334 0.04453 0.50300
O 	O 	0.87400 0.19453 0.00440 -0.41800
O 	O 	0.87504 0.25797 0.04805 -0.36300
O 	O 	0.87402 0.19007 0.08175 -0.49800
C 	C 	0.87441 0.21334 0.04453 0.50300
O 	O 	0.87400 0.69453 0.50440 -0.39400
O 	O 	0.87504 0.75797 0.54805 -0.34900
O 	O 	0.87402 0.69007 0.58175 -0.49100
C 	C 	0.87441 0.71334 0.54453 0.50100
O 	O 	0.00440 0.69453 0.87400 -0.41800
O 	O 	0.04805 0.75797 0.87504 -0.36100
O 	O 	0.08175 0.69007 0.87402 -0.49700
C 	C 	0.04453 0.71334 0.87441 0.50300
O 	O 	0.00440 0.19453 0.37400 -0.42200
O 	O 	0.04805 0.25797 0.37504 -0.36800
O 	O 	0.08175 0.19007 0.37402 -0.50100
C 	C 	0.04453 0.21334 0.37441 0.50300
O 	O 	0.50440 0.69453 0.37400 -0.39700
O 	O 	0.54805 0.75797 0.37504 -0.35400
O 	O 	0.58175 0.69007 0.37402 -0.49400
C 	C 	0.54453 0.71334 0.37441 0.50000
O 	O 	0.50440 0.19453 0.87400 -0.39400
O 	O 	0.54805 0.25797 0.87504 -0.35000
O 	O 	0.58175 0.19007 0.87402 -0.49300
C 	C 	0.54453 0.21334 0.87441 0.50100
O 	O 	0.74560 0.55547 0.37400 -0.39700
O 	O 	0.70195 0.49203 0.37504 -0.35500
O 	O 	0.66825 0.55993 0.37402 -0.49400
C 	C 	0.70547 0.53666 0.37441 0.50000
O 	O 	0.74560 0.05547 0.87400 -0.39100
O 	O 	0.70195 0.99203 0.87504 -0.29300
O 	O 	0.66825 0.05993 0.87402 -0.48500
C 	C 	0.70547 0.03666 0.87441 0.44000
O 	O 	0.24560 0.55547 0.87400 -0.39500
O 	O 	0.20195 0.49203 0.87504 -0.35000
O 	O 	0.16825 0.55993 0.87402 -0.49300
C 	C 	0.20547 0.53666 0.87441 0.50100
O 	O 	0.24560 0.05547 0.37400 -0.39600
O 	O 	0.20195 0.99203 0.37504 -0.29900
O 	O 	0.16825 0.05993 0.37402 -0.48900
C 	C 	0.20547 0.03666 0.37441 0.44000
O 	O 	0.24560 0.19453 0.87600 -0.39500
O 	O 	0.20195 0.25797 0.87496 -0.35000
O 	O 	0.16825 0.19007 0.87598 -0.49400
C 	C 	0.20547 0.21334 0.87559 0.50100
O 	O 	0.24560 0.69453 0.37600 -0.39800
O 	O 	0.20195 0.75797 0.37496 -0.35400
O 	O 	0.16825 0.69007 0.37598 -0.49500
C 	C 	0.20547 0.71334 0.37559 0.50100
O 	O 	0.74560 0.19453 0.37600 -0.39700
O 	O 	0.70195 0.25797 0.37496 -0.35500
O 	O 	0.66825 0.19007 0.37598 -0.49500
C 	C 	0.70547 0.21334 0.37559 0.50000
O 	O 	0.74560 0.69453 0.87600 -0.39300
O 	O 	0.70195 0.75797 0.87496 -0.34800
O 	O 	0.66825 0.69007 0.87598 -0.49100
C 	C 	0.70547 0.71334 0.87559 0.50100
O 	O 	0.50440 0.05547 0.37600 -0.39600
O 	O 	0.54805 0.99203 0.37496 -0.29900
O 	O 	0.58175 0.05993 0.37598 -0.48800
C 	C 	0.54453 0.03666 0.37559 0.43900
O 	O 	0.50440 0.55547 0.87600 -0.39400
O 	O 	0.54805 0.49203 0.87496 -0.35000
O 	O 	0.58175 0.55993 0.87598 -0.49100
C 	C 	0.54453 0.53666 0.87559 0.50100
O 	O 	0.00440 0.05547 0.87600 -0.41600
O 	O 	0.04805 0.99203 0.87496 -0.30700
O 	O 	0.08175 0.05993 0.87598 -0.49100
C 	C 	0.04453 0.03666 0.87559 0.44300
O 	O 	0.00440 0.55547 0.37600 -0.42200
O 	O 	0.04805 0.49203 0.37496 -0.36800
O 	O 	0.08175 0.55993 0.37598 -0.49900
C 	C 	0.04453 0.53666 0.37559 0.50300
O 	O 	0.87400 0.00440 0.69453 -0.41800
O 	O 	0.87504 0.04805 0.75797 -0.36100
O 	O 	0.87402 0.08175 0.69007 -0.49700
C 	C 	0.87441 0.04453 0.71334 0.50300
O 	O 	0.87400 0.50440 0.19453 -0.39400
O 	O 	0.87504 0.54805 0.25797 -0.35000
O 	O 	0.87402 0.58175 0.19007 -0.49300
C 	C 	0.87441 0.54453 0.21334 0.50100
O 	O 	0.37400 0.00440 0.19453 -0.42200
O 	O 	0.37504 0.04805 0.25797 -0.36800
O 	O 	0.37402 0.08175 0.19007 -0.50100
C 	C 	0.37441 0.04453 0.21334 0.50300
O 	O 	0.37400 0.50440 0.69453 -0.39700
O 	O 	0.37504 0.54805 0.75797 -0.35400
O 	O 	0.37402 0.58175 0.69007 -0.49400
C 	C 	0.37441 0.54453 0.71334 0.50000
O 	O 	0.37400 0.74560 0.55547 -0.39700
O 	O 	0.37504 0.70195 0.49203 -0.35500
O 	O 	0.37402 0.66825 0.55993 -0.49400
C 	C 	0.37441 0.70547 0.53666 0.50000
O 	O 	0.37400 0.24560 0.05547 -0.39600
O 	O 	0.37504 0.20195 0.99203 -0.29900
O 	O 	0.37402 0.16825 0.05993 -0.48900
C 	C 	0.37441 0.20547 0.03666 0.44000
O 	O 	0.87400 0.74560 0.05547 -0.39100
O 	O 	0.87504 0.70195 0.99203 -0.29300
O 	O 	0.87402 0.66825 0.05993 -0.48500
C 	C 	0.87441 0.70547 0.03666 0.44000
O 	O 	0.87400 0.24560 0.55547 -0.39500
O 	O 	0.87504 0.20195 0.49203 -0.35000
O 	O 	0.87402 0.16825 0.55993 -0.49300
C 	C 	0.87441 0.20547 0.53666 0.50100
O 	O 	0.87600 0.24560 0.19453 -0.39500
O 	O 	0.87496 0.20195 0.25797 -0.35000
O 	O 	0.87598 0.16825 0.19007 -0.49400
C 	C 	0.87559 0.20547 0.21334 0.50100
O 	O 	0.87600 0.74560 0.69453 -0.39300
O 	O 	0.87496 0.70195 0.75797 -0.34800
O 	O 	0.87598 0.66825 0.69007 -0.49100
C 	C 	0.87559 0.70547 0.71334 0.50100
O 	O 	0.37600 0.24560 0.69453 -0.39800
O 	O 	0.37496 0.20195 0.75797 -0.35400
O 	O 	0.37598 0.16825 0.69007 -0.49500
C 	C 	0.37559 0.20547 0.71334 0.50100
O 	O 	0.37600 0.74560 0.19453 -0.39700
O 	O 	0.37496 0.70195 0.25797 -0.35500
O 	O 	0.37598 0.66825 0.19007 -0.49500
C 	C 	0.37559 0.70547 0.21334 0.50000
O 	O 	0.37600 0.50440 0.05547 -0.39600
O 	O 	0.37496 0.54805 0.99203 -0.29900
O 	O 	0.37598 0.58175 0.05993 -0.48800
C 	C 	0.37559 0.54453 0.03666 0.43900
O 	O 	0.37600 0.00440 0.55547 -0.42200
O 	O 	0.37496 0.04805 0.49203 -0.36800
O 	O 	0.37598 0.08175 0.55993 -0.49900
C 	C 	0.37559 0.04453 0.53666 0.50300
O 	O 	0.87600 0.50440 0.55547 -0.39400
O 	O 	0.87496 0.54805 0.49203 -0.35000
O 	O 	0.87598 0.58175 0.55993 -0.49100
C 	C 	0.87559 0.54453 0.53666 0.50100
O 	O 	0.87600 0.00440 0.05547 -0.41600
O 	O 	0.87496 0.04805 0.99203 -0.30700
O 	O 	0.87598 0.08175 0.05993 -0.49100
C 	C 	0.87559 0.04453 0.03666 0.44300
O 	O 	0.69453 0.87400 0.00440 -0.41800
O 	O 	0.75797 0.87504 0.04805 -0.36100
O 	O 	0.69007 0.87402 0.08175 -0.49700
C 	C 	0.71334 0.87441 0.04453 0.50300
O 	O 	0.69453 0.37400 0.50440 -0.39700
O 	O 	0.75797 0.37504 0.54805 -0.35400
O 	O 	0.69007 0.37402 0.58175 -0.49400
C 	C 	0.71334 0.37441 0.54453 0.50000
O 	O 	0.19453 0.87400 0.50440 -0.39400
O 	O 	0.25797 0.87504 0.54805 -0.35000
O 	O 	0.19007 0.87402 0.58175 -0.49300
C 	C 	0.21334 0.87441 0.54453 0.50100
O 	O 	0.19453 0.37400 0.00440 -0.42200
O 	O 	0.25797 0.37504 0.04805 -0.36800
O 	O 	0.19007 0.37402 0.08175 -0.50100
C 	C 	0.21334 0.37441 0.04453 0.50300
O 	O 	0.55547 0.37400 0.74560 -0.39700
O 	O 	0.49203 0.37504 0.70195 -0.35500
O 	O 	0.55993 0.37402 0.66825 -0.49400
C 	C 	0.53666 0.37441 0.70547 0.50000
O 	O 	0.55547 0.87400 0.24560 -0.39500
O 	O 	0.49203 0.87504 0.20195 -0.35000
O 	O 	0.55993 0.87402 0.16825 -0.49300
C 	C 	0.53666 0.87441 0.20547 0.50100
O 	O 	0.05547 0.37400 0.24560 -0.39600
O 	O 	0.99203 0.37504 0.20195 -0.29900
O 	O 	0.05993 0.37402 0.16825 -0.48900
C 	C 	0.03666 0.37441 0.20547 0.44000
O 	O 	0.05547 0.87400 0.74560 -0.39100
O 	O 	0.99203 0.87504 0.70195 -0.29300
O 	O 	0.05993 0.87402 0.66825 -0.48500
C 	C 	0.03666 0.87441 0.70547 0.44000
O 	O 	0.19453 0.87600 0.24560 -0.39500
O 	O 	0.25797 0.87496 0.20195 -0.35000
O 	O 	0.19007 0.87598 0.16825 -0.49400
C 	C 	0.21334 0.87559 0.20547 0.50100
O 	O 	0.19453 0.37600 0.74560 -0.39700
O 	O 	0.25797 0.37496 0.70195 -0.35500
O 	O 	0.19007 0.37598 0.66825 -0.49500
C 	C 	0.21334 0.37559 0.70547 0.50000
O 	O 	0.69453 0.87600 0.74560 -0.39300
O 	O 	0.75797 0.87496 0.70195 -0.34800
O 	O 	0.69007 0.87598 0.66825 -0.49100
C 	C 	0.71334 0.87559 0.70547 0.50100
O 	O 	0.69453 0.37600 0.24560 -0.39800
O 	O 	0.75797 0.37496 0.20195 -0.35400
O 	O 	0.69007 0.37598 0.16825 -0.49500
C 	C 	0.71334 0.37559 0.20547 0.50100
O 	O 	0.05547 0.37600 0.50440 -0.39600
O 	O 	0.99203 0.37496 0.54805 -0.29900
O 	O 	0.05993 0.37598 0.58175 -0.48800
C 	C 	0.03666 0.37559 0.54453 0.43900
O 	O 	0.05547 0.87600 0.00440 -0.41600
O 	O 	0.99203 0.87496 0.04805 -0.30700
O 	O 	0.05993 0.87598 0.08175 -0.49100
C 	C 	0.03666 0.87559 0.04453 0.44300
O 	O 	0.55547 0.37600 0.00440 -0.42200
O 	O 	0.49203 0.37496 0.04805 -0.36800
O 	O 	0.55993 0.37598 0.08175 -0.49900
C 	C 	0.53666 0.37559 0.04453 0.50300
O 	O 	0.55547 0.87600 0.50440 -0.39400
O 	O 	0.49203 0.87496 0.54805 -0.35000
O 	O 	0.55993 0.87598 0.58175 -0.49100
C 	C 	0.53666 0.87559 0.54453 0.50100
O 	O 	0.94453 0.75440 0.12600 -0.40300
O 	O 	0.00797 0.79805 0.12496 -0.41100
O 	O 	0.94007 0.83175 0.12598 -0.49400
C 	C 	0.96334 0.79453 0.12559 0.56000
O 	O 	0.94453 0.25440 0.62600 -0.40100
O 	O 	0.00797 0.29805 0.62496 -0.40700
O 	O 	0.94007 0.33175 0.62598 -0.49300
C 	C 	0.96334 0.29453 0.62559 0.56200
O 	O 	0.44453 0.75440 0.62600 -0.39800
O 	O 	0.50797 0.79805 0.62496 -0.35500
O 	O 	0.44007 0.83175 0.62598 -0.49200
C 	C 	0.46334 0.79453 0.62559 0.50100
O 	O 	0.44453 0.25440 0.12600 -0.40300
O 	O 	0.50797 0.29805 0.12496 -0.36100
O 	O 	0.44007 0.33175 0.12598 -0.49600
C 	C 	0.46334 0.29453 0.12559 0.50000
O 	O 	0.80547 0.49560 0.62600 -0.39800
O 	O 	0.74203 0.45195 0.62496 -0.35500
O 	O 	0.80993 0.41825 0.62598 -0.49200
C 	C 	0.78666 0.45547 0.62559 0.50100
O 	O 	0.80547 0.99560 0.12600 -0.37000
O 	O 	0.74203 0.95195 0.12496 -0.34800
O 	O 	0.80993 0.91825 0.12598 -0.48700
C 	C 	0.78666 0.95547 0.12559 0.49700
O 	O 	0.30547 0.49560 0.12600 -0.40200
O 	O 	0.24203 0.45195 0.12496 -0.36200
O 	O 	0.30993 0.41825 0.12598 -0.49600
C 	C 	0.28666 0.45547 0.12559 0.50000
O 	O 	0.30547 0.99560 0.62600 -0.36700
O 	O 	0.24203 0.95195 0.62496 -0.34400
O 	O 	0.30993 0.91825 0.62598 -0.48600
C 	C 	0.28666 0.95547 0.62559 0.49800
O 	O 	0.44453 0.99560 0.12400 -0.37000
O 	O 	0.50797 0.95195 0.12504 -0.34800
O 	O 	0.44007 0.91825 0.12402 -0.48900
C 	C 	0.46334 0.95547 0.12441 0.49700
O 	O 	0.44453 0.49560 0.62400 -0.39800
O 	O 	0.50797 0.45195 0.62504 -0.35500
O 	O 	0.44007 0.41825 0.62402 -0.49400
C 	C 	0.46334 0.45547 0.62441 0.50100
O 	O 	0.94453 0.99560 0.62400 -0.36900
O 	O 	0.00797 0.95195 0.62504 -0.39300
O 	O 	0.94007 0.91825 0.62402 -0.48500
C 	C 	0.96334 0.95547 0.62441 0.55800
O 	O 	0.94453 0.49560 0.12400 -0.40400
O 	O 	0.00797 0.45195 0.12504 -0.41100
O 	O 	0.94007 0.41825 0.12402 -0.49600
C 	C 	0.96334 0.45547 0.12441 0.56100
O 	O 	0.30547 0.25440 0.62400 -0.40000
O 	O 	0.24203 0.29805 0.62504 -0.35800
O 	O 	0.30993 0.33175 0.62402 -0.49400
C 	C 	0.28666 0.29453 0.62441 0.50100
O 	O 	0.30547 0.75440 0.12400 -0.40200
O 	O 	0.24203 0.79805 0.12504 -0.36200
O 	O 	0.30993 0.83175 0.12402 -0.49500
C 	C 	0.28666 0.79453 0.12441 0.50000
O 	O 	0.80547 0.25440 0.12400 -0.40200
O 	O 	0.74203 0.29805 0.12504 -0.36100
O 	O 	0.80993 0.33175 0.12402 -0.49500
C 	C 	0.78666 0.29453 0.12441 0.50100
O 	O 	0.80547 0.75440 0.62400 -0.39700
O 	O 	0.74203 0.79805 0.62504 -0.35500
O 	O 	0.80993 0.83175 0.62402 -0.49100
C 	C 	0.78666 0.79453 0.62441 0.50100
O 	O 	0.25440 0.62400 0.30547 -0.40000
O 	O 	0.29805 0.62504 0.24203 -0.35800
O 	O 	0.33175 0.62402 0.30993 -0.49400
C 	C 	0.29453 0.62441 0.28666 0.50100
O 	O 	0.25440 0.12400 0.80547 -0.40200
O 	O 	0.29805 0.12504 0.74203 -0.36100
O 	O 	0.33175 0.12402 0.80993 -0.49500
C 	C 	0.29453 0.12441 0.78666 0.50100
O 	O 	0.75440 0.62400 0.80547 -0.39700
O 	O 	0.79805 0.62504 0.74203 -0.35500
O 	O 	0.83175 0.62402 0.80993 -0.49100
C 	C 	0.79453 0.62441 0.78666 0.50100
O 	O 	0.75440 0.12400 0.30547 -0.40200
O 	O 	0.79805 0.12504 0.24203 -0.36200
O 	O 	0.83175 0.12402 0.30993 -0.49500
C 	C 	0.79453 0.12441 0.28666 0.50000
O 	O 	0.99560 0.12400 0.44453 -0.37000
O 	O 	0.95195 0.12504 0.50797 -0.34800
O 	O 	0.91825 0.12402 0.44007 -0.48900
C 	C 	0.95547 0.12441 0.46334 0.49700
O 	O 	0.99560 0.62400 0.94453 -0.36900
O 	O 	0.95195 0.62504 0.00797 -0.39300
O 	O 	0.91825 0.62402 0.94007 -0.48500
C 	C 	0.95547 0.62441 0.96334 0.55800
O 	O 	0.49560 0.12400 0.94453 -0.40400
O 	O 	0.45195 0.12504 0.00797 -0.41100
O 	O 	0.41825 0.12402 0.94007 -0.49600
C 	C 	0.45547 0.12441 0.96334 0.56100
O 	O 	0.49560 0.62400 0.44453 -0.39800
O 	O 	0.45195 0.62504 0.50797 -0.35500
O 	O 	0.41825 0.62402 0.44007 -0.49400
C 	C 	0.45547 0.62441 0.46334 0.50100
O 	O 	0.49560 0.62600 0.80547 -0.39800
O 	O 	0.45195 0.62496 0.74203 -0.35500
O 	O 	0.41825 0.62598 0.80993 -0.49200
C 	C 	0.45547 0.62559 0.78666 0.50100
O 	O 	0.49560 0.12600 0.30547 -0.40200
O 	O 	0.45195 0.12496 0.24203 -0.36200
O 	O 	0.41825 0.12598 0.30993 -0.49600
C 	C 	0.45547 0.12559 0.28666 0.50000
O 	O 	0.99560 0.62600 0.30547 -0.36700
O 	O 	0.95195 0.62496 0.24203 -0.34400
O 	O 	0.91825 0.62598 0.30993 -0.48600
C 	C 	0.95547 0.62559 0.28666 0.49800
O 	O 	0.99560 0.12600 0.80547 -0.37000
O 	O 	0.95195 0.12496 0.74203 -0.34800
O 	O 	0.91825 0.12598 0.80993 -0.48700
C 	C 	0.95547 0.12559 0.78666 0.49700
O 	O 	0.75440 0.12600 0.94453 -0.40300
O 	O 	0.79805 0.12496 0.00797 -0.41100
O 	O 	0.83175 0.12598 0.94007 -0.49400
C 	C 	0.79453 0.12559 0.96334 0.56000
O 	O 	0.75440 0.62600 0.44453 -0.39800
O 	O 	0.79805 0.62496 0.50797 -0.35500
O 	O 	0.83175 0.62598 0.44007 -0.49200
C 	C 	0.79453 0.62559 0.46334 0.50100
O 	O 	0.25440 0.12600 0.44453 -0.40300
O 	O 	0.29805 0.12496 0.50797 -0.36100
O 	O 	0.33175 0.12598 0.44007 -0.49600
C 	C 	0.29453 0.12559 0.46334 0.50000
O 	O 	0.25440 0.62600 0.94453 -0.40100
O 	O 	0.29805 0.62496 0.00797 -0.40700
O 	O 	0.33175 0.62598 0.94007 -0.49300
C 	C 	0.29453 0.62559 0.96334 0.56200
O 	O 	0.12400 0.44453 0.99560 -0.37000
O 	O 	0.12504 0.50797 0.95195 -0.34800
O 	O 	0.12402 0.44007 0.91825 -0.48900
C 	C 	0.12441 0.46334 0.95547 0.49700
O 	O 	0.12400 0.94453 0.49560 -0.40400
O 	O 	0.12504 0.00797 0.45195 -0.41100
O 	O 	0.12402 0.94007 0.41825 -0.49600
C 	C 	0.12441 0.96334 0.45547 0.56100
O 	O 	0.62400 0.44453 0.49560 -0.39800
O 	O 	0.62504 0.50797 0.45195 -0.35500
O 	O 	0.62402 0.44007 0.41825 -0.49400
C 	C 	0.62441 0.46334 0.45547 0.50100
O 	O 	0.62400 0.94453 0.99560 -0.36900
O 	O 	0.62504 0.00797 0.95195 -0.39300
O 	O 	0.62402 0.94007 0.91825 -0.48500
C 	C 	0.62441 0.96334 0.95547 0.55800
O 	O 	0.62400 0.30547 0.25440 -0.40000
O 	O 	0.62504 0.24203 0.29805 -0.35800
O 	O 	0.62402 0.30993 0.33175 -0.49400
C 	C 	0.62441 0.28666 0.29453 0.50100
O 	O 	0.62400 0.80547 0.75440 -0.39700
O 	O 	0.62504 0.74203 0.79805 -0.35500
O 	O 	0.62402 0.80993 0.83175 -0.49100
C 	C 	0.62441 0.78666 0.79453 0.50100
O 	O 	0.12400 0.30547 0.75440 -0.40200
O 	O 	0.12504 0.24203 0.79805 -0.36200
O 	O 	0.12402 0.30993 0.83175 -0.49500
C 	C 	0.12441 0.28666 0.79453 0.50000
O 	O 	0.12400 0.80547 0.25440 -0.40200
O 	O 	0.12504 0.74203 0.29805 -0.36100
O 	O 	0.12402 0.80993 0.33175 -0.49500
C 	C 	0.12441 0.78666 0.29453 0.50100
O 	O 	0.12600 0.94453 0.75440 -0.40300
O 	O 	0.12496 0.00797 0.79805 -0.41100
O 	O 	0.12598 0.94007 0.83175 -0.49400
C 	C 	0.12559 0.96334 0.79453 0.56000
O 	O 	0.12600 0.44453 0.25440 -0.40300
O 	O 	0.12496 0.50797 0.29805 -0.36100
O 	O 	0.12598 0.44007 0.33175 -0.49600
C 	C 	0.12559 0.46334 0.29453 0.50000
O 	O 	0.62600 0.94453 0.25440 -0.40100
O 	O 	0.62496 0.00797 0.29805 -0.40700
O 	O 	0.62598 0.94007 0.33175 -0.49300
C 	C 	0.62559 0.96334 0.29453 0.56200
O 	O 	0.62600 0.44453 0.75440 -0.39800
O 	O 	0.62496 0.50797 0.79805 -0.35500
O 	O 	0.62598 0.44007 0.83175 -0.49200
C 	C 	0.62559 0.46334 0.79453 0.50100
O 	O 	0.62600 0.80547 0.49560 -0.39800
O 	O 	0.62496 0.74203 0.45195 -0.35500
O 	O 	0.62598 0.80993 0.41825 -0.49200
C 	C 	0.62559 0.78666 0.45547 0.50100
O 	O 	0.62600 0.30547 0.99560 -0.36700
O 	O 	0.62496 0.24203 0.95195 -0.34400
O 	O 	0.62598 0.30993 0.91825 -0.48600
C 	C 	0.62559 0.28666 0.95547 0.49800
O 	O 	0.12600 0.80547 0.99560 -0.37000
O 	O 	0.12496 0.74203 0.95195 -0.34800
O 	O 	0.12598 0.80993 0.91825 -0.48700
C 	C 	0.12559 0.78666 0.95547 0.49700
O 	O 	0.12600 0.30547 0.49560 -0.40200
O 	O 	0.12496 0.24203 0.45195 -0.36200
O 	O 	0.12598 0.30993 0.41825 -0.49600
C 	C 	0.12559 0.28666 0.45547 0.50000
Co	Co	-0.00000 0.37635 0.12635 1.17200
Co	Co	0.50000 0.37635 0.62635 1.19500
Co	Co	0.25000 0.37365 0.62635 1.19500
Co	Co	0.75000 0.37365 0.12635 1.19500
Co	Co	0.75000 0.87635 0.12365 1.19600
Co	Co	0.25000 0.87635 0.62365 1.19600
Co	Co	0.50000 0.87365 0.62365 1.19600
Co	Co	-0.00000 0.87365 0.12365 1.17300
Co	Co	0.12635 -0.00000 0.37635 1.17200
Co	Co	0.12635 0.50000 0.87635 1.19500
Co	Co	0.62635 0.25000 0.37365 1.19500
Co	Co	0.62635 0.75000 0.87365 1.19600
Co	Co	0.12365 0.75000 0.87635 1.19600
Co	Co	0.12365 0.25000 0.37635 1.19500
Co	Co	0.62365 0.50000 0.87365 1.19600
Co	Co	0.62365 0.00000 0.37365 1.17200
Co	Co	0.37635 0.12635 -0.00000 1.17200
Co	Co	0.37635 0.62635 0.50000 1.19500
Co	Co	0.37365 0.62635 0.25000 1.19500
Co	Co	0.37365 0.12635 0.75000 1.19500
Co	Co	0.87635 0.12365 0.75000 1.19600
Co	Co	0.87635 0.62365 0.25000 1.19600
Co	Co	0.87365 0.62365 0.50000 1.19600
Co	Co	0.87365 0.12365 -0.00000 1.17300
Co	Co	0.12635 0.25000 0.87365 1.19500
Co	Co	0.12635 0.75000 0.37365 1.19500
Co	Co	0.12365 0.50000 0.37365 1.19500
Co	Co	0.12365 0.00000 0.87365 1.17300
Co	Co	0.62635 -0.00000 0.87635 1.17300
Co	Co	0.62635 0.50000 0.37635 1.19500
Co	Co	0.62365 0.75000 0.37635 1.19600
Co	Co	0.62365 0.25000 0.87635 1.19600
Co	Co	0.75000 0.37635 0.62365 1.19600
Co	Co	0.25000 0.37635 0.12365 1.19500
Co	Co	0.00000 0.87635 0.62635 1.17300
Co	Co	0.50000 0.87635 0.12635 1.19500
Co	Co	0.50000 0.37365 0.12365 1.19500
Co	Co	0.00000 0.37365 0.62365 1.17200
Co	Co	0.25000 0.87365 0.12635 1.19500
Co	Co	0.75000 0.87365 0.62635 1.19600
Co	Co	0.87635 0.62635 -0.00000 1.17300
Co	Co	0.87635 0.12635 0.50000 1.19500
Co	Co	0.37635 0.62365 0.75000 1.19600
Co	Co	0.37635 0.12365 0.25000 1.19500
Co	Co	0.87365 0.12635 0.25000 1.19500
Co	Co	0.87365 0.62635 0.75000 1.19600
Co	Co	0.37365 0.12365 0.50000 1.19500
Co	Co	0.37365 0.62365 -0.00000 1.17200
Co	Co	0.00000 0.62365 0.87365 1.17300
Co	Co	0.50000 0.62365 0.37365 1.19500
Co	Co	0.75000 0.62635 0.37365 1.19600
Co	Co	0.25000 0.62635 0.87365 1.19600
Co	Co	0.25000 0.12365 0.87635 1.19500
Co	Co	0.75000 0.12365 0.37635 1.19500
Co	Co	0.50000 0.12635 0.37635 1.19500
Co	Co	-0.00000 0.12635 0.87635 1.17200
Co	Co	0.87365 0.00000 0.62365 1.17300
Co	Co	0.87365 0.50000 0.12365 1.19600
Co	Co	0.37365 0.75000 0.62635 1.19600
Co	Co	0.37365 0.25000 0.12635 1.19500
Co	Co	0.87635 0.25000 0.12365 1.19500
Co	Co	0.87635 0.75000 0.62365 1.19600
Co	Co	0.37635 0.50000 0.12635 1.19500
Co	Co	0.37635 0.00000 0.62635 1.17200
Co	Co	0.62365 0.87365 -0.00000 1.17300
Co	Co	0.62365 0.37365 0.50000 1.19500
Co	Co	0.62635 0.37365 0.75000 1.19600
Co	Co	0.62635 0.87365 0.25000 1.19600
Co	Co	0.12365 0.87635 0.25000 1.19500
Co	Co	0.12365 0.37635 0.75000 1.19500
Co	Co	0.12635 0.37635 0.50000 1.19500
Co	Co	0.12635 0.87635 -0.00000 1.17200
Co	Co	0.87365 0.75000 0.12635 1.19600
Co	Co	0.87365 0.25000 0.62635 1.19600
Co	Co	0.87635 0.50000 0.62635 1.19600
Co	Co	0.87635 -0.00000 0.12635 1.17200
Co	Co	0.37365 0.00000 0.12365 1.17200
Co	Co	0.37365 0.50000 0.62365 1.19500
Co	Co	0.37635 0.25000 0.62365 1.19500
Co	Co	0.37635 0.75000 0.12365 1.19500
Co	Co	0.25000 0.62365 0.37635 1.19500
Co	Co	0.75000 0.62365 0.87635 1.19600
Co	Co	0.00000 0.12365 0.37365 1.17200
Co	Co	0.50000 0.12365 0.87365 1.19600
Co	Co	0.50000 0.62635 0.87635 1.19600
Co	Co	-0.00000 0.62635 0.37635 1.17200
Co	Co	0.75000 0.12635 0.87365 1.19600
Co	Co	0.25000 0.12635 0.37365 1.19500
Co	Co	0.12365 0.37365 -0.00000 1.17200
Co	Co	0.12365 0.87365 0.50000 1.19600
Co	Co	0.62365 0.37635 0.25000 1.19500
Co	Co	0.62365 0.87635 0.75000 1.19600
Co	Co	0.12635 0.87365 0.75000 1.19600
Co	Co	0.12635 0.37365 0.25000 1.19500
Co	Co	0.62635 0.87635 0.50000 1.19600
Co	Co	0.62635 0.37635 -0.00000 1.17200
Na	Na	0.12500 0.37500 0.12500 0.59300
Na	Na	0.12500 0.37500 0.62500 0.59400
Na	Na	0.12500 0.87500 0.12500 0.59400
Na	Na	0.62500 0.87500 0.12500 0.59500
Na	Na	0.62500 0.37500 0.62500 0.59500
Na	Na	0.62500 0.87500 0.62500 0.59600
Na	Na	0.12500 0.12500 0.37500 0.59300
Na	Na	0.62500 0.12500 0.37500 0.59400
Na	Na	0.12500 0.62500 0.87500 0.59500
Na	Na	0.62500 0.62500 0.87500 0.59600
Na	Na	0.37500 0.12500 0.12500 0.59300
Na	Na	0.37500 0.62500 0.62500 0.59500
Na	Na	0.37500 0.62500 0.12500 0.59400
Na	Na	0.87500 0.12500 0.62500 0.59500
Na	Na	0.87500 0.62500 0.62500 0.59600
Na	Na	0.87500 0.12500 0.12500 0.59400
Na	Na	0.12500 0.37500 0.87500 0.59500
Na	Na	0.12500 0.37500 0.37500 0.59400
Na	Na	0.12500 0.87500 0.87500 0.59600
Na	Na	0.62500 0.87500 0.87500 0.59700
Na	Na	0.62500 0.37500 0.37500 0.59500
Na	Na	0.62500 0.87500 0.37500 0.59600
Na	Na	0.87500 0.37500 0.62500 0.59600
Na	Na	0.87500 0.87500 0.12500 0.59600
Na	Na	0.87500 0.87500 0.62500 0.59700
Na	Na	0.37500 0.37500 0.12500 0.59400
Na	Na	0.37500 0.87500 0.12500 0.59500
Na	Na	0.37500 0.37500 0.62500 0.59500
Na	Na	0.87500 0.62500 0.87500 0.59700
Na	Na	0.37500 0.62500 0.87500 0.59600
Na	Na	0.87500 0.12500 0.37500 0.59500
Na	Na	0.37500 0.12500 0.37500 0.59400
Na	Na	0.87500 0.62500 0.37500 0.59600
Na	Na	0.87500 0.12500 0.87500 0.59600
Na	Na	0.37500 0.12500 0.87500 0.59500
Na	Na	0.37500 0.62500 0.37500 0.59500
Na	Na	0.37500 0.87500 0.62500 0.59600
Na	Na	0.87500 0.37500 0.12500 0.59500
Na	Na	0.62500 0.37500 0.87500 0.59600
Na	Na	0.12500 0.87500 0.37500 0.59500
Na	Na	0.87500 0.62500 0.12500 0.59500
Na	Na	0.37500 0.12500 0.62500 0.59400
Na	Na	0.12500 0.62500 0.37500 0.59400
Na	Na	0.12500 0.12500 0.87500 0.59400
Na	Na	0.62500 0.12500 0.87500 0.59500
Na	Na	0.62500 0.62500 0.37500 0.59500
Na	Na	0.62500 0.37500 0.12500 0.59400
Na	Na	0.12500 0.87500 0.62500 0.59500
