data_crystal

_cell_length_a 28.97360
_cell_length_b 28.97360
_cell_length_c 28.97360
_cell_angle_alpha 90.00000
_cell_angle_beta  90.00000
_cell_angle_gamma 90.00000

_symmetry_space_group_name_	'P 1'
_symmetry_space_group_name_H-M	'P 1'

loop_
_symmetry_equiv_pos_as_xyz
  x,y,z

loop_
_atom_site_label
_atom_site_type_symbol
_atom_site_fract_x
_atom_site_fract_y
_atom_site_fract_z
_atom_site_charge
O 	O 	0.99479 0.30507 0.12512 -0.38500
O 	O 	0.95206 0.24119 0.12490 -0.34600
O 	O 	0.91759 0.30885 0.12763 -0.49700
C 	C 	0.95490 0.28570 0.12587 0.49900
O 	O 	0.99479 0.80507 0.62512 -0.38100
O 	O 	0.95206 0.74119 0.62490 -0.34000
O 	O 	0.91759 0.80885 0.62763 -0.49300
C 	C 	0.95490 0.78570 0.62587 0.50000
O 	O 	0.49479 0.30507 0.62512 -0.41300
O 	O 	0.45206 0.24119 0.62490 -0.35400
O 	O 	0.41759 0.30885 0.62763 -0.50200
C 	C 	0.45490 0.28570 0.62587 0.50300
O 	O 	0.49479 0.80507 0.12512 -0.41600
O 	O 	0.45206 0.74119 0.12490 -0.35800
O 	O 	0.41759 0.80885 0.12763 -0.50300
C 	C 	0.45490 0.78570 0.12587 0.50200
O 	O 	0.25521 0.44493 0.62512 -0.41300
O 	O 	0.29794 0.50881 0.62490 -0.35400
O 	O 	0.33241 0.44115 0.62763 -0.50200
C 	C 	0.29510 0.46430 0.62587 0.50300
O 	O 	0.25521 0.94493 0.12512 -0.42000
O 	O 	0.29794 0.00881 0.12490 -0.41200
O 	O 	0.33241 0.94115 0.12763 -0.50400
C 	C 	0.29510 0.96430 0.12587 0.56500
O 	O 	0.75521 0.44493 0.12512 -0.41600
O 	O 	0.79794 0.50881 0.12490 -0.35800
O 	O 	0.83241 0.44115 0.12763 -0.50300
C 	C 	0.79510 0.46430 0.12587 0.50100
O 	O 	0.75521 0.94493 0.62512 -0.41500
O 	O 	0.79794 0.00881 0.62490 -0.40700
O 	O 	0.83241 0.94115 0.62763 -0.50100
C 	C 	0.79510 0.96430 0.62587 0.56400
O 	O 	0.75521 0.80507 0.12488 -0.41600
O 	O 	0.79794 0.74119 0.12510 -0.35900
O 	O 	0.83241 0.80885 0.12237 -0.50400
C 	C 	0.79510 0.78570 0.12413 0.50100
O 	O 	0.75521 0.30507 0.62488 -0.41400
O 	O 	0.79794 0.24119 0.62510 -0.35500
O 	O 	0.83241 0.30885 0.62237 -0.50200
C 	C 	0.79510 0.28570 0.62413 0.50200
O 	O 	0.25521 0.80507 0.62488 -0.41400
O 	O 	0.29794 0.74119 0.62510 -0.35500
O 	O 	0.33241 0.80885 0.62237 -0.50200
C 	C 	0.29510 0.78570 0.62413 0.50200
O 	O 	0.25521 0.30507 0.12488 -0.41900
O 	O 	0.29794 0.24119 0.12510 -0.36200
O 	O 	0.33241 0.30885 0.12237 -0.50700
C 	C 	0.29510 0.28570 0.12413 0.50200
O 	O 	0.49479 0.94493 0.62488 -0.41600
O 	O 	0.45206 0.00881 0.62510 -0.40700
O 	O 	0.41759 0.94115 0.62237 -0.50300
C 	C 	0.45490 0.96430 0.62413 0.56500
O 	O 	0.49479 0.44493 0.12488 -0.41700
O 	O 	0.45206 0.50881 0.12510 -0.35900
O 	O 	0.41759 0.44115 0.12237 -0.50600
C 	C 	0.45490 0.46430 0.12413 0.50100
O 	O 	0.99479 0.94493 0.12488 -0.38800
O 	O 	0.95206 0.00881 0.12510 -0.39900
O 	O 	0.91759 0.94115 0.12237 -0.49900
C 	C 	0.95490 0.96430 0.12413 0.56000
O 	O 	0.99479 0.44493 0.62488 -0.38100
O 	O 	0.95206 0.50881 0.62510 -0.34100
O 	O 	0.91759 0.44115 0.62237 -0.49600
C 	C 	0.95490 0.46430 0.62413 0.49800
O 	O 	0.12512 0.99479 0.30507 -0.38600
O 	O 	0.12490 0.95206 0.24119 -0.34700
O 	O 	0.12763 0.91759 0.30885 -0.49800
C 	C 	0.12587 0.95490 0.28570 0.49800
O 	O 	0.12512 0.49479 0.80507 -0.41700
O 	O 	0.12490 0.45206 0.74119 -0.35900
O 	O 	0.12763 0.41759 0.80885 -0.50400
C 	C 	0.12587 0.45490 0.78570 0.50100
O 	O 	0.62512 0.99479 0.80507 -0.38200
O 	O 	0.62490 0.95206 0.74119 -0.34100
O 	O 	0.62763 0.91759 0.80885 -0.49400
C 	C 	0.62587 0.95490 0.78570 0.49900
O 	O 	0.62512 0.49479 0.30507 -0.41400
O 	O 	0.62490 0.45206 0.24119 -0.35500
O 	O 	0.62763 0.41759 0.30885 -0.50300
C 	C 	0.62587 0.45490 0.28570 0.50200
O 	O 	0.62512 0.25521 0.44493 -0.41400
O 	O 	0.62490 0.29794 0.50881 -0.35500
O 	O 	0.62763 0.33241 0.44115 -0.50300
C 	C 	0.62587 0.29510 0.46430 0.50200
O 	O 	0.62512 0.75521 0.94493 -0.41500
O 	O 	0.62490 0.79794 0.00881 -0.40700
O 	O 	0.62763 0.83241 0.94115 -0.50100
C 	C 	0.62587 0.79510 0.96430 0.56400
O 	O 	0.12512 0.25521 0.94493 -0.42100
O 	O 	0.12490 0.29794 0.00881 -0.41300
O 	O 	0.12763 0.33241 0.94115 -0.50500
C 	C 	0.12587 0.29510 0.96430 0.56400
O 	O 	0.12512 0.75521 0.44493 -0.41700
O 	O 	0.12490 0.79794 0.50881 -0.35900
O 	O 	0.12763 0.83241 0.44115 -0.50400
C 	C 	0.12587 0.79510 0.46430 0.50100
O 	O 	0.12488 0.75521 0.80507 -0.41600
O 	O 	0.12510 0.79794 0.74119 -0.35900
O 	O 	0.12237 0.83241 0.80885 -0.50400
C 	C 	0.12413 0.79510 0.78570 0.50100
O 	O 	0.12488 0.25521 0.30507 -0.41900
O 	O 	0.12510 0.29794 0.24119 -0.36200
O 	O 	0.12237 0.33241 0.30885 -0.50700
C 	C 	0.12413 0.29510 0.28570 0.50200
O 	O 	0.62488 0.75521 0.30507 -0.41400
O 	O 	0.62510 0.79794 0.24119 -0.35500
O 	O 	0.62237 0.83241 0.30885 -0.50200
C 	C 	0.62413 0.79510 0.28570 0.50200
O 	O 	0.62488 0.25521 0.80507 -0.41400
O 	O 	0.62510 0.29794 0.74119 -0.35500
O 	O 	0.62237 0.33241 0.80885 -0.50200
C 	C 	0.62413 0.29510 0.78570 0.50200
O 	O 	0.62488 0.49479 0.94493 -0.41600
O 	O 	0.62510 0.45206 0.00881 -0.40700
O 	O 	0.62237 0.41759 0.94115 -0.50300
C 	C 	0.62413 0.45490 0.96430 0.56500
O 	O 	0.62488 0.99479 0.44493 -0.38100
O 	O 	0.62510 0.95206 0.50881 -0.34100
O 	O 	0.62237 0.91759 0.44115 -0.49600
C 	C 	0.62413 0.95490 0.46430 0.49800
O 	O 	0.12488 0.49479 0.44493 -0.41700
O 	O 	0.12510 0.45206 0.50881 -0.35900
O 	O 	0.12237 0.41759 0.44115 -0.50600
C 	C 	0.12413 0.45490 0.46430 0.50100
O 	O 	0.12488 0.99479 0.94493 -0.38800
O 	O 	0.12510 0.95206 0.00881 -0.39900
O 	O 	0.12237 0.91759 0.94115 -0.49900
C 	C 	0.12413 0.95490 0.96430 0.56000
O 	O 	0.30507 0.12512 0.99479 -0.38600
O 	O 	0.24119 0.12490 0.95206 -0.34700
O 	O 	0.30885 0.12763 0.91759 -0.49800
C 	C 	0.28570 0.12587 0.95490 0.49800
O 	O 	0.30507 0.62512 0.49479 -0.41400
O 	O 	0.24119 0.62490 0.45206 -0.35500
O 	O 	0.30885 0.62763 0.41759 -0.50300
C 	C 	0.28570 0.62587 0.45490 0.50200
O 	O 	0.80507 0.12512 0.49479 -0.41700
O 	O 	0.74119 0.12490 0.45206 -0.35900
O 	O 	0.80885 0.12763 0.41759 -0.50400
C 	C 	0.78570 0.12587 0.45490 0.50100
O 	O 	0.80507 0.62512 0.99479 -0.38200
O 	O 	0.74119 0.62490 0.95206 -0.34100
O 	O 	0.80885 0.62763 0.91759 -0.49400
C 	C 	0.78570 0.62587 0.95490 0.49900
O 	O 	0.44493 0.62512 0.25521 -0.41400
O 	O 	0.50881 0.62490 0.29794 -0.35500
O 	O 	0.44115 0.62763 0.33241 -0.50300
C 	C 	0.46430 0.62587 0.29510 0.50200
O 	O 	0.44493 0.12512 0.75521 -0.41700
O 	O 	0.50881 0.12490 0.79794 -0.35900
O 	O 	0.44115 0.12763 0.83241 -0.50400
C 	C 	0.46430 0.12587 0.79510 0.50100
O 	O 	0.94493 0.62512 0.75521 -0.41500
O 	O 	0.00881 0.62490 0.79794 -0.40700
O 	O 	0.94115 0.62763 0.83241 -0.50100
C 	C 	0.96430 0.62587 0.79510 0.56400
O 	O 	0.94493 0.12512 0.25521 -0.42100
O 	O 	0.00881 0.12490 0.29794 -0.41300
O 	O 	0.94115 0.12763 0.33241 -0.50500
C 	C 	0.96430 0.12587 0.29510 0.56400
O 	O 	0.80507 0.12488 0.75521 -0.41600
O 	O 	0.74119 0.12510 0.79794 -0.35900
O 	O 	0.80885 0.12237 0.83241 -0.50400
C 	C 	0.78570 0.12413 0.79510 0.50100
O 	O 	0.80507 0.62488 0.25521 -0.41400
O 	O 	0.74119 0.62510 0.29794 -0.35500
O 	O 	0.80885 0.62237 0.33241 -0.50200
C 	C 	0.78570 0.62413 0.29510 0.50200
O 	O 	0.30507 0.12488 0.25521 -0.41900
O 	O 	0.24119 0.12510 0.29794 -0.36200
O 	O 	0.30885 0.12237 0.33241 -0.50700
C 	C 	0.28570 0.12413 0.29510 0.50200
O 	O 	0.30507 0.62488 0.75521 -0.41400
O 	O 	0.24119 0.62510 0.79794 -0.35500
O 	O 	0.30885 0.62237 0.83241 -0.50200
C 	C 	0.28570 0.62413 0.79510 0.50200
O 	O 	0.94493 0.62488 0.49479 -0.41600
O 	O 	0.00881 0.62510 0.45206 -0.40700
O 	O 	0.94115 0.62237 0.41759 -0.50300
C 	C 	0.96430 0.62413 0.45490 0.56500
O 	O 	0.94493 0.12488 0.99479 -0.38800
O 	O 	0.00881 0.12510 0.95206 -0.39900
O 	O 	0.94115 0.12237 0.91759 -0.49900
C 	C 	0.96430 0.12413 0.95490 0.56000
O 	O 	0.44493 0.62488 0.99479 -0.38100
O 	O 	0.50881 0.62510 0.95206 -0.34100
O 	O 	0.44115 0.62237 0.91759 -0.49600
C 	C 	0.46430 0.62413 0.95490 0.49800
O 	O 	0.44493 0.12488 0.49479 -0.41700
O 	O 	0.50881 0.12510 0.45206 -0.35900
O 	O 	0.44115 0.12237 0.41759 -0.50600
C 	C 	0.46430 0.12413 0.45490 0.50100
O 	O 	0.05507 0.24479 0.87488 -0.40700
O 	O 	0.99119 0.20206 0.87510 -0.29200
O 	O 	0.05885 0.16759 0.87237 -0.49800
C 	C 	0.03570 0.20490 0.87413 0.44000
O 	O 	0.05507 0.74479 0.37488 -0.41000
O 	O 	0.99119 0.70206 0.37510 -0.29600
O 	O 	0.05885 0.66759 0.37237 -0.49900
C 	C 	0.03570 0.70490 0.37413 0.43800
O 	O 	0.55507 0.24479 0.37488 -0.41400
O 	O 	0.49119 0.20206 0.37510 -0.35400
O 	O 	0.55885 0.16759 0.37237 -0.50500
C 	C 	0.53570 0.20490 0.37413 0.50200
O 	O 	0.55507 0.74479 0.87488 -0.40800
O 	O 	0.49119 0.70206 0.87510 -0.34700
O 	O 	0.55885 0.66759 0.87237 -0.50100
C 	C 	0.53570 0.70490 0.87413 0.50200
O 	O 	0.19493 0.50521 0.37488 -0.41400
O 	O 	0.25881 0.54794 0.37510 -0.35400
O 	O 	0.19115 0.58241 0.37237 -0.50500
C 	C 	0.21430 0.54510 0.37413 0.50200
O 	O 	0.19493 0.00521 0.87488 -0.43500
O 	O 	0.25881 0.04794 0.87510 -0.36100
O 	O 	0.19115 0.08241 0.87237 -0.50800
C 	C 	0.21430 0.04510 0.87413 0.50400
O 	O 	0.69493 0.50521 0.87488 -0.40900
O 	O 	0.75881 0.54794 0.87510 -0.34700
O 	O 	0.69115 0.58241 0.87237 -0.50100
C 	C 	0.71430 0.54510 0.87413 0.50200
O 	O 	0.69493 0.00521 0.37488 -0.43900
O 	O 	0.75881 0.04794 0.37510 -0.36500
O 	O 	0.69115 0.08241 0.37237 -0.50900
C 	C 	0.71430 0.04510 0.37413 0.50400
O 	O 	0.55507 0.00521 0.87512 -0.43600
O 	O 	0.49119 0.04794 0.87490 -0.36100
O 	O 	0.55885 0.08241 0.87763 -0.50600
C 	C 	0.53570 0.04510 0.87587 0.50400
O 	O 	0.55507 0.50521 0.37512 -0.41300
O 	O 	0.49119 0.54794 0.37490 -0.35400
O 	O 	0.55885 0.58241 0.37763 -0.50400
C 	C 	0.53570 0.54510 0.37587 0.50200
O 	O 	0.05507 0.00521 0.37512 -0.43700
O 	O 	0.99119 0.04794 0.37490 -0.31000
O 	O 	0.05885 0.08241 0.37763 -0.50500
C 	C 	0.03570 0.04510 0.37587 0.44100
O 	O 	0.05507 0.50521 0.87512 -0.40800
O 	O 	0.99119 0.54794 0.87490 -0.29200
O 	O 	0.05885 0.58241 0.87763 -0.49600
C 	C 	0.03570 0.54510 0.87587 0.43900
O 	O 	0.69493 0.74479 0.37512 -0.41200
O 	O 	0.75881 0.70206 0.37490 -0.35200
O 	O 	0.69115 0.66759 0.37763 -0.50300
C 	C 	0.71430 0.70490 0.37587 0.50100
O 	O 	0.69493 0.24479 0.87512 -0.40900
O 	O 	0.75881 0.20206 0.87490 -0.34700
O 	O 	0.69115 0.16759 0.87763 -0.50200
C 	C 	0.71430 0.20490 0.87587 0.50200
O 	O 	0.19493 0.74479 0.87512 -0.40900
O 	O 	0.25881 0.70206 0.87490 -0.34800
O 	O 	0.19115 0.66759 0.87763 -0.50200
C 	C 	0.21430 0.70490 0.87587 0.50200
O 	O 	0.19493 0.24479 0.37512 -0.41400
O 	O 	0.25881 0.20206 0.37490 -0.35400
O 	O 	0.19115 0.16759 0.37763 -0.50600
C 	C 	0.21430 0.20490 0.37587 0.50200
O 	O 	0.74479 0.37512 0.69493 -0.41200
O 	O 	0.70206 0.37490 0.75881 -0.35200
O 	O 	0.66759 0.37763 0.69115 -0.50300
C 	C 	0.70490 0.37587 0.71430 0.50100
O 	O 	0.74479 0.87512 0.19493 -0.40900
O 	O 	0.70206 0.87490 0.25881 -0.34800
O 	O 	0.66759 0.87763 0.19115 -0.50200
C 	C 	0.70490 0.87587 0.21430 0.50200
O 	O 	0.24479 0.37512 0.19493 -0.41400
O 	O 	0.20206 0.37490 0.25881 -0.35400
O 	O 	0.16759 0.37763 0.19115 -0.50600
C 	C 	0.20490 0.37587 0.21430 0.50200
O 	O 	0.24479 0.87512 0.69493 -0.40900
O 	O 	0.20206 0.87490 0.75881 -0.34700
O 	O 	0.16759 0.87763 0.69115 -0.50200
C 	C 	0.20490 0.87587 0.71430 0.50200
O 	O 	0.00521 0.87512 0.55507 -0.43600
O 	O 	0.04794 0.87490 0.49119 -0.36100
O 	O 	0.08241 0.87763 0.55885 -0.50600
C 	C 	0.04510 0.87587 0.53570 0.50400
O 	O 	0.00521 0.37512 0.05507 -0.43700
O 	O 	0.04794 0.37490 0.99119 -0.31000
O 	O 	0.08241 0.37763 0.05885 -0.50500
C 	C 	0.04510 0.37587 0.03570 0.44100
O 	O 	0.50521 0.87512 0.05507 -0.40800
O 	O 	0.54794 0.87490 0.99119 -0.29200
O 	O 	0.58241 0.87763 0.05885 -0.49600
C 	C 	0.54510 0.87587 0.03570 0.43900
O 	O 	0.50521 0.37512 0.55507 -0.41300
O 	O 	0.54794 0.37490 0.49119 -0.35400
O 	O 	0.58241 0.37763 0.55885 -0.50400
C 	C 	0.54510 0.37587 0.53570 0.50200
O 	O 	0.50521 0.37488 0.19493 -0.41400
O 	O 	0.54794 0.37510 0.25881 -0.35400
O 	O 	0.58241 0.37237 0.19115 -0.50500
C 	C 	0.54510 0.37413 0.21430 0.50200
O 	O 	0.50521 0.87488 0.69493 -0.40900
O 	O 	0.54794 0.87510 0.75881 -0.34700
O 	O 	0.58241 0.87237 0.69115 -0.50100
C 	C 	0.54510 0.87413 0.71430 0.50200
O 	O 	0.00521 0.37488 0.69493 -0.43900
O 	O 	0.04794 0.37510 0.75881 -0.36500
O 	O 	0.08241 0.37237 0.69115 -0.50900
C 	C 	0.04510 0.37413 0.71430 0.50400
O 	O 	0.00521 0.87488 0.19493 -0.43500
O 	O 	0.04794 0.87510 0.25881 -0.36100
O 	O 	0.08241 0.87237 0.19115 -0.50800
C 	C 	0.04510 0.87413 0.21430 0.50400
O 	O 	0.24479 0.87488 0.05507 -0.40700
O 	O 	0.20206 0.87510 0.99119 -0.29200
O 	O 	0.16759 0.87237 0.05885 -0.49800
C 	C 	0.20490 0.87413 0.03570 0.44000
O 	O 	0.24479 0.37488 0.55507 -0.41400
O 	O 	0.20206 0.37510 0.49119 -0.35400
O 	O 	0.16759 0.37237 0.55885 -0.50500
C 	C 	0.20490 0.37413 0.53570 0.50200
O 	O 	0.74479 0.87488 0.55507 -0.40800
O 	O 	0.70206 0.87510 0.49119 -0.34700
O 	O 	0.66759 0.87237 0.55885 -0.50100
C 	C 	0.70490 0.87413 0.53570 0.50200
O 	O 	0.74479 0.37488 0.05507 -0.41000
O 	O 	0.70206 0.37510 0.99119 -0.29600
O 	O 	0.66759 0.37237 0.05885 -0.49900
C 	C 	0.70490 0.37413 0.03570 0.43800
O 	O 	0.87512 0.55507 0.00521 -0.43600
O 	O 	0.87490 0.49119 0.04794 -0.36100
O 	O 	0.87763 0.55885 0.08241 -0.50600
C 	C 	0.87587 0.53570 0.04510 0.50400
O 	O 	0.87512 0.05507 0.50521 -0.40800
O 	O 	0.87490 0.99119 0.54794 -0.29200
O 	O 	0.87763 0.05885 0.58241 -0.49600
C 	C 	0.87587 0.03570 0.54510 0.43900
O 	O 	0.37512 0.55507 0.50521 -0.41300
O 	O 	0.37490 0.49119 0.54794 -0.35400
O 	O 	0.37763 0.55885 0.58241 -0.50400
C 	C 	0.37587 0.53570 0.54510 0.50200
O 	O 	0.37512 0.05507 0.00521 -0.43700
O 	O 	0.37490 0.99119 0.04794 -0.31000
O 	O 	0.37763 0.05885 0.08241 -0.50500
C 	C 	0.37587 0.03570 0.04510 0.44100
O 	O 	0.37512 0.69493 0.74479 -0.41200
O 	O 	0.37490 0.75881 0.70206 -0.35200
O 	O 	0.37763 0.69115 0.66759 -0.50300
C 	C 	0.37587 0.71430 0.70490 0.50100
O 	O 	0.37512 0.19493 0.24479 -0.41400
O 	O 	0.37490 0.25881 0.20206 -0.35400
O 	O 	0.37763 0.19115 0.16759 -0.50600
C 	C 	0.37587 0.21430 0.20490 0.50200
O 	O 	0.87512 0.69493 0.24479 -0.40900
O 	O 	0.87490 0.75881 0.20206 -0.34700
O 	O 	0.87763 0.69115 0.16759 -0.50200
C 	C 	0.87587 0.71430 0.20490 0.50200
O 	O 	0.87512 0.19493 0.74479 -0.40900
O 	O 	0.87490 0.25881 0.70206 -0.34800
O 	O 	0.87763 0.19115 0.66759 -0.50200
C 	C 	0.87587 0.21430 0.70490 0.50200
O 	O 	0.87488 0.05507 0.24479 -0.40700
O 	O 	0.87510 0.99119 0.20206 -0.29200
O 	O 	0.87237 0.05885 0.16759 -0.49800
C 	C 	0.87413 0.03570 0.20490 0.44000
O 	O 	0.87488 0.55507 0.74479 -0.40800
O 	O 	0.87510 0.49119 0.70206 -0.34700
O 	O 	0.87237 0.55885 0.66759 -0.50100
C 	C 	0.87413 0.53570 0.70490 0.50200
O 	O 	0.37488 0.05507 0.74479 -0.41000
O 	O 	0.37510 0.99119 0.70206 -0.29600
O 	O 	0.37237 0.05885 0.66759 -0.49900
C 	C 	0.37413 0.03570 0.70490 0.43800
O 	O 	0.37488 0.55507 0.24479 -0.41400
O 	O 	0.37510 0.49119 0.20206 -0.35400
O 	O 	0.37237 0.55885 0.16759 -0.50500
C 	C 	0.37413 0.53570 0.20490 0.50200
O 	O 	0.37488 0.19493 0.50521 -0.41400
O 	O 	0.37510 0.25881 0.54794 -0.35400
O 	O 	0.37237 0.19115 0.58241 -0.50500
C 	C 	0.37413 0.21430 0.54510 0.50200
O 	O 	0.37488 0.69493 0.00521 -0.43900
O 	O 	0.37510 0.75881 0.04794 -0.36500
O 	O 	0.37237 0.69115 0.08241 -0.50900
C 	C 	0.37413 0.71430 0.04510 0.50400
O 	O 	0.87488 0.19493 0.00521 -0.43500
O 	O 	0.87510 0.25881 0.04794 -0.36100
O 	O 	0.87237 0.19115 0.08241 -0.50800
C 	C 	0.87413 0.21430 0.04510 0.50400
O 	O 	0.87488 0.69493 0.50521 -0.40900
O 	O 	0.87510 0.75881 0.54794 -0.34700
O 	O 	0.87237 0.69115 0.58241 -0.50100
C 	C 	0.87413 0.71430 0.54510 0.50200
O 	O 	0.00521 0.69493 0.87488 -0.43500
O 	O 	0.04794 0.75881 0.87510 -0.36000
O 	O 	0.08241 0.69115 0.87237 -0.50700
C 	C 	0.04510 0.71430 0.87413 0.50400
O 	O 	0.00521 0.19493 0.37488 -0.43900
O 	O 	0.04794 0.25881 0.37510 -0.36700
O 	O 	0.08241 0.19115 0.37237 -0.51100
C 	C 	0.04510 0.21430 0.37413 0.50400
O 	O 	0.50521 0.69493 0.37488 -0.41300
O 	O 	0.54794 0.75881 0.37510 -0.35300
O 	O 	0.58241 0.69115 0.37237 -0.50400
C 	C 	0.54510 0.71430 0.37413 0.50100
O 	O 	0.50521 0.19493 0.87488 -0.41000
O 	O 	0.54794 0.25881 0.87510 -0.34900
O 	O 	0.58241 0.19115 0.87237 -0.50200
C 	C 	0.54510 0.21430 0.87413 0.50200
O 	O 	0.74479 0.55507 0.37488 -0.41200
O 	O 	0.70206 0.49119 0.37510 -0.35300
O 	O 	0.66759 0.55885 0.37237 -0.50400
C 	C 	0.70490 0.53570 0.37413 0.50100
O 	O 	0.74479 0.05507 0.87488 -0.40600
O 	O 	0.70206 0.99119 0.87510 -0.29100
O 	O 	0.66759 0.05885 0.87237 -0.49600
C 	C 	0.70490 0.03570 0.87413 0.43900
O 	O 	0.24479 0.55507 0.87488 -0.41000
O 	O 	0.20206 0.49119 0.87510 -0.34900
O 	O 	0.16759 0.55885 0.87237 -0.50300
C 	C 	0.20490 0.53570 0.87413 0.50200
O 	O 	0.24479 0.05507 0.37488 -0.41100
O 	O 	0.20206 0.99119 0.37510 -0.29700
O 	O 	0.16759 0.05885 0.37237 -0.50000
C 	C 	0.20490 0.03570 0.37413 0.43900
O 	O 	0.24479 0.19493 0.87512 -0.41000
O 	O 	0.20206 0.25881 0.87490 -0.34900
O 	O 	0.16759 0.19115 0.87763 -0.50300
C 	C 	0.20490 0.21430 0.87587 0.50200
O 	O 	0.24479 0.69493 0.37512 -0.41300
O 	O 	0.20206 0.75881 0.37490 -0.35300
O 	O 	0.16759 0.69115 0.37763 -0.50500
C 	C 	0.20490 0.71430 0.37587 0.50100
O 	O 	0.74479 0.19493 0.37512 -0.41300
O 	O 	0.70206 0.25881 0.37490 -0.35300
O 	O 	0.66759 0.19115 0.37763 -0.50500
C 	C 	0.70490 0.21430 0.37587 0.50100
O 	O 	0.74479 0.69493 0.87512 -0.40800
O 	O 	0.70206 0.75881 0.87490 -0.34600
O 	O 	0.66759 0.69115 0.87763 -0.50000
C 	C 	0.70490 0.71430 0.87587 0.50200
O 	O 	0.50521 0.05507 0.37512 -0.41100
O 	O 	0.54794 0.99119 0.37490 -0.29700
O 	O 	0.58241 0.05885 0.37763 -0.49900
C 	C 	0.54510 0.03570 0.37587 0.43800
O 	O 	0.50521 0.55507 0.87512 -0.41000
O 	O 	0.54794 0.49119 0.87490 -0.34800
O 	O 	0.58241 0.55885 0.87763 -0.50000
C 	C 	0.54510 0.53570 0.87587 0.50200
O 	O 	0.00521 0.05507 0.87512 -0.43300
O 	O 	0.04794 0.99119 0.87490 -0.30500
O 	O 	0.08241 0.05885 0.87763 -0.50100
C 	C 	0.04510 0.03570 0.87587 0.44200
O 	O 	0.00521 0.55507 0.37512 -0.43900
O 	O 	0.04794 0.49119 0.37490 -0.36700
O 	O 	0.08241 0.55885 0.37763 -0.50900
C 	C 	0.04510 0.53570 0.37587 0.50400
O 	O 	0.87488 0.00521 0.69493 -0.43500
O 	O 	0.87510 0.04794 0.75881 -0.36000
O 	O 	0.87237 0.08241 0.69115 -0.50700
C 	C 	0.87413 0.04510 0.71430 0.50400
O 	O 	0.87488 0.50521 0.19493 -0.41000
O 	O 	0.87510 0.54794 0.25881 -0.34900
O 	O 	0.87237 0.58241 0.19115 -0.50200
C 	C 	0.87413 0.54510 0.21430 0.50200
O 	O 	0.37488 0.00521 0.19493 -0.43900
O 	O 	0.37510 0.04794 0.25881 -0.36700
O 	O 	0.37237 0.08241 0.19115 -0.51100
C 	C 	0.37413 0.04510 0.21430 0.50400
O 	O 	0.37488 0.50521 0.69493 -0.41300
O 	O 	0.37510 0.54794 0.75881 -0.35300
O 	O 	0.37237 0.58241 0.69115 -0.50400
C 	C 	0.37413 0.54510 0.71430 0.50100
O 	O 	0.37488 0.74479 0.55507 -0.41200
O 	O 	0.37510 0.70206 0.49119 -0.35300
O 	O 	0.37237 0.66759 0.55885 -0.50400
C 	C 	0.37413 0.70490 0.53570 0.50100
O 	O 	0.37488 0.24479 0.05507 -0.41100
O 	O 	0.37510 0.20206 0.99119 -0.29700
O 	O 	0.37237 0.16759 0.05885 -0.50000
C 	C 	0.37413 0.20490 0.03570 0.43900
O 	O 	0.87488 0.74479 0.05507 -0.40600
O 	O 	0.87510 0.70206 0.99119 -0.29100
O 	O 	0.87237 0.66759 0.05885 -0.49600
C 	C 	0.87413 0.70490 0.03570 0.43900
O 	O 	0.87488 0.24479 0.55507 -0.41000
O 	O 	0.87510 0.20206 0.49119 -0.34900
O 	O 	0.87237 0.16759 0.55885 -0.50300
C 	C 	0.87413 0.20490 0.53570 0.50200
O 	O 	0.87512 0.24479 0.19493 -0.41000
O 	O 	0.87490 0.20206 0.25881 -0.34900
O 	O 	0.87763 0.16759 0.19115 -0.50300
C 	C 	0.87587 0.20490 0.21430 0.50200
O 	O 	0.87512 0.74479 0.69493 -0.40800
O 	O 	0.87490 0.70206 0.75881 -0.34600
O 	O 	0.87763 0.66759 0.69115 -0.50000
C 	C 	0.87587 0.70490 0.71430 0.50200
O 	O 	0.37512 0.24479 0.69493 -0.41300
O 	O 	0.37490 0.20206 0.75881 -0.35300
O 	O 	0.37763 0.16759 0.69115 -0.50500
C 	C 	0.37587 0.20490 0.71430 0.50100
O 	O 	0.37512 0.74479 0.19493 -0.41300
O 	O 	0.37490 0.70206 0.25881 -0.35300
O 	O 	0.37763 0.66759 0.19115 -0.50500
C 	C 	0.37587 0.70490 0.21430 0.50100
O 	O 	0.37512 0.50521 0.05507 -0.41100
O 	O 	0.37490 0.54794 0.99119 -0.29700
O 	O 	0.37763 0.58241 0.05885 -0.49900
C 	C 	0.37587 0.54510 0.03570 0.43800
O 	O 	0.37512 0.00521 0.55507 -0.43900
O 	O 	0.37490 0.04794 0.49119 -0.36700
O 	O 	0.37763 0.08241 0.55885 -0.50900
C 	C 	0.37587 0.04510 0.53570 0.50400
O 	O 	0.87512 0.50521 0.55507 -0.41000
O 	O 	0.87490 0.54794 0.49119 -0.34800
O 	O 	0.87763 0.58241 0.55885 -0.50000
C 	C 	0.87587 0.54510 0.53570 0.50200
O 	O 	0.87512 0.00521 0.05507 -0.43300
O 	O 	0.87490 0.04794 0.99119 -0.30500
O 	O 	0.87763 0.08241 0.05885 -0.50100
C 	C 	0.87587 0.04510 0.03570 0.44200
O 	O 	0.69493 0.87488 0.00521 -0.43500
O 	O 	0.75881 0.87510 0.04794 -0.36000
O 	O 	0.69115 0.87237 0.08241 -0.50700
C 	C 	0.71430 0.87413 0.04510 0.50400
O 	O 	0.69493 0.37488 0.50521 -0.41300
O 	O 	0.75881 0.37510 0.54794 -0.35300
O 	O 	0.69115 0.37237 0.58241 -0.50400
C 	C 	0.71430 0.37413 0.54510 0.50100
O 	O 	0.19493 0.87488 0.50521 -0.41000
O 	O 	0.25881 0.87510 0.54794 -0.34900
O 	O 	0.19115 0.87237 0.58241 -0.50200
C 	C 	0.21430 0.87413 0.54510 0.50200
O 	O 	0.19493 0.37488 0.00521 -0.43900
O 	O 	0.25881 0.37510 0.04794 -0.36700
O 	O 	0.19115 0.37237 0.08241 -0.51100
C 	C 	0.21430 0.37413 0.04510 0.50400
O 	O 	0.55507 0.37488 0.74479 -0.41200
O 	O 	0.49119 0.37510 0.70206 -0.35300
O 	O 	0.55885 0.37237 0.66759 -0.50400
C 	C 	0.53570 0.37413 0.70490 0.50100
O 	O 	0.55507 0.87488 0.24479 -0.41000
O 	O 	0.49119 0.87510 0.20206 -0.34900
O 	O 	0.55885 0.87237 0.16759 -0.50300
C 	C 	0.53570 0.87413 0.20490 0.50200
O 	O 	0.05507 0.37488 0.24479 -0.41100
O 	O 	0.99119 0.37510 0.20206 -0.29700
O 	O 	0.05885 0.37237 0.16759 -0.50000
C 	C 	0.03570 0.37413 0.20490 0.43900
O 	O 	0.05507 0.87488 0.74479 -0.40600
O 	O 	0.99119 0.87510 0.70206 -0.29100
O 	O 	0.05885 0.87237 0.66759 -0.49600
C 	C 	0.03570 0.87413 0.70490 0.43900
O 	O 	0.19493 0.87512 0.24479 -0.41000
O 	O 	0.25881 0.87490 0.20206 -0.34900
O 	O 	0.19115 0.87763 0.16759 -0.50300
C 	C 	0.21430 0.87587 0.20490 0.50200
O 	O 	0.19493 0.37512 0.74479 -0.41300
O 	O 	0.25881 0.37490 0.70206 -0.35300
O 	O 	0.19115 0.37763 0.66759 -0.50500
C 	C 	0.21430 0.37587 0.70490 0.50100
O 	O 	0.69493 0.87512 0.74479 -0.40800
O 	O 	0.75881 0.87490 0.70206 -0.34600
O 	O 	0.69115 0.87763 0.66759 -0.50000
C 	C 	0.71430 0.87587 0.70490 0.50200
O 	O 	0.69493 0.37512 0.24479 -0.41300
O 	O 	0.75881 0.37490 0.20206 -0.35300
O 	O 	0.69115 0.37763 0.16759 -0.50500
C 	C 	0.71430 0.37587 0.20490 0.50100
O 	O 	0.05507 0.37512 0.50521 -0.41100
O 	O 	0.99119 0.37490 0.54794 -0.29700
O 	O 	0.05885 0.37763 0.58241 -0.49900
C 	C 	0.03570 0.37587 0.54510 0.43800
O 	O 	0.05507 0.87512 0.00521 -0.43300
O 	O 	0.99119 0.87490 0.04794 -0.30500
O 	O 	0.05885 0.87763 0.08241 -0.50100
C 	C 	0.03570 0.87587 0.04510 0.44200
O 	O 	0.55507 0.37512 0.00521 -0.43900
O 	O 	0.49119 0.37490 0.04794 -0.36700
O 	O 	0.55885 0.37763 0.08241 -0.50900
C 	C 	0.53570 0.37587 0.04510 0.50400
O 	O 	0.55507 0.87512 0.50521 -0.41000
O 	O 	0.49119 0.87490 0.54794 -0.34800
O 	O 	0.55885 0.87763 0.58241 -0.50000
C 	C 	0.53570 0.87587 0.54510 0.50200
O 	O 	0.94493 0.75521 0.12512 -0.41900
O 	O 	0.00881 0.79794 0.12490 -0.41200
O 	O 	0.94115 0.83241 0.12763 -0.50400
C 	C 	0.96430 0.79510 0.12587 0.56300
O 	O 	0.94493 0.25521 0.62512 -0.41700
O 	O 	0.00881 0.29794 0.62490 -0.40800
O 	O 	0.94115 0.33241 0.62763 -0.50300
C 	C 	0.96430 0.29510 0.62587 0.56500
O 	O 	0.44493 0.75521 0.62512 -0.41300
O 	O 	0.50881 0.79794 0.62490 -0.35400
O 	O 	0.44115 0.83241 0.62763 -0.50200
C 	C 	0.46430 0.79510 0.62587 0.50200
O 	O 	0.44493 0.25521 0.12512 -0.41800
O 	O 	0.50881 0.29794 0.12490 -0.36000
O 	O 	0.44115 0.33241 0.12763 -0.50600
C 	C 	0.46430 0.29510 0.12587 0.50100
O 	O 	0.80507 0.49479 0.62512 -0.41300
O 	O 	0.74119 0.45206 0.62490 -0.35400
O 	O 	0.80885 0.41759 0.62763 -0.50200
C 	C 	0.78570 0.45490 0.62587 0.50200
O 	O 	0.80507 0.99479 0.12512 -0.38600
O 	O 	0.74119 0.95206 0.12490 -0.34600
O 	O 	0.80885 0.91759 0.12763 -0.49700
C 	C 	0.78570 0.95490 0.12587 0.49800
O 	O 	0.30507 0.49479 0.12512 -0.41800
O 	O 	0.24119 0.45206 0.12490 -0.36000
O 	O 	0.30885 0.41759 0.12763 -0.50600
C 	C 	0.28570 0.45490 0.12587 0.50100
O 	O 	0.30507 0.99479 0.62512 -0.38200
O 	O 	0.24119 0.95206 0.62490 -0.34200
O 	O 	0.30885 0.91759 0.62763 -0.49600
C 	C 	0.28570 0.95490 0.62587 0.49900
O 	O 	0.44493 0.99479 0.12488 -0.38500
O 	O 	0.50881 0.95206 0.12510 -0.34600
O 	O 	0.44115 0.91759 0.12237 -0.49900
C 	C 	0.46430 0.95490 0.12413 0.49800
O 	O 	0.44493 0.49479 0.62488 -0.41300
O 	O 	0.50881 0.45206 0.62510 -0.35400
O 	O 	0.44115 0.41759 0.62237 -0.50300
C 	C 	0.46430 0.45490 0.62413 0.50200
O 	O 	0.94493 0.99479 0.62488 -0.38400
O 	O 	0.00881 0.95206 0.62510 -0.39400
O 	O 	0.94115 0.91759 0.62237 -0.49500
C 	C 	0.96430 0.95490 0.62413 0.56100
O 	O 	0.94493 0.49479 0.12488 -0.41900
O 	O 	0.00881 0.45206 0.12510 -0.41200
O 	O 	0.94115 0.41759 0.12237 -0.50600
C 	C 	0.96430 0.45490 0.12413 0.56400
O 	O 	0.30507 0.25521 0.62488 -0.41500
O 	O 	0.24119 0.29794 0.62510 -0.35600
O 	O 	0.30885 0.33241 0.62237 -0.50300
C 	C 	0.28570 0.29510 0.62413 0.50200
O 	O 	0.30507 0.75521 0.12488 -0.41700
O 	O 	0.24119 0.79794 0.12510 -0.36000
O 	O 	0.30885 0.83241 0.12237 -0.50500
C 	C 	0.28570 0.79510 0.12413 0.50100
O 	O 	0.80507 0.25521 0.12488 -0.41800
O 	O 	0.74119 0.29794 0.12510 -0.36000
O 	O 	0.80885 0.33241 0.12237 -0.50500
C 	C 	0.78570 0.29510 0.12413 0.50100
O 	O 	0.80507 0.75521 0.62488 -0.41300
O 	O 	0.74119 0.79794 0.62510 -0.35400
O 	O 	0.80885 0.83241 0.62237 -0.50000
C 	C 	0.78570 0.79510 0.62413 0.50200
O 	O 	0.25521 0.62488 0.30507 -0.41500
O 	O 	0.29794 0.62510 0.24119 -0.35600
O 	O 	0.33241 0.62237 0.30885 -0.50300
C 	C 	0.29510 0.62413 0.28570 0.50200
O 	O 	0.25521 0.12488 0.80507 -0.41800
O 	O 	0.29794 0.12510 0.74119 -0.36000
O 	O 	0.33241 0.12237 0.80885 -0.50500
C 	C 	0.29510 0.12413 0.78570 0.50100
O 	O 	0.75521 0.62488 0.80507 -0.41300
O 	O 	0.79794 0.62510 0.74119 -0.35400
O 	O 	0.83241 0.62237 0.80885 -0.50000
C 	C 	0.79510 0.62413 0.78570 0.50200
O 	O 	0.75521 0.12488 0.30507 -0.41700
O 	O 	0.79794 0.12510 0.24119 -0.36000
O 	O 	0.83241 0.12237 0.30885 -0.50500
C 	C 	0.79510 0.12413 0.28570 0.50100
O 	O 	0.99479 0.12488 0.44493 -0.38500
O 	O 	0.95206 0.12510 0.50881 -0.34600
O 	O 	0.91759 0.12237 0.44115 -0.49900
C 	C 	0.95490 0.12413 0.46430 0.49800
O 	O 	0.99479 0.62488 0.94493 -0.38400
O 	O 	0.95206 0.62510 0.00881 -0.39400
O 	O 	0.91759 0.62237 0.94115 -0.49500
C 	C 	0.95490 0.62413 0.96430 0.56100
O 	O 	0.49479 0.12488 0.94493 -0.41900
O 	O 	0.45206 0.12510 0.00881 -0.41200
O 	O 	0.41759 0.12237 0.94115 -0.50600
C 	C 	0.45490 0.12413 0.96430 0.56400
O 	O 	0.49479 0.62488 0.44493 -0.41300
O 	O 	0.45206 0.62510 0.50881 -0.35400
O 	O 	0.41759 0.62237 0.44115 -0.50300
C 	C 	0.45490 0.62413 0.46430 0.50200
O 	O 	0.49479 0.62512 0.80507 -0.41300
O 	O 	0.45206 0.62490 0.74119 -0.35400
O 	O 	0.41759 0.62763 0.80885 -0.50200
C 	C 	0.45490 0.62587 0.78570 0.50200
O 	O 	0.49479 0.12512 0.30507 -0.41800
O 	O 	0.45206 0.12490 0.24119 -0.36000
O 	O 	0.41759 0.12763 0.30885 -0.50600
C 	C 	0.45490 0.12587 0.28570 0.50100
O 	O 	0.99479 0.62512 0.30507 -0.38200
O 	O 	0.95206 0.62490 0.24119 -0.34200
O 	O 	0.91759 0.62763 0.30885 -0.49600
C 	C 	0.95490 0.62587 0.28570 0.49900
O 	O 	0.99479 0.12512 0.80507 -0.38600
O 	O 	0.95206 0.12490 0.74119 -0.34600
O 	O 	0.91759 0.12763 0.80885 -0.49700
C 	C 	0.95490 0.12587 0.78570 0.49800
O 	O 	0.75521 0.12512 0.94493 -0.41900
O 	O 	0.79794 0.12490 0.00881 -0.41200
O 	O 	0.83241 0.12763 0.94115 -0.50400
C 	C 	0.79510 0.12587 0.96430 0.56300
O 	O 	0.75521 0.62512 0.44493 -0.41300
O 	O 	0.79794 0.62490 0.50881 -0.35400
O 	O 	0.83241 0.62763 0.44115 -0.50200
C 	C 	0.79510 0.62587 0.46430 0.50200
O 	O 	0.25521 0.12512 0.44493 -0.41800
O 	O 	0.29794 0.12490 0.50881 -0.36000
O 	O 	0.33241 0.12763 0.44115 -0.50600
C 	C 	0.29510 0.12587 0.46430 0.50100
O 	O 	0.25521 0.62512 0.94493 -0.41700
O 	O 	0.29794 0.62490 0.00881 -0.40800
O 	O 	0.33241 0.62763 0.94115 -0.50300
C 	C 	0.29510 0.62587 0.96430 0.56500
O 	O 	0.12488 0.44493 0.99479 -0.38500
O 	O 	0.12510 0.50881 0.95206 -0.34600
O 	O 	0.12237 0.44115 0.91759 -0.49900
C 	C 	0.12413 0.46430 0.95490 0.49800
O 	O 	0.12488 0.94493 0.49479 -0.41900
O 	O 	0.12510 0.00881 0.45206 -0.41200
O 	O 	0.12237 0.94115 0.41759 -0.50600
C 	C 	0.12413 0.96430 0.45490 0.56400
O 	O 	0.62488 0.44493 0.49479 -0.41300
O 	O 	0.62510 0.50881 0.45206 -0.35400
O 	O 	0.62237 0.44115 0.41759 -0.50300
C 	C 	0.62413 0.46430 0.45490 0.50200
O 	O 	0.62488 0.94493 0.99479 -0.38400
O 	O 	0.62510 0.00881 0.95206 -0.39400
O 	O 	0.62237 0.94115 0.91759 -0.49500
C 	C 	0.62413 0.96430 0.95490 0.56100
O 	O 	0.62488 0.30507 0.25521 -0.41500
O 	O 	0.62510 0.24119 0.29794 -0.35600
O 	O 	0.62237 0.30885 0.33241 -0.50300
C 	C 	0.62413 0.28570 0.29510 0.50200
O 	O 	0.62488 0.80507 0.75521 -0.41300
O 	O 	0.62510 0.74119 0.79794 -0.35400
O 	O 	0.62237 0.80885 0.83241 -0.50000
C 	C 	0.62413 0.78570 0.79510 0.50200
O 	O 	0.12488 0.30507 0.75521 -0.41700
O 	O 	0.12510 0.24119 0.79794 -0.36000
O 	O 	0.12237 0.30885 0.83241 -0.50500
C 	C 	0.12413 0.28570 0.79510 0.50100
O 	O 	0.12488 0.80507 0.25521 -0.41800
O 	O 	0.12510 0.74119 0.29794 -0.36000
O 	O 	0.12237 0.80885 0.33241 -0.50500
C 	C 	0.12413 0.78570 0.29510 0.50100
O 	O 	0.12512 0.94493 0.75521 -0.41900
O 	O 	0.12490 0.00881 0.79794 -0.41200
O 	O 	0.12763 0.94115 0.83241 -0.50400
C 	C 	0.12587 0.96430 0.79510 0.56300
O 	O 	0.12512 0.44493 0.25521 -0.41800
O 	O 	0.12490 0.50881 0.29794 -0.36000
O 	O 	0.12763 0.44115 0.33241 -0.50600
C 	C 	0.12587 0.46430 0.29510 0.50100
O 	O 	0.62512 0.94493 0.25521 -0.41700
O 	O 	0.62490 0.00881 0.29794 -0.40800
O 	O 	0.62763 0.94115 0.33241 -0.50300
C 	C 	0.62587 0.96430 0.29510 0.56500
O 	O 	0.62512 0.44493 0.75521 -0.41300
O 	O 	0.62490 0.50881 0.79794 -0.35400
O 	O 	0.62763 0.44115 0.83241 -0.50200
C 	C 	0.62587 0.46430 0.79510 0.50200
O 	O 	0.62512 0.80507 0.49479 -0.41300
O 	O 	0.62490 0.74119 0.45206 -0.35400
O 	O 	0.62763 0.80885 0.41759 -0.50200
C 	C 	0.62587 0.78570 0.45490 0.50200
O 	O 	0.62512 0.30507 0.99479 -0.38200
O 	O 	0.62490 0.24119 0.95206 -0.34200
O 	O 	0.62763 0.30885 0.91759 -0.49600
C 	C 	0.62587 0.28570 0.95490 0.49900
O 	O 	0.12512 0.80507 0.99479 -0.38600
O 	O 	0.12490 0.74119 0.95206 -0.34600
O 	O 	0.12763 0.80885 0.91759 -0.49700
C 	C 	0.12587 0.78570 0.95490 0.49800
O 	O 	0.12512 0.30507 0.49479 -0.41800
O 	O 	0.12490 0.24119 0.45206 -0.36000
O 	O 	0.12763 0.30885 0.41759 -0.50600
C 	C 	0.12587 0.28570 0.45490 0.50100
Zn	Zn	-0.00000 0.37472 0.12472 1.22400
Zn	Zn	0.00000 0.87472 0.62472 1.22400
Zn	Zn	0.50000 0.37472 0.62472 1.24100
Zn	Zn	0.25000 0.37528 0.62472 1.24100
Zn	Zn	0.75000 0.37528 0.12472 1.24000
Zn	Zn	0.75000 0.87472 0.12528 1.24100
Zn	Zn	0.25000 0.87472 0.62528 1.24100
Zn	Zn	0.50000 0.87528 0.62528 1.24200
Zn	Zn	-0.00000 0.87528 0.12528 1.22500
Zn	Zn	-0.00000 0.37528 0.62528 1.22400
Zn	Zn	0.12472 0.00000 0.37472 1.22400
Zn	Zn	0.12472 0.50000 0.87472 1.24100
Zn	Zn	0.62472 0.00000 0.87472 1.22400
Zn	Zn	0.62472 0.25000 0.37528 1.24100
Zn	Zn	0.62472 0.75000 0.87528 1.24200
Zn	Zn	0.12472 0.75000 0.37528 1.24000
Zn	Zn	0.12528 0.75000 0.87472 1.24100
Zn	Zn	0.12528 0.25000 0.37472 1.24100
Zn	Zn	0.62528 0.50000 0.87528 1.24200
Zn	Zn	0.62528 -0.00000 0.37528 1.22400
Zn	Zn	0.37472 0.12472 -0.00000 1.22400
Zn	Zn	0.37472 0.62472 0.50000 1.24100
Zn	Zn	0.87472 0.62472 -0.00000 1.22400
Zn	Zn	0.37528 0.62472 0.25000 1.24100
Zn	Zn	0.37528 0.12472 0.75000 1.24000
Zn	Zn	0.87472 0.12528 0.75000 1.24100
Zn	Zn	0.87472 0.62528 0.25000 1.24100
Zn	Zn	0.87528 0.62528 0.50000 1.24200
Zn	Zn	0.87528 0.12528 -0.00000 1.22500
Zn	Zn	0.37528 0.62528 -0.00000 1.22400
Zn	Zn	0.12472 0.25000 0.87528 1.24100
Zn	Zn	0.12528 0.50000 0.37528 1.24100
Zn	Zn	0.12528 0.00000 0.87528 1.22500
Zn	Zn	0.62472 0.50000 0.37472 1.24100
Zn	Zn	0.62528 0.75000 0.37472 1.24100
Zn	Zn	0.62528 0.25000 0.87472 1.24100
Zn	Zn	0.75000 0.37472 0.62528 1.24100
Zn	Zn	0.25000 0.37472 0.12528 1.24100
Zn	Zn	0.50000 0.87472 0.12472 1.24100
Zn	Zn	0.50000 0.37528 0.12528 1.24100
Zn	Zn	0.25000 0.87528 0.12472 1.24100
Zn	Zn	0.75000 0.87528 0.62472 1.24200
Zn	Zn	0.87472 0.12472 0.50000 1.24100
Zn	Zn	0.37472 0.62528 0.75000 1.24100
Zn	Zn	0.37472 0.12528 0.25000 1.24100
Zn	Zn	0.87528 0.12472 0.25000 1.24100
Zn	Zn	0.87528 0.62472 0.75000 1.24200
Zn	Zn	0.37528 0.12528 0.50000 1.24100
Zn	Zn	-0.00000 0.62528 0.87528 1.22500
Zn	Zn	-0.00000 0.12528 0.37528 1.22400
Zn	Zn	0.50000 0.62528 0.37528 1.24100
Zn	Zn	0.75000 0.62472 0.37528 1.24100
Zn	Zn	0.25000 0.62472 0.87528 1.24100
Zn	Zn	0.25000 0.12528 0.87472 1.24100
Zn	Zn	0.75000 0.12528 0.37472 1.24100
Zn	Zn	0.75000 0.62528 0.87472 1.24100
Zn	Zn	0.50000 0.12472 0.37472 1.24000
Zn	Zn	0.00000 0.12472 0.87472 1.22400
Zn	Zn	0.87528 0.00000 0.62528 1.22500
Zn	Zn	0.87528 0.50000 0.12528 1.24100
Zn	Zn	0.37528 -0.00000 0.12528 1.22400
Zn	Zn	0.37528 0.75000 0.62472 1.24100
Zn	Zn	0.37528 0.25000 0.12472 1.24000
Zn	Zn	0.87472 0.25000 0.12528 1.24100
Zn	Zn	0.87472 0.75000 0.62528 1.24100
Zn	Zn	0.37472 0.50000 0.12472 1.24000
Zn	Zn	0.37472 0.00000 0.62472 1.22400
Zn	Zn	0.87472 0.00000 0.12472 1.22400
Zn	Zn	0.62528 0.87528 -0.00000 1.22500
Zn	Zn	0.62528 0.37528 0.50000 1.24100
Zn	Zn	0.12528 0.37528 -0.00000 1.22400
Zn	Zn	0.62472 0.37528 0.75000 1.24100
Zn	Zn	0.62472 0.87528 0.25000 1.24100
Zn	Zn	0.12528 0.87472 0.25000 1.24100
Zn	Zn	0.12528 0.37472 0.75000 1.24100
Zn	Zn	0.62528 0.87472 0.75000 1.24100
Zn	Zn	0.12472 0.37472 0.50000 1.24000
Zn	Zn	0.12472 0.87472 -0.00000 1.22400
Zn	Zn	0.87528 0.75000 0.12472 1.24100
Zn	Zn	0.87528 0.25000 0.62472 1.24100
Zn	Zn	0.87472 0.50000 0.62472 1.24100
Zn	Zn	0.37528 0.50000 0.62528 1.24100
Zn	Zn	0.37472 0.25000 0.62528 1.24100
Zn	Zn	0.37472 0.75000 0.12528 1.24100
Zn	Zn	0.25000 0.62528 0.37472 1.24100
Zn	Zn	0.50000 0.12528 0.87528 1.24100
Zn	Zn	0.50000 0.62472 0.87472 1.24100
Zn	Zn	-0.00000 0.62472 0.37472 1.22400
Zn	Zn	0.75000 0.12472 0.87528 1.24100
Zn	Zn	0.25000 0.12472 0.37528 1.24000
Zn	Zn	0.12528 0.87528 0.50000 1.24100
Zn	Zn	0.62528 0.37472 0.25000 1.24100
Zn	Zn	0.12472 0.87528 0.75000 1.24100
Zn	Zn	0.12472 0.37528 0.25000 1.24000
Zn	Zn	0.62472 0.87472 0.50000 1.24100
Zn	Zn	0.62472 0.37472 -0.00000 1.22400
Na	Na	0.12500 0.37500 0.12500 0.59200
Na	Na	0.62500 0.87500 0.12500 0.59400
Na	Na	0.12500 0.37500 0.62500 0.59300
Na	Na	0.12500 0.87500 0.12500 0.59300
Na	Na	0.62500 0.37500 0.62500 0.59400
Na	Na	0.62500 0.87500 0.62500 0.59500
Na	Na	0.12500 0.12500 0.37500 0.59200
Na	Na	0.12500 0.62500 0.87500 0.59400
Na	Na	0.62500 0.62500 0.37500 0.59400
Na	Na	0.62500 0.12500 0.37500 0.59300
Na	Na	0.62500 0.62500 0.87500 0.59500
Na	Na	0.37500 0.12500 0.12500 0.59200
Na	Na	0.37500 0.62500 0.62500 0.59400
Na	Na	0.87500 0.12500 0.62500 0.59400
Na	Na	0.37500 0.62500 0.12500 0.59300
Na	Na	0.87500 0.62500 0.62500 0.59500
Na	Na	0.87500 0.12500 0.12500 0.59300
Na	Na	0.12500 0.37500 0.87500 0.59400
Na	Na	0.12500 0.37500 0.37500 0.59400
Na	Na	0.12500 0.87500 0.87500 0.59500
Na	Na	0.62500 0.37500 0.87500 0.59500
Na	Na	0.62500 0.87500 0.87500 0.59600
Na	Na	0.62500 0.37500 0.37500 0.59400
Na	Na	0.62500 0.87500 0.37500 0.59500
Na	Na	0.87500 0.37500 0.62500 0.59500
Na	Na	0.87500 0.87500 0.12500 0.59500
Na	Na	0.87500 0.87500 0.62500 0.59600
Na	Na	0.37500 0.37500 0.12500 0.59400
Na	Na	0.37500 0.87500 0.62500 0.59500
Na	Na	0.37500 0.87500 0.12500 0.59400
Na	Na	0.37500 0.37500 0.62500 0.59400
Na	Na	0.87500 0.62500 0.87500 0.59600
Na	Na	0.37500 0.62500 0.87500 0.59500
Na	Na	0.87500 0.12500 0.37500 0.59400
Na	Na	0.37500 0.12500 0.37500 0.59400
Na	Na	0.87500 0.62500 0.37500 0.59500
Na	Na	0.87500 0.12500 0.87500 0.59500
Na	Na	0.37500 0.12500 0.87500 0.59400
Na	Na	0.37500 0.62500 0.37500 0.59400
Na	Na	0.87500 0.37500 0.12500 0.59400
Na	Na	0.12500 0.87500 0.37500 0.59400
Na	Na	0.87500 0.62500 0.12500 0.59400
Na	Na	0.37500 0.12500 0.62500 0.59300
Na	Na	0.12500 0.62500 0.37500 0.59300
Na	Na	0.12500 0.12500 0.87500 0.59300
Na	Na	0.62500 0.12500 0.87500 0.59400
Na	Na	0.62500 0.37500 0.12500 0.59300
Na	Na	0.12500 0.87500 0.62500 0.59400
