data_crystal

_cell_length_a 35.53340
_cell_length_b 14.92270
_cell_length_c 30.60340
_cell_angle_alpha 90.00000
_cell_angle_beta  102.17600
_cell_angle_gamma 90.00000

_symmetry_space_group_name_	'P 1'
_symmetry_space_group_name_H-M	'P 1'

loop_
_symmetry_equiv_pos_as_xyz
  x,y,z

loop_
_atom_site_label
_atom_site_type_symbol
_atom_site_fract_x
_atom_site_fract_y
_atom_site_fract_z
_atom_site_charge
C 	C 	0.56227 0.54030 0.52370 0.08500
H 	H 	0.57390 0.53830 0.49850 -0.01000
C 	C 	0.53110 0.59730 0.52240 -0.13700
H 	H 	0.52200 0.63370 0.49690 0.08200
C 	C 	0.51378 0.60060 0.55770 0.06500
C 	C 	0.52740 0.54680 0.59310 -0.13500
H 	H 	0.51520 0.54480 0.61790 0.08900
C 	C 	0.55980 0.49400 0.59230 0.08800
H 	H 	0.57040 0.45980 0.61810 -0.02300
C 	C 	0.48077 0.66120 0.55865 0.08300
C 	C 	0.43205 0.70530 0.58954 0.10400
C 	C 	0.44721 0.78570 0.53348 0.08900
C 	C 	0.39280 0.62210 0.68590 0.07700
H 	H 	0.40090 0.58470 0.71130 -0.01700
C 	C 	0.41772 0.63540 0.65810 -0.11900
H 	H 	0.44240 0.60790 0.66410 0.08400
C 	C 	0.40651 0.68960 0.62105 0.06400
C 	C 	0.36920 0.72710 0.61400 -0.11900
H 	H 	0.36010 0.76360 0.58860 0.08200
C 	C 	0.34693 0.71120 0.64320 0.07800
H 	H 	0.32220 0.73810 0.63810 -0.01400
C 	C 	0.40560 0.99500 0.47550 0.07200
H 	H 	0.38360 0.03180 0.47410 -0.01700
C 	C 	0.40960 0.92120 0.50230 -0.11600
H 	H 	0.39040 0.90660 0.51870 0.07700
C 	C 	0.44227 0.86710 0.50537 0.04800
C 	C 	0.46824 0.88990 0.47971 -0.11300
H 	H 	0.49030 0.85370 0.48000 0.06900
C 	C 	0.46197 0.96630 0.45350 0.06700
H 	H 	0.48040 0.98250 0.43650 -0.00900
C 	C 	0.67490 0.55460 0.59930 0.06900
H 	H 	0.66010 0.58510 0.57420 -0.00200
C 	C 	0.70488 0.60000 0.62680 -0.11800
H 	H 	0.71060 0.66020 0.62050 0.08500
C 	C 	0.72603 0.55700 0.66310 0.04800
C 	C 	0.71636 0.46880 0.67140 -0.12800
H 	H 	0.73020 0.43710 0.69670 0.08800
C 	C 	0.68654 0.42880 0.64230 0.07300
H 	H 	0.68020 0.36870 0.64800 -0.00900
C 	C 	0.75837 0.60140 0.69415 0.08500
C 	C 	0.79428 0.72330 0.71717 0.10200
C 	C 	0.80874 0.59140 0.75230 0.10000
C 	C 	0.78330 0.97080 0.69310 0.07500
H 	H 	0.76580 0.01000 0.67450 -0.01500
C 	C 	0.77616 0.87910 0.69010 -0.12600
H 	H 	0.75420 0.85650 0.66980 0.07900
C 	C 	0.80101 0.82170 0.71680 0.06000
C 	C 	0.83273 0.85750 0.74500 -0.12200
H 	H 	0.85080 0.81960 0.76370 0.08400
C 	C 	0.83800 0.94920 0.74600 0.06700
H 	H 	0.86010 0.97330 0.76550 -0.01600
C 	C 	0.84678 0.40790 0.83398 0.06300
H 	H 	0.83970 0.34930 0.84140 -0.01200
C 	C 	0.82365 0.45270 0.79894 -0.12100
H 	H 	0.80130 0.42440 0.78200 0.07400
C 	C 	0.83315 0.53930 0.78846 0.05500
C 	C 	0.86620 0.57670 0.81270 -0.11600
H 	H 	0.87380 0.63530 0.80600 0.09000
C 	C 	0.88840 0.52730 0.84720 0.07100
H 	H 	0.91130 0.55340 0.86410 -0.00800
N 	N 	0.76456 0.68920 0.68826 -0.14000
N 	N 	0.81834 0.67710 0.74854 -0.13600
N 	N 	0.42459 0.77690 0.56262 -0.13800
N 	N 	0.77906 0.54990 0.72620 -0.14200
N 	N 	0.47505 0.72850 0.52870 -0.14900
N 	N 	0.46013 0.64640 0.58982 -0.13400
N 	N 	0.43087 0.01810 0.45127 -0.27600
N 	N 	0.87903 0.44500 0.85776 -0.27400
N 	N 	0.66587 0.46980 0.60656 -0.28100
N 	N 	0.35771 0.65890 0.67940 -0.27900
N 	N 	0.81342 0.00560 0.72076 -0.27600
N 	N 	0.57627 0.48930 0.55817 -0.28800
Zn	Zn	0.82452 0.14168 0.72623 1.15900
Zn	Zn	0.91380 0.37580 0.90910 0.60200
Zn	Zn	0.62380 0.40460 0.56610 0.60800
I 	I 	0.86902 0.16635 0.80432 -0.34900
I 	I 	0.76430 0.23410 0.70354 -0.12900
I 	I 	0.97207 0.34190 0.87387 -0.05500
I 	I 	0.87655 0.26740 0.94680 -0.30400
I 	I 	0.60610 0.25990 0.60292 -0.33800
I 	I 	0.64305 0.40880 0.49145 0.03800
I 	I 	0.86150 0.16660 0.79460 -0.04400
I 	I 	0.76040 0.22550 0.69330 -0.20800
I 	I 	0.97679 0.35520 0.86712 -0.27200
I 	I 	0.88681 0.25798 0.94018 -0.05200
I 	I 	0.61299 0.26140 0.58986 -0.02400
I 	I 	0.64255 0.43610 0.48066 -0.38800
Zn	Zn	0.92090 0.37750 0.90390 0.57400
Zn	Zn	0.62220 0.41020 0.55520 0.57400
C 	C 	0.06227 0.04030 0.52370 0.08400
H 	H 	0.07390 0.03830 0.49850 -0.01100
C 	C 	0.03110 0.09730 0.52240 -0.13800
H 	H 	0.02200 0.13370 0.49690 0.08100
C 	C 	0.01378 0.10060 0.55770 0.06400
C 	C 	0.02740 0.04680 0.59310 -0.13600
H 	H 	0.01520 0.04480 0.61790 0.08800
C 	C 	0.05980 0.99400 0.59230 0.08700
H 	H 	0.07040 0.95980 0.61810 -0.02400
C 	C 	0.98077 0.16120 0.55865 0.08200
C 	C 	0.93205 0.20530 0.58954 0.10300
C 	C 	0.94721 0.28570 0.53348 0.08800
C 	C 	0.89280 0.12210 0.68590 0.07600
H 	H 	0.90090 0.08470 0.71130 -0.01800
C 	C 	0.91772 0.13540 0.65810 -0.12000
H 	H 	0.94240 0.10790 0.66410 0.08300
C 	C 	0.90651 0.18960 0.62105 0.06300
C 	C 	0.86920 0.22710 0.61400 -0.12000
H 	H 	0.86010 0.26360 0.58860 0.08100
C 	C 	0.84693 0.21120 0.64320 0.07700
H 	H 	0.82220 0.23810 0.63810 -0.01500
C 	C 	0.90560 0.49500 0.47550 0.07100
H 	H 	0.88360 0.53180 0.47410 -0.01800
C 	C 	0.90960 0.42120 0.50230 -0.11700
H 	H 	0.89040 0.40660 0.51870 0.07600
C 	C 	0.94227 0.36710 0.50537 0.04700
C 	C 	0.96824 0.38990 0.47971 -0.11400
H 	H 	0.99030 0.35370 0.48000 0.06800
C 	C 	0.96197 0.46630 0.45350 0.06600
H 	H 	0.98040 0.48250 0.43650 -0.01000
C 	C 	0.17490 0.05460 0.59930 0.06800
H 	H 	0.16010 0.08510 0.57420 -0.00300
C 	C 	0.20488 0.10000 0.62680 -0.11800
H 	H 	0.21060 0.16020 0.62050 0.08500
C 	C 	0.22603 0.05700 0.66310 0.04800
C 	C 	0.21636 0.96880 0.67140 -0.12800
H 	H 	0.23020 0.93710 0.69670 0.08800
C 	C 	0.18654 0.92880 0.64230 0.07300
H 	H 	0.18020 0.86870 0.64800 -0.00900
C 	C 	0.25837 0.10140 0.69415 0.08500
C 	C 	0.29428 0.22330 0.71717 0.10200
C 	C 	0.30874 0.09140 0.75230 0.10000
C 	C 	0.28330 0.47080 0.69310 0.07600
H 	H 	0.26580 0.51000 0.67450 -0.01500
C 	C 	0.27616 0.37910 0.69010 -0.12600
H 	H 	0.25420 0.35650 0.66980 0.07900
C 	C 	0.30101 0.32170 0.71680 0.06000
C 	C 	0.33273 0.35750 0.74500 -0.12200
H 	H 	0.35080 0.31960 0.76370 0.08400
C 	C 	0.33800 0.44920 0.74600 0.06700
H 	H 	0.36010 0.47330 0.76550 -0.01600
C 	C 	0.34678 0.90790 0.83398 0.06300
H 	H 	0.33970 0.84930 0.84140 -0.01200
C 	C 	0.32365 0.95270 0.79894 -0.12100
H 	H 	0.30130 0.92440 0.78200 0.07400
C 	C 	0.33315 0.03930 0.78846 0.05500
C 	C 	0.36620 0.07670 0.81270 -0.11700
H 	H 	0.37380 0.13530 0.80600 0.09000
C 	C 	0.38840 0.02730 0.84720 0.07200
H 	H 	0.41130 0.05340 0.86410 -0.00800
N 	N 	0.26456 0.18920 0.68826 -0.14000
N 	N 	0.31834 0.17710 0.74854 -0.13600
N 	N 	0.92459 0.27690 0.56262 -0.13800
N 	N 	0.27906 0.04990 0.72620 -0.14200
N 	N 	0.97505 0.22850 0.52870 -0.14900
N 	N 	0.96013 0.14640 0.58982 -0.13400
N 	N 	0.93087 0.51810 0.45127 -0.27600
N 	N 	0.37903 0.94500 0.85776 -0.27400
N 	N 	0.16587 0.96980 0.60656 -0.28100
N 	N 	0.85771 0.15890 0.67940 -0.27900
N 	N 	0.31342 0.50560 0.72076 -0.27600
N 	N 	0.07627 0.98930 0.55817 -0.28800
Zn	Zn	0.32452 0.64168 0.72623 1.15900
Zn	Zn	0.41380 0.87580 0.90910 0.60200
Zn	Zn	0.12380 0.90460 0.56610 0.60800
I 	I 	0.36902 0.66635 0.80432 -0.34900
I 	I 	0.26430 0.73410 0.70354 -0.12900
I 	I 	0.47207 0.84190 0.87387 -0.05500
I 	I 	0.37655 0.76740 0.94680 -0.30400
I 	I 	0.10610 0.75990 0.60292 -0.33800
I 	I 	0.14305 0.90880 0.49145 0.03800
I 	I 	0.36150 0.66660 0.79460 -0.04400
I 	I 	0.26040 0.72550 0.69330 -0.20800
I 	I 	0.47679 0.85520 0.86712 -0.27200
I 	I 	0.38681 0.75798 0.94018 -0.05200
I 	I 	0.11299 0.76140 0.58986 -0.02400
I 	I 	0.14255 0.93610 0.48066 -0.38800
Zn	Zn	0.42090 0.87750 0.90390 0.57400
Zn	Zn	0.12220 0.91020 0.55520 0.57400
C 	C 	0.56227 0.45970 0.02370 0.08400
H 	H 	0.57390 0.46170 0.99850 -0.01100
C 	C 	0.53110 0.40270 0.02240 -0.13900
H 	H 	0.52200 0.36630 0.99690 0.08100
C 	C 	0.51378 0.39940 0.05770 0.06400
C 	C 	0.52740 0.45320 0.09310 -0.13600
H 	H 	0.51520 0.45520 0.11790 0.08800
C 	C 	0.55980 0.50600 0.09230 0.08700
H 	H 	0.57040 0.54020 0.11810 -0.02400
C 	C 	0.48077 0.33880 0.05865 0.08200
C 	C 	0.43205 0.29470 0.08954 0.10300
C 	C 	0.44721 0.21430 0.03348 0.08800
C 	C 	0.39280 0.37790 0.18590 0.07600
H 	H 	0.40090 0.41530 0.21130 -0.01800
C 	C 	0.41772 0.36460 0.15810 -0.12000
H 	H 	0.44240 0.39210 0.16410 0.08300
C 	C 	0.40651 0.31040 0.12105 0.06300
C 	C 	0.36920 0.27290 0.11400 -0.12000
H 	H 	0.36010 0.23640 0.08860 0.08100
C 	C 	0.34693 0.28880 0.14320 0.07600
H 	H 	0.32220 0.26190 0.13810 -0.01500
C 	C 	0.40560 0.00500 0.97550 0.07200
H 	H 	0.38360 0.96820 0.97410 -0.01800
C 	C 	0.40960 0.07880 0.00230 -0.11800
H 	H 	0.39040 0.09340 0.01870 0.07600
C 	C 	0.44227 0.13290 0.00537 0.04700
C 	C 	0.46824 0.11010 0.97971 -0.11400
H 	H 	0.49030 0.14630 0.98000 0.06800
C 	C 	0.46197 0.03370 0.95350 0.06600
H 	H 	0.48040 0.01750 0.93650 -0.01000
C 	C 	0.67490 0.44540 0.09930 0.06800
H 	H 	0.66010 0.41490 0.07420 -0.00300
C 	C 	0.70488 0.40000 0.12680 -0.11800
H 	H 	0.71060 0.33980 0.12050 0.08500
C 	C 	0.72603 0.44300 0.16310 0.04800
C 	C 	0.71636 0.53120 0.17140 -0.12800
H 	H 	0.73020 0.56290 0.19670 0.08800
C 	C 	0.68654 0.57120 0.14230 0.07300
H 	H 	0.68020 0.63130 0.14800 -0.00900
C 	C 	0.75837 0.39860 0.19415 0.08500
C 	C 	0.79428 0.27670 0.21717 0.10200
C 	C 	0.80874 0.40860 0.25230 0.10000
C 	C 	0.78330 0.02920 0.19310 0.07500
H 	H 	0.76580 0.99000 0.17450 -0.01500
C 	C 	0.77616 0.12090 0.19010 -0.12500
H 	H 	0.75420 0.14350 0.16980 0.07900
C 	C 	0.80101 0.17830 0.21680 0.06000
C 	C 	0.83273 0.14250 0.24500 -0.12200
H 	H 	0.85080 0.18040 0.26370 0.08400
C 	C 	0.83800 0.05080 0.24600 0.06700
H 	H 	0.86010 0.02670 0.26550 -0.01600
C 	C 	0.84678 0.59210 0.33398 0.06300
H 	H 	0.83970 0.65070 0.34140 -0.01200
C 	C 	0.82365 0.54730 0.29894 -0.12100
H 	H 	0.80130 0.57560 0.28200 0.07400
C 	C 	0.83315 0.46070 0.28846 0.05500
C 	C 	0.86620 0.42330 0.31270 -0.11600
H 	H 	0.87380 0.36470 0.30600 0.09000
C 	C 	0.88840 0.47270 0.34720 0.07200
H 	H 	0.91130 0.44660 0.36410 -0.00800
N 	N 	0.76456 0.31080 0.18826 -0.14000
N 	N 	0.81834 0.32290 0.24854 -0.13600
N 	N 	0.42459 0.22310 0.06262 -0.13800
N 	N 	0.77906 0.45010 0.22620 -0.14200
N 	N 	0.47505 0.27150 0.02870 -0.14900
N 	N 	0.46013 0.35360 0.08982 -0.13400
N 	N 	0.43087 0.98190 0.95127 -0.27600
N 	N 	0.87903 0.55500 0.35776 -0.27400
N 	N 	0.66587 0.53020 0.10656 -0.28100
N 	N 	0.35771 0.34110 0.17940 -0.27900
N 	N 	0.81342 0.99440 0.22076 -0.27600
N 	N 	0.57627 0.51070 0.05817 -0.28800
Zn	Zn	0.82452 0.85832 0.22623 1.15900
Zn	Zn	0.91380 0.62420 0.40910 0.60200
Zn	Zn	0.62380 0.59540 0.06610 0.60800
I 	I 	0.86902 0.83365 0.30432 -0.34900
I 	I 	0.76430 0.76590 0.20354 -0.12900
I 	I 	0.97207 0.65810 0.37387 -0.05500
I 	I 	0.87655 0.73260 0.44680 -0.30400
I 	I 	0.60610 0.74010 0.10292 -0.33800
I 	I 	0.64305 0.59120 0.99145 0.03800
I 	I 	0.86150 0.83340 0.29460 -0.04400
I 	I 	0.76040 0.77450 0.19330 -0.20800
I 	I 	0.97679 0.64480 0.36712 -0.27200
I 	I 	0.88681 0.74202 0.44018 -0.05200
I 	I 	0.61299 0.73860 0.08986 -0.02400
I 	I 	0.64255 0.56390 0.98066 -0.38800
Zn	Zn	0.92090 0.62250 0.40390 0.57400
Zn	Zn	0.62220 0.58980 0.05520 0.57400
C 	C 	0.06227 0.95970 0.02370 0.08400
H 	H 	0.07390 0.96170 0.99850 -0.01100
C 	C 	0.03110 0.90270 0.02240 -0.13800
H 	H 	0.02200 0.86630 0.99690 0.08100
C 	C 	0.01378 0.89940 0.05770 0.06400
C 	C 	0.02740 0.95320 0.09310 -0.13600
H 	H 	0.01520 0.95520 0.11790 0.08700
C 	C 	0.05980 0.00600 0.09230 0.08600
H 	H 	0.07040 0.04020 0.11810 -0.02400
C 	C 	0.98077 0.83880 0.05865 0.08200
C 	C 	0.93205 0.79470 0.08954 0.10300
C 	C 	0.94721 0.71430 0.03348 0.08800
C 	C 	0.89280 0.87790 0.18590 0.07600
H 	H 	0.90090 0.91530 0.21130 -0.01800
C 	C 	0.91772 0.86460 0.15810 -0.12000
H 	H 	0.94240 0.89210 0.16410 0.08300
C 	C 	0.90651 0.81040 0.12105 0.06300
C 	C 	0.86920 0.77290 0.11400 -0.12000
H 	H 	0.86010 0.73640 0.08860 0.08100
C 	C 	0.84693 0.78880 0.14320 0.07700
H 	H 	0.82220 0.76190 0.13810 -0.01500
C 	C 	0.90560 0.50500 0.97550 0.07100
H 	H 	0.88360 0.46820 0.97410 -0.01800
C 	C 	0.90960 0.57880 0.00230 -0.11700
H 	H 	0.89040 0.59340 0.01870 0.07600
C 	C 	0.94227 0.63290 0.00537 0.04700
C 	C 	0.96824 0.61010 0.97971 -0.11500
H 	H 	0.99030 0.64630 0.98000 0.06800
C 	C 	0.96197 0.53370 0.95350 0.06600
H 	H 	0.98040 0.51750 0.93650 -0.01000
C 	C 	0.17490 0.94540 0.09930 0.06800
H 	H 	0.16010 0.91490 0.07420 -0.00300
C 	C 	0.20488 0.90000 0.12680 -0.11800
H 	H 	0.21060 0.83980 0.12050 0.08500
C 	C 	0.22603 0.94300 0.16310 0.04900
C 	C 	0.21636 0.03120 0.17140 -0.12800
H 	H 	0.23020 0.06290 0.19670 0.08800
C 	C 	0.18654 0.07120 0.14230 0.07300
H 	H 	0.18020 0.13130 0.14800 -0.00900
C 	C 	0.25837 0.89860 0.19415 0.08500
C 	C 	0.29428 0.77670 0.21717 0.10200
C 	C 	0.30874 0.90860 0.25230 0.10000
C 	C 	0.28330 0.52920 0.19310 0.07600
H 	H 	0.26580 0.49000 0.17450 -0.01500
C 	C 	0.27616 0.62090 0.19010 -0.12600
H 	H 	0.25420 0.64350 0.16980 0.07900
C 	C 	0.30101 0.67830 0.21680 0.06000
C 	C 	0.33273 0.64250 0.24500 -0.12200
H 	H 	0.35080 0.68040 0.26370 0.08400
C 	C 	0.33800 0.55080 0.24600 0.06700
H 	H 	0.36010 0.52670 0.26550 -0.01600
C 	C 	0.34678 0.09210 0.33398 0.06300
H 	H 	0.33970 0.15070 0.34140 -0.01200
C 	C 	0.32365 0.04730 0.29894 -0.12100
H 	H 	0.30130 0.07560 0.28200 0.07400
C 	C 	0.33315 0.96070 0.28846 0.05500
C 	C 	0.36620 0.92330 0.31270 -0.11700
H 	H 	0.37380 0.86470 0.30600 0.09000
C 	C 	0.38840 0.97270 0.34720 0.07200
H 	H 	0.41130 0.94660 0.36410 -0.00800
N 	N 	0.26456 0.81080 0.18826 -0.14000
N 	N 	0.31834 0.82290 0.24854 -0.13600
N 	N 	0.92459 0.72310 0.06262 -0.13800
N 	N 	0.27906 0.95010 0.22620 -0.14200
N 	N 	0.97505 0.77150 0.02870 -0.14900
N 	N 	0.96013 0.85360 0.08982 -0.13400
N 	N 	0.93087 0.48190 0.95127 -0.27600
N 	N 	0.37903 0.05500 0.35776 -0.27400
N 	N 	0.16587 0.03020 0.10656 -0.28100
N 	N 	0.85771 0.84110 0.17940 -0.27900
N 	N 	0.31342 0.49440 0.22076 -0.27600
N 	N 	0.07627 0.01070 0.05817 -0.28900
Zn	Zn	0.32452 0.35832 0.22623 1.15900
Zn	Zn	0.41380 0.12420 0.40910 0.60200
Zn	Zn	0.12380 0.09540 0.06610 0.60900
I 	I 	0.36902 0.33365 0.30432 -0.34900
I 	I 	0.26430 0.26590 0.20354 -0.12900
I 	I 	0.47207 0.15810 0.37387 -0.05500
I 	I 	0.37655 0.23260 0.44680 -0.30400
I 	I 	0.10610 0.24010 0.10292 -0.33800
I 	I 	0.14305 0.09120 0.99145 0.03800
I 	I 	0.36150 0.33340 0.29460 -0.04400
I 	I 	0.26040 0.27450 0.19330 -0.20800
I 	I 	0.47679 0.14480 0.36712 -0.27200
I 	I 	0.38681 0.24202 0.44018 -0.05200
I 	I 	0.11299 0.23860 0.08986 -0.02400
I 	I 	0.14255 0.06390 0.98066 -0.38800
Zn	Zn	0.42090 0.12250 0.40390 0.57400
Zn	Zn	0.12220 0.08980 0.05520 0.57400
C 	C 	0.43773 0.54030 0.97630 0.08400
H 	H 	0.42610 0.53830 0.00150 -0.01100
C 	C 	0.46890 0.59730 0.97760 -0.13900
H 	H 	0.47800 0.63370 0.00310 0.08100
C 	C 	0.48622 0.60060 0.94230 0.06400
C 	C 	0.47260 0.54680 0.90690 -0.13600
H 	H 	0.48480 0.54480 0.88210 0.08800
C 	C 	0.44020 0.49400 0.90770 0.08700
H 	H 	0.42960 0.45980 0.88190 -0.02400
C 	C 	0.51923 0.66120 0.94135 0.08200
C 	C 	0.56795 0.70530 0.91046 0.10300
C 	C 	0.55279 0.78570 0.96652 0.08800
C 	C 	0.60720 0.62210 0.81410 0.07600
H 	H 	0.59910 0.58470 0.78870 -0.01800
C 	C 	0.58228 0.63540 0.84190 -0.12000
H 	H 	0.55760 0.60790 0.83590 0.08300
C 	C 	0.59349 0.68960 0.87895 0.06300
C 	C 	0.63080 0.72710 0.88600 -0.12000
H 	H 	0.63990 0.76360 0.91140 0.08100
C 	C 	0.65307 0.71120 0.85680 0.07600
H 	H 	0.67780 0.73810 0.86190 -0.01500
C 	C 	0.59440 0.99500 0.02450 0.07200
H 	H 	0.61640 0.03180 0.02590 -0.01800
C 	C 	0.59040 0.92120 0.99770 -0.11800
H 	H 	0.60960 0.90660 0.98130 0.07600
C 	C 	0.55773 0.86710 0.99463 0.04700
C 	C 	0.53176 0.88990 0.02029 -0.11400
H 	H 	0.50970 0.85370 0.02000 0.06800
C 	C 	0.53803 0.96630 0.04650 0.06600
H 	H 	0.51960 0.98250 0.06350 -0.01000
C 	C 	0.32510 0.55460 0.90070 0.06800
H 	H 	0.33990 0.58510 0.92580 -0.00300
C 	C 	0.29512 0.60000 0.87320 -0.11800
H 	H 	0.28940 0.66020 0.87950 0.08500
C 	C 	0.27397 0.55700 0.83690 0.04800
C 	C 	0.28364 0.46880 0.82860 -0.12800
H 	H 	0.26980 0.43710 0.80330 0.08800
C 	C 	0.31346 0.42880 0.85770 0.07300
H 	H 	0.31980 0.36870 0.85200 -0.00900
C 	C 	0.24163 0.60140 0.80585 0.08500
C 	C 	0.20572 0.72330 0.78283 0.10200
C 	C 	0.19126 0.59140 0.74770 0.10000
C 	C 	0.21670 0.97080 0.80690 0.07500
H 	H 	0.23420 0.01000 0.82550 -0.01500
C 	C 	0.22384 0.87910 0.80990 -0.12500
H 	H 	0.24580 0.85650 0.83020 0.07900
C 	C 	0.19899 0.82170 0.78320 0.06000
C 	C 	0.16727 0.85750 0.75500 -0.12200
H 	H 	0.14920 0.81960 0.73630 0.08400
C 	C 	0.16200 0.94920 0.75400 0.06700
H 	H 	0.13990 0.97330 0.73450 -0.01600
C 	C 	0.15322 0.40790 0.66602 0.06300
H 	H 	0.16030 0.34930 0.65860 -0.01200
C 	C 	0.17635 0.45270 0.70106 -0.12100
H 	H 	0.19870 0.42440 0.71800 0.07400
C 	C 	0.16685 0.53930 0.71154 0.05500
C 	C 	0.13380 0.57670 0.68730 -0.11600
H 	H 	0.12620 0.63530 0.69400 0.09000
C 	C 	0.11160 0.52730 0.65280 0.07200
H 	H 	0.08870 0.55340 0.63590 -0.00800
N 	N 	0.23544 0.68920 0.81174 -0.14000
N 	N 	0.18166 0.67710 0.75146 -0.13600
N 	N 	0.57541 0.77690 0.93738 -0.13800
N 	N 	0.22094 0.54990 0.77380 -0.14200
N 	N 	0.52495 0.72850 0.97130 -0.14900
N 	N 	0.53987 0.64640 0.91018 -0.13400
N 	N 	0.56913 0.01810 0.04873 -0.27600
N 	N 	0.12097 0.44500 0.64224 -0.27400
N 	N 	0.33413 0.46980 0.89344 -0.28100
N 	N 	0.64229 0.65890 0.82060 -0.27900
N 	N 	0.18658 0.00560 0.77924 -0.27600
N 	N 	0.42373 0.48930 0.94183 -0.28800
Zn	Zn	0.17548 0.14168 0.77377 1.15900
Zn	Zn	0.08620 0.37580 0.59090 0.60200
Zn	Zn	0.37620 0.40460 0.93390 0.60800
I 	I 	0.13098 0.16635 0.69568 -0.34900
I 	I 	0.23570 0.23410 0.79646 -0.12900
I 	I 	0.02793 0.34190 0.62613 -0.05500
I 	I 	0.12345 0.26740 0.55320 -0.30400
I 	I 	0.39390 0.25990 0.89708 -0.33800
I 	I 	0.35695 0.40880 0.00855 0.03800
I 	I 	0.13850 0.16660 0.70540 -0.04400
I 	I 	0.23960 0.22550 0.80670 -0.20800
I 	I 	0.02321 0.35520 0.63288 -0.27200
I 	I 	0.11319 0.25798 0.55982 -0.05200
I 	I 	0.38701 0.26140 0.91014 -0.02400
I 	I 	0.35745 0.43610 0.01934 -0.38800
Zn	Zn	0.07910 0.37750 0.59610 0.57400
Zn	Zn	0.37780 0.41020 0.94480 0.57400
C 	C 	0.93773 0.04030 0.97630 0.08400
H 	H 	0.92610 0.03830 0.00150 -0.01100
C 	C 	0.96890 0.09730 0.97760 -0.13800
H 	H 	0.97800 0.13370 0.00310 0.08100
C 	C 	0.98622 0.10060 0.94230 0.06400
C 	C 	0.97260 0.04680 0.90690 -0.13600
H 	H 	0.98480 0.04480 0.88210 0.08700
C 	C 	0.94020 0.99400 0.90770 0.08600
H 	H 	0.92960 0.95980 0.88190 -0.02400
C 	C 	0.01923 0.16120 0.94135 0.08200
C 	C 	0.06795 0.20530 0.91046 0.10300
C 	C 	0.05279 0.28570 0.96652 0.08800
C 	C 	0.10720 0.12210 0.81410 0.07600
H 	H 	0.09910 0.08470 0.78870 -0.01800
C 	C 	0.08228 0.13540 0.84190 -0.12000
H 	H 	0.05760 0.10790 0.83590 0.08300
C 	C 	0.09349 0.18960 0.87895 0.06300
C 	C 	0.13080 0.22710 0.88600 -0.12000
H 	H 	0.13990 0.26360 0.91140 0.08100
C 	C 	0.15307 0.21120 0.85680 0.07700
H 	H 	0.17780 0.23810 0.86190 -0.01500
C 	C 	0.09440 0.49500 0.02450 0.07100
H 	H 	0.11640 0.53180 0.02590 -0.01800
C 	C 	0.09040 0.42120 0.99770 -0.11700
H 	H 	0.10960 0.40660 0.98130 0.07600
C 	C 	0.05773 0.36710 0.99463 0.04700
C 	C 	0.03176 0.38990 0.02029 -0.11500
H 	H 	0.00970 0.35370 0.02000 0.06800
C 	C 	0.03803 0.46630 0.04650 0.06600
H 	H 	0.01960 0.48250 0.06350 -0.01000
C 	C 	0.82510 0.05460 0.90070 0.06800
H 	H 	0.83990 0.08510 0.92580 -0.00300
C 	C 	0.79512 0.10000 0.87320 -0.11800
H 	H 	0.78940 0.16020 0.87950 0.08500
C 	C 	0.77397 0.05700 0.83690 0.04900
C 	C 	0.78364 0.96880 0.82860 -0.12800
H 	H 	0.76980 0.93710 0.80330 0.08800
C 	C 	0.81346 0.92880 0.85770 0.07300
H 	H 	0.81980 0.86870 0.85200 -0.00900
C 	C 	0.74163 0.10140 0.80585 0.08500
C 	C 	0.70572 0.22330 0.78283 0.10200
C 	C 	0.69126 0.09140 0.74770 0.10000
C 	C 	0.71670 0.47080 0.80690 0.07600
H 	H 	0.73420 0.51000 0.82550 -0.01500
C 	C 	0.72384 0.37910 0.80990 -0.12600
H 	H 	0.74580 0.35650 0.83020 0.07900
C 	C 	0.69899 0.32170 0.78320 0.06000
C 	C 	0.66727 0.35750 0.75500 -0.12200
H 	H 	0.64920 0.31960 0.73630 0.08400
C 	C 	0.66200 0.44920 0.75400 0.06700
H 	H 	0.63990 0.47330 0.73450 -0.01600
C 	C 	0.65322 0.90790 0.66602 0.06300
H 	H 	0.66030 0.84930 0.65860 -0.01200
C 	C 	0.67635 0.95270 0.70106 -0.12100
H 	H 	0.69870 0.92440 0.71800 0.07400
C 	C 	0.66685 0.03930 0.71154 0.05500
C 	C 	0.63380 0.07670 0.68730 -0.11700
H 	H 	0.62620 0.13530 0.69400 0.09000
C 	C 	0.61160 0.02730 0.65280 0.07200
H 	H 	0.58870 0.05340 0.63590 -0.00800
N 	N 	0.73544 0.18920 0.81174 -0.14000
N 	N 	0.68166 0.17710 0.75146 -0.13600
N 	N 	0.07541 0.27690 0.93738 -0.13800
N 	N 	0.72094 0.04990 0.77380 -0.14200
N 	N 	0.02495 0.22850 0.97130 -0.14900
N 	N 	0.03987 0.14640 0.91018 -0.13400
N 	N 	0.06913 0.51810 0.04873 -0.27600
N 	N 	0.62097 0.94500 0.64224 -0.27400
N 	N 	0.83413 0.96980 0.89344 -0.28100
N 	N 	0.14229 0.15890 0.82060 -0.27900
N 	N 	0.68658 0.50560 0.77924 -0.27600
N 	N 	0.92373 0.98930 0.94183 -0.28900
Zn	Zn	0.67548 0.64168 0.77377 1.15900
Zn	Zn	0.58620 0.87580 0.59090 0.60200
Zn	Zn	0.87620 0.90460 0.93390 0.60900
I 	I 	0.63098 0.66635 0.69568 -0.34900
I 	I 	0.73570 0.73410 0.79646 -0.12900
I 	I 	0.52793 0.84190 0.62613 -0.05500
I 	I 	0.62345 0.76740 0.55320 -0.30400
I 	I 	0.89390 0.75990 0.89708 -0.33800
I 	I 	0.85695 0.90880 0.00855 0.03800
I 	I 	0.63850 0.66660 0.70540 -0.04400
I 	I 	0.73960 0.72550 0.80670 -0.20800
I 	I 	0.52321 0.85520 0.63288 -0.27200
I 	I 	0.61319 0.75798 0.55982 -0.05200
I 	I 	0.88701 0.76140 0.91014 -0.02400
I 	I 	0.85745 0.93610 0.01934 -0.38800
Zn	Zn	0.57910 0.87750 0.59610 0.57400
Zn	Zn	0.87780 0.91020 0.94480 0.57400
C 	C 	0.43773 0.45970 0.47630 0.08400
H 	H 	0.42610 0.46170 0.50150 -0.01100
C 	C 	0.46890 0.40270 0.47760 -0.13800
H 	H 	0.47800 0.36630 0.50310 0.08100
C 	C 	0.48622 0.39940 0.44230 0.06400
C 	C 	0.47260 0.45320 0.40690 -0.13600
H 	H 	0.48480 0.45520 0.38210 0.08800
C 	C 	0.44020 0.50600 0.40770 0.08700
H 	H 	0.42960 0.54020 0.38190 -0.02400
C 	C 	0.51923 0.33880 0.44135 0.08200
C 	C 	0.56795 0.29470 0.41046 0.10300
C 	C 	0.55279 0.21430 0.46652 0.08800
C 	C 	0.60720 0.37790 0.31410 0.07600
H 	H 	0.59910 0.41530 0.28870 -0.01800
C 	C 	0.58228 0.36460 0.34190 -0.12000
H 	H 	0.55760 0.39210 0.33590 0.08300
C 	C 	0.59349 0.31040 0.37895 0.06300
C 	C 	0.63080 0.27290 0.38600 -0.12000
H 	H 	0.63990 0.23640 0.41140 0.08100
C 	C 	0.65307 0.28880 0.35680 0.07700
H 	H 	0.67780 0.26190 0.36190 -0.01500
C 	C 	0.59440 0.00500 0.52450 0.07100
H 	H 	0.61640 0.96820 0.52590 -0.01800
C 	C 	0.59040 0.07880 0.49770 -0.11700
H 	H 	0.60960 0.09340 0.48130 0.07600
C 	C 	0.55773 0.13290 0.49463 0.04700
C 	C 	0.53176 0.11010 0.52029 -0.11400
H 	H 	0.50970 0.14630 0.52000 0.06800
C 	C 	0.53803 0.03370 0.54650 0.06600
H 	H 	0.51960 0.01750 0.56350 -0.01000
C 	C 	0.32510 0.44540 0.40070 0.06800
H 	H 	0.33990 0.41490 0.42580 -0.00300
C 	C 	0.29512 0.40000 0.37320 -0.11800
H 	H 	0.28940 0.33980 0.37950 0.08500
C 	C 	0.27397 0.44300 0.33690 0.04800
C 	C 	0.28364 0.53120 0.32860 -0.12800
H 	H 	0.26980 0.56290 0.30330 0.08800
C 	C 	0.31346 0.57120 0.35770 0.07300
H 	H 	0.31980 0.63130 0.35200 -0.00900
C 	C 	0.24163 0.39860 0.30585 0.08500
C 	C 	0.20572 0.27670 0.28283 0.10200
C 	C 	0.19126 0.40860 0.24770 0.10000
C 	C 	0.21670 0.02920 0.30690 0.07500
H 	H 	0.23420 0.99000 0.32550 -0.01500
C 	C 	0.22384 0.12090 0.30990 -0.12600
H 	H 	0.24580 0.14350 0.33020 0.07900
C 	C 	0.19899 0.17830 0.28320 0.06000
C 	C 	0.16727 0.14250 0.25500 -0.12200
H 	H 	0.14920 0.18040 0.23630 0.08400
C 	C 	0.16200 0.05080 0.25400 0.06700
H 	H 	0.13990 0.02670 0.23450 -0.01600
C 	C 	0.15322 0.59210 0.16602 0.06300
H 	H 	0.16030 0.65070 0.15860 -0.01200
C 	C 	0.17635 0.54730 0.20106 -0.12100
H 	H 	0.19870 0.57560 0.21800 0.07400
C 	C 	0.16685 0.46070 0.21154 0.05500
C 	C 	0.13380 0.42330 0.18730 -0.11600
H 	H 	0.12620 0.36470 0.19400 0.09000
C 	C 	0.11160 0.47270 0.15280 0.07100
H 	H 	0.08870 0.44660 0.13590 -0.00800
N 	N 	0.23544 0.31080 0.31174 -0.14000
N 	N 	0.18166 0.32290 0.25146 -0.13600
N 	N 	0.57541 0.22310 0.43738 -0.13800
N 	N 	0.22094 0.45010 0.27380 -0.14200
N 	N 	0.52495 0.27150 0.47130 -0.14900
N 	N 	0.53987 0.35360 0.41018 -0.13400
N 	N 	0.56913 0.98190 0.54873 -0.27600
N 	N 	0.12097 0.55500 0.14224 -0.27400
N 	N 	0.33413 0.53020 0.39344 -0.28100
N 	N 	0.64229 0.34110 0.32060 -0.27900
N 	N 	0.18658 0.99440 0.27924 -0.27600
N 	N 	0.42373 0.51070 0.44183 -0.28800
Zn	Zn	0.17548 0.85832 0.27377 1.15900
Zn	Zn	0.08620 0.62420 0.09090 0.60200
Zn	Zn	0.37620 0.59540 0.43390 0.60800
I 	I 	0.13098 0.83365 0.19568 -0.34900
I 	I 	0.23570 0.76590 0.29646 -0.12900
I 	I 	0.02793 0.65810 0.12613 -0.05500
I 	I 	0.12345 0.73260 0.05320 -0.30400
I 	I 	0.39390 0.74010 0.39708 -0.33800
I 	I 	0.35695 0.59120 0.50855 0.03800
I 	I 	0.13850 0.83340 0.20540 -0.04400
I 	I 	0.23960 0.77450 0.30670 -0.20800
I 	I 	0.02321 0.64480 0.13288 -0.27200
I 	I 	0.11319 0.74202 0.05982 -0.05200
I 	I 	0.38701 0.73860 0.41014 -0.02400
I 	I 	0.35745 0.56390 0.51934 -0.38800
Zn	Zn	0.07910 0.62250 0.09610 0.57400
Zn	Zn	0.37780 0.58980 0.44480 0.57400
C 	C 	0.93773 0.95970 0.47630 0.08400
H 	H 	0.92610 0.96170 0.50150 -0.01100
C 	C 	0.96890 0.90270 0.47760 -0.13800
H 	H 	0.97800 0.86630 0.50310 0.08100
C 	C 	0.98622 0.89940 0.44230 0.06400
C 	C 	0.97260 0.95320 0.40690 -0.13600
H 	H 	0.98480 0.95520 0.38210 0.08800
C 	C 	0.94020 0.00600 0.40770 0.08700
H 	H 	0.92960 0.04020 0.38190 -0.02400
C 	C 	0.01923 0.83880 0.44135 0.08200
C 	C 	0.06795 0.79470 0.41046 0.10300
C 	C 	0.05279 0.71430 0.46652 0.08800
C 	C 	0.10720 0.87790 0.31410 0.07600
H 	H 	0.09910 0.91530 0.28870 -0.01800
C 	C 	0.08228 0.86460 0.34190 -0.12000
H 	H 	0.05760 0.89210 0.33590 0.08300
C 	C 	0.09349 0.81040 0.37895 0.06300
C 	C 	0.13080 0.77290 0.38600 -0.12000
H 	H 	0.13990 0.73640 0.41140 0.08100
C 	C 	0.15307 0.78880 0.35680 0.07700
H 	H 	0.17780 0.76190 0.36190 -0.01500
C 	C 	0.09440 0.50500 0.52450 0.07100
H 	H 	0.11640 0.46820 0.52590 -0.01800
C 	C 	0.09040 0.57880 0.49770 -0.11700
H 	H 	0.10960 0.59340 0.48130 0.07600
C 	C 	0.05773 0.63290 0.49463 0.04700
C 	C 	0.03176 0.61010 0.52029 -0.11400
H 	H 	0.00970 0.64630 0.52000 0.06800
C 	C 	0.03803 0.53370 0.54650 0.06600
H 	H 	0.01960 0.51750 0.56350 -0.01000
C 	C 	0.82510 0.94540 0.40070 0.06800
H 	H 	0.83990 0.91490 0.42580 -0.00300
C 	C 	0.79512 0.90000 0.37320 -0.11800
H 	H 	0.78940 0.83980 0.37950 0.08500
C 	C 	0.77397 0.94300 0.33690 0.04800
C 	C 	0.78364 0.03120 0.32860 -0.12800
H 	H 	0.76980 0.06290 0.30330 0.08800
C 	C 	0.81346 0.07120 0.35770 0.07300
H 	H 	0.81980 0.13130 0.35200 -0.00900
C 	C 	0.74163 0.89860 0.30585 0.08500
C 	C 	0.70572 0.77670 0.28283 0.10200
C 	C 	0.69126 0.90860 0.24770 0.10000
C 	C 	0.71670 0.52920 0.30690 0.07600
H 	H 	0.73420 0.49000 0.32550 -0.01500
C 	C 	0.72384 0.62090 0.30990 -0.12600
H 	H 	0.74580 0.64350 0.33020 0.07900
C 	C 	0.69899 0.67830 0.28320 0.06000
C 	C 	0.66727 0.64250 0.25500 -0.12200
H 	H 	0.64920 0.68040 0.23630 0.08400
C 	C 	0.66200 0.55080 0.25400 0.06700
H 	H 	0.63990 0.52670 0.23450 -0.01600
C 	C 	0.65322 0.09210 0.16602 0.06300
H 	H 	0.66030 0.15070 0.15860 -0.01200
C 	C 	0.67635 0.04730 0.20106 -0.12100
H 	H 	0.69870 0.07560 0.21800 0.07400
C 	C 	0.66685 0.96070 0.21154 0.05500
C 	C 	0.63380 0.92330 0.18730 -0.11700
H 	H 	0.62620 0.86470 0.19400 0.09000
C 	C 	0.61160 0.97270 0.15280 0.07200
H 	H 	0.58870 0.94660 0.13590 -0.00800
N 	N 	0.73544 0.81080 0.31174 -0.14000
N 	N 	0.68166 0.82290 0.25146 -0.13600
N 	N 	0.07541 0.72310 0.43738 -0.13800
N 	N 	0.72094 0.95010 0.27380 -0.14200
N 	N 	0.02495 0.77150 0.47130 -0.14900
N 	N 	0.03987 0.85360 0.41018 -0.13400
N 	N 	0.06913 0.48190 0.54873 -0.27600
N 	N 	0.62097 0.05500 0.14224 -0.27400
N 	N 	0.83413 0.03020 0.39344 -0.28100
N 	N 	0.14229 0.84110 0.32060 -0.27900
N 	N 	0.68658 0.49440 0.27924 -0.27600
N 	N 	0.92373 0.01070 0.44183 -0.28800
Zn	Zn	0.67548 0.35832 0.27377 1.15900
Zn	Zn	0.58620 0.12420 0.09090 0.60200
Zn	Zn	0.87620 0.09540 0.43390 0.60800
I 	I 	0.63098 0.33365 0.19568 -0.34900
I 	I 	0.73570 0.26590 0.29646 -0.12900
I 	I 	0.52793 0.15810 0.12613 -0.05500
I 	I 	0.62345 0.23260 0.05320 -0.30400
I 	I 	0.89390 0.24010 0.39708 -0.33800
I 	I 	0.85695 0.09120 0.50855 0.03800
I 	I 	0.63850 0.33340 0.20540 -0.04400
I 	I 	0.73960 0.27450 0.30670 -0.20800
I 	I 	0.52321 0.14480 0.13288 -0.27200
I 	I 	0.61319 0.24202 0.05982 -0.05200
I 	I 	0.88701 0.23860 0.41014 -0.02400
I 	I 	0.85745 0.06390 0.51934 -0.38800
Zn	Zn	0.57910 0.12250 0.09610 0.57400
Zn	Zn	0.87780 0.08980 0.44480 0.57400
