data_crystal

_cell_length_a 26.21700
_cell_length_b 26.21700
_cell_length_c 44.81300
_cell_angle_alpha 90.00000
_cell_angle_beta  90.00000
_cell_angle_gamma 90.00000

_symmetry_space_group_name_	'P 1'
_symmetry_space_group_name_H-M	'P 1'

loop_
_symmetry_equiv_pos_as_xyz
  x,y,z

loop_
_atom_site_label
_atom_site_type_symbol
_atom_site_fract_x
_atom_site_fract_y
_atom_site_fract_z
_atom_site_charge
O 	O 	0.18180 0.25560 0.46936 -0.40800
O 	O 	0.18090 0.44764 0.35780 -0.41500
O 	O 	0.24250 0.31565 0.46983 -0.41500
O 	O 	0.25550 0.44712 0.31367 -0.41000
O 	O 	0.31614 0.44636 0.35010 -0.39900
O 	O 	0.24180 0.44741 0.39303 -0.41600
C 	C 	0.20400 0.43170 0.38020 0.39100
C 	C 	0.20330 0.29550 0.46019 0.38200
C 	C 	0.29370 0.43080 0.32683 0.35600
C 	C 	0.30300 0.36690 0.28420 0.01900
C 	C 	0.20110 0.36640 0.42185 0.10200
C 	C 	0.12990 0.30290 0.42320 0.05000
C 	C 	0.17840 0.38780 0.39680 -0.11800
C 	C 	0.12940 0.36840 0.38380 0.04400
C 	C 	0.17620 0.32300 0.43435 -0.11800
C 	C 	0.10740 0.32570 0.39730 0.01400
C 	C 	0.32200 0.38650 0.31076 -0.10200
N 	N 	0.06060 0.30510 0.38230 -0.09300
O 	O 	0.68180 0.75560 0.96936 -0.39900
O 	O 	0.68090 0.94764 0.85780 -0.39200
O 	O 	0.74250 0.81565 0.96983 -0.40800
O 	O 	0.75550 0.94712 0.81367 -0.38900
O 	O 	0.81614 0.94636 0.85010 -0.37600
O 	O 	0.74180 0.94741 0.89303 -0.39400
C 	C 	0.70400 0.93170 0.88020 0.38800
C 	C 	0.70330 0.79550 0.96019 0.38200
C 	C 	0.79370 0.93080 0.82683 0.35400
C 	C 	0.80300 0.86690 0.78420 0.02900
C 	C 	0.70110 0.86640 0.92185 0.11100
C 	C 	0.62990 0.80290 0.92320 0.06300
C 	C 	0.67840 0.88780 0.89680 -0.11400
C 	C 	0.62940 0.86840 0.88380 0.05800
C 	C 	0.67620 0.82300 0.93435 -0.11700
C 	C 	0.60740 0.82570 0.89730 0.01800
C 	C 	0.82200 0.88650 0.81076 -0.09800
N 	N 	0.56060 0.80510 0.88230 -0.07600
O 	O 	0.81820 0.74440 0.46936 -0.39700
O 	O 	0.81910 0.55236 0.35780 -0.40900
O 	O 	0.75750 0.68435 0.46983 -0.41400
O 	O 	0.74450 0.55288 0.31367 -0.40800
O 	O 	0.68386 0.55364 0.35010 -0.40000
O 	O 	0.75820 0.55259 0.39303 -0.41600
C 	C 	0.79600 0.56830 0.38020 0.39200
C 	C 	0.79670 0.70450 0.46019 0.38300
C 	C 	0.70630 0.56920 0.32683 0.35600
C 	C 	0.69700 0.63310 0.28420 0.02300
C 	C 	0.79890 0.63360 0.42185 0.10700
C 	C 	0.87010 0.69710 0.42320 0.07000
C 	C 	0.82160 0.61220 0.39680 -0.11700
C 	C 	0.87060 0.63160 0.38380 0.06000
C 	C 	0.82380 0.67700 0.43435 -0.11800
C 	C 	0.89260 0.67430 0.39730 0.02000
C 	C 	0.67800 0.61350 0.31076 -0.10200
N 	N 	0.93940 0.69490 0.38230 -0.06400
O 	O 	0.31820 0.24440 0.96936 -0.40100
O 	O 	0.31910 0.05236 0.85780 -0.42400
O 	O 	0.25750 0.18435 0.96983 -0.41700
O 	O 	0.24450 0.05288 0.81367 -0.42100
O 	O 	0.18386 0.05364 0.85010 -0.41300
O 	O 	0.25820 0.05259 0.89303 -0.42800
C 	C 	0.29600 0.06830 0.88020 0.39200
C 	C 	0.29670 0.20450 0.96019 0.38200
C 	C 	0.20630 0.06920 0.82683 0.35500
C 	C 	0.19700 0.13310 0.78420 0.01300
C 	C 	0.29890 0.13360 0.92185 0.09900
C 	C 	0.37010 0.19710 0.92320 0.05900
C 	C 	0.32160 0.11220 0.89680 -0.11900
C 	C 	0.37060 0.13160 0.88380 0.04600
C 	C 	0.32380 0.17700 0.93435 -0.11800
C 	C 	0.39260 0.17430 0.89730 0.01600
C 	C 	0.17800 0.11350 0.81076 -0.10400
N 	N 	0.43940 0.19490 0.88230 -0.08100
O 	O 	0.74440 0.18180 0.46936 -0.40500
O 	O 	0.55236 0.18090 0.35780 -0.41600
O 	O 	0.68435 0.24250 0.46983 -0.41600
O 	O 	0.55288 0.25550 0.31367 -0.41100
O 	O 	0.55364 0.31614 0.35010 -0.40000
O 	O 	0.55259 0.24180 0.39303 -0.41700
C 	C 	0.56830 0.20400 0.38020 0.39100
C 	C 	0.70450 0.20330 0.46019 0.38100
C 	C 	0.56920 0.29370 0.32683 0.35600
C 	C 	0.63310 0.30300 0.28420 0.02000
C 	C 	0.63360 0.20110 0.42185 0.10300
C 	C 	0.69710 0.12990 0.42320 0.05500
C 	C 	0.61220 0.17840 0.39680 -0.11700
C 	C 	0.63160 0.12940 0.38380 0.04500
C 	C 	0.67700 0.17620 0.43435 -0.11800
C 	C 	0.67430 0.10740 0.39730 0.01500
C 	C 	0.61350 0.32200 0.31076 -0.10200
N 	N 	0.69490 0.06060 0.38230 -0.08900
O 	O 	0.24440 0.68180 0.96936 -0.40100
O 	O 	0.05236 0.68090 0.85780 -0.42400
O 	O 	0.18435 0.74250 0.96983 -0.41400
O 	O 	0.05288 0.75550 0.81367 -0.42000
O 	O 	0.05364 0.81614 0.85010 -0.40700
O 	O 	0.05259 0.74180 0.89303 -0.42500
C 	C 	0.06830 0.70400 0.88020 0.39100
C 	C 	0.20450 0.70330 0.96019 0.38100
C 	C 	0.06920 0.79370 0.82683 0.35600
C 	C 	0.13310 0.80300 0.78420 0.01800
C 	C 	0.13360 0.70110 0.92185 0.10200
C 	C 	0.19710 0.62990 0.92320 0.05900
C 	C 	0.11220 0.67840 0.89680 -0.11900
C 	C 	0.13160 0.62940 0.88380 0.04600
C 	C 	0.17700 0.67620 0.93435 -0.11800
C 	C 	0.17430 0.60740 0.89730 0.01600
C 	C 	0.11350 0.82200 0.81076 -0.10300
N 	N 	0.19490 0.56060 0.88230 -0.08100
O 	O 	0.25560 0.81820 0.46936 -0.40100
O 	O 	0.44764 0.81910 0.35780 -0.40900
O 	O 	0.31565 0.75750 0.46983 -0.41500
O 	O 	0.44712 0.74450 0.31367 -0.40800
O 	O 	0.44636 0.68386 0.35010 -0.40000
O 	O 	0.44741 0.75820 0.39303 -0.41600
C 	C 	0.43170 0.79600 0.38020 0.39200
C 	C 	0.29550 0.79670 0.46019 0.38300
C 	C 	0.43080 0.70630 0.32683 0.35600
C 	C 	0.36690 0.69700 0.28420 0.02200
C 	C 	0.36640 0.79890 0.42185 0.10700
C 	C 	0.30290 0.87010 0.42320 0.06600
C 	C 	0.38780 0.82160 0.39680 -0.11700
C 	C 	0.36840 0.87060 0.38380 0.05900
C 	C 	0.32300 0.82380 0.43435 -0.11800
C 	C 	0.32570 0.89260 0.39730 0.01900
C 	C 	0.38650 0.67800 0.31076 -0.10200
N 	N 	0.30510 0.93940 0.38230 -0.06800
O 	O 	0.75560 0.31820 0.96936 -0.40000
O 	O 	0.94764 0.31910 0.85780 -0.39200
O 	O 	0.81565 0.25750 0.96983 -0.41100
O 	O 	0.94712 0.24450 0.81367 -0.39000
O 	O 	0.94636 0.18386 0.85010 -0.38300
O 	O 	0.94741 0.25820 0.89303 -0.39700
C 	C 	0.93170 0.29600 0.88020 0.38800
C 	C 	0.79550 0.29670 0.96019 0.38300
C 	C 	0.93080 0.20630 0.82683 0.35400
C 	C 	0.86690 0.19700 0.78420 0.02400
C 	C 	0.86640 0.29890 0.92185 0.10900
C 	C 	0.80290 0.37010 0.92320 0.06300
C 	C 	0.88780 0.32160 0.89680 -0.11400
C 	C 	0.86840 0.37060 0.88380 0.05800
C 	C 	0.82300 0.32380 0.93435 -0.11700
C 	C 	0.82570 0.39260 0.89730 0.01800
C 	C 	0.88650 0.17800 0.81076 -0.09900
N 	N 	0.80510 0.43940 0.88230 -0.07600
O 	O 	0.81820 0.25560 0.53064 -0.40100
O 	O 	0.81910 0.44764 0.64220 -0.40900
O 	O 	0.75750 0.31565 0.53017 -0.41500
O 	O 	0.74450 0.44712 0.68633 -0.40800
O 	O 	0.68386 0.44636 0.64990 -0.40000
O 	O 	0.75820 0.44741 0.60697 -0.41600
C 	C 	0.79600 0.43170 0.61980 0.39200
C 	C 	0.79670 0.29550 0.53981 0.38300
C 	C 	0.70630 0.43080 0.67317 0.35600
C 	C 	0.69700 0.36690 0.71580 0.02200
C 	C 	0.79890 0.36640 0.57815 0.10700
C 	C 	0.87010 0.30290 0.57680 0.06600
C 	C 	0.82160 0.38780 0.60320 -0.11700
C 	C 	0.87060 0.36840 0.61620 0.05800
C 	C 	0.82380 0.32300 0.56565 -0.11800
C 	C 	0.89260 0.32570 0.60270 0.01900
C 	C 	0.67800 0.38650 0.68924 -0.10200
N 	N 	0.93940 0.30510 0.61770 -0.06800
O 	O 	0.31820 0.75560 0.03064 -0.40400
O 	O 	0.31910 0.94764 0.14220 -0.39200
O 	O 	0.25750 0.81565 0.03017 -0.41500
O 	O 	0.24450 0.94712 0.18633 -0.39000
O 	O 	0.18386 0.94636 0.14990 -0.38300
O 	O 	0.25820 0.94741 0.10697 -0.39800
C 	C 	0.29600 0.93170 0.11980 0.38800
C 	C 	0.29670 0.79550 0.03981 0.38300
C 	C 	0.20630 0.93080 0.17317 0.35400
C 	C 	0.19700 0.86690 0.21580 0.02400
C 	C 	0.29890 0.86640 0.07815 0.10800
C 	C 	0.37010 0.80290 0.07680 0.06100
C 	C 	0.32160 0.88780 0.10320 -0.11400
C 	C 	0.37060 0.86840 0.11620 0.05700
C 	C 	0.32380 0.82300 0.06565 -0.11700
C 	C 	0.39260 0.82570 0.10270 0.01700
C 	C 	0.17800 0.88650 0.18924 -0.09900
N 	N 	0.43940 0.80510 0.11770 -0.07600
O 	O 	0.18180 0.74440 0.53064 -0.40500
O 	O 	0.18090 0.55236 0.64220 -0.41600
O 	O 	0.24250 0.68435 0.53017 -0.41600
O 	O 	0.25550 0.55288 0.68633 -0.41100
O 	O 	0.31614 0.55364 0.64990 -0.40000
O 	O 	0.24180 0.55259 0.60697 -0.41700
C 	C 	0.20400 0.56830 0.61980 0.39100
C 	C 	0.20330 0.70450 0.53981 0.38100
C 	C 	0.29370 0.56920 0.67317 0.35600
C 	C 	0.30300 0.63310 0.71580 0.02000
C 	C 	0.20110 0.63360 0.57815 0.10300
C 	C 	0.12990 0.69710 0.57680 0.05500
C 	C 	0.17840 0.61220 0.60320 -0.11800
C 	C 	0.12940 0.63160 0.61620 0.04500
C 	C 	0.17620 0.67700 0.56565 -0.11800
C 	C 	0.10740 0.67430 0.60270 0.01500
C 	C 	0.32200 0.61350 0.68924 -0.10200
N 	N 	0.06060 0.69490 0.61770 -0.08900
O 	O 	0.68180 0.24440 0.03064 -0.40500
O 	O 	0.68090 0.05236 0.14220 -0.42400
O 	O 	0.74250 0.18435 0.03017 -0.41800
O 	O 	0.75550 0.05288 0.18633 -0.42000
O 	O 	0.81614 0.05364 0.14990 -0.40700
O 	O 	0.74180 0.05259 0.10697 -0.42600
C 	C 	0.70400 0.06830 0.11980 0.39100
C 	C 	0.70330 0.20450 0.03981 0.38100
C 	C 	0.79370 0.06920 0.17317 0.35600
C 	C 	0.80300 0.13310 0.21580 0.01800
C 	C 	0.70110 0.13360 0.07815 0.10100
C 	C 	0.62990 0.19710 0.07680 0.05700
C 	C 	0.67840 0.11220 0.10320 -0.11900
C 	C 	0.62940 0.13160 0.11620 0.04600
C 	C 	0.67620 0.17700 0.06565 -0.11800
C 	C 	0.60740 0.17430 0.10270 0.01600
C 	C 	0.82200 0.11350 0.18924 -0.10300
N 	N 	0.56060 0.19490 0.11770 -0.08100
O 	O 	0.25560 0.18180 0.53064 -0.40900
O 	O 	0.44764 0.18090 0.64220 -0.41600
O 	O 	0.31565 0.24250 0.53017 -0.41600
O 	O 	0.44712 0.25550 0.68633 -0.41200
O 	O 	0.44636 0.31614 0.64990 -0.40000
O 	O 	0.44741 0.24180 0.60697 -0.41700
C 	C 	0.43170 0.20400 0.61980 0.39100
C 	C 	0.29550 0.20330 0.53981 0.38200
C 	C 	0.43080 0.29370 0.67317 0.35600
C 	C 	0.36690 0.30300 0.71580 0.01900
C 	C 	0.36640 0.20110 0.57815 0.10200
C 	C 	0.30290 0.12990 0.57680 0.05000
C 	C 	0.38780 0.17840 0.60320 -0.11800
C 	C 	0.36840 0.12940 0.61620 0.04400
C 	C 	0.32300 0.17620 0.56565 -0.11800
C 	C 	0.32570 0.10740 0.60270 0.01400
C 	C 	0.38650 0.32200 0.68924 -0.10200
N 	N 	0.30510 0.06060 0.61770 -0.09300
O 	O 	0.75560 0.68180 0.03064 -0.40300
O 	O 	0.94764 0.68090 0.14220 -0.39200
O 	O 	0.81565 0.74250 0.03017 -0.41200
O 	O 	0.94712 0.75550 0.18633 -0.38900
O 	O 	0.94636 0.81614 0.14990 -0.37700
O 	O 	0.94741 0.74180 0.10697 -0.39500
C 	C 	0.93170 0.70400 0.11980 0.38800
C 	C 	0.79550 0.70330 0.03981 0.38200
C 	C 	0.93080 0.79370 0.17317 0.35500
C 	C 	0.86690 0.80300 0.21580 0.02900
C 	C 	0.86640 0.70110 0.07815 0.11000
C 	C 	0.80290 0.62990 0.07680 0.06200
C 	C 	0.88780 0.67840 0.10320 -0.11400
C 	C 	0.86840 0.62940 0.11620 0.05700
C 	C 	0.82300 0.67620 0.06565 -0.11700
C 	C 	0.82570 0.60740 0.10270 0.01700
C 	C 	0.88650 0.82200 0.18924 -0.09800
N 	N 	0.80510 0.56060 0.11770 -0.07600
O 	O 	0.74440 0.81820 0.53064 -0.39700
O 	O 	0.55236 0.81910 0.64220 -0.40900
O 	O 	0.68435 0.75750 0.53017 -0.41400
O 	O 	0.55288 0.74450 0.68633 -0.40800
O 	O 	0.55364 0.68386 0.64990 -0.40000
O 	O 	0.55259 0.75820 0.60697 -0.41600
C 	C 	0.56830 0.79600 0.61980 0.39200
C 	C 	0.70450 0.79670 0.53981 0.38300
C 	C 	0.56920 0.70630 0.67317 0.35600
C 	C 	0.63310 0.69700 0.71580 0.02300
C 	C 	0.63360 0.79890 0.57815 0.10700
C 	C 	0.69710 0.87010 0.57680 0.07000
C 	C 	0.61220 0.82160 0.60320 -0.11700
C 	C 	0.63160 0.87060 0.61620 0.06000
C 	C 	0.67700 0.82380 0.56565 -0.11800
C 	C 	0.67430 0.89260 0.60270 0.02000
C 	C 	0.61350 0.67800 0.68924 -0.10200
N 	N 	0.69490 0.93940 0.61770 -0.06400
O 	O 	0.24440 0.31820 0.03064 -0.40500
O 	O 	0.05236 0.31910 0.14220 -0.42400
O 	O 	0.18435 0.25750 0.03017 -0.42100
O 	O 	0.05288 0.24450 0.18633 -0.42100
O 	O 	0.05364 0.18386 0.14990 -0.41300
O 	O 	0.05259 0.25820 0.10697 -0.42900
C 	C 	0.06830 0.29600 0.11980 0.39200
C 	C 	0.20450 0.29670 0.03981 0.38200
C 	C 	0.06920 0.20630 0.17317 0.35500
C 	C 	0.13310 0.19700 0.21580 0.01300
C 	C 	0.13360 0.29890 0.07815 0.09800
C 	C 	0.19710 0.37010 0.07680 0.05700
C 	C 	0.11220 0.32160 0.10320 -0.12000
C 	C 	0.13160 0.37060 0.11620 0.04600
C 	C 	0.17700 0.32380 0.06565 -0.11900
C 	C 	0.17430 0.39260 0.10270 0.01600
C 	C 	0.11350 0.17800 0.18924 -0.10400
N 	N 	0.19490 0.43940 0.11770 -0.08200
O 	O 	0.81820 0.74440 0.53064 -0.39700
O 	O 	0.81910 0.55236 0.64220 -0.40900
O 	O 	0.75750 0.68435 0.53017 -0.41400
O 	O 	0.74450 0.55288 0.68633 -0.40800
O 	O 	0.68386 0.55364 0.64990 -0.40000
O 	O 	0.75820 0.55259 0.60697 -0.41600
C 	C 	0.79600 0.56830 0.61980 0.39200
C 	C 	0.79670 0.70450 0.53981 0.38300
C 	C 	0.70630 0.56920 0.67317 0.35600
C 	C 	0.69700 0.63310 0.71580 0.02300
C 	C 	0.79890 0.63360 0.57815 0.10700
C 	C 	0.87010 0.69710 0.57680 0.07000
C 	C 	0.82160 0.61220 0.60320 -0.11700
C 	C 	0.87060 0.63160 0.61620 0.06000
C 	C 	0.82380 0.67700 0.56565 -0.11800
C 	C 	0.89260 0.67430 0.60270 0.02000
C 	C 	0.67800 0.61350 0.68924 -0.10200
N 	N 	0.93940 0.69490 0.61770 -0.06400
O 	O 	0.31820 0.24440 0.03064 -0.40500
O 	O 	0.31910 0.05236 0.14220 -0.42400
O 	O 	0.25750 0.18435 0.03017 -0.42100
O 	O 	0.24450 0.05288 0.18633 -0.42100
O 	O 	0.18386 0.05364 0.14990 -0.41300
O 	O 	0.25820 0.05259 0.10697 -0.42900
C 	C 	0.29600 0.06830 0.11980 0.39200
C 	C 	0.29670 0.20450 0.03981 0.38200
C 	C 	0.20630 0.06920 0.17317 0.35500
C 	C 	0.19700 0.13310 0.21580 0.01300
C 	C 	0.29890 0.13360 0.07815 0.09800
C 	C 	0.37010 0.19710 0.07680 0.05700
C 	C 	0.32160 0.11220 0.10320 -0.12000
C 	C 	0.37060 0.13160 0.11620 0.04600
C 	C 	0.32380 0.17700 0.06565 -0.11900
C 	C 	0.39260 0.17430 0.10270 0.01600
C 	C 	0.17800 0.11350 0.18924 -0.10400
N 	N 	0.43940 0.19490 0.11770 -0.08200
O 	O 	0.18180 0.25560 0.53064 -0.40900
O 	O 	0.18090 0.44764 0.64220 -0.41600
O 	O 	0.24250 0.31565 0.53017 -0.41600
O 	O 	0.25550 0.44712 0.68633 -0.41200
O 	O 	0.31614 0.44636 0.64990 -0.40000
O 	O 	0.24180 0.44741 0.60697 -0.41700
C 	C 	0.20400 0.43170 0.61980 0.39100
C 	C 	0.20330 0.29550 0.53981 0.38200
C 	C 	0.29370 0.43080 0.67317 0.35600
C 	C 	0.30300 0.36690 0.71580 0.01900
C 	C 	0.20110 0.36640 0.57815 0.10200
C 	C 	0.12990 0.30290 0.57680 0.05000
C 	C 	0.17840 0.38780 0.60320 -0.11800
C 	C 	0.12940 0.36840 0.61620 0.04400
C 	C 	0.17620 0.32300 0.56565 -0.11800
C 	C 	0.10740 0.32570 0.60270 0.01400
C 	C 	0.32200 0.38650 0.68924 -0.10200
N 	N 	0.06060 0.30510 0.61770 -0.09300
O 	O 	0.68180 0.75560 0.03064 -0.40300
O 	O 	0.68090 0.94764 0.14220 -0.39200
O 	O 	0.74250 0.81565 0.03017 -0.41200
O 	O 	0.75550 0.94712 0.18633 -0.38900
O 	O 	0.81614 0.94636 0.14990 -0.37700
O 	O 	0.74180 0.94741 0.10697 -0.39500
C 	C 	0.70400 0.93170 0.11980 0.38800
C 	C 	0.70330 0.79550 0.03981 0.38200
C 	C 	0.79370 0.93080 0.17317 0.35500
C 	C 	0.80300 0.86690 0.21580 0.02900
C 	C 	0.70110 0.86640 0.07815 0.11000
C 	C 	0.62990 0.80290 0.07680 0.06200
C 	C 	0.67840 0.88780 0.10320 -0.11400
C 	C 	0.62940 0.86840 0.11620 0.05700
C 	C 	0.67620 0.82300 0.06565 -0.11700
C 	C 	0.60740 0.82570 0.10270 0.01700
C 	C 	0.82200 0.88650 0.18924 -0.09800
N 	N 	0.56060 0.80510 0.11770 -0.07600
O 	O 	0.25560 0.81820 0.53064 -0.40100
O 	O 	0.44764 0.81910 0.64220 -0.40900
O 	O 	0.31565 0.75750 0.53017 -0.41500
O 	O 	0.44712 0.74450 0.68633 -0.40800
O 	O 	0.44636 0.68386 0.64990 -0.40000
O 	O 	0.44741 0.75820 0.60697 -0.41600
C 	C 	0.43170 0.79600 0.61980 0.39200
C 	C 	0.29550 0.79670 0.53981 0.38300
C 	C 	0.43080 0.70630 0.67317 0.35600
C 	C 	0.36690 0.69700 0.71580 0.02200
C 	C 	0.36640 0.79890 0.57815 0.10700
C 	C 	0.30290 0.87010 0.57680 0.06600
C 	C 	0.38780 0.82160 0.60320 -0.11700
C 	C 	0.36840 0.87060 0.61620 0.05800
C 	C 	0.32300 0.82380 0.56565 -0.11800
C 	C 	0.32570 0.89260 0.60270 0.01900
C 	C 	0.38650 0.67800 0.68924 -0.10200
N 	N 	0.30510 0.93940 0.61770 -0.06800
O 	O 	0.75560 0.31820 0.03064 -0.40400
O 	O 	0.94764 0.31910 0.14220 -0.39200
O 	O 	0.81565 0.25750 0.03017 -0.41500
O 	O 	0.94712 0.24450 0.18633 -0.39000
O 	O 	0.94636 0.18386 0.14990 -0.38300
O 	O 	0.94741 0.25820 0.10697 -0.39800
C 	C 	0.93170 0.29600 0.11980 0.38800
C 	C 	0.79550 0.29670 0.03981 0.38300
C 	C 	0.93080 0.20630 0.17317 0.35400
C 	C 	0.86690 0.19700 0.21580 0.02400
C 	C 	0.86640 0.29890 0.07815 0.10800
C 	C 	0.80290 0.37010 0.07680 0.06100
C 	C 	0.88780 0.32160 0.10320 -0.11400
C 	C 	0.86840 0.37060 0.11620 0.05700
C 	C 	0.82300 0.32380 0.06565 -0.11700
C 	C 	0.82570 0.39260 0.10270 0.01700
C 	C 	0.88650 0.17800 0.18924 -0.09900
N 	N 	0.80510 0.43940 0.11770 -0.07600
O 	O 	0.74440 0.18180 0.53064 -0.40500
O 	O 	0.55236 0.18090 0.64220 -0.41600
O 	O 	0.68435 0.24250 0.53017 -0.41600
O 	O 	0.55288 0.25550 0.68633 -0.41100
O 	O 	0.55364 0.31614 0.64990 -0.40000
O 	O 	0.55259 0.24180 0.60697 -0.41700
C 	C 	0.56830 0.20400 0.61980 0.39100
C 	C 	0.70450 0.20330 0.53981 0.38100
C 	C 	0.56920 0.29370 0.67317 0.35600
C 	C 	0.63310 0.30300 0.71580 0.02000
C 	C 	0.63360 0.20110 0.57815 0.10300
C 	C 	0.69710 0.12990 0.57680 0.05500
C 	C 	0.61220 0.17840 0.60320 -0.11800
C 	C 	0.63160 0.12940 0.61620 0.04500
C 	C 	0.67700 0.17620 0.56565 -0.11800
C 	C 	0.67430 0.10740 0.60270 0.01500
C 	C 	0.61350 0.32200 0.68924 -0.10200
N 	N 	0.69490 0.06060 0.61770 -0.08900
O 	O 	0.24440 0.68180 0.03064 -0.40500
O 	O 	0.05236 0.68090 0.14220 -0.42400
O 	O 	0.18435 0.74250 0.03017 -0.41800
O 	O 	0.05288 0.75550 0.18633 -0.42000
O 	O 	0.05364 0.81614 0.14990 -0.40700
O 	O 	0.05259 0.74180 0.10697 -0.42600
C 	C 	0.06830 0.70400 0.11980 0.39100
C 	C 	0.20450 0.70330 0.03981 0.38100
C 	C 	0.06920 0.79370 0.17317 0.35600
C 	C 	0.13310 0.80300 0.21580 0.01800
C 	C 	0.13360 0.70110 0.07815 0.10100
C 	C 	0.19710 0.62990 0.07680 0.05700
C 	C 	0.11220 0.67840 0.10320 -0.11900
C 	C 	0.13160 0.62940 0.11620 0.04600
C 	C 	0.17700 0.67620 0.06565 -0.11800
C 	C 	0.17430 0.60740 0.10270 0.01600
C 	C 	0.11350 0.82200 0.18924 -0.10300
N 	N 	0.19490 0.56060 0.11770 -0.08100
O 	O 	0.18180 0.74440 0.46936 -0.40500
O 	O 	0.18090 0.55236 0.35780 -0.41600
O 	O 	0.24250 0.68435 0.46983 -0.41600
O 	O 	0.25550 0.55288 0.31367 -0.41100
O 	O 	0.31614 0.55364 0.35010 -0.40000
O 	O 	0.24180 0.55259 0.39303 -0.41700
C 	C 	0.20400 0.56830 0.38020 0.39100
C 	C 	0.20330 0.70450 0.46019 0.38100
C 	C 	0.29370 0.56920 0.32683 0.35600
C 	C 	0.30300 0.63310 0.28420 0.02000
C 	C 	0.20110 0.63360 0.42185 0.10300
C 	C 	0.12990 0.69710 0.42320 0.05500
C 	C 	0.17840 0.61220 0.39680 -0.11700
C 	C 	0.12940 0.63160 0.38380 0.04500
C 	C 	0.17620 0.67700 0.43435 -0.11800
C 	C 	0.10740 0.67430 0.39730 0.01500
C 	C 	0.32200 0.61350 0.31076 -0.10200
N 	N 	0.06060 0.69490 0.38230 -0.08900
O 	O 	0.68180 0.24440 0.96936 -0.40100
O 	O 	0.68090 0.05236 0.85780 -0.42400
O 	O 	0.74250 0.18435 0.96983 -0.41400
O 	O 	0.75550 0.05288 0.81367 -0.42000
O 	O 	0.81614 0.05364 0.85010 -0.40700
O 	O 	0.74180 0.05259 0.89303 -0.42500
C 	C 	0.70400 0.06830 0.88020 0.39100
C 	C 	0.70330 0.20450 0.96019 0.38100
C 	C 	0.79370 0.06920 0.82683 0.35600
C 	C 	0.80300 0.13310 0.78420 0.01800
C 	C 	0.70110 0.13360 0.92185 0.10200
C 	C 	0.62990 0.19710 0.92320 0.05900
C 	C 	0.67840 0.11220 0.89680 -0.11900
C 	C 	0.62940 0.13160 0.88380 0.04600
C 	C 	0.67620 0.17700 0.93435 -0.11800
C 	C 	0.60740 0.17430 0.89730 0.01600
C 	C 	0.82200 0.11350 0.81076 -0.10300
N 	N 	0.56060 0.19490 0.88230 -0.08100
O 	O 	0.81820 0.25560 0.46936 -0.40100
O 	O 	0.81910 0.44764 0.35780 -0.40900
O 	O 	0.75750 0.31565 0.46983 -0.41500
O 	O 	0.74450 0.44712 0.31367 -0.40800
O 	O 	0.68386 0.44636 0.35010 -0.40000
O 	O 	0.75820 0.44741 0.39303 -0.41600
C 	C 	0.79600 0.43170 0.38020 0.39200
C 	C 	0.79670 0.29550 0.46019 0.38300
C 	C 	0.70630 0.43080 0.32683 0.35600
C 	C 	0.69700 0.36690 0.28420 0.02200
C 	C 	0.79890 0.36640 0.42185 0.10700
C 	C 	0.87010 0.30290 0.42320 0.06600
C 	C 	0.82160 0.38780 0.39680 -0.11700
C 	C 	0.87060 0.36840 0.38380 0.05900
C 	C 	0.82380 0.32300 0.43435 -0.11800
C 	C 	0.89260 0.32570 0.39730 0.01900
C 	C 	0.67800 0.38650 0.31076 -0.10200
N 	N 	0.93940 0.30510 0.38230 -0.06800
O 	O 	0.31820 0.75560 0.96936 -0.40000
O 	O 	0.31910 0.94764 0.85780 -0.39200
O 	O 	0.25750 0.81565 0.96983 -0.41100
O 	O 	0.24450 0.94712 0.81367 -0.39000
O 	O 	0.18386 0.94636 0.85010 -0.38300
O 	O 	0.25820 0.94741 0.89303 -0.39700
C 	C 	0.29600 0.93170 0.88020 0.38800
C 	C 	0.29670 0.79550 0.96019 0.38300
C 	C 	0.20630 0.93080 0.82683 0.35400
C 	C 	0.19700 0.86690 0.78420 0.02400
C 	C 	0.29890 0.86640 0.92185 0.10900
C 	C 	0.37010 0.80290 0.92320 0.06300
C 	C 	0.32160 0.88780 0.89680 -0.11400
C 	C 	0.37060 0.86840 0.88380 0.05800
C 	C 	0.32380 0.82300 0.93435 -0.11700
C 	C 	0.39260 0.82570 0.89730 0.01800
C 	C 	0.17800 0.88650 0.81076 -0.09900
N 	N 	0.43940 0.80510 0.88230 -0.07600
O 	O 	0.74440 0.81820 0.46936 -0.39700
O 	O 	0.55236 0.81910 0.35780 -0.40900
O 	O 	0.68435 0.75750 0.46983 -0.41400
O 	O 	0.55288 0.74450 0.31367 -0.40800
O 	O 	0.55364 0.68386 0.35010 -0.40000
O 	O 	0.55259 0.75820 0.39303 -0.41600
C 	C 	0.56830 0.79600 0.38020 0.39200
C 	C 	0.70450 0.79670 0.46019 0.38300
C 	C 	0.56920 0.70630 0.32683 0.35600
C 	C 	0.63310 0.69700 0.28420 0.02300
C 	C 	0.63360 0.79890 0.42185 0.10700
C 	C 	0.69710 0.87010 0.42320 0.07000
C 	C 	0.61220 0.82160 0.39680 -0.11700
C 	C 	0.63160 0.87060 0.38380 0.06000
C 	C 	0.67700 0.82380 0.43435 -0.11800
C 	C 	0.67430 0.89260 0.39730 0.02000
C 	C 	0.61350 0.67800 0.31076 -0.10200
N 	N 	0.69490 0.93940 0.38230 -0.06400
O 	O 	0.24440 0.31820 0.96936 -0.40100
O 	O 	0.05236 0.31910 0.85780 -0.42400
O 	O 	0.18435 0.25750 0.96983 -0.41700
O 	O 	0.05288 0.24450 0.81367 -0.42100
O 	O 	0.05364 0.18386 0.85010 -0.41300
O 	O 	0.05259 0.25820 0.89303 -0.42800
C 	C 	0.06830 0.29600 0.88020 0.39200
C 	C 	0.20450 0.29670 0.96019 0.38200
C 	C 	0.06920 0.20630 0.82683 0.35500
C 	C 	0.13310 0.19700 0.78420 0.01300
C 	C 	0.13360 0.29890 0.92185 0.09900
C 	C 	0.19710 0.37010 0.92320 0.05900
C 	C 	0.11220 0.32160 0.89680 -0.11900
C 	C 	0.13160 0.37060 0.88380 0.04600
C 	C 	0.17700 0.32380 0.93435 -0.11800
C 	C 	0.17430 0.39260 0.89730 0.01600
C 	C 	0.11350 0.17800 0.81076 -0.10400
N 	N 	0.19490 0.43940 0.88230 -0.08100
O 	O 	0.25560 0.18180 0.46936 -0.40900
O 	O 	0.44764 0.18090 0.35780 -0.41600
O 	O 	0.31565 0.24250 0.46983 -0.41600
O 	O 	0.44712 0.25550 0.31367 -0.41100
O 	O 	0.44636 0.31614 0.35010 -0.40000
O 	O 	0.44741 0.24180 0.39303 -0.41700
C 	C 	0.43170 0.20400 0.38020 0.39100
C 	C 	0.29550 0.20330 0.46019 0.38200
C 	C 	0.43080 0.29370 0.32683 0.35600
C 	C 	0.36690 0.30300 0.28420 0.01900
C 	C 	0.36640 0.20110 0.42185 0.10200
C 	C 	0.30290 0.12990 0.42320 0.05000
C 	C 	0.38780 0.17840 0.39680 -0.11800
C 	C 	0.36840 0.12940 0.38380 0.04400
C 	C 	0.32300 0.17620 0.43435 -0.11800
C 	C 	0.32570 0.10740 0.39730 0.01400
C 	C 	0.38650 0.32200 0.31076 -0.10200
N 	N 	0.30510 0.06060 0.38230 -0.09300
O 	O 	0.75560 0.68180 0.96936 -0.39900
O 	O 	0.94764 0.68090 0.85780 -0.39200
O 	O 	0.81565 0.74250 0.96983 -0.40800
O 	O 	0.94712 0.75550 0.81367 -0.38900
O 	O 	0.94636 0.81614 0.85010 -0.37600
O 	O 	0.94741 0.74180 0.89303 -0.39400
C 	C 	0.93170 0.70400 0.88020 0.38800
C 	C 	0.79550 0.70330 0.96019 0.38200
C 	C 	0.93080 0.79370 0.82683 0.35400
C 	C 	0.86690 0.80300 0.78420 0.02900
C 	C 	0.86640 0.70110 0.92185 0.11100
C 	C 	0.80290 0.62990 0.92320 0.06300
C 	C 	0.88780 0.67840 0.89680 -0.11400
C 	C 	0.86840 0.62940 0.88380 0.05800
C 	C 	0.82300 0.67620 0.93435 -0.11700
C 	C 	0.82570 0.60740 0.89730 0.01800
C 	C 	0.88650 0.82200 0.81076 -0.09800
N 	N 	0.80510 0.56060 0.88230 -0.07600
Cu	Cu	0.21324 0.21324 0.50000 0.90800
Cu	Cu	0.28471 0.28471 0.50000 0.91600
Cu	Cu	0.71324 0.71324 -0.00000 0.90900
Cu	Cu	0.78471 0.78471 -0.00000 0.91600
Cu	Cu	0.78676 0.78676 0.50000 0.91400
Cu	Cu	0.71529 0.71529 0.50000 0.91600
Cu	Cu	0.28676 0.28676 -0.00000 0.90800
Cu	Cu	0.21529 0.21529 -0.00000 0.91200
Cu	Cu	0.78676 0.21324 0.50000 0.91100
Cu	Cu	0.71529 0.28471 0.50000 0.91600
Cu	Cu	0.28676 0.71324 -0.00000 0.90800
Cu	Cu	0.21529 0.78471 -0.00000 0.91400
Cu	Cu	0.21324 0.78676 0.50000 0.91100
Cu	Cu	0.28471 0.71529 0.50000 0.91600
Cu	Cu	0.71324 0.28676 -0.00000 0.90800
Cu	Cu	0.78471 0.21529 -0.00000 0.91400
Cu	Cu	0.28455 0.50000 0.37413 0.90400
Cu	Cu	0.21313 0.50000 0.33255 0.89900
Cu	Cu	0.78455 0.00000 0.87413 0.88700
Cu	Cu	0.71313 0.00000 0.83255 0.88200
Cu	Cu	0.71545 0.50000 0.37413 0.90400
Cu	Cu	0.78687 0.50000 0.33255 0.90200
Cu	Cu	0.21545 0.00000 0.87413 0.88500
Cu	Cu	0.28687 0.00000 0.83255 0.88200
Cu	Cu	0.50000 0.28455 0.37413 0.90400
Cu	Cu	0.50000 0.21313 0.33255 0.89900
Cu	Cu	0.00000 0.78455 0.87413 0.88700
Cu	Cu	0.00000 0.71313 0.83255 0.88200
Cu	Cu	0.50000 0.71545 0.37413 0.90400
Cu	Cu	0.50000 0.78687 0.33255 0.90200
Cu	Cu	-0.00000 0.21545 0.87413 0.88500
Cu	Cu	-0.00000 0.28687 0.83255 0.88200
Cu	Cu	0.71545 0.50000 0.62587 0.90400
Cu	Cu	0.78687 0.50000 0.66745 0.90200
Cu	Cu	0.21545 0.00000 0.12587 0.88400
Cu	Cu	0.28687 0.00000 0.16745 0.88200
Cu	Cu	0.28455 0.50000 0.62587 0.90400
Cu	Cu	0.21313 0.50000 0.66745 0.89900
Cu	Cu	0.78455 0.00000 0.12587 0.88700
Cu	Cu	0.71313 0.00000 0.16745 0.88200
Cu	Cu	0.50000 0.28455 0.62587 0.90400
Cu	Cu	0.50000 0.21313 0.66745 0.89900
Cu	Cu	-0.00000 0.78455 0.12587 0.88700
Cu	Cu	0.00000 0.71313 0.16745 0.88200
Cu	Cu	0.50000 0.71545 0.62587 0.90400
Cu	Cu	0.50000 0.78687 0.66745 0.90200
Cu	Cu	0.00000 0.21545 0.12587 0.88400
Cu	Cu	-0.00000 0.28687 0.16745 0.88200
N 	N 	0.30330 0.30330 0.24360 -0.23000
C 	C 	0.36430 0.36430 0.32500 0.08900
C 	C 	0.32650 0.32650 0.27010 -0.00600
N 	N 	0.80330 0.80330 0.74360 -0.22200
C 	C 	0.86430 0.86430 0.82500 0.09900
C 	C 	0.82650 0.82650 0.77010 -0.00300
N 	N 	0.69670 0.69670 0.24360 -0.22600
C 	C 	0.63570 0.63570 0.32500 0.09000
C 	C 	0.67350 0.67350 0.27010 -0.00500
N 	N 	0.19670 0.19670 0.74360 -0.23400
C 	C 	0.13570 0.13570 0.82500 0.08100
C 	C 	0.17350 0.17350 0.77010 -0.00800
N 	N 	0.69670 0.30330 0.24360 -0.22800
C 	C 	0.63570 0.36430 0.32500 0.09000
C 	C 	0.67350 0.32650 0.27010 -0.00600
N 	N 	0.19670 0.80330 0.74360 -0.22800
C 	C 	0.13570 0.86430 0.82500 0.09000
C 	C 	0.17350 0.82650 0.77010 -0.00500
N 	N 	0.30330 0.69670 0.24360 -0.22800
C 	C 	0.36430 0.63570 0.32500 0.09000
C 	C 	0.32650 0.67350 0.27010 -0.00600
N 	N 	0.80330 0.19670 0.74360 -0.22800
C 	C 	0.86430 0.13570 0.82500 0.09000
C 	C 	0.82650 0.17350 0.77010 -0.00500
N 	N 	0.69670 0.30330 0.75640 -0.22800
C 	C 	0.63570 0.36430 0.67500 0.09000
C 	C 	0.67350 0.32650 0.72990 -0.00600
N 	N 	0.19670 0.80330 0.25640 -0.22800
C 	C 	0.13570 0.86430 0.17500 0.09000
C 	C 	0.17350 0.82650 0.22990 -0.00500
N 	N 	0.30330 0.69670 0.75640 -0.22800
C 	C 	0.36430 0.63570 0.67500 0.09000
C 	C 	0.32650 0.67350 0.72990 -0.00600
N 	N 	0.80330 0.19670 0.25640 -0.22800
C 	C 	0.86430 0.13570 0.17500 0.09000
C 	C 	0.82650 0.17350 0.22990 -0.00500
N 	N 	0.30330 0.30330 0.75640 -0.23000
C 	C 	0.36430 0.36430 0.67500 0.08900
C 	C 	0.32650 0.32650 0.72990 -0.00600
N 	N 	0.80330 0.80330 0.25640 -0.22200
C 	C 	0.86430 0.86430 0.17500 0.09900
C 	C 	0.82650 0.82650 0.22990 -0.00300
N 	N 	0.69670 0.69670 0.75640 -0.22600
C 	C 	0.63570 0.63570 0.67500 0.09000
C 	C 	0.67350 0.67350 0.72990 -0.00500
N 	N 	0.19670 0.19670 0.25640 -0.23400
C 	C 	0.13570 0.13570 0.17500 0.08000
C 	C 	0.17350 0.17350 0.22990 -0.00800
Cu	Cu	0.25000 0.25000 0.25000 0.80200
Cu	Cu	0.75000 0.75000 0.25000 0.80600
Cu	Cu	0.75000 0.25000 0.25000 0.80400
Cu	Cu	0.25000 0.75000 0.25000 0.80400
Cu	Cu	0.75000 0.25000 0.75000 0.80400
Cu	Cu	0.25000 0.75000 0.75000 0.80400
Cu	Cu	0.25000 0.25000 0.75000 0.80200
Cu	Cu	0.75000 0.75000 0.75000 0.80600
