data_crystal

_cell_length_a 34.44000
_cell_length_b 14.91780
_cell_length_c 29.89400
_cell_angle_alpha 90.00000
_cell_angle_beta  99.30700
_cell_angle_gamma 90.00000

_symmetry_space_group_name_	'P 1'
_symmetry_space_group_name_H-M	'P 1'

loop_
_symmetry_equiv_pos_as_xyz
  x,y,z

loop_
_atom_site_label
_atom_site_type_symbol
_atom_site_fract_x
_atom_site_fract_y
_atom_site_fract_z
_atom_site_charge
C 	C 	0.30690 0.57740 0.36480 0.06800
H 	H 	0.31280 0.63840 0.35970 -0.01100
C 	C 	0.27810 0.53580 0.33600 -0.13300
H 	H 	0.26400 0.56840 0.31130 0.09700
C 	C 	0.26900 0.44840 0.34170 0.06600
C 	C 	0.28980 0.40280 0.37800 -0.13000
H 	H 	0.28430 0.34180 0.38370 0.09000
C 	C 	0.31880 0.44890 0.40560 0.07900
H 	H 	0.33370 0.41710 0.43000 -0.03800
C 	C 	0.23790 0.40400 0.30980 0.09200
C 	C 	0.18870 0.41490 0.24970 0.09500
C 	C 	0.20260 0.28300 0.28430 0.10600
C 	C 	0.21260 0.03400 0.30570 0.10500
H 	H 	0.22970 0.99380 0.32410 -0.04500
C 	C 	0.22030 0.12560 0.31100 -0.14400
H 	H 	0.24220 0.14620 0.33180 0.08800
C 	C 	0.19560 0.18550 0.28550 0.06300
C 	C 	0.16390 0.14720 0.25560 -0.12400
H 	H 	0.14560 0.18510 0.23730 0.07900
C 	C 	0.15910 0.05630 0.25260 0.07000
H 	H 	0.13760 0.03230 0.23220 -0.02500
C 	C 	0.14810 0.60010 0.17060 0.07300
H 	H 	0.15300 0.66170 0.16580 0.00700
C 	C 	0.17110 0.55590 0.20650 -0.13300
H 	H 	0.19050 0.58740 0.22680 0.09400
C 	C 	0.16530 0.46750 0.21180 0.07300
C 	C 	0.13710 0.42600 0.18310 -0.13300
H 	H 	0.13190 0.36410 0.18700 0.09200
C 	C 	0.11530 0.47350 0.14780 0.08500
H 	H 	0.09660 0.44260 0.12640 -0.00800
N 	N 	0.32740 0.53320 0.40080 -0.34100
N 	N 	0.21820 0.45590 0.27680 -0.13800
N 	N 	0.17930 0.32830 0.25220 -0.13600
N 	N 	0.23130 0.31720 0.31450 -0.13300
N 	N 	0.18420 -0.00000 0.27790 -0.29400
N 	N 	0.11990 0.55960 0.14320 -0.27600
C 	C 	0.43030 0.46760 0.48940 0.08500
H 	H 	0.41940 0.47450 0.51640 -0.01900
C 	C 	0.46340 0.40970 0.48920 -0.14600
H 	H 	0.47450 0.37910 0.51610 0.08500
C 	C 	0.47800 0.39900 0.45260 0.08400
C 	C 	0.46070 0.44440 0.41510 -0.16800
H 	H 	0.47120 0.43840 0.38780 0.08800
C 	C 	0.42960 0.49670 0.41560 0.10400
H 	H 	0.41780 0.52400 0.38800 -0.06500
C 	C 	0.51210 0.34090 0.45150 0.07200
C 	C 	0.54540 0.21360 0.47220 0.08300
C 	C 	0.56380 0.30000 0.41780 0.11700
C 	C 	0.53280 0.02930 0.55330 0.08800
H 	H 	0.51500 0.01350 0.57320 -0.01400
C 	C 	0.52590 0.10620 0.52790 -0.14100
H 	H 	0.50360 0.14230 0.53020 0.08000
C 	C 	0.55080 0.12980 0.49970 0.08300
C 	C 	0.58230 0.07660 0.49820 -0.13100
H 	H 	0.60120 0.09230 0.47960 0.10000
C 	C 	0.58690 0.99870 0.52410 0.09300
H 	H 	0.60850 0.96070 0.52130 -0.02600
C 	C 	0.64380 0.27990 0.35030 0.07000
H 	H 	0.66570 0.24150 0.34910 -0.01500
C 	C 	0.62080 0.26240 0.38440 -0.11800
H 	H 	0.62770 0.21620 0.40620 0.10300
C 	C 	0.58860 0.31440 0.38490 0.07200
C 	C 	0.58570 0.38630 0.35220 -0.14800
H 	H 	0.56530 0.42880 0.35300 0.08200
C 	C 	0.60770 0.39850 0.32240 0.09700
H 	H 	0.60240 0.44700 0.30170 -0.03800
N 	N 	0.41470 0.51200 0.45220 -0.34800
N 	N 	0.51610 0.26860 0.47950 -0.14200
N 	N 	0.57070 0.22460 0.44140 -0.12000
N 	N 	0.53560 0.35700 0.42030 -0.13500
N 	N 	0.56390 0.97540 0.55120 -0.28600
N 	N 	0.63770 0.34490 0.31980 -0.29800
Zn	Zn	0.35855 0.58940 0.46370 1.08700
Zn	Zn	0.17160 0.86330 0.26830 0.68500
Zn	Zn	0.08051 0.62977 0.09563 1.16000
I 	I 	0.33247 0.55990 0.53530 1.04400
I 	I 	0.23406 0.76910 0.28890 -0.24400
I 	I 	0.12737 0.84909 0.19295 0.16400
I 	I 	0.11955 0.73890 0.05211 -0.42700
I 	I 	0.02285 0.66358 0.13581 -0.19400
I 	I 	0.37660 0.74220 0.42830 -0.29600
Zn	Zn	0.37422 0.60100 0.43833 0.93700
Zn	Zn	0.17810 0.86740 0.28050 0.59800
I 	I 	0.34841 0.60680 0.51220 -1.82200
I 	I 	0.36260 0.73750 0.45360 -0.14600
I 	I 	0.23350 0.78120 0.30740 -0.09100
I 	I 	0.25240 0.79330 0.33170 -0.00900
I 	I 	0.14470 0.83200 0.20400 -0.28500
I 	I 	0.16860 0.80600 0.21510 -0.42700
I 	I 	0.11060 0.74110 0.06520 0.02700
I 	I 	0.02590 0.66350 0.13690 -0.14000
I 	I 	0.39592 0.73756 0.39816 -0.11300
C 	C 	0.80690 0.07740 0.36480 0.05900
H 	H 	0.81280 0.13840 0.35970 -0.00900
C 	C 	0.77810 0.03580 0.33600 -0.11600
H 	H 	0.76400 0.06840 0.31130 0.09100
C 	C 	0.76900 0.94840 0.34170 0.04900
C 	C 	0.78980 0.90280 0.37800 -0.11900
H 	H 	0.78430 0.84180 0.38370 0.08600
C 	C 	0.81880 0.94890 0.40560 0.06400
H 	H 	0.83370 0.91710 0.43000 -0.03500
C 	C 	0.73790 0.90400 0.30980 0.09600
C 	C 	0.68870 0.91490 0.24970 0.09800
C 	C 	0.70260 0.78300 0.28430 0.10600
C 	C 	0.71260 0.53400 0.30570 0.08800
H 	H 	0.72970 0.49380 0.32410 -0.03600
C 	C 	0.72030 0.62560 0.31100 -0.13600
H 	H 	0.74220 0.64620 0.33180 0.08400
C 	C 	0.69560 0.68550 0.28550 0.05900
C 	C 	0.66390 0.64720 0.25560 -0.12200
H 	H 	0.64560 0.68510 0.23730 0.07700
C 	C 	0.65910 0.55630 0.25260 0.06700
H 	H 	0.63760 0.53230 0.23220 -0.02700
C 	C 	0.64810 0.10010 0.17060 0.06600
H 	H 	0.65300 0.16170 0.16580 0.00900
C 	C 	0.67110 0.05590 0.20650 -0.11500
H 	H 	0.69050 0.08740 0.22680 0.09000
C 	C 	0.66530 0.96750 0.21180 0.05600
C 	C 	0.63710 0.92600 0.18310 -0.12100
H 	H 	0.63190 0.86410 0.18700 0.08700
C 	C 	0.61530 0.97350 0.14780 0.07000
H 	H 	0.59660 0.94260 0.12640 -0.00500
N 	N 	0.82740 0.03320 0.40080 -0.33400
N 	N 	0.71820 0.95590 0.27680 -0.14200
N 	N 	0.67930 0.82830 0.25220 -0.13700
N 	N 	0.73130 0.81720 0.31450 -0.13500
N 	N 	0.68420 0.50000 0.27790 -0.29300
N 	N 	0.61990 0.05960 0.14320 -0.26900
C 	C 	0.93030 0.96760 0.48940 0.07100
H 	H 	0.91940 0.97450 0.51640 -0.01700
C 	C 	0.96340 0.90970 0.48920 -0.13400
H 	H 	0.97450 0.87910 0.51610 0.07900
C 	C 	0.97800 0.89900 0.45260 0.07000
C 	C 	0.96070 0.94440 0.41510 -0.14700
H 	H 	0.97120 0.93840 0.38780 0.08000
C 	C 	0.92960 0.99670 0.41560 0.07400
H 	H 	0.91780 0.02400 0.38800 -0.05100
C 	C 	0.01210 0.84090 0.45150 0.07500
C 	C 	0.04540 0.71360 0.47220 0.08200
C 	C 	0.06380 0.80000 0.41780 0.11600
C 	C 	0.03280 0.52930 0.55330 0.08200
H 	H 	0.01500 0.51350 0.57320 -0.01400
C 	C 	0.02590 0.60620 0.52790 -0.14200
H 	H 	0.00360 0.64230 0.53020 0.07900
C 	C 	0.05080 0.62980 0.49970 0.08700
C 	C 	0.08230 0.57660 0.49820 -0.14300
H 	H 	0.10120 0.59230 0.47960 0.10200
C 	C 	0.08690 0.49870 0.52410 0.10600
H 	H 	0.10850 0.46070 0.52130 -0.02800
C 	C 	0.14380 0.77990 0.35030 0.07000
H 	H 	0.16570 0.74150 0.34910 -0.01600
C 	C 	0.12080 0.76240 0.38440 -0.11800
H 	H 	0.12770 0.71620 0.40620 0.10200
C 	C 	0.08860 0.81440 0.38490 0.07200
C 	C 	0.08570 0.88630 0.35220 -0.14800
H 	H 	0.06530 0.92880 0.35300 0.08100
C 	C 	0.10770 0.89850 0.32240 0.09600
H 	H 	0.10240 0.94700 0.30170 -0.04000
N 	N 	0.91470 0.01200 0.45220 -0.33400
N 	N 	0.01610 0.76860 0.47950 -0.14300
N 	N 	0.07070 0.72460 0.44140 -0.12000
N 	N 	0.03560 0.85700 0.42030 -0.13600
N 	N 	0.06390 0.47540 0.55120 -0.28400
N 	N 	0.13770 0.84490 0.31980 -0.29800
Zn	Zn	0.85855 0.08940 0.46370 1.08800
Zn	Zn	0.67160 0.36330 0.26830 0.68600
Zn	Zn	0.58051 0.12977 0.09563 1.16000
I 	I 	0.83247 0.05990 0.53530 1.05100
I 	I 	0.73406 0.26910 0.28890 -0.24300
I 	I 	0.62737 0.34909 0.19295 0.16500
I 	I 	0.61955 0.23890 0.05211 -0.42700
I 	I 	0.52285 0.16358 0.13581 -0.19200
I 	I 	0.87660 0.24220 0.42830 -0.29200
Zn	Zn	0.87422 0.10100 0.43833 0.93800
Zn	Zn	0.67810 0.36740 0.28050 0.59900
I 	I 	0.84841 0.10680 0.51220 -1.82400
I 	I 	0.86260 0.23750 0.45360 -0.14700
I 	I 	0.73350 0.28120 0.30740 -0.09000
I 	I 	0.75240 0.29330 0.33170 -0.00800
I 	I 	0.64470 0.33200 0.20400 -0.28300
I 	I 	0.66860 0.30600 0.21510 -0.42800
I 	I 	0.61060 0.24110 0.06520 0.03000
I 	I 	0.52590 0.16350 0.13690 -0.13900
I 	I 	0.89592 0.23756 0.39816 -0.11300
C 	C 	0.30690 0.42260 0.86480 0.06700
H 	H 	0.31280 0.36160 0.85970 -0.01200
C 	C 	0.27810 0.46420 0.83600 -0.13400
H 	H 	0.26400 0.43160 0.81130 0.09600
C 	C 	0.26900 0.55160 0.84170 0.06500
C 	C 	0.28980 0.59720 0.87800 -0.13000
H 	H 	0.28430 0.65820 0.88370 0.09000
C 	C 	0.31880 0.55110 0.90560 0.07900
H 	H 	0.33370 0.58290 0.93000 -0.03800
C 	C 	0.23790 0.59600 0.80980 0.09200
C 	C 	0.18870 0.58510 0.74970 0.09500
C 	C 	0.20260 0.71700 0.78430 0.10900
C 	C 	0.21260 0.96600 0.80570 0.06200
H 	H 	0.22970 0.00620 0.82410 -0.02300
C 	C 	0.22030 0.87440 0.81100 -0.12200
H 	H 	0.24220 0.85380 0.83180 0.07800
C 	C 	0.19560 0.81450 0.78550 0.05000
C 	C 	0.16390 0.85280 0.75560 -0.11300
H 	H 	0.14560 0.81490 0.73730 0.07400
C 	C 	0.15910 0.94370 0.75260 0.05500
H 	H 	0.13760 0.96770 0.73220 -0.02500
C 	C 	0.14810 0.39990 0.67060 0.07300
H 	H 	0.15300 0.33830 0.66580 0.00700
C 	C 	0.17110 0.44410 0.70650 -0.13300
H 	H 	0.19050 0.41260 0.72680 0.09400
C 	C 	0.16530 0.53250 0.71180 0.07300
C 	C 	0.13710 0.57400 0.68310 -0.13300
H 	H 	0.13190 0.63590 0.68700 0.09200
C 	C 	0.11530 0.52650 0.64780 0.08500
H 	H 	0.09660 0.55740 0.62640 -0.00800
N 	N 	0.32740 0.46680 0.90080 -0.34100
N 	N 	0.21820 0.54410 0.77680 -0.13800
N 	N 	0.17930 0.67170 0.75220 -0.13700
N 	N 	0.23130 0.68280 0.81450 -0.13400
N 	N 	0.18420 0.00000 0.77790 -0.28100
N 	N 	0.11990 0.44040 0.64320 -0.27600
C 	C 	0.43030 0.53240 0.98940 0.08500
H 	H 	0.41940 0.52550 0.01640 -0.01900
C 	C 	0.46340 0.59030 0.98920 -0.14600
H 	H 	0.47450 0.62090 0.01610 0.08400
C 	C 	0.47800 0.60100 0.95260 0.08400
C 	C 	0.46070 0.55560 0.91510 -0.16800
H 	H 	0.47120 0.56160 0.88780 0.08800
C 	C 	0.42960 0.50330 0.91560 0.10400
H 	H 	0.41780 0.47600 0.88800 -0.06500
C 	C 	0.51210 0.65910 0.95150 0.07200
C 	C 	0.54540 0.78640 0.97220 0.08000
C 	C 	0.56380 0.70000 0.91780 0.11700
C 	C 	0.53280 0.97070 0.05330 0.07700
H 	H 	0.51500 0.98650 0.07320 -0.01500
C 	C 	0.52590 0.89380 0.02790 -0.14300
H 	H 	0.50360 0.85770 0.03020 0.07900
C 	C 	0.55080 0.87020 0.99970 0.09000
C 	C 	0.58230 0.92340 0.99820 -0.15600
H 	H 	0.60120 0.90770 0.97960 0.10500
C 	C 	0.58690 0.00130 0.02410 0.11800
H 	H 	0.60850 0.03930 0.02130 -0.03100
C 	C 	0.64380 0.72010 0.85030 0.07000
H 	H 	0.66570 0.75850 0.84910 -0.01600
C 	C 	0.62080 0.73760 0.88440 -0.11900
H 	H 	0.62770 0.78380 0.90620 0.10100
C 	C 	0.58860 0.68560 0.88490 0.07200
C 	C 	0.58570 0.61370 0.85220 -0.14800
H 	H 	0.56530 0.57120 0.85300 0.08200
C 	C 	0.60770 0.60150 0.82240 0.09600
H 	H 	0.60240 0.55300 0.80170 -0.03800
N 	N 	0.41470 0.48800 0.95220 -0.34800
N 	N 	0.51610 0.73140 0.97950 -0.14200
N 	N 	0.57070 0.77540 0.94140 -0.12000
N 	N 	0.53560 0.64300 0.92030 -0.13500
N 	N 	0.56390 0.02460 0.05120 -0.28300
N 	N 	0.63770 0.65510 0.81980 -0.29800
Zn	Zn	0.35855 0.41060 0.96370 1.08700
Zn	Zn	0.17160 0.13670 0.76830 0.68600
Zn	Zn	0.08051 0.37023 0.59563 1.16000
I 	I 	0.33247 0.44010 0.03530 1.04300
I 	I 	0.23406 0.23090 0.78890 -0.24400
I 	I 	0.12737 0.15091 0.69295 0.16700
I 	I 	0.11955 0.26110 0.55211 -0.42700
I 	I 	0.02285 0.33642 0.63581 -0.19400
I 	I 	0.37660 0.25780 0.92830 -0.29300
Zn	Zn	0.37422 0.39900 0.93833 0.93700
Zn	Zn	0.17810 0.13260 0.78050 0.59900
I 	I 	0.34841 0.39320 0.01220 -1.82200
I 	I 	0.36260 0.26250 0.95360 -0.14600
I 	I 	0.23350 0.21880 0.80740 -0.09000
I 	I 	0.25240 0.20670 0.83170 -0.00800
I 	I 	0.14470 0.16800 0.70400 -0.28100
I 	I 	0.16860 0.19400 0.71510 -0.43000
I 	I 	0.11060 0.25890 0.56520 0.03000
I 	I 	0.02590 0.33650 0.63690 -0.14000
I 	I 	0.39592 0.26244 0.89816 -0.11300
C 	C 	0.80690 0.92260 0.86480 0.07500
H 	H 	0.81280 0.86160 0.85970 -0.01500
C 	C 	0.77810 0.96420 0.83600 -0.15300
H 	H 	0.76400 0.93160 0.81130 0.10000
C 	C 	0.76900 0.05160 0.84170 0.08200
C 	C 	0.78980 0.09720 0.87800 -0.14200
H 	H 	0.78430 0.15820 0.88370 0.09400
C 	C 	0.81880 0.05110 0.90560 0.09400
H 	H 	0.83370 0.08290 0.93000 -0.04100
C 	C 	0.73790 0.09600 0.80980 0.08900
C 	C 	0.68870 0.08510 0.74970 0.09100
C 	C 	0.70260 0.21700 0.78430 0.10700
C 	C 	0.71260 0.46600 0.80570 0.08900
H 	H 	0.72970 0.50620 0.82410 -0.03600
C 	C 	0.72030 0.37440 0.81100 -0.13600
H 	H 	0.74220 0.35380 0.83180 0.08400
C 	C 	0.69560 0.31450 0.78550 0.05900
C 	C 	0.66390 0.35280 0.75560 -0.12200
H 	H 	0.64560 0.31490 0.73730 0.07800
C 	C 	0.65910 0.44370 0.75260 0.06700
H 	H 	0.63760 0.46770 0.73220 -0.02600
C 	C 	0.64810 0.89990 0.67060 0.08000
H 	H 	0.65300 0.83830 0.66580 0.00400
C 	C 	0.67110 0.94410 0.70650 -0.15200
H 	H 	0.69050 0.91260 0.72680 0.09900
C 	C 	0.66530 0.03250 0.71180 0.09000
C 	C 	0.63710 0.07400 0.68310 -0.14600
H 	H 	0.63190 0.13590 0.68700 0.09600
C 	C 	0.61530 0.02650 0.64780 0.09900
H 	H 	0.59660 0.05740 0.62640 -0.01100
N 	N 	0.82740 0.96680 0.90080 -0.34900
N 	N 	0.71820 0.04410 0.77680 -0.13500
N 	N 	0.67930 0.17170 0.75220 -0.13500
N 	N 	0.73130 0.18280 0.81450 -0.13300
N 	N 	0.68420 0.50000 0.77790 -0.29300
N 	N 	0.61990 0.94040 0.64320 -0.28300
C 	C 	0.93030 0.03240 0.98940 0.09900
H 	H 	0.91940 0.02550 0.01640 -0.02100
C 	C 	0.96340 0.09030 0.98920 -0.15800
H 	H 	0.97450 0.12090 0.01610 0.08900
C 	C 	0.97800 0.10100 0.95260 0.09800
C 	C 	0.96070 0.05560 0.91510 -0.18900
H 	H 	0.97120 0.06160 0.88780 0.09700
C 	C 	0.92960 0.00330 0.91560 0.13600
H 	H 	0.91780 0.97600 0.88800 -0.08100
C 	C 	0.01210 0.15910 0.95150 0.06800
C 	C 	0.04540 0.28640 0.97220 0.08200
C 	C 	0.06380 0.20000 0.91780 0.11700
C 	C 	0.03280 0.47070 0.05330 0.08300
H 	H 	0.01500 0.48650 0.07320 -0.01400
C 	C 	0.02590 0.39380 0.02790 -0.14200
H 	H 	0.00360 0.35770 0.03020 0.07900
C 	C 	0.05080 0.37020 0.99970 0.08700
C 	C 	0.08230 0.42340 0.99820 -0.14300
H 	H 	0.10120 0.40770 0.97960 0.10200
C 	C 	0.08690 0.50130 0.02410 0.10500
H 	H 	0.10850 0.53930 0.02130 -0.02900
C 	C 	0.14380 0.22010 0.85030 0.07000
H 	H 	0.16570 0.25850 0.84910 -0.01600
C 	C 	0.12080 0.23760 0.88440 -0.11800
H 	H 	0.12770 0.28380 0.90620 0.10200
C 	C 	0.08860 0.18560 0.88490 0.07200
C 	C 	0.08570 0.11370 0.85220 -0.14800
H 	H 	0.06530 0.07120 0.85300 0.08300
C 	C 	0.10770 0.10150 0.82240 0.09700
H 	H 	0.10240 0.05300 0.80170 -0.03700
N 	N 	0.91470 0.98800 0.95220 -0.36100
N 	N 	0.01610 0.23140 0.97950 -0.14100
N 	N 	0.07070 0.27540 0.94140 -0.12000
N 	N 	0.03560 0.14300 0.92030 -0.13400
N 	N 	0.06390 0.52460 0.05120 -0.28400
N 	N 	0.13770 0.15510 0.81980 -0.29800
Zn	Zn	0.85855 0.91060 0.96370 1.08600
Zn	Zn	0.67160 0.63670 0.76830 0.68600
Zn	Zn	0.58051 0.87023 0.59563 1.15900
I 	I 	0.83247 0.94010 0.03530 1.03700
I 	I 	0.73406 0.73090 0.78890 -0.24500
I 	I 	0.62737 0.65091 0.69295 0.16600
I 	I 	0.61955 0.76110 0.55211 -0.42700
I 	I 	0.52285 0.83642 0.63581 -0.19500
I 	I 	0.87660 0.75780 0.92830 -0.29800
Zn	Zn	0.87422 0.89900 0.93833 0.93700
Zn	Zn	0.67810 0.63260 0.78050 0.59900
I 	I 	0.84841 0.89320 0.01220 -1.81900
I 	I 	0.86260 0.76250 0.95360 -0.14500
I 	I 	0.73350 0.71880 0.80740 -0.09200
I 	I 	0.75240 0.70670 0.83170 -0.00800
I 	I 	0.64470 0.66800 0.70400 -0.28300
I 	I 	0.66860 0.69400 0.71510 -0.42900
I 	I 	0.61060 0.75890 0.56520 0.02700
I 	I 	0.52590 0.83650 0.63690 -0.14100
I 	I 	0.89592 0.76244 0.89816 -0.11200
C 	C 	0.69310 0.57740 0.13520 0.06700
H 	H 	0.68720 0.63840 0.14030 -0.01200
C 	C 	0.72190 0.53580 0.16400 -0.13400
H 	H 	0.73600 0.56840 0.18870 0.09600
C 	C 	0.73100 0.44840 0.15830 0.06500
C 	C 	0.71020 0.40280 0.12200 -0.13100
H 	H 	0.71570 0.34180 0.11630 0.09000
C 	C 	0.68120 0.44890 0.09440 0.07900
H 	H 	0.66630 0.41710 0.07000 -0.03800
C 	C 	0.76210 0.40400 0.19020 0.09200
C 	C 	0.81130 0.41490 0.25030 0.09500
C 	C 	0.79740 0.28300 0.21570 0.10600
C 	C 	0.78740 0.03400 0.19430 0.10400
H 	H 	0.77030 0.99380 0.17590 -0.04500
C 	C 	0.77970 0.12560 0.18900 -0.14400
H 	H 	0.75780 0.14620 0.16820 0.08800
C 	C 	0.80440 0.18550 0.21450 0.06300
C 	C 	0.83610 0.14720 0.24440 -0.12400
H 	H 	0.85440 0.18510 0.26270 0.07900
C 	C 	0.84090 0.05630 0.24740 0.07000
H 	H 	0.86240 0.03230 0.26780 -0.02500
C 	C 	0.85190 0.60010 0.32940 0.07300
H 	H 	0.84700 0.66170 0.33420 0.00700
C 	C 	0.82890 0.55590 0.29350 -0.13300
H 	H 	0.80950 0.58740 0.27320 0.09400
C 	C 	0.83470 0.46750 0.28820 0.07300
C 	C 	0.86290 0.42600 0.31690 -0.13300
H 	H 	0.86810 0.36410 0.31300 0.09200
C 	C 	0.88470 0.47350 0.35220 0.08500
H 	H 	0.90340 0.44260 0.37360 -0.00800
N 	N 	0.67260 0.53320 0.09920 -0.34100
N 	N 	0.78180 0.45590 0.22320 -0.13800
N 	N 	0.82070 0.32830 0.24780 -0.13600
N 	N 	0.76870 0.31720 0.18550 -0.13400
N 	N 	0.81580 -0.00000 0.22210 -0.29400
N 	N 	0.88010 0.55960 0.35680 -0.27600
C 	C 	0.56970 0.46760 0.01060 0.08500
H 	H 	0.58060 0.47450 0.98360 -0.01900
C 	C 	0.53660 0.40970 0.01080 -0.14600
H 	H 	0.52550 0.37910 0.98390 0.08500
C 	C 	0.52200 0.39900 0.04740 0.08400
C 	C 	0.53930 0.44440 0.08490 -0.16800
H 	H 	0.52880 0.43840 0.11220 0.08800
C 	C 	0.57040 0.49670 0.08440 0.10400
H 	H 	0.58220 0.52400 0.11200 -0.06500
C 	C 	0.48790 0.34090 0.04850 0.07200
C 	C 	0.45460 0.21360 0.02780 0.08300
C 	C 	0.43620 0.30000 0.08220 0.11700
C 	C 	0.46720 0.02930 0.94670 0.08800
H 	H 	0.48500 0.01350 0.92680 -0.01400
C 	C 	0.47410 0.10620 0.97210 -0.14000
H 	H 	0.49640 0.14230 0.96980 0.07900
C 	C 	0.44920 0.12980 0.00030 0.08200
C 	C 	0.41770 0.07660 0.00180 -0.13100
H 	H 	0.39880 0.09230 0.02040 0.10000
C 	C 	0.41310 0.99870 0.97590 0.09300
H 	H 	0.39150 0.96070 0.97870 -0.02600
C 	C 	0.35620 0.27990 0.14970 0.07000
H 	H 	0.33430 0.24150 0.15090 -0.01500
C 	C 	0.37920 0.26240 0.11560 -0.11800
H 	H 	0.37230 0.21620 0.09380 0.10300
C 	C 	0.41140 0.31440 0.11510 0.07200
C 	C 	0.41430 0.38630 0.14780 -0.14800
H 	H 	0.43470 0.42880 0.14700 0.08200
C 	C 	0.39230 0.39850 0.17760 0.09700
H 	H 	0.39760 0.44700 0.19830 -0.03800
N 	N 	0.58530 0.51200 0.04780 -0.34800
N 	N 	0.48390 0.26860 0.02050 -0.14200
N 	N 	0.42930 0.22460 0.05860 -0.12000
N 	N 	0.46440 0.35700 0.07970 -0.13500
N 	N 	0.43610 0.97540 0.94880 -0.28600
N 	N 	0.36230 0.34490 0.18020 -0.29800
Zn	Zn	0.64145 0.58940 0.03630 1.08700
Zn	Zn	0.82840 0.86330 0.23170 0.68500
Zn	Zn	0.91949 0.62977 0.40437 1.16000
I 	I 	0.66753 0.55990 0.96470 1.04500
I 	I 	0.76594 0.76910 0.21110 -0.24400
I 	I 	0.87263 0.84909 0.30705 0.16400
I 	I 	0.88045 0.73890 0.44789 -0.42700
I 	I 	0.97715 0.66358 0.36419 -0.19400
I 	I 	0.62340 0.74220 0.07170 -0.29600
Zn	Zn	0.62578 0.60100 0.06167 0.93700
Zn	Zn	0.82190 0.86740 0.21950 0.59800
I 	I 	0.65159 0.60680 0.98780 -1.82300
I 	I 	0.63740 0.73750 0.04640 -0.14600
I 	I 	0.76650 0.78120 0.19260 -0.09100
I 	I 	0.74760 0.79330 0.16830 -0.00900
I 	I 	0.85530 0.83200 0.29600 -0.28500
I 	I 	0.83140 0.80600 0.28490 -0.42700
I 	I 	0.88940 0.74110 0.43480 0.02700
I 	I 	0.97410 0.66350 0.36310 -0.14000
I 	I 	0.60408 0.73756 0.10184 -0.11300
C 	C 	0.19310 0.07740 0.13520 0.05900
H 	H 	0.18720 0.13840 0.14030 -0.01000
C 	C 	0.22190 0.03580 0.16400 -0.11600
H 	H 	0.23600 0.06840 0.18870 0.09100
C 	C 	0.23100 0.94840 0.15830 0.04900
C 	C 	0.21020 0.90280 0.12200 -0.11900
H 	H 	0.21570 0.84180 0.11630 0.08600
C 	C 	0.18120 0.94890 0.09440 0.06500
H 	H 	0.16630 0.91710 0.07000 -0.03500
C 	C 	0.26210 0.90400 0.19020 0.09600
C 	C 	0.31130 0.91490 0.25030 0.09800
C 	C 	0.29740 0.78300 0.21570 0.10600
C 	C 	0.28740 0.53400 0.19430 0.08800
H 	H 	0.27030 0.49380 0.17590 -0.03600
C 	C 	0.27970 0.62560 0.18900 -0.13600
H 	H 	0.25780 0.64620 0.16820 0.08400
C 	C 	0.30440 0.68550 0.21450 0.05900
C 	C 	0.33610 0.64720 0.24440 -0.12200
H 	H 	0.35440 0.68510 0.26270 0.07700
C 	C 	0.34090 0.55630 0.24740 0.06700
H 	H 	0.36240 0.53230 0.26780 -0.02700
C 	C 	0.35190 0.10010 0.32940 0.06600
H 	H 	0.34700 0.16170 0.33420 0.00900
C 	C 	0.32890 0.05590 0.29350 -0.11500
H 	H 	0.30950 0.08740 0.27320 0.09000
C 	C 	0.33470 0.96750 0.28820 0.05600
C 	C 	0.36290 0.92600 0.31690 -0.12100
H 	H 	0.36810 0.86410 0.31300 0.08700
C 	C 	0.38470 0.97350 0.35220 0.07000
H 	H 	0.40340 0.94260 0.37360 -0.00500
N 	N 	0.17260 0.03320 0.09920 -0.33400
N 	N 	0.28180 0.95590 0.22320 -0.14200
N 	N 	0.32070 0.82830 0.24780 -0.13700
N 	N 	0.26870 0.81720 0.18550 -0.13500
N 	N 	0.31580 0.50000 0.22210 -0.29300
N 	N 	0.38010 0.05960 0.35680 -0.26900
C 	C 	0.06970 0.96760 0.01060 0.07200
H 	H 	0.08060 0.97450 0.98360 -0.01800
C 	C 	0.03660 0.90970 0.01080 -0.13400
H 	H 	0.02550 0.87910 0.98390 0.07900
C 	C 	0.02200 0.89900 0.04740 0.07000
C 	C 	0.03930 0.94440 0.08490 -0.14800
H 	H 	0.02880 0.93840 0.11220 0.08000
C 	C 	0.07040 0.99670 0.08440 0.07500
H 	H 	0.08220 0.02400 0.11200 -0.05100
C 	C 	0.98790 0.84090 0.04850 0.07600
C 	C 	0.95460 0.71360 0.02780 0.08200
C 	C 	0.93620 0.80000 0.08220 0.11600
C 	C 	0.96720 0.52930 0.94670 0.08200
H 	H 	0.98500 0.51350 0.92680 -0.01400
C 	C 	0.97410 0.60620 0.97210 -0.14200
H 	H 	0.99640 0.64230 0.96980 0.07900
C 	C 	0.94920 0.62980 0.00030 0.08700
C 	C 	0.91770 0.57660 0.00180 -0.14400
H 	H 	0.89880 0.59230 0.02040 0.10200
C 	C 	0.91310 0.49870 0.97590 0.10500
H 	H 	0.89150 0.46070 0.97870 -0.02800
C 	C 	0.85620 0.77990 0.14970 0.07000
H 	H 	0.83430 0.74150 0.15090 -0.01600
C 	C 	0.87920 0.76240 0.11560 -0.11800
H 	H 	0.87230 0.71620 0.09380 0.10200
C 	C 	0.91140 0.81440 0.11510 0.07200
C 	C 	0.91430 0.88630 0.14780 -0.14800
H 	H 	0.93470 0.92880 0.14700 0.08100
C 	C 	0.89230 0.89850 0.17760 0.09600
H 	H 	0.89760 0.94700 0.19830 -0.04000
N 	N 	0.08530 0.01200 0.04780 -0.33500
N 	N 	0.98390 0.76860 0.02050 -0.14300
N 	N 	0.92930 0.72460 0.05860 -0.12000
N 	N 	0.96440 0.85700 0.07970 -0.13600
N 	N 	0.93610 0.47540 0.94880 -0.28400
N 	N 	0.86230 0.84490 0.18020 -0.29800
Zn	Zn	0.14145 0.08940 0.03630 1.08800
Zn	Zn	0.32840 0.36330 0.23170 0.68600
Zn	Zn	0.41949 0.12977 0.40437 1.16000
I 	I 	0.16753 0.05990 0.96470 1.05000
I 	I 	0.26594 0.26910 0.21110 -0.24300
I 	I 	0.37263 0.34909 0.30705 0.16500
I 	I 	0.38045 0.23890 0.44789 -0.42700
I 	I 	0.47715 0.16358 0.36419 -0.19200
I 	I 	0.12340 0.24220 0.07170 -0.29300
Zn	Zn	0.12578 0.10100 0.06167 0.93800
Zn	Zn	0.32190 0.36740 0.21950 0.59900
I 	I 	0.15159 0.10680 0.98780 -1.82400
I 	I 	0.13740 0.23750 0.04640 -0.14700
I 	I 	0.26650 0.28120 0.19260 -0.09000
I 	I 	0.24760 0.29330 0.16830 -0.00900
I 	I 	0.35530 0.33200 0.29600 -0.28300
I 	I 	0.33140 0.30600 0.28490 -0.42800
I 	I 	0.38940 0.24110 0.43480 0.03000
I 	I 	0.47410 0.16350 0.36310 -0.13900
I 	I 	0.10408 0.23756 0.10184 -0.11300
C 	C 	0.69310 0.42260 0.63520 0.06700
H 	H 	0.68720 0.36160 0.64030 -0.01200
C 	C 	0.72190 0.46420 0.66400 -0.13400
H 	H 	0.73600 0.43160 0.68870 0.09600
C 	C 	0.73100 0.55160 0.65830 0.06500
C 	C 	0.71020 0.59720 0.62200 -0.13000
H 	H 	0.71570 0.65820 0.61630 0.09000
C 	C 	0.68120 0.55110 0.59440 0.07900
H 	H 	0.66630 0.58290 0.57000 -0.03800
C 	C 	0.76210 0.59600 0.69020 0.09200
C 	C 	0.81130 0.58510 0.75030 0.09500
C 	C 	0.79740 0.71700 0.71570 0.10900
C 	C 	0.78740 0.96600 0.69430 0.06200
H 	H 	0.77030 0.00620 0.67590 -0.02300
C 	C 	0.77970 0.87440 0.68900 -0.12200
H 	H 	0.75780 0.85380 0.66820 0.07800
C 	C 	0.80440 0.81450 0.71450 0.05000
C 	C 	0.83610 0.85280 0.74440 -0.11300
H 	H 	0.85440 0.81490 0.76270 0.07400
C 	C 	0.84090 0.94370 0.74740 0.05500
H 	H 	0.86240 0.96770 0.76780 -0.02500
C 	C 	0.85190 0.39990 0.82940 0.07300
H 	H 	0.84700 0.33830 0.83420 0.00700
C 	C 	0.82890 0.44410 0.79350 -0.13300
H 	H 	0.80950 0.41260 0.77320 0.09400
C 	C 	0.83470 0.53250 0.78820 0.07300
C 	C 	0.86290 0.57400 0.81690 -0.13300
H 	H 	0.86810 0.63590 0.81300 0.09200
C 	C 	0.88470 0.52650 0.85220 0.08500
H 	H 	0.90340 0.55740 0.87360 -0.00800
N 	N 	0.67260 0.46680 0.59920 -0.34100
N 	N 	0.78180 0.54410 0.72320 -0.13800
N 	N 	0.82070 0.67170 0.74780 -0.13700
N 	N 	0.76870 0.68280 0.68550 -0.13400
N 	N 	0.81580 -0.00000 0.72210 -0.28100
N 	N 	0.88010 0.44040 0.85680 -0.27600
C 	C 	0.56970 0.53240 0.51060 0.08500
H 	H 	0.58060 0.52550 0.48360 -0.01900
C 	C 	0.53660 0.59030 0.51080 -0.14600
H 	H 	0.52550 0.62090 0.48390 0.08400
C 	C 	0.52200 0.60100 0.54740 0.08400
C 	C 	0.53930 0.55560 0.58490 -0.16700
H 	H 	0.52880 0.56160 0.61220 0.08800
C 	C 	0.57040 0.50330 0.58440 0.10400
H 	H 	0.58220 0.47600 0.61200 -0.06500
C 	C 	0.48790 0.65910 0.54850 0.07200
C 	C 	0.45460 0.78640 0.52780 0.08000
C 	C 	0.43620 0.70000 0.58220 0.11700
C 	C 	0.46720 0.97070 0.44670 0.07700
H 	H 	0.48500 0.98650 0.42680 -0.01500
C 	C 	0.47410 0.89380 0.47210 -0.14300
H 	H 	0.49640 0.85770 0.46980 0.07900
C 	C 	0.44920 0.87020 0.50030 0.09000
C 	C 	0.41770 0.92340 0.50180 -0.15600
H 	H 	0.39880 0.90770 0.52040 0.10500
C 	C 	0.41310 0.00130 0.47590 0.11800
H 	H 	0.39150 0.03930 0.47870 -0.03100
C 	C 	0.35620 0.72010 0.64970 0.07000
H 	H 	0.33430 0.75850 0.65090 -0.01600
C 	C 	0.37920 0.73760 0.61560 -0.11900
H 	H 	0.37230 0.78380 0.59380 0.10100
C 	C 	0.41140 0.68560 0.61510 0.07200
C 	C 	0.41430 0.61370 0.64780 -0.14800
H 	H 	0.43470 0.57120 0.64700 0.08200
C 	C 	0.39230 0.60150 0.67760 0.09600
H 	H 	0.39760 0.55300 0.69830 -0.03800
N 	N 	0.58530 0.48800 0.54780 -0.34800
N 	N 	0.48390 0.73140 0.52050 -0.14200
N 	N 	0.42930 0.77540 0.55860 -0.12000
N 	N 	0.46440 0.64300 0.57970 -0.13500
N 	N 	0.43610 0.02460 0.44880 -0.28300
N 	N 	0.36230 0.65510 0.68020 -0.29800
Zn	Zn	0.64145 0.41060 0.53630 1.08700
Zn	Zn	0.82840 0.13670 0.73170 0.68600
Zn	Zn	0.91949 0.37023 0.90437 1.15900
I 	I 	0.66753 0.44010 0.46470 1.04300
I 	I 	0.76594 0.23090 0.71110 -0.24400
I 	I 	0.87263 0.15091 0.80705 0.16700
I 	I 	0.88045 0.26110 0.94789 -0.42700
I 	I 	0.97715 0.33642 0.86419 -0.19400
I 	I 	0.62340 0.25780 0.57170 -0.29300
Zn	Zn	0.62578 0.39900 0.56167 0.93700
Zn	Zn	0.82190 0.13260 0.71950 0.59900
I 	I 	0.65159 0.39320 0.48780 -1.82100
I 	I 	0.63740 0.26250 0.54640 -0.14600
I 	I 	0.76650 0.21880 0.69260 -0.09000
I 	I 	0.74760 0.20670 0.66830 -0.00800
I 	I 	0.85530 0.16800 0.79600 -0.28100
I 	I 	0.83140 0.19400 0.78490 -0.43000
I 	I 	0.88940 0.25890 0.93480 0.03000
I 	I 	0.97410 0.33650 0.86310 -0.14000
I 	I 	0.60408 0.26244 0.60184 -0.11300
C 	C 	0.19310 0.92260 0.63520 0.07500
H 	H 	0.18720 0.86160 0.64030 -0.01500
C 	C 	0.22190 0.96420 0.66400 -0.15300
H 	H 	0.23600 0.93160 0.68870 0.10000
C 	C 	0.23100 0.05160 0.65830 0.08200
C 	C 	0.21020 0.09720 0.62200 -0.14200
H 	H 	0.21570 0.15820 0.61630 0.09400
C 	C 	0.18120 0.05110 0.59440 0.09300
H 	H 	0.16630 0.08290 0.57000 -0.04100
C 	C 	0.26210 0.09600 0.69020 0.08900
C 	C 	0.31130 0.08510 0.75030 0.09100
C 	C 	0.29740 0.21700 0.71570 0.10700
C 	C 	0.28740 0.46600 0.69430 0.08900
H 	H 	0.27030 0.50620 0.67590 -0.03600
C 	C 	0.27970 0.37440 0.68900 -0.13600
H 	H 	0.25780 0.35380 0.66820 0.08400
C 	C 	0.30440 0.31450 0.71450 0.05900
C 	C 	0.33610 0.35280 0.74440 -0.12200
H 	H 	0.35440 0.31490 0.76270 0.07800
C 	C 	0.34090 0.44370 0.74740 0.06700
H 	H 	0.36240 0.46770 0.76780 -0.02600
C 	C 	0.35190 0.89990 0.82940 0.08000
H 	H 	0.34700 0.83830 0.83420 0.00400
C 	C 	0.32890 0.94410 0.79350 -0.15200
H 	H 	0.30950 0.91260 0.77320 0.09900
C 	C 	0.33470 0.03250 0.78820 0.09000
C 	C 	0.36290 0.07400 0.81690 -0.14600
H 	H 	0.36810 0.13590 0.81300 0.09600
C 	C 	0.38470 0.02650 0.85220 0.10000
H 	H 	0.40340 0.05740 0.87360 -0.01100
N 	N 	0.17260 0.96680 0.59920 -0.34800
N 	N 	0.28180 0.04410 0.72320 -0.13500
N 	N 	0.32070 0.17170 0.74780 -0.13500
N 	N 	0.26870 0.18280 0.68550 -0.13300
N 	N 	0.31580 0.50000 0.72210 -0.29300
N 	N 	0.38010 0.94040 0.85680 -0.28300
C 	C 	0.06970 0.03240 0.51060 0.09900
H 	H 	0.08060 0.02550 0.48360 -0.02100
C 	C 	0.03660 0.09030 0.51080 -0.15800
H 	H 	0.02550 0.12090 0.48390 0.08900
C 	C 	0.02200 0.10100 0.54740 0.09800
C 	C 	0.03930 0.05560 0.58490 -0.18800
H 	H 	0.02880 0.06160 0.61220 0.09700
C 	C 	0.07040 0.00330 0.58440 0.13500
H 	H 	0.08220 0.97600 0.61200 -0.08000
C 	C 	0.98790 0.15910 0.54850 0.06800
C 	C 	0.95460 0.28640 0.52780 0.08200
C 	C 	0.93620 0.20000 0.58220 0.11700
C 	C 	0.96720 0.47070 0.44670 0.08200
H 	H 	0.98500 0.48650 0.42680 -0.01400
C 	C 	0.97410 0.39380 0.47210 -0.14200
H 	H 	0.99640 0.35770 0.46980 0.07900
C 	C 	0.94920 0.37020 0.50030 0.08700
C 	C 	0.91770 0.42340 0.50180 -0.14300
H 	H 	0.89880 0.40770 0.52040 0.10200
C 	C 	0.91310 0.50130 0.47590 0.10600
H 	H 	0.89150 0.53930 0.47870 -0.02900
C 	C 	0.85620 0.22010 0.64970 0.07000
H 	H 	0.83430 0.25850 0.65090 -0.01600
C 	C 	0.87920 0.23760 0.61560 -0.11800
H 	H 	0.87230 0.28380 0.59380 0.10200
C 	C 	0.91140 0.18560 0.61510 0.07200
C 	C 	0.91430 0.11370 0.64780 -0.14800
H 	H 	0.93470 0.07120 0.64700 0.08300
C 	C 	0.89230 0.10150 0.67760 0.09700
H 	H 	0.89760 0.05300 0.69830 -0.03700
N 	N 	0.08530 0.98800 0.54780 -0.36100
N 	N 	0.98390 0.23140 0.52050 -0.14100
N 	N 	0.92930 0.27540 0.55860 -0.12000
N 	N 	0.96440 0.14300 0.57970 -0.13400
N 	N 	0.93610 0.52460 0.44880 -0.28400
N 	N 	0.86230 0.15510 0.68020 -0.29800
Zn	Zn	0.14145 0.91060 0.53630 1.08600
Zn	Zn	0.32840 0.63670 0.73170 0.68600
Zn	Zn	0.41949 0.87023 0.90437 1.15900
I 	I 	0.16753 0.94010 0.46470 1.03700
I 	I 	0.26594 0.73090 0.71110 -0.24500
I 	I 	0.37263 0.65091 0.80705 0.16600
I 	I 	0.38045 0.76110 0.94789 -0.42700
I 	I 	0.47715 0.83642 0.86419 -0.19500
I 	I 	0.12340 0.75780 0.57170 -0.29700
Zn	Zn	0.12578 0.89900 0.56167 0.93700
Zn	Zn	0.32190 0.63260 0.71950 0.59900
I 	I 	0.15159 0.89320 0.48780 -1.81900
I 	I 	0.13740 0.76250 0.54640 -0.14500
I 	I 	0.26650 0.71880 0.69260 -0.09200
I 	I 	0.24760 0.70670 0.66830 -0.00800
I 	I 	0.35530 0.66800 0.79600 -0.28300
I 	I 	0.33140 0.69400 0.78490 -0.42900
I 	I 	0.38940 0.75890 0.93480 0.02700
I 	I 	0.47410 0.83650 0.86310 -0.14200
I 	I 	0.10408 0.76244 0.60184 -0.11300
