data_crystal

_cell_length_a 35.06150
_cell_length_b 14.96650
_cell_length_c 30.30990
_cell_angle_alpha 90.00000
_cell_angle_beta  101.48700
_cell_angle_gamma 90.00000

_symmetry_space_group_name_	'P 1'
_symmetry_space_group_name_H-M	'P 1'

loop_
_symmetry_equiv_pos_as_xyz
  x,y,z

loop_
_atom_site_label
_atom_site_type_symbol
_atom_site_fract_x
_atom_site_fract_y
_atom_site_fract_z
_atom_site_charge
I 	I 	0.35278 0.58690 0.51617 0.45200
Zn	Zn	0.37213 0.59356 0.44379 0.79700
N 	N 	0.32990 0.53130 0.39690 -0.32400
N 	N 	0.41880 0.51040 0.44640 -0.30200
I 	I 	0.38626 0.73630 0.41507 0.00900
C 	C 	0.30590 0.57620 0.36500 0.06700
C 	C 	0.32340 0.44490 0.40070 0.06600
H 	H 	0.30920 0.63900 0.36310 -0.01400
C 	C 	0.27700 0.53640 0.33500 -0.11800
C 	C 	0.29500 0.39890 0.37130 -0.11700
H 	H 	0.33900 0.41290 0.42480 -0.01700
H 	H 	0.26120 0.57090 0.31200 0.08000
C 	C 	0.27060 0.44460 0.33780 0.04200
H 	H 	0.29240 0.33610 0.37420 0.08300
C 	C 	0.23950 0.40080 0.30590 0.08200
N 	N 	0.21953 0.45130 0.27280 -0.14300
N 	N 	0.23333 0.31260 0.31150 -0.14200
C 	C 	0.19020 0.40970 0.24580 0.09800
C 	C 	0.20440 0.27820 0.28120 0.09400
C 	C 	0.16660 0.46030 0.20820 0.06600
N 	N 	0.18103 0.32340 0.24900 -0.13300
C 	C 	0.19740 0.17960 0.28160 0.06800
C 	C 	0.17470 0.54910 0.20000 -0.12900
C 	C 	0.13620 0.42070 0.17980 -0.13000
C 	C 	0.16880 0.14260 0.24970 -0.13800
C 	C 	0.22040 0.12320 0.31100 -0.13500
C 	C 	0.15120 0.59210 0.16390 0.07900
H 	H 	0.19580 0.57950 0.21860 0.06800
H 	H 	0.13070 0.35920 0.18310 0.09900
C 	C 	0.11400 0.46950 0.14690 0.08300
C 	C 	0.16350 0.05170 0.24930 0.08500
H 	H 	0.15280 0.17920 0.22800 0.09000
H 	H 	0.24070 0.14590 0.33380 0.08400
C 	C 	0.21350 0.03300 0.30700 0.08300
H 	H 	0.15750 0.65180 0.15740 -0.02100
N 	N 	0.12111 0.55480 0.13861 -0.27600
H 	H 	0.09210 0.44150 0.12860 -0.00700
H 	H 	0.14270 0.02730 0.22770 -0.02100
N 	N 	0.18540 0.99670 0.27700 -0.28200
H 	H 	0.23000 0.99430 0.32710 -0.00400
Zn	Zn	0.08049 0.62609 0.09246 1.16000
Zn	Zn	0.17140 0.86060 0.26990 0.54200
I 	I 	0.02507 0.65405 0.13411 -0.29300
I 	I 	0.11341 0.74100 0.05450 -0.11500
N 	N 	0.06331 0.52370 0.04638 -0.27500
N 	N 	0.13940 0.84400 0.32030 -0.28000
I 	I 	0.23860 0.77460 0.30360 -0.13900
I 	I 	0.12664 0.83840 0.19357 -0.32300
C 	C 	0.10540 0.88310 0.31490 0.08500
C 	C 	0.14990 0.78900 0.35550 0.06700
C 	C 	0.08020 0.87060 0.34450 -0.11500
H 	H 	0.09760 0.92150 0.28980 -0.02100
C 	C 	0.12590 0.77120 0.38560 -0.10800
H 	H 	0.17470 0.76120 0.35990 -0.00300
C 	C 	0.09040 0.81160 0.38040 0.06000
H 	H 	0.05620 0.90220 0.34030 0.08300
H 	H 	0.13410 0.73090 0.40990 0.07200
C 	C 	0.06490 0.79660 0.41210 0.08500
N 	N 	0.07140 0.72290 0.43770 -0.14300
N 	N 	0.03620 0.85600 0.41390 -0.13600
C 	C 	0.04740 0.71320 0.46660 0.07700
C 	C 	0.01510 0.83850 0.44470 0.08300
N 	N 	0.01999 0.77020 0.47283 -0.15200
C 	C 	0.05260 0.62920 0.49450 0.05600
C 	C 	0.98250 0.89980 0.44580 0.05200
C 	C 	0.08030 0.56830 0.48910 -0.12700
C 	C 	0.02890 0.61090 0.52400 -0.12800
C 	C 	0.96490 0.94660 0.40900 -0.13400
C 	C 	0.96600 0.90800 0.48410 -0.12200
C 	C 	0.08500 0.49310 0.51620 0.07000
H 	H 	0.09600 0.57730 0.46720 0.07900
H 	H 	0.00840 0.65050 0.52710 0.07500
C 	C 	0.03520 0.53370 0.54940 0.07900
C 	C 	0.93380 0.99950 0.40960 0.08500
H 	H 	0.97470 0.94200 0.38210 0.08800
C 	C 	0.93500 0.96360 0.48300 0.06600
H 	H 	0.97640 0.87520 0.51060 0.07700
H 	H 	0.10470 0.45150 0.51310 -0.01600
H 	H 	0.01870 0.52120 0.57000 -0.01100
H 	H 	0.92220 0.03010 0.38280 -0.02000
H 	H 	0.92440 0.96930 0.50930 -0.02300
Zn	Zn	0.35920 0.58860 0.46090 0.78200
Zn	Zn	0.67760 0.36080 0.27940 0.62900
I 	I 	0.34260 0.55920 0.52460 -1.01900
I 	I 	0.39200 0.74000 0.40180 -0.40400
I 	I 	0.03040 0.65660 0.12820 -0.04800
I 	I 	0.12130 0.73510 0.05350 -0.21900
I 	I 	0.73200 0.26700 0.29378 0.37800
I 	I 	0.73900 0.29120 0.31900 -0.60400
I 	I 	0.63580 0.32870 0.20130 -0.05600
I 	I 	0.85278 0.08690 0.51617 0.45100
Zn	Zn	0.87213 0.09356 0.44379 0.79600
N 	N 	0.82990 0.03130 0.39690 -0.32500
N 	N 	0.91880 0.01040 0.44640 -0.30300
I 	I 	0.88626 0.23630 0.41507 0.00700
C 	C 	0.80590 0.07620 0.36500 0.06600
C 	C 	0.82340 0.94490 0.40070 0.06600
H 	H 	0.80920 0.13900 0.36310 -0.01500
C 	C 	0.77700 0.03640 0.33500 -0.12000
C 	C 	0.79500 0.89890 0.37130 -0.11800
H 	H 	0.83900 0.91290 0.42480 -0.01800
H 	H 	0.76120 0.07090 0.31200 0.07900
C 	C 	0.77060 0.94460 0.33780 0.04200
H 	H 	0.79240 0.83610 0.37420 0.08200
C 	C 	0.73950 0.90080 0.30590 0.08100
N 	N 	0.71953 0.95130 0.27280 -0.14400
N 	N 	0.73333 0.81260 0.31150 -0.14300
C 	C 	0.69020 0.90970 0.24580 0.09700
C 	C 	0.70440 0.77820 0.28120 0.09300
C 	C 	0.66660 0.96030 0.20820 0.06600
N 	N 	0.68103 0.82340 0.24900 -0.13400
C 	C 	0.69740 0.67960 0.28160 0.06800
C 	C 	0.67470 0.04910 0.20000 -0.13000
C 	C 	0.63620 0.92070 0.17980 -0.13000
C 	C 	0.66880 0.64260 0.24970 -0.13800
C 	C 	0.72040 0.62320 0.31100 -0.13500
C 	C 	0.65120 0.09210 0.16390 0.07900
H 	H 	0.69580 0.07950 0.21860 0.06800
H 	H 	0.63070 0.85920 0.18310 0.09900
C 	C 	0.61400 0.96950 0.14690 0.08300
C 	C 	0.66350 0.55170 0.24930 0.08600
H 	H 	0.65280 0.67920 0.22800 0.09000
H 	H 	0.74070 0.64590 0.33380 0.08400
C 	C 	0.71350 0.53300 0.30700 0.08300
H 	H 	0.65750 0.15180 0.15740 -0.02200
N 	N 	0.62111 0.05480 0.13861 -0.27600
H 	H 	0.59210 0.94150 0.12860 -0.00800
H 	H 	0.64270 0.52730 0.22770 -0.02100
N 	N 	0.68540 0.49670 0.27700 -0.28200
H 	H 	0.73000 0.49430 0.32710 -0.00500
Zn	Zn	0.58049 0.12609 0.09246 1.16000
Zn	Zn	0.67140 0.36060 0.26990 0.54200
I 	I 	0.52507 0.15405 0.13411 -0.29300
I 	I 	0.61341 0.24100 0.05450 -0.11500
N 	N 	0.56331 0.02370 0.04638 -0.27500
N 	N 	0.63940 0.34400 0.32030 -0.28000
I 	I 	0.73860 0.27460 0.30360 -0.13900
I 	I 	0.62664 0.33840 0.19357 -0.32300
C 	C 	0.60540 0.38310 0.31490 0.08500
C 	C 	0.64990 0.28900 0.35550 0.06700
C 	C 	0.58020 0.37060 0.34450 -0.11500
H 	H 	0.59760 0.42150 0.28980 -0.02100
C 	C 	0.62590 0.27120 0.38560 -0.10800
H 	H 	0.67470 0.26120 0.35990 -0.00300
C 	C 	0.59040 0.31160 0.38040 0.06000
H 	H 	0.55620 0.40220 0.34030 0.08300
H 	H 	0.63410 0.23090 0.40990 0.07200
C 	C 	0.56490 0.29660 0.41210 0.08500
N 	N 	0.57140 0.22290 0.43770 -0.14300
N 	N 	0.53620 0.35600 0.41390 -0.13600
C 	C 	0.54740 0.21320 0.46660 0.07700
C 	C 	0.51510 0.33850 0.44470 0.08300
N 	N 	0.51999 0.27020 0.47283 -0.15200
C 	C 	0.55260 0.12920 0.49450 0.05600
C 	C 	0.48250 0.39980 0.44580 0.05200
C 	C 	0.58030 0.06830 0.48910 -0.12600
C 	C 	0.52890 0.11090 0.52400 -0.12800
C 	C 	0.46490 0.44660 0.40900 -0.13300
C 	C 	0.46600 0.40800 0.48410 -0.12200
C 	C 	0.58500 0.99310 0.51620 0.07000
H 	H 	0.59600 0.07730 0.46720 0.07900
H 	H 	0.50840 0.15050 0.52710 0.07500
C 	C 	0.53520 0.03370 0.54940 0.07900
C 	C 	0.43380 0.49950 0.40960 0.08500
H 	H 	0.47470 0.44200 0.38210 0.08800
C 	C 	0.43500 0.46360 0.48300 0.06600
H 	H 	0.47640 0.37520 0.51060 0.07700
H 	H 	0.60470 0.95150 0.51310 -0.01600
H 	H 	0.51870 0.02120 0.57000 -0.01100
H 	H 	0.42220 0.53010 0.38280 -0.02000
H 	H 	0.42440 0.46930 0.50930 -0.02300
Zn	Zn	0.85920 0.08860 0.46090 0.78200
Zn	Zn	0.17760 0.86080 0.27940 0.62900
I 	I 	0.84260 0.05920 0.52460 -1.01900
I 	I 	0.89200 0.24000 0.40180 -0.40400
I 	I 	0.53040 0.15660 0.12820 -0.04900
I 	I 	0.62130 0.23510 0.05350 -0.22000
I 	I 	0.23200 0.76700 0.29378 0.37800
I 	I 	0.23900 0.79120 0.31900 -0.60400
I 	I 	0.13580 0.82870 0.20130 -0.05600
I 	I 	0.35278 0.41310 0.01617 0.45100
Zn	Zn	0.37213 0.40644 0.94379 0.79600
N 	N 	0.32990 0.46870 0.89690 -0.32500
N 	N 	0.41880 0.48960 0.94640 -0.30300
I 	I 	0.38626 0.26370 0.91507 0.00800
C 	C 	0.30590 0.42380 0.86500 0.06600
C 	C 	0.32340 0.55510 0.90070 0.06500
H 	H 	0.30920 0.36100 0.86310 -0.01500
C 	C 	0.27700 0.46360 0.83500 -0.11900
C 	C 	0.29500 0.60110 0.87130 -0.11800
H 	H 	0.33900 0.58710 0.92480 -0.01800
H 	H 	0.26120 0.42910 0.81200 0.07900
C 	C 	0.27060 0.55540 0.83780 0.04100
H 	H 	0.29240 0.66390 0.87420 0.08200
C 	C 	0.23950 0.59920 0.80590 0.08100
N 	N 	0.21953 0.54870 0.77280 -0.14400
N 	N 	0.23333 0.68740 0.81150 -0.14300
C 	C 	0.19020 0.59030 0.74580 0.09700
C 	C 	0.20440 0.72180 0.78120 0.09300
C 	C 	0.16660 0.53970 0.70820 0.06500
N 	N 	0.18103 0.67660 0.74900 -0.13400
C 	C 	0.19740 0.82040 0.78160 0.06700
C 	C 	0.17470 0.45090 0.70000 -0.12900
C 	C 	0.13620 0.57930 0.67980 -0.13000
C 	C 	0.16880 0.85740 0.74970 -0.13800
C 	C 	0.22040 0.87680 0.81100 -0.13400
C 	C 	0.15120 0.40790 0.66390 0.07900
H 	H 	0.19580 0.42050 0.71860 0.06800
H 	H 	0.13070 0.64080 0.68310 0.09900
C 	C 	0.11400 0.53050 0.64690 0.08300
C 	C 	0.16350 0.94830 0.74930 0.08500
H 	H 	0.15280 0.82080 0.72800 0.09000
H 	H 	0.24070 0.85410 0.83380 0.08400
C 	C 	0.21350 0.96700 0.80700 0.08200
H 	H 	0.15750 0.34820 0.65740 -0.02100
N 	N 	0.12111 0.44520 0.63861 -0.27600
H 	H 	0.09210 0.55850 0.62860 -0.00700
H 	H 	0.14270 0.97270 0.72770 -0.02100
N 	N 	0.18540 0.00330 0.77700 -0.28100
H 	H 	0.23000 0.00570 0.82710 -0.00400
Zn	Zn	0.08049 0.37391 0.59246 1.16000
Zn	Zn	0.17140 0.13940 0.76990 0.54200
I 	I 	0.02507 0.34595 0.63411 -0.29300
I 	I 	0.11341 0.25900 0.55450 -0.11500
N 	N 	0.06331 0.47630 0.54638 -0.27500
N 	N 	0.13940 0.15600 0.82030 -0.28000
I 	I 	0.23860 0.22540 0.80360 -0.13900
I 	I 	0.12664 0.16160 0.69357 -0.32300
C 	C 	0.10540 0.11690 0.81490 0.08500
C 	C 	0.14990 0.21100 0.85550 0.06700
C 	C 	0.08020 0.12940 0.84450 -0.11500
H 	H 	0.09760 0.07850 0.78980 -0.02100
C 	C 	0.12590 0.22880 0.88560 -0.10800
H 	H 	0.17470 0.23880 0.85990 -0.00300
C 	C 	0.09040 0.18840 0.88040 0.06000
H 	H 	0.05620 0.09780 0.84030 0.08300
H 	H 	0.13410 0.26910 0.90990 0.07200
C 	C 	0.06490 0.20340 0.91210 0.08500
N 	N 	0.07140 0.27710 0.93770 -0.14300
N 	N 	0.03620 0.14400 0.91390 -0.13600
C 	C 	0.04740 0.28680 0.96660 0.07700
C 	C 	0.01510 0.16150 0.94470 0.08300
N 	N 	0.01999 0.22980 0.97283 -0.15200
C 	C 	0.05260 0.37080 0.99450 0.05600
C 	C 	0.98250 0.10020 0.94580 0.05300
C 	C 	0.08030 0.43170 0.98910 -0.12600
C 	C 	0.02890 0.38910 0.02400 -0.12800
C 	C 	0.96490 0.05340 0.90900 -0.13400
C 	C 	0.96600 0.09200 0.98410 -0.12200
C 	C 	0.08500 0.50690 0.01620 0.07000
H 	H 	0.09600 0.42270 0.96720 0.07900
H 	H 	0.00840 0.34950 0.02710 0.07600
C 	C 	0.03520 0.46630 0.04940 0.07900
C 	C 	0.93380 0.00050 0.90960 0.08600
H 	H 	0.97470 0.05800 0.88210 0.08800
C 	C 	0.93500 0.03640 0.98300 0.06700
H 	H 	0.97640 0.12480 0.01060 0.07700
H 	H 	0.10470 0.54850 0.01310 -0.01600
H 	H 	0.01870 0.47880 0.07000 -0.01100
H 	H 	0.92220 0.96990 0.88280 -0.02100
H 	H 	0.92440 0.03070 0.00930 -0.02400
Zn	Zn	0.35920 0.41140 0.96090 0.78200
Zn	Zn	0.67760 0.63920 0.77940 0.62900
I 	I 	0.34260 0.44080 0.02460 -1.01900
I 	I 	0.39200 0.26000 0.90180 -0.40300
I 	I 	0.03040 0.34340 0.62820 -0.04800
I 	I 	0.12130 0.26490 0.55350 -0.21900
I 	I 	0.73200 0.73300 0.79378 0.37800
I 	I 	0.73900 0.70880 0.81900 -0.60400
I 	I 	0.63580 0.67130 0.70130 -0.05600
I 	I 	0.85278 0.91310 0.01617 0.45100
Zn	Zn	0.87213 0.90644 0.94379 0.79600
N 	N 	0.82990 0.96870 0.89690 -0.32500
N 	N 	0.91880 0.98960 0.94640 -0.30400
I 	I 	0.88626 0.76370 0.91507 0.00700
C 	C 	0.80590 0.92380 0.86500 0.06600
C 	C 	0.82340 0.05510 0.90070 0.06600
H 	H 	0.80920 0.86100 0.86310 -0.01500
C 	C 	0.77700 0.96360 0.83500 -0.12000
C 	C 	0.79500 0.10110 0.87130 -0.11800
H 	H 	0.83900 0.08710 0.92480 -0.01900
H 	H 	0.76120 0.92910 0.81200 0.07900
C 	C 	0.77060 0.05540 0.83780 0.04200
H 	H 	0.79240 0.16390 0.87420 0.08200
C 	C 	0.73950 0.09920 0.80590 0.08100
N 	N 	0.71953 0.04870 0.77280 -0.14400
N 	N 	0.73333 0.18740 0.81150 -0.14300
C 	C 	0.69020 0.09030 0.74580 0.09700
C 	C 	0.70440 0.22180 0.78120 0.09300
C 	C 	0.66660 0.03970 0.70820 0.06500
N 	N 	0.68103 0.17660 0.74900 -0.13400
C 	C 	0.69740 0.32040 0.78160 0.06800
C 	C 	0.67470 0.95090 0.70000 -0.13000
C 	C 	0.63620 0.07930 0.67980 -0.13000
C 	C 	0.66880 0.35740 0.74970 -0.13800
C 	C 	0.72040 0.37680 0.81100 -0.13500
C 	C 	0.65120 0.90790 0.66390 0.07900
H 	H 	0.69580 0.92050 0.71860 0.06800
H 	H 	0.63070 0.14080 0.68310 0.09900
C 	C 	0.61400 0.03050 0.64690 0.08300
C 	C 	0.66350 0.44830 0.74930 0.08600
H 	H 	0.65280 0.32080 0.72800 0.09000
H 	H 	0.74070 0.35410 0.83380 0.08400
C 	C 	0.71350 0.46700 0.80700 0.08300
H 	H 	0.65750 0.84820 0.65740 -0.02100
N 	N 	0.62111 0.94520 0.63861 -0.27600
H 	H 	0.59210 0.05850 0.62860 -0.00700
H 	H 	0.64270 0.47270 0.72770 -0.02100
N 	N 	0.68540 0.50330 0.77700 -0.28200
H 	H 	0.73000 0.50570 0.82710 -0.00500
Zn	Zn	0.58049 0.87391 0.59246 1.16000
Zn	Zn	0.67140 0.63940 0.76990 0.54200
I 	I 	0.52507 0.84595 0.63411 -0.29300
I 	I 	0.61341 0.75900 0.55450 -0.11500
N 	N 	0.56331 0.97630 0.54638 -0.27500
N 	N 	0.63940 0.65600 0.82030 -0.28000
I 	I 	0.73860 0.72540 0.80360 -0.13900
I 	I 	0.62664 0.66160 0.69357 -0.32300
C 	C 	0.60540 0.61690 0.81490 0.08500
C 	C 	0.64990 0.71100 0.85550 0.06700
C 	C 	0.58020 0.62940 0.84450 -0.11500
H 	H 	0.59760 0.57850 0.78980 -0.02100
C 	C 	0.62590 0.72880 0.88560 -0.10800
H 	H 	0.67470 0.73880 0.85990 -0.00300
C 	C 	0.59040 0.68840 0.88040 0.06000
H 	H 	0.55620 0.59780 0.84030 0.08300
H 	H 	0.63410 0.76910 0.90990 0.07200
C 	C 	0.56490 0.70340 0.91210 0.08500
N 	N 	0.57140 0.77710 0.93770 -0.14300
N 	N 	0.53620 0.64400 0.91390 -0.13600
C 	C 	0.54740 0.78680 0.96660 0.07700
C 	C 	0.51510 0.66150 0.94470 0.08300
N 	N 	0.51999 0.72980 0.97283 -0.15200
C 	C 	0.55260 0.87080 0.99450 0.05500
C 	C 	0.48250 0.60020 0.94580 0.05200
C 	C 	0.58030 0.93170 0.98910 -0.12600
C 	C 	0.52890 0.88910 0.02400 -0.12700
C 	C 	0.46490 0.55340 0.90900 -0.13300
C 	C 	0.46600 0.59200 0.98410 -0.12200
C 	C 	0.58500 0.00690 0.01620 0.07000
H 	H 	0.59600 0.92270 0.96720 0.07900
H 	H 	0.50840 0.84950 0.02710 0.07500
C 	C 	0.53520 0.96630 0.04940 0.07900
C 	C 	0.43380 0.50050 0.90960 0.08500
H 	H 	0.47470 0.55800 0.88210 0.08800
C 	C 	0.43500 0.53640 0.98300 0.06600
H 	H 	0.47640 0.62480 0.01060 0.07700
H 	H 	0.60470 0.04850 0.01310 -0.01600
H 	H 	0.51870 0.97880 0.07000 -0.01100
H 	H 	0.42220 0.46990 0.88280 -0.02000
H 	H 	0.42440 0.53070 0.00930 -0.02300
Zn	Zn	0.85920 0.91140 0.96090 0.78200
Zn	Zn	0.17760 0.13920 0.77940 0.62900
I 	I 	0.84260 0.94080 0.02460 -1.01800
I 	I 	0.89200 0.76000 0.90180 -0.40400
I 	I 	0.53040 0.84340 0.62820 -0.04800
I 	I 	0.62130 0.76490 0.55350 -0.21900
I 	I 	0.23200 0.23300 0.79378 0.37800
I 	I 	0.23900 0.20880 0.81900 -0.60400
I 	I 	0.13580 0.17130 0.70130 -0.05600
I 	I 	0.64722 0.58690 0.98383 0.45100
Zn	Zn	0.62787 0.59356 0.05621 0.79600
N 	N 	0.67010 0.53130 0.10310 -0.32500
N 	N 	0.58120 0.51040 0.05360 -0.30300
I 	I 	0.61374 0.73630 0.08493 0.00800
C 	C 	0.69410 0.57620 0.13500 0.06600
C 	C 	0.67660 0.44490 0.09930 0.06500
H 	H 	0.69080 0.63900 0.13690 -0.01500
C 	C 	0.72300 0.53640 0.16500 -0.11900
C 	C 	0.70500 0.39890 0.12870 -0.11800
H 	H 	0.66100 0.41290 0.07520 -0.01800
H 	H 	0.73880 0.57090 0.18800 0.07900
C 	C 	0.72940 0.44460 0.16220 0.04100
H 	H 	0.70760 0.33610 0.12580 0.08200
C 	C 	0.76050 0.40080 0.19410 0.08100
N 	N 	0.78047 0.45130 0.22720 -0.14400
N 	N 	0.76667 0.31260 0.18850 -0.14300
C 	C 	0.80980 0.40970 0.25420 0.09700
C 	C 	0.79560 0.27820 0.21880 0.09300
C 	C 	0.83340 0.46030 0.29180 0.06500
N 	N 	0.81897 0.32340 0.25100 -0.13400
C 	C 	0.80260 0.17960 0.21840 0.06700
C 	C 	0.82530 0.54910 0.30000 -0.12900
C 	C 	0.86380 0.42070 0.32020 -0.13000
C 	C 	0.83120 0.14260 0.25030 -0.13800
C 	C 	0.77960 0.12320 0.18900 -0.13400
C 	C 	0.84880 0.59210 0.33610 0.07900
H 	H 	0.80420 0.57950 0.28140 0.06800
H 	H 	0.86930 0.35920 0.31690 0.09900
C 	C 	0.88600 0.46950 0.35310 0.08300
C 	C 	0.83650 0.05170 0.25070 0.08500
H 	H 	0.84720 0.17920 0.27200 0.09000
H 	H 	0.75930 0.14590 0.16620 0.08400
C 	C 	0.78650 0.03300 0.19300 0.08200
H 	H 	0.84250 0.65180 0.34260 -0.02100
N 	N 	0.87889 0.55480 0.36139 -0.27600
H 	H 	0.90790 0.44150 0.37140 -0.00700
H 	H 	0.85730 0.02730 0.27230 -0.02100
N 	N 	0.81460 0.99670 0.22300 -0.28100
H 	H 	0.77000 0.99430 0.17290 -0.00400
Zn	Zn	0.91951 0.62609 0.40754 1.16000
Zn	Zn	0.82860 0.86060 0.23010 0.54200
I 	I 	0.97493 0.65405 0.36589 -0.29300
I 	I 	0.88659 0.74100 0.44550 -0.11500
N 	N 	0.93669 0.52370 0.45362 -0.27500
N 	N 	0.86060 0.84400 0.17970 -0.28000
I 	I 	0.76140 0.77460 0.19640 -0.13900
I 	I 	0.87336 0.83840 0.30643 -0.32300
C 	C 	0.89460 0.88310 0.18510 0.08500
C 	C 	0.85010 0.78900 0.14450 0.06700
C 	C 	0.91980 0.87060 0.15550 -0.11500
H 	H 	0.90240 0.92150 0.21020 -0.02100
C 	C 	0.87410 0.77120 0.11440 -0.10800
H 	H 	0.82530 0.76120 0.14010 -0.00300
C 	C 	0.90960 0.81160 0.11960 0.06000
H 	H 	0.94380 0.90220 0.15970 0.08300
H 	H 	0.86590 0.73090 0.09010 0.07200
C 	C 	0.93510 0.79660 0.08790 0.08500
N 	N 	0.92860 0.72290 0.06230 -0.14300
N 	N 	0.96380 0.85600 0.08610 -0.13600
C 	C 	0.95260 0.71320 0.03340 0.07700
C 	C 	0.98490 0.83850 0.05530 0.08300
N 	N 	0.98001 0.77020 0.02717 -0.15200
C 	C 	0.94740 0.62920 0.00550 0.05600
C 	C 	0.01750 0.89980 0.05420 0.05300
C 	C 	0.91970 0.56830 0.01090 -0.12600
C 	C 	0.97110 0.61090 0.97600 -0.12800
C 	C 	0.03510 0.94660 0.09100 -0.13400
C 	C 	0.03400 0.90800 0.01590 -0.12200
C 	C 	0.91500 0.49310 0.98380 0.07000
H 	H 	0.90400 0.57730 0.03280 0.07900
H 	H 	0.99160 0.65050 0.97290 0.07600
C 	C 	0.96480 0.53370 0.95060 0.07900
C 	C 	0.06620 0.99950 0.09040 0.08600
H 	H 	0.02530 0.94200 0.11790 0.08800
C 	C 	0.06500 0.96360 0.01700 0.06700
H 	H 	0.02360 0.87520 0.98940 0.07700
H 	H 	0.89530 0.45150 0.98690 -0.01600
H 	H 	0.98130 0.52120 0.93000 -0.01100
H 	H 	0.07780 0.03010 0.11720 -0.02100
H 	H 	0.07560 0.96930 0.99070 -0.02400
Zn	Zn	0.64080 0.58860 0.03910 0.78200
Zn	Zn	0.32240 0.36080 0.22060 0.62900
I 	I 	0.65740 0.55920 0.97540 -1.01900
I 	I 	0.60800 0.74000 0.09820 -0.40300
I 	I 	0.96960 0.65660 0.37180 -0.04800
I 	I 	0.87870 0.73510 0.44650 -0.21900
I 	I 	0.26800 0.26700 0.20622 0.37800
I 	I 	0.26100 0.29120 0.18100 -0.60400
I 	I 	0.36420 0.32870 0.29870 -0.05600
I 	I 	0.14722 0.08690 0.98383 0.45100
Zn	Zn	0.12787 0.09356 0.05621 0.79600
N 	N 	0.17010 0.03130 0.10310 -0.32500
N 	N 	0.08120 0.01040 0.05360 -0.30400
I 	I 	0.11374 0.23630 0.08493 0.00700
C 	C 	0.19410 0.07620 0.13500 0.06600
C 	C 	0.17660 0.94490 0.09930 0.06600
H 	H 	0.19080 0.13900 0.13690 -0.01500
C 	C 	0.22300 0.03640 0.16500 -0.12000
C 	C 	0.20500 0.89890 0.12870 -0.11800
H 	H 	0.16100 0.91290 0.07520 -0.01900
H 	H 	0.23880 0.07090 0.18800 0.07900
C 	C 	0.22940 0.94460 0.16220 0.04200
H 	H 	0.20760 0.83610 0.12580 0.08200
C 	C 	0.26050 0.90080 0.19410 0.08100
N 	N 	0.28047 0.95130 0.22720 -0.14400
N 	N 	0.26667 0.81260 0.18850 -0.14300
C 	C 	0.30980 0.90970 0.25420 0.09700
C 	C 	0.29560 0.77820 0.21880 0.09300
C 	C 	0.33340 0.96030 0.29180 0.06500
N 	N 	0.31897 0.82340 0.25100 -0.13400
C 	C 	0.30260 0.67960 0.21840 0.06800
C 	C 	0.32530 0.04910 0.30000 -0.13000
C 	C 	0.36380 0.92070 0.32020 -0.13000
C 	C 	0.33120 0.64260 0.25030 -0.13800
C 	C 	0.27960 0.62320 0.18900 -0.13500
C 	C 	0.34880 0.09210 0.33610 0.07900
H 	H 	0.30420 0.07950 0.28140 0.06800
H 	H 	0.36930 0.85920 0.31690 0.09900
C 	C 	0.38600 0.96950 0.35310 0.08300
C 	C 	0.33650 0.55170 0.25070 0.08600
H 	H 	0.34720 0.67920 0.27200 0.09000
H 	H 	0.25930 0.64590 0.16620 0.08400
C 	C 	0.28650 0.53300 0.19300 0.08300
H 	H 	0.34250 0.15180 0.34260 -0.02100
N 	N 	0.37889 0.05480 0.36139 -0.27600
H 	H 	0.40790 0.94150 0.37140 -0.00700
H 	H 	0.35730 0.52730 0.27230 -0.02100
N 	N 	0.31460 0.49670 0.22300 -0.28200
H 	H 	0.27000 0.49430 0.17290 -0.00500
Zn	Zn	0.41951 0.12609 0.40754 1.16000
Zn	Zn	0.32860 0.36060 0.23010 0.54200
I 	I 	0.47493 0.15405 0.36589 -0.29300
I 	I 	0.38659 0.24100 0.44550 -0.11500
N 	N 	0.43669 0.02370 0.45362 -0.27500
N 	N 	0.36060 0.34400 0.17970 -0.28000
I 	I 	0.26140 0.27460 0.19640 -0.13900
I 	I 	0.37336 0.33840 0.30643 -0.32300
C 	C 	0.39460 0.38310 0.18510 0.08500
C 	C 	0.35010 0.28900 0.14450 0.06700
C 	C 	0.41980 0.37060 0.15550 -0.11500
H 	H 	0.40240 0.42150 0.21020 -0.02100
C 	C 	0.37410 0.27120 0.11440 -0.10800
H 	H 	0.32530 0.26120 0.14010 -0.00300
C 	C 	0.40960 0.31160 0.11960 0.06000
H 	H 	0.44380 0.40220 0.15970 0.08300
H 	H 	0.36590 0.23090 0.09010 0.07200
C 	C 	0.43510 0.29660 0.08790 0.08500
N 	N 	0.42860 0.22290 0.06230 -0.14300
N 	N 	0.46380 0.35600 0.08610 -0.13600
C 	C 	0.45260 0.21320 0.03340 0.07700
C 	C 	0.48490 0.33850 0.05530 0.08300
N 	N 	0.48001 0.27020 0.02717 -0.15200
C 	C 	0.44740 0.12920 0.00550 0.05500
C 	C 	0.51750 0.39980 0.05420 0.05200
C 	C 	0.41970 0.06830 0.01090 -0.12600
C 	C 	0.47110 0.11090 0.97600 -0.12700
C 	C 	0.53510 0.44660 0.09100 -0.13300
C 	C 	0.53400 0.40800 0.01590 -0.12200
C 	C 	0.41500 0.99310 0.98380 0.07000
H 	H 	0.40400 0.07730 0.03280 0.07900
H 	H 	0.49160 0.15050 0.97290 0.07500
C 	C 	0.46480 0.03370 0.95060 0.07900
C 	C 	0.56620 0.49950 0.09040 0.08500
H 	H 	0.52530 0.44200 0.11790 0.08800
C 	C 	0.56500 0.46360 0.01700 0.06600
H 	H 	0.52360 0.37520 0.98940 0.07700
H 	H 	0.39530 0.95150 0.98690 -0.01600
H 	H 	0.48130 0.02120 0.93000 -0.01100
H 	H 	0.57780 0.53010 0.11720 -0.02000
H 	H 	0.57560 0.46930 0.99070 -0.02300
Zn	Zn	0.14080 0.08860 0.03910 0.78200
Zn	Zn	0.82240 0.86080 0.22060 0.62900
I 	I 	0.15740 0.05920 0.97540 -1.01800
I 	I 	0.10800 0.24000 0.09820 -0.40400
I 	I 	0.46960 0.15660 0.37180 -0.04800
I 	I 	0.37870 0.23510 0.44650 -0.21900
I 	I 	0.76800 0.76700 0.20622 0.37800
I 	I 	0.76100 0.79120 0.18100 -0.60400
I 	I 	0.86420 0.82870 0.29870 -0.05600
I 	I 	0.64722 0.41310 0.48383 0.45100
Zn	Zn	0.62787 0.40644 0.55621 0.79600
N 	N 	0.67010 0.46870 0.60310 -0.32500
N 	N 	0.58120 0.48960 0.55360 -0.30300
I 	I 	0.61374 0.26370 0.58493 0.00800
C 	C 	0.69410 0.42380 0.63500 0.06600
C 	C 	0.67660 0.55510 0.59930 0.06500
H 	H 	0.69080 0.36100 0.63690 -0.01500
C 	C 	0.72300 0.46360 0.66500 -0.11900
C 	C 	0.70500 0.60110 0.62870 -0.11800
H 	H 	0.66100 0.58710 0.57520 -0.01800
H 	H 	0.73880 0.42910 0.68800 0.07900
C 	C 	0.72940 0.55540 0.66220 0.04100
H 	H 	0.70760 0.66390 0.62580 0.08200
C 	C 	0.76050 0.59920 0.69410 0.08100
N 	N 	0.78047 0.54870 0.72720 -0.14400
N 	N 	0.76667 0.68740 0.68850 -0.14300
C 	C 	0.80980 0.59030 0.75420 0.09700
C 	C 	0.79560 0.72180 0.71880 0.09300
C 	C 	0.83340 0.53970 0.79180 0.06500
N 	N 	0.81897 0.67660 0.75100 -0.13400
C 	C 	0.80260 0.82040 0.71840 0.06700
C 	C 	0.82530 0.45090 0.80000 -0.12900
C 	C 	0.86380 0.57930 0.82020 -0.13000
C 	C 	0.83120 0.85740 0.75030 -0.13800
C 	C 	0.77960 0.87680 0.68900 -0.13500
C 	C 	0.84880 0.40790 0.83610 0.07900
H 	H 	0.80420 0.42050 0.78140 0.06800
H 	H 	0.86930 0.64080 0.81690 0.09900
C 	C 	0.88600 0.53050 0.85310 0.08300
C 	C 	0.83650 0.94830 0.75070 0.08500
H 	H 	0.84720 0.82080 0.77200 0.09000
H 	H 	0.75930 0.85410 0.66620 0.08400
C 	C 	0.78650 0.96700 0.69300 0.08300
H 	H 	0.84250 0.34820 0.84260 -0.02100
N 	N 	0.87889 0.44520 0.86139 -0.27600
H 	H 	0.90790 0.55850 0.87140 -0.00700
H 	H 	0.85730 0.97270 0.77230 -0.02100
N 	N 	0.81460 0.00330 0.72300 -0.28200
H 	H 	0.77000 0.00570 0.67290 -0.00400
Zn	Zn	0.91951 0.37391 0.90754 1.16000
Zn	Zn	0.82860 0.13940 0.73010 0.54200
I 	I 	0.97493 0.34595 0.86589 -0.29300
I 	I 	0.88659 0.25900 0.94550 -0.11500
N 	N 	0.93669 0.47630 0.95362 -0.27500
N 	N 	0.86060 0.15600 0.67970 -0.28000
I 	I 	0.76140 0.22540 0.69640 -0.13900
I 	I 	0.87336 0.16160 0.80643 -0.32300
C 	C 	0.89460 0.11690 0.68510 0.08500
C 	C 	0.85010 0.21100 0.64450 0.06700
C 	C 	0.91980 0.12940 0.65550 -0.11500
H 	H 	0.90240 0.07850 0.71020 -0.02100
C 	C 	0.87410 0.22880 0.61440 -0.10800
H 	H 	0.82530 0.23880 0.64010 -0.00300
C 	C 	0.90960 0.18840 0.61960 0.06000
H 	H 	0.94380 0.09780 0.65970 0.08300
H 	H 	0.86590 0.26910 0.59010 0.07200
C 	C 	0.93510 0.20340 0.58790 0.08500
N 	N 	0.92860 0.27710 0.56230 -0.14300
N 	N 	0.96380 0.14400 0.58610 -0.13600
C 	C 	0.95260 0.28680 0.53340 0.07700
C 	C 	0.98490 0.16150 0.55530 0.08300
N 	N 	0.98001 0.22980 0.52717 -0.15200
C 	C 	0.94740 0.37080 0.50550 0.05600
C 	C 	0.01750 0.10020 0.55420 0.05200
C 	C 	0.91970 0.43170 0.51090 -0.12700
C 	C 	0.97110 0.38910 0.47600 -0.12800
C 	C 	0.03510 0.05340 0.59100 -0.13400
C 	C 	0.03400 0.09200 0.51590 -0.12200
C 	C 	0.91500 0.50690 0.48380 0.07000
H 	H 	0.90400 0.42270 0.53280 0.07900
H 	H 	0.99160 0.34950 0.47290 0.07500
C 	C 	0.96480 0.46630 0.45060 0.07900
C 	C 	0.06620 0.00050 0.59040 0.08500
H 	H 	0.02530 0.05800 0.61790 0.08800
C 	C 	0.06500 0.03640 0.51700 0.06600
H 	H 	0.02360 0.12480 0.48940 0.07700
H 	H 	0.89530 0.54850 0.48690 -0.01600
H 	H 	0.98130 0.47880 0.43000 -0.01100
H 	H 	0.07780 0.96990 0.61720 -0.02000
H 	H 	0.07560 0.03070 0.49070 -0.02300
Zn	Zn	0.64080 0.41140 0.53910 0.78200
Zn	Zn	0.32240 0.63920 0.72060 0.62900
I 	I 	0.65740 0.44080 0.47540 -1.01900
I 	I 	0.60800 0.26000 0.59820 -0.40400
I 	I 	0.96960 0.34340 0.87180 -0.04800
I 	I 	0.87870 0.26490 0.94650 -0.21900
I 	I 	0.26800 0.73300 0.70622 0.37800
I 	I 	0.26100 0.70880 0.68100 -0.60400
I 	I 	0.36420 0.67130 0.79870 -0.05600
I 	I 	0.14722 0.91310 0.48383 0.45100
Zn	Zn	0.12787 0.90644 0.55621 0.79600
N 	N 	0.17010 0.96870 0.60310 -0.32500
N 	N 	0.08120 0.98960 0.55360 -0.30300
I 	I 	0.11374 0.76370 0.58493 0.00700
C 	C 	0.19410 0.92380 0.63500 0.06600
C 	C 	0.17660 0.05510 0.59930 0.06600
H 	H 	0.19080 0.86100 0.63690 -0.01500
C 	C 	0.22300 0.96360 0.66500 -0.12000
C 	C 	0.20500 0.10110 0.62870 -0.11800
H 	H 	0.16100 0.08710 0.57520 -0.01800
H 	H 	0.23880 0.92910 0.68800 0.07900
C 	C 	0.22940 0.05540 0.66220 0.04200
H 	H 	0.20760 0.16390 0.62580 0.08200
C 	C 	0.26050 0.09920 0.69410 0.08100
N 	N 	0.28047 0.04870 0.72720 -0.14400
N 	N 	0.26667 0.18740 0.68850 -0.14300
C 	C 	0.30980 0.09030 0.75420 0.09700
C 	C 	0.29560 0.22180 0.71880 0.09300
C 	C 	0.33340 0.03970 0.79180 0.06600
N 	N 	0.31897 0.17660 0.75100 -0.13400
C 	C 	0.30260 0.32040 0.71840 0.06800
C 	C 	0.32530 0.95090 0.80000 -0.13000
C 	C 	0.36380 0.07930 0.82020 -0.13000
C 	C 	0.33120 0.35740 0.75030 -0.13800
C 	C 	0.27960 0.37680 0.68900 -0.13500
C 	C 	0.34880 0.90790 0.83610 0.07900
H 	H 	0.30420 0.92050 0.78140 0.06800
H 	H 	0.36930 0.14080 0.81690 0.09900
C 	C 	0.38600 0.03050 0.85310 0.08300
C 	C 	0.33650 0.44830 0.75070 0.08600
H 	H 	0.34720 0.32080 0.77200 0.09000
H 	H 	0.25930 0.35410 0.66620 0.08400
C 	C 	0.28650 0.46700 0.69300 0.08300
H 	H 	0.34250 0.84820 0.84260 -0.02200
N 	N 	0.37889 0.94520 0.86139 -0.27600
H 	H 	0.40790 0.05850 0.87140 -0.00800
H 	H 	0.35730 0.47270 0.77230 -0.02100
N 	N 	0.31460 0.50330 0.72300 -0.28200
H 	H 	0.27000 0.50570 0.67290 -0.00500
Zn	Zn	0.41951 0.87391 0.90754 1.16000
Zn	Zn	0.32860 0.63940 0.73010 0.54200
I 	I 	0.47493 0.84595 0.86589 -0.29300
I 	I 	0.38659 0.75900 0.94550 -0.11500
N 	N 	0.43669 0.97630 0.95362 -0.27500
N 	N 	0.36060 0.65600 0.67970 -0.28000
I 	I 	0.26140 0.72540 0.69640 -0.13900
I 	I 	0.37336 0.66160 0.80643 -0.32300
C 	C 	0.39460 0.61690 0.68510 0.08500
C 	C 	0.35010 0.71100 0.64450 0.06700
C 	C 	0.41980 0.62940 0.65550 -0.11500
H 	H 	0.40240 0.57850 0.71020 -0.02100
C 	C 	0.37410 0.72880 0.61440 -0.10800
H 	H 	0.32530 0.73880 0.64010 -0.00300
C 	C 	0.40960 0.68840 0.61960 0.06000
H 	H 	0.44380 0.59780 0.65970 0.08300
H 	H 	0.36590 0.76910 0.59010 0.07200
C 	C 	0.43510 0.70340 0.58790 0.08500
N 	N 	0.42860 0.77710 0.56230 -0.14300
N 	N 	0.46380 0.64400 0.58610 -0.13600
C 	C 	0.45260 0.78680 0.53340 0.07700
C 	C 	0.48490 0.66150 0.55530 0.08300
N 	N 	0.48001 0.72980 0.52717 -0.15200
C 	C 	0.44740 0.87080 0.50550 0.05600
C 	C 	0.51750 0.60020 0.55420 0.05200
C 	C 	0.41970 0.93170 0.51090 -0.12600
C 	C 	0.47110 0.88910 0.47600 -0.12800
C 	C 	0.53510 0.55340 0.59100 -0.13300
C 	C 	0.53400 0.59200 0.51590 -0.12200
C 	C 	0.41500 0.00690 0.48380 0.07000
H 	H 	0.40400 0.92270 0.53280 0.07900
H 	H 	0.49160 0.84950 0.47290 0.07500
C 	C 	0.46480 0.96630 0.45060 0.07900
C 	C 	0.56620 0.50050 0.59040 0.08500
H 	H 	0.52530 0.55800 0.61790 0.08800
C 	C 	0.56500 0.53640 0.51700 0.06600
H 	H 	0.52360 0.62480 0.48940 0.07700
H 	H 	0.39530 0.04850 0.48690 -0.01600
H 	H 	0.48130 0.97880 0.43000 -0.01100
H 	H 	0.57780 0.46990 0.61720 -0.02000
H 	H 	0.57560 0.53070 0.49070 -0.02300
Zn	Zn	0.14080 0.91140 0.53910 0.78200
Zn	Zn	0.82240 0.13920 0.72060 0.62900
I 	I 	0.15740 0.94080 0.47540 -1.01900
I 	I 	0.10800 0.76000 0.59820 -0.40400
I 	I 	0.46960 0.84340 0.87180 -0.04900
I 	I 	0.37870 0.76490 0.94650 -0.22000
I 	I 	0.76800 0.23300 0.70622 0.37800
I 	I 	0.76100 0.20880 0.68100 -0.60400
I 	I 	0.86420 0.17130 0.79870 -0.05600
