data_crystal

_cell_length_a 31.89030
_cell_length_b 31.89030
_cell_length_c 17.19150
_cell_angle_alpha 90.00000
_cell_angle_beta  90.00000
_cell_angle_gamma 120.00000

_symmetry_space_group_name_	'P 1'
_symmetry_space_group_name_H-M	'P 1'

loop_
_symmetry_equiv_pos_as_xyz
  x,y,z

loop_
_atom_site_label
_atom_site_type_symbol
_atom_site_fract_x
_atom_site_fract_y
_atom_site_fract_z
_atom_site_charge
In	In	0.56038 0.49244 0.14792 2.01400
O 	O 	0.16520 0.48920 0.65430 -0.58400
O 	O 	0.55930 0.43250 0.09530 -0.58500
O 	O 	0.60360 0.40650 0.15840 -0.58600
O 	O 	0.44720 0.99750 0.68380 -0.57000
O 	O 	0.09420 0.46360 0.59220 -0.54500
O 	O 	0.52470 0.49580 0.04390 -0.46100
O 	O 	0.48740 0.45100 0.18530 -0.56300
C 	C 	0.25550 0.42760 0.32060 -0.11900
H 	H 	0.27130 0.42820 0.36710 0.06600
C 	C 	0.57140 0.30270 0.82110 0.02000
C 	C 	0.49430 0.09990 0.68210 0.04400
H 	H 	0.48750 0.08230 0.63540 0.03000
C 	C 	0.21070 0.42710 0.32130 0.03500
C 	C 	0.55760 0.36060 0.89560 -0.16000
H 	H 	0.54440 0.36560 0.85000 0.08700
C 	C 	0.19120 0.43350 0.39540 0.05500
C 	C 	0.13890 0.41510 0.40560 -0.12300
H 	H 	0.11700 0.39620 0.36640 0.07100
C 	C 	0.21950 0.45900 0.45270 -0.12900
H 	H 	0.25290 0.47070 0.44730 0.07500
C 	C 	0.12190 0.42570 0.47380 0.07200
H 	H 	0.08860 0.41410 0.47980 0.02000
C 	C 	0.57930 0.40710 0.10090 0.45700
C 	C 	0.13620 0.46910 0.59740 0.44100
C 	C 	0.57630 0.37800 0.02840 -0.18100
C 	C 	0.59210 0.32140 0.96190 -0.14200
H 	H 	0.60300 0.29900 0.96280 0.08000
C 	C 	0.15250 0.45190 0.53020 -0.16300
C 	C 	0.20360 0.47010 0.52190 0.06100
H 	H 	0.22550 0.48880 0.56120 0.01000
C 	C 	0.55770 0.25410 0.82240 -0.09000
H 	H 	0.55260 0.23750 0.86970 0.06300
C 	C 	0.57460 0.32900 0.89330 0.07800
C 	C 	0.55910 0.38560 0.96150 0.10000
H 	H 	0.54810 0.40800 0.96000 0.01500
C 	C 	0.51630 0.14960 0.67850 -0.11200
H 	H 	0.52150 0.16580 0.63080 0.07200
C 	C 	0.59410 0.34570 0.02940 0.07000
H 	H 	0.60720 0.34070 0.07520 0.00000
C 	C 	0.35500 0.44900 0.31500 -0.26000
H 	H 	0.34350 0.45890 0.35750 0.11000
C 	C 	0.40200 0.45500 0.32200 0.01000
H 	H 	0.42210 0.46820 0.36580 0.04700
C 	C 	0.34000 0.41900 0.18900 0.17200
H 	H 	0.32030 0.40510 0.14550 -0.02800
C 	C 	0.39200 0.42900 0.31000 0.04100
In	In	0.50756 0.06794 0.14792 2.01500
O 	O 	0.51080 0.67600 0.65430 -0.58200
O 	O 	0.56750 0.12680 0.09530 -0.58400
O 	O 	0.59350 0.19710 0.15840 -0.58600
O 	O 	0.00250 0.44970 0.68380 -0.58200
O 	O 	0.53640 0.63060 0.59220 -0.54300
O 	O 	0.50420 0.02890 0.04390 -0.45900
O 	O 	0.54900 0.03640 0.18530 -0.56200
C 	C 	0.57240 0.82790 0.32060 -0.11800
H 	H 	0.57180 0.84310 0.36710 0.06700
C 	C 	0.69730 0.26870 0.82110 0.02100
C 	C 	0.90010 0.39440 0.68210 0.04900
H 	H 	0.91770 0.40520 0.63540 0.03100
C 	C 	0.57290 0.78360 0.32130 0.03700
C 	C 	0.63940 0.19700 0.89560 -0.15900
H 	H 	0.63440 0.17880 0.85000 0.08800
C 	C 	0.56650 0.75770 0.39540 0.05600
C 	C 	0.58490 0.72380 0.40560 -0.12200
H 	H 	0.60380 0.72080 0.36640 0.07300
C 	C 	0.54100 0.76050 0.45270 -0.12800
H 	H 	0.52930 0.78220 0.44730 0.07600
C 	C 	0.57430 0.69620 0.47380 0.07300
H 	H 	0.58590 0.67450 0.47980 0.02200
C 	C 	0.59290 0.17220 0.10090 0.45800
C 	C 	0.53090 0.66710 0.59740 0.44200
C 	C 	0.62200 0.19830 0.02840 -0.18000
C 	C 	0.67860 0.27070 0.96190 -0.14300
H 	H 	0.70100 0.30400 0.96280 0.08000
C 	C 	0.54810 0.70060 0.53020 -0.16300
C 	C 	0.52990 0.73350 0.52190 0.06100
H 	H 	0.51120 0.73670 0.56120 0.01100
C 	C 	0.74590 0.30360 0.82240 -0.08900
H 	H 	0.76250 0.31510 0.86970 0.06300
C 	C 	0.67100 0.24560 0.89330 0.07800
C 	C 	0.61440 0.17350 0.96150 0.10000
H 	H 	0.59200 0.14010 0.96000 0.01500
C 	C 	0.85040 0.36670 0.67850 -0.11500
H 	H 	0.83420 0.35570 0.63080 0.07300
C 	C 	0.65430 0.24840 0.02940 0.07000
H 	H 	0.65930 0.26650 0.07520 0.00000
C 	C 	0.55100 0.90600 0.31500 -0.26200
H 	H 	0.54110 0.88460 0.35750 0.11100
C 	C 	0.54500 0.94700 0.32200 0.00900
H 	H 	0.53180 0.95390 0.36580 0.04900
C 	C 	0.58100 0.92100 0.18900 0.17500
H 	H 	0.59490 0.91520 0.14550 -0.02800
C 	C 	0.57100 0.96300 0.31000 0.04200
In	In	0.93206 0.43962 0.14792 2.01500
O 	O 	0.32400 0.83480 0.65430 -0.58200
O 	O 	0.87320 0.44070 0.09530 -0.58400
O 	O 	0.80290 0.39640 0.15840 -0.58500
O 	O 	0.55030 0.55280 0.68380 -0.57600
O 	O 	0.36940 0.90580 0.59220 -0.54300
O 	O 	0.97110 0.47530 0.04390 -0.45400
O 	O 	0.96360 0.51260 0.18530 -0.56200
C 	C 	0.17210 0.74450 0.32060 -0.11800
H 	H 	0.15690 0.72870 0.36710 0.06700
C 	C 	0.73130 0.42860 0.82110 0.02100
C 	C 	0.60560 0.50570 0.68210 0.04700
H 	H 	0.59480 0.51250 0.63540 0.03100
C 	C 	0.21640 0.78930 0.32130 0.03600
C 	C 	0.80300 0.44240 0.89560 -0.15800
H 	H 	0.82120 0.45560 0.85000 0.08800
C 	C 	0.24230 0.80880 0.39540 0.05600
C 	C 	0.27620 0.86110 0.40560 -0.12200
H 	H 	0.27920 0.88300 0.36640 0.07300
C 	C 	0.23950 0.78050 0.45270 -0.12800
H 	H 	0.21780 0.74710 0.44730 0.07600
C 	C 	0.30380 0.87810 0.47380 0.07300
H 	H 	0.32550 0.91140 0.47980 0.02200
C 	C 	0.82780 0.42070 0.10090 0.45800
C 	C 	0.33290 0.86380 0.59740 0.44200
C 	C 	0.80170 0.42370 0.02840 -0.18000
C 	C 	0.72930 0.40790 0.96190 -0.14200
H 	H 	0.69600 0.39700 0.96280 0.08000
C 	C 	0.29940 0.84750 0.53020 -0.16300
C 	C 	0.26650 0.79640 0.52190 0.06100
H 	H 	0.26330 0.77450 0.56120 0.01100
C 	C 	0.69640 0.44230 0.82240 -0.08900
H 	H 	0.68490 0.44740 0.86970 0.06300
C 	C 	0.75440 0.42540 0.89330 0.07800
C 	C 	0.82650 0.44090 0.96150 0.09900
H 	H 	0.85990 0.45190 0.96000 0.01500
C 	C 	0.63330 0.48370 0.67850 -0.11400
H 	H 	0.64430 0.47850 0.63080 0.07200
C 	C 	0.75160 0.40590 0.02940 0.07000
H 	H 	0.73350 0.39280 0.07520 0.00100
C 	C 	0.09400 0.64500 0.31500 -0.26000
H 	H 	0.11540 0.65650 0.35750 0.11000
C 	C 	0.05300 0.59800 0.32200 0.01100
H 	H 	0.04610 0.57790 0.36580 0.04500
C 	C 	0.07900 0.66000 0.18900 0.17100
H 	H 	0.08480 0.67970 0.14550 -0.02800
C 	C 	0.03700 0.60800 0.31000 0.04100
In	In	0.56038 0.49244 0.35208 2.01500
O 	O 	0.16520 0.48920 0.84570 -0.58200
O 	O 	0.55930 0.43250 0.40470 -0.58200
O 	O 	0.60360 0.40650 0.34160 -0.58500
O 	O 	0.44720 0.99750 0.81620 -0.56800
O 	O 	0.09420 0.46360 0.90780 -0.54100
O 	O 	0.52470 0.49580 0.45610 -0.46000
O 	O 	0.48740 0.45100 0.31470 -0.56200
C 	C 	0.25550 0.42760 0.17940 -0.11700
H 	H 	0.27130 0.42820 0.13290 0.06600
C 	C 	0.57140 0.30270 0.67890 0.02000
C 	C 	0.49430 0.09990 0.81790 0.04400
H 	H 	0.48750 0.08230 0.86460 0.03200
C 	C 	0.21070 0.42710 0.17870 0.03500
C 	C 	0.55760 0.36060 0.60440 -0.15600
H 	H 	0.54440 0.36560 0.65000 0.08700
C 	C 	0.19120 0.43350 0.10460 0.05800
C 	C 	0.13890 0.41510 0.09440 -0.12000
H 	H 	0.11700 0.39620 0.13360 0.07100
C 	C 	0.21950 0.45900 0.04730 -0.14000
H 	H 	0.25290 0.47070 0.05270 0.07800
C 	C 	0.12190 0.42570 0.02620 0.06000
H 	H 	0.08860 0.41410 0.02020 0.02300
C 	C 	0.57930 0.40710 0.39910 0.45600
C 	C 	0.13620 0.46910 0.90260 0.44000
C 	C 	0.57630 0.37800 0.47160 -0.17300
C 	C 	0.59210 0.32140 0.53810 -0.15400
H 	H 	0.60300 0.29900 0.53720 0.08100
C 	C 	0.15250 0.45190 0.96980 -0.15400
C 	C 	0.20360 0.47010 0.97810 0.07100
H 	H 	0.22550 0.48880 0.93880 0.00900
C 	C 	0.55770 0.25410 0.67760 -0.08900
H 	H 	0.55260 0.23750 0.63030 0.06200
C 	C 	0.57460 0.32900 0.60670 0.08000
C 	C 	0.55910 0.38560 0.53850 0.08900
H 	H 	0.54810 0.40800 0.54000 0.01600
C 	C 	0.51630 0.14960 0.82150 -0.11200
H 	H 	0.52150 0.16580 0.86920 0.07200
C 	C 	0.59410 0.34570 0.47060 0.07900
H 	H 	0.60720 0.34070 0.42480 -0.00200
C 	C 	0.35500 0.44900 0.18500 -0.25700
H 	H 	0.34350 0.45890 0.14250 0.10900
C 	C 	0.40200 0.45500 0.17800 0.01200
H 	H 	0.42210 0.46820 0.13420 0.04500
C 	C 	0.34000 0.41900 0.31100 0.17500
H 	H 	0.32030 0.40510 0.35450 -0.02800
C 	C 	0.39200 0.42900 0.19000 0.03900
In	In	0.50756 0.06794 0.35208 2.01500
O 	O 	0.51080 0.67600 0.84570 -0.58100
O 	O 	0.56750 0.12680 0.40470 -0.58200
O 	O 	0.59350 0.19710 0.34160 -0.58500
O 	O 	0.00250 0.44970 0.81620 -0.58100
O 	O 	0.53640 0.63060 0.90780 -0.54100
O 	O 	0.50420 0.02890 0.45610 -0.45900
O 	O 	0.54900 0.03640 0.31470 -0.56200
C 	C 	0.57240 0.82790 0.17940 -0.11800
H 	H 	0.57180 0.84310 0.13290 0.06600
C 	C 	0.69730 0.26870 0.67890 0.02000
C 	C 	0.90010 0.39440 0.81790 0.04900
H 	H 	0.91770 0.40520 0.86460 0.03200
C 	C 	0.57290 0.78360 0.17870 0.03600
C 	C 	0.63940 0.19700 0.60440 -0.15700
H 	H 	0.63440 0.17880 0.65000 0.08700
C 	C 	0.56650 0.75770 0.10460 0.05900
C 	C 	0.58490 0.72380 0.09440 -0.12000
H 	H 	0.60380 0.72080 0.13360 0.07200
C 	C 	0.54100 0.76050 0.04730 -0.14000
H 	H 	0.52930 0.78220 0.05270 0.07800
C 	C 	0.57430 0.69620 0.02620 0.06100
H 	H 	0.58590 0.67450 0.02020 0.02300
C 	C 	0.59290 0.17220 0.39910 0.45700
C 	C 	0.53090 0.66710 0.90260 0.44000
C 	C 	0.62200 0.19830 0.47160 -0.17300
C 	C 	0.67860 0.27070 0.53810 -0.15400
H 	H 	0.70100 0.30400 0.53720 0.08100
C 	C 	0.54810 0.70060 0.96980 -0.15400
C 	C 	0.52990 0.73350 0.97810 0.07100
H 	H 	0.51120 0.73670 0.93880 0.00900
C 	C 	0.74590 0.30360 0.67760 -0.08900
H 	H 	0.76250 0.31510 0.63030 0.06200
C 	C 	0.67100 0.24560 0.60670 0.08000
C 	C 	0.61440 0.17350 0.53850 0.08900
H 	H 	0.59200 0.14010 0.54000 0.01600
C 	C 	0.85040 0.36670 0.82150 -0.11500
H 	H 	0.83420 0.35570 0.86920 0.07300
C 	C 	0.65430 0.24840 0.47060 0.08000
H 	H 	0.65930 0.26650 0.42480 -0.00200
C 	C 	0.55100 0.90600 0.18500 -0.25900
H 	H 	0.54110 0.88460 0.14250 0.10900
C 	C 	0.54500 0.94700 0.17800 0.01000
H 	H 	0.53180 0.95390 0.13420 0.04700
C 	C 	0.58100 0.92100 0.31100 0.17800
H 	H 	0.59490 0.91520 0.35450 -0.02800
C 	C 	0.57100 0.96300 0.19000 0.04000
In	In	0.93206 0.43962 0.35208 2.01500
O 	O 	0.32400 0.83480 0.84570 -0.58100
O 	O 	0.87320 0.44070 0.40470 -0.58200
O 	O 	0.80290 0.39640 0.34160 -0.58500
O 	O 	0.55030 0.55280 0.81620 -0.57500
O 	O 	0.36940 0.90580 0.90780 -0.54000
O 	O 	0.97110 0.47530 0.45610 -0.45500
O 	O 	0.96360 0.51260 0.31470 -0.56200
C 	C 	0.17210 0.74450 0.17940 -0.11700
H 	H 	0.15690 0.72870 0.13290 0.06600
C 	C 	0.73130 0.42860 0.67890 0.02000
C 	C 	0.60560 0.50570 0.81790 0.04700
H 	H 	0.59480 0.51250 0.86460 0.03200
C 	C 	0.21640 0.78930 0.17870 0.03500
C 	C 	0.80300 0.44240 0.60440 -0.15600
H 	H 	0.82120 0.45560 0.65000 0.08700
C 	C 	0.24230 0.80880 0.10460 0.05900
C 	C 	0.27620 0.86110 0.09440 -0.11900
H 	H 	0.27920 0.88300 0.13360 0.07200
C 	C 	0.23950 0.78050 0.04730 -0.14000
H 	H 	0.21780 0.74710 0.05270 0.07800
C 	C 	0.30380 0.87810 0.02620 0.06000
H 	H 	0.32550 0.91140 0.02020 0.02400
C 	C 	0.82780 0.42070 0.39910 0.45600
C 	C 	0.33290 0.86380 0.90260 0.44000
C 	C 	0.80170 0.42370 0.47160 -0.17300
C 	C 	0.72930 0.40790 0.53810 -0.15400
H 	H 	0.69600 0.39700 0.53720 0.08100
C 	C 	0.29940 0.84750 0.96980 -0.15300
C 	C 	0.26650 0.79640 0.97810 0.07100
H 	H 	0.26330 0.77450 0.93880 0.00900
C 	C 	0.69640 0.44230 0.67760 -0.08900
H 	H 	0.68490 0.44740 0.63030 0.06200
C 	C 	0.75440 0.42540 0.60670 0.08000
C 	C 	0.82650 0.44090 0.53850 0.08900
H 	H 	0.85990 0.45190 0.54000 0.01700
C 	C 	0.63330 0.48370 0.82150 -0.11400
H 	H 	0.64430 0.47850 0.86920 0.07300
C 	C 	0.75160 0.40590 0.47060 0.07900
H 	H 	0.73350 0.39280 0.42480 -0.00200
C 	C 	0.09400 0.64500 0.18500 -0.25700
H 	H 	0.11540 0.65650 0.14250 0.10800
C 	C 	0.05300 0.59800 0.17800 0.01300
H 	H 	0.04610 0.57790 0.13420 0.04400
C 	C 	0.07900 0.66000 0.31100 0.17400
H 	H 	0.08480 0.67970 0.35450 -0.02800
C 	C 	0.03700 0.60800 0.19000 0.03900
In	In	0.49244 0.56038 0.85208 2.01500
O 	O 	0.48920 0.16520 0.34570 -0.58300
O 	O 	0.43250 0.55930 0.90470 -0.58000
O 	O 	0.40650 0.60360 0.84160 -0.58400
O 	O 	0.99750 0.44720 0.31620 -0.56900
O 	O 	0.46360 0.09420 0.40780 -0.54400
O 	O 	0.49580 0.52470 0.95610 -0.45200
O 	O 	0.45100 0.48740 0.81470 -0.56100
C 	C 	0.42760 0.25550 0.67940 -0.11900
H 	H 	0.42820 0.27130 0.63290 0.06700
C 	C 	0.30270 0.57140 0.17890 0.01800
C 	C 	0.09990 0.49430 0.31790 0.04500
H 	H 	0.08230 0.48750 0.36460 0.03100
C 	C 	0.42710 0.21070 0.67870 0.03800
C 	C 	0.36060 0.55760 0.10440 -0.15400
H 	H 	0.36560 0.54440 0.15000 0.08600
C 	C 	0.43350 0.19120 0.60460 0.05600
C 	C 	0.41510 0.13890 0.59440 -0.12200
H 	H 	0.39620 0.11700 0.63360 0.07200
C 	C 	0.45900 0.21950 0.54730 -0.12800
H 	H 	0.47070 0.25290 0.55270 0.07600
C 	C 	0.42570 0.12190 0.52620 0.07300
H 	H 	0.41410 0.08860 0.52020 0.02100
C 	C 	0.40710 0.57930 0.89910 0.45500
C 	C 	0.46910 0.13620 0.40260 0.44200
C 	C 	0.37800 0.57630 0.97160 -0.16600
C 	C 	0.32140 0.59210 0.03810 -0.16700
H 	H 	0.29900 0.60300 0.03720 0.08400
C 	C 	0.45190 0.15250 0.46980 -0.16400
C 	C 	0.47010 0.20360 0.47810 0.06100
H 	H 	0.48880 0.22550 0.43880 0.01000
C 	C 	0.25410 0.55770 0.17760 -0.08700
H 	H 	0.23750 0.55260 0.13030 0.06100
C 	C 	0.32900 0.57460 0.10670 0.08300
C 	C 	0.38560 0.55910 0.03850 0.07800
H 	H 	0.40800 0.54810 0.04000 0.01800
C 	C 	0.14960 0.51630 0.32150 -0.11300
H 	H 	0.16580 0.52150 0.36920 0.07200
C 	C 	0.34570 0.59410 0.97060 0.09000
H 	H 	0.34070 0.60720 0.92480 -0.00400
C 	C 	0.44900 0.35500 0.68500 -0.26000
H 	H 	0.45890 0.34350 0.64250 0.11000
C 	C 	0.45500 0.40200 0.67800 0.01100
H 	H 	0.46820 0.42210 0.63420 0.04700
C 	C 	0.41900 0.34000 0.81100 0.17900
H 	H 	0.40510 0.32030 0.85450 -0.02800
C 	C 	0.42900 0.39200 0.69000 0.04100
In	In	0.06794 0.50756 0.85208 2.01500
O 	O 	0.67600 0.51080 0.34570 -0.58300
O 	O 	0.12680 0.56750 0.90470 -0.58000
O 	O 	0.19710 0.59350 0.84160 -0.58400
O 	O 	0.44970 0.00250 0.31620 -0.58200
O 	O 	0.63060 0.53640 0.40780 -0.54300
O 	O 	0.02890 0.50420 0.95610 -0.45100
O 	O 	0.03640 0.54900 0.81470 -0.56100
C 	C 	0.82790 0.57240 0.67940 -0.11900
H 	H 	0.84310 0.57180 0.63290 0.06800
C 	C 	0.26870 0.69730 0.17890 0.01800
C 	C 	0.39440 0.90010 0.31790 0.05000
H 	H 	0.40520 0.91770 0.36460 0.03100
C 	C 	0.78360 0.57290 0.67870 0.03800
C 	C 	0.19700 0.63940 0.10440 -0.15400
H 	H 	0.17880 0.63440 0.15000 0.08600
C 	C 	0.75770 0.56650 0.60460 0.05600
C 	C 	0.72380 0.58490 0.59440 -0.12200
H 	H 	0.72080 0.60380 0.63360 0.07300
C 	C 	0.76050 0.54100 0.54730 -0.12700
H 	H 	0.78220 0.52930 0.55270 0.07600
C 	C 	0.69620 0.57430 0.52620 0.07300
H 	H 	0.67450 0.58590 0.52020 0.02200
C 	C 	0.17220 0.59290 0.89910 0.45500
C 	C 	0.66710 0.53090 0.40260 0.44200
C 	C 	0.19830 0.62200 0.97160 -0.16500
C 	C 	0.27070 0.67860 0.03810 -0.16700
H 	H 	0.30400 0.70100 0.03720 0.08400
C 	C 	0.70060 0.54810 0.46980 -0.16300
C 	C 	0.73350 0.52990 0.47810 0.06100
H 	H 	0.73670 0.51120 0.43880 0.01000
C 	C 	0.30360 0.74590 0.17760 -0.08700
H 	H 	0.31510 0.76250 0.13030 0.06100
C 	C 	0.24560 0.67100 0.10670 0.08300
C 	C 	0.17350 0.61440 0.03850 0.07700
H 	H 	0.14010 0.59200 0.04000 0.01800
C 	C 	0.36670 0.85040 0.32150 -0.11600
H 	H 	0.35570 0.83420 0.36920 0.07300
C 	C 	0.24840 0.65430 0.97060 0.09100
H 	H 	0.26650 0.65930 0.92480 -0.00400
C 	C 	0.90600 0.55100 0.68500 -0.26200
H 	H 	0.88460 0.54110 0.64250 0.11100
C 	C 	0.94700 0.54500 0.67800 0.00900
H 	H 	0.95390 0.53180 0.63420 0.04800
C 	C 	0.92100 0.58100 0.81100 0.18100
H 	H 	0.91520 0.59490 0.85450 -0.02800
C 	C 	0.96300 0.57100 0.69000 0.04200
In	In	0.43962 0.93206 0.85208 2.01500
O 	O 	0.83480 0.32400 0.34570 -0.58300
O 	O 	0.44070 0.87320 0.90470 -0.58000
O 	O 	0.39640 0.80290 0.84160 -0.58400
O 	O 	0.55280 0.55030 0.31620 -0.57600
O 	O 	0.90580 0.36940 0.40780 -0.54300
O 	O 	0.47530 0.97110 0.95610 -0.44700
O 	O 	0.51260 0.96360 0.81470 -0.56100
C 	C 	0.74450 0.17210 0.67940 -0.11900
H 	H 	0.72870 0.15690 0.63290 0.06700
C 	C 	0.42860 0.73130 0.17890 0.01800
C 	C 	0.50570 0.60560 0.31790 0.04800
H 	H 	0.51250 0.59480 0.36460 0.03000
C 	C 	0.78930 0.21640 0.67870 0.03800
C 	C 	0.44240 0.80300 0.10440 -0.15400
H 	H 	0.45560 0.82120 0.15000 0.08600
C 	C 	0.80880 0.24230 0.60460 0.05600
C 	C 	0.86110 0.27620 0.59440 -0.12100
H 	H 	0.88300 0.27920 0.63360 0.07300
C 	C 	0.78050 0.23950 0.54730 -0.12800
H 	H 	0.74710 0.21780 0.55270 0.07500
C 	C 	0.87810 0.30380 0.52620 0.07300
H 	H 	0.91140 0.32550 0.52020 0.02200
C 	C 	0.42070 0.82780 0.89910 0.45500
C 	C 	0.86380 0.33290 0.40260 0.44200
C 	C 	0.42370 0.80170 0.97160 -0.16500
C 	C 	0.40790 0.72930 0.03810 -0.16700
H 	H 	0.39700 0.69600 0.03720 0.08400
C 	C 	0.84750 0.29940 0.46980 -0.16300
C 	C 	0.79640 0.26650 0.47810 0.06000
H 	H 	0.77450 0.26330 0.43880 0.01000
C 	C 	0.44230 0.69640 0.17760 -0.08700
H 	H 	0.44740 0.68490 0.13030 0.06100
C 	C 	0.42540 0.75440 0.10670 0.08200
C 	C 	0.44090 0.82650 0.03850 0.07700
H 	H 	0.45190 0.85990 0.04000 0.01800
C 	C 	0.48370 0.63330 0.32150 -0.11500
H 	H 	0.47850 0.64430 0.36920 0.07200
C 	C 	0.40590 0.75160 0.97060 0.09000
H 	H 	0.39280 0.73350 0.92480 -0.00400
C 	C 	0.64500 0.09400 0.68500 -0.26000
H 	H 	0.65650 0.11540 0.64250 0.11000
C 	C 	0.59800 0.05300 0.67800 0.01200
H 	H 	0.57790 0.04610 0.63420 0.04500
C 	C 	0.66000 0.07900 0.81100 0.17700
H 	H 	0.67970 0.08480 0.85450 -0.02800
C 	C 	0.60800 0.03700 0.69000 0.04100
In	In	0.49244 0.56038 0.64792 2.01500
O 	O 	0.48920 0.16520 0.15430 -0.58400
O 	O 	0.43250 0.55930 0.59530 -0.58200
O 	O 	0.40650 0.60360 0.65840 -0.58500
O 	O 	0.99750 0.44720 0.18380 -0.56900
O 	O 	0.46360 0.09420 0.09220 -0.54600
O 	O 	0.49580 0.52470 0.54390 -0.46000
O 	O 	0.45100 0.48740 0.68530 -0.56200
C 	C 	0.42760 0.25550 0.82060 -0.11900
H 	H 	0.42820 0.27130 0.86710 0.06800
C 	C 	0.30270 0.57140 0.32110 0.01900
C 	C 	0.09990 0.49430 0.18210 0.04500
H 	H 	0.08230 0.48750 0.13540 0.03000
C 	C 	0.42710 0.21070 0.82130 0.03900
C 	C 	0.36060 0.55760 0.39560 -0.15700
H 	H 	0.36560 0.54440 0.35000 0.08700
C 	C 	0.43350 0.19120 0.89540 0.05300
C 	C 	0.41510 0.13890 0.90560 -0.12400
H 	H 	0.39620 0.11700 0.86640 0.07400
C 	C 	0.45900 0.21950 0.95270 -0.11600
H 	H 	0.47070 0.25290 0.94730 0.07300
C 	C 	0.42570 0.12190 0.97380 0.08400
H 	H 	0.41410 0.08860 0.97980 0.02000
C 	C 	0.40710 0.57930 0.60090 0.45700
C 	C 	0.46910 0.13620 0.09740 0.44300
C 	C 	0.37800 0.57630 0.52840 -0.17300
C 	C 	0.32140 0.59210 0.46190 -0.15400
H 	H 	0.29900 0.60300 0.46280 0.08200
C 	C 	0.45190 0.15250 0.03020 -0.17100
C 	C 	0.47010 0.20360 0.02190 0.05100
H 	H 	0.48880 0.22550 0.06120 0.01200
C 	C 	0.25410 0.55770 0.32240 -0.08800
H 	H 	0.23750 0.55260 0.36970 0.06200
C 	C 	0.32900 0.57460 0.39330 0.08000
C 	C 	0.38560 0.55910 0.46150 0.08900
H 	H 	0.40800 0.54810 0.46000 0.01600
C 	C 	0.14960 0.51630 0.17850 -0.11300
H 	H 	0.16580 0.52150 0.13080 0.07100
C 	C 	0.34570 0.59410 0.52940 0.08000
H 	H 	0.34070 0.60720 0.57520 -0.00100
C 	C 	0.44900 0.35500 0.81500 -0.26300
H 	H 	0.45890 0.34350 0.85750 0.11200
C 	C 	0.45500 0.40200 0.82200 0.00900
H 	H 	0.46820 0.42210 0.86580 0.04800
C 	C 	0.41900 0.34000 0.68900 0.17600
H 	H 	0.40510 0.32030 0.64550 -0.02800
C 	C 	0.42900 0.39200 0.81000 0.04300
In	In	0.06794 0.50756 0.64792 2.01500
O 	O 	0.67600 0.51080 0.15430 -0.58300
O 	O 	0.12680 0.56750 0.59530 -0.58200
O 	O 	0.19710 0.59350 0.65840 -0.58500
O 	O 	0.44970 0.00250 0.18380 -0.58300
O 	O 	0.63060 0.53640 0.09220 -0.54600
O 	O 	0.02890 0.50420 0.54390 -0.45900
O 	O 	0.03640 0.54900 0.68530 -0.56200
C 	C 	0.82790 0.57240 0.82060 -0.12000
H 	H 	0.84310 0.57180 0.86710 0.06800
C 	C 	0.26870 0.69730 0.32110 0.01900
C 	C 	0.39440 0.90010 0.18210 0.05000
H 	H 	0.40520 0.91770 0.13540 0.03000
C 	C 	0.78360 0.57290 0.82130 0.03900
C 	C 	0.19700 0.63940 0.39560 -0.15700
H 	H 	0.17880 0.63440 0.35000 0.08700
C 	C 	0.75770 0.56650 0.89540 0.05300
C 	C 	0.72380 0.58490 0.90560 -0.12300
H 	H 	0.72080 0.60380 0.86640 0.07400
C 	C 	0.76050 0.54100 0.95270 -0.11600
H 	H 	0.78220 0.52930 0.94730 0.07300
C 	C 	0.69620 0.57430 0.97380 0.08500
H 	H 	0.67450 0.58590 0.97980 0.02100
C 	C 	0.17220 0.59290 0.60090 0.45700
C 	C 	0.66710 0.53090 0.09740 0.44400
C 	C 	0.19830 0.62200 0.52840 -0.17300
C 	C 	0.27070 0.67860 0.46190 -0.15400
H 	H 	0.30400 0.70100 0.46280 0.08200
C 	C 	0.70060 0.54810 0.03020 -0.17100
C 	C 	0.73350 0.52990 0.02190 0.05100
H 	H 	0.73670 0.51120 0.06120 0.01200
C 	C 	0.30360 0.74590 0.32240 -0.08700
H 	H 	0.31510 0.76250 0.36970 0.06200
C 	C 	0.24560 0.67100 0.39330 0.08100
C 	C 	0.17350 0.61440 0.46150 0.09000
H 	H 	0.14010 0.59200 0.46000 0.01600
C 	C 	0.36670 0.85040 0.17850 -0.11600
H 	H 	0.35570 0.83420 0.13080 0.07200
C 	C 	0.24840 0.65430 0.52940 0.08000
H 	H 	0.26650 0.65930 0.57520 -0.00200
C 	C 	0.90600 0.55100 0.81500 -0.26400
H 	H 	0.88460 0.54110 0.85750 0.11200
C 	C 	0.94700 0.54500 0.82200 0.00800
H 	H 	0.95390 0.53180 0.86580 0.05000
C 	C 	0.92100 0.58100 0.68900 0.17800
H 	H 	0.91520 0.59490 0.64550 -0.02800
C 	C 	0.96300 0.57100 0.81000 0.04400
In	In	0.43962 0.93206 0.64792 2.01500
O 	O 	0.83480 0.32400 0.15430 -0.58300
O 	O 	0.44070 0.87320 0.59530 -0.58200
O 	O 	0.39640 0.80290 0.65840 -0.58500
O 	O 	0.55280 0.55030 0.18380 -0.57700
O 	O 	0.90580 0.36940 0.09220 -0.54500
O 	O 	0.47530 0.97110 0.54390 -0.45500
O 	O 	0.51260 0.96360 0.68530 -0.56100
C 	C 	0.74450 0.17210 0.82060 -0.11900
H 	H 	0.72870 0.15690 0.86710 0.06800
C 	C 	0.42860 0.73130 0.32110 0.01900
C 	C 	0.50570 0.60560 0.18210 0.04800
H 	H 	0.51250 0.59480 0.13540 0.03000
C 	C 	0.78930 0.21640 0.82130 0.03900
C 	C 	0.44240 0.80300 0.39560 -0.15700
H 	H 	0.45560 0.82120 0.35000 0.08700
C 	C 	0.80880 0.24230 0.89540 0.05300
C 	C 	0.86110 0.27620 0.90560 -0.12300
H 	H 	0.88300 0.27920 0.86640 0.07400
C 	C 	0.78050 0.23950 0.95270 -0.11700
H 	H 	0.74710 0.21780 0.94730 0.07300
C 	C 	0.87810 0.30380 0.97380 0.08300
H 	H 	0.91140 0.32550 0.97980 0.02100
C 	C 	0.42070 0.82780 0.60090 0.45700
C 	C 	0.86380 0.33290 0.09740 0.44300
C 	C 	0.42370 0.80170 0.52840 -0.17300
C 	C 	0.40790 0.72930 0.46190 -0.15400
H 	H 	0.39700 0.69600 0.46280 0.08200
C 	C 	0.84750 0.29940 0.03020 -0.17000
C 	C 	0.79640 0.26650 0.02190 0.05200
H 	H 	0.77450 0.26330 0.06120 0.01200
C 	C 	0.44230 0.69640 0.32240 -0.08800
H 	H 	0.44740 0.68490 0.36970 0.06200
C 	C 	0.42540 0.75440 0.39330 0.08000
C 	C 	0.44090 0.82650 0.46150 0.08900
H 	H 	0.45190 0.85990 0.46000 0.01600
C 	C 	0.48370 0.63330 0.17850 -0.11500
H 	H 	0.47850 0.64430 0.13080 0.07100
C 	C 	0.40590 0.75160 0.52940 0.08000
H 	H 	0.39280 0.73350 0.57520 -0.00100
C 	C 	0.64500 0.09400 0.81500 -0.26300
H 	H 	0.65650 0.11540 0.85750 0.11100
C 	C 	0.59800 0.05300 0.82200 0.01000
H 	H 	0.57790 0.04610 0.86580 0.04600
C 	C 	0.66000 0.07900 0.68900 0.17500
H 	H 	0.67970 0.08480 0.64550 -0.02800
C 	C 	0.60800 0.03700 0.81000 0.04300
In	In	0.63708 0.46141 0.25000 1.97900
O 	O 	0.58920 0.48470 0.25000 -1.03100
C 	C 	0.27450 0.42720 0.25000 0.06500
C 	C 	0.32530 0.43040 0.25000 -0.02100
C 	C 	0.18840 0.42710 0.25000 -0.09900
H 	H 	0.15890 0.42700 0.25000 0.06700
C 	C 	0.46920 0.44830 0.25000 0.45600
C 	C 	0.41450 0.43690 0.25000 -0.13800
In	In	0.53859 0.17567 0.25000 1.97900
O 	O 	0.51530 0.10450 0.25000 -1.03100
C 	C 	0.57280 0.84730 0.25000 0.06600
C 	C 	0.56960 0.89490 0.25000 -0.02100
C 	C 	0.57290 0.76130 0.25000 -0.09900
H 	H 	0.57300 0.73190 0.25000 0.06800
C 	C 	0.55170 0.02090 0.25000 0.45200
C 	C 	0.56310 0.97760 0.25000 -0.13400
In	In	0.82433 0.36292 0.25000 1.97900
O 	O 	0.89550 0.41080 0.25000 -1.03100
C 	C 	0.15270 0.72550 0.25000 0.06500
C 	C 	0.10510 0.67470 0.25000 -0.02000
C 	C 	0.23870 0.81160 0.25000 -0.09900
H 	H 	0.26810 0.84110 0.25000 0.06800
C 	C 	0.97910 0.53080 0.25000 0.46100
C 	C 	0.02240 0.58550 0.25000 -0.14300
In	In	0.46141 0.63708 0.75000 1.97900
O 	O 	0.48470 0.58920 0.75000 -1.03100
C 	C 	0.42720 0.27450 0.75000 0.06700
C 	C 	0.43040 0.32530 0.75000 -0.02200
C 	C 	0.42710 0.18840 0.75000 -0.10100
H 	H 	0.42700 0.15890 0.75000 0.06800
C 	C 	0.44830 0.46920 0.75000 0.45700
C 	C 	0.43690 0.41450 0.75000 -0.13800
In	In	0.17567 0.53859 0.75000 1.97900
O 	O 	0.10450 0.51530 0.75000 -1.03100
C 	C 	0.84730 0.57280 0.75000 0.06800
C 	C 	0.89490 0.56960 0.75000 -0.02200
C 	C 	0.76130 0.57290 0.75000 -0.10100
H 	H 	0.73190 0.57300 0.75000 0.06900
C 	C 	0.02090 0.55170 0.75000 0.45300
C 	C 	0.97760 0.56310 0.75000 -0.13400
In	In	0.36292 0.82433 0.75000 1.97900
O 	O 	0.41080 0.89550 0.75000 -1.03100
C 	C 	0.72550 0.15270 0.75000 0.06700
C 	C 	0.67470 0.10510 0.75000 -0.02100
C 	C 	0.81160 0.23870 0.75000 -0.10100
H 	H 	0.84110 0.26810 0.75000 0.06900
C 	C 	0.53080 0.97910 0.75000 0.46200
C 	C 	0.58550 0.02240 0.75000 -0.14300
C 	C 	0.57670 0.32500 0.75000 -0.08500
H 	H 	0.58450 0.35760 0.75000 0.06200
C 	C 	0.55140 0.23020 0.75000 0.03100
C 	C 	0.53080 0.17540 0.75000 0.04400
C 	C 	0.48210 0.07530 0.75000 -0.11700
C 	C 	0.45230 0.01730 0.75000 0.41100
C 	C 	0.67500 0.25170 0.75000 -0.08400
H 	H 	0.64240 0.22690 0.75000 0.06200
C 	C 	0.76980 0.32120 0.75000 0.03000
C 	C 	0.82460 0.35540 0.75000 0.04700
C 	C 	0.92470 0.40680 0.75000 -0.12300
C 	C 	0.98270 0.43500 0.75000 0.43400
C 	C 	0.74830 0.42330 0.75000 -0.08500
H 	H 	0.77310 0.41550 0.75000 0.06200
C 	C 	0.67880 0.44860 0.75000 0.03100
C 	C 	0.64460 0.46920 0.75000 0.04600
C 	C 	0.59320 0.51790 0.75000 -0.12000
C 	C 	0.56500 0.54770 0.75000 0.42400
C 	C 	0.32500 0.57670 0.25000 -0.08300
H 	H 	0.35760 0.58450 0.25000 0.06100
C 	C 	0.23020 0.55140 0.25000 0.03000
C 	C 	0.17540 0.53080 0.25000 0.04500
C 	C 	0.07530 0.48210 0.25000 -0.11800
C 	C 	0.01730 0.45230 0.25000 0.41100
C 	C 	0.25170 0.67500 0.25000 -0.08200
H 	H 	0.22690 0.64240 0.25000 0.06100
C 	C 	0.32120 0.76980 0.25000 0.02900
C 	C 	0.35540 0.82460 0.25000 0.04700
C 	C 	0.40680 0.92470 0.25000 -0.12400
C 	C 	0.43500 0.98270 0.25000 0.43500
C 	C 	0.42330 0.74830 0.25000 -0.08300
H 	H 	0.41550 0.77310 0.25000 0.06100
C 	C 	0.44860 0.67880 0.25000 0.02900
C 	C 	0.46920 0.64460 0.25000 0.04600
C 	C 	0.51790 0.59320 0.25000 -0.12100
C 	C 	0.54770 0.56500 0.25000 0.42400
C 	C 	0.53360 0.53360 -0.00000 0.39000
H 	H 	0.56300 0.56300 -0.00000 -0.11300
C 	C 	0.46640 0.00000 -0.00000 0.38300
H 	H 	0.43700 0.00000 -0.00000 -0.11200
C 	C 	-0.00000 0.46640 -0.00000 0.38100
H 	H 	-0.00000 0.43700 -0.00000 -0.11200
C 	C 	0.53360 0.53360 0.50000 0.40100
H 	H 	0.56300 0.56300 0.50000 -0.11400
C 	C 	0.46640 0.00000 0.50000 0.39400
H 	H 	0.43700 0.00000 0.50000 -0.11400
C 	C 	0.00000 0.46640 0.50000 0.39400
H 	H 	-0.00000 0.43700 0.50000 -0.11400
