data_crystal

_cell_length_a 34.84920
_cell_length_b 14.85840
_cell_length_c 31.03510
_cell_angle_alpha 90.00000
_cell_angle_beta  101.85800
_cell_angle_gamma 90.00000

_symmetry_space_group_name_	'P 1'
_symmetry_space_group_name_H-M	'P 1'

loop_
_symmetry_equiv_pos_as_xyz
  x,y,z

loop_
_atom_site_label
_atom_site_type_symbol
_atom_site_fract_x
_atom_site_fract_y
_atom_site_fract_z
_atom_site_charge
C 	C 	0.33790 0.54660 0.74760 0.07800
H 	H 	0.35910 0.52130 0.76820 -0.01900
C 	C 	0.33340 0.63910 0.74710 -0.12800
H 	H 	0.35070 0.67600 0.76740 0.08700
C 	C 	0.30330 0.67670 0.71650 0.05800
C 	C 	0.27900 0.61910 0.68780 -0.12600
H 	H 	0.25800 0.64210 0.66610 0.07700
C 	C 	0.28600 0.52700 0.69150 0.07200
H 	H 	0.26950 0.48770 0.67170 -0.01700
N 	N 	0.31450 0.49200 0.72140 -0.28100
C 	C 	0.29620 0.77560 0.71660 0.10000
N 	N 	0.32103 0.82100 0.74770 -0.13500
C 	C 	0.31180 0.90720 0.75090 0.10200
N 	N 	0.28146 0.94830 0.72630 -0.14600
C 	C 	0.26000 0.89840 0.69440 0.08400
N 	N 	0.26629 0.81040 0.68830 -0.14200
C 	C 	0.39450 0.97310 0.84270 0.07500
H 	H 	0.41930 0.94970 0.85680 -0.00600
C 	C 	0.37130 0.92350 0.80930 -0.12000
H 	H 	0.37940 0.86570 0.80170 0.09300
C 	C 	0.33690 0.95900 0.78780 0.06300
C 	C 	0.32550 0.04250 0.80000 -0.12800
H 	H 	0.30150 0.06870 0.78510 0.07300
C 	C 	0.34930 0.08730 0.83420 0.07100
H 	H 	0.34140 0.14470 0.84260 -0.01500
N 	N 	0.38300 0.05280 0.85580 -0.27100
C 	C 	0.17440 0.94730 0.60270 0.07500
H 	H 	0.15840 0.91640 0.57870 -0.00800
C 	C 	0.20360 0.90010 0.62960 -0.12300
H 	H 	0.20690 0.83780 0.62470 0.08400
C 	C 	0.22780 0.94290 0.66370 0.04500
C 	C 	0.22020 0.03400 0.66970 -0.12100
H 	H 	0.23610 0.06660 0.69310 0.08400
C 	C 	0.18990 0.07620 0.64180 0.06500
H 	H 	0.18490 0.13780 0.64670 -0.00400
N 	N 	0.16719 0.03380 0.60820 -0.28600
C 	C 	0.34610 0.28530 0.64420 0.07100
H 	H 	0.32060 0.25960 0.63950 -0.01900
C 	C 	0.36920 0.26870 0.61370 -0.11600
H 	H 	0.36000 0.23200 0.58860 0.08200
C 	C 	0.40630 0.30750 0.62070 0.06600
C 	C 	0.41890 0.35850 0.65770 -0.12300
H 	H 	0.44420 0.38540 0.66340 0.08500
C 	C 	0.39340 0.36990 0.68670 0.08200
H 	H 	0.40220 0.40420 0.71270 -0.02100
C 	C 	0.43190 0.29450 0.58850 0.10500
C 	C 	0.44810 0.21580 0.53320 0.08200
C 	C 	0.48110 0.34100 0.55810 0.09200
C 	C 	0.53300 0.40800 0.52270 -0.12500
H 	H 	0.52470 0.37120 0.49740 0.07800
C 	C 	0.56370 0.46560 0.52500 0.07500
H 	H 	0.57640 0.46830 0.50080 -0.01200
C 	C 	0.51390 0.40410 0.55780 0.05000
C 	C 	0.52590 0.46330 0.59260 -0.12400
H 	H 	0.51250 0.46640 0.61630 0.08400
C 	C 	0.55800 0.51740 0.59190 0.08000
H 	H 	0.56680 0.55620 0.61630 -0.01900
C 	C 	0.46350 0.03850 0.45200 0.07300
H 	H 	0.48200 0.02430 0.43450 -0.00900
C 	C 	0.46960 0.11500 0.47840 -0.12400
H 	H 	0.49160 0.15270 0.47860 0.07200
C 	C 	0.44310 0.13460 0.50400 0.05500
C 	C 	0.41140 0.07950 0.50250 -0.12600
H 	H 	0.39240 0.09230 0.51970 0.07900
C 	C 	0.40760 0.00460 0.47530 0.07500
H 	H 	0.38580 0.96580 0.47460 -0.01800
N 	N 	0.35800 0.33570 0.67970 -0.28700
N 	N 	0.42420 0.22340 0.56180 -0.13600
N 	N 	0.47610 0.27490 0.52864 -0.15000
N 	N 	0.46034 0.35430 0.58910 -0.13600
N 	N 	0.57700 0.51840 0.55960 -0.28500
N 	N 	0.43280 0.98460 0.45030 -0.27400
Zn	Zn	0.32610 0.35640 0.72940 0.59900
I 	I 	0.37157 0.33100 0.80341 -0.36100
I 	I 	0.26312 0.26750 0.70295 0.00100
Zn	Zn	0.12360 0.10360 0.56750 0.62500
I 	I 	0.10764 0.24463 0.60669 -0.39300
I 	I 	0.14528 0.09880 0.49434 0.03700
Zn	Zn	0.42060 0.87920 0.40544 1.16200
I 	I 	0.48013 0.85576 0.37197 -0.35700
I 	I 	0.37893 0.76850 0.43640 -0.15100
Zn	Zn	0.31960 0.34890 0.71990 0.59600
I 	I 	0.35920 0.31400 0.79660 -0.02500
I 	I 	0.25230 0.28210 0.68920 -0.36700
Zn	Zn	0.12790 0.09790 0.55720 0.60200
I 	I 	0.11681 0.24970 0.59128 0.01800
I 	I 	0.14817 0.07960 0.48365 -0.40200
I 	I 	0.38560 0.75970 0.44293 -0.18800
C 	C 	0.83790 0.04660 0.74760 0.07900
H 	H 	0.85910 0.02130 0.76820 -0.01800
C 	C 	0.83340 0.13910 0.74710 -0.12700
H 	H 	0.85070 0.17600 0.76740 0.08800
C 	C 	0.80330 0.17670 0.71650 0.05900
C 	C 	0.77900 0.11910 0.68780 -0.12400
H 	H 	0.75800 0.14210 0.66610 0.07800
C 	C 	0.78600 0.02700 0.69150 0.07200
H 	H 	0.76950 0.98770 0.67170 -0.01600
N 	N 	0.81450 0.99200 0.72140 -0.28000
C 	C 	0.79620 0.27560 0.71660 0.10100
N 	N 	0.82103 0.32100 0.74770 -0.13400
C 	C 	0.81180 0.40720 0.75090 0.10300
N 	N 	0.78146 0.44830 0.72630 -0.14500
C 	C 	0.76000 0.39840 0.69440 0.08400
N 	N 	0.76629 0.31040 0.68830 -0.14200
C 	C 	0.89450 0.47310 0.84270 0.07400
H 	H 	0.91930 0.44970 0.85680 -0.00600
C 	C 	0.87130 0.42350 0.80930 -0.11900
H 	H 	0.87940 0.36570 0.80170 0.09300
C 	C 	0.83690 0.45900 0.78780 0.06200
C 	C 	0.82550 0.54250 0.80000 -0.12700
H 	H 	0.80150 0.56870 0.78510 0.07300
C 	C 	0.84930 0.58730 0.83420 0.07100
H 	H 	0.84140 0.64470 0.84260 -0.01500
N 	N 	0.88300 0.55280 0.85580 -0.27100
C 	C 	0.67440 0.44730 0.60270 0.07500
H 	H 	0.65840 0.41640 0.57870 -0.00800
C 	C 	0.70360 0.40010 0.62960 -0.12200
H 	H 	0.70690 0.33780 0.62470 0.08400
C 	C 	0.72780 0.44290 0.66370 0.04500
C 	C 	0.72020 0.53400 0.66970 -0.12100
H 	H 	0.73610 0.56660 0.69310 0.08400
C 	C 	0.68990 0.57620 0.64180 0.06500
H 	H 	0.68490 0.63780 0.64670 -0.00400
N 	N 	0.66719 0.53380 0.60820 -0.28600
C 	C 	0.84610 0.78530 0.64420 0.07100
H 	H 	0.82060 0.75960 0.63950 -0.01900
C 	C 	0.86920 0.76870 0.61370 -0.11600
H 	H 	0.86000 0.73200 0.58860 0.08200
C 	C 	0.90630 0.80750 0.62070 0.06600
C 	C 	0.91890 0.85850 0.65770 -0.12300
H 	H 	0.94420 0.88540 0.66340 0.08500
C 	C 	0.89340 0.86990 0.68670 0.08200
H 	H 	0.90220 0.90420 0.71270 -0.02100
C 	C 	0.93190 0.79450 0.58850 0.10500
C 	C 	0.94810 0.71580 0.53320 0.08200
C 	C 	0.98110 0.84100 0.55810 0.09200
C 	C 	0.03300 0.90800 0.52270 -0.12500
H 	H 	0.02470 0.87120 0.49740 0.07800
C 	C 	0.06370 0.96560 0.52500 0.07500
H 	H 	0.07640 0.96830 0.50080 -0.01200
C 	C 	0.01390 0.90410 0.55780 0.05000
C 	C 	0.02590 0.96330 0.59260 -0.12400
H 	H 	0.01250 0.96640 0.61630 0.08400
C 	C 	0.05800 0.01740 0.59190 0.08000
H 	H 	0.06680 0.05620 0.61630 -0.01900
C 	C 	0.96350 0.53850 0.45200 0.07300
H 	H 	0.98200 0.52430 0.43450 -0.00900
C 	C 	0.96960 0.61500 0.47840 -0.12400
H 	H 	0.99160 0.65270 0.47860 0.07200
C 	C 	0.94310 0.63460 0.50400 0.05500
C 	C 	0.91140 0.57950 0.50250 -0.12600
H 	H 	0.89240 0.59230 0.51970 0.07900
C 	C 	0.90760 0.50460 0.47530 0.07500
H 	H 	0.88580 0.46580 0.47460 -0.01800
N 	N 	0.85800 0.83570 0.67970 -0.28700
N 	N 	0.92420 0.72340 0.56180 -0.13600
N 	N 	0.97610 0.77490 0.52864 -0.15000
N 	N 	0.96034 0.85430 0.58910 -0.13600
N 	N 	0.07700 0.01840 0.55960 -0.28500
N 	N 	0.93280 0.48460 0.45030 -0.27400
Zn	Zn	0.82610 0.85640 0.72940 0.59900
I 	I 	0.87157 0.83100 0.80341 -0.36100
I 	I 	0.76312 0.76750 0.70295 0.00100
Zn	Zn	0.62360 0.60360 0.56750 0.62500
I 	I 	0.60764 0.74463 0.60669 -0.39300
I 	I 	0.64528 0.59880 0.49434 0.03700
Zn	Zn	0.92060 0.37920 0.40544 1.16200
I 	I 	0.98013 0.35576 0.37197 -0.35700
I 	I 	0.87893 0.26850 0.43640 -0.15100
Zn	Zn	0.81960 0.84890 0.71990 0.59600
I 	I 	0.85920 0.81400 0.79660 -0.02500
I 	I 	0.75230 0.78210 0.68920 -0.36700
Zn	Zn	0.62790 0.59790 0.55720 0.60200
I 	I 	0.61681 0.74970 0.59128 0.01800
I 	I 	0.64817 0.57960 0.48365 -0.40200
I 	I 	0.88560 0.25970 0.44293 -0.18800
C 	C 	0.33790 0.45340 0.24760 0.07900
H 	H 	0.35910 0.47870 0.26820 -0.01800
C 	C 	0.33340 0.36090 0.24710 -0.12700
H 	H 	0.35070 0.32400 0.26740 0.08800
C 	C 	0.30330 0.32330 0.21650 0.05900
C 	C 	0.27900 0.38090 0.18780 -0.12500
H 	H 	0.25800 0.35790 0.16610 0.07800
C 	C 	0.28600 0.47300 0.19150 0.07300
H 	H 	0.26950 0.51230 0.17170 -0.01600
N 	N 	0.31450 0.50800 0.22140 -0.28000
C 	C 	0.29620 0.22440 0.21660 0.10100
N 	N 	0.32103 0.17900 0.24770 -0.13400
C 	C 	0.31180 0.09280 0.25090 0.10300
N 	N 	0.28146 0.05170 0.22630 -0.14500
C 	C 	0.26000 0.10160 0.19440 0.08400
N 	N 	0.26629 0.18960 0.18830 -0.14200
C 	C 	0.39450 0.02690 0.34270 0.07400
H 	H 	0.41930 0.05030 0.35680 -0.00600
C 	C 	0.37130 0.07650 0.30930 -0.12000
H 	H 	0.37940 0.13430 0.30170 0.09300
C 	C 	0.33690 0.04100 0.28780 0.06200
C 	C 	0.32550 0.95750 0.30000 -0.12800
H 	H 	0.30150 0.93130 0.28510 0.07300
C 	C 	0.34930 0.91270 0.33420 0.07100
H 	H 	0.34140 0.85530 0.34260 -0.01500
N 	N 	0.38300 0.94720 0.35580 -0.27100
C 	C 	0.17440 0.05270 0.10270 0.07500
H 	H 	0.15840 0.08360 0.07870 -0.00800
C 	C 	0.20360 0.09990 0.12960 -0.12300
H 	H 	0.20690 0.16220 0.12470 0.08400
C 	C 	0.22780 0.05710 0.16370 0.04500
C 	C 	0.22020 0.96600 0.16970 -0.12100
H 	H 	0.23610 0.93340 0.19310 0.08400
C 	C 	0.18990 0.92380 0.14180 0.06500
H 	H 	0.18490 0.86220 0.14670 -0.00400
N 	N 	0.16719 0.96620 0.10820 -0.28600
C 	C 	0.34610 0.71470 0.14420 0.07100
H 	H 	0.32060 0.74040 0.13950 -0.01900
C 	C 	0.36920 0.73130 0.11370 -0.11600
H 	H 	0.36000 0.76800 0.08860 0.08200
C 	C 	0.40630 0.69250 0.12070 0.06600
C 	C 	0.41890 0.64150 0.15770 -0.12300
H 	H 	0.44420 0.61460 0.16340 0.08500
C 	C 	0.39340 0.63010 0.18670 0.08200
H 	H 	0.40220 0.59580 0.21270 -0.02100
C 	C 	0.43190 0.70550 0.08850 0.10500
C 	C 	0.44810 0.78420 0.03320 0.08200
C 	C 	0.48110 0.65900 0.05810 0.09200
C 	C 	0.53300 0.59200 0.02270 -0.12500
H 	H 	0.52470 0.62880 0.99740 0.07800
C 	C 	0.56370 0.53440 0.02500 0.07600
H 	H 	0.57640 0.53170 0.00080 -0.01200
C 	C 	0.51390 0.59590 0.05780 0.05100
C 	C 	0.52590 0.53670 0.09260 -0.12400
H 	H 	0.51250 0.53360 0.11630 0.08400
C 	C 	0.55800 0.48260 0.09190 0.08000
H 	H 	0.56680 0.44380 0.11630 -0.01900
C 	C 	0.46350 0.96150 0.95200 0.07300
H 	H 	0.48200 0.97570 0.93450 -0.00900
C 	C 	0.46960 0.88500 0.97840 -0.12400
H 	H 	0.49160 0.84730 0.97860 0.07200
C 	C 	0.44310 0.86540 0.00400 0.05500
C 	C 	0.41140 0.92050 0.00250 -0.12700
H 	H 	0.39240 0.90770 0.01970 0.08000
C 	C 	0.40760 0.99540 0.97530 0.07600
H 	H 	0.38580 0.03420 0.97460 -0.01900
N 	N 	0.35800 0.66430 0.17970 -0.28700
N 	N 	0.42420 0.77660 0.06180 -0.13600
N 	N 	0.47610 0.72510 0.02864 -0.15000
N 	N 	0.46034 0.64570 0.08910 -0.13600
N 	N 	0.57700 0.48160 0.05960 -0.28500
N 	N 	0.43280 0.01540 0.95030 -0.27400
Zn	Zn	0.32610 0.64360 0.22940 0.59900
I 	I 	0.37157 0.66900 0.30341 -0.36100
I 	I 	0.26312 0.73250 0.20295 0.00100
Zn	Zn	0.12360 0.89640 0.06750 0.62500
I 	I 	0.10764 0.75537 0.10669 -0.39300
I 	I 	0.14528 0.90120 0.99434 0.03700
Zn	Zn	0.42060 0.12080 0.90544 1.16200
I 	I 	0.48013 0.14424 0.87197 -0.35800
I 	I 	0.37893 0.23150 0.93640 -0.15100
Zn	Zn	0.31960 0.65110 0.21990 0.59600
I 	I 	0.35920 0.68600 0.29660 -0.02500
I 	I 	0.25230 0.71790 0.18920 -0.36700
Zn	Zn	0.12790 0.90210 0.05720 0.60100
I 	I 	0.11681 0.75030 0.09128 0.01800
I 	I 	0.14817 0.92040 0.98365 -0.40200
I 	I 	0.38560 0.24030 0.94293 -0.18800
C 	C 	0.83790 0.95340 0.24760 0.07900
H 	H 	0.85910 0.97870 0.26820 -0.01800
C 	C 	0.83340 0.86090 0.24710 -0.12700
H 	H 	0.85070 0.82400 0.26740 0.08800
C 	C 	0.80330 0.82330 0.21650 0.05900
C 	C 	0.77900 0.88090 0.18780 -0.12400
H 	H 	0.75800 0.85790 0.16610 0.07800
C 	C 	0.78600 0.97300 0.19150 0.07200
H 	H 	0.76950 0.01230 0.17170 -0.01600
N 	N 	0.81450 0.00800 0.22140 -0.28000
C 	C 	0.79620 0.72440 0.21660 0.10100
N 	N 	0.82103 0.67900 0.24770 -0.13400
C 	C 	0.81180 0.59280 0.25090 0.10300
N 	N 	0.78146 0.55170 0.22630 -0.14500
C 	C 	0.76000 0.60160 0.19440 0.08400
N 	N 	0.76629 0.68960 0.18830 -0.14200
C 	C 	0.89450 0.52690 0.34270 0.07400
H 	H 	0.91930 0.55030 0.35680 -0.00600
C 	C 	0.87130 0.57650 0.30930 -0.11900
H 	H 	0.87940 0.63430 0.30170 0.09300
C 	C 	0.83690 0.54100 0.28780 0.06200
C 	C 	0.82550 0.45750 0.30000 -0.12700
H 	H 	0.80150 0.43130 0.28510 0.07300
C 	C 	0.84930 0.41270 0.33420 0.07100
H 	H 	0.84140 0.35530 0.34260 -0.01500
N 	N 	0.88300 0.44720 0.35580 -0.27100
C 	C 	0.67440 0.55270 0.10270 0.07500
H 	H 	0.65840 0.58360 0.07870 -0.00800
C 	C 	0.70360 0.59990 0.12960 -0.12200
H 	H 	0.70690 0.66220 0.12470 0.08400
C 	C 	0.72780 0.55710 0.16370 0.04500
C 	C 	0.72020 0.46600 0.16970 -0.12100
H 	H 	0.73610 0.43340 0.19310 0.08400
C 	C 	0.68990 0.42380 0.14180 0.06500
H 	H 	0.68490 0.36220 0.14670 -0.00400
N 	N 	0.66719 0.46620 0.10820 -0.28600
C 	C 	0.84610 0.21470 0.14420 0.07100
H 	H 	0.82060 0.24040 0.13950 -0.01900
C 	C 	0.86920 0.23130 0.11370 -0.11600
H 	H 	0.86000 0.26800 0.08860 0.08200
C 	C 	0.90630 0.19250 0.12070 0.06600
C 	C 	0.91890 0.14150 0.15770 -0.12300
H 	H 	0.94420 0.11460 0.16340 0.08500
C 	C 	0.89340 0.13010 0.18670 0.08200
H 	H 	0.90220 0.09580 0.21270 -0.02100
C 	C 	0.93190 0.20550 0.08850 0.10500
C 	C 	0.94810 0.28420 0.03320 0.08200
C 	C 	0.98110 0.15900 0.05810 0.09200
C 	C 	0.03300 0.09200 0.02270 -0.12400
H 	H 	0.02470 0.12880 0.99740 0.07700
C 	C 	0.06370 0.03440 0.02500 0.07500
H 	H 	0.07640 0.03170 0.00080 -0.01200
C 	C 	0.01390 0.09590 0.05780 0.05000
C 	C 	0.02590 0.03670 0.09260 -0.12300
H 	H 	0.01250 0.03360 0.11630 0.08400
C 	C 	0.05800 0.98260 0.09190 0.07900
H 	H 	0.06680 0.94380 0.11630 -0.01900
C 	C 	0.96350 0.46150 0.95200 0.07300
H 	H 	0.98200 0.47570 0.93450 -0.00900
C 	C 	0.96960 0.38500 0.97840 -0.12400
H 	H 	0.99160 0.34730 0.97860 0.07200
C 	C 	0.94310 0.36540 0.00400 0.05500
C 	C 	0.91140 0.42050 0.00250 -0.12600
H 	H 	0.89240 0.40770 0.01970 0.07900
C 	C 	0.90760 0.49540 0.97530 0.07500
H 	H 	0.88580 0.53420 0.97460 -0.01800
N 	N 	0.85800 0.16430 0.17970 -0.28700
N 	N 	0.92420 0.27660 0.06180 -0.13600
N 	N 	0.97610 0.22510 0.02864 -0.15000
N 	N 	0.96034 0.14570 0.08910 -0.13600
N 	N 	0.07700 0.98160 0.05960 -0.28500
N 	N 	0.93280 0.51540 0.95030 -0.27400
Zn	Zn	0.82610 0.14360 0.22940 0.59900
I 	I 	0.87157 0.16900 0.30341 -0.36100
I 	I 	0.76312 0.23250 0.20295 0.00100
Zn	Zn	0.62360 0.39640 0.06750 0.62500
I 	I 	0.60764 0.25537 0.10669 -0.39300
I 	I 	0.64528 0.40120 0.99434 0.03700
Zn	Zn	0.92060 0.62080 0.90544 1.16200
I 	I 	0.98013 0.64424 0.87197 -0.35800
I 	I 	0.87893 0.73150 0.93640 -0.15100
Zn	Zn	0.81960 0.15110 0.21990 0.59600
I 	I 	0.85920 0.18600 0.29660 -0.02500
I 	I 	0.75230 0.21790 0.18920 -0.36700
Zn	Zn	0.62790 0.40210 0.05720 0.60200
I 	I 	0.61681 0.25030 0.09128 0.01800
I 	I 	0.64817 0.42040 0.98365 -0.40200
I 	I 	0.88560 0.74030 0.94293 -0.18800
C 	C 	0.66210 0.54660 0.75240 0.07900
H 	H 	0.64090 0.52130 0.73180 -0.01800
C 	C 	0.66660 0.63910 0.75290 -0.12700
H 	H 	0.64930 0.67600 0.73260 0.08800
C 	C 	0.69670 0.67670 0.78350 0.05900
C 	C 	0.72100 0.61910 0.81220 -0.12500
H 	H 	0.74200 0.64210 0.83390 0.07800
C 	C 	0.71400 0.52700 0.80850 0.07300
H 	H 	0.73050 0.48770 0.82830 -0.01600
N 	N 	0.68550 0.49200 0.77860 -0.28000
C 	C 	0.70380 0.77560 0.78340 0.10100
N 	N 	0.67897 0.82100 0.75230 -0.13400
C 	C 	0.68820 0.90720 0.74910 0.10300
N 	N 	0.71854 0.94830 0.77370 -0.14500
C 	C 	0.74000 0.89840 0.80560 0.08400
N 	N 	0.73371 0.81040 0.81170 -0.14200
C 	C 	0.60550 0.97310 0.65730 0.07400
H 	H 	0.58070 0.94970 0.64320 -0.00600
C 	C 	0.62870 0.92350 0.69070 -0.12000
H 	H 	0.62060 0.86570 0.69830 0.09300
C 	C 	0.66310 0.95900 0.71220 0.06200
C 	C 	0.67450 0.04250 0.70000 -0.12800
H 	H 	0.69850 0.06870 0.71490 0.07300
C 	C 	0.65070 0.08730 0.66580 0.07100
H 	H 	0.65860 0.14470 0.65740 -0.01500
N 	N 	0.61700 0.05280 0.64420 -0.27100
C 	C 	0.82560 0.94730 0.89730 0.07500
H 	H 	0.84160 0.91640 0.92130 -0.00800
C 	C 	0.79640 0.90010 0.87040 -0.12300
H 	H 	0.79310 0.83780 0.87530 0.08400
C 	C 	0.77220 0.94290 0.83630 0.04500
C 	C 	0.77980 0.03400 0.83030 -0.12100
H 	H 	0.76390 0.06660 0.80690 0.08400
C 	C 	0.81010 0.07620 0.85820 0.06500
H 	H 	0.81510 0.13780 0.85330 -0.00400
N 	N 	0.83281 0.03380 0.89180 -0.28600
C 	C 	0.65390 0.28530 0.85580 0.07100
H 	H 	0.67940 0.25960 0.86050 -0.01900
C 	C 	0.63080 0.26870 0.88630 -0.11600
H 	H 	0.64000 0.23200 0.91140 0.08200
C 	C 	0.59370 0.30750 0.87930 0.06600
C 	C 	0.58110 0.35850 0.84230 -0.12300
H 	H 	0.55580 0.38540 0.83660 0.08500
C 	C 	0.60660 0.36990 0.81330 0.08200
H 	H 	0.59780 0.40420 0.78730 -0.02100
C 	C 	0.56810 0.29450 0.91150 0.10500
C 	C 	0.55190 0.21580 0.96680 0.08200
C 	C 	0.51890 0.34100 0.94190 0.09200
C 	C 	0.46700 0.40800 0.97730 -0.12500
H 	H 	0.47530 0.37120 0.00260 0.07800
C 	C 	0.43630 0.46560 0.97500 0.07600
H 	H 	0.42360 0.46830 0.99920 -0.01200
C 	C 	0.48610 0.40410 0.94220 0.05100
C 	C 	0.47410 0.46330 0.90740 -0.12400
H 	H 	0.48750 0.46640 0.88370 0.08400
C 	C 	0.44200 0.51740 0.90810 0.08000
H 	H 	0.43320 0.55620 0.88370 -0.01900
C 	C 	0.53650 0.03850 0.04800 0.07300
H 	H 	0.51800 0.02430 0.06550 -0.00900
C 	C 	0.53040 0.11500 0.02160 -0.12400
H 	H 	0.50840 0.15270 0.02140 0.07200
C 	C 	0.55690 0.13460 0.99600 0.05500
C 	C 	0.58860 0.07950 0.99750 -0.12700
H 	H 	0.60760 0.09230 0.98030 0.08000
C 	C 	0.59240 0.00460 0.02470 0.07600
H 	H 	0.61420 0.96580 0.02540 -0.01900
N 	N 	0.64200 0.33570 0.82030 -0.28700
N 	N 	0.57580 0.22340 0.93820 -0.13600
N 	N 	0.52390 0.27490 0.97136 -0.15000
N 	N 	0.53966 0.35430 0.91090 -0.13600
N 	N 	0.42300 0.51840 0.94040 -0.28500
N 	N 	0.56720 0.98460 0.04970 -0.27400
Zn	Zn	0.67390 0.35640 0.77060 0.59900
I 	I 	0.62843 0.33100 0.69659 -0.36100
I 	I 	0.73688 0.26750 0.79705 0.00100
Zn	Zn	0.87640 0.10360 0.93250 0.62500
I 	I 	0.89236 0.24463 0.89331 -0.39300
I 	I 	0.85472 0.09880 0.00566 0.03700
Zn	Zn	0.57940 0.87920 0.09456 1.16200
I 	I 	0.51987 0.85576 0.12803 -0.35800
I 	I 	0.62107 0.76850 0.06360 -0.15100
Zn	Zn	0.68040 0.34890 0.78010 0.59600
I 	I 	0.64080 0.31400 0.70340 -0.02500
I 	I 	0.74770 0.28210 0.81080 -0.36700
Zn	Zn	0.87210 0.09790 0.94280 0.60100
I 	I 	0.88319 0.24970 0.90872 0.01800
I 	I 	0.85183 0.07960 0.01635 -0.40200
I 	I 	0.61440 0.75970 0.05707 -0.18800
C 	C 	0.16210 0.04660 0.75240 0.07900
H 	H 	0.14090 0.02130 0.73180 -0.01800
C 	C 	0.16660 0.13910 0.75290 -0.12700
H 	H 	0.14930 0.17600 0.73260 0.08800
C 	C 	0.19670 0.17670 0.78350 0.05900
C 	C 	0.22100 0.11910 0.81220 -0.12400
H 	H 	0.24200 0.14210 0.83390 0.07800
C 	C 	0.21400 0.02700 0.80850 0.07200
H 	H 	0.23050 0.98770 0.82830 -0.01600
N 	N 	0.18550 0.99200 0.77860 -0.28000
C 	C 	0.20380 0.27560 0.78340 0.10100
N 	N 	0.17897 0.32100 0.75230 -0.13400
C 	C 	0.18820 0.40720 0.74910 0.10300
N 	N 	0.21854 0.44830 0.77370 -0.14500
C 	C 	0.24000 0.39840 0.80560 0.08400
N 	N 	0.23371 0.31040 0.81170 -0.14200
C 	C 	0.10550 0.47310 0.65730 0.07400
H 	H 	0.08070 0.44970 0.64320 -0.00600
C 	C 	0.12870 0.42350 0.69070 -0.11900
H 	H 	0.12060 0.36570 0.69830 0.09300
C 	C 	0.16310 0.45900 0.71220 0.06200
C 	C 	0.17450 0.54250 0.70000 -0.12700
H 	H 	0.19850 0.56870 0.71490 0.07300
C 	C 	0.15070 0.58730 0.66580 0.07100
H 	H 	0.15860 0.64470 0.65740 -0.01500
N 	N 	0.11700 0.55280 0.64420 -0.27100
C 	C 	0.32560 0.44730 0.89730 0.07500
H 	H 	0.34160 0.41640 0.92130 -0.00800
C 	C 	0.29640 0.40010 0.87040 -0.12200
H 	H 	0.29310 0.33780 0.87530 0.08400
C 	C 	0.27220 0.44290 0.83630 0.04500
C 	C 	0.27980 0.53400 0.83030 -0.12100
H 	H 	0.26390 0.56660 0.80690 0.08400
C 	C 	0.31010 0.57620 0.85820 0.06500
H 	H 	0.31510 0.63780 0.85330 -0.00400
N 	N 	0.33281 0.53380 0.89180 -0.28600
C 	C 	0.15390 0.78530 0.85580 0.07100
H 	H 	0.17940 0.75960 0.86050 -0.01900
C 	C 	0.13080 0.76870 0.88630 -0.11600
H 	H 	0.14000 0.73200 0.91140 0.08200
C 	C 	0.09370 0.80750 0.87930 0.06600
C 	C 	0.08110 0.85850 0.84230 -0.12300
H 	H 	0.05580 0.88540 0.83660 0.08500
C 	C 	0.10660 0.86990 0.81330 0.08200
H 	H 	0.09780 0.90420 0.78730 -0.02100
C 	C 	0.06810 0.79450 0.91150 0.10500
C 	C 	0.05190 0.71580 0.96680 0.08200
C 	C 	0.01890 0.84100 0.94190 0.09200
C 	C 	0.96700 0.90800 0.97730 -0.12400
H 	H 	0.97530 0.87120 0.00260 0.07700
C 	C 	0.93630 0.96560 0.97500 0.07500
H 	H 	0.92360 0.96830 0.99920 -0.01200
C 	C 	0.98610 0.90410 0.94220 0.05000
C 	C 	0.97410 0.96330 0.90740 -0.12300
H 	H 	0.98750 0.96640 0.88370 0.08400
C 	C 	0.94200 0.01740 0.90810 0.07900
H 	H 	0.93320 0.05620 0.88370 -0.01900
C 	C 	0.03650 0.53850 0.04800 0.07300
H 	H 	0.01800 0.52430 0.06550 -0.00900
C 	C 	0.03040 0.61500 0.02160 -0.12400
H 	H 	0.00840 0.65270 0.02140 0.07200
C 	C 	0.05690 0.63460 0.99600 0.05500
C 	C 	0.08860 0.57950 0.99750 -0.12600
H 	H 	0.10760 0.59230 0.98030 0.07900
C 	C 	0.09240 0.50460 0.02470 0.07500
H 	H 	0.11420 0.46580 0.02540 -0.01800
N 	N 	0.14200 0.83570 0.82030 -0.28700
N 	N 	0.07580 0.72340 0.93820 -0.13600
N 	N 	0.02390 0.77490 0.97136 -0.15000
N 	N 	0.03966 0.85430 0.91090 -0.13600
N 	N 	0.92300 0.01840 0.94040 -0.28500
N 	N 	0.06720 0.48460 0.04970 -0.27400
Zn	Zn	0.17390 0.85640 0.77060 0.59900
I 	I 	0.12843 0.83100 0.69659 -0.36100
I 	I 	0.23688 0.76750 0.79705 0.00100
Zn	Zn	0.37640 0.60360 0.93250 0.62500
I 	I 	0.39236 0.74463 0.89331 -0.39300
I 	I 	0.35472 0.59880 0.00566 0.03700
Zn	Zn	0.07940 0.37920 0.09456 1.16200
I 	I 	0.01987 0.35576 0.12803 -0.35800
I 	I 	0.12107 0.26850 0.06360 -0.15100
Zn	Zn	0.18040 0.84890 0.78010 0.59600
I 	I 	0.14080 0.81400 0.70340 -0.02500
I 	I 	0.24770 0.78210 0.81080 -0.36700
Zn	Zn	0.37210 0.59790 0.94280 0.60200
I 	I 	0.38319 0.74970 0.90872 0.01800
I 	I 	0.35183 0.57960 0.01635 -0.40200
I 	I 	0.11440 0.25970 0.05707 -0.18800
C 	C 	0.66210 0.45340 0.25240 0.07900
H 	H 	0.64090 0.47870 0.23180 -0.01800
C 	C 	0.66660 0.36090 0.25290 -0.12700
H 	H 	0.64930 0.32400 0.23260 0.08800
C 	C 	0.69670 0.32330 0.28350 0.05900
C 	C 	0.72100 0.38090 0.31220 -0.12500
H 	H 	0.74200 0.35790 0.33390 0.07800
C 	C 	0.71400 0.47300 0.30850 0.07300
H 	H 	0.73050 0.51230 0.32830 -0.01600
N 	N 	0.68550 0.50800 0.27860 -0.28000
C 	C 	0.70380 0.22440 0.28340 0.10100
N 	N 	0.67897 0.17900 0.25230 -0.13400
C 	C 	0.68820 0.09280 0.24910 0.10300
N 	N 	0.71854 0.05170 0.27370 -0.14500
C 	C 	0.74000 0.10160 0.30560 0.08400
N 	N 	0.73371 0.18960 0.31170 -0.14200
C 	C 	0.60550 0.02690 0.15730 0.07500
H 	H 	0.58070 0.05030 0.14320 -0.00600
C 	C 	0.62870 0.07650 0.19070 -0.12000
H 	H 	0.62060 0.13430 0.19830 0.09300
C 	C 	0.66310 0.04100 0.21220 0.06300
C 	C 	0.67450 0.95750 0.20000 -0.12800
H 	H 	0.69850 0.93130 0.21490 0.07300
C 	C 	0.65070 0.91270 0.16580 0.07100
H 	H 	0.65860 0.85530 0.15740 -0.01500
N 	N 	0.61700 0.94720 0.14420 -0.27100
C 	C 	0.82560 0.05270 0.39730 0.07500
H 	H 	0.84160 0.08360 0.42130 -0.00800
C 	C 	0.79640 0.09990 0.37040 -0.12300
H 	H 	0.79310 0.16220 0.37530 0.08400
C 	C 	0.77220 0.05710 0.33630 0.04500
C 	C 	0.77980 0.96600 0.33030 -0.12100
H 	H 	0.76390 0.93340 0.30690 0.08400
C 	C 	0.81010 0.92380 0.35820 0.06500
H 	H 	0.81510 0.86220 0.35330 -0.00400
N 	N 	0.83281 0.96620 0.39180 -0.28600
C 	C 	0.65390 0.71470 0.35580 0.07100
H 	H 	0.67940 0.74040 0.36050 -0.01900
C 	C 	0.63080 0.73130 0.38630 -0.11600
H 	H 	0.64000 0.76800 0.41140 0.08200
C 	C 	0.59370 0.69250 0.37930 0.06600
C 	C 	0.58110 0.64150 0.34230 -0.12300
H 	H 	0.55580 0.61460 0.33660 0.08500
C 	C 	0.60660 0.63010 0.31330 0.08200
H 	H 	0.59780 0.59580 0.28730 -0.02100
C 	C 	0.56810 0.70550 0.41150 0.10500
C 	C 	0.55190 0.78420 0.46680 0.08200
C 	C 	0.51890 0.65900 0.44190 0.09200
C 	C 	0.46700 0.59200 0.47730 -0.12500
H 	H 	0.47530 0.62880 0.50260 0.07800
C 	C 	0.43630 0.53440 0.47500 0.07500
H 	H 	0.42360 0.53170 0.49920 -0.01200
C 	C 	0.48610 0.59590 0.44220 0.05000
C 	C 	0.47410 0.53670 0.40740 -0.12400
H 	H 	0.48750 0.53360 0.38370 0.08400
C 	C 	0.44200 0.48260 0.40810 0.08000
H 	H 	0.43320 0.44380 0.38370 -0.01900
C 	C 	0.53650 0.96150 0.54800 0.07300
H 	H 	0.51800 0.97570 0.56550 -0.00900
C 	C 	0.53040 0.88500 0.52160 -0.12400
H 	H 	0.50840 0.84730 0.52140 0.07200
C 	C 	0.55690 0.86540 0.49600 0.05500
C 	C 	0.58860 0.92050 0.49750 -0.12600
H 	H 	0.60760 0.90770 0.48030 0.07900
C 	C 	0.59240 0.99540 0.52470 0.07500
H 	H 	0.61420 0.03420 0.52540 -0.01800
N 	N 	0.64200 0.66430 0.32030 -0.28700
N 	N 	0.57580 0.77660 0.43820 -0.13600
N 	N 	0.52390 0.72510 0.47136 -0.15000
N 	N 	0.53966 0.64570 0.41090 -0.13600
N 	N 	0.42300 0.48160 0.44040 -0.28500
N 	N 	0.56720 0.01540 0.54970 -0.27400
Zn	Zn	0.67390 0.64360 0.27060 0.59900
I 	I 	0.62843 0.66900 0.19659 -0.36100
I 	I 	0.73688 0.73250 0.29705 0.00100
Zn	Zn	0.87640 0.89640 0.43250 0.62500
I 	I 	0.89236 0.75537 0.39331 -0.39300
I 	I 	0.85472 0.90120 0.50566 0.03700
Zn	Zn	0.57940 0.12080 0.59456 1.16200
I 	I 	0.51987 0.14424 0.62803 -0.35700
I 	I 	0.62107 0.23150 0.56360 -0.15100
Zn	Zn	0.68040 0.65110 0.28010 0.59600
I 	I 	0.64080 0.68600 0.20340 -0.02500
I 	I 	0.74770 0.71790 0.31080 -0.36700
Zn	Zn	0.87210 0.90210 0.44280 0.60200
I 	I 	0.88319 0.75030 0.40872 0.01800
I 	I 	0.85183 0.92040 0.51635 -0.40200
I 	I 	0.61440 0.24030 0.55707 -0.18800
C 	C 	0.16210 0.95340 0.25240 0.07900
H 	H 	0.14090 0.97870 0.23180 -0.01800
C 	C 	0.16660 0.86090 0.25290 -0.12700
H 	H 	0.14930 0.82400 0.23260 0.08800
C 	C 	0.19670 0.82330 0.28350 0.05900
C 	C 	0.22100 0.88090 0.31220 -0.12400
H 	H 	0.24200 0.85790 0.33390 0.07800
C 	C 	0.21400 0.97300 0.30850 0.07200
H 	H 	0.23050 0.01230 0.32830 -0.01600
N 	N 	0.18550 0.00800 0.27860 -0.28000
C 	C 	0.20380 0.72440 0.28340 0.10100
N 	N 	0.17897 0.67900 0.25230 -0.13400
C 	C 	0.18820 0.59280 0.24910 0.10300
N 	N 	0.21854 0.55170 0.27370 -0.14500
C 	C 	0.24000 0.60160 0.30560 0.08400
N 	N 	0.23371 0.68960 0.31170 -0.14200
C 	C 	0.10550 0.52690 0.15730 0.07400
H 	H 	0.08070 0.55030 0.14320 -0.00600
C 	C 	0.12870 0.57650 0.19070 -0.11900
H 	H 	0.12060 0.63430 0.19830 0.09300
C 	C 	0.16310 0.54100 0.21220 0.06200
C 	C 	0.17450 0.45750 0.20000 -0.12700
H 	H 	0.19850 0.43130 0.21490 0.07300
C 	C 	0.15070 0.41270 0.16580 0.07100
H 	H 	0.15860 0.35530 0.15740 -0.01500
N 	N 	0.11700 0.44720 0.14420 -0.27100
C 	C 	0.32560 0.55270 0.39730 0.07500
H 	H 	0.34160 0.58360 0.42130 -0.00800
C 	C 	0.29640 0.59990 0.37040 -0.12200
H 	H 	0.29310 0.66220 0.37530 0.08400
C 	C 	0.27220 0.55710 0.33630 0.04500
C 	C 	0.27980 0.46600 0.33030 -0.12100
H 	H 	0.26390 0.43340 0.30690 0.08400
C 	C 	0.31010 0.42380 0.35820 0.06500
H 	H 	0.31510 0.36220 0.35330 -0.00400
N 	N 	0.33281 0.46620 0.39180 -0.28600
C 	C 	0.15390 0.21470 0.35580 0.07100
H 	H 	0.17940 0.24040 0.36050 -0.01900
C 	C 	0.13080 0.23130 0.38630 -0.11600
H 	H 	0.14000 0.26800 0.41140 0.08200
C 	C 	0.09370 0.19250 0.37930 0.06600
C 	C 	0.08110 0.14150 0.34230 -0.12300
H 	H 	0.05580 0.11460 0.33660 0.08500
C 	C 	0.10660 0.13010 0.31330 0.08200
H 	H 	0.09780 0.09580 0.28730 -0.02100
C 	C 	0.06810 0.20550 0.41150 0.10500
C 	C 	0.05190 0.28420 0.46680 0.08200
C 	C 	0.01890 0.15900 0.44190 0.09200
C 	C 	0.96700 0.09200 0.47730 -0.12500
H 	H 	0.97530 0.12880 0.50260 0.07800
C 	C 	0.93630 0.03440 0.47500 0.07500
H 	H 	0.92360 0.03170 0.49920 -0.01200
C 	C 	0.98610 0.09590 0.44220 0.05000
C 	C 	0.97410 0.03670 0.40740 -0.12400
H 	H 	0.98750 0.03360 0.38370 0.08400
C 	C 	0.94200 0.98260 0.40810 0.08000
H 	H 	0.93320 0.94380 0.38370 -0.01900
C 	C 	0.03650 0.46150 0.54800 0.07300
H 	H 	0.01800 0.47570 0.56550 -0.00900
C 	C 	0.03040 0.38500 0.52160 -0.12400
H 	H 	0.00840 0.34730 0.52140 0.07200
C 	C 	0.05690 0.36540 0.49600 0.05500
C 	C 	0.08860 0.42050 0.49750 -0.12600
H 	H 	0.10760 0.40770 0.48030 0.07900
C 	C 	0.09240 0.49540 0.52470 0.07500
H 	H 	0.11420 0.53420 0.52540 -0.01800
N 	N 	0.14200 0.16430 0.32030 -0.28700
N 	N 	0.07580 0.27660 0.43820 -0.13600
N 	N 	0.02390 0.22510 0.47136 -0.15000
N 	N 	0.03966 0.14570 0.41090 -0.13600
N 	N 	0.92300 0.98160 0.44040 -0.28500
N 	N 	0.06720 0.51540 0.54970 -0.27400
Zn	Zn	0.17390 0.14360 0.27060 0.59900
I 	I 	0.12843 0.16900 0.19659 -0.36100
I 	I 	0.23688 0.23250 0.29705 0.00100
Zn	Zn	0.37640 0.39640 0.43250 0.62500
I 	I 	0.39236 0.25537 0.39331 -0.39300
I 	I 	0.35472 0.40120 0.50566 0.03700
Zn	Zn	0.07940 0.62080 0.59456 1.16200
I 	I 	0.01987 0.64424 0.62803 -0.35700
I 	I 	0.12107 0.73150 0.56360 -0.15100
Zn	Zn	0.18040 0.15110 0.28010 0.59600
I 	I 	0.14080 0.18600 0.20340 -0.02500
I 	I 	0.24770 0.21790 0.31080 -0.36700
Zn	Zn	0.37210 0.40210 0.44280 0.60200
I 	I 	0.38319 0.25030 0.40872 0.01800
I 	I 	0.35183 0.42040 0.51635 -0.40200
I 	I 	0.11440 0.74030 0.55707 -0.18800
