data_crystal

_cell_length_a 15.92300
_cell_length_b 26.37000
_cell_length_c 20.62700
_cell_angle_alpha 90.00000
_cell_angle_beta  91.00500
_cell_angle_gamma 90.00000

_symmetry_space_group_name_	'P 1'
_symmetry_space_group_name_H-M	'P 1'

loop_
_symmetry_equiv_pos_as_xyz
  x,y,z

loop_
_atom_site_label
_atom_site_type_symbol
_atom_site_fract_x
_atom_site_fract_y
_atom_site_fract_z
_atom_site_charge
S 	S 	0.23739 0.01639 0.69862 0.00800
C 	C 	0.14790 0.04150 0.65660 -0.05500
C 	C 	0.08050 0.01100 0.63560 0.13400
C 	C 	0.01330 0.03270 0.60190 -0.05000
C 	C 	0.01610 0.08400 0.58380 0.05100
H 	H 	0.97050 0.09810 0.55960 0.00800
C 	C 	0.08550 0.11510 0.60070 -0.20400
C 	C 	0.14940 0.09250 0.63930 0.04600
H 	H 	0.19510 0.11290 0.65390 -0.00300
O 	O 	0.08140 0.95906 0.64670 -0.19300
C 	C 	0.13130 0.93400 0.59730 -0.01900
H 	H 	0.19100 0.94420 0.60200 0.03700
H 	H 	0.11100 0.94410 0.55350 0.03700
C 	C 	0.12350 0.87750 0.60510 0.00700
C 	C 	0.17490 0.84780 0.56760 -0.01900
H 	H 	0.21430 0.86450 0.54090 0.01500
N 	N 	0.17260 0.79640 0.56650 -0.21800
C 	C 	0.11940 0.77400 0.60600 0.02700
H 	H 	0.11760 0.73800 0.60640 -0.00500
C 	C 	0.06710 0.79970 0.64620 -0.08900
H 	H 	0.03030 0.78180 0.67390 0.03100
C 	C 	0.06880 0.85280 0.64590 -0.06100
H 	H 	0.03290 0.87160 0.67330 0.05700
C 	C 	0.09200 0.17020 0.57830 0.57500
C 	C 	0.17410 0.17690 0.54140 -0.82500
H 	H 	0.22120 0.16450 0.56820 0.24600
H 	H 	0.18250 0.21290 0.53160 0.23400
H 	H 	0.17100 0.15750 0.50090 0.24200
C 	C 	0.09540 0.20570 0.63790 -0.83500
H 	H 	0.04740 0.19870 0.66560 0.26400
H 	H 	0.09350 0.24100 0.62340 0.24500
H 	H 	0.14770 0.19970 0.66250 0.24900
C 	C 	0.01770 0.18630 0.53520 -0.87600
H 	H 	0.01530 0.16490 0.49640 0.27400
H 	H 	0.02470 0.22180 0.52230 0.26600
H 	H 	0.96550 0.18260 0.55910 0.27900
S 	S 	0.92828 0.99489 0.56965 0.01200
C 	C 	0.87780 0.96960 0.63900 -0.06600
C 	C 	0.84990 0.99970 0.68800 0.13800
C 	C 	0.80360 0.97830 0.73830 -0.06500
C 	C 	0.78440 0.92660 0.73620 0.07500
H 	H 	0.75470 0.91210 0.77120 -0.00300
C 	C 	0.80660 0.89620 0.68610 -0.23200
C 	C 	0.85590 0.91820 0.63720 0.06200
H 	H 	0.87450 0.89770 0.60240 -0.01400
O 	O 	0.86430 0.05200 0.68720 -0.19200
C 	C 	0.79260 0.07760 0.65560 -0.02100
H 	H 	0.74140 0.07310 0.68160 0.03700
H 	H 	0.78200 0.06310 0.61200 0.03700
C 	C 	0.81350 0.13300 0.65030 0.01200
C 	C 	0.78110 0.16050 0.59820 -0.01700
H 	H 	0.74780 0.14310 0.56660 0.01500
N 	N 	0.79440 0.21070 0.59000 -0.21500
C 	C 	0.84010 0.23540 0.63620 0.01300
H 	H 	0.84920 0.27080 0.63150 -0.00200
C 	C 	0.87400 0.21100 0.68980 -0.08400
H 	H 	0.90550 0.22950 0.72140 0.02500
C 	C 	0.86170 0.15930 0.69690 -0.05600
H 	H 	0.88560 0.14180 0.73300 0.05300
C 	C 	0.77650 0.84140 0.67850 0.61400
C 	C 	0.73450 0.82200 0.73950 -0.89600
H 	H 	0.72080 0.78600 0.73420 0.27100
H 	H 	0.68280 0.84130 0.74670 0.27200
H 	H 	0.77280 0.82630 0.77680 0.28600
C 	C 	0.84650 0.80530 0.66290 -0.90100
H 	H 	0.88770 0.80490 0.69870 0.27900
H 	H 	0.87390 0.81630 0.62310 0.27000
H 	H 	0.82350 0.77110 0.65660 0.26200
C 	C 	0.70990 0.84080 0.62260 -0.84100
H 	H 	0.73430 0.85510 0.58330 0.25100
H 	H 	0.66120 0.86120 0.63500 0.25900
H 	H 	0.69200 0.80580 0.61420 0.24100
N 	N 	0.65160 0.19630 0.48940 -0.26100
C 	C 	0.58630 0.17800 0.47580 0.08500
S 	S 	0.49690 0.15439 0.45660 -0.13100
S 	S 	0.73739 0.51639 0.69862 0.00600
C 	C 	0.64790 0.54150 0.65660 -0.05600
C 	C 	0.58050 0.51100 0.63560 0.13200
C 	C 	0.51330 0.53270 0.60190 -0.05100
C 	C 	0.51610 0.58400 0.58380 0.04800
H 	H 	0.47050 0.59810 0.55960 0.00800
C 	C 	0.58550 0.61510 0.60070 -0.20400
C 	C 	0.64940 0.59250 0.63930 0.04600
H 	H 	0.69510 0.61290 0.65390 -0.00300
O 	O 	0.58140 0.45906 0.64670 -0.19300
C 	C 	0.63130 0.43400 0.59730 -0.01900
H 	H 	0.69100 0.44420 0.60200 0.03700
H 	H 	0.61100 0.44410 0.55350 0.03700
C 	C 	0.62350 0.37750 0.60510 0.00700
C 	C 	0.67490 0.34780 0.56760 -0.01900
H 	H 	0.71430 0.36450 0.54090 0.01500
N 	N 	0.67260 0.29640 0.56650 -0.21800
C 	C 	0.61940 0.27400 0.60600 0.02700
H 	H 	0.61760 0.23800 0.60640 -0.00500
C 	C 	0.56710 0.29970 0.64620 -0.08900
H 	H 	0.53030 0.28180 0.67390 0.03100
C 	C 	0.56880 0.35280 0.64590 -0.06100
H 	H 	0.53290 0.37160 0.67330 0.05700
C 	C 	0.59200 0.67020 0.57830 0.57600
C 	C 	0.67410 0.67690 0.54140 -0.82600
H 	H 	0.72120 0.66450 0.56820 0.24600
H 	H 	0.68250 0.71290 0.53160 0.23500
H 	H 	0.67100 0.65750 0.50090 0.24200
C 	C 	0.59540 0.70570 0.63790 -0.83600
H 	H 	0.54740 0.69870 0.66560 0.26400
H 	H 	0.59350 0.74100 0.62340 0.24500
H 	H 	0.64770 0.69970 0.66250 0.25000
C 	C 	0.51770 0.68630 0.53520 -0.88000
H 	H 	0.51530 0.66490 0.49640 0.27400
H 	H 	0.52470 0.72180 0.52230 0.26600
H 	H 	0.46550 0.68260 0.55910 0.28100
S 	S 	0.42828 0.49489 0.56965 0.01400
C 	C 	0.37780 0.46960 0.63900 -0.06600
C 	C 	0.34990 0.49970 0.68800 0.13900
C 	C 	0.30360 0.47830 0.73830 -0.06500
C 	C 	0.28440 0.42660 0.73620 0.07500
H 	H 	0.25470 0.41210 0.77120 -0.00300
C 	C 	0.30660 0.39620 0.68610 -0.23200
C 	C 	0.35590 0.41820 0.63720 0.06200
H 	H 	0.37450 0.39770 0.60240 -0.01400
O 	O 	0.36430 0.55200 0.68720 -0.19200
C 	C 	0.29260 0.57760 0.65560 -0.02100
H 	H 	0.24140 0.57310 0.68160 0.03700
H 	H 	0.28200 0.56310 0.61200 0.03700
C 	C 	0.31350 0.63300 0.65030 0.01200
C 	C 	0.28110 0.66050 0.59820 -0.01700
H 	H 	0.24780 0.64310 0.56660 0.01500
N 	N 	0.29440 0.71070 0.59000 -0.21500
C 	C 	0.34010 0.73540 0.63620 0.01300
H 	H 	0.34920 0.77080 0.63150 -0.00200
C 	C 	0.37400 0.71100 0.68980 -0.08400
H 	H 	0.40550 0.72950 0.72140 0.02500
C 	C 	0.36170 0.65930 0.69690 -0.05600
H 	H 	0.38560 0.64180 0.73300 0.05300
C 	C 	0.27650 0.34140 0.67850 0.61500
C 	C 	0.23450 0.32200 0.73950 -0.89600
H 	H 	0.22080 0.28600 0.73420 0.27100
H 	H 	0.18280 0.34130 0.74670 0.27300
H 	H 	0.27280 0.32630 0.77680 0.28600
C 	C 	0.34650 0.30530 0.66290 -0.90100
H 	H 	0.38770 0.30490 0.69870 0.28000
H 	H 	0.37390 0.31630 0.62310 0.27000
H 	H 	0.32350 0.27110 0.65660 0.26200
C 	C 	0.20990 0.34080 0.62260 -0.84100
H 	H 	0.23430 0.35510 0.58330 0.25100
H 	H 	0.16120 0.36120 0.63500 0.25900
H 	H 	0.19200 0.30580 0.61420 0.24200
N 	N 	0.15160 0.69630 0.48940 -0.26200
C 	C 	0.08630 0.67800 0.47580 0.08600
S 	S 	0.99690 0.65439 0.45660 -0.13400
S 	S 	0.76261 0.01639 0.80138 0.00900
C 	C 	0.85210 0.04150 0.84340 -0.05100
C 	C 	0.91950 0.01100 0.86440 0.13100
C 	C 	0.98670 0.03270 0.89810 -0.04600
C 	C 	0.98390 0.08400 0.91620 0.04100
H 	H 	0.02950 0.09810 0.94040 0.02000
C 	C 	0.91450 0.11510 0.89930 -0.18200
C 	C 	0.85060 0.09250 0.86070 0.03700
H 	H 	0.80490 0.11290 0.84610 0.00300
O 	O 	0.91860 0.95906 0.85330 -0.19100
C 	C 	0.86870 0.93400 0.90270 -0.02700
H 	H 	0.80900 0.94420 0.89800 0.04300
H 	H 	0.88900 0.94410 0.94650 0.04800
C 	C 	0.87650 0.87750 0.89490 0.01300
C 	C 	0.82510 0.84780 0.93240 -0.02000
H 	H 	0.78570 0.86450 0.95910 0.02500
N 	N 	0.82740 0.79640 0.93350 -0.20900
C 	C 	0.88060 0.77400 0.89400 0.02700
H 	H 	0.88240 0.73800 0.89360 0.00100
C 	C 	0.93290 0.79970 0.85380 -0.08500
H 	H 	0.96970 0.78180 0.82610 0.03000
C 	C 	0.93120 0.85280 0.85410 -0.06400
H 	H 	0.96710 0.87160 0.82670 0.05800
C 	C 	0.90800 0.17020 0.92170 0.53300
C 	C 	0.82590 0.17690 0.95860 -0.80600
H 	H 	0.77880 0.16450 0.93180 0.24600
H 	H 	0.81750 0.21290 0.96840 0.23700
H 	H 	0.82900 0.15750 0.99910 0.25100
C 	C 	0.90460 0.20570 0.86210 -0.80100
H 	H 	0.95260 0.19870 0.83440 0.25300
H 	H 	0.90650 0.24100 0.87660 0.23500
H 	H 	0.85230 0.19970 0.83750 0.24000
C 	C 	0.98230 0.18630 0.96480 -0.74500
H 	H 	0.98470 0.16490 0.00360 0.21000
H 	H 	0.97530 0.22180 0.97770 0.23600
H 	H 	0.03450 0.18260 0.94090 0.24600
S 	S 	0.07172 0.99489 0.93035 0.03100
C 	C 	0.12220 0.96960 0.86100 -0.06900
C 	C 	0.15010 0.99970 0.81200 0.14000
C 	C 	0.19640 0.97830 0.76170 -0.06600
C 	C 	0.21560 0.92660 0.76380 0.07800
H 	H 	0.24530 0.91210 0.72880 -0.00500
C 	C 	0.19340 0.89620 0.81390 -0.23700
C 	C 	0.14410 0.91820 0.86280 0.06600
H 	H 	0.12550 0.89770 0.89760 -0.01100
O 	O 	0.13570 0.05200 0.81280 -0.19100
C 	C 	0.20740 0.07760 0.84440 -0.02500
H 	H 	0.25860 0.07310 0.81840 0.04000
H 	H 	0.21800 0.06310 0.88800 0.04200
C 	C 	0.18650 0.13300 0.84970 0.01600
C 	C 	0.21890 0.16050 0.90180 -0.01700
H 	H 	0.25220 0.14310 0.93340 0.02600
N 	N 	0.20560 0.21070 0.91000 -0.20800
C 	C 	0.15990 0.23540 0.86380 0.01400
H 	H 	0.15080 0.27080 0.86850 -0.00100
C 	C 	0.12600 0.21100 0.81020 -0.08200
H 	H 	0.09450 0.22950 0.77860 0.02400
C 	C 	0.13830 0.15930 0.80310 -0.05700
H 	H 	0.11440 0.14180 0.76700 0.05300
C 	C 	0.22350 0.84140 0.82150 0.62600
C 	C 	0.26550 0.82200 0.76050 -0.90600
H 	H 	0.27920 0.78600 0.76580 0.27400
H 	H 	0.31720 0.84130 0.75330 0.27500
H 	H 	0.22720 0.82630 0.72320 0.28900
C 	C 	0.15350 0.80530 0.83710 -0.91600
H 	H 	0.11230 0.80490 0.80130 0.28400
H 	H 	0.12610 0.81630 0.87690 0.27800
H 	H 	0.17650 0.77110 0.84340 0.26900
C 	C 	0.29010 0.84080 0.87740 -0.85900
H 	H 	0.26570 0.85510 0.91670 0.26300
H 	H 	0.33880 0.86120 0.86500 0.26600
H 	H 	0.30800 0.80580 0.88580 0.25000
N 	N 	0.34840 0.19630 0.01060 -0.26900
C 	C 	0.41370 0.17800 0.02420 0.07800
S 	S 	0.50310 0.15439 0.04340 -0.14700
S 	S 	0.26261 0.51639 0.80138 0.00800
C 	C 	0.35210 0.54150 0.84340 -0.05100
C 	C 	0.41950 0.51100 0.86440 0.13100
C 	C 	0.48670 0.53270 0.89810 -0.04700
C 	C 	0.48390 0.58400 0.91620 0.04200
H 	H 	0.52950 0.59810 0.94040 0.02000
C 	C 	0.41450 0.61510 0.89930 -0.18300
C 	C 	0.35060 0.59250 0.86070 0.03700
H 	H 	0.30490 0.61290 0.84610 0.00200
O 	O 	0.41860 0.45906 0.85330 -0.19100
C 	C 	0.36870 0.43400 0.90270 -0.02700
H 	H 	0.30900 0.44420 0.89800 0.04300
H 	H 	0.38900 0.44410 0.94650 0.04800
C 	C 	0.37650 0.37750 0.89490 0.01300
C 	C 	0.32510 0.34780 0.93240 -0.02000
H 	H 	0.28570 0.36450 0.95910 0.02400
N 	N 	0.32740 0.29640 0.93350 -0.21000
C 	C 	0.38060 0.27400 0.89400 0.02700
H 	H 	0.38240 0.23800 0.89360 0.00100
C 	C 	0.43290 0.29970 0.85380 -0.08500
H 	H 	0.46970 0.28180 0.82610 0.03000
C 	C 	0.43120 0.35280 0.85410 -0.06400
H 	H 	0.46710 0.37160 0.82670 0.05800
C 	C 	0.40800 0.67020 0.92170 0.53600
C 	C 	0.32590 0.67690 0.95860 -0.80700
H 	H 	0.27880 0.66450 0.93180 0.24600
H 	H 	0.31750 0.71290 0.96840 0.23700
H 	H 	0.32900 0.65750 0.99910 0.25100
C 	C 	0.40460 0.70570 0.86210 -0.80300
H 	H 	0.45260 0.69870 0.83440 0.25400
H 	H 	0.40650 0.74100 0.87660 0.23600
H 	H 	0.35230 0.69970 0.83750 0.24000
C 	C 	0.48230 0.68630 0.96480 -0.75200
H 	H 	0.48470 0.66490 0.00360 0.21300
H 	H 	0.47530 0.72180 0.97770 0.23800
H 	H 	0.53450 0.68260 0.94090 0.24900
S 	S 	0.57172 0.49489 0.93035 0.03300
C 	C 	0.62220 0.46960 0.86100 -0.07000
C 	C 	0.65010 0.49970 0.81200 0.14100
C 	C 	0.69640 0.47830 0.76170 -0.06600
C 	C 	0.71560 0.42660 0.76380 0.07800
H 	H 	0.74530 0.41210 0.72880 -0.00500
C 	C 	0.69340 0.39620 0.81390 -0.23700
C 	C 	0.64410 0.41820 0.86280 0.06700
H 	H 	0.62550 0.39770 0.89760 -0.01100
O 	O 	0.63570 0.55200 0.81280 -0.19200
C 	C 	0.70740 0.57760 0.84440 -0.02500
H 	H 	0.75860 0.57310 0.81840 0.03900
H 	H 	0.71800 0.56310 0.88800 0.04200
C 	C 	0.68650 0.63300 0.84970 0.01600
C 	C 	0.71890 0.66050 0.90180 -0.01700
H 	H 	0.75220 0.64310 0.93340 0.02600
N 	N 	0.70560 0.71070 0.91000 -0.20700
C 	C 	0.65990 0.73540 0.86380 0.01400
H 	H 	0.65080 0.77080 0.86850 -0.00100
C 	C 	0.62600 0.71100 0.81020 -0.08200
H 	H 	0.59450 0.72950 0.77860 0.02400
C 	C 	0.63830 0.65930 0.80310 -0.05800
H 	H 	0.61440 0.64180 0.76700 0.05300
C 	C 	0.72350 0.34140 0.82150 0.62700
C 	C 	0.76550 0.32200 0.76050 -0.90600
H 	H 	0.77920 0.28600 0.76580 0.27400
H 	H 	0.81720 0.34130 0.75330 0.27500
H 	H 	0.72720 0.32630 0.72320 0.28900
C 	C 	0.65350 0.30530 0.83710 -0.91700
H 	H 	0.61230 0.30490 0.80130 0.28500
H 	H 	0.62610 0.31630 0.87690 0.27900
H 	H 	0.67650 0.27110 0.84340 0.26900
C 	C 	0.79010 0.34080 0.87740 -0.86000
H 	H 	0.76570 0.35510 0.91670 0.26400
H 	H 	0.83880 0.36120 0.86500 0.26600
H 	H 	0.80800 0.30580 0.88580 0.25000
N 	N 	0.84840 0.69630 0.01060 -0.26900
C 	C 	0.91370 0.67800 0.02420 0.07400
S 	S 	0.00310 0.65439 0.04340 -0.14200
S 	S 	0.76261 0.98361 0.30138 0.00300
C 	C 	0.85210 0.95850 0.34340 -0.05500
C 	C 	0.91950 0.98900 0.36440 0.13200
C 	C 	0.98670 0.96730 0.39810 -0.05200
C 	C 	0.98390 0.91600 0.41620 0.04600
H 	H 	0.02950 0.90190 0.44040 0.01000
C 	C 	0.91450 0.88490 0.39930 -0.20300
C 	C 	0.85060 0.90750 0.36070 0.04500
H 	H 	0.80490 0.88710 0.34610 -0.00300
O 	O 	0.91860 0.04094 0.35330 -0.19300
C 	C 	0.86870 0.06600 0.40270 -0.01900
H 	H 	0.80900 0.05580 0.39800 0.03800
H 	H 	0.88900 0.05590 0.44650 0.03700
C 	C 	0.87650 0.12250 0.39490 0.00700
C 	C 	0.82510 0.15220 0.43240 -0.01900
H 	H 	0.78570 0.13550 0.45910 0.01600
N 	N 	0.82740 0.20360 0.43350 -0.21800
C 	C 	0.88060 0.22600 0.39400 0.02700
H 	H 	0.88240 0.26200 0.39360 -0.00600
C 	C 	0.93290 0.20030 0.35380 -0.08900
H 	H 	0.96970 0.21820 0.32610 0.02900
C 	C 	0.93120 0.14720 0.35410 -0.06100
H 	H 	0.96710 0.12840 0.32670 0.05600
C 	C 	0.90800 0.82980 0.42170 0.57700
C 	C 	0.82590 0.82310 0.45860 -0.82700
H 	H 	0.77880 0.83550 0.43180 0.24600
H 	H 	0.81750 0.78710 0.46840 0.23500
H 	H 	0.82900 0.84250 0.49910 0.24200
C 	C 	0.90460 0.79430 0.36210 -0.83600
H 	H 	0.95260 0.80130 0.33440 0.26300
H 	H 	0.90650 0.75900 0.37660 0.24500
H 	H 	0.85230 0.80030 0.33750 0.24900
C 	C 	0.98230 0.81370 0.46480 -0.88600
H 	H 	0.98470 0.83510 0.50360 0.27500
H 	H 	0.97530 0.77820 0.47770 0.26800
H 	H 	0.03450 0.81740 0.44090 0.28300
S 	S 	0.07172 0.00511 0.43035 0.01600
C 	C 	0.12220 0.03040 0.36100 -0.06600
C 	C 	0.15010 0.00030 0.31200 0.13900
C 	C 	0.19640 0.02170 0.26170 -0.06300
C 	C 	0.21560 0.07340 0.26380 0.07400
H 	H 	0.24530 0.08790 0.22880 -0.00400
C 	C 	0.19340 0.10380 0.31390 -0.23200
C 	C 	0.14410 0.08180 0.36280 0.06200
H 	H 	0.12550 0.10230 0.39760 -0.01300
O 	O 	0.13570 0.94800 0.31280 -0.19200
C 	C 	0.20740 0.92240 0.34440 -0.02000
H 	H 	0.25860 0.92690 0.31840 0.03600
H 	H 	0.21800 0.93690 0.38800 0.03600
C 	C 	0.18650 0.86700 0.34970 0.01200
C 	C 	0.21890 0.83950 0.40180 -0.01700
H 	H 	0.25220 0.85690 0.43340 0.01500
N 	N 	0.20560 0.78930 0.41000 -0.21500
C 	C 	0.15990 0.76460 0.36380 0.01300
H 	H 	0.15080 0.72920 0.36850 -0.00200
C 	C 	0.12600 0.78900 0.31020 -0.08400
H 	H 	0.09450 0.77050 0.27860 0.02500
C 	C 	0.13830 0.84070 0.30310 -0.05600
H 	H 	0.11440 0.85820 0.26700 0.05300
C 	C 	0.22350 0.15860 0.32150 0.61400
C 	C 	0.26550 0.17800 0.26050 -0.89500
H 	H 	0.27920 0.21400 0.26580 0.27000
H 	H 	0.31720 0.15870 0.25330 0.27200
H 	H 	0.22720 0.17370 0.22320 0.28600
C 	C 	0.15350 0.19470 0.33710 -0.90100
H 	H 	0.11230 0.19510 0.30130 0.28000
H 	H 	0.12610 0.18370 0.37690 0.27000
H 	H 	0.17650 0.22890 0.34340 0.26200
C 	C 	0.29010 0.15920 0.37740 -0.84100
H 	H 	0.26570 0.14490 0.41670 0.25100
H 	H 	0.33880 0.13880 0.36500 0.25900
H 	H 	0.30800 0.19420 0.38580 0.24100
N 	N 	0.34840 0.80370 0.51060 -0.26100
C 	C 	0.41370 0.82200 0.52420 0.08400
S 	S 	0.50310 0.84561 0.54340 -0.13200
S 	S 	0.26261 0.48361 0.30138 0.00400
C 	C 	0.35210 0.45850 0.34340 -0.05500
C 	C 	0.41950 0.48900 0.36440 0.13200
C 	C 	0.48670 0.46730 0.39810 -0.05100
C 	C 	0.48390 0.41600 0.41620 0.04800
H 	H 	0.52950 0.40190 0.44040 0.00800
C 	C 	0.41450 0.38490 0.39930 -0.20400
C 	C 	0.35060 0.40750 0.36070 0.04600
H 	H 	0.30490 0.38710 0.34610 -0.00300
O 	O 	0.41860 0.54094 0.35330 -0.19300
C 	C 	0.36870 0.56600 0.40270 -0.01900
H 	H 	0.30900 0.55580 0.39800 0.03800
H 	H 	0.38900 0.55590 0.44650 0.03700
C 	C 	0.37650 0.62250 0.39490 0.00700
C 	C 	0.32510 0.65220 0.43240 -0.01900
H 	H 	0.28570 0.63550 0.45910 0.01600
N 	N 	0.32740 0.70360 0.43350 -0.21800
C 	C 	0.38060 0.72600 0.39400 0.02700
H 	H 	0.38240 0.76200 0.39360 -0.00500
C 	C 	0.43290 0.70030 0.35380 -0.08900
H 	H 	0.46970 0.71820 0.32610 0.03000
C 	C 	0.43120 0.64720 0.35410 -0.06100
H 	H 	0.46710 0.62840 0.32670 0.05700
C 	C 	0.40800 0.32980 0.42170 0.57600
C 	C 	0.32590 0.32310 0.45860 -0.82600
H 	H 	0.27880 0.33550 0.43180 0.24600
H 	H 	0.31750 0.28710 0.46840 0.23500
H 	H 	0.32900 0.34250 0.49910 0.24200
C 	C 	0.40460 0.29430 0.36210 -0.83600
H 	H 	0.45260 0.30130 0.33440 0.26400
H 	H 	0.40650 0.25900 0.37660 0.24500
H 	H 	0.35230 0.30030 0.33750 0.24900
C 	C 	0.48230 0.31370 0.46480 -0.88000
H 	H 	0.48470 0.33510 0.50360 0.27400
H 	H 	0.47530 0.27820 0.47770 0.26700
H 	H 	0.53450 0.31740 0.44090 0.28100
S 	S 	0.57172 0.50511 0.43035 0.01400
C 	C 	0.62220 0.53040 0.36100 -0.06600
C 	C 	0.65010 0.50030 0.31200 0.13800
C 	C 	0.69640 0.52170 0.26170 -0.06400
C 	C 	0.71560 0.57340 0.26380 0.07400
H 	H 	0.74530 0.58790 0.22880 -0.00400
C 	C 	0.69340 0.60380 0.31390 -0.23100
C 	C 	0.64410 0.58180 0.36280 0.06100
H 	H 	0.62550 0.60230 0.39760 -0.01300
O 	O 	0.63570 0.44800 0.31280 -0.19200
C 	C 	0.70740 0.42240 0.34440 -0.02000
H 	H 	0.75860 0.42690 0.31840 0.03600
H 	H 	0.71800 0.43690 0.38800 0.03600
C 	C 	0.68650 0.36700 0.34970 0.01200
C 	C 	0.71890 0.33950 0.40180 -0.01700
H 	H 	0.75220 0.35690 0.43340 0.01500
N 	N 	0.70560 0.28930 0.41000 -0.21500
C 	C 	0.65990 0.26460 0.36380 0.01300
H 	H 	0.65080 0.22920 0.36850 -0.00200
C 	C 	0.62600 0.28900 0.31020 -0.08400
H 	H 	0.59450 0.27050 0.27860 0.02400
C 	C 	0.63830 0.34070 0.30310 -0.05600
H 	H 	0.61440 0.35820 0.26700 0.05300
C 	C 	0.72350 0.65860 0.32150 0.61300
C 	C 	0.76550 0.67800 0.26050 -0.89400
H 	H 	0.77920 0.71400 0.26580 0.27000
H 	H 	0.81720 0.65870 0.25330 0.27100
H 	H 	0.72720 0.67370 0.22320 0.28500
C 	C 	0.65350 0.69470 0.33710 -0.89900
H 	H 	0.61230 0.69510 0.30130 0.27900
H 	H 	0.62610 0.68370 0.37690 0.26900
H 	H 	0.67650 0.72890 0.34340 0.26100
C 	C 	0.79010 0.65920 0.37740 -0.84000
H 	H 	0.76570 0.64490 0.41670 0.25000
H 	H 	0.83880 0.63880 0.36500 0.25800
H 	H 	0.80800 0.69420 0.38580 0.24100
N 	N 	0.84840 0.30370 0.51060 -0.26100
C 	C 	0.91370 0.32200 0.52420 0.08300
S 	S 	0.00310 0.34561 0.54340 -0.13000
S 	S 	0.23739 0.98361 0.19862 0.00100
C 	C 	0.14790 0.95850 0.15660 -0.06000
C 	C 	0.08050 0.98900 0.13560 0.13300
C 	C 	0.01330 0.96730 0.10190 -0.05400
C 	C 	0.01610 0.91600 0.08380 0.05900
H 	H 	0.97050 0.90190 0.05960 -0.00600
C 	C 	0.08550 0.88490 0.10070 -0.22300
C 	C 	0.14940 0.90750 0.13930 0.05300
H 	H 	0.19510 0.88710 0.15390 -0.00700
O 	O 	0.08140 0.04094 0.14670 -0.19300
C 	C 	0.13130 0.06600 0.09730 -0.01300
H 	H 	0.19100 0.05580 0.10200 0.03300
H 	H 	0.11100 0.05590 0.05350 0.02800
C 	C 	0.12350 0.12250 0.10510 0.00200
C 	C 	0.17490 0.15220 0.06760 -0.01800
H 	H 	0.21430 0.13550 0.04090 0.00800
N 	N 	0.17260 0.20360 0.06650 -0.22300
C 	C 	0.11940 0.22600 0.10600 0.02700
H 	H 	0.11760 0.26200 0.10640 -0.01000
C 	C 	0.06710 0.20030 0.14620 -0.09200
H 	H 	0.03030 0.21820 0.17390 0.03100
C 	C 	0.06880 0.14720 0.14590 -0.05700
H 	H 	0.03290 0.12840 0.17330 0.05600
C 	C 	0.09200 0.82980 0.07830 0.61100
C 	C 	0.17410 0.82310 0.04140 -0.83900
H 	H 	0.22120 0.83550 0.06820 0.24500
H 	H 	0.18250 0.78710 0.03160 0.23100
H 	H 	0.17100 0.84250 0.00090 0.23300
C 	C 	0.09540 0.79430 0.13790 -0.86400
H 	H 	0.04740 0.80130 0.16560 0.27300
H 	H 	0.09350 0.75900 0.12340 0.25300
H 	H 	0.14770 0.80030 0.16250 0.25700
C 	C 	0.01770 0.81370 0.03520 -0.98700
H 	H 	0.01530 0.83510 0.99640 0.32800
H 	H 	0.02470 0.77820 0.02230 0.29000
H 	H 	0.96550 0.81740 0.05910 0.30500
S 	S 	0.92828 0.00511 0.06965 -0.00600
C 	C 	0.87780 0.03040 0.13900 -0.06300
C 	C 	0.84990 0.00030 0.18800 0.13600
C 	C 	0.80360 0.02170 0.23830 -0.06200
C 	C 	0.78440 0.07340 0.23620 0.07000
H 	H 	0.75470 0.08790 0.27120 -0.00200
C 	C 	0.80660 0.10380 0.18610 -0.22700
C 	C 	0.85590 0.08180 0.13720 0.05700
H 	H 	0.87450 0.10230 0.10240 -0.01600
O 	O 	0.86430 0.94800 0.18720 -0.19300
C 	C 	0.79260 0.92240 0.15560 -0.01700
H 	H 	0.74140 0.92690 0.18160 0.03400
H 	H 	0.78200 0.93690 0.11200 0.03100
C 	C 	0.81350 0.86700 0.15030 0.00800
C 	C 	0.78110 0.83950 0.09820 -0.01800
H 	H 	0.74780 0.85690 0.06660 0.00500
N 	N 	0.79440 0.78930 0.09000 -0.21900
C 	C 	0.84010 0.76460 0.13620 0.01200
H 	H 	0.84920 0.72920 0.13150 -0.00300
C 	C 	0.87400 0.78900 0.18980 -0.08600
H 	H 	0.90550 0.77050 0.22140 0.02400
C 	C 	0.86170 0.84070 0.19690 -0.05500
H 	H 	0.88560 0.85820 0.23300 0.05200
C 	C 	0.77650 0.15860 0.17850 0.60000
C 	C 	0.73450 0.17800 0.23950 -0.88300
H 	H 	0.72080 0.21400 0.23420 0.26600
H 	H 	0.68280 0.15870 0.24670 0.26800
H 	H 	0.77280 0.17370 0.27680 0.28200
C 	C 	0.84650 0.19470 0.16290 -0.88300
H 	H 	0.88770 0.19510 0.19870 0.27300
H 	H 	0.87390 0.18370 0.12310 0.26000
H 	H 	0.82350 0.22890 0.15660 0.25400
C 	C 	0.70990 0.15920 0.12260 -0.82100
H 	H 	0.73430 0.14490 0.08330 0.23800
H 	H 	0.66120 0.13880 0.13500 0.25100
H 	H 	0.69200 0.19420 0.11420 0.23200
N 	N 	0.65160 0.80370 0.98940 -0.24800
C 	C 	0.58630 0.82200 0.97580 0.09100
S 	S 	0.49690 0.84561 0.95660 -0.11500
S 	S 	0.73739 0.48361 0.19862 0.00100
C 	C 	0.64790 0.45850 0.15660 -0.06100
C 	C 	0.58050 0.48900 0.13560 0.13400
C 	C 	0.51330 0.46730 0.10190 -0.05600
C 	C 	0.51610 0.41600 0.08380 0.05500
H 	H 	0.47050 0.40190 0.05960 -0.00300
C 	C 	0.58550 0.38490 0.10070 -0.22400
C 	C 	0.64940 0.40750 0.13930 0.05400
H 	H 	0.69510 0.38710 0.15390 -0.00800
O 	O 	0.58140 0.54094 0.14670 -0.19500
C 	C 	0.63130 0.56600 0.09730 -0.01200
H 	H 	0.69100 0.55580 0.10200 0.03200
H 	H 	0.61100 0.55590 0.05350 0.02700
C 	C 	0.62350 0.62250 0.10510 0.00100
C 	C 	0.67490 0.65220 0.06760 -0.01800
H 	H 	0.71430 0.63550 0.04090 0.00700
N 	N 	0.67260 0.70360 0.06650 -0.22300
C 	C 	0.61940 0.72600 0.10600 0.02600
H 	H 	0.61760 0.76200 0.10640 -0.01100
C 	C 	0.56710 0.70030 0.14620 -0.09200
H 	H 	0.53030 0.71820 0.17390 0.03000
C 	C 	0.56880 0.64720 0.14590 -0.05700
H 	H 	0.53290 0.62840 0.17330 0.05600
C 	C 	0.59200 0.32980 0.07830 0.61800
C 	C 	0.67410 0.32310 0.04140 -0.84400
H 	H 	0.72120 0.33550 0.06820 0.24600
H 	H 	0.68250 0.28710 0.03160 0.23200
H 	H 	0.67100 0.34250 0.00090 0.23300
C 	C 	0.59540 0.29430 0.13790 -0.86900
H 	H 	0.54740 0.30130 0.16560 0.27400
H 	H 	0.59350 0.25900 0.12340 0.25400
H 	H 	0.64770 0.30030 0.16250 0.25900
C 	C 	0.51770 0.31370 0.03520 -1.01100
H 	H 	0.51530 0.33510 0.99640 0.33600
H 	H 	0.52470 0.27820 0.02230 0.29600
H 	H 	0.46550 0.31740 0.05910 0.31400
S 	S 	0.42828 0.50511 0.06965 -0.00400
C 	C 	0.37780 0.53040 0.13900 -0.06300
C 	C 	0.34990 0.50030 0.18800 0.13600
C 	C 	0.30360 0.52170 0.23830 -0.06300
C 	C 	0.28440 0.57340 0.23620 0.07100
H 	H 	0.25470 0.58790 0.27120 -0.00200
C 	C 	0.30660 0.60380 0.18610 -0.22700
C 	C 	0.35590 0.58180 0.13720 0.05700
H 	H 	0.37450 0.60230 0.10240 -0.01600
O 	O 	0.36430 0.44800 0.18720 -0.19200
C 	C 	0.29260 0.42240 0.15560 -0.01700
H 	H 	0.24140 0.42690 0.18160 0.03400
H 	H 	0.28200 0.43690 0.11200 0.03100
C 	C 	0.31350 0.36700 0.15030 0.00800
C 	C 	0.28110 0.33950 0.09820 -0.01800
H 	H 	0.24780 0.35690 0.06660 0.00600
N 	N 	0.29440 0.28930 0.09000 -0.21900
C 	C 	0.34010 0.26460 0.13620 0.01200
H 	H 	0.34920 0.22920 0.13150 -0.00300
C 	C 	0.37400 0.28900 0.18980 -0.08500
H 	H 	0.40550 0.27050 0.22140 0.02500
C 	C 	0.36170 0.34070 0.19690 -0.05500
H 	H 	0.38560 0.35820 0.23300 0.05200
C 	C 	0.27650 0.65860 0.17850 0.60200
C 	C 	0.23450 0.67800 0.23950 -0.88500
H 	H 	0.22080 0.71400 0.23420 0.26700
H 	H 	0.18280 0.65870 0.24670 0.26900
H 	H 	0.27280 0.67370 0.27680 0.28300
C 	C 	0.34650 0.69470 0.16290 -0.88500
H 	H 	0.38770 0.69510 0.19870 0.27500
H 	H 	0.37390 0.68370 0.12310 0.26200
H 	H 	0.32350 0.72890 0.15660 0.25500
C 	C 	0.20990 0.65920 0.12260 -0.82300
H 	H 	0.23430 0.64490 0.08330 0.23900
H 	H 	0.16120 0.63880 0.13500 0.25200
H 	H 	0.19200 0.69420 0.11420 0.23300
N 	N 	0.15160 0.30370 0.98940 -0.24900
C 	C 	0.08630 0.32200 0.97580 0.09000
S 	S 	0.99690 0.34561 0.95660 -0.11500
Fe	Fe	0.75000 0.25000 0.50000 1.11400
Fe	Fe	0.25000 0.25000 -0.00000 1.09800
Fe	Fe	0.25000 0.75000 0.50000 1.11400
Fe	Fe	0.75000 0.75000 -0.00000 1.09700
