data_crystal

_cell_length_a 12.07020
_cell_length_b 24.95100
_cell_length_c 50.62300
_cell_angle_alpha 90.00000
_cell_angle_beta  95.77400
_cell_angle_gamma 90.00000

_symmetry_space_group_name_	'P 1'
_symmetry_space_group_name_H-M	'P 1'

loop_
_symmetry_equiv_pos_as_xyz
  x,y,z

loop_
_atom_site_label
_atom_site_type_symbol
_atom_site_fract_x
_atom_site_fract_y
_atom_site_fract_z
_atom_site_charge
S 	S 	0.71895 0.90177 0.15997 -0.01500
C 	C 	0.57860 0.89210 0.16712 -0.05700
C 	C 	0.51040 0.93490 0.17263 0.03300
C 	C 	0.40060 0.92220 0.17859 -0.05900
C 	C 	0.36900 0.86870 0.18060 0.11200
H 	H 	0.29570 0.86120 0.18490 -0.02200
C 	C 	0.43820 0.82610 0.17670 -0.36000
C 	C 	0.54240 0.83870 0.16952 0.11500
H 	H 	0.59160 0.81040 0.16610 -0.03700
S 	S 	0.56206 0.00084 0.17590 -0.02100
C 	C 	0.57700 0.00470 0.21330 -0.17700
H 	H 	0.61360 0.03890 0.21890 0.06400
H 	H 	0.50200 0.00460 0.21960 0.07500
C 	C 	0.64080 0.96100 0.22550 0.06300
C 	C 	0.75740 0.96470 0.23200 -0.01700
H 	H 	0.79390 0.99720 0.22820 0.02100
N 	N 	0.81680 0.92530 0.24283 -0.21000
C 	C 	0.76410 0.87920 0.24800 0.01400
H 	H 	0.80750 0.85050 0.25580 -0.01300
C 	C 	0.65280 0.87170 0.24280 -0.04300
H 	H 	0.61830 0.83940 0.24760 0.00800
C 	C 	0.59050 0.91330 0.23000 -0.08700
H 	H 	0.51370 0.90830 0.22440 0.06200
C 	C 	0.40490 0.76700 0.18080 0.98600
C 	C 	0.42730 0.75460 0.20880 -1.28600
H 	H 	0.39030 0.78100 0.21930 0.37700
H 	H 	0.50780 0.75560 0.21390 0.37600
H 	H 	0.39890 0.71870 0.21220 0.37200
C 	C 	0.46510 0.72810 0.16420 -1.21600
H 	H 	0.54570 0.73240 0.16830 0.35600
H 	H 	0.44480 0.73560 0.14530 0.34900
H 	H 	0.44370 0.69140 0.16820 0.35300
C 	C 	0.28470 0.76020 0.17490 -1.26000
H 	H 	0.26830 0.72280 0.17010 0.35700
H 	H 	0.25780 0.78360 0.16000 0.36900
H 	H 	0.24730 0.76960 0.19060 0.37300
S 	S 	0.30258 0.97202 0.18586 -0.01800
C 	C 	0.27970 0.00650 0.15500 -0.02800
C 	C 	0.22680 0.98320 0.13207 0.00600
C 	C 	0.21130 0.01390 0.10860 -0.02300
C 	C 	0.24330 0.06790 0.10920 0.02800
H 	H 	0.22960 0.08890 0.09350 0.01000
C 	C 	0.29560 0.09200 0.13250 -0.22300
C 	C 	0.31520 0.06090 0.15430 0.04600
H 	H 	0.35420 0.07590 0.16980 -0.00700
S 	S 	0.17010 0.91746 0.13288 -0.01600
C 	C 	0.02770 0.93070 0.14240 -0.18100
H 	H 	0.02160 0.96700 0.15010 0.07400
H 	H 	0.97030 0.92620 0.12720 0.08200
C 	C 	0.01940 0.88570 0.16390 0.03600
C 	C 	0.02010 0.91230 0.18810 -0.02700
H 	H 	0.03360 0.94980 0.18900 0.02500
N 	N 	0.00110 0.88410 0.21080 -0.21100
C 	C 	0.98130 0.82920 0.20950 0.01600
H 	H 	0.96830 0.81000 0.22510 -0.01200
C 	C 	0.98060 0.80260 0.18540 -0.06600
H 	H 	0.96710 0.76510 0.18450 0.01700
C 	C 	0.99970 0.83080 0.16259 -0.06700
H 	H 	0.99920 0.81260 0.14610 0.02600
C 	C 	0.33080 0.15080 0.13370 0.64100
C 	C 	0.35060 0.17060 0.10550 -0.87800
H 	H 	0.27940 0.17180 0.09430 0.27000
H 	H 	0.40140 0.14600 0.09760 0.26700
H 	H 	0.38330 0.20660 0.10670 0.26000
C 	C 	0.24320 0.18330 0.14370 -0.98400
H 	H 	0.17720 0.18300 0.13070 0.28900
H 	H 	0.26960 0.22020 0.14640 0.29200
H 	H 	0.22390 0.16850 0.16050 0.29300
C 	C 	0.44060 0.15800 0.15230 -0.87100
H 	H 	0.45840 0.19620 0.15410 0.25400
H 	H 	0.50140 0.13930 0.14470 0.25500
H 	H 	0.43130 0.14300 0.16980 0.26300
S 	S 	0.14900 0.98864 0.07800 -0.03800
C 	C 	0.25180 0.94040 0.06962 -0.02000
C 	C 	0.35710 0.95470 0.06387 0.00300
C 	C 	0.43240 0.91340 0.05839 -0.02300
C 	C 	0.39630 0.86030 0.05731 0.03900
H 	H 	0.44550 0.83320 0.05230 0.00200
C 	C 	0.29050 0.84570 0.06335 -0.22200
C 	C 	0.21790 0.88620 0.06958 0.03200
H 	H 	0.14520 0.87730 0.07380 0.00400
S 	S 	0.39840 0.02351 0.06269 -0.00200
C 	C 	0.36600 0.03550 0.02764 -0.17900
H 	H 	0.39900 0.00700 0.01730 0.07900
H 	H 	0.28430 0.03520 0.02310 0.07800
C 	C 	0.41340 0.09000 0.02085 0.05200
C 	C 	0.33890 0.13400 0.01768 -0.02200
H 	H 	0.26260 0.12830 0.01990 0.02000
N 	N 	0.37160 0.18260 0.01175 -0.20500
C 	C 	0.48240 0.19110 0.00955 -0.00000
H 	H 	0.50720 0.22590 0.00540 -0.00800
C 	C 	0.55940 0.14930 0.01330 -0.05200
H 	H 	0.63630 0.15580 0.01220 0.02100
C 	C 	0.52210 0.09840 0.01878 -0.08600
H 	H 	0.57330 0.06950 0.02110 0.04800
C 	C 	0.25840 0.78610 0.06480 0.66800
C 	C 	0.28280 0.75710 0.03970 -0.92700
H 	H 	0.27100 0.71850 0.04180 0.27400
H 	H 	0.36020 0.76360 0.03630 0.28300
H 	H 	0.23280 0.77040 0.02460 0.27600
C 	C 	0.33390 0.76330 0.08890 -0.90400
H 	H 	0.33240 0.78760 0.10400 0.26900
H 	H 	0.41040 0.76000 0.08420 0.27400
H 	H 	0.30640 0.72800 0.09360 0.25500
C 	C 	0.14000 0.77700 0.06810 -0.99000
H 	H 	0.09400 0.80090 0.05610 0.30100
H 	H 	0.12650 0.78450 0.08650 0.29200
H 	H 	0.12060 0.73970 0.06380 0.29000
S 	S 	0.57202 0.92622 0.05174 -0.01500
C 	C 	0.63430 0.94940 0.08333 -0.01000
C 	C 	0.64900 0.91650 0.10570 0.00300
C 	C 	0.69920 0.93900 0.12968 -0.01100
C 	C 	0.74250 0.99030 0.12955 -0.00800
H 	H 	0.78140 0.00390 0.14540 0.02100
C 	C 	0.73110 0.02260 0.10698 -0.14100
C 	C 	0.67560 0.00130 0.08452 0.00300
H 	H 	0.66490 0.02300 0.06910 0.01200
S 	S 	0.60783 0.84794 0.10466 -0.01900
C 	C 	0.74690 0.81830 0.10510 -0.16100
H 	H 	0.79530 0.83310 0.12030 0.06700
H 	H 	0.74140 0.77910 0.10770 0.04800
C 	C 	0.79900 0.82900 0.08000 0.03700
C 	C 	0.77760 0.79520 0.05840 -0.01600
H 	H 	0.73360 0.76430 0.06080 0.00900
N 	N 	0.81320 0.80220 0.03503 -0.20900
C 	C 	0.88010 0.84520 0.03220 0.01100
H 	H 	0.91230 0.85000 0.01600 0.00500
C 	C 	0.90260 0.88220 0.05250 -0.05900
H 	H 	0.94550 0.91330 0.04980 0.04400
C 	C 	0.86240 0.87350 0.07640 -0.06800
H 	H 	0.87820 0.89830 0.09050 0.04900
C 	C 	0.77460 0.08230 0.10790 0.47800
C 	C 	0.71900 0.11510 0.12870 -0.73800
H 	H 	0.70880 0.09250 0.14410 0.22300
H 	H 	0.64630 0.12810 0.12090 0.20800
H 	H 	0.76630 0.14580 0.13440 0.20200
C 	C 	0.76200 0.11190 0.08070 -0.75800
H 	H 	0.83410 0.11370 0.07360 0.24000
H 	H 	0.73410 0.14840 0.08320 0.21100
H 	H 	0.70860 0.09250 0.06830 0.23500
C 	C 	0.90100 0.07630 0.11670 -0.77300
H 	H 	0.93150 0.04700 0.10670 0.25100
H 	H 	0.91200 0.06820 0.13570 0.24600
H 	H 	0.93930 0.10980 0.11320 0.23500
N 	N 	0.00700 0.00180 0.22960 -0.24900
C 	C 	0.01950 0.03340 0.21310 0.09700
S 	S 	0.01010 0.08091 0.19167 -0.15700
N 	N 	0.86580 0.78660 0.97722 -0.27100
C 	C 	0.90540 0.81160 0.96190 0.09600
S 	S 	0.95460 0.84565 0.93850 -0.14600
S 	S 	0.21895 0.40177 0.15997 -0.01900
C 	C 	0.07860 0.39210 0.16712 -0.04100
C 	C 	0.01040 0.43490 0.17263 0.01700
C 	C 	0.90060 0.42220 0.17859 -0.03700
C 	C 	0.86900 0.36870 0.18060 0.08600
H 	H 	0.79570 0.36120 0.18490 -0.01300
C 	C 	0.93820 0.32610 0.17670 -0.31600
C 	C 	0.04240 0.33870 0.16952 0.08100
H 	H 	0.09160 0.31040 0.16610 -0.02600
S 	S 	0.06206 0.50084 0.17590 -0.02300
C 	C 	0.07700 0.50470 0.21330 -0.17400
H 	H 	0.11360 0.53890 0.21890 0.06100
H 	H 	0.00200 0.50460 0.21960 0.07100
C 	C 	0.14080 0.46100 0.22550 0.06100
C 	C 	0.25740 0.46470 0.23200 -0.01600
H 	H 	0.29390 0.49720 0.22820 0.01900
N 	N 	0.31680 0.42530 0.24283 -0.21200
C 	C 	0.26410 0.37920 0.24800 0.01500
H 	H 	0.30750 0.35050 0.25580 -0.01600
C 	C 	0.15280 0.37170 0.24280 -0.04500
H 	H 	0.11830 0.33940 0.24760 0.00600
C 	C 	0.09050 0.41330 0.23000 -0.08600
H 	H 	0.01370 0.40830 0.22440 0.05800
C 	C 	0.90490 0.26700 0.18080 0.92200
C 	C 	0.92730 0.25460 0.20880 -1.19900
H 	H 	0.89030 0.28100 0.21930 0.35300
H 	H 	0.00780 0.25560 0.21390 0.34500
H 	H 	0.89890 0.21870 0.21220 0.35000
C 	C 	0.96510 0.22810 0.16420 -1.13400
H 	H 	0.04570 0.23240 0.16830 0.32700
H 	H 	0.94480 0.23560 0.14530 0.32800
H 	H 	0.94370 0.19140 0.16820 0.33200
C 	C 	0.78470 0.26020 0.17490 -1.20300
H 	H 	0.76830 0.22280 0.17010 0.34300
H 	H 	0.75780 0.28360 0.16000 0.35300
H 	H 	0.74730 0.26960 0.19060 0.35800
S 	S 	0.80258 0.47202 0.18586 -0.01900
C 	C 	0.77970 0.50650 0.15500 -0.02500
C 	C 	0.72680 0.48320 0.13207 0.00700
C 	C 	0.71130 0.51390 0.10860 -0.02200
C 	C 	0.74330 0.56790 0.10920 0.02700
H 	H 	0.72960 0.58890 0.09350 0.01100
C 	C 	0.79560 0.59200 0.13250 -0.21600
C 	C 	0.81520 0.56090 0.15430 0.04400
H 	H 	0.85420 0.57590 0.16980 -0.00400
S 	S 	0.67010 0.41746 0.13288 -0.01400
C 	C 	0.52770 0.43070 0.14240 -0.17100
H 	H 	0.52160 0.46700 0.15010 0.07400
H 	H 	0.47030 0.42620 0.12720 0.07300
C 	C 	0.51940 0.38570 0.16390 0.04900
C 	C 	0.52010 0.41230 0.18810 -0.03100
H 	H 	0.53360 0.44980 0.18900 0.02700
N 	N 	0.50110 0.38410 0.21080 -0.20400
C 	C 	0.48130 0.32920 0.20950 0.00000
H 	H 	0.46830 0.31000 0.22510 -0.01000
C 	C 	0.48060 0.30260 0.18540 -0.05400
H 	H 	0.46710 0.26510 0.18450 0.01100
C 	C 	0.49970 0.33080 0.16259 -0.08700
H 	H 	0.49920 0.31260 0.14610 0.03000
C 	C 	0.83080 0.65080 0.13370 0.62800
C 	C 	0.85060 0.67060 0.10550 -0.87000
H 	H 	0.77940 0.67180 0.09430 0.26800
H 	H 	0.90140 0.64600 0.09760 0.26600
H 	H 	0.88330 0.70660 0.10670 0.26000
C 	C 	0.74320 0.68330 0.14370 -0.97300
H 	H 	0.67720 0.68300 0.13070 0.28700
H 	H 	0.76960 0.72020 0.14640 0.28900
H 	H 	0.72390 0.66850 0.16050 0.29000
C 	C 	0.94060 0.65800 0.15230 -0.83500
H 	H 	0.95840 0.69620 0.15410 0.24600
H 	H 	0.00140 0.63930 0.14470 0.23800
H 	H 	0.93130 0.64300 0.16980 0.25500
S 	S 	0.64900 0.48864 0.07800 -0.03400
C 	C 	0.75180 0.44040 0.06962 -0.01900
C 	C 	0.85710 0.45470 0.06387 0.00100
C 	C 	0.93240 0.41340 0.05839 -0.01400
C 	C 	0.89630 0.36030 0.05731 0.03600
H 	H 	0.94550 0.33320 0.05230 0.00600
C 	C 	0.79050 0.34570 0.06335 -0.22300
C 	C 	0.71790 0.38620 0.06958 0.03200
H 	H 	0.64520 0.37730 0.07380 0.00500
S 	S 	0.89840 0.52351 0.06269 0.00500
C 	C 	0.86600 0.53550 0.02764 -0.18400
H 	H 	0.89900 0.50700 0.01730 0.08300
H 	H 	0.78430 0.53520 0.02310 0.08000
C 	C 	0.91340 0.59000 0.02085 0.06200
C 	C 	0.83890 0.63400 0.01768 -0.02400
H 	H 	0.76260 0.62830 0.01990 0.02100
N 	N 	0.87160 0.68260 0.01175 -0.20900
C 	C 	0.98240 0.69110 0.00955 0.03100
H 	H 	0.00720 0.72590 0.00540 -0.02400
C 	C 	0.05940 0.64930 0.01330 -0.07200
H 	H 	0.13630 0.65580 0.01220 0.02600
C 	C 	0.02210 0.59840 0.01878 -0.09100
H 	H 	0.07330 0.56950 0.02110 0.04700
C 	C 	0.75840 0.28610 0.06480 0.67600
C 	C 	0.78280 0.25710 0.03970 -0.93600
H 	H 	0.77100 0.21850 0.04180 0.27800
H 	H 	0.86020 0.26360 0.03630 0.28700
H 	H 	0.73280 0.27040 0.02460 0.27900
C 	C 	0.83390 0.26330 0.08890 -0.91500
H 	H 	0.83240 0.28760 0.10400 0.27400
H 	H 	0.91040 0.26000 0.08420 0.28000
H 	H 	0.80640 0.22800 0.09360 0.25900
C 	C 	0.64000 0.27700 0.06810 -1.00200
H 	H 	0.59400 0.30090 0.05610 0.30700
H 	H 	0.62650 0.28450 0.08650 0.29700
H 	H 	0.62060 0.23970 0.06380 0.29500
S 	S 	0.07202 0.42622 0.05174 -0.02600
C 	C 	0.13430 0.44940 0.08333 -0.00900
C 	C 	0.14900 0.41650 0.10570 0.00200
C 	C 	0.19920 0.43900 0.12968 -0.01000
C 	C 	0.24250 0.49030 0.12955 -0.00900
H 	H 	0.28140 0.50390 0.14540 0.02100
C 	C 	0.23110 0.52260 0.10698 -0.13900
C 	C 	0.17560 0.50130 0.08452 -0.00000
H 	H 	0.16490 0.52300 0.06910 0.01200
S 	S 	0.10783 0.34794 0.10466 -0.02300
C 	C 	0.24690 0.31830 0.10510 -0.16000
H 	H 	0.29530 0.33310 0.12030 0.06700
H 	H 	0.24140 0.27910 0.10770 0.04700
C 	C 	0.29900 0.32900 0.08000 0.03500
C 	C 	0.27760 0.29520 0.05840 -0.01700
H 	H 	0.23360 0.26430 0.06080 0.00800
N 	N 	0.31320 0.30220 0.03503 -0.20900
C 	C 	0.38010 0.34520 0.03220 0.01000
H 	H 	0.41230 0.35000 0.01600 0.00300
C 	C 	0.40260 0.38220 0.05250 -0.06000
H 	H 	0.44550 0.41330 0.04980 0.04200
C 	C 	0.36240 0.37350 0.07640 -0.06800
H 	H 	0.37820 0.39830 0.09050 0.04800
C 	C 	0.27460 0.58230 0.10790 0.47000
C 	C 	0.21900 0.61510 0.12870 -0.72800
H 	H 	0.20880 0.59250 0.14410 0.21900
H 	H 	0.14630 0.62810 0.12090 0.20400
H 	H 	0.26630 0.64580 0.13440 0.19700
C 	C 	0.26200 0.61190 0.08070 -0.74900
H 	H 	0.33410 0.61370 0.07360 0.23500
H 	H 	0.23410 0.64840 0.08320 0.20800
H 	H 	0.20860 0.59250 0.06830 0.23200
C 	C 	0.40100 0.57630 0.11670 -0.76000
H 	H 	0.43150 0.54700 0.10670 0.24500
H 	H 	0.41200 0.56820 0.13570 0.24000
H 	H 	0.43930 0.60980 0.11320 0.22900
N 	N 	0.50700 0.50180 0.22960 -0.24600
C 	C 	0.51950 0.53340 0.21310 0.09800
S 	S 	0.51010 0.58091 0.19167 -0.15100
N 	N 	0.36580 0.28660 0.97722 -0.27200
C 	C 	0.40540 0.31160 0.96190 0.09400
S 	S 	0.45460 0.34565 0.93850 -0.15300
S 	S 	0.28105 0.90177 0.34003 -0.01800
C 	C 	0.42140 0.89210 0.33288 -0.05500
C 	C 	0.48960 0.93490 0.32737 0.03500
C 	C 	0.59940 0.92220 0.32141 -0.05800
C 	C 	0.63100 0.86870 0.31940 0.11200
H 	H 	0.70430 0.86120 0.31510 -0.02200
C 	C 	0.56180 0.82610 0.32330 -0.36200
C 	C 	0.45760 0.83870 0.33048 0.11600
H 	H 	0.40840 0.81040 0.33390 -0.03700
S 	S 	0.43794 0.00084 0.32410 -0.02200
C 	C 	0.42300 0.00470 0.28670 -0.17600
H 	H 	0.38640 0.03890 0.28110 0.06200
H 	H 	0.49800 0.00460 0.28040 0.07500
C 	C 	0.35920 0.96100 0.27450 0.06200
C 	C 	0.24260 0.96470 0.26800 -0.01700
H 	H 	0.20610 0.99720 0.27180 0.01800
N 	N 	0.18320 0.92530 0.25717 -0.21300
C 	C 	0.23590 0.87920 0.25200 0.01500
H 	H 	0.19250 0.85050 0.24420 -0.01700
C 	C 	0.34720 0.87170 0.25720 -0.04500
H 	H 	0.38170 0.83940 0.25240 0.00800
C 	C 	0.40950 0.91330 0.27000 -0.08600
H 	H 	0.48630 0.90830 0.27560 0.06200
C 	C 	0.59510 0.76700 0.31920 0.99200
C 	C 	0.57270 0.75460 0.29120 -1.29100
H 	H 	0.60970 0.78100 0.28070 0.37900
H 	H 	0.49220 0.75560 0.28610 0.37800
H 	H 	0.60110 0.71870 0.28780 0.37400
C 	C 	0.53490 0.72810 0.33580 -1.22100
H 	H 	0.45430 0.73240 0.33170 0.35700
H 	H 	0.55520 0.73560 0.35470 0.35000
H 	H 	0.55630 0.69140 0.33180 0.35400
C 	C 	0.71530 0.76020 0.32510 -1.26900
H 	H 	0.73170 0.72280 0.32990 0.36200
H 	H 	0.74220 0.78360 0.34000 0.37300
H 	H 	0.75270 0.76960 0.30940 0.37800
S 	S 	0.69742 0.97202 0.31414 -0.01700
C 	C 	0.72030 0.00650 0.34500 -0.02800
C 	C 	0.77320 0.98320 0.36793 0.00800
C 	C 	0.78870 0.01390 0.39140 -0.02400
C 	C 	0.75670 0.06790 0.39080 0.03100
H 	H 	0.77040 0.08890 0.40650 0.00900
C 	C 	0.70440 0.09200 0.36750 -0.22300
C 	C 	0.68480 0.06090 0.34570 0.04800
H 	H 	0.64580 0.07590 0.33020 -0.00700
S 	S 	0.82990 0.91746 0.36712 -0.01600
C 	C 	0.97230 0.93070 0.35760 -0.16000
H 	H 	0.97840 0.96700 0.34990 0.07300
H 	H 	0.02970 0.92620 0.37280 0.06400
C 	C 	0.98060 0.88570 0.33610 0.06200
C 	C 	0.97990 0.91230 0.31190 -0.03400
H 	H 	0.96640 0.94980 0.31100 0.02900
N 	N 	0.99890 0.88410 0.28920 -0.19500
C 	C 	0.01870 0.82920 0.29050 -0.01500
H 	H 	0.03170 0.81000 0.27490 -0.00700
C 	C 	0.01940 0.80260 0.31460 -0.04300
H 	H 	0.03290 0.76510 0.31550 0.00500
C 	C 	0.00030 0.83080 0.33741 -0.10600
H 	H 	0.00080 0.81260 0.35390 0.03300
C 	C 	0.66920 0.15080 0.36630 0.64300
C 	C 	0.64940 0.17060 0.39450 -0.88000
H 	H 	0.72060 0.17180 0.40570 0.27100
H 	H 	0.59860 0.14600 0.40240 0.26700
H 	H 	0.61670 0.20660 0.39330 0.26100
C 	C 	0.75680 0.18330 0.35630 -0.98800
H 	H 	0.82280 0.18300 0.36930 0.29200
H 	H 	0.73040 0.22020 0.35360 0.29300
H 	H 	0.77610 0.16850 0.33950 0.29400
C 	C 	0.55940 0.15800 0.34770 -0.87200
H 	H 	0.54160 0.19620 0.34590 0.25400
H 	H 	0.49860 0.13930 0.35530 0.25500
H 	H 	0.56870 0.14300 0.33020 0.26300
S 	S 	0.85100 0.98864 0.42200 -0.02800
C 	C 	0.74820 0.94040 0.43038 -0.02100
C 	C 	0.64290 0.95470 0.43613 0.00400
C 	C 	0.56760 0.91340 0.44161 -0.02400
C 	C 	0.60370 0.86030 0.44269 0.04100
H 	H 	0.55450 0.83320 0.44770 0.00100
C 	C 	0.70950 0.84570 0.43665 -0.22600
C 	C 	0.78210 0.88620 0.43042 0.03400
H 	H 	0.85480 0.87730 0.42620 0.00600
S 	S 	0.60160 0.02351 0.43731 -0.00200
C 	C 	0.63400 0.03550 0.47236 -0.18000
H 	H 	0.60100 0.00700 0.48270 0.08000
H 	H 	0.71570 0.03520 0.47690 0.07900
C 	C 	0.58660 0.09000 0.47915 0.05300
C 	C 	0.66110 0.13400 0.48232 -0.02300
H 	H 	0.73740 0.12830 0.48010 0.02100
N 	N 	0.62840 0.18260 0.48825 -0.20500
C 	C 	0.51760 0.19110 0.49045 -0.00000
H 	H 	0.49280 0.22590 0.49460 -0.00800
C 	C 	0.44060 0.14930 0.48670 -0.05200
H 	H 	0.36370 0.15580 0.48780 0.02000
C 	C 	0.47790 0.09840 0.48122 -0.08700
H 	H 	0.42670 0.06950 0.47890 0.04800
C 	C 	0.74160 0.78610 0.43520 0.67800
C 	C 	0.71720 0.75710 0.46030 -0.93700
H 	H 	0.72900 0.71850 0.45820 0.27700
H 	H 	0.63980 0.76360 0.46370 0.28600
H 	H 	0.76720 0.77040 0.47540 0.28000
C 	C 	0.66610 0.76330 0.41110 -0.91300
H 	H 	0.66760 0.78760 0.39600 0.27100
H 	H 	0.58960 0.76000 0.41580 0.27700
H 	H 	0.69360 0.72800 0.40640 0.25800
C 	C 	0.86000 0.77700 0.43190 -1.00800
H 	H 	0.90600 0.80090 0.44390 0.31100
H 	H 	0.87350 0.78450 0.41350 0.30000
H 	H 	0.87940 0.73970 0.43620 0.29900
S 	S 	0.42798 0.92622 0.44826 -0.01500
C 	C 	0.36570 0.94940 0.41667 -0.00900
C 	C 	0.35100 0.91650 0.39430 0.00200
C 	C 	0.30080 0.93900 0.37032 -0.01000
C 	C 	0.25750 0.99030 0.37045 -0.01000
H 	H 	0.21860 0.00390 0.35460 0.02000
C 	C 	0.26890 0.02260 0.39302 -0.13700
C 	C 	0.32440 0.00130 0.41548 0.00000
H 	H 	0.33510 0.02300 0.43090 0.01300
S 	S 	0.39217 0.84794 0.39534 -0.01900
C 	C 	0.25310 0.81830 0.39490 -0.16100
H 	H 	0.20470 0.83310 0.37970 0.06600
H 	H 	0.25860 0.77910 0.39230 0.04700
C 	C 	0.20100 0.82900 0.42000 0.03600
C 	C 	0.22240 0.79520 0.44160 -0.01800
H 	H 	0.26640 0.76430 0.43920 0.00800
N 	N 	0.18680 0.80220 0.46497 -0.20900
C 	C 	0.11990 0.84520 0.46780 0.00800
H 	H 	0.08770 0.85000 0.48400 0.00200
C 	C 	0.09740 0.88220 0.44750 -0.06100
H 	H 	0.05450 0.91330 0.45020 0.03900
C 	C 	0.13760 0.87350 0.42360 -0.07000
H 	H 	0.12180 0.89830 0.40950 0.04700
C 	C 	0.22540 0.08230 0.39210 0.46500
C 	C 	0.28100 0.11510 0.37130 -0.72300
H 	H 	0.29120 0.09250 0.35590 0.21700
H 	H 	0.35370 0.12810 0.37910 0.20300
H 	H 	0.23370 0.14580 0.36560 0.19400
C 	C 	0.23800 0.11190 0.41930 -0.74400
H 	H 	0.16590 0.11370 0.42640 0.23200
H 	H 	0.26590 0.14840 0.41680 0.20600
H 	H 	0.29140 0.09250 0.43170 0.23100
C 	C 	0.09900 0.07630 0.38330 -0.75000
H 	H 	0.06850 0.04700 0.39330 0.24000
H 	H 	0.08800 0.06820 0.36430 0.23400
H 	H 	0.06070 0.10980 0.38680 0.22300
N 	N 	0.99300 0.00180 0.27040 -0.24200
C 	C 	0.98050 0.03340 0.28690 0.09900
S 	S 	0.98990 0.08091 0.30833 -0.14600
N 	N 	0.13420 0.78660 0.52278 -0.27400
C 	C 	0.09460 0.81160 0.53810 0.09400
S 	S 	0.04540 0.84565 0.56150 -0.16000
S 	S 	0.78105 0.40177 0.34003 -0.01300
C 	C 	0.92140 0.39210 0.33288 -0.07000
C 	C 	0.98960 0.43490 0.32737 0.05200
C 	C 	0.09940 0.42220 0.32141 -0.07800
C 	C 	0.13100 0.36870 0.31940 0.13700
H 	H 	0.20430 0.36120 0.31510 -0.03100
C 	C 	0.06180 0.32610 0.32330 -0.40400
C 	C 	0.95760 0.33870 0.33048 0.14900
H 	H 	0.90840 0.31040 0.33390 -0.04800
S 	S 	0.93794 0.50084 0.32410 -0.02100
C 	C 	0.92300 0.50470 0.28670 -0.17800
H 	H 	0.88640 0.53890 0.28110 0.06500
H 	H 	0.99800 0.50460 0.28040 0.07900
C 	C 	0.85920 0.46100 0.27450 0.06500
C 	C 	0.74260 0.46470 0.26800 -0.01800
H 	H 	0.70610 0.49720 0.27180 0.02000
N 	N 	0.68320 0.42530 0.25717 -0.21200
C 	C 	0.73590 0.37920 0.25200 0.01400
H 	H 	0.69250 0.35050 0.24420 -0.01500
C 	C 	0.84720 0.37170 0.25720 -0.04300
H 	H 	0.88170 0.33940 0.25240 0.01000
C 	C 	0.90950 0.41330 0.27000 -0.08800
H 	H 	0.98630 0.40830 0.27560 0.06500
C 	C 	0.09510 0.26700 0.31920 1.05400
C 	C 	0.07270 0.25460 0.29120 -1.37600
H 	H 	0.10970 0.28100 0.28070 0.40200
H 	H 	0.99220 0.25560 0.28610 0.40800
H 	H 	0.10110 0.21870 0.28780 0.39600
C 	C 	0.03490 0.22810 0.33580 -1.30000
H 	H 	0.95430 0.23240 0.33170 0.38500
H 	H 	0.05520 0.23560 0.35470 0.37000
H 	H 	0.05630 0.19140 0.33180 0.37400
C 	C 	0.21530 0.26020 0.32510 -1.32300
H 	H 	0.23170 0.22280 0.32990 0.37600
H 	H 	0.24220 0.28360 0.34000 0.38800
H 	H 	0.25270 0.26960 0.30940 0.39200
S 	S 	0.19742 0.47202 0.31414 -0.01500
C 	C 	0.22030 0.50650 0.34500 -0.03200
C 	C 	0.27320 0.48320 0.36793 0.00900
C 	C 	0.28870 0.51390 0.39140 -0.02600
C 	C 	0.25670 0.56790 0.39080 0.03300
H 	H 	0.27040 0.58890 0.40650 0.00800
C 	C 	0.20440 0.59200 0.36750 -0.23000
C 	C 	0.18480 0.56090 0.34570 0.05100
H 	H 	0.14580 0.57590 0.33020 -0.01000
S 	S 	0.32990 0.41746 0.36712 -0.01700
C 	C 	0.47230 0.43070 0.35760 -0.17000
H 	H 	0.47840 0.46700 0.34990 0.07400
H 	H 	0.52970 0.42620 0.37280 0.07300
C 	C 	0.48060 0.38570 0.33610 0.04900
C 	C 	0.47990 0.41230 0.31190 -0.03100
H 	H 	0.46640 0.44980 0.31100 0.02700
N 	N 	0.49890 0.38410 0.28920 -0.20400
C 	C 	0.51870 0.32920 0.29050 -0.00000
H 	H 	0.53170 0.31000 0.27490 -0.01000
C 	C 	0.51940 0.30260 0.31460 -0.05500
H 	H 	0.53290 0.26510 0.31550 0.01100
C 	C 	0.50030 0.33080 0.33741 -0.08700
H 	H 	0.50080 0.31260 0.35390 0.02900
C 	C 	0.16920 0.65080 0.36630 0.65500
C 	C 	0.14940 0.67060 0.39450 -0.88800
H 	H 	0.22060 0.67180 0.40570 0.27300
H 	H 	0.09860 0.64600 0.40240 0.26700
H 	H 	0.11670 0.70660 0.39330 0.26200
C 	C 	0.25680 0.68330 0.35630 -0.99800
H 	H 	0.32280 0.68300 0.36930 0.29400
H 	H 	0.23040 0.72020 0.35360 0.29600
H 	H 	0.27610 0.66850 0.33950 0.29700
C 	C 	0.05940 0.65800 0.34770 -0.90600
H 	H 	0.04160 0.69620 0.34590 0.26200
H 	H 	0.99860 0.63930 0.35530 0.27200
H 	H 	0.06870 0.64300 0.33020 0.27200
S 	S 	0.35100 0.48864 0.42200 -0.03200
C 	C 	0.24820 0.44040 0.43038 -0.02200
C 	C 	0.14290 0.45470 0.43613 0.00700
C 	C 	0.06760 0.41340 0.44161 -0.03300
C 	C 	0.10370 0.36030 0.44269 0.04300
H 	H 	0.05450 0.33320 0.44770 -0.00200
C 	C 	0.20950 0.34570 0.43665 -0.22500
C 	C 	0.28210 0.38620 0.43042 0.03400
H 	H 	0.35480 0.37730 0.42620 0.00500
S 	S 	0.10160 0.52351 0.43731 -0.00900
C 	C 	0.13400 0.53550 0.47236 -0.17500
H 	H 	0.10100 0.50700 0.48270 0.07700
H 	H 	0.21570 0.53520 0.47690 0.07700
C 	C 	0.08660 0.59000 0.47915 0.04400
C 	C 	0.16110 0.63400 0.48232 -0.02200
H 	H 	0.23740 0.62830 0.48010 0.02000
N 	N 	0.12840 0.68260 0.48825 -0.20100
C 	C 	0.01760 0.69110 0.49045 -0.03100
H 	H 	0.99280 0.72590 0.49460 0.00900
C 	C 	0.94060 0.64930 0.48670 -0.03200
H 	H 	0.86370 0.65580 0.48780 0.01400
C 	C 	0.97790 0.59840 0.48122 -0.08100
H 	H 	0.92670 0.56950 0.47890 0.04800
C 	C 	0.24160 0.28610 0.43520 0.67000
C 	C 	0.21720 0.25710 0.46030 -0.92800
H 	H 	0.22900 0.21850 0.45820 0.27400
H 	H 	0.13980 0.26360 0.46370 0.28200
H 	H 	0.26720 0.27040 0.47540 0.27700
C 	C 	0.16610 0.26330 0.41110 -0.90200
H 	H 	0.16760 0.28760 0.39600 0.26600
H 	H 	0.08960 0.26000 0.41580 0.27100
H 	H 	0.19360 0.22800 0.40640 0.25300
C 	C 	0.36000 0.27700 0.43190 -0.99600
H 	H 	0.40600 0.30090 0.44390 0.30500
H 	H 	0.37350 0.28450 0.41350 0.29500
H 	H 	0.37940 0.23970 0.43620 0.29300
S 	S 	0.92798 0.42622 0.44826 -0.00500
C 	C 	0.86570 0.44940 0.41667 -0.01000
C 	C 	0.85100 0.41650 0.39430 0.00400
C 	C 	0.80080 0.43900 0.37032 -0.01100
C 	C 	0.75750 0.49030 0.37045 -0.00700
H 	H 	0.71860 0.50390 0.35460 0.02000
C 	C 	0.76890 0.52260 0.39302 -0.14000
C 	C 	0.82440 0.50130 0.41548 0.00400
H 	H 	0.83510 0.52300 0.43090 0.01300
S 	S 	0.89217 0.34794 0.39534 -0.01400
C 	C 	0.75310 0.31830 0.39490 -0.16200
H 	H 	0.70470 0.33310 0.37970 0.06700
H 	H 	0.75860 0.27910 0.39230 0.04800
C 	C 	0.70100 0.32900 0.42000 0.03700
C 	C 	0.72240 0.29520 0.44160 -0.01700
H 	H 	0.76640 0.26430 0.43920 0.00900
N 	N 	0.68680 0.30220 0.46497 -0.20900
C 	C 	0.61990 0.34520 0.46780 0.00900
H 	H 	0.58770 0.35000 0.48400 0.00400
C 	C 	0.59740 0.38220 0.44750 -0.06000
H 	H 	0.55450 0.41330 0.45020 0.04100
C 	C 	0.63760 0.37350 0.42360 -0.06900
H 	H 	0.62180 0.39830 0.40950 0.04800
C 	C 	0.72540 0.58230 0.39210 0.47400
C 	C 	0.78100 0.61510 0.37130 -0.73300
H 	H 	0.79120 0.59250 0.35590 0.22100
H 	H 	0.85370 0.62810 0.37910 0.20700
H 	H 	0.73370 0.64580 0.36560 0.19900
C 	C 	0.73800 0.61190 0.41930 -0.75300
H 	H 	0.66590 0.61370 0.42640 0.23600
H 	H 	0.76590 0.64840 0.41680 0.21000
H 	H 	0.79140 0.59250 0.43170 0.23400
C 	C 	0.59900 0.57630 0.38330 -0.76300
H 	H 	0.56850 0.54700 0.39330 0.24600
H 	H 	0.58800 0.56820 0.36430 0.24000
H 	H 	0.56070 0.60980 0.38680 0.22900
N 	N 	0.49300 0.50180 0.27040 -0.24600
C 	C 	0.48050 0.53340 0.28690 0.09800
S 	S 	0.48990 0.58091 0.30833 -0.15200
N 	N 	0.63420 0.28660 0.52278 -0.27200
C 	C 	0.59460 0.31160 0.53810 0.09500
S 	S 	0.54540 0.34565 0.56150 -0.15300
S 	S 	0.28105 0.09823 0.84003 -0.01800
C 	C 	0.42140 0.10790 0.83288 -0.05500
C 	C 	0.48960 0.06510 0.82737 0.03500
C 	C 	0.59940 0.07780 0.82141 -0.05800
C 	C 	0.63100 0.13130 0.81940 0.11200
H 	H 	0.70430 0.13880 0.81510 -0.02200
C 	C 	0.56180 0.17390 0.82330 -0.36200
C 	C 	0.45760 0.16130 0.83048 0.11600
H 	H 	0.40840 0.18960 0.83390 -0.03700
S 	S 	0.43794 0.99916 0.82410 -0.02200
C 	C 	0.42300 0.99530 0.78670 -0.17600
H 	H 	0.38640 0.96110 0.78110 0.06200
H 	H 	0.49800 0.99540 0.78040 0.07500
C 	C 	0.35920 0.03900 0.77450 0.06200
C 	C 	0.24260 0.03530 0.76800 -0.01700
H 	H 	0.20610 0.00280 0.77180 0.01800
N 	N 	0.18320 0.07470 0.75717 -0.21300
C 	C 	0.23590 0.12080 0.75200 0.01500
H 	H 	0.19250 0.14950 0.74420 -0.01700
C 	C 	0.34720 0.12830 0.75720 -0.04500
H 	H 	0.38170 0.16060 0.75240 0.00800
C 	C 	0.40950 0.08670 0.77000 -0.08600
H 	H 	0.48630 0.09170 0.77560 0.06200
C 	C 	0.59510 0.23300 0.81920 0.99200
C 	C 	0.57270 0.24540 0.79120 -1.29100
H 	H 	0.60970 0.21900 0.78070 0.37900
H 	H 	0.49220 0.24440 0.78610 0.37800
H 	H 	0.60110 0.28130 0.78780 0.37400
C 	C 	0.53490 0.27190 0.83580 -1.22100
H 	H 	0.45430 0.26760 0.83170 0.35700
H 	H 	0.55520 0.26440 0.85470 0.35000
H 	H 	0.55630 0.30860 0.83180 0.35400
C 	C 	0.71530 0.23980 0.82510 -1.26900
H 	H 	0.73170 0.27720 0.82990 0.36200
H 	H 	0.74220 0.21640 0.84000 0.37300
H 	H 	0.75270 0.23040 0.80940 0.37800
S 	S 	0.69742 0.02798 0.81414 -0.01700
C 	C 	0.72030 0.99350 0.84500 -0.02800
C 	C 	0.77320 0.01680 0.86793 0.00800
C 	C 	0.78870 0.98610 0.89140 -0.02400
C 	C 	0.75670 0.93210 0.89080 0.03100
H 	H 	0.77040 0.91110 0.90650 0.00900
C 	C 	0.70440 0.90800 0.86750 -0.22300
C 	C 	0.68480 0.93910 0.84570 0.04800
H 	H 	0.64580 0.92410 0.83020 -0.00700
S 	S 	0.82990 0.08254 0.86712 -0.01600
C 	C 	0.97230 0.06930 0.85760 -0.16000
H 	H 	0.97840 0.03300 0.84990 0.07300
H 	H 	0.02970 0.07380 0.87280 0.06400
C 	C 	0.98060 0.11430 0.83610 0.06200
C 	C 	0.97990 0.08770 0.81190 -0.03400
H 	H 	0.96640 0.05020 0.81100 0.02900
N 	N 	0.99890 0.11590 0.78920 -0.19500
C 	C 	0.01870 0.17080 0.79050 -0.01500
H 	H 	0.03170 0.19000 0.77490 -0.00700
C 	C 	0.01940 0.19740 0.81460 -0.04300
H 	H 	0.03290 0.23490 0.81550 0.00500
C 	C 	0.00030 0.16920 0.83741 -0.10600
H 	H 	0.00080 0.18740 0.85390 0.03300
C 	C 	0.66920 0.84920 0.86630 0.64300
C 	C 	0.64940 0.82940 0.89450 -0.88000
H 	H 	0.72060 0.82820 0.90570 0.27100
H 	H 	0.59860 0.85400 0.90240 0.26700
H 	H 	0.61670 0.79340 0.89330 0.26100
C 	C 	0.75680 0.81670 0.85630 -0.98800
H 	H 	0.82280 0.81700 0.86930 0.29200
H 	H 	0.73040 0.77980 0.85360 0.29300
H 	H 	0.77610 0.83150 0.83950 0.29400
C 	C 	0.55940 0.84200 0.84770 -0.87200
H 	H 	0.54160 0.80380 0.84590 0.25400
H 	H 	0.49860 0.86070 0.85530 0.25500
H 	H 	0.56870 0.85700 0.83020 0.26300
S 	S 	0.85100 0.01136 0.92200 -0.02800
C 	C 	0.74820 0.05960 0.93038 -0.02100
C 	C 	0.64290 0.04530 0.93613 0.00400
C 	C 	0.56760 0.08660 0.94161 -0.02400
C 	C 	0.60370 0.13970 0.94269 0.04100
H 	H 	0.55450 0.16680 0.94770 0.00200
C 	C 	0.70950 0.15430 0.93665 -0.22600
C 	C 	0.78210 0.11380 0.93042 0.03400
H 	H 	0.85480 0.12270 0.92620 0.00600
S 	S 	0.60160 0.97649 0.93731 -0.00200
C 	C 	0.63400 0.96450 0.97236 -0.18000
H 	H 	0.60100 0.99300 0.98270 0.08100
H 	H 	0.71570 0.96480 0.97690 0.07900
C 	C 	0.58660 0.91000 0.97915 0.05400
C 	C 	0.66110 0.86600 0.98232 -0.02300
H 	H 	0.73740 0.87170 0.98010 0.02100
N 	N 	0.62840 0.81740 0.98825 -0.20500
C 	C 	0.51760 0.80890 0.99045 -0.00000
H 	H 	0.49280 0.77410 0.99460 -0.00700
C 	C 	0.44060 0.85070 0.98670 -0.05100
H 	H 	0.36370 0.84420 0.98780 0.02000
C 	C 	0.47790 0.90160 0.98122 -0.08700
H 	H 	0.42670 0.93050 0.97890 0.04800
C 	C 	0.74160 0.21390 0.93520 0.67800
C 	C 	0.71720 0.24290 0.96030 -0.93700
H 	H 	0.72900 0.28150 0.95820 0.27800
H 	H 	0.63980 0.23640 0.96370 0.28600
H 	H 	0.76720 0.22960 0.97540 0.28000
C 	C 	0.66610 0.23670 0.91110 -0.91300
H 	H 	0.66760 0.21240 0.89600 0.27100
H 	H 	0.58960 0.24000 0.91580 0.27700
H 	H 	0.69360 0.27200 0.90640 0.25800
C 	C 	0.86000 0.22300 0.93190 -1.00800
H 	H 	0.90600 0.19910 0.94390 0.31100
H 	H 	0.87350 0.21550 0.91350 0.30000
H 	H 	0.87940 0.26030 0.93620 0.29900
S 	S 	0.42798 0.07378 0.94826 -0.01500
C 	C 	0.36570 0.05060 0.91667 -0.00900
C 	C 	0.35100 0.08350 0.89430 0.00200
C 	C 	0.30080 0.06100 0.87032 -0.01000
C 	C 	0.25750 0.00970 0.87045 -0.01000
H 	H 	0.21860 0.99610 0.85460 0.02000
C 	C 	0.26890 0.97740 0.89302 -0.13700
C 	C 	0.32440 0.99870 0.91548 0.00000
H 	H 	0.33510 0.97700 0.93090 0.01300
S 	S 	0.39217 0.15206 0.89534 -0.01900
C 	C 	0.25310 0.18170 0.89490 -0.16100
H 	H 	0.20470 0.16690 0.87970 0.06600
H 	H 	0.25860 0.22090 0.89230 0.04700
C 	C 	0.20100 0.17100 0.92000 0.03600
C 	C 	0.22240 0.20480 0.94160 -0.01800
H 	H 	0.26640 0.23570 0.93920 0.00800
N 	N 	0.18680 0.19780 0.96497 -0.20900
C 	C 	0.11990 0.15480 0.96780 0.00800
H 	H 	0.08770 0.15000 0.98400 0.00300
C 	C 	0.09740 0.11780 0.94750 -0.06000
H 	H 	0.05450 0.08670 0.95020 0.03900
C 	C 	0.13760 0.12650 0.92360 -0.07000
H 	H 	0.12180 0.10170 0.90950 0.04700
C 	C 	0.22540 0.91770 0.89210 0.46500
C 	C 	0.28100 0.88490 0.87130 -0.72300
H 	H 	0.29120 0.90750 0.85590 0.21700
H 	H 	0.35370 0.87190 0.87910 0.20300
H 	H 	0.23370 0.85420 0.86560 0.19400
C 	C 	0.23800 0.88810 0.91930 -0.74400
H 	H 	0.16590 0.88630 0.92640 0.23200
H 	H 	0.26590 0.85160 0.91680 0.20600
H 	H 	0.29140 0.90750 0.93170 0.23100
C 	C 	0.09900 0.92370 0.88330 -0.75000
H 	H 	0.06850 0.95300 0.89330 0.24000
H 	H 	0.08800 0.93180 0.86430 0.23400
H 	H 	0.06070 0.89020 0.88680 0.22300
N 	N 	0.99300 0.99820 0.77040 -0.24200
C 	C 	0.98050 0.96660 0.78690 0.09900
S 	S 	0.98990 0.91909 0.80833 -0.14600
N 	N 	0.13420 0.21340 0.02278 -0.27400
C 	C 	0.09460 0.18840 0.03810 0.09300
S 	S 	0.04540 0.15435 0.06150 -0.16000
S 	S 	0.78105 0.59823 0.84003 -0.01300
C 	C 	0.92140 0.60790 0.83288 -0.07000
C 	C 	0.98960 0.56510 0.82737 0.05200
C 	C 	0.09940 0.57780 0.82141 -0.07800
C 	C 	0.13100 0.63130 0.81940 0.13700
H 	H 	0.20430 0.63880 0.81510 -0.03100
C 	C 	0.06180 0.67390 0.82330 -0.40400
C 	C 	0.95760 0.66130 0.83048 0.14900
H 	H 	0.90840 0.68960 0.83390 -0.04800
S 	S 	0.93794 0.49916 0.82410 -0.02100
C 	C 	0.92300 0.49530 0.78670 -0.17800
H 	H 	0.88640 0.46110 0.78110 0.06500
H 	H 	0.99800 0.49540 0.78040 0.07900
C 	C 	0.85920 0.53900 0.77450 0.06500
C 	C 	0.74260 0.53530 0.76800 -0.01800
H 	H 	0.70610 0.50280 0.77180 0.02000
N 	N 	0.68320 0.57470 0.75717 -0.21200
C 	C 	0.73590 0.62080 0.75200 0.01400
H 	H 	0.69250 0.64950 0.74420 -0.01500
C 	C 	0.84720 0.62830 0.75720 -0.04300
H 	H 	0.88170 0.66060 0.75240 0.01000
C 	C 	0.90950 0.58670 0.77000 -0.08800
H 	H 	0.98630 0.59170 0.77560 0.06500
C 	C 	0.09510 0.73300 0.81920 1.05400
C 	C 	0.07270 0.74540 0.79120 -1.37600
H 	H 	0.10970 0.71900 0.78070 0.40200
H 	H 	0.99220 0.74440 0.78610 0.40800
H 	H 	0.10110 0.78130 0.78780 0.39600
C 	C 	0.03490 0.77190 0.83580 -1.29900
H 	H 	0.95430 0.76760 0.83170 0.38500
H 	H 	0.05520 0.76440 0.85470 0.37000
H 	H 	0.05630 0.80860 0.83180 0.37400
C 	C 	0.21530 0.73980 0.82510 -1.32300
H 	H 	0.23170 0.77720 0.82990 0.37600
H 	H 	0.24220 0.71640 0.84000 0.38800
H 	H 	0.25270 0.73040 0.80940 0.39200
S 	S 	0.19742 0.52798 0.81414 -0.01500
C 	C 	0.22030 0.49350 0.84500 -0.03200
C 	C 	0.27320 0.51680 0.86793 0.00900
C 	C 	0.28870 0.48610 0.89140 -0.02600
C 	C 	0.25670 0.43210 0.89080 0.03300
H 	H 	0.27040 0.41110 0.90650 0.00800
C 	C 	0.20440 0.40800 0.86750 -0.23000
C 	C 	0.18480 0.43910 0.84570 0.05100
H 	H 	0.14580 0.42410 0.83020 -0.01000
S 	S 	0.32990 0.58254 0.86712 -0.01700
C 	C 	0.47230 0.56930 0.85760 -0.17000
H 	H 	0.47840 0.53300 0.84990 0.07400
H 	H 	0.52970 0.57380 0.87280 0.07300
C 	C 	0.48060 0.61430 0.83610 0.04900
C 	C 	0.47990 0.58770 0.81190 -0.03100
H 	H 	0.46640 0.55020 0.81100 0.02700
N 	N 	0.49890 0.61590 0.78920 -0.20400
C 	C 	0.51870 0.67080 0.79050 -0.00000
H 	H 	0.53170 0.69000 0.77490 -0.01000
C 	C 	0.51940 0.69740 0.81460 -0.05500
H 	H 	0.53290 0.73490 0.81550 0.01100
C 	C 	0.50030 0.66920 0.83741 -0.08700
H 	H 	0.50080 0.68740 0.85390 0.02900
C 	C 	0.16920 0.34920 0.86630 0.65500
C 	C 	0.14940 0.32940 0.89450 -0.88800
H 	H 	0.22060 0.32820 0.90570 0.27300
H 	H 	0.09860 0.35400 0.90240 0.26700
H 	H 	0.11670 0.29340 0.89330 0.26200
C 	C 	0.25680 0.31670 0.85630 -0.99800
H 	H 	0.32280 0.31700 0.86930 0.29400
H 	H 	0.23040 0.27980 0.85360 0.29600
H 	H 	0.27610 0.33150 0.83950 0.29700
C 	C 	0.05940 0.34200 0.84770 -0.90600
H 	H 	0.04160 0.30380 0.84590 0.26200
H 	H 	0.99860 0.36070 0.85530 0.27200
H 	H 	0.06870 0.35700 0.83020 0.27100
S 	S 	0.35100 0.51136 0.92200 -0.03200
C 	C 	0.24820 0.55960 0.93038 -0.02200
C 	C 	0.14290 0.54530 0.93613 0.00700
C 	C 	0.06760 0.58660 0.94161 -0.03300
C 	C 	0.10370 0.63970 0.94269 0.04300
H 	H 	0.05450 0.66680 0.94770 -0.00200
C 	C 	0.20950 0.65430 0.93665 -0.22500
C 	C 	0.28210 0.61380 0.93042 0.03400
H 	H 	0.35480 0.62270 0.92620 0.00500
S 	S 	0.10160 0.47649 0.93731 -0.00900
C 	C 	0.13400 0.46450 0.97236 -0.17500
H 	H 	0.10100 0.49300 0.98270 0.07700
H 	H 	0.21570 0.46480 0.97690 0.07800
C 	C 	0.08660 0.41000 0.97915 0.04500
C 	C 	0.16110 0.36600 0.98232 -0.02200
H 	H 	0.23740 0.37170 0.98010 0.02000
N 	N 	0.12840 0.31740 0.98825 -0.20100
C 	C 	0.01760 0.30890 0.99045 -0.03100
H 	H 	0.99280 0.27410 0.99460 0.00900
C 	C 	0.94060 0.35070 0.98670 -0.03200
H 	H 	0.86370 0.34420 0.98780 0.01400
C 	C 	0.97790 0.40160 0.98122 -0.08100
H 	H 	0.92670 0.43050 0.97890 0.04800
C 	C 	0.24160 0.71390 0.93520 0.67000
C 	C 	0.21720 0.74290 0.96030 -0.92800
H 	H 	0.22900 0.78150 0.95820 0.27400
H 	H 	0.13980 0.73640 0.96370 0.28200
H 	H 	0.26720 0.72960 0.97540 0.27700
C 	C 	0.16610 0.73670 0.91110 -0.90300
H 	H 	0.16760 0.71240 0.89600 0.26600
H 	H 	0.08960 0.74000 0.91580 0.27100
H 	H 	0.19360 0.77200 0.90640 0.25300
C 	C 	0.36000 0.72300 0.93190 -0.99600
H 	H 	0.40600 0.69910 0.94390 0.30500
H 	H 	0.37350 0.71550 0.91350 0.29500
H 	H 	0.37940 0.76030 0.93620 0.29400
S 	S 	0.92798 0.57378 0.94826 -0.00500
C 	C 	0.86570 0.55060 0.91667 -0.01000
C 	C 	0.85100 0.58350 0.89430 0.00400
C 	C 	0.80080 0.56100 0.87032 -0.01100
C 	C 	0.75750 0.50970 0.87045 -0.00700
H 	H 	0.71860 0.49610 0.85460 0.02000
C 	C 	0.76890 0.47740 0.89302 -0.14000
C 	C 	0.82440 0.49870 0.91548 0.00400
H 	H 	0.83510 0.47700 0.93090 0.01300
S 	S 	0.89217 0.65206 0.89534 -0.01400
C 	C 	0.75310 0.68170 0.89490 -0.16200
H 	H 	0.70470 0.66690 0.87970 0.06700
H 	H 	0.75860 0.72090 0.89230 0.04800
C 	C 	0.70100 0.67100 0.92000 0.03700
C 	C 	0.72240 0.70480 0.94160 -0.01700
H 	H 	0.76640 0.73570 0.93920 0.00900
N 	N 	0.68680 0.69780 0.96497 -0.20900
C 	C 	0.61990 0.65480 0.96780 0.00900
H 	H 	0.58770 0.65000 0.98400 0.00400
C 	C 	0.59740 0.61780 0.94750 -0.06000
H 	H 	0.55450 0.58670 0.95020 0.04200
C 	C 	0.63760 0.62650 0.92360 -0.06900
H 	H 	0.62180 0.60170 0.90950 0.04800
C 	C 	0.72540 0.41770 0.89210 0.47400
C 	C 	0.78100 0.38490 0.87130 -0.73300
H 	H 	0.79120 0.40750 0.85590 0.22100
H 	H 	0.85370 0.37190 0.87910 0.20700
H 	H 	0.73370 0.35420 0.86560 0.19900
C 	C 	0.73800 0.38810 0.91930 -0.75300
H 	H 	0.66590 0.38630 0.92640 0.23600
H 	H 	0.76590 0.35160 0.91680 0.21000
H 	H 	0.79140 0.40750 0.93170 0.23400
C 	C 	0.59900 0.42370 0.88330 -0.76300
H 	H 	0.56850 0.45300 0.89330 0.24600
H 	H 	0.58800 0.43180 0.86430 0.24000
H 	H 	0.56070 0.39020 0.88680 0.22900
N 	N 	0.49300 0.49820 0.77040 -0.24600
C 	C 	0.48050 0.46660 0.78690 0.09800
S 	S 	0.48990 0.41909 0.80833 -0.15200
N 	N 	0.63420 0.71340 0.02278 -0.27200
C 	C 	0.59460 0.68840 0.03810 0.09400
S 	S 	0.54540 0.65435 0.06150 -0.15300
S 	S 	0.71895 0.09823 0.65997 -0.01400
C 	C 	0.57860 0.10790 0.66712 -0.05600
C 	C 	0.51040 0.06510 0.67263 0.03400
C 	C 	0.40060 0.07780 0.67859 -0.05800
C 	C 	0.36900 0.13130 0.68060 0.11200
H 	H 	0.29570 0.13880 0.68490 -0.02200
C 	C 	0.43820 0.17390 0.67670 -0.36000
C 	C 	0.54240 0.16130 0.66952 0.11500
H 	H 	0.59160 0.18960 0.66610 -0.03700
S 	S 	0.56206 0.99916 0.67590 -0.02100
C 	C 	0.57700 0.99530 0.71330 -0.17700
H 	H 	0.61360 0.96110 0.71890 0.06400
H 	H 	0.50200 0.99540 0.71960 0.07500
C 	C 	0.64080 0.03900 0.72550 0.06300
C 	C 	0.75740 0.03530 0.73200 -0.01700
H 	H 	0.79390 0.00280 0.72820 0.02100
N 	N 	0.81680 0.07470 0.74283 -0.21000
C 	C 	0.76410 0.12080 0.74800 0.01400
H 	H 	0.80750 0.14950 0.75580 -0.01300
C 	C 	0.65280 0.12830 0.74280 -0.04300
H 	H 	0.61830 0.16060 0.74760 0.00800
C 	C 	0.59050 0.08670 0.73000 -0.08700
H 	H 	0.51370 0.09170 0.72440 0.06200
C 	C 	0.40490 0.23300 0.68080 0.98600
C 	C 	0.42730 0.24540 0.70880 -1.28600
H 	H 	0.39030 0.21900 0.71930 0.37700
H 	H 	0.50780 0.24440 0.71390 0.37600
H 	H 	0.39890 0.28130 0.71220 0.37200
C 	C 	0.46510 0.27190 0.66420 -1.21600
H 	H 	0.54570 0.26760 0.66830 0.35600
H 	H 	0.44480 0.26440 0.64530 0.34900
H 	H 	0.44370 0.30860 0.66820 0.35300
C 	C 	0.28470 0.23980 0.67490 -1.26000
H 	H 	0.26830 0.27720 0.67010 0.35700
H 	H 	0.25780 0.21640 0.66000 0.36900
H 	H 	0.24730 0.23040 0.69060 0.37300
S 	S 	0.30258 0.02798 0.68586 -0.01800
C 	C 	0.27970 0.99350 0.65500 -0.02800
C 	C 	0.22680 0.01680 0.63207 0.00600
C 	C 	0.21130 0.98610 0.60860 -0.02300
C 	C 	0.24330 0.93210 0.60920 0.02800
H 	H 	0.22960 0.91110 0.59350 0.01000
C 	C 	0.29560 0.90800 0.63250 -0.22300
C 	C 	0.31520 0.93910 0.65430 0.04600
H 	H 	0.35420 0.92410 0.66980 -0.00700
S 	S 	0.17010 0.08254 0.63288 -0.01600
C 	C 	0.02770 0.06930 0.64240 -0.18100
H 	H 	0.02160 0.03300 0.65010 0.07400
H 	H 	0.97030 0.07380 0.62720 0.08200
C 	C 	0.01940 0.11430 0.66390 0.03600
C 	C 	0.02010 0.08770 0.68810 -0.02700
H 	H 	0.03360 0.05020 0.68900 0.02500
N 	N 	0.00110 0.11590 0.71080 -0.21100
C 	C 	0.98130 0.17080 0.70950 0.01600
H 	H 	0.96830 0.19000 0.72510 -0.01200
C 	C 	0.98060 0.19740 0.68540 -0.06600
H 	H 	0.96710 0.23490 0.68450 0.01700
C 	C 	0.99970 0.16920 0.66259 -0.06700
H 	H 	0.99920 0.18740 0.64610 0.02600
C 	C 	0.33080 0.84920 0.63370 0.64100
C 	C 	0.35060 0.82940 0.60550 -0.87800
H 	H 	0.27940 0.82820 0.59430 0.27000
H 	H 	0.40140 0.85400 0.59760 0.26700
H 	H 	0.38330 0.79340 0.60670 0.26000
C 	C 	0.24320 0.81670 0.64370 -0.98400
H 	H 	0.17720 0.81700 0.63070 0.28900
H 	H 	0.26960 0.77980 0.64640 0.29200
H 	H 	0.22390 0.83150 0.66050 0.29300
C 	C 	0.44060 0.84200 0.65230 -0.87100
H 	H 	0.45840 0.80380 0.65410 0.25400
H 	H 	0.50140 0.86070 0.64470 0.25500
H 	H 	0.43130 0.85700 0.66980 0.26300
S 	S 	0.14900 0.01136 0.57800 -0.03800
C 	C 	0.25180 0.05960 0.56962 -0.02000
C 	C 	0.35710 0.04530 0.56387 0.00300
C 	C 	0.43240 0.08660 0.55839 -0.02300
C 	C 	0.39630 0.13970 0.55731 0.03900
H 	H 	0.44550 0.16680 0.55230 0.00200
C 	C 	0.29050 0.15430 0.56335 -0.22200
C 	C 	0.21790 0.11380 0.56958 0.03200
H 	H 	0.14520 0.12270 0.57380 0.00400
S 	S 	0.39840 0.97649 0.56269 -0.00200
C 	C 	0.36600 0.96450 0.52764 -0.17900
H 	H 	0.39900 0.99300 0.51730 0.08000
H 	H 	0.28430 0.96480 0.52310 0.07800
C 	C 	0.41340 0.91000 0.52085 0.05300
C 	C 	0.33890 0.86600 0.51768 -0.02200
H 	H 	0.26260 0.87170 0.51990 0.02000
N 	N 	0.37160 0.81740 0.51175 -0.20500
C 	C 	0.48240 0.80890 0.50955 -0.00000
H 	H 	0.50720 0.77410 0.50540 -0.00800
C 	C 	0.55940 0.85070 0.51330 -0.05200
H 	H 	0.63630 0.84420 0.51220 0.02100
C 	C 	0.52210 0.90160 0.51878 -0.08600
H 	H 	0.57330 0.93050 0.52110 0.04800
C 	C 	0.25840 0.21390 0.56480 0.66800
C 	C 	0.28280 0.24290 0.53970 -0.92700
H 	H 	0.27100 0.28150 0.54180 0.27400
H 	H 	0.36020 0.23640 0.53630 0.28300
H 	H 	0.23280 0.22960 0.52460 0.27600
C 	C 	0.33390 0.23670 0.58890 -0.90500
H 	H 	0.33240 0.21240 0.60400 0.26900
H 	H 	0.41040 0.24000 0.58420 0.27400
H 	H 	0.30640 0.27200 0.59360 0.25500
C 	C 	0.14000 0.22300 0.56810 -0.99000
H 	H 	0.09400 0.19910 0.55610 0.30100
H 	H 	0.12650 0.21550 0.58650 0.29200
H 	H 	0.12060 0.26030 0.56380 0.29000
S 	S 	0.57202 0.07378 0.55174 -0.01500
C 	C 	0.63430 0.05060 0.58333 -0.01000
C 	C 	0.64900 0.08350 0.60570 0.00300
C 	C 	0.69920 0.06100 0.62968 -0.01100
C 	C 	0.74250 0.00970 0.62955 -0.00800
H 	H 	0.78140 0.99610 0.64540 0.02100
C 	C 	0.73110 0.97740 0.60698 -0.14100
C 	C 	0.67560 0.99870 0.58452 0.00300
H 	H 	0.66490 0.97700 0.56910 0.01200
S 	S 	0.60783 0.15206 0.60466 -0.01900
C 	C 	0.74690 0.18170 0.60510 -0.16100
H 	H 	0.79530 0.16690 0.62030 0.06700
H 	H 	0.74140 0.22090 0.60770 0.04800
C 	C 	0.79900 0.17100 0.58000 0.03700
C 	C 	0.77760 0.20480 0.55840 -0.01600
H 	H 	0.73360 0.23570 0.56080 0.00900
N 	N 	0.81320 0.19780 0.53503 -0.20900
C 	C 	0.88010 0.15480 0.53220 0.01100
H 	H 	0.91230 0.15000 0.51600 0.00500
C 	C 	0.90260 0.11780 0.55250 -0.05900
H 	H 	0.94550 0.08670 0.54980 0.04400
C 	C 	0.86240 0.12650 0.57640 -0.06800
H 	H 	0.87820 0.10170 0.59050 0.04900
C 	C 	0.77460 0.91770 0.60790 0.47900
C 	C 	0.71900 0.88490 0.62870 -0.73800
H 	H 	0.70880 0.90750 0.64410 0.22300
H 	H 	0.64630 0.87190 0.62090 0.20800
H 	H 	0.76630 0.85420 0.63440 0.20200
C 	C 	0.76200 0.88810 0.58070 -0.75800
H 	H 	0.83410 0.88630 0.57360 0.24000
H 	H 	0.73410 0.85160 0.58320 0.21100
H 	H 	0.70860 0.90750 0.56830 0.23500
C 	C 	0.90100 0.92370 0.61670 -0.77300
H 	H 	0.93150 0.95300 0.60670 0.25100
H 	H 	0.91200 0.93180 0.63570 0.24600
H 	H 	0.93930 0.89020 0.61320 0.23500
N 	N 	0.00700 0.99820 0.72960 -0.24900
C 	C 	0.01950 0.96660 0.71310 0.09700
S 	S 	0.01010 0.91909 0.69167 -0.15700
N 	N 	0.86580 0.21340 0.47722 -0.27100
C 	C 	0.90540 0.18840 0.46190 0.09500
S 	S 	0.95460 0.15435 0.43850 -0.14600
S 	S 	0.21895 0.59823 0.65997 -0.01900
C 	C 	0.07860 0.60790 0.66712 -0.04100
C 	C 	0.01040 0.56510 0.67263 0.01700
C 	C 	0.90060 0.57780 0.67859 -0.03700
C 	C 	0.86900 0.63130 0.68060 0.08600
H 	H 	0.79570 0.63880 0.68490 -0.01300
C 	C 	0.93820 0.67390 0.67670 -0.31600
C 	C 	0.04240 0.66130 0.66952 0.08000
H 	H 	0.09160 0.68960 0.66610 -0.02600
S 	S 	0.06206 0.49916 0.67590 -0.02300
C 	C 	0.07700 0.49530 0.71330 -0.17400
H 	H 	0.11360 0.46110 0.71890 0.06100
H 	H 	0.00200 0.49540 0.71960 0.07100
C 	C 	0.14080 0.53900 0.72550 0.06100
C 	C 	0.25740 0.53530 0.73200 -0.01600
H 	H 	0.29390 0.50280 0.72820 0.01900
N 	N 	0.31680 0.57470 0.74283 -0.21200
C 	C 	0.26410 0.62080 0.74800 0.01500
H 	H 	0.30750 0.64950 0.75580 -0.01600
C 	C 	0.15280 0.62830 0.74280 -0.04500
H 	H 	0.11830 0.66060 0.74760 0.00600
C 	C 	0.09050 0.58670 0.73000 -0.08600
H 	H 	0.01370 0.59170 0.72440 0.05800
C 	C 	0.90490 0.73300 0.68080 0.92200
C 	C 	0.92730 0.74540 0.70880 -1.19800
H 	H 	0.89030 0.71900 0.71930 0.35300
H 	H 	0.00780 0.74440 0.71390 0.34500
H 	H 	0.89890 0.78130 0.71220 0.35000
C 	C 	0.96510 0.77190 0.66420 -1.13400
H 	H 	0.04570 0.76760 0.66830 0.32700
H 	H 	0.94480 0.76440 0.64530 0.32800
H 	H 	0.94370 0.80860 0.66820 0.33200
C 	C 	0.78470 0.73980 0.67490 -1.20300
H 	H 	0.76830 0.77720 0.67010 0.34300
H 	H 	0.75780 0.71640 0.66000 0.35300
H 	H 	0.74730 0.73040 0.69060 0.35800
S 	S 	0.80258 0.52798 0.68586 -0.01900
C 	C 	0.77970 0.49350 0.65500 -0.02500
C 	C 	0.72680 0.51680 0.63207 0.00700
C 	C 	0.71130 0.48610 0.60860 -0.02200
C 	C 	0.74330 0.43210 0.60920 0.02700
H 	H 	0.72960 0.41110 0.59350 0.01100
C 	C 	0.79560 0.40800 0.63250 -0.21600
C 	C 	0.81520 0.43910 0.65430 0.04400
H 	H 	0.85420 0.42410 0.66980 -0.00400
S 	S 	0.67010 0.58254 0.63288 -0.01400
C 	C 	0.52770 0.56930 0.64240 -0.17100
H 	H 	0.52160 0.53300 0.65010 0.07400
H 	H 	0.47030 0.57380 0.62720 0.07300
C 	C 	0.51940 0.61430 0.66390 0.04900
C 	C 	0.52010 0.58770 0.68810 -0.03100
H 	H 	0.53360 0.55020 0.68900 0.02700
N 	N 	0.50110 0.61590 0.71080 -0.20400
C 	C 	0.48130 0.67080 0.70950 0.00000
H 	H 	0.46830 0.69000 0.72510 -0.01000
C 	C 	0.48060 0.69740 0.68540 -0.05400
H 	H 	0.46710 0.73490 0.68450 0.01100
C 	C 	0.49970 0.66920 0.66259 -0.08700
H 	H 	0.49920 0.68740 0.64610 0.03000
C 	C 	0.83080 0.34920 0.63370 0.62800
C 	C 	0.85060 0.32940 0.60550 -0.87000
H 	H 	0.77940 0.32820 0.59430 0.26800
H 	H 	0.90140 0.35400 0.59760 0.26600
H 	H 	0.88330 0.29340 0.60670 0.26000
C 	C 	0.74320 0.31670 0.64370 -0.97300
H 	H 	0.67720 0.31700 0.63070 0.28700
H 	H 	0.76960 0.27980 0.64640 0.28900
H 	H 	0.72390 0.33150 0.66050 0.29000
C 	C 	0.94060 0.34200 0.65230 -0.83500
H 	H 	0.95840 0.30380 0.65410 0.24600
H 	H 	0.00140 0.36070 0.64470 0.23800
H 	H 	0.93130 0.35700 0.66980 0.25500
S 	S 	0.64900 0.51136 0.57800 -0.03300
C 	C 	0.75180 0.55960 0.56962 -0.01900
C 	C 	0.85710 0.54530 0.56387 0.00100
C 	C 	0.93240 0.58660 0.55839 -0.01400
C 	C 	0.89630 0.63970 0.55731 0.03600
H 	H 	0.94550 0.66680 0.55230 0.00600
C 	C 	0.79050 0.65430 0.56335 -0.22300
C 	C 	0.71790 0.61380 0.56958 0.03200
H 	H 	0.64520 0.62270 0.57380 0.00500
S 	S 	0.89840 0.47649 0.56269 0.00500
C 	C 	0.86600 0.46450 0.52764 -0.18400
H 	H 	0.89900 0.49300 0.51730 0.08300
H 	H 	0.78430 0.46480 0.52310 0.08000
C 	C 	0.91340 0.41000 0.52085 0.06200
C 	C 	0.83890 0.36600 0.51768 -0.02400
H 	H 	0.76260 0.37170 0.51990 0.02100
N 	N 	0.87160 0.31740 0.51175 -0.20800
C 	C 	0.98240 0.30890 0.50955 0.03100
H 	H 	0.00720 0.27410 0.50540 -0.02400
C 	C 	0.05940 0.35070 0.51330 -0.07200
H 	H 	0.13630 0.34420 0.51220 0.02700
C 	C 	0.02210 0.40160 0.51878 -0.09100
H 	H 	0.07330 0.43050 0.52110 0.04800
C 	C 	0.75840 0.71390 0.56480 0.67700
C 	C 	0.78280 0.74290 0.53970 -0.93700
H 	H 	0.77100 0.78150 0.54180 0.27800
H 	H 	0.86020 0.73640 0.53630 0.28700
H 	H 	0.73280 0.72960 0.52460 0.27900
C 	C 	0.83390 0.73670 0.58890 -0.91600
H 	H 	0.83240 0.71240 0.60400 0.27400
H 	H 	0.91040 0.74000 0.58420 0.28000
H 	H 	0.80640 0.77200 0.59360 0.25900
C 	C 	0.64000 0.72300 0.56810 -1.00300
H 	H 	0.59400 0.69910 0.55610 0.30700
H 	H 	0.62650 0.71550 0.58650 0.29700
H 	H 	0.62060 0.76030 0.56380 0.29500
S 	S 	0.07202 0.57378 0.55174 -0.02500
C 	C 	0.13430 0.55060 0.58333 -0.00900
C 	C 	0.14900 0.58350 0.60570 0.00200
C 	C 	0.19920 0.56100 0.62968 -0.01000
C 	C 	0.24250 0.50970 0.62955 -0.00900
H 	H 	0.28140 0.49610 0.64540 0.02100
C 	C 	0.23110 0.47740 0.60698 -0.13900
C 	C 	0.17560 0.49870 0.58452 0.00000
H 	H 	0.16490 0.47700 0.56910 0.01200
S 	S 	0.10783 0.65206 0.60466 -0.02300
C 	C 	0.24690 0.68170 0.60510 -0.16000
H 	H 	0.29530 0.66690 0.62030 0.06700
H 	H 	0.24140 0.72090 0.60770 0.04700
C 	C 	0.29900 0.67100 0.58000 0.03500
C 	C 	0.27760 0.70480 0.55840 -0.01700
H 	H 	0.23360 0.73570 0.56080 0.00800
N 	N 	0.31320 0.69780 0.53503 -0.20900
C 	C 	0.38010 0.65480 0.53220 0.01000
H 	H 	0.41230 0.65000 0.51600 0.00400
C 	C 	0.40260 0.61780 0.55250 -0.06000
H 	H 	0.44550 0.58670 0.54980 0.04200
C 	C 	0.36240 0.62650 0.57640 -0.06800
H 	H 	0.37820 0.60170 0.59050 0.04800
C 	C 	0.27460 0.41770 0.60790 0.47000
C 	C 	0.21900 0.38490 0.62870 -0.72800
H 	H 	0.20880 0.40750 0.64410 0.21900
H 	H 	0.14630 0.37190 0.62090 0.20400
H 	H 	0.26630 0.35420 0.63440 0.19700
C 	C 	0.26200 0.38810 0.58070 -0.74900
H 	H 	0.33410 0.38630 0.57360 0.23500
H 	H 	0.23410 0.35160 0.58320 0.20800
H 	H 	0.20860 0.40750 0.56830 0.23200
C 	C 	0.40100 0.42370 0.61670 -0.76000
H 	H 	0.43150 0.45300 0.60670 0.24500
H 	H 	0.41200 0.43180 0.63570 0.24000
H 	H 	0.43930 0.39020 0.61320 0.22900
N 	N 	0.50700 0.49820 0.72960 -0.24600
C 	C 	0.51950 0.46660 0.71310 0.09800
S 	S 	0.51010 0.41909 0.69167 -0.15100
N 	N 	0.36580 0.71340 0.47722 -0.27200
C 	C 	0.40540 0.68840 0.46190 0.09400
S 	S 	0.45460 0.65435 0.43850 -0.15300
Fe	Fe	-0.00000 0.92859 0.25000 1.11000
Fe	Fe	0.50000 0.42859 0.25000 1.11500
Fe	Fe	0.00000 0.07141 0.75000 1.11000
Fe	Fe	0.50000 0.57141 0.75000 1.11500
Fe	Fe	0.75000 0.75000 -0.00000 1.11100
Fe	Fe	0.25000 0.75000 0.50000 1.11100
Fe	Fe	0.25000 0.25000 -0.00000 1.11000
Fe	Fe	0.75000 0.25000 0.50000 1.11200
