data_crystal

_cell_length_a 10.29200
_cell_length_b 10.29200
_cell_length_c 9.62900
_cell_angle_alpha 90.00000
_cell_angle_beta  90.00000
_cell_angle_gamma 90.00000

_symmetry_space_group_name_	'P 1'
_symmetry_space_group_name_H-M	'P 1'

loop_
_symmetry_equiv_pos_as_xyz
  x,y,z

loop_
_atom_site_label
_atom_site_type_symbol
_atom_site_fract_x
_atom_site_fract_y
_atom_site_fract_z
_atom_site_charge
O 	O 	0.52350 0.69510 0.72290 -0.45300
O 	O 	0.02350 0.19510 0.22290 -0.45300
O 	O 	0.47650 0.30490 0.72290 -0.45300
O 	O 	0.97650 0.80490 0.22290 -0.45300
O 	O 	0.69510 0.47650 0.27710 -0.45300
O 	O 	0.19510 0.97650 0.77710 -0.45300
O 	O 	0.30490 0.52350 0.27710 -0.45300
O 	O 	0.80490 0.02350 0.77710 -0.45300
O 	O 	0.47650 0.69510 0.27710 -0.45300
O 	O 	0.97650 0.19510 0.77710 -0.45300
O 	O 	0.52350 0.30490 0.27710 -0.45300
O 	O 	0.02350 0.80490 0.77710 -0.45300
O 	O 	0.30490 0.47650 0.72290 -0.45300
O 	O 	0.80490 0.97650 0.22290 -0.45300
O 	O 	0.69510 0.52350 0.72290 -0.45300
O 	O 	0.19510 0.02350 0.22290 -0.45300
Fe	Fe	0.63442 0.63442 0.36520 1.15800
P 	P 	0.66310 0.66310 0.69150 0.55500
O 	O 	0.70260 0.70260 0.54590 -0.44100
O 	O 	0.73820 0.73820 0.79500 -0.36600
Fe	Fe	0.13442 0.13442 0.86520 1.15700
P 	P 	0.16310 0.16310 0.19150 0.55500
O 	O 	0.20260 0.20260 0.04590 -0.44000
O 	O 	0.23820 0.23820 0.29500 -0.36600
Fe	Fe	0.36558 0.36558 0.36520 1.15800
P 	P 	0.33690 0.33690 0.69150 0.55500
O 	O 	0.29740 0.29740 0.54590 -0.44100
O 	O 	0.26180 0.26180 0.79500 -0.36600
Fe	Fe	0.86558 0.86558 0.86520 1.15700
P 	P 	0.83690 0.83690 0.19150 0.55500
O 	O 	0.79740 0.79740 0.04590 -0.44000
O 	O 	0.76180 0.76180 0.29500 -0.36600
Fe	Fe	0.63442 0.36558 0.63480 1.15800
P 	P 	0.66310 0.33690 0.30850 0.55500
O 	O 	0.70260 0.29740 0.45410 -0.44100
O 	O 	0.73820 0.26180 0.20500 -0.36600
Fe	Fe	0.13442 0.86558 0.13480 1.15700
P 	P 	0.16310 0.83690 0.80850 0.55500
O 	O 	0.20260 0.79740 0.95410 -0.44000
O 	O 	0.23820 0.76180 0.70500 -0.36600
Fe	Fe	0.36558 0.63442 0.63480 1.15800
P 	P 	0.33690 0.66310 0.30850 0.55500
O 	O 	0.29740 0.70260 0.45410 -0.44100
O 	O 	0.26180 0.73820 0.20500 -0.36600
Fe	Fe	0.86558 0.13442 0.13480 1.15700
P 	P 	0.83690 0.16310 0.80850 0.55500
O 	O 	0.79740 0.20260 0.95410 -0.44000
O 	O 	0.76180 0.23820 0.70500 -0.36600
