data_crystal

_cell_length_a 10.29410
_cell_length_b 10.29410
_cell_length_c 9.64840
_cell_angle_alpha 90.00000
_cell_angle_beta  90.00000
_cell_angle_gamma 90.00000

_symmetry_space_group_name_	'P 1'
_symmetry_space_group_name_H-M	'P 1'

loop_
_symmetry_equiv_pos_as_xyz
  x,y,z

loop_
_atom_site_label
_atom_site_type_symbol
_atom_site_fract_x
_atom_site_fract_y
_atom_site_fract_z
_atom_site_charge
O 	O 	0.30460 0.47700 0.71980 -0.45800
O 	O 	0.80460 0.97700 0.21980 -0.45800
O 	O 	0.69540 0.52300 0.71980 -0.45800
O 	O 	0.19540 0.02300 0.21980 -0.45800
O 	O 	0.47700 0.69540 0.28020 -0.45800
O 	O 	0.97700 0.19540 0.78020 -0.45800
O 	O 	0.52300 0.30460 0.28020 -0.45800
O 	O 	0.02300 0.80460 0.78020 -0.45800
O 	O 	0.69540 0.47700 0.28020 -0.45700
O 	O 	0.19540 0.97700 0.78020 -0.45700
O 	O 	0.30460 0.52300 0.28020 -0.45700
O 	O 	0.80460 0.02300 0.78020 -0.45700
O 	O 	0.52300 0.69540 0.71980 -0.45700
O 	O 	0.02300 0.19540 0.21980 -0.45700
O 	O 	0.47700 0.30460 0.71980 -0.45700
O 	O 	0.97700 0.80460 0.21980 -0.45700
Fe	Fe	0.36687 0.63313 0.63222 1.16200
Fe	Fe	0.86687 0.13313 0.13222 1.16200
Fe	Fe	0.63313 0.36687 0.63222 1.16200
Fe	Fe	0.13313 0.86687 0.13222 1.16200
Fe	Fe	0.63313 0.63313 0.36778 1.16200
Fe	Fe	0.13313 0.13313 0.86778 1.16200
Fe	Fe	0.36687 0.36687 0.36778 1.16200
Fe	Fe	0.86687 0.86687 0.86778 1.16200
P 	P 	0.33631 0.33631 0.69290 0.56800
O 	O 	0.29920 0.29920 0.54840 -0.44400
O 	O 	0.25620 0.25620 0.79020 -0.37100
P 	P 	0.83631 0.83631 0.19290 0.56800
O 	O 	0.79920 0.79920 0.04840 -0.44400
O 	O 	0.75620 0.75620 0.29020 -0.37100
P 	P 	0.66369 0.66369 0.69290 0.56800
O 	O 	0.70080 0.70080 0.54840 -0.44400
O 	O 	0.74380 0.74380 0.79020 -0.37100
P 	P 	0.16369 0.16369 0.19290 0.56800
O 	O 	0.20080 0.20080 0.04840 -0.44400
O 	O 	0.24380 0.24380 0.29020 -0.37100
P 	P 	0.33631 0.66369 0.30710 0.56800
O 	O 	0.29920 0.70080 0.45160 -0.44400
O 	O 	0.25620 0.74380 0.20980 -0.37100
P 	P 	0.83631 0.16369 0.80710 0.56800
O 	O 	0.79920 0.20080 0.95160 -0.44400
O 	O 	0.75620 0.24380 0.70980 -0.37100
P 	P 	0.66369 0.33631 0.30710 0.56800
O 	O 	0.70080 0.29920 0.45160 -0.44400
O 	O 	0.74380 0.25620 0.20980 -0.37100
P 	P 	0.16369 0.83631 0.80710 0.56800
O 	O 	0.20080 0.79920 0.95160 -0.44400
O 	O 	0.24380 0.75620 0.70980 -0.37100
