data_crystal

_cell_length_a 10.26600
_cell_length_b 10.26600
_cell_length_c 9.63110
_cell_angle_alpha 90.00000
_cell_angle_beta  90.00000
_cell_angle_gamma 90.00000

_symmetry_space_group_name_	'P 1'
_symmetry_space_group_name_H-M	'P 1'

loop_
_symmetry_equiv_pos_as_xyz
  x,y,z

loop_
_atom_site_label
_atom_site_type_symbol
_atom_site_fract_x
_atom_site_fract_y
_atom_site_fract_z
_atom_site_charge
O 	O 	0.30440 0.47790 0.77880 -0.45200
O 	O 	0.80440 0.97790 0.27880 -0.45200
O 	O 	0.69560 0.52210 0.77880 -0.45200
O 	O 	0.19560 0.02210 0.27880 -0.45200
O 	O 	0.47790 0.69560 0.22120 -0.45200
O 	O 	0.97790 0.19560 0.72120 -0.45200
O 	O 	0.52210 0.30440 0.22120 -0.45200
O 	O 	0.02210 0.80440 0.72120 -0.45200
O 	O 	0.69560 0.47790 0.22120 -0.45100
O 	O 	0.19560 0.97790 0.72120 -0.45100
O 	O 	0.30440 0.52210 0.22120 -0.45100
O 	O 	0.80440 0.02210 0.72120 -0.45100
O 	O 	0.52210 0.69560 0.77880 -0.45100
O 	O 	0.02210 0.19560 0.27880 -0.45100
O 	O 	0.47790 0.30440 0.77880 -0.45100
O 	O 	0.97790 0.80440 0.27880 -0.45100
Fe	Fe	0.36725 0.36725 0.13121 1.16500
P 	P 	0.33584 0.33584 0.80630 0.55300
O 	O 	0.30040 0.30040 0.95480 -0.44700
O 	O 	0.25640 0.25640 0.70740 -0.36800
Fe	Fe	0.86725 0.86725 0.63121 1.16500
P 	P 	0.83584 0.83584 0.30630 0.55300
O 	O 	0.80040 0.80040 0.45480 -0.44700
O 	O 	0.75640 0.75640 0.20740 -0.36800
Fe	Fe	0.63275 0.63275 0.13121 1.16500
P 	P 	0.66416 0.66416 0.80630 0.55300
O 	O 	0.69960 0.69960 0.95480 -0.44700
O 	O 	0.74360 0.74360 0.70740 -0.36800
Fe	Fe	0.13275 0.13275 0.63121 1.16500
P 	P 	0.16416 0.16416 0.30630 0.55300
O 	O 	0.19960 0.19960 0.45480 -0.44700
O 	O 	0.24360 0.24360 0.20740 -0.36800
Fe	Fe	0.36725 0.63275 0.86879 1.16500
P 	P 	0.33584 0.66416 0.19370 0.55300
O 	O 	0.30040 0.69960 0.04520 -0.44700
O 	O 	0.25640 0.74360 0.29260 -0.36800
Fe	Fe	0.86725 0.13275 0.36879 1.16500
P 	P 	0.83584 0.16416 0.69370 0.55300
O 	O 	0.80040 0.19960 0.54520 -0.44700
O 	O 	0.75640 0.24360 0.79260 -0.36800
Fe	Fe	0.63275 0.36725 0.86879 1.16500
P 	P 	0.66416 0.33584 0.19370 0.55300
O 	O 	0.69960 0.30040 0.04520 -0.44700
O 	O 	0.74360 0.25640 0.29260 -0.36800
Fe	Fe	0.13275 0.86725 0.36879 1.16500
P 	P 	0.16416 0.83584 0.69370 0.55300
O 	O 	0.19960 0.80040 0.54520 -0.44700
O 	O 	0.24360 0.75640 0.79260 -0.36800
