data_crystal

_cell_length_a 8.27400
_cell_length_b 20.56300
_cell_length_c 54.36700
_cell_angle_alpha 90.00000
_cell_angle_beta  90.00000
_cell_angle_gamma 90.00000

_symmetry_space_group_name_	'P 1'
_symmetry_space_group_name_H-M	'P 1'

loop_
_symmetry_equiv_pos_as_xyz
  x,y,z

loop_
_atom_site_label
_atom_site_type_symbol
_atom_site_fract_x
_atom_site_fract_y
_atom_site_fract_z
_atom_site_charge
N 	N 	0.12070 0.19925 0.59671 -0.27200
C 	C 	0.13550 0.29150 0.55883 0.12600
C 	C 	0.13830 0.33890 0.53829 -0.04100
N 	N 	0.23300 0.25654 0.51078 -0.08200
N 	N 	0.13040 0.42940 0.49970 -0.11000
C 	C 	0.17330 0.36760 0.49589 -0.01500
H 	H 	0.20040 0.35490 0.48000 0.05400
C 	C 	0.17930 0.32150 0.51453 0.06900
C 	C 	0.03360 0.23670 0.55733 -0.18300
H 	H 	0.96870 0.23020 0.54360 0.10500
C 	C 	0.09760 0.44670 0.52202 0.04700
H 	H 	0.07140 0.49000 0.52490 0.02500
C 	C 	0.09940 0.40370 0.54215 -0.07000
H 	H 	0.07470 0.41850 0.55790 0.05200
C 	C 	0.03180 0.19270 0.57655 0.10200
H 	H 	0.96450 0.15660 0.57530 -0.03600
C 	C 	0.21910 0.29870 0.57975 -0.19000
H 	H 	0.28360 0.33530 0.58190 0.09000
C 	C 	0.21150 0.25290 0.59825 0.09900
H 	H 	0.27230 0.25960 0.61240 -0.03600
N 	N 	0.12070 0.69925 0.09671 -0.27200
C 	C 	0.13550 0.79150 0.05883 0.12600
C 	C 	0.13830 0.83890 0.03829 -0.04100
N 	N 	0.23300 0.75654 0.01078 -0.08200
N 	N 	0.13040 0.92940 0.99970 -0.11000
C 	C 	0.17330 0.86760 0.99589 -0.01500
H 	H 	0.20040 0.85490 0.98000 0.05400
C 	C 	0.17930 0.82150 0.01453 0.06900
C 	C 	0.03360 0.73670 0.05733 -0.18300
H 	H 	0.96870 0.73020 0.04360 0.10500
C 	C 	0.09760 0.94670 0.02202 0.04700
H 	H 	0.07140 0.99000 0.02490 0.02500
C 	C 	0.09940 0.90370 0.04215 -0.07000
H 	H 	0.07470 0.91850 0.05790 0.05200
C 	C 	0.03180 0.69270 0.07655 0.10200
H 	H 	0.96450 0.65660 0.07530 -0.03600
C 	C 	0.21910 0.79870 0.07975 -0.19000
H 	H 	0.28360 0.83530 0.08190 0.09000
C 	C 	0.21150 0.75290 0.09825 0.09900
H 	H 	0.27230 0.75960 0.11240 -0.03600
N 	N 	0.62070 0.19925 0.09671 -0.27200
C 	C 	0.63550 0.29150 0.05883 0.12600
C 	C 	0.63830 0.33890 0.03829 -0.04100
N 	N 	0.73300 0.25654 0.01078 -0.08200
N 	N 	0.63040 0.42940 0.99970 -0.11000
C 	C 	0.67330 0.36760 0.99589 -0.01500
H 	H 	0.70040 0.35490 0.98000 0.05400
C 	C 	0.67930 0.32150 0.01453 0.06900
C 	C 	0.53360 0.23670 0.05733 -0.18300
H 	H 	0.46870 0.23020 0.04360 0.10500
C 	C 	0.59760 0.44670 0.02202 0.04700
H 	H 	0.57140 0.49000 0.02490 0.02500
C 	C 	0.59940 0.40370 0.04215 -0.07000
H 	H 	0.57470 0.41850 0.05790 0.05100
C 	C 	0.53180 0.19270 0.07655 0.10200
H 	H 	0.46450 0.15660 0.07530 -0.03500
C 	C 	0.71910 0.29870 0.07975 -0.19000
H 	H 	0.78360 0.33530 0.08190 0.09000
C 	C 	0.71150 0.25290 0.09825 0.09900
H 	H 	0.77230 0.25960 0.11240 -0.03700
N 	N 	0.62070 0.69925 0.59671 -0.27200
C 	C 	0.63550 0.79150 0.55883 0.12600
C 	C 	0.63830 0.83890 0.53829 -0.04100
N 	N 	0.73300 0.75654 0.51078 -0.08200
N 	N 	0.63040 0.92940 0.49970 -0.11000
C 	C 	0.67330 0.86760 0.49589 -0.01500
H 	H 	0.70040 0.85490 0.48000 0.05400
C 	C 	0.67930 0.82150 0.51453 0.06900
C 	C 	0.53360 0.73670 0.55733 -0.18300
H 	H 	0.46870 0.73020 0.54360 0.10500
C 	C 	0.59760 0.94670 0.52202 0.04700
H 	H 	0.57140 0.99000 0.52490 0.02500
C 	C 	0.59940 0.90370 0.54215 -0.07000
H 	H 	0.57470 0.91850 0.55790 0.05100
C 	C 	0.53180 0.69270 0.57655 0.10200
H 	H 	0.46450 0.65660 0.57530 -0.03500
C 	C 	0.71910 0.79870 0.57975 -0.19000
H 	H 	0.78360 0.83530 0.58190 0.09000
C 	C 	0.71150 0.75290 0.59825 0.09900
H 	H 	0.77230 0.75960 0.61240 -0.03700
N 	N 	0.62930 0.55075 0.59671 -0.27200
C 	C 	0.61450 0.45850 0.55883 0.12600
C 	C 	0.61170 0.41110 0.53829 -0.04100
N 	N 	0.51700 0.49346 0.51078 -0.08200
N 	N 	0.61960 0.32060 0.49970 -0.11000
C 	C 	0.57670 0.38240 0.49589 -0.01500
H 	H 	0.54960 0.39510 0.48000 0.05400
C 	C 	0.57070 0.42850 0.51453 0.06900
C 	C 	0.71640 0.51330 0.55733 -0.18300
H 	H 	0.78130 0.51980 0.54360 0.10500
C 	C 	0.65240 0.30330 0.52202 0.04700
H 	H 	0.67860 0.26000 0.52490 0.02500
C 	C 	0.65060 0.34630 0.54215 -0.07000
H 	H 	0.67530 0.33150 0.55790 0.05100
C 	C 	0.71820 0.55730 0.57655 0.10200
H 	H 	0.78550 0.59340 0.57530 -0.03500
C 	C 	0.53090 0.45130 0.57975 -0.19000
H 	H 	0.46640 0.41470 0.58190 0.09000
C 	C 	0.53850 0.49710 0.59825 0.09900
H 	H 	0.47770 0.49040 0.61240 -0.03600
N 	N 	0.62930 0.05075 0.09671 -0.27200
C 	C 	0.61450 0.95850 0.05883 0.12600
C 	C 	0.61170 0.91110 0.03829 -0.04100
N 	N 	0.51700 0.99346 0.01078 -0.08200
N 	N 	0.61960 0.82060 0.99970 -0.11000
C 	C 	0.57670 0.88240 0.99589 -0.01500
H 	H 	0.54960 0.89510 0.98000 0.05400
C 	C 	0.57070 0.92850 0.01453 0.06900
C 	C 	0.71640 0.01330 0.05733 -0.18300
H 	H 	0.78130 0.01980 0.04360 0.10500
C 	C 	0.65240 0.80330 0.02202 0.04700
H 	H 	0.67860 0.76000 0.02490 0.02500
C 	C 	0.65060 0.84630 0.04215 -0.07000
H 	H 	0.67530 0.83150 0.05790 0.05100
C 	C 	0.71820 0.05730 0.07655 0.10200
H 	H 	0.78550 0.09340 0.07530 -0.03500
C 	C 	0.53090 0.95130 0.07975 -0.19000
H 	H 	0.46640 0.91470 0.08190 0.09000
C 	C 	0.53850 0.99710 0.09825 0.09900
H 	H 	0.47770 0.99040 0.11240 -0.03600
N 	N 	0.12930 0.55075 0.09671 -0.27200
C 	C 	0.11450 0.45850 0.05883 0.12600
C 	C 	0.11170 0.41110 0.03829 -0.04000
N 	N 	0.01700 0.49346 0.01078 -0.08200
N 	N 	0.11960 0.32060 0.99970 -0.11000
C 	C 	0.07670 0.38240 0.99589 -0.01500
H 	H 	0.04960 0.39510 0.98000 0.05400
C 	C 	0.07070 0.42850 0.01453 0.06900
C 	C 	0.21640 0.51330 0.05733 -0.18300
H 	H 	0.28130 0.51980 0.04360 0.10500
C 	C 	0.15240 0.30330 0.02202 0.04700
H 	H 	0.17860 0.26000 0.02490 0.02500
C 	C 	0.15060 0.34630 0.04215 -0.07000
H 	H 	0.17530 0.33150 0.05790 0.05200
C 	C 	0.21820 0.55730 0.07655 0.10200
H 	H 	0.28550 0.59340 0.07530 -0.03500
C 	C 	0.03090 0.45130 0.07975 -0.19000
H 	H 	0.96640 0.41470 0.08190 0.08900
C 	C 	0.03850 0.49710 0.09825 0.09900
H 	H 	0.97770 0.49040 0.11240 -0.03700
N 	N 	0.12930 0.05075 0.59671 -0.27200
C 	C 	0.11450 0.95850 0.55883 0.12600
C 	C 	0.11170 0.91110 0.53829 -0.04000
N 	N 	0.01700 0.99346 0.51078 -0.08200
N 	N 	0.11960 0.82060 0.49970 -0.11000
C 	C 	0.07670 0.88240 0.49589 -0.01500
H 	H 	0.04960 0.89510 0.48000 0.05400
C 	C 	0.07070 0.92850 0.51453 0.06900
C 	C 	0.21640 0.01330 0.55733 -0.18300
H 	H 	0.28130 0.01980 0.54360 0.10500
C 	C 	0.15240 0.80330 0.52202 0.04700
H 	H 	0.17860 0.76000 0.52490 0.02500
C 	C 	0.15060 0.84630 0.54215 -0.07000
H 	H 	0.17530 0.83150 0.55790 0.05200
C 	C 	0.21820 0.05730 0.57655 0.10200
H 	H 	0.28550 0.09340 0.57530 -0.03500
C 	C 	0.03090 0.95130 0.57975 -0.19000
H 	H 	0.96640 0.91470 0.58190 0.08900
C 	C 	0.03850 0.99710 0.59825 0.09900
H 	H 	0.97770 0.99040 0.61240 -0.03700
N 	N 	0.62930 0.19925 0.15329 -0.27200
C 	C 	0.61450 0.29150 0.19117 0.12600
C 	C 	0.61170 0.33890 0.21171 -0.04100
N 	N 	0.51700 0.25654 0.23922 -0.08200
N 	N 	0.61960 0.42940 0.25030 -0.11000
C 	C 	0.57670 0.36760 0.25411 -0.01500
H 	H 	0.54960 0.35490 0.27000 0.05400
C 	C 	0.57070 0.32150 0.23547 0.06900
C 	C 	0.71640 0.23670 0.19267 -0.18300
H 	H 	0.78130 0.23020 0.20640 0.10500
C 	C 	0.65240 0.44670 0.22798 0.04700
H 	H 	0.67860 0.49000 0.22510 0.02500
C 	C 	0.65060 0.40370 0.20785 -0.07000
H 	H 	0.67530 0.41850 0.19210 0.05100
C 	C 	0.71820 0.19270 0.17345 0.10200
H 	H 	0.78550 0.15660 0.17470 -0.03500
C 	C 	0.53090 0.29870 0.17025 -0.19000
H 	H 	0.46640 0.33530 0.16810 0.09000
C 	C 	0.53850 0.25290 0.15175 0.09900
H 	H 	0.47770 0.25960 0.13760 -0.03600
N 	N 	0.62930 0.69925 0.65329 -0.27200
C 	C 	0.61450 0.79150 0.69117 0.12600
C 	C 	0.61170 0.83890 0.71171 -0.04100
N 	N 	0.51700 0.75654 0.73922 -0.08200
N 	N 	0.61960 0.92940 0.75030 -0.11000
C 	C 	0.57670 0.86760 0.75411 -0.01500
H 	H 	0.54960 0.85490 0.77000 0.05400
C 	C 	0.57070 0.82150 0.73547 0.06900
C 	C 	0.71640 0.73670 0.69267 -0.18300
H 	H 	0.78130 0.73020 0.70640 0.10500
C 	C 	0.65240 0.94670 0.72798 0.04700
H 	H 	0.67860 0.99000 0.72510 0.02500
C 	C 	0.65060 0.90370 0.70785 -0.07000
H 	H 	0.67530 0.91850 0.69210 0.05100
C 	C 	0.71820 0.69270 0.67345 0.10200
H 	H 	0.78550 0.65660 0.67470 -0.03500
C 	C 	0.53090 0.79870 0.67025 -0.19000
H 	H 	0.46640 0.83530 0.66810 0.09000
C 	C 	0.53850 0.75290 0.65175 0.09900
H 	H 	0.47770 0.75960 0.63760 -0.03600
N 	N 	0.12930 0.19925 0.65329 -0.27200
C 	C 	0.11450 0.29150 0.69117 0.12600
C 	C 	0.11170 0.33890 0.71171 -0.04000
N 	N 	0.01700 0.25654 0.73922 -0.08200
N 	N 	0.11960 0.42940 0.75030 -0.11000
C 	C 	0.07670 0.36760 0.75411 -0.01500
H 	H 	0.04960 0.35490 0.77000 0.05400
C 	C 	0.07070 0.32150 0.73547 0.06900
C 	C 	0.21640 0.23670 0.69267 -0.18300
H 	H 	0.28130 0.23020 0.70640 0.10500
C 	C 	0.15240 0.44670 0.72798 0.04700
H 	H 	0.17860 0.49000 0.72510 0.02500
C 	C 	0.15060 0.40370 0.70785 -0.07000
H 	H 	0.17530 0.41850 0.69210 0.05200
C 	C 	0.21820 0.19270 0.67345 0.10200
H 	H 	0.28550 0.15660 0.67470 -0.03500
C 	C 	0.03090 0.29870 0.67025 -0.19000
H 	H 	0.96640 0.33530 0.66810 0.08900
C 	C 	0.03850 0.25290 0.65175 0.09900
H 	H 	0.97770 0.25960 0.63760 -0.03700
N 	N 	0.12930 0.69925 0.15329 -0.27200
C 	C 	0.11450 0.79150 0.19117 0.12600
C 	C 	0.11170 0.83890 0.21171 -0.04100
N 	N 	0.01700 0.75654 0.23922 -0.08200
N 	N 	0.11960 0.92940 0.25030 -0.11000
C 	C 	0.07670 0.86760 0.25411 -0.01500
H 	H 	0.04960 0.85490 0.27000 0.05400
C 	C 	0.07070 0.82150 0.23547 0.06900
C 	C 	0.21640 0.73670 0.19267 -0.18300
H 	H 	0.28130 0.73020 0.20640 0.10500
C 	C 	0.15240 0.94670 0.22798 0.04700
H 	H 	0.17860 0.99000 0.22510 0.02500
C 	C 	0.15060 0.90370 0.20785 -0.07000
H 	H 	0.17530 0.91850 0.19210 0.05200
C 	C 	0.21820 0.69270 0.17345 0.10200
H 	H 	0.28550 0.65660 0.17470 -0.03500
C 	C 	0.03090 0.79870 0.17025 -0.19000
H 	H 	0.96640 0.83530 0.16810 0.08900
C 	C 	0.03850 0.75290 0.15175 0.09900
H 	H 	0.97770 0.75960 0.13760 -0.03700
N 	N 	0.12070 0.55075 0.15329 -0.27200
C 	C 	0.13550 0.45850 0.19117 0.12600
C 	C 	0.13830 0.41110 0.21171 -0.04100
N 	N 	0.23300 0.49346 0.23922 -0.08200
N 	N 	0.13040 0.32060 0.25030 -0.11000
C 	C 	0.17330 0.38240 0.25411 -0.01500
H 	H 	0.20040 0.39510 0.27000 0.05400
C 	C 	0.17930 0.42850 0.23547 0.06900
C 	C 	0.03360 0.51330 0.19267 -0.18300
H 	H 	0.96870 0.51980 0.20640 0.10500
C 	C 	0.09760 0.30330 0.22798 0.04700
H 	H 	0.07140 0.26000 0.22510 0.02500
C 	C 	0.09940 0.34630 0.20785 -0.07000
H 	H 	0.07470 0.33150 0.19210 0.05200
C 	C 	0.03180 0.55730 0.17345 0.10200
H 	H 	0.96450 0.59340 0.17470 -0.03600
C 	C 	0.21910 0.45130 0.17025 -0.19000
H 	H 	0.28360 0.41470 0.16810 0.09000
C 	C 	0.21150 0.49710 0.15175 0.09900
H 	H 	0.27230 0.49040 0.13760 -0.03600
N 	N 	0.12070 0.05075 0.65329 -0.27200
C 	C 	0.13550 0.95850 0.69117 0.12600
C 	C 	0.13830 0.91110 0.71171 -0.04100
N 	N 	0.23300 0.99346 0.73922 -0.08200
N 	N 	0.13040 0.82060 0.75030 -0.11000
C 	C 	0.17330 0.88240 0.75411 -0.01500
H 	H 	0.20040 0.89510 0.77000 0.05400
C 	C 	0.17930 0.92850 0.73547 0.06900
C 	C 	0.03360 0.01330 0.69267 -0.18200
H 	H 	0.96870 0.01980 0.70640 0.10500
C 	C 	0.09760 0.80330 0.72798 0.04700
H 	H 	0.07140 0.76000 0.72510 0.02500
C 	C 	0.09940 0.84630 0.70785 -0.07000
H 	H 	0.07470 0.83150 0.69210 0.05200
C 	C 	0.03180 0.05730 0.67345 0.10200
H 	H 	0.96450 0.09340 0.67470 -0.03600
C 	C 	0.21910 0.95130 0.67025 -0.19000
H 	H 	0.28360 0.91470 0.66810 0.09000
C 	C 	0.21150 0.99710 0.65175 0.09900
H 	H 	0.27230 0.99040 0.63760 -0.03600
N 	N 	0.62070 0.55075 0.65329 -0.27200
C 	C 	0.63550 0.45850 0.69117 0.12600
C 	C 	0.63830 0.41110 0.71171 -0.04100
N 	N 	0.73300 0.49346 0.73922 -0.08200
N 	N 	0.63040 0.32060 0.75030 -0.11000
C 	C 	0.67330 0.38240 0.75411 -0.01500
H 	H 	0.70040 0.39510 0.77000 0.05400
C 	C 	0.67930 0.42850 0.73547 0.06900
C 	C 	0.53360 0.51330 0.69267 -0.18300
H 	H 	0.46870 0.51980 0.70640 0.10500
C 	C 	0.59760 0.30330 0.72798 0.04700
H 	H 	0.57140 0.26000 0.72510 0.02500
C 	C 	0.59940 0.34630 0.70785 -0.07000
H 	H 	0.57470 0.33150 0.69210 0.05100
C 	C 	0.53180 0.55730 0.67345 0.10200
H 	H 	0.46450 0.59340 0.67470 -0.03500
C 	C 	0.71910 0.45130 0.67025 -0.19000
H 	H 	0.78360 0.41470 0.66810 0.09000
C 	C 	0.71150 0.49710 0.65175 0.09900
H 	H 	0.77230 0.49040 0.63760 -0.03700
N 	N 	0.62070 0.05075 0.15329 -0.27200
C 	C 	0.63550 0.95850 0.19117 0.12600
C 	C 	0.63830 0.91110 0.21171 -0.04100
N 	N 	0.73300 0.99346 0.23922 -0.08200
N 	N 	0.63040 0.82060 0.25030 -0.11000
C 	C 	0.67330 0.88240 0.25411 -0.01500
H 	H 	0.70040 0.89510 0.27000 0.05400
C 	C 	0.67930 0.92850 0.23547 0.06900
C 	C 	0.53360 0.01330 0.19267 -0.18300
H 	H 	0.46870 0.01980 0.20640 0.10500
C 	C 	0.59760 0.80330 0.22798 0.04700
H 	H 	0.57140 0.76000 0.22510 0.02500
C 	C 	0.59940 0.84630 0.20785 -0.07000
H 	H 	0.57470 0.83150 0.19210 0.05100
C 	C 	0.53180 0.05730 0.17345 0.10200
H 	H 	0.46450 0.09340 0.17470 -0.03500
C 	C 	0.71910 0.95130 0.17025 -0.19000
H 	H 	0.78360 0.91470 0.16810 0.09000
C 	C 	0.71150 0.99710 0.15175 0.09900
H 	H 	0.77230 0.99040 0.13760 -0.03700
N 	N 	0.87930 0.80075 0.40329 -0.27200
C 	C 	0.86450 0.70850 0.44117 0.12600
C 	C 	0.86170 0.66110 0.46171 -0.04100
N 	N 	0.76700 0.74346 0.48922 -0.08200
N 	N 	0.86960 0.57060 0.50030 -0.11000
C 	C 	0.82670 0.63240 0.50411 -0.01500
H 	H 	0.79960 0.64510 0.52000 0.05400
C 	C 	0.82070 0.67850 0.48547 0.06900
C 	C 	0.96640 0.76330 0.44267 -0.18300
H 	H 	0.03130 0.76980 0.45640 0.10500
C 	C 	0.90240 0.55330 0.47798 0.04700
H 	H 	0.92860 0.51000 0.47510 0.02500
C 	C 	0.90060 0.59630 0.45785 -0.07000
H 	H 	0.92530 0.58150 0.44210 0.05200
C 	C 	0.96820 0.80730 0.42345 0.10200
H 	H 	0.03550 0.84340 0.42470 -0.03600
C 	C 	0.78090 0.70130 0.42025 -0.19000
H 	H 	0.71640 0.66470 0.41810 0.09000
C 	C 	0.78850 0.74710 0.40175 0.09900
H 	H 	0.72770 0.74040 0.38760 -0.03600
N 	N 	0.87930 0.30075 0.90329 -0.27200
C 	C 	0.86450 0.20850 0.94117 0.12600
C 	C 	0.86170 0.16110 0.96171 -0.04100
N 	N 	0.76700 0.24346 0.98922 -0.08200
N 	N 	0.86960 0.07060 0.00030 -0.11000
C 	C 	0.82670 0.13240 0.00411 -0.01500
H 	H 	0.79960 0.14510 0.02000 0.05400
C 	C 	0.82070 0.17850 0.98547 0.06900
C 	C 	0.96640 0.26330 0.94267 -0.18300
H 	H 	0.03130 0.26980 0.95640 0.10500
C 	C 	0.90240 0.05330 0.97798 0.04700
H 	H 	0.92860 0.01000 0.97510 0.02500
C 	C 	0.90060 0.09630 0.95785 -0.07000
H 	H 	0.92530 0.08150 0.94210 0.05200
C 	C 	0.96820 0.30730 0.92345 0.10200
H 	H 	0.03550 0.34340 0.92470 -0.03600
C 	C 	0.78090 0.20130 0.92025 -0.19000
H 	H 	0.71640 0.16470 0.91810 0.09000
C 	C 	0.78850 0.24710 0.90175 0.09900
H 	H 	0.72770 0.24040 0.88760 -0.03600
N 	N 	0.37930 0.80075 0.90329 -0.27200
C 	C 	0.36450 0.70850 0.94117 0.12600
C 	C 	0.36170 0.66110 0.96171 -0.04100
N 	N 	0.26700 0.74346 0.98922 -0.08200
N 	N 	0.36960 0.57060 0.00030 -0.11000
C 	C 	0.32670 0.63240 0.00411 -0.01500
H 	H 	0.29960 0.64510 0.02000 0.05400
C 	C 	0.32070 0.67850 0.98547 0.06900
C 	C 	0.46640 0.76330 0.94267 -0.18300
H 	H 	0.53130 0.76980 0.95640 0.10500
C 	C 	0.40240 0.55330 0.97798 0.04700
H 	H 	0.42860 0.51000 0.97510 0.02500
C 	C 	0.40060 0.59630 0.95785 -0.07000
H 	H 	0.42530 0.58150 0.94210 0.05100
C 	C 	0.46820 0.80730 0.92345 0.10200
H 	H 	0.53550 0.84340 0.92470 -0.03500
C 	C 	0.28090 0.70130 0.92025 -0.19000
H 	H 	0.21640 0.66470 0.91810 0.09000
C 	C 	0.28850 0.74710 0.90175 0.09900
H 	H 	0.22770 0.74040 0.88760 -0.03700
N 	N 	0.37930 0.30075 0.40329 -0.27200
C 	C 	0.36450 0.20850 0.44117 0.12600
C 	C 	0.36170 0.16110 0.46171 -0.04100
N 	N 	0.26700 0.24346 0.48922 -0.08200
N 	N 	0.36960 0.07060 0.50030 -0.11000
C 	C 	0.32670 0.13240 0.50411 -0.01500
H 	H 	0.29960 0.14510 0.52000 0.05400
C 	C 	0.32070 0.17850 0.48547 0.06900
C 	C 	0.46640 0.26330 0.44267 -0.18300
H 	H 	0.53130 0.26980 0.45640 0.10500
C 	C 	0.40240 0.05330 0.47798 0.04700
H 	H 	0.42860 0.01000 0.47510 0.02500
C 	C 	0.40060 0.09630 0.45785 -0.07000
H 	H 	0.42530 0.08150 0.44210 0.05100
C 	C 	0.46820 0.30730 0.42345 0.10200
H 	H 	0.53550 0.34340 0.42470 -0.03500
C 	C 	0.28090 0.20130 0.42025 -0.19000
H 	H 	0.21640 0.16470 0.41810 0.09000
C 	C 	0.28850 0.24710 0.40175 0.09900
H 	H 	0.22770 0.24040 0.38760 -0.03700
N 	N 	0.37070 0.44925 0.40329 -0.27200
C 	C 	0.38550 0.54150 0.44117 0.12600
C 	C 	0.38830 0.58890 0.46171 -0.04100
N 	N 	0.48300 0.50654 0.48922 -0.08200
N 	N 	0.38040 0.67940 0.50030 -0.11000
C 	C 	0.42330 0.61760 0.50411 -0.01500
H 	H 	0.45040 0.60490 0.52000 0.05400
C 	C 	0.42930 0.57150 0.48547 0.06900
C 	C 	0.28360 0.48670 0.44267 -0.18300
H 	H 	0.21870 0.48020 0.45640 0.10500
C 	C 	0.34760 0.69670 0.47798 0.04700
H 	H 	0.32140 0.74000 0.47510 0.02500
C 	C 	0.34940 0.65370 0.45785 -0.07000
H 	H 	0.32470 0.66850 0.44210 0.05100
C 	C 	0.28180 0.44270 0.42345 0.10200
H 	H 	0.21450 0.40660 0.42470 -0.03500
C 	C 	0.46910 0.54870 0.42025 -0.19000
H 	H 	0.53360 0.58530 0.41810 0.09000
C 	C 	0.46150 0.50290 0.40175 0.09900
H 	H 	0.52230 0.50960 0.38760 -0.03600
N 	N 	0.37070 0.94925 0.90329 -0.27200
C 	C 	0.38550 0.04150 0.94117 0.12600
C 	C 	0.38830 0.08890 0.96171 -0.04100
N 	N 	0.48300 0.00654 0.98922 -0.08200
N 	N 	0.38040 0.17940 0.00030 -0.11000
C 	C 	0.42330 0.11760 0.00411 -0.01500
H 	H 	0.45040 0.10490 0.02000 0.05400
C 	C 	0.42930 0.07150 0.98547 0.06900
C 	C 	0.28360 0.98670 0.94267 -0.18300
H 	H 	0.21870 0.98020 0.95640 0.10500
C 	C 	0.34760 0.19670 0.97798 0.04700
H 	H 	0.32140 0.24000 0.97510 0.02500
C 	C 	0.34940 0.15370 0.95785 -0.07000
H 	H 	0.32470 0.16850 0.94210 0.05100
C 	C 	0.28180 0.94270 0.92345 0.10200
H 	H 	0.21450 0.90660 0.92470 -0.03500
C 	C 	0.46910 0.04870 0.92025 -0.19000
H 	H 	0.53360 0.08530 0.91810 0.09000
C 	C 	0.46150 0.00290 0.90175 0.09900
H 	H 	0.52230 0.00960 0.88760 -0.03600
N 	N 	0.87070 0.44925 0.90329 -0.27200
C 	C 	0.88550 0.54150 0.94117 0.12600
C 	C 	0.88830 0.58890 0.96171 -0.04000
N 	N 	0.98300 0.50654 0.98922 -0.08200
N 	N 	0.88040 0.67940 0.00030 -0.11000
C 	C 	0.92330 0.61760 0.00411 -0.01500
H 	H 	0.95040 0.60490 0.02000 0.05400
C 	C 	0.92930 0.57150 0.98547 0.06900
C 	C 	0.78360 0.48670 0.94267 -0.18300
H 	H 	0.71870 0.48020 0.95640 0.10500
C 	C 	0.84760 0.69670 0.97798 0.04700
H 	H 	0.82140 0.74000 0.97510 0.02500
C 	C 	0.84940 0.65370 0.95785 -0.07000
H 	H 	0.82470 0.66850 0.94210 0.05200
C 	C 	0.78180 0.44270 0.92345 0.10200
H 	H 	0.71450 0.40660 0.92470 -0.03500
C 	C 	0.96910 0.54870 0.92025 -0.19000
H 	H 	0.03360 0.58530 0.91810 0.08900
C 	C 	0.96150 0.50290 0.90175 0.09900
H 	H 	0.02230 0.50960 0.88760 -0.03700
N 	N 	0.87070 0.94925 0.40329 -0.27200
C 	C 	0.88550 0.04150 0.44117 0.12600
C 	C 	0.88830 0.08890 0.46171 -0.04000
N 	N 	0.98300 0.00654 0.48922 -0.08200
N 	N 	0.88040 0.17940 0.50030 -0.11000
C 	C 	0.92330 0.11760 0.50411 -0.01500
H 	H 	0.95040 0.10490 0.52000 0.05400
C 	C 	0.92930 0.07150 0.48547 0.06900
C 	C 	0.78360 0.98670 0.44267 -0.18300
H 	H 	0.71870 0.98020 0.45640 0.10500
C 	C 	0.84760 0.19670 0.47798 0.04700
H 	H 	0.82140 0.24000 0.47510 0.02500
C 	C 	0.84940 0.15370 0.45785 -0.07000
H 	H 	0.82470 0.16850 0.44210 0.05200
C 	C 	0.78180 0.94270 0.42345 0.10200
H 	H 	0.71450 0.90660 0.42470 -0.03500
C 	C 	0.96910 0.04870 0.42025 -0.19000
H 	H 	0.03360 0.08530 0.41810 0.08900
C 	C 	0.96150 0.00290 0.40175 0.09900
H 	H 	0.02230 0.00960 0.38760 -0.03700
N 	N 	0.37070 0.80075 0.84671 -0.27200
C 	C 	0.38550 0.70850 0.80883 0.12600
C 	C 	0.38830 0.66110 0.78829 -0.04100
N 	N 	0.48300 0.74346 0.76078 -0.08200
N 	N 	0.38040 0.57060 0.74970 -0.11000
C 	C 	0.42330 0.63240 0.74589 -0.01500
H 	H 	0.45040 0.64510 0.73000 0.05400
C 	C 	0.42930 0.67850 0.76453 0.06900
C 	C 	0.28360 0.76330 0.80733 -0.18300
H 	H 	0.21870 0.76980 0.79360 0.10500
C 	C 	0.34760 0.55330 0.77202 0.04700
H 	H 	0.32140 0.51000 0.77490 0.02500
C 	C 	0.34940 0.59630 0.79215 -0.07000
H 	H 	0.32470 0.58150 0.80790 0.05100
C 	C 	0.28180 0.80730 0.82655 0.10200
H 	H 	0.21450 0.84340 0.82530 -0.03500
C 	C 	0.46910 0.70130 0.82975 -0.19000
H 	H 	0.53360 0.66470 0.83190 0.09000
C 	C 	0.46150 0.74710 0.84825 0.09900
H 	H 	0.52230 0.74040 0.86240 -0.03600
N 	N 	0.37070 0.30075 0.34671 -0.27200
C 	C 	0.38550 0.20850 0.30883 0.12600
C 	C 	0.38830 0.16110 0.28829 -0.04100
N 	N 	0.48300 0.24346 0.26078 -0.08200
N 	N 	0.38040 0.07060 0.24970 -0.11000
C 	C 	0.42330 0.13240 0.24589 -0.01500
H 	H 	0.45040 0.14510 0.23000 0.05400
C 	C 	0.42930 0.17850 0.26453 0.06900
C 	C 	0.28360 0.26330 0.30733 -0.18300
H 	H 	0.21870 0.26980 0.29360 0.10500
C 	C 	0.34760 0.05330 0.27202 0.04700
H 	H 	0.32140 0.01000 0.27490 0.02500
C 	C 	0.34940 0.09630 0.29215 -0.07000
H 	H 	0.32470 0.08150 0.30790 0.05100
C 	C 	0.28180 0.30730 0.32655 0.10200
H 	H 	0.21450 0.34340 0.32530 -0.03500
C 	C 	0.46910 0.20130 0.32975 -0.19000
H 	H 	0.53360 0.16470 0.33190 0.09000
C 	C 	0.46150 0.24710 0.34825 0.09900
H 	H 	0.52230 0.24040 0.36240 -0.03600
N 	N 	0.87070 0.80075 0.34671 -0.27200
C 	C 	0.88550 0.70850 0.30883 0.12600
C 	C 	0.88830 0.66110 0.28829 -0.04000
N 	N 	0.98300 0.74346 0.26078 -0.08200
N 	N 	0.88040 0.57060 0.24970 -0.11000
C 	C 	0.92330 0.63240 0.24589 -0.01500
H 	H 	0.95040 0.64510 0.23000 0.05400
C 	C 	0.92930 0.67850 0.26453 0.06900
C 	C 	0.78360 0.76330 0.30733 -0.18300
H 	H 	0.71870 0.76980 0.29360 0.10500
C 	C 	0.84760 0.55330 0.27202 0.04700
H 	H 	0.82140 0.51000 0.27490 0.02500
C 	C 	0.84940 0.59630 0.29215 -0.07000
H 	H 	0.82470 0.58150 0.30790 0.05200
C 	C 	0.78180 0.80730 0.32655 0.10200
H 	H 	0.71450 0.84340 0.32530 -0.03500
C 	C 	0.96910 0.70130 0.32975 -0.19000
H 	H 	0.03360 0.66470 0.33190 0.08900
C 	C 	0.96150 0.74710 0.34825 0.09900
H 	H 	0.02230 0.74040 0.36240 -0.03700
N 	N 	0.87070 0.30075 0.84671 -0.27200
C 	C 	0.88550 0.20850 0.80883 0.12600
C 	C 	0.88830 0.16110 0.78829 -0.04100
N 	N 	0.98300 0.24346 0.76078 -0.08200
N 	N 	0.88040 0.07060 0.74970 -0.11000
C 	C 	0.92330 0.13240 0.74589 -0.01500
H 	H 	0.95040 0.14510 0.73000 0.05400
C 	C 	0.92930 0.17850 0.76453 0.06900
C 	C 	0.78360 0.26330 0.80733 -0.18300
H 	H 	0.71870 0.26980 0.79360 0.10500
C 	C 	0.84760 0.05330 0.77202 0.04700
H 	H 	0.82140 0.01000 0.77490 0.02500
C 	C 	0.84940 0.09630 0.79215 -0.07000
H 	H 	0.82470 0.08150 0.80790 0.05200
C 	C 	0.78180 0.30730 0.82655 0.10200
H 	H 	0.71450 0.34340 0.82530 -0.03500
C 	C 	0.96910 0.20130 0.82975 -0.19000
H 	H 	0.03360 0.16470 0.83190 0.08900
C 	C 	0.96150 0.24710 0.84825 0.09900
H 	H 	0.02230 0.24040 0.86240 -0.03700
N 	N 	0.87930 0.44925 0.84671 -0.27200
C 	C 	0.86450 0.54150 0.80883 0.12600
C 	C 	0.86170 0.58890 0.78829 -0.04100
N 	N 	0.76700 0.50654 0.76078 -0.08200
N 	N 	0.86960 0.67940 0.74970 -0.11000
C 	C 	0.82670 0.61760 0.74589 -0.01500
H 	H 	0.79960 0.60490 0.73000 0.05400
C 	C 	0.82070 0.57150 0.76453 0.06900
C 	C 	0.96640 0.48670 0.80733 -0.18300
H 	H 	0.03130 0.48020 0.79360 0.10500
C 	C 	0.90240 0.69670 0.77202 0.04700
H 	H 	0.92860 0.74000 0.77490 0.02500
C 	C 	0.90060 0.65370 0.79215 -0.07000
H 	H 	0.92530 0.66850 0.80790 0.05200
C 	C 	0.96820 0.44270 0.82655 0.10200
H 	H 	0.03550 0.40660 0.82530 -0.03600
C 	C 	0.78090 0.54870 0.82975 -0.19000
H 	H 	0.71640 0.58530 0.83190 0.09000
C 	C 	0.78850 0.50290 0.84825 0.09900
H 	H 	0.72770 0.50960 0.86240 -0.03600
N 	N 	0.87930 0.94925 0.34671 -0.27200
C 	C 	0.86450 0.04150 0.30883 0.12600
C 	C 	0.86170 0.08890 0.28829 -0.04100
N 	N 	0.76700 0.00654 0.26078 -0.08200
N 	N 	0.86960 0.17940 0.24970 -0.11000
C 	C 	0.82670 0.11760 0.24589 -0.01500
H 	H 	0.79960 0.10490 0.23000 0.05400
C 	C 	0.82070 0.07150 0.26453 0.06900
C 	C 	0.96640 0.98670 0.30733 -0.18200
H 	H 	0.03130 0.98020 0.29360 0.10500
C 	C 	0.90240 0.19670 0.27202 0.04700
H 	H 	0.92860 0.24000 0.27490 0.02500
C 	C 	0.90060 0.15370 0.29215 -0.07000
H 	H 	0.92530 0.16850 0.30790 0.05200
C 	C 	0.96820 0.94270 0.32655 0.10200
H 	H 	0.03550 0.90660 0.32530 -0.03600
C 	C 	0.78090 0.04870 0.32975 -0.19000
H 	H 	0.71640 0.08530 0.33190 0.09000
C 	C 	0.78850 0.00290 0.34825 0.09900
H 	H 	0.72770 0.00960 0.36240 -0.03600
N 	N 	0.37930 0.44925 0.34671 -0.27200
C 	C 	0.36450 0.54150 0.30883 0.12600
C 	C 	0.36170 0.58890 0.28829 -0.04100
N 	N 	0.26700 0.50654 0.26078 -0.08200
N 	N 	0.36960 0.67940 0.24970 -0.11000
C 	C 	0.32670 0.61760 0.24589 -0.01500
H 	H 	0.29960 0.60490 0.23000 0.05400
C 	C 	0.32070 0.57150 0.26453 0.06900
C 	C 	0.46640 0.48670 0.30733 -0.18300
H 	H 	0.53130 0.48020 0.29360 0.10500
C 	C 	0.40240 0.69670 0.27202 0.04700
H 	H 	0.42860 0.74000 0.27490 0.02500
C 	C 	0.40060 0.65370 0.29215 -0.07000
H 	H 	0.42530 0.66850 0.30790 0.05100
C 	C 	0.46820 0.44270 0.32655 0.10200
H 	H 	0.53550 0.40660 0.32530 -0.03500
C 	C 	0.28090 0.54870 0.32975 -0.19000
H 	H 	0.21640 0.58530 0.33190 0.09000
C 	C 	0.28850 0.50290 0.34825 0.09900
H 	H 	0.22770 0.50960 0.36240 -0.03700
N 	N 	0.37930 0.94925 0.84671 -0.27200
C 	C 	0.36450 0.04150 0.80883 0.12600
C 	C 	0.36170 0.08890 0.78829 -0.04100
N 	N 	0.26700 0.00654 0.76078 -0.08200
N 	N 	0.36960 0.17940 0.74970 -0.11000
C 	C 	0.32670 0.11760 0.74589 -0.01500
H 	H 	0.29960 0.10490 0.73000 0.05400
C 	C 	0.32070 0.07150 0.76453 0.06900
C 	C 	0.46640 0.98670 0.80733 -0.18300
H 	H 	0.53130 0.98020 0.79360 0.10500
C 	C 	0.40240 0.19670 0.77202 0.04700
H 	H 	0.42860 0.24000 0.77490 0.02500
C 	C 	0.40060 0.15370 0.79215 -0.07000
H 	H 	0.42530 0.16850 0.80790 0.05100
C 	C 	0.46820 0.94270 0.82655 0.10200
H 	H 	0.53550 0.90660 0.82530 -0.03500
C 	C 	0.28090 0.04870 0.82975 -0.19000
H 	H 	0.21640 0.08530 0.83190 0.09000
C 	C 	0.28850 0.00290 0.84825 0.09900
H 	H 	0.22770 0.00960 0.86240 -0.03700
Co	Co	0.12500 0.12500 0.62500 1.06500
Co	Co	0.62500 0.62500 0.62500 1.06500
Co	Co	0.62500 0.12500 0.12500 1.06500
Co	Co	0.12500 0.62500 0.12500 1.06500
Co	Co	0.87500 0.87500 0.37500 1.06500
Co	Co	0.37500 0.37500 0.37500 1.06500
Co	Co	0.37500 0.87500 0.87500 1.06500
Co	Co	0.87500 0.37500 0.87500 1.06500
