data_crystal

_cell_length_a 15.68250
_cell_length_b 39.50300
_cell_length_c 17.27630
_cell_angle_alpha 90.00000
_cell_angle_beta  93.79100
_cell_angle_gamma 90.00000

_symmetry_space_group_name_	'P 1'
_symmetry_space_group_name_H-M	'P 1'

loop_
_symmetry_equiv_pos_as_xyz
  x,y,z

loop_
_atom_site_label
_atom_site_type_symbol
_atom_site_fract_x
_atom_site_fract_y
_atom_site_fract_z
_atom_site_charge
Mo	Mo	0.79250 0.58429 0.97951 1.10300
Mo	Mo	0.83229 0.62991 0.08517 1.09800
O 	O 	0.74440 0.62880 0.00140 -0.64500
O 	O 	0.69610 0.57960 0.89170 -0.37900
O 	O 	0.85410 0.58150 0.08050 -0.66300
O 	O 	0.80310 0.53200 0.96690 -0.37100
O 	O 	0.68620 0.56790 0.04720 -0.31600
O 	O 	0.71360 0.60910 0.15710 -0.41100
O 	O 	0.88480 0.62930 0.19460 -0.43500
O 	O 	0.78200 0.67600 0.11500 -0.39900
Co	Co	0.64095 0.65730 0.97130 1.14700
P 	P 	0.64400 0.60042 0.83220 0.57000
Co	Co	0.88027 0.54585 0.16409 1.13900
P 	P 	0.85090 0.50114 0.99930 0.55600
P 	P 	0.68610 0.57171 0.13500 0.45100
Mo	Mo	0.65877 0.63032 0.27394 1.10300
P 	P 	0.86930 0.61428 0.27430 0.56700
P 	P 	0.69380 0.68736 0.13940 0.55100
O 	O 	0.60430 0.63160 0.86970 -0.52700
O 	O 	0.62330 0.67440 0.08470 -0.58400
O 	O 	0.54310 0.68810 0.92940 -0.56700
N 	N 	0.22700 0.80670 0.42380 -0.23300
O 	O 	0.57940 0.57810 0.79020 -0.38200
O 	O 	0.70550 0.61430 0.77130 -0.48400
O 	O 	0.87430 0.50470 0.08780 -0.56000
O 	O 	0.74400 0.54320 0.17800 -0.48300
O 	O 	0.92910 0.50520 0.23330 -0.58400
O 	O 	0.86120 0.57510 0.26770 -0.52200
O 	O 	0.79330 0.47120 0.98220 -0.37100
O 	O 	0.93410 0.49610 0.95840 -0.47300
O 	O 	0.59180 0.56720 0.15140 -0.31500
O 	O 	0.78660 0.62850 0.30530 -0.41900
Mo	Mo	0.53600 0.58621 0.25648 1.10800
O 	O 	0.65450 0.58280 0.29880 -0.65800
O 	O 	0.55420 0.63060 0.20930 -0.64700
O 	O 	0.68580 0.67650 0.22440 -0.38800
O 	O 	0.94290 0.62240 0.33170 -0.48100
O 	O 	0.68890 0.72720 0.13680 -0.41600
Co	Co	0.48335 0.65662 0.84650 1.15800
Co	Co	0.50460 0.65829 0.11820 1.14500
P 	P 	0.49630 0.71258 0.98340 0.56500
Mo	Mo	0.46323 0.57830 0.72573 1.11400
H 	H 	0.72790 0.59840 0.75000 0.26200
Co	Co	0.87795 0.46583 0.17013 1.12000
Co	Co	0.74970 0.54654 0.30920 1.12600
P 	P 	0.92760 0.50537 0.32320 0.55500
Mo	Mo	0.79235 0.41869 0.99732 1.10600
O 	O 	0.52340 0.53490 0.27040 -0.37700
O 	O 	0.42790 0.58140 0.18290 -0.36000
H 	H 	0.94800 0.64300 0.33580 0.28400
H 	H 	0.64980 0.73310 0.10590 0.23200
O 	O 	0.44400 0.62500 0.75930 -0.63900
O 	O 	0.41900 0.62150 0.92500 -0.47700
O 	O 	0.35960 0.68090 0.87340 -0.51600
N 	N 	0.53140 0.69030 0.76390 -0.24100
O 	O 	0.38790 0.63370 0.10150 -0.53600
O 	O 	0.44580 0.68970 0.03340 -0.56900
N 	N 	0.45990 0.69340 0.20100 -0.23400
O 	O 	0.43460 0.73540 0.93140 -0.44900
O 	O 	0.55460 0.73710 0.02960 -0.43400
O 	O 	0.47370 0.52640 0.72440 -0.37100
Mo	Mo	0.33502 0.61974 0.70052 1.10100
O 	O 	0.42010 0.56800 0.83830 -0.32900
O 	O 	0.34280 0.57050 0.69320 -0.63500
O 	O 	0.85000 0.42590 0.09810 -0.67700
O 	O 	0.84440 0.43940 0.26890 -0.59100
O 	O 	0.83260 0.50670 0.34160 -0.57700
O 	O 	0.65900 0.50540 0.32020 -0.55800
O 	O 	0.97910 0.47680 0.36070 -0.44500
O 	O 	0.97390 0.53760 0.35600 -0.45000
Mo	Mo	0.83685 0.37753 0.11124 1.09600
O 	O 	0.75400 0.37260 0.02420 -0.64200
O 	O 	0.70490 0.41940 0.90590 -0.38000
O 	O 	0.67740 0.43170 0.05690 -0.31300
P 	P 	0.56190 0.50466 0.31510 0.57400
P 	P 	0.35460 0.60323 0.14560 0.56200
Co	Co	0.34786 0.65816 0.99200 1.15800
P 	P 	0.36450 0.59143 0.88240 0.44900
P 	P 	0.28380 0.68386 0.81460 0.57100
C 	C 	0.57390 0.68040 0.70560 0.10900
C 	C 	0.53600 0.72450 0.77600 0.07500
C 	C 	0.41680 0.68410 0.26260 0.10000
C 	C 	0.45900 0.72730 0.18800 0.07200
H 	H 	0.40140 0.72340 0.90500 0.26500
H 	H 	0.58950 0.72650 0.05740 0.21200
O 	O 	0.30280 0.66640 0.73800 -0.41400
O 	O 	0.29060 0.60620 0.82650 -0.41700
O 	O 	0.20480 0.61490 0.66900 -0.38500
Co	Co	0.25270 0.53346 0.68283 1.14100
P 	P 	0.86900 0.40319 0.29350 0.55600
H 	H 	0.95770 0.45860 0.34690 0.21700
H 	H 	0.95040 0.55450 0.33690 0.26900
O 	O 	0.79430 0.33190 0.14950 -0.40200
O 	O 	0.89350 0.38330 0.22160 -0.40700
O 	O 	0.52920 0.50370 0.39850 -0.47700
O 	O 	0.30450 0.61750 0.21160 -0.48100
N 	N 	0.76330 0.80590 0.53900 -0.22700
O 	O 	0.26570 0.72130 0.79940 -0.44800
C 	C 	0.62300 0.70100 0.66350 -0.16100
H 	H 	0.57010 0.65760 0.69160 -0.03400
H 	H 	0.50780 0.73370 0.81650 0.01400
C 	C 	0.57900 0.74550 0.73160 -0.14300
H 	H 	0.41610 0.66120 0.27490 -0.02900
C 	C 	0.37630 0.70440 0.30600 -0.16500
C 	C 	0.41590 0.75140 0.23020 -0.12800
H 	H 	0.49010 0.73520 0.14700 0.02100
N 	N 	0.24500 0.54340 0.56250 -0.23600
O 	O 	0.94460 0.40280 0.35370 -0.44100
H 	H 	0.55170 0.51900 0.42450 0.24300
H 	H 	0.26490 0.62920 0.19330 0.25500
H 	H 	0.30690 0.73000 0.78040 0.27200
C 	C 	0.62710 0.73510 0.67450 0.07700
H 	H 	0.65570 0.69130 0.62600 0.07800
H 	H 	0.57460 0.76860 0.74070 0.08000
C 	C 	0.37140 0.73860 0.29070 0.06500
H 	H 	0.35000 0.69580 0.34840 0.07900
H 	H 	0.41700 0.77440 0.21870 0.08300
C 	C 	0.31930 0.54630 0.52710 0.06900
C 	C 	0.17460 0.53450 0.51850 0.08200
H 	H 	0.96150 0.42220 0.36170 0.24000
C 	C 	0.67300 0.75960 0.62810 0.03800
C 	C 	0.32520 0.76210 0.33880 0.05300
H 	H 	0.36900 0.55260 0.55590 -0.03000
C 	C 	0.32200 0.54000 0.44710 -0.15100
C 	C 	0.17570 0.52730 0.43950 -0.15100
H 	H 	0.12290 0.53300 0.54180 0.01800
C 	C 	0.66400 0.79440 0.63990 -0.13000
C 	C 	0.72600 0.74790 0.57400 -0.10900
C 	C 	0.33560 0.79680 0.33400 -0.13900
C 	C 	0.26370 0.75100 0.38600 -0.13100
C 	C 	0.25370 0.52890 0.40260 0.08700
H 	H 	0.37300 0.54360 0.42390 0.07800
H 	H 	0.12540 0.52140 0.41110 0.12300
C 	C 	0.70900 0.81600 0.58960 0.06700
H 	H 	0.63110 0.80310 0.67810 0.06400
C 	C 	0.76710 0.77250 0.52600 0.05900
H 	H 	0.73470 0.72480 0.56800 0.06900
C 	C 	0.28740 0.81800 0.37990 0.07700
H 	H 	0.37390 0.80600 0.30110 0.07400
C 	C 	0.21690 0.77410 0.42800 0.08500
H 	H 	0.25310 0.72790 0.39010 0.07700
H 	H 	0.69940 0.83920 0.59290 -0.04300
H 	H 	0.79740 0.76470 0.48560 0.02400
H 	H 	0.29840 0.84110 0.37940 -0.03400
H 	H 	0.17680 0.76570 0.46020 0.01000
H 	H 	0.97520 0.49910 0.98960 0.18100
Mo	Mo	0.70750 0.08429 0.52049 1.10300
Mo	Mo	0.66771 0.12991 0.41483 1.09700
O 	O 	0.75560 0.12880 0.49860 -0.64700
O 	O 	0.80390 0.07960 0.60830 -0.38000
O 	O 	0.64590 0.08150 0.41950 -0.66400
O 	O 	0.69690 0.03200 0.53310 -0.37200
O 	O 	0.81380 0.06790 0.45280 -0.31600
O 	O 	0.78640 0.10910 0.34290 -0.41100
O 	O 	0.61520 0.12930 0.30540 -0.43500
O 	O 	0.71800 0.17600 0.38500 -0.39900
Co	Co	0.85905 0.15730 0.52870 1.14700
P 	P 	0.85600 0.10042 0.66780 0.57000
Co	Co	0.61973 0.04585 0.33591 1.13900
P 	P 	0.64910 0.00114 0.50070 0.55600
P 	P 	0.81390 0.07171 0.36500 0.45100
Mo	Mo	0.84123 0.13032 0.22606 1.10300
P 	P 	0.63070 0.11428 0.22570 0.56700
P 	P 	0.80620 0.18736 0.36060 0.55100
O 	O 	0.89570 0.13160 0.63030 -0.52600
O 	O 	0.87670 0.17440 0.41530 -0.58500
O 	O 	0.95690 0.18810 0.57060 -0.56700
N 	N 	0.27300 0.30670 0.07620 -0.23300
O 	O 	0.92060 0.07810 0.70980 -0.38200
O 	O 	0.79450 0.11430 0.72870 -0.48400
O 	O 	0.62570 0.00470 0.41220 -0.56000
O 	O 	0.75600 0.04320 0.32200 -0.48300
O 	O 	0.57090 0.00520 0.26670 -0.58400
O 	O 	0.63880 0.07510 0.23230 -0.52200
O 	O 	0.70670 0.97120 0.51780 -0.37100
O 	O 	0.56590 0.99610 0.54160 -0.47300
O 	O 	0.90820 0.06720 0.34860 -0.31500
O 	O 	0.71340 0.12850 0.19470 -0.41900
Mo	Mo	0.96400 0.08621 0.24352 1.10800
O 	O 	0.84550 0.08280 0.20120 -0.65800
O 	O 	0.94580 0.13060 0.29070 -0.64600
O 	O 	0.81420 0.17650 0.27560 -0.38800
O 	O 	0.55710 0.12240 0.16830 -0.48100
O 	O 	0.81110 0.22720 0.36320 -0.41600
Co	Co	0.01665 0.15662 0.65350 1.15800
Co	Co	0.99540 0.15829 0.38180 1.14500
P 	P 	0.00370 0.21258 0.51660 0.56600
Mo	Mo	0.03677 0.07830 0.77427 1.11400
H 	H 	0.77210 0.09840 0.75000 0.26200
Co	Co	0.62205 0.96583 0.32987 1.12000
Co	Co	0.75030 0.04654 0.19080 1.12600
P 	P 	0.57240 0.00537 0.17680 0.55500
Mo	Mo	0.70765 0.91869 0.50268 1.10500
O 	O 	0.97660 0.03490 0.22960 -0.37700
O 	O 	0.07210 0.08140 0.31710 -0.36000
H 	H 	0.55200 0.14300 0.16420 0.28400
H 	H 	0.85020 0.23310 0.39410 0.23200
O 	O 	0.05600 0.12500 0.74070 -0.63900
O 	O 	0.08100 0.12150 0.57500 -0.47700
O 	O 	0.14040 0.18090 0.62660 -0.51600
N 	N 	0.96860 0.19030 0.73610 -0.24100
O 	O 	0.11210 0.13370 0.39850 -0.53700
O 	O 	0.05420 0.18970 0.46660 -0.57100
N 	N 	0.04010 0.19340 0.29900 -0.23400
O 	O 	0.06540 0.23540 0.56860 -0.44900
O 	O 	0.94540 0.23710 0.47040 -0.43500
O 	O 	0.02630 0.02640 0.77560 -0.37100
Mo	Mo	0.16498 0.11974 0.79948 1.10100
O 	O 	0.07990 0.06800 0.66170 -0.32900
O 	O 	0.15720 0.07050 0.80680 -0.63500
O 	O 	0.65000 0.92590 0.40190 -0.67600
O 	O 	0.65560 0.93940 0.23110 -0.59100
O 	O 	0.66740 0.00670 0.15840 -0.57700
O 	O 	0.84100 0.00540 0.17980 -0.55800
O 	O 	0.52090 0.97680 0.13930 -0.44500
O 	O 	0.52610 0.03760 0.14400 -0.45000
Mo	Mo	0.66315 0.87753 0.38876 1.09600
O 	O 	0.74600 0.87260 0.47580 -0.64100
O 	O 	0.79510 0.91940 0.59410 -0.38000
O 	O 	0.82260 0.93170 0.44310 -0.31200
P 	P 	0.93810 0.00466 0.18490 0.57400
P 	P 	0.14540 0.10323 0.35440 0.56200
Co	Co	0.15214 0.15816 0.50800 1.15900
P 	P 	0.13550 0.09143 0.61760 0.44900
P 	P 	0.21620 0.18386 0.68540 0.57100
C 	C 	0.92610 0.18040 0.79440 0.10900
C 	C 	0.96400 0.22450 0.72400 0.07500
C 	C 	0.08320 0.18410 0.23740 0.10000
C 	C 	0.04100 0.22730 0.31200 0.07100
H 	H 	0.09860 0.22340 0.59500 0.26500
H 	H 	0.91050 0.22650 0.44260 0.21200
O 	O 	0.19720 0.16640 0.76200 -0.41400
O 	O 	0.20940 0.10620 0.67350 -0.41700
O 	O 	0.29520 0.11490 0.83100 -0.38500
Co	Co	0.24730 0.03346 0.81717 1.14100
P 	P 	0.63100 0.90319 0.20650 0.55600
H 	H 	0.54230 0.95860 0.15310 0.21700
H 	H 	0.54960 0.05450 0.16310 0.26900
O 	O 	0.70570 0.83190 0.35050 -0.40200
O 	O 	0.60650 0.88330 0.27840 -0.40700
O 	O 	0.97080 0.00370 0.10150 -0.47700
O 	O 	0.19550 0.11750 0.28840 -0.48100
N 	N 	0.73670 0.30590 0.96100 -0.22700
O 	O 	0.23430 0.22130 0.70060 -0.44800
C 	C 	0.87700 0.20100 0.83650 -0.16000
H 	H 	0.92990 0.15760 0.80840 -0.03400
H 	H 	0.99220 0.23370 0.68350 0.01400
C 	C 	0.92100 0.24550 0.76840 -0.14300
H 	H 	0.08390 0.16120 0.22510 -0.02900
C 	C 	0.12370 0.20440 0.19400 -0.16500
C 	C 	0.08410 0.25140 0.26980 -0.12800
H 	H 	0.00990 0.23520 0.35300 0.02100
N 	N 	0.25500 0.04340 0.93750 -0.23600
O 	O 	0.55540 0.90280 0.14630 -0.44100
H 	H 	0.94830 0.01900 0.07550 0.24300
H 	H 	0.23510 0.12920 0.30670 0.25500
H 	H 	0.19310 0.23000 0.71960 0.27200
C 	C 	0.87290 0.23510 0.82550 0.07700
H 	H 	0.84430 0.19130 0.87400 0.07800
H 	H 	0.92540 0.26860 0.75930 0.08000
C 	C 	0.12860 0.23860 0.20930 0.06500
H 	H 	0.15000 0.19580 0.15160 0.07900
H 	H 	0.08300 0.27440 0.28130 0.08300
C 	C 	0.18070 0.04630 0.97290 0.07000
C 	C 	0.32540 0.03450 0.98150 0.08300
H 	H 	0.53850 0.92220 0.13830 0.24000
C 	C 	0.82700 0.25960 0.87190 0.03900
C 	C 	0.17480 0.26210 0.16120 0.05300
H 	H 	0.13100 0.05260 0.94410 -0.03000
C 	C 	0.17800 0.04000 0.05290 -0.15200
C 	C 	0.32430 0.02730 0.06050 -0.15200
H 	H 	0.37710 0.03300 0.95820 0.01700
C 	C 	0.83600 0.29440 0.86010 -0.13100
C 	C 	0.77400 0.24790 0.92600 -0.11100
C 	C 	0.16440 0.29680 0.16600 -0.13900
C 	C 	0.23630 0.25100 0.11400 -0.13100
C 	C 	0.24630 0.02890 0.09740 0.08800
H 	H 	0.12700 0.04360 0.07610 0.07900
H 	H 	0.37460 0.02140 0.08890 0.12300
C 	C 	0.79100 0.31600 0.91040 0.06800
H 	H 	0.86890 0.30310 0.82190 0.06400
C 	C 	0.73290 0.27250 0.97400 0.06300
H 	H 	0.76530 0.22480 0.93200 0.07000
C 	C 	0.21260 0.31800 0.12010 0.07700
H 	H 	0.12610 0.30600 0.19890 0.07400
C 	C 	0.28310 0.27410 0.07200 0.08500
H 	H 	0.24690 0.22790 0.10990 0.07700
H 	H 	0.80060 0.33920 0.90710 -0.04300
H 	H 	0.70260 0.26470 0.01440 0.02200
H 	H 	0.20160 0.34110 0.12060 -0.03400
H 	H 	0.32320 0.26570 0.03980 0.00900
H 	H 	0.52480 0.99910 0.51040 0.18100
Mo	Mo	0.20750 0.41571 0.02049 1.10200
Mo	Mo	0.16771 0.37009 0.91483 1.09700
O 	O 	0.25560 0.37120 0.99860 -0.64600
O 	O 	0.30390 0.42040 0.10830 -0.38000
O 	O 	0.14590 0.41850 0.91950 -0.66400
O 	O 	0.19690 0.46800 0.03310 -0.37200
O 	O 	0.31380 0.43210 0.95280 -0.31600
O 	O 	0.28640 0.39090 0.84290 -0.41100
O 	O 	0.11520 0.37070 0.80540 -0.43500
O 	O 	0.21800 0.32400 0.88500 -0.39900
Co	Co	0.35905 0.34270 0.02870 1.14700
P 	P 	0.35600 0.39958 0.16780 0.57000
Co	Co	0.11973 0.45415 0.83591 1.13900
P 	P 	0.14910 0.49886 0.00070 0.55600
P 	P 	0.31390 0.42829 0.86500 0.45100
Mo	Mo	0.34123 0.36968 0.72606 1.10300
P 	P 	0.13070 0.38572 0.72570 0.56700
P 	P 	0.30620 0.31264 0.86060 0.55100
O 	O 	0.39570 0.36840 0.13030 -0.52700
O 	O 	0.37670 0.32560 0.91530 -0.58400
O 	O 	0.45690 0.31190 0.07060 -0.56700
N 	N 	0.77300 0.19330 0.57620 -0.23300
O 	O 	0.42060 0.42190 0.20980 -0.38200
O 	O 	0.29450 0.38570 0.22870 -0.48400
O 	O 	0.12570 0.49530 0.91220 -0.56000
O 	O 	0.25600 0.45680 0.82200 -0.48300
O 	O 	0.07090 0.49480 0.76670 -0.58400
O 	O 	0.13880 0.42490 0.73230 -0.52200
O 	O 	0.20670 0.52880 0.01780 -0.37100
O 	O 	0.06590 0.50390 0.04160 -0.47300
O 	O 	0.40820 0.43280 0.84860 -0.31500
O 	O 	0.21340 0.37150 0.69470 -0.41900
Mo	Mo	0.46400 0.41379 0.74352 1.10800
O 	O 	0.34550 0.41720 0.70120 -0.65800
O 	O 	0.44580 0.36940 0.79070 -0.64700
O 	O 	0.31420 0.32350 0.77560 -0.38800
O 	O 	0.05710 0.37760 0.66830 -0.48100
O 	O 	0.31110 0.27280 0.86320 -0.41600
Co	Co	0.51665 0.34338 0.15350 1.15800
Co	Co	0.49540 0.34171 0.88180 1.14500
P 	P 	0.50370 0.28742 0.01660 0.56500
Mo	Mo	0.53677 0.42170 0.27427 1.11400
H 	H 	0.27210 0.40160 0.25000 0.26200
Co	Co	0.12205 0.53417 0.82987 1.12000
Co	Co	0.25030 0.45346 0.69080 1.12600
P 	P 	0.07240 0.49463 0.67680 0.55500
Mo	Mo	0.20765 0.58131 0.00268 1.10600
O 	O 	0.47660 0.46510 0.72960 -0.37700
O 	O 	0.57210 0.41860 0.81710 -0.36000
H 	H 	0.05200 0.35700 0.66420 0.28400
H 	H 	0.35020 0.26690 0.89410 0.23200
O 	O 	0.55600 0.37500 0.24070 -0.63900
O 	O 	0.58100 0.37850 0.07500 -0.47700
O 	O 	0.64040 0.31910 0.12660 -0.51600
N 	N 	0.46860 0.30970 0.23610 -0.24100
O 	O 	0.61210 0.36630 0.89850 -0.53600
O 	O 	0.55420 0.31030 0.96660 -0.56900
N 	N 	0.54010 0.30660 0.79900 -0.23400
O 	O 	0.56540 0.26460 0.06860 -0.44900
O 	O 	0.44540 0.26290 0.97040 -0.43400
O 	O 	0.52630 0.47360 0.27560 -0.37100
Mo	Mo	0.66498 0.38026 0.29948 1.10100
O 	O 	0.57990 0.43200 0.16170 -0.32900
O 	O 	0.65720 0.42950 0.30680 -0.63500
O 	O 	0.15000 0.57410 0.90190 -0.67700
O 	O 	0.15560 0.56060 0.73110 -0.59100
O 	O 	0.16740 0.49330 0.65840 -0.57700
O 	O 	0.34100 0.49460 0.67980 -0.55800
O 	O 	0.02090 0.52320 0.63930 -0.44500
O 	O 	0.02610 0.46240 0.64400 -0.45000
Mo	Mo	0.16315 0.62247 0.88876 1.09600
O 	O 	0.24600 0.62740 0.97580 -0.64200
O 	O 	0.29510 0.58060 0.09410 -0.38000
O 	O 	0.32260 0.56830 0.94310 -0.31300
P 	P 	0.43810 0.49534 0.68490 0.57400
P 	P 	0.64540 0.39677 0.85440 0.56200
Co	Co	0.65214 0.34184 0.00800 1.15800
P 	P 	0.63550 0.40857 0.11760 0.44900
P 	P 	0.71620 0.31614 0.18540 0.57100
C 	C 	0.42610 0.31960 0.29440 0.10900
C 	C 	0.46400 0.27550 0.22400 0.07500
C 	C 	0.58320 0.31590 0.73740 0.10000
C 	C 	0.54100 0.27270 0.81200 0.07200
H 	H 	0.59860 0.27660 0.09500 0.26500
H 	H 	0.41050 0.27350 0.94260 0.21200
O 	O 	0.69720 0.33360 0.26200 -0.41400
O 	O 	0.70940 0.39380 0.17350 -0.41700
O 	O 	0.79520 0.38510 0.33100 -0.38500
Co	Co	0.74730 0.46654 0.31717 1.14100
P 	P 	0.13100 0.59681 0.70650 0.55600
H 	H 	0.04230 0.54140 0.65310 0.21700
H 	H 	0.04960 0.44550 0.66310 0.26900
O 	O 	0.20570 0.66810 0.85050 -0.40200
O 	O 	0.10650 0.61670 0.77840 -0.40700
O 	O 	0.47080 0.49630 0.60150 -0.47700
O 	O 	0.69550 0.38250 0.78840 -0.48100
N 	N 	0.23670 0.19410 0.46100 -0.22700
O 	O 	0.73430 0.27870 0.20060 -0.44800
C 	C 	0.37700 0.29900 0.33650 -0.16100
H 	H 	0.42990 0.34240 0.30840 -0.03400
H 	H 	0.49220 0.26630 0.18350 0.01400
C 	C 	0.42100 0.25450 0.26840 -0.14300
H 	H 	0.58390 0.33880 0.72510 -0.02900
C 	C 	0.62370 0.29560 0.69400 -0.16500
C 	C 	0.58410 0.24860 0.76980 -0.12800
H 	H 	0.50990 0.26480 0.85300 0.02100
N 	N 	0.75500 0.45660 0.43750 -0.23600
O 	O 	0.05540 0.59720 0.64630 -0.44100
H 	H 	0.44830 0.48100 0.57550 0.24300
H 	H 	0.73510 0.37080 0.80670 0.25500
H 	H 	0.69310 0.27000 0.21960 0.27200
C 	C 	0.37290 0.26490 0.32550 0.07700
H 	H 	0.34430 0.30870 0.37400 0.07800
H 	H 	0.42540 0.23140 0.25930 0.08000
C 	C 	0.62860 0.26140 0.70930 0.06500
H 	H 	0.65000 0.30420 0.65160 0.07900
H 	H 	0.58300 0.22560 0.78130 0.08300
C 	C 	0.68070 0.45370 0.47290 0.06900
C 	C 	0.82540 0.46550 0.48150 0.08200
H 	H 	0.03850 0.57780 0.63830 0.24000
C 	C 	0.32700 0.24040 0.37190 0.03800
C 	C 	0.67480 0.23790 0.66120 0.05300
H 	H 	0.63100 0.44740 0.44410 -0.03000
C 	C 	0.67800 0.46000 0.55290 -0.15100
C 	C 	0.82430 0.47270 0.56050 -0.15100
H 	H 	0.87710 0.46700 0.45820 0.01800
C 	C 	0.33600 0.20560 0.36010 -0.13000
C 	C 	0.27400 0.25210 0.42600 -0.10900
C 	C 	0.66440 0.20320 0.66600 -0.13900
C 	C 	0.73630 0.24900 0.61400 -0.13100
C 	C 	0.74630 0.47110 0.59740 0.08700
H 	H 	0.62700 0.45640 0.57610 0.07800
H 	H 	0.87460 0.47860 0.58890 0.12300
C 	C 	0.29100 0.18400 0.41040 0.06700
H 	H 	0.36890 0.19690 0.32190 0.06400
C 	C 	0.23290 0.22750 0.47400 0.05900
H 	H 	0.26530 0.27520 0.43200 0.06900
C 	C 	0.71260 0.18200 0.62010 0.07700
H 	H 	0.62610 0.19400 0.69890 0.07400
C 	C 	0.78310 0.22590 0.57200 0.08500
H 	H 	0.74690 0.27210 0.60990 0.07700
H 	H 	0.30060 0.16080 0.40710 -0.04300
H 	H 	0.20260 0.23530 0.51440 0.02400
H 	H 	0.70160 0.15890 0.62060 -0.03400
H 	H 	0.82320 0.23430 0.53980 0.01000
H 	H 	0.02480 0.50090 0.01040 0.18100
Mo	Mo	0.29250 0.91571 0.47951 1.10300
Mo	Mo	0.33229 0.87009 0.58517 1.09700
O 	O 	0.24440 0.87120 0.50140 -0.64700
O 	O 	0.19610 0.92040 0.39170 -0.38000
O 	O 	0.35410 0.91850 0.58050 -0.66400
O 	O 	0.30310 0.96800 0.46690 -0.37200
O 	O 	0.18620 0.93210 0.54720 -0.31600
O 	O 	0.21360 0.89090 0.65710 -0.41100
O 	O 	0.38480 0.87070 0.69460 -0.43500
O 	O 	0.28200 0.82400 0.61500 -0.39900
Co	Co	0.14095 0.84270 0.47130 1.14700
P 	P 	0.14400 0.89958 0.33220 0.57000
Co	Co	0.38027 0.95415 0.66409 1.13900
P 	P 	0.35090 0.99886 0.49930 0.55600
P 	P 	0.18610 0.92829 0.63500 0.45100
Mo	Mo	0.15877 0.86968 0.77394 1.10300
P 	P 	0.36930 0.88572 0.77430 0.56700
P 	P 	0.19380 0.81264 0.63940 0.55100
O 	O 	0.10430 0.86840 0.36970 -0.52600
O 	O 	0.12330 0.82560 0.58470 -0.58500
O 	O 	0.04310 0.81190 0.42940 -0.56700
N 	N 	0.72700 0.69330 0.92380 -0.23300
O 	O 	0.07940 0.92190 0.29020 -0.38200
O 	O 	0.20550 0.88570 0.27130 -0.48400
O 	O 	0.37430 0.99530 0.58780 -0.56000
O 	O 	0.24400 0.95680 0.67800 -0.48300
O 	O 	0.42910 0.99480 0.73330 -0.58400
O 	O 	0.36120 0.92490 0.76770 -0.52200
O 	O 	0.29330 0.02880 0.48220 -0.37100
O 	O 	0.43410 0.00390 0.45840 -0.47300
O 	O 	0.09180 0.93280 0.65140 -0.31500
O 	O 	0.28660 0.87150 0.80530 -0.41900
Mo	Mo	0.03600 0.91379 0.75648 1.10800
O 	O 	0.15450 0.91720 0.79880 -0.65800
O 	O 	0.05420 0.86940 0.70930 -0.64600
O 	O 	0.18580 0.82350 0.72440 -0.38800
O 	O 	0.44290 0.87760 0.83170 -0.48100
O 	O 	0.18890 0.77280 0.63680 -0.41600
Co	Co	0.98335 0.84338 0.34650 1.15800
Co	Co	0.00460 0.84171 0.61820 1.14500
P 	P 	0.99630 0.78742 0.48340 0.56600
Mo	Mo	0.96323 0.92170 0.22573 1.11400
H 	H 	0.22790 0.90160 0.25000 0.26200
Co	Co	0.37795 0.03417 0.67013 1.12000
Co	Co	0.24970 0.95346 0.80920 1.12600
P 	P 	0.42760 0.99463 0.82320 0.55500
Mo	Mo	0.29235 0.08131 0.49732 1.10500
O 	O 	0.02340 0.96510 0.77040 -0.37700
O 	O 	0.92790 0.91860 0.68290 -0.36000
H 	H 	0.44800 0.85700 0.83580 0.28400
H 	H 	0.14980 0.76690 0.60590 0.23200
O 	O 	0.94400 0.87500 0.25930 -0.63900
O 	O 	0.91900 0.87850 0.42500 -0.47700
O 	O 	0.85960 0.81910 0.37340 -0.51600
N 	N 	0.03140 0.80970 0.26390 -0.24100
O 	O 	0.88790 0.86630 0.60150 -0.53700
O 	O 	0.94580 0.81030 0.53340 -0.57100
N 	N 	0.95990 0.80660 0.70100 -0.23400
O 	O 	0.93460 0.76460 0.43140 -0.44900
O 	O 	0.05460 0.76290 0.52960 -0.43500
O 	O 	0.97370 0.97360 0.22440 -0.37100
Mo	Mo	0.83502 0.88026 0.20052 1.10100
O 	O 	0.92010 0.93200 0.33830 -0.32900
O 	O 	0.84280 0.92950 0.19320 -0.63500
O 	O 	0.35000 0.07410 0.59810 -0.67600
O 	O 	0.34440 0.06060 0.76890 -0.59100
O 	O 	0.33260 0.99330 0.84160 -0.57700
O 	O 	0.15900 0.99460 0.82020 -0.55800
O 	O 	0.47910 0.02320 0.86070 -0.44500
O 	O 	0.47390 0.96240 0.85600 -0.45000
Mo	Mo	0.33685 0.12247 0.61124 1.09600
O 	O 	0.25400 0.12740 0.52420 -0.64100
O 	O 	0.20490 0.08060 0.40590 -0.38000
O 	O 	0.17740 0.06830 0.55690 -0.31200
P 	P 	0.06190 0.99534 0.81510 0.57400
P 	P 	0.85460 0.89677 0.64560 0.56200
Co	Co	0.84786 0.84184 0.49200 1.15900
P 	P 	0.86450 0.90857 0.38240 0.44900
P 	P 	0.78380 0.81614 0.31460 0.57100
C 	C 	0.07390 0.81960 0.20560 0.10900
C 	C 	0.03600 0.77550 0.27600 0.07500
C 	C 	0.91680 0.81590 0.76260 0.10000
C 	C 	0.95900 0.77270 0.68800 0.07100
H 	H 	0.90140 0.77660 0.40500 0.26500
H 	H 	0.08950 0.77350 0.55740 0.21200
O 	O 	0.80280 0.83360 0.23800 -0.41400
O 	O 	0.79060 0.89380 0.32650 -0.41700
O 	O 	0.70480 0.88510 0.16900 -0.38500
Co	Co	0.75270 0.96654 0.18283 1.14100
P 	P 	0.36900 0.09681 0.79350 0.55600
H 	H 	0.45770 0.04140 0.84690 0.21700
H 	H 	0.45040 0.94550 0.83690 0.26900
O 	O 	0.29430 0.16810 0.64950 -0.40200
O 	O 	0.39350 0.11670 0.72160 -0.40700
O 	O 	0.02920 0.99630 0.89850 -0.47700
O 	O 	0.80450 0.88250 0.71160 -0.48100
N 	N 	0.26330 0.69410 0.03900 -0.22700
O 	O 	0.76570 0.77870 0.29940 -0.44800
C 	C 	0.12300 0.79900 0.16350 -0.16000
H 	H 	0.07010 0.84240 0.19160 -0.03400
H 	H 	0.00780 0.76630 0.31650 0.01400
C 	C 	0.07900 0.75450 0.23160 -0.14300
H 	H 	0.91610 0.83880 0.77490 -0.02900
C 	C 	0.87630 0.79560 0.80600 -0.16500
C 	C 	0.91590 0.74860 0.73020 -0.12800
H 	H 	0.99010 0.76480 0.64700 0.02100
N 	N 	0.74500 0.95660 0.06250 -0.23600
O 	O 	0.44460 0.09720 0.85370 -0.44100
H 	H 	0.05170 0.98100 0.92450 0.24300
H 	H 	0.76490 0.87080 0.69330 0.25500
H 	H 	0.80690 0.77000 0.28040 0.27200
C 	C 	0.12710 0.76490 0.17450 0.07700
H 	H 	0.15570 0.80870 0.12600 0.07800
H 	H 	0.07460 0.73140 0.24070 0.08000
C 	C 	0.87140 0.76140 0.79070 0.06500
H 	H 	0.85000 0.80420 0.84840 0.07900
H 	H 	0.91700 0.72560 0.71870 0.08300
C 	C 	0.81930 0.95370 0.02710 0.07000
C 	C 	0.67460 0.96550 0.01850 0.08300
H 	H 	0.46150 0.07780 0.86170 0.24000
C 	C 	0.17300 0.74040 0.12810 0.03900
C 	C 	0.82520 0.73790 0.83880 0.05300
H 	H 	0.86900 0.94740 0.05590 -0.03000
C 	C 	0.82200 0.96000 0.94710 -0.15200
C 	C 	0.67570 0.97270 0.93950 -0.15200
H 	H 	0.62290 0.96700 0.04180 0.01700
C 	C 	0.16400 0.70560 0.13990 -0.13100
C 	C 	0.22600 0.75210 0.07400 -0.11100
C 	C 	0.83560 0.70320 0.83400 -0.13900
C 	C 	0.76370 0.74900 0.88600 -0.13100
C 	C 	0.75370 0.97110 0.90260 0.08800
H 	H 	0.87300 0.95640 0.92390 0.07900
H 	H 	0.62540 0.97860 0.91110 0.12300
C 	C 	0.20900 0.68400 0.08960 0.06800
H 	H 	0.13110 0.69690 0.17810 0.06400
C 	C 	0.26710 0.72750 0.02600 0.06300
H 	H 	0.23470 0.77520 0.06800 0.07000
C 	C 	0.78740 0.68200 0.87990 0.07700
H 	H 	0.87390 0.69400 0.80110 0.07400
C 	C 	0.71690 0.72590 0.92800 0.08500
H 	H 	0.75310 0.77210 0.89010 0.07700
H 	H 	0.19940 0.66080 0.09290 -0.04300
H 	H 	0.29740 0.73530 0.98560 0.02200
H 	H 	0.79840 0.65890 0.87940 -0.03400
H 	H 	0.67680 0.73430 0.96020 0.00900
H 	H 	0.47520 0.00090 0.48960 0.18100
