data_crystal

_cell_length_a 24.25700
_cell_length_b 24.25700
_cell_length_c 15.02500
_cell_angle_alpha 90.00000
_cell_angle_beta  90.00000
_cell_angle_gamma 90.00000

_symmetry_space_group_name_	'P 1'
_symmetry_space_group_name_H-M	'P 1'

loop_
_symmetry_equiv_pos_as_xyz
  x,y,z

loop_
_atom_site_label
_atom_site_type_symbol
_atom_site_fract_x
_atom_site_fract_y
_atom_site_fract_z
_atom_site_charge
O 	O 	0.35189 0.05427 0.08650 -0.63700
O 	O 	0.41703 0.10280 0.16450 -0.74300
C 	C 	0.36660 0.09300 0.13930 0.52300
C 	C 	0.32300 0.12870 0.17440 -0.21700
C 	C 	0.27110 0.12930 0.13530 0.17500
H 	H 	0.26310 0.10430 0.08840 0.06100
C 	C 	0.23030 0.16640 0.16400 -0.18800
C 	C 	0.33460 0.16510 0.24290 0.13500
H 	H 	0.37000 0.16480 0.27000 -0.01800
C 	C 	0.24320 0.20300 0.23310 0.13900
C 	C 	0.29440 0.20250 0.27250 -0.15700
H 	H 	0.30250 0.22740 0.31950 0.09700
C 	C 	0.17540 0.16320 0.11470 0.86900
F 	F 	0.13220 0.15120 0.16670 -0.37100
F 	F 	0.16270 0.21050 0.07340 -0.42100
F 	F 	0.17630 0.12440 0.05130 -0.36100
O 	O 	0.64811 0.94573 0.08650 -0.62000
O 	O 	0.58297 0.89720 0.16450 -0.73700
C 	C 	0.63340 0.90700 0.13930 0.52000
C 	C 	0.67700 0.87130 0.17440 -0.21000
C 	C 	0.72890 0.87070 0.13530 0.17200
H 	H 	0.73690 0.89570 0.08840 0.06700
C 	C 	0.76970 0.83360 0.16400 -0.18300
C 	C 	0.66540 0.83490 0.24290 0.13300
H 	H 	0.63000 0.83520 0.27000 -0.01400
C 	C 	0.75680 0.79700 0.23310 0.13800
C 	C 	0.70560 0.79750 0.27250 -0.15400
H 	H 	0.69750 0.77260 0.31950 0.09700
C 	C 	0.82460 0.83680 0.11470 0.86800
F 	F 	0.86780 0.84880 0.16670 -0.36000
F 	F 	0.83730 0.78950 0.07340 -0.41600
F 	F 	0.82370 0.87560 0.05130 -0.35200
O 	O 	0.94573 0.35189 0.58650 -0.61600
O 	O 	0.89720 0.41703 0.66450 -0.73400
C 	C 	0.90700 0.36660 0.63930 0.52000
C 	C 	0.87130 0.32300 0.67440 -0.20700
C 	C 	0.87070 0.27110 0.63530 0.17100
H 	H 	0.89570 0.26310 0.58840 0.07100
C 	C 	0.83360 0.23030 0.66400 -0.18100
C 	C 	0.83490 0.33460 0.74290 0.13400
H 	H 	0.83520 0.37000 0.77000 -0.01100
C 	C 	0.79700 0.24320 0.73310 0.13800
C 	C 	0.79750 0.29440 0.77250 -0.15200
H 	H 	0.77260 0.30250 0.81950 0.10000
C 	C 	0.83680 0.17540 0.61470 0.86700
F 	F 	0.84880 0.13220 0.66670 -0.36200
F 	F 	0.78950 0.16270 0.57340 -0.41200
F 	F 	0.87560 0.17630 0.55130 -0.34500
O 	O 	0.05427 0.64811 0.58650 -0.63000
O 	O 	0.10280 0.58297 0.66450 -0.74000
C 	C 	0.09300 0.63340 0.63930 0.52100
C 	C 	0.12870 0.67700 0.67440 -0.21200
C 	C 	0.12930 0.72890 0.63530 0.17300
H 	H 	0.10430 0.73690 0.58840 0.06700
C 	C 	0.16640 0.76970 0.66400 -0.18300
C 	C 	0.16510 0.66540 0.74290 0.13500
H 	H 	0.16480 0.63000 0.77000 -0.01400
C 	C 	0.20300 0.75680 0.73310 0.13900
C 	C 	0.20250 0.70560 0.77250 -0.15500
H 	H 	0.22740 0.69750 0.81950 0.10000
C 	C 	0.16320 0.82460 0.61470 0.86700
F 	F 	0.15120 0.86780 0.66670 -0.36200
F 	F 	0.21050 0.83730 0.57340 -0.41000
F 	F 	0.12440 0.82370 0.55130 -0.34700
O 	O 	0.64811 0.05427 0.91350 -0.61900
O 	O 	0.58297 0.10280 0.83550 -0.73600
C 	C 	0.63340 0.09300 0.86070 0.52000
C 	C 	0.67700 0.12870 0.82560 -0.20800
C 	C 	0.72890 0.12930 0.86470 0.17000
H 	H 	0.73690 0.10430 0.91160 0.07400
C 	C 	0.76970 0.16640 0.83600 -0.17800
C 	C 	0.66540 0.16510 0.75710 0.13200
H 	H 	0.63000 0.16480 0.73000 -0.01400
C 	C 	0.75680 0.20300 0.76690 0.13700
C 	C 	0.70560 0.20250 0.72750 -0.15200
H 	H 	0.69750 0.22740 0.68050 0.09700
C 	C 	0.82460 0.16320 0.88530 0.86500
F 	F 	0.86780 0.15120 0.83330 -0.35800
F 	F 	0.83730 0.21050 0.92660 -0.40100
F 	F 	0.82370 0.12440 0.94870 -0.33500
O 	O 	0.35189 0.94573 0.91350 -0.61100
O 	O 	0.41703 0.89720 0.83550 -0.73300
C 	C 	0.36660 0.90700 0.86070 0.51900
C 	C 	0.32300 0.87130 0.82560 -0.20500
C 	C 	0.27110 0.87070 0.86470 0.17000
H 	H 	0.26310 0.89570 0.91160 0.07500
C 	C 	0.23030 0.83360 0.83600 -0.17700
C 	C 	0.33460 0.83490 0.75710 0.13100
H 	H 	0.37000 0.83520 0.73000 -0.01200
C 	C 	0.24320 0.79700 0.76690 0.13600
C 	C 	0.29440 0.79750 0.72750 -0.15000
H 	H 	0.30250 0.77260 0.68050 0.09700
C 	C 	0.17540 0.83680 0.88530 0.86600
F 	F 	0.13220 0.84880 0.83330 -0.36100
F 	F 	0.16270 0.78950 0.92660 -0.40500
F 	F 	0.17630 0.87560 0.94870 -0.33700
O 	O 	0.05427 0.35189 0.41350 -0.63100
O 	O 	0.10280 0.41703 0.33550 -0.74400
C 	C 	0.09300 0.36660 0.36070 0.52100
C 	C 	0.12870 0.32300 0.32560 -0.21400
C 	C 	0.12930 0.27110 0.36470 0.17200
H 	H 	0.10430 0.26310 0.41160 0.06700
C 	C 	0.16640 0.23030 0.33600 -0.18300
C 	C 	0.16510 0.33460 0.25710 0.13200
H 	H 	0.16480 0.37000 0.23000 -0.01800
C 	C 	0.20300 0.24320 0.26690 0.13600
C 	C 	0.20250 0.29440 0.22750 -0.15500
H 	H 	0.22740 0.30250 0.18050 0.09300
C 	C 	0.16320 0.17540 0.38530 0.86700
F 	F 	0.15120 0.13220 0.33330 -0.36800
F 	F 	0.21050 0.16270 0.42660 -0.41300
F 	F 	0.12440 0.17630 0.44870 -0.34900
O 	O 	0.94573 0.64811 0.41350 -0.61700
O 	O 	0.89720 0.58297 0.33550 -0.73700
C 	C 	0.90700 0.63340 0.36070 0.51900
C 	C 	0.87130 0.67700 0.32560 -0.20800
C 	C 	0.87070 0.72890 0.36470 0.17000
H 	H 	0.89570 0.73690 0.41160 0.07100
C 	C 	0.83360 0.76970 0.33600 -0.18000
C 	C 	0.83490 0.66540 0.25710 0.13100
H 	H 	0.83520 0.63000 0.23000 -0.01500
C 	C 	0.79700 0.75680 0.26690 0.13600
C 	C 	0.79750 0.70560 0.22750 -0.15200
H 	H 	0.77260 0.69750 0.18050 0.09400
C 	C 	0.83680 0.82460 0.38530 0.86600
F 	F 	0.84880 0.86780 0.33330 -0.35800
F 	F 	0.78950 0.83730 0.42660 -0.40900
F 	F 	0.87560 0.82370 0.44870 -0.34300
O 	O 	0.64811 0.94573 0.91350 -0.61100
O 	O 	0.58297 0.89720 0.83550 -0.73200
C 	C 	0.63340 0.90700 0.86070 0.51900
C 	C 	0.67700 0.87130 0.82560 -0.20500
C 	C 	0.72890 0.87070 0.86470 0.17000
H 	H 	0.73690 0.89570 0.91160 0.07500
C 	C 	0.76970 0.83360 0.83600 -0.17700
C 	C 	0.66540 0.83490 0.75710 0.13100
H 	H 	0.63000 0.83520 0.73000 -0.01200
C 	C 	0.75680 0.79700 0.76690 0.13600
C 	C 	0.70560 0.79750 0.72750 -0.15000
H 	H 	0.69750 0.77260 0.68050 0.09700
C 	C 	0.82460 0.83680 0.88530 0.86500
F 	F 	0.86780 0.84880 0.83330 -0.35600
F 	F 	0.83730 0.78950 0.92660 -0.40200
F 	F 	0.82370 0.87560 0.94870 -0.33500
O 	O 	0.35189 0.05427 0.91350 -0.61900
O 	O 	0.41703 0.10280 0.83550 -0.73600
C 	C 	0.36660 0.09300 0.86070 0.52000
C 	C 	0.32300 0.12870 0.82560 -0.20800
C 	C 	0.27110 0.12930 0.86470 0.17100
H 	H 	0.26310 0.10430 0.91160 0.07300
C 	C 	0.23030 0.16640 0.83600 -0.17900
C 	C 	0.33460 0.16510 0.75710 0.13200
H 	H 	0.37000 0.16480 0.73000 -0.01400
C 	C 	0.24320 0.20300 0.76690 0.13600
C 	C 	0.29440 0.20250 0.72750 -0.15100
H 	H 	0.30250 0.22740 0.68050 0.09700
C 	C 	0.17540 0.16320 0.88530 0.86600
F 	F 	0.13220 0.15120 0.83330 -0.36400
F 	F 	0.16270 0.21050 0.92660 -0.40400
F 	F 	0.17630 0.12440 0.94870 -0.33700
O 	O 	0.05427 0.64811 0.41350 -0.63100
O 	O 	0.10280 0.58297 0.33550 -0.74300
C 	C 	0.09300 0.63340 0.36070 0.52100
C 	C 	0.12870 0.67700 0.32560 -0.21400
C 	C 	0.12930 0.72890 0.36470 0.17200
H 	H 	0.10430 0.73690 0.41160 0.06700
C 	C 	0.16640 0.76970 0.33600 -0.18300
C 	C 	0.16510 0.66540 0.25710 0.13300
H 	H 	0.16480 0.63000 0.23000 -0.01800
C 	C 	0.20300 0.75680 0.26690 0.13700
C 	C 	0.20250 0.70560 0.22750 -0.15500
H 	H 	0.22740 0.69750 0.18050 0.09400
C 	C 	0.16320 0.82460 0.38530 0.86700
F 	F 	0.15120 0.86780 0.33330 -0.36200
F 	F 	0.21050 0.83730 0.42660 -0.41000
F 	F 	0.12440 0.82370 0.44870 -0.34700
O 	O 	0.94573 0.35189 0.41350 -0.61700
O 	O 	0.89720 0.41703 0.33550 -0.73700
C 	C 	0.90700 0.36660 0.36070 0.51900
C 	C 	0.87130 0.32300 0.32560 -0.20800
C 	C 	0.87070 0.27110 0.36470 0.17000
H 	H 	0.89570 0.26310 0.41160 0.07100
C 	C 	0.83360 0.23030 0.33600 -0.18000
C 	C 	0.83490 0.33460 0.25710 0.13100
H 	H 	0.83520 0.37000 0.23000 -0.01500
C 	C 	0.79700 0.24320 0.26690 0.13500
C 	C 	0.79750 0.29440 0.22750 -0.15200
H 	H 	0.77260 0.30250 0.18050 0.09300
C 	C 	0.83680 0.17540 0.38530 0.86700
F 	F 	0.84880 0.13220 0.33330 -0.36400
F 	F 	0.78950 0.16270 0.42660 -0.41200
F 	F 	0.87560 0.17630 0.44870 -0.34500
O 	O 	0.35189 0.94573 0.08650 -0.62100
O 	O 	0.41703 0.89720 0.16450 -0.73700
C 	C 	0.36660 0.90700 0.13930 0.52000
C 	C 	0.32300 0.87130 0.17440 -0.21100
C 	C 	0.27110 0.87070 0.13530 0.17200
H 	H 	0.26310 0.89570 0.08840 0.06700
C 	C 	0.23030 0.83360 0.16400 -0.18400
C 	C 	0.33460 0.83490 0.24290 0.13300
H 	H 	0.37000 0.83520 0.27000 -0.01400
C 	C 	0.24320 0.79700 0.23310 0.13800
C 	C 	0.29440 0.79750 0.27250 -0.15400
H 	H 	0.30250 0.77260 0.31950 0.09700
C 	C 	0.17540 0.83680 0.11470 0.86800
F 	F 	0.13220 0.84880 0.16670 -0.36600
F 	F 	0.16270 0.78950 0.07340 -0.41900
F 	F 	0.17630 0.87560 0.05130 -0.35400
O 	O 	0.64811 0.05427 0.08650 -0.63800
O 	O 	0.58297 0.10280 0.16450 -0.74400
C 	C 	0.63340 0.09300 0.13930 0.52200
C 	C 	0.67700 0.12870 0.17440 -0.21700
C 	C 	0.72890 0.12930 0.13530 0.17400
H 	H 	0.73690 0.10430 0.08840 0.06100
C 	C 	0.76970 0.16640 0.16400 -0.18800
C 	C 	0.66540 0.16510 0.24290 0.13500
H 	H 	0.63000 0.16480 0.27000 -0.01700
C 	C 	0.75680 0.20300 0.23310 0.14000
C 	C 	0.70560 0.20250 0.27250 -0.15800
H 	H 	0.69750 0.22740 0.31950 0.09700
C 	C 	0.82460 0.16320 0.11470 0.86900
F 	F 	0.86780 0.15120 0.16670 -0.36500
F 	F 	0.83730 0.21050 0.07340 -0.41800
F 	F 	0.82370 0.12440 0.05130 -0.35900
O 	O 	0.94573 0.64811 0.58650 -0.61600
O 	O 	0.89720 0.58297 0.66450 -0.73400
C 	C 	0.90700 0.63340 0.63930 0.52000
C 	C 	0.87130 0.67700 0.67440 -0.20700
C 	C 	0.87070 0.72890 0.63530 0.17100
H 	H 	0.89570 0.73690 0.58840 0.07100
C 	C 	0.83360 0.76970 0.66400 -0.18000
C 	C 	0.83490 0.66540 0.74290 0.13300
H 	H 	0.83520 0.63000 0.77000 -0.01100
C 	C 	0.79700 0.75680 0.73310 0.13800
C 	C 	0.79750 0.70560 0.77250 -0.15200
H 	H 	0.77260 0.69750 0.81950 0.10000
C 	C 	0.83680 0.82460 0.61470 0.86600
F 	F 	0.84880 0.86780 0.66670 -0.35700
F 	F 	0.78950 0.83730 0.57340 -0.40900
F 	F 	0.87560 0.82370 0.55130 -0.34300
O 	O 	0.05427 0.35189 0.58650 -0.63000
O 	O 	0.10280 0.41703 0.66450 -0.74000
C 	C 	0.09300 0.36660 0.63930 0.52100
C 	C 	0.12870 0.32300 0.67440 -0.21300
C 	C 	0.12930 0.27110 0.63530 0.17300
H 	H 	0.10430 0.26310 0.58840 0.06700
C 	C 	0.16640 0.23030 0.66400 -0.18400
C 	C 	0.16510 0.33460 0.74290 0.13500
H 	H 	0.16480 0.37000 0.77000 -0.01400
C 	C 	0.20300 0.24320 0.73310 0.13900
C 	C 	0.20250 0.29440 0.77250 -0.15500
H 	H 	0.22740 0.30250 0.81950 0.10000
C 	C 	0.16320 0.17540 0.61470 0.86800
F 	F 	0.15120 0.13220 0.66670 -0.36600
F 	F 	0.21050 0.16270 0.57340 -0.41300
F 	F 	0.12440 0.17630 0.55130 -0.34900
Zr	Zr	0.39963 0.00000 -0.00000 3.21400
Zr	Zr	0.60037 0.00000 -0.00000 3.21400
Zr	Zr	-0.00000 0.39963 0.50000 3.21600
Zr	Zr	-0.00000 0.60037 0.50000 3.21600
Zr	Zr	0.50000 0.07268 0.11689 3.18100
Zr	Zr	0.50000 0.92732 0.11689 3.18200
Zr	Zr	0.92732 0.50000 0.61689 3.18200
Zr	Zr	0.07268 0.50000 0.61689 3.18100
Zr	Zr	0.50000 0.07268 0.88311 3.18300
Zr	Zr	0.50000 0.92732 0.88311 3.18300
Zr	Zr	0.07268 0.50000 0.38311 3.18100
Zr	Zr	0.92732 0.50000 0.38311 3.18200
O 	O 	0.45070 0.00000 0.11600 -1.35400
O 	O 	0.54930 0.00000 0.11600 -1.35400
O 	O 	-0.00000 0.45070 0.61600 -1.35000
O 	O 	-0.00000 0.54930 0.61600 -1.35000
O 	O 	0.54930 0.00000 0.88400 -1.34000
O 	O 	0.45070 0.00000 0.88400 -1.34000
O 	O 	-0.00000 0.45070 0.38400 -1.35200
O 	O 	-0.00000 0.54930 0.38400 -1.35200
O 	O 	0.45110 0.92720 -0.00000 -1.35000
O 	O 	0.54890 0.07280 -0.00000 -1.36200
O 	O 	0.07280 0.45110 0.50000 -1.34900
O 	O 	0.92720 0.54890 0.50000 -1.34100
O 	O 	0.54890 0.92720 -0.00000 -1.35000
O 	O 	0.45110 0.07280 -0.00000 -1.36200
O 	O 	0.92720 0.45110 0.50000 -1.34100
O 	O 	0.07280 0.54890 0.50000 -1.34900
