data_crystal

_cell_length_a 22.78200
_cell_length_b 9.75800
_cell_length_c 26.41300
_cell_angle_alpha 90.00000
_cell_angle_beta  97.28000
_cell_angle_gamma 90.00000

_symmetry_space_group_name_	'P 1'
_symmetry_space_group_name_H-M	'P 1'

loop_
_symmetry_equiv_pos_as_xyz
  x,y,z

loop_
_atom_site_label
_atom_site_type_symbol
_atom_site_fract_x
_atom_site_fract_y
_atom_site_fract_z
_atom_site_charge
Zn	Zn	0.21459 0.37839 0.48988 1.21300
N 	N 	0.98600 0.50350 0.47700 -0.06600
C 	C 	0.98410 0.37590 0.44980 0.04100
C 	C 	0.94440 0.36130 0.40570 -0.06000
H 	H 	0.91960 0.43360 0.39410 0.03600
C 	C 	0.94170 0.23870 0.37870 0.03400
H 	H 	0.91520 0.22890 0.34910 0.00600
C 	C 	0.97880 0.13060 0.39590 -0.04000
H 	H 	0.97700 0.04860 0.37790 0.03000
C 	C 	0.01840 0.14530 0.44010 -0.00900
C 	C 	0.02110 0.26790 0.46710 -0.04300
H 	H 	0.04770 0.27770 0.49660 0.05400
C 	C 	0.05880 0.02300 0.46020 -0.01900
H 	H 	0.08480 0.03540 0.48990 -0.01800
C 	C 	0.09550 0.78610 0.45000 0.09200
C 	C 	0.13900 0.79050 0.49190 -0.10800
H 	H 	0.14470 0.86990 0.51130 0.07000
C 	C 	0.17410 0.67600 0.50470 -0.02000
H 	H 	0.20330 0.67890 0.53270 -0.10200
N 	N 	0.16570 0.55730 0.47560 -0.13600
C 	C 	0.12210 0.55300 0.43370 0.12100
H 	H 	0.11650 0.47350 0.41430 -0.15100
C 	C 	0.08700 0.66740 0.42090 0.00000
H 	H 	0.05790 0.66450 0.39290 0.00900
C 	C 	0.05790 0.90390 0.43740 -0.12700
H 	H 	0.02920 0.89350 0.40930 0.02300
C 	C 	0.31790 0.31870 0.43370 0.42700
C 	C 	0.34920 0.34470 0.38780 -0.23300
C 	C 	0.32790 0.44580 0.35340 0.18000
H 	H 	0.29600 0.49990 0.35960 -0.01900
C 	C 	0.35480 0.46570 0.30940 -0.30400
H 	H 	0.34180 0.53510 0.28650 0.14000
C 	C 	0.40140 0.38000 0.30000 0.31400
C 	C 	0.42280 0.28540 0.33490 -0.32000
H 	H 	0.45550 0.23300 0.32940 0.15500
C 	C 	0.39610 0.26580 0.37880 0.19400
H 	H 	0.41040 0.19870 0.40210 -0.02500
C 	C 	0.39920 0.46380 0.21230 0.32600
C 	C 	0.35390 0.39210 0.18770 -0.32600
H 	H 	0.34210 0.30830 0.19980 0.15400
C 	C 	0.32550 0.45090 0.14280 0.19000
H 	H 	0.29450 0.40470 0.12380 -0.02200
C 	C 	0.34320 0.57790 0.12630 -0.23100
C 	C 	0.38980 0.64250 0.15300 0.18600
H 	H 	0.40270 0.72550 0.14110 -0.01400
C 	C 	0.41940 0.58650 0.19860 -0.31800
H 	H 	0.45070 0.63120 0.21790 0.15000
C 	C 	0.31270 0.64330 0.07790 0.43700
O 	O 	0.27920 0.40520 0.44320 -0.47100
O 	O 	0.33310 0.21520 0.45950 -0.47500
O 	O 	0.43050 0.39790 0.25670 -0.30300
O 	O 	0.27340 0.57150 0.05160 -0.48200
O 	O 	0.32730 0.76040 0.06730 -0.47200
N 	N 	0.01350 0.45270 0.50080 -0.02500
C 	C 	0.99390 0.34330 0.46620 0.04900
C 	C 	0.94450 0.35990 0.43010 -0.04000
H 	H 	0.92380 0.44220 0.42810 0.05500
C 	C 	0.92610 0.25340 0.39680 -0.02900
H 	H 	0.89300 0.26450 0.37270 0.03000
C 	C 	0.95710 0.13040 0.39970 -0.05800
H 	H 	0.94480 0.05920 0.37750 0.04400
C 	C 	0.00650 0.11380 0.43580 0.04800
C 	C 	0.02500 0.22030 0.46900 -0.06100
H 	H 	0.05800 0.20920 0.49320 0.04100
C 	C 	0.03940 0.98700 0.43800 0.03700
H 	H 	0.02650 0.92260 0.41320 0.04000
C 	C 	0.11640 0.81450 0.47320 0.06300
C 	C 	0.16430 0.79160 0.51030 -0.05400
H 	H 	0.17760 0.86110 0.53310 0.03600
C 	C 	0.19250 0.66500 0.51350 0.14600
H 	H 	0.22450 0.64970 0.53830 0.05100
N 	N 	0.17270 0.56120 0.47950 -0.05500
C 	C 	0.12480 0.58400 0.44240 -0.16700
H 	H 	0.11160 0.51460 0.41960 0.17400
C 	C 	0.09670 0.71070 0.43920 -0.10300
H 	H 	0.06460 0.72600 0.41440 0.05600
C 	C 	0.08500 0.95130 0.47050 -0.02800
H 	H 	0.09960 0.01670 0.49440 0.06200
Zn	Zn	0.71459 0.87839 0.48988 1.21400
N 	N 	0.48600 0.00350 0.47700 -0.06500
C 	C 	0.48410 0.87590 0.44980 0.04200
C 	C 	0.44440 0.86130 0.40570 -0.05900
H 	H 	0.41960 0.93360 0.39410 0.03700
C 	C 	0.44170 0.73870 0.37870 0.03500
H 	H 	0.41520 0.72890 0.34910 0.00700
C 	C 	0.47880 0.63060 0.39590 -0.03900
H 	H 	0.47700 0.54860 0.37790 0.03100
C 	C 	0.51840 0.64530 0.44010 -0.00900
C 	C 	0.52110 0.76790 0.46710 -0.04200
H 	H 	0.54770 0.77770 0.49660 0.05500
C 	C 	0.55880 0.52300 0.46020 -0.01800
H 	H 	0.58480 0.53540 0.48990 -0.01700
C 	C 	0.59550 0.28610 0.45000 0.09300
C 	C 	0.63900 0.29050 0.49190 -0.10700
H 	H 	0.64470 0.36990 0.51130 0.07100
C 	C 	0.67410 0.17600 0.50470 -0.01900
H 	H 	0.70330 0.17890 0.53270 -0.10100
N 	N 	0.66570 0.05730 0.47560 -0.13500
C 	C 	0.62210 0.05300 0.43370 0.12200
H 	H 	0.61650 0.97350 0.41430 -0.15000
C 	C 	0.58700 0.16740 0.42090 0.00100
H 	H 	0.55790 0.16450 0.39290 0.00900
C 	C 	0.55790 0.40390 0.43740 -0.12700
H 	H 	0.52920 0.39350 0.40930 0.02300
C 	C 	0.81790 0.81870 0.43370 0.42700
C 	C 	0.84920 0.84470 0.38780 -0.23400
C 	C 	0.82790 0.94580 0.35340 0.18000
H 	H 	0.79600 0.99990 0.35960 -0.01900
C 	C 	0.85480 0.96570 0.30940 -0.30400
H 	H 	0.84180 0.03510 0.28650 0.14000
C 	C 	0.90140 0.88000 0.30000 0.31400
C 	C 	0.92280 0.78540 0.33490 -0.32000
H 	H 	0.95550 0.73300 0.32940 0.15500
C 	C 	0.89610 0.76580 0.37880 0.19400
H 	H 	0.91040 0.69870 0.40210 -0.02500
C 	C 	0.89920 0.96380 0.21230 0.32500
C 	C 	0.85390 0.89210 0.18770 -0.32500
H 	H 	0.84210 0.80830 0.19980 0.15400
C 	C 	0.82550 0.95090 0.14280 0.18800
H 	H 	0.79450 0.90470 0.12380 -0.02100
C 	C 	0.84320 0.07790 0.12630 -0.22900
C 	C 	0.88980 0.14250 0.15300 0.18500
H 	H 	0.90270 0.22550 0.14110 -0.01300
C 	C 	0.91940 0.08650 0.19860 -0.31600
H 	H 	0.95070 0.13120 0.21790 0.15000
C 	C 	0.81270 0.14330 0.07790 0.43700
O 	O 	0.77920 0.90520 0.44320 -0.47100
O 	O 	0.83310 0.71520 0.45950 -0.47500
O 	O 	0.93050 0.89790 0.25670 -0.30300
O 	O 	0.77340 0.07150 0.05160 -0.48100
O 	O 	0.82730 0.26040 0.06730 -0.47200
N 	N 	0.51350 0.95270 0.50080 -0.02500
C 	C 	0.49390 0.84330 0.46620 0.04900
C 	C 	0.44450 0.85990 0.43010 -0.04000
H 	H 	0.42380 0.94220 0.42810 0.05500
C 	C 	0.42610 0.75340 0.39680 -0.02900
H 	H 	0.39300 0.76450 0.37270 0.03000
C 	C 	0.45710 0.63040 0.39970 -0.05800
H 	H 	0.44480 0.55920 0.37750 0.04400
C 	C 	0.50650 0.61380 0.43580 0.04800
C 	C 	0.52500 0.72030 0.46900 -0.06100
H 	H 	0.55800 0.70920 0.49320 0.04100
C 	C 	0.53940 0.48700 0.43800 0.03700
H 	H 	0.52650 0.42260 0.41320 0.04000
C 	C 	0.61640 0.31450 0.47320 0.06400
C 	C 	0.66430 0.29160 0.51030 -0.05400
H 	H 	0.67760 0.36110 0.53310 0.03600
C 	C 	0.69250 0.16500 0.51350 0.14600
H 	H 	0.72450 0.14970 0.53830 0.05100
N 	N 	0.67270 0.06120 0.47950 -0.05500
C 	C 	0.62480 0.08400 0.44240 -0.16700
H 	H 	0.61160 0.01460 0.41960 0.17400
C 	C 	0.59670 0.21070 0.43920 -0.10300
H 	H 	0.56460 0.22600 0.41440 0.05600
C 	C 	0.58500 0.45130 0.47050 -0.02800
H 	H 	0.59960 0.51670 0.49440 0.06300
Zn	Zn	0.78541 0.37839 0.01012 1.21400
N 	N 	0.01400 0.50350 0.02300 -0.06600
C 	C 	0.01590 0.37590 0.05020 0.04200
C 	C 	0.05560 0.36130 0.09430 -0.06000
H 	H 	0.08040 0.43360 0.10590 0.03700
C 	C 	0.05830 0.23870 0.12130 0.03500
H 	H 	0.08480 0.22890 0.15090 0.00700
C 	C 	0.02120 0.13060 0.10410 -0.03900
H 	H 	0.02300 0.04860 0.12210 0.03100
C 	C 	0.98160 0.14530 0.05990 -0.00800
C 	C 	0.97890 0.26790 0.03290 -0.04300
H 	H 	0.95230 0.27770 0.00340 0.05500
C 	C 	0.94120 0.02300 0.03980 -0.01500
H 	H 	0.91520 0.03540 0.01010 -0.01200
C 	C 	0.90450 0.78610 0.05000 0.09600
C 	C 	0.86100 0.79050 0.00810 -0.10700
H 	H 	0.85530 0.86990 0.98870 0.07300
C 	C 	0.82590 0.67600 0.99530 -0.01800
H 	H 	0.79670 0.67890 0.96730 -0.10100
N 	N 	0.83430 0.55730 0.02440 -0.13500
C 	C 	0.87790 0.55300 0.06630 0.12200
H 	H 	0.88350 0.47350 0.08570 -0.15000
C 	C 	0.91300 0.66740 0.07910 -0.00200
H 	H 	0.94210 0.66450 0.10710 0.01000
C 	C 	0.94210 0.90390 0.06260 -0.12500
H 	H 	0.97080 0.89350 0.09070 0.02500
C 	C 	0.68210 0.31870 0.06630 0.42700
C 	C 	0.65080 0.34470 0.11220 -0.23300
C 	C 	0.67210 0.44580 0.14660 0.18000
H 	H 	0.70400 0.49990 0.14040 -0.01900
C 	C 	0.64520 0.46570 0.19060 -0.30400
H 	H 	0.65820 0.53510 0.21350 0.14000
C 	C 	0.59860 0.38000 0.20000 0.31300
C 	C 	0.57720 0.28540 0.16510 -0.32000
H 	H 	0.54450 0.23300 0.17060 0.15500
C 	C 	0.60390 0.26580 0.12120 0.19400
H 	H 	0.58960 0.19870 0.09790 -0.02500
C 	C 	0.60080 0.46380 0.28770 0.32600
C 	C 	0.64610 0.39210 0.31230 -0.32600
H 	H 	0.65790 0.30830 0.30020 0.15400
C 	C 	0.67450 0.45090 0.35720 0.19000
H 	H 	0.70550 0.40470 0.37620 -0.02200
C 	C 	0.65680 0.57790 0.37370 -0.23100
C 	C 	0.61020 0.64250 0.34700 0.18600
H 	H 	0.59730 0.72550 0.35890 -0.01400
C 	C 	0.58060 0.58650 0.30140 -0.31800
H 	H 	0.54930 0.63120 0.28210 0.15000
C 	C 	0.68730 0.64330 0.42210 0.43700
O 	O 	0.72080 0.40520 0.05680 -0.47100
O 	O 	0.66690 0.21520 0.04050 -0.47500
O 	O 	0.56950 0.39790 0.24330 -0.30300
O 	O 	0.72660 0.57150 0.44840 -0.48200
O 	O 	0.67270 0.76040 0.43270 -0.47200
N 	N 	0.98650 0.45270 0.99920 -0.02500
C 	C 	0.00610 0.34330 0.03380 0.04900
C 	C 	0.05550 0.35990 0.06990 -0.04000
H 	H 	0.07620 0.44220 0.07190 0.05500
C 	C 	0.07390 0.25340 0.10320 -0.02900
H 	H 	0.10700 0.26450 0.12730 0.03000
C 	C 	0.04290 0.13040 0.10030 -0.05800
H 	H 	0.05520 0.05920 0.12250 0.04400
C 	C 	0.99350 0.11380 0.06420 0.04700
C 	C 	0.97500 0.22030 0.03100 -0.06100
H 	H 	0.94200 0.20920 0.00680 0.04000
C 	C 	0.96060 0.98700 0.06200 0.03300
H 	H 	0.97350 0.92260 0.08680 0.03800
C 	C 	0.88360 0.81450 0.02680 0.06000
C 	C 	0.83570 0.79160 0.98970 -0.05200
H 	H 	0.82240 0.86110 0.96690 0.03500
C 	C 	0.80750 0.66500 0.98650 0.14600
H 	H 	0.77550 0.64970 0.96170 0.05100
N 	N 	0.82730 0.56120 0.02050 -0.05500
C 	C 	0.87520 0.58400 0.05760 -0.16700
H 	H 	0.88840 0.51460 0.08040 0.17400
C 	C 	0.90330 0.71070 0.06080 -0.10300
H 	H 	0.93540 0.72600 0.08560 0.05600
C 	C 	0.91500 0.95130 0.02950 -0.02900
H 	H 	0.90040 0.01670 0.00560 0.05800
Zn	Zn	0.28541 0.87839 0.01012 1.21400
N 	N 	0.51400 0.00350 0.02300 -0.06500
C 	C 	0.51590 0.87590 0.05020 0.04100
C 	C 	0.55560 0.86130 0.09430 -0.05900
H 	H 	0.58040 0.93360 0.10590 0.03700
C 	C 	0.55830 0.73870 0.12130 0.03500
H 	H 	0.58480 0.72890 0.15090 0.00800
C 	C 	0.52120 0.63060 0.10410 -0.03900
H 	H 	0.52300 0.54860 0.12210 0.03100
C 	C 	0.48160 0.64530 0.05990 -0.00900
C 	C 	0.47890 0.76790 0.03290 -0.04200
H 	H 	0.45230 0.77770 0.00340 0.05500
C 	C 	0.44120 0.52300 0.03980 -0.01800
H 	H 	0.41520 0.53540 0.01010 -0.01700
C 	C 	0.40450 0.28610 0.05000 0.09300
C 	C 	0.36100 0.29050 0.00810 -0.10800
H 	H 	0.35530 0.36990 0.98870 0.07100
C 	C 	0.32590 0.17600 0.99530 -0.01900
H 	H 	0.29670 0.17890 0.96730 -0.10000
N 	N 	0.33430 0.05730 0.02440 -0.13500
C 	C 	0.37790 0.05300 0.06630 0.12200
H 	H 	0.38350 0.97350 0.08570 -0.14700
C 	C 	0.41300 0.16740 0.07910 -0.00000
H 	H 	0.44210 0.16450 0.10710 0.00900
C 	C 	0.44210 0.40390 0.06260 -0.12700
H 	H 	0.47080 0.39350 0.09070 0.02300
C 	C 	0.18210 0.81870 0.06630 0.42700
C 	C 	0.15080 0.84470 0.11220 -0.23400
C 	C 	0.17210 0.94580 0.14660 0.18000
H 	H 	0.20400 0.99990 0.14040 -0.02000
C 	C 	0.14520 0.96570 0.19060 -0.30500
H 	H 	0.15820 0.03510 0.21350 0.14000
C 	C 	0.09860 0.88000 0.20000 0.31400
C 	C 	0.07720 0.78540 0.16510 -0.32100
H 	H 	0.04450 0.73300 0.17060 0.15500
C 	C 	0.10390 0.76580 0.12120 0.19400
H 	H 	0.08960 0.69870 0.09790 -0.02500
C 	C 	0.10080 0.96380 0.28770 0.32600
C 	C 	0.14610 0.89210 0.31230 -0.32600
H 	H 	0.15790 0.80830 0.30020 0.15400
C 	C 	0.17450 0.95090 0.35720 0.18900
H 	H 	0.20550 0.90470 0.37620 -0.02100
C 	C 	0.15680 0.07790 0.37370 -0.23000
C 	C 	0.11020 0.14250 0.34700 0.18500
H 	H 	0.09730 0.22550 0.35890 -0.01300
C 	C 	0.08060 0.08650 0.30140 -0.31700
H 	H 	0.04930 0.13120 0.28210 0.15000
C 	C 	0.18730 0.14330 0.42210 0.43700
O 	O 	0.22080 0.90520 0.05680 -0.47100
O 	O 	0.16690 0.71520 0.04050 -0.47500
O 	O 	0.06950 0.89790 0.24330 -0.30300
O 	O 	0.22660 0.07150 0.44840 -0.48200
O 	O 	0.17270 0.26040 0.43270 -0.47200
N 	N 	0.48650 0.95270 0.99920 -0.02500
C 	C 	0.50610 0.84330 0.03380 0.04900
C 	C 	0.55550 0.85990 0.06990 -0.04000
H 	H 	0.57620 0.94220 0.07190 0.05400
C 	C 	0.57390 0.75340 0.10320 -0.02900
H 	H 	0.60700 0.76450 0.12730 0.03000
C 	C 	0.54290 0.63040 0.10030 -0.05800
H 	H 	0.55520 0.55920 0.12250 0.04400
C 	C 	0.49350 0.61380 0.06420 0.04800
C 	C 	0.47500 0.72030 0.03100 -0.06100
H 	H 	0.44200 0.70920 0.00680 0.04100
C 	C 	0.46060 0.48700 0.06200 0.03800
H 	H 	0.47350 0.42260 0.08680 0.04100
C 	C 	0.38360 0.31450 0.02680 0.06500
C 	C 	0.33570 0.29160 0.98970 -0.05400
H 	H 	0.32240 0.36110 0.96690 0.03600
C 	C 	0.30750 0.16500 0.98650 0.14500
H 	H 	0.27550 0.14970 0.96170 0.05000
N 	N 	0.32730 0.06120 0.02050 -0.05600
C 	C 	0.37520 0.08400 0.05760 -0.16400
H 	H 	0.38840 0.01460 0.08040 0.17000
C 	C 	0.40330 0.21070 0.06080 -0.10400
H 	H 	0.43540 0.22600 0.08560 0.05700
C 	C 	0.41500 0.45130 0.02950 -0.02800
H 	H 	0.40040 0.51670 0.00560 0.06300
Zn	Zn	0.78541 0.62161 0.51012 1.21400
N 	N 	0.01400 0.49650 0.52300 -0.06500
C 	C 	0.01590 0.62410 0.55020 0.04200
C 	C 	0.05560 0.63870 0.59430 -0.05900
H 	H 	0.08040 0.56640 0.60590 0.03700
C 	C 	0.05830 0.76130 0.62130 0.03500
H 	H 	0.08480 0.77110 0.65090 0.00700
C 	C 	0.02120 0.86940 0.60410 -0.03900
H 	H 	0.02300 0.95140 0.62210 0.03100
C 	C 	0.98160 0.85470 0.55990 -0.00800
C 	C 	0.97890 0.73210 0.53290 -0.04200
H 	H 	0.95230 0.72230 0.50340 0.05500
C 	C 	0.94120 0.97700 0.53980 -0.01800
H 	H 	0.91520 0.96460 0.51010 -0.01700
C 	C 	0.90450 0.21390 0.55000 0.09300
C 	C 	0.86100 0.20950 0.50810 -0.10700
H 	H 	0.85530 0.13010 0.48870 0.07100
C 	C 	0.82590 0.32400 0.49530 -0.01900
H 	H 	0.79670 0.32110 0.46730 -0.10100
N 	N 	0.83430 0.44270 0.52440 -0.13500
C 	C 	0.87790 0.44700 0.56630 0.12200
H 	H 	0.88350 0.52650 0.58570 -0.15000
C 	C 	0.91300 0.33260 0.57910 0.00000
H 	H 	0.94210 0.33550 0.60710 0.00900
C 	C 	0.94210 0.09610 0.56260 -0.12700
H 	H 	0.97080 0.10650 0.59070 0.02300
C 	C 	0.68210 0.68130 0.56630 0.42700
C 	C 	0.65080 0.65530 0.61220 -0.23300
C 	C 	0.67210 0.55420 0.64660 0.18000
H 	H 	0.70400 0.50010 0.64040 -0.01900
C 	C 	0.64520 0.53430 0.69060 -0.30400
H 	H 	0.65820 0.46490 0.71350 0.14000
C 	C 	0.59860 0.62000 0.70000 0.31400
C 	C 	0.57720 0.71460 0.66510 -0.32000
H 	H 	0.54450 0.76700 0.67060 0.15500
C 	C 	0.60390 0.73420 0.62120 0.19400
H 	H 	0.58960 0.80130 0.59790 -0.02500
C 	C 	0.60080 0.53620 0.78770 0.32600
C 	C 	0.64610 0.60790 0.81230 -0.32600
H 	H 	0.65790 0.69170 0.80020 0.15400
C 	C 	0.67450 0.54910 0.85720 0.19000
H 	H 	0.70550 0.59530 0.87620 -0.02200
C 	C 	0.65680 0.42210 0.87370 -0.23100
C 	C 	0.61020 0.35750 0.84700 0.18600
H 	H 	0.59730 0.27450 0.85890 -0.01400
C 	C 	0.58060 0.41350 0.80140 -0.31800
H 	H 	0.54930 0.36880 0.78210 0.15000
C 	C 	0.68730 0.35670 0.92210 0.43700
O 	O 	0.72080 0.59480 0.55680 -0.47100
O 	O 	0.66690 0.78480 0.54050 -0.47500
O 	O 	0.56950 0.60210 0.74330 -0.30300
O 	O 	0.72660 0.42850 0.94840 -0.48200
O 	O 	0.67270 0.23960 0.93270 -0.47200
N 	N 	0.98650 0.54730 0.49920 -0.02500
C 	C 	0.00610 0.65670 0.53380 0.04900
C 	C 	0.05550 0.64010 0.56990 -0.04000
H 	H 	0.07620 0.55780 0.57190 0.05500
C 	C 	0.07390 0.74660 0.60320 -0.02900
H 	H 	0.10700 0.73550 0.62730 0.03000
C 	C 	0.04290 0.86960 0.60030 -0.05800
H 	H 	0.05520 0.94080 0.62250 0.04400
C 	C 	0.99350 0.88620 0.56420 0.04800
C 	C 	0.97500 0.77970 0.53100 -0.06100
H 	H 	0.94200 0.79080 0.50680 0.04100
C 	C 	0.96060 0.01300 0.56200 0.03700
H 	H 	0.97350 0.07740 0.58680 0.04000
C 	C 	0.88360 0.18550 0.52680 0.06300
C 	C 	0.83570 0.20840 0.48970 -0.05400
H 	H 	0.82240 0.13890 0.46690 0.03600
C 	C 	0.80750 0.33500 0.48650 0.14600
H 	H 	0.77550 0.35030 0.46170 0.05100
N 	N 	0.82730 0.43880 0.52050 -0.05500
C 	C 	0.87520 0.41600 0.55760 -0.16700
H 	H 	0.88840 0.48540 0.58040 0.17400
C 	C 	0.90330 0.28930 0.56080 -0.10300
H 	H 	0.93540 0.27400 0.58560 0.05600
C 	C 	0.91500 0.04870 0.52950 -0.02800
H 	H 	0.90040 0.98330 0.50560 0.06200
Zn	Zn	0.28541 0.12161 0.51012 1.21400
N 	N 	0.51400 0.99650 0.52300 -0.06500
C 	C 	0.51590 0.12410 0.55020 0.04200
C 	C 	0.55560 0.13870 0.59430 -0.05900
H 	H 	0.58040 0.06640 0.60590 0.03700
C 	C 	0.55830 0.26130 0.62130 0.03500
H 	H 	0.58480 0.27110 0.65090 0.00700
C 	C 	0.52120 0.36940 0.60410 -0.03900
H 	H 	0.52300 0.45140 0.62210 0.03100
C 	C 	0.48160 0.35470 0.55990 -0.00900
C 	C 	0.47890 0.23210 0.53290 -0.04200
H 	H 	0.45230 0.22230 0.50340 0.05500
C 	C 	0.44120 0.47700 0.53980 -0.01800
H 	H 	0.41520 0.46460 0.51010 -0.01700
C 	C 	0.40450 0.71390 0.55000 0.09300
C 	C 	0.36100 0.70950 0.50810 -0.10700
H 	H 	0.35530 0.63010 0.48870 0.07100
C 	C 	0.32590 0.82400 0.49530 -0.01900
H 	H 	0.29670 0.82110 0.46730 -0.10100
N 	N 	0.33430 0.94270 0.52440 -0.13500
C 	C 	0.37790 0.94700 0.56630 0.12200
H 	H 	0.38350 0.02650 0.58570 -0.15000
C 	C 	0.41300 0.83260 0.57910 0.00100
H 	H 	0.44210 0.83550 0.60710 0.00900
C 	C 	0.44210 0.59610 0.56260 -0.12700
H 	H 	0.47080 0.60650 0.59070 0.02300
C 	C 	0.18210 0.18130 0.56630 0.42700
C 	C 	0.15080 0.15530 0.61220 -0.23400
C 	C 	0.17210 0.05420 0.64660 0.18000
H 	H 	0.20400 0.00010 0.64040 -0.01900
C 	C 	0.14520 0.03430 0.69060 -0.30400
H 	H 	0.15820 0.96490 0.71350 0.14000
C 	C 	0.09860 0.12000 0.70000 0.31400
C 	C 	0.07720 0.21460 0.66510 -0.32000
H 	H 	0.04450 0.26700 0.67060 0.15500
C 	C 	0.10390 0.23420 0.62120 0.19400
H 	H 	0.08960 0.30130 0.59790 -0.02500
C 	C 	0.10080 0.03620 0.78770 0.32500
C 	C 	0.14610 0.10790 0.81230 -0.32500
H 	H 	0.15790 0.19170 0.80020 0.15400
C 	C 	0.17450 0.04910 0.85720 0.18800
H 	H 	0.20550 0.09530 0.87620 -0.02100
C 	C 	0.15680 0.92210 0.87370 -0.22900
C 	C 	0.11020 0.85750 0.84700 0.18500
H 	H 	0.09730 0.77450 0.85890 -0.01300
C 	C 	0.08060 0.91350 0.80140 -0.31600
H 	H 	0.04930 0.86880 0.78210 0.15000
C 	C 	0.18730 0.85670 0.92210 0.43700
O 	O 	0.22080 0.09480 0.55680 -0.47100
O 	O 	0.16690 0.28480 0.54050 -0.47500
O 	O 	0.06950 0.10210 0.74330 -0.30300
O 	O 	0.22660 0.92850 0.94840 -0.48100
O 	O 	0.17270 0.73960 0.93270 -0.47200
N 	N 	0.48650 0.04730 0.49920 -0.02500
C 	C 	0.50610 0.15670 0.53380 0.04900
C 	C 	0.55550 0.14010 0.56990 -0.04000
H 	H 	0.57620 0.05780 0.57190 0.05500
C 	C 	0.57390 0.24660 0.60320 -0.02900
H 	H 	0.60700 0.23550 0.62730 0.03000
C 	C 	0.54290 0.36960 0.60030 -0.05800
H 	H 	0.55520 0.44080 0.62250 0.04400
C 	C 	0.49350 0.38620 0.56420 0.04800
C 	C 	0.47500 0.27970 0.53100 -0.06100
H 	H 	0.44200 0.29080 0.50680 0.04100
C 	C 	0.46060 0.51300 0.56200 0.03700
H 	H 	0.47350 0.57740 0.58680 0.04000
C 	C 	0.38360 0.68550 0.52680 0.06400
C 	C 	0.33570 0.70840 0.48970 -0.05400
H 	H 	0.32240 0.63890 0.46690 0.03600
C 	C 	0.30750 0.83500 0.48650 0.14600
H 	H 	0.27550 0.85030 0.46170 0.05100
N 	N 	0.32730 0.93880 0.52050 -0.05500
C 	C 	0.37520 0.91600 0.55760 -0.16700
H 	H 	0.38840 0.98540 0.58040 0.17400
C 	C 	0.40330 0.78930 0.56080 -0.10300
H 	H 	0.43540 0.77400 0.58560 0.05600
C 	C 	0.41500 0.54870 0.52950 -0.02800
H 	H 	0.40040 0.48330 0.50560 0.06300
Zn	Zn	0.21459 0.62161 0.98988 1.21400
N 	N 	0.98600 0.49650 0.97700 -0.06600
C 	C 	0.98410 0.62410 0.94980 0.04200
C 	C 	0.94440 0.63870 0.90570 -0.06000
H 	H 	0.91960 0.56640 0.89410 0.03700
C 	C 	0.94170 0.76130 0.87870 0.03500
H 	H 	0.91520 0.77110 0.84910 0.00700
C 	C 	0.97880 0.86940 0.89590 -0.03900
H 	H 	0.97700 0.95140 0.87790 0.03100
C 	C 	0.01840 0.85470 0.94010 -0.00800
C 	C 	0.02110 0.73210 0.96710 -0.04300
H 	H 	0.04770 0.72230 0.99660 0.05500
C 	C 	0.05880 0.97700 0.96020 -0.01500
H 	H 	0.08480 0.96460 0.98990 -0.01200
C 	C 	0.09550 0.21390 0.95000 0.09600
C 	C 	0.13900 0.20950 0.99190 -0.10700
H 	H 	0.14470 0.13010 0.01130 0.07300
C 	C 	0.17410 0.32400 0.00470 -0.01800
H 	H 	0.20330 0.32110 0.03270 -0.10100
N 	N 	0.16570 0.44270 0.97560 -0.13500
C 	C 	0.12210 0.44700 0.93370 0.12200
H 	H 	0.11650 0.52650 0.91430 -0.15000
C 	C 	0.08700 0.33260 0.92090 -0.00200
H 	H 	0.05790 0.33550 0.89290 0.01000
C 	C 	0.05790 0.09610 0.93740 -0.12500
H 	H 	0.02920 0.10650 0.90930 0.02500
C 	C 	0.31790 0.68130 0.93370 0.42700
C 	C 	0.34920 0.65530 0.88780 -0.23300
C 	C 	0.32790 0.55420 0.85340 0.18000
H 	H 	0.29600 0.50010 0.85960 -0.01900
C 	C 	0.35480 0.53430 0.80940 -0.30400
H 	H 	0.34180 0.46490 0.78650 0.14000
C 	C 	0.40140 0.62000 0.80000 0.31300
C 	C 	0.42280 0.71460 0.83490 -0.32000
H 	H 	0.45550 0.76700 0.82940 0.15500
C 	C 	0.39610 0.73420 0.87880 0.19400
H 	H 	0.41040 0.80130 0.90210 -0.02500
C 	C 	0.39920 0.53620 0.71230 0.32600
C 	C 	0.35390 0.60790 0.68770 -0.32600
H 	H 	0.34210 0.69170 0.69980 0.15400
C 	C 	0.32550 0.54910 0.64280 0.19000
H 	H 	0.29450 0.59530 0.62380 -0.02200
C 	C 	0.34320 0.42210 0.62630 -0.23100
C 	C 	0.38980 0.35750 0.65300 0.18600
H 	H 	0.40270 0.27450 0.64110 -0.01400
C 	C 	0.41940 0.41350 0.69860 -0.31800
H 	H 	0.45070 0.36880 0.71790 0.15000
C 	C 	0.31270 0.35670 0.57790 0.43700
O 	O 	0.27920 0.59480 0.94320 -0.47100
O 	O 	0.33310 0.78480 0.95950 -0.47500
O 	O 	0.43050 0.60210 0.75670 -0.30300
O 	O 	0.27340 0.42850 0.55160 -0.48200
O 	O 	0.32730 0.23960 0.56730 -0.47200
N 	N 	0.01350 0.54730 0.00080 -0.02500
C 	C 	0.99390 0.65670 0.96620 0.04900
C 	C 	0.94450 0.64010 0.93010 -0.04000
H 	H 	0.92380 0.55780 0.92810 0.05500
C 	C 	0.92610 0.74660 0.89680 -0.02900
H 	H 	0.89300 0.73550 0.87270 0.03000
C 	C 	0.95710 0.86960 0.89970 -0.05800
H 	H 	0.94480 0.94080 0.87750 0.04400
C 	C 	0.00650 0.88620 0.93580 0.04700
C 	C 	0.02500 0.77970 0.96900 -0.06100
H 	H 	0.05800 0.79080 0.99320 0.04000
C 	C 	0.03940 0.01300 0.93800 0.03300
H 	H 	0.02650 0.07740 0.91320 0.03800
C 	C 	0.11640 0.18550 0.97320 0.06000
C 	C 	0.16430 0.20840 0.01030 -0.05200
H 	H 	0.17760 0.13890 0.03310 0.03500
C 	C 	0.19250 0.33500 0.01350 0.14600
H 	H 	0.22450 0.35030 0.03830 0.05100
N 	N 	0.17270 0.43880 0.97950 -0.05500
C 	C 	0.12480 0.41600 0.94240 -0.16700
H 	H 	0.11160 0.48540 0.91960 0.17400
C 	C 	0.09670 0.28930 0.93920 -0.10300
H 	H 	0.06460 0.27400 0.91440 0.05600
C 	C 	0.08500 0.04870 0.97050 -0.02900
H 	H 	0.09960 0.98330 0.99440 0.05800
Zn	Zn	0.71459 0.12161 0.98988 1.21400
N 	N 	0.48600 0.99650 0.97700 -0.06500
C 	C 	0.48410 0.12410 0.94980 0.04100
C 	C 	0.44440 0.13870 0.90570 -0.05900
H 	H 	0.41960 0.06640 0.89410 0.03700
C 	C 	0.44170 0.26130 0.87870 0.03500
H 	H 	0.41520 0.27110 0.84910 0.00800
C 	C 	0.47880 0.36940 0.89590 -0.03900
H 	H 	0.47700 0.45140 0.87790 0.03100
C 	C 	0.51840 0.35470 0.94010 -0.00900
C 	C 	0.52110 0.23210 0.96710 -0.04200
H 	H 	0.54770 0.22230 0.99660 0.05500
C 	C 	0.55880 0.47700 0.96020 -0.01800
H 	H 	0.58480 0.46460 0.98990 -0.01700
C 	C 	0.59550 0.71390 0.95000 0.09300
C 	C 	0.63900 0.70950 0.99190 -0.10800
H 	H 	0.64470 0.63010 0.01130 0.07100
C 	C 	0.67410 0.82400 0.00470 -0.01900
H 	H 	0.70330 0.82110 0.03270 -0.10000
N 	N 	0.66570 0.94270 0.97560 -0.13500
C 	C 	0.62210 0.94700 0.93370 0.12200
H 	H 	0.61650 0.02650 0.91430 -0.14700
C 	C 	0.58700 0.83260 0.92090 -0.00000
H 	H 	0.55790 0.83550 0.89290 0.00900
C 	C 	0.55790 0.59610 0.93740 -0.12700
H 	H 	0.52920 0.60650 0.90930 0.02300
C 	C 	0.81790 0.18130 0.93370 0.42700
C 	C 	0.84920 0.15530 0.88780 -0.23400
C 	C 	0.82790 0.05420 0.85340 0.18000
H 	H 	0.79600 0.00010 0.85960 -0.02000
C 	C 	0.85480 0.03430 0.80940 -0.30500
H 	H 	0.84180 0.96490 0.78650 0.14000
C 	C 	0.90140 0.12000 0.80000 0.31400
C 	C 	0.92280 0.21460 0.83490 -0.32100
H 	H 	0.95550 0.26700 0.82940 0.15500
C 	C 	0.89610 0.23420 0.87880 0.19400
H 	H 	0.91040 0.30130 0.90210 -0.02500
C 	C 	0.89920 0.03620 0.71230 0.32600
C 	C 	0.85390 0.10790 0.68770 -0.32600
H 	H 	0.84210 0.19170 0.69980 0.15400
C 	C 	0.82550 0.04910 0.64280 0.18900
H 	H 	0.79450 0.09530 0.62380 -0.02100
C 	C 	0.84320 0.92210 0.62630 -0.23000
C 	C 	0.88980 0.85750 0.65300 0.18500
H 	H 	0.90270 0.77450 0.64110 -0.01300
C 	C 	0.91940 0.91350 0.69860 -0.31700
H 	H 	0.95070 0.86880 0.71790 0.15000
C 	C 	0.81270 0.85670 0.57790 0.43700
O 	O 	0.77920 0.09480 0.94320 -0.47100
O 	O 	0.83310 0.28480 0.95950 -0.47500
O 	O 	0.93050 0.10210 0.75670 -0.30300
O 	O 	0.77340 0.92850 0.55160 -0.48200
O 	O 	0.82730 0.73960 0.56730 -0.47200
N 	N 	0.51350 0.04730 0.00080 -0.02500
C 	C 	0.49390 0.15670 0.96620 0.04900
C 	C 	0.44450 0.14010 0.93010 -0.04000
H 	H 	0.42380 0.05780 0.92810 0.05400
C 	C 	0.42610 0.24660 0.89680 -0.02900
H 	H 	0.39300 0.23550 0.87270 0.03000
C 	C 	0.45710 0.36960 0.89970 -0.05800
H 	H 	0.44480 0.44080 0.87750 0.04400
C 	C 	0.50650 0.38620 0.93580 0.04800
C 	C 	0.52500 0.27970 0.96900 -0.06100
H 	H 	0.55800 0.29080 0.99320 0.04100
C 	C 	0.53940 0.51300 0.93800 0.03800
H 	H 	0.52650 0.57740 0.91320 0.04100
C 	C 	0.61640 0.68550 0.97320 0.06500
C 	C 	0.66430 0.70840 0.01030 -0.05400
H 	H 	0.67760 0.63890 0.03310 0.03600
C 	C 	0.69250 0.83500 0.01350 0.14500
H 	H 	0.72450 0.85030 0.03830 0.05000
N 	N 	0.67270 0.93880 0.97950 -0.05600
C 	C 	0.62480 0.91600 0.94240 -0.16400
H 	H 	0.61160 0.98540 0.91960 0.17000
C 	C 	0.59670 0.78930 0.93920 -0.10400
H 	H 	0.56460 0.77400 0.91440 0.05700
C 	C 	0.58500 0.54870 0.97050 -0.02800
H 	H 	0.59960 0.48330 0.99440 0.06300
