data_crystal

_cell_length_a 6.80500
_cell_length_b 13.97930
_cell_length_c 15.94470
_cell_angle_alpha 90.00000
_cell_angle_beta  90.00000
_cell_angle_gamma 90.00000

_symmetry_space_group_name_	'P 1'
_symmetry_space_group_name_H-M	'P 1'

loop_
_symmetry_equiv_pos_as_xyz
  x,y,z

loop_
_atom_site_label
_atom_site_type_symbol
_atom_site_fract_x
_atom_site_fract_y
_atom_site_fract_z
_atom_site_charge
V 	V 	0.93497 0.23611 0.49880 1.83300
V 	V 	0.56503 0.76389 0.99880 1.83500
V 	V 	0.06503 0.73611 0.00120 1.83400
V 	V 	0.43497 0.26389 0.50120 1.83500
H 	H 	0.96780 0.95320 0.17940 0.06800
H 	H 	0.55130 0.98350 0.17670 0.05700
H 	H 	0.94690 0.06150 0.28840 0.04600
H 	H 	0.53080 0.09240 0.28530 0.05600
H 	H 	0.53220 0.04680 0.67940 0.05600
H 	H 	0.94870 0.01650 0.67670 0.04500
H 	H 	0.55310 0.93850 0.78840 0.05600
H 	H 	0.96920 0.90760 0.78530 0.06400
H 	H 	0.03220 0.45320 0.32060 0.06000
H 	H 	0.44870 0.48350 0.32330 0.05500
H 	H 	0.05310 0.56150 0.21160 0.05100
H 	H 	0.46920 0.59240 0.21470 0.05700
H 	H 	0.46780 0.54680 0.82060 0.05800
H 	H 	0.05130 0.51650 0.82330 0.05400
H 	H 	0.44690 0.43850 0.71160 0.05500
H 	H 	0.03080 0.40760 0.71470 0.06100
C 	C 	0.27570 0.88095 0.10191 0.42600
C 	C 	0.26190 0.95574 0.16867 -0.07800
C 	C 	0.08160 0.98030 0.20131 -0.02800
C 	C 	0.42960 0.99851 0.19966 -0.01300
C 	C 	0.22450 0.15096 0.37326 0.43200
C 	C 	0.23690 0.08589 0.29911 -0.09500
C 	C 	0.06910 0.04520 0.26647 0.00900
C 	C 	0.41740 0.06363 0.26473 -0.00400
C 	C 	0.22430 0.11905 0.60191 0.43200
C 	C 	0.23810 0.04426 0.66867 -0.09400
C 	C 	0.41840 0.01970 0.70131 -0.00600
C 	C 	0.07040 0.00149 0.69966 0.00900
C 	C 	0.27550 0.84904 0.87326 0.42700
C 	C 	0.26310 0.91411 0.79911 -0.08200
C 	C 	0.43090 0.95480 0.76647 -0.01100
C 	C 	0.08260 0.93637 0.76473 -0.02200
C 	C 	0.72430 0.38095 0.39809 0.42800
C 	C 	0.73810 0.45574 0.33133 -0.08500
C 	C 	0.91840 0.48030 0.29869 -0.01400
C 	C 	0.57040 0.49851 0.30034 -0.01100
C 	C 	0.77550 0.65096 0.12674 0.43000
C 	C 	0.76310 0.58589 0.20089 -0.09000
C 	C 	0.93090 0.54520 0.23353 -0.00100
C 	C 	0.58260 0.56363 0.23527 -0.00600
C 	C 	0.77570 0.61905 0.89809 0.42900
C 	C 	0.76190 0.54426 0.83133 -0.08800
C 	C 	0.58160 0.51970 0.79869 -0.00800
C 	C 	0.92960 0.50149 0.80034 -0.00600
C 	C 	0.72450 0.34904 0.62674 0.42900
C 	C 	0.73690 0.41411 0.70089 -0.08600
C 	C 	0.56910 0.45480 0.73353 -0.00900
C 	C 	0.91740 0.43637 0.73527 -0.01400
O 	O 	0.71694 0.19130 0.49278 -0.67700
O 	O 	0.44420 0.85886 0.07608 -0.51100
O 	O 	0.05630 0.16834 0.40196 -0.51200
O 	O 	0.11630 0.84507 0.07724 -0.50500
O 	O 	0.38390 0.18297 0.40193 -0.50500
O 	O 	0.78306 0.80870 0.99278 -0.67600
O 	O 	0.05580 0.14114 0.57608 -0.51100
O 	O 	0.44370 0.83166 0.90196 -0.51300
O 	O 	0.38370 0.15493 0.57724 -0.50500
O 	O 	0.11610 0.81703 0.90193 -0.50400
O 	O 	0.28306 0.69130 0.00722 -0.67500
O 	O 	0.55580 0.35886 0.42392 -0.51300
O 	O 	0.94370 0.66834 0.09804 -0.51100
O 	O 	0.88370 0.34507 0.42276 -0.50500
O 	O 	0.61610 0.68297 0.09807 -0.50300
O 	O 	0.21694 0.30870 0.50722 -0.67500
O 	O 	0.94420 0.64114 0.92392 -0.51300
O 	O 	0.55630 0.33166 0.59804 -0.51300
O 	O 	0.61630 0.65493 0.92276 -0.50400
O 	O 	0.88390 0.31703 0.59807 -0.50500
