data_crystal

_cell_length_a 6.81270
_cell_length_b 13.71420
_cell_length_c 16.07010
_cell_angle_alpha 90.00000
_cell_angle_beta  90.00000
_cell_angle_gamma 90.00000

_symmetry_space_group_name_	'P 1'
_symmetry_space_group_name_H-M	'P 1'

loop_
_symmetry_equiv_pos_as_xyz
  x,y,z

loop_
_atom_site_label
_atom_site_type_symbol
_atom_site_fract_x
_atom_site_fract_y
_atom_site_fract_z
_atom_site_charge
V 	V 	0.43417 0.76462 0.00141 1.83300
V 	V 	0.06583 0.23538 0.50141 1.83100
V 	V 	0.56583 0.26462 0.49859 1.83400
V 	V 	0.93417 0.73538 0.99859 1.83300
H 	H 	0.96700 0.45710 0.67610 0.06000
H 	H 	0.94640 0.56600 0.78570 0.05100
H 	H 	0.52790 0.60810 0.77550 0.05600
H 	H 	0.54860 0.50090 0.66480 0.05600
H 	H 	0.53300 0.54290 0.17610 0.05800
H 	H 	0.55360 0.43400 0.28570 0.05500
H 	H 	0.97210 0.39190 0.27550 0.06000
H 	H 	0.95140 0.49910 0.16480 0.05500
H 	H 	0.03300 0.95710 0.82390 0.06900
H 	H 	0.05360 0.06600 0.71430 0.04500
H 	H 	0.47210 0.10810 0.72450 0.05300
H 	H 	0.45140 0.00090 0.83520 0.05800
H 	H 	0.46700 0.04290 0.32390 0.05800
H 	H 	0.44640 0.93400 0.21430 0.05400
H 	H 	0.02790 0.89190 0.22450 0.05700
H 	H 	0.04860 0.99910 0.33520 0.05700
C 	C 	0.27580 0.38864 0.59585 0.42700
C 	C 	0.26090 0.46563 0.66145 -0.08300
C 	C 	0.08000 0.48665 0.69663 -0.01600
C 	C 	0.06790 0.55168 0.76233 -0.00100
C 	C 	0.23580 0.59550 0.79340 -0.09100
C 	C 	0.41550 0.57704 0.75607 -0.00500
C 	C 	0.42800 0.51266 0.69005 -0.01200
C 	C 	0.22300 0.65783 0.86938 0.43000
C 	C 	0.22420 0.61136 0.09585 0.42700
C 	C 	0.23910 0.53437 0.16145 -0.08600
C 	C 	0.42000 0.51335 0.19663 -0.00900
C 	C 	0.43210 0.44832 0.26233 -0.00900
C 	C 	0.26420 0.40450 0.29340 -0.08600
C 	C 	0.08450 0.42296 0.25607 -0.01300
C 	C 	0.07200 0.48734 0.19005 -0.00800
C 	C 	0.27700 0.34217 0.36938 0.42900
C 	C 	0.72420 0.88864 0.90415 0.42300
C 	C 	0.73910 0.96563 0.83855 -0.07300
C 	C 	0.92000 0.98665 0.80337 -0.03400
C 	C 	0.93210 0.05168 0.73767 0.01400
C 	C 	0.76420 0.09550 0.70660 -0.09900
C 	C 	0.58450 0.07704 0.74393 0.00300
C 	C 	0.57200 0.01266 0.80995 -0.02000
C 	C 	0.77700 0.15783 0.63062 0.43300
C 	C 	0.77580 0.11136 0.40415 0.42600
C 	C 	0.76090 0.03437 0.33855 -0.08100
C 	C 	0.58000 0.01335 0.30337 -0.01400
C 	C 	0.56790 0.94832 0.23767 -0.00500
C 	C 	0.73580 0.90450 0.20660 -0.08900
C 	C 	0.91550 0.92296 0.24393 -0.00700
C 	C 	0.92800 0.98734 0.30995 -0.01400
C 	C 	0.72300 0.84217 0.13062 0.43000
O 	O 	0.21608 0.80953 0.00983 -0.67400
O 	O 	0.44412 0.36597 0.57080 -0.51200
O 	O 	0.38318 0.68900 0.89881 -0.50100
O 	O 	0.05606 0.67296 0.89933 -0.51200
O 	O 	0.11665 0.35088 0.57168 -0.50400
O 	O 	0.28392 0.19047 0.50983 -0.67600
O 	O 	0.05588 0.63403 0.07080 -0.51200
O 	O 	0.11682 0.31100 0.39881 -0.50300
O 	O 	0.44394 0.32704 0.39933 -0.51500
O 	O 	0.38335 0.64912 0.07168 -0.50300
O 	O 	0.78392 0.30953 0.49017 -0.67400
O 	O 	0.55588 0.86597 0.92920 -0.51000
O 	O 	0.61682 0.18900 0.60119 -0.50300
O 	O 	0.94394 0.17296 0.60067 -0.51400
O 	O 	0.88335 0.85088 0.92832 -0.50300
O 	O 	0.71608 0.69047 0.99017 -0.67400
O 	O 	0.94412 0.13403 0.42920 -0.51000
O 	O 	0.88318 0.81100 0.10119 -0.50200
O 	O 	0.55606 0.82704 0.10067 -0.51500
O 	O 	0.61665 0.14912 0.42832 -0.50300
