data_crystal

_cell_length_a 6.80230
_cell_length_b 13.91200
_cell_length_c 16.05200
_cell_angle_alpha 90.00000
_cell_angle_beta  90.00000
_cell_angle_gamma 90.00000

_symmetry_space_group_name_	'P 1'
_symmetry_space_group_name_H-M	'P 1'

loop_
_symmetry_equiv_pos_as_xyz
  x,y,z

loop_
_atom_site_label
_atom_site_type_symbol
_atom_site_fract_x
_atom_site_fract_y
_atom_site_fract_z
_atom_site_charge
V 	V 	0.56450 0.23606 0.99921 1.83500
V 	V 	0.93550 0.76394 0.49921 1.83400
V 	V 	0.43550 0.73606 0.50079 1.83500
V 	V 	0.06450 0.26394 0.00079 1.83500
H 	H 	0.55400 0.05440 0.79290 0.05300
H 	H 	0.53190 0.94770 0.68420 0.05900
H 	H 	0.96710 0.08090 0.79470 0.06100
H 	H 	0.94860 0.97240 0.68470 0.04700
H 	H 	0.94600 0.94560 0.29290 0.04200
H 	H 	0.96810 0.05230 0.18420 0.07100
H 	H 	0.53290 0.91910 0.29470 0.05300
H 	H 	0.55140 0.02760 0.18470 0.06000
H 	H 	0.44600 0.55440 0.70710 0.05200
H 	H 	0.46810 0.44770 0.81580 0.06000
H 	H 	0.03290 0.58090 0.70530 0.05800
H 	H 	0.05140 0.47240 0.81530 0.05600
H 	H 	0.05400 0.44560 0.20710 0.04700
H 	H 	0.03190 0.55230 0.31580 0.06300
H 	H 	0.46710 0.41910 0.20530 0.05400
H 	H 	0.44860 0.52760 0.31530 0.05800
C 	C 	0.27460 0.14320 0.87863 0.44000
C 	C 	0.26230 0.07690 0.80643 -0.09300
C 	C 	0.43130 0.03740 0.77200 -0.00200
C 	C 	0.41800 0.97350 0.70710 -0.01300
C 	C 	0.08100 0.05350 0.77330 -0.01300
C 	C 	0.07020 0.98820 0.70740 0.00200
C 	C 	0.23800 0.94730 0.67578 -0.08700
C 	C 	0.22410 0.87530 0.60710 0.42300
C 	C 	0.22540 0.85680 0.37863 0.44500
C 	C 	0.23770 0.92310 0.30643 -0.10700
C 	C 	0.06870 0.96260 0.27200 0.01800
C 	C 	0.08200 0.02650 0.20710 -0.03600
C 	C 	0.41900 0.94650 0.27330 0.00400
C 	C 	0.42980 0.01180 0.20740 -0.02000
C 	C 	0.26200 0.05270 0.17578 -0.07200
C 	C 	0.27590 0.12470 0.10710 0.41800
C 	C 	0.72540 0.64320 0.62137 0.44200
C 	C 	0.73770 0.57690 0.69357 -0.09700
C 	C 	0.56870 0.53740 0.72800 -0.00100
C 	C 	0.58200 0.47350 0.79290 -0.01400
C 	C 	0.91900 0.55350 0.72670 -0.00600
C 	C 	0.92980 0.48820 0.79260 -0.01200
C 	C 	0.76200 0.44730 0.82422 -0.08200
C 	C 	0.77590 0.37530 0.89290 0.42100
C 	C 	0.77460 0.35680 0.12137 0.44300
C 	C 	0.76230 0.42310 0.19357 -0.10100
C 	C 	0.93130 0.46260 0.22800 0.00800
C 	C 	0.91800 0.52650 0.29290 -0.02100
C 	C 	0.58100 0.44650 0.22670 0.00200
C 	C 	0.57020 0.51180 0.29260 -0.01700
C 	C 	0.73800 0.55270 0.32422 -0.07800
C 	C 	0.72410 0.62470 0.39290 0.42000
O 	O 	0.78224 0.19061 0.99610 -0.67600
O 	O 	0.44250 0.16221 0.90641 -0.51600
O 	O 	0.05630 0.85455 0.58015 -0.51000
O 	O 	0.11670 0.17671 0.90649 -0.51000
O 	O 	0.38570 0.84035 0.58196 -0.49900
O 	O 	0.71776 0.80939 0.49610 -0.67700
O 	O 	0.05750 0.83779 0.40641 -0.51600
O 	O 	0.44370 0.14545 0.08015 -0.51000
O 	O 	0.38330 0.82329 0.40649 -0.51100
O 	O 	0.11430 0.15965 0.08196 -0.49900
O 	O 	0.21776 0.69061 0.50390 -0.67600
O 	O 	0.55750 0.66221 0.59359 -0.51600
O 	O 	0.94370 0.35455 0.91985 -0.51100
O 	O 	0.88330 0.67671 0.59351 -0.51200
O 	O 	0.61430 0.34035 0.91804 -0.49800
O 	O 	0.28224 0.30939 0.00390 -0.67600
O 	O 	0.94250 0.33779 0.09359 -0.51400
O 	O 	0.55630 0.64545 0.41985 -0.51100
O 	O 	0.61670 0.32329 0.09351 -0.51000
O 	O 	0.88570 0.65965 0.41804 -0.49900
