data_crystal

_cell_length_a 6.82700
_cell_length_b 13.96500
_cell_length_c 16.07300
_cell_angle_alpha 90.00000
_cell_angle_beta  90.00000
_cell_angle_gamma 90.00000

_symmetry_space_group_name_	'P 1'
_symmetry_space_group_name_H-M	'P 1'

loop_
_symmetry_equiv_pos_as_xyz
  x,y,z

loop_
_atom_site_label
_atom_site_type_symbol
_atom_site_fract_x
_atom_site_fract_y
_atom_site_fract_z
_atom_site_charge
V 	V 	0.93488 0.23585 0.49911 1.83300
V 	V 	0.56512 0.76415 0.99911 1.83400
V 	V 	0.06512 0.73585 0.00089 1.83400
V 	V 	0.43488 0.26415 0.50089 1.83600
H 	H 	0.55190 0.98150 0.17980 0.05700
H 	H 	0.53130 0.08780 0.28680 0.05500
H 	H 	0.94820 0.05210 0.29320 0.04600
H 	H 	0.96890 0.95230 0.18120 0.06600
H 	H 	0.94810 0.01850 0.67980 0.04400
H 	H 	0.96870 0.91220 0.78680 0.06300
H 	H 	0.55180 0.94790 0.79320 0.05600
H 	H 	0.53110 0.04770 0.68120 0.05400
H 	H 	0.44810 0.48150 0.32020 0.05500
H 	H 	0.46870 0.58780 0.21320 0.05600
H 	H 	0.05180 0.55210 0.20680 0.05100
H 	H 	0.03110 0.45230 0.31880 0.05800
H 	H 	0.05190 0.51850 0.82020 0.05300
H 	H 	0.03130 0.41220 0.71320 0.06000
H 	H 	0.44820 0.44790 0.70680 0.05500
H 	H 	0.46890 0.54770 0.81880 0.05500
C 	C 	0.27790 0.87950 0.10460 0.41400
C 	C 	0.26150 0.95260 0.17040 -0.08200
C 	C 	0.43020 0.99600 0.20250 -0.01300
C 	C 	0.41770 0.05940 0.26650 -0.00400
C 	C 	0.22420 0.14620 0.37580 0.42200
C 	C 	0.23780 0.08260 0.30250 -0.09500
C 	C 	0.06990 0.03910 0.26980 0.00700
C 	C 	0.08290 0.97770 0.20390 -0.02500
C 	C 	0.22210 0.12050 0.60460 0.42000
C 	C 	0.23850 0.04740 0.67040 -0.09700
C 	C 	0.06980 0.00400 0.70250 0.00900
C 	C 	0.08230 0.94060 0.76650 -0.02200
C 	C 	0.27580 0.85380 0.87580 0.41700
C 	C 	0.26220 0.91740 0.80250 -0.08200
C 	C 	0.43010 0.96090 0.76980 -0.01300
C 	C 	0.41710 0.02230 0.70390 -0.00300
C 	C 	0.72210 0.37950 0.39540 0.41600
C 	C 	0.73850 0.45260 0.32960 -0.08800
C 	C 	0.56980 0.49600 0.29750 -0.01000
C 	C 	0.58230 0.55940 0.23350 -0.00600
C 	C 	0.77580 0.64620 0.12420 0.42000
C 	C 	0.76220 0.58260 0.19750 -0.09000
C 	C 	0.93010 0.53910 0.23020 -0.00400
C 	C 	0.91710 0.47770 0.29610 -0.01000
C 	C 	0.77790 0.62050 0.89540 0.41800
C 	C 	0.76150 0.54740 0.82960 -0.09200
C 	C 	0.93020 0.50400 0.79750 -0.00500
C 	C 	0.91770 0.44060 0.73350 -0.01400
C 	C 	0.72420 0.35380 0.62420 0.41900
C 	C 	0.73780 0.41740 0.69750 -0.08600
C 	C 	0.56990 0.46090 0.73020 -0.01200
C 	C 	0.58290 0.52230 0.79610 -0.00400
O 	O 	0.71770 0.19120 0.49420 -0.67600
O 	O 	0.44370 0.85720 0.07850 -0.50500
O 	O 	0.05590 0.16600 0.40530 -0.50800
O 	O 	0.11640 0.84260 0.07620 -0.49800
O 	O 	0.38280 0.18070 0.40310 -0.49500
O 	O 	0.78230 0.80880 0.99420 -0.67500
O 	O 	0.05630 0.14280 0.57850 -0.50500
O 	O 	0.44410 0.83400 0.90530 -0.50900
O 	O 	0.38360 0.15740 0.57620 -0.49800
O 	O 	0.11720 0.81930 0.90310 -0.49400
O 	O 	0.28230 0.69120 0.00580 -0.67500
O 	O 	0.55630 0.35720 0.42150 -0.50700
O 	O 	0.94410 0.66600 0.09470 -0.50700
O 	O 	0.88360 0.34260 0.42380 -0.49800
O 	O 	0.61720 0.68070 0.09690 -0.49400
O 	O 	0.21770 0.30880 0.50580 -0.67400
O 	O 	0.94370 0.64280 0.92150 -0.50700
O 	O 	0.55590 0.33400 0.59470 -0.50900
O 	O 	0.61640 0.65740 0.92380 -0.49700
O 	O 	0.88280 0.31930 0.59690 -0.49500
