data_crystal

_cell_length_a 18.03500
_cell_length_b 18.03500
_cell_length_c 31.23930
_cell_angle_alpha 78.13380
_cell_angle_beta  78.13380
_cell_angle_gamma 106.71700

_symmetry_space_group_name_	'P 1'
_symmetry_space_group_name_H-M	'P 1'

loop_
_symmetry_equiv_pos_as_xyz
  x,y,z

loop_
_atom_site_label
_atom_site_type_symbol
_atom_site_fract_x
_atom_site_fract_y
_atom_site_fract_z
_atom_site_charge
Zn	Zn	0.15610 0.41059 0.48514 1.21200
Zn	Zn	0.75475 0.52208 0.78157 1.15900
Zn	Zn	0.65146 0.89598 0.49636 1.15700
Zn	Zn	0.26524 0.99494 0.77198 1.21200
Zn	Zn	0.66059 0.90610 0.98515 1.21400
Zn	Zn	0.77208 0.50475 0.28157 1.16000
Zn	Zn	0.14598 0.40146 0.99636 1.15500
Zn	Zn	0.24494 0.01524 0.27198 1.20600
H 	H 	0.03340 0.25820 0.54960 -0.01100
H 	H 	0.90990 0.21390 0.60400 0.07700
H 	H 	0.91390 0.44210 0.58160 0.10900
H 	H 	0.03670 0.48130 0.53160 -0.00900
H 	H 	0.84950 0.41850 0.74820 -0.02400
H 	H 	0.85590 0.34670 0.69660 0.12700
H 	H 	0.69760 0.43120 0.65000 0.10500
H 	H 	0.68350 0.49130 0.71160 -0.05900
H 	H 	0.03150 0.52210 0.81240 0.05900
H 	H 	0.09570 0.48850 0.86700 0.05800
H 	H 	0.88210 0.41670 0.96140 0.06200
H 	H 	0.82240 0.44140 0.90460 0.03800
H 	H 	0.69840 0.99760 0.55840 -0.06600
H 	H 	0.76910 0.01050 0.61000 0.06200
H 	H 	0.81090 0.80810 0.59740 0.13600
H 	H 	0.74460 0.80540 0.54380 -0.01700
H 	H 	0.73980 0.78780 0.70380 0.10600
H 	H 	0.69570 0.66450 0.75300 -0.05200
H 	H 	0.90840 0.64120 0.71420 -0.00700
H 	H 	0.95470 0.76430 0.66400 0.10800
H 	H 	0.54320 0.73020 0.56020 -0.01900
H 	H 	0.42200 0.67280 0.61220 0.11700
H 	H 	0.38270 0.88050 0.58380 0.11700
H 	H 	0.50390 0.93510 0.53160 -0.08400
H 	H 	0.35050 0.79890 0.70000 0.10600
H 	H 	0.34410 0.87730 0.75120 -0.01500
H 	H 	0.18900 0.94920 0.70440 -0.03700
H 	H 	0.17640 0.86580 0.65700 0.11900
H 	H 	0.21330 0.13990 0.74240 -0.06200
H 	H 	0.26040 0.25880 0.68880 0.17500
H 	H 	0.45130 0.20890 0.63940 0.13600
H 	H 	0.40800 0.09700 0.69420 -0.07400
H 	H 	0.28180 0.47720 0.60540 0.13500
H 	H 	0.21250 0.48730 0.55160 -0.03900
H 	H 	0.24800 0.31120 0.51660 -0.04400
H 	H 	0.31910 0.28890 0.56500 0.13700
H 	H 	0.11770 0.09290 0.39900 0.02000
H 	H 	0.11520 0.17340 0.44480 0.07000
H 	H 	0.29740 0.34920 0.34940 0.06600
H 	H 	0.30270 0.25790 0.30640 0.01700
H 	H 	0.20720 0.82880 0.39600 0.05800
H 	H 	0.19370 0.71710 0.44980 0.05500
H 	H 	0.19420 0.59080 0.35860 0.04900
H 	H 	0.22070 0.71090 0.30060 0.06800
H 	H 	0.75030 0.34730 0.61560 0.11200
H 	H 	0.80790 0.24030 0.64960 0.07600
H 	H 	0.83640 0.94680 0.65880 0.11400
H 	H 	0.93740 0.88660 0.63240 0.13100
H 	H 	0.30610 0.68730 0.65540 0.13400
H 	H 	0.22540 0.77180 0.63000 0.12500
H 	H 	0.43460 0.32380 0.60800 0.12000
H 	H 	0.36340 0.41280 0.63520 0.15400
H 	H 	0.50820 0.78340 0.04960 -0.02000
H 	H 	0.46390 0.65990 0.10400 0.09000
H 	H 	0.69210 0.66390 0.08160 0.12300
H 	H 	0.73130 0.78670 0.03160 -0.02100
H 	H 	0.66850 0.59950 0.24820 -0.02600
H 	H 	0.59670 0.60590 0.19660 0.12500
H 	H 	0.68120 0.44760 0.15000 0.10500
H 	H 	0.74130 0.43350 0.21160 -0.05900
H 	H 	0.77210 0.78150 0.31240 0.06200
H 	H 	0.73850 0.84570 0.36700 0.04700
H 	H 	0.66670 0.63210 0.46140 0.05200
H 	H 	0.69140 0.57240 0.40460 0.04300
H 	H 	0.24760 0.44840 0.05840 -0.07700
H 	H 	0.26050 0.51910 0.11000 0.08400
H 	H 	0.05810 0.56090 0.09740 0.13500
H 	H 	0.05540 0.49460 0.04380 -0.02400
H 	H 	0.03780 0.48980 0.20380 0.10600
H 	H 	0.91450 0.44570 0.25300 -0.05400
H 	H 	0.89120 0.65840 0.21420 0.00200
H 	H 	0.01430 0.70470 0.16400 0.07200
H 	H 	0.98020 0.29320 0.06020 0.01900
H 	H 	0.92280 0.17200 0.11220 0.08300
H 	H 	0.13050 0.13270 0.08380 0.09700
H 	H 	0.18510 0.25390 0.03160 -0.07800
H 	H 	0.04890 0.10050 0.20000 0.10000
H 	H 	0.12730 0.09410 0.25120 -0.01700
H 	H 	0.19920 0.93900 0.20440 -0.04000
H 	H 	0.11580 0.92640 0.15700 0.11500
H 	H 	0.38990 0.96330 0.24240 -0.03700
H 	H 	0.50880 0.01040 0.18880 0.16300
H 	H 	0.45890 0.20130 0.13940 0.13200
H 	H 	0.34700 0.15800 0.19420 -0.06900
H 	H 	0.72720 0.03180 0.10540 0.13700
H 	H 	0.73730 0.96250 0.05160 -0.04400
H 	H 	0.56120 0.99800 0.01660 -0.01700
H 	H 	0.53890 0.06910 0.06500 0.12600
H 	H 	0.34290 0.86770 0.89900 0.02800
H 	H 	0.42340 0.86520 0.94480 0.07200
H 	H 	0.59920 0.04740 0.84940 0.06600
H 	H 	0.50790 0.05270 0.80640 0.02200
H 	H 	0.07880 0.95720 0.89600 0.06700
H 	H 	0.96710 0.94370 0.94980 0.05000
H 	H 	0.84080 0.94420 0.85860 0.05100
H 	H 	0.96090 0.97070 0.80060 0.06900
H 	H 	0.59730 0.50030 0.11560 0.11200
H 	H 	0.49030 0.55790 0.14960 0.07800
H 	H 	0.19680 0.58640 0.15880 0.11000
H 	H 	0.13660 0.68740 0.13240 0.12200
H 	H 	0.93730 0.05610 0.15540 0.12600
H 	H 	0.02180 0.97540 0.13000 0.13300
H 	H 	0.57380 0.18460 0.10800 0.11900
H 	H 	0.66280 0.11340 0.13520 0.15400
C 	C 	0.00935 0.29543 0.55582 0.07000
C 	C 	0.93449 0.26849 0.58862 -0.17400
C 	C 	0.89709 0.32149 0.59822 0.16200
C 	C 	0.93705 0.40401 0.57574 -0.17500
C 	C 	0.00983 0.42645 0.54532 0.08000
C 	C 	0.81643 0.41921 0.72896 0.13900
C 	C 	0.82226 0.37720 0.69754 -0.25100
C 	C 	0.77831 0.38097 0.66792 0.20900
C 	C 	0.72699 0.42601 0.67100 -0.21900
C 	C 	0.72042 0.46472 0.70746 0.11000
C 	C 	0.88176 0.50838 0.81700 0.33500
C 	C 	0.91928 0.48388 0.85258 -0.07000
C 	C 	0.00070 0.49852 0.84258 -0.02700
C 	C 	0.04057 0.47989 0.87554 -0.05400
C 	C 	0.99512 0.44834 0.92116 -0.02700
C 	C 	0.91349 0.43615 0.93118 -0.05100
C 	C 	0.87792 0.45264 0.89666 -0.00100
C 	C 	0.03064 0.43032 0.95734 0.27800
C 	C 	0.72304 0.95988 0.56568 0.11800
C 	C 	0.76378 0.96746 0.59736 -0.21200
C 	C 	0.79708 0.90934 0.61052 0.18900
C 	C 	0.78904 0.84792 0.58952 -0.23100
C 	C 	0.74927 0.84677 0.55756 0.12500
C 	C 	0.85481 0.79519 0.67804 0.19600
C 	C 	0.77544 0.75966 0.70564 -0.22000
C 	C 	0.74923 0.68461 0.73516 0.11400
C 	C 	0.87369 0.67053 0.71258 0.09900
C 	C 	0.90192 0.74520 0.68248 -0.20500
C 	C 	0.51085 0.76117 0.56518 0.12500
C 	C 	0.43884 0.72714 0.59642 -0.25000
C 	C 	0.38865 0.77101 0.60574 0.23100
C 	C 	0.41505 0.84913 0.57982 -0.27000
C 	C 	0.48802 0.88156 0.54842 0.15200
C 	C 	0.26235 0.82433 0.67252 0.21000
C 	C 	0.31513 0.82757 0.70130 -0.20800
C 	C 	0.31172 0.87558 0.73150 0.09400
C 	C 	0.21972 0.91560 0.70488 0.16300
C 	C 	0.21269 0.86751 0.67440 -0.26400
C 	C 	0.26319 0.15375 0.72146 0.24100
C 	C 	0.29124 0.22538 0.68918 -0.38700
C 	C 	0.36066 0.24850 0.65864 0.35000
C 	C 	0.40234 0.19578 0.66128 -0.37900
C 	C 	0.37602 0.12926 0.69272 0.21900
C 	C 	0.30986 0.38162 0.59032 0.24800
C 	C 	0.27654 0.44232 0.58714 -0.28100
C 	C 	0.23513 0.44699 0.55448 0.17400
C 	C 	0.25622 0.34612 0.53466 0.19200
C 	C 	0.29867 0.33093 0.56340 -0.29800
C 	C 	0.22069 0.11249 0.32022 0.36000
C 	C 	0.21284 0.16982 0.34754 -0.13900
C 	C 	0.15536 0.14496 0.38928 0.03800
C 	C 	0.15226 0.19356 0.41598 -0.08100
C 	C 	0.20173 0.27161 0.40234 -0.00700
C 	C 	0.26049 0.29677 0.36014 -0.08700
C 	C 	0.26310 0.24142 0.33408 0.04400
C 	C 	0.19498 0.32900 0.43222 0.28000
C 	C 	0.22936 0.85568 0.30556 0.29700
C 	C 	0.21646 0.78098 0.34334 -0.04200
C 	C 	0.20711 0.78193 0.38796 -0.03900
C 	C 	0.19789 0.71513 0.41998 -0.01100
C 	C 	0.19450 0.64308 0.40962 -0.07700
C 	C 	0.19974 0.63942 0.36564 -0.01200
C 	C 	0.21361 0.71103 0.33096 -0.04400
C 	C 	0.18163 0.56413 0.44464 0.35300
C 	C 	0.54543 0.75935 0.05582 0.10800
C 	C 	0.51849 0.68449 0.08862 -0.21800
C 	C 	0.57149 0.64709 0.09822 0.18800
C 	C 	0.65401 0.68705 0.07574 -0.22400
C 	C 	0.67645 0.75983 0.04532 0.12200
C 	C 	0.66921 0.56643 0.22896 0.13900
C 	C 	0.62720 0.57226 0.19754 -0.25100
C 	C 	0.63097 0.52831 0.16792 0.20800
C 	C 	0.67601 0.47699 0.17100 -0.21900
C 	C 	0.71472 0.47042 0.20746 0.11000
C 	C 	0.75838 0.63176 0.31700 0.33600
C 	C 	0.73388 0.66928 0.35258 -0.07600
C 	C 	0.74852 0.75070 0.34258 -0.02300
C 	C 	0.72989 0.79057 0.37554 -0.01500
C 	C 	0.69834 0.74512 0.42116 -0.08200
C 	C 	0.68615 0.66349 0.43118 -0.02500
C 	C 	0.70264 0.62792 0.39666 -0.01500
C 	C 	0.68032 0.78064 0.45734 0.32800
C 	C 	0.20988 0.47304 0.06568 0.13600
C 	C 	0.21746 0.51378 0.09736 -0.25000
C 	C 	0.15934 0.54708 0.11052 0.20000
C 	C 	0.09792 0.53904 0.08952 -0.24200
C 	C 	0.09677 0.49927 0.05756 0.12900
C 	C 	0.04519 0.60481 0.17804 0.16600
C 	C 	0.00966 0.52544 0.20564 -0.23000
C 	C 	0.93461 0.49923 0.23516 0.13000
C 	C 	0.92053 0.62369 0.21258 0.07100
C 	C 	0.99520 0.65192 0.18248 -0.14300
C 	C 	0.01117 0.26085 0.06518 0.03600
C 	C 	0.97714 0.18884 0.09642 -0.15100
C 	C 	0.02101 0.13865 0.10574 0.16000
C 	C 	0.09913 0.16505 0.07982 -0.22400
C 	C 	0.13156 0.23802 0.04842 0.12100
C 	C 	0.07433 0.01235 0.17252 0.19400
C 	C 	0.07757 0.06513 0.20130 -0.20600
C 	C 	0.12558 0.06172 0.23150 0.08700
C 	C 	0.16560 0.96972 0.20488 0.17200
C 	C 	0.11751 0.96269 0.17440 -0.25000
C 	C 	0.40375 0.01319 0.22146 0.20200
C 	C 	0.47538 0.04124 0.18918 -0.36000
C 	C 	0.49850 0.11066 0.15864 0.33300
C 	C 	0.44578 0.15234 0.16128 -0.36400
C 	C 	0.37926 0.12602 0.19272 0.21000
C 	C 	0.63162 0.05986 0.09032 0.24300
C 	C 	0.69232 0.02654 0.08714 -0.29800
C 	C 	0.69699 0.98513 0.05448 0.19600
C 	C 	0.59612 0.00622 0.03466 0.14000
C 	C 	0.58093 0.04867 0.06340 -0.27300
C 	C 	0.36249 0.97069 0.82022 0.37100
C 	C 	0.41982 0.96284 0.84754 -0.11900
C 	C 	0.39496 0.90536 0.88928 0.03100
C 	C 	0.44356 0.90226 0.91598 -0.07500
C 	C 	0.52161 0.95173 0.90234 -0.00000
C 	C 	0.54677 0.01049 0.86014 -0.09200
C 	C 	0.49142 0.01310 0.83408 0.02200
C 	C 	0.57900 0.94498 0.93222 0.29200
C 	C 	0.10568 0.97936 0.80556 0.29800
C 	C 	0.03098 0.96646 0.84334 -0.04900
C 	C 	0.03193 0.95711 0.88796 -0.06700
C 	C 	0.96513 0.94789 0.91998 0.02300
C 	C 	0.89308 0.94450 0.90962 -0.08200
C 	C 	0.88942 0.94974 0.86564 -0.00900
C 	C 	0.96103 0.96361 0.83096 -0.02500
C 	C 	0.81413 0.93163 0.94464 0.35700
N 	N 	0.76652 0.46170 0.73426 -0.30900
N 	N 	0.77805 0.34081 0.63454 -0.19400
N 	N 	0.82427 0.28853 0.63180 -0.17600
N 	N 	0.04712 0.37440 0.53318 -0.26500
N 	N 	0.71548 0.90286 0.54432 -0.30300
N 	N 	0.83982 0.91448 0.64230 -0.18000
N 	N 	0.88741 0.86865 0.64794 -0.18900
N 	N 	0.79438 0.63556 0.74126 -0.30300
N 	N 	0.53829 0.84171 0.54008 -0.31400
N 	N 	0.31767 0.73531 0.63836 -0.20200
N 	N 	0.26108 0.77724 0.64468 -0.19600
N 	N 	0.26127 0.91951 0.73216 -0.29800
N 	N 	0.30131 0.10303 0.72502 -0.32800
N 	N 	0.38942 0.31530 0.62728 -0.23300
N 	N 	0.35537 0.37741 0.62042 -0.20500
N 	N 	0.22434 0.40204 0.52796 -0.32100
N 	N 	0.71170 0.51652 0.23426 -0.30900
N 	N 	0.59081 0.52805 0.13454 -0.19400
N 	N 	0.53853 0.57427 0.13180 -0.18200
N 	N 	0.62440 0.79712 0.03318 -0.27600
N 	N 	0.15286 0.46548 0.04432 -0.30900
N 	N 	0.16448 0.58982 0.14230 -0.18400
N 	N 	0.11865 0.63741 0.14794 -0.18300
N 	N 	0.88556 0.54438 0.24126 -0.30000
N 	N 	0.09171 0.28829 0.04008 -0.29800
N 	N 	0.98531 0.06767 0.13836 -0.17700
N 	N 	0.02724 0.01108 0.14468 -0.20900
N 	N 	0.16951 0.01127 0.23216 -0.30700
N 	N 	0.35303 0.05131 0.22502 -0.31900
N 	N 	0.56530 0.13942 0.12728 -0.22900
N 	N 	0.62741 0.10537 0.12042 -0.20400
N 	N 	0.65204 0.97434 0.02796 -0.30900
O 	O 	0.92341 0.54905 0.77822 -0.31000
O 	O 	0.80444 0.48140 0.82790 -0.49100
O 	O 	0.10657 0.44377 0.94566 -0.48500
O 	O 	0.98855 0.40543 0.99760 -0.29700
O 	O 	0.27376 0.12526 0.28778 -0.45900
O 	O 	0.15904 0.04574 0.32922 -0.38200
O 	O 	0.13094 0.31194 0.46180 -0.42800
O 	O 	0.25875 0.38969 0.42546 -0.32600
O 	O 	0.24417 0.92381 0.31840 -0.44000
O 	O 	0.22713 0.85375 0.26782 -0.31100
O 	O 	0.15888 0.49936 0.43776 -0.48400
O 	O 	0.20016 0.57248 0.48076 -0.32300
O 	O 	0.79905 0.67341 0.27822 -0.31500
O 	O 	0.73140 0.55444 0.32790 -0.49100
O 	O 	0.69377 0.85657 0.44566 -0.49200
O 	O 	0.65543 0.73855 0.49760 -0.32200
O 	O 	0.37526 0.02376 0.78778 -0.47000
O 	O 	0.29574 0.90904 0.82922 -0.37700
O 	O 	0.56194 0.88094 0.96180 -0.42800
O 	O 	0.63969 0.00875 0.92546 -0.33800
O 	O 	0.17381 0.99417 0.81840 -0.44000
O 	O 	0.10375 0.97713 0.76782 -0.31300
O 	O 	0.74936 0.90888 0.93776 -0.48200
O 	O 	0.82248 0.95016 0.98076 -0.32000
Zn	Zn	0.89574 0.64124 0.51485 1.21400
Zn	Zn	0.30365 0.53632 0.21843 1.16000
Zn	Zn	0.39234 0.14782 0.50364 1.15600
Zn	Zn	0.76692 0.03722 0.22802 1.20500
Zn	Zn	0.89124 0.64574 0.01486 1.21500
Zn	Zn	0.78632 0.05365 0.71843 1.15700
Zn	Zn	0.39782 0.14234 0.00364 1.15500
Zn	Zn	0.28722 0.51692 0.72802 1.20900
H 	H 	0.80780 0.58300 0.45040 -0.02000
H 	H 	0.81790 0.51390 0.39600 0.08900
H 	H 	0.02370 0.49550 0.41840 0.10600
H 	H 	0.01290 0.56830 0.46840 -0.03600
H 	H 	0.16670 0.59770 0.25180 -0.02400
H 	H 	0.04330 0.55250 0.30340 0.11600
H 	H 	0.08120 0.34760 0.35000 0.09900
H 	H 	0.20290 0.39510 0.28840 -0.05800
H 	H 	0.33450 0.84390 0.18760 0.06300
H 	H 	0.35550 0.96270 0.13300 0.04900
H 	H 	0.37810 0.84350 0.03860 0.05000
H 	H 	0.34600 0.72700 0.09540 0.04400
H 	H 	0.55600 0.25680 0.44160 -0.07700
H 	H 	0.62050 0.37910 0.39000 0.08400
H 	H 	0.40550 0.40830 0.40260 0.13800
H 	H 	0.34920 0.28840 0.45620 -0.02000
H 	H 	0.49160 0.44360 0.29620 0.10400
H 	H 	0.41750 0.44870 0.24700 -0.05100
H 	H 	0.35540 0.62260 0.28580 -0.00900
H 	H 	0.42830 0.61870 0.33600 0.10300
H 	H 	0.29040 0.10340 0.43980 -0.02200
H 	H 	0.28500 0.03420 0.38780 0.11900
H 	H 	0.46430 0.96650 0.41620 0.11200
H 	H 	0.46670 0.03550 0.46840 -0.08500
H 	H 	0.49890 0.05050 0.30000 0.10800
H 	H 	0.62850 0.09530 0.24880 -0.01500
H 	H 	0.65360 0.89340 0.29560 -0.03900
H 	H 	0.52280 0.83340 0.34300 0.12300
H 	H 	0.88230 0.95570 0.25760 -0.05500
H 	H 	0.94760 0.94920 0.31120 0.17200
H 	H 	0.84830 0.09070 0.36060 0.13100
H 	H 	0.79120 0.10220 0.30580 -0.06900
H 	H 	0.08260 0.88720 0.39460 0.14200
H 	H 	0.03890 0.76410 0.44840 -0.03800
H 	H 	0.82780 0.76460 0.48340 -0.04700
H 	H 	0.85390 0.88410 0.43500 0.14300
H 	H 	0.49190 0.51670 0.60100 0.02600
H 	H 	0.61820 0.56000 0.55520 0.07200
H 	H 	0.69860 0.64680 0.65060 0.06600
H 	H 	0.56430 0.60910 0.69360 0.01800
H 	H 	0.22480 0.60320 0.60400 0.04800
H 	H 	0.16690 0.64350 0.55020 0.06600
H 	H 	0.94940 0.55280 0.64140 0.07900
H 	H 	0.01150 0.52130 0.69940 0.05100
H 	H 	0.96290 0.36590 0.38440 0.11400
H 	H 	0.88990 0.45750 0.35040 0.07900
H 	H 	0.60560 0.49520 0.34120 0.11000
H 	H 	0.51900 0.56980 0.36760 0.12400
H 	H 	0.34270 0.96150 0.34460 0.13800
H 	H 	0.40180 0.85540 0.37000 0.12700
H 	H 	0.93180 0.04260 0.39200 0.11900
H 	H 	0.04800 0.99860 0.36480 0.14700
H 	H 	0.83300 0.55780 0.95040 -0.01900
H 	H 	0.76390 0.56790 0.89600 0.09000
H 	H 	0.74550 0.77370 0.91840 0.12300
H 	H 	0.81830 0.76290 0.96840 -0.02000
H 	H 	0.84770 0.91670 0.75180 -0.02200
H 	H 	0.80250 0.79330 0.80340 0.12600
H 	H 	0.59760 0.83120 0.85000 0.10500
H 	H 	0.64510 0.95290 0.78840 -0.05500
H 	H 	0.09390 0.08450 0.68760 0.05700
H 	H 	0.21270 0.10550 0.63300 0.04300
H 	H 	0.09350 0.12810 0.53860 0.04200
H 	H 	0.97700 0.09600 0.59540 0.06200
H 	H 	0.50680 0.30600 0.94160 -0.07600
H 	H 	0.62910 0.37050 0.89000 0.08400
H 	H 	0.65830 0.15550 0.90260 0.13800
H 	H 	0.53840 0.09920 0.95620 -0.02300
H 	H 	0.69360 0.24160 0.79620 0.10500
H 	H 	0.69870 0.16750 0.74700 -0.05200
H 	H 	0.87260 0.10540 0.78580 -0.01000
H 	H 	0.86870 0.17830 0.83600 0.10400
H 	H 	0.35340 0.04040 0.93980 -0.02200
H 	H 	0.28420 0.03500 0.88780 0.11200
H 	H 	0.21650 0.21430 0.91620 0.11400
H 	H 	0.28550 0.21670 0.96840 -0.08700
H 	H 	0.30050 0.24890 0.80000 0.10500
H 	H 	0.34530 0.37850 0.74880 -0.01600
H 	H 	0.14340 0.40360 0.79560 -0.04000
H 	H 	0.08340 0.27280 0.84300 0.11500
H 	H 	0.20570 0.63230 0.75760 -0.06000
H 	H 	0.19920 0.69760 0.81120 0.17400
H 	H 	0.34070 0.59830 0.86060 0.13600
H 	H 	0.35220 0.54120 0.80580 -0.07200
H 	H 	0.13720 0.83260 0.89460 0.13600
H 	H 	0.01410 0.78890 0.94840 -0.04500
H 	H 	0.01460 0.57780 0.98340 -0.05000
H 	H 	0.13410 0.60390 0.93500 0.13700
H 	H 	0.76670 0.24190 0.10100 0.02500
H 	H 	0.81000 0.36820 0.05520 0.07200
H 	H 	0.89680 0.44860 0.15060 0.06800
H 	H 	0.85910 0.31430 0.19360 0.01900
H 	H 	0.85320 0.97480 0.10400 0.06200
H 	H 	0.89350 0.91690 0.05020 0.05900
H 	H 	0.80280 0.69940 0.14140 0.05000
H 	H 	0.77130 0.76150 0.19940 0.06900
H 	H 	0.61590 0.71290 0.88440 0.11200
H 	H 	0.70750 0.63990 0.85040 0.07800
H 	H 	0.74520 0.35560 0.84120 0.11000
H 	H 	0.81980 0.26900 0.86760 0.12600
H 	H 	0.21150 0.09270 0.84460 0.13100
H 	H 	0.10540 0.15180 0.87000 0.12100
H 	H 	0.29260 0.68180 0.89200 0.12000
H 	H 	0.24860 0.79800 0.86480 0.15500
C 	C 	0.85125 0.56517 0.44418 0.10700
C 	C 	0.85711 0.52311 0.41138 -0.21400
C 	C 	0.91971 0.49531 0.40178 0.18300
C 	C 	0.97975 0.51279 0.42426 -0.20200
C 	C 	0.97177 0.55515 0.45468 0.13900
C 	C 	0.14817 0.54539 0.27104 0.13200
C 	C 	0.07474 0.51980 0.30246 -0.24000
C 	C 	0.04889 0.44623 0.33208 0.18900
C 	C 	0.09701 0.39799 0.32900 -0.21100
C 	C 	0.17218 0.42788 0.29254 0.10500
C 	C 	0.32538 0.69876 0.18300 0.33400
C 	C 	0.33646 0.77186 0.14742 -0.07400
C 	C 	0.34110 0.84328 0.15742 -0.02600
C 	C 	0.35543 0.91611 0.12446 -0.01000
C 	C 	0.36950 0.91628 0.07884 -0.08800
C 	C 	0.36733 0.84467 0.06882 -0.02000
C 	C 	0.34930 0.77458 0.10334 -0.01800
C 	C 	0.38766 0.98798 0.04266 0.34500
C 	C 	0.52556 0.28872 0.43432 0.13600
C 	C 	0.56482 0.36114 0.40264 -0.25100
C 	C 	0.51986 0.40760 0.38948 0.20100
C 	C 	0.43744 0.37856 0.41048 -0.24200
C 	C 	0.40433 0.30683 0.44244 0.13000
C 	C 	0.47323 0.53285 0.32196 0.19300
C 	C 	0.46530 0.48108 0.29436 -0.21800
C 	C 	0.41977 0.48439 0.26484 0.11300
C 	C 	0.38311 0.58627 0.28742 0.09700
C 	C 	0.42768 0.58440 0.31752 -0.20400
C 	C 	0.32635 0.07603 0.43482 0.13000
C 	C 	0.32356 0.03526 0.40358 -0.26900
C 	C 	0.37675 0.99439 0.39426 0.24100
C 	C 	0.42895 0.99487 0.42018 -0.25200
C 	C 	0.42998 0.03644 0.45158 0.13200
C 	C 	0.49685 0.93487 0.32748 0.22700
C 	C 	0.52887 0.01643 0.29870 -0.22500
C 	C 	0.60708 0.04322 0.26850 0.08600
C 	C 	0.62048 0.92460 0.29512 0.17000
C 	C 	0.54191 0.88709 0.32560 -0.27200
C 	C 	0.87521 0.98465 0.27854 0.24500
C 	C 	0.91456 0.98042 0.31082 -0.35900
C 	C 	0.90714 0.01930 0.34136 0.32500
C 	C 	0.85706 0.06362 0.33872 -0.36300
C 	C 	0.82198 0.06874 0.30728 0.20800
C 	C 	0.97194 0.90018 0.40968 0.27200
C 	C 	0.02946 0.86368 0.41286 -0.30100
C 	C 	0.00147 0.78961 0.44552 0.16400
C 	C 	0.88078 0.79088 0.46534 0.20200
C 	C 	0.89433 0.86207 0.43660 -0.30800
C 	C 	0.43271 0.54091 0.67978 0.35800
C 	C 	0.51736 0.56038 0.65246 -0.13400
C 	C 	0.53424 0.54464 0.61072 0.03600
C 	C 	0.60954 0.56824 0.58402 -0.07800
C 	C 	0.67395 0.60407 0.59766 -0.00700
C 	C 	0.65691 0.62063 0.63986 -0.08500
C 	C 	0.57550 0.59718 0.66592 0.04200
C 	C 	0.76122 0.62720 0.56778 0.28000
C 	C 	0.16124 0.53492 0.69444 0.30500
C 	C 	0.12432 0.55980 0.65666 -0.06500
C 	C 	0.16989 0.59507 0.61204 -0.01100
C 	C 	0.13511 0.61787 0.58002 -0.04200
C 	C 	0.05270 0.60412 0.59038 -0.04300
C 	C 	0.00506 0.56538 0.63436 -0.07100
C 	C 	0.04199 0.54457 0.66904 -0.00900
C 	C 	0.00877 0.62627 0.55536 0.32000
C 	C 	0.81517 0.60125 0.94418 0.10900
C 	C 	0.77311 0.60711 0.91138 -0.21700
C 	C 	0.74531 0.66971 0.90178 0.18900
C 	C 	0.76279 0.72975 0.92426 -0.22400
C 	C 	0.80515 0.72177 0.95468 0.12300
C 	C 	0.79539 0.89817 0.77104 0.13900
C 	C 	0.76980 0.82474 0.80246 -0.25000
C 	C 	0.69623 0.79889 0.83208 0.20800
C 	C 	0.64799 0.84701 0.82900 -0.21800
C 	C 	0.67788 0.92218 0.79254 0.11000
C 	C 	0.94876 0.07538 0.68300 0.34500
C 	C 	0.02186 0.08646 0.64742 -0.08100
C 	C 	0.09328 0.09110 0.65742 -0.02700
C 	C 	0.16611 0.10543 0.62446 -0.01200
C 	C 	0.16628 0.11950 0.57884 -0.09300
C 	C 	0.09467 0.11733 0.56882 -0.00800
C 	C 	0.02458 0.09930 0.60334 -0.04900
C 	C 	0.23798 0.13766 0.54266 0.33100
C 	C 	0.53872 0.27556 0.93432 0.13700
C 	C 	0.61114 0.31482 0.90264 -0.25100
C 	C 	0.65760 0.26986 0.88948 0.20200
C 	C 	0.62856 0.18744 0.91048 -0.24300
C 	C 	0.55683 0.15433 0.94244 0.13200
C 	C 	0.78285 0.22323 0.82196 0.19400
C 	C 	0.73108 0.21530 0.79436 -0.21900
C 	C 	0.73439 0.16977 0.76484 0.11300
C 	C 	0.83627 0.13311 0.78742 0.09700
C 	C 	0.83440 0.17768 0.81752 -0.20500
C 	C 	0.32603 0.07635 0.93482 0.12200
C 	C 	0.28526 0.07356 0.90358 -0.25000
C 	C 	0.24439 0.12675 0.89426 0.22700
C 	C 	0.24487 0.17895 0.92018 -0.27000
C 	C 	0.28644 0.17998 0.95158 0.15000
C 	C 	0.18487 0.24685 0.82748 0.20800
C 	C 	0.26643 0.27887 0.79870 -0.20800
C 	C 	0.29322 0.35708 0.76850 0.09200
C 	C 	0.17460 0.37048 0.79512 0.16200
C 	C 	0.13709 0.29191 0.82560 -0.26400
C 	C 	0.23465 0.62521 0.77854 0.24000
C 	C 	0.23042 0.66456 0.81082 -0.38600
C 	C 	0.26930 0.65714 0.84136 0.34900
C 	C 	0.31362 0.60706 0.83872 -0.37800
C 	C 	0.31874 0.57198 0.80728 0.21900
C 	C 	0.15018 0.72194 0.90968 0.24900
C 	C 	0.11368 0.77946 0.91286 -0.28400
C 	C 	0.03961 0.75147 0.94552 0.17500
C 	C 	0.04088 0.63078 0.96534 0.19300
C 	C 	0.11207 0.64433 0.93660 -0.30100
C 	C 	0.79091 0.18271 0.17978 0.36000
C 	C 	0.81038 0.26736 0.15246 -0.13500
C 	C 	0.79464 0.28424 0.11072 0.03700
C 	C 	0.81824 0.35954 0.08402 -0.07900
C 	C 	0.85407 0.42395 0.09766 -0.00600
C 	C 	0.87063 0.40691 0.13986 -0.08500
C 	C 	0.84718 0.32550 0.16592 0.04300
C 	C 	0.87720 0.51122 0.06778 0.28000
C 	C 	0.78492 0.91124 0.19444 0.29700
C 	C 	0.80980 0.87432 0.15666 -0.03800
C 	C 	0.84507 0.91989 0.11204 -0.03800
C 	C 	0.86787 0.88511 0.08002 -0.01000
C 	C 	0.85412 0.80270 0.09038 -0.07400
C 	C 	0.81538 0.75506 0.13436 -0.01000
C 	C 	0.79457 0.79199 0.16904 -0.04300
C 	C 	0.87627 0.75877 0.05536 0.35300
N 	N 	0.19596 0.50078 0.26574 -0.30700
N 	N 	0.97535 0.41259 0.36546 -0.18400
N 	N 	0.92033 0.45607 0.36820 -0.17900
N 	N 	0.90758 0.58030 0.46682 -0.27700
N 	N 	0.44718 0.25980 0.45568 -0.30800
N 	N 	0.55678 0.48212 0.35770 -0.18400
N 	N 	0.51659 0.53535 0.35206 -0.18800
N 	N 	0.37682 0.53564 0.25874 -0.30300
N 	N 	0.38179 0.07837 0.45992 -0.31400
N 	N 	0.37367 0.95603 0.36164 -0.20300
N 	N 	0.42192 0.90576 0.35532 -0.19800
N 	N 	0.65167 0.99343 0.26784 -0.29200
N 	N 	0.82805 0.02633 0.27498 -0.33000
N 	N 	0.94258 0.01670 0.37272 -0.23200
N 	N 	0.99783 0.97579 0.37958 -0.19200
N 	N 	0.93000 0.75230 0.47204 -0.31400
N 	N 	0.75078 0.94596 0.76574 -0.30500
N 	N 	0.66259 0.72535 0.86546 -0.19400
N 	N 	0.70607 0.67033 0.86820 -0.18200
N 	N 	0.83030 0.65758 0.96682 -0.27400
N 	N 	0.50980 0.19718 0.95568 -0.30900
N 	N 	0.73212 0.30678 0.85770 -0.18400
N 	N 	0.78535 0.26659 0.85206 -0.18800
N 	N 	0.78564 0.12682 0.75874 -0.30400
N 	N 	0.32837 0.13179 0.95992 -0.31500
N 	N 	0.20603 0.12367 0.86164 -0.20200
N 	N 	0.15576 0.17192 0.85532 -0.19600
N 	N 	0.24343 0.40167 0.76784 -0.30000
N 	N 	0.27633 0.57805 0.77498 -0.32500
N 	N 	0.26670 0.69258 0.87272 -0.23300
N 	N 	0.22579 0.74783 0.87958 -0.20500
N 	N 	0.00230 0.68000 0.97204 -0.32700
O 	O 	0.32727 0.70163 0.22178 -0.31600
O 	O 	0.30930 0.63234 0.17210 -0.49200
O 	O 	0.38943 0.05223 0.05434 -0.50700
O 	O 	0.40303 0.98615 0.00240 -0.32100
O 	O 	0.41304 0.56154 0.71222 -0.45600
O 	O 	0.37496 0.48826 0.67078 -0.37600
O 	O 	0.77374 0.59274 0.53820 -0.42600
O 	O 	0.81515 0.68421 0.57454 -0.32400
O 	O 	0.24221 0.56257 0.68160 -0.44700
O 	O 	0.12157 0.49495 0.73218 -0.31700
O 	O 	0.93712 0.59664 0.56224 -0.46400
O 	O 	0.05324 0.68092 0.51924 -0.31900
O 	O 	0.95163 0.07727 0.72178 -0.31800
O 	O 	0.88234 0.05930 0.67210 -0.49600
O 	O 	0.30223 0.13943 0.55434 -0.49700
O 	O 	0.23615 0.15303 0.50240 -0.32400
O 	O 	0.81154 0.16304 0.21222 -0.45600
O 	O 	0.73826 0.12496 0.17078 -0.37700
O 	O 	0.84274 0.52374 0.03820 -0.42500
O 	O 	0.93421 0.56515 0.07454 -0.31900
O 	O 	0.81257 0.99221 0.18160 -0.43400
O 	O 	0.74495 0.87157 0.23218 -0.31000
O 	O 	0.84664 0.68712 0.06224 -0.48200
O 	O 	0.93092 0.80324 0.01924 -0.31700
