data_crystal

_cell_length_a 19.21450
_cell_length_b 26.40880
_cell_length_c 17.71740
_cell_angle_alpha 90.00000
_cell_angle_beta  118.43100
_cell_angle_gamma 90.00000

_symmetry_space_group_name_	'P 1'
_symmetry_space_group_name_H-M	'P 1'

loop_
_symmetry_equiv_pos_as_xyz
  x,y,z

loop_
_atom_site_label
_atom_site_type_symbol
_atom_site_fract_x
_atom_site_fract_y
_atom_site_fract_z
_atom_site_charge
Cd	Cd	0.89816 0.63320 0.86642 1.24000
K 	K 	0.69525 0.40755 0.28858 0.65900
O 	O 	0.90480 0.59087 0.75920 -0.45000
O 	O 	0.78420 0.67092 0.77590 -0.43600
O 	O 	0.82440 0.40123 0.43050 -0.41000
O 	O 	0.94240 0.43331 0.46790 -0.33800
O 	O 	0.53160 0.83511 0.41420 -0.40900
O 	O 	0.86370 0.71020 0.73590 -0.35100
O 	O 	0.62670 0.33175 0.31810 -0.42900
O 	O 	0.46130 0.80777 0.47400 -0.37300
O 	O 	0.54910 0.29600 0.36120 -0.34900
O 	O 	0.80220 0.54800 0.74810 -0.36800
C 	C 	0.85440 0.55780 0.72720 0.39700
C 	C 	0.79680 0.70190 0.72810 0.33200
C 	C 	0.88050 0.43140 0.47450 0.29200
C 	C 	0.82530 0.26150 0.51470 -0.03500
H 	H 	0.87610 0.26940 0.52470 0.08000
C 	C 	0.68510 0.27460 0.43490 -0.06500
C 	C 	0.58720 0.75030 0.59460 -0.04500
H 	H 	0.53840 0.74740 0.59320 0.07900
C 	C 	0.91990 0.53340 0.63930 0.04900
H 	H 	0.95830 0.55810 0.66650 0.03800
C 	C 	0.59490 0.77980 0.53480 -0.04400
C 	C 	0.65290 0.72470 0.65730 -0.00100
H 	H 	0.64780 0.70540 0.69820 0.04400
C 	C 	0.86130 0.52920 0.66320 -0.12500
C 	C 	0.66830 0.78290 0.53560 -0.03900
H 	H 	0.67340 0.80220 0.49450 0.05500
C 	C 	0.92590 0.50370 0.57800 -0.07300
H 	H 	0.96690 0.50910 0.56510 0.10100
C 	C 	0.73290 0.75720 0.59760 -0.00600
H 	H 	0.78150 0.75950 0.59830 0.04500
C 	C 	0.72610 0.72790 0.65910 -0.08100
C 	C 	0.87050 0.46600 0.53600 -0.01600
C 	C 	0.80820 0.45960 0.55390 -0.06400
H 	H 	0.77000 0.43510 0.52470 0.06800
C 	C 	0.52530 0.80940 0.47000 0.30400
O 	O 	0.45420 0.40890 0.32680 -0.45500
C 	C 	0.61570 0.30220 0.36720 0.32700
C 	C 	0.76080 0.28590 0.44960 -0.00200
H 	H 	0.76840 0.30980 0.41570 0.04000
C 	C 	0.80220 0.48940 0.61460 0.02400
H 	H 	0.75990 0.48430 0.62550 0.03500
C 	C 	0.56060 0.53090 0.55260 -0.01100
H 	H 	0.60280 0.55160 0.58800 0.03300
C 	C 	0.50520 0.46880 0.43940 -0.07600
C 	C 	0.51520 0.43460 0.37440 0.36400
C 	C 	0.56730 0.49990 0.49170 -0.02500
H 	H 	0.61340 0.50040 0.48670 0.05000
O 	O 	0.57610 0.43140 0.37410 -0.38300
Cd	Cd	0.39816 0.13320 0.86642 1.23300
K 	K 	0.19525 0.90755 0.28858 0.65700
O 	O 	0.40480 0.09087 0.75920 -0.47000
O 	O 	0.28420 0.17092 0.77590 -0.44200
O 	O 	0.32440 0.90123 0.43050 -0.41500
O 	O 	0.44240 0.93331 0.46790 -0.36100
O 	O 	0.03160 0.33511 0.41420 -0.41300
O 	O 	0.36370 0.21020 0.73590 -0.36700
O 	O 	0.12670 0.83175 0.31810 -0.43700
O 	O 	0.96130 0.30777 0.47400 -0.31700
O 	O 	0.04910 0.79600 0.36120 -0.37400
O 	O 	0.30220 0.04800 0.74810 -0.37500
C 	C 	0.35440 0.05780 0.72720 0.40000
C 	C 	0.29680 0.20190 0.72810 0.33700
C 	C 	0.38050 0.93140 0.47450 0.29400
C 	C 	0.32530 0.76150 0.51470 -0.03500
H 	H 	0.37610 0.76940 0.52470 0.07300
C 	C 	0.18510 0.77460 0.43490 -0.07100
C 	C 	0.08720 0.25030 0.59460 -0.06100
H 	H 	0.03840 0.24740 0.59320 0.06500
C 	C 	0.41990 0.03340 0.63930 0.04600
H 	H 	0.45830 0.05810 0.66650 0.02200
C 	C 	0.09490 0.27980 0.53480 -0.02900
C 	C 	0.15290 0.22470 0.65730 0.00400
H 	H 	0.14780 0.20540 0.69820 0.03700
C 	C 	0.36130 0.02920 0.66320 -0.13400
C 	C 	0.16830 0.28290 0.53560 -0.05700
H 	H 	0.17340 0.30220 0.49450 0.05800
C 	C 	0.42590 0.00370 0.57800 -0.07500
H 	H 	0.46690 0.00910 0.56510 0.08400
C 	C 	0.23290 0.25720 0.59760 0.00300
H 	H 	0.28150 0.25950 0.59830 0.03800
C 	C 	0.22610 0.22790 0.65910 -0.09200
C 	C 	0.37050 0.96600 0.53600 -0.02500
C 	C 	0.30820 0.95960 0.55390 -0.06400
H 	H 	0.27000 0.93510 0.52470 0.06500
C 	C 	0.02530 0.30940 0.47000 0.23500
O 	O 	0.95420 0.90890 0.32680 -0.40800
C 	C 	0.11570 0.80220 0.36720 0.33100
C 	C 	0.26080 0.78590 0.44960 -0.00400
H 	H 	0.26840 0.80980 0.41570 0.03900
C 	C 	0.30220 0.98940 0.61460 0.02200
H 	H 	0.25990 0.98430 0.62550 0.03300
C 	C 	0.06060 0.03090 0.55260 -0.20800
H 	H 	0.10280 0.05160 0.58800 0.09200
C 	C 	0.00520 0.96880 0.43940 -0.23500
C 	C 	0.01520 0.93460 0.37440 0.34700
C 	C 	0.06730 0.99990 0.49170 0.11400
H 	H 	0.11340 0.00040 0.48670 -0.00100
O 	O 	0.07610 0.93140 0.37410 -0.38800
Cd	Cd	0.10184 0.63320 0.63358 1.22700
K 	K 	0.30475 0.40755 0.21142 0.65800
O 	O 	0.09520 0.59087 0.74080 -0.48500
O 	O 	0.21580 0.67092 0.72410 -0.44200
O 	O 	0.17560 0.40123 0.06950 -0.41800
O 	O 	0.05760 0.43331 0.03210 -0.38200
O 	O 	0.46840 0.83511 0.08580 -0.41000
O 	O 	0.13630 0.71020 0.76410 -0.37800
O 	O 	0.37330 0.33175 0.18190 -0.43000
O 	O 	0.53870 0.80777 0.02600 -0.37200
O 	O 	0.45090 0.29600 0.13880 -0.35000
O 	O 	0.19780 0.54800 0.75190 -0.37600
C 	C 	0.14560 0.55780 0.77280 0.40000
C 	C 	0.20320 0.70190 0.77190 0.33900
C 	C 	0.11950 0.43140 0.02550 0.30400
C 	C 	0.17470 0.26150 0.98530 -0.04500
H 	H 	0.12390 0.26940 0.97530 0.06900
C 	C 	0.31490 0.27460 0.06510 -0.07100
C 	C 	0.41280 0.75030 0.90540 -0.05000
H 	H 	0.46160 0.74740 0.90680 0.08000
C 	C 	0.08010 0.53340 0.86070 0.03900
H 	H 	0.04170 0.55810 0.83350 0.00800
C 	C 	0.40510 0.77980 0.96520 -0.04200
C 	C 	0.34710 0.72470 0.84270 0.00500
H 	H 	0.35220 0.70540 0.80180 0.04100
C 	C 	0.13870 0.52920 0.83680 -0.13800
C 	C 	0.33170 0.78290 0.96440 -0.05700
H 	H 	0.32660 0.80220 0.00550 0.06200
C 	C 	0.07410 0.50370 0.92200 -0.07200
H 	H 	0.03310 0.50910 0.93490 0.06500
C 	C 	0.26710 0.75720 0.90240 0.00500
H 	H 	0.21850 0.75950 0.90170 0.03400
C 	C 	0.27390 0.72790 0.84090 -0.09200
C 	C 	0.12950 0.46600 0.96400 -0.04000
C 	C 	0.19180 0.45960 0.94610 -0.05900
H 	H 	0.23000 0.43510 0.97530 0.06100
C 	C 	0.47470 0.80940 0.03000 0.30600
O 	O 	0.54580 0.40890 0.17320 -0.45600
C 	C 	0.38430 0.30220 0.13280 0.32900
C 	C 	0.23920 0.28590 0.05040 0.00600
H 	H 	0.23160 0.30980 0.08430 0.03700
C 	C 	0.19780 0.48940 0.88540 0.01700
H 	H 	0.24010 0.48430 0.87450 0.03400
C 	C 	0.43940 0.53090 0.94740 -0.03100
H 	H 	0.39720 0.55160 0.91200 0.03900
C 	C 	0.49480 0.46880 0.06060 -0.08900
C 	C 	0.48480 0.43460 0.12560 0.36800
C 	C 	0.43270 0.49990 0.00830 -0.00700
H 	H 	0.38660 0.50040 0.01330 0.04500
O 	O 	0.42390 0.43140 0.12590 -0.38400
Cd	Cd	0.60184 0.13320 0.63358 1.23300
K 	K 	0.80475 0.90755 0.21142 0.66000
O 	O 	0.59520 0.09087 0.74080 -0.46900
O 	O 	0.71580 0.17092 0.72410 -0.43900
O 	O 	0.67560 0.90123 0.06950 -0.41400
O 	O 	0.55760 0.93331 0.03210 -0.36100
O 	O 	0.96840 0.33511 0.08580 -0.40200
O 	O 	0.63630 0.21020 0.76410 -0.36500
O 	O 	0.87330 0.83175 0.18190 -0.41800
O 	O 	0.03870 0.30777 0.02600 -0.42600
O 	O 	0.95090 0.79600 0.13880 -0.32100
O 	O 	0.69780 0.04800 0.75190 -0.36900
C 	C 	0.64560 0.05780 0.77280 0.39700
C 	C 	0.70320 0.20190 0.77190 0.33500
C 	C 	0.61950 0.93140 0.02550 0.30100
C 	C 	0.67470 0.76150 0.98530 -0.04400
H 	H 	0.62390 0.76940 0.97530 0.07500
C 	C 	0.81490 0.77460 0.06510 -0.06400
C 	C 	0.91280 0.25030 0.90540 -0.03400
H 	H 	0.96160 0.24740 0.90680 0.09500
C 	C 	0.58010 0.03340 0.86070 0.04100
H 	H 	0.54170 0.05810 0.83350 0.02400
C 	C 	0.90510 0.27980 0.96520 -0.05600
C 	C 	0.84710 0.22470 0.84270 0.00100
H 	H 	0.85220 0.20540 0.80180 0.04800
C 	C 	0.63870 0.02920 0.83680 -0.12800
C 	C 	0.83170 0.28290 0.96440 -0.03900
H 	H 	0.82660 0.30220 0.00550 0.05800
C 	C 	0.57410 0.00370 0.92200 -0.06800
H 	H 	0.53310 0.00910 0.93490 0.08100
C 	C 	0.76710 0.25720 0.90240 -0.00400
H 	H 	0.71850 0.25950 0.90170 0.04100
C 	C 	0.77390 0.22790 0.84090 -0.08200
C 	C 	0.62950 0.96600 0.96400 -0.03400
C 	C 	0.69180 0.95960 0.94610 -0.05700
H 	H 	0.73000 0.93510 0.97530 0.06300
C 	C 	0.97470 0.30940 0.03000 0.37200
O 	O 	0.04580 0.90890 0.17320 -0.49600
C 	C 	0.88430 0.80220 0.13280 0.32500
C 	C 	0.73920 0.78590 0.05040 0.00500
H 	H 	0.73160 0.80980 0.08430 0.03800
C 	C 	0.69780 0.98940 0.88540 0.01700
H 	H 	0.74010 0.98430 0.87450 0.03700
C 	C 	0.93940 0.03090 0.94740 0.17200
H 	H 	0.89720 0.05160 0.91200 -0.02200
C 	C 	0.99480 0.96880 0.06060 0.07300
C 	C 	0.98480 0.93460 0.12560 0.38300
C 	C 	0.93270 0.99990 0.00830 -0.15300
H 	H 	0.88660 0.00040 0.01330 0.09800
O 	O 	0.92390 0.93140 0.12590 -0.37700
Cd	Cd	0.10184 0.36680 0.13358 1.22800
K 	K 	0.30475 0.59245 0.71142 0.65800
O 	O 	0.09520 0.40913 0.24080 -0.48400
O 	O 	0.21580 0.32908 0.22410 -0.44100
O 	O 	0.17560 0.59877 0.56950 -0.41800
O 	O 	0.05760 0.56669 0.53210 -0.38300
O 	O 	0.46840 0.16489 0.58580 -0.41000
O 	O 	0.13630 0.28980 0.26410 -0.37700
O 	O 	0.37330 0.66825 0.68190 -0.42900
O 	O 	0.53870 0.19223 0.52600 -0.37300
O 	O 	0.45090 0.70400 0.63880 -0.34900
O 	O 	0.19780 0.45200 0.25190 -0.37600
C 	C 	0.14560 0.44220 0.27280 0.40100
C 	C 	0.20320 0.29810 0.27190 0.33800
C 	C 	0.11950 0.56860 0.52550 0.29700
C 	C 	0.17470 0.73850 0.48530 -0.02500
H 	H 	0.12390 0.73060 0.47530 0.06400
C 	C 	0.31490 0.72540 0.56510 -0.05900
C 	C 	0.41280 0.24970 0.40540 -0.04800
H 	H 	0.46160 0.25260 0.40680 0.08100
C 	C 	0.08010 0.46660 0.36070 0.04300
H 	H 	0.04170 0.44190 0.33350 0.00700
C 	C 	0.40510 0.22020 0.46520 -0.04200
C 	C 	0.34710 0.27530 0.34270 0.00300
H 	H 	0.35220 0.29460 0.30180 0.04200
C 	C 	0.13870 0.47080 0.33680 -0.14000
C 	C 	0.33170 0.21710 0.46440 -0.04500
H 	H 	0.32660 0.19780 0.50550 0.05400
C 	C 	0.07410 0.49630 0.42200 -0.07700
H 	H 	0.03310 0.49090 0.43490 0.06800
C 	C 	0.26710 0.24280 0.40240 -0.00200
H 	H 	0.21850 0.24050 0.40170 0.03700
C 	C 	0.27390 0.27210 0.34090 -0.08900
C 	C 	0.12950 0.53400 0.46400 -0.03200
C 	C 	0.19180 0.54040 0.44610 -0.06400
H 	H 	0.23000 0.56490 0.47530 0.06500
C 	C 	0.47470 0.19060 0.53000 0.30300
O 	O 	0.54580 0.59110 0.67320 -0.45500
C 	C 	0.38430 0.69780 0.63280 0.32400
C 	C 	0.23920 0.71410 0.55040 -0.01400
H 	H 	0.23160 0.69020 0.58430 0.04300
C 	C 	0.19780 0.51060 0.38540 0.02100
H 	H 	0.24010 0.51570 0.37450 0.03400
C 	C 	0.43940 0.46910 0.44740 -0.01200
H 	H 	0.39720 0.44840 0.41200 0.03300
C 	C 	0.49480 0.53120 0.56060 -0.07700
C 	C 	0.48480 0.56540 0.62560 0.36400
C 	C 	0.43270 0.50010 0.50830 -0.02500
H 	H 	0.38660 0.49960 0.51330 0.04900
O 	O 	0.42390 0.56860 0.62590 -0.38400
Cd	Cd	0.60184 0.86680 0.13358 1.23300
K 	K 	0.80475 0.09245 0.71142 0.66000
O 	O 	0.59520 0.90913 0.24080 -0.46900
O 	O 	0.71580 0.82908 0.22410 -0.43800
O 	O 	0.67560 0.09877 0.56950 -0.41400
O 	O 	0.55760 0.06669 0.53210 -0.36100
O 	O 	0.96840 0.66489 0.58580 -0.40200
O 	O 	0.63630 0.78980 0.26410 -0.36500
O 	O 	0.87330 0.16825 0.68190 -0.41700
O 	O 	0.03870 0.69223 0.52600 -0.42900
O 	O 	0.95090 0.20400 0.63880 -0.31900
O 	O 	0.69780 0.95200 0.25190 -0.36900
C 	C 	0.64560 0.94220 0.27280 0.39900
C 	C 	0.70320 0.79810 0.27190 0.33400
C 	C 	0.61950 0.06860 0.52550 0.29400
C 	C 	0.67470 0.23850 0.48530 -0.02500
H 	H 	0.62390 0.23060 0.47530 0.07000
C 	C 	0.81490 0.22540 0.56510 -0.05200
C 	C 	0.91280 0.74970 0.40540 -0.03200
H 	H 	0.96160 0.75260 0.40680 0.09600
C 	C 	0.58010 0.96660 0.36070 0.04700
H 	H 	0.54170 0.94190 0.33350 0.02200
C 	C 	0.90510 0.72020 0.46520 -0.05600
C 	C 	0.84710 0.77530 0.34270 -0.00100
H 	H 	0.85220 0.79460 0.30180 0.04900
C 	C 	0.63870 0.97080 0.33680 -0.13300
C 	C 	0.83170 0.71710 0.46440 -0.02800
H 	H 	0.82660 0.69780 0.50550 0.05200
C 	C 	0.57410 0.99630 0.42200 -0.07600
H 	H 	0.53310 0.99090 0.43490 0.08400
C 	C 	0.76710 0.74280 0.40240 -0.01000
H 	H 	0.71850 0.74050 0.40170 0.04400
C 	C 	0.77390 0.77210 0.34090 -0.07900
C 	C 	0.62950 0.03400 0.46400 -0.02200
C 	C 	0.69180 0.04040 0.44610 -0.06400
H 	H 	0.73000 0.06490 0.47530 0.06700
C 	C 	0.97470 0.69060 0.53000 0.37200
O 	O 	0.04580 0.09110 0.67320 -0.49700
C 	C 	0.88430 0.19780 0.63280 0.32000
C 	C 	0.73920 0.21410 0.55040 -0.01400
H 	H 	0.73160 0.19020 0.58430 0.04400
C 	C 	0.69780 0.01060 0.38540 0.02300
H 	H 	0.74010 0.01570 0.37450 0.03600
C 	C 	0.93940 0.96910 0.44740 0.18500
H 	H 	0.89720 0.94840 0.41200 -0.02600
C 	C 	0.99480 0.03120 0.56060 0.08300
C 	C 	0.98480 0.06540 0.62560 0.38100
C 	C 	0.93270 0.00010 0.50830 -0.16400
H 	H 	0.88660 0.99960 0.51330 0.10000
O 	O 	0.92390 0.06860 0.62590 -0.37700
Cd	Cd	0.89816 0.36680 0.36642 1.23900
K 	K 	0.69525 0.59245 0.78858 0.65800
O 	O 	0.90480 0.40913 0.25920 -0.45100
O 	O 	0.78420 0.32908 0.27590 -0.43700
O 	O 	0.82440 0.59877 0.93050 -0.41200
O 	O 	0.94240 0.56669 0.96790 -0.33900
O 	O 	0.53160 0.16489 0.91420 -0.40900
O 	O 	0.86370 0.28980 0.23590 -0.35000
O 	O 	0.62670 0.66825 0.81810 -0.42900
O 	O 	0.46130 0.19223 0.97400 -0.37500
O 	O 	0.54910 0.70400 0.86120 -0.34900
O 	O 	0.80220 0.45200 0.24810 -0.36800
C 	C 	0.85440 0.44220 0.22720 0.39800
C 	C 	0.79680 0.29810 0.22810 0.33200
C 	C 	0.88050 0.56860 0.97450 0.28600
C 	C 	0.82530 0.73850 0.01470 -0.01700
H 	H 	0.87610 0.73060 0.02470 0.07500
C 	C 	0.68510 0.72540 0.93490 -0.05300
C 	C 	0.58720 0.24970 0.09460 -0.04300
H 	H 	0.53840 0.25260 0.09320 0.08000
C 	C 	0.91990 0.46660 0.13930 0.05200
H 	H 	0.95830 0.44190 0.16650 0.03700
C 	C 	0.59490 0.22020 0.03480 -0.04300
C 	C 	0.65290 0.27530 0.15730 -0.00200
H 	H 	0.64780 0.29460 0.19820 0.04500
C 	C 	0.86130 0.47080 0.16320 -0.12700
C 	C 	0.66830 0.21710 0.03560 -0.02900
H 	H 	0.67340 0.19780 0.99450 0.04800
C 	C 	0.92590 0.49630 0.07800 -0.07700
H 	H 	0.96690 0.49090 0.06510 0.10300
C 	C 	0.73290 0.24280 0.09760 -0.01100
H 	H 	0.78150 0.24050 0.09830 0.04800
C 	C 	0.72610 0.27210 0.15910 -0.07800
C 	C 	0.87050 0.53400 0.03600 -0.00900
C 	C 	0.80820 0.54040 0.05390 -0.06700
H 	H 	0.77000 0.56490 0.02470 0.07000
C 	C 	0.52530 0.19060 0.97000 0.30100
O 	O 	0.45420 0.59110 0.82680 -0.45400
C 	C 	0.61570 0.69780 0.86720 0.32300
C 	C 	0.76080 0.71410 0.94960 -0.02100
H 	H 	0.76840 0.69020 0.91570 0.04600
C 	C 	0.80220 0.51060 0.11460 0.02700
H 	H 	0.75990 0.51570 0.12550 0.03500
C 	C 	0.56060 0.46910 0.05260 0.00700
H 	H 	0.60280 0.44840 0.08800 0.02800
C 	C 	0.50520 0.53120 0.93940 -0.06400
C 	C 	0.51520 0.56540 0.87440 0.35900
C 	C 	0.56730 0.50010 0.99170 -0.04400
H 	H 	0.61340 0.49960 0.98670 0.05400
O 	O 	0.57610 0.56860 0.87410 -0.38300
Cd	Cd	0.39816 0.86680 0.36642 1.23300
K 	K 	0.19525 0.09245 0.78858 0.65600
O 	O 	0.40480 0.90913 0.25920 -0.47000
O 	O 	0.28420 0.82908 0.27590 -0.44100
O 	O 	0.32440 0.09877 0.93050 -0.41500
O 	O 	0.44240 0.06669 0.96790 -0.36100
O 	O 	0.03160 0.66489 0.91420 -0.41400
O 	O 	0.36370 0.78980 0.23590 -0.36600
O 	O 	0.12670 0.16825 0.81810 -0.43600
O 	O 	0.96130 0.69223 0.97400 -0.31800
O 	O 	0.04910 0.20400 0.86120 -0.37400
O 	O 	0.30220 0.95200 0.24810 -0.37500
C 	C 	0.35440 0.94220 0.22720 0.40100
C 	C 	0.29680 0.79810 0.22810 0.33600
C 	C 	0.38050 0.06860 0.97450 0.28800
C 	C 	0.32530 0.23850 0.01470 -0.01500
H 	H 	0.37610 0.23060 0.02470 0.06800
C 	C 	0.18510 0.22540 0.93490 -0.05800
C 	C 	0.08720 0.74970 0.09460 -0.06000
H 	H 	0.03840 0.75260 0.09320 0.06600
C 	C 	0.41990 0.96660 0.13930 0.05100
H 	H 	0.45830 0.94190 0.16650 0.02000
C 	C 	0.09490 0.72020 0.03480 -0.02800
C 	C 	0.15290 0.77530 0.15730 0.00300
H 	H 	0.14780 0.79460 0.19820 0.03800
C 	C 	0.36130 0.97080 0.16320 -0.13800
C 	C 	0.16830 0.71710 0.03560 -0.04400
H 	H 	0.17340 0.69780 0.99450 0.05100
C 	C 	0.42590 0.99630 0.07800 -0.08200
H 	H 	0.46690 0.99090 0.06510 0.08700
C 	C 	0.23290 0.74280 0.09760 -0.00300
H 	H 	0.28150 0.74050 0.09830 0.04100
C 	C 	0.22610 0.77210 0.15910 -0.08800
C 	C 	0.37050 0.03400 0.03600 -0.01500
C 	C 	0.30820 0.04040 0.05390 -0.07000
H 	H 	0.27000 0.06490 0.02470 0.06900
C 	C 	0.02530 0.69060 0.97000 0.23200
O 	O 	0.95420 0.09110 0.82680 -0.40800
C 	C 	0.11570 0.19780 0.86720 0.32600
C 	C 	0.26080 0.21410 0.94960 -0.02300
H 	H 	0.26840 0.19020 0.91570 0.04500
C 	C 	0.30220 0.01060 0.11460 0.02800
H 	H 	0.25990 0.01570 0.12550 0.03200
C 	C 	0.06060 0.96910 0.05260 -0.19300
H 	H 	0.10280 0.94840 0.08800 0.08800
C 	C 	0.00520 0.03120 0.93940 -0.22700
C 	C 	0.01520 0.06540 0.87440 0.34400
C 	C 	0.06730 0.00010 0.99170 0.10200
H 	H 	0.11340 0.99960 0.98670 0.00100
O 	O 	0.07610 0.06860 0.87410 -0.38800
Cd	Cd	0.50000 0.36350 0.25000 1.23800
K 	K 	0.50000 0.83051 0.25000 0.65400
Cd	Cd	0.00000 0.86350 0.25000 1.22100
K 	K 	0.00000 0.33051 0.25000 0.64200
Cd	Cd	0.50000 0.63650 0.75000 1.23800
K 	K 	0.50000 0.16949 0.75000 0.65400
Cd	Cd	0.00000 0.13650 0.75000 1.22100
K 	K 	0.00000 0.66949 0.75000 0.64200
