data_crystal

_cell_length_a 18.98950
_cell_length_b 28.48100
_cell_length_c 16.95870
_cell_angle_alpha 90.00000
_cell_angle_beta  119.89600
_cell_angle_gamma 90.00000

_symmetry_space_group_name_	'P 1'
_symmetry_space_group_name_H-M	'P 1'

loop_
_symmetry_equiv_pos_as_xyz
  x,y,z

loop_
_atom_site_label
_atom_site_type_symbol
_atom_site_fract_x
_atom_site_fract_y
_atom_site_fract_z
_atom_site_charge
Cd	Cd	0.40033 0.63052 0.37225 1.23200
Na	Na	0.20235 0.60864 0.28182 0.58600
O 	O 	0.43840 0.43126 0.97400 -0.37700
O 	O 	0.40590 0.59183 0.26230 -0.46400
O 	O 	0.28830 0.56260 0.23200 -0.36900
O 	O 	0.28790 0.67119 0.28040 -0.46500
O 	O 	0.03400 0.83807 0.92300 -0.41700
O 	O 	0.96570 0.81429 0.98890 -0.31600
O 	O 	0.31560 0.40475 0.92960 -0.40800
O 	O 	0.36840 0.70583 0.23970 -0.37500
O 	O 	0.86940 0.66346 0.17640 -0.41700
O 	O 	0.94720 0.57540 0.13600 -0.33900
O 	O 	0.95000 0.69570 0.13450 -0.32200
C 	C 	0.34690 0.56400 0.22100 0.36400
C 	C 	0.82720 0.75750 0.01620 -0.02400
H 	H 	0.88070 0.76280 0.02710 0.07600
C 	C 	0.30150 0.69970 0.23330 0.36500
C 	C 	0.35230 0.53010 0.15460 -0.09000
C 	C 	0.81390 0.72240 0.06250 -0.05700
C 	C 	0.23520 0.75650 0.10230 0.00600
H 	H 	0.28380 0.75660 0.09910 0.03800
C 	C 	0.37310 0.43250 0.97500 0.31400
C 	C 	0.15800 0.72810 0.16800 0.00800
H 	H 	0.15290 0.70840 0.21000 0.03600
C 	C 	0.02780 0.81350 0.98130 0.23700
C 	C 	0.09880 0.78350 0.04500 -0.03100
O 	O 	0.07340 0.58980 0.17720 -0.42100
C 	C 	0.16990 0.78350 0.04250 -0.04900
H 	H 	0.17430 0.80240 0.99900 0.05400
C 	C 	0.29460 0.49620 0.11150 0.00200
H 	H 	0.25000 0.49400 0.12200 0.04100
C 	C 	0.73500 0.71500 0.04560 -0.00700
H 	H 	0.72450 0.69090 0.07690 0.04100
C 	C 	0.42040 0.50230 0.07620 -0.03900
H 	H 	0.46390 0.50500 0.06390 0.06900
C 	C 	0.41460 0.53400 0.13630 0.00600
H 	H 	0.45390 0.55810 0.16420 0.03500
C 	C 	0.23010 0.72920 0.16670 -0.09600
C 	C 	0.36350 0.46750 0.03530 -0.04600
C 	C 	0.88190 0.69190 0.12910 0.32600
C 	C 	0.09330 0.75560 0.10840 -0.05500
H 	H 	0.04450 0.75530 0.11090 0.06000
C 	C 	0.30060 0.46510 0.05300 -0.03800
H 	H 	0.26040 0.44140 0.02440 0.05800
C 	C 	0.00520 0.53280 0.06280 -0.20500
C 	C 	0.93390 0.50710 0.01130 0.15200
H 	H 	0.88850 0.51200 0.01940 0.00400
C 	C 	0.07040 0.52480 0.05030 0.10500
H 	H 	0.11930 0.54200 0.08540 0.00600
C 	C 	0.00960 0.56860 0.13040 0.32500
Cd	Cd	0.90033 0.13052 0.37225 1.23900
Na	Na	0.70235 0.10864 0.28182 0.58800
O 	O 	0.93840 0.93126 0.97400 -0.35600
O 	O 	0.90590 0.09183 0.26230 -0.44400
O 	O 	0.78830 0.06260 0.23200 -0.36400
O 	O 	0.78790 0.17119 0.28040 -0.46000
O 	O 	0.53400 0.33807 0.92300 -0.41100
O 	O 	0.46570 0.31429 0.98890 -0.37200
O 	O 	0.81560 0.90475 0.92960 -0.40300
O 	O 	0.86840 0.20583 0.23970 -0.35600
O 	O 	0.36940 0.16346 0.17640 -0.42800
O 	O 	0.44720 0.07540 0.13600 -0.38600
O 	O 	0.45000 0.19570 0.13450 -0.35000
C 	C 	0.84690 0.06400 0.22100 0.36400
C 	C 	0.32720 0.25750 0.01620 -0.02500
H 	H 	0.38070 0.26280 0.02710 0.06900
C 	C 	0.80150 0.19970 0.23330 0.36000
C 	C 	0.85230 0.03010 0.15460 -0.08300
C 	C 	0.31390 0.22240 0.06250 -0.06400
C 	C 	0.73520 0.25650 0.10230 -0.00400
H 	H 	0.78380 0.25660 0.09910 0.04600
C 	C 	0.87310 0.93250 0.97500 0.31100
C 	C 	0.65800 0.22810 0.16800 0.00100
H 	H 	0.65290 0.20840 0.21000 0.04300
C 	C 	0.52780 0.31350 0.98130 0.30800
C 	C 	0.59880 0.28350 0.04500 -0.04800
O 	O 	0.57340 0.08980 0.17720 -0.41800
C 	C 	0.66990 0.28350 0.04250 -0.03000
H 	H 	0.67430 0.30240 0.99900 0.05100
C 	C 	0.79460 0.99620 0.11150 0.00500
H 	H 	0.75000 0.99400 0.12200 0.04300
C 	C 	0.23500 0.21500 0.04560 -0.00900
H 	H 	0.22450 0.19090 0.07690 0.04100
C 	C 	0.92040 0.00230 0.07620 -0.03600
H 	H 	0.96390 0.00500 0.06390 0.08400
C 	C 	0.91460 0.03400 0.13630 0.01000
H 	H 	0.95390 0.05810 0.16420 0.05100
C 	C 	0.73010 0.22920 0.16670 -0.08400
C 	C 	0.86350 0.96750 0.03530 -0.03700
C 	C 	0.38190 0.19190 0.12910 0.33000
C 	C 	0.59330 0.25560 0.10840 -0.03600
H 	H 	0.54450 0.25530 0.11090 0.07300
C 	C 	0.80060 0.96510 0.05300 -0.03700
H 	H 	0.76040 0.94140 0.02440 0.06200
C 	C 	0.50520 0.03280 0.06280 -0.07500
C 	C 	0.43390 0.00710 0.01130 -0.01200
H 	H 	0.38850 0.01200 0.01940 0.05000
C 	C 	0.57040 0.02480 0.05030 -0.01100
H 	H 	0.61930 0.04200 0.08540 0.04700
C 	C 	0.50960 0.06860 0.13040 0.35100
Cd	Cd	0.59967 0.63052 0.12775 1.23300
Na	Na	0.79765 0.60864 0.21818 0.58800
O 	O 	0.56160 0.43126 0.52600 -0.37700
O 	O 	0.59410 0.59183 0.23770 -0.46300
O 	O 	0.71170 0.56260 0.26800 -0.36600
O 	O 	0.71210 0.67119 0.21960 -0.46200
O 	O 	0.96600 0.83807 0.57700 -0.40300
O 	O 	0.03430 0.81429 0.51110 -0.43000
O 	O 	0.68440 0.40475 0.57040 -0.40500
O 	O 	0.63160 0.70583 0.26030 -0.37200
O 	O 	0.13060 0.66346 0.32360 -0.43600
O 	O 	0.05280 0.57540 0.36400 -0.42900
O 	O 	0.05000 0.69570 0.36550 -0.37600
C 	C 	0.65310 0.56400 0.27900 0.36600
C 	C 	0.17280 0.75750 0.48380 -0.01900
H 	H 	0.11930 0.76280 0.47290 0.06000
C 	C 	0.69850 0.69970 0.26670 0.36200
C 	C 	0.64770 0.53010 0.34540 -0.09000
C 	C 	0.18610 0.72240 0.43750 -0.07400
C 	C 	0.76480 0.75650 0.39770 -0.00800
H 	H 	0.71620 0.75660 0.40090 0.04300
C 	C 	0.62690 0.43250 0.52500 0.31600
C 	C 	0.84200 0.72810 0.33200 -0.00000
H 	H 	0.84710 0.70840 0.29000 0.04800
C 	C 	0.97220 0.81350 0.51870 0.38000
C 	C 	0.90120 0.78350 0.45500 -0.06200
O 	O 	0.92660 0.58980 0.32280 -0.41200
C 	C 	0.83010 0.78350 0.45750 -0.02000
H 	H 	0.82570 0.80240 0.50100 0.04900
C 	C 	0.70540 0.49620 0.38850 0.00500
H 	H 	0.75000 0.49400 0.37800 0.04400
C 	C 	0.26500 0.71500 0.45440 -0.00200
H 	H 	0.27550 0.69090 0.42310 0.03900
C 	C 	0.57960 0.50230 0.42380 -0.03800
H 	H 	0.53610 0.50500 0.43610 0.06800
C 	C 	0.58540 0.53400 0.36370 0.00700
H 	H 	0.54610 0.55810 0.33580 0.03500
C 	C 	0.76990 0.72920 0.33330 -0.08200
C 	C 	0.63650 0.46750 0.46470 -0.04500
C 	C 	0.11810 0.69190 0.37090 0.33500
C 	C 	0.90670 0.75560 0.39160 -0.02300
H 	H 	0.95550 0.75530 0.38910 0.08800
C 	C 	0.69940 0.46510 0.44700 -0.03600
H 	H 	0.73960 0.44140 0.47560 0.06200
C 	C 	0.99480 0.53280 0.43720 0.06000
C 	C 	0.06610 0.50710 0.48870 -0.18300
H 	H 	0.11150 0.51200 0.48060 0.09900
C 	C 	0.92960 0.52480 0.44970 -0.13400
H 	H 	0.88070 0.54200 0.41460 0.09000
C 	C 	0.99040 0.56860 0.36960 0.37700
Cd	Cd	0.09967 0.13052 0.12775 1.22800
Na	Na	0.29765 0.10864 0.21818 0.58800
O 	O 	0.06160 0.93126 0.52600 -0.39700
O 	O 	0.09410 0.09183 0.23770 -0.47900
O 	O 	0.21170 0.06260 0.26800 -0.37000
O 	O 	0.21210 0.17119 0.21960 -0.46600
O 	O 	0.46600 0.33807 0.57700 -0.41100
O 	O 	0.53430 0.31429 0.51110 -0.37200
O 	O 	0.18440 0.90475 0.57040 -0.40900
O 	O 	0.13160 0.20583 0.26030 -0.38600
O 	O 	0.63060 0.16346 0.32360 -0.42800
O 	O 	0.55280 0.07540 0.36400 -0.38600
O 	O 	0.55000 0.19570 0.36550 -0.35000
C 	C 	0.15310 0.06400 0.27900 0.36600
C 	C 	0.67280 0.25750 0.48380 -0.01900
H 	H 	0.61930 0.26280 0.47290 0.06700
C 	C 	0.19850 0.19970 0.26670 0.36600
C 	C 	0.14770 0.03010 0.34540 -0.09600
C 	C 	0.68610 0.22240 0.43750 -0.06700
C 	C 	0.26480 0.25650 0.39770 0.00100
H 	H 	0.21620 0.25660 0.40090 0.03600
C 	C 	0.12690 0.93250 0.52500 0.31800
C 	C 	0.34200 0.22810 0.33200 0.00600
H 	H 	0.34710 0.20840 0.29000 0.04100
C 	C 	0.47220 0.31350 0.51870 0.30700
C 	C 	0.40120 0.28350 0.45500 -0.04600
O 	O 	0.42660 0.08980 0.32280 -0.41800
C 	C 	0.33010 0.28350 0.45750 -0.03800
H 	H 	0.32570 0.30240 0.50100 0.05200
C 	C 	0.20540 0.99620 0.38850 0.00200
H 	H 	0.25000 0.99400 0.37800 0.04100
C 	C 	0.76500 0.21500 0.45440 -0.00000
H 	H 	0.77550 0.19090 0.42310 0.04000
C 	C 	0.07960 0.00230 0.42380 -0.04100
H 	H 	0.03610 0.00500 0.43610 0.05200
C 	C 	0.08540 0.03400 0.36370 0.00200
H 	H 	0.04610 0.05810 0.33580 0.02000
C 	C 	0.26990 0.22920 0.33330 -0.09400
C 	C 	0.13650 0.96750 0.46470 -0.05400
C 	C 	0.61810 0.19190 0.37090 0.33200
C 	C 	0.40670 0.25560 0.39160 -0.04100
H 	H 	0.45550 0.25530 0.38910 0.07400
C 	C 	0.19940 0.96510 0.44700 -0.03700
H 	H 	0.23960 0.94140 0.47560 0.05800
C 	C 	0.49480 0.03280 0.43720 -0.07200
C 	C 	0.56610 0.00710 0.48870 -0.01700
H 	H 	0.61150 0.01200 0.48060 0.05200
C 	C 	0.42960 0.02480 0.44970 -0.01600
H 	H 	0.38070 0.04200 0.41460 0.04800
C 	C 	0.49040 0.06860 0.36960 0.35000
Cd	Cd	0.59967 0.36948 0.62775 1.23300
Na	Na	0.79765 0.39136 0.71818 0.58800
O 	O 	0.56160 0.56874 0.02600 -0.37700
O 	O 	0.59410 0.40817 0.73770 -0.46300
O 	O 	0.71170 0.43740 0.76800 -0.36700
O 	O 	0.71210 0.32881 0.71960 -0.46200
O 	O 	0.96600 0.16193 0.07700 -0.40300
O 	O 	0.03430 0.18571 0.01110 -0.42900
O 	O 	0.68440 0.59525 0.07040 -0.40500
O 	O 	0.63160 0.29417 0.76030 -0.37200
O 	O 	0.13060 0.33654 0.82360 -0.43600
O 	O 	0.05280 0.42460 0.86400 -0.42800
O 	O 	0.05000 0.30430 0.86550 -0.37500
C 	C 	0.65310 0.43600 0.77900 0.36600
C 	C 	0.17280 0.24250 0.98380 -0.02300
H 	H 	0.11930 0.23720 0.97290 0.06100
C 	C 	0.69850 0.30030 0.76670 0.36200
C 	C 	0.64770 0.46990 0.84540 -0.08900
C 	C 	0.18610 0.27760 0.93750 -0.07100
C 	C 	0.76480 0.24350 0.89770 -0.00600
H 	H 	0.71620 0.24340 0.90090 0.04300
C 	C 	0.62690 0.56750 0.02500 0.31700
C 	C 	0.84200 0.27190 0.83200 0.00000
H 	H 	0.84710 0.29160 0.79000 0.04800
C 	C 	0.97220 0.18650 0.01870 0.37900
C 	C 	0.90120 0.21650 0.95500 -0.06300
O 	O 	0.92660 0.41020 0.82280 -0.41200
C 	C 	0.83010 0.21650 0.95750 -0.02300
H 	H 	0.82570 0.19760 0.00100 0.05100
C 	C 	0.70540 0.50380 0.88850 0.00400
H 	H 	0.75000 0.50600 0.87800 0.04400
C 	C 	0.26500 0.28500 0.95440 -0.00600
H 	H 	0.27550 0.30910 0.92310 0.04000
C 	C 	0.57960 0.49770 0.92380 -0.03700
H 	H 	0.53610 0.49500 0.93610 0.06700
C 	C 	0.58540 0.46600 0.86370 0.00600
H 	H 	0.54610 0.44190 0.83580 0.03500
C 	C 	0.76990 0.27080 0.83330 -0.08300
C 	C 	0.63650 0.53250 0.96470 -0.04800
C 	C 	0.11810 0.30810 0.87090 0.33400
C 	C 	0.90670 0.24440 0.89160 -0.02300
H 	H 	0.95550 0.24470 0.88910 0.08800
C 	C 	0.69940 0.53490 0.94700 -0.03500
H 	H 	0.73960 0.55860 0.97560 0.06100
C 	C 	0.99480 0.46720 0.93720 0.06000
C 	C 	0.06610 0.49290 0.98870 -0.18300
H 	H 	0.11150 0.48800 0.98060 0.09900
C 	C 	0.92960 0.47520 0.94970 -0.13700
H 	H 	0.88070 0.45800 0.91460 0.09100
C 	C 	0.99040 0.43140 0.86960 0.37600
Cd	Cd	0.09967 0.86948 0.62775 1.22700
Na	Na	0.29765 0.89136 0.71818 0.58800
O 	O 	0.06160 0.06874 0.02600 -0.39600
O 	O 	0.09410 0.90817 0.73770 -0.47900
O 	O 	0.21170 0.93740 0.76800 -0.37000
O 	O 	0.21210 0.82881 0.71960 -0.46600
O 	O 	0.46600 0.66193 0.07700 -0.41100
O 	O 	0.53430 0.68571 0.01110 -0.37200
O 	O 	0.18440 0.09525 0.07040 -0.40900
O 	O 	0.13160 0.79417 0.76030 -0.38600
O 	O 	0.63060 0.83654 0.82360 -0.42800
O 	O 	0.55280 0.92460 0.86400 -0.38600
O 	O 	0.55000 0.80430 0.86550 -0.35000
C 	C 	0.15310 0.93600 0.77900 0.36600
C 	C 	0.67280 0.74250 0.98380 -0.02400
H 	H 	0.61930 0.73720 0.97290 0.06800
C 	C 	0.19850 0.80030 0.76670 0.36600
C 	C 	0.14770 0.96990 0.84540 -0.09500
C 	C 	0.68610 0.77760 0.93750 -0.06400
C 	C 	0.26480 0.74350 0.89770 0.00200
H 	H 	0.21620 0.74340 0.90090 0.03600
C 	C 	0.12690 0.06750 0.02500 0.31900
C 	C 	0.34200 0.77190 0.83200 0.00600
H 	H 	0.34710 0.79160 0.79000 0.04100
C 	C 	0.47220 0.68650 0.01870 0.30800
C 	C 	0.40120 0.71650 0.95500 -0.04600
O 	O 	0.42660 0.91020 0.82280 -0.41800
C 	C 	0.33010 0.71650 0.95750 -0.04100
H 	H 	0.32570 0.69760 0.00100 0.05300
C 	C 	0.20540 0.00380 0.88850 0.00100
H 	H 	0.25000 0.00600 0.87800 0.04100
C 	C 	0.76500 0.78500 0.95440 -0.00500
H 	H 	0.77550 0.80910 0.92310 0.04100
C 	C 	0.07960 0.99770 0.92380 -0.03900
H 	H 	0.03610 0.99500 0.93610 0.05200
C 	C 	0.08540 0.96600 0.86370 0.00100
H 	H 	0.04610 0.94190 0.83580 0.02000
C 	C 	0.26990 0.77080 0.83330 -0.09400
C 	C 	0.13650 0.03250 0.96470 -0.05600
C 	C 	0.61810 0.80810 0.87090 0.33100
C 	C 	0.40670 0.74440 0.89160 -0.04100
H 	H 	0.45550 0.74470 0.88910 0.07400
C 	C 	0.19940 0.03490 0.94700 -0.03600
H 	H 	0.23960 0.05860 0.97560 0.05700
C 	C 	0.49480 0.96720 0.93720 -0.07000
C 	C 	0.56610 0.99290 0.98870 -0.02000
H 	H 	0.61150 0.98800 0.98060 0.05200
C 	C 	0.42960 0.97520 0.94970 -0.02000
H 	H 	0.38070 0.95800 0.91460 0.04900
C 	C 	0.49040 0.93140 0.86960 0.34900
Cd	Cd	0.40033 0.36948 0.87225 1.23300
Na	Na	0.20235 0.39136 0.78182 0.58700
O 	O 	0.43840 0.56874 0.47400 -0.37600
O 	O 	0.40590 0.40817 0.76230 -0.46300
O 	O 	0.28830 0.43740 0.73200 -0.36800
O 	O 	0.28790 0.32881 0.78040 -0.46400
O 	O 	0.03400 0.16193 0.42300 -0.41500
O 	O 	0.96570 0.18571 0.48890 -0.31300
O 	O 	0.31560 0.59525 0.42960 -0.40700
O 	O 	0.36840 0.29417 0.73970 -0.37400
O 	O 	0.86940 0.33654 0.67640 -0.41600
O 	O 	0.94720 0.42460 0.63600 -0.33800
O 	O 	0.95000 0.30430 0.63450 -0.32000
C 	C 	0.34690 0.43600 0.72100 0.36500
C 	C 	0.82720 0.24250 0.51620 -0.02900
H 	H 	0.88070 0.23720 0.52710 0.07800
C 	C 	0.30150 0.30030 0.73330 0.36500
C 	C 	0.35230 0.46990 0.65460 -0.09000
C 	C 	0.81390 0.27760 0.56250 -0.05400
C 	C 	0.23520 0.24350 0.60230 0.00700
H 	H 	0.28380 0.24340 0.59910 0.03700
C 	C 	0.37310 0.56750 0.47500 0.31500
C 	C 	0.15800 0.27190 0.66800 0.00900
H 	H 	0.15290 0.29160 0.71000 0.03600
C 	C 	0.02780 0.18650 0.48130 0.23600
C 	C 	0.09880 0.21650 0.54500 -0.03000
O 	O 	0.07340 0.41020 0.67720 -0.42100
C 	C 	0.16990 0.21650 0.54250 -0.05200
H 	H 	0.17430 0.19760 0.49900 0.05600
C 	C 	0.29460 0.50380 0.61150 0.00100
H 	H 	0.25000 0.50600 0.62200 0.04100
C 	C 	0.73500 0.28500 0.54560 -0.01200
H 	H 	0.72450 0.30910 0.57690 0.04300
C 	C 	0.42040 0.49770 0.57620 -0.03800
H 	H 	0.46390 0.49500 0.56390 0.06800
C 	C 	0.41460 0.46600 0.63630 0.00500
H 	H 	0.45390 0.44190 0.66420 0.03500
C 	C 	0.23010 0.27080 0.66670 -0.09700
C 	C 	0.36350 0.53250 0.53530 -0.04700
C 	C 	0.88190 0.30810 0.62910 0.32500
C 	C 	0.09330 0.24440 0.60840 -0.05600
H 	H 	0.04450 0.24470 0.61090 0.06000
C 	C 	0.30060 0.53490 0.55300 -0.03700
H 	H 	0.26040 0.55860 0.52440 0.05700
C 	C 	0.00520 0.46720 0.56280 -0.20500
C 	C 	0.93390 0.49290 0.51130 0.15000
H 	H 	0.88850 0.48800 0.51940 0.00400
C 	C 	0.07040 0.47520 0.55030 0.10300
H 	H 	0.11930 0.45800 0.58540 0.00700
C 	C 	0.00960 0.43140 0.63040 0.32400
Cd	Cd	0.90033 0.86948 0.87225 1.23900
Na	Na	0.70235 0.89136 0.78182 0.58800
O 	O 	0.93840 0.06874 0.47400 -0.35600
O 	O 	0.90590 0.90817 0.76230 -0.44500
O 	O 	0.78830 0.93740 0.73200 -0.36400
O 	O 	0.78790 0.82881 0.78040 -0.46000
O 	O 	0.53400 0.66193 0.42300 -0.41100
O 	O 	0.46570 0.68571 0.48890 -0.37200
O 	O 	0.81560 0.09525 0.42960 -0.40300
O 	O 	0.86840 0.79417 0.73970 -0.35700
O 	O 	0.36940 0.83654 0.67640 -0.42800
O 	O 	0.44720 0.92460 0.63600 -0.38600
O 	O 	0.45000 0.80430 0.63450 -0.35000
C 	C 	0.84690 0.93600 0.72100 0.36400
C 	C 	0.32720 0.74250 0.51620 -0.02900
H 	H 	0.38070 0.73720 0.52710 0.07000
C 	C 	0.80150 0.80030 0.73330 0.36000
C 	C 	0.85230 0.96990 0.65460 -0.08200
C 	C 	0.31390 0.77760 0.56250 -0.06100
C 	C 	0.73520 0.74350 0.60230 -0.00300
H 	H 	0.78380 0.74340 0.59910 0.04500
C 	C 	0.87310 0.06750 0.47500 0.31300
C 	C 	0.65800 0.77190 0.66800 0.00200
H 	H 	0.65290 0.79160 0.71000 0.04300
C 	C 	0.52780 0.68650 0.48130 0.30900
C 	C 	0.59880 0.71650 0.54500 -0.04800
O 	O 	0.57340 0.91020 0.67720 -0.41800
C 	C 	0.66990 0.71650 0.54250 -0.03200
H 	H 	0.67430 0.69760 0.49900 0.05300
C 	C 	0.79460 0.00380 0.61150 0.00400
H 	H 	0.75000 0.00600 0.62200 0.04400
C 	C 	0.23500 0.78500 0.54560 -0.01300
H 	H 	0.22450 0.80910 0.57690 0.04200
C 	C 	0.92040 0.99770 0.57620 -0.03500
H 	H 	0.96390 0.99500 0.56390 0.08400
C 	C 	0.91460 0.96600 0.63630 0.00900
H 	H 	0.95390 0.94190 0.66420 0.05100
C 	C 	0.73010 0.77080 0.66670 -0.08400
C 	C 	0.86350 0.03250 0.53530 -0.03900
C 	C 	0.38190 0.80810 0.62910 0.32900
C 	C 	0.59330 0.74440 0.60840 -0.03700
H 	H 	0.54450 0.74470 0.61090 0.07300
C 	C 	0.80060 0.03490 0.55300 -0.03600
H 	H 	0.76040 0.05860 0.52440 0.06100
C 	C 	0.50520 0.96720 0.56280 -0.07300
C 	C 	0.43390 0.99290 0.51130 -0.01600
H 	H 	0.38850 0.98800 0.51940 0.05100
C 	C 	0.57040 0.97520 0.55030 -0.01500
H 	H 	0.61930 0.95800 0.58540 0.04800
C 	C 	0.50960 0.93140 0.63040 0.35000
Cd	Cd	0.00000 0.63247 0.25000 1.22300
Cd	Cd	0.50000 0.13247 0.25000 1.24000
Cd	Cd	0.00000 0.36753 0.75000 1.22300
Cd	Cd	0.50000 0.86753 0.75000 1.24000
K 	K 	0.50000 0.66301 0.25000 0.65500
K 	K 	0.00000 0.16301 0.25000 0.64300
K 	K 	0.50000 0.33699 0.75000 0.65500
K 	K 	0.00000 0.83699 0.75000 0.64300
