data_crystal

_cell_length_a 13.65700
_cell_length_b 18.68600
_cell_length_c 31.50300
_cell_angle_alpha 90.00000
_cell_angle_beta  101.53200
_cell_angle_gamma 90.00000

_symmetry_space_group_name_	'P 1'
_symmetry_space_group_name_H-M	'P 1'

loop_
_symmetry_equiv_pos_as_xyz
  x,y,z

loop_
_atom_site_label
_atom_site_type_symbol
_atom_site_fract_x
_atom_site_fract_y
_atom_site_fract_z
_atom_site_charge
Cu	Cu	0.80976 0.28179 0.22732 0.92100
O 	O 	0.94660 0.07294 0.44649 -0.41600
O 	O 	0.11120 0.07172 0.47368 -0.40800
O 	O 	0.91260 0.24880 0.27533 -0.39300
O 	O 	0.81290 0.19547 0.31376 -0.39800
O 	O 	0.79030 0.36838 0.25983 -0.38700
O 	O 	0.69340 0.31378 0.29947 -0.38900
N 	N 	0.58060 0.18270 0.30805 -0.19400
N 	N 	0.26150 0.19140 0.35640 -0.11000
C 	C 	0.58520 0.20540 0.34850 0.09400
H 	H 	0.64570 0.22610 0.36160 0.00900
C 	C 	0.51320 0.20300 0.37420 -0.16200
H 	H 	0.52430 0.21830 0.40280 0.09100
C 	C 	0.42220 0.17490 0.35200 0.10500
C 	C 	0.41510 0.14780 0.30990 -0.15000
H 	H 	0.35510 0.12780 0.29570 0.09000
C 	C 	0.49660 0.15000 0.28850 0.08500
H 	H 	0.49180 0.12920 0.26140 0.00700
C 	C 	0.34500 0.17190 0.37870 -0.03400
C 	C 	0.16390 0.18230 0.36616 0.08800
C 	C 	0.14800 0.14850 0.40326 -0.07300
H 	H 	0.20220 0.13520 0.42470 0.07300
C 	C 	0.05160 0.13450 0.40859 -0.05400
C 	C 	0.97190 0.15670 0.37820 -0.00200
H 	H 	0.90750 0.14760 0.38230 0.06200
C 	C 	0.98530 0.19250 0.34136 -0.05400
C 	C 	0.08040 0.20610 0.33518 -0.06800
H 	H 	0.08980 0.23080 0.31070 0.08000
C 	C 	0.03500 0.08990 0.44624 0.34800
C 	C 	0.89670 0.21470 0.30833 0.34400
C 	C 	0.68530 0.43610 0.34800 -0.06700
H 	H 	0.67200 0.39320 0.36070 0.08100
C 	C 	0.72500 0.43530 0.31075 -0.05100
C 	C 	0.73820 0.36770 0.28863 0.34100
H 	H 	0.37230 0.17700 0.40750 0.04500
Cu	Cu	0.30976 0.78179 0.72732 0.92100
O 	O 	0.44660 0.57294 0.94649 -0.40700
O 	O 	0.61120 0.57172 0.97368 -0.39800
O 	O 	0.41260 0.74880 0.77533 -0.39200
O 	O 	0.31290 0.69547 0.81376 -0.39600
O 	O 	0.29030 0.86838 0.75983 -0.37700
O 	O 	0.19340 0.81378 0.79947 -0.38500
N 	N 	0.08060 0.68270 0.80805 -0.19400
N 	N 	0.76150 0.69140 0.85640 -0.10900
C 	C 	0.08520 0.70540 0.84850 0.09800
H 	H 	0.14570 0.72610 0.86160 0.01200
C 	C 	0.01320 0.70300 0.87420 -0.16000
H 	H 	0.02430 0.71830 0.90280 0.09600
C 	C 	0.92220 0.67490 0.85200 0.10900
C 	C 	0.91510 0.64780 0.80990 -0.14800
H 	H 	0.85510 0.62780 0.79570 0.09600
C 	C 	0.99660 0.65000 0.78850 0.08800
H 	H 	0.99180 0.62920 0.76140 0.01200
C 	C 	0.84500 0.67190 0.87870 -0.03000
C 	C 	0.66390 0.68230 0.86616 0.09500
C 	C 	0.64800 0.64850 0.90326 -0.07400
H 	H 	0.70220 0.63520 0.92470 0.07900
C 	C 	0.55160 0.63450 0.90859 -0.04600
C 	C 	0.47190 0.65670 0.87820 -0.00400
H 	H 	0.40750 0.64760 0.88230 0.06700
C 	C 	0.48530 0.69250 0.84136 -0.04800
C 	C 	0.58040 0.70610 0.83518 -0.06900
H 	H 	0.58980 0.73080 0.81070 0.08300
C 	C 	0.53500 0.58990 0.94624 0.34800
C 	C 	0.39670 0.71470 0.80833 0.34400
C 	C 	0.18530 0.93610 0.84800 -0.01800
H 	H 	0.17200 0.89320 0.86070 0.07300
C 	C 	0.22500 0.93530 0.81075 -0.01500
C 	C 	0.23820 0.86770 0.78863 0.33400
H 	H 	0.87230 0.67700 0.90750 0.04900
Cu	Cu	0.19024 0.28179 0.77268 0.92000
O 	O 	0.05340 0.07294 0.55351 -0.41700
O 	O 	0.88880 0.07172 0.52632 -0.40900
O 	O 	0.08740 0.24880 0.72467 -0.39400
O 	O 	0.18710 0.19547 0.68624 -0.39900
O 	O 	0.20970 0.36838 0.74017 -0.38800
O 	O 	0.30660 0.31378 0.70053 -0.39000
N 	N 	0.41940 0.18270 0.69195 -0.19500
N 	N 	0.73850 0.19140 0.64360 -0.11000
C 	C 	0.41480 0.20540 0.65150 0.09400
H 	H 	0.35430 0.22610 0.63840 0.00900
C 	C 	0.48680 0.20300 0.62580 -0.16200
H 	H 	0.47570 0.21830 0.59720 0.09100
C 	C 	0.57780 0.17490 0.64800 0.10500
C 	C 	0.58490 0.14780 0.69010 -0.15000
H 	H 	0.64490 0.12780 0.70430 0.09000
C 	C 	0.50340 0.15000 0.71150 0.08500
H 	H 	0.50820 0.12920 0.73860 0.00700
C 	C 	0.65500 0.17190 0.62130 -0.03400
C 	C 	0.83610 0.18230 0.63384 0.08800
C 	C 	0.85200 0.14850 0.59674 -0.07300
H 	H 	0.79780 0.13520 0.57530 0.07300
C 	C 	0.94840 0.13450 0.59141 -0.05400
C 	C 	0.02810 0.15670 0.62180 -0.00200
H 	H 	0.09250 0.14760 0.61770 0.06200
C 	C 	0.01470 0.19250 0.65864 -0.05400
C 	C 	0.91960 0.20610 0.66482 -0.06800
H 	H 	0.91020 0.23080 0.68930 0.08000
C 	C 	0.96500 0.08990 0.55376 0.34800
C 	C 	0.10330 0.21470 0.69167 0.34400
C 	C 	0.31470 0.43610 0.65200 -0.06700
H 	H 	0.32800 0.39320 0.63930 0.08100
C 	C 	0.27500 0.43530 0.68925 -0.05100
C 	C 	0.26180 0.36770 0.71137 0.34100
H 	H 	0.62770 0.17700 0.59250 0.04500
Cu	Cu	0.69024 0.78179 0.27268 0.92100
O 	O 	0.55340 0.57294 0.05351 -0.40700
O 	O 	0.38880 0.57172 0.02632 -0.39800
O 	O 	0.58740 0.74880 0.22467 -0.39200
O 	O 	0.68710 0.69547 0.18624 -0.39600
O 	O 	0.70970 0.86838 0.24017 -0.37700
O 	O 	0.80660 0.81378 0.20053 -0.38500
N 	N 	0.91940 0.68270 0.19195 -0.19400
N 	N 	0.23850 0.69140 0.14360 -0.10900
C 	C 	0.91480 0.70540 0.15150 0.09800
H 	H 	0.85430 0.72610 0.13840 0.01200
C 	C 	0.98680 0.70300 0.12580 -0.16000
H 	H 	0.97570 0.71830 0.09720 0.09600
C 	C 	0.07780 0.67490 0.14800 0.10900
C 	C 	0.08490 0.64780 0.19010 -0.14800
H 	H 	0.14490 0.62780 0.20430 0.09600
C 	C 	0.00340 0.65000 0.21150 0.08800
H 	H 	0.00820 0.62920 0.23860 0.01200
C 	C 	0.15500 0.67190 0.12130 -0.03000
C 	C 	0.33610 0.68230 0.13384 0.09500
C 	C 	0.35200 0.64850 0.09674 -0.07400
H 	H 	0.29780 0.63520 0.07530 0.07900
C 	C 	0.44840 0.63450 0.09141 -0.04600
C 	C 	0.52810 0.65670 0.12180 -0.00400
H 	H 	0.59250 0.64760 0.11770 0.06700
C 	C 	0.51470 0.69250 0.15864 -0.04800
C 	C 	0.41960 0.70610 0.16482 -0.06900
H 	H 	0.41020 0.73080 0.18930 0.08300
C 	C 	0.46500 0.58990 0.05376 0.34800
C 	C 	0.60330 0.71470 0.19167 0.34400
C 	C 	0.81470 0.93610 0.15200 -0.01800
H 	H 	0.82800 0.89320 0.13930 0.07300
C 	C 	0.77500 0.93530 0.18925 -0.01500
C 	C 	0.76180 0.86770 0.21137 0.33400
H 	H 	0.12770 0.67700 0.09250 0.04900
Cu	Cu	0.19024 0.71821 0.77268 0.92000
O 	O 	0.05340 0.92706 0.55351 -0.39000
O 	O 	0.88880 0.92828 0.52632 -0.38100
O 	O 	0.08740 0.75120 0.72467 -0.39200
O 	O 	0.18710 0.80453 0.68624 -0.39300
O 	O 	0.20970 0.63162 0.74017 -0.38900
O 	O 	0.30660 0.68622 0.70053 -0.39000
N 	N 	0.41940 0.81730 0.69195 -0.19300
N 	N 	0.73850 0.80860 0.64360 -0.11000
C 	C 	0.41480 0.79460 0.65150 0.10000
H 	H 	0.35430 0.77390 0.63840 0.01000
C 	C 	0.48680 0.79700 0.62580 -0.16100
H 	H 	0.47570 0.78170 0.59720 0.09500
C 	C 	0.57780 0.82510 0.64800 0.11100
C 	C 	0.58490 0.85220 0.69010 -0.14600
H 	H 	0.64490 0.87220 0.70430 0.10100
C 	C 	0.50340 0.85000 0.71150 0.09100
H 	H 	0.50820 0.87080 0.73860 0.01700
C 	C 	0.65500 0.82810 0.62130 -0.02600
C 	C 	0.83610 0.81770 0.63384 0.09800
C 	C 	0.85200 0.85150 0.59674 -0.07600
H 	H 	0.79780 0.86480 0.57530 0.08300
C 	C 	0.94840 0.86550 0.59141 -0.04000
C 	C 	0.02810 0.84330 0.62180 -0.00700
H 	H 	0.09250 0.85240 0.61770 0.07000
C 	C 	0.01470 0.80750 0.65864 -0.04400
C 	C 	0.91960 0.79390 0.66482 -0.07100
H 	H 	0.91020 0.76920 0.68930 0.08400
C 	C 	0.96500 0.91010 0.55376 0.34400
C 	C 	0.10330 0.78530 0.69167 0.34300
C 	C 	0.31470 0.56390 0.65200 -0.06700
H 	H 	0.32800 0.60680 0.63930 0.08100
C 	C 	0.27500 0.56470 0.68925 -0.05100
C 	C 	0.26180 0.63230 0.71137 0.34100
H 	H 	0.62770 0.82300 0.59250 0.04900
Cu	Cu	0.69024 0.21821 0.27268 0.92000
O 	O 	0.55340 0.42706 0.05351 -0.40900
O 	O 	0.38880 0.42828 0.02632 -0.40000
O 	O 	0.58740 0.25120 0.22467 -0.39400
O 	O 	0.68710 0.30453 0.18624 -0.39700
O 	O 	0.70970 0.13162 0.24017 -0.39200
O 	O 	0.80660 0.18622 0.20053 -0.39000
N 	N 	0.91940 0.31730 0.19195 -0.19400
N 	N 	0.23850 0.30860 0.14360 -0.11100
C 	C 	0.91480 0.29460 0.15150 0.09600
H 	H 	0.85430 0.27390 0.13840 0.00900
C 	C 	0.98680 0.29700 0.12580 -0.16100
H 	H 	0.97570 0.28170 0.09720 0.09100
C 	C 	0.07780 0.32510 0.14800 0.10600
C 	C 	0.08490 0.35220 0.19010 -0.14700
H 	H 	0.14490 0.37220 0.20430 0.09500
C 	C 	0.00340 0.35000 0.21150 0.08600
H 	H 	0.00820 0.37080 0.23860 0.01200
C 	C 	0.15500 0.32810 0.12130 -0.03000
C 	C 	0.33610 0.31770 0.13384 0.09100
C 	C 	0.35200 0.35150 0.09674 -0.07400
H 	H 	0.29780 0.36480 0.07530 0.07700
C 	C 	0.44840 0.36550 0.09141 -0.04900
C 	C 	0.52810 0.34330 0.12180 -0.00400
H 	H 	0.59250 0.35240 0.11770 0.06500
C 	C 	0.51470 0.30750 0.15864 -0.05100
C 	C 	0.41960 0.29390 0.16482 -0.06900
H 	H 	0.41020 0.26920 0.18930 0.08000
C 	C 	0.46500 0.41010 0.05376 0.34800
C 	C 	0.60330 0.28530 0.19167 0.34400
C 	C 	0.81470 0.06390 0.15200 -0.05800
H 	H 	0.82800 0.10680 0.13930 0.07500
C 	C 	0.77500 0.06470 0.18925 -0.04700
C 	C 	0.76180 0.13230 0.21137 0.33700
H 	H 	0.12770 0.32300 0.09250 0.04600
Cu	Cu	0.80976 0.71821 0.22732 0.92000
O 	O 	0.94660 0.92706 0.44649 -0.39000
O 	O 	0.11120 0.92828 0.47368 -0.38100
O 	O 	0.91260 0.75120 0.27533 -0.39200
O 	O 	0.81290 0.80453 0.31376 -0.39300
O 	O 	0.79030 0.63162 0.25983 -0.38900
O 	O 	0.69340 0.68622 0.29947 -0.39000
N 	N 	0.58060 0.81730 0.30805 -0.19300
N 	N 	0.26150 0.80860 0.35640 -0.11000
C 	C 	0.58520 0.79460 0.34850 0.10000
H 	H 	0.64570 0.77390 0.36160 0.01000
C 	C 	0.51320 0.79700 0.37420 -0.16100
H 	H 	0.52430 0.78170 0.40280 0.09500
C 	C 	0.42220 0.82510 0.35200 0.11100
C 	C 	0.41510 0.85220 0.30990 -0.14600
H 	H 	0.35510 0.87220 0.29570 0.10100
C 	C 	0.49660 0.85000 0.28850 0.09100
H 	H 	0.49180 0.87080 0.26140 0.01700
C 	C 	0.34500 0.82810 0.37870 -0.02600
C 	C 	0.16390 0.81770 0.36616 0.09800
C 	C 	0.14800 0.85150 0.40326 -0.07600
H 	H 	0.20220 0.86480 0.42470 0.08300
C 	C 	0.05160 0.86550 0.40859 -0.04000
C 	C 	0.97190 0.84330 0.37820 -0.00700
H 	H 	0.90750 0.85240 0.38230 0.07000
C 	C 	0.98530 0.80750 0.34136 -0.04400
C 	C 	0.08040 0.79390 0.33518 -0.07100
H 	H 	0.08980 0.76920 0.31070 0.08400
C 	C 	0.03500 0.91010 0.44624 0.34400
C 	C 	0.89670 0.78530 0.30833 0.34300
C 	C 	0.68530 0.56390 0.34800 -0.06700
H 	H 	0.67200 0.60680 0.36070 0.08100
C 	C 	0.72500 0.56470 0.31075 -0.05100
C 	C 	0.73820 0.63230 0.28863 0.34100
H 	H 	0.37230 0.82300 0.40750 0.04900
Cu	Cu	0.30976 0.21821 0.72732 0.92000
O 	O 	0.44660 0.42706 0.94649 -0.40900
O 	O 	0.61120 0.42828 0.97368 -0.40000
O 	O 	0.41260 0.25120 0.77533 -0.39400
O 	O 	0.31290 0.30453 0.81376 -0.39700
O 	O 	0.29030 0.13162 0.75983 -0.39200
O 	O 	0.19340 0.18622 0.79947 -0.39000
N 	N 	0.08060 0.31730 0.80805 -0.19400
N 	N 	0.76150 0.30860 0.85640 -0.11100
C 	C 	0.08520 0.29460 0.84850 0.09600
H 	H 	0.14570 0.27390 0.86160 0.00900
C 	C 	0.01320 0.29700 0.87420 -0.16100
H 	H 	0.02430 0.28170 0.90280 0.09100
C 	C 	0.92220 0.32510 0.85200 0.10600
C 	C 	0.91510 0.35220 0.80990 -0.14700
H 	H 	0.85510 0.37220 0.79570 0.09500
C 	C 	0.99660 0.35000 0.78850 0.08600
H 	H 	0.99180 0.37080 0.76140 0.01200
C 	C 	0.84500 0.32810 0.87870 -0.03000
C 	C 	0.66390 0.31770 0.86616 0.09100
C 	C 	0.64800 0.35150 0.90326 -0.07400
H 	H 	0.70220 0.36480 0.92470 0.07700
C 	C 	0.55160 0.36550 0.90859 -0.04900
C 	C 	0.47190 0.34330 0.87820 -0.00400
H 	H 	0.40750 0.35240 0.88230 0.06500
C 	C 	0.48530 0.30750 0.84136 -0.05100
C 	C 	0.58040 0.29390 0.83518 -0.06900
H 	H 	0.58980 0.26920 0.81070 0.08000
C 	C 	0.53500 0.41010 0.94624 0.34800
C 	C 	0.39670 0.28530 0.80833 0.34400
C 	C 	0.18530 0.06390 0.84800 -0.05800
H 	H 	0.17200 0.10680 0.86070 0.07500
C 	C 	0.22500 0.06470 0.81075 -0.04700
C 	C 	0.23820 0.13230 0.78863 0.33700
H 	H 	0.87230 0.32300 0.90750 0.04600
Cu	Cu	0.90308 0.00000 0.48305 0.89000
Cu	Cu	0.40308 0.50000 0.98305 0.90700
Cu	Cu	0.09692 -0.00000 0.51695 0.89000
Cu	Cu	0.59692 0.50000 0.01695 0.90700
N 	N 	0.64260 0.50000 0.41180 -0.09800
C 	C 	0.66560 0.50000 0.36610 0.08900
C 	C 	0.74470 0.50000 0.29200 -0.00200
H 	H 	0.77090 0.50000 0.26690 0.06600
N 	N 	0.14260 0.00000 0.91180 -0.10500
C 	C 	0.16560 0.00000 0.86610 0.04100
C 	C 	0.24470 -0.00000 0.79200 -0.05500
H 	H 	0.27090 0.00000 0.76690 0.07100
N 	N 	0.35740 0.50000 0.58820 -0.09800
C 	C 	0.33440 0.50000 0.63390 0.08900
C 	C 	0.25530 0.50000 0.70800 -0.00200
H 	H 	0.22910 0.50000 0.73310 0.06600
N 	N 	0.85740 0.00000 0.08820 -0.10500
C 	C 	0.83440 -0.00000 0.13390 0.04100
C 	C 	0.75530 0.00000 0.20800 -0.05500
H 	H 	0.72910 0.00000 0.23310 0.07100
