data_crystal

_cell_length_a 14.39860
_cell_length_b 31.36500
_cell_length_c 32.06470
_cell_angle_alpha 90.00000
_cell_angle_beta  90.00000
_cell_angle_gamma 90.00000

_symmetry_space_group_name_	'P 1'
_symmetry_space_group_name_H-M	'P 1'

loop_
_symmetry_equiv_pos_as_xyz
  x,y,z

loop_
_atom_site_label
_atom_site_type_symbol
_atom_site_fract_x
_atom_site_fract_y
_atom_site_fract_z
_atom_site_charge
C 	C 	0.07610 0.23350 0.69889 0.23200
C 	C 	0.11990 0.20368 0.66727 -0.02400
C 	C 	0.20970 0.19301 0.66831 -0.01100
H 	H 	0.24850 0.20390 0.68980 0.06800
C 	C 	0.19160 0.14732 0.60830 0.06900
C 	C 	0.24700 0.16602 0.63803 -0.09600
H 	H 	0.31190 0.16050 0.63800 0.07600
C 	C 	0.05880 0.18530 0.63822 -0.08800
H 	H 	0.99460 0.19230 0.63820 0.10800
C 	C 	0.09570 0.15580 0.60880 -0.06500
H 	H 	0.05570 0.14180 0.58970 0.04100
C 	C 	0.22520 0.11736 0.57586 -0.12400
C 	C 	0.22480 0.13031 0.53453 0.08300
C 	C 	0.28990 0.02300 0.62979 -0.08800
H 	H 	0.29810 0.00450 0.65300 0.06300
C 	C 	0.31460 0.01430 0.58699 0.09800
C 	C 	0.19980 0.17259 0.52139 -0.07800
H 	H 	0.18600 0.19610 0.53900 0.05800
C 	C 	0.25330 0.06189 0.63019 -0.07300
H 	H 	0.23100 0.07690 0.65390 0.05900
C 	C 	0.38310 0.94250 0.60700 0.10200
C 	C 	0.47730 0.93690 0.61850 -0.12700
H 	H 	0.52440 0.95450 0.60680 0.07400
C 	C 	0.36010 0.97561 0.57470 -0.14500
C 	C 	0.31430 0.91730 0.62400 -0.13300
H 	H 	0.25140 0.92140 0.61600 0.06900
C 	C 	0.25400 0.07683 0.58792 0.08100
C 	C 	0.38580 0.96870 0.53450 0.09500
C 	C 	0.43560 0.92970 0.52190 -0.09200
H 	H 	0.46230 0.90880 0.53970 0.05400
C 	C 	0.42980 0.87951 0.66402 -0.08100
C 	C 	0.33700 0.88610 0.65260 0.03400
H 	H 	0.28940 0.86910 0.66460 0.03900
C 	C 	0.50030 0.90480 0.64760 0.02800
H 	H 	0.56290 0.90060 0.65580 0.03900
C 	C 	0.45650 0.84545 0.69470 0.28300
N 	N 	0.29180 0.04603 0.56197 -0.28500
O 	O 	0.12820 0.25203 0.72468 -0.40200
O 	O 	0.99030 0.24080 0.69755 -0.39700
O 	O 	0.39080 0.82335 0.71115 -0.41300
O 	O 	0.54060 0.83968 0.70374 -0.43800
C 	C 	0.57610 0.73350 0.69889 0.30100
C 	C 	0.61990 0.70368 0.66727 -0.08700
C 	C 	0.70970 0.69301 0.66831 0.04400
H 	H 	0.74850 0.70390 0.68980 0.05300
C 	C 	0.69160 0.64732 0.60830 0.10900
C 	C 	0.74700 0.66602 0.63803 -0.13700
H 	H 	0.81190 0.66050 0.63800 0.09400
C 	C 	0.55880 0.68530 0.63822 0.02800
H 	H 	0.49460 0.69230 0.63820 0.04200
C 	C 	0.59570 0.65580 0.60880 -0.12700
H 	H 	0.55570 0.64180 0.58970 0.07100
C 	C 	0.72520 0.61736 0.57586 -0.13700
C 	C 	0.72480 0.63031 0.53453 0.09200
C 	C 	0.78990 0.52300 0.62979 -0.07600
H 	H 	0.79810 0.50450 0.65300 0.06400
C 	C 	0.81460 0.51430 0.58699 0.08400
C 	C 	0.69980 0.67259 0.52139 -0.07800
H 	H 	0.68600 0.69610 0.53900 0.06200
C 	C 	0.75330 0.56189 0.63019 -0.07900
H 	H 	0.73100 0.57690 0.65390 0.06600
C 	C 	0.88310 0.44250 0.60700 0.00500
C 	C 	0.97730 0.43690 0.61850 0.08400
H 	H 	0.02440 0.45450 0.60680 -0.02000
C 	C 	0.86010 0.47561 0.57470 -0.10500
C 	C 	0.81430 0.41730 0.62400 -0.04100
H 	H 	0.75140 0.42140 0.61600 0.04400
C 	C 	0.75400 0.57683 0.58792 0.09200
C 	C 	0.88580 0.46870 0.53450 0.08700
C 	C 	0.93560 0.42970 0.52190 -0.08100
H 	H 	0.96230 0.40880 0.53970 0.06000
C 	C 	0.92980 0.37951 0.66402 0.03600
C 	C 	0.83700 0.38610 0.65260 -0.05400
H 	H 	0.78940 0.36910 0.66460 0.07200
C 	C 	0.00030 0.40480 0.64760 -0.17500
H 	H 	0.06290 0.40060 0.65580 0.10000
C 	C 	0.95650 0.34545 0.69470 0.29000
N 	N 	0.79180 0.54603 0.56197 -0.28100
O 	O 	0.62820 0.75203 0.72468 -0.41300
O 	O 	0.49030 0.74080 0.69755 -0.44400
O 	O 	0.89080 0.32335 0.71115 -0.40700
O 	O 	0.04060 0.33968 0.70374 -0.46500
C 	C 	0.92390 0.23350 0.80111 0.36800
C 	C 	0.88010 0.20368 0.83273 -0.14800
C 	C 	0.79030 0.19301 0.83169 0.09400
H 	H 	0.75150 0.20390 0.81020 0.03600
C 	C 	0.80840 0.14732 0.89170 0.14500
C 	C 	0.75300 0.16602 0.86197 -0.17600
H 	H 	0.68810 0.16050 0.86200 0.10300
C 	C 	0.94120 0.18530 0.86178 0.14400
H 	H 	0.00540 0.19230 0.86180 -0.02000
C 	C 	0.90430 0.15580 0.89120 -0.18600
H 	H 	0.94430 0.14180 0.91030 0.10200
C 	C 	0.77480 0.11736 0.92414 -0.15100
C 	C 	0.77520 0.13031 0.96547 0.10100
C 	C 	0.71010 0.02300 0.87021 -0.08100
H 	H 	0.70190 0.00450 0.84700 0.06500
C 	C 	0.68540 0.01430 0.91301 0.10100
C 	C 	0.80020 0.17259 0.97861 -0.05800
H 	H 	0.81400 0.19610 0.96100 0.06000
C 	C 	0.74670 0.06189 0.86981 -0.07900
H 	H 	0.76900 0.07690 0.84610 0.06700
C 	C 	0.61690 0.94250 0.89300 0.10500
C 	C 	0.52270 0.93690 0.88150 -0.12800
H 	H 	0.47560 0.95450 0.89320 0.07500
C 	C 	0.63990 0.97561 0.92530 -0.14400
C 	C 	0.68570 0.91730 0.87600 -0.13300
H 	H 	0.74860 0.92140 0.88400 0.08000
C 	C 	0.74600 0.07683 0.91208 0.09800
C 	C 	0.61420 0.96870 0.96550 0.10300
C 	C 	0.56440 0.92970 0.97810 -0.07200
H 	H 	0.53770 0.90880 0.96030 0.05100
C 	C 	0.57020 0.87951 0.83598 -0.08100
C 	C 	0.66300 0.88610 0.84740 0.03800
H 	H 	0.71060 0.86910 0.83540 0.04400
C 	C 	0.49970 0.90480 0.85240 0.03000
H 	H 	0.43710 0.90060 0.84420 0.03900
C 	C 	0.54350 0.84545 0.80530 0.28400
N 	N 	0.70820 0.04603 0.93803 -0.28200
O 	O 	0.87180 0.25203 0.77532 -0.42500
O 	O 	0.00970 0.24080 0.80245 -0.48800
O 	O 	0.60920 0.82335 0.78885 -0.41000
O 	O 	0.45940 0.83968 0.79626 -0.43800
C 	C 	0.42390 0.73350 0.80111 0.30100
C 	C 	0.38010 0.70368 0.83273 -0.08500
C 	C 	0.29030 0.69301 0.83169 0.04100
H 	H 	0.25150 0.70390 0.81020 0.05100
C 	C 	0.30840 0.64732 0.89170 0.10500
C 	C 	0.25300 0.66602 0.86197 -0.13500
H 	H 	0.18810 0.66050 0.86200 0.08500
C 	C 	0.44120 0.68530 0.86178 0.02800
H 	H 	0.50540 0.69230 0.86180 0.04500
C 	C 	0.40430 0.65580 0.89120 -0.12500
H 	H 	0.44430 0.64180 0.91030 0.07300
C 	C 	0.27480 0.61736 0.92414 -0.13800
C 	C 	0.27520 0.63031 0.96547 0.09200
C 	C 	0.21010 0.52300 0.87021 -0.09400
H 	H 	0.20190 0.50450 0.84700 0.06400
C 	C 	0.18540 0.51430 0.91301 0.11500
C 	C 	0.30020 0.67259 0.97861 -0.05800
H 	H 	0.31400 0.69610 0.96100 0.05600
C 	C 	0.24670 0.56189 0.86981 -0.07400
H 	H 	0.26900 0.57690 0.84610 0.06000
C 	C 	0.11690 0.44250 0.89300 0.20200
C 	C 	0.02270 0.43690 0.88150 -0.33900
H 	H 	0.97560 0.45450 0.89320 0.17000
C 	C 	0.13990 0.47561 0.92530 -0.18400
C 	C 	0.18570 0.41730 0.87600 -0.22500
H 	H 	0.24860 0.42140 0.88400 0.10500
C 	C 	0.24600 0.57683 0.91208 0.08800
C 	C 	0.11420 0.46870 0.96550 0.11100
C 	C 	0.06440 0.42970 0.97810 -0.08300
H 	H 	0.03770 0.40880 0.96030 0.04500
C 	C 	0.07020 0.37951 0.83598 -0.19700
C 	C 	0.16300 0.38610 0.84740 0.12600
H 	H 	0.21060 0.36910 0.83540 0.01200
C 	C 	0.99970 0.40480 0.85240 0.23300
H 	H 	0.93710 0.40060 0.84420 -0.02200
C 	C 	0.04350 0.34545 0.80530 0.27700
N 	N 	0.20820 0.54603 0.93803 -0.28600
O 	O 	0.37180 0.75203 0.77532 -0.41600
O 	O 	0.50970 0.74080 0.80245 -0.44300
O 	O 	0.10920 0.32335 0.78885 -0.41400
O 	O 	0.95940 0.33968 0.79626 -0.40900
C 	C 	0.07610 0.23350 0.30111 0.23300
C 	C 	0.11990 0.20368 0.33273 -0.02300
C 	C 	0.20970 0.19301 0.33169 -0.01000
H 	H 	0.24850 0.20390 0.31020 0.06900
C 	C 	0.19160 0.14732 0.39170 0.06900
C 	C 	0.24700 0.16602 0.36197 -0.09600
H 	H 	0.31190 0.16050 0.36200 0.07600
C 	C 	0.05880 0.18530 0.36178 -0.08800
H 	H 	0.99460 0.19230 0.36180 0.10800
C 	C 	0.09570 0.15580 0.39120 -0.06500
H 	H 	0.05570 0.14180 0.41030 0.04100
C 	C 	0.22520 0.11736 0.42414 -0.12400
C 	C 	0.22480 0.13031 0.46547 0.08300
C 	C 	0.28990 0.02300 0.37021 -0.08800
H 	H 	0.29810 0.00450 0.34700 0.06300
C 	C 	0.31460 0.01430 0.41301 0.09800
C 	C 	0.19980 0.17259 0.47861 -0.07800
H 	H 	0.18600 0.19610 0.46100 0.05800
C 	C 	0.25330 0.06189 0.36981 -0.07300
H 	H 	0.23100 0.07690 0.34610 0.05900
C 	C 	0.38310 0.94250 0.39300 0.10200
C 	C 	0.47730 0.93690 0.38150 -0.12700
H 	H 	0.52440 0.95450 0.39320 0.07400
C 	C 	0.36010 0.97561 0.42530 -0.14500
C 	C 	0.31430 0.91730 0.37600 -0.13300
H 	H 	0.25140 0.92140 0.38400 0.06900
C 	C 	0.25400 0.07683 0.41208 0.08100
C 	C 	0.38580 0.96870 0.46550 0.09500
C 	C 	0.43560 0.92970 0.47810 -0.09200
H 	H 	0.46230 0.90880 0.46030 0.05400
C 	C 	0.42980 0.87951 0.33598 -0.08100
C 	C 	0.33700 0.88610 0.34740 0.03400
H 	H 	0.28940 0.86910 0.33540 0.03900
C 	C 	0.50030 0.90480 0.35240 0.02800
H 	H 	0.56290 0.90060 0.34420 0.03900
C 	C 	0.45650 0.84545 0.30530 0.28300
N 	N 	0.29180 0.04603 0.43803 -0.28500
O 	O 	0.12820 0.25203 0.27532 -0.40200
O 	O 	0.99030 0.24080 0.30245 -0.39700
O 	O 	0.39080 0.82335 0.28885 -0.41300
O 	O 	0.54060 0.83968 0.29626 -0.43800
C 	C 	0.57610 0.73350 0.30111 0.30100
C 	C 	0.61990 0.70368 0.33273 -0.08700
C 	C 	0.70970 0.69301 0.33169 0.04400
H 	H 	0.74850 0.70390 0.31020 0.05300
C 	C 	0.69160 0.64732 0.39170 0.10900
C 	C 	0.74700 0.66602 0.36197 -0.13700
H 	H 	0.81190 0.66050 0.36200 0.09400
C 	C 	0.55880 0.68530 0.36178 0.02900
H 	H 	0.49460 0.69230 0.36180 0.04200
C 	C 	0.59570 0.65580 0.39120 -0.12700
H 	H 	0.55570 0.64180 0.41030 0.07100
C 	C 	0.72520 0.61736 0.42414 -0.13700
C 	C 	0.72480 0.63031 0.46547 0.09200
C 	C 	0.78990 0.52300 0.37021 -0.07600
H 	H 	0.79810 0.50450 0.34700 0.06400
C 	C 	0.81460 0.51430 0.41301 0.08400
C 	C 	0.69980 0.67259 0.47861 -0.07800
H 	H 	0.68600 0.69610 0.46100 0.06200
C 	C 	0.75330 0.56189 0.36981 -0.07900
H 	H 	0.73100 0.57690 0.34610 0.06600
C 	C 	0.88310 0.44250 0.39300 0.00500
C 	C 	0.97730 0.43690 0.38150 0.08400
H 	H 	0.02440 0.45450 0.39320 -0.02000
C 	C 	0.86010 0.47561 0.42530 -0.10400
C 	C 	0.81430 0.41730 0.37600 -0.04100
H 	H 	0.75140 0.42140 0.38400 0.04400
C 	C 	0.75400 0.57683 0.41208 0.09200
C 	C 	0.88580 0.46870 0.46550 0.08700
C 	C 	0.93560 0.42970 0.47810 -0.08100
H 	H 	0.96230 0.40880 0.46030 0.06000
C 	C 	0.92980 0.37951 0.33598 0.03600
C 	C 	0.83700 0.38610 0.34740 -0.05400
H 	H 	0.78940 0.36910 0.33540 0.07200
C 	C 	0.00030 0.40480 0.35240 -0.17500
H 	H 	0.06290 0.40060 0.34420 0.10000
C 	C 	0.95650 0.34545 0.30530 0.29000
N 	N 	0.79180 0.54603 0.43803 -0.28100
O 	O 	0.62820 0.75203 0.27532 -0.41300
O 	O 	0.49030 0.74080 0.30245 -0.44400
O 	O 	0.89080 0.32335 0.28885 -0.40700
O 	O 	0.04060 0.33968 0.29626 -0.46500
C 	C 	0.92390 0.23350 0.19889 0.36800
C 	C 	0.88010 0.20368 0.16727 -0.14900
C 	C 	0.79030 0.19301 0.16831 0.09400
H 	H 	0.75150 0.20390 0.18980 0.03500
C 	C 	0.80840 0.14732 0.10830 0.14500
C 	C 	0.75300 0.16602 0.13803 -0.17700
H 	H 	0.68810 0.16050 0.13800 0.10200
C 	C 	0.94120 0.18530 0.13822 0.14300
H 	H 	0.00540 0.19230 0.13820 -0.02100
C 	C 	0.90430 0.15580 0.10880 -0.18700
H 	H 	0.94430 0.14180 0.08970 0.10000
C 	C 	0.77480 0.11736 0.07586 -0.15400
C 	C 	0.77520 0.13031 0.03453 0.10100
C 	C 	0.71010 0.02300 0.12979 -0.08200
H 	H 	0.70190 0.00450 0.15300 0.06500
C 	C 	0.68540 0.01430 0.08699 0.10000
C 	C 	0.80020 0.17259 0.02139 -0.10200
H 	H 	0.81400 0.19610 0.03900 0.07000
C 	C 	0.74670 0.06189 0.13019 -0.07900
H 	H 	0.76900 0.07690 0.15390 0.06700
C 	C 	0.61690 0.94250 0.10700 0.10600
C 	C 	0.52270 0.93690 0.11850 -0.12900
H 	H 	0.47560 0.95450 0.10680 0.07500
C 	C 	0.63990 0.97561 0.07470 -0.14600
C 	C 	0.68570 0.91730 0.12400 -0.13400
H 	H 	0.74860 0.92140 0.11600 0.07800
C 	C 	0.74600 0.07683 0.08792 0.09700
C 	C 	0.61420 0.96870 0.03450 0.10100
C 	C 	0.56440 0.92970 0.02190 -0.11100
H 	H 	0.53770 0.90880 0.03970 0.06000
C 	C 	0.57020 0.87951 0.16402 -0.08100
C 	C 	0.66300 0.88610 0.15260 0.03700
H 	H 	0.71060 0.86910 0.16460 0.04400
C 	C 	0.49970 0.90480 0.14760 0.03000
H 	H 	0.43710 0.90060 0.15580 0.03900
C 	C 	0.54350 0.84545 0.19470 0.28300
N 	N 	0.70820 0.04603 0.06197 -0.28600
O 	O 	0.87180 0.25203 0.22468 -0.42500
O 	O 	0.00970 0.24080 0.19755 -0.48900
O 	O 	0.60920 0.82335 0.21115 -0.41100
O 	O 	0.45940 0.83968 0.20374 -0.43800
C 	C 	0.42390 0.73350 0.19889 0.30100
C 	C 	0.38010 0.70368 0.16727 -0.08600
C 	C 	0.29030 0.69301 0.16831 0.04100
H 	H 	0.25150 0.70390 0.18980 0.05100
C 	C 	0.30840 0.64732 0.10830 0.10500
C 	C 	0.25300 0.66602 0.13803 -0.13600
H 	H 	0.18810 0.66050 0.13800 0.08400
C 	C 	0.44120 0.68530 0.13822 0.02700
H 	H 	0.50540 0.69230 0.13820 0.04300
C 	C 	0.40430 0.65580 0.10880 -0.12500
H 	H 	0.44430 0.64180 0.08970 0.07000
C 	C 	0.27480 0.61736 0.07586 -0.14100
C 	C 	0.27520 0.63031 0.03453 0.09200
C 	C 	0.21010 0.52300 0.12979 -0.09400
H 	H 	0.20190 0.50450 0.15300 0.06400
C 	C 	0.18540 0.51430 0.08699 0.11400
C 	C 	0.30020 0.67259 0.02139 -0.10300
H 	H 	0.31400 0.69610 0.03900 0.06600
C 	C 	0.24670 0.56189 0.13019 -0.07400
H 	H 	0.26900 0.57690 0.15390 0.06000
C 	C 	0.11690 0.44250 0.10700 0.20200
C 	C 	0.02270 0.43690 0.11850 -0.34000
H 	H 	0.97560 0.45450 0.10680 0.17000
C 	C 	0.13990 0.47561 0.07470 -0.18600
C 	C 	0.18570 0.41730 0.12400 -0.22600
H 	H 	0.24860 0.42140 0.11600 0.10300
C 	C 	0.24600 0.57683 0.08792 0.08600
C 	C 	0.11420 0.46870 0.03450 0.10900
C 	C 	0.06440 0.42970 0.02190 -0.12100
H 	H 	0.03770 0.40880 0.03970 0.05300
C 	C 	0.07020 0.37951 0.16402 -0.19800
C 	C 	0.16300 0.38610 0.15260 0.12500
H 	H 	0.21060 0.36910 0.16460 0.01100
C 	C 	0.99970 0.40480 0.14760 0.23300
H 	H 	0.93710 0.40060 0.15580 -0.02200
C 	C 	0.04350 0.34545 0.19470 0.27700
N 	N 	0.20820 0.54603 0.06197 -0.29000
O 	O 	0.37180 0.75203 0.22468 -0.41600
O 	O 	0.50970 0.74080 0.19755 -0.44400
O 	O 	0.10920 0.32335 0.21115 -0.41500
O 	O 	0.95940 0.33968 0.20374 -0.40900
In	In	0.00000 0.28826 0.25000 1.98700
In	In	0.50000 0.78826 0.25000 1.99600
In	In	-0.00000 0.28826 0.75000 1.98700
In	In	0.50000 0.78826 0.75000 1.99600
Co	Co	0.28887 0.04604 0.50000 1.10400
N 	N 	0.24220 0.10400 0.50000 -0.28700
N 	N 	0.35900 0.99160 0.50000 -0.28500
Co	Co	0.78887 0.54604 0.50000 1.10800
N 	N 	0.74220 0.60400 0.50000 -0.28600
N 	N 	0.85900 0.49160 0.50000 -0.27800
Co	Co	0.71113 0.04604 -0.00000 1.10400
N 	N 	0.75780 0.10400 -0.00000 -0.29500
N 	N 	0.64100 0.99160 -0.00000 -0.29000
Co	Co	0.21113 0.54604 -0.00000 1.10100
N 	N 	0.25780 0.60400 -0.00000 -0.29600
N 	N 	0.14100 0.49160 -0.00000 -0.29800
C 	C 	0.92390 0.76650 0.69889 0.36800
C 	C 	0.88010 0.79632 0.66727 -0.14800
C 	C 	0.79030 0.80699 0.66831 0.09400
H 	H 	0.75150 0.79610 0.68980 0.03600
C 	C 	0.80840 0.85268 0.60830 0.14500
C 	C 	0.75300 0.83398 0.63803 -0.17600
H 	H 	0.68810 0.83950 0.63800 0.10200
C 	C 	0.94120 0.81470 0.63822 0.14300
H 	H 	0.00540 0.80770 0.63820 -0.02100
C 	C 	0.90430 0.84420 0.60880 -0.18600
H 	H 	0.94430 0.85820 0.58970 0.10100
C 	C 	0.77480 0.88264 0.57586 -0.15100
C 	C 	0.77520 0.86969 0.53453 0.09600
C 	C 	0.71010 0.97700 0.62979 -0.08100
H 	H 	0.70190 0.99550 0.65300 0.06500
C 	C 	0.68540 0.98570 0.58699 0.10000
C 	C 	0.80020 0.82741 0.52139 -0.07900
H 	H 	0.81400 0.80390 0.53900 0.06400
C 	C 	0.74670 0.93811 0.63019 -0.07900
H 	H 	0.76900 0.92310 0.65390 0.06700
C 	C 	0.61690 0.05750 0.60700 0.10500
C 	C 	0.52270 0.06310 0.61850 -0.12800
H 	H 	0.47560 0.04550 0.60680 0.07500
C 	C 	0.63990 0.02439 0.57470 -0.14300
C 	C 	0.68570 0.08270 0.62400 -0.13300
H 	H 	0.74860 0.07860 0.61600 0.07900
C 	C 	0.74600 0.92317 0.58792 0.09700
C 	C 	0.61420 0.03130 0.53450 0.09700
C 	C 	0.56440 0.07030 0.52190 -0.09000
H 	H 	0.53770 0.09120 0.53970 0.05500
C 	C 	0.57020 0.12049 0.66402 -0.08100
C 	C 	0.66300 0.11390 0.65260 0.03700
H 	H 	0.71060 0.13090 0.66460 0.04400
C 	C 	0.49970 0.09520 0.64760 0.02900
H 	H 	0.43710 0.09940 0.65580 0.03900
C 	C 	0.54350 0.15455 0.69470 0.28300
N 	N 	0.70820 0.95397 0.56197 -0.28500
O 	O 	0.87180 0.74797 0.72468 -0.42500
O 	O 	0.00970 0.75920 0.69755 -0.48800
O 	O 	0.60920 0.17665 0.71115 -0.41100
O 	O 	0.45940 0.16032 0.70374 -0.43800
C 	C 	0.42390 0.26650 0.69889 0.30100
C 	C 	0.38010 0.29632 0.66727 -0.08500
C 	C 	0.29030 0.30699 0.66831 0.04000
H 	H 	0.25150 0.29610 0.68980 0.05200
C 	C 	0.30840 0.35268 0.60830 0.10400
C 	C 	0.25300 0.33398 0.63803 -0.13500
H 	H 	0.18810 0.33950 0.63800 0.08400
C 	C 	0.44120 0.31470 0.63822 0.02700
H 	H 	0.50540 0.30770 0.63820 0.04400
C 	C 	0.40430 0.34420 0.60880 -0.12400
H 	H 	0.44430 0.35820 0.58970 0.07100
C 	C 	0.27480 0.38264 0.57586 -0.13800
C 	C 	0.27520 0.36969 0.53453 0.08700
C 	C 	0.21010 0.47700 0.62979 -0.09400
H 	H 	0.20190 0.49550 0.65300 0.06400
C 	C 	0.18540 0.48570 0.58699 0.11300
C 	C 	0.30020 0.32741 0.52139 -0.08000
H 	H 	0.31400 0.30390 0.53900 0.06100
C 	C 	0.24670 0.43811 0.63019 -0.07300
H 	H 	0.26900 0.42310 0.65390 0.06000
C 	C 	0.11690 0.55750 0.60700 0.20200
C 	C 	0.02270 0.56310 0.61850 -0.34000
H 	H 	0.97560 0.54550 0.60680 0.17000
C 	C 	0.13990 0.52439 0.57470 -0.18400
C 	C 	0.18570 0.58270 0.62400 -0.22600
H 	H 	0.24860 0.57860 0.61600 0.10400
C 	C 	0.24600 0.42317 0.58792 0.08600
C 	C 	0.11420 0.53130 0.53450 0.10500
C 	C 	0.06440 0.57030 0.52190 -0.10100
H 	H 	0.03770 0.59120 0.53970 0.04900
C 	C 	0.07020 0.62049 0.66402 -0.19800
C 	C 	0.16300 0.61390 0.65260 0.12500
H 	H 	0.21060 0.63090 0.66460 0.01200
C 	C 	0.99970 0.59520 0.64760 0.23300
H 	H 	0.93710 0.59940 0.65580 -0.02200
C 	C 	0.04350 0.65455 0.69470 0.27700
N 	N 	0.20820 0.45397 0.56197 -0.28900
O 	O 	0.37180 0.24797 0.72468 -0.41600
O 	O 	0.50970 0.25920 0.69755 -0.44300
O 	O 	0.10920 0.67665 0.71115 -0.41500
O 	O 	0.95940 0.66032 0.70374 -0.40900
C 	C 	0.07610 0.76650 0.80111 0.23400
C 	C 	0.11990 0.79632 0.83273 -0.02400
C 	C 	0.20970 0.80699 0.83169 -0.00900
H 	H 	0.24850 0.79610 0.81020 0.06900
C 	C 	0.19160 0.85268 0.89170 0.06900
C 	C 	0.24700 0.83398 0.86197 -0.09600
H 	H 	0.31190 0.83950 0.86200 0.07600
C 	C 	0.05880 0.81470 0.86178 -0.08700
H 	H 	0.99460 0.80770 0.86180 0.10800
C 	C 	0.09570 0.84420 0.89120 -0.06500
H 	H 	0.05570 0.85820 0.91030 0.04300
C 	C 	0.22520 0.88264 0.92414 -0.12400
C 	C 	0.22480 0.86969 0.96547 0.08800
C 	C 	0.28990 0.97700 0.87021 -0.08900
H 	H 	0.29810 0.99550 0.84700 0.06300
C 	C 	0.31460 0.98570 0.91301 0.10000
C 	C 	0.19980 0.82741 0.97861 -0.05700
H 	H 	0.18600 0.80390 0.96100 0.05400
C 	C 	0.25330 0.93811 0.86981 -0.07400
H 	H 	0.23100 0.92310 0.84610 0.05900
C 	C 	0.38310 0.05750 0.89300 0.10300
C 	C 	0.47730 0.06310 0.88150 -0.12800
H 	H 	0.52440 0.04550 0.89320 0.07500
C 	C 	0.36010 0.02439 0.92530 -0.14600
C 	C 	0.31430 0.08270 0.87600 -0.13300
H 	H 	0.25140 0.07860 0.88400 0.07000
C 	C 	0.25400 0.92317 0.91208 0.08300
C 	C 	0.38580 0.03130 0.96550 0.10100
C 	C 	0.43560 0.07030 0.97810 -0.07300
H 	H 	0.46230 0.09120 0.96030 0.05000
C 	C 	0.42980 0.12049 0.83598 -0.08100
C 	C 	0.33700 0.11390 0.84740 0.03500
H 	H 	0.28940 0.13090 0.83540 0.04000
C 	C 	0.50030 0.09520 0.85240 0.02900
H 	H 	0.56290 0.09940 0.84420 0.03900
C 	C 	0.45650 0.15455 0.80530 0.28300
N 	N 	0.29180 0.95397 0.93803 -0.28200
O 	O 	0.12820 0.74797 0.77532 -0.40200
O 	O 	0.99030 0.75920 0.80245 -0.39600
O 	O 	0.39080 0.17665 0.78885 -0.41300
O 	O 	0.54060 0.16032 0.79626 -0.43800
C 	C 	0.57610 0.26650 0.80111 0.30100
C 	C 	0.61990 0.29632 0.83273 -0.08700
C 	C 	0.70970 0.30699 0.83169 0.04400
H 	H 	0.74850 0.29610 0.81020 0.05300
C 	C 	0.69160 0.35268 0.89170 0.10900
C 	C 	0.74700 0.33398 0.86197 -0.13700
H 	H 	0.81190 0.33950 0.86200 0.09400
C 	C 	0.55880 0.31470 0.86178 0.02900
H 	H 	0.49460 0.30770 0.86180 0.04300
C 	C 	0.59570 0.34420 0.89120 -0.12700
H 	H 	0.55570 0.35820 0.91030 0.07200
C 	C 	0.72520 0.38264 0.92414 -0.13700
C 	C 	0.72480 0.36969 0.96547 0.09700
C 	C 	0.78990 0.47700 0.87021 -0.07600
H 	H 	0.79810 0.49550 0.84700 0.06400
C 	C 	0.81460 0.48570 0.91301 0.08600
C 	C 	0.69980 0.32741 0.97861 -0.05700
H 	H 	0.68600 0.30390 0.96100 0.05700
C 	C 	0.75330 0.43811 0.86981 -0.07900
H 	H 	0.73100 0.42310 0.84610 0.06600
C 	C 	0.88310 0.55750 0.89300 0.00600
C 	C 	0.97730 0.56310 0.88150 0.08300
H 	H 	0.02440 0.54550 0.89320 -0.02000
C 	C 	0.86010 0.52439 0.92530 -0.10500
C 	C 	0.81430 0.58270 0.87600 -0.04100
H 	H 	0.75140 0.57860 0.88400 0.04500
C 	C 	0.75400 0.42317 0.91208 0.09300
C 	C 	0.88580 0.53130 0.96550 0.09300
C 	C 	0.93560 0.57030 0.97810 -0.06300
H 	H 	0.96230 0.59120 0.96030 0.05700
C 	C 	0.92980 0.62049 0.83598 0.03600
C 	C 	0.83700 0.61390 0.84740 -0.05300
H 	H 	0.78940 0.63090 0.83540 0.07200
C 	C 	0.00030 0.59520 0.85240 -0.17400
H 	H 	0.06290 0.59940 0.84420 0.10000
C 	C 	0.95650 0.65455 0.80530 0.29000
N 	N 	0.79180 0.45397 0.93803 -0.27800
O 	O 	0.62820 0.24797 0.77532 -0.41300
O 	O 	0.49030 0.25920 0.80245 -0.44400
O 	O 	0.89080 0.67665 0.78885 -0.40700
O 	O 	0.04060 0.66032 0.79626 -0.46500
C 	C 	0.92390 0.76650 0.30111 0.36800
C 	C 	0.88010 0.79632 0.33273 -0.14800
C 	C 	0.79030 0.80699 0.33169 0.09400
H 	H 	0.75150 0.79610 0.31020 0.03600
C 	C 	0.80840 0.85268 0.39170 0.14500
C 	C 	0.75300 0.83398 0.36197 -0.17600
H 	H 	0.68810 0.83950 0.36200 0.10200
C 	C 	0.94120 0.81470 0.36178 0.14300
H 	H 	0.00540 0.80770 0.36180 -0.02100
C 	C 	0.90430 0.84420 0.39120 -0.18600
H 	H 	0.94430 0.85820 0.41030 0.10100
C 	C 	0.77480 0.88264 0.42414 -0.15100
C 	C 	0.77520 0.86969 0.46547 0.09600
C 	C 	0.71010 0.97700 0.37021 -0.08100
H 	H 	0.70190 0.99550 0.34700 0.06500
C 	C 	0.68540 0.98570 0.41301 0.10000
C 	C 	0.80020 0.82741 0.47861 -0.07900
H 	H 	0.81400 0.80390 0.46100 0.06400
C 	C 	0.74670 0.93811 0.36981 -0.07900
H 	H 	0.76900 0.92310 0.34610 0.06700
C 	C 	0.61690 0.05750 0.39300 0.10500
C 	C 	0.52270 0.06310 0.38150 -0.12800
H 	H 	0.47560 0.04550 0.39320 0.07500
C 	C 	0.63990 0.02439 0.42530 -0.14300
C 	C 	0.68570 0.08270 0.37600 -0.13300
H 	H 	0.74860 0.07860 0.38400 0.07900
C 	C 	0.74600 0.92317 0.41208 0.09700
C 	C 	0.61420 0.03130 0.46550 0.09700
C 	C 	0.56440 0.07030 0.47810 -0.09000
H 	H 	0.53770 0.09120 0.46030 0.05500
C 	C 	0.57020 0.12049 0.33598 -0.08100
C 	C 	0.66300 0.11390 0.34740 0.03700
H 	H 	0.71060 0.13090 0.33540 0.04400
C 	C 	0.49970 0.09520 0.35240 0.02900
H 	H 	0.43710 0.09940 0.34420 0.03900
C 	C 	0.54350 0.15455 0.30530 0.28300
N 	N 	0.70820 0.95397 0.43803 -0.28500
O 	O 	0.87180 0.74797 0.27532 -0.42500
O 	O 	0.00970 0.75920 0.30245 -0.48800
O 	O 	0.60920 0.17665 0.28885 -0.41100
O 	O 	0.45940 0.16032 0.29626 -0.43800
C 	C 	0.42390 0.26650 0.30111 0.30100
C 	C 	0.38010 0.29632 0.33273 -0.08500
C 	C 	0.29030 0.30699 0.33169 0.04000
H 	H 	0.25150 0.29610 0.31020 0.05100
C 	C 	0.30840 0.35268 0.39170 0.10400
C 	C 	0.25300 0.33398 0.36197 -0.13500
H 	H 	0.18810 0.33950 0.36200 0.08400
C 	C 	0.44120 0.31470 0.36178 0.02700
H 	H 	0.50540 0.30770 0.36180 0.04400
C 	C 	0.40430 0.34420 0.39120 -0.12400
H 	H 	0.44430 0.35820 0.41030 0.07100
C 	C 	0.27480 0.38264 0.42414 -0.13800
C 	C 	0.27520 0.36969 0.46547 0.08700
C 	C 	0.21010 0.47700 0.37021 -0.09400
H 	H 	0.20190 0.49550 0.34700 0.06400
C 	C 	0.18540 0.48570 0.41301 0.11300
C 	C 	0.30020 0.32741 0.47861 -0.08000
H 	H 	0.31400 0.30390 0.46100 0.06100
C 	C 	0.24670 0.43811 0.36981 -0.07300
H 	H 	0.26900 0.42310 0.34610 0.06000
C 	C 	0.11690 0.55750 0.39300 0.20200
C 	C 	0.02270 0.56310 0.38150 -0.34000
H 	H 	0.97560 0.54550 0.39320 0.17000
C 	C 	0.13990 0.52439 0.42530 -0.18400
C 	C 	0.18570 0.58270 0.37600 -0.22600
H 	H 	0.24860 0.57860 0.38400 0.10400
C 	C 	0.24600 0.42317 0.41208 0.08600
C 	C 	0.11420 0.53130 0.46550 0.10500
C 	C 	0.06440 0.57030 0.47810 -0.10100
H 	H 	0.03770 0.59120 0.46030 0.04900
C 	C 	0.07020 0.62049 0.33598 -0.19800
C 	C 	0.16300 0.61390 0.34740 0.12500
H 	H 	0.21060 0.63090 0.33540 0.01200
C 	C 	0.99970 0.59520 0.35240 0.23300
H 	H 	0.93710 0.59940 0.34420 -0.02200
C 	C 	0.04350 0.65455 0.30530 0.27700
N 	N 	0.20820 0.45397 0.43803 -0.28900
O 	O 	0.37180 0.24797 0.27532 -0.41600
O 	O 	0.50970 0.25920 0.30245 -0.44300
O 	O 	0.10920 0.67665 0.28885 -0.41500
O 	O 	0.95940 0.66032 0.29626 -0.40900
C 	C 	0.07610 0.76650 0.19889 0.23400
C 	C 	0.11990 0.79632 0.16727 -0.02400
C 	C 	0.20970 0.80699 0.16831 -0.00900
H 	H 	0.24850 0.79610 0.18980 0.06900
C 	C 	0.19160 0.85268 0.10830 0.07000
C 	C 	0.24700 0.83398 0.13803 -0.09700
H 	H 	0.31190 0.83950 0.13800 0.07600
C 	C 	0.05880 0.81470 0.13822 -0.08800
H 	H 	0.99460 0.80770 0.13820 0.10700
C 	C 	0.09570 0.84420 0.10880 -0.06600
H 	H 	0.05570 0.85820 0.08970 0.04100
C 	C 	0.22520 0.88264 0.07586 -0.12700
C 	C 	0.22480 0.86969 0.03453 0.08800
C 	C 	0.28990 0.97700 0.12979 -0.08900
H 	H 	0.29810 0.99550 0.15300 0.06300
C 	C 	0.31460 0.98570 0.08699 0.09800
C 	C 	0.19980 0.82741 0.02139 -0.10100
H 	H 	0.18600 0.80390 0.03900 0.06300
C 	C 	0.25330 0.93811 0.13019 -0.07400
H 	H 	0.23100 0.92310 0.15390 0.05900
C 	C 	0.38310 0.05750 0.10700 0.10300
C 	C 	0.47730 0.06310 0.11850 -0.12800
H 	H 	0.52440 0.04550 0.10680 0.07500
C 	C 	0.36010 0.02439 0.07470 -0.14800
C 	C 	0.31430 0.08270 0.12400 -0.13400
H 	H 	0.25140 0.07860 0.11600 0.06900
C 	C 	0.25400 0.92317 0.08792 0.08200
C 	C 	0.38580 0.03130 0.03450 0.09900
C 	C 	0.43560 0.07030 0.02190 -0.11200
H 	H 	0.46230 0.09120 0.03970 0.05800
C 	C 	0.42980 0.12049 0.16402 -0.08200
C 	C 	0.33700 0.11390 0.15260 0.03400
H 	H 	0.28940 0.13090 0.16460 0.03900
C 	C 	0.50030 0.09520 0.14760 0.02800
H 	H 	0.56290 0.09940 0.15580 0.03900
C 	C 	0.45650 0.15455 0.19470 0.28300
N 	N 	0.29180 0.95397 0.06197 -0.28600
O 	O 	0.12820 0.74797 0.22468 -0.40200
O 	O 	0.99030 0.75920 0.19755 -0.39700
O 	O 	0.39080 0.17665 0.21115 -0.41400
O 	O 	0.54060 0.16032 0.20374 -0.43800
C 	C 	0.57610 0.26650 0.19889 0.30100
C 	C 	0.61990 0.29632 0.16727 -0.08700
C 	C 	0.70970 0.30699 0.16831 0.04400
H 	H 	0.74850 0.29610 0.18980 0.05300
C 	C 	0.69160 0.35268 0.10830 0.11000
C 	C 	0.74700 0.33398 0.13803 -0.13800
H 	H 	0.81190 0.33950 0.13800 0.09400
C 	C 	0.55880 0.31470 0.13822 0.02800
H 	H 	0.49460 0.30770 0.13820 0.04200
C 	C 	0.59570 0.34420 0.10880 -0.12800
H 	H 	0.55570 0.35820 0.08970 0.07000
C 	C 	0.72520 0.38264 0.07586 -0.14000
C 	C 	0.72480 0.36969 0.03453 0.09600
C 	C 	0.78990 0.47700 0.12979 -0.07600
H 	H 	0.79810 0.49550 0.15300 0.06400
C 	C 	0.81460 0.48570 0.08699 0.08500
C 	C 	0.69980 0.32741 0.02139 -0.10100
H 	H 	0.68600 0.30390 0.03900 0.06700
C 	C 	0.75330 0.43811 0.13019 -0.07900
H 	H 	0.73100 0.42310 0.15390 0.06600
C 	C 	0.88310 0.55750 0.10700 0.00600
C 	C 	0.97730 0.56310 0.11850 0.08300
H 	H 	0.02440 0.54550 0.10680 -0.02000
C 	C 	0.86010 0.52439 0.07470 -0.10700
C 	C 	0.81430 0.58270 0.12400 -0.04200
H 	H 	0.75140 0.57860 0.11600 0.04400
C 	C 	0.75400 0.42317 0.08792 0.09200
C 	C 	0.88580 0.53130 0.03450 0.09100
C 	C 	0.93560 0.57030 0.02190 -0.10100
H 	H 	0.96230 0.59120 0.03970 0.06500
C 	C 	0.92980 0.62049 0.16402 0.03500
C 	C 	0.83700 0.61390 0.15260 -0.05400
H 	H 	0.78940 0.63090 0.16460 0.07100
C 	C 	0.00030 0.59520 0.14760 -0.17400
H 	H 	0.06290 0.59940 0.15580 0.10000
C 	C 	0.95650 0.65455 0.19470 0.29000
N 	N 	0.79180 0.45397 0.06197 -0.28200
O 	O 	0.62820 0.24797 0.22468 -0.41300
O 	O 	0.49030 0.25920 0.19755 -0.44500
O 	O 	0.89080 0.67665 0.21115 -0.40700
O 	O 	0.04060 0.66032 0.20374 -0.46500
In	In	0.00000 0.71174 0.25000 1.98700
In	In	0.50000 0.21174 0.25000 1.99600
In	In	0.00000 0.71174 0.75000 1.98700
In	In	0.50000 0.21174 0.75000 1.99600
Co	Co	0.71113 0.95396 0.50000 1.10800
N 	N 	0.75780 0.89600 0.50000 -0.28800
N 	N 	0.64100 0.00840 0.50000 -0.28300
Co	Co	0.21113 0.45396 0.50000 1.10400
N 	N 	0.25780 0.39600 0.50000 -0.28800
N 	N 	0.14100 0.50840 0.50000 -0.29000
Co	Co	0.28887 0.95396 -0.00000 1.10100
N 	N 	0.24220 0.89600 -0.00000 -0.29400
N 	N 	0.35900 0.00840 -0.00000 -0.29200
Co	Co	0.78887 0.45396 -0.00000 1.10400
N 	N 	0.74220 0.39600 -0.00000 -0.29300
N 	N 	0.85900 0.50840 -0.00000 -0.28500
