data_crystal

_cell_length_a 6.73380
_cell_length_b 16.69030
_cell_length_c 16.69030
_cell_angle_alpha 87.66780
_cell_angle_beta  78.36220
_cell_angle_gamma 78.36200

_symmetry_space_group_name_	'P 1'
_symmetry_space_group_name_H-M	'P 1'

loop_
_symmetry_equiv_pos_as_xyz
  x,y,z

loop_
_atom_site_label
_atom_site_type_symbol
_atom_site_fract_x
_atom_site_fract_y
_atom_site_fract_z
_atom_site_charge
Ag	Ag	0.91632 0.89096 0.38256 0.56600
Ag	Ag	0.18984 0.60904 0.11744 0.56500
Ag	Ag	0.29888 0.11744 0.89096 0.56900
Ag	Ag	0.30728 0.38256 0.60904 0.56700
Ag	Ag	0.08368 0.10904 0.61744 0.56600
Ag	Ag	0.81016 0.39096 0.88256 0.56500
Ag	Ag	0.70112 0.88256 0.10904 0.57000
Ag	Ag	0.69272 0.61744 0.39096 0.56800
H 	H 	0.86960 0.76230 0.60090 0.55800
H 	H 	0.66430 0.82490 0.62230 0.54900
H 	H 	0.80920 0.89160 0.62540 -0.41000
H 	H 	0.00910 0.83270 0.58570 -0.39600
H 	H 	0.65300 0.99910 0.53970 0.03300
H 	H 	0.80330 0.01640 0.59480 0.03100
H 	H 	0.15250 0.94610 0.57310 0.05600
H 	H 	0.23680 0.88070 0.50310 0.06500
H 	H 	0.23680 0.72150 0.39030 0.04100
H 	H 	0.36960 0.78910 0.38770 0.04600
H 	H 	0.04200 0.71400 0.29000 0.02800
H 	H 	0.23280 0.73770 0.89910 0.55100
H 	H 	0.11150 0.67510 0.87770 0.54200
H 	H 	0.32620 0.60840 0.87460 -0.40200
H 	H 	0.42750 0.66730 0.91430 -0.39300
H 	H 	0.19180 0.50090 0.96030 0.03600
H 	H 	0.41450 0.48360 0.90520 0.03200
H 	H 	0.67170 0.55390 0.92690 0.05500
H 	H 	0.62060 0.61930 0.99690 0.06400
H 	H 	0.34860 0.77850 0.10970 0.04200
H 	H 	0.54640 0.71090 0.11230 0.04700
H 	H 	0.04600 0.78600 0.21000 0.02700
H 	H 	0.47050 0.89910 0.76230 0.57800
H 	H 	0.28660 0.87770 0.82490 0.56900
H 	H 	0.43460 0.87460 0.89160 -0.42800
H 	H 	0.59480 0.91430 0.83270 -0.42000
H 	H 	0.19270 0.96030 0.99910 0.02900
H 	H 	0.39810 0.90520 0.01640 0.02900
H 	H 	0.72560 0.92690 0.94610 0.05500
H 	H 	0.73990 0.99690 0.88070 0.06400
H 	H 	0.62710 0.10970 0.72150 0.04100
H 	H 	0.75730 0.11230 0.78910 0.04600
H 	H 	0.33200 0.21000 0.71400 0.02800
H 	H 	0.13190 0.60090 0.73770 0.54400
H 	H 	0.98920 0.62230 0.67510 0.53000
H 	H 	0.20080 0.62540 0.60840 -0.39500
H 	H 	0.34180 0.58570 0.66730 -0.38700
H 	H 	0.15210 0.53970 0.50090 0.03700
H 	H 	0.31970 0.59480 0.48360 0.03300
H 	H 	0.59860 0.57310 0.55390 0.05600
H 	H 	0.61750 0.50310 0.61930 0.06500
H 	H 	0.45830 0.39030 0.77850 0.04100
H 	H 	0.65870 0.38770 0.71090 0.04600
H 	H 	0.25600 0.29000 0.78600 0.02800
H 	H 	0.13040 0.23770 0.39910 0.55800
H 	H 	0.33570 0.17510 0.37770 0.54900
H 	H 	0.19080 0.10840 0.37460 -0.41000
H 	H 	0.99090 0.16730 0.41430 -0.39600
H 	H 	0.34700 0.00090 0.46030 0.03300
H 	H 	0.19670 0.98360 0.40520 0.03100
H 	H 	0.84750 0.05390 0.42690 0.05600
H 	H 	0.76320 0.11930 0.49690 0.06500
H 	H 	0.76320 0.27850 0.60970 0.04100
H 	H 	0.63040 0.21090 0.61230 0.04600
H 	H 	0.95800 0.28600 0.71000 0.02800
H 	H 	0.76720 0.26230 0.10090 0.55100
H 	H 	0.88850 0.32490 0.12230 0.54200
H 	H 	0.67380 0.39160 0.12540 -0.40200
H 	H 	0.57250 0.33270 0.08570 -0.39300
H 	H 	0.80820 0.49910 0.03970 0.03600
H 	H 	0.58550 0.51640 0.09480 0.03200
H 	H 	0.32830 0.44610 0.07310 0.05500
H 	H 	0.37940 0.38070 0.00310 0.06400
H 	H 	0.65140 0.22150 0.89030 0.04200
H 	H 	0.45360 0.28910 0.88770 0.04700
H 	H 	0.95400 0.21400 0.79000 0.02700
H 	H 	0.52950 0.10090 0.23770 0.57800
H 	H 	0.71340 0.12230 0.17510 0.56900
H 	H 	0.56540 0.12540 0.10840 -0.42800
H 	H 	0.40520 0.08570 0.16730 -0.42000
H 	H 	0.80730 0.03970 0.00090 0.02900
H 	H 	0.60190 0.09480 0.98360 0.02900
H 	H 	0.27440 0.07310 0.05390 0.05500
H 	H 	0.26010 0.00310 0.11930 0.06400
H 	H 	0.37290 0.89030 0.27850 0.04100
H 	H 	0.24270 0.88770 0.21090 0.04600
H 	H 	0.66800 0.79000 0.28600 0.02800
H 	H 	0.86810 0.39910 0.26230 0.54400
H 	H 	0.01080 0.37770 0.32490 0.53000
H 	H 	0.79920 0.37460 0.39160 -0.39500
H 	H 	0.65820 0.41430 0.33270 -0.38700
H 	H 	0.84790 0.46030 0.49910 0.03700
H 	H 	0.68030 0.40520 0.51640 0.03300
H 	H 	0.40140 0.42690 0.44610 0.05600
H 	H 	0.38250 0.49690 0.38070 0.06500
H 	H 	0.54170 0.60970 0.22150 0.04100
H 	H 	0.34130 0.61230 0.28910 0.04600
H 	H 	0.74400 0.71000 0.21400 0.02800
C 	C 	0.78350 0.80820 0.57880 -1.79100
C 	C 	0.87570 0.86080 0.57580 1.48300
C 	C 	0.79510 0.00240 0.53980 -0.00500
C 	C 	0.14260 0.93250 0.51830 -0.06900
C 	C 	0.32140 0.75390 0.35410 -0.02800
C 	C 	0.17050 0.69180 0.92120 -1.75800
C 	C 	0.31230 0.63920 0.92420 1.46300
C 	C 	0.33730 0.49760 0.96020 -0.00900
C 	C 	0.59340 0.56750 0.98170 -0.07100
C 	C 	0.42940 0.74610 0.14590 -0.02900
C 	C 	0.36230 0.92120 0.80820 -1.85400
C 	C 	0.45150 0.92420 0.86080 1.54900
C 	C 	0.33490 0.96020 0.00240 0.00600
C 	C 	0.66090 0.98170 0.93250 -0.07800
C 	C 	0.67550 0.14590 0.75390 -0.02800
C 	C 	0.09170 0.57880 0.69180 -1.73500
C 	C 	0.23650 0.57580 0.63920 1.44200
C 	C 	0.29750 0.53980 0.49760 -0.01200
C 	C 	0.57510 0.51830 0.56750 -0.07000
C 	C 	0.57530 0.35410 0.74610 -0.02800
C 	C 	0.21650 0.19180 0.42120 -1.79100
C 	C 	0.12430 0.13920 0.42420 1.48300
C 	C 	0.20490 0.99760 0.46020 -0.00500
C 	C 	0.85740 0.06750 0.48170 -0.06900
C 	C 	0.67860 0.24610 0.64590 -0.02800
C 	C 	0.82950 0.30820 0.07880 -1.75800
C 	C 	0.68770 0.36080 0.07580 1.46300
C 	C 	0.66270 0.50240 0.03980 -0.00900
C 	C 	0.40660 0.43250 0.01830 -0.07100
C 	C 	0.57060 0.25390 0.85410 -0.02900
C 	C 	0.63770 0.07880 0.19180 -1.85400
C 	C 	0.54850 0.07580 0.13920 1.54900
C 	C 	0.66510 0.03980 0.99760 0.00600
C 	C 	0.33910 0.01830 0.06750 -0.07800
C 	C 	0.32450 0.85410 0.24610 -0.02800
C 	C 	0.90830 0.42120 0.30820 -1.73500
C 	C 	0.76350 0.42420 0.36080 1.44200
C 	C 	0.70250 0.46020 0.50240 -0.01200
C 	C 	0.42490 0.48170 0.43250 -0.07000
C 	C 	0.42470 0.64590 0.25390 -0.02800
C 	C 	0.12240 0.75000 0.25000 -0.00700
C 	C 	0.37240 0.25000 0.75000 -0.00700
C 	C 	0.87760 0.25000 0.75000 -0.00700
C 	C 	0.62760 0.75000 0.25000 -0.00700
S 	S 	0.68369 0.76272 0.50610 1.01700
S 	S 	0.95251 0.73728 0.99390 0.98500
S 	S 	0.18979 0.99390 0.76272 1.03500
S 	S 	0.94641 0.50610 0.73728 0.99100
S 	S 	0.31631 0.23728 0.49390 1.01700
S 	S 	0.04749 0.26272 0.00610 0.98500
S 	S 	0.81021 0.00610 0.23728 1.03500
S 	S 	0.05359 0.49390 0.26272 0.99100
N 	N 	0.92800 0.92430 0.51710 -0.33300
N 	N 	0.19350 0.80540 0.30100 -0.13700
N 	N 	0.36940 0.57570 0.98290 -0.32800
N 	N 	0.29990 0.69460 0.19900 -0.13700
N 	N 	0.44510 0.98290 0.92430 -0.34100
N 	N 	0.49450 0.19900 0.80540 -0.13700
N 	N 	0.35230 0.51710 0.57570 -0.32500
N 	N 	0.49890 0.30100 0.69460 -0.13700
N 	N 	0.07200 0.07570 0.48290 -0.33300
N 	N 	0.80650 0.19460 0.69900 -0.13700
N 	N 	0.63060 0.42430 0.01710 -0.32800
N 	N 	0.70010 0.30540 0.80100 -0.13700
N 	N 	0.55490 0.01710 0.07570 -0.34100
N 	N 	0.50550 0.80100 0.19460 -0.13700
N 	N 	0.64770 0.48290 0.42430 -0.32500
N 	N 	0.50110 0.69900 0.30540 -0.13700
O 	O 	0.64710 0.82270 0.44110 -0.44000
O 	O 	0.49260 0.74200 0.54500 -0.41300
O 	O 	0.84040 0.69180 0.47900 -0.44900
O 	O 	0.91090 0.67730 0.05890 -0.43000
O 	O 	0.77960 0.75800 0.95500 -0.40800
O 	O 	0.01120 0.80820 0.02100 -0.44100
O 	O 	0.08820 0.05890 0.82270 -0.44300
O 	O 	0.03760 0.95500 0.74200 -0.41500
O 	O 	0.31940 0.02100 0.69180 -0.45300
O 	O 	0.96980 0.44110 0.67730 -0.43500
O 	O 	0.73460 0.54500 0.75800 -0.40800
O 	O 	0.03220 0.47900 0.80820 -0.44100
O 	O 	0.35290 0.17730 0.55890 -0.44000
O 	O 	0.50740 0.25800 0.45500 -0.41300
O 	O 	0.15960 0.30820 0.52100 -0.44900
O 	O 	0.08910 0.32270 0.94110 -0.43000
O 	O 	0.22040 0.24200 0.04500 -0.40800
O 	O 	0.98880 0.19180 0.97900 -0.44100
O 	O 	0.91180 0.94110 0.17730 -0.44300
O 	O 	0.96240 0.04500 0.25800 -0.41500
O 	O 	0.68060 0.97900 0.30820 -0.45300
O 	O 	0.03020 0.55890 0.32270 -0.43500
O 	O 	0.26540 0.45500 0.24200 -0.40800
O 	O 	0.96780 0.52100 0.19180 -0.44100
