data_crystal

_cell_length_a 22.21200
_cell_length_b 31.83200
_cell_length_c 32.44800
_cell_angle_alpha 90.00000
_cell_angle_beta  101.59400
_cell_angle_gamma 90.00000

_symmetry_space_group_name_	'P 1'
_symmetry_space_group_name_H-M	'P 1'

loop_
_symmetry_equiv_pos_as_xyz
  x,y,z

loop_
_atom_site_label
_atom_site_type_symbol
_atom_site_fract_x
_atom_site_fract_y
_atom_site_fract_z
_atom_site_charge
Zn	Zn	0.01348 0.25000 0.29630 1.22100
Zn	Zn	0.48652 0.25000 0.20370 1.22100
H 	H 	0.13863 0.35267 0.32006 0.03800
H 	H 	0.20404 0.41697 0.31981 0.05500
H 	H 	0.16366 0.41475 0.18245 0.05500
H 	H 	0.10196 0.35086 0.18254 0.03600
H 	H 	0.36137 0.35267 0.17994 0.03800
H 	H 	0.29596 0.41697 0.18019 0.05500
H 	H 	0.33634 0.41475 0.31755 0.05500
H 	H 	0.39826 0.35055 0.31725 0.03700
H 	H 	0.36137 0.14733 0.17994 0.03800
H 	H 	0.29596 0.08303 0.18019 0.05500
H 	H 	0.33634 0.08525 0.31755 0.05500
H 	H 	0.39826 0.14945 0.31725 0.03700
H 	H 	0.13863 0.14733 0.32006 0.03800
H 	H 	0.20404 0.08303 0.31981 0.05500
H 	H 	0.16366 0.08525 0.18245 0.05500
H 	H 	0.10196 0.14914 0.18254 0.03700
H 	H 	0.42693 0.25000 0.35025 0.02100
H 	H 	0.42783 0.25000 0.42938 0.04500
H 	H 	0.12133 0.25000 0.37507 0.02000
H 	H 	0.08152 0.25000 0.01286 0.04300
H 	H 	0.07307 0.25000 0.14975 0.02100
H 	H 	0.07217 0.25000 0.07062 0.04500
H 	H 	0.37867 0.25000 0.12493 0.02000
H 	H 	0.41848 0.25000 0.48714 0.04300
C 	C 	0.07760 0.30835 0.25215 0.43000
C 	C 	0.11970 0.34725 0.25195 -0.11400
C 	C 	0.14545 0.36645 0.28890 0.04500
C 	C 	0.17970 0.40245 0.28880 -0.07100
C 	C 	0.18440 0.42095 0.25070 0.06700
C 	C 	0.15800 0.40115 0.21395 -0.07300
C 	C 	0.12510 0.36565 0.21370 0.04400
C 	C 	0.22005 0.46125 0.25155 -0.03400
C 	C 	0.42240 0.30835 0.24785 0.43000
C 	C 	0.38030 0.34725 0.24805 -0.11400
C 	C 	0.35455 0.36645 0.21110 0.04500
C 	C 	0.32030 0.40245 0.21120 -0.07100
C 	C 	0.31560 0.42095 0.24930 0.06700
C 	C 	0.34200 0.40115 0.28605 -0.07300
C 	C 	0.37490 0.36565 0.28630 0.04400
C 	C 	0.27995 0.46125 0.24845 -0.03400
C 	C 	0.42240 0.19165 0.24785 0.43100
C 	C 	0.38030 0.15275 0.24805 -0.11300
C 	C 	0.35455 0.13355 0.21110 0.04600
C 	C 	0.32030 0.09755 0.21120 -0.07000
C 	C 	0.31560 0.07905 0.24930 0.06800
C 	C 	0.34200 0.09885 0.28605 -0.07200
C 	C 	0.37490 0.13435 0.28630 0.04500
C 	C 	0.27995 0.03875 0.24845 -0.03300
C 	C 	0.07760 0.19165 0.25215 0.43100
C 	C 	0.11970 0.15275 0.25195 -0.11300
C 	C 	0.14545 0.13355 0.28890 0.04600
C 	C 	0.17970 0.09755 0.28880 -0.07000
C 	C 	0.18440 0.07905 0.25070 0.06900
C 	C 	0.15800 0.09885 0.21395 -0.07300
C 	C 	0.12510 0.13435 0.21370 0.04600
C 	C 	0.22005 0.03875 0.25155 -0.03300
C 	C 	0.18905 0.00000 0.25160 0.09700
C 	C 	0.31095 0.00000 0.24840 0.09700
C 	C 	0.47250 0.25000 0.37385 0.02700
C 	C 	0.47300 0.25000 0.41780 -0.06400
C 	C 	0.02630 0.25000 0.44830 0.04700
C 	C 	0.07950 0.25000 0.43150 -0.04400
C 	C 	0.07700 0.25000 0.38770 0.04900
C 	C 	0.03350 0.25000 0.49220 -0.05000
C 	C 	0.13700 0.25000 0.45850 0.02300
C 	C 	0.19000 0.25000 0.47700 -0.05400
C 	C 	0.02750 0.25000 0.12615 0.02700
C 	C 	0.02700 0.25000 0.08220 -0.06400
C 	C 	0.47370 0.25000 0.05170 0.04700
C 	C 	0.42050 0.25000 0.06850 -0.04500
C 	C 	0.42300 0.25000 0.11230 0.04900
C 	C 	0.46650 0.25000 0.00780 -0.05000
C 	C 	0.36300 0.25000 0.04150 0.02500
C 	C 	0.31000 0.25000 0.02300 -0.05700
Br	Br	0.10355 0.00000 0.25180 -0.22200
Br	Br	0.39645 0.00000 0.24820 -0.22200
N 	N 	0.02610 0.25000 0.35605 -0.25200
N 	N 	0.47390 0.25000 0.14395 -0.25200
O 	O 	0.07385 0.29520 0.28695 -0.47600
O 	O 	0.05345 0.29490 0.21755 -0.47900
O 	O 	0.42615 0.29520 0.21305 -0.47600
O 	O 	0.44655 0.29490 0.28245 -0.48000
O 	O 	0.42615 0.20480 0.21305 -0.47600
O 	O 	0.44655 0.20510 0.28245 -0.47900
O 	O 	0.07385 0.20480 0.28695 -0.47600
O 	O 	0.05345 0.20510 0.21755 -0.47900
Zn	Zn	0.51348 0.25000 0.29630 1.22200
Zn	Zn	0.98652 0.25000 0.20370 1.22200
H 	H 	0.63863 0.35267 0.32006 0.03900
H 	H 	0.70404 0.41697 0.31981 0.05600
H 	H 	0.66366 0.41475 0.18245 0.05600
H 	H 	0.60196 0.35086 0.18254 0.03700
H 	H 	0.86137 0.35267 0.17994 0.03900
H 	H 	0.79596 0.41697 0.18019 0.05600
H 	H 	0.83634 0.41475 0.31755 0.05600
H 	H 	0.89826 0.35055 0.31725 0.03800
H 	H 	0.86137 0.14733 0.17994 0.03900
H 	H 	0.79596 0.08303 0.18019 0.05600
H 	H 	0.83634 0.08525 0.31755 0.05600
H 	H 	0.89826 0.14945 0.31725 0.03800
H 	H 	0.63863 0.14733 0.32006 0.03900
H 	H 	0.70404 0.08303 0.31981 0.05600
H 	H 	0.66366 0.08525 0.18245 0.05600
H 	H 	0.60196 0.14914 0.18254 0.03700
H 	H 	0.92693 0.25000 0.35025 0.02200
H 	H 	0.92783 0.25000 0.42938 0.04600
H 	H 	0.62133 0.25000 0.37507 0.02100
H 	H 	0.58152 0.25000 0.01286 0.04400
H 	H 	0.57307 0.25000 0.14975 0.02200
H 	H 	0.57217 0.25000 0.07062 0.04600
H 	H 	0.87867 0.25000 0.12493 0.02100
H 	H 	0.91848 0.25000 0.48714 0.04400
C 	C 	0.57760 0.30835 0.25215 0.43100
C 	C 	0.61970 0.34725 0.25195 -0.11300
C 	C 	0.64545 0.36645 0.28890 0.04600
C 	C 	0.67970 0.40245 0.28880 -0.07000
C 	C 	0.68440 0.42095 0.25070 0.06800
C 	C 	0.65800 0.40115 0.21395 -0.07200
C 	C 	0.62510 0.36565 0.21370 0.04500
C 	C 	0.72005 0.46125 0.25155 -0.03300
C 	C 	0.92240 0.30835 0.24785 0.43100
C 	C 	0.88030 0.34725 0.24805 -0.11300
C 	C 	0.85455 0.36645 0.21110 0.04600
C 	C 	0.82030 0.40245 0.21120 -0.07000
C 	C 	0.81560 0.42095 0.24930 0.06800
C 	C 	0.84200 0.40115 0.28605 -0.07200
C 	C 	0.87490 0.36565 0.28630 0.04500
C 	C 	0.77995 0.46125 0.24845 -0.03300
C 	C 	0.92240 0.19165 0.24785 0.43100
C 	C 	0.88030 0.15275 0.24805 -0.11300
C 	C 	0.85455 0.13355 0.21110 0.04600
C 	C 	0.82030 0.09755 0.21120 -0.07000
C 	C 	0.81560 0.07905 0.24930 0.06800
C 	C 	0.84200 0.09885 0.28605 -0.07200
C 	C 	0.87490 0.13435 0.28630 0.04500
C 	C 	0.77995 0.03875 0.24845 -0.03300
C 	C 	0.57760 0.19165 0.25215 0.43100
C 	C 	0.61970 0.15275 0.25195 -0.11300
C 	C 	0.64545 0.13355 0.28890 0.04600
C 	C 	0.67970 0.09755 0.28880 -0.07000
C 	C 	0.68440 0.07905 0.25070 0.06900
C 	C 	0.65800 0.09885 0.21395 -0.07300
C 	C 	0.62510 0.13435 0.21370 0.04600
C 	C 	0.72005 0.03875 0.25155 -0.03300
C 	C 	0.68905 0.00000 0.25160 0.09700
C 	C 	0.81095 0.00000 0.24840 0.09700
C 	C 	0.97250 0.25000 0.37385 0.02700
C 	C 	0.97300 0.25000 0.41780 -0.06400
C 	C 	0.52630 0.25000 0.44830 0.04600
C 	C 	0.57950 0.25000 0.43150 -0.04400
C 	C 	0.57700 0.25000 0.38770 0.04900
C 	C 	0.53350 0.25000 0.49220 -0.05000
C 	C 	0.63700 0.25000 0.45850 0.02300
C 	C 	0.69000 0.25000 0.47700 -0.05400
C 	C 	0.52750 0.25000 0.12615 0.02700
C 	C 	0.52700 0.25000 0.08220 -0.06400
C 	C 	0.97370 0.25000 0.05170 0.04600
C 	C 	0.92050 0.25000 0.06850 -0.04300
C 	C 	0.92300 0.25000 0.11230 0.04900
C 	C 	0.96650 0.25000 0.00780 -0.05000
C 	C 	0.86300 0.25000 0.04150 0.02200
C 	C 	0.81000 0.25000 0.02300 -0.05100
Br	Br	0.60355 0.00000 0.25180 -0.22200
Br	Br	0.89645 0.00000 0.24820 -0.22200
N 	N 	0.52610 0.25000 0.35605 -0.25200
N 	N 	0.97390 0.25000 0.14395 -0.25200
O 	O 	0.57385 0.29520 0.28695 -0.47600
O 	O 	0.55345 0.29490 0.21755 -0.47900
O 	O 	0.92615 0.29520 0.21305 -0.47600
O 	O 	0.94655 0.29490 0.28245 -0.47900
O 	O 	0.92615 0.20480 0.21305 -0.47600
O 	O 	0.94655 0.20510 0.28245 -0.47900
O 	O 	0.57385 0.20480 0.28695 -0.47600
O 	O 	0.55345 0.20510 0.21755 -0.47900
Zn	Zn	0.01348 0.75000 0.29630 1.22200
Zn	Zn	0.48652 0.75000 0.20370 1.22200
H 	H 	0.13863 0.85267 0.32006 0.03800
H 	H 	0.20404 0.91697 0.31981 0.05500
H 	H 	0.16366 0.91475 0.18245 0.05500
H 	H 	0.10196 0.85086 0.18254 0.03700
H 	H 	0.36137 0.85267 0.17994 0.03800
H 	H 	0.29596 0.91697 0.18019 0.05500
H 	H 	0.33634 0.91475 0.31755 0.05500
H 	H 	0.39826 0.85055 0.31725 0.03700
H 	H 	0.36137 0.64733 0.17994 0.03900
H 	H 	0.29596 0.58303 0.18019 0.05600
H 	H 	0.33634 0.58525 0.31755 0.05600
H 	H 	0.39826 0.64945 0.31725 0.03800
H 	H 	0.13863 0.64733 0.32006 0.03900
H 	H 	0.20404 0.58303 0.31981 0.05600
H 	H 	0.16366 0.58525 0.18245 0.05600
H 	H 	0.10196 0.64914 0.18254 0.03700
H 	H 	0.42693 0.75000 0.35025 0.02200
H 	H 	0.42783 0.75000 0.42938 0.04600
H 	H 	0.12133 0.75000 0.37507 0.02100
H 	H 	0.08152 0.75000 0.01286 0.04400
H 	H 	0.07307 0.75000 0.14975 0.02200
H 	H 	0.07217 0.75000 0.07062 0.04600
H 	H 	0.37867 0.75000 0.12493 0.02100
H 	H 	0.41848 0.75000 0.48714 0.04400
C 	C 	0.07760 0.80835 0.25215 0.43100
C 	C 	0.11970 0.84725 0.25195 -0.11300
C 	C 	0.14545 0.86645 0.28890 0.04600
C 	C 	0.17970 0.90245 0.28880 -0.07100
C 	C 	0.18440 0.92095 0.25070 0.06900
C 	C 	0.15800 0.90115 0.21395 -0.07300
C 	C 	0.12510 0.86565 0.21370 0.04500
C 	C 	0.22005 0.96125 0.25155 -0.03700
C 	C 	0.42240 0.80835 0.24785 0.43100
C 	C 	0.38030 0.84725 0.24805 -0.11300
C 	C 	0.35455 0.86645 0.21110 0.04600
C 	C 	0.32030 0.90245 0.21120 -0.07100
C 	C 	0.31560 0.92095 0.24930 0.06800
C 	C 	0.34200 0.90115 0.28605 -0.07300
C 	C 	0.37490 0.86565 0.28630 0.04500
C 	C 	0.27995 0.96125 0.24845 -0.03700
C 	C 	0.42240 0.69165 0.24785 0.43100
C 	C 	0.38030 0.65275 0.24805 -0.11300
C 	C 	0.35455 0.63355 0.21110 0.04600
C 	C 	0.32030 0.59755 0.21120 -0.07000
C 	C 	0.31560 0.57905 0.24930 0.06800
C 	C 	0.34200 0.59885 0.28605 -0.07200
C 	C 	0.37490 0.63435 0.28630 0.04500
C 	C 	0.27995 0.53875 0.24845 -0.03300
C 	C 	0.07760 0.69165 0.25215 0.43100
C 	C 	0.11970 0.65275 0.25195 -0.11300
C 	C 	0.14545 0.63355 0.28890 0.04600
C 	C 	0.17970 0.59755 0.28880 -0.07000
C 	C 	0.18440 0.57905 0.25070 0.06800
C 	C 	0.15800 0.59885 0.21395 -0.07200
C 	C 	0.12510 0.63435 0.21370 0.04500
C 	C 	0.22005 0.53875 0.25155 -0.03300
C 	C 	0.18905 0.50000 0.25160 0.09200
C 	C 	0.31095 0.50000 0.24840 0.09200
C 	C 	0.47250 0.75000 0.37385 0.02700
C 	C 	0.47300 0.75000 0.41780 -0.06400
C 	C 	0.02630 0.75000 0.44830 0.04600
C 	C 	0.07950 0.75000 0.43150 -0.04400
C 	C 	0.07700 0.75000 0.38770 0.04900
C 	C 	0.03350 0.75000 0.49220 -0.05000
C 	C 	0.13700 0.75000 0.45850 0.02300
C 	C 	0.19000 0.75000 0.47700 -0.05400
C 	C 	0.02750 0.75000 0.12615 0.02700
C 	C 	0.02700 0.75000 0.08220 -0.06400
C 	C 	0.47370 0.75000 0.05170 0.04700
C 	C 	0.42050 0.75000 0.06850 -0.04500
C 	C 	0.42300 0.75000 0.11230 0.04900
C 	C 	0.46650 0.75000 0.00780 -0.05000
C 	C 	0.36300 0.75000 0.04150 0.02500
C 	C 	0.31000 0.75000 0.02300 -0.05700
Br	Br	0.10355 0.50000 0.25180 -0.22500
Br	Br	0.39645 0.50000 0.24820 -0.22500
N 	N 	0.02610 0.75000 0.35605 -0.25200
N 	N 	0.47390 0.75000 0.14395 -0.25200
O 	O 	0.07385 0.79520 0.28695 -0.47600
O 	O 	0.05345 0.79490 0.21755 -0.48000
O 	O 	0.42615 0.79520 0.21305 -0.47600
O 	O 	0.44655 0.79490 0.28245 -0.48000
O 	O 	0.42615 0.70480 0.21305 -0.47600
O 	O 	0.44655 0.70510 0.28245 -0.48000
O 	O 	0.07385 0.70480 0.28695 -0.47600
O 	O 	0.05345 0.70510 0.21755 -0.47900
Zn	Zn	0.51348 0.75000 0.29630 1.22200
Zn	Zn	0.98652 0.75000 0.20370 1.22200
H 	H 	0.63863 0.85267 0.32006 0.03800
H 	H 	0.70404 0.91697 0.31981 0.05500
H 	H 	0.66366 0.91475 0.18245 0.05500
H 	H 	0.60196 0.85086 0.18254 0.03700
H 	H 	0.86137 0.85267 0.17994 0.03800
H 	H 	0.79596 0.91697 0.18019 0.05500
H 	H 	0.83634 0.91475 0.31755 0.05500
H 	H 	0.89826 0.85055 0.31725 0.03700
H 	H 	0.86137 0.64733 0.17994 0.03900
H 	H 	0.79596 0.58303 0.18019 0.05600
H 	H 	0.83634 0.58525 0.31755 0.05600
H 	H 	0.89826 0.64945 0.31725 0.03800
H 	H 	0.63863 0.64733 0.32006 0.03900
H 	H 	0.70404 0.58303 0.31981 0.05600
H 	H 	0.66366 0.58525 0.18245 0.05600
H 	H 	0.60196 0.64914 0.18254 0.03700
H 	H 	0.92693 0.75000 0.35025 0.02200
H 	H 	0.92783 0.75000 0.42938 0.04600
H 	H 	0.62133 0.75000 0.37507 0.02100
H 	H 	0.58152 0.75000 0.01286 0.04400
H 	H 	0.57307 0.75000 0.14975 0.02200
H 	H 	0.57217 0.75000 0.07062 0.04600
H 	H 	0.87867 0.75000 0.12493 0.02100
H 	H 	0.91848 0.75000 0.48714 0.04400
C 	C 	0.57760 0.80835 0.25215 0.43100
C 	C 	0.61970 0.84725 0.25195 -0.11300
C 	C 	0.64545 0.86645 0.28890 0.04600
C 	C 	0.67970 0.90245 0.28880 -0.07100
C 	C 	0.68440 0.92095 0.25070 0.06900
C 	C 	0.65800 0.90115 0.21395 -0.07300
C 	C 	0.62510 0.86565 0.21370 0.04500
C 	C 	0.72005 0.96125 0.25155 -0.03700
C 	C 	0.92240 0.80835 0.24785 0.43100
C 	C 	0.88030 0.84725 0.24805 -0.11300
C 	C 	0.85455 0.86645 0.21110 0.04600
C 	C 	0.82030 0.90245 0.21120 -0.07100
C 	C 	0.81560 0.92095 0.24930 0.06800
C 	C 	0.84200 0.90115 0.28605 -0.07300
C 	C 	0.87490 0.86565 0.28630 0.04500
C 	C 	0.77995 0.96125 0.24845 -0.03700
C 	C 	0.92240 0.69165 0.24785 0.43100
C 	C 	0.88030 0.65275 0.24805 -0.11300
C 	C 	0.85455 0.63355 0.21110 0.04600
C 	C 	0.82030 0.59755 0.21120 -0.07000
C 	C 	0.81560 0.57905 0.24930 0.06800
C 	C 	0.84200 0.59885 0.28605 -0.07200
C 	C 	0.87490 0.63435 0.28630 0.04500
C 	C 	0.77995 0.53875 0.24845 -0.03300
C 	C 	0.57760 0.69165 0.25215 0.43100
C 	C 	0.61970 0.65275 0.25195 -0.11300
C 	C 	0.64545 0.63355 0.28890 0.04600
C 	C 	0.67970 0.59755 0.28880 -0.07000
C 	C 	0.68440 0.57905 0.25070 0.06800
C 	C 	0.65800 0.59885 0.21395 -0.07200
C 	C 	0.62510 0.63435 0.21370 0.04500
C 	C 	0.72005 0.53875 0.25155 -0.03300
C 	C 	0.68905 0.50000 0.25160 0.09200
C 	C 	0.81095 0.50000 0.24840 0.09200
C 	C 	0.97250 0.75000 0.37385 0.02700
C 	C 	0.97300 0.75000 0.41780 -0.06400
C 	C 	0.52630 0.75000 0.44830 0.04600
C 	C 	0.57950 0.75000 0.43150 -0.04400
C 	C 	0.57700 0.75000 0.38770 0.04900
C 	C 	0.53350 0.75000 0.49220 -0.05000
C 	C 	0.63700 0.75000 0.45850 0.02300
C 	C 	0.69000 0.75000 0.47700 -0.05400
C 	C 	0.52750 0.75000 0.12615 0.02700
C 	C 	0.52700 0.75000 0.08220 -0.06400
C 	C 	0.97370 0.75000 0.05170 0.04600
C 	C 	0.92050 0.75000 0.06850 -0.04400
C 	C 	0.92300 0.75000 0.11230 0.04900
C 	C 	0.96650 0.75000 0.00780 -0.05000
C 	C 	0.86300 0.75000 0.04150 0.02200
C 	C 	0.81000 0.75000 0.02300 -0.05100
Br	Br	0.60355 0.50000 0.25180 -0.22500
Br	Br	0.89645 0.50000 0.24820 -0.22500
N 	N 	0.52610 0.75000 0.35605 -0.25200
N 	N 	0.97390 0.75000 0.14395 -0.25200
O 	O 	0.57385 0.79520 0.28695 -0.47600
O 	O 	0.55345 0.79490 0.21755 -0.48000
O 	O 	0.92615 0.79520 0.21305 -0.47600
O 	O 	0.94655 0.79490 0.28245 -0.48000
O 	O 	0.92615 0.70480 0.21305 -0.47600
O 	O 	0.94655 0.70510 0.28245 -0.47900
O 	O 	0.57385 0.70480 0.28695 -0.47600
O 	O 	0.55345 0.70510 0.21755 -0.47900
Zn	Zn	0.01348 0.25000 0.79630 1.22200
Zn	Zn	0.48652 0.25000 0.70370 1.22200
H 	H 	0.13863 0.35267 0.82006 0.03900
H 	H 	0.20404 0.41697 0.81981 0.05600
H 	H 	0.16366 0.41475 0.68245 0.05600
H 	H 	0.10196 0.35086 0.68254 0.03700
H 	H 	0.36137 0.35267 0.67994 0.03900
H 	H 	0.29596 0.41697 0.68019 0.05600
H 	H 	0.33634 0.41475 0.81755 0.05600
H 	H 	0.39826 0.35055 0.81725 0.03800
H 	H 	0.36137 0.14733 0.67994 0.03900
H 	H 	0.29596 0.08303 0.68019 0.05600
H 	H 	0.33634 0.08525 0.81755 0.05600
H 	H 	0.39826 0.14945 0.81725 0.03800
H 	H 	0.13863 0.14733 0.82006 0.03900
H 	H 	0.20404 0.08303 0.81981 0.05600
H 	H 	0.16366 0.08525 0.68245 0.05600
H 	H 	0.10196 0.14914 0.68254 0.03800
H 	H 	0.42693 0.25000 0.85025 0.02200
H 	H 	0.42783 0.25000 0.92938 0.04600
H 	H 	0.12133 0.25000 0.87507 0.02100
H 	H 	0.08152 0.25000 0.51286 0.04400
H 	H 	0.07307 0.25000 0.64975 0.02200
H 	H 	0.07217 0.25000 0.57062 0.04600
H 	H 	0.37867 0.25000 0.62493 0.02100
H 	H 	0.41848 0.25000 0.98714 0.04400
C 	C 	0.07760 0.30835 0.75215 0.43100
C 	C 	0.11970 0.34725 0.75195 -0.11300
C 	C 	0.14545 0.36645 0.78890 0.04600
C 	C 	0.17970 0.40245 0.78880 -0.07000
C 	C 	0.18440 0.42095 0.75070 0.06800
C 	C 	0.15800 0.40115 0.71395 -0.07200
C 	C 	0.12510 0.36565 0.71370 0.04500
C 	C 	0.22005 0.46125 0.75155 -0.03300
C 	C 	0.42240 0.30835 0.74785 0.43100
C 	C 	0.38030 0.34725 0.74805 -0.11300
C 	C 	0.35455 0.36645 0.71110 0.04600
C 	C 	0.32030 0.40245 0.71120 -0.07000
C 	C 	0.31560 0.42095 0.74930 0.06800
C 	C 	0.34200 0.40115 0.78605 -0.07200
C 	C 	0.37490 0.36565 0.78630 0.04500
C 	C 	0.27995 0.46125 0.74845 -0.03300
C 	C 	0.42240 0.19165 0.74785 0.43100
C 	C 	0.38030 0.15275 0.74805 -0.11300
C 	C 	0.35455 0.13355 0.71110 0.04600
C 	C 	0.32030 0.09755 0.71120 -0.07000
C 	C 	0.31560 0.07905 0.74930 0.06800
C 	C 	0.34200 0.09885 0.78605 -0.07200
C 	C 	0.37490 0.13435 0.78630 0.04500
C 	C 	0.27995 0.03875 0.74845 -0.03300
C 	C 	0.07760 0.19165 0.75215 0.43100
C 	C 	0.11970 0.15275 0.75195 -0.11300
C 	C 	0.14545 0.13355 0.78890 0.04600
C 	C 	0.17970 0.09755 0.78880 -0.07000
C 	C 	0.18440 0.07905 0.75070 0.06900
C 	C 	0.15800 0.09885 0.71395 -0.07300
C 	C 	0.12510 0.13435 0.71370 0.04600
C 	C 	0.22005 0.03875 0.75155 -0.03300
C 	C 	0.18905 0.00000 0.75160 0.09700
C 	C 	0.31095 0.00000 0.74840 0.09700
C 	C 	0.47250 0.25000 0.87385 0.02700
C 	C 	0.47300 0.25000 0.91780 -0.06400
C 	C 	0.02630 0.25000 0.94830 0.04600
C 	C 	0.07950 0.25000 0.93150 -0.04300
C 	C 	0.07700 0.25000 0.88770 0.04900
C 	C 	0.03350 0.25000 0.99220 -0.05000
C 	C 	0.13700 0.25000 0.95850 0.02200
C 	C 	0.19000 0.25000 0.97700 -0.05100
C 	C 	0.02750 0.25000 0.62615 0.02700
C 	C 	0.02700 0.25000 0.58220 -0.06400
C 	C 	0.47370 0.25000 0.55170 0.04600
C 	C 	0.42050 0.25000 0.56850 -0.04400
C 	C 	0.42300 0.25000 0.61230 0.04900
C 	C 	0.46650 0.25000 0.50780 -0.05000
C 	C 	0.36300 0.25000 0.54150 0.02300
C 	C 	0.31000 0.25000 0.52300 -0.05400
Br	Br	0.10355 -0.00000 0.75180 -0.22200
Br	Br	0.39645 0.00000 0.74820 -0.22200
N 	N 	0.02610 0.25000 0.85605 -0.25200
N 	N 	0.47390 0.25000 0.64395 -0.25200
O 	O 	0.07385 0.29520 0.78695 -0.47600
O 	O 	0.05345 0.29490 0.71755 -0.47900
O 	O 	0.42615 0.29520 0.71305 -0.47600
O 	O 	0.44655 0.29490 0.78245 -0.48000
O 	O 	0.42615 0.20480 0.71305 -0.47600
O 	O 	0.44655 0.20510 0.78245 -0.47900
O 	O 	0.07385 0.20480 0.78695 -0.47600
O 	O 	0.05345 0.20510 0.71755 -0.47900
Zn	Zn	0.51348 0.25000 0.79630 1.22200
Zn	Zn	0.98652 0.25000 0.70370 1.22200
H 	H 	0.63863 0.35267 0.82006 0.03900
H 	H 	0.70404 0.41697 0.81981 0.05600
H 	H 	0.66366 0.41475 0.68245 0.05600
H 	H 	0.60196 0.35086 0.68254 0.03700
H 	H 	0.86137 0.35267 0.67994 0.03900
H 	H 	0.79596 0.41697 0.68019 0.05600
H 	H 	0.83634 0.41475 0.81755 0.05600
H 	H 	0.89826 0.35055 0.81725 0.03800
H 	H 	0.86137 0.14733 0.67994 0.03900
H 	H 	0.79596 0.08303 0.68019 0.05600
H 	H 	0.83634 0.08525 0.81755 0.05600
H 	H 	0.89826 0.14945 0.81725 0.03800
H 	H 	0.63863 0.14733 0.82006 0.03900
H 	H 	0.70404 0.08303 0.81981 0.05600
H 	H 	0.66366 0.08525 0.68245 0.05600
H 	H 	0.60196 0.14914 0.68254 0.03700
H 	H 	0.92693 0.25000 0.85025 0.02200
H 	H 	0.92783 0.25000 0.92938 0.04600
H 	H 	0.62133 0.25000 0.87507 0.02100
H 	H 	0.58152 0.25000 0.51286 0.04400
H 	H 	0.57307 0.25000 0.64975 0.02200
H 	H 	0.57217 0.25000 0.57062 0.04600
H 	H 	0.87867 0.25000 0.62493 0.02100
H 	H 	0.91848 0.25000 0.98714 0.04400
C 	C 	0.57760 0.30835 0.75215 0.43100
C 	C 	0.61970 0.34725 0.75195 -0.11300
C 	C 	0.64545 0.36645 0.78890 0.04600
C 	C 	0.67970 0.40245 0.78880 -0.07000
C 	C 	0.68440 0.42095 0.75070 0.06800
C 	C 	0.65800 0.40115 0.71395 -0.07200
C 	C 	0.62510 0.36565 0.71370 0.04500
C 	C 	0.72005 0.46125 0.75155 -0.03300
C 	C 	0.92240 0.30835 0.74785 0.43100
C 	C 	0.88030 0.34725 0.74805 -0.11300
C 	C 	0.85455 0.36645 0.71110 0.04600
C 	C 	0.82030 0.40245 0.71120 -0.07000
C 	C 	0.81560 0.42095 0.74930 0.06800
C 	C 	0.84200 0.40115 0.78605 -0.07200
C 	C 	0.87490 0.36565 0.78630 0.04500
C 	C 	0.77995 0.46125 0.74845 -0.03300
C 	C 	0.92240 0.19165 0.74785 0.43100
C 	C 	0.88030 0.15275 0.74805 -0.11300
C 	C 	0.85455 0.13355 0.71110 0.04600
C 	C 	0.82030 0.09755 0.71120 -0.07000
C 	C 	0.81560 0.07905 0.74930 0.06800
C 	C 	0.84200 0.09885 0.78605 -0.07200
C 	C 	0.87490 0.13435 0.78630 0.04500
C 	C 	0.77995 0.03875 0.74845 -0.03300
C 	C 	0.57760 0.19165 0.75215 0.43100
C 	C 	0.61970 0.15275 0.75195 -0.11300
C 	C 	0.64545 0.13355 0.78890 0.04600
C 	C 	0.67970 0.09755 0.78880 -0.07000
C 	C 	0.68440 0.07905 0.75070 0.06900
C 	C 	0.65800 0.09885 0.71395 -0.07300
C 	C 	0.62510 0.13435 0.71370 0.04600
C 	C 	0.72005 0.03875 0.75155 -0.03300
C 	C 	0.68905 0.00000 0.75160 0.09700
C 	C 	0.81095 0.00000 0.74840 0.09700
C 	C 	0.97250 0.25000 0.87385 0.02700
C 	C 	0.97300 0.25000 0.91780 -0.06400
C 	C 	0.52630 0.25000 0.94830 0.04700
C 	C 	0.57950 0.25000 0.93150 -0.04500
C 	C 	0.57700 0.25000 0.88770 0.04900
C 	C 	0.53350 0.25000 0.99220 -0.05000
C 	C 	0.63700 0.25000 0.95850 0.02500
C 	C 	0.69000 0.25000 0.97700 -0.05700
C 	C 	0.52750 0.25000 0.62615 0.02700
C 	C 	0.52700 0.25000 0.58220 -0.06400
C 	C 	0.97370 0.25000 0.55170 0.04700
C 	C 	0.92050 0.25000 0.56850 -0.04400
C 	C 	0.92300 0.25000 0.61230 0.04900
C 	C 	0.96650 0.25000 0.50780 -0.05000
C 	C 	0.86300 0.25000 0.54150 0.02300
C 	C 	0.81000 0.25000 0.52300 -0.05400
Br	Br	0.60355 -0.00000 0.75180 -0.22200
Br	Br	0.89645 0.00000 0.74820 -0.22200
N 	N 	0.52610 0.25000 0.85605 -0.25200
N 	N 	0.97390 0.25000 0.64395 -0.25200
O 	O 	0.57385 0.29520 0.78695 -0.47600
O 	O 	0.55345 0.29490 0.71755 -0.47900
O 	O 	0.92615 0.29520 0.71305 -0.47600
O 	O 	0.94655 0.29490 0.78245 -0.47900
O 	O 	0.92615 0.20480 0.71305 -0.47600
O 	O 	0.94655 0.20510 0.78245 -0.47900
O 	O 	0.57385 0.20480 0.78695 -0.47600
O 	O 	0.55345 0.20510 0.71755 -0.47900
Zn	Zn	0.01348 0.75000 0.79630 1.22200
Zn	Zn	0.48652 0.75000 0.70370 1.22200
H 	H 	0.13863 0.85267 0.82006 0.03800
H 	H 	0.20404 0.91697 0.81981 0.05500
H 	H 	0.16366 0.91475 0.68245 0.05500
H 	H 	0.10196 0.85086 0.68254 0.03700
H 	H 	0.36137 0.85267 0.67994 0.03800
H 	H 	0.29596 0.91697 0.68019 0.05500
H 	H 	0.33634 0.91475 0.81755 0.05500
H 	H 	0.39826 0.85055 0.81725 0.03700
H 	H 	0.36137 0.64733 0.67994 0.03900
H 	H 	0.29596 0.58303 0.68019 0.05600
H 	H 	0.33634 0.58525 0.81755 0.05600
H 	H 	0.39826 0.64945 0.81725 0.03800
H 	H 	0.13863 0.64733 0.82006 0.03900
H 	H 	0.20404 0.58303 0.81981 0.05600
H 	H 	0.16366 0.58525 0.68245 0.05600
H 	H 	0.10196 0.64914 0.68254 0.03700
H 	H 	0.42693 0.75000 0.85025 0.02200
H 	H 	0.42783 0.75000 0.92938 0.04600
H 	H 	0.12133 0.75000 0.87507 0.02100
H 	H 	0.08152 0.75000 0.51286 0.04400
H 	H 	0.07307 0.75000 0.64975 0.02200
H 	H 	0.07217 0.75000 0.57062 0.04600
H 	H 	0.37867 0.75000 0.62493 0.02100
H 	H 	0.41848 0.75000 0.98714 0.04400
C 	C 	0.07760 0.80835 0.75215 0.43100
C 	C 	0.11970 0.84725 0.75195 -0.11300
C 	C 	0.14545 0.86645 0.78890 0.04600
C 	C 	0.17970 0.90245 0.78880 -0.07100
C 	C 	0.18440 0.92095 0.75070 0.06900
C 	C 	0.15800 0.90115 0.71395 -0.07300
C 	C 	0.12510 0.86565 0.71370 0.04500
C 	C 	0.22005 0.96125 0.75155 -0.03700
C 	C 	0.42240 0.80835 0.74785 0.43100
C 	C 	0.38030 0.84725 0.74805 -0.11300
C 	C 	0.35455 0.86645 0.71110 0.04600
C 	C 	0.32030 0.90245 0.71120 -0.07100
C 	C 	0.31560 0.92095 0.74930 0.06800
C 	C 	0.34200 0.90115 0.78605 -0.07300
C 	C 	0.37490 0.86565 0.78630 0.04500
C 	C 	0.27995 0.96125 0.74845 -0.03700
C 	C 	0.42240 0.69165 0.74785 0.43100
C 	C 	0.38030 0.65275 0.74805 -0.11300
C 	C 	0.35455 0.63355 0.71110 0.04600
C 	C 	0.32030 0.59755 0.71120 -0.07000
C 	C 	0.31560 0.57905 0.74930 0.06800
C 	C 	0.34200 0.59885 0.78605 -0.07200
C 	C 	0.37490 0.63435 0.78630 0.04500
C 	C 	0.27995 0.53875 0.74845 -0.03300
C 	C 	0.07760 0.69165 0.75215 0.43100
C 	C 	0.11970 0.65275 0.75195 -0.11300
C 	C 	0.14545 0.63355 0.78890 0.04600
C 	C 	0.17970 0.59755 0.78880 -0.07000
C 	C 	0.18440 0.57905 0.75070 0.06800
C 	C 	0.15800 0.59885 0.71395 -0.07200
C 	C 	0.12510 0.63435 0.71370 0.04500
C 	C 	0.22005 0.53875 0.75155 -0.03300
C 	C 	0.18905 0.50000 0.75160 0.09200
C 	C 	0.31095 0.50000 0.74840 0.09200
C 	C 	0.47250 0.75000 0.87385 0.02700
C 	C 	0.47300 0.75000 0.91780 -0.06400
C 	C 	0.02630 0.75000 0.94830 0.04600
C 	C 	0.07950 0.75000 0.93150 -0.04400
C 	C 	0.07700 0.75000 0.88770 0.04900
C 	C 	0.03350 0.75000 0.99220 -0.05000
C 	C 	0.13700 0.75000 0.95850 0.02200
C 	C 	0.19000 0.75000 0.97700 -0.05100
C 	C 	0.02750 0.75000 0.62615 0.02700
C 	C 	0.02700 0.75000 0.58220 -0.06400
C 	C 	0.47370 0.75000 0.55170 0.04600
C 	C 	0.42050 0.75000 0.56850 -0.04400
C 	C 	0.42300 0.75000 0.61230 0.04900
C 	C 	0.46650 0.75000 0.50780 -0.05000
C 	C 	0.36300 0.75000 0.54150 0.02300
C 	C 	0.31000 0.75000 0.52300 -0.05400
Br	Br	0.10355 0.50000 0.75180 -0.22500
Br	Br	0.39645 0.50000 0.74820 -0.22500
N 	N 	0.02610 0.75000 0.85605 -0.25200
N 	N 	0.47390 0.75000 0.64395 -0.25200
O 	O 	0.07385 0.79520 0.78695 -0.47600
O 	O 	0.05345 0.79490 0.71755 -0.48000
O 	O 	0.42615 0.79520 0.71305 -0.47600
O 	O 	0.44655 0.79490 0.78245 -0.48000
O 	O 	0.42615 0.70480 0.71305 -0.47600
O 	O 	0.44655 0.70510 0.78245 -0.48000
O 	O 	0.07385 0.70480 0.78695 -0.47600
O 	O 	0.05345 0.70510 0.71755 -0.47900
Zn	Zn	0.51348 0.75000 0.79630 1.22200
Zn	Zn	0.98652 0.75000 0.70370 1.22200
H 	H 	0.63863 0.85267 0.82006 0.03800
H 	H 	0.70404 0.91697 0.81981 0.05500
H 	H 	0.66366 0.91475 0.68245 0.05500
H 	H 	0.60196 0.85086 0.68254 0.03700
H 	H 	0.86137 0.85267 0.67994 0.03800
H 	H 	0.79596 0.91697 0.68019 0.05500
H 	H 	0.83634 0.91475 0.81755 0.05500
H 	H 	0.89826 0.85055 0.81725 0.03700
H 	H 	0.86137 0.64733 0.67994 0.03900
H 	H 	0.79596 0.58303 0.68019 0.05600
H 	H 	0.83634 0.58525 0.81755 0.05600
H 	H 	0.89826 0.64945 0.81725 0.03800
H 	H 	0.63863 0.64733 0.82006 0.03900
H 	H 	0.70404 0.58303 0.81981 0.05600
H 	H 	0.66366 0.58525 0.68245 0.05600
H 	H 	0.60196 0.64914 0.68254 0.03700
H 	H 	0.92693 0.75000 0.85025 0.02200
H 	H 	0.92783 0.75000 0.92938 0.04600
H 	H 	0.62133 0.75000 0.87507 0.02100
H 	H 	0.58152 0.75000 0.51286 0.04400
H 	H 	0.57307 0.75000 0.64975 0.02200
H 	H 	0.57217 0.75000 0.57062 0.04600
H 	H 	0.87867 0.75000 0.62493 0.02100
H 	H 	0.91848 0.75000 0.98714 0.04400
C 	C 	0.57760 0.80835 0.75215 0.43100
C 	C 	0.61970 0.84725 0.75195 -0.11300
C 	C 	0.64545 0.86645 0.78890 0.04600
C 	C 	0.67970 0.90245 0.78880 -0.07100
C 	C 	0.68440 0.92095 0.75070 0.06900
C 	C 	0.65800 0.90115 0.71395 -0.07300
C 	C 	0.62510 0.86565 0.71370 0.04500
C 	C 	0.72005 0.96125 0.75155 -0.03700
C 	C 	0.92240 0.80835 0.74785 0.43100
C 	C 	0.88030 0.84725 0.74805 -0.11300
C 	C 	0.85455 0.86645 0.71110 0.04600
C 	C 	0.82030 0.90245 0.71120 -0.07100
C 	C 	0.81560 0.92095 0.74930 0.06800
C 	C 	0.84200 0.90115 0.78605 -0.07300
C 	C 	0.87490 0.86565 0.78630 0.04500
C 	C 	0.77995 0.96125 0.74845 -0.03700
C 	C 	0.92240 0.69165 0.74785 0.43100
C 	C 	0.88030 0.65275 0.74805 -0.11300
C 	C 	0.85455 0.63355 0.71110 0.04600
C 	C 	0.82030 0.59755 0.71120 -0.07000
C 	C 	0.81560 0.57905 0.74930 0.06800
C 	C 	0.84200 0.59885 0.78605 -0.07200
C 	C 	0.87490 0.63435 0.78630 0.04500
C 	C 	0.77995 0.53875 0.74845 -0.03300
C 	C 	0.57760 0.69165 0.75215 0.43100
C 	C 	0.61970 0.65275 0.75195 -0.11300
C 	C 	0.64545 0.63355 0.78890 0.04600
C 	C 	0.67970 0.59755 0.78880 -0.07000
C 	C 	0.68440 0.57905 0.75070 0.06800
C 	C 	0.65800 0.59885 0.71395 -0.07200
C 	C 	0.62510 0.63435 0.71370 0.04500
C 	C 	0.72005 0.53875 0.75155 -0.03300
C 	C 	0.68905 0.50000 0.75160 0.09200
C 	C 	0.81095 0.50000 0.74840 0.09200
C 	C 	0.97250 0.75000 0.87385 0.02700
C 	C 	0.97300 0.75000 0.91780 -0.06400
C 	C 	0.52630 0.75000 0.94830 0.04700
C 	C 	0.57950 0.75000 0.93150 -0.04500
C 	C 	0.57700 0.75000 0.88770 0.04900
C 	C 	0.53350 0.75000 0.99220 -0.05000
C 	C 	0.63700 0.75000 0.95850 0.02500
C 	C 	0.69000 0.75000 0.97700 -0.05700
C 	C 	0.52750 0.75000 0.62615 0.02700
C 	C 	0.52700 0.75000 0.58220 -0.06400
C 	C 	0.97370 0.75000 0.55170 0.04600
C 	C 	0.92050 0.75000 0.56850 -0.04400
C 	C 	0.92300 0.75000 0.61230 0.04900
C 	C 	0.96650 0.75000 0.50780 -0.05000
C 	C 	0.86300 0.75000 0.54150 0.02300
C 	C 	0.81000 0.75000 0.52300 -0.05400
Br	Br	0.60355 0.50000 0.75180 -0.22500
Br	Br	0.89645 0.50000 0.74820 -0.22500
N 	N 	0.52610 0.75000 0.85605 -0.25200
N 	N 	0.97390 0.75000 0.64395 -0.25200
O 	O 	0.57385 0.79520 0.78695 -0.47600
O 	O 	0.55345 0.79490 0.71755 -0.48000
O 	O 	0.92615 0.79520 0.71305 -0.47600
O 	O 	0.94655 0.79490 0.78245 -0.48000
O 	O 	0.92615 0.70480 0.71305 -0.47600
O 	O 	0.94655 0.70510 0.78245 -0.47900
O 	O 	0.57385 0.70480 0.78695 -0.47600
O 	O 	0.55345 0.70510 0.71755 -0.47900
H 	H 	0.23997 0.25000 0.49444 0.02900
H 	H 	0.26003 0.25000 0.00556 0.03400
H 	H 	0.73997 0.25000 0.49444 0.02900
H 	H 	0.76003 0.25000 0.00556 0.02400
H 	H 	0.23997 0.75000 0.49444 0.02900
H 	H 	0.26003 0.75000 0.00556 0.03400
H 	H 	0.73997 0.75000 0.49444 0.02900
H 	H 	0.76003 0.75000 0.00556 0.02400
H 	H 	0.23997 0.25000 0.99444 0.02400
H 	H 	0.26003 0.25000 0.50556 0.02900
H 	H 	0.73997 0.25000 0.99444 0.03400
H 	H 	0.76003 0.25000 0.50556 0.02900
H 	H 	0.23997 0.75000 0.99444 0.02400
H 	H 	0.26003 0.75000 0.50556 0.02900
H 	H 	0.73997 0.75000 0.99444 0.03400
H 	H 	0.76003 0.75000 0.50556 0.02900
