data_crystal

_cell_length_a 34.66330
_cell_length_b 15.31990
_cell_length_c 32.20570
_cell_angle_alpha 90.00000
_cell_angle_beta  103.83700
_cell_angle_gamma 90.00000

_symmetry_space_group_name_	'P 1'
_symmetry_space_group_name_H-M	'P 1'

loop_
_symmetry_equiv_pos_as_xyz
  x,y,z

loop_
_atom_site_label
_atom_site_type_symbol
_atom_site_fract_x
_atom_site_fract_y
_atom_site_fract_z
_atom_site_charge
Br	Br	0.14602 0.42695 0.99541 -0.43000
Br	Br	0.10968 0.26500 0.09292 -0.44700
Br	Br	0.99064 0.10640 0.87131 -0.42000
Br	Br	0.89435 0.22530 0.92411 -0.44200
C 	C 	0.06140 0.54170 0.02780 0.09100
H 	H 	0.07340 0.54120 0.00490 -0.00700
C 	C 	0.02880 0.59770 0.02580 -0.12900
H 	H 	0.01920 0.63170 0.00160 0.08700
C 	C 	0.01130 0.60200 0.05970 0.05900
C 	C 	0.02720 0.54830 0.09570 -0.12900
H 	H 	0.01710 0.55040 0.11990 0.08800
C 	C 	0.05690 0.49500 0.09380 0.07500
H 	H 	0.06580 0.45750 0.11680 -0.01200
C 	C 	0.97950 0.66390 0.05940 0.09500
C 	C 	0.94650 0.78660 0.03230 0.09800
C 	C 	0.92760 0.71070 0.08420 0.10900
C 	C 	0.94330 0.86370 0.00330 0.07000
C 	C 	0.97300 0.88230 0.98320 -0.13200
H 	H 	0.99600 0.84860 0.98900 0.08100
C 	C 	0.96940 0.94850 0.95520 0.07600
H 	H 	0.98940 0.95820 0.94100 -0.00400
C 	C 	0.90880 0.98700 0.96900 0.08500
H 	H 	0.88740 0.02510 0.96530 -0.01100
C 	C 	0.91050 0.91870 0.99620 -0.12900
H 	H 	0.89010 0.90880 0.00980 0.09300
C 	C 	0.83640 0.71570 0.12960 0.08800
H 	H 	0.81180 0.74340 0.12400 -0.00800
C 	C 	0.86210 0.73420 0.10210 -0.12800
H 	H 	0.85420 0.77070 0.07850 0.09600
C 	C 	0.89920 0.69550 0.11190 0.08300
C 	C 	0.90970 0.64070 0.14690 -0.14000
H 	H 	0.93480 0.61520 0.15460 0.09500
C 	C 	0.88180 0.62540 0.16960 0.09400
H 	H 	0.88840 0.58620 0.19220 -0.02300
C 	C 	0.80700 0.88990 0.75520 0.09700
C 	C 	0.78760 0.76280 0.72120 0.10600
C 	C 	0.75450 0.88600 0.69980 0.09900
C 	C 	0.85770 0.06970 0.82510 0.09200
H 	H 	0.85480 0.12970 0.82730 0.00600
C 	C 	0.83190 0.02640 0.79310 -0.15600
H 	H 	0.81200 0.05680 0.77410 0.10800
C 	C 	0.83530 0.94020 0.78930 0.09500
C 	C 	0.86520 0.89700 0.81740 -0.15700
H 	H 	0.86840 0.83710 0.81540 0.11600
C 	C 	0.89000 0.94480 0.84830 0.11200
H 	H 	0.91040 0.91530 0.86710 -0.00800
C 	C 	0.82580 0.53230 0.73840 0.09100
H 	H 	0.84580 0.50220 0.75740 -0.02000
C 	C 	0.82330 0.62380 0.74350 -0.15000
H 	H 	0.84210 0.65340 0.76410 0.09800
C 	C 	0.79340 0.66580 0.71800 0.08700
C 	C 	0.76520 0.61690 0.68650 -0.15500
H 	H 	0.74380 0.64430 0.66830 0.10300
C 	C 	0.77090 0.53110 0.68430 0.10500
H 	H 	0.75210 0.49930 0.66470 -0.02000
C 	C 	0.72190 0.93550 0.66890 0.07700
C 	C 	0.69540 0.89010 0.63630 -0.13800
H 	H 	0.69720 0.83000 0.63350 0.10900
C 	C 	0.66710 0.93750 0.60890 0.09700
H 	H 	0.64890 0.90700 0.58790 0.00100
C 	C 	0.68880 0.06610 0.64220 0.07200
H 	H 	0.68620 0.12610 0.64490 0.01100
C 	C 	0.71850 0.02260 0.67120 -0.13600
H 	H 	0.73620 0.05370 0.69230 0.10300
N 	N 	0.07570 0.49050 0.06020 -0.27600
N 	N 	0.84540 0.66210 0.16210 -0.27800
N 	N 	0.93680 0.00210 0.94700 -0.27000
N 	N 	0.92060 0.77860 0.05710 -0.12900
N 	N 	0.95720 0.65300 0.08710 -0.13300
N 	N 	0.97540 0.73080 0.03130 -0.14300
N 	N 	0.88730 0.02970 0.85370 -0.27600
N 	N 	0.80150 0.48750 0.70820 -0.27600
N 	N 	0.66330 0.02340 0.60970 -0.27600
N 	N 	0.77740 0.93290 0.73060 -0.14100
N 	N 	0.81430 0.80320 0.75250 -0.12700
N 	N 	0.75800 0.79990 0.69380 -0.13100
Zn	Zn	0.12339 0.41110 0.06401 1.17900
Zn	Zn	0.92840 0.09592 0.90011 1.17600
Zn	Zn	0.80890 0.35373 0.70261 1.19500
Br	Br	0.73576 0.30190 0.65284 0.04700
Br	Br	0.86138 0.31750 0.78314 0.07200
Br	Br	0.75117 0.27579 0.68093 -0.51300
Br	Br	0.83593 0.28920 0.76957 -0.52500
Br	Br	0.64602 0.92695 0.99541 -0.42800
Br	Br	0.60968 0.76500 0.09292 -0.44600
Br	Br	0.49064 0.60640 0.87131 -0.41900
Br	Br	0.39435 0.72530 0.92411 -0.44100
C 	C 	0.56140 0.04170 0.02780 0.09200
H 	H 	0.57340 0.04120 0.00490 -0.00600
C 	C 	0.52880 0.09770 0.02580 -0.12800
H 	H 	0.51920 0.13170 0.00160 0.08800
C 	C 	0.51130 0.10200 0.05970 0.06000
C 	C 	0.52720 0.04830 0.09570 -0.12800
H 	H 	0.51710 0.05040 0.11990 0.08800
C 	C 	0.55690 0.99500 0.09380 0.07500
H 	H 	0.56580 0.95750 0.11680 -0.01200
C 	C 	0.47950 0.16390 0.05940 0.09500
C 	C 	0.44650 0.28660 0.03230 0.09800
C 	C 	0.42760 0.21070 0.08420 0.10900
C 	C 	0.44330 0.36370 0.00330 0.07100
C 	C 	0.47300 0.38230 0.98320 -0.13200
H 	H 	0.49600 0.34860 0.98900 0.08100
C 	C 	0.46940 0.44850 0.95520 0.07600
H 	H 	0.48940 0.45820 0.94100 -0.00400
C 	C 	0.40880 0.48700 0.96900 0.08400
H 	H 	0.38740 0.52510 0.96530 -0.01000
C 	C 	0.41050 0.41870 0.99620 -0.13000
H 	H 	0.39010 0.40880 0.00980 0.09300
C 	C 	0.33640 0.21570 0.12960 0.08800
H 	H 	0.31180 0.24340 0.12400 -0.00800
C 	C 	0.36210 0.23420 0.10210 -0.12800
H 	H 	0.35420 0.27070 0.07850 0.09600
C 	C 	0.39920 0.19550 0.11190 0.08300
C 	C 	0.40970 0.14070 0.14690 -0.14000
H 	H 	0.43480 0.11520 0.15460 0.09500
C 	C 	0.38180 0.12540 0.16960 0.09400
H 	H 	0.38840 0.08620 0.19220 -0.02300
C 	C 	0.30700 0.38990 0.75520 0.09700
C 	C 	0.28760 0.26280 0.72120 0.10600
C 	C 	0.25450 0.38600 0.69980 0.09900
C 	C 	0.35770 0.56970 0.82510 0.09200
H 	H 	0.35480 0.62970 0.82730 0.00600
C 	C 	0.33190 0.52640 0.79310 -0.15600
H 	H 	0.31200 0.55680 0.77410 0.10700
C 	C 	0.33530 0.44020 0.78930 0.09500
C 	C 	0.36520 0.39700 0.81740 -0.15700
H 	H 	0.36840 0.33710 0.81540 0.11600
C 	C 	0.39000 0.44480 0.84830 0.11100
H 	H 	0.41040 0.41530 0.86710 -0.00800
C 	C 	0.32580 0.03230 0.73840 0.09100
H 	H 	0.34580 0.00220 0.75740 -0.02000
C 	C 	0.32330 0.12380 0.74350 -0.15000
H 	H 	0.34210 0.15340 0.76410 0.09800
C 	C 	0.29340 0.16580 0.71800 0.08700
C 	C 	0.26520 0.11690 0.68650 -0.15500
H 	H 	0.24380 0.14430 0.66830 0.10200
C 	C 	0.27090 0.03110 0.68430 0.10400
H 	H 	0.25210 0.99930 0.66470 -0.01900
C 	C 	0.22190 0.43550 0.66890 0.07700
C 	C 	0.19540 0.39010 0.63630 -0.13800
H 	H 	0.19720 0.33000 0.63350 0.10900
C 	C 	0.16710 0.43750 0.60890 0.09700
H 	H 	0.14890 0.40700 0.58790 0.00100
C 	C 	0.18880 0.56610 0.64220 0.07100
H 	H 	0.18620 0.62610 0.64490 0.01100
C 	C 	0.21850 0.52260 0.67120 -0.13600
H 	H 	0.23620 0.55370 0.69230 0.10300
N 	N 	0.57570 0.99050 0.06020 -0.27600
N 	N 	0.34540 0.16210 0.16210 -0.27800
N 	N 	0.43680 0.50210 0.94700 -0.27000
N 	N 	0.42060 0.27860 0.05710 -0.12900
N 	N 	0.45720 0.15300 0.08710 -0.13300
N 	N 	0.47540 0.23080 0.03130 -0.14300
N 	N 	0.38730 0.52970 0.85370 -0.27600
N 	N 	0.30150 0.98750 0.70820 -0.27600
N 	N 	0.16330 0.52340 0.60970 -0.27600
N 	N 	0.27740 0.43290 0.73060 -0.14100
N 	N 	0.31430 0.30320 0.75250 -0.12700
N 	N 	0.25800 0.29990 0.69380 -0.13100
Zn	Zn	0.62339 0.91110 0.06401 1.17900
Zn	Zn	0.42840 0.59592 0.90011 1.17600
Zn	Zn	0.30890 0.85373 0.70261 1.19500
Br	Br	0.23576 0.80190 0.65284 0.04700
Br	Br	0.36138 0.81750 0.78314 0.07200
Br	Br	0.25117 0.77579 0.68093 -0.51300
Br	Br	0.33593 0.78920 0.76957 -0.52500
Br	Br	0.14602 0.57305 0.49541 -0.42800
Br	Br	0.10968 0.73500 0.59292 -0.44600
Br	Br	0.99064 0.89360 0.37131 -0.41900
Br	Br	0.89435 0.77470 0.42411 -0.44100
C 	C 	0.06140 0.45830 0.52780 0.09200
H 	H 	0.07340 0.45880 0.50490 -0.00600
C 	C 	0.02880 0.40230 0.52580 -0.12800
H 	H 	0.01920 0.36830 0.50160 0.08800
C 	C 	0.01130 0.39800 0.55970 0.06000
C 	C 	0.02720 0.45170 0.59570 -0.12800
H 	H 	0.01710 0.44960 0.61990 0.08800
C 	C 	0.05690 0.50500 0.59380 0.07500
H 	H 	0.06580 0.54250 0.61680 -0.01200
C 	C 	0.97950 0.33610 0.55940 0.09500
C 	C 	0.94650 0.21340 0.53230 0.09800
C 	C 	0.92760 0.28930 0.58420 0.10900
C 	C 	0.94330 0.13630 0.50330 0.07100
C 	C 	0.97300 0.11770 0.48320 -0.13200
H 	H 	0.99600 0.15140 0.48900 0.08100
C 	C 	0.96940 0.05150 0.45520 0.07600
H 	H 	0.98940 0.04180 0.44100 -0.00400
C 	C 	0.90880 0.01300 0.46900 0.08400
H 	H 	0.88740 0.97490 0.46530 -0.01000
C 	C 	0.91050 0.08130 0.49620 -0.12900
H 	H 	0.89010 0.09120 0.50980 0.09300
C 	C 	0.83640 0.28430 0.62960 0.08800
H 	H 	0.81180 0.25660 0.62400 -0.00800
C 	C 	0.86210 0.26580 0.60210 -0.12800
H 	H 	0.85420 0.22930 0.57850 0.09600
C 	C 	0.89920 0.30450 0.61190 0.08300
C 	C 	0.90970 0.35930 0.64690 -0.14000
H 	H 	0.93480 0.38480 0.65460 0.09500
C 	C 	0.88180 0.37460 0.66960 0.09400
H 	H 	0.88840 0.41380 0.69220 -0.02300
C 	C 	0.80700 0.11010 0.25520 0.09700
C 	C 	0.78760 0.23720 0.22120 0.10600
C 	C 	0.75450 0.11400 0.19980 0.09900
C 	C 	0.85770 0.93030 0.32510 0.09200
H 	H 	0.85480 0.87030 0.32730 0.00600
C 	C 	0.83190 0.97360 0.29310 -0.15600
H 	H 	0.81200 0.94320 0.27410 0.10800
C 	C 	0.83530 0.05980 0.28930 0.09500
C 	C 	0.86520 0.10300 0.31740 -0.15700
H 	H 	0.86840 0.16290 0.31540 0.11600
C 	C 	0.89000 0.05520 0.34830 0.11200
H 	H 	0.91040 0.08470 0.36710 -0.00800
C 	C 	0.82580 0.46770 0.23840 0.09100
H 	H 	0.84580 0.49780 0.25740 -0.02000
C 	C 	0.82330 0.37620 0.24350 -0.15000
H 	H 	0.84210 0.34660 0.26410 0.09800
C 	C 	0.79340 0.33420 0.21800 0.08700
C 	C 	0.76520 0.38310 0.18650 -0.15500
H 	H 	0.74380 0.35570 0.16830 0.10300
C 	C 	0.77090 0.46890 0.18430 0.10500
H 	H 	0.75210 0.50070 0.16470 -0.02000
C 	C 	0.72190 0.06450 0.16890 0.07700
C 	C 	0.69540 0.10990 0.13630 -0.13800
H 	H 	0.69720 0.17000 0.13350 0.10900
C 	C 	0.66710 0.06250 0.10890 0.09700
H 	H 	0.64890 0.09300 0.08790 0.00100
C 	C 	0.68880 0.93390 0.14220 0.07200
H 	H 	0.68620 0.87390 0.14490 0.01100
C 	C 	0.71850 0.97740 0.17120 -0.13600
H 	H 	0.73620 0.94630 0.19230 0.10300
N 	N 	0.07570 0.50950 0.56020 -0.27600
N 	N 	0.84540 0.33790 0.66210 -0.27800
N 	N 	0.93680 0.99790 0.44700 -0.27000
N 	N 	0.92060 0.22140 0.55710 -0.12900
N 	N 	0.95720 0.34700 0.58710 -0.13300
N 	N 	0.97540 0.26920 0.53130 -0.14300
N 	N 	0.88730 0.97030 0.35370 -0.27600
N 	N 	0.80150 0.51250 0.20820 -0.27600
N 	N 	0.66330 0.97660 0.10970 -0.27600
N 	N 	0.77740 0.06710 0.23060 -0.14100
N 	N 	0.81430 0.19680 0.25250 -0.12700
N 	N 	0.75800 0.20010 0.19380 -0.13100
Zn	Zn	0.12339 0.58890 0.56401 1.17900
Zn	Zn	0.92840 0.90408 0.40011 1.17600
Zn	Zn	0.80890 0.64627 0.20261 1.19500
Br	Br	0.73576 0.69810 0.15284 0.04700
Br	Br	0.86138 0.68250 0.28314 0.07200
Br	Br	0.75117 0.72421 0.18093 -0.51300
Br	Br	0.83593 0.71080 0.26957 -0.52500
Br	Br	0.64602 0.07305 0.49541 -0.42800
Br	Br	0.60968 0.23500 0.59292 -0.44600
Br	Br	0.49064 0.39360 0.37131 -0.41900
Br	Br	0.39435 0.27470 0.42411 -0.44100
C 	C 	0.56140 0.95830 0.52780 0.09200
H 	H 	0.57340 0.95880 0.50490 -0.00600
C 	C 	0.52880 0.90230 0.52580 -0.12800
H 	H 	0.51920 0.86830 0.50160 0.08800
C 	C 	0.51130 0.89800 0.55970 0.06000
C 	C 	0.52720 0.95170 0.59570 -0.12800
H 	H 	0.51710 0.94960 0.61990 0.08800
C 	C 	0.55690 0.00500 0.59380 0.07500
H 	H 	0.56580 0.04250 0.61680 -0.01200
C 	C 	0.47950 0.83610 0.55940 0.09500
C 	C 	0.44650 0.71340 0.53230 0.09800
C 	C 	0.42760 0.78930 0.58420 0.10900
C 	C 	0.44330 0.63630 0.50330 0.07100
C 	C 	0.47300 0.61770 0.48320 -0.13200
H 	H 	0.49600 0.65140 0.48900 0.08100
C 	C 	0.46940 0.55150 0.45520 0.07600
H 	H 	0.48940 0.54180 0.44100 -0.00400
C 	C 	0.40880 0.51300 0.46900 0.08400
H 	H 	0.38740 0.47490 0.46530 -0.01000
C 	C 	0.41050 0.58130 0.49620 -0.12900
H 	H 	0.39010 0.59120 0.50980 0.09300
C 	C 	0.33640 0.78430 0.62960 0.08800
H 	H 	0.31180 0.75660 0.62400 -0.00800
C 	C 	0.36210 0.76580 0.60210 -0.12800
H 	H 	0.35420 0.72930 0.57850 0.09600
C 	C 	0.39920 0.80450 0.61190 0.08300
C 	C 	0.40970 0.85930 0.64690 -0.14000
H 	H 	0.43480 0.88480 0.65460 0.09500
C 	C 	0.38180 0.87460 0.66960 0.09400
H 	H 	0.38840 0.91380 0.69220 -0.02300
C 	C 	0.30700 0.61010 0.25520 0.09700
C 	C 	0.28760 0.73720 0.22120 0.10600
C 	C 	0.25450 0.61400 0.19980 0.09900
C 	C 	0.35770 0.43030 0.32510 0.09200
H 	H 	0.35480 0.37030 0.32730 0.00600
C 	C 	0.33190 0.47360 0.29310 -0.15600
H 	H 	0.31200 0.44320 0.27410 0.10700
C 	C 	0.33530 0.55980 0.28930 0.09500
C 	C 	0.36520 0.60300 0.31740 -0.15700
H 	H 	0.36840 0.66290 0.31540 0.11600
C 	C 	0.39000 0.55520 0.34830 0.11100
H 	H 	0.41040 0.58470 0.36710 -0.00800
C 	C 	0.32580 0.96770 0.23840 0.09100
H 	H 	0.34580 0.99780 0.25740 -0.02000
C 	C 	0.32330 0.87620 0.24350 -0.15000
H 	H 	0.34210 0.84660 0.26410 0.09800
C 	C 	0.29340 0.83420 0.21800 0.08700
C 	C 	0.26520 0.88310 0.18650 -0.15500
H 	H 	0.24380 0.85570 0.16830 0.10200
C 	C 	0.27090 0.96890 0.18430 0.10400
H 	H 	0.25210 0.00070 0.16470 -0.01900
C 	C 	0.22190 0.56450 0.16890 0.07700
C 	C 	0.19540 0.60990 0.13630 -0.13800
H 	H 	0.19720 0.67000 0.13350 0.10900
C 	C 	0.16710 0.56250 0.10890 0.09700
H 	H 	0.14890 0.59300 0.08790 0.00100
C 	C 	0.18880 0.43390 0.14220 0.07100
H 	H 	0.18620 0.37390 0.14490 0.01100
C 	C 	0.21850 0.47740 0.17120 -0.13600
H 	H 	0.23620 0.44630 0.19230 0.10300
N 	N 	0.57570 0.00950 0.56020 -0.27600
N 	N 	0.34540 0.83790 0.66210 -0.27800
N 	N 	0.43680 0.49790 0.44700 -0.27000
N 	N 	0.42060 0.72140 0.55710 -0.12900
N 	N 	0.45720 0.84700 0.58710 -0.13300
N 	N 	0.47540 0.76920 0.53130 -0.14300
N 	N 	0.38730 0.47030 0.35370 -0.27600
N 	N 	0.30150 0.01250 0.20820 -0.27600
N 	N 	0.16330 0.47660 0.10970 -0.27600
N 	N 	0.27740 0.56710 0.23060 -0.14100
N 	N 	0.31430 0.69680 0.25250 -0.12700
N 	N 	0.25800 0.70010 0.19380 -0.13100
Zn	Zn	0.62339 0.08890 0.56401 1.17900
Zn	Zn	0.42840 0.40408 0.40011 1.17600
Zn	Zn	0.30890 0.14627 0.20261 1.19500
Br	Br	0.23576 0.19810 0.15284 0.04700
Br	Br	0.36138 0.18250 0.28314 0.07200
Br	Br	0.25117 0.22421 0.18093 -0.51300
Br	Br	0.33593 0.21080 0.26957 -0.52500
Br	Br	0.85398 0.42695 0.50459 -0.42800
Br	Br	0.89032 0.26500 0.40708 -0.44600
Br	Br	0.00936 0.10640 0.62869 -0.41900
Br	Br	0.10565 0.22530 0.57589 -0.44100
C 	C 	0.93860 0.54170 0.47220 0.09200
H 	H 	0.92660 0.54120 0.49510 -0.00600
C 	C 	0.97120 0.59770 0.47420 -0.12800
H 	H 	0.98080 0.63170 0.49840 0.08800
C 	C 	0.98870 0.60200 0.44030 0.06000
C 	C 	0.97280 0.54830 0.40430 -0.12800
H 	H 	0.98290 0.55040 0.38010 0.08800
C 	C 	0.94310 0.49500 0.40620 0.07500
H 	H 	0.93420 0.45750 0.38320 -0.01200
C 	C 	0.02050 0.66390 0.44060 0.09500
C 	C 	0.05350 0.78660 0.46770 0.09800
C 	C 	0.07240 0.71070 0.41580 0.10900
C 	C 	0.05670 0.86370 0.49670 0.07100
C 	C 	0.02700 0.88230 0.51680 -0.13200
H 	H 	0.00400 0.84860 0.51100 0.08100
C 	C 	0.03060 0.94850 0.54480 0.07600
H 	H 	0.01060 0.95820 0.55900 -0.00400
C 	C 	0.09120 0.98700 0.53100 0.08400
H 	H 	0.11260 0.02510 0.53470 -0.01000
C 	C 	0.08950 0.91870 0.50380 -0.12900
H 	H 	0.10990 0.90880 0.49020 0.09300
C 	C 	0.16360 0.71570 0.37040 0.08800
H 	H 	0.18820 0.74340 0.37600 -0.00800
C 	C 	0.13790 0.73420 0.39790 -0.12800
H 	H 	0.14580 0.77070 0.42150 0.09600
C 	C 	0.10080 0.69550 0.38810 0.08300
C 	C 	0.09030 0.64070 0.35310 -0.14000
H 	H 	0.06520 0.61520 0.34540 0.09500
C 	C 	0.11820 0.62540 0.33040 0.09400
H 	H 	0.11160 0.58620 0.30780 -0.02300
C 	C 	0.19300 0.88990 0.74480 0.09700
C 	C 	0.21240 0.76280 0.77880 0.10600
C 	C 	0.24550 0.88600 0.80020 0.09900
C 	C 	0.14230 0.06970 0.67490 0.09200
H 	H 	0.14520 0.12970 0.67270 0.00600
C 	C 	0.16810 0.02640 0.70690 -0.15600
H 	H 	0.18800 0.05680 0.72590 0.10800
C 	C 	0.16470 0.94020 0.71070 0.09500
C 	C 	0.13480 0.89700 0.68260 -0.15700
H 	H 	0.13160 0.83710 0.68460 0.11600
C 	C 	0.11000 0.94480 0.65170 0.11200
H 	H 	0.08960 0.91530 0.63290 -0.00800
C 	C 	0.17420 0.53230 0.76160 0.09100
H 	H 	0.15420 0.50220 0.74260 -0.02000
C 	C 	0.17670 0.62380 0.75650 -0.15000
H 	H 	0.15790 0.65340 0.73590 0.09800
C 	C 	0.20660 0.66580 0.78200 0.08700
C 	C 	0.23480 0.61690 0.81350 -0.15500
H 	H 	0.25620 0.64430 0.83170 0.10300
C 	C 	0.22910 0.53110 0.81570 0.10500
H 	H 	0.24790 0.49930 0.83530 -0.02000
C 	C 	0.27810 0.93550 0.83110 0.07700
C 	C 	0.30460 0.89010 0.86370 -0.13800
H 	H 	0.30280 0.83000 0.86650 0.10900
C 	C 	0.33290 0.93750 0.89110 0.09700
H 	H 	0.35110 0.90700 0.91210 0.00100
C 	C 	0.31120 0.06610 0.85780 0.07200
H 	H 	0.31380 0.12610 0.85510 0.01100
C 	C 	0.28150 0.02260 0.82880 -0.13600
H 	H 	0.26380 0.05370 0.80770 0.10300
N 	N 	0.92430 0.49050 0.43980 -0.27600
N 	N 	0.15460 0.66210 0.33790 -0.27800
N 	N 	0.06320 0.00210 0.55300 -0.27000
N 	N 	0.07940 0.77860 0.44290 -0.12900
N 	N 	0.04280 0.65300 0.41290 -0.13300
N 	N 	0.02460 0.73080 0.46870 -0.14300
N 	N 	0.11270 0.02970 0.64630 -0.27600
N 	N 	0.19850 0.48750 0.79180 -0.27600
N 	N 	0.33670 0.02340 0.89030 -0.27600
N 	N 	0.22260 0.93290 0.76940 -0.14100
N 	N 	0.18570 0.80320 0.74750 -0.12700
N 	N 	0.24200 0.79990 0.80620 -0.13100
Zn	Zn	0.87661 0.41110 0.43599 1.17900
Zn	Zn	0.07160 0.09592 0.59989 1.17600
Zn	Zn	0.19110 0.35373 0.79739 1.19500
Br	Br	0.26424 0.30190 0.84716 0.04700
Br	Br	0.13862 0.31750 0.71686 0.07200
Br	Br	0.24883 0.27579 0.81907 -0.51300
Br	Br	0.16407 0.28920 0.73043 -0.52500
Br	Br	0.35398 0.92695 0.50459 -0.42800
Br	Br	0.39032 0.76500 0.40708 -0.44600
Br	Br	0.50936 0.60640 0.62869 -0.41900
Br	Br	0.60565 0.72530 0.57589 -0.44100
C 	C 	0.43860 0.04170 0.47220 0.09200
H 	H 	0.42660 0.04120 0.49510 -0.00600
C 	C 	0.47120 0.09770 0.47420 -0.12800
H 	H 	0.48080 0.13170 0.49840 0.08800
C 	C 	0.48870 0.10200 0.44030 0.06000
C 	C 	0.47280 0.04830 0.40430 -0.12800
H 	H 	0.48290 0.05040 0.38010 0.08800
C 	C 	0.44310 0.99500 0.40620 0.07500
H 	H 	0.43420 0.95750 0.38320 -0.01200
C 	C 	0.52050 0.16390 0.44060 0.09500
C 	C 	0.55350 0.28660 0.46770 0.09800
C 	C 	0.57240 0.21070 0.41580 0.10900
C 	C 	0.55670 0.36370 0.49670 0.07100
C 	C 	0.52700 0.38230 0.51680 -0.13200
H 	H 	0.50400 0.34860 0.51100 0.08100
C 	C 	0.53060 0.44850 0.54480 0.07600
H 	H 	0.51060 0.45820 0.55900 -0.00400
C 	C 	0.59120 0.48700 0.53100 0.08400
H 	H 	0.61260 0.52510 0.53470 -0.01000
C 	C 	0.58950 0.41870 0.50380 -0.12900
H 	H 	0.60990 0.40880 0.49020 0.09300
C 	C 	0.66360 0.21570 0.37040 0.08800
H 	H 	0.68820 0.24340 0.37600 -0.00800
C 	C 	0.63790 0.23420 0.39790 -0.12800
H 	H 	0.64580 0.27070 0.42150 0.09600
C 	C 	0.60080 0.19550 0.38810 0.08300
C 	C 	0.59030 0.14070 0.35310 -0.14000
H 	H 	0.56520 0.11520 0.34540 0.09500
C 	C 	0.61820 0.12540 0.33040 0.09400
H 	H 	0.61160 0.08620 0.30780 -0.02300
C 	C 	0.69300 0.38990 0.74480 0.09700
C 	C 	0.71240 0.26280 0.77880 0.10600
C 	C 	0.74550 0.38600 0.80020 0.09900
C 	C 	0.64230 0.56970 0.67490 0.09200
H 	H 	0.64520 0.62970 0.67270 0.00600
C 	C 	0.66810 0.52640 0.70690 -0.15600
H 	H 	0.68800 0.55680 0.72590 0.10700
C 	C 	0.66470 0.44020 0.71070 0.09500
C 	C 	0.63480 0.39700 0.68260 -0.15700
H 	H 	0.63160 0.33710 0.68460 0.11600
C 	C 	0.61000 0.44480 0.65170 0.11100
H 	H 	0.58960 0.41530 0.63290 -0.00800
C 	C 	0.67420 0.03230 0.76160 0.09100
H 	H 	0.65420 0.00220 0.74260 -0.02000
C 	C 	0.67670 0.12380 0.75650 -0.15000
H 	H 	0.65790 0.15340 0.73590 0.09800
C 	C 	0.70660 0.16580 0.78200 0.08700
C 	C 	0.73480 0.11690 0.81350 -0.15500
H 	H 	0.75620 0.14430 0.83170 0.10200
C 	C 	0.72910 0.03110 0.81570 0.10400
H 	H 	0.74790 0.99930 0.83530 -0.01900
C 	C 	0.77810 0.43550 0.83110 0.07700
C 	C 	0.80460 0.39010 0.86370 -0.13800
H 	H 	0.80280 0.33000 0.86650 0.10900
C 	C 	0.83290 0.43750 0.89110 0.09700
H 	H 	0.85110 0.40700 0.91210 0.00100
C 	C 	0.81120 0.56610 0.85780 0.07100
H 	H 	0.81380 0.62610 0.85510 0.01100
C 	C 	0.78150 0.52260 0.82880 -0.13600
H 	H 	0.76380 0.55370 0.80770 0.10300
N 	N 	0.42430 0.99050 0.43980 -0.27600
N 	N 	0.65460 0.16210 0.33790 -0.27800
N 	N 	0.56320 0.50210 0.55300 -0.27000
N 	N 	0.57940 0.27860 0.44290 -0.12900
N 	N 	0.54280 0.15300 0.41290 -0.13300
N 	N 	0.52460 0.23080 0.46870 -0.14300
N 	N 	0.61270 0.52970 0.64630 -0.27600
N 	N 	0.69850 0.98750 0.79180 -0.27600
N 	N 	0.83670 0.52340 0.89030 -0.27600
N 	N 	0.72260 0.43290 0.76940 -0.14100
N 	N 	0.68570 0.30320 0.74750 -0.12700
N 	N 	0.74200 0.29990 0.80620 -0.13100
Zn	Zn	0.37661 0.91110 0.43599 1.17900
Zn	Zn	0.57160 0.59592 0.59989 1.17600
Zn	Zn	0.69110 0.85373 0.79739 1.19500
Br	Br	0.76424 0.80190 0.84716 0.04700
Br	Br	0.63862 0.81750 0.71686 0.07200
Br	Br	0.74883 0.77579 0.81907 -0.51300
Br	Br	0.66407 0.78920 0.73043 -0.52500
Br	Br	0.85398 0.57305 0.00459 -0.42900
Br	Br	0.89032 0.73500 0.90708 -0.44600
Br	Br	0.00936 0.89360 0.12869 -0.41900
Br	Br	0.10565 0.77470 0.07589 -0.44100
C 	C 	0.93860 0.45830 0.97220 0.09200
H 	H 	0.92660 0.45880 0.99510 -0.00600
C 	C 	0.97120 0.40230 0.97420 -0.12800
H 	H 	0.98080 0.36830 0.99840 0.08800
C 	C 	0.98870 0.39800 0.94030 0.06000
C 	C 	0.97280 0.45170 0.90430 -0.12800
H 	H 	0.98290 0.44960 0.88010 0.08800
C 	C 	0.94310 0.50500 0.90620 0.07500
H 	H 	0.93420 0.54250 0.88320 -0.01200
C 	C 	0.02050 0.33610 0.94060 0.09500
C 	C 	0.05350 0.21340 0.96770 0.09800
C 	C 	0.07240 0.28930 0.91580 0.10900
C 	C 	0.05670 0.13630 0.99670 0.07000
C 	C 	0.02700 0.11770 0.01680 -0.13200
H 	H 	0.00400 0.15140 0.01100 0.08100
C 	C 	0.03060 0.05150 0.04480 0.07600
H 	H 	0.01060 0.04180 0.05900 -0.00400
C 	C 	0.09120 0.01300 0.03100 0.08500
H 	H 	0.11260 0.97490 0.03470 -0.01100
C 	C 	0.08950 0.08130 0.00380 -0.12900
H 	H 	0.10990 0.09120 0.99020 0.09300
C 	C 	0.16360 0.28430 0.87040 0.08800
H 	H 	0.18820 0.25660 0.87600 -0.00800
C 	C 	0.13790 0.26580 0.89790 -0.12800
H 	H 	0.14580 0.22930 0.92150 0.09600
C 	C 	0.10080 0.30450 0.88810 0.08300
C 	C 	0.09030 0.35930 0.85310 -0.14000
H 	H 	0.06520 0.38480 0.84540 0.09500
C 	C 	0.11820 0.37460 0.83040 0.09400
H 	H 	0.11160 0.41380 0.80780 -0.02300
C 	C 	0.19300 0.11010 0.24480 0.09700
C 	C 	0.21240 0.23720 0.27880 0.10600
C 	C 	0.24550 0.11400 0.30020 0.09900
C 	C 	0.14230 0.93030 0.17490 0.09200
H 	H 	0.14520 0.87030 0.17270 0.00600
C 	C 	0.16810 0.97360 0.20690 -0.15600
H 	H 	0.18800 0.94320 0.22590 0.10800
C 	C 	0.16470 0.05980 0.21070 0.09500
C 	C 	0.13480 0.10300 0.18260 -0.15700
H 	H 	0.13160 0.16290 0.18460 0.11600
C 	C 	0.11000 0.05520 0.15170 0.11200
H 	H 	0.08960 0.08470 0.13290 -0.00800
C 	C 	0.17420 0.46770 0.26160 0.09100
H 	H 	0.15420 0.49780 0.24260 -0.02000
C 	C 	0.17670 0.37620 0.25650 -0.15000
H 	H 	0.15790 0.34660 0.23590 0.09800
C 	C 	0.20660 0.33420 0.28200 0.08700
C 	C 	0.23480 0.38310 0.31350 -0.15500
H 	H 	0.25620 0.35570 0.33170 0.10300
C 	C 	0.22910 0.46890 0.31570 0.10500
H 	H 	0.24790 0.50070 0.33530 -0.02000
C 	C 	0.27810 0.06450 0.33110 0.07700
C 	C 	0.30460 0.10990 0.36370 -0.13800
H 	H 	0.30280 0.17000 0.36650 0.10900
C 	C 	0.33290 0.06250 0.39110 0.09700
H 	H 	0.35110 0.09300 0.41210 0.00100
C 	C 	0.31120 0.93390 0.35780 0.07200
H 	H 	0.31380 0.87390 0.35510 0.01100
C 	C 	0.28150 0.97740 0.32880 -0.13600
H 	H 	0.26380 0.94630 0.30770 0.10300
N 	N 	0.92430 0.50950 0.93980 -0.27600
N 	N 	0.15460 0.33790 0.83790 -0.27800
N 	N 	0.06320 0.99790 0.05300 -0.27000
N 	N 	0.07940 0.22140 0.94290 -0.12900
N 	N 	0.04280 0.34700 0.91290 -0.13300
N 	N 	0.02460 0.26920 0.96870 -0.14300
N 	N 	0.11270 0.97030 0.14630 -0.27600
N 	N 	0.19850 0.51250 0.29180 -0.27600
N 	N 	0.33670 0.97660 0.39030 -0.27600
N 	N 	0.22260 0.06710 0.26940 -0.14100
N 	N 	0.18570 0.19680 0.24750 -0.12700
N 	N 	0.24200 0.20010 0.30620 -0.13100
Zn	Zn	0.87661 0.58890 0.93599 1.17900
Zn	Zn	0.07160 0.90408 0.09989 1.17600
Zn	Zn	0.19110 0.64627 0.29739 1.19500
Br	Br	0.26424 0.69810 0.34716 0.04700
Br	Br	0.13862 0.68250 0.21686 0.07200
Br	Br	0.24883 0.72421 0.31907 -0.51300
Br	Br	0.16407 0.71080 0.23043 -0.52500
Br	Br	0.35398 0.07305 0.00459 -0.42800
Br	Br	0.39032 0.23500 0.90708 -0.44600
Br	Br	0.50936 0.39360 0.12869 -0.41900
Br	Br	0.60565 0.27470 0.07589 -0.44100
C 	C 	0.43860 0.95830 0.97220 0.09200
H 	H 	0.42660 0.95880 0.99510 -0.00600
C 	C 	0.47120 0.90230 0.97420 -0.12800
H 	H 	0.48080 0.86830 0.99840 0.08800
C 	C 	0.48870 0.89800 0.94030 0.06000
C 	C 	0.47280 0.95170 0.90430 -0.12800
H 	H 	0.48290 0.94960 0.88010 0.08800
C 	C 	0.44310 0.00500 0.90620 0.07500
H 	H 	0.43420 0.04250 0.88320 -0.01200
C 	C 	0.52050 0.83610 0.94060 0.09500
C 	C 	0.55350 0.71340 0.96770 0.09800
C 	C 	0.57240 0.78930 0.91580 0.10900
C 	C 	0.55670 0.63630 0.99670 0.07100
C 	C 	0.52700 0.61770 0.01680 -0.13200
H 	H 	0.50400 0.65140 0.01100 0.08100
C 	C 	0.53060 0.55150 0.04480 0.07600
H 	H 	0.51060 0.54180 0.05900 -0.00400
C 	C 	0.59120 0.51300 0.03100 0.08400
H 	H 	0.61260 0.47490 0.03470 -0.01000
C 	C 	0.58950 0.58130 0.00380 -0.13000
H 	H 	0.60990 0.59120 0.99020 0.09300
C 	C 	0.66360 0.78430 0.87040 0.08800
H 	H 	0.68820 0.75660 0.87600 -0.00800
C 	C 	0.63790 0.76580 0.89790 -0.12800
H 	H 	0.64580 0.72930 0.92150 0.09600
C 	C 	0.60080 0.80450 0.88810 0.08300
C 	C 	0.59030 0.85930 0.85310 -0.14000
H 	H 	0.56520 0.88480 0.84540 0.09500
C 	C 	0.61820 0.87460 0.83040 0.09400
H 	H 	0.61160 0.91380 0.80780 -0.02300
C 	C 	0.69300 0.61010 0.24480 0.09700
C 	C 	0.71240 0.73720 0.27880 0.10600
C 	C 	0.74550 0.61400 0.30020 0.09900
C 	C 	0.64230 0.43030 0.17490 0.09200
H 	H 	0.64520 0.37030 0.17270 0.00600
C 	C 	0.66810 0.47360 0.20690 -0.15600
H 	H 	0.68800 0.44320 0.22590 0.10700
C 	C 	0.66470 0.55980 0.21070 0.09500
C 	C 	0.63480 0.60300 0.18260 -0.15700
H 	H 	0.63160 0.66290 0.18460 0.11600
C 	C 	0.61000 0.55520 0.15170 0.11100
H 	H 	0.58960 0.58470 0.13290 -0.00800
C 	C 	0.67420 0.96770 0.26160 0.09100
H 	H 	0.65420 0.99780 0.24260 -0.02000
C 	C 	0.67670 0.87620 0.25650 -0.15000
H 	H 	0.65790 0.84660 0.23590 0.09800
C 	C 	0.70660 0.83420 0.28200 0.08700
C 	C 	0.73480 0.88310 0.31350 -0.15500
H 	H 	0.75620 0.85570 0.33170 0.10200
C 	C 	0.72910 0.96890 0.31570 0.10400
H 	H 	0.74790 0.00070 0.33530 -0.01900
C 	C 	0.77810 0.56450 0.33110 0.07700
C 	C 	0.80460 0.60990 0.36370 -0.13800
H 	H 	0.80280 0.67000 0.36650 0.10900
C 	C 	0.83290 0.56250 0.39110 0.09700
H 	H 	0.85110 0.59300 0.41210 0.00100
C 	C 	0.81120 0.43390 0.35780 0.07100
H 	H 	0.81380 0.37390 0.35510 0.01100
C 	C 	0.78150 0.47740 0.32880 -0.13600
H 	H 	0.76380 0.44630 0.30770 0.10300
N 	N 	0.42430 0.00950 0.93980 -0.27600
N 	N 	0.65460 0.83790 0.83790 -0.27800
N 	N 	0.56320 0.49790 0.05300 -0.27000
N 	N 	0.57940 0.72140 0.94290 -0.12900
N 	N 	0.54280 0.84700 0.91290 -0.13300
N 	N 	0.52460 0.76920 0.96870 -0.14300
N 	N 	0.61270 0.47030 0.14630 -0.27600
N 	N 	0.69850 0.01250 0.29180 -0.27600
N 	N 	0.83670 0.47660 0.39030 -0.27600
N 	N 	0.72260 0.56710 0.26940 -0.14100
N 	N 	0.68570 0.69680 0.24750 -0.12700
N 	N 	0.74200 0.70010 0.30620 -0.13100
Zn	Zn	0.37661 0.08890 0.93599 1.17900
Zn	Zn	0.57160 0.40408 0.09989 1.17600
Zn	Zn	0.69110 0.14627 0.29739 1.19500
Br	Br	0.76424 0.19810 0.34716 0.04700
Br	Br	0.63862 0.18250 0.21686 0.07200
Br	Br	0.74883 0.22421 0.31907 -0.51300
Br	Br	0.66407 0.21080 0.23043 -0.52500
