data_crystal

_cell_length_a 34.72000
_cell_length_b 14.71220
_cell_length_c 31.41200
_cell_angle_alpha 90.00000
_cell_angle_beta  103.29300
_cell_angle_gamma 90.00000

_symmetry_space_group_name_	'P 1'
_symmetry_space_group_name_H-M	'P 1'

loop_
_symmetry_equiv_pos_as_xyz
  x,y,z

loop_
_atom_site_label
_atom_site_type_symbol
_atom_site_fract_x
_atom_site_fract_y
_atom_site_fract_z
_atom_site_charge
Br	Br	0.85854 0.53176 0.07102 -0.46900
Br	Br	0.76874 0.63830 0.12363 -0.44800
Br	Br	0.11920 0.68336 0.50840 -0.46100
Br	Br	0.28500 0.43590 0.60522 -0.44600
Br	Br	0.38906 0.49165 0.56969 -0.47000
Br	Br	0.40757 0.58840 0.71016 0.22000
Br	Br	0.61808 0.36005 0.00844 -0.46400
Br	Br	0.64334 0.51505 0.90694 -0.47900
Br	Br	0.97952 0.98378 0.79331 -0.48500
Br	Br	0.14017 0.53626 0.40222 -0.48200
Br	Br	0.50237 0.54250 0.81100 -0.41200
Br	Br	0.87828 0.06197 0.70157 -0.48500
C 	C 	0.86300 0.80440 0.15170 0.08800
H 	H 	0.84190 0.83350 0.13310 -0.00300
C 	C 	0.88820 0.85760 0.18280 -0.13500
H 	H 	0.88510 0.92020 0.18390 0.10900
C 	C 	0.91820 0.81290 0.21220 0.07300
C 	C 	0.92270 0.71760 0.20800 -0.14900
H 	H 	0.94240 0.68510 0.22690 0.09900
C 	C 	0.89610 0.67610 0.17430 0.09800
H 	H 	0.89930 0.61400 0.17090 -0.00400
C 	C 	0.94340 0.86650 0.24700 0.09700
C 	C 	0.96150 0.00100 0.27840 0.11000
C 	C 	0.99390 0.87450 0.30850 0.08800
C 	C 	0.95690 0.10080 0.27610 0.06900
C 	C 	0.93430 0.14170 0.24020 -0.14300
H 	H 	0.92340 0.10640 0.21590 0.10300
C 	C 	0.92720 0.23180 0.23890 0.09700
H 	H 	0.91100 0.25610 0.21360 -0.00900
C 	C 	0.96690 0.25060 0.30800 0.06600
H 	H 	0.97830 0.28970 0.33060 -0.00200
C 	C 	0.97560 0.15890 0.31250 -0.11900
H 	H 	0.99260 0.13560 0.33750 0.08600
C 	C 	0.02550 0.82980 0.34080 0.06000
C 	C 	0.05500 0.87650 0.36760 -0.12500
H 	H 	0.05490 0.93970 0.36750 0.10000
C 	C 	0.08530 0.82920 0.39520 0.08200
H 	H 	0.10590 0.86160 0.41290 0.01700
C 	C 	0.05610 0.68980 0.37150 0.07200
H 	H 	0.05620 0.62680 0.37360 0.00700
C 	C 	0.02610 0.73250 0.34220 -0.12600
H 	H 	0.00650 0.69880 0.32370 0.10800
C 	C 	0.19770 0.75110 0.40480 0.10000
H 	H 	0.18960 0.70750 0.38320 -0.01200
C 	C 	0.22730 0.80740 0.40150 -0.13600
H 	H 	0.23950 0.80150 0.37820 0.09800
C 	C 	0.23950 0.87340 0.43240 0.06300
C 	C 	0.22300 0.87600 0.47050 -0.11000
H 	H 	0.23260 0.91540 0.49370 0.08200
C 	C 	0.19210 0.81640 0.47060 0.06500
H 	H 	0.17950 0.81810 0.49380 0.01100
C 	C 	0.27410 0.93690 0.43330 0.10800
C 	C 	0.31110 0.05910 0.45990 0.10300
C 	C 	0.32500 0.97570 0.40490 0.12500
C 	C 	0.35130 0.96070 0.37430 0.06900
C 	C 	0.39220 0.96780 0.39030 -0.12000
H 	H 	0.40270 0.98660 0.41890 0.10100
C 	C 	0.41710 0.94630 0.36240 0.08100
H 	H 	0.44440 0.94900 0.37290 -0.00900
C 	C 	0.36340 0.91550 0.30480 0.06400
H 	H 	0.35380 0.89850 0.27580 0.00800
C 	C 	0.33770 0.93430 0.33140 -0.11600
H 	H 	0.31060 0.92900 0.32010 0.09200
C 	C 	0.31760 0.13770 0.48800 0.05400
C 	C 	0.28980 0.16690 0.50970 -0.11100
H 	H 	0.26600 0.13570 0.50660 0.07800
C 	C 	0.29740 0.24440 0.53680 0.07700
H 	H 	0.27790 0.26470 0.55040 -0.00100
C 	C 	0.36040 0.25990 0.52440 0.05400
H 	H 	0.38470 0.28960 0.53050 0.00300
C 	C 	0.35400 0.18280 0.49480 -0.09800
H 	H 	0.37350 0.16400 0.48070 0.08300
C 	C 	0.37010 0.22810 0.64790 0.07600
H 	H 	0.35000 0.19870 0.62790 0.01300
C 	C 	0.39240 0.17780 0.68230 -0.11400
H 	H 	0.38830 0.11560 0.68420 0.10500
C 	C 	0.42130 0.22190 0.71410 0.05900
C 	C 	0.42730 0.31440 0.70840 -0.12300
H 	H 	0.44650 0.34610 0.72850 0.07800
C 	C 	0.40470 0.35780 0.67290 0.06900
H 	H 	0.40920 0.41950 0.66970 0.00400
C 	C 	0.44540 0.17310 0.75030 0.10200
C 	C 	0.46130 0.04080 0.78720 0.09900
C 	C 	0.49810 0.16740 0.80930 0.07900
C 	C 	0.45560 0.94320 0.79110 0.06400
C 	C 	0.42310 0.90230 0.76410 -0.12500
H 	H 	0.40410 0.93760 0.74560 0.09300
C 	C 	0.41900 0.80760 0.76460 0.07700
H 	H 	0.39610 0.78150 0.74790 -0.00200
C 	C 	0.47840 0.79410 0.81490 0.06800
H 	H 	0.49740 0.75730 0.83240 -0.00200
C 	C 	0.48330 0.88580 0.81690 -0.12700
H 	H 	0.50550 0.91040 0.83580 0.08800
C 	C 	0.53790 0.30520 0.82970 -0.11600
H 	H 	0.52390 0.33500 0.80480 0.09400
C 	C 	0.52880 0.21510 0.83920 0.06300
C 	C 	0.55080 0.17540 0.87690 -0.13300
H 	H 	0.54580 0.11550 0.88330 0.11200
C 	C 	0.58000 0.22300 0.90500 0.10700
H 	H 	0.59300 0.19540 0.93100 0.00300
C 	C 	0.56850 0.34720 0.85900 0.06200
H 	H 	0.57480 0.40670 0.85330 0.01900
C 	C 	0.68800 0.22480 0.96970 0.06700
H 	H 	0.66960 0.21330 0.98640 0.00600
C 	C 	0.71940 0.16350 0.97260 -0.11000
H 	H 	0.72350 0.11540 0.99230 0.08100
C 	C 	0.74460 0.17960 0.94340 0.05400
C 	C 	0.74150 0.25580 0.91890 -0.10200
H 	H 	0.75970 0.26760 0.90210 0.08600
C 	C 	0.70960 0.31910 0.91890 0.04600
H 	H 	0.70690 0.37180 0.90210 0.01100
C 	C 	0.77680 0.11160 0.94410 0.11600
C 	C 	0.80910 0.98540 0.96970 0.10600
C 	C 	0.82390 0.05520 0.91260 0.12800
C 	C 	0.81320 0.90230 0.99730 0.07100
C 	C 	0.78700 0.88970 0.02800 -0.14900
H 	H 	0.76950 0.93460 0.03240 0.09700
C 	C 	0.79000 0.81150 0.04840 0.12100
H 	H 	0.76980 0.79750 0.06220 -0.01700
C 	C 	0.84430 0.76490 0.02640 0.07600
H 	H 	0.86480 0.72340 0.02800 -0.00200
C 	C 	0.84150 0.83740 0.99890 -0.12800
H 	H 	0.85920 0.84270 0.98090 0.09200
C 	C 	0.84740 0.06400 0.87920 0.06900
C 	C 	0.88550 0.03010 0.88710 -0.13200
H 	H 	0.89710 0.00500 0.91420 0.09800
C 	C 	0.90600 0.03370 0.85490 0.09600
H 	H 	0.93090 0.00690 0.86040 -0.00800
C 	C 	0.85620 0.11190 0.80720 0.05400
H 	H 	0.84670 0.14190 0.78080 0.00200
C 	C 	0.83350 0.10490 0.83910 -0.10800
H 	H 	0.80810 0.12900 0.83270 0.08900
N 	N 	0.86660 0.71480 0.14640 -0.27600
N 	N 	0.94180 0.28660 0.27120 -0.26200
N 	N 	0.08580 0.73880 0.39730 -0.26200
N 	N 	0.97300 0.82220 0.27490 -0.13200
N 	N 	0.93820 0.95670 0.24740 -0.13200
N 	N 	0.99080 0.96410 0.31000 -0.13600
N 	N 	0.17950 0.75480 0.43720 -0.26300
N 	N 	0.40230 0.92240 0.32170 -0.26700
N 	N 	0.33100 0.28890 0.54340 -0.26300
N 	N 	0.29410 0.92070 0.40200 -0.12900
N 	N 	0.28160 0.00180 0.46300 -0.14200
N 	N 	0.33500 0.04510 0.43120 -0.12800
N 	N 	0.37600 0.31730 0.64190 -0.26000
N 	N 	0.44610 0.75400 0.78780 -0.26800
N 	N 	0.59030 0.30510 0.89680 -0.26200
N 	N 	0.47520 0.21580 0.77560 -0.14100
N 	N 	0.43460 0.08560 0.75480 -0.12600
N 	N 	0.49090 0.07880 0.81470 -0.13700
N 	N 	0.68320 0.29890 0.94440 -0.25700
N 	N 	0.81760 0.75200 0.05170 -0.27500
N 	N 	0.89300 0.07240 0.81700 -0.26500
N 	N 	0.79600 0.12100 0.91060 -0.12600
N 	N 	0.78390 0.04870 0.97380 -0.14500
N 	N 	0.83110 0.98830 0.93820 -0.13400
Zn	Zn	0.82719 0.65179 0.09841 1.19400
Zn	Zn	0.13169 0.67195 0.43818 1.19100
Zn	Zn	0.34471 0.38874 0.58919 1.19400
Zn	Zn	0.44027 0.61384 0.78234 1.17100
Zn	Zn	0.63368 0.37606 0.93989 1.19200
Zn	Zn	0.92442 0.07718 0.76881 1.18900
Br	Br	0.38950 0.60200 0.70320 -0.64700
Br	Br	0.49270 0.53380 0.79930 -0.06100
Br	Br	0.85854 0.96824 0.57102 -0.46800
Br	Br	0.76874 0.86170 0.62363 -0.44600
Br	Br	0.11920 0.81664 0.00840 -0.46000
Br	Br	0.28500 0.06410 0.10522 -0.44500
Br	Br	0.38906 0.00835 0.06969 -0.46900
Br	Br	0.40757 0.91160 0.21016 0.22100
Br	Br	0.61808 0.13995 0.50844 -0.46300
Br	Br	0.64334 0.98495 0.40694 -0.47800
Br	Br	0.97952 0.51622 0.29331 -0.48500
Br	Br	0.14017 0.96374 0.90222 -0.48100
Br	Br	0.50237 0.95750 0.31100 -0.41100
Br	Br	0.87828 0.43803 0.20157 -0.48300
C 	C 	0.86300 0.69560 0.65170 0.08900
H 	H 	0.84190 0.66650 0.63310 -0.00200
C 	C 	0.88820 0.64240 0.68280 -0.13400
H 	H 	0.88510 0.57980 0.68390 0.11000
C 	C 	0.91820 0.68710 0.71220 0.07400
C 	C 	0.92270 0.78240 0.70800 -0.14800
H 	H 	0.94240 0.81490 0.72690 0.10000
C 	C 	0.89610 0.82390 0.67430 0.09900
H 	H 	0.89930 0.88600 0.67090 -0.00300
C 	C 	0.94340 0.63350 0.74700 0.09800
C 	C 	0.96150 0.49900 0.77840 0.11200
C 	C 	0.99390 0.62550 0.80850 0.08900
C 	C 	0.95690 0.39920 0.77610 0.07000
C 	C 	0.93430 0.35830 0.74020 -0.14200
H 	H 	0.92340 0.39360 0.71590 0.10400
C 	C 	0.92720 0.26820 0.73890 0.09800
H 	H 	0.91100 0.24390 0.71360 -0.00900
C 	C 	0.96690 0.24940 0.80800 0.06600
H 	H 	0.97830 0.21030 0.83060 -0.00200
C 	C 	0.97560 0.34110 0.81250 -0.11800
H 	H 	0.99260 0.36440 0.83750 0.08600
C 	C 	0.02550 0.67020 0.84080 0.06000
C 	C 	0.05500 0.62350 0.86760 -0.12500
H 	H 	0.05490 0.56030 0.86750 0.10000
C 	C 	0.08530 0.67080 0.89520 0.08200
H 	H 	0.10590 0.63840 0.91290 0.01700
C 	C 	0.05610 0.81020 0.87150 0.07200
H 	H 	0.05620 0.87320 0.87360 0.00700
C 	C 	0.02610 0.76750 0.84220 -0.12600
H 	H 	0.00650 0.80120 0.82370 0.10800
C 	C 	0.19770 0.74890 0.90480 0.10000
H 	H 	0.18960 0.79250 0.88320 -0.01200
C 	C 	0.22730 0.69260 0.90150 -0.13600
H 	H 	0.23950 0.69850 0.87820 0.09800
C 	C 	0.23950 0.62660 0.93240 0.06300
C 	C 	0.22300 0.62400 0.97050 -0.11000
H 	H 	0.23260 0.58460 0.99370 0.08200
C 	C 	0.19210 0.68360 0.97060 0.06500
H 	H 	0.17950 0.68190 0.99380 0.01200
C 	C 	0.27410 0.56310 0.93330 0.10800
C 	C 	0.31110 0.44090 0.95990 0.10300
C 	C 	0.32500 0.52430 0.90490 0.12600
C 	C 	0.35130 0.53930 0.87430 0.06900
C 	C 	0.39220 0.53220 0.89030 -0.12000
H 	H 	0.40270 0.51340 0.91890 0.10200
C 	C 	0.41710 0.55370 0.86240 0.08100
H 	H 	0.44440 0.55100 0.87290 -0.00800
C 	C 	0.36340 0.58450 0.80480 0.06400
H 	H 	0.35380 0.60150 0.77580 0.00800
C 	C 	0.33770 0.56570 0.83140 -0.11600
H 	H 	0.31060 0.57100 0.82010 0.09200
C 	C 	0.31760 0.36230 0.98800 0.05400
C 	C 	0.28980 0.33310 0.00970 -0.11100
H 	H 	0.26600 0.36430 0.00660 0.07800
C 	C 	0.29740 0.25560 0.03680 0.07700
H 	H 	0.27790 0.23530 0.05040 -0.00100
C 	C 	0.36040 0.24010 0.02440 0.05400
H 	H 	0.38470 0.21040 0.03050 0.00300
C 	C 	0.35400 0.31720 0.99480 -0.09800
H 	H 	0.37350 0.33600 0.98070 0.08300
C 	C 	0.37010 0.27190 0.14790 0.07600
H 	H 	0.35000 0.30130 0.12790 0.01300
C 	C 	0.39240 0.32220 0.18230 -0.11400
H 	H 	0.38830 0.38440 0.18420 0.10500
C 	C 	0.42130 0.27810 0.21410 0.05900
C 	C 	0.42730 0.18560 0.20840 -0.12300
H 	H 	0.44650 0.15390 0.22850 0.07800
C 	C 	0.40470 0.14220 0.17290 0.06900
H 	H 	0.40920 0.08050 0.16970 0.00400
C 	C 	0.44540 0.32690 0.25030 0.10200
C 	C 	0.46130 0.45920 0.28720 0.09900
C 	C 	0.49810 0.33260 0.30930 0.07900
C 	C 	0.45560 0.55680 0.29110 0.06400
C 	C 	0.42310 0.59770 0.26410 -0.12600
H 	H 	0.40410 0.56240 0.24560 0.09300
C 	C 	0.41900 0.69240 0.26460 0.07700
H 	H 	0.39610 0.71850 0.24790 -0.00200
C 	C 	0.47840 0.70590 0.31490 0.06800
H 	H 	0.49740 0.74270 0.33240 -0.00200
C 	C 	0.48330 0.61420 0.31690 -0.12700
H 	H 	0.50550 0.58960 0.33580 0.08800
C 	C 	0.53790 0.19480 0.32970 -0.11600
H 	H 	0.52390 0.16500 0.30480 0.09400
C 	C 	0.52880 0.28490 0.33920 0.06300
C 	C 	0.55080 0.32460 0.37690 -0.13300
H 	H 	0.54580 0.38450 0.38330 0.11200
C 	C 	0.58000 0.27700 0.40500 0.10700
H 	H 	0.59300 0.30460 0.43100 0.00300
C 	C 	0.56850 0.15280 0.35900 0.06200
H 	H 	0.57480 0.09330 0.35330 0.01900
C 	C 	0.68800 0.27520 0.46970 0.06700
H 	H 	0.66960 0.28670 0.48640 0.00600
C 	C 	0.71940 0.33650 0.47260 -0.11000
H 	H 	0.72350 0.38460 0.49230 0.08100
C 	C 	0.74460 0.32040 0.44340 0.05400
C 	C 	0.74150 0.24420 0.41890 -0.10200
H 	H 	0.75970 0.23240 0.40210 0.08600
C 	C 	0.70960 0.18090 0.41890 0.04600
H 	H 	0.70690 0.12820 0.40210 0.01100
C 	C 	0.77680 0.38840 0.44410 0.11600
C 	C 	0.80910 0.51460 0.46970 0.10500
C 	C 	0.82390 0.44480 0.41260 0.12900
C 	C 	0.81320 0.59770 0.49730 0.07100
C 	C 	0.78700 0.61030 0.52800 -0.14900
H 	H 	0.76950 0.56540 0.53240 0.09700
C 	C 	0.79000 0.68850 0.54840 0.12100
H 	H 	0.76980 0.70250 0.56220 -0.01700
C 	C 	0.84430 0.73510 0.52640 0.07600
H 	H 	0.86480 0.77660 0.52800 -0.00200
C 	C 	0.84150 0.66260 0.49890 -0.12800
H 	H 	0.85920 0.65730 0.48090 0.09200
C 	C 	0.84740 0.43600 0.37920 0.06900
C 	C 	0.88550 0.46990 0.38710 -0.13200
H 	H 	0.89710 0.49500 0.41420 0.09800
C 	C 	0.90600 0.46630 0.35490 0.09600
H 	H 	0.93090 0.49310 0.36040 -0.00700
C 	C 	0.85620 0.38810 0.30720 0.05400
H 	H 	0.84670 0.35810 0.28080 0.00200
C 	C 	0.83350 0.39510 0.33910 -0.10800
H 	H 	0.80810 0.37100 0.33270 0.08900
N 	N 	0.86660 0.78520 0.64640 -0.27600
N 	N 	0.94180 0.21340 0.77120 -0.26200
N 	N 	0.08580 0.76120 0.89730 -0.26200
N 	N 	0.97300 0.67780 0.77490 -0.13200
N 	N 	0.93820 0.54330 0.74740 -0.13200
N 	N 	0.99080 0.53590 0.81000 -0.13600
N 	N 	0.17950 0.74520 0.93720 -0.26300
N 	N 	0.40230 0.57760 0.82170 -0.26700
N 	N 	0.33100 0.21110 0.04340 -0.26300
N 	N 	0.29410 0.57930 0.90200 -0.12900
N 	N 	0.28160 0.49820 0.96300 -0.14300
N 	N 	0.33500 0.45490 0.93120 -0.12800
N 	N 	0.37600 0.18270 0.14190 -0.26000
N 	N 	0.44610 0.74600 0.28780 -0.26800
N 	N 	0.59030 0.19490 0.39680 -0.26300
N 	N 	0.47520 0.28420 0.27560 -0.14100
N 	N 	0.43460 0.41440 0.25480 -0.12600
N 	N 	0.49090 0.42120 0.31470 -0.13700
N 	N 	0.68320 0.20110 0.44440 -0.25700
N 	N 	0.81760 0.74800 0.55170 -0.27500
N 	N 	0.89300 0.42760 0.31700 -0.26500
N 	N 	0.79600 0.37900 0.41060 -0.12600
N 	N 	0.78390 0.45130 0.47380 -0.14400
N 	N 	0.83110 0.51170 0.43820 -0.13400
Zn	Zn	0.82719 0.84821 0.59841 1.19400
Zn	Zn	0.13169 0.82805 0.93818 1.19100
Zn	Zn	0.34471 0.11126 0.08919 1.19400
Zn	Zn	0.44027 0.88616 0.28234 1.17100
Zn	Zn	0.63368 0.12394 0.43989 1.19100
Zn	Zn	0.92442 0.42282 0.26881 1.19000
Br	Br	0.38950 0.89800 0.20320 -0.64700
Br	Br	0.49270 0.96620 0.29930 -0.06100
Br	Br	0.14146 0.03176 0.42898 -0.46800
Br	Br	0.23126 0.13830 0.37637 -0.44600
Br	Br	0.88080 0.18336 0.99160 -0.46000
Br	Br	0.71500 0.93590 0.89478 -0.44500
Br	Br	0.61094 0.99165 0.93031 -0.46900
Br	Br	0.59243 0.08840 0.78984 0.22100
Br	Br	0.38192 0.86005 0.49156 -0.46300
Br	Br	0.35666 0.01505 0.59306 -0.47800
Br	Br	0.02048 0.48378 0.70669 -0.48500
Br	Br	0.85983 0.03626 0.09778 -0.48100
Br	Br	0.49763 0.04250 0.68900 -0.41100
Br	Br	0.12172 0.56197 0.79843 -0.48300
C 	C 	0.13700 0.30440 0.34830 0.08900
H 	H 	0.15810 0.33350 0.36690 -0.00200
C 	C 	0.11180 0.35760 0.31720 -0.13400
H 	H 	0.11490 0.42020 0.31610 0.11000
C 	C 	0.08180 0.31290 0.28780 0.07400
C 	C 	0.07730 0.21760 0.29200 -0.14800
H 	H 	0.05760 0.18510 0.27310 0.10000
C 	C 	0.10390 0.17610 0.32570 0.09900
H 	H 	0.10070 0.11400 0.32910 -0.00300
C 	C 	0.05660 0.36650 0.25300 0.09800
C 	C 	0.03850 0.50100 0.22160 0.11200
C 	C 	0.00610 0.37450 0.19150 0.08900
C 	C 	0.04310 0.60080 0.22390 0.07000
C 	C 	0.06570 0.64170 0.25980 -0.14200
H 	H 	0.07660 0.60640 0.28410 0.10400
C 	C 	0.07280 0.73180 0.26110 0.09800
H 	H 	0.08900 0.75610 0.28640 -0.00900
C 	C 	0.03310 0.75060 0.19200 0.06600
H 	H 	0.02170 0.78970 0.16940 -0.00200
C 	C 	0.02440 0.65890 0.18750 -0.11800
H 	H 	0.00740 0.63560 0.16250 0.08600
C 	C 	0.97450 0.32980 0.15920 0.06000
C 	C 	0.94500 0.37650 0.13240 -0.12500
H 	H 	0.94510 0.43970 0.13250 0.10000
C 	C 	0.91470 0.32920 0.10480 0.08200
H 	H 	0.89410 0.36160 0.08710 0.01700
C 	C 	0.94390 0.18980 0.12850 0.07200
H 	H 	0.94380 0.12680 0.12640 0.00700
C 	C 	0.97390 0.23250 0.15780 -0.12600
H 	H 	0.99350 0.19880 0.17630 0.10800
C 	C 	0.80230 0.25110 0.09520 0.10000
H 	H 	0.81040 0.20750 0.11680 -0.01200
C 	C 	0.77270 0.30740 0.09850 -0.13600
H 	H 	0.76050 0.30150 0.12180 0.09800
C 	C 	0.76050 0.37340 0.06760 0.06300
C 	C 	0.77700 0.37600 0.02950 -0.11000
H 	H 	0.76740 0.41540 0.00630 0.08200
C 	C 	0.80790 0.31640 0.02940 0.06500
H 	H 	0.82050 0.31810 0.00620 0.01200
C 	C 	0.72590 0.43690 0.06670 0.10800
C 	C 	0.68890 0.55910 0.04010 0.10300
C 	C 	0.67500 0.47570 0.09510 0.12600
C 	C 	0.64870 0.46070 0.12570 0.06900
C 	C 	0.60780 0.46780 0.10970 -0.12000
H 	H 	0.59730 0.48660 0.08110 0.10200
C 	C 	0.58290 0.44630 0.13760 0.08100
H 	H 	0.55560 0.44900 0.12710 -0.00800
C 	C 	0.63660 0.41550 0.19520 0.06400
H 	H 	0.64620 0.39850 0.22420 0.00800
C 	C 	0.66230 0.43430 0.16860 -0.11600
H 	H 	0.68940 0.42900 0.17990 0.09200
C 	C 	0.68240 0.63770 0.01200 0.05400
C 	C 	0.71020 0.66690 0.99030 -0.11100
H 	H 	0.73400 0.63570 0.99340 0.07800
C 	C 	0.70260 0.74440 0.96320 0.07700
H 	H 	0.72210 0.76470 0.94960 -0.00100
C 	C 	0.63960 0.75990 0.97560 0.05400
H 	H 	0.61530 0.78960 0.96950 0.00300
C 	C 	0.64600 0.68280 0.00520 -0.09800
H 	H 	0.62650 0.66400 0.01930 0.08300
C 	C 	0.62990 0.72810 0.85210 0.07600
H 	H 	0.65000 0.69870 0.87210 0.01300
C 	C 	0.60760 0.67780 0.81770 -0.11400
H 	H 	0.61170 0.61560 0.81580 0.10500
C 	C 	0.57870 0.72190 0.78590 0.05900
C 	C 	0.57270 0.81440 0.79160 -0.12300
H 	H 	0.55350 0.84610 0.77150 0.07800
C 	C 	0.59530 0.85780 0.82710 0.06900
H 	H 	0.59080 0.91950 0.83030 0.00400
C 	C 	0.55460 0.67310 0.74970 0.10200
C 	C 	0.53870 0.54080 0.71280 0.09900
C 	C 	0.50190 0.66740 0.69070 0.07900
C 	C 	0.54440 0.44320 0.70890 0.06400
C 	C 	0.57690 0.40230 0.73590 -0.12600
H 	H 	0.59590 0.43760 0.75440 0.09300
C 	C 	0.58100 0.30760 0.73540 0.07700
H 	H 	0.60390 0.28150 0.75210 -0.00200
C 	C 	0.52160 0.29410 0.68510 0.06800
H 	H 	0.50260 0.25730 0.66760 -0.00200
C 	C 	0.51670 0.38580 0.68310 -0.12700
H 	H 	0.49450 0.41040 0.66420 0.08800
C 	C 	0.46210 0.80520 0.67030 -0.11600
H 	H 	0.47610 0.83500 0.69520 0.09400
C 	C 	0.47120 0.71510 0.66080 0.06300
C 	C 	0.44920 0.67540 0.62310 -0.13300
H 	H 	0.45420 0.61550 0.61670 0.11200
C 	C 	0.42000 0.72300 0.59500 0.10700
H 	H 	0.40700 0.69540 0.56900 0.00300
C 	C 	0.43150 0.84720 0.64100 0.06200
H 	H 	0.42520 0.90670 0.64670 0.01900
C 	C 	0.31200 0.72480 0.53030 0.06700
H 	H 	0.33040 0.71330 0.51360 0.00600
C 	C 	0.28060 0.66350 0.52740 -0.11000
H 	H 	0.27650 0.61540 0.50770 0.08100
C 	C 	0.25540 0.67960 0.55660 0.05400
C 	C 	0.25850 0.75580 0.58110 -0.10200
H 	H 	0.24030 0.76760 0.59790 0.08600
C 	C 	0.29040 0.81910 0.58110 0.04600
H 	H 	0.29310 0.87180 0.59790 0.01100
C 	C 	0.22320 0.61160 0.55590 0.11600
C 	C 	0.19090 0.48540 0.53030 0.10500
C 	C 	0.17610 0.55520 0.58740 0.12900
C 	C 	0.18680 0.40230 0.50270 0.07100
C 	C 	0.21300 0.38970 0.47200 -0.14900
H 	H 	0.23050 0.43460 0.46760 0.09700
C 	C 	0.21000 0.31150 0.45160 0.12100
H 	H 	0.23020 0.29750 0.43780 -0.01700
C 	C 	0.15570 0.26490 0.47360 0.07600
H 	H 	0.13520 0.22340 0.47200 -0.00200
C 	C 	0.15850 0.33740 0.50110 -0.12800
H 	H 	0.14080 0.34270 0.51910 0.09200
C 	C 	0.15260 0.56400 0.62080 0.06900
C 	C 	0.11450 0.53010 0.61290 -0.13200
H 	H 	0.10290 0.50500 0.58580 0.09800
C 	C 	0.09400 0.53370 0.64510 0.09600
H 	H 	0.06910 0.50690 0.63960 -0.00700
C 	C 	0.14380 0.61190 0.69280 0.05400
H 	H 	0.15330 0.64190 0.71920 0.00200
C 	C 	0.16650 0.60490 0.66090 -0.10800
H 	H 	0.19190 0.62900 0.66730 0.08900
N 	N 	0.13340 0.21480 0.35360 -0.27600
N 	N 	0.05820 0.78660 0.22880 -0.26200
N 	N 	0.91420 0.23880 0.10270 -0.26200
N 	N 	0.02700 0.32220 0.22510 -0.13200
N 	N 	0.06180 0.45670 0.25260 -0.13200
N 	N 	0.00920 0.46410 0.19000 -0.13600
N 	N 	0.82050 0.25480 0.06280 -0.26300
N 	N 	0.59770 0.42240 0.17830 -0.26700
N 	N 	0.66900 0.78890 0.95660 -0.26300
N 	N 	0.70590 0.42070 0.09800 -0.12900
N 	N 	0.71840 0.50180 0.03700 -0.14300
N 	N 	0.66500 0.54510 0.06880 -0.12800
N 	N 	0.62400 0.81730 0.85810 -0.26000
N 	N 	0.55390 0.25400 0.71220 -0.26800
N 	N 	0.40970 0.80510 0.60320 -0.26300
N 	N 	0.52480 0.71580 0.72440 -0.14100
N 	N 	0.56540 0.58560 0.74520 -0.12600
N 	N 	0.50910 0.57880 0.68530 -0.13700
N 	N 	0.31680 0.79890 0.55560 -0.25700
N 	N 	0.18240 0.25200 0.44830 -0.27500
N 	N 	0.10700 0.57240 0.68300 -0.26500
N 	N 	0.20400 0.62100 0.58940 -0.12600
N 	N 	0.21610 0.54870 0.52620 -0.14400
N 	N 	0.16890 0.48830 0.56180 -0.13400
Zn	Zn	0.17281 0.15179 0.40159 1.19400
Zn	Zn	0.86831 0.17195 0.06182 1.19100
Zn	Zn	0.65529 0.88874 0.91081 1.19400
Zn	Zn	0.55973 0.11384 0.71766 1.17100
Zn	Zn	0.36632 0.87606 0.56011 1.19100
Zn	Zn	0.07558 0.57718 0.73119 1.19000
Br	Br	0.61050 0.10200 0.79680 -0.64700
Br	Br	0.50730 0.03380 0.70070 -0.06100
Br	Br	0.14146 0.46824 0.92898 -0.46800
Br	Br	0.23126 0.36170 0.87637 -0.44700
Br	Br	0.88080 0.31664 0.49160 -0.46000
Br	Br	0.71500 0.56410 0.39478 -0.44500
Br	Br	0.61094 0.50835 0.43031 -0.46900
Br	Br	0.59243 0.41160 0.28984 0.22100
Br	Br	0.38192 0.63995 0.99156 -0.46300
Br	Br	0.35666 0.48495 0.09306 -0.47800
Br	Br	0.02048 0.01622 0.20669 -0.48400
Br	Br	0.85983 0.46374 0.59778 -0.48100
Br	Br	0.49763 0.45750 0.18900 -0.41100
Br	Br	0.12172 0.93803 0.29843 -0.48400
C 	C 	0.13700 0.19560 0.84830 0.08900
H 	H 	0.15810 0.16650 0.86690 -0.00200
C 	C 	0.11180 0.14240 0.81720 -0.13400
H 	H 	0.11490 0.07980 0.81610 0.11000
C 	C 	0.08180 0.18710 0.78780 0.07400
C 	C 	0.07730 0.28240 0.79200 -0.14800
H 	H 	0.05760 0.31490 0.77310 0.10000
C 	C 	0.10390 0.32390 0.82570 0.09900
H 	H 	0.10070 0.38600 0.82910 -0.00300
C 	C 	0.05660 0.13350 0.75300 0.09800
C 	C 	0.03850 0.99900 0.72160 0.11100
C 	C 	0.00610 0.12550 0.69150 0.08900
C 	C 	0.04310 0.89920 0.72390 0.07000
C 	C 	0.06570 0.85830 0.75980 -0.14200
H 	H 	0.07660 0.89360 0.78410 0.10400
C 	C 	0.07280 0.76820 0.76110 0.09800
H 	H 	0.08900 0.74390 0.78640 -0.00900
C 	C 	0.03310 0.74940 0.69200 0.06600
H 	H 	0.02170 0.71030 0.66940 -0.00200
C 	C 	0.02440 0.84110 0.68750 -0.11900
H 	H 	0.00740 0.86440 0.66250 0.08600
C 	C 	0.97450 0.17020 0.65920 0.06000
C 	C 	0.94500 0.12350 0.63240 -0.12500
H 	H 	0.94510 0.06030 0.63250 0.10000
C 	C 	0.91470 0.17080 0.60480 0.08200
H 	H 	0.89410 0.13840 0.58710 0.01700
C 	C 	0.94390 0.31020 0.62850 0.07200
H 	H 	0.94380 0.37320 0.62640 0.00700
C 	C 	0.97390 0.26750 0.65780 -0.12600
H 	H 	0.99350 0.30120 0.67630 0.10800
C 	C 	0.80230 0.24890 0.59520 0.10000
H 	H 	0.81040 0.29250 0.61680 -0.01200
C 	C 	0.77270 0.19260 0.59850 -0.13600
H 	H 	0.76050 0.19850 0.62180 0.09800
C 	C 	0.76050 0.12660 0.56760 0.06300
C 	C 	0.77700 0.12400 0.52950 -0.11000
H 	H 	0.76740 0.08460 0.50630 0.08200
C 	C 	0.80790 0.18360 0.52940 0.06500
H 	H 	0.82050 0.18190 0.50620 0.01100
C 	C 	0.72590 0.06310 0.56670 0.10800
C 	C 	0.68890 0.94090 0.54010 0.10300
C 	C 	0.67500 0.02430 0.59510 0.12500
C 	C 	0.64870 0.03930 0.62570 0.06900
C 	C 	0.60780 0.03220 0.60970 -0.12000
H 	H 	0.59730 0.01340 0.58110 0.10100
C 	C 	0.58290 0.05370 0.63760 0.08100
H 	H 	0.55560 0.05100 0.62710 -0.00900
C 	C 	0.63660 0.08450 0.69520 0.06400
H 	H 	0.64620 0.10150 0.72420 0.00800
C 	C 	0.66230 0.06570 0.66860 -0.11600
H 	H 	0.68940 0.07100 0.67990 0.09200
C 	C 	0.68240 0.86230 0.51200 0.05400
C 	C 	0.71020 0.83310 0.49030 -0.11100
H 	H 	0.73400 0.86430 0.49340 0.07800
C 	C 	0.70260 0.75560 0.46320 0.07700
H 	H 	0.72210 0.73530 0.44960 -0.00100
C 	C 	0.63960 0.74010 0.47560 0.05400
H 	H 	0.61530 0.71040 0.46950 0.00300
C 	C 	0.64600 0.81720 0.50520 -0.09800
H 	H 	0.62650 0.83600 0.51930 0.08300
C 	C 	0.62990 0.77190 0.35210 0.07600
H 	H 	0.65000 0.80130 0.37210 0.01300
C 	C 	0.60760 0.82220 0.31770 -0.11400
H 	H 	0.61170 0.88440 0.31580 0.10500
C 	C 	0.57870 0.77810 0.28590 0.05900
C 	C 	0.57270 0.68560 0.29160 -0.12300
H 	H 	0.55350 0.65390 0.27150 0.07800
C 	C 	0.59530 0.64220 0.32710 0.06900
H 	H 	0.59080 0.58050 0.33030 0.00400
C 	C 	0.55460 0.82690 0.24970 0.10200
C 	C 	0.53870 0.95920 0.21280 0.09900
C 	C 	0.50190 0.83260 0.19070 0.07900
C 	C 	0.54440 0.05680 0.20890 0.06400
C 	C 	0.57690 0.09770 0.23590 -0.12500
H 	H 	0.59590 0.06240 0.25440 0.09300
C 	C 	0.58100 0.19240 0.23540 0.07700
H 	H 	0.60390 0.21850 0.25210 -0.00200
C 	C 	0.52160 0.20590 0.18510 0.06800
H 	H 	0.50260 0.24270 0.16760 -0.00200
C 	C 	0.51670 0.11420 0.18310 -0.12700
H 	H 	0.49450 0.08960 0.16420 0.08800
C 	C 	0.46210 0.69480 0.17030 -0.11600
H 	H 	0.47610 0.66500 0.19520 0.09400
C 	C 	0.47120 0.78490 0.16080 0.06300
C 	C 	0.44920 0.82460 0.12310 -0.13300
H 	H 	0.45420 0.88450 0.11670 0.11200
C 	C 	0.42000 0.77700 0.09500 0.10700
H 	H 	0.40700 0.80460 0.06900 0.00300
C 	C 	0.43150 0.65280 0.14100 0.06200
H 	H 	0.42520 0.59330 0.14670 0.01900
C 	C 	0.31200 0.77520 0.03030 0.06700
H 	H 	0.33040 0.78670 0.01360 0.00600
C 	C 	0.28060 0.83650 0.02740 -0.11000
H 	H 	0.27650 0.88460 0.00770 0.08100
C 	C 	0.25540 0.82040 0.05660 0.05400
C 	C 	0.25850 0.74420 0.08110 -0.10200
H 	H 	0.24030 0.73240 0.09790 0.08600
C 	C 	0.29040 0.68090 0.08110 0.04600
H 	H 	0.29310 0.62820 0.09790 0.01100
C 	C 	0.22320 0.88840 0.05590 0.11600
C 	C 	0.19090 0.01460 0.03030 0.10600
C 	C 	0.17610 0.94480 0.08740 0.12800
C 	C 	0.18680 0.09770 0.00270 0.07100
C 	C 	0.21300 0.11030 0.97200 -0.14900
H 	H 	0.23050 0.06540 0.96760 0.09700
C 	C 	0.21000 0.18850 0.95160 0.12100
H 	H 	0.23020 0.20250 0.93780 -0.01700
C 	C 	0.15570 0.23510 0.97360 0.07600
H 	H 	0.13520 0.27660 0.97200 -0.00200
C 	C 	0.15850 0.16260 0.00110 -0.12800
H 	H 	0.14080 0.15730 0.01910 0.09200
C 	C 	0.15260 0.93600 0.12080 0.06900
C 	C 	0.11450 0.96990 0.11290 -0.13200
H 	H 	0.10290 0.99500 0.08580 0.09800
C 	C 	0.09400 0.96630 0.14510 0.09600
H 	H 	0.06910 0.99310 0.13960 -0.00800
C 	C 	0.14380 0.88810 0.19280 0.05400
H 	H 	0.15330 0.85810 0.21920 0.00200
C 	C 	0.16650 0.89510 0.16090 -0.10800
H 	H 	0.19190 0.87100 0.16730 0.08900
N 	N 	0.13340 0.28520 0.85360 -0.27600
N 	N 	0.05820 0.71340 0.72880 -0.26200
N 	N 	0.91420 0.26120 0.60270 -0.26200
N 	N 	0.02700 0.17780 0.72510 -0.13200
N 	N 	0.06180 0.04330 0.75260 -0.13200
N 	N 	0.00920 0.03590 0.69000 -0.13600
N 	N 	0.82050 0.24520 0.56280 -0.26300
N 	N 	0.59770 0.07760 0.67830 -0.26700
N 	N 	0.66900 0.71110 0.45660 -0.26300
N 	N 	0.70590 0.07930 0.59800 -0.12900
N 	N 	0.71840 0.99820 0.53700 -0.14200
N 	N 	0.66500 0.95490 0.56880 -0.12800
N 	N 	0.62400 0.68270 0.35810 -0.26000
N 	N 	0.55390 0.24600 0.21220 -0.26800
N 	N 	0.40970 0.69490 0.10320 -0.26200
N 	N 	0.52480 0.78420 0.22440 -0.14100
N 	N 	0.56540 0.91440 0.24520 -0.12600
N 	N 	0.50910 0.92120 0.18530 -0.13700
N 	N 	0.31680 0.70110 0.05560 -0.25700
N 	N 	0.18240 0.24800 0.94830 -0.27500
N 	N 	0.10700 0.92760 0.18300 -0.26500
N 	N 	0.20400 0.87900 0.08940 -0.12600
N 	N 	0.21610 0.95130 0.02620 -0.14500
N 	N 	0.16890 0.01170 0.06180 -0.13400
Zn	Zn	0.17281 0.34821 0.90159 1.19400
Zn	Zn	0.86831 0.32805 0.56182 1.19100
Zn	Zn	0.65529 0.61126 0.41081 1.19400
Zn	Zn	0.55973 0.38616 0.21766 1.17100
Zn	Zn	0.36632 0.62394 0.06011 1.19200
Zn	Zn	0.07558 0.92282 0.23119 1.18900
Br	Br	0.61050 0.39800 0.29680 -0.64700
Br	Br	0.50730 0.46620 0.20070 -0.06100
