data_crystal

_cell_length_a 34.89500
_cell_length_b 14.65530
_cell_length_c 31.39300
_cell_angle_alpha 90.00000
_cell_angle_beta  101.49100
_cell_angle_gamma 90.00000

_symmetry_space_group_name_	'P 1'
_symmetry_space_group_name_H-M	'P 1'

loop_
_symmetry_equiv_pos_as_xyz
  x,y,z

loop_
_atom_site_label
_atom_site_type_symbol
_atom_site_fract_x
_atom_site_fract_y
_atom_site_fract_z
_atom_site_charge
C 	C 	0.24180 0.59000 0.30260 0.08400
C 	C 	0.19410 0.57990 0.24370 0.09900
C 	C 	0.20530 0.71330 0.27910 0.10600
C 	C 	0.19680 0.81230 0.28000 0.06300
C 	C 	0.16230 0.84630 0.25460 -0.13500
H 	H 	0.14390 0.80680 0.23890 0.08900
C 	C 	0.15590 0.93840 0.25300 0.07800
H 	H 	0.13300 0.96020 0.23560 -0.01900
C 	C 	0.21410 0.96660 0.30020 0.07300
H 	H 	0.23200 0.00790 0.31540 -0.01200
C 	C 	0.22220 0.87440 0.30360 -0.13000
H 	H 	0.24490 0.85410 0.32190 0.08300
C 	C 	0.27350 0.54610 0.33450 0.05900
C 	C 	0.28450 0.45650 0.32760 -0.14900
H 	H 	0.27250 0.42460 0.30300 0.10400
C 	C 	0.31330 0.41670 0.35780 0.09100
H 	H 	0.32050 0.35690 0.35320 -0.01200
C 	C 	0.32110 0.54560 0.40020 0.07400
H 	H 	0.33370 0.57570 0.42510 -0.00300
C 	C 	0.29240 0.59110 0.37130 -0.13000
H 	H 	0.28600 0.65110 0.37660 0.09000
C 	C 	0.17110 0.52860 0.20680 0.06900
C 	C 	0.14260 0.57360 0.17610 -0.14000
H 	H 	0.13850 0.63600 0.17820 0.10200
C 	C 	0.12120 0.52410 0.14340 0.08700
H 	H 	0.10230 0.55460 0.12340 -0.00800
C 	C 	0.15260 0.39190 0.16600 0.08400
H 	H 	0.15650 0.32990 0.16210 -0.01800
C 	C 	0.17550 0.43590 0.20110 -0.14600
H 	H 	0.19380 0.40310 0.22080 0.08900
C 	C 	0.51790 0.66340 0.44430 0.08700
C 	C 	0.55210 0.79110 0.46650 0.08900
C 	C 	0.56790 0.70570 0.41290 0.09800
C 	C 	0.48420 0.60270 0.44490 0.06200
C 	C 	0.46940 0.59110 0.48200 -0.13800
H 	H 	0.48070 0.62000 0.50790 0.08600
C 	C 	0.43670 0.53380 0.47930 0.08600
H 	H 	0.42630 0.52580 0.50410 -0.00900
C 	C 	0.43400 0.50560 0.40750 0.08600
H 	H 	0.42170 0.47790 0.38170 -0.01600
C 	C 	0.46580 0.55960 0.40700 -0.14100
H 	H 	0.47510 0.56750 0.38150 0.09700
C 	C 	0.59230 0.68760 0.38040 0.08700
C 	C 	0.61230 0.75780 0.36430 -0.14700
H 	H 	0.61120 0.81710 0.37450 0.09700
C 	C 	0.63320 0.73880 0.33400 0.09300
H 	H 	0.64630 0.78640 0.32350 -0.02300
C 	C 	0.61790 0.58750 0.33380 0.10200
H 	H 	0.62030 0.52860 0.32370 -0.02300
C 	C 	0.59570 0.60110 0.36440 -0.14900
H 	H 	0.58300 0.55220 0.37440 0.09800
C 	C 	0.55770 0.87440 0.49330 0.05800
C 	C 	0.53190 0.89600 0.52040 -0.12400
H 	H 	0.51010 0.85960 0.52080 0.07800
C 	C 	0.53910 0.97250 0.54690 0.07400
H 	H 	0.52190 0.98640 0.56510 -0.00900
C 	C 	0.59360 0.00720 0.51990 0.07600
H 	H 	0.61440 0.04640 0.51900 -0.01400
C 	C 	0.58880 0.93200 0.49310 -0.13100
H 	H 	0.60640 0.92040 0.47500 0.08700
I 	I 	0.12022 0.15173 0.19573 -0.40500
I 	I 	0.22737 0.23555 0.29022 -0.37800
I 	I 	0.02628 0.34748 0.12988 -0.34900
I 	I 	0.11951 0.25063 0.05567 -0.38200
I 	I 	0.35190 0.40435 0.51126 -0.36900
I 	I 	0.39850 0.26130 0.40293 -0.37900
N 	N 	0.22310 0.53950 0.26980 -0.14000
N 	N 	0.18340 0.66730 0.24690 -0.13500
N 	N 	0.23390 0.67890 0.30870 -0.13900
N 	N 	0.33150 0.45930 0.39350 -0.27600
N 	N 	0.12530 0.43490 0.13790 -0.27500
N 	N 	0.18070 0.99820 0.27510 -0.27300
N 	N 	0.53970 0.64450 0.41490 -0.13200
N 	N 	0.57420 0.78180 0.43680 -0.13300
N 	N 	0.52390 0.73320 0.47220 -0.14600
N 	N 	0.41970 0.49070 0.44340 -0.27800
N 	N 	0.63630 0.65460 0.31790 -0.28200
N 	N 	0.56990 0.02670 0.54730 -0.27200
Zn	Zn	0.16684 0.13635 0.26845 1.16400
Zn	Zn	0.08379 0.36752 0.09200 1.16400
Zn	Zn	0.37456 0.39960 0.43974 1.16500
C 	C 	0.74180 0.09000 0.30260 0.08600
C 	C 	0.69410 0.07990 0.24370 0.10000
C 	C 	0.70530 0.21330 0.27910 0.10700
C 	C 	0.69680 0.31230 0.28000 0.06400
C 	C 	0.66230 0.34630 0.25460 -0.13300
H 	H 	0.64390 0.30680 0.23890 0.09000
C 	C 	0.65590 0.43840 0.25300 0.07800
H 	H 	0.63300 0.46020 0.23560 -0.01800
C 	C 	0.71410 0.46660 0.30020 0.07300
H 	H 	0.73200 0.50790 0.31540 -0.01100
C 	C 	0.72220 0.37440 0.30360 -0.12900
H 	H 	0.74490 0.35410 0.32190 0.08400
C 	C 	0.77350 0.04610 0.33450 0.06000
C 	C 	0.78450 0.95650 0.32760 -0.14700
H 	H 	0.77250 0.92460 0.30300 0.10400
C 	C 	0.81330 0.91670 0.35780 0.09000
H 	H 	0.82050 0.85690 0.35320 -0.01200
C 	C 	0.82110 0.04560 0.40020 0.07300
H 	H 	0.83370 0.07570 0.42510 -0.00300
C 	C 	0.79240 0.09110 0.37130 -0.13000
H 	H 	0.78600 0.15110 0.37660 0.09000
C 	C 	0.67110 0.02860 0.20680 0.06800
C 	C 	0.64260 0.07360 0.17610 -0.14000
H 	H 	0.63850 0.13600 0.17820 0.10200
C 	C 	0.62120 0.02410 0.14340 0.08600
H 	H 	0.60230 0.05460 0.12340 -0.00800
C 	C 	0.65260 0.89190 0.16600 0.08400
H 	H 	0.65650 0.82990 0.16210 -0.01800
C 	C 	0.67550 0.93590 0.20110 -0.14500
H 	H 	0.69380 0.90310 0.22080 0.08900
C 	C 	0.01790 0.16340 0.44430 0.08700
C 	C 	0.05210 0.29110 0.46650 0.08900
C 	C 	0.06790 0.20570 0.41290 0.09800
C 	C 	0.98420 0.10270 0.44490 0.06100
C 	C 	0.96940 0.09110 0.48200 -0.13800
H 	H 	0.98070 0.12000 0.50790 0.08600
C 	C 	0.93670 0.03380 0.47930 0.08600
H 	H 	0.92630 0.02580 0.50410 -0.00900
C 	C 	0.93400 0.00560 0.40750 0.08500
H 	H 	0.92170 0.97790 0.38170 -0.01500
C 	C 	0.96580 0.05960 0.40700 -0.14000
H 	H 	0.97510 0.06750 0.38150 0.09700
C 	C 	0.09230 0.18760 0.38040 0.08700
C 	C 	0.11230 0.25780 0.36430 -0.14700
H 	H 	0.11120 0.31710 0.37450 0.09700
C 	C 	0.13320 0.23880 0.33400 0.09300
H 	H 	0.14630 0.28640 0.32350 -0.02300
C 	C 	0.11790 0.08750 0.33380 0.10200
H 	H 	0.12030 0.02860 0.32370 -0.02300
C 	C 	0.09570 0.10110 0.36440 -0.14900
H 	H 	0.08300 0.05220 0.37440 0.09800
C 	C 	0.05770 0.37440 0.49330 0.05800
C 	C 	0.03190 0.39600 0.52040 -0.12400
H 	H 	0.01010 0.35960 0.52080 0.07800
C 	C 	0.03910 0.47250 0.54690 0.07400
H 	H 	0.02190 0.48640 0.56510 -0.00900
C 	C 	0.09360 0.50720 0.51990 0.07600
H 	H 	0.11440 0.54640 0.51900 -0.01400
C 	C 	0.08880 0.43200 0.49310 -0.13100
H 	H 	0.10640 0.42040 0.47500 0.08700
I 	I 	0.62022 0.65173 0.19573 -0.40500
I 	I 	0.72737 0.73555 0.29022 -0.37800
I 	I 	0.52628 0.84748 0.12988 -0.34900
I 	I 	0.61951 0.75063 0.05567 -0.38200
I 	I 	0.85190 0.90435 0.51126 -0.36900
I 	I 	0.89850 0.76130 0.40293 -0.37900
N 	N 	0.72310 0.03950 0.26980 -0.14000
N 	N 	0.68340 0.16730 0.24690 -0.13600
N 	N 	0.73390 0.17890 0.30870 -0.13900
N 	N 	0.83150 0.95930 0.39350 -0.27600
N 	N 	0.62530 0.93490 0.13790 -0.27500
N 	N 	0.68070 0.49820 0.27510 -0.27300
N 	N 	0.03970 0.14450 0.41490 -0.13200
N 	N 	0.07420 0.28180 0.43680 -0.13300
N 	N 	0.02390 0.23320 0.47220 -0.14600
N 	N 	0.91970 0.99070 0.44340 -0.27800
N 	N 	0.13630 0.15460 0.31790 -0.28200
N 	N 	0.06990 0.52670 0.54730 -0.27200
Zn	Zn	0.66684 0.63635 0.26845 1.16400
Zn	Zn	0.58379 0.86752 0.09200 1.16400
Zn	Zn	0.87456 0.89960 0.43974 1.16500
C 	C 	0.24180 0.41000 0.80260 0.08500
C 	C 	0.19410 0.42010 0.74370 0.10000
C 	C 	0.20530 0.28670 0.77910 0.10700
C 	C 	0.19680 0.18770 0.78000 0.06400
C 	C 	0.16230 0.15370 0.75460 -0.13400
H 	H 	0.14390 0.19320 0.73890 0.09000
C 	C 	0.15590 0.06160 0.75300 0.07900
H 	H 	0.13300 0.03980 0.73560 -0.01800
C 	C 	0.21410 0.03340 0.80020 0.07400
H 	H 	0.23200 0.99210 0.81540 -0.01100
C 	C 	0.22220 0.12560 0.80360 -0.12900
H 	H 	0.24490 0.14590 0.82190 0.08400
C 	C 	0.27350 0.45390 0.83450 0.06000
C 	C 	0.28450 0.54350 0.82760 -0.14800
H 	H 	0.27250 0.57540 0.80300 0.10400
C 	C 	0.31330 0.58330 0.85780 0.09100
H 	H 	0.32050 0.64310 0.85320 -0.01200
C 	C 	0.32110 0.45440 0.90020 0.07400
H 	H 	0.33370 0.42430 0.92510 -0.00300
C 	C 	0.29240 0.40890 0.87130 -0.13000
H 	H 	0.28600 0.34890 0.87660 0.09000
C 	C 	0.17110 0.47140 0.70680 0.06900
C 	C 	0.14260 0.42640 0.67610 -0.14000
H 	H 	0.13850 0.36400 0.67820 0.10200
C 	C 	0.12120 0.47590 0.64340 0.08700
H 	H 	0.10230 0.44540 0.62340 -0.00800
C 	C 	0.15260 0.60810 0.66600 0.08400
H 	H 	0.15650 0.67010 0.66210 -0.01800
C 	C 	0.17550 0.56410 0.70110 -0.14600
H 	H 	0.19380 0.59690 0.72080 0.08900
C 	C 	0.51790 0.33660 0.94430 0.08700
C 	C 	0.55210 0.20890 0.96650 0.08900
C 	C 	0.56790 0.29430 0.91290 0.09800
C 	C 	0.48420 0.39730 0.94490 0.06200
C 	C 	0.46940 0.40890 0.98200 -0.13800
H 	H 	0.48070 0.38000 0.00790 0.08600
C 	C 	0.43670 0.46620 0.97930 0.08600
H 	H 	0.42630 0.47420 0.00410 -0.00900
C 	C 	0.43400 0.49440 0.90750 0.08600
H 	H 	0.42170 0.52210 0.88170 -0.01600
C 	C 	0.46580 0.44040 0.90700 -0.14100
H 	H 	0.47510 0.43250 0.88150 0.09700
C 	C 	0.59230 0.31240 0.88040 0.08700
C 	C 	0.61230 0.24220 0.86430 -0.14700
H 	H 	0.61120 0.18290 0.87450 0.09700
C 	C 	0.63320 0.26120 0.83400 0.09300
H 	H 	0.64630 0.21360 0.82350 -0.02300
C 	C 	0.61790 0.41250 0.83380 0.10200
H 	H 	0.62030 0.47140 0.82370 -0.02300
C 	C 	0.59570 0.39890 0.86440 -0.14900
H 	H 	0.58300 0.44780 0.87440 0.09800
C 	C 	0.55770 0.12560 0.99330 0.05800
C 	C 	0.53190 0.10400 0.02040 -0.12400
H 	H 	0.51010 0.14040 0.02080 0.07800
C 	C 	0.53910 0.02750 0.04690 0.07400
H 	H 	0.52190 0.01360 0.06510 -0.00900
C 	C 	0.59360 0.99280 0.01990 0.07600
H 	H 	0.61440 0.95360 0.01900 -0.01400
C 	C 	0.58880 0.06800 0.99310 -0.13100
H 	H 	0.60640 0.07960 0.97500 0.08700
I 	I 	0.12022 0.84827 0.69573 -0.40500
I 	I 	0.22737 0.76445 0.79022 -0.37900
I 	I 	0.02628 0.65252 0.62988 -0.34900
I 	I 	0.11951 0.74937 0.55567 -0.38200
I 	I 	0.35190 0.59565 0.01126 -0.36900
I 	I 	0.39850 0.73870 0.90293 -0.37900
N 	N 	0.22310 0.46050 0.76980 -0.14000
N 	N 	0.18340 0.33270 0.74690 -0.13500
N 	N 	0.23390 0.32110 0.80870 -0.13900
N 	N 	0.33150 0.54070 0.89350 -0.27600
N 	N 	0.12530 0.56510 0.63790 -0.27500
N 	N 	0.18070 0.00180 0.77510 -0.27300
N 	N 	0.53970 0.35550 0.91490 -0.13200
N 	N 	0.57420 0.21820 0.93680 -0.13300
N 	N 	0.52390 0.26680 0.97220 -0.14600
N 	N 	0.41970 0.50930 0.94340 -0.27800
N 	N 	0.63630 0.34540 0.81790 -0.28200
N 	N 	0.56990 0.97330 0.04730 -0.27200
Zn	Zn	0.16684 0.86365 0.76845 1.16400
Zn	Zn	0.08379 0.63248 0.59200 1.16400
Zn	Zn	0.37456 0.60040 0.93974 1.16500
C 	C 	0.74180 0.91000 0.80260 0.08600
C 	C 	0.69410 0.92010 0.74370 0.10000
C 	C 	0.70530 0.78670 0.77910 0.10700
C 	C 	0.69680 0.68770 0.78000 0.06400
C 	C 	0.66230 0.65370 0.75460 -0.13300
H 	H 	0.64390 0.69320 0.73890 0.09000
C 	C 	0.65590 0.56160 0.75300 0.07800
H 	H 	0.63300 0.53980 0.73560 -0.01800
C 	C 	0.71410 0.53340 0.80020 0.07300
H 	H 	0.73200 0.49210 0.81540 -0.01100
C 	C 	0.72220 0.62560 0.80360 -0.12900
H 	H 	0.74490 0.64590 0.82190 0.08400
C 	C 	0.77350 0.95390 0.83450 0.06000
C 	C 	0.78450 0.04350 0.82760 -0.14700
H 	H 	0.77250 0.07540 0.80300 0.10400
C 	C 	0.81330 0.08330 0.85780 0.09000
H 	H 	0.82050 0.14310 0.85320 -0.01200
C 	C 	0.82110 0.95440 0.90020 0.07300
H 	H 	0.83370 0.92430 0.92510 -0.00300
C 	C 	0.79240 0.90890 0.87130 -0.13000
H 	H 	0.78600 0.84890 0.87660 0.09000
C 	C 	0.67110 0.97140 0.70680 0.06900
C 	C 	0.64260 0.92640 0.67610 -0.14000
H 	H 	0.63850 0.86400 0.67820 0.10200
C 	C 	0.62120 0.97590 0.64340 0.08600
H 	H 	0.60230 0.94540 0.62340 -0.00800
C 	C 	0.65260 0.10810 0.66600 0.08400
H 	H 	0.65650 0.17010 0.66210 -0.01800
C 	C 	0.67550 0.06410 0.70110 -0.14500
H 	H 	0.69380 0.09690 0.72080 0.08900
C 	C 	0.01790 0.83660 0.94430 0.08700
C 	C 	0.05210 0.70890 0.96650 0.08900
C 	C 	0.06790 0.79430 0.91290 0.09800
C 	C 	0.98420 0.89730 0.94490 0.06100
C 	C 	0.96940 0.90890 0.98200 -0.13800
H 	H 	0.98070 0.88000 0.00790 0.08600
C 	C 	0.93670 0.96620 0.97930 0.08600
H 	H 	0.92630 0.97420 0.00410 -0.00900
C 	C 	0.93400 0.99440 0.90750 0.08500
H 	H 	0.92170 0.02210 0.88170 -0.01500
C 	C 	0.96580 0.94040 0.90700 -0.14000
H 	H 	0.97510 0.93250 0.88150 0.09700
C 	C 	0.09230 0.81240 0.88040 0.08700
C 	C 	0.11230 0.74220 0.86430 -0.14700
H 	H 	0.11120 0.68290 0.87450 0.09700
C 	C 	0.13320 0.76120 0.83400 0.09300
H 	H 	0.14630 0.71360 0.82350 -0.02300
C 	C 	0.11790 0.91250 0.83380 0.10200
H 	H 	0.12030 0.97140 0.82370 -0.02300
C 	C 	0.09570 0.89890 0.86440 -0.14900
H 	H 	0.08300 0.94780 0.87440 0.09800
C 	C 	0.05770 0.62560 0.99330 0.05800
C 	C 	0.03190 0.60400 0.02040 -0.12400
H 	H 	0.01010 0.64040 0.02080 0.07800
C 	C 	0.03910 0.52750 0.04690 0.07400
H 	H 	0.02190 0.51360 0.06510 -0.00900
C 	C 	0.09360 0.49280 0.01990 0.07600
H 	H 	0.11440 0.45360 0.01900 -0.01400
C 	C 	0.08880 0.56800 0.99310 -0.13100
H 	H 	0.10640 0.57960 0.97500 0.08700
I 	I 	0.62022 0.34827 0.69573 -0.40500
I 	I 	0.72737 0.26445 0.79022 -0.37800
I 	I 	0.52628 0.15252 0.62988 -0.34900
I 	I 	0.61951 0.24937 0.55567 -0.38200
I 	I 	0.85190 0.09565 0.01126 -0.36900
I 	I 	0.89850 0.23870 0.90293 -0.37900
N 	N 	0.72310 0.96050 0.76980 -0.14000
N 	N 	0.68340 0.83270 0.74690 -0.13600
N 	N 	0.73390 0.82110 0.80870 -0.13900
N 	N 	0.83150 0.04070 0.89350 -0.27600
N 	N 	0.62530 0.06510 0.63790 -0.27500
N 	N 	0.68070 0.50180 0.77510 -0.27300
N 	N 	0.03970 0.85550 0.91490 -0.13200
N 	N 	0.07420 0.71820 0.93680 -0.13300
N 	N 	0.02390 0.76680 0.97220 -0.14600
N 	N 	0.91970 0.00930 0.94340 -0.27700
N 	N 	0.13630 0.84540 0.81790 -0.28200
N 	N 	0.06990 0.47330 0.04730 -0.27200
Zn	Zn	0.66684 0.36365 0.76845 1.16400
Zn	Zn	0.58379 0.13248 0.59200 1.16400
Zn	Zn	0.87456 0.10040 0.93974 1.16500
C 	C 	0.75820 0.59000 0.19740 0.08500
C 	C 	0.80590 0.57990 0.25630 0.10000
C 	C 	0.79470 0.71330 0.22090 0.10700
C 	C 	0.80320 0.81230 0.22000 0.06400
C 	C 	0.83770 0.84630 0.24540 -0.13400
H 	H 	0.85610 0.80680 0.26110 0.09000
C 	C 	0.84410 0.93840 0.24700 0.07900
H 	H 	0.86700 0.96020 0.26440 -0.01800
C 	C 	0.78590 0.96660 0.19980 0.07400
H 	H 	0.76800 0.00790 0.18460 -0.01100
C 	C 	0.77780 0.87440 0.19640 -0.12900
H 	H 	0.75510 0.85410 0.17810 0.08400
C 	C 	0.72650 0.54610 0.16550 0.06000
C 	C 	0.71550 0.45650 0.17240 -0.14800
H 	H 	0.72750 0.42460 0.19700 0.10400
C 	C 	0.68670 0.41670 0.14220 0.09100
H 	H 	0.67950 0.35690 0.14680 -0.01200
C 	C 	0.67890 0.54560 0.09980 0.07400
H 	H 	0.66630 0.57570 0.07490 -0.00300
C 	C 	0.70760 0.59110 0.12870 -0.13000
H 	H 	0.71400 0.65110 0.12340 0.09000
C 	C 	0.82890 0.52860 0.29320 0.06900
C 	C 	0.85740 0.57360 0.32390 -0.14000
H 	H 	0.86150 0.63600 0.32180 0.10200
C 	C 	0.87880 0.52410 0.35660 0.08700
H 	H 	0.89770 0.55460 0.37660 -0.00800
C 	C 	0.84740 0.39190 0.33400 0.08400
H 	H 	0.84350 0.32990 0.33790 -0.01800
C 	C 	0.82450 0.43590 0.29890 -0.14600
H 	H 	0.80620 0.40310 0.27920 0.08900
C 	C 	0.48210 0.66340 0.05570 0.08700
C 	C 	0.44790 0.79110 0.03350 0.08900
C 	C 	0.43210 0.70570 0.08710 0.09800
C 	C 	0.51580 0.60270 0.05510 0.06200
C 	C 	0.53060 0.59110 0.01800 -0.13800
H 	H 	0.51930 0.62000 0.99210 0.08600
C 	C 	0.56330 0.53380 0.02070 0.08600
H 	H 	0.57370 0.52580 0.99590 -0.00900
C 	C 	0.56600 0.50560 0.09250 0.08600
H 	H 	0.57830 0.47790 0.11830 -0.01600
C 	C 	0.53420 0.55960 0.09300 -0.14100
H 	H 	0.52490 0.56750 0.11850 0.09700
C 	C 	0.40770 0.68760 0.11960 0.08700
C 	C 	0.38770 0.75780 0.13570 -0.14700
H 	H 	0.38880 0.81710 0.12550 0.09700
C 	C 	0.36680 0.73880 0.16600 0.09300
H 	H 	0.35370 0.78640 0.17650 -0.02300
C 	C 	0.38210 0.58750 0.16620 0.10200
H 	H 	0.37970 0.52860 0.17630 -0.02300
C 	C 	0.40430 0.60110 0.13560 -0.14900
H 	H 	0.41700 0.55220 0.12560 0.09800
C 	C 	0.44230 0.87440 0.00670 0.05800
C 	C 	0.46810 0.89600 0.97960 -0.12400
H 	H 	0.48990 0.85960 0.97920 0.07800
C 	C 	0.46090 0.97250 0.95310 0.07400
H 	H 	0.47810 0.98640 0.93490 -0.00900
C 	C 	0.40640 0.00720 0.98010 0.07600
H 	H 	0.38560 0.04640 0.98100 -0.01400
C 	C 	0.41120 0.93200 0.00690 -0.13100
H 	H 	0.39360 0.92040 0.02500 0.08700
I 	I 	0.87978 0.15173 0.30427 -0.40500
I 	I 	0.77263 0.23555 0.20978 -0.37900
I 	I 	0.97372 0.34748 0.37012 -0.34900
I 	I 	0.88049 0.25063 0.44433 -0.38200
I 	I 	0.64810 0.40435 0.98874 -0.36900
I 	I 	0.60150 0.26130 0.09707 -0.37900
N 	N 	0.77690 0.53950 0.23020 -0.14000
N 	N 	0.81660 0.66730 0.25310 -0.13500
N 	N 	0.76610 0.67890 0.19130 -0.13900
N 	N 	0.66850 0.45930 0.10650 -0.27600
N 	N 	0.87470 0.43490 0.36210 -0.27500
N 	N 	0.81930 0.99820 0.22490 -0.27300
N 	N 	0.46030 0.64450 0.08510 -0.13200
N 	N 	0.42580 0.78180 0.06320 -0.13300
N 	N 	0.47610 0.73320 0.02780 -0.14600
N 	N 	0.58030 0.49070 0.05660 -0.27800
N 	N 	0.36370 0.65460 0.18210 -0.28200
N 	N 	0.43010 0.02670 0.95270 -0.27200
Zn	Zn	0.83316 0.13635 0.23155 1.16400
Zn	Zn	0.91621 0.36752 0.40800 1.16400
Zn	Zn	0.62544 0.39960 0.06026 1.16500
C 	C 	0.25820 0.09000 0.19740 0.08600
C 	C 	0.30590 0.07990 0.25630 0.10000
C 	C 	0.29470 0.21330 0.22090 0.10700
C 	C 	0.30320 0.31230 0.22000 0.06400
C 	C 	0.33770 0.34630 0.24540 -0.13300
H 	H 	0.35610 0.30680 0.26110 0.09000
C 	C 	0.34410 0.43840 0.24700 0.07800
H 	H 	0.36700 0.46020 0.26440 -0.01800
C 	C 	0.28590 0.46660 0.19980 0.07300
H 	H 	0.26800 0.50790 0.18460 -0.01100
C 	C 	0.27780 0.37440 0.19640 -0.12900
H 	H 	0.25510 0.35410 0.17810 0.08400
C 	C 	0.22650 0.04610 0.16550 0.06000
C 	C 	0.21550 0.95650 0.17240 -0.14700
H 	H 	0.22750 0.92460 0.19700 0.10400
C 	C 	0.18670 0.91670 0.14220 0.09000
H 	H 	0.17950 0.85690 0.14680 -0.01200
C 	C 	0.17890 0.04560 0.09980 0.07300
H 	H 	0.16630 0.07570 0.07490 -0.00300
C 	C 	0.20760 0.09110 0.12870 -0.13000
H 	H 	0.21400 0.15110 0.12340 0.09000
C 	C 	0.32890 0.02860 0.29320 0.06900
C 	C 	0.35740 0.07360 0.32390 -0.14000
H 	H 	0.36150 0.13600 0.32180 0.10200
C 	C 	0.37880 0.02410 0.35660 0.08600
H 	H 	0.39770 0.05460 0.37660 -0.00800
C 	C 	0.34740 0.89190 0.33400 0.08400
H 	H 	0.34350 0.82990 0.33790 -0.01800
C 	C 	0.32450 0.93590 0.29890 -0.14500
H 	H 	0.30620 0.90310 0.27920 0.08900
C 	C 	0.98210 0.16340 0.05570 0.08700
C 	C 	0.94790 0.29110 0.03350 0.08900
C 	C 	0.93210 0.20570 0.08710 0.09800
C 	C 	0.01580 0.10270 0.05510 0.06100
C 	C 	0.03060 0.09110 0.01800 -0.13800
H 	H 	0.01930 0.12000 0.99210 0.08600
C 	C 	0.06330 0.03380 0.02070 0.08600
H 	H 	0.07370 0.02580 0.99590 -0.00900
C 	C 	0.06600 0.00560 0.09250 0.08500
H 	H 	0.07830 0.97790 0.11830 -0.01500
C 	C 	0.03420 0.05960 0.09300 -0.14000
H 	H 	0.02490 0.06750 0.11850 0.09700
C 	C 	0.90770 0.18760 0.11960 0.08700
C 	C 	0.88770 0.25780 0.13570 -0.14700
H 	H 	0.88880 0.31710 0.12550 0.09700
C 	C 	0.86680 0.23880 0.16600 0.09300
H 	H 	0.85370 0.28640 0.17650 -0.02300
C 	C 	0.88210 0.08750 0.16620 0.10200
H 	H 	0.87970 0.02860 0.17630 -0.02300
C 	C 	0.90430 0.10110 0.13560 -0.14900
H 	H 	0.91700 0.05220 0.12560 0.09800
C 	C 	0.94230 0.37440 0.00670 0.05800
C 	C 	0.96810 0.39600 0.97960 -0.12400
H 	H 	0.98990 0.35960 0.97920 0.07800
C 	C 	0.96090 0.47250 0.95310 0.07400
H 	H 	0.97810 0.48640 0.93490 -0.00900
C 	C 	0.90640 0.50720 0.98010 0.07600
H 	H 	0.88560 0.54640 0.98100 -0.01400
C 	C 	0.91120 0.43200 0.00690 -0.13100
H 	H 	0.89360 0.42040 0.02500 0.08700
I 	I 	0.37978 0.65173 0.30427 -0.40500
I 	I 	0.27263 0.73555 0.20978 -0.37800
I 	I 	0.47372 0.84748 0.37012 -0.34900
I 	I 	0.38049 0.75063 0.44433 -0.38200
I 	I 	0.14810 0.90435 0.98874 -0.36900
I 	I 	0.10150 0.76130 0.09707 -0.37900
N 	N 	0.27690 0.03950 0.23020 -0.14000
N 	N 	0.31660 0.16730 0.25310 -0.13600
N 	N 	0.26610 0.17890 0.19130 -0.13900
N 	N 	0.16850 0.95930 0.10650 -0.27600
N 	N 	0.37470 0.93490 0.36210 -0.27500
N 	N 	0.31930 0.49820 0.22490 -0.27300
N 	N 	0.96030 0.14450 0.08510 -0.13200
N 	N 	0.92580 0.28180 0.06320 -0.13300
N 	N 	0.97610 0.23320 0.02780 -0.14600
N 	N 	0.08030 0.99070 0.05660 -0.27700
N 	N 	0.86370 0.15460 0.18210 -0.28200
N 	N 	0.93010 0.52670 0.95270 -0.27200
Zn	Zn	0.33316 0.63635 0.23155 1.16400
Zn	Zn	0.41621 0.86752 0.40800 1.16400
Zn	Zn	0.12544 0.89960 0.06026 1.16500
C 	C 	0.75820 0.41000 0.69740 0.08500
C 	C 	0.80590 0.42010 0.75630 0.10000
C 	C 	0.79470 0.28670 0.72090 0.10700
C 	C 	0.80320 0.18770 0.72000 0.06400
C 	C 	0.83770 0.15370 0.74540 -0.13400
H 	H 	0.85610 0.19320 0.76110 0.09000
C 	C 	0.84410 0.06160 0.74700 0.07900
H 	H 	0.86700 0.03980 0.76440 -0.01800
C 	C 	0.78590 0.03340 0.69980 0.07400
H 	H 	0.76800 0.99210 0.68460 -0.01100
C 	C 	0.77780 0.12560 0.69640 -0.12900
H 	H 	0.75510 0.14590 0.67810 0.08400
C 	C 	0.72650 0.45390 0.66550 0.06000
C 	C 	0.71550 0.54350 0.67240 -0.14800
H 	H 	0.72750 0.57540 0.69700 0.10400
C 	C 	0.68670 0.58330 0.64220 0.09100
H 	H 	0.67950 0.64310 0.64680 -0.01200
C 	C 	0.67890 0.45440 0.59980 0.07400
H 	H 	0.66630 0.42430 0.57490 -0.00300
C 	C 	0.70760 0.40890 0.62870 -0.13000
H 	H 	0.71400 0.34890 0.62340 0.09000
C 	C 	0.82890 0.47140 0.79320 0.06900
C 	C 	0.85740 0.42640 0.82390 -0.14000
H 	H 	0.86150 0.36400 0.82180 0.10200
C 	C 	0.87880 0.47590 0.85660 0.08700
H 	H 	0.89770 0.44540 0.87660 -0.00800
C 	C 	0.84740 0.60810 0.83400 0.08400
H 	H 	0.84350 0.67010 0.83790 -0.01800
C 	C 	0.82450 0.56410 0.79890 -0.14600
H 	H 	0.80620 0.59690 0.77920 0.08900
C 	C 	0.48210 0.33660 0.55570 0.08700
C 	C 	0.44790 0.20890 0.53350 0.08900
C 	C 	0.43210 0.29430 0.58710 0.09800
C 	C 	0.51580 0.39730 0.55510 0.06200
C 	C 	0.53060 0.40890 0.51800 -0.13800
H 	H 	0.51930 0.38000 0.49210 0.08600
C 	C 	0.56330 0.46620 0.52070 0.08600
H 	H 	0.57370 0.47420 0.49590 -0.00900
C 	C 	0.56600 0.49440 0.59250 0.08600
H 	H 	0.57830 0.52210 0.61830 -0.01600
C 	C 	0.53420 0.44040 0.59300 -0.14100
H 	H 	0.52490 0.43250 0.61850 0.09700
C 	C 	0.40770 0.31240 0.61960 0.08700
C 	C 	0.38770 0.24220 0.63570 -0.14700
H 	H 	0.38880 0.18290 0.62550 0.09700
C 	C 	0.36680 0.26120 0.66600 0.09300
H 	H 	0.35370 0.21360 0.67650 -0.02300
C 	C 	0.38210 0.41250 0.66620 0.10200
H 	H 	0.37970 0.47140 0.67630 -0.02300
C 	C 	0.40430 0.39890 0.63560 -0.14900
H 	H 	0.41700 0.44780 0.62560 0.09800
C 	C 	0.44230 0.12560 0.50670 0.05800
C 	C 	0.46810 0.10400 0.47960 -0.12400
H 	H 	0.48990 0.14040 0.47920 0.07800
C 	C 	0.46090 0.02750 0.45310 0.07400
H 	H 	0.47810 0.01360 0.43490 -0.00900
C 	C 	0.40640 0.99280 0.48010 0.07600
H 	H 	0.38560 0.95360 0.48100 -0.01400
C 	C 	0.41120 0.06800 0.50690 -0.13100
H 	H 	0.39360 0.07960 0.52500 0.08700
I 	I 	0.87978 0.84827 0.80427 -0.40500
I 	I 	0.77263 0.76445 0.70978 -0.37800
I 	I 	0.97372 0.65252 0.87012 -0.34900
I 	I 	0.88049 0.74937 0.94433 -0.38200
I 	I 	0.64810 0.59565 0.48874 -0.36900
I 	I 	0.60150 0.73870 0.59707 -0.37900
N 	N 	0.77690 0.46050 0.73020 -0.14000
N 	N 	0.81660 0.33270 0.75310 -0.13500
N 	N 	0.76610 0.32110 0.69130 -0.13900
N 	N 	0.66850 0.54070 0.60650 -0.27600
N 	N 	0.87470 0.56510 0.86210 -0.27500
N 	N 	0.81930 0.00180 0.72490 -0.27300
N 	N 	0.46030 0.35550 0.58510 -0.13200
N 	N 	0.42580 0.21820 0.56320 -0.13300
N 	N 	0.47610 0.26680 0.52780 -0.14600
N 	N 	0.58030 0.50930 0.55660 -0.27800
N 	N 	0.36370 0.34540 0.68210 -0.28200
N 	N 	0.43010 0.97330 0.45270 -0.27200
Zn	Zn	0.83316 0.86365 0.73155 1.16400
Zn	Zn	0.91621 0.63248 0.90800 1.16400
Zn	Zn	0.62544 0.60040 0.56026 1.16500
C 	C 	0.25820 0.91000 0.69740 0.08600
C 	C 	0.30590 0.92010 0.75630 0.10000
C 	C 	0.29470 0.78670 0.72090 0.10700
C 	C 	0.30320 0.68770 0.72000 0.06400
C 	C 	0.33770 0.65370 0.74540 -0.13300
H 	H 	0.35610 0.69320 0.76110 0.09000
C 	C 	0.34410 0.56160 0.74700 0.07800
H 	H 	0.36700 0.53980 0.76440 -0.01800
C 	C 	0.28590 0.53340 0.69980 0.07300
H 	H 	0.26800 0.49210 0.68460 -0.01100
C 	C 	0.27780 0.62560 0.69640 -0.12900
H 	H 	0.25510 0.64590 0.67810 0.08400
C 	C 	0.22650 0.95390 0.66550 0.06000
C 	C 	0.21550 0.04350 0.67240 -0.14700
H 	H 	0.22750 0.07540 0.69700 0.10400
C 	C 	0.18670 0.08330 0.64220 0.09000
H 	H 	0.17950 0.14310 0.64680 -0.01200
C 	C 	0.17890 0.95440 0.59980 0.07300
H 	H 	0.16630 0.92430 0.57490 -0.00300
C 	C 	0.20760 0.90890 0.62870 -0.13000
H 	H 	0.21400 0.84890 0.62340 0.09000
C 	C 	0.32890 0.97140 0.79320 0.06800
C 	C 	0.35740 0.92640 0.82390 -0.14000
H 	H 	0.36150 0.86400 0.82180 0.10200
C 	C 	0.37880 0.97590 0.85660 0.08600
H 	H 	0.39770 0.94540 0.87660 -0.00800
C 	C 	0.34740 0.10810 0.83400 0.08400
H 	H 	0.34350 0.17010 0.83790 -0.01800
C 	C 	0.32450 0.06410 0.79890 -0.14500
H 	H 	0.30620 0.09690 0.77920 0.08900
C 	C 	0.98210 0.83660 0.55570 0.08700
C 	C 	0.94790 0.70890 0.53350 0.08900
C 	C 	0.93210 0.79430 0.58710 0.09800
C 	C 	0.01580 0.89730 0.55510 0.06100
C 	C 	0.03060 0.90890 0.51800 -0.13800
H 	H 	0.01930 0.88000 0.49210 0.08600
C 	C 	0.06330 0.96620 0.52070 0.08600
H 	H 	0.07370 0.97420 0.49590 -0.00900
C 	C 	0.06600 0.99440 0.59250 0.08500
H 	H 	0.07830 0.02210 0.61830 -0.01500
C 	C 	0.03420 0.94040 0.59300 -0.14000
H 	H 	0.02490 0.93250 0.61850 0.09700
C 	C 	0.90770 0.81240 0.61960 0.08700
C 	C 	0.88770 0.74220 0.63570 -0.14700
H 	H 	0.88880 0.68290 0.62550 0.09700
C 	C 	0.86680 0.76120 0.66600 0.09300
H 	H 	0.85370 0.71360 0.67650 -0.02300
C 	C 	0.88210 0.91250 0.66620 0.10200
H 	H 	0.87970 0.97140 0.67630 -0.02300
C 	C 	0.90430 0.89890 0.63560 -0.14900
H 	H 	0.91700 0.94780 0.62560 0.09800
C 	C 	0.94230 0.62560 0.50670 0.05800
C 	C 	0.96810 0.60400 0.47960 -0.12400
H 	H 	0.98990 0.64040 0.47920 0.07800
C 	C 	0.96090 0.52750 0.45310 0.07400
H 	H 	0.97810 0.51360 0.43490 -0.00900
C 	C 	0.90640 0.49280 0.48010 0.07600
H 	H 	0.88560 0.45360 0.48100 -0.01400
C 	C 	0.91120 0.56800 0.50690 -0.13100
H 	H 	0.89360 0.57960 0.52500 0.08700
I 	I 	0.37978 0.34827 0.80427 -0.40500
I 	I 	0.27263 0.26445 0.70978 -0.37800
I 	I 	0.47372 0.15252 0.87012 -0.34900
I 	I 	0.38049 0.24937 0.94433 -0.38200
I 	I 	0.14810 0.09565 0.48874 -0.36900
I 	I 	0.10150 0.23870 0.59707 -0.37900
N 	N 	0.27690 0.96050 0.73020 -0.14000
N 	N 	0.31660 0.83270 0.75310 -0.13600
N 	N 	0.26610 0.82110 0.69130 -0.13900
N 	N 	0.16850 0.04070 0.60650 -0.27600
N 	N 	0.37470 0.06510 0.86210 -0.27500
N 	N 	0.31930 0.50180 0.72490 -0.27300
N 	N 	0.96030 0.85550 0.58510 -0.13200
N 	N 	0.92580 0.71820 0.56320 -0.13300
N 	N 	0.97610 0.76680 0.52780 -0.14600
N 	N 	0.08030 0.00930 0.55660 -0.27800
N 	N 	0.86370 0.84540 0.68210 -0.28200
N 	N 	0.93010 0.47330 0.45270 -0.27200
Zn	Zn	0.33316 0.36365 0.73155 1.16400
Zn	Zn	0.41621 0.13248 0.90800 1.16400
Zn	Zn	0.12544 0.10040 0.56026 1.16500
