data_crystal

_cell_length_a 34.84100
_cell_length_b 14.74280
_cell_length_c 31.04300
_cell_angle_alpha 90.00000
_cell_angle_beta  101.29900
_cell_angle_gamma 90.00000

_symmetry_space_group_name_	'P 1'
_symmetry_space_group_name_H-M	'P 1'

loop_
_symmetry_equiv_pos_as_xyz
  x,y,z

loop_
_atom_site_label
_atom_site_type_symbol
_atom_site_fract_x
_atom_site_fract_y
_atom_site_fract_z
_atom_site_charge
I 	I 	0.12041 0.25365 0.55554 -0.37900
Zn	Zn	0.08369 0.36833 0.59243 1.16600
I 	I 	0.02644 0.34491 0.63106 -0.34800
N 	N 	0.56910 0.02700 0.04770 -0.27000
N 	N 	0.12430 0.43640 0.63880 -0.27200
C 	C 	0.15230 0.39410 0.66760 0.07800
C 	C 	0.11910 0.52570 0.64470 0.07600
C 	C 	0.17450 0.43740 0.70280 -0.14000
H 	H 	0.15680 0.33280 0.66340 -0.01500
C 	C 	0.14030 0.57430 0.67850 -0.13200
H 	H 	0.10010 0.55580 0.62460 -0.00400
H 	H 	0.19310 0.40540 0.72260 0.08700
C 	C 	0.16900 0.53030 0.70890 0.06400
H 	H 	0.13560 0.63590 0.68120 0.09900
C 	C 	0.19220 0.58230 0.74570 0.10000
N 	N 	0.18240 0.66940 0.74890 -0.13400
N 	N 	0.22170 0.54100 0.77190 -0.13900
C 	C 	0.20480 0.71560 0.78160 0.10500
C 	C 	0.24090 0.59240 0.80480 0.08300
C 	C 	0.19640 0.81300 0.78210 0.06300
N 	N 	0.23340 0.68050 0.81090 -0.13800
C 	C 	0.27280 0.54800 0.83630 0.06600
C 	C 	0.16300 0.84860 0.75490 -0.13000
C 	C 	0.22230 0.87480 0.80590 -0.13100
C 	C 	0.29200 0.59220 0.87300 -0.13900
C 	C 	0.28320 0.45930 0.82910 -0.15100
C 	C 	0.15670 0.94080 0.75350 0.07500
H 	H 	0.14510 0.81000 0.73790 0.08900
C 	C 	0.21490 0.96660 0.80110 0.08000
H 	H 	0.24450 0.85440 0.82510 0.08500
C 	C 	0.32110 0.54610 0.90150 0.08400
H 	H 	0.28560 0.65160 0.87880 0.09400
C 	C 	0.31260 0.41920 0.85890 0.08900
H 	H 	0.27050 0.42760 0.80460 0.10500
N 	N 	0.18230 0.99840 0.77570 -0.27400
H 	H 	0.13370 0.96340 0.73640 -0.01800
H 	H 	0.23320 0.00740 0.81590 -0.01400
N 	N 	0.33130 0.46110 0.89510 -0.27900
H 	H 	0.33420 0.57630 0.92630 -0.00600
H 	H 	0.31980 0.36010 0.85360 -0.01100
Zn	Zn	0.16882 0.13595 0.76885 1.16400
Zn	Zn	0.37417 0.40016 0.94090 1.16500
N 	N 	0.63750 0.65600 0.81830 -0.28700
I 	I 	0.12275 0.15165 0.69512 -0.40400
I 	I 	0.22975 0.23323 0.79116 -0.37800
I 	I 	0.39696 0.26219 0.90304 -0.37900
I 	I 	0.35106 0.40344 0.01316 -0.36900
N 	N 	0.41930 0.49160 0.94460 -0.27700
C 	C 	0.43440 0.50610 0.90860 0.08800
C 	C 	0.43640 0.53450 0.98120 0.08800
C 	C 	0.46610 0.55890 0.90820 -0.14400
H 	H 	0.42250 0.47830 0.88250 -0.01600
H 	H 	0.42630 0.52530 0.00650 -0.01000
C 	C 	0.46800 0.59170 0.98370 -0.14000
C 	C 	0.48350 0.60370 0.94590 0.06300
H 	H 	0.47610 0.56490 0.88270 0.09800
H 	H 	0.47860 0.62130 0.00980 0.08700
C 	C 	0.51730 0.66410 0.94530 0.08600
N 	N 	0.53910 0.64490 0.91510 -0.13200
N 	N 	0.52260 0.73360 0.97280 -0.14700
C 	C 	0.56730 0.70550 0.91310 0.09600
C 	C 	0.55110 0.79100 0.96630 0.09200
C 	C 	0.59200 0.68790 0.88080 0.09000
N 	N 	0.57340 0.78110 0.93730 -0.13500
C 	C 	0.55630 0.87390 0.99410 0.05500
C 	C 	0.59320 0.60240 0.86250 -0.14300
C 	C 	0.61510 0.75410 0.86870 -0.15800
C 	C 	0.53140 0.89600 0.02150 -0.12200
C 	C 	0.58800 0.93160 0.99320 -0.12400
C 	C 	0.61660 0.58970 0.83130 0.09300
H 	H 	0.57870 0.55470 0.87070 0.09500
C 	C 	0.63800 0.73210 0.83870 0.11400
H 	H 	0.61540 0.81230 0.88030 0.10100
C 	C 	0.53830 0.97320 0.04810 0.07000
H 	H 	0.50980 0.85960 0.02250 0.07800
C 	C 	0.59370 0.00570 0.02050 0.06800
H 	H 	0.60510 0.91990 0.97430 0.08400
H 	H 	0.61770 0.53230 0.81910 -0.02200
H 	H 	0.65530 0.77610 0.83260 -0.02900
H 	H 	0.52110 0.98730 0.06650 -0.00800
H 	H 	0.61520 0.04270 0.02030 -0.01200
I 	I 	0.62041 0.75365 0.55554 -0.38000
Zn	Zn	0.58369 0.86833 0.59243 1.16500
I 	I 	0.52644 0.84491 0.63106 -0.34900
N 	N 	0.06910 0.52700 0.04770 -0.27100
N 	N 	0.62430 0.93640 0.63880 -0.27200
C 	C 	0.65230 0.89410 0.66760 0.07700
C 	C 	0.61910 0.02570 0.64470 0.07600
C 	C 	0.67450 0.93740 0.70280 -0.13900
H 	H 	0.65680 0.83280 0.66340 -0.01500
C 	C 	0.64030 0.07430 0.67850 -0.13100
H 	H 	0.60010 0.05580 0.62460 -0.00400
H 	H 	0.69310 0.90540 0.72260 0.08600
C 	C 	0.66900 0.03030 0.70890 0.06400
H 	H 	0.63560 0.13590 0.68120 0.09900
C 	C 	0.69220 0.08230 0.74570 0.10000
N 	N 	0.68240 0.16940 0.74890 -0.13400
N 	N 	0.72170 0.04100 0.77190 -0.13900
C 	C 	0.70480 0.21560 0.78160 0.10500
C 	C 	0.74090 0.09240 0.80480 0.08300
C 	C 	0.69640 0.31300 0.78210 0.06300
N 	N 	0.73340 0.18050 0.81090 -0.13900
C 	C 	0.77280 0.04800 0.83630 0.06500
C 	C 	0.66300 0.34860 0.75490 -0.13000
C 	C 	0.72230 0.37480 0.80590 -0.13100
C 	C 	0.79200 0.09220 0.87300 -0.13900
C 	C 	0.78320 0.95930 0.82910 -0.15000
C 	C 	0.65670 0.44080 0.75350 0.07500
H 	H 	0.64510 0.31000 0.73790 0.08900
C 	C 	0.71490 0.46660 0.80110 0.08000
H 	H 	0.74450 0.35440 0.82510 0.08500
C 	C 	0.82110 0.04610 0.90150 0.08400
H 	H 	0.78560 0.15160 0.87880 0.09400
C 	C 	0.81260 0.91920 0.85890 0.08900
H 	H 	0.77050 0.92760 0.80460 0.10400
N 	N 	0.68230 0.49840 0.77570 -0.27400
H 	H 	0.63370 0.46340 0.73640 -0.01800
H 	H 	0.73320 0.50740 0.81590 -0.01300
N 	N 	0.83130 0.96110 0.89510 -0.27900
H 	H 	0.83420 0.07630 0.92630 -0.00600
H 	H 	0.81980 0.86010 0.85360 -0.01100
Zn	Zn	0.66882 0.63595 0.76885 1.16400
Zn	Zn	0.87417 0.90016 0.94090 1.16500
N 	N 	0.13750 0.15600 0.81830 -0.28700
I 	I 	0.62275 0.65165 0.69512 -0.40400
I 	I 	0.72975 0.73323 0.79116 -0.37800
I 	I 	0.89696 0.76219 0.90304 -0.37900
I 	I 	0.85106 0.90344 0.01316 -0.36900
N 	N 	0.91930 0.99160 0.94460 -0.27700
C 	C 	0.93440 0.00610 0.90860 0.08800
C 	C 	0.93640 0.03450 0.98120 0.08800
C 	C 	0.96610 0.05890 0.90820 -0.14400
H 	H 	0.92250 0.97830 0.88250 -0.01600
H 	H 	0.92630 0.02530 0.00650 -0.01000
C 	C 	0.96800 0.09170 0.98370 -0.14000
C 	C 	0.98350 0.10370 0.94590 0.06300
H 	H 	0.97610 0.06490 0.88270 0.09800
H 	H 	0.97860 0.12130 0.00980 0.08700
C 	C 	0.01730 0.16410 0.94530 0.08600
N 	N 	0.03910 0.14490 0.91510 -0.13200
N 	N 	0.02260 0.23360 0.97280 -0.14700
C 	C 	0.06730 0.20550 0.91310 0.09600
C 	C 	0.05110 0.29100 0.96630 0.09200
C 	C 	0.09200 0.18790 0.88080 0.09000
N 	N 	0.07340 0.28110 0.93730 -0.13500
C 	C 	0.05630 0.37390 0.99410 0.05500
C 	C 	0.09320 0.10240 0.86250 -0.14300
C 	C 	0.11510 0.25410 0.86870 -0.15800
C 	C 	0.03140 0.39600 0.02150 -0.12200
C 	C 	0.08800 0.43160 0.99320 -0.12400
C 	C 	0.11660 0.08970 0.83130 0.09300
H 	H 	0.07870 0.05470 0.87070 0.09500
C 	C 	0.13800 0.23210 0.83870 0.11400
H 	H 	0.11540 0.31230 0.88030 0.10100
C 	C 	0.03830 0.47320 0.04810 0.07100
H 	H 	0.00980 0.35960 0.02250 0.07800
C 	C 	0.09370 0.50570 0.02050 0.06800
H 	H 	0.10510 0.41990 0.97430 0.08400
H 	H 	0.11770 0.03230 0.81910 -0.02200
H 	H 	0.15530 0.27610 0.83260 -0.02900
H 	H 	0.02110 0.48730 0.06650 -0.00800
H 	H 	0.11520 0.54270 0.02030 -0.01200
I 	I 	0.12041 0.74635 0.05554 -0.38000
Zn	Zn	0.08369 0.63167 0.09243 1.16500
I 	I 	0.02644 0.65509 0.13106 -0.34900
N 	N 	0.56910 0.97300 0.54770 -0.27100
N 	N 	0.12430 0.56360 0.13880 -0.27200
C 	C 	0.15230 0.60590 0.16760 0.07800
C 	C 	0.11910 0.47430 0.14470 0.07600
C 	C 	0.17450 0.56260 0.20280 -0.14000
H 	H 	0.15680 0.66720 0.16340 -0.01500
C 	C 	0.14030 0.42570 0.17850 -0.13200
H 	H 	0.10010 0.44420 0.12460 -0.00400
H 	H 	0.19310 0.59460 0.22260 0.08700
C 	C 	0.16900 0.46970 0.20890 0.06400
H 	H 	0.13560 0.36410 0.18120 0.09900
C 	C 	0.19220 0.41770 0.24570 0.10000
N 	N 	0.18240 0.33060 0.24890 -0.13400
N 	N 	0.22170 0.45900 0.27190 -0.13900
C 	C 	0.20480 0.28440 0.28160 0.10500
C 	C 	0.24090 0.40760 0.30480 0.08300
C 	C 	0.19640 0.18700 0.28210 0.06300
N 	N 	0.23340 0.31950 0.31090 -0.13800
C 	C 	0.27280 0.45200 0.33630 0.06600
C 	C 	0.16300 0.15140 0.25490 -0.13000
C 	C 	0.22230 0.12520 0.30590 -0.13100
C 	C 	0.29200 0.40780 0.37300 -0.13900
C 	C 	0.28320 0.54070 0.32910 -0.15100
C 	C 	0.15670 0.05920 0.25350 0.07500
H 	H 	0.14510 0.19000 0.23790 0.08900
C 	C 	0.21490 0.03340 0.30110 0.08000
H 	H 	0.24450 0.14560 0.32510 0.08500
C 	C 	0.32110 0.45390 0.40150 0.08400
H 	H 	0.28560 0.34840 0.37880 0.09400
C 	C 	0.31260 0.58080 0.35890 0.08900
H 	H 	0.27050 0.57240 0.30460 0.10500
N 	N 	0.18230 0.00160 0.27570 -0.27400
H 	H 	0.13370 0.03660 0.23640 -0.01800
H 	H 	0.23320 0.99260 0.31590 -0.01400
N 	N 	0.33130 0.53890 0.39510 -0.27900
H 	H 	0.33420 0.42370 0.42630 -0.00600
H 	H 	0.31980 0.63990 0.35360 -0.01100
Zn	Zn	0.16882 0.86405 0.26885 1.16400
Zn	Zn	0.37417 0.59984 0.44090 1.16500
N 	N 	0.63750 0.34400 0.31830 -0.28700
I 	I 	0.12275 0.84835 0.19512 -0.40400
I 	I 	0.22975 0.76677 0.29116 -0.37800
I 	I 	0.39696 0.73781 0.40304 -0.37900
I 	I 	0.35106 0.59656 0.51316 -0.36900
N 	N 	0.41930 0.50840 0.44460 -0.27700
C 	C 	0.43440 0.49390 0.40860 0.08800
C 	C 	0.43640 0.46550 0.48120 0.08800
C 	C 	0.46610 0.44110 0.40820 -0.14400
H 	H 	0.42250 0.52170 0.38250 -0.01600
H 	H 	0.42630 0.47470 0.50650 -0.01000
C 	C 	0.46800 0.40830 0.48370 -0.14000
C 	C 	0.48350 0.39630 0.44590 0.06300
H 	H 	0.47610 0.43510 0.38270 0.09800
H 	H 	0.47860 0.37870 0.50980 0.08700
C 	C 	0.51730 0.33590 0.44530 0.08600
N 	N 	0.53910 0.35510 0.41510 -0.13200
N 	N 	0.52260 0.26640 0.47280 -0.14700
C 	C 	0.56730 0.29450 0.41310 0.09600
C 	C 	0.55110 0.20900 0.46630 0.09200
C 	C 	0.59200 0.31210 0.38080 0.09000
N 	N 	0.57340 0.21890 0.43730 -0.13500
C 	C 	0.55630 0.12610 0.49410 0.05500
C 	C 	0.59320 0.39760 0.36250 -0.14300
C 	C 	0.61510 0.24590 0.36870 -0.15800
C 	C 	0.53140 0.10400 0.52150 -0.12200
C 	C 	0.58800 0.06840 0.49320 -0.12400
C 	C 	0.61660 0.41030 0.33130 0.09300
H 	H 	0.57870 0.44530 0.37070 0.09500
C 	C 	0.63800 0.26790 0.33870 0.11400
H 	H 	0.61540 0.18770 0.38030 0.10100
C 	C 	0.53830 0.02680 0.54810 0.07000
H 	H 	0.50980 0.14040 0.52250 0.07800
C 	C 	0.59370 0.99430 0.52050 0.06800
H 	H 	0.60510 0.08010 0.47430 0.08400
H 	H 	0.61770 0.46770 0.31910 -0.02200
H 	H 	0.65530 0.22390 0.33260 -0.02900
H 	H 	0.52110 0.01270 0.56650 -0.00800
H 	H 	0.61520 0.95730 0.52030 -0.01200
I 	I 	0.62041 0.24635 0.05554 -0.38000
Zn	Zn	0.58369 0.13167 0.09243 1.16500
I 	I 	0.52644 0.15509 0.13106 -0.34900
N 	N 	0.06910 0.47300 0.54770 -0.27100
N 	N 	0.62430 0.06360 0.13880 -0.27100
C 	C 	0.65230 0.10590 0.16760 0.07700
C 	C 	0.61910 0.97430 0.14470 0.07500
C 	C 	0.67450 0.06260 0.20280 -0.13900
H 	H 	0.65680 0.16720 0.16340 -0.01500
C 	C 	0.64030 0.92570 0.17850 -0.13100
H 	H 	0.60010 0.94420 0.12460 -0.00400
H 	H 	0.69310 0.09460 0.22260 0.08600
C 	C 	0.66900 0.96970 0.20890 0.06400
H 	H 	0.63560 0.86410 0.18120 0.09900
C 	C 	0.69220 0.91770 0.24570 0.10000
N 	N 	0.68240 0.83060 0.24890 -0.13400
N 	N 	0.72170 0.95900 0.27190 -0.13900
C 	C 	0.70480 0.78440 0.28160 0.10500
C 	C 	0.74090 0.90760 0.30480 0.08300
C 	C 	0.69640 0.68700 0.28210 0.06300
N 	N 	0.73340 0.81950 0.31090 -0.13800
C 	C 	0.77280 0.95200 0.33630 0.06600
C 	C 	0.66300 0.65140 0.25490 -0.13000
C 	C 	0.72230 0.62520 0.30590 -0.13100
C 	C 	0.79200 0.90780 0.37300 -0.13900
C 	C 	0.78320 0.04070 0.32910 -0.15000
C 	C 	0.65670 0.55920 0.25350 0.07500
H 	H 	0.64510 0.69000 0.23790 0.08900
C 	C 	0.71490 0.53340 0.30110 0.08000
H 	H 	0.74450 0.64560 0.32510 0.08500
C 	C 	0.82110 0.95390 0.40150 0.08400
H 	H 	0.78560 0.84840 0.37880 0.09400
C 	C 	0.81260 0.08080 0.35890 0.08900
H 	H 	0.77050 0.07240 0.30460 0.10400
N 	N 	0.68230 0.50160 0.27570 -0.27400
H 	H 	0.63370 0.53660 0.23640 -0.01800
H 	H 	0.73320 0.49260 0.31590 -0.01300
N 	N 	0.83130 0.03890 0.39510 -0.27900
H 	H 	0.83420 0.92370 0.42630 -0.00600
H 	H 	0.81980 0.13990 0.35360 -0.01100
Zn	Zn	0.66882 0.36405 0.26885 1.16400
Zn	Zn	0.87417 0.09984 0.44090 1.16500
N 	N 	0.13750 0.84400 0.31830 -0.28700
I 	I 	0.62275 0.34835 0.19512 -0.40400
I 	I 	0.72975 0.26677 0.29116 -0.37800
I 	I 	0.89696 0.23781 0.40304 -0.37900
I 	I 	0.85106 0.09656 0.51316 -0.36900
N 	N 	0.91930 0.00840 0.44460 -0.27700
C 	C 	0.93440 0.99390 0.40860 0.08800
C 	C 	0.93640 0.96550 0.48120 0.08800
C 	C 	0.96610 0.94110 0.40820 -0.14400
H 	H 	0.92250 0.02170 0.38250 -0.01600
H 	H 	0.92630 0.97470 0.50650 -0.01000
C 	C 	0.96800 0.90830 0.48370 -0.14000
C 	C 	0.98350 0.89630 0.44590 0.06300
H 	H 	0.97610 0.93510 0.38270 0.09800
H 	H 	0.97860 0.87870 0.50980 0.08700
C 	C 	0.01730 0.83590 0.44530 0.08600
N 	N 	0.03910 0.85510 0.41510 -0.13200
N 	N 	0.02260 0.76640 0.47280 -0.14700
C 	C 	0.06730 0.79450 0.41310 0.09600
C 	C 	0.05110 0.70900 0.46630 0.09200
C 	C 	0.09200 0.81210 0.38080 0.09000
N 	N 	0.07340 0.71890 0.43730 -0.13500
C 	C 	0.05630 0.62610 0.49410 0.05500
C 	C 	0.09320 0.89760 0.36250 -0.14300
C 	C 	0.11510 0.74590 0.36870 -0.15800
C 	C 	0.03140 0.60400 0.52150 -0.12200
C 	C 	0.08800 0.56840 0.49320 -0.12400
C 	C 	0.11660 0.91030 0.33130 0.09300
H 	H 	0.07870 0.94530 0.37070 0.09500
C 	C 	0.13800 0.76790 0.33870 0.11400
H 	H 	0.11540 0.68770 0.38030 0.10100
C 	C 	0.03830 0.52680 0.54810 0.07100
H 	H 	0.00980 0.64040 0.52250 0.07800
C 	C 	0.09370 0.49430 0.52050 0.06800
H 	H 	0.10510 0.58010 0.47430 0.08400
H 	H 	0.11770 0.96770 0.31910 -0.02200
H 	H 	0.15530 0.72390 0.33260 -0.02900
H 	H 	0.02110 0.51270 0.56650 -0.00800
H 	H 	0.11520 0.45730 0.52030 -0.01200
I 	I 	0.87959 0.25365 0.94446 -0.38000
Zn	Zn	0.91631 0.36833 0.90757 1.16500
I 	I 	0.97356 0.34491 0.86894 -0.34900
N 	N 	0.43090 0.02700 0.45230 -0.27100
N 	N 	0.87570 0.43640 0.86120 -0.27200
C 	C 	0.84770 0.39410 0.83240 0.07800
C 	C 	0.88090 0.52570 0.85530 0.07600
C 	C 	0.82550 0.43740 0.79720 -0.14000
H 	H 	0.84320 0.33280 0.83660 -0.01500
C 	C 	0.85970 0.57430 0.82150 -0.13200
H 	H 	0.89990 0.55580 0.87540 -0.00400
H 	H 	0.80690 0.40540 0.77740 0.08700
C 	C 	0.83100 0.53030 0.79110 0.06400
H 	H 	0.86440 0.63590 0.81880 0.09900
C 	C 	0.80780 0.58230 0.75430 0.10000
N 	N 	0.81760 0.66940 0.75110 -0.13400
N 	N 	0.77830 0.54100 0.72810 -0.13900
C 	C 	0.79520 0.71560 0.71840 0.10500
C 	C 	0.75910 0.59240 0.69520 0.08300
C 	C 	0.80360 0.81300 0.71790 0.06300
N 	N 	0.76660 0.68050 0.68910 -0.13800
C 	C 	0.72720 0.54800 0.66370 0.06600
C 	C 	0.83700 0.84860 0.74510 -0.13000
C 	C 	0.77770 0.87480 0.69410 -0.13100
C 	C 	0.70800 0.59220 0.62700 -0.13900
C 	C 	0.71680 0.45930 0.67090 -0.15100
C 	C 	0.84330 0.94080 0.74650 0.07500
H 	H 	0.85490 0.81000 0.76210 0.08900
C 	C 	0.78510 0.96660 0.69890 0.08000
H 	H 	0.75550 0.85440 0.67490 0.08500
C 	C 	0.67890 0.54610 0.59850 0.08400
H 	H 	0.71440 0.65160 0.62120 0.09400
C 	C 	0.68740 0.41920 0.64110 0.08900
H 	H 	0.72950 0.42760 0.69540 0.10500
N 	N 	0.81770 0.99840 0.72430 -0.27400
H 	H 	0.86630 0.96340 0.76360 -0.01800
H 	H 	0.76680 0.00740 0.68410 -0.01400
N 	N 	0.66870 0.46110 0.60490 -0.27900
H 	H 	0.66580 0.57630 0.57370 -0.00600
H 	H 	0.68020 0.36010 0.64640 -0.01100
Zn	Zn	0.83118 0.13595 0.73115 1.16400
Zn	Zn	0.62583 0.40016 0.55910 1.16500
N 	N 	0.36250 0.65600 0.68170 -0.28700
I 	I 	0.87725 0.15165 0.80488 -0.40400
I 	I 	0.77025 0.23323 0.70884 -0.37800
I 	I 	0.60304 0.26219 0.59696 -0.37900
I 	I 	0.64894 0.40344 0.48684 -0.36900
N 	N 	0.58070 0.49160 0.55540 -0.27700
C 	C 	0.56560 0.50610 0.59140 0.08800
C 	C 	0.56360 0.53450 0.51880 0.08800
C 	C 	0.53390 0.55890 0.59180 -0.14400
H 	H 	0.57750 0.47830 0.61750 -0.01600
H 	H 	0.57370 0.52530 0.49350 -0.01000
C 	C 	0.53200 0.59170 0.51630 -0.14000
C 	C 	0.51650 0.60370 0.55410 0.06300
H 	H 	0.52390 0.56490 0.61730 0.09800
H 	H 	0.52140 0.62130 0.49020 0.08700
C 	C 	0.48270 0.66410 0.55470 0.08600
N 	N 	0.46090 0.64490 0.58490 -0.13200
N 	N 	0.47740 0.73360 0.52720 -0.14700
C 	C 	0.43270 0.70550 0.58690 0.09600
C 	C 	0.44890 0.79100 0.53370 0.09200
C 	C 	0.40800 0.68790 0.61920 0.09000
N 	N 	0.42660 0.78110 0.56270 -0.13500
C 	C 	0.44370 0.87390 0.50590 0.05500
C 	C 	0.40680 0.60240 0.63750 -0.14300
C 	C 	0.38490 0.75410 0.63130 -0.15800
C 	C 	0.46860 0.89600 0.47850 -0.12200
C 	C 	0.41200 0.93160 0.50680 -0.12400
C 	C 	0.38340 0.58970 0.66870 0.09300
H 	H 	0.42130 0.55470 0.62930 0.09500
C 	C 	0.36200 0.73210 0.66130 0.11400
H 	H 	0.38460 0.81230 0.61970 0.10100
C 	C 	0.46170 0.97320 0.45190 0.07000
H 	H 	0.49020 0.85960 0.47750 0.07800
C 	C 	0.40630 0.00570 0.47950 0.06800
H 	H 	0.39490 0.91990 0.52570 0.08400
H 	H 	0.38230 0.53230 0.68090 -0.02200
H 	H 	0.34470 0.77610 0.66740 -0.02900
H 	H 	0.47890 0.98730 0.43350 -0.00800
H 	H 	0.38480 0.04270 0.47970 -0.01200
I 	I 	0.37959 0.75365 0.94446 -0.38000
Zn	Zn	0.41631 0.86833 0.90757 1.16500
I 	I 	0.47356 0.84491 0.86894 -0.34900
N 	N 	0.93090 0.52700 0.45230 -0.27100
N 	N 	0.37570 0.93640 0.86120 -0.27100
C 	C 	0.34770 0.89410 0.83240 0.07700
C 	C 	0.38090 0.02570 0.85530 0.07500
C 	C 	0.32550 0.93740 0.79720 -0.13900
H 	H 	0.34320 0.83280 0.83660 -0.01500
C 	C 	0.35970 0.07430 0.82150 -0.13100
H 	H 	0.39990 0.05580 0.87540 -0.00400
H 	H 	0.30690 0.90540 0.77740 0.08600
C 	C 	0.33100 0.03030 0.79110 0.06400
H 	H 	0.36440 0.13590 0.81880 0.09900
C 	C 	0.30780 0.08230 0.75430 0.10000
N 	N 	0.31760 0.16940 0.75110 -0.13400
N 	N 	0.27830 0.04100 0.72810 -0.13900
C 	C 	0.29520 0.21560 0.71840 0.10500
C 	C 	0.25910 0.09240 0.69520 0.08300
C 	C 	0.30360 0.31300 0.71790 0.06300
N 	N 	0.26660 0.18050 0.68910 -0.13800
C 	C 	0.22720 0.04800 0.66370 0.06600
C 	C 	0.33700 0.34860 0.74510 -0.13000
C 	C 	0.27770 0.37480 0.69410 -0.13100
C 	C 	0.20800 0.09220 0.62700 -0.13900
C 	C 	0.21680 0.95930 0.67090 -0.15000
C 	C 	0.34330 0.44080 0.74650 0.07500
H 	H 	0.35490 0.31000 0.76210 0.08900
C 	C 	0.28510 0.46660 0.69890 0.08000
H 	H 	0.25550 0.35440 0.67490 0.08500
C 	C 	0.17890 0.04610 0.59850 0.08400
H 	H 	0.21440 0.15160 0.62120 0.09400
C 	C 	0.18740 0.91920 0.64110 0.08900
H 	H 	0.22950 0.92760 0.69540 0.10400
N 	N 	0.31770 0.49840 0.72430 -0.27400
H 	H 	0.36630 0.46340 0.76360 -0.01800
H 	H 	0.26680 0.50740 0.68410 -0.01300
N 	N 	0.16870 0.96110 0.60490 -0.27900
H 	H 	0.16580 0.07630 0.57370 -0.00600
H 	H 	0.18020 0.86010 0.64640 -0.01100
Zn	Zn	0.33118 0.63595 0.73115 1.16400
Zn	Zn	0.12583 0.90016 0.55910 1.16500
N 	N 	0.86250 0.15600 0.68170 -0.28700
I 	I 	0.37725 0.65165 0.80488 -0.40400
I 	I 	0.27025 0.73323 0.70884 -0.37800
I 	I 	0.10304 0.76219 0.59696 -0.37900
I 	I 	0.14894 0.90344 0.48684 -0.36900
N 	N 	0.08070 0.99160 0.55540 -0.27700
C 	C 	0.06560 0.00610 0.59140 0.08800
C 	C 	0.06360 0.03450 0.51880 0.08800
C 	C 	0.03390 0.05890 0.59180 -0.14400
H 	H 	0.07750 0.97830 0.61750 -0.01600
H 	H 	0.07370 0.02530 0.49350 -0.01000
C 	C 	0.03200 0.09170 0.51630 -0.14000
C 	C 	0.01650 0.10370 0.55410 0.06300
H 	H 	0.02390 0.06490 0.61730 0.09800
H 	H 	0.02140 0.12130 0.49020 0.08700
C 	C 	0.98270 0.16410 0.55470 0.08600
N 	N 	0.96090 0.14490 0.58490 -0.13200
N 	N 	0.97740 0.23360 0.52720 -0.14700
C 	C 	0.93270 0.20550 0.58690 0.09600
C 	C 	0.94890 0.29100 0.53370 0.09200
C 	C 	0.90800 0.18790 0.61920 0.09000
N 	N 	0.92660 0.28110 0.56270 -0.13500
C 	C 	0.94370 0.37390 0.50590 0.05500
C 	C 	0.90680 0.10240 0.63750 -0.14300
C 	C 	0.88490 0.25410 0.63130 -0.15800
C 	C 	0.96860 0.39600 0.47850 -0.12200
C 	C 	0.91200 0.43160 0.50680 -0.12400
C 	C 	0.88340 0.08970 0.66870 0.09300
H 	H 	0.92130 0.05470 0.62930 0.09500
C 	C 	0.86200 0.23210 0.66130 0.11400
H 	H 	0.88460 0.31230 0.61970 0.10100
C 	C 	0.96170 0.47320 0.45190 0.07100
H 	H 	0.99020 0.35960 0.47750 0.07800
C 	C 	0.90630 0.50570 0.47950 0.06800
H 	H 	0.89490 0.41990 0.52570 0.08400
H 	H 	0.88230 0.03230 0.68090 -0.02200
H 	H 	0.84470 0.27610 0.66740 -0.02900
H 	H 	0.97890 0.48730 0.43350 -0.00800
H 	H 	0.88480 0.54270 0.47970 -0.01200
I 	I 	0.87959 0.74635 0.44446 -0.38000
Zn	Zn	0.91631 0.63167 0.40757 1.16500
I 	I 	0.97356 0.65509 0.36894 -0.34900
N 	N 	0.43090 0.97300 0.95230 -0.27100
N 	N 	0.87570 0.56360 0.36120 -0.27200
C 	C 	0.84770 0.60590 0.33240 0.07800
C 	C 	0.88090 0.47430 0.35530 0.07600
C 	C 	0.82550 0.56260 0.29720 -0.14000
H 	H 	0.84320 0.66720 0.33660 -0.01500
C 	C 	0.85970 0.42570 0.32150 -0.13200
H 	H 	0.89990 0.44420 0.37540 -0.00400
H 	H 	0.80690 0.59460 0.27740 0.08700
C 	C 	0.83100 0.46970 0.29110 0.06400
H 	H 	0.86440 0.36410 0.31880 0.09900
C 	C 	0.80780 0.41770 0.25430 0.10000
N 	N 	0.81760 0.33060 0.25110 -0.13400
N 	N 	0.77830 0.45900 0.22810 -0.13900
C 	C 	0.79520 0.28440 0.21840 0.10500
C 	C 	0.75910 0.40760 0.19520 0.08300
C 	C 	0.80360 0.18700 0.21790 0.06300
N 	N 	0.76660 0.31950 0.18910 -0.13800
C 	C 	0.72720 0.45200 0.16370 0.06600
C 	C 	0.83700 0.15140 0.24510 -0.13000
C 	C 	0.77770 0.12520 0.19410 -0.13100
C 	C 	0.70800 0.40780 0.12700 -0.13900
C 	C 	0.71680 0.54070 0.17090 -0.15100
C 	C 	0.84330 0.05920 0.24650 0.07500
H 	H 	0.85490 0.19000 0.26210 0.08900
C 	C 	0.78510 0.03340 0.19890 0.08000
H 	H 	0.75550 0.14560 0.17490 0.08500
C 	C 	0.67890 0.45390 0.09850 0.08400
H 	H 	0.71440 0.34840 0.12120 0.09400
C 	C 	0.68740 0.58080 0.14110 0.08900
H 	H 	0.72950 0.57240 0.19540 0.10500
N 	N 	0.81770 0.00160 0.22430 -0.27400
H 	H 	0.86630 0.03660 0.26360 -0.01800
H 	H 	0.76680 0.99260 0.18410 -0.01400
N 	N 	0.66870 0.53890 0.10490 -0.27900
H 	H 	0.66580 0.42370 0.07370 -0.00600
H 	H 	0.68020 0.63990 0.14640 -0.01100
Zn	Zn	0.83118 0.86405 0.23115 1.16400
Zn	Zn	0.62583 0.59984 0.05910 1.16500
N 	N 	0.36250 0.34400 0.18170 -0.28700
I 	I 	0.87725 0.84835 0.30488 -0.40400
I 	I 	0.77025 0.76677 0.20884 -0.37800
I 	I 	0.60304 0.73781 0.09696 -0.37900
I 	I 	0.64894 0.59656 0.98684 -0.36900
N 	N 	0.58070 0.50840 0.05540 -0.27700
C 	C 	0.56560 0.49390 0.09140 0.08800
C 	C 	0.56360 0.46550 0.01880 0.08800
C 	C 	0.53390 0.44110 0.09180 -0.14400
H 	H 	0.57750 0.52170 0.11750 -0.01600
H 	H 	0.57370 0.47470 0.99350 -0.01000
C 	C 	0.53200 0.40830 0.01630 -0.14000
C 	C 	0.51650 0.39630 0.05410 0.06300
H 	H 	0.52390 0.43510 0.11730 0.09800
H 	H 	0.52140 0.37870 0.99020 0.08700
C 	C 	0.48270 0.33590 0.05470 0.08600
N 	N 	0.46090 0.35510 0.08490 -0.13200
N 	N 	0.47740 0.26640 0.02720 -0.14700
C 	C 	0.43270 0.29450 0.08690 0.09600
C 	C 	0.44890 0.20900 0.03370 0.09200
C 	C 	0.40800 0.31210 0.11920 0.09000
N 	N 	0.42660 0.21890 0.06270 -0.13500
C 	C 	0.44370 0.12610 0.00590 0.05500
C 	C 	0.40680 0.39760 0.13750 -0.14300
C 	C 	0.38490 0.24590 0.13130 -0.15800
C 	C 	0.46860 0.10400 0.97850 -0.12200
C 	C 	0.41200 0.06840 0.00680 -0.12400
C 	C 	0.38340 0.41030 0.16870 0.09300
H 	H 	0.42130 0.44530 0.12930 0.09500
C 	C 	0.36200 0.26790 0.16130 0.11400
H 	H 	0.38460 0.18770 0.11970 0.10100
C 	C 	0.46170 0.02680 0.95190 0.07000
H 	H 	0.49020 0.14040 0.97750 0.07800
C 	C 	0.40630 0.99430 0.97950 0.06800
H 	H 	0.39490 0.08010 0.02570 0.08400
H 	H 	0.38230 0.46770 0.18090 -0.02200
H 	H 	0.34470 0.22390 0.16740 -0.02900
H 	H 	0.47890 0.01270 0.93350 -0.00800
H 	H 	0.38480 0.95730 0.97970 -0.01200
I 	I 	0.37959 0.24635 0.44446 -0.38000
Zn	Zn	0.41631 0.13167 0.40757 1.16500
I 	I 	0.47356 0.15509 0.36894 -0.34900
N 	N 	0.93090 0.47300 0.95230 -0.27100
N 	N 	0.37570 0.06360 0.36120 -0.27200
C 	C 	0.34770 0.10590 0.33240 0.07700
C 	C 	0.38090 0.97430 0.35530 0.07600
C 	C 	0.32550 0.06260 0.29720 -0.13900
H 	H 	0.34320 0.16720 0.33660 -0.01500
C 	C 	0.35970 0.92570 0.32150 -0.13100
H 	H 	0.39990 0.94420 0.37540 -0.00400
H 	H 	0.30690 0.09460 0.27740 0.08600
C 	C 	0.33100 0.96970 0.29110 0.06400
H 	H 	0.36440 0.86410 0.31880 0.09900
C 	C 	0.30780 0.91770 0.25430 0.10000
N 	N 	0.31760 0.83060 0.25110 -0.13400
N 	N 	0.27830 0.95900 0.22810 -0.13900
C 	C 	0.29520 0.78440 0.21840 0.10500
C 	C 	0.25910 0.90760 0.19520 0.08300
C 	C 	0.30360 0.68700 0.21790 0.06300
N 	N 	0.26660 0.81950 0.18910 -0.13900
C 	C 	0.22720 0.95200 0.16370 0.06500
C 	C 	0.33700 0.65140 0.24510 -0.13000
C 	C 	0.27770 0.62520 0.19410 -0.13100
C 	C 	0.20800 0.90780 0.12700 -0.13900
C 	C 	0.21680 0.04070 0.17090 -0.15000
C 	C 	0.34330 0.55920 0.24650 0.07500
H 	H 	0.35490 0.69000 0.26210 0.08900
C 	C 	0.28510 0.53340 0.19890 0.08000
H 	H 	0.25550 0.64560 0.17490 0.08500
C 	C 	0.17890 0.95390 0.09850 0.08400
H 	H 	0.21440 0.84840 0.12120 0.09400
C 	C 	0.18740 0.08080 0.14110 0.08900
H 	H 	0.22950 0.07240 0.19540 0.10400
N 	N 	0.31770 0.50160 0.22430 -0.27400
H 	H 	0.36630 0.53660 0.26360 -0.01800
H 	H 	0.26680 0.49260 0.18410 -0.01300
N 	N 	0.16870 0.03890 0.10490 -0.27900
H 	H 	0.16580 0.92370 0.07370 -0.00600
H 	H 	0.18020 0.13990 0.14640 -0.01100
Zn	Zn	0.33118 0.36405 0.23115 1.16400
Zn	Zn	0.12583 0.09984 0.05910 1.16500
N 	N 	0.86250 0.84400 0.18170 -0.28700
I 	I 	0.37725 0.34835 0.30488 -0.40400
I 	I 	0.27025 0.26677 0.20884 -0.37800
I 	I 	0.10304 0.23781 0.09696 -0.37900
I 	I 	0.14894 0.09656 0.98684 -0.36900
N 	N 	0.08070 0.00840 0.05540 -0.27700
C 	C 	0.06560 0.99390 0.09140 0.08800
C 	C 	0.06360 0.96550 0.01880 0.08800
C 	C 	0.03390 0.94110 0.09180 -0.14400
H 	H 	0.07750 0.02170 0.11750 -0.01600
H 	H 	0.07370 0.97470 0.99350 -0.01000
C 	C 	0.03200 0.90830 0.01630 -0.14000
C 	C 	0.01650 0.89630 0.05410 0.06300
H 	H 	0.02390 0.93510 0.11730 0.09800
H 	H 	0.02140 0.87870 0.99020 0.08700
C 	C 	0.98270 0.83590 0.05470 0.08600
N 	N 	0.96090 0.85510 0.08490 -0.13200
N 	N 	0.97740 0.76640 0.02720 -0.14700
C 	C 	0.93270 0.79450 0.08690 0.09600
C 	C 	0.94890 0.70900 0.03370 0.09200
C 	C 	0.90800 0.81210 0.11920 0.09000
N 	N 	0.92660 0.71890 0.06270 -0.13500
C 	C 	0.94370 0.62610 0.00590 0.05500
C 	C 	0.90680 0.89760 0.13750 -0.14300
C 	C 	0.88490 0.74590 0.13130 -0.15800
C 	C 	0.96860 0.60400 0.97850 -0.12200
C 	C 	0.91200 0.56840 0.00680 -0.12400
C 	C 	0.88340 0.91030 0.16870 0.09300
H 	H 	0.92130 0.94530 0.12930 0.09500
C 	C 	0.86200 0.76790 0.16130 0.11400
H 	H 	0.88460 0.68770 0.11970 0.10100
C 	C 	0.96170 0.52680 0.95190 0.07100
H 	H 	0.99020 0.64040 0.97750 0.07800
C 	C 	0.90630 0.49430 0.97950 0.06800
H 	H 	0.89490 0.58010 0.02570 0.08400
H 	H 	0.88230 0.96770 0.18090 -0.02200
H 	H 	0.84470 0.72390 0.16740 -0.02900
H 	H 	0.97890 0.51270 0.93350 -0.00800
H 	H 	0.88480 0.45730 0.97970 -0.01200
