data_crystal

_cell_length_a 35.57700
_cell_length_b 14.63400
_cell_length_c 30.50000
_cell_angle_alpha 90.00000
_cell_angle_beta  102.33300
_cell_angle_gamma 90.00000

_symmetry_space_group_name_	'P 1'
_symmetry_space_group_name_H-M	'P 1'

loop_
_symmetry_equiv_pos_as_xyz
  x,y,z

loop_
_atom_site_label
_atom_site_type_symbol
_atom_site_fract_x
_atom_site_fract_y
_atom_site_fract_z
_atom_site_charge
Br	Br	0.27234 0.23568 0.70941 -0.47900
Br	Br	0.36894 0.15165 0.80065 -0.47300
Br	Br	0.38231 0.74434 0.43678 -0.46400
Br	Br	0.46949 0.66778 0.37220 -0.45000
Br	Br	0.10445 0.73824 0.09392 -0.47400
Br	Br	0.13455 0.59958 0.98817 -0.46400
C 	C 	0.17230 0.45300 0.09730 0.09400
H 	H 	0.15830 0.42220 0.07250 0.01000
C 	C 	0.20170 0.40610 0.12600 -0.12800
H 	H 	0.20700 0.34540 0.12060 0.10200
C 	C 	0.22265 0.45160 0.16254 0.07000
C 	C 	0.21363 0.54280 0.16900 -0.13900
H 	H 	0.22770 0.57560 0.19310 0.11100
C 	C 	0.18412 0.58310 0.13960 0.08700
H 	H 	0.17800 0.64350 0.14460 0.00300
C 	C 	0.25424 0.40690 0.19412 0.08700
C 	C 	0.28923 0.28180 0.21800 0.11300
C 	C 	0.30400 0.41520 0.25394 0.10300
C 	C 	0.29796 0.18080 0.21650 0.07400
C 	C 	0.27279 0.12020 0.19120 -0.12800
H 	H 	0.25020 0.14090 0.17250 0.09100
C 	C 	0.28163 0.02650 0.19390 0.08100
H 	H 	0.26480 0.98550 0.17650 -0.00300
C 	C 	0.33820 0.05400 0.24330 0.08900
H 	H 	0.36120 0.03190 0.26020 -0.01100
C 	C 	0.33190 0.14530 0.24320 -0.13800
H 	H 	0.34990 0.18400 0.26050 0.09600
C 	C 	0.38050 0.47390 0.35390 0.08300
H 	H 	0.39930 0.44350 0.37470 0.00500
C 	C 	0.35720 0.42420 0.32130 -0.13300
H 	H 	0.36020 0.36130 0.31960 0.10700
C 	C 	0.32889 0.46880 0.29058 0.07200
C 	C 	0.32502 0.56360 0.29480 -0.13900
H 	H 	0.30610 0.59540 0.27490 0.09600
C 	C 	0.34951 0.60880 0.32860 0.08100
H 	H 	0.34660 0.67150 0.33160 0.00300
C 	C 	0.46114 0.47490 0.45071 0.08800
H 	H 	0.47820 0.48840 0.43240 -0.00400
C 	C 	0.46737 0.39700 0.47660 -0.12800
H 	H 	0.48740 0.35760 0.47450 0.08700
C 	C 	0.44315 0.37830 0.50582 0.06800
C 	C 	0.41340 0.43970 0.50670 -0.12900
H 	H 	0.39670 0.42990 0.52580 0.09300
C 	C 	0.40910 0.51380 0.47950 0.07900
H 	H 	0.38920 0.55440 0.48070 -0.00400
C 	C 	0.44860 0.29450 0.53482 0.10300
C 	C 	0.48125 0.16700 0.55879 0.10100
C 	C 	0.43335 0.21360 0.59074 0.11300
C 	C 	0.40848 0.19780 0.62310 0.09400
C 	C 	0.41920 0.14400 0.65990 -0.14900
H 	H 	0.44340 0.11680 0.66580 0.10200
C 	C 	0.39520 0.12920 0.68820 0.10200
H 	H 	0.40380 0.09210 0.71300 -0.01600
C 	C 	0.34900 0.21640 0.64590 0.09300
H 	H 	0.32450 0.24180 0.64040 -0.00500
C 	C 	0.37210 0.23410 0.61590 -0.13800
H 	H 	0.36310 0.27060 0.59090 0.10300
C 	C 	0.51339 0.10270 0.55758 0.06700
C 	C 	0.53000 0.09770 0.52080 -0.13200
H 	H 	0.52110 0.13410 0.49580 0.08900
C 	C 	0.56021 0.03760 0.52180 0.08500
H 	H 	0.57100 0.03310 0.49660 0.00400
C 	C 	0.55840 0.99170 0.59310 0.09200
H 	H 	0.56800 0.95530 0.61790 -0.00900
C 	C 	0.52830 0.04920 0.59460 -0.13100
H 	H 	0.51800 0.05220 0.62020 0.09800
N 	N 	0.16315 0.53890 0.10339 -0.26700
N 	N 	0.31354 0.99450 0.22087 -0.26600
N 	N 	0.37749 0.56540 0.35743 -0.26000
N 	N 	0.26038 0.31590 0.18814 -0.13400
N 	N 	0.31256 0.32710 0.25111 -0.13200
N 	N 	0.27463 0.45880 0.22698 -0.13400
N 	N 	0.43209 0.53150 0.45067 -0.26700
N 	N 	0.57448 0.98560 0.55767 -0.26600
N 	N 	0.36000 0.16470 0.68245 -0.27800
N 	N 	0.42594 0.28760 0.56454 -0.13000
N 	N 	0.47570 0.23600 0.52913 -0.14200
N 	N 	0.46108 0.15280 0.59036 -0.12800
Zn	Zn	0.32728 0.14378 0.72863 1.19000
Zn	Zn	0.41729 0.63624 0.40476 1.19200
Zn	Zn	0.11959 0.60315 0.05905 1.19200
Br	Br	0.77234 0.73568 0.70941 -0.48000
Br	Br	0.86894 0.65165 0.80065 -0.47400
Br	Br	0.88231 0.24434 0.43678 -0.46500
Br	Br	0.96949 0.16778 0.37220 -0.45200
Br	Br	0.60445 0.23824 0.09392 -0.47500
Br	Br	0.63455 0.09958 0.98817 -0.46500
C 	C 	0.67230 0.95300 0.09730 0.09400
H 	H 	0.65830 0.92220 0.07250 0.00900
C 	C 	0.70170 0.90610 0.12600 -0.12900
H 	H 	0.70700 0.84540 0.12060 0.10200
C 	C 	0.72265 0.95160 0.16254 0.07000
C 	C 	0.71363 0.04280 0.16900 -0.14000
H 	H 	0.72770 0.07560 0.19310 0.11000
C 	C 	0.68412 0.08310 0.13960 0.08600
H 	H 	0.67800 0.14350 0.14460 0.00200
C 	C 	0.75424 0.90690 0.19412 0.08600
C 	C 	0.78923 0.78180 0.21800 0.11200
C 	C 	0.80400 0.91520 0.25394 0.10200
C 	C 	0.79796 0.68080 0.21650 0.07300
C 	C 	0.77279 0.62020 0.19120 -0.13000
H 	H 	0.75020 0.64090 0.17250 0.09000
C 	C 	0.78163 0.52650 0.19390 0.08100
H 	H 	0.76480 0.48550 0.17650 -0.00400
C 	C 	0.83820 0.55400 0.24330 0.08900
H 	H 	0.86120 0.53190 0.26020 -0.01100
C 	C 	0.83190 0.64530 0.24320 -0.13800
H 	H 	0.84990 0.68400 0.26050 0.09600
C 	C 	0.88050 0.97390 0.35390 0.08400
H 	H 	0.89930 0.94350 0.37470 0.00500
C 	C 	0.85720 0.92420 0.32130 -0.13300
H 	H 	0.86020 0.86130 0.31960 0.10800
C 	C 	0.82889 0.96880 0.29058 0.07200
C 	C 	0.82502 0.06360 0.29480 -0.13900
H 	H 	0.80610 0.09540 0.27490 0.09700
C 	C 	0.84951 0.10880 0.32860 0.08100
H 	H 	0.84660 0.17150 0.33160 0.00200
C 	C 	0.96114 0.97490 0.45071 0.08800
H 	H 	0.97820 0.98840 0.43240 -0.00400
C 	C 	0.96737 0.89700 0.47660 -0.12800
H 	H 	0.98740 0.85760 0.47450 0.08700
C 	C 	0.94315 0.87830 0.50582 0.06800
C 	C 	0.91340 0.93970 0.50670 -0.12900
H 	H 	0.89670 0.92990 0.52580 0.09300
C 	C 	0.90910 0.01380 0.47950 0.07900
H 	H 	0.88920 0.05440 0.48070 -0.00400
C 	C 	0.94860 0.79450 0.53482 0.10300
C 	C 	0.98125 0.66700 0.55879 0.10100
C 	C 	0.93335 0.71360 0.59074 0.11300
C 	C 	0.90848 0.69780 0.62310 0.09400
C 	C 	0.91920 0.64400 0.65990 -0.14900
H 	H 	0.94340 0.61680 0.66580 0.10200
C 	C 	0.89520 0.62920 0.68820 0.10200
H 	H 	0.90380 0.59210 0.71300 -0.01600
C 	C 	0.84900 0.71640 0.64590 0.09300
H 	H 	0.82450 0.74180 0.64040 -0.00500
C 	C 	0.87210 0.73410 0.61590 -0.13800
H 	H 	0.86310 0.77060 0.59090 0.10300
C 	C 	0.01339 0.60270 0.55758 0.06700
C 	C 	0.03000 0.59770 0.52080 -0.13200
H 	H 	0.02110 0.63410 0.49580 0.08900
C 	C 	0.06021 0.53760 0.52180 0.08500
H 	H 	0.07100 0.53310 0.49660 0.00400
C 	C 	0.05840 0.49170 0.59310 0.09200
H 	H 	0.06800 0.45530 0.61790 -0.00900
C 	C 	0.02830 0.54920 0.59460 -0.13200
H 	H 	0.01800 0.55220 0.62020 0.09800
N 	N 	0.66315 0.03890 0.10339 -0.26700
N 	N 	0.81354 0.49450 0.22087 -0.26600
N 	N 	0.87749 0.06540 0.35743 -0.26000
N 	N 	0.76038 0.81590 0.18814 -0.13400
N 	N 	0.81256 0.82710 0.25111 -0.13200
N 	N 	0.77463 0.95880 0.22698 -0.13400
N 	N 	0.93209 0.03150 0.45067 -0.26700
N 	N 	0.07448 0.48560 0.55767 -0.26600
N 	N 	0.86000 0.66470 0.68245 -0.27800
N 	N 	0.92594 0.78760 0.56454 -0.13000
N 	N 	0.97570 0.73600 0.52913 -0.14200
N 	N 	0.96108 0.65280 0.59036 -0.12800
Zn	Zn	0.82728 0.64378 0.72863 1.18900
Zn	Zn	0.91729 0.13624 0.40476 1.19200
Zn	Zn	0.61959 0.10315 0.05905 1.19200
Br	Br	0.27234 0.76432 0.20941 -0.48000
Br	Br	0.36894 0.84835 0.30065 -0.47400
Br	Br	0.38231 0.25566 0.93678 -0.46500
Br	Br	0.46949 0.33222 0.87220 -0.45100
Br	Br	0.10445 0.26176 0.59392 -0.47500
Br	Br	0.13455 0.40042 0.48817 -0.46500
C 	C 	0.17230 0.54700 0.59730 0.09300
H 	H 	0.15830 0.57780 0.57250 0.00900
C 	C 	0.20170 0.59390 0.62600 -0.12900
H 	H 	0.20700 0.65460 0.62060 0.10100
C 	C 	0.22265 0.54840 0.66254 0.06900
C 	C 	0.21363 0.45720 0.66900 -0.14000
H 	H 	0.22770 0.42440 0.69310 0.11000
C 	C 	0.18412 0.41690 0.63960 0.08600
H 	H 	0.17800 0.35650 0.64460 0.00200
C 	C 	0.25424 0.59310 0.69412 0.08600
C 	C 	0.28923 0.71820 0.71800 0.11200
C 	C 	0.30400 0.58480 0.75394 0.10200
C 	C 	0.29796 0.81920 0.71650 0.07300
C 	C 	0.27279 0.87980 0.69120 -0.12900
H 	H 	0.25020 0.85910 0.67250 0.09000
C 	C 	0.28163 0.97350 0.69390 0.08000
H 	H 	0.26480 0.01450 0.67650 -0.00400
C 	C 	0.33820 0.94600 0.74330 0.08800
H 	H 	0.36120 0.96810 0.76020 -0.01100
C 	C 	0.33190 0.85470 0.74320 -0.13800
H 	H 	0.34990 0.81600 0.76050 0.09600
C 	C 	0.38050 0.52610 0.85390 0.08300
H 	H 	0.39930 0.55650 0.87470 0.00500
C 	C 	0.35720 0.57580 0.82130 -0.13300
H 	H 	0.36020 0.63870 0.81960 0.10700
C 	C 	0.32889 0.53120 0.79058 0.07200
C 	C 	0.32502 0.43640 0.79480 -0.13900
H 	H 	0.30610 0.40460 0.77490 0.09600
C 	C 	0.34951 0.39120 0.82860 0.08100
H 	H 	0.34660 0.32850 0.83160 0.00300
C 	C 	0.46114 0.52510 0.95071 0.08800
H 	H 	0.47820 0.51160 0.93240 -0.00400
C 	C 	0.46737 0.60300 0.97660 -0.12800
H 	H 	0.48740 0.64240 0.97450 0.08700
C 	C 	0.44315 0.62170 0.00582 0.06800
C 	C 	0.41340 0.56030 0.00670 -0.12900
H 	H 	0.39670 0.57010 0.02580 0.09300
C 	C 	0.40910 0.48620 0.97950 0.07900
H 	H 	0.38920 0.44560 0.98070 -0.00400
C 	C 	0.44860 0.70550 0.03482 0.10300
C 	C 	0.48125 0.83300 0.05879 0.10100
C 	C 	0.43335 0.78640 0.09074 0.11300
C 	C 	0.40848 0.80220 0.12310 0.09400
C 	C 	0.41920 0.85600 0.15990 -0.14900
H 	H 	0.44340 0.88320 0.16580 0.10200
C 	C 	0.39520 0.87080 0.18820 0.10200
H 	H 	0.40380 0.90790 0.21300 -0.01600
C 	C 	0.34900 0.78360 0.14590 0.09300
H 	H 	0.32450 0.75820 0.14040 -0.00500
C 	C 	0.37210 0.76590 0.11590 -0.13800
H 	H 	0.36310 0.72940 0.09090 0.10300
C 	C 	0.51339 0.89730 0.05758 0.06700
C 	C 	0.53000 0.90230 0.02080 -0.13200
H 	H 	0.52110 0.86590 0.99580 0.08900
C 	C 	0.56021 0.96240 0.02180 0.08600
H 	H 	0.57100 0.96690 0.99660 0.00300
C 	C 	0.55840 0.00830 0.09310 0.09200
H 	H 	0.56800 0.04470 0.11790 -0.00900
C 	C 	0.52830 0.95080 0.09460 -0.13100
H 	H 	0.51800 0.94780 0.12020 0.09800
N 	N 	0.16315 0.46110 0.60339 -0.26700
N 	N 	0.31354 0.00550 0.72087 -0.26600
N 	N 	0.37749 0.43460 0.85743 -0.26000
N 	N 	0.26038 0.68410 0.68814 -0.13400
N 	N 	0.31256 0.67290 0.75111 -0.13200
N 	N 	0.27463 0.54120 0.72698 -0.13400
N 	N 	0.43209 0.46850 0.95067 -0.26700
N 	N 	0.57448 0.01440 0.05767 -0.26600
N 	N 	0.36000 0.83530 0.18245 -0.27800
N 	N 	0.42594 0.71240 0.06454 -0.13000
N 	N 	0.47570 0.76400 0.02913 -0.14200
N 	N 	0.46108 0.84720 0.09036 -0.12800
Zn	Zn	0.32728 0.85622 0.22863 1.19000
Zn	Zn	0.41729 0.36376 0.90476 1.19200
Zn	Zn	0.11959 0.39685 0.55905 1.19200
Br	Br	0.77234 0.26432 0.20941 -0.48000
Br	Br	0.86894 0.34835 0.30065 -0.47400
Br	Br	0.88231 0.75566 0.93678 -0.46600
Br	Br	0.96949 0.83222 0.87220 -0.45200
Br	Br	0.60445 0.76176 0.59392 -0.47500
Br	Br	0.63455 0.90042 0.48817 -0.46500
C 	C 	0.67230 0.04700 0.59730 0.09300
H 	H 	0.65830 0.07780 0.57250 0.00900
C 	C 	0.70170 0.09390 0.62600 -0.12900
H 	H 	0.70700 0.15460 0.62060 0.10200
C 	C 	0.72265 0.04840 0.66254 0.06900
C 	C 	0.71363 0.95720 0.66900 -0.14000
H 	H 	0.72770 0.92440 0.69310 0.11000
C 	C 	0.68412 0.91690 0.63960 0.08600
H 	H 	0.67800 0.85650 0.64460 0.00200
C 	C 	0.75424 0.09310 0.69412 0.08600
C 	C 	0.78923 0.21820 0.71800 0.11200
C 	C 	0.80400 0.08480 0.75394 0.10200
C 	C 	0.79796 0.31920 0.71650 0.07300
C 	C 	0.77279 0.37980 0.69120 -0.13000
H 	H 	0.75020 0.35910 0.67250 0.09000
C 	C 	0.78163 0.47350 0.69390 0.08100
H 	H 	0.76480 0.51450 0.67650 -0.00400
C 	C 	0.83820 0.44600 0.74330 0.08900
H 	H 	0.86120 0.46810 0.76020 -0.01100
C 	C 	0.83190 0.35470 0.74320 -0.13800
H 	H 	0.84990 0.31600 0.76050 0.09600
C 	C 	0.88050 0.02610 0.85390 0.08400
H 	H 	0.89930 0.05650 0.87470 0.00500
C 	C 	0.85720 0.07580 0.82130 -0.13300
H 	H 	0.86020 0.13870 0.81960 0.10800
C 	C 	0.82889 0.03120 0.79058 0.07200
C 	C 	0.82502 0.93640 0.79480 -0.14000
H 	H 	0.80610 0.90460 0.77490 0.09700
C 	C 	0.84951 0.89120 0.82860 0.08100
H 	H 	0.84660 0.82850 0.83160 0.00200
C 	C 	0.96114 0.02510 0.95071 0.08800
H 	H 	0.97820 0.01160 0.93240 -0.00400
C 	C 	0.96737 0.10300 0.97660 -0.12800
H 	H 	0.98740 0.14240 0.97450 0.08700
C 	C 	0.94315 0.12170 0.00582 0.06800
C 	C 	0.91340 0.06030 0.00670 -0.12800
H 	H 	0.89670 0.07010 0.02580 0.09300
C 	C 	0.90910 0.98620 0.97950 0.07800
H 	H 	0.88920 0.94560 0.98070 -0.00400
C 	C 	0.94860 0.20550 0.03482 0.10300
C 	C 	0.98125 0.33300 0.05879 0.10100
C 	C 	0.93335 0.28640 0.09074 0.11300
C 	C 	0.90848 0.30220 0.12310 0.09400
C 	C 	0.91920 0.35600 0.15990 -0.14900
H 	H 	0.94340 0.38320 0.16580 0.10200
C 	C 	0.89520 0.37080 0.18820 0.10200
H 	H 	0.90380 0.40790 0.21300 -0.01600
C 	C 	0.84900 0.28360 0.14590 0.09300
H 	H 	0.82450 0.25820 0.14040 -0.00500
C 	C 	0.87210 0.26590 0.11590 -0.13800
H 	H 	0.86310 0.22940 0.09090 0.10300
C 	C 	0.01339 0.39730 0.05758 0.06700
C 	C 	0.03000 0.40230 0.02080 -0.13300
H 	H 	0.02110 0.36590 0.99580 0.08900
C 	C 	0.06021 0.46240 0.02180 0.08500
H 	H 	0.07100 0.46690 0.99660 0.00400
C 	C 	0.05840 0.50830 0.09310 0.09200
H 	H 	0.06800 0.54470 0.11790 -0.00900
C 	C 	0.02830 0.45080 0.09460 -0.13200
H 	H 	0.01800 0.44780 0.12020 0.09800
N 	N 	0.66315 0.96110 0.60339 -0.26700
N 	N 	0.81354 0.50550 0.72087 -0.26600
N 	N 	0.87749 0.93460 0.85743 -0.26100
N 	N 	0.76038 0.18410 0.68814 -0.13400
N 	N 	0.81256 0.17290 0.75111 -0.13200
N 	N 	0.77463 0.04120 0.72698 -0.13400
N 	N 	0.93209 0.96850 0.95067 -0.26700
N 	N 	0.07448 0.51440 0.05767 -0.26600
N 	N 	0.86000 0.33530 0.18245 -0.27800
N 	N 	0.92594 0.21240 0.06454 -0.13000
N 	N 	0.97570 0.26400 0.02913 -0.14200
N 	N 	0.96108 0.34720 0.09036 -0.12800
Zn	Zn	0.82728 0.35622 0.22863 1.18900
Zn	Zn	0.91729 0.86376 0.90476 1.19200
Zn	Zn	0.61959 0.89685 0.55905 1.19200
Br	Br	0.72766 0.23568 0.79059 -0.48000
Br	Br	0.63106 0.15165 0.69935 -0.47400
Br	Br	0.61769 0.74434 0.06322 -0.46500
Br	Br	0.53051 0.66778 0.12780 -0.45100
Br	Br	0.89555 0.73824 0.40608 -0.47500
Br	Br	0.86545 0.59958 0.51183 -0.46500
C 	C 	0.82770 0.45300 0.40270 0.09300
H 	H 	0.84170 0.42220 0.42750 0.00900
C 	C 	0.79830 0.40610 0.37400 -0.12900
H 	H 	0.79300 0.34540 0.37940 0.10100
C 	C 	0.77735 0.45160 0.33746 0.06900
C 	C 	0.78637 0.54280 0.33100 -0.14000
H 	H 	0.77230 0.57560 0.30690 0.11000
C 	C 	0.81588 0.58310 0.36040 0.08600
H 	H 	0.82200 0.64350 0.35540 0.00200
C 	C 	0.74576 0.40690 0.30588 0.08600
C 	C 	0.71077 0.28180 0.28200 0.11200
C 	C 	0.69600 0.41520 0.24606 0.10200
C 	C 	0.70204 0.18080 0.28350 0.07300
C 	C 	0.72721 0.12020 0.30880 -0.12900
H 	H 	0.74980 0.14090 0.32750 0.09000
C 	C 	0.71837 0.02650 0.30610 0.08000
H 	H 	0.73520 0.98550 0.32350 -0.00400
C 	C 	0.66180 0.05400 0.25670 0.08800
H 	H 	0.63880 0.03190 0.23980 -0.01100
C 	C 	0.66810 0.14530 0.25680 -0.13800
H 	H 	0.65010 0.18400 0.23950 0.09600
C 	C 	0.61950 0.47390 0.14610 0.08300
H 	H 	0.60070 0.44350 0.12530 0.00500
C 	C 	0.64280 0.42420 0.17870 -0.13300
H 	H 	0.63980 0.36130 0.18040 0.10700
C 	C 	0.67111 0.46880 0.20942 0.07200
C 	C 	0.67498 0.56360 0.20520 -0.13900
H 	H 	0.69390 0.59540 0.22510 0.09600
C 	C 	0.65049 0.60880 0.17140 0.08100
H 	H 	0.65340 0.67150 0.16840 0.00300
C 	C 	0.53886 0.47490 0.04929 0.08800
H 	H 	0.52180 0.48840 0.06760 -0.00400
C 	C 	0.53263 0.39700 0.02340 -0.12800
H 	H 	0.51260 0.35760 0.02550 0.08700
C 	C 	0.55685 0.37830 0.99418 0.06800
C 	C 	0.58660 0.43970 0.99330 -0.12900
H 	H 	0.60330 0.42990 0.97420 0.09300
C 	C 	0.59090 0.51380 0.02050 0.07900
H 	H 	0.61080 0.55440 0.01930 -0.00400
C 	C 	0.55140 0.29450 0.96518 0.10300
C 	C 	0.51875 0.16700 0.94121 0.10100
C 	C 	0.56665 0.21360 0.90926 0.11300
C 	C 	0.59152 0.19780 0.87690 0.09400
C 	C 	0.58080 0.14400 0.84010 -0.14900
H 	H 	0.55660 0.11680 0.83420 0.10200
C 	C 	0.60480 0.12920 0.81180 0.10200
H 	H 	0.59620 0.09210 0.78700 -0.01600
C 	C 	0.65100 0.21640 0.85410 0.09300
H 	H 	0.67550 0.24180 0.85960 -0.00500
C 	C 	0.62790 0.23410 0.88410 -0.13800
H 	H 	0.63690 0.27060 0.90910 0.10300
C 	C 	0.48661 0.10270 0.94242 0.06700
C 	C 	0.47000 0.09770 0.97920 -0.13200
H 	H 	0.47890 0.13410 0.00420 0.08900
C 	C 	0.43979 0.03760 0.97820 0.08600
H 	H 	0.42900 0.03310 0.00340 0.00300
C 	C 	0.44160 0.99170 0.90690 0.09200
H 	H 	0.43200 0.95530 0.88210 -0.00900
C 	C 	0.47170 0.04920 0.90540 -0.13100
H 	H 	0.48200 0.05220 0.87980 0.09800
N 	N 	0.83685 0.53890 0.39661 -0.26700
N 	N 	0.68646 0.99450 0.27913 -0.26600
N 	N 	0.62251 0.56540 0.14257 -0.26000
N 	N 	0.73962 0.31590 0.31186 -0.13400
N 	N 	0.68744 0.32710 0.24889 -0.13200
N 	N 	0.72537 0.45880 0.27302 -0.13400
N 	N 	0.56791 0.53150 0.04933 -0.26700
N 	N 	0.42552 0.98560 0.94233 -0.26600
N 	N 	0.64000 0.16470 0.81755 -0.27800
N 	N 	0.57406 0.28760 0.93546 -0.13000
N 	N 	0.52430 0.23600 0.97087 -0.14200
N 	N 	0.53892 0.15280 0.90964 -0.12800
Zn	Zn	0.67272 0.14378 0.77137 1.19000
Zn	Zn	0.58271 0.63624 0.09524 1.19200
Zn	Zn	0.88041 0.60315 0.44095 1.19200
Br	Br	0.22766 0.73568 0.79059 -0.48000
Br	Br	0.13106 0.65165 0.69935 -0.47400
Br	Br	0.11769 0.24434 0.06322 -0.46600
Br	Br	0.03051 0.16778 0.12780 -0.45200
Br	Br	0.39555 0.23824 0.40608 -0.47500
Br	Br	0.36545 0.09958 0.51183 -0.46500
C 	C 	0.32770 0.95300 0.40270 0.09300
H 	H 	0.34170 0.92220 0.42750 0.00900
C 	C 	0.29830 0.90610 0.37400 -0.12900
H 	H 	0.29300 0.84540 0.37940 0.10200
C 	C 	0.27735 0.95160 0.33746 0.06900
C 	C 	0.28637 0.04280 0.33100 -0.14000
H 	H 	0.27230 0.07560 0.30690 0.11000
C 	C 	0.31588 0.08310 0.36040 0.08600
H 	H 	0.32200 0.14350 0.35540 0.00200
C 	C 	0.24576 0.90690 0.30588 0.08600
C 	C 	0.21077 0.78180 0.28200 0.11200
C 	C 	0.19600 0.91520 0.24606 0.10200
C 	C 	0.20204 0.68080 0.28350 0.07300
C 	C 	0.22721 0.62020 0.30880 -0.13000
H 	H 	0.24980 0.64090 0.32750 0.09000
C 	C 	0.21837 0.52650 0.30610 0.08100
H 	H 	0.23520 0.48550 0.32350 -0.00400
C 	C 	0.16180 0.55400 0.25670 0.08900
H 	H 	0.13880 0.53190 0.23980 -0.01100
C 	C 	0.16810 0.64530 0.25680 -0.13800
H 	H 	0.15010 0.68400 0.23950 0.09600
C 	C 	0.11950 0.97390 0.14610 0.08400
H 	H 	0.10070 0.94350 0.12530 0.00500
C 	C 	0.14280 0.92420 0.17870 -0.13300
H 	H 	0.13980 0.86130 0.18040 0.10800
C 	C 	0.17111 0.96880 0.20942 0.07200
C 	C 	0.17498 0.06360 0.20520 -0.14000
H 	H 	0.19390 0.09540 0.22510 0.09700
C 	C 	0.15049 0.10880 0.17140 0.08100
H 	H 	0.15340 0.17150 0.16840 0.00200
C 	C 	0.03886 0.97490 0.04929 0.08800
H 	H 	0.02180 0.98840 0.06760 -0.00400
C 	C 	0.03263 0.89700 0.02340 -0.12800
H 	H 	0.01260 0.85760 0.02550 0.08700
C 	C 	0.05685 0.87830 0.99418 0.06800
C 	C 	0.08660 0.93970 0.99330 -0.12800
H 	H 	0.10330 0.92990 0.97420 0.09300
C 	C 	0.09090 0.01380 0.02050 0.07800
H 	H 	0.11080 0.05440 0.01930 -0.00400
C 	C 	0.05140 0.79450 0.96518 0.10300
C 	C 	0.01875 0.66700 0.94121 0.10100
C 	C 	0.06665 0.71360 0.90926 0.11300
C 	C 	0.09152 0.69780 0.87690 0.09400
C 	C 	0.08080 0.64400 0.84010 -0.14900
H 	H 	0.05660 0.61680 0.83420 0.10200
C 	C 	0.10480 0.62920 0.81180 0.10200
H 	H 	0.09620 0.59210 0.78700 -0.01600
C 	C 	0.15100 0.71640 0.85410 0.09300
H 	H 	0.17550 0.74180 0.85960 -0.00500
C 	C 	0.12790 0.73410 0.88410 -0.13800
H 	H 	0.13690 0.77060 0.90910 0.10300
C 	C 	0.98661 0.60270 0.94242 0.06700
C 	C 	0.97000 0.59770 0.97920 -0.13300
H 	H 	0.97890 0.63410 0.00420 0.08900
C 	C 	0.93979 0.53760 0.97820 0.08500
H 	H 	0.92900 0.53310 0.00340 0.00400
C 	C 	0.94160 0.49170 0.90690 0.09200
H 	H 	0.93200 0.45530 0.88210 -0.00900
C 	C 	0.97170 0.54920 0.90540 -0.13200
H 	H 	0.98200 0.55220 0.87980 0.09800
N 	N 	0.33685 0.03890 0.39661 -0.26700
N 	N 	0.18646 0.49450 0.27913 -0.26600
N 	N 	0.12251 0.06540 0.14257 -0.26100
N 	N 	0.23962 0.81590 0.31186 -0.13400
N 	N 	0.18744 0.82710 0.24889 -0.13200
N 	N 	0.22537 0.95880 0.27302 -0.13400
N 	N 	0.06791 0.03150 0.04933 -0.26700
N 	N 	0.92552 0.48560 0.94233 -0.26600
N 	N 	0.14000 0.66470 0.81755 -0.27800
N 	N 	0.07406 0.78760 0.93546 -0.13000
N 	N 	0.02430 0.73600 0.97087 -0.14200
N 	N 	0.03892 0.65280 0.90964 -0.12800
Zn	Zn	0.17272 0.64378 0.77137 1.18900
Zn	Zn	0.08271 0.13624 0.09524 1.19200
Zn	Zn	0.38041 0.10315 0.44095 1.19200
Br	Br	0.72766 0.76432 0.29059 -0.48000
Br	Br	0.63106 0.84835 0.19935 -0.47400
Br	Br	0.61769 0.25566 0.56322 -0.46500
Br	Br	0.53051 0.33222 0.62780 -0.45100
Br	Br	0.89555 0.26176 0.90608 -0.47500
Br	Br	0.86545 0.40042 0.01183 -0.46500
C 	C 	0.82770 0.54700 0.90270 0.09300
H 	H 	0.84170 0.57780 0.92750 0.00900
C 	C 	0.79830 0.59390 0.87400 -0.12900
H 	H 	0.79300 0.65460 0.87940 0.10100
C 	C 	0.77735 0.54840 0.83746 0.06900
C 	C 	0.78637 0.45720 0.83100 -0.14000
H 	H 	0.77230 0.42440 0.80690 0.11000
C 	C 	0.81588 0.41690 0.86040 0.08600
H 	H 	0.82200 0.35650 0.85540 0.00200
C 	C 	0.74576 0.59310 0.80588 0.08600
C 	C 	0.71077 0.71820 0.78200 0.11200
C 	C 	0.69600 0.58480 0.74606 0.10200
C 	C 	0.70204 0.81920 0.78350 0.07300
C 	C 	0.72721 0.87980 0.80880 -0.12900
H 	H 	0.74980 0.85910 0.82750 0.09000
C 	C 	0.71837 0.97350 0.80610 0.08000
H 	H 	0.73520 0.01450 0.82350 -0.00400
C 	C 	0.66180 0.94600 0.75670 0.08800
H 	H 	0.63880 0.96810 0.73980 -0.01100
C 	C 	0.66810 0.85470 0.75680 -0.13800
H 	H 	0.65010 0.81600 0.73950 0.09600
C 	C 	0.61950 0.52610 0.64610 0.08300
H 	H 	0.60070 0.55650 0.62530 0.00500
C 	C 	0.64280 0.57580 0.67870 -0.13300
H 	H 	0.63980 0.63870 0.68040 0.10700
C 	C 	0.67111 0.53120 0.70942 0.07200
C 	C 	0.67498 0.43640 0.70520 -0.13900
H 	H 	0.69390 0.40460 0.72510 0.09600
C 	C 	0.65049 0.39120 0.67140 0.08100
H 	H 	0.65340 0.32850 0.66840 0.00300
C 	C 	0.53886 0.52510 0.54929 0.08800
H 	H 	0.52180 0.51160 0.56760 -0.00400
C 	C 	0.53263 0.60300 0.52340 -0.12800
H 	H 	0.51260 0.64240 0.52550 0.08700
C 	C 	0.55685 0.62170 0.49418 0.06800
C 	C 	0.58660 0.56030 0.49330 -0.12900
H 	H 	0.60330 0.57010 0.47420 0.09300
C 	C 	0.59090 0.48620 0.52050 0.07900
H 	H 	0.61080 0.44560 0.51930 -0.00400
C 	C 	0.55140 0.70550 0.46518 0.10300
C 	C 	0.51875 0.83300 0.44121 0.10100
C 	C 	0.56665 0.78640 0.40926 0.11300
C 	C 	0.59152 0.80220 0.37690 0.09400
C 	C 	0.58080 0.85600 0.34010 -0.14900
H 	H 	0.55660 0.88320 0.33420 0.10200
C 	C 	0.60480 0.87080 0.31180 0.10200
H 	H 	0.59620 0.90790 0.28700 -0.01600
C 	C 	0.65100 0.78360 0.35410 0.09300
H 	H 	0.67550 0.75820 0.35960 -0.00500
C 	C 	0.62790 0.76590 0.38410 -0.13800
H 	H 	0.63690 0.72940 0.40910 0.10300
C 	C 	0.48661 0.89730 0.44242 0.06700
C 	C 	0.47000 0.90230 0.47920 -0.13200
H 	H 	0.47890 0.86590 0.50420 0.08900
C 	C 	0.43979 0.96240 0.47820 0.08500
H 	H 	0.42900 0.96690 0.50340 0.00400
C 	C 	0.44160 0.00830 0.40690 0.09200
H 	H 	0.43200 0.04470 0.38210 -0.00900
C 	C 	0.47170 0.95080 0.40540 -0.13100
H 	H 	0.48200 0.94780 0.37980 0.09800
N 	N 	0.83685 0.46110 0.89661 -0.26700
N 	N 	0.68646 0.00550 0.77913 -0.26600
N 	N 	0.62251 0.43460 0.64257 -0.26000
N 	N 	0.73962 0.68410 0.81186 -0.13400
N 	N 	0.68744 0.67290 0.74889 -0.13200
N 	N 	0.72537 0.54120 0.77302 -0.13400
N 	N 	0.56791 0.46850 0.54933 -0.26700
N 	N 	0.42552 0.01440 0.44233 -0.26600
N 	N 	0.64000 0.83530 0.31755 -0.27800
N 	N 	0.57406 0.71240 0.43546 -0.13000
N 	N 	0.52430 0.76400 0.47087 -0.14200
N 	N 	0.53892 0.84720 0.40964 -0.12800
Zn	Zn	0.67272 0.85622 0.27137 1.19000
Zn	Zn	0.58271 0.36376 0.59524 1.19200
Zn	Zn	0.88041 0.39685 0.94095 1.19200
Br	Br	0.22766 0.26432 0.29059 -0.48000
Br	Br	0.13106 0.34835 0.19935 -0.47400
Br	Br	0.11769 0.75566 0.56322 -0.46500
Br	Br	0.03051 0.83222 0.62780 -0.45200
Br	Br	0.39555 0.76176 0.90608 -0.47500
Br	Br	0.36545 0.90042 0.01183 -0.46500
C 	C 	0.32770 0.04700 0.90270 0.09400
H 	H 	0.34170 0.07780 0.92750 0.00900
C 	C 	0.29830 0.09390 0.87400 -0.12900
H 	H 	0.29300 0.15460 0.87940 0.10200
C 	C 	0.27735 0.04840 0.83746 0.07000
C 	C 	0.28637 0.95720 0.83100 -0.14000
H 	H 	0.27230 0.92440 0.80690 0.11000
C 	C 	0.31588 0.91690 0.86040 0.08600
H 	H 	0.32200 0.85650 0.85540 0.00200
C 	C 	0.24576 0.09310 0.80588 0.08600
C 	C 	0.21077 0.21820 0.78200 0.11200
C 	C 	0.19600 0.08480 0.74606 0.10200
C 	C 	0.20204 0.31920 0.78350 0.07300
C 	C 	0.22721 0.37980 0.80880 -0.13000
H 	H 	0.24980 0.35910 0.82750 0.09000
C 	C 	0.21837 0.47350 0.80610 0.08100
H 	H 	0.23520 0.51450 0.82350 -0.00400
C 	C 	0.16180 0.44600 0.75670 0.08900
H 	H 	0.13880 0.46810 0.73980 -0.01100
C 	C 	0.16810 0.35470 0.75680 -0.13800
H 	H 	0.15010 0.31600 0.73950 0.09600
C 	C 	0.11950 0.02610 0.64610 0.08400
H 	H 	0.10070 0.05650 0.62530 0.00500
C 	C 	0.14280 0.07580 0.67870 -0.13300
H 	H 	0.13980 0.13870 0.68040 0.10800
C 	C 	0.17111 0.03120 0.70942 0.07200
C 	C 	0.17498 0.93640 0.70520 -0.13900
H 	H 	0.19390 0.90460 0.72510 0.09700
C 	C 	0.15049 0.89120 0.67140 0.08100
H 	H 	0.15340 0.82850 0.66840 0.00200
C 	C 	0.03886 0.02510 0.54929 0.08800
H 	H 	0.02180 0.01160 0.56760 -0.00400
C 	C 	0.03263 0.10300 0.52340 -0.12800
H 	H 	0.01260 0.14240 0.52550 0.08700
C 	C 	0.05685 0.12170 0.49418 0.06800
C 	C 	0.08660 0.06030 0.49330 -0.12900
H 	H 	0.10330 0.07010 0.47420 0.09300
C 	C 	0.09090 0.98620 0.52050 0.07900
H 	H 	0.11080 0.94560 0.51930 -0.00400
C 	C 	0.05140 0.20550 0.46518 0.10300
C 	C 	0.01875 0.33300 0.44121 0.10100
C 	C 	0.06665 0.28640 0.40926 0.11300
C 	C 	0.09152 0.30220 0.37690 0.09400
C 	C 	0.08080 0.35600 0.34010 -0.14900
H 	H 	0.05660 0.38320 0.33420 0.10200
C 	C 	0.10480 0.37080 0.31180 0.10200
H 	H 	0.09620 0.40790 0.28700 -0.01600
C 	C 	0.15100 0.28360 0.35410 0.09300
H 	H 	0.17550 0.25820 0.35960 -0.00500
C 	C 	0.12790 0.26590 0.38410 -0.13800
H 	H 	0.13690 0.22940 0.40910 0.10300
C 	C 	0.98661 0.39730 0.44242 0.06700
C 	C 	0.97000 0.40230 0.47920 -0.13200
H 	H 	0.97890 0.36590 0.50420 0.08900
C 	C 	0.93979 0.46240 0.47820 0.08500
H 	H 	0.92900 0.46690 0.50340 0.00400
C 	C 	0.94160 0.50830 0.40690 0.09200
H 	H 	0.93200 0.54470 0.38210 -0.00900
C 	C 	0.97170 0.45080 0.40540 -0.13200
H 	H 	0.98200 0.44780 0.37980 0.09800
N 	N 	0.33685 0.96110 0.89661 -0.26700
N 	N 	0.18646 0.50550 0.77913 -0.26600
N 	N 	0.12251 0.93460 0.64257 -0.26000
N 	N 	0.23962 0.18410 0.81186 -0.13400
N 	N 	0.18744 0.17290 0.74889 -0.13200
N 	N 	0.22537 0.04120 0.77302 -0.13400
N 	N 	0.06791 0.96850 0.54933 -0.26700
N 	N 	0.92552 0.51440 0.44233 -0.26600
N 	N 	0.14000 0.33530 0.31755 -0.27800
N 	N 	0.07406 0.21240 0.43546 -0.13000
N 	N 	0.02430 0.26400 0.47087 -0.14200
N 	N 	0.03892 0.34720 0.40964 -0.12800
Zn	Zn	0.17272 0.35622 0.27137 1.18900
Zn	Zn	0.08271 0.86376 0.59524 1.19200
Zn	Zn	0.38041 0.89685 0.94095 1.19200
