data_crystal

_cell_length_a 11.73800
_cell_length_b 16.58180
_cell_length_c 11.57850
_cell_angle_alpha 90.00000
_cell_angle_beta  113.51400
_cell_angle_gamma 90.00000

_symmetry_space_group_name_	'P 1'
_symmetry_space_group_name_H-M	'P 1'

loop_
_symmetry_equiv_pos_as_xyz
  x,y,z

loop_
_atom_site_label
_atom_site_type_symbol
_atom_site_fract_x
_atom_site_fract_y
_atom_site_fract_z
_atom_site_charge
Nd	Nd	0.30994 0.53407 0.42474 2.35200
S 	S 	0.98050 0.30060 0.21143 0.06300
O 	O 	0.46060 0.63790 0.44470 -0.56200
O 	O 	0.14770 0.44570 0.26470 -0.40900
O 	O 	0.11040 0.49160 0.42680 -0.43000
C 	C 	0.67780 0.83140 0.32800 -0.01000
H 	H 	0.74200 0.86100 0.32130 0.05100
C 	C 	0.87740 0.28370 0.36830 -0.01300
H 	H 	0.83230 0.26220 0.41130 0.06100
C 	C 	0.94340 0.35830 0.40030 -0.02000
H 	H 	0.94370 0.39240 0.46420 0.06700
C 	C 	0.00670 0.37340 0.32440 -0.05700
C 	C 	0.09290 0.44200 0.33960 0.29800
C 	C 	0.88850 0.24740 0.26660 -0.07100
C 	C 	0.55310 0.85350 0.27320 -0.12900
C 	C 	0.69420 0.75890 0.39460 0.02400
H 	H 	0.77170 0.73550 0.43780 0.03800
C 	C 	0.58690 0.72590 0.39050 -0.15200
O 	O 	0.81350 0.16020 0.09290 -0.42300
O 	O 	0.37810 0.92740 0.14770 -0.48500
O 	O 	0.65580 0.59970 0.48350 -0.53500
O 	O 	0.78760 0.12240 0.26670 -0.41300
C 	C 	0.56520 0.64900 0.44590 0.50300
C 	C 	0.82580 0.17200 0.20560 0.29900
C 	C 	0.49430 0.92290 0.19130 0.43800
S 	S 	0.46058 0.78384 0.30356 0.10500
O 	O 	0.56320 0.97410 0.16790 -0.57500
Nd	Nd	0.69006 0.03407 0.07526 2.31600
S 	S 	0.01950 0.80060 0.28857 0.06500
O 	O 	0.53940 0.13790 0.05530 -0.56000
O 	O 	0.85230 0.94570 0.23530 -0.40200
O 	O 	0.88960 0.99160 0.07320 -0.41900
C 	C 	0.32220 0.33140 0.17200 -0.01000
H 	H 	0.25800 0.36100 0.17870 0.04900
C 	C 	0.12260 0.78370 0.13170 -0.01200
H 	H 	0.16770 0.76220 0.08870 0.06300
C 	C 	0.05660 0.85830 0.09970 -0.02100
H 	H 	0.05630 0.89240 0.03580 0.06900
C 	C 	0.99330 0.87340 0.17560 -0.05500
C 	C 	0.90710 0.94200 0.16040 0.29800
C 	C 	0.11150 0.74740 0.23340 -0.07000
C 	C 	0.44690 0.35350 0.22680 -0.13200
C 	C 	0.30580 0.25890 0.10540 0.02200
H 	H 	0.22830 0.23550 0.06220 0.03700
C 	C 	0.41310 0.22590 0.10950 -0.15100
O 	O 	0.18650 0.66020 0.40710 -0.42100
O 	O 	0.62190 0.42740 0.35230 -0.49200
O 	O 	0.34420 0.09970 0.01650 -0.53400
O 	O 	0.21240 0.62240 0.23330 -0.41200
C 	C 	0.43480 0.14900 0.05410 0.50000
C 	C 	0.17420 0.67200 0.29440 0.29900
C 	C 	0.50570 0.42290 0.30870 0.44000
S 	S 	0.53942 0.28384 0.19644 0.10400
O 	O 	0.43680 0.47410 0.33210 -0.58700
Nd	Nd	0.69006 0.46593 0.57526 2.35300
S 	S 	0.01950 0.69940 0.78857 0.06400
O 	O 	0.53940 0.36210 0.55530 -0.56200
O 	O 	0.85230 0.55430 0.73530 -0.40900
O 	O 	0.88960 0.50840 0.57320 -0.43000
C 	C 	0.32220 0.16860 0.67200 -0.01000
H 	H 	0.25800 0.13900 0.67870 0.05100
C 	C 	0.12260 0.71630 0.63170 -0.01300
H 	H 	0.16770 0.73780 0.58870 0.06100
C 	C 	0.05660 0.64170 0.59970 -0.02000
H 	H 	0.05630 0.60760 0.53580 0.06700
C 	C 	0.99330 0.62660 0.67560 -0.05700
C 	C 	0.90710 0.55800 0.66040 0.29800
C 	C 	0.11150 0.75260 0.73340 -0.07100
C 	C 	0.44690 0.14650 0.72680 -0.12900
C 	C 	0.30580 0.24110 0.60540 0.02400
H 	H 	0.22830 0.26450 0.56220 0.03800
C 	C 	0.41310 0.27410 0.60950 -0.15200
O 	O 	0.18650 0.83980 0.90710 -0.42300
O 	O 	0.62190 0.07260 0.85230 -0.48500
O 	O 	0.34420 0.40030 0.51650 -0.53500
O 	O 	0.21240 0.87760 0.73330 -0.41300
C 	C 	0.43480 0.35100 0.55410 0.50300
C 	C 	0.17420 0.82800 0.79440 0.29900
C 	C 	0.50570 0.07710 0.80870 0.43800
S 	S 	0.53942 0.21616 0.69644 0.10500
O 	O 	0.43680 0.02590 0.83210 -0.57500
Nd	Nd	0.30994 0.96593 0.92474 2.31600
S 	S 	0.98050 0.19940 0.71143 0.06500
O 	O 	0.46060 0.86210 0.94470 -0.56000
O 	O 	0.14770 0.05430 0.76470 -0.40200
O 	O 	0.11040 0.00840 0.92680 -0.41900
C 	C 	0.67780 0.66860 0.82800 -0.01000
H 	H 	0.74200 0.63900 0.82130 0.04900
C 	C 	0.87740 0.21630 0.86830 -0.01200
H 	H 	0.83230 0.23780 0.91130 0.06300
C 	C 	0.94340 0.14170 0.90030 -0.02100
H 	H 	0.94370 0.10760 0.96420 0.06900
C 	C 	0.00670 0.12660 0.82440 -0.05500
C 	C 	0.09290 0.05800 0.83960 0.29800
C 	C 	0.88850 0.25260 0.76660 -0.07000
C 	C 	0.55310 0.64650 0.77320 -0.13200
C 	C 	0.69420 0.74110 0.89460 0.02200
H 	H 	0.77170 0.76450 0.93780 0.03700
C 	C 	0.58690 0.77410 0.89050 -0.15100
O 	O 	0.81350 0.33980 0.59290 -0.42100
O 	O 	0.37810 0.57260 0.64770 -0.49200
O 	O 	0.65580 0.90030 0.98350 -0.53400
O 	O 	0.78760 0.37760 0.76670 -0.41200
C 	C 	0.56520 0.85100 0.94590 0.50000
C 	C 	0.82580 0.32800 0.70560 0.29900
C 	C 	0.49430 0.57710 0.69130 0.44000
S 	S 	0.46058 0.71616 0.80356 0.10400
O 	O 	0.56320 0.52590 0.66790 -0.58700
