data_crystal

_cell_length_a 11.76360
_cell_length_b 16.36090
_cell_length_c 11.58900
_cell_angle_alpha 90.00000
_cell_angle_beta  113.31400
_cell_angle_gamma 90.00000

_symmetry_space_group_name_	'P 1'
_symmetry_space_group_name_H-M	'P 1'

loop_
_symmetry_equiv_pos_as_xyz
  x,y,z

loop_
_atom_site_label
_atom_site_type_symbol
_atom_site_fract_x
_atom_site_fract_y
_atom_site_fract_z
_atom_site_charge
Eu	Eu	0.19022 0.53446 0.57594 2.09300
S 	S 	0.03995 0.78435 0.69768 0.10500
O 	O 	0.04140 0.63797 0.55240 -0.51100
C 	C 	0.67630 0.17260 0.79590 0.32100
C 	C 	0.94550 0.85420 0.72740 -0.11900
C 	C 	0.82290 0.83150 0.67320 -0.01000
H 	H 	0.75860 0.86110 0.68050 0.05400
C 	C 	0.80690 0.75790 0.60530 0.02100
H 	H 	0.73010 0.73370 0.56220 0.04000
C 	C 	0.91600 0.72560 0.60920 -0.14600
S 	S 	0.52016 0.30129 0.78743 0.07400
O 	O 	0.93150 0.97599 0.82910 -0.52600
O 	O 	0.11860 0.92921 0.85670 -0.45900
O 	O 	0.35050 0.44720 0.73170 -0.39400
O 	O 	0.84770 0.59870 0.51390 -0.50800
O 	O 	0.68860 0.15920 0.90650 -0.41000
O 	O 	0.71800 0.12291 0.73710 -0.39300
O 	O 	0.38410 0.49080 0.56820 -0.40400
C 	C 	0.00250 0.92460 0.80980 0.42900
C 	C 	0.93510 0.64820 0.55360 0.48700
C 	C 	0.61370 0.24740 0.73210 -0.08000
C 	C 	0.62210 0.28490 0.63030 -0.00900
H 	H 	0.66770 0.26420 0.58720 0.06300
C 	C 	0.40470 0.44140 0.65780 0.31300
C 	C 	0.49260 0.37400 0.67210 -0.07100
C 	C 	0.55490 0.35800 0.59800 -0.01200
H 	H 	0.55310 0.39180 0.53280 0.06900
Eu	Eu	0.80978 0.03446 0.92406 2.06700
S 	S 	0.96005 0.28435 0.80232 0.10100
O 	O 	0.95860 0.13797 0.94760 -0.51600
C 	C 	0.32370 0.67260 0.70410 0.31900
C 	C 	0.05450 0.35420 0.77260 -0.12200
C 	C 	0.17710 0.33150 0.82680 -0.00800
H 	H 	0.24140 0.36110 0.81950 0.05300
C 	C 	0.19310 0.25790 0.89470 0.02000
H 	H 	0.26990 0.23370 0.93780 0.03900
C 	C 	0.08400 0.22560 0.89080 -0.14500
S 	S 	0.47984 0.80129 0.71257 0.07500
O 	O 	0.06850 0.47599 0.67090 -0.53700
O 	O 	0.88140 0.42921 0.64330 -0.46500
O 	O 	0.64950 0.94720 0.76830 -0.39000
O 	O 	0.15230 0.09870 0.98610 -0.50800
O 	O 	0.31140 0.65920 0.59350 -0.40900
O 	O 	0.28200 0.62291 0.76290 -0.39300
O 	O 	0.61590 0.99080 0.93180 -0.39700
C 	C 	0.99750 0.42460 0.69020 0.43500
C 	C 	0.06490 0.14820 0.94640 0.49000
C 	C 	0.38630 0.74740 0.76790 -0.07900
C 	C 	0.37790 0.78490 0.86970 -0.00900
H 	H 	0.33230 0.76420 0.91280 0.06400
C 	C 	0.59530 0.94140 0.84220 0.31300
C 	C 	0.50740 0.87400 0.82790 -0.07100
C 	C 	0.44510 0.85800 0.90200 -0.01200
H 	H 	0.44690 0.89180 0.96720 0.07000
Eu	Eu	0.80978 0.46554 0.42406 2.09200
S 	S 	0.96005 0.21565 0.30232 0.10400
O 	O 	0.95860 0.36203 0.44760 -0.51200
C 	C 	0.32370 0.82740 0.20410 0.32000
C 	C 	0.05450 0.14580 0.27260 -0.11900
C 	C 	0.17710 0.16850 0.32680 -0.01000
H 	H 	0.24140 0.13890 0.31950 0.05400
C 	C 	0.19310 0.24210 0.39470 0.02100
H 	H 	0.26990 0.26630 0.43780 0.04000
C 	C 	0.08400 0.27440 0.39080 -0.14600
S 	S 	0.47984 0.69871 0.21257 0.07400
O 	O 	0.06850 0.02401 0.17090 -0.52600
O 	O 	0.88140 0.07079 0.14330 -0.45900
O 	O 	0.64950 0.55280 0.26830 -0.39400
O 	O 	0.15230 0.40130 0.48610 -0.50800
O 	O 	0.31140 0.84080 0.09350 -0.41000
O 	O 	0.28200 0.87709 0.26290 -0.39300
O 	O 	0.61590 0.50920 0.43180 -0.40400
C 	C 	0.99750 0.07540 0.19020 0.42900
C 	C 	0.06490 0.35180 0.44640 0.48700
C 	C 	0.38630 0.75260 0.26790 -0.08000
C 	C 	0.37790 0.71510 0.36970 -0.00900
H 	H 	0.33230 0.73580 0.41280 0.06300
C 	C 	0.59530 0.55860 0.34220 0.31300
C 	C 	0.50740 0.62600 0.32790 -0.07100
C 	C 	0.44510 0.64200 0.40200 -0.01200
H 	H 	0.44690 0.60820 0.46720 0.06900
Eu	Eu	0.19022 0.96554 0.07594 2.06700
S 	S 	0.03995 0.71565 0.19768 0.10100
O 	O 	0.04140 0.86203 0.05240 -0.51600
C 	C 	0.67630 0.32740 0.29590 0.31900
C 	C 	0.94550 0.64580 0.22740 -0.12200
C 	C 	0.82290 0.66850 0.17320 -0.00800
H 	H 	0.75860 0.63890 0.18050 0.05300
C 	C 	0.80690 0.74210 0.10530 0.02000
H 	H 	0.73010 0.76630 0.06220 0.03900
C 	C 	0.91600 0.77440 0.10920 -0.14500
S 	S 	0.52016 0.19871 0.28743 0.07500
O 	O 	0.93150 0.52401 0.32910 -0.53700
O 	O 	0.11860 0.57079 0.35670 -0.46500
O 	O 	0.35050 0.05280 0.23170 -0.39000
O 	O 	0.84770 0.90130 0.01390 -0.50800
O 	O 	0.68860 0.34080 0.40650 -0.40900
O 	O 	0.71800 0.37709 0.23710 -0.39300
O 	O 	0.38410 0.00920 0.06820 -0.39700
C 	C 	0.00250 0.57540 0.30980 0.43500
C 	C 	0.93510 0.85180 0.05360 0.49000
C 	C 	0.61370 0.25260 0.23210 -0.07900
C 	C 	0.62210 0.21510 0.13030 -0.00900
H 	H 	0.66770 0.23580 0.08720 0.06400
C 	C 	0.40470 0.05860 0.15780 0.31300
C 	C 	0.49260 0.12600 0.17210 -0.07100
C 	C 	0.55490 0.14200 0.09800 -0.01200
H 	H 	0.55310 0.10820 0.03280 0.07000
