data_crystal

_cell_length_a 8.17370
_cell_length_b 15.00920
_cell_length_c 37.57400
_cell_angle_alpha 90.00000
_cell_angle_beta  101.82800
_cell_angle_gamma 90.00000

_symmetry_space_group_name_	'P 1'
_symmetry_space_group_name_H-M	'P 1'

loop_
_symmetry_equiv_pos_as_xyz
  x,y,z

loop_
_atom_site_label
_atom_site_type_symbol
_atom_site_fract_x
_atom_site_fract_y
_atom_site_fract_z
_atom_site_charge
Eu	Eu	0.31991 0.09839 0.98555 1.73500
O 	O 	0.14980 0.08960 0.03367 -0.43900
O 	O 	0.38960 0.24030 0.95459 -0.38000
O 	O 	0.26550 0.21800 0.02674 -0.40000
O 	O 	0.49650 0.02650 0.46520 -0.56100
O 	O 	0.58850 0.17010 0.99217 -0.42400
N 	N 	0.04540 0.47510 0.95270 -0.22600
C 	C 	0.10740 0.20680 0.07340 -0.06900
C 	C 	0.83040 0.29090 0.98250 -0.04000
H 	H 	0.86190 0.24510 0.99910 0.04700
C 	C 	0.54260 0.23360 0.97020 0.31800
N 	N 	0.93250 0.14930 0.15413 -0.21600
H 	H 	0.92280 0.09340 0.15820 0.12700
C 	C 	0.66820 0.29870 0.96340 -0.08600
N 	N 	0.11350 0.36220 0.99112 -0.12600
N 	N 	0.92500 0.29740 0.16173 -0.13500
C 	C 	0.94420 0.35320 0.97610 0.02200
C 	C 	0.38900 0.54600 0.97340 -0.03800
H 	H 	0.31540 0.57710 0.95550 0.04400
C 	C 	0.17710 0.16980 0.04310 0.31200
O 	O 	0.34600 0.94400 0.42256 -0.43300
C 	C 	0.54360 0.19310 0.35370 0.07800
N 	N 	0.61470 0.08710 0.31743 -0.21500
H 	H 	0.63230 0.03640 0.30820 0.12200
N 	N 	0.59920 0.23500 0.32540 -0.13100
C 	C 	0.50880 0.04260 0.37290 -0.04100
H 	H 	0.50870 0.98150 0.36880 0.05000
C 	C 	0.99010 0.18730 0.12560 0.06200
C 	C 	0.55490 0.10170 0.34850 0.05000
C 	C 	0.82900 0.20470 0.20800 -0.01100
C 	C 	0.43350 0.01280 0.43150 0.37400
C 	C 	0.16610 0.43610 0.97600 0.13300
C 	C 	0.46340 0.07610 0.40330 -0.11500
C 	C 	0.90330 0.42410 0.95210 0.10200
C 	C 	0.89510 0.21680 0.17420 0.12700
C 	C 	0.04870 0.14990 0.09690 -0.06200
H 	H 	0.04860 0.08850 0.09360 0.05000
C 	C 	0.74390 0.10900 0.25200 -0.04200
H 	H 	0.72870 0.05190 0.26040 0.03900
C 	C 	0.98670 0.27830 0.13090 0.06700
C 	C 	0.45290 0.16850 0.40860 0.04700
H 	H 	0.42020 0.18930 0.42940 0.01500
C 	C 	0.10390 0.29930 0.07860 0.00600
H 	H 	0.14390 0.33680 0.06270 0.04200
C 	C 	0.49010 0.22900 0.38370 -0.12200
H 	H 	0.48000 0.29010 0.38670 0.08300
C 	C 	0.63970 0.16650 0.30470 0.12600
C 	C 	0.62470 0.36960 0.93820 0.03300
H 	H 	0.51530 0.37400 0.92510 0.03200
C 	C 	0.04220 0.33580 0.10700 -0.10400
H 	H 	0.03800 0.39720 0.10990 0.06700
C 	C 	0.70700 0.18170 0.27120 -0.01100
C 	C 	0.80420 0.12010 0.22000 -0.03900
H 	H 	0.82720 0.07070 0.20690 0.04100
C 	C 	0.74140 0.43240 0.93250 -0.14000
H 	H 	0.71140 0.47880 0.91610 0.08100
C 	C 	0.45100 0.42360 0.01470 -0.04200
H 	H 	0.41770 0.37150 0.02460 0.06400
C 	C 	0.33700 0.46870 0.98810 -0.01300
C 	C 	0.79170 0.27560 0.22740 -0.03700
H 	H 	0.80640 0.33270 0.21890 0.05300
C 	C 	0.73360 0.26640 0.25880 -0.04000
H 	H 	0.71210 0.31640 0.27170 0.05500
H 	H 	0.05300 0.52250 0.94030 0.13000
Eu	Eu	0.68009 0.09839 0.51446 1.73700
O 	O 	0.85020 0.08960 0.46633 -0.43800
O 	O 	0.61040 0.24030 0.54541 -0.38000
O 	O 	0.73450 0.21800 0.47326 -0.39900
O 	O 	0.50350 0.02650 0.03480 -0.56000
O 	O 	0.41150 0.17010 0.50783 -0.42400
N 	N 	0.95460 0.47510 0.54730 -0.22600
C 	C 	0.89260 0.20680 0.42660 -0.06900
C 	C 	0.16960 0.29090 0.51750 -0.04000
H 	H 	0.13810 0.24510 0.50090 0.04700
C 	C 	0.45740 0.23360 0.52980 0.31800
N 	N 	0.06750 0.14930 0.34587 -0.21600
H 	H 	0.07720 0.09340 0.34180 0.12700
C 	C 	0.33180 0.29870 0.53660 -0.08600
N 	N 	0.88650 0.36220 0.50888 -0.12600
N 	N 	0.07500 0.29740 0.33827 -0.13500
C 	C 	0.05580 0.35320 0.52390 0.02200
C 	C 	0.61100 0.54600 0.52660 -0.03800
H 	H 	0.68460 0.57710 0.54450 0.04400
C 	C 	0.82290 0.16980 0.45690 0.31200
O 	O 	0.65400 0.94400 0.07744 -0.43300
C 	C 	0.45640 0.19310 0.14630 0.07800
N 	N 	0.38530 0.08710 0.18257 -0.21500
H 	H 	0.36770 0.03640 0.19180 0.12200
N 	N 	0.40080 0.23500 0.17460 -0.13100
C 	C 	0.49120 0.04260 0.12710 -0.04000
H 	H 	0.49130 0.98150 0.13120 0.04900
C 	C 	0.00990 0.18730 0.37440 0.06200
C 	C 	0.44510 0.10170 0.15150 0.05000
C 	C 	0.17100 0.20470 0.29200 -0.01100
C 	C 	0.56650 0.01280 0.06850 0.37500
C 	C 	0.83390 0.43610 0.52400 0.13300
C 	C 	0.53660 0.07610 0.09670 -0.11500
C 	C 	0.09670 0.42410 0.54790 0.10200
C 	C 	0.10490 0.21680 0.32580 0.12700
C 	C 	0.95130 0.14990 0.40310 -0.06200
H 	H 	0.95140 0.08850 0.40640 0.05000
C 	C 	0.25610 0.10900 0.24800 -0.04200
H 	H 	0.27130 0.05190 0.23960 0.03900
C 	C 	0.01330 0.27830 0.36910 0.06700
C 	C 	0.54710 0.16850 0.09140 0.04700
H 	H 	0.57980 0.18930 0.07060 0.01500
C 	C 	0.89610 0.29930 0.42140 0.00600
H 	H 	0.85610 0.33680 0.43730 0.04200
C 	C 	0.50990 0.22900 0.11630 -0.12200
H 	H 	0.52000 0.29010 0.11330 0.08300
C 	C 	0.36030 0.16650 0.19530 0.12600
C 	C 	0.37530 0.36960 0.56180 0.03300
H 	H 	0.48470 0.37400 0.57490 0.03200
C 	C 	0.95780 0.33580 0.39300 -0.10500
H 	H 	0.96200 0.39720 0.39010 0.06700
C 	C 	0.29300 0.18170 0.22880 -0.01100
C 	C 	0.19580 0.12010 0.28000 -0.03900
H 	H 	0.17280 0.07070 0.29310 0.04100
C 	C 	0.25860 0.43240 0.56750 -0.14000
H 	H 	0.28860 0.47880 0.58390 0.08100
C 	C 	0.54900 0.42360 0.48530 -0.04200
H 	H 	0.58230 0.37150 0.47540 0.06400
C 	C 	0.66300 0.46870 0.51190 -0.01300
C 	C 	0.20830 0.27560 0.27260 -0.03700
H 	H 	0.19360 0.33270 0.28110 0.05300
C 	C 	0.26640 0.26640 0.24120 -0.04000
H 	H 	0.28790 0.31640 0.22830 0.05500
H 	H 	0.94700 0.52250 0.55970 0.13000
Eu	Eu	0.68009 0.90161 0.01445 1.73600
O 	O 	0.85020 0.91040 0.96633 -0.43800
O 	O 	0.61040 0.75970 0.04541 -0.37900
O 	O 	0.73450 0.78200 0.97326 -0.39900
O 	O 	0.50350 0.97350 0.53480 -0.56000
O 	O 	0.41150 0.82990 0.00783 -0.42400
N 	N 	0.95460 0.52490 0.04730 -0.22600
C 	C 	0.89260 0.79320 0.92660 -0.06900
C 	C 	0.16960 0.70910 0.01750 -0.04000
H 	H 	0.13810 0.75490 0.00090 0.04700
C 	C 	0.45740 0.76640 0.02980 0.31800
N 	N 	0.06750 0.85070 0.84587 -0.21600
H 	H 	0.07720 0.90660 0.84180 0.12700
C 	C 	0.33180 0.70130 0.03660 -0.08600
N 	N 	0.88650 0.63780 0.00888 -0.12600
N 	N 	0.07500 0.70260 0.83827 -0.13500
C 	C 	0.05580 0.64680 0.02390 0.02200
C 	C 	0.61100 0.45400 0.02660 -0.03800
H 	H 	0.68460 0.42290 0.04450 0.04400
C 	C 	0.82290 0.83020 0.95690 0.31200
O 	O 	0.65400 0.05600 0.57744 -0.43300
C 	C 	0.45640 0.80690 0.64630 0.07800
N 	N 	0.38530 0.91290 0.68257 -0.21500
H 	H 	0.36770 0.96360 0.69180 0.12200
N 	N 	0.40080 0.76500 0.67460 -0.13100
C 	C 	0.49120 0.95740 0.62710 -0.04100
H 	H 	0.49130 0.01850 0.63120 0.05000
C 	C 	0.00990 0.81270 0.87440 0.06200
C 	C 	0.44510 0.89830 0.65150 0.05000
C 	C 	0.17100 0.79530 0.79200 -0.01100
C 	C 	0.56650 0.98720 0.56850 0.37400
C 	C 	0.83390 0.56390 0.02400 0.13300
C 	C 	0.53660 0.92390 0.59670 -0.11500
C 	C 	0.09670 0.57590 0.04790 0.10200
C 	C 	0.10490 0.78320 0.82580 0.12700
C 	C 	0.95130 0.85010 0.90310 -0.06200
H 	H 	0.95140 0.91150 0.90640 0.05000
C 	C 	0.25610 0.89100 0.74800 -0.04200
H 	H 	0.27130 0.94810 0.73960 0.03900
C 	C 	0.01330 0.72170 0.86910 0.06700
C 	C 	0.54710 0.83150 0.59140 0.04700
H 	H 	0.57980 0.81070 0.57060 0.01500
C 	C 	0.89610 0.70070 0.92140 0.00600
H 	H 	0.85610 0.66320 0.93730 0.04200
C 	C 	0.50990 0.77100 0.61630 -0.12200
H 	H 	0.52000 0.70990 0.61330 0.08300
C 	C 	0.36030 0.83350 0.69530 0.12600
C 	C 	0.37530 0.63040 0.06180 0.03300
H 	H 	0.48470 0.62600 0.07490 0.03200
C 	C 	0.95780 0.66420 0.89300 -0.10400
H 	H 	0.96200 0.60280 0.89010 0.06700
C 	C 	0.29300 0.81830 0.72880 -0.01100
C 	C 	0.19580 0.87990 0.78000 -0.03900
H 	H 	0.17280 0.92930 0.79310 0.04100
C 	C 	0.25860 0.56760 0.06750 -0.14000
H 	H 	0.28860 0.52120 0.08390 0.08100
C 	C 	0.54900 0.57640 0.98530 -0.04200
H 	H 	0.58230 0.62850 0.97540 0.06400
C 	C 	0.66300 0.53130 0.01190 -0.01300
C 	C 	0.20830 0.72440 0.77260 -0.03700
H 	H 	0.19360 0.66730 0.78110 0.05300
C 	C 	0.26640 0.73360 0.74120 -0.04000
H 	H 	0.28790 0.68360 0.72830 0.05500
H 	H 	0.94700 0.47750 0.05970 0.13000
Eu	Eu	0.31991 0.90161 0.48555 1.73700
O 	O 	0.14980 0.91040 0.53367 -0.43800
O 	O 	0.38960 0.75970 0.45459 -0.37900
O 	O 	0.26550 0.78200 0.52674 -0.39900
O 	O 	0.49650 0.97350 0.96520 -0.56000
O 	O 	0.58850 0.82990 0.49217 -0.42400
N 	N 	0.04540 0.52490 0.45270 -0.22600
C 	C 	0.10740 0.79320 0.57340 -0.06900
C 	C 	0.83040 0.70910 0.48250 -0.04000
H 	H 	0.86190 0.75490 0.49910 0.04700
C 	C 	0.54260 0.76640 0.47020 0.31800
N 	N 	0.93250 0.85070 0.65413 -0.21600
H 	H 	0.92280 0.90660 0.65820 0.12700
C 	C 	0.66820 0.70130 0.46340 -0.08600
N 	N 	0.11350 0.63780 0.49112 -0.12600
N 	N 	0.92500 0.70260 0.66173 -0.13500
C 	C 	0.94420 0.64680 0.47610 0.02200
C 	C 	0.38900 0.45400 0.47340 -0.03800
H 	H 	0.31540 0.42290 0.45550 0.04400
C 	C 	0.17710 0.83020 0.54310 0.31200
O 	O 	0.34600 0.05600 0.92256 -0.43300
C 	C 	0.54360 0.80690 0.85370 0.07800
N 	N 	0.61470 0.91290 0.81743 -0.21500
H 	H 	0.63230 0.96360 0.80820 0.12200
N 	N 	0.59920 0.76500 0.82540 -0.13100
C 	C 	0.50880 0.95740 0.87290 -0.04000
H 	H 	0.50870 0.01850 0.86880 0.04900
C 	C 	0.99010 0.81270 0.62560 0.06200
C 	C 	0.55490 0.89830 0.84850 0.05000
C 	C 	0.82900 0.79530 0.70800 -0.01100
C 	C 	0.43350 0.98720 0.93150 0.37500
C 	C 	0.16610 0.56390 0.47600 0.13300
C 	C 	0.46340 0.92390 0.90330 -0.11500
C 	C 	0.90330 0.57590 0.45210 0.10200
C 	C 	0.89510 0.78320 0.67420 0.12700
C 	C 	0.04870 0.85010 0.59690 -0.06200
H 	H 	0.04860 0.91150 0.59360 0.05000
C 	C 	0.74390 0.89100 0.75200 -0.04200
H 	H 	0.72870 0.94810 0.76040 0.03900
C 	C 	0.98670 0.72170 0.63090 0.06700
C 	C 	0.45290 0.83150 0.90860 0.04700
H 	H 	0.42020 0.81070 0.92940 0.01500
C 	C 	0.10390 0.70070 0.57860 0.00600
H 	H 	0.14390 0.66320 0.56270 0.04200
C 	C 	0.49010 0.77100 0.88370 -0.12200
H 	H 	0.48000 0.70990 0.88670 0.08300
C 	C 	0.63970 0.83350 0.80470 0.12600
C 	C 	0.62470 0.63040 0.43820 0.03300
H 	H 	0.51530 0.62600 0.42510 0.03200
C 	C 	0.04220 0.66420 0.60700 -0.10500
H 	H 	0.03800 0.60280 0.60990 0.06700
C 	C 	0.70700 0.81830 0.77120 -0.01100
C 	C 	0.80420 0.87990 0.72000 -0.03900
H 	H 	0.82720 0.92930 0.70690 0.04100
C 	C 	0.74140 0.56760 0.43250 -0.14000
H 	H 	0.71140 0.52120 0.41610 0.08100
C 	C 	0.45100 0.57640 0.51470 -0.04200
H 	H 	0.41770 0.62850 0.52460 0.06400
C 	C 	0.33700 0.53130 0.48810 -0.01300
C 	C 	0.79170 0.72440 0.72740 -0.03700
H 	H 	0.80640 0.66730 0.71890 0.05300
C 	C 	0.73360 0.73360 0.75880 -0.04000
H 	H 	0.71210 0.68360 0.77170 0.05500
H 	H 	0.05300 0.47750 0.44030 0.13000
