data_crystal

_cell_length_a 22.13860
_cell_length_b 22.13860
_cell_length_c 36.26510
_cell_angle_alpha 90.00000
_cell_angle_beta  90.00000
_cell_angle_gamma 90.00000

_symmetry_space_group_name_	'P 1'
_symmetry_space_group_name_H-M	'P 1'

loop_
_symmetry_equiv_pos_as_xyz
  x,y,z

loop_
_atom_site_label
_atom_site_type_symbol
_atom_site_fract_x
_atom_site_fract_y
_atom_site_fract_z
_atom_site_charge
In	In	0.21649 0.50344 0.65404 2.04900
In	In	0.15662 0.50044 0.73829 2.05800
In	In	0.80831 0.98284 0.52189 2.05500
O 	O 	0.30360 0.94336 0.97804 -0.60800
O 	O 	0.20315 0.95456 0.98217 -0.57400
O 	O 	0.18053 0.56794 0.77079 -0.55500
O 	O 	0.27796 0.58559 0.75778 -0.57400
O 	O 	0.14970 0.56449 0.65465 -0.55600
O 	O 	0.10846 0.56012 0.71118 -0.56200
O 	O 	0.77955 0.93489 0.60949 -0.57100
O 	O 	0.84167 0.93115 0.56070 -0.59200
O 	O 	0.15605 0.43541 0.65423 -0.56600
O 	O 	0.11606 0.43313 0.71094 -0.58000
O 	O 	0.77855 0.06165 0.60132 -0.57800
O 	O 	0.84016 0.05163 0.55233 -0.56800
O 	O 	0.88469 0.96124 0.49440 -0.56800
O 	O 	0.08710 0.50167 0.77194 -0.53900
O 	O 	0.04422 0.41103 0.79662 -0.29000
O 	O 	0.22609 0.51759 0.70682 -1.03700
O 	O 	0.20265 0.50897 0.60013 -0.48200
N 	N 	0.21545 0.66294 0.49310 -0.20900
C 	C 	0.11052 0.58179 0.67863 0.44000
C 	C 	0.06475 0.62871 0.66861 -0.12100
C 	C 	0.04825 0.63766 0.63171 0.03300
H 	H 	0.06819 0.61029 0.61024 0.05000
C 	C 	0.00579 0.68180 0.62202 -0.05800
H 	H 	0.99442 0.68733 0.59318 0.05500
C 	C 	0.97872 0.71889 0.64895 0.02100
C 	C 	0.99307 0.70823 0.68616 -0.06900
H 	H 	0.97289 0.73560 0.70766 0.04800
C 	C 	0.03561 0.66367 0.69589 0.03700
H 	H 	0.04657 0.65752 0.72476 0.04200
C 	C 	0.82675 0.91444 0.59315 0.44800
C 	C 	0.95673 0.80495 0.60660 -0.07000
H 	H 	0.99809 0.79496 0.59204 0.05400
C 	C 	0.92117 0.85243 0.59393 0.03700
H 	H 	0.93669 0.87679 0.57013 0.05000
C 	C 	0.86634 0.86773 0.61103 -0.13100
C 	C 	0.84971 0.83517 0.64292 0.03600
H 	H 	0.80803 0.84549 0.65710 0.02800
C 	C 	0.88624 0.78735 0.65609 -0.07100
H 	H 	0.87193 0.76231 0.68020 0.04700
C 	C 	0.93970 0.77086 0.63741 0.02800
C 	C 	0.22878 0.59932 0.77420 0.44600
C 	C 	0.22756 0.65375 0.79854 -0.12800
C 	C 	0.27656 0.69412 0.79893 0.03600
H 	H 	0.31504 0.68676 0.78122 0.04100
C 	C 	0.27786 0.74330 0.82319 -0.06600
H 	H 	0.31685 0.77284 0.82250 0.04900
C 	C 	0.23061 0.75310 0.84849 0.02500
C 	C 	0.18052 0.71379 0.84725 -0.06900
H 	H 	0.14335 0.71932 0.86634 0.04900
C 	C 	0.17882 0.66514 0.82240 0.03700
H 	H 	0.13993 0.63546 0.82271 0.04200
C 	C 	0.23517 0.80159 0.87733 0.02700
C 	C 	0.18351 0.83178 0.89073 -0.07100
H 	H 	0.13962 0.82309 0.87867 0.04900
C 	C 	0.18776 0.87377 0.91978 0.03600
H 	H 	0.14727 0.89661 0.92894 0.03600
C 	C 	0.24373 0.88613 0.93656 -0.13700
C 	C 	0.29535 0.85710 0.92238 0.03500
H 	H 	0.33949 0.86579 0.93408 0.04500
C 	C 	0.29134 0.81620 0.89310 -0.07100
H 	H 	0.33248 0.79489 0.88362 0.06300
C 	C 	0.25008 0.93048 0.96757 0.44500
C 	C 	0.11856 0.41327 0.67778 0.42700
C 	C 	0.07511 0.36347 0.66563 -0.11500
C 	C 	0.07375 0.34427 0.62872 0.02800
H 	H 	0.10437 0.36437 0.60896 0.04500
C 	C 	0.03279 0.29996 0.61619 -0.06300
H 	H 	0.03482 0.28954 0.58724 0.04800
C 	C 	0.99079 0.27101 0.63988 0.02100
C 	C 	0.99191 0.29092 0.67725 -0.06300
H 	H 	0.96153 0.27187 0.69742 0.04900
C 	C 	0.03274 0.33630 0.68974 0.02500
H 	H 	0.03076 0.35017 0.71840 0.04300
C 	C 	0.94710 0.22143 0.62546 0.02300
C 	C 	0.95101 0.19841 0.58891 -0.06600
H 	H 	0.98503 0.21393 0.56990 0.04700
C 	C 	0.91138 0.15359 0.57534 0.02900
H 	H 	0.91668 0.13868 0.54708 0.03800
C 	C 	0.86584 0.12808 0.59746 -0.11800
C 	C 	0.86142 0.14991 0.63395 0.02800
H 	H 	0.82792 0.13100 0.65240 0.03300
C 	C 	0.90063 0.19572 0.64753 -0.06600
H 	H 	0.89371 0.21039 0.67560 0.04700
C 	C 	0.82553 0.07769 0.58279 0.42600
C 	C 	0.06561 0.45630 0.78424 0.40000
C 	C 	0.27383 0.64158 0.50692 -0.08200
In	In	0.78377 0.49703 0.15400 2.04800
In	In	0.84306 0.49953 0.23820 2.05800
In	In	0.19150 0.01656 0.02154 2.05500
O 	O 	0.69609 0.05703 0.47856 -0.61000
O 	O 	0.79656 0.04493 0.48256 -0.57400
O 	O 	0.82016 0.43228 0.27106 -0.55300
O 	O 	0.72270 0.41416 0.25728 -0.57000
O 	O 	0.85120 0.43652 0.15409 -0.56900
O 	O 	0.89089 0.43958 0.21104 -0.56500
O 	O 	0.22061 0.06519 0.10884 -0.55400
O 	O 	0.15786 0.06799 0.06028 -0.59000
O 	O 	0.84496 0.56445 0.15424 -0.58100
O 	O 	0.88398 0.56693 0.21110 -0.58200
O 	O 	0.22140 0.93774 0.10083 -0.56700
O 	O 	0.15959 0.94788 0.05189 -0.56700
O 	O 	0.11489 0.03811 -0.00585 -0.56600
O 	O 	0.91251 0.49887 0.27190 -0.53800
O 	O 	0.95462 0.58993 0.29653 -0.28400
O 	O 	0.77306 0.48290 0.20681 -1.04100
O 	O 	0.79299 0.49266 0.09969 -0.49500
N 	N 	0.78136 0.33629 0.99270 -0.20800
C 	C 	0.88970 0.41856 0.17830 0.44100
C 	C 	0.93558 0.37156 0.16831 -0.12400
C 	C 	0.95191 0.36239 0.13138 0.03600
H 	H 	0.93189 0.38955 0.10987 0.04500
C 	C 	0.99410 0.31801 0.12169 -0.06700
H 	H 	0.00520 0.31219 0.09283 0.05900
C 	C 	0.02112 0.28086 0.14857 0.02600
C 	C 	0.00690 0.29156 0.18581 -0.06700
H 	H 	0.02688 0.26393 0.20723 0.04800
C 	C 	0.96459 0.33635 0.19558 0.03500
H 	H 	0.95359 0.34237 0.22445 0.04200
C 	C 	0.17306 0.08519 0.09259 0.44400
C 	C 	0.04269 0.19456 0.10618 -0.06800
H 	H 	0.00117 0.20440 0.09182 0.05500
C 	C 	0.07833 0.14714 0.09345 0.03600
H 	H 	0.06261 0.12253 0.06977 0.05100
C 	C 	0.13339 0.13203 0.11043 -0.12500
C 	C 	0.15013 0.16480 0.14216 0.03500
H 	H 	0.19188 0.15464 0.15610 0.03100
C 	C 	0.11359 0.21247 0.15542 -0.06900
H 	H 	0.12803 0.23758 0.17948 0.04700
C 	C 	0.05992 0.22880 0.13690 0.02600
C 	C 	0.77202 0.40068 0.27409 0.43700
C 	C 	0.77257 0.34622 0.29861 -0.12300
C 	C 	0.72343 0.30592 0.29916 0.03400
H 	H 	0.68502 0.31301 0.28132 0.04100
C 	C 	0.72201 0.25688 0.32361 -0.06500
H 	H 	0.68308 0.22724 0.32305 0.04800
C 	C 	0.76932 0.24708 0.34890 0.02300
C 	C 	0.81949 0.28623 0.34748 -0.06700
H 	H 	0.85682 0.28054 0.36644 0.04900
C 	C 	0.82125 0.33480 0.32256 0.03400
H 	H 	0.86020 0.36428 0.32270 0.04300
C 	C 	0.76480 0.19873 0.37791 0.02700
C 	C 	0.81637 0.16817 0.39115 -0.07100
H 	H 	0.86013 0.17637 0.37884 0.04900
C 	C 	0.81211 0.12639 0.42031 0.03500
H 	H 	0.85253 0.10333 0.42941 0.03600
C 	C 	0.75618 0.11434 0.43726 -0.13500
C 	C 	0.70464 0.14377 0.42328 0.03500
H 	H 	0.66050 0.13505 0.43487 0.03600
C 	C 	0.70870 0.18462 0.39396 -0.07200
H 	H 	0.66765 0.20620 0.38457 0.05400
C 	C 	0.74972 0.06960 0.46811 0.44400
C 	C 	0.88206 0.58666 0.17792 0.43100
C 	C 	0.92554 0.63640 0.16586 -0.12000
C 	C 	0.92660 0.65579 0.12900 0.03000
H 	H 	0.89584 0.63589 0.10927 0.03800
C 	C 	0.96736 0.70016 0.11645 -0.06800
H 	H 	0.96513 0.71053 0.08750 0.04700
C 	C 	0.00942 0.72912 0.14009 0.02400
C 	C 	0.00851 0.70918 0.17747 -0.06200
H 	H 	0.03896 0.72824 0.19762 0.04700
C 	C 	0.96787 0.66361 0.18995 0.02300
H 	H 	0.96986 0.64969 0.21859 0.04200
C 	C 	0.05289 0.77868 0.12550 0.02200
C 	C 	0.04867 0.80149 0.08893 -0.06500
H 	H 	0.01452 0.78594 0.07005 0.04700
C 	C 	0.08817 0.84619 0.07515 0.02800
H 	H 	0.08249 0.86117 0.04692 0.03800
C 	C 	0.13397 0.87167 0.09710 -0.11500
C 	C 	0.13849 0.85026 0.13368 0.02700
H 	H 	0.17188 0.86957 0.15201 0.04000
C 	C 	0.09939 0.80459 0.14746 -0.06400
H 	H 	0.10636 0.79020 0.17556 0.04700
C 	C 	0.17438 0.92180 0.08233 0.42400
C 	C 	0.93364 0.54445 0.28420 0.39700
C 	C 	0.72585 0.36015 0.00912 -0.08600
In	In	0.99758 0.71605 0.40403 2.04800
In	In	-0.00037 0.65675 0.48832 2.05900
In	In	0.51695 0.30875 0.27169 2.05500
O 	O 	0.55671 0.80358 0.72804 -0.61200
O 	O 	0.54575 0.70310 0.73245 -0.57700
O 	O 	0.93247 0.67991 0.52106 -0.55600
O 	O 	0.91415 0.77703 0.50716 -0.57200
O 	O 	0.93710 0.64872 0.40423 -0.55900
O 	O 	0.93961 0.60900 0.46126 -0.56400
O 	O 	0.56628 0.27933 0.35907 -0.57000
O 	O 	0.56752 0.34283 0.31085 -0.59000
O 	O 	0.06490 0.65500 0.40433 -0.57800
O 	O 	0.06714 0.61574 0.46111 -0.57900
O 	O 	0.43877 0.27882 0.35104 -0.56400
O 	O 	0.44809 0.34029 0.30196 -0.56700
O 	O 	0.53833 0.38501 0.24419 -0.56800
O 	O 	-0.00116 0.58715 0.52187 -0.53400
O 	O 	0.08973 0.54489 0.54683 -0.27700
O 	O 	0.98329 0.72640 0.45681 -1.03700
O 	O 	-0.00609 0.70446 0.34991 -0.48300
N 	N 	0.84236 0.71869 0.24312 -0.20900
C 	C 	0.91886 0.61031 0.42844 0.43900
C 	C 	0.87177 0.56473 0.41842 -0.12200
C 	C 	0.86257 0.54850 0.38148 0.03500
H 	H 	0.88966 0.56877 0.35996 0.04900
C 	C 	0.81829 0.50622 0.37177 -0.06500
H 	H 	0.81264 0.49498 0.34292 0.05800
C 	C 	0.78116 0.47923 0.39867 0.02500
C 	C 	0.79181 0.49351 0.43590 -0.06700
H 	H 	0.76427 0.47347 0.45737 0.04800
C 	C 	0.83650 0.53587 0.44567 0.03500
H 	H 	0.84236 0.54708 0.47452 0.04200
C 	C 	0.58538 0.32740 0.34301 0.44900
C 	C 	0.69475 0.45769 0.35646 -0.06900
H 	H 	0.70470 0.49913 0.34198 0.05500
C 	C 	0.64705 0.42228 0.34390 0.03800
H 	H 	0.62230 0.43810 0.32027 0.05000
C 	C 	0.63206 0.36723 0.36085 -0.13000
C 	C 	0.66496 0.35037 0.39249 0.03700
H 	H 	0.65481 0.30856 0.40638 0.02700
C 	C 	0.71281 0.38676 0.40565 -0.07100
H 	H 	0.73809 0.37219 0.42963 0.04700
C 	C 	0.72914 0.44041 0.38711 0.02700
C 	C 	0.90078 0.72791 0.52402 0.44200
C 	C 	0.84631 0.72721 0.54846 -0.12600
C 	C 	0.80599 0.77624 0.54893 0.03500
H 	H 	0.81317 0.81466 0.53114 0.04100
C 	C 	0.75694 0.77768 0.57334 -0.06600
H 	H 	0.72736 0.81666 0.57273 0.04900
C 	C 	0.74720 0.73042 0.59869 0.02400
C 	C 	0.78638 0.68029 0.59737 -0.06800
H 	H 	0.78077 0.64314 0.61643 0.04900
C 	C 	0.83491 0.67848 0.57246 0.03500
H 	H 	0.86445 0.63956 0.57268 0.04300
C 	C 	0.69883 0.73507 0.62765 0.02700
C 	C 	0.66858 0.68343 0.64104 -0.07200
H 	H 	0.67702 0.63957 0.62887 0.04900
C 	C 	0.62673 0.68766 0.67015 0.03600
H 	H 	0.60389 0.64725 0.67934 0.03500
C 	C 	0.61441 0.74361 0.68691 -0.13800
C 	C 	0.64349 0.79527 0.67274 0.03700
H 	H 	0.63447 0.83951 0.68417 0.04200
C 	C 	0.68442 0.79124 0.64348 -0.07200
H 	H 	0.70569 0.83231 0.63396 0.06200
C 	C 	0.56980 0.75004 0.71779 0.44700
C 	C 	0.08701 0.61782 0.42796 0.43200
C 	C 	0.13676 0.57448 0.41590 -0.12000
C 	C 	0.15622 0.57334 0.37905 0.03100
H 	H 	0.13632 0.60412 0.35928 0.03800
C 	C 	0.20052 0.53240 0.36654 -0.06600
H 	H 	0.21089 0.53455 0.33759 0.04800
C 	C 	0.22933 0.49029 0.39022 0.02300
C 	C 	0.20929 0.49137 0.42758 -0.06400
H 	H 	0.22821 0.46086 0.44775 0.04700
C 	C 	0.16383 0.53220 0.44003 0.02600
H 	H 	0.14976 0.53034 0.46864 0.04200
C 	C 	0.27884 0.44663 0.37573 0.02200
C 	C 	0.30162 0.45071 0.33914 -0.06500
H 	H 	0.28609 0.48482 0.32023 0.04700
C 	C 	0.34630 0.41124 0.32536 0.02800
H 	H 	0.36117 0.41681 0.29709 0.03800
C 	C 	0.37199 0.36563 0.34731 -0.11500
C 	C 	0.35050 0.36095 0.38385 0.02700
H 	H 	0.36978 0.32741 0.40212 0.04100
C 	C 	0.30476 0.40004 0.39769 -0.06400
H 	H 	0.29037 0.39303 0.42580 0.04700
C 	C 	0.42234 0.32556 0.33247 0.42600
C 	C 	0.04439 0.56596 0.53433 0.39400
C 	C 	0.86140 0.77673 0.25854 -0.08400
In	In	0.00380 0.28367 0.90362 2.04900
In	In	1.00124 0.34298 0.98800 2.05800
In	In	0.48344 0.69125 0.77163 2.05500
O 	O 	0.44310 0.19589 0.22882 -0.60900
O 	O 	0.45482 0.29642 0.23255 -0.57700
O 	O 	0.06759 0.31890 0.02135 -0.55500
O 	O 	0.08672 0.22223 0.00694 -0.57300
O 	O 	0.06456 0.35094 0.90365 -0.57400
O 	O 	0.06137 0.39036 0.96065 -0.56500
O 	O 	0.43535 0.72110 0.85910 -0.55600
O 	O 	0.43210 0.65824 0.81055 -0.59100
O 	O 	0.93668 0.34504 0.90411 -0.56400
O 	O 	0.93339 0.38367 0.96113 -0.57800
O 	O 	0.56283 0.72168 0.85087 -0.57800
O 	O 	0.55208 0.65955 0.80223 -0.56800
O 	O 	0.46163 0.61422 0.74457 -0.56800
O 	O 	1.00398 0.41318 0.02114 -0.54100
O 	O 	0.91511 0.45695 0.04754 -0.29800
O 	O 	0.01702 0.27315 0.95651 -1.03600
O 	O 	1.00358 0.29304 0.84916 -0.49100
N 	N 	0.16858 0.28136 0.74391 -0.20900
C 	C 	0.08242 0.38935 0.92792 0.44500
C 	C 	0.12920 0.43548 0.91804 -0.12600
C 	C 	0.13823 0.45223 0.88116 0.03800
H 	H 	0.11115 0.43225 0.85959 0.04300
C 	C 	0.18233 0.49479 0.87162 -0.06700
H 	H 	0.18811 0.50618 0.84280 0.05800
C 	C 	0.21932 0.52175 0.89862 0.02600
C 	C 	0.20862 0.50726 0.93580 -0.06800
H 	H 	0.23607 0.52731 0.95730 0.04900
C 	C 	0.16410 0.46461 0.94540 0.03700
H 	H 	0.15806 0.45344 0.97424 0.04200
C 	C 	0.41511 0.67358 0.84290 0.44400
C 	C 	0.30574 0.54325 0.85646 -0.06800
H 	H 	0.29583 0.50178 0.84205 0.05500
C 	C 	0.35328 0.57879 0.84385 0.03600
H 	H 	0.37801 0.56291 0.82026 0.05100
C 	C 	0.36829 0.63394 0.86079 -0.12500
C 	C 	0.33545 0.65077 0.89246 0.03500
H 	H 	0.34559 0.69261 0.90631 0.03200
C 	C 	0.28776 0.61418 0.90569 -0.06900
H 	H 	0.26260 0.62855 0.92976 0.04700
C 	C 	0.27144 0.56054 0.88711 0.02600
C 	C 	0.09971 0.27105 0.02414 0.44100
C 	C 	0.15406 0.27187 0.04880 -0.12500
C 	C 	0.19458 0.22291 0.04932 0.03400
H 	H 	0.18753 0.18449 0.03155 0.04000
C 	C 	0.24359 0.22163 0.07379 -0.06600
H 	H 	0.27329 0.18271 0.07328 0.04900
C 	C 	0.25322 0.26891 0.09910 0.02400
C 	C 	0.21400 0.31903 0.09769 -0.06800
H 	H 	0.21967 0.35635 0.11663 0.04900
C 	C 	0.16533 0.32055 0.07280 0.03500
H 	H 	0.13562 0.35939 0.07305 0.04300
C 	C 	0.30134 0.26426 0.12819 0.02700
C 	C 	0.33223 0.31574 0.14121 -0.07200
H 	H 	0.32442 0.35941 0.12867 0.04900
C 	C 	0.37389 0.31152 0.17041 0.03600
H 	H 	0.39732 0.35184 0.17930 0.03500
C 	C 	0.38547 0.25571 0.18761 -0.13800
C 	C 	0.35565 0.20417 0.17389 0.03600
H 	H 	0.36387 0.16010 0.18582 0.04300
C 	C 	0.31487 0.20823 0.14451 -0.07300
H 	H 	0.29299 0.16730 0.13527 0.06200
C 	C 	0.43025 0.24940 0.21834 0.44600
C 	C 	0.91392 0.38171 0.92788 0.42600
C 	C 	0.86389 0.42484 0.91582 -0.11500
C 	C 	0.84450 0.42595 0.87893 0.02800
H 	H 	0.86442 0.39518 0.85919 0.04700
C 	C 	0.80013 0.46680 0.86637 -0.06300
H 	H 	0.78971 0.46465 0.83743 0.04800
C 	C 	0.77118 0.50883 0.89005 0.02100
C 	C 	0.79103 0.50769 0.92743 -0.06300
H 	H 	0.77191 0.53806 0.94762 0.04800
C 	C 	0.83648 0.46693 0.93994 0.02400
H 	H 	0.85019 0.46875 0.96862 0.04300
C 	C 	0.72158 0.55245 0.87561 0.02300
C 	C 	0.69863 0.54844 0.83905 -0.06600
H 	H 	0.71421 0.51442 0.82009 0.04700
C 	C 	0.65387 0.58806 0.82542 0.02900
H 	H 	0.63875 0.58245 0.79721 0.03800
C 	C 	0.62850 0.63379 0.84740 -0.11800
C 	C 	0.65004 0.63813 0.88401 0.02800
H 	H 	0.63077 0.67136 0.90248 0.03400
C 	C 	0.69574 0.59889 0.89766 -0.06600
H 	H 	0.71031 0.60575 0.92575 0.04700
C 	C 	0.57843 0.67443 0.83260 0.42800
C 	C 	0.95948 0.43509 0.03429 0.40100
C 	C 	0.14163 0.22611 0.75860 -0.08300
In	In	0.28350 0.00329 0.09567 2.04800
In	In	0.34315 1.00066 0.01149 2.05800
In	In	0.69189 0.48333 0.22796 2.05500
O 	O 	0.19605 0.44257 0.77127 -0.61000
O 	O 	0.29647 0.45449 0.76726 -0.57400
O 	O 	0.32019 0.06880 0.97937 -0.55400
O 	O 	0.22250 0.08584 0.99237 -0.57200
O 	O 	0.35082 0.06397 0.09561 -0.56800
O 	O 	0.39090 0.06051 0.03875 -0.56500
O 	O 	0.72101 0.43530 0.14039 -0.55400
O 	O 	0.65811 0.43184 0.18886 -0.58600
O 	O 	0.34527 0.93639 0.09586 -0.57900
O 	O 	0.38427 0.93363 0.03899 -0.58100
O 	O 	0.72166 0.56242 0.14872 -0.56700
O 	O 	0.66004 0.55225 0.19787 -0.56800
O 	O 	0.61469 0.46146 0.25522 -0.56200
O 	O 	0.41277 1.00098 0.97794 -0.53700
O 	O 	0.45488 0.90975 0.95351 -0.28200
O 	O 	0.27315 0.01635 0.04283 -1.04000
O 	O 	0.29183 1.00787 0.15000 -0.49400
N 	N 	0.28188 0.16803 0.26225 -0.20900
C 	C 	0.38953 0.08169 0.07145 0.44100
C 	C 	0.43553 0.12858 0.08139 -0.12400
C 	C 	0.45220 0.13771 0.11827 0.03600
H 	H 	0.43225 0.11062 0.13985 0.04400
C 	C 	0.49468 0.18192 0.12782 -0.06600
H 	H 	0.50603 0.18767 0.15665 0.05800
C 	C 	0.52162 0.21899 0.10084 0.02500
C 	C 	0.50709 0.20823 0.06365 -0.06800
H 	H 	0.52704 0.23566 0.04213 0.04800
C 	C 	0.46450 0.16362 0.05404 0.03600
H 	H 	0.45326 0.15759 0.02521 0.04100
C 	C 	0.67351 0.41497 0.15655 0.44300
C 	C 	0.54384 0.30489 0.14338 -0.06800
H 	H 	0.50272 0.29467 0.15809 0.05400
C 	C 	0.57945 0.35236 0.15599 0.03500
H 	H 	0.56406 0.37649 0.17992 0.05100
C 	C 	0.63403 0.36807 0.13864 -0.12500
C 	C 	0.65030 0.33583 0.10659 0.03400
H 	H 	0.69158 0.34653 0.09218 0.03100
C 	C 	0.61367 0.28806 0.09345 -0.06900
H 	H 	0.62761 0.26339 0.06911 0.04600
C 	C 	0.56054 0.27110 0.11238 0.02600
C 	C 	0.27177 0.09988 0.97598 0.44200
C 	C 	0.27244 0.15423 0.95148 -0.12600
C 	C 	0.22314 0.19432 0.95073 0.03500
H 	H 	0.18468 0.18718 0.96851 0.04100
C 	C 	0.22164 0.24309 0.92611 -0.06600
H 	H 	0.18258 0.27260 0.92645 0.04800
C 	C 	0.26900 0.25278 0.90089 0.02400
C 	C 	0.31931 0.21386 0.90246 -0.06800
H 	H 	0.35662 0.21951 0.88348 0.04900
C 	C 	0.32115 0.16553 0.92752 0.03500
H 	H 	0.36015 0.13607 0.92743 0.04300
C 	C 	0.26448 0.30085 0.87182 0.02700
C 	C 	0.31594 0.33211 0.85909 -0.07200
H 	H 	0.35948 0.32453 0.87186 0.04900
C 	C 	0.31185 0.37377 0.82987 0.03500
H 	H 	0.35221 0.39730 0.82111 0.03500
C 	C 	0.25608 0.38521 0.81254 -0.13700
C 	C 	0.20461 0.35513 0.82608 0.03400
H 	H 	0.16064 0.36316 0.81401 0.03700
C 	C 	0.20859 0.31406 0.85525 -0.07200
H 	H 	0.16772 0.29166 0.86416 0.05400
C 	C 	0.24964 0.42990 0.78172 0.44400
C 	C 	0.38259 0.91427 0.07227 0.43000
C 	C 	0.42640 0.86483 0.08449 -0.12000
C 	C 	0.42655 0.84448 0.12118 0.02900
H 	H 	0.39516 0.86377 0.14076 0.03800
C 	C 	0.46711 0.79984 0.13372 -0.06500
H 	H 	0.46413 0.78866 0.16254 0.04800
C 	C 	0.50980 0.77151 0.11022 0.02200
C 	C 	0.50995 0.79258 0.07308 -0.06400
H 	H 	0.54090 0.77408 0.05301 0.04700
C 	C 	0.46979 0.83861 0.06068 0.02500
H 	H 	0.47295 0.85355 0.03228 0.04100
C 	C 	0.55302 0.72160 0.12466 0.02200
C 	C 	0.54881 0.69853 0.16119 -0.06500
H 	H 	0.51474 0.71404 0.18014 0.04700
C 	C 	0.58833 0.65367 0.17481 0.02700
H 	H 	0.58271 0.63850 0.20302 0.03900
C 	C 	0.63411 0.62837 0.15276 -0.11400
C 	C 	0.63844 0.64989 0.11621 0.02700
H 	H 	0.67172 0.63062 0.09780 0.03900
C 	C 	0.59934 0.69564 0.10258 -0.06500
H 	H 	0.60619 0.70997 0.07447 0.04600
C 	C 	0.67474 0.57834 0.16742 0.42200
C 	C 	0.43390 0.95530 0.96575 0.39700
C 	C 	0.22859 0.14160 0.24484 -0.08300
In	In	0.71624 0.99614 0.59592 2.04800
In	In	0.65655 -0.00071 0.51164 2.05900
In	In	0.30818 0.51689 0.72796 2.05500
O 	O 	0.80335 0.55745 0.27106 -0.61000
O 	O 	0.70293 0.54547 0.26714 -0.57700
O 	O 	0.67983 0.93142 0.47933 -0.55500
O 	O 	0.77720 0.91378 0.49268 -0.57400
O 	O 	0.64972 0.93482 0.59521 -0.55800
O 	O 	0.60844 0.93954 0.53872 -0.56300
O 	O 	0.27978 0.56462 0.64038 -0.57000
O 	O 	0.34176 0.56813 0.68923 -0.59400
O 	O 	0.65460 0.06308 0.59614 -0.56400
O 	O 	0.61524 0.06602 0.53928 -0.57800
O 	O 	0.27909 0.43830 0.64883 -0.58000
O 	O 	0.34074 0.44835 0.69774 -0.57100
O 	O 	0.38472 0.53845 0.75519 -0.56800
O 	O 	0.58716 -0.00165 0.47781 -0.53800
O 	O 	0.54416 0.08914 0.45341 -0.29100
O 	O 	0.72634 0.98319 0.54307 -1.03800
O 	O 	0.70299 -0.00901 0.64990 -0.48100
N 	N 	0.71773 0.83666 0.75884 -0.20900
C 	C 	0.61043 0.91778 0.57125 0.44100
C 	C 	0.56437 0.87115 0.58128 -0.12200
C 	C 	0.54739 0.86269 0.61815 0.03600
H 	H 	0.56693 0.89047 0.63956 0.04900
C 	C 	0.50502 0.81849 0.62789 -0.06500
H 	H 	0.49343 0.81314 0.65672 0.05800
C 	C 	0.47835 0.78104 0.60101 0.02500
C 	C 	0.49280 0.79152 0.56379 -0.06700
H 	H 	0.47272 0.76401 0.54231 0.04800
C 	C 	0.53535 0.83602 0.55404 0.03500
H 	H 	0.54644 0.84200 0.52519 0.04200
C 	C 	0.32701 0.58489 0.65678 0.44900
C 	C 	0.45673 0.69501 0.64344 -0.06900
H 	H 	0.49798 0.70525 0.65804 0.05400
C 	C 	0.42132 0.64738 0.65609 0.03700
H 	H 	0.43674 0.62319 0.67994 0.05000
C 	C 	0.36665 0.63168 0.63891 -0.13000
C 	C 	0.35009 0.66406 0.60694 0.03500
H 	H 	0.30861 0.65335 0.59268 0.02900
C 	C 	0.38637 0.71209 0.59380 -0.07000
H 	H 	0.37207 0.73703 0.56964 0.04600
C 	C 	0.43963 0.72891 0.61257 0.02700
C 	C 	0.72813 0.90006 0.47609 0.44400
C 	C 	0.72740 0.84579 0.45153 -0.12700
C 	C 	0.77668 0.80568 0.45072 0.03600
H 	H 	0.81532 0.81289 0.46838 0.04100
C 	C 	0.77814 0.75694 0.42606 -0.06600
H 	H 	0.81726 0.72748 0.42634 0.04900
C 	C 	0.73075 0.74731 0.40083 0.02400
C 	C 	0.68050 0.78634 0.40244 -0.06800
H 	H 	0.64319 0.78089 0.38344 0.04900
C 	C 	0.67875 0.83463 0.42755 0.03600
H 	H 	0.63993 0.86431 0.42740 0.04300
C 	C 	0.73530 0.69936 0.37168 0.02700
C 	C 	0.68385 0.66803 0.35898 -0.07100
H 	H 	0.64035 0.67544 0.37186 0.04900
C 	C 	0.68793 0.62639 0.32974 0.03500
H 	H 	0.64764 0.60266 0.32108 0.03500
C 	C 	0.74356 0.61514 0.31225 -0.13700
C 	C 	0.79506 0.64532 0.32574 0.03600
H 	H 	0.83905 0.63727 0.31367 0.04300
C 	C 	0.79113 0.68621 0.35506 -0.07200
H 	H 	0.83209 0.70839 0.36407 0.06300
C 	C 	0.74982 0.57027 0.28149 0.44500
C 	C 	0.61706 0.08517 0.57262 0.42600
C 	C 	0.57310 0.13439 0.58496 -0.11500
C 	C 	0.57291 0.15477 0.62165 0.02800
H 	H 	0.60418 0.13544 0.64130 0.04500
C 	C 	0.53252 0.19966 0.63408 -0.06400
H 	H 	0.53558 0.21115 0.66286 0.04800
C 	C 	0.48990 0.22798 0.61050 0.02100
C 	C 	0.48980 0.20679 0.57340 -0.06300
H 	H 	0.45898 0.22534 0.55329 0.04800
C 	C 	0.52995 0.16073 0.56106 0.02300
H 	H 	0.52720 0.14605 0.53259 0.04400
C 	C 	0.44680 0.27815 0.62476 0.02400
C 	C 	0.45102 0.30138 0.66125 -0.06600
H 	H 	0.48495 0.28587 0.68028 0.04700
C 	C 	0.41166 0.34636 0.67478 0.02900
H 	H 	0.41715 0.36153 0.70293 0.03800
C 	C 	0.36617 0.37188 0.65262 -0.11900
C 	C 	0.36161 0.35008 0.61616 0.02900
H 	H 	0.32828 0.36924 0.59765 0.03300
C 	C 	0.40058 0.30414 0.60261 -0.06600
H 	H 	0.39371 0.28955 0.57452 0.04700
C 	C 	0.32618 0.42233 0.66737 0.42800
C 	C 	0.56559 0.04377 0.46564 0.39900
C 	C 	0.77256 0.86217 0.74252 -0.08200
In	In	0.50411 0.21657 0.34611 2.04900
In	In	0.50129 0.15694 0.26185 2.05800
In	In	0.98329 0.80845 0.47794 2.05400
O 	O 	0.94289 0.30396 0.02085 -0.60900
O 	O 	0.95494 0.20345 0.01708 -0.57500
O 	O 	0.56821 0.18076 0.22886 -0.55400
O 	O 	0.58669 0.27771 0.24279 -0.57200
O 	O 	0.56480 0.14922 0.34618 -0.57500
O 	O 	0.56133 0.10963 0.28923 -0.56600
O 	O 	0.93580 0.77875 0.39020 -0.55700
O 	O 	0.93206 0.84144 0.43882 -0.59000
O 	O 	0.43728 0.15480 0.34601 -0.56300
O 	O 	0.43390 0.11599 0.28902 -0.57800
O 	O 	0.06293 0.77830 0.39881 -0.57800
O 	O 	0.05194 0.84035 0.44745 -0.56700
O 	O 	0.96127 0.88490 0.50522 -0.56900
O 	O 	0.50393 0.08688 0.22857 -0.53900
O 	O 	0.41502 0.04279 0.20240 -0.29600
O 	O 	0.51680 0.22699 0.29316 -1.03700
O 	O 	0.50431 0.20828 0.40065 -0.49100
N 	N 	0.65958 0.21699 0.51247 -0.21000
C 	C 	0.58247 0.11069 0.32193 0.44500
C 	C 	0.62916 0.06446 0.33174 -0.12600
C 	C 	0.63803 0.04728 0.36855 0.03700
H 	H 	0.61083 0.06699 0.39016 0.04300
C 	C 	0.68212 0.00463 0.37796 -0.06300
H 	H 	0.68782 0.99299 0.40675 0.05600
C 	C 	0.71918 0.97793 0.35089 0.02400
C 	C 	0.70845 0.99271 0.31375 -0.06900
H 	H 	0.73578 0.97277 0.29215 0.04800
C 	C 	0.66403 0.03554 0.30429 0.03800
H 	H 	0.65799 0.04698 0.27549 0.04200
C 	C 	0.91531 0.82617 0.40642 0.44300
C 	C 	0.80518 0.95596 0.39325 -0.06800
H 	H 	0.79491 0.99707 0.40795 0.05400
C 	C 	0.85268 0.92039 0.40584 0.03500
H 	H 	0.87680 0.93586 0.42975 0.05100
C 	C 	0.86842 0.86576 0.38851 -0.12500
C 	C 	0.83622 0.84952 0.35644 0.03400
H 	H 	0.84699 0.80831 0.34199 0.03100
C 	C 	0.78837 0.88605 0.34334 -0.06900
H 	H 	0.76367 0.87205 0.31900 0.04600
C 	C 	0.77139 0.93914 0.36231 0.02600
C 	C 	0.59996 0.22881 0.22580 0.44100
C 	C 	0.65428 0.22804 0.20112 -0.12500
C 	C 	0.69466 0.27710 0.20045 0.03500
H 	H 	0.68761 0.31557 0.21820 0.04100
C 	C 	0.74350 0.27844 0.17586 -0.06500
H 	H 	0.77314 0.31742 0.17623 0.04900
C 	C 	0.75308 0.23109 0.15058 0.02400
C 	C 	0.71401 0.18088 0.15215 -0.06800
H 	H 	0.71966 0.14354 0.13323 0.04900
C 	C 	0.66550 0.17930 0.17714 0.03500
H 	H 	0.63584 0.14045 0.17696 0.04300
C 	C 	0.80101 0.23568 0.12138 0.02700
C 	C 	0.83216 0.18424 0.10853 -0.07200
H 	H 	0.82466 0.14069 0.12128 0.04900
C 	C 	0.87370 0.18839 0.07926 0.03600
H 	H 	0.89732 0.14810 0.07051 0.03500
C 	C 	0.88507 0.24415 0.06193 -0.13800
C 	C 	0.85501 0.29564 0.07548 0.03700
H 	H 	0.86323 0.33969 0.06356 0.04100
C 	C 	0.81416 0.29160 0.10481 -0.07300
H 	H 	0.79196 0.33248 0.11390 0.06200
C 	C 	0.93008 0.25042 0.03129 0.44500
C 	C 	0.41463 0.11787 0.32232 0.42500
C 	C 	0.36477 0.07455 0.33449 -0.11400
C 	C 	0.34482 0.07395 0.37128 0.02800
H 	H 	0.36441 0.10506 0.39094 0.04600
C 	C 	0.30024 0.03326 0.38379 -0.06400
H 	H 	0.28934 0.03581 0.41265 0.04800
C 	C 	0.27161 0.99094 0.36014 0.02200
C 	C 	0.29207 0.99155 0.32290 -0.06200
H 	H 	0.27315 0.96104 0.30272 0.04800
C 	C 	0.33786 0.03194 0.31048 0.02300
H 	H 	0.35209 0.02952 0.28192 0.04200
C 	C 	0.22176 0.94749 0.37445 0.02400
C 	C 	0.19862 0.95148 0.41096 -0.06600
H 	H 	0.21421 0.98537 0.42999 0.04800
C 	C 	0.15372 0.91190 0.42446 0.02900
H 	H 	0.13849 0.91741 0.45265 0.03800
C 	C 	0.12843 0.86625 0.40240 -0.11800
C 	C 	0.15008 0.86199 0.36582 0.02900
H 	H 	0.13087 0.82881 0.34729 0.03400
C 	C 	0.19590 0.90118 0.35230 -0.06600
H 	H 	0.21053 0.89435 0.32422 0.04700
C 	C 	0.07840 0.82554 0.41712 0.42800
C 	C 	0.45939 0.06482 0.21555 0.40200
C 	C 	0.63837 0.27141 0.49383 -0.08200
In	In	0.49730 0.78379 0.84559 2.04800
In	In	0.49954 0.84312 0.76137 2.05800
In	In	0.01717 0.19139 0.97782 2.05500
O 	O 	0.05726 0.69634 0.52128 -0.61100
O 	O 	0.04563 0.79675 0.51710 -0.57500
O 	O 	0.43164 0.82005 0.72916 -0.55500
O 	O 	0.41426 0.72248 0.74233 -0.57200
O 	O 	0.43697 0.85135 0.84550 -0.55800
O 	O 	0.43983 0.89110 0.78850 -0.56300
O 	O 	0.06573 0.22092 0.89022 -0.57000
O 	O 	0.06779 0.15767 0.93850 -0.59000
O 	O 	0.56424 0.84524 0.84565 -0.57900
O 	O 	0.56711 0.88394 0.78873 -0.57900
O 	O 	0.93853 0.22134 0.89870 -0.56400
O 	O 	0.94808 0.15976 0.94776 -0.56700
O 	O 	0.03855 0.11463 1.00505 -0.56400
O 	O 	0.49888 0.91278 0.72786 -0.53600
O 	O 	0.58984 0.95535 0.70321 -0.27700
O 	O 	0.48348 0.77331 0.79277 -1.03600
O 	O 	0.49318 0.79404 0.89980 -0.48400
N 	N 	0.33774 0.78750 0.01015 -0.21000
C 	C 	0.41899 0.88989 0.82129 0.43800
C 	C 	0.37209 0.93577 0.83120 -0.12100
C 	C 	0.36333 0.95277 0.86804 0.03400
H 	H 	0.39083 0.93310 0.88956 0.04900
C 	C 	0.31890 0.99501 0.87764 -0.06300
H 	H 	0.31340 0.00661 0.90645 0.05700
C 	C 	0.28143 0.02144 0.85069 0.02400
C 	C 	0.29197 0.00673 0.81351 -0.06700
H 	H 	0.26436 0.02649 0.79198 0.04800
C 	C 	0.33662 0.96421 0.80388 0.03600
H 	H 	0.34230 0.95261 0.77508 0.04200
C 	C 	0.08520 0.17304 0.90627 0.45000
C 	C 	0.19534 0.04336 0.89310 -0.06900
H 	H 	0.20571 0.00229 0.90788 0.05400
C 	C 	0.14759 0.07871 0.90563 0.03800
H 	H 	0.12335 0.06321 0.92950 0.05100
C 	C 	0.13189 0.13329 0.88836 -0.13000
C 	C 	0.16411 0.14960 0.85628 0.03700
H 	H 	0.15322 0.19082 0.84176 0.02700
C 	C 	0.21215 0.11324 0.84322 -0.07100
H 	H 	0.23696 0.12732 0.81896 0.04600
C 	C 	0.22923 0.06020 0.86217 0.02700
C 	C 	0.40038 0.77181 0.72586 0.44200
C 	C 	0.34588 0.77254 0.70142 -0.12600
C 	C 	0.30566 0.72343 0.70078 0.03500
H 	H 	0.31278 0.68496 0.71854 0.04000
C 	C 	0.25679 0.72197 0.67622 -0.06600
H 	H 	0.22731 0.68289 0.67660 0.04900
C 	C 	0.24712 0.76931 0.65095 0.02400
C 	C 	0.28610 0.81958 0.65246 -0.06800
H 	H 	0.28046 0.85679 0.63344 0.04900
C 	C 	0.33450 0.82136 0.67748 0.03500
H 	H 	0.36401 0.86030 0.67734 0.04300
C 	C 	0.19901 0.76463 0.62186 0.02700
C 	C 	0.16787 0.81609 0.60901 -0.07100
H 	H 	0.17547 0.85970 0.62173 0.04900
C 	C 	0.12620 0.81195 0.57979 0.03600
H 	H 	0.10271 0.85220 0.57100 0.03600
C 	C 	0.11477 0.75627 0.56249 -0.13700
C 	C 	0.14473 0.70469 0.57616 0.03600
H 	H 	0.13657 0.66061 0.56422 0.04400
C 	C 	0.18567 0.70867 0.60543 -0.07200
H 	H 	0.20776 0.66777 0.61454 0.06200
C 	C 	0.07008 0.74988 0.53162 0.44600
C 	C 	0.58656 0.88225 0.82199 0.43100
C 	C 	0.63618 0.92577 0.83414 -0.12000
C 	C 	0.65576 0.92679 0.87099 0.03000
H 	H 	0.63592 0.89593 0.89072 0.03800
C 	C 	0.70021 0.96763 0.88348 -0.06700
H 	H 	0.71075 0.96530 0.91241 0.04800
C 	C 	0.72898 0.00976 0.85981 0.02300
C 	C 	0.70879 0.00883 0.82248 -0.06300
H 	H 	0.72771 0.03932 0.80230 0.04700
C 	C 	0.66323 0.96811 0.81004 0.02400
H 	H 	0.64920 0.96994 0.78142 0.04400
C 	C 	0.77861 0.05336 0.87424 0.02200
C 	C 	0.80149 0.04933 0.91080 -0.06400
H 	H 	0.78598 0.01524 0.92974 0.04700
C 	C 	0.84624 0.08883 0.92452 0.02700
H 	H 	0.86120 0.08331 0.95276 0.03900
C 	C 	0.87184 0.13443 0.90251 -0.11400
C 	C 	0.85028 0.13900 0.86598 0.02700
H 	H 	0.86952 0.17249 0.84766 0.04100
C 	C 	0.80451 0.09989 0.85223 -0.06400
H 	H 	0.79010 0.10684 0.82412 0.04700
C 	C 	0.92225 0.17450 0.91727 0.42500
C 	C 	0.54446 0.93414 0.71556 0.39400
C 	C 	0.35786 0.72880 0.99636 -0.08000
C 	C 	0.92187 0.92197 0.49976 0.48800
C 	C 	0.07779 0.07743 -0.00036 0.48500
C 	C 	0.57760 0.42216 0.24969 0.48700
C 	C 	0.42197 0.57753 0.74979 0.49300
H 	H 	0.24068 0.49557 0.58826 0.16600
H 	H 	0.21704 0.66756 0.46440 0.08200
H 	H 	0.20513 0.70491 0.50476 0.08400
H 	H 	0.30781 0.64044 0.48433 0.04500
H 	H 	0.26956 0.59528 0.51858 0.05100
H 	H 	0.29091 0.67221 0.52885 0.04400
H 	H 	0.83449 0.50659 0.09418 0.18500
H 	H 	0.78836 0.29183 1.00150 0.08400
H 	H 	0.81823 0.36280 1.00070 0.09500
H 	H 	0.69765 0.32270 0.02020 0.04400
H 	H 	0.69898 0.38506 -0.01189 0.04800
H 	H 	0.73664 0.39166 0.03210 0.05900
H 	H 	0.03638 0.70181 0.34138 0.17000
H 	H 	0.84205 0.72112 0.21432 0.08400
H 	H 	0.79887 0.70813 0.25240 0.08400
H 	H 	0.88708 0.80311 0.23763 0.04700
H 	H 	0.89095 0.76951 0.28296 0.05700
H 	H 	0.82140 0.80370 0.26724 0.04400
H 	H 	1.04498 0.30481 0.84157 0.18300
H 	H 	0.20722 0.29241 0.75903 0.08400
H 	H 	0.13752 0.31685 0.74574 0.09200
H 	H 	0.17715 0.19689 0.77093 0.04400
H 	H 	0.11862 0.20054 0.73623 0.04700
H 	H 	0.10783 0.23712 0.78028 0.05200
H 	H 	0.33324 0.99393 0.15573 0.18500
H 	H 	0.31529 0.13504 0.26508 0.09300
H 	H 	0.27058 0.18500 0.28827 0.08200
H 	H 	0.22384 0.09334 0.25279 0.05200
H 	H 	0.23272 0.14416 0.21439 0.05200
H 	H 	0.18720 0.16629 0.25347 0.04500
H 	H 	0.74108 0.00446 0.66169 0.16700
H 	H 	0.67981 0.85097 0.74405 0.09300
H 	H 	0.71350 0.85105 0.78618 0.08500
H 	H 	0.76302 0.87986 0.71441 0.05200
H 	H 	0.80845 0.82713 0.74043 0.04300
H 	H 	0.78994 0.90000 0.75971 0.04700
H 	H 	0.54554 0.19580 0.40813 0.18300
H 	H 	0.63806 0.21286 0.53795 0.08600
H 	H 	0.70620 0.21984 0.51670 0.08100
H 	H 	0.58937 0.27822 0.49911 0.05100
H 	H 	0.64560 0.26715 0.46368 0.04700
H 	H 	0.66349 0.31161 0.50394 0.04400
H 	H 	0.53549 0.79806 0.90843 0.17100
H 	H 	0.30538 0.80577 -0.00759 0.08500
H 	H 	0.37437 0.81707 0.01179 0.09500
H 	H 	0.34745 0.72428 0.96655 0.05000
H 	H 	0.33445 0.69172 1.01124 0.04500
H 	H 	0.40735 0.72327 1.00045 0.05200
H 	H 	0.64980 0.17908 0.49638 0.09100
H 	H 	0.77796 0.33686 0.96394 0.08400
H 	H 	0.18069 0.27492 0.71633 0.08200
H 	H 	0.87224 0.68478 0.25142 0.09600
H 	H 	0.18149 0.63212 0.50002 0.09500
H 	H 	0.29864 0.20314 0.24593 0.08500
H 	H 	0.71976 0.78946 0.75833 0.08100
H 	H 	0.31863 0.78268 0.03632 0.08200
