data_crystal

_cell_length_a 29.75600
_cell_length_b 14.52840
_cell_length_c 29.73880
_cell_angle_alpha 90.00000
_cell_angle_beta  90.00000
_cell_angle_gamma 90.00000

_symmetry_space_group_name_	'P 1'
_symmetry_space_group_name_H-M	'P 1'

loop_
_symmetry_equiv_pos_as_xyz
  x,y,z

loop_
_atom_site_label
_atom_site_type_symbol
_atom_site_fract_x
_atom_site_fract_y
_atom_site_fract_z
_atom_site_charge
In	In	0.87423 0.13212 0.69376 2.03800
In	In	0.09532 0.12321 0.91191 2.05500
In	In	0.69420 0.87096 0.85213 2.03500
O 	O 	0.72173 -0.00480 0.83420 -0.45900
O 	O 	0.12819 0.91884 0.93378 -0.26800
O 	O 	0.08225 0.87590 0.65835 -0.26800
O 	O 	0.06605 1.00778 0.94251 -0.43700
O 	O 	0.14591 0.94648 0.68272 -0.45400
O 	O 	0.09670 0.03419 0.85965 -0.48000
O 	O 	0.84738 1.00718 0.71122 -0.47200
O 	O 	0.93169 0.06710 0.67840 -0.51200
O 	O 	0.82651 0.11678 0.41552 -0.52300
O 	O 	0.05686 0.15207 0.85814 -0.47200
O 	O 	0.75923 0.14563 0.40143 -0.53700
O 	O 	0.74034 0.82860 0.80939 -0.60400
O 	O 	0.92534 0.14893 0.73637 -0.52400
O 	O 	0.83458 0.17395 0.74291 -0.60500
O 	O 	0.95192 0.82688 0.04808 -0.54900
O 	O 	0.63861 0.14818 0.53710 -0.49800
O 	O 	0.68839 0.07582 0.89070 -0.28700
O 	O 	0.66091 0.09787 0.59803 -0.48600
O 	O 	0.82946 0.11612 0.64097 -0.46700
O 	O 	0.87814 0.12939 0.58252 -0.27400
O 	O 	0.87437 0.92703 0.65121 -0.27000
C 	C 	0.06977 0.08207 0.83648 0.33500
C 	C 	0.72058 0.12539 0.54298 -0.11700
C 	C 	0.76659 0.16755 0.80949 0.06700
H 	H 	0.77912 0.10292 0.79649 0.03700
C 	C 	0.08881 0.92243 0.94503 0.29100
C 	C 	0.80631 0.83497 0.74100 0.06700
H 	H 	0.79392 0.89961 0.75420 0.03700
C 	C 	0.75628 0.12202 0.57438 0.05200
H 	H 	0.74851 0.11985 0.60994 0.04200
C 	C 	0.73131 0.13056 0.49659 0.05700
H 	H 	0.70432 0.13328 0.47218 0.04200
C 	C 	0.80175 0.12330 0.56056 -0.10400
C 	C 	0.78777 0.13090 0.43193 0.34900
C 	C 	0.83737 0.83594 0.70527 -0.11400
C 	C 	0.01286 0.09033 0.77288 0.05100
H 	H 	0.99132 0.12971 0.79508 0.04800
C 	C 	0.71264 0.07717 0.85768 0.30900
C 	C 	0.85430 0.92539 0.68696 0.31300
C 	C 	0.77660 0.12949 0.48146 -0.11600
C 	C 	0.81126 0.12608 0.51390 0.05100
H 	H 	0.84591 0.12621 0.50270 0.04300
C 	C 	0.83919 0.12300 0.59479 0.32300
C 	C 	0.67253 0.12344 0.55937 0.36200
C 	C 	0.99731 0.06755 0.72921 -0.10900
C 	C 	0.06599 0.83439 0.96007 -0.09700
C 	C 	0.95071 0.09566 0.71407 0.33300
C 	C 	0.05512 0.05978 0.78900 -0.10500
C 	C 	0.09908 0.93179 0.68385 0.29900
C 	C 	0.02731 0.83329 0.98782 0.04900
H 	H 	0.01314 0.89815 0.99871 0.03900
C 	C 	0.06921 0.98661 0.71513 -0.09600
C 	C 	0.73204 0.16647 0.84183 -0.11300
C 	C 	0.08317 1.00895 0.75942 0.04700
H 	H 	0.11584 0.98615 0.77099 0.03400
C 	C 	0.02581 1.01500 0.70099 0.04700
H 	H 	0.01441 0.99722 0.66753 0.03700
N 	N 	0.78662 0.05238 0.17448 -0.20900
C 	C 	0.78022 -0.02409 0.20556 -0.08800
N 	N 	0.96410 0.98668 0.56661 -0.20800
C 	C 	0.98256 0.89938 0.58211 -0.08800
N 	N 	0.83599 0.94118 0.86243 -0.20800
C 	C 	0.86331 0.98291 0.82725 -0.09000
N 	N 	0.57709 0.05452 0.93030 -0.20900
C 	C 	0.59883 0.12636 0.95669 -0.08100
N 	N 	0.79100 0.11144 0.95822 -0.20700
C 	C 	0.76237 0.12471 -0.00255 -0.08600
N 	N 	0.03625 -0.00990 0.09137 -0.20800
C 	C 	0.02370 0.06054 0.12393 -0.08500
In	In	0.62406 0.86937 0.19375 2.03900
In	In	0.40305 0.87628 0.41170 2.05600
In	In	0.80421 0.13049 0.35193 2.03600
O 	O 	0.77700 1.00615 0.33346 -0.45600
O 	O 	0.37022 0.08066 0.43376 -0.26700
O 	O 	0.41590 0.12289 0.15749 -0.26500
O 	O 	0.43235 -0.00832 0.44232 -0.43600
O 	O 	0.35230 0.05419 0.18323 -0.45400
O 	O 	0.40158 0.96553 0.35955 -0.47800
O 	O 	0.65080 -0.00579 0.21150 -0.47200
O 	O 	0.56661 0.93424 0.17839 -0.50700
O 	O 	0.67196 0.88507 0.91569 -0.52500
O 	O 	0.44134 0.84751 0.35779 -0.47000
O 	O 	0.73916 0.85533 0.90161 -0.53600
O 	O 	0.75797 0.17302 0.30940 -0.60400
O 	O 	0.57305 0.85243 0.23640 -0.52200
O 	O 	0.66363 0.82718 0.24276 -0.60500
O 	O 	0.54645 0.17286 0.54804 -0.54500
O 	O 	0.85977 0.85276 0.03713 -0.49800
O 	O 	0.80670 0.92676 0.39230 -0.29000
O 	O 	0.83754 0.90192 0.09833 -0.48600
O 	O 	0.66888 0.88581 0.14103 -0.46600
O 	O 	0.62035 0.87183 0.08249 -0.27300
O 	O 	0.62379 0.07438 0.15153 -0.27300
C 	C 	0.42846 0.91773 0.33628 0.33400
C 	C 	0.77787 0.87583 0.04316 -0.11800
C 	C 	0.73149 0.83373 0.30912 0.06900
H 	H 	0.71904 0.89826 0.29597 0.03700
C 	C 	0.40963 0.07703 0.44488 0.29300
C 	C 	0.69187 0.16650 0.24122 0.06700
H 	H 	0.70429 0.10190 0.25444 0.03700
C 	C 	0.74219 0.87955 0.07455 0.05300
H 	H 	0.74994 0.88107 0.11012 0.04100
C 	C 	0.76716 0.87079 0.99676 0.05900
H 	H 	0.79414 0.86728 0.97237 0.04200
C 	C 	0.69673 0.87930 0.06068 -0.10500
C 	C 	0.71069 0.87085 0.93210 0.34900
C 	C 	0.66075 0.16544 0.20556 -0.11500
C 	C 	0.48548 0.91032 0.27280 0.04800
H 	H 	0.50704 0.87090 0.29497 0.05000
C 	C 	0.78451 0.92471 0.35792 0.31000
C 	C 	0.64386 0.07601 0.18726 0.31400
C 	C 	0.72190 0.87294 0.98161 -0.11700
C 	C 	0.68728 0.87770 0.01402 0.05200
H 	H 	0.65270 0.87958 0.00278 0.03900
C 	C 	0.65925 0.87901 0.09483 0.32300
C 	C 	0.82590 0.87711 0.05955 0.36200
C 	C 	0.50107 0.93352 0.22920 -0.10300
C 	C 	0.43253 0.16509 0.45984 -0.09600
C 	C 	0.54766 0.90563 0.21409 0.33300
C 	C 	0.44315 0.94047 0.28887 -0.10100
C 	C 	0.39916 0.06825 0.18369 0.29900
C 	C 	0.47108 0.16620 0.48779 0.05000
H 	H 	0.48507 0.10131 0.49895 0.04300
C 	C 	0.42913 0.01405 0.21508 -0.09400
C 	C 	0.76571 0.83516 0.34175 -0.11300
C 	C 	0.41509 -0.00867 0.25931 0.04300
H 	H 	0.38235 0.01375 0.27083 0.03400
C 	C 	0.47261 -0.01387 0.20100 0.04300
H 	H 	0.48407 0.00422 0.16756 0.04100
N 	N 	0.71185 0.94876 0.67502 -0.20900
C 	C 	0.71832 1.02573 0.70578 -0.08800
N 	N 	0.54810 0.03289 0.06501 -0.20900
C 	C 	0.52095 0.11158 0.07859 -0.08500
N 	N 	0.66343 0.05242 0.36528 -0.20800
C 	C 	0.63592 0.01678 0.32867 -0.09000
N 	N 	0.94581 0.93320 0.45003 -0.20600
C 	C 	0.90234 0.91278 0.42996 -0.08800
N 	N 	0.72207 0.87882 0.46756 -0.20700
C 	C 	0.75680 0.88741 0.50188 -0.08500
N 	N 	0.46978 0.95575 0.61629 -0.16800
C 	C 	0.49393 0.88691 0.64243 -0.09200
In	In	0.12449 0.63105 0.30719 2.03900
In	In	0.90327 0.62305 0.08851 2.05600
In	In	0.30449 0.37008 0.14865 2.03600
O 	O 	0.27697 0.49439 0.16657 -0.45800
O 	O 	0.87017 0.41873 0.06629 -0.26800
O 	O 	0.91591 0.37960 0.34384 -0.26300
O 	O 	0.93236 0.50754 0.05784 -0.43900
O 	O 	0.85230 0.44668 0.31715 -0.45400
O 	O 	0.90174 0.53363 0.14062 -0.47900
O 	O 	0.15157 0.50670 0.28933 -0.46900
O 	O 	0.06586 0.57071 0.32328 -0.50900
O 	O 	0.17168 0.61602 0.58482 -0.52300
O 	O 	0.94179 0.65119 0.14229 -0.47100
O 	O 	0.23892 0.64493 0.59906 -0.53600
O 	O 	0.25826 0.32781 0.19130 -0.60400
O 	O 	0.07474 0.64129 0.26241 -0.52400
O 	O 	0.16521 0.67409 0.25916 -0.60500
O 	O 	0.04684 0.32670 0.95270 -0.54800
O 	O 	0.35980 0.64593 0.46362 -0.49700
O 	O 	0.31180 0.57580 0.11128 -0.28500
O 	O 	0.33745 0.59808 0.40220 -0.48600
O 	O 	0.16770 0.60457 0.36034 -0.46300
O 	O 	0.12123 0.64364 0.41774 -0.27400
O 	O 	0.12028 0.42485 0.34659 -0.27300
C 	C 	0.92881 0.58111 0.16383 0.33400
C 	C 	0.27782 0.62390 0.45749 -0.11600
C 	C 	0.23265 0.66710 0.19191 0.06700
H 	H 	0.22020 0.60250 0.20500 0.03700
C 	C 	0.90959 0.42228 0.05522 0.29100
C 	C 	0.19112 0.33409 0.25853 0.06700
H 	H 	0.20318 0.39878 0.24506 0.03800
C 	C 	0.24214 0.62077 0.42608 0.05200
H 	H 	0.24983 0.61868 0.39050 0.04000
C 	C 	0.26708 0.62913 0.50390 0.05700
H 	H 	0.29405 0.63150 0.52833 0.04300
C 	C 	0.19671 0.62321 0.43991 -0.10500
C 	C 	0.21047 0.63014 0.56850 0.34800
C 	C 	0.15975 0.33493 0.29399 -0.11500
C 	C 	0.98610 0.58780 0.22708 0.04800
H 	H 	0.00782 0.62638 0.20472 0.05000
C 	C 	0.28679 0.57678 0.14374 0.30800
C 	C 	0.14243 0.42408 0.31210 0.31400
C 	C 	0.22177 0.62877 0.51901 -0.11700
C 	C 	0.18716 0.62633 0.48654 0.05000
H 	H 	0.15249 0.62729 0.49769 0.04000
C 	C 	0.15928 0.62476 0.40583 0.31700
C 	C 	0.32587 0.62223 0.44110 0.36200
C 	C 	0.00155 0.56552 0.27085 -0.10600
C 	C 	0.93248 0.33420 0.04028 -0.10000
C 	C 	0.04812 0.59357 0.28606 0.33800
C 	C 	0.94357 0.55832 0.21122 -0.10300
C 	C 	0.89920 0.43303 0.31703 0.29800
C 	C 	0.97131 0.33308 0.01275 0.04800
H 	H 	0.98555 0.39790 0.00192 0.03800
C 	C 	0.92928 0.48638 0.28534 -0.09500
C 	C 	0.26722 0.66601 0.15956 -0.11200
C 	C 	0.91530 0.50855 0.24102 0.04400
H 	H 	0.88244 0.48658 0.22961 0.03400
C 	C 	0.97286 0.51398 0.29927 0.04500
H 	H 	0.98432 0.49605 0.33269 0.04100
N 	N 	0.21244 0.54929 0.82431 -0.20900
C 	C 	0.21846 0.47088 0.79434 -0.08900
N 	N 	0.07200 0.46155 0.44815 -0.20900
C 	C 	0.05821 0.36546 0.44582 -0.08300
N 	N 	0.16412 0.45981 0.13793 -0.20800
C 	C 	0.13367 0.48830 0.17368 -0.09000
N 	N 	0.46019 0.55599 0.06511 -0.20600
C 	C 	0.41523 0.51713 0.06116 -0.09000
N 	N 	0.21167 0.59701 0.04068 -0.20800
C 	C 	0.23596 0.62695 1.00073 -0.08400
N 	N 	0.95842 0.48711 0.91434 -0.20800
C 	C 	0.97119 0.55360 0.87995 -0.08600
In	In	0.37402 0.36886 0.80716 2.03900
In	In	0.59499 0.37703 0.58843 2.05600
In	In	0.19385 0.62970 0.64848 2.03600
O 	O 	0.22127 0.50560 0.66701 -0.45700
O 	O 	0.62796 0.58147 0.56649 -0.26800
O 	O 	0.58218 0.62370 0.84281 -0.26500
O 	O 	0.56583 0.49252 0.55780 -0.43800
O 	O 	0.64576 0.55508 0.81695 -0.45400
O 	O 	0.59649 0.46669 0.64042 -0.47900
O 	O 	0.34656 0.49274 0.78889 -0.46900
O 	O 	0.43256 0.42972 0.82315 -0.50700
O 	O 	0.32667 0.38345 0.08504 -0.52500
O 	O 	0.55651 0.34901 0.64226 -0.47100
O 	O 	0.25943 0.35434 0.09921 -0.53600
O 	O 	0.24021 0.67220 0.69085 -0.60400
O 	O 	0.42385 0.35867 0.76242 -0.52300
O 	O 	0.33326 0.32552 0.75920 -0.60500
O 	O 	0.45164 0.67318 0.45265 -0.54800
O 	O 	0.13885 0.35326 0.96359 -0.49700
O 	O 	0.18851 0.42489 0.61026 -0.29000
O 	O 	0.16115 0.40158 0.90226 -0.48500
O 	O 	0.33126 0.39566 0.86065 -0.46200
O 	O 	0.37768 0.35570 0.91806 -0.26300
O 	O 	0.37777 0.57493 0.84604 -0.27500
C 	C 	0.56949 0.41923 0.66370 0.33500
C 	C 	0.22084 0.37530 0.95751 -0.11500
C 	C 	0.26593 0.33267 0.69204 0.06800
H 	H 	0.27837 0.39717 0.70525 0.03700
C 	C 	0.58856 0.57789 0.55536 0.29200
C 	C 	0.30709 0.66579 0.75807 0.06800
H 	H 	0.29463 0.60117 0.74491 0.03700
C 	C 	0.25662 0.37867 0.92617 0.05100
H 	H 	0.24898 0.38095 0.89059 0.04000
C 	C 	0.23150 0.36985 0.00393 0.05600
H 	H 	0.20449 0.36729 0.02831 0.04200
C 	C 	0.30205 0.37621 0.94010 -0.10300
C 	C 	0.28794 0.36912 0.06867 0.34700
C 	C 	0.33858 0.66475 0.79337 -0.11500
C 	C 	0.51239 0.41234 0.72708 0.05000
H 	H 	0.49082 0.37301 0.70488 0.05000
C 	C 	0.21234 0.42351 0.64357 0.30900
C 	C 	0.35571 0.57555 0.81153 0.31400
C 	C 	0.27677 0.37046 0.01914 -0.11700
C 	C 	0.31146 0.37308 0.98675 0.05200
H 	H 	0.34611 0.37221 0.99798 0.04100
C 	C 	0.33963 0.37479 0.90611 0.31200
C 	C 	0.17278 0.37710 0.94111 0.36100
C 	C 	0.49685 0.43526 0.77071 -0.10700
C 	C 	0.56562 0.66596 0.54054 -0.09800
C 	C 	0.45036 0.40683 0.78597 0.33900
C 	C 	0.55478 0.44225 0.71107 -0.10400
C 	C 	0.59890 0.56939 0.81643 0.29900
C 	C 	0.52698 0.66706 0.51277 0.04900
H 	H 	0.51293 0.60221 0.50173 0.03800
C 	C 	0.56888 0.51552 0.78491 -0.09500
C 	C 	0.23149 0.33408 0.65959 -0.11300
C 	C 	0.58293 0.49279 0.74068 0.04500
H 	H 	0.61573 0.51497 0.72921 0.03400
C 	C 	0.52532 0.48788 0.79889 0.04600
H 	H 	0.51371 0.50660 0.83214 0.04000
N 	N 	0.28582 0.44860 0.32508 -0.20900
C 	C 	0.28006 0.52593 0.29439 -0.08900
N 	N 	0.42761 0.54631 0.93785 -0.21100
C 	C 	0.44067 0.64249 0.94265 -0.08200
N 	N 	0.33422 0.54355 0.63557 -0.20800
C 	C 	0.36326 0.51283 0.67205 -0.09000
N 	N 	0.04813 0.47864 0.56697 -0.17200
C 	C 	0.08650 0.41818 0.57383 -0.09300
N 	N 	0.27332 0.37866 0.53371 -0.20700
C 	C 	0.23767 0.38625 0.50028 -0.08500
N 	N 	0.53821 0.51063 0.41245 -0.20800
C 	C 	0.52584 0.44306 0.37841 -0.08500
In	In	0.12423 0.86994 0.30638 2.04000
In	In	0.90330 0.87472 0.08875 2.05600
In	In	0.30436 0.13118 0.14844 2.03600
O 	O 	0.27644 1.00728 0.16643 -0.45700
O 	O 	0.87027 0.07894 0.06641 -0.26900
O 	O 	0.91583 0.12175 0.34298 -0.26500
O 	O 	0.93256 -0.00977 0.05819 -0.43800
O 	O 	0.85218 0.05294 0.31745 -0.45400
O 	O 	0.90175 0.96439 0.14075 -0.47800
O 	O 	0.15062 -0.00534 0.28828 -0.47200
O 	O 	0.06668 0.93425 0.32189 -0.50900
O 	O 	0.17162 0.88160 0.58465 -0.52700
O 	O 	0.94157 0.84650 0.14271 -0.47100
O 	O 	0.23892 0.85348 0.59869 -0.53600
O 	O 	0.25789 0.17361 0.19083 -0.60300
O 	O 	0.07300 0.85155 0.26416 -0.52500
O 	O 	0.16370 0.82840 0.25725 -0.60500
O 	O 	0.04681 0.17074 0.95274 -0.54900
O 	O 	0.35943 0.85232 0.46302 -0.49800
O 	O 	0.31232 0.92567 0.11196 -0.28800
O 	O 	0.33736 0.90482 0.40242 -0.48600
O 	O 	0.16903 0.88685 0.35908 -0.46600
O 	O 	0.12012 0.87754 0.41749 -0.27500
O 	O 	0.12395 0.07439 0.34855 -0.27300
C 	C 	0.92860 0.91675 0.16413 0.33400
C 	C 	0.27759 0.87617 0.45721 -0.11600
C 	C 	0.23259 0.83433 0.19186 0.06700
H 	H 	0.22020 0.89893 0.20497 0.03800
C 	C 	0.90971 0.07543 0.05542 0.29200
C 	C 	0.19191 0.16695 0.25905 0.06700
H 	H 	0.20483 0.10246 0.24621 0.03700
C 	C 	0.24196 0.88084 0.42582 0.05300
H 	H 	0.24978 0.88415 0.39029 0.04100
C 	C 	0.26682 0.86941 0.50354 0.05800
H 	H 	0.29379 0.86560 0.52793 0.04200
C 	C 	0.19648 0.87942 0.43957 -0.10500
C 	C 	0.21036 0.86807 0.56819 0.34900
C 	C 	0.16046 0.16569 0.29439 -0.11500
C 	C 	0.98548 0.90945 0.22769 0.04600
H 	H 	0.00712 0.87024 0.20550 0.05000
C 	C 	0.28677 0.92476 0.14395 0.31000
C 	C 	0.14378 0.07624 0.31269 0.31400
C 	C 	0.22153 0.87042 0.51865 -0.11800
C 	C 	0.18691 0.87507 0.48619 0.05300
H 	H 	0.15225 0.87450 0.49733 0.04000
C 	C 	0.15915 0.88128 0.40527 0.32400
C 	C 	0.32564 0.87813 0.44088 0.36200
C 	C 	0.00098 0.93249 0.27132 -0.10300
C 	C 	0.93256 0.16351 0.04042 -0.09900
C 	C 	0.04762 0.90494 0.28640 0.33200
C 	C 	0.94316 0.93956 0.21157 -0.10100
C 	C 	0.89904 0.06711 0.31682 0.29700
C 	C 	0.97141 0.16457 0.01291 0.04900
H 	H 	0.98570 0.09969 0.00223 0.03800
C 	C 	0.92898 0.01283 0.28542 -0.09400
C 	C 	0.26719 0.83548 0.15960 -0.11200
C 	C 	0.91502 -0.00973 0.24113 0.04200
H 	H 	0.88230 0.01270 0.22955 0.03500
C 	C 	0.97244 -0.01514 0.29954 0.04200
H 	H 	0.98386 0.00286 0.33301 0.03900
N 	N 	0.21287 0.95016 0.82286 -0.20900
C 	C 	0.21890 1.02943 0.79343 -0.08900
N 	N 	0.04940 0.05143 0.43367 -0.20900
C 	C 	0.02288 0.13076 0.41972 -0.08600
N 	N 	0.16221 0.06872 0.13575 -0.20800
C 	C 	0.13790 0.01735 0.17010 -0.09000
N 	N 	0.44498 0.91507 0.03603 -0.20400
C 	C 	0.40557 0.93500 0.06337 -0.09400
N 	N 	0.19224 0.88467 0.04281 -0.20700
C 	C 	0.23841 0.87656 1.02696 -0.08700
N 	N 	0.96093 1.01070 0.91187 -0.20800
C 	C 	0.97298 0.94359 0.87749 -0.08500
In	In	0.37432 0.12973 0.80636 2.03900
In	In	0.59513 0.12553 0.58873 2.05600
In	In	0.19393 0.86879 0.64824 2.03600
O 	O 	0.22157 -0.00697 0.66613 -0.45900
O 	O 	0.62781 0.92114 0.56669 -0.26800
O 	O 	0.58296 0.87573 0.84132 -0.26800
O 	O 	0.56553 1.00993 0.55857 -0.43500
O 	O 	0.64625 0.94881 0.81785 -0.45400
O 	O 	0.59700 0.03646 0.64086 -0.48000
O 	O 	0.34786 1.00523 0.78803 -0.47100
O 	O 	0.43191 0.06550 0.82179 -0.50200
O 	O 	0.32681 0.11633 0.08491 -0.52200
O 	O 	0.55690 0.15407 0.64262 -0.47000
O 	O 	0.25972 0.14742 0.09870 -0.53600
O 	O 	0.24040 0.82641 0.69056 -0.60300
O 	O 	0.42554 0.14850 0.76417 -0.52500
O 	O 	0.33481 0.17120 0.75724 -0.60500
O 	O 	0.45159 0.82908 0.45254 -0.54700
O 	O 	0.13902 0.14662 0.96325 -0.49900
O 	O 	0.18629 0.07486 0.61127 -0.28800
O 	O 	0.16103 0.09466 0.90254 -0.48600
O 	O 	0.32962 0.11228 0.85915 -0.46500
O 	O 	0.37841 0.12412 0.91755 -0.26900
O 	O 	0.37510 0.92475 0.84779 -0.26900
C 	C 	0.57004 0.08406 0.66413 0.33400
C 	C 	0.22090 0.12265 0.95737 -0.11500
C 	C 	0.26615 0.16537 0.69142 0.06700
H 	H 	0.27885 0.10056 0.70410 0.03800
C 	C 	0.58834 0.92469 0.55575 0.29100
C 	C 	0.30717 0.83300 0.75802 0.06700
H 	H 	0.29487 0.89766 0.74470 0.03800
C 	C 	0.25654 0.11836 0.92593 0.05300
H 	H 	0.24870 0.11528 0.89041 0.04100
C 	C 	0.23172 0.12914 0.00370 0.05700
H 	H 	0.20478 0.13252 0.02814 0.04200
C 	C 	0.30204 0.12005 0.93965 -0.10300
C 	C 	0.28821 0.13123 0.06832 0.34700
C 	C 	0.33842 0.83402 0.79354 -0.11500
C 	C 	0.51308 0.09098 0.72759 0.04900
H 	H 	0.49144 0.13028 0.70546 0.05000
C 	C 	0.21163 0.07555 0.64348 0.30900
C 	C 	0.35508 0.92331 0.81202 0.31300
C 	C 	0.27704 0.12869 0.01877 -0.11700
C 	C 	0.31164 0.12424 0.98629 0.05300
H 	H 	0.34631 0.12480 0.99742 0.04200
C 	C 	0.33941 0.11884 0.90534 0.32200
C 	C 	0.17281 0.12092 0.94105 0.36100
C 	C 	0.49758 0.06762 0.77118 -0.10500
C 	C 	0.56546 0.83667 0.54076 -0.09800
C 	C 	0.45094 0.09502 0.78632 0.33100
C 	C 	0.55546 0.06120 0.71150 -0.10500
C 	C 	0.59958 0.93272 0.81629 0.29900
C 	C 	0.52673 0.83559 0.51309 0.04900
H 	H 	0.51235 0.90050 0.50249 0.04100
C 	C 	0.56962 0.98738 0.78513 -0.09600
C 	C 	0.23140 0.16462 0.65926 -0.11200
C 	C 	0.58360 1.01037 0.74094 0.04500
H 	H 	0.61635 0.98809 0.72935 0.03400
C 	C 	0.52616 1.01510 0.79929 0.04400
H 	H 	0.51480 0.99686 0.83271 0.04400
N 	N 	0.28616 0.04945 0.32378 -0.20900
C 	C 	0.27981 -0.02934 0.29411 -0.08800
N 	N 	0.46175 0.96974 0.91365 -0.15400
C 	C 	0.48099 0.87793 0.91001 -0.09400
N 	N 	0.34009 0.92925 0.64104 -0.20800
C 	C 	0.36828 0.98516 0.67035 -0.08800
N 	N 	0.07431 0.11839 0.55769 -0.17000
C 	C 	0.09492 0.02836 0.55176 -0.09200
N 	N 	0.29242 0.08383 0.54949 -0.20800
C 	C 	0.26466 0.12571 0.51470 -0.08500
N 	N 	0.53541 -0.01006 0.40881 -0.20800
C 	C 	0.52377 0.05914 0.37529 -0.08500
In	In	0.87396 0.37040 0.69383 2.03900
In	In	0.09529 0.37480 0.91193 2.05600
In	In	0.69390 0.63165 0.85175 2.03600
O 	O 	0.72097 0.50706 0.83353 -0.45700
O 	O 	0.12830 0.57916 0.93398 -0.26800
O 	O 	0.08226 0.62534 0.65922 -0.26400
O 	O 	0.06609 0.49032 0.94251 -0.43600
O 	O 	0.14561 0.55237 0.68273 -0.45400
O 	O 	0.09671 0.46440 0.85993 -0.47900
O 	O 	0.84730 0.49533 0.71164 -0.47100
O 	O 	0.93137 0.43579 0.67888 -0.51400
O 	O 	0.82651 0.38389 0.41553 -0.52100
O 	O 	0.05661 0.34692 0.85819 -0.47100
O 	O 	0.75929 0.35417 0.40146 -0.53700
O 	O 	0.74015 0.67436 0.80919 -0.60400
O 	O 	0.92494 0.35273 0.73646 -0.52400
O 	O 	0.83425 0.32847 0.74276 -0.60500
O 	O 	0.95191 0.67089 0.04791 -0.54800
O 	O 	0.63850 0.35440 0.53686 -0.49900
O 	O 	0.68799 0.42657 0.89030 -0.28500
O 	O 	0.66077 0.40423 0.59793 -0.48600
O 	O 	0.82918 0.38668 0.64106 -0.46700
O 	O 	0.87785 0.37249 0.58271 -0.27600
O 	O 	0.87334 0.57496 0.65110 -0.27500
C 	C 	0.06961 0.41705 0.83670 0.33500
C 	C 	0.72045 0.37675 0.54292 -0.11600
C 	C 	0.76629 0.33476 0.80919 0.06700
H 	H 	0.77852 0.39935 0.79592 0.03700
C 	C 	0.08888 0.57562 0.94510 0.29300
C 	C 	0.80634 0.66781 0.74123 0.06700
H 	H 	0.79403 0.60326 0.75463 0.03700
C 	C 	0.75608 0.38064 0.57436 0.05300
H 	H 	0.74827 0.38340 0.60990 0.04200
C 	C 	0.73125 0.37056 0.49658 0.05700
H 	H 	0.70429 0.36720 0.47215 0.04200
C 	C 	0.80157 0.37897 0.56062 -0.10400
C 	C 	0.78779 0.36952 0.43195 0.34700
C 	C 	0.83728 0.66653 0.70544 -0.11500
C 	C 	0.01254 0.41020 0.77319 0.05100
H 	H 	0.99095 0.37062 0.79526 0.04800
C 	C 	0.71215 0.42517 0.85721 0.30800
C 	C 	0.85389 0.57695 0.68714 0.31500
C 	C 	0.77657 0.37160 0.48149 -0.11500
C 	C 	0.81116 0.37560 0.51398 0.05300
H 	H 	0.84583 0.37524 0.50284 0.04300
C 	C 	0.83891 0.37931 0.59491 0.32300
C 	C 	0.67239 0.37884 0.55924 0.36200
C 	C 	0.99693 0.43398 0.72967 -0.10900
C 	C 	0.06602 0.66366 0.96009 -0.09700
C 	C 	0.95032 0.40643 0.71443 0.33400
C 	C 	0.05491 0.44007 0.78931 -0.10400
C 	C 	0.09893 0.56859 0.68437 0.29800
C 	C 	0.02732 0.66474 0.98780 0.04900
H 	H 	0.01315 0.59984 0.99865 0.03900
C 	C 	0.06898 0.51415 0.71567 -0.09700
C 	C 	0.73177 0.33588 0.84157 -0.11200
C 	C 	0.08306 0.49087 0.75981 0.04500
H 	H 	0.11586 0.51295 0.77135 0.03400
C 	C 	0.02540 0.48691 0.70164 0.04600
H 	H 	0.01384 0.50597 0.66839 0.03700
N 	N 	0.78593 0.45062 0.17594 -0.20900
C 	C 	0.77993 0.52833 0.20635 -0.08800
N 	N 	0.93604 0.55347 0.56499 -0.21000
C 	C 	0.95009 0.64954 0.56427 -0.08200
N 	N 	0.83486 0.55657 0.86280 -0.20800
C 	C 	0.86250 0.51293 0.82843 -0.09000
N 	N 	0.53955 0.47078 0.93964 -0.20700
C 	C 	0.58428 0.43368 0.93142 -0.08700
N 	N 	0.83351 0.37550 0.95162 -0.20700
C 	C 	0.78617 0.39218 -0.03880 -0.08700
N 	N 	0.03382 0.50204 0.09380 -0.20900
C 	C 	0.02109 0.42905 0.12494 -0.08500
In	In	0.62422 0.63077 0.19352 2.03900
In	In	0.40327 0.62478 0.41187 2.05600
In	In	0.80426 0.36984 0.35196 2.03500
O 	O 	0.77679 0.49432 0.33407 -0.45800
O 	O 	0.37035 0.42031 0.43350 -0.26700
O 	O 	0.41616 0.37482 0.15902 -0.26300
O 	O 	0.43247 0.50920 0.44236 -0.43700
O 	O 	0.35278 0.44696 0.18308 -0.45400
O 	O 	0.40181 0.53518 0.35991 -0.47900
O 	O 	0.65119 0.50615 0.21132 -0.47100
O 	O 	0.56679 0.56545 0.17853 -0.50900
O 	O 	0.67171 0.61765 0.91534 -0.52300
O 	O 	0.44203 0.65257 0.35822 -0.47100
O 	O 	0.73903 0.64615 0.90116 -0.53600
O 	O 	0.75803 0.32726 0.30933 -0.60300
O 	O 	0.57334 0.64786 0.23633 -0.52300
O 	O 	0.66410 0.67265 0.24235 -0.60500
O 	O 	0.54646 0.32881 0.54779 -0.54800
O 	O 	0.85984 0.64594 0.03690 -0.49900
O 	O 	0.81038 0.57540 0.39027 -0.28600
O 	O 	0.83744 0.59580 0.09786 -0.48600
O 	O 	0.66864 0.61391 0.14050 -0.46600
O 	O 	0.62062 0.63746 0.08227 -0.27300
O 	O 	0.62429 0.42582 0.15140 -0.27500
C 	C 	0.42896 0.58248 0.33672 0.33500
C 	C 	0.77785 0.62361 0.04272 -0.11600
C 	C 	0.73179 0.66650 0.30918 0.06700
H 	H 	0.71951 0.60180 0.29604 0.03700
C 	C 	0.40971 0.42387 0.44477 0.29300
C 	C 	0.69196 0.33365 0.24121 0.06700
H 	H 	0.70443 0.39822 0.25442 0.03700
C 	C 	0.74215 0.62105 0.07412 0.05400
H 	H 	0.74989 0.61906 0.10969 0.04100
C 	C 	0.76714 0.62916 0.99632 0.05800
H 	H 	0.79413 0.63165 0.97191 0.04200
C 	C 	0.69669 0.62349 0.06030 -0.10400
C 	C 	0.71053 0.63121 0.93170 0.34700
C 	C 	0.66089 0.33479 0.20555 -0.11600
C 	C 	0.48591 0.58967 0.27318 0.04900
H 	H 	0.50747 0.62939 0.29523 0.05000
C 	C 	0.78591 0.57649 0.35742 0.30800
C 	C 	0.64420 0.42424 0.18719 0.31500
C 	C 	0.72182 0.62897 0.98120 -0.11500
C 	C 	0.68720 0.62598 0.01366 0.05300
H 	H 	0.65257 0.62611 0.00248 0.03800
C 	C 	0.65926 0.62517 0.09446 0.32100
C 	C 	0.82589 0.62137 0.05916 0.36200
C 	C 	0.50145 0.56612 0.22962 -0.10500
C 	C 	0.43254 0.33580 0.45976 -0.09700
C 	C 	0.54795 0.59423 0.21426 0.33400
C 	C 	0.44362 0.55949 0.28936 -0.10300
C 	C 	0.39950 0.43104 0.18447 0.29800
C 	C 	0.47113 0.33477 0.48761 0.04900
H 	H 	0.48523 0.39967 0.49853 0.03900
C 	C 	0.42950 0.48540 0.21576 -0.09500
C 	C 	0.76621 0.66568 0.34169 -0.11200
C 	C 	0.41550 0.50852 0.25993 0.04500
H 	H 	0.38275 0.48627 0.27153 0.03400
C 	C 	0.47302 0.51296 0.20166 0.04600
H 	H 	0.48457 0.49397 0.16843 0.04000
N 	N 	0.71204 0.55175 0.67602 -0.20900
C 	C 	0.71818 0.47372 0.70622 -0.08900
N 	N 	0.57270 0.45335 0.06006 -0.21000
C 	C 	0.55404 0.36078 0.05775 -0.08200
N 	N 	0.66096 0.43398 0.36025 -0.20800
C 	C 	0.63438 0.48096 0.32610 -0.09000
N 	N 	0.95860 0.53277 0.44324 -0.20600
C 	C 	0.91359 0.56776 0.43435 -0.08800
N 	N 	0.70346 0.58514 0.45441 -0.20800
C 	C 	0.72974 0.62707 0.49032 -0.08500
N 	N 	0.46342 0.49372 0.59159 -0.20900
C 	C 	0.47502 0.56414 0.62452 -0.08500
O 	O 	0.10901 0.24901 0.88779 -0.62500
O 	O 	0.88282 0.25138 0.66061 -0.69400
C 	C 	0.82030 0.25118 0.75785 0.46700
C 	C 	0.78462 0.25116 0.79334 -0.15900
C 	C 	0.71543 0.25118 0.85815 0.05000
H 	H 	0.68867 0.25117 0.88286 0.03900
N 	N 	0.89541 0.24991 0.22551 -0.21200
C 	C 	0.84645 0.25089 0.22526 -0.07500
O 	O 	0.38947 0.75041 0.38762 -0.62500
O 	O 	0.61533 0.75023 0.16058 -0.68800
C 	C 	0.67797 0.74990 0.25756 0.46800
C 	C 	0.71357 0.75000 0.29308 -0.15900
C 	C 	0.78233 0.75059 0.35828 0.05000
H 	H 	0.80890 0.75092 0.38319 0.03800
N 	N 	0.60047 0.75250 0.72350 -0.21200
C 	C 	0.64942 0.75190 0.72504 -0.07500
O 	O 	0.88967 0.74880 0.11276 -0.62500
O 	O 	0.11653 0.75109 0.33974 -0.69700
C 	C 	0.17867 0.75106 0.24327 0.46800
C 	C 	0.21445 0.75074 0.20788 -0.15900
C 	C 	0.28372 0.75078 0.14319 0.05100
H 	H 	0.31051 0.75082 0.11851 0.04000
N 	N 	0.10274 0.74923 0.77632 -0.21300
C 	C 	0.15169 0.74923 0.77506 -0.07400
O 	O 	0.60869 0.25144 0.61274 -0.62500
O 	O 	0.38184 0.24869 0.83965 -0.69300
C 	C 	0.31986 0.24852 0.74327 0.46800
C 	C 	0.28413 0.24888 0.70781 -0.15800
C 	C 	0.21490 0.24952 0.64307 0.05000
H 	H 	0.18811 0.24981 0.61839 0.03800
N 	N 	0.39559 0.24939 0.27696 -0.21300
C 	C 	0.34665 0.25002 0.27534 -0.07400
O 	O 	0.66163 0.75155 0.83821 -0.69100
C 	C 	0.85228 0.75114 0.68746 0.05400
C 	C 	0.00776 0.74900 1.00276 -0.13000
C 	C 	0.79015 0.75146 0.75902 -0.16500
C 	C 	0.75507 0.75149 0.79499 0.46800
C 	C 	0.96797 0.74892 0.03483 0.43700
C 	C 	0.08474 0.74904 0.94705 0.03600
H 	H 	0.11431 0.74905 0.92578 0.04600
N 	N 	0.53628 0.73092 0.02304 -0.20700
C 	C 	0.56401 0.76868 -0.01287 -0.08400
O 	O 	0.83664 0.25013 0.33809 -0.69000
C 	C 	0.64579 0.25015 0.18773 0.05400
C 	C 	0.49064 0.25056 0.50264 -0.13100
C 	C 	0.70809 0.25007 0.25912 -0.16600
C 	C 	0.74316 0.25012 0.29508 0.46900
C 	C 	0.53039 0.25075 0.53474 0.43900
C 	C 	0.41390 0.25044 0.44662 0.03700
H 	H 	0.38444 0.25041 0.42518 0.04600
N 	N 	0.97864 0.26606 0.59611 -0.20800
C 	C 	0.97317 0.26323 0.54740 -0.08300
O 	O 	0.33679 0.25052 0.16252 -0.69100
C 	C 	0.14492 0.25019 0.31187 0.05400
C 	C 	0.99095 0.24880 -0.00207 -0.13400
C 	C 	0.20786 0.25059 0.24103 -0.16500
C 	C 	0.24316 0.25070 0.20528 0.46900
C 	C 	0.03078 0.24874 0.96591 0.43900
C 	C 	0.91370 0.24886 0.05326 0.03600
H 	H 	0.88400 0.24889 0.07435 0.04600
N 	N 	0.47756 0.25513 0.91823 -0.16000
C 	C 	0.46921 0.23137 0.96507 -0.08600
O 	O 	0.16161 0.74935 0.66253 -0.69100
C 	C 	0.35366 0.74941 0.81114 0.05400
C 	C 	0.50733 0.75131 0.49797 -0.13200
C 	C 	0.29073 0.74939 0.74037 -0.16600
C 	C 	0.25528 0.74934 0.70483 0.47000
C 	C 	0.46763 0.75120 0.46582 0.43900
C 	C 	0.58425 0.75131 0.55372 0.03600
H 	H 	0.61381 0.75129 0.57502 0.04500
N 	N 	0.02372 0.74388 0.42844 -0.20800
C 	C 	0.04034 0.76491 0.47342 -0.08100
H 	H 	0.77274 0.03564 0.14325 0.10100
H 	H 	0.82098 0.06531 0.17072 0.10300
H 	H 	0.79814 -0.08607 0.19299 0.06600
H 	H 	0.74386 -0.04027 0.20874 0.06100
H 	H 	0.79364 -0.00569 0.23925 0.06300
H 	H 	0.98311 1.01092 0.53953 0.07400
H 	H 	0.96521 1.03461 0.59278 0.10000
H 	H 	0.98106 0.84762 0.55468 0.04000
H 	H 	0.96297 0.87368 0.61135 0.06600
H 	H 	1.01814 0.90858 0.59239 0.05800
H 	H 	0.82184 0.88014 0.85038 0.09700
H 	H 	0.81043 0.98676 0.87164 0.09000
H 	H 	0.84184 1.00176 0.79828 0.06500
H 	H 	0.88936 0.93352 0.81566 0.04900
H 	H 	0.87983 1.04624 0.84007 0.04900
H 	H 	0.55141 0.08345 0.91092 0.08200
H 	H 	0.56364 0.00502 0.95194 0.07800
H 	H 	0.61319 0.17954 0.93400 0.05300
H 	H 	0.62629 0.09621 0.97731 0.05400
H 	H 	0.57396 0.15949 0.97938 0.03600
H 	H 	0.78725 0.04416 0.94639 0.08600
H 	H 	0.82453 0.12277 0.96717 0.08400
H 	H 	0.77280 0.07730 0.02484 0.06100
H 	H 	0.72677 0.11041 -0.01145 0.05600
H 	H 	0.76525 0.19673 0.00969 0.05000
H 	H 	0.01692 -0.06893 0.09675 0.09000
H 	H 	0.07025 -0.02612 0.09511 0.07900
H 	H 	-0.01223 0.07926 0.11975 0.05700
H 	H 	0.04461 0.12309 0.11894 0.04600
H 	H 	0.02881 0.03433 0.15864 0.04700
H 	H 	0.72615 0.96457 0.64385 0.10100
H 	H 	0.67748 0.93643 0.67095 0.10300
H 	H 	0.75471 1.04141 0.70915 0.06200
H 	H 	0.70459 1.00820 0.73946 0.06300
H 	H 	0.70072 1.08775 0.69279 0.06700
H 	H 	0.54468 -0.01957 0.08881 0.10400
H 	H 	0.58180 0.05271 0.06280 0.09800
H 	H 	0.48522 0.09070 0.08214 0.05400
H 	H 	0.52331 0.16675 0.05287 0.04000
H 	H 	0.53308 0.13876 0.11136 0.06500
H 	H 	0.68749 0.00330 0.37425 0.08800
H 	H 	0.64302 0.06694 0.39299 0.08400
H 	H 	0.65742 0.00002 0.29940 0.06400
H 	H 	0.61081 0.06918 0.31824 0.04800
H 	H 	0.61824 -0.04682 0.33948 0.05000
H 	H 	0.95180 0.88734 0.47642 0.07200
H 	H 	0.94564 1.00061 0.46231 0.08000
H 	H 	0.87538 0.92057 0.45555 0.06200
H 	H 	0.90197 0.84107 0.41695 0.05100
H 	H 	0.89578 0.96094 0.40171 0.06900
H 	H 	0.73311 0.83411 0.44232 0.08600
H 	H 	0.71547 0.94351 0.45365 0.08700
H 	H 	0.78744 0.91922 0.48722 0.06000
H 	H 	0.76560 0.81853 0.51544 0.04700
H 	H 	0.74452 0.93113 0.52994 0.05800
H 	H 	0.47801 0.94623 0.58245 0.09300
H 	H 	0.48198 1.02053 0.62551 0.08600
H 	H 	0.48290 0.81695 0.63220 0.05100
H 	H 	0.48662 0.89654 0.67874 0.05200
H 	H 	0.53071 0.89338 0.63687 0.05800
H 	H 	0.17812 0.56137 0.82902 0.10300
H 	H 	0.22738 0.60753 0.81009 0.08500
H 	H 	0.20344 0.48609 0.76095 0.06300
H 	H 	0.20184 0.40903 0.80872 0.06600
H 	H 	0.25483 0.45622 0.78992 0.06300
H 	H 	0.10630 0.46506 0.45558 0.09500
H 	H 	0.05373 0.49512 0.47328 0.08400
H 	H 	0.06410 0.33120 0.47869 0.04200
H 	H 	0.07784 0.32903 0.41950 0.05900
H 	H 	0.02190 0.36087 0.43740 0.04600
H 	H 	0.14554 0.43861 0.10996 0.08300
H 	H 	0.18392 0.40520 0.14932 0.09800
H 	H 	0.11227 0.42943 0.18419 0.04900
H 	H 	0.11196 0.54569 0.16197 0.05000
H 	H 	0.15323 0.51234 0.20308 0.06500
H 	H 	0.47889 0.51692 0.08789 0.08600
H 	H 	0.45799 0.62386 0.07658 0.08000
H 	H 	0.41723 0.44515 0.04867 0.06000
H 	H 	0.39481 0.55856 0.03732 0.05400
H 	H 	0.39847 0.51740 0.09450 0.07300
H 	H 	0.20742 0.65286 0.06245 0.08000
H 	H 	0.23003 0.54554 0.05695 0.08900
H 	H 	0.21711 0.68293 0.98362 0.05300
H 	H 	0.23999 0.56858 0.97698 0.05800
H 	H 	0.26982 0.65267 1.01028 0.05100
H 	H 	0.92504 0.46714 0.90953 0.07800
H 	H 	0.96174 0.51719 0.94608 0.09400
H 	H 	0.96809 0.52204 0.84607 0.04700
H 	H 	1.00655 0.57574 0.88499 0.05700
H 	H 	0.94899 0.61498 0.88183 0.04600
H 	H 	0.27070 0.39003 0.31139 0.08500
H 	H 	0.27080 0.46403 0.35594 0.10100
H 	H 	0.29465 0.50886 0.26102 0.06300
H 	H 	0.29727 0.58785 0.30799 0.06700
H 	H 	0.24375 0.54151 0.29016 0.06300
H 	H 	0.43855 0.52165 0.90671 0.11100
H 	H 	0.39264 0.54101 0.93997 0.10000
H 	H 	0.42486 0.68434 0.91567 0.05600
H 	H 	0.47775 0.64921 0.94010 0.04000
H 	H 	0.42955 0.66924 0.97583 0.03700
H 	H 	0.35380 0.56061 0.60760 0.08400
H 	H 	0.31617 0.60142 0.64603 0.09900
H 	H 	0.38302 0.45176 0.66136 0.05100
H 	H 	0.34267 0.49359 0.70161 0.06500
H 	H 	0.38659 0.56900 0.68193 0.04900
H 	H 	0.05738 0.54462 0.57752 0.09300
H 	H 	0.02246 0.45656 0.58837 0.07800
H 	H 	0.11523 0.44245 0.55315 0.06700
H 	H 	0.07770 0.34714 0.56330 0.04700
H 	H 	0.09630 0.41759 0.60990 0.06500
H 	H 	0.26312 0.33408 0.55934 0.08500
H 	H 	0.28000 0.44362 0.54726 0.08700
H 	H 	0.22882 0.31703 0.48715 0.04700
H 	H 	0.24904 0.42984 0.47178 0.05700
H 	H 	0.20729 0.41771 0.51563 0.05900
H 	H 	0.53269 0.48293 0.44438 0.09600
H 	H 	0.51876 0.56992 0.40830 0.09200
H 	H 	0.54698 0.38043 0.38201 0.04600
H 	H 	0.53082 0.47247 0.34431 0.04700
H 	H 	0.48998 0.42346 0.38224 0.05700
H 	H 	0.17857 0.93885 0.82808 0.10400
H 	H 	0.22857 0.96271 0.85370 0.10100
H 	H 	0.20254 1.09100 0.80840 0.06600
H 	H 	0.20358 1.01544 0.76005 0.06400
H 	H 	0.25528 1.04382 0.78885 0.06200
H 	H 	0.03389 0.01972 0.46111 0.07600
H 	H 	0.08162 0.07302 0.44290 0.09700
H 	H 	-0.01073 0.10801 0.40786 0.05900
H 	H 	0.04017 0.16757 0.39190 0.06200
H 	H 	0.01839 0.17855 0.44853 0.04300
H 	H 	0.19038 0.03107 0.12565 0.09100
H 	H 	0.17247 0.13202 0.14894 0.09600
H 	H 	0.16017 0.00387 0.19919 0.06500
H 	H 	0.12628 -0.04962 0.15632 0.04800
H 	H 	0.10847 0.05763 0.18190 0.04800
H 	H 	0.43750 0.86140 0.01387 0.07300
H 	H 	0.47161 0.89568 0.05691 0.07600
H 	H 	0.39606 0.87303 0.08310 0.06300
H 	H 	0.37697 0.95511 0.04143 0.06800
H 	H 	0.41293 0.99232 0.08694 0.06700
H 	H 	0.17782 0.94449 0.02962 0.08900
H 	H 	0.19207 0.88787 0.07793 0.08000
H 	H 	0.23893 0.87002 0.98973 0.05400
H 	H 	0.25457 0.81500 1.04211 0.05100
H 	H 	0.25790 0.93847 1.03679 0.06100
H 	H 	0.92700 1.02797 0.90876 0.08000
H 	H 	0.98053 1.06983 0.90786 0.09100
H 	H 	0.96795 0.97367 0.84353 0.04700
H 	H 	0.95167 0.88116 0.88092 0.04600
H 	H 	1.00880 0.92347 0.88110 0.05700
H 	H 	0.27087 0.03635 0.35477 0.10100
H 	H 	0.27163 0.10777 0.30925 0.08400
H 	H 	0.29635 -0.09114 0.30864 0.06500
H 	H 	0.29473 -0.01479 0.26061 0.06300
H 	H 	0.24338 -0.04372 0.28990 0.06100
H 	H 	0.47833 1.00391 0.93973 0.07100
H 	H 	0.42826 0.96247 0.92364 0.10000
H 	H 	0.51756 0.88309 0.90323 0.06400
H 	H 	0.46474 0.84033 0.88187 0.06900
H 	H 	0.47583 0.83913 0.94176 0.03800
H 	H 	0.35810 0.91155 0.61212 0.09000
H 	H 	0.31152 0.96682 0.63206 0.09200
H 	H 	0.38088 1.04633 0.65179 0.05400
H 	H 	0.39733 0.94408 0.68252 0.05400
H 	H 	0.34854 1.00889 0.69976 0.06400
H 	H 	0.09726 0.16010 0.57480 0.08600
H 	H 	0.04670 0.10993 0.57904 0.07400
H 	H 	0.12648 0.03537 0.53211 0.06600
H 	H 	0.07165 -0.01764 0.53321 0.04800
H 	H 	0.10253 -0.00265 0.58504 0.07100
H 	H 	0.32029 0.05220 0.53465 0.09000
H 	H 	0.27350 0.03467 0.56677 0.08900
H 	H 	0.25238 0.07214 0.49105 0.05700
H 	H 	0.28465 0.17709 0.49557 0.05200
H 	H 	0.23526 0.16050 0.53027 0.05200
H 	H 	0.52842 0.01553 0.44089 0.09700
H 	H 	0.56960 -0.02557 0.40656 0.08100
H 	H 	0.48762 0.07734 0.37803 0.05700
H 	H 	0.53029 0.03197 0.34099 0.04700
H 	H 	0.54425 0.12218 0.38057 0.04600
H 	H 	0.77088 0.39212 0.18977 0.08500
H 	H 	0.82024 0.43845 0.17126 0.10400
H 	H 	0.79445 0.51187 0.23983 0.06300
H 	H 	0.74358 0.54367 0.21043 0.06200
H 	H 	0.79706 0.59020 0.19259 0.06600
H 	H 	0.95387 0.51652 0.54070 0.08100
H 	H 	0.90164 0.54948 0.55811 0.10000
H 	H 	0.94291 0.68021 0.53080 0.03700
H 	H 	0.98670 0.65461 0.57117 0.04700
H 	H 	0.93156 0.68899 0.59037 0.05800
H 	H 	0.82161 0.61796 0.85015 0.09700
H 	H 	0.85450 0.57063 0.89113 0.08300
H 	H 	0.84168 0.49613 0.79870 0.06500
H 	H 	0.87740 0.44825 0.84165 0.04800
H 	H 	0.88981 0.56028 0.81780 0.04800
H 	H 	0.52057 0.46666 0.91017 0.08900
H 	H 	0.54224 0.53952 0.94969 0.08000
H 	H 	0.58190 0.36019 0.92134 0.04900
H 	H 	0.60507 0.43904 0.96234 0.05500
H 	H 	0.60087 0.47300 0.90406 0.07200
H 	H 	0.84422 0.31697 0.96905 0.08500
H 	H 	0.85244 0.43240 0.96187 0.08500
H 	H 	0.76564 0.33273 -0.05020 0.05000
H 	H 	0.77459 0.45489 -0.05672 0.05400
H 	H 	0.78122 0.40205 -0.00207 0.05800
H 	H 	0.06868 0.51029 0.09411 0.08100
H 	H 	0.01845 0.56363 0.10345 0.09000
H 	H 	0.03105 0.44796 0.15973 0.04600
H 	H 	0.03800 0.36369 0.11540 0.04700
H 	H 	-0.01586 0.41845 0.12410 0.05700
H 	H 	0.72777 0.53804 0.64532 0.10100
H 	H 	0.72624 0.61058 0.69042 0.08400
H 	H 	0.75458 0.45970 0.71092 0.06200
H 	H 	0.70188 0.41147 0.69187 0.06700
H 	H 	0.70289 0.48900 0.73947 0.06400
H 	H 	0.60771 0.44990 0.05750 0.09900
H 	H 	0.56370 0.48363 0.09063 0.10900
H 	H 	0.56691 0.31865 0.08615 0.05700
H 	H 	0.56388 0.32751 0.02558 0.03700
H 	H 	0.51677 0.36379 0.05973 0.04300
H 	H 	0.64074 0.41926 0.38808 0.08300
H 	H 	0.68755 0.47642 0.37007 0.09000
H 	H 	0.60773 0.43440 0.31318 0.04900
H 	H 	0.65624 0.50172 0.29775 0.06500
H 	H 	0.61866 0.54376 0.34047 0.04900
H 	H 	0.95631 0.46702 0.45734 0.08300
H 	H 	0.97508 0.57685 0.46557 0.07200
H 	H 	0.89606 0.52169 0.41028 0.07400
H 	H 	0.91559 0.63800 0.41968 0.04900
H 	H 	0.89396 0.57072 0.46611 0.05400
H 	H 	0.72347 0.53765 0.43726 0.08900
H 	H 	0.69270 0.63618 0.43209 0.08000
H 	H 	0.75951 0.66262 0.47593 0.05100
H 	H 	0.74143 0.57339 0.51421 0.05800
H 	H 	0.70884 0.67779 0.50888 0.05300
H 	H 	0.47081 0.51774 0.55933 0.09700
H 	H 	0.42913 0.47894 0.59364 0.08200
H 	H 	0.45489 0.62733 0.61837 0.04600
H 	H 	0.51128 0.58156 0.62196 0.05600
H 	H 	0.46806 0.53860 0.65902 0.04700
H 	H 	0.90689 0.19071 0.20915 0.08800
H 	H 	0.90692 0.25007 0.25873 0.10000
H 	H 	0.83331 0.18889 0.24275 0.03600
H 	H 	0.83386 0.25112 0.19009 0.04400
H 	H 	0.83392 0.31344 0.24272 0.03700
H 	H 	0.58948 0.81140 0.70656 0.08700
H 	H 	0.58776 0.75262 0.75627 0.09900
H 	H 	0.66328 0.75210 0.69034 0.04300
H 	H 	0.66144 0.68928 0.74280 0.03700
H 	H 	0.66180 0.81382 0.74313 0.03700
H 	H 	0.09021 0.74895 0.74347 0.10000
H 	H 	0.09149 0.80813 0.79309 0.08900
H 	H 	0.16397 0.81132 0.75704 0.03700
H 	H 	0.16399 0.68678 0.75735 0.03700
H 	H 	0.16535 0.74960 0.80983 0.04400
H 	H 	0.40652 0.19044 0.29390 0.08900
H 	H 	0.40688 0.30795 0.29399 0.08900
H 	H 	0.33432 0.18810 0.25722 0.03700
H 	H 	0.33467 0.31266 0.25758 0.03700
H 	H 	0.33274 0.24973 0.31002 0.04400
H 	H 	0.87628 0.75098 0.66007 0.04000
H 	H 	0.50240 0.74237 0.01570 0.06900
H 	H 	0.54445 0.76301 0.05342 0.10000
H 	H 	0.55910 0.84434 -0.01505 0.04600
H 	H 	0.55468 0.73686 -0.04555 0.05100
H 	H 	0.59996 0.75414 -0.00603 0.06500
H 	H 	0.62171 0.25020 0.16040 0.04000
H 	H 	0.96318 0.20856 0.61049 0.09500
H 	H 	0.96386 0.32599 0.60872 0.09600
H 	H 	0.98912 0.20018 0.53357 0.04300
H 	H 	0.98912 0.32464 0.53186 0.04300
H 	H 	0.93690 0.26246 0.53856 0.07000
H 	H 	0.12063 0.24993 0.33901 0.04000
H 	H 	0.46296 0.20411 0.89819 0.09900
H 	H 	0.51223 0.25164 0.91282 0.07500
H 	H 	0.48258 0.16164 0.97262 0.04100
H 	H 	0.43253 0.23263 0.97188 0.07400
H 	H 	0.48582 0.28230 0.98733 0.04200
H 	H 	0.37792 0.74949 0.83831 0.04000
H 	H 	0.03835 0.78872 0.40517 0.10000
H 	H 	-0.01120 0.75163 0.42775 0.07500
H 	H 	0.07722 0.75362 0.47511 0.07100
H 	H 	0.02377 0.71966 0.49852 0.03900
H 	H 	0.03319 0.83792 0.48189 0.04200
H 	H 	0.85611 0.92676 0.89038 0.08300
H 	H 	0.96657 0.98237 0.94366 0.09600
H 	H 	0.97921 0.42934 0.91207 0.09200
H 	H 	0.80863 0.51234 0.87165 0.09000
H 	H 	0.72729 0.89003 0.68818 0.08400
H 	H 	0.94261 0.52548 0.59667 0.10900
H 	H 	1.01283 0.26582 0.60412 0.07800
H 	H 	0.97664 0.52944 0.41315 0.08500
H 	H 	0.97087 0.92621 0.42564 0.07800
H 	H 	0.77098 0.46550 0.14498 0.10200
H 	H 	0.55999 0.49300 0.03369 0.07800
H 	H 	0.47598 0.55477 0.03374 0.06900
H 	H 	0.45385 0.97385 0.01782 0.07500
H 	H 	0.54217 0.66024 0.02567 0.08400
H 	H 	0.18024 0.57116 0.03130 0.08700
H 	H 	0.17382 0.82733 0.03224 0.08400
H 	H 	0.02359 0.48442 0.06134 0.09800
H 	H 	0.33037 0.86945 0.65799 0.09500
H 	H 	0.69275 0.85264 0.48211 0.08700
H 	H 	0.67558 0.55159 0.46818 0.08800
H 	H 	0.67772 0.56262 0.67069 0.10400
H 	H 	0.58914 0.69389 0.70654 0.08800
H 	H 	0.32010 0.43626 0.32991 0.10300
H 	H 	0.31189 0.49081 0.62703 0.08800
H 	H 	0.30237 0.35281 0.51848 0.08700
H 	H 	0.32052 0.06079 0.32860 0.10300
H 	H 	0.30321 0.13459 0.57196 0.08200
H 	H 	0.22750 0.53524 0.85531 0.10100
H 	H 	0.09150 0.69062 0.79333 0.08900
H 	H 	0.03194 0.67604 0.42014 0.09400
H 	H 	0.22717 0.89202 0.80791 0.08500
H 	H 	0.06577 0.49325 0.41721 0.10600
H 	H 	0.40837 0.24933 0.24422 0.10000
H 	H 	0.51662 -0.06970 0.40310 0.09000
H 	H 	0.67372 0.37271 0.34699 0.09600
H 	H 	0.57220 0.52743 0.40912 0.08000
H 	H 	0.67948 0.11267 0.35474 0.09800
H 	H 	0.93081 0.97701 0.55642 0.09700
H 	H 	0.18474 0.51513 0.12902 0.08600
H 	H 	0.14122 0.07984 0.10809 0.08300
H 	H 	0.48187 0.43398 0.59809 0.09100
H 	H 	0.52375 0.43262 0.96486 0.07400
H 	H 	0.44231 0.50722 0.96338 0.08100
H 	H 	0.83774 0.36519 0.91708 0.07700
H 	H 	0.78167 0.15781 0.93301 0.08300
H 	H 	0.03069 0.01484 0.05886 0.09500
H 	H 	0.53721 0.00920 0.03366 0.07300
H 	H 	0.77076 0.11106 0.18719 0.08400
H 	H 	0.90746 0.30822 0.20881 0.08800
H 	H 	0.05158 0.00474 0.40703 0.10800
H 	H 	0.60071 0.02353 0.90916 0.10500
