data_crystal

_cell_length_a 31.25100
_cell_length_b 31.25100
_cell_length_c 31.25100
_cell_angle_alpha 90.00000
_cell_angle_beta  90.00000
_cell_angle_gamma 90.00000

_symmetry_space_group_name_	'P 1'
_symmetry_space_group_name_H-M	'P 1'

loop_
_symmetry_equiv_pos_as_xyz
  x,y,z

loop_
_atom_site_label
_atom_site_type_symbol
_atom_site_fract_x
_atom_site_fract_y
_atom_site_fract_z
_atom_site_charge
N 	N 	0.11368 0.83467 0.20168 -0.17000
N 	N 	0.07044 0.94612 0.27811 -0.16400
N 	N 	0.25883 0.79792 0.16993 -0.17100
N 	N 	0.33212 0.83134 0.05378 -0.16900
C 	C 	0.07932 0.84434 0.20890 0.09200
C 	C 	0.04906 0.92143 0.26181 0.09800
C 	C 	0.29089 0.78371 0.15960 0.09200
C 	C 	0.34180 0.80640 0.07866 0.08700
C 	C 	0.03632 0.85580 0.21746 -0.01800
C 	C 	0.02235 0.89099 0.24126 -0.03900
C 	C 	0.33075 0.76581 0.14717 -0.02500
C 	C 	0.35335 0.77552 0.11016 -0.02300
N 	N 	0.88632 0.16533 0.20168 -0.17000
N 	N 	0.92956 0.05388 0.27811 -0.16600
N 	N 	0.74117 0.20208 0.16993 -0.17100
N 	N 	0.66788 0.16866 0.05378 -0.16900
C 	C 	0.92068 0.15566 0.20890 0.09500
C 	C 	0.95094 0.07857 0.26181 0.09400
C 	C 	0.70911 0.21629 0.15960 0.09300
C 	C 	0.65820 0.19360 0.07866 0.08800
C 	C 	0.96368 0.14420 0.21746 -0.01300
C 	C 	0.97765 0.10901 0.24126 -0.01000
C 	C 	0.66925 0.23419 0.14717 -0.02400
C 	C 	0.64665 0.22448 0.11016 -0.02200
N 	N 	0.88632 0.83467 0.79832 -0.16800
N 	N 	0.92956 0.94612 0.72189 -0.15900
N 	N 	0.74117 0.79792 0.83007 -0.16900
N 	N 	0.66788 0.83134 0.94622 -0.16300
C 	C 	0.92068 0.84434 0.79110 0.09700
C 	C 	0.95094 0.92143 0.73819 0.09900
C 	C 	0.70911 0.78371 0.84040 0.09500
C 	C 	0.65820 0.80640 0.92134 0.09200
C 	C 	0.96368 0.85580 0.78254 -0.01200
C 	C 	0.97765 0.89099 0.75874 -0.00900
C 	C 	0.66925 0.76581 0.85283 -0.02400
C 	C 	0.64665 0.77552 0.88984 -0.02000
N 	N 	0.11368 0.16533 0.79832 -0.17000
N 	N 	0.07044 0.05388 0.72189 -0.16900
N 	N 	0.25883 0.20208 0.83007 -0.16900
N 	N 	0.33212 0.16866 0.94622 -0.16300
C 	C 	0.07932 0.15566 0.79110 0.09200
C 	C 	0.04906 0.07857 0.73819 0.09600
C 	C 	0.29089 0.21629 0.84040 0.09400
C 	C 	0.34180 0.19360 0.92134 0.09100
C 	C 	0.03632 0.14420 0.78254 -0.01700
C 	C 	0.02235 0.10901 0.75874 -0.03900
C 	C 	0.33075 0.23419 0.85283 -0.02400
C 	C 	0.35335 0.22448 0.88984 -0.02000
N 	N 	0.20168 0.11368 0.83467 -0.16900
N 	N 	0.27811 0.07044 0.94612 -0.16300
N 	N 	0.16993 0.25883 0.79792 -0.17000
N 	N 	0.05378 0.33212 0.83134 -0.16800
C 	C 	0.20890 0.07932 0.84434 0.09300
C 	C 	0.26181 0.04906 0.92143 0.09900
C 	C 	0.15960 0.29089 0.78371 0.09300
C 	C 	0.07866 0.34180 0.80640 0.08800
C 	C 	0.21746 0.03632 0.85580 -0.01700
C 	C 	0.24126 0.02235 0.89099 -0.03800
C 	C 	0.14717 0.33075 0.76581 -0.02400
C 	C 	0.11016 0.35335 0.77552 -0.02200
N 	N 	0.20168 0.88632 0.16533 -0.16900
N 	N 	0.27811 0.92956 0.05388 -0.16500
N 	N 	0.16993 0.74117 0.20208 -0.17000
N 	N 	0.05378 0.66788 0.16866 -0.16900
C 	C 	0.20890 0.92068 0.15566 0.09500
C 	C 	0.26181 0.95094 0.07857 0.09400
C 	C 	0.15960 0.70911 0.21629 0.09300
C 	C 	0.07866 0.65820 0.19360 0.08800
C 	C 	0.21746 0.96368 0.14420 -0.01300
C 	C 	0.24126 0.97765 0.10901 -0.01000
C 	C 	0.14717 0.66925 0.23419 -0.02400
C 	C 	0.11016 0.64665 0.22448 -0.02200
N 	N 	0.79832 0.88632 0.83467 -0.16800
N 	N 	0.72189 0.92956 0.94612 -0.15900
N 	N 	0.83007 0.74117 0.79792 -0.16900
N 	N 	0.94622 0.66788 0.83134 -0.16300
C 	C 	0.79110 0.92068 0.84434 0.09700
C 	C 	0.73819 0.95094 0.92143 0.09900
C 	C 	0.84040 0.70911 0.78371 0.09500
C 	C 	0.92134 0.65820 0.80640 0.09200
C 	C 	0.78254 0.96368 0.85580 -0.01200
C 	C 	0.75874 0.97765 0.89099 -0.00900
C 	C 	0.85283 0.66925 0.76581 -0.02400
C 	C 	0.88984 0.64665 0.77552 -0.02000
N 	N 	0.79832 0.11368 0.16533 -0.17000
N 	N 	0.72189 0.07044 0.05388 -0.16900
N 	N 	0.83007 0.25883 0.20208 -0.16900
N 	N 	0.94622 0.33212 0.16866 -0.16300
C 	C 	0.79110 0.07932 0.15566 0.09200
C 	C 	0.73819 0.04906 0.07857 0.09600
C 	C 	0.84040 0.29089 0.21629 0.09400
C 	C 	0.92134 0.34180 0.19360 0.09100
C 	C 	0.78254 0.03632 0.14420 -0.01700
C 	C 	0.75874 0.02235 0.10901 -0.03900
C 	C 	0.85283 0.33075 0.23419 -0.02400
C 	C 	0.88984 0.35335 0.22448 -0.02000
N 	N 	0.83467 0.20168 0.11368 -0.16900
N 	N 	0.94612 0.27811 0.07044 -0.16300
N 	N 	0.79792 0.16993 0.25883 -0.17000
N 	N 	0.83134 0.05378 0.33212 -0.16800
C 	C 	0.84434 0.20890 0.07932 0.09300
C 	C 	0.92143 0.26181 0.04906 0.09900
C 	C 	0.78371 0.15960 0.29089 0.09300
C 	C 	0.80640 0.07866 0.34180 0.08800
C 	C 	0.85580 0.21746 0.03632 -0.01700
C 	C 	0.89099 0.24126 0.02235 -0.03800
C 	C 	0.76581 0.14717 0.33075 -0.02400
C 	C 	0.77552 0.11016 0.35335 -0.02200
N 	N 	0.16533 0.20168 0.88632 -0.16900
N 	N 	0.05388 0.27811 0.92956 -0.16500
N 	N 	0.20208 0.16993 0.74117 -0.17000
N 	N 	0.16866 0.05378 0.66788 -0.16900
C 	C 	0.15566 0.20890 0.92068 0.09500
C 	C 	0.07857 0.26181 0.95094 0.09400
C 	C 	0.21629 0.15960 0.70911 0.09300
C 	C 	0.19360 0.07866 0.65820 0.08800
C 	C 	0.14420 0.21746 0.96368 -0.01300
C 	C 	0.10901 0.24126 0.97765 -0.01000
C 	C 	0.23419 0.14717 0.66925 -0.02400
C 	C 	0.22448 0.11016 0.64665 -0.02200
N 	N 	0.83467 0.79832 0.88632 -0.16800
N 	N 	0.94612 0.72189 0.92956 -0.15900
N 	N 	0.79792 0.83007 0.74117 -0.16900
N 	N 	0.83134 0.94622 0.66788 -0.16300
C 	C 	0.84434 0.79110 0.92068 0.09700
C 	C 	0.92143 0.73819 0.95094 0.09900
C 	C 	0.78371 0.84040 0.70911 0.09500
C 	C 	0.80640 0.92134 0.65820 0.09200
C 	C 	0.85580 0.78254 0.96368 -0.01200
C 	C 	0.89099 0.75874 0.97765 -0.00900
C 	C 	0.76581 0.85283 0.66925 -0.02400
C 	C 	0.77552 0.88984 0.64665 -0.02000
N 	N 	0.16533 0.79832 0.11368 -0.17000
N 	N 	0.05388 0.72189 0.07044 -0.16900
N 	N 	0.20208 0.83007 0.25883 -0.16900
N 	N 	0.16866 0.94622 0.33212 -0.16300
C 	C 	0.15566 0.79110 0.07932 0.09200
C 	C 	0.07857 0.73819 0.04906 0.09600
C 	C 	0.21629 0.84040 0.29089 0.09400
C 	C 	0.19360 0.92134 0.34180 0.09100
C 	C 	0.14420 0.78254 0.03632 -0.01700
C 	C 	0.10901 0.75874 0.02235 -0.03900
C 	C 	0.23419 0.85283 0.33075 -0.02400
C 	C 	0.22448 0.88984 0.35335 -0.02000
N 	N 	0.33467 0.61368 0.29832 -0.17000
N 	N 	0.44612 0.57044 0.22189 -0.16600
N 	N 	0.29792 0.75883 0.33007 -0.17000
N 	N 	0.33134 0.83212 0.44622 -0.16700
C 	C 	0.34434 0.57932 0.29110 0.09600
C 	C 	0.42143 0.54906 0.23819 0.09500
C 	C 	0.28371 0.79089 0.34040 0.09300
C 	C 	0.30640 0.84180 0.42134 0.09000
C 	C 	0.35580 0.53632 0.28254 -0.02500
C 	C 	0.39099 0.52235 0.25874 -0.02300
C 	C 	0.26581 0.83075 0.35283 -0.02400
C 	C 	0.27552 0.85335 0.38984 -0.02100
N 	N 	0.66533 0.38632 0.29832 -0.17000
N 	N 	0.55388 0.42956 0.22189 -0.16600
N 	N 	0.70208 0.24117 0.33007 -0.17000
N 	N 	0.66866 0.16788 0.44622 -0.16700
C 	C 	0.65566 0.42068 0.29110 0.09600
C 	C 	0.57857 0.45094 0.23819 0.09500
C 	C 	0.71629 0.20911 0.34040 0.09300
C 	C 	0.69360 0.15820 0.42134 0.08900
C 	C 	0.64420 0.46368 0.28254 -0.02500
C 	C 	0.60901 0.47765 0.25874 -0.02200
C 	C 	0.73419 0.16925 0.35283 -0.02400
C 	C 	0.72448 0.14665 0.38984 -0.02100
N 	N 	0.33467 0.38632 0.70168 -0.17000
N 	N 	0.44612 0.42956 0.77811 -0.16500
N 	N 	0.29792 0.24117 0.66993 -0.17000
N 	N 	0.33134 0.16788 0.55378 -0.16700
C 	C 	0.34434 0.42068 0.70890 0.09600
C 	C 	0.42143 0.45094 0.76181 0.09500
C 	C 	0.28371 0.20911 0.65960 0.09300
C 	C 	0.30640 0.15820 0.57866 0.08800
C 	C 	0.35580 0.46368 0.71746 -0.02400
C 	C 	0.39099 0.47765 0.74126 -0.02200
C 	C 	0.26581 0.16925 0.64717 -0.02400
C 	C 	0.27552 0.14665 0.61016 -0.02200
N 	N 	0.66533 0.61368 0.70168 -0.17000
N 	N 	0.55388 0.57044 0.77811 -0.16500
N 	N 	0.70208 0.75883 0.66993 -0.16900
N 	N 	0.66866 0.83212 0.55378 -0.16700
C 	C 	0.65566 0.57932 0.70890 0.09600
C 	C 	0.57857 0.54906 0.76181 0.09500
C 	C 	0.71629 0.79089 0.65960 0.09400
C 	C 	0.69360 0.84180 0.57866 0.09000
C 	C 	0.64420 0.53632 0.71746 -0.02400
C 	C 	0.60901 0.52235 0.74126 -0.02200
C 	C 	0.73419 0.83075 0.64717 -0.02400
C 	C 	0.72448 0.85335 0.61016 -0.02100
N 	N 	0.61368 0.70168 0.66533 -0.17000
N 	N 	0.57044 0.77811 0.55388 -0.16500
N 	N 	0.75883 0.66993 0.70208 -0.16900
N 	N 	0.83212 0.55378 0.66866 -0.16700
C 	C 	0.57932 0.70890 0.65566 0.09600
C 	C 	0.54906 0.76181 0.57857 0.09500
C 	C 	0.79089 0.65960 0.71629 0.09400
C 	C 	0.84180 0.57866 0.69360 0.09000
C 	C 	0.53632 0.71746 0.64420 -0.02400
C 	C 	0.52235 0.74126 0.60901 -0.02200
C 	C 	0.83075 0.64717 0.73419 -0.02400
C 	C 	0.85335 0.61016 0.72448 -0.02100
N 	N 	0.38632 0.70168 0.33467 -0.17000
N 	N 	0.42956 0.77811 0.44612 -0.16500
N 	N 	0.24117 0.66993 0.29792 -0.17000
N 	N 	0.16788 0.55378 0.33134 -0.16700
C 	C 	0.42068 0.70890 0.34434 0.09600
C 	C 	0.45094 0.76181 0.42143 0.09500
C 	C 	0.20911 0.65960 0.28371 0.09300
C 	C 	0.15820 0.57866 0.30640 0.08800
C 	C 	0.46368 0.71746 0.35580 -0.02400
C 	C 	0.47765 0.74126 0.39099 -0.02200
C 	C 	0.16925 0.64717 0.26581 -0.02400
C 	C 	0.14665 0.61016 0.27552 -0.02200
N 	N 	0.38632 0.29832 0.66533 -0.17000
N 	N 	0.42956 0.22189 0.55388 -0.16600
N 	N 	0.24117 0.33007 0.70208 -0.17000
N 	N 	0.16788 0.44622 0.66866 -0.16700
C 	C 	0.42068 0.29110 0.65566 0.09600
C 	C 	0.45094 0.23819 0.57857 0.09500
C 	C 	0.20911 0.34040 0.71629 0.09300
C 	C 	0.15820 0.42134 0.69360 0.08900
C 	C 	0.46368 0.28254 0.64420 -0.02500
C 	C 	0.47765 0.25874 0.60901 -0.02200
C 	C 	0.16925 0.35283 0.73419 -0.02400
C 	C 	0.14665 0.38984 0.72448 -0.02100
N 	N 	0.61368 0.29832 0.33467 -0.17000
N 	N 	0.57044 0.22189 0.44612 -0.16600
N 	N 	0.75883 0.33007 0.29792 -0.17000
N 	N 	0.83212 0.44622 0.33134 -0.16700
C 	C 	0.57932 0.29110 0.34434 0.09600
C 	C 	0.54906 0.23819 0.42143 0.09500
C 	C 	0.79089 0.34040 0.28371 0.09300
C 	C 	0.84180 0.42134 0.30640 0.09000
C 	C 	0.53632 0.28254 0.35580 -0.02500
C 	C 	0.52235 0.25874 0.39099 -0.02300
C 	C 	0.83075 0.35283 0.26581 -0.02400
C 	C 	0.85335 0.38984 0.27552 -0.02100
N 	N 	0.70168 0.33467 0.38632 -0.17000
N 	N 	0.77811 0.44612 0.42956 -0.16500
N 	N 	0.66993 0.29792 0.24117 -0.17000
N 	N 	0.55378 0.33134 0.16788 -0.16700
C 	C 	0.70890 0.34434 0.42068 0.09600
C 	C 	0.76181 0.42143 0.45094 0.09500
C 	C 	0.65960 0.28371 0.20911 0.09300
C 	C 	0.57866 0.30640 0.15820 0.08800
C 	C 	0.71746 0.35580 0.46368 -0.02400
C 	C 	0.74126 0.39099 0.47765 -0.02200
C 	C 	0.64717 0.26581 0.16925 -0.02400
C 	C 	0.61016 0.27552 0.14665 -0.02200
N 	N 	0.70168 0.66533 0.61368 -0.17000
N 	N 	0.77811 0.55388 0.57044 -0.16500
N 	N 	0.66993 0.70208 0.75883 -0.16900
N 	N 	0.55378 0.66866 0.83212 -0.16700
C 	C 	0.70890 0.65566 0.57932 0.09600
C 	C 	0.76181 0.57857 0.54906 0.09500
C 	C 	0.65960 0.71629 0.79089 0.09400
C 	C 	0.57866 0.69360 0.84180 0.09000
C 	C 	0.71746 0.64420 0.53632 -0.02400
C 	C 	0.74126 0.60901 0.52235 -0.02200
C 	C 	0.64717 0.73419 0.83075 -0.02400
C 	C 	0.61016 0.72448 0.85335 -0.02100
N 	N 	0.29832 0.33467 0.61368 -0.17000
N 	N 	0.22189 0.44612 0.57044 -0.16600
N 	N 	0.33007 0.29792 0.75883 -0.17000
N 	N 	0.44622 0.33134 0.83212 -0.16700
C 	C 	0.29110 0.34434 0.57932 0.09600
C 	C 	0.23819 0.42143 0.54906 0.09500
C 	C 	0.34040 0.28371 0.79089 0.09300
C 	C 	0.42134 0.30640 0.84180 0.09000
C 	C 	0.28254 0.35580 0.53632 -0.02500
C 	C 	0.25874 0.39099 0.52235 -0.02300
C 	C 	0.35283 0.26581 0.83075 -0.02400
C 	C 	0.38984 0.27552 0.85335 -0.02100
N 	N 	0.29832 0.66533 0.38632 -0.17000
N 	N 	0.22189 0.55388 0.42956 -0.16600
N 	N 	0.33007 0.70208 0.24117 -0.17000
N 	N 	0.44622 0.66866 0.16788 -0.16700
C 	C 	0.29110 0.65566 0.42068 0.09600
C 	C 	0.23819 0.57857 0.45094 0.09500
C 	C 	0.34040 0.71629 0.20911 0.09300
C 	C 	0.42134 0.69360 0.15820 0.08900
C 	C 	0.28254 0.64420 0.46368 -0.02500
C 	C 	0.25874 0.60901 0.47765 -0.02200
C 	C 	0.35283 0.73419 0.16925 -0.02400
C 	C 	0.38984 0.72448 0.14665 -0.02100
N 	N 	0.88632 0.16533 0.79832 -0.16900
N 	N 	0.92956 0.05388 0.72189 -0.16500
N 	N 	0.74117 0.20208 0.83007 -0.16900
N 	N 	0.66788 0.16866 0.94622 -0.16300
C 	C 	0.92068 0.15566 0.79110 0.09600
C 	C 	0.95094 0.07857 0.73819 0.09500
C 	C 	0.70911 0.21629 0.84040 0.09400
C 	C 	0.65820 0.19360 0.92134 0.09100
C 	C 	0.96368 0.14420 0.78254 -0.01300
C 	C 	0.97765 0.10901 0.75874 -0.01000
C 	C 	0.66925 0.23419 0.85283 -0.02400
C 	C 	0.64665 0.22448 0.88984 -0.02000
N 	N 	0.11368 0.83467 0.79832 -0.16900
N 	N 	0.07044 0.94612 0.72189 -0.16300
N 	N 	0.25883 0.79792 0.83007 -0.16900
N 	N 	0.33212 0.83134 0.94622 -0.16300
C 	C 	0.07932 0.84434 0.79110 0.09300
C 	C 	0.04906 0.92143 0.73819 0.10000
C 	C 	0.29089 0.78371 0.84040 0.09500
C 	C 	0.34180 0.80640 0.92134 0.09200
C 	C 	0.03632 0.85580 0.78254 -0.01600
C 	C 	0.02235 0.89099 0.75874 -0.03800
C 	C 	0.33075 0.76581 0.85283 -0.02400
C 	C 	0.35335 0.77552 0.88984 -0.02000
N 	N 	0.11368 0.16533 0.20168 -0.17000
N 	N 	0.07044 0.05388 0.27811 -0.16900
N 	N 	0.25883 0.20208 0.16993 -0.17000
N 	N 	0.33212 0.16866 0.05378 -0.16900
C 	C 	0.07932 0.15566 0.20890 0.09100
C 	C 	0.04906 0.07857 0.26181 0.09600
C 	C 	0.29089 0.21629 0.15960 0.09300
C 	C 	0.34180 0.19360 0.07866 0.08800
C 	C 	0.03632 0.14420 0.21746 -0.01700
C 	C 	0.02235 0.10901 0.24126 -0.03900
C 	C 	0.33075 0.23419 0.14717 -0.02400
C 	C 	0.35335 0.22448 0.11016 -0.02200
N 	N 	0.88632 0.83467 0.20168 -0.16900
N 	N 	0.92956 0.94612 0.27811 -0.15900
N 	N 	0.74117 0.79792 0.16993 -0.16900
N 	N 	0.66788 0.83134 0.05378 -0.16800
C 	C 	0.92068 0.84434 0.20890 0.09600
C 	C 	0.95094 0.92143 0.26181 0.09800
C 	C 	0.70911 0.78371 0.15960 0.09300
C 	C 	0.65820 0.80640 0.07866 0.08800
C 	C 	0.96368 0.85580 0.21746 -0.01200
C 	C 	0.97765 0.89099 0.24126 -0.00900
C 	C 	0.66925 0.76581 0.14717 -0.02400
C 	C 	0.64665 0.77552 0.11016 -0.02200
N 	N 	0.79832 0.88632 0.16533 -0.16900
N 	N 	0.72189 0.92956 0.05388 -0.16500
N 	N 	0.83007 0.74117 0.20208 -0.16900
N 	N 	0.94622 0.66788 0.16866 -0.16300
C 	C 	0.79110 0.92068 0.15566 0.09600
C 	C 	0.73819 0.95094 0.07857 0.09500
C 	C 	0.84040 0.70911 0.21629 0.09400
C 	C 	0.92134 0.65820 0.19360 0.09100
C 	C 	0.78254 0.96368 0.14420 -0.01300
C 	C 	0.75874 0.97765 0.10901 -0.01000
C 	C 	0.85283 0.66925 0.23419 -0.02400
C 	C 	0.88984 0.64665 0.22448 -0.02000
N 	N 	0.79832 0.11368 0.83467 -0.16900
N 	N 	0.72189 0.07044 0.94612 -0.16300
N 	N 	0.83007 0.25883 0.79792 -0.16900
N 	N 	0.94622 0.33212 0.83134 -0.16300
C 	C 	0.79110 0.07932 0.84434 0.09300
C 	C 	0.73819 0.04906 0.92143 0.10000
C 	C 	0.84040 0.29089 0.78371 0.09500
C 	C 	0.92134 0.34180 0.80640 0.09200
C 	C 	0.78254 0.03632 0.85580 -0.01600
C 	C 	0.75874 0.02235 0.89099 -0.03800
C 	C 	0.85283 0.33075 0.76581 -0.02400
C 	C 	0.88984 0.35335 0.77552 -0.02000
N 	N 	0.20168 0.11368 0.16533 -0.17000
N 	N 	0.27811 0.07044 0.05388 -0.16900
N 	N 	0.16993 0.25883 0.20208 -0.17000
N 	N 	0.05378 0.33212 0.16866 -0.16900
C 	C 	0.20890 0.07932 0.15566 0.09100
C 	C 	0.26181 0.04906 0.07857 0.09600
C 	C 	0.15960 0.29089 0.21629 0.09300
C 	C 	0.07866 0.34180 0.19360 0.08800
C 	C 	0.21746 0.03632 0.14420 -0.01700
C 	C 	0.24126 0.02235 0.10901 -0.03900
C 	C 	0.14717 0.33075 0.23419 -0.02400
C 	C 	0.11016 0.35335 0.22448 -0.02200
N 	N 	0.20168 0.88632 0.83467 -0.16900
N 	N 	0.27811 0.92956 0.94612 -0.15900
N 	N 	0.16993 0.74117 0.79792 -0.16900
N 	N 	0.05378 0.66788 0.83134 -0.16800
C 	C 	0.20890 0.92068 0.84434 0.09600
C 	C 	0.26181 0.95094 0.92143 0.09800
C 	C 	0.15960 0.70911 0.78371 0.09300
C 	C 	0.07866 0.65820 0.80640 0.08800
C 	C 	0.21746 0.96368 0.85580 -0.01200
C 	C 	0.24126 0.97765 0.89099 -0.00900
C 	C 	0.14717 0.66925 0.76581 -0.02400
C 	C 	0.11016 0.64665 0.77552 -0.02200
N 	N 	0.16533 0.79832 0.88632 -0.16900
N 	N 	0.05388 0.72189 0.92956 -0.16500
N 	N 	0.20208 0.83007 0.74117 -0.16900
N 	N 	0.16866 0.94622 0.66788 -0.16300
C 	C 	0.15566 0.79110 0.92068 0.09600
C 	C 	0.07857 0.73819 0.95094 0.09500
C 	C 	0.21629 0.84040 0.70911 0.09400
C 	C 	0.19360 0.92134 0.65820 0.09100
C 	C 	0.14420 0.78254 0.96368 -0.01300
C 	C 	0.10901 0.75874 0.97765 -0.01000
C 	C 	0.23419 0.85283 0.66925 -0.02400
C 	C 	0.22448 0.88984 0.64665 -0.02000
N 	N 	0.83467 0.79832 0.11368 -0.16900
N 	N 	0.94612 0.72189 0.07044 -0.16300
N 	N 	0.79792 0.83007 0.25883 -0.16900
N 	N 	0.83134 0.94622 0.33212 -0.16300
C 	C 	0.84434 0.79110 0.07932 0.09300
C 	C 	0.92143 0.73819 0.04906 0.10000
C 	C 	0.78371 0.84040 0.29089 0.09500
C 	C 	0.80640 0.92134 0.34180 0.09200
C 	C 	0.85580 0.78254 0.03632 -0.01600
C 	C 	0.89099 0.75874 0.02235 -0.03800
C 	C 	0.76581 0.85283 0.33075 -0.02400
C 	C 	0.77552 0.88984 0.35335 -0.02000
N 	N 	0.16533 0.20168 0.11368 -0.17000
N 	N 	0.05388 0.27811 0.07044 -0.16900
N 	N 	0.20208 0.16993 0.25883 -0.17000
N 	N 	0.16866 0.05378 0.33212 -0.16900
C 	C 	0.15566 0.20890 0.07932 0.09100
C 	C 	0.07857 0.26181 0.04906 0.09600
C 	C 	0.21629 0.15960 0.29089 0.09300
C 	C 	0.19360 0.07866 0.34180 0.08800
C 	C 	0.14420 0.21746 0.03632 -0.01700
C 	C 	0.10901 0.24126 0.02235 -0.03900
C 	C 	0.23419 0.14717 0.33075 -0.02400
C 	C 	0.22448 0.11016 0.35335 -0.02200
N 	N 	0.83467 0.20168 0.88632 -0.16900
N 	N 	0.94612 0.27811 0.92956 -0.15900
N 	N 	0.79792 0.16993 0.74117 -0.16900
N 	N 	0.83134 0.05378 0.66788 -0.16800
C 	C 	0.84434 0.20890 0.92068 0.09600
C 	C 	0.92143 0.26181 0.95094 0.09800
C 	C 	0.78371 0.15960 0.70911 0.09300
C 	C 	0.80640 0.07866 0.65820 0.08800
C 	C 	0.85580 0.21746 0.96368 -0.01200
C 	C 	0.89099 0.24126 0.97765 -0.00900
C 	C 	0.76581 0.14717 0.66925 -0.02400
C 	C 	0.77552 0.11016 0.64665 -0.02200
N 	N 	0.66533 0.38632 0.70168 -0.17000
N 	N 	0.55388 0.42956 0.77811 -0.16500
N 	N 	0.70208 0.24117 0.66993 -0.17000
N 	N 	0.66866 0.16788 0.55378 -0.16700
C 	C 	0.65566 0.42068 0.70890 0.09600
C 	C 	0.57857 0.45094 0.76181 0.09500
C 	C 	0.71629 0.20911 0.65960 0.09300
C 	C 	0.69360 0.15820 0.57866 0.08900
C 	C 	0.64420 0.46368 0.71746 -0.02400
C 	C 	0.60901 0.47765 0.74126 -0.02200
C 	C 	0.73419 0.16925 0.64717 -0.02400
C 	C 	0.72448 0.14665 0.61016 -0.02100
N 	N 	0.33467 0.61368 0.70168 -0.17000
N 	N 	0.44612 0.57044 0.77811 -0.16500
N 	N 	0.29792 0.75883 0.66993 -0.17000
N 	N 	0.33134 0.83212 0.55378 -0.16700
C 	C 	0.34434 0.57932 0.70890 0.09600
C 	C 	0.42143 0.54906 0.76181 0.09500
C 	C 	0.28371 0.79089 0.65960 0.09400
C 	C 	0.30640 0.84180 0.57866 0.09000
C 	C 	0.35580 0.53632 0.71746 -0.02500
C 	C 	0.39099 0.52235 0.74126 -0.02200
C 	C 	0.26581 0.83075 0.64717 -0.02400
C 	C 	0.27552 0.85335 0.61016 -0.02100
N 	N 	0.66533 0.61368 0.29832 -0.17000
N 	N 	0.55388 0.57044 0.22189 -0.16600
N 	N 	0.70208 0.75883 0.33007 -0.17000
N 	N 	0.66866 0.83212 0.44622 -0.16700
C 	C 	0.65566 0.57932 0.29110 0.09600
C 	C 	0.57857 0.54906 0.23819 0.09500
C 	C 	0.71629 0.79089 0.34040 0.09400
C 	C 	0.69360 0.84180 0.42134 0.09000
C 	C 	0.64420 0.53632 0.28254 -0.02500
C 	C 	0.60901 0.52235 0.25874 -0.02300
C 	C 	0.73419 0.83075 0.35283 -0.02400
C 	C 	0.72448 0.85335 0.38984 -0.02100
N 	N 	0.33467 0.38632 0.29832 -0.17000
N 	N 	0.44612 0.42956 0.22189 -0.16600
N 	N 	0.29792 0.24117 0.33007 -0.17000
N 	N 	0.33134 0.16788 0.44622 -0.16700
C 	C 	0.34434 0.42068 0.29110 0.09600
C 	C 	0.42143 0.45094 0.23819 0.09500
C 	C 	0.28371 0.20911 0.34040 0.09300
C 	C 	0.30640 0.15820 0.42134 0.08800
C 	C 	0.35580 0.46368 0.28254 -0.02500
C 	C 	0.39099 0.47765 0.25874 -0.02300
C 	C 	0.26581 0.16925 0.35283 -0.02400
C 	C 	0.27552 0.14665 0.38984 -0.02200
N 	N 	0.38632 0.29832 0.33467 -0.17000
N 	N 	0.42956 0.22189 0.44612 -0.16600
N 	N 	0.24117 0.33007 0.29792 -0.17000
N 	N 	0.16788 0.44622 0.33134 -0.16700
C 	C 	0.42068 0.29110 0.34434 0.09600
C 	C 	0.45094 0.23819 0.42143 0.09500
C 	C 	0.20911 0.34040 0.28371 0.09300
C 	C 	0.15820 0.42134 0.30640 0.08800
C 	C 	0.46368 0.28254 0.35580 -0.02500
C 	C 	0.47765 0.25874 0.39099 -0.02300
C 	C 	0.16925 0.35283 0.26581 -0.02400
C 	C 	0.14665 0.38984 0.27552 -0.02200
N 	N 	0.61368 0.29832 0.66533 -0.17000
N 	N 	0.57044 0.22189 0.55388 -0.16600
N 	N 	0.75883 0.33007 0.70208 -0.17000
N 	N 	0.83212 0.44622 0.66866 -0.16700
C 	C 	0.57932 0.29110 0.65566 0.09600
C 	C 	0.54906 0.23819 0.57857 0.09500
C 	C 	0.79089 0.34040 0.71629 0.09400
C 	C 	0.84180 0.42134 0.69360 0.09000
C 	C 	0.53632 0.28254 0.64420 -0.02500
C 	C 	0.52235 0.25874 0.60901 -0.02300
C 	C 	0.83075 0.35283 0.73419 -0.02400
C 	C 	0.85335 0.38984 0.72448 -0.02100
N 	N 	0.61368 0.70168 0.33467 -0.17000
N 	N 	0.57044 0.77811 0.44612 -0.16500
N 	N 	0.75883 0.66993 0.29792 -0.17000
N 	N 	0.83212 0.55378 0.33134 -0.16700
C 	C 	0.57932 0.70890 0.34434 0.09600
C 	C 	0.54906 0.76181 0.42143 0.09500
C 	C 	0.79089 0.65960 0.28371 0.09400
C 	C 	0.84180 0.57866 0.30640 0.09000
C 	C 	0.53632 0.71746 0.35580 -0.02500
C 	C 	0.52235 0.74126 0.39099 -0.02200
C 	C 	0.83075 0.64717 0.26581 -0.02400
C 	C 	0.85335 0.61016 0.27552 -0.02100
N 	N 	0.38632 0.70168 0.66533 -0.17000
N 	N 	0.42956 0.77811 0.55388 -0.16500
N 	N 	0.24117 0.66993 0.70208 -0.17000
N 	N 	0.16788 0.55378 0.66866 -0.16700
C 	C 	0.42068 0.70890 0.65566 0.09600
C 	C 	0.45094 0.76181 0.57857 0.09500
C 	C 	0.20911 0.65960 0.71629 0.09300
C 	C 	0.15820 0.57866 0.69360 0.08900
C 	C 	0.46368 0.71746 0.64420 -0.02400
C 	C 	0.47765 0.74126 0.60901 -0.02200
C 	C 	0.16925 0.64717 0.73419 -0.02400
C 	C 	0.14665 0.61016 0.72448 -0.02100
N 	N 	0.29832 0.66533 0.61368 -0.17000
N 	N 	0.22189 0.55388 0.57044 -0.16600
N 	N 	0.33007 0.70208 0.75883 -0.17000
N 	N 	0.44622 0.66866 0.83212 -0.16700
C 	C 	0.29110 0.65566 0.57932 0.09600
C 	C 	0.23819 0.57857 0.54906 0.09500
C 	C 	0.34040 0.71629 0.79089 0.09400
C 	C 	0.42134 0.69360 0.84180 0.09000
C 	C 	0.28254 0.64420 0.53632 -0.02500
C 	C 	0.25874 0.60901 0.52235 -0.02300
C 	C 	0.35283 0.73419 0.83075 -0.02400
C 	C 	0.38984 0.72448 0.85335 -0.02100
N 	N 	0.29832 0.33467 0.38632 -0.17000
N 	N 	0.22189 0.44612 0.42956 -0.16600
N 	N 	0.33007 0.29792 0.24117 -0.17000
N 	N 	0.44622 0.33134 0.16788 -0.16700
C 	C 	0.29110 0.34434 0.42068 0.09600
C 	C 	0.23819 0.42143 0.45094 0.09500
C 	C 	0.34040 0.28371 0.20911 0.09300
C 	C 	0.42134 0.30640 0.15820 0.08800
C 	C 	0.28254 0.35580 0.46368 -0.02500
C 	C 	0.25874 0.39099 0.47765 -0.02300
C 	C 	0.35283 0.26581 0.16925 -0.02400
C 	C 	0.38984 0.27552 0.14665 -0.02200
N 	N 	0.70168 0.66533 0.38632 -0.17000
N 	N 	0.77811 0.55388 0.42956 -0.16500
N 	N 	0.66993 0.70208 0.24117 -0.17000
N 	N 	0.55378 0.66866 0.16788 -0.16700
C 	C 	0.70890 0.65566 0.42068 0.09600
C 	C 	0.76181 0.57857 0.45094 0.09500
C 	C 	0.65960 0.71629 0.20911 0.09300
C 	C 	0.57866 0.69360 0.15820 0.08900
C 	C 	0.71746 0.64420 0.46368 -0.02400
C 	C 	0.74126 0.60901 0.47765 -0.02200
C 	C 	0.64717 0.73419 0.16925 -0.02400
C 	C 	0.61016 0.72448 0.14665 -0.02100
N 	N 	0.70168 0.33467 0.61368 -0.17000
N 	N 	0.77811 0.44612 0.57044 -0.16500
N 	N 	0.66993 0.29792 0.75883 -0.17000
N 	N 	0.55378 0.33134 0.83212 -0.16700
C 	C 	0.70890 0.34434 0.57932 0.09600
C 	C 	0.76181 0.42143 0.54906 0.09500
C 	C 	0.65960 0.28371 0.79089 0.09400
C 	C 	0.57866 0.30640 0.84180 0.09000
C 	C 	0.71746 0.35580 0.53632 -0.02500
C 	C 	0.74126 0.39099 0.52235 -0.02200
C 	C 	0.64717 0.26581 0.83075 -0.02400
C 	C 	0.61016 0.27552 0.85335 -0.02100
Na	Na	0.18562 0.81438 0.18562 0.58500
Na	Na	0.81438 0.18562 0.18562 0.58500
Na	Na	0.81438 0.81438 0.81438 0.58500
Na	Na	0.18562 0.18562 0.81438 0.58500
Na	Na	0.31438 0.68562 0.31438 0.58500
Na	Na	0.68562 0.31438 0.31438 0.58500
Na	Na	0.31438 0.31438 0.68562 0.58500
Na	Na	0.68562 0.68562 0.68562 0.58500
Na	Na	0.81438 0.18562 0.81438 0.58500
Na	Na	0.18562 0.81438 0.81438 0.58500
Na	Na	0.18562 0.18562 0.18562 0.58500
Na	Na	0.81438 0.81438 0.18562 0.58500
Na	Na	0.68562 0.31438 0.68562 0.58500
Na	Na	0.31438 0.68562 0.68562 0.58500
Na	Na	0.68562 0.68562 0.31438 0.58500
Na	Na	0.31438 0.31438 0.31438 0.58500
Na	Na	0.30462 0.87966 -0.00000 0.58400
O 	O 	0.37480 0.91630 -0.00000 -0.27100
C 	C 	0.37340 0.96080 -0.00000 0.11200
C 	C 	0.41630 0.90010 -0.00000 0.10800
C 	C 	0.43890 0.85770 -0.00000 -0.09000
Na	Na	0.69538 0.12034 -0.00000 0.58400
O 	O 	0.62520 0.08370 -0.00000 -0.26900
C 	C 	0.62660 0.03920 -0.00000 0.09600
C 	C 	0.58370 0.09990 -0.00000 0.10300
C 	C 	0.56110 0.14230 -0.00000 -0.09200
Na	Na	0.69538 0.87966 -0.00000 0.58400
O 	O 	0.62520 0.91630 -0.00000 -0.27100
C 	C 	0.62660 0.96080 -0.00000 0.11200
C 	C 	0.58370 0.90010 -0.00000 0.10800
C 	C 	0.56110 0.85770 -0.00000 -0.09000
Na	Na	0.30462 0.12034 -0.00000 0.58400
O 	O 	0.37480 0.08370 -0.00000 -0.26900
C 	C 	0.37340 0.03920 -0.00000 0.09600
C 	C 	0.41630 0.09990 -0.00000 0.10300
C 	C 	0.43890 0.14230 -0.00000 -0.09200
Na	Na	0.00000 0.30462 0.87966 0.58400
O 	O 	0.00000 0.37480 0.91630 -0.27100
C 	C 	0.00000 0.37340 0.96080 0.11200
C 	C 	0.00000 0.41630 0.90010 0.10800
C 	C 	0.00000 0.43890 0.85770 -0.09000
Na	Na	0.00000 0.69538 0.12034 0.58400
O 	O 	0.00000 0.62520 0.08370 -0.26900
C 	C 	0.00000 0.62660 0.03920 0.09600
C 	C 	0.00000 0.58370 0.09990 0.10300
C 	C 	0.00000 0.56110 0.14230 -0.09200
Na	Na	0.00000 0.69538 0.87966 0.58400
O 	O 	0.00000 0.62520 0.91630 -0.27100
C 	C 	0.00000 0.62660 0.96080 0.11200
C 	C 	0.00000 0.58370 0.90010 0.10800
C 	C 	0.00000 0.56110 0.85770 -0.09000
Na	Na	0.00000 0.30462 0.12034 0.58400
O 	O 	0.00000 0.37480 0.08370 -0.26900
C 	C 	0.00000 0.37340 0.03920 0.09600
C 	C 	0.00000 0.41630 0.09990 0.10300
C 	C 	0.00000 0.43890 0.14230 -0.09200
Na	Na	0.87966 0.00000 0.30462 0.58400
O 	O 	0.91630 0.00000 0.37480 -0.27100
C 	C 	0.96080 0.00000 0.37340 0.11200
C 	C 	0.90010 0.00000 0.41630 0.10800
C 	C 	0.85770 -0.00000 0.43890 -0.09000
Na	Na	0.12034 0.00000 0.69538 0.58400
O 	O 	0.08370 0.00000 0.62520 -0.26900
C 	C 	0.03920 0.00000 0.62660 0.09600
C 	C 	0.09990 0.00000 0.58370 0.10300
C 	C 	0.14230 -0.00000 0.56110 -0.09200
Na	Na	0.87966 0.00000 0.69538 0.58400
O 	O 	0.91630 0.00000 0.62520 -0.27100
C 	C 	0.96080 0.00000 0.62660 0.11200
C 	C 	0.90010 0.00000 0.58370 0.10800
C 	C 	0.85770 -0.00000 0.56110 -0.09000
Na	Na	0.12034 0.00000 0.30462 0.58400
O 	O 	0.08370 0.00000 0.37480 -0.26900
C 	C 	0.03920 0.00000 0.37340 0.09600
C 	C 	0.09990 0.00000 0.41630 0.10300
C 	C 	0.14230 -0.00000 0.43890 -0.09200
Na	Na	0.37966 0.80462 0.50000 0.58500
O 	O 	0.41630 0.87480 0.50000 -0.26600
C 	C 	0.46080 0.87340 0.50000 0.10100
C 	C 	0.40010 0.91630 0.50000 0.10900
C 	C 	0.35770 0.93890 0.50000 -0.08200
Na	Na	0.62034 0.19538 0.50000 0.58500
O 	O 	0.58370 0.12520 0.50000 -0.26600
C 	C 	0.53920 0.12660 0.50000 0.09700
C 	C 	0.59990 0.08370 0.50000 0.10500
C 	C 	0.64230 0.06110 0.50000 -0.09100
Na	Na	0.37966 0.19538 0.50000 0.58500
O 	O 	0.41630 0.12520 0.50000 -0.26600
C 	C 	0.46080 0.12660 0.50000 0.09700
C 	C 	0.40010 0.08370 0.50000 0.10500
C 	C 	0.35770 0.06110 0.50000 -0.09100
Na	Na	0.62034 0.80462 0.50000 0.58500
O 	O 	0.58370 0.87480 0.50000 -0.26600
C 	C 	0.53920 0.87340 0.50000 0.10100
C 	C 	0.59990 0.91630 0.50000 0.10900
C 	C 	0.64230 0.93890 0.50000 -0.08200
Na	Na	0.80462 0.50000 0.62034 0.58500
O 	O 	0.87480 0.50000 0.58370 -0.26600
C 	C 	0.87340 0.50000 0.53920 0.10100
C 	C 	0.91630 0.50000 0.59990 0.10900
C 	C 	0.93890 0.50000 0.64230 -0.08200
Na	Na	0.19538 0.50000 0.37966 0.58500
O 	O 	0.12520 0.50000 0.41630 -0.26600
C 	C 	0.12660 0.50000 0.46080 0.09700
C 	C 	0.08370 0.50000 0.40010 0.10500
C 	C 	0.06110 0.50000 0.35770 -0.09100
Na	Na	0.19538 0.50000 0.62034 0.58500
O 	O 	0.12520 0.50000 0.58370 -0.26600
C 	C 	0.12660 0.50000 0.53920 0.09700
C 	C 	0.08370 0.50000 0.59990 0.10500
C 	C 	0.06110 0.50000 0.64230 -0.09100
Na	Na	0.80462 0.50000 0.37966 0.58500
O 	O 	0.87480 0.50000 0.41630 -0.26600
C 	C 	0.87340 0.50000 0.46080 0.10100
C 	C 	0.91630 0.50000 0.40010 0.10900
C 	C 	0.93890 0.50000 0.35770 -0.08200
Na	Na	0.50000 0.37966 0.19538 0.58500
O 	O 	0.50000 0.41630 0.12520 -0.26600
C 	C 	0.50000 0.46080 0.12660 0.09700
C 	C 	0.50000 0.40010 0.08370 0.10500
C 	C 	0.50000 0.35770 0.06110 -0.09100
Na	Na	0.50000 0.62034 0.80462 0.58500
O 	O 	0.50000 0.58370 0.87480 -0.26600
C 	C 	0.50000 0.53920 0.87340 0.10100
C 	C 	0.50000 0.59990 0.91630 0.10900
C 	C 	0.50000 0.64230 0.93890 -0.08200
Na	Na	0.50000 0.37966 0.80462 0.58500
O 	O 	0.50000 0.41630 0.87480 -0.26600
C 	C 	0.50000 0.46080 0.87340 0.10100
C 	C 	0.50000 0.40010 0.91630 0.10900
C 	C 	0.50000 0.35770 0.93890 -0.08200
Na	Na	0.50000 0.62034 0.19538 0.58500
O 	O 	0.50000 0.58370 0.12520 -0.26600
C 	C 	0.50000 0.53920 0.12660 0.09700
C 	C 	0.50000 0.59990 0.08370 0.10500
C 	C 	0.50000 0.64230 0.06110 -0.09100
Na	Na	0.50000 0.76920 -0.00000 0.51800
Na	Na	0.50000 0.23080 -0.00000 0.51800
Na	Na	0.00000 0.50000 0.76920 0.51800
Na	Na	0.00000 0.50000 0.23080 0.51800
Na	Na	0.76920 0.00000 0.50000 0.51800
Na	Na	0.23080 0.00000 0.50000 0.51800
Na	Na	0.26920 0.00000 0.50000 0.51700
Na	Na	0.73080 0.00000 0.50000 0.51700
Na	Na	-0.00000 0.50000 0.73080 0.51700
Na	Na	0.00000 0.50000 0.26920 0.51700
Na	Na	0.50000 0.26920 -0.00000 0.51700
Na	Na	0.50000 0.73080 -0.00000 0.51700
N 	N 	0.00000 0.76550 0.15760 -0.17100
C 	C 	0.00000 0.79600 0.17730 0.09400
C 	C 	0.00000 0.83400 0.20240 -0.03900
N 	N 	0.00000 0.23450 0.15760 -0.17200
C 	C 	0.00000 0.20400 0.17730 0.09400
C 	C 	0.00000 0.16600 0.20240 -0.03900
N 	N 	0.00000 0.76550 0.84240 -0.17100
C 	C 	0.00000 0.79600 0.82270 0.09500
C 	C 	0.00000 0.83400 0.79760 -0.03800
N 	N 	0.00000 0.23450 0.84240 -0.17100
C 	C 	-0.00000 0.20400 0.82270 0.09500
C 	C 	0.00000 0.16600 0.79760 -0.03900
N 	N 	0.15760 -0.00000 0.76550 -0.17100
C 	C 	0.17730 0.00000 0.79600 0.09400
C 	C 	0.20240 -0.00000 0.83400 -0.03900
N 	N 	0.15760 -0.00000 0.23450 -0.17200
C 	C 	0.17730 -0.00000 0.20400 0.09400
C 	C 	0.20240 0.00000 0.16600 -0.03900
N 	N 	0.84240 -0.00000 0.76550 -0.17100
C 	C 	0.82270 0.00000 0.79600 0.09500
C 	C 	0.79760 -0.00000 0.83400 -0.03800
N 	N 	0.84240 -0.00000 0.23450 -0.17100
C 	C 	0.82270 -0.00000 0.20400 0.09500
C 	C 	0.79760 0.00000 0.16600 -0.03900
N 	N 	0.76550 0.15760 -0.00000 -0.17100
C 	C 	0.79600 0.17730 -0.00000 0.09400
C 	C 	0.83400 0.20240 -0.00000 -0.03900
N 	N 	0.23450 0.15760 -0.00000 -0.17200
C 	C 	0.20400 0.17730 -0.00000 0.09400
C 	C 	0.16600 0.20240 -0.00000 -0.03900
N 	N 	0.76550 0.84240 -0.00000 -0.17100
C 	C 	0.79600 0.82270 -0.00000 0.09500
C 	C 	0.83400 0.79760 -0.00000 -0.03800
N 	N 	0.23450 0.84240 -0.00000 -0.17100
C 	C 	0.20400 0.82270 -0.00000 0.09500
C 	C 	0.16600 0.79760 -0.00000 -0.03900
N 	N 	0.26550 0.50000 0.34240 -0.16700
C 	C 	0.29600 0.50000 0.32270 0.09400
C 	C 	0.33400 0.50000 0.29760 -0.02300
N 	N 	0.73450 0.50000 0.34240 -0.16700
C 	C 	0.70400 0.50000 0.32270 0.09400
C 	C 	0.66600 0.50000 0.29760 -0.02300
N 	N 	0.26550 0.50000 0.65760 -0.16700
C 	C 	0.29600 0.50000 0.67730 0.09400
C 	C 	0.33400 0.50000 0.70240 -0.02200
N 	N 	0.73450 0.50000 0.65760 -0.16700
C 	C 	0.70400 0.50000 0.67730 0.09400
C 	C 	0.66600 0.50000 0.70240 -0.02200
N 	N 	0.50000 0.65760 0.73450 -0.16700
C 	C 	0.50000 0.67730 0.70400 0.09400
C 	C 	0.50000 0.70240 0.66600 -0.02200
N 	N 	0.50000 0.65760 0.26550 -0.16700
C 	C 	0.50000 0.67730 0.29600 0.09400
C 	C 	0.50000 0.70240 0.33400 -0.02200
N 	N 	0.50000 0.34240 0.73450 -0.16700
C 	C 	0.50000 0.32270 0.70400 0.09400
C 	C 	0.50000 0.29760 0.66600 -0.02300
N 	N 	0.50000 0.34240 0.26550 -0.16700
C 	C 	0.50000 0.32270 0.29600 0.09400
C 	C 	0.50000 0.29760 0.33400 -0.02300
N 	N 	0.65760 0.26550 0.50000 -0.16700
C 	C 	0.67730 0.29600 0.50000 0.09400
C 	C 	0.70240 0.33400 0.50000 -0.02200
N 	N 	0.65760 0.73450 0.50000 -0.16700
C 	C 	0.67730 0.70400 0.50000 0.09400
C 	C 	0.70240 0.66600 0.50000 -0.02200
N 	N 	0.34240 0.26550 0.50000 -0.16700
C 	C 	0.32270 0.29600 0.50000 0.09400
C 	C 	0.29760 0.33400 0.50000 -0.02300
N 	N 	0.34240 0.73450 0.50000 -0.16700
C 	C 	0.32270 0.70400 0.50000 0.09400
C 	C 	0.29760 0.66600 0.50000 -0.02300
N 	N 	0.44837 0.75000 0.05163 -0.24100
C 	C 	0.42240 0.75000 0.07760 0.09400
C 	C 	0.39009 0.75000 0.10991 -0.03200
N 	N 	0.55163 0.25000 0.05163 -0.24100
C 	C 	0.57760 0.25000 0.07760 0.09400
C 	C 	0.60991 0.25000 0.10991 -0.03300
N 	N 	0.55163 0.75000 0.94837 -0.23500
C 	C 	0.57760 0.75000 0.92240 0.09800
C 	C 	0.60991 0.75000 0.89009 -0.03100
N 	N 	0.44837 0.25000 0.94837 -0.23500
C 	C 	0.42240 0.25000 0.92240 0.09700
C 	C 	0.39009 0.25000 0.89009 -0.03100
N 	N 	0.05163 0.44837 0.75000 -0.24100
C 	C 	0.07760 0.42240 0.75000 0.09400
C 	C 	0.10991 0.39009 0.75000 -0.03200
N 	N 	0.05163 0.55163 0.25000 -0.24100
C 	C 	0.07760 0.57760 0.25000 0.09400
C 	C 	0.10991 0.60991 0.25000 -0.03300
N 	N 	0.94837 0.55163 0.75000 -0.23500
C 	C 	0.92240 0.57760 0.75000 0.09800
C 	C 	0.89009 0.60991 0.75000 -0.03100
N 	N 	0.94837 0.44837 0.25000 -0.23500
C 	C 	0.92240 0.42240 0.25000 0.09700
C 	C 	0.89009 0.39009 0.25000 -0.03100
N 	N 	0.75000 0.05163 0.44837 -0.24100
C 	C 	0.75000 0.07760 0.42240 0.09400
C 	C 	0.75000 0.10991 0.39009 -0.03200
N 	N 	0.25000 0.05163 0.55163 -0.24100
C 	C 	0.25000 0.07760 0.57760 0.09400
C 	C 	0.25000 0.10991 0.60991 -0.03300
N 	N 	0.75000 0.94837 0.55163 -0.23500
C 	C 	0.75000 0.92240 0.57760 0.09800
C 	C 	0.75000 0.89009 0.60991 -0.03100
N 	N 	0.25000 0.94837 0.44837 -0.23500
C 	C 	0.25000 0.92240 0.42240 0.09700
C 	C 	0.25000 0.89009 0.39009 -0.03100
N 	N 	0.55163 0.25000 0.94837 -0.23500
C 	C 	0.57760 0.25000 0.92240 0.09700
C 	C 	0.60991 0.25000 0.89009 -0.03100
N 	N 	0.44837 0.75000 0.94837 -0.23500
C 	C 	0.42240 0.75000 0.92240 0.09800
C 	C 	0.39009 0.75000 0.89009 -0.03100
N 	N 	0.44837 0.25000 0.05163 -0.24100
C 	C 	0.42240 0.25000 0.07760 0.09400
C 	C 	0.39009 0.25000 0.10991 -0.03300
N 	N 	0.55163 0.75000 0.05163 -0.24100
C 	C 	0.57760 0.75000 0.07760 0.09400
C 	C 	0.60991 0.75000 0.10991 -0.03200
N 	N 	0.94837 0.55163 0.25000 -0.23500
C 	C 	0.92240 0.57760 0.25000 0.09700
C 	C 	0.89009 0.60991 0.25000 -0.03100
N 	N 	0.94837 0.44837 0.75000 -0.23500
C 	C 	0.92240 0.42240 0.75000 0.09800
C 	C 	0.89009 0.39009 0.75000 -0.03100
N 	N 	0.05163 0.44837 0.25000 -0.24100
C 	C 	0.07760 0.42240 0.25000 0.09400
C 	C 	0.10991 0.39009 0.25000 -0.03300
N 	N 	0.05163 0.55163 0.75000 -0.24100
C 	C 	0.07760 0.57760 0.75000 0.09400
C 	C 	0.10991 0.60991 0.75000 -0.03200
N 	N 	0.25000 0.94837 0.55163 -0.23500
C 	C 	0.25000 0.92240 0.57760 0.09700
C 	C 	0.25000 0.89009 0.60991 -0.03100
N 	N 	0.75000 0.94837 0.44837 -0.23500
C 	C 	0.75000 0.92240 0.42240 0.09800
C 	C 	0.75000 0.89009 0.39009 -0.03100
N 	N 	0.25000 0.05163 0.44837 -0.24100
C 	C 	0.25000 0.07760 0.42240 0.09400
C 	C 	0.25000 0.10991 0.39009 -0.03300
N 	N 	0.75000 0.05163 0.55163 -0.24100
C 	C 	0.75000 0.07760 0.57760 0.09400
C 	C 	0.75000 0.10991 0.60991 -0.03200
C 	C 	0.34590 0.00000 -0.00000 -0.08100
C 	C 	0.65410 0.00000 -0.00000 -0.08100
C 	C 	0.00000 0.34590 -0.00000 -0.08100
C 	C 	0.00000 0.65410 -0.00000 -0.08100
C 	C 	0.00000 0.00000 0.34590 -0.08100
C 	C 	0.00000 0.00000 0.65410 -0.08100
C 	C 	0.50000 0.84590 0.50000 -0.06300
C 	C 	0.50000 0.15410 0.50000 -0.06300
C 	C 	0.84590 0.50000 0.50000 -0.06300
C 	C 	0.15410 0.50000 0.50000 -0.06300
C 	C 	0.50000 0.50000 0.15410 -0.06300
C 	C 	0.50000 0.50000 0.84590 -0.06300
