data_crystal

_cell_length_a 31.25100
_cell_length_b 31.25100
_cell_length_c 31.25100
_cell_angle_alpha 90.00000
_cell_angle_beta  90.00000
_cell_angle_gamma 90.00000

_symmetry_space_group_name_	'P 1'
_symmetry_space_group_name_H-M	'P 1'

loop_
_symmetry_equiv_pos_as_xyz
  x,y,z

loop_
_atom_site_label
_atom_site_type_symbol
_atom_site_fract_x
_atom_site_fract_y
_atom_site_fract_z
_atom_site_charge
N 	N 	0.33462 0.61375 0.29859 -0.17000
N 	N 	0.44593 0.57048 0.22146 -0.18000
N 	N 	0.29777 0.75901 0.32997 -0.17000
N 	N 	0.33125 0.83200 0.44621 -0.18100
C 	C 	0.34415 0.57935 0.29133 0.09200
C 	C 	0.42140 0.54906 0.23794 0.08700
C 	C 	0.28377 0.79108 0.34019 0.09100
C 	C 	0.30618 0.84184 0.42137 0.08000
C 	C 	0.35595 0.53621 0.28273 -0.02500
C 	C 	0.39108 0.52226 0.25901 -0.02500
C 	C 	0.26577 0.83056 0.35280 -0.02600
C 	C 	0.27563 0.85359 0.38993 -0.02400
N 	N 	0.66538 0.38625 0.29859 -0.17100
N 	N 	0.55407 0.42952 0.22146 -0.18100
N 	N 	0.70223 0.24099 0.32997 -0.17100
N 	N 	0.66875 0.16800 0.44621 -0.18300
C 	C 	0.65585 0.42065 0.29133 0.09300
C 	C 	0.57860 0.45094 0.23794 0.08700
C 	C 	0.71623 0.20892 0.34019 0.09100
C 	C 	0.69382 0.15816 0.42137 0.07800
C 	C 	0.64405 0.46379 0.28273 -0.02500
C 	C 	0.60892 0.47774 0.25901 -0.02500
C 	C 	0.73423 0.16944 0.35280 -0.02700
C 	C 	0.72437 0.14641 0.38993 -0.02400
N 	N 	0.66538 0.61375 0.70141 -0.17100
N 	N 	0.55407 0.57048 0.77854 -0.17900
N 	N 	0.70223 0.75901 0.67003 -0.17100
N 	N 	0.66875 0.83200 0.55379 -0.18200
C 	C 	0.65585 0.57935 0.70867 0.09300
C 	C 	0.57860 0.54906 0.76206 0.08800
C 	C 	0.71623 0.79108 0.65981 0.09200
C 	C 	0.69382 0.84184 0.57863 0.08000
C 	C 	0.64405 0.53621 0.71727 -0.02400
C 	C 	0.60892 0.52226 0.74099 -0.02500
C 	C 	0.73423 0.83056 0.64720 -0.02600
C 	C 	0.72437 0.85359 0.61007 -0.02400
N 	N 	0.33462 0.38625 0.70141 -0.17100
N 	N 	0.44593 0.42952 0.77854 -0.18000
N 	N 	0.29777 0.24099 0.67003 -0.17200
N 	N 	0.33125 0.16800 0.55379 -0.18300
C 	C 	0.34415 0.42065 0.70867 0.09300
C 	C 	0.42140 0.45094 0.76206 0.08800
C 	C 	0.28377 0.20892 0.65981 0.09000
C 	C 	0.30618 0.15816 0.57863 0.07800
C 	C 	0.35595 0.46379 0.71727 -0.02400
C 	C 	0.39108 0.47774 0.74099 -0.02500
C 	C 	0.26577 0.16944 0.64720 -0.02700
C 	C 	0.27563 0.14641 0.61007 -0.02500
N 	N 	0.29859 0.33462 0.61375 -0.17100
N 	N 	0.22146 0.44593 0.57048 -0.18100
N 	N 	0.32997 0.29777 0.75901 -0.17100
N 	N 	0.44621 0.33125 0.83200 -0.18200
C 	C 	0.29133 0.34415 0.57935 0.09200
C 	C 	0.23794 0.42140 0.54906 0.08700
C 	C 	0.34019 0.28377 0.79108 0.09100
C 	C 	0.42137 0.30618 0.84184 0.08000
C 	C 	0.28273 0.35595 0.53621 -0.02500
C 	C 	0.25901 0.39108 0.52226 -0.02500
C 	C 	0.35280 0.26577 0.83056 -0.02600
C 	C 	0.38993 0.27563 0.85359 -0.02400
N 	N 	0.29859 0.66538 0.38625 -0.17100
N 	N 	0.22146 0.55407 0.42952 -0.18100
N 	N 	0.32997 0.70223 0.24099 -0.17100
N 	N 	0.44621 0.66875 0.16800 -0.18300
C 	C 	0.29133 0.65585 0.42065 0.09300
C 	C 	0.23794 0.57860 0.45094 0.08700
C 	C 	0.34019 0.71623 0.20892 0.09100
C 	C 	0.42137 0.69382 0.15816 0.07800
C 	C 	0.28273 0.64405 0.46379 -0.02500
C 	C 	0.25901 0.60892 0.47774 -0.02500
C 	C 	0.35280 0.73423 0.16944 -0.02700
C 	C 	0.38993 0.72437 0.14641 -0.02400
N 	N 	0.70141 0.66538 0.61375 -0.17100
N 	N 	0.77854 0.55407 0.57048 -0.17900
N 	N 	0.67003 0.70223 0.75901 -0.17100
N 	N 	0.55379 0.66875 0.83200 -0.18200
C 	C 	0.70867 0.65585 0.57935 0.09300
C 	C 	0.76206 0.57860 0.54906 0.08800
C 	C 	0.65981 0.71623 0.79108 0.09200
C 	C 	0.57863 0.69382 0.84184 0.08000
C 	C 	0.71727 0.64405 0.53621 -0.02400
C 	C 	0.74099 0.60892 0.52226 -0.02500
C 	C 	0.64720 0.73423 0.83056 -0.02600
C 	C 	0.61007 0.72437 0.85359 -0.02400
N 	N 	0.70141 0.33462 0.38625 -0.17100
N 	N 	0.77854 0.44593 0.42952 -0.18000
N 	N 	0.67003 0.29777 0.24099 -0.17200
N 	N 	0.55379 0.33125 0.16800 -0.18300
C 	C 	0.70867 0.34415 0.42065 0.09300
C 	C 	0.76206 0.42140 0.45094 0.08800
C 	C 	0.65981 0.28377 0.20892 0.09000
C 	C 	0.57863 0.30618 0.15816 0.07800
C 	C 	0.71727 0.35595 0.46379 -0.02400
C 	C 	0.74099 0.39108 0.47774 -0.02500
C 	C 	0.64720 0.26577 0.16944 -0.02700
C 	C 	0.61007 0.27563 0.14641 -0.02500
N 	N 	0.61375 0.29859 0.33462 -0.17100
N 	N 	0.57048 0.22146 0.44593 -0.18100
N 	N 	0.75901 0.32997 0.29777 -0.17100
N 	N 	0.83200 0.44621 0.33125 -0.18200
C 	C 	0.57935 0.29133 0.34415 0.09200
C 	C 	0.54906 0.23794 0.42140 0.08700
C 	C 	0.79108 0.34019 0.28377 0.09100
C 	C 	0.84184 0.42137 0.30618 0.08000
C 	C 	0.53621 0.28273 0.35595 -0.02500
C 	C 	0.52226 0.25901 0.39108 -0.02500
C 	C 	0.83056 0.35280 0.26577 -0.02600
C 	C 	0.85359 0.38993 0.27563 -0.02400
N 	N 	0.38625 0.29859 0.66538 -0.17100
N 	N 	0.42952 0.22146 0.55407 -0.18100
N 	N 	0.24099 0.32997 0.70223 -0.17100
N 	N 	0.16800 0.44621 0.66875 -0.18300
C 	C 	0.42065 0.29133 0.65585 0.09300
C 	C 	0.45094 0.23794 0.57860 0.08700
C 	C 	0.20892 0.34019 0.71623 0.09100
C 	C 	0.15816 0.42137 0.69382 0.07800
C 	C 	0.46379 0.28273 0.64405 -0.02500
C 	C 	0.47774 0.25901 0.60892 -0.02500
C 	C 	0.16944 0.35280 0.73423 -0.02700
C 	C 	0.14641 0.38993 0.72437 -0.02400
N 	N 	0.61375 0.70141 0.66538 -0.17100
N 	N 	0.57048 0.77854 0.55407 -0.17900
N 	N 	0.75901 0.67003 0.70223 -0.17100
N 	N 	0.83200 0.55379 0.66875 -0.18200
C 	C 	0.57935 0.70867 0.65585 0.09300
C 	C 	0.54906 0.76206 0.57860 0.08800
C 	C 	0.79108 0.65981 0.71623 0.09200
C 	C 	0.84184 0.57863 0.69382 0.08000
C 	C 	0.53621 0.71727 0.64405 -0.02400
C 	C 	0.52226 0.74099 0.60892 -0.02500
C 	C 	0.83056 0.64720 0.73423 -0.02600
C 	C 	0.85359 0.61007 0.72437 -0.02400
N 	N 	0.38625 0.70141 0.33462 -0.17100
N 	N 	0.42952 0.77854 0.44593 -0.18000
N 	N 	0.24099 0.67003 0.29777 -0.17200
N 	N 	0.16800 0.55379 0.33125 -0.18300
C 	C 	0.42065 0.70867 0.34415 0.09300
C 	C 	0.45094 0.76206 0.42140 0.08800
C 	C 	0.20892 0.65981 0.28377 0.09000
C 	C 	0.15816 0.57863 0.30618 0.07800
C 	C 	0.46379 0.71727 0.35595 -0.02400
C 	C 	0.47774 0.74099 0.39108 -0.02500
C 	C 	0.16944 0.64720 0.26577 -0.02700
C 	C 	0.14641 0.61007 0.27563 -0.02500
N 	N 	0.11375 0.83462 0.20141 -0.17000
N 	N 	0.07048 0.94593 0.27854 -0.17900
N 	N 	0.25901 0.79777 0.17003 -0.17100
N 	N 	0.33200 0.83125 0.05379 -0.18500
C 	C 	0.07935 0.84415 0.20867 0.08800
C 	C 	0.04906 0.92140 0.26206 0.09200
C 	C 	0.29108 0.78377 0.15981 0.09100
C 	C 	0.34184 0.80618 0.07863 0.07700
C 	C 	0.03621 0.85595 0.21727 -0.01400
C 	C 	0.02226 0.89108 0.24099 -0.04500
C 	C 	0.33056 0.76577 0.14720 -0.02700
C 	C 	0.35359 0.77563 0.11007 -0.02500
N 	N 	0.88625 0.16538 0.20141 -0.17000
N 	N 	0.92952 0.05407 0.27854 -0.18000
N 	N 	0.74099 0.20223 0.17003 -0.17200
N 	N 	0.66800 0.16875 0.05379 -0.18600
C 	C 	0.92065 0.15585 0.20867 0.09200
C 	C 	0.95094 0.07860 0.26206 0.08500
C 	C 	0.70892 0.21623 0.15981 0.09000
C 	C 	0.65816 0.19382 0.07863 0.07600
C 	C 	0.96379 0.14405 0.21727 -0.01000
C 	C 	0.97774 0.10892 0.24099 -0.01000
C 	C 	0.66944 0.23423 0.14720 -0.02700
C 	C 	0.64641 0.22437 0.11007 -0.02500
N 	N 	0.11375 0.16538 0.79859 -0.17000
N 	N 	0.07048 0.05407 0.72146 -0.18600
N 	N 	0.25901 0.20223 0.82997 -0.17100
N 	N 	0.33200 0.16875 0.94621 -0.17900
C 	C 	0.07935 0.15585 0.79133 0.08700
C 	C 	0.04906 0.07860 0.73794 0.08700
C 	C 	0.29108 0.21623 0.84019 0.09200
C 	C 	0.34184 0.19382 0.92137 0.08100
C 	C 	0.03621 0.14405 0.78273 -0.01500
C 	C 	0.02226 0.10892 0.75901 -0.04700
C 	C 	0.33056 0.23423 0.85280 -0.02600
C 	C 	0.35359 0.22437 0.88993 -0.02300
N 	N 	0.88625 0.83462 0.79859 -0.16900
N 	N 	0.92952 0.94593 0.72146 -0.17300
N 	N 	0.74099 0.79777 0.82997 -0.17100
N 	N 	0.66800 0.83125 0.94621 -0.17700
C 	C 	0.92065 0.84415 0.79133 0.09400
C 	C 	0.95094 0.92140 0.73794 0.09100
C 	C 	0.70892 0.78377 0.84019 0.09300
C 	C 	0.65816 0.80618 0.92137 0.08200
C 	C 	0.96379 0.85595 0.78273 -0.00900
C 	C 	0.97774 0.89108 0.75901 -0.00700
C 	C 	0.66944 0.76577 0.85280 -0.02600
C 	C 	0.64641 0.77563 0.88993 -0.02300
N 	N 	0.83462 0.79859 0.88625 -0.16900
N 	N 	0.94593 0.72146 0.92952 -0.17300
N 	N 	0.79777 0.82997 0.74099 -0.17100
N 	N 	0.83125 0.94621 0.66800 -0.17700
C 	C 	0.84415 0.79133 0.92065 0.09400
C 	C 	0.92140 0.73794 0.95094 0.09100
C 	C 	0.78377 0.84019 0.70892 0.09300
C 	C 	0.80618 0.92137 0.65816 0.08200
C 	C 	0.85595 0.78273 0.96379 -0.00900
C 	C 	0.89108 0.75901 0.97774 -0.00700
C 	C 	0.76577 0.85280 0.66944 -0.02600
C 	C 	0.77563 0.88993 0.64641 -0.02300
N 	N 	0.16538 0.79859 0.11375 -0.17000
N 	N 	0.05407 0.72146 0.07048 -0.18600
N 	N 	0.20223 0.82997 0.25901 -0.17100
N 	N 	0.16875 0.94621 0.33200 -0.17900
C 	C 	0.15585 0.79133 0.07935 0.08700
C 	C 	0.07860 0.73794 0.04906 0.08700
C 	C 	0.21623 0.84019 0.29108 0.09200
C 	C 	0.19382 0.92137 0.34184 0.08100
C 	C 	0.14405 0.78273 0.03621 -0.01500
C 	C 	0.10892 0.75901 0.02226 -0.04700
C 	C 	0.23423 0.85280 0.33056 -0.02600
C 	C 	0.22437 0.88993 0.35359 -0.02300
N 	N 	0.16538 0.20141 0.88625 -0.17000
N 	N 	0.05407 0.27854 0.92952 -0.18000
N 	N 	0.20223 0.17003 0.74099 -0.17200
N 	N 	0.16875 0.05379 0.66800 -0.18600
C 	C 	0.15585 0.20867 0.92065 0.09200
C 	C 	0.07860 0.26206 0.95094 0.08500
C 	C 	0.21623 0.15981 0.70892 0.09000
C 	C 	0.19382 0.07863 0.65816 0.07600
C 	C 	0.14405 0.21727 0.96379 -0.01000
C 	C 	0.10892 0.24099 0.97774 -0.01000
C 	C 	0.23423 0.14720 0.66944 -0.02700
C 	C 	0.22437 0.11007 0.64641 -0.02500
N 	N 	0.83462 0.20141 0.11375 -0.17000
N 	N 	0.94593 0.27854 0.07048 -0.17900
N 	N 	0.79777 0.17003 0.25901 -0.17100
N 	N 	0.83125 0.05379 0.33200 -0.18500
C 	C 	0.84415 0.20867 0.07935 0.08800
C 	C 	0.92140 0.26206 0.04906 0.09200
C 	C 	0.78377 0.15981 0.29108 0.09100
C 	C 	0.80618 0.07863 0.34184 0.07700
C 	C 	0.85595 0.21727 0.03621 -0.01400
C 	C 	0.89108 0.24099 0.02226 -0.04500
C 	C 	0.76577 0.14720 0.33056 -0.02700
C 	C 	0.77563 0.11007 0.35359 -0.02500
N 	N 	0.79859 0.11375 0.16538 -0.17000
N 	N 	0.72146 0.07048 0.05407 -0.18600
N 	N 	0.82997 0.25901 0.20223 -0.17100
N 	N 	0.94621 0.33200 0.16875 -0.17900
C 	C 	0.79133 0.07935 0.15585 0.08700
C 	C 	0.73794 0.04906 0.07860 0.08700
C 	C 	0.84019 0.29108 0.21623 0.09200
C 	C 	0.92137 0.34184 0.19382 0.08100
C 	C 	0.78273 0.03621 0.14405 -0.01500
C 	C 	0.75901 0.02226 0.10892 -0.04700
C 	C 	0.85280 0.33056 0.23423 -0.02600
C 	C 	0.88993 0.35359 0.22437 -0.02300
N 	N 	0.79859 0.88625 0.83462 -0.16900
N 	N 	0.72146 0.92952 0.94593 -0.17300
N 	N 	0.82997 0.74099 0.79777 -0.17100
N 	N 	0.94621 0.66800 0.83125 -0.17700
C 	C 	0.79133 0.92065 0.84415 0.09400
C 	C 	0.73794 0.95094 0.92140 0.09100
C 	C 	0.84019 0.70892 0.78377 0.09300
C 	C 	0.92137 0.65816 0.80618 0.08200
C 	C 	0.78273 0.96379 0.85595 -0.00900
C 	C 	0.75901 0.97774 0.89108 -0.00700
C 	C 	0.85280 0.66944 0.76577 -0.02600
C 	C 	0.88993 0.64641 0.77563 -0.02300
N 	N 	0.20141 0.11375 0.83462 -0.17000
N 	N 	0.27854 0.07048 0.94593 -0.17900
N 	N 	0.17003 0.25901 0.79777 -0.17100
N 	N 	0.05379 0.33200 0.83125 -0.18500
C 	C 	0.20867 0.07935 0.84415 0.08800
C 	C 	0.26206 0.04906 0.92140 0.09200
C 	C 	0.15981 0.29108 0.78377 0.09100
C 	C 	0.07863 0.34184 0.80618 0.07700
C 	C 	0.21727 0.03621 0.85595 -0.01400
C 	C 	0.24099 0.02226 0.89108 -0.04500
C 	C 	0.14720 0.33056 0.76577 -0.02700
C 	C 	0.11007 0.35359 0.77563 -0.02500
N 	N 	0.20141 0.88625 0.16538 -0.17000
N 	N 	0.27854 0.92952 0.05407 -0.18000
N 	N 	0.17003 0.74099 0.20223 -0.17200
N 	N 	0.05379 0.66800 0.16875 -0.18600
C 	C 	0.20867 0.92065 0.15585 0.09200
C 	C 	0.26206 0.95094 0.07860 0.08500
C 	C 	0.15981 0.70892 0.21623 0.09000
C 	C 	0.07863 0.65816 0.19382 0.07600
C 	C 	0.21727 0.96379 0.14405 -0.01000
C 	C 	0.24099 0.97774 0.10892 -0.01000
C 	C 	0.14720 0.66944 0.23423 -0.02700
C 	C 	0.11007 0.64641 0.22437 -0.02500
N 	N 	0.66538 0.38625 0.70141 -0.17100
N 	N 	0.55407 0.42952 0.77854 -0.17900
N 	N 	0.70223 0.24099 0.67003 -0.17100
N 	N 	0.66875 0.16800 0.55379 -0.18300
C 	C 	0.65585 0.42065 0.70867 0.09300
C 	C 	0.57860 0.45094 0.76206 0.08800
C 	C 	0.71623 0.20892 0.65981 0.09100
C 	C 	0.69382 0.15816 0.57863 0.07800
C 	C 	0.64405 0.46379 0.71727 -0.02400
C 	C 	0.60892 0.47774 0.74099 -0.02500
C 	C 	0.73423 0.16944 0.64720 -0.02700
C 	C 	0.72437 0.14641 0.61007 -0.02400
N 	N 	0.33462 0.61375 0.70141 -0.17100
N 	N 	0.44593 0.57048 0.77854 -0.18000
N 	N 	0.29777 0.75901 0.67003 -0.17100
N 	N 	0.33125 0.83200 0.55379 -0.18200
C 	C 	0.34415 0.57935 0.70867 0.09300
C 	C 	0.42140 0.54906 0.76206 0.08800
C 	C 	0.28377 0.79108 0.65981 0.09100
C 	C 	0.30618 0.84184 0.57863 0.08000
C 	C 	0.35595 0.53621 0.71727 -0.02400
C 	C 	0.39108 0.52226 0.74099 -0.02500
C 	C 	0.26577 0.83056 0.64720 -0.02600
C 	C 	0.27563 0.85359 0.61007 -0.02400
N 	N 	0.33462 0.38625 0.29859 -0.17100
N 	N 	0.44593 0.42952 0.22146 -0.18100
N 	N 	0.29777 0.24099 0.32997 -0.17200
N 	N 	0.33125 0.16800 0.44621 -0.18300
C 	C 	0.34415 0.42065 0.29133 0.09200
C 	C 	0.42140 0.45094 0.23794 0.08700
C 	C 	0.28377 0.20892 0.34019 0.09000
C 	C 	0.30618 0.15816 0.42137 0.07700
C 	C 	0.35595 0.46379 0.28273 -0.02500
C 	C 	0.39108 0.47774 0.25901 -0.02500
C 	C 	0.26577 0.16944 0.35280 -0.02700
C 	C 	0.27563 0.14641 0.38993 -0.02500
N 	N 	0.66538 0.61375 0.29859 -0.17100
N 	N 	0.55407 0.57048 0.22146 -0.18100
N 	N 	0.70223 0.75901 0.32997 -0.17100
N 	N 	0.66875 0.83200 0.44621 -0.18200
C 	C 	0.65585 0.57935 0.29133 0.09200
C 	C 	0.57860 0.54906 0.23794 0.08700
C 	C 	0.71623 0.79108 0.34019 0.09200
C 	C 	0.69382 0.84184 0.42137 0.08000
C 	C 	0.64405 0.53621 0.28273 -0.02500
C 	C 	0.60892 0.52226 0.25901 -0.02500
C 	C 	0.73423 0.83056 0.35280 -0.02600
C 	C 	0.72437 0.85359 0.38993 -0.02400
N 	N 	0.70141 0.66538 0.38625 -0.17100
N 	N 	0.77854 0.55407 0.42952 -0.17900
N 	N 	0.67003 0.70223 0.24099 -0.17100
N 	N 	0.55379 0.66875 0.16800 -0.18300
C 	C 	0.70867 0.65585 0.42065 0.09300
C 	C 	0.76206 0.57860 0.45094 0.08800
C 	C 	0.65981 0.71623 0.20892 0.09100
C 	C 	0.57863 0.69382 0.15816 0.07800
C 	C 	0.71727 0.64405 0.46379 -0.02400
C 	C 	0.74099 0.60892 0.47774 -0.02500
C 	C 	0.64720 0.73423 0.16944 -0.02700
C 	C 	0.61007 0.72437 0.14641 -0.02400
N 	N 	0.70141 0.33462 0.61375 -0.17100
N 	N 	0.77854 0.44593 0.57048 -0.18000
N 	N 	0.67003 0.29777 0.75901 -0.17100
N 	N 	0.55379 0.33125 0.83200 -0.18200
C 	C 	0.70867 0.34415 0.57935 0.09300
C 	C 	0.76206 0.42140 0.54906 0.08800
C 	C 	0.65981 0.28377 0.79108 0.09100
C 	C 	0.57863 0.30618 0.84184 0.08000
C 	C 	0.71727 0.35595 0.53621 -0.02400
C 	C 	0.74099 0.39108 0.52226 -0.02500
C 	C 	0.64720 0.26577 0.83056 -0.02600
C 	C 	0.61007 0.27563 0.85359 -0.02400
N 	N 	0.29859 0.33462 0.38625 -0.17100
N 	N 	0.22146 0.44593 0.42952 -0.18100
N 	N 	0.32997 0.29777 0.24099 -0.17200
N 	N 	0.44621 0.33125 0.16800 -0.18300
C 	C 	0.29133 0.34415 0.42065 0.09200
C 	C 	0.23794 0.42140 0.45094 0.08700
C 	C 	0.34019 0.28377 0.20892 0.09000
C 	C 	0.42137 0.30618 0.15816 0.07700
C 	C 	0.28273 0.35595 0.46379 -0.02500
C 	C 	0.25901 0.39108 0.47774 -0.02500
C 	C 	0.35280 0.26577 0.16944 -0.02700
C 	C 	0.38993 0.27563 0.14641 -0.02500
N 	N 	0.29859 0.66538 0.61375 -0.17100
N 	N 	0.22146 0.55407 0.57048 -0.18100
N 	N 	0.32997 0.70223 0.75901 -0.17100
N 	N 	0.44621 0.66875 0.83200 -0.18200
C 	C 	0.29133 0.65585 0.57935 0.09200
C 	C 	0.23794 0.57860 0.54906 0.08700
C 	C 	0.34019 0.71623 0.79108 0.09200
C 	C 	0.42137 0.69382 0.84184 0.08000
C 	C 	0.28273 0.64405 0.53621 -0.02500
C 	C 	0.25901 0.60892 0.52226 -0.02500
C 	C 	0.35280 0.73423 0.83056 -0.02600
C 	C 	0.38993 0.72437 0.85359 -0.02400
N 	N 	0.38625 0.70141 0.66538 -0.17100
N 	N 	0.42952 0.77854 0.55407 -0.17900
N 	N 	0.24099 0.67003 0.70223 -0.17100
N 	N 	0.16800 0.55379 0.66875 -0.18300
C 	C 	0.42065 0.70867 0.65585 0.09300
C 	C 	0.45094 0.76206 0.57860 0.08800
C 	C 	0.20892 0.65981 0.71623 0.09100
C 	C 	0.15816 0.57863 0.69382 0.07800
C 	C 	0.46379 0.71727 0.64405 -0.02400
C 	C 	0.47774 0.74099 0.60892 -0.02500
C 	C 	0.16944 0.64720 0.73423 -0.02700
C 	C 	0.14641 0.61007 0.72437 -0.02400
N 	N 	0.61375 0.70141 0.33462 -0.17100
N 	N 	0.57048 0.77854 0.44593 -0.18000
N 	N 	0.75901 0.67003 0.29777 -0.17100
N 	N 	0.83200 0.55379 0.33125 -0.18200
C 	C 	0.57935 0.70867 0.34415 0.09300
C 	C 	0.54906 0.76206 0.42140 0.08800
C 	C 	0.79108 0.65981 0.28377 0.09100
C 	C 	0.84184 0.57863 0.30618 0.08000
C 	C 	0.53621 0.71727 0.35595 -0.02400
C 	C 	0.52226 0.74099 0.39108 -0.02500
C 	C 	0.83056 0.64720 0.26577 -0.02600
C 	C 	0.85359 0.61007 0.27563 -0.02400
N 	N 	0.38625 0.29859 0.33462 -0.17100
N 	N 	0.42952 0.22146 0.44593 -0.18100
N 	N 	0.24099 0.32997 0.29777 -0.17200
N 	N 	0.16800 0.44621 0.33125 -0.18300
C 	C 	0.42065 0.29133 0.34415 0.09200
C 	C 	0.45094 0.23794 0.42140 0.08700
C 	C 	0.20892 0.34019 0.28377 0.09000
C 	C 	0.15816 0.42137 0.30618 0.07700
C 	C 	0.46379 0.28273 0.35595 -0.02500
C 	C 	0.47774 0.25901 0.39108 -0.02500
C 	C 	0.16944 0.35280 0.26577 -0.02700
C 	C 	0.14641 0.38993 0.27563 -0.02500
N 	N 	0.61375 0.29859 0.66538 -0.17100
N 	N 	0.57048 0.22146 0.55407 -0.18100
N 	N 	0.75901 0.32997 0.70223 -0.17100
N 	N 	0.83200 0.44621 0.66875 -0.18200
C 	C 	0.57935 0.29133 0.65585 0.09200
C 	C 	0.54906 0.23794 0.57860 0.08700
C 	C 	0.79108 0.34019 0.71623 0.09200
C 	C 	0.84184 0.42137 0.69382 0.08000
C 	C 	0.53621 0.28273 0.64405 -0.02500
C 	C 	0.52226 0.25901 0.60892 -0.02500
C 	C 	0.83056 0.35280 0.73423 -0.02600
C 	C 	0.85359 0.38993 0.72437 -0.02400
N 	N 	0.88625 0.16538 0.79859 -0.16900
N 	N 	0.92952 0.05407 0.72146 -0.18000
N 	N 	0.74099 0.20223 0.82997 -0.17100
N 	N 	0.66800 0.16875 0.94621 -0.17900
C 	C 	0.92065 0.15585 0.79133 0.09200
C 	C 	0.95094 0.07860 0.73794 0.08600
C 	C 	0.70892 0.21623 0.84019 0.09200
C 	C 	0.65816 0.19382 0.92137 0.08100
C 	C 	0.96379 0.14405 0.78273 -0.00900
C 	C 	0.97774 0.10892 0.75901 -0.00900
C 	C 	0.66944 0.23423 0.85280 -0.02600
C 	C 	0.64641 0.22437 0.88993 -0.02300
N 	N 	0.11375 0.83462 0.79859 -0.17000
N 	N 	0.07048 0.94593 0.72146 -0.17900
N 	N 	0.25901 0.79777 0.82997 -0.17100
N 	N 	0.33200 0.83125 0.94621 -0.17700
C 	C 	0.07935 0.84415 0.79133 0.08900
C 	C 	0.04906 0.92140 0.73794 0.09200
C 	C 	0.29108 0.78377 0.84019 0.09300
C 	C 	0.34184 0.80618 0.92137 0.08200
C 	C 	0.03621 0.85595 0.78273 -0.01400
C 	C 	0.02226 0.89108 0.75901 -0.04500
C 	C 	0.33056 0.76577 0.85280 -0.02600
C 	C 	0.35359 0.77563 0.88993 -0.02300
N 	N 	0.88625 0.83462 0.20141 -0.16900
N 	N 	0.92952 0.94593 0.27854 -0.17300
N 	N 	0.74099 0.79777 0.17003 -0.17100
N 	N 	0.66800 0.83125 0.05379 -0.18500
C 	C 	0.92065 0.84415 0.20867 0.09300
C 	C 	0.95094 0.92140 0.26206 0.09100
C 	C 	0.70892 0.78377 0.15981 0.09100
C 	C 	0.65816 0.80618 0.07863 0.07700
C 	C 	0.96379 0.85595 0.21727 -0.00900
C 	C 	0.97774 0.89108 0.24099 -0.00800
C 	C 	0.66944 0.76577 0.14720 -0.02700
C 	C 	0.64641 0.77563 0.11007 -0.02500
N 	N 	0.11375 0.16538 0.20141 -0.17100
N 	N 	0.07048 0.05407 0.27854 -0.18600
N 	N 	0.25901 0.20223 0.17003 -0.17200
N 	N 	0.33200 0.16875 0.05379 -0.18600
C 	C 	0.07935 0.15585 0.20867 0.08600
C 	C 	0.04906 0.07860 0.26206 0.08700
C 	C 	0.29108 0.21623 0.15981 0.09000
C 	C 	0.34184 0.19382 0.07863 0.07600
C 	C 	0.03621 0.14405 0.21727 -0.01500
C 	C 	0.02226 0.10892 0.24099 -0.04700
C 	C 	0.33056 0.23423 0.14720 -0.02700
C 	C 	0.35359 0.22437 0.11007 -0.02500
N 	N 	0.16538 0.20141 0.11375 -0.17100
N 	N 	0.05407 0.27854 0.07048 -0.18600
N 	N 	0.20223 0.17003 0.25901 -0.17200
N 	N 	0.16875 0.05379 0.33200 -0.18600
C 	C 	0.15585 0.20867 0.07935 0.08600
C 	C 	0.07860 0.26206 0.04906 0.08700
C 	C 	0.21623 0.15981 0.29108 0.09000
C 	C 	0.19382 0.07863 0.34184 0.07600
C 	C 	0.14405 0.21727 0.03621 -0.01500
C 	C 	0.10892 0.24099 0.02226 -0.04700
C 	C 	0.23423 0.14720 0.33056 -0.02700
C 	C 	0.22437 0.11007 0.35359 -0.02500
N 	N 	0.83462 0.20141 0.88625 -0.16900
N 	N 	0.94593 0.27854 0.92952 -0.17300
N 	N 	0.79777 0.17003 0.74099 -0.17100
N 	N 	0.83125 0.05379 0.66800 -0.18500
C 	C 	0.84415 0.20867 0.92065 0.09300
C 	C 	0.92140 0.26206 0.95094 0.09100
C 	C 	0.78377 0.15981 0.70892 0.09100
C 	C 	0.80618 0.07863 0.65816 0.07700
C 	C 	0.85595 0.21727 0.96379 -0.00900
C 	C 	0.89108 0.24099 0.97774 -0.00800
C 	C 	0.76577 0.14720 0.66944 -0.02700
C 	C 	0.77563 0.11007 0.64641 -0.02500
N 	N 	0.83462 0.79859 0.11375 -0.17000
N 	N 	0.94593 0.72146 0.07048 -0.17900
N 	N 	0.79777 0.82997 0.25901 -0.17100
N 	N 	0.83125 0.94621 0.33200 -0.17700
C 	C 	0.84415 0.79133 0.07935 0.08900
C 	C 	0.92140 0.73794 0.04906 0.09200
C 	C 	0.78377 0.84019 0.29108 0.09300
C 	C 	0.80618 0.92137 0.34184 0.08200
C 	C 	0.85595 0.78273 0.03621 -0.01400
C 	C 	0.89108 0.75901 0.02226 -0.04500
C 	C 	0.76577 0.85280 0.33056 -0.02600
C 	C 	0.77563 0.88993 0.35359 -0.02300
N 	N 	0.16538 0.79859 0.88625 -0.16900
N 	N 	0.05407 0.72146 0.92952 -0.18000
N 	N 	0.20223 0.82997 0.74099 -0.17100
N 	N 	0.16875 0.94621 0.66800 -0.17900
C 	C 	0.15585 0.79133 0.92065 0.09200
C 	C 	0.07860 0.73794 0.95094 0.08600
C 	C 	0.21623 0.84019 0.70892 0.09200
C 	C 	0.19382 0.92137 0.65816 0.08100
C 	C 	0.14405 0.78273 0.96379 -0.00900
C 	C 	0.10892 0.75901 0.97774 -0.00900
C 	C 	0.23423 0.85280 0.66944 -0.02600
C 	C 	0.22437 0.88993 0.64641 -0.02300
N 	N 	0.20141 0.88625 0.83462 -0.16900
N 	N 	0.27854 0.92952 0.94593 -0.17300
N 	N 	0.17003 0.74099 0.79777 -0.17100
N 	N 	0.05379 0.66800 0.83125 -0.18500
C 	C 	0.20867 0.92065 0.84415 0.09300
C 	C 	0.26206 0.95094 0.92140 0.09100
C 	C 	0.15981 0.70892 0.78377 0.09100
C 	C 	0.07863 0.65816 0.80618 0.07700
C 	C 	0.21727 0.96379 0.85595 -0.00900
C 	C 	0.24099 0.97774 0.89108 -0.00800
C 	C 	0.14720 0.66944 0.76577 -0.02700
C 	C 	0.11007 0.64641 0.77563 -0.02500
N 	N 	0.20141 0.11375 0.16538 -0.17100
N 	N 	0.27854 0.07048 0.05407 -0.18600
N 	N 	0.17003 0.25901 0.20223 -0.17200
N 	N 	0.05379 0.33200 0.16875 -0.18600
C 	C 	0.20867 0.07935 0.15585 0.08600
C 	C 	0.26206 0.04906 0.07860 0.08700
C 	C 	0.15981 0.29108 0.21623 0.09000
C 	C 	0.07863 0.34184 0.19382 0.07600
C 	C 	0.21727 0.03621 0.14405 -0.01500
C 	C 	0.24099 0.02226 0.10892 -0.04700
C 	C 	0.14720 0.33056 0.23423 -0.02700
C 	C 	0.11007 0.35359 0.22437 -0.02500
N 	N 	0.79859 0.88625 0.16538 -0.16900
N 	N 	0.72146 0.92952 0.05407 -0.18000
N 	N 	0.82997 0.74099 0.20223 -0.17100
N 	N 	0.94621 0.66800 0.16875 -0.17900
C 	C 	0.79133 0.92065 0.15585 0.09200
C 	C 	0.73794 0.95094 0.07860 0.08600
C 	C 	0.84019 0.70892 0.21623 0.09200
C 	C 	0.92137 0.65816 0.19382 0.08100
C 	C 	0.78273 0.96379 0.14405 -0.00900
C 	C 	0.75901 0.97774 0.10892 -0.00900
C 	C 	0.85280 0.66944 0.23423 -0.02600
C 	C 	0.88993 0.64641 0.22437 -0.02300
N 	N 	0.79859 0.11375 0.83462 -0.17000
N 	N 	0.72146 0.07048 0.94593 -0.17900
N 	N 	0.82997 0.25901 0.79777 -0.17100
N 	N 	0.94621 0.33200 0.83125 -0.17700
C 	C 	0.79133 0.07935 0.84415 0.08900
C 	C 	0.73794 0.04906 0.92140 0.09200
C 	C 	0.84019 0.29108 0.78377 0.09300
C 	C 	0.92137 0.34184 0.80618 0.08200
C 	C 	0.78273 0.03621 0.85595 -0.01400
C 	C 	0.75901 0.02226 0.89108 -0.04500
C 	C 	0.85280 0.33056 0.76577 -0.02600
C 	C 	0.88993 0.35359 0.77563 -0.02300
Na	Na	0.31434 0.68566 0.31434 0.58500
Na	Na	0.68566 0.31434 0.31434 0.58500
Na	Na	0.68566 0.68566 0.68566 0.58500
Na	Na	0.31434 0.31434 0.68566 0.58500
Na	Na	0.18566 0.81434 0.18566 0.58500
Na	Na	0.81434 0.18566 0.18566 0.58500
Na	Na	0.18566 0.18566 0.81434 0.58500
Na	Na	0.81434 0.81434 0.81434 0.58500
Na	Na	0.68566 0.31434 0.68566 0.58500
Na	Na	0.31434 0.68566 0.68566 0.58500
Na	Na	0.31434 0.31434 0.31434 0.58500
Na	Na	0.68566 0.68566 0.31434 0.58500
Na	Na	0.81434 0.18566 0.81434 0.58500
Na	Na	0.18566 0.81434 0.81434 0.58500
Na	Na	0.81434 0.81434 0.18566 0.58500
Na	Na	0.18566 0.18566 0.18566 0.58400
Na	Na	0.37966 0.80459 0.50000 0.57700
Na	Na	0.62034 0.19541 0.50000 0.57600
Na	Na	0.62034 0.80459 0.50000 0.57700
Na	Na	0.37966 0.19541 0.50000 0.57600
Na	Na	0.50000 0.37966 0.80459 0.57700
Na	Na	0.50000 0.62034 0.19541 0.57600
Na	Na	0.50000 0.62034 0.80459 0.57700
Na	Na	0.50000 0.37966 0.19541 0.57600
Na	Na	0.80459 0.50000 0.37966 0.57700
Na	Na	0.19541 0.50000 0.62034 0.57600
Na	Na	0.80459 0.50000 0.62034 0.57700
Na	Na	0.19541 0.50000 0.37966 0.57600
Na	Na	0.30459 0.87966 -0.00000 0.57500
Na	Na	0.69541 0.12034 -0.00000 0.57400
Na	Na	0.30459 0.12034 -0.00000 0.57400
Na	Na	0.69541 0.87966 -0.00000 0.57500
Na	Na	0.87966 -0.00000 0.69541 0.57500
Na	Na	0.12034 0.00000 0.30459 0.57400
Na	Na	0.12034 -0.00000 0.69541 0.57400
Na	Na	0.87966 0.00000 0.30459 0.57500
Na	Na	0.00000 0.30459 0.12034 0.57400
Na	Na	0.00000 0.69541 0.87966 0.57500
Na	Na	0.00000 0.30459 0.87966 0.57500
Na	Na	0.00000 0.69541 0.12034 0.57400
Na	Na	0.23054 0.00000 0.50000 0.51100
Na	Na	0.76946 0.00000 0.50000 0.51200
Na	Na	0.50000 0.23054 -0.00000 0.51100
Na	Na	0.50000 0.76946 -0.00000 0.51200
Na	Na	0.00000 0.50000 0.23054 0.51100
Na	Na	0.00000 0.50000 0.76946 0.51200
Na	Na	0.50000 0.73054 -0.00000 0.51200
Na	Na	0.50000 0.26946 -0.00000 0.51100
Na	Na	0.73054 0.00000 0.50000 0.51200
Na	Na	0.26946 0.00000 0.50000 0.51100
Na	Na	0.00000 0.50000 0.26946 0.51100
Na	Na	0.00000 0.50000 0.73054 0.51200
N 	N 	0.26558 0.50000 0.34255 -0.17000
C 	C 	0.29630 0.50000 0.32260 0.09000
C 	C 	0.33410 0.50000 0.29788 -0.02500
N 	N 	0.73442 0.50000 0.34255 -0.17000
C 	C 	0.70370 0.50000 0.32260 0.09000
C 	C 	0.66590 0.50000 0.29788 -0.02500
N 	N 	0.73442 0.50000 0.65745 -0.17000
C 	C 	0.70370 0.50000 0.67740 0.09100
C 	C 	0.66590 0.50000 0.70212 -0.02400
N 	N 	0.26558 0.50000 0.65745 -0.17000
C 	C 	0.29630 0.50000 0.67740 0.09100
C 	C 	0.33410 0.50000 0.70212 -0.02400
N 	N 	0.34255 0.26558 0.50000 -0.17000
C 	C 	0.32260 0.29630 0.50000 0.09000
C 	C 	0.29788 0.33410 0.50000 -0.02500
N 	N 	0.34255 0.73442 0.50000 -0.17000
C 	C 	0.32260 0.70370 0.50000 0.09000
C 	C 	0.29788 0.66590 0.50000 -0.02500
N 	N 	0.65745 0.73442 0.50000 -0.17000
C 	C 	0.67740 0.70370 0.50000 0.09100
C 	C 	0.70212 0.66590 0.50000 -0.02400
N 	N 	0.65745 0.26558 0.50000 -0.17000
C 	C 	0.67740 0.29630 0.50000 0.09100
C 	C 	0.70212 0.33410 0.50000 -0.02400
N 	N 	0.50000 0.34255 0.26558 -0.17000
C 	C 	0.50000 0.32260 0.29630 0.09000
C 	C 	0.50000 0.29788 0.33410 -0.02500
N 	N 	0.50000 0.34255 0.73442 -0.17000
C 	C 	0.50000 0.32260 0.70370 0.09000
C 	C 	0.50000 0.29788 0.66590 -0.02500
N 	N 	0.50000 0.65745 0.73442 -0.17000
C 	C 	0.50000 0.67740 0.70370 0.09100
C 	C 	0.50000 0.70212 0.66590 -0.02400
N 	N 	0.50000 0.65745 0.26558 -0.17000
C 	C 	0.50000 0.67740 0.29630 0.09100
C 	C 	0.50000 0.70212 0.33410 -0.02400
N 	N 	0.00000 0.76558 0.15745 -0.17500
C 	C 	0.00000 0.79630 0.17740 0.09100
C 	C 	0.00000 0.83410 0.20212 -0.04500
N 	N 	0.00000 0.23442 0.15745 -0.17600
C 	C 	0.00000 0.20370 0.17740 0.09000
C 	C 	0.00000 0.16590 0.20212 -0.04600
N 	N 	0.00000 0.23442 0.84255 -0.17500
C 	C 	0.00000 0.20370 0.82260 0.09200
C 	C 	0.00000 0.16590 0.79788 -0.04600
N 	N 	0.00000 0.76558 0.84255 -0.17500
C 	C 	0.00000 0.79630 0.82260 0.09200
C 	C 	0.00000 0.83410 0.79788 -0.04500
N 	N 	0.76558 0.84255 -0.00000 -0.17500
C 	C 	0.79630 0.82260 -0.00000 0.09200
C 	C 	0.83410 0.79788 -0.00000 -0.04500
N 	N 	0.23442 0.84255 -0.00000 -0.17500
C 	C 	0.20370 0.82260 -0.00000 0.09200
C 	C 	0.16590 0.79788 -0.00000 -0.04600
N 	N 	0.23442 0.15745 -0.00000 -0.17600
C 	C 	0.20370 0.17740 -0.00000 0.09000
C 	C 	0.16590 0.20212 -0.00000 -0.04600
N 	N 	0.76558 0.15745 -0.00000 -0.17500
C 	C 	0.79630 0.17740 -0.00000 0.09100
C 	C 	0.83410 0.20212 -0.00000 -0.04500
N 	N 	0.84255 0.00000 0.23442 -0.17500
C 	C 	0.82260 0.00000 0.20370 0.09200
C 	C 	0.79788 -0.00000 0.16590 -0.04600
N 	N 	0.84255 0.00000 0.76558 -0.17500
C 	C 	0.82260 0.00000 0.79630 0.09200
C 	C 	0.79788 -0.00000 0.83410 -0.04500
N 	N 	0.15745 0.00000 0.76558 -0.17500
C 	C 	0.17740 0.00000 0.79630 0.09100
C 	C 	0.20212 -0.00000 0.83410 -0.04500
N 	N 	0.15745 0.00000 0.23442 -0.17600
C 	C 	0.17740 0.00000 0.20370 0.09000
C 	C 	0.20212 -0.00000 0.16590 -0.04600
N 	N 	0.25000 0.94808 0.44808 -0.25000
C 	C 	0.25000 0.92239 0.42239 0.08600
C 	C 	0.25000 0.89012 0.39012 -0.03700
N 	N 	0.75000 0.05192 0.44808 -0.25600
C 	C 	0.75000 0.07761 0.42239 0.08200
C 	C 	0.75000 0.10988 0.39012 -0.03900
N 	N 	0.75000 0.94808 0.55192 -0.24900
C 	C 	0.75000 0.92239 0.57761 0.08700
C 	C 	0.75000 0.89012 0.60988 -0.03700
N 	N 	0.25000 0.05192 0.55192 -0.25700
C 	C 	0.25000 0.07761 0.57761 0.08100
C 	C 	0.25000 0.10988 0.60988 -0.03900
N 	N 	0.44808 0.25000 0.94808 -0.25000
C 	C 	0.42239 0.25000 0.92239 0.08600
C 	C 	0.39012 0.25000 0.89012 -0.03700
N 	N 	0.44808 0.75000 0.05192 -0.25600
C 	C 	0.42239 0.75000 0.07761 0.08200
C 	C 	0.39012 0.75000 0.10988 -0.03900
N 	N 	0.55192 0.75000 0.94808 -0.24900
C 	C 	0.57761 0.75000 0.92239 0.08700
C 	C 	0.60988 0.75000 0.89012 -0.03700
N 	N 	0.55192 0.25000 0.05192 -0.25700
C 	C 	0.57761 0.25000 0.07761 0.08100
C 	C 	0.60988 0.25000 0.10988 -0.03900
N 	N 	0.94808 0.44808 0.25000 -0.25000
C 	C 	0.92239 0.42239 0.25000 0.08600
C 	C 	0.89012 0.39012 0.25000 -0.03700
N 	N 	0.05192 0.44808 0.75000 -0.25600
C 	C 	0.07761 0.42239 0.75000 0.08200
C 	C 	0.10988 0.39012 0.75000 -0.03900
N 	N 	0.94808 0.55192 0.75000 -0.24900
C 	C 	0.92239 0.57761 0.75000 0.08700
C 	C 	0.89012 0.60988 0.75000 -0.03700
N 	N 	0.05192 0.55192 0.25000 -0.25700
C 	C 	0.07761 0.57761 0.25000 0.08100
C 	C 	0.10988 0.60988 0.25000 -0.03900
N 	N 	0.75000 0.05192 0.55192 -0.25600
C 	C 	0.75000 0.07761 0.57761 0.08200
C 	C 	0.75000 0.10988 0.60988 -0.03900
N 	N 	0.25000 0.94808 0.55192 -0.25000
C 	C 	0.25000 0.92239 0.57761 0.08600
C 	C 	0.25000 0.89012 0.60988 -0.03700
N 	N 	0.25000 0.05192 0.44808 -0.25700
C 	C 	0.25000 0.07761 0.42239 0.08100
C 	C 	0.25000 0.10988 0.39012 -0.03900
N 	N 	0.75000 0.94808 0.44808 -0.24900
C 	C 	0.75000 0.92239 0.42239 0.08700
C 	C 	0.75000 0.89012 0.39012 -0.03700
N 	N 	0.55192 0.75000 0.05192 -0.25600
C 	C 	0.57761 0.75000 0.07761 0.08200
C 	C 	0.60988 0.75000 0.10988 -0.03900
N 	N 	0.55192 0.25000 0.94808 -0.25000
C 	C 	0.57761 0.25000 0.92239 0.08600
C 	C 	0.60988 0.25000 0.89012 -0.03700
N 	N 	0.44808 0.25000 0.05192 -0.25700
C 	C 	0.42239 0.25000 0.07761 0.08100
C 	C 	0.39012 0.25000 0.10988 -0.03900
N 	N 	0.44808 0.75000 0.94808 -0.24900
C 	C 	0.42239 0.75000 0.92239 0.08700
C 	C 	0.39012 0.75000 0.89012 -0.03700
N 	N 	0.05192 0.55192 0.75000 -0.25600
C 	C 	0.07761 0.57761 0.75000 0.08200
C 	C 	0.10988 0.60988 0.75000 -0.03900
N 	N 	0.94808 0.55192 0.25000 -0.25000
C 	C 	0.92239 0.57761 0.25000 0.08600
C 	C 	0.89012 0.60988 0.25000 -0.03700
N 	N 	0.05192 0.44808 0.25000 -0.25700
C 	C 	0.07761 0.42239 0.25000 0.08100
C 	C 	0.10988 0.39012 0.25000 -0.03900
N 	N 	0.94808 0.44808 0.75000 -0.24900
C 	C 	0.92239 0.42239 0.75000 0.08700
C 	C 	0.89012 0.39012 0.75000 -0.03700
