data_crystal

_cell_length_a 12.86800
_cell_length_b 13.35100
_cell_length_c 10.52600
_cell_angle_alpha 90.00000
_cell_angle_beta  104.39000
_cell_angle_gamma 90.00000

_symmetry_space_group_name_	'P 1'
_symmetry_space_group_name_H-M	'P 1'

loop_
_symmetry_equiv_pos_as_xyz
  x,y,z

loop_
_atom_site_label
_atom_site_type_symbol
_atom_site_fract_x
_atom_site_fract_y
_atom_site_fract_z
_atom_site_charge
O 	O 	0.60940 0.46910 0.23940 -0.47300
O 	O 	0.60430 0.56230 0.41650 -0.40800
N 	N 	0.87770 0.74620 0.25420 -0.18000
N 	N 	0.54370 0.63560 0.95610 -0.21800
N 	N 	0.53720 0.70800 0.02210 -0.08600
N 	N 	0.53120 0.77630 0.08440 -0.07200
C 	C 	0.71920 0.61380 0.28750 -0.03900
C 	C 	0.78810 0.58880 0.21240 -0.05600
H 	H 	0.78370 0.52630 0.17220 0.06800
C 	C 	0.86460 0.65770 0.19700 0.06900
H 	H 	0.90920 0.64040 0.14320 0.04100
C 	C 	0.63740 0.54190 0.31630 0.36100
C 	C 	0.80740 0.77240 0.32340 0.06000
H 	H 	0.81230 0.83610 0.36030 0.03800
C 	C 	0.72850 0.70890 0.34160 -0.04700
H 	H 	0.68130 0.72970 0.39040 0.07600
O 	O 	0.10940 0.96910 0.23940 -0.43000
O 	O 	0.10430 0.06230 0.41650 -0.45600
N 	N 	0.37770 0.24620 0.25420 -0.22800
N 	N 	0.04370 0.13560 0.95610 -0.26100
N 	N 	0.03720 0.20800 0.02210 -0.12300
N 	N 	0.03120 0.27630 0.08440 -0.14600
C 	C 	0.21920 0.11380 0.28750 -0.04500
C 	C 	0.28810 0.08880 0.21240 -0.08200
H 	H 	0.28370 0.02630 0.17220 0.03300
C 	C 	0.36460 0.15770 0.19700 0.05000
H 	H 	0.40920 0.14040 0.14320 -0.01300
C 	C 	0.13740 0.04190 0.31630 0.26200
C 	C 	0.30740 0.27240 0.32340 0.03300
H 	H 	0.31230 0.33610 0.36030 0.01100
C 	C 	0.22850 0.20890 0.34160 -0.05900
H 	H 	0.18130 0.22970 0.39040 0.04500
O 	O 	0.39060 0.46910 0.26060 -0.47500
O 	O 	0.39570 0.56230 0.08350 -0.43500
N 	N 	0.12230 0.74620 0.24580 -0.25000
N 	N 	0.45630 0.63560 0.54390 -0.26700
N 	N 	0.46280 0.70800 0.47790 -0.04400
N 	N 	0.46880 0.77630 0.41560 -0.06200
C 	C 	0.28080 0.61380 0.21250 -0.06000
C 	C 	0.21190 0.58880 0.28760 -0.07700
H 	H 	0.21630 0.52630 0.32780 0.04800
C 	C 	0.13540 0.65770 0.30300 0.03500
H 	H 	0.09080 0.64040 0.35680 -0.02800
C 	C 	0.36260 0.54190 0.18370 0.35500
C 	C 	0.19260 0.77240 0.17660 0.01600
H 	H 	0.18770 0.83610 0.13970 0.00500
C 	C 	0.27150 0.70890 0.15840 -0.05800
H 	H 	0.31870 0.72970 0.10960 0.06100
O 	O 	0.89060 0.96910 0.26060 -0.30600
O 	O 	0.89570 0.06230 0.08350 -0.33200
N 	N 	0.62230 0.24620 0.24580 -0.23400
N 	N 	0.95630 0.13560 0.54390 -0.18900
N 	N 	0.96280 0.20800 0.47790 -0.00800
N 	N 	0.96880 0.27630 0.41560 -0.00200
C 	C 	0.78080 0.11380 0.21250 0.00500
C 	C 	0.71190 0.08880 0.28760 -0.10600
H 	H 	0.71630 0.02630 0.32780 0.05500
C 	C 	0.63540 0.15770 0.30300 0.06800
H 	H 	0.59080 0.14040 0.35680 -0.00300
C 	C 	0.86260 0.04190 0.18370 0.24900
C 	C 	0.69260 0.27240 0.17660 0.06100
H 	H 	0.68770 0.33610 0.13970 0.00100
C 	C 	0.77150 0.20890 0.15840 -0.09900
H 	H 	0.81870 0.22970 0.10960 0.10300
O 	O 	0.39060 0.53090 0.76060 -0.46000
O 	O 	0.39570 0.43770 0.58350 -0.41200
N 	N 	0.12230 0.25380 0.74580 -0.24700
N 	N 	0.45630 0.36440 0.04390 -0.31000
N 	N 	0.46280 0.29200 0.97790 -0.00100
N 	N 	0.46880 0.22370 0.91560 -0.06600
C 	C 	0.28080 0.38620 0.71250 -0.04200
C 	C 	0.21190 0.41120 0.78760 -0.07600
H 	H 	0.21630 0.47370 0.82780 0.06400
C 	C 	0.13540 0.34230 0.80300 0.04600
H 	H 	0.09080 0.35960 0.85680 -0.01400
C 	C 	0.36260 0.45810 0.68370 0.35100
C 	C 	0.19260 0.22760 0.67660 0.03000
H 	H 	0.18770 0.16390 0.63970 0.00100
C 	C 	0.27150 0.29110 0.65840 -0.06300
H 	H 	0.31870 0.27030 0.60960 0.07200
O 	O 	0.89060 0.03090 0.76060 -0.43300
O 	O 	0.89570 0.93770 0.58350 -0.30700
N 	N 	0.62230 0.75380 0.74580 -0.22300
N 	N 	0.95630 0.86440 0.04390 -0.20800
N 	N 	0.96280 0.79200 0.97790 0.03100
N 	N 	0.96880 0.72370 0.91560 0.00900
C 	C 	0.78080 0.88620 0.71250 -0.01400
C 	C 	0.71190 0.91120 0.78760 -0.06500
H 	H 	0.71630 0.97370 0.82780 0.10300
C 	C 	0.63540 0.84230 0.80300 0.07400
H 	H 	0.59080 0.85960 0.85680 0.02900
C 	C 	0.86260 0.95810 0.68370 0.41300
C 	C 	0.69260 0.72760 0.67660 0.06500
H 	H 	0.68770 0.66390 0.63970 0.01700
C 	C 	0.77150 0.79110 0.65840 -0.06600
H 	H 	0.81870 0.77030 0.60960 0.10900
O 	O 	0.60940 0.53090 0.73940 -0.46000
O 	O 	0.60430 0.43770 0.91650 -0.37200
N 	N 	0.87770 0.25380 0.75420 -0.17600
N 	N 	0.54370 0.36440 0.45610 -0.26700
N 	N 	0.53720 0.29200 0.52210 -0.04500
N 	N 	0.53120 0.22370 0.58440 -0.07600
C 	C 	0.71920 0.38620 0.78750 -0.02200
C 	C 	0.78810 0.41120 0.71240 -0.05600
H 	H 	0.78370 0.47370 0.67220 0.08200
C 	C 	0.86460 0.34230 0.69700 0.07900
H 	H 	0.90920 0.35960 0.64320 0.05400
C 	C 	0.63740 0.45810 0.81630 0.35400
C 	C 	0.80740 0.22760 0.82340 0.07500
H 	H 	0.81230 0.16390 0.86030 0.03700
C 	C 	0.72850 0.29110 0.84160 -0.05200
H 	H 	0.68130 0.27030 0.89040 0.08800
O 	O 	0.10940 0.03090 0.73940 -0.57400
O 	O 	0.10430 0.93770 0.91650 -0.41800
N 	N 	0.37770 0.75380 0.75420 -0.21600
N 	N 	0.04370 0.86440 0.45610 -0.29000
N 	N 	0.03720 0.79200 0.52210 -0.07500
N 	N 	0.03120 0.72370 0.58440 -0.13200
C 	C 	0.21920 0.88620 0.78750 -0.06800
C 	C 	0.28810 0.91120 0.71240 -0.03800
H 	H 	0.28370 0.97370 0.67220 0.08500
C 	C 	0.36460 0.84230 0.69700 0.05500
H 	H 	0.40920 0.85960 0.64320 0.02100
C 	C 	0.13740 0.95810 0.81630 0.44200
C 	C 	0.30740 0.72760 0.82340 0.03600
H 	H 	0.31230 0.66390 0.86030 0.02900
C 	C 	0.22850 0.79110 0.84160 -0.02400
H 	H 	0.18130 0.77030 0.89040 0.05100
Cu	Cu	0.50000 0.50000 -0.00000 0.87400
Cu	Cu	-0.00000 0.00000 -0.00000 0.75500
Cu	Cu	0.50000 0.50000 0.50000 0.90600
Cu	Cu	0.00000 0.00000 0.50000 0.78700
Co	Co	0.00000 0.85321 0.25000 1.05400
Co	Co	0.50000 0.35321 0.25000 1.13900
Co	Co	0.00000 0.14679 0.75000 1.05500
Co	Co	0.50000 0.64679 0.75000 1.14400
