data_crystal

_cell_length_a 21.87200
_cell_length_b 21.87200
_cell_length_c 21.87200
_cell_angle_alpha 90.00000
_cell_angle_beta  90.00000
_cell_angle_gamma 90.00000

_symmetry_space_group_name_	'P 1'
_symmetry_space_group_name_H-M	'P 1'

loop_
_symmetry_equiv_pos_as_xyz
  x,y,z

loop_
_atom_site_label
_atom_site_type_symbol
_atom_site_fract_x
_atom_site_fract_y
_atom_site_fract_z
_atom_site_charge
Fe	Fe	0.26092 0.67949 0.80347 1.23200
O 	O 	0.34980 0.66540 0.79560 -0.43100
O 	O 	0.39270 0.74990 0.75470 -0.43000
O 	O 	0.62620 0.76340 0.77410 -0.42500
O 	O 	0.67120 0.68090 0.81430 -0.44400
C 	C 	0.39560 0.69680 0.77620 0.37300
C 	C 	0.45740 0.66920 0.78480 -0.07700
C 	C 	0.46120 0.60650 0.79440 -0.05400
H 	H 	0.42520 0.58300 0.79500 0.07900
C 	C 	0.51460 0.57940 0.80270 0.08200
C 	C 	0.57170 0.61280 0.80280 -0.03900
H 	H 	0.60940 0.59300 0.80870 0.07000
C 	C 	0.51040 0.70250 0.78310 0.03300
H 	H 	0.50860 0.74460 0.77460 0.04500
C 	C 	0.56800 0.67480 0.79380 -0.09300
C 	C 	0.62580 0.70760 0.79390 0.38900
N 	N 	0.52410 0.51260 0.80490 -0.08000
Fe	Fe	0.73908 0.32051 0.80347 1.23200
O 	O 	0.65020 0.33460 0.79560 -0.43100
O 	O 	0.60730 0.25010 0.75470 -0.43000
O 	O 	0.37380 0.23660 0.77410 -0.42500
O 	O 	0.32880 0.31910 0.81430 -0.44400
C 	C 	0.60440 0.30320 0.77620 0.37300
C 	C 	0.54260 0.33080 0.78480 -0.07700
C 	C 	0.53880 0.39350 0.79440 -0.05400
H 	H 	0.57480 0.41700 0.79500 0.07900
C 	C 	0.48540 0.42060 0.80270 0.08200
C 	C 	0.42830 0.38720 0.80280 -0.03900
H 	H 	0.39060 0.40700 0.80870 0.07000
C 	C 	0.48960 0.29750 0.78310 0.03300
H 	H 	0.49140 0.25540 0.77460 0.04500
C 	C 	0.43200 0.32520 0.79380 -0.09300
C 	C 	0.37420 0.29240 0.79390 0.38900
N 	N 	0.47590 0.48740 0.80490 -0.08000
Fe	Fe	0.73908 0.67949 0.19653 1.23200
O 	O 	0.65020 0.66540 0.20440 -0.43100
O 	O 	0.60730 0.74990 0.24530 -0.43000
O 	O 	0.37380 0.76340 0.22590 -0.42500
O 	O 	0.32880 0.68090 0.18570 -0.44400
C 	C 	0.60440 0.69680 0.22380 0.37300
C 	C 	0.54260 0.66920 0.21520 -0.07700
C 	C 	0.53880 0.60650 0.20560 -0.05400
H 	H 	0.57480 0.58300 0.20500 0.07900
C 	C 	0.48540 0.57940 0.19730 0.08200
C 	C 	0.42830 0.61280 0.19720 -0.03900
H 	H 	0.39060 0.59300 0.19130 0.07000
C 	C 	0.48960 0.70250 0.21690 0.03300
H 	H 	0.49140 0.74460 0.22540 0.04500
C 	C 	0.43200 0.67480 0.20620 -0.09400
C 	C 	0.37420 0.70760 0.20610 0.38800
N 	N 	0.47590 0.51260 0.19510 -0.08100
Fe	Fe	0.26092 0.32051 0.19653 1.23100
O 	O 	0.34980 0.33460 0.20440 -0.43200
O 	O 	0.39270 0.25010 0.24530 -0.43100
O 	O 	0.62620 0.23660 0.22590 -0.42600
O 	O 	0.67120 0.31910 0.18570 -0.44500
C 	C 	0.39560 0.30320 0.22380 0.37200
C 	C 	0.45740 0.33080 0.21520 -0.07800
C 	C 	0.46120 0.39350 0.20560 -0.05500
H 	H 	0.42520 0.41700 0.20500 0.07800
C 	C 	0.51460 0.42060 0.19730 0.08100
C 	C 	0.57170 0.38720 0.19720 -0.04000
H 	H 	0.60940 0.40700 0.19130 0.06900
C 	C 	0.51040 0.29750 0.21690 0.03200
H 	H 	0.50860 0.25540 0.22540 0.04400
C 	C 	0.56800 0.32520 0.20620 -0.09400
C 	C 	0.62580 0.29240 0.20610 0.38800
N 	N 	0.52410 0.48740 0.19510 -0.08100
Fe	Fe	0.80347 0.26092 0.67949 1.23100
O 	O 	0.79560 0.34980 0.66540 -0.43200
O 	O 	0.75470 0.39270 0.74990 -0.43100
O 	O 	0.77410 0.62620 0.76340 -0.42600
O 	O 	0.81430 0.67120 0.68090 -0.44500
C 	C 	0.77620 0.39560 0.69680 0.37200
C 	C 	0.78480 0.45740 0.66920 -0.07800
C 	C 	0.79440 0.46120 0.60650 -0.05500
H 	H 	0.79500 0.42520 0.58300 0.07800
C 	C 	0.80270 0.51460 0.57940 0.08100
C 	C 	0.80280 0.57170 0.61280 -0.04000
H 	H 	0.80870 0.60940 0.59300 0.06900
C 	C 	0.78310 0.51040 0.70250 0.03200
H 	H 	0.77460 0.50860 0.74460 0.04400
C 	C 	0.79380 0.56800 0.67480 -0.09400
C 	C 	0.79390 0.62580 0.70760 0.38800
N 	N 	0.80490 0.52410 0.51260 -0.08100
Fe	Fe	0.80347 0.73908 0.32051 1.23100
O 	O 	0.79560 0.65020 0.33460 -0.43200
O 	O 	0.75470 0.60730 0.25010 -0.43100
O 	O 	0.77410 0.37380 0.23660 -0.42600
O 	O 	0.81430 0.32880 0.31910 -0.44500
C 	C 	0.77620 0.60440 0.30320 0.37200
C 	C 	0.78480 0.54260 0.33080 -0.07800
C 	C 	0.79440 0.53880 0.39350 -0.05500
H 	H 	0.79500 0.57480 0.41700 0.07800
C 	C 	0.80270 0.48540 0.42060 0.08100
C 	C 	0.80280 0.42830 0.38720 -0.04000
H 	H 	0.80870 0.39060 0.40700 0.06900
C 	C 	0.78310 0.48960 0.29750 0.03200
H 	H 	0.77460 0.49140 0.25540 0.04400
C 	C 	0.79380 0.43200 0.32520 -0.09400
C 	C 	0.79390 0.37420 0.29240 0.38800
N 	N 	0.80490 0.47590 0.48740 -0.08100
Fe	Fe	0.19653 0.73908 0.67949 1.23100
O 	O 	0.20440 0.65020 0.66540 -0.43200
O 	O 	0.24530 0.60730 0.74990 -0.43100
O 	O 	0.22590 0.37380 0.76340 -0.42600
O 	O 	0.18570 0.32880 0.68090 -0.44500
C 	C 	0.22380 0.60440 0.69680 0.37200
C 	C 	0.21520 0.54260 0.66920 -0.07800
C 	C 	0.20560 0.53880 0.60650 -0.05500
H 	H 	0.20500 0.57480 0.58300 0.07800
C 	C 	0.19730 0.48540 0.57940 0.08100
C 	C 	0.19720 0.42830 0.61280 -0.04000
H 	H 	0.19130 0.39060 0.59300 0.06900
C 	C 	0.21690 0.48960 0.70250 0.03200
H 	H 	0.22540 0.49140 0.74460 0.04400
C 	C 	0.20620 0.43200 0.67480 -0.09400
C 	C 	0.20610 0.37420 0.70760 0.38800
N 	N 	0.19510 0.47590 0.51260 -0.08100
Fe	Fe	0.19653 0.26092 0.32051 1.23100
O 	O 	0.20440 0.34980 0.33460 -0.43200
O 	O 	0.24530 0.39270 0.25010 -0.43100
O 	O 	0.22590 0.62620 0.23660 -0.42600
O 	O 	0.18570 0.67120 0.31910 -0.44500
C 	C 	0.22380 0.39560 0.30320 0.37200
C 	C 	0.21520 0.45740 0.33080 -0.07800
C 	C 	0.20560 0.46120 0.39350 -0.05500
H 	H 	0.20500 0.42520 0.41700 0.07800
C 	C 	0.19730 0.51460 0.42060 0.08100
C 	C 	0.19720 0.57170 0.38720 -0.04000
H 	H 	0.19130 0.60940 0.40700 0.06900
C 	C 	0.21690 0.51040 0.29750 0.03200
H 	H 	0.22540 0.50860 0.25540 0.04400
C 	C 	0.20620 0.56800 0.32520 -0.09400
C 	C 	0.20610 0.62580 0.29240 0.38800
N 	N 	0.19510 0.52410 0.48740 -0.08100
Fe	Fe	0.67949 0.80347 0.26092 1.23100
O 	O 	0.66540 0.79560 0.34980 -0.43200
O 	O 	0.74990 0.75470 0.39270 -0.43100
O 	O 	0.76340 0.77410 0.62620 -0.42600
O 	O 	0.68090 0.81430 0.67120 -0.44500
C 	C 	0.69680 0.77620 0.39560 0.37200
C 	C 	0.66920 0.78480 0.45740 -0.07800
C 	C 	0.60650 0.79440 0.46120 -0.05500
H 	H 	0.58300 0.79500 0.42520 0.07800
C 	C 	0.57940 0.80270 0.51460 0.08100
C 	C 	0.61280 0.80280 0.57170 -0.04000
H 	H 	0.59300 0.80870 0.60940 0.06900
C 	C 	0.70250 0.78310 0.51040 0.03200
H 	H 	0.74460 0.77460 0.50860 0.04400
C 	C 	0.67480 0.79380 0.56800 -0.09400
C 	C 	0.70760 0.79390 0.62580 0.38800
N 	N 	0.51260 0.80490 0.52410 -0.08100
Fe	Fe	0.32051 0.80347 0.73908 1.23100
O 	O 	0.33460 0.79560 0.65020 -0.43200
O 	O 	0.25010 0.75470 0.60730 -0.43100
O 	O 	0.23660 0.77410 0.37380 -0.42600
O 	O 	0.31910 0.81430 0.32880 -0.44500
C 	C 	0.30320 0.77620 0.60440 0.37200
C 	C 	0.33080 0.78480 0.54260 -0.07800
C 	C 	0.39350 0.79440 0.53880 -0.05500
H 	H 	0.41700 0.79500 0.57480 0.07800
C 	C 	0.42060 0.80270 0.48540 0.08100
C 	C 	0.38720 0.80280 0.42830 -0.04000
H 	H 	0.40700 0.80870 0.39060 0.06900
C 	C 	0.29750 0.78310 0.48960 0.03200
H 	H 	0.25540 0.77460 0.49140 0.04400
C 	C 	0.32520 0.79380 0.43200 -0.09400
C 	C 	0.29240 0.79390 0.37420 0.38800
N 	N 	0.48740 0.80490 0.47590 -0.08100
Fe	Fe	0.67949 0.19653 0.73908 1.23100
O 	O 	0.66540 0.20440 0.65020 -0.43200
O 	O 	0.74990 0.24530 0.60730 -0.43100
O 	O 	0.76340 0.22590 0.37380 -0.42600
O 	O 	0.68090 0.18570 0.32880 -0.44500
C 	C 	0.69680 0.22380 0.60440 0.37200
C 	C 	0.66920 0.21520 0.54260 -0.07800
C 	C 	0.60650 0.20560 0.53880 -0.05500
H 	H 	0.58300 0.20500 0.57480 0.07800
C 	C 	0.57940 0.19730 0.48540 0.08100
C 	C 	0.61280 0.19720 0.42830 -0.04000
H 	H 	0.59300 0.19130 0.39060 0.06900
C 	C 	0.70250 0.21690 0.48960 0.03200
H 	H 	0.74460 0.22540 0.49140 0.04400
C 	C 	0.67480 0.20620 0.43200 -0.09400
C 	C 	0.70760 0.20610 0.37420 0.38800
N 	N 	0.51260 0.19510 0.47590 -0.08100
Fe	Fe	0.32051 0.19653 0.26092 1.23100
O 	O 	0.33460 0.20440 0.34980 -0.43200
O 	O 	0.25010 0.24530 0.39270 -0.43100
O 	O 	0.23660 0.22590 0.62620 -0.42600
O 	O 	0.31910 0.18570 0.67120 -0.44500
C 	C 	0.30320 0.22380 0.39560 0.37200
C 	C 	0.33080 0.21520 0.45740 -0.07800
C 	C 	0.39350 0.20560 0.46120 -0.05500
H 	H 	0.41700 0.20500 0.42520 0.07800
C 	C 	0.42060 0.19730 0.51460 0.08100
C 	C 	0.38720 0.19720 0.57170 -0.04000
H 	H 	0.40700 0.19130 0.60940 0.06900
C 	C 	0.29750 0.21690 0.51040 0.03200
H 	H 	0.25540 0.22540 0.50860 0.04400
C 	C 	0.32520 0.20620 0.56800 -0.09400
C 	C 	0.29240 0.20610 0.62580 0.38800
N 	N 	0.48740 0.19510 0.52410 -0.08100
Fe	Fe	0.17949 0.76092 0.30347 1.23100
O 	O 	0.16540 0.84980 0.29560 -0.43200
O 	O 	0.24990 0.89270 0.25470 -0.43100
O 	O 	0.26340 0.12620 0.27410 -0.42600
O 	O 	0.18090 0.17120 0.31430 -0.44500
C 	C 	0.19680 0.89560 0.27620 0.37200
C 	C 	0.16920 0.95740 0.28480 -0.07800
C 	C 	0.10650 0.96120 0.29440 -0.05500
H 	H 	0.08300 0.92520 0.29500 0.07800
C 	C 	0.07940 0.01460 0.30270 0.08100
C 	C 	0.11280 0.07170 0.30280 -0.04000
H 	H 	0.09300 0.10940 0.30870 0.06900
C 	C 	0.20250 0.01040 0.28310 0.03200
H 	H 	0.24460 0.00860 0.27460 0.04400
C 	C 	0.17480 0.06800 0.29380 -0.09400
C 	C 	0.20760 0.12580 0.29390 0.38800
N 	N 	0.01260 0.02410 0.30490 -0.08100
Fe	Fe	0.82051 0.23908 0.30347 1.23100
O 	O 	0.83460 0.15020 0.29560 -0.43200
O 	O 	0.75010 0.10730 0.25470 -0.43100
O 	O 	0.73660 0.87380 0.27410 -0.42600
O 	O 	0.81910 0.82880 0.31430 -0.44500
C 	C 	0.80320 0.10440 0.27620 0.37200
C 	C 	0.83080 0.04260 0.28480 -0.07800
C 	C 	0.89350 0.03880 0.29440 -0.05500
H 	H 	0.91700 0.07480 0.29500 0.07800
C 	C 	0.92060 0.98540 0.30270 0.08100
C 	C 	0.88720 0.92830 0.30280 -0.04000
H 	H 	0.90700 0.89060 0.30870 0.06900
C 	C 	0.79750 0.98960 0.28310 0.03200
H 	H 	0.75540 0.99140 0.27460 0.04400
C 	C 	0.82520 0.93200 0.29380 -0.09400
C 	C 	0.79240 0.87420 0.29390 0.38800
N 	N 	0.98740 0.97590 0.30490 -0.08100
Fe	Fe	0.17949 0.23908 0.69653 1.23100
O 	O 	0.16540 0.15020 0.70440 -0.43200
O 	O 	0.24990 0.10730 0.74530 -0.43100
O 	O 	0.26340 0.87380 0.72590 -0.42600
O 	O 	0.18090 0.82880 0.68570 -0.44500
C 	C 	0.19680 0.10440 0.72380 0.37200
C 	C 	0.16920 0.04260 0.71520 -0.07800
C 	C 	0.10650 0.03880 0.70560 -0.05500
H 	H 	0.08300 0.07480 0.70500 0.07800
C 	C 	0.07940 0.98540 0.69730 0.08100
C 	C 	0.11280 0.92830 0.69720 -0.04000
H 	H 	0.09300 0.89060 0.69130 0.06900
C 	C 	0.20250 0.98960 0.71690 0.03200
H 	H 	0.24460 0.99140 0.72540 0.04400
C 	C 	0.17480 0.93200 0.70620 -0.09400
C 	C 	0.20760 0.87420 0.70610 0.38800
N 	N 	0.01260 0.97590 0.69510 -0.08100
Fe	Fe	0.82051 0.76092 0.69653 1.23100
O 	O 	0.83460 0.84980 0.70440 -0.43200
O 	O 	0.75010 0.89270 0.74530 -0.43100
O 	O 	0.73660 0.12620 0.72590 -0.42600
O 	O 	0.81910 0.17120 0.68570 -0.44500
C 	C 	0.80320 0.89560 0.72380 0.37200
C 	C 	0.83080 0.95740 0.71520 -0.07800
C 	C 	0.89350 0.96120 0.70560 -0.05500
H 	H 	0.91700 0.92520 0.70500 0.07800
C 	C 	0.92060 0.01460 0.69730 0.08100
C 	C 	0.88720 0.07170 0.69720 -0.04000
H 	H 	0.90700 0.10940 0.69130 0.06900
C 	C 	0.79750 0.01040 0.71690 0.03200
H 	H 	0.75540 0.00860 0.72540 0.04400
C 	C 	0.82520 0.06800 0.70620 -0.09400
C 	C 	0.79240 0.12580 0.70610 0.38800
N 	N 	0.98740 0.02410 0.69510 -0.08100
Fe	Fe	0.76092 0.30347 0.17949 1.23100
O 	O 	0.84980 0.29560 0.16540 -0.43200
O 	O 	0.89270 0.25470 0.24990 -0.43100
O 	O 	0.12620 0.27410 0.26340 -0.42600
O 	O 	0.17120 0.31430 0.18090 -0.44500
C 	C 	0.89560 0.27620 0.19680 0.37200
C 	C 	0.95740 0.28480 0.16920 -0.07800
C 	C 	0.96120 0.29440 0.10650 -0.05500
H 	H 	0.92520 0.29500 0.08300 0.07800
C 	C 	0.01460 0.30270 0.07940 0.08100
C 	C 	0.07170 0.30280 0.11280 -0.04000
H 	H 	0.10940 0.30870 0.09300 0.06900
C 	C 	0.01040 0.28310 0.20250 0.03200
H 	H 	0.00860 0.27460 0.24460 0.04400
C 	C 	0.06800 0.29380 0.17480 -0.09400
C 	C 	0.12580 0.29390 0.20760 0.38800
N 	N 	0.02410 0.30490 0.01260 -0.08100
Fe	Fe	0.23908 0.30347 0.82051 1.23100
O 	O 	0.15020 0.29560 0.83460 -0.43200
O 	O 	0.10730 0.25470 0.75010 -0.43100
O 	O 	0.87380 0.27410 0.73660 -0.42600
O 	O 	0.82880 0.31430 0.81910 -0.44500
C 	C 	0.10440 0.27620 0.80320 0.37200
C 	C 	0.04260 0.28480 0.83080 -0.07800
C 	C 	0.03880 0.29440 0.89350 -0.05500
H 	H 	0.07480 0.29500 0.91700 0.07800
C 	C 	0.98540 0.30270 0.92060 0.08100
C 	C 	0.92830 0.30280 0.88720 -0.04000
H 	H 	0.89060 0.30870 0.90700 0.06900
C 	C 	0.98960 0.28310 0.79750 0.03200
H 	H 	0.99140 0.27460 0.75540 0.04400
C 	C 	0.93200 0.29380 0.82520 -0.09400
C 	C 	0.87420 0.29390 0.79240 0.38800
N 	N 	0.97590 0.30490 0.98740 -0.08100
Fe	Fe	0.23908 0.69653 0.17949 1.23100
O 	O 	0.15020 0.70440 0.16540 -0.43200
O 	O 	0.10730 0.74530 0.24990 -0.43100
O 	O 	0.87380 0.72590 0.26340 -0.42600
O 	O 	0.82880 0.68570 0.18090 -0.44500
C 	C 	0.10440 0.72380 0.19680 0.37200
C 	C 	0.04260 0.71520 0.16920 -0.07800
C 	C 	0.03880 0.70560 0.10650 -0.05500
H 	H 	0.07480 0.70500 0.08300 0.07800
C 	C 	0.98540 0.69730 0.07940 0.08100
C 	C 	0.92830 0.69720 0.11280 -0.04000
H 	H 	0.89060 0.69130 0.09300 0.06900
C 	C 	0.98960 0.71690 0.20250 0.03200
H 	H 	0.99140 0.72540 0.24460 0.04400
C 	C 	0.93200 0.70620 0.17480 -0.09400
C 	C 	0.87420 0.70610 0.20760 0.38800
N 	N 	0.97590 0.69510 0.01260 -0.08100
Fe	Fe	0.76092 0.69653 0.82051 1.23100
O 	O 	0.84980 0.70440 0.83460 -0.43200
O 	O 	0.89270 0.74530 0.75010 -0.43100
O 	O 	0.12620 0.72590 0.73660 -0.42600
O 	O 	0.17120 0.68570 0.81910 -0.44500
C 	C 	0.89560 0.72380 0.80320 0.37200
C 	C 	0.95740 0.71520 0.83080 -0.07800
C 	C 	0.96120 0.70560 0.89350 -0.05500
H 	H 	0.92520 0.70500 0.91700 0.07800
C 	C 	0.01460 0.69730 0.92060 0.08100
C 	C 	0.07170 0.69720 0.88720 -0.04000
H 	H 	0.10940 0.69130 0.90700 0.06900
C 	C 	0.01040 0.71690 0.79750 0.03200
H 	H 	0.00860 0.72540 0.75540 0.04400
C 	C 	0.06800 0.70620 0.82520 -0.09400
C 	C 	0.12580 0.70610 0.79240 0.38800
N 	N 	0.02410 0.69510 0.98740 -0.08100
Fe	Fe	0.30347 0.17949 0.76092 1.23100
O 	O 	0.29560 0.16540 0.84980 -0.43200
O 	O 	0.25470 0.24990 0.89270 -0.43100
O 	O 	0.27410 0.26340 0.12620 -0.42600
O 	O 	0.31430 0.18090 0.17120 -0.44500
C 	C 	0.27620 0.19680 0.89560 0.37200
C 	C 	0.28480 0.16920 0.95740 -0.07800
C 	C 	0.29440 0.10650 0.96120 -0.05500
H 	H 	0.29500 0.08300 0.92520 0.07800
C 	C 	0.30270 0.07940 0.01460 0.08100
C 	C 	0.30280 0.11280 0.07170 -0.04000
H 	H 	0.30870 0.09300 0.10940 0.06900
C 	C 	0.28310 0.20250 0.01040 0.03200
H 	H 	0.27460 0.24460 0.00860 0.04400
C 	C 	0.29380 0.17480 0.06800 -0.09400
C 	C 	0.29390 0.20760 0.12580 0.38800
N 	N 	0.30490 0.01260 0.02410 -0.08100
Fe	Fe	0.30347 0.82051 0.23908 1.23100
O 	O 	0.29560 0.83460 0.15020 -0.43200
O 	O 	0.25470 0.75010 0.10730 -0.43100
O 	O 	0.27410 0.73660 0.87380 -0.42600
O 	O 	0.31430 0.81910 0.82880 -0.44500
C 	C 	0.27620 0.80320 0.10440 0.37200
C 	C 	0.28480 0.83080 0.04260 -0.07800
C 	C 	0.29440 0.89350 0.03880 -0.05500
H 	H 	0.29500 0.91700 0.07480 0.07800
C 	C 	0.30270 0.92060 0.98540 0.08100
C 	C 	0.30280 0.88720 0.92830 -0.04000
H 	H 	0.30870 0.90700 0.89060 0.06900
C 	C 	0.28310 0.79750 0.98960 0.03200
H 	H 	0.27460 0.75540 0.99140 0.04400
C 	C 	0.29380 0.82520 0.93200 -0.09400
C 	C 	0.29390 0.79240 0.87420 0.38800
N 	N 	0.30490 0.98740 0.97590 -0.08100
Fe	Fe	0.69653 0.17949 0.23908 1.23100
O 	O 	0.70440 0.16540 0.15020 -0.43200
O 	O 	0.74530 0.24990 0.10730 -0.43100
O 	O 	0.72590 0.26340 0.87380 -0.42600
O 	O 	0.68570 0.18090 0.82880 -0.44500
C 	C 	0.72380 0.19680 0.10440 0.37200
C 	C 	0.71520 0.16920 0.04260 -0.07800
C 	C 	0.70560 0.10650 0.03880 -0.05500
H 	H 	0.70500 0.08300 0.07480 0.07800
C 	C 	0.69730 0.07940 0.98540 0.08100
C 	C 	0.69720 0.11280 0.92830 -0.04000
H 	H 	0.69130 0.09300 0.89060 0.06900
C 	C 	0.71690 0.20250 0.98960 0.03200
H 	H 	0.72540 0.24460 0.99140 0.04400
C 	C 	0.70620 0.17480 0.93200 -0.09400
C 	C 	0.70610 0.20760 0.87420 0.38800
N 	N 	0.69510 0.01260 0.97590 -0.08100
Fe	Fe	0.69653 0.82051 0.76092 1.23100
O 	O 	0.70440 0.83460 0.84980 -0.43200
O 	O 	0.74530 0.75010 0.89270 -0.43100
O 	O 	0.72590 0.73660 0.12620 -0.42600
O 	O 	0.68570 0.81910 0.17120 -0.44500
C 	C 	0.72380 0.80320 0.89560 0.37200
C 	C 	0.71520 0.83080 0.95740 -0.07800
C 	C 	0.70560 0.89350 0.96120 -0.05500
H 	H 	0.70500 0.91700 0.92520 0.07800
C 	C 	0.69730 0.92060 0.01460 0.08100
C 	C 	0.69720 0.88720 0.07170 -0.04000
H 	H 	0.69130 0.90700 0.10940 0.06900
C 	C 	0.71690 0.79750 0.01040 0.03200
H 	H 	0.72540 0.75540 0.00860 0.04400
C 	C 	0.70620 0.82520 0.06800 -0.09400
C 	C 	0.70610 0.79240 0.12580 0.38800
N 	N 	0.69510 0.98740 0.02410 -0.08100
O 	O 	0.26010 0.73990 0.73990 -0.64500
O 	O 	0.73990 0.26010 0.73990 -0.64500
O 	O 	0.73990 0.73990 0.26010 -0.64500
O 	O 	0.26010 0.26010 0.26010 -0.64500
O 	O 	0.23990 0.76010 0.23990 -0.64500
O 	O 	0.76010 0.23990 0.23990 -0.64500
O 	O 	0.23990 0.23990 0.76010 -0.64500
O 	O 	0.76010 0.76010 0.76010 -0.64500
