data_crystal

_cell_length_a 22.45700
_cell_length_b 22.45700
_cell_length_c 22.45700
_cell_angle_alpha 90.00000
_cell_angle_beta  90.00000
_cell_angle_gamma 90.00000

_symmetry_space_group_name_	'P 1'
_symmetry_space_group_name_H-M	'P 1'

loop_
_symmetry_equiv_pos_as_xyz
  x,y,z

loop_
_atom_site_label
_atom_site_type_symbol
_atom_site_fract_x
_atom_site_fract_y
_atom_site_fract_z
_atom_site_charge
In	In	0.67769 0.73929 0.80642 2.00600
C 	C 	0.80510 0.72000 0.10150 0.42400
C 	C 	0.79490 0.70530 0.87710 0.42800
C 	C 	0.82850 0.70640 0.93460 -0.09300
C 	C 	0.89490 0.70570 0.03900 -0.04000
H 	H 	0.91780 0.70530 0.07460 0.07800
C 	C 	0.80050 0.71430 0.98900 0.03700
H 	H 	0.75870 0.72050 0.99070 0.05400
C 	C 	0.83410 0.71310 0.04150 -0.09000
C 	C 	0.92270 0.69870 0.98430 0.08200
C 	C 	0.88960 0.69860 0.93180 -0.04100
H 	H 	0.90870 0.69310 0.89440 0.07600
O 	O 	0.60710 0.73880 0.87200 -0.43100
N 	N 	0.98620 0.69570 0.97710 -0.07900
O 	O 	0.74070 0.72050 0.87857 -0.53400
O 	O 	0.82450 0.69000 0.83225 -0.55700
O 	O 	0.83720 0.70610 0.14586 -0.55200
O 	O 	0.75246 0.73870 0.10330 -0.53100
Cl	Cl	0.60440 0.73720 0.88780 0.08600
In	In	0.32231 0.26071 0.80642 2.00600
C 	C 	0.19490 0.28000 0.10150 0.42400
C 	C 	0.20510 0.29470 0.87710 0.42800
C 	C 	0.17150 0.29360 0.93460 -0.09300
C 	C 	0.10510 0.29430 0.03900 -0.04000
H 	H 	0.08220 0.29470 0.07460 0.07800
C 	C 	0.19950 0.28570 0.98900 0.03700
H 	H 	0.24130 0.27950 0.99070 0.05400
C 	C 	0.16590 0.28690 0.04150 -0.09000
C 	C 	0.07730 0.30130 0.98430 0.08200
C 	C 	0.11040 0.30140 0.93180 -0.04100
H 	H 	0.09130 0.30690 0.89440 0.07600
O 	O 	0.39290 0.26120 0.87200 -0.43100
N 	N 	0.01380 0.30430 0.97710 -0.07900
O 	O 	0.25930 0.27950 0.87857 -0.53400
O 	O 	0.17550 0.31000 0.83225 -0.55700
O 	O 	0.16280 0.29390 0.14586 -0.55200
O 	O 	0.24754 0.26130 0.10330 -0.53100
Cl	Cl	0.39560 0.26280 0.88780 0.08600
In	In	0.32231 0.73929 0.19358 2.00600
C 	C 	0.19490 0.72000 0.89850 0.42400
C 	C 	0.20510 0.70530 0.12290 0.42900
C 	C 	0.17150 0.70640 0.06540 -0.09200
C 	C 	0.10510 0.70570 0.96100 -0.03900
H 	H 	0.08220 0.70530 0.92540 0.07900
C 	C 	0.19950 0.71430 0.01100 0.03800
H 	H 	0.24130 0.72050 0.00930 0.05500
C 	C 	0.16590 0.71310 0.95850 -0.08900
C 	C 	0.07730 0.69870 0.01570 0.08300
C 	C 	0.11040 0.69860 0.06820 -0.04000
H 	H 	0.09130 0.69310 0.10560 0.07700
O 	O 	0.39290 0.73880 0.12800 -0.43000
N 	N 	0.01380 0.69570 0.02290 -0.07800
O 	O 	0.25930 0.72050 0.12143 -0.53300
O 	O 	0.17550 0.69000 0.16775 -0.55600
O 	O 	0.16280 0.70610 0.85414 -0.55100
O 	O 	0.24754 0.73870 0.89670 -0.53000
Cl	Cl	0.39560 0.73720 0.11220 0.08700
In	In	0.67769 0.26071 0.19358 2.00700
C 	C 	0.80510 0.28000 0.89850 0.42500
C 	C 	0.79490 0.29470 0.12290 0.42900
C 	C 	0.82850 0.29360 0.06540 -0.09200
C 	C 	0.89490 0.29430 0.96100 -0.03900
H 	H 	0.91780 0.29470 0.92540 0.07900
C 	C 	0.80050 0.28570 0.01100 0.03800
H 	H 	0.75870 0.27950 0.00930 0.05500
C 	C 	0.83410 0.28690 0.95850 -0.08900
C 	C 	0.92270 0.30130 0.01570 0.08300
C 	C 	0.88960 0.30140 0.06820 -0.04000
H 	H 	0.90870 0.30690 0.10560 0.07700
O 	O 	0.60710 0.26120 0.12800 -0.43000
N 	N 	0.98620 0.30430 0.02290 -0.07800
O 	O 	0.74070 0.27950 0.12143 -0.53300
O 	O 	0.82450 0.31000 0.16775 -0.55600
O 	O 	0.83720 0.29390 0.85414 -0.55100
O 	O 	0.75246 0.26130 0.89670 -0.53000
Cl	Cl	0.60440 0.26280 0.11220 0.08700
In	In	0.80642 0.67769 0.73929 2.00700
C 	C 	0.10150 0.80510 0.72000 0.42500
C 	C 	0.87710 0.79490 0.70530 0.42900
C 	C 	0.93460 0.82850 0.70640 -0.09200
C 	C 	0.03900 0.89490 0.70570 -0.03900
H 	H 	0.07460 0.91780 0.70530 0.07900
C 	C 	0.98900 0.80050 0.71430 0.03800
H 	H 	0.99070 0.75870 0.72050 0.05500
C 	C 	0.04150 0.83410 0.71310 -0.08900
C 	C 	0.98430 0.92270 0.69870 0.08300
C 	C 	0.93180 0.88960 0.69860 -0.04000
H 	H 	0.89440 0.90870 0.69310 0.07700
O 	O 	0.87200 0.60710 0.73880 -0.43000
N 	N 	0.97710 0.98620 0.69570 -0.07800
O 	O 	0.87857 0.74070 0.72050 -0.53300
O 	O 	0.83225 0.82450 0.69000 -0.55600
O 	O 	0.14586 0.83720 0.70610 -0.55100
O 	O 	0.10330 0.75246 0.73870 -0.53000
Cl	Cl	0.88780 0.60440 0.73720 0.08700
In	In	0.80642 0.32231 0.26071 2.00700
C 	C 	0.10150 0.19490 0.28000 0.42500
C 	C 	0.87710 0.20510 0.29470 0.42900
C 	C 	0.93460 0.17150 0.29360 -0.09200
C 	C 	0.03900 0.10510 0.29430 -0.03900
H 	H 	0.07460 0.08220 0.29470 0.07900
C 	C 	0.98900 0.19950 0.28570 0.03800
H 	H 	0.99070 0.24130 0.27950 0.05500
C 	C 	0.04150 0.16590 0.28690 -0.08900
C 	C 	0.98430 0.07730 0.30130 0.08300
C 	C 	0.93180 0.11040 0.30140 -0.04000
H 	H 	0.89440 0.09130 0.30690 0.07700
O 	O 	0.87200 0.39290 0.26120 -0.43000
N 	N 	0.97710 0.01380 0.30430 -0.07800
O 	O 	0.87857 0.25930 0.27950 -0.53300
O 	O 	0.83225 0.17550 0.31000 -0.55600
O 	O 	0.14586 0.16280 0.29390 -0.55100
O 	O 	0.10330 0.24754 0.26130 -0.53000
Cl	Cl	0.88780 0.39560 0.26280 0.08700
In	In	0.19358 0.32231 0.73929 2.00700
C 	C 	0.89850 0.19490 0.72000 0.42500
C 	C 	0.12290 0.20510 0.70530 0.42900
C 	C 	0.06540 0.17150 0.70640 -0.09200
C 	C 	0.96100 0.10510 0.70570 -0.03900
H 	H 	0.92540 0.08220 0.70530 0.07900
C 	C 	0.01100 0.19950 0.71430 0.03800
H 	H 	0.00930 0.24130 0.72050 0.05500
C 	C 	0.95850 0.16590 0.71310 -0.08900
C 	C 	0.01570 0.07730 0.69870 0.08300
C 	C 	0.06820 0.11040 0.69860 -0.04000
H 	H 	0.10560 0.09130 0.69310 0.07700
O 	O 	0.12800 0.39290 0.73880 -0.43000
N 	N 	0.02290 0.01380 0.69570 -0.07800
O 	O 	0.12143 0.25930 0.72050 -0.53300
O 	O 	0.16775 0.17550 0.69000 -0.55600
O 	O 	0.85414 0.16280 0.70610 -0.55100
O 	O 	0.89670 0.24754 0.73870 -0.53000
Cl	Cl	0.11220 0.39560 0.73720 0.08700
In	In	0.19358 0.67769 0.26071 2.00700
C 	C 	0.89850 0.80510 0.28000 0.42500
C 	C 	0.12290 0.79490 0.29470 0.42900
C 	C 	0.06540 0.82850 0.29360 -0.09200
C 	C 	0.96100 0.89490 0.29430 -0.03900
H 	H 	0.92540 0.91780 0.29470 0.07900
C 	C 	0.01100 0.80050 0.28570 0.03800
H 	H 	0.00930 0.75870 0.27950 0.05500
C 	C 	0.95850 0.83410 0.28690 -0.08900
C 	C 	0.01570 0.92270 0.30130 0.08300
C 	C 	0.06820 0.88960 0.30140 -0.04000
H 	H 	0.10560 0.90870 0.30690 0.07700
O 	O 	0.12800 0.60710 0.26120 -0.43000
N 	N 	0.02290 0.98620 0.30430 -0.07800
O 	O 	0.12143 0.74070 0.27950 -0.53300
O 	O 	0.16775 0.82450 0.31000 -0.55600
O 	O 	0.85414 0.83720 0.29390 -0.55100
O 	O 	0.89670 0.75246 0.26130 -0.53000
Cl	Cl	0.11220 0.60440 0.26280 0.08700
In	In	0.73929 0.80642 0.67769 2.00700
C 	C 	0.72000 0.10150 0.80510 0.42500
C 	C 	0.70530 0.87710 0.79490 0.42900
C 	C 	0.70640 0.93460 0.82850 -0.09200
C 	C 	0.70570 0.03900 0.89490 -0.03900
H 	H 	0.70530 0.07460 0.91780 0.07900
C 	C 	0.71430 0.98900 0.80050 0.03800
H 	H 	0.72050 0.99070 0.75870 0.05500
C 	C 	0.71310 0.04150 0.83410 -0.08900
C 	C 	0.69870 0.98430 0.92270 0.08300
C 	C 	0.69860 0.93180 0.88960 -0.04000
H 	H 	0.69310 0.89440 0.90870 0.07700
O 	O 	0.73880 0.87200 0.60710 -0.43000
N 	N 	0.69570 0.97710 0.98620 -0.07800
O 	O 	0.72050 0.87857 0.74070 -0.53300
O 	O 	0.69000 0.83225 0.82450 -0.55600
O 	O 	0.70610 0.14586 0.83720 -0.55100
O 	O 	0.73870 0.10330 0.75246 -0.53000
Cl	Cl	0.73720 0.88780 0.60440 0.08700
In	In	0.26071 0.80642 0.32231 2.00700
C 	C 	0.28000 0.10150 0.19490 0.42500
C 	C 	0.29470 0.87710 0.20510 0.42900
C 	C 	0.29360 0.93460 0.17150 -0.09200
C 	C 	0.29430 0.03900 0.10510 -0.03900
H 	H 	0.29470 0.07460 0.08220 0.07900
C 	C 	0.28570 0.98900 0.19950 0.03800
H 	H 	0.27950 0.99070 0.24130 0.05500
C 	C 	0.28690 0.04150 0.16590 -0.08900
C 	C 	0.30130 0.98430 0.07730 0.08300
C 	C 	0.30140 0.93180 0.11040 -0.04000
H 	H 	0.30690 0.89440 0.09130 0.07700
O 	O 	0.26120 0.87200 0.39290 -0.43000
N 	N 	0.30430 0.97710 0.01380 -0.07800
O 	O 	0.27950 0.87857 0.25930 -0.53300
O 	O 	0.31000 0.83225 0.17550 -0.55600
O 	O 	0.29390 0.14586 0.16280 -0.55100
O 	O 	0.26130 0.10330 0.24754 -0.53000
Cl	Cl	0.26280 0.88780 0.39560 0.08700
In	In	0.73929 0.19358 0.32231 2.00700
C 	C 	0.72000 0.89850 0.19490 0.42500
C 	C 	0.70530 0.12290 0.20510 0.42900
C 	C 	0.70640 0.06540 0.17150 -0.09200
C 	C 	0.70570 0.96100 0.10510 -0.03900
H 	H 	0.70530 0.92540 0.08220 0.07900
C 	C 	0.71430 0.01100 0.19950 0.03800
H 	H 	0.72050 0.00930 0.24130 0.05500
C 	C 	0.71310 0.95850 0.16590 -0.08900
C 	C 	0.69870 0.01570 0.07730 0.08300
C 	C 	0.69860 0.06820 0.11040 -0.04000
H 	H 	0.69310 0.10560 0.09130 0.07700
O 	O 	0.73880 0.12800 0.39290 -0.43000
N 	N 	0.69570 0.02290 0.01380 -0.07800
O 	O 	0.72050 0.12143 0.25930 -0.53300
O 	O 	0.69000 0.16775 0.17550 -0.55600
O 	O 	0.70610 0.85414 0.16280 -0.55100
O 	O 	0.73870 0.89670 0.24754 -0.53000
Cl	Cl	0.73720 0.11220 0.39560 0.08700
In	In	0.26071 0.19358 0.67769 2.00700
C 	C 	0.28000 0.89850 0.80510 0.42500
C 	C 	0.29470 0.12290 0.79490 0.42900
C 	C 	0.29360 0.06540 0.82850 -0.09200
C 	C 	0.29430 0.96100 0.89490 -0.03900
H 	H 	0.29470 0.92540 0.91780 0.07900
C 	C 	0.28570 0.01100 0.80050 0.03800
H 	H 	0.27950 0.00930 0.75870 0.05500
C 	C 	0.28690 0.95850 0.83410 -0.08900
C 	C 	0.30130 0.01570 0.92270 0.08300
C 	C 	0.30140 0.06820 0.88960 -0.04000
H 	H 	0.30690 0.10560 0.90870 0.07700
O 	O 	0.26120 0.12800 0.60710 -0.43000
N 	N 	0.30430 0.02290 0.98620 -0.07800
O 	O 	0.27950 0.12143 0.74070 -0.53300
O 	O 	0.31000 0.16775 0.82450 -0.55600
O 	O 	0.29390 0.85414 0.83720 -0.55100
O 	O 	0.26130 0.89670 0.75246 -0.53000
Cl	Cl	0.26280 0.11220 0.60440 0.08700
In	In	0.23929 0.17769 0.30642 2.00700
C 	C 	0.22000 0.30510 0.60150 0.42500
C 	C 	0.20530 0.29490 0.37710 0.42900
C 	C 	0.20640 0.32850 0.43460 -0.09200
C 	C 	0.20570 0.39490 0.53900 -0.03900
H 	H 	0.20530 0.41780 0.57460 0.07900
C 	C 	0.21430 0.30050 0.48900 0.03800
H 	H 	0.22050 0.25870 0.49070 0.05500
C 	C 	0.21310 0.33410 0.54150 -0.08900
C 	C 	0.19870 0.42270 0.48430 0.08300
C 	C 	0.19860 0.38960 0.43180 -0.04000
H 	H 	0.19310 0.40870 0.39440 0.07700
O 	O 	0.23880 0.10710 0.37200 -0.43000
N 	N 	0.19570 0.48620 0.47710 -0.07800
O 	O 	0.22050 0.24070 0.37857 -0.53300
O 	O 	0.19000 0.32450 0.33225 -0.55600
O 	O 	0.20610 0.33720 0.64586 -0.55100
O 	O 	0.23870 0.25246 0.60330 -0.53000
Cl	Cl	0.23720 0.10440 0.38780 0.08700
In	In	0.76071 0.82231 0.30642 2.00700
C 	C 	0.78000 0.69490 0.60150 0.42500
C 	C 	0.79470 0.70510 0.37710 0.42900
C 	C 	0.79360 0.67150 0.43460 -0.09200
C 	C 	0.79430 0.60510 0.53900 -0.03900
H 	H 	0.79470 0.58220 0.57460 0.07900
C 	C 	0.78570 0.69950 0.48900 0.03800
H 	H 	0.77950 0.74130 0.49070 0.05500
C 	C 	0.78690 0.66590 0.54150 -0.08900
C 	C 	0.80130 0.57730 0.48430 0.08300
C 	C 	0.80140 0.61040 0.43180 -0.04000
H 	H 	0.80690 0.59130 0.39440 0.07700
O 	O 	0.76120 0.89290 0.37200 -0.43000
N 	N 	0.80430 0.51380 0.47710 -0.07800
O 	O 	0.77950 0.75930 0.37857 -0.53300
O 	O 	0.81000 0.67550 0.33225 -0.55600
O 	O 	0.79390 0.66280 0.64586 -0.55100
O 	O 	0.76130 0.74754 0.60330 -0.53000
Cl	Cl	0.76280 0.89560 0.38780 0.08700
In	In	0.23929 0.82231 0.69358 2.00700
C 	C 	0.22000 0.69490 0.39850 0.42500
C 	C 	0.20530 0.70510 0.62290 0.42900
C 	C 	0.20640 0.67150 0.56540 -0.09200
C 	C 	0.20570 0.60510 0.46100 -0.03900
H 	H 	0.20530 0.58220 0.42540 0.07900
C 	C 	0.21430 0.69950 0.51100 0.03800
H 	H 	0.22050 0.74130 0.50930 0.05500
C 	C 	0.21310 0.66590 0.45850 -0.08900
C 	C 	0.19870 0.57730 0.51570 0.08300
C 	C 	0.19860 0.61040 0.56820 -0.04000
H 	H 	0.19310 0.59130 0.60560 0.07700
O 	O 	0.23880 0.89290 0.62800 -0.43000
N 	N 	0.19570 0.51380 0.52290 -0.07800
O 	O 	0.22050 0.75930 0.62143 -0.53300
O 	O 	0.19000 0.67550 0.66775 -0.55600
O 	O 	0.20610 0.66280 0.35414 -0.55100
O 	O 	0.23870 0.74754 0.39670 -0.53000
Cl	Cl	0.23720 0.89560 0.61220 0.08700
In	In	0.76071 0.17769 0.69358 2.00700
C 	C 	0.78000 0.30510 0.39850 0.42500
C 	C 	0.79470 0.29490 0.62290 0.42900
C 	C 	0.79360 0.32850 0.56540 -0.09200
C 	C 	0.79430 0.39490 0.46100 -0.03900
H 	H 	0.79470 0.41780 0.42540 0.07900
C 	C 	0.78570 0.30050 0.51100 0.03800
H 	H 	0.77950 0.25870 0.50930 0.05500
C 	C 	0.78690 0.33410 0.45850 -0.08900
C 	C 	0.80130 0.42270 0.51570 0.08300
C 	C 	0.80140 0.38960 0.56820 -0.04000
H 	H 	0.80690 0.40870 0.60560 0.07700
O 	O 	0.76120 0.10710 0.62800 -0.43000
N 	N 	0.80430 0.48620 0.52290 -0.07800
O 	O 	0.77950 0.24070 0.62143 -0.53300
O 	O 	0.81000 0.32450 0.66775 -0.55600
O 	O 	0.79390 0.33720 0.35414 -0.55100
O 	O 	0.76130 0.25246 0.39670 -0.53000
Cl	Cl	0.76280 0.10440 0.61220 0.08700
In	In	0.17769 0.30642 0.23929 2.00700
C 	C 	0.30510 0.60150 0.22000 0.42500
C 	C 	0.29490 0.37710 0.20530 0.42900
C 	C 	0.32850 0.43460 0.20640 -0.09200
C 	C 	0.39490 0.53900 0.20570 -0.03900
H 	H 	0.41780 0.57460 0.20530 0.07900
C 	C 	0.30050 0.48900 0.21430 0.03800
H 	H 	0.25870 0.49070 0.22050 0.05500
C 	C 	0.33410 0.54150 0.21310 -0.08900
C 	C 	0.42270 0.48430 0.19870 0.08300
C 	C 	0.38960 0.43180 0.19860 -0.04000
H 	H 	0.40870 0.39440 0.19310 0.07700
O 	O 	0.10710 0.37200 0.23880 -0.43000
N 	N 	0.48620 0.47710 0.19570 -0.07800
O 	O 	0.24070 0.37857 0.22050 -0.53300
O 	O 	0.32450 0.33225 0.19000 -0.55600
O 	O 	0.33720 0.64586 0.20610 -0.55100
O 	O 	0.25246 0.60330 0.23870 -0.53000
Cl	Cl	0.10440 0.38780 0.23720 0.08700
In	In	0.82231 0.30642 0.76071 2.00700
C 	C 	0.69490 0.60150 0.78000 0.42500
C 	C 	0.70510 0.37710 0.79470 0.42900
C 	C 	0.67150 0.43460 0.79360 -0.09200
C 	C 	0.60510 0.53900 0.79430 -0.03900
H 	H 	0.58220 0.57460 0.79470 0.07900
C 	C 	0.69950 0.48900 0.78570 0.03800
H 	H 	0.74130 0.49070 0.77950 0.05500
C 	C 	0.66590 0.54150 0.78690 -0.08900
C 	C 	0.57730 0.48430 0.80130 0.08300
C 	C 	0.61040 0.43180 0.80140 -0.04000
H 	H 	0.59130 0.39440 0.80690 0.07700
O 	O 	0.89290 0.37200 0.76120 -0.43000
N 	N 	0.51380 0.47710 0.80430 -0.07800
O 	O 	0.75930 0.37857 0.77950 -0.53300
O 	O 	0.67550 0.33225 0.81000 -0.55600
O 	O 	0.66280 0.64586 0.79390 -0.55100
O 	O 	0.74754 0.60330 0.76130 -0.53000
Cl	Cl	0.89560 0.38780 0.76280 0.08700
In	In	0.82231 0.69358 0.23929 2.00700
C 	C 	0.69490 0.39850 0.22000 0.42500
C 	C 	0.70510 0.62290 0.20530 0.42900
C 	C 	0.67150 0.56540 0.20640 -0.09200
C 	C 	0.60510 0.46100 0.20570 -0.03900
H 	H 	0.58220 0.42540 0.20530 0.07900
C 	C 	0.69950 0.51100 0.21430 0.03800
H 	H 	0.74130 0.50930 0.22050 0.05500
C 	C 	0.66590 0.45850 0.21310 -0.08900
C 	C 	0.57730 0.51570 0.19870 0.08300
C 	C 	0.61040 0.56820 0.19860 -0.04000
H 	H 	0.59130 0.60560 0.19310 0.07700
O 	O 	0.89290 0.62800 0.23880 -0.43000
N 	N 	0.51380 0.52290 0.19570 -0.07800
O 	O 	0.75930 0.62143 0.22050 -0.53300
O 	O 	0.67550 0.66775 0.19000 -0.55600
O 	O 	0.66280 0.35414 0.20610 -0.55100
O 	O 	0.74754 0.39670 0.23870 -0.53000
Cl	Cl	0.89560 0.61220 0.23720 0.08700
In	In	0.17769 0.69358 0.76071 2.00700
C 	C 	0.30510 0.39850 0.78000 0.42500
C 	C 	0.29490 0.62290 0.79470 0.42900
C 	C 	0.32850 0.56540 0.79360 -0.09200
C 	C 	0.39490 0.46100 0.79430 -0.03900
H 	H 	0.41780 0.42540 0.79470 0.07900
C 	C 	0.30050 0.51100 0.78570 0.03800
H 	H 	0.25870 0.50930 0.77950 0.05500
C 	C 	0.33410 0.45850 0.78690 -0.08900
C 	C 	0.42270 0.51570 0.80130 0.08300
C 	C 	0.38960 0.56820 0.80140 -0.04000
H 	H 	0.40870 0.60560 0.80690 0.07700
O 	O 	0.10710 0.62800 0.76120 -0.43000
N 	N 	0.48620 0.52290 0.80430 -0.07800
O 	O 	0.24070 0.62143 0.77950 -0.53300
O 	O 	0.32450 0.66775 0.81000 -0.55600
O 	O 	0.33720 0.35414 0.79390 -0.55100
O 	O 	0.25246 0.39670 0.76130 -0.53000
Cl	Cl	0.10440 0.61220 0.76280 0.08700
In	In	0.30642 0.23929 0.17769 2.00700
C 	C 	0.60150 0.22000 0.30510 0.42500
C 	C 	0.37710 0.20530 0.29490 0.42900
C 	C 	0.43460 0.20640 0.32850 -0.09200
C 	C 	0.53900 0.20570 0.39490 -0.03900
H 	H 	0.57460 0.20530 0.41780 0.07900
C 	C 	0.48900 0.21430 0.30050 0.03800
H 	H 	0.49070 0.22050 0.25870 0.05500
C 	C 	0.54150 0.21310 0.33410 -0.08900
C 	C 	0.48430 0.19870 0.42270 0.08300
C 	C 	0.43180 0.19860 0.38960 -0.04000
H 	H 	0.39440 0.19310 0.40870 0.07700
O 	O 	0.37200 0.23880 0.10710 -0.43000
N 	N 	0.47710 0.19570 0.48620 -0.07800
O 	O 	0.37857 0.22050 0.24070 -0.53300
O 	O 	0.33225 0.19000 0.32450 -0.55600
O 	O 	0.64586 0.20610 0.33720 -0.55100
O 	O 	0.60330 0.23870 0.25246 -0.53000
Cl	Cl	0.38780 0.23720 0.10440 0.08700
In	In	0.30642 0.76071 0.82231 2.00700
C 	C 	0.60150 0.78000 0.69490 0.42500
C 	C 	0.37710 0.79470 0.70510 0.42900
C 	C 	0.43460 0.79360 0.67150 -0.09200
C 	C 	0.53900 0.79430 0.60510 -0.03900
H 	H 	0.57460 0.79470 0.58220 0.07900
C 	C 	0.48900 0.78570 0.69950 0.03800
H 	H 	0.49070 0.77950 0.74130 0.05500
C 	C 	0.54150 0.78690 0.66590 -0.08900
C 	C 	0.48430 0.80130 0.57730 0.08300
C 	C 	0.43180 0.80140 0.61040 -0.04000
H 	H 	0.39440 0.80690 0.59130 0.07700
O 	O 	0.37200 0.76120 0.89290 -0.43000
N 	N 	0.47710 0.80430 0.51380 -0.07800
O 	O 	0.37857 0.77950 0.75930 -0.53300
O 	O 	0.33225 0.81000 0.67550 -0.55600
O 	O 	0.64586 0.79390 0.66280 -0.55100
O 	O 	0.60330 0.76130 0.74754 -0.53000
Cl	Cl	0.38780 0.76280 0.89560 0.08700
In	In	0.69358 0.23929 0.82231 2.00700
C 	C 	0.39850 0.22000 0.69490 0.42500
C 	C 	0.62290 0.20530 0.70510 0.42900
C 	C 	0.56540 0.20640 0.67150 -0.09200
C 	C 	0.46100 0.20570 0.60510 -0.03900
H 	H 	0.42540 0.20530 0.58220 0.07900
C 	C 	0.51100 0.21430 0.69950 0.03800
H 	H 	0.50930 0.22050 0.74130 0.05500
C 	C 	0.45850 0.21310 0.66590 -0.08900
C 	C 	0.51570 0.19870 0.57730 0.08300
C 	C 	0.56820 0.19860 0.61040 -0.04000
H 	H 	0.60560 0.19310 0.59130 0.07700
O 	O 	0.62800 0.23880 0.89290 -0.43000
N 	N 	0.52290 0.19570 0.51380 -0.07800
O 	O 	0.62143 0.22050 0.75930 -0.53300
O 	O 	0.66775 0.19000 0.67550 -0.55600
O 	O 	0.35414 0.20610 0.66280 -0.55100
O 	O 	0.39670 0.23870 0.74754 -0.53000
Cl	Cl	0.61220 0.23720 0.89560 0.08700
In	In	0.69358 0.76071 0.17769 2.00700
C 	C 	0.39850 0.78000 0.30510 0.42500
C 	C 	0.62290 0.79470 0.29490 0.42900
C 	C 	0.56540 0.79360 0.32850 -0.09200
C 	C 	0.46100 0.79430 0.39490 -0.03900
H 	H 	0.42540 0.79470 0.41780 0.07900
C 	C 	0.51100 0.78570 0.30050 0.03800
H 	H 	0.50930 0.77950 0.25870 0.05500
C 	C 	0.45850 0.78690 0.33410 -0.08900
C 	C 	0.51570 0.80130 0.42270 0.08300
C 	C 	0.56820 0.80140 0.38960 -0.04000
H 	H 	0.60560 0.80690 0.40870 0.07700
O 	O 	0.62800 0.76120 0.10710 -0.43000
N 	N 	0.52290 0.80430 0.48620 -0.07800
O 	O 	0.62143 0.77950 0.24070 -0.53300
O 	O 	0.66775 0.81000 0.32450 -0.55600
O 	O 	0.35414 0.79390 0.33720 -0.55100
O 	O 	0.39670 0.76130 0.25246 -0.53000
Cl	Cl	0.61220 0.76280 0.10440 0.08700
O 	O 	0.74030 0.74030 0.74030 -1.02100
O 	O 	0.25970 0.25970 0.74030 -1.02100
O 	O 	0.25970 0.74030 0.25970 -1.02100
O 	O 	0.74030 0.25970 0.25970 -1.02100
O 	O 	0.24030 0.24030 0.24030 -1.02100
O 	O 	0.75970 0.75970 0.24030 -1.02100
O 	O 	0.24030 0.75970 0.75970 -1.02100
O 	O 	0.75970 0.24030 0.75970 -1.02100
