data_crystal

_cell_length_a 28.52000
_cell_length_b 28.52000
_cell_length_c 28.52000
_cell_angle_alpha 90.00000
_cell_angle_beta  90.00000
_cell_angle_gamma 90.00000

_symmetry_space_group_name_	'P 1'
_symmetry_space_group_name_H-M	'P 1'

loop_
_symmetry_equiv_pos_as_xyz
  x,y,z

loop_
_atom_site_label
_atom_site_type_symbol
_atom_site_fract_x
_atom_site_fract_y
_atom_site_fract_z
_atom_site_charge
Cr	Cr	0.24493 0.00000 0.24493 1.58300
Cr	Cr	0.75507 0.00000 0.24493 1.58400
Cr	Cr	0.75507 0.00000 0.75507 1.58400
Cr	Cr	0.24493 0.00000 0.75507 1.58400
Cr	Cr	0.24493 0.24493 -0.00000 1.58300
Cr	Cr	0.24493 0.75507 -0.00000 1.58400
Cr	Cr	0.75507 0.75507 -0.00000 1.58400
Cr	Cr	0.75507 0.24493 -0.00000 1.58400
Cr	Cr	0.00000 0.24493 0.24493 1.58300
Cr	Cr	0.00000 0.24493 0.75507 1.58500
Cr	Cr	0.00000 0.75507 0.75507 1.58500
Cr	Cr	0.00000 0.75507 0.24493 1.58500
Cr	Cr	0.31525 0.93962 0.31525 1.60600
Cr	Cr	0.68475 0.06038 0.31525 1.60100
Cr	Cr	0.68475 0.93962 0.68475 1.60600
Cr	Cr	0.31525 0.06038 0.68475 1.60100
Cr	Cr	0.31525 0.31525 0.93962 1.60600
Cr	Cr	0.31525 0.68475 0.06038 1.60100
Cr	Cr	0.68475 0.68475 0.93962 1.60600
Cr	Cr	0.68475 0.31525 0.06038 1.60100
Cr	Cr	0.93962 0.31525 0.31525 1.60600
Cr	Cr	0.06038 0.31525 0.68475 1.60100
Cr	Cr	0.93962 0.68475 0.68475 1.60600
Cr	Cr	0.06038 0.68475 0.31525 1.60100
Cr	Cr	0.93962 0.31525 0.68475 1.60600
Cr	Cr	0.06038 0.68475 0.68475 1.60100
Cr	Cr	0.93962 0.68475 0.31525 1.60600
Cr	Cr	0.06038 0.31525 0.31525 1.60100
Cr	Cr	0.31525 0.31525 0.06038 1.60100
Cr	Cr	0.68475 0.31525 0.93962 1.60600
Cr	Cr	0.68475 0.68475 0.06038 1.60100
Cr	Cr	0.31525 0.68475 0.93962 1.60600
Cr	Cr	0.31525 0.93962 0.68475 1.60600
Cr	Cr	0.31525 0.06038 0.31525 1.60100
Cr	Cr	0.68475 0.93962 0.31525 1.60600
Cr	Cr	0.68475 0.06038 0.68475 1.60100
H 	H 	0.34905 0.83745 0.22501 0.03400
H 	H 	0.28135 0.93458 0.12735 0.03900
H 	H 	0.31013 0.07674 0.45598 0.03600
H 	H 	0.65095 0.16255 0.22501 0.03200
H 	H 	0.71865 0.06542 0.12735 0.02800
H 	H 	0.68987 0.92326 0.45598 0.03700
H 	H 	0.65095 0.83745 0.77499 0.03400
H 	H 	0.71865 0.93458 0.87265 0.04600
H 	H 	0.68987 0.07674 0.54402 0.03700
H 	H 	0.34905 0.16255 0.77499 0.03200
H 	H 	0.28135 0.06542 0.87265 0.03200
H 	H 	0.31013 0.92326 0.54402 0.03600
H 	H 	0.22501 0.34905 0.83745 0.03400
H 	H 	0.12735 0.28135 0.93458 0.03900
H 	H 	0.45598 0.31013 0.07674 0.03600
H 	H 	0.22501 0.65095 0.16255 0.03200
H 	H 	0.12735 0.71865 0.06542 0.02800
H 	H 	0.45598 0.68987 0.92326 0.03700
H 	H 	0.77499 0.65095 0.83745 0.03400
H 	H 	0.87265 0.71865 0.93458 0.04600
H 	H 	0.54402 0.68987 0.07674 0.03700
H 	H 	0.77499 0.34905 0.16255 0.03200
H 	H 	0.87265 0.28135 0.06542 0.03200
H 	H 	0.54402 0.31013 0.92326 0.03600
H 	H 	0.83745 0.22501 0.34905 0.03400
H 	H 	0.93458 0.12735 0.28135 0.03900
H 	H 	0.07674 0.45598 0.31013 0.03600
H 	H 	0.16255 0.22501 0.65095 0.03200
H 	H 	0.06542 0.12735 0.71865 0.02800
H 	H 	0.92326 0.45598 0.68987 0.03700
H 	H 	0.83745 0.77499 0.65095 0.03400
H 	H 	0.93458 0.87265 0.71865 0.04600
H 	H 	0.07674 0.54402 0.68987 0.03700
H 	H 	0.16255 0.77499 0.34905 0.03200
H 	H 	0.06542 0.87265 0.28135 0.03200
H 	H 	0.92326 0.54402 0.31013 0.03600
H 	H 	0.83745 0.34905 0.77499 0.03400
H 	H 	0.93458 0.28135 0.87265 0.04500
H 	H 	0.07674 0.31013 0.54402 0.03600
H 	H 	0.16255 0.65095 0.77499 0.03200
H 	H 	0.06542 0.71865 0.87265 0.03300
H 	H 	0.92326 0.68987 0.54402 0.03700
H 	H 	0.83745 0.65095 0.22501 0.03400
H 	H 	0.93458 0.71865 0.12735 0.04100
H 	H 	0.07674 0.68987 0.45598 0.03700
H 	H 	0.16255 0.34905 0.22501 0.03200
H 	H 	0.06542 0.28135 0.12735 0.02600
H 	H 	0.92326 0.31013 0.45598 0.03600
H 	H 	0.34905 0.22501 0.16255 0.03200
H 	H 	0.28135 0.12735 0.06542 0.02600
H 	H 	0.31013 0.45598 0.92326 0.03600
H 	H 	0.65095 0.22501 0.83745 0.03400
H 	H 	0.71865 0.12735 0.93458 0.04100
H 	H 	0.68987 0.45598 0.07674 0.03700
H 	H 	0.65095 0.77499 0.16255 0.03200
H 	H 	0.71865 0.87265 0.06542 0.03300
H 	H 	0.68987 0.54402 0.92326 0.03700
H 	H 	0.34905 0.77499 0.83745 0.03400
H 	H 	0.28135 0.87265 0.93458 0.04500
H 	H 	0.31013 0.54402 0.07674 0.03600
H 	H 	0.22501 0.83745 0.65095 0.03400
H 	H 	0.12735 0.93458 0.71865 0.04100
H 	H 	0.45598 0.07674 0.68987 0.03700
H 	H 	0.22501 0.16255 0.34905 0.03200
H 	H 	0.12735 0.06542 0.28135 0.02600
H 	H 	0.45598 0.92326 0.31013 0.03600
H 	H 	0.77499 0.83745 0.34905 0.03400
H 	H 	0.87265 0.93458 0.28135 0.04500
H 	H 	0.54402 0.07674 0.31013 0.03600
H 	H 	0.77499 0.16255 0.65095 0.03200
H 	H 	0.87265 0.06542 0.71865 0.03300
H 	H 	0.54402 0.92326 0.68987 0.03700
H 	H 	0.65095 0.16255 0.77499 0.03200
H 	H 	0.71865 0.06542 0.87265 0.03300
H 	H 	0.68987 0.92326 0.54402 0.03700
H 	H 	0.34905 0.83745 0.77499 0.03400
H 	H 	0.28135 0.93458 0.87265 0.04500
H 	H 	0.31013 0.07674 0.54402 0.03600
H 	H 	0.34905 0.16255 0.22501 0.03200
H 	H 	0.28135 0.06542 0.12735 0.02600
H 	H 	0.31013 0.92326 0.45598 0.03600
H 	H 	0.65095 0.83745 0.22501 0.03400
H 	H 	0.71865 0.93458 0.12735 0.04100
H 	H 	0.68987 0.07674 0.45598 0.03700
H 	H 	0.77499 0.65095 0.16255 0.03200
H 	H 	0.87265 0.71865 0.06542 0.03300
H 	H 	0.54402 0.68987 0.92326 0.03700
H 	H 	0.77499 0.34905 0.83745 0.03400
H 	H 	0.87265 0.28135 0.93458 0.04500
H 	H 	0.54402 0.31013 0.07674 0.03600
H 	H 	0.22501 0.34905 0.16255 0.03200
H 	H 	0.12735 0.28135 0.06542 0.02600
H 	H 	0.45598 0.31013 0.92326 0.03600
H 	H 	0.22501 0.65095 0.83745 0.03400
H 	H 	0.12735 0.71865 0.93458 0.04100
H 	H 	0.45598 0.68987 0.07674 0.03700
H 	H 	0.16255 0.77499 0.65095 0.03200
H 	H 	0.06542 0.87265 0.71865 0.03300
H 	H 	0.92326 0.54402 0.68987 0.03700
H 	H 	0.83745 0.77499 0.34905 0.03400
H 	H 	0.93458 0.87265 0.28135 0.04500
H 	H 	0.07674 0.54402 0.31013 0.03600
H 	H 	0.16255 0.22501 0.34905 0.03200
H 	H 	0.06542 0.12735 0.28135 0.02600
H 	H 	0.92326 0.45598 0.31013 0.03600
H 	H 	0.83745 0.22501 0.65095 0.03400
H 	H 	0.93458 0.12735 0.71865 0.04100
H 	H 	0.07674 0.45598 0.68987 0.03700
H 	H 	0.16255 0.65095 0.22501 0.03200
H 	H 	0.06542 0.71865 0.12735 0.02800
H 	H 	0.92326 0.68987 0.45598 0.03700
H 	H 	0.83745 0.34905 0.22501 0.03400
H 	H 	0.93458 0.28135 0.12735 0.03900
H 	H 	0.07674 0.31013 0.45598 0.03600
H 	H 	0.16255 0.34905 0.77499 0.03200
H 	H 	0.06542 0.28135 0.87265 0.03200
H 	H 	0.92326 0.31013 0.54402 0.03600
H 	H 	0.83745 0.65095 0.77499 0.03400
H 	H 	0.93458 0.71865 0.87265 0.04600
H 	H 	0.07674 0.68987 0.54402 0.03700
H 	H 	0.65095 0.77499 0.83745 0.03400
H 	H 	0.71865 0.87265 0.93458 0.04600
H 	H 	0.68987 0.54402 0.07674 0.03700
H 	H 	0.34905 0.77499 0.16255 0.03200
H 	H 	0.28135 0.87265 0.06542 0.03200
H 	H 	0.31013 0.54402 0.92326 0.03600
H 	H 	0.34905 0.22501 0.83745 0.03400
H 	H 	0.28135 0.12735 0.93458 0.03900
H 	H 	0.31013 0.45598 0.07674 0.03600
H 	H 	0.65095 0.22501 0.16255 0.03200
H 	H 	0.71865 0.12735 0.06542 0.02800
H 	H 	0.68987 0.45598 0.92326 0.03700
H 	H 	0.77499 0.16255 0.34905 0.03200
H 	H 	0.87265 0.06542 0.28135 0.03200
H 	H 	0.54402 0.92326 0.31013 0.03600
H 	H 	0.77499 0.83745 0.65095 0.03400
H 	H 	0.87265 0.93458 0.71865 0.04600
H 	H 	0.54402 0.07674 0.68987 0.03700
H 	H 	0.22501 0.16255 0.65095 0.03200
H 	H 	0.12735 0.06542 0.71865 0.02800
H 	H 	0.45598 0.92326 0.68987 0.03700
H 	H 	0.22501 0.83745 0.34905 0.03400
H 	H 	0.12735 0.93458 0.28135 0.03900
H 	H 	0.45598 0.07674 0.31013 0.03600
C 	C 	0.33306 0.84516 0.18943 0.00900
C 	C 	0.30378 0.92230 0.21854 0.47200
C 	C 	0.31348 0.88913 0.18039 -0.12600
C 	C 	0.29586 0.89854 0.13579 0.00900
C 	C 	0.31018 0.04217 0.47563 0.00100
C 	C 	0.66694 0.15484 0.18943 0.00900
C 	C 	0.69622 0.07770 0.21854 0.47400
C 	C 	0.68652 0.11087 0.18039 -0.13200
C 	C 	0.70414 0.10146 0.13579 0.00800
C 	C 	0.68982 0.95783 0.47563 0.02900
C 	C 	0.66694 0.84516 0.81057 0.01100
C 	C 	0.69622 0.92230 0.78146 0.47300
C 	C 	0.68652 0.88913 0.81961 -0.12400
C 	C 	0.70414 0.89854 0.86421 0.01400
C 	C 	0.68982 0.04217 0.52437 0.00100
C 	C 	0.33306 0.15484 0.81057 0.01200
C 	C 	0.30378 0.07770 0.78146 0.47500
C 	C 	0.31348 0.11087 0.81961 -0.13200
C 	C 	0.29586 0.10146 0.86421 0.01200
C 	C 	0.31018 0.95783 0.52437 0.02900
C 	C 	0.18943 0.33306 0.84516 0.00900
C 	C 	0.21854 0.30378 0.92230 0.47200
C 	C 	0.18039 0.31348 0.88913 -0.12600
C 	C 	0.13579 0.29586 0.89854 0.00900
C 	C 	0.47563 0.31018 0.04217 0.00100
C 	C 	0.18943 0.66694 0.15484 0.00900
C 	C 	0.21854 0.69622 0.07770 0.47400
C 	C 	0.18039 0.68652 0.11087 -0.13200
C 	C 	0.13579 0.70414 0.10146 0.00800
C 	C 	0.47563 0.68982 0.95783 0.02900
C 	C 	0.81057 0.66694 0.84516 0.01100
C 	C 	0.78146 0.69622 0.92230 0.47300
C 	C 	0.81961 0.68652 0.88913 -0.12400
C 	C 	0.86421 0.70414 0.89854 0.01400
C 	C 	0.52437 0.68982 0.04217 0.00100
C 	C 	0.81057 0.33306 0.15484 0.01200
C 	C 	0.78146 0.30378 0.07770 0.47500
C 	C 	0.81961 0.31348 0.11087 -0.13200
C 	C 	0.86421 0.29586 0.10146 0.01200
C 	C 	0.52437 0.31018 0.95783 0.02900
C 	C 	0.84516 0.18943 0.33306 0.00900
C 	C 	0.92230 0.21854 0.30378 0.47200
C 	C 	0.88913 0.18039 0.31348 -0.12600
C 	C 	0.89854 0.13579 0.29586 0.00900
C 	C 	0.04217 0.47563 0.31018 0.00100
C 	C 	0.15484 0.18943 0.66694 0.00900
C 	C 	0.07770 0.21854 0.69622 0.47400
C 	C 	0.11087 0.18039 0.68652 -0.13200
C 	C 	0.10146 0.13579 0.70414 0.00800
C 	C 	0.95783 0.47563 0.68982 0.02900
C 	C 	0.84516 0.81057 0.66694 0.01100
C 	C 	0.92230 0.78146 0.69622 0.47300
C 	C 	0.88913 0.81961 0.68652 -0.12400
C 	C 	0.89854 0.86421 0.70414 0.01400
C 	C 	0.04217 0.52437 0.68982 0.00100
C 	C 	0.15484 0.81057 0.33306 0.01200
C 	C 	0.07770 0.78146 0.30378 0.47500
C 	C 	0.11087 0.81961 0.31348 -0.13200
C 	C 	0.10146 0.86421 0.29586 0.01200
C 	C 	0.95783 0.52437 0.31018 0.02900
C 	C 	0.84516 0.33306 0.81057 0.01100
C 	C 	0.92230 0.30378 0.78146 0.47300
C 	C 	0.88913 0.31348 0.81961 -0.12500
C 	C 	0.89854 0.29586 0.86421 0.01300
C 	C 	0.04217 0.31018 0.52437 0.00100
C 	C 	0.15484 0.66694 0.81057 0.01200
C 	C 	0.07770 0.69622 0.78146 0.47500
C 	C 	0.11087 0.68652 0.81961 -0.13100
C 	C 	0.10146 0.70414 0.86421 0.01200
C 	C 	0.95783 0.68982 0.52437 0.02900
C 	C 	0.84516 0.66694 0.18943 0.00900
C 	C 	0.92230 0.69622 0.21854 0.47200
C 	C 	0.88913 0.68652 0.18039 -0.12500
C 	C 	0.89854 0.70414 0.13579 0.00900
C 	C 	0.04217 0.68982 0.47563 0.00100
C 	C 	0.15484 0.33306 0.18943 0.00900
C 	C 	0.07770 0.30378 0.21854 0.47400
C 	C 	0.11087 0.31348 0.18039 -0.13300
C 	C 	0.10146 0.29586 0.13579 0.00700
C 	C 	0.95783 0.31018 0.47563 0.02900
C 	C 	0.33306 0.18943 0.15484 0.00900
C 	C 	0.30378 0.21854 0.07770 0.47400
C 	C 	0.31348 0.18039 0.11087 -0.13300
C 	C 	0.29586 0.13579 0.10146 0.00700
C 	C 	0.31018 0.47563 0.95783 0.02900
C 	C 	0.66694 0.18943 0.84516 0.00900
C 	C 	0.69622 0.21854 0.92230 0.47200
C 	C 	0.68652 0.18039 0.88913 -0.12500
C 	C 	0.70414 0.13579 0.89854 0.00900
C 	C 	0.68982 0.47563 0.04217 0.00100
C 	C 	0.66694 0.81057 0.15484 0.01200
C 	C 	0.69622 0.78146 0.07770 0.47500
C 	C 	0.68652 0.81961 0.11087 -0.13100
C 	C 	0.70414 0.86421 0.10146 0.01200
C 	C 	0.68982 0.52437 0.95783 0.02900
C 	C 	0.33306 0.81057 0.84516 0.01100
C 	C 	0.30378 0.78146 0.92230 0.47300
C 	C 	0.31348 0.81961 0.88913 -0.12500
C 	C 	0.29586 0.86421 0.89854 0.01300
C 	C 	0.31018 0.52437 0.04217 0.00100
C 	C 	0.18943 0.84516 0.66694 0.00900
C 	C 	0.21854 0.92230 0.69622 0.47200
C 	C 	0.18039 0.88913 0.68652 -0.12500
C 	C 	0.13579 0.89854 0.70414 0.00900
C 	C 	0.47563 0.04217 0.68982 0.00100
C 	C 	0.18943 0.15484 0.33306 0.00900
C 	C 	0.21854 0.07770 0.30378 0.47400
C 	C 	0.18039 0.11087 0.31348 -0.13300
C 	C 	0.13579 0.10146 0.29586 0.00700
C 	C 	0.47563 0.95783 0.31018 0.02900
C 	C 	0.81057 0.84516 0.33306 0.01100
C 	C 	0.78146 0.92230 0.30378 0.47300
C 	C 	0.81961 0.88913 0.31348 -0.12500
C 	C 	0.86421 0.89854 0.29586 0.01300
C 	C 	0.52437 0.04217 0.31018 0.00100
C 	C 	0.81057 0.15484 0.66694 0.01200
C 	C 	0.78146 0.07770 0.69622 0.47500
C 	C 	0.81961 0.11087 0.68652 -0.13100
C 	C 	0.86421 0.10146 0.70414 0.01200
C 	C 	0.52437 0.95783 0.68982 0.02900
C 	C 	0.66694 0.15484 0.81057 0.01200
C 	C 	0.69622 0.07770 0.78146 0.47500
C 	C 	0.68652 0.11087 0.81961 -0.13100
C 	C 	0.70414 0.10146 0.86421 0.01200
C 	C 	0.68982 0.95783 0.52437 0.02900
C 	C 	0.33306 0.84516 0.81057 0.01100
C 	C 	0.30378 0.92230 0.78146 0.47300
C 	C 	0.31348 0.88913 0.81961 -0.12500
C 	C 	0.29586 0.89854 0.86421 0.01300
C 	C 	0.31018 0.04217 0.52437 0.00100
C 	C 	0.33306 0.15484 0.18943 0.00900
C 	C 	0.30378 0.07770 0.21854 0.47400
C 	C 	0.31348 0.11087 0.18039 -0.13300
C 	C 	0.29586 0.10146 0.13579 0.00700
C 	C 	0.31018 0.95783 0.47563 0.02900
C 	C 	0.66694 0.84516 0.18943 0.00900
C 	C 	0.69622 0.92230 0.21854 0.47200
C 	C 	0.68652 0.88913 0.18039 -0.12500
C 	C 	0.70414 0.89854 0.13579 0.00900
C 	C 	0.68982 0.04217 0.47563 0.00100
C 	C 	0.81057 0.66694 0.15484 0.01200
C 	C 	0.78146 0.69622 0.07770 0.47500
C 	C 	0.81961 0.68652 0.11087 -0.13100
C 	C 	0.86421 0.70414 0.10146 0.01200
C 	C 	0.52437 0.68982 0.95783 0.02900
C 	C 	0.81057 0.33306 0.84516 0.01100
C 	C 	0.78146 0.30378 0.92230 0.47300
C 	C 	0.81961 0.31348 0.88913 -0.12500
C 	C 	0.86421 0.29586 0.89854 0.01300
C 	C 	0.52437 0.31018 0.04217 0.00100
C 	C 	0.18943 0.33306 0.15484 0.00900
C 	C 	0.21854 0.30378 0.07770 0.47400
C 	C 	0.18039 0.31348 0.11087 -0.13300
C 	C 	0.13579 0.29586 0.10146 0.00700
C 	C 	0.47563 0.31018 0.95783 0.02900
C 	C 	0.18943 0.66694 0.84516 0.00900
C 	C 	0.21854 0.69622 0.92230 0.47200
C 	C 	0.18039 0.68652 0.88913 -0.12500
C 	C 	0.13579 0.70414 0.89854 0.00900
C 	C 	0.47563 0.68982 0.04217 0.00100
C 	C 	0.15484 0.81057 0.66694 0.01200
C 	C 	0.07770 0.78146 0.69622 0.47500
C 	C 	0.11087 0.81961 0.68652 -0.13100
C 	C 	0.10146 0.86421 0.70414 0.01200
C 	C 	0.95783 0.52437 0.68982 0.02900
C 	C 	0.84516 0.81057 0.33306 0.01100
C 	C 	0.92230 0.78146 0.30378 0.47300
C 	C 	0.88913 0.81961 0.31348 -0.12500
C 	C 	0.89854 0.86421 0.29586 0.01300
C 	C 	0.04217 0.52437 0.31018 0.00100
C 	C 	0.15484 0.18943 0.33306 0.00900
C 	C 	0.07770 0.21854 0.30378 0.47400
C 	C 	0.11087 0.18039 0.31348 -0.13300
C 	C 	0.10146 0.13579 0.29586 0.00700
C 	C 	0.95783 0.47563 0.31018 0.02900
C 	C 	0.84516 0.18943 0.66694 0.00900
C 	C 	0.92230 0.21854 0.69622 0.47200
C 	C 	0.88913 0.18039 0.68652 -0.12500
C 	C 	0.89854 0.13579 0.70414 0.00900
C 	C 	0.04217 0.47563 0.68982 0.00100
C 	C 	0.15484 0.66694 0.18943 0.00900
C 	C 	0.07770 0.69622 0.21854 0.47400
C 	C 	0.11087 0.68652 0.18039 -0.13200
C 	C 	0.10146 0.70414 0.13579 0.00800
C 	C 	0.95783 0.68982 0.47563 0.02900
C 	C 	0.84516 0.33306 0.18943 0.00900
C 	C 	0.92230 0.30378 0.21854 0.47200
C 	C 	0.88913 0.31348 0.18039 -0.12600
C 	C 	0.89854 0.29586 0.13579 0.00900
C 	C 	0.04217 0.31018 0.47563 0.00100
C 	C 	0.15484 0.33306 0.81057 0.01200
C 	C 	0.07770 0.30378 0.78146 0.47500
C 	C 	0.11087 0.31348 0.81961 -0.13200
C 	C 	0.10146 0.29586 0.86421 0.01200
C 	C 	0.95783 0.31018 0.52437 0.02900
C 	C 	0.84516 0.66694 0.81057 0.01100
C 	C 	0.92230 0.69622 0.78146 0.47300
C 	C 	0.88913 0.68652 0.81961 -0.12400
C 	C 	0.89854 0.70414 0.86421 0.01400
C 	C 	0.04217 0.68982 0.52437 0.00100
C 	C 	0.66694 0.81057 0.84516 0.01100
C 	C 	0.69622 0.78146 0.92230 0.47300
C 	C 	0.68652 0.81961 0.88913 -0.12400
C 	C 	0.70414 0.86421 0.89854 0.01400
C 	C 	0.68982 0.52437 0.04217 0.00100
C 	C 	0.33306 0.81057 0.15484 0.01200
C 	C 	0.30378 0.78146 0.07770 0.47500
C 	C 	0.31348 0.81961 0.11087 -0.13200
C 	C 	0.29586 0.86421 0.10146 0.01200
C 	C 	0.31018 0.52437 0.95783 0.02900
C 	C 	0.33306 0.18943 0.84516 0.00900
C 	C 	0.30378 0.21854 0.92230 0.47200
C 	C 	0.31348 0.18039 0.88913 -0.12600
C 	C 	0.29586 0.13579 0.89854 0.00900
C 	C 	0.31018 0.47563 0.04217 0.00100
C 	C 	0.66694 0.18943 0.15484 0.00900
C 	C 	0.69622 0.21854 0.07770 0.47400
C 	C 	0.68652 0.18039 0.11087 -0.13200
C 	C 	0.70414 0.13579 0.10146 0.00800
C 	C 	0.68982 0.47563 0.95783 0.02900
C 	C 	0.81057 0.15484 0.33306 0.01200
C 	C 	0.78146 0.07770 0.30378 0.47500
C 	C 	0.81961 0.11087 0.31348 -0.13200
C 	C 	0.86421 0.10146 0.29586 0.01200
C 	C 	0.52437 0.95783 0.31018 0.02900
C 	C 	0.81057 0.84516 0.66694 0.01100
C 	C 	0.78146 0.92230 0.69622 0.47300
C 	C 	0.81961 0.88913 0.68652 -0.12400
C 	C 	0.86421 0.89854 0.70414 0.01400
C 	C 	0.52437 0.04217 0.68982 0.00100
C 	C 	0.18943 0.15484 0.66694 0.00900
C 	C 	0.21854 0.07770 0.69622 0.47400
C 	C 	0.18039 0.11087 0.68652 -0.13200
C 	C 	0.13579 0.10146 0.70414 0.00800
C 	C 	0.47563 0.95783 0.68982 0.02900
C 	C 	0.18943 0.84516 0.33306 0.00900
C 	C 	0.21854 0.92230 0.30378 0.47200
C 	C 	0.18039 0.88913 0.31348 -0.12600
C 	C 	0.13579 0.89854 0.29586 0.00900
C 	C 	0.47563 0.04217 0.31018 0.00100
C 	C 	0.31094 0.00000 0.39955 0.33000
C 	C 	0.31024 0.00000 0.45091 -0.12000
C 	C 	0.68906 0.00000 0.39955 0.33100
C 	C 	0.68976 0.00000 0.45091 -0.12000
C 	C 	0.68906 0.00000 0.60045 0.33100
C 	C 	0.68976 0.00000 0.54909 -0.12000
C 	C 	0.31094 0.00000 0.60045 0.33000
C 	C 	0.31024 0.00000 0.54909 -0.12000
C 	C 	0.39955 0.31094 -0.00000 0.33000
C 	C 	0.45091 0.31024 -0.00000 -0.12000
C 	C 	0.39955 0.68906 -0.00000 0.33100
C 	C 	0.45091 0.68976 -0.00000 -0.12000
C 	C 	0.60045 0.68906 -0.00000 0.33100
C 	C 	0.54909 0.68976 -0.00000 -0.12000
C 	C 	0.60045 0.31094 -0.00000 0.33000
C 	C 	0.54909 0.31024 -0.00000 -0.12000
C 	C 	-0.00000 0.39955 0.31094 0.33000
C 	C 	-0.00000 0.45091 0.31024 -0.12000
C 	C 	-0.00000 0.39955 0.68906 0.33100
C 	C 	-0.00000 0.45091 0.68976 -0.12000
C 	C 	0.00000 0.60045 0.68906 0.33100
C 	C 	-0.00000 0.54909 0.68976 -0.12000
C 	C 	0.00000 0.60045 0.31094 0.33000
C 	C 	-0.00000 0.54909 0.31024 -0.12000
C 	C 	0.00000 0.31094 0.60045 0.33000
C 	C 	-0.00000 0.31024 0.54909 -0.12000
C 	C 	0.00000 0.68906 0.60045 0.33100
C 	C 	-0.00000 0.68976 0.54909 -0.12000
C 	C 	-0.00000 0.68906 0.39955 0.33100
C 	C 	0.00000 0.68976 0.45091 -0.12000
C 	C 	-0.00000 0.31094 0.39955 0.33000
C 	C 	-0.00000 0.31024 0.45091 -0.12000
C 	C 	0.31094 0.39955 -0.00000 0.33000
C 	C 	0.31024 0.45091 -0.00000 -0.12000
C 	C 	0.68906 0.39955 -0.00000 0.33100
C 	C 	0.68976 0.45091 -0.00000 -0.12000
C 	C 	0.68906 0.60045 -0.00000 0.33100
C 	C 	0.68976 0.54909 -0.00000 -0.12000
C 	C 	0.31094 0.60045 -0.00000 0.33000
C 	C 	0.31024 0.54909 -0.00000 -0.12000
C 	C 	0.39955 -0.00000 0.68906 0.33100
C 	C 	0.45091 0.00000 0.68976 -0.12000
C 	C 	0.39955 0.00000 0.31094 0.33000
C 	C 	0.45091 0.00000 0.31024 -0.12000
C 	C 	0.60045 0.00000 0.31094 0.33000
C 	C 	0.54909 0.00000 0.31024 -0.12000
C 	C 	0.60045 -0.00000 0.68906 0.33100
C 	C 	0.54909 0.00000 0.68976 -0.12000
O 	O 	0.32137 0.91506 0.25854 -0.57000
O 	O 	0.27561 0.95507 0.20985 -0.53800
O 	O 	0.31105 0.95892 0.37743 -0.46800
O 	O 	0.67863 0.08494 0.25854 -0.57700
O 	O 	0.72439 0.04493 0.20985 -0.56100
O 	O 	0.68895 0.04108 0.37743 -0.49300
O 	O 	0.67863 0.91506 0.74146 -0.56900
O 	O 	0.72439 0.95507 0.79015 -0.53500
O 	O 	0.68895 0.95892 0.62257 -0.46700
O 	O 	0.32137 0.08494 0.74146 -0.57600
O 	O 	0.27561 0.04493 0.79015 -0.56000
O 	O 	0.31105 0.04108 0.62257 -0.49400
O 	O 	0.25854 0.32137 0.91506 -0.57000
O 	O 	0.20985 0.27561 0.95507 -0.53800
O 	O 	0.37743 0.31105 0.95892 -0.46800
O 	O 	0.25854 0.67863 0.08494 -0.57700
O 	O 	0.20985 0.72439 0.04493 -0.56100
O 	O 	0.37743 0.68895 0.04108 -0.49300
O 	O 	0.74146 0.67863 0.91506 -0.56900
O 	O 	0.79015 0.72439 0.95507 -0.53500
O 	O 	0.62257 0.68895 0.95892 -0.46700
O 	O 	0.74146 0.32137 0.08494 -0.57600
O 	O 	0.79015 0.27561 0.04493 -0.56000
O 	O 	0.62257 0.31105 0.04108 -0.49400
O 	O 	0.91506 0.25854 0.32137 -0.57000
O 	O 	0.95507 0.20985 0.27561 -0.53800
O 	O 	0.95892 0.37743 0.31105 -0.46800
O 	O 	0.08494 0.25854 0.67863 -0.57700
O 	O 	0.04493 0.20985 0.72439 -0.56100
O 	O 	0.04108 0.37743 0.68895 -0.49300
O 	O 	0.91506 0.74146 0.67863 -0.56900
O 	O 	0.95507 0.79015 0.72439 -0.53500
O 	O 	0.95892 0.62257 0.68895 -0.46700
O 	O 	0.08494 0.74146 0.32137 -0.57600
O 	O 	0.04493 0.79015 0.27561 -0.56000
O 	O 	0.04108 0.62257 0.31105 -0.49400
O 	O 	0.91506 0.32137 0.74146 -0.56900
O 	O 	0.95507 0.27561 0.79015 -0.53600
O 	O 	0.95892 0.31105 0.62257 -0.46800
O 	O 	0.08494 0.67863 0.74146 -0.57600
O 	O 	0.04493 0.72439 0.79015 -0.55900
O 	O 	0.04108 0.68895 0.62257 -0.49300
O 	O 	0.91506 0.67863 0.25854 -0.57000
O 	O 	0.95507 0.72439 0.20985 -0.53700
O 	O 	0.95892 0.68895 0.37743 -0.46700
O 	O 	0.08494 0.32137 0.25854 -0.57700
O 	O 	0.04493 0.27561 0.20985 -0.56200
O 	O 	0.04108 0.31105 0.37743 -0.49400
O 	O 	0.32137 0.25854 0.08494 -0.57700
O 	O 	0.27561 0.20985 0.04493 -0.56200
O 	O 	0.31105 0.37743 0.04108 -0.49400
O 	O 	0.67863 0.25854 0.91506 -0.57000
O 	O 	0.72439 0.20985 0.95507 -0.53700
O 	O 	0.68895 0.37743 0.95892 -0.46700
O 	O 	0.67863 0.74146 0.08494 -0.57600
O 	O 	0.72439 0.79015 0.04493 -0.55900
O 	O 	0.68895 0.62257 0.04108 -0.49300
O 	O 	0.32137 0.74146 0.91506 -0.56900
O 	O 	0.27561 0.79015 0.95507 -0.53600
O 	O 	0.31105 0.62257 0.95892 -0.46800
O 	O 	0.25854 0.91506 0.67863 -0.57000
O 	O 	0.20985 0.95507 0.72439 -0.53700
O 	O 	0.37743 0.95892 0.68895 -0.46700
O 	O 	0.25854 0.08494 0.32137 -0.57700
O 	O 	0.20985 0.04493 0.27561 -0.56200
O 	O 	0.37743 0.04108 0.31105 -0.49400
O 	O 	0.74146 0.91506 0.32137 -0.56900
O 	O 	0.79015 0.95507 0.27561 -0.53600
O 	O 	0.62257 0.95892 0.31105 -0.46800
O 	O 	0.74146 0.08494 0.67863 -0.57600
O 	O 	0.79015 0.04493 0.72439 -0.55900
O 	O 	0.62257 0.04108 0.68895 -0.49300
O 	O 	0.67863 0.08494 0.74146 -0.57600
O 	O 	0.72439 0.04493 0.79015 -0.55900
O 	O 	0.68895 0.04108 0.62257 -0.49300
O 	O 	0.32137 0.91506 0.74146 -0.56900
O 	O 	0.27561 0.95507 0.79015 -0.53600
O 	O 	0.31105 0.95892 0.62257 -0.46800
O 	O 	0.32137 0.08494 0.25854 -0.57700
O 	O 	0.27561 0.04493 0.20985 -0.56200
O 	O 	0.31105 0.04108 0.37743 -0.49400
O 	O 	0.67863 0.91506 0.25854 -0.57000
O 	O 	0.72439 0.95507 0.20985 -0.53700
O 	O 	0.68895 0.95892 0.37743 -0.46700
O 	O 	0.74146 0.67863 0.08494 -0.57600
O 	O 	0.79015 0.72439 0.04493 -0.55900
O 	O 	0.62257 0.68895 0.04108 -0.49300
O 	O 	0.74146 0.32137 0.91506 -0.56900
O 	O 	0.79015 0.27561 0.95507 -0.53600
O 	O 	0.62257 0.31105 0.95892 -0.46800
O 	O 	0.25854 0.32137 0.08494 -0.57700
O 	O 	0.20985 0.27561 0.04493 -0.56200
O 	O 	0.37743 0.31105 0.04108 -0.49400
O 	O 	0.25854 0.67863 0.91506 -0.57000
O 	O 	0.20985 0.72439 0.95507 -0.53700
O 	O 	0.37743 0.68895 0.95892 -0.46700
O 	O 	0.08494 0.74146 0.67863 -0.57600
O 	O 	0.04493 0.79015 0.72439 -0.55900
O 	O 	0.04108 0.62257 0.68895 -0.49300
O 	O 	0.91506 0.74146 0.32137 -0.56900
O 	O 	0.95507 0.79015 0.27561 -0.53600
O 	O 	0.95892 0.62257 0.31105 -0.46800
O 	O 	0.08494 0.25854 0.32137 -0.57700
O 	O 	0.04493 0.20985 0.27561 -0.56200
O 	O 	0.04108 0.37743 0.31105 -0.49400
O 	O 	0.91506 0.25854 0.67863 -0.57000
O 	O 	0.95507 0.20985 0.72439 -0.53700
O 	O 	0.95892 0.37743 0.68895 -0.46700
O 	O 	0.08494 0.67863 0.25854 -0.57700
O 	O 	0.04493 0.72439 0.20985 -0.56100
O 	O 	0.04108 0.68895 0.37743 -0.49300
O 	O 	0.91506 0.32137 0.25854 -0.57000
O 	O 	0.95507 0.27561 0.20985 -0.53800
O 	O 	0.95892 0.31105 0.37743 -0.46800
O 	O 	0.08494 0.32137 0.74146 -0.57600
O 	O 	0.04493 0.27561 0.79015 -0.56000
O 	O 	0.04108 0.31105 0.62257 -0.49400
O 	O 	0.91506 0.67863 0.74146 -0.56900
O 	O 	0.95507 0.72439 0.79015 -0.53500
O 	O 	0.95892 0.68895 0.62257 -0.46700
O 	O 	0.67863 0.74146 0.91506 -0.56900
O 	O 	0.72439 0.79015 0.95507 -0.53500
O 	O 	0.68895 0.62257 0.95892 -0.46700
O 	O 	0.32137 0.74146 0.08494 -0.57600
O 	O 	0.27561 0.79015 0.04493 -0.56000
O 	O 	0.31105 0.62257 0.04108 -0.49400
O 	O 	0.32137 0.25854 0.91506 -0.57000
O 	O 	0.27561 0.20985 0.95507 -0.53800
O 	O 	0.31105 0.37743 0.95892 -0.46800
O 	O 	0.67863 0.25854 0.08494 -0.57700
O 	O 	0.72439 0.20985 0.04493 -0.56100
O 	O 	0.68895 0.37743 0.04108 -0.49300
O 	O 	0.74146 0.08494 0.32137 -0.57600
O 	O 	0.79015 0.04493 0.27561 -0.56000
O 	O 	0.62257 0.04108 0.31105 -0.49400
O 	O 	0.74146 0.91506 0.67863 -0.56900
O 	O 	0.79015 0.95507 0.72439 -0.53500
O 	O 	0.62257 0.95892 0.68895 -0.46700
O 	O 	0.25854 0.08494 0.67863 -0.57700
O 	O 	0.20985 0.04493 0.72439 -0.56100
O 	O 	0.37743 0.04108 0.68895 -0.49300
O 	O 	0.25854 0.91506 0.32137 -0.57000
O 	O 	0.20985 0.95507 0.27561 -0.53800
O 	O 	0.37743 0.95892 0.31105 -0.46800
O 	O 	0.29216 0.00000 0.29216 -0.75000
O 	O 	0.70784 0.00000 0.29216 -0.75000
O 	O 	0.70784 0.00000 0.70784 -0.75000
O 	O 	0.29216 0.00000 0.70784 -0.75000
O 	O 	0.29216 0.29216 -0.00000 -0.75000
O 	O 	0.29216 0.70784 -0.00000 -0.75000
O 	O 	0.70784 0.70784 -0.00000 -0.75000
O 	O 	0.70784 0.29216 -0.00000 -0.75000
O 	O 	-0.00000 0.29216 0.29216 -0.75000
O 	O 	-0.00000 0.29216 0.70784 -0.75000
O 	O 	0.00000 0.70784 0.70784 -0.75000
O 	O 	-0.00000 0.70784 0.29216 -0.75000
