data_crystal

_cell_length_a 14.15450
_cell_length_b 14.15450
_cell_length_c 62.93800
_cell_angle_alpha 90.00000
_cell_angle_beta  90.00000
_cell_angle_gamma 90.00000

_symmetry_space_group_name_	'P 1'
_symmetry_space_group_name_H-M	'P 1'

loop_
_symmetry_equiv_pos_as_xyz
  x,y,z

loop_
_atom_site_label
_atom_site_type_symbol
_atom_site_fract_x
_atom_site_fract_y
_atom_site_fract_z
_atom_site_charge
Dy	Dy	0.72283 0.48884 0.43889 1.72900
O 	O 	0.75860 0.59600 0.46489 -0.48200
O 	O 	0.91080 0.62740 0.47057 -0.47800
O 	O 	0.61380 0.71760 0.53226 -0.48300
O 	O 	0.59180 0.87020 0.53473 -0.55000
O 	O 	0.82420 0.63760 0.32775 -0.38600
O 	O 	0.82140 0.51020 0.34732 -0.43800
O 	O 	0.86890 0.54470 0.42870 -0.56100
O 	O 	0.00810 0.61040 0.42981 -0.50400
O 	O 	0.56980 0.52550 0.45600 -0.35800
C 	C 	0.82420 0.64720 0.47128 0.48900
C 	C 	0.79590 0.73900 0.48166 -0.21400
C 	C 	0.72970 0.73410 0.49748 0.14400
H 	H 	0.70350 0.67580 0.50090 0.01200
C 	C 	0.70060 0.81340 0.50862 -0.21000
C 	C 	0.73900 0.90060 0.50324 0.13000
H 	H 	0.72100 0.95450 0.51070 0.00500
C 	C 	0.80280 0.90740 0.48716 -0.20200
H 	H 	0.82650 0.96640 0.48350 0.11500
C 	C 	0.83430 0.82550 0.47579 0.16100
C 	C 	0.63000 0.80010 0.52625 0.46700
C 	C 	0.90180 0.83580 0.45761 -0.09600
C 	C 	0.98610 0.88260 0.45990 0.19400
H 	H 	0.00190 0.90920 0.47290 -0.06500
C 	C 	0.04750 0.89040 0.44292 -0.19500
H 	H 	0.10440 0.92240 0.44470 0.10400
C 	C 	0.02550 0.85140 0.42336 -0.02400
H 	H 	0.06750 0.85650 0.41210 0.02800
C 	C 	0.94070 0.80480 0.42086 0.00000
C 	C 	0.87790 0.79810 0.43776 -0.00100
H 	H 	0.81980 0.76850 0.43590 0.04200
C 	C 	0.91710 0.75380 0.40070 0.12900
C 	C 	0.90360 0.79780 0.38148 -0.17500
H 	H 	0.91270 0.86280 0.38050 0.10500
C 	C 	0.87750 0.74950 0.36382 0.10000
H 	H 	0.86610 0.78170 0.35120 0.01600
C 	C 	0.86770 0.65270 0.36460 -0.15100
C 	C 	0.87990 0.60650 0.38337 0.12400
H 	H 	0.87010 0.54160 0.38410 0.00600
C 	C 	0.90670 0.65570 0.40136 -0.20300
C 	C 	0.83630 0.59740 0.34544 0.34800
C 	C 	0.92980 0.60170 0.42147 0.51900
Dy	Dy	0.22283 0.98884 0.93889 1.88800
O 	O 	0.25860 0.09600 0.96489 -0.52500
O 	O 	0.41080 0.12740 0.97057 -0.51100
O 	O 	0.11380 0.21760 0.03226 -0.48600
O 	O 	0.09180 0.37020 0.03473 -0.56700
O 	O 	0.32420 0.13760 0.82775 -0.41400
O 	O 	0.32140 0.01020 0.84732 -0.48700
O 	O 	0.36890 0.04470 0.92870 -0.59300
O 	O 	0.50810 0.11040 0.92981 -0.45900
O 	O 	0.06980 0.02550 0.95600 -0.37500
C 	C 	0.32420 0.14720 0.97128 0.49500
C 	C 	0.29590 0.23900 0.98166 -0.21000
C 	C 	0.22970 0.23410 0.99748 0.13600
H 	H 	0.20350 0.17580 0.00090 0.00000
C 	C 	0.20060 0.31340 0.00862 -0.21700
C 	C 	0.23900 0.40060 0.00324 0.11400
H 	H 	0.22100 0.45450 0.01070 -0.00700
C 	C 	0.30280 0.40740 0.98716 -0.18400
H 	H 	0.32650 0.46640 0.98350 0.09000
C 	C 	0.33430 0.32550 0.97579 0.11000
C 	C 	0.13000 0.30010 0.02625 0.46300
C 	C 	0.40180 0.33580 0.95761 0.00100
C 	C 	0.48610 0.38260 0.95990 -0.06700
H 	H 	0.50190 0.40920 0.97290 0.05000
C 	C 	0.54750 0.39040 0.94292 -0.01100
H 	H 	0.60440 0.42240 0.94470 0.03300
C 	C 	0.52550 0.35140 0.92336 -0.06600
H 	H 	0.56750 0.35650 0.91210 0.04900
C 	C 	0.44070 0.30480 0.92086 0.00200
C 	C 	0.37790 0.29810 0.93776 -0.06500
H 	H 	0.31980 0.26850 0.93590 0.05900
C 	C 	0.41710 0.25380 0.90070 0.10700
C 	C 	0.40360 0.29780 0.88148 -0.17300
H 	H 	0.41270 0.36280 0.88050 0.08500
C 	C 	0.37750 0.24950 0.86382 0.09200
H 	H 	0.36610 0.28170 0.85120 0.00700
C 	C 	0.36770 0.15270 0.86460 -0.16200
C 	C 	0.37990 0.10650 0.88337 0.11500
H 	H 	0.37010 0.04160 0.88410 -0.01000
C 	C 	0.40670 0.15570 0.90136 -0.19900
C 	C 	0.33630 0.09740 0.84544 0.35200
C 	C 	0.42980 0.10170 0.92147 0.46300
Dy	Dy	0.27717 0.51116 0.43889 1.72000
O 	O 	0.24140 0.40400 0.46489 -0.48200
O 	O 	0.08920 0.37260 0.47057 -0.51500
O 	O 	0.38620 0.28240 0.53226 -0.48300
O 	O 	0.40820 0.12980 0.53473 -0.56600
O 	O 	0.17580 0.36240 0.32775 -0.39500
O 	O 	0.17860 0.48980 0.34732 -0.44600
O 	O 	0.13110 0.45530 0.42870 -0.53400
O 	O 	0.99190 0.38960 0.42981 -0.38000
O 	O 	0.43020 0.47450 0.45600 -0.35800
C 	C 	0.17580 0.35280 0.47128 0.47500
C 	C 	0.20410 0.26100 0.48166 -0.17500
C 	C 	0.27030 0.26590 0.49748 0.10700
H 	H 	0.29650 0.32420 0.50090 0.01900
C 	C 	0.29940 0.18660 0.50862 -0.19600
C 	C 	0.26100 0.09940 0.50324 0.08300
H 	H 	0.27900 0.04550 0.51070 -0.00900
C 	C 	0.19720 0.09260 0.48716 -0.14500
H 	H 	0.17350 0.03360 0.48350 0.05900
C 	C 	0.16570 0.17450 0.47579 0.04000
C 	C 	0.37000 0.19990 0.52625 0.45800
C 	C 	0.09820 0.16420 0.45761 0.12500
C 	C 	0.01390 0.11740 0.45990 -0.36500
H 	H 	0.99810 0.09080 0.47290 0.18000
C 	C 	0.95250 0.10960 0.44292 0.20400
H 	H 	0.89560 0.07760 0.44470 -0.05300
C 	C 	0.97450 0.14860 0.42336 -0.13000
H 	H 	0.93250 0.14350 0.41210 0.07800
C 	C 	0.05930 0.19520 0.42086 0.02500
C 	C 	0.12210 0.20190 0.43776 -0.15200
H 	H 	0.18020 0.23150 0.43590 0.08900
C 	C 	0.08290 0.24620 0.40070 0.05900
C 	C 	0.09640 0.20220 0.38148 -0.14100
H 	H 	0.08730 0.13720 0.38050 0.05600
C 	C 	0.12250 0.25050 0.36382 0.05500
H 	H 	0.13390 0.21830 0.35120 0.01000
C 	C 	0.13230 0.34730 0.36460 -0.13700
C 	C 	0.12010 0.39350 0.38337 0.07400
H 	H 	0.12990 0.45840 0.38410 0.01100
C 	C 	0.09330 0.34430 0.40136 -0.15400
C 	C 	0.16370 0.40260 0.34544 0.33400
C 	C 	0.07020 0.39830 0.42147 0.37700
Dy	Dy	0.77717 0.01116 0.93889 1.58000
O 	O 	0.74140 0.90400 0.96489 -0.44200
O 	O 	0.58920 0.87260 0.97057 -0.47700
O 	O 	0.88620 0.78240 0.03226 -0.47800
O 	O 	0.90820 0.62980 0.03473 -0.54200
O 	O 	0.67580 0.86240 0.82775 -0.36600
O 	O 	0.67860 0.98980 0.84732 -0.39600
O 	O 	0.63110 0.95530 0.92870 -0.50200
O 	O 	0.49190 0.88960 0.92981 -0.42300
O 	O 	0.93020 0.97450 0.95600 -0.22400
C 	C 	0.67580 0.85280 0.97128 0.46900
C 	C 	0.70410 0.76100 0.98166 -0.18100
C 	C 	0.77030 0.76590 0.99748 0.11700
H 	H 	0.79650 0.82420 0.00090 0.02900
C 	C 	0.79940 0.68660 0.00862 -0.18900
C 	C 	0.76100 0.59940 0.00324 0.10100
H 	H 	0.77900 0.54550 0.01070 0.00300
C 	C 	0.69720 0.59260 0.98716 -0.16400
H 	H 	0.67350 0.53360 0.98350 0.08700
C 	C 	0.66570 0.67450 0.97579 0.09500
C 	C 	0.87000 0.69990 0.02625 0.46100
C 	C 	0.59820 0.66420 0.95761 0.01800
C 	C 	0.51390 0.61740 0.95990 -0.08200
H 	H 	0.49810 0.59080 0.97290 0.05500
C 	C 	0.45250 0.60960 0.94292 0.00300
H 	H 	0.39560 0.57760 0.94470 0.02400
C 	C 	0.47450 0.64860 0.92336 -0.08300
H 	H 	0.43250 0.64350 0.91210 0.05400
C 	C 	0.55930 0.69520 0.92086 0.02100
C 	C 	0.62210 0.70190 0.93776 -0.08100
H 	H 	0.68020 0.73150 0.93590 0.07000
C 	C 	0.58290 0.74620 0.90070 0.08400
C 	C 	0.59640 0.70220 0.88148 -0.14400
H 	H 	0.58730 0.63720 0.88050 0.07700
C 	C 	0.62250 0.75050 0.86382 0.06400
H 	H 	0.63390 0.71830 0.85120 0.01800
C 	C 	0.63230 0.84730 0.86460 -0.12600
C 	C 	0.62010 0.89350 0.88337 0.08400
H 	H 	0.62990 0.95840 0.88410 0.02700
C 	C 	0.59330 0.84430 0.90136 -0.16000
C 	C 	0.66370 0.90260 0.84544 0.33000
C 	C 	0.57020 0.89830 0.92147 0.43500
Dy	Dy	0.48884 0.27717 0.56111 1.71300
O 	O 	0.59600 0.24140 0.53511 -0.48000
O 	O 	0.62740 0.08920 0.52943 -0.51400
O 	O 	0.71760 0.38620 0.46774 -0.48200
O 	O 	0.87020 0.40820 0.46527 -0.54600
O 	O 	0.63760 0.17580 0.67225 -0.39200
O 	O 	0.51020 0.17860 0.65268 -0.44800
O 	O 	0.54470 0.13110 0.57130 -0.53400
O 	O 	0.61040 0.99190 0.57019 -0.38100
O 	O 	0.52550 0.43020 0.54400 -0.35700
C 	C 	0.64720 0.17580 0.52872 0.47400
C 	C 	0.73900 0.20410 0.51834 -0.17300
C 	C 	0.73410 0.27030 0.50252 0.10500
H 	H 	0.67580 0.29650 0.49910 0.02100
C 	C 	0.81340 0.29940 0.49138 -0.18300
C 	C 	0.90060 0.26100 0.49676 0.08100
H 	H 	0.95450 0.27900 0.48930 0.02200
C 	C 	0.90740 0.19720 0.51284 -0.14000
H 	H 	0.96640 0.17350 0.51650 0.08500
C 	C 	0.82550 0.16570 0.52421 0.04700
C 	C 	0.80010 0.37000 0.47375 0.45600
C 	C 	0.83580 0.09820 0.54239 0.12400
C 	C 	0.88260 0.01390 0.54010 -0.33900
H 	H 	0.90920 0.99810 0.52710 0.18900
C 	C 	0.89040 0.95250 0.55708 0.20000
H 	H 	0.92240 0.89560 0.55530 -0.02600
C 	C 	0.85140 0.97450 0.57664 -0.11900
H 	H 	0.85650 0.93250 0.58790 0.08800
C 	C 	0.80480 0.05930 0.57914 0.02900
C 	C 	0.79810 0.12210 0.56224 -0.14300
H 	H 	0.76850 0.18020 0.56410 0.09100
C 	C 	0.75380 0.08290 0.59930 0.06700
C 	C 	0.79780 0.09640 0.61852 -0.14400
H 	H 	0.86280 0.08730 0.61950 0.07500
C 	C 	0.74950 0.12250 0.63618 0.06200
H 	H 	0.78170 0.13390 0.64880 0.01700
C 	C 	0.65270 0.13230 0.63540 -0.13800
C 	C 	0.60650 0.12010 0.61663 0.07800
H 	H 	0.54160 0.12990 0.61590 0.00900
C 	C 	0.65570 0.09330 0.59864 -0.15700
C 	C 	0.59740 0.16370 0.65456 0.33500
C 	C 	0.60170 0.07020 0.57853 0.37800
Dy	Dy	0.98884 0.77717 0.06111 1.90600
O 	O 	0.09600 0.74140 0.03511 -0.52100
O 	O 	0.12740 0.58920 0.02943 -0.51100
O 	O 	0.21760 0.88620 0.96774 -0.49100
O 	O 	0.37020 0.90820 0.96527 -0.54400
O 	O 	0.13760 0.67580 0.17225 -0.41300
O 	O 	0.01020 0.67860 0.15268 -0.48400
O 	O 	0.04470 0.63110 0.07130 -0.59400
O 	O 	0.11040 0.49190 0.07019 -0.46100
O 	O 	0.02550 0.93020 0.04400 -0.32000
C 	C 	0.14720 0.67580 0.02872 0.49400
C 	C 	0.23900 0.70410 0.01834 -0.20300
C 	C 	0.23410 0.77030 0.00252 0.13300
H 	H 	0.17580 0.79650 0.99910 0.01000
C 	C 	0.31340 0.79940 0.99138 -0.20400
C 	C 	0.40060 0.76100 0.99676 0.11200
H 	H 	0.45450 0.77900 0.98930 -0.00100
C 	C 	0.40740 0.69720 0.01284 -0.17700
H 	H 	0.46640 0.67350 0.01650 0.09100
C 	C 	0.32550 0.66570 0.02421 0.10900
C 	C 	0.30010 0.87000 0.97375 0.46600
C 	C 	0.33580 0.59820 0.04239 0.00600
C 	C 	0.38260 0.51390 0.04010 -0.07000
H 	H 	0.40920 0.49810 0.02710 0.05100
C 	C 	0.39040 0.45250 0.05708 -0.00900
H 	H 	0.42240 0.39560 0.05530 0.02800
C 	C 	0.35140 0.47450 0.07664 -0.06900
H 	H 	0.35650 0.43250 0.08790 0.04600
C 	C 	0.30480 0.55930 0.07914 0.00400
C 	C 	0.29810 0.62210 0.06224 -0.06700
H 	H 	0.26850 0.68020 0.06410 0.06300
C 	C 	0.25380 0.58290 0.09930 0.10600
C 	C 	0.29780 0.59640 0.11852 -0.17200
H 	H 	0.36280 0.58730 0.11950 0.08600
C 	C 	0.24950 0.62250 0.13618 0.08900
H 	H 	0.28170 0.63390 0.14880 0.00800
C 	C 	0.15270 0.63230 0.13540 -0.16100
C 	C 	0.10650 0.62010 0.11663 0.11300
H 	H 	0.04160 0.62990 0.11590 -0.00900
C 	C 	0.15570 0.59330 0.09864 -0.19900
C 	C 	0.09740 0.66370 0.15456 0.35000
C 	C 	0.10170 0.57020 0.07853 0.46300
Dy	Dy	0.51116 0.72283 0.56111 1.73600
O 	O 	0.40400 0.75860 0.53511 -0.48400
O 	O 	0.37260 0.91080 0.52943 -0.47800
O 	O 	0.28240 0.61380 0.46774 -0.48300
O 	O 	0.12980 0.59180 0.46527 -0.56800
O 	O 	0.36240 0.82420 0.67225 -0.38800
O 	O 	0.48980 0.82140 0.65268 -0.43500
O 	O 	0.45530 0.86890 0.57130 -0.56100
O 	O 	0.38960 0.00810 0.57019 -0.50700
O 	O 	0.47450 0.56980 0.54400 -0.35900
C 	C 	0.35280 0.82420 0.52872 0.49100
C 	C 	0.26100 0.79590 0.51834 -0.22000
C 	C 	0.26590 0.72970 0.50252 0.14900
H 	H 	0.32420 0.70350 0.49910 0.00900
C 	C 	0.18660 0.70060 0.49138 -0.22600
C 	C 	0.09940 0.73900 0.49676 0.13600
H 	H 	0.04550 0.72100 0.48930 -0.02600
C 	C 	0.09260 0.80280 0.51284 -0.21300
H 	H 	0.03360 0.82650 0.51650 0.09400
C 	C 	0.17450 0.83430 0.52421 0.16300
C 	C 	0.19990 0.63000 0.47375 0.47100
C 	C 	0.16420 0.90180 0.54239 -0.11400
C 	C 	0.11740 0.98610 0.54010 0.21000
H 	H 	0.09080 0.00190 0.52710 -0.09300
C 	C 	0.10960 0.04750 0.55708 -0.22400
H 	H 	0.07760 0.10440 0.55530 0.08700
C 	C 	0.14860 0.02550 0.57664 -0.02400
H 	H 	0.14350 0.06750 0.58790 0.01200
C 	C 	0.19520 0.94070 0.57914 -0.00800
C 	C 	0.20190 0.87790 0.56224 0.00200
H 	H 	0.23150 0.81980 0.56410 0.03700
C 	C 	0.24620 0.91710 0.59930 0.12600
C 	C 	0.20220 0.90360 0.61852 -0.17400
H 	H 	0.13720 0.91270 0.61950 0.08900
C 	C 	0.25050 0.87750 0.63618 0.09500
H 	H 	0.21830 0.86610 0.64880 0.00900
C 	C 	0.34730 0.86770 0.63540 -0.15100
C 	C 	0.39350 0.87990 0.61663 0.12200
H 	H 	0.45840 0.87010 0.61590 0.00700
C 	C 	0.34430 0.90670 0.59864 -0.20300
C 	C 	0.40260 0.83630 0.65456 0.34700
C 	C 	0.39830 0.92980 0.57853 0.52100
Dy	Dy	0.01116 0.22283 0.06111 1.54500
O 	O 	0.90400 0.25860 0.03511 -0.44300
O 	O 	0.87260 0.41080 0.02943 -0.47600
O 	O 	0.78240 0.11380 0.96774 -0.47300
O 	O 	0.62980 0.09180 0.96527 -0.56500
O 	O 	0.86240 0.32420 0.17225 -0.36600
O 	O 	0.98980 0.32140 0.15268 -0.39600
O 	O 	0.95530 0.36890 0.07130 -0.49700
O 	O 	0.88960 0.50810 0.07019 -0.42200
O 	O 	0.97450 0.06980 0.04400 -0.26900
C 	C 	0.85280 0.32420 0.02872 0.46900
C 	C 	0.76100 0.29590 0.01834 -0.18600
C 	C 	0.76590 0.22970 0.00252 0.11900
H 	H 	0.82420 0.20350 0.99910 0.02100
C 	C 	0.68660 0.20060 0.99138 -0.20100
C 	C 	0.59940 0.23900 0.99676 0.10200
H 	H 	0.54550 0.22100 0.98930 -0.00200
C 	C 	0.59260 0.30280 0.01284 -0.17100
H 	H 	0.53360 0.32650 0.01650 0.08500
C 	C 	0.67450 0.33430 0.02421 0.09600
C 	C 	0.69990 0.13000 0.97375 0.45800
C 	C 	0.66420 0.40180 0.04239 0.01400
C 	C 	0.61740 0.48610 0.04010 -0.07900
H 	H 	0.59080 0.50190 0.02710 0.05400
C 	C 	0.60960 0.54750 0.05708 0.00100
H 	H 	0.57760 0.60440 0.05530 0.02900
C 	C 	0.64860 0.52550 0.07664 -0.08000
H 	H 	0.64350 0.56750 0.08790 0.05700
C 	C 	0.69520 0.44070 0.07914 0.01900
C 	C 	0.70190 0.37790 0.06224 -0.08000
H 	H 	0.73150 0.31980 0.06410 0.06600
C 	C 	0.74620 0.41710 0.09930 0.08400
C 	C 	0.70220 0.40360 0.11852 -0.14500
H 	H 	0.63720 0.41270 0.11950 0.07600
C 	C 	0.75050 0.37750 0.13618 0.06500
H 	H 	0.71830 0.36610 0.14880 0.01700
C 	C 	0.84730 0.36770 0.13540 -0.12600
C 	C 	0.89350 0.37990 0.11663 0.08500
H 	H 	0.95840 0.37010 0.11590 0.02700
C 	C 	0.84430 0.40670 0.09864 -0.15900
C 	C 	0.90260 0.33630 0.15456 0.33100
C 	C 	0.89830 0.42980 0.07853 0.43300
Dy	Dy	0.77717 0.48884 0.31111 1.73900
O 	O 	0.74140 0.59600 0.28511 -0.48400
O 	O 	0.58920 0.62740 0.27943 -0.51300
O 	O 	0.88620 0.71760 0.21774 -0.48100
O 	O 	0.90820 0.87020 0.21527 -0.51600
O 	O 	0.67580 0.63760 0.42225 -0.38900
O 	O 	0.67860 0.51020 0.40268 -0.44300
O 	O 	0.63110 0.54470 0.32130 -0.55700
O 	O 	0.49190 0.61040 0.32019 -0.45600
O 	O 	0.93020 0.52550 0.29400 -0.30100
C 	C 	0.67580 0.64720 0.27872 0.48700
C 	C 	0.70410 0.73900 0.26834 -0.19200
C 	C 	0.77030 0.73410 0.25252 0.12200
H 	H 	0.79650 0.67580 0.24910 0.02100
C 	C 	0.79940 0.81340 0.24138 -0.18500
C 	C 	0.76100 0.90060 0.24676 0.10200
H 	H 	0.77900 0.95450 0.23930 0.01900
C 	C 	0.69720 0.90740 0.26284 -0.16500
H 	H 	0.67350 0.96640 0.26650 0.10000
C 	C 	0.66570 0.82550 0.27421 0.10400
C 	C 	0.87000 0.80010 0.22375 0.45400
C 	C 	0.59820 0.83580 0.29239 0.01600
C 	C 	0.51390 0.88260 0.29010 -0.07300
H 	H 	0.49810 0.90920 0.27710 0.06200
C 	C 	0.45250 0.89040 0.30708 0.00300
H 	H 	0.39560 0.92240 0.30530 0.03700
C 	C 	0.47450 0.85140 0.32664 -0.07200
H 	H 	0.43250 0.85650 0.33790 0.05600
C 	C 	0.55930 0.80480 0.32914 0.01500
C 	C 	0.62210 0.79810 0.31224 -0.07200
H 	H 	0.68020 0.76850 0.31410 0.06800
C 	C 	0.58290 0.75380 0.34930 0.09900
C 	C 	0.59640 0.79780 0.36852 -0.16000
H 	H 	0.58730 0.86280 0.36950 0.09100
C 	C 	0.62250 0.74950 0.38618 0.08100
H 	H 	0.63390 0.78170 0.39880 0.01600
C 	C 	0.63230 0.65270 0.38540 -0.14500
C 	C 	0.62010 0.60650 0.36663 0.10100
H 	H 	0.62990 0.54160 0.36590 0.00700
C 	C 	0.59330 0.65570 0.34864 -0.18200
C 	C 	0.66370 0.59740 0.40456 0.34000
C 	C 	0.57020 0.60170 0.32853 0.45200
Dy	Dy	0.27717 0.98884 0.81111 1.89200
O 	O 	0.24140 0.09600 0.78511 -0.51900
O 	O 	0.08920 0.12740 0.77943 -0.51300
O 	O 	0.38620 0.21760 0.71774 -0.49200
O 	O 	0.40820 0.37020 0.71527 -0.57500
O 	O 	0.17580 0.13760 0.92225 -0.41700
O 	O 	0.17860 0.01020 0.90268 -0.49000
O 	O 	0.13110 0.04470 0.82130 -0.57400
O 	O 	0.99190 0.11040 0.82019 -0.38500
O 	O 	0.43020 0.02550 0.79400 -0.37800
C 	C 	0.17580 0.14720 0.77872 0.48200
C 	C 	0.20410 0.23900 0.76834 -0.18500
C 	C 	0.27030 0.23410 0.75252 0.11600
H 	H 	0.29650 0.17580 0.74910 0.01000
C 	C 	0.29940 0.31340 0.74138 -0.20200
C 	C 	0.26100 0.40060 0.74676 0.09100
H 	H 	0.27900 0.45450 0.73930 0.00100
C 	C 	0.19720 0.40740 0.76284 -0.15100
H 	H 	0.17350 0.46640 0.76650 0.07500
C 	C 	0.16570 0.32550 0.77421 0.05100
C 	C 	0.37000 0.30010 0.72375 0.46700
C 	C 	0.09820 0.33580 0.79239 0.11800
C 	C 	0.01390 0.38260 0.79010 -0.34400
H 	H 	0.99810 0.40920 0.77710 0.18200
C 	C 	0.95250 0.39040 0.80708 0.19500
H 	H 	0.89560 0.42240 0.80530 -0.03700
C 	C 	0.97450 0.35140 0.82664 -0.11800
H 	H 	0.93250 0.35650 0.83790 0.07900
C 	C 	0.05930 0.30480 0.82914 0.01900
C 	C 	0.12210 0.29810 0.81224 -0.14000
H 	H 	0.18020 0.26850 0.81410 0.08700
C 	C 	0.08290 0.25380 0.84930 0.07400
C 	C 	0.09640 0.29780 0.86852 -0.15500
H 	H 	0.08730 0.36280 0.86950 0.07000
C 	C 	0.12250 0.24950 0.88618 0.07100
H 	H 	0.13390 0.28170 0.89880 0.00900
C 	C 	0.13230 0.15270 0.88540 -0.15300
C 	C 	0.12010 0.10650 0.86663 0.09000
H 	H 	0.12990 0.04160 0.86590 -0.00700
C 	C 	0.09330 0.15570 0.84864 -0.17400
C 	C 	0.16370 0.09740 0.90456 0.34500
C 	C 	0.07020 0.10170 0.82853 0.39000
Dy	Dy	0.22283 0.51116 0.31111 1.71600
O 	O 	0.25860 0.40400 0.28511 -0.48800
O 	O 	0.41080 0.37260 0.27943 -0.51400
O 	O 	0.11380 0.28240 0.21774 -0.47800
O 	O 	0.09180 0.12980 0.21527 -0.55700
O 	O 	0.32420 0.36240 0.42225 -0.39300
O 	O 	0.32140 0.48980 0.40268 -0.44300
O 	O 	0.36890 0.45530 0.32130 -0.55400
O 	O 	0.50810 0.38960 0.32019 -0.45600
O 	O 	0.06980 0.47450 0.29400 -0.35400
C 	C 	0.32420 0.35280 0.27872 0.48800
C 	C 	0.29590 0.26100 0.26834 -0.20200
C 	C 	0.22970 0.26590 0.25252 0.12800
H 	H 	0.20350 0.32420 0.24910 0.00900
C 	C 	0.20060 0.18660 0.24138 -0.21200
C 	C 	0.23900 0.09940 0.24676 0.10700
H 	H 	0.22100 0.04550 0.23930 -0.01700
C 	C 	0.30280 0.09260 0.26284 -0.18000
H 	H 	0.32650 0.03360 0.26650 0.07500
C 	C 	0.33430 0.17450 0.27421 0.10200
C 	C 	0.13000 0.19990 0.22375 0.45400
C 	C 	0.40180 0.16420 0.29239 0.00300
C 	C 	0.48610 0.11740 0.29010 -0.07600
H 	H 	0.50190 0.09080 0.27710 0.04300
C 	C 	0.54750 0.10960 0.30708 -0.01200
H 	H 	0.60440 0.07760 0.30530 0.02000
C 	C 	0.52550 0.14860 0.32664 -0.07600
H 	H 	0.56750 0.14350 0.33790 0.04700
C 	C 	0.44070 0.19520 0.32914 0.00700
C 	C 	0.37790 0.20190 0.31224 -0.07400
H 	H 	0.31980 0.23150 0.31410 0.06100
C 	C 	0.41710 0.24620 0.34930 0.09400
C 	C 	0.40360 0.20220 0.36852 -0.15900
H 	H 	0.41270 0.13720 0.36950 0.07200
C 	C 	0.37750 0.25050 0.38618 0.07600
H 	H 	0.36610 0.21830 0.39880 0.00800
C 	C 	0.36770 0.34730 0.38540 -0.14500
C 	C 	0.37990 0.39350 0.36663 0.10000
H 	H 	0.37010 0.45840 0.36590 0.00800
C 	C 	0.40670 0.34430 0.34864 -0.18000
C 	C 	0.33630 0.40260 0.40456 0.34100
C 	C 	0.42980 0.39830 0.32853 0.45100
Dy	Dy	0.72283 0.01116 0.81111 1.56900
O 	O 	0.75860 0.90400 0.78511 -0.43900
O 	O 	0.91080 0.87260 0.77943 -0.44200
O 	O 	0.61380 0.78240 0.71774 -0.47800
O 	O 	0.59180 0.62980 0.71527 -0.57600
O 	O 	0.82420 0.86240 0.92225 -0.36200
O 	O 	0.82140 0.98980 0.90268 -0.39100
O 	O 	0.86890 0.95530 0.82130 -0.50500
O 	O 	0.00810 0.88960 0.82019 -0.46900
O 	O 	0.56980 0.97450 0.79400 -0.27600
C 	C 	0.82420 0.85280 0.77872 0.47100
C 	C 	0.79590 0.76100 0.76834 -0.20300
C 	C 	0.72970 0.76590 0.75252 0.14000
H 	H 	0.70350 0.82420 0.74910 0.02000
C 	C 	0.70060 0.68660 0.74138 -0.21500
C 	C 	0.73900 0.59940 0.74676 0.13000
H 	H 	0.72100 0.54550 0.73930 -0.01100
C 	C 	0.80280 0.59260 0.76284 -0.20200
H 	H 	0.82650 0.53360 0.76650 0.10300
C 	C 	0.83430 0.67450 0.77421 0.15500
C 	C 	0.63000 0.69990 0.72375 0.47400
C 	C 	0.90180 0.66420 0.79239 -0.09700
C 	C 	0.98610 0.61740 0.79010 0.19200
H 	H 	0.00190 0.59080 0.77710 -0.07500
C 	C 	0.04750 0.60960 0.80708 -0.20000
H 	H 	0.10440 0.57760 0.80530 0.09200
C 	C 	0.02550 0.64860 0.82664 -0.03100
H 	H 	0.06750 0.64350 0.83790 0.02400
C 	C 	0.94070 0.69520 0.82914 0.00400
C 	C 	0.87790 0.70190 0.81224 -0.00800
H 	H 	0.81980 0.73150 0.81410 0.04300
C 	C 	0.91710 0.74620 0.84930 0.11500
C 	C 	0.90360 0.70220 0.86852 -0.16000
H 	H 	0.91270 0.63720 0.86950 0.09200
C 	C 	0.87750 0.75050 0.88618 0.08300
H 	H 	0.86610 0.71830 0.89880 0.01800
C 	C 	0.86770 0.84730 0.88540 -0.13200
C 	C 	0.87990 0.89350 0.86663 0.10600
H 	H 	0.87010 0.95840 0.86590 0.02500
C 	C 	0.90670 0.84430 0.84864 -0.18100
C 	C 	0.83630 0.90260 0.90456 0.33800
C 	C 	0.92980 0.89830 0.82853 0.49800
Dy	Dy	0.01116 0.27717 0.18889 1.54800
O 	O 	0.90400 0.24140 0.21489 -0.43600
O 	O 	0.87260 0.08920 0.22057 -0.47600
O 	O 	0.78240 0.38620 0.28226 -0.47800
O 	O 	0.62980 0.40820 0.28473 -0.57400
O 	O 	0.86240 0.17580 0.07775 -0.36800
O 	O 	0.98980 0.17860 0.09732 -0.39900
O 	O 	0.95530 0.13110 0.17870 -0.47700
O 	O 	0.88960 0.99190 0.17981 -0.35300
O 	O 	0.97450 0.43020 0.20600 -0.27400
C 	C 	0.85280 0.17580 0.22128 0.45600
C 	C 	0.76100 0.20410 0.23166 -0.16100
C 	C 	0.76590 0.27030 0.24748 0.10000
H 	H 	0.82420 0.29650 0.25090 0.03000
C 	C 	0.68660 0.29940 0.25862 -0.18600
C 	C 	0.59940 0.26100 0.25324 0.08000
H 	H 	0.54550 0.27900 0.26070 0.00600
C 	C 	0.59260 0.19720 0.23716 -0.13800
H 	H 	0.53360 0.17350 0.23350 0.07100
C 	C 	0.67450 0.16570 0.22579 0.03800
C 	C 	0.69990 0.37000 0.27625 0.46200
C 	C 	0.66420 0.09820 0.20761 0.12900
C 	C 	0.61740 0.01390 0.20990 -0.35100
H 	H 	0.59080 0.99810 0.22290 0.18300
C 	C 	0.60960 0.95250 0.19292 0.20400
H 	H 	0.57760 0.89560 0.19470 -0.04000
C 	C 	0.64860 0.97450 0.17336 -0.13300
H 	H 	0.64350 0.93250 0.16210 0.08600
C 	C 	0.69520 0.05930 0.17086 0.03700
C 	C 	0.70190 0.12210 0.18776 -0.15400
H 	H 	0.73150 0.18020 0.18590 0.09300
C 	C 	0.74620 0.08290 0.15070 0.05200
C 	C 	0.70220 0.09640 0.13148 -0.12800
H 	H 	0.63720 0.08730 0.13050 0.06100
C 	C 	0.75050 0.12250 0.11382 0.04500
H 	H 	0.71830 0.13390 0.10120 0.01900
C 	C 	0.84730 0.13230 0.11460 -0.11800
C 	C 	0.89350 0.12010 0.13337 0.06200
H 	H 	0.95840 0.12990 0.13410 0.03000
C 	C 	0.84430 0.09330 0.15136 -0.13600
C 	C 	0.90260 0.16370 0.09544 0.32500
C 	C 	0.89830 0.07020 0.17147 0.36500
Dy	Dy	0.51116 0.77717 0.68889 1.74400
O 	O 	0.40400 0.74140 0.71489 -0.48600
O 	O 	0.37260 0.58920 0.72057 -0.51400
O 	O 	0.28240 0.88620 0.78226 -0.48200
O 	O 	0.12980 0.90820 0.78473 -0.53400
O 	O 	0.36240 0.67580 0.57775 -0.39300
O 	O 	0.48980 0.67860 0.59732 -0.44100
O 	O 	0.45530 0.63110 0.67870 -0.55700
O 	O 	0.38960 0.49190 0.67981 -0.45700
O 	O 	0.47450 0.93020 0.70600 -0.30200
C 	C 	0.35280 0.67580 0.72128 0.48800
C 	C 	0.26100 0.70410 0.73166 -0.19500
C 	C 	0.26590 0.77030 0.74748 0.12500
H 	H 	0.32420 0.79650 0.75090 0.01900
C 	C 	0.18660 0.79940 0.75862 -0.19800
C 	C 	0.09940 0.76100 0.75324 0.10600
H 	H 	0.04550 0.77900 0.76070 -0.01100
C 	C 	0.09260 0.69720 0.73716 -0.17200
H 	H 	0.03360 0.67350 0.73350 0.07700
C 	C 	0.17450 0.66570 0.72579 0.10000
C 	C 	0.19990 0.87000 0.77625 0.45700
C 	C 	0.16420 0.59820 0.70761 0.00700
C 	C 	0.11740 0.51390 0.70990 -0.07900
H 	H 	0.09080 0.49810 0.72290 0.04300
C 	C 	0.10960 0.45250 0.69292 -0.01000
H 	H 	0.07760 0.39560 0.69470 0.01500
C 	C 	0.14860 0.47450 0.67336 -0.07800
H 	H 	0.14350 0.43250 0.66210 0.04300
C 	C 	0.19520 0.55930 0.67086 0.00900
C 	C 	0.20190 0.62210 0.68776 -0.07600
H 	H 	0.23150 0.68020 0.68590 0.06500
C 	C 	0.24620 0.58290 0.65070 0.09300
C 	C 	0.20220 0.59640 0.63148 -0.15800
H 	H 	0.13720 0.58730 0.63050 0.07300
C 	C 	0.25050 0.62250 0.61382 0.07400
H 	H 	0.21830 0.63390 0.60120 0.00900
C 	C 	0.34730 0.63230 0.61460 -0.14500
C 	C 	0.39350 0.62010 0.63337 0.09800
H 	H 	0.45840 0.62990 0.63410 0.00900
C 	C 	0.34430 0.59330 0.65136 -0.18000
C 	C 	0.40260 0.66370 0.59544 0.33900
C 	C 	0.39830 0.57020 0.67147 0.45200
Dy	Dy	0.98884 0.72283 0.18889 1.90200
O 	O 	0.09600 0.75860 0.21489 -0.51900
O 	O 	0.12740 0.91080 0.22057 -0.47400
O 	O 	0.21760 0.61380 0.28226 -0.49100
O 	O 	0.37020 0.59180 0.28473 -0.57800
O 	O 	0.13760 0.82420 0.07775 -0.40800
O 	O 	0.01020 0.82140 0.09732 -0.47800
O 	O 	0.04470 0.86890 0.17870 -0.59800
O 	O 	0.11040 0.00810 0.17981 -0.51000
O 	O 	0.02550 0.56980 0.20600 -0.37800
C 	C 	0.14720 0.82420 0.22128 0.49700
C 	C 	0.23900 0.79590 0.23166 -0.22700
C 	C 	0.23410 0.72970 0.24748 0.15600
H 	H 	0.17580 0.70350 0.25090 0.00000
C 	C 	0.31340 0.70060 0.25862 -0.23000
C 	C 	0.40060 0.73900 0.25324 0.14200
H 	H 	0.45450 0.72100 0.26070 -0.01500
C 	C 	0.40740 0.80280 0.23716 -0.21500
H 	H 	0.46640 0.82650 0.23350 0.10700
C 	C 	0.32550 0.83430 0.22579 0.16900
C 	C 	0.30010 0.63000 0.27625 0.47900
C 	C 	0.33580 0.90180 0.20761 -0.11100
C 	C 	0.38260 0.98610 0.20990 0.20800
H 	H 	0.40920 0.00190 0.22290 -0.08100
C 	C 	0.39040 0.04750 0.19292 -0.21500
H 	H 	0.42240 0.10440 0.19470 0.09700
C 	C 	0.35140 0.02550 0.17336 -0.01800
H 	H 	0.35650 0.06750 0.16210 0.01700
C 	C 	0.30480 0.94070 0.17086 -0.01100
C 	C 	0.29810 0.87790 0.18776 0.00700
H 	H 	0.26850 0.81980 0.18590 0.03600
C 	C 	0.25380 0.91710 0.15070 0.13800
C 	C 	0.29780 0.90360 0.13148 -0.18700
H 	H 	0.36280 0.91270 0.13050 0.10100
C 	C 	0.24950 0.87750 0.11382 0.10900
H 	H 	0.28170 0.86610 0.10120 0.00800
C 	C 	0.15270 0.86770 0.11460 -0.16700
C 	C 	0.10650 0.87990 0.13337 0.13600
H 	H 	0.04160 0.87010 0.13410 -0.01100
C 	C 	0.15570 0.90670 0.15136 -0.22100
C 	C 	0.09740 0.83630 0.09544 0.35700
C 	C 	0.10170 0.92980 0.17147 0.53200
Dy	Dy	0.48884 0.22283 0.68889 1.70900
O 	O 	0.59600 0.25860 0.71489 -0.48600
O 	O 	0.62740 0.41080 0.72057 -0.51300
O 	O 	0.71760 0.11380 0.78226 -0.47700
O 	O 	0.87020 0.09180 0.78473 -0.53700
O 	O 	0.63760 0.32420 0.57775 -0.38900
O 	O 	0.51020 0.32140 0.59732 -0.44500
O 	O 	0.54470 0.36890 0.67870 -0.55400
O 	O 	0.61040 0.50810 0.67981 -0.45500
O 	O 	0.52550 0.06980 0.70600 -0.35300
C 	C 	0.64720 0.32420 0.72128 0.48700
C 	C 	0.73900 0.29590 0.73166 -0.19700
C 	C 	0.73410 0.22970 0.74748 0.12400
H 	H 	0.67580 0.20350 0.75090 0.01200
C 	C 	0.81340 0.20060 0.75862 -0.19700
C 	C 	0.90060 0.23900 0.75324 0.10200
H 	H 	0.95450 0.22100 0.76070 0.01400
C 	C 	0.90740 0.30280 0.73716 -0.17200
H 	H 	0.96640 0.32650 0.73350 0.09900
C 	C 	0.82550 0.33430 0.72579 0.10500
C 	C 	0.80010 0.13000 0.77625 0.45100
C 	C 	0.83580 0.40180 0.70761 0.01200
C 	C 	0.88260 0.48610 0.70990 -0.07000
H 	H 	0.90920 0.50190 0.72290 0.06100
C 	C 	0.89040 0.54750 0.69292 0.00100
H 	H 	0.92240 0.60440 0.69470 0.04200
C 	C 	0.85140 0.52550 0.67336 -0.07000
H 	H 	0.85650 0.56750 0.66210 0.05900
C 	C 	0.80480 0.44070 0.67086 0.01300
C 	C 	0.79810 0.37790 0.68776 -0.07100
H 	H 	0.76850 0.31980 0.68590 0.06400
C 	C 	0.75380 0.41710 0.65070 0.10000
C 	C 	0.79780 0.40360 0.63148 -0.16100
H 	H 	0.86280 0.41270 0.63050 0.09000
C 	C 	0.74950 0.37750 0.61382 0.08200
H 	H 	0.78170 0.36610 0.60120 0.01500
C 	C 	0.65270 0.36770 0.61460 -0.14600
C 	C 	0.60650 0.37990 0.63337 0.10300
H 	H 	0.54160 0.37010 0.63410 0.00600
C 	C 	0.65570 0.40670 0.65136 -0.18100
C 	C 	0.59740 0.33630 0.59544 0.34200
C 	C 	0.60170 0.42980 0.67147 0.45100
Dy	Dy	-0.00000 0.50000 0.45908 1.79100
Dy	Dy	0.50000 0.00000 0.95908 1.77500
Dy	Dy	0.50000 0.00000 0.54092 1.79100
Dy	Dy	0.00000 0.50000 0.04092 1.77500
Dy	Dy	0.50000 0.50000 0.29092 1.90700
Dy	Dy	0.00000 0.00000 0.79092 1.65900
Dy	Dy	0.00000 0.00000 0.20908 1.65800
Dy	Dy	0.50000 0.50000 0.70908 1.90700
C 	C 	0.50000 0.50000 0.44390 0.33900
H 	H 	0.50000 0.50000 0.42920 -0.14400
C 	C 	0.00000 0.00000 0.94390 0.17300
H 	H 	-0.00000 -0.00000 0.92920 -0.12300
C 	C 	0.50000 0.50000 0.55610 0.33900
H 	H 	0.50000 0.50000 0.57080 -0.14400
C 	C 	0.00000 -0.00000 0.05610 0.16600
H 	H 	-0.00000 0.00000 0.07080 -0.12100
C 	C 	0.00000 0.50000 0.30610 0.25500
H 	H 	-0.00000 0.50000 0.32080 -0.13300
C 	C 	0.50000 0.00000 0.80610 0.25200
H 	H 	0.50000 0.00000 0.82080 -0.13300
C 	C 	0.00000 0.50000 0.19390 0.25100
H 	H 	0.00000 0.50000 0.17920 -0.13300
C 	C 	0.50000 0.00000 0.69390 0.25500
H 	H 	0.50000 0.00000 0.67920 -0.13300
