data_crystal

_cell_length_a 14.30900
_cell_length_b 14.30900
_cell_length_c 63.90000
_cell_angle_alpha 90.00000
_cell_angle_beta  90.00000
_cell_angle_gamma 90.00000

_symmetry_space_group_name_	'P 1'
_symmetry_space_group_name_H-M	'P 1'

loop_
_symmetry_equiv_pos_as_xyz
  x,y,z

loop_
_atom_site_label
_atom_site_type_symbol
_atom_site_fract_x
_atom_site_fract_y
_atom_site_fract_z
_atom_site_charge
Sm	Sm	0.52019 0.27694 0.56202 1.99300
O 	O 	0.87110 0.45970 0.42877 -0.60900
O 	O 	0.61610 0.28180 0.53172 -0.50700
O 	O 	0.59440 0.13150 0.53439 -0.59500
O 	O 	0.90350 0.37400 0.47050 -0.49700
O 	O 	0.75440 0.40500 0.46395 -0.50100
O 	O 	0.81990 0.36920 0.32949 -0.40400
O 	O 	0.82100 0.49470 0.34865 -0.46600
O 	O 	0.49140 0.42660 0.54916 -0.59600
O 	O 	0.00510 0.38610 0.43044 -0.55000
C 	C 	0.63330 0.20080 0.52549 0.46600
C 	C 	0.70100 0.18750 0.50788 -0.24400
C 	C 	0.72580 0.26610 0.49663 0.15000
H 	H 	0.69770 0.32300 0.49980 0.00400
C 	C 	0.79110 0.26260 0.48075 -0.21600
C 	C 	0.81860 0.35470 0.47056 0.50400
C 	C 	0.82930 0.17660 0.47542 0.14200
C 	C 	0.80230 0.09770 0.48654 -0.21400
H 	H 	0.82780 0.03990 0.48310 0.08600
C 	C 	0.73710 0.10390 0.50294 0.14300
H 	H 	0.71920 0.05070 0.51030 -0.04300
C 	C 	0.89450 0.16680 0.45726 -0.04300
C 	C 	0.87320 0.20790 0.43752 -0.05700
H 	H 	0.81780 0.24100 0.43580 0.05400
C 	C 	0.93390 0.19910 0.42086 0.06000
C 	C 	0.91390 0.25140 0.40144 0.10300
C 	C 	0.90620 0.34720 0.40210 -0.20300
C 	C 	0.88110 0.39790 0.38434 0.11900
H 	H 	0.87500 0.46250 0.38520 0.00200
C 	C 	0.86510 0.35320 0.36565 -0.14800
C 	C 	0.83520 0.41050 0.34680 0.36500
C 	C 	0.87290 0.25710 0.36502 0.08700
H 	H 	0.86210 0.22590 0.35250 0.01000
C 	C 	0.89560 0.20760 0.38212 -0.15800
H 	H 	0.89920 0.14280 0.38120 0.08000
C 	C 	0.01560 0.14950 0.42326 -0.12300
H 	H 	0.05570 0.14260 0.41190 0.03300
C 	C 	0.03900 0.10980 0.44238 -0.13800
H 	H 	0.09490 0.07750 0.44390 0.04100
C 	C 	0.97900 0.11860 0.45905 0.06400
H 	H 	0.99500 0.09190 0.47180 0.01700
C 	C 	0.92950 0.40120 0.42185 0.55500
Sm	Sm	0.02019 0.77694 0.06202 1.77100
O 	O 	0.37110 0.95970 0.92877 -0.52400
O 	O 	0.11610 0.78180 0.03172 -0.49400
O 	O 	0.09440 0.63150 0.03439 -0.59100
O 	O 	0.40350 0.87400 0.97050 -0.49900
O 	O 	0.25440 0.90500 0.96395 -0.45100
O 	O 	0.31990 0.86920 0.82949 -0.37300
O 	O 	0.32100 0.99470 0.84865 -0.41500
O 	O 	0.99140 0.92660 0.04916 -0.37100
O 	O 	0.50510 0.88610 0.93044 -0.43800
C 	C 	0.13330 0.70080 0.02549 0.45600
C 	C 	0.20100 0.68750 0.00788 -0.23100
C 	C 	0.22580 0.76610 0.99663 0.13500
H 	H 	0.19770 0.82300 0.99980 0.01100
C 	C 	0.29110 0.76260 0.98075 -0.20200
C 	C 	0.31860 0.85470 0.97056 0.48800
C 	C 	0.32930 0.67660 0.97542 0.11800
C 	C 	0.30230 0.59770 0.98654 -0.19500
H 	H 	0.32780 0.53990 0.98310 0.09100
C 	C 	0.23710 0.60390 0.00294 0.12700
H 	H 	0.21920 0.55070 0.01030 -0.02100
C 	C 	0.39450 0.66680 0.95726 -0.00700
C 	C 	0.37320 0.70790 0.93752 -0.06400
H 	H 	0.31780 0.74100 0.93580 0.05900
C 	C 	0.43390 0.69910 0.92086 0.00500
C 	C 	0.41390 0.75140 0.90144 0.09000
C 	C 	0.40620 0.84720 0.90210 -0.16600
C 	C 	0.38110 0.89790 0.88434 0.08700
H 	H 	0.37500 0.96250 0.88520 0.02200
C 	C 	0.36510 0.85320 0.86565 -0.13000
C 	C 	0.33520 0.91050 0.84680 0.34800
C 	C 	0.37290 0.75710 0.86502 0.07100
H 	H 	0.36210 0.72590 0.85250 0.01300
C 	C 	0.39560 0.70760 0.88212 -0.15100
H 	H 	0.39920 0.64280 0.88120 0.07500
C 	C 	0.51560 0.64950 0.92326 -0.06800
H 	H 	0.55570 0.64260 0.91190 0.04800
C 	C 	0.53900 0.60980 0.94238 -0.01700
H 	H 	0.59490 0.57750 0.94390 0.03200
C 	C 	0.47900 0.61860 0.95905 -0.06300
H 	H 	0.49500 0.59190 0.97180 0.04700
C 	C 	0.42950 0.90120 0.92185 0.44200
Sm	Sm	0.47981 0.72306 0.56202 2.00500
O 	O 	0.12890 0.54030 0.42877 -0.57700
O 	O 	0.38390 0.71820 0.53172 -0.50900
O 	O 	0.40560 0.86850 0.53439 -0.56800
O 	O 	0.09650 0.62600 0.47050 -0.55100
O 	O 	0.24560 0.59500 0.46395 -0.50100
O 	O 	0.18010 0.63080 0.32949 -0.41000
O 	O 	0.17900 0.50530 0.34865 -0.48600
O 	O 	0.50860 0.57340 0.54916 -0.59700
O 	O 	0.99490 0.61390 0.43044 -0.38000
C 	C 	0.36670 0.79920 0.52549 0.45900
C 	C 	0.29900 0.81250 0.50788 -0.22400
C 	C 	0.27420 0.73390 0.49663 0.13700
H 	H 	0.30230 0.67700 0.49980 0.00500
C 	C 	0.20890 0.73740 0.48075 -0.21100
C 	C 	0.18140 0.64530 0.47056 0.50600
C 	C 	0.17070 0.82340 0.47542 0.11000
C 	C 	0.19770 0.90230 0.48654 -0.18500
H 	H 	0.17220 0.96010 0.48310 0.10500
C 	C 	0.26290 0.89610 0.50294 0.12600
H 	H 	0.28080 0.94930 0.51030 0.00300
C 	C 	0.10550 0.83320 0.45726 0.01700
C 	C 	0.12680 0.79210 0.43752 -0.05200
H 	H 	0.18220 0.75900 0.43580 0.05800
C 	C 	0.06610 0.80090 0.42086 -0.06700
C 	C 	0.08610 0.74860 0.40144 0.10600
C 	C 	0.09380 0.65280 0.40210 -0.18300
C 	C 	0.11890 0.60210 0.38434 0.09400
H 	H 	0.12500 0.53750 0.38520 -0.00800
C 	C 	0.13490 0.64680 0.36565 -0.16000
C 	C 	0.16480 0.58950 0.34680 0.35900
C 	C 	0.12710 0.74290 0.36502 0.08900
H 	H 	0.13790 0.77410 0.35250 0.00400
C 	C 	0.10440 0.79240 0.38212 -0.18000
H 	H 	0.10080 0.85720 0.38120 0.08600
C 	C 	0.98440 0.85050 0.42326 0.00300
H 	H 	0.94430 0.85740 0.41190 0.04900
C 	C 	0.96100 0.89020 0.44238 0.08400
H 	H 	0.90510 0.92250 0.44390 0.02300
C 	C 	0.02100 0.88140 0.45905 -0.17100
H 	H 	0.00500 0.90810 0.47180 0.07200
C 	C 	0.07050 0.59880 0.42185 0.37200
Sm	Sm	0.97981 0.22306 0.06202 2.21200
O 	O 	0.62890 0.04030 0.92877 -0.65500
O 	O 	0.88390 0.21820 0.03172 -0.52000
O 	O 	0.90560 0.36850 0.03439 -0.56700
O 	O 	0.59650 0.12600 0.97050 -0.54600
O 	O 	0.74560 0.09500 0.96395 -0.55000
O 	O 	0.68010 0.13080 0.82949 -0.44000
O 	O 	0.67900 0.00530 0.84865 -0.53300
O 	O 	0.00860 0.07340 0.04916 -0.59000
O 	O 	0.49490 0.11390 0.93044 -0.48600
C 	C 	0.86670 0.29920 0.02549 0.46700
C 	C 	0.79900 0.31250 0.00788 -0.23500
C 	C 	0.77420 0.23390 0.99663 0.15200
H 	H 	0.80230 0.17700 0.99980 -0.00100
C 	C 	0.70890 0.23740 0.98075 -0.22400
C 	C 	0.68140 0.14530 0.97056 0.52100
C 	C 	0.67070 0.32340 0.97542 0.13400
C 	C 	0.69770 0.40230 0.98654 -0.20300
H 	H 	0.67220 0.46010 0.98310 0.09800
C 	C 	0.76290 0.39610 0.00294 0.14000
H 	H 	0.78080 0.44930 0.01030 -0.01900
C 	C 	0.60550 0.33320 0.95726 -0.01700
C 	C 	0.62680 0.29210 0.93752 -0.04600
H 	H 	0.68220 0.25900 0.93580 0.05400
C 	C 	0.56610 0.30090 0.92086 -0.01400
C 	C 	0.58610 0.24860 0.90144 0.11900
C 	C 	0.59380 0.15280 0.90210 -0.21800
C 	C 	0.61890 0.10210 0.88434 0.12400
H 	H 	0.62500 0.03750 0.88520 -0.02600
C 	C 	0.63490 0.14680 0.86565 -0.17700
C 	C 	0.66480 0.08950 0.84680 0.37400
C 	C 	0.62710 0.24290 0.86502 0.10400
H 	H 	0.63790 0.27410 0.85250 0.00000
C 	C 	0.60440 0.29240 0.88212 -0.18600
H 	H 	0.60080 0.35720 0.88120 0.08900
C 	C 	0.48440 0.35050 0.92326 -0.05200
H 	H 	0.44430 0.35740 0.91190 0.03500
C 	C 	0.46100 0.39020 0.94238 -0.03000
H 	H 	0.40510 0.42250 0.94390 0.03100
C 	C 	0.52100 0.38140 0.95905 -0.05100
H 	H 	0.50500 0.40810 0.97180 0.04300
C 	C 	0.57050 0.09880 0.92185 0.48100
Sm	Sm	0.27694 0.47981 0.43798 1.98100
O 	O 	0.45970 0.12890 0.57123 -0.57700
O 	O 	0.28180 0.38390 0.46828 -0.51000
O 	O 	0.13150 0.40560 0.46561 -0.59500
O 	O 	0.37400 0.09650 0.52950 -0.55300
O 	O 	0.40500 0.24560 0.53605 -0.50400
O 	O 	0.36920 0.18010 0.67051 -0.41500
O 	O 	0.49470 0.17900 0.65135 -0.48300
O 	O 	0.42660 0.50860 0.45084 -0.59500
O 	O 	0.38610 0.99490 0.56956 -0.37900
C 	C 	0.20080 0.36670 0.47451 0.46100
C 	C 	0.18750 0.29900 0.49212 -0.24000
C 	C 	0.26610 0.27420 0.50337 0.13900
H 	H 	0.32300 0.30230 0.50020 0.00300
C 	C 	0.26260 0.20890 0.51925 -0.21600
C 	C 	0.35470 0.18140 0.52944 0.50800
C 	C 	0.17660 0.17070 0.52458 0.10500
C 	C 	0.09770 0.19770 0.51346 -0.19900
H 	H 	0.03990 0.17220 0.51690 0.06800
C 	C 	0.10390 0.26290 0.49706 0.12400
H 	H 	0.05070 0.28080 0.48970 -0.04000
C 	C 	0.16680 0.10550 0.54274 0.00600
C 	C 	0.20790 0.12680 0.56248 -0.05700
H 	H 	0.24100 0.18220 0.56420 0.05400
C 	C 	0.19910 0.06610 0.57914 -0.07900
C 	C 	0.25140 0.08610 0.59856 0.09900
C 	C 	0.34720 0.09380 0.59790 -0.18100
C 	C 	0.39790 0.11890 0.61566 0.09000
H 	H 	0.46250 0.12500 0.61480 -0.00500
C 	C 	0.35320 0.13490 0.63435 -0.16000
C 	C 	0.41050 0.16480 0.65320 0.35800
C 	C 	0.25710 0.12710 0.63498 0.08100
H 	H 	0.22590 0.13790 0.64750 -0.00600
C 	C 	0.20760 0.10440 0.61788 -0.17900
H 	H 	0.14280 0.10080 0.61880 0.06100
C 	C 	0.14950 0.98440 0.57674 -0.00300
H 	H 	0.14260 0.94430 0.58810 0.03100
C 	C 	0.10980 0.96100 0.55762 0.07200
H 	H 	0.07750 0.90510 0.55610 -0.00900
C 	C 	0.11860 0.02100 0.54095 -0.18600
H 	H 	0.09190 0.00500 0.52820 0.04700
C 	C 	0.40120 0.07050 0.57815 0.37100
Sm	Sm	0.77694 0.97981 0.93798 2.23800
O 	O 	0.95970 0.62890 0.07123 -0.53000
O 	O 	0.78180 0.88390 0.96828 -0.50300
O 	O 	0.63150 0.90560 0.96561 -0.56500
O 	O 	0.87400 0.59650 0.02950 -0.50000
O 	O 	0.90500 0.74560 0.03605 -0.44800
O 	O 	0.86920 0.68010 0.17051 -0.37700
O 	O 	0.99470 0.67900 0.15135 -0.41500
O 	O 	0.92660 0.00860 0.95084 -0.51700
O 	O 	0.88610 0.49490 0.06956 -0.44100
C 	C 	0.70080 0.86670 0.97451 0.46100
C 	C 	0.68750 0.79900 0.99212 -0.21500
C 	C 	0.76610 0.77420 0.00337 0.13200
H 	H 	0.82300 0.80230 0.00020 0.02400
C 	C 	0.76260 0.70890 0.01925 -0.19300
C 	C 	0.85470 0.68140 0.02944 0.48800
C 	C 	0.67660 0.67070 0.02458 0.11600
C 	C 	0.59770 0.69770 0.01346 -0.18500
H 	H 	0.53990 0.67220 0.01690 0.09300
C 	C 	0.60390 0.76290 0.99706 0.12400
H 	H 	0.55070 0.78080 0.98970 -0.01300
C 	C 	0.66680 0.60550 0.04274 -0.00100
C 	C 	0.70790 0.62680 0.06248 -0.06500
H 	H 	0.74100 0.68220 0.06420 0.06400
C 	C 	0.69910 0.56610 0.07914 0.00800
C 	C 	0.75140 0.58610 0.09856 0.09000
C 	C 	0.84720 0.59380 0.09790 -0.16800
C 	C 	0.89790 0.61890 0.11566 0.08700
H 	H 	0.96250 0.62500 0.11480 0.02300
C 	C 	0.85320 0.63490 0.13435 -0.13100
C 	C 	0.91050 0.66480 0.15320 0.34700
C 	C 	0.75710 0.62710 0.13498 0.07000
H 	H 	0.72590 0.63790 0.14750 0.01400
C 	C 	0.70760 0.60440 0.11788 -0.15100
H 	H 	0.64280 0.60080 0.11880 0.07800
C 	C 	0.64950 0.48440 0.07674 -0.07000
H 	H 	0.64260 0.44430 0.08810 0.04400
C 	C 	0.60980 0.46100 0.05762 -0.01400
H 	H 	0.57750 0.40510 0.05610 0.02600
C 	C 	0.61860 0.52100 0.04095 -0.06700
H 	H 	0.59190 0.50500 0.02820 0.04800
C 	C 	0.90120 0.57050 0.07815 0.44500
Sm	Sm	0.72306 0.52019 0.43798 2.01600
O 	O 	0.54030 0.87110 0.57123 -0.61000
O 	O 	0.71820 0.61610 0.46828 -0.50500
O 	O 	0.86850 0.59440 0.46561 -0.56900
O 	O 	0.62600 0.90350 0.52950 -0.49700
O 	O 	0.59500 0.75440 0.53605 -0.49800
O 	O 	0.63080 0.81990 0.67051 -0.39900
O 	O 	0.50530 0.82100 0.65135 -0.46900
O 	O 	0.57340 0.49140 0.45084 -0.59800
O 	O 	0.61390 0.00510 0.56956 -0.54700
C 	C 	0.79920 0.63330 0.47451 0.46300
C 	C 	0.81250 0.70100 0.49212 -0.22800
C 	C 	0.73390 0.72580 0.50337 0.14700
H 	H 	0.67700 0.69770 0.50020 0.00700
C 	C 	0.73740 0.79110 0.51925 -0.21000
C 	C 	0.64530 0.81860 0.52944 0.50200
C 	C 	0.82340 0.82930 0.52458 0.14600
C 	C 	0.90230 0.80230 0.51346 -0.20000
H 	H 	0.96010 0.82780 0.51690 0.12100
C 	C 	0.89610 0.73710 0.49706 0.14300
H 	H 	0.94930 0.71920 0.48970 -0.00200
C 	C 	0.83320 0.89450 0.54274 -0.02900
C 	C 	0.79210 0.87320 0.56248 -0.05400
H 	H 	0.75900 0.81780 0.56420 0.05800
C 	C 	0.80090 0.93390 0.57914 0.06600
C 	C 	0.74860 0.91390 0.59856 0.11100
C 	C 	0.65280 0.90620 0.59790 -0.20500
C 	C 	0.60210 0.88110 0.61566 0.12300
H 	H 	0.53750 0.87500 0.61480 -0.00000
C 	C 	0.64680 0.86510 0.63435 -0.14900
C 	C 	0.58950 0.83520 0.65320 0.36600
C 	C 	0.74290 0.87290 0.63498 0.09500
H 	H 	0.77410 0.86210 0.64750 0.01900
C 	C 	0.79240 0.89560 0.61788 -0.16000
H 	H 	0.85720 0.89920 0.61880 0.10300
C 	C 	0.85050 0.01560 0.57674 -0.11400
H 	H 	0.85740 0.05570 0.58810 0.05200
C 	C 	0.89020 0.03900 0.55762 -0.11400
H 	H 	0.92250 0.09490 0.55610 0.07200
C 	C 	0.88140 0.97900 0.54095 0.06400
H 	H 	0.90810 0.99500 0.52820 0.04400
C 	C 	0.59880 0.92950 0.57815 0.55400
Sm	Sm	0.22306 0.02019 0.93798 1.72200
O 	O 	0.04030 0.37110 0.07123 -0.65400
O 	O 	0.21820 0.11610 0.96828 -0.51100
O 	O 	0.36850 0.09440 0.96561 -0.59300
O 	O 	0.12600 0.40350 0.02950 -0.54600
O 	O 	0.09500 0.25440 0.03605 -0.55700
O 	O 	0.13080 0.31990 0.17051 -0.43800
O 	O 	0.00530 0.32100 0.15135 -0.53700
O 	O 	0.07340 0.99140 0.95084 -0.42600
O 	O 	0.11390 0.50510 0.06956 -0.48400
C 	C 	0.29920 0.13330 0.97451 0.46300
C 	C 	0.31250 0.20100 0.99212 -0.25300
C 	C 	0.23390 0.22580 0.00337 0.15600
H 	H 	0.17700 0.19770 0.00020 -0.01600
C 	C 	0.23740 0.29110 0.01925 -0.23300
C 	C 	0.14530 0.31860 0.02944 0.52200
C 	C 	0.32340 0.32930 0.02458 0.13600
C 	C 	0.40230 0.30230 0.01346 -0.21400
H 	H 	0.46010 0.32780 0.01690 0.09700
C 	C 	0.39610 0.23710 0.99706 0.14400
H 	H 	0.44930 0.21920 0.98970 -0.02700
C 	C 	0.33320 0.39450 0.04274 -0.02300
C 	C 	0.29210 0.37320 0.06248 -0.04500
H 	H 	0.25900 0.31780 0.06420 0.04900
C 	C 	0.30090 0.43390 0.07914 -0.01700
C 	C 	0.24860 0.41390 0.09856 0.12000
C 	C 	0.15280 0.40620 0.09790 -0.21700
C 	C 	0.10210 0.38110 0.11566 0.12500
H 	H 	0.03750 0.37500 0.11480 -0.02800
C 	C 	0.14680 0.36510 0.13435 -0.17700
C 	C 	0.08950 0.33520 0.15320 0.37700
C 	C 	0.24290 0.37290 0.13498 0.10500
H 	H 	0.27410 0.36210 0.14750 -0.00000
C 	C 	0.29240 0.39560 0.11788 -0.18700
H 	H 	0.35720 0.39920 0.11880 0.08700
C 	C 	0.35050 0.51560 0.07674 -0.04900
H 	H 	0.35740 0.55570 0.08810 0.03900
C 	C 	0.39020 0.53900 0.05762 -0.03300
H 	H 	0.42250 0.59490 0.05610 0.03800
C 	C 	0.38140 0.47900 0.04095 -0.04700
H 	H 	0.40810 0.49500 0.02820 0.04200
C 	C 	0.09880 0.42950 0.07815 0.48000
Sm	Sm	0.97981 0.27694 0.18798 2.22700
O 	O 	0.62890 0.45970 0.32123 -0.60700
O 	O 	0.88390 0.28180 0.21828 -0.50900
O 	O 	0.90560 0.13150 0.21561 -0.55200
O 	O 	0.59650 0.37400 0.27950 -0.55100
O 	O 	0.74560 0.40500 0.28605 -0.50600
O 	O 	0.68010 0.36920 0.42051 -0.41300
O 	O 	0.67900 0.49470 0.40135 -0.47600
O 	O 	0.00860 0.42660 0.20084 -0.61400
O 	O 	0.49490 0.38610 0.31956 -0.48400
C 	C 	0.86670 0.20080 0.22451 0.45500
C 	C 	0.79900 0.18750 0.24212 -0.22500
C 	C 	0.77420 0.26610 0.25337 0.14000
H 	H 	0.80230 0.32300 0.25020 0.01100
C 	C 	0.70890 0.26260 0.26925 -0.21300
C 	C 	0.68140 0.35470 0.27944 0.51400
C 	C 	0.67070 0.17660 0.27458 0.12200
C 	C 	0.69770 0.09770 0.26346 -0.19700
H 	H 	0.67220 0.03990 0.26690 0.07700
C 	C 	0.76290 0.10390 0.24706 0.12700
H 	H 	0.78080 0.05070 0.23970 -0.03100
C 	C 	0.60550 0.16680 0.29274 -0.01600
C 	C 	0.62680 0.20790 0.31248 -0.05800
H 	H 	0.68220 0.24100 0.31420 0.05600
C 	C 	0.56610 0.19910 0.32914 -0.00800
C 	C 	0.58610 0.25140 0.34856 0.10100
C 	C 	0.59380 0.34720 0.34790 -0.19400
C 	C 	0.61890 0.39790 0.36566 0.10500
H 	H 	0.62500 0.46250 0.36480 -0.00200
C 	C 	0.63490 0.35320 0.38435 -0.15500
C 	C 	0.66480 0.41050 0.40320 0.36000
C 	C 	0.62710 0.25710 0.38498 0.08400
H 	H 	0.63790 0.22590 0.39750 0.00100
C 	C 	0.60440 0.20760 0.36788 -0.16900
H 	H 	0.60080 0.14280 0.36880 0.07100
C 	C 	0.48440 0.14950 0.32674 -0.06500
H 	H 	0.44430 0.14260 0.33810 0.03000
C 	C 	0.46100 0.10980 0.30762 -0.03200
H 	H 	0.40510 0.07750 0.30610 0.01300
C 	C 	0.52100 0.11860 0.29095 -0.06300
H 	H 	0.50500 0.09190 0.27820 0.03200
C 	C 	0.57050 0.40120 0.32815 0.46700
Sm	Sm	0.47981 0.77694 0.68798 2.00600
O 	O 	0.12890 0.95970 0.82123 -0.49800
O 	O 	0.38390 0.78180 0.71828 -0.50400
O 	O 	0.40560 0.63150 0.71561 -0.60700
O 	O 	0.09650 0.87400 0.77950 -0.49900
O 	O 	0.24560 0.90500 0.78605 -0.44300
O 	O 	0.18010 0.86920 0.92051 -0.37900
O 	O 	0.17900 0.99470 0.90135 -0.42000
O 	O 	0.50860 0.92660 0.70084 -0.50200
O 	O 	0.99490 0.88610 0.81956 -0.34400
C 	C 	0.36670 0.70080 0.72451 0.46700
C 	C 	0.29900 0.68750 0.74212 -0.22800
C 	C 	0.27420 0.76610 0.75337 0.13000
H 	H 	0.30230 0.82300 0.75020 0.01700
C 	C 	0.20890 0.76260 0.76925 -0.19600
C 	C 	0.18140 0.85470 0.77944 0.48100
C 	C 	0.17070 0.67660 0.77458 0.09900
C 	C 	0.19770 0.59770 0.76346 -0.18600
H 	H 	0.17220 0.53990 0.76690 0.08400
C 	C 	0.26290 0.60390 0.74706 0.12200
H 	H 	0.28080 0.55070 0.73970 -0.02000
C 	C 	0.10550 0.66680 0.79274 0.02000
C 	C 	0.12680 0.70790 0.81248 -0.06500
H 	H 	0.18220 0.74100 0.81420 0.06200
C 	C 	0.06610 0.69910 0.82914 -0.05700
C 	C 	0.08610 0.75140 0.84856 0.08700
C 	C 	0.09380 0.84720 0.84790 -0.15500
C 	C 	0.11890 0.89790 0.86566 0.07300
H 	H 	0.12500 0.96250 0.86480 0.02000
C 	C 	0.13490 0.85320 0.88435 -0.13500
C 	C 	0.16480 0.91050 0.90320 0.34500
C 	C 	0.12710 0.75710 0.88498 0.06700
H 	H 	0.13790 0.72590 0.89750 0.00700
C 	C 	0.10440 0.70760 0.86788 -0.16000
H 	H 	0.10080 0.64280 0.86880 0.06700
C 	C 	0.98440 0.64950 0.82674 -0.01400
H 	H 	0.94430 0.64260 0.83810 0.04600
C 	C 	0.96100 0.60980 0.80762 0.08500
H 	H 	0.90510 0.57750 0.80610 0.00400
C 	C 	0.02100 0.61860 0.79095 -0.18300
H 	H 	0.00500 0.59190 0.77820 0.06200
C 	C 	0.07050 0.90120 0.82815 0.35500
Sm	Sm	0.02019 0.72306 0.18798 1.76600
O 	O 	0.37110 0.54030 0.32123 -0.60200
O 	O 	0.11610 0.71820 0.21828 -0.49900
O 	O 	0.09440 0.86850 0.21561 -0.55300
O 	O 	0.40350 0.62600 0.27950 -0.55000
O 	O 	0.25440 0.59500 0.28605 -0.50700
O 	O 	0.31990 0.63080 0.42051 -0.40500
O 	O 	0.32100 0.50530 0.40135 -0.48100
O 	O 	0.99140 0.57340 0.20084 -0.45800
O 	O 	0.50510 0.61390 0.31956 -0.48000
C 	C 	0.13330 0.79920 0.22451 0.44800
C 	C 	0.20100 0.81250 0.24212 -0.22600
C 	C 	0.22580 0.73390 0.25337 0.14100
H 	H 	0.19770 0.67700 0.25020 -0.00100
C 	C 	0.29110 0.73740 0.26925 -0.21700
C 	C 	0.31860 0.64530 0.27944 0.51300
C 	C 	0.32930 0.82340 0.27458 0.12900
C 	C 	0.30230 0.90230 0.26346 -0.19400
H 	H 	0.32780 0.96010 0.26690 0.11200
C 	C 	0.23710 0.89610 0.24706 0.13100
H 	H 	0.21920 0.94930 0.23970 0.00100
C 	C 	0.39450 0.83320 0.29274 -0.00900
C 	C 	0.37320 0.79210 0.31248 -0.05200
H 	H 	0.31780 0.75900 0.31420 0.05600
C 	C 	0.43390 0.80090 0.32914 -0.00200
C 	C 	0.41390 0.74860 0.34856 0.11000
C 	C 	0.40620 0.65280 0.34790 -0.19500
C 	C 	0.38110 0.60210 0.36566 0.11000
H 	H 	0.37500 0.53750 0.36480 -0.00500
C 	C 	0.36510 0.64680 0.38435 -0.15600
C 	C 	0.33520 0.58950 0.40320 0.36300
C 	C 	0.37290 0.74290 0.38498 0.09300
H 	H 	0.36210 0.77410 0.39750 0.01100
C 	C 	0.39560 0.79240 0.36788 -0.17100
H 	H 	0.39920 0.85720 0.36880 0.09400
C 	C 	0.51560 0.85050 0.32674 -0.05400
H 	H 	0.55570 0.85740 0.33810 0.05200
C 	C 	0.53900 0.89020 0.30762 -0.01700
H 	H 	0.59490 0.92250 0.30610 0.05100
C 	C 	0.47900 0.88140 0.29095 -0.05100
H 	H 	0.49500 0.90810 0.27820 0.05800
C 	C 	0.42950 0.59880 0.32815 0.46500
Sm	Sm	0.52019 0.22306 0.68798 1.97700
O 	O 	0.87110 0.04030 0.82123 -0.65900
O 	O 	0.61610 0.21820 0.71828 -0.51800
O 	O 	0.59440 0.36850 0.71561 -0.60900
O 	O 	0.90350 0.12600 0.77950 -0.49200
O 	O 	0.75440 0.09500 0.78605 -0.54600
O 	O 	0.81990 0.13080 0.92051 -0.43100
O 	O 	0.82100 0.00530 0.90135 -0.52300
O 	O 	0.49140 0.07340 0.70084 -0.57000
O 	O 	0.00510 0.11390 0.81956 -0.55100
C 	C 	0.63330 0.29920 0.72451 0.47800
C 	C 	0.70100 0.31250 0.74212 -0.25400
C 	C 	0.72580 0.23390 0.75337 0.16200
H 	H 	0.69770 0.17700 0.75020 -0.00900
C 	C 	0.79110 0.23740 0.76925 -0.22600
C 	C 	0.81860 0.14530 0.77944 0.51100
C 	C 	0.82930 0.32340 0.77458 0.15300
C 	C 	0.80230 0.40230 0.76346 -0.21900
H 	H 	0.82780 0.46010 0.76690 0.10700
C 	C 	0.73710 0.39610 0.74706 0.15600
H 	H 	0.71920 0.44930 0.73970 -0.03100
C 	C 	0.89450 0.33320 0.79274 -0.04400
C 	C 	0.87320 0.29210 0.81248 -0.04600
H 	H 	0.81780 0.25900 0.81420 0.05200
C 	C 	0.93390 0.30090 0.82914 0.05300
C 	C 	0.91390 0.24860 0.84856 0.12000
C 	C 	0.90620 0.15280 0.84790 -0.22700
C 	C 	0.88110 0.10210 0.86566 0.13800
H 	H 	0.87500 0.03750 0.86480 -0.02200
C 	C 	0.86510 0.14680 0.88435 -0.16900
C 	C 	0.83520 0.08950 0.90320 0.37900
C 	C 	0.87290 0.24290 0.88498 0.10700
H 	H 	0.86210 0.27410 0.89750 0.00900
C 	C 	0.89560 0.29240 0.86788 -0.17500
H 	H 	0.89920 0.35720 0.86880 0.09700
C 	C 	0.01560 0.35050 0.82674 -0.11000
H 	H 	0.05570 0.35740 0.83810 0.03800
C 	C 	0.03900 0.39020 0.80762 -0.13300
H 	H 	0.09490 0.42250 0.80610 0.05900
C 	C 	0.97900 0.38140 0.79095 0.07100
H 	H 	0.99500 0.40810 0.77820 0.02800
C 	C 	0.92950 0.09880 0.82815 0.56900
Sm	Sm	0.22306 0.47981 0.31202 1.96600
O 	O 	0.04030 0.12890 0.17877 -0.62800
O 	O 	0.21820 0.38390 0.28172 -0.52100
O 	O 	0.36850 0.40560 0.28439 -0.60900
O 	O 	0.12600 0.09650 0.22050 -0.54800
O 	O 	0.09500 0.24560 0.21395 -0.55100
O 	O 	0.13080 0.18010 0.07949 -0.44300
O 	O 	0.00530 0.17900 0.09865 -0.54100
O 	O 	0.07340 0.50860 0.29916 -0.56800
O 	O 	0.11390 0.99490 0.18044 -0.38300
C 	C 	0.29920 0.36670 0.27549 0.47400
C 	C 	0.31250 0.29900 0.25788 -0.25100
C 	C 	0.23390 0.27420 0.24663 0.15200
H 	H 	0.17700 0.30230 0.24980 -0.01000
C 	C 	0.23740 0.20890 0.23075 -0.22800
C 	C 	0.14530 0.18140 0.22056 0.51600
C 	C 	0.32340 0.17070 0.22542 0.11700
C 	C 	0.40230 0.19770 0.23654 -0.20500
H 	H 	0.46010 0.17220 0.23310 0.09000
C 	C 	0.39610 0.26290 0.25294 0.13900
H 	H 	0.44930 0.28080 0.26030 -0.02700
C 	C 	0.33320 0.10550 0.20726 0.00300
C 	C 	0.29210 0.12680 0.18752 -0.04500
H 	H 	0.25900 0.18220 0.18580 0.05200
C 	C 	0.30090 0.06610 0.17086 -0.08300
C 	C 	0.24860 0.08610 0.15144 0.11600
C 	C 	0.15280 0.09380 0.15210 -0.20500
C 	C 	0.10210 0.11890 0.13434 0.11000
H 	H 	0.03750 0.12500 0.13520 -0.03000
C 	C 	0.14680 0.13490 0.11565 -0.18100
C 	C 	0.08950 0.16480 0.09680 0.37300
C 	C 	0.24290 0.12710 0.11502 0.10100
H 	H 	0.27410 0.13790 0.10250 -0.00700
C 	C 	0.29240 0.10440 0.13212 -0.19600
H 	H 	0.35720 0.10080 0.13120 0.07900
C 	C 	0.35050 0.98440 0.17326 0.00800
H 	H 	0.35740 0.94430 0.16190 0.03600
C 	C 	0.39020 0.96100 0.19238 0.07000
H 	H 	0.42250 0.90510 0.19390 0.01000
C 	C 	0.38140 0.02100 0.20905 -0.16900
H 	H 	0.40810 0.00500 0.22180 0.05600
C 	C 	0.09880 0.07050 0.17185 0.38800
Sm	Sm	0.72306 0.97981 0.81202 2.24200
O 	O 	0.54030 0.62890 0.67877 -0.60600
O 	O 	0.71820 0.88390 0.78172 -0.50700
O 	O 	0.86850 0.90560 0.78439 -0.52800
O 	O 	0.62600 0.59650 0.72050 -0.55000
O 	O 	0.59500 0.74560 0.71395 -0.50300
O 	O 	0.63080 0.68010 0.57949 -0.40800
O 	O 	0.50530 0.67900 0.59865 -0.47800
O 	O 	0.57340 0.00860 0.79916 -0.61400
O 	O 	0.61390 0.49490 0.68044 -0.48200
C 	C 	0.79920 0.86670 0.77549 0.45300
C 	C 	0.81250 0.79900 0.75788 -0.21000
C 	C 	0.73390 0.77420 0.74663 0.13800
H 	H 	0.67700 0.80230 0.74980 0.01400
C 	C 	0.73740 0.70890 0.73075 -0.20800
C 	C 	0.64530 0.68140 0.72056 0.51200
C 	C 	0.82340 0.67070 0.72542 0.12700
C 	C 	0.90230 0.69770 0.73654 -0.18400
H 	H 	0.96010 0.67220 0.73310 0.11200
C 	C 	0.89610 0.76290 0.75294 0.12800
H 	H 	0.94930 0.78080 0.76030 0.00900
C 	C 	0.83320 0.60550 0.70726 -0.00400
C 	C 	0.79210 0.62680 0.68752 -0.05400
H 	H 	0.75900 0.68220 0.68580 0.06100
C 	C 	0.80090 0.56610 0.67086 0.00000
C 	C 	0.74860 0.58610 0.65144 0.10900
C 	C 	0.65280 0.59380 0.65210 -0.19600
C 	C 	0.60210 0.61890 0.63434 0.10900
H 	H 	0.53750 0.62500 0.63520 -0.00400
C 	C 	0.64680 0.63490 0.61565 -0.15600
C 	C 	0.58950 0.66480 0.59680 0.36100
C 	C 	0.74290 0.62710 0.61502 0.09200
H 	H 	0.77410 0.63790 0.60250 0.01100
C 	C 	0.79240 0.60440 0.63212 -0.17100
H 	H 	0.85720 0.60080 0.63120 0.09600
C 	C 	0.85050 0.48440 0.67326 -0.05700
H 	H 	0.85740 0.44430 0.66190 0.04900
C 	C 	0.89020 0.46100 0.69238 -0.01400
H 	H 	0.92250 0.40510 0.69390 0.04500
C 	C 	0.88140 0.52100 0.70905 -0.05500
H 	H 	0.90810 0.50500 0.72180 0.05800
C 	C 	0.59880 0.57050 0.67185 0.46700
Sm	Sm	0.77694 0.52019 0.31202 2.01600
O 	O 	0.95970 0.87110 0.17877 -0.53200
O 	O 	0.78180 0.61610 0.28172 -0.50100
O 	O 	0.63150 0.59440 0.28439 -0.60700
O 	O 	0.87400 0.90350 0.22050 -0.44800
O 	O 	0.90500 0.75440 0.21395 -0.44200
O 	O 	0.86920 0.81990 0.07949 -0.36900
O 	O 	0.99470 0.82100 0.09865 -0.40700
O 	O 	0.92660 0.49140 0.29916 -0.50300
O 	O 	0.88610 0.00510 0.18044 -0.50100
C 	C 	0.70080 0.63330 0.27549 0.47200
C 	C 	0.68750 0.70100 0.25788 -0.23300
C 	C 	0.76610 0.72580 0.24663 0.14100
H 	H 	0.82300 0.69770 0.24980 0.01700
C 	C 	0.76260 0.79110 0.23075 -0.19600
C 	C 	0.85470 0.81860 0.22056 0.47800
C 	C 	0.67660 0.82930 0.22542 0.13500
C 	C 	0.59770 0.80230 0.23654 -0.20100
H 	H 	0.53990 0.82780 0.23310 0.10200
C 	C 	0.60390 0.73710 0.25294 0.14000
H 	H 	0.55070 0.71920 0.26030 -0.02400
C 	C 	0.66680 0.89450 0.20726 -0.02700
C 	C 	0.70790 0.87320 0.18752 -0.06500
H 	H 	0.74100 0.81780 0.18580 0.06100
C 	C 	0.69910 0.93390 0.17086 0.07200
C 	C 	0.75140 0.91390 0.15144 0.09100
C 	C 	0.84720 0.90620 0.15210 -0.17600
C 	C 	0.89790 0.88110 0.13434 0.10000
H 	H 	0.96250 0.87500 0.13520 0.02600
C 	C 	0.85320 0.86510 0.11565 -0.12400
C 	C 	0.91050 0.83520 0.09680 0.35200
C 	C 	0.75710 0.87290 0.11502 0.07300
H 	H 	0.72590 0.86210 0.10250 0.02200
C 	C 	0.70760 0.89560 0.13212 -0.14000
H 	H 	0.64280 0.89920 0.13120 0.08500
C 	C 	0.64950 0.01560 0.17326 -0.12600
H 	H 	0.64260 0.05570 0.16190 0.04700
C 	C 	0.60980 0.03900 0.19238 -0.11600
H 	H 	0.57750 0.09490 0.19390 0.05300
C 	C 	0.61860 0.97900 0.20905 0.05400
H 	H 	0.59190 0.99500 0.22180 0.03400
C 	C 	0.90120 0.92950 0.17185 0.52600
Sm	Sm	0.27694 0.02019 0.81202 1.73600
O 	O 	0.45970 0.37110 0.67877 -0.60300
O 	O 	0.28180 0.11610 0.78172 -0.50000
O 	O 	0.13150 0.09440 0.78439 -0.57900
O 	O 	0.37400 0.40350 0.72050 -0.55100
O 	O 	0.40500 0.25440 0.71395 -0.51100
O 	O 	0.36920 0.31990 0.57949 -0.41000
O 	O 	0.49470 0.32100 0.59865 -0.47800
O 	O 	0.42660 0.99140 0.79916 -0.45300
O 	O 	0.38610 0.50510 0.68044 -0.48200
C 	C 	0.20080 0.13330 0.77549 0.45000
C 	C 	0.18750 0.20100 0.75788 -0.24300
C 	C 	0.26610 0.22580 0.74663 0.14400
H 	H 	0.32300 0.19770 0.74980 -0.00400
C 	C 	0.26260 0.29110 0.73075 -0.22200
C 	C 	0.35470 0.31860 0.72056 0.51400
C 	C 	0.17660 0.32930 0.72542 0.12400
C 	C 	0.09770 0.30230 0.73654 -0.20800
H 	H 	0.03990 0.32780 0.73310 0.07600
C 	C 	0.10390 0.23710 0.75294 0.13000
H 	H 	0.05070 0.21920 0.76030 -0.04000
C 	C 	0.16680 0.39450 0.70726 -0.02200
C 	C 	0.20790 0.37320 0.68752 -0.05600
H 	H 	0.24100 0.31780 0.68580 0.05100
C 	C 	0.19910 0.43390 0.67086 -0.01100
C 	C 	0.25140 0.41390 0.65144 0.10200
C 	C 	0.34720 0.40620 0.65210 -0.19300
C 	C 	0.39790 0.38110 0.63434 0.10600
H 	H 	0.46250 0.37500 0.63520 -0.00300
C 	C 	0.35320 0.36510 0.61565 -0.15500
C 	C 	0.41050 0.33520 0.59680 0.36100
C 	C 	0.25710 0.37290 0.61502 0.08500
H 	H 	0.22590 0.36210 0.60250 0.00100
C 	C 	0.20760 0.39560 0.63212 -0.16900
H 	H 	0.14280 0.39920 0.63120 0.06900
C 	C 	0.14950 0.51560 0.67326 -0.06200
H 	H 	0.14260 0.55570 0.66190 0.03400
C 	C 	0.10980 0.53900 0.69238 -0.03500
H 	H 	0.07750 0.59490 0.69390 0.02000
C 	C 	0.11860 0.47900 0.70905 -0.05900
H 	H 	0.09190 0.49500 0.72180 0.03100
C 	C 	0.40120 0.42950 0.67185 0.46500
Sm	Sm	-0.00000 0.50000 0.45983 1.92700
Sm	Sm	0.50000 0.00000 0.95983 1.91500
Sm	Sm	0.50000 0.00000 0.54017 1.92600
Sm	Sm	0.00000 0.50000 0.04017 1.91500
Sm	Sm	0.50000 0.50000 0.29017 2.10300
Sm	Sm	-0.00000 -0.00000 0.79017 1.74000
Sm	Sm	0.00000 0.00000 0.20983 1.74200
Sm	Sm	0.50000 0.50000 0.70983 2.10300
C 	C 	0.50000 0.50000 0.55810 0.75700
H 	H 	0.50000 0.50000 0.57270 -0.28400
C 	C 	-0.00000 -0.00000 0.05810 0.46300
H 	H 	-0.00000 -0.00000 0.07270 -0.23300
C 	C 	0.50000 0.50000 0.44190 0.75700
H 	H 	0.50000 0.50000 0.42730 -0.28400
C 	C 	-0.00000 -0.00000 0.94190 0.44900
H 	H 	-0.00000 0.00000 0.92730 -0.22900
C 	C 	-0.00000 0.50000 0.19190 0.60400
H 	H 	-0.00000 0.50000 0.17730 -0.25700
C 	C 	0.50000 -0.00000 0.69190 0.60700
H 	H 	0.50000 0.00000 0.67730 -0.25700
C 	C 	-0.00000 0.50000 0.30810 0.60600
H 	H 	-0.00000 0.50000 0.32270 -0.25700
C 	C 	0.50000 -0.00000 0.80810 0.60100
H 	H 	0.50000 0.00000 0.82270 -0.25600
