data_crystal

_cell_length_a 14.21180
_cell_length_b 14.21180
_cell_length_c 63.50100
_cell_angle_alpha 90.00000
_cell_angle_beta  90.00000
_cell_angle_gamma 90.00000

_symmetry_space_group_name_	'P 1'
_symmetry_space_group_name_H-M	'P 1'

loop_
_symmetry_equiv_pos_as_xyz
  x,y,z

loop_
_atom_site_label
_atom_site_type_symbol
_atom_site_fract_x
_atom_site_fract_y
_atom_site_fract_z
_atom_site_charge
Eu	Eu	0.22204 0.98080 0.43826 2.17200
O 	O 	0.37410 0.90900 0.46560 -0.56200
O 	O 	0.21890 0.88340 0.46680 -0.51400
O 	O 	0.09500 0.74450 0.53520 -0.56900
O 	O 	0.12260 0.59510 0.52920 -0.56500
O 	O 	0.04480 0.63150 0.57108 -0.67900
O 	O 	0.11360 0.49770 0.56961 -0.52000
O 	O 	0.13630 0.67860 0.67110 -0.40300
O 	O 	0.00180 0.67680 0.65194 -0.49500
O 	O 	0.07550 0.01180 0.45130 -0.59000
C 	C 	0.31630 0.79220 0.49160 -0.21400
C 	C 	0.39620 0.76270 0.49690 0.14200
H 	H 	0.44950 0.78480 0.49000 -0.01600
C 	C 	0.40540 0.69640 0.51330 -0.18800
H 	H 	0.46390 0.67100 0.51660 0.09500
C 	C 	0.32100 0.66790 0.52500 0.12500
C 	C 	0.23630 0.70750 0.51880 -0.22700
C 	C 	0.23280 0.77210 0.50360 0.14200
H 	H 	0.17700 0.80380 0.50070 0.00300
C 	C 	0.33570 0.60360 0.54290 -0.02400
C 	C 	0.37840 0.52010 0.54100 -0.04100
H 	H 	0.40080 0.50150 0.52780 0.04000
C 	C 	0.39000 0.46150 0.55790 -0.03900
H 	H 	0.42530 0.40680 0.55650 0.03600
C 	C 	0.35050 0.48300 0.57640 -0.03900
H 	H 	0.35810 0.44140 0.58760 0.03200
C 	C 	0.29840 0.56420 0.57950 -0.02600
C 	C 	0.29170 0.61780 0.56250 -0.03200
H 	H 	0.25360 0.67080 0.56360 0.04900
C 	C 	0.24760 0.58450 0.59840 0.11900
C 	C 	0.29390 0.59970 0.61890 -0.18000
H 	H 	0.35870 0.59360 0.62040 0.08800
C 	C 	0.23900 0.62270 0.63520 0.10200
H 	H 	0.26900 0.63050 0.64810 0.00400
C 	C 	0.14570 0.63570 0.63500 -0.16600
C 	C 	0.09920 0.62220 0.61610 0.11600
H 	H 	0.03470 0.63220 0.61500 -0.02200
C 	C 	0.15270 0.59280 0.59850 -0.22100
C 	C 	0.30260 0.86830 0.47460 0.42200
C 	C 	0.14200 0.68130 0.52900 0.56000
C 	C 	0.09900 0.57190 0.57770 0.54600
C 	C 	0.09400 0.65910 0.65400 0.30600
Eu	Eu	0.72204 0.48080 0.93826 1.96900
O 	O 	0.87410 0.40900 0.96560 -0.56300
O 	O 	0.71890 0.38340 0.96680 -0.50100
O 	O 	0.59500 0.24450 0.03520 -0.51700
O 	O 	0.62260 0.09510 0.02920 -0.56900
O 	O 	0.54480 0.13150 0.07108 -0.59200
O 	O 	0.61360 0.99770 0.06961 -0.40200
O 	O 	0.63630 0.17860 0.17110 -0.37700
O 	O 	0.50180 0.17680 0.15194 -0.44800
O 	O 	0.57550 0.51180 0.95130 -0.59800
C 	C 	0.81630 0.29220 0.99160 -0.19700
C 	C 	0.89620 0.26270 0.99690 0.12000
H 	H 	0.94950 0.28480 0.99000 0.00800
C 	C 	0.90540 0.19640 0.01330 -0.16500
H 	H 	0.96390 0.17100 0.01660 0.10000
C 	C 	0.82100 0.16790 0.02500 0.09000
C 	C 	0.73630 0.20750 0.01880 -0.20700
C 	C 	0.73280 0.27210 0.00360 0.12100
H 	H 	0.67700 0.30380 0.00070 0.01100
C 	C 	0.83570 0.10360 0.04290 0.03500
C 	C 	0.87840 0.02010 0.04100 -0.18800
H 	H 	0.90080 0.00150 0.02780 0.07600
C 	C 	0.89000 0.96150 0.05790 0.10200
H 	H 	0.92530 0.90680 0.05650 0.02000
C 	C 	0.85050 0.98300 0.07640 -0.01000
H 	H 	0.85810 0.94140 0.08760 0.05500
C 	C 	0.79840 0.06420 0.07950 -0.05900
C 	C 	0.79170 0.11780 0.06250 -0.06100
H 	H 	0.75360 0.17080 0.06360 0.06000
C 	C 	0.74760 0.08450 0.09840 0.09900
C 	C 	0.79390 0.09970 0.11890 -0.16900
H 	H 	0.85870 0.09360 0.12040 0.08300
C 	C 	0.73900 0.12270 0.13520 0.08400
H 	H 	0.76900 0.13050 0.14810 0.00900
C 	C 	0.64570 0.13570 0.13500 -0.14800
C 	C 	0.59920 0.12220 0.11610 0.08500
H 	H 	0.53470 0.13220 0.11500 -0.00300
C 	C 	0.65270 0.09280 0.09850 -0.18100
C 	C 	0.80260 0.36830 0.97460 0.41100
C 	C 	0.64200 0.18130 0.02900 0.54100
C 	C 	0.59900 0.07190 0.07770 0.42100
C 	C 	0.59400 0.15910 0.15400 0.29400
Eu	Eu	0.77796 0.01920 0.43826 1.73500
O 	O 	0.62590 0.09100 0.46560 -0.58800
O 	O 	0.78110 0.11660 0.46680 -0.48200
O 	O 	0.90500 0.25550 0.53520 -0.46700
O 	O 	0.87740 0.40490 0.52920 -0.51400
O 	O 	0.95520 0.36850 0.57108 -0.54500
O 	O 	0.88640 0.50230 0.56961 -0.46800
O 	O 	0.86370 0.32140 0.67110 -0.34500
O 	O 	0.99820 0.32320 0.65194 -0.37800
O 	O 	0.92450 0.98820 0.45130 -0.37100
C 	C 	0.68370 0.20780 0.49160 -0.20200
C 	C 	0.60380 0.23730 0.49690 0.12200
H 	H 	0.55050 0.21520 0.49000 -0.01700
C 	C 	0.59460 0.30360 0.51330 -0.17700
H 	H 	0.53610 0.32900 0.51660 0.08600
C 	C 	0.67900 0.33210 0.52500 0.10300
C 	C 	0.76370 0.29250 0.51880 -0.19900
C 	C 	0.76720 0.22790 0.50360 0.11800
H 	H 	0.82300 0.19620 0.50070 0.01600
C 	C 	0.66430 0.39640 0.54290 -0.00300
C 	C 	0.62160 0.47990 0.54100 -0.06400
H 	H 	0.59920 0.49850 0.52780 0.04900
C 	C 	0.61000 0.53850 0.55790 -0.01300
H 	H 	0.57470 0.59320 0.55650 0.03300
C 	C 	0.64950 0.51700 0.57640 -0.06600
H 	H 	0.64190 0.55860 0.58760 0.04900
C 	C 	0.70160 0.43580 0.57950 0.00500
C 	C 	0.70830 0.38220 0.56250 -0.06100
H 	H 	0.74640 0.32920 0.56360 0.05800
C 	C 	0.75240 0.41550 0.59840 0.08600
C 	C 	0.70610 0.40030 0.61890 -0.14400
H 	H 	0.64130 0.40640 0.62040 0.07400
C 	C 	0.76100 0.37730 0.63520 0.07000
H 	H 	0.73100 0.36950 0.64810 0.01700
C 	C 	0.85430 0.36430 0.63500 -0.12300
C 	C 	0.90080 0.37780 0.61610 0.08300
H 	H 	0.96530 0.36780 0.61500 0.02500
C 	C 	0.84730 0.40720 0.59850 -0.16600
C 	C 	0.69740 0.13170 0.47460 0.40500
C 	C 	0.85800 0.31870 0.52900 0.52200
C 	C 	0.90100 0.42810 0.57770 0.49900
C 	C 	0.90600 0.34090 0.65400 0.29200
Eu	Eu	0.27796 0.51920 0.93826 1.95300
O 	O 	0.12590 0.59100 0.96560 -0.59100
O 	O 	0.28110 0.61660 0.96680 -0.49800
O 	O 	0.40500 0.75550 0.03520 -0.51800
O 	O 	0.37740 0.90490 0.02920 -0.51300
O 	O 	0.45520 0.86850 0.07108 -0.63900
O 	O 	0.38640 0.00230 0.06961 -0.59100
O 	O 	0.36370 0.82140 0.17110 -0.37100
O 	O 	0.49820 0.82320 0.15194 -0.42900
O 	O 	0.42450 0.48820 0.95130 -0.59700
C 	C 	0.18370 0.70780 0.99160 -0.22200
C 	C 	0.10380 0.73730 0.99690 0.14600
H 	H 	0.05050 0.71520 0.99000 -0.04200
C 	C 	0.09460 0.80360 0.01330 -0.20300
H 	H 	0.03610 0.82900 0.01660 0.08300
C 	C 	0.17900 0.83210 0.02500 0.14100
C 	C 	0.26370 0.79250 0.01880 -0.22100
C 	C 	0.26720 0.72790 0.00360 0.14100
H 	H 	0.32300 0.69620 0.00070 0.00700
C 	C 	0.16430 0.89640 0.04290 -0.06700
C 	C 	0.12160 0.97990 0.04100 0.09300
H 	H 	0.09920 0.99850 0.02780 0.01100
C 	C 	0.11000 0.03850 0.05790 -0.16400
H 	H 	0.07470 0.09320 0.05650 0.05000
C 	C 	0.14950 0.01700 0.07640 -0.09300
H 	H 	0.14190 0.05860 0.08760 0.02400
C 	C 	0.20160 0.93580 0.07950 0.03800
C 	C 	0.20830 0.88220 0.06250 -0.02900
H 	H 	0.24640 0.82920 0.06360 0.04400
C 	C 	0.25240 0.91550 0.09840 0.10800
C 	C 	0.20610 0.90030 0.11890 -0.15500
H 	H 	0.14130 0.90640 0.12040 0.08100
C 	C 	0.26100 0.87730 0.13520 0.09000
H 	H 	0.23100 0.86950 0.14810 0.01300
C 	C 	0.35430 0.86430 0.13500 -0.14300
C 	C 	0.40080 0.87780 0.11610 0.11700
H 	H 	0.46530 0.86780 0.11500 0.00400
C 	C 	0.34730 0.90720 0.09850 -0.20900
C 	C 	0.19740 0.63170 0.97460 0.41700
C 	C 	0.35800 0.81870 0.02900 0.54200
C 	C 	0.40100 0.92810 0.07770 0.63000
C 	C 	0.40600 0.84090 0.15400 0.30500
Eu	Eu	0.98080 0.77796 0.56174 2.19600
O 	O 	0.90900 0.62590 0.53440 -0.55900
O 	O 	0.88340 0.78110 0.53320 -0.49600
O 	O 	0.74450 0.90500 0.46480 -0.46400
O 	O 	0.59510 0.87740 0.47080 -0.51500
O 	O 	0.63150 0.95520 0.42892 -0.55100
O 	O 	0.49770 0.88640 0.43039 -0.47000
O 	O 	0.67860 0.86370 0.32890 -0.34700
O 	O 	0.67680 0.99820 0.34806 -0.37800
O 	O 	0.01180 0.92450 0.54870 -0.51800
C 	C 	0.79220 0.68370 0.50840 -0.19000
C 	C 	0.76270 0.60380 0.50310 0.12100
H 	H 	0.78480 0.55050 0.51000 -0.00800
C 	C 	0.69640 0.59460 0.48670 -0.16800
H 	H 	0.67100 0.53610 0.48340 0.08800
C 	C 	0.66790 0.67900 0.47500 0.10200
C 	C 	0.70750 0.76370 0.48120 -0.19200
C 	C 	0.77210 0.76720 0.49640 0.11800
H 	H 	0.80380 0.82300 0.49930 0.02900
C 	C 	0.60360 0.66430 0.45710 0.00300
C 	C 	0.52010 0.62160 0.45900 -0.06900
H 	H 	0.50150 0.59920 0.47220 0.05000
C 	C 	0.46150 0.61000 0.44210 -0.01000
H 	H 	0.40680 0.57470 0.44350 0.02600
C 	C 	0.48300 0.64950 0.42360 -0.06900
H 	H 	0.44140 0.64190 0.41240 0.04600
C 	C 	0.56420 0.70160 0.42050 0.00800
C 	C 	0.61780 0.70830 0.43750 -0.06300
H 	H 	0.67080 0.74640 0.43640 0.06200
C 	C 	0.58450 0.75240 0.40160 0.08500
C 	C 	0.59970 0.70610 0.38110 -0.14400
H 	H 	0.59360 0.64130 0.37960 0.07600
C 	C 	0.62270 0.76100 0.36480 0.06900
H 	H 	0.63050 0.73100 0.35190 0.01800
C 	C 	0.63570 0.85430 0.36500 -0.12400
C 	C 	0.62220 0.90080 0.38390 0.08300
H 	H 	0.63220 0.96530 0.38500 0.02600
C 	C 	0.59280 0.84730 0.40150 -0.16800
C 	C 	0.86830 0.69740 0.52540 0.41600
C 	C 	0.68130 0.85800 0.47100 0.52200
C 	C 	0.57190 0.90100 0.42230 0.50200
C 	C 	0.65910 0.90600 0.34600 0.29000
Eu	Eu	0.48080 0.27796 0.06174 1.94300
O 	O 	0.40900 0.12590 0.03440 -0.59100
O 	O 	0.38340 0.28110 0.03320 -0.50100
O 	O 	0.24450 0.40500 0.96480 -0.52100
O 	O 	0.09510 0.37740 0.97080 -0.57000
O 	O 	0.13150 0.45520 0.92892 -0.59200
O 	O 	0.99770 0.38640 0.93039 -0.40200
O 	O 	0.17860 0.36370 0.82890 -0.38200
O 	O 	0.17680 0.49820 0.84806 -0.44500
O 	O 	0.51180 0.42450 0.04870 -0.59500
C 	C 	0.29220 0.18370 0.00840 -0.21400
C 	C 	0.26270 0.10380 0.00310 0.12200
H 	H 	0.28480 0.05050 0.01000 -0.03600
C 	C 	0.19640 0.09460 0.98670 -0.18100
H 	H 	0.17100 0.03610 0.98340 0.06100
C 	C 	0.16790 0.17900 0.97500 0.08500
C 	C 	0.20750 0.26370 0.98120 -0.21300
C 	C 	0.27210 0.26720 0.99640 0.12300
H 	H 	0.30380 0.32300 0.99930 0.00800
C 	C 	0.10360 0.16430 0.95710 0.02300
C 	C 	0.02010 0.12160 0.95900 -0.20300
H 	H 	0.00150 0.09920 0.97220 0.05300
C 	C 	0.96150 0.11000 0.94210 0.09200
H 	H 	0.90680 0.07470 0.94350 -0.01400
C 	C 	0.98300 0.14950 0.92360 -0.01500
H 	H 	0.94140 0.14190 0.91240 0.03700
C 	C 	0.06420 0.20160 0.92050 -0.07200
C 	C 	0.11780 0.20830 0.93750 -0.06400
H 	H 	0.17080 0.24640 0.93640 0.05600
C 	C 	0.08450 0.25240 0.90160 0.09300
C 	C 	0.09970 0.20610 0.88110 -0.17000
H 	H 	0.09360 0.14130 0.87960 0.05800
C 	C 	0.12270 0.26100 0.86480 0.07700
H 	H 	0.13050 0.23100 0.85190 -0.00200
C 	C 	0.13570 0.35430 0.86500 -0.14700
C 	C 	0.12220 0.40080 0.88390 0.08200
H 	H 	0.13220 0.46530 0.88500 -0.00000
C 	C 	0.09280 0.34730 0.90150 -0.18000
C 	C 	0.36830 0.19740 0.02540 0.41200
C 	C 	0.18130 0.35800 0.97100 0.54300
C 	C 	0.07190 0.40100 0.92230 0.42000
C 	C 	0.15910 0.40600 0.84600 0.29200
Eu	Eu	0.01920 0.22204 0.56174 1.68800
O 	O 	0.09100 0.37410 0.53440 -0.59000
O 	O 	0.11660 0.21890 0.53320 -0.49900
O 	O 	0.25550 0.09500 0.46480 -0.57500
O 	O 	0.40490 0.12260 0.47080 -0.56400
O 	O 	0.36850 0.04480 0.42892 -0.67600
O 	O 	0.50230 0.11360 0.43039 -0.51800
O 	O 	0.32140 0.13630 0.32890 -0.40200
O 	O 	0.32320 0.00180 0.34806 -0.49900
O 	O 	0.98820 0.07550 0.54870 -0.42600
C 	C 	0.20780 0.31630 0.50840 -0.22700
C 	C 	0.23730 0.39620 0.50310 0.14400
H 	H 	0.21520 0.44950 0.51000 -0.02500
C 	C 	0.30360 0.40540 0.48670 -0.19800
H 	H 	0.32900 0.46390 0.48340 0.09400
C 	C 	0.33210 0.32100 0.47500 0.12700
C 	C 	0.29250 0.23630 0.48120 -0.23600
C 	C 	0.22790 0.23280 0.49640 0.14300
H 	H 	0.19620 0.17700 0.49930 -0.01200
C 	C 	0.39640 0.33570 0.45710 -0.03100
C 	C 	0.47990 0.37840 0.45900 -0.03500
H 	H 	0.49850 0.40080 0.47220 0.03900
C 	C 	0.53850 0.39000 0.44210 -0.04400
H 	H 	0.59320 0.42530 0.44350 0.04400
C 	C 	0.51700 0.35050 0.42360 -0.03400
H 	H 	0.55860 0.35810 0.41240 0.03500
C 	C 	0.43580 0.29840 0.42050 -0.03000
C 	C 	0.38220 0.29170 0.43750 -0.02900
H 	H 	0.32920 0.25360 0.43640 0.04400
C 	C 	0.41550 0.24760 0.40160 0.12100
C 	C 	0.40030 0.29390 0.38110 -0.18100
H 	H 	0.40640 0.35870 0.37960 0.08700
C 	C 	0.37730 0.23900 0.36480 0.10400
H 	H 	0.36950 0.26900 0.35190 0.00400
C 	C 	0.36430 0.14570 0.36500 -0.16700
C 	C 	0.37780 0.09920 0.38390 0.11900
H 	H 	0.36780 0.03470 0.38500 -0.02400
C 	C 	0.40720 0.15270 0.40150 -0.22100
C 	C 	0.13170 0.30260 0.52540 0.41000
C 	C 	0.31870 0.14200 0.47100 0.56200
C 	C 	0.42810 0.09900 0.42230 0.54500
C 	C 	0.34090 0.09400 0.34600 0.30800
Eu	Eu	0.51920 0.72204 0.06174 1.97900
O 	O 	0.59100 0.87410 0.03440 -0.56400
O 	O 	0.61660 0.71890 0.03320 -0.49700
O 	O 	0.75550 0.59500 0.96480 -0.51500
O 	O 	0.90490 0.62260 0.97080 -0.51300
O 	O 	0.86850 0.54480 0.92892 -0.63800
O 	O 	0.00230 0.61360 0.93039 -0.58800
O 	O 	0.82140 0.63630 0.82890 -0.36600
O 	O 	0.82320 0.50180 0.84806 -0.43100
O 	O 	0.48820 0.57550 0.04870 -0.59900
C 	C 	0.70780 0.81630 0.00840 -0.20400
C 	C 	0.73730 0.89620 0.00310 0.14300
H 	H 	0.71520 0.94950 0.01000 0.00100
C 	C 	0.80360 0.90540 0.98670 -0.18500
H 	H 	0.82900 0.96390 0.98340 0.11900
C 	C 	0.83210 0.82100 0.97500 0.14200
C 	C 	0.79250 0.73630 0.98120 -0.21400
C 	C 	0.72790 0.73280 0.99640 0.13700
H 	H 	0.69620 0.67700 0.99930 0.01000
C 	C 	0.89640 0.83570 0.95710 -0.04800
C 	C 	0.97990 0.87840 0.95900 0.09100
H 	H 	0.99850 0.90080 0.97220 0.03700
C 	C 	0.03850 0.89000 0.94210 -0.13800
H 	H 	0.09320 0.92530 0.94350 0.08200
C 	C 	0.01700 0.85050 0.92360 -0.08700
H 	H 	0.05860 0.85810 0.91240 0.04400
C 	C 	0.93580 0.79840 0.92050 0.04700
C 	C 	0.88220 0.79170 0.93750 -0.02900
H 	H 	0.82920 0.75360 0.93640 0.04900
C 	C 	0.91550 0.74760 0.90160 0.11400
C 	C 	0.90030 0.79390 0.88110 -0.15500
H 	H 	0.90640 0.85870 0.87960 0.10500
C 	C 	0.87730 0.73900 0.86480 0.09600
H 	H 	0.86950 0.76900 0.85190 0.02300
C 	C 	0.86430 0.64570 0.86500 -0.14300
C 	C 	0.87780 0.59920 0.88390 0.12000
H 	H 	0.86780 0.53470 0.88500 0.00200
C 	C 	0.90720 0.65270 0.90150 -0.21000
C 	C 	0.63170 0.80260 0.02540 0.41600
C 	C 	0.81870 0.64200 0.97100 0.54000
C 	C 	0.92810 0.59900 0.92230 0.62800
C 	C 	0.84090 0.59400 0.84600 0.30600
Eu	Eu	0.27796 0.98080 0.31174 2.18500
O 	O 	0.12590 0.90900 0.28440 -0.54400
O 	O 	0.28110 0.88340 0.28320 -0.50300
O 	O 	0.40500 0.74450 0.21480 -0.52300
O 	O 	0.37740 0.59510 0.22080 -0.56800
O 	O 	0.45520 0.63150 0.17892 -0.62800
O 	O 	0.38640 0.49770 0.18039 -0.51600
O 	O 	0.36370 0.67860 0.07890 -0.37900
O 	O 	0.49820 0.67680 0.09806 -0.43800
O 	O 	0.42450 0.01180 0.29870 -0.61400
C 	C 	0.18370 0.79220 0.25840 -0.20300
C 	C 	0.10380 0.76270 0.25310 0.12700
H 	H 	0.05050 0.78480 0.26000 -0.02900
C 	C 	0.09460 0.69640 0.23670 -0.18300
H 	H 	0.03610 0.67100 0.23340 0.07200
C 	C 	0.17900 0.66790 0.22500 0.11200
C 	C 	0.26370 0.70750 0.23120 -0.21500
C 	C 	0.26720 0.77210 0.24640 0.12900
H 	H 	0.32300 0.80380 0.24930 0.01500
C 	C 	0.16430 0.60360 0.20710 -0.01900
C 	C 	0.12160 0.52010 0.20900 -0.05800
H 	H 	0.09920 0.50150 0.22220 0.03200
C 	C 	0.11000 0.46150 0.19210 -0.03400
H 	H 	0.07470 0.40680 0.19350 0.01500
C 	C 	0.14950 0.48300 0.17360 -0.05600
H 	H 	0.14190 0.44140 0.16240 0.02800
C 	C 	0.20160 0.56420 0.17050 -0.01500
C 	C 	0.20830 0.61780 0.18750 -0.04800
H 	H 	0.24640 0.67080 0.18640 0.05200
C 	C 	0.25240 0.58450 0.15160 0.10100
C 	C 	0.20610 0.59970 0.13110 -0.16300
H 	H 	0.14130 0.59360 0.12960 0.07000
C 	C 	0.26100 0.62270 0.11480 0.08300
H 	H 	0.23100 0.63050 0.10190 0.00500
C 	C 	0.35430 0.63570 0.11500 -0.14600
C 	C 	0.40080 0.62220 0.13390 0.09900
H 	H 	0.46530 0.63220 0.13500 0.00200
C 	C 	0.34730 0.59280 0.15150 -0.19600
C 	C 	0.19740 0.86830 0.27540 0.40900
C 	C 	0.35800 0.68130 0.22100 0.55100
C 	C 	0.40100 0.57190 0.17230 0.53000
C 	C 	0.40600 0.65910 0.09600 0.29600
Eu	Eu	0.77796 0.48080 0.81174 1.96800
O 	O 	0.62590 0.40900 0.78440 -0.60500
O 	O 	0.78110 0.38340 0.78320 -0.49500
O 	O 	0.90500 0.24450 0.71480 -0.45900
O 	O 	0.87740 0.09510 0.72080 -0.51300
O 	O 	0.95520 0.13150 0.67892 -0.51400
O 	O 	0.88640 0.99770 0.68039 -0.36400
O 	O 	0.86370 0.17860 0.57890 -0.34900
O 	O 	0.99820 0.17680 0.59806 -0.38300
O 	O 	0.92450 0.51180 0.79870 -0.50300
C 	C 	0.68370 0.29220 0.75840 -0.19900
C 	C 	0.60380 0.26270 0.75310 0.11600
H 	H 	0.55050 0.28480 0.76000 -0.01500
C 	C 	0.59460 0.19640 0.73670 -0.16500
H 	H 	0.53610 0.17100 0.73340 0.07800
C 	C 	0.67900 0.16790 0.72500 0.07600
C 	C 	0.76370 0.20750 0.73120 -0.18900
C 	C 	0.76720 0.27210 0.74640 0.11100
H 	H 	0.82300 0.30380 0.74930 0.02400
C 	C 	0.66430 0.10360 0.70710 0.04400
C 	C 	0.62160 0.02010 0.70900 -0.20700
H 	H 	0.59920 0.00150 0.72220 0.07000
C 	C 	0.61000 0.96150 0.69210 0.11100
H 	H 	0.57470 0.90680 0.69350 -0.00200
C 	C 	0.64950 0.98300 0.67360 -0.03300
H 	H 	0.64190 0.94140 0.66240 0.05400
C 	C 	0.70160 0.06420 0.67050 -0.04300
C 	C 	0.70830 0.11780 0.68750 -0.08000
H 	H 	0.74640 0.17080 0.68640 0.06600
C 	C 	0.75240 0.08450 0.65160 0.07700
C 	C 	0.70610 0.09970 0.63110 -0.15000
H 	H 	0.64130 0.09360 0.62960 0.06400
C 	C 	0.76100 0.12270 0.61480 0.06300
H 	H 	0.73100 0.13050 0.60190 0.01100
C 	C 	0.85430 0.13570 0.61500 -0.12400
C 	C 	0.90080 0.12220 0.63390 0.06600
H 	H 	0.96530 0.13220 0.63500 0.02500
C 	C 	0.84730 0.09280 0.65150 -0.15200
C 	C 	0.69740 0.36830 0.77540 0.41800
C 	C 	0.85800 0.18130 0.72100 0.51200
C 	C 	0.90100 0.07190 0.67230 0.40000
C 	C 	0.90600 0.15910 0.59600 0.28600
Eu	Eu	0.72204 0.01920 0.31174 1.73100
O 	O 	0.87410 0.09100 0.28440 -0.54600
O 	O 	0.71890 0.11660 0.28320 -0.48800
O 	O 	0.59500 0.25550 0.21480 -0.52500
O 	O 	0.62260 0.40490 0.22080 -0.56800
O 	O 	0.54480 0.36850 0.17892 -0.62400
O 	O 	0.61360 0.50230 0.18039 -0.51300
O 	O 	0.63630 0.32140 0.07890 -0.37200
O 	O 	0.50180 0.32320 0.09806 -0.44300
O 	O 	0.57550 0.98820 0.29870 -0.45800
C 	C 	0.81630 0.20780 0.25840 -0.19900
C 	C 	0.89620 0.23730 0.25310 0.12600
H 	H 	0.94950 0.21520 0.26000 0.00600
C 	C 	0.90540 0.30360 0.23670 -0.17600
H 	H 	0.96390 0.32900 0.23340 0.10800
C 	C 	0.82100 0.33210 0.22500 0.11700
C 	C 	0.73630 0.29250 0.23120 -0.21700
C 	C 	0.73280 0.22790 0.24640 0.12700
H 	H 	0.67700 0.19620 0.24930 0.00400
C 	C 	0.83570 0.39640 0.20710 -0.01000
C 	C 	0.87840 0.47990 0.20900 -0.04500
H 	H 	0.90080 0.49850 0.22220 0.05600
C 	C 	0.89000 0.53850 0.19210 -0.02100
H 	H 	0.92530 0.59320 0.19350 0.05500
C 	C 	0.85050 0.51700 0.17360 -0.04600
H 	H 	0.85810 0.55860 0.16240 0.05100
C 	C 	0.79840 0.43580 0.17050 -0.00900
C 	C 	0.79170 0.38220 0.18750 -0.04300
H 	H 	0.75360 0.32920 0.18640 0.05200
C 	C 	0.74760 0.41550 0.15160 0.10800
C 	C 	0.79390 0.40030 0.13110 -0.16400
H 	H 	0.85870 0.40640 0.12960 0.09400
C 	C 	0.73900 0.37730 0.11480 0.09100
H 	H 	0.76900 0.36950 0.10190 0.01500
C 	C 	0.64570 0.36430 0.11500 -0.14700
C 	C 	0.59920 0.37780 0.13390 0.10400
H 	H 	0.53470 0.36780 0.13500 -0.00200
C 	C 	0.65270 0.40720 0.15150 -0.19700
C 	C 	0.80260 0.13170 0.27540 0.39700
C 	C 	0.64200 0.31870 0.22100 0.55100
C 	C 	0.59900 0.42810 0.17230 0.52700
C 	C 	0.59400 0.34090 0.09600 0.30000
Eu	Eu	0.22204 0.51920 0.81174 1.94100
O 	O 	0.37410 0.59100 0.78440 -0.60700
O 	O 	0.21890 0.61660 0.78320 -0.50800
O 	O 	0.09500 0.75550 0.71480 -0.56400
O 	O 	0.12260 0.90490 0.72080 -0.50900
O 	O 	0.04480 0.86850 0.67892 -0.68800
O 	O 	0.11360 0.00230 0.68039 -0.59400
O 	O 	0.13630 0.82140 0.57890 -0.39400
O 	O 	0.00180 0.82320 0.59806 -0.48500
O 	O 	0.07550 0.48820 0.79870 -0.57000
C 	C 	0.31630 0.70780 0.75840 -0.23200
C 	C 	0.39620 0.73730 0.75310 0.16100
H 	H 	0.44950 0.71520 0.76000 -0.02900
C 	C 	0.40540 0.80360 0.73670 -0.20700
H 	H 	0.46390 0.82900 0.73340 0.10500
C 	C 	0.32100 0.83210 0.72500 0.15300
C 	C 	0.23630 0.79250 0.73120 -0.23300
C 	C 	0.23280 0.72790 0.74640 0.15300
H 	H 	0.17700 0.69620 0.74930 -0.00600
C 	C 	0.33570 0.89640 0.70710 -0.07000
C 	C 	0.37840 0.97990 0.70900 0.10500
H 	H 	0.40080 0.99850 0.72220 0.01900
C 	C 	0.39000 0.03850 0.69210 -0.16400
H 	H 	0.42530 0.09320 0.69350 0.07100
C 	C 	0.35050 0.01700 0.67360 -0.07500
H 	H 	0.35810 0.05860 0.66240 0.02800
C 	C 	0.29840 0.93580 0.67050 0.02600
C 	C 	0.29170 0.88220 0.68750 -0.01400
H 	H 	0.25360 0.82920 0.68640 0.04100
C 	C 	0.24760 0.91550 0.65160 0.12700
C 	C 	0.29390 0.90030 0.63110 -0.17200
H 	H 	0.35870 0.90640 0.62960 0.09900
C 	C 	0.23900 0.87730 0.61480 0.10900
H 	H 	0.26900 0.86950 0.60190 0.01200
C 	C 	0.14570 0.86430 0.61500 -0.16300
C 	C 	0.09920 0.87780 0.63390 0.13400
H 	H 	0.03470 0.86780 0.63500 -0.02000
C 	C 	0.15270 0.90720 0.65150 -0.23300
C 	C 	0.30260 0.63170 0.77540 0.42900
C 	C 	0.14200 0.81870 0.72100 0.55100
C 	C 	0.09900 0.92810 0.67230 0.64600
C 	C 	0.09400 0.84090 0.59600 0.31400
Eu	Eu	0.51920 0.77796 0.18826 1.97700
O 	O 	0.59100 0.62590 0.21560 -0.60500
O 	O 	0.61660 0.78110 0.21680 -0.49100
O 	O 	0.75550 0.90500 0.28520 -0.45800
O 	O 	0.90490 0.87740 0.27920 -0.46100
O 	O 	0.86850 0.95520 0.32108 -0.56000
O 	O 	0.00230 0.88640 0.31961 -0.53900
O 	O 	0.82140 0.86370 0.42110 -0.34000
O 	O 	0.82320 0.99820 0.40194 -0.37000
O 	O 	0.48820 0.92450 0.20130 -0.50400
C 	C 	0.70780 0.68370 0.24160 -0.20800
C 	C 	0.73730 0.60380 0.24690 0.13900
H 	H 	0.71520 0.55050 0.24000 -0.02100
C 	C 	0.80360 0.59460 0.26330 -0.18700
H 	H 	0.82900 0.53610 0.26660 0.09800
C 	C 	0.83210 0.67900 0.27500 0.13000
C 	C 	0.79250 0.76370 0.26880 -0.19800
C 	C 	0.72790 0.76720 0.25360 0.12800
H 	H 	0.69620 0.82300 0.25070 0.02200
C 	C 	0.89640 0.66430 0.29290 -0.04200
C 	C 	0.97990 0.62160 0.29100 0.07500
H 	H 	0.99850 0.59920 0.27780 0.02900
C 	C 	0.03850 0.61000 0.30790 -0.13300
H 	H 	0.09320 0.57470 0.30650 0.06000
C 	C 	0.01700 0.64950 0.32640 -0.10400
H 	H 	0.05860 0.64190 0.33760 0.04100
C 	C 	0.93580 0.70160 0.32950 0.05800
C 	C 	0.88220 0.70830 0.31250 -0.04500
H 	H 	0.82920 0.74640 0.31360 0.05500
C 	C 	0.91550 0.75240 0.34840 0.09200
C 	C 	0.90030 0.70610 0.36890 -0.13600
H 	H 	0.90640 0.64130 0.37040 0.08600
C 	C 	0.87730 0.76100 0.38520 0.07500
H 	H 	0.86950 0.73100 0.39810 0.02500
C 	C 	0.86430 0.85430 0.38500 -0.12000
C 	C 	0.87780 0.90080 0.36610 0.09900
H 	H 	0.86780 0.96530 0.36500 0.02800
C 	C 	0.90720 0.84730 0.34850 -0.17900
C 	C 	0.63170 0.69740 0.22460 0.42400
C 	C 	0.81870 0.85800 0.27900 0.51300
C 	C 	0.92810 0.90100 0.32770 0.59500
C 	C 	0.84090 0.90600 0.40400 0.29800
Eu	Eu	0.01920 0.27796 0.68826 1.70000
O 	O 	0.09100 0.12590 0.71560 -0.57400
O 	O 	0.11660 0.28110 0.71680 -0.48800
O 	O 	0.25550 0.40500 0.78520 -0.52900
O 	O 	0.40490 0.37740 0.77920 -0.56900
O 	O 	0.36850 0.45520 0.82108 -0.62400
O 	O 	0.50230 0.38640 0.81961 -0.51400
O 	O 	0.32140 0.36370 0.92110 -0.37700
O 	O 	0.32320 0.49820 0.90194 -0.44000
O 	O 	0.98820 0.42450 0.70130 -0.45300
C 	C 	0.20780 0.18370 0.74160 -0.21600
C 	C 	0.23730 0.10380 0.74690 0.12900
H 	H 	0.21520 0.05050 0.74000 -0.03800
C 	C 	0.30360 0.09460 0.76330 -0.19300
H 	H 	0.32900 0.03610 0.76660 0.07100
C 	C 	0.33210 0.17900 0.77500 0.11400
C 	C 	0.29250 0.26370 0.76880 -0.22300
C 	C 	0.22790 0.26720 0.75360 0.13000
H 	H 	0.19620 0.32300 0.75070 0.00100
C 	C 	0.39640 0.16430 0.79290 -0.02600
C 	C 	0.47990 0.12160 0.79100 -0.05200
H 	H 	0.49850 0.09920 0.77780 0.03100
C 	C 	0.53850 0.11000 0.80790 -0.03900
H 	H 	0.59320 0.07470 0.80650 0.02300
C 	C 	0.51700 0.14950 0.82640 -0.05200
H 	H 	0.55860 0.14190 0.83760 0.03200
C 	C 	0.43580 0.20160 0.82950 -0.01900
C 	C 	0.38220 0.20830 0.81250 -0.04500
H 	H 	0.32920 0.24640 0.81360 0.04800
C 	C 	0.41550 0.25240 0.84840 0.10200
C 	C 	0.40030 0.20610 0.86890 -0.16400
H 	H 	0.40640 0.14130 0.87040 0.06900
C 	C 	0.37730 0.26100 0.88520 0.08500
H 	H 	0.36950 0.23100 0.89810 0.00400
C 	C 	0.36430 0.35430 0.88500 -0.14700
C 	C 	0.37780 0.40080 0.86610 0.10100
H 	H 	0.36780 0.46530 0.86500 0.00000
C 	C 	0.40720 0.34730 0.84850 -0.19500
C 	C 	0.13170 0.19740 0.72460 0.39800
C 	C 	0.31870 0.35800 0.77900 0.55200
C 	C 	0.42810 0.40100 0.82770 0.52800
C 	C 	0.34090 0.40600 0.90400 0.29800
Eu	Eu	0.48080 0.22204 0.18826 1.93000
O 	O 	0.40900 0.37410 0.21560 -0.60700
O 	O 	0.38340 0.21890 0.21680 -0.51200
O 	O 	0.24450 0.09500 0.28520 -0.56800
O 	O 	0.09510 0.12260 0.27920 -0.56600
O 	O 	0.13150 0.04480 0.32108 -0.64500
O 	O 	0.99770 0.11360 0.31961 -0.40700
O 	O 	0.17860 0.13630 0.42110 -0.40600
O 	O 	0.17680 0.00180 0.40194 -0.50400
O 	O 	0.51180 0.07550 0.20130 -0.56900
C 	C 	0.29220 0.31630 0.24160 -0.22500
C 	C 	0.26270 0.39620 0.24690 0.13800
H 	H 	0.28480 0.44950 0.24000 -0.02300
C 	C 	0.19640 0.40540 0.26330 -0.18700
H 	H 	0.17100 0.46390 0.26660 0.08500
C 	C 	0.16790 0.32100 0.27500 0.10000
C 	C 	0.20750 0.23630 0.26880 -0.22600
C 	C 	0.27210 0.23280 0.25360 0.13600
H 	H 	0.30380 0.17700 0.25070 -0.00500
C 	C 	0.10360 0.33570 0.29290 0.01600
C 	C 	0.02010 0.37840 0.29100 -0.18000
H 	H 	0.00150 0.40080 0.27780 0.06000
C 	C 	0.96150 0.39000 0.30790 0.08200
H 	H 	0.90680 0.42530 0.30650 0.00800
C 	C 	0.98300 0.35050 0.32640 0.00200
H 	H 	0.94140 0.35810 0.33760 0.04000
C 	C 	0.06420 0.29840 0.32950 -0.08000
C 	C 	0.11780 0.29170 0.31250 -0.04800
H 	H 	0.17080 0.25360 0.31360 0.05200
C 	C 	0.08450 0.24760 0.34840 0.11200
C 	C 	0.09970 0.29390 0.36890 -0.18700
H 	H 	0.09360 0.35870 0.37040 0.07600
C 	C 	0.12270 0.23900 0.38520 0.09700
H 	H 	0.13050 0.26900 0.39810 -0.00200
C 	C 	0.13570 0.14570 0.38500 -0.16700
C 	C 	0.12220 0.09920 0.36610 0.10000
H 	H 	0.13220 0.03470 0.36500 -0.02400
C 	C 	0.09280 0.15270 0.34850 -0.20500
C 	C 	0.36830 0.30260 0.22460 0.42400
C 	C 	0.18130 0.14200 0.27900 0.55300
C 	C 	0.07190 0.09900 0.32770 0.44000
C 	C 	0.15910 0.09400 0.40400 0.30200
Eu	Eu	0.98080 0.72204 0.68826 2.20200
O 	O 	0.90900 0.87410 0.71560 -0.51900
O 	O 	0.88340 0.71890 0.71680 -0.50100
O 	O 	0.74450 0.59500 0.78520 -0.52000
O 	O 	0.59510 0.62260 0.77920 -0.56800
O 	O 	0.63150 0.54480 0.82108 -0.62800
O 	O 	0.49770 0.61360 0.81961 -0.51500
O 	O 	0.67860 0.63630 0.92110 -0.37400
O 	O 	0.67680 0.50180 0.90194 -0.44100
O 	O 	0.01180 0.57550 0.70130 -0.61500
C 	C 	0.79220 0.81630 0.74160 -0.18700
C 	C 	0.76270 0.89620 0.74690 0.12500
H 	H 	0.78480 0.94950 0.74000 0.01300
C 	C 	0.69640 0.90540 0.76330 -0.16700
H 	H 	0.67100 0.96390 0.76660 0.10900
C 	C 	0.66790 0.82100 0.77500 0.11600
C 	C 	0.70750 0.73630 0.76880 -0.20900
C 	C 	0.77210 0.73280 0.75360 0.12700
H 	H 	0.80380 0.67700 0.75070 0.01800
C 	C 	0.60360 0.83570 0.79290 -0.00400
C 	C 	0.52010 0.87840 0.79100 -0.05000
H 	H 	0.50150 0.90080 0.77780 0.05700
C 	C 	0.46150 0.89000 0.80790 -0.01700
H 	H 	0.40680 0.92530 0.80650 0.04800
C 	C 	0.48300 0.85050 0.82640 -0.05000
H 	H 	0.44140 0.85810 0.83760 0.04800
C 	C 	0.56420 0.79840 0.82950 -0.00500
C 	C 	0.61780 0.79170 0.81250 -0.04600
H 	H 	0.67080 0.75360 0.81360 0.05700
C 	C 	0.58450 0.74760 0.84840 0.10700
C 	C 	0.59970 0.79390 0.86890 -0.16300
H 	H 	0.59360 0.85870 0.87040 0.09500
C 	C 	0.62270 0.73900 0.88520 0.09000
H 	H 	0.63050 0.76900 0.89810 0.01500
C 	C 	0.63570 0.64570 0.88500 -0.14700
C 	C 	0.62220 0.59920 0.86610 0.10300
H 	H 	0.63220 0.53470 0.86500 -0.00100
C 	C 	0.59280 0.65270 0.84850 -0.19800
C 	C 	0.86830 0.80260 0.72460 0.40800
C 	C 	0.68130 0.64200 0.77900 0.55000
C 	C 	0.57190 0.59900 0.82770 0.52900
C 	C 	0.65910 0.59400 0.90400 0.29800
Eu	Eu	0.50000 0.00000 0.45980 1.94600
Eu	Eu	-0.00000 0.50000 0.95980 1.95800
Eu	Eu	0.00000 0.50000 0.54020 1.94600
Eu	Eu	0.50000 0.00000 0.04020 1.95800
Eu	Eu	-0.00000 -0.00000 0.29020 1.76900
Eu	Eu	0.50000 0.50000 0.79020 2.13600
Eu	Eu	0.50000 0.50000 0.20980 2.13600
Eu	Eu	0.00000 0.00000 0.70980 1.76800
C 	C 	0.00000 0.00000 0.44300 0.45600
H 	H 	-0.00000 -0.00000 0.42830 -0.22800
C 	C 	0.50000 0.50000 0.94300 0.75000
H 	H 	0.50000 0.50000 0.92830 -0.27600
C 	C 	0.00000 0.00000 0.55700 0.44200
H 	H 	0.00000 0.00000 0.57170 -0.22400
C 	C 	0.50000 0.50000 0.05700 0.75000
H 	H 	0.50000 0.50000 0.07170 -0.27600
C 	C 	0.50000 0.00000 0.30700 0.59700
H 	H 	0.50000 -0.00000 0.32170 -0.25000
C 	C 	-0.00000 0.50000 0.80700 0.60000
H 	H 	-0.00000 0.50000 0.82170 -0.25000
C 	C 	0.50000 0.00000 0.19300 0.59900
H 	H 	0.50000 0.00000 0.17830 -0.25000
C 	C 	0.00000 0.50000 0.69300 0.59400
H 	H 	-0.00000 0.50000 0.67830 -0.24900
