data_crystal

_cell_length_a 14.18420
_cell_length_b 14.18420
_cell_length_c 63.70900
_cell_angle_alpha 90.00000
_cell_angle_beta  90.00000
_cell_angle_gamma 90.00000

_symmetry_space_group_name_	'P 1'
_symmetry_space_group_name_H-M	'P 1'

loop_
_symmetry_equiv_pos_as_xyz
  x,y,z

loop_
_atom_site_label
_atom_site_type_symbol
_atom_site_fract_x
_atom_site_fract_y
_atom_site_fract_z
_atom_site_charge
Tb	Tb	0.51608 0.27873 0.06209 2.16100
O 	O 	0.12780 0.09210 0.28430 -0.54200
O 	O 	0.28430 0.11500 0.28280 -0.44400
O 	O 	0.61600 0.40000 0.07360 -0.68300
H 	H 	0.63350 0.42350 0.08590 0.06700
H 	H 	0.65530 0.41800 0.06510 0.44800
O 	O 	0.40320 0.25500 0.21480 -0.52400
O 	O 	0.37510 0.40390 0.22040 -0.55700
O 	O 	0.39010 0.50550 0.18059 -0.45600
O 	O 	0.45980 0.36770 0.17910 -0.61900
O 	O 	0.49800 0.32270 0.09830 -0.38200
O 	O 	0.35820 0.31780 0.07910 -0.36100
O 	O 	0.46860 0.43220 0.05150 -0.64100
C 	C 	0.19230 0.20580 0.25880 -0.22500
C 	C 	0.10990 0.23400 0.25400 0.11700
H 	H 	0.05840 0.21070 0.26140 -0.02600
C 	C 	0.09500 0.30200 0.23680 -0.18000
H 	H 	0.03570 0.32570 0.23340 0.07400
C 	C 	0.18290 0.32900 0.22550 0.12400
C 	C 	0.26310 0.29100 0.23100 -0.24300
C 	C 	0.27400 0.22700 0.24770 0.14300
H 	H 	0.33200 0.20000 0.25110 -0.00500
C 	C 	0.16650 0.39910 0.20790 -0.01700
C 	C 	0.11910 0.48220 0.20920 -0.05700
H 	H 	0.09590 0.50070 0.22220 0.03600
C 	C 	0.10400 0.54000 0.19250 -0.03100
H 	H 	0.06610 0.59310 0.19330 0.02500
C 	C 	0.14900 0.51200 0.17390 -0.06500
H 	H 	0.14240 0.55120 0.16240 0.04400
C 	C 	0.20050 0.43600 0.17130 0.00300
C 	C 	0.20520 0.37900 0.18800 -0.06200
H 	H 	0.23640 0.32170 0.18640 0.05100
C 	C 	0.25260 0.41500 0.15160 0.09000
C 	C 	0.19920 0.40300 0.13210 -0.13400
H 	H 	0.13430 0.41080 0.13090 0.06100
C 	C 	0.26000 0.37800 0.11520 0.03700
H 	H 	0.23110 0.36920 0.10220 0.02000
C 	C 	0.34970 0.36500 0.11590 -0.09600
C 	C 	0.39810 0.37990 0.13430 0.06300
H 	H 	0.46310 0.37200 0.13510 0.01900
C 	C 	0.34390 0.40840 0.15230 -0.17400
C 	C 	0.19900 0.13440 0.27530 0.38800
C 	C 	0.35330 0.32070 0.22090 0.55200
C 	C 	0.40290 0.42580 0.17200 0.46300
C 	C 	0.40200 0.33830 0.09640 0.24300
O 	O 	0.65700 0.36600 0.06580 -0.81000
H 	H 	0.69250 0.38450 0.05670 0.21600
H 	H 	0.66400 0.40270 0.07690 0.45600
Tb	Tb	0.01608 0.77873 0.56209 1.95500
O 	O 	0.62780 0.59210 0.78430 -0.56600
O 	O 	0.78430 0.61500 0.78280 -0.44900
O 	O 	0.11600 0.90000 0.57360 -0.66500
H 	H 	0.13350 0.92350 0.58590 0.07100
H 	H 	0.15530 0.91800 0.56510 0.45500
O 	O 	0.90320 0.75500 0.71480 -0.46500
O 	O 	0.87510 0.90390 0.72040 -0.47000
O 	O 	0.89010 0.00550 0.68059 -0.46600
O 	O 	0.95980 0.86770 0.67910 -0.55500
O 	O 	0.99800 0.82270 0.59830 -0.32200
O 	O 	0.85820 0.81780 0.57910 -0.33300
O 	O 	0.96860 0.93220 0.55150 -0.41100
C 	C 	0.69230 0.70580 0.75880 -0.23400
C 	C 	0.60990 0.73400 0.75400 0.14200
H 	H 	0.55840 0.71070 0.76140 -0.02100
C 	C 	0.59500 0.80200 0.73680 -0.19700
H 	H 	0.53570 0.82570 0.73340 0.10200
C 	C 	0.68290 0.82900 0.72550 0.18600
C 	C 	0.76310 0.79100 0.73100 -0.24900
C 	C 	0.77400 0.72700 0.74770 0.16200
H 	H 	0.83200 0.70000 0.75110 0.00700
C 	C 	0.66650 0.89910 0.70790 -0.13800
C 	C 	0.61910 0.98220 0.70920 0.26500
H 	H 	0.59590 0.00070 0.72220 -0.10300
C 	C 	0.60400 0.04000 0.69250 -0.26000
H 	H 	0.56610 0.09310 0.69330 0.11400
C 	C 	0.64900 0.01200 0.67390 -0.01700
H 	H 	0.64240 0.05120 0.66240 0.01900
C 	C 	0.70050 0.93600 0.67130 -0.00400
C 	C 	0.70520 0.87900 0.68800 0.01800
H 	H 	0.73640 0.82170 0.68640 0.03100
C 	C 	0.75260 0.91500 0.65160 0.11500
C 	C 	0.69920 0.90300 0.63210 -0.13100
H 	H 	0.63430 0.91080 0.63090 0.08400
C 	C 	0.76000 0.87800 0.61520 0.04500
H 	H 	0.73110 0.86920 0.60220 0.03200
C 	C 	0.84970 0.86500 0.61590 -0.08600
C 	C 	0.89810 0.87990 0.63430 0.07200
H 	H 	0.96310 0.87200 0.63510 0.04000
C 	C 	0.84390 0.90840 0.65230 -0.17400
C 	C 	0.69900 0.63440 0.77530 0.41400
C 	C 	0.85330 0.82070 0.72090 0.52700
C 	C 	0.90290 0.92580 0.67200 0.51300
C 	C 	0.90200 0.83830 0.59640 0.24800
O 	O 	0.15700 0.86600 0.56580 -0.80500
H 	H 	0.19250 0.88450 0.55670 0.22200
H 	H 	0.16400 0.90270 0.57690 0.44700
Tb	Tb	0.48392 0.72127 0.06209 2.17600
O 	O 	0.87220 0.90790 0.28430 -0.49300
O 	O 	0.71570 0.88500 0.28280 -0.45300
O 	O 	0.38400 0.60000 0.07360 -0.68600
H 	H 	0.36650 0.57650 0.08590 0.06500
H 	H 	0.34470 0.58200 0.06510 0.44800
O 	O 	0.59680 0.74500 0.21480 -0.51600
O 	O 	0.62490 0.59610 0.22040 -0.55500
O 	O 	0.60990 0.49450 0.18059 -0.45600
O 	O 	0.54020 0.63230 0.17910 -0.62100
O 	O 	0.50200 0.67730 0.09830 -0.38200
O 	O 	0.64180 0.68220 0.07910 -0.35700
O 	O 	0.53140 0.56780 0.05150 -0.64100
C 	C 	0.80770 0.79420 0.25880 -0.20200
C 	C 	0.89010 0.76600 0.25400 0.11200
H 	H 	0.94160 0.78930 0.26140 0.01100
C 	C 	0.90500 0.69800 0.23680 -0.16200
H 	H 	0.96430 0.67430 0.23340 0.10100
C 	C 	0.81710 0.67100 0.22550 0.12700
C 	C 	0.73690 0.70900 0.23100 -0.23200
C 	C 	0.72600 0.77300 0.24770 0.14100
H 	H 	0.66800 0.80000 0.25110 0.00900
C 	C 	0.83350 0.60090 0.20790 -0.00200
C 	C 	0.88090 0.51780 0.20920 -0.05400
H 	H 	0.90410 0.49930 0.22220 0.05700
C 	C 	0.89600 0.46000 0.19250 -0.01400
H 	H 	0.93390 0.40690 0.19330 0.04700
C 	C 	0.85100 0.48800 0.17390 -0.06100
H 	H 	0.85760 0.44880 0.16240 0.05500
C 	C 	0.79950 0.56400 0.17130 0.01200
C 	C 	0.79480 0.62100 0.18800 -0.06000
H 	H 	0.76360 0.67830 0.18640 0.06000
C 	C 	0.74740 0.58500 0.15160 0.09500
C 	C 	0.80080 0.59700 0.13210 -0.13200
H 	H 	0.86570 0.58920 0.13090 0.08200
C 	C 	0.74000 0.62200 0.11520 0.04100
H 	H 	0.76890 0.63080 0.10220 0.02900
C 	C 	0.65030 0.63500 0.11590 -0.09700
C 	C 	0.60190 0.62010 0.13430 0.06400
H 	H 	0.53690 0.62800 0.13510 0.01800
C 	C 	0.65610 0.59160 0.15230 -0.17600
C 	C 	0.80100 0.86560 0.27530 0.39500
C 	C 	0.64670 0.67930 0.22090 0.54900
C 	C 	0.59710 0.57420 0.17200 0.46500
C 	C 	0.59800 0.66170 0.09640 0.24200
O 	O 	0.34300 0.63400 0.06580 -0.80800
H 	H 	0.30750 0.61550 0.05670 0.20800
H 	H 	0.33600 0.59730 0.07690 0.45300
Tb	Tb	0.98392 0.22127 0.56209 2.35400
O 	O 	0.37220 0.40790 0.78430 -0.56500
O 	O 	0.21570 0.38500 0.78280 -0.46100
O 	O 	0.88400 0.10000 0.57360 -0.66100
H 	H 	0.86650 0.07650 0.58590 0.06000
H 	H 	0.84470 0.08200 0.56510 0.44600
O 	O 	0.09680 0.24500 0.71480 -0.55700
O 	O 	0.12490 0.09610 0.72040 -0.55200
O 	O 	0.10990 0.99450 0.68059 -0.37700
O 	O 	0.04020 0.13230 0.67910 -0.64600
O 	O 	0.00200 0.17730 0.59830 -0.43800
O 	O 	0.14180 0.18220 0.57910 -0.38700
O 	O 	0.03140 0.06780 0.55150 -0.59700
C 	C 	0.30770 0.29420 0.75880 -0.21800
C 	C 	0.39010 0.26600 0.75400 0.10600
H 	H 	0.44160 0.28930 0.76140 -0.01100
C 	C 	0.40500 0.19800 0.73680 -0.15400
H 	H 	0.46430 0.17430 0.73340 0.07500
C 	C 	0.31710 0.17100 0.72550 0.06300
C 	C 	0.23690 0.20900 0.73100 -0.21700
C 	C 	0.22600 0.27300 0.74770 0.12900
H 	H 	0.16800 0.30000 0.75110 -0.00400
C 	C 	0.33350 0.10090 0.70790 0.12300
C 	C 	0.38090 0.01780 0.70920 -0.38200
H 	H 	0.40410 0.99930 0.72220 0.19800
C 	C 	0.39600 0.96000 0.69250 0.22100
H 	H 	0.43390 0.90690 0.69330 -0.04500
C 	C 	0.35100 0.98800 0.67390 -0.11000
H 	H 	0.35760 0.94880 0.66240 0.08100
C 	C 	0.29950 0.06400 0.67130 0.02100
C 	C 	0.29480 0.12100 0.68800 -0.14100
H 	H 	0.26360 0.17830 0.68640 0.08200
C 	C 	0.24740 0.08500 0.65160 0.06600
C 	C 	0.30080 0.09700 0.63210 -0.13300
H 	H 	0.36570 0.08920 0.63090 0.05900
C 	C 	0.24000 0.12200 0.61520 0.03100
H 	H 	0.26890 0.13080 0.60220 0.01900
C 	C 	0.15030 0.13500 0.61590 -0.10400
C 	C 	0.10190 0.12010 0.63430 0.05100
H 	H 	0.03690 0.12800 0.63510 -0.00100
C 	C 	0.15610 0.09160 0.65230 -0.17100
C 	C 	0.30100 0.36560 0.77530 0.40400
C 	C 	0.14670 0.17930 0.72090 0.54000
C 	C 	0.09710 0.07420 0.67200 0.39900
C 	C 	0.09800 0.16170 0.59640 0.23800
O 	O 	0.84300 0.13400 0.56580 -0.83400
H 	H 	0.80750 0.11550 0.55670 0.21400
H 	H 	0.83600 0.09730 0.57690 0.45000
Tb	Tb	0.27873 0.48392 0.93791 2.15500
O 	O 	0.09210 0.87220 0.71570 -0.52000
O 	O 	0.11500 0.71570 0.71720 -0.44500
O 	O 	0.40000 0.38400 0.92640 -0.68100
H 	H 	0.42350 0.36650 0.91410 0.06300
H 	H 	0.41800 0.34470 0.93490 0.44700
O 	O 	0.25500 0.59680 0.78520 -0.52200
O 	O 	0.40390 0.62490 0.77960 -0.55600
O 	O 	0.50550 0.60990 0.81941 -0.45500
O 	O 	0.36770 0.54020 0.82090 -0.61900
O 	O 	0.32270 0.50200 0.90170 -0.38300
O 	O 	0.31780 0.64180 0.92090 -0.35700
O 	O 	0.43220 0.53140 0.94850 -0.63900
C 	C 	0.20580 0.80770 0.74120 -0.21200
C 	C 	0.23400 0.89010 0.74600 0.11200
H 	H 	0.21070 0.94160 0.73860 0.00500
C 	C 	0.30200 0.90500 0.76320 -0.17000
H 	H 	0.32570 0.96430 0.76660 0.10000
C 	C 	0.32900 0.81710 0.77450 0.12800
C 	C 	0.29100 0.73690 0.76900 -0.23900
C 	C 	0.22700 0.72600 0.75230 0.14000
H 	H 	0.20000 0.66800 0.74890 -0.00300
C 	C 	0.39910 0.83350 0.79210 -0.00700
C 	C 	0.48220 0.88090 0.79080 -0.05000
H 	H 	0.50070 0.90410 0.77780 0.05600
C 	C 	0.54000 0.89600 0.80750 -0.01700
H 	H 	0.59310 0.93390 0.80670 0.05200
C 	C 	0.51200 0.85100 0.82610 -0.05800
H 	H 	0.55120 0.85760 0.83760 0.05700
C 	C 	0.43600 0.79950 0.82870 0.00900
C 	C 	0.37900 0.79480 0.81200 -0.05700
H 	H 	0.32170 0.76360 0.81360 0.05500
C 	C 	0.41500 0.74740 0.84840 0.09600
C 	C 	0.40300 0.80080 0.86790 -0.13400
H 	H 	0.41080 0.86570 0.86910 0.08100
C 	C 	0.37800 0.74000 0.88480 0.04300
H 	H 	0.36920 0.76890 0.89780 0.02800
C 	C 	0.36500 0.65030 0.88410 -0.09700
C 	C 	0.37990 0.60190 0.86570 0.06600
H 	H 	0.37200 0.53690 0.86490 0.01700
C 	C 	0.40840 0.65610 0.84770 -0.17600
C 	C 	0.13440 0.80100 0.72470 0.38700
C 	C 	0.32070 0.64670 0.77910 0.55100
C 	C 	0.42580 0.59710 0.82800 0.46400
C 	C 	0.33830 0.59800 0.90360 0.24400
O 	O 	0.36600 0.34300 0.93420 -0.81000
H 	H 	0.38450 0.30750 0.94330 0.20800
H 	H 	0.40270 0.33600 0.92310 0.45000
Tb	Tb	0.77873 0.98392 0.43791 2.36000
O 	O 	0.59210 0.37220 0.21570 -0.56800
O 	O 	0.61500 0.21570 0.21720 -0.46100
O 	O 	0.90000 0.88400 0.42640 -0.65300
H 	H 	0.92350 0.86650 0.41410 0.08900
H 	H 	0.91800 0.84470 0.43490 0.47200
O 	O 	0.75500 0.09680 0.28520 -0.55800
O 	O 	0.90390 0.12490 0.27960 -0.51200
O 	O 	0.00550 0.10990 0.31941 -0.51500
O 	O 	0.86770 0.04020 0.32090 -0.67500
O 	O 	0.82270 0.00200 0.40170 -0.42700
O 	O 	0.81780 0.14180 0.42090 -0.37700
O 	O 	0.93220 0.03140 0.44850 -0.52600
C 	C 	0.70580 0.30770 0.24120 -0.25400
C 	C 	0.73400 0.39010 0.24600 0.15700
H 	H 	0.71070 0.44160 0.23860 -0.02700
C 	C 	0.80200 0.40500 0.26320 -0.21200
H 	H 	0.82570 0.46430 0.26660 0.10700
C 	C 	0.82900 0.31710 0.27450 0.20500
C 	C 	0.79100 0.23690 0.26900 -0.27900
C 	C 	0.72700 0.22600 0.25230 0.18200
H 	H 	0.70000 0.16800 0.24890 -0.01800
C 	C 	0.89910 0.33350 0.29210 -0.15900
C 	C 	0.98220 0.38090 0.29080 0.29000
H 	H 	0.00070 0.40410 0.27780 -0.11200
C 	C 	0.04000 0.39600 0.30750 -0.28300
H 	H 	0.09310 0.43390 0.30670 0.12200
C 	C 	0.01200 0.35100 0.32610 0.00500
H 	H 	0.05120 0.35760 0.33760 0.00800
C 	C 	0.93600 0.29950 0.32870 -0.02800
C 	C 	0.87900 0.29480 0.31200 0.04100
H 	H 	0.82170 0.26360 0.31360 0.02100
C 	C 	0.91500 0.24740 0.34840 0.14300
C 	C 	0.90300 0.30080 0.36790 -0.15700
H 	H 	0.91080 0.36570 0.36910 0.09300
C 	C 	0.87800 0.24000 0.38480 0.07000
H 	H 	0.86920 0.26890 0.39780 0.02400
C 	C 	0.86500 0.15030 0.38410 -0.11900
C 	C 	0.87990 0.10190 0.36570 0.10000
H 	H 	0.87200 0.03690 0.36490 -0.00300
C 	C 	0.90840 0.15610 0.34770 -0.22100
C 	C 	0.63440 0.30100 0.22470 0.41900
C 	C 	0.82070 0.14670 0.27910 0.56100
C 	C 	0.92580 0.09710 0.32800 0.55400
C 	C 	0.83830 0.09800 0.40360 0.25700
O 	O 	0.86600 0.84300 0.43420 -0.85500
H 	H 	0.88450 0.80750 0.44330 0.23800
H 	H 	0.90270 0.83600 0.42310 0.44900
Tb	Tb	0.72127 0.51608 0.93791 2.18100
O 	O 	0.90790 0.12780 0.71570 -0.51300
O 	O 	0.88500 0.28430 0.71720 -0.45400
O 	O 	0.60000 0.61600 0.92640 -0.68900
H 	H 	0.57650 0.63350 0.91410 0.06800
H 	H 	0.58200 0.65530 0.93490 0.44800
O 	O 	0.74500 0.40320 0.78520 -0.51800
O 	O 	0.59610 0.37510 0.77960 -0.55600
O 	O 	0.49450 0.39010 0.81941 -0.45700
O 	O 	0.63230 0.45980 0.82090 -0.62100
O 	O 	0.67730 0.49800 0.90170 -0.38000
O 	O 	0.68220 0.35820 0.92090 -0.36100
O 	O 	0.56780 0.46860 0.94850 -0.64200
C 	C 	0.79420 0.19230 0.74120 -0.21400
C 	C 	0.76600 0.10990 0.74600 0.11700
H 	H 	0.78930 0.05840 0.73860 -0.01900
C 	C 	0.69800 0.09500 0.76320 -0.17100
H 	H 	0.67430 0.03570 0.76660 0.07500
C 	C 	0.67100 0.18290 0.77450 0.12300
C 	C 	0.70900 0.26310 0.76900 -0.23500
C 	C 	0.77300 0.27400 0.75230 0.14300
H 	H 	0.80000 0.33200 0.74890 0.00700
C 	C 	0.60090 0.16650 0.79210 -0.01100
C 	C 	0.51780 0.11910 0.79080 -0.06100
H 	H 	0.49930 0.09590 0.77780 0.03700
C 	C 	0.46000 0.10400 0.80750 -0.02700
H 	H 	0.40690 0.06610 0.80670 0.01900
C 	C 	0.48800 0.14900 0.82610 -0.06800
H 	H 	0.44880 0.14240 0.83760 0.04100
C 	C 	0.56400 0.20050 0.82870 0.00700
C 	C 	0.62100 0.20520 0.81200 -0.06400
H 	H 	0.67830 0.23640 0.81360 0.05700
C 	C 	0.58500 0.25260 0.84840 0.08900
C 	C 	0.59700 0.19920 0.86790 -0.13300
H 	H 	0.58920 0.13430 0.86910 0.06200
C 	C 	0.62200 0.26000 0.88480 0.03500
H 	H 	0.63080 0.23110 0.89780 0.02200
C 	C 	0.63500 0.34970 0.88410 -0.09600
C 	C 	0.62010 0.39810 0.86570 0.06100
H 	H 	0.62800 0.46310 0.86490 0.02000
C 	C 	0.59160 0.34390 0.84770 -0.17500
C 	C 	0.86560 0.19900 0.72470 0.39700
C 	C 	0.67930 0.35330 0.77910 0.55000
C 	C 	0.57420 0.40290 0.82800 0.46400
C 	C 	0.66170 0.40200 0.90360 0.24100
O 	O 	0.63400 0.65700 0.93420 -0.80900
H 	H 	0.61550 0.69250 0.94330 0.21600
H 	H 	0.59730 0.66400 0.92310 0.45800
Tb	Tb	0.22127 0.01608 0.43791 1.92600
O 	O 	0.40790 0.62780 0.21570 -0.56300
O 	O 	0.38500 0.78430 0.21720 -0.44800
O 	O 	0.10000 0.11600 0.42640 -0.67500
H 	H 	0.07650 0.13350 0.41410 0.03900
H 	H 	0.08200 0.15530 0.43490 0.42700
O 	O 	0.24500 0.90320 0.28520 -0.46000
O 	O 	0.09610 0.87510 0.27960 -0.50400
O 	O 	0.99450 0.89010 0.31941 -0.33800
O 	O 	0.13230 0.95980 0.32090 -0.52300
O 	O 	0.17730 0.99800 0.40170 -0.32700
O 	O 	0.18220 0.85820 0.42090 -0.34100
O 	O 	0.06780 0.96860 0.44850 -0.46200
C 	C 	0.29420 0.69230 0.24120 -0.19800
C 	C 	0.26600 0.60990 0.24600 0.09100
H 	H 	0.28930 0.55840 0.23860 -0.00500
C 	C 	0.19800 0.59500 0.26320 -0.13900
H 	H 	0.17430 0.53570 0.26660 0.07000
C 	C 	0.17100 0.68290 0.27450 0.04500
C 	C 	0.20900 0.76310 0.26900 -0.18500
C 	C 	0.27300 0.77400 0.25230 0.10800
H 	H 	0.30000 0.83200 0.24890 0.02100
C 	C 	0.10090 0.66650 0.29210 0.14100
C 	C 	0.01780 0.61910 0.29080 -0.39500
H 	H 	0.99930 0.59590 0.27780 0.20200
C 	C 	0.96000 0.60400 0.30750 0.23800
H 	H 	0.90690 0.56610 0.30670 -0.05100
C 	C 	0.98800 0.64900 0.32610 -0.13500
H 	H 	0.94880 0.64240 0.33760 0.09200
C 	C 	0.06400 0.70050 0.32870 0.04900
C 	C 	0.12100 0.70520 0.31200 -0.16300
H 	H 	0.17830 0.73640 0.31360 0.09200
C 	C 	0.08500 0.75260 0.34840 0.03800
C 	C 	0.09700 0.69920 0.36790 -0.10700
H 	H 	0.08920 0.63430 0.36910 0.05000
C 	C 	0.12200 0.76000 0.38480 0.00700
H 	H 	0.13080 0.73110 0.39780 0.02800
C 	C 	0.13500 0.84970 0.38410 -0.07100
C 	C 	0.12010 0.89810 0.36570 0.02500
H 	H 	0.12800 0.96310 0.36490 0.04400
C 	C 	0.09160 0.84390 0.34770 -0.12500
C 	C 	0.36560 0.69900 0.22470 0.39900
C 	C 	0.17930 0.85330 0.27910 0.50400
C 	C 	0.07420 0.90290 0.32800 0.36800
C 	C 	0.16170 0.90200 0.40360 0.23000
O 	O 	0.13400 0.15700 0.43420 -0.78000
H 	H 	0.11550 0.19250 0.44330 0.19600
H 	H 	0.09730 0.16400 0.42310 0.44800
Tb	Tb	0.98392 0.27873 0.68791 2.36400
O 	O 	0.37220 0.09210 0.46570 -0.55300
O 	O 	0.21570 0.11500 0.46720 -0.45300
O 	O 	0.88400 0.40000 0.67640 -0.66500
H 	H 	0.86650 0.42350 0.66410 0.07400
H 	H 	0.84470 0.41800 0.68490 0.45800
O 	O 	0.09680 0.25500 0.53520 -0.56700
O 	O 	0.12490 0.40390 0.52960 -0.55400
O 	O 	0.10990 0.50550 0.56941 -0.46000
O 	O 	0.04020 0.36770 0.57090 -0.66800
O 	O 	0.00200 0.32270 0.65170 -0.43600
O 	O 	0.14180 0.31780 0.67090 -0.38300
O 	O 	0.03140 0.43220 0.69850 -0.63100
C 	C 	0.30770 0.20580 0.49120 -0.23400
C 	C 	0.39010 0.23400 0.49600 0.12600
H 	H 	0.44160 0.21070 0.48860 -0.01700
C 	C 	0.40500 0.30200 0.51320 -0.18400
H 	H 	0.46430 0.32570 0.51660 0.09000
C 	C 	0.31710 0.32900 0.52450 0.13500
C 	C 	0.23690 0.29100 0.51900 -0.25400
C 	C 	0.22600 0.22700 0.50230 0.15300
H 	H 	0.16800 0.20000 0.49890 -0.01700
C 	C 	0.33350 0.39910 0.54210 -0.02100
C 	C 	0.38090 0.48220 0.54080 -0.04400
H 	H 	0.40410 0.50070 0.52780 0.04300
C 	C 	0.39600 0.54000 0.55750 -0.03300
H 	H 	0.43390 0.59310 0.55670 0.04200
C 	C 	0.35100 0.51200 0.57610 -0.05100
H 	H 	0.35760 0.55120 0.58760 0.04500
C 	C 	0.29950 0.43600 0.57870 -0.00600
C 	C 	0.29480 0.37900 0.56200 -0.04900
H 	H 	0.26360 0.32170 0.56360 0.04800
C 	C 	0.24740 0.41500 0.59840 0.10600
C 	C 	0.30080 0.40300 0.61790 -0.14600
H 	H 	0.36570 0.41080 0.61910 0.07500
C 	C 	0.24000 0.37800 0.63480 0.05100
H 	H 	0.26890 0.36920 0.64780 0.02000
C 	C 	0.15030 0.36500 0.63410 -0.11200
C 	C 	0.10190 0.37990 0.61570 0.07700
H 	H 	0.03690 0.37200 0.61490 -0.00300
C 	C 	0.15610 0.40840 0.59770 -0.19700
C 	C 	0.30100 0.13440 0.47470 0.39800
C 	C 	0.14670 0.32070 0.52910 0.56000
C 	C 	0.09710 0.42580 0.57800 0.47800
C 	C 	0.09800 0.33830 0.65360 0.24800
O 	O 	0.84300 0.36600 0.68420 -0.84200
H 	H 	0.80750 0.38450 0.69330 0.22300
H 	H 	0.83600 0.40270 0.67310 0.45100
Tb	Tb	0.48392 0.77873 0.18791 2.16600
O 	O 	0.87220 0.59210 0.96570 -0.53400
O 	O 	0.71570 0.61500 0.96720 -0.45300
O 	O 	0.38400 0.90000 0.17640 -0.66800
H 	H 	0.36650 0.92350 0.16410 0.08000
H 	H 	0.34470 0.91800 0.18490 0.46300
O 	O 	0.59680 0.75500 0.03520 -0.51500
O 	O 	0.62490 0.90390 0.02960 -0.51500
O 	O 	0.60990 0.00550 0.06941 -0.51000
O 	O 	0.54020 0.86770 0.07090 -0.62800
O 	O 	0.50200 0.82270 0.15170 -0.37700
O 	O 	0.64180 0.81780 0.17090 -0.35300
O 	O 	0.53140 0.93220 0.19850 -0.53800
C 	C 	0.80770 0.70580 0.99120 -0.23200
C 	C 	0.89010 0.73400 0.99600 0.14200
H 	H 	0.94160 0.71070 0.98860 -0.00400
C 	C 	0.90500 0.80200 0.01320 -0.19700
H 	H 	0.96430 0.82570 0.01660 0.11600
C 	C 	0.81710 0.82900 0.02450 0.19600
C 	C 	0.73690 0.79100 0.01900 -0.26400
C 	C 	0.72600 0.72700 0.00230 0.16900
H 	H 	0.66800 0.70000 0.99890 -0.00400
C 	C 	0.83350 0.89910 0.04210 -0.14100
C 	C 	0.88090 0.98220 0.04080 0.27400
H 	H 	0.90410 0.00070 0.02780 -0.09500
C 	C 	0.89600 0.04000 0.05750 -0.26000
H 	H 	0.93390 0.09310 0.05670 0.13100
C 	C 	0.85100 0.01200 0.07610 -0.00600
H 	H 	0.85760 0.05120 0.08760 0.02100
C 	C 	0.79950 0.93600 0.07870 -0.01200
C 	C 	0.79480 0.87900 0.06200 0.02900
H 	H 	0.76360 0.82170 0.06360 0.02800
C 	C 	0.74740 0.91500 0.09840 0.13200
C 	C 	0.80080 0.90300 0.11790 -0.14400
H 	H 	0.86570 0.91080 0.11910 0.09800
C 	C 	0.74000 0.87800 0.13480 0.06000
H 	H 	0.76890 0.86920 0.14780 0.03100
C 	C 	0.65030 0.86500 0.13410 -0.10400
C 	C 	0.60190 0.87990 0.11570 0.08900
H 	H 	0.53690 0.87200 0.11490 0.01700
C 	C 	0.65610 0.90840 0.09770 -0.20000
C 	C 	0.80100 0.63440 0.97470 0.40800
C 	C 	0.64670 0.82070 0.02910 0.55200
C 	C 	0.59710 0.92580 0.07800 0.53900
C 	C 	0.59800 0.83830 0.15360 0.25300
O 	O 	0.34300 0.86600 0.18420 -0.82700
H 	H 	0.30750 0.88450 0.19330 0.22400
H 	H 	0.33600 0.90270 0.17310 0.44800
Tb	Tb	0.01608 0.72127 0.68791 1.96000
O 	O 	0.62780 0.90790 0.46570 -0.52300
O 	O 	0.78430 0.88500 0.46720 -0.45000
O 	O 	0.11600 0.60000 0.67640 -0.68300
H 	H 	0.13350 0.57650 0.66410 0.05700
H 	H 	0.15530 0.58200 0.68490 0.43900
O 	O 	0.90320 0.74500 0.53520 -0.46700
O 	O 	0.87510 0.59610 0.52960 -0.50800
O 	O 	0.89010 0.49450 0.56941 -0.41600
O 	O 	0.95980 0.63230 0.57090 -0.54900
O 	O 	0.99800 0.67730 0.65170 -0.32500
O 	O 	0.85820 0.68220 0.67090 -0.33700
O 	O 	0.96860 0.56780 0.69850 -0.50400
C 	C 	0.69230 0.79420 0.49120 -0.20400
C 	C 	0.60990 0.76600 0.49600 0.11100
H 	H 	0.55840 0.78930 0.48860 -0.00500
C 	C 	0.59500 0.69800 0.51320 -0.16100
H 	H 	0.53570 0.67430 0.51660 0.08600
C 	C 	0.68290 0.67100 0.52450 0.11500
C 	C 	0.76310 0.70900 0.51900 -0.21600
C 	C 	0.77400 0.77300 0.50230 0.13300
H 	H 	0.83200 0.80000 0.49890 0.01900
C 	C 	0.66650 0.60090 0.54210 0.00400
C 	C 	0.61910 0.51780 0.54080 -0.06800
H 	H 	0.59590 0.49930 0.52780 0.05000
C 	C 	0.60400 0.46000 0.55750 -0.00900
H 	H 	0.56610 0.40690 0.55670 0.02900
C 	C 	0.64900 0.48800 0.57610 -0.07700
H 	H 	0.64240 0.44880 0.58760 0.05400
C 	C 	0.70050 0.56400 0.57870 0.02300
C 	C 	0.70520 0.62100 0.56200 -0.07300
H 	H 	0.73640 0.67830 0.56360 0.06400
C 	C 	0.75260 0.58500 0.59840 0.07700
C 	C 	0.69920 0.59700 0.61790 -0.11900
H 	H 	0.63430 0.58920 0.61910 0.06800
C 	C 	0.76000 0.62200 0.63480 0.02500
H 	H 	0.73110 0.63080 0.64780 0.03000
C 	C 	0.84970 0.63500 0.63410 -0.07900
C 	C 	0.89810 0.62010 0.61570 0.04800
H 	H 	0.96310 0.62800 0.61490 0.04200
C 	C 	0.84390 0.59160 0.59770 -0.15100
C 	C 	0.69900 0.86560 0.47470 0.40100
C 	C 	0.85330 0.67930 0.52910 0.52300
C 	C 	0.90290 0.57420 0.57800 0.44300
C 	C 	0.90200 0.66170 0.65360 0.23800
O 	O 	0.15700 0.63400 0.68420 -0.78600
H 	H 	0.19250 0.61550 0.69330 0.20600
H 	H 	0.16400 0.59730 0.67310 0.45100
Tb	Tb	0.51608 0.22127 0.18791 2.15100
O 	O 	0.12780 0.40790 0.96570 -0.55400
O 	O 	0.28430 0.38500 0.96720 -0.45300
O 	O 	0.61600 0.10000 0.17640 -0.68000
H 	H 	0.63350 0.07650 0.16410 0.05100
H 	H 	0.65530 0.08200 0.18490 0.43500
O 	O 	0.40320 0.24500 0.03520 -0.51400
O 	O 	0.37510 0.09610 0.02960 -0.55500
O 	O 	0.39010 0.99450 0.06941 -0.37200
O 	O 	0.45980 0.13230 0.07090 -0.59600
O 	O 	0.49800 0.17730 0.15170 -0.38400
O 	O 	0.35820 0.18220 0.17090 -0.36600
O 	O 	0.46860 0.06780 0.19850 -0.60400
C 	C 	0.19230 0.29420 0.99120 -0.20800
C 	C 	0.10990 0.26600 0.99600 0.09500
H 	H 	0.05840 0.28930 0.98860 -0.01900
C 	C 	0.09500 0.19800 0.01320 -0.14700
H 	H 	0.03570 0.17430 0.01660 0.05700
C 	C 	0.18290 0.17100 0.02450 0.04800
C 	C 	0.26310 0.20900 0.01900 -0.20400
C 	C 	0.27400 0.27300 0.00230 0.11700
H 	H 	0.33200 0.30000 0.99890 0.00800
C 	C 	0.16650 0.10090 0.04210 0.13500
C 	C 	0.11910 0.01780 0.04080 -0.41300
H 	H 	0.09590 0.99930 0.02780 0.20000
C 	C 	0.10400 0.96000 0.05750 0.23700
H 	H 	0.06610 0.90690 0.05670 -0.06600
C 	C 	0.14900 0.98800 0.07610 -0.12800
H 	H 	0.14240 0.94880 0.08760 0.08100
C 	C 	0.20050 0.06400 0.07870 0.03200
C 	C 	0.20520 0.12100 0.06200 -0.15900
H 	H 	0.23640 0.17830 0.06360 0.08600
C 	C 	0.25260 0.08500 0.09840 0.04800
C 	C 	0.19920 0.09700 0.11790 -0.12100
H 	H 	0.13430 0.08920 0.11910 0.04300
C 	C 	0.26000 0.12200 0.13480 0.01600
H 	H 	0.23110 0.13080 0.14780 0.01900
C 	C 	0.34970 0.13500 0.13410 -0.08800
C 	C 	0.39810 0.12010 0.11570 0.03600
H 	H 	0.46310 0.12800 0.11490 0.02100
C 	C 	0.34390 0.09160 0.09770 -0.14800
C 	C 	0.19900 0.36560 0.97470 0.39500
C 	C 	0.35330 0.17930 0.02910 0.53100
C 	C 	0.40290 0.07420 0.07800 0.38300
C 	C 	0.40200 0.16170 0.15360 0.23300
O 	O 	0.65700 0.13400 0.18420 -0.80300
H 	H 	0.69250 0.11550 0.19330 0.20700
H 	H 	0.66400 0.09730 0.17310 0.45500
Tb	Tb	0.22127 0.48392 0.81209 2.14600
O 	O 	0.40790 0.87220 0.03430 -0.53100
O 	O 	0.38500 0.71570 0.03280 -0.45300
O 	O 	0.10000 0.38400 0.82360 -0.67700
H 	H 	0.07650 0.36650 0.83590 0.04800
H 	H 	0.08200 0.34470 0.81510 0.43500
O 	O 	0.24500 0.59680 0.96480 -0.51200
O 	O 	0.09610 0.62490 0.97040 -0.55400
O 	O 	0.99450 0.60990 0.93059 -0.37200
O 	O 	0.13230 0.54020 0.92910 -0.59700
O 	O 	0.17730 0.50200 0.84830 -0.38600
O 	O 	0.18220 0.64180 0.82910 -0.36200
O 	O 	0.06780 0.53140 0.80150 -0.60200
C 	C 	0.29420 0.80770 0.00880 -0.19600
C 	C 	0.26600 0.89010 0.00400 0.09200
H 	H 	0.28930 0.94160 0.01140 0.01200
C 	C 	0.19800 0.90500 0.98680 -0.14000
H 	H 	0.17430 0.96430 0.98340 0.08600
C 	C 	0.17100 0.81710 0.97550 0.05800
C 	C 	0.20900 0.73690 0.98100 -0.20300
C 	C 	0.27300 0.72600 0.99770 0.11600
H 	H 	0.30000 0.66800 0.00110 0.01000
C 	C 	0.10090 0.83350 0.95790 0.13300
C 	C 	0.01780 0.88090 0.95920 -0.38000
H 	H 	0.99930 0.90410 0.97220 0.20800
C 	C 	0.96000 0.89600 0.94250 0.23100
H 	H 	0.90690 0.93390 0.94330 -0.03200
C 	C 	0.98800 0.85100 0.92390 -0.11400
H 	H 	0.94880 0.85760 0.91240 0.09100
C 	C 	0.06400 0.79950 0.92130 0.03400
C 	C 	0.12100 0.79480 0.93800 -0.14700
H 	H 	0.17830 0.76360 0.93640 0.08700
C 	C 	0.08500 0.74740 0.90160 0.05700
C 	C 	0.09700 0.80080 0.88210 -0.12100
H 	H 	0.08920 0.86570 0.88090 0.06500
C 	C 	0.12200 0.74000 0.86520 0.02200
H 	H 	0.13080 0.76890 0.85220 0.02700
C 	C 	0.13500 0.65030 0.86590 -0.08900
C 	C 	0.12010 0.60190 0.88430 0.04100
H 	H 	0.12800 0.53690 0.88510 0.01900
C 	C 	0.09160 0.65610 0.90230 -0.15100
C 	C 	0.36560 0.80100 0.02530 0.39300
C 	C 	0.17930 0.64670 0.97090 0.53100
C 	C 	0.07420 0.59710 0.92200 0.38500
C 	C 	0.16170 0.59800 0.84640 0.23400
O 	O 	0.13400 0.34300 0.81580 -0.80200
H 	H 	0.11550 0.30750 0.80670 0.19800
H 	H 	0.09730 0.33600 0.82690 0.44900
Tb	Tb	0.72127 0.98392 0.31209 2.37500
O 	O 	0.90790 0.37220 0.53430 -0.52500
O 	O 	0.88500 0.21570 0.53280 -0.46200
O 	O 	0.60000 0.88400 0.32360 -0.66900
H 	H 	0.57650 0.86650 0.33590 0.07600
H 	H 	0.58200 0.84470 0.31510 0.45800
O 	O 	0.74500 0.09680 0.46480 -0.55800
O 	O 	0.59610 0.12490 0.47040 -0.55300
O 	O 	0.49450 0.10990 0.43059 -0.46100
O 	O 	0.63230 0.04020 0.42910 -0.66800
O 	O 	0.67730 0.00200 0.34830 -0.43300
O 	O 	0.68220 0.14180 0.32910 -0.38100
O 	O 	0.56780 0.03140 0.30150 -0.63000
C 	C 	0.79420 0.30770 0.50880 -0.22300
C 	C 	0.76600 0.39010 0.50400 0.12600
H 	H 	0.78930 0.44160 0.51140 -0.01000
C 	C 	0.69800 0.40500 0.48680 -0.17600
H 	H 	0.67430 0.46430 0.48340 0.09100
C 	C 	0.67100 0.31710 0.47550 0.13300
C 	C 	0.70900 0.23690 0.48100 -0.24600
C 	C 	0.77300 0.22600 0.49770 0.15300
H 	H 	0.80000 0.16800 0.50110 -0.00500
C 	C 	0.60090 0.33350 0.45790 -0.01500
C 	C 	0.51780 0.38090 0.45920 -0.04800
H 	H 	0.49930 0.40410 0.47220 0.04400
C 	C 	0.46000 0.39600 0.44250 -0.03000
H 	H 	0.40690 0.43390 0.44330 0.03600
C 	C 	0.48800 0.35100 0.42390 -0.05400
H 	H 	0.44880 0.35760 0.41240 0.04300
C 	C 	0.56400 0.29950 0.42130 -0.00200
C 	C 	0.62100 0.29480 0.43800 -0.05100
H 	H 	0.67830 0.26360 0.43640 0.05400
C 	C 	0.58500 0.24740 0.40160 0.10400
C 	C 	0.59700 0.30080 0.38210 -0.14500
H 	H 	0.58920 0.36570 0.38090 0.07600
C 	C 	0.62200 0.24000 0.36520 0.04900
H 	H 	0.63080 0.26890 0.35220 0.02100
C 	C 	0.63500 0.15030 0.36590 -0.11100
C 	C 	0.62010 0.10190 0.38430 0.07500
H 	H 	0.62800 0.03690 0.38510 -0.00100
C 	C 	0.59160 0.15610 0.40230 -0.19600
C 	C 	0.86560 0.30100 0.52530 0.40600
C 	C 	0.67930 0.14670 0.47090 0.55700
C 	C 	0.57420 0.09710 0.42200 0.47800
C 	C 	0.66170 0.09800 0.34640 0.24600
O 	O 	0.63400 0.84300 0.31580 -0.83900
H 	H 	0.61550 0.80750 0.30670 0.22300
H 	H 	0.59730 0.83600 0.32690 0.45300
Tb	Tb	0.77873 0.51608 0.81209 2.17000
O 	O 	0.59210 0.12780 0.03430 -0.55600
O 	O 	0.61500 0.28430 0.03280 -0.45400
O 	O 	0.90000 0.61600 0.82360 -0.67100
H 	H 	0.92350 0.63350 0.83590 0.08200
H 	H 	0.91800 0.65530 0.81510 0.46300
O 	O 	0.75500 0.40320 0.96480 -0.51700
O 	O 	0.90390 0.37510 0.97040 -0.51600
O 	O 	0.00550 0.39010 0.93059 -0.51200
O 	O 	0.86770 0.45980 0.92910 -0.62800
O 	O 	0.82270 0.49800 0.84830 -0.37600
O 	O 	0.81780 0.35820 0.82910 -0.35600
O 	O 	0.93220 0.46860 0.80150 -0.53900
C 	C 	0.70580 0.19230 0.00880 -0.24600
C 	C 	0.73400 0.10990 0.00400 0.14900
H 	H 	0.71070 0.05840 0.01140 -0.03600
C 	C 	0.80200 0.09500 0.98680 -0.20900
H 	H 	0.82570 0.03570 0.98340 0.09200
C 	C 	0.82900 0.18290 0.97550 0.19900
C 	C 	0.79100 0.26310 0.98100 -0.27100
C 	C 	0.72700 0.27400 0.99770 0.17400
H 	H 	0.70000 0.33200 0.00110 -0.00700
C 	C 	0.89910 0.16650 0.95790 -0.16200
C 	C 	0.98220 0.11910 0.95920 0.29300
H 	H 	0.00070 0.09590 0.97220 -0.12600
C 	C 	0.04000 0.10400 0.94250 -0.29400
H 	H 	0.09310 0.06610 0.94330 0.10900
C 	C 	0.01200 0.14900 0.92390 -0.00500
H 	H 	0.05120 0.14240 0.91240 0.00400
C 	C 	0.93600 0.20050 0.92130 -0.02200
C 	C 	0.87900 0.20520 0.93800 0.03300
H 	H 	0.82170 0.23640 0.93640 0.02200
C 	C 	0.91500 0.25260 0.90160 0.12900
C 	C 	0.90300 0.19920 0.88210 -0.14600
H 	H 	0.91080 0.13430 0.88090 0.08000
C 	C 	0.87800 0.26000 0.86520 0.05700
H 	H 	0.86920 0.23110 0.85220 0.02400
C 	C 	0.86500 0.34970 0.86590 -0.10400
C 	C 	0.87990 0.39810 0.88430 0.08700
H 	H 	0.87200 0.46310 0.88510 0.01800
C 	C 	0.90840 0.34390 0.90230 -0.20000
C 	C 	0.63440 0.19900 0.02530 0.41000
C 	C 	0.82070 0.35330 0.97090 0.55500
C 	C 	0.92580 0.40290 0.92200 0.54100
C 	C 	0.83830 0.40200 0.84640 0.25200
O 	O 	0.86600 0.65700 0.81580 -0.82600
H 	H 	0.88450 0.69250 0.80670 0.23200
H 	H 	0.90270 0.66400 0.82690 0.45400
Tb	Tb	0.27873 0.01608 0.31209 1.93400
O 	O 	0.09210 0.62780 0.53430 -0.55200
O 	O 	0.11500 0.78430 0.53280 -0.44100
O 	O 	0.40000 0.11600 0.32360 -0.67800
H 	H 	0.42350 0.13350 0.33590 0.05500
H 	H 	0.41800 0.15530 0.31510 0.43900
O 	O 	0.25500 0.90320 0.46480 -0.47100
O 	O 	0.40390 0.87510 0.47040 -0.50800
O 	O 	0.50550 0.89010 0.43059 -0.41400
O 	O 	0.36770 0.95980 0.42910 -0.54500
O 	O 	0.32270 0.99800 0.34830 -0.32500
O 	O 	0.31780 0.85820 0.32910 -0.33600
O 	O 	0.43220 0.96860 0.30150 -0.50100
C 	C 	0.20580 0.69230 0.50880 -0.21400
C 	C 	0.23400 0.60990 0.50400 0.11100
H 	H 	0.21070 0.55840 0.51140 -0.01100
C 	C 	0.30200 0.59500 0.48680 -0.16900
H 	H 	0.32570 0.53570 0.48340 0.08500
C 	C 	0.32900 0.68290 0.47550 0.11600
C 	C 	0.29100 0.76310 0.48100 -0.22300
C 	C 	0.22700 0.77400 0.49770 0.13200
H 	H 	0.20000 0.83200 0.50110 0.00900
C 	C 	0.39910 0.66650 0.45790 -0.00100
C 	C 	0.48220 0.61910 0.45920 -0.06400
H 	H 	0.50070 0.59590 0.47220 0.05000
C 	C 	0.54000 0.60400 0.44250 -0.01200
H 	H 	0.59310 0.56610 0.44330 0.03400
C 	C 	0.51200 0.64900 0.42390 -0.07400
H 	H 	0.55120 0.64240 0.41240 0.05600
C 	C 	0.43600 0.70050 0.42130 0.02000
C 	C 	0.37900 0.70520 0.43800 -0.07200
H 	H 	0.32170 0.73640 0.43640 0.05900
C 	C 	0.41500 0.75260 0.40160 0.07700
C 	C 	0.40300 0.69920 0.38210 -0.12000
H 	H 	0.41080 0.63430 0.38090 0.06600
C 	C 	0.37800 0.76000 0.36520 0.02700
H 	H 	0.36920 0.73110 0.35220 0.02900
C 	C 	0.36500 0.84970 0.36590 -0.07900
C 	C 	0.37990 0.89810 0.38430 0.04900
H 	H 	0.37200 0.96310 0.38510 0.04100
C 	C 	0.40840 0.84390 0.40230 -0.15000
C 	C 	0.13440 0.69900 0.52530 0.39300
C 	C 	0.32070 0.85330 0.47090 0.52400
C 	C 	0.42580 0.90290 0.42200 0.44100
C 	C 	0.33830 0.90200 0.34640 0.23900
O 	O 	0.36600 0.15700 0.31580 -0.78700
H 	H 	0.38450 0.19250 0.30670 0.20600
H 	H 	0.40270 0.16400 0.32690 0.44900
Tb	Tb	0.00000 0.00000 0.29020 1.67100
Tb	Tb	0.50000 0.50000 0.79020 1.97600
Tb	Tb	0.00000 0.00000 0.70980 1.67200
Tb	Tb	0.50000 0.50000 0.20980 1.97600
Tb	Tb	0.50000 -0.00000 0.45980 1.80900
Tb	Tb	0.00000 0.50000 0.95980 1.83800
Tb	Tb	0.50000 0.00000 0.04020 1.83700
Tb	Tb	0.00000 0.50000 0.54020 1.81000
C 	C 	0.50000 0.50000 0.05860 0.92900
H 	H 	0.50000 0.50000 0.07320 -0.26400
C 	C 	-0.00000 -0.00000 0.55860 0.58900
H 	H 	-0.00000 -0.00000 0.57320 -0.20100
C 	C 	0.50000 0.50000 0.94140 0.92900
H 	H 	0.50000 0.50000 0.92680 -0.26400
C 	C 	0.00000 0.00000 0.44140 0.57200
H 	H 	0.00000 0.00000 0.42680 -0.19600
C 	C 	-0.00000 0.50000 0.69140 0.74800
H 	H 	0.00000 0.50000 0.67680 -0.23000
C 	C 	0.50000 0.00000 0.19140 0.75800
H 	H 	0.50000 -0.00000 0.17680 -0.23100
C 	C 	0.00000 0.50000 0.80860 0.75700
H 	H 	-0.00000 0.50000 0.82320 -0.23100
C 	C 	0.50000 -0.00000 0.30860 0.74500
H 	H 	0.50000 -0.00000 0.32320 -0.22900
