data_crystal

_cell_length_a 8.42900
_cell_length_b 8.42900
_cell_length_c 39.66190
_cell_angle_alpha 90.00000
_cell_angle_beta  90.00000
_cell_angle_gamma 120.00000

_symmetry_space_group_name_	'P 1'
_symmetry_space_group_name_H-M	'P 1'

loop_
_symmetry_equiv_pos_as_xyz
  x,y,z

loop_
_atom_site_label
_atom_site_type_symbol
_atom_site_fract_x
_atom_site_fract_y
_atom_site_fract_z
_atom_site_charge
N 	N 	0.77720 0.65393 0.04338 -0.11000
C 	C 	0.86104 0.78345 0.02763 -0.10600
N 	N 	0.44387 0.98726 0.37671 -0.03000
C 	C 	0.52771 0.11678 0.36096 -0.29400
N 	N 	0.11053 0.32060 0.71005 -0.13200
C 	C 	0.19437 0.45012 0.69430 -0.21700
N 	N 	0.34607 0.12327 0.04338 -0.11000
C 	C 	0.21655 0.07759 0.02763 -0.26700
N 	N 	0.01274 0.45660 0.37671 -0.17800
C 	C 	0.88322 0.41092 0.36096 -0.10800
N 	N 	0.67940 0.78994 0.71005 -0.07200
C 	C 	0.54988 0.74426 0.69430 -0.18500
N 	N 	0.87673 0.22280 0.04338 -0.10200
C 	C 	0.92241 0.13896 0.02763 -0.17500
N 	N 	0.54340 0.55613 0.37671 -0.09600
C 	C 	0.58908 0.47229 0.36096 -0.19600
N 	N 	0.21006 0.88947 0.71005 -0.09000
C 	C 	0.25574 0.80563 0.69430 -0.19600
N 	N 	0.65393 0.77720 0.45662 -0.10900
C 	C 	0.78345 0.86104 0.47237 -0.10200
N 	N 	0.32060 0.11053 0.78995 -0.13200
C 	C 	0.45012 0.19437 0.80570 -0.21700
N 	N 	0.98726 0.44387 0.12329 -0.03000
C 	C 	0.11678 0.52771 0.13904 -0.29500
N 	N 	0.12327 0.34607 0.45662 -0.11000
C 	C 	0.07759 0.21655 0.47237 -0.26500
N 	N 	0.78994 0.67940 0.78995 -0.07200
C 	C 	0.74426 0.54988 0.80570 -0.18500
N 	N 	0.45660 0.01274 0.12329 -0.17800
C 	C 	0.41092 0.88322 0.13904 -0.10800
N 	N 	0.22280 0.87673 0.45662 -0.10200
C 	C 	0.13896 0.92241 0.47237 -0.17300
N 	N 	0.88947 0.21006 0.78995 -0.09000
C 	C 	0.80563 0.25574 0.80570 -0.19600
N 	N 	0.55613 0.54340 0.12329 -0.09700
C 	C 	0.47229 0.58908 0.13904 -0.19700
N 	N 	0.22280 0.34607 0.95662 -0.10500
C 	C 	0.13896 0.21655 0.97237 -0.25700
N 	N 	0.88947 0.67940 0.28995 -0.06500
C 	C 	0.80563 0.54988 0.30570 -0.18200
N 	N 	0.55613 0.01274 0.62329 -0.17200
C 	C 	0.47229 0.88322 0.63904 -0.10600
N 	N 	0.65393 0.87673 0.95662 -0.10300
C 	C 	0.78345 0.92241 0.97237 -0.09600
N 	N 	0.32060 0.21006 0.28995 -0.12500
C 	C 	0.45012 0.25574 0.30570 -0.21400
N 	N 	0.98726 0.54340 0.62329 -0.02600
C 	C 	0.11678 0.58908 0.63904 -0.29000
N 	N 	0.12327 0.77720 0.95662 -0.11200
C 	C 	0.07759 0.86104 0.97237 -0.17700
N 	N 	0.78994 0.11053 0.28995 -0.10400
C 	C 	0.74426 0.19437 0.30570 -0.20200
N 	N 	0.45660 0.44387 0.62329 -0.10700
C 	C 	0.41092 0.52771 0.63904 -0.20300
N 	N 	0.34607 0.22280 0.54338 -0.10500
C 	C 	0.21655 0.13896 0.52763 -0.26100
N 	N 	0.01274 0.55613 0.87671 -0.17200
C 	C 	0.88322 0.47229 0.86096 -0.10500
N 	N 	0.67940 0.88947 0.21005 -0.06500
C 	C 	0.54988 0.80563 0.19430 -0.18200
N 	N 	0.87673 0.65393 0.54338 -0.10300
C 	C 	0.92241 0.78345 0.52763 -0.09900
N 	N 	0.54340 0.98726 0.87671 -0.02600
C 	C 	0.58908 0.11678 0.86096 -0.28900
N 	N 	0.21006 0.32060 0.21005 -0.12500
C 	C 	0.25574 0.45012 0.19430 -0.21400
N 	N 	0.77720 0.12327 0.54338 -0.11200
C 	C 	0.86104 0.07759 0.52763 -0.18000
N 	N 	0.44387 0.45660 0.87671 -0.10700
C 	C 	0.52771 0.41092 0.86096 -0.20300
N 	N 	0.11053 0.78994 0.21005 -0.10500
C 	C 	0.19437 0.74426 0.19430 -0.20200
Fe	Fe	-0.00000 0.00000 -0.00000 1.07800
Fe	Fe	0.66667 0.33333 0.33333 1.17400
Fe	Fe	0.33333 0.66667 0.66667 1.17400
Fe	Fe	-0.00000 0.00000 0.50000 1.08100
Fe	Fe	0.66667 0.33333 0.83333 1.17400
Fe	Fe	0.33333 0.66667 0.16667 1.17400
K 	K 	0.66667 0.33333 0.08333 0.64000
K 	K 	0.00000 0.00000 0.75000 0.60400
K 	K 	0.33333 0.66667 0.41667 0.64000
K 	K 	0.33333 0.66667 0.91667 0.64000
K 	K 	-0.00000 0.00000 0.25000 0.60400
K 	K 	0.66667 0.33333 0.58333 0.64000
