data_crystal

_cell_length_a 22.90940
_cell_length_b 22.90940
_cell_length_c 16.33220
_cell_angle_alpha 90.00000
_cell_angle_beta  90.00000
_cell_angle_gamma 90.00000

_symmetry_space_group_name_	'P 1'
_symmetry_space_group_name_H-M	'P 1'

loop_
_symmetry_equiv_pos_as_xyz
  x,y,z

loop_
_atom_site_label
_atom_site_type_symbol
_atom_site_fract_x
_atom_site_fract_y
_atom_site_fract_z
_atom_site_charge
Si	Si	0.22091 0.65497 0.76654 1.31800
N 	N 	0.04733 0.70516 0.78490 -0.29400
C 	C 	0.10510 0.69750 0.79440 0.21200
H 	H 	0.12320 0.71560 0.84010 -0.11400
C 	C 	0.14070 0.66460 0.74180 -0.50900
C 	C 	0.11250 0.64020 0.67410 0.21700
H 	H 	0.13440 0.61840 0.63530 -0.11800
C 	C 	0.05310 0.64750 0.66310 -0.22300
H 	H 	0.03400 0.63060 0.61720 0.05700
C 	C 	0.02200 0.67970 0.72000 0.01900
H 	H 	0.98110 0.68400 0.71270 0.01500
C 	C 	0.22740 0.64830 0.87940 -1.24500
H 	H 	0.26850 0.64310 0.89430 0.33000
H 	H 	0.21220 0.68380 0.90540 0.33800
H 	H 	0.20480 0.61450 0.89820 0.31500
C 	C 	0.24750 0.58780 0.71520 -1.23400
H 	H 	0.28900 0.58220 0.72760 0.30900
H 	H 	0.22520 0.55410 0.73510 0.30500
H 	H 	0.24230 0.59160 0.65590 0.31300
C 	C 	0.26030 0.72120 0.73020 -0.49500
H 	H 	0.25540 0.72430 0.67010 0.10000
H 	H 	0.30250 0.71620 0.74140 0.10800
Si	Si	0.72091 0.15497 0.26654 1.32900
N 	N 	0.54733 0.20516 0.28490 -0.30900
C 	C 	0.60510 0.19750 0.29440 0.22300
H 	H 	0.62320 0.21560 0.34010 -0.11600
C 	C 	0.64070 0.16460 0.24180 -0.52800
C 	C 	0.61250 0.14020 0.17410 0.25500
H 	H 	0.63440 0.11840 0.13530 -0.13000
C 	C 	0.55310 0.14750 0.16310 -0.28700
H 	H 	0.53400 0.13060 0.11720 0.09300
C 	C 	0.52200 0.17970 0.22000 0.13300
H 	H 	0.48110 0.18400 0.21270 -0.05400
C 	C 	0.72740 0.14830 0.37940 -1.25300
H 	H 	0.76850 0.14310 0.39430 0.33200
H 	H 	0.71220 0.18380 0.40540 0.34000
H 	H 	0.70480 0.11450 0.39820 0.31700
C 	C 	0.74750 0.08780 0.21520 -1.24300
H 	H 	0.78900 0.08220 0.22760 0.31400
H 	H 	0.72520 0.05410 0.23510 0.30700
H 	H 	0.74230 0.09160 0.15590 0.31600
C 	C 	0.76030 0.22120 0.23020 -0.49900
H 	H 	0.75540 0.22430 0.17010 0.10200
H 	H 	0.80250 0.21620 0.24140 0.11000
Si	Si	0.27909 0.34503 0.26654 1.32600
N 	N 	0.45267 0.29484 0.28490 -0.30800
C 	C 	0.39490 0.30250 0.29440 0.22300
H 	H 	0.37680 0.28440 0.34010 -0.11600
C 	C 	0.35930 0.33540 0.24180 -0.52700
C 	C 	0.38750 0.35980 0.17410 0.25500
H 	H 	0.36560 0.38160 0.13530 -0.13000
C 	C 	0.44690 0.35250 0.16310 -0.28700
H 	H 	0.46600 0.36940 0.11720 0.09300
C 	C 	0.47800 0.32030 0.22000 0.13300
H 	H 	0.51890 0.31600 0.21270 -0.05400
C 	C 	0.27260 0.35170 0.37940 -1.25100
H 	H 	0.23150 0.35690 0.39430 0.33200
H 	H 	0.28780 0.31620 0.40540 0.34000
H 	H 	0.29520 0.38550 0.39820 0.31700
C 	C 	0.25250 0.41220 0.21520 -1.23800
H 	H 	0.21100 0.41780 0.22760 0.30900
H 	H 	0.27480 0.44590 0.23510 0.30600
H 	H 	0.25770 0.40840 0.15590 0.31400
C 	C 	0.23970 0.27880 0.23020 -0.50000
H 	H 	0.24460 0.27570 0.17010 0.10200
H 	H 	0.19750 0.28380 0.24140 0.10800
Si	Si	0.77909 0.84503 0.76654 1.33800
N 	N 	0.95267 0.79484 0.78490 -0.31800
C 	C 	0.89490 0.80250 0.79440 0.23500
H 	H 	0.87680 0.78440 0.84010 -0.11700
C 	C 	0.85930 0.83540 0.74180 -0.54600
C 	C 	0.88750 0.85980 0.67410 0.29300
H 	H 	0.86560 0.88160 0.63530 -0.14200
C 	C 	0.94690 0.85250 0.66310 -0.35000
H 	H 	0.96600 0.86940 0.61720 0.12900
C 	C 	0.97800 0.82030 0.72000 0.24700
H 	H 	0.01890 0.81600 0.71270 -0.12200
C 	C 	0.77260 0.85170 0.87940 -1.25900
H 	H 	0.73150 0.85690 0.89430 0.33400
H 	H 	0.78780 0.81620 0.90540 0.34200
H 	H 	0.79520 0.88550 0.89820 0.31900
C 	C 	0.75250 0.91220 0.71520 -1.24800
H 	H 	0.71100 0.91780 0.72760 0.31300
H 	H 	0.77480 0.94590 0.73510 0.30800
H 	H 	0.75770 0.90840 0.65590 0.31700
C 	C 	0.73970 0.77880 0.73020 -0.50300
H 	H 	0.74460 0.77570 0.67010 0.10200
H 	H 	0.69750 0.78380 0.74140 0.11000
Si	Si	0.90497 0.97091 0.98346 1.32800
N 	N 	0.95516 0.79733 0.96510 -0.29600
C 	C 	0.94750 0.85510 0.95560 0.22800
H 	H 	0.96560 0.87320 0.90990 -0.10600
C 	C 	0.91460 0.89070 0.00820 -0.52100
C 	C 	0.89020 0.86250 0.07590 0.25600
H 	H 	0.86840 0.88440 0.11470 -0.12800
C 	C 	0.89750 0.80310 0.08690 -0.28400
H 	H 	0.88060 0.78400 0.13280 0.09300
C 	C 	0.92970 0.77200 0.03000 0.13800
H 	H 	0.93400 0.73110 0.03730 -0.04700
C 	C 	0.89830 0.97740 0.87060 -1.25600
H 	H 	0.89310 0.01850 0.85570 0.33600
H 	H 	0.93380 0.96220 0.84460 0.34900
H 	H 	0.86450 0.95480 0.85180 0.31800
C 	C 	0.83780 0.99750 0.03480 -1.24300
H 	H 	0.83220 0.03900 0.02240 0.31300
H 	H 	0.80410 0.97520 0.01490 0.30700
H 	H 	0.84160 0.99230 0.09410 0.31700
C 	C 	0.97120 0.01030 0.01980 -0.45100
H 	H 	0.97430 0.00540 0.07990 0.10500
H 	H 	0.96620 0.05250 0.00860 0.10900
Si	Si	0.40497 0.47091 0.48346 1.32800
N 	N 	0.45516 0.29733 0.46510 -0.30900
C 	C 	0.44750 0.35510 0.45560 0.22300
H 	H 	0.46560 0.37320 0.40990 -0.11600
C 	C 	0.41460 0.39070 0.50820 -0.52800
C 	C 	0.39020 0.36250 0.57590 0.25500
H 	H 	0.36840 0.38440 0.61470 -0.13000
C 	C 	0.39750 0.30310 0.58690 -0.28700
H 	H 	0.38060 0.28400 0.63280 0.09300
C 	C 	0.42970 0.27200 0.53000 0.13300
H 	H 	0.43400 0.23110 0.53730 -0.05400
C 	C 	0.39830 0.47740 0.37060 -1.25200
H 	H 	0.39310 0.51850 0.35570 0.33200
H 	H 	0.43380 0.46220 0.34460 0.34000
H 	H 	0.36450 0.45480 0.35180 0.31700
C 	C 	0.33780 0.49750 0.53480 -1.24100
H 	H 	0.33220 0.53900 0.52240 0.31100
H 	H 	0.30410 0.47520 0.51490 0.30700
H 	H 	0.34160 0.49230 0.59410 0.31500
C 	C 	0.47120 0.51030 0.51980 -0.49900
H 	H 	0.47430 0.50540 0.57990 0.10200
H 	H 	0.46620 0.55250 0.50860 0.10900
Si	Si	0.59503 0.02909 0.48346 1.32700
N 	N 	0.54484 0.20267 0.46510 -0.30800
C 	C 	0.55250 0.14490 0.45560 0.22300
H 	H 	0.53440 0.12680 0.40990 -0.11600
C 	C 	0.58540 0.10930 0.50820 -0.52800
C 	C 	0.60980 0.13750 0.57590 0.25500
H 	H 	0.63160 0.11560 0.61470 -0.13000
C 	C 	0.60250 0.19690 0.58690 -0.28700
H 	H 	0.61940 0.21600 0.63280 0.09300
C 	C 	0.57030 0.22800 0.53000 0.13300
H 	H 	0.56600 0.26890 0.53730 -0.05400
C 	C 	0.60170 0.02260 0.37060 -1.25200
H 	H 	0.60690 0.98150 0.35570 0.33200
H 	H 	0.56620 0.03780 0.34460 0.34000
H 	H 	0.63550 0.04520 0.35180 0.31700
C 	C 	0.66220 0.00250 0.53480 -1.24100
H 	H 	0.66780 0.96100 0.52240 0.31100
H 	H 	0.69590 0.02480 0.51490 0.30600
H 	H 	0.65840 0.00770 0.59410 0.31500
C 	C 	0.52880 0.98970 0.51980 -0.49900
H 	H 	0.52570 0.99460 0.57990 0.10100
H 	H 	0.53380 0.94750 0.50860 0.10900
Si	Si	0.09503 0.52909 0.98346 1.32800
N 	N 	0.04484 0.70267 0.96510 -0.31600
C 	C 	0.05250 0.64490 0.95560 0.21900
H 	H 	0.03440 0.62680 0.90990 -0.12500
C 	C 	0.08540 0.60930 0.00820 -0.53500
C 	C 	0.10980 0.63750 0.07590 0.25400
H 	H 	0.13160 0.61560 0.11470 -0.13200
C 	C 	0.10250 0.69690 0.08690 -0.29000
H 	H 	0.11940 0.71600 0.13280 0.09300
C 	C 	0.07030 0.72800 0.03000 0.12800
H 	H 	0.06600 0.76890 0.03730 -0.06100
C 	C 	0.10170 0.52260 0.87060 -1.24900
H 	H 	0.10690 0.48150 0.85570 0.32800
H 	H 	0.06620 0.53780 0.84460 0.33200
H 	H 	0.13550 0.54520 0.85180 0.31600
C 	C 	0.16220 0.50250 0.03480 -1.24000
H 	H 	0.16780 0.46100 0.02240 0.31000
H 	H 	0.19590 0.52480 0.01490 0.30700
H 	H 	0.15840 0.50770 0.09410 0.31300
C 	C 	0.02880 0.48970 0.01980 -0.54900
H 	H 	0.02570 0.49460 0.07990 0.09800
H 	H 	0.03380 0.44750 0.00860 0.11000
Si	Si	0.77909 0.34503 0.23346 1.33800
N 	N 	0.95267 0.29484 0.21510 -0.31800
C 	C 	0.89490 0.30250 0.20560 0.23500
H 	H 	0.87680 0.28440 0.15990 -0.11800
C 	C 	0.85930 0.33540 0.25820 -0.54600
C 	C 	0.88750 0.35980 0.32590 0.29300
H 	H 	0.86560 0.38160 0.36470 -0.14200
C 	C 	0.94690 0.35250 0.33690 -0.35000
H 	H 	0.96600 0.36940 0.38280 0.12900
C 	C 	0.97800 0.32030 0.28000 0.24700
H 	H 	0.01890 0.31600 0.28730 -0.12300
C 	C 	0.77260 0.35170 0.12060 -1.25900
H 	H 	0.73150 0.35690 0.10570 0.33400
H 	H 	0.78780 0.31620 0.09460 0.34200
H 	H 	0.79520 0.38550 0.10180 0.31900
C 	C 	0.75250 0.41220 0.28480 -1.24800
H 	H 	0.71100 0.41780 0.27240 0.31300
H 	H 	0.77480 0.44590 0.26490 0.30900
H 	H 	0.75770 0.40840 0.34410 0.31700
C 	C 	0.73970 0.27880 0.26980 -0.50300
H 	H 	0.74460 0.27570 0.32990 0.10300
H 	H 	0.69750 0.28380 0.25860 0.11000
Si	Si	0.27909 0.84503 0.73346 1.32600
N 	N 	0.45267 0.79484 0.71510 -0.30800
C 	C 	0.39490 0.80250 0.70560 0.22300
H 	H 	0.37680 0.78440 0.65990 -0.11600
C 	C 	0.35930 0.83540 0.75820 -0.52700
C 	C 	0.38750 0.85980 0.82590 0.25500
H 	H 	0.36560 0.88160 0.86470 -0.13000
C 	C 	0.44690 0.85250 0.83690 -0.28700
H 	H 	0.46600 0.86940 0.88280 0.09300
C 	C 	0.47800 0.82030 0.78000 0.13300
H 	H 	0.51890 0.81600 0.78730 -0.05400
C 	C 	0.27260 0.85170 0.62060 -1.25100
H 	H 	0.23150 0.85690 0.60570 0.33200
H 	H 	0.28780 0.81620 0.59460 0.34000
H 	H 	0.29520 0.88550 0.60180 0.31700
C 	C 	0.25250 0.91220 0.78480 -1.23800
H 	H 	0.21100 0.91780 0.77240 0.30900
H 	H 	0.27480 0.94590 0.76490 0.30600
H 	H 	0.25770 0.90840 0.84410 0.31400
C 	C 	0.23970 0.77880 0.76980 -0.50000
H 	H 	0.24460 0.77570 0.82990 0.10200
H 	H 	0.19750 0.78380 0.75860 0.10800
Si	Si	0.72091 0.65497 0.73346 1.32900
N 	N 	0.54733 0.70516 0.71510 -0.30900
C 	C 	0.60510 0.69750 0.70560 0.22300
H 	H 	0.62320 0.71560 0.65990 -0.11600
C 	C 	0.64070 0.66460 0.75820 -0.52800
C 	C 	0.61250 0.64020 0.82590 0.25500
H 	H 	0.63440 0.61840 0.86470 -0.13000
C 	C 	0.55310 0.64750 0.83690 -0.28700
H 	H 	0.53400 0.63060 0.88280 0.09300
C 	C 	0.52200 0.67970 0.78000 0.13300
H 	H 	0.48110 0.68400 0.78730 -0.05400
C 	C 	0.72740 0.64830 0.62060 -1.25300
H 	H 	0.76850 0.64310 0.60570 0.33200
H 	H 	0.71220 0.68380 0.59460 0.34000
H 	H 	0.70480 0.61450 0.60180 0.31700
C 	C 	0.74750 0.58780 0.78480 -1.24400
H 	H 	0.78900 0.58220 0.77240 0.31400
H 	H 	0.72520 0.55410 0.76490 0.30800
H 	H 	0.74230 0.59160 0.84410 0.31600
C 	C 	0.76030 0.72120 0.76980 -0.49900
H 	H 	0.75540 0.72430 0.82990 0.10200
H 	H 	0.80250 0.71620 0.75860 0.11000
Si	Si	0.22091 0.15497 0.23346 1.31700
N 	N 	0.04733 0.20516 0.21510 -0.29400
C 	C 	0.10510 0.19750 0.20560 0.21200
H 	H 	0.12320 0.21560 0.15990 -0.11400
C 	C 	0.14070 0.16460 0.25820 -0.50900
C 	C 	0.11250 0.14020 0.32590 0.21700
H 	H 	0.13440 0.11840 0.36470 -0.11800
C 	C 	0.05310 0.14750 0.33690 -0.22300
H 	H 	0.03400 0.13060 0.38280 0.05700
C 	C 	0.02200 0.17970 0.28000 0.02000
H 	H 	0.98110 0.18400 0.28730 0.01500
C 	C 	0.22740 0.14830 0.12060 -1.24500
H 	H 	0.26850 0.14310 0.10570 0.33000
H 	H 	0.21220 0.18380 0.09460 0.33800
H 	H 	0.20480 0.11450 0.10180 0.31500
C 	C 	0.24750 0.08780 0.28480 -1.23300
H 	H 	0.28900 0.08220 0.27240 0.30900
H 	H 	0.22520 0.05410 0.26490 0.30500
H 	H 	0.24230 0.09160 0.34410 0.31300
C 	C 	0.26030 0.22120 0.26980 -0.49500
H 	H 	0.25540 0.22430 0.32990 0.10000
H 	H 	0.30250 0.21620 0.25860 0.10800
Si	Si	0.09503 0.02909 0.01654 1.32800
N 	N 	0.04484 0.20267 0.03490 -0.31600
C 	C 	0.05250 0.14490 0.04440 0.21900
H 	H 	0.03440 0.12680 0.09010 -0.12500
C 	C 	0.08540 0.10930 0.99180 -0.53500
C 	C 	0.10980 0.13750 0.92410 0.25400
H 	H 	0.13160 0.11560 0.88530 -0.13200
C 	C 	0.10250 0.19690 0.91310 -0.29000
H 	H 	0.11940 0.21600 0.86720 0.09300
C 	C 	0.07030 0.22800 0.97000 0.12800
H 	H 	0.06600 0.26890 0.96270 -0.06100
C 	C 	0.10170 0.02260 0.12940 -1.24900
H 	H 	0.10690 0.98150 0.14430 0.32800
H 	H 	0.06620 0.03780 0.15540 0.33200
H 	H 	0.13550 0.04520 0.14820 0.31600
C 	C 	0.16220 0.00250 0.96520 -1.24100
H 	H 	0.16780 0.96100 0.97760 0.31000
H 	H 	0.19590 0.02480 0.98510 0.30700
H 	H 	0.15840 0.00770 0.90590 0.31300
C 	C 	0.02880 0.98970 0.98020 -0.54800
H 	H 	0.02570 0.99460 0.92010 0.09800
H 	H 	0.03380 0.94750 0.99140 0.11000
Si	Si	0.59503 0.52909 0.51654 1.32700
N 	N 	0.54484 0.70267 0.53490 -0.30900
C 	C 	0.55250 0.64490 0.54440 0.22300
H 	H 	0.53440 0.62680 0.59010 -0.11600
C 	C 	0.58540 0.60930 0.49180 -0.52800
C 	C 	0.60980 0.63750 0.42410 0.25500
H 	H 	0.63160 0.61560 0.38530 -0.13000
C 	C 	0.60250 0.69690 0.41310 -0.28700
H 	H 	0.61940 0.71600 0.36720 0.09300
C 	C 	0.57030 0.72800 0.47000 0.13300
H 	H 	0.56600 0.76890 0.46270 -0.05400
C 	C 	0.60170 0.52260 0.62940 -1.25200
H 	H 	0.60690 0.48150 0.64430 0.33200
H 	H 	0.56620 0.53780 0.65540 0.34000
H 	H 	0.63550 0.54520 0.64820 0.31700
C 	C 	0.66220 0.50250 0.46520 -1.24100
H 	H 	0.66780 0.46100 0.47760 0.31100
H 	H 	0.69590 0.52480 0.48510 0.30600
H 	H 	0.65840 0.50770 0.40590 0.31500
C 	C 	0.52880 0.48970 0.48020 -0.49900
H 	H 	0.52570 0.49460 0.42010 0.10100
H 	H 	0.53380 0.44750 0.49140 0.10900
Si	Si	0.40497 0.97091 0.51654 1.32800
N 	N 	0.45516 0.79733 0.53490 -0.30900
C 	C 	0.44750 0.85510 0.54440 0.22300
H 	H 	0.46560 0.87320 0.59010 -0.11600
C 	C 	0.41460 0.89070 0.49180 -0.52800
C 	C 	0.39020 0.86250 0.42410 0.25500
H 	H 	0.36840 0.88440 0.38530 -0.13000
C 	C 	0.39750 0.80310 0.41310 -0.28700
H 	H 	0.38060 0.78400 0.36720 0.09300
C 	C 	0.42970 0.77200 0.47000 0.13300
H 	H 	0.43400 0.73110 0.46270 -0.05400
C 	C 	0.39830 0.97740 0.62940 -1.25200
H 	H 	0.39310 0.01850 0.64430 0.33200
H 	H 	0.43380 0.96220 0.65540 0.34000
H 	H 	0.36450 0.95480 0.64820 0.31700
C 	C 	0.33780 0.99750 0.46520 -1.24100
H 	H 	0.33220 0.03900 0.47760 0.31100
H 	H 	0.30410 0.97520 0.48510 0.30700
H 	H 	0.34160 0.99230 0.40590 0.31500
C 	C 	0.47120 0.01030 0.48020 -0.49900
H 	H 	0.47430 0.00540 0.42010 0.10100
H 	H 	0.46620 0.05250 0.49140 0.10900
Si	Si	0.90497 0.47091 0.01654 1.32800
N 	N 	0.95516 0.29733 0.03490 -0.29600
C 	C 	0.94750 0.35510 0.04440 0.22700
H 	H 	0.96560 0.37320 0.09010 -0.10600
C 	C 	0.91460 0.39070 0.99180 -0.52000
C 	C 	0.89020 0.36250 0.92410 0.25600
H 	H 	0.86840 0.38440 0.88530 -0.12800
C 	C 	0.89750 0.30310 0.91310 -0.28300
H 	H 	0.88060 0.28400 0.86720 0.09300
C 	C 	0.92970 0.27200 0.97000 0.13800
H 	H 	0.93400 0.23110 0.96270 -0.04700
C 	C 	0.89830 0.47740 0.12940 -1.25500
H 	H 	0.89310 0.51850 0.14430 0.33600
H 	H 	0.93380 0.46220 0.15540 0.34900
H 	H 	0.86450 0.45480 0.14820 0.31800
C 	C 	0.83780 0.49750 0.96520 -1.24200
H 	H 	0.83220 0.53900 0.97760 0.31300
H 	H 	0.80410 0.47520 0.98510 0.30700
H 	H 	0.84160 0.49230 0.90590 0.31700
C 	C 	0.97120 0.51030 0.98020 -0.45000
H 	H 	0.97430 0.50540 0.92010 0.10500
H 	H 	0.96620 0.55250 0.99140 0.10900
Ni	Ni	0.00000 0.75000 0.87500 0.98600
Ni	Ni	0.50000 0.25000 0.37500 1.00600
Ni	Ni	-0.00000 0.25000 0.12500 0.98600
Ni	Ni	0.50000 0.75000 0.62500 1.00600
Si	Si	0.59503 0.97091 0.01654 1.32700
N 	N 	0.54484 0.79733 0.03490 -0.30800
C 	C 	0.55250 0.85510 0.04440 0.22300
H 	H 	0.53440 0.87320 0.09010 -0.11600
C 	C 	0.58540 0.89070 0.99180 -0.52700
C 	C 	0.60980 0.86250 0.92410 0.25500
H 	H 	0.63160 0.88440 0.88530 -0.13000
C 	C 	0.60250 0.80310 0.91310 -0.28700
H 	H 	0.61940 0.78400 0.86720 0.09300
C 	C 	0.57030 0.77200 0.97000 0.13300
H 	H 	0.56600 0.73110 0.96270 -0.05400
C 	C 	0.60170 0.97740 0.12940 -1.25200
H 	H 	0.60690 0.01850 0.14430 0.33200
H 	H 	0.56620 0.96220 0.15540 0.34000
H 	H 	0.63550 0.95480 0.14820 0.31700
C 	C 	0.66220 0.99750 0.96520 -1.24100
H 	H 	0.66780 0.03900 0.97760 0.31100
H 	H 	0.69590 0.97520 0.98510 0.30600
H 	H 	0.65840 0.99230 0.90590 0.31500
C 	C 	0.52880 0.01030 0.98020 -0.49900
H 	H 	0.52570 0.00540 0.92010 0.10100
H 	H 	0.53380 0.05250 0.99140 0.10900
Si	Si	0.09503 0.47091 0.51654 1.32800
N 	N 	0.04484 0.29733 0.53490 -0.31600
C 	C 	0.05250 0.35510 0.54440 0.21900
H 	H 	0.03440 0.37320 0.59010 -0.12500
C 	C 	0.08540 0.39070 0.49180 -0.53500
C 	C 	0.10980 0.36250 0.42410 0.25400
H 	H 	0.13160 0.38440 0.38530 -0.13200
C 	C 	0.10250 0.30310 0.41310 -0.29000
H 	H 	0.11940 0.28400 0.36720 0.09300
C 	C 	0.07030 0.27200 0.47000 0.12800
H 	H 	0.06600 0.23110 0.46270 -0.06100
C 	C 	0.10170 0.47740 0.62940 -1.24900
H 	H 	0.10690 0.51850 0.64430 0.32800
H 	H 	0.06620 0.46220 0.65540 0.33200
H 	H 	0.13550 0.45480 0.64820 0.31600
C 	C 	0.16220 0.49750 0.46520 -1.24000
H 	H 	0.16780 0.53900 0.47760 0.31000
H 	H 	0.19590 0.47520 0.48510 0.30700
H 	H 	0.15840 0.49230 0.40590 0.31300
C 	C 	0.02880 0.51030 0.48020 -0.55000
H 	H 	0.02570 0.50540 0.42010 0.09900
H 	H 	0.03380 0.55250 0.49140 0.11000
Si	Si	0.90497 0.02909 0.51654 1.32800
N 	N 	0.95516 0.20267 0.53490 -0.29500
C 	C 	0.94750 0.14490 0.54440 0.22800
H 	H 	0.96560 0.12680 0.59010 -0.10600
C 	C 	0.91460 0.10930 0.49180 -0.52000
C 	C 	0.89020 0.13750 0.42410 0.25600
H 	H 	0.86840 0.11560 0.38530 -0.12800
C 	C 	0.89750 0.19690 0.41310 -0.28300
H 	H 	0.88060 0.21600 0.36720 0.09300
C 	C 	0.92970 0.22800 0.47000 0.13800
H 	H 	0.93400 0.26890 0.46270 -0.04700
C 	C 	0.89830 0.02260 0.62940 -1.25500
H 	H 	0.89310 0.98150 0.64430 0.33600
H 	H 	0.93380 0.03780 0.65540 0.34900
H 	H 	0.86450 0.04520 0.64820 0.31800
C 	C 	0.83780 0.00250 0.46520 -1.24300
H 	H 	0.83220 0.96100 0.47760 0.31300
H 	H 	0.80410 0.02480 0.48510 0.30700
H 	H 	0.84160 0.00770 0.40590 0.31700
C 	C 	0.97120 0.98970 0.48020 -0.45000
H 	H 	0.97430 0.99460 0.42010 0.10500
H 	H 	0.96620 0.94750 0.49140 0.10900
Si	Si	0.40497 0.52909 0.01654 1.32800
N 	N 	0.45516 0.70267 0.03490 -0.30900
C 	C 	0.44750 0.64490 0.04440 0.22300
H 	H 	0.46560 0.62680 0.09010 -0.11600
C 	C 	0.41460 0.60930 0.99180 -0.52800
C 	C 	0.39020 0.63750 0.92410 0.25500
H 	H 	0.36840 0.61560 0.88530 -0.13000
C 	C 	0.39750 0.69690 0.91310 -0.28700
H 	H 	0.38060 0.71600 0.86720 0.09300
C 	C 	0.42970 0.72800 0.97000 0.13300
H 	H 	0.43400 0.76890 0.96270 -0.05400
C 	C 	0.39830 0.52260 0.12940 -1.25200
H 	H 	0.39310 0.48150 0.14430 0.33200
H 	H 	0.43380 0.53780 0.15540 0.34000
H 	H 	0.36450 0.54520 0.14820 0.31700
C 	C 	0.33780 0.50250 0.96520 -1.24100
H 	H 	0.33220 0.46100 0.97760 0.31100
H 	H 	0.30410 0.52480 0.98510 0.30700
H 	H 	0.34160 0.50770 0.90590 0.31500
C 	C 	0.47120 0.48970 0.98020 -0.50000
H 	H 	0.47430 0.49460 0.92010 0.10200
H 	H 	0.46620 0.44750 0.99140 0.10900
Si	Si	0.27909 0.65497 0.23346 1.32600
N 	N 	0.45267 0.70516 0.21510 -0.30800
C 	C 	0.39490 0.69750 0.20560 0.22300
H 	H 	0.37680 0.71560 0.15990 -0.11600
C 	C 	0.35930 0.66460 0.25820 -0.52700
C 	C 	0.38750 0.64020 0.32590 0.25500
H 	H 	0.36560 0.61840 0.36470 -0.13000
C 	C 	0.44690 0.64750 0.33690 -0.28700
H 	H 	0.46600 0.63060 0.38280 0.09300
C 	C 	0.47800 0.67970 0.28000 0.13300
H 	H 	0.51890 0.68400 0.28730 -0.05400
C 	C 	0.27260 0.64830 0.12060 -1.25100
H 	H 	0.23150 0.64310 0.10570 0.33200
H 	H 	0.28780 0.68380 0.09460 0.34000
H 	H 	0.29520 0.61450 0.10180 0.31700
C 	C 	0.25250 0.58780 0.28480 -1.23800
H 	H 	0.21100 0.58220 0.27240 0.30900
H 	H 	0.27480 0.55410 0.26490 0.30600
H 	H 	0.25770 0.59160 0.34410 0.31400
C 	C 	0.23970 0.72120 0.26980 -0.50000
H 	H 	0.24460 0.72430 0.32990 0.10100
H 	H 	0.19750 0.71620 0.25860 0.10800
Si	Si	0.77909 0.15497 0.73346 1.33800
N 	N 	0.95267 0.20516 0.71510 -0.31800
C 	C 	0.89490 0.19750 0.70560 0.23400
H 	H 	0.87680 0.21560 0.65990 -0.11700
C 	C 	0.85930 0.16460 0.75820 -0.54600
C 	C 	0.88750 0.14020 0.82590 0.29300
H 	H 	0.86560 0.11840 0.86470 -0.14200
C 	C 	0.94690 0.14750 0.83690 -0.35000
H 	H 	0.96600 0.13060 0.88280 0.12900
C 	C 	0.97800 0.17970 0.78000 0.24600
H 	H 	0.01890 0.18400 0.78730 -0.12200
C 	C 	0.77260 0.14830 0.62060 -1.25900
H 	H 	0.73150 0.14310 0.60570 0.33400
H 	H 	0.78780 0.18380 0.59460 0.34200
H 	H 	0.79520 0.11450 0.60180 0.31900
C 	C 	0.75250 0.08780 0.78480 -1.24800
H 	H 	0.71100 0.08220 0.77240 0.31300
H 	H 	0.77480 0.05410 0.76490 0.30800
H 	H 	0.75770 0.09160 0.84410 0.31700
C 	C 	0.73970 0.22120 0.76980 -0.50300
H 	H 	0.74460 0.22430 0.82990 0.10200
H 	H 	0.69750 0.21620 0.75860 0.11000
Si	Si	0.22091 0.34503 0.73346 1.31700
N 	N 	0.04733 0.29484 0.71510 -0.29400
C 	C 	0.10510 0.30250 0.70560 0.21200
H 	H 	0.12320 0.28440 0.65990 -0.11400
C 	C 	0.14070 0.33540 0.75820 -0.50900
C 	C 	0.11250 0.35980 0.82590 0.21700
H 	H 	0.13440 0.38160 0.86470 -0.11800
C 	C 	0.05310 0.35250 0.83690 -0.22300
H 	H 	0.03400 0.36940 0.88280 0.05700
C 	C 	0.02200 0.32030 0.78000 0.02000
H 	H 	0.98110 0.31600 0.78730 0.01500
C 	C 	0.22740 0.35170 0.62060 -1.24500
H 	H 	0.26850 0.35690 0.60570 0.33000
H 	H 	0.21220 0.31620 0.59460 0.33800
H 	H 	0.20480 0.38550 0.60180 0.31500
C 	C 	0.24750 0.41220 0.78480 -1.23400
H 	H 	0.28900 0.41780 0.77240 0.30900
H 	H 	0.22520 0.44590 0.76490 0.30500
H 	H 	0.24230 0.40840 0.84410 0.31300
C 	C 	0.26030 0.27880 0.76980 -0.49500
H 	H 	0.25540 0.27570 0.82990 0.10000
H 	H 	0.30250 0.28380 0.75860 0.10800
Si	Si	0.72091 0.84503 0.23346 1.32900
N 	N 	0.54733 0.79484 0.21510 -0.30900
C 	C 	0.60510 0.80250 0.20560 0.22300
H 	H 	0.62320 0.78440 0.15990 -0.11600
C 	C 	0.64070 0.83540 0.25820 -0.52800
C 	C 	0.61250 0.85980 0.32590 0.25500
H 	H 	0.63440 0.88160 0.36470 -0.13000
C 	C 	0.55310 0.85250 0.33690 -0.28700
H 	H 	0.53400 0.86940 0.38280 0.09300
C 	C 	0.52200 0.82030 0.28000 0.13300
H 	H 	0.48110 0.81600 0.28730 -0.05400
C 	C 	0.72740 0.85170 0.12060 -1.25300
H 	H 	0.76850 0.85690 0.10570 0.33200
H 	H 	0.71220 0.81620 0.09460 0.34000
H 	H 	0.70480 0.88550 0.10180 0.31700
C 	C 	0.74750 0.91220 0.28480 -1.24300
H 	H 	0.78900 0.91780 0.27240 0.31400
H 	H 	0.72520 0.94590 0.26490 0.30700
H 	H 	0.74230 0.90840 0.34410 0.31600
C 	C 	0.76030 0.77880 0.26980 -0.49900
H 	H 	0.75540 0.77570 0.32990 0.10200
H 	H 	0.80250 0.78380 0.25860 0.11000
Si	Si	0.40497 0.02909 0.98346 1.32800
N 	N 	0.45516 0.20267 0.96510 -0.30800
C 	C 	0.44750 0.14490 0.95560 0.22300
H 	H 	0.46560 0.12680 0.90990 -0.11600
C 	C 	0.41460 0.10930 0.00820 -0.52700
C 	C 	0.39020 0.13750 0.07590 0.25500
H 	H 	0.36840 0.11560 0.11470 -0.13000
C 	C 	0.39750 0.19690 0.08690 -0.28700
H 	H 	0.38060 0.21600 0.13280 0.09300
C 	C 	0.42970 0.22800 0.03000 0.13300
H 	H 	0.43400 0.26890 0.03730 -0.05400
C 	C 	0.39830 0.02260 0.87060 -1.25200
H 	H 	0.39310 0.98150 0.85570 0.33200
H 	H 	0.43380 0.03780 0.84460 0.34000
H 	H 	0.36450 0.04520 0.85180 0.31700
C 	C 	0.33780 0.00250 0.03480 -1.24100
H 	H 	0.33220 0.96100 0.02240 0.31100
H 	H 	0.30410 0.02480 0.01490 0.30700
H 	H 	0.34160 0.00770 0.09410 0.31500
C 	C 	0.47120 0.98970 0.01980 -0.50000
H 	H 	0.47430 0.99460 0.07990 0.10100
H 	H 	0.46620 0.94750 0.00860 0.10900
Si	Si	0.90497 0.52909 0.48346 1.32800
N 	N 	0.95516 0.70267 0.46510 -0.29500
C 	C 	0.94750 0.64490 0.45560 0.22800
H 	H 	0.96560 0.62680 0.40990 -0.10600
C 	C 	0.91460 0.60930 0.50820 -0.52000
C 	C 	0.89020 0.63750 0.57590 0.25600
H 	H 	0.86840 0.61560 0.61470 -0.12800
C 	C 	0.89750 0.69690 0.58690 -0.28300
H 	H 	0.88060 0.71600 0.63280 0.09300
C 	C 	0.92970 0.72800 0.53000 0.13800
H 	H 	0.93400 0.76890 0.53730 -0.04700
C 	C 	0.89830 0.52260 0.37060 -1.25500
H 	H 	0.89310 0.48150 0.35570 0.33600
H 	H 	0.93380 0.53780 0.34460 0.34900
H 	H 	0.86450 0.54520 0.35180 0.31800
C 	C 	0.83780 0.50250 0.53480 -1.24200
H 	H 	0.83220 0.46100 0.52240 0.31300
H 	H 	0.80410 0.52480 0.51490 0.30700
H 	H 	0.84160 0.50770 0.59410 0.31700
C 	C 	0.97120 0.48970 0.51980 -0.44900
H 	H 	0.97430 0.49460 0.57990 0.10500
H 	H 	0.96620 0.44750 0.50860 0.10900
Si	Si	0.09503 0.97091 0.48346 1.32700
N 	N 	0.04484 0.79733 0.46510 -0.31600
C 	C 	0.05250 0.85510 0.45560 0.21900
H 	H 	0.03440 0.87320 0.40990 -0.12500
C 	C 	0.08540 0.89070 0.50820 -0.53500
C 	C 	0.10980 0.86250 0.57590 0.25400
H 	H 	0.13160 0.88440 0.61470 -0.13200
C 	C 	0.10250 0.80310 0.58690 -0.29000
H 	H 	0.11940 0.78400 0.63280 0.09300
C 	C 	0.07030 0.77200 0.53000 0.12800
H 	H 	0.06600 0.73110 0.53730 -0.06100
C 	C 	0.10170 0.97740 0.37060 -1.24900
H 	H 	0.10690 0.01850 0.35570 0.32800
H 	H 	0.06620 0.96220 0.34460 0.33200
H 	H 	0.13550 0.95480 0.35180 0.31600
C 	C 	0.16220 0.99750 0.53480 -1.24000
H 	H 	0.16780 0.03900 0.52240 0.31000
H 	H 	0.19590 0.97520 0.51490 0.30600
H 	H 	0.15840 0.99230 0.59410 0.31300
C 	C 	0.02880 0.01030 0.51980 -0.54900
H 	H 	0.02570 0.00540 0.57990 0.09800
H 	H 	0.03380 0.05250 0.50860 0.10900
Si	Si	0.59503 0.47091 0.98346 1.32700
N 	N 	0.54484 0.29733 0.96510 -0.30800
C 	C 	0.55250 0.35510 0.95560 0.22300
H 	H 	0.53440 0.37320 0.90990 -0.11600
C 	C 	0.58540 0.39070 0.00820 -0.52800
C 	C 	0.60980 0.36250 0.07590 0.25500
H 	H 	0.63160 0.38440 0.11470 -0.13000
C 	C 	0.60250 0.30310 0.08690 -0.28700
H 	H 	0.61940 0.28400 0.13280 0.09300
C 	C 	0.57030 0.27200 0.03000 0.13300
H 	H 	0.56600 0.23110 0.03730 -0.05400
C 	C 	0.60170 0.47740 0.87060 -1.25200
H 	H 	0.60690 0.51850 0.85570 0.33200
H 	H 	0.56620 0.46220 0.84460 0.34000
H 	H 	0.63550 0.45480 0.85180 0.31700
C 	C 	0.66220 0.49750 0.03480 -1.24000
H 	H 	0.66780 0.53900 0.02240 0.31100
H 	H 	0.69590 0.47520 0.01490 0.30600
H 	H 	0.65840 0.49230 0.09410 0.31500
C 	C 	0.52880 0.51030 0.01980 -0.49900
H 	H 	0.52570 0.50540 0.07990 0.10100
H 	H 	0.53380 0.55250 0.00860 0.10900
Si	Si	0.72091 0.34503 0.76654 1.32900
N 	N 	0.54733 0.29484 0.78490 -0.30900
C 	C 	0.60510 0.30250 0.79440 0.22300
H 	H 	0.62320 0.28440 0.84010 -0.11600
C 	C 	0.64070 0.33540 0.74180 -0.52800
C 	C 	0.61250 0.35980 0.67410 0.25500
H 	H 	0.63440 0.38160 0.63530 -0.13000
C 	C 	0.55310 0.35250 0.66310 -0.28700
H 	H 	0.53400 0.36940 0.61720 0.09300
C 	C 	0.52200 0.32030 0.72000 0.13300
H 	H 	0.48110 0.31600 0.71270 -0.05400
C 	C 	0.72740 0.35170 0.87940 -1.25300
H 	H 	0.76850 0.35690 0.89430 0.33200
H 	H 	0.71220 0.31620 0.90540 0.34000
H 	H 	0.70480 0.38550 0.89820 0.31700
C 	C 	0.74750 0.41220 0.71520 -1.24400
H 	H 	0.78900 0.41780 0.72760 0.31400
H 	H 	0.72520 0.44590 0.73510 0.30800
H 	H 	0.74230 0.40840 0.65590 0.31600
C 	C 	0.76030 0.27880 0.73020 -0.49900
H 	H 	0.75540 0.27570 0.67010 0.10200
H 	H 	0.80250 0.28380 0.74140 0.11000
Si	Si	0.22091 0.84503 0.26654 1.31700
N 	N 	0.04733 0.79484 0.28490 -0.29400
C 	C 	0.10510 0.80250 0.29440 0.21200
H 	H 	0.12320 0.78440 0.34010 -0.11400
C 	C 	0.14070 0.83540 0.24180 -0.50900
C 	C 	0.11250 0.85980 0.17410 0.21700
H 	H 	0.13440 0.88160 0.13530 -0.11800
C 	C 	0.05310 0.85250 0.16310 -0.22300
H 	H 	0.03400 0.86940 0.11720 0.05700
C 	C 	0.02200 0.82030 0.22000 0.02000
H 	H 	0.98110 0.81600 0.21270 0.01500
C 	C 	0.22740 0.85170 0.37940 -1.24500
H 	H 	0.26850 0.85690 0.39430 0.33000
H 	H 	0.21220 0.81620 0.40540 0.33800
H 	H 	0.20480 0.88550 0.39820 0.31500
C 	C 	0.24750 0.91220 0.21520 -1.23300
H 	H 	0.28900 0.91780 0.22760 0.30900
H 	H 	0.22520 0.94590 0.23510 0.30500
H 	H 	0.24230 0.90840 0.15590 0.31300
C 	C 	0.26030 0.77880 0.23020 -0.49500
H 	H 	0.25540 0.77570 0.17010 0.10000
H 	H 	0.30250 0.78380 0.24140 0.10800
Si	Si	0.77909 0.65497 0.26654 1.33800
N 	N 	0.95267 0.70516 0.28490 -0.31800
C 	C 	0.89490 0.69750 0.29440 0.23500
H 	H 	0.87680 0.71560 0.34010 -0.11700
C 	C 	0.85930 0.66460 0.24180 -0.54600
C 	C 	0.88750 0.64020 0.17410 0.29300
H 	H 	0.86560 0.61840 0.13530 -0.14200
C 	C 	0.94690 0.64750 0.16310 -0.35000
H 	H 	0.96600 0.63060 0.11720 0.12900
C 	C 	0.97800 0.67970 0.22000 0.24700
H 	H 	0.01890 0.68400 0.21270 -0.12200
C 	C 	0.77260 0.64830 0.37940 -1.25900
H 	H 	0.73150 0.64310 0.39430 0.33400
H 	H 	0.78780 0.68380 0.40540 0.34200
H 	H 	0.79520 0.61450 0.39820 0.31900
C 	C 	0.75250 0.58780 0.21520 -1.24800
H 	H 	0.71100 0.58220 0.22760 0.31300
H 	H 	0.77480 0.55410 0.23510 0.30900
H 	H 	0.75770 0.59160 0.15590 0.31700
C 	C 	0.73970 0.72120 0.23020 -0.50300
H 	H 	0.74460 0.72430 0.17010 0.10300
H 	H 	0.69750 0.71620 0.24140 0.11000
Si	Si	0.27909 0.15497 0.76654 1.32600
N 	N 	0.45267 0.20516 0.78490 -0.30800
C 	C 	0.39490 0.19750 0.79440 0.22300
H 	H 	0.37680 0.21560 0.84010 -0.11600
C 	C 	0.35930 0.16460 0.74180 -0.52700
C 	C 	0.38750 0.14020 0.67410 0.25500
H 	H 	0.36560 0.11840 0.63530 -0.13000
C 	C 	0.44690 0.14750 0.66310 -0.28700
H 	H 	0.46600 0.13060 0.61720 0.09300
C 	C 	0.47800 0.17970 0.72000 0.13300
H 	H 	0.51890 0.18400 0.71270 -0.05400
C 	C 	0.27260 0.14830 0.87940 -1.25100
H 	H 	0.23150 0.14310 0.89430 0.33200
H 	H 	0.28780 0.18380 0.90540 0.34000
H 	H 	0.29520 0.11450 0.89820 0.31700
C 	C 	0.25250 0.08780 0.71520 -1.23800
H 	H 	0.21100 0.08220 0.72760 0.30900
H 	H 	0.27480 0.05410 0.73510 0.30600
H 	H 	0.25770 0.09160 0.65590 0.31400
C 	C 	0.23970 0.22120 0.73020 -0.50000
H 	H 	0.24460 0.22430 0.67010 0.10100
H 	H 	0.19750 0.21620 0.74140 0.10800
Ni	Ni	0.50000 0.75000 0.12500 1.00600
Ni	Ni	0.00000 0.25000 0.62500 0.98600
Ni	Ni	0.50000 0.25000 0.87500 1.00600
Ni	Ni	0.00000 0.75000 0.37500 0.98600
