data_crystal

_cell_length_a 49.62000
_cell_length_b 50.58900
_cell_length_c 6.05900
_cell_angle_alpha 90.00000
_cell_angle_beta  90.00000
_cell_angle_gamma 90.00000

_symmetry_space_group_name_	'P 1'
_symmetry_space_group_name_H-M	'P 1'

loop_
_symmetry_equiv_pos_as_xyz
  x,y,z

loop_
_atom_site_label
_atom_site_type_symbol
_atom_site_fract_x
_atom_site_fract_y
_atom_site_fract_z
_atom_site_charge
Zn	Zn	0.87469 0.13747 0.14012 1.21300
Cl	Cl	0.86018 0.10593 0.36470 -0.51900
Cl	Cl	0.88733 0.17672 0.27700 -0.49800
Cl	Cl	0.71049 0.24256 0.22050 -0.51400
C 	C 	0.84712 0.15829 0.73800 0.08000
H 	H 	0.86350 0.16760 0.71690 0.01700
C 	C 	0.82630 0.16249 0.58610 -0.11700
H 	H 	0.82840 0.17410 0.46390 0.09000
C 	C 	0.80230 0.14876 0.62330 0.06100
C 	C 	0.80019 0.13160 0.79030 -0.09400
H 	H 	0.78400 0.12180 0.81150 0.08400
C 	C 	0.82212 0.12812 0.93420 0.05000
H 	H 	0.82070 0.11570 0.05140 0.03300
C 	C 	0.77797 0.15456 0.47650 0.10700
C 	C 	0.75664 0.17305 0.19000 0.11000
C 	C 	0.73272 0.15062 0.44100 0.11000
C 	C 	0.75685 0.18899 0.99180 0.02100
C 	C 	0.78021 0.20074 0.90540 -0.10700
H 	H 	0.79720 0.19770 0.97250 0.08900
C 	C 	0.77814 0.21648 0.72460 0.07500
H 	H 	0.79400 0.22500 0.67240 0.01900
C 	C 	0.73255 0.20860 0.69360 0.06100
H 	H 	0.71610 0.21120 0.61610 0.02100
C 	C 	0.73233 0.19358 0.87050 -0.09400
H 	H 	0.71600 0.18570 0.91850 0.08600
C 	C 	0.70642 0.14087 0.54270 0.05700
C 	C 	0.68224 0.14660 0.43080 -0.10700
H 	H 	0.68180 0.15590 0.29460 0.09200
C 	C 	0.65828 0.13728 0.53900 0.07500
H 	H 	0.64140 0.14050 0.47030 0.02000
C 	C 	0.68232 0.11964 0.82810 0.06000
H 	H 	0.68240 0.11020 0.96350 0.00700
C 	C 	0.70670 0.12800 0.73800 -0.10800
H 	H 	0.72320 0.12470 0.81270 0.08500
N 	N 	0.75476 0.14377 0.55900 -0.13600
N 	N 	0.78016 0.16889 0.29930 -0.14000
N 	N 	0.73233 0.16394 0.25800 -0.13700
N 	N 	0.75514 0.22069 0.61590 -0.24700
N 	N 	0.84535 0.14210 0.90950 -0.25400
N 	N 	0.65833 0.12472 0.72640 -0.25700
Zn	Zn	0.87469 0.63747 0.64012 1.21100
Cl	Cl	0.86018 0.60593 0.86470 -0.52600
Cl	Cl	0.88733 0.67672 0.77700 -0.50500
Cl	Cl	0.71049 0.74256 0.72050 -0.52700
C 	C 	0.84712 0.65829 0.23800 0.07400
H 	H 	0.86350 0.66760 0.21690 0.02000
C 	C 	0.82630 0.66249 0.08610 -0.10400
H 	H 	0.82840 0.67410 0.96390 0.07900
C 	C 	0.80230 0.64876 0.12330 0.06900
C 	C 	0.80019 0.63160 0.29030 -0.10100
H 	H 	0.78400 0.62180 0.31150 0.08900
C 	C 	0.82212 0.62812 0.43420 0.06300
H 	H 	0.82070 0.61570 0.55140 0.02400
C 	C 	0.77797 0.65456 0.97650 0.09200
C 	C 	0.75664 0.67305 0.69000 0.09200
C 	C 	0.73272 0.65062 0.94100 0.08900
C 	C 	0.75685 0.68899 0.49180 0.04100
C 	C 	0.78021 0.70074 0.40540 -0.11500
H 	H 	0.79720 0.69770 0.47250 0.09500
C 	C 	0.77814 0.71648 0.22460 0.08200
H 	H 	0.79400 0.72500 0.17240 0.02000
C 	C 	0.73255 0.70860 0.19360 0.06900
H 	H 	0.71610 0.71120 0.11610 0.02200
C 	C 	0.73233 0.69358 0.37050 -0.10200
H 	H 	0.71600 0.68570 0.41850 0.09300
C 	C 	0.70642 0.64087 0.04270 0.08500
C 	C 	0.68224 0.64660 0.93080 -0.14000
H 	H 	0.68180 0.65590 0.79460 0.09900
C 	C 	0.65828 0.63728 0.03900 0.10200
H 	H 	0.64140 0.64050 0.97030 0.00800
C 	C 	0.68232 0.61964 0.32810 0.07100
H 	H 	0.68240 0.61020 0.46350 0.00900
C 	C 	0.70670 0.62800 0.23800 -0.12400
H 	H 	0.72320 0.62470 0.31270 0.09300
N 	N 	0.75476 0.64377 0.05900 -0.12400
N 	N 	0.78016 0.66889 0.79930 -0.13800
N 	N 	0.73233 0.66394 0.75800 -0.13500
N 	N 	0.75514 0.72069 0.11590 -0.24600
N 	N 	0.84535 0.64210 0.40950 -0.25400
N 	N 	0.65833 0.62472 0.22640 -0.26100
Zn	Zn	0.37469 0.13747 0.64012 1.21100
Cl	Cl	0.36018 0.10593 0.86470 -0.52600
Cl	Cl	0.38733 0.17672 0.77700 -0.50500
Cl	Cl	0.21049 0.24256 0.72050 -0.52700
C 	C 	0.34712 0.15829 0.23800 0.07400
H 	H 	0.36350 0.16760 0.21690 0.02000
C 	C 	0.32630 0.16249 0.08610 -0.10400
H 	H 	0.32840 0.17410 0.96390 0.07900
C 	C 	0.30230 0.14876 0.12330 0.06900
C 	C 	0.30019 0.13160 0.29030 -0.10100
H 	H 	0.28400 0.12180 0.31150 0.08900
C 	C 	0.32212 0.12812 0.43420 0.06300
H 	H 	0.32070 0.11570 0.55140 0.02400
C 	C 	0.27797 0.15456 0.97650 0.09200
C 	C 	0.25664 0.17305 0.69000 0.09200
C 	C 	0.23272 0.15062 0.94100 0.08900
C 	C 	0.25685 0.18899 0.49180 0.04100
C 	C 	0.28021 0.20074 0.40540 -0.11500
H 	H 	0.29720 0.19770 0.47250 0.09500
C 	C 	0.27814 0.21648 0.22460 0.08200
H 	H 	0.29400 0.22500 0.17240 0.02000
C 	C 	0.23255 0.20860 0.19360 0.06900
H 	H 	0.21610 0.21120 0.11610 0.02200
C 	C 	0.23233 0.19358 0.37050 -0.10200
H 	H 	0.21600 0.18570 0.41850 0.09300
C 	C 	0.20642 0.14087 0.04270 0.08500
C 	C 	0.18224 0.14660 0.93080 -0.14000
H 	H 	0.18180 0.15590 0.79460 0.09900
C 	C 	0.15828 0.13728 0.03900 0.10200
H 	H 	0.14140 0.14050 0.97030 0.00800
C 	C 	0.18232 0.11964 0.32810 0.07100
H 	H 	0.18240 0.11020 0.46350 0.00900
C 	C 	0.20670 0.12800 0.23800 -0.12400
H 	H 	0.22320 0.12470 0.31270 0.09300
N 	N 	0.25476 0.14377 0.05900 -0.12400
N 	N 	0.28016 0.16889 0.79930 -0.13800
N 	N 	0.23233 0.16394 0.75800 -0.13500
N 	N 	0.25514 0.22069 0.11590 -0.24600
N 	N 	0.34535 0.14210 0.40950 -0.25400
N 	N 	0.15833 0.12472 0.22640 -0.26100
Zn	Zn	0.37469 0.63747 0.14012 1.21200
Cl	Cl	0.36018 0.60593 0.36470 -0.52000
Cl	Cl	0.38733 0.67672 0.27700 -0.49900
Cl	Cl	0.21049 0.74256 0.22050 -0.51500
C 	C 	0.34712 0.65829 0.73800 0.07900
H 	H 	0.36350 0.66760 0.71690 0.01600
C 	C 	0.32630 0.66249 0.58610 -0.11800
H 	H 	0.32840 0.67410 0.46390 0.09000
C 	C 	0.30230 0.64876 0.62330 0.06100
C 	C 	0.30019 0.63160 0.79030 -0.09400
H 	H 	0.28400 0.62180 0.81150 0.08400
C 	C 	0.32212 0.62812 0.93420 0.05000
H 	H 	0.32070 0.61570 0.05140 0.03300
C 	C 	0.27797 0.65456 0.47650 0.10700
C 	C 	0.25664 0.67305 0.19000 0.11000
C 	C 	0.23272 0.65062 0.44100 0.11000
C 	C 	0.25685 0.68899 0.99180 0.02100
C 	C 	0.28021 0.70074 0.90540 -0.10700
H 	H 	0.29720 0.69770 0.97250 0.08900
C 	C 	0.27814 0.71648 0.72460 0.07500
H 	H 	0.29400 0.72500 0.67240 0.01900
C 	C 	0.23255 0.70860 0.69360 0.06100
H 	H 	0.21610 0.71120 0.61610 0.02100
C 	C 	0.23233 0.69358 0.87050 -0.09400
H 	H 	0.21600 0.68570 0.91850 0.08600
C 	C 	0.20642 0.64087 0.54270 0.05700
C 	C 	0.18224 0.64660 0.43080 -0.10700
H 	H 	0.18180 0.65590 0.29460 0.09200
C 	C 	0.15828 0.63728 0.53900 0.07500
H 	H 	0.14140 0.64050 0.47030 0.01900
C 	C 	0.18232 0.61964 0.82810 0.06000
H 	H 	0.18240 0.61020 0.96350 0.00700
C 	C 	0.20670 0.62800 0.73800 -0.10800
H 	H 	0.22320 0.62470 0.81270 0.08500
N 	N 	0.25476 0.64377 0.55900 -0.13600
N 	N 	0.28016 0.66889 0.29930 -0.14000
N 	N 	0.23233 0.66394 0.25800 -0.13700
N 	N 	0.25514 0.72069 0.61590 -0.24700
N 	N 	0.34535 0.64210 0.90950 -0.25400
N 	N 	0.15833 0.62472 0.72640 -0.25700
Zn	Zn	0.12531 0.86253 0.14012 1.21200
Cl	Cl	0.13982 0.89407 0.36470 -0.51900
Cl	Cl	0.11267 0.82328 0.27700 -0.49900
Cl	Cl	0.28951 0.75744 0.22050 -0.51500
C 	C 	0.15288 0.84171 0.73800 0.07900
H 	H 	0.13650 0.83240 0.71690 0.01600
C 	C 	0.17370 0.83751 0.58610 -0.11800
H 	H 	0.17160 0.82590 0.46390 0.09000
C 	C 	0.19770 0.85124 0.62330 0.06100
C 	C 	0.19981 0.86840 0.79030 -0.09400
H 	H 	0.21600 0.87820 0.81150 0.08400
C 	C 	0.17788 0.87188 0.93420 0.05000
H 	H 	0.17930 0.88430 0.05140 0.03300
C 	C 	0.22203 0.84544 0.47650 0.10700
C 	C 	0.24336 0.82695 0.19000 0.11000
C 	C 	0.26728 0.84938 0.44100 0.11000
C 	C 	0.24315 0.81101 0.99180 0.02100
C 	C 	0.21979 0.79926 0.90540 -0.10700
H 	H 	0.20280 0.80230 0.97250 0.08900
C 	C 	0.22186 0.78352 0.72460 0.07500
H 	H 	0.20600 0.77500 0.67240 0.01900
C 	C 	0.26745 0.79140 0.69360 0.06100
H 	H 	0.28390 0.78880 0.61610 0.02100
C 	C 	0.26767 0.80642 0.87050 -0.09400
H 	H 	0.28400 0.81430 0.91850 0.08600
C 	C 	0.29358 0.85913 0.54270 0.05700
C 	C 	0.31776 0.85340 0.43080 -0.10700
H 	H 	0.31820 0.84410 0.29460 0.09200
C 	C 	0.34172 0.86272 0.53900 0.07500
H 	H 	0.35860 0.85950 0.47030 0.01900
C 	C 	0.31768 0.88036 0.82810 0.06000
H 	H 	0.31760 0.88980 0.96350 0.00700
C 	C 	0.29330 0.87200 0.73800 -0.10800
H 	H 	0.27680 0.87530 0.81270 0.08500
N 	N 	0.24524 0.85623 0.55900 -0.13600
N 	N 	0.21984 0.83111 0.29930 -0.14000
N 	N 	0.26767 0.83606 0.25800 -0.13700
N 	N 	0.24486 0.77931 0.61590 -0.24700
N 	N 	0.15465 0.85790 0.90950 -0.25400
N 	N 	0.34167 0.87528 0.72640 -0.25700
Zn	Zn	0.12531 0.36253 0.64012 1.21100
Cl	Cl	0.13982 0.39407 0.86470 -0.52600
Cl	Cl	0.11267 0.32328 0.77700 -0.50500
Cl	Cl	0.28951 0.25744 0.72050 -0.52700
C 	C 	0.15288 0.34171 0.23800 0.07400
H 	H 	0.13650 0.33240 0.21690 0.02000
C 	C 	0.17370 0.33751 0.08610 -0.10400
H 	H 	0.17160 0.32590 0.96390 0.07900
C 	C 	0.19770 0.35124 0.12330 0.06900
C 	C 	0.19981 0.36840 0.29030 -0.10100
H 	H 	0.21600 0.37820 0.31150 0.08900
C 	C 	0.17788 0.37188 0.43420 0.06300
H 	H 	0.17930 0.38430 0.55140 0.02400
C 	C 	0.22203 0.34544 0.97650 0.09200
C 	C 	0.24336 0.32695 0.69000 0.09200
C 	C 	0.26728 0.34938 0.94100 0.08900
C 	C 	0.24315 0.31101 0.49180 0.04100
C 	C 	0.21979 0.29926 0.40540 -0.11500
H 	H 	0.20280 0.30230 0.47250 0.09500
C 	C 	0.22186 0.28352 0.22460 0.08200
H 	H 	0.20600 0.27500 0.17240 0.02000
C 	C 	0.26745 0.29140 0.19360 0.06900
H 	H 	0.28390 0.28880 0.11610 0.02200
C 	C 	0.26767 0.30642 0.37050 -0.10200
H 	H 	0.28400 0.31430 0.41850 0.09300
C 	C 	0.29358 0.35913 0.04270 0.08500
C 	C 	0.31776 0.35340 0.93080 -0.14000
H 	H 	0.31820 0.34410 0.79460 0.09900
C 	C 	0.34172 0.36272 0.03900 0.10200
H 	H 	0.35860 0.35950 0.97030 0.00800
C 	C 	0.31768 0.38036 0.32810 0.07100
H 	H 	0.31760 0.38980 0.46350 0.00900
C 	C 	0.29330 0.37200 0.23800 -0.12400
H 	H 	0.27680 0.37530 0.31270 0.09300
N 	N 	0.24524 0.35623 0.05900 -0.12400
N 	N 	0.21984 0.33111 0.79930 -0.13800
N 	N 	0.26767 0.33606 0.75800 -0.13500
N 	N 	0.24486 0.27931 0.11590 -0.24600
N 	N 	0.15465 0.35790 0.40950 -0.25400
N 	N 	0.34167 0.37528 0.22640 -0.26100
Zn	Zn	0.62531 0.86253 0.64012 1.21100
Cl	Cl	0.63982 0.89407 0.86470 -0.52600
Cl	Cl	0.61267 0.82328 0.77700 -0.50500
Cl	Cl	0.78951 0.75744 0.72050 -0.52700
C 	C 	0.65288 0.84171 0.23800 0.07400
H 	H 	0.63650 0.83240 0.21690 0.02000
C 	C 	0.67370 0.83751 0.08610 -0.10400
H 	H 	0.67160 0.82590 0.96390 0.07900
C 	C 	0.69770 0.85124 0.12330 0.06900
C 	C 	0.69981 0.86840 0.29030 -0.10100
H 	H 	0.71600 0.87820 0.31150 0.08900
C 	C 	0.67788 0.87188 0.43420 0.06300
H 	H 	0.67930 0.88430 0.55140 0.02400
C 	C 	0.72203 0.84544 0.97650 0.09200
C 	C 	0.74336 0.82695 0.69000 0.09200
C 	C 	0.76728 0.84938 0.94100 0.08900
C 	C 	0.74315 0.81101 0.49180 0.04100
C 	C 	0.71979 0.79926 0.40540 -0.11500
H 	H 	0.70280 0.80230 0.47250 0.09500
C 	C 	0.72186 0.78352 0.22460 0.08200
H 	H 	0.70600 0.77500 0.17240 0.02000
C 	C 	0.76745 0.79140 0.19360 0.06900
H 	H 	0.78390 0.78880 0.11610 0.02200
C 	C 	0.76767 0.80642 0.37050 -0.10200
H 	H 	0.78400 0.81430 0.41850 0.09300
C 	C 	0.79358 0.85913 0.04270 0.08500
C 	C 	0.81776 0.85340 0.93080 -0.14000
H 	H 	0.81820 0.84410 0.79460 0.09900
C 	C 	0.84172 0.86272 0.03900 0.10200
H 	H 	0.85860 0.85950 0.97030 0.00800
C 	C 	0.81768 0.88036 0.32810 0.07100
H 	H 	0.81760 0.88980 0.46350 0.00900
C 	C 	0.79330 0.87200 0.23800 -0.12400
H 	H 	0.77680 0.87530 0.31270 0.09300
N 	N 	0.74524 0.85623 0.05900 -0.12400
N 	N 	0.71984 0.83111 0.79930 -0.13800
N 	N 	0.76767 0.83606 0.75800 -0.13500
N 	N 	0.74486 0.77931 0.11590 -0.24600
N 	N 	0.65465 0.85790 0.40950 -0.25400
N 	N 	0.84167 0.87528 0.22640 -0.26100
Zn	Zn	0.62531 0.36253 0.14012 1.21200
Cl	Cl	0.63982 0.39407 0.36470 -0.52000
Cl	Cl	0.61267 0.32328 0.27700 -0.49900
Cl	Cl	0.78951 0.25744 0.22050 -0.51500
C 	C 	0.65288 0.34171 0.73800 0.07900
H 	H 	0.63650 0.33240 0.71690 0.01600
C 	C 	0.67370 0.33751 0.58610 -0.11800
H 	H 	0.67160 0.32590 0.46390 0.09000
C 	C 	0.69770 0.35124 0.62330 0.06100
C 	C 	0.69981 0.36840 0.79030 -0.09400
H 	H 	0.71600 0.37820 0.81150 0.08400
C 	C 	0.67788 0.37188 0.93420 0.05000
H 	H 	0.67930 0.38430 0.05140 0.03300
C 	C 	0.72203 0.34544 0.47650 0.10700
C 	C 	0.74336 0.32695 0.19000 0.11000
C 	C 	0.76728 0.34938 0.44100 0.11000
C 	C 	0.74315 0.31101 0.99180 0.02100
C 	C 	0.71979 0.29926 0.90540 -0.10700
H 	H 	0.70280 0.30230 0.97250 0.08900
C 	C 	0.72186 0.28352 0.72460 0.07500
H 	H 	0.70600 0.27500 0.67240 0.01900
C 	C 	0.76745 0.29140 0.69360 0.06100
H 	H 	0.78390 0.28880 0.61610 0.02100
C 	C 	0.76767 0.30642 0.87050 -0.09400
H 	H 	0.78400 0.31430 0.91850 0.08600
C 	C 	0.79358 0.35913 0.54270 0.05700
C 	C 	0.81776 0.35340 0.43080 -0.10700
H 	H 	0.81820 0.34410 0.29460 0.09200
C 	C 	0.84172 0.36272 0.53900 0.07500
H 	H 	0.85860 0.35950 0.47030 0.02000
C 	C 	0.81768 0.38036 0.82810 0.06000
H 	H 	0.81760 0.38980 0.96350 0.00700
C 	C 	0.79330 0.37200 0.73800 -0.10800
H 	H 	0.77680 0.37530 0.81270 0.08500
N 	N 	0.74524 0.35623 0.55900 -0.13600
N 	N 	0.71984 0.33111 0.29930 -0.14000
N 	N 	0.76767 0.33606 0.25800 -0.13700
N 	N 	0.74486 0.27931 0.61590 -0.24700
N 	N 	0.65465 0.35790 0.90950 -0.25400
N 	N 	0.84167 0.37528 0.72640 -0.25700
Zn	Zn	0.12469 0.11253 0.39012 1.21100
Cl	Cl	0.11018 0.14407 0.61470 -0.52000
Cl	Cl	0.13733 0.07328 0.52700 -0.50100
Cl	Cl	0.96049 0.00744 0.47050 -0.52300
C 	C 	0.09712 0.09171 0.98800 0.07800
H 	H 	0.11350 0.08240 0.96690 0.01600
C 	C 	0.07630 0.08751 0.83610 -0.11900
H 	H 	0.07840 0.07590 0.71390 0.09000
C 	C 	0.05230 0.10124 0.87330 0.06200
C 	C 	0.05019 0.11840 0.04030 -0.09800
H 	H 	0.03400 0.12820 0.06150 0.08800
C 	C 	0.07212 0.12188 0.18420 0.06200
H 	H 	0.07070 0.13430 0.30140 0.02500
C 	C 	0.02797 0.09544 0.72650 0.10600
C 	C 	0.00664 0.07695 0.44000 0.09200
C 	C 	0.98272 0.09938 0.69100 0.11000
C 	C 	0.00685 0.06101 0.24180 0.04300
C 	C 	0.03021 0.04926 0.15540 -0.11900
H 	H 	0.04720 0.05230 0.22250 0.09600
C 	C 	0.02814 0.03352 0.97460 0.08500
H 	H 	0.04400 0.02500 0.92240 0.01700
C 	C 	0.98255 0.04140 0.94360 0.07300
H 	H 	0.96610 0.03880 0.86610 0.01800
C 	C 	0.98233 0.05642 0.12050 -0.10700
H 	H 	0.96600 0.06430 0.16850 0.09400
C 	C 	0.95642 0.10913 0.79270 0.05500
C 	C 	0.93224 0.10340 0.68080 -0.10600
H 	H 	0.93180 0.09410 0.54460 0.08900
C 	C 	0.90828 0.11272 0.78900 0.07400
H 	H 	0.89140 0.10950 0.72030 0.02000
C 	C 	0.93232 0.13036 0.07810 0.06000
H 	H 	0.93240 0.13980 0.21350 0.01400
C 	C 	0.95670 0.12200 0.98800 -0.10400
H 	H 	0.97320 0.12530 0.06270 0.08600
N 	N 	0.00476 0.10623 0.80900 -0.13600
N 	N 	0.03016 0.08111 0.54930 -0.13900
N 	N 	0.98233 0.08606 0.50800 -0.13700
N 	N 	0.00514 0.02931 0.86590 -0.25100
N 	N 	0.09535 0.10790 0.15950 -0.25400
N 	N 	0.90833 0.12528 0.97640 -0.25400
Zn	Zn	0.12469 0.61253 0.89012 1.20600
Cl	Cl	0.11018 0.64407 0.11470 -0.50900
Cl	Cl	0.13733 0.57328 0.02700 -0.48900
Cl	Cl	0.96049 0.50744 0.97050 -0.53000
C 	C 	0.09712 0.59171 0.48800 0.08100
H 	H 	0.11350 0.58240 0.46690 0.01500
C 	C 	0.07630 0.58751 0.33610 -0.12100
H 	H 	0.07840 0.57590 0.21390 0.09200
C 	C 	0.05230 0.60124 0.37330 0.06500
C 	C 	0.05019 0.61840 0.54030 -0.10100
H 	H 	0.03400 0.62820 0.56150 0.08800
C 	C 	0.07212 0.62188 0.68420 0.06200
H 	H 	0.07070 0.63430 0.80140 0.02000
C 	C 	0.02797 0.59544 0.22650 0.10600
C 	C 	0.00664 0.57695 0.94000 0.07600
C 	C 	0.98272 0.59938 0.19100 0.11000
C 	C 	0.00685 0.56101 0.74180 0.04500
C 	C 	0.03021 0.54926 0.65540 -0.11800
H 	H 	0.04720 0.55230 0.72250 0.09400
C 	C 	0.02814 0.53352 0.47460 0.08300
H 	H 	0.04400 0.52500 0.42240 0.01900
C 	C 	0.98255 0.54140 0.44360 0.07000
H 	H 	0.96610 0.53880 0.36610 0.02000
C 	C 	0.98233 0.55642 0.62050 -0.10500
H 	H 	0.96600 0.56430 0.66850 0.09300
C 	C 	0.95642 0.60913 0.29270 0.05600
C 	C 	0.93224 0.60340 0.18080 -0.10600
H 	H 	0.93180 0.59410 0.04460 0.09100
C 	C 	0.90828 0.61272 0.28900 0.07500
H 	H 	0.89140 0.60950 0.22030 0.02200
C 	C 	0.93232 0.63036 0.57810 0.06100
H 	H 	0.93240 0.63980 0.71350 0.01100
C 	C 	0.95670 0.62200 0.48800 -0.10600
H 	H 	0.97320 0.62530 0.56270 0.08600
N 	N 	0.00476 0.60623 0.30900 -0.13500
N 	N 	0.03016 0.58111 0.04930 -0.13100
N 	N 	0.98233 0.58606 0.00800 -0.13000
N 	N 	0.00514 0.52931 0.36590 -0.24900
N 	N 	0.09535 0.60790 0.65950 -0.25800
N 	N 	0.90833 0.62528 0.47640 -0.25400
Zn	Zn	0.62469 0.11253 0.89012 1.20600
Cl	Cl	0.61018 0.14407 0.11470 -0.50900
Cl	Cl	0.63733 0.07328 0.02700 -0.48900
Cl	Cl	0.46049 0.00744 0.97050 -0.53100
C 	C 	0.59712 0.09171 0.48800 0.08100
H 	H 	0.61350 0.08240 0.46690 0.01500
C 	C 	0.57630 0.08751 0.33610 -0.12100
H 	H 	0.57840 0.07590 0.21390 0.09200
C 	C 	0.55230 0.10124 0.37330 0.06500
C 	C 	0.55019 0.11840 0.54030 -0.10100
H 	H 	0.53400 0.12820 0.56150 0.08800
C 	C 	0.57212 0.12188 0.68420 0.06200
H 	H 	0.57070 0.13430 0.80140 0.02000
C 	C 	0.52797 0.09544 0.22650 0.10600
C 	C 	0.50664 0.07695 0.94000 0.07700
C 	C 	0.48272 0.09938 0.19100 0.11000
C 	C 	0.50685 0.06101 0.74180 0.04500
C 	C 	0.53021 0.04926 0.65540 -0.11900
H 	H 	0.54720 0.05230 0.72250 0.09400
C 	C 	0.52814 0.03352 0.47460 0.08300
H 	H 	0.54400 0.02500 0.42240 0.01800
C 	C 	0.48255 0.04140 0.44360 0.07000
H 	H 	0.46610 0.03880 0.36610 0.02000
C 	C 	0.48233 0.05642 0.62050 -0.10600
H 	H 	0.46600 0.06430 0.66850 0.09300
C 	C 	0.45642 0.10913 0.29270 0.05600
C 	C 	0.43224 0.10340 0.18080 -0.10600
H 	H 	0.43180 0.09410 0.04460 0.09100
C 	C 	0.40828 0.11272 0.28900 0.07500
H 	H 	0.39140 0.10950 0.22030 0.02200
C 	C 	0.43232 0.13036 0.57810 0.06100
H 	H 	0.43240 0.13980 0.71350 0.01100
C 	C 	0.45670 0.12200 0.48800 -0.10600
H 	H 	0.47320 0.12530 0.56270 0.08600
N 	N 	0.50476 0.10623 0.30900 -0.13400
N 	N 	0.53016 0.08111 0.04930 -0.13100
N 	N 	0.48233 0.08606 0.00800 -0.13000
N 	N 	0.50514 0.02931 0.36590 -0.24900
N 	N 	0.59535 0.10790 0.65950 -0.25800
N 	N 	0.40833 0.12528 0.47640 -0.25400
Zn	Zn	0.62469 0.61253 0.39012 1.21100
Cl	Cl	0.61018 0.64407 0.61470 -0.52000
Cl	Cl	0.63733 0.57328 0.52700 -0.50100
Cl	Cl	0.46049 0.50744 0.47050 -0.52300
C 	C 	0.59712 0.59171 0.98800 0.07800
H 	H 	0.61350 0.58240 0.96690 0.01600
C 	C 	0.57630 0.58751 0.83610 -0.11900
H 	H 	0.57840 0.57590 0.71390 0.09000
C 	C 	0.55230 0.60124 0.87330 0.06200
C 	C 	0.55019 0.61840 0.04030 -0.09800
H 	H 	0.53400 0.62820 0.06150 0.08800
C 	C 	0.57212 0.62188 0.18420 0.06200
H 	H 	0.57070 0.63430 0.30140 0.02500
C 	C 	0.52797 0.59544 0.72650 0.10600
C 	C 	0.50664 0.57695 0.44000 0.09300
C 	C 	0.48272 0.59938 0.69100 0.10900
C 	C 	0.50685 0.56101 0.24180 0.04400
C 	C 	0.53021 0.54926 0.15540 -0.11900
H 	H 	0.54720 0.55230 0.22250 0.09700
C 	C 	0.52814 0.53352 0.97460 0.08500
H 	H 	0.54400 0.52500 0.92240 0.01700
C 	C 	0.48255 0.54140 0.94360 0.07300
H 	H 	0.46610 0.53880 0.86610 0.01900
C 	C 	0.48233 0.55642 0.12050 -0.10800
H 	H 	0.46600 0.56430 0.16850 0.09500
C 	C 	0.45642 0.60913 0.79270 0.05500
C 	C 	0.43224 0.60340 0.68080 -0.10600
H 	H 	0.43180 0.59410 0.54460 0.08900
C 	C 	0.40828 0.61272 0.78900 0.07400
H 	H 	0.39140 0.60950 0.72030 0.02000
C 	C 	0.43232 0.63036 0.07810 0.06000
H 	H 	0.43240 0.63980 0.21350 0.01300
C 	C 	0.45670 0.62200 0.98800 -0.10400
H 	H 	0.47320 0.62530 0.06270 0.08600
N 	N 	0.50476 0.60623 0.80900 -0.13500
N 	N 	0.53016 0.58111 0.54930 -0.13900
N 	N 	0.48233 0.58606 0.50800 -0.13800
N 	N 	0.50514 0.52931 0.86590 -0.25000
N 	N 	0.59535 0.60790 0.15950 -0.25400
N 	N 	0.40833 0.62528 0.97640 -0.25400
Zn	Zn	0.37531 0.38747 0.39012 1.21100
Cl	Cl	0.38982 0.35593 0.61470 -0.52000
Cl	Cl	0.36267 0.42672 0.52700 -0.50100
Cl	Cl	0.53951 0.49256 0.47050 -0.52300
C 	C 	0.40288 0.40829 0.98800 0.07800
H 	H 	0.38650 0.41760 0.96690 0.01600
C 	C 	0.42370 0.41249 0.83610 -0.11900
H 	H 	0.42160 0.42410 0.71390 0.09000
C 	C 	0.44770 0.39876 0.87330 0.06200
C 	C 	0.44981 0.38160 0.04030 -0.09800
H 	H 	0.46600 0.37180 0.06150 0.08800
C 	C 	0.42788 0.37812 0.18420 0.06200
H 	H 	0.42930 0.36570 0.30140 0.02500
C 	C 	0.47203 0.40456 0.72650 0.10600
C 	C 	0.49336 0.42305 0.44000 0.09300
C 	C 	0.51728 0.40062 0.69100 0.10900
C 	C 	0.49315 0.43899 0.24180 0.04400
C 	C 	0.46979 0.45074 0.15540 -0.11900
H 	H 	0.45280 0.44770 0.22250 0.09700
C 	C 	0.47186 0.46648 0.97460 0.08500
H 	H 	0.45600 0.47500 0.92240 0.01700
C 	C 	0.51745 0.45860 0.94360 0.07300
H 	H 	0.53390 0.46120 0.86610 0.01900
C 	C 	0.51767 0.44358 0.12050 -0.10800
H 	H 	0.53400 0.43570 0.16850 0.09500
C 	C 	0.54358 0.39087 0.79270 0.05500
C 	C 	0.56776 0.39660 0.68080 -0.10600
H 	H 	0.56820 0.40590 0.54460 0.08900
C 	C 	0.59172 0.38728 0.78900 0.07400
H 	H 	0.60860 0.39050 0.72030 0.02000
C 	C 	0.56768 0.36964 0.07810 0.06000
H 	H 	0.56760 0.36020 0.21350 0.01300
C 	C 	0.54330 0.37800 0.98800 -0.10400
H 	H 	0.52680 0.37470 0.06270 0.08600
N 	N 	0.49524 0.39377 0.80900 -0.13500
N 	N 	0.46984 0.41889 0.54930 -0.13900
N 	N 	0.51767 0.41394 0.50800 -0.13800
N 	N 	0.49486 0.47069 0.86590 -0.25000
N 	N 	0.40465 0.39210 0.15950 -0.25400
N 	N 	0.59167 0.37472 0.97640 -0.25400
Zn	Zn	0.37531 0.88747 0.89012 1.20600
Cl	Cl	0.38982 0.85593 0.11470 -0.50900
Cl	Cl	0.36267 0.92672 0.02700 -0.48900
Cl	Cl	0.53951 0.99256 0.97050 -0.53000
C 	C 	0.40288 0.90829 0.48800 0.08100
H 	H 	0.38650 0.91760 0.46690 0.01500
C 	C 	0.42370 0.91249 0.33610 -0.12100
H 	H 	0.42160 0.92410 0.21390 0.09200
C 	C 	0.44770 0.89876 0.37330 0.06500
C 	C 	0.44981 0.88160 0.54030 -0.10100
H 	H 	0.46600 0.87180 0.56150 0.08800
C 	C 	0.42788 0.87812 0.68420 0.06200
H 	H 	0.42930 0.86570 0.80140 0.02000
C 	C 	0.47203 0.90456 0.22650 0.10600
C 	C 	0.49336 0.92305 0.94000 0.07700
C 	C 	0.51728 0.90062 0.19100 0.11000
C 	C 	0.49315 0.93899 0.74180 0.04500
C 	C 	0.46979 0.95074 0.65540 -0.11900
H 	H 	0.45280 0.94770 0.72250 0.09400
C 	C 	0.47186 0.96648 0.47460 0.08300
H 	H 	0.45600 0.97500 0.42240 0.01900
C 	C 	0.51745 0.95860 0.44360 0.07000
H 	H 	0.53390 0.96120 0.36610 0.02100
C 	C 	0.51767 0.94358 0.62050 -0.10600
H 	H 	0.53400 0.93570 0.66850 0.09300
C 	C 	0.54358 0.89087 0.29270 0.05600
C 	C 	0.56776 0.89660 0.18080 -0.10600
H 	H 	0.56820 0.90590 0.04460 0.09100
C 	C 	0.59172 0.88728 0.28900 0.07500
H 	H 	0.60860 0.89050 0.22030 0.02200
C 	C 	0.56768 0.86964 0.57810 0.06100
H 	H 	0.56760 0.86020 0.71350 0.01100
C 	C 	0.54330 0.87800 0.48800 -0.10600
H 	H 	0.52680 0.87470 0.56270 0.08600
N 	N 	0.49524 0.89377 0.30900 -0.13400
N 	N 	0.46984 0.91889 0.04930 -0.13100
N 	N 	0.51767 0.91394 0.00800 -0.13000
N 	N 	0.49486 0.97069 0.36590 -0.24800
N 	N 	0.40465 0.89210 0.65950 -0.25800
N 	N 	0.59167 0.87472 0.47640 -0.25400
Zn	Zn	0.87531 0.38747 0.89012 1.20600
Cl	Cl	0.88982 0.35593 0.11470 -0.50900
Cl	Cl	0.86267 0.42672 0.02700 -0.48900
Cl	Cl	0.03951 0.49256 0.97050 -0.53000
C 	C 	0.90288 0.40829 0.48800 0.08100
H 	H 	0.88650 0.41760 0.46690 0.01500
C 	C 	0.92370 0.41249 0.33610 -0.12100
H 	H 	0.92160 0.42410 0.21390 0.09200
C 	C 	0.94770 0.39876 0.37330 0.06500
C 	C 	0.94981 0.38160 0.54030 -0.10100
H 	H 	0.96600 0.37180 0.56150 0.08800
C 	C 	0.92788 0.37812 0.68420 0.06200
H 	H 	0.92930 0.36570 0.80140 0.02000
C 	C 	0.97203 0.40456 0.22650 0.10600
C 	C 	0.99336 0.42305 0.94000 0.07700
C 	C 	0.01728 0.40062 0.19100 0.10900
C 	C 	0.99315 0.43899 0.74180 0.04600
C 	C 	0.96979 0.45074 0.65540 -0.11900
H 	H 	0.95280 0.44770 0.72250 0.09400
C 	C 	0.97186 0.46648 0.47460 0.08300
H 	H 	0.95600 0.47500 0.42240 0.01800
C 	C 	0.01745 0.45860 0.44360 0.06900
H 	H 	0.03390 0.46120 0.36610 0.02100
C 	C 	0.01767 0.44358 0.62050 -0.10600
H 	H 	0.03400 0.43570 0.66850 0.09300
C 	C 	0.04358 0.39087 0.29270 0.05600
C 	C 	0.06776 0.39660 0.18080 -0.10600
H 	H 	0.06820 0.40590 0.04460 0.09100
C 	C 	0.09172 0.38728 0.28900 0.07500
H 	H 	0.10860 0.39050 0.22030 0.02200
C 	C 	0.06768 0.36964 0.57810 0.06100
H 	H 	0.06760 0.36020 0.71350 0.01100
C 	C 	0.04330 0.37800 0.48800 -0.10600
H 	H 	0.02680 0.37470 0.56270 0.08600
N 	N 	0.99524 0.39377 0.30900 -0.13400
N 	N 	0.96984 0.41889 0.04930 -0.13100
N 	N 	0.01767 0.41394 0.00800 -0.13000
N 	N 	0.99486 0.47069 0.36590 -0.24800
N 	N 	0.90465 0.39210 0.65950 -0.25800
N 	N 	0.09167 0.37472 0.47640 -0.25400
Zn	Zn	0.87531 0.88747 0.39012 1.21100
Cl	Cl	0.88982 0.85593 0.61470 -0.52000
Cl	Cl	0.86267 0.92672 0.52700 -0.50100
Cl	Cl	0.03951 0.99256 0.47050 -0.52200
C 	C 	0.90288 0.90829 0.98800 0.07800
H 	H 	0.88650 0.91760 0.96690 0.01600
C 	C 	0.92370 0.91249 0.83610 -0.11900
H 	H 	0.92160 0.92410 0.71390 0.09000
C 	C 	0.94770 0.89876 0.87330 0.06200
C 	C 	0.94981 0.88160 0.04030 -0.09800
H 	H 	0.96600 0.87180 0.06150 0.08800
C 	C 	0.92788 0.87812 0.18420 0.06200
H 	H 	0.92930 0.86570 0.30140 0.02500
C 	C 	0.97203 0.90456 0.72650 0.10600
C 	C 	0.99336 0.92305 0.44000 0.09300
C 	C 	0.01728 0.90062 0.69100 0.10900
C 	C 	0.99315 0.93899 0.24180 0.04400
C 	C 	0.96979 0.95074 0.15540 -0.12000
H 	H 	0.95280 0.94770 0.22250 0.09700
C 	C 	0.97186 0.96648 0.97460 0.08600
H 	H 	0.95600 0.97500 0.92240 0.01700
C 	C 	0.01745 0.95860 0.94360 0.07200
H 	H 	0.03390 0.96120 0.86610 0.01900
C 	C 	0.01767 0.94358 0.12050 -0.10800
H 	H 	0.03400 0.93570 0.16850 0.09500
C 	C 	0.04358 0.89087 0.79270 0.05500
C 	C 	0.06776 0.89660 0.68080 -0.10600
H 	H 	0.06820 0.90590 0.54460 0.08900
C 	C 	0.09172 0.88728 0.78900 0.07400
H 	H 	0.10860 0.89050 0.72030 0.02000
C 	C 	0.06768 0.86964 0.07810 0.06000
H 	H 	0.06760 0.86020 0.21350 0.01300
C 	C 	0.04330 0.87800 0.98800 -0.10400
H 	H 	0.02680 0.87470 0.06270 0.08600
N 	N 	0.99524 0.89377 0.80900 -0.13500
N 	N 	0.96984 0.91889 0.54930 -0.13900
N 	N 	0.01767 0.91394 0.50800 -0.13800
N 	N 	0.99486 0.97069 0.86590 -0.25000
N 	N 	0.90465 0.89210 0.15950 -0.25400
N 	N 	0.09167 0.87472 0.97640 -0.25400
Zn	Zn	0.75000 0.25000 0.37890 1.21000
Zn	Zn	0.75000 0.75000 0.87890 1.20700
Zn	Zn	0.25000 0.75000 0.37890 1.21000
Zn	Zn	0.25000 0.25000 0.87890 1.20700
Zn	Zn	0.00000 0.00000 0.62890 1.20900
Zn	Zn	0.00000 0.50000 0.12890 1.21200
Zn	Zn	0.50000 0.50000 0.62890 1.21000
Zn	Zn	0.50000 0.00000 0.12890 1.21200
