data_crystal

_cell_length_a 43.04000
_cell_length_b 43.04000
_cell_length_c 12.07390
_cell_angle_alpha 90.00000
_cell_angle_beta  90.00000
_cell_angle_gamma 120.00000

_symmetry_space_group_name_	'P 1'
_symmetry_space_group_name_H-M	'P 1'

loop_
_symmetry_equiv_pos_as_xyz
  x,y,z

loop_
_atom_site_label
_atom_site_type_symbol
_atom_site_fract_x
_atom_site_fract_y
_atom_site_fract_z
_atom_site_charge
Gd	Gd	0.18797 0.32610 0.46572 1.77200
F 	F 	0.31987 0.32867 0.38920 -0.23900
F 	F 	0.27585 0.29336 0.29730 -0.29300
F 	F 	0.27564 0.28811 0.47010 -0.27600
F 	F 	0.29144 0.44099 0.56180 -0.48100
F 	F 	0.33183 0.44271 0.45920 -0.40800
F 	F 	0.29159 0.45118 0.38890 -0.44100
F 	F 	0.25233 0.30522 0.78277 -0.38400
F 	F 	0.29140 0.34937 0.68923 -0.39800
F 	F 	0.27668 0.35783 0.85034 -0.39400
F 	F 	0.19253 0.42179 0.71490 -0.48100
F 	F 	0.19227 0.39797 0.87052 -0.47000
F 	F 	0.14625 0.37557 0.76517 -0.42400
F 	F 	0.06390 0.26462 0.66071 -0.39900
F 	F 	0.04182 0.21622 0.56650 -0.41100
F 	F 	0.05390 0.26567 0.48908 -0.39400
F 	F 	0.15675 0.20269 0.65700 -0.42400
F 	F 	0.12508 0.17544 0.51630 -0.48000
F 	F 	0.18051 0.21087 0.49740 -0.39400
O 	O 	0.16831 0.30709 0.28325 -0.51700
O 	O 	0.23394 0.31705 0.39049 -0.22300
O 	O 	0.23995 0.38211 0.44430 -0.28400
O 	O 	0.22358 0.32703 0.61528 -0.24100
O 	O 	0.17954 0.35602 0.61681 -0.26500
O 	O 	0.12461 0.29210 0.51031 -0.25500
O 	O 	0.17243 0.26651 0.50491 -0.24900
N 	N 	0.22105 0.31196 0.14758 -0.05900
N 	N 	0.16962 0.18363 0.14680 -0.11300
C 	C 	0.19436 0.27895 0.17970 0.03600
C 	C 	0.16598 0.27667 0.24580 0.25500
C 	C 	0.13764 0.24306 0.26680 -0.16400
H 	H 	0.11760 0.24070 0.30350 0.14300
C 	C 	0.13837 0.21207 0.23380 0.02400
H 	H 	0.11880 0.18970 0.24970 0.06700
C 	C 	0.16724 0.21395 0.17880 0.08400
C 	C 	0.19549 0.24804 0.14550 0.06800
C 	C 	0.22498 0.25352 0.07990 0.04400
H 	H 	0.22670 0.23380 0.05680 0.12700
C 	C 	0.25092 0.28717 0.04990 0.01400
H 	H 	0.27010 0.29040 0.00610 0.20600
C 	C 	0.24854 0.31660 0.08510 0.12900
H 	H 	0.26620 0.33960 0.06490 0.17800
C 	C 	0.15856 0.15790 0.21500 0.13400
H 	H 	0.15110 0.16070 0.28460 0.06500
C 	C 	0.15697 0.12377 0.18910 -0.19700
C 	C 	0.14327 0.09664 0.26700 0.30900
H 	H 	0.13590 0.10050 0.33540 -0.02100
C 	C 	0.14041 0.06367 0.24420 -0.53700
H 	H 	0.13070 0.04550 0.29690 0.27500
C 	C 	0.15191 0.05762 0.14370 0.72400
C 	C 	0.16594 0.08516 0.06650 -0.52400
H 	H 	0.17370 0.08150 0.99830 0.26100
C 	C 	0.16859 0.11797 0.08890 0.29600
H 	H 	0.17830 0.13610 0.03620 -0.01100
C 	C 	0.14948 0.02214 0.11900 -1.45100
H 	H 	0.17220 0.02620 0.09230 0.55600
H 	H 	0.13150 0.00960 0.06350 0.47200
H 	H 	0.14320 0.00800 0.18530 0.54200
C 	C 	0.28566 0.31202 0.38370 1.16200
C 	C 	0.26720 0.33439 0.40150 0.03600
C 	C 	0.28837 0.37066 0.42500 0.00400
H 	H 	0.31310 0.38080 0.42940 0.20000
C 	C 	0.27298 0.39191 0.44210 0.07900
C 	C 	0.29733 0.43198 0.46190 0.86100
C 	C 	0.26393 0.33900 0.75810 0.85200
C 	C 	0.23441 0.34386 0.70320 0.10600
C 	C 	0.22292 0.36550 0.75370 -0.05800
H 	H 	0.23360 0.37740 0.81920 0.17700
C 	C 	0.19543 0.36923 0.70580 0.07100
C 	C 	0.18236 0.39156 0.76720 0.86200
C 	C 	0.06540 0.25089 0.56290 0.84300
C 	C 	0.10377 0.25977 0.53850 0.06500
C 	C 	0.11150 0.23229 0.55100 -0.04600
H 	H 	0.09340 0.20960 0.57180 0.14100
C 	C 	0.14588 0.23826 0.53310 0.08400
C 	C 	0.15246 0.20644 0.55140 0.86800
F 	F 	0.31088 0.32065 0.45670 -0.24700
F 	F 	0.30466 0.32353 0.28920 -0.27200
F 	F 	0.26504 0.27920 0.37040 -0.27600
Gd	Gd	0.14537 0.34057 0.20094 1.77300
F 	F 	0.01346 0.33800 0.27747 -0.23800
F 	F 	0.05748 0.37331 0.36937 -0.29200
F 	F 	0.05769 0.37856 0.19657 -0.27500
F 	F 	0.04189 0.22568 0.10487 -0.48000
F 	F 	0.00150 0.22396 0.20747 -0.40700
F 	F 	0.04174 0.21549 0.27777 -0.44000
F 	F 	0.08100 0.36145 0.88390 -0.38300
F 	F 	0.04193 0.31730 0.97744 -0.39700
F 	F 	0.05665 0.30884 0.81633 -0.39300
F 	F 	0.14080 0.24488 0.95177 -0.48200
F 	F 	0.14106 0.26870 0.79615 -0.47000
F 	F 	0.18708 0.29110 0.90150 -0.42400
F 	F 	0.26943 0.40205 0.00596 -0.39900
F 	F 	0.29151 0.45045 0.10017 -0.41100
F 	F 	0.27943 0.40100 0.17759 -0.39400
F 	F 	0.17658 0.46398 0.00967 -0.42300
F 	F 	0.20825 0.49123 0.15037 -0.48000
F 	F 	0.15282 0.45580 0.16927 -0.39300
O 	O 	0.16502 0.35958 0.38342 -0.51700
O 	O 	0.09939 0.34962 0.27618 -0.22300
O 	O 	0.09338 0.28456 0.22237 -0.28400
O 	O 	0.10975 0.33964 0.05139 -0.23900
O 	O 	0.15379 0.31065 0.04986 -0.26400
O 	O 	0.20872 0.37457 0.15636 -0.25500
O 	O 	0.16090 0.40016 0.16176 -0.24800
N 	N 	0.11228 0.35471 0.51909 -0.05900
N 	N 	0.16371 0.48304 0.51987 -0.11300
C 	C 	0.13897 0.38772 0.48697 0.03600
C 	C 	0.16735 0.39000 0.42087 0.25500
C 	C 	0.19569 0.42361 0.39987 -0.16400
H 	H 	0.21573 0.42597 0.36317 0.14300
C 	C 	0.19496 0.45460 0.43287 0.02400
H 	H 	0.21453 0.47697 0.41697 0.06700
C 	C 	0.16609 0.45272 0.48787 0.08400
C 	C 	0.13784 0.41863 0.52117 0.06800
C 	C 	0.10835 0.41315 0.58677 0.04400
H 	H 	0.10663 0.43287 0.60987 0.12700
C 	C 	0.08241 0.37950 0.61677 0.01400
H 	H 	0.06323 0.37627 0.66057 0.20600
C 	C 	0.08479 0.35007 0.58157 0.12900
H 	H 	0.06713 0.32707 0.60177 0.17800
C 	C 	0.17477 0.50877 0.45167 0.13400
H 	H 	0.18223 0.50597 0.38207 0.06500
C 	C 	0.17636 0.54290 0.47757 -0.19700
C 	C 	0.19006 0.57003 0.39967 0.30900
H 	H 	0.19743 0.56617 0.33127 -0.02100
C 	C 	0.19292 0.60300 0.42247 -0.53600
H 	H 	0.20263 0.62117 0.36977 0.27500
C 	C 	0.18142 0.60905 0.52297 0.72300
C 	C 	0.16739 0.58151 0.60017 -0.52300
H 	H 	0.15963 0.58517 0.66837 0.26100
C 	C 	0.16474 0.54870 0.57777 0.29500
H 	H 	0.15503 0.53057 0.63047 -0.01000
C 	C 	0.18385 0.64453 0.54767 -1.45000
H 	H 	0.16113 0.64047 0.57437 0.55600
H 	H 	0.20183 0.65707 0.60317 0.47200
H 	H 	0.19013 0.65867 0.48137 0.54200
C 	C 	0.04767 0.35465 0.28297 1.16200
C 	C 	0.06613 0.33228 0.26517 0.03600
C 	C 	0.04496 0.29601 0.24167 0.00400
H 	H 	0.02023 0.28587 0.23727 0.20000
C 	C 	0.06035 0.27476 0.22457 0.07900
C 	C 	0.03600 0.23469 0.20477 0.86100
C 	C 	0.06940 0.32767 0.90857 0.85200
C 	C 	0.09892 0.32281 0.96347 0.10400
C 	C 	0.11041 0.30117 0.91297 -0.05600
H 	H 	0.09973 0.28927 0.84747 0.17700
C 	C 	0.13790 0.29744 0.96087 0.06900
C 	C 	0.15097 0.27511 0.89947 0.86300
C 	C 	0.26793 0.41578 0.10377 0.84300
C 	C 	0.22956 0.40690 0.12817 0.06500
C 	C 	0.22183 0.43438 0.11567 -0.04700
H 	H 	0.23993 0.45707 0.09487 0.14100
C 	C 	0.18745 0.42841 0.13357 0.08500
C 	C 	0.18087 0.46023 0.11527 0.86800
F 	F 	0.02245 0.34602 0.20997 -0.24700
F 	F 	0.02867 0.34314 0.37747 -0.27200
F 	F 	0.06829 0.38747 0.29627 -0.27600
Gd	Gd	0.85463 0.65943 0.79906 1.77300
F 	F 	0.98654 0.66200 0.72253 -0.23800
F 	F 	0.94252 0.62669 0.63063 -0.29200
F 	F 	0.94231 0.62144 0.80343 -0.27500
F 	F 	0.95811 0.77432 0.89513 -0.48000
F 	F 	0.99850 0.77604 0.79253 -0.40700
F 	F 	0.95826 0.78451 0.72223 -0.44000
F 	F 	0.91900 0.63855 0.11610 -0.38300
F 	F 	0.95807 0.68270 0.02256 -0.39700
F 	F 	0.94335 0.69116 0.18367 -0.39300
F 	F 	0.85920 0.75512 0.04823 -0.48200
F 	F 	0.85894 0.73130 0.20385 -0.47000
F 	F 	0.81292 0.70890 0.09850 -0.42400
F 	F 	0.73057 0.59795 0.99404 -0.39900
F 	F 	0.70849 0.54955 0.89983 -0.41100
F 	F 	0.72057 0.59900 0.82241 -0.39400
F 	F 	0.82342 0.53602 0.99033 -0.42300
F 	F 	0.79175 0.50877 0.84963 -0.48000
F 	F 	0.84718 0.54420 0.83073 -0.39300
O 	O 	0.83498 0.64042 0.61658 -0.51700
O 	O 	0.90061 0.65038 0.72382 -0.22300
O 	O 	0.90662 0.71544 0.77763 -0.28400
O 	O 	0.89025 0.66036 0.94861 -0.23900
O 	O 	0.84621 0.68935 0.95014 -0.26400
O 	O 	0.79128 0.62543 0.84364 -0.25500
O 	O 	0.83910 0.59984 0.83824 -0.24800
N 	N 	0.88772 0.64529 0.48091 -0.05900
N 	N 	0.83629 0.51696 0.48013 -0.11300
C 	C 	0.86103 0.61228 0.51303 0.03600
C 	C 	0.83265 0.61000 0.57913 0.25500
C 	C 	0.80431 0.57639 0.60013 -0.16400
H 	H 	0.78427 0.57403 0.63683 0.14300
C 	C 	0.80504 0.54540 0.56713 0.02400
H 	H 	0.78547 0.52303 0.58303 0.06700
C 	C 	0.83391 0.54728 0.51213 0.08400
C 	C 	0.86216 0.58137 0.47883 0.06800
C 	C 	0.89165 0.58685 0.41323 0.04400
H 	H 	0.89337 0.56713 0.39013 0.12700
C 	C 	0.91759 0.62050 0.38323 0.01400
H 	H 	0.93677 0.62373 0.33943 0.20600
C 	C 	0.91521 0.64993 0.41843 0.12900
H 	H 	0.93287 0.67293 0.39823 0.17800
C 	C 	0.82523 0.49123 0.54833 0.13400
H 	H 	0.81777 0.49403 0.61793 0.06500
C 	C 	0.82364 0.45710 0.52243 -0.19700
C 	C 	0.80994 0.42997 0.60033 0.30900
H 	H 	0.80257 0.43383 0.66873 -0.02100
C 	C 	0.80708 0.39700 0.57753 -0.53600
H 	H 	0.79737 0.37883 0.63023 0.27500
C 	C 	0.81858 0.39095 0.47703 0.72300
C 	C 	0.83261 0.41849 0.39983 -0.52300
H 	H 	0.84037 0.41483 0.33163 0.26100
C 	C 	0.83526 0.45130 0.42223 0.29500
H 	H 	0.84497 0.46943 0.36953 -0.01000
C 	C 	0.81615 0.35547 0.45233 -1.45000
H 	H 	0.83887 0.35953 0.42563 0.55600
H 	H 	0.79817 0.34293 0.39683 0.47200
H 	H 	0.80987 0.34133 0.51863 0.54200
C 	C 	0.95233 0.64535 0.71703 1.16200
C 	C 	0.93387 0.66772 0.73483 0.03600
C 	C 	0.95504 0.70399 0.75833 0.00400
H 	H 	0.97977 0.71413 0.76273 0.20000
C 	C 	0.93965 0.72524 0.77543 0.07900
C 	C 	0.96400 0.76531 0.79523 0.86100
C 	C 	0.93060 0.67233 0.09143 0.85200
C 	C 	0.90108 0.67719 0.03653 0.10400
C 	C 	0.88959 0.69883 0.08703 -0.05600
H 	H 	0.90027 0.71073 0.15253 0.17700
C 	C 	0.86210 0.70256 0.03913 0.06900
C 	C 	0.84903 0.72489 0.10053 0.86300
C 	C 	0.73207 0.58422 0.89623 0.84300
C 	C 	0.77044 0.59310 0.87183 0.06500
C 	C 	0.77817 0.56562 0.88433 -0.04700
H 	H 	0.76007 0.54293 0.90513 0.14100
C 	C 	0.81255 0.57159 0.86643 0.08500
C 	C 	0.81913 0.53977 0.88473 0.86800
F 	F 	0.97755 0.65398 0.79003 -0.24700
F 	F 	0.97133 0.65686 0.62253 -0.27200
F 	F 	0.93171 0.61253 0.70373 -0.27600
Gd	Gd	0.81203 0.67390 0.53428 1.77300
F 	F 	0.68013 0.67133 0.61080 -0.23800
F 	F 	0.72415 0.70664 0.70270 -0.29200
F 	F 	0.72436 0.71189 0.52990 -0.27500
F 	F 	0.70856 0.55901 0.43820 -0.48000
F 	F 	0.66817 0.55729 0.54080 -0.40700
F 	F 	0.70841 0.54882 0.61110 -0.44000
F 	F 	0.74767 0.69478 0.21723 -0.38300
F 	F 	0.70860 0.65063 0.31077 -0.39700
F 	F 	0.72332 0.64217 0.14966 -0.39300
F 	F 	0.80747 0.57821 0.28510 -0.48100
F 	F 	0.80773 0.60203 0.12948 -0.47000
F 	F 	0.85375 0.62443 0.23483 -0.42400
F 	F 	0.93610 0.73538 0.33929 -0.39900
F 	F 	0.95818 0.78378 0.43350 -0.41100
F 	F 	0.94610 0.73433 0.51092 -0.39400
F 	F 	0.84325 0.79731 0.34300 -0.42400
F 	F 	0.87492 0.82456 0.48370 -0.48000
F 	F 	0.81949 0.78913 0.50260 -0.39400
O 	O 	0.83169 0.69291 0.71675 -0.51700
O 	O 	0.76606 0.68295 0.60951 -0.22300
O 	O 	0.76005 0.61789 0.55570 -0.28400
O 	O 	0.77642 0.67297 0.38472 -0.24100
O 	O 	0.82046 0.64398 0.38319 -0.26500
O 	O 	0.87539 0.70790 0.48969 -0.25500
O 	O 	0.82757 0.73349 0.49509 -0.24900
N 	N 	0.77895 0.68804 0.85242 -0.05900
N 	N 	0.83038 0.81637 0.85320 -0.11300
C 	C 	0.80564 0.72105 0.82030 0.03600
C 	C 	0.83402 0.72333 0.75420 0.25500
C 	C 	0.86236 0.75694 0.73320 -0.16400
H 	H 	0.88240 0.75930 0.69650 0.14300
C 	C 	0.86163 0.78793 0.76620 0.02400
H 	H 	0.88120 0.81030 0.75030 0.06700
C 	C 	0.83276 0.78605 0.82120 0.08400
C 	C 	0.80451 0.75196 0.85450 0.06800
C 	C 	0.77502 0.74648 0.92010 0.04400
H 	H 	0.77330 0.76620 0.94320 0.12700
C 	C 	0.74908 0.71283 0.95010 0.01400
H 	H 	0.72990 0.70960 0.99390 0.20600
C 	C 	0.75146 0.68340 0.91490 0.12900
H 	H 	0.73380 0.66040 0.93510 0.17800
C 	C 	0.84144 0.84210 0.78500 0.13400
H 	H 	0.84890 0.83930 0.71540 0.06500
C 	C 	0.84303 0.87623 0.81090 -0.19700
C 	C 	0.85673 0.90336 0.73300 0.30900
H 	H 	0.86410 0.89950 0.66460 -0.02100
C 	C 	0.85959 0.93633 0.75580 -0.53700
H 	H 	0.86930 0.95450 0.70310 0.27500
C 	C 	0.84809 0.94238 0.85630 0.72400
C 	C 	0.83406 0.91484 0.93350 -0.52400
H 	H 	0.82630 0.91850 0.00170 0.26100
C 	C 	0.83141 0.88203 0.91110 0.29600
H 	H 	0.82170 0.86390 0.96380 -0.01100
C 	C 	0.85052 0.97786 0.88100 -1.45100
H 	H 	0.82780 0.97380 0.90770 0.55600
H 	H 	0.86850 0.99040 0.93650 0.47200
H 	H 	0.85680 0.99200 0.81470 0.54200
C 	C 	0.71434 0.68798 0.61630 1.16200
C 	C 	0.73280 0.66561 0.59850 0.03600
C 	C 	0.71163 0.62934 0.57500 0.00400
H 	H 	0.68690 0.61920 0.57060 0.20000
C 	C 	0.72702 0.60809 0.55790 0.07900
C 	C 	0.70267 0.56802 0.53810 0.86100
C 	C 	0.73607 0.66100 0.24190 0.85200
C 	C 	0.76559 0.65614 0.29680 0.10600
C 	C 	0.77708 0.63450 0.24630 -0.05800
H 	H 	0.76640 0.62260 0.18080 0.17700
C 	C 	0.80457 0.63077 0.29420 0.07100
C 	C 	0.81764 0.60844 0.23280 0.86200
C 	C 	0.93460 0.74911 0.43710 0.84300
C 	C 	0.89623 0.74023 0.46150 0.06500
C 	C 	0.88850 0.76771 0.44900 -0.04600
H 	H 	0.90660 0.79040 0.42820 0.14100
C 	C 	0.85412 0.76174 0.46690 0.08400
C 	C 	0.84754 0.79356 0.44860 0.86800
F 	F 	0.68912 0.67935 0.54330 -0.24700
F 	F 	0.69534 0.67647 0.71080 -0.27200
F 	F 	0.73496 0.72080 0.62960 -0.27600
Gd	Gd	0.52130 0.99277 0.13239 1.77300
F 	F 	0.65320 0.99534 0.05587 -0.23800
F 	F 	0.60918 0.96003 0.96397 -0.29200
F 	F 	0.60897 0.95478 0.13677 -0.27500
F 	F 	0.62477 0.10766 0.22847 -0.48000
F 	F 	0.66516 0.10938 0.12587 -0.40800
F 	F 	0.62492 0.11785 0.05557 -0.44000
F 	F 	0.58566 0.97189 0.44944 -0.38300
F 	F 	0.62473 0.01604 0.35590 -0.39700
F 	F 	0.61001 0.02450 0.51701 -0.39300
F 	F 	0.52586 0.08846 0.38157 -0.48100
F 	F 	0.52560 0.06464 0.53719 -0.47000
F 	F 	0.47958 0.04224 0.43184 -0.42400
F 	F 	0.39723 0.93129 0.32738 -0.39900
F 	F 	0.37515 0.88289 0.23317 -0.41100
F 	F 	0.38723 0.93234 0.15575 -0.39400
F 	F 	0.49008 0.86936 0.32367 -0.42400
F 	F 	0.45841 0.84211 0.18297 -0.48000
F 	F 	0.51384 0.87754 0.16407 -0.39300
O 	O 	0.50164 0.97376 0.94992 -0.51700
O 	O 	0.56727 0.98372 0.05716 -0.22400
O 	O 	0.57328 0.04878 0.11097 -0.28400
O 	O 	0.55691 0.99370 0.28195 -0.24100
O 	O 	0.51287 0.02269 0.28348 -0.26500
O 	O 	0.45794 0.95877 0.17698 -0.25500
O 	O 	0.50576 0.93318 0.17158 -0.24800
N 	N 	0.55438 0.97863 0.81425 -0.05900
N 	N 	0.50295 0.85030 0.81347 -0.11200
C 	C 	0.52769 0.94562 0.84637 0.03600
C 	C 	0.49931 0.94334 0.91247 0.25500
C 	C 	0.47097 0.90973 0.93347 -0.16400
H 	H 	0.45093 0.90737 0.97017 0.14300
C 	C 	0.47170 0.87874 0.90047 0.02400
H 	H 	0.45213 0.85637 0.91637 0.06600
C 	C 	0.50057 0.88062 0.84547 0.08400
C 	C 	0.52882 0.91471 0.81217 0.06800
C 	C 	0.55831 0.92019 0.74657 0.04400
H 	H 	0.56003 0.90047 0.72347 0.12700
C 	C 	0.58425 0.95384 0.71657 0.01400
H 	H 	0.60343 0.95707 0.67277 0.20600
C 	C 	0.58187 0.98327 0.75177 0.12900
H 	H 	0.59953 0.00627 0.73157 0.17800
C 	C 	0.49189 0.82457 0.88167 0.13000
H 	H 	0.48443 0.82737 0.95127 0.06500
C 	C 	0.49030 0.79044 0.85577 -0.19000
C 	C 	0.47660 0.76331 0.93367 0.29600
H 	H 	0.46923 0.76717 0.00207 -0.01400
C 	C 	0.47374 0.73034 0.91087 -0.52700
H 	H 	0.46403 0.71217 0.96357 0.27100
C 	C 	0.48524 0.72429 0.81037 0.71600
C 	C 	0.49927 0.75183 0.73317 -0.51600
H 	H 	0.50703 0.74817 0.66497 0.25800
C 	C 	0.50192 0.78464 0.75557 0.28900
H 	H 	0.51163 0.80277 0.70287 -0.00800
C 	C 	0.48281 0.68881 0.78567 -1.44200
H 	H 	0.50553 0.69287 0.75897 0.55300
H 	H 	0.46483 0.67627 0.73017 0.46900
H 	H 	0.47653 0.67467 0.85197 0.53800
C 	C 	0.61899 0.97869 0.05037 1.16100
C 	C 	0.60053 0.00106 0.06817 0.03600
C 	C 	0.62170 0.03733 0.09167 0.00400
H 	H 	0.64643 0.04747 0.09607 0.20000
C 	C 	0.60631 0.05858 0.10877 0.07900
C 	C 	0.63066 0.09865 0.12857 0.86100
C 	C 	0.59726 0.00567 0.42477 0.85100
C 	C 	0.56774 0.01053 0.36987 0.10600
C 	C 	0.55625 0.03217 0.42037 -0.05800
H 	H 	0.56693 0.04407 0.48587 0.17700
C 	C 	0.52876 0.03590 0.37247 0.07100
C 	C 	0.51569 0.05823 0.43387 0.86200
C 	C 	0.39873 0.91756 0.22957 0.84300
C 	C 	0.43710 0.92644 0.20517 0.06500
C 	C 	0.44483 0.89896 0.21767 -0.04600
H 	H 	0.42673 0.87627 0.23847 0.14100
C 	C 	0.47921 0.90493 0.19977 0.08500
C 	C 	0.48579 0.87311 0.21807 0.86800
F 	F 	0.64421 0.98732 0.12337 -0.24700
F 	F 	0.63799 0.99020 0.95587 -0.27200
F 	F 	0.59837 0.94587 0.03707 -0.27600
Gd	Gd	0.47870 0.00723 0.86761 1.77300
F 	F 	0.34680 0.00466 0.94413 -0.23800
F 	F 	0.39082 0.03997 0.03603 -0.29200
F 	F 	0.39103 0.04522 0.86323 -0.27500
F 	F 	0.37523 0.89234 0.77153 -0.48000
F 	F 	0.33484 0.89062 0.87413 -0.40800
F 	F 	0.37508 0.88215 0.94443 -0.44000
F 	F 	0.41434 0.02811 0.55056 -0.38300
F 	F 	0.37527 0.98396 0.64410 -0.39700
F 	F 	0.38999 0.97550 0.48299 -0.39300
F 	F 	0.47414 0.91154 0.61843 -0.48100
F 	F 	0.47440 0.93536 0.46281 -0.47000
F 	F 	0.52042 0.95776 0.56816 -0.42400
F 	F 	0.60277 0.06871 0.67262 -0.39900
F 	F 	0.62485 0.11711 0.76683 -0.41100
F 	F 	0.61277 0.06766 0.84425 -0.39400
F 	F 	0.50992 0.13064 0.67633 -0.42400
F 	F 	0.54159 0.15789 0.81703 -0.48000
F 	F 	0.48616 0.12246 0.83593 -0.39300
O 	O 	0.49836 0.02624 0.05008 -0.51700
O 	O 	0.43273 0.01628 0.94284 -0.22400
O 	O 	0.42672 0.95122 0.88903 -0.28400
O 	O 	0.44309 0.00630 0.71805 -0.24100
O 	O 	0.48713 0.97731 0.71652 -0.26500
O 	O 	0.54206 0.04123 0.82302 -0.25500
O 	O 	0.49424 0.06682 0.82842 -0.24800
N 	N 	0.44562 0.02137 0.18575 -0.05900
N 	N 	0.49705 0.14970 0.18653 -0.11200
C 	C 	0.47231 0.05438 0.15363 0.03600
C 	C 	0.50069 0.05666 0.08753 0.25500
C 	C 	0.52903 0.09027 0.06653 -0.16400
H 	H 	0.54907 0.09263 0.02983 0.14300
C 	C 	0.52830 0.12126 0.09953 0.02400
H 	H 	0.54787 0.14363 0.08363 0.06600
C 	C 	0.49943 0.11938 0.15453 0.08400
C 	C 	0.47118 0.08529 0.18783 0.06800
C 	C 	0.44169 0.07981 0.25343 0.04400
H 	H 	0.43997 0.09953 0.27653 0.12700
C 	C 	0.41575 0.04616 0.28343 0.01400
H 	H 	0.39657 0.04293 0.32723 0.20600
C 	C 	0.41813 0.01673 0.24823 0.12900
H 	H 	0.40047 0.99373 0.26843 0.17800
C 	C 	0.50811 0.17543 0.11833 0.13000
H 	H 	0.51557 0.17263 0.04873 0.06500
C 	C 	0.50970 0.20956 0.14423 -0.19000
C 	C 	0.52340 0.23669 0.06633 0.29600
H 	H 	0.53077 0.23283 0.99793 -0.01400
C 	C 	0.52626 0.26966 0.08913 -0.52700
H 	H 	0.53597 0.28783 0.03643 0.27100
C 	C 	0.51476 0.27571 0.18963 0.71600
C 	C 	0.50073 0.24817 0.26683 -0.51600
H 	H 	0.49297 0.25183 0.33503 0.25800
C 	C 	0.49808 0.21536 0.24443 0.28900
H 	H 	0.48837 0.19723 0.29713 -0.00800
C 	C 	0.51719 0.31119 0.21433 -1.44200
H 	H 	0.49447 0.30713 0.24103 0.55300
H 	H 	0.53517 0.32373 0.26983 0.46900
H 	H 	0.52347 0.32533 0.14803 0.53800
C 	C 	0.38101 0.02131 0.94963 1.16100
C 	C 	0.39947 0.99894 0.93183 0.03600
C 	C 	0.37830 0.96267 0.90833 0.00400
H 	H 	0.35357 0.95253 0.90393 0.20000
C 	C 	0.39369 0.94142 0.89123 0.07900
C 	C 	0.36934 0.90135 0.87143 0.86100
C 	C 	0.40274 0.99433 0.57523 0.85100
C 	C 	0.43226 0.98947 0.63013 0.10600
C 	C 	0.44375 0.96783 0.57963 -0.05800
H 	H 	0.43307 0.95593 0.51413 0.17700
C 	C 	0.47124 0.96410 0.62753 0.07100
C 	C 	0.48431 0.94177 0.56613 0.86200
C 	C 	0.60127 0.08244 0.77043 0.84300
C 	C 	0.56290 0.07356 0.79483 0.06500
C 	C 	0.55517 0.10104 0.78233 -0.04600
H 	H 	0.57327 0.12373 0.76153 0.14100
C 	C 	0.52079 0.09507 0.80023 0.08500
C 	C 	0.51421 0.12689 0.78193 0.86800
F 	F 	0.35579 0.01268 0.87663 -0.24700
F 	F 	0.36201 0.00980 0.04413 -0.27200
F 	F 	0.40163 0.05413 0.96293 -0.27600
Gd	Gd	0.67390 0.86187 0.46572 1.77300
F 	F 	0.67133 0.99120 0.38920 -0.23800
F 	F 	0.70664 0.98249 0.29730 -0.29200
F 	F 	0.71189 0.98753 0.47010 -0.27500
F 	F 	0.55901 0.85045 0.56180 -0.48000
F 	F 	0.55729 0.88912 0.45920 -0.40700
F 	F 	0.54882 0.84041 0.38890 -0.44000
F 	F 	0.69478 0.94711 0.78277 -0.38300
F 	F 	0.65063 0.94203 0.68923 -0.39700
F 	F 	0.64217 0.91885 0.85034 -0.39300
F 	F 	0.57821 0.77074 0.71490 -0.48100
F 	F 	0.60203 0.79430 0.87052 -0.47000
F 	F 	0.62443 0.77068 0.76517 -0.42400
F 	F 	0.73538 0.79928 0.66071 -0.39900
F 	F 	0.78378 0.82560 0.56650 -0.41100
F 	F 	0.73433 0.78823 0.48908 -0.39400
F 	F 	0.79731 0.95406 0.65700 -0.42400
F 	F 	0.82456 0.94964 0.51630 -0.48000
F 	F 	0.78913 0.96964 0.49740 -0.39400
O 	O 	0.69291 0.86122 0.28325 -0.51700
O 	O 	0.68295 0.91689 0.39049 -0.22300
O 	O 	0.61789 0.85784 0.44430 -0.28400
O 	O 	0.67297 0.89655 0.61528 -0.24100
O 	O 	0.64398 0.82352 0.61681 -0.26500
O 	O 	0.70790 0.83251 0.51031 -0.25500
O 	O 	0.73349 0.90592 0.50491 -0.24900
N 	N 	0.68804 0.90909 0.14758 -0.05900
N 	N 	0.81637 0.98599 0.14680 -0.11300
C 	C 	0.72105 0.91541 0.17970 0.03600
C 	C 	0.72333 0.88931 0.24580 0.25500
C 	C 	0.75694 0.89458 0.26680 -0.16400
H 	H 	0.75930 0.87690 0.30350 0.14300
C 	C 	0.78793 0.92630 0.23380 0.02400
H 	H 	0.81030 0.92910 0.24970 0.06700
C 	C 	0.78605 0.95329 0.17880 0.08400
C 	C 	0.75196 0.94745 0.14550 0.06800
C 	C 	0.74648 0.97146 0.07990 0.04400
H 	H 	0.76620 0.99290 0.05680 0.12700
C 	C 	0.71283 0.96375 0.04990 0.01400
H 	H 	0.70960 0.97970 0.00610 0.20600
C 	C 	0.68340 0.93194 0.08510 0.12900
H 	H 	0.66040 0.92660 0.06490 0.17800
C 	C 	0.84210 0.00066 0.21500 0.13400
H 	H 	0.83930 0.99040 0.28460 0.06400
C 	C 	0.87623 0.03320 0.18910 -0.19700
C 	C 	0.90336 0.04663 0.26700 0.30900
H 	H 	0.89950 0.03540 0.33540 -0.02100
C 	C 	0.93633 0.07674 0.24420 -0.53700
H 	H 	0.95450 0.08520 0.29690 0.27500
C 	C 	0.94238 0.09429 0.14370 0.72300
C 	C 	0.91484 0.08078 0.06650 -0.52300
H 	H 	0.91850 0.09220 0.99830 0.26100
C 	C 	0.88203 0.05062 0.08890 0.29500
H 	H 	0.86390 0.04220 0.03620 -0.01000
C 	C 	0.97786 0.12734 0.11900 -1.45100
H 	H 	0.97380 0.14600 0.09230 0.55600
H 	H 	0.99040 0.12190 0.06350 0.47200
H 	H 	0.99200 0.13520 0.18530 0.54200
C 	C 	0.68798 0.97364 0.38370 1.16200
C 	C 	0.66561 0.93281 0.40150 0.03600
C 	C 	0.62934 0.91771 0.42500 0.00400
H 	H 	0.61920 0.93230 0.42940 0.20000
C 	C 	0.60809 0.88107 0.44210 0.07900
C 	C 	0.56802 0.86535 0.46190 0.86100
C 	C 	0.66100 0.92493 0.75810 0.85200
C 	C 	0.65614 0.89055 0.70320 0.10600
C 	C 	0.63450 0.85742 0.75370 -0.05800
H 	H 	0.62260 0.85620 0.81920 0.17700
C 	C 	0.63077 0.82620 0.70580 0.07100
C 	C 	0.60844 0.79080 0.76720 0.86200
C 	C 	0.74911 0.81451 0.56290 0.84300
C 	C 	0.74023 0.84400 0.53850 0.06500
C 	C 	0.76771 0.87921 0.55100 -0.04600
H 	H 	0.79040 0.88380 0.57180 0.14100
C 	C 	0.76174 0.90762 0.53310 0.08400
C 	C 	0.79356 0.94602 0.55140 0.86800
F 	F 	0.67935 0.99023 0.45670 -0.24700
F 	F 	0.67647 0.98113 0.28920 -0.27200
F 	F 	0.72080 0.98584 0.37040 -0.27600
Gd	Gd	0.65943 0.80480 0.20094 1.77300
F 	F 	0.66200 0.67547 0.27747 -0.23800
F 	F 	0.62669 0.68418 0.36937 -0.29200
F 	F 	0.62144 0.67914 0.19657 -0.27500
F 	F 	0.77432 0.81622 0.10487 -0.48000
F 	F 	0.77604 0.77755 0.20747 -0.40700
F 	F 	0.78451 0.82626 0.27777 -0.44000
F 	F 	0.63855 0.71956 0.88390 -0.38300
F 	F 	0.68270 0.72464 0.97744 -0.39700
F 	F 	0.69116 0.74782 0.81633 -0.39300
F 	F 	0.75512 0.89593 0.95177 -0.48200
F 	F 	0.73130 0.87237 0.79615 -0.47000
F 	F 	0.70890 0.89599 0.90150 -0.42400
F 	F 	0.59795 0.86739 0.00596 -0.39900
F 	F 	0.54955 0.84107 0.10017 -0.41100
F 	F 	0.59900 0.87844 0.17759 -0.39400
F 	F 	0.53602 0.71261 0.00967 -0.42300
F 	F 	0.50877 0.71703 0.15037 -0.48000
F 	F 	0.54420 0.69703 0.16927 -0.39300
O 	O 	0.64042 0.80545 0.38342 -0.51700
O 	O 	0.65038 0.74978 0.27618 -0.22300
O 	O 	0.71544 0.80883 0.22237 -0.28400
O 	O 	0.66036 0.77012 0.05139 -0.24000
O 	O 	0.68935 0.84315 0.04986 -0.26400
O 	O 	0.62543 0.83416 0.15636 -0.25500
O 	O 	0.59984 0.76075 0.16176 -0.24900
N 	N 	0.64529 0.75758 0.51909 -0.05900
N 	N 	0.51696 0.68068 0.51987 -0.11300
C 	C 	0.61228 0.75126 0.48697 0.03600
C 	C 	0.61000 0.77736 0.42087 0.25500
C 	C 	0.57639 0.77209 0.39987 -0.16400
H 	H 	0.57403 0.78977 0.36317 0.14300
C 	C 	0.54540 0.74037 0.43287 0.02400
H 	H 	0.52303 0.73757 0.41697 0.06700
C 	C 	0.54728 0.71338 0.48787 0.08400
C 	C 	0.58137 0.71922 0.52117 0.06800
C 	C 	0.58685 0.69521 0.58677 0.04400
H 	H 	0.56713 0.67377 0.60987 0.12700
C 	C 	0.62050 0.70292 0.61677 0.01400
H 	H 	0.62373 0.68697 0.66057 0.20600
C 	C 	0.64993 0.73473 0.58157 0.12900
H 	H 	0.67293 0.74007 0.60177 0.17800
C 	C 	0.49123 0.66601 0.45167 0.13400
H 	H 	0.49403 0.67627 0.38207 0.06500
C 	C 	0.45710 0.63347 0.47757 -0.19700
C 	C 	0.42997 0.62004 0.39967 0.30900
H 	H 	0.43383 0.63127 0.33127 -0.02100
C 	C 	0.39700 0.58993 0.42247 -0.53600
H 	H 	0.37883 0.58147 0.36977 0.27500
C 	C 	0.39095 0.57238 0.52297 0.72300
C 	C 	0.41849 0.58589 0.60017 -0.52300
H 	H 	0.41483 0.57447 0.66837 0.26100
C 	C 	0.45130 0.61605 0.57777 0.29500
H 	H 	0.46943 0.62447 0.63047 -0.01000
C 	C 	0.35547 0.53933 0.54767 -1.45000
H 	H 	0.35953 0.52067 0.57437 0.55600
H 	H 	0.34293 0.54477 0.60317 0.47200
H 	H 	0.34133 0.53147 0.48137 0.54200
C 	C 	0.64535 0.69303 0.28297 1.16200
C 	C 	0.66772 0.73386 0.26517 0.03600
C 	C 	0.70399 0.74896 0.24167 0.00400
H 	H 	0.71413 0.73437 0.23727 0.20000
C 	C 	0.72524 0.78560 0.22457 0.07900
C 	C 	0.76531 0.80132 0.20477 0.86100
C 	C 	0.67233 0.74174 0.90857 0.85200
C 	C 	0.67719 0.77612 0.96347 0.10400
C 	C 	0.69883 0.80925 0.91297 -0.05600
H 	H 	0.71073 0.81047 0.84747 0.17700
C 	C 	0.70256 0.84047 0.96087 0.06900
C 	C 	0.72489 0.87587 0.89947 0.86300
C 	C 	0.58422 0.85216 0.10377 0.84300
C 	C 	0.59310 0.82267 0.12817 0.06500
C 	C 	0.56562 0.78746 0.11567 -0.04700
H 	H 	0.54293 0.78287 0.09487 0.14100
C 	C 	0.57159 0.75905 0.13357 0.08500
C 	C 	0.53977 0.72065 0.11527 0.86800
F 	F 	0.65398 0.67644 0.20997 -0.24700
F 	F 	0.65686 0.68554 0.37747 -0.27200
F 	F 	0.61253 0.68083 0.29627 -0.27600
Gd	Gd	0.34057 0.19520 0.79906 1.77300
F 	F 	0.33800 0.32453 0.72253 -0.23800
F 	F 	0.37331 0.31582 0.63063 -0.29200
F 	F 	0.37856 0.32086 0.80343 -0.27500
F 	F 	0.22568 0.18378 0.89513 -0.48000
F 	F 	0.22396 0.22245 0.79253 -0.40700
F 	F 	0.21549 0.17374 0.72223 -0.44000
F 	F 	0.36145 0.28044 0.11610 -0.38300
F 	F 	0.31730 0.27536 0.02256 -0.39700
F 	F 	0.30884 0.25218 0.18367 -0.39300
F 	F 	0.24488 0.10407 0.04823 -0.48200
F 	F 	0.26870 0.12763 0.20385 -0.47000
F 	F 	0.29110 0.10401 0.09850 -0.42400
F 	F 	0.40205 0.13261 0.99404 -0.39900
F 	F 	0.45045 0.15893 0.89983 -0.41100
F 	F 	0.40100 0.12156 0.82241 -0.39400
F 	F 	0.46398 0.28739 0.99033 -0.42300
F 	F 	0.49123 0.28297 0.84963 -0.48000
F 	F 	0.45580 0.30297 0.83073 -0.39300
O 	O 	0.35958 0.19455 0.61658 -0.51700
O 	O 	0.34962 0.25022 0.72382 -0.22300
O 	O 	0.28456 0.19117 0.77763 -0.28400
O 	O 	0.33964 0.22988 0.94861 -0.24000
O 	O 	0.31065 0.15685 0.95014 -0.26400
O 	O 	0.37457 0.16584 0.84364 -0.25500
O 	O 	0.40016 0.23925 0.83824 -0.24900
N 	N 	0.35471 0.24242 0.48091 -0.05900
N 	N 	0.48304 0.31932 0.48013 -0.11300
C 	C 	0.38772 0.24874 0.51303 0.03600
C 	C 	0.39000 0.22264 0.57913 0.25500
C 	C 	0.42361 0.22791 0.60013 -0.16400
H 	H 	0.42597 0.21023 0.63683 0.14300
C 	C 	0.45460 0.25963 0.56713 0.02400
H 	H 	0.47697 0.26243 0.58303 0.06700
C 	C 	0.45272 0.28662 0.51213 0.08400
C 	C 	0.41863 0.28078 0.47883 0.06800
C 	C 	0.41315 0.30479 0.41323 0.04400
H 	H 	0.43287 0.32623 0.39013 0.12700
C 	C 	0.37950 0.29708 0.38323 0.01400
H 	H 	0.37627 0.31303 0.33943 0.20600
C 	C 	0.35007 0.26527 0.41843 0.12900
H 	H 	0.32707 0.25993 0.39823 0.17800
C 	C 	0.50877 0.33399 0.54833 0.13400
H 	H 	0.50597 0.32373 0.61793 0.06500
C 	C 	0.54290 0.36653 0.52243 -0.19700
C 	C 	0.57003 0.37996 0.60033 0.30900
H 	H 	0.56617 0.36873 0.66873 -0.02100
C 	C 	0.60300 0.41007 0.57753 -0.53600
H 	H 	0.62117 0.41853 0.63023 0.27500
C 	C 	0.60905 0.42762 0.47703 0.72300
C 	C 	0.58151 0.41411 0.39983 -0.52300
H 	H 	0.58517 0.42553 0.33163 0.26100
C 	C 	0.54870 0.38395 0.42223 0.29500
H 	H 	0.53057 0.37553 0.36953 -0.01000
C 	C 	0.64453 0.46067 0.45233 -1.45000
H 	H 	0.64047 0.47933 0.42563 0.55600
H 	H 	0.65707 0.45523 0.39683 0.47200
H 	H 	0.65867 0.46853 0.51863 0.54200
C 	C 	0.35465 0.30697 0.71703 1.16200
C 	C 	0.33228 0.26614 0.73483 0.03600
C 	C 	0.29601 0.25104 0.75833 0.00400
H 	H 	0.28587 0.26563 0.76273 0.20000
C 	C 	0.27476 0.21440 0.77543 0.07900
C 	C 	0.23469 0.19868 0.79523 0.86100
C 	C 	0.32767 0.25826 0.09143 0.85200
C 	C 	0.32281 0.22388 0.03653 0.10400
C 	C 	0.30117 0.19075 0.08703 -0.05600
H 	H 	0.28927 0.18953 0.15253 0.17700
C 	C 	0.29744 0.15953 0.03913 0.06900
C 	C 	0.27511 0.12413 0.10053 0.86300
C 	C 	0.41578 0.14784 0.89623 0.84300
C 	C 	0.40690 0.17733 0.87183 0.06500
C 	C 	0.43438 0.21254 0.88433 -0.04700
H 	H 	0.45707 0.21713 0.90513 0.14100
C 	C 	0.42841 0.24095 0.86643 0.08500
C 	C 	0.46023 0.27935 0.88473 0.86800
F 	F 	0.34602 0.32356 0.79003 -0.24700
F 	F 	0.34314 0.31446 0.62253 -0.27200
F 	F 	0.38747 0.31917 0.70373 -0.27600
Gd	Gd	0.32610 0.13813 0.53428 1.77300
F 	F 	0.32867 0.00880 0.61080 -0.23800
F 	F 	0.29336 0.01751 0.70270 -0.29200
F 	F 	0.28811 0.01247 0.52990 -0.27500
F 	F 	0.44099 0.14955 0.43820 -0.48000
F 	F 	0.44271 0.11088 0.54080 -0.40700
F 	F 	0.45118 0.15959 0.61110 -0.44000
F 	F 	0.30522 0.05289 0.21723 -0.38300
F 	F 	0.34937 0.05797 0.31077 -0.39700
F 	F 	0.35783 0.08115 0.14966 -0.39300
F 	F 	0.42179 0.22926 0.28510 -0.48100
F 	F 	0.39797 0.20570 0.12948 -0.47000
F 	F 	0.37557 0.22932 0.23483 -0.42400
F 	F 	0.26462 0.20072 0.33929 -0.39900
F 	F 	0.21622 0.17440 0.43350 -0.41100
F 	F 	0.26567 0.21177 0.51092 -0.39400
F 	F 	0.20269 0.04594 0.34300 -0.42400
F 	F 	0.17544 0.05036 0.48370 -0.48000
F 	F 	0.21087 0.03036 0.50260 -0.39400
O 	O 	0.30709 0.13878 0.71675 -0.51700
O 	O 	0.31705 0.08311 0.60951 -0.22300
O 	O 	0.38211 0.14216 0.55570 -0.28400
O 	O 	0.32703 0.10345 0.38472 -0.24100
O 	O 	0.35602 0.17648 0.38319 -0.26500
O 	O 	0.29210 0.16749 0.48969 -0.25500
O 	O 	0.26651 0.09408 0.49509 -0.24900
N 	N 	0.31196 0.09091 0.85242 -0.05900
N 	N 	0.18363 0.01401 0.85320 -0.11300
C 	C 	0.27895 0.08459 0.82030 0.03600
C 	C 	0.27667 0.11069 0.75420 0.25500
C 	C 	0.24306 0.10542 0.73320 -0.16400
H 	H 	0.24070 0.12310 0.69650 0.14300
C 	C 	0.21207 0.07370 0.76620 0.02400
H 	H 	0.18970 0.07090 0.75030 0.06700
C 	C 	0.21395 0.04671 0.82120 0.08400
C 	C 	0.24804 0.05255 0.85450 0.06800
C 	C 	0.25352 0.02854 0.92010 0.04400
H 	H 	0.23380 0.00710 0.94320 0.12700
C 	C 	0.28717 0.03625 0.95010 0.01400
H 	H 	0.29040 0.02030 0.99390 0.20600
C 	C 	0.31660 0.06806 0.91490 0.12900
H 	H 	0.33960 0.07340 0.93510 0.17800
C 	C 	0.15790 0.99934 0.78500 0.13400
H 	H 	0.16070 0.00960 0.71540 0.06400
C 	C 	0.12377 0.96680 0.81090 -0.19700
C 	C 	0.09664 0.95337 0.73300 0.30900
H 	H 	0.10050 0.96460 0.66460 -0.02100
C 	C 	0.06367 0.92326 0.75580 -0.53700
H 	H 	0.04550 0.91480 0.70310 0.27500
C 	C 	0.05762 0.90571 0.85630 0.72300
C 	C 	0.08516 0.91922 0.93350 -0.52300
H 	H 	0.08150 0.90780 0.00170 0.26100
C 	C 	0.11797 0.94938 0.91110 0.29500
H 	H 	0.13610 0.95780 0.96380 -0.01000
C 	C 	0.02214 0.87266 0.88100 -1.45100
H 	H 	0.02620 0.85400 0.90770 0.55600
H 	H 	0.00960 0.87810 0.93650 0.47200
H 	H 	0.00800 0.86480 0.81470 0.54200
C 	C 	0.31202 0.02636 0.61630 1.16200
C 	C 	0.33439 0.06719 0.59850 0.03600
C 	C 	0.37066 0.08229 0.57500 0.00400
H 	H 	0.38080 0.06770 0.57060 0.20000
C 	C 	0.39191 0.11893 0.55790 0.07900
C 	C 	0.43198 0.13465 0.53810 0.86100
C 	C 	0.33900 0.07507 0.24190 0.85200
C 	C 	0.34386 0.10945 0.29680 0.10600
C 	C 	0.36550 0.14258 0.24630 -0.05800
H 	H 	0.37740 0.14380 0.18080 0.17700
C 	C 	0.36923 0.17380 0.29420 0.07100
C 	C 	0.39156 0.20920 0.23280 0.86200
C 	C 	0.25089 0.18549 0.43710 0.84300
C 	C 	0.25977 0.15600 0.46150 0.06500
C 	C 	0.23229 0.12079 0.44900 -0.04600
H 	H 	0.20960 0.11620 0.42820 0.14100
C 	C 	0.23826 0.09238 0.46690 0.08400
C 	C 	0.20644 0.05398 0.44860 0.86800
F 	F 	0.32065 0.00977 0.54330 -0.24700
F 	F 	0.32353 0.01887 0.71080 -0.27200
F 	F 	0.27920 0.01416 0.62960 -0.27600
Gd	Gd	0.00723 0.52853 0.13239 1.77300
F 	F 	0.00466 0.65787 0.05587 -0.23800
F 	F 	0.03997 0.64916 0.96397 -0.29200
F 	F 	0.04522 0.65420 0.13677 -0.27500
F 	F 	0.89234 0.51712 0.22847 -0.48000
F 	F 	0.89062 0.55579 0.12587 -0.40800
F 	F 	0.88215 0.50708 0.05557 -0.44000
F 	F 	0.02811 0.61378 0.44944 -0.38300
F 	F 	0.98396 0.60870 0.35590 -0.39700
F 	F 	0.97550 0.58552 0.51701 -0.39300
F 	F 	0.91154 0.43741 0.38157 -0.48100
F 	F 	0.93536 0.46097 0.53719 -0.47000
F 	F 	0.95776 0.43735 0.43184 -0.42400
F 	F 	0.06871 0.46595 0.32738 -0.39900
F 	F 	0.11711 0.49227 0.23317 -0.41100
F 	F 	0.06766 0.45490 0.15575 -0.39400
F 	F 	0.13064 0.62073 0.32367 -0.42400
F 	F 	0.15789 0.61631 0.18297 -0.48000
F 	F 	0.12246 0.63631 0.16407 -0.39300
O 	O 	0.02624 0.52789 0.94992 -0.51700
O 	O 	0.01628 0.58356 0.05716 -0.22300
O 	O 	0.95122 0.52451 0.11097 -0.28400
O 	O 	0.00630 0.56322 0.28195 -0.24100
O 	O 	0.97731 0.49019 0.28348 -0.26500
O 	O 	0.04123 0.49918 0.17698 -0.25500
O 	O 	0.06682 0.57259 0.17158 -0.24800
N 	N 	0.02137 0.57576 0.81425 -0.05900
N 	N 	0.14970 0.65266 0.81347 -0.11200
C 	C 	0.05438 0.58208 0.84637 0.03600
C 	C 	0.05666 0.55598 0.91247 0.25500
C 	C 	0.09027 0.56125 0.93347 -0.16400
H 	H 	0.09263 0.54357 0.97017 0.14300
C 	C 	0.12126 0.59297 0.90047 0.02400
H 	H 	0.14363 0.59577 0.91637 0.06600
C 	C 	0.11938 0.61996 0.84547 0.08400
C 	C 	0.08529 0.61412 0.81217 0.06800
C 	C 	0.07981 0.63813 0.74657 0.04400
H 	H 	0.09953 0.65957 0.72347 0.12700
C 	C 	0.04616 0.63042 0.71657 0.01400
H 	H 	0.04293 0.64637 0.67277 0.20600
C 	C 	0.01673 0.59861 0.75177 0.12900
H 	H 	0.99373 0.59327 0.73157 0.17800
C 	C 	0.17543 0.66733 0.88167 0.13000
H 	H 	0.17263 0.65707 0.95127 0.06500
C 	C 	0.20956 0.69987 0.85577 -0.19000
C 	C 	0.23669 0.71330 0.93367 0.29600
H 	H 	0.23283 0.70207 0.00207 -0.01400
C 	C 	0.26966 0.74341 0.91087 -0.52800
H 	H 	0.28783 0.75187 0.96357 0.27100
C 	C 	0.27571 0.76096 0.81037 0.71600
C 	C 	0.24817 0.74745 0.73317 -0.51600
H 	H 	0.25183 0.75887 0.66497 0.25800
C 	C 	0.21536 0.71729 0.75557 0.28900
H 	H 	0.19723 0.70887 0.70287 -0.00800
C 	C 	0.31119 0.79401 0.78567 -1.44200
H 	H 	0.30713 0.81267 0.75897 0.55300
H 	H 	0.32373 0.78857 0.73017 0.46900
H 	H 	0.32533 0.80187 0.85197 0.53900
C 	C 	0.02131 0.64031 0.05037 1.16100
C 	C 	0.99894 0.59948 0.06817 0.03600
C 	C 	0.96267 0.58438 0.09167 0.00400
H 	H 	0.95253 0.59897 0.09607 0.20000
C 	C 	0.94142 0.54774 0.10877 0.07900
C 	C 	0.90135 0.53202 0.12857 0.86100
C 	C 	0.99433 0.59160 0.42477 0.85200
C 	C 	0.98947 0.55722 0.36987 0.10600
C 	C 	0.96783 0.52409 0.42037 -0.05800
H 	H 	0.95593 0.52287 0.48587 0.17700
C 	C 	0.96410 0.49287 0.37247 0.07100
C 	C 	0.94177 0.45747 0.43387 0.86200
C 	C 	0.08244 0.48118 0.22957 0.84300
C 	C 	0.07356 0.51067 0.20517 0.06500
C 	C 	0.10104 0.54588 0.21767 -0.04600
H 	H 	0.12373 0.55047 0.23847 0.14100
C 	C 	0.09507 0.57429 0.19977 0.08500
C 	C 	0.12689 0.61269 0.21807 0.86800
F 	F 	0.01268 0.65690 0.12337 -0.24700
F 	F 	0.00980 0.64780 0.95587 -0.27200
F 	F 	0.05413 0.65251 0.03707 -0.27600
Gd	Gd	0.99277 0.47147 0.86761 1.77300
F 	F 	0.99534 0.34213 0.94413 -0.23800
F 	F 	0.96003 0.35084 0.03603 -0.29200
F 	F 	0.95478 0.34580 0.86323 -0.27500
F 	F 	0.10766 0.48288 0.77153 -0.48000
F 	F 	0.10938 0.44421 0.87413 -0.40800
F 	F 	0.11785 0.49292 0.94443 -0.44000
F 	F 	0.97189 0.38622 0.55056 -0.38300
F 	F 	0.01604 0.39130 0.64410 -0.39700
F 	F 	0.02450 0.41448 0.48299 -0.39300
F 	F 	0.08846 0.56259 0.61843 -0.48100
F 	F 	0.06464 0.53903 0.46281 -0.47000
F 	F 	0.04224 0.56265 0.56816 -0.42400
F 	F 	0.93129 0.53405 0.67262 -0.39900
F 	F 	0.88289 0.50773 0.76683 -0.41100
F 	F 	0.93234 0.54510 0.84425 -0.39400
F 	F 	0.86936 0.37927 0.67633 -0.42400
F 	F 	0.84211 0.38369 0.81703 -0.48000
F 	F 	0.87754 0.36369 0.83593 -0.39300
O 	O 	0.97376 0.47211 0.05008 -0.51700
O 	O 	0.98372 0.41644 0.94284 -0.22300
O 	O 	0.04878 0.47549 0.88903 -0.28400
O 	O 	0.99370 0.43678 0.71805 -0.24100
O 	O 	0.02269 0.50981 0.71652 -0.26500
O 	O 	0.95877 0.50082 0.82302 -0.25500
O 	O 	0.93318 0.42741 0.82842 -0.24800
N 	N 	0.97863 0.42424 0.18575 -0.05900
N 	N 	0.85030 0.34734 0.18653 -0.11200
C 	C 	0.94562 0.41792 0.15363 0.03600
C 	C 	0.94334 0.44402 0.08753 0.25500
C 	C 	0.90973 0.43875 0.06653 -0.16400
H 	H 	0.90737 0.45643 0.02983 0.14300
C 	C 	0.87874 0.40703 0.09953 0.02400
H 	H 	0.85637 0.40423 0.08363 0.06600
C 	C 	0.88062 0.38004 0.15453 0.08400
C 	C 	0.91471 0.38588 0.18783 0.06800
C 	C 	0.92019 0.36187 0.25343 0.04400
H 	H 	0.90047 0.34043 0.27653 0.12700
C 	C 	0.95384 0.36958 0.28343 0.01400
H 	H 	0.95707 0.35363 0.32723 0.20600
C 	C 	0.98327 0.40139 0.24823 0.12900
H 	H 	0.00627 0.40673 0.26843 0.17800
C 	C 	0.82457 0.33267 0.11833 0.13000
H 	H 	0.82737 0.34293 0.04873 0.06500
C 	C 	0.79044 0.30013 0.14423 -0.19000
C 	C 	0.76331 0.28670 0.06633 0.29600
H 	H 	0.76717 0.29793 0.99793 -0.01400
C 	C 	0.73034 0.25659 0.08913 -0.52800
H 	H 	0.71217 0.24813 0.03643 0.27100
C 	C 	0.72429 0.23904 0.18963 0.71600
C 	C 	0.75183 0.25255 0.26683 -0.51600
H 	H 	0.74817 0.24113 0.33503 0.25800
C 	C 	0.78464 0.28271 0.24443 0.28900
H 	H 	0.80277 0.29113 0.29713 -0.00800
C 	C 	0.68881 0.20599 0.21433 -1.44200
H 	H 	0.69287 0.18733 0.24103 0.55300
H 	H 	0.67627 0.21143 0.26983 0.46900
H 	H 	0.67467 0.19813 0.14803 0.53900
C 	C 	0.97869 0.35969 0.94963 1.16100
C 	C 	0.00106 0.40052 0.93183 0.03600
C 	C 	0.03733 0.41562 0.90833 0.00400
H 	H 	0.04747 0.40103 0.90393 0.20000
C 	C 	0.05858 0.45226 0.89123 0.07900
C 	C 	0.09865 0.46798 0.87143 0.86100
C 	C 	0.00567 0.40840 0.57523 0.85200
C 	C 	0.01053 0.44278 0.63013 0.10600
C 	C 	0.03217 0.47591 0.57963 -0.05800
H 	H 	0.04407 0.47713 0.51413 0.17700
C 	C 	0.03590 0.50713 0.62753 0.07100
C 	C 	0.05823 0.54253 0.56613 0.86200
C 	C 	0.91756 0.51882 0.77043 0.84300
C 	C 	0.92644 0.48933 0.79483 0.06500
C 	C 	0.89896 0.45412 0.78233 -0.04600
H 	H 	0.87627 0.44953 0.76153 0.14100
C 	C 	0.90493 0.42571 0.80023 0.08500
C 	C 	0.87311 0.38731 0.78193 0.86800
F 	F 	0.98732 0.34310 0.87663 -0.24700
F 	F 	0.99020 0.35220 0.04413 -0.27200
F 	F 	0.94587 0.34749 0.96293 -0.27600
Gd	Gd	0.13813 0.81203 0.46572 1.77300
F 	F 	0.00880 0.68013 0.38920 -0.23800
F 	F 	0.01751 0.72415 0.29730 -0.29200
F 	F 	0.01247 0.72436 0.47010 -0.27500
F 	F 	0.14955 0.70856 0.56180 -0.48000
F 	F 	0.11088 0.66817 0.45920 -0.40700
F 	F 	0.15959 0.70841 0.38890 -0.44000
F 	F 	0.05289 0.74767 0.78277 -0.38300
F 	F 	0.05797 0.70860 0.68923 -0.39700
F 	F 	0.08115 0.72332 0.85034 -0.39300
F 	F 	0.22926 0.80747 0.71490 -0.48200
F 	F 	0.20570 0.80773 0.87052 -0.47000
F 	F 	0.22932 0.85375 0.76517 -0.42400
F 	F 	0.20072 0.93610 0.66071 -0.39900
F 	F 	0.17440 0.95818 0.56650 -0.41100
F 	F 	0.21177 0.94610 0.48908 -0.39400
F 	F 	0.04594 0.84325 0.65700 -0.42400
F 	F 	0.05036 0.87492 0.51630 -0.48000
F 	F 	0.03036 0.81949 0.49740 -0.39400
O 	O 	0.13878 0.83169 0.28325 -0.51700
O 	O 	0.08311 0.76606 0.39049 -0.22300
O 	O 	0.14216 0.76005 0.44430 -0.28400
O 	O 	0.10345 0.77642 0.61528 -0.24100
O 	O 	0.17648 0.82046 0.61681 -0.26500
O 	O 	0.16749 0.87539 0.51031 -0.25500
O 	O 	0.09408 0.82757 0.50491 -0.24900
N 	N 	0.09091 0.77895 0.14758 -0.05900
N 	N 	0.01401 0.83038 0.14680 -0.11300
C 	C 	0.08459 0.80564 0.17970 0.03600
C 	C 	0.11069 0.83402 0.24580 0.25500
C 	C 	0.10542 0.86236 0.26680 -0.16400
H 	H 	0.12310 0.88240 0.30350 0.14300
C 	C 	0.07370 0.86163 0.23380 0.02400
H 	H 	0.07090 0.88120 0.24970 0.06700
C 	C 	0.04671 0.83276 0.17880 0.08400
C 	C 	0.05255 0.80451 0.14550 0.06800
C 	C 	0.02854 0.77502 0.07990 0.04400
H 	H 	0.00710 0.77330 0.05680 0.12700
C 	C 	0.03625 0.74908 0.04990 0.01400
H 	H 	0.02030 0.72990 0.00610 0.20600
C 	C 	0.06806 0.75146 0.08510 0.12900
H 	H 	0.07340 0.73380 0.06490 0.17800
C 	C 	0.99934 0.84144 0.21500 0.13400
H 	H 	0.00960 0.84890 0.28460 0.06400
C 	C 	0.96680 0.84303 0.18910 -0.19700
C 	C 	0.95337 0.85673 0.26700 0.31000
H 	H 	0.96460 0.86410 0.33540 -0.02100
C 	C 	0.92326 0.85959 0.24420 -0.53700
H 	H 	0.91480 0.86930 0.29690 0.27500
C 	C 	0.90571 0.84809 0.14370 0.72400
C 	C 	0.91922 0.83406 0.06650 -0.52400
H 	H 	0.90780 0.82630 0.99830 0.26100
C 	C 	0.94938 0.83141 0.08890 0.29600
H 	H 	0.95780 0.82170 0.03620 -0.01100
C 	C 	0.87266 0.85052 0.11900 -1.45100
H 	H 	0.85400 0.82780 0.09230 0.55600
H 	H 	0.87810 0.86850 0.06350 0.47200
H 	H 	0.86480 0.85680 0.18530 0.54200
C 	C 	0.02636 0.71434 0.38370 1.16200
C 	C 	0.06719 0.73280 0.40150 0.03600
C 	C 	0.08229 0.71163 0.42500 0.00400
H 	H 	0.06770 0.68690 0.42940 0.20000
C 	C 	0.11893 0.72702 0.44210 0.07900
C 	C 	0.13465 0.70267 0.46190 0.86100
C 	C 	0.07507 0.73607 0.75810 0.85200
C 	C 	0.10945 0.76559 0.70320 0.10600
C 	C 	0.14258 0.77708 0.75370 -0.05800
H 	H 	0.14380 0.76640 0.81920 0.17700
C 	C 	0.17380 0.80457 0.70580 0.07100
C 	C 	0.20920 0.81764 0.76720 0.86200
C 	C 	0.18549 0.93460 0.56290 0.84300
C 	C 	0.15600 0.89623 0.53850 0.06500
C 	C 	0.12079 0.88850 0.55100 -0.04600
H 	H 	0.11620 0.90660 0.57180 0.14100
C 	C 	0.09238 0.85412 0.53310 0.08400
C 	C 	0.05398 0.84754 0.55140 0.86800
F 	F 	0.00977 0.68912 0.45670 -0.24700
F 	F 	0.01887 0.69534 0.28920 -0.27200
F 	F 	0.01416 0.73496 0.37040 -0.27600
Gd	Gd	0.19520 0.85463 0.20094 1.77300
F 	F 	0.32453 0.98654 0.27747 -0.23800
F 	F 	0.31582 0.94252 0.36937 -0.29200
F 	F 	0.32086 0.94231 0.19657 -0.27500
F 	F 	0.18378 0.95811 0.10487 -0.48000
F 	F 	0.22245 0.99850 0.20747 -0.40700
F 	F 	0.17374 0.95826 0.27777 -0.44000
F 	F 	0.28044 0.91900 0.88390 -0.38300
F 	F 	0.27536 0.95807 0.97744 -0.39700
F 	F 	0.25218 0.94335 0.81633 -0.39300
F 	F 	0.10407 0.85920 0.95177 -0.48200
F 	F 	0.12763 0.85894 0.79615 -0.47000
F 	F 	0.10401 0.81292 0.90150 -0.42400
F 	F 	0.13261 0.73057 0.00596 -0.39900
F 	F 	0.15893 0.70849 0.10017 -0.41100
F 	F 	0.12156 0.72057 0.17759 -0.39400
F 	F 	0.28739 0.82342 0.00967 -0.42300
F 	F 	0.28297 0.79175 0.15037 -0.48000
F 	F 	0.30297 0.84718 0.16927 -0.39300
O 	O 	0.19455 0.83498 0.38342 -0.51700
O 	O 	0.25022 0.90061 0.27618 -0.22300
O 	O 	0.19117 0.90662 0.22237 -0.28400
O 	O 	0.22988 0.89025 0.05139 -0.24000
O 	O 	0.15685 0.84621 0.04986 -0.26400
O 	O 	0.16584 0.79128 0.15636 -0.25500
O 	O 	0.23925 0.83910 0.16176 -0.24900
N 	N 	0.24242 0.88772 0.51909 -0.05900
N 	N 	0.31932 0.83629 0.51987 -0.11300
C 	C 	0.24874 0.86103 0.48697 0.03600
C 	C 	0.22264 0.83265 0.42087 0.25500
C 	C 	0.22791 0.80431 0.39987 -0.16400
H 	H 	0.21023 0.78427 0.36317 0.14300
C 	C 	0.25963 0.80504 0.43287 0.02400
H 	H 	0.26243 0.78547 0.41697 0.06700
C 	C 	0.28662 0.83391 0.48787 0.08400
C 	C 	0.28078 0.86216 0.52117 0.06800
C 	C 	0.30479 0.89165 0.58677 0.04400
H 	H 	0.32623 0.89337 0.60987 0.12700
C 	C 	0.29708 0.91759 0.61677 0.01400
H 	H 	0.31303 0.93677 0.66057 0.20600
C 	C 	0.26527 0.91521 0.58157 0.12900
H 	H 	0.25993 0.93287 0.60177 0.17800
C 	C 	0.33399 0.82523 0.45167 0.13400
H 	H 	0.32373 0.81777 0.38207 0.06500
C 	C 	0.36653 0.82364 0.47757 -0.19700
C 	C 	0.37996 0.80994 0.39967 0.30900
H 	H 	0.36873 0.80257 0.33127 -0.02100
C 	C 	0.41007 0.80708 0.42247 -0.53600
H 	H 	0.41853 0.79737 0.36977 0.27500
C 	C 	0.42762 0.81858 0.52297 0.72300
C 	C 	0.41411 0.83261 0.60017 -0.52300
H 	H 	0.42553 0.84037 0.66837 0.26100
C 	C 	0.38395 0.83526 0.57777 0.29500
H 	H 	0.37553 0.84497 0.63047 -0.01000
C 	C 	0.46067 0.81615 0.54767 -1.45000
H 	H 	0.47933 0.83887 0.57437 0.55600
H 	H 	0.45523 0.79817 0.60317 0.47200
H 	H 	0.46853 0.80987 0.48137 0.54200
C 	C 	0.30697 0.95233 0.28297 1.16200
C 	C 	0.26614 0.93387 0.26517 0.03600
C 	C 	0.25104 0.95504 0.24167 0.00400
H 	H 	0.26563 0.97977 0.23727 0.20000
C 	C 	0.21440 0.93965 0.22457 0.07900
C 	C 	0.19868 0.96400 0.20477 0.86100
C 	C 	0.25826 0.93060 0.90857 0.85200
C 	C 	0.22388 0.90108 0.96347 0.10500
C 	C 	0.19075 0.88959 0.91297 -0.05700
H 	H 	0.18953 0.90027 0.84747 0.17700
C 	C 	0.15953 0.86210 0.96087 0.06900
C 	C 	0.12413 0.84903 0.89947 0.86300
C 	C 	0.14784 0.73207 0.10377 0.84300
C 	C 	0.17733 0.77044 0.12817 0.06500
C 	C 	0.21254 0.77817 0.11567 -0.04700
H 	H 	0.21713 0.76007 0.09487 0.14100
C 	C 	0.24095 0.81255 0.13357 0.08500
C 	C 	0.27935 0.81913 0.11527 0.86800
F 	F 	0.32356 0.97755 0.20997 -0.24700
F 	F 	0.31446 0.97133 0.37747 -0.27200
F 	F 	0.31917 0.93171 0.29627 -0.27600
Gd	Gd	0.80480 0.14537 0.79906 1.77300
F 	F 	0.67547 0.01346 0.72253 -0.23800
F 	F 	0.68418 0.05748 0.63063 -0.29200
F 	F 	0.67914 0.05769 0.80343 -0.27500
F 	F 	0.81622 0.04189 0.89513 -0.48000
F 	F 	0.77755 0.00150 0.79253 -0.40700
F 	F 	0.82626 0.04174 0.72223 -0.44000
F 	F 	0.71956 0.08100 0.11610 -0.38300
F 	F 	0.72464 0.04193 0.02256 -0.39700
F 	F 	0.74782 0.05665 0.18367 -0.39300
F 	F 	0.89593 0.14080 0.04823 -0.48200
F 	F 	0.87237 0.14106 0.20385 -0.47000
F 	F 	0.89599 0.18708 0.09850 -0.42400
F 	F 	0.86739 0.26943 0.99404 -0.39900
F 	F 	0.84107 0.29151 0.89983 -0.41100
F 	F 	0.87844 0.27943 0.82241 -0.39400
F 	F 	0.71261 0.17658 0.99033 -0.42300
F 	F 	0.71703 0.20825 0.84963 -0.48000
F 	F 	0.69703 0.15282 0.83073 -0.39300
O 	O 	0.80545 0.16502 0.61658 -0.51700
O 	O 	0.74978 0.09939 0.72382 -0.22300
O 	O 	0.80883 0.09338 0.77763 -0.28400
O 	O 	0.77012 0.10975 0.94861 -0.24000
O 	O 	0.84315 0.15379 0.95014 -0.26400
O 	O 	0.83416 0.20872 0.84364 -0.25500
O 	O 	0.76075 0.16090 0.83824 -0.24900
N 	N 	0.75758 0.11228 0.48091 -0.05900
N 	N 	0.68068 0.16371 0.48013 -0.11300
C 	C 	0.75126 0.13897 0.51303 0.03600
C 	C 	0.77736 0.16735 0.57913 0.25500
C 	C 	0.77209 0.19569 0.60013 -0.16400
H 	H 	0.78977 0.21573 0.63683 0.14300
C 	C 	0.74037 0.19496 0.56713 0.02400
H 	H 	0.73757 0.21453 0.58303 0.06700
C 	C 	0.71338 0.16609 0.51213 0.08400
C 	C 	0.71922 0.13784 0.47883 0.06800
C 	C 	0.69521 0.10835 0.41323 0.04400
H 	H 	0.67377 0.10663 0.39013 0.12700
C 	C 	0.70292 0.08241 0.38323 0.01400
H 	H 	0.68697 0.06323 0.33943 0.20600
C 	C 	0.73473 0.08479 0.41843 0.12900
H 	H 	0.74007 0.06713 0.39823 0.17800
C 	C 	0.66601 0.17477 0.54833 0.13400
H 	H 	0.67627 0.18223 0.61793 0.06500
C 	C 	0.63347 0.17636 0.52243 -0.19700
C 	C 	0.62004 0.19006 0.60033 0.30900
H 	H 	0.63127 0.19743 0.66873 -0.02100
C 	C 	0.58993 0.19292 0.57753 -0.53600
H 	H 	0.58147 0.20263 0.63023 0.27500
C 	C 	0.57238 0.18142 0.47703 0.72300
C 	C 	0.58589 0.16739 0.39983 -0.52300
H 	H 	0.57447 0.15963 0.33163 0.26100
C 	C 	0.61605 0.16474 0.42223 0.29500
H 	H 	0.62447 0.15503 0.36953 -0.01000
C 	C 	0.53933 0.18385 0.45233 -1.45000
H 	H 	0.52067 0.16113 0.42563 0.55600
H 	H 	0.54477 0.20183 0.39683 0.47200
H 	H 	0.53147 0.19013 0.51863 0.54200
C 	C 	0.69303 0.04767 0.71703 1.16200
C 	C 	0.73386 0.06613 0.73483 0.03600
C 	C 	0.74896 0.04496 0.75833 0.00400
H 	H 	0.73437 0.02023 0.76273 0.20000
C 	C 	0.78560 0.06035 0.77543 0.07900
C 	C 	0.80132 0.03600 0.79523 0.86100
C 	C 	0.74174 0.06940 0.09143 0.85200
C 	C 	0.77612 0.09892 0.03653 0.10500
C 	C 	0.80925 0.11041 0.08703 -0.05700
H 	H 	0.81047 0.09973 0.15253 0.17700
C 	C 	0.84047 0.13790 0.03913 0.06900
C 	C 	0.87587 0.15097 0.10053 0.86300
C 	C 	0.85216 0.26793 0.89623 0.84300
C 	C 	0.82267 0.22956 0.87183 0.06500
C 	C 	0.78746 0.22183 0.88433 -0.04700
H 	H 	0.78287 0.23993 0.90513 0.14100
C 	C 	0.75905 0.18745 0.86643 0.08500
C 	C 	0.72065 0.18087 0.88473 0.86800
F 	F 	0.67644 0.02245 0.79003 -0.24700
F 	F 	0.68554 0.02867 0.62253 -0.27200
F 	F 	0.68083 0.06829 0.70373 -0.27600
Gd	Gd	0.86187 0.18796 0.53428 1.77300
F 	F 	0.99120 0.31987 0.61080 -0.23800
F 	F 	0.98249 0.27585 0.70270 -0.29200
F 	F 	0.98753 0.27564 0.52990 -0.27500
F 	F 	0.85045 0.29144 0.43820 -0.48000
F 	F 	0.88912 0.33183 0.54080 -0.40700
F 	F 	0.84041 0.29159 0.61110 -0.44000
F 	F 	0.94711 0.25233 0.21723 -0.38300
F 	F 	0.94203 0.29140 0.31077 -0.39700
F 	F 	0.91885 0.27668 0.14966 -0.39300
F 	F 	0.77074 0.19253 0.28510 -0.48200
F 	F 	0.79430 0.19227 0.12948 -0.47000
F 	F 	0.77068 0.14625 0.23483 -0.42400
F 	F 	0.79928 0.06390 0.33929 -0.39900
F 	F 	0.82560 0.04182 0.43350 -0.41100
F 	F 	0.78823 0.05390 0.51092 -0.39400
F 	F 	0.95406 0.15675 0.34300 -0.42400
F 	F 	0.94964 0.12508 0.48370 -0.48000
F 	F 	0.96964 0.18051 0.50260 -0.39400
O 	O 	0.86122 0.16831 0.71675 -0.51700
O 	O 	0.91689 0.23394 0.60951 -0.22300
O 	O 	0.85784 0.23995 0.55570 -0.28400
O 	O 	0.89655 0.22358 0.38472 -0.24100
O 	O 	0.82352 0.17954 0.38319 -0.26500
O 	O 	0.83251 0.12461 0.48969 -0.25500
O 	O 	0.90592 0.17243 0.49509 -0.24900
N 	N 	0.90909 0.22105 0.85242 -0.05900
N 	N 	0.98599 0.16962 0.85320 -0.11300
C 	C 	0.91541 0.19436 0.82030 0.03600
C 	C 	0.88931 0.16598 0.75420 0.25500
C 	C 	0.89458 0.13764 0.73320 -0.16400
H 	H 	0.87690 0.11760 0.69650 0.14300
C 	C 	0.92630 0.13837 0.76620 0.02400
H 	H 	0.92910 0.11880 0.75030 0.06700
C 	C 	0.95329 0.16724 0.82120 0.08400
C 	C 	0.94745 0.19549 0.85450 0.06800
C 	C 	0.97146 0.22498 0.92010 0.04400
H 	H 	0.99290 0.22670 0.94320 0.12700
C 	C 	0.96375 0.25092 0.95010 0.01400
H 	H 	0.97970 0.27010 0.99390 0.20600
C 	C 	0.93194 0.24854 0.91490 0.12900
H 	H 	0.92660 0.26620 0.93510 0.17800
C 	C 	0.00066 0.15856 0.78500 0.13400
H 	H 	0.99040 0.15110 0.71540 0.06400
C 	C 	0.03320 0.15697 0.81090 -0.19700
C 	C 	0.04663 0.14327 0.73300 0.31000
H 	H 	0.03540 0.13590 0.66460 -0.02100
C 	C 	0.07674 0.14041 0.75580 -0.53700
H 	H 	0.08520 0.13070 0.70310 0.27500
C 	C 	0.09429 0.15191 0.85630 0.72400
C 	C 	0.08078 0.16594 0.93350 -0.52400
H 	H 	0.09220 0.17370 0.00170 0.26100
C 	C 	0.05062 0.16859 0.91110 0.29600
H 	H 	0.04220 0.17830 0.96380 -0.01100
C 	C 	0.12734 0.14948 0.88100 -1.45100
H 	H 	0.14600 0.17220 0.90770 0.55600
H 	H 	0.12190 0.13150 0.93650 0.47200
H 	H 	0.13520 0.14320 0.81470 0.54200
C 	C 	0.97364 0.28566 0.61630 1.16200
C 	C 	0.93281 0.26720 0.59850 0.03600
C 	C 	0.91771 0.28837 0.57500 0.00400
H 	H 	0.93230 0.31310 0.57060 0.20000
C 	C 	0.88107 0.27298 0.55790 0.07900
C 	C 	0.86535 0.29733 0.53810 0.86100
C 	C 	0.92493 0.26393 0.24190 0.85200
C 	C 	0.89055 0.23441 0.29680 0.10600
C 	C 	0.85742 0.22292 0.24630 -0.05800
H 	H 	0.85620 0.23360 0.18080 0.17700
C 	C 	0.82620 0.19543 0.29420 0.07100
C 	C 	0.79080 0.18236 0.23280 0.86200
C 	C 	0.81451 0.06540 0.43710 0.84300
C 	C 	0.84400 0.10377 0.46150 0.06500
C 	C 	0.87921 0.11150 0.44900 -0.04600
H 	H 	0.88380 0.09340 0.42820 0.14100
C 	C 	0.90762 0.14588 0.46690 0.08400
C 	C 	0.94602 0.15246 0.44860 0.86800
F 	F 	0.99023 0.31088 0.54330 -0.24700
F 	F 	0.98113 0.30466 0.71080 -0.27200
F 	F 	0.98584 0.26504 0.62960 -0.27600
Gd	Gd	0.47147 0.47870 0.13239 1.77300
F 	F 	0.34213 0.34680 0.05587 -0.23800
F 	F 	0.35084 0.39082 0.96397 -0.29300
F 	F 	0.34580 0.39103 0.13677 -0.27500
F 	F 	0.48288 0.37523 0.22847 -0.48000
F 	F 	0.44421 0.33484 0.12587 -0.40800
F 	F 	0.49292 0.37508 0.05557 -0.44000
F 	F 	0.38622 0.41434 0.44944 -0.38300
F 	F 	0.39130 0.37527 0.35590 -0.39700
F 	F 	0.41448 0.38999 0.51701 -0.39300
F 	F 	0.56259 0.47414 0.38157 -0.48100
F 	F 	0.53903 0.47440 0.53719 -0.47000
F 	F 	0.56265 0.52042 0.43184 -0.42400
F 	F 	0.53405 0.60277 0.32738 -0.39900
F 	F 	0.50773 0.62485 0.23317 -0.41100
F 	F 	0.54510 0.61277 0.15575 -0.39400
F 	F 	0.37927 0.50992 0.32367 -0.42400
F 	F 	0.38369 0.54159 0.18297 -0.48000
F 	F 	0.36369 0.48616 0.16407 -0.39300
O 	O 	0.47211 0.49836 0.94992 -0.51700
O 	O 	0.41644 0.43273 0.05716 -0.22300
O 	O 	0.47549 0.42672 0.11097 -0.28500
O 	O 	0.43678 0.44309 0.28195 -0.24100
O 	O 	0.50981 0.48713 0.28348 -0.26500
O 	O 	0.50082 0.54206 0.17698 -0.25500
O 	O 	0.42741 0.49424 0.17158 -0.24800
N 	N 	0.42424 0.44562 0.81425 -0.05900
N 	N 	0.34734 0.49705 0.81347 -0.11200
C 	C 	0.41792 0.47231 0.84637 0.03600
C 	C 	0.44402 0.50069 0.91247 0.25500
C 	C 	0.43875 0.52903 0.93347 -0.16400
H 	H 	0.45643 0.54907 0.97017 0.14300
C 	C 	0.40703 0.52830 0.90047 0.02400
H 	H 	0.40423 0.54787 0.91637 0.06600
C 	C 	0.38004 0.49943 0.84547 0.08400
C 	C 	0.38588 0.47118 0.81217 0.06800
C 	C 	0.36187 0.44169 0.74657 0.04300
H 	H 	0.34043 0.43997 0.72347 0.12700
C 	C 	0.36958 0.41575 0.71657 0.01400
H 	H 	0.35363 0.39657 0.67277 0.20600
C 	C 	0.40139 0.41813 0.75177 0.12900
H 	H 	0.40673 0.40047 0.73157 0.17800
C 	C 	0.33267 0.50811 0.88167 0.13000
H 	H 	0.34293 0.51557 0.95127 0.06500
C 	C 	0.30013 0.50970 0.85577 -0.19000
C 	C 	0.28670 0.52340 0.93367 0.29600
H 	H 	0.29793 0.53077 0.00207 -0.01400
C 	C 	0.25659 0.52626 0.91087 -0.52700
H 	H 	0.24813 0.53597 0.96357 0.27100
C 	C 	0.23904 0.51476 0.81037 0.71600
C 	C 	0.25255 0.50073 0.73317 -0.51600
H 	H 	0.24113 0.49297 0.66497 0.25800
C 	C 	0.28271 0.49808 0.75557 0.28900
H 	H 	0.29113 0.48837 0.70287 -0.00800
C 	C 	0.20599 0.51719 0.78567 -1.44200
H 	H 	0.18733 0.49447 0.75897 0.55300
H 	H 	0.21143 0.53517 0.73017 0.46900
H 	H 	0.19813 0.52347 0.85197 0.53800
C 	C 	0.35969 0.38101 0.05037 1.16200
C 	C 	0.40052 0.39947 0.06817 0.03600
C 	C 	0.41562 0.37830 0.09167 0.00400
H 	H 	0.40103 0.35357 0.09607 0.20000
C 	C 	0.45226 0.39369 0.10877 0.07900
C 	C 	0.46798 0.36934 0.12857 0.86100
C 	C 	0.40840 0.40274 0.42477 0.85200
C 	C 	0.44278 0.43226 0.36987 0.10600
C 	C 	0.47591 0.44375 0.42037 -0.05800
H 	H 	0.47713 0.43307 0.48587 0.17700
C 	C 	0.50713 0.47124 0.37247 0.07100
C 	C 	0.54253 0.48431 0.43387 0.86200
C 	C 	0.51882 0.60127 0.22957 0.84300
C 	C 	0.48933 0.56290 0.20517 0.06500
C 	C 	0.45412 0.55517 0.21767 -0.04600
H 	H 	0.44953 0.57327 0.23847 0.14100
C 	C 	0.42571 0.52079 0.19977 0.08500
C 	C 	0.38731 0.51421 0.21807 0.86800
F 	F 	0.34310 0.35579 0.12337 -0.24700
F 	F 	0.35220 0.36201 0.95587 -0.27200
F 	F 	0.34749 0.40163 0.03707 -0.27600
Gd	Gd	0.52853 0.52130 0.86761 1.77300
F 	F 	0.65787 0.65320 0.94413 -0.23800
F 	F 	0.64916 0.60918 0.03603 -0.29300
F 	F 	0.65420 0.60897 0.86323 -0.27500
F 	F 	0.51712 0.62477 0.77153 -0.48000
F 	F 	0.55579 0.66516 0.87413 -0.40800
F 	F 	0.50708 0.62492 0.94443 -0.44000
F 	F 	0.61378 0.58566 0.55056 -0.38300
F 	F 	0.60870 0.62473 0.64410 -0.39700
F 	F 	0.58552 0.61001 0.48299 -0.39300
F 	F 	0.43741 0.52586 0.61843 -0.48100
F 	F 	0.46097 0.52560 0.46281 -0.47000
F 	F 	0.43735 0.47958 0.56816 -0.42400
F 	F 	0.46595 0.39723 0.67262 -0.39900
F 	F 	0.49227 0.37515 0.76683 -0.41100
F 	F 	0.45490 0.38723 0.84425 -0.39400
F 	F 	0.62073 0.49008 0.67633 -0.42400
F 	F 	0.61631 0.45841 0.81703 -0.48000
F 	F 	0.63631 0.51384 0.83593 -0.39300
O 	O 	0.52789 0.50164 0.05008 -0.51700
O 	O 	0.58356 0.56727 0.94284 -0.22300
O 	O 	0.52451 0.57328 0.88903 -0.28500
O 	O 	0.56322 0.55691 0.71805 -0.24100
O 	O 	0.49019 0.51287 0.71652 -0.26500
O 	O 	0.49918 0.45794 0.82302 -0.25500
O 	O 	0.57259 0.50576 0.82842 -0.24800
N 	N 	0.57576 0.55438 0.18575 -0.05900
N 	N 	0.65266 0.50295 0.18653 -0.11200
C 	C 	0.58208 0.52769 0.15363 0.03600
C 	C 	0.55598 0.49931 0.08753 0.25500
C 	C 	0.56125 0.47097 0.06653 -0.16400
H 	H 	0.54357 0.45093 0.02983 0.14300
C 	C 	0.59297 0.47170 0.09953 0.02400
H 	H 	0.59577 0.45213 0.08363 0.06600
C 	C 	0.61996 0.50057 0.15453 0.08400
C 	C 	0.61412 0.52882 0.18783 0.06800
C 	C 	0.63813 0.55831 0.25343 0.04300
H 	H 	0.65957 0.56003 0.27653 0.12700
C 	C 	0.63042 0.58425 0.28343 0.01400
H 	H 	0.64637 0.60343 0.32723 0.20600
C 	C 	0.59861 0.58187 0.24823 0.12900
H 	H 	0.59327 0.59953 0.26843 0.17800
C 	C 	0.66733 0.49189 0.11833 0.13000
H 	H 	0.65707 0.48443 0.04873 0.06500
C 	C 	0.69987 0.49030 0.14423 -0.19000
C 	C 	0.71330 0.47660 0.06633 0.29600
H 	H 	0.70207 0.46923 0.99793 -0.01400
C 	C 	0.74341 0.47374 0.08913 -0.52700
H 	H 	0.75187 0.46403 0.03643 0.27100
C 	C 	0.76096 0.48524 0.18963 0.71600
C 	C 	0.74745 0.49927 0.26683 -0.51600
H 	H 	0.75887 0.50703 0.33503 0.25800
C 	C 	0.71729 0.50192 0.24443 0.28900
H 	H 	0.70887 0.51163 0.29713 -0.00800
C 	C 	0.79401 0.48281 0.21433 -1.44200
H 	H 	0.81267 0.50553 0.24103 0.55300
H 	H 	0.78857 0.46483 0.26983 0.46900
H 	H 	0.80187 0.47653 0.14803 0.53800
C 	C 	0.64031 0.61899 0.94963 1.16200
C 	C 	0.59948 0.60053 0.93183 0.03600
C 	C 	0.58438 0.62170 0.90833 0.00400
H 	H 	0.59897 0.64643 0.90393 0.20000
C 	C 	0.54774 0.60631 0.89123 0.07900
C 	C 	0.53202 0.63066 0.87143 0.86100
C 	C 	0.59160 0.59726 0.57523 0.85200
C 	C 	0.55722 0.56774 0.63013 0.10600
C 	C 	0.52409 0.55625 0.57963 -0.05800
H 	H 	0.52287 0.56693 0.51413 0.17700
C 	C 	0.49287 0.52876 0.62753 0.07100
C 	C 	0.45747 0.51569 0.56613 0.86200
C 	C 	0.48118 0.39873 0.77043 0.84300
C 	C 	0.51067 0.43710 0.79483 0.06500
C 	C 	0.54588 0.44483 0.78233 -0.04600
H 	H 	0.55047 0.42673 0.76153 0.14100
C 	C 	0.57429 0.47921 0.80023 0.08500
C 	C 	0.61269 0.48579 0.78193 0.86800
F 	F 	0.65690 0.64421 0.87663 -0.24700
F 	F 	0.64780 0.63799 0.04413 -0.27200
F 	F 	0.65251 0.59837 0.96293 -0.27600
