data_crystal

_cell_length_a 42.93300
_cell_length_b 42.93300
_cell_length_c 12.07300
_cell_angle_alpha 90.00000
_cell_angle_beta  90.00000
_cell_angle_gamma 120.00000

_symmetry_space_group_name_	'P 1'
_symmetry_space_group_name_H-M	'P 1'

loop_
_symmetry_equiv_pos_as_xyz
  x,y,z

loop_
_atom_site_label
_atom_site_type_symbol
_atom_site_fract_x
_atom_site_fract_y
_atom_site_fract_z
_atom_site_charge
Dy	Dy	0.52110 0.52847 0.13175 2.02600
F 	F 	0.60737 0.65411 0.13170 -0.28300
F 	F 	0.60980 0.64906 0.95870 -0.26800
F 	F 	0.65305 0.65806 0.05860 -0.23400
F 	F 	0.64330 0.65745 0.12560 -0.23300
F 	F 	0.59706 0.65197 0.02850 -0.25300
F 	F 	0.63880 0.64814 0.95580 -0.25200
F 	F 	0.62485 0.50691 0.05530 -0.43200
F 	F 	0.66510 0.55571 0.12820 -0.40100
F 	F 	0.62384 0.51614 0.22860 -0.48000
F 	F 	0.62411 0.61011 0.35377 -0.39300
F 	F 	0.61008 0.58662 0.51528 -0.39100
F 	F 	0.58471 0.61434 0.44880 -0.37800
F 	F 	0.48021 0.43736 0.43092 -0.42500
F 	F 	0.52735 0.43813 0.38170 -0.47100
F 	F 	0.52586 0.46167 0.53720 -0.46600
F 	F 	0.39739 0.46472 0.32771 -0.39800
F 	F 	0.38694 0.45407 0.15498 -0.39200
F 	F 	0.37455 0.49108 0.23570 -0.40800
F 	F 	0.48967 0.62040 0.32390 -0.41500
F 	F 	0.45783 0.61587 0.18310 -0.47600
F 	F 	0.51345 0.63612 0.16350 -0.39000
O 	O 	0.50144 0.52776 0.95015 -0.58100
O 	O 	0.56685 0.58331 0.05614 -0.26100
O 	O 	0.57299 0.52432 0.11102 -0.32400
O 	O 	0.55647 0.56360 0.28037 -0.27500
O 	O 	0.51278 0.49035 0.28295 -0.30000
O 	O 	0.45792 0.49903 0.17710 -0.28800
O 	O 	0.50549 0.57238 0.16969 -0.28300
N 	N 	0.55413 0.57606 0.81360 -0.05800
N 	N 	0.50158 0.65229 0.81350 -0.09700
C 	C 	0.52705 0.58204 0.84600 0.03200
C 	C 	0.49881 0.55573 0.91200 0.26400
C 	C 	0.47008 0.56077 0.93320 -0.15600
H 	H 	0.44960 0.54250 0.97070 0.13700
C 	C 	0.47054 0.59249 0.90020 0.02400
H 	H 	0.45040 0.59520 0.91650 0.06900
C 	C 	0.49944 0.61963 0.84490 0.08400
C 	C 	0.52807 0.61407 0.81220 0.06800
C 	C 	0.55750 0.63835 0.74640 0.04600
H 	H 	0.55900 0.66020 0.72250 0.12600
C 	C 	0.58384 0.63085 0.71670 0.01600
H 	H 	0.60350 0.64730 0.67240 0.20200
C 	C 	0.58166 0.59933 0.75130 0.13000
H 	H 	0.59990 0.59410 0.73080 0.17900
C 	C 	0.49046 0.66685 0.88300 0.07300
H 	H 	0.48290 0.65620 0.95400 0.08600
C 	C 	0.48879 0.69951 0.85780 -0.05800
C 	C 	0.50074 0.71757 0.75730 0.12400
H 	H 	0.51100 0.70920 0.70350 0.05600
C 	C 	0.49777 0.74747 0.73550 -0.28600
H 	H 	0.50570 0.75930 0.66610 0.17700
C 	C 	0.48336 0.76063 0.81300 0.44100
C 	C 	0.47195 0.74293 0.91300 -0.29600
H 	H 	0.46210 0.75160 0.96710 0.19000
C 	C 	0.47470 0.71263 0.93600 0.12700
H 	H 	0.46690 0.70090 0.00560 0.04500
C 	C 	0.48043 0.79361 0.78910 -0.88700
H 	H 	0.50290 0.81220 0.75580 0.37300
H 	H 	0.47600 0.80270 0.85830 0.36900
H 	H 	0.46050 0.78730 0.73760 0.29700
C 	C 	0.61852 0.63997 0.05060 1.09200
C 	C 	0.60013 0.59933 0.06800 0.06100
C 	C 	0.62145 0.58428 0.09290 -0.01700
H 	H 	0.64680 0.59930 0.09840 0.20600
C 	C 	0.60596 0.54760 0.10960 0.10100
C 	C 	0.63038 0.53166 0.13010 0.84900
C 	C 	0.59681 0.59237 0.42330 0.83900
C 	C 	0.56750 0.55777 0.36860 0.12000
C 	C 	0.55621 0.52466 0.41950 -0.07100
H 	H 	0.56720 0.52350 0.48640 0.18100
C 	C 	0.52881 0.49345 0.37210 0.08900
C 	C 	0.51610 0.45781 0.43320 0.85200
C 	C 	0.39837 0.48012 0.23030 0.83300
C 	C 	0.43668 0.51025 0.20520 0.07900
C 	C 	0.44401 0.54519 0.21760 -0.05300
H 	H 	0.42530 0.54980 0.23870 0.14300
C 	C 	0.47878 0.57399 0.19940 0.09400
C 	C 	0.48539 0.61228 0.21770 0.85700
Dy	Dy	0.47890 0.47153 0.86825 2.02500
F 	F 	0.39263 0.34589 0.86830 -0.28400
F 	F 	0.39020 0.35094 0.04130 -0.26900
F 	F 	0.34695 0.34194 0.94140 -0.23500
F 	F 	0.35670 0.34255 0.87440 -0.23400
F 	F 	0.40294 0.34803 0.97150 -0.25400
F 	F 	0.36120 0.35186 0.04420 -0.25300
F 	F 	0.37515 0.49309 0.94470 -0.43300
F 	F 	0.33490 0.44429 0.87180 -0.40200
F 	F 	0.37616 0.48386 0.77140 -0.48100
F 	F 	0.37589 0.38989 0.64623 -0.39400
F 	F 	0.38992 0.41338 0.48472 -0.39200
F 	F 	0.41529 0.38566 0.55120 -0.37900
F 	F 	0.51979 0.56264 0.56908 -0.42600
F 	F 	0.47265 0.56187 0.61830 -0.47200
F 	F 	0.47414 0.53833 0.46280 -0.46700
F 	F 	0.60261 0.53528 0.67229 -0.39900
F 	F 	0.61306 0.54593 0.84502 -0.39300
F 	F 	0.62545 0.50892 0.76430 -0.40900
F 	F 	0.51033 0.37960 0.67610 -0.41600
F 	F 	0.54217 0.38413 0.81690 -0.47700
F 	F 	0.48655 0.36388 0.83650 -0.39100
O 	O 	0.49856 0.47224 0.04985 -0.58200
O 	O 	0.43315 0.41669 0.94386 -0.26200
O 	O 	0.42701 0.47568 0.88898 -0.32500
O 	O 	0.44353 0.43640 0.71963 -0.27600
O 	O 	0.48722 0.50965 0.71705 -0.30100
O 	O 	0.54208 0.50097 0.82290 -0.28900
O 	O 	0.49451 0.42762 0.83031 -0.28400
N 	N 	0.44587 0.42394 0.18640 -0.05900
N 	N 	0.49842 0.34771 0.18650 -0.09700
C 	C 	0.47295 0.41796 0.15400 0.03200
C 	C 	0.50119 0.44427 0.08800 0.26400
C 	C 	0.52992 0.43923 0.06680 -0.15600
H 	H 	0.55040 0.45750 0.02930 0.13700
C 	C 	0.52946 0.40751 0.09980 0.02400
H 	H 	0.54960 0.40480 0.08350 0.06900
C 	C 	0.50056 0.38037 0.15510 0.08400
C 	C 	0.47193 0.38593 0.18780 0.06800
C 	C 	0.44250 0.36165 0.25360 0.04600
H 	H 	0.44100 0.33980 0.27750 0.12600
C 	C 	0.41616 0.36915 0.28330 0.01600
H 	H 	0.39650 0.35270 0.32760 0.20200
C 	C 	0.41834 0.40067 0.24870 0.13000
H 	H 	0.40010 0.40590 0.26920 0.17900
C 	C 	0.50954 0.33315 0.11700 0.07300
H 	H 	0.51710 0.34380 0.04600 0.08600
C 	C 	0.51121 0.30049 0.14220 -0.05800
C 	C 	0.49926 0.28243 0.24270 0.12400
H 	H 	0.48900 0.29080 0.29650 0.05600
C 	C 	0.50223 0.25253 0.26450 -0.28600
H 	H 	0.49430 0.24070 0.33390 0.17700
C 	C 	0.51664 0.23937 0.18700 0.44100
C 	C 	0.52805 0.25707 0.08700 -0.29600
H 	H 	0.53790 0.24840 0.03290 0.19000
C 	C 	0.52530 0.28737 0.06400 0.12700
H 	H 	0.53310 0.29910 0.99440 0.04500
C 	C 	0.51957 0.20639 0.21090 -0.88700
H 	H 	0.49710 0.18780 0.24420 0.37300
H 	H 	0.52400 0.19730 0.14170 0.36900
H 	H 	0.53950 0.21270 0.26240 0.29700
C 	C 	0.38148 0.36003 0.94940 1.09200
C 	C 	0.39987 0.40067 0.93200 0.06100
C 	C 	0.37855 0.41572 0.90710 -0.01700
H 	H 	0.35320 0.40070 0.90160 0.20600
C 	C 	0.39404 0.45240 0.89040 0.10100
C 	C 	0.36962 0.46834 0.86990 0.84900
C 	C 	0.40319 0.40763 0.57670 0.83900
C 	C 	0.43250 0.44223 0.63140 0.12000
C 	C 	0.44379 0.47534 0.58050 -0.07100
H 	H 	0.43280 0.47650 0.51360 0.18100
C 	C 	0.47119 0.50655 0.62790 0.08900
C 	C 	0.48390 0.54219 0.56680 0.85200
C 	C 	0.60163 0.51988 0.76970 0.83300
C 	C 	0.56332 0.48975 0.79480 0.07900
C 	C 	0.55599 0.45481 0.78240 -0.05300
H 	H 	0.57470 0.45020 0.76130 0.14300
C 	C 	0.52122 0.42601 0.80060 0.09400
C 	C 	0.51461 0.38772 0.78230 0.85700
Dy	Dy	0.18777 0.86180 0.46509 2.02500
F 	F 	0.27404 0.98744 0.46503 -0.28400
F 	F 	0.27647 0.98239 0.29203 -0.26900
F 	F 	0.31972 0.99139 0.39193 -0.23500
F 	F 	0.30997 0.99078 0.45893 -0.23400
F 	F 	0.26373 0.98530 0.36183 -0.25500
F 	F 	0.30547 0.98147 0.28913 -0.25300
F 	F 	0.29152 0.84024 0.38863 -0.43200
F 	F 	0.33177 0.88904 0.46153 -0.40200
F 	F 	0.29051 0.84947 0.56193 -0.48100
F 	F 	0.29078 0.94344 0.68710 -0.39400
F 	F 	0.27675 0.91995 0.84861 -0.39200
F 	F 	0.25138 0.94767 0.78213 -0.37900
F 	F 	0.14688 0.77069 0.76425 -0.42600
F 	F 	0.19402 0.77146 0.71503 -0.47300
F 	F 	0.19253 0.79500 0.87053 -0.46800
F 	F 	0.06406 0.79805 0.66104 -0.39900
F 	F 	0.05361 0.78740 0.48831 -0.39300
F 	F 	0.04122 0.82441 0.56903 -0.40900
F 	F 	0.15634 0.95373 0.65723 -0.41600
F 	F 	0.12450 0.94920 0.51643 -0.47700
F 	F 	0.18012 0.96945 0.49683 -0.39200
O 	O 	0.16811 0.86109 0.28348 -0.58200
O 	O 	0.23352 0.91664 0.38947 -0.26200
O 	O 	0.23966 0.85765 0.44435 -0.32500
O 	O 	0.22314 0.89693 0.61370 -0.27600
O 	O 	0.17945 0.82368 0.61628 -0.30100
O 	O 	0.12459 0.83236 0.51043 -0.28900
O 	O 	0.17216 0.90571 0.50302 -0.28400
N 	N 	0.22080 0.90939 0.14693 -0.05900
N 	N 	0.16825 0.98562 0.14683 -0.09800
C 	C 	0.19372 0.91537 0.17933 0.03200
C 	C 	0.16548 0.88906 0.24533 0.26400
C 	C 	0.13675 0.89410 0.26653 -0.15600
H 	H 	0.11627 0.87583 0.30403 0.13700
C 	C 	0.13721 0.92582 0.23353 0.02400
H 	H 	0.11707 0.92853 0.24983 0.07000
C 	C 	0.16611 0.95296 0.17823 0.08400
C 	C 	0.19474 0.94740 0.14553 0.06800
C 	C 	0.22417 0.97168 0.07973 0.04600
H 	H 	0.22567 0.99353 0.05583 0.12600
C 	C 	0.25051 0.96418 0.05003 0.01600
H 	H 	0.27017 0.98063 0.00573 0.20200
C 	C 	0.24833 0.93266 0.08463 0.13000
H 	H 	0.26657 0.92743 0.06413 0.17900
C 	C 	0.15713 0.00018 0.21633 0.07600
H 	H 	0.14957 0.98953 0.28733 0.08600
C 	C 	0.15546 0.03284 0.19113 -0.06200
C 	C 	0.16741 0.05090 0.09063 0.12800
H 	H 	0.17767 0.04253 0.03683 0.05500
C 	C 	0.16444 0.08080 0.06883 -0.29000
H 	H 	0.17237 0.09263 0.99943 0.17900
C 	C 	0.15003 0.09396 0.14633 0.44500
C 	C 	0.13862 0.07626 0.24633 -0.30200
H 	H 	0.12877 0.08493 0.30043 0.19200
C 	C 	0.14137 0.04596 0.26933 0.13500
H 	H 	0.13357 0.03423 0.33893 0.04100
C 	C 	0.14710 0.12694 0.12243 -0.89100
H 	H 	0.16957 0.14553 0.08913 0.37500
H 	H 	0.14267 0.13603 0.19163 0.37100
H 	H 	0.12717 0.12063 0.07093 0.29800
C 	C 	0.28519 0.97330 0.38393 1.09200
C 	C 	0.26680 0.93266 0.40133 0.06100
C 	C 	0.28812 0.91761 0.42623 -0.01700
H 	H 	0.31347 0.93263 0.43173 0.20600
C 	C 	0.27263 0.88093 0.44293 0.10100
C 	C 	0.29705 0.86499 0.46343 0.84900
C 	C 	0.26348 0.92570 0.75663 0.83900
C 	C 	0.23417 0.89110 0.70193 0.12000
C 	C 	0.22288 0.85799 0.75283 -0.07000
H 	H 	0.23387 0.85683 0.81973 0.18000
C 	C 	0.19548 0.82678 0.70543 0.08900
C 	C 	0.18277 0.79114 0.76653 0.85200
C 	C 	0.06504 0.81345 0.56363 0.83300
C 	C 	0.10335 0.84358 0.53853 0.07900
C 	C 	0.11068 0.87852 0.55093 -0.05300
H 	H 	0.09197 0.88313 0.57203 0.14200
C 	C 	0.14545 0.90732 0.53273 0.09400
C 	C 	0.15206 0.94561 0.55103 0.85700
Dy	Dy	0.14556 0.80487 0.20158 2.02500
F 	F 	0.05930 0.67922 0.20163 -0.28400
F 	F 	0.05687 0.68427 0.37463 -0.26900
F 	F 	0.01362 0.67527 0.27473 -0.23500
F 	F 	0.02337 0.67588 0.20773 -0.23400
F 	F 	0.06961 0.68136 0.30483 -0.25400
F 	F 	0.02787 0.68519 0.37753 -0.25300
F 	F 	0.04182 0.82642 0.27803 -0.43200
F 	F 	0.00157 0.77762 0.20513 -0.40200
F 	F 	0.04283 0.81719 0.10473 -0.48100
F 	F 	0.04256 0.72322 0.97956 -0.39500
F 	F 	0.05659 0.74671 0.81805 -0.39200
F 	F 	0.08196 0.71899 0.88453 -0.37900
F 	F 	0.18646 0.89597 0.90241 -0.42600
F 	F 	0.13932 0.89520 0.95163 -0.47200
F 	F 	0.14081 0.87166 0.79613 -0.46700
F 	F 	0.26928 0.86861 0.00562 -0.39800
F 	F 	0.27973 0.87926 0.17835 -0.39300
F 	F 	0.29212 0.84225 0.09763 -0.40800
F 	F 	0.17700 0.71293 0.00943 -0.41500
F 	F 	0.20884 0.71746 0.15023 -0.47700
F 	F 	0.15322 0.69721 0.16983 -0.39100
O 	O 	0.16523 0.80557 0.38318 -0.58200
O 	O 	0.09982 0.75002 0.27719 -0.26200
O 	O 	0.09368 0.80901 0.22231 -0.32500
O 	O 	0.11020 0.76973 0.05296 -0.27500
O 	O 	0.15389 0.84298 0.05038 -0.30000
O 	O 	0.20875 0.83430 0.15623 -0.28900
O 	O 	0.16118 0.76095 0.16364 -0.28400
N 	N 	0.11254 0.75727 0.51973 -0.05900
N 	N 	0.16509 0.68104 0.51983 -0.09800
C 	C 	0.13962 0.75129 0.48733 0.03200
C 	C 	0.16786 0.77760 0.42133 0.26400
C 	C 	0.19659 0.77256 0.40013 -0.15600
H 	H 	0.21707 0.79083 0.36263 0.13700
C 	C 	0.19613 0.74084 0.43313 0.02400
H 	H 	0.21627 0.73813 0.41683 0.07000
C 	C 	0.16723 0.71370 0.48843 0.08400
C 	C 	0.13860 0.71926 0.52113 0.06800
C 	C 	0.10917 0.69498 0.58693 0.04600
H 	H 	0.10767 0.67313 0.61083 0.12600
C 	C 	0.08283 0.70248 0.61663 0.01600
H 	H 	0.06317 0.68603 0.66093 0.20200
C 	C 	0.08501 0.73400 0.58203 0.13000
H 	H 	0.06677 0.73923 0.60253 0.17900
C 	C 	0.17621 0.66648 0.45033 0.07500
H 	H 	0.18377 0.67713 0.37933 0.08600
C 	C 	0.17788 0.63382 0.47553 -0.06200
C 	C 	0.16593 0.61576 0.57603 0.12700
H 	H 	0.15567 0.62413 0.62983 0.05500
C 	C 	0.16890 0.58586 0.59783 -0.28900
H 	H 	0.16097 0.57403 0.66723 0.17800
C 	C 	0.18331 0.57270 0.52033 0.44500
C 	C 	0.19472 0.59040 0.42033 -0.30100
H 	H 	0.20457 0.58173 0.36623 0.19200
C 	C 	0.19197 0.62070 0.39733 0.13500
H 	H 	0.19977 0.63243 0.32773 0.04100
C 	C 	0.18624 0.53972 0.54423 -0.89100
H 	H 	0.16377 0.52113 0.57753 0.37400
H 	H 	0.19067 0.53063 0.47503 0.37000
H 	H 	0.20617 0.54603 0.59573 0.29800
C 	C 	0.04815 0.69336 0.28273 1.09200
C 	C 	0.06654 0.73400 0.26533 0.06100
C 	C 	0.04522 0.74905 0.24043 -0.01700
H 	H 	0.01987 0.73403 0.23493 0.20600
C 	C 	0.06071 0.78573 0.22373 0.10200
C 	C 	0.03629 0.80167 0.20323 0.84900
C 	C 	0.06986 0.74096 0.91003 0.83900
C 	C 	0.09917 0.77556 0.96473 0.11900
C 	C 	0.11046 0.80867 0.91383 -0.07000
H 	H 	0.09947 0.80983 0.84693 0.18000
C 	C 	0.13786 0.83988 0.96123 0.08800
C 	C 	0.15057 0.87552 0.90013 0.85200
C 	C 	0.26830 0.85321 0.10303 0.83300
C 	C 	0.22999 0.82308 0.12813 0.07900
C 	C 	0.22266 0.78814 0.11573 -0.05300
H 	H 	0.24137 0.78353 0.09463 0.14300
C 	C 	0.18789 0.75934 0.13393 0.09400
C 	C 	0.18128 0.72105 0.11563 0.85700
Dy	Dy	0.85444 0.19513 0.79842 2.02500
F 	F 	0.94070 0.32078 0.79837 -0.28400
F 	F 	0.94313 0.31573 0.62537 -0.26900
F 	F 	0.98638 0.32473 0.72527 -0.23500
F 	F 	0.97663 0.32412 0.79227 -0.23400
F 	F 	0.93039 0.31864 0.69517 -0.25400
F 	F 	0.97213 0.31481 0.62247 -0.25300
F 	F 	0.95818 0.17358 0.72197 -0.43200
F 	F 	0.99843 0.22238 0.79487 -0.40200
F 	F 	0.95717 0.18281 0.89527 -0.48100
F 	F 	0.95744 0.27678 0.02044 -0.39500
F 	F 	0.94341 0.25329 0.18195 -0.39200
F 	F 	0.91804 0.28101 0.11547 -0.37900
F 	F 	0.81354 0.10403 0.09759 -0.42600
F 	F 	0.86068 0.10480 0.04837 -0.47200
F 	F 	0.85919 0.12834 0.20387 -0.46700
F 	F 	0.73072 0.13139 0.99438 -0.39800
F 	F 	0.72027 0.12074 0.82165 -0.39300
F 	F 	0.70788 0.15775 0.90237 -0.40800
F 	F 	0.82300 0.28707 0.99057 -0.41500
F 	F 	0.79116 0.28254 0.84977 -0.47700
F 	F 	0.84678 0.30279 0.83017 -0.39100
O 	O 	0.83477 0.19443 0.61682 -0.58200
O 	O 	0.90018 0.24998 0.72281 -0.26200
O 	O 	0.90632 0.19099 0.77769 -0.32500
O 	O 	0.88980 0.23027 0.94704 -0.27500
O 	O 	0.84611 0.15702 0.94962 -0.30000
O 	O 	0.79125 0.16570 0.84377 -0.28900
O 	O 	0.83882 0.23905 0.83636 -0.28400
N 	N 	0.88746 0.24273 0.48027 -0.05900
N 	N 	0.83491 0.31896 0.48017 -0.09800
C 	C 	0.86038 0.24871 0.51267 0.03200
C 	C 	0.83214 0.22240 0.57867 0.26400
C 	C 	0.80341 0.22744 0.59987 -0.15600
H 	H 	0.78293 0.20917 0.63737 0.13700
C 	C 	0.80387 0.25916 0.56687 0.02400
H 	H 	0.78373 0.26187 0.58317 0.07000
C 	C 	0.83277 0.28630 0.51157 0.08400
C 	C 	0.86140 0.28074 0.47887 0.06800
C 	C 	0.89083 0.30502 0.41307 0.04600
H 	H 	0.89233 0.32687 0.38917 0.12600
C 	C 	0.91717 0.29752 0.38337 0.01600
H 	H 	0.93683 0.31397 0.33907 0.20200
C 	C 	0.91499 0.26600 0.41797 0.13000
H 	H 	0.93323 0.26077 0.39747 0.17900
C 	C 	0.82379 0.33352 0.54967 0.07500
H 	H 	0.81623 0.32287 0.62067 0.08600
C 	C 	0.82212 0.36618 0.52447 -0.06200
C 	C 	0.83407 0.38424 0.42397 0.12700
H 	H 	0.84433 0.37587 0.37017 0.05500
C 	C 	0.83110 0.41414 0.40217 -0.28900
H 	H 	0.83903 0.42597 0.33277 0.17800
C 	C 	0.81669 0.42730 0.47967 0.44500
C 	C 	0.80528 0.40960 0.57967 -0.30100
H 	H 	0.79543 0.41827 0.63377 0.19200
C 	C 	0.80803 0.37930 0.60267 0.13500
H 	H 	0.80023 0.36757 0.67227 0.04100
C 	C 	0.81376 0.46028 0.45577 -0.89100
H 	H 	0.83623 0.47887 0.42247 0.37400
H 	H 	0.80933 0.46937 0.52497 0.37000
H 	H 	0.79383 0.45397 0.40427 0.29800
C 	C 	0.95185 0.30664 0.71727 1.09200
C 	C 	0.93346 0.26600 0.73467 0.06100
C 	C 	0.95478 0.25095 0.75957 -0.01700
H 	H 	0.98013 0.26597 0.76507 0.20600
C 	C 	0.93929 0.21427 0.77627 0.10200
C 	C 	0.96371 0.19833 0.79677 0.84900
C 	C 	0.93014 0.25904 0.08997 0.83900
C 	C 	0.90083 0.22444 0.03527 0.11900
C 	C 	0.88954 0.19133 0.08617 -0.07000
H 	H 	0.90053 0.19017 0.15307 0.18000
C 	C 	0.86214 0.16012 0.03877 0.08800
C 	C 	0.84943 0.12448 0.09987 0.85200
C 	C 	0.73170 0.14679 0.89697 0.83300
C 	C 	0.77001 0.17692 0.87187 0.07900
C 	C 	0.77734 0.21186 0.88427 -0.05300
H 	H 	0.75863 0.21647 0.90537 0.14300
C 	C 	0.81211 0.24066 0.86607 0.09400
C 	C 	0.81872 0.27895 0.88437 0.85700
Dy	Dy	0.81223 0.13820 0.53491 2.02500
F 	F 	0.72596 0.01256 0.53497 -0.28400
F 	F 	0.72353 0.01761 0.70797 -0.26900
F 	F 	0.68028 0.00861 0.60807 -0.23500
F 	F 	0.69003 0.00922 0.54107 -0.23400
F 	F 	0.73627 0.01470 0.63817 -0.25500
F 	F 	0.69453 0.01853 0.71087 -0.25300
F 	F 	0.70848 0.15976 0.61137 -0.43200
F 	F 	0.66823 0.11096 0.53847 -0.40200
F 	F 	0.70949 0.15053 0.43807 -0.48100
F 	F 	0.70922 0.05656 0.31290 -0.39400
F 	F 	0.72325 0.08005 0.15139 -0.39200
F 	F 	0.74862 0.05233 0.21787 -0.37900
F 	F 	0.85312 0.22931 0.23575 -0.42600
F 	F 	0.80598 0.22854 0.28497 -0.47300
F 	F 	0.80747 0.20500 0.12947 -0.46800
F 	F 	0.93594 0.20195 0.33896 -0.39900
F 	F 	0.94639 0.21260 0.51169 -0.39300
F 	F 	0.95878 0.17559 0.43097 -0.40900
F 	F 	0.84366 0.04627 0.34277 -0.41600
F 	F 	0.87550 0.05080 0.48357 -0.47700
F 	F 	0.81988 0.03055 0.50317 -0.39200
O 	O 	0.83189 0.13891 0.71652 -0.58200
O 	O 	0.76648 0.08336 0.61053 -0.26200
O 	O 	0.76034 0.14235 0.55565 -0.32500
O 	O 	0.77686 0.10307 0.38630 -0.27600
O 	O 	0.82055 0.17632 0.38372 -0.30100
O 	O 	0.87541 0.16764 0.48957 -0.28900
O 	O 	0.82784 0.09429 0.49698 -0.28400
N 	N 	0.77920 0.09061 0.85307 -0.05900
N 	N 	0.83175 0.01438 0.85317 -0.09800
C 	C 	0.80628 0.08463 0.82067 0.03200
C 	C 	0.83452 0.11094 0.75467 0.26400
C 	C 	0.86325 0.10590 0.73347 -0.15600
H 	H 	0.88373 0.12417 0.69597 0.13700
C 	C 	0.86279 0.07418 0.76647 0.02400
H 	H 	0.88293 0.07147 0.75017 0.07000
C 	C 	0.83389 0.04704 0.82177 0.08400
C 	C 	0.80526 0.05260 0.85447 0.06800
C 	C 	0.77583 0.02832 0.92027 0.04600
H 	H 	0.77433 0.00647 0.94417 0.12600
C 	C 	0.74949 0.03582 0.94997 0.01600
H 	H 	0.72983 0.01937 0.99427 0.20200
C 	C 	0.75167 0.06734 0.91537 0.13000
H 	H 	0.73343 0.07257 0.93587 0.17900
C 	C 	0.84287 0.99982 0.78367 0.07600
H 	H 	0.85043 0.01047 0.71267 0.08600
C 	C 	0.84454 0.96716 0.80887 -0.06200
C 	C 	0.83259 0.94910 0.90937 0.12800
H 	H 	0.82233 0.95747 0.96317 0.05500
C 	C 	0.83556 0.91920 0.93117 -0.29000
H 	H 	0.82763 0.90737 0.00057 0.17900
C 	C 	0.84997 0.90604 0.85367 0.44500
C 	C 	0.86138 0.92374 0.75367 -0.30200
H 	H 	0.87123 0.91507 0.69957 0.19200
C 	C 	0.85863 0.95404 0.73067 0.13500
H 	H 	0.86643 0.96577 0.66107 0.04100
C 	C 	0.85290 0.87306 0.87757 -0.89100
H 	H 	0.83043 0.85447 0.91087 0.37500
H 	H 	0.85733 0.86397 0.80837 0.37100
H 	H 	0.87283 0.87937 0.92907 0.29800
C 	C 	0.71481 0.02670 0.61607 1.09200
C 	C 	0.73320 0.06734 0.59867 0.06100
C 	C 	0.71188 0.08239 0.57377 -0.01700
H 	H 	0.68653 0.06737 0.56827 0.20600
C 	C 	0.72737 0.11907 0.55707 0.10100
C 	C 	0.70295 0.13501 0.53657 0.84900
C 	C 	0.73652 0.07430 0.24337 0.83900
C 	C 	0.76583 0.10890 0.29807 0.12000
C 	C 	0.77712 0.14201 0.24717 -0.07000
H 	H 	0.76613 0.14317 0.18027 0.18000
C 	C 	0.80452 0.17322 0.29457 0.08900
C 	C 	0.81723 0.20886 0.23347 0.85200
C 	C 	0.93496 0.18655 0.43637 0.83300
C 	C 	0.89665 0.15642 0.46147 0.07900
C 	C 	0.88932 0.12148 0.44907 -0.05300
H 	H 	0.90803 0.11687 0.42797 0.14200
C 	C 	0.85455 0.09268 0.46727 0.09400
C 	C 	0.84794 0.05439 0.44897 0.85700
Dy	Dy	0.47153 0.99263 0.13175 2.02400
F 	F 	0.34589 0.95326 0.13170 -0.28400
F 	F 	0.35094 0.96074 0.95870 -0.26900
F 	F 	0.34194 0.99499 0.05860 -0.23600
F 	F 	0.34255 0.98585 0.12560 -0.23400
F 	F 	0.34803 0.94509 0.02850 -0.25400
F 	F 	0.35186 0.99066 0.95580 -0.25300
F 	F 	0.49309 0.11794 0.05530 -0.43300
F 	F 	0.44429 0.10939 0.12820 -0.40200
F 	F 	0.48386 0.10770 0.22860 -0.48100
F 	F 	0.38989 0.01400 0.35377 -0.39400
F 	F 	0.41338 0.02346 0.51528 -0.39200
F 	F 	0.38566 0.97037 0.44880 -0.37900
F 	F 	0.56264 0.04285 0.43092 -0.42600
F 	F 	0.56187 0.08922 0.38170 -0.47200
F 	F 	0.53833 0.06419 0.53720 -0.46700
F 	F 	0.53528 0.93267 0.32771 -0.39900
F 	F 	0.54593 0.93287 0.15498 -0.39300
F 	F 	0.50892 0.88347 0.23570 -0.40900
F 	F 	0.37960 0.86927 0.32390 -0.41600
F 	F 	0.38413 0.84196 0.18310 -0.47700
F 	F 	0.36388 0.87733 0.16350 -0.39100
O 	O 	0.47224 0.97368 0.95015 -0.58200
O 	O 	0.41669 0.98354 0.05614 -0.26200
O 	O 	0.47568 0.04867 0.11102 -0.32500
O 	O 	0.43640 0.99287 0.28037 -0.27600
O 	O 	0.50965 0.02243 0.28295 -0.30100
O 	O 	0.50097 0.95889 0.17710 -0.28900
O 	O 	0.42762 0.93311 0.16969 -0.28400
N 	N 	0.42394 0.97807 0.81360 -0.05900
N 	N 	0.34771 0.84929 0.81350 -0.09700
C 	C 	0.41796 0.94501 0.84600 0.03200
C 	C 	0.44427 0.94308 0.91200 0.26400
C 	C 	0.43923 0.90931 0.93320 -0.15600
H 	H 	0.45750 0.90710 0.97070 0.13700
C 	C 	0.40751 0.87805 0.90020 0.02400
H 	H 	0.40480 0.85520 0.91650 0.06900
C 	C 	0.38037 0.87981 0.84490 0.08400
C 	C 	0.38593 0.91400 0.81220 0.06800
C 	C 	0.36165 0.91915 0.74640 0.04700
H 	H 	0.33980 0.89880 0.72250 0.12600
C 	C 	0.36915 0.95299 0.71670 0.01600
H 	H 	0.35270 0.95620 0.67240 0.20200
C 	C 	0.40067 0.98233 0.75130 0.13000
H 	H 	0.40590 0.00580 0.73080 0.17900
C 	C 	0.33315 0.82361 0.88300 0.07300
H 	H 	0.34380 0.82670 0.95400 0.08600
C 	C 	0.30049 0.78928 0.85780 -0.05800
C 	C 	0.28243 0.78317 0.75730 0.12400
H 	H 	0.29080 0.80180 0.70350 0.05600
C 	C 	0.25253 0.75030 0.73550 -0.28600
H 	H 	0.24070 0.74640 0.66610 0.17700
C 	C 	0.23937 0.72273 0.81300 0.44100
C 	C 	0.25707 0.72902 0.91300 -0.29700
H 	H 	0.24840 0.71050 0.96710 0.19000
C 	C 	0.28737 0.76207 0.93600 0.12700
H 	H 	0.29910 0.76600 0.00560 0.04500
C 	C 	0.20639 0.68682 0.78910 -0.88700
H 	H 	0.18780 0.69070 0.75580 0.37300
H 	H 	0.19730 0.67330 0.85830 0.36900
H 	H 	0.21270 0.67320 0.73760 0.29700
C 	C 	0.36003 0.97855 0.05060 1.09100
C 	C 	0.40067 0.00080 0.06800 0.06200
C 	C 	0.41572 0.03717 0.09290 -0.01700
H 	H 	0.40070 0.04750 0.09840 0.20600
C 	C 	0.45240 0.05836 0.10960 0.10100
C 	C 	0.46834 0.09872 0.13010 0.84900
C 	C 	0.40763 0.00444 0.42330 0.83900
C 	C 	0.44223 0.00973 0.36860 0.12000
C 	C 	0.47534 0.03155 0.41950 -0.07100
H 	H 	0.47650 0.04370 0.48640 0.18100
C 	C 	0.50655 0.03536 0.37210 0.08900
C 	C 	0.54219 0.05829 0.43320 0.85200
C 	C 	0.51988 0.91825 0.23030 0.83300
C 	C 	0.48975 0.92643 0.20520 0.07900
C 	C 	0.45481 0.89882 0.21760 -0.05300
H 	H 	0.45020 0.87550 0.23870 0.14300
C 	C 	0.42601 0.90479 0.19940 0.09400
C 	C 	0.38772 0.87311 0.21770 0.85700
Dy	Dy	0.52847 0.00737 0.86825 2.02400
F 	F 	0.65411 0.04674 0.86830 -0.28400
F 	F 	0.64906 0.03926 0.04130 -0.26900
F 	F 	0.65806 0.00501 0.94140 -0.23600
F 	F 	0.65745 0.01415 0.87440 -0.23400
F 	F 	0.65197 0.05491 0.97150 -0.25400
F 	F 	0.64814 0.00934 0.04420 -0.25300
F 	F 	0.50691 0.88206 0.94470 -0.43300
F 	F 	0.55571 0.89061 0.87180 -0.40200
F 	F 	0.51614 0.89230 0.77140 -0.48100
F 	F 	0.61011 0.98600 0.64623 -0.39400
F 	F 	0.58662 0.97654 0.48472 -0.39200
F 	F 	0.61434 0.02963 0.55120 -0.37900
F 	F 	0.43736 0.95715 0.56908 -0.42600
F 	F 	0.43813 0.91078 0.61830 -0.47200
F 	F 	0.46167 0.93581 0.46280 -0.46700
F 	F 	0.46472 0.06733 0.67229 -0.39900
F 	F 	0.45407 0.06713 0.84502 -0.39300
F 	F 	0.49108 0.11653 0.76430 -0.40900
F 	F 	0.62040 0.13073 0.67610 -0.41600
F 	F 	0.61587 0.15804 0.81690 -0.47700
F 	F 	0.63612 0.12267 0.83650 -0.39100
O 	O 	0.52776 0.02632 0.04985 -0.58200
O 	O 	0.58331 0.01646 0.94386 -0.26200
O 	O 	0.52432 0.95133 0.88898 -0.32500
O 	O 	0.56360 0.00713 0.71963 -0.27600
O 	O 	0.49035 0.97757 0.71705 -0.30100
O 	O 	0.49903 0.04111 0.82290 -0.28900
O 	O 	0.57238 0.06689 0.83031 -0.28400
N 	N 	0.57606 0.02193 0.18640 -0.05900
N 	N 	0.65229 0.15071 0.18650 -0.09700
C 	C 	0.58204 0.05499 0.15400 0.03200
C 	C 	0.55573 0.05692 0.08800 0.26400
C 	C 	0.56077 0.09069 0.06680 -0.15600
H 	H 	0.54250 0.09290 0.02930 0.13700
C 	C 	0.59249 0.12195 0.09980 0.02400
H 	H 	0.59520 0.14480 0.08350 0.06900
C 	C 	0.61963 0.12019 0.15510 0.08400
C 	C 	0.61407 0.08600 0.18780 0.06800
C 	C 	0.63835 0.08085 0.25360 0.04700
H 	H 	0.66020 0.10120 0.27750 0.12600
C 	C 	0.63085 0.04701 0.28330 0.01600
H 	H 	0.64730 0.04380 0.32760 0.20200
C 	C 	0.59933 0.01767 0.24870 0.13000
H 	H 	0.59410 0.99420 0.26920 0.17900
C 	C 	0.66685 0.17639 0.11700 0.07300
H 	H 	0.65620 0.17330 0.04600 0.08600
C 	C 	0.69951 0.21072 0.14220 -0.05800
C 	C 	0.71757 0.21683 0.24270 0.12400
H 	H 	0.70920 0.19820 0.29650 0.05600
C 	C 	0.74747 0.24970 0.26450 -0.28600
H 	H 	0.75930 0.25360 0.33390 0.17700
C 	C 	0.76063 0.27727 0.18700 0.44100
C 	C 	0.74293 0.27098 0.08700 -0.29700
H 	H 	0.75160 0.28950 0.03290 0.19000
C 	C 	0.71263 0.23793 0.06400 0.12700
H 	H 	0.70090 0.23400 0.99440 0.04500
C 	C 	0.79361 0.31318 0.21090 -0.88700
H 	H 	0.81220 0.30930 0.24420 0.37300
H 	H 	0.80270 0.32670 0.14170 0.36900
H 	H 	0.78730 0.32680 0.26240 0.29700
C 	C 	0.63997 0.02145 0.94940 1.09100
C 	C 	0.59933 0.99920 0.93200 0.06200
C 	C 	0.58428 0.96283 0.90710 -0.01700
H 	H 	0.59930 0.95250 0.90160 0.20600
C 	C 	0.54760 0.94164 0.89040 0.10100
C 	C 	0.53166 0.90128 0.86990 0.84900
C 	C 	0.59237 0.99556 0.57670 0.83900
C 	C 	0.55777 0.99027 0.63140 0.12000
C 	C 	0.52466 0.96845 0.58050 -0.07100
H 	H 	0.52350 0.95630 0.51360 0.18100
C 	C 	0.49345 0.96464 0.62790 0.08900
C 	C 	0.45781 0.94171 0.56680 0.85200
C 	C 	0.48012 0.08175 0.76970 0.83300
C 	C 	0.51025 0.07357 0.79480 0.07900
C 	C 	0.54519 0.10118 0.78240 -0.05300
H 	H 	0.54980 0.12450 0.76130 0.14300
C 	C 	0.57399 0.09521 0.80060 0.09400
C 	C 	0.61228 0.12689 0.78230 0.85700
Dy	Dy	0.13820 0.32597 0.46509 2.02500
F 	F 	0.01256 0.28659 0.46503 -0.28400
F 	F 	0.01761 0.29407 0.29203 -0.26900
F 	F 	0.00861 0.32832 0.39193 -0.23500
F 	F 	0.00922 0.31918 0.45893 -0.23400
F 	F 	0.01470 0.27842 0.36183 -0.25500
F 	F 	0.01853 0.32399 0.28913 -0.25300
F 	F 	0.15976 0.45127 0.38863 -0.43200
F 	F 	0.11096 0.44272 0.46153 -0.40200
F 	F 	0.15053 0.44103 0.56193 -0.48100
F 	F 	0.05656 0.34733 0.68710 -0.39400
F 	F 	0.08005 0.35679 0.84861 -0.39200
F 	F 	0.05233 0.30370 0.78213 -0.37900
F 	F 	0.22931 0.37618 0.76425 -0.42600
F 	F 	0.22854 0.42255 0.71503 -0.47300
F 	F 	0.20500 0.39752 0.87053 -0.46800
F 	F 	0.20195 0.26600 0.66104 -0.39900
F 	F 	0.21260 0.26620 0.48831 -0.39300
F 	F 	0.17559 0.21680 0.56903 -0.40900
F 	F 	0.04627 0.20260 0.65723 -0.41600
F 	F 	0.05080 0.17529 0.51643 -0.47700
F 	F 	0.03055 0.21066 0.49683 -0.39200
O 	O 	0.13891 0.30701 0.28348 -0.58200
O 	O 	0.08336 0.31687 0.38947 -0.26200
O 	O 	0.14235 0.38200 0.44435 -0.32500
O 	O 	0.10307 0.32620 0.61370 -0.27600
O 	O 	0.17632 0.35576 0.61628 -0.30100
O 	O 	0.16764 0.29222 0.51043 -0.28900
O 	O 	0.09429 0.26644 0.50302 -0.28400
N 	N 	0.09061 0.31140 0.14693 -0.05900
N 	N 	0.01438 0.18262 0.14683 -0.09800
C 	C 	0.08463 0.27834 0.17933 0.03200
C 	C 	0.11094 0.27641 0.24533 0.26400
C 	C 	0.10590 0.24264 0.26653 -0.15600
H 	H 	0.12417 0.24043 0.30403 0.13700
C 	C 	0.07418 0.21138 0.23353 0.02400
H 	H 	0.07147 0.18853 0.24983 0.07000
C 	C 	0.04704 0.21314 0.17823 0.08400
C 	C 	0.05260 0.24733 0.14553 0.06800
C 	C 	0.02832 0.25248 0.07973 0.04600
H 	H 	0.00647 0.23213 0.05583 0.12600
C 	C 	0.03582 0.28632 0.05003 0.01600
H 	H 	0.01937 0.28953 0.00573 0.20200
C 	C 	0.06734 0.31566 0.08463 0.13000
H 	H 	0.07257 0.33913 0.06413 0.17900
C 	C 	0.99982 0.15694 0.21633 0.07500
H 	H 	0.01047 0.16003 0.28733 0.08600
C 	C 	0.96716 0.12261 0.19113 -0.06200
C 	C 	0.94910 0.11650 0.09063 0.12700
H 	H 	0.95747 0.13513 0.03683 0.05500
C 	C 	0.91920 0.08363 0.06883 -0.28900
H 	H 	0.90737 0.07973 0.99943 0.17800
C 	C 	0.90604 0.05606 0.14633 0.44500
C 	C 	0.92374 0.06235 0.24633 -0.30100
H 	H 	0.91507 0.04383 0.30043 0.19200
C 	C 	0.95404 0.09540 0.26933 0.13500
H 	H 	0.96577 0.09933 0.33893 0.04100
C 	C 	0.87306 0.02015 0.12243 -0.89100
H 	H 	0.85447 0.02403 0.08913 0.37500
H 	H 	0.86397 0.00663 0.19163 0.37000
H 	H 	0.87937 0.00653 0.07093 0.29800
C 	C 	0.02670 0.31188 0.38393 1.09200
C 	C 	0.06734 0.33413 0.40133 0.06100
C 	C 	0.08239 0.37050 0.42623 -0.01700
H 	H 	0.06737 0.38083 0.43173 0.20600
C 	C 	0.11907 0.39169 0.44293 0.10100
C 	C 	0.13501 0.43205 0.46343 0.84900
C 	C 	0.07430 0.33777 0.75663 0.83900
C 	C 	0.10890 0.34306 0.70193 0.12000
C 	C 	0.14201 0.36488 0.75283 -0.07000
H 	H 	0.14317 0.37703 0.81973 0.18000
C 	C 	0.17322 0.36869 0.70543 0.08900
C 	C 	0.20886 0.39162 0.76653 0.85200
C 	C 	0.18655 0.25158 0.56363 0.83300
C 	C 	0.15642 0.25976 0.53853 0.07900
C 	C 	0.12148 0.23215 0.55093 -0.05300
H 	H 	0.11687 0.20883 0.57203 0.14200
C 	C 	0.09268 0.23812 0.53273 0.09400
C 	C 	0.05439 0.20644 0.55103 0.85700
Dy	Dy	0.19513 0.34070 0.20158 2.02500
F 	F 	0.32078 0.38007 0.20163 -0.28400
F 	F 	0.31573 0.37259 0.37463 -0.26900
F 	F 	0.32473 0.33834 0.27473 -0.23500
F 	F 	0.32412 0.34748 0.20773 -0.23400
F 	F 	0.31864 0.38824 0.30483 -0.25400
F 	F 	0.31481 0.34267 0.37753 -0.25300
F 	F 	0.17358 0.21539 0.27803 -0.43200
F 	F 	0.22238 0.22394 0.20513 -0.40200
F 	F 	0.18281 0.22563 0.10473 -0.48100
F 	F 	0.27678 0.31933 0.97956 -0.39500
F 	F 	0.25329 0.30987 0.81805 -0.39200
F 	F 	0.28101 0.36296 0.88453 -0.38000
F 	F 	0.10403 0.29048 0.90241 -0.42600
F 	F 	0.10480 0.24411 0.95163 -0.47300
F 	F 	0.12834 0.26914 0.79613 -0.46700
F 	F 	0.13139 0.40066 0.00562 -0.39800
F 	F 	0.12074 0.40046 0.17835 -0.39300
F 	F 	0.15775 0.44986 0.09763 -0.40800
F 	F 	0.28707 0.46406 0.00943 -0.41500
F 	F 	0.28254 0.49137 0.15023 -0.47700
F 	F 	0.30279 0.45600 0.16983 -0.39100
O 	O 	0.19443 0.35965 0.38318 -0.58200
O 	O 	0.24998 0.34979 0.27719 -0.26200
O 	O 	0.19099 0.28466 0.22231 -0.32400
O 	O 	0.23027 0.34046 0.05296 -0.27500
O 	O 	0.15702 0.31090 0.05038 -0.30000
O 	O 	0.16570 0.37444 0.15623 -0.28900
O 	O 	0.23905 0.40022 0.16364 -0.28400
N 	N 	0.24273 0.35526 0.51973 -0.05900
N 	N 	0.31896 0.48404 0.51983 -0.09800
C 	C 	0.24871 0.38832 0.48733 0.03200
C 	C 	0.22240 0.39025 0.42133 0.26400
C 	C 	0.22744 0.42402 0.40013 -0.15600
H 	H 	0.20917 0.42623 0.36263 0.13700
C 	C 	0.25916 0.45528 0.43313 0.02400
H 	H 	0.26187 0.47813 0.41683 0.07000
C 	C 	0.28630 0.45352 0.48843 0.08400
C 	C 	0.28074 0.41933 0.52113 0.06800
C 	C 	0.30502 0.41418 0.58693 0.04600
H 	H 	0.32687 0.43453 0.61083 0.12600
C 	C 	0.29752 0.38034 0.61663 0.01600
H 	H 	0.31397 0.37713 0.66093 0.20200
C 	C 	0.26600 0.35100 0.58203 0.13000
H 	H 	0.26077 0.32753 0.60253 0.17900
C 	C 	0.33352 0.50972 0.45033 0.07500
H 	H 	0.32287 0.50663 0.37933 0.08600
C 	C 	0.36618 0.54405 0.47553 -0.06200
C 	C 	0.38424 0.55016 0.57603 0.12700
H 	H 	0.37587 0.53153 0.62983 0.05500
C 	C 	0.41414 0.58303 0.59783 -0.28900
H 	H 	0.42597 0.58693 0.66723 0.17800
C 	C 	0.42730 0.61060 0.52033 0.44500
C 	C 	0.40960 0.60431 0.42033 -0.30100
H 	H 	0.41827 0.62283 0.36623 0.19200
C 	C 	0.37930 0.57126 0.39733 0.13500
H 	H 	0.36757 0.56733 0.32773 0.04100
C 	C 	0.46028 0.64651 0.54423 -0.89100
H 	H 	0.47887 0.64263 0.57753 0.37400
H 	H 	0.46937 0.66003 0.47503 0.37000
H 	H 	0.45397 0.66013 0.59573 0.29800
C 	C 	0.30664 0.35478 0.28273 1.09200
C 	C 	0.26600 0.33253 0.26533 0.06100
C 	C 	0.25095 0.29616 0.24043 -0.01700
H 	H 	0.26597 0.28583 0.23493 0.20600
C 	C 	0.21427 0.27497 0.22373 0.10100
C 	C 	0.19833 0.23461 0.20323 0.84900
C 	C 	0.25904 0.32889 0.91003 0.83900
C 	C 	0.22444 0.32360 0.96473 0.11800
C 	C 	0.19133 0.30178 0.91383 -0.06900
H 	H 	0.19017 0.28963 0.84693 0.18000
C 	C 	0.16012 0.29797 0.96123 0.08800
C 	C 	0.12448 0.27504 0.90013 0.85200
C 	C 	0.14679 0.41508 0.10303 0.83300
C 	C 	0.17692 0.40690 0.12813 0.08000
C 	C 	0.21186 0.43451 0.11573 -0.05300
H 	H 	0.21647 0.45783 0.09463 0.14300
C 	C 	0.24066 0.42854 0.13393 0.09400
C 	C 	0.27895 0.46022 0.11563 0.85600
Dy	Dy	0.80487 0.65930 0.79842 2.02500
F 	F 	0.67922 0.61993 0.79837 -0.28400
F 	F 	0.68427 0.62741 0.62537 -0.26900
F 	F 	0.67527 0.66166 0.72527 -0.23500
F 	F 	0.67588 0.65252 0.79227 -0.23400
F 	F 	0.68136 0.61176 0.69517 -0.25400
F 	F 	0.68519 0.65733 0.62247 -0.25300
F 	F 	0.82642 0.78461 0.72197 -0.43200
F 	F 	0.77762 0.77606 0.79487 -0.40200
F 	F 	0.81719 0.77437 0.89527 -0.48100
F 	F 	0.72322 0.68067 0.02044 -0.39500
F 	F 	0.74671 0.69013 0.18195 -0.39200
F 	F 	0.71899 0.63704 0.11547 -0.38000
F 	F 	0.89597 0.70952 0.09759 -0.42600
F 	F 	0.89520 0.75589 0.04837 -0.47300
F 	F 	0.87166 0.73086 0.20387 -0.46700
F 	F 	0.86861 0.59934 0.99438 -0.39800
F 	F 	0.87926 0.59954 0.82165 -0.39300
F 	F 	0.84225 0.55014 0.90237 -0.40800
F 	F 	0.71293 0.53594 0.99057 -0.41500
F 	F 	0.71746 0.50863 0.84977 -0.47700
F 	F 	0.69721 0.54400 0.83017 -0.39100
O 	O 	0.80557 0.64035 0.61682 -0.58200
O 	O 	0.75002 0.65021 0.72281 -0.26200
O 	O 	0.80901 0.71534 0.77769 -0.32400
O 	O 	0.76973 0.65954 0.94704 -0.27500
O 	O 	0.84298 0.68910 0.94962 -0.30000
O 	O 	0.83430 0.62556 0.84377 -0.28900
O 	O 	0.76095 0.59978 0.83636 -0.28400
N 	N 	0.75727 0.64474 0.48027 -0.05900
N 	N 	0.68104 0.51596 0.48017 -0.09800
C 	C 	0.75129 0.61168 0.51267 0.03200
C 	C 	0.77760 0.60975 0.57867 0.26400
C 	C 	0.77256 0.57598 0.59987 -0.15600
H 	H 	0.79083 0.57377 0.63737 0.13700
C 	C 	0.74084 0.54472 0.56687 0.02400
H 	H 	0.73813 0.52187 0.58317 0.07000
C 	C 	0.71370 0.54648 0.51157 0.08400
C 	C 	0.71926 0.58067 0.47887 0.06800
C 	C 	0.69498 0.58582 0.41307 0.04600
H 	H 	0.67313 0.56547 0.38917 0.12600
C 	C 	0.70248 0.61966 0.38337 0.01600
H 	H 	0.68603 0.62287 0.33907 0.20200
C 	C 	0.73400 0.64900 0.41797 0.13000
H 	H 	0.73923 0.67247 0.39747 0.17900
C 	C 	0.66648 0.49028 0.54967 0.07500
H 	H 	0.67713 0.49337 0.62067 0.08600
C 	C 	0.63382 0.45595 0.52447 -0.06200
C 	C 	0.61576 0.44984 0.42397 0.12700
H 	H 	0.62413 0.46847 0.37017 0.05500
C 	C 	0.58586 0.41697 0.40217 -0.28900
H 	H 	0.57403 0.41307 0.33277 0.17800
C 	C 	0.57270 0.38940 0.47967 0.44500
C 	C 	0.59040 0.39569 0.57967 -0.30100
H 	H 	0.58173 0.37717 0.63377 0.19200
C 	C 	0.62070 0.42874 0.60267 0.13500
H 	H 	0.63243 0.43267 0.67227 0.04100
C 	C 	0.53972 0.35349 0.45577 -0.89100
H 	H 	0.52113 0.35737 0.42247 0.37400
H 	H 	0.53063 0.33997 0.52497 0.37000
H 	H 	0.54603 0.33987 0.40427 0.29800
C 	C 	0.69336 0.64522 0.71727 1.09200
C 	C 	0.73400 0.66747 0.73467 0.06100
C 	C 	0.74905 0.70384 0.75957 -0.01700
H 	H 	0.73403 0.71417 0.76507 0.20600
C 	C 	0.78573 0.72503 0.77627 0.10100
C 	C 	0.80167 0.76539 0.79677 0.84900
C 	C 	0.74096 0.67111 0.08997 0.83900
C 	C 	0.77556 0.67640 0.03527 0.11800
C 	C 	0.80867 0.69822 0.08617 -0.06900
H 	H 	0.80983 0.71037 0.15307 0.18000
C 	C 	0.83988 0.70203 0.03877 0.08800
C 	C 	0.87552 0.72496 0.09987 0.85200
C 	C 	0.85321 0.58492 0.89697 0.83300
C 	C 	0.82308 0.59310 0.87187 0.08000
C 	C 	0.78814 0.56549 0.88427 -0.05300
H 	H 	0.78353 0.54217 0.90537 0.14300
C 	C 	0.75934 0.57146 0.86607 0.09400
C 	C 	0.72105 0.53978 0.88437 0.85600
Dy	Dy	0.86180 0.67403 0.53491 2.02500
F 	F 	0.98744 0.71341 0.53497 -0.28400
F 	F 	0.98239 0.70593 0.70797 -0.26900
F 	F 	0.99139 0.67168 0.60807 -0.23500
F 	F 	0.99078 0.68082 0.54107 -0.23400
F 	F 	0.98530 0.72158 0.63817 -0.25500
F 	F 	0.98147 0.67601 0.71087 -0.25300
F 	F 	0.84024 0.54873 0.61137 -0.43200
F 	F 	0.88904 0.55728 0.53847 -0.40200
F 	F 	0.84947 0.55897 0.43807 -0.48100
F 	F 	0.94344 0.65267 0.31290 -0.39400
F 	F 	0.91995 0.64321 0.15139 -0.39200
F 	F 	0.94767 0.69630 0.21787 -0.37900
F 	F 	0.77069 0.62382 0.23575 -0.42600
F 	F 	0.77146 0.57745 0.28497 -0.47300
F 	F 	0.79500 0.60248 0.12947 -0.46800
F 	F 	0.79805 0.73400 0.33896 -0.39900
F 	F 	0.78740 0.73380 0.51169 -0.39300
F 	F 	0.82441 0.78320 0.43097 -0.40900
F 	F 	0.95373 0.79740 0.34277 -0.41600
F 	F 	0.94920 0.82471 0.48357 -0.47700
F 	F 	0.96945 0.78934 0.50317 -0.39200
O 	O 	0.86109 0.69299 0.71652 -0.58200
O 	O 	0.91664 0.68313 0.61053 -0.26200
O 	O 	0.85765 0.61800 0.55565 -0.32500
O 	O 	0.89693 0.67380 0.38630 -0.27600
O 	O 	0.82368 0.64424 0.38372 -0.30100
O 	O 	0.83236 0.70778 0.48957 -0.28900
O 	O 	0.90571 0.73356 0.49698 -0.28400
N 	N 	0.90939 0.68860 0.85307 -0.05900
N 	N 	0.98562 0.81738 0.85317 -0.09800
C 	C 	0.91537 0.72166 0.82067 0.03200
C 	C 	0.88906 0.72359 0.75467 0.26400
C 	C 	0.89410 0.75736 0.73347 -0.15600
H 	H 	0.87583 0.75957 0.69597 0.13700
C 	C 	0.92582 0.78862 0.76647 0.02400
H 	H 	0.92853 0.81147 0.75017 0.07000
C 	C 	0.95296 0.78686 0.82177 0.08400
C 	C 	0.94740 0.75267 0.85447 0.06800
C 	C 	0.97168 0.74752 0.92027 0.04600
H 	H 	0.99353 0.76787 0.94417 0.12600
C 	C 	0.96418 0.71368 0.94997 0.01600
H 	H 	0.98063 0.71047 0.99427 0.20200
C 	C 	0.93266 0.68434 0.91537 0.13000
H 	H 	0.92743 0.66087 0.93587 0.17900
C 	C 	0.00018 0.84306 0.78367 0.07500
H 	H 	0.98953 0.83997 0.71267 0.08600
C 	C 	0.03284 0.87739 0.80887 -0.06200
C 	C 	0.05090 0.88350 0.90937 0.12700
H 	H 	0.04253 0.86487 0.96317 0.05500
C 	C 	0.08080 0.91637 0.93117 -0.28900
H 	H 	0.09263 0.92027 0.00057 0.17800
C 	C 	0.09396 0.94394 0.85367 0.44500
C 	C 	0.07626 0.93765 0.75367 -0.30100
H 	H 	0.08493 0.95617 0.69957 0.19200
C 	C 	0.04596 0.90460 0.73067 0.13500
H 	H 	0.03423 0.90067 0.66107 0.04100
C 	C 	0.12694 0.97985 0.87757 -0.89100
H 	H 	0.14553 0.97597 0.91087 0.37500
H 	H 	0.13603 0.99337 0.80837 0.37000
H 	H 	0.12063 0.99347 0.92907 0.29800
C 	C 	0.97330 0.68812 0.61607 1.09200
C 	C 	0.93266 0.66587 0.59867 0.06100
C 	C 	0.91761 0.62950 0.57377 -0.01700
H 	H 	0.93263 0.61917 0.56827 0.20600
C 	C 	0.88093 0.60831 0.55707 0.10100
C 	C 	0.86499 0.56795 0.53657 0.84900
C 	C 	0.92570 0.66223 0.24337 0.83900
C 	C 	0.89110 0.65694 0.29807 0.12000
C 	C 	0.85799 0.63512 0.24717 -0.07000
H 	H 	0.85683 0.62297 0.18027 0.18000
C 	C 	0.82678 0.63131 0.29457 0.08900
C 	C 	0.79114 0.60838 0.23347 0.85200
C 	C 	0.81345 0.74842 0.43637 0.83300
C 	C 	0.84358 0.74024 0.46147 0.07900
C 	C 	0.87852 0.76785 0.44907 -0.05300
H 	H 	0.88313 0.79117 0.42797 0.14200
C 	C 	0.90732 0.76188 0.46727 0.09400
C 	C 	0.94561 0.79356 0.44897 0.85700
Dy	Dy	0.00737 0.47890 0.13175 2.02400
F 	F 	0.04674 0.39263 0.13170 -0.28400
F 	F 	0.03926 0.39020 0.95870 -0.26900
F 	F 	0.00501 0.34695 0.05860 -0.23500
F 	F 	0.01415 0.35670 0.12560 -0.23400
F 	F 	0.05491 0.40294 0.02850 -0.25400
F 	F 	0.00934 0.36120 0.95580 -0.25300
F 	F 	0.88206 0.37515 0.05530 -0.43300
F 	F 	0.89061 0.33490 0.12820 -0.40200
F 	F 	0.89230 0.37616 0.22860 -0.48100
F 	F 	0.98600 0.37589 0.35377 -0.39400
F 	F 	0.97654 0.38992 0.51528 -0.39200
F 	F 	0.02963 0.41529 0.44880 -0.37900
F 	F 	0.95715 0.51979 0.43092 -0.42600
F 	F 	0.91078 0.47265 0.38170 -0.47200
F 	F 	0.93581 0.47414 0.53720 -0.46700
F 	F 	0.06733 0.60261 0.32771 -0.39900
F 	F 	0.06713 0.61306 0.15498 -0.39300
F 	F 	0.11653 0.62545 0.23570 -0.40900
F 	F 	0.13073 0.51033 0.32390 -0.41600
F 	F 	0.15804 0.54217 0.18310 -0.47700
F 	F 	0.12267 0.48655 0.16350 -0.39100
O 	O 	0.02632 0.49856 0.95015 -0.58200
O 	O 	0.01646 0.43315 0.05614 -0.26200
O 	O 	0.95133 0.42701 0.11102 -0.32500
O 	O 	0.00713 0.44353 0.28037 -0.27600
O 	O 	0.97757 0.48722 0.28295 -0.30100
O 	O 	0.04111 0.54208 0.17710 -0.28900
O 	O 	0.06689 0.49451 0.16969 -0.28400
N 	N 	0.02193 0.44587 0.81360 -0.05900
N 	N 	0.15071 0.49842 0.81350 -0.09700
C 	C 	0.05499 0.47295 0.84600 0.03200
C 	C 	0.05692 0.50119 0.91200 0.26400
C 	C 	0.09069 0.52992 0.93320 -0.15600
H 	H 	0.09290 0.55040 0.97070 0.13700
C 	C 	0.12195 0.52946 0.90020 0.02400
H 	H 	0.14480 0.54960 0.91650 0.06900
C 	C 	0.12019 0.50056 0.84490 0.08400
C 	C 	0.08600 0.47193 0.81220 0.06800
C 	C 	0.08085 0.44250 0.74640 0.04700
H 	H 	0.10120 0.44100 0.72250 0.12600
C 	C 	0.04701 0.41616 0.71670 0.01600
H 	H 	0.04380 0.39650 0.67240 0.20200
C 	C 	0.01767 0.41834 0.75130 0.13000
H 	H 	0.99420 0.40010 0.73080 0.17900
C 	C 	0.17639 0.50954 0.88300 0.07300
H 	H 	0.17330 0.51710 0.95400 0.08600
C 	C 	0.21072 0.51121 0.85780 -0.05800
C 	C 	0.21683 0.49926 0.75730 0.12400
H 	H 	0.19820 0.48900 0.70350 0.05600
C 	C 	0.24970 0.50223 0.73550 -0.28600
H 	H 	0.25360 0.49430 0.66610 0.17700
C 	C 	0.27727 0.51664 0.81300 0.44100
C 	C 	0.27098 0.52805 0.91300 -0.29600
H 	H 	0.28950 0.53790 0.96710 0.19000
C 	C 	0.23793 0.52530 0.93600 0.12700
H 	H 	0.23400 0.53310 0.00560 0.04500
C 	C 	0.31318 0.51957 0.78910 -0.88700
H 	H 	0.30930 0.49710 0.75580 0.37300
H 	H 	0.32670 0.52400 0.85830 0.36900
H 	H 	0.32680 0.53950 0.73760 0.29700
C 	C 	0.02145 0.38148 0.05060 1.09100
C 	C 	0.99920 0.39987 0.06800 0.06200
C 	C 	0.96283 0.37855 0.09290 -0.01700
H 	H 	0.95250 0.35320 0.09840 0.20600
C 	C 	0.94164 0.39404 0.10960 0.10100
C 	C 	0.90128 0.36962 0.13010 0.84900
C 	C 	0.99556 0.40319 0.42330 0.83900
C 	C 	0.99027 0.43250 0.36860 0.12000
C 	C 	0.96845 0.44379 0.41950 -0.07100
H 	H 	0.95630 0.43280 0.48640 0.18100
C 	C 	0.96464 0.47119 0.37210 0.08900
C 	C 	0.94171 0.48390 0.43320 0.85200
C 	C 	0.08175 0.60163 0.23030 0.83300
C 	C 	0.07357 0.56332 0.20520 0.07900
C 	C 	0.10118 0.55599 0.21760 -0.05300
H 	H 	0.12450 0.57470 0.23870 0.14300
C 	C 	0.09521 0.52122 0.19940 0.09400
C 	C 	0.12689 0.51461 0.21770 0.85700
Dy	Dy	0.99263 0.52110 0.86825 2.02400
F 	F 	0.95326 0.60737 0.86830 -0.28400
F 	F 	0.96074 0.60980 0.04130 -0.26900
F 	F 	0.99499 0.65305 0.94140 -0.23500
F 	F 	0.98585 0.64330 0.87440 -0.23400
F 	F 	0.94509 0.59706 0.97150 -0.25400
F 	F 	0.99066 0.63880 0.04420 -0.25300
F 	F 	0.11794 0.62485 0.94470 -0.43300
F 	F 	0.10939 0.66510 0.87180 -0.40200
F 	F 	0.10770 0.62384 0.77140 -0.48100
F 	F 	0.01400 0.62411 0.64623 -0.39400
F 	F 	0.02346 0.61008 0.48472 -0.39200
F 	F 	0.97037 0.58471 0.55120 -0.37900
F 	F 	0.04285 0.48021 0.56908 -0.42600
F 	F 	0.08922 0.52735 0.61830 -0.47200
F 	F 	0.06419 0.52586 0.46280 -0.46700
F 	F 	0.93267 0.39739 0.67229 -0.39900
F 	F 	0.93287 0.38694 0.84502 -0.39300
F 	F 	0.88347 0.37455 0.76430 -0.40900
F 	F 	0.86927 0.48967 0.67610 -0.41600
F 	F 	0.84196 0.45783 0.81690 -0.47700
F 	F 	0.87733 0.51345 0.83650 -0.39100
O 	O 	0.97368 0.50144 0.04985 -0.58200
O 	O 	0.98354 0.56685 0.94386 -0.26200
O 	O 	0.04867 0.57299 0.88898 -0.32500
O 	O 	0.99287 0.55647 0.71963 -0.27600
O 	O 	0.02243 0.51278 0.71705 -0.30100
O 	O 	0.95889 0.45792 0.82290 -0.28900
O 	O 	0.93311 0.50549 0.83031 -0.28400
N 	N 	0.97807 0.55413 0.18640 -0.05900
N 	N 	0.84929 0.50158 0.18650 -0.09700
C 	C 	0.94501 0.52705 0.15400 0.03200
C 	C 	0.94308 0.49881 0.08800 0.26400
C 	C 	0.90931 0.47008 0.06680 -0.15600
H 	H 	0.90710 0.44960 0.02930 0.13700
C 	C 	0.87805 0.47054 0.09980 0.02400
H 	H 	0.85520 0.45040 0.08350 0.06900
C 	C 	0.87981 0.49944 0.15510 0.08400
C 	C 	0.91400 0.52807 0.18780 0.06800
C 	C 	0.91915 0.55750 0.25360 0.04700
H 	H 	0.89880 0.55900 0.27750 0.12600
C 	C 	0.95299 0.58384 0.28330 0.01600
H 	H 	0.95620 0.60350 0.32760 0.20200
C 	C 	0.98233 0.58166 0.24870 0.13000
H 	H 	0.00580 0.59990 0.26920 0.17900
C 	C 	0.82361 0.49046 0.11700 0.07300
H 	H 	0.82670 0.48290 0.04600 0.08600
C 	C 	0.78928 0.48879 0.14220 -0.05800
C 	C 	0.78317 0.50074 0.24270 0.12400
H 	H 	0.80180 0.51100 0.29650 0.05600
C 	C 	0.75030 0.49777 0.26450 -0.28600
H 	H 	0.74640 0.50570 0.33390 0.17700
C 	C 	0.72273 0.48336 0.18700 0.44100
C 	C 	0.72902 0.47195 0.08700 -0.29600
H 	H 	0.71050 0.46210 0.03290 0.19000
C 	C 	0.76207 0.47470 0.06400 0.12700
H 	H 	0.76600 0.46690 0.99440 0.04500
C 	C 	0.68682 0.48043 0.21090 -0.88700
H 	H 	0.69070 0.50290 0.24420 0.37300
H 	H 	0.67330 0.47600 0.14170 0.36900
H 	H 	0.67320 0.46050 0.26240 0.29700
C 	C 	0.97855 0.61852 0.94940 1.09100
C 	C 	0.00080 0.60013 0.93200 0.06200
C 	C 	0.03717 0.62145 0.90710 -0.01700
H 	H 	0.04750 0.64680 0.90160 0.20600
C 	C 	0.05836 0.60596 0.89040 0.10100
C 	C 	0.09872 0.63038 0.86990 0.84900
C 	C 	0.00444 0.59681 0.57670 0.83900
C 	C 	0.00973 0.56750 0.63140 0.12000
C 	C 	0.03155 0.55621 0.58050 -0.07100
H 	H 	0.04370 0.56720 0.51360 0.18100
C 	C 	0.03536 0.52881 0.62790 0.08900
C 	C 	0.05829 0.51610 0.56680 0.85200
C 	C 	0.91825 0.39837 0.76970 0.83300
C 	C 	0.92643 0.43668 0.79480 0.07900
C 	C 	0.89882 0.44401 0.78240 -0.05300
H 	H 	0.87550 0.42530 0.76130 0.14300
C 	C 	0.90479 0.47878 0.80060 0.09400
C 	C 	0.87311 0.48539 0.78230 0.85700
Dy	Dy	0.67403 0.81223 0.46509 2.02500
F 	F 	0.71341 0.72596 0.46503 -0.28400
F 	F 	0.70593 0.72353 0.29203 -0.26900
F 	F 	0.67168 0.68028 0.39193 -0.23500
F 	F 	0.68082 0.69003 0.45893 -0.23400
F 	F 	0.72158 0.73627 0.36183 -0.25500
F 	F 	0.67601 0.69453 0.28913 -0.25300
F 	F 	0.54873 0.70848 0.38863 -0.43200
F 	F 	0.55728 0.66823 0.46153 -0.40200
F 	F 	0.55897 0.70949 0.56193 -0.48100
F 	F 	0.65267 0.70922 0.68710 -0.39400
F 	F 	0.64321 0.72325 0.84861 -0.39200
F 	F 	0.69630 0.74862 0.78213 -0.37900
F 	F 	0.62382 0.85312 0.76425 -0.42600
F 	F 	0.57745 0.80598 0.71503 -0.47300
F 	F 	0.60248 0.80747 0.87053 -0.46800
F 	F 	0.73400 0.93594 0.66104 -0.39900
F 	F 	0.73380 0.94639 0.48831 -0.39300
F 	F 	0.78320 0.95878 0.56903 -0.40900
F 	F 	0.79740 0.84366 0.65723 -0.41600
F 	F 	0.82471 0.87550 0.51643 -0.47700
F 	F 	0.78934 0.81988 0.49683 -0.39200
O 	O 	0.69299 0.83189 0.28348 -0.58200
O 	O 	0.68313 0.76648 0.38947 -0.26200
O 	O 	0.61800 0.76034 0.44435 -0.32500
O 	O 	0.67380 0.77686 0.61370 -0.27600
O 	O 	0.64424 0.82055 0.61628 -0.30100
O 	O 	0.70778 0.87541 0.51043 -0.28900
O 	O 	0.73356 0.82784 0.50302 -0.28400
N 	N 	0.68860 0.77920 0.14693 -0.05900
N 	N 	0.81738 0.83175 0.14683 -0.09800
C 	C 	0.72166 0.80628 0.17933 0.03200
C 	C 	0.72359 0.83452 0.24533 0.26400
C 	C 	0.75736 0.86325 0.26653 -0.15600
H 	H 	0.75957 0.88373 0.30403 0.13700
C 	C 	0.78862 0.86279 0.23353 0.02400
H 	H 	0.81147 0.88293 0.24983 0.07000
C 	C 	0.78686 0.83389 0.17823 0.08400
C 	C 	0.75267 0.80526 0.14553 0.06800
C 	C 	0.74752 0.77583 0.07973 0.04600
H 	H 	0.76787 0.77433 0.05583 0.12600
C 	C 	0.71368 0.74949 0.05003 0.01600
H 	H 	0.71047 0.72983 0.00573 0.20200
C 	C 	0.68434 0.75167 0.08463 0.13000
H 	H 	0.66087 0.73343 0.06413 0.17900
C 	C 	0.84306 0.84287 0.21633 0.07500
H 	H 	0.83997 0.85043 0.28733 0.08600
C 	C 	0.87739 0.84454 0.19113 -0.06200
C 	C 	0.88350 0.83259 0.09063 0.12800
H 	H 	0.86487 0.82233 0.03683 0.05500
C 	C 	0.91637 0.83556 0.06883 -0.29000
H 	H 	0.92027 0.82763 0.99943 0.17900
C 	C 	0.94394 0.84997 0.14633 0.44500
C 	C 	0.93765 0.86138 0.24633 -0.30200
H 	H 	0.95617 0.87123 0.30043 0.19200
C 	C 	0.90460 0.85863 0.26933 0.13500
H 	H 	0.90067 0.86643 0.33893 0.04100
C 	C 	0.97985 0.85290 0.12243 -0.89100
H 	H 	0.97597 0.83043 0.08913 0.37500
H 	H 	0.99337 0.85733 0.19163 0.37100
H 	H 	0.99347 0.87283 0.07093 0.29800
C 	C 	0.68812 0.71481 0.38393 1.09200
C 	C 	0.66587 0.73320 0.40133 0.06100
C 	C 	0.62950 0.71188 0.42623 -0.01700
H 	H 	0.61917 0.68653 0.43173 0.20600
C 	C 	0.60831 0.72737 0.44293 0.10100
C 	C 	0.56795 0.70295 0.46343 0.84900
C 	C 	0.66223 0.73652 0.75663 0.83900
C 	C 	0.65694 0.76583 0.70193 0.12000
C 	C 	0.63512 0.77712 0.75283 -0.07000
H 	H 	0.62297 0.76613 0.81973 0.18000
C 	C 	0.63131 0.80452 0.70543 0.08900
C 	C 	0.60838 0.81723 0.76653 0.85200
C 	C 	0.74842 0.93496 0.56363 0.83300
C 	C 	0.74024 0.89665 0.53853 0.07900
C 	C 	0.76785 0.88932 0.55093 -0.05300
H 	H 	0.79117 0.90803 0.57203 0.14200
C 	C 	0.76188 0.85455 0.53273 0.09400
C 	C 	0.79356 0.84794 0.55103 0.85700
Dy	Dy	0.65930 0.85444 0.20158 2.02500
F 	F 	0.61993 0.94070 0.20163 -0.28400
F 	F 	0.62741 0.94313 0.37463 -0.26900
F 	F 	0.66166 0.98638 0.27473 -0.23500
F 	F 	0.65252 0.97663 0.20773 -0.23400
F 	F 	0.61176 0.93039 0.30483 -0.25400
F 	F 	0.65733 0.97213 0.37753 -0.25300
F 	F 	0.78461 0.95818 0.27803 -0.43200
F 	F 	0.77606 0.99843 0.20513 -0.40200
F 	F 	0.77437 0.95717 0.10473 -0.48100
F 	F 	0.68067 0.95744 0.97956 -0.39500
F 	F 	0.69013 0.94341 0.81805 -0.39200
F 	F 	0.63704 0.91804 0.88453 -0.37900
F 	F 	0.70952 0.81354 0.90241 -0.42600
F 	F 	0.75589 0.86068 0.95163 -0.47300
F 	F 	0.73086 0.85919 0.79613 -0.46700
F 	F 	0.59934 0.73072 0.00562 -0.39800
F 	F 	0.59954 0.72027 0.17835 -0.39300
F 	F 	0.55014 0.70788 0.09763 -0.40800
F 	F 	0.53594 0.82300 0.00943 -0.41500
F 	F 	0.50863 0.79116 0.15023 -0.47700
F 	F 	0.54400 0.84678 0.16983 -0.39100
O 	O 	0.64035 0.83477 0.38318 -0.58200
O 	O 	0.65021 0.90018 0.27719 -0.26200
O 	O 	0.71534 0.90632 0.22231 -0.32500
O 	O 	0.65954 0.88980 0.05296 -0.27500
O 	O 	0.68910 0.84611 0.05038 -0.30000
O 	O 	0.62556 0.79125 0.15623 -0.28900
O 	O 	0.59978 0.83882 0.16364 -0.28400
N 	N 	0.64474 0.88746 0.51973 -0.05900
N 	N 	0.51596 0.83491 0.51983 -0.09800
C 	C 	0.61168 0.86038 0.48733 0.03200
C 	C 	0.60975 0.83214 0.42133 0.26400
C 	C 	0.57598 0.80341 0.40013 -0.15600
H 	H 	0.57377 0.78293 0.36263 0.13700
C 	C 	0.54472 0.80387 0.43313 0.02400
H 	H 	0.52187 0.78373 0.41683 0.07000
C 	C 	0.54648 0.83277 0.48843 0.08400
C 	C 	0.58067 0.86140 0.52113 0.06800
C 	C 	0.58582 0.89083 0.58693 0.04600
H 	H 	0.56547 0.89233 0.61083 0.12600
C 	C 	0.61966 0.91717 0.61663 0.01600
H 	H 	0.62287 0.93683 0.66093 0.20200
C 	C 	0.64900 0.91499 0.58203 0.13000
H 	H 	0.67247 0.93323 0.60253 0.17900
C 	C 	0.49028 0.82379 0.45033 0.07500
H 	H 	0.49337 0.81623 0.37933 0.08600
C 	C 	0.45595 0.82212 0.47553 -0.06200
C 	C 	0.44984 0.83407 0.57603 0.12700
H 	H 	0.46847 0.84433 0.62983 0.05500
C 	C 	0.41697 0.83110 0.59783 -0.28900
H 	H 	0.41307 0.83903 0.66723 0.17800
C 	C 	0.38940 0.81669 0.52033 0.44500
C 	C 	0.39569 0.80528 0.42033 -0.30100
H 	H 	0.37717 0.79543 0.36623 0.19200
C 	C 	0.42874 0.80803 0.39733 0.13500
H 	H 	0.43267 0.80023 0.32773 0.04100
C 	C 	0.35349 0.81376 0.54423 -0.89100
H 	H 	0.35737 0.83623 0.57753 0.37400
H 	H 	0.33997 0.80933 0.47503 0.37000
H 	H 	0.33987 0.79383 0.59573 0.29800
C 	C 	0.64522 0.95185 0.28273 1.09200
C 	C 	0.66747 0.93346 0.26533 0.06100
C 	C 	0.70384 0.95478 0.24043 -0.01700
H 	H 	0.71417 0.98013 0.23493 0.20600
C 	C 	0.72503 0.93929 0.22373 0.10100
C 	C 	0.76539 0.96371 0.20323 0.84900
C 	C 	0.67111 0.93014 0.91003 0.83900
C 	C 	0.67640 0.90083 0.96473 0.11900
C 	C 	0.69822 0.88954 0.91383 -0.06900
H 	H 	0.71037 0.90053 0.84693 0.18000
C 	C 	0.70203 0.86214 0.96123 0.08800
C 	C 	0.72496 0.84943 0.90013 0.85200
C 	C 	0.58492 0.73170 0.10303 0.83300
C 	C 	0.59310 0.77001 0.12813 0.07900
C 	C 	0.56549 0.77734 0.11573 -0.05300
H 	H 	0.54217 0.75863 0.09463 0.14300
C 	C 	0.57146 0.81211 0.13393 0.09400
C 	C 	0.53978 0.81872 0.11563 0.85600
Dy	Dy	0.34070 0.14556 0.79842 2.02500
F 	F 	0.38007 0.05930 0.79837 -0.28400
F 	F 	0.37259 0.05687 0.62537 -0.26900
F 	F 	0.33834 0.01362 0.72527 -0.23500
F 	F 	0.34748 0.02337 0.79227 -0.23400
F 	F 	0.38824 0.06961 0.69517 -0.25400
F 	F 	0.34267 0.02787 0.62247 -0.25300
F 	F 	0.21539 0.04182 0.72197 -0.43200
F 	F 	0.22394 0.00157 0.79487 -0.40200
F 	F 	0.22563 0.04283 0.89527 -0.48100
F 	F 	0.31933 0.04256 0.02044 -0.39500
F 	F 	0.30987 0.05659 0.18195 -0.39200
F 	F 	0.36296 0.08196 0.11547 -0.37900
F 	F 	0.29048 0.18646 0.09759 -0.42600
F 	F 	0.24411 0.13932 0.04837 -0.47300
F 	F 	0.26914 0.14081 0.20387 -0.46700
F 	F 	0.40066 0.26928 0.99438 -0.39800
F 	F 	0.40046 0.27973 0.82165 -0.39300
F 	F 	0.44986 0.29212 0.90237 -0.40800
F 	F 	0.46406 0.17700 0.99057 -0.41500
F 	F 	0.49137 0.20884 0.84977 -0.47700
F 	F 	0.45600 0.15322 0.83017 -0.39100
O 	O 	0.35965 0.16523 0.61682 -0.58200
O 	O 	0.34979 0.09982 0.72281 -0.26200
O 	O 	0.28466 0.09368 0.77769 -0.32500
O 	O 	0.34046 0.11020 0.94704 -0.27500
O 	O 	0.31090 0.15389 0.94962 -0.30000
O 	O 	0.37444 0.20875 0.84377 -0.28900
O 	O 	0.40022 0.16118 0.83636 -0.28400
N 	N 	0.35526 0.11254 0.48027 -0.05900
N 	N 	0.48404 0.16509 0.48017 -0.09800
C 	C 	0.38832 0.13962 0.51267 0.03200
C 	C 	0.39025 0.16786 0.57867 0.26400
C 	C 	0.42402 0.19659 0.59987 -0.15600
H 	H 	0.42623 0.21707 0.63737 0.13700
C 	C 	0.45528 0.19613 0.56687 0.02400
H 	H 	0.47813 0.21627 0.58317 0.07000
C 	C 	0.45352 0.16723 0.51157 0.08400
C 	C 	0.41933 0.13860 0.47887 0.06800
C 	C 	0.41418 0.10917 0.41307 0.04600
H 	H 	0.43453 0.10767 0.38917 0.12600
C 	C 	0.38034 0.08283 0.38337 0.01600
H 	H 	0.37713 0.06317 0.33907 0.20200
C 	C 	0.35100 0.08501 0.41797 0.13000
H 	H 	0.32753 0.06677 0.39747 0.17900
C 	C 	0.50972 0.17621 0.54967 0.07500
H 	H 	0.50663 0.18377 0.62067 0.08600
C 	C 	0.54405 0.17788 0.52447 -0.06200
C 	C 	0.55016 0.16593 0.42397 0.12700
H 	H 	0.53153 0.15567 0.37017 0.05500
C 	C 	0.58303 0.16890 0.40217 -0.28900
H 	H 	0.58693 0.16097 0.33277 0.17800
C 	C 	0.61060 0.18331 0.47967 0.44500
C 	C 	0.60431 0.19472 0.57967 -0.30100
H 	H 	0.62283 0.20457 0.63377 0.19200
C 	C 	0.57126 0.19197 0.60267 0.13500
H 	H 	0.56733 0.19977 0.67227 0.04100
C 	C 	0.64651 0.18624 0.45577 -0.89100
H 	H 	0.64263 0.16377 0.42247 0.37400
H 	H 	0.66003 0.19067 0.52497 0.37000
H 	H 	0.66013 0.20617 0.40427 0.29800
C 	C 	0.35478 0.04815 0.71727 1.09200
C 	C 	0.33253 0.06654 0.73467 0.06100
C 	C 	0.29616 0.04522 0.75957 -0.01700
H 	H 	0.28583 0.01987 0.76507 0.20600
C 	C 	0.27497 0.06071 0.77627 0.10100
C 	C 	0.23461 0.03629 0.79677 0.84900
C 	C 	0.32889 0.06986 0.08997 0.83900
C 	C 	0.32360 0.09917 0.03527 0.11900
C 	C 	0.30178 0.11046 0.08617 -0.06900
H 	H 	0.28963 0.09947 0.15307 0.18000
C 	C 	0.29797 0.13786 0.03877 0.08800
C 	C 	0.27504 0.15057 0.09987 0.85200
C 	C 	0.41508 0.26830 0.89697 0.83300
C 	C 	0.40690 0.22999 0.87187 0.07900
C 	C 	0.43451 0.22266 0.88427 -0.05300
H 	H 	0.45783 0.24137 0.90537 0.14300
C 	C 	0.42854 0.18789 0.86607 0.09400
C 	C 	0.46022 0.18128 0.88437 0.85600
Dy	Dy	0.32597 0.18777 0.53491 2.02500
F 	F 	0.28659 0.27404 0.53497 -0.28400
F 	F 	0.29407 0.27647 0.70797 -0.26900
F 	F 	0.32832 0.31972 0.60807 -0.23500
F 	F 	0.31918 0.30997 0.54107 -0.23400
F 	F 	0.27842 0.26373 0.63817 -0.25500
F 	F 	0.32399 0.30547 0.71087 -0.25300
F 	F 	0.45127 0.29152 0.61137 -0.43200
F 	F 	0.44272 0.33177 0.53847 -0.40200
F 	F 	0.44103 0.29051 0.43807 -0.48100
F 	F 	0.34733 0.29078 0.31290 -0.39400
F 	F 	0.35679 0.27675 0.15139 -0.39200
F 	F 	0.30370 0.25138 0.21787 -0.37900
F 	F 	0.37618 0.14688 0.23575 -0.42600
F 	F 	0.42255 0.19402 0.28497 -0.47300
F 	F 	0.39752 0.19253 0.12947 -0.46800
F 	F 	0.26600 0.06406 0.33896 -0.39900
F 	F 	0.26620 0.05361 0.51169 -0.39300
F 	F 	0.21680 0.04122 0.43097 -0.40900
F 	F 	0.20260 0.15634 0.34277 -0.41600
F 	F 	0.17529 0.12450 0.48357 -0.47700
F 	F 	0.21066 0.18012 0.50317 -0.39200
O 	O 	0.30701 0.16811 0.71652 -0.58200
O 	O 	0.31687 0.23352 0.61053 -0.26200
O 	O 	0.38200 0.23966 0.55565 -0.32500
O 	O 	0.32620 0.22314 0.38630 -0.27600
O 	O 	0.35576 0.17945 0.38372 -0.30100
O 	O 	0.29222 0.12459 0.48957 -0.28900
O 	O 	0.26644 0.17216 0.49698 -0.28400
N 	N 	0.31140 0.22080 0.85307 -0.05900
N 	N 	0.18262 0.16825 0.85317 -0.09800
C 	C 	0.27834 0.19372 0.82067 0.03200
C 	C 	0.27641 0.16548 0.75467 0.26400
C 	C 	0.24264 0.13675 0.73347 -0.15600
H 	H 	0.24043 0.11627 0.69597 0.13700
C 	C 	0.21138 0.13721 0.76647 0.02400
H 	H 	0.18853 0.11707 0.75017 0.07000
C 	C 	0.21314 0.16611 0.82177 0.08400
C 	C 	0.24733 0.19474 0.85447 0.06800
C 	C 	0.25248 0.22417 0.92027 0.04600
H 	H 	0.23213 0.22567 0.94417 0.12600
C 	C 	0.28632 0.25051 0.94997 0.01600
H 	H 	0.28953 0.27017 0.99427 0.20200
C 	C 	0.31566 0.24833 0.91537 0.13000
H 	H 	0.33913 0.26657 0.93587 0.17900
C 	C 	0.15694 0.15713 0.78367 0.07500
H 	H 	0.16003 0.14957 0.71267 0.08600
C 	C 	0.12261 0.15546 0.80887 -0.06200
C 	C 	0.11650 0.16741 0.90937 0.12800
H 	H 	0.13513 0.17767 0.96317 0.05500
C 	C 	0.08363 0.16444 0.93117 -0.29000
H 	H 	0.07973 0.17237 0.00057 0.17900
C 	C 	0.05606 0.15003 0.85367 0.44500
C 	C 	0.06235 0.13862 0.75367 -0.30200
H 	H 	0.04383 0.12877 0.69957 0.19200
C 	C 	0.09540 0.14137 0.73067 0.13500
H 	H 	0.09933 0.13357 0.66107 0.04100
C 	C 	0.02015 0.14710 0.87757 -0.89100
H 	H 	0.02403 0.16957 0.91087 0.37500
H 	H 	0.00663 0.14267 0.80837 0.37100
H 	H 	0.00653 0.12717 0.92907 0.29800
C 	C 	0.31188 0.28519 0.61607 1.09200
C 	C 	0.33413 0.26680 0.59867 0.06100
C 	C 	0.37050 0.28812 0.57377 -0.01700
H 	H 	0.38083 0.31347 0.56827 0.20600
C 	C 	0.39169 0.27263 0.55707 0.10100
C 	C 	0.43205 0.29705 0.53657 0.84900
C 	C 	0.33777 0.26348 0.24337 0.83900
C 	C 	0.34306 0.23417 0.29807 0.12000
C 	C 	0.36488 0.22288 0.24717 -0.07000
H 	H 	0.37703 0.23387 0.18027 0.18000
C 	C 	0.36869 0.19548 0.29457 0.08900
C 	C 	0.39162 0.18277 0.23347 0.85200
C 	C 	0.25158 0.06504 0.43637 0.83300
C 	C 	0.25976 0.10335 0.46147 0.07900
C 	C 	0.23215 0.11068 0.44907 -0.05300
H 	H 	0.20883 0.09197 0.42797 0.14200
C 	C 	0.23812 0.14545 0.46727 0.09400
C 	C 	0.20644 0.15206 0.44897 0.85700
