data_crystal

_cell_length_a 32.56600
_cell_length_b 9.51800
_cell_length_c 32.70900
_cell_angle_alpha 90.00000
_cell_angle_beta  108.28100
_cell_angle_gamma 90.00000

_symmetry_space_group_name_	'P 1'
_symmetry_space_group_name_H-M	'P 1'

loop_
_symmetry_equiv_pos_as_xyz
  x,y,z

loop_
_atom_site_label
_atom_site_type_symbol
_atom_site_fract_x
_atom_site_fract_y
_atom_site_fract_z
_atom_site_charge
Co	Co	0.01369 0.25395 0.46629 1.12000
N 	N 	0.03048 0.15490 0.52093 -0.28200
N 	N 	0.06550 0.18520 0.45506 -0.28100
N 	N 	0.96753 0.34730 0.48137 -0.28500
N 	N 	0.99196 0.32910 0.40807 -0.28300
N 	N 	0.25850 0.61080 0.59410 -0.09100
C 	C 	0.96170 0.23730 0.58900 0.04700
C 	C 	0.93190 0.23130 0.66260 0.11000
C 	C 	0.97690 0.24210 0.55260 -0.12200
C 	C 	0.06590 0.26270 0.34110 0.05700
C 	C 	0.09940 0.05020 0.52090 -0.12500
C 	C 	0.00710 0.14390 0.55040 0.08500
N 	N 	0.24470 0.71590 0.61410 -0.11100
N 	N 	0.12090 0.24230 0.24110 -0.11000
N 	N 	0.78700 0.79770 0.31580 -0.11400
C 	C 	0.13730 0.96080 0.54410 0.05700
C 	C 	0.92950 0.46470 0.41300 -0.12200
C 	C 	0.96050 0.34460 0.52100 0.08100
C 	C 	0.89220 0.55430 0.38980 0.04900
N 	N 	0.91750 0.22810 0.69920 -0.11600
C 	C 	0.82200 0.71450 0.34080 0.10300
C 	C 	0.96670 0.30960 0.66280 -0.10200
H 	H 	0.98150 0.35980 0.68740 0.08100
C 	C 	0.10940 0.36420 0.30230 -0.08600
H 	H 	0.12700 0.43790 0.29930 0.06300
C 	C 	0.05940 0.98200 0.57130 -0.11300
H 	H 	0.07680 0.90820 0.58550 0.05600
C 	C 	0.05020 0.25910 0.38000 -0.12300
C 	C 	0.20880 0.80450 0.58990 0.09700
C 	C 	0.91590 0.50940 0.48290 -0.11600
H 	H 	0.89520 0.58000 0.47410 0.05900
C 	C 	0.10100 0.25630 0.27360 0.09300
C 	C 	0.89730 0.68020 0.37080 -0.05500
H 	H 	0.92520 0.71290 0.37470 0.05400
C 	C 	0.93850 0.44400 0.45740 0.08700
C 	C 	0.06400 0.05780 0.53540 0.08800
C 	C 	0.00800 0.30720 0.37490 0.09700
C 	C 	0.95300 0.40010 0.39020 0.09000
C 	C 	0.16560 0.01260 0.58220 -0.06100
H 	H 	0.16090 0.10040 0.59230 0.06100
C 	C 	0.98060 0.31580 0.62680 -0.05100
H 	H 	0.00360 0.37480 0.62770 0.05200
C 	C 	0.92530 0.16760 0.59070 -0.05300
H 	H 	0.90870 0.12300 0.56560 0.05200
C 	C 	0.02500 0.03730 0.58090 -0.11400
H 	H 	0.01510 0.01010 0.60350 0.05900
C 	C 	0.09970 0.11780 0.48390 0.09200
C 	C 	0.87640 0.20660 0.73930 -0.14600
H 	H 	0.85260 0.19000 0.74850 0.09000
C 	C 	0.97880 0.35610 0.33520 -0.08100
H 	H 	0.98250 0.35040 0.30810 0.06700
C 	C 	0.94440 0.41300 0.34480 -0.07600
H 	H 	0.92000 0.45280 0.32530 0.06700
C 	C 	0.09210 0.36530 0.33580 -0.06400
H 	H 	0.09870 0.43950 0.35530 0.05800
C 	C 	0.92970 0.45090 0.52210 -0.10400
H 	H 	0.92090 0.47480 0.54570 0.05600
C 	C 	0.85020 0.51230 0.38370 -0.05700
H 	H 	0.84530 0.42830 0.39590 0.05800
C 	C 	0.87730 0.20460 0.69890 0.08500
H 	H 	0.85370 0.18920 0.67450 -0.00000
N 	N 	0.11280 0.14490 0.20870 -0.08600
N 	N 	0.79390 0.89550 0.28940 -0.09900
C 	C 	0.12160 0.16890 0.42610 -0.08100
H 	H 	0.13760 0.17820 0.40720 0.06600
C 	C 	0.07380 0.14840 0.27820 -0.08300
H 	H 	0.06740 0.07440 0.25860 0.07800
C 	C 	0.07770 0.21250 0.41870 0.09300
C 	C 	0.75630 0.95440 0.27250 0.10000
H 	H 	0.75140 0.02700 0.25250 -0.00100
C 	C 	0.91090 0.15770 0.62650 -0.10300
H 	H 	0.88730 0.10140 0.62570 0.07000
C 	C 	0.13530 0.11110 0.46630 -0.08000
H 	H 	0.16260 0.07400 0.48000 0.06500
C 	C 	0.72580 0.90040 0.28660 -0.16000
H 	H 	0.69690 0.92760 0.27910 0.08600
C 	C 	0.74540 0.79760 0.31430 0.08600
H 	H 	0.73250 0.73830 0.32940 0.00100
C 	C 	0.20150 0.93130 0.60540 -0.09300
H 	H 	0.22020 0.96450 0.63130 0.07200
C 	C 	0.15080 0.34050 0.24010 0.07200
H 	H 	0.15970 0.41800 0.25800 -0.00100
C 	C 	0.81480 0.59140 0.35970 -0.09800
H 	H 	0.78670 0.56170 0.35660 0.07300
C 	C 	0.14480 0.83330 0.52970 -0.06900
H 	H 	0.12560 0.79890 0.50420 0.05800
C 	C 	0.14300 0.18220 0.18800 0.05700
H 	H 	0.14780 0.13550 0.16490 0.01800
C 	C 	0.18110 0.75000 0.55250 -0.08600
H 	H 	0.18590 0.66220 0.54240 0.07300
C 	C 	0.16420 0.30110 0.20820 -0.12900
H 	H 	0.18550 0.34770 0.20000 0.07800
C 	C 	0.05610 0.15100 0.31200 -0.06300
H 	H 	0.03790 0.07900 0.31500 0.06100
C 	C 	0.29510 0.62240 0.66650 -0.14300
H 	H 	0.31410 0.60070 0.69360 0.08900
C 	C 	0.86330 0.75890 0.34650 -0.09800
H 	H 	0.86820 0.84220 0.33390 0.07700
N 	N 	0.94400 0.25090 0.73960 -0.08700
C 	C 	0.26520 0.72530 0.65620 0.07600
H 	H 	0.25990 0.79090 0.67500 0.00400
C 	C 	0.91840 0.23870 0.76490 0.07000
H 	H 	0.92730 0.25000 0.79470 0.01200
C 	C 	0.29150 0.55730 0.62850 0.06700
H 	H 	0.30940 0.48400 0.62590 0.00900
Co	Co	0.51369 0.75395 0.96629 1.12100
N 	N 	0.53048 0.65490 0.02093 -0.28100
N 	N 	0.56550 0.68520 0.95506 -0.28000
N 	N 	0.46753 0.84730 0.98137 -0.28500
N 	N 	0.49196 0.82910 0.90807 -0.28200
N 	N 	0.75850 0.11080 0.09410 -0.09000
C 	C 	0.46170 0.73730 0.08900 0.04800
C 	C 	0.43190 0.73130 0.16260 0.11100
C 	C 	0.47690 0.74210 0.05260 -0.12200
C 	C 	0.56590 0.76270 0.84110 0.05800
C 	C 	0.59940 0.55020 0.02090 -0.12400
C 	C 	0.50710 0.64390 0.05040 0.08600
N 	N 	0.74470 0.21590 0.11410 -0.11000
N 	N 	0.62090 0.74230 0.74110 -0.10900
N 	N 	0.28700 0.29770 0.81580 -0.11300
C 	C 	0.63730 0.46080 0.04410 0.05900
C 	C 	0.42950 0.96470 0.91300 -0.12200
C 	C 	0.46050 0.84460 0.02100 0.08200
C 	C 	0.39220 0.05430 0.88980 0.05000
N 	N 	0.41750 0.72810 0.19920 -0.11500
C 	C 	0.32200 0.21450 0.84080 0.10400
C 	C 	0.46670 0.80960 0.16280 -0.10100
H 	H 	0.48150 0.85980 0.18740 0.08100
C 	C 	0.60940 0.86420 0.80230 -0.08500
H 	H 	0.62700 0.93790 0.79930 0.06400
C 	C 	0.55940 0.48200 0.07130 -0.11100
H 	H 	0.57680 0.40820 0.08550 0.05600
C 	C 	0.55020 0.75910 0.88000 -0.12200
C 	C 	0.70880 0.30450 0.08990 0.09600
C 	C 	0.41590 0.00940 0.98290 -0.11500
H 	H 	0.39520 0.08000 0.97410 0.05900
C 	C 	0.60100 0.75630 0.77360 0.09300
C 	C 	0.39730 0.18020 0.87080 -0.05500
H 	H 	0.42520 0.21290 0.87470 0.05400
C 	C 	0.43850 0.94400 0.95740 0.08600
C 	C 	0.56400 0.55780 0.03540 0.08800
C 	C 	0.50800 0.80720 0.87490 0.09700
C 	C 	0.45300 0.90010 0.89020 0.09000
C 	C 	0.66560 0.51260 0.08220 -0.06200
H 	H 	0.66090 0.60040 0.09230 0.06100
C 	C 	0.48060 0.81580 0.12680 -0.05200
H 	H 	0.50360 0.87480 0.12770 0.05300
C 	C 	0.42530 0.66760 0.09070 -0.05300
H 	H 	0.40870 0.62300 0.06560 0.05200
C 	C 	0.52500 0.53730 0.08090 -0.11400
H 	H 	0.51510 0.51010 0.10350 0.05900
C 	C 	0.59970 0.61780 0.98390 0.09300
C 	C 	0.37640 0.70660 0.23930 -0.14600
H 	H 	0.35260 0.69000 0.24850 0.09000
C 	C 	0.47880 0.85610 0.83520 -0.08000
H 	H 	0.48250 0.85040 0.80810 0.06700
C 	C 	0.44440 0.91300 0.84480 -0.07600
H 	H 	0.42000 0.95280 0.82530 0.06700
C 	C 	0.59210 0.86530 0.83580 -0.06400
H 	H 	0.59870 0.93950 0.85530 0.05800
C 	C 	0.42970 0.95090 0.02210 -0.10400
H 	H 	0.42090 0.97480 0.04570 0.05600
C 	C 	0.35020 0.01230 0.88370 -0.05600
H 	H 	0.34530 0.92830 0.89590 0.05800
C 	C 	0.37730 0.70460 0.19890 0.08500
H 	H 	0.35370 0.68920 0.17450 -0.00000
N 	N 	0.61280 0.64490 0.70870 -0.08600
N 	N 	0.29390 0.39550 0.78940 -0.09900
C 	C 	0.62160 0.66890 0.92610 -0.08100
H 	H 	0.63760 0.67820 0.90720 0.06500
C 	C 	0.57380 0.64840 0.77820 -0.08300
H 	H 	0.56740 0.57440 0.75860 0.07800
C 	C 	0.57770 0.71250 0.91870 0.09200
C 	C 	0.25630 0.45440 0.77250 0.09800
H 	H 	0.25140 0.52700 0.75250 -0.00000
C 	C 	0.41090 0.65770 0.12650 -0.10300
H 	H 	0.38730 0.60140 0.12570 0.07000
C 	C 	0.63530 0.61110 0.96630 -0.08000
H 	H 	0.66260 0.57400 0.98000 0.06500
C 	C 	0.22580 0.40040 0.78660 -0.15900
H 	H 	0.19690 0.42760 0.77910 0.08600
C 	C 	0.24540 0.29760 0.81430 0.08500
H 	H 	0.23250 0.23830 0.82940 0.00100
C 	C 	0.70150 0.43130 0.10540 -0.09200
H 	H 	0.72020 0.46450 0.13130 0.07200
C 	C 	0.65080 0.84050 0.74010 0.07200
H 	H 	0.65970 0.91800 0.75800 -0.00100
C 	C 	0.31480 0.09140 0.85970 -0.09900
H 	H 	0.28670 0.06170 0.85660 0.07300
C 	C 	0.64480 0.33330 0.02970 -0.06900
H 	H 	0.62560 0.29890 0.00420 0.05800
C 	C 	0.64300 0.68220 0.68800 0.05700
H 	H 	0.64780 0.63550 0.66490 0.01800
C 	C 	0.68110 0.25000 0.05250 -0.08600
H 	H 	0.68590 0.16220 0.04240 0.07300
C 	C 	0.66420 0.80110 0.70820 -0.12900
H 	H 	0.68550 0.84770 0.70000 0.07800
C 	C 	0.55610 0.65100 0.81200 -0.06300
H 	H 	0.53790 0.57900 0.81500 0.06100
C 	C 	0.79510 0.12240 0.16650 -0.14200
H 	H 	0.81410 0.10070 0.19360 0.08800
C 	C 	0.36330 0.25890 0.84650 -0.09800
H 	H 	0.36820 0.34220 0.83390 0.07700
N 	N 	0.44400 0.75090 0.23960 -0.08700
C 	C 	0.76520 0.22530 0.15620 0.07600
H 	H 	0.75990 0.29090 0.17500 0.00400
C 	C 	0.41840 0.73870 0.26490 0.07000
H 	H 	0.42730 0.75000 0.29470 0.01200
C 	C 	0.79150 0.05730 0.12850 0.06600
H 	H 	0.80940 0.98400 0.12590 0.01000
Co	Co	0.98631 0.25395 0.03371 1.12100
N 	N 	0.96952 0.15490 0.97907 -0.28100
N 	N 	0.93450 0.18520 0.04494 -0.28000
N 	N 	0.03247 0.34730 0.01863 -0.28400
N 	N 	0.00804 0.32910 0.09193 -0.28100
N 	N 	0.74150 0.61080 0.90590 -0.09000
C 	C 	0.03830 0.23730 0.91100 0.04900
C 	C 	0.06810 0.23130 0.83740 0.11000
C 	C 	0.02310 0.24210 0.94740 -0.12300
C 	C 	0.93410 0.26270 0.15890 0.05800
C 	C 	0.90060 0.05020 0.97910 -0.12200
C 	C 	0.99290 0.14390 0.94960 0.08700
N 	N 	0.75530 0.71590 0.88590 -0.11000
N 	N 	0.87910 0.24230 0.25890 -0.10900
N 	N 	0.21300 0.79770 0.18420 -0.11300
C 	C 	0.86270 0.96080 0.95590 0.05700
C 	C 	0.07050 0.46470 0.08700 -0.12100
C 	C 	0.03950 0.34460 0.97900 0.08200
C 	C 	0.10780 0.55430 0.11020 0.05000
N 	N 	0.08250 0.22810 0.80080 -0.11500
C 	C 	0.17800 0.71450 0.15920 0.10400
C 	C 	0.03330 0.30960 0.83720 -0.10000
H 	H 	0.01850 0.35980 0.81260 0.08100
C 	C 	0.89060 0.36420 0.19770 -0.08500
H 	H 	0.87300 0.43790 0.20070 0.06400
C 	C 	0.94060 0.98200 0.92870 -0.11200
H 	H 	0.92320 0.90820 0.91450 0.05700
C 	C 	0.94980 0.25910 0.12000 -0.12200
C 	C 	0.79120 0.80450 0.91010 0.09800
C 	C 	0.08410 0.50940 0.01710 -0.11400
H 	H 	0.10480 0.58000 0.02590 0.05900
C 	C 	0.89900 0.25630 0.22640 0.09400
C 	C 	0.10270 0.68020 0.12920 -0.05500
H 	H 	0.07480 0.71290 0.12530 0.05400
C 	C 	0.06150 0.44400 0.04260 0.08600
C 	C 	0.93600 0.05780 0.96460 0.08800
C 	C 	0.99200 0.30720 0.12510 0.09600
C 	C 	0.04700 0.40010 0.10980 0.09000
C 	C 	0.83440 0.01260 0.91780 -0.05900
H 	H 	0.83910 0.10040 0.90770 0.06000
C 	C 	0.01940 0.31580 0.87320 -0.05400
H 	H 	0.99640 0.37480 0.87230 0.05400
C 	C 	0.07470 0.16760 0.90930 -0.05400
H 	H 	0.09130 0.12300 0.93440 0.05300
C 	C 	0.97500 0.03730 0.91910 -0.11400
H 	H 	0.98490 0.01010 0.89650 0.05900
C 	C 	0.90030 0.11780 0.01610 0.09100
C 	C 	0.12360 0.20660 0.76070 -0.14600
H 	H 	0.14740 0.19000 0.75150 0.09000
C 	C 	0.02120 0.35610 0.16480 -0.07900
H 	H 	0.01750 0.35040 0.19190 0.06700
C 	C 	0.05560 0.41300 0.15520 -0.07700
H 	H 	0.08000 0.45280 0.17470 0.06700
C 	C 	0.90790 0.36530 0.16420 -0.06400
H 	H 	0.90130 0.43950 0.14470 0.05800
C 	C 	0.07030 0.45090 0.97790 -0.10500
H 	H 	0.07910 0.47480 0.95430 0.05600
C 	C 	0.14980 0.51230 0.11630 -0.05700
H 	H 	0.15470 0.42830 0.10410 0.05800
C 	C 	0.12270 0.20460 0.80110 0.08500
H 	H 	0.14630 0.18920 0.82550 -0.00000
N 	N 	0.88720 0.14490 0.29130 -0.08600
N 	N 	0.20610 0.89550 0.21060 -0.09900
C 	C 	0.87840 0.16890 0.07390 -0.08200
H 	H 	0.86240 0.17820 0.09280 0.06600
C 	C 	0.92620 0.14840 0.22180 -0.08300
H 	H 	0.93260 0.07440 0.24140 0.07800
C 	C 	0.92230 0.21250 0.08130 0.09200
C 	C 	0.24370 0.95440 0.22750 0.09900
H 	H 	0.24860 0.02700 0.24750 -0.00100
C 	C 	0.08910 0.15770 0.87350 -0.10200
H 	H 	0.11270 0.10140 0.87430 0.07000
C 	C 	0.86470 0.11110 0.03370 -0.08000
H 	H 	0.83740 0.07400 0.02000 0.06400
C 	C 	0.27420 0.90040 0.21340 -0.16000
H 	H 	0.30310 0.92760 0.22090 0.08600
C 	C 	0.25460 0.79760 0.18570 0.08600
H 	H 	0.26750 0.73830 0.17060 0.00100
C 	C 	0.79850 0.93130 0.89460 -0.09400
H 	H 	0.77980 0.96450 0.86870 0.07200
C 	C 	0.84920 0.34050 0.25990 0.07200
H 	H 	0.84030 0.41800 0.24200 -0.00100
C 	C 	0.18520 0.59140 0.14030 -0.09800
H 	H 	0.21330 0.56170 0.14340 0.07300
C 	C 	0.85520 0.83330 0.97030 -0.06700
H 	H 	0.87440 0.79890 0.99580 0.05800
C 	C 	0.85700 0.18220 0.31200 0.05700
H 	H 	0.85220 0.13550 0.33510 0.01800
C 	C 	0.81890 0.75000 0.94750 -0.08700
H 	H 	0.81410 0.66220 0.95760 0.07400
C 	C 	0.83580 0.30110 0.29180 -0.12900
H 	H 	0.81450 0.34770 0.30000 0.07800
C 	C 	0.94390 0.15100 0.18800 -0.06300
H 	H 	0.96210 0.07900 0.18500 0.06100
C 	C 	0.70490 0.62240 0.83350 -0.14300
H 	H 	0.68590 0.60070 0.80640 0.08900
C 	C 	0.13670 0.75890 0.15350 -0.09800
H 	H 	0.13180 0.84220 0.16610 0.07700
N 	N 	0.05600 0.25090 0.76040 -0.08700
C 	C 	0.73480 0.72530 0.84380 0.07600
H 	H 	0.74010 0.79090 0.82500 0.00400
C 	C 	0.08160 0.23870 0.73510 0.07000
H 	H 	0.07270 0.25000 0.70530 0.01200
C 	C 	0.70850 0.55730 0.87150 0.06700
H 	H 	0.69060 0.48400 0.87410 0.00900
Co	Co	0.48631 0.75395 0.53371 1.12100
N 	N 	0.46952 0.65490 0.47907 -0.28100
N 	N 	0.43450 0.68520 0.54494 -0.28000
N 	N 	0.53247 0.84730 0.51863 -0.28400
N 	N 	0.50804 0.82910 0.59193 -0.28200
N 	N 	0.24150 0.11080 0.40590 -0.09000
C 	C 	0.53830 0.73730 0.41100 0.04800
C 	C 	0.56810 0.73130 0.33740 0.11100
C 	C 	0.52310 0.74210 0.44740 -0.12200
C 	C 	0.43410 0.76270 0.65890 0.05800
C 	C 	0.40060 0.55020 0.47910 -0.12400
C 	C 	0.49290 0.64390 0.44960 0.08600
N 	N 	0.25530 0.21590 0.38590 -0.11000
N 	N 	0.37910 0.74230 0.75890 -0.10900
N 	N 	0.71300 0.29770 0.68420 -0.11300
C 	C 	0.36270 0.46080 0.45590 0.05900
C 	C 	0.57050 0.96470 0.58700 -0.12200
C 	C 	0.53950 0.84460 0.47900 0.08200
C 	C 	0.60780 0.05430 0.61020 0.05000
N 	N 	0.58250 0.72810 0.30080 -0.11500
C 	C 	0.67800 0.21450 0.65920 0.10400
C 	C 	0.53330 0.80960 0.33720 -0.10100
H 	H 	0.51850 0.85980 0.31260 0.08100
C 	C 	0.39060 0.86420 0.69770 -0.08500
H 	H 	0.37300 0.93790 0.70070 0.06400
C 	C 	0.44060 0.48200 0.42870 -0.11100
H 	H 	0.42320 0.40820 0.41450 0.05600
C 	C 	0.44980 0.75910 0.62000 -0.12200
C 	C 	0.29120 0.30450 0.41010 0.09600
C 	C 	0.58410 0.00940 0.51710 -0.11600
H 	H 	0.60480 0.08000 0.52590 0.05900
C 	C 	0.39900 0.75630 0.72640 0.09300
C 	C 	0.60270 0.18020 0.62920 -0.05500
H 	H 	0.57480 0.21290 0.62530 0.05400
C 	C 	0.56150 0.94400 0.54260 0.08700
C 	C 	0.43600 0.55780 0.46460 0.08800
C 	C 	0.49200 0.80720 0.62510 0.09700
C 	C 	0.54700 0.90010 0.60980 0.09000
C 	C 	0.33440 0.51260 0.41780 -0.06200
H 	H 	0.33910 0.60040 0.40770 0.06100
C 	C 	0.51940 0.81580 0.37320 -0.05200
H 	H 	0.49640 0.87480 0.37230 0.05300
C 	C 	0.57470 0.66760 0.40930 -0.05300
H 	H 	0.59130 0.62300 0.43440 0.05200
C 	C 	0.47500 0.53730 0.41910 -0.11400
H 	H 	0.48490 0.51010 0.39650 0.05900
C 	C 	0.40030 0.61780 0.51610 0.09200
C 	C 	0.62360 0.70660 0.26070 -0.14600
H 	H 	0.64740 0.69000 0.25150 0.09000
C 	C 	0.52120 0.85610 0.66480 -0.08000
H 	H 	0.51750 0.85040 0.69190 0.06700
C 	C 	0.55560 0.91300 0.65520 -0.07600
H 	H 	0.58000 0.95280 0.67470 0.06700
C 	C 	0.40790 0.86530 0.66420 -0.06400
H 	H 	0.40130 0.93950 0.64470 0.05800
C 	C 	0.57030 0.95090 0.47790 -0.10400
H 	H 	0.57910 0.97480 0.45430 0.05600
C 	C 	0.64980 0.01230 0.61630 -0.05600
H 	H 	0.65470 0.92830 0.60410 0.05800
C 	C 	0.62270 0.70460 0.30110 0.08500
H 	H 	0.64630 0.68920 0.32550 -0.00000
N 	N 	0.38720 0.64490 0.79130 -0.08600
N 	N 	0.70610 0.39550 0.71060 -0.09900
C 	C 	0.37840 0.66890 0.57390 -0.08100
H 	H 	0.36240 0.67820 0.59280 0.06600
C 	C 	0.42620 0.64840 0.72180 -0.08300
H 	H 	0.43260 0.57440 0.74140 0.07800
C 	C 	0.42230 0.71250 0.58130 0.09200
C 	C 	0.74370 0.45440 0.72750 0.09800
H 	H 	0.74860 0.52700 0.74750 -0.00000
C 	C 	0.58910 0.65770 0.37350 -0.10300
H 	H 	0.61270 0.60140 0.37430 0.07000
C 	C 	0.36470 0.61110 0.53370 -0.08000
H 	H 	0.33740 0.57400 0.52000 0.06500
C 	C 	0.77420 0.40040 0.71340 -0.15900
H 	H 	0.80310 0.42760 0.72090 0.08600
C 	C 	0.75460 0.29760 0.68570 0.08500
H 	H 	0.76750 0.23830 0.67060 0.00100
C 	C 	0.29850 0.43130 0.39460 -0.09200
H 	H 	0.27980 0.46450 0.36870 0.07200
C 	C 	0.34920 0.84050 0.75990 0.07200
H 	H 	0.34030 0.91800 0.74200 -0.00100
C 	C 	0.68520 0.09140 0.64030 -0.09800
H 	H 	0.71330 0.06170 0.64340 0.07300
C 	C 	0.35520 0.33330 0.47030 -0.06900
H 	H 	0.37440 0.29890 0.49580 0.05800
C 	C 	0.35700 0.68220 0.81200 0.05700
H 	H 	0.35220 0.63550 0.83510 0.01800
C 	C 	0.31890 0.25000 0.44750 -0.08600
H 	H 	0.31410 0.16220 0.45760 0.07300
C 	C 	0.33580 0.80110 0.79180 -0.12900
H 	H 	0.31450 0.84770 0.80000 0.07800
C 	C 	0.44390 0.65100 0.68800 -0.06300
H 	H 	0.46210 0.57900 0.68500 0.06100
C 	C 	0.20490 0.12240 0.33350 -0.14300
H 	H 	0.18590 0.10070 0.30640 0.08800
C 	C 	0.63670 0.25890 0.65350 -0.09800
H 	H 	0.63180 0.34220 0.66610 0.07700
N 	N 	0.55600 0.75090 0.26040 -0.08700
C 	C 	0.23480 0.22530 0.34380 0.07600
H 	H 	0.24010 0.29090 0.32500 0.00400
C 	C 	0.58160 0.73870 0.23510 0.07000
H 	H 	0.57270 0.75000 0.20530 0.01200
C 	C 	0.20850 0.05730 0.37150 0.06600
H 	H 	0.19060 0.98400 0.37410 0.00900
Co	Co	0.98631 0.74605 0.53371 1.12100
N 	N 	0.96952 0.84510 0.47907 -0.28100
N 	N 	0.93450 0.81480 0.54494 -0.28000
N 	N 	0.03247 0.65270 0.51863 -0.28400
N 	N 	0.00804 0.67090 0.59193 -0.28200
N 	N 	0.74150 0.38920 0.40590 -0.09000
C 	C 	0.03830 0.76270 0.41100 0.04800
C 	C 	0.06810 0.76870 0.33740 0.11100
C 	C 	0.02310 0.75790 0.44740 -0.12100
C 	C 	0.93410 0.73730 0.65890 0.05800
C 	C 	0.90060 0.94980 0.47910 -0.12400
C 	C 	0.99290 0.85610 0.44960 0.08600
N 	N 	0.75530 0.28410 0.38590 -0.11000
N 	N 	0.87910 0.75770 0.75890 -0.10900
N 	N 	0.21300 0.20230 0.68420 -0.11300
C 	C 	0.86270 0.03920 0.45590 0.05800
C 	C 	0.07050 0.53530 0.58700 -0.12100
C 	C 	0.03950 0.65540 0.47900 0.08200
C 	C 	0.10780 0.44570 0.61020 0.05000
N 	N 	0.08250 0.77190 0.30080 -0.11500
C 	C 	0.17800 0.28550 0.65920 0.10400
C 	C 	0.03330 0.69040 0.33720 -0.10100
H 	H 	0.01850 0.64020 0.31260 0.08200
C 	C 	0.89060 0.63580 0.69770 -0.08500
H 	H 	0.87300 0.56210 0.70070 0.06400
C 	C 	0.94060 0.01800 0.42870 -0.11200
H 	H 	0.92320 0.09180 0.41450 0.05700
C 	C 	0.94980 0.74090 0.62000 -0.12200
C 	C 	0.79120 0.19550 0.41010 0.09700
C 	C 	0.08410 0.49060 0.51710 -0.11600
H 	H 	0.10480 0.42000 0.52590 0.05900
C 	C 	0.89900 0.74370 0.72640 0.09300
C 	C 	0.10270 0.31980 0.62920 -0.05500
H 	H 	0.07480 0.28710 0.62530 0.05400
C 	C 	0.06150 0.55600 0.54260 0.08700
C 	C 	0.93600 0.94220 0.46460 0.08800
C 	C 	0.99200 0.69280 0.62510 0.09700
C 	C 	0.04700 0.59990 0.60980 0.09000
C 	C 	0.83440 0.98740 0.41780 -0.06100
H 	H 	0.83910 0.89960 0.40770 0.06100
C 	C 	0.01940 0.68420 0.37320 -0.05100
H 	H 	0.99640 0.62520 0.37230 0.05200
C 	C 	0.07470 0.83240 0.40930 -0.05300
H 	H 	0.09130 0.87700 0.43440 0.05200
C 	C 	0.97500 0.96270 0.41910 -0.11400
H 	H 	0.98490 0.98990 0.39650 0.05900
C 	C 	0.90030 0.88220 0.51610 0.09200
C 	C 	0.12360 0.79340 0.26070 -0.14600
H 	H 	0.14740 0.81000 0.25150 0.09000
C 	C 	0.02120 0.64390 0.66480 -0.08100
H 	H 	0.01750 0.64960 0.69190 0.06700
C 	C 	0.05560 0.58700 0.65520 -0.07600
H 	H 	0.08000 0.54720 0.67470 0.06700
C 	C 	0.90790 0.63470 0.66420 -0.06400
H 	H 	0.90130 0.56050 0.64470 0.05800
C 	C 	0.07030 0.54910 0.47790 -0.10400
H 	H 	0.07910 0.52520 0.45430 0.05600
C 	C 	0.14980 0.48770 0.61630 -0.05700
H 	H 	0.15470 0.57170 0.60410 0.05800
C 	C 	0.12270 0.79540 0.30110 0.08500
H 	H 	0.14630 0.81080 0.32550 -0.00000
N 	N 	0.88720 0.85510 0.79130 -0.08600
N 	N 	0.20610 0.10450 0.71060 -0.09900
C 	C 	0.87840 0.83110 0.57390 -0.08100
H 	H 	0.86240 0.82180 0.59280 0.06600
C 	C 	0.92620 0.85160 0.72180 -0.08300
H 	H 	0.93260 0.92560 0.74140 0.07800
C 	C 	0.92230 0.78750 0.58130 0.09300
C 	C 	0.24370 0.04560 0.72750 0.10000
H 	H 	0.24860 0.97300 0.74750 -0.00100
C 	C 	0.08910 0.84230 0.37350 -0.10300
H 	H 	0.11270 0.89860 0.37430 0.07000
C 	C 	0.86470 0.88890 0.53370 -0.08000
H 	H 	0.83740 0.92600 0.52000 0.06500
C 	C 	0.27420 0.09960 0.71340 -0.16000
H 	H 	0.30310 0.07240 0.72090 0.08600
C 	C 	0.25460 0.20240 0.68570 0.08600
H 	H 	0.26750 0.26170 0.67060 0.00100
C 	C 	0.79850 0.06870 0.39460 -0.09300
H 	H 	0.77980 0.03550 0.36870 0.07200
C 	C 	0.84920 0.65950 0.75990 0.07200
H 	H 	0.84030 0.58200 0.74200 -0.00100
C 	C 	0.18520 0.40860 0.64030 -0.09800
H 	H 	0.21330 0.43830 0.64340 0.07300
C 	C 	0.85520 0.16670 0.47030 -0.06900
H 	H 	0.87440 0.20110 0.49580 0.05800
C 	C 	0.85700 0.81780 0.81200 0.05700
H 	H 	0.85220 0.86450 0.83510 0.01800
C 	C 	0.81890 0.25000 0.44750 -0.08600
H 	H 	0.81410 0.33780 0.45760 0.07300
C 	C 	0.83580 0.69890 0.79180 -0.12900
H 	H 	0.81450 0.65230 0.80000 0.07800
C 	C 	0.94390 0.84900 0.68800 -0.06300
H 	H 	0.96210 0.92100 0.68500 0.06100
C 	C 	0.70490 0.37760 0.33350 -0.14300
H 	H 	0.68590 0.39930 0.30640 0.08900
C 	C 	0.13670 0.24110 0.65350 -0.09800
H 	H 	0.13180 0.15780 0.66610 0.07700
N 	N 	0.05600 0.74910 0.26040 -0.08700
C 	C 	0.73480 0.27470 0.34380 0.07600
H 	H 	0.74010 0.20910 0.32500 0.00400
C 	C 	0.08160 0.76130 0.23510 0.07000
H 	H 	0.07270 0.75000 0.20530 0.01200
C 	C 	0.70850 0.44270 0.37150 0.06700
H 	H 	0.69060 0.51600 0.37410 0.00900
Co	Co	0.48631 0.24605 0.03371 1.12100
N 	N 	0.46952 0.34510 0.97907 -0.28100
N 	N 	0.43450 0.31480 0.04494 -0.28000
N 	N 	0.53247 0.15270 0.01863 -0.28500
N 	N 	0.50804 0.17090 0.09193 -0.28200
N 	N 	0.24150 0.88920 0.90590 -0.09000
C 	C 	0.53830 0.26270 0.91100 0.04800
C 	C 	0.56810 0.26870 0.83740 0.11100
C 	C 	0.52310 0.25790 0.94740 -0.12200
C 	C 	0.43410 0.23730 0.15890 0.05800
C 	C 	0.40060 0.44980 0.97910 -0.12400
C 	C 	0.49290 0.35610 0.94960 0.08600
N 	N 	0.25530 0.78410 0.88590 -0.11000
N 	N 	0.37910 0.25770 0.25890 -0.10900
N 	N 	0.71300 0.70230 0.18420 -0.11300
C 	C 	0.36270 0.53920 0.95590 0.05900
C 	C 	0.57050 0.03530 0.08700 -0.12200
C 	C 	0.53950 0.15540 0.97900 0.08200
C 	C 	0.60780 0.94570 0.11020 0.05000
N 	N 	0.58250 0.27190 0.80080 -0.11500
C 	C 	0.67800 0.78550 0.15920 0.10400
C 	C 	0.53330 0.19040 0.83720 -0.10100
H 	H 	0.51850 0.14020 0.81260 0.08100
C 	C 	0.39060 0.13580 0.19770 -0.08500
H 	H 	0.37300 0.06210 0.20070 0.06400
C 	C 	0.44060 0.51800 0.92870 -0.11100
H 	H 	0.42320 0.59180 0.91450 0.05600
C 	C 	0.44980 0.24090 0.12000 -0.12200
C 	C 	0.29120 0.69550 0.91010 0.09600
C 	C 	0.58410 0.99060 0.01710 -0.11500
H 	H 	0.60480 0.92000 0.02590 0.05900
C 	C 	0.39900 0.24370 0.22640 0.09300
C 	C 	0.60270 0.81980 0.12920 -0.05500
H 	H 	0.57480 0.78710 0.12530 0.05400
C 	C 	0.56150 0.05600 0.04260 0.08600
C 	C 	0.43600 0.44220 0.96460 0.08800
C 	C 	0.49200 0.19280 0.12510 0.09700
C 	C 	0.54700 0.09990 0.10980 0.09000
C 	C 	0.33440 0.48740 0.91780 -0.06200
H 	H 	0.33910 0.39960 0.90770 0.06100
C 	C 	0.51940 0.18420 0.87320 -0.05200
H 	H 	0.49640 0.12520 0.87230 0.05300
C 	C 	0.57470 0.33240 0.90930 -0.05300
H 	H 	0.59130 0.37700 0.93440 0.05200
C 	C 	0.47500 0.46270 0.91910 -0.11400
H 	H 	0.48490 0.48990 0.89650 0.05900
C 	C 	0.40030 0.38220 0.01610 0.09300
C 	C 	0.62360 0.29340 0.76070 -0.14600
H 	H 	0.64740 0.31000 0.75150 0.09000
C 	C 	0.52120 0.14390 0.16480 -0.08000
H 	H 	0.51750 0.14960 0.19190 0.06700
C 	C 	0.55560 0.08700 0.15520 -0.07600
H 	H 	0.58000 0.04720 0.17470 0.06700
C 	C 	0.40790 0.13470 0.16420 -0.06400
H 	H 	0.40130 0.06050 0.14470 0.05800
C 	C 	0.57030 0.04910 0.97790 -0.10400
H 	H 	0.57910 0.02520 0.95430 0.05600
C 	C 	0.64980 0.98770 0.11630 -0.05600
H 	H 	0.65470 0.07170 0.10410 0.05800
C 	C 	0.62270 0.29540 0.80110 0.08500
H 	H 	0.64630 0.31080 0.82550 -0.00000
N 	N 	0.38720 0.35510 0.29130 -0.08600
N 	N 	0.70610 0.60450 0.21060 -0.09900
C 	C 	0.37840 0.33110 0.07390 -0.08100
H 	H 	0.36240 0.32180 0.09280 0.06500
C 	C 	0.42620 0.35160 0.22180 -0.08300
H 	H 	0.43260 0.42560 0.24140 0.07800
C 	C 	0.42230 0.28750 0.08130 0.09200
C 	C 	0.74370 0.54560 0.22750 0.09800
H 	H 	0.74860 0.47300 0.24750 -0.00000
C 	C 	0.58910 0.34230 0.87350 -0.10300
H 	H 	0.61270 0.39860 0.87430 0.07000
C 	C 	0.36470 0.38890 0.03370 -0.08000
H 	H 	0.33740 0.42600 0.02000 0.06500
C 	C 	0.77420 0.59960 0.21340 -0.15900
H 	H 	0.80310 0.57240 0.22090 0.08600
C 	C 	0.75460 0.70240 0.18570 0.08500
H 	H 	0.76750 0.76170 0.17060 0.00100
C 	C 	0.29850 0.56870 0.89460 -0.09200
H 	H 	0.27980 0.53550 0.86870 0.07200
C 	C 	0.34920 0.15950 0.25990 0.07200
H 	H 	0.34030 0.08200 0.24200 -0.00100
C 	C 	0.68520 0.90860 0.14030 -0.09900
H 	H 	0.71330 0.93830 0.14340 0.07300
C 	C 	0.35520 0.66670 0.97030 -0.06900
H 	H 	0.37440 0.70110 0.99580 0.05800
C 	C 	0.35700 0.31780 0.31200 0.05700
H 	H 	0.35220 0.36450 0.33510 0.01800
C 	C 	0.31890 0.75000 0.94750 -0.08600
H 	H 	0.31410 0.83780 0.95760 0.07300
C 	C 	0.33580 0.19890 0.29180 -0.12900
H 	H 	0.31450 0.15230 0.30000 0.07800
C 	C 	0.44390 0.34900 0.18800 -0.06300
H 	H 	0.46210 0.42100 0.18500 0.06100
C 	C 	0.20490 0.87760 0.83350 -0.14200
H 	H 	0.18590 0.89930 0.80640 0.08800
C 	C 	0.63670 0.74110 0.15350 -0.09800
H 	H 	0.63180 0.65780 0.16610 0.07700
N 	N 	0.55600 0.24910 0.76040 -0.08700
C 	C 	0.23480 0.77470 0.84380 0.07600
H 	H 	0.24010 0.70910 0.82500 0.00400
C 	C 	0.58160 0.26130 0.73510 0.07000
H 	H 	0.57270 0.25000 0.70530 0.01200
C 	C 	0.20850 0.94270 0.87150 0.06600
H 	H 	0.19060 0.01600 0.87410 0.01000
Co	Co	0.01369 0.74605 0.96629 1.12100
N 	N 	0.03048 0.84510 0.02093 -0.28100
N 	N 	0.06550 0.81480 0.95506 -0.28000
N 	N 	0.96753 0.65270 0.98137 -0.28400
N 	N 	0.99196 0.67090 0.90807 -0.28100
N 	N 	0.25850 0.38920 0.09410 -0.09000
C 	C 	0.96170 0.76270 0.08900 0.04900
C 	C 	0.93190 0.76870 0.16260 0.11000
C 	C 	0.97690 0.75790 0.05260 -0.12300
C 	C 	0.06590 0.73730 0.84110 0.05800
C 	C 	0.09940 0.94980 0.02090 -0.12200
C 	C 	0.00710 0.85610 0.05040 0.08700
N 	N 	0.24470 0.28410 0.11410 -0.11000
N 	N 	0.12090 0.75770 0.74110 -0.10900
N 	N 	0.78700 0.20230 0.81580 -0.11300
C 	C 	0.13730 0.03920 0.04410 0.05700
C 	C 	0.92950 0.53530 0.91300 -0.12100
C 	C 	0.96050 0.65540 0.02100 0.08200
C 	C 	0.89220 0.44570 0.88980 0.05000
N 	N 	0.91750 0.77190 0.19920 -0.11500
C 	C 	0.82200 0.28550 0.84080 0.10400
C 	C 	0.96670 0.69040 0.16280 -0.10000
H 	H 	0.98150 0.64020 0.18740 0.08100
C 	C 	0.10940 0.63580 0.80230 -0.08500
H 	H 	0.12700 0.56210 0.79930 0.06400
C 	C 	0.05940 0.01800 0.07130 -0.11200
H 	H 	0.07680 0.09180 0.08550 0.05700
C 	C 	0.05020 0.74090 0.88000 -0.12200
C 	C 	0.20880 0.19550 0.08990 0.09800
C 	C 	0.91590 0.49060 0.98290 -0.11400
H 	H 	0.89520 0.42000 0.97410 0.05900
C 	C 	0.10100 0.74370 0.77360 0.09400
C 	C 	0.89730 0.31980 0.87080 -0.05500
H 	H 	0.92520 0.28710 0.87470 0.05400
C 	C 	0.93850 0.55600 0.95740 0.08600
C 	C 	0.06400 0.94220 0.03540 0.08800
C 	C 	0.00800 0.69280 0.87490 0.09600
C 	C 	0.95300 0.59990 0.89020 0.09000
C 	C 	0.16560 0.98740 0.08220 -0.05900
H 	H 	0.16090 0.89960 0.09230 0.06000
C 	C 	0.98060 0.68420 0.12680 -0.05400
H 	H 	0.00360 0.62520 0.12770 0.05400
C 	C 	0.92530 0.83240 0.09070 -0.05400
H 	H 	0.90870 0.87700 0.06560 0.05300
C 	C 	0.02500 0.96270 0.08090 -0.11400
H 	H 	0.01510 0.98990 0.10350 0.05900
C 	C 	0.09970 0.88220 0.98390 0.09100
C 	C 	0.87640 0.79340 0.23930 -0.14600
H 	H 	0.85260 0.81000 0.24850 0.09000
C 	C 	0.97880 0.64390 0.83520 -0.07900
H 	H 	0.98250 0.64960 0.80810 0.06700
C 	C 	0.94440 0.58700 0.84480 -0.07700
H 	H 	0.92000 0.54720 0.82530 0.06700
C 	C 	0.09210 0.63470 0.83580 -0.06400
H 	H 	0.09870 0.56050 0.85530 0.05800
C 	C 	0.92970 0.54910 0.02210 -0.10500
H 	H 	0.92090 0.52520 0.04570 0.05600
C 	C 	0.85020 0.48770 0.88370 -0.05700
H 	H 	0.84530 0.57170 0.89590 0.05800
C 	C 	0.87730 0.79540 0.19890 0.08500
H 	H 	0.85370 0.81080 0.17450 -0.00000
N 	N 	0.11280 0.85510 0.70870 -0.08600
N 	N 	0.79390 0.10450 0.78940 -0.09900
C 	C 	0.12160 0.83110 0.92610 -0.08200
H 	H 	0.13760 0.82180 0.90720 0.06600
C 	C 	0.07380 0.85160 0.77820 -0.08300
H 	H 	0.06740 0.92560 0.75860 0.07800
C 	C 	0.07770 0.78750 0.91870 0.09200
C 	C 	0.75630 0.04560 0.77250 0.09900
H 	H 	0.75140 0.97300 0.75250 -0.00100
C 	C 	0.91090 0.84230 0.12650 -0.10200
H 	H 	0.88730 0.89860 0.12570 0.07000
C 	C 	0.13530 0.88890 0.96630 -0.08000
H 	H 	0.16260 0.92600 0.98000 0.06400
C 	C 	0.72580 0.09960 0.78660 -0.16000
H 	H 	0.69690 0.07240 0.77910 0.08600
C 	C 	0.74540 0.20240 0.81430 0.08600
H 	H 	0.73250 0.26170 0.82940 0.00100
C 	C 	0.20150 0.06870 0.10540 -0.09400
H 	H 	0.22020 0.03550 0.13130 0.07200
C 	C 	0.15080 0.65950 0.74010 0.07200
H 	H 	0.15970 0.58200 0.75800 -0.00100
C 	C 	0.81480 0.40860 0.85970 -0.09800
H 	H 	0.78670 0.43830 0.85660 0.07300
C 	C 	0.14480 0.16670 0.02970 -0.06700
H 	H 	0.12560 0.20110 0.00420 0.05800
C 	C 	0.14300 0.81780 0.68800 0.05700
H 	H 	0.14780 0.86450 0.66490 0.01800
C 	C 	0.18110 0.25000 0.05250 -0.08700
H 	H 	0.18590 0.33780 0.04240 0.07400
C 	C 	0.16420 0.69890 0.70820 -0.12900
H 	H 	0.18550 0.65230 0.70000 0.07800
C 	C 	0.05610 0.84900 0.81200 -0.06300
H 	H 	0.03790 0.92100 0.81500 0.06100
C 	C 	0.29510 0.37760 0.16650 -0.14300
H 	H 	0.31410 0.39930 0.19360 0.08900
C 	C 	0.86330 0.24110 0.84650 -0.09800
H 	H 	0.86820 0.15780 0.83390 0.07700
N 	N 	0.94400 0.74910 0.23960 -0.08700
C 	C 	0.26520 0.27470 0.15620 0.07600
H 	H 	0.25990 0.20910 0.17500 0.00400
C 	C 	0.91840 0.76130 0.26490 0.07000
H 	H 	0.92730 0.75000 0.29470 0.01200
C 	C 	0.29150 0.44270 0.12850 0.06700
H 	H 	0.30940 0.51600 0.12590 0.00900
Co	Co	0.51369 0.24605 0.46629 1.12100
N 	N 	0.53048 0.34510 0.52093 -0.28100
N 	N 	0.56550 0.31480 0.45506 -0.28000
N 	N 	0.46753 0.15270 0.48137 -0.28400
N 	N 	0.49196 0.17090 0.40807 -0.28200
N 	N 	0.75850 0.88920 0.59410 -0.09000
C 	C 	0.46170 0.26270 0.58900 0.04800
C 	C 	0.43190 0.26870 0.66260 0.11100
C 	C 	0.47690 0.25790 0.55260 -0.12200
C 	C 	0.56590 0.23730 0.34110 0.05800
C 	C 	0.59940 0.44980 0.52090 -0.12400
C 	C 	0.50710 0.35610 0.55040 0.08600
N 	N 	0.74470 0.78410 0.61410 -0.11000
N 	N 	0.62090 0.25770 0.24110 -0.10900
N 	N 	0.28700 0.70230 0.31580 -0.11300
C 	C 	0.63730 0.53920 0.54410 0.05900
C 	C 	0.42950 0.03530 0.41300 -0.12200
C 	C 	0.46050 0.15540 0.52100 0.08200
C 	C 	0.39220 0.94570 0.38980 0.05000
N 	N 	0.41750 0.27190 0.69920 -0.11500
C 	C 	0.32200 0.78550 0.34080 0.10400
C 	C 	0.46670 0.19040 0.66280 -0.10100
H 	H 	0.48150 0.14020 0.68740 0.08100
C 	C 	0.60940 0.13580 0.30230 -0.08500
H 	H 	0.62700 0.06210 0.29930 0.06400
C 	C 	0.55940 0.51800 0.57130 -0.11100
H 	H 	0.57680 0.59180 0.58550 0.05600
C 	C 	0.55020 0.24090 0.38000 -0.12200
C 	C 	0.70880 0.69550 0.58990 0.09600
C 	C 	0.41590 0.99060 0.48290 -0.11600
H 	H 	0.39520 0.92000 0.47410 0.05900
C 	C 	0.60100 0.24370 0.27360 0.09300
C 	C 	0.39730 0.81980 0.37080 -0.05500
H 	H 	0.42520 0.78710 0.37470 0.05400
C 	C 	0.43850 0.05600 0.45740 0.08700
C 	C 	0.56400 0.44220 0.53540 0.08800
C 	C 	0.50800 0.19280 0.37490 0.09700
C 	C 	0.45300 0.09990 0.39020 0.09000
C 	C 	0.66560 0.48740 0.58220 -0.06200
H 	H 	0.66090 0.39960 0.59230 0.06100
C 	C 	0.48060 0.18420 0.62680 -0.05200
H 	H 	0.50360 0.12520 0.62770 0.05300
C 	C 	0.42530 0.33240 0.59070 -0.05300
H 	H 	0.40870 0.37700 0.56560 0.05200
C 	C 	0.52500 0.46270 0.58090 -0.11400
H 	H 	0.51510 0.48990 0.60350 0.05900
C 	C 	0.59970 0.38220 0.48390 0.09200
C 	C 	0.37640 0.29340 0.73930 -0.14600
H 	H 	0.35260 0.31000 0.74850 0.09000
C 	C 	0.47880 0.14390 0.33520 -0.08000
H 	H 	0.48250 0.14960 0.30810 0.06700
C 	C 	0.44440 0.08700 0.34480 -0.07600
H 	H 	0.42000 0.04720 0.32530 0.06700
C 	C 	0.59210 0.13470 0.33580 -0.06400
H 	H 	0.59870 0.06050 0.35530 0.05800
C 	C 	0.42970 0.04910 0.52210 -0.10400
H 	H 	0.42090 0.02520 0.54570 0.05600
C 	C 	0.35020 0.98770 0.38370 -0.05600
H 	H 	0.34530 0.07170 0.39590 0.05800
C 	C 	0.37730 0.29540 0.69890 0.08500
H 	H 	0.35370 0.31080 0.67450 -0.00000
N 	N 	0.61280 0.35510 0.20870 -0.08600
N 	N 	0.29390 0.60450 0.28940 -0.09900
C 	C 	0.62160 0.33110 0.42610 -0.08100
H 	H 	0.63760 0.32180 0.40720 0.06600
C 	C 	0.57380 0.35160 0.27820 -0.08300
H 	H 	0.56740 0.42560 0.25860 0.07800
C 	C 	0.57770 0.28750 0.41870 0.09200
C 	C 	0.25630 0.54560 0.27250 0.09800
H 	H 	0.25140 0.47300 0.25250 -0.00000
C 	C 	0.41090 0.34230 0.62650 -0.10300
H 	H 	0.38730 0.39860 0.62570 0.07000
C 	C 	0.63530 0.38890 0.46630 -0.08000
H 	H 	0.66260 0.42600 0.48000 0.06500
C 	C 	0.22580 0.59960 0.28660 -0.15900
H 	H 	0.19690 0.57240 0.27910 0.08600
C 	C 	0.24540 0.70240 0.31430 0.08500
H 	H 	0.23250 0.76170 0.32940 0.00100
C 	C 	0.70150 0.56870 0.60540 -0.09200
H 	H 	0.72020 0.53550 0.63130 0.07200
C 	C 	0.65080 0.15950 0.24010 0.07200
H 	H 	0.65970 0.08200 0.25800 -0.00100
C 	C 	0.31480 0.90860 0.35970 -0.09800
H 	H 	0.28670 0.93830 0.35660 0.07300
C 	C 	0.64480 0.66670 0.52970 -0.06900
H 	H 	0.62560 0.70110 0.50420 0.05800
C 	C 	0.64300 0.31780 0.18800 0.05700
H 	H 	0.64780 0.36450 0.16490 0.01800
C 	C 	0.68110 0.75000 0.55250 -0.08600
H 	H 	0.68590 0.83780 0.54240 0.07300
C 	C 	0.66420 0.19890 0.20820 -0.12900
H 	H 	0.68550 0.15230 0.20000 0.07800
C 	C 	0.55610 0.34900 0.31200 -0.06300
H 	H 	0.53790 0.42100 0.31500 0.06100
C 	C 	0.79510 0.87760 0.66650 -0.14300
H 	H 	0.81410 0.89930 0.69360 0.08800
C 	C 	0.36330 0.74110 0.34650 -0.09800
H 	H 	0.36820 0.65780 0.33390 0.07700
N 	N 	0.44400 0.24910 0.73960 -0.08700
C 	C 	0.76520 0.77470 0.65620 0.07600
H 	H 	0.75990 0.70910 0.67500 0.00400
C 	C 	0.41840 0.26130 0.76490 0.07000
H 	H 	0.42730 0.25000 0.79470 0.01200
C 	C 	0.79150 0.94270 0.62850 0.06600
H 	H 	0.80940 0.01600 0.62590 0.00900
