data_crystal

_cell_length_a 44.96400
_cell_length_b 12.49110
_cell_length_c 31.68210
_cell_angle_alpha 90.00000
_cell_angle_beta  134.57100
_cell_angle_gamma 90.00000

_symmetry_space_group_name_	'P 1'
_symmetry_space_group_name_H-M	'P 1'

loop_
_symmetry_equiv_pos_as_xyz
  x,y,z

loop_
_atom_site_label
_atom_site_type_symbol
_atom_site_fract_x
_atom_site_fract_y
_atom_site_fract_z
_atom_site_charge
Cd	Cd	0.23810 0.50656 0.85208 1.20900
Cd	Cd	0.23766 0.22798 0.87750 1.20300
Cd	Cd	0.41341 0.47056 0.63851 1.19800
Cd	Cd	0.32167 0.53232 0.48094 1.22800
Cd	Cd	0.35755 0.72198 0.59909 1.20600
Cd	Cd	0.64603 0.90985 0.74490 1.19400
C 	C 	0.24650 0.63970 0.77080 0.06200
H 	H 	0.22330 0.59900 0.74040 -0.00800
C 	C 	0.26230 0.70750 0.75730 -0.14900
H 	H 	0.25080 0.71080 0.71890 0.07200
C 	C 	0.29570 0.77160 0.80120 0.04600
C 	C 	0.31150 0.76500 0.85750 -0.12800
H 	H 	0.33370 0.80810 0.88780 0.07800
C 	C 	0.29390 0.69350 0.86820 0.02000
H 	H 	0.30410 0.69050 0.90580 0.00400
C 	C 	0.31600 0.84970 0.79310 0.06200
C 	C 	0.32490 0.00480 0.71100 -0.05400
H 	H 	0.29510 0.01250 0.67650 0.06200
H 	H 	0.33690 0.07600 0.72440 0.03900
C 	C 	0.32540 0.89040 0.64640 0.07100
H 	H 	0.29710 0.87480 0.61650 -0.01800
C 	C 	0.38900 0.90220 0.69860 0.05600
H 	H 	0.41490 0.89060 0.71210 0.00000
C 	C 	0.35830 0.96860 0.81630 0.08700
C 	C 	0.39170 0.04820 0.85360 0.02700
C 	C 	0.41620 0.09080 0.84520 -0.12800
H 	H 	0.41150 0.07080 0.81260 0.07300
C 	C 	0.44780 0.16370 0.88670 0.07300
H 	H 	0.46330 0.19230 0.88010 0.00300
C 	C 	0.43480 0.14790 0.94360 0.05100
H 	H 	0.44270 0.16180 0.97910 0.00600
C 	C 	0.40160 0.08130 0.90380 -0.12100
H 	H 	0.38560 0.05810 0.91060 0.07000
C 	C 	0.49150 0.79690 0.92440 0.03800
H 	H 	0.46450 0.77060 0.89970 -0.02800
C 	C 	0.50030 0.87980 0.90550 -0.08600
H 	H 	0.47850 0.91710 0.87110 0.06500
C 	C 	0.54020 0.90730 0.93650 -0.01000
C 	C 	0.57200 0.86060 0.99180 0.02100
H 	H 	0.59980 0.88000 0.01520 0.01400
C 	C 	0.56140 0.78500 0.01070 -0.04900
H 	H 	0.58250 0.75410 0.04770 0.03700
C 	C 	0.54670 0.99080 0.90990 0.13300
C 	C 	0.61990 0.95170 0.95300 0.04800
H 	H 	0.61720 0.88090 0.96250 0.03100
H 	H 	0.62560 0.94360 0.92880 0.03400
C 	C 	0.53410 0.12030 0.85740 0.07100
C 	C 	0.50950 0.20090 0.80990 0.05500
C 	C 	0.46750 0.20860 0.77470 -0.15000
H 	H 	0.45470 0.16430 0.78170 0.07800
C 	C 	0.44430 0.27980 0.72980 0.06400
H 	H 	0.41560 0.28060 0.70530 -0.01500
C 	C 	0.50150 0.34630 0.75350 0.07600
H 	H 	0.51360 0.39680 0.74770 -0.02900
C 	C 	0.52770 0.27060 0.79870 -0.15200
H 	H 	0.55590 0.26680 0.82030 0.07100
C 	C 	0.48060 0.50110 0.62660 0.07500
H 	H 	0.48220 0.57010 0.63910 -0.04200
C 	C 	0.50560 0.47650 0.61730 -0.14300
H 	H 	0.52290 0.52810 0.62260 0.06400
C 	C 	0.50450 0.37500 0.60000 0.04900
C 	C 	0.47780 0.30040 0.59290 -0.12400
H 	H 	0.47640 0.23030 0.58170 0.05900
C 	C 	0.45380 0.33230 0.60270 0.05900
H 	H 	0.43620 0.28240 0.59790 -0.00800
C 	C 	0.52790 0.34510 0.58580 0.07500
C 	C 	0.55639 0.16400 0.53620 -0.02700
H 	H 	0.56530 0.18740 0.51730 0.04700
H 	H 	0.52920 0.13030 0.50700 0.04700
C 	C 	0.56646 0.35630 0.57090 0.07200
C 	C 	0.59241 0.39810 0.56200 0.06700
C 	C 	0.58413 0.48800 0.53660 -0.16900
H 	H 	0.56300 0.53090 0.52620 0.08400
C 	C 	0.60660 0.52070 0.52460 0.08800
H 	H 	0.59770 0.58270 0.50220 -0.02300
C 	C 	0.65090 0.38340 0.57340 0.08000
H 	H 	0.67490 0.34940 0.58770 -0.00800
C 	C 	0.63100 0.33800 0.58650 -0.15600
H 	H 	0.64020 0.27550 0.60850 0.08400
C 	C 	0.31820 0.45960 0.95980 0.38200
C 	C 	0.36350 0.44390 0.01110 -0.21600
C 	C 	0.38860 0.54440 0.04710 -0.16700
H 	H 	0.37690 0.60630 0.02120 0.06500
H 	H 	0.38780 0.55710 0.07650 0.07900
C 	C 	0.43330 0.52580 0.07710 0.18400
H 	H 	0.44350 0.58730 0.07180 -0.03500
H 	H 	0.45140 0.51350 0.11920 -0.04800
C 	C 	0.43170 0.42980 0.04800 -0.54800
H 	H 	0.44170 0.36980 0.07510 0.19300
C 	C 	0.38690 0.40490 0.99240 0.75300
C 	C 	0.37290 0.47570 0.94240 -1.27700
H 	H 	0.34430 0.46050 0.90730 0.39900
H 	H 	0.39000 0.46210 0.93510 0.41500
H 	H 	0.37560 0.54940 0.95320 0.42200
C 	C 	0.37730 0.28890 0.97230 -1.18500
H 	H 	0.38580 0.24400 0.00380 0.36800
H 	H 	0.39220 0.26850 0.96200 0.39000
H 	H 	0.34780 0.28070 0.93830 0.38500
C 	C 	0.36750 0.35870 0.04940 -0.25300
H 	H 	0.35160 0.29660 0.02580 0.07500
H 	H 	0.35700 0.38670 0.06510 0.09300
H 	H 	0.39630 0.33940 0.08150 0.09000
C 	C 	0.45930 0.43120 0.03530 0.47300
C 	C 	0.17650 0.65360 0.81050 0.44400
C 	C 	0.15190 0.75720 0.79750 -0.49000
H 	H 	0.12420 0.75050 0.75700 0.17700
C 	C 	0.14500 0.77720 0.83510 0.17500
H 	H 	0.16540 0.73820 0.87200 -0.01700
H 	H 	0.11740 0.75250 0.81560 -0.03700
C 	C 	0.14880 0.89410 0.84740 -0.16600
H 	H 	0.17360 0.90920 0.88870 0.08000
H 	H 	0.12450 0.92020 0.83840 0.07500
C 	C 	0.15180 0.94710 0.80580 -0.22900
C 	C 	0.17250 0.85670 0.79830 0.70700
C 	C 	0.16680 0.86540 0.74590 -1.26200
H 	H 	0.13750 0.86580 0.71020 0.40400
H 	H 	0.17990 0.80540 0.74540 0.40700
H 	H 	0.17930 0.93060 0.74850 0.39800
C 	C 	0.21970 0.85570 0.85200 -1.18900
H 	H 	0.23160 0.92020 0.85240 0.37700
H 	H 	0.23160 0.79490 0.84960 0.38000
H 	H 	0.22580 0.85140 0.88760 0.39700
C 	C 	0.11070 0.98020 0.74880 -0.07300
H 	H 	0.09250 0.91920 0.72960 0.04100
H 	H 	0.11370 0.00990 0.72400 0.02000
H 	H 	0.09900 0.03320 0.75570 0.02800
C 	C 	0.18040 0.04540 0.83710 0.44700
C 	C 	0.57410 0.51700 0.11580 0.37100
C 	C 	0.61170 0.51640 0.18370 -0.21500
C 	C 	0.62340 0.40720 0.21280 -0.21000
H 	H 	0.64190 0.37100 0.21170 0.08800
H 	H 	0.59840 0.36400 0.19120 0.08100
C 	C 	0.64530 0.41940 0.27790 0.29400
H 	H 	0.63470 0.36820 0.28770 -0.06700
H 	H 	0.67530 0.41070 0.30520 -0.07600
C 	C 	0.63420 0.52960 0.27850 -0.70800
H 	H 	0.65950 0.57250 0.29960 0.23100
C 	C 	0.59990 0.58200 0.21640 1.16200
C 	C 	0.55850 0.55500 0.18750 -2.00900
H 	H 	0.55610 0.47860 0.18770 0.62400
H 	H 	0.53920 0.58030 0.14740 0.62800
H 	H 	0.55240 0.58780 0.20810 0.62100
C 	C 	0.60680 0.69960 0.21810 -1.85400
H 	H 	0.63490 0.71220 0.23680 0.58100
H 	H 	0.60240 0.73490 0.24030 0.59300
H 	H 	0.58760 0.72740 0.17850 0.59500
C 	C 	0.64630 0.57780 0.19850 -0.25300
H 	H 	0.63580 0.64480 0.17770 0.09400
H 	H 	0.65780 0.53740 0.18710 0.09700
H 	H 	0.66760 0.59110 0.24040 0.07400
C 	C 	0.62210 0.54280 0.31330 0.54800
C 	C 	0.33920 0.30290 0.53100 0.41800
C 	C 	0.32280 0.19000 0.52340 -0.15500
C 	C 	0.29760 0.18920 0.54180 0.76600
C 	C 	0.27000 0.08700 0.50720 -0.64200
H 	H 	0.28580 0.02430 0.53250 0.20300
C 	C 	0.26420 0.07880 0.45620 0.29600
H 	H 	0.23510 0.09190 0.42050 -0.06600
H 	H 	0.27110 0.00680 0.45390 -0.08900
C 	C 	0.29130 0.15810 0.46000 -0.25300
H 	H 	0.30450 0.12510 0.44890 0.10300
H 	H 	0.27510 0.21930 0.43450 0.10700
C 	C 	0.35810 0.11540 0.55510 -0.29200
H 	H 	0.34880 0.04390 0.55160 0.09600
H 	H 	0.37940 0.13510 0.59620 0.10600
H 	H 	0.36930 0.11840 0.53820 0.12000
C 	C 	0.32480 0.17190 0.60720 -1.32200
H 	H 	0.34210 0.23380 0.62870 0.42500
H 	H 	0.34220 0.11020 0.62010 0.41500
H 	H 	0.30750 0.16070 0.61430 0.42800
C 	C 	0.27290 0.28940 0.52290 -1.32800
H 	H 	0.29160 0.34890 0.54520 0.41400
H 	H 	0.25550 0.28260 0.53000 0.40700
H 	H 	0.25590 0.30130 0.48150 0.42200
C 	C 	0.23120 0.09270 0.49310 0.61800
C 	C 	0.43120 0.87400 0.62880 0.35700
C 	C 	0.46960 0.93660 0.67050 -0.35900
H 	H 	0.46150 0.01220 0.66110 0.12300
C 	C 	0.49510 0.92290 0.73550 0.08300
H 	H 	0.48910 0.98070 0.74910 0.01100
H 	H 	0.48790 0.85570 0.74200 0.00300
C 	C 	0.54060 0.92350 0.76970 -0.17900
H 	H 	0.55200 0.85160 0.78160 0.07300
H 	H 	0.55630 0.96810 0.80470 0.10400
C 	C 	0.54150 0.97030 0.72540 -0.10500
C 	C 	0.54070 0.08690 0.72000 -0.42100
H 	H 	0.54180 0.10540 0.69170 0.14300
H 	H 	0.56430 0.11730 0.75780 0.15500
H 	H 	0.51540 0.11440 0.70690 0.14300
C 	C 	0.50240 0.91690 0.66640 0.56500
C 	C 	0.48790 0.96510 0.61000 -1.01500
H 	H 	0.50820 0.95000 0.60870 0.33600
H 	H 	0.48480 0.04110 0.61000 0.31500
H 	H 	0.46160 0.93420 0.57590 0.34100
C 	C 	0.50660 0.79900 0.66490 -1.07100
H 	H 	0.52640 0.78460 0.66250 0.32800
H 	H 	0.48000 0.76910 0.63090 0.34200
H 	H 	0.51620 0.76720 0.70020 0.33800
C 	C 	0.57980 0.94040 0.73860 0.42700
C 	C 	0.28200 0.65950 0.38290 0.38900
C 	C 	0.25820 0.73070 0.32860 -0.41900
H 	H 	0.22870 0.71340 0.30380 0.15000
C 	C 	0.26130 0.84680 0.33850 0.10200
H 	H 	0.28860 0.86700 0.37620 0.00300
H 	H 	0.24010 0.87210 0.33690 -0.01100
C 	C 	0.25350 0.89010 0.28490 -0.14000
H 	H 	0.22880 0.93510 0.26010 0.07000
H 	H 	0.27710 0.93350 0.29960 0.07600
C 	C 	0.24780 0.80050 0.24900 -0.15300
C 	C 	0.19830 0.78100 0.19630 -0.32700
H 	H 	0.19300 0.72330 0.17170 0.11100
H 	H 	0.18510 0.84490 0.17300 0.10600
H 	H 	0.18740 0.76300 0.21270 0.11000
C 	C 	0.26680 0.70070 0.29080 0.61200
C 	C 	0.25040 0.58990 0.26140 -1.11700
H 	H 	0.22070 0.58730 0.23590 0.36400
H 	H 	0.26340 0.53580 0.29140 0.36800
H 	H 	0.25670 0.57740 0.23850 0.35700
C 	C 	0.31330 0.69760 0.32940 -1.09200
H 	H 	0.32520 0.63720 0.35550 0.35100
H 	H 	0.32580 0.76230 0.35220 0.35300
H 	H 	0.31850 0.69150 0.30480 0.32800
C 	C 	0.26240 0.81630 0.21830 0.35500
N 	N 	0.26220 0.62780 0.82520 -0.23400
N 	N 	0.34930 0.90690 0.83950 -0.13500
N 	N 	0.30390 0.87360 0.74180 -0.10500
N 	N 	0.33126 0.95130 0.75740 -0.08800
N 	N 	0.34310 0.94860 0.69420 -0.09100
N 	N 	0.38480 0.95960 0.72700 -0.10800
N 	N 	0.35370 0.85830 0.64760 -0.24000
N 	N 	0.45690 0.19450 0.93460 -0.20200
N 	N 	0.52260 0.75420 0.97880 -0.16700
N 	N 	0.51730 0.05950 0.87130 -0.15100
N 	N 	0.58086 0.01070 0.91980 -0.12000
N 	N 	0.57270 0.09400 0.88560 -0.10600
N 	N 	0.66205 0.00150 0.05589 -0.10800
N 	N 	0.65388 0.00720 0.00658 -0.11200
C 	C 	0.68178 0.07260 0.01685 0.01700
H 	H 	0.68330 0.09090 0.98990 0.01700
N 	N 	0.70719 0.10740 0.07250 -0.24200
C 	C 	0.69499 0.06340 0.09663 0.05800
H 	H 	0.70730 0.07410 0.13510 -0.02100
N 	N 	0.46120 0.34990 0.71900 -0.23900
N 	N 	0.45460 0.43240 0.61890 -0.23900
N 	N 	0.55140 0.41620 0.58620 -0.14300
N 	N 	0.53020 0.24380 0.57420 -0.09800
N 	N 	0.55620 0.25460 0.56710 -0.08600
N 	N 	0.58870 0.08920 0.58890 -0.08900
N 	N 	0.61810 0.05060 0.59390 -0.11800
C 	C 	0.63920 0.98000 0.63680 0.11900
H 	H 	0.66190 0.94040 0.64970 -0.03300
N 	N 	0.62280 0.97490 0.65820 -0.24500
C 	C 	0.59150 0.04240 0.62860 0.06600
H 	H 	0.57440 0.05490 0.63470 -0.00100
N 	N 	0.63950 0.47220 0.54190 -0.22900
O 	O 	0.20510 0.62510 0.86340 -0.44100
O 	O 	0.16900 0.60430 0.77030 -0.50300
O 	O 	0.18410 0.10520 0.81140 -0.48600
O 	O 	0.19820 0.07540 0.88450 -0.41500
O 	O 	0.30210 0.55020 0.95470 -0.37300
O 	O 	0.29500 0.39270 0.92090 -0.51200
O 	O 	0.47019 0.34080 0.03200 -0.49800
O 	O 	0.46922 0.51840 0.02970 -0.50300
O 	O 	0.55791 0.43020 0.08960 -0.46600
O 	O 	0.56065 0.60780 0.09150 -0.48000
O 	O 	0.62000 0.46110 0.33310 -0.51800
O 	O 	0.61250 0.63270 0.31690 -0.55900
O 	O 	0.37230 0.33110 0.57860 -0.48800
O 	O 	0.31560 0.36090 0.48610 -0.47400
O 	O 	0.23030 0.06460 0.52800 -0.57100
O 	O 	0.19940 0.13340 0.44500 -0.56900
O 	O 	0.42370 0.79990 0.65080 -0.41000
O 	O 	0.40530 0.90140 0.57450 -0.31900
O 	O 	0.61000 0.91220 0.78780 -0.37200
O 	O 	0.58310 0.94810 0.70540 -0.49800
O 	O 	0.31394 0.69760 0.43380 -0.40600
O 	O 	0.27040 0.56620 0.37830 -0.41500
O 	O 	0.28160 0.90270 0.22760 -0.49500
O 	O 	0.25610 0.74030 0.18700 -0.47300
O 	O 	0.37814 0.59960 0.57030 -0.61700
O 	O 	0.19832 0.37380 0.84060 -0.60800
Cd	Cd	0.73810 0.00656 0.85208 1.20500
Cd	Cd	0.73766 0.72798 0.87750 1.20500
Cd	Cd	0.91341 0.97056 0.63851 1.20300
Cd	Cd	0.82167 0.03232 0.48094 1.22400
Cd	Cd	0.85755 0.22198 0.59909 1.20600
Cd	Cd	0.14603 0.40985 0.74490 1.19300
C 	C 	0.74650 0.13970 0.77080 0.06300
H 	H 	0.72330 0.09900 0.74040 -0.01200
C 	C 	0.76230 0.20750 0.75730 -0.15000
H 	H 	0.75080 0.21080 0.71890 0.07100
C 	C 	0.79570 0.27160 0.80120 0.04600
C 	C 	0.81150 0.26500 0.85750 -0.12700
H 	H 	0.83370 0.30810 0.88780 0.07700
C 	C 	0.79390 0.19350 0.86820 0.02100
H 	H 	0.80410 0.19050 0.90580 0.00400
C 	C 	0.81600 0.34970 0.79310 0.06000
C 	C 	0.82490 0.50480 0.71100 -0.02200
H 	H 	0.79510 0.51250 0.67650 0.05700
H 	H 	0.83690 0.57600 0.72440 0.03300
C 	C 	0.82540 0.39040 0.64640 0.06900
H 	H 	0.79710 0.37480 0.61650 -0.02100
C 	C 	0.88900 0.40220 0.69860 0.05200
H 	H 	0.91490 0.39060 0.71210 -0.00100
C 	C 	0.85830 0.46860 0.81630 0.06500
C 	C 	0.89170 0.54820 0.85360 0.05400
C 	C 	0.91620 0.59080 0.84520 -0.14000
H 	H 	0.91150 0.57080 0.81260 0.08200
C 	C 	0.94780 0.66370 0.88670 0.08300
H 	H 	0.96330 0.69230 0.88010 0.00200
C 	C 	0.93480 0.64790 0.94360 0.06100
H 	H 	0.94270 0.66180 0.97910 0.00500
C 	C 	0.90160 0.58130 0.90380 -0.13400
H 	H 	0.88560 0.55810 0.91060 0.07900
C 	C 	0.99150 0.29690 0.92440 0.07300
H 	H 	0.96450 0.27060 0.89970 -0.04300
C 	C 	0.00030 0.37980 0.90550 -0.13600
H 	H 	0.97850 0.41710 0.87110 0.08200
C 	C 	0.04020 0.40730 0.93650 0.01600
C 	C 	0.07200 0.36060 0.99180 0.00200
H 	H 	0.09980 0.38000 0.01520 0.01600
C 	C 	0.06140 0.28500 0.01070 -0.04000
H 	H 	0.08250 0.25410 0.04770 0.03300
C 	C 	0.04670 0.49080 0.90990 0.09500
C 	C 	0.11990 0.45170 0.95300 0.01300
H 	H 	0.11720 0.38090 0.96250 0.03900
H 	H 	0.12560 0.44360 0.92880 0.04000
C 	C 	0.03410 0.62030 0.85740 0.07800
C 	C 	0.00950 0.70090 0.80990 0.03900
C 	C 	0.96750 0.70860 0.77470 -0.12900
H 	H 	0.95470 0.66430 0.78170 0.07500
C 	C 	0.94430 0.77980 0.72980 0.05500
H 	H 	0.91560 0.78060 0.70530 -0.01200
C 	C 	0.00150 0.84630 0.75350 0.06000
H 	H 	0.01360 0.89680 0.74770 -0.02200
C 	C 	0.02770 0.77060 0.79870 -0.13700
H 	H 	0.05590 0.76680 0.82030 0.06800
C 	C 	0.98060 0.00110 0.62660 0.00300
H 	H 	0.98220 0.07010 0.63910 -0.01900
C 	C 	0.00560 0.97650 0.61730 -0.05000
H 	H 	0.02290 0.02810 0.62260 0.02100
C 	C 	0.00450 0.87500 0.60000 -0.00100
C 	C 	0.97780 0.80040 0.59290 -0.08100
H 	H 	0.97640 0.73030 0.58170 0.04600
C 	C 	0.95380 0.83230 0.60270 0.03900
H 	H 	0.93620 0.78240 0.59790 0.00100
C 	C 	0.02790 0.84510 0.58580 0.09200
C 	C 	0.05639 0.66400 0.53620 -0.02300
H 	H 	0.06530 0.68740 0.51730 0.04600
H 	H 	0.02920 0.63030 0.50700 0.04400
C 	C 	0.06646 0.85630 0.57090 0.09300
C 	C 	0.09241 0.89810 0.56200 0.00800
C 	C 	0.08413 0.98800 0.53660 -0.04400
H 	H 	0.06300 0.03090 0.52620 0.02600
C 	C 	0.10660 0.02070 0.52460 -0.01000
H 	H 	0.09770 0.08270 0.50220 0.00700
C 	C 	0.15090 0.88340 0.57340 0.05800
H 	H 	0.17490 0.84940 0.58770 0.00200
C 	C 	0.13100 0.83800 0.58650 -0.11800
H 	H 	0.14020 0.77550 0.60850 0.07200
C 	C 	0.81820 0.95960 0.95980 0.38900
C 	C 	0.86350 0.94390 0.01110 -0.18200
C 	C 	0.88860 0.04440 0.04710 -0.18600
H 	H 	0.87690 0.10630 0.02120 0.07000
H 	H 	0.88780 0.05710 0.07650 0.08000
C 	C 	0.93330 0.02580 0.07710 0.16100
H 	H 	0.94350 0.08730 0.07180 -0.02900
H 	H 	0.95140 0.01350 0.11920 -0.04700
C 	C 	0.93170 0.92980 0.04800 -0.51300
H 	H 	0.94170 0.86980 0.07510 0.18500
C 	C 	0.88690 0.90490 0.99240 0.70600
C 	C 	0.87290 0.97570 0.94240 -1.17300
H 	H 	0.84430 0.96050 0.90730 0.37200
H 	H 	0.89000 0.96210 0.93510 0.38800
H 	H 	0.87560 0.04940 0.95320 0.38100
C 	C 	0.87730 0.78890 0.97230 -1.14500
H 	H 	0.88580 0.74400 0.00380 0.35800
H 	H 	0.89220 0.76850 0.96200 0.37800
H 	H 	0.84780 0.78070 0.93830 0.37200
C 	C 	0.86750 0.85870 0.04940 -0.28800
H 	H 	0.85160 0.79660 0.02580 0.08700
H 	H 	0.85700 0.88670 0.06510 0.10700
H 	H 	0.89630 0.83940 0.08150 0.10400
C 	C 	0.95930 0.93120 0.03530 0.48400
C 	C 	0.67650 0.15360 0.81050 0.44300
C 	C 	0.65190 0.25720 0.79750 -0.48300
H 	H 	0.62420 0.25050 0.75700 0.17300
C 	C 	0.64500 0.27720 0.83510 0.18700
H 	H 	0.66540 0.23820 0.87200 -0.02300
H 	H 	0.61740 0.25250 0.81560 -0.04300
C 	C 	0.64880 0.39410 0.84740 -0.19800
H 	H 	0.67360 0.40920 0.88870 0.08600
H 	H 	0.62450 0.42020 0.83840 0.08100
C 	C 	0.65180 0.44710 0.80580 -0.17500
C 	C 	0.67250 0.35670 0.79830 0.66800
C 	C 	0.66680 0.36540 0.74590 -1.21300
H 	H 	0.63750 0.36580 0.71020 0.38600
H 	H 	0.67990 0.30540 0.74540 0.39200
H 	H 	0.67930 0.43060 0.74850 0.37700
C 	C 	0.71970 0.35570 0.85200 -1.14200
H 	H 	0.73160 0.42020 0.85240 0.35800
H 	H 	0.73160 0.29490 0.84960 0.36600
H 	H 	0.72580 0.35140 0.88760 0.38000
C 	C 	0.61070 0.48020 0.74880 -0.26800
H 	H 	0.59250 0.41920 0.72960 0.09700
H 	H 	0.61370 0.50990 0.72400 0.09100
H 	H 	0.59900 0.53320 0.75570 0.09700
C 	C 	0.68040 0.54540 0.83710 0.43900
C 	C 	0.07410 0.01700 0.11580 0.36200
C 	C 	0.11170 0.01640 0.18370 -0.25600
C 	C 	0.12340 0.90720 0.21280 -0.18800
H 	H 	0.14190 0.87100 0.21170 0.08400
H 	H 	0.09840 0.86400 0.19120 0.07500
C 	C 	0.14530 0.91940 0.27790 0.32000
H 	H 	0.13470 0.86820 0.28770 -0.07300
H 	H 	0.17530 0.91070 0.30520 -0.08000
C 	C 	0.13420 0.02960 0.27850 -0.75200
H 	H 	0.15950 0.07250 0.29960 0.24100
C 	C 	0.09990 0.08200 0.21640 1.23500
C 	C 	0.05850 0.05500 0.18750 -2.16000
H 	H 	0.05610 0.97860 0.18770 0.67900
H 	H 	0.03920 0.08030 0.14740 0.66900
H 	H 	0.05240 0.08780 0.20810 0.66100
C 	C 	0.10680 0.19960 0.21810 -1.93500
H 	H 	0.13490 0.21220 0.23680 0.60500
H 	H 	0.10240 0.23490 0.24030 0.61600
H 	H 	0.08760 0.22740 0.17850 0.61800
C 	C 	0.14630 0.07780 0.19850 -0.20400
H 	H 	0.13580 0.14480 0.17770 0.07800
H 	H 	0.15780 0.03740 0.18710 0.07800
H 	H 	0.16760 0.09110 0.24040 0.05400
C 	C 	0.12210 0.04280 0.31330 0.53800
C 	C 	0.83920 0.80290 0.53100 0.41500
C 	C 	0.82280 0.69000 0.52340 -0.15200
C 	C 	0.79760 0.68920 0.54180 0.77400
C 	C 	0.77000 0.58700 0.50720 -0.64500
H 	H 	0.78580 0.52430 0.53250 0.20900
C 	C 	0.76420 0.57880 0.45620 0.29700
H 	H 	0.73510 0.59190 0.42050 -0.06400
H 	H 	0.77110 0.50680 0.45390 -0.08400
C 	C 	0.79130 0.65810 0.46000 -0.25600
H 	H 	0.80450 0.62510 0.44890 0.10700
H 	H 	0.77510 0.71930 0.43450 0.10900
C 	C 	0.85810 0.61540 0.55510 -0.30500
H 	H 	0.84880 0.54390 0.55160 0.10500
H 	H 	0.87940 0.63510 0.59620 0.11200
H 	H 	0.86930 0.61840 0.53820 0.12600
C 	C 	0.82480 0.67190 0.60720 -1.33600
H 	H 	0.84210 0.73380 0.62870 0.43000
H 	H 	0.84220 0.61020 0.62010 0.42200
H 	H 	0.80750 0.66070 0.61430 0.43400
C 	C 	0.77290 0.78940 0.52290 -1.34400
H 	H 	0.79160 0.84890 0.54520 0.42300
H 	H 	0.75550 0.78260 0.53000 0.41400
H 	H 	0.75590 0.80130 0.48150 0.42900
C 	C 	0.73120 0.59270 0.49310 0.62100
C 	C 	0.93120 0.37400 0.62880 0.37000
C 	C 	0.96960 0.43660 0.67050 -0.40300
H 	H 	0.96150 0.51220 0.66110 0.14900
C 	C 	0.99510 0.42290 0.73550 0.10800
H 	H 	0.98910 0.48070 0.74910 -0.00100
H 	H 	0.98790 0.35570 0.74200 -0.00400
C 	C 	0.04060 0.42350 0.76970 -0.17700
H 	H 	0.05200 0.35160 0.78160 0.07000
H 	H 	0.05630 0.46810 0.80470 0.09700
C 	C 	0.04150 0.47030 0.72540 -0.15100
C 	C 	0.04070 0.58690 0.72000 -0.34300
H 	H 	0.04180 0.60540 0.69170 0.12200
H 	H 	0.06430 0.61730 0.75780 0.13600
H 	H 	0.01540 0.61440 0.70690 0.12000
C 	C 	0.00240 0.41690 0.66640 0.60200
C 	C 	0.98790 0.46510 0.61000 -1.07800
H 	H 	0.00820 0.45000 0.60870 0.34500
H 	H 	0.98480 0.54110 0.61000 0.34800
H 	H 	0.96160 0.43420 0.57590 0.35700
C 	C 	0.00660 0.29900 0.66490 -1.13800
H 	H 	0.02640 0.28460 0.66250 0.34600
H 	H 	0.98000 0.26910 0.63090 0.36500
H 	H 	0.01620 0.26720 0.70020 0.35600
C 	C 	0.07980 0.44040 0.73860 0.44200
C 	C 	0.78200 0.15950 0.38290 0.38900
C 	C 	0.75820 0.23070 0.32860 -0.41600
H 	H 	0.72870 0.21340 0.30380 0.14900
C 	C 	0.76130 0.34680 0.33850 0.10000
H 	H 	0.78860 0.36700 0.37620 0.00100
H 	H 	0.74010 0.37210 0.33690 -0.01400
C 	C 	0.75350 0.39010 0.28490 -0.13500
H 	H 	0.72880 0.43510 0.26010 0.06300
H 	H 	0.77710 0.43350 0.29960 0.07000
C 	C 	0.74780 0.30050 0.24900 -0.15500
C 	C 	0.69830 0.28100 0.19630 -0.32000
H 	H 	0.69300 0.22330 0.17170 0.10800
H 	H 	0.68510 0.34490 0.17300 0.10100
H 	H 	0.68740 0.26300 0.21270 0.10700
C 	C 	0.76680 0.20070 0.29080 0.60400
C 	C 	0.75040 0.08990 0.26140 -1.09700
H 	H 	0.72070 0.08730 0.23590 0.35500
H 	H 	0.76340 0.03580 0.29140 0.35700
H 	H 	0.75670 0.07740 0.23850 0.34800
C 	C 	0.81330 0.19760 0.32940 -1.07900
H 	H 	0.82520 0.13720 0.35550 0.34500
H 	H 	0.82580 0.26230 0.35220 0.34800
H 	H 	0.81850 0.19150 0.30480 0.32300
C 	C 	0.76240 0.31630 0.21830 0.35600
N 	N 	0.76220 0.12780 0.82520 -0.23600
N 	N 	0.84930 0.40690 0.83950 -0.13500
N 	N 	0.80390 0.37360 0.74180 -0.10800
N 	N 	0.83126 0.45130 0.75740 -0.09600
N 	N 	0.84310 0.44860 0.69420 -0.10200
N 	N 	0.88480 0.45960 0.72700 -0.11300
N 	N 	0.85370 0.35830 0.64760 -0.24200
N 	N 	0.95690 0.69450 0.93460 -0.20400
N 	N 	0.02260 0.25420 0.97880 -0.17900
N 	N 	0.01730 0.55950 0.87130 -0.14000
N 	N 	0.08086 0.51070 0.91980 -0.09700
N 	N 	0.07270 0.59400 0.88560 -0.10500
N 	N 	0.16205 0.50150 0.05589 -0.10300
N 	N 	0.15388 0.50720 0.00658 -0.10000
C 	C 	0.18178 0.57260 0.01685 0.01600
H 	H 	0.18330 0.59090 0.98990 0.02200
N 	N 	0.20719 0.60740 0.07250 -0.24000
C 	C 	0.19499 0.56340 0.09663 0.06100
H 	H 	0.20730 0.57410 0.13510 -0.02000
N 	N 	0.96120 0.84990 0.71900 -0.23000
N 	N 	0.95460 0.93240 0.61890 -0.21300
N 	N 	0.05140 0.91620 0.58620 -0.14500
N 	N 	0.03020 0.74380 0.57420 -0.10200
N 	N 	0.05620 0.75460 0.56710 -0.09100
N 	N 	0.08870 0.58920 0.58890 -0.09100
N 	N 	0.11810 0.55060 0.59390 -0.10600
C 	C 	0.13920 0.48000 0.63680 0.09700
H 	H 	0.16190 0.44040 0.64970 -0.02800
N 	N 	0.12280 0.47490 0.65820 -0.25300
C 	C 	0.09150 0.54240 0.62860 0.08500
H 	H 	0.07440 0.55490 0.63470 -0.00400
N 	N 	0.13950 0.97220 0.54190 -0.19700
O 	O 	0.70510 0.12510 0.86340 -0.44400
O 	O 	0.66900 0.10430 0.77030 -0.50900
O 	O 	0.68410 0.60520 0.81140 -0.48000
O 	O 	0.69820 0.57540 0.88450 -0.40600
O 	O 	0.80210 0.05020 0.95470 -0.38600
O 	O 	0.79500 0.89270 0.92090 -0.50900
O 	O 	0.97019 0.84080 0.03200 -0.49400
O 	O 	0.96922 0.01840 0.02970 -0.51500
O 	O 	0.05791 0.93020 0.08960 -0.45300
O 	O 	0.06065 0.10780 0.09150 -0.48200
O 	O 	0.12000 0.96110 0.33310 -0.50500
O 	O 	0.11250 0.13270 0.31690 -0.56200
O 	O 	0.87230 0.83110 0.57860 -0.48600
O 	O 	0.81560 0.86090 0.48610 -0.46900
O 	O 	0.73030 0.56460 0.52800 -0.56700
O 	O 	0.69940 0.63340 0.44500 -0.56700
O 	O 	0.92370 0.29990 0.65080 -0.41500
O 	O 	0.90530 0.40140 0.57450 -0.33100
O 	O 	0.11000 0.41220 0.78780 -0.38000
O 	O 	0.08310 0.44810 0.70540 -0.51000
O 	O 	0.81394 0.19760 0.43380 -0.40900
O 	O 	0.77040 0.06620 0.37830 -0.42100
O 	O 	0.78160 0.40270 0.22760 -0.50100
O 	O 	0.75610 0.24030 0.18700 -0.47500
O 	O 	0.87814 0.09960 0.57030 -0.62400
O 	O 	0.69832 0.87380 0.84060 -0.60300
Cd	Cd	0.76190 0.50656 0.14792 1.21000
Cd	Cd	0.76234 0.22798 0.12250 1.20000
Cd	Cd	0.58659 0.47056 0.36149 1.19900
Cd	Cd	0.67833 0.53232 0.51906 1.22900
Cd	Cd	0.64245 0.72198 0.40091 1.20700
Cd	Cd	0.35397 0.90985 0.25510 1.19500
C 	C 	0.75350 0.63970 0.22920 0.06500
H 	H 	0.77670 0.59900 0.25960 -0.00700
C 	C 	0.73770 0.70750 0.24270 -0.15000
H 	H 	0.74920 0.71080 0.28110 0.07400
C 	C 	0.70430 0.77160 0.19880 0.04900
C 	C 	0.68850 0.76500 0.14250 -0.13200
H 	H 	0.66630 0.80810 0.11220 0.07900
C 	C 	0.70610 0.69350 0.13180 0.02600
H 	H 	0.69590 0.69050 0.09420 -0.00300
C 	C 	0.68400 0.84970 0.20690 0.06100
C 	C 	0.67510 0.00480 0.28900 -0.05400
H 	H 	0.70490 0.01250 0.32350 0.06200
H 	H 	0.66310 0.07600 0.27560 0.03900
C 	C 	0.67460 0.89040 0.35360 0.07100
H 	H 	0.70290 0.87480 0.38350 -0.01800
C 	C 	0.61100 0.90220 0.30140 0.05600
H 	H 	0.58510 0.89060 0.28790 -0.00000
C 	C 	0.64170 0.96860 0.18370 0.08600
C 	C 	0.60830 0.04820 0.14640 0.02700
C 	C 	0.58380 0.09080 0.15480 -0.13000
H 	H 	0.58850 0.07080 0.18740 0.07300
C 	C 	0.55220 0.16370 0.11330 0.07100
H 	H 	0.53670 0.19230 0.11990 -0.00000
C 	C 	0.56520 0.14790 0.05640 0.05000
H 	H 	0.55730 0.16180 0.02090 -0.01400
C 	C 	0.59840 0.08130 0.09620 -0.12800
H 	H 	0.61440 0.05810 0.08940 0.06600
C 	C 	0.50850 0.79690 0.07560 0.10600
H 	H 	0.53550 0.77060 0.10030 -0.05500
C 	C 	0.49970 0.87980 0.09450 -0.20400
H 	H 	0.52150 0.91710 0.12890 0.10400
C 	C 	0.45980 0.90730 0.06350 0.13800
C 	C 	0.42800 0.86060 0.00820 -0.31700
H 	H 	0.40020 0.88000 0.98480 0.16600
C 	C 	0.43860 0.78500 0.98930 0.23500
H 	H 	0.41750 0.75410 0.95230 -0.05300
C 	C 	0.45330 0.99080 0.09010 0.07600
C 	C 	0.38010 0.95170 0.04700 0.00300
H 	H 	0.38280 0.88090 0.03750 0.02700
H 	H 	0.37440 0.94360 0.07120 0.04000
C 	C 	0.46590 0.12030 0.14260 0.07100
C 	C 	0.49050 0.20090 0.19010 0.05400
C 	C 	0.53250 0.20860 0.22530 -0.14900
H 	H 	0.54530 0.16430 0.21830 0.07700
C 	C 	0.55570 0.27980 0.27020 0.06400
H 	H 	0.58440 0.28060 0.29470 -0.01500
C 	C 	0.49850 0.34630 0.24650 0.07600
H 	H 	0.48640 0.39680 0.25230 -0.02900
C 	C 	0.47230 0.27060 0.20130 -0.15200
H 	H 	0.44410 0.26680 0.17970 0.07200
C 	C 	0.51940 0.50110 0.37340 0.07500
H 	H 	0.51780 0.57010 0.36090 -0.04200
C 	C 	0.49440 0.47650 0.38270 -0.14300
H 	H 	0.47710 0.52810 0.37740 0.06400
C 	C 	0.49550 0.37500 0.40000 0.04900
C 	C 	0.52220 0.30040 0.40710 -0.12400
H 	H 	0.52360 0.23030 0.41830 0.05900
C 	C 	0.54620 0.33230 0.39730 0.06000
H 	H 	0.56380 0.28240 0.40210 -0.00800
C 	C 	0.47210 0.34510 0.41420 0.07500
C 	C 	0.44361 0.16400 0.46380 -0.02700
H 	H 	0.43470 0.18740 0.48270 0.04700
H 	H 	0.47080 0.13030 0.49300 0.04600
C 	C 	0.43354 0.35630 0.42910 0.07300
C 	C 	0.40759 0.39810 0.43800 0.06700
C 	C 	0.41587 0.48800 0.46340 -0.16900
H 	H 	0.43700 0.53090 0.47380 0.08400
C 	C 	0.39340 0.52070 0.47540 0.08800
H 	H 	0.40230 0.58270 0.49780 -0.02300
C 	C 	0.34910 0.38340 0.42660 0.08000
H 	H 	0.32510 0.34940 0.41230 -0.00800
C 	C 	0.36900 0.33800 0.41350 -0.15600
H 	H 	0.35980 0.27550 0.39150 0.08400
C 	C 	0.68180 0.45960 0.04020 0.29200
C 	C 	0.63650 0.44390 0.98890 -0.06500
C 	C 	0.61140 0.54440 0.95290 -0.23400
H 	H 	0.62310 0.60630 0.97880 0.10600
H 	H 	0.61220 0.55710 0.92350 0.10300
C 	C 	0.56670 0.52580 0.92290 0.18500
H 	H 	0.55650 0.58730 0.92820 -0.02900
H 	H 	0.54860 0.51350 0.88080 -0.05000
C 	C 	0.56830 0.42980 0.95200 -0.47600
H 	H 	0.55830 0.36980 0.92490 0.17500
C 	C 	0.61310 0.40490 0.00760 0.64400
C 	C 	0.62710 0.47570 0.05760 -1.16700
H 	H 	0.65570 0.46050 0.09270 0.36500
H 	H 	0.61000 0.46210 0.06490 0.37300
H 	H 	0.62440 0.54940 0.04680 0.37200
C 	C 	0.62270 0.28890 0.02770 -1.29200
H 	H 	0.61420 0.24400 0.99620 0.43700
H 	H 	0.60780 0.26850 0.03800 0.41100
H 	H 	0.65220 0.28070 0.06170 0.40900
C 	C 	0.63250 0.35870 0.95060 -0.40500
H 	H 	0.64840 0.29660 0.97420 0.13700
H 	H 	0.64300 0.38670 0.93490 0.14500
H 	H 	0.60370 0.33940 0.91850 0.13800
C 	C 	0.54070 0.43120 0.96470 0.46200
C 	C 	0.82350 0.65360 0.18950 0.44500
C 	C 	0.84810 0.75720 0.20250 -0.49100
H 	H 	0.87580 0.75050 0.24300 0.17700
C 	C 	0.85500 0.77720 0.16490 0.17600
H 	H 	0.83460 0.73820 0.12800 -0.02100
H 	H 	0.88260 0.75250 0.18440 -0.03600
C 	C 	0.85120 0.89410 0.15260 -0.16400
H 	H 	0.82640 0.90920 0.11130 0.07600
H 	H 	0.87550 0.92020 0.16160 0.07600
C 	C 	0.84820 0.94710 0.19420 -0.23100
C 	C 	0.82750 0.85670 0.20170 0.70300
C 	C 	0.83320 0.86540 0.25410 -1.25900
H 	H 	0.86250 0.86580 0.28980 0.40400
H 	H 	0.82010 0.80540 0.25460 0.40600
H 	H 	0.82070 0.93060 0.25150 0.39700
C 	C 	0.78030 0.85570 0.14800 -1.17700
H 	H 	0.76840 0.92020 0.14760 0.37300
H 	H 	0.76840 0.79490 0.15040 0.37500
H 	H 	0.77420 0.85140 0.11240 0.38800
C 	C 	0.88930 0.98020 0.25120 -0.07100
H 	H 	0.90750 0.91920 0.27040 0.04200
H 	H 	0.88630 0.00990 0.27600 0.02000
H 	H 	0.90100 0.03320 0.24430 0.02800
C 	C 	0.81960 0.04540 0.16290 0.45000
C 	C 	0.42590 0.51700 0.88420 0.36700
C 	C 	0.38830 0.51640 0.81630 -0.21200
C 	C 	0.37660 0.40720 0.78720 -0.21200
H 	H 	0.35810 0.37100 0.78830 0.08800
H 	H 	0.40160 0.36400 0.80880 0.08200
C 	C 	0.35470 0.41940 0.72210 0.29400
H 	H 	0.36530 0.36820 0.71230 -0.06700
H 	H 	0.32470 0.41070 0.69480 -0.07600
C 	C 	0.36580 0.52960 0.72150 -0.70800
H 	H 	0.34050 0.57250 0.70040 0.23100
C 	C 	0.40010 0.58200 0.78360 1.16000
C 	C 	0.44150 0.55500 0.81250 -2.00700
H 	H 	0.44390 0.47860 0.81230 0.62300
H 	H 	0.46080 0.58030 0.85260 0.62800
H 	H 	0.44760 0.58780 0.79190 0.62000
C 	C 	0.39320 0.69960 0.78190 -1.85000
H 	H 	0.36510 0.71220 0.76320 0.58000
H 	H 	0.39760 0.73490 0.75970 0.59200
H 	H 	0.41240 0.72740 0.82150 0.59300
C 	C 	0.35370 0.57780 0.80150 -0.25800
H 	H 	0.36420 0.64480 0.82230 0.09700
H 	H 	0.34220 0.53740 0.81290 0.09900
H 	H 	0.33240 0.59110 0.75960 0.07500
C 	C 	0.37790 0.54280 0.68670 0.54800
C 	C 	0.66080 0.30290 0.46900 0.41800
C 	C 	0.67720 0.19000 0.47660 -0.15500
C 	C 	0.70240 0.18920 0.45820 0.76600
C 	C 	0.73000 0.08700 0.49280 -0.64200
H 	H 	0.71420 0.02430 0.46750 0.20300
C 	C 	0.73580 0.07880 0.54380 0.29600
H 	H 	0.76490 0.09190 0.57950 -0.06600
H 	H 	0.72890 0.00680 0.54610 -0.08900
C 	C 	0.70870 0.15810 0.54000 -0.25300
H 	H 	0.69550 0.12510 0.55110 0.10300
H 	H 	0.72490 0.21930 0.56550 0.10700
C 	C 	0.64190 0.11540 0.44490 -0.29200
H 	H 	0.65120 0.04390 0.44840 0.09600
H 	H 	0.62060 0.13510 0.40380 0.10600
H 	H 	0.63070 0.11840 0.46180 0.12000
C 	C 	0.67520 0.17190 0.39280 -1.32200
H 	H 	0.65790 0.23380 0.37130 0.42500
H 	H 	0.65780 0.11020 0.37990 0.41500
H 	H 	0.69250 0.16070 0.38570 0.42800
C 	C 	0.72710 0.28940 0.47710 -1.32800
H 	H 	0.70840 0.34890 0.45480 0.41400
H 	H 	0.74450 0.28260 0.47000 0.40700
H 	H 	0.74410 0.30130 0.51850 0.42200
C 	C 	0.76880 0.09270 0.50690 0.61800
C 	C 	0.56880 0.87400 0.37120 0.35700
C 	C 	0.53040 0.93660 0.32950 -0.35900
H 	H 	0.53850 0.01220 0.33890 0.12200
C 	C 	0.50490 0.92290 0.26450 0.08200
H 	H 	0.51090 0.98070 0.25090 0.01100
H 	H 	0.51210 0.85570 0.25800 0.00300
C 	C 	0.45940 0.92350 0.23030 -0.17800
H 	H 	0.44800 0.85160 0.21840 0.07100
H 	H 	0.44370 0.96810 0.19530 0.10300
C 	C 	0.45850 0.97030 0.27460 -0.10600
C 	C 	0.45930 0.08690 0.28000 -0.42000
H 	H 	0.45820 0.10540 0.30830 0.14300
H 	H 	0.43570 0.11730 0.24220 0.15400
H 	H 	0.48460 0.11440 0.29310 0.14300
C 	C 	0.49760 0.91690 0.33360 0.56400
C 	C 	0.51210 0.96510 0.39000 -1.01400
H 	H 	0.49180 0.95000 0.39130 0.33500
H 	H 	0.51520 0.04110 0.39000 0.31500
H 	H 	0.53840 0.93420 0.42410 0.34100
C 	C 	0.49340 0.79900 0.33510 -1.07000
H 	H 	0.47360 0.78460 0.33750 0.32700
H 	H 	0.52000 0.76910 0.36910 0.34100
H 	H 	0.48380 0.76720 0.29980 0.33800
C 	C 	0.42020 0.94040 0.26140 0.42800
C 	C 	0.71800 0.65950 0.61710 0.38900
C 	C 	0.74180 0.73070 0.67140 -0.41900
H 	H 	0.77130 0.71340 0.69620 0.15000
C 	C 	0.73870 0.84680 0.66150 0.10200
H 	H 	0.71140 0.86700 0.62380 0.00300
H 	H 	0.75990 0.87210 0.66310 -0.01100
C 	C 	0.74650 0.89010 0.71510 -0.14000
H 	H 	0.77120 0.93510 0.73990 0.07000
H 	H 	0.72290 0.93350 0.70040 0.07500
C 	C 	0.75220 0.80050 0.75100 -0.15300
C 	C 	0.80170 0.78100 0.80370 -0.32600
H 	H 	0.80700 0.72330 0.82830 0.11200
H 	H 	0.81490 0.84490 0.82700 0.10500
H 	H 	0.81260 0.76300 0.78730 0.11000
C 	C 	0.73320 0.70070 0.70920 0.61200
C 	C 	0.74960 0.58990 0.73860 -1.11700
H 	H 	0.77930 0.58730 0.76410 0.36400
H 	H 	0.73660 0.53580 0.70860 0.36800
H 	H 	0.74330 0.57740 0.76150 0.35700
C 	C 	0.68670 0.69760 0.67060 -1.09200
H 	H 	0.67480 0.63720 0.64450 0.35100
H 	H 	0.67420 0.76230 0.64780 0.35300
H 	H 	0.68150 0.69150 0.69520 0.32800
C 	C 	0.73760 0.81630 0.78170 0.35500
N 	N 	0.73780 0.62780 0.17480 -0.23500
N 	N 	0.65070 0.90690 0.16050 -0.13600
N 	N 	0.69610 0.87360 0.25820 -0.10500
N 	N 	0.66874 0.95130 0.24260 -0.08800
N 	N 	0.65690 0.94860 0.30580 -0.09000
N 	N 	0.61520 0.95960 0.27300 -0.10900
N 	N 	0.64630 0.85830 0.35240 -0.24000
N 	N 	0.54310 0.19450 0.06540 -0.21300
N 	N 	0.47740 0.75420 0.02120 -0.25800
N 	N 	0.48270 0.05950 0.12870 -0.14400
N 	N 	0.41914 0.01070 0.08020 -0.11000
N 	N 	0.42730 0.09400 0.11440 -0.10900
N 	N 	0.33795 0.00150 0.94411 -0.10500
N 	N 	0.34612 0.00720 0.99342 -0.10000
C 	C 	0.31822 0.07260 0.98315 0.12600
H 	H 	0.31670 0.09090 0.01010 -0.05500
N 	N 	0.29281 0.10740 0.92750 -0.25400
C 	C 	0.30501 0.06340 0.90337 0.06300
H 	H 	0.29270 0.07410 0.86490 -0.02200
N 	N 	0.53880 0.34990 0.28100 -0.23900
N 	N 	0.54540 0.43240 0.38110 -0.23900
N 	N 	0.44860 0.41620 0.41380 -0.14300
N 	N 	0.46980 0.24380 0.42580 -0.09800
N 	N 	0.44380 0.25460 0.43290 -0.08600
N 	N 	0.41130 0.08920 0.41110 -0.08900
N 	N 	0.38190 0.05060 0.40610 -0.11800
C 	C 	0.36080 0.98000 0.36320 0.11900
H 	H 	0.33810 0.94040 0.35030 -0.03300
N 	N 	0.37720 0.97490 0.34180 -0.24400
C 	C 	0.40850 0.04240 0.37140 0.06600
H 	H 	0.42560 0.05490 0.36530 -0.00100
N 	N 	0.36050 0.47220 0.45810 -0.22900
O 	O 	0.79490 0.62510 0.13660 -0.44700
O 	O 	0.83100 0.60430 0.22970 -0.50400
O 	O 	0.81590 0.10520 0.18860 -0.48900
O 	O 	0.80180 0.07540 0.11550 -0.42600
O 	O 	0.69790 0.55020 0.04530 -0.37200
O 	O 	0.70500 0.39270 0.07910 -0.49700
O 	O 	0.52981 0.34080 0.96800 -0.47000
O 	O 	0.53078 0.51840 0.97030 -0.47800
O 	O 	0.44209 0.43020 0.91040 -0.45500
O 	O 	0.43935 0.60780 0.90850 -0.46900
O 	O 	0.38000 0.46110 0.66690 -0.51800
O 	O 	0.38750 0.63270 0.68310 -0.55900
O 	O 	0.62770 0.33110 0.42140 -0.48800
O 	O 	0.68440 0.36090 0.51390 -0.47400
O 	O 	0.76970 0.06460 0.47200 -0.57100
O 	O 	0.80060 0.13340 0.55500 -0.56900
O 	O 	0.57630 0.79990 0.34920 -0.41000
O 	O 	0.59470 0.90140 0.42550 -0.31900
O 	O 	0.39000 0.91220 0.21220 -0.37500
O 	O 	0.41690 0.94810 0.29460 -0.49800
O 	O 	0.68606 0.69760 0.56620 -0.40700
O 	O 	0.72960 0.56620 0.62170 -0.41500
O 	O 	0.71840 0.90270 0.77240 -0.49500
O 	O 	0.74390 0.74030 0.81300 -0.47100
O 	O 	0.62186 0.59960 0.42970 -0.61700
O 	O 	0.80168 0.37380 0.15940 -0.61300
Cd	Cd	0.26190 0.00656 0.14792 1.20500
Cd	Cd	0.26234 0.72798 0.12250 1.20000
Cd	Cd	0.08659 0.97056 0.36149 1.20300
Cd	Cd	0.17833 0.03232 0.51906 1.22400
Cd	Cd	0.14245 0.22198 0.40091 1.20600
Cd	Cd	0.85397 0.40985 0.25510 1.19300
C 	C 	0.25350 0.13970 0.22920 0.06400
H 	H 	0.27670 0.09900 0.25960 -0.01200
C 	C 	0.23770 0.20750 0.24270 -0.15100
H 	H 	0.24920 0.21080 0.28110 0.07200
C 	C 	0.20430 0.27160 0.19880 0.04700
C 	C 	0.18850 0.26500 0.14250 -0.13200
H 	H 	0.16630 0.30810 0.11220 0.07600
C 	C 	0.20610 0.19350 0.13180 0.02500
H 	H 	0.19590 0.19050 0.09420 -0.00400
C 	C 	0.18400 0.34970 0.20690 0.05900
C 	C 	0.17510 0.50480 0.28900 -0.02300
H 	H 	0.20490 0.51250 0.32350 0.05800
H 	H 	0.16310 0.57600 0.27560 0.03300
C 	C 	0.17460 0.39040 0.35360 0.06900
H 	H 	0.20290 0.37480 0.38350 -0.02100
C 	C 	0.11100 0.40220 0.30140 0.05200
H 	H 	0.08510 0.39060 0.28790 -0.00200
C 	C 	0.14170 0.46860 0.18370 0.06300
C 	C 	0.10830 0.54820 0.14640 0.05400
C 	C 	0.08380 0.59080 0.15480 -0.14400
H 	H 	0.08850 0.57080 0.18740 0.08200
C 	C 	0.05220 0.66370 0.11330 0.08100
H 	H 	0.03670 0.69230 0.11990 -0.00500
C 	C 	0.06520 0.64790 0.05640 0.06000
H 	H 	0.05730 0.66180 0.02090 -0.01600
C 	C 	0.09840 0.58130 0.09620 -0.14200
H 	H 	0.11440 0.55810 0.08940 0.07600
C 	C 	0.00850 0.29690 0.07560 0.05900
H 	H 	0.03550 0.27060 0.10030 -0.04200
C 	C 	0.99970 0.37980 0.09450 -0.15100
H 	H 	0.02150 0.41710 0.12890 0.07500
C 	C 	0.95980 0.40730 0.06350 0.11600
C 	C 	0.92800 0.36060 0.00820 -0.29400
H 	H 	0.90020 0.38000 0.98480 0.15400
C 	C 	0.93860 0.28500 0.98930 0.21500
H 	H 	0.91750 0.25410 0.95230 -0.04600
C 	C 	0.95330 0.49080 0.09010 0.05600
C 	C 	0.88010 0.45170 0.04700 -0.03200
H 	H 	0.88280 0.38090 0.03750 0.03600
H 	H 	0.87440 0.44360 0.07120 0.04500
C 	C 	0.96590 0.62030 0.14260 0.06900
C 	C 	0.99050 0.70090 0.19010 0.07800
C 	C 	0.03250 0.70860 0.22530 -0.17400
H 	H 	0.04530 0.66430 0.21830 0.08700
C 	C 	0.05570 0.77980 0.27020 0.07600
H 	H 	0.08440 0.78060 0.29470 -0.01900
C 	C 	0.99850 0.84630 0.24650 0.09400
H 	H 	0.98640 0.89680 0.25230 -0.02900
C 	C 	0.97230 0.77060 0.20130 -0.16400
H 	H 	0.94410 0.76680 0.17970 0.07900
C 	C 	0.01940 0.00110 0.37340 -0.02200
H 	H 	0.01780 0.07010 0.36090 -0.01500
C 	C 	0.99440 0.97650 0.38270 -0.02700
H 	H 	0.97710 0.02810 0.37740 0.01600
C 	C 	0.99550 0.87500 0.40000 0.01200
C 	C 	0.02220 0.80040 0.40710 -0.10300
H 	H 	0.02360 0.73030 0.41830 0.04800
C 	C 	0.04620 0.83230 0.39730 0.04300
H 	H 	0.06380 0.78240 0.40210 -0.00200
C 	C 	0.97210 0.84510 0.41420 0.09300
C 	C 	0.94361 0.66400 0.46380 -0.02500
H 	H 	0.93470 0.68740 0.48270 0.04800
H 	H 	0.97080 0.63030 0.49300 0.05000
C 	C 	0.93354 0.85630 0.42910 0.09500
C 	C 	0.90759 0.89810 0.43800 0.00900
C 	C 	0.91587 0.98800 0.46340 -0.04400
H 	H 	0.93700 0.03090 0.47380 0.02900
C 	C 	0.89340 0.02070 0.47540 -0.01000
H 	H 	0.90230 0.08270 0.49780 0.00800
C 	C 	0.84910 0.88340 0.42660 0.05900
H 	H 	0.82510 0.84940 0.41230 0.00200
C 	C 	0.86900 0.83800 0.41350 -0.11800
H 	H 	0.85980 0.77550 0.39150 0.07200
C 	C 	0.18180 0.95960 0.04020 0.30300
C 	C 	0.13650 0.94390 0.98890 -0.03800
C 	C 	0.11140 0.04440 0.95290 -0.25200
H 	H 	0.12310 0.10630 0.97880 0.11000
H 	H 	0.11220 0.05710 0.92350 0.10300
C 	C 	0.06670 0.02580 0.92290 0.16800
H 	H 	0.05650 0.08730 0.92820 -0.02700
H 	H 	0.04860 0.01350 0.88080 -0.05300
C 	C 	0.06830 0.92980 0.95200 -0.44900
H 	H 	0.05830 0.86980 0.92490 0.16800
C 	C 	0.11310 0.90490 0.00760 0.60400
C 	C 	0.12710 0.97570 0.05760 -1.06800
H 	H 	0.15570 0.96050 0.09270 0.34000
H 	H 	0.11000 0.96210 0.06490 0.34900
H 	H 	0.12440 0.04940 0.04680 0.33300
C 	C 	0.12270 0.78890 0.02770 -1.25000
H 	H 	0.11420 0.74400 0.99620 0.42400
H 	H 	0.10780 0.76850 0.03800 0.39900
H 	H 	0.15220 0.78070 0.06170 0.39700
C 	C 	0.13250 0.85870 0.95060 -0.43300
H 	H 	0.14840 0.79660 0.97420 0.14600
H 	H 	0.14300 0.88670 0.93490 0.15700
H 	H 	0.10370 0.83940 0.91850 0.15000
C 	C 	0.04070 0.93120 0.96470 0.47300
C 	C 	0.32350 0.15360 0.18950 0.44400
C 	C 	0.34810 0.25720 0.20250 -0.48300
H 	H 	0.37580 0.25050 0.24300 0.17300
C 	C 	0.35500 0.27720 0.16490 0.18700
H 	H 	0.33460 0.23820 0.12800 -0.02600
H 	H 	0.38260 0.25250 0.18440 -0.04300
C 	C 	0.35120 0.39410 0.15260 -0.19500
H 	H 	0.32640 0.40920 0.11130 0.08100
H 	H 	0.37550 0.42020 0.16160 0.08100
C 	C 	0.34820 0.44710 0.19420 -0.17700
C 	C 	0.32750 0.35670 0.20170 0.66400
C 	C 	0.33320 0.36540 0.25410 -1.20900
H 	H 	0.36250 0.36580 0.28980 0.38500
H 	H 	0.32010 0.30540 0.25460 0.39100
H 	H 	0.32070 0.43060 0.25150 0.37600
C 	C 	0.28030 0.35570 0.14800 -1.13100
H 	H 	0.26840 0.42020 0.14760 0.35300
H 	H 	0.26840 0.29490 0.15040 0.36000
H 	H 	0.27420 0.35140 0.11240 0.37100
C 	C 	0.38930 0.48020 0.25120 -0.26500
H 	H 	0.40750 0.41920 0.27040 0.09600
H 	H 	0.38630 0.50990 0.27600 0.09000
H 	H 	0.40100 0.53320 0.24430 0.09600
C 	C 	0.31960 0.54540 0.16290 0.44300
C 	C 	0.92590 0.01700 0.88420 0.35900
C 	C 	0.88830 0.01640 0.81630 -0.25500
C 	C 	0.87660 0.90720 0.78720 -0.19000
H 	H 	0.85810 0.87100 0.78830 0.08500
H 	H 	0.90160 0.86400 0.80880 0.07600
C 	C 	0.85470 0.91940 0.72210 0.32400
H 	H 	0.86530 0.86820 0.71230 -0.07400
H 	H 	0.82470 0.91070 0.69480 -0.08100
C 	C 	0.86580 0.02960 0.72150 -0.75700
H 	H 	0.84050 0.07250 0.70040 0.24300
C 	C 	0.90010 0.08200 0.78360 1.24600
C 	C 	0.94150 0.05500 0.81250 -2.18200
H 	H 	0.94390 0.97860 0.81230 0.68700
H 	H 	0.96080 0.08030 0.85260 0.67900
H 	H 	0.94760 0.08780 0.79190 0.67000
C 	C 	0.89320 0.19960 0.78190 -1.94900
H 	H 	0.86510 0.21220 0.76320 0.61000
H 	H 	0.89760 0.23490 0.75970 0.62100
H 	H 	0.91240 0.22740 0.82150 0.62300
C 	C 	0.85370 0.07780 0.80150 -0.20600
H 	H 	0.86420 0.14480 0.82230 0.08000
H 	H 	0.84220 0.03740 0.81290 0.07900
H 	H 	0.83240 0.09110 0.75960 0.05500
C 	C 	0.87790 0.04280 0.68670 0.54000
C 	C 	0.16080 0.80290 0.46900 0.41600
C 	C 	0.17720 0.69000 0.47660 -0.15300
C 	C 	0.20240 0.68920 0.45820 0.77400
C 	C 	0.23000 0.58700 0.49280 -0.64500
H 	H 	0.21420 0.52430 0.46750 0.20900
C 	C 	0.23580 0.57880 0.54380 0.29700
H 	H 	0.26490 0.59190 0.57950 -0.06400
H 	H 	0.22890 0.50680 0.54610 -0.08400
C 	C 	0.20870 0.65810 0.54000 -0.25600
H 	H 	0.19550 0.62510 0.55110 0.10600
H 	H 	0.22490 0.71930 0.56550 0.10900
C 	C 	0.14190 0.61540 0.44490 -0.30300
H 	H 	0.15120 0.54390 0.44840 0.10400
H 	H 	0.12060 0.63510 0.40380 0.11100
H 	H 	0.13070 0.61840 0.46180 0.12500
C 	C 	0.17520 0.67190 0.39280 -1.33700
H 	H 	0.15790 0.73380 0.37130 0.43000
H 	H 	0.15780 0.61020 0.37990 0.42200
H 	H 	0.19250 0.66070 0.38570 0.43400
C 	C 	0.22710 0.78940 0.47710 -1.34500
H 	H 	0.20840 0.84890 0.45480 0.42300
H 	H 	0.24450 0.78260 0.47000 0.41400
H 	H 	0.24410 0.80130 0.51850 0.42900
C 	C 	0.26880 0.59270 0.50690 0.62100
C 	C 	0.06880 0.37400 0.37120 0.37500
C 	C 	0.03040 0.43660 0.32950 -0.42500
H 	H 	0.03850 0.51220 0.33890 0.15300
C 	C 	0.00490 0.42290 0.26450 0.08700
H 	H 	0.01090 0.48070 0.25090 0.00100
H 	H 	0.01210 0.35570 0.25800 -0.00200
C 	C 	0.95940 0.42350 0.23030 -0.14100
H 	H 	0.94800 0.35160 0.21840 0.06000
H 	H 	0.94370 0.46810 0.19530 0.08800
C 	C 	0.95850 0.47030 0.27460 -0.18000
C 	C 	0.95930 0.58690 0.28000 -0.31600
H 	H 	0.95820 0.60540 0.30830 0.11600
H 	H 	0.93570 0.61730 0.24220 0.12900
H 	H 	0.98460 0.61440 0.29310 0.11700
C 	C 	0.99760 0.41690 0.33360 0.66000
C 	C 	0.01210 0.46510 0.39000 -1.21500
H 	H 	0.99180 0.45000 0.39130 0.39500
H 	H 	0.01520 0.54110 0.39000 0.38300
H 	H 	0.03840 0.43420 0.42410 0.39400
C 	C 	0.99340 0.29900 0.33510 -1.14000
H 	H 	0.97360 0.28460 0.33750 0.34900
H 	H 	0.02000 0.26910 0.36910 0.35500
H 	H 	0.98380 0.26720 0.29980 0.36100
C 	C 	0.92020 0.44040 0.26140 0.45300
C 	C 	0.21800 0.15950 0.61710 0.38900
C 	C 	0.24180 0.23070 0.67140 -0.41600
H 	H 	0.27130 0.21340 0.69620 0.14900
C 	C 	0.23870 0.34680 0.66150 0.10000
H 	H 	0.21140 0.36700 0.62380 0.00000
H 	H 	0.25990 0.37210 0.66310 -0.01400
C 	C 	0.24650 0.39010 0.71510 -0.13500
H 	H 	0.27120 0.43510 0.73990 0.06300
H 	H 	0.22290 0.43350 0.70040 0.07000
C 	C 	0.25220 0.30050 0.75100 -0.15500
C 	C 	0.30170 0.28100 0.80370 -0.32000
H 	H 	0.30700 0.22330 0.82830 0.10900
H 	H 	0.31490 0.34490 0.82700 0.10000
H 	H 	0.31260 0.26300 0.78730 0.10700
C 	C 	0.23320 0.20070 0.70920 0.60300
C 	C 	0.24960 0.08990 0.73860 -1.09600
H 	H 	0.27930 0.08730 0.76410 0.35500
H 	H 	0.23660 0.03580 0.70860 0.35700
H 	H 	0.24330 0.07740 0.76150 0.34800
C 	C 	0.18670 0.19760 0.67060 -1.07800
H 	H 	0.17480 0.13720 0.64450 0.34400
H 	H 	0.17420 0.26230 0.64780 0.34700
H 	H 	0.18150 0.19150 0.69520 0.32200
C 	C 	0.23760 0.31630 0.78170 0.35600
N 	N 	0.23780 0.12780 0.17480 -0.23700
N 	N 	0.15070 0.40690 0.16050 -0.13600
N 	N 	0.19610 0.37360 0.25820 -0.10800
N 	N 	0.16874 0.45130 0.24260 -0.09600
N 	N 	0.15690 0.44860 0.30580 -0.10200
N 	N 	0.11520 0.45960 0.27300 -0.11400
N 	N 	0.14630 0.35830 0.35240 -0.24200
N 	N 	0.04310 0.69450 0.06540 -0.21700
N 	N 	0.97740 0.25420 0.02120 -0.24200
N 	N 	0.98270 0.55950 0.12870 -0.12800
N 	N 	0.91914 0.51070 0.08020 -0.09000
N 	N 	0.92730 0.59400 0.11440 -0.10500
N 	N 	0.83795 0.50150 0.94411 -0.10000
N 	N 	0.84612 0.50720 0.99342 -0.08900
C 	C 	0.81822 0.57260 0.98315 0.12300
H 	H 	0.81670 0.59090 0.01010 -0.05000
N 	N 	0.79281 0.60740 0.92750 -0.25200
C 	C 	0.80501 0.56340 0.90337 0.06600
H 	H 	0.79270 0.57410 0.86490 -0.02000
N 	N 	0.03880 0.84990 0.28100 -0.24700
N 	N 	0.04540 0.93240 0.38110 -0.21200
N 	N 	0.94860 0.91620 0.41380 -0.14400
N 	N 	0.96980 0.74380 0.42580 -0.09800
N 	N 	0.94380 0.75460 0.43290 -0.09000
N 	N 	0.91130 0.58920 0.41110 -0.09100
N 	N 	0.88190 0.55060 0.40610 -0.10600
C 	C 	0.86080 0.48000 0.36320 0.09700
H 	H 	0.83810 0.44040 0.35030 -0.02800
N 	N 	0.87720 0.47490 0.34180 -0.25300
C 	C 	0.90850 0.54240 0.37140 0.08600
H 	H 	0.92560 0.55490 0.36530 -0.00300
N 	N 	0.86050 0.97220 0.45810 -0.19700
O 	O 	0.29490 0.12510 0.13660 -0.45000
O 	O 	0.33100 0.10430 0.22970 -0.50900
O 	O 	0.31590 0.60520 0.18860 -0.48300
O 	O 	0.30180 0.57540 0.11550 -0.41700
O 	O 	0.19790 0.05020 0.04530 -0.38600
O 	O 	0.20500 0.89270 0.07910 -0.49400
O 	O 	0.02981 0.84080 0.96800 -0.47300
O 	O 	0.03078 0.01840 0.97030 -0.49600
O 	O 	0.94209 0.93020 0.91040 -0.43900
O 	O 	0.93935 0.10780 0.90850 -0.46900
O 	O 	0.88000 0.96110 0.66690 -0.50500
O 	O 	0.88750 0.13270 0.68310 -0.56200
O 	O 	0.12770 0.83110 0.42140 -0.48600
O 	O 	0.18440 0.86090 0.51390 -0.46900
O 	O 	0.26970 0.56460 0.47200 -0.56700
O 	O 	0.30060 0.63340 0.55500 -0.56700
O 	O 	0.07630 0.29990 0.34920 -0.41700
O 	O 	0.09470 0.40140 0.42550 -0.33400
O 	O 	0.89000 0.41220 0.21220 -0.38500
O 	O 	0.91690 0.44810 0.29460 -0.51500
O 	O 	0.18606 0.19760 0.56620 -0.40900
O 	O 	0.22960 0.06620 0.62170 -0.42100
O 	O 	0.21840 0.40270 0.77240 -0.50100
O 	O 	0.24390 0.24030 0.81300 -0.47300
O 	O 	0.12186 0.09960 0.42970 -0.62400
O 	O 	0.30168 0.87380 0.15940 -0.60800
Cd	Cd	0.50000 0.34274 -0.00000 1.21100
Cd	Cd	0.50000 0.60308 -0.00000 1.20700
Cd	Cd	0.00000 0.84274 -0.00000 1.21000
Cd	Cd	-0.00000 0.10308 -0.00000 1.20300
