data_crystal

_cell_length_a 25.51690
_cell_length_b 25.51690
_cell_length_c 33.72900
_cell_angle_alpha 90.00000
_cell_angle_beta  90.00000
_cell_angle_gamma 90.00000

_symmetry_space_group_name_	'P 1'
_symmetry_space_group_name_H-M	'P 1'

loop_
_symmetry_equiv_pos_as_xyz
  x,y,z

loop_
_atom_site_label
_atom_site_type_symbol
_atom_site_fract_x
_atom_site_fract_y
_atom_site_fract_z
_atom_site_charge
Cu	Cu	0.84217 0.75178 0.78115 0.90000
Cu	Cu	0.88076 0.81267 0.83704 0.90100
O 	O 	0.13941 0.60758 0.95914 -0.37800
O 	O 	0.03273 0.58143 0.95891 -0.36900
O 	O 	0.77841 0.75601 0.81464 -0.39900
O 	O 	0.90203 0.74494 0.86047 -0.39600
O 	O 	0.85276 0.87103 0.80564 -0.39500
O 	O 	0.11900 0.69270 0.95993 -0.38600
O 	O 	0.86573 0.69332 0.81383 -0.39800
C 	C 	0.77580 0.78020 0.84729 0.31500
O 	O 	0.82362 0.81909 0.75675 -0.40000
O 	O 	0.81238 0.80563 0.86331 -0.39000
O 	O 	0.59910 0.70620 0.86855 -0.37500
O 	O 	0.10940 0.50550 0.00420 -0.04400
C 	C 	0.82960 0.86300 0.77320 0.33100
O 	O 	0.89470 0.51378 0.85986 -0.18900
C 	C 	0.78540 0.05290 0.77172 0.33500
C 	C 	0.00780 0.62200 0.94727 0.32200
C 	C 	0.89070 0.70130 0.84586 0.32500
C 	C 	0.65440 0.85520 0.94787 0.32500
C 	C 	0.72420 0.77870 0.86833 0.00600
C 	C 	0.96660 0.61460 0.91613 -0.01000
C 	C 	0.90990 0.65370 0.86752 -0.01300
C 	C 	0.78680 0.00100 0.75121 -0.01500
C 	C 	0.80840 0.90960 0.75193 -0.01600
C 	C 	0.94620 0.65890 0.89792 -0.04300
H 	H 	0.95690 0.69200 0.90610 0.07800
C 	C 	0.91220 0.46680 0.87730 -0.15200
H 	H 	0.90270 0.46590 0.90510 0.09600
H 	H 	0.95010 0.46420 0.87530 0.08900
C 	C 	0.66520 0.81420 0.91698 0.00700
C 	C 	0.91370 0.56030 0.87414 0.18300
C 	C 	0.76340 0.99500 0.71430 -0.13400
H 	H 	0.74810 0.02370 0.70180 0.10400
C 	C 	0.76260 0.94620 0.69600 0.18400
C 	C 	0.78430 0.90310 0.71510 -0.12700
H 	H 	0.78260 0.87010 0.70350 0.09700
O 	O 	0.73740 0.94100 0.66070 -0.21400
C 	C 	0.63830 0.74120 0.87670 0.25900
C 	C 	0.71420 0.81470 0.89818 -0.06200
H 	H 	0.73970 0.83890 0.90560 0.08400
C 	C 	0.81040 0.95860 0.76970 -0.03600
H 	H 	0.82750 0.96300 0.79380 0.07500
C 	C 	0.68660 0.74230 0.85701 -0.18500
H 	H 	0.69350 0.71880 0.83650 0.11100
C 	C 	0.95040 0.56470 0.90433 -0.13800
H 	H 	0.96390 0.53490 0.91650 0.10100
C 	C 	0.62740 0.77780 0.90628 -0.17000
H 	H 	0.59490 0.77770 0.91880 0.12000
C 	C 	0.88720 0.42260 0.85610 0.24000
H 	H 	0.89540 0.38920 0.86510 -0.04400
C 	C 	0.56290 0.63330 0.83580 -1.23500
H 	H 	0.53130 0.64680 0.84510 0.47500
C 	C 	0.89360 0.60450 0.85560 -0.13200
H 	H 	0.86930 0.60100 0.83520 0.10800
C 	C 	0.60900 0.66920 0.83830 0.76400
H 	H 	0.64040 0.64930 0.84430 -0.18200
H 	H 	0.61410 0.68690 0.81310 -0.17400
C 	C 	0.85510 0.42520 0.82610 -0.45600
H 	H 	0.84560 0.45770 0.81580 0.21100
H 	H 	0.84170 0.39470 0.81500 0.19600
C 	C 	0.10400 0.40030 0.99490 -0.07900
N 	N 	0.14420 0.42610 0.01630 -0.12700
C 	C 	0.18230 0.39180 0.03240 0.01000
O 	O 	0.01500 0.66751 0.95934 -0.38900
C 	C 	0.56140 0.59110 0.82390 1.31900
H 	H 	0.59160 0.57540 0.81410 -0.39400
H 	H 	0.52990 0.57280 0.82400 -0.40700
O 	O 	0.75706 0.08801 0.75685 -0.39400
O 	O 	0.81154 0.05685 0.80328 -0.40000
C 	C 	0.71890 0.96450 0.58730 -0.37100
H 	H 	0.72590 0.98860 0.60720 0.18800
H 	H 	0.70890 0.97610 0.56220 0.16500
C 	C 	0.72310 0.91420 0.59440 0.15600
H 	H 	0.71630 0.88910 0.57510 -0.01900
C 	C 	0.73960 0.89940 0.63600 -0.06200
H 	H 	0.71680 0.87190 0.64590 0.06400
H 	H 	0.77510 0.88570 0.63550 0.06400
C 	C 	0.14570 0.47960 0.01870 0.03500
Cu	Cu	0.15783 0.24822 0.78115 0.90100
Cu	Cu	0.11924 0.18733 0.83704 0.90200
O 	O 	0.86059 0.39242 0.95914 -0.37700
O 	O 	0.96727 0.41857 0.95891 -0.36800
O 	O 	0.22159 0.24399 0.81464 -0.39900
O 	O 	0.09797 0.25506 0.86047 -0.39600
O 	O 	0.14724 0.12897 0.80564 -0.39500
O 	O 	0.88100 0.30730 0.95993 -0.38600
O 	O 	0.13427 0.30668 0.81383 -0.39800
C 	C 	0.22420 0.21980 0.84729 0.31500
O 	O 	0.17638 0.18091 0.75675 -0.40000
O 	O 	0.18762 0.19437 0.86331 -0.39000
O 	O 	0.40090 0.29380 0.86855 -0.37500
O 	O 	0.89060 0.49450 0.00420 -0.04400
C 	C 	0.17040 0.13700 0.77320 0.33100
O 	O 	0.10530 0.48622 0.85986 -0.18900
C 	C 	0.21460 0.94710 0.77172 0.33500
C 	C 	0.99220 0.37800 0.94727 0.32200
C 	C 	0.10930 0.29870 0.84586 0.32500
C 	C 	0.34560 0.14480 0.94787 0.32500
C 	C 	0.27580 0.22130 0.86833 0.00600
C 	C 	0.03340 0.38540 0.91613 -0.01000
C 	C 	0.09010 0.34630 0.86752 -0.01300
C 	C 	0.21320 0.99900 0.75121 -0.01500
C 	C 	0.19160 0.09040 0.75193 -0.01600
C 	C 	0.05380 0.34110 0.89792 -0.04300
H 	H 	0.04310 0.30800 0.90610 0.07800
C 	C 	0.08780 0.53320 0.87730 -0.15200
H 	H 	0.09730 0.53410 0.90510 0.09600
H 	H 	0.04990 0.53580 0.87530 0.08900
C 	C 	0.33480 0.18580 0.91698 0.00700
C 	C 	0.08630 0.43970 0.87414 0.18300
C 	C 	0.23660 0.00500 0.71430 -0.13400
H 	H 	0.25190 0.97630 0.70180 0.10400
C 	C 	0.23740 0.05380 0.69600 0.18400
C 	C 	0.21570 0.09690 0.71510 -0.12700
H 	H 	0.21740 0.12990 0.70350 0.09700
O 	O 	0.26260 0.05900 0.66070 -0.21400
C 	C 	0.36170 0.25880 0.87670 0.25900
C 	C 	0.28580 0.18530 0.89818 -0.06200
H 	H 	0.26030 0.16110 0.90560 0.08400
C 	C 	0.18960 0.04140 0.76970 -0.03600
H 	H 	0.17250 0.03700 0.79380 0.07500
C 	C 	0.31340 0.25770 0.85701 -0.18500
H 	H 	0.30650 0.28120 0.83650 0.11100
C 	C 	0.04960 0.43530 0.90433 -0.13800
H 	H 	0.03610 0.46510 0.91650 0.10100
C 	C 	0.37260 0.22220 0.90628 -0.17000
H 	H 	0.40510 0.22230 0.91880 0.12000
C 	C 	0.11280 0.57740 0.85610 0.24000
H 	H 	0.10460 0.61080 0.86510 -0.04400
C 	C 	0.43710 0.36670 0.83580 -1.23500
H 	H 	0.46870 0.35320 0.84510 0.47500
C 	C 	0.10640 0.39550 0.85560 -0.13200
H 	H 	0.13070 0.39900 0.83520 0.10800
C 	C 	0.39100 0.33080 0.83830 0.76400
H 	H 	0.35960 0.35070 0.84430 -0.18200
H 	H 	0.38590 0.31310 0.81310 -0.17400
C 	C 	0.14490 0.57480 0.82610 -0.45600
H 	H 	0.15440 0.54230 0.81580 0.21100
H 	H 	0.15830 0.60530 0.81500 0.19600
C 	C 	0.89600 0.59970 0.99490 -0.07900
N 	N 	0.85580 0.57390 0.01630 -0.12700
C 	C 	0.81770 0.60820 0.03240 0.01000
O 	O 	0.98500 0.33249 0.95934 -0.38900
C 	C 	0.43860 0.40890 0.82390 1.31900
H 	H 	0.40840 0.42460 0.81410 -0.39400
H 	H 	0.47010 0.42720 0.82400 -0.40700
O 	O 	0.24294 0.91199 0.75685 -0.39400
O 	O 	0.18846 0.94315 0.80328 -0.40000
C 	C 	0.28110 0.03550 0.58730 -0.37100
H 	H 	0.27410 0.01140 0.60720 0.18800
H 	H 	0.29110 0.02390 0.56220 0.16500
C 	C 	0.27690 0.08580 0.59440 0.15600
H 	H 	0.28370 0.11090 0.57510 -0.01900
C 	C 	0.26040 0.10060 0.63600 -0.06200
H 	H 	0.28320 0.12810 0.64590 0.06400
H 	H 	0.22490 0.11430 0.63550 0.06400
C 	C 	0.85430 0.52040 0.01870 0.03500
Cu	Cu	0.24822 0.84217 0.78115 0.90100
Cu	Cu	0.18733 0.88076 0.83704 0.90200
O 	O 	0.39242 0.13941 0.95914 -0.37700
O 	O 	0.41857 0.03273 0.95891 -0.36800
O 	O 	0.24399 0.77841 0.81464 -0.39900
O 	O 	0.25506 0.90203 0.86047 -0.39600
O 	O 	0.12897 0.85276 0.80564 -0.39500
O 	O 	0.30730 0.11900 0.95993 -0.38600
O 	O 	0.30668 0.86573 0.81383 -0.39800
C 	C 	0.21980 0.77580 0.84729 0.31500
O 	O 	0.18091 0.82362 0.75675 -0.40000
O 	O 	0.19437 0.81238 0.86331 -0.39000
O 	O 	0.29380 0.59910 0.86855 -0.37500
O 	O 	0.49450 0.10940 0.00420 -0.04400
C 	C 	0.13700 0.82960 0.77320 0.33100
O 	O 	0.48622 0.89470 0.85986 -0.18900
C 	C 	0.94710 0.78540 0.77172 0.33500
C 	C 	0.37800 0.00780 0.94727 0.32200
C 	C 	0.29870 0.89070 0.84586 0.32500
C 	C 	0.14480 0.65440 0.94787 0.32500
C 	C 	0.22130 0.72420 0.86833 0.00600
C 	C 	0.38540 0.96660 0.91613 -0.01000
C 	C 	0.34630 0.90990 0.86752 -0.01300
C 	C 	0.99900 0.78680 0.75121 -0.01500
C 	C 	0.09040 0.80840 0.75193 -0.01600
C 	C 	0.34110 0.94620 0.89792 -0.04300
H 	H 	0.30800 0.95690 0.90610 0.07800
C 	C 	0.53320 0.91220 0.87730 -0.15200
H 	H 	0.53410 0.90270 0.90510 0.09600
H 	H 	0.53580 0.95010 0.87530 0.08900
C 	C 	0.18580 0.66520 0.91698 0.00700
C 	C 	0.43970 0.91370 0.87414 0.18300
C 	C 	0.00500 0.76340 0.71430 -0.13400
H 	H 	0.97630 0.74810 0.70180 0.10400
C 	C 	0.05380 0.76260 0.69600 0.18400
C 	C 	0.09690 0.78430 0.71510 -0.12700
H 	H 	0.12990 0.78260 0.70350 0.09700
O 	O 	0.05900 0.73740 0.66070 -0.21400
C 	C 	0.25880 0.63830 0.87670 0.25900
C 	C 	0.18530 0.71420 0.89818 -0.06200
H 	H 	0.16110 0.73970 0.90560 0.08400
C 	C 	0.04140 0.81040 0.76970 -0.03600
H 	H 	0.03700 0.82750 0.79380 0.07500
C 	C 	0.25770 0.68660 0.85701 -0.18500
H 	H 	0.28120 0.69350 0.83650 0.11100
C 	C 	0.43530 0.95040 0.90433 -0.13800
H 	H 	0.46510 0.96390 0.91650 0.10100
C 	C 	0.22220 0.62740 0.90628 -0.17000
H 	H 	0.22230 0.59490 0.91880 0.12000
C 	C 	0.57740 0.88720 0.85610 0.24000
H 	H 	0.61080 0.89540 0.86510 -0.04400
C 	C 	0.36670 0.56290 0.83580 -1.23500
H 	H 	0.35320 0.53130 0.84510 0.47500
C 	C 	0.39550 0.89360 0.85560 -0.13200
H 	H 	0.39900 0.86930 0.83520 0.10800
C 	C 	0.33080 0.60900 0.83830 0.76400
H 	H 	0.35070 0.64040 0.84430 -0.18200
H 	H 	0.31310 0.61410 0.81310 -0.17400
C 	C 	0.57480 0.85510 0.82610 -0.45600
H 	H 	0.54230 0.84560 0.81580 0.21100
H 	H 	0.60530 0.84170 0.81500 0.19600
C 	C 	0.59970 0.10400 0.99490 -0.07900
N 	N 	0.57390 0.14420 0.01630 -0.12700
C 	C 	0.60820 0.18230 0.03240 0.01000
O 	O 	0.33249 0.01500 0.95934 -0.38900
C 	C 	0.40890 0.56140 0.82390 1.31900
H 	H 	0.42460 0.59160 0.81410 -0.39400
H 	H 	0.42720 0.52990 0.82400 -0.40700
O 	O 	0.91199 0.75706 0.75685 -0.39400
O 	O 	0.94315 0.81154 0.80328 -0.40000
C 	C 	0.03550 0.71890 0.58730 -0.37100
H 	H 	0.01140 0.72590 0.60720 0.18800
H 	H 	0.02390 0.70890 0.56220 0.16500
C 	C 	0.08580 0.72310 0.59440 0.15600
H 	H 	0.11090 0.71630 0.57510 -0.01900
C 	C 	0.10060 0.73960 0.63600 -0.06200
H 	H 	0.12810 0.71680 0.64590 0.06400
H 	H 	0.11430 0.77510 0.63550 0.06400
C 	C 	0.52040 0.14570 0.01870 0.03500
Cu	Cu	0.75178 0.15783 0.78115 0.90100
Cu	Cu	0.81267 0.11924 0.83704 0.90200
O 	O 	0.60758 0.86059 0.95914 -0.37700
O 	O 	0.58143 0.96727 0.95891 -0.36800
O 	O 	0.75601 0.22159 0.81464 -0.39900
O 	O 	0.74494 0.09797 0.86047 -0.39600
O 	O 	0.87103 0.14724 0.80564 -0.39500
O 	O 	0.69270 0.88100 0.95993 -0.38600
O 	O 	0.69332 0.13427 0.81383 -0.39800
C 	C 	0.78020 0.22420 0.84729 0.31500
O 	O 	0.81909 0.17638 0.75675 -0.40000
O 	O 	0.80563 0.18762 0.86331 -0.39000
O 	O 	0.70620 0.40090 0.86855 -0.37500
O 	O 	0.50550 0.89060 0.00420 -0.04400
C 	C 	0.86300 0.17040 0.77320 0.33100
O 	O 	0.51378 0.10530 0.85986 -0.18900
C 	C 	0.05290 0.21460 0.77172 0.33500
C 	C 	0.62200 0.99220 0.94727 0.32200
C 	C 	0.70130 0.10930 0.84586 0.32500
C 	C 	0.85520 0.34560 0.94787 0.32500
C 	C 	0.77870 0.27580 0.86833 0.00600
C 	C 	0.61460 0.03340 0.91613 -0.01000
C 	C 	0.65370 0.09010 0.86752 -0.01300
C 	C 	0.00100 0.21320 0.75121 -0.01500
C 	C 	0.90960 0.19160 0.75193 -0.01600
C 	C 	0.65890 0.05380 0.89792 -0.04300
H 	H 	0.69200 0.04310 0.90610 0.07800
C 	C 	0.46680 0.08780 0.87730 -0.15200
H 	H 	0.46590 0.09730 0.90510 0.09600
H 	H 	0.46420 0.04990 0.87530 0.08900
C 	C 	0.81420 0.33480 0.91698 0.00700
C 	C 	0.56030 0.08630 0.87414 0.18300
C 	C 	0.99500 0.23660 0.71430 -0.13400
H 	H 	0.02370 0.25190 0.70180 0.10400
C 	C 	0.94620 0.23740 0.69600 0.18400
C 	C 	0.90310 0.21570 0.71510 -0.12700
H 	H 	0.87010 0.21740 0.70350 0.09700
O 	O 	0.94100 0.26260 0.66070 -0.21400
C 	C 	0.74120 0.36170 0.87670 0.25900
C 	C 	0.81470 0.28580 0.89818 -0.06200
H 	H 	0.83890 0.26030 0.90560 0.08400
C 	C 	0.95860 0.18960 0.76970 -0.03600
H 	H 	0.96300 0.17250 0.79380 0.07500
C 	C 	0.74230 0.31340 0.85701 -0.18500
H 	H 	0.71880 0.30650 0.83650 0.11100
C 	C 	0.56470 0.04960 0.90433 -0.13800
H 	H 	0.53490 0.03610 0.91650 0.10100
C 	C 	0.77780 0.37260 0.90628 -0.17000
H 	H 	0.77770 0.40510 0.91880 0.12000
C 	C 	0.42260 0.11280 0.85610 0.24000
H 	H 	0.38920 0.10460 0.86510 -0.04400
C 	C 	0.63330 0.43710 0.83580 -1.23500
H 	H 	0.64680 0.46870 0.84510 0.47500
C 	C 	0.60450 0.10640 0.85560 -0.13200
H 	H 	0.60100 0.13070 0.83520 0.10800
C 	C 	0.66920 0.39100 0.83830 0.76400
H 	H 	0.64930 0.35960 0.84430 -0.18200
H 	H 	0.68690 0.38590 0.81310 -0.17400
C 	C 	0.42520 0.14490 0.82610 -0.45600
H 	H 	0.45770 0.15440 0.81580 0.21100
H 	H 	0.39470 0.15830 0.81500 0.19600
C 	C 	0.40030 0.89600 0.99490 -0.07900
N 	N 	0.42610 0.85580 0.01630 -0.12700
C 	C 	0.39180 0.81770 0.03240 0.01000
O 	O 	0.66751 0.98500 0.95934 -0.38900
C 	C 	0.59110 0.43860 0.82390 1.31900
H 	H 	0.57540 0.40840 0.81410 -0.39400
H 	H 	0.57280 0.47010 0.82400 -0.40700
O 	O 	0.08801 0.24294 0.75685 -0.39400
O 	O 	0.05685 0.18846 0.80328 -0.40000
C 	C 	0.96450 0.28110 0.58730 -0.37100
H 	H 	0.98860 0.27410 0.60720 0.18800
H 	H 	0.97610 0.29110 0.56220 0.16500
C 	C 	0.91420 0.27690 0.59440 0.15600
H 	H 	0.88910 0.28370 0.57510 -0.01900
C 	C 	0.89940 0.26040 0.63600 -0.06200
H 	H 	0.87190 0.28320 0.64590 0.06400
H 	H 	0.88570 0.22490 0.63550 0.06400
C 	C 	0.47960 0.85430 0.01870 0.03500
Cu	Cu	0.15783 0.24822 0.21885 0.90100
Cu	Cu	0.11924 0.18733 0.16296 0.90100
O 	O 	0.86059 0.39242 0.04086 -0.40000
O 	O 	0.96727 0.41857 0.04109 -0.39100
O 	O 	0.22159 0.24399 0.18536 -0.40000
O 	O 	0.09797 0.25506 0.13953 -0.40100
O 	O 	0.14724 0.12897 0.19436 -0.39700
O 	O 	0.88100 0.30730 0.04007 -0.41200
O 	O 	0.13427 0.30668 0.18617 -0.39800
C 	C 	0.22420 0.21980 0.15271 0.31700
O 	O 	0.17638 0.18091 0.24325 -0.40000
O 	O 	0.18762 0.19437 0.13669 -0.39600
O 	O 	0.40090 0.29380 0.13145 -0.37700
O 	O 	0.89060 0.49450 0.99580 -0.22400
C 	C 	0.17040 0.13700 0.22680 0.33200
O 	O 	0.10530 0.48622 0.14014 -0.18800
C 	C 	0.21460 0.94710 0.22828 0.33600
C 	C 	0.99220 0.37800 0.05273 0.32500
C 	C 	0.10930 0.29870 0.15414 0.32700
C 	C 	0.34560 0.14480 0.05213 0.32800
C 	C 	0.27580 0.22130 0.13167 0.00000
C 	C 	0.03340 0.38540 0.08387 -0.02300
C 	C 	0.09010 0.34630 0.13248 -0.01900
C 	C 	0.21320 0.99900 0.24879 -0.01600
C 	C 	0.19160 0.09040 0.24807 -0.01700
C 	C 	0.05380 0.34110 0.10208 -0.03800
H 	H 	0.04310 0.30800 0.09390 0.07100
C 	C 	0.08780 0.53320 0.12270 -0.15100
H 	H 	0.09730 0.53410 0.09490 0.09500
H 	H 	0.04990 0.53580 0.12470 0.08900
C 	C 	0.33480 0.18580 0.08302 -0.00400
C 	C 	0.08630 0.43970 0.12586 0.18000
C 	C 	0.23660 0.00500 0.28570 -0.13300
H 	H 	0.25190 0.97630 0.29820 0.10400
C 	C 	0.23740 0.05380 0.30400 0.18400
C 	C 	0.21570 0.09690 0.28490 -0.12600
H 	H 	0.21740 0.12990 0.29650 0.09700
O 	O 	0.26260 0.05900 0.33930 -0.21400
C 	C 	0.36170 0.25880 0.12330 0.25300
C 	C 	0.28580 0.18530 0.10182 -0.05800
H 	H 	0.26030 0.16110 0.09440 0.07700
C 	C 	0.18960 0.04140 0.23030 -0.03500
H 	H 	0.17250 0.03700 0.20620 0.07300
C 	C 	0.31340 0.25770 0.14299 -0.18300
H 	H 	0.30650 0.28120 0.16350 0.11000
C 	C 	0.04960 0.43530 0.09567 -0.13400
H 	H 	0.03610 0.46510 0.08350 0.09500
C 	C 	0.37260 0.22220 0.09372 -0.16700
H 	H 	0.40510 0.22230 0.08120 0.11300
C 	C 	0.11280 0.57740 0.14390 0.24100
H 	H 	0.10460 0.61080 0.13490 -0.04400
C 	C 	0.43710 0.36670 0.16420 -1.22800
H 	H 	0.46870 0.35320 0.15490 0.47000
C 	C 	0.10640 0.39550 0.14440 -0.12900
H 	H 	0.13070 0.39900 0.16480 0.10700
C 	C 	0.39100 0.33080 0.16170 0.75900
H 	H 	0.35960 0.35070 0.15570 -0.18200
H 	H 	0.38590 0.31310 0.18690 -0.17300
C 	C 	0.14490 0.57480 0.17390 -0.45600
H 	H 	0.15440 0.54230 0.18420 0.21100
H 	H 	0.15830 0.60530 0.18500 0.19600
C 	C 	0.89600 0.59970 0.00510 0.16700
N 	N 	0.85580 0.57390 0.98370 -0.08800
C 	C 	0.81770 0.60820 0.96760 0.04600
O 	O 	0.98500 0.33249 0.04066 -0.41400
C 	C 	0.43860 0.40890 0.17610 1.30700
H 	H 	0.40840 0.42460 0.18590 -0.39100
H 	H 	0.47010 0.42720 0.17600 -0.40500
O 	O 	0.24294 0.91199 0.24315 -0.39400
O 	O 	0.18846 0.94315 0.19672 -0.40200
C 	C 	0.28110 0.03550 0.41270 -0.37100
H 	H 	0.27410 0.01140 0.39280 0.18800
H 	H 	0.29110 0.02390 0.43780 0.16500
C 	C 	0.27690 0.08580 0.40560 0.15700
H 	H 	0.28370 0.11090 0.42490 -0.01900
C 	C 	0.26040 0.10060 0.36400 -0.06200
H 	H 	0.28320 0.12810 0.35410 0.06400
H 	H 	0.22490 0.11430 0.36450 0.06400
C 	C 	0.85430 0.52040 0.98130 0.16300
Cu	Cu	0.84217 0.75178 0.21885 0.90100
Cu	Cu	0.88076 0.81267 0.16296 0.90100
O 	O 	0.13941 0.60758 0.04086 -0.40000
O 	O 	0.03273 0.58143 0.04109 -0.39100
O 	O 	0.77841 0.75601 0.18536 -0.40000
O 	O 	0.90203 0.74494 0.13953 -0.40100
O 	O 	0.85276 0.87103 0.19436 -0.39700
O 	O 	0.11900 0.69270 0.04007 -0.41200
O 	O 	0.86573 0.69332 0.18617 -0.39800
C 	C 	0.77580 0.78020 0.15271 0.31700
O 	O 	0.82362 0.81909 0.24325 -0.40000
O 	O 	0.81238 0.80563 0.13669 -0.39600
O 	O 	0.59910 0.70620 0.13145 -0.37700
O 	O 	0.10940 0.50550 0.99580 -0.22400
C 	C 	0.82960 0.86300 0.22680 0.33200
O 	O 	0.89470 0.51378 0.14014 -0.18800
C 	C 	0.78540 0.05290 0.22828 0.33600
C 	C 	0.00780 0.62200 0.05273 0.32500
C 	C 	0.89070 0.70130 0.15414 0.32700
C 	C 	0.65440 0.85520 0.05213 0.32800
C 	C 	0.72420 0.77870 0.13167 0.00000
C 	C 	0.96660 0.61460 0.08387 -0.02300
C 	C 	0.90990 0.65370 0.13248 -0.01900
C 	C 	0.78680 0.00100 0.24879 -0.01600
C 	C 	0.80840 0.90960 0.24807 -0.01700
C 	C 	0.94620 0.65890 0.10208 -0.03800
H 	H 	0.95690 0.69200 0.09390 0.07100
C 	C 	0.91220 0.46680 0.12270 -0.15100
H 	H 	0.90270 0.46590 0.09490 0.09500
H 	H 	0.95010 0.46420 0.12470 0.08900
C 	C 	0.66520 0.81420 0.08302 -0.00400
C 	C 	0.91370 0.56030 0.12586 0.18000
C 	C 	0.76340 0.99500 0.28570 -0.13300
H 	H 	0.74810 0.02370 0.29820 0.10400
C 	C 	0.76260 0.94620 0.30400 0.18400
C 	C 	0.78430 0.90310 0.28490 -0.12600
H 	H 	0.78260 0.87010 0.29650 0.09700
O 	O 	0.73740 0.94100 0.33930 -0.21400
C 	C 	0.63830 0.74120 0.12330 0.25300
C 	C 	0.71420 0.81470 0.10182 -0.05800
H 	H 	0.73970 0.83890 0.09440 0.07700
C 	C 	0.81040 0.95860 0.23030 -0.03500
H 	H 	0.82750 0.96300 0.20620 0.07300
C 	C 	0.68660 0.74230 0.14299 -0.18300
H 	H 	0.69350 0.71880 0.16350 0.11000
C 	C 	0.95040 0.56470 0.09567 -0.13400
H 	H 	0.96390 0.53490 0.08350 0.09500
C 	C 	0.62740 0.77780 0.09372 -0.16700
H 	H 	0.59490 0.77770 0.08120 0.11300
C 	C 	0.88720 0.42260 0.14390 0.24100
H 	H 	0.89540 0.38920 0.13490 -0.04400
C 	C 	0.56290 0.63330 0.16420 -1.22800
H 	H 	0.53130 0.64680 0.15490 0.47000
C 	C 	0.89360 0.60450 0.14440 -0.12900
H 	H 	0.86930 0.60100 0.16480 0.10700
C 	C 	0.60900 0.66920 0.16170 0.75900
H 	H 	0.64040 0.64930 0.15570 -0.18200
H 	H 	0.61410 0.68690 0.18690 -0.17300
C 	C 	0.85510 0.42520 0.17390 -0.45600
H 	H 	0.84560 0.45770 0.18420 0.21100
H 	H 	0.84170 0.39470 0.18500 0.19600
C 	C 	0.10400 0.40030 0.00510 0.16700
N 	N 	0.14420 0.42610 0.98370 -0.08800
C 	C 	0.18230 0.39180 0.96760 0.04600
O 	O 	0.01500 0.66751 0.04066 -0.41400
C 	C 	0.56140 0.59110 0.17610 1.30700
H 	H 	0.59160 0.57540 0.18590 -0.39100
H 	H 	0.52990 0.57280 0.17600 -0.40500
O 	O 	0.75706 0.08801 0.24315 -0.39400
O 	O 	0.81154 0.05685 0.19672 -0.40200
C 	C 	0.71890 0.96450 0.41270 -0.37100
H 	H 	0.72590 0.98860 0.39280 0.18800
H 	H 	0.70890 0.97610 0.43780 0.16500
C 	C 	0.72310 0.91420 0.40560 0.15700
H 	H 	0.71630 0.88910 0.42490 -0.01900
C 	C 	0.73960 0.89940 0.36400 -0.06200
H 	H 	0.71680 0.87190 0.35410 0.06400
H 	H 	0.77510 0.88570 0.36450 0.06400
C 	C 	0.14570 0.47960 0.98130 0.16300
Cu	Cu	0.75178 0.15783 0.21885 0.90100
Cu	Cu	0.81267 0.11924 0.16296 0.90100
O 	O 	0.60758 0.86059 0.04086 -0.40000
O 	O 	0.58143 0.96727 0.04109 -0.39100
O 	O 	0.75601 0.22159 0.18536 -0.40000
O 	O 	0.74494 0.09797 0.13953 -0.40100
O 	O 	0.87103 0.14724 0.19436 -0.39700
O 	O 	0.69270 0.88100 0.04007 -0.41200
O 	O 	0.69332 0.13427 0.18617 -0.39800
C 	C 	0.78020 0.22420 0.15271 0.31700
O 	O 	0.81909 0.17638 0.24325 -0.40000
O 	O 	0.80563 0.18762 0.13669 -0.39600
O 	O 	0.70620 0.40090 0.13145 -0.37700
O 	O 	0.50550 0.89060 0.99580 -0.22400
C 	C 	0.86300 0.17040 0.22680 0.33200
O 	O 	0.51378 0.10530 0.14014 -0.18800
C 	C 	0.05290 0.21460 0.22828 0.33600
C 	C 	0.62200 0.99220 0.05273 0.32500
C 	C 	0.70130 0.10930 0.15414 0.32700
C 	C 	0.85520 0.34560 0.05213 0.32800
C 	C 	0.77870 0.27580 0.13167 0.00000
C 	C 	0.61460 0.03340 0.08387 -0.02300
C 	C 	0.65370 0.09010 0.13248 -0.01900
C 	C 	0.00100 0.21320 0.24879 -0.01600
C 	C 	0.90960 0.19160 0.24807 -0.01700
C 	C 	0.65890 0.05380 0.10208 -0.03800
H 	H 	0.69200 0.04310 0.09390 0.07100
C 	C 	0.46680 0.08780 0.12270 -0.15100
H 	H 	0.46590 0.09730 0.09490 0.09500
H 	H 	0.46420 0.04990 0.12470 0.08900
C 	C 	0.81420 0.33480 0.08302 -0.00400
C 	C 	0.56030 0.08630 0.12586 0.18000
C 	C 	0.99500 0.23660 0.28570 -0.13300
H 	H 	0.02370 0.25190 0.29820 0.10400
C 	C 	0.94620 0.23740 0.30400 0.18400
C 	C 	0.90310 0.21570 0.28490 -0.12600
H 	H 	0.87010 0.21740 0.29650 0.09700
O 	O 	0.94100 0.26260 0.33930 -0.21400
C 	C 	0.74120 0.36170 0.12330 0.25300
C 	C 	0.81470 0.28580 0.10182 -0.05800
H 	H 	0.83890 0.26030 0.09440 0.07700
C 	C 	0.95860 0.18960 0.23030 -0.03500
H 	H 	0.96300 0.17250 0.20620 0.07300
C 	C 	0.74230 0.31340 0.14299 -0.18300
H 	H 	0.71880 0.30650 0.16350 0.11000
C 	C 	0.56470 0.04960 0.09567 -0.13400
H 	H 	0.53490 0.03610 0.08350 0.09500
C 	C 	0.77780 0.37260 0.09372 -0.16700
H 	H 	0.77770 0.40510 0.08120 0.11300
C 	C 	0.42260 0.11280 0.14390 0.24100
H 	H 	0.38920 0.10460 0.13490 -0.04400
C 	C 	0.63330 0.43710 0.16420 -1.22800
H 	H 	0.64680 0.46870 0.15490 0.47000
C 	C 	0.60450 0.10640 0.14440 -0.12900
H 	H 	0.60100 0.13070 0.16480 0.10700
C 	C 	0.66920 0.39100 0.16170 0.75900
H 	H 	0.64930 0.35960 0.15570 -0.18200
H 	H 	0.68690 0.38590 0.18690 -0.17300
C 	C 	0.42520 0.14490 0.17390 -0.45600
H 	H 	0.45770 0.15440 0.18420 0.21100
H 	H 	0.39470 0.15830 0.18500 0.19600
C 	C 	0.40030 0.89600 0.00510 0.16700
N 	N 	0.42610 0.85580 0.98370 -0.08800
C 	C 	0.39180 0.81770 0.96760 0.04600
O 	O 	0.66751 0.98500 0.04066 -0.41400
C 	C 	0.59110 0.43860 0.17610 1.30700
H 	H 	0.57540 0.40840 0.18590 -0.39100
H 	H 	0.57280 0.47010 0.17600 -0.40500
O 	O 	0.08801 0.24294 0.24315 -0.39400
O 	O 	0.05685 0.18846 0.19672 -0.40200
C 	C 	0.96450 0.28110 0.41270 -0.37100
H 	H 	0.98860 0.27410 0.39280 0.18800
H 	H 	0.97610 0.29110 0.43780 0.16500
C 	C 	0.91420 0.27690 0.40560 0.15700
H 	H 	0.88910 0.28370 0.42490 -0.01900
C 	C 	0.89940 0.26040 0.36400 -0.06200
H 	H 	0.87190 0.28320 0.35410 0.06400
H 	H 	0.88570 0.22490 0.36450 0.06400
C 	C 	0.47960 0.85430 0.98130 0.16300
Cu	Cu	0.24822 0.84217 0.21885 0.90100
Cu	Cu	0.18733 0.88076 0.16296 0.90100
O 	O 	0.39242 0.13941 0.04086 -0.40000
O 	O 	0.41857 0.03273 0.04109 -0.39100
O 	O 	0.24399 0.77841 0.18536 -0.40000
O 	O 	0.25506 0.90203 0.13953 -0.40100
O 	O 	0.12897 0.85276 0.19436 -0.39700
O 	O 	0.30730 0.11900 0.04007 -0.41200
O 	O 	0.30668 0.86573 0.18617 -0.39800
C 	C 	0.21980 0.77580 0.15271 0.31700
O 	O 	0.18091 0.82362 0.24325 -0.40000
O 	O 	0.19437 0.81238 0.13669 -0.39600
O 	O 	0.29380 0.59910 0.13145 -0.37700
O 	O 	0.49450 0.10940 0.99580 -0.22400
C 	C 	0.13700 0.82960 0.22680 0.33200
O 	O 	0.48622 0.89470 0.14014 -0.18800
C 	C 	0.94710 0.78540 0.22828 0.33600
C 	C 	0.37800 0.00780 0.05273 0.32500
C 	C 	0.29870 0.89070 0.15414 0.32700
C 	C 	0.14480 0.65440 0.05213 0.32800
C 	C 	0.22130 0.72420 0.13167 0.00000
C 	C 	0.38540 0.96660 0.08387 -0.02300
C 	C 	0.34630 0.90990 0.13248 -0.01900
C 	C 	0.99900 0.78680 0.24879 -0.01600
C 	C 	0.09040 0.80840 0.24807 -0.01700
C 	C 	0.34110 0.94620 0.10208 -0.03800
H 	H 	0.30800 0.95690 0.09390 0.07100
C 	C 	0.53320 0.91220 0.12270 -0.15100
H 	H 	0.53410 0.90270 0.09490 0.09500
H 	H 	0.53580 0.95010 0.12470 0.08900
C 	C 	0.18580 0.66520 0.08302 -0.00400
C 	C 	0.43970 0.91370 0.12586 0.18000
C 	C 	0.00500 0.76340 0.28570 -0.13300
H 	H 	0.97630 0.74810 0.29820 0.10400
C 	C 	0.05380 0.76260 0.30400 0.18400
C 	C 	0.09690 0.78430 0.28490 -0.12600
H 	H 	0.12990 0.78260 0.29650 0.09700
O 	O 	0.05900 0.73740 0.33930 -0.21400
C 	C 	0.25880 0.63830 0.12330 0.25300
C 	C 	0.18530 0.71420 0.10182 -0.05800
H 	H 	0.16110 0.73970 0.09440 0.07700
C 	C 	0.04140 0.81040 0.23030 -0.03500
H 	H 	0.03700 0.82750 0.20620 0.07300
C 	C 	0.25770 0.68660 0.14299 -0.18300
H 	H 	0.28120 0.69350 0.16350 0.11000
C 	C 	0.43530 0.95040 0.09567 -0.13400
H 	H 	0.46510 0.96390 0.08350 0.09500
C 	C 	0.22220 0.62740 0.09372 -0.16700
H 	H 	0.22230 0.59490 0.08120 0.11300
C 	C 	0.57740 0.88720 0.14390 0.24100
H 	H 	0.61080 0.89540 0.13490 -0.04400
C 	C 	0.36670 0.56290 0.16420 -1.22800
H 	H 	0.35320 0.53130 0.15490 0.47000
C 	C 	0.39550 0.89360 0.14440 -0.12900
H 	H 	0.39900 0.86930 0.16480 0.10700
C 	C 	0.33080 0.60900 0.16170 0.75900
H 	H 	0.35070 0.64040 0.15570 -0.18200
H 	H 	0.31310 0.61410 0.18690 -0.17300
C 	C 	0.57480 0.85510 0.17390 -0.45600
H 	H 	0.54230 0.84560 0.18420 0.21100
H 	H 	0.60530 0.84170 0.18500 0.19600
C 	C 	0.59970 0.10400 0.00510 0.16700
N 	N 	0.57390 0.14420 0.98370 -0.08800
C 	C 	0.60820 0.18230 0.96760 0.04600
O 	O 	0.33249 0.01500 0.04066 -0.41400
C 	C 	0.40890 0.56140 0.17610 1.30700
H 	H 	0.42460 0.59160 0.18590 -0.39100
H 	H 	0.42720 0.52990 0.17600 -0.40500
O 	O 	0.91199 0.75706 0.24315 -0.39400
O 	O 	0.94315 0.81154 0.19672 -0.40200
C 	C 	0.03550 0.71890 0.41270 -0.37100
H 	H 	0.01140 0.72590 0.39280 0.18800
H 	H 	0.02390 0.70890 0.43780 0.16500
C 	C 	0.08580 0.72310 0.40560 0.15700
H 	H 	0.11090 0.71630 0.42490 -0.01900
C 	C 	0.10060 0.73960 0.36400 -0.06200
H 	H 	0.12810 0.71680 0.35410 0.06400
H 	H 	0.11430 0.77510 0.36450 0.06400
C 	C 	0.52040 0.14570 0.98130 0.16300
Cu	Cu	0.08787 0.58628 -0.00000 0.90400
Cu	Cu	0.06485 0.68745 -0.00000 0.89400
Cu	Cu	0.91213 0.41372 -0.00000 0.90400
Cu	Cu	0.93515 0.31255 -0.00000 0.89400
Cu	Cu	0.41372 0.08787 -0.00000 0.90400
Cu	Cu	0.31255 0.06485 -0.00000 0.89400
Cu	Cu	0.58628 0.91213 -0.00000 0.90400
Cu	Cu	0.68745 0.93515 -0.00000 0.89400
Cu	Cu	0.34217 0.25178 0.28115 0.90100
Cu	Cu	0.38076 0.31267 0.33704 0.90100
O 	O 	0.63941 0.10758 0.45914 -0.39200
O 	O 	0.53273 0.08143 0.45891 -0.38300
O 	O 	0.27841 0.25601 0.31464 -0.40000
O 	O 	0.40203 0.24494 0.36047 -0.39900
O 	O 	0.35276 0.37103 0.30564 -0.39600
O 	O 	0.61900 0.19270 0.45993 -0.40300
O 	O 	0.36573 0.19332 0.31383 -0.39800
C 	C 	0.27580 0.28020 0.34729 0.31600
O 	O 	0.32362 0.31909 0.25675 -0.40000
O 	O 	0.31238 0.30563 0.36331 -0.39300
O 	O 	0.09910 0.20620 0.36855 -0.37600
O 	O 	0.60940 0.00550 0.50420 -0.13500
C 	C 	0.32960 0.36300 0.27320 0.33200
O 	O 	0.39470 0.01378 0.35986 -0.18900
C 	C 	0.28540 0.55290 0.27172 0.33600
C 	C 	0.50780 0.12200 0.44727 0.32500
C 	C 	0.39070 0.20130 0.34586 0.32600
C 	C 	0.15440 0.35520 0.44787 0.32800
C 	C 	0.22420 0.27870 0.36833 0.00300
C 	C 	0.46660 0.11460 0.41613 -0.01700
C 	C 	0.40990 0.15370 0.36752 -0.01700
C 	C 	0.28680 0.50100 0.25121 -0.01500
C 	C 	0.30840 0.40960 0.25193 -0.01700
C 	C 	0.44620 0.15890 0.39792 -0.04000
H 	H 	0.45690 0.19200 0.40610 0.07400
C 	C 	0.41220 0.96680 0.37730 -0.15100
H 	H 	0.40270 0.96590 0.40510 0.09600
H 	H 	0.45010 0.96420 0.37530 0.08900
C 	C 	0.16520 0.31420 0.41698 0.00100
C 	C 	0.41370 0.06030 0.37414 0.18200
C 	C 	0.26340 0.49500 0.21430 -0.13300
H 	H 	0.24810 0.52370 0.20180 0.10400
C 	C 	0.26260 0.44620 0.19600 0.18400
C 	C 	0.28430 0.40310 0.21510 -0.12600
H 	H 	0.28260 0.37010 0.20350 0.09700
O 	O 	0.23740 0.44100 0.16070 -0.21400
C 	C 	0.13830 0.24120 0.37670 0.25600
C 	C 	0.21420 0.31470 0.39818 -0.06000
H 	H 	0.23970 0.33890 0.40560 0.08000
C 	C 	0.31040 0.45860 0.26970 -0.03600
H 	H 	0.32750 0.46300 0.29380 0.07400
C 	C 	0.18660 0.24230 0.35701 -0.18300
H 	H 	0.19350 0.21880 0.33650 0.11000
C 	C 	0.45040 0.06470 0.40433 -0.13600
H 	H 	0.46390 0.03490 0.41650 0.09800
C 	C 	0.12740 0.27780 0.40628 -0.16800
H 	H 	0.09490 0.27770 0.41880 0.11600
C 	C 	0.38720 0.92260 0.35610 0.24100
H 	H 	0.39540 0.88920 0.36510 -0.04400
C 	C 	0.06290 0.13330 0.33580 -1.23100
H 	H 	0.03130 0.14680 0.34510 0.47300
C 	C 	0.39360 0.10450 0.35560 -0.13000
H 	H 	0.36930 0.10100 0.33520 0.10700
C 	C 	0.10900 0.16920 0.33830 0.76100
H 	H 	0.14040 0.14930 0.34430 -0.18200
H 	H 	0.11410 0.18690 0.31310 -0.17300
C 	C 	0.35510 0.92520 0.32610 -0.45600
H 	H 	0.34560 0.95770 0.31580 0.21100
H 	H 	0.34170 0.89470 0.31500 0.19600
C 	C 	0.60400 0.90030 0.49490 0.04400
N 	N 	0.64420 0.92610 0.51630 -0.10700
C 	C 	0.68230 0.89180 0.53240 0.02800
O 	O 	0.51500 0.16751 0.45934 -0.40600
C 	C 	0.06140 0.09110 0.32390 1.31300
H 	H 	0.09160 0.07540 0.31410 -0.39200
H 	H 	0.02990 0.07280 0.32400 -0.40600
O 	O 	0.25706 0.58801 0.25685 -0.39400
O 	O 	0.31154 0.55685 0.30328 -0.40100
C 	C 	0.21890 0.46450 0.08730 -0.37200
H 	H 	0.22590 0.48860 0.10720 0.18800
H 	H 	0.20890 0.47610 0.06220 0.16500
C 	C 	0.22310 0.41420 0.09440 0.15500
H 	H 	0.21630 0.38910 0.07510 -0.02000
C 	C 	0.23960 0.39940 0.13600 -0.06100
H 	H 	0.21680 0.37190 0.14590 0.06300
H 	H 	0.27510 0.38570 0.13550 0.06200
C 	C 	0.64570 0.97960 0.51870 0.09900
Cu	Cu	0.65783 0.74822 0.28115 0.90100
Cu	Cu	0.61924 0.68733 0.33704 0.90100
O 	O 	0.36059 0.89242 0.45914 -0.39200
O 	O 	0.46727 0.91857 0.45891 -0.38300
O 	O 	0.72159 0.74399 0.31464 -0.40000
O 	O 	0.59797 0.75506 0.36047 -0.39900
O 	O 	0.64724 0.62897 0.30564 -0.39600
O 	O 	0.38100 0.80730 0.45993 -0.40300
O 	O 	0.63427 0.80668 0.31383 -0.39800
C 	C 	0.72420 0.71980 0.34729 0.31600
O 	O 	0.67638 0.68091 0.25675 -0.40000
O 	O 	0.68762 0.69437 0.36331 -0.39300
O 	O 	0.90090 0.79380 0.36855 -0.37600
O 	O 	0.39060 0.99450 0.50420 -0.13500
C 	C 	0.67040 0.63700 0.27320 0.33200
O 	O 	0.60530 0.98622 0.35986 -0.18900
C 	C 	0.71460 0.44710 0.27172 0.33600
C 	C 	0.49220 0.87800 0.44727 0.32500
C 	C 	0.60930 0.79870 0.34586 0.32600
C 	C 	0.84560 0.64480 0.44787 0.32800
C 	C 	0.77580 0.72130 0.36833 0.00300
C 	C 	0.53340 0.88540 0.41613 -0.01700
C 	C 	0.59010 0.84630 0.36752 -0.01700
C 	C 	0.71320 0.49900 0.25121 -0.01500
C 	C 	0.69160 0.59040 0.25193 -0.01700
C 	C 	0.55380 0.84110 0.39792 -0.04000
H 	H 	0.54310 0.80800 0.40610 0.07400
C 	C 	0.58780 0.03320 0.37730 -0.15100
H 	H 	0.59730 0.03410 0.40510 0.09600
H 	H 	0.54990 0.03580 0.37530 0.08900
C 	C 	0.83480 0.68580 0.41698 0.00100
C 	C 	0.58630 0.93970 0.37414 0.18200
C 	C 	0.73660 0.50500 0.21430 -0.13300
H 	H 	0.75190 0.47630 0.20180 0.10400
C 	C 	0.73740 0.55380 0.19600 0.18400
C 	C 	0.71570 0.59690 0.21510 -0.12600
H 	H 	0.71740 0.62990 0.20350 0.09700
O 	O 	0.76260 0.55900 0.16070 -0.21400
C 	C 	0.86170 0.75880 0.37670 0.25600
C 	C 	0.78580 0.68530 0.39818 -0.06000
H 	H 	0.76030 0.66110 0.40560 0.08000
C 	C 	0.68960 0.54140 0.26970 -0.03600
H 	H 	0.67250 0.53700 0.29380 0.07400
C 	C 	0.81340 0.75770 0.35701 -0.18300
H 	H 	0.80650 0.78120 0.33650 0.11000
C 	C 	0.54960 0.93530 0.40433 -0.13600
H 	H 	0.53610 0.96510 0.41650 0.09800
C 	C 	0.87260 0.72220 0.40628 -0.16800
H 	H 	0.90510 0.72230 0.41880 0.11600
C 	C 	0.61280 0.07740 0.35610 0.24100
H 	H 	0.60460 0.11080 0.36510 -0.04400
C 	C 	0.93710 0.86670 0.33580 -1.23100
H 	H 	0.96870 0.85320 0.34510 0.47300
C 	C 	0.60640 0.89550 0.35560 -0.13000
H 	H 	0.63070 0.89900 0.33520 0.10700
C 	C 	0.89100 0.83080 0.33830 0.76100
H 	H 	0.85960 0.85070 0.34430 -0.18200
H 	H 	0.88590 0.81310 0.31310 -0.17300
C 	C 	0.64490 0.07480 0.32610 -0.45600
H 	H 	0.65440 0.04230 0.31580 0.21100
H 	H 	0.65830 0.10530 0.31500 0.19600
C 	C 	0.39600 0.09970 0.49490 0.04400
N 	N 	0.35580 0.07390 0.51630 -0.10700
C 	C 	0.31770 0.10820 0.53240 0.02800
O 	O 	0.48500 0.83249 0.45934 -0.40600
C 	C 	0.93860 0.90890 0.32390 1.31300
H 	H 	0.90840 0.92460 0.31410 -0.39200
H 	H 	0.97010 0.92720 0.32400 -0.40600
O 	O 	0.74294 0.41199 0.25685 -0.39400
O 	O 	0.68846 0.44315 0.30328 -0.40100
C 	C 	0.78110 0.53550 0.08730 -0.37200
H 	H 	0.77410 0.51140 0.10720 0.18800
H 	H 	0.79110 0.52390 0.06220 0.16500
C 	C 	0.77690 0.58580 0.09440 0.15500
H 	H 	0.78370 0.61090 0.07510 -0.02000
C 	C 	0.76040 0.60060 0.13600 -0.06100
H 	H 	0.78320 0.62810 0.14590 0.06300
H 	H 	0.72490 0.61430 0.13550 0.06200
C 	C 	0.35430 0.02040 0.51870 0.09900
Cu	Cu	0.74822 0.34217 0.28115 0.90100
Cu	Cu	0.68733 0.38076 0.33704 0.90100
O 	O 	0.89242 0.63941 0.45914 -0.39200
O 	O 	0.91857 0.53273 0.45891 -0.38300
O 	O 	0.74399 0.27841 0.31464 -0.40000
O 	O 	0.75506 0.40203 0.36047 -0.39900
O 	O 	0.62897 0.35276 0.30564 -0.39600
O 	O 	0.80730 0.61900 0.45993 -0.40300
O 	O 	0.80668 0.36573 0.31383 -0.39800
C 	C 	0.71980 0.27580 0.34729 0.31600
O 	O 	0.68091 0.32362 0.25675 -0.40000
O 	O 	0.69437 0.31238 0.36331 -0.39300
O 	O 	0.79380 0.09910 0.36855 -0.37600
O 	O 	0.99450 0.60940 0.50420 -0.13500
C 	C 	0.63700 0.32960 0.27320 0.33200
O 	O 	0.98622 0.39470 0.35986 -0.18900
C 	C 	0.44710 0.28540 0.27172 0.33600
C 	C 	0.87800 0.50780 0.44727 0.32500
C 	C 	0.79870 0.39070 0.34586 0.32600
C 	C 	0.64480 0.15440 0.44787 0.32800
C 	C 	0.72130 0.22420 0.36833 0.00300
C 	C 	0.88540 0.46660 0.41613 -0.01700
C 	C 	0.84630 0.40990 0.36752 -0.01700
C 	C 	0.49900 0.28680 0.25121 -0.01500
C 	C 	0.59040 0.30840 0.25193 -0.01700
C 	C 	0.84110 0.44620 0.39792 -0.04000
H 	H 	0.80800 0.45690 0.40610 0.07400
C 	C 	0.03320 0.41220 0.37730 -0.15100
H 	H 	0.03410 0.40270 0.40510 0.09600
H 	H 	0.03580 0.45010 0.37530 0.08900
C 	C 	0.68580 0.16520 0.41698 0.00100
C 	C 	0.93970 0.41370 0.37414 0.18200
C 	C 	0.50500 0.26340 0.21430 -0.13300
H 	H 	0.47630 0.24810 0.20180 0.10400
C 	C 	0.55380 0.26260 0.19600 0.18400
C 	C 	0.59690 0.28430 0.21510 -0.12600
H 	H 	0.62990 0.28260 0.20350 0.09700
O 	O 	0.55900 0.23740 0.16070 -0.21400
C 	C 	0.75880 0.13830 0.37670 0.25600
C 	C 	0.68530 0.21420 0.39818 -0.06000
H 	H 	0.66110 0.23970 0.40560 0.08000
C 	C 	0.54140 0.31040 0.26970 -0.03600
H 	H 	0.53700 0.32750 0.29380 0.07400
C 	C 	0.75770 0.18660 0.35701 -0.18300
H 	H 	0.78120 0.19350 0.33650 0.11000
C 	C 	0.93530 0.45040 0.40433 -0.13600
H 	H 	0.96510 0.46390 0.41650 0.09800
C 	C 	0.72220 0.12740 0.40628 -0.16800
H 	H 	0.72230 0.09490 0.41880 0.11600
C 	C 	0.07740 0.38720 0.35610 0.24100
H 	H 	0.11080 0.39540 0.36510 -0.04400
C 	C 	0.86670 0.06290 0.33580 -1.23100
H 	H 	0.85320 0.03130 0.34510 0.47300
C 	C 	0.89550 0.39360 0.35560 -0.13000
H 	H 	0.89900 0.36930 0.33520 0.10700
C 	C 	0.83080 0.10900 0.33830 0.76100
H 	H 	0.85070 0.14040 0.34430 -0.18200
H 	H 	0.81310 0.11410 0.31310 -0.17300
C 	C 	0.07480 0.35510 0.32610 -0.45600
H 	H 	0.04230 0.34560 0.31580 0.21100
H 	H 	0.10530 0.34170 0.31500 0.19600
C 	C 	0.09970 0.60400 0.49490 0.04400
N 	N 	0.07390 0.64420 0.51630 -0.10700
C 	C 	0.10820 0.68230 0.53240 0.02800
O 	O 	0.83249 0.51500 0.45934 -0.40600
C 	C 	0.90890 0.06140 0.32390 1.31300
H 	H 	0.92460 0.09160 0.31410 -0.39200
H 	H 	0.92720 0.02990 0.32400 -0.40600
O 	O 	0.41199 0.25706 0.25685 -0.39400
O 	O 	0.44315 0.31154 0.30328 -0.40100
C 	C 	0.53550 0.21890 0.08730 -0.37200
H 	H 	0.51140 0.22590 0.10720 0.18800
H 	H 	0.52390 0.20890 0.06220 0.16500
C 	C 	0.58580 0.22310 0.09440 0.15500
H 	H 	0.61090 0.21630 0.07510 -0.02000
C 	C 	0.60060 0.23960 0.13600 -0.06100
H 	H 	0.62810 0.21680 0.14590 0.06300
H 	H 	0.61430 0.27510 0.13550 0.06200
C 	C 	0.02040 0.64570 0.51870 0.09900
Cu	Cu	0.25178 0.65783 0.28115 0.90100
Cu	Cu	0.31267 0.61924 0.33704 0.90100
O 	O 	0.10758 0.36059 0.45914 -0.39200
O 	O 	0.08143 0.46727 0.45891 -0.38300
O 	O 	0.25601 0.72159 0.31464 -0.40000
O 	O 	0.24494 0.59797 0.36047 -0.39900
O 	O 	0.37103 0.64724 0.30564 -0.39600
O 	O 	0.19270 0.38100 0.45993 -0.40300
O 	O 	0.19332 0.63427 0.31383 -0.39800
C 	C 	0.28020 0.72420 0.34729 0.31600
O 	O 	0.31909 0.67638 0.25675 -0.40000
O 	O 	0.30563 0.68762 0.36331 -0.39300
O 	O 	0.20620 0.90090 0.36855 -0.37600
O 	O 	0.00550 0.39060 0.50420 -0.13500
C 	C 	0.36300 0.67040 0.27320 0.33200
O 	O 	0.01378 0.60530 0.35986 -0.18900
C 	C 	0.55290 0.71460 0.27172 0.33600
C 	C 	0.12200 0.49220 0.44727 0.32500
C 	C 	0.20130 0.60930 0.34586 0.32600
C 	C 	0.35520 0.84560 0.44787 0.32800
C 	C 	0.27870 0.77580 0.36833 0.00300
C 	C 	0.11460 0.53340 0.41613 -0.01700
C 	C 	0.15370 0.59010 0.36752 -0.01700
C 	C 	0.50100 0.71320 0.25121 -0.01500
C 	C 	0.40960 0.69160 0.25193 -0.01700
C 	C 	0.15890 0.55380 0.39792 -0.04000
H 	H 	0.19200 0.54310 0.40610 0.07400
C 	C 	0.96680 0.58780 0.37730 -0.15100
H 	H 	0.96590 0.59730 0.40510 0.09600
H 	H 	0.96420 0.54990 0.37530 0.08900
C 	C 	0.31420 0.83480 0.41698 0.00100
C 	C 	0.06030 0.58630 0.37414 0.18200
C 	C 	0.49500 0.73660 0.21430 -0.13300
H 	H 	0.52370 0.75190 0.20180 0.10400
C 	C 	0.44620 0.73740 0.19600 0.18400
C 	C 	0.40310 0.71570 0.21510 -0.12600
H 	H 	0.37010 0.71740 0.20350 0.09700
O 	O 	0.44100 0.76260 0.16070 -0.21400
C 	C 	0.24120 0.86170 0.37670 0.25600
C 	C 	0.31470 0.78580 0.39818 -0.06000
H 	H 	0.33890 0.76030 0.40560 0.08000
C 	C 	0.45860 0.68960 0.26970 -0.03600
H 	H 	0.46300 0.67250 0.29380 0.07400
C 	C 	0.24230 0.81340 0.35701 -0.18300
H 	H 	0.21880 0.80650 0.33650 0.11000
C 	C 	0.06470 0.54960 0.40433 -0.13600
H 	H 	0.03490 0.53610 0.41650 0.09800
C 	C 	0.27780 0.87260 0.40628 -0.16800
H 	H 	0.27770 0.90510 0.41880 0.11600
C 	C 	0.92260 0.61280 0.35610 0.24100
H 	H 	0.88920 0.60460 0.36510 -0.04400
C 	C 	0.13330 0.93710 0.33580 -1.23100
H 	H 	0.14680 0.96870 0.34510 0.47300
C 	C 	0.10450 0.60640 0.35560 -0.13000
H 	H 	0.10100 0.63070 0.33520 0.10700
C 	C 	0.16920 0.89100 0.33830 0.76100
H 	H 	0.14930 0.85960 0.34430 -0.18200
H 	H 	0.18690 0.88590 0.31310 -0.17300
C 	C 	0.92520 0.64490 0.32610 -0.45600
H 	H 	0.95770 0.65440 0.31580 0.21100
H 	H 	0.89470 0.65830 0.31500 0.19600
C 	C 	0.90030 0.39600 0.49490 0.04400
N 	N 	0.92610 0.35580 0.51630 -0.10700
C 	C 	0.89180 0.31770 0.53240 0.02800
O 	O 	0.16751 0.48500 0.45934 -0.40600
C 	C 	0.09110 0.93860 0.32390 1.31300
H 	H 	0.07540 0.90840 0.31410 -0.39200
H 	H 	0.07280 0.97010 0.32400 -0.40600
O 	O 	0.58801 0.74294 0.25685 -0.39400
O 	O 	0.55685 0.68846 0.30328 -0.40100
C 	C 	0.46450 0.78110 0.08730 -0.37200
H 	H 	0.48860 0.77410 0.10720 0.18800
H 	H 	0.47610 0.79110 0.06220 0.16500
C 	C 	0.41420 0.77690 0.09440 0.15500
H 	H 	0.38910 0.78370 0.07510 -0.02000
C 	C 	0.39940 0.76040 0.13600 -0.06100
H 	H 	0.37190 0.78320 0.14590 0.06300
H 	H 	0.38570 0.72490 0.13550 0.06200
C 	C 	0.97960 0.35430 0.51870 0.09900
Cu	Cu	0.65783 0.74822 0.71885 0.90100
Cu	Cu	0.61924 0.68733 0.66296 0.90100
O 	O 	0.36059 0.89242 0.54086 -0.39200
O 	O 	0.46727 0.91857 0.54109 -0.38300
O 	O 	0.72159 0.74399 0.68536 -0.40000
O 	O 	0.59797 0.75506 0.63953 -0.39900
O 	O 	0.64724 0.62897 0.69436 -0.39600
O 	O 	0.38100 0.80730 0.54007 -0.40300
O 	O 	0.63427 0.80668 0.68617 -0.39800
C 	C 	0.72420 0.71980 0.65271 0.31600
O 	O 	0.67638 0.68091 0.74325 -0.40000
O 	O 	0.68762 0.69437 0.63669 -0.39300
O 	O 	0.90090 0.79380 0.63145 -0.37600
O 	O 	0.39060 0.99450 0.49580 -0.13500
C 	C 	0.67040 0.63700 0.72680 0.33200
O 	O 	0.60530 0.98622 0.64014 -0.18900
C 	C 	0.71460 0.44710 0.72828 0.33600
C 	C 	0.49220 0.87800 0.55273 0.32500
C 	C 	0.60930 0.79870 0.65414 0.32600
C 	C 	0.84560 0.64480 0.55213 0.32800
C 	C 	0.77580 0.72130 0.63167 0.00300
C 	C 	0.53340 0.88540 0.58387 -0.01700
C 	C 	0.59010 0.84630 0.63248 -0.01700
C 	C 	0.71320 0.49900 0.74879 -0.01500
C 	C 	0.69160 0.59040 0.74807 -0.01700
C 	C 	0.55380 0.84110 0.60208 -0.04000
H 	H 	0.54310 0.80800 0.59390 0.07400
C 	C 	0.58780 0.03320 0.62270 -0.15100
H 	H 	0.59730 0.03410 0.59490 0.09500
H 	H 	0.54990 0.03580 0.62470 0.08900
C 	C 	0.83480 0.68580 0.58302 0.00100
C 	C 	0.58630 0.93970 0.62586 0.18200
C 	C 	0.73660 0.50500 0.78570 -0.13300
H 	H 	0.75190 0.47630 0.79820 0.10400
C 	C 	0.73740 0.55380 0.80400 0.18400
C 	C 	0.71570 0.59690 0.78490 -0.12600
H 	H 	0.71740 0.62990 0.79650 0.09700
O 	O 	0.76260 0.55900 0.83930 -0.21400
C 	C 	0.86170 0.75880 0.62330 0.25600
C 	C 	0.78580 0.68530 0.60182 -0.06000
H 	H 	0.76030 0.66110 0.59440 0.08000
C 	C 	0.68960 0.54140 0.73030 -0.03600
H 	H 	0.67250 0.53700 0.70620 0.07400
C 	C 	0.81340 0.75770 0.64299 -0.18300
H 	H 	0.80650 0.78120 0.66350 0.11000
C 	C 	0.54960 0.93530 0.59567 -0.13600
H 	H 	0.53610 0.96510 0.58350 0.09700
C 	C 	0.87260 0.72220 0.59372 -0.16800
H 	H 	0.90510 0.72230 0.58120 0.11600
C 	C 	0.61280 0.07740 0.64390 0.24000
H 	H 	0.60460 0.11080 0.63490 -0.04400
C 	C 	0.93710 0.86670 0.66420 -1.23200
H 	H 	0.96870 0.85320 0.65490 0.47300
C 	C 	0.60640 0.89550 0.64440 -0.13000
H 	H 	0.63070 0.89900 0.66480 0.10700
C 	C 	0.89100 0.83080 0.66170 0.76100
H 	H 	0.85960 0.85070 0.65570 -0.18200
H 	H 	0.88590 0.81310 0.68690 -0.17300
C 	C 	0.64490 0.07480 0.67390 -0.45600
H 	H 	0.65440 0.04230 0.68420 0.21100
H 	H 	0.65830 0.10530 0.68500 0.19600
C 	C 	0.39600 0.09970 0.50510 0.04400
N 	N 	0.35580 0.07390 0.48370 -0.10700
C 	C 	0.31770 0.10820 0.46760 0.02800
O 	O 	0.48500 0.83249 0.54066 -0.40600
C 	C 	0.93860 0.90890 0.67610 1.31300
H 	H 	0.90840 0.92460 0.68590 -0.39200
H 	H 	0.97010 0.92720 0.67600 -0.40600
O 	O 	0.74294 0.41199 0.74315 -0.39400
O 	O 	0.68846 0.44315 0.69672 -0.40100
C 	C 	0.78110 0.53550 0.91270 -0.37000
H 	H 	0.77410 0.51140 0.89280 0.18900
H 	H 	0.79110 0.52390 0.93780 0.16600
C 	C 	0.77690 0.58580 0.90560 0.15800
H 	H 	0.78370 0.61090 0.92490 -0.01800
C 	C 	0.76040 0.60060 0.86400 -0.06300
H 	H 	0.78320 0.62810 0.85410 0.06400
H 	H 	0.72490 0.61430 0.86450 0.06600
C 	C 	0.35430 0.02040 0.48130 0.09900
Cu	Cu	0.34217 0.25178 0.71885 0.90100
Cu	Cu	0.38076 0.31267 0.66296 0.90100
O 	O 	0.63941 0.10758 0.54086 -0.39200
O 	O 	0.53273 0.08143 0.54109 -0.38300
O 	O 	0.27841 0.25601 0.68536 -0.40000
O 	O 	0.40203 0.24494 0.63953 -0.39900
O 	O 	0.35276 0.37103 0.69436 -0.39600
O 	O 	0.61900 0.19270 0.54007 -0.40300
O 	O 	0.36573 0.19332 0.68617 -0.39800
C 	C 	0.27580 0.28020 0.65271 0.31600
O 	O 	0.32362 0.31909 0.74325 -0.40000
O 	O 	0.31238 0.30563 0.63669 -0.39300
O 	O 	0.09910 0.20620 0.63145 -0.37600
O 	O 	0.60940 0.00550 0.49580 -0.13500
C 	C 	0.32960 0.36300 0.72680 0.33200
O 	O 	0.39470 0.01378 0.64014 -0.18900
C 	C 	0.28540 0.55290 0.72828 0.33600
C 	C 	0.50780 0.12200 0.55273 0.32500
C 	C 	0.39070 0.20130 0.65414 0.32600
C 	C 	0.15440 0.35520 0.55213 0.32800
C 	C 	0.22420 0.27870 0.63167 0.00300
C 	C 	0.46660 0.11460 0.58387 -0.01700
C 	C 	0.40990 0.15370 0.63248 -0.01700
C 	C 	0.28680 0.50100 0.74879 -0.01500
C 	C 	0.30840 0.40960 0.74807 -0.01700
C 	C 	0.44620 0.15890 0.60208 -0.04000
H 	H 	0.45690 0.19200 0.59390 0.07400
C 	C 	0.41220 0.96680 0.62270 -0.15100
H 	H 	0.40270 0.96590 0.59490 0.09500
H 	H 	0.45010 0.96420 0.62470 0.08900
C 	C 	0.16520 0.31420 0.58302 0.00100
C 	C 	0.41370 0.06030 0.62586 0.18200
C 	C 	0.26340 0.49500 0.78570 -0.13300
H 	H 	0.24810 0.52370 0.79820 0.10400
C 	C 	0.26260 0.44620 0.80400 0.18400
C 	C 	0.28430 0.40310 0.78490 -0.12600
H 	H 	0.28260 0.37010 0.79650 0.09700
O 	O 	0.23740 0.44100 0.83930 -0.21400
C 	C 	0.13830 0.24120 0.62330 0.25600
C 	C 	0.21420 0.31470 0.60182 -0.06000
H 	H 	0.23970 0.33890 0.59440 0.08000
C 	C 	0.31040 0.45860 0.73030 -0.03600
H 	H 	0.32750 0.46300 0.70620 0.07400
C 	C 	0.18660 0.24230 0.64299 -0.18300
H 	H 	0.19350 0.21880 0.66350 0.11000
C 	C 	0.45040 0.06470 0.59567 -0.13600
H 	H 	0.46390 0.03490 0.58350 0.09700
C 	C 	0.12740 0.27780 0.59372 -0.16800
H 	H 	0.09490 0.27770 0.58120 0.11600
C 	C 	0.38720 0.92260 0.64390 0.24000
H 	H 	0.39540 0.88920 0.63490 -0.04400
C 	C 	0.06290 0.13330 0.66420 -1.23200
H 	H 	0.03130 0.14680 0.65490 0.47300
C 	C 	0.39360 0.10450 0.64440 -0.13000
H 	H 	0.36930 0.10100 0.66480 0.10700
C 	C 	0.10900 0.16920 0.66170 0.76100
H 	H 	0.14040 0.14930 0.65570 -0.18200
H 	H 	0.11410 0.18690 0.68690 -0.17300
C 	C 	0.35510 0.92520 0.67390 -0.45600
H 	H 	0.34560 0.95770 0.68420 0.21100
H 	H 	0.34170 0.89470 0.68500 0.19600
C 	C 	0.60400 0.90030 0.50510 0.04400
N 	N 	0.64420 0.92610 0.48370 -0.10700
C 	C 	0.68230 0.89180 0.46760 0.02800
O 	O 	0.51500 0.16751 0.54066 -0.40600
C 	C 	0.06140 0.09110 0.67610 1.31300
H 	H 	0.09160 0.07540 0.68590 -0.39200
H 	H 	0.02990 0.07280 0.67600 -0.40600
O 	O 	0.25706 0.58801 0.74315 -0.39400
O 	O 	0.31154 0.55685 0.69672 -0.40100
C 	C 	0.21890 0.46450 0.91270 -0.37000
H 	H 	0.22590 0.48860 0.89280 0.18900
H 	H 	0.20890 0.47610 0.93780 0.16600
C 	C 	0.22310 0.41420 0.90560 0.15800
H 	H 	0.21630 0.38910 0.92490 -0.01800
C 	C 	0.23960 0.39940 0.86400 -0.06300
H 	H 	0.21680 0.37190 0.85410 0.06400
H 	H 	0.27510 0.38570 0.86450 0.06600
C 	C 	0.64570 0.97960 0.48130 0.09900
Cu	Cu	0.25178 0.65783 0.71885 0.90100
Cu	Cu	0.31267 0.61924 0.66296 0.90100
O 	O 	0.10758 0.36059 0.54086 -0.39200
O 	O 	0.08143 0.46727 0.54109 -0.38300
O 	O 	0.25601 0.72159 0.68536 -0.40000
O 	O 	0.24494 0.59797 0.63953 -0.39900
O 	O 	0.37103 0.64724 0.69436 -0.39600
O 	O 	0.19270 0.38100 0.54007 -0.40300
O 	O 	0.19332 0.63427 0.68617 -0.39800
C 	C 	0.28020 0.72420 0.65271 0.31600
O 	O 	0.31909 0.67638 0.74325 -0.40000
O 	O 	0.30563 0.68762 0.63669 -0.39300
O 	O 	0.20620 0.90090 0.63145 -0.37600
O 	O 	0.00550 0.39060 0.49580 -0.13500
C 	C 	0.36300 0.67040 0.72680 0.33200
O 	O 	0.01378 0.60530 0.64014 -0.18900
C 	C 	0.55290 0.71460 0.72828 0.33600
C 	C 	0.12200 0.49220 0.55273 0.32500
C 	C 	0.20130 0.60930 0.65414 0.32600
C 	C 	0.35520 0.84560 0.55213 0.32800
C 	C 	0.27870 0.77580 0.63167 0.00300
C 	C 	0.11460 0.53340 0.58387 -0.01700
C 	C 	0.15370 0.59010 0.63248 -0.01700
C 	C 	0.50100 0.71320 0.74879 -0.01500
C 	C 	0.40960 0.69160 0.74807 -0.01700
C 	C 	0.15890 0.55380 0.60208 -0.04000
H 	H 	0.19200 0.54310 0.59390 0.07400
C 	C 	0.96680 0.58780 0.62270 -0.15100
H 	H 	0.96590 0.59730 0.59490 0.09500
H 	H 	0.96420 0.54990 0.62470 0.08900
C 	C 	0.31420 0.83480 0.58302 0.00100
C 	C 	0.06030 0.58630 0.62586 0.18200
C 	C 	0.49500 0.73660 0.78570 -0.13300
H 	H 	0.52370 0.75190 0.79820 0.10400
C 	C 	0.44620 0.73740 0.80400 0.18400
C 	C 	0.40310 0.71570 0.78490 -0.12600
H 	H 	0.37010 0.71740 0.79650 0.09700
O 	O 	0.44100 0.76260 0.83930 -0.21400
C 	C 	0.24120 0.86170 0.62330 0.25600
C 	C 	0.31470 0.78580 0.60182 -0.06000
H 	H 	0.33890 0.76030 0.59440 0.08000
C 	C 	0.45860 0.68960 0.73030 -0.03600
H 	H 	0.46300 0.67250 0.70620 0.07400
C 	C 	0.24230 0.81340 0.64299 -0.18300
H 	H 	0.21880 0.80650 0.66350 0.11000
C 	C 	0.06470 0.54960 0.59567 -0.13600
H 	H 	0.03490 0.53610 0.58350 0.09700
C 	C 	0.27780 0.87260 0.59372 -0.16800
H 	H 	0.27770 0.90510 0.58120 0.11600
C 	C 	0.92260 0.61280 0.64390 0.24000
H 	H 	0.88920 0.60460 0.63490 -0.04400
C 	C 	0.13330 0.93710 0.66420 -1.23200
H 	H 	0.14680 0.96870 0.65490 0.47300
C 	C 	0.10450 0.60640 0.64440 -0.13000
H 	H 	0.10100 0.63070 0.66480 0.10700
C 	C 	0.16920 0.89100 0.66170 0.76100
H 	H 	0.14930 0.85960 0.65570 -0.18200
H 	H 	0.18690 0.88590 0.68690 -0.17300
C 	C 	0.92520 0.64490 0.67390 -0.45600
H 	H 	0.95770 0.65440 0.68420 0.21100
H 	H 	0.89470 0.65830 0.68500 0.19600
C 	C 	0.90030 0.39600 0.50510 0.04400
N 	N 	0.92610 0.35580 0.48370 -0.10700
C 	C 	0.89180 0.31770 0.46760 0.02800
O 	O 	0.16751 0.48500 0.54066 -0.40600
C 	C 	0.09110 0.93860 0.67610 1.31300
H 	H 	0.07540 0.90840 0.68590 -0.39200
H 	H 	0.07280 0.97010 0.67600 -0.40600
O 	O 	0.58801 0.74294 0.74315 -0.39400
O 	O 	0.55685 0.68846 0.69672 -0.40100
C 	C 	0.46450 0.78110 0.91270 -0.37000
H 	H 	0.48860 0.77410 0.89280 0.18900
H 	H 	0.47610 0.79110 0.93780 0.16600
C 	C 	0.41420 0.77690 0.90560 0.15800
H 	H 	0.38910 0.78370 0.92490 -0.01800
C 	C 	0.39940 0.76040 0.86400 -0.06300
H 	H 	0.37190 0.78320 0.85410 0.06400
H 	H 	0.38570 0.72490 0.86450 0.06600
C 	C 	0.97960 0.35430 0.48130 0.09900
Cu	Cu	0.74822 0.34217 0.71885 0.90100
Cu	Cu	0.68733 0.38076 0.66296 0.90100
O 	O 	0.89242 0.63941 0.54086 -0.39200
O 	O 	0.91857 0.53273 0.54109 -0.38300
O 	O 	0.74399 0.27841 0.68536 -0.40000
O 	O 	0.75506 0.40203 0.63953 -0.39900
O 	O 	0.62897 0.35276 0.69436 -0.39600
O 	O 	0.80730 0.61900 0.54007 -0.40300
O 	O 	0.80668 0.36573 0.68617 -0.39800
C 	C 	0.71980 0.27580 0.65271 0.31600
O 	O 	0.68091 0.32362 0.74325 -0.40000
O 	O 	0.69437 0.31238 0.63669 -0.39300
O 	O 	0.79380 0.09910 0.63145 -0.37600
O 	O 	0.99450 0.60940 0.49580 -0.13500
C 	C 	0.63700 0.32960 0.72680 0.33200
O 	O 	0.98622 0.39470 0.64014 -0.18900
C 	C 	0.44710 0.28540 0.72828 0.33600
C 	C 	0.87800 0.50780 0.55273 0.32500
C 	C 	0.79870 0.39070 0.65414 0.32600
C 	C 	0.64480 0.15440 0.55213 0.32800
C 	C 	0.72130 0.22420 0.63167 0.00300
C 	C 	0.88540 0.46660 0.58387 -0.01700
C 	C 	0.84630 0.40990 0.63248 -0.01700
C 	C 	0.49900 0.28680 0.74879 -0.01500
C 	C 	0.59040 0.30840 0.74807 -0.01700
C 	C 	0.84110 0.44620 0.60208 -0.04000
H 	H 	0.80800 0.45690 0.59390 0.07400
C 	C 	0.03320 0.41220 0.62270 -0.15100
H 	H 	0.03410 0.40270 0.59490 0.09500
H 	H 	0.03580 0.45010 0.62470 0.08900
C 	C 	0.68580 0.16520 0.58302 0.00100
C 	C 	0.93970 0.41370 0.62586 0.18200
C 	C 	0.50500 0.26340 0.78570 -0.13300
H 	H 	0.47630 0.24810 0.79820 0.10400
C 	C 	0.55380 0.26260 0.80400 0.18400
C 	C 	0.59690 0.28430 0.78490 -0.12600
H 	H 	0.62990 0.28260 0.79650 0.09700
O 	O 	0.55900 0.23740 0.83930 -0.21400
C 	C 	0.75880 0.13830 0.62330 0.25600
C 	C 	0.68530 0.21420 0.60182 -0.06000
H 	H 	0.66110 0.23970 0.59440 0.08000
C 	C 	0.54140 0.31040 0.73030 -0.03600
H 	H 	0.53700 0.32750 0.70620 0.07400
C 	C 	0.75770 0.18660 0.64299 -0.18300
H 	H 	0.78120 0.19350 0.66350 0.11000
C 	C 	0.93530 0.45040 0.59567 -0.13600
H 	H 	0.96510 0.46390 0.58350 0.09700
C 	C 	0.72220 0.12740 0.59372 -0.16800
H 	H 	0.72230 0.09490 0.58120 0.11600
C 	C 	0.07740 0.38720 0.64390 0.24000
H 	H 	0.11080 0.39540 0.63490 -0.04400
C 	C 	0.86670 0.06290 0.66420 -1.23200
H 	H 	0.85320 0.03130 0.65490 0.47300
C 	C 	0.89550 0.39360 0.64440 -0.13000
H 	H 	0.89900 0.36930 0.66480 0.10700
C 	C 	0.83080 0.10900 0.66170 0.76100
H 	H 	0.85070 0.14040 0.65570 -0.18200
H 	H 	0.81310 0.11410 0.68690 -0.17300
C 	C 	0.07480 0.35510 0.67390 -0.45600
H 	H 	0.04230 0.34560 0.68420 0.21100
H 	H 	0.10530 0.34170 0.68500 0.19600
C 	C 	0.09970 0.60400 0.50510 0.04400
N 	N 	0.07390 0.64420 0.48370 -0.10700
C 	C 	0.10820 0.68230 0.46760 0.02800
O 	O 	0.83249 0.51500 0.54066 -0.40600
C 	C 	0.90890 0.06140 0.67610 1.31300
H 	H 	0.92460 0.09160 0.68590 -0.39200
H 	H 	0.92720 0.02990 0.67600 -0.40600
O 	O 	0.41199 0.25706 0.74315 -0.39400
O 	O 	0.44315 0.31154 0.69672 -0.40100
C 	C 	0.53550 0.21890 0.91270 -0.37000
H 	H 	0.51140 0.22590 0.89280 0.18900
H 	H 	0.52390 0.20890 0.93780 0.16600
C 	C 	0.58580 0.22310 0.90560 0.15800
H 	H 	0.61090 0.21630 0.92490 -0.01800
C 	C 	0.60060 0.23960 0.86400 -0.06300
H 	H 	0.62810 0.21680 0.85410 0.06400
H 	H 	0.61430 0.27510 0.86450 0.06600
C 	C 	0.02040 0.64570 0.48130 0.09900
Cu	Cu	0.58787 0.08628 0.50000 0.91900
Cu	Cu	0.56485 0.18745 0.50000 0.90900
Cu	Cu	0.41213 0.91372 0.50000 0.91900
Cu	Cu	0.43515 0.81255 0.50000 0.90900
Cu	Cu	0.91372 0.58787 0.50000 0.91900
Cu	Cu	0.81255 0.56485 0.50000 0.90900
Cu	Cu	0.08628 0.41213 0.50000 0.91900
Cu	Cu	0.18745 0.43515 0.50000 0.90900
