data_crystal

_cell_length_a 19.00750
_cell_length_b 21.36600
_cell_length_c 23.33700
_cell_angle_alpha 90.00000
_cell_angle_beta  108.58800
_cell_angle_gamma 90.00000

_symmetry_space_group_name_	'P 1'
_symmetry_space_group_name_H-M	'P 1'

loop_
_symmetry_equiv_pos_as_xyz
  x,y,z

loop_
_atom_site_label
_atom_site_type_symbol
_atom_site_fract_x
_atom_site_fract_y
_atom_site_fract_z
_atom_site_charge
Ce	Ce	0.24433 0.22276 0.14510 2.01600
C 	C 	0.13090 0.20970 0.98790 0.32000
C 	C 	0.02330 0.23940 0.91110 0.11300
C 	C 	0.02930 0.16600 0.91480 0.11300
C 	C 	0.02450 0.19890 0.81740 0.27500
C 	C 	0.13090 0.09500 0.98300 0.08400
H 	H 	0.16750 0.10070 0.02310 -0.01900
H 	H 	0.09000 0.07010 0.98800 -0.00600
C 	C 	0.01800 0.08580 0.83060 0.06200
H 	H 	0.99310 0.08750 0.78680 0.03100
H 	H 	0.98560 0.06250 0.84830 0.00900
C 	C 	0.23980 0.04980 0.96410 0.27200
C 	C 	0.12620 0.01800 0.89710 0.11600
C 	C 	0.19060 0.98600 0.87970 0.10800
C 	C 	0.12310 0.04950 0.80010 0.27600
C 	C 	0.33000 0.98090 0.94200 0.05200
H 	H 	0.32540 0.93590 0.93350 0.01800
H 	H 	0.35550 0.98600 0.98540 0.03900
C 	C 	0.22970 0.99720 0.78510 0.05200
H 	H 	0.23460 0.95150 0.78480 0.01300
H 	H 	0.20430 0.01060 0.74340 0.03600
C 	C 	0.43240 0.04880 0.93760 0.28200
C 	C 	0.36930 0.99670 0.84660 0.10800
C 	C 	0.43330 0.03780 0.83770 0.11700
C 	C 	0.31810 0.07360 0.77400 0.27900
C 	C 	0.53050 0.10620 0.91360 0.05400
H 	H 	0.56820 0.08730 0.89850 0.01500
H 	H 	0.55060 0.10690 0.95780 0.03900
C 	C 	0.42640 0.12220 0.75690 0.06300
H 	H 	0.46820 0.09970 0.75040 0.01000
H 	H 	0.38970 0.12980 0.71710 0.01400
C 	C 	0.51180 0.21860 0.92770 0.26800
C 	C 	0.52220 0.19190 0.83360 0.11100
C 	C 	0.52400 0.26550 0.84050 0.11500
C 	C 	0.42100 0.23560 0.75910 0.35200
C 	C 	0.51460 0.33370 0.92890 0.05200
H 	H 	0.52830 0.32590 0.97240 0.04100
H 	H 	0.55470 0.35840 0.92200 0.01400
C 	C 	0.44250 0.34880 0.77070 0.08300
H 	H 	0.41560 0.34920 0.72720 -0.02200
H 	H 	0.48810 0.37320 0.77730 0.00400
C 	C 	0.40750 0.38130 0.94910 0.26700
C 	C 	0.42570 0.41320 0.85830 0.10800
C 	C 	0.35400 0.44540 0.86410 0.11000
C 	C 	0.32250 0.38050 0.77920 0.33900
C 	C 	0.30260 0.44700 0.95290 0.05800
H 	H 	0.29490 0.49200 0.94540 0.01200
H 	H 	0.32500 0.44130 0.99660 0.03300
C 	C 	0.21860 0.43750 0.79280 0.06400
H 	H 	0.19770 0.42650 0.74990 0.00900
H 	H 	0.21810 0.48320 0.79600 0.00800
C 	C 	0.21270 0.37430 0.97050 0.28500
C 	C 	0.16750 0.43460 0.88270 0.11400
C 	C 	0.10250 0.39370 0.89210 0.11300
C 	C 	0.12130 0.36550 0.80120 0.28000
C 	C 	0.10380 0.32260 0.98130 0.08900
H 	H 	0.05710 0.34320 0.97950 -0.00400
H 	H 	0.13530 0.32190 0.02370 -0.03300
C 	C 	0.01730 0.31240 0.82180 0.05100
H 	H 	0.97630 0.33330 0.83100 0.01400
H 	H 	0.00170 0.30550 0.77800 0.03600
C 	C 	0.95130 0.26280 0.91840 -0.17200
H 	H 	0.90960 0.24820 0.88420 0.07400
H 	H 	0.95110 0.30860 0.91780 0.07400
C 	C 	0.94060 0.24020 0.97750 -0.06500
H 	H 	0.97200 0.26520 0.01110 0.02700
H 	H 	0.88880 0.24690 0.97530 0.03500
C 	C 	0.95980 0.17140 0.98990 -0.03400
H 	H 	0.00640 0.16790 0.02340 0.01100
H 	H 	0.92080 0.15110 0.00250 0.02200
C 	C 	0.96780 0.13730 0.93550 -0.18400
H 	H 	0.92070 0.13930 0.90230 0.07700
H 	H 	0.97910 0.09320 0.94570 0.07400
C 	C 	0.07680 0.97120 0.91510 -0.17800
H 	H 	0.03580 0.99340 0.92300 0.07100
H 	H 	0.10560 0.95000 0.95240 0.07300
C 	C 	0.04560 0.92270 0.86560 -0.04400
H 	H 	0.00560 0.94190 0.83280 0.03700
H 	H 	0.02420 0.88810 0.88200 0.02200
C 	C 	0.10400 0.89650 0.83960 -0.06900
H 	H 	0.10000 0.85080 0.83770 0.04200
H 	H 	0.09390 0.91210 0.79830 0.04900
C 	C 	0.18290 0.91460 0.87700 -0.16300
H 	H 	0.21820 0.89670 0.85880 0.07300
H 	H 	0.19430 0.89780 0.91810 0.07200
C 	C 	0.37720 0.92780 0.83340 -0.15400
H 	H 	0.33910 0.90370 0.84390 0.07200
H 	H 	0.36910 0.92230 0.79010 0.06900
C 	C 	0.45340 0.90260 0.86900 -0.08000
H 	H 	0.45880 0.86010 0.85510 0.04700
H 	H 	0.45760 0.90020 0.91190 0.07600
C 	C 	0.51640 0.94380 0.86180 -0.04700
H 	H 	0.54540 0.96020 0.90150 0.06100
H 	H 	0.54950 0.91790 0.84700 0.02500
C 	C 	0.48840 0.99840 0.81840 -0.17600
H 	H 	0.53050 0.02450 0.81760 0.07400
H 	H 	0.46450 0.98230 0.77750 0.07400
C 	C 	0.58920 0.16750 0.81830 -0.16800
H 	H 	0.58120 0.12350 0.80620 0.07300
H 	H 	0.63330 0.17000 0.85420 0.07400
C 	C 	0.60220 0.20540 0.76710 -0.06300
H 	H 	0.64510 0.18820 0.75790 0.03500
H 	H 	0.55880 0.20130 0.73080 0.04500
C 	C 	0.61570 0.27410 0.78330 -0.05200
H 	H 	0.58570 0.29930 0.74910 0.03700
H 	H 	0.66800 0.28360 0.78930 0.03200
C 	C 	0.59730 0.29340 0.84030 -0.17600
H 	H 	0.63690 0.27920 0.87620 0.07600
H 	H 	0.59460 0.33910 0.84200 0.07600
C 	C 	0.48680 0.46000 0.85880 -0.16400
H 	H 	0.47330 0.48270 0.82040 0.07100
H 	H 	0.53350 0.43780 0.86400 0.07200
C 	C 	0.49650 0.50620 0.91100 -0.06800
H 	H 	0.50960 0.48300 0.94920 0.05000
H 	H 	0.53750 0.53480 0.91280 0.04900
C 	C 	0.42610 0.54420 0.90360 -0.05300
H 	H 	0.41850 0.54770 0.94310 0.04300
H 	H 	0.43330 0.58650 0.89030 0.04300
C 	C 	0.35660 0.51640 0.85870 -0.17000
H 	H 	0.35510 0.52740 0.81760 0.07200
H 	H 	0.31270 0.53450 0.86570 0.07500
C 	C 	0.14930 0.50320 0.88070 -0.17100
H 	H 	0.18810 0.52700 0.87090 0.07500
H 	H 	0.14870 0.51670 0.92070 0.07400
C 	C 	0.07400 0.51780 0.83380 -0.06100
H 	H 	0.07700 0.51040 0.79320 0.04700
H 	H 	0.06200 0.56200 0.83670 0.04800
C 	C 	0.01210 0.47700 0.84320 -0.05900
H 	H 	0.97350 0.50440 0.84900 0.04800
H 	H 	0.98960 0.45230 0.80650 0.04900
C 	C 	0.03860 0.43310 0.89670 -0.17100
H 	H 	0.05450 0.45740 0.93420 0.07300
H 	H 	0.99770 0.40580 0.89800 0.07400
N 	N 	0.08780 0.25863 0.96043 -0.18500
N 	N 	0.10236 0.15586 0.95935 -0.18000
N 	N 	0.03010 0.25233 0.85177 -0.16000
N 	N 	0.02550 0.14851 0.85373 -0.16400
N 	N 	0.16520 0.05986 0.94625 -0.16800
N 	N 	0.25650 0.00740 0.92759 -0.16200
N 	N 	0.08650 0.05151 0.84181 -0.16200
N 	N 	0.18420 0.01349 0.82200 -0.16100
N 	N 	0.37560 0.00816 0.90939 -0.15500
N 	N 	0.46570 0.06695 0.89618 -0.15900
N 	N 	0.30290 0.02455 0.80502 -0.16300
N 	N 	0.39320 0.08289 0.79200 -0.16700
N 	N 	0.51860 0.17060 0.89190 -0.16200
N 	N 	0.51010 0.27409 0.89812 -0.16100
N 	N 	0.45280 0.18188 0.78496 -0.18100
N 	N 	0.46250 0.28549 0.78898 -0.18500
N 	N 	0.44780 0.37070 0.91075 -0.15700
N 	N 	0.35390 0.42520 0.92366 -0.15900
N 	N 	0.39740 0.37909 0.80182 -0.18900
N 	N 	0.29470 0.41606 0.81486 -0.18000
N 	N 	0.23100 0.41634 0.93385 -0.16600
N 	N 	0.14030 0.35915 0.94719 -0.17400
N 	N 	0.17160 0.41118 0.82530 -0.16600
N 	N 	0.08140 0.35360 0.83864 -0.16200
O 	O 	0.18755 0.21344 0.03384 -0.53000
O 	O 	0.28568 0.07489 0.00808 -0.25900
O 	O 	0.45009 0.06498 0.99001 -0.23700
O 	O 	0.50850 0.21352 0.97900 -0.23000
O 	O 	0.41930 0.35685 0.99861 -0.23600
O 	O 	0.25605 0.35506 0.01782 -0.28600
O 	O 	0.01830 0.19703 0.76450 -0.25000
O 	O 	0.10140 0.07409 0.75024 -0.24700
O 	O 	0.27208 0.10464 0.73571 -0.29100
O 	O 	0.36550 0.23996 0.71490 -0.53000
O 	O 	0.28510 0.35371 0.73223 -0.51800
O 	O 	0.11140 0.34004 0.75170 -0.29400
Ce	Ce	0.24433 0.27724 0.64510 2.01600
C 	C 	0.13090 0.29030 0.48790 0.32100
C 	C 	0.02330 0.26060 0.41110 0.11400
C 	C 	0.02930 0.33400 0.41480 0.11300
C 	C 	0.02450 0.30110 0.31740 0.27500
C 	C 	0.13090 0.40500 0.48300 0.08400
H 	H 	0.16750 0.39930 0.52310 -0.01900
H 	H 	0.09000 0.42990 0.48800 -0.00600
C 	C 	0.01800 0.41420 0.33060 0.06200
H 	H 	0.99310 0.41250 0.28680 0.03100
H 	H 	0.98560 0.43750 0.34830 0.00900
C 	C 	0.23980 0.45020 0.46410 0.27200
C 	C 	0.12620 0.48200 0.39710 0.11300
C 	C 	0.19060 0.51400 0.37970 0.11100
C 	C 	0.12310 0.45050 0.30010 0.27600
C 	C 	0.33000 0.51910 0.44200 0.05400
H 	H 	0.32540 0.56410 0.43350 0.01800
H 	H 	0.35550 0.51400 0.48540 0.03900
C 	C 	0.22970 0.50280 0.28510 0.05600
H 	H 	0.23460 0.54850 0.28480 0.01200
H 	H 	0.20430 0.48940 0.24340 0.03400
C 	C 	0.43240 0.45120 0.43760 0.28200
C 	C 	0.36930 0.50330 0.34660 0.11000
C 	C 	0.43330 0.46220 0.33770 0.11500
C 	C 	0.31810 0.42640 0.27400 0.27900
C 	C 	0.53050 0.39380 0.41360 0.05400
H 	H 	0.56820 0.41270 0.39850 0.01500
H 	H 	0.55060 0.39310 0.45780 0.03900
C 	C 	0.42640 0.37780 0.25690 0.06300
H 	H 	0.46820 0.40030 0.25040 0.01000
H 	H 	0.38970 0.37020 0.21710 0.01400
C 	C 	0.51180 0.28140 0.42770 0.26800
C 	C 	0.52220 0.30810 0.33360 0.11100
C 	C 	0.52400 0.23450 0.34050 0.11500
C 	C 	0.42100 0.26440 0.25910 0.35200
C 	C 	0.51460 0.16630 0.42890 0.05200
H 	H 	0.52830 0.17410 0.47240 0.04100
H 	H 	0.55470 0.14160 0.42200 0.01400
C 	C 	0.44250 0.15120 0.27070 0.08300
H 	H 	0.41560 0.15080 0.22720 -0.02200
H 	H 	0.48810 0.12680 0.27730 0.00400
C 	C 	0.40750 0.11870 0.44910 0.26700
C 	C 	0.42570 0.08680 0.35830 0.10800
C 	C 	0.35400 0.05460 0.36410 0.11000
C 	C 	0.32250 0.11950 0.27920 0.33900
C 	C 	0.30260 0.05300 0.45290 0.05800
H 	H 	0.29490 0.00800 0.44540 0.01200
H 	H 	0.32500 0.05870 0.49660 0.03400
C 	C 	0.21860 0.06250 0.29280 0.06400
H 	H 	0.19770 0.07350 0.24990 0.00900
H 	H 	0.21810 0.01680 0.29600 0.00800
C 	C 	0.21270 0.12570 0.47050 0.28600
C 	C 	0.16750 0.06540 0.38270 0.11400
C 	C 	0.10250 0.10630 0.39210 0.11400
C 	C 	0.12130 0.13450 0.30120 0.28000
C 	C 	0.10380 0.17740 0.48130 0.09000
H 	H 	0.05710 0.15680 0.47950 -0.00400
H 	H 	0.13530 0.17810 0.52370 -0.03400
C 	C 	0.01730 0.18760 0.32180 0.05400
H 	H 	0.97630 0.16670 0.33100 0.01200
H 	H 	0.00170 0.19450 0.27800 0.03600
C 	C 	0.95130 0.23720 0.41840 -0.17200
H 	H 	0.90960 0.25180 0.38420 0.07400
H 	H 	0.95110 0.19140 0.41780 0.07400
C 	C 	0.94060 0.25980 0.47750 -0.06600
H 	H 	0.97200 0.23480 0.51110 0.02900
H 	H 	0.88880 0.25310 0.47530 0.03500
C 	C 	0.95980 0.32860 0.48990 -0.03700
H 	H 	0.00640 0.33210 0.52340 0.01100
H 	H 	0.92080 0.34890 0.50250 0.02300
C 	C 	0.96780 0.36270 0.43550 -0.18300
H 	H 	0.92070 0.36070 0.40230 0.07700
H 	H 	0.97910 0.40680 0.44570 0.07400
C 	C 	0.07680 0.52880 0.41510 -0.17500
H 	H 	0.03580 0.50660 0.42300 0.07100
H 	H 	0.10560 0.55000 0.45240 0.07200
C 	C 	0.04560 0.57730 0.36560 -0.04600
H 	H 	0.00560 0.55810 0.33280 0.03900
H 	H 	0.02420 0.61190 0.38200 0.02300
C 	C 	0.10400 0.60350 0.33960 -0.06700
H 	H 	0.10000 0.64920 0.33770 0.04200
H 	H 	0.09390 0.58790 0.29830 0.04800
C 	C 	0.18290 0.58540 0.37700 -0.16500
H 	H 	0.21820 0.60330 0.35880 0.07400
H 	H 	0.19430 0.60220 0.41810 0.07300
C 	C 	0.37720 0.57220 0.33340 -0.15600
H 	H 	0.33910 0.59630 0.34390 0.07200
H 	H 	0.36910 0.57770 0.29010 0.06900
C 	C 	0.45340 0.59740 0.36900 -0.07800
H 	H 	0.45880 0.63990 0.35510 0.04600
H 	H 	0.45760 0.59980 0.41190 0.07600
C 	C 	0.51640 0.55620 0.36180 -0.04900
H 	H 	0.54540 0.53980 0.40150 0.06200
H 	H 	0.54950 0.58210 0.34700 0.02600
C 	C 	0.48840 0.50160 0.31840 -0.17300
H 	H 	0.53050 0.47550 0.31760 0.07300
H 	H 	0.46450 0.51770 0.27750 0.07400
C 	C 	0.58920 0.33250 0.31830 -0.16800
H 	H 	0.58120 0.37650 0.30620 0.07300
H 	H 	0.63330 0.33000 0.35420 0.07400
C 	C 	0.60220 0.29460 0.26710 -0.06300
H 	H 	0.64510 0.31180 0.25790 0.03500
H 	H 	0.55880 0.29870 0.23080 0.04500
C 	C 	0.61570 0.22590 0.28330 -0.05200
H 	H 	0.58570 0.20070 0.24910 0.03700
H 	H 	0.66800 0.21640 0.28930 0.03200
C 	C 	0.59730 0.20660 0.34030 -0.17600
H 	H 	0.63690 0.22080 0.37620 0.07600
H 	H 	0.59460 0.16090 0.34200 0.07600
C 	C 	0.48680 0.04000 0.35880 -0.16400
H 	H 	0.47330 0.01730 0.32040 0.07100
H 	H 	0.53350 0.06220 0.36400 0.07200
C 	C 	0.49650 0.99380 0.41100 -0.06800
H 	H 	0.50960 0.01700 0.44920 0.05000
H 	H 	0.53750 0.96520 0.41280 0.04900
C 	C 	0.42610 0.95580 0.40360 -0.05300
H 	H 	0.41850 0.95230 0.44310 0.04300
H 	H 	0.43330 0.91350 0.39030 0.04300
C 	C 	0.35660 0.98360 0.35870 -0.17100
H 	H 	0.35510 0.97260 0.31760 0.07200
H 	H 	0.31270 0.96550 0.36570 0.07500
C 	C 	0.14930 0.99680 0.38070 -0.16900
H 	H 	0.18810 0.97300 0.37090 0.07400
H 	H 	0.14870 0.98330 0.42070 0.07300
C 	C 	0.07400 0.98220 0.33380 -0.06600
H 	H 	0.07700 0.98960 0.29320 0.04900
H 	H 	0.06200 0.93800 0.33670 0.05000
C 	C 	0.01210 0.02300 0.34320 -0.05100
H 	H 	0.97350 0.99560 0.34900 0.04600
H 	H 	0.98960 0.04770 0.30650 0.04500
C 	C 	0.03860 0.06690 0.39670 -0.17200
H 	H 	0.05450 0.04260 0.43420 0.07400
H 	H 	0.99770 0.09420 0.39800 0.07300
N 	N 	0.08780 0.24137 0.46043 -0.18500
N 	N 	0.10236 0.34414 0.45935 -0.18100
N 	N 	0.03010 0.24767 0.35177 -0.16000
N 	N 	0.02550 0.35149 0.35373 -0.16400
N 	N 	0.16520 0.44014 0.44625 -0.16700
N 	N 	0.25650 0.49260 0.42759 -0.16300
N 	N 	0.08650 0.44849 0.34181 -0.16100
N 	N 	0.18420 0.48651 0.32200 -0.16300
N 	N 	0.37560 0.49184 0.40939 -0.15600
N 	N 	0.46570 0.43305 0.39618 -0.15900
N 	N 	0.30290 0.47545 0.30502 -0.16400
N 	N 	0.39320 0.41711 0.29200 -0.16700
N 	N 	0.51860 0.32940 0.39190 -0.16200
N 	N 	0.51010 0.22591 0.39812 -0.16100
N 	N 	0.45280 0.31812 0.28496 -0.18100
N 	N 	0.46250 0.21451 0.28898 -0.18500
N 	N 	0.44780 0.12930 0.41075 -0.15700
N 	N 	0.35390 0.07480 0.42366 -0.15900
N 	N 	0.39740 0.12091 0.30182 -0.18900
N 	N 	0.29470 0.08394 0.31486 -0.18000
N 	N 	0.23100 0.08366 0.43385 -0.16600
N 	N 	0.14030 0.14085 0.44719 -0.17400
N 	N 	0.17160 0.08882 0.32530 -0.16600
N 	N 	0.08140 0.14640 0.33864 -0.16300
O 	O 	0.18755 0.28656 0.53384 -0.53000
O 	O 	0.28568 0.42511 0.50808 -0.25900
O 	O 	0.45009 0.43502 0.49001 -0.23700
O 	O 	0.50850 0.28648 0.47900 -0.23000
O 	O 	0.41930 0.14315 0.49861 -0.23600
O 	O 	0.25605 0.14494 0.51782 -0.28600
O 	O 	0.01830 0.30297 0.26450 -0.25000
O 	O 	0.10140 0.42591 0.25024 -0.24700
O 	O 	0.27208 0.39536 0.23571 -0.29100
O 	O 	0.36550 0.26004 0.21490 -0.53000
O 	O 	0.28510 0.14629 0.23223 -0.51800
O 	O 	0.11140 0.15996 0.25170 -0.29400
Ce	Ce	0.75567 0.72276 0.35490 2.01600
C 	C 	0.86910 0.70970 0.51210 0.32100
C 	C 	0.97670 0.73940 0.58890 0.11400
C 	C 	0.97070 0.66600 0.58520 0.11300
C 	C 	0.97550 0.69890 0.68260 0.27500
C 	C 	0.86910 0.59500 0.51700 0.08400
H 	H 	0.83250 0.60070 0.47690 -0.01900
H 	H 	0.91000 0.57010 0.51200 -0.00600
C 	C 	0.98200 0.58580 0.66940 0.06200
H 	H 	0.00690 0.58750 0.71320 0.03100
H 	H 	0.01440 0.56250 0.65170 0.00900
C 	C 	0.76020 0.54980 0.53590 0.27200
C 	C 	0.87380 0.51800 0.60290 0.11300
C 	C 	0.80940 0.48600 0.62030 0.11100
C 	C 	0.87690 0.54950 0.69990 0.27600
C 	C 	0.67000 0.48090 0.55800 0.05400
H 	H 	0.67460 0.43590 0.56650 0.01800
H 	H 	0.64450 0.48600 0.51460 0.03900
C 	C 	0.77030 0.49720 0.71490 0.05600
H 	H 	0.76540 0.45150 0.71520 0.01200
H 	H 	0.79570 0.51060 0.75660 0.03400
C 	C 	0.56760 0.54880 0.56240 0.28200
C 	C 	0.63070 0.49670 0.65340 0.11000
C 	C 	0.56670 0.53780 0.66230 0.11500
C 	C 	0.68190 0.57360 0.72600 0.27900
C 	C 	0.46950 0.60620 0.58640 0.05400
H 	H 	0.43180 0.58730 0.60150 0.01500
H 	H 	0.44940 0.60690 0.54220 0.03900
C 	C 	0.57360 0.62220 0.74310 0.06300
H 	H 	0.53180 0.59970 0.74960 0.01000
H 	H 	0.61030 0.62980 0.78290 0.01400
C 	C 	0.48820 0.71860 0.57230 0.26800
C 	C 	0.47780 0.69190 0.66640 0.11100
C 	C 	0.47600 0.76550 0.65950 0.11500
C 	C 	0.57900 0.73560 0.74090 0.35200
C 	C 	0.48540 0.83370 0.57110 0.05200
H 	H 	0.47170 0.82590 0.52760 0.04100
H 	H 	0.44530 0.85840 0.57800 0.01400
C 	C 	0.55750 0.84880 0.72930 0.08300
H 	H 	0.58440 0.84920 0.77280 -0.02200
H 	H 	0.51190 0.87320 0.72270 0.00400
C 	C 	0.59250 0.88130 0.55090 0.26700
C 	C 	0.57430 0.91320 0.64170 0.10800
C 	C 	0.64600 0.94540 0.63590 0.11000
C 	C 	0.67750 0.88050 0.72080 0.33900
C 	C 	0.69740 0.94700 0.54710 0.05800
H 	H 	0.70510 0.99200 0.55460 0.01200
H 	H 	0.67500 0.94130 0.50340 0.03400
C 	C 	0.78140 0.93750 0.70720 0.06400
H 	H 	0.80230 0.92650 0.75010 0.00900
H 	H 	0.78190 0.98320 0.70400 0.00800
C 	C 	0.78730 0.87430 0.52950 0.28600
C 	C 	0.83250 0.93460 0.61730 0.11400
C 	C 	0.89750 0.89370 0.60790 0.11400
C 	C 	0.87870 0.86550 0.69880 0.28000
C 	C 	0.89620 0.82260 0.51870 0.09000
H 	H 	0.94290 0.84320 0.52050 -0.00400
H 	H 	0.86470 0.82190 0.47630 -0.03400
C 	C 	0.98270 0.81240 0.67820 0.05400
H 	H 	0.02370 0.83330 0.66900 0.01200
H 	H 	0.99830 0.80550 0.72200 0.03600
C 	C 	0.04870 0.76280 0.58160 -0.17200
H 	H 	0.09040 0.74820 0.61580 0.07400
H 	H 	0.04890 0.80860 0.58220 0.07400
C 	C 	0.05940 0.74020 0.52250 -0.06600
H 	H 	0.02800 0.76520 0.48890 0.02900
H 	H 	0.11120 0.74690 0.52470 0.03500
C 	C 	0.04020 0.67140 0.51010 -0.03700
H 	H 	0.99360 0.66790 0.47660 0.01100
H 	H 	0.07920 0.65110 0.49750 0.02300
C 	C 	0.03220 0.63730 0.56450 -0.18300
H 	H 	0.07930 0.63930 0.59770 0.07700
H 	H 	0.02090 0.59320 0.55430 0.07400
C 	C 	0.92320 0.47120 0.58490 -0.17500
H 	H 	0.96420 0.49340 0.57700 0.07100
H 	H 	0.89440 0.45000 0.54760 0.07200
C 	C 	0.95440 0.42270 0.63440 -0.04600
H 	H 	0.99440 0.44190 0.66720 0.03900
H 	H 	0.97580 0.38810 0.61800 0.02300
C 	C 	0.89600 0.39650 0.66040 -0.06700
H 	H 	0.90000 0.35080 0.66230 0.04200
H 	H 	0.90610 0.41210 0.70170 0.04800
C 	C 	0.81710 0.41460 0.62300 -0.16500
H 	H 	0.78180 0.39670 0.64120 0.07400
H 	H 	0.80570 0.39780 0.58190 0.07300
C 	C 	0.62280 0.42780 0.66660 -0.15600
H 	H 	0.66090 0.40370 0.65610 0.07200
H 	H 	0.63090 0.42230 0.70990 0.06900
C 	C 	0.54660 0.40260 0.63100 -0.07800
H 	H 	0.54120 0.36010 0.64490 0.04600
H 	H 	0.54240 0.40020 0.58810 0.07600
C 	C 	0.48360 0.44380 0.63820 -0.04900
H 	H 	0.45460 0.46020 0.59850 0.06200
H 	H 	0.45050 0.41790 0.65300 0.02600
C 	C 	0.51160 0.49840 0.68160 -0.17300
H 	H 	0.46950 0.52450 0.68240 0.07300
H 	H 	0.53550 0.48230 0.72250 0.07400
C 	C 	0.41080 0.66750 0.68170 -0.16800
H 	H 	0.41880 0.62350 0.69380 0.07300
H 	H 	0.36670 0.67000 0.64580 0.07400
C 	C 	0.39780 0.70540 0.73290 -0.06300
H 	H 	0.35490 0.68820 0.74210 0.03500
H 	H 	0.44120 0.70130 0.76920 0.04500
C 	C 	0.38430 0.77410 0.71670 -0.05200
H 	H 	0.41430 0.79930 0.75090 0.03700
H 	H 	0.33200 0.78360 0.71070 0.03200
C 	C 	0.40270 0.79340 0.65970 -0.17600
H 	H 	0.36310 0.77920 0.62380 0.07600
H 	H 	0.40540 0.83910 0.65800 0.07600
C 	C 	0.51320 0.96000 0.64120 -0.16400
H 	H 	0.52670 0.98270 0.67960 0.07100
H 	H 	0.46650 0.93780 0.63600 0.07200
C 	C 	0.50350 0.00620 0.58900 -0.06800
H 	H 	0.49040 0.98300 0.55080 0.05000
H 	H 	0.46250 0.03480 0.58720 0.04900
C 	C 	0.57390 0.04420 0.59640 -0.05300
H 	H 	0.58150 0.04770 0.55690 0.04300
H 	H 	0.56670 0.08650 0.60970 0.04300
C 	C 	0.64340 0.01640 0.64130 -0.17100
H 	H 	0.64490 0.02740 0.68240 0.07200
H 	H 	0.68730 0.03450 0.63430 0.07500
C 	C 	0.85070 0.00320 0.61930 -0.16900
H 	H 	0.81190 0.02700 0.62910 0.07400
H 	H 	0.85130 0.01670 0.57930 0.07300
C 	C 	0.92600 0.01780 0.66620 -0.06600
H 	H 	0.92300 0.01040 0.70680 0.04900
H 	H 	0.93800 0.06200 0.66330 0.05000
C 	C 	0.98790 0.97700 0.65680 -0.05100
H 	H 	0.02650 0.00440 0.65100 0.04600
H 	H 	0.01040 0.95230 0.69350 0.04500
C 	C 	0.96140 0.93310 0.60330 -0.17200
H 	H 	0.94550 0.95740 0.56580 0.07400
H 	H 	0.00230 0.90580 0.60200 0.07300
N 	N 	0.91220 0.75863 0.53957 -0.18500
N 	N 	0.89764 0.65586 0.54065 -0.18100
N 	N 	0.96990 0.75233 0.64823 -0.16000
N 	N 	0.97450 0.64851 0.64627 -0.16400
N 	N 	0.83480 0.55986 0.55375 -0.16700
N 	N 	0.74350 0.50740 0.57241 -0.16300
N 	N 	0.91350 0.55151 0.65819 -0.16100
N 	N 	0.81580 0.51349 0.67800 -0.16300
N 	N 	0.62440 0.50816 0.59061 -0.15600
N 	N 	0.53430 0.56695 0.60382 -0.15900
N 	N 	0.69710 0.52455 0.69498 -0.16400
N 	N 	0.60680 0.58289 0.70800 -0.16700
N 	N 	0.48140 0.67060 0.60810 -0.16200
N 	N 	0.48990 0.77409 0.60188 -0.16100
N 	N 	0.54720 0.68188 0.71504 -0.18100
N 	N 	0.53750 0.78549 0.71102 -0.18500
N 	N 	0.55220 0.87070 0.58925 -0.15700
N 	N 	0.64610 0.92520 0.57634 -0.15900
N 	N 	0.60260 0.87909 0.69818 -0.18900
N 	N 	0.70530 0.91606 0.68514 -0.18000
N 	N 	0.76900 0.91634 0.56615 -0.16600
N 	N 	0.85970 0.85915 0.55281 -0.17400
N 	N 	0.82840 0.91118 0.67470 -0.16600
N 	N 	0.91860 0.85360 0.66136 -0.16300
O 	O 	0.81245 0.71344 0.46616 -0.53000
O 	O 	0.71432 0.57489 0.49192 -0.25900
O 	O 	0.54991 0.56498 0.50999 -0.23700
O 	O 	0.49150 0.71352 0.52100 -0.23000
O 	O 	0.58070 0.85685 0.50139 -0.23600
O 	O 	0.74395 0.85506 0.48218 -0.28600
O 	O 	0.98170 0.69703 0.73550 -0.25000
O 	O 	0.89860 0.57409 0.74976 -0.24700
O 	O 	0.72792 0.60464 0.76429 -0.29100
O 	O 	0.63450 0.73996 0.78510 -0.53000
O 	O 	0.71490 0.85371 0.76777 -0.51800
O 	O 	0.88860 0.84004 0.74830 -0.29400
Ce	Ce	0.75567 0.77724 0.85490 2.01600
C 	C 	0.86910 0.79030 0.01210 0.32000
C 	C 	0.97670 0.76060 0.08890 0.11300
C 	C 	0.97070 0.83400 0.08520 0.11300
C 	C 	0.97550 0.80110 0.18260 0.27500
C 	C 	0.86910 0.90500 0.01700 0.08400
H 	H 	0.83250 0.89930 0.97690 -0.01900
H 	H 	0.91000 0.92990 0.01200 -0.00600
C 	C 	0.98200 0.91420 0.16940 0.06200
H 	H 	0.00690 0.91250 0.21320 0.03100
H 	H 	0.01440 0.93750 0.15170 0.00900
C 	C 	0.76020 0.95020 0.03590 0.27200
C 	C 	0.87380 0.98200 0.10290 0.11600
C 	C 	0.80940 0.01400 0.12030 0.10800
C 	C 	0.87690 0.95050 0.19990 0.27600
C 	C 	0.67000 0.01910 0.05800 0.05200
H 	H 	0.67460 0.06410 0.06650 0.01800
H 	H 	0.64450 0.01400 0.01460 0.03900
C 	C 	0.77030 0.00280 0.21490 0.05200
H 	H 	0.76540 0.04850 0.21520 0.01300
H 	H 	0.79570 0.98940 0.25660 0.03600
C 	C 	0.56760 0.95120 0.06240 0.28200
C 	C 	0.63070 0.00330 0.15340 0.10800
C 	C 	0.56670 0.96220 0.16230 0.11700
C 	C 	0.68190 0.92640 0.22600 0.27900
C 	C 	0.46950 0.89380 0.08640 0.05400
H 	H 	0.43180 0.91270 0.10150 0.01500
H 	H 	0.44940 0.89310 0.04220 0.03900
C 	C 	0.57360 0.87780 0.24310 0.06300
H 	H 	0.53180 0.90030 0.24960 0.01000
H 	H 	0.61030 0.87020 0.28290 0.01400
C 	C 	0.48820 0.78140 0.07230 0.26800
C 	C 	0.47780 0.80810 0.16640 0.11100
C 	C 	0.47600 0.73450 0.15950 0.11500
C 	C 	0.57900 0.76440 0.24090 0.35200
C 	C 	0.48540 0.66630 0.07110 0.05200
H 	H 	0.47170 0.67410 0.02760 0.04100
H 	H 	0.44530 0.64160 0.07800 0.01400
C 	C 	0.55750 0.65120 0.22930 0.08300
H 	H 	0.58440 0.65080 0.27280 -0.02200
H 	H 	0.51190 0.62680 0.22270 0.00400
C 	C 	0.59250 0.61870 0.05090 0.26700
C 	C 	0.57430 0.58680 0.14170 0.10800
C 	C 	0.64600 0.55460 0.13590 0.11000
C 	C 	0.67750 0.61950 0.22080 0.33900
C 	C 	0.69740 0.55300 0.04710 0.05800
H 	H 	0.70510 0.50800 0.05460 0.01200
H 	H 	0.67500 0.55870 0.00340 0.03300
C 	C 	0.78140 0.56250 0.20720 0.06400
H 	H 	0.80230 0.57350 0.25010 0.00900
H 	H 	0.78190 0.51680 0.20400 0.00800
C 	C 	0.78730 0.62570 0.02950 0.28500
C 	C 	0.83250 0.56540 0.11730 0.11400
C 	C 	0.89750 0.60630 0.10790 0.11300
C 	C 	0.87870 0.63450 0.19880 0.28000
C 	C 	0.89620 0.67740 0.01870 0.08900
H 	H 	0.94290 0.65680 0.02050 -0.00400
H 	H 	0.86470 0.67810 0.97630 -0.03300
C 	C 	0.98270 0.68760 0.17820 0.05100
H 	H 	0.02370 0.66670 0.16900 0.01400
H 	H 	0.99830 0.69450 0.22200 0.03600
C 	C 	0.04870 0.73720 0.08160 -0.17200
H 	H 	0.09040 0.75180 0.11580 0.07400
H 	H 	0.04890 0.69140 0.08220 0.07400
C 	C 	0.05940 0.75980 0.02250 -0.06500
H 	H 	0.02800 0.73480 0.98890 0.02700
H 	H 	0.11120 0.75310 0.02470 0.03500
C 	C 	0.04020 0.82860 0.01010 -0.03400
H 	H 	0.99360 0.83210 0.97660 0.01100
H 	H 	0.07920 0.84890 0.99750 0.02200
C 	C 	0.03220 0.86270 0.06450 -0.18400
H 	H 	0.07930 0.86070 0.09770 0.07700
H 	H 	0.02090 0.90680 0.05430 0.07400
C 	C 	0.92320 0.02880 0.08490 -0.17800
H 	H 	0.96420 0.00660 0.07700 0.07100
H 	H 	0.89440 0.05000 0.04760 0.07300
C 	C 	0.95440 0.07730 0.13440 -0.04400
H 	H 	0.99440 0.05810 0.16720 0.03700
H 	H 	0.97580 0.11190 0.11800 0.02200
C 	C 	0.89600 0.10350 0.16040 -0.06900
H 	H 	0.90000 0.14920 0.16230 0.04200
H 	H 	0.90610 0.08790 0.20170 0.04900
C 	C 	0.81710 0.08540 0.12300 -0.16300
H 	H 	0.78180 0.10330 0.14120 0.07300
H 	H 	0.80570 0.10220 0.08190 0.07200
C 	C 	0.62280 0.07220 0.16660 -0.15400
H 	H 	0.66090 0.09630 0.15610 0.07200
H 	H 	0.63090 0.07770 0.20990 0.06900
C 	C 	0.54660 0.09740 0.13100 -0.08000
H 	H 	0.54120 0.13990 0.14490 0.04700
H 	H 	0.54240 0.09980 0.08810 0.07600
C 	C 	0.48360 0.05620 0.13820 -0.04700
H 	H 	0.45460 0.03980 0.09850 0.06100
H 	H 	0.45050 0.08210 0.15300 0.02500
C 	C 	0.51160 0.00160 0.18160 -0.17600
H 	H 	0.46950 0.97550 0.18240 0.07400
H 	H 	0.53550 0.01770 0.22250 0.07400
C 	C 	0.41080 0.83250 0.18170 -0.16800
H 	H 	0.41880 0.87650 0.19380 0.07300
H 	H 	0.36670 0.83000 0.14580 0.07400
C 	C 	0.39780 0.79460 0.23290 -0.06300
H 	H 	0.35490 0.81180 0.24210 0.03500
H 	H 	0.44120 0.79870 0.26920 0.04500
C 	C 	0.38430 0.72590 0.21670 -0.05200
H 	H 	0.41430 0.70070 0.25090 0.03700
H 	H 	0.33200 0.71640 0.21070 0.03200
C 	C 	0.40270 0.70660 0.15970 -0.17600
H 	H 	0.36310 0.72080 0.12380 0.07600
H 	H 	0.40540 0.66090 0.15800 0.07600
C 	C 	0.51320 0.54000 0.14120 -0.16400
H 	H 	0.52670 0.51730 0.17960 0.07100
H 	H 	0.46650 0.56220 0.13600 0.07200
C 	C 	0.50350 0.49380 0.08900 -0.06800
H 	H 	0.49040 0.51700 0.05080 0.05000
H 	H 	0.46250 0.46520 0.08720 0.04900
C 	C 	0.57390 0.45580 0.09640 -0.05300
H 	H 	0.58150 0.45230 0.05690 0.04300
H 	H 	0.56670 0.41350 0.10970 0.04300
C 	C 	0.64340 0.48360 0.14130 -0.17000
H 	H 	0.64490 0.47260 0.18240 0.07200
H 	H 	0.68730 0.46550 0.13430 0.07500
C 	C 	0.85070 0.49680 0.11930 -0.17100
H 	H 	0.81190 0.47300 0.12910 0.07500
H 	H 	0.85130 0.48330 0.07930 0.07400
C 	C 	0.92600 0.48220 0.16620 -0.06100
H 	H 	0.92300 0.48960 0.20680 0.04700
H 	H 	0.93800 0.43800 0.16330 0.04800
C 	C 	0.98790 0.52300 0.15680 -0.05900
H 	H 	0.02650 0.49560 0.15100 0.04800
H 	H 	0.01040 0.54770 0.19350 0.04900
C 	C 	0.96140 0.56690 0.10330 -0.17100
H 	H 	0.94550 0.54260 0.06580 0.07300
H 	H 	0.00230 0.59420 0.10200 0.07400
N 	N 	0.91220 0.74137 0.03957 -0.18500
N 	N 	0.89764 0.84414 0.04065 -0.18000
N 	N 	0.96990 0.74767 0.14823 -0.16000
N 	N 	0.97450 0.85149 0.14627 -0.16400
N 	N 	0.83480 0.94014 0.05375 -0.16800
N 	N 	0.74350 0.99260 0.07241 -0.16200
N 	N 	0.91350 0.94849 0.15819 -0.16200
N 	N 	0.81580 0.98651 0.17800 -0.16100
N 	N 	0.62440 0.99184 0.09061 -0.15500
N 	N 	0.53430 0.93305 0.10382 -0.15900
N 	N 	0.69710 0.97545 0.19498 -0.16300
N 	N 	0.60680 0.91711 0.20800 -0.16700
N 	N 	0.48140 0.82940 0.10810 -0.16200
N 	N 	0.48990 0.72591 0.10188 -0.16100
N 	N 	0.54720 0.81812 0.21504 -0.18100
N 	N 	0.53750 0.71451 0.21102 -0.18500
N 	N 	0.55220 0.62930 0.08925 -0.15700
N 	N 	0.64610 0.57480 0.07634 -0.15900
N 	N 	0.60260 0.62091 0.19818 -0.18900
N 	N 	0.70530 0.58394 0.18514 -0.18000
N 	N 	0.76900 0.58366 0.06615 -0.16600
N 	N 	0.85970 0.64085 0.05281 -0.17400
N 	N 	0.82840 0.58882 0.17470 -0.16600
N 	N 	0.91860 0.64640 0.16136 -0.16200
O 	O 	0.81245 0.78656 0.96616 -0.53000
O 	O 	0.71432 0.92511 0.99192 -0.25900
O 	O 	0.54991 0.93502 0.00999 -0.23700
O 	O 	0.49150 0.78648 0.02100 -0.23000
O 	O 	0.58070 0.64315 0.00139 -0.23600
O 	O 	0.74395 0.64494 0.98218 -0.28600
O 	O 	0.98170 0.80297 0.23550 -0.25000
O 	O 	0.89860 0.92591 0.24976 -0.24700
O 	O 	0.72792 0.89536 0.26429 -0.29100
O 	O 	0.63450 0.76004 0.28510 -0.53000
O 	O 	0.71490 0.64629 0.26777 -0.51800
O 	O 	0.88860 0.65996 0.24830 -0.29400
