data_crystal

_cell_length_a 18.91600
_cell_length_b 21.13900
_cell_length_c 23.22900
_cell_angle_alpha 90.00000
_cell_angle_beta  109.07900
_cell_angle_gamma 90.00000

_symmetry_space_group_name_	'P 1'
_symmetry_space_group_name_H-M	'P 1'

loop_
_symmetry_equiv_pos_as_xyz
  x,y,z

loop_
_atom_site_label
_atom_site_type_symbol
_atom_site_fract_x
_atom_site_fract_y
_atom_site_fract_z
_atom_site_charge
Nd	Nd	0.75180 0.28422 0.14593 1.62100
C 	C 	0.82260 0.38330 0.28072 0.34900
C 	C 	0.85510 0.44700 0.36570 0.10900
C 	C 	0.92590 0.41580 0.35910 0.11300
C 	C 	0.90930 0.38230 0.45030 0.27000
C 	C 	0.94280 0.35180 0.27160 0.10500
H 	H 	0.91590 0.35250 0.22820 -0.02500
H 	H 	0.98800 0.37660 0.27870 -0.00600
C 	C 	0.01760 0.33690 0.43100 0.04800
H 	H 	0.03140 0.32860 0.47440 0.04100
H 	H 	0.05730 0.36180 0.42440 0.01500
C 	C 	0.92180 0.23830 0.26080 0.36800
C 	C 	0.02670 0.26800 0.34160 0.11700
C 	C 	0.02460 0.19430 0.33430 0.11200
C 	C 	0.01410 0.22070 0.42900 0.26800
C 	C 	0.92830 0.12370 0.25732 0.08400
H 	H 	0.89300 0.13120 0.21690 0.01600
H 	H 	0.97060 0.10100 0.25250 0.00400
C 	C 	0.03210 0.10790 0.41450 0.05100
H 	H 	0.06970 0.08840 0.40020 0.01600
H 	H 	0.05160 0.10880 0.45870 0.04000
C 	C 	0.81880 0.07720 0.27230 0.28600
C 	C 	0.93410 0.03980 0.33647 0.11900
C 	C 	0.86850 0.99880 0.34540 0.11000
C 	C 	0.93330 0.05030 0.43750 0.28700
C 	C 	0.72830 0.00080 0.28250 0.06000
H 	H 	0.70230 0.01560 0.24150 0.03600
H 	H 	0.73290 0.95520 0.28080 0.01000
C 	C 	0.83170 0.98040 0.44090 0.04600
H 	H 	0.85770 0.98470 0.48420 0.04000
H 	H 	0.82700 0.93560 0.43150 0.02000
C 	C 	0.62140 0.05220 0.29940 0.27800
C 	C 	0.69160 0.98610 0.37915 0.10800
C 	C 	0.62590 0.01770 0.39590 0.12300
C 	C 	0.74220 0.04970 0.46487 0.28000
C 	C 	0.51550 0.08620 0.33050 0.05800
H 	H 	0.48960 0.08840 0.28690 0.03300
H 	H 	0.48420 0.06260 0.34850 0.01000
C 	C 	0.63220 0.09400 0.48355 0.09100
H 	H 	0.66880 0.09890 0.52380 -0.01200
H 	H 	0.59150 0.06860 0.48790 -0.00800
C 	C 	0.52350 0.20020 0.31930 0.27200
C 	C 	0.52970 0.16660 0.41614 0.11800
C 	C 	0.52370 0.23950 0.41317 0.11300
C 	C 	0.63210 0.20921 0.49021 0.34300
C 	C 	0.51530 0.31420 0.32360 0.05300
H 	H 	0.49860 0.30770 0.27990 0.03700
H 	H 	0.47520 0.33520 0.33360 0.01300
C 	C 	0.60380 0.32320 0.48350 0.09500
H 	H 	0.63410 0.32330 0.52620 -0.01300
H 	H 	0.55660 0.34350 0.48020 -0.00300
C 	C 	0.61980 0.36580 0.30273 0.28000
C 	C 	0.60290 0.39500 0.39436 0.11500
C 	C 	0.66810 0.43590 0.38500 0.11800
C 	C 	0.71340 0.37630 0.47300 0.27200
C 	C 	0.71830 0.43880 0.29410 0.07300
H 	H 	0.69670 0.42770 0.25140 0.01300
H 	H 	0.71750 0.48450 0.29720 0.00500
C 	C 	0.80400 0.44830 0.45550 0.05500
H 	H 	0.82710 0.44160 0.49900 0.03600
H 	H 	0.79680 0.49340 0.44880 0.01300
C 	C 	0.85630 0.51910 0.36070 -0.17800
H 	H 	0.85300 0.53070 0.31950 0.07500
H 	H 	0.81290 0.53650 0.36860 0.07800
C 	C 	0.92630 0.54760 0.40480 -0.05000
H 	H 	0.93240 0.59010 0.39130 0.04300
H 	H 	0.91990 0.55120 0.44440 0.04200
C 	C 	0.99600 0.51100 0.41160 -0.06800
H 	H 	0.01040 0.48820 0.45000 0.05000
H 	H 	0.03610 0.54000 0.41270 0.05200
C 	C 	0.98550 0.46420 0.35970 -0.17400
H 	H 	0.97090 0.48670 0.32120 0.07500
H 	H 	0.03240 0.44270 0.36450 0.07700
C 	C 	0.09950 0.29640 0.34130 -0.18400
H 	H 	0.13950 0.28260 0.37720 0.07900
H 	H 	0.09650 0.34220 0.34270 0.08000
C 	C 	0.11750 0.27670 0.28370 -0.05800
H 	H 	0.08710 0.30160 0.24950 0.04000
H 	H 	0.16950 0.28630 0.28960 0.03500
C 	C 	0.10400 0.20770 0.26810 -0.05200
H 	H 	0.06060 0.20370 0.23180 0.04200
H 	H 	0.14670 0.19070 0.25890 0.03300
C 	C 	0.09160 0.16950 0.31800 -0.18000
H 	H 	0.13600 0.17120 0.35380 0.07800
H 	H 	0.08300 0.12570 0.30530 0.07700
C 	C 	0.98910 0.00040 0.31770 -0.17500
H 	H 	0.03140 0.02640 0.31780 0.07400
H 	H 	0.96540 0.98470 0.27670 0.07400
C 	C 	0.01640 0.94470 0.36140 -0.05000
H 	H 	0.04420 0.96080 0.40150 0.06500
H 	H 	0.05020 0.91910 0.34750 0.02900
C 	C 	0.95240 0.90300 0.36620 -0.08100
H 	H 	0.95750 0.86100 0.35110 0.04700
H 	H 	0.95640 0.89900 0.40870 0.07700
C 	C 	0.87570 0.92900 0.33070 -0.16300
H 	H 	0.83770 0.90470 0.34060 0.07500
H 	H 	0.86720 0.92440 0.28740 0.07200
C 	C 	0.68380 0.91430 0.37430 -0.16800
H 	H 	0.69630 0.89610 0.41480 0.07600
H 	H 	0.71820 0.89740 0.35510 0.07600
C 	C 	0.60290 0.89620 0.33650 -0.07900
H 	H 	0.59130 0.91340 0.29570 0.05300
H 	H 	0.59880 0.85050 0.33320 0.04800
C 	C 	0.54610 0.92120 0.36510 -0.03300
H 	H 	0.50420 0.93970 0.33340 0.03700
H 	H 	0.52710 0.88600 0.38250 0.02500
C 	C 	0.57830 0.96990 0.41390 -0.19700
H 	H 	0.53780 0.99160 0.42260 0.08000
H 	H 	0.60830 0.94880 0.45090 0.08000
C 	C 	0.46860 0.13620 0.43620 -0.19400
H 	H 	0.48060 0.09210 0.44600 0.07900
H 	H 	0.42140 0.13810 0.40310 0.08200
C 	C 	0.46070 0.17010 0.49180 -0.03700
H 	H 	0.42170 0.14980 0.50380 0.02500
H 	H 	0.50720 0.16630 0.52540 0.02000
C 	C 	0.44180 0.23970 0.47930 -0.06900
H 	H 	0.47390 0.26460 0.51270 0.03700
H 	H 	0.39050 0.24670 0.47780 0.03800
C 	C 	0.45090 0.26320 0.41930 -0.17700
H 	H 	0.40920 0.24830 0.38520 0.07700
H 	H 	0.45030 0.30910 0.41860 0.07700
C 	C 	0.53910 0.43570 0.39870 -0.17900
H 	H 	0.55560 0.45990 0.43620 0.07800
H 	H 	0.49820 0.40870 0.40000 0.07800
C 	C 	0.51150 0.48050 0.34510 -0.05900
H 	H 	0.47400 0.50830 0.35150 0.05100
H 	H 	0.48790 0.45620 0.30840 0.05000
C 	C 	0.57400 0.52010 0.33620 -0.05900
H 	H 	0.56270 0.56450 0.33910 0.05100
H 	H 	0.57630 0.51260 0.29570 0.04800
C 	C 	0.65030 0.50540 0.38300 -0.18200
H 	H 	0.68870 0.52890 0.37280 0.08000
H 	H 	0.65080 0.51910 0.42300 0.08000
N 	N 	0.79440 0.41769 0.31561 -0.18700
N 	N 	0.89680 0.38229 0.30259 -0.20000
N 	N 	0.85450 0.42591 0.42472 -0.15900
N 	N 	0.94970 0.37333 0.41218 -0.15900
N 	N 	0.96380 0.28786 0.28935 -0.19600
N 	N 	0.95420 0.18394 0.28526 -0.18700
N 	N 	0.01230 0.27662 0.39900 -0.16000
N 	N 	0.02070 0.17265 0.39231 -0.16200
N 	N 	0.89380 0.08508 0.28977 -0.17300
N 	N 	0.80210 0.02810 0.30307 -0.16400
N 	N 	0.96610 0.06913 0.39614 -0.15900
N 	N 	0.87640 0.00951 0.40794 -0.15500
N 	N 	0.68430 0.01583 0.32051 -0.15900
N 	N 	0.58560 0.05177 0.34098 -0.16400
N 	N 	0.75710 0.00736 0.42696 -0.16300
N 	N 	0.66660 0.05986 0.44572 -0.17000
N 	N 	0.52480 0.14906 0.35471 -0.16500
N 	N 	0.52900 0.25326 0.35353 -0.16100
N 	N 	0.60310 0.15614 0.46086 -0.18900
N 	N 	0.58930 0.25903 0.46330 -0.18800
N 	N 	0.58000 0.35503 0.34029 -0.16300
N 	N 	0.67170 0.41205 0.32716 -0.16500
N 	N 	0.64130 0.36009 0.44976 -0.17300
N 	N 	0.73190 0.41767 0.43581 -0.16400
O 	O 	0.78431 0.35696 0.23200 -0.46700
O 	O 	0.86390 0.24221 0.21736 -0.48200
O 	O 	0.77296 0.10819 0.23365 -0.27100
O 	O 	0.59939 0.07697 0.24939 -0.24200
O 	O 	0.51710 0.19871 0.26512 -0.23600
O 	O 	0.61040 0.34012 0.25348 -0.27200
O 	O 	0.92140 0.35642 0.49948 -0.23400
O 	O 	0.01150 0.21512 0.48067 -0.22900
O 	O 	0.95115 0.06573 0.49034 -0.23700
O 	O 	0.78791 0.07421 0.50866 -0.26000
O 	O 	0.68887 0.21303 0.53648 -0.47700
O 	O 	0.75880 0.35616 0.52180 -0.25700
Nd	Nd	0.75180 0.21578 0.64593 1.62200
C 	C 	0.82260 0.11670 0.78072 0.35000
C 	C 	0.85510 0.05300 0.86570 0.11400
C 	C 	0.92590 0.08420 0.85910 0.11000
C 	C 	0.90930 0.11770 0.95030 0.27100
C 	C 	0.94280 0.14820 0.77160 0.10500
H 	H 	0.91590 0.14750 0.72820 -0.02400
H 	H 	0.98800 0.12340 0.77870 -0.00400
C 	C 	0.01760 0.16310 0.93100 0.04600
H 	H 	0.03140 0.17140 0.97440 0.04100
H 	H 	0.05730 0.13820 0.92440 0.01500
C 	C 	0.92180 0.26170 0.76080 0.36800
C 	C 	0.02670 0.23200 0.84160 0.11600
C 	C 	0.02460 0.30570 0.83430 0.11300
C 	C 	0.01410 0.27930 0.92900 0.26800
C 	C 	0.92830 0.37630 0.75732 0.08400
H 	H 	0.89300 0.36880 0.71690 0.01500
H 	H 	0.97060 0.39900 0.75250 0.00300
C 	C 	0.03210 0.39210 0.91450 0.05300
H 	H 	0.06970 0.41160 0.90020 0.01600
H 	H 	0.05160 0.39120 0.95870 0.04000
C 	C 	0.81880 0.42280 0.77230 0.28600
C 	C 	0.93410 0.46020 0.83647 0.12000
C 	C 	0.86850 0.50120 0.84540 0.11400
C 	C 	0.93330 0.44970 0.93750 0.28700
C 	C 	0.72830 0.49920 0.78250 0.05700
H 	H 	0.70230 0.48440 0.74150 0.03600
H 	H 	0.73290 0.54480 0.78080 0.01200
C 	C 	0.83170 0.51960 0.94090 0.04900
H 	H 	0.85770 0.51530 0.98420 0.04000
H 	H 	0.82700 0.56440 0.93150 0.01900
C 	C 	0.62140 0.44780 0.79940 0.27800
C 	C 	0.69160 0.51390 0.87915 0.11100
C 	C 	0.62590 0.48230 0.89590 0.12100
C 	C 	0.74220 0.45030 0.96487 0.28000
C 	C 	0.51550 0.41380 0.83050 0.05800
H 	H 	0.48960 0.41160 0.78690 0.03200
H 	H 	0.48420 0.43740 0.84850 0.01000
C 	C 	0.63220 0.40600 0.98355 0.09100
H 	H 	0.66880 0.40110 0.02380 -0.01200
H 	H 	0.59150 0.43140 0.98790 -0.00800
C 	C 	0.52350 0.29980 0.81930 0.27200
C 	C 	0.52970 0.33340 0.91614 0.11800
C 	C 	0.52370 0.26050 0.91317 0.11300
C 	C 	0.63210 0.29079 0.99021 0.34200
C 	C 	0.51530 0.18580 0.82360 0.05300
H 	H 	0.49860 0.19230 0.77990 0.03700
H 	H 	0.47520 0.16480 0.83360 0.01300
C 	C 	0.60380 0.17680 0.98350 0.09300
H 	H 	0.63410 0.17670 0.02620 -0.01300
H 	H 	0.55660 0.15650 0.98020 -0.00300
C 	C 	0.61980 0.13420 0.80273 0.28000
C 	C 	0.60290 0.10500 0.89436 0.11400
C 	C 	0.66810 0.06410 0.88500 0.11900
C 	C 	0.71340 0.12370 0.97300 0.27100
C 	C 	0.71830 0.06120 0.79410 0.07300
H 	H 	0.69670 0.07230 0.75140 0.01300
H 	H 	0.71750 0.01550 0.79720 0.00500
C 	C 	0.80400 0.05170 0.95550 0.05500
H 	H 	0.82710 0.05840 0.99900 0.03600
H 	H 	0.79680 0.00660 0.94880 0.01300
C 	C 	0.85630 0.98090 0.86070 -0.18600
H 	H 	0.85300 0.96930 0.81950 0.07700
H 	H 	0.81290 0.96350 0.86860 0.08000
C 	C 	0.92630 0.95240 0.90480 -0.03900
H 	H 	0.93240 0.90990 0.89130 0.04000
H 	H 	0.91990 0.94880 0.94440 0.03900
C 	C 	0.99600 0.98900 0.91160 -0.08300
H 	H 	0.01040 0.01180 0.95000 0.05300
H 	H 	0.03610 0.96000 0.91270 0.05800
C 	C 	0.98550 0.03580 0.85970 -0.15900
H 	H 	0.97090 0.01330 0.82120 0.07200
H 	H 	0.03240 0.05730 0.86450 0.07100
C 	C 	0.09950 0.20360 0.84130 -0.18300
H 	H 	0.13950 0.21740 0.87720 0.07900
H 	H 	0.09650 0.15780 0.84270 0.07900
C 	C 	0.11750 0.22330 0.78370 -0.05900
H 	H 	0.08710 0.19840 0.74950 0.04000
H 	H 	0.16950 0.21370 0.78960 0.03500
C 	C 	0.10400 0.29230 0.76810 -0.05200
H 	H 	0.06060 0.29630 0.73180 0.04200
H 	H 	0.14670 0.30930 0.75890 0.03300
C 	C 	0.09160 0.33050 0.81800 -0.18100
H 	H 	0.13600 0.32880 0.85380 0.07800
H 	H 	0.08300 0.37430 0.80530 0.07700
C 	C 	0.98910 0.49960 0.81770 -0.18700
H 	H 	0.03140 0.47360 0.81780 0.07900
H 	H 	0.96540 0.51530 0.77670 0.08000
C 	C 	0.01640 0.55530 0.86140 -0.04700
H 	H 	0.04420 0.53920 0.90150 0.06300
H 	H 	0.05020 0.58090 0.84750 0.02700
C 	C 	0.95240 0.59700 0.86620 -0.08000
H 	H 	0.95750 0.63900 0.85110 0.04700
H 	H 	0.95640 0.60100 0.90870 0.07700
C 	C 	0.87570 0.57100 0.83070 -0.16400
H 	H 	0.83770 0.59530 0.84060 0.07600
H 	H 	0.86720 0.57560 0.78740 0.07300
C 	C 	0.68380 0.58570 0.87430 -0.17000
H 	H 	0.69630 0.60390 0.91480 0.07600
H 	H 	0.71820 0.60260 0.85510 0.07700
C 	C 	0.60290 0.60380 0.83650 -0.07700
H 	H 	0.59130 0.58660 0.79570 0.05300
H 	H 	0.59880 0.64950 0.83320 0.04800
C 	C 	0.54610 0.57880 0.86510 -0.03500
H 	H 	0.50420 0.56030 0.83340 0.03700
H 	H 	0.52710 0.61400 0.88250 0.02600
C 	C 	0.57830 0.53010 0.91390 -0.19400
H 	H 	0.53780 0.50840 0.92260 0.07900
H 	H 	0.60830 0.55120 0.95090 0.08000
C 	C 	0.46860 0.36380 0.93620 -0.19300
H 	H 	0.48060 0.40790 0.94600 0.07900
H 	H 	0.42140 0.36190 0.90310 0.08100
C 	C 	0.46070 0.32990 0.99180 -0.03900
H 	H 	0.42170 0.35020 0.00380 0.02600
H 	H 	0.50720 0.33370 0.02540 0.02000
C 	C 	0.44180 0.26030 0.97930 -0.06900
H 	H 	0.47390 0.23540 0.01270 0.03800
H 	H 	0.39050 0.25330 0.97780 0.03800
C 	C 	0.45090 0.23680 0.91930 -0.17700
H 	H 	0.40920 0.25170 0.88520 0.07700
H 	H 	0.45030 0.19090 0.91860 0.07700
C 	C 	0.53910 0.06430 0.89870 -0.17600
H 	H 	0.55560 0.04010 0.93620 0.07700
H 	H 	0.49820 0.09130 0.90000 0.07700
C 	C 	0.51150 0.01950 0.84510 -0.06400
H 	H 	0.47400 0.99170 0.85150 0.05300
H 	H 	0.48790 0.04380 0.80840 0.05100
C 	C 	0.57400 0.97990 0.83620 -0.05500
H 	H 	0.56270 0.93550 0.83910 0.04900
H 	H 	0.57630 0.98740 0.79570 0.04700
C 	C 	0.65030 0.99460 0.88300 -0.18400
H 	H 	0.68870 0.97110 0.87280 0.08000
H 	H 	0.65080 0.98090 0.92300 0.08000
N 	N 	0.79440 0.08231 0.81561 -0.18700
N 	N 	0.89680 0.11771 0.80259 -0.19900
N 	N 	0.85450 0.07409 0.92472 -0.15900
N 	N 	0.94970 0.12667 0.91218 -0.15800
N 	N 	0.96380 0.21214 0.78935 -0.19600
N 	N 	0.95420 0.31606 0.78526 -0.18800
N 	N 	0.01230 0.22338 0.89900 -0.16000
N 	N 	0.02070 0.32735 0.89231 -0.16300
N 	N 	0.89380 0.41492 0.78977 -0.17400
N 	N 	0.80210 0.47190 0.80307 -0.16500
N 	N 	0.96610 0.43087 0.89614 -0.16000
N 	N 	0.87640 0.49049 0.90794 -0.15700
N 	N 	0.68430 0.48417 0.82051 -0.16000
N 	N 	0.58560 0.44823 0.84098 -0.16400
N 	N 	0.75710 0.49264 0.92696 -0.16400
N 	N 	0.66660 0.44014 0.94572 -0.17000
N 	N 	0.52480 0.35094 0.85471 -0.16500
N 	N 	0.52900 0.24674 0.85353 -0.16100
N 	N 	0.60310 0.34386 0.96086 -0.18900
N 	N 	0.58930 0.24097 0.96330 -0.18800
N 	N 	0.58000 0.14497 0.84029 -0.16300
N 	N 	0.67170 0.08795 0.82716 -0.16500
N 	N 	0.64130 0.13991 0.94976 -0.17300
N 	N 	0.73190 0.08233 0.93581 -0.16400
O 	O 	0.78431 0.14304 0.73200 -0.46700
O 	O 	0.86390 0.25779 0.71736 -0.48300
O 	O 	0.77296 0.39181 0.73365 -0.27100
O 	O 	0.59939 0.42303 0.74939 -0.24200
O 	O 	0.51710 0.30129 0.76512 -0.23600
O 	O 	0.61040 0.15988 0.75348 -0.27200
O 	O 	0.92140 0.14358 0.99948 -0.23400
O 	O 	0.01150 0.28488 0.98067 -0.22900
O 	O 	0.95115 0.43427 0.99034 -0.23800
O 	O 	0.78791 0.42579 0.00866 -0.26100
O 	O 	0.68887 0.28697 0.03648 -0.47700
O 	O 	0.75880 0.14384 0.02180 -0.25600
Nd	Nd	0.24820 0.78422 0.35407 1.62200
C 	C 	0.17740 0.88330 0.21928 0.35000
C 	C 	0.14490 0.94700 0.13430 0.11400
C 	C 	0.07410 0.91580 0.14090 0.11000
C 	C 	0.09070 0.88230 0.04970 0.27100
C 	C 	0.05720 0.85180 0.22840 0.10500
H 	H 	0.08410 0.85250 0.27180 -0.02400
H 	H 	0.01200 0.87660 0.22130 -0.00400
C 	C 	0.98240 0.83690 0.06900 0.04600
H 	H 	0.96860 0.82860 0.02560 0.04100
H 	H 	0.94270 0.86180 0.07560 0.01500
C 	C 	0.07820 0.73830 0.23920 0.36800
C 	C 	0.97330 0.76800 0.15840 0.11600
C 	C 	0.97540 0.69430 0.16570 0.11300
C 	C 	0.98590 0.72070 0.07100 0.26800
C 	C 	0.07170 0.62370 0.24268 0.08400
H 	H 	0.10700 0.63120 0.28310 0.01500
H 	H 	0.02940 0.60100 0.24750 0.00300
C 	C 	0.96790 0.60790 0.08550 0.05300
H 	H 	0.93030 0.58840 0.09980 0.01600
H 	H 	0.94840 0.60880 0.04130 0.04000
C 	C 	0.18120 0.57720 0.22770 0.28600
C 	C 	0.06590 0.53980 0.16353 0.12000
C 	C 	0.13150 0.49880 0.15460 0.11400
C 	C 	0.06670 0.55030 0.06250 0.28700
C 	C 	0.27170 0.50080 0.21750 0.05700
H 	H 	0.29770 0.51560 0.25850 0.03600
H 	H 	0.26710 0.45520 0.21920 0.01200
C 	C 	0.16830 0.48040 0.05910 0.04900
H 	H 	0.14230 0.48470 0.01580 0.04000
H 	H 	0.17300 0.43560 0.06850 0.01900
C 	C 	0.37860 0.55220 0.20060 0.27800
C 	C 	0.30840 0.48610 0.12085 0.11100
C 	C 	0.37410 0.51770 0.10410 0.12100
C 	C 	0.25780 0.54970 0.03513 0.28000
C 	C 	0.48450 0.58620 0.16950 0.05800
H 	H 	0.51040 0.58840 0.21310 0.03200
H 	H 	0.51580 0.56260 0.15150 0.01000
C 	C 	0.36780 0.59400 0.01645 0.09100
H 	H 	0.33120 0.59890 0.97620 -0.01200
H 	H 	0.40850 0.56860 0.01210 -0.00800
C 	C 	0.47650 0.70020 0.18070 0.27200
C 	C 	0.47030 0.66660 0.08386 0.11800
C 	C 	0.47630 0.73950 0.08683 0.11300
C 	C 	0.36790 0.70921 0.00979 0.34200
C 	C 	0.48470 0.81420 0.17640 0.05300
H 	H 	0.50140 0.80770 0.22010 0.03700
H 	H 	0.52480 0.83520 0.16640 0.01300
C 	C 	0.39620 0.82320 0.01650 0.09300
H 	H 	0.36590 0.82330 0.97380 -0.01300
H 	H 	0.44340 0.84350 0.01980 -0.00300
C 	C 	0.38020 0.86580 0.19727 0.28000
C 	C 	0.39710 0.89500 0.10564 0.11400
C 	C 	0.33190 0.93590 0.11500 0.11900
C 	C 	0.28660 0.87630 0.02700 0.27100
C 	C 	0.28170 0.93880 0.20590 0.07300
H 	H 	0.30330 0.92770 0.24860 0.01300
H 	H 	0.28250 0.98450 0.20280 0.00500
C 	C 	0.19600 0.94830 0.04450 0.05500
H 	H 	0.17290 0.94160 0.00100 0.03600
H 	H 	0.20320 0.99340 0.05120 0.01300
C 	C 	0.14370 0.01910 0.13930 -0.18600
H 	H 	0.14700 0.03070 0.18050 0.07700
H 	H 	0.18710 0.03650 0.13140 0.08000
C 	C 	0.07370 0.04760 0.09520 -0.03900
H 	H 	0.06760 0.09010 0.10870 0.04000
H 	H 	0.08010 0.05120 0.05560 0.03900
C 	C 	0.00400 0.01100 0.08840 -0.08300
H 	H 	0.98960 0.98820 0.05000 0.05300
H 	H 	0.96390 0.04000 0.08730 0.05800
C 	C 	0.01450 0.96420 0.14030 -0.15900
H 	H 	0.02910 0.98670 0.17880 0.07200
H 	H 	0.96760 0.94270 0.13550 0.07100
C 	C 	0.90050 0.79640 0.15870 -0.18300
H 	H 	0.86050 0.78260 0.12280 0.07900
H 	H 	0.90350 0.84220 0.15730 0.07900
C 	C 	0.88250 0.77670 0.21630 -0.05900
H 	H 	0.91290 0.80160 0.25050 0.04000
H 	H 	0.83050 0.78630 0.21040 0.03500
C 	C 	0.89600 0.70770 0.23190 -0.05200
H 	H 	0.93940 0.70370 0.26820 0.04200
H 	H 	0.85330 0.69070 0.24110 0.03300
C 	C 	0.90840 0.66950 0.18200 -0.18100
H 	H 	0.86400 0.67120 0.14620 0.07800
H 	H 	0.91700 0.62570 0.19470 0.07700
C 	C 	0.01090 0.50040 0.18230 -0.18700
H 	H 	0.96860 0.52640 0.18220 0.07900
H 	H 	0.03460 0.48470 0.22330 0.08000
C 	C 	0.98360 0.44470 0.13860 -0.04700
H 	H 	0.95580 0.46080 0.09850 0.06300
H 	H 	0.94980 0.41910 0.15250 0.02700
C 	C 	0.04760 0.40300 0.13380 -0.08000
H 	H 	0.04250 0.36100 0.14890 0.04700
H 	H 	0.04360 0.39900 0.09130 0.07700
C 	C 	0.12430 0.42900 0.16930 -0.16400
H 	H 	0.16230 0.40470 0.15940 0.07600
H 	H 	0.13280 0.42440 0.21260 0.07300
C 	C 	0.31620 0.41430 0.12570 -0.17000
H 	H 	0.30370 0.39610 0.08520 0.07600
H 	H 	0.28180 0.39740 0.14490 0.07700
C 	C 	0.39710 0.39620 0.16350 -0.07700
H 	H 	0.40870 0.41340 0.20430 0.05300
H 	H 	0.40120 0.35050 0.16680 0.04800
C 	C 	0.45390 0.42120 0.13490 -0.03500
H 	H 	0.49580 0.43970 0.16660 0.03700
H 	H 	0.47290 0.38600 0.11750 0.02600
C 	C 	0.42170 0.46990 0.08610 -0.19400
H 	H 	0.46220 0.49160 0.07740 0.07900
H 	H 	0.39170 0.44880 0.04910 0.08000
C 	C 	0.53140 0.63620 0.06380 -0.19300
H 	H 	0.51940 0.59210 0.05400 0.07900
H 	H 	0.57860 0.63810 0.09690 0.08100
C 	C 	0.53930 0.67010 0.00820 -0.03900
H 	H 	0.57830 0.64980 0.99620 0.02600
H 	H 	0.49280 0.66630 0.97460 0.02000
C 	C 	0.55820 0.73970 0.02070 -0.06900
H 	H 	0.52610 0.76460 0.98730 0.03800
H 	H 	0.60950 0.74670 0.02220 0.03800
C 	C 	0.54910 0.76320 0.08070 -0.17700
H 	H 	0.59080 0.74830 0.11480 0.07700
H 	H 	0.54970 0.80910 0.08140 0.07700
C 	C 	0.46090 0.93570 0.10130 -0.17600
H 	H 	0.44440 0.95990 0.06380 0.07700
H 	H 	0.50180 0.90870 0.10000 0.07700
C 	C 	0.48850 0.98050 0.15490 -0.06400
H 	H 	0.52600 0.00830 0.14850 0.05300
H 	H 	0.51210 0.95620 0.19160 0.05100
C 	C 	0.42600 0.02010 0.16380 -0.05500
H 	H 	0.43730 0.06450 0.16090 0.04900
H 	H 	0.42370 0.01260 0.20430 0.04700
C 	C 	0.34970 0.00540 0.11700 -0.18400
H 	H 	0.31130 0.02890 0.12720 0.08000
H 	H 	0.34920 0.01910 0.07700 0.08000
N 	N 	0.20560 0.91769 0.18439 -0.18700
N 	N 	0.10320 0.88229 0.19741 -0.19900
N 	N 	0.14550 0.92591 0.07528 -0.15900
N 	N 	0.05030 0.87333 0.08782 -0.15800
N 	N 	0.03620 0.78786 0.21065 -0.19600
N 	N 	0.04580 0.68394 0.21474 -0.18800
N 	N 	0.98770 0.77662 0.10100 -0.16000
N 	N 	0.97930 0.67265 0.10769 -0.16300
N 	N 	0.10620 0.58508 0.21023 -0.17400
N 	N 	0.19790 0.52810 0.19693 -0.16500
N 	N 	0.03390 0.56913 0.10386 -0.16000
N 	N 	0.12360 0.50951 0.09206 -0.15700
N 	N 	0.31570 0.51583 0.17949 -0.16000
N 	N 	0.41440 0.55177 0.15902 -0.16400
N 	N 	0.24290 0.50736 0.07304 -0.16400
N 	N 	0.33340 0.55986 0.05428 -0.17000
N 	N 	0.47520 0.64906 0.14529 -0.16500
N 	N 	0.47100 0.75326 0.14647 -0.16100
N 	N 	0.39690 0.65614 0.03914 -0.18900
N 	N 	0.41070 0.75903 0.03670 -0.18800
N 	N 	0.42000 0.85503 0.15971 -0.16300
N 	N 	0.32830 0.91205 0.17284 -0.16500
N 	N 	0.35870 0.86009 0.05024 -0.17300
N 	N 	0.26810 0.91767 0.06419 -0.16400
O 	O 	0.21569 0.85696 0.26800 -0.46700
O 	O 	0.13610 0.74221 0.28264 -0.48300
O 	O 	0.22704 0.60819 0.26635 -0.27100
O 	O 	0.40061 0.57697 0.25061 -0.24200
O 	O 	0.48290 0.69871 0.23488 -0.23600
O 	O 	0.38960 0.84012 0.24652 -0.27200
O 	O 	0.07860 0.85642 0.00052 -0.23400
O 	O 	0.98850 0.71512 0.01933 -0.22900
O 	O 	0.04885 0.56573 0.00966 -0.23800
O 	O 	0.21209 0.57421 0.99134 -0.26100
O 	O 	0.31113 0.71303 0.96352 -0.47700
O 	O 	0.24120 0.85616 0.97820 -0.25600
Nd	Nd	0.24820 0.71578 0.85407 1.62200
C 	C 	0.17740 0.61670 0.71928 0.35000
C 	C 	0.14490 0.55300 0.63430 0.11000
C 	C 	0.07410 0.58420 0.64090 0.11400
C 	C 	0.09070 0.61770 0.54970 0.27100
C 	C 	0.05720 0.64820 0.72840 0.10600
H 	H 	0.08410 0.64750 0.77180 -0.02400
H 	H 	0.01200 0.62340 0.72130 -0.00500
C 	C 	0.98240 0.66310 0.56900 0.04800
H 	H 	0.96860 0.67140 0.52560 0.04100
H 	H 	0.94270 0.63820 0.57560 0.01500
C 	C 	0.07820 0.76170 0.73920 0.36800
C 	C 	0.97330 0.73200 0.65840 0.11700
C 	C 	0.97540 0.80570 0.66570 0.11200
C 	C 	0.98590 0.77930 0.57100 0.26800
C 	C 	0.07170 0.87630 0.74268 0.08400
H 	H 	0.10700 0.86880 0.78310 0.01600
H 	H 	0.02940 0.89900 0.74750 0.00400
C 	C 	0.96790 0.89210 0.58550 0.05100
H 	H 	0.93030 0.91160 0.59980 0.01600
H 	H 	0.94840 0.89120 0.54130 0.04000
C 	C 	0.18120 0.92280 0.72770 0.28600
C 	C 	0.06590 0.96020 0.66353 0.11900
C 	C 	0.13150 0.00120 0.65460 0.11000
C 	C 	0.06670 0.94970 0.56250 0.28700
C 	C 	0.27170 0.99920 0.71750 0.06000
H 	H 	0.29770 0.98440 0.75850 0.03600
H 	H 	0.26710 0.04480 0.71920 0.01000
C 	C 	0.16830 0.01960 0.55910 0.04600
H 	H 	0.14230 0.01530 0.51580 0.04000
H 	H 	0.17300 0.06440 0.56850 0.02000
C 	C 	0.37860 0.94780 0.70060 0.27800
C 	C 	0.30840 0.01390 0.62085 0.10800
C 	C 	0.37410 0.98230 0.60410 0.12300
C 	C 	0.25780 0.95030 0.53513 0.28000
C 	C 	0.48450 0.91380 0.66950 0.05800
H 	H 	0.51040 0.91160 0.71310 0.03300
H 	H 	0.51580 0.93740 0.65150 0.01000
C 	C 	0.36780 0.90600 0.51645 0.09100
H 	H 	0.33120 0.90110 0.47620 -0.01200
H 	H 	0.40850 0.93140 0.51210 -0.00800
C 	C 	0.47650 0.79980 0.68070 0.27200
C 	C 	0.47030 0.83340 0.58386 0.11800
C 	C 	0.47630 0.76050 0.58683 0.11300
C 	C 	0.36790 0.79079 0.50979 0.34300
C 	C 	0.48470 0.68580 0.67640 0.05300
H 	H 	0.50140 0.69230 0.72010 0.03700
H 	H 	0.52480 0.66480 0.66640 0.01300
C 	C 	0.39620 0.67680 0.51650 0.09500
H 	H 	0.36590 0.67670 0.47380 -0.01300
H 	H 	0.44340 0.65650 0.51980 -0.00300
C 	C 	0.38020 0.63420 0.69727 0.28000
C 	C 	0.39710 0.60500 0.60564 0.11500
C 	C 	0.33190 0.56410 0.61500 0.11800
C 	C 	0.28660 0.62370 0.52700 0.27200
C 	C 	0.28170 0.56120 0.70590 0.07300
H 	H 	0.30330 0.57230 0.74860 0.01300
H 	H 	0.28250 0.51550 0.70280 0.00500
C 	C 	0.19600 0.55170 0.54450 0.05500
H 	H 	0.17290 0.55840 0.50100 0.03600
H 	H 	0.20320 0.50660 0.55120 0.01300
C 	C 	0.14370 0.48090 0.63930 -0.17800
H 	H 	0.14700 0.46930 0.68050 0.07500
H 	H 	0.18710 0.46350 0.63140 0.07800
C 	C 	0.07370 0.45240 0.59520 -0.05000
H 	H 	0.06760 0.40990 0.60870 0.04300
H 	H 	0.08010 0.44880 0.55560 0.04200
C 	C 	0.00400 0.48900 0.58840 -0.06800
H 	H 	0.98960 0.51180 0.55000 0.05000
H 	H 	0.96390 0.46000 0.58730 0.05200
C 	C 	0.01450 0.53580 0.64030 -0.17400
H 	H 	0.02910 0.51330 0.67880 0.07500
H 	H 	0.96760 0.55730 0.63550 0.07700
C 	C 	0.90050 0.70360 0.65870 -0.18400
H 	H 	0.86050 0.71740 0.62280 0.07900
H 	H 	0.90350 0.65780 0.65730 0.08000
C 	C 	0.88250 0.72330 0.71630 -0.05800
H 	H 	0.91290 0.69840 0.75050 0.04000
H 	H 	0.83050 0.71370 0.71040 0.03500
C 	C 	0.89600 0.79230 0.73190 -0.05200
H 	H 	0.93940 0.79630 0.76820 0.04200
H 	H 	0.85330 0.80930 0.74110 0.03300
C 	C 	0.90840 0.83050 0.68200 -0.18000
H 	H 	0.86400 0.82880 0.64620 0.07800
H 	H 	0.91700 0.87430 0.69470 0.07700
C 	C 	0.01090 0.99960 0.68230 -0.17500
H 	H 	0.96860 0.97360 0.68220 0.07400
H 	H 	0.03460 0.01530 0.72330 0.07400
C 	C 	0.98360 0.05530 0.63860 -0.05000
H 	H 	0.95580 0.03920 0.59850 0.06500
H 	H 	0.94980 0.08090 0.65250 0.02900
C 	C 	0.04760 0.09700 0.63380 -0.08100
H 	H 	0.04250 0.13900 0.64890 0.04700
H 	H 	0.04360 0.10100 0.59130 0.07700
C 	C 	0.12430 0.07100 0.66930 -0.16300
H 	H 	0.16230 0.09530 0.65940 0.07500
H 	H 	0.13280 0.07560 0.71260 0.07200
C 	C 	0.31620 0.08570 0.62570 -0.16800
H 	H 	0.30370 0.10390 0.58520 0.07600
H 	H 	0.28180 0.10260 0.64490 0.07600
C 	C 	0.39710 0.10380 0.66350 -0.07900
H 	H 	0.40870 0.08660 0.70430 0.05300
H 	H 	0.40120 0.14950 0.66680 0.04800
C 	C 	0.45390 0.07880 0.63490 -0.03300
H 	H 	0.49580 0.06030 0.66660 0.03700
H 	H 	0.47290 0.11400 0.61750 0.02500
C 	C 	0.42170 0.03010 0.58610 -0.19700
H 	H 	0.46220 0.00840 0.57740 0.08000
H 	H 	0.39170 0.05120 0.54910 0.08000
C 	C 	0.53140 0.86380 0.56380 -0.19400
H 	H 	0.51940 0.90790 0.55400 0.07900
H 	H 	0.57860 0.86190 0.59690 0.08200
C 	C 	0.53930 0.82990 0.50820 -0.03700
H 	H 	0.57830 0.85020 0.49620 0.02500
H 	H 	0.49280 0.83370 0.47460 0.02000
C 	C 	0.55820 0.76030 0.52070 -0.06900
H 	H 	0.52610 0.73540 0.48730 0.03700
H 	H 	0.60950 0.75330 0.52220 0.03800
C 	C 	0.54910 0.73680 0.58070 -0.17700
H 	H 	0.59080 0.75170 0.61480 0.07700
H 	H 	0.54970 0.69090 0.58140 0.07700
C 	C 	0.46090 0.56430 0.60130 -0.17900
H 	H 	0.44440 0.54010 0.56380 0.07800
H 	H 	0.50180 0.59130 0.60000 0.07800
C 	C 	0.48850 0.51950 0.65490 -0.05900
H 	H 	0.52600 0.49170 0.64850 0.05100
H 	H 	0.51210 0.54380 0.69160 0.05000
C 	C 	0.42600 0.47990 0.66380 -0.05900
H 	H 	0.43730 0.43550 0.66090 0.05100
H 	H 	0.42370 0.48740 0.70430 0.04800
C 	C 	0.34970 0.49460 0.61700 -0.18200
H 	H 	0.31130 0.47110 0.62720 0.08000
H 	H 	0.34920 0.48090 0.57700 0.08000
N 	N 	0.20560 0.58231 0.68439 -0.18700
N 	N 	0.10320 0.61771 0.69741 -0.20000
N 	N 	0.14550 0.57409 0.57528 -0.15900
N 	N 	0.05030 0.62667 0.58782 -0.15900
N 	N 	0.03620 0.71214 0.71065 -0.19600
N 	N 	0.04580 0.81606 0.71474 -0.18700
N 	N 	0.98770 0.72338 0.60100 -0.16000
N 	N 	0.97930 0.82735 0.60769 -0.16200
N 	N 	0.10620 0.91492 0.71023 -0.17300
N 	N 	0.19790 0.97190 0.69693 -0.16400
N 	N 	0.03390 0.93087 0.60386 -0.15900
N 	N 	0.12360 0.99049 0.59206 -0.15500
N 	N 	0.31570 0.98417 0.67949 -0.15900
N 	N 	0.41440 0.94823 0.65902 -0.16400
N 	N 	0.24290 0.99264 0.57304 -0.16300
N 	N 	0.33340 0.94014 0.55428 -0.17000
N 	N 	0.47520 0.85094 0.64529 -0.16500
N 	N 	0.47100 0.74674 0.64647 -0.16100
N 	N 	0.39690 0.84386 0.53914 -0.18900
N 	N 	0.41070 0.74097 0.53670 -0.18800
N 	N 	0.42000 0.64497 0.65971 -0.16300
N 	N 	0.32830 0.58795 0.67284 -0.16500
N 	N 	0.35870 0.63991 0.55024 -0.17300
N 	N 	0.26810 0.58233 0.56419 -0.16400
O 	O 	0.21569 0.64304 0.76800 -0.46700
O 	O 	0.13610 0.75779 0.78264 -0.48200
O 	O 	0.22704 0.89181 0.76635 -0.27100
O 	O 	0.40061 0.92303 0.75061 -0.24200
O 	O 	0.48290 0.80129 0.73488 -0.23600
O 	O 	0.38960 0.65988 0.74652 -0.27200
O 	O 	0.07860 0.64358 0.50052 -0.23400
O 	O 	0.98850 0.78488 0.51933 -0.22900
O 	O 	0.04885 0.93427 0.50966 -0.23700
O 	O 	0.21209 0.92579 0.49134 -0.26000
O 	O 	0.31113 0.78697 0.46352 -0.47700
O 	O 	0.24120 0.64384 0.47820 -0.25700
