data_crystal

_cell_length_a 19.08700
_cell_length_b 21.40600
_cell_length_c 23.42000
_cell_angle_alpha 90.00000
_cell_angle_beta  108.42800
_cell_angle_gamma 90.00000

_symmetry_space_group_name_	'P 1'
_symmetry_space_group_name_H-M	'P 1'

loop_
_symmetry_equiv_pos_as_xyz
  x,y,z

loop_
_atom_site_label
_atom_site_type_symbol
_atom_site_fract_x
_atom_site_fract_y
_atom_site_fract_z
_atom_site_charge
La	La	0.24401 0.72319 0.64501 1.44000
C 	C 	0.42080 0.76540 0.76010 0.31600
C 	C 	0.52170 0.80840 0.83430 0.10900
C 	C 	0.52370 0.73520 0.84120 0.11000
C 	C 	0.51130 0.78210 0.92720 0.26200
C 	C 	0.44230 0.65200 0.77140 0.07800
H 	H 	0.41600 0.65120 0.72800 -0.00600
H 	H 	0.48780 0.62780 0.77840 0.00400
C 	C 	0.51440 0.66740 0.92940 0.05000
H 	H 	0.55460 0.64290 0.92300 0.01300
H 	H 	0.52700 0.67540 0.97260 0.04200
C 	C 	0.32280 0.62020 0.77910 0.30800
C 	C 	0.42590 0.58850 0.85860 0.11200
C 	C 	0.35530 0.55560 0.86390 0.10400
C 	C 	0.40760 0.61950 0.94850 0.26400
C 	C 	0.21950 0.56340 0.79260 0.05900
H 	H 	0.21880 0.51780 0.79550 0.01100
H 	H 	0.19890 0.57460 0.75000 0.01800
C 	C 	0.30310 0.55310 0.95280 0.05500
H 	H 	0.32520 0.55810 0.99640 0.03600
H 	H 	0.29530 0.50830 0.94450 0.01400
C 	C 	0.12210 0.63510 0.80160 0.27000
C 	C 	0.16760 0.56630 0.88270 0.11000
C 	C 	0.10320 0.60670 0.89210 0.11200
C 	C 	0.21310 0.62510 0.97000 0.27700
C 	C 	0.01800 0.68760 0.82250 0.05000
H 	H 	0.97780 0.66670 0.83270 0.01400
H 	H 	0.00170 0.69400 0.77880 0.03800
C 	C 	0.10500 0.67780 0.98090 0.07900
H 	H 	0.13600 0.67820 0.02310 -0.01000
H 	H 	0.05820 0.65750 0.97880 0.00200
C 	C 	0.02630 0.80170 0.81830 0.27400
C 	C 	0.02520 0.76090 0.91100 0.11300
C 	C 	0.03020 0.83430 0.91460 0.11300
C 	C 	0.13280 0.79050 0.98820 0.30700
C 	C 	0.01900 0.91450 0.82970 0.05700
H 	H 	0.99460 0.91280 0.78610 0.03300
H 	H 	0.98660 0.93760 0.84730 0.01100
C 	C 	0.13230 0.90520 0.98260 0.07100
H 	H 	0.09160 0.92990 0.98800 0.00100
H 	H 	0.16880 0.89920 0.02240 0.00100
C 	C 	0.12340 0.95100 0.79870 0.27200
C 	C 	0.12630 0.98140 0.89660 0.11800
C 	C 	0.19170 0.01390 0.88040 0.10800
C 	C 	0.24060 0.94980 0.96440 0.26900
C 	C 	0.23090 0.00350 0.78600 0.05200
H 	H 	0.23640 0.04910 0.78650 0.01300
H 	H 	0.20550 0.99100 0.74430 0.03800
C 	C 	0.33030 0.01910 0.94190 0.05400
H 	H 	0.35530 0.01460 0.98520 0.03800
H 	H 	0.32550 0.06390 0.93290 0.01800
C 	C 	0.31920 0.92660 0.77400 0.27800
C 	C 	0.36970 0.00380 0.84660 0.10400
C 	C 	0.43310 0.96270 0.83760 0.11900
C 	C 	0.43200 0.95190 0.93770 0.28400
C 	C 	0.42670 0.87920 0.75820 0.06000
H 	H 	0.46840 0.90210 0.75250 0.01200
H 	H 	0.39070 0.87210 0.71840 0.02400
C 	C 	0.53110 0.89410 0.91400 0.04900
H 	H 	0.55040 0.89310 0.95800 0.04200
H 	H 	0.56910 0.91310 0.89950 0.01800
C 	C 	0.58870 0.83260 0.81780 -0.16600
H 	H 	0.58070 0.87660 0.80580 0.07200
H 	H 	0.63290 0.83010 0.85320 0.07400
C 	C 	0.60110 0.79560 0.76730 -0.05800
H 	H 	0.64360 0.81290 0.75780 0.03500
H 	H 	0.55770 0.79980 0.73140 0.04600
C 	C 	0.61480 0.72600 0.78290 -0.05800
H 	H 	0.66680 0.71640 0.78870 0.03500
H 	H 	0.58480 0.70090 0.74890 0.04100
C 	C 	0.59620 0.70690 0.84010 -0.17100
H 	H 	0.59310 0.66130 0.84170 0.07500
H 	H 	0.63600 0.72080 0.87570 0.07500
C 	C 	0.48640 0.54130 0.85930 -0.17200
H 	H 	0.47300 0.51880 0.82100 0.07500
H 	H 	0.53300 0.56330 0.86440 0.07500
C 	C 	0.49600 0.49550 0.91020 -0.05300
H 	H 	0.50950 0.51850 0.94840 0.04500
H 	H 	0.53680 0.46710 0.91160 0.04600
C 	C 	0.42750 0.45750 0.90420 -0.06700
H 	H 	0.42030 0.45460 0.94370 0.04700
H 	H 	0.43500 0.41500 0.89160 0.04800
C 	C 	0.35660 0.48480 0.85860 -0.16100
H 	H 	0.35460 0.47320 0.81770 0.07000
H 	H 	0.31300 0.46700 0.86630 0.07200
C 	C 	0.15010 0.49700 0.88040 -0.17000
H 	H 	0.15090 0.48270 0.92030 0.07500
H 	H 	0.18800 0.47380 0.86910 0.07500
C 	C 	0.07360 0.48350 0.83440 -0.05700
H 	H 	0.07640 0.48990 0.79380 0.04600
H 	H 	0.06120 0.43950 0.83790 0.04800
C 	C 	0.01350 0.52310 0.84230 -0.06400
H 	H 	0.97440 0.49610 0.84720 0.05200
H 	H 	0.99240 0.54810 0.80580 0.05000
C 	C 	0.04000 0.56700 0.89660 -0.17000
H 	H 	0.99910 0.59390 0.89820 0.07500
H 	H 	0.05590 0.54230 0.93370 0.07400
C 	C 	0.95290 0.73760 0.91830 -0.16900
H 	H 	0.95210 0.69190 0.91730 0.07400
H 	H 	0.91140 0.75280 0.88460 0.07400
C 	C 	0.94400 0.76050 0.97800 -0.06600
H 	H 	0.89320 0.75270 0.97750 0.03700
H 	H 	0.97710 0.73640 0.01130 0.03400
C 	C 	0.96130 0.82990 0.98910 -0.03700
H 	H 	0.92150 0.84980 0.00070 0.02400
H 	H 	0.00710 0.83460 0.02270 0.02100
C 	C 	0.96940 0.86290 0.93490 -0.18300
H 	H 	0.98050 0.90710 0.94450 0.07500
H 	H 	0.92260 0.86050 0.90190 0.07800
C 	C 	0.07770 0.02780 0.91390 -0.17800
H 	H 	0.10620 0.04890 0.95110 0.07400
H 	H 	0.03680 0.00560 0.92190 0.07300
C 	C 	0.04620 0.07670 0.86510 -0.05000
H 	H 	0.00640 0.05780 0.83240 0.04100
H 	H 	0.02510 0.11110 0.88190 0.03000
C 	C 	0.10460 0.10260 0.83960 -0.06300
H 	H 	0.09460 0.08720 0.79840 0.04700
H 	H 	0.10070 0.14820 0.83790 0.04200
C 	C 	0.18260 0.08450 0.87650 -0.16700
H 	H 	0.19390 0.10190 0.91710 0.07400
H 	H 	0.21750 0.10230 0.85800 0.07500
C 	C 	0.37770 0.07290 0.83380 -0.15300
H 	H 	0.36900 0.07870 0.79060 0.06900
H 	H 	0.34030 0.09700 0.84500 0.07100
C 	C 	0.45430 0.09730 0.86880 -0.07900
H 	H 	0.45860 0.10010 0.91150 0.07700
H 	H 	0.46000 0.13960 0.85470 0.04900
C 	C 	0.51660 0.05610 0.86210 -0.05100
H 	H 	0.54490 0.03960 0.90160 0.06500
H 	H 	0.54990 0.08170 0.84740 0.03400
C 	C 	0.48820 0.00170 0.81870 -0.17600
H 	H 	0.46470 0.01800 0.77810 0.07500
H 	H 	0.52990 0.97540 0.81790 0.07600
N 	N 	0.45290 0.81920 0.78490 -0.17200
N 	N 	0.46180 0.71560 0.78920 -0.17600
N 	N 	0.51890 0.82990 0.89170 -0.16100
N 	N 	0.50950 0.72660 0.89840 -0.15900
N 	N 	0.39740 0.62190 0.80170 -0.18100
N 	N 	0.29500 0.58470 0.81490 -0.17000
N 	N 	0.44760 0.63080 0.91020 -0.15600
N 	N 	0.35440 0.57600 0.92390 -0.15600
N 	N 	0.17250 0.58950 0.82500 -0.16000
N 	N 	0.08210 0.64680 0.83870 -0.15900
N 	N 	0.23160 0.58430 0.93390 -0.16300
N 	N 	0.14110 0.64120 0.94730 -0.16800
N 	N 	0.03130 0.74810 0.85210 -0.15800
N 	N 	0.02750 0.85120 0.85320 -0.16500
N 	N 	0.08990 0.74180 0.96020 -0.17700
N 	N 	0.10360 0.84390 0.95820 -0.17100
N 	N 	0.08780 0.94820 0.84160 -0.15800
N 	N 	0.18520 0.98710 0.82200 -0.15700
N 	N 	0.16590 0.94000 0.94600 -0.16400
N 	N 	0.25760 0.99230 0.92740 -0.15900
N 	N 	0.30340 0.97560 0.80520 -0.15900
N 	N 	0.39270 0.91800 0.79260 -0.16800
N 	N 	0.37600 0.99150 0.90990 -0.15600
N 	N 	0.46600 0.93370 0.89620 -0.15500
O 	O 	0.36560 0.76080 0.71510 -0.41400
O 	O 	0.28500 0.64680 0.73220 -0.41200
O 	O 	0.11270 0.66090 0.75180 -0.26700
O 	O 	0.02010 0.80310 0.76480 -0.23800
O 	O 	0.10290 0.92640 0.74960 -0.24100
O 	O 	0.27270 0.89590 0.73609 -0.26600
O 	O 	0.50820 0.78760 0.97910 -0.22200
O 	O 	0.41890 0.64440 0.99800 -0.22700
O 	O 	0.25640 0.64540 0.01766 -0.25800
O 	O 	0.18840 0.78694 0.03278 -0.42300
O 	O 	0.28600 0.92497 0.00783 -0.24600
O 	O 	0.44980 0.93510 0.98968 -0.23500
La	La	0.24401 0.77681 0.14501 1.44100
C 	C 	0.42080 0.73460 0.26010 0.31700
C 	C 	0.52170 0.69160 0.33430 0.11000
C 	C 	0.52370 0.76480 0.34120 0.11100
C 	C 	0.51130 0.71790 0.42720 0.26300
C 	C 	0.44230 0.84800 0.27140 0.07900
H 	H 	0.41600 0.84880 0.22800 -0.00500
H 	H 	0.48780 0.87220 0.27840 0.00500
C 	C 	0.51440 0.83260 0.42940 0.05100
H 	H 	0.55460 0.85710 0.42300 0.01400
H 	H 	0.52700 0.82460 0.47260 0.04200
C 	C 	0.32280 0.87980 0.27910 0.30800
C 	C 	0.42590 0.91150 0.35860 0.11200
C 	C 	0.35530 0.94440 0.36390 0.10400
C 	C 	0.40760 0.88050 0.44850 0.26400
C 	C 	0.21950 0.93660 0.29260 0.05900
H 	H 	0.21880 0.98220 0.29550 0.01100
H 	H 	0.19890 0.92540 0.25000 0.01900
C 	C 	0.30310 0.94690 0.45280 0.05500
H 	H 	0.32520 0.94190 0.49640 0.03600
H 	H 	0.29530 0.99170 0.44450 0.01400
C 	C 	0.12210 0.86490 0.30160 0.27100
C 	C 	0.16760 0.93370 0.38270 0.10900
C 	C 	0.10320 0.89330 0.39210 0.11300
C 	C 	0.21310 0.87490 0.47000 0.27700
C 	C 	0.01800 0.81240 0.32250 0.05200
H 	H 	0.97780 0.83330 0.33270 0.01300
H 	H 	0.00170 0.80600 0.27880 0.03800
C 	C 	0.10500 0.82220 0.48090 0.08100
H 	H 	0.13600 0.82180 0.52310 -0.01100
H 	H 	0.05820 0.84250 0.47880 0.00200
C 	C 	0.02630 0.69830 0.31830 0.27400
C 	C 	0.02520 0.73910 0.41100 0.11400
C 	C 	0.03020 0.66570 0.41460 0.11300
C 	C 	0.13280 0.70950 0.48820 0.30700
C 	C 	0.01900 0.58550 0.32970 0.05700
H 	H 	0.99460 0.58720 0.28610 0.03300
H 	H 	0.98660 0.56240 0.34730 0.01100
C 	C 	0.13230 0.59480 0.48260 0.07100
H 	H 	0.09160 0.57010 0.48800 0.00000
H 	H 	0.16880 0.60080 0.52240 0.00100
C 	C 	0.12340 0.54900 0.29870 0.27200
C 	C 	0.12630 0.51860 0.39660 0.11600
C 	C 	0.19170 0.48610 0.38040 0.11100
C 	C 	0.24060 0.55020 0.46440 0.26900
C 	C 	0.23090 0.49650 0.28600 0.05600
H 	H 	0.23640 0.45090 0.28650 0.01200
H 	H 	0.20550 0.50900 0.24430 0.03600
C 	C 	0.33030 0.48090 0.44190 0.05600
H 	H 	0.35530 0.48540 0.48520 0.03800
H 	H 	0.32550 0.43610 0.43290 0.01800
C 	C 	0.31920 0.57340 0.27400 0.27800
C 	C 	0.36970 0.49620 0.34660 0.10600
C 	C 	0.43310 0.53730 0.33760 0.11700
C 	C 	0.43200 0.54810 0.43770 0.28400
C 	C 	0.42670 0.62080 0.25820 0.06000
H 	H 	0.46840 0.59790 0.25250 0.01200
H 	H 	0.39070 0.62790 0.21840 0.02400
C 	C 	0.53110 0.60590 0.41400 0.04900
H 	H 	0.55040 0.60690 0.45800 0.04200
H 	H 	0.56910 0.58690 0.39950 0.01800
C 	C 	0.58870 0.66740 0.31780 -0.16600
H 	H 	0.58070 0.62340 0.30580 0.07200
H 	H 	0.63290 0.66990 0.35320 0.07400
C 	C 	0.60110 0.70440 0.26730 -0.05800
H 	H 	0.64360 0.68710 0.25780 0.03500
H 	H 	0.55770 0.70020 0.23140 0.04600
C 	C 	0.61480 0.77400 0.28290 -0.05800
H 	H 	0.66680 0.78360 0.28870 0.03500
H 	H 	0.58480 0.79910 0.24890 0.04100
C 	C 	0.59620 0.79310 0.34010 -0.17000
H 	H 	0.59310 0.83870 0.34170 0.07500
H 	H 	0.63600 0.77920 0.37570 0.07500
C 	C 	0.48640 0.95870 0.35930 -0.17200
H 	H 	0.47300 0.98120 0.32100 0.07500
H 	H 	0.53300 0.93670 0.36440 0.07500
C 	C 	0.49600 0.00450 0.41020 -0.05300
H 	H 	0.50950 0.98150 0.44840 0.04500
H 	H 	0.53680 0.03290 0.41160 0.04500
C 	C 	0.42750 0.04250 0.40420 -0.06700
H 	H 	0.42030 0.04540 0.44370 0.04800
H 	H 	0.43500 0.08500 0.39160 0.04800
C 	C 	0.35660 0.01520 0.35860 -0.16100
H 	H 	0.35460 0.02680 0.31770 0.07000
H 	H 	0.31300 0.03300 0.36630 0.07200
C 	C 	0.15010 0.00300 0.38040 -0.16800
H 	H 	0.15090 0.01730 0.42030 0.07400
H 	H 	0.18800 0.02620 0.36910 0.07500
C 	C 	0.07360 0.01650 0.33440 -0.06400
H 	H 	0.07640 0.01010 0.29380 0.04800
H 	H 	0.06120 0.06050 0.33790 0.05000
C 	C 	0.01350 0.97690 0.34230 -0.05400
H 	H 	0.97440 0.00390 0.34720 0.05000
H 	H 	0.99240 0.95190 0.30580 0.04600
C 	C 	0.04000 0.93300 0.39660 -0.17100
H 	H 	0.99910 0.90610 0.39820 0.07400
H 	H 	0.05590 0.95770 0.43370 0.07500
C 	C 	0.95290 0.76240 0.41830 -0.17000
H 	H 	0.95210 0.80810 0.41730 0.07400
H 	H 	0.91140 0.74720 0.38460 0.07400
C 	C 	0.94400 0.73950 0.47800 -0.06700
H 	H 	0.89320 0.74730 0.47750 0.03700
H 	H 	0.97710 0.76360 0.51130 0.03500
C 	C 	0.96130 0.67010 0.48910 -0.03900
H 	H 	0.92150 0.65020 0.50070 0.02600
H 	H 	0.00710 0.66540 0.52270 0.02100
C 	C 	0.96940 0.63710 0.43490 -0.18300
H 	H 	0.98050 0.59290 0.44450 0.07500
H 	H 	0.92260 0.63950 0.40190 0.07700
C 	C 	0.07770 0.47220 0.41390 -0.17500
H 	H 	0.10620 0.45110 0.45110 0.07300
H 	H 	0.03680 0.49440 0.42190 0.07300
C 	C 	0.04620 0.42330 0.36510 -0.05300
H 	H 	0.00640 0.44220 0.33240 0.04300
H 	H 	0.02510 0.38890 0.38190 0.03100
C 	C 	0.10460 0.39740 0.33960 -0.06000
H 	H 	0.09460 0.41280 0.29840 0.04700
H 	H 	0.10070 0.35180 0.33790 0.04100
C 	C 	0.18260 0.41550 0.37650 -0.17000
H 	H 	0.19390 0.39810 0.41710 0.07500
H 	H 	0.21750 0.39770 0.35800 0.07600
C 	C 	0.37770 0.42710 0.33380 -0.15400
H 	H 	0.36900 0.42130 0.29060 0.06900
H 	H 	0.34030 0.40300 0.34500 0.07200
C 	C 	0.45430 0.40270 0.36880 -0.07800
H 	H 	0.45860 0.39990 0.41150 0.07700
H 	H 	0.46000 0.36040 0.35470 0.04900
C 	C 	0.51660 0.44390 0.36210 -0.05200
H 	H 	0.54490 0.46040 0.40160 0.06600
H 	H 	0.54990 0.41830 0.34740 0.03400
C 	C 	0.48820 0.49830 0.31870 -0.17400
H 	H 	0.46470 0.48200 0.27810 0.07500
H 	H 	0.52990 0.52460 0.31790 0.07500
N 	N 	0.45290 0.68080 0.28490 -0.17200
N 	N 	0.46180 0.78440 0.28920 -0.17600
N 	N 	0.51890 0.67010 0.39170 -0.16100
N 	N 	0.50950 0.77340 0.39840 -0.15900
N 	N 	0.39740 0.87810 0.30170 -0.18100
N 	N 	0.29500 0.91530 0.31490 -0.17000
N 	N 	0.44760 0.86920 0.41020 -0.15600
N 	N 	0.35440 0.92400 0.42390 -0.15600
N 	N 	0.17250 0.91050 0.32500 -0.16000
N 	N 	0.08210 0.85320 0.33870 -0.16000
N 	N 	0.23160 0.91570 0.43390 -0.16300
N 	N 	0.14110 0.85880 0.44730 -0.16900
N 	N 	0.03130 0.75190 0.35210 -0.15900
N 	N 	0.02750 0.64880 0.35320 -0.16500
N 	N 	0.08990 0.75820 0.46020 -0.17700
N 	N 	0.10360 0.65610 0.45820 -0.17100
N 	N 	0.08780 0.55180 0.34160 -0.15800
N 	N 	0.18520 0.51290 0.32200 -0.15900
N 	N 	0.16590 0.56000 0.44600 -0.16400
N 	N 	0.25760 0.50770 0.42740 -0.16000
N 	N 	0.30340 0.52440 0.30520 -0.16100
N 	N 	0.39270 0.58200 0.29260 -0.16800
N 	N 	0.37600 0.50850 0.40990 -0.15700
N 	N 	0.46600 0.56630 0.39620 -0.15500
O 	O 	0.36560 0.73920 0.21510 -0.41400
O 	O 	0.28500 0.85320 0.23220 -0.41200
O 	O 	0.11270 0.83910 0.25180 -0.26700
O 	O 	0.02010 0.69690 0.26480 -0.23800
O 	O 	0.10290 0.57360 0.24960 -0.24100
O 	O 	0.27270 0.60410 0.23609 -0.26600
O 	O 	0.50820 0.71240 0.47910 -0.22200
O 	O 	0.41890 0.85560 0.49800 -0.22700
O 	O 	0.25640 0.85460 0.51766 -0.25900
O 	O 	0.18840 0.71306 0.53278 -0.42300
O 	O 	0.28600 0.57503 0.50783 -0.24600
O 	O 	0.44980 0.56490 0.48968 -0.23500
La	La	0.75599 0.22319 0.85499 1.44100
C 	C 	0.57920 0.26540 0.73990 0.31700
C 	C 	0.47830 0.30840 0.66570 0.11000
C 	C 	0.47630 0.23520 0.65880 0.11100
C 	C 	0.48870 0.28210 0.57280 0.26300
C 	C 	0.55770 0.15200 0.72860 0.07900
H 	H 	0.58400 0.15120 0.77200 -0.00500
H 	H 	0.51220 0.12780 0.72160 0.00500
C 	C 	0.48560 0.16740 0.57060 0.05100
H 	H 	0.44540 0.14290 0.57700 0.01400
H 	H 	0.47300 0.17540 0.52740 0.04200
C 	C 	0.67720 0.12020 0.72090 0.30800
C 	C 	0.57410 0.08850 0.64140 0.11200
C 	C 	0.64470 0.05560 0.63610 0.10400
C 	C 	0.59240 0.11950 0.55150 0.26400
C 	C 	0.78050 0.06340 0.70740 0.05900
H 	H 	0.78120 0.01780 0.70450 0.01100
H 	H 	0.80110 0.07460 0.75000 0.01900
C 	C 	0.69690 0.05310 0.54720 0.05500
H 	H 	0.67480 0.05810 0.50360 0.03600
H 	H 	0.70470 0.00830 0.55550 0.01400
C 	C 	0.87790 0.13510 0.69840 0.27100
C 	C 	0.83240 0.06630 0.61730 0.10900
C 	C 	0.89680 0.10670 0.60790 0.11300
C 	C 	0.78690 0.12510 0.53000 0.27700
C 	C 	0.98200 0.18760 0.67750 0.05200
H 	H 	0.02220 0.16670 0.66730 0.01300
H 	H 	0.99830 0.19400 0.72120 0.03800
C 	C 	0.89500 0.17780 0.51910 0.08100
H 	H 	0.86400 0.17820 0.47690 -0.01100
H 	H 	0.94180 0.15750 0.52120 0.00200
C 	C 	0.97370 0.30170 0.68170 0.27400
C 	C 	0.97480 0.26090 0.58900 0.11400
C 	C 	0.96980 0.33430 0.58540 0.11300
C 	C 	0.86720 0.29050 0.51180 0.30700
C 	C 	0.98100 0.41450 0.67030 0.05700
H 	H 	0.00540 0.41280 0.71390 0.03300
H 	H 	0.01340 0.43760 0.65270 0.01100
C 	C 	0.86770 0.40520 0.51740 0.07100
H 	H 	0.90840 0.42990 0.51200 0.00000
H 	H 	0.83120 0.39920 0.47760 0.00100
C 	C 	0.87660 0.45100 0.70130 0.27200
C 	C 	0.87370 0.48140 0.60340 0.11600
C 	C 	0.80830 0.51390 0.61960 0.11100
C 	C 	0.75940 0.44980 0.53560 0.26900
C 	C 	0.76910 0.50350 0.71400 0.05600
H 	H 	0.76360 0.54910 0.71350 0.01200
H 	H 	0.79450 0.49100 0.75570 0.03600
C 	C 	0.66970 0.51910 0.55810 0.05600
H 	H 	0.64470 0.51460 0.51480 0.03800
H 	H 	0.67450 0.56390 0.56710 0.01800
C 	C 	0.68080 0.42660 0.72600 0.27800
C 	C 	0.63030 0.50380 0.65340 0.10600
C 	C 	0.56690 0.46270 0.66240 0.11700
C 	C 	0.56800 0.45190 0.56230 0.28400
C 	C 	0.57330 0.37920 0.74180 0.06000
H 	H 	0.53160 0.40210 0.74750 0.01200
H 	H 	0.60930 0.37210 0.78160 0.02400
C 	C 	0.46890 0.39410 0.58600 0.04900
H 	H 	0.44960 0.39310 0.54200 0.04200
H 	H 	0.43090 0.41310 0.60050 0.01800
C 	C 	0.41130 0.33260 0.68220 -0.16600
H 	H 	0.41930 0.37660 0.69420 0.07200
H 	H 	0.36710 0.33010 0.64680 0.07400
C 	C 	0.39890 0.29560 0.73270 -0.05800
H 	H 	0.35640 0.31290 0.74220 0.03500
H 	H 	0.44230 0.29980 0.76860 0.04600
C 	C 	0.38520 0.22600 0.71710 -0.05800
H 	H 	0.33320 0.21640 0.71130 0.03500
H 	H 	0.41520 0.20090 0.75110 0.04100
C 	C 	0.40380 0.20690 0.65990 -0.17000
H 	H 	0.40690 0.16130 0.65830 0.07500
H 	H 	0.36400 0.22080 0.62430 0.07500
C 	C 	0.51360 0.04130 0.64070 -0.17200
H 	H 	0.52700 0.01880 0.67900 0.07500
H 	H 	0.46700 0.06330 0.63560 0.07500
C 	C 	0.50400 0.99550 0.58980 -0.05300
H 	H 	0.49050 0.01850 0.55160 0.04500
H 	H 	0.46320 0.96710 0.58840 0.04500
C 	C 	0.57250 0.95750 0.59580 -0.06700
H 	H 	0.57970 0.95460 0.55630 0.04800
H 	H 	0.56500 0.91500 0.60840 0.04800
C 	C 	0.64340 0.98480 0.64140 -0.16100
H 	H 	0.64540 0.97320 0.68230 0.07000
H 	H 	0.68700 0.96700 0.63370 0.07200
C 	C 	0.84990 0.99700 0.61960 -0.16800
H 	H 	0.84910 0.98270 0.57970 0.07400
H 	H 	0.81200 0.97380 0.63090 0.07500
C 	C 	0.92640 0.98350 0.66560 -0.06400
H 	H 	0.92360 0.98990 0.70620 0.04800
H 	H 	0.93880 0.93950 0.66210 0.05000
C 	C 	0.98650 0.02310 0.65770 -0.05400
H 	H 	0.02560 0.99610 0.65280 0.05000
H 	H 	0.00760 0.04810 0.69420 0.04600
C 	C 	0.96000 0.06700 0.60340 -0.17100
H 	H 	0.00090 0.09390 0.60180 0.07400
H 	H 	0.94410 0.04230 0.56630 0.07500
C 	C 	0.04710 0.23760 0.58170 -0.17000
H 	H 	0.04790 0.19190 0.58270 0.07400
H 	H 	0.08860 0.25280 0.61540 0.07400
C 	C 	0.05600 0.26050 0.52200 -0.06700
H 	H 	0.10680 0.25270 0.52250 0.03700
H 	H 	0.02290 0.23640 0.48870 0.03500
C 	C 	0.03870 0.32990 0.51090 -0.03900
H 	H 	0.07850 0.34980 0.49930 0.02600
H 	H 	0.99290 0.33460 0.47730 0.02100
C 	C 	0.03060 0.36290 0.56510 -0.18300
H 	H 	0.01950 0.40710 0.55550 0.07500
H 	H 	0.07740 0.36050 0.59810 0.07700
C 	C 	0.92230 0.52780 0.58610 -0.17500
H 	H 	0.89380 0.54890 0.54890 0.07300
H 	H 	0.96320 0.50560 0.57810 0.07300
C 	C 	0.95380 0.57670 0.63490 -0.05300
H 	H 	0.99360 0.55780 0.66760 0.04300
H 	H 	0.97490 0.61110 0.61810 0.03100
C 	C 	0.89540 0.60260 0.66040 -0.06000
H 	H 	0.90540 0.58720 0.70160 0.04700
H 	H 	0.89930 0.64820 0.66210 0.04100
C 	C 	0.81740 0.58450 0.62350 -0.17000
H 	H 	0.80610 0.60190 0.58290 0.07500
H 	H 	0.78250 0.60230 0.64200 0.07600
C 	C 	0.62230 0.57290 0.66620 -0.15400
H 	H 	0.63100 0.57870 0.70940 0.06900
H 	H 	0.65970 0.59700 0.65500 0.07200
C 	C 	0.54570 0.59730 0.63120 -0.07800
H 	H 	0.54140 0.60010 0.58850 0.07700
H 	H 	0.54000 0.63960 0.64530 0.04900
C 	C 	0.48340 0.55610 0.63790 -0.05200
H 	H 	0.45510 0.53960 0.59840 0.06600
H 	H 	0.45010 0.58170 0.65260 0.03400
C 	C 	0.51180 0.50170 0.68130 -0.17400
H 	H 	0.53530 0.51800 0.72190 0.07500
H 	H 	0.47010 0.47540 0.68210 0.07500
N 	N 	0.54710 0.31920 0.71510 -0.17200
N 	N 	0.53820 0.21560 0.71080 -0.17600
N 	N 	0.48110 0.32990 0.60830 -0.16100
N 	N 	0.49050 0.22660 0.60160 -0.15900
N 	N 	0.60260 0.12190 0.69830 -0.18100
N 	N 	0.70500 0.08470 0.68510 -0.17000
N 	N 	0.55240 0.13080 0.58980 -0.15600
N 	N 	0.64560 0.07600 0.57610 -0.15600
N 	N 	0.82750 0.08950 0.67500 -0.16000
N 	N 	0.91790 0.14680 0.66130 -0.16000
N 	N 	0.76840 0.08430 0.56610 -0.16300
N 	N 	0.85890 0.14120 0.55270 -0.16900
N 	N 	0.96870 0.24810 0.64790 -0.15900
N 	N 	0.97250 0.35120 0.64680 -0.16500
N 	N 	0.91010 0.24180 0.53980 -0.17700
N 	N 	0.89640 0.34390 0.54180 -0.17100
N 	N 	0.91220 0.44820 0.65840 -0.15800
N 	N 	0.81480 0.48710 0.67800 -0.15900
N 	N 	0.83410 0.44000 0.55400 -0.16400
N 	N 	0.74240 0.49230 0.57260 -0.16000
N 	N 	0.69660 0.47560 0.69480 -0.16100
N 	N 	0.60730 0.41800 0.70740 -0.16800
N 	N 	0.62400 0.49150 0.59010 -0.15700
N 	N 	0.53400 0.43370 0.60380 -0.15500
O 	O 	0.63440 0.26080 0.78490 -0.41400
O 	O 	0.71500 0.14680 0.76780 -0.41200
O 	O 	0.88730 0.16090 0.74820 -0.26700
O 	O 	0.97990 0.30310 0.73520 -0.23800
O 	O 	0.89710 0.42640 0.75040 -0.24100
O 	O 	0.72730 0.39590 0.76391 -0.26600
O 	O 	0.49180 0.28760 0.52090 -0.22200
O 	O 	0.58110 0.14440 0.50200 -0.22700
O 	O 	0.74360 0.14540 0.48234 -0.25900
O 	O 	0.81160 0.28694 0.46722 -0.42300
O 	O 	0.71400 0.42497 0.49217 -0.24600
O 	O 	0.55020 0.43510 0.51032 -0.23500
La	La	0.75599 0.27681 0.35499 1.44100
C 	C 	0.57920 0.23460 0.23990 0.31700
C 	C 	0.47830 0.19160 0.16570 0.11000
C 	C 	0.47630 0.26480 0.15880 0.11100
C 	C 	0.48870 0.21790 0.07280 0.26300
C 	C 	0.55770 0.34800 0.22860 0.07900
H 	H 	0.58400 0.34880 0.27200 -0.00500
H 	H 	0.51220 0.37220 0.22160 0.00500
C 	C 	0.48560 0.33260 0.07060 0.05100
H 	H 	0.44540 0.35710 0.07700 0.01400
H 	H 	0.47300 0.32460 0.02740 0.04200
C 	C 	0.67720 0.37980 0.22090 0.30800
C 	C 	0.57410 0.41150 0.14140 0.11200
C 	C 	0.64470 0.44440 0.13610 0.10400
C 	C 	0.59240 0.38050 0.05150 0.26400
C 	C 	0.78050 0.43660 0.20740 0.05900
H 	H 	0.78120 0.48220 0.20450 0.01100
H 	H 	0.80110 0.42540 0.25000 0.01800
C 	C 	0.69690 0.44690 0.04720 0.05500
H 	H 	0.67480 0.44190 0.00360 0.03600
H 	H 	0.70470 0.49170 0.05550 0.01400
C 	C 	0.87790 0.36490 0.19840 0.27000
C 	C 	0.83240 0.43370 0.11730 0.11000
C 	C 	0.89680 0.39330 0.10790 0.11200
C 	C 	0.78690 0.37490 0.03000 0.27700
C 	C 	0.98200 0.31240 0.17750 0.05000
H 	H 	0.02220 0.33330 0.16730 0.01400
H 	H 	0.99830 0.30600 0.22120 0.03800
C 	C 	0.89500 0.32220 0.01910 0.07900
H 	H 	0.86400 0.32180 0.97690 -0.01000
H 	H 	0.94180 0.34250 0.02120 0.00200
C 	C 	0.97370 0.19830 0.18170 0.27400
C 	C 	0.97480 0.23910 0.08900 0.11300
C 	C 	0.96980 0.16570 0.08540 0.11300
C 	C 	0.86720 0.20950 0.01180 0.30700
C 	C 	0.98100 0.08550 0.17030 0.05700
H 	H 	0.00540 0.08720 0.21390 0.03300
H 	H 	0.01340 0.06240 0.15270 0.01100
C 	C 	0.86770 0.09480 0.01740 0.07100
H 	H 	0.90840 0.07010 0.01200 0.00100
H 	H 	0.83120 0.10080 0.97760 0.00100
C 	C 	0.87660 0.04900 0.20130 0.27200
C 	C 	0.87370 0.01860 0.10340 0.11800
C 	C 	0.80830 0.98610 0.11960 0.10800
C 	C 	0.75940 0.05020 0.03560 0.26900
C 	C 	0.76910 0.99650 0.21400 0.05200
H 	H 	0.76360 0.95090 0.21350 0.01300
H 	H 	0.79450 0.00900 0.25570 0.03800
C 	C 	0.66970 0.98090 0.05810 0.05400
H 	H 	0.64470 0.98540 0.01480 0.03800
H 	H 	0.67450 0.93610 0.06710 0.01800
C 	C 	0.68080 0.07340 0.22600 0.27800
C 	C 	0.63030 0.99620 0.15340 0.10400
C 	C 	0.56690 0.03730 0.16240 0.11900
C 	C 	0.56800 0.04810 0.06230 0.28400
C 	C 	0.57330 0.12080 0.24180 0.06000
H 	H 	0.53160 0.09790 0.24750 0.01200
H 	H 	0.60930 0.12790 0.28160 0.02400
C 	C 	0.46890 0.10590 0.08600 0.04900
H 	H 	0.44960 0.10690 0.04200 0.04200
H 	H 	0.43090 0.08690 0.10050 0.01800
C 	C 	0.41130 0.16740 0.18220 -0.16600
H 	H 	0.41930 0.12340 0.19420 0.07200
H 	H 	0.36710 0.16990 0.14680 0.07400
C 	C 	0.39890 0.20440 0.23270 -0.05800
H 	H 	0.35640 0.18710 0.24220 0.03500
H 	H 	0.44230 0.20020 0.26860 0.04600
C 	C 	0.38520 0.27400 0.21710 -0.05800
H 	H 	0.33320 0.28360 0.21130 0.03500
H 	H 	0.41520 0.29910 0.25110 0.04100
C 	C 	0.40380 0.29310 0.15990 -0.17100
H 	H 	0.40690 0.33870 0.15830 0.07500
H 	H 	0.36400 0.27920 0.12430 0.07500
C 	C 	0.51360 0.45870 0.14070 -0.17200
H 	H 	0.52700 0.48120 0.17900 0.07500
H 	H 	0.46700 0.43670 0.13560 0.07500
C 	C 	0.50400 0.50450 0.08980 -0.05300
H 	H 	0.49050 0.48150 0.05160 0.04500
H 	H 	0.46320 0.53290 0.08840 0.04600
C 	C 	0.57250 0.54250 0.09580 -0.06700
H 	H 	0.57970 0.54540 0.05630 0.04700
H 	H 	0.56500 0.58500 0.10840 0.04800
C 	C 	0.64340 0.51520 0.14140 -0.16100
H 	H 	0.64540 0.52680 0.18230 0.07000
H 	H 	0.68700 0.53300 0.13370 0.07200
C 	C 	0.84990 0.50300 0.11960 -0.17000
H 	H 	0.84910 0.51730 0.07970 0.07500
H 	H 	0.81200 0.52620 0.13090 0.07500
C 	C 	0.92640 0.51650 0.16560 -0.05700
H 	H 	0.92360 0.51010 0.20620 0.04600
H 	H 	0.93880 0.56050 0.16210 0.04800
C 	C 	0.98650 0.47690 0.15770 -0.06400
H 	H 	0.02560 0.50390 0.15280 0.05200
H 	H 	0.00760 0.45190 0.19420 0.05000
C 	C 	0.96000 0.43300 0.10340 -0.17000
H 	H 	0.00090 0.40610 0.10180 0.07500
H 	H 	0.94410 0.45770 0.06630 0.07400
C 	C 	0.04710 0.26240 0.08170 -0.16900
H 	H 	0.04790 0.30810 0.08270 0.07400
H 	H 	0.08860 0.24720 0.11540 0.07400
C 	C 	0.05600 0.23950 0.02200 -0.06600
H 	H 	0.10680 0.24730 0.02250 0.03700
H 	H 	0.02290 0.26360 0.98870 0.03400
C 	C 	0.03870 0.17010 0.01090 -0.03700
H 	H 	0.07850 0.15020 0.99930 0.02400
H 	H 	0.99290 0.16540 0.97730 0.02100
C 	C 	0.03060 0.13710 0.06510 -0.18300
H 	H 	0.01950 0.09290 0.05550 0.07500
H 	H 	0.07740 0.13950 0.09810 0.07800
C 	C 	0.92230 0.97220 0.08610 -0.17800
H 	H 	0.89380 0.95110 0.04890 0.07400
H 	H 	0.96320 0.99440 0.07810 0.07300
C 	C 	0.95380 0.92330 0.13490 -0.05000
H 	H 	0.99360 0.94220 0.16760 0.04100
H 	H 	0.97490 0.88890 0.11810 0.03000
C 	C 	0.89540 0.89740 0.16040 -0.06300
H 	H 	0.90540 0.91280 0.20160 0.04700
H 	H 	0.89930 0.85180 0.16210 0.04200
C 	C 	0.81740 0.91550 0.12350 -0.16700
H 	H 	0.80610 0.89810 0.08290 0.07400
H 	H 	0.78250 0.89770 0.14200 0.07500
C 	C 	0.62230 0.92710 0.16620 -0.15300
H 	H 	0.63100 0.92130 0.20940 0.06900
H 	H 	0.65970 0.90300 0.15500 0.07100
C 	C 	0.54570 0.90270 0.13120 -0.07900
H 	H 	0.54140 0.89990 0.08850 0.07700
H 	H 	0.54000 0.86040 0.14530 0.04900
C 	C 	0.48340 0.94390 0.13790 -0.05100
H 	H 	0.45510 0.96040 0.09840 0.06500
H 	H 	0.45010 0.91830 0.15260 0.03400
C 	C 	0.51180 0.99830 0.18130 -0.17600
H 	H 	0.53530 0.98200 0.22190 0.07500
H 	H 	0.47010 0.02460 0.18210 0.07600
N 	N 	0.54710 0.18080 0.21510 -0.17200
N 	N 	0.53820 0.28440 0.21080 -0.17600
N 	N 	0.48110 0.17010 0.10830 -0.16100
N 	N 	0.49050 0.27340 0.10160 -0.15900
N 	N 	0.60260 0.37810 0.19830 -0.18100
N 	N 	0.70500 0.41530 0.18510 -0.17000
N 	N 	0.55240 0.36920 0.08980 -0.15600
N 	N 	0.64560 0.42400 0.07610 -0.15600
N 	N 	0.82750 0.41050 0.17500 -0.16000
N 	N 	0.91790 0.35320 0.16130 -0.15900
N 	N 	0.76840 0.41570 0.06610 -0.16300
N 	N 	0.85890 0.35880 0.05270 -0.16800
N 	N 	0.96870 0.25190 0.14790 -0.15800
N 	N 	0.97250 0.14880 0.14680 -0.16500
N 	N 	0.91010 0.25820 0.03980 -0.17700
N 	N 	0.89640 0.15610 0.04180 -0.17100
N 	N 	0.91220 0.05180 0.15840 -0.15800
N 	N 	0.81480 0.01290 0.17800 -0.15700
N 	N 	0.83410 0.06000 0.05400 -0.16400
N 	N 	0.74240 0.00770 0.07260 -0.15900
N 	N 	0.69660 0.02440 0.19480 -0.15900
N 	N 	0.60730 0.08200 0.20740 -0.16800
N 	N 	0.62400 0.00850 0.09010 -0.15600
N 	N 	0.53400 0.06630 0.10380 -0.15500
O 	O 	0.63440 0.23920 0.28490 -0.41400
O 	O 	0.71500 0.35320 0.26780 -0.41200
O 	O 	0.88730 0.33910 0.24820 -0.26700
O 	O 	0.97990 0.19690 0.23520 -0.23800
O 	O 	0.89710 0.07360 0.25040 -0.24100
O 	O 	0.72730 0.10410 0.26391 -0.26600
O 	O 	0.49180 0.21240 0.02090 -0.22200
O 	O 	0.58110 0.35560 0.00200 -0.22700
O 	O 	0.74360 0.35460 0.98234 -0.25800
O 	O 	0.81160 0.21306 0.96722 -0.42300
O 	O 	0.71400 0.07503 0.99217 -0.24600
O 	O 	0.55020 0.06490 0.01032 -0.23500
