data_crystal

_cell_length_a 18.96400
_cell_length_b 21.27200
_cell_length_c 23.23900
_cell_angle_alpha 90.00000
_cell_angle_beta  109.33300
_cell_angle_gamma 90.00000

_symmetry_space_group_name_	'P 1'
_symmetry_space_group_name_H-M	'P 1'

loop_
_symmetry_equiv_pos_as_xyz
  x,y,z

loop_
_atom_site_label
_atom_site_type_symbol
_atom_site_fract_x
_atom_site_fract_y
_atom_site_fract_z
_atom_site_charge
Sm	Sm	0.75330 0.28586 0.14689 1.49300
O 	O 	0.77270 0.10750 0.23210 -0.26300
O 	O 	0.95080 0.06650 0.49090 -0.22900
O 	O 	0.59890 0.07750 0.24910 -0.23900
O 	O 	0.78750 0.07490 0.50910 -0.25200
O 	O 	0.51590 0.19860 0.26520 -0.23300
O 	O 	0.60830 0.34110 0.25311 -0.26500
O 	O 	0.75730 0.35510 0.52228 -0.25600
O 	O 	0.92070 0.35690 0.50060 -0.22500
O 	O 	0.78370 0.35750 0.23294 -0.44700
O 	O 	0.86430 0.24350 0.21800 -0.46100
O 	O 	0.01120 0.21670 0.48160 -0.22800
O 	O 	0.68620 0.21347 0.53742 -0.46100
N 	N 	0.67060 0.41140 0.32760 -0.16400
N 	N 	0.57920 0.35530 0.34090 -0.16000
N 	N 	0.63920 0.36010 0.45010 -0.16900
N 	N 	0.73030 0.41760 0.43720 -0.16000
N 	N 	0.79360 0.41830 0.31630 -0.18000
N 	N 	0.89690 0.38290 0.30370 -0.19400
N 	N 	0.85350 0.42630 0.42610 -0.15700
N 	N 	0.94920 0.37490 0.41320 -0.15600
N 	N 	0.95480 0.18560 0.28640 -0.18400
N 	N 	0.96350 0.28940 0.29090 -0.18900
N 	N 	0.02140 0.17450 0.39410 -0.16200
N 	N 	0.01290 0.27810 0.40060 -0.15900
N 	N 	0.89400 0.08660 0.29060 -0.16600
N 	N 	0.80190 0.02970 0.30370 -0.16200
N 	N 	0.87580 0.01070 0.40880 -0.15800
N 	N 	0.75660 0.00730 0.42760 -0.16400
N 	N 	0.96600 0.07050 0.39670 -0.15600
N 	N 	0.68360 0.01620 0.32090 -0.16000
N 	N 	0.58490 0.05180 0.34120 -0.15900
N 	N 	0.66590 0.06020 0.44630 -0.16600
N 	N 	0.52870 0.25320 0.35410 -0.15900
N 	N 	0.52440 0.14900 0.35450 -0.16100
N 	N 	0.58670 0.25880 0.46400 -0.18400
N 	N 	0.60270 0.15610 0.46190 -0.18500
C 	C 	0.71240 0.37530 0.47460 0.27300
C 	C 	0.66570 0.43570 0.38570 0.11100
C 	C 	0.60090 0.39520 0.39460 0.11900
C 	C 	0.61920 0.36680 0.30280 0.27600
C 	C 	0.64860 0.50530 0.38370 -0.17600
H 	H 	0.68700 0.52840 0.37350 0.07800
H 	H 	0.64910 0.51910 0.42360 0.07900
C 	C 	0.57250 0.51940 0.33660 -0.06300
H 	H 	0.56120 0.56360 0.33880 0.05300
H 	H 	0.57470 0.51130 0.29620 0.05000
C 	C 	0.51000 0.48050 0.34590 -0.05700
H 	H 	0.48560 0.45670 0.30900 0.04900
H 	H 	0.47320 0.50840 0.35280 0.05100
C 	C 	0.53800 0.43510 0.39960 -0.18500
H 	H 	0.55480 0.45890 0.43730 0.08100
H 	H 	0.49720 0.40820 0.40070 0.08000
C 	C 	0.60190 0.32320 0.48430 0.08000
H 	H 	0.63280 0.32320 0.52690 -0.00200
H 	H 	0.55500 0.34350 0.48130 0.00300
C 	C 	0.51470 0.31400 0.32380 0.04800
H 	H 	0.49840 0.30740 0.28010 0.03900
H 	H 	0.47430 0.33460 0.33340 0.01500
C 	C 	0.52330 0.20020 0.31970 0.26900
C 	C 	0.52200 0.23940 0.41360 0.11500
C 	C 	0.52920 0.16620 0.41750 0.11200
C 	C 	0.44910 0.26260 0.41900 -0.17700
H 	H 	0.40780 0.24750 0.38450 0.07700
H 	H 	0.44820 0.30810 0.41820 0.07800
C 	C 	0.46650 0.13580 0.43610 -0.18900
H 	H 	0.41970 0.13820 0.40250 0.08100
H 	H 	0.47790 0.09180 0.44580 0.07800
C 	C 	0.45880 0.16950 0.49120 -0.03700
H 	H 	0.50550 0.16590 0.52480 0.02300
H 	H 	0.42030 0.14900 0.50340 0.02500
C 	C 	0.43910 0.23890 0.47960 -0.07400
H 	H 	0.47080 0.26350 0.51350 0.04100
H 	H 	0.38770 0.24540 0.47760 0.04000
C 	C 	0.51510 0.08630 0.33010 0.05500
H 	H 	0.48950 0.08850 0.28650 0.03400
H 	H 	0.48350 0.06290 0.34780 0.01200
C 	C 	0.63190 0.09420 0.48480 0.08300
H 	H 	0.59130 0.06900 0.48920 -0.00400
H 	H 	0.66880 0.09910 0.52500 -0.00700
C 	C 	0.62070 0.05200 0.29870 0.27300
C 	C 	0.63120 0.20940 0.49160 0.34600
C 	C 	0.62550 0.01740 0.39600 0.11200
C 	C 	0.69090 0.98620 0.37920 0.11700
C 	C 	0.74080 0.04970 0.46500 0.27200
C 	C 	0.68310 0.91540 0.37460 -0.18400
H 	H 	0.69500 0.89770 0.41520 0.08100
H 	H 	0.71800 0.89850 0.35620 0.08100
C 	C 	0.60330 0.89680 0.33620 -0.05800
H 	H 	0.59990 0.85130 0.33320 0.04200
H 	H 	0.59200 0.91360 0.29530 0.04700
C 	C 	0.54580 0.92140 0.36410 -0.05800
H 	H 	0.52620 0.88620 0.38070 0.03500
H 	H 	0.50460 0.94030 0.33220 0.04600
C 	C 	0.57850 0.97010 0.41490 -0.17800
H 	H 	0.53810 0.99150 0.42380 0.07500
H 	H 	0.60880 0.94890 0.45180 0.07500
C 	C 	0.83060 0.98140 0.44130 0.05300
H 	H 	0.82620 0.93690 0.43170 0.01800
H 	H 	0.85660 0.98540 0.48480 0.03900
C 	C 	0.03220 0.10950 0.41610 0.04700
H 	H 	0.07020 0.09030 0.40230 0.01700
H 	H 	0.05120 0.11020 0.46030 0.04100
C 	C 	0.72830 0.00200 0.28330 0.05400
H 	H 	0.70210 0.01650 0.24210 0.03800
H 	H 	0.73340 0.95680 0.28170 0.01300
C 	C 	0.81860 0.07770 0.27180 0.28000
C 	C 	0.93190 0.05090 0.43660 0.27800
C 	C 	0.86890 0.00000 0.34590 0.11200
C 	C 	0.93410 0.04030 0.33730 0.11300
C 	C 	0.87580 0.93060 0.33100 -0.16600
H 	H 	0.83760 0.90670 0.34060 0.07600
H 	H 	0.86720 0.92630 0.28770 0.07400
C 	C 	0.98850 0.00100 0.31790 -0.17500
H 	H 	0.03100 0.02650 0.31830 0.07400
H 	H 	0.96440 0.98600 0.27660 0.07500
C 	C 	0.01540 0.94480 0.36080 -0.05300
H 	H 	0.04800 0.91900 0.34610 0.03200
H 	H 	0.04440 0.96010 0.40100 0.06600
C 	C 	0.95130 0.90420 0.36600 -0.07500
H 	H 	0.95560 0.86240 0.35100 0.04700
H 	H 	0.95560 0.90060 0.40870 0.07500
C 	C 	0.92910 0.12570 0.25790 0.07200
H 	H 	0.89390 0.13320 0.21740 0.02200
H 	H 	0.97140 0.10320 0.25330 0.00800
C 	C 	0.01430 0.22210 0.43010 0.26900
C 	C 	0.02470 0.19590 0.33560 0.11200
C 	C 	0.02740 0.26960 0.34290 0.11600
C 	C 	0.09260 0.17190 0.32100 -0.17400
H 	H 	0.08500 0.12800 0.30900 0.07500
H 	H 	0.13640 0.17450 0.35730 0.07700
C 	C 	0.09950 0.29780 0.34230 -0.18800
H 	H 	0.13970 0.28410 0.37820 0.08100
H 	H 	0.09630 0.34330 0.34400 0.08100
C 	C 	0.11770 0.27910 0.28520 -0.04800
H 	H 	0.08670 0.30350 0.25090 0.03700
H 	H 	0.16940 0.28960 0.29120 0.03100
C 	C 	0.10580 0.20990 0.26980 -0.06600
H 	H 	0.14920 0.19340 0.26180 0.03800
H 	H 	0.06300 0.20510 0.23300 0.04700
C 	C 	0.01810 0.33820 0.43200 0.04500
H 	H 	0.05730 0.36290 0.42490 0.01500
H 	H 	0.03260 0.33030 0.47550 0.04200
C 	C 	0.94240 0.35340 0.27270 0.09900
H 	H 	0.98740 0.37810 0.27990 -0.00300
H 	H 	0.91540 0.35400 0.22920 -0.02000
C 	C 	0.82190 0.38370 0.28130 0.33900
C 	C 	0.85430 0.44850 0.36690 0.11000
C 	C 	0.92500 0.41710 0.36000 0.11400
C 	C 	0.90850 0.38400 0.45070 0.26300
C 	C 	0.85450 0.51870 0.36220 -0.18000
H 	H 	0.81120 0.53550 0.37030 0.08000
H 	H 	0.85080 0.53050 0.32100 0.07700
C 	C 	0.92530 0.54760 0.40710 -0.05600
H 	H 	0.93040 0.59030 0.39440 0.04500
H 	H 	0.91990 0.54950 0.44710 0.04400
C 	C 	0.99550 0.51180 0.41180 -0.06300
H 	H 	0.01240 0.48970 0.45040 0.04900
H 	H 	0.03430 0.54130 0.41130 0.05100
C 	C 	0.98440 0.46490 0.36050 -0.17700
H 	H 	0.03110 0.44340 0.36550 0.07800
H 	H 	0.96970 0.48700 0.32180 0.07700
C 	C 	0.71600 0.43870 0.29450 0.06500
H 	H 	0.69430 0.42770 0.25170 0.01700
H 	H 	0.71450 0.48410 0.29760 0.00800
C 	C 	0.80250 0.44800 0.45710 0.05000
H 	H 	0.82570 0.44120 0.50050 0.03800
H 	H 	0.79510 0.49290 0.45050 0.01500
C 	C 	0.92170 0.23920 0.26190 0.35800
Sm	Sm	0.75330 0.21414 0.64689 1.49200
O 	O 	0.77270 0.39250 0.73210 -0.26400
O 	O 	0.95080 0.43350 0.99090 -0.22900
O 	O 	0.59890 0.42250 0.74910 -0.23900
O 	O 	0.78750 0.42510 0.00910 -0.25200
O 	O 	0.51590 0.30140 0.76520 -0.23300
O 	O 	0.60830 0.15890 0.75311 -0.26500
O 	O 	0.75730 0.14490 0.02228 -0.25500
O 	O 	0.92070 0.14310 0.00060 -0.22300
O 	O 	0.78370 0.14250 0.73294 -0.44700
O 	O 	0.86430 0.25650 0.71800 -0.46100
O 	O 	0.01120 0.28330 0.98160 -0.22800
O 	O 	0.68620 0.28653 0.03742 -0.46000
N 	N 	0.67060 0.08860 0.82760 -0.16400
N 	N 	0.57920 0.14470 0.84090 -0.15900
N 	N 	0.63920 0.13990 0.95010 -0.16800
N 	N 	0.73030 0.08240 0.93720 -0.15900
N 	N 	0.79360 0.08170 0.81630 -0.18000
N 	N 	0.89690 0.11710 0.80370 -0.19400
N 	N 	0.85350 0.07370 0.92610 -0.15700
N 	N 	0.94920 0.12510 0.91320 -0.15600
N 	N 	0.95480 0.31440 0.78640 -0.18500
N 	N 	0.96350 0.21060 0.79090 -0.18900
N 	N 	0.02140 0.32550 0.89410 -0.16300
N 	N 	0.01290 0.22190 0.90060 -0.15900
N 	N 	0.89400 0.41340 0.79060 -0.16700
N 	N 	0.80190 0.47030 0.80370 -0.16200
N 	N 	0.87580 0.48930 0.90880 -0.15800
N 	N 	0.75660 0.49270 0.92760 -0.16400
N 	N 	0.96600 0.42950 0.89670 -0.15700
N 	N 	0.68360 0.48380 0.82090 -0.15900
N 	N 	0.58490 0.44820 0.84120 -0.15900
N 	N 	0.66590 0.43980 0.94630 -0.16500
N 	N 	0.52870 0.24680 0.85410 -0.15900
N 	N 	0.52440 0.35100 0.85450 -0.16100
N 	N 	0.58670 0.24120 0.96400 -0.18300
N 	N 	0.60270 0.34390 0.96190 -0.18500
C 	C 	0.71240 0.12470 0.97460 0.27100
C 	C 	0.66570 0.06430 0.88570 0.11200
C 	C 	0.60090 0.10480 0.89460 0.11600
C 	C 	0.61920 0.13320 0.80280 0.27600
C 	C 	0.64860 0.99470 0.88370 -0.18100
H 	H 	0.68700 0.97160 0.87350 0.08000
H 	H 	0.64910 0.98090 0.92360 0.08100
C 	C 	0.57250 0.98060 0.83660 -0.05000
H 	H 	0.56120 0.93640 0.83880 0.04900
H 	H 	0.57470 0.98870 0.79620 0.04700
C 	C 	0.51000 0.01950 0.84590 -0.07400
H 	H 	0.48560 0.04330 0.80900 0.05300
H 	H 	0.47320 0.99160 0.85280 0.05800
C 	C 	0.53800 0.06490 0.89960 -0.17600
H 	H 	0.55480 0.04110 0.93730 0.07700
H 	H 	0.49720 0.09180 0.90070 0.07700
C 	C 	0.60190 0.17680 0.98430 0.07700
H 	H 	0.63280 0.17680 0.02690 -0.00100
H 	H 	0.55500 0.15650 0.98130 0.00300
C 	C 	0.51470 0.18600 0.82380 0.04800
H 	H 	0.49840 0.19260 0.78010 0.03900
H 	H 	0.47430 0.16540 0.83340 0.01400
C 	C 	0.52330 0.29980 0.81970 0.26900
C 	C 	0.52200 0.26060 0.91360 0.11500
C 	C 	0.52920 0.33380 0.91750 0.11200
C 	C 	0.44910 0.23740 0.91900 -0.17700
H 	H 	0.40780 0.25250 0.88450 0.07700
H 	H 	0.44820 0.19190 0.91820 0.07700
C 	C 	0.46650 0.36420 0.93610 -0.18900
H 	H 	0.41970 0.36180 0.90250 0.08100
H 	H 	0.47790 0.40820 0.94580 0.07800
C 	C 	0.45880 0.33050 0.99120 -0.03800
H 	H 	0.50550 0.33410 0.02480 0.02400
H 	H 	0.42030 0.35100 0.00340 0.02600
C 	C 	0.43910 0.26110 0.97960 -0.07500
H 	H 	0.47080 0.23650 0.01350 0.04200
H 	H 	0.38770 0.25460 0.97760 0.04000
C 	C 	0.51510 0.41370 0.83010 0.05400
H 	H 	0.48950 0.41150 0.78650 0.03400
H 	H 	0.48350 0.43710 0.84780 0.01200
C 	C 	0.63190 0.40580 0.98480 0.08200
H 	H 	0.59130 0.43100 0.98920 -0.00400
H 	H 	0.66880 0.40090 0.02500 -0.00700
C 	C 	0.62070 0.44800 0.79870 0.27300
C 	C 	0.63120 0.29060 0.99160 0.34400
C 	C 	0.62550 0.48260 0.89600 0.11400
C 	C 	0.69090 0.51380 0.87920 0.11600
C 	C 	0.74080 0.45030 0.96500 0.27100
C 	C 	0.68310 0.58460 0.87460 -0.18300
H 	H 	0.69500 0.60230 0.91520 0.08100
H 	H 	0.71800 0.60150 0.85620 0.08100
C 	C 	0.60330 0.60320 0.83620 -0.05900
H 	H 	0.59990 0.64870 0.83320 0.04300
H 	H 	0.59200 0.58640 0.79530 0.04700
C 	C 	0.54580 0.57860 0.86410 -0.05700
H 	H 	0.52620 0.61380 0.88070 0.03500
H 	H 	0.50460 0.55970 0.83220 0.04600
C 	C 	0.57850 0.52990 0.91490 -0.18000
H 	H 	0.53810 0.50850 0.92380 0.07500
H 	H 	0.60880 0.55110 0.95180 0.07600
C 	C 	0.83060 0.51860 0.94130 0.05300
H 	H 	0.82620 0.56310 0.93170 0.01800
H 	H 	0.85660 0.51460 0.98480 0.03900
C 	C 	0.03220 0.39050 0.91610 0.04900
H 	H 	0.07020 0.40970 0.90230 0.01700
H 	H 	0.05120 0.38980 0.96030 0.04100
C 	C 	0.72830 0.49800 0.78330 0.05400
H 	H 	0.70210 0.48350 0.74210 0.03800
H 	H 	0.73340 0.54320 0.78170 0.01300
C 	C 	0.81860 0.42230 0.77180 0.28000
C 	C 	0.93190 0.44910 0.93660 0.27800
C 	C 	0.86890 0.50000 0.84590 0.11000
C 	C 	0.93410 0.45970 0.83730 0.11500
C 	C 	0.87580 0.56940 0.83100 -0.16400
H 	H 	0.83760 0.59330 0.84060 0.07600
H 	H 	0.86720 0.57370 0.78770 0.07300
C 	C 	0.98850 0.49900 0.81790 -0.18400
H 	H 	0.03100 0.47350 0.81830 0.07900
H 	H 	0.96440 0.51400 0.77660 0.07900
C 	C 	0.01540 0.55520 0.86080 -0.05000
H 	H 	0.04800 0.58100 0.84610 0.03000
H 	H 	0.04440 0.53990 0.90100 0.06400
C 	C 	0.95130 0.59580 0.86600 -0.07700
H 	H 	0.95560 0.63760 0.85100 0.04700
H 	H 	0.95560 0.59940 0.90870 0.07600
C 	C 	0.92910 0.37430 0.75790 0.07200
H 	H 	0.89390 0.36680 0.71740 0.02100
H 	H 	0.97140 0.39680 0.75330 0.00700
C 	C 	0.01430 0.27790 0.93010 0.26900
C 	C 	0.02470 0.30410 0.83560 0.11300
C 	C 	0.02740 0.23040 0.84290 0.11600
C 	C 	0.09260 0.32810 0.82100 -0.17400
H 	H 	0.08500 0.37200 0.80900 0.07600
H 	H 	0.13640 0.32550 0.85730 0.07700
C 	C 	0.09950 0.20220 0.84230 -0.18800
H 	H 	0.13970 0.21590 0.87820 0.08100
H 	H 	0.09630 0.15670 0.84400 0.08000
C 	C 	0.11770 0.22090 0.78520 -0.04800
H 	H 	0.08670 0.19650 0.75090 0.03700
H 	H 	0.16940 0.21040 0.79120 0.03100
C 	C 	0.10580 0.29010 0.76980 -0.06600
H 	H 	0.14920 0.30660 0.76180 0.03800
H 	H 	0.06300 0.29490 0.73300 0.04700
C 	C 	0.01810 0.16180 0.93200 0.04400
H 	H 	0.05730 0.13710 0.92490 0.01500
H 	H 	0.03260 0.16970 0.97550 0.04200
C 	C 	0.94240 0.14660 0.77270 0.09900
H 	H 	0.98740 0.12190 0.77990 -0.00300
H 	H 	0.91540 0.14600 0.72920 -0.02000
C 	C 	0.82190 0.11630 0.78130 0.33900
C 	C 	0.85430 0.05150 0.86690 0.10900
C 	C 	0.92500 0.08290 0.86000 0.11300
C 	C 	0.90850 0.11600 0.95070 0.26100
C 	C 	0.85450 0.98130 0.86220 -0.17900
H 	H 	0.81120 0.96450 0.87030 0.08000
H 	H 	0.85080 0.96950 0.82100 0.07700
C 	C 	0.92530 0.95240 0.90710 -0.05500
H 	H 	0.93040 0.90970 0.89440 0.04500
H 	H 	0.91990 0.95050 0.94710 0.04400
C 	C 	0.99550 0.98820 0.91180 -0.06400
H 	H 	0.01240 0.01030 0.95040 0.04700
H 	H 	0.03430 0.95870 0.91130 0.05400
C 	C 	0.98440 0.03510 0.86050 -0.17300
H 	H 	0.03110 0.05660 0.86550 0.07500
H 	H 	0.96970 0.01300 0.82180 0.07500
C 	C 	0.71600 0.06130 0.79450 0.06500
H 	H 	0.69430 0.07230 0.75170 0.01700
H 	H 	0.71450 0.01590 0.79760 0.00700
C 	C 	0.80250 0.05200 0.95710 0.04700
H 	H 	0.82570 0.05880 0.00050 0.03900
H 	H 	0.79510 0.00710 0.95050 0.01500
C 	C 	0.92170 0.26080 0.76190 0.35700
Sm	Sm	0.24670 0.78586 0.35311 1.49200
O 	O 	0.22730 0.60750 0.26790 -0.26400
O 	O 	0.04920 0.56650 0.00910 -0.22900
O 	O 	0.40110 0.57750 0.25090 -0.23900
O 	O 	0.21250 0.57490 0.99090 -0.25200
O 	O 	0.48410 0.69860 0.23480 -0.23300
O 	O 	0.39170 0.84110 0.24689 -0.26500
O 	O 	0.24270 0.85510 0.97772 -0.25500
O 	O 	0.07930 0.85690 0.99940 -0.22300
O 	O 	0.21630 0.85750 0.26706 -0.44700
O 	O 	0.13570 0.74350 0.28200 -0.46100
O 	O 	0.98880 0.71670 0.01840 -0.22900
O 	O 	0.31380 0.71347 0.96258 -0.46000
N 	N 	0.32940 0.91140 0.17240 -0.16400
N 	N 	0.42080 0.85530 0.15910 -0.16000
N 	N 	0.36080 0.86010 0.04990 -0.16800
N 	N 	0.26970 0.91760 0.06280 -0.15900
N 	N 	0.20640 0.91830 0.18370 -0.18100
N 	N 	0.10310 0.88290 0.19630 -0.19300
N 	N 	0.14650 0.92630 0.07390 -0.15700
N 	N 	0.05080 0.87490 0.08680 -0.15500
N 	N 	0.04520 0.68560 0.21360 -0.18500
N 	N 	0.03650 0.78940 0.20910 -0.18900
N 	N 	0.97860 0.67450 0.10590 -0.16300
N 	N 	0.98710 0.77810 0.09940 -0.15900
N 	N 	0.10600 0.58660 0.20940 -0.16700
N 	N 	0.19810 0.52970 0.19630 -0.16200
N 	N 	0.12420 0.51070 0.09120 -0.15800
N 	N 	0.24340 0.50730 0.07240 -0.16400
N 	N 	0.03400 0.57050 0.10330 -0.15700
N 	N 	0.31640 0.51620 0.17910 -0.15900
N 	N 	0.41510 0.55180 0.15880 -0.15900
N 	N 	0.33410 0.56020 0.05370 -0.16500
N 	N 	0.47130 0.75320 0.14590 -0.15900
N 	N 	0.47560 0.64900 0.14550 -0.16100
N 	N 	0.41330 0.75880 0.03600 -0.18300
N 	N 	0.39730 0.65610 0.03810 -0.18500
C 	C 	0.28760 0.87530 0.02540 0.27100
C 	C 	0.33430 0.93570 0.11430 0.11100
C 	C 	0.39910 0.89520 0.10540 0.11900
C 	C 	0.38080 0.86680 0.19720 0.27600
C 	C 	0.35140 0.00530 0.11630 -0.17600
H 	H 	0.31300 0.02840 0.12650 0.07800
H 	H 	0.35090 0.01910 0.07640 0.07800
C 	C 	0.42750 0.01940 0.16340 -0.06600
H 	H 	0.43880 0.06360 0.16120 0.05300
H 	H 	0.42530 0.01130 0.20380 0.05000
C 	C 	0.49000 0.98050 0.15410 -0.05200
H 	H 	0.51440 0.95670 0.19100 0.04700
H 	H 	0.52680 0.00840 0.14720 0.04900
C 	C 	0.46200 0.93510 0.10040 -0.18700
H 	H 	0.44520 0.95890 0.06270 0.08200
H 	H 	0.50280 0.90820 0.09930 0.08100
C 	C 	0.39810 0.82320 0.01570 0.07700
H 	H 	0.36720 0.82320 0.97310 -0.00100
H 	H 	0.44500 0.84350 0.01870 0.00300
C 	C 	0.48530 0.81400 0.17620 0.04800
H 	H 	0.50160 0.80740 0.21990 0.03900
H 	H 	0.52570 0.83460 0.16660 0.01500
C 	C 	0.47670 0.70020 0.18030 0.26900
C 	C 	0.47800 0.73940 0.08640 0.11500
C 	C 	0.47080 0.66620 0.08250 0.11200
C 	C 	0.55090 0.76260 0.08100 -0.17700
H 	H 	0.59220 0.74750 0.11550 0.07700
H 	H 	0.55180 0.80810 0.08180 0.07800
C 	C 	0.53350 0.63580 0.06390 -0.18900
H 	H 	0.58030 0.63820 0.09750 0.08100
H 	H 	0.52210 0.59180 0.05420 0.07800
C 	C 	0.54120 0.66950 0.00880 -0.03800
H 	H 	0.49450 0.66590 0.97520 0.02400
H 	H 	0.57970 0.64900 0.99660 0.02600
C 	C 	0.56090 0.73890 0.02040 -0.07500
H 	H 	0.52920 0.76350 0.98650 0.04200
H 	H 	0.61230 0.74540 0.02240 0.04000
C 	C 	0.48490 0.58630 0.16990 0.05400
H 	H 	0.51050 0.58850 0.21350 0.03400
H 	H 	0.51650 0.56290 0.15220 0.01200
C 	C 	0.36810 0.59420 0.01520 0.08200
H 	H 	0.40870 0.56900 0.01080 -0.00400
H 	H 	0.33120 0.59910 0.97500 -0.00700
C 	C 	0.37930 0.55200 0.20130 0.27300
C 	C 	0.36880 0.70940 0.00840 0.34400
C 	C 	0.37450 0.51740 0.10400 0.11400
C 	C 	0.30910 0.48620 0.12080 0.11600
C 	C 	0.25920 0.54970 0.03500 0.27100
C 	C 	0.31690 0.41540 0.12540 -0.18300
H 	H 	0.30500 0.39770 0.08480 0.08100
H 	H 	0.28200 0.39850 0.14380 0.08100
C 	C 	0.39670 0.39680 0.16380 -0.05900
H 	H 	0.40010 0.35130 0.16680 0.04300
H 	H 	0.40800 0.41360 0.20470 0.04700
C 	C 	0.45420 0.42140 0.13590 -0.05700
H 	H 	0.47380 0.38620 0.11930 0.03500
H 	H 	0.49540 0.44030 0.16780 0.04600
C 	C 	0.42150 0.47010 0.08510 -0.18000
H 	H 	0.46190 0.49150 0.07620 0.07500
H 	H 	0.39120 0.44890 0.04820 0.07600
C 	C 	0.16940 0.48140 0.05870 0.05300
H 	H 	0.17380 0.43690 0.06830 0.01800
H 	H 	0.14340 0.48540 0.01520 0.03900
C 	C 	0.96780 0.60950 0.08390 0.04900
H 	H 	0.92980 0.59030 0.09770 0.01700
H 	H 	0.94880 0.61020 0.03970 0.04100
C 	C 	0.27170 0.50200 0.21670 0.05400
H 	H 	0.29790 0.51650 0.25790 0.03800
H 	H 	0.26660 0.45680 0.21830 0.01300
C 	C 	0.18140 0.57770 0.22820 0.28000
C 	C 	0.06810 0.55090 0.06340 0.27800
C 	C 	0.13110 0.50000 0.15410 0.11000
C 	C 	0.06590 0.54030 0.16270 0.11500
C 	C 	0.12420 0.43060 0.16900 -0.16400
H 	H 	0.16240 0.40670 0.15940 0.07600
H 	H 	0.13280 0.42630 0.21230 0.07300
C 	C 	0.01150 0.50100 0.18210 -0.18400
H 	H 	0.96900 0.52650 0.18170 0.07900
H 	H 	0.03560 0.48600 0.22340 0.07900
C 	C 	0.98460 0.44480 0.13920 -0.05000
H 	H 	0.95200 0.41900 0.15390 0.03000
H 	H 	0.95560 0.46010 0.09900 0.06500
C 	C 	0.04870 0.40420 0.13400 -0.07700
H 	H 	0.04440 0.36240 0.14900 0.04700
H 	H 	0.04440 0.40060 0.09130 0.07600
C 	C 	0.07090 0.62570 0.24210 0.07200
H 	H 	0.10610 0.63320 0.28260 0.02100
H 	H 	0.02860 0.60320 0.24670 0.00700
C 	C 	0.98570 0.72210 0.06990 0.26900
C 	C 	0.97530 0.69590 0.16440 0.11300
C 	C 	0.97260 0.76960 0.15710 0.11600
C 	C 	0.90740 0.67190 0.17900 -0.17400
H 	H 	0.91500 0.62800 0.19100 0.07600
H 	H 	0.86360 0.67450 0.14270 0.07700
C 	C 	0.90050 0.79780 0.15770 -0.18800
H 	H 	0.86030 0.78410 0.12180 0.08100
H 	H 	0.90370 0.84330 0.15600 0.08100
C 	C 	0.88230 0.77910 0.21480 -0.04800
H 	H 	0.91330 0.80350 0.24910 0.03700
H 	H 	0.83060 0.78960 0.20880 0.03200
C 	C 	0.89420 0.70990 0.23020 -0.06600
H 	H 	0.85080 0.69340 0.23820 0.03800
H 	H 	0.93700 0.70510 0.26700 0.04700
C 	C 	0.98190 0.83820 0.06800 0.04400
H 	H 	0.94270 0.86290 0.07510 0.01600
H 	H 	0.96740 0.83030 0.02450 0.04200
C 	C 	0.05760 0.85340 0.22730 0.09900
H 	H 	0.01260 0.87810 0.22010 -0.00300
H 	H 	0.08460 0.85400 0.27080 -0.02000
C 	C 	0.17810 0.88370 0.21870 0.33900
C 	C 	0.14570 0.94850 0.13310 0.11700
C 	C 	0.07500 0.91710 0.14000 0.10800
C 	C 	0.09150 0.88400 0.04930 0.26100
C 	C 	0.14550 0.01870 0.13780 -0.19500
H 	H 	0.18880 0.03550 0.12970 0.08400
H 	H 	0.14920 0.03050 0.17900 0.08000
C 	C 	0.07470 0.04760 0.09290 -0.03600
H 	H 	0.06960 0.09030 0.10560 0.03900
H 	H 	0.08010 0.04950 0.05290 0.03800
C 	C 	0.00450 0.01180 0.08820 -0.09200
H 	H 	0.98760 0.98970 0.04960 0.05700
H 	H 	0.96570 0.04130 0.08870 0.06100
C 	C 	0.01560 0.96490 0.13950 -0.15500
H 	H 	0.96890 0.94340 0.13450 0.07000
H 	H 	0.03030 0.98700 0.17820 0.07100
C 	C 	0.28400 0.93870 0.20550 0.06500
H 	H 	0.30570 0.92770 0.24830 0.01700
H 	H 	0.28550 0.98410 0.20240 0.00900
C 	C 	0.19750 0.94800 0.04290 0.04700
H 	H 	0.17430 0.94120 0.99950 0.04000
H 	H 	0.20490 0.99290 0.04950 0.01600
C 	C 	0.07830 0.73920 0.23810 0.35700
Sm	Sm	0.24670 0.71414 0.85311 1.49200
O 	O 	0.22730 0.89250 0.76790 -0.26400
O 	O 	0.04920 0.93350 0.50910 -0.22800
O 	O 	0.40110 0.92250 0.75090 -0.23800
O 	O 	0.21250 0.92510 0.49090 -0.25200
O 	O 	0.48410 0.80140 0.73480 -0.23300
O 	O 	0.39170 0.65890 0.74689 -0.26500
O 	O 	0.24270 0.64490 0.47772 -0.25600
O 	O 	0.07930 0.64310 0.49940 -0.22500
O 	O 	0.21630 0.64250 0.76706 -0.44700
O 	O 	0.13570 0.75650 0.78200 -0.46100
O 	O 	0.98880 0.78330 0.51840 -0.22800
O 	O 	0.31380 0.78653 0.46258 -0.46100
N 	N 	0.32940 0.58860 0.67240 -0.16400
N 	N 	0.42080 0.64470 0.65910 -0.16000
N 	N 	0.36080 0.63990 0.54990 -0.16900
N 	N 	0.26970 0.58240 0.56280 -0.16000
N 	N 	0.20640 0.58170 0.68370 -0.18000
N 	N 	0.10310 0.61710 0.69630 -0.19400
N 	N 	0.14650 0.57370 0.57390 -0.15700
N 	N 	0.05080 0.62510 0.58680 -0.15600
N 	N 	0.04520 0.81440 0.71360 -0.18400
N 	N 	0.03650 0.71060 0.70910 -0.18900
N 	N 	0.97860 0.82550 0.60590 -0.16200
N 	N 	0.98710 0.72190 0.59940 -0.15900
N 	N 	0.10600 0.91340 0.70940 -0.16600
N 	N 	0.19810 0.97030 0.69630 -0.16000
N 	N 	0.12420 0.98930 0.59120 -0.15400
N 	N 	0.24340 0.99270 0.57240 -0.16000
N 	N 	0.03400 0.92950 0.60330 -0.15500
N 	N 	0.31640 0.98380 0.67910 -0.15800
N 	N 	0.41510 0.94820 0.65880 -0.15900
N 	N 	0.33410 0.93980 0.55370 -0.16600
N 	N 	0.47130 0.74680 0.64590 -0.15900
N 	N 	0.47560 0.85100 0.64550 -0.16100
N 	N 	0.41330 0.74120 0.53600 -0.18400
N 	N 	0.39730 0.84390 0.53810 -0.18500
C 	C 	0.28760 0.62470 0.52540 0.27300
C 	C 	0.33430 0.56430 0.61430 0.11100
C 	C 	0.39910 0.60480 0.60540 0.11900
C 	C 	0.38080 0.63320 0.69720 0.27600
C 	C 	0.35140 0.49470 0.61630 -0.17600
H 	H 	0.31300 0.47160 0.62650 0.07800
H 	H 	0.35090 0.48090 0.57640 0.07900
C 	C 	0.42750 0.48060 0.66340 -0.06300
H 	H 	0.43880 0.43640 0.66120 0.05300
H 	H 	0.42530 0.48870 0.70380 0.05000
C 	C 	0.49000 0.51950 0.65410 -0.05700
H 	H 	0.51440 0.54330 0.69100 0.04900
H 	H 	0.52680 0.49160 0.64720 0.05100
C 	C 	0.46200 0.56490 0.60040 -0.18500
H 	H 	0.44520 0.54110 0.56270 0.08100
H 	H 	0.50280 0.59180 0.59930 0.08000
C 	C 	0.39810 0.67680 0.51570 0.08000
H 	H 	0.36720 0.67680 0.47310 -0.00200
H 	H 	0.44500 0.65650 0.51870 0.00300
C 	C 	0.48530 0.68600 0.67620 0.04800
H 	H 	0.50160 0.69260 0.71990 0.03900
H 	H 	0.52570 0.66540 0.66660 0.01500
C 	C 	0.47670 0.79980 0.68030 0.26900
C 	C 	0.47800 0.76060 0.58640 0.11500
C 	C 	0.47080 0.83380 0.58250 0.11200
C 	C 	0.55090 0.73740 0.58100 -0.17700
H 	H 	0.59220 0.75250 0.61550 0.07700
H 	H 	0.55180 0.69190 0.58180 0.07800
C 	C 	0.53350 0.86420 0.56390 -0.19000
H 	H 	0.58030 0.86180 0.59750 0.08100
H 	H 	0.52210 0.90820 0.55420 0.07800
C 	C 	0.54120 0.83050 0.50880 -0.03600
H 	H 	0.49450 0.83410 0.47520 0.02300
H 	H 	0.57970 0.85100 0.49660 0.02500
C 	C 	0.56090 0.76110 0.52040 -0.07400
H 	H 	0.52920 0.73650 0.48650 0.04100
H 	H 	0.61230 0.75460 0.52240 0.04000
C 	C 	0.48490 0.91370 0.66990 0.05400
H 	H 	0.51050 0.91150 0.71350 0.03400
H 	H 	0.51650 0.93710 0.65220 0.01300
C 	C 	0.36810 0.90580 0.51520 0.08300
H 	H 	0.40870 0.93100 0.51080 -0.00400
H 	H 	0.33120 0.90090 0.47500 -0.00700
C 	C 	0.37930 0.94800 0.70130 0.27400
C 	C 	0.36880 0.79060 0.50840 0.34600
C 	C 	0.37450 0.98260 0.60400 0.12000
C 	C 	0.30910 0.01380 0.62080 0.10800
C 	C 	0.25920 0.95030 0.53500 0.27200
C 	C 	0.31690 0.08460 0.62540 -0.17700
H 	H 	0.30500 0.10230 0.58480 0.07900
H 	H 	0.28200 0.10150 0.64380 0.07900
C 	C 	0.39670 0.10320 0.66380 -0.06400
H 	H 	0.40010 0.14870 0.66680 0.04400
H 	H 	0.40800 0.08640 0.70470 0.04800
C 	C 	0.45420 0.07860 0.63590 -0.05200
H 	H 	0.47380 0.11380 0.61930 0.03300
H 	H 	0.49540 0.05970 0.66780 0.04400
C 	C 	0.42150 0.02990 0.58510 -0.18700
H 	H 	0.46190 0.00850 0.57620 0.07700
H 	H 	0.39120 0.05110 0.54820 0.07700
C 	C 	0.16940 0.01860 0.55870 0.04600
H 	H 	0.17380 0.06310 0.56830 0.02000
H 	H 	0.14340 0.01460 0.51520 0.04000
C 	C 	0.96780 0.89050 0.58390 0.04700
H 	H 	0.92980 0.90970 0.59770 0.01800
H 	H 	0.94880 0.88980 0.53970 0.04200
C 	C 	0.27170 0.99800 0.71670 0.06100
H 	H 	0.29790 0.98350 0.75790 0.03700
H 	H 	0.26660 0.04320 0.71830 0.00900
C 	C 	0.18140 0.92230 0.72820 0.28000
C 	C 	0.06810 0.94910 0.56340 0.27800
C 	C 	0.13110 0.00000 0.65410 0.10500
C 	C 	0.06590 0.95970 0.66270 0.11200
C 	C 	0.12420 0.06940 0.66900 -0.16600
H 	H 	0.16240 0.09330 0.65940 0.07600
H 	H 	0.13280 0.07370 0.71230 0.07300
C 	C 	0.01150 0.99900 0.68210 -0.16000
H 	H 	0.96900 0.97350 0.68170 0.07000
H 	H 	0.03560 0.01400 0.72340 0.06800
C 	C 	0.98460 0.05520 0.63920 -0.06400
H 	H 	0.95200 0.08100 0.65390 0.03500
H 	H 	0.95560 0.03990 0.59900 0.06900
C 	C 	0.04870 0.09580 0.63400 -0.07100
H 	H 	0.04440 0.13760 0.64900 0.04500
H 	H 	0.04440 0.09940 0.59130 0.07300
C 	C 	0.07090 0.87430 0.74210 0.07100
H 	H 	0.10610 0.86680 0.78260 0.02200
H 	H 	0.02860 0.89680 0.74670 0.00900
C 	C 	0.98570 0.77790 0.56990 0.26900
C 	C 	0.97530 0.80410 0.66440 0.11200
C 	C 	0.97260 0.73040 0.65710 0.11600
C 	C 	0.90740 0.82810 0.67900 -0.17400
H 	H 	0.91500 0.87200 0.69100 0.07600
H 	H 	0.86360 0.82550 0.64270 0.07700
C 	C 	0.90050 0.70220 0.65770 -0.18800
H 	H 	0.86030 0.71590 0.62180 0.08100
H 	H 	0.90370 0.65670 0.65600 0.08100
C 	C 	0.88230 0.72090 0.71480 -0.04800
H 	H 	0.91330 0.69650 0.74910 0.03700
H 	H 	0.83060 0.71040 0.70880 0.03200
C 	C 	0.89420 0.79010 0.73020 -0.06600
H 	H 	0.85080 0.80660 0.73820 0.03800
H 	H 	0.93700 0.79490 0.76700 0.04700
C 	C 	0.98190 0.66180 0.56800 0.04500
H 	H 	0.94270 0.63710 0.57510 0.01500
H 	H 	0.96740 0.66970 0.52450 0.04200
C 	C 	0.05760 0.64660 0.72730 0.09900
H 	H 	0.01260 0.62190 0.72010 -0.00300
H 	H 	0.08460 0.64600 0.77080 -0.02000
C 	C 	0.17810 0.61630 0.71870 0.33900
C 	C 	0.14570 0.55150 0.63310 0.11000
C 	C 	0.07500 0.58290 0.64000 0.11400
C 	C 	0.09150 0.61600 0.54930 0.26300
C 	C 	0.14550 0.48130 0.63780 -0.18000
H 	H 	0.18880 0.46450 0.62970 0.08000
H 	H 	0.14920 0.46950 0.67900 0.07700
C 	C 	0.07470 0.45240 0.59290 -0.05600
H 	H 	0.06960 0.40970 0.60560 0.04600
H 	H 	0.08010 0.45050 0.55290 0.04500
C 	C 	0.00450 0.48820 0.58820 -0.06300
H 	H 	0.98760 0.51030 0.54960 0.04900
H 	H 	0.96570 0.45870 0.58870 0.05100
C 	C 	0.01560 0.53510 0.63950 -0.17700
H 	H 	0.96890 0.55660 0.63450 0.07800
H 	H 	0.03030 0.51300 0.67820 0.07700
C 	C 	0.28400 0.56130 0.70550 0.06500
H 	H 	0.30570 0.57230 0.74830 0.01700
H 	H 	0.28550 0.51590 0.70240 0.00800
C 	C 	0.19750 0.55200 0.54290 0.05000
H 	H 	0.17430 0.55880 0.49950 0.03800
H 	H 	0.20490 0.50710 0.54950 0.01500
C 	C 	0.07830 0.76080 0.73810 0.35800
