data_crystal

_cell_length_a 19.02040
_cell_length_b 21.13590
_cell_length_c 23.16500
_cell_angle_alpha 90.00000
_cell_angle_beta  109.29200
_cell_angle_gamma 90.00000

_symmetry_space_group_name_	'P 1'
_symmetry_space_group_name_H-M	'P 1'

loop_
_symmetry_equiv_pos_as_xyz
  x,y,z

loop_
_atom_site_label
_atom_site_type_symbol
_atom_site_fract_x
_atom_site_fract_y
_atom_site_fract_z
_atom_site_charge
Tb	Tb	0.74218 0.78913 0.85334 1.37300
O 	O 	0.98166 0.79918 0.23459 -0.23400
O 	O 	0.57700 0.64113 0.99957 -0.23100
O 	O 	0.88912 0.65868 0.24667 -0.25700
O 	O 	0.72472 0.88770 0.26932 -0.25300
O 	O 	0.63567 0.75437 0.28206 -0.44700
O 	O 	0.54756 0.93337 0.01030 -0.23400
O 	O 	0.71534 0.64082 0.26803 -0.43800
O 	O 	0.70916 0.92624 0.99173 -0.24900
O 	O 	0.80922 0.78688 0.96149 -0.44000
O 	O 	0.89903 0.91994 0.25282 -0.23700
O 	O 	0.73907 0.64292 0.97681 -0.25100
O 	O 	0.48812 0.78056 0.01916 -0.22400
N 	N 	0.64420 0.57083 0.07388 -0.15800
N 	N 	0.76657 0.58056 0.06255 -0.16000
N 	N 	0.60347 0.91273 0.21183 -0.16500
N 	N 	0.70541 0.57952 0.18392 -0.17700
N 	N 	0.54911 0.62246 0.08733 -0.15700
N 	N 	0.48476 0.71905 0.10054 -0.15900
N 	N 	0.60249 0.61473 0.19743 -0.19000
N 	N 	0.69602 0.96864 0.19907 -0.15900
N 	N 	0.47683 0.82388 0.10719 -0.15900
N 	N 	0.81400 0.98216 0.18179 -0.15800
N 	N 	0.82743 0.58623 0.17222 -0.16100
N 	N 	0.91889 0.64324 0.15867 -0.15800
N 	N 	0.90883 0.74076 0.03505 -0.17800
N 	N 	0.54196 0.81274 0.21600 -0.17800
N 	N 	0.83122 0.93970 0.05529 -0.16400
N 	N 	0.91313 0.94768 0.16126 -0.15800
N 	N 	0.74059 0.99319 0.07468 -0.16000
N 	N 	0.89418 0.84446 0.03816 -0.17700
N 	N 	0.53475 0.70837 0.21055 -0.18800
N 	N 	0.97199 0.85025 0.14496 -0.16200
N 	N 	0.62186 0.98943 0.09306 -0.15500
N 	N 	0.53249 0.92816 0.10484 -0.15600
N 	N 	0.96942 0.74538 0.14545 -0.15900
N 	N 	0.85704 0.63839 0.04864 -0.16500
C 	C 	0.86489 0.79024 0.00733 0.33000
C 	C 	0.96839 0.83412 0.08338 0.11400
C 	C 	0.76944 0.99628 0.22001 0.05400
H 	H 	0.79550 0.98120 0.26110 0.03900
H 	H 	0.76460 0.04180 0.22210 0.01300
C 	C 	0.97425 0.75996 0.08536 0.11300
C 	C 	0.87891 0.63230 0.19701 0.27000
C 	C 	0.98211 0.91351 0.17101 0.05400
H 	H 	0.00820 0.91040 0.21460 0.03400
H 	H 	0.01330 0.93760 0.15330 0.01300
C 	C 	0.98306 0.68357 0.17499 0.05000
H 	H 	0.02240 0.66260 0.16420 0.01500
H 	H 	0.00060 0.68960 0.21900 0.03900
C 	C 	0.78289 0.55903 0.20562 0.06300
H 	H 	0.80470 0.57030 0.24840 0.02000
H 	H 	0.78440 0.51330 0.20270 0.00900
C 	C 	0.48405 0.77496 0.07081 0.26400
C 	C 	0.89377 0.67553 0.01417 0.07000
H 	H 	0.86280 0.67570 0.97150 0.00700
H 	H 	0.94050 0.65520 0.01690 0.00700
C 	C 	0.55632 0.64397 0.22876 0.09300
H 	H 	0.51160 0.61870 0.22140 -0.00100
H 	H 	0.58310 0.64330 0.27240 -0.01700
C 	C 	0.48042 0.65887 0.06882 0.04700
H 	H 	0.44150 0.63350 0.07580 0.01600
H 	H 	0.46600 0.66700 0.02520 0.04200
C 	C 	0.83089 0.56253 0.11393 0.11400
C 	C 	0.57710 0.75821 0.23983 0.35200
C 	C 	0.38120 0.71870 0.21690 -0.05300
H 	H 	0.33010 0.70740 0.21190 0.03300
H 	H 	0.41330 0.69540 0.25170 0.03900
C 	C 	0.87186 0.98191 0.10597 0.11500
C 	C 	0.80666 0.01329 0.12382 0.11200
C 	C 	0.75649 0.95055 0.03626 0.26700
C 	C 	0.86488 0.90664 0.01594 0.07700
H 	H 	0.82790 0.90200 0.97570 -0.00200
H 	H 	0.90500 0.93240 0.01160 -0.00200
C 	C 	0.87679 0.94646 0.20350 0.27400
C 	C 	0.48142 0.05326 0.13823 -0.05200
H 	H 	0.44670 0.07860 0.15100 0.03100
H 	H 	0.45520 0.03710 0.09760 0.06600
C 	C 	0.97463 0.79836 0.18052 0.27200
C 	C 	0.58976 0.61472 0.04906 0.26800
C 	C 	0.46631 0.88880 0.08517 0.04900
H 	H 	0.44770 0.88810 0.04080 0.04200
H 	H 	0.42830 0.90820 0.09880 0.01700
C 	C 	0.50773 0.99801 0.18213 -0.18000
H 	H 	0.46540 0.97200 0.18120 0.07800
H 	H 	0.53020 0.01390 0.22340 0.07800
C 	C 	0.91913 0.03100 0.08808 -0.18100
H 	H 	0.88880 0.05300 0.05160 0.07600
H 	H 	0.95930 0.01000 0.07860 0.07500
C 	C 	0.95913 0.56210 0.09904 -0.17400
H 	H 	0.99970 0.58900 0.09740 0.07700
H 	H 	0.94200 0.53790 0.06140 0.07800
C 	C 	0.84860 0.49153 0.11620 -0.17900
H 	H 	0.81070 0.46820 0.12670 0.07900
H 	H 	0.84800 0.47750 0.07620 0.08000
C 	C 	0.89569 0.60299 0.10436 0.11200
C 	C 	0.56564 0.94856 0.06399 0.28100
C 	C 	0.92510 0.47758 0.16342 -0.05700
H 	H 	0.92320 0.48610 0.20400 0.04800
H 	H 	0.93640 0.43300 0.16150 0.05100
C 	C 	0.67879 0.91984 0.23033 0.27200
C 	C 	0.64596 0.54922 0.13375 0.11100
C 	C 	0.56430 0.95801 0.16477 0.11600
C 	C 	0.66710 0.01935 0.06153 0.05300
H 	H 	0.64130 0.01630 0.01780 0.03900
H 	H 	0.67180 0.06390 0.07210 0.01800
C 	C 	0.39860 0.69881 0.15978 -0.18400
H 	H 	0.40190 0.65300 0.15870 0.08000
H 	H 	0.35830 0.71220 0.12370 0.08000
C 	C 	0.51560 0.53094 0.14141 -0.17400
H 	H 	0.53200 0.50890 0.18030 0.07600
H 	H 	0.46880 0.55190 0.13750 0.07700
C 	C 	0.56868 0.87332 0.24517 0.06300
H 	H 	0.52700 0.89610 0.25040 0.01000
H 	H 	0.60420 0.86540 0.28550 0.02700
C 	C 	0.78382 0.62313 0.02478 0.27200
C 	C 	0.81515 0.08486 0.12990 -0.17700
H 	H 	0.78070 0.10150 0.14900 0.07900
H 	H 	0.80320 0.10370 0.08960 0.07900
C 	C 	0.95180 0.07898 0.13930 -0.05500
H 	H 	0.97060 0.11500 0.12290 0.03600
H 	H 	0.99350 0.05980 0.17060 0.04500
C 	C 	0.98720 0.51699 0.15320 -0.06800
H 	H 	0.01170 0.54130 0.18990 0.05200
H 	H 	0.02390 0.48880 0.14640 0.05600
C 	C 	0.47119 0.72746 0.15841 0.11700
C 	C 	0.64560 0.47699 0.13839 -0.17700
H 	H 	0.64890 0.46500 0.17960 0.07600
H 	H 	0.68890 0.46010 0.13040 0.07800
C 	C 	0.54640 0.09538 0.13571 -0.07800
H 	H 	0.54360 0.10030 0.09340 0.07600
H 	H 	0.54090 0.13700 0.15140 0.04800
C 	C 	0.69458 0.54975 0.04251 0.05000
H 	H 	0.70200 0.50450 0.04850 0.01500
H 	H 	0.67130 0.55710 0.99900 0.03900
C 	C 	0.03640 0.83240 0.00721 -0.04400
H 	H 	0.07550 0.85280 0.99570 0.02700
H 	H 	0.99010 0.83730 0.97360 0.02800
C 	C 	0.39160 0.78920 0.23061 -0.05900
H 	H 	0.34770 0.80550 0.23800 0.03600
H 	H 	0.43370 0.79520 0.26770 0.04600
C 	C 	0.67754 0.61449 0.22045 0.33800
C 	C 	0.62261 0.06906 0.17215 -0.16400
H 	H 	0.63050 0.07340 0.21550 0.07300
H 	H 	0.66090 0.09320 0.16290 0.07600
C 	C 	0.40446 0.82670 0.17957 -0.17800
H 	H 	0.41170 0.87090 0.19120 0.07700
H 	H 	0.36090 0.82360 0.14310 0.07800
C 	C 	0.57350 0.58018 0.14016 0.11300
C 	C 	0.47229 0.80229 0.16568 0.11300
C 	C 	0.57510 0.44815 0.09300 -0.05700
H 	H 	0.58000 0.44780 0.05260 0.04600
H 	H 	0.57070 0.40460 0.10460 0.04700
C 	C 	0.04662 0.73753 0.07720 -0.17900
H 	H 	0.08850 0.75230 0.11130 0.07800
H 	H 	0.04770 0.69170 0.07730 0.07800
C 	C 	0.05440 0.76176 0.01789 -0.06100
H 	H 	0.02120 0.73790 0.98400 0.03800
H 	H 	0.10490 0.75440 0.01850 0.03700
C 	C 	0.89500 0.10226 0.16857 -0.06300
H 	H 	0.90640 0.08370 0.20890 0.04800
H 	H 	0.89890 0.14790 0.17330 0.04400
C 	C 	0.62921 0.99931 0.15709 0.10900
C 	C 	0.02959 0.86472 0.06363 -0.18700
H 	H 	0.01820 0.90920 0.05490 0.07800
H 	H 	0.07670 0.86180 0.09670 0.08000
C 	C 	0.50370 0.48357 0.08960 -0.06600
H 	H 	0.48520 0.50570 0.05090 0.05100
H 	H 	0.46610 0.45320 0.09110 0.05400
Tb	Tb	0.74218 0.71087 0.35334 1.37400
O 	O 	0.98166 0.70082 0.73459 -0.23300
O 	O 	0.57700 0.85887 0.49957 -0.23000
O 	O 	0.88912 0.84132 0.74667 -0.25500
O 	O 	0.72472 0.61230 0.76932 -0.25200
O 	O 	0.63567 0.74563 0.78206 -0.44600
O 	O 	0.54756 0.56663 0.51030 -0.23300
O 	O 	0.71534 0.85918 0.76803 -0.43700
O 	O 	0.70916 0.57376 0.49173 -0.24800
O 	O 	0.80922 0.71312 0.46149 -0.44000
O 	O 	0.89903 0.58006 0.75282 -0.23600
O 	O 	0.73907 0.85708 0.47681 -0.25100
O 	O 	0.48812 0.71944 0.51916 -0.22400
N 	N 	0.64420 0.92917 0.57388 -0.15800
N 	N 	0.76657 0.91944 0.56255 -0.16000
N 	N 	0.60347 0.58727 0.71183 -0.16500
N 	N 	0.70541 0.92048 0.68392 -0.17700
N 	N 	0.54911 0.87754 0.58733 -0.15700
N 	N 	0.48476 0.78095 0.60054 -0.15900
N 	N 	0.60249 0.88527 0.69743 -0.19000
N 	N 	0.69602 0.53136 0.69907 -0.15900
N 	N 	0.47683 0.67612 0.60719 -0.15900
N 	N 	0.81400 0.51784 0.68179 -0.15900
N 	N 	0.82743 0.91377 0.67222 -0.16100
N 	N 	0.91889 0.85676 0.65867 -0.15900
N 	N 	0.90883 0.75924 0.53505 -0.17900
N 	N 	0.54196 0.68726 0.71600 -0.17800
N 	N 	0.83122 0.56030 0.55529 -0.16400
N 	N 	0.91313 0.55232 0.66126 -0.15900
N 	N 	0.74059 0.50681 0.57468 -0.16100
N 	N 	0.89418 0.65554 0.53816 -0.17800
N 	N 	0.53475 0.79163 0.71055 -0.18800
N 	N 	0.97199 0.64975 0.64496 -0.16200
N 	N 	0.62186 0.51057 0.59306 -0.15600
N 	N 	0.53249 0.57184 0.60484 -0.15600
N 	N 	0.96942 0.75462 0.64545 -0.16000
N 	N 	0.85704 0.86161 0.54864 -0.16600
C 	C 	0.86489 0.70976 0.50733 0.33100
C 	C 	0.96839 0.66588 0.58338 0.11400
C 	C 	0.76944 0.50372 0.72001 0.05200
H 	H 	0.79550 0.51880 0.76110 0.03900
H 	H 	0.76460 0.45820 0.72210 0.01300
C 	C 	0.97425 0.74004 0.58536 0.11400
C 	C 	0.87891 0.86770 0.69701 0.27000
C 	C 	0.98211 0.58649 0.67101 0.05600
H 	H 	0.00820 0.58960 0.71460 0.03300
H 	H 	0.01330 0.56240 0.65330 0.01100
C 	C 	0.98306 0.81643 0.67499 0.05700
H 	H 	0.02240 0.83740 0.66420 0.01100
H 	H 	0.00060 0.81040 0.71900 0.03600
C 	C 	0.78289 0.94097 0.70562 0.06300
H 	H 	0.80470 0.92970 0.74840 0.02000
H 	H 	0.78440 0.98670 0.70270 0.00900
C 	C 	0.48405 0.72504 0.57081 0.26400
C 	C 	0.89377 0.82447 0.51417 0.07200
H 	H 	0.86280 0.82430 0.47150 0.00600
H 	H 	0.94050 0.84480 0.51690 0.00600
C 	C 	0.55632 0.85603 0.72876 0.09300
H 	H 	0.51160 0.88130 0.72140 -0.00100
H 	H 	0.58310 0.85670 0.77240 -0.01700
C 	C 	0.48042 0.84113 0.56882 0.04700
H 	H 	0.44150 0.86650 0.57580 0.01500
H 	H 	0.46600 0.83300 0.52520 0.04200
C 	C 	0.83089 0.93747 0.61393 0.11200
C 	C 	0.57710 0.74179 0.73983 0.35200
C 	C 	0.38120 0.78130 0.71690 -0.05300
H 	H 	0.33010 0.79260 0.71190 0.03300
H 	H 	0.41330 0.80460 0.75170 0.03900
C 	C 	0.87186 0.51809 0.60597 0.11300
C 	C 	0.80666 0.48671 0.62382 0.11400
C 	C 	0.75649 0.54945 0.53626 0.26700
C 	C 	0.86488 0.59336 0.51594 0.07800
H 	H 	0.82790 0.59800 0.47570 -0.00300
H 	H 	0.90500 0.56760 0.51160 -0.00200
C 	C 	0.87679 0.55354 0.70350 0.27400
C 	C 	0.48142 0.44674 0.63823 -0.05000
H 	H 	0.44670 0.42140 0.65100 0.03100
H 	H 	0.45520 0.46290 0.59760 0.06500
C 	C 	0.97463 0.70164 0.68052 0.27200
C 	C 	0.58976 0.88528 0.54906 0.26800
C 	C 	0.46631 0.61120 0.58517 0.04900
H 	H 	0.44770 0.61190 0.54080 0.04100
H 	H 	0.42830 0.59180 0.59880 0.01700
C 	C 	0.50773 0.50199 0.68213 -0.18200
H 	H 	0.46540 0.52800 0.68120 0.07800
H 	H 	0.53020 0.48610 0.72340 0.07800
C 	C 	0.91913 0.46900 0.58808 -0.17800
H 	H 	0.88880 0.44700 0.55160 0.07500
H 	H 	0.95930 0.49000 0.57860 0.07500
C 	C 	0.95913 0.93790 0.59904 -0.18200
H 	H 	0.99970 0.91100 0.59740 0.08000
H 	H 	0.94200 0.96210 0.56140 0.08100
C 	C 	0.84860 0.00847 0.61620 -0.17400
H 	H 	0.81070 0.03180 0.62670 0.07800
H 	H 	0.84800 0.02250 0.57620 0.07800
C 	C 	0.89569 0.89701 0.60436 0.11500
C 	C 	0.56564 0.55144 0.56399 0.28100
C 	C 	0.92510 0.02242 0.66342 -0.06800
H 	H 	0.92320 0.01390 0.70400 0.05100
H 	H 	0.93640 0.06700 0.66150 0.05400
C 	C 	0.67879 0.58016 0.73033 0.27200
C 	C 	0.64596 0.95078 0.63375 0.11100
C 	C 	0.56430 0.54199 0.66477 0.11600
C 	C 	0.66710 0.48065 0.56153 0.05400
H 	H 	0.64130 0.48370 0.51780 0.03900
H 	H 	0.67180 0.43610 0.57210 0.01800
C 	C 	0.39860 0.80119 0.65978 -0.18400
H 	H 	0.40190 0.84700 0.65870 0.07900
H 	H 	0.35830 0.78780 0.62370 0.08000
C 	C 	0.51560 0.96906 0.64141 -0.17400
H 	H 	0.53200 0.99110 0.68030 0.07600
H 	H 	0.46880 0.94810 0.63750 0.07700
C 	C 	0.56868 0.62668 0.74517 0.06300
H 	H 	0.52700 0.60390 0.75040 0.01000
H 	H 	0.60420 0.63460 0.78550 0.02700
C 	C 	0.78382 0.87687 0.52478 0.27300
C 	C 	0.81515 0.41514 0.62990 -0.18000
H 	H 	0.78070 0.39850 0.64900 0.08000
H 	H 	0.80320 0.39630 0.58960 0.08000
C 	C 	0.95180 0.42102 0.63930 -0.05700
H 	H 	0.97060 0.38500 0.62290 0.03800
H 	H 	0.99350 0.44020 0.67060 0.04700
C 	C 	0.98720 0.98301 0.65320 -0.05200
H 	H 	0.01170 0.95870 0.68990 0.04600
H 	H 	0.02390 0.01120 0.64640 0.05000
C 	C 	0.47119 0.77254 0.65841 0.11700
C 	C 	0.64560 0.02301 0.63839 -0.17700
H 	H 	0.64890 0.03500 0.67960 0.07600
H 	H 	0.68890 0.03990 0.63040 0.07800
C 	C 	0.54640 0.40462 0.63571 -0.07900
H 	H 	0.54360 0.39970 0.59340 0.07600
H 	H 	0.54090 0.36300 0.65140 0.04800
C 	C 	0.69458 0.95025 0.54251 0.05000
H 	H 	0.70200 0.99550 0.54850 0.01500
H 	H 	0.67130 0.94290 0.49900 0.03800
C 	C 	0.03640 0.66760 0.50721 -0.04600
H 	H 	0.07550 0.64720 0.49570 0.02900
H 	H 	0.99010 0.66270 0.47360 0.02800
C 	C 	0.39160 0.71080 0.73061 -0.05900
H 	H 	0.34770 0.69450 0.73800 0.03500
H 	H 	0.43370 0.70480 0.76770 0.04600
C 	C 	0.67754 0.88551 0.72045 0.33800
C 	C 	0.62261 0.43094 0.67215 -0.16300
H 	H 	0.63050 0.42660 0.71550 0.07300
H 	H 	0.66090 0.40680 0.66290 0.07500
C 	C 	0.40446 0.67330 0.67957 -0.17800
H 	H 	0.41170 0.62910 0.69120 0.07700
H 	H 	0.36090 0.67640 0.64310 0.07800
C 	C 	0.57350 0.91982 0.64016 0.11300
C 	C 	0.47229 0.69771 0.66568 0.11300
C 	C 	0.57510 0.05185 0.59300 -0.05700
H 	H 	0.58000 0.05220 0.55260 0.04600
H 	H 	0.57070 0.09540 0.60460 0.04700
C 	C 	0.04662 0.76247 0.57720 -0.17900
H 	H 	0.08850 0.74770 0.61130 0.07800
H 	H 	0.04770 0.80830 0.57730 0.07800
C 	C 	0.05440 0.73824 0.51789 -0.06300
H 	H 	0.02120 0.76210 0.48400 0.03900
H 	H 	0.10490 0.74560 0.51850 0.03700
C 	C 	0.89500 0.39774 0.66857 -0.06000
H 	H 	0.90640 0.41630 0.70890 0.04700
H 	H 	0.89890 0.35210 0.67330 0.04400
C 	C 	0.62921 0.50069 0.65709 0.10800
C 	C 	0.02959 0.63528 0.56363 -0.18700
H 	H 	0.01820 0.59080 0.55490 0.07700
H 	H 	0.07670 0.63820 0.59670 0.08000
C 	C 	0.50370 0.01643 0.58960 -0.06600
H 	H 	0.48520 0.99430 0.55090 0.05100
H 	H 	0.46610 0.04680 0.59110 0.05400
Tb	Tb	0.25782 0.28913 0.64666 1.37400
O 	O 	0.01834 0.29918 0.26541 -0.23300
O 	O 	0.42300 0.14113 0.50043 -0.23000
O 	O 	0.11088 0.15868 0.25333 -0.25500
O 	O 	0.27528 0.38770 0.23068 -0.25200
O 	O 	0.36433 0.25437 0.21794 -0.44600
O 	O 	0.45244 0.43337 0.48970 -0.23300
O 	O 	0.28466 0.14082 0.23197 -0.43700
O 	O 	0.29084 0.42624 0.50827 -0.24800
O 	O 	0.19078 0.28688 0.53851 -0.44000
O 	O 	0.10097 0.41994 0.24718 -0.23600
O 	O 	0.26093 0.14292 0.52319 -0.25100
O 	O 	0.51188 0.28056 0.48084 -0.22400
N 	N 	0.35580 0.07083 0.42612 -0.15800
N 	N 	0.23343 0.08056 0.43745 -0.16000
N 	N 	0.39653 0.41273 0.28817 -0.16500
N 	N 	0.29459 0.07952 0.31608 -0.17700
N 	N 	0.45089 0.12246 0.41267 -0.15700
N 	N 	0.51524 0.21905 0.39946 -0.15900
N 	N 	0.39751 0.11473 0.30257 -0.19000
N 	N 	0.30398 0.46864 0.30093 -0.15900
N 	N 	0.52317 0.32388 0.39281 -0.15900
N 	N 	0.18600 0.48216 0.31821 -0.15900
N 	N 	0.17257 0.08623 0.32778 -0.16100
N 	N 	0.08111 0.14324 0.34133 -0.15900
N 	N 	0.09117 0.24076 0.46495 -0.17900
N 	N 	0.45804 0.31274 0.28400 -0.17800
N 	N 	0.16878 0.43970 0.44471 -0.16400
N 	N 	0.08687 0.44768 0.33874 -0.15900
N 	N 	0.25941 0.49319 0.42532 -0.16100
N 	N 	0.10582 0.34446 0.46184 -0.17800
N 	N 	0.46525 0.20837 0.28945 -0.18800
N 	N 	0.02801 0.35025 0.35504 -0.16200
N 	N 	0.37814 0.48943 0.40694 -0.15600
N 	N 	0.46751 0.42816 0.39516 -0.15600
N 	N 	0.03058 0.24538 0.35455 -0.16000
N 	N 	0.14296 0.13839 0.45136 -0.16600
C 	C 	0.13511 0.29024 0.49267 0.33100
C 	C 	0.03161 0.33412 0.41662 0.11400
C 	C 	0.23056 0.49628 0.27999 0.05200
H 	H 	0.20450 0.48120 0.23890 0.03900
H 	H 	0.23540 0.54180 0.27790 0.01300
C 	C 	0.02575 0.25996 0.41464 0.11400
C 	C 	0.12109 0.13230 0.30299 0.27000
C 	C 	0.01789 0.41351 0.32899 0.05600
H 	H 	0.99180 0.41040 0.28540 0.03300
H 	H 	0.98670 0.43760 0.34670 0.01100
C 	C 	0.01694 0.18357 0.32501 0.05700
H 	H 	0.97760 0.16260 0.33580 0.01100
H 	H 	0.99940 0.18960 0.28100 0.03600
C 	C 	0.21711 0.05903 0.29438 0.06300
H 	H 	0.19530 0.07030 0.25160 0.02000
H 	H 	0.21560 0.01330 0.29730 0.00900
C 	C 	0.51595 0.27496 0.42919 0.26400
C 	C 	0.10623 0.17553 0.48583 0.07200
H 	H 	0.13720 0.17570 0.52850 0.00600
H 	H 	0.05950 0.15520 0.48310 0.00600
C 	C 	0.44368 0.14397 0.27124 0.09300
H 	H 	0.48840 0.11870 0.27860 -0.00100
H 	H 	0.41690 0.14330 0.22760 -0.01700
C 	C 	0.51958 0.15887 0.43118 0.04700
H 	H 	0.55850 0.13350 0.42420 0.01500
H 	H 	0.53400 0.16700 0.47480 0.04200
C 	C 	0.16911 0.06253 0.38607 0.11200
C 	C 	0.42290 0.25821 0.26017 0.35200
C 	C 	0.61880 0.21870 0.28310 -0.05300
H 	H 	0.66990 0.20740 0.28810 0.03300
H 	H 	0.58670 0.19540 0.24830 0.03900
C 	C 	0.12814 0.48191 0.39403 0.11300
C 	C 	0.19334 0.51329 0.37618 0.11400
C 	C 	0.24351 0.45055 0.46374 0.26700
C 	C 	0.13512 0.40664 0.48406 0.07800
H 	H 	0.17210 0.40200 0.52430 -0.00300
H 	H 	0.09500 0.43240 0.48840 -0.00200
C 	C 	0.12321 0.44646 0.29650 0.27400
C 	C 	0.51858 0.55326 0.36177 -0.05000
H 	H 	0.55330 0.57860 0.34900 0.03100
H 	H 	0.54480 0.53710 0.40240 0.06500
C 	C 	0.02537 0.29836 0.31948 0.27200
C 	C 	0.41024 0.11472 0.45094 0.26800
C 	C 	0.53369 0.38880 0.41483 0.04900
H 	H 	0.55230 0.38810 0.45920 0.04100
H 	H 	0.57170 0.40820 0.40120 0.01700
C 	C 	0.49227 0.49801 0.31787 -0.18200
H 	H 	0.53460 0.47200 0.31880 0.07800
H 	H 	0.46980 0.51390 0.27660 0.07800
C 	C 	0.08087 0.53100 0.41192 -0.17800
H 	H 	0.11120 0.55300 0.44840 0.07500
H 	H 	0.04070 0.51000 0.42140 0.07500
C 	C 	0.04087 0.06210 0.40096 -0.18200
H 	H 	0.00030 0.08900 0.40260 0.08000
H 	H 	0.05800 0.03790 0.43860 0.08100
C 	C 	0.15140 0.99153 0.38380 -0.17400
H 	H 	0.18930 0.96820 0.37330 0.07800
H 	H 	0.15200 0.97750 0.42380 0.07800
C 	C 	0.10431 0.10299 0.39564 0.11500
C 	C 	0.43436 0.44856 0.43601 0.28100
C 	C 	0.07490 0.97758 0.33658 -0.06800
H 	H 	0.07680 0.98610 0.29600 0.05100
H 	H 	0.06360 0.93300 0.33850 0.05400
C 	C 	0.32121 0.41984 0.26967 0.27200
C 	C 	0.35404 0.04922 0.36625 0.11100
C 	C 	0.43570 0.45801 0.33523 0.11600
C 	C 	0.33290 0.51935 0.43847 0.05400
H 	H 	0.35870 0.51630 0.48220 0.03900
H 	H 	0.32820 0.56390 0.42790 0.01800
C 	C 	0.60140 0.19881 0.34022 -0.18400
H 	H 	0.59810 0.15300 0.34130 0.07900
H 	H 	0.64170 0.21220 0.37630 0.08000
C 	C 	0.48440 0.03094 0.35859 -0.17400
H 	H 	0.46800 0.00890 0.31970 0.07600
H 	H 	0.53120 0.05190 0.36250 0.07700
C 	C 	0.43132 0.37332 0.25483 0.06300
H 	H 	0.47300 0.39610 0.24960 0.01000
H 	H 	0.39580 0.36540 0.21450 0.02700
C 	C 	0.21618 0.12313 0.47522 0.27300
C 	C 	0.18485 0.58486 0.37010 -0.18000
H 	H 	0.21930 0.60150 0.35100 0.08000
H 	H 	0.19680 0.60370 0.41040 0.08000
C 	C 	0.04820 0.57898 0.36070 -0.05700
H 	H 	0.02940 0.61500 0.37710 0.03800
H 	H 	0.00650 0.55980 0.32940 0.04700
C 	C 	0.01280 0.01699 0.34680 -0.05200
H 	H 	0.98830 0.04130 0.31010 0.04600
H 	H 	0.97610 0.98880 0.35360 0.05000
C 	C 	0.52881 0.22746 0.34159 0.11700
C 	C 	0.35440 0.97699 0.36161 -0.17700
H 	H 	0.35110 0.96500 0.32040 0.07600
H 	H 	0.31110 0.96010 0.36960 0.07800
C 	C 	0.45360 0.59538 0.36429 -0.07900
H 	H 	0.45640 0.60030 0.40660 0.07600
H 	H 	0.45910 0.63700 0.34860 0.04800
C 	C 	0.30542 0.04975 0.45749 0.05000
H 	H 	0.29800 0.00450 0.45150 0.01500
H 	H 	0.32870 0.05710 0.50100 0.03800
C 	C 	0.96360 0.33240 0.49279 -0.04600
H 	H 	0.92450 0.35280 0.50430 0.02900
H 	H 	0.00990 0.33730 0.52640 0.02800
C 	C 	0.60840 0.28920 0.26939 -0.05900
H 	H 	0.65230 0.30550 0.26200 0.03500
H 	H 	0.56630 0.29520 0.23230 0.04600
C 	C 	0.32246 0.11449 0.27955 0.33800
C 	C 	0.37739 0.56906 0.32785 -0.16300
H 	H 	0.36950 0.57340 0.28450 0.07300
H 	H 	0.33910 0.59320 0.33710 0.07500
C 	C 	0.59554 0.32670 0.32043 -0.17800
H 	H 	0.58830 0.37090 0.30880 0.07700
H 	H 	0.63910 0.32360 0.35690 0.07800
C 	C 	0.42650 0.08018 0.35984 0.11300
C 	C 	0.52771 0.30229 0.33432 0.11300
C 	C 	0.42490 0.94815 0.40700 -0.05700
H 	H 	0.42000 0.94780 0.44740 0.04600
H 	H 	0.42930 0.90460 0.39540 0.04700
C 	C 	0.95338 0.23753 0.42280 -0.17900
H 	H 	0.91150 0.25230 0.38870 0.07800
H 	H 	0.95230 0.19170 0.42270 0.07800
C 	C 	0.94560 0.26176 0.48211 -0.06300
H 	H 	0.97880 0.23790 0.51600 0.03900
H 	H 	0.89510 0.25440 0.48150 0.03700
C 	C 	0.10500 0.60226 0.33143 -0.06000
H 	H 	0.09360 0.58370 0.29110 0.04700
H 	H 	0.10110 0.64790 0.32670 0.04400
C 	C 	0.37079 0.49931 0.34291 0.10800
C 	C 	0.97041 0.36472 0.43637 -0.18700
H 	H 	0.98180 0.40920 0.44510 0.07700
H 	H 	0.92330 0.36180 0.40330 0.08000
C 	C 	0.49630 0.98357 0.41040 -0.06600
H 	H 	0.51480 0.00570 0.44910 0.05100
H 	H 	0.53390 0.95320 0.40890 0.05400
Tb	Tb	0.25782 0.21087 0.14666 1.37400
O 	O 	0.01834 0.20082 0.76541 -0.23300
O 	O 	0.42300 0.35887 0.00043 -0.23000
O 	O 	0.11088 0.34132 0.75333 -0.25600
O 	O 	0.27528 0.11230 0.73068 -0.25200
O 	O 	0.36433 0.24563 0.71794 -0.44600
O 	O 	0.45244 0.06663 0.98970 -0.23300
O 	O 	0.28466 0.35918 0.73197 -0.43700
O 	O 	0.29084 0.07376 0.00827 -0.24800
O 	O 	0.19078 0.21312 0.03851 -0.43900
O 	O 	0.10097 0.08006 0.74718 -0.23600
O 	O 	0.26093 0.35708 0.02319 -0.25000
O 	O 	0.51188 0.21944 0.98084 -0.22400
N 	N 	0.35580 0.42917 0.92612 -0.15800
N 	N 	0.23343 0.41944 0.93745 -0.16000
N 	N 	0.39653 0.08727 0.78817 -0.16500
N 	N 	0.29459 0.42048 0.81608 -0.17700
N 	N 	0.45089 0.37754 0.91267 -0.15700
N 	N 	0.51524 0.28095 0.89946 -0.15900
N 	N 	0.39751 0.38527 0.80257 -0.19000
N 	N 	0.30398 0.03136 0.80093 -0.15900
N 	N 	0.52317 0.17612 0.89281 -0.15900
N 	N 	0.18600 0.01784 0.81821 -0.15800
N 	N 	0.17257 0.41377 0.82778 -0.16100
N 	N 	0.08111 0.35676 0.84133 -0.15800
N 	N 	0.09117 0.25924 0.96495 -0.17800
N 	N 	0.45804 0.18726 0.78400 -0.17800
N 	N 	0.16878 0.06030 0.94471 -0.16400
N 	N 	0.08687 0.05232 0.83874 -0.15800
N 	N 	0.25941 0.00681 0.92532 -0.16000
N 	N 	0.10582 0.15554 0.96184 -0.17700
N 	N 	0.46525 0.29163 0.78945 -0.18800
N 	N 	0.02801 0.14975 0.85504 -0.16200
N 	N 	0.37814 0.01057 0.90694 -0.15500
N 	N 	0.46751 0.07184 0.89516 -0.15600
N 	N 	0.03058 0.25462 0.85455 -0.15900
N 	N 	0.14296 0.36161 0.95136 -0.16500
C 	C 	0.13511 0.20976 0.99267 0.33000
C 	C 	0.03161 0.16588 0.91662 0.11400
C 	C 	0.23056 0.00372 0.77999 0.05400
H 	H 	0.20450 0.01880 0.73890 0.03900
H 	H 	0.23540 0.95820 0.77790 0.01300
C 	C 	0.02575 0.24004 0.91464 0.11300
C 	C 	0.12109 0.36770 0.80299 0.27000
C 	C 	0.01789 0.08649 0.82899 0.05400
H 	H 	0.99180 0.08960 0.78540 0.03400
H 	H 	0.98670 0.06240 0.84670 0.01300
C 	C 	0.01694 0.31643 0.82501 0.05000
H 	H 	0.97760 0.33740 0.83580 0.01500
H 	H 	0.99940 0.31040 0.78100 0.03900
C 	C 	0.21711 0.44097 0.79438 0.06300
H 	H 	0.19530 0.42970 0.75160 0.02000
H 	H 	0.21560 0.48670 0.79730 0.00900
C 	C 	0.51595 0.22504 0.92919 0.26400
C 	C 	0.10623 0.32447 0.98583 0.07000
H 	H 	0.13720 0.32430 0.02850 0.00700
H 	H 	0.05950 0.34480 0.98310 0.00700
C 	C 	0.44368 0.35603 0.77124 0.09300
H 	H 	0.48840 0.38130 0.77860 -0.00100
H 	H 	0.41690 0.35670 0.72760 -0.01700
C 	C 	0.51958 0.34113 0.93118 0.04700
H 	H 	0.55850 0.36650 0.92420 0.01600
H 	H 	0.53400 0.33300 0.97480 0.04200
C 	C 	0.16911 0.43747 0.88607 0.11400
C 	C 	0.42290 0.24179 0.76017 0.35200
C 	C 	0.61880 0.28130 0.78310 -0.05300
H 	H 	0.66990 0.29260 0.78810 0.03300
H 	H 	0.58670 0.30460 0.74830 0.03900
C 	C 	0.12814 0.01809 0.89403 0.11500
C 	C 	0.19334 0.98671 0.87618 0.11200
C 	C 	0.24351 0.04945 0.96374 0.26700
C 	C 	0.13512 0.09336 0.98406 0.07700
H 	H 	0.17210 0.09800 0.02430 -0.00200
H 	H 	0.09500 0.06760 0.98840 -0.00200
C 	C 	0.12321 0.05354 0.79650 0.27400
C 	C 	0.51858 0.94674 0.86177 -0.05200
H 	H 	0.55330 0.92140 0.84900 0.03100
H 	H 	0.54480 0.96290 0.90240 0.06600
C 	C 	0.02537 0.20164 0.81948 0.27200
C 	C 	0.41024 0.38528 0.95094 0.26800
C 	C 	0.53369 0.11120 0.91483 0.04900
H 	H 	0.55230 0.11190 0.95920 0.04200
H 	H 	0.57170 0.09180 0.90120 0.01700
C 	C 	0.49227 0.00199 0.81787 -0.18000
H 	H 	0.53460 0.02800 0.81880 0.07800
H 	H 	0.46980 0.98610 0.77660 0.07800
C 	C 	0.08087 0.96900 0.91192 -0.18100
H 	H 	0.11120 0.94700 0.94840 0.07600
H 	H 	0.04070 0.99000 0.92140 0.07500
C 	C 	0.04087 0.43790 0.90096 -0.17400
H 	H 	0.00030 0.41100 0.90260 0.07700
H 	H 	0.05800 0.46210 0.93860 0.07800
C 	C 	0.15140 0.50847 0.88380 -0.17900
H 	H 	0.18930 0.53180 0.87330 0.07900
H 	H 	0.15200 0.52250 0.92380 0.08000
C 	C 	0.10431 0.39701 0.89564 0.11200
C 	C 	0.43436 0.05144 0.93601 0.28100
C 	C 	0.07490 0.52242 0.83658 -0.05700
H 	H 	0.07680 0.51390 0.79600 0.04800
H 	H 	0.06360 0.56700 0.83850 0.05100
C 	C 	0.32121 0.08016 0.76967 0.27200
C 	C 	0.35404 0.45078 0.86625 0.11100
C 	C 	0.43570 0.04199 0.83523 0.11600
C 	C 	0.33290 0.98065 0.93847 0.05300
H 	H 	0.35870 0.98370 0.98220 0.03900
H 	H 	0.32820 0.93610 0.92790 0.01800
C 	C 	0.60140 0.30119 0.84022 -0.18400
H 	H 	0.59810 0.34700 0.84130 0.08000
H 	H 	0.64170 0.28780 0.87630 0.08000
C 	C 	0.48440 0.46906 0.85859 -0.17400
H 	H 	0.46800 0.49110 0.81970 0.07600
H 	H 	0.53120 0.44810 0.86250 0.07700
C 	C 	0.43132 0.12668 0.75483 0.06300
H 	H 	0.47300 0.10390 0.74960 0.01000
H 	H 	0.39580 0.13460 0.71450 0.02700
C 	C 	0.21618 0.37687 0.97522 0.27200
C 	C 	0.18485 0.91514 0.87010 -0.17700
H 	H 	0.21930 0.89850 0.85100 0.07900
H 	H 	0.19680 0.89630 0.91040 0.07900
C 	C 	0.04820 0.92102 0.86070 -0.05500
H 	H 	0.02940 0.88500 0.87710 0.03600
H 	H 	0.00650 0.94020 0.82940 0.04500
C 	C 	0.01280 0.48301 0.84680 -0.06800
H 	H 	0.98830 0.45870 0.81010 0.05200
H 	H 	0.97610 0.51120 0.85360 0.05600
C 	C 	0.52881 0.27254 0.84159 0.11700
C 	C 	0.35440 0.52301 0.86161 -0.17700
H 	H 	0.35110 0.53500 0.82040 0.07600
H 	H 	0.31110 0.53990 0.86960 0.07800
C 	C 	0.45360 0.90462 0.86429 -0.07800
H 	H 	0.45640 0.89970 0.90660 0.07600
H 	H 	0.45910 0.86300 0.84860 0.04800
C 	C 	0.30542 0.45025 0.95749 0.05000
H 	H 	0.29800 0.49550 0.95150 0.01500
H 	H 	0.32870 0.44290 0.00100 0.03900
C 	C 	0.96360 0.16760 0.99279 -0.04400
H 	H 	0.92450 0.14720 0.00430 0.02700
H 	H 	0.00990 0.16270 0.02640 0.02800
C 	C 	0.60840 0.21080 0.76939 -0.05900
H 	H 	0.65230 0.19450 0.76200 0.03600
H 	H 	0.56630 0.20480 0.73230 0.04600
C 	C 	0.32246 0.38551 0.77955 0.33800
C 	C 	0.37739 0.93094 0.82785 -0.16400
H 	H 	0.36950 0.92660 0.78450 0.07300
H 	H 	0.33910 0.90680 0.83710 0.07600
C 	C 	0.59554 0.17330 0.82043 -0.17800
H 	H 	0.58830 0.12910 0.80880 0.07700
H 	H 	0.63910 0.17640 0.85690 0.07800
C 	C 	0.42650 0.41982 0.85984 0.11300
C 	C 	0.52771 0.19771 0.83432 0.11300
C 	C 	0.42490 0.55185 0.90700 -0.05700
H 	H 	0.42000 0.55220 0.94740 0.04600
H 	H 	0.42930 0.59540 0.89540 0.04700
C 	C 	0.95338 0.26247 0.92280 -0.17900
H 	H 	0.91150 0.24770 0.88870 0.07800
H 	H 	0.95230 0.30830 0.92270 0.07800
C 	C 	0.94560 0.23824 0.98211 -0.06100
H 	H 	0.97880 0.26210 0.01600 0.03800
H 	H 	0.89510 0.24560 0.98150 0.03700
C 	C 	0.10500 0.89774 0.83143 -0.06300
H 	H 	0.09360 0.91630 0.79110 0.04800
H 	H 	0.10110 0.85210 0.82670 0.04400
C 	C 	0.37079 0.00069 0.84291 0.10900
C 	C 	0.97041 0.13528 0.93637 -0.18700
H 	H 	0.98180 0.09080 0.94510 0.07800
H 	H 	0.92330 0.13820 0.90330 0.08000
C 	C 	0.49630 0.51643 0.91040 -0.06600
H 	H 	0.51480 0.49430 0.94910 0.05100
H 	H 	0.53390 0.54680 0.90890 0.05400
