data_crystal

_cell_length_a 8.31900
_cell_length_b 18.26100
_cell_length_c 30.92500
_cell_angle_alpha 90.00000
_cell_angle_beta  93.84000
_cell_angle_gamma 90.00000

_symmetry_space_group_name_	'P 1'
_symmetry_space_group_name_H-M	'P 1'

loop_
_symmetry_equiv_pos_as_xyz
  x,y,z

loop_
_atom_site_label
_atom_site_type_symbol
_atom_site_fract_x
_atom_site_fract_y
_atom_site_fract_z
_atom_site_charge
C 	C 	0.25380 0.84370 0.25333 0.01300
N 	N 	0.26080 0.72360 0.25998 -0.24700
C 	C 	0.12300 0.74787 0.27246 0.10400
N 	N 	0.11200 0.82060 0.26888 -0.13500
Co	Co	0.18124 0.11770 0.24759 1.16000
N 	N 	0.34810 0.05307 0.27869 -0.24800
N 	N 	0.55710 0.98260 0.29399 -0.13600
C 	C 	0.97510 0.86377 0.27681 0.10000
C 	C 	0.94700 0.92772 0.25518 -0.05200
H 	H 	0.01980 0.94430 0.23580 0.06400
C 	C 	0.81150 0.96802 0.26179 -0.09300
H 	H 	0.79500 0.01270 0.24770 0.10200
C 	C 	0.70170 0.94322 0.28868 0.12000
C 	C 	0.73240 0.88113 0.31190 -0.08400
H 	H 	0.65980 0.86510 0.33150 0.07900
C 	C 	0.87090 0.84193 0.30647 -0.06500
H 	H 	0.89360 0.80030 0.32310 0.08400
H 	H 	0.04050 0.71830 0.28220 0.01000
H 	H 	0.28100 0.89210 0.24750 0.04300
C 	C 	0.34270 0.78411 0.24804 0.01100
H 	H 	0.44520 0.78380 0.23770 0.03900
C 	C 	0.47940 0.02549 0.26418 0.10100
H 	H 	0.51430 0.03450 0.23670 0.02300
C 	C 	0.34050 0.02639 0.31963 0.00600
H 	H 	0.25930 0.03660 0.33800 0.03600
C 	C 	0.46740 0.98331 0.32934 0.01200
H 	H 	0.49040 0.95850 0.35530 0.05000
C 	C 	0.24620 0.34370 0.24667 0.01100
N 	N 	0.23920 0.22360 0.24002 -0.24800
C 	C 	0.37700 0.24787 0.22754 0.10300
N 	N 	0.38800 0.32060 0.23112 -0.13500
Co	Co	0.31876 0.61770 0.25241 1.16000
N 	N 	0.15190 0.55307 0.22131 -0.24700
N 	N 	0.94290 0.48260 0.20601 -0.12900
C 	C 	0.52490 0.36377 0.22319 0.10100
C 	C 	0.55300 0.42772 0.24482 -0.06500
H 	H 	0.48020 0.44430 0.26420 0.07100
C 	C 	0.68850 0.46802 0.23821 -0.08200
H 	H 	0.70500 0.51270 0.25230 0.09800
C 	C 	0.79830 0.44322 0.21132 0.11500
C 	C 	0.76760 0.38113 0.18810 -0.07900
H 	H 	0.84020 0.36510 0.16850 0.07900
C 	C 	0.62910 0.34193 0.19353 -0.06800
H 	H 	0.60640 0.30030 0.17690 0.08400
H 	H 	0.45950 0.21830 0.21780 0.01100
H 	H 	0.21900 0.39210 0.25250 0.04200
C 	C 	0.15730 0.28411 0.25196 0.01000
H 	H 	0.05480 0.28380 0.26230 0.03700
C 	C 	0.02060 0.52549 0.23582 0.08500
H 	H 	0.98570 0.53450 0.26330 0.03200
C 	C 	0.15950 0.52639 0.18037 0.00900
H 	H 	0.24070 0.53660 0.16200 0.03600
C 	C 	0.03260 0.48331 0.17066 0.00400
H 	H 	0.00960 0.45850 0.14470 0.05100
C 	C 	0.74620 0.15630 0.74667 0.01200
N 	N 	0.73920 0.27640 0.74002 -0.24800
C 	C 	0.87700 0.25213 0.72754 0.10300
N 	N 	0.88800 0.17940 0.73112 -0.13600
Co	Co	0.81876 0.88230 0.75241 1.15900
N 	N 	0.65190 0.94693 0.72131 -0.24900
N 	N 	0.44290 0.01740 0.70601 -0.13700
C 	C 	0.02490 0.13623 0.72319 0.09900
C 	C 	0.05300 0.07228 0.74482 -0.05200
H 	H 	0.98020 0.05570 0.76420 0.06400
C 	C 	0.18850 0.03198 0.73821 -0.09300
H 	H 	0.20500 0.98730 0.75230 0.10200
C 	C 	0.29830 0.05678 0.71132 0.12000
C 	C 	0.26760 0.11887 0.68810 -0.08400
H 	H 	0.34020 0.13490 0.66850 0.07900
C 	C 	0.12910 0.15807 0.69353 -0.06500
H 	H 	0.10640 0.19970 0.67690 0.08400
H 	H 	0.95950 0.28170 0.71780 0.01000
H 	H 	0.71900 0.10790 0.75250 0.04300
C 	C 	0.65730 0.21589 0.75196 0.01100
H 	H 	0.55480 0.21620 0.76230 0.03900
C 	C 	0.52060 0.97451 0.73582 0.10100
H 	H 	0.48570 0.96550 0.76330 0.02300
C 	C 	0.65950 0.97361 0.68037 0.00600
H 	H 	0.74070 0.96340 0.66200 0.03600
C 	C 	0.53260 0.01669 0.67066 0.01200
H 	H 	0.50960 0.04150 0.64470 0.05000
C 	C 	0.75380 0.65630 0.75333 0.01100
N 	N 	0.76080 0.77640 0.75998 -0.24800
C 	C 	0.62300 0.75213 0.77246 0.10300
N 	N 	0.61200 0.67940 0.76888 -0.13500
Co	Co	0.68124 0.38230 0.74759 1.16000
N 	N 	0.84810 0.44693 0.77869 -0.24700
N 	N 	0.05710 0.51740 0.79399 -0.12900
C 	C 	0.47510 0.63623 0.77681 0.10100
C 	C 	0.44700 0.57228 0.75518 -0.06500
H 	H 	0.51980 0.55570 0.73580 0.07100
C 	C 	0.31150 0.53198 0.76179 -0.08200
H 	H 	0.29500 0.48730 0.74770 0.09800
C 	C 	0.20170 0.55678 0.78868 0.11500
C 	C 	0.23240 0.61887 0.81190 -0.07900
H 	H 	0.15980 0.63490 0.83150 0.07900
C 	C 	0.37090 0.65807 0.80647 -0.06800
H 	H 	0.39360 0.69970 0.82310 0.08400
H 	H 	0.54050 0.78170 0.78220 0.01100
H 	H 	0.78100 0.60790 0.74750 0.04200
C 	C 	0.84270 0.71589 0.74804 0.01000
H 	H 	0.94520 0.71620 0.73770 0.03700
C 	C 	0.97940 0.47451 0.76418 0.08500
H 	H 	0.01430 0.46550 0.73670 0.03200
C 	C 	0.84050 0.47361 0.81963 0.00900
H 	H 	0.75930 0.46340 0.83800 0.03600
C 	C 	0.96740 0.51669 0.82934 0.00400
H 	H 	0.99040 0.54150 0.85530 0.05100
N 	N 	0.61830 0.22018 0.59297 -0.02700
N 	N 	0.26470 0.36590 0.67667 -0.02600
N 	N 	0.38290 0.42124 0.48920 -0.21400
H 	H 	0.46420 0.38110 0.48470 0.11900
O 	O 	0.67860 0.21000 0.55913 -0.09100
O 	O 	0.64730 0.18340 0.62526 -0.11600
O 	O 	0.28390 0.32099 0.70547 -0.13300
O 	O 	0.19040 0.42180 0.67975 -0.10100
O 	O 	0.20030 0.47296 0.53013 -0.21500
O 	O 	0.40943 0.55969 0.30255 -0.41200
O 	O 	0.17150 0.60017 0.31706 -0.33300
C 	C 	0.36080 0.37921 0.56223 0.09300
C 	C 	0.46680 0.32244 0.55968 -0.19500
H 	H 	0.51140 0.31180 0.53360 0.14000
C 	C 	0.50720 0.28095 0.59617 0.21300
C 	C 	0.44350 0.29414 0.63475 -0.25600
H 	H 	0.47140 0.26580 0.65910 0.14700
C 	C 	0.33790 0.35021 0.63631 0.21300
C 	C 	0.29460 0.39317 0.60148 -0.19200
H 	H 	0.22170 0.43130 0.60390 0.14200
C 	C 	0.30600 0.42880 0.52583 0.19400
C 	C 	0.35220 0.45774 0.44959 0.23600
C 	C 	0.45940 0.44534 0.41830 -0.23700
H 	H 	0.54560 0.41370 0.42410 0.13400
C 	C 	0.44060 0.47890 0.37888 0.13500
H 	H 	0.51480 0.47060 0.35820 0.02000
C 	C 	0.31180 0.52522 0.36951 -0.16500
C 	C 	0.20180 0.53534 0.40045 0.14800
H 	H 	0.11250 0.56500 0.39400 0.02000
C 	C 	0.22070 0.50281 0.44035 -0.23800
H 	H 	0.14610 0.51090 0.46100 0.16300
C 	C 	0.29440 0.56382 0.32750 0.34400
N 	N 	0.58170 0.89443 0.15170 -0.02000
N 	N 	0.59440 0.83569 0.99942 -0.02300
N 	N 	0.09070 0.72767 0.11354 -0.24500
H 	H 	0.18140 0.71590 0.13100 0.14800
O 	O 	0.50490 0.89815 0.18335 -0.12300
O 	O 	0.71720 0.91610 0.15016 -0.11500
O 	O 	0.73430 0.85467 0.00126 -0.11500
O 	O 	0.51740 0.81935 0.96620 -0.10200
O 	O 	0.02865 0.77308 0.04631 -0.22700
O 	O 	0.50222 0.62535 0.21691 -0.44200
O 	O 	0.36439 0.67037 0.15964 -0.32800
C 	C 	0.28940 0.79447 0.07791 0.07000
C 	C 	0.36120 0.82636 0.11480 -0.17500
H 	H 	0.31180 0.82440 0.14090 0.11300
C 	C 	0.50650 0.86099 0.11243 0.19000
C 	C 	0.58520 0.86504 0.07520 -0.23400
H 	H 	0.68400 0.88870 0.07430 0.15000
C 	C 	0.51180 0.83271 0.03954 0.19600
C 	C 	0.36570 0.79797 0.03983 -0.17900
H 	H 	0.31880 0.77710 0.01460 0.12600
C 	C 	0.12330 0.76318 0.07741 0.19800
C 	C 	0.93900 0.70737 0.12715 0.24700
C 	C 	0.93400 0.68892 0.16995 -0.23300
H 	H 	0.02840 0.68880 0.18780 0.10400
C 	C 	0.79120 0.67060 0.18663 0.14400
H 	H 	0.78990 0.65760 0.21570 0.01100
C 	C 	0.64890 0.67108 0.16089 -0.18700
C 	C 	0.65600 0.68859 0.11807 0.15900
H 	H 	0.56150 0.68870 0.10020 0.00000
C 	C 	0.79980 0.70611 0.10058 -0.25400
H 	H 	0.80230 0.71690 0.07120 0.15700
C 	C 	0.49280 0.65485 0.17974 0.38800
N 	N 	0.88170 0.72018 0.90703 -0.02500
N 	N 	0.23530 0.86590 0.82333 -0.02400
N 	N 	0.11710 0.92124 0.01080 -0.21500
H 	H 	0.03580 0.88110 0.01530 0.12000
O 	O 	0.82140 0.71000 0.94087 -0.09100
O 	O 	0.85270 0.68340 0.87474 -0.11700
O 	O 	0.21610 0.82099 0.79453 -0.13300
O 	O 	0.30960 0.92180 0.82025 -0.10200
O 	O 	0.29970 0.97296 0.96987 -0.21600
O 	O 	0.09057 0.05969 0.19745 -0.41500
O 	O 	0.32850 0.10017 0.18294 -0.33200
C 	C 	0.13920 0.87921 0.93777 0.08200
C 	C 	0.03320 0.82244 0.94032 -0.17300
H 	H 	0.98860 0.81180 0.96640 0.13000
C 	C 	0.99280 0.78095 0.90383 0.19300
C 	C 	0.05650 0.79414 0.86525 -0.23800
H 	H 	0.02860 0.76580 0.84090 0.14300
C 	C 	0.16210 0.85021 0.86369 0.20500
C 	C 	0.20540 0.89317 0.89852 -0.18100
H 	H 	0.27830 0.93130 0.89610 0.13800
C 	C 	0.19400 0.92880 0.97417 0.19900
C 	C 	0.14780 0.95774 0.05041 0.23700
C 	C 	0.04060 0.94534 0.08170 -0.23800
H 	H 	0.95440 0.91370 0.07590 0.13500
C 	C 	0.05940 0.97890 0.12112 0.13100
H 	H 	0.98520 0.97060 0.14180 0.02400
C 	C 	0.18820 0.02522 0.13049 -0.16500
C 	C 	0.29820 0.03534 0.09955 0.14900
H 	H 	0.38750 0.06500 0.10600 0.02000
C 	C 	0.27930 0.00281 0.05965 -0.23900
H 	H 	0.35390 0.01090 0.03900 0.16400
C 	C 	0.20560 0.06382 0.17250 0.34300
N 	N 	0.91830 0.39443 0.34830 -0.02100
N 	N 	0.90560 0.33569 0.50058 -0.02400
N 	N 	0.40930 0.22767 0.38646 -0.24300
H 	H 	0.31860 0.21590 0.36900 0.14700
O 	O 	0.99510 0.39815 0.31665 -0.12000
O 	O 	0.78280 0.41610 0.34984 -0.11500
O 	O 	0.76570 0.35467 0.49874 -0.11500
O 	O 	0.98260 0.31935 0.53380 -0.10300
O 	O 	0.47135 0.27308 0.45369 -0.22700
O 	O 	0.99778 0.12535 0.28309 -0.43200
O 	O 	0.13561 0.17037 0.34036 -0.32500
C 	C 	0.21060 0.29447 0.42209 0.07600
C 	C 	0.13880 0.32636 0.38520 -0.18700
H 	H 	0.18820 0.32440 0.35910 0.11600
C 	C 	0.99350 0.36099 0.38757 0.19900
C 	C 	0.91480 0.36504 0.42480 -0.24100
H 	H 	0.81600 0.38870 0.42570 0.15300
C 	C 	0.98820 0.33271 0.46046 0.20200
C 	C 	0.13430 0.29797 0.46017 -0.18700
H 	H 	0.18120 0.27710 0.48540 0.12800
C 	C 	0.37670 0.26318 0.42259 0.19600
C 	C 	0.56100 0.20737 0.37285 0.24400
C 	C 	0.56600 0.18892 0.33005 -0.23800
H 	H 	0.47160 0.18880 0.31220 0.10800
C 	C 	0.70880 0.17060 0.31337 0.14100
H 	H 	0.71010 0.15760 0.28430 0.01200
C 	C 	0.85110 0.17108 0.33911 -0.17600
C 	C 	0.84400 0.18859 0.38193 0.15200
H 	H 	0.93850 0.18870 0.39980 0.00400
C 	C 	0.70020 0.20611 0.39942 -0.24900
H 	H 	0.69770 0.21690 0.42880 0.15600
C 	C 	0.00720 0.15485 0.32026 0.37200
N 	N 	0.38170 0.77982 0.40703 -0.02700
N 	N 	0.73530 0.63410 0.32333 -0.02600
N 	N 	0.61710 0.57876 0.51080 -0.21400
H 	H 	0.53580 0.61890 0.51530 0.11900
O 	O 	0.32140 0.79000 0.44087 -0.09100
O 	O 	0.35270 0.81660 0.37474 -0.11600
O 	O 	0.71610 0.67901 0.29453 -0.13300
O 	O 	0.80960 0.57820 0.32025 -0.10100
O 	O 	0.79970 0.52704 0.46987 -0.21500
O 	O 	0.59057 0.44031 0.69745 -0.41200
O 	O 	0.82850 0.39983 0.68294 -0.33300
C 	C 	0.63920 0.62079 0.43777 0.09300
C 	C 	0.53320 0.67756 0.44032 -0.19500
H 	H 	0.48860 0.68820 0.46640 0.14000
C 	C 	0.49280 0.71905 0.40383 0.21300
C 	C 	0.55650 0.70586 0.36525 -0.25600
H 	H 	0.52860 0.73420 0.34090 0.14700
C 	C 	0.66210 0.64979 0.36369 0.21300
C 	C 	0.70540 0.60683 0.39852 -0.19200
H 	H 	0.77830 0.56870 0.39610 0.14200
C 	C 	0.69400 0.57120 0.47417 0.19400
C 	C 	0.64780 0.54226 0.55041 0.23600
C 	C 	0.54060 0.55466 0.58170 -0.23700
H 	H 	0.45440 0.58630 0.57590 0.13400
C 	C 	0.55940 0.52110 0.62112 0.13500
H 	H 	0.48520 0.52940 0.64180 0.02000
C 	C 	0.68820 0.47478 0.63049 -0.16500
C 	C 	0.79820 0.46466 0.59955 0.14800
H 	H 	0.88750 0.43500 0.60600 0.02000
C 	C 	0.77930 0.49719 0.55965 -0.23800
H 	H 	0.85390 0.48910 0.53900 0.16300
C 	C 	0.70560 0.43618 0.67250 0.34400
N 	N 	0.41830 0.10557 0.84830 -0.02000
N 	N 	0.40560 0.16431 0.00058 -0.02300
N 	N 	0.90930 0.27233 0.88646 -0.24500
H 	H 	0.81860 0.28410 0.86900 0.14800
O 	O 	0.49510 0.10185 0.81665 -0.12300
O 	O 	0.28280 0.08390 0.84984 -0.11500
O 	O 	0.26570 0.14533 0.99874 -0.11500
O 	O 	0.48260 0.18065 0.03380 -0.10200
O 	O 	0.97135 0.22692 0.95369 -0.22700
O 	O 	0.49778 0.37465 0.78309 -0.44200
O 	O 	0.63561 0.32963 0.84036 -0.32800
C 	C 	0.71060 0.20553 0.92209 0.07000
C 	C 	0.63880 0.17364 0.88520 -0.17500
H 	H 	0.68820 0.17560 0.85910 0.11300
C 	C 	0.49350 0.13901 0.88757 0.19000
C 	C 	0.41480 0.13496 0.92480 -0.23400
H 	H 	0.31600 0.11130 0.92570 0.15000
C 	C 	0.48820 0.16729 0.96046 0.19600
C 	C 	0.63430 0.20203 0.96017 -0.17900
H 	H 	0.68120 0.22290 0.98540 0.12600
C 	C 	0.87670 0.23682 0.92259 0.19800
C 	C 	0.06100 0.29263 0.87285 0.24700
C 	C 	0.06600 0.31108 0.83005 -0.23300
H 	H 	0.97160 0.31120 0.81220 0.10400
C 	C 	0.20880 0.32940 0.81337 0.14400
H 	H 	0.21010 0.34240 0.78430 0.01100
C 	C 	0.35110 0.32892 0.83911 -0.18700
C 	C 	0.34400 0.31141 0.88193 0.15900
H 	H 	0.43850 0.31130 0.89980 0.00000
C 	C 	0.20020 0.29389 0.89942 -0.25400
H 	H 	0.19770 0.28310 0.92880 0.15700
C 	C 	0.50720 0.34515 0.82026 0.38800
N 	N 	0.11830 0.27982 0.09297 -0.02500
N 	N 	0.76470 0.13410 0.17667 -0.02400
N 	N 	0.88290 0.07876 0.98920 -0.21500
H 	H 	0.96420 0.11890 0.98470 0.12000
O 	O 	0.17860 0.29000 0.05913 -0.09100
O 	O 	0.14730 0.31660 0.12526 -0.11700
O 	O 	0.78390 0.17901 0.20547 -0.13300
O 	O 	0.69040 0.07820 0.17975 -0.10200
O 	O 	0.70030 0.02704 0.03013 -0.21600
O 	O 	0.90943 0.94031 0.80255 -0.41500
O 	O 	0.67150 0.89983 0.81706 -0.33200
C 	C 	0.86080 0.12079 0.06223 0.08200
C 	C 	0.96680 0.17756 0.05968 -0.17300
H 	H 	0.01140 0.18820 0.03360 0.13000
C 	C 	0.00720 0.21905 0.09617 0.19300
C 	C 	0.94350 0.20586 0.13475 -0.23800
H 	H 	0.97140 0.23420 0.15910 0.14300
C 	C 	0.83790 0.14979 0.13631 0.20500
C 	C 	0.79460 0.10683 0.10148 -0.18100
H 	H 	0.72170 0.06870 0.10390 0.13800
C 	C 	0.80600 0.07120 0.02583 0.19900
C 	C 	0.85220 0.04226 0.94959 0.23700
C 	C 	0.95940 0.05466 0.91830 -0.23800
H 	H 	0.04560 0.08630 0.92410 0.13500
C 	C 	0.94060 0.02110 0.87888 0.13100
H 	H 	0.01480 0.02940 0.85820 0.02400
C 	C 	0.81180 0.97478 0.86951 -0.16500
C 	C 	0.70180 0.96466 0.90045 0.14900
H 	H 	0.61250 0.93500 0.89400 0.02000
C 	C 	0.72070 0.99719 0.94035 -0.23900
H 	H 	0.64610 0.98910 0.96100 0.16400
C 	C 	0.79440 0.93618 0.82750 0.34300
N 	N 	0.08170 0.60557 0.65170 -0.02100
N 	N 	0.09440 0.66431 0.49942 -0.02400
N 	N 	0.59070 0.77233 0.61354 -0.24300
H 	H 	0.68140 0.78410 0.63100 0.14700
O 	O 	0.00490 0.60185 0.68335 -0.12000
O 	O 	0.21720 0.58390 0.65016 -0.11500
O 	O 	0.23430 0.64533 0.50126 -0.11500
O 	O 	0.01740 0.68065 0.46620 -0.10300
O 	O 	0.52865 0.72692 0.54631 -0.22700
O 	O 	0.00222 0.87465 0.71691 -0.43200
O 	O 	0.86439 0.82963 0.65964 -0.32500
C 	C 	0.78940 0.70553 0.57791 0.07600
C 	C 	0.86120 0.67364 0.61480 -0.18700
H 	H 	0.81180 0.67560 0.64090 0.11600
C 	C 	0.00650 0.63901 0.61243 0.19900
C 	C 	0.08520 0.63496 0.57520 -0.24100
H 	H 	0.18400 0.61130 0.57430 0.15300
C 	C 	0.01180 0.66729 0.53954 0.20200
C 	C 	0.86570 0.70203 0.53983 -0.18700
H 	H 	0.81880 0.72290 0.51460 0.12800
C 	C 	0.62330 0.73682 0.57741 0.19600
C 	C 	0.43900 0.79263 0.62715 0.24400
C 	C 	0.43400 0.81108 0.66995 -0.23800
H 	H 	0.52840 0.81120 0.68780 0.10800
C 	C 	0.29120 0.82940 0.68663 0.14100
H 	H 	0.28990 0.84240 0.71570 0.01200
C 	C 	0.14890 0.82892 0.66089 -0.17600
C 	C 	0.15600 0.81141 0.61807 0.15200
H 	H 	0.06150 0.81130 0.60020 0.00400
C 	C 	0.29980 0.79389 0.60058 -0.24900
H 	H 	0.30230 0.78310 0.57120 0.15600
C 	C 	0.99280 0.84515 0.67974 0.37200
