data_crystal

_cell_length_a 19.07900
_cell_length_b 21.41000
_cell_length_c 23.41300
_cell_angle_alpha 90.00000
_cell_angle_beta  108.88600
_cell_angle_gamma 90.00000

_symmetry_space_group_name_	'P 1'
_symmetry_space_group_name_H-M	'P 1'

loop_
_symmetry_equiv_pos_as_xyz
  x,y,z

loop_
_atom_site_label
_atom_site_type_symbol
_atom_site_fract_x
_atom_site_fract_y
_atom_site_fract_z
_atom_site_charge
Pr	Pr	0.74552 0.27846 0.64510 1.94900
C 	C 	0.82250 0.38050 0.77951 0.33100
C 	C 	0.85440 0.44554 0.86468 0.10900
C 	C 	0.92580 0.41310 0.85835 0.11000
C 	C 	0.90800 0.38140 0.94896 0.26500
C 	C 	0.94310 0.34930 0.77077 0.07700
H 	H 	0.91680 0.35020 0.72770 -0.02000
H 	H 	0.98830 0.37320 0.77800 0.00500
C 	C 	0.01580 0.33410 0.92931 0.04300
H 	H 	0.05520 0.35850 0.92250 0.01600
H 	H 	0.02950 0.32630 0.97230 0.04200
C 	C 	0.92100 0.23610 0.75927 0.35200
C 	C 	0.02460 0.26580 0.84078 0.11300
C 	C 	0.02310 0.19270 0.83356 0.10700
C 	C 	0.01220 0.21890 0.92770 0.26200
C 	C 	0.92630 0.12180 0.75688 0.06000
H 	H 	0.89010 0.12910 0.71750 0.01600
H 	H 	0.96750 0.09930 0.75090 0.01100
C 	C 	0.03140 0.10640 0.91375 0.04600
H 	H 	0.06830 0.08780 0.89870 0.01700
H 	H 	0.05160 0.10690 0.95750 0.04100
C 	C 	0.81800 0.07460 0.77366 0.28000
C 	C 	0.93300 0.03820 0.83695 0.12200
C 	C 	0.86850 0.99670 0.84614 0.10400
C 	C 	0.93180 0.04896 0.93718 0.27700
C 	C 	0.72910 0.99750 0.78474 0.04900
H 	H 	0.70360 0.01030 0.74350 0.03600
H 	H 	0.73450 0.95250 0.78490 0.01400
C 	C 	0.82990 0.98089 0.94165 0.04900
H 	H 	0.82530 0.93650 0.93290 0.01900
H 	H 	0.85500 0.98550 0.98460 0.03900
C 	C 	0.62210 0.04990 0.79934 0.27300
C 	C 	0.69070 0.98583 0.87996 0.11000
C 	C 	0.62560 0.01786 0.89693 0.11500
C 	C 	0.73990 0.05016 0.96438 0.27000
C 	C 	0.51710 0.08539 0.83057 0.05400
H 	H 	0.48570 0.06230 0.84840 0.01200
H 	H 	0.49200 0.08700 0.78740 0.03400
C 	C 	0.63140 0.09478 0.98350 0.07900
H 	H 	0.66770 0.10050 0.02320 -0.01700
H 	H 	0.59110 0.07020 0.98850 -0.00500
C 	C 	0.52450 0.19910 0.81813 0.26800
C 	C 	0.52910 0.16628 0.91506 0.11300
C 	C 	0.52360 0.23925 0.91173 0.11000
C 	C 	0.63160 0.20955 0.98876 0.32100
C 	C 	0.51690 0.31327 0.82273 0.05000
H 	H 	0.47740 0.33400 0.83300 0.01400
H 	H 	0.50010 0.30700 0.77940 0.03600
C 	C 	0.60390 0.32295 0.98183 0.08500
H 	H 	0.55760 0.34320 0.97960 -0.00300
H 	H 	0.63480 0.32250 0.02390 -0.02900
C 	C 	0.62120 0.36550 0.80155 0.27600
C 	C 	0.60290 0.39395 0.89257 0.11200
C 	C 	0.66760 0.43490 0.88310 0.11300
C 	C 	0.71260 0.37513 0.97094 0.27600
C 	C 	0.71830 0.43760 0.79334 0.06100
H 	H 	0.69730 0.42720 0.75090 0.01100
H 	H 	0.71800 0.48270 0.79680 0.00900
C 	C 	0.80310 0.44710 0.95365 0.05100
H 	H 	0.79560 0.49160 0.94640 0.01400
H 	H 	0.82530 0.44120 0.99680 0.03600
C 	C 	0.85670 0.51660 0.85890 -0.17500
H 	H 	0.81340 0.53460 0.86560 0.07700
H 	H 	0.85520 0.52730 0.81830 0.07500
C 	C 	0.92750 0.54470 0.90470 -0.05900
H 	H 	0.93410 0.58690 0.89230 0.04500
H 	H 	0.92070 0.54720 0.94400 0.04600
C 	C 	0.99670 0.50740 0.91070 -0.06500
H 	H 	0.01100 0.48480 0.94860 0.04900
H 	H 	0.03660 0.53590 0.91170 0.04900
C 	C 	0.98650 0.46080 0.85870 -0.17100
H 	H 	0.03280 0.43910 0.86370 0.07500
H 	H 	0.97260 0.48290 0.82050 0.07400
C 	C 	0.09790 0.29340 0.84000 -0.18000
H 	H 	0.13730 0.27920 0.87530 0.07800
H 	H 	0.09550 0.33860 0.84200 0.07800
C 	C 	0.11600 0.27470 0.78260 -0.05700
H 	H 	0.08600 0.29960 0.74900 0.03900
H 	H 	0.16760 0.28410 0.78850 0.03400
C 	C 	0.10220 0.20600 0.76700 -0.06000
H 	H 	0.14430 0.18890 0.75770 0.03500
H 	H 	0.05900 0.20200 0.73130 0.04500
C 	C 	0.08990 0.16840 0.81830 -0.17600
H 	H 	0.08210 0.12490 0.80660 0.07600
H 	H 	0.13360 0.17110 0.85380 0.07700
C 	C 	0.98830 0.99870 0.81820 -0.19100
H 	H 	0.03020 0.02440 0.81820 0.07900
H 	H 	0.96500 0.98320 0.77750 0.08000
C 	C 	0.01540 0.94360 0.86150 -0.04000
H 	H 	0.04420 0.95960 0.90090 0.06000
H 	H 	0.04800 0.91790 0.84700 0.02400
C 	C 	0.95260 0.90270 0.86840 -0.08800
H 	H 	0.95750 0.86080 0.85430 0.04900
H 	H 	0.95710 0.89990 0.91080 0.07900
C 	C 	0.87640 0.92803 0.83330 -0.15600
H 	H 	0.86770 0.92250 0.79040 0.07000
H 	H 	0.83900 0.90430 0.84390 0.07300
C 	C 	0.68230 0.91490 0.87650 -0.17400
H 	H 	0.69370 0.89800 0.91700 0.07700
H 	H 	0.71710 0.89740 0.85860 0.07800
C 	C 	0.60360 0.89620 0.83900 -0.06700
H 	H 	0.60010 0.85100 0.83690 0.04200
H 	H 	0.59300 0.91190 0.79820 0.04900
C 	C 	0.54540 0.92190 0.86570 -0.04800
H 	H 	0.50510 0.94060 0.83360 0.03900
H 	H 	0.52510 0.88760 0.88240 0.02500
C 	C 	0.57740 0.97060 0.91510 -0.18300
H 	H 	0.53710 0.99230 0.92350 0.07400
H 	H 	0.60670 0.94970 0.95180 0.07600
C 	C 	0.46740 0.13730 0.93510 -0.19000
H 	H 	0.42080 0.13980 0.90220 0.08000
H 	H 	0.47830 0.09350 0.94460 0.07700
C 	C 	0.45990 0.17080 0.99020 -0.03700
H 	H 	0.50600 0.16700 0.02330 0.01300
H 	H 	0.42130 0.15080 0.00240 0.02400
C 	C 	0.44080 0.24060 0.97780 -0.07000
H 	H 	0.38970 0.24740 0.97550 0.03700
H 	H 	0.47200 0.26520 0.01110 0.03200
C 	C 	0.45150 0.26310 0.91880 -0.17500
H 	H 	0.41020 0.24890 0.88490 0.07600
H 	H 	0.45150 0.30840 0.91820 0.07600
C 	C 	0.53850 0.43380 0.89710 -0.17300
H 	H 	0.49800 0.40690 0.89810 0.07600
H 	H 	0.55430 0.45770 0.93430 0.07500
C 	C 	0.51180 0.47820 0.84340 -0.06500
H 	H 	0.47460 0.50590 0.84950 0.05100
H 	H 	0.48860 0.45400 0.80720 0.05100
C 	C 	0.57450 0.51780 0.83390 -0.05700
H 	H 	0.57730 0.50960 0.79390 0.04700
H 	H 	0.56280 0.56170 0.83580 0.04800
C 	C 	0.64980 0.50430 0.88080 -0.17900
H 	H 	0.68790 0.52760 0.87090 0.07900
H 	H 	0.64940 0.51800 0.92020 0.07800
N 	N 	0.79479 0.41608 0.81492 -0.17700
N 	N 	0.89750 0.37956 0.80191 -0.18600
N 	N 	0.85460 0.42519 0.92422 -0.15700
N 	N 	0.94790 0.37106 0.91059 -0.15500
N 	N 	0.96240 0.28542 0.78888 -0.18400
N 	N 	0.95303 0.18205 0.78470 -0.17800
N 	N 	0.01070 0.27454 0.89822 -0.15800
N 	N 	0.01909 0.17093 0.89227 -0.15900
N 	N 	0.89294 0.08296 0.79164 -0.16800
N 	N 	0.80206 0.02553 0.80443 -0.16000
N 	N 	0.96592 0.06713 0.89614 -0.15500
N 	N 	0.87566 0.00850 0.90953 -0.15300
N 	N 	0.68389 0.01386 0.82158 -0.15800
N 	N 	0.58585 0.05166 0.84162 -0.15800
N 	N 	0.75649 0.00698 0.92745 -0.15900
N 	N 	0.66560 0.05971 0.94638 -0.16600
N 	N 	0.52541 0.14878 0.85420 -0.16100
N 	N 	0.53010 0.25273 0.85206 -0.15700
N 	N 	0.60255 0.15586 0.95959 -0.17800
N 	N 	0.58838 0.25897 0.96103 -0.18100
N 	N 	0.58119 0.35392 0.83889 -0.16000
N 	N 	0.67145 0.41124 0.82537 -0.16400
N 	N 	0.64052 0.35946 0.94761 -0.17100
N 	N 	0.73121 0.41646 0.93410 -0.16200
O 	O 	0.78451 0.35388 0.73216 -0.50700
O 	O 	0.86493 0.24066 0.71559 -0.52300
O 	O 	0.77188 0.10520 0.73540 -0.28700
O 	O 	0.60076 0.07509 0.75033 -0.24600
O 	O 	0.51810 0.19715 0.76470 -0.24200
O 	O 	0.61150 0.33958 0.75222 -0.28600
O 	O 	0.91981 0.35651 0.99850 -0.23200
O 	O 	0.00910 0.21362 0.97930 -0.22600
O 	O 	0.95045 0.06546 0.98996 -0.23200
O 	O 	0.78605 0.07487 0.00819 -0.25800
O 	O 	0.68788 0.21351 0.03422 -0.52400
O 	O 	0.75644 0.35522 0.01887 -0.27700
Pr	Pr	0.74552 0.22154 0.14510 1.94900
C 	C 	0.82250 0.11950 0.27951 0.33100
C 	C 	0.85440 0.05446 0.36468 0.11200
C 	C 	0.92580 0.08690 0.35835 0.10700
C 	C 	0.90800 0.11860 0.44896 0.26500
C 	C 	0.94310 0.15070 0.27077 0.07700
H 	H 	0.91680 0.14980 0.22770 -0.02000
H 	H 	0.98830 0.12680 0.27800 0.00500
C 	C 	0.01580 0.16590 0.42931 0.04300
H 	H 	0.05520 0.14150 0.42250 0.01600
H 	H 	0.02950 0.17370 0.47230 0.04200
C 	C 	0.92100 0.26390 0.25927 0.35200
C 	C 	0.02460 0.23420 0.34078 0.11300
C 	C 	0.02310 0.30730 0.33356 0.10800
C 	C 	0.01220 0.28110 0.42770 0.26300
C 	C 	0.92630 0.37820 0.25688 0.06000
H 	H 	0.89010 0.37090 0.21750 0.01600
H 	H 	0.96750 0.40070 0.25090 0.01000
C 	C 	0.03140 0.39360 0.41375 0.04800
H 	H 	0.06830 0.41220 0.39870 0.01700
H 	H 	0.05160 0.39310 0.45750 0.04100
C 	C 	0.81800 0.42540 0.27366 0.28000
C 	C 	0.93300 0.46180 0.33695 0.11800
C 	C 	0.86850 0.50330 0.34614 0.10800
C 	C 	0.93180 0.45104 0.43718 0.27700
C 	C 	0.72910 0.50250 0.28474 0.05300
H 	H 	0.70360 0.48970 0.24350 0.03500
H 	H 	0.73450 0.54750 0.28490 0.01300
C 	C 	0.82990 0.51911 0.44165 0.05100
H 	H 	0.82530 0.56350 0.43290 0.01900
H 	H 	0.85500 0.51450 0.48460 0.03900
C 	C 	0.62210 0.45010 0.29934 0.27400
C 	C 	0.69070 0.51417 0.37996 0.11200
C 	C 	0.62560 0.48214 0.39693 0.11300
C 	C 	0.73990 0.44984 0.46438 0.26900
C 	C 	0.51710 0.41461 0.33057 0.05300
H 	H 	0.48570 0.43770 0.34840 0.01200
H 	H 	0.49200 0.41300 0.28740 0.03400
C 	C 	0.63140 0.40522 0.48350 0.07900
H 	H 	0.66770 0.39950 0.52320 -0.01700
H 	H 	0.59110 0.42980 0.48850 -0.00500
C 	C 	0.52450 0.30090 0.31813 0.26800
C 	C 	0.52910 0.33372 0.41506 0.11300
C 	C 	0.52360 0.26075 0.41173 0.11000
C 	C 	0.63160 0.29045 0.48876 0.32100
C 	C 	0.51690 0.18673 0.32273 0.05000
H 	H 	0.47740 0.16600 0.33300 0.01400
H 	H 	0.50010 0.19300 0.27940 0.03600
C 	C 	0.60390 0.17705 0.48183 0.08500
H 	H 	0.55760 0.15680 0.47960 -0.00200
H 	H 	0.63480 0.17750 0.52390 -0.02800
C 	C 	0.62120 0.13450 0.30155 0.27600
C 	C 	0.60290 0.10605 0.39257 0.11100
C 	C 	0.66760 0.06510 0.38310 0.11400
C 	C 	0.71260 0.12487 0.47094 0.27600
C 	C 	0.71830 0.06240 0.29334 0.06100
H 	H 	0.69730 0.07280 0.25090 0.01100
H 	H 	0.71800 0.01730 0.29680 0.00900
C 	C 	0.80310 0.05290 0.45365 0.05100
H 	H 	0.79560 0.00840 0.44640 0.01500
H 	H 	0.82530 0.05880 0.49680 0.03600
C 	C 	0.85670 0.98340 0.35890 -0.18200
H 	H 	0.81340 0.96540 0.36560 0.07900
H 	H 	0.85520 0.97270 0.31830 0.07600
C 	C 	0.92750 0.95530 0.40470 -0.04900
H 	H 	0.93410 0.91310 0.39230 0.04200
H 	H 	0.92070 0.95280 0.44400 0.04200
C 	C 	0.99670 0.99260 0.41070 -0.08100
H 	H 	0.01100 0.01520 0.44860 0.05400
H 	H 	0.03660 0.96410 0.41170 0.05500
C 	C 	0.98650 0.03920 0.35870 -0.16000
H 	H 	0.03280 0.06090 0.36370 0.07100
H 	H 	0.97260 0.01710 0.32050 0.07100
C 	C 	0.09790 0.20660 0.34000 -0.18000
H 	H 	0.13730 0.22080 0.37530 0.07800
H 	H 	0.09550 0.16140 0.34200 0.07800
C 	C 	0.11600 0.22530 0.28260 -0.05700
H 	H 	0.08600 0.20040 0.24900 0.03900
H 	H 	0.16760 0.21590 0.28850 0.03400
C 	C 	0.10220 0.29400 0.26700 -0.06000
H 	H 	0.14430 0.31110 0.25770 0.03500
H 	H 	0.05900 0.29800 0.23130 0.04500
C 	C 	0.08990 0.33160 0.31830 -0.17600
H 	H 	0.08210 0.37510 0.30660 0.07600
H 	H 	0.13360 0.32890 0.35380 0.07700
C 	C 	0.98830 0.50130 0.31820 -0.18400
H 	H 	0.03020 0.47560 0.31820 0.07800
H 	H 	0.96500 0.51680 0.27750 0.07800
C 	C 	0.01540 0.55640 0.36150 -0.04700
H 	H 	0.04420 0.54040 0.40090 0.06200
H 	H 	0.04800 0.58210 0.34700 0.02600
C 	C 	0.95260 0.59730 0.36840 -0.08200
H 	H 	0.95750 0.63920 0.35430 0.04800
H 	H 	0.95710 0.60010 0.41080 0.07700
C 	C 	0.87640 0.57197 0.33330 -0.16100
H 	H 	0.86770 0.57750 0.29040 0.07200
H 	H 	0.83900 0.59570 0.34390 0.07500
C 	C 	0.68230 0.58510 0.37650 -0.17500
H 	H 	0.69370 0.60200 0.41700 0.07800
H 	H 	0.71710 0.60260 0.35860 0.07800
C 	C 	0.60360 0.60380 0.33900 -0.06600
H 	H 	0.60010 0.64900 0.33690 0.04200
H 	H 	0.59300 0.58810 0.29820 0.04900
C 	C 	0.54540 0.57810 0.36570 -0.04900
H 	H 	0.50510 0.55940 0.33360 0.04000
H 	H 	0.52510 0.61240 0.38240 0.02600
C 	C 	0.57740 0.52940 0.41510 -0.18100
H 	H 	0.53710 0.50770 0.42350 0.07400
H 	H 	0.60670 0.55030 0.45180 0.07500
C 	C 	0.46740 0.36270 0.43510 -0.18900
H 	H 	0.42080 0.36020 0.40220 0.08000
H 	H 	0.47830 0.40650 0.44460 0.07700
C 	C 	0.45990 0.32920 0.49020 -0.03800
H 	H 	0.50600 0.33300 0.52330 0.01400
H 	H 	0.42130 0.34920 0.50240 0.02400
C 	C 	0.44080 0.25940 0.47780 -0.06900
H 	H 	0.38970 0.25260 0.47550 0.03700
H 	H 	0.47200 0.23480 0.51110 0.03200
C 	C 	0.45150 0.23690 0.41880 -0.17500
H 	H 	0.41020 0.25110 0.38490 0.07700
H 	H 	0.45150 0.19160 0.41820 0.07600
C 	C 	0.53850 0.06620 0.39710 -0.17200
H 	H 	0.49800 0.09310 0.39810 0.07500
H 	H 	0.55430 0.04230 0.43430 0.07500
C 	C 	0.51180 0.02180 0.34340 -0.06600
H 	H 	0.47460 0.99410 0.34950 0.05100
H 	H 	0.48860 0.04600 0.30720 0.05100
C 	C 	0.57450 0.98220 0.33390 -0.05700
H 	H 	0.57730 0.99040 0.29390 0.04700
H 	H 	0.56280 0.93830 0.33580 0.04800
C 	C 	0.64980 0.99570 0.38080 -0.18000
H 	H 	0.68790 0.97240 0.37090 0.07900
H 	H 	0.64940 0.98200 0.42020 0.07800
N 	N 	0.79479 0.08392 0.31492 -0.17700
N 	N 	0.89750 0.12044 0.30191 -0.18500
N 	N 	0.85460 0.07481 0.42422 -0.15800
N 	N 	0.94790 0.12894 0.41059 -0.15400
N 	N 	0.96240 0.21458 0.28888 -0.18400
N 	N 	0.95303 0.31795 0.28470 -0.17800
N 	N 	0.01070 0.22546 0.39822 -0.15800
N 	N 	0.01909 0.32907 0.39227 -0.15900
N 	N 	0.89294 0.41704 0.29164 -0.16700
N 	N 	0.80206 0.47447 0.30443 -0.16200
N 	N 	0.96592 0.43287 0.39614 -0.15500
N 	N 	0.87566 0.49150 0.40953 -0.15500
N 	N 	0.68389 0.48614 0.32158 -0.15900
N 	N 	0.58585 0.44834 0.34162 -0.15800
N 	N 	0.75649 0.49302 0.42745 -0.16100
N 	N 	0.66560 0.44029 0.44638 -0.16600
N 	N 	0.52541 0.35122 0.35420 -0.16100
N 	N 	0.53010 0.24727 0.35206 -0.15700
N 	N 	0.60255 0.34414 0.45959 -0.17800
N 	N 	0.58838 0.24103 0.46103 -0.18100
N 	N 	0.58119 0.14608 0.33889 -0.16000
N 	N 	0.67145 0.08876 0.32537 -0.16400
N 	N 	0.64052 0.14054 0.44761 -0.17000
N 	N 	0.73121 0.08354 0.43410 -0.16200
O 	O 	0.78451 0.14612 0.23216 -0.50700
O 	O 	0.86493 0.25934 0.21559 -0.52300
O 	O 	0.77188 0.39480 0.23540 -0.28700
O 	O 	0.60076 0.42491 0.25033 -0.24600
O 	O 	0.51810 0.30285 0.26470 -0.24200
O 	O 	0.61150 0.16042 0.25222 -0.28600
O 	O 	0.91981 0.14349 0.49850 -0.23200
O 	O 	0.00910 0.28638 0.47930 -0.22600
O 	O 	0.95045 0.43454 0.48996 -0.23200
O 	O 	0.78605 0.42513 0.50819 -0.25800
O 	O 	0.68788 0.28649 0.53422 -0.52400
O 	O 	0.75644 0.14478 0.51887 -0.27700
Pr	Pr	0.25448 0.77846 0.85490 1.94900
C 	C 	0.17750 0.88050 0.72049 0.33100
C 	C 	0.14560 0.94554 0.63532 0.11200
C 	C 	0.07420 0.91310 0.64165 0.10700
C 	C 	0.09200 0.88140 0.55104 0.26500
C 	C 	0.05690 0.84930 0.72923 0.07700
H 	H 	0.08320 0.85020 0.77230 -0.02000
H 	H 	0.01170 0.87320 0.72200 0.00500
C 	C 	0.98420 0.83410 0.57069 0.04300
H 	H 	0.94480 0.85850 0.57750 0.01600
H 	H 	0.97050 0.82630 0.52770 0.04200
C 	C 	0.07900 0.73610 0.74073 0.35200
C 	C 	0.97540 0.76580 0.65922 0.11300
C 	C 	0.97690 0.69270 0.66644 0.10800
C 	C 	0.98780 0.71890 0.57230 0.26300
C 	C 	0.07370 0.62180 0.74312 0.06000
H 	H 	0.10990 0.62910 0.78250 0.01600
H 	H 	0.03250 0.59930 0.74910 0.01000
C 	C 	0.96860 0.60640 0.58625 0.04800
H 	H 	0.93170 0.58780 0.60130 0.01700
H 	H 	0.94840 0.60690 0.54250 0.04100
C 	C 	0.18200 0.57460 0.72634 0.28000
C 	C 	0.06700 0.53820 0.66305 0.11800
C 	C 	0.13150 0.49670 0.65386 0.10800
C 	C 	0.06820 0.54896 0.56282 0.27700
C 	C 	0.27090 0.49750 0.71526 0.05300
H 	H 	0.29640 0.51030 0.75650 0.03500
H 	H 	0.26550 0.45250 0.71510 0.01300
C 	C 	0.17010 0.48089 0.55835 0.05100
H 	H 	0.17470 0.43650 0.56710 0.01900
H 	H 	0.14500 0.48550 0.51540 0.03900
C 	C 	0.37790 0.54990 0.70066 0.27400
C 	C 	0.30930 0.48583 0.62004 0.11200
C 	C 	0.37440 0.51786 0.60307 0.11300
C 	C 	0.26010 0.55016 0.53562 0.26900
C 	C 	0.48290 0.58539 0.66943 0.05300
H 	H 	0.51430 0.56230 0.65160 0.01200
H 	H 	0.50800 0.58700 0.71260 0.03400
C 	C 	0.36860 0.59478 0.51650 0.07900
H 	H 	0.33230 0.60050 0.47680 -0.01700
H 	H 	0.40890 0.57020 0.51150 -0.00500
C 	C 	0.47550 0.69910 0.68187 0.26800
C 	C 	0.47090 0.66628 0.58494 0.11300
C 	C 	0.47640 0.73925 0.58827 0.11000
C 	C 	0.36840 0.70955 0.51124 0.32100
C 	C 	0.48310 0.81327 0.67727 0.05000
H 	H 	0.52260 0.83400 0.66700 0.01400
H 	H 	0.49990 0.80700 0.72060 0.03600
C 	C 	0.39610 0.82295 0.51817 0.08500
H 	H 	0.44240 0.84320 0.52040 -0.00200
H 	H 	0.36520 0.82250 0.47610 -0.02800
C 	C 	0.37880 0.86550 0.69845 0.27600
C 	C 	0.39710 0.89395 0.60743 0.11100
C 	C 	0.33240 0.93490 0.61690 0.11400
C 	C 	0.28740 0.87513 0.52906 0.27600
C 	C 	0.28170 0.93760 0.70666 0.06100
H 	H 	0.30270 0.92720 0.74910 0.01100
H 	H 	0.28200 0.98270 0.70320 0.00900
C 	C 	0.19690 0.94710 0.54635 0.05100
H 	H 	0.20440 0.99160 0.55360 0.01500
H 	H 	0.17470 0.94120 0.50320 0.03600
C 	C 	0.14330 0.01660 0.64110 -0.18200
H 	H 	0.18660 0.03460 0.63440 0.07900
H 	H 	0.14480 0.02730 0.68170 0.07600
C 	C 	0.07250 0.04470 0.59530 -0.04900
H 	H 	0.06590 0.08690 0.60770 0.04200
H 	H 	0.07930 0.04720 0.55600 0.04200
C 	C 	0.00330 0.00740 0.58930 -0.08100
H 	H 	0.98900 0.98480 0.55140 0.05400
H 	H 	0.96340 0.03590 0.58830 0.05500
C 	C 	0.01350 0.96080 0.64130 -0.16000
H 	H 	0.96720 0.93910 0.63630 0.07100
H 	H 	0.02740 0.98290 0.67950 0.07100
C 	C 	0.90210 0.79340 0.66000 -0.18000
H 	H 	0.86270 0.77920 0.62470 0.07800
H 	H 	0.90450 0.83860 0.65800 0.07800
C 	C 	0.88400 0.77470 0.71740 -0.05700
H 	H 	0.91400 0.79960 0.75100 0.03900
H 	H 	0.83240 0.78410 0.71150 0.03400
C 	C 	0.89780 0.70600 0.73300 -0.06000
H 	H 	0.85570 0.68890 0.74230 0.03500
H 	H 	0.94100 0.70200 0.76870 0.04500
C 	C 	0.91010 0.66840 0.68170 -0.17600
H 	H 	0.91790 0.62490 0.69340 0.07600
H 	H 	0.86640 0.67110 0.64620 0.07700
C 	C 	0.01170 0.49870 0.68180 -0.18400
H 	H 	0.96980 0.52440 0.68180 0.07800
H 	H 	0.03500 0.48320 0.72250 0.07800
C 	C 	0.98460 0.44360 0.63850 -0.04700
H 	H 	0.95580 0.45960 0.59910 0.06200
H 	H 	0.95200 0.41790 0.65300 0.02600
C 	C 	0.04740 0.40270 0.63160 -0.08200
H 	H 	0.04250 0.36080 0.64570 0.04800
H 	H 	0.04290 0.39990 0.58920 0.07700
C 	C 	0.12360 0.42803 0.66670 -0.16100
H 	H 	0.13230 0.42250 0.70960 0.07200
H 	H 	0.16100 0.40430 0.65610 0.07500
C 	C 	0.31770 0.41490 0.62350 -0.17500
H 	H 	0.30630 0.39800 0.58300 0.07800
H 	H 	0.28290 0.39740 0.64140 0.07800
C 	C 	0.39640 0.39620 0.66100 -0.06600
H 	H 	0.39990 0.35100 0.66310 0.04200
H 	H 	0.40700 0.41190 0.70180 0.04900
C 	C 	0.45460 0.42190 0.63430 -0.04900
H 	H 	0.49490 0.44060 0.66640 0.04000
H 	H 	0.47490 0.38760 0.61760 0.02600
C 	C 	0.42260 0.47060 0.58490 -0.18100
H 	H 	0.46290 0.49230 0.57650 0.07400
H 	H 	0.39330 0.44970 0.54820 0.07500
C 	C 	0.53260 0.63730 0.56490 -0.18900
H 	H 	0.57920 0.63980 0.59780 0.08000
H 	H 	0.52170 0.59350 0.55540 0.07700
C 	C 	0.54010 0.67080 0.50980 -0.03800
H 	H 	0.49400 0.66700 0.47670 0.01400
H 	H 	0.57870 0.65080 0.49760 0.02400
C 	C 	0.55920 0.74060 0.52220 -0.06900
H 	H 	0.61030 0.74740 0.52450 0.03700
H 	H 	0.52800 0.76520 0.48890 0.03200
C 	C 	0.54850 0.76310 0.58120 -0.17500
H 	H 	0.58980 0.74890 0.61510 0.07700
H 	H 	0.54850 0.80840 0.58180 0.07600
C 	C 	0.46150 0.93380 0.60290 -0.17200
H 	H 	0.50200 0.90690 0.60190 0.07500
H 	H 	0.44570 0.95770 0.56570 0.07500
C 	C 	0.48820 0.97820 0.65660 -0.06600
H 	H 	0.52540 0.00590 0.65050 0.05100
H 	H 	0.51140 0.95400 0.69280 0.05100
C 	C 	0.42550 0.01780 0.66610 -0.05700
H 	H 	0.42270 0.00960 0.70610 0.04700
H 	H 	0.43720 0.06170 0.66420 0.04800
C 	C 	0.35020 0.00430 0.61920 -0.18000
H 	H 	0.31210 0.02760 0.62910 0.07900
H 	H 	0.35060 0.01800 0.57980 0.07800
N 	N 	0.20521 0.91608 0.68508 -0.17700
N 	N 	0.10250 0.87956 0.69809 -0.18500
N 	N 	0.14540 0.92519 0.57578 -0.15800
N 	N 	0.05210 0.87106 0.58941 -0.15400
N 	N 	0.03760 0.78542 0.71112 -0.18400
N 	N 	0.04697 0.68205 0.71530 -0.17800
N 	N 	0.98930 0.77454 0.60178 -0.15800
N 	N 	0.98091 0.67093 0.60773 -0.15900
N 	N 	0.10706 0.58296 0.70836 -0.16700
N 	N 	0.19794 0.52553 0.69557 -0.16200
N 	N 	0.03408 0.56713 0.60386 -0.15500
N 	N 	0.12434 0.50850 0.59047 -0.15500
N 	N 	0.31611 0.51386 0.67842 -0.15900
N 	N 	0.41415 0.55166 0.65838 -0.15800
N 	N 	0.24351 0.50698 0.57255 -0.16100
N 	N 	0.33440 0.55971 0.55362 -0.16600
N 	N 	0.47459 0.64878 0.64580 -0.16100
N 	N 	0.46990 0.75273 0.64794 -0.15700
N 	N 	0.39745 0.65586 0.54041 -0.17800
N 	N 	0.41162 0.75897 0.53897 -0.18100
N 	N 	0.41881 0.85392 0.66111 -0.16000
N 	N 	0.32855 0.91124 0.67463 -0.16400
N 	N 	0.35948 0.85946 0.55239 -0.17000
N 	N 	0.26879 0.91646 0.56590 -0.16200
O 	O 	0.21549 0.85388 0.76784 -0.50700
O 	O 	0.13507 0.74066 0.78441 -0.52300
O 	O 	0.22812 0.60520 0.76460 -0.28700
O 	O 	0.39924 0.57509 0.74967 -0.24600
O 	O 	0.48190 0.69715 0.73530 -0.24200
O 	O 	0.38850 0.83958 0.74778 -0.28600
O 	O 	0.08019 0.85651 0.50150 -0.23200
O 	O 	0.99090 0.71362 0.52070 -0.22600
O 	O 	0.04955 0.56546 0.51004 -0.23200
O 	O 	0.21395 0.57487 0.49181 -0.25800
O 	O 	0.31212 0.71351 0.46578 -0.52400
O 	O 	0.24356 0.85522 0.48113 -0.27700
Pr	Pr	0.25448 0.72154 0.35490 1.94900
C 	C 	0.17750 0.61950 0.22049 0.33100
C 	C 	0.14560 0.55446 0.13532 0.10900
C 	C 	0.07420 0.58690 0.14165 0.11000
C 	C 	0.09200 0.61860 0.05104 0.26500
C 	C 	0.05690 0.65070 0.22923 0.07700
H 	H 	0.08320 0.64980 0.27230 -0.02000
H 	H 	0.01170 0.62680 0.22200 0.00500
C 	C 	0.98420 0.66590 0.07069 0.04300
H 	H 	0.94480 0.64150 0.07750 0.01600
H 	H 	0.97050 0.67370 0.02770 0.04200
C 	C 	0.07900 0.76390 0.24073 0.35200
C 	C 	0.97540 0.73420 0.15922 0.11300
C 	C 	0.97690 0.80730 0.16644 0.10700
C 	C 	0.98780 0.78110 0.07230 0.26200
C 	C 	0.07370 0.87820 0.24312 0.06000
H 	H 	0.10990 0.87090 0.28250 0.01600
H 	H 	0.03250 0.90070 0.24910 0.01100
C 	C 	0.96860 0.89360 0.08625 0.04600
H 	H 	0.93170 0.91220 0.10130 0.01700
H 	H 	0.94840 0.89310 0.04250 0.04100
C 	C 	0.18200 0.92540 0.22634 0.28000
C 	C 	0.06700 0.96180 0.16305 0.12200
C 	C 	0.13150 0.00330 0.15386 0.10400
C 	C 	0.06820 0.95104 0.06282 0.27700
C 	C 	0.27090 0.00250 0.21526 0.04900
H 	H 	0.29640 0.98970 0.25650 0.03600
H 	H 	0.26550 0.04750 0.21510 0.01400
C 	C 	0.17010 0.01911 0.05835 0.04900
H 	H 	0.17470 0.06350 0.06710 0.01900
H 	H 	0.14500 0.01450 0.01540 0.03900
C 	C 	0.37790 0.95010 0.20066 0.27300
C 	C 	0.30930 0.01417 0.12004 0.11000
C 	C 	0.37440 0.98214 0.10307 0.11500
C 	C 	0.26010 0.94984 0.03562 0.27000
C 	C 	0.48290 0.91461 0.16943 0.05400
H 	H 	0.51430 0.93770 0.15160 0.01200
H 	H 	0.50800 0.91300 0.21260 0.03400
C 	C 	0.36860 0.90522 0.01650 0.07900
H 	H 	0.33230 0.89950 0.97680 -0.01700
H 	H 	0.40890 0.92980 0.01150 -0.00500
C 	C 	0.47550 0.80090 0.18187 0.26800
C 	C 	0.47090 0.83372 0.08494 0.11300
C 	C 	0.47640 0.76075 0.08827 0.11000
C 	C 	0.36840 0.79045 0.01124 0.32100
C 	C 	0.48310 0.68673 0.17727 0.05000
H 	H 	0.52260 0.66600 0.16700 0.01400
H 	H 	0.49990 0.69300 0.22060 0.03600
C 	C 	0.39610 0.67705 0.01817 0.08500
H 	H 	0.44240 0.65680 0.02040 -0.00300
H 	H 	0.36520 0.67750 0.97610 -0.02900
C 	C 	0.37880 0.63450 0.19845 0.27600
C 	C 	0.39710 0.60605 0.10743 0.11200
C 	C 	0.33240 0.56510 0.11690 0.11300
C 	C 	0.28740 0.62487 0.02906 0.27600
C 	C 	0.28170 0.56240 0.20666 0.06100
H 	H 	0.30270 0.57280 0.24910 0.01100
H 	H 	0.28200 0.51730 0.20320 0.00900
C 	C 	0.19690 0.55290 0.04635 0.05100
H 	H 	0.20440 0.50840 0.05360 0.01400
H 	H 	0.17470 0.55880 0.00320 0.03600
C 	C 	0.14330 0.48340 0.14110 -0.17500
H 	H 	0.18660 0.46540 0.13440 0.07700
H 	H 	0.14480 0.47270 0.18170 0.07500
C 	C 	0.07250 0.45530 0.09530 -0.05900
H 	H 	0.06590 0.41310 0.10770 0.04500
H 	H 	0.07930 0.45280 0.05600 0.04600
C 	C 	0.00330 0.49260 0.08930 -0.06500
H 	H 	0.98900 0.51520 0.05140 0.04900
H 	H 	0.96340 0.46410 0.08830 0.04900
C 	C 	0.01350 0.53920 0.14130 -0.17100
H 	H 	0.96720 0.56090 0.13630 0.07500
H 	H 	0.02740 0.51710 0.17950 0.07400
C 	C 	0.90210 0.70660 0.16000 -0.18000
H 	H 	0.86270 0.72080 0.12470 0.07800
H 	H 	0.90450 0.66140 0.15800 0.07800
C 	C 	0.88400 0.72530 0.21740 -0.05700
H 	H 	0.91400 0.70040 0.25100 0.03900
H 	H 	0.83240 0.71590 0.21150 0.03400
C 	C 	0.89780 0.79400 0.23300 -0.06000
H 	H 	0.85570 0.81110 0.24230 0.03500
H 	H 	0.94100 0.79800 0.26870 0.04500
C 	C 	0.91010 0.83160 0.18170 -0.17600
H 	H 	0.91790 0.87510 0.19340 0.07600
H 	H 	0.86640 0.82890 0.14620 0.07700
C 	C 	0.01170 0.00130 0.18180 -0.19100
H 	H 	0.96980 0.97560 0.18180 0.07900
H 	H 	0.03500 0.01680 0.22250 0.08000
C 	C 	0.98460 0.05640 0.13850 -0.04000
H 	H 	0.95580 0.04040 0.09910 0.06000
H 	H 	0.95200 0.08210 0.15300 0.02400
C 	C 	0.04740 0.09730 0.13160 -0.08800
H 	H 	0.04250 0.13920 0.14570 0.04900
H 	H 	0.04290 0.10010 0.08920 0.07900
C 	C 	0.12360 0.07197 0.16670 -0.15600
H 	H 	0.13230 0.07750 0.20960 0.07000
H 	H 	0.16100 0.09570 0.15610 0.07300
C 	C 	0.31770 0.08510 0.12350 -0.17400
H 	H 	0.30630 0.10200 0.08300 0.07700
H 	H 	0.28290 0.10260 0.14140 0.07800
C 	C 	0.39640 0.10380 0.16100 -0.06700
H 	H 	0.39990 0.14900 0.16310 0.04200
H 	H 	0.40700 0.08810 0.20180 0.04900
C 	C 	0.45460 0.07810 0.13430 -0.04800
H 	H 	0.49490 0.05940 0.16640 0.03900
H 	H 	0.47490 0.11240 0.11760 0.02500
C 	C 	0.42260 0.02940 0.08490 -0.18300
H 	H 	0.46290 0.00770 0.07650 0.07400
H 	H 	0.39330 0.05030 0.04820 0.07600
C 	C 	0.53260 0.86270 0.06490 -0.19000
H 	H 	0.57920 0.86020 0.09780 0.08000
H 	H 	0.52170 0.90650 0.05540 0.07700
C 	C 	0.54010 0.82920 0.00980 -0.03700
H 	H 	0.49400 0.83300 0.97670 0.01300
H 	H 	0.57870 0.84920 0.99760 0.02400
C 	C 	0.55920 0.75940 0.02220 -0.07000
H 	H 	0.61030 0.75260 0.02450 0.03700
H 	H 	0.52800 0.73480 0.98890 0.03200
C 	C 	0.54850 0.73690 0.08120 -0.17500
H 	H 	0.58980 0.75110 0.11510 0.07600
H 	H 	0.54850 0.69160 0.08180 0.07600
C 	C 	0.46150 0.56620 0.10290 -0.17300
H 	H 	0.50200 0.59310 0.10190 0.07600
H 	H 	0.44570 0.54230 0.06570 0.07500
C 	C 	0.48820 0.52180 0.15660 -0.06500
H 	H 	0.52540 0.49410 0.15050 0.05100
H 	H 	0.51140 0.54600 0.19280 0.05100
C 	C 	0.42550 0.48220 0.16610 -0.05700
H 	H 	0.42270 0.49040 0.20610 0.04700
H 	H 	0.43720 0.43830 0.16420 0.04800
C 	C 	0.35020 0.49570 0.11920 -0.17900
H 	H 	0.31210 0.47240 0.12910 0.07900
H 	H 	0.35060 0.48200 0.07980 0.07800
N 	N 	0.20521 0.58392 0.18508 -0.17700
N 	N 	0.10250 0.62044 0.19809 -0.18600
N 	N 	0.14540 0.57481 0.07578 -0.15700
N 	N 	0.05210 0.62894 0.08941 -0.15500
N 	N 	0.03760 0.71458 0.21112 -0.18400
N 	N 	0.04697 0.81795 0.21530 -0.17800
N 	N 	0.98930 0.72546 0.10178 -0.15800
N 	N 	0.98091 0.82907 0.10773 -0.15900
N 	N 	0.10706 0.91704 0.20836 -0.16800
N 	N 	0.19794 0.97447 0.19557 -0.16000
N 	N 	0.03408 0.93287 0.10386 -0.15500
N 	N 	0.12434 0.99150 0.09047 -0.15300
N 	N 	0.31611 0.98614 0.17842 -0.15800
N 	N 	0.41415 0.94834 0.15838 -0.15800
N 	N 	0.24351 0.99302 0.07255 -0.15900
N 	N 	0.33440 0.94029 0.05362 -0.16600
N 	N 	0.47459 0.85122 0.14580 -0.16100
N 	N 	0.46990 0.74727 0.14794 -0.15700
N 	N 	0.39745 0.84414 0.04041 -0.17800
N 	N 	0.41162 0.74103 0.03897 -0.18100
N 	N 	0.41881 0.64608 0.16111 -0.16000
N 	N 	0.32855 0.58876 0.17463 -0.16400
N 	N 	0.35948 0.64054 0.05239 -0.17100
N 	N 	0.26879 0.58354 0.06590 -0.16200
O 	O 	0.21549 0.64612 0.26784 -0.50700
O 	O 	0.13507 0.75934 0.28441 -0.52300
O 	O 	0.22812 0.89480 0.26460 -0.28700
O 	O 	0.39924 0.92491 0.24967 -0.24600
O 	O 	0.48190 0.80285 0.23530 -0.24200
O 	O 	0.38850 0.66042 0.24778 -0.28600
O 	O 	0.08019 0.64349 0.00150 -0.23200
O 	O 	0.99090 0.78638 0.02070 -0.22600
O 	O 	0.04955 0.93454 0.01004 -0.23200
O 	O 	0.21395 0.92513 0.99181 -0.25800
O 	O 	0.31212 0.78649 0.96578 -0.52400
O 	O 	0.24356 0.64478 0.98113 -0.27700
