data_crystal

_cell_length_a 18.92400
_cell_length_b 21.15400
_cell_length_c 23.16400
_cell_angle_alpha 90.00000
_cell_angle_beta  109.34300
_cell_angle_gamma 90.00000

_symmetry_space_group_name_	'P 1'
_symmetry_space_group_name_H-M	'P 1'

loop_
_symmetry_equiv_pos_as_xyz
  x,y,z

loop_
_atom_site_label
_atom_site_type_symbol
_atom_site_fract_x
_atom_site_fract_y
_atom_site_fract_z
_atom_site_charge
Gd	Gd	0.24290 0.28861 0.35325 1.20500
C 	C 	0.14500 0.44890 0.13310 0.11500
C 	C 	0.07280 0.41800 0.13920 0.11300
C 	C 	0.09000 0.38340 0.04860 0.27300
C 	C 	0.05520 0.35430 0.22770 0.09000
H 	H 	0.08130 0.35520 0.27150 -0.00900
H 	H 	0.01000 0.37930 0.21970 0.00100
C 	C 	0.98040 0.33900 0.06850 0.05100
H 	H 	0.96570 0.33120 0.02480 0.04200
H 	H 	0.94130 0.36420 0.07570 0.01500
C 	C 	0.07670 0.24040 0.23900 0.34200
C 	C 	0.97070 0.27090 0.15760 0.11800
C 	C 	0.97240 0.19630 0.16520 0.11600
C 	C 	0.98390 0.22340 0.07060 0.26900
C 	C 	0.06940 0.12560 0.24390 0.06700
H 	H 	0.10490 0.13360 0.28440 0.02900
H 	H 	0.02740 0.10270 0.24900 0.01100
C 	C 	0.96580 0.10930 0.08550 0.05200
H 	H 	0.94580 0.10940 0.04120 0.04000
H 	H 	0.92870 0.08980 0.10030 0.01600
C 	C 	0.17980 0.07960 0.22960 0.27500
C 	C 	0.06540 0.04080 0.16460 0.11300
C 	C 	0.13100 0.00020 0.15660 0.11400
C 	C 	0.06610 0.05030 0.06360 0.28700
C 	C 	0.27140 0.00370 0.21930 0.05400
H 	H 	0.26690 0.95820 0.22170 0.01200
H 	H 	0.29730 0.01910 0.26030 0.03900
C 	C 	0.16820 0.98070 0.06090 0.05200
H 	H 	0.17310 0.93610 0.07140 0.01800
H 	H 	0.14230 0.98370 0.01720 0.03900
C 	C 	0.37910 0.05370 0.20270 0.27600
C 	C 	0.30830 0.98700 0.12270 0.11400
C 	C 	0.37370 0.01800 0.10480 0.11400
C 	C 	0.25770 0.04970 0.03630 0.27300
C 	C 	0.48380 0.08690 0.16970 0.05900
H 	H 	0.51010 0.08960 0.21340 0.03300
H 	H 	0.51520 0.06300 0.15190 0.01100
C 	C 	0.36670 0.09340 0.01560 0.07400
H 	H 	0.33010 0.09770 0.97500 0.00300
H 	H 	0.40760 0.06790 0.01200 0.00100
C 	C 	0.47660 0.20130 0.17980 0.27600
C 	C 	0.46980 0.16590 0.08290 0.11600
C 	C 	0.47660 0.23980 0.08570 0.11200
C 	C 	0.36660 0.20970 0.00760 0.32300
C 	C 	0.48470 0.31580 0.17470 0.05500
H 	H 	0.50230 0.30990 0.21880 0.03800
H 	H 	0.52410 0.33680 0.16400 0.01300
C 	C 	0.39530 0.32410 0.01420 0.07200
H 	H 	0.36470 0.32400 0.97130 0.01000
H 	H 	0.44240 0.34450 0.01760 0.00700
C 	C 	0.37960 0.36640 0.19680 0.27700
C 	C 	0.39730 0.39590 0.10430 0.11500
C 	C 	0.33150 0.43660 0.11410 0.11600
C 	C 	0.28470 0.37610 0.02450 0.27400
C 	C 	0.28260 0.43920 0.20510 0.06300
H 	H 	0.28420 0.48490 0.20260 0.00900
H 	H 	0.30430 0.42770 0.24790 0.02300
C 	C 	0.19490 0.44920 0.04290 0.05300
H 	H 	0.17170 0.44280 0.99920 0.03700
H 	H 	0.20250 0.49430 0.04980 0.01400
C 	C 	0.14390 0.52070 0.13780 -0.18000
H 	H 	0.14620 0.53240 0.17890 0.07700
H 	H 	0.18780 0.53790 0.13080 0.07900
C 	C 	0.07400 0.54980 0.09210 -0.05400
H 	H 	0.07970 0.55070 0.05200 0.04400
H 	H 	0.06900 0.59310 0.10390 0.04600
C 	C 	0.00260 0.51320 0.08810 -0.06900
H 	H 	0.96380 0.54300 0.08840 0.05500
H 	H 	0.98540 0.49050 0.04960 0.05100
C 	C 	0.01390 0.46660 0.14010 -0.17300
H 	H 	0.96690 0.44550 0.13590 0.07700
H 	H 	0.02980 0.48900 0.17880 0.07600
C 	C 	0.89780 0.29940 0.15820 -0.18500
H 	H 	0.85770 0.28590 0.12190 0.08000
H 	H 	0.90120 0.34510 0.15700 0.08000
C 	C 	0.87930 0.27970 0.21550 -0.05500
H 	H 	0.91000 0.30420 0.25010 0.04000
H 	H 	0.82740 0.28970 0.20930 0.03400
C 	C 	0.89200 0.21020 0.23050 -0.05900
H 	H 	0.84880 0.19320 0.23890 0.03600
H 	H 	0.93510 0.20550 0.26730 0.04600
C 	C 	0.90490 0.17200 0.17900 -0.18200
H 	H 	0.91240 0.12790 0.19090 0.07900
H 	H 	0.86110 0.17500 0.14260 0.08000
C 	C 	0.00910 0.00130 0.18220 -0.17000
H 	H 	0.96630 0.02730 0.18090 0.07400
H 	H 	0.03170 0.98590 0.22360 0.07300
C 	C 	0.98310 0.94540 0.13840 -0.05900
H 	H 	0.95560 0.96130 0.09790 0.07000
H 	H 	0.94910 0.91960 0.15180 0.03700
C 	C 	0.04870 0.90360 0.13470 -0.07400
H 	H 	0.04380 0.86160 0.14970 0.04800
H 	H 	0.04580 0.89970 0.09220 0.07500
C 	C 	0.12470 0.93060 0.17160 -0.17000
H 	H 	0.16370 0.90670 0.16270 0.07700
H 	H 	0.13210 0.92620 0.21480 0.07500
C 	C 	0.31690 0.91540 0.12910 -0.18100
H 	H 	0.28260 0.89900 0.14860 0.08000
H 	H 	0.30450 0.89640 0.08890 0.08100
C 	C 	0.39700 0.89820 0.16720 -0.05900
H 	H 	0.40080 0.85270 0.17220 0.04400
H 	H 	0.40880 0.91690 0.20750 0.04700
C 	C 	0.45420 0.92090 0.13790 -0.05800
H 	H 	0.49660 0.93960 0.16920 0.04700
H 	H 	0.47230 0.88480 0.12100 0.03900
C 	C 	0.42100 0.96940 0.08720 -0.18000
H 	H 	0.46130 0.99060 0.07780 0.07600
H 	H 	0.39050 0.94760 0.05050 0.07600
C 	C 	0.53150 0.13540 0.06310 -0.18700
H 	H 	0.57890 0.13830 0.09620 0.08000
H 	H 	0.52010 0.09100 0.05430 0.07800
C 	C 	0.53800 0.16810 0.00670 -0.04600
H 	H 	0.49100 0.16380 0.97330 0.03100
H 	H 	0.57670 0.14760 0.99460 0.02900
C 	C 	0.55710 0.23910 0.01830 -0.06600
H 	H 	0.60830 0.24600 0.01970 0.03800
H 	H 	0.52450 0.26350 0.98450 0.04200
C 	C 	0.54850 0.26260 0.07770 -0.17600
H 	H 	0.59070 0.24800 0.11190 0.07700
H 	H 	0.54930 0.30850 0.07800 0.07700
C 	C 	0.46020 0.43680 0.09880 -0.17900
H 	H 	0.44270 0.46100 0.06120 0.07900
H 	H 	0.50120 0.41010 0.09710 0.07800
C 	C 	0.48820 0.48200 0.15340 -0.06400
H 	H 	0.51320 0.45770 0.19000 0.05100
H 	H 	0.52470 0.51070 0.14660 0.05400
C 	C 	0.42530 0.52040 0.16360 -0.05600
H 	H 	0.42320 0.51110 0.20400 0.04800
H 	H 	0.43640 0.56500 0.16230 0.05200
C 	C 	0.34960 0.50690 0.11650 -0.18100
H 	H 	0.34940 0.52080 0.07660 0.08100
H 	H 	0.31130 0.53040 0.12680 0.07900
O 	O 	0.21590 0.35790 0.26810 -0.40400
O 	O 	0.13550 0.24460 0.28140 -0.41000
O 	O 	0.22560 0.11190 0.26770 -0.24900
O 	O 	0.40160 0.08030 0.25180 -0.23600
O 	O 	0.48490 0.20040 0.23420 -0.23200
O 	O 	0.39040 0.34040 0.24590 -0.25500
O 	O 	0.07710 0.35700 0.99940 -0.23000
O 	O 	0.98790 0.21700 0.01910 -0.22400
O 	O 	0.04710 0.06570 0.01010 -0.23400
O 	O 	0.21010 0.07370 0.99150 -0.24500
O 	O 	0.31020 0.21330 0.96150 -0.40600
O 	O 	0.23950 0.35620 0.97670 -0.24500
N 	N 	0.20500 0.41920 0.18340 -0.17400
N 	N 	0.10240 0.38350 0.19710 -0.18700
N 	N 	0.14370 0.42740 0.07350 -0.16000
N 	N 	0.04930 0.37530 0.08700 -0.15800
N 	N 	0.03410 0.29020 0.20970 -0.18400
N 	N 	0.04240 0.18600 0.21480 -0.17600
N 	N 	0.98460 0.27880 0.09960 -0.16200
N 	N 	0.97650 0.17410 0.10670 -0.16000
N 	N 	0.10430 0.08670 0.21120 -0.16500
N 	N 	0.19740 0.03080 0.19800 -0.16000
N 	N 	0.03310 0.07080 0.10460 -0.15600
N 	N 	0.12240 0.01040 0.09250 -0.15800
N 	N 	0.31620 0.01790 0.18100 -0.15900
N 	N 	0.41490 0.05220 0.16010 -0.16000
N 	N 	0.24230 0.00700 0.07410 -0.16200
N 	N 	0.33210 0.06040 0.05420 -0.16500
N 	N 	0.47490 0.14950 0.14470 -0.16500
N 	N 	0.47170 0.25420 0.14570 -0.16100
N 	N 	0.39560 0.15620 0.03790 -0.17700
N 	N 	0.40990 0.25940 0.03510 -0.17500
N 	N 	0.42010 0.35610 0.15840 -0.16000
N 	N 	0.32830 0.41270 0.17210 -0.16300
N 	N 	0.35770 0.36050 0.04830 -0.16600
N 	N 	0.26700 0.41840 0.06240 -0.16100
C 	C 	0.17690 0.38420 0.21990 0.32400
Gd	Gd	0.24290 0.21139 0.85325 1.20400
C 	C 	0.14500 0.05110 0.63310 0.11700
C 	C 	0.07280 0.08200 0.63920 0.10800
C 	C 	0.09000 0.11660 0.54860 0.27300
C 	C 	0.05520 0.14570 0.72770 0.08900
H 	H 	0.08130 0.14480 0.77150 -0.01000
H 	H 	0.01000 0.12070 0.71970 0.00100
C 	C 	0.98040 0.16100 0.56850 0.04900
H 	H 	0.96570 0.16880 0.52480 0.04100
H 	H 	0.94130 0.13580 0.57570 0.01500
C 	C 	0.07670 0.25960 0.73900 0.34100
C 	C 	0.97070 0.22910 0.65760 0.11700
C 	C 	0.97240 0.30370 0.66520 0.11500
C 	C 	0.98390 0.27660 0.57060 0.26800
C 	C 	0.06940 0.37440 0.74390 0.06600
H 	H 	0.10490 0.36640 0.78440 0.02800
H 	H 	0.02740 0.39730 0.74900 0.01000
C 	C 	0.96580 0.39070 0.58550 0.05200
H 	H 	0.94580 0.39060 0.54120 0.04000
H 	H 	0.92870 0.41020 0.60030 0.01600
C 	C 	0.17980 0.42040 0.72960 0.27500
C 	C 	0.06540 0.45920 0.66460 0.11600
C 	C 	0.13100 0.49980 0.65660 0.11200
C 	C 	0.06610 0.44970 0.56360 0.28700
C 	C 	0.27140 0.49630 0.71930 0.05200
H 	H 	0.26690 0.54180 0.72170 0.01300
H 	H 	0.29730 0.48090 0.76030 0.03900
C 	C 	0.16820 0.51930 0.56090 0.05500
H 	H 	0.17310 0.56390 0.57140 0.01800
H 	H 	0.14230 0.51630 0.51720 0.03900
C 	C 	0.37910 0.44630 0.70270 0.27600
C 	C 	0.30830 0.51300 0.62270 0.11600
C 	C 	0.37370 0.48200 0.60480 0.11300
C 	C 	0.25770 0.45030 0.53630 0.27300
C 	C 	0.48380 0.41310 0.66970 0.05900
H 	H 	0.51010 0.41040 0.71340 0.03300
H 	H 	0.51520 0.43700 0.65190 0.01100
C 	C 	0.36670 0.40660 0.51560 0.07400
H 	H 	0.33010 0.40230 0.47500 0.00300
H 	H 	0.40760 0.43210 0.51200 0.00100
C 	C 	0.47660 0.29870 0.67980 0.27600
C 	C 	0.46980 0.33410 0.58290 0.11600
C 	C 	0.47660 0.26020 0.58570 0.11200
C 	C 	0.36660 0.29030 0.50760 0.32300
C 	C 	0.48470 0.18420 0.67470 0.05500
H 	H 	0.50230 0.19010 0.71880 0.03800
H 	H 	0.52410 0.16320 0.66400 0.01300
C 	C 	0.39530 0.17590 0.51420 0.07200
H 	H 	0.36470 0.17600 0.47130 0.01000
H 	H 	0.44240 0.15550 0.51760 0.00700
C 	C 	0.37960 0.13360 0.69680 0.27700
C 	C 	0.39730 0.10410 0.60430 0.11500
C 	C 	0.33150 0.06340 0.61410 0.11600
C 	C 	0.28470 0.12390 0.52450 0.27400
C 	C 	0.28260 0.06080 0.70510 0.06300
H 	H 	0.28420 0.01510 0.70260 0.01000
H 	H 	0.30430 0.07230 0.74790 0.02300
C 	C 	0.19490 0.05080 0.54290 0.05300
H 	H 	0.17170 0.05720 0.49920 0.03700
H 	H 	0.20250 0.00570 0.54980 0.01500
C 	C 	0.14390 0.97930 0.63780 -0.18800
H 	H 	0.14620 0.96760 0.67890 0.07900
H 	H 	0.18780 0.96210 0.63080 0.08100
C 	C 	0.07400 0.95020 0.59210 -0.04400
H 	H 	0.07970 0.94930 0.55200 0.04100
H 	H 	0.06900 0.90690 0.60390 0.04300
C 	C 	0.00260 0.98680 0.58810 -0.08400
H 	H 	0.96380 0.95700 0.58840 0.06100
H 	H 	0.98540 0.00950 0.54960 0.05500
C 	C 	0.01390 0.03340 0.64010 -0.15800
H 	H 	0.96690 0.05450 0.63590 0.07100
H 	H 	0.02980 0.01100 0.67880 0.07200
C 	C 	0.89780 0.20060 0.65820 -0.18500
H 	H 	0.85770 0.21410 0.62190 0.08000
H 	H 	0.90120 0.15490 0.65700 0.08000
C 	C 	0.87930 0.22030 0.71550 -0.05500
H 	H 	0.91000 0.19580 0.75010 0.04000
H 	H 	0.82740 0.21030 0.70930 0.03400
C 	C 	0.89200 0.28980 0.73050 -0.05900
H 	H 	0.84880 0.30680 0.73890 0.03600
H 	H 	0.93510 0.29450 0.76730 0.04600
C 	C 	0.90490 0.32800 0.67900 -0.18300
H 	H 	0.91240 0.37210 0.69090 0.07900
H 	H 	0.86110 0.32500 0.64260 0.08000
C 	C 	0.00910 0.49870 0.68220 -0.18000
H 	H 	0.96630 0.47270 0.68090 0.07800
H 	H 	0.03170 0.51410 0.72360 0.07800
C 	C 	0.98310 0.55460 0.63840 -0.05500
H 	H 	0.95560 0.53870 0.59790 0.06800
H 	H 	0.94910 0.58040 0.65180 0.03500
C 	C 	0.04870 0.59640 0.63470 -0.07600
H 	H 	0.04380 0.63840 0.64970 0.04900
H 	H 	0.04580 0.60030 0.59220 0.07600
C 	C 	0.12470 0.56940 0.67160 -0.16600
H 	H 	0.16370 0.59330 0.66270 0.07600
H 	H 	0.13210 0.57380 0.71480 0.07400
C 	C 	0.31690 0.58460 0.62910 -0.18200
H 	H 	0.28260 0.60100 0.64860 0.08100
H 	H 	0.30450 0.60360 0.58890 0.08100
C 	C 	0.39700 0.60180 0.66720 -0.05700
H 	H 	0.40080 0.64730 0.67220 0.04400
H 	H 	0.40880 0.58310 0.70750 0.04700
C 	C 	0.45420 0.57910 0.63790 -0.05900
H 	H 	0.49660 0.56040 0.66920 0.04800
H 	H 	0.47230 0.61520 0.62100 0.03900
C 	C 	0.42100 0.53060 0.58720 -0.17800
H 	H 	0.46130 0.50940 0.57780 0.07600
H 	H 	0.39050 0.55240 0.55050 0.07600
C 	C 	0.53150 0.36460 0.56310 -0.18700
H 	H 	0.57890 0.36170 0.59620 0.08000
H 	H 	0.52010 0.40900 0.55430 0.07800
C 	C 	0.53800 0.33190 0.50670 -0.04600
H 	H 	0.49100 0.33620 0.47330 0.03100
H 	H 	0.57670 0.35240 0.49460 0.02900
C 	C 	0.55710 0.26090 0.51830 -0.06600
H 	H 	0.60830 0.25400 0.51970 0.03800
H 	H 	0.52450 0.23650 0.48450 0.04200
C 	C 	0.54850 0.23740 0.57770 -0.17600
H 	H 	0.59070 0.25200 0.61190 0.07700
H 	H 	0.54930 0.19150 0.57800 0.07700
C 	C 	0.46020 0.06320 0.59880 -0.17800
H 	H 	0.44270 0.03900 0.56120 0.08000
H 	H 	0.50120 0.08990 0.59710 0.07800
C 	C 	0.48820 0.01800 0.65340 -0.06400
H 	H 	0.51320 0.04230 0.69000 0.05100
H 	H 	0.52470 0.98930 0.64660 0.05400
C 	C 	0.42530 0.97960 0.66360 -0.05500
H 	H 	0.42320 0.98890 0.70400 0.04800
H 	H 	0.43640 0.93500 0.66230 0.05100
C 	C 	0.34960 0.99310 0.61650 -0.18200
H 	H 	0.34940 0.97920 0.57660 0.08100
H 	H 	0.31130 0.96960 0.62680 0.07900
O 	O 	0.21590 0.14210 0.76810 -0.40400
O 	O 	0.13550 0.25540 0.78140 -0.41000
O 	O 	0.22560 0.38810 0.76770 -0.24900
O 	O 	0.40160 0.41970 0.75180 -0.23600
O 	O 	0.48490 0.29960 0.73420 -0.23200
O 	O 	0.39040 0.15960 0.74590 -0.25500
O 	O 	0.07710 0.14300 0.49940 -0.23000
O 	O 	0.98790 0.28300 0.51910 -0.22400
O 	O 	0.04710 0.43430 0.51010 -0.23400
O 	O 	0.21010 0.42630 0.49150 -0.24500
O 	O 	0.31020 0.28670 0.46150 -0.40600
O 	O 	0.23950 0.14380 0.47670 -0.24600
N 	N 	0.20500 0.08080 0.68340 -0.17400
N 	N 	0.10240 0.11650 0.69710 -0.18700
N 	N 	0.14370 0.07260 0.57350 -0.16100
N 	N 	0.04930 0.12470 0.58700 -0.15600
N 	N 	0.03410 0.20980 0.70970 -0.18400
N 	N 	0.04240 0.31400 0.71480 -0.17700
N 	N 	0.98460 0.22120 0.59960 -0.16200
N 	N 	0.97650 0.32590 0.60670 -0.16000
N 	N 	0.10430 0.41330 0.71120 -0.16600
N 	N 	0.19740 0.46920 0.69800 -0.16000
N 	N 	0.03310 0.42920 0.60460 -0.15700
N 	N 	0.12240 0.48960 0.59250 -0.15900
N 	N 	0.31620 0.48210 0.68100 -0.15900
N 	N 	0.41490 0.44780 0.66010 -0.16000
N 	N 	0.24230 0.49300 0.57410 -0.16400
N 	N 	0.33210 0.43960 0.55420 -0.16500
N 	N 	0.47490 0.35050 0.64470 -0.16500
N 	N 	0.47170 0.24580 0.64570 -0.16100
N 	N 	0.39560 0.34380 0.53790 -0.17700
N 	N 	0.40990 0.24060 0.53510 -0.17500
N 	N 	0.42010 0.14390 0.65840 -0.16000
N 	N 	0.32830 0.08730 0.67210 -0.16300
N 	N 	0.35770 0.13950 0.54830 -0.16600
N 	N 	0.26700 0.08160 0.56240 -0.16100
C 	C 	0.17690 0.11580 0.71990 0.32400
Gd	Gd	0.75710 0.78861 0.14675 1.20400
C 	C 	0.85500 0.94890 0.36690 0.11700
C 	C 	0.92720 0.91800 0.36080 0.10800
C 	C 	0.91000 0.88340 0.45140 0.27300
C 	C 	0.94480 0.85430 0.27230 0.08900
H 	H 	0.91870 0.85520 0.22850 -0.01000
H 	H 	0.99000 0.87930 0.28030 0.00100
C 	C 	0.01960 0.83900 0.43150 0.04900
H 	H 	0.03430 0.83120 0.47520 0.04100
H 	H 	0.05870 0.86420 0.42430 0.01500
C 	C 	0.92330 0.74040 0.26100 0.34100
C 	C 	0.02930 0.77090 0.34240 0.11700
C 	C 	0.02760 0.69630 0.33480 0.11500
C 	C 	0.01610 0.72340 0.42940 0.26800
C 	C 	0.93060 0.62560 0.25610 0.06600
H 	H 	0.89510 0.63360 0.21560 0.02800
H 	H 	0.97260 0.60270 0.25100 0.01000
C 	C 	0.03420 0.60930 0.41450 0.05200
H 	H 	0.05420 0.60940 0.45880 0.04000
H 	H 	0.07130 0.58980 0.39970 0.01600
C 	C 	0.82020 0.57960 0.27040 0.27500
C 	C 	0.93460 0.54080 0.33540 0.11600
C 	C 	0.86900 0.50020 0.34340 0.11200
C 	C 	0.93390 0.55030 0.43640 0.28700
C 	C 	0.72860 0.50370 0.28070 0.05200
H 	H 	0.73310 0.45820 0.27830 0.01300
H 	H 	0.70270 0.51910 0.23970 0.03900
C 	C 	0.83180 0.48070 0.43910 0.05500
H 	H 	0.82690 0.43610 0.42860 0.01800
H 	H 	0.85770 0.48370 0.48280 0.03900
C 	C 	0.62090 0.55370 0.29730 0.27600
C 	C 	0.69170 0.48700 0.37730 0.11600
C 	C 	0.62630 0.51800 0.39520 0.11300
C 	C 	0.74230 0.54970 0.46370 0.27300
C 	C 	0.51620 0.58690 0.33030 0.05900
H 	H 	0.48990 0.58960 0.28660 0.03300
H 	H 	0.48480 0.56300 0.34810 0.01100
C 	C 	0.63330 0.59340 0.48440 0.07400
H 	H 	0.66990 0.59770 0.52500 0.00300
H 	H 	0.59240 0.56790 0.48800 0.00100
C 	C 	0.52340 0.70130 0.32020 0.27600
C 	C 	0.53020 0.66590 0.41710 0.11600
C 	C 	0.52340 0.73980 0.41430 0.11200
C 	C 	0.63340 0.70970 0.49240 0.32300
C 	C 	0.51530 0.81580 0.32530 0.05500
H 	H 	0.49770 0.80990 0.28120 0.03800
H 	H 	0.47590 0.83680 0.33600 0.01300
C 	C 	0.60470 0.82410 0.48580 0.07200
H 	H 	0.63530 0.82400 0.52870 0.01000
H 	H 	0.55760 0.84450 0.48240 0.00700
C 	C 	0.62040 0.86640 0.30320 0.27700
C 	C 	0.60270 0.89590 0.39570 0.11500
C 	C 	0.66850 0.93660 0.38590 0.11600
C 	C 	0.71530 0.87610 0.47550 0.27400
C 	C 	0.71740 0.93920 0.29490 0.06300
H 	H 	0.71580 0.98490 0.29740 0.01000
H 	H 	0.69570 0.92770 0.25210 0.02300
C 	C 	0.80510 0.94920 0.45710 0.05300
H 	H 	0.82830 0.94280 0.50080 0.03700
H 	H 	0.79750 0.99430 0.45020 0.01500
C 	C 	0.85610 0.02070 0.36220 -0.18800
H 	H 	0.85380 0.03240 0.32110 0.07900
H 	H 	0.81220 0.03790 0.36920 0.08100
C 	C 	0.92600 0.04980 0.40790 -0.04400
H 	H 	0.92030 0.05070 0.44800 0.04100
H 	H 	0.93100 0.09310 0.39610 0.04300
C 	C 	0.99740 0.01320 0.41190 -0.08400
H 	H 	0.03620 0.04300 0.41160 0.06100
H 	H 	0.01460 0.99050 0.45040 0.05500
C 	C 	0.98610 0.96660 0.35990 -0.15800
H 	H 	0.03310 0.94550 0.36410 0.07100
H 	H 	0.97020 0.98900 0.32120 0.07200
C 	C 	0.10220 0.79940 0.34180 -0.18500
H 	H 	0.14230 0.78590 0.37810 0.08000
H 	H 	0.09880 0.84510 0.34300 0.08000
C 	C 	0.12070 0.77970 0.28450 -0.05500
H 	H 	0.09000 0.80420 0.24990 0.04000
H 	H 	0.17260 0.78970 0.29070 0.03400
C 	C 	0.10800 0.71020 0.26950 -0.05900
H 	H 	0.15120 0.69320 0.26110 0.03600
H 	H 	0.06490 0.70550 0.23270 0.04600
C 	C 	0.09510 0.67200 0.32100 -0.18300
H 	H 	0.08760 0.62790 0.30910 0.07900
H 	H 	0.13890 0.67500 0.35740 0.08000
C 	C 	0.99090 0.50130 0.31780 -0.18000
H 	H 	0.03370 0.52730 0.31910 0.07800
H 	H 	0.96830 0.48590 0.27640 0.07800
C 	C 	0.01690 0.44540 0.36160 -0.05500
H 	H 	0.04440 0.46130 0.40210 0.06800
H 	H 	0.05090 0.41960 0.34820 0.03500
C 	C 	0.95130 0.40360 0.36530 -0.07600
H 	H 	0.95620 0.36160 0.35030 0.04900
H 	H 	0.95420 0.39970 0.40780 0.07600
C 	C 	0.87530 0.43060 0.32840 -0.16600
H 	H 	0.83630 0.40670 0.33730 0.07600
H 	H 	0.86790 0.42620 0.28520 0.07400
C 	C 	0.68310 0.41540 0.37090 -0.18200
H 	H 	0.71740 0.39900 0.35140 0.08100
H 	H 	0.69550 0.39640 0.41110 0.08100
C 	C 	0.60300 0.39820 0.33280 -0.05700
H 	H 	0.59920 0.35270 0.32780 0.04400
H 	H 	0.59120 0.41690 0.29250 0.04700
C 	C 	0.54580 0.42090 0.36210 -0.05900
H 	H 	0.50340 0.43960 0.33080 0.04800
H 	H 	0.52770 0.38480 0.37900 0.03900
C 	C 	0.57900 0.46940 0.41280 -0.17800
H 	H 	0.53870 0.49060 0.42220 0.07600
H 	H 	0.60950 0.44760 0.44950 0.07600
C 	C 	0.46850 0.63540 0.43690 -0.18700
H 	H 	0.42110 0.63830 0.40380 0.08000
H 	H 	0.47990 0.59100 0.44570 0.07800
C 	C 	0.46200 0.66810 0.49330 -0.04600
H 	H 	0.50900 0.66380 0.52670 0.03100
H 	H 	0.42330 0.64760 0.50540 0.02900
C 	C 	0.44290 0.73910 0.48170 -0.06600
H 	H 	0.39170 0.74600 0.48030 0.03800
H 	H 	0.47550 0.76350 0.51550 0.04200
C 	C 	0.45150 0.76260 0.42230 -0.17600
H 	H 	0.40930 0.74800 0.38810 0.07700
H 	H 	0.45070 0.80850 0.42200 0.07700
C 	C 	0.53980 0.93680 0.40120 -0.17800
H 	H 	0.55730 0.96100 0.43880 0.08000
H 	H 	0.49880 0.91010 0.40290 0.07800
C 	C 	0.51180 0.98200 0.34660 -0.06400
H 	H 	0.48680 0.95770 0.31000 0.05100
H 	H 	0.47530 0.01070 0.35340 0.05400
C 	C 	0.57470 0.02040 0.33640 -0.05500
H 	H 	0.57680 0.01110 0.29600 0.04800
H 	H 	0.56360 0.06500 0.33770 0.05100
C 	C 	0.65040 0.00690 0.38350 -0.18200
H 	H 	0.65060 0.02080 0.42340 0.08100
H 	H 	0.68870 0.03040 0.37320 0.07900
O 	O 	0.78410 0.85790 0.23190 -0.40400
O 	O 	0.86450 0.74460 0.21860 -0.41000
O 	O 	0.77440 0.61190 0.23230 -0.24900
O 	O 	0.59840 0.58030 0.24820 -0.23600
O 	O 	0.51510 0.70040 0.26580 -0.23200
O 	O 	0.60960 0.84040 0.25410 -0.25500
O 	O 	0.92290 0.85700 0.50060 -0.23000
O 	O 	0.01210 0.71700 0.48090 -0.22400
O 	O 	0.95290 0.56570 0.48990 -0.23400
O 	O 	0.78990 0.57370 0.50850 -0.24500
O 	O 	0.68980 0.71330 0.53850 -0.40600
O 	O 	0.76050 0.85620 0.52330 -0.24600
N 	N 	0.79500 0.91920 0.31660 -0.17400
N 	N 	0.89760 0.88350 0.30290 -0.18700
N 	N 	0.85630 0.92740 0.42650 -0.16100
N 	N 	0.95070 0.87530 0.41300 -0.15600
N 	N 	0.96590 0.79020 0.29030 -0.18400
N 	N 	0.95760 0.68600 0.28520 -0.17700
N 	N 	0.01540 0.77880 0.40040 -0.16200
N 	N 	0.02350 0.67410 0.39330 -0.16000
N 	N 	0.89570 0.58670 0.28880 -0.16600
N 	N 	0.80260 0.53080 0.30200 -0.16000
N 	N 	0.96690 0.57080 0.39540 -0.15700
N 	N 	0.87760 0.51040 0.40750 -0.15900
N 	N 	0.68380 0.51790 0.31900 -0.15900
N 	N 	0.58510 0.55220 0.33990 -0.16000
N 	N 	0.75770 0.50700 0.42590 -0.16400
N 	N 	0.66790 0.56040 0.44580 -0.16500
N 	N 	0.52510 0.64950 0.35530 -0.16500
N 	N 	0.52830 0.75420 0.35430 -0.16100
N 	N 	0.60440 0.65620 0.46210 -0.17700
N 	N 	0.59010 0.75940 0.46490 -0.17500
N 	N 	0.57990 0.85610 0.34160 -0.16000
N 	N 	0.67170 0.91270 0.32790 -0.16300
N 	N 	0.64230 0.86050 0.45170 -0.16600
N 	N 	0.73300 0.91840 0.43760 -0.16100
C 	C 	0.82310 0.88420 0.28010 0.32400
Gd	Gd	0.75710 0.71139 0.64675 1.20400
C 	C 	0.85500 0.55110 0.86690 0.11400
C 	C 	0.92720 0.58200 0.86080 0.11200
C 	C 	0.91000 0.61660 0.95140 0.27200
C 	C 	0.94480 0.64570 0.77230 0.08900
H 	H 	0.91870 0.64480 0.72850 -0.01000
H 	H 	0.99000 0.62070 0.78030 0.00000
C 	C 	0.01960 0.66100 0.93150 0.05000
H 	H 	0.03430 0.66880 0.97520 0.04100
H 	H 	0.05870 0.63580 0.92430 0.01400
C 	C 	0.92330 0.75960 0.76100 0.34100
C 	C 	0.02930 0.72910 0.84240 0.11700
C 	C 	0.02760 0.80370 0.83480 0.11500
C 	C 	0.01610 0.77660 0.92940 0.26800
C 	C 	0.93060 0.87440 0.75610 0.06600
H 	H 	0.89510 0.86640 0.71560 0.02800
H 	H 	0.97260 0.89730 0.75100 0.01000
C 	C 	0.03420 0.89070 0.91450 0.05100
H 	H 	0.05420 0.89060 0.95880 0.04000
H 	H 	0.07130 0.91020 0.89970 0.01600
C 	C 	0.82020 0.92040 0.77040 0.27500
C 	C 	0.93460 0.95920 0.83540 0.11300
C 	C 	0.86900 0.99980 0.84340 0.11400
C 	C 	0.93390 0.94970 0.93640 0.28700
C 	C 	0.72860 0.99630 0.78070 0.05400
H 	H 	0.73310 0.04180 0.77830 0.01200
H 	H 	0.70270 0.98090 0.73970 0.03900
C 	C 	0.83180 0.01930 0.93910 0.05200
H 	H 	0.82690 0.06390 0.92860 0.01800
H 	H 	0.85770 0.01630 0.98280 0.03900
C 	C 	0.62090 0.94630 0.79730 0.27600
C 	C 	0.69170 0.01300 0.87730 0.11400
C 	C 	0.62630 0.98200 0.89520 0.11400
C 	C 	0.74230 0.95030 0.96370 0.27300
C 	C 	0.51620 0.91310 0.83030 0.05900
H 	H 	0.48990 0.91040 0.78660 0.03300
H 	H 	0.48480 0.93700 0.84810 0.01100
C 	C 	0.63330 0.90660 0.98440 0.07400
H 	H 	0.66990 0.90230 0.02500 0.00300
H 	H 	0.59240 0.93210 0.98800 0.00100
C 	C 	0.52340 0.79870 0.82020 0.27600
C 	C 	0.53020 0.83410 0.91710 0.11600
C 	C 	0.52340 0.76020 0.91430 0.11200
C 	C 	0.63340 0.79030 0.99240 0.32300
C 	C 	0.51530 0.68420 0.82530 0.05500
H 	H 	0.49770 0.69010 0.78120 0.03800
H 	H 	0.47590 0.66320 0.83600 0.01300
C 	C 	0.60470 0.67590 0.98580 0.07200
H 	H 	0.63530 0.67600 0.02870 0.01000
H 	H 	0.55760 0.65550 0.98240 0.00700
C 	C 	0.62040 0.63360 0.80320 0.27700
C 	C 	0.60270 0.60410 0.89570 0.11500
C 	C 	0.66850 0.56340 0.88590 0.11600
C 	C 	0.71530 0.62390 0.97550 0.27400
C 	C 	0.71740 0.56080 0.79490 0.06300
H 	H 	0.71580 0.51510 0.79740 0.00900
H 	H 	0.69570 0.57230 0.75210 0.02300
C 	C 	0.80510 0.55080 0.95710 0.05300
H 	H 	0.82830 0.55720 0.00080 0.03700
H 	H 	0.79750 0.50570 0.95020 0.01400
C 	C 	0.85610 0.47930 0.86220 -0.18000
H 	H 	0.85380 0.46760 0.82110 0.07700
H 	H 	0.81220 0.46210 0.86920 0.07900
C 	C 	0.92600 0.45020 0.90790 -0.05400
H 	H 	0.92030 0.44930 0.94800 0.04400
H 	H 	0.93100 0.40690 0.89610 0.04600
C 	C 	0.99740 0.48680 0.91190 -0.06900
H 	H 	0.03620 0.45700 0.91160 0.05500
H 	H 	0.01460 0.50950 0.95040 0.05100
C 	C 	0.98610 0.53340 0.85990 -0.17300
H 	H 	0.03310 0.55450 0.86410 0.07700
H 	H 	0.97020 0.51100 0.82120 0.07600
C 	C 	0.10220 0.70060 0.84180 -0.18500
H 	H 	0.14230 0.71410 0.87810 0.08000
H 	H 	0.09880 0.65490 0.84300 0.08000
C 	C 	0.12070 0.72030 0.78450 -0.05500
H 	H 	0.09000 0.69580 0.74990 0.04000
H 	H 	0.17260 0.71030 0.79070 0.03400
C 	C 	0.10800 0.78980 0.76950 -0.05900
H 	H 	0.15120 0.80680 0.76110 0.03600
H 	H 	0.06490 0.79450 0.73270 0.04600
C 	C 	0.09510 0.82800 0.82100 -0.18200
H 	H 	0.08760 0.87210 0.80910 0.07900
H 	H 	0.13890 0.82500 0.85740 0.08000
C 	C 	0.99090 0.99870 0.81780 -0.17000
H 	H 	0.03370 0.97270 0.81910 0.07400
H 	H 	0.96830 0.01410 0.77640 0.07300
C 	C 	0.01690 0.05460 0.86160 -0.05900
H 	H 	0.04440 0.03870 0.90210 0.07000
H 	H 	0.05090 0.08040 0.84820 0.03700
C 	C 	0.95130 0.09640 0.86530 -0.07400
H 	H 	0.95620 0.13840 0.85030 0.04800
H 	H 	0.95420 0.10030 0.90780 0.07500
C 	C 	0.87530 0.06940 0.82840 -0.17000
H 	H 	0.83630 0.09330 0.83730 0.07700
H 	H 	0.86790 0.07380 0.78520 0.07500
C 	C 	0.68310 0.08460 0.87090 -0.18100
H 	H 	0.71740 0.10100 0.85140 0.08000
H 	H 	0.69550 0.10360 0.91110 0.08100
C 	C 	0.60300 0.10180 0.83280 -0.05900
H 	H 	0.59920 0.14730 0.82780 0.04400
H 	H 	0.59120 0.08310 0.79250 0.04700
C 	C 	0.54580 0.07910 0.86210 -0.05800
H 	H 	0.50340 0.06040 0.83080 0.04700
H 	H 	0.52770 0.11520 0.87900 0.03900
C 	C 	0.57900 0.03060 0.91280 -0.18000
H 	H 	0.53870 0.00940 0.92220 0.07600
H 	H 	0.60950 0.05240 0.94950 0.07600
C 	C 	0.46850 0.86460 0.93690 -0.18700
H 	H 	0.42110 0.86170 0.90380 0.08000
H 	H 	0.47990 0.90900 0.94570 0.07800
C 	C 	0.46200 0.83190 0.99330 -0.04600
H 	H 	0.50900 0.83620 0.02670 0.03100
H 	H 	0.42330 0.85240 0.00540 0.02900
C 	C 	0.44290 0.76090 0.98170 -0.06600
H 	H 	0.39170 0.75400 0.98030 0.03800
H 	H 	0.47550 0.73650 0.01550 0.04200
C 	C 	0.45150 0.73740 0.92230 -0.17600
H 	H 	0.40930 0.75200 0.88810 0.07700
H 	H 	0.45070 0.69150 0.92200 0.07700
C 	C 	0.53980 0.56320 0.90120 -0.17900
H 	H 	0.55730 0.53900 0.93880 0.07900
H 	H 	0.49880 0.58990 0.90290 0.07800
C 	C 	0.51180 0.51800 0.84660 -0.06400
H 	H 	0.48680 0.54230 0.81000 0.05100
H 	H 	0.47530 0.48930 0.85340 0.05400
C 	C 	0.57470 0.47960 0.83640 -0.05600
H 	H 	0.57680 0.48890 0.79600 0.04800
H 	H 	0.56360 0.43500 0.83770 0.05200
C 	C 	0.65040 0.49310 0.88350 -0.18100
H 	H 	0.65060 0.47920 0.92340 0.08100
H 	H 	0.68870 0.46960 0.87320 0.07900
O 	O 	0.78410 0.64210 0.73190 -0.40400
O 	O 	0.86450 0.75540 0.71860 -0.41000
O 	O 	0.77440 0.88810 0.73230 -0.24900
O 	O 	0.59840 0.91970 0.74820 -0.23600
O 	O 	0.51510 0.79960 0.76580 -0.23200
O 	O 	0.60960 0.65960 0.75410 -0.25500
O 	O 	0.92290 0.64300 0.00060 -0.23000
O 	O 	0.01210 0.78300 0.98090 -0.22400
O 	O 	0.95290 0.93430 0.98990 -0.23400
O 	O 	0.78990 0.92630 0.00850 -0.24500
O 	O 	0.68980 0.78670 0.03850 -0.40600
O 	O 	0.76050 0.64380 0.02330 -0.24500
N 	N 	0.79500 0.58080 0.81660 -0.17400
N 	N 	0.89760 0.61650 0.80290 -0.18700
N 	N 	0.85630 0.57260 0.92650 -0.16000
N 	N 	0.95070 0.62470 0.91300 -0.15800
N 	N 	0.96590 0.70980 0.79030 -0.18400
N 	N 	0.95760 0.81400 0.78520 -0.17600
N 	N 	0.01540 0.72120 0.90040 -0.16200
N 	N 	0.02350 0.82590 0.89330 -0.16000
N 	N 	0.89570 0.91330 0.78880 -0.16500
N 	N 	0.80260 0.96920 0.80200 -0.16000
N 	N 	0.96690 0.92920 0.89540 -0.15600
N 	N 	0.87760 0.98960 0.90750 -0.15800
N 	N 	0.68380 0.98210 0.81900 -0.15900
N 	N 	0.58510 0.94780 0.83990 -0.16000
N 	N 	0.75770 0.99300 0.92590 -0.16200
N 	N 	0.66790 0.93960 0.94580 -0.16500
N 	N 	0.52510 0.85050 0.85530 -0.16500
N 	N 	0.52830 0.74580 0.85430 -0.16100
N 	N 	0.60440 0.84380 0.96210 -0.17700
N 	N 	0.59010 0.74060 0.96490 -0.17500
N 	N 	0.57990 0.64390 0.84160 -0.16000
N 	N 	0.67170 0.58730 0.82790 -0.16300
N 	N 	0.64230 0.63950 0.95170 -0.16600
N 	N 	0.73300 0.58160 0.93760 -0.16100
C 	C 	0.82310 0.61580 0.78010 0.32400
