data_crystal

_cell_length_a 8.39700
_cell_length_b 17.81200
_cell_length_c 31.25700
_cell_angle_alpha 90.00000
_cell_angle_beta  94.24000
_cell_angle_gamma 90.00000

_symmetry_space_group_name_	'P 1'
_symmetry_space_group_name_H-M	'P 1'

loop_
_symmetry_equiv_pos_as_xyz
  x,y,z

loop_
_atom_site_label
_atom_site_type_symbol
_atom_site_fract_x
_atom_site_fract_y
_atom_site_fract_z
_atom_site_charge
Zn	Zn	0.82723 0.12487 0.75379 1.21300
N 	N 	0.66170 0.06090 0.72216 -0.26500
N 	N 	0.44870 0.98829 0.70954 -0.12500
N 	N 	0.89230 0.82920 0.73481 -0.14300
N 	N 	0.73320 0.73310 0.73920 -0.25600
C 	C 	0.52990 0.03518 0.73905 0.08000
H 	H 	0.49820 0.04690 0.76610 0.02500
C 	C 	0.67100 0.03360 0.68338 0.03700
H 	H 	0.75470 0.04280 0.66620 0.02300
C 	C 	0.54200 0.99020 0.67179 -0.01700
H 	H 	0.51810 0.96670 0.64550 0.06100
C 	C 	0.30110 0.95264 0.71474 0.12000
C 	C 	0.25970 0.89379 0.68681 -0.06300
H 	H 	0.31650 0.88230 0.66320 0.07400
C 	C 	0.11710 0.85107 0.69791 -0.10900
H 	H 	0.09140 0.80760 0.68240 0.10000
C 	C 	0.02970 0.86926 0.72654 0.13200
C 	C 	0.06050 0.93497 0.74755 -0.07500
H 	H 	0.98990 0.95280 0.76670 0.07200
C 	C 	0.20380 0.97759 0.74018 -0.09300
H 	H 	0.22360 0.02310 0.75420 0.10200
C 	C 	0.87250 0.75540 0.72665 0.09600
H 	H 	0.94570 0.72470 0.71410 0.01300
C 	C 	0.66140 0.79280 0.75525 0.00800
H 	H 	0.56070 0.79380 0.76580 0.04000
C 	C 	0.76170 0.85100 0.75333 0.02100
H 	H 	0.74320 0.89920 0.76330 0.03700
Zn	Zn	0.67277 0.62487 0.74621 1.21500
N 	N 	0.83830 0.56090 0.77784 -0.26300
N 	N 	0.05130 0.48829 0.79046 -0.12200
N 	N 	0.60770 0.32920 0.76519 -0.14300
N 	N 	0.76680 0.23310 0.76080 -0.25700
C 	C 	0.97010 0.53518 0.76095 0.07400
H 	H 	0.00180 0.54690 0.73390 0.02900
C 	C 	0.82900 0.53360 0.81662 0.03800
H 	H 	0.74530 0.54280 0.83380 0.02400
C 	C 	0.95800 0.49020 0.82821 -0.01900
H 	H 	0.98190 0.46670 0.85450 0.06100
C 	C 	0.19890 0.45264 0.78526 0.11800
C 	C 	0.24030 0.39379 0.81319 -0.06100
H 	H 	0.18350 0.38230 0.83680 0.07400
C 	C 	0.38290 0.35107 0.80209 -0.11000
H 	H 	0.40860 0.30760 0.81760 0.10000
C 	C 	0.47030 0.36926 0.77346 0.13300
C 	C 	0.43950 0.43497 0.75245 -0.08000
H 	H 	0.51010 0.45280 0.73330 0.07500
C 	C 	0.29620 0.47759 0.75982 -0.08900
H 	H 	0.27640 0.52310 0.74580 0.10000
C 	C 	0.62750 0.25540 0.77335 0.09600
H 	H 	0.55430 0.22470 0.78590 0.01300
C 	C 	0.83860 0.29280 0.74475 0.00800
H 	H 	0.93930 0.29380 0.73420 0.03900
C 	C 	0.73830 0.35100 0.74667 0.02100
H 	H 	0.75680 0.39920 0.73670 0.03700
Zn	Zn	0.17277 0.87513 0.24621 1.21400
N 	N 	0.33830 0.93910 0.27784 -0.26400
N 	N 	0.55130 0.01171 0.29046 -0.12500
N 	N 	0.10770 0.17080 0.26519 -0.14300
N 	N 	0.26680 0.26690 0.26080 -0.25600
C 	C 	0.47010 0.96482 0.26095 0.08000
H 	H 	0.50180 0.95310 0.23390 0.02500
C 	C 	0.32900 0.96640 0.31662 0.03700
H 	H 	0.24530 0.95720 0.33380 0.02300
C 	C 	0.45800 0.00980 0.32821 -0.01700
H 	H 	0.48190 0.03330 0.35450 0.06100
C 	C 	0.69890 0.04736 0.28526 0.12000
C 	C 	0.74030 0.10621 0.31319 -0.06300
H 	H 	0.68350 0.11770 0.33680 0.07400
C 	C 	0.88290 0.14893 0.30209 -0.10900
H 	H 	0.90860 0.19240 0.31760 0.10000
C 	C 	0.97030 0.13074 0.27346 0.13200
C 	C 	0.93950 0.06503 0.25245 -0.07500
H 	H 	0.01010 0.04720 0.23330 0.07200
C 	C 	0.79620 0.02241 0.25982 -0.09300
H 	H 	0.77640 0.97690 0.24580 0.10200
C 	C 	0.12750 0.24460 0.27335 0.09600
H 	H 	0.05430 0.27530 0.28590 0.01300
C 	C 	0.33860 0.20720 0.24475 0.00800
H 	H 	0.43930 0.20620 0.23420 0.04000
C 	C 	0.23830 0.14900 0.24667 0.02100
H 	H 	0.25680 0.10080 0.23670 0.03700
Zn	Zn	0.32723 0.37513 0.25379 1.21500
N 	N 	0.16170 0.43910 0.22216 -0.26300
N 	N 	0.94870 0.51171 0.20954 -0.12200
N 	N 	0.39230 0.67080 0.23481 -0.14300
N 	N 	0.23320 0.76690 0.23920 -0.25700
C 	C 	0.02990 0.46482 0.23905 0.07400
H 	H 	0.99820 0.45310 0.26610 0.02900
C 	C 	0.17100 0.46640 0.18338 0.03800
H 	H 	0.25470 0.45720 0.16620 0.02400
C 	C 	0.04200 0.50980 0.17179 -0.01900
H 	H 	0.01810 0.53330 0.14550 0.06100
C 	C 	0.80110 0.54736 0.21474 0.11800
C 	C 	0.75970 0.60621 0.18681 -0.06100
H 	H 	0.81650 0.61770 0.16320 0.07400
C 	C 	0.61710 0.64893 0.19791 -0.11000
H 	H 	0.59140 0.69240 0.18240 0.10000
C 	C 	0.52970 0.63074 0.22654 0.13300
C 	C 	0.56050 0.56503 0.24755 -0.08000
H 	H 	0.48990 0.54720 0.26670 0.07500
C 	C 	0.70380 0.52241 0.24018 -0.08900
H 	H 	0.72360 0.47690 0.25420 0.10000
C 	C 	0.37250 0.74460 0.22665 0.09600
H 	H 	0.44570 0.77530 0.21410 0.01300
C 	C 	0.16140 0.70720 0.25525 0.00800
H 	H 	0.06070 0.70620 0.26580 0.03900
C 	C 	0.26170 0.64900 0.25333 0.02100
H 	H 	0.24320 0.60080 0.26330 0.03700
N 	N 	0.38600 0.21810 0.40840 -0.03300
N 	N 	0.74300 0.35400 0.32550 -0.02700
N 	N 	0.62280 0.42020 0.51076 -0.26600
H 	H 	0.54910 0.38660 0.51020 0.16100
O 	O 	0.33300 0.20410 0.44250 -0.08700
O 	O 	0.35800 0.17200 0.38040 -0.11000
O 	O 	0.71930 0.30600 0.29800 -0.13400
O 	O 	0.80640 0.41670 0.32360 -0.10600
O 	O 	0.80110 0.47170 0.46920 -0.22900
O 	O 	0.60480 0.56680 0.69480 -0.44400
O 	O 	0.83290 0.61350 0.67780 -0.31800
C 	C 	0.49770 0.27390 0.40704 0.19200
C 	C 	0.56380 0.28710 0.36824 -0.21700
H 	H 	0.53590 0.25670 0.34470 0.13500
C 	C 	0.67150 0.34560 0.36467 0.18600
C 	C 	0.71310 0.39100 0.39990 -0.15400
H 	H 	0.78510 0.43020 0.39750 0.13000
C 	C 	0.64700 0.37790 0.43869 0.06000
C 	C 	0.53930 0.31940 0.44226 -0.16600
H 	H 	0.49510 0.31060 0.46820 0.12600
C 	C 	0.69540 0.42900 0.47499 0.22400
C 	C 	0.65210 0.45951 0.55004 0.24500
C 	C 	0.78410 0.50439 0.55813 -0.23400
H 	H 	0.85820 0.51010 0.53770 0.16300
C 	C 	0.80520 0.54113 0.59739 0.13200
H 	H 	0.89400 0.57180 0.60300 0.02700
C 	C 	0.69350 0.53268 0.62909 -0.15200
C 	C 	0.56230 0.48133 0.61945 0.11700
H 	H 	0.48860 0.47260 0.63970 0.02600
C 	C 	0.54650 0.44526 0.58025 -0.23600
H 	H 	0.46380 0.41120 0.57440 0.13400
C 	C 	0.71270 0.57335 0.66917 0.35800
N 	N 	0.40220 0.82870 0.00080 -0.02100
N 	N 	0.41030 0.89680 0.85100 -0.01900
N 	N 	0.90230 0.72770 0.88410 -0.26400
H 	H 	0.82110 0.71440 0.86750 0.16700
O 	O 	0.48200 0.81300 0.03330 -0.10200
O 	O 	0.26150 0.84870 0.99890 -0.11600
O 	O 	0.27570 0.91850 0.85280 -0.11500
O 	O 	0.48210 0.90240 0.81960 -0.12100
O 	O 	0.96330 0.76930 0.95189 -0.22900
O 	O 	0.48620 0.63210 0.77889 -0.45700
O 	O 	0.62140 0.67340 0.83740 -0.33300
C 	C 	0.48130 0.82920 0.95940 0.19600
C 	C 	0.40990 0.86490 0.92660 -0.23600
H 	H 	0.31520 0.89130 0.92860 0.15300
C 	C 	0.48630 0.86050 0.88860 0.18300
C 	C 	0.63360 0.82720 0.88600 -0.16600
H 	H 	0.68400 0.82850 0.86060 0.11100
C 	C 	0.70530 0.79200 0.92180 0.05900
C 	C 	0.62930 0.79420 0.95970 -0.16900
H 	H 	0.67610 0.77280 0.98470 0.12300
C 	C 	0.86940 0.76290 0.92140 0.20600
C 	C 	0.05060 0.71090 0.87010 0.23200
C 	C 	0.05710 0.69470 0.82620 -0.20400
H 	H 	0.96320 0.69430 0.80850 0.09200
C 	C 	0.20060 0.67920 0.80900 0.11200
H 	H 	0.20410 0.67080 0.77970 0.02200
C 	C 	0.34100 0.67640 0.83630 -0.16200
C 	C 	0.33080 0.68650 0.87930 0.14500
H 	H 	0.42290 0.68270 0.89770 0.00400
C 	C 	0.18830 0.70190 0.89620 -0.24100
H 	H 	0.18480 0.70640 0.92580 0.15200
C 	C 	0.49670 0.65880 0.81690 0.38300
N 	N 	0.11400 0.71810 0.09160 -0.03100
N 	N 	0.75700 0.85400 0.17450 -0.02700
N 	N 	0.87720 0.92020 0.98924 -0.26600
H 	H 	0.95090 0.88660 0.98980 0.16100
O 	O 	0.16700 0.70410 0.05750 -0.08700
O 	O 	0.14200 0.67200 0.11960 -0.11000
O 	O 	0.78070 0.80600 0.20200 -0.13400
O 	O 	0.69360 0.91670 0.17640 -0.10600
O 	O 	0.69890 0.97170 0.03080 -0.22900
O 	O 	0.89520 0.06680 0.80520 -0.44500
O 	O 	0.66710 0.11350 0.82220 -0.31800
C 	C 	0.00230 0.77390 0.09296 0.18500
C 	C 	0.93620 0.78710 0.13176 -0.21000
H 	H 	0.96410 0.75670 0.15530 0.13400
C 	C 	0.82850 0.84560 0.13533 0.18400
C 	C 	0.78690 0.89100 0.10010 -0.15100
H 	H 	0.71490 0.93020 0.10250 0.12900
C 	C 	0.85300 0.87790 0.06131 0.05600
C 	C 	0.96070 0.81940 0.05774 -0.15700
H 	H 	0.00490 0.81060 0.03180 0.12200
C 	C 	0.80460 0.92900 0.02501 0.22600
C 	C 	0.84790 0.95951 0.94996 0.24600
C 	C 	0.71590 0.00439 0.94187 -0.23500
H 	H 	0.64180 0.01010 0.96230 0.16300
C 	C 	0.69480 0.04113 0.90261 0.13200
H 	H 	0.60600 0.07180 0.89700 0.02700
C 	C 	0.80650 0.03268 0.87091 -0.15300
C 	C 	0.93770 0.98133 0.88055 0.11600
H 	H 	0.01140 0.97260 0.86030 0.02800
C 	C 	0.95350 0.94526 0.91975 -0.23600
H 	H 	0.03620 0.91120 0.92560 0.13400
C 	C 	0.78730 0.07335 0.83083 0.35800
N 	N 	0.09780 0.32870 0.49920 -0.02100
N 	N 	0.08970 0.39680 0.64900 -0.02000
N 	N 	0.59770 0.22770 0.61590 -0.26400
H 	H 	0.67890 0.21440 0.63250 0.16700
O 	O 	0.01800 0.31300 0.46670 -0.10200
O 	O 	0.23850 0.34870 0.50110 -0.11600
O 	O 	0.22430 0.41850 0.64720 -0.11500
O 	O 	0.01790 0.40240 0.68040 -0.12000
O 	O 	0.53670 0.26930 0.54811 -0.22900
O 	O 	0.01380 0.13210 0.72111 -0.45700
O 	O 	0.87860 0.17340 0.66260 -0.33600
C 	C 	0.01870 0.32920 0.54060 0.19900
C 	C 	0.09010 0.36490 0.57340 -0.23900
H 	H 	0.18480 0.39130 0.57140 0.15400
C 	C 	0.01370 0.36050 0.61140 0.18700
C 	C 	0.86640 0.32720 0.61400 -0.17000
H 	H 	0.81600 0.32850 0.63940 0.11200
C 	C 	0.79470 0.29200 0.57820 0.06100
C 	C 	0.87070 0.29420 0.54030 -0.17200
H 	H 	0.82390 0.27280 0.51530 0.12400
C 	C 	0.63060 0.26290 0.57860 0.20600
C 	C 	0.44940 0.21090 0.62990 0.23300
C 	C 	0.44290 0.19470 0.67380 -0.20900
H 	H 	0.53680 0.19430 0.69150 0.09500
C 	C 	0.29940 0.17920 0.69100 0.11600
H 	H 	0.29590 0.17080 0.72030 0.02000
C 	C 	0.15900 0.17640 0.66370 -0.16500
C 	C 	0.16920 0.18650 0.62070 0.14700
H 	H 	0.07710 0.18270 0.60230 0.00400
C 	C 	0.31170 0.20190 0.60380 -0.24300
H 	H 	0.31520 0.20640 0.57420 0.15300
C 	C 	0.00330 0.15880 0.68310 0.38600
N 	N 	0.61400 0.78190 0.59160 -0.03300
N 	N 	0.25700 0.64600 0.67450 -0.02700
N 	N 	0.37720 0.57980 0.48924 -0.26600
H 	H 	0.45090 0.61340 0.48980 0.16100
O 	O 	0.66700 0.79590 0.55750 -0.08700
O 	O 	0.64200 0.82800 0.61960 -0.11000
O 	O 	0.28070 0.69400 0.70200 -0.13400
O 	O 	0.19360 0.58330 0.67640 -0.10600
O 	O 	0.19890 0.52830 0.53080 -0.22900
O 	O 	0.39520 0.43320 0.30520 -0.44400
O 	O 	0.16710 0.38650 0.32220 -0.31800
C 	C 	0.50230 0.72610 0.59296 0.19200
C 	C 	0.43620 0.71290 0.63176 -0.21700
H 	H 	0.46410 0.74330 0.65530 0.13500
C 	C 	0.32850 0.65440 0.63533 0.18600
C 	C 	0.28690 0.60900 0.60010 -0.15400
H 	H 	0.21490 0.56980 0.60250 0.13000
C 	C 	0.35300 0.62210 0.56131 0.06000
C 	C 	0.46070 0.68060 0.55774 -0.16600
H 	H 	0.50490 0.68940 0.53180 0.12600
C 	C 	0.30460 0.57100 0.52501 0.22400
C 	C 	0.34790 0.54049 0.44996 0.24500
C 	C 	0.21590 0.49561 0.44187 -0.23400
H 	H 	0.14180 0.48990 0.46230 0.16300
C 	C 	0.19480 0.45887 0.40261 0.13200
H 	H 	0.10600 0.42820 0.39700 0.02700
C 	C 	0.30650 0.46732 0.37091 -0.15200
C 	C 	0.43770 0.51867 0.38055 0.11700
H 	H 	0.51140 0.52740 0.36030 0.02600
C 	C 	0.45350 0.55474 0.41975 -0.23600
H 	H 	0.53620 0.58880 0.42560 0.13400
C 	C 	0.28730 0.42665 0.33083 0.35800
N 	N 	0.59780 0.17130 0.99920 -0.02100
N 	N 	0.58970 0.10320 0.14900 -0.01900
N 	N 	0.09770 0.27230 0.11590 -0.26400
H 	H 	0.17890 0.28560 0.13250 0.16700
O 	O 	0.51800 0.18700 0.96670 -0.10200
O 	O 	0.73850 0.15130 0.00110 -0.11600
O 	O 	0.72430 0.08150 0.14720 -0.11500
O 	O 	0.51790 0.09760 0.18040 -0.12100
O 	O 	0.03670 0.23070 0.04811 -0.22900
O 	O 	0.51380 0.36790 0.22111 -0.45700
O 	O 	0.37860 0.32660 0.16260 -0.33300
C 	C 	0.51870 0.17080 0.04060 0.19600
C 	C 	0.59010 0.13510 0.07340 -0.23600
H 	H 	0.68480 0.10870 0.07140 0.15300
C 	C 	0.51370 0.13950 0.11140 0.18300
C 	C 	0.36640 0.17280 0.11400 -0.16600
H 	H 	0.31600 0.17150 0.13940 0.11100
C 	C 	0.29470 0.20800 0.07820 0.05900
C 	C 	0.37070 0.20580 0.04030 -0.16900
H 	H 	0.32390 0.22720 0.01530 0.12300
C 	C 	0.13060 0.23710 0.07860 0.20600
C 	C 	0.94940 0.28910 0.12990 0.23200
C 	C 	0.94290 0.30530 0.17380 -0.20400
H 	H 	0.03680 0.30570 0.19150 0.09200
C 	C 	0.79940 0.32080 0.19100 0.11200
H 	H 	0.79590 0.32920 0.22030 0.02200
C 	C 	0.65900 0.32360 0.16370 -0.16200
C 	C 	0.66920 0.31350 0.12070 0.14500
H 	H 	0.57710 0.31730 0.10230 0.00400
C 	C 	0.81170 0.29810 0.10380 -0.24100
H 	H 	0.81520 0.29360 0.07420 0.15200
C 	C 	0.50330 0.34120 0.18310 0.38300
N 	N 	0.88600 0.28190 0.90840 -0.03100
N 	N 	0.24300 0.14600 0.82550 -0.02700
N 	N 	0.12280 0.07980 0.01076 -0.26600
H 	H 	0.04910 0.11340 0.01020 0.16100
O 	O 	0.83300 0.29590 0.94250 -0.08700
O 	O 	0.85800 0.32800 0.88040 -0.11000
O 	O 	0.21930 0.19400 0.79800 -0.13400
O 	O 	0.30640 0.08330 0.82360 -0.10600
O 	O 	0.30110 0.02830 0.96920 -0.22900
O 	O 	0.10480 0.93320 0.19480 -0.44500
O 	O 	0.33290 0.88650 0.17780 -0.31800
C 	C 	0.99770 0.22610 0.90704 0.18500
C 	C 	0.06380 0.21290 0.86824 -0.21000
H 	H 	0.03590 0.24330 0.84470 0.13400
C 	C 	0.17150 0.15440 0.86467 0.18400
C 	C 	0.21310 0.10900 0.89990 -0.15100
H 	H 	0.28510 0.06980 0.89750 0.12900
C 	C 	0.14700 0.12210 0.93869 0.05600
C 	C 	0.03930 0.18060 0.94226 -0.15700
H 	H 	0.99510 0.18940 0.96820 0.12200
C 	C 	0.19540 0.07100 0.97499 0.22600
C 	C 	0.15210 0.04049 0.05004 0.24600
C 	C 	0.28410 0.99561 0.05813 -0.23500
H 	H 	0.35820 0.98990 0.03770 0.16300
C 	C 	0.30520 0.95887 0.09739 0.13200
H 	H 	0.39400 0.92820 0.10300 0.02700
C 	C 	0.19350 0.96732 0.12909 -0.15300
C 	C 	0.06230 0.01867 0.11945 0.11600
H 	H 	0.98860 0.02740 0.13970 0.02800
C 	C 	0.04650 0.05474 0.08025 -0.23600
H 	H 	0.96380 0.08880 0.07440 0.13400
C 	C 	0.21270 0.92665 0.16917 0.35800
N 	N 	0.90220 0.67130 0.50080 -0.02100
N 	N 	0.91030 0.60320 0.35100 -0.02000
N 	N 	0.40230 0.77230 0.38410 -0.26400
H 	H 	0.32110 0.78560 0.36750 0.16700
O 	O 	0.98200 0.68700 0.53330 -0.10200
O 	O 	0.76150 0.65130 0.49890 -0.11600
O 	O 	0.77570 0.58150 0.35280 -0.11500
O 	O 	0.98210 0.59760 0.31960 -0.12000
O 	O 	0.46330 0.73070 0.45189 -0.22900
O 	O 	0.98620 0.86790 0.27889 -0.45700
O 	O 	0.12140 0.82660 0.33740 -0.33600
C 	C 	0.98130 0.67080 0.45940 0.19900
C 	C 	0.90990 0.63510 0.42660 -0.23900
H 	H 	0.81520 0.60870 0.42860 0.15400
C 	C 	0.98630 0.63950 0.38860 0.18700
C 	C 	0.13360 0.67280 0.38600 -0.17000
H 	H 	0.18400 0.67150 0.36060 0.11200
C 	C 	0.20530 0.70800 0.42180 0.06100
C 	C 	0.12930 0.70580 0.45970 -0.17200
H 	H 	0.17610 0.72720 0.48470 0.12400
C 	C 	0.36940 0.73710 0.42140 0.20600
C 	C 	0.55060 0.78910 0.37010 0.23300
C 	C 	0.55710 0.80530 0.32620 -0.20900
H 	H 	0.46320 0.80570 0.30850 0.09500
C 	C 	0.70060 0.82080 0.30900 0.11600
H 	H 	0.70410 0.82920 0.27970 0.02000
C 	C 	0.84100 0.82360 0.33630 -0.16500
C 	C 	0.83080 0.81350 0.37930 0.14700
H 	H 	0.92290 0.81730 0.39770 0.00400
C 	C 	0.68830 0.79810 0.39620 -0.24300
H 	H 	0.68480 0.79360 0.42580 0.15300
C 	C 	0.99670 0.84120 0.31690 0.38600
