data_crystal

_cell_length_a 24.84890
_cell_length_b 24.84880
_cell_length_c 24.84880
_cell_angle_alpha 108.92800
_cell_angle_beta  108.92800
_cell_angle_gamma 110.56300

_symmetry_space_group_name_	'P 1'
_symmetry_space_group_name_H-M	'P 1'

loop_
_symmetry_equiv_pos_as_xyz
  x,y,z

loop_
_atom_site_label
_atom_site_type_symbol
_atom_site_fract_x
_atom_site_fract_y
_atom_site_fract_z
_atom_site_charge
Cu	Cu	0.05708 0.42762 0.99810 0.90000
Cu	Cu	0.57048 0.57238 0.62946 0.90000
Cu	Cu	0.94292 0.94102 0.37054 0.90000
Cu	Cu	0.17147 0.16928 0.71689 0.90400
Cu	Cu	0.45458 0.17147 0.00219 0.90400
Cu	Cu	0.94102 0.57048 0.99810 0.90000
Cu	Cu	0.16928 0.45239 0.99781 0.90600
Cu	Cu	0.78327 0.50000 0.28327 0.90300
Cu	Cu	0.57238 0.94292 0.00190 0.90100
Cu	Cu	0.42952 0.05898 0.00190 0.90000
Cu	Cu	0.54542 0.54761 0.71689 0.90500
Cu	Cu	0.50000 0.12524 0.62524 0.90400
Cu	Cu	0.50000 0.78327 0.28327 0.90300
Cu	Cu	0.21673 0.50000 0.71673 0.90300
Cu	Cu	0.50000 0.87476 0.37476 0.90400
Cu	Cu	0.05898 0.05708 0.62946 0.90100
Cu	Cu	0.82853 0.54542 0.99781 0.90500
Cu	Cu	0.87476 0.50000 0.37476 0.90400
Cu	Cu	0.83072 0.82853 0.28311 0.90500
Cu	Cu	0.50000 0.21673 0.71673 0.90300
Cu	Cu	0.12524 0.50000 0.62524 0.90400
Cu	Cu	0.42762 0.42952 0.37054 0.90100
Cu	Cu	0.45239 0.45458 0.28311 0.90500
Cu	Cu	0.54761 0.83072 0.00219 0.90600
H 	H 	0.12250 0.90370 0.56420 0.04000
H 	H 	0.73250 0.89360 0.15810 0.07400
H 	H 	0.62550 0.37470 0.60680 0.06000
H 	H 	0.79370 0.50960 0.50890 0.09100
H 	H 	0.86540 0.70790 0.35730 0.07500
H 	H 	0.15230 0.82250 0.77060 0.05200
H 	H 	0.77230 0.00000 0.77230 0.10500
H 	H 	0.94070 0.22370 0.85460 0.10200
H 	H 	0.11320 0.92000 0.62560 0.05200
H 	H 	0.01440 0.76730 0.38330 0.04200
H 	H 	0.77420 0.63470 0.72010 0.09700
H 	H 	0.00000 0.60880 0.60880 0.00900
H 	H 	0.35060 0.50810 0.64270 0.07700
H 	H 	0.36890 0.61600 0.38330 0.04100
H 	H 	0.09630 0.87750 0.43580 0.04000
H 	H 	0.94810 0.17750 0.32980 0.05200
H 	H 	0.48130 0.18450 0.30120 0.05200
H 	H 	0.00000 0.22770 0.22770 0.10500
H 	H 	0.71950 0.04750 0.63060 0.09000
H 	H 	0.68180 0.34260 0.34360 0.03300
H 	H 	0.60880 0.00000 0.60880 0.00900
H 	H 	0.00100 0.65740 0.33920 0.03000
H 	H 	0.66340 0.37290 0.71410 0.04400
H 	H 	0.65310 0.44450 0.56600 0.04000
H 	H 	0.66050 0.09630 0.21880 0.04000
H 	H 	0.01350 0.30580 0.17910 0.05000
H 	H 	0.11880 0.62160 0.14160 0.08400
H 	H 	0.48990 0.78470 0.49820 0.10500
H 	H 	0.48400 0.13110 0.83530 0.06500
H 	H 	0.48000 0.97720 0.85840 0.08200
H 	H 	0.62530 0.37450 0.39320 0.06000
H 	H 	0.08710 0.65310 0.20860 0.04000
H 	H 	0.63470 0.91460 0.86050 0.09700
H 	H 	0.78470 0.28650 0.29480 0.10500
H 	H 	0.08610 0.94070 0.71700 0.10200
H 	H 	0.94930 0.66340 0.29050 0.04600
H 	H 	0.22370 0.36910 0.28300 0.10100
H 	H 	0.51870 0.81990 0.70320 0.05200
H 	H 	0.55830 0.12250 0.21880 0.04000
H 	H 	0.76790 0.01870 0.39320 0.06400
H 	H 	0.99930 0.49040 0.28410 0.09000
H 	H 	0.57440 0.73250 0.83890 0.07200
H 	H 	0.88680 0.51240 0.80680 0.05200
H 	H 	0.07350 0.69790 0.18080 0.04400
H 	H 	0.37470 0.76790 0.74920 0.06000
H 	H 	0.87330 0.69420 0.70770 0.05000
H 	H 	0.82400 0.14720 0.33100 0.05600
H 	H 	0.51010 0.00830 0.29480 0.10200
H 	H 	0.44170 0.66050 0.56420 0.04000
H 	H 	0.57810 0.36410 0.34720 0.03700
H 	H 	0.89360 0.73550 0.16110 0.07400
H 	H 	0.92000 0.29440 0.80680 0.05100
H 	H 	0.65880 0.94930 0.28590 0.04600
H 	H 	0.38400 0.63110 0.61670 0.04100
H 	H 	0.91460 0.05410 0.27990 0.09900
H 	H 	0.35130 0.70420 0.83530 0.06500
H 	H 	0.33660 0.05070 0.70950 0.04500
H 	H 	0.21530 0.51010 0.50180 0.10500
H 	H 	0.42190 0.76910 0.78600 0.03700
H 	H 	0.94590 0.08540 0.72010 0.09800
H 	H 	0.11720 0.98000 0.48980 0.09100
H 	H 	0.51600 0.35130 0.64710 0.06500
H 	H 	0.05410 0.77420 0.13950 0.09900
H 	H 	0.33820 0.68180 0.33920 0.03300
H 	H 	0.85280 0.17600 0.66900 0.05600
H 	H 	0.77630 0.05930 0.14540 0.10300
H 	H 	0.88280 0.37260 0.86280 0.09400
H 	H 	0.05070 0.34120 0.71410 0.04500
H 	H 	0.08890 0.71950 0.67200 0.09000
H 	H 	0.29580 0.64870 0.16470 0.06500
H 	H 	0.29210 0.13460 0.64270 0.07600
H 	H 	0.65740 0.31820 0.65640 0.03300
H 	H 	0.20630 0.71520 0.71590 0.09100
H 	H 	0.48290 0.30210 0.37560 0.04400
H 	H 	0.36410 0.01690 0.78600 0.03500
H 	H 	0.49040 0.20630 0.49110 0.09100
H 	H 	0.58310 0.95250 0.67200 0.09000
H 	H 	0.34120 0.62710 0.29050 0.04400
H 	H 	0.81990 0.11670 0.30120 0.05200
H 	H 	0.62710 0.33660 0.28590 0.04400
H 	H 	0.90370 0.33950 0.78120 0.04000
H 	H 	0.01690 0.23090 0.65280 0.03500
H 	H 	0.02000 0.88280 0.51020 0.08900
H 	H 	0.63110 0.01440 0.24710 0.04200
H 	H 	0.02280 0.52000 0.14160 0.08100
H 	H 	0.61600 0.23270 0.24710 0.04100
H 	H 	0.18450 0.88330 0.70320 0.05200
H 	H 	0.22580 0.94590 0.86050 0.09800
H 	H 	0.28480 0.79370 0.28410 0.09100
H 	H 	0.00070 0.28480 0.49110 0.09000
H 	H 	0.88330 0.18010 0.69880 0.05200
H 	H 	0.98000 0.49020 0.86280 0.09300
H 	H 	0.34260 0.99900 0.66080 0.03100
H 	H 	0.76730 0.38400 0.75290 0.04100
H 	H 	0.28050 0.91110 0.32800 0.09000
H 	H 	0.71350 0.21530 0.70520 0.10500
H 	H 	0.23170 0.95880 0.59370 0.02800
H 	H 	0.28650 0.99170 0.50180 0.10300
H 	H 	0.76830 0.36200 0.72710 0.02900
H 	H 	0.50700 0.18380 0.33100 0.05600
H 	H 	0.95250 0.28050 0.36940 0.09000
H 	H 	0.81550 0.51870 0.69880 0.05200
H 	H 	0.99900 0.33820 0.65640 0.03100
H 	H 	0.37290 0.65880 0.70950 0.04400
H 	H 	0.10730 0.48290 0.18080 0.04500
H 	H 	0.63090 0.77630 0.71700 0.10100
H 	H 	0.11670 0.81550 0.29680 0.05200
H 	H 	0.52000 0.37840 0.49720 0.08400
H 	H 	0.63490 0.04120 0.27290 0.02800
H 	H 	0.36200 0.63490 0.59370 0.02900
H 	H 	0.17600 0.50700 0.32320 0.05600
H 	H 	0.98560 0.36890 0.75290 0.04200
H 	H 	0.92650 0.10730 0.62440 0.04400
H 	H 	0.12150 0.55550 0.20860 0.04100
H 	H 	0.17750 0.84770 0.22940 0.05200
H 	H 	0.69790 0.51710 0.62440 0.04400
H 	H 	0.87750 0.44170 0.78120 0.04000
H 	H 	0.97720 0.11880 0.49720 0.08100
H 	H 	0.64940 0.29210 0.15750 0.07700
H 	H 	0.50960 0.00070 0.71590 0.09100
H 	H 	0.08000 0.88680 0.37440 0.05100
H 	H 	0.42560 0.26450 0.15810 0.07200
H 	H 	0.34690 0.91290 0.79140 0.04000
H 	H 	0.13110 0.29580 0.64710 0.06400
H 	H 	0.89270 0.07350 0.37560 0.04400
H 	H 	0.22770 -0.00000 0.22770 0.10500
H 	H 	0.14720 0.81620 0.32320 0.05600
H 	H 	0.16560 0.87330 0.17910 0.04900
H 	H 	0.04120 0.76830 0.40630 0.02800
H 	H 	0.51710 0.89270 0.81920 0.04500
H 	H 	0.87850 0.08710 0.43400 0.04000
H 	H 	0.38170 0.15230 0.32980 0.05200
H 	H 	0.82250 0.05190 0.67020 0.05200
H 	H 	0.62160 0.48000 0.50280 0.08400
H 	H 	0.05930 0.91390 0.28300 0.10300
H 	H 	0.29440 0.48760 0.37440 0.05200
H 	H 	0.51240 0.70560 0.62560 0.05200
H 	H 	0.31820 0.66180 0.66080 0.03300
H 	H 	0.26750 0.42560 0.16110 0.07200
H 	H 	0.37260 0.50980 0.48980 0.09400
H 	H 	0.18010 0.48130 0.29680 0.05200
H 	H 	0.99170 0.48990 0.70520 0.10400
H 	H 	0.18380 0.85280 0.67680 0.05600
H 	H 	0.01870 0.62550 0.25080 0.06400
H 	H 	0.05190 0.38170 0.22940 0.05200
H 	H 	0.50810 0.86540 0.15750 0.07600
H 	H 	0.49300 0.82400 0.67680 0.05600
H 	H 	0.71520 0.99930 0.50890 0.09000
H 	H 	0.50980 0.02000 0.13720 0.09100
H 	H 	0.23090 0.57810 0.21400 0.03700
H 	H 	0.04750 0.41690 0.32800 0.09000
H 	H 	0.91290 0.12150 0.56600 0.04000
H 	H 	0.95880 0.36510 0.72710 0.02800
H 	H 	0.33950 0.55830 0.43580 0.04000
H 	H 	0.91390 0.63090 0.85460 0.10100
H 	H 	0.13460 0.49190 0.84250 0.07600
H 	H 	0.63590 0.42190 0.65280 0.03700
H 	H 	0.12670 0.83440 0.82090 0.05000
H 	H 	0.30210 0.92650 0.81920 0.04400
H 	H 	0.73550 0.57440 0.84190 0.07200
H 	H 	0.70420 0.86890 0.35290 0.06400
H 	H 	0.37840 0.88120 0.85840 0.08400
H 	H 	0.00000 0.77230 0.77230 0.10500
H 	H 	0.36530 0.22580 0.27990 0.09700
H 	H 	0.36510 0.63800 0.40630 0.02900
H 	H 	0.00830 0.71350 0.49820 0.10100
H 	H 	0.88120 0.02280 0.50280 0.08000
H 	H 	0.48760 0.11320 0.19320 0.05200
H 	H 	0.69420 0.98650 0.82090 0.05000
H 	H 	0.30580 0.12670 0.29230 0.05000
H 	H 	0.63800 0.23170 0.27290 0.02900
H 	H 	0.10640 0.26750 0.84190 0.07300
H 	H 	0.39120 0.00000 0.39120 0.00900
H 	H 	0.41690 0.08890 0.36940 0.09000
H 	H 	0.98130 0.23210 0.60680 0.06200
H 	H 	0.70560 0.08000 0.19320 0.05100
H 	H 	0.62740 0.11720 0.13720 0.09400
H 	H 	0.36910 0.08610 0.14540 0.10100
H 	H 	0.23270 0.98560 0.61670 0.04200
H 	H 	0.49190 0.64940 0.35730 0.07700
H 	H 	0.37450 0.98130 0.74920 0.06300
H 	H 	0.76910 0.98310 0.34720 0.03400
H 	H 	0.61830 0.94810 0.77060 0.05200
H 	H 	0.66180 0.00100 0.34360 0.03000
H 	H 	0.26450 0.10640 0.83890 0.07300
H 	H 	0.81620 0.49300 0.66900 0.05600
H 	H 	0.44450 0.87850 0.79140 0.04000
H 	H 	0.08540 0.36530 0.13950 0.09700
H 	H 	0.91110 0.58310 0.63060 0.09000
H 	H 	0.86890 0.51600 0.16470 0.06400
H 	H 	0.23210 0.62530 0.25080 0.06000
H 	H 	0.84770 0.61830 0.67020 0.05200
H 	H 	0.83440 0.01350 0.70770 0.04900
H 	H 	0.49020 0.62740 0.51020 0.09400
H 	H 	0.64870 0.48400 0.35290 0.06500
H 	H 	0.98310 0.63590 0.21400 0.03400
H 	H 	0.55550 0.34690 0.43400 0.04000
H 	H 	-0.00000 0.39120 0.39120 0.00900
H 	H 	0.70790 0.35060 0.84250 0.07700
H 	H 	0.98650 0.16560 0.29230 0.04900
C 	C 	0.57360 0.32240 0.33160 -0.01500
C 	C 	0.50890 0.93840 0.13770 -0.02000
C 	C 	0.60780 0.33000 0.36480 -0.07400
C 	C 	0.06580 0.14710 0.74690 0.33700
C 	C 	0.70990 0.19600 0.21990 0.16900
C 	C 	0.32240 0.99080 0.74880 -0.00700
C 	C 	0.49140 0.66460 0.39660 -0.04800
C 	C 	0.30800 0.60300 0.29700 -0.02800
C 	C 	0.02390 0.80400 0.51390 0.16100
C 	C 	0.67740 0.04830 0.29270 -0.02200
C 	C 	0.19930 0.06160 0.57050 -0.02000
C 	C 	0.80450 0.02050 0.51600 0.14300
C 	C 	0.49030 0.74570 0.48100 -0.12900
C 	C 	0.94230 0.51980 0.14450 -0.05900
C 	C 	0.43800 0.83230 0.91650 0.36200
C 	C 	0.97200 0.32470 0.72830 -0.05100
C 	C 	0.71150 0.49550 0.51600 0.14900
C 	C 	0.23550 0.06280 0.82550 -0.03700
C 	C 	0.50970 0.99070 0.25540 -0.12300
C 	C 	0.90700 0.51320 0.17760 -0.01600
C 	C 	0.70700 0.02680 0.65320 -0.14500
C 	C 	0.78550 0.46890 0.67800 -0.04100
C 	C 	0.94620 0.62640 0.65320 -0.14500
C 	C 	0.47740 0.87620 0.77940 0.00100
C 	C 	0.80400 0.29010 0.78010 0.16900
C 	C 	0.01100 0.30800 0.70500 -0.03100
C 	C 	0.39700 0.69200 0.70300 -0.02800
C 	C 	0.02870 0.25620 0.85670 -0.01200
C 	C 	0.69200 0.98900 0.29500 -0.03300
C 	C 	0.87130 0.62380 0.83490 -0.12500
C 	C 	0.37630 0.76840 0.26790 0.34900
C 	C 	0.06850 0.72330 0.26100 0.02800
C 	C 	0.79090 0.10750 0.32200 -0.04100
C 	C 	0.09300 0.27060 0.60620 -0.01700
C 	C 	0.12870 0.96360 0.75250 -0.13000
C 	C 	0.00230 0.49040 0.83910 -0.13500
C 	C 	0.11520 0.82220 0.77580 -0.02600
C 	C 	0.37120 0.50890 0.57050 -0.01700
C 	C 	0.21450 0.89250 0.68340 -0.04100
C 	C 	0.51320 0.33560 0.60620 -0.01800
C 	C 	0.30070 0.06860 0.57770 -0.01400
C 	C 	0.10660 0.49280 0.73000 0.31500
C 	C 	0.08720 0.80200 0.36240 0.02000
C 	C 	0.33540 0.50860 0.60340 -0.04800
C 	C 	0.93420 0.68110 0.08130 0.33600
C 	C 	0.12590 0.89400 0.59950 -0.00700
C 	C 	0.50220 0.27230 0.57390 -0.03800
C 	C 	0.26400 0.75130 0.24910 -0.10800
C 	C 	0.62610 0.87180 0.83850 -0.12700
C 	C 	0.83230 0.91580 0.39430 0.36400
C 	C 	0.64100 0.00000 0.64100 0.06500
C 	C 	0.35900 0.00000 0.35900 0.06600
C 	C 	0.75560 0.38470 0.70730 -0.02300
C 	C 	0.96820 0.74430 0.14150 -0.02000
C 	C 	0.69840 0.92830 0.42610 -0.04100
C 	C 	0.02680 0.37360 0.31980 -0.14500
C 	C 	0.08420 0.16770 0.60570 0.36300
C 	C 	0.70550 0.10600 0.23190 -0.00600
C 	C 	0.23720 0.50720 0.61380 0.31500
C 	C 	0.91580 0.52150 0.08350 0.36300
C 	C 	0.06950 0.71740 0.26510 0.01200
C 	C 	0.06280 0.23730 0.82730 -0.03600
C 	C 	0.36340 0.14890 0.21630 0.17200
C 	C 	0.48020 0.05770 0.85550 -0.05800
C 	C 	0.56040 0.19800 0.28520 0.02000
C 	C 	0.91280 0.27520 0.71480 0.02000
C 	C 	0.49040 0.65130 0.48810 -0.13700
C 	C 	0.62370 0.89160 0.39210 0.35000
C 	C 	0.44480 0.72480 0.64180 0.02200
C 	C 	0.67530 0.02800 0.27170 -0.05200
C 	C 	0.47360 0.70550 0.59950 -0.00600
C 	C 	0.06270 0.33020 0.90670 0.33100
C 	C 	0.12820 0.37390 0.16150 -0.12700
C 	C 	0.72330 0.46230 0.65480 0.02700
C 	C 	0.49780 0.24870 0.51270 -0.10800
C 	C 	0.29010 0.51000 0.48610 0.16900
C 	C 	0.17200 0.02870 0.77250 -0.01100
C 	C 	0.49090 0.72300 0.42230 -0.01200
C 	C 	0.62880 0.19930 0.13770 -0.01700
C 	C 	0.52150 0.43800 0.60570 0.36200
C 	C 	0.72300 0.30070 0.23210 -0.01200
C 	C 	0.98900 0.69400 0.29700 -0.03300
C 	C 	0.32470 0.59640 0.35270 -0.04900
C 	C 	0.93140 0.69930 0.42230 -0.01600
C 	C 	0.80200 0.43960 0.71480 0.02000
C 	C 	0.75630 0.40360 0.72830 -0.04900
C 	C 	0.20220 0.62470 0.14450 -0.05600
C 	C 	0.69930 0.27700 0.76790 -0.01200
C 	C 	0.53770 0.27670 0.34520 0.02700
C 	C 	0.52640 0.12590 0.23190 -0.00700
C 	C 	0.62640 0.97320 0.68020 -0.14500
C 	C 	0.50220 0.01490 0.75090 -0.10600
C 	C 	0.19550 0.71150 0.21600 0.14900
C 	C 	0.32260 0.61530 0.37090 -0.02300
C 	C 	0.53110 0.21450 0.32200 -0.04100
C 	C 	0.52140 0.21610 0.30970 -0.04600
C 	C 	0.99080 0.24200 0.66840 -0.00800
C 	C 	0.50720 0.89340 0.27000 0.31600
C 	C 	0.25620 0.39950 0.22750 -0.01500
C 	C 	0.90640 0.21170 0.69030 -0.04600
C 	C 	0.30650 0.64160 0.33070 0.00600
C 	C 	0.46890 0.79090 0.68340 -0.04100
C 	C 	0.50050 0.10840 0.73210 0.34900
C 	C 	0.63660 0.85290 0.78550 0.17200
C 	C 	0.64810 0.48440 0.48350 -0.11100
C 	C 	0.72480 0.08720 0.28520 0.02000
C 	C 	0.19250 0.53770 0.26100 0.02700
C 	C 	0.66440 0.48680 0.39380 -0.01900
C 	C 	0.53740 0.92500 0.09360 0.33100
C 	C 	0.27670 0.93150 0.73900 0.02700
C 	C 	0.93050 0.19560 0.64790 0.01300
C 	C 	0.80070 0.37120 0.86230 -0.01700
C 	C 	0.59000 0.76270 0.82550 -0.03300
C 	C 	0.66980 0.93730 0.09330 0.33100
C 	C 	0.65130 0.16320 0.16090 -0.13700
C 	C 	0.26800 0.09480 0.60340 -0.04600
C 	C 	0.91700 0.27520 0.72000 0.02200
C 	C 	0.97130 0.82800 0.22750 -0.00900
C 	C 	0.67600 0.97770 0.73050 0.11000
C 	C 	0.97320 0.29300 0.34680 -0.14500
C 	C 	0.93720 0.76450 0.17450 -0.03800
C 	C 	-0.00000 0.64100 0.64100 0.06500
C 	C 	0.68110 0.59980 0.74690 0.33800
C 	C 	0.50860 0.90520 0.17320 -0.04600
C 	C 	0.33560 0.72940 0.82240 -0.01800
C 	C 	0.25990 0.00000 0.25990 -0.15800
C 	C 	0.27060 0.66440 0.17760 -0.01800
C 	C 	0.46230 0.80750 0.73900 0.02700
C 	C 	0.74010 0.00000 0.74010 -0.15900
C 	C 	0.31090 0.97580 0.66930 0.01100
C 	C 	0.45230 0.80440 0.73490 0.01400
C 	C 	0.01490 0.26400 0.51270 -0.10500
C 	C 	0.07170 0.30160 0.57390 -0.04000
C 	C 	0.49950 0.23160 0.60790 0.34900
C 	C 	0.62340 0.23720 0.73000 0.31500
C 	C 	0.32400 0.05450 0.30170 0.10900
C 	C 	0.19560 0.54770 0.26510 0.01400
C 	C 	0.61530 0.24440 0.29270 -0.02300
C 	C 	0.29450 0.52640 0.40050 -0.00600
C 	C 	0.76270 0.93720 0.17270 -0.03800
C 	C 	0.46260 0.55620 0.38760 0.33000
C 	C 	0.95170 0.32260 0.70730 -0.02300
C 	C 	0.31890 0.06580 0.91870 0.33600
C 	C 	0.60050 0.74380 0.77250 -0.01500
C 	C 	0.82800 0.60050 0.85670 -0.01500
C 	C 	0.42350 0.15600 0.09330 0.33200
C 	C 	0.24370 0.97200 0.64730 -0.05100
C 	C 	0.26470 0.00930 0.51900 -0.12400
C 	C 	0.89400 0.29450 0.76810 -0.00600
C 	C 	0.83680 0.34870 0.83910 -0.13700
C 	C 	0.71740 0.45230 0.64790 0.01400
C 	C 	0.76280 0.37660 0.27000 0.31500
C 	C 	0.39220 0.75700 0.72220 -0.07400
C 	C 	0.79780 0.94230 0.42250 -0.06000
C 	C 	0.87180 0.03330 0.24570 -0.13300
C 	C 	0.76450 0.59000 0.82730 -0.03400
C 	C 	0.60280 0.82670 0.85850 -0.02600
C 	C 	0.37390 0.21240 0.24570 -0.12700
C 	C 	0.44380 0.53740 0.61240 0.33000
C 	C 	0.38470 0.67740 0.62910 -0.02300
C 	C 	0.03640 0.87130 0.24750 -0.13200
C 	C 	0.93730 0.84400 0.26750 0.33100
C 	C 	0.33000 0.96520 0.72220 -0.08300
C 	C 	0.73600 0.98510 0.48730 -0.10300
C 	C 	0.75280 0.02230 0.69830 0.10900
C 	C 	0.74570 0.26470 0.25540 -0.12800
C 	C 	0.92500 0.83140 0.38760 0.33200
C 	C 	0.50450 0.28850 0.48400 0.14900
C 	C 	0.82220 0.04640 0.70700 -0.02600
C 	C 	0.82670 0.96820 0.22390 -0.02100
C 	C 	0.21110 0.37620 0.24750 -0.12500
C 	C 	0.73200 0.33540 0.82680 -0.04800
C 	C 	0.27700 0.50910 0.57770 -0.01200
C 	C 	0.16320 0.00230 0.51190 -0.13100
C 	C 	0.62380 0.78890 0.75250 -0.12500
C 	C 	0.02420 0.68910 0.33070 0.01500
C 	C 	0.29300 0.94620 0.31980 -0.14500
C 	C 	0.28850 0.80450 0.78400 0.14900
C 	C 	0.02800 0.75630 0.35270 -0.05200
C 	C 	0.83140 0.44380 0.90640 0.33000
C 	C 	0.39950 0.17200 0.14330 -0.01500
C 	C 	0.07500 0.46260 0.90640 0.33000
C 	C 	0.12380 0.52260 0.22060 0.00100
C 	C 	0.69400 0.39700 0.70500 -0.02800
C 	C 	0.03330 0.78760 0.16150 -0.13400
C 	C 	0.69800 0.47740 0.60120 0.00100
C 	C 	0.24870 0.73600 0.75090 -0.10800
C 	C 	0.09480 0.49140 0.82680 -0.04800
C 	C 	0.87410 0.47360 0.76810 -0.00600
C 	C 	0.39720 0.25570 0.22390 -0.02600
C 	C 	0.66060 0.95360 0.77580 -0.02700
C 	C 	0.78760 0.62610 0.75430 -0.12700
C 	C 	0.40360 0.67530 0.64730 -0.04900
C 	C 	-0.00000 0.25990 0.25990 -0.15800
C 	C 	0.96670 0.12820 0.75430 -0.13100
C 	C 	0.99770 0.83680 0.48810 -0.12700
C 	C 	0.80750 0.06850 0.34520 0.02800
C 	C 	0.54770 0.28260 0.35210 0.01400
C 	C 	0.05770 0.20220 0.57750 -0.05900
C 	C 	0.37660 0.10660 0.61380 0.31600
C 	C 	0.03480 0.67000 0.27780 -0.08900
C 	C 	0.66460 0.26800 0.17320 -0.04800
C 	C 	0.21610 0.90640 0.69470 -0.04600
C 	C 	0.56200 0.47850 0.39430 0.36200
C 	C 	0.02230 0.32400 0.26950 0.10900
C 	C 	0.52260 0.30200 0.39880 0.00100
C 	C 	0.57650 0.66980 0.73250 0.33200
C 	C 	0.14710 0.40020 0.08130 0.33800
C 	C 	0.28260 0.93050 0.73490 0.01200
C 	C 	0.55620 0.16860 0.09360 0.33000
C 	C 	0.89340 0.62340 0.38620 0.31600
C 	C 	0.80440 0.06950 0.35210 0.01200
C 	C 	0.78830 0.09360 0.30970 -0.04600
C 	C 	0.99070 0.73530 0.48100 -0.12000
C 	C 	0.59640 0.24370 0.27170 -0.04900
C 	C 	0.33940 0.11520 0.29300 -0.02700
C 	C 	0.83540 0.99910 0.48350 -0.10200
C 	C 	0.87620 0.09680 0.39880 0.00200
C 	C 	0.67000 0.39220 0.63520 -0.07400
C 	C 	0.67760 0.42640 0.66840 -0.01500
C 	C 	0.00000 0.35900 0.35900 0.06600
C 	C 	0.34870 0.50960 0.51190 -0.13700
C 	C 	0.24300 0.60780 0.27780 -0.07400
C 	C 	0.78390 0.47860 0.69030 -0.04600
C 	C 	0.40020 0.31890 0.25310 0.33800
C 	C 	0.49110 0.62880 0.42950 -0.01700
C 	C 	0.55520 0.19700 0.28000 0.02200
C 	C 	0.04640 0.33940 0.22420 -0.02600
C 	C 	0.96520 0.24300 0.63520 -0.08200
C 	C 	0.49780 0.07170 0.77010 -0.03900
C 	C 	0.37620 0.12870 0.16510 -0.12500
C 	C 	0.41000 0.23550 0.17270 -0.03400
C 	C 	0.49280 0.76280 0.38620 0.31500
C 	C 	0.93150 0.19250 0.65480 0.02800
C 	C 	0.37530 0.79780 0.85550 -0.05600
C 	C 	0.99910 0.51560 0.16370 -0.10400
C 	C 	0.72480 0.08300 0.28000 0.02200
C 	C 	0.74430 0.60280 0.77610 -0.02600
C 	C 	0.43960 0.72480 0.63760 0.02000
C 	C 	0.27520 0.55520 0.35820 0.02200
C 	C 	0.24440 0.95170 0.62910 -0.02300
C 	C 	0.49000 0.70990 0.51390 0.16900
C 	C 	0.24720 0.94550 0.26950 0.10900
C 	C 	0.20910 0.53110 0.31660 -0.04100
C 	C 	0.06160 0.49110 0.86230 -0.01800
C 	C 	0.02050 0.50450 0.21600 0.14400
C 	C 	0.10840 0.37630 0.60790 0.34900
C 	C 	0.94550 0.67600 0.69830 0.11000
C 	C 	0.16860 0.07500 0.61240 0.33100
C 	C 	0.03180 0.17330 0.77610 -0.02200
C 	C 	0.75700 0.03480 0.36480 -0.08900
C 	C 	0.10750 0.78550 0.31660 -0.04100
C 	C 	0.50960 0.99770 0.16090 -0.13100
C 	C 	0.68910 0.35840 0.66490 0.00600
C 	C 	0.30200 0.90320 0.77940 0.00200
C 	C 	0.51560 0.35190 0.51650 -0.11100
C 	C 	0.97950 0.19550 0.48400 0.14600
C 	C 	0.69350 0.02420 0.33510 0.01500
C 	C 	0.90320 0.12380 0.60120 0.00100
C 	C 	0.48440 0.00090 0.83630 -0.10800
C 	C 	0.93260 0.14710 0.78370 0.17400
C 	C 	0.80300 0.44480 0.72000 0.02200
C 	C 	0.06860 0.49090 0.76790 -0.01300
C 	C 	0.72770 0.49780 0.42610 -0.03800
C 	C 	0.23730 0.41000 0.17450 -0.03400
C 	C 	0.19700 0.91700 0.64180 0.02200
C 	C 	0.14710 0.36340 0.21450 0.17200
C 	C 	0.97610 0.49000 0.78010 0.16800
C 	C 	0.17780 0.88480 0.22420 -0.02600
C 	C 	0.33020 0.42350 0.26750 0.33200
C 	C 	0.90520 0.73200 0.39660 -0.04400
C 	C 	0.78890 0.03640 0.16510 -0.13100
C 	C 	0.30600 0.01100 0.70300 -0.03100
C 	C 	0.30160 0.72770 0.22990 -0.03800
C 	C 	0.25430 0.50970 0.51900 -0.12900
C 	C 	0.97770 0.24720 0.30170 0.10900
C 	C 	0.05380 0.70700 0.68020 -0.14500
C 	C 	0.08300 0.80300 0.35820 0.02200
C 	C 	0.19800 0.91280 0.63760 0.02000
C 	C 	0.16770 0.56200 0.08350 0.36200
C 	C 	0.00930 0.49030 0.74460 -0.12700
C 	C 	0.15600 0.06270 0.73250 0.33100
C 	C 	0.04830 0.75560 0.37090 -0.02200
C 	C 	0.76840 0.50050 0.39210 0.34900
C 	C 	0.51980 0.37530 0.57750 -0.05600
C 	C 	0.09680 0.69800 0.22060 0.00200
C 	C 	0.06740 0.85110 0.21450 0.17600
C 	C 	0.93840 0.80070 0.42950 -0.02200
C 	C 	0.00920 0.67760 0.25120 -0.00200
C 	C 	0.35840 0.69350 0.66930 0.00600
C 	C 	0.75800 0.00920 0.33160 -0.00200
C 	C 	0.35190 0.83540 0.83630 -0.11100
C 	C 	0.47850 0.08420 0.91650 0.36200
C 	C 	0.62470 0.48020 0.42250 -0.05600
C 	C 	0.96360 0.21110 0.83490 -0.12900
C 	C 	0.47860 0.78830 0.69470 -0.04600
C 	C 	0.27230 0.69840 0.77010 -0.03800
C 	C 	0.95360 0.17780 0.29300 -0.02500
C 	C 	0.72940 0.90700 0.39380 -0.01500
C 	C 	0.14890 0.93260 0.78550 0.17500
C 	C 	0.19600 0.97610 0.48610 0.16500
C 	C 	0.59980 0.85290 0.91870 0.33800
C 	C 	0.98510 0.49780 0.24910 -0.10400
C 	C 	0.23160 0.62370 0.73210 0.34900
C 	C 	0.85110 0.63660 0.78370 0.17200
C 	C 	0.89160 0.49950 0.26790 0.35000
C 	C 	0.97580 0.30650 0.66490 0.01100
C 	C 	0.85290 0.06740 0.21630 0.17600
C 	C 	0.16460 0.64810 0.16370 -0.11100
C 	C 	0.21240 0.96670 0.83850 -0.13200
C 	C 	0.92830 0.50220 0.22990 -0.04000
C 	C 	0.75130 0.50220 0.48730 -0.10800
C 	C 	0.27520 0.56040 0.36240 0.02000
C 	C 	0.09360 0.78390 0.30530 -0.04600
C 	C 	0.60300 0.30600 0.29500 -0.02800
C 	C 	0.00090 0.16460 0.51650 -0.10600
C 	C 	0.48680 0.09300 0.82240 -0.01700
C 	C 	0.88480 0.66060 0.70700 -0.02700
C 	C 	0.10600 0.87410 0.40050 -0.00600
C 	C 	0.64160 0.31090 0.33510 0.00600
C 	C 	0.24200 0.57360 0.25120 -0.01500
C 	C 	0.51000 0.02390 0.21990 0.16400
C 	C 	0.37360 0.05380 0.34680 -0.14500
C 	C 	0.84400 0.57650 0.90670 0.33200
C 	C 	0.74380 0.97130 0.14330 -0.01000
C 	C 	-0.00000 0.74010 0.74010 -0.15900
C 	C 	0.50910 0.93140 0.23210 -0.01500
C 	C 	0.25570 0.03180 0.85850 -0.02200
C 	C 	0.21170 0.52140 0.30530 -0.04600
C 	C 	0.42640 0.75800 0.74880 -0.01500
C 	C 	0.85290 0.93420 0.25310 0.33600
C 	C 	0.05450 0.75280 0.73050 0.10900
C 	C 	0.73530 0.25430 0.74460 -0.12800
C 	C 	0.49550 0.97950 0.78400 0.14700
C 	C 	0.17330 0.39720 0.14150 -0.02600
C 	C 	0.89250 0.20910 0.67800 -0.04100
O 	O 	0.59590 0.91550 0.41680 -0.41300
O 	O 	0.17910 0.59590 0.68040 -0.41300
O 	O 	0.50500 0.91820 0.32220 -0.39400
O 	O 	0.10320 0.34140 0.23740 -0.20800
O 	O 	0.65370 0.97130 0.06980 -0.41900
O 	O 	0.13420 0.89600 0.23740 -0.20900
O 	O 	0.53260 0.86960 0.07280 -0.40300
O 	O 	0.19350 0.12400 0.75770 -0.41100
O 	O 	0.43580 0.19350 0.06950 -0.41200
O 	O 	0.04120 0.10830 0.58370 -0.40500
O 	O 	0.89680 0.13420 0.23820 -0.20900
O 	O 	0.59830 0.84170 0.33800 -0.40200
O 	O 	0.45520 0.79940 0.93660 -0.42000
O 	O 	0.91550 0.49870 0.31960 -0.41300
O 	O 	0.50130 0.08450 0.68040 -0.41300
O 	O 	0.65860 0.89680 0.76260 -0.20800
O 	O 	0.74380 0.17060 0.25240 -0.21000
O 	O 	0.54020 0.20320 0.07280 -0.40300
O 	O 	0.51860 0.45520 0.65580 -0.42000
O 	O 	0.08180 0.49500 0.67780 -0.39400
O 	O 	0.26030 0.59830 0.75660 -0.40200
O 	O 	0.81280 0.87600 0.23100 -0.39100
O 	O 	0.64500 0.58180 0.76900 -0.39200
O 	O 	0.95880 0.54250 0.06710 -0.40500
O 	O 	0.36630 0.43580 0.24230 -0.41200
O 	O 	0.17060 0.91820 0.42680 -0.20900
O 	O 	0.73970 0.49630 0.33800 -0.40200
O 	O 	0.96300 0.89320 0.41440 -0.40000
O 	O 	0.15830 0.40170 0.66200 -0.40200
O 	O 	0.16170 0.73650 0.24520 -0.21200
O 	O 	0.12400 0.36630 0.93050 -0.41100
O 	O 	0.34630 0.41610 0.31760 -0.42100
O 	O 	0.47540 0.89170 0.93290 -0.40600
O 	O 	0.48140 0.13720 0.93660 -0.41900
O 	O 	0.12400 0.18720 0.76900 -0.39100
O 	O 	0.46740 0.54020 0.33700 -0.40300
O 	O 	0.80650 0.56420 0.93050 -0.41200
O 	O 	0.02710 0.09320 0.69290 -0.38900
O 	O 	0.54860 0.96300 0.06980 -0.40000
O 	O 	0.59600 0.18280 0.67780 -0.39400
O 	O 	0.49870 0.17910 0.58320 -0.41300
O 	O 	0.20320 0.13040 0.66300 -0.40300
O 	O 	0.18720 0.41820 0.06320 -0.39200
O 	O 	0.90680 0.97290 0.30710 -0.38900
O 	O 	0.33420 0.02710 0.93390 -0.38900
O 	O 	0.49140 0.74380 0.57320 -0.21000
O 	O 	0.83830 0.08350 0.57480 -0.21100
O 	O 	0.50020 0.83680 0.24240 -0.40400
O 	O 	0.49130 0.91650 0.75480 -0.21200
O 	O 	0.50870 0.26350 0.42520 -0.21200
O 	O 	0.45980 0.53260 0.66300 -0.40300
O 	O 	0.08450 0.40410 0.58320 -0.41300
O 	O 	0.82940 0.25620 0.74760 -0.21000
O 	O 	0.79680 0.45980 0.92720 -0.40300
O 	O 	0.59970 0.90680 0.93390 -0.39000
O 	O 	0.40170 0.73970 0.24340 -0.40200
O 	O 	0.49500 0.81720 0.41320 -0.39400
O 	O 	0.45140 0.52120 0.41440 -0.40100
O 	O 	0.81720 0.40400 0.32220 -0.39400
O 	O 	0.91820 0.49140 0.74760 -0.21000
O 	O 	0.45750 0.04120 0.93290 -0.40500
O 	O 	0.09320 0.40030 0.06610 -0.39000
O 	O 	0.08180 0.82940 0.57320 -0.20800
O 	O 	0.91820 0.59600 0.41320 -0.39400
O 	O 	0.52120 0.10680 0.06980 -0.40100
O 	O 	0.91650 0.16170 0.42520 -0.21200
O 	O 	0.86280 0.51860 0.06340 -0.42000
O 	O 	0.26350 0.83830 0.75480 -0.21200
O 	O 	0.90150 0.58390 0.93020 -0.42100
O 	O 	0.18280 0.50500 0.58680 -0.39400
O 	O 	0.73650 0.49130 0.57480 -0.21200
O 	O 	0.25780 0.50020 0.66340 -0.40400
O 	O 	0.54250 0.47540 0.58370 -0.40600
O 	O 	0.56420 0.63370 0.75770 -0.41200
O 	O 	0.79940 0.86280 0.34420 -0.42000
O 	O 	0.54480 0.48140 0.34420 -0.42000
O 	O 	0.50860 0.08180 0.25240 -0.20900
O 	O 	0.83680 0.59440 0.33660 -0.40400
O 	O 	0.86580 0.10320 0.76180 -0.20900
O 	O 	0.86960 0.79680 0.33700 -0.40300
O 	O 	0.59440 0.25780 0.75760 -0.40400
O 	O 	0.08350 0.50870 0.24520 -0.21100
O 	O 	0.13720 0.20060 0.65580 -0.42000
O 	O 	0.34140 0.10400 0.23820 -0.20800
O 	O 	0.49630 0.15830 0.75660 -0.40200
O 	O 	0.10680 0.03700 0.58560 -0.40100
O 	O 	0.84170 0.50370 0.24340 -0.40200
O 	O 	0.74220 0.40560 0.24240 -0.40400
O 	O 	0.58180 0.81280 0.93680 -0.39200
O 	O 	0.20060 0.54480 0.06340 -0.42000
O 	O 	0.82090 0.50130 0.41680 -0.41300
O 	O 	0.97290 0.66580 0.06610 -0.38800
O 	O 	0.02870 0.34630 0.93020 -0.42000
O 	O 	0.47880 0.54860 0.58560 -0.40100
O 	O 	0.40410 0.82090 0.31960 -0.41300
O 	O 	0.87600 0.80650 0.24230 -0.41100
O 	O 	0.97130 0.90150 0.31760 -0.41900
O 	O 	0.10400 0.86580 0.76260 -0.20900
O 	O 	0.40030 0.33420 0.30710 -0.39000
O 	O 	0.41610 0.09850 0.06980 -0.42100
O 	O 	0.52460 0.45750 0.41630 -0.40600
O 	O 	0.40400 0.08180 0.58680 -0.39500
O 	O 	0.09850 0.02870 0.68240 -0.42000
O 	O 	0.35500 0.12400 0.93680 -0.39100
O 	O 	0.03700 0.45140 0.93020 -0.40000
O 	O 	0.89170 0.95880 0.41630 -0.40500
O 	O 	0.10830 0.52460 0.06710 -0.40600
O 	O 	0.89320 0.47880 0.93020 -0.40100
O 	O 	0.40560 0.16320 0.66340 -0.40400
O 	O 	0.49980 0.74220 0.33660 -0.40400
O 	O 	0.16320 0.49980 0.75760 -0.40400
O 	O 	0.89600 0.65860 0.76180 -0.20800
O 	O 	0.25620 0.50860 0.42680 -0.21000
O 	O 	0.41820 0.35500 0.23100 -0.39200
O 	O 	0.58390 0.65370 0.68240 -0.42100
O 	O 	0.13040 0.46740 0.92720 -0.40300
O 	O 	0.66580 0.59970 0.69290 -0.39000
O 	O 	0.87600 0.64500 0.06320 -0.39000
O 	O 	0.63370 0.87600 0.06950 -0.41100
O 	O 	0.50370 0.26030 0.66200 -0.40200
