data_crystal

_cell_length_a 39.28800
_cell_length_b 39.28800
_cell_length_c 39.28800
_cell_angle_alpha 90.00000
_cell_angle_beta  90.00000
_cell_angle_gamma 90.00000

_symmetry_space_group_name_	'P 1'
_symmetry_space_group_name_H-M	'P 1'

loop_
_symmetry_equiv_pos_as_xyz
  x,y,z

loop_
_atom_site_label
_atom_site_type_symbol
_atom_site_fract_x
_atom_site_fract_y
_atom_site_fract_z
_atom_site_charge
Co	Co	0.97023 0.71319 0.57933 1.09500
Co	Co	0.07933 0.97023 0.78681 1.09500
Co	Co	0.96524 0.46617 0.63595 1.18300
Co	Co	0.03476 0.53383 0.36405 1.18300
Co	Co	0.21319 0.92067 0.02977 1.09500
Co	Co	0.57933 0.97023 0.71319 1.09500
Co	Co	0.28681 0.07933 0.52977 1.09500
Co	Co	0.03383 0.36405 0.46524 1.18300
Co	Co	0.46524 0.03383 0.36405 1.18300
Co	Co	0.46524 0.46617 0.86405 1.18300
Co	Co	0.92067 0.02977 0.21319 1.09500
Co	Co	0.96524 0.03383 0.13595 1.18300
Co	Co	0.86405 0.46524 0.46617 1.18300
Co	Co	0.78681 0.07933 0.97023 1.09500
Co	Co	0.13595 0.96524 0.03383 1.18300
Co	Co	0.97023 0.78681 0.07933 1.09500
Co	Co	0.71319 0.92067 0.47023 1.09500
Co	Co	0.46617 0.63595 0.96524 1.18300
Co	Co	0.03383 0.13595 0.96524 1.18300
Co	Co	0.86405 0.03476 0.96617 1.18300
Co	Co	0.21319 0.57933 0.52977 1.09500
Co	Co	0.36405 0.46524 0.03383 1.18300
Co	Co	0.96617 0.63595 0.53476 1.18300
Co	Co	0.53383 0.13595 0.53476 1.18300
Co	Co	0.46617 0.86405 0.46524 1.18300
Co	Co	0.57933 0.52977 0.21319 1.09500
Co	Co	0.78681 0.42067 0.47023 1.09500
Co	Co	0.63595 0.53476 0.96617 1.18300
Co	Co	0.52977 0.21319 0.57933 1.09500
Co	Co	0.96617 0.86405 0.03476 1.18300
Co	Co	0.28681 0.42067 0.02977 1.09500
Co	Co	0.53476 0.96617 0.63595 1.18300
Co	Co	0.53383 0.36405 0.03476 1.18300
Co	Co	0.63595 0.96524 0.46617 1.18300
Co	Co	0.02977 0.21319 0.92067 1.09500
Co	Co	0.47023 0.71319 0.92067 1.09500
Co	Co	0.07933 0.52977 0.28681 1.09500
Co	Co	0.03476 0.96617 0.86405 1.18300
Co	Co	0.42067 0.02977 0.28681 1.09500
Co	Co	0.92067 0.47023 0.71319 1.09500
Co	Co	0.02977 0.28681 0.42067 1.09500
Co	Co	0.53476 0.53383 0.13595 1.18300
Co	Co	0.52977 0.28681 0.07933 1.09600
Co	Co	0.36405 0.03476 0.53383 1.18400
Co	Co	0.42067 0.47023 0.78681 1.09600
Co	Co	0.47023 0.78681 0.42067 1.09600
Co	Co	0.13595 0.53476 0.53383 1.18400
Co	Co	0.71319 0.57933 0.97023 1.09600
H 	H 	0.16810 0.33910 0.49220 0.08900
H 	H 	0.60820 0.22870 0.83190 -0.05200
H 	H 	0.61590 0.19420 0.78070 0.20000
H 	H 	0.88410 0.69420 0.78070 0.20000
H 	H 	0.04660 0.82660 0.27300 0.08800
H 	H 	0.16090 0.99220 0.16810 0.08900
H 	H 	0.24810 0.30630 0.60670 0.13000
H 	H 	0.42440 0.22880 0.54550 0.06200
H 	H 	0.14990 0.70090 0.96600 0.02100
H 	H 	0.80580 0.28070 0.88410 0.20000
H 	H 	0.78170 0.91910 0.96820 0.09200
H 	H 	0.27130 0.33190 0.60820 -0.05200
H 	H 	0.69370 0.10670 0.25190 0.13000
H 	H 	0.78220 0.24480 0.39120 -0.17500
H 	H 	0.53830 0.16360 0.67210 0.07300
H 	H 	0.77300 0.04660 0.67340 0.08800
H 	H 	0.37910 0.56950 0.00140 0.05300
H 	H 	0.12090 0.43050 0.50140 0.05300
H 	H 	0.69350 0.65930 0.54320 0.07400
H 	H 	0.22880 0.54550 0.42440 0.06200
H 	H 	0.54660 0.82660 0.22700 0.08800
H 	H 	0.54660 0.67340 0.72700 0.08800
H 	H 	0.53400 0.64990 0.70090 0.02100
H 	H 	0.60880 0.21780 0.75520 -0.17500
H 	H 	0.95340 0.17340 0.72700 0.08800
H 	H 	0.33190 0.60820 0.27130 -0.05200
H 	H 	0.24810 0.19370 0.10670 0.13000
H 	H 	0.04550 0.07330 0.87450 0.03500
H 	H 	0.67340 0.72700 0.54660 0.08800
H 	H 	0.18270 0.55470 0.78550 0.02100
H 	H 	0.83190 0.66090 0.50780 0.08900
H 	H 	0.30630 0.60670 0.24810 0.13000
H 	H 	0.33910 0.00780 0.66810 0.08900
H 	H 	0.39120 0.78220 0.24480 -0.17500
H 	H 	0.10670 0.25190 0.69370 0.13000
H 	H 	0.27120 0.04550 0.42440 0.06200
H 	H 	0.54550 0.42440 0.22880 0.06200
H 	H 	0.81730 0.05470 0.71450 0.02100
H 	H 	0.89180 0.72870 0.83190 -0.05200
H 	H 	0.19370 0.39330 0.74810 0.13000
H 	H 	0.60880 0.28220 0.25520 -0.17500
H 	H 	0.67210 0.53830 0.16360 0.07300
H 	H 	0.99860 0.87910 0.93050 0.05300
H 	H 	0.62550 0.95450 0.57330 0.03500
H 	H 	0.72700 0.95340 0.17340 0.08800
H 	H 	0.58090 0.03180 0.28170 0.09200
H 	H 	0.80630 0.89330 0.75190 0.13000
H 	H 	0.39180 0.77130 0.16810 -0.05200
H 	H 	0.80630 0.60670 0.25190 0.13000
H 	H 	0.12550 0.54550 0.42670 0.03500
H 	H 	0.50140 0.12090 0.43050 0.05300
H 	H 	0.56950 0.49860 0.87910 0.05300
H 	H 	0.54550 0.42670 0.12550 0.03500
H 	H 	0.88410 0.80580 0.28070 0.20000
H 	H 	0.92440 0.27120 0.45450 0.06200
H 	H 	0.46820 0.78170 0.58090 0.09200
H 	H 	0.16360 0.67210 0.53830 0.07300
H 	H 	0.30650 0.34070 0.45680 0.07400
H 	H 	0.34070 0.04320 0.80650 0.07400
H 	H 	0.29910 0.03400 0.85010 0.02100
H 	H 	0.68270 0.94530 0.21450 0.02100
H 	H 	0.19350 0.84070 0.45680 0.07400
H 	H 	0.69350 0.84070 0.04320 0.07400
H 	H 	0.58090 0.46820 0.78170 0.09200
H 	H 	0.95450 0.92440 0.22880 0.06200
H 	H 	0.46600 0.14990 0.79910 0.02100
H 	H 	0.92670 0.12550 0.95450 0.03500
H 	H 	0.22870 0.66810 0.10820 -0.05200
H 	H 	0.75520 0.60880 0.21780 -0.17500
H 	H 	0.83640 0.17210 0.96170 0.07300
H 	H 	0.81730 0.44530 0.21450 0.02100
H 	H 	0.57330 0.62550 0.95450 0.03500
H 	H 	0.38410 0.80580 0.21930 0.20000
H 	H 	0.93050 0.99860 0.87910 0.05300
H 	H 	0.29910 0.46600 0.35010 0.02100
H 	H 	0.85010 0.20090 0.53400 0.02100
H 	H 	0.62550 0.54550 0.07330 0.03500
H 	H 	0.43050 0.99860 0.62090 0.05300
H 	H 	0.25520 0.60880 0.28220 -0.17500
H 	H 	0.64990 0.70090 0.53400 0.02100
H 	H 	0.21780 0.75520 0.60880 -0.17500
H 	H 	0.21930 0.11590 0.30580 0.20000
H 	H 	0.80580 0.21930 0.38410 0.20000
H 	H 	0.74810 0.19370 0.39330 0.13000
H 	H 	0.78070 0.88410 0.69420 0.20000
H 	H 	0.53180 0.21830 0.41910 0.09200
H 	H 	0.41910 0.53180 0.21830 0.09200
H 	H 	0.11590 0.19420 0.71930 0.20000
H 	H 	0.32790 0.03830 0.33640 0.07300
H 	H 	0.77300 0.45340 0.17340 0.08800
H 	H 	0.03180 0.21830 0.08090 0.09200
H 	H 	0.64990 0.79910 0.03400 0.02100
H 	H 	0.39180 0.72870 0.66810 -0.05200
H 	H 	0.75190 0.80630 0.89330 0.13000
H 	H 	0.22700 0.95340 0.32660 0.08800
H 	H 	0.91910 0.96820 0.78170 0.09200
H 	H 	0.49220 0.33190 0.83910 0.08900
H 	H 	0.33640 0.32790 0.03830 0.07300
H 	H 	0.96170 0.83640 0.17210 0.07300
H 	H 	0.96600 0.14990 0.70090 0.02100
H 	H 	0.27130 0.16810 0.10820 -0.05200
H 	H 	0.77130 0.33190 0.89180 -0.05200
H 	H 	0.50140 0.37910 0.93050 0.05300
H 	H 	0.28220 0.24480 0.10880 -0.17500
H 	H 	0.95340 0.32660 0.22700 0.08800
H 	H 	0.71830 0.41910 0.96820 0.09200
H 	H 	0.45450 0.92440 0.27120 0.06200
H 	H 	0.16360 0.82790 0.03830 0.07300
H 	H 	0.80650 0.15930 0.54320 0.07400
H 	H 	0.95450 0.57330 0.62550 0.03500
H 	H 	0.44530 0.21450 0.81730 0.02100
H 	H 	0.74480 0.10880 0.21780 -0.17500
H 	H 	0.25520 0.89120 0.78220 -0.17500
H 	H 	0.96820 0.71830 0.41910 0.09200
H 	H 	0.69420 0.71930 0.38410 0.20000
H 	H 	0.04660 0.67340 0.77300 0.08800
H 	H 	0.87910 0.56950 0.49860 0.05300
H 	H 	0.33190 0.83910 0.49220 0.08900
H 	H 	0.42670 0.37450 0.04550 0.03500
H 	H 	0.78220 0.25520 0.89120 -0.17500
H 	H 	0.72880 0.54550 0.07560 0.06200
H 	H 	0.16090 0.50780 0.66810 0.08900
H 	H 	0.30650 0.15930 0.95680 0.07400
H 	H 	0.72870 0.66810 0.39180 -0.05200
H 	H 	0.28170 0.91910 0.53180 0.09200
H 	H 	0.77120 0.04550 0.07560 0.06200
H 	H 	0.78550 0.31730 0.05470 0.02100
H 	H 	0.66810 0.10820 0.22870 -0.05200
H 	H 	0.21780 0.74480 0.10880 -0.17500
H 	H 	0.89330 0.74810 0.30630 0.13000
H 	H 	0.72880 0.95450 0.57560 0.06200
H 	H 	0.85010 0.29910 0.03400 0.02100
H 	H 	0.83190 0.83910 0.00780 0.08900
H 	H 	0.96600 0.35010 0.20090 0.02100
H 	H 	0.16810 0.16090 0.99220 0.08900
H 	H 	0.12090 0.06950 0.00140 0.05300
H 	H 	0.28550 0.31730 0.44530 0.02100
H 	H 	0.66810 0.33910 0.00780 0.08900
H 	H 	0.37450 0.45450 0.92670 0.03500
H 	H 	0.33190 0.89180 0.77130 -0.05200
H 	H 	0.42670 0.12550 0.54550 0.03500
H 	H 	0.08090 0.46820 0.71830 0.09200
H 	H 	0.46820 0.71830 0.08090 0.09200
H 	H 	0.92670 0.37450 0.45450 0.03500
H 	H 	0.60820 0.27130 0.33190 -0.05200
H 	H 	0.54550 0.07330 0.62550 0.03500
H 	H 	0.53400 0.85010 0.20090 0.02100
H 	H 	0.84070 0.45680 0.19350 0.07400
H 	H 	0.45450 0.57330 0.87450 0.03500
H 	H 	0.27300 0.04660 0.82660 0.08800
H 	H 	0.03400 0.85010 0.29910 0.02100
H 	H 	0.03830 0.16360 0.82790 0.07300
H 	H 	0.49220 0.16810 0.33910 0.08900
H 	H 	0.71930 0.11590 0.19420 0.20000
H 	H 	0.99220 0.16810 0.16090 0.08900
H 	H 	0.45680 0.19350 0.84070 0.07400
H 	H 	0.43050 0.50140 0.12090 0.05300
H 	H 	0.32790 0.46170 0.83640 0.07300
H 	H 	0.95680 0.30650 0.15930 0.07400
H 	H 	0.72870 0.83190 0.89180 -0.05200
H 	H 	0.28220 0.25520 0.60880 -0.17500
H 	H 	0.24480 0.39120 0.78220 -0.17500
H 	H 	0.83190 0.60820 0.22870 -0.05200
H 	H 	0.96170 0.66360 0.67210 0.07300
H 	H 	0.39330 0.74810 0.19370 0.13000
H 	H 	0.46600 0.35010 0.29910 0.02100
H 	H 	0.71780 0.74480 0.39120 -0.17500
H 	H 	0.79910 0.46600 0.14990 0.02100
H 	H 	0.50780 0.66810 0.16090 0.08900
H 	H 	0.30630 0.89330 0.74810 0.13000
H 	H 	0.57330 0.87450 0.45450 0.03500
H 	H 	0.93050 0.50140 0.37910 0.05300
H 	H 	0.04550 0.42670 0.37450 0.03500
H 	H 	0.66360 0.67210 0.96170 0.07300
H 	H 	0.65930 0.95680 0.19350 0.07400
H 	H 	0.00140 0.37910 0.56950 0.05300
H 	H 	0.95450 0.92670 0.12550 0.03500
H 	H 	0.17210 0.53830 0.33640 0.07300
H 	H 	0.06950 0.49860 0.62090 0.05300
H 	H 	0.87450 0.04550 0.07330 0.03500
H 	H 	0.38410 0.69420 0.71930 0.20000
H 	H 	0.57560 0.72880 0.95450 0.06200
H 	H 	0.20090 0.53400 0.85010 0.02100
H 	H 	0.70090 0.96600 0.14990 0.02100
H 	H 	0.03400 0.64990 0.79910 0.02100
H 	H 	0.50780 0.83190 0.66090 0.08900
H 	H 	0.78070 0.61590 0.19420 0.20000
H 	H 	0.96820 0.78170 0.91910 0.09200
H 	H 	0.82660 0.22700 0.54660 0.08800
H 	H 	0.04550 0.07560 0.77120 0.06200
H 	H 	0.10880 0.21780 0.74480 -0.17500
H 	H 	0.32660 0.22700 0.95340 0.08800
H 	H 	0.71450 0.68270 0.55470 0.02100
H 	H 	0.53830 0.33640 0.17210 0.07300
H 	H 	0.27300 0.45340 0.32660 0.08800
H 	H 	0.21930 0.38410 0.80580 0.20000
H 	H 	0.35010 0.20090 0.96600 0.02100
H 	H 	0.19420 0.78070 0.61590 0.20000
H 	H 	0.22700 0.54660 0.82660 0.08800
H 	H 	0.10670 0.24810 0.19370 0.13000
H 	H 	0.08090 0.03180 0.21830 0.09200
H 	H 	0.07560 0.77120 0.04550 0.06200
H 	H 	0.55470 0.71450 0.68270 0.02100
H 	H 	0.21830 0.08090 0.03180 0.09200
H 	H 	0.30580 0.21930 0.11590 0.20000
H 	H 	0.15930 0.95680 0.30650 0.07400
H 	H 	0.71450 0.81730 0.05470 0.02100
H 	H 	0.45450 0.92670 0.37450 0.03500
H 	H 	0.33910 0.49220 0.16810 0.08900
H 	H 	0.31730 0.44530 0.28550 0.02100
H 	H 	0.71830 0.08090 0.46820 0.09200
H 	H 	0.06950 0.00140 0.12090 0.05300
H 	H 	0.66090 0.50780 0.83190 0.08900
H 	H 	0.67340 0.77300 0.04660 0.08800
H 	H 	0.95450 0.57560 0.72880 0.06200
H 	H 	0.39120 0.71780 0.74480 -0.17500
H 	H 	0.46170 0.83640 0.32790 0.07300
H 	H 	0.18270 0.94530 0.28550 0.02100
H 	H 	0.44530 0.28550 0.31730 0.02100
H 	H 	0.78550 0.18270 0.55470 0.02100
H 	H 	0.39330 0.75190 0.69370 0.13000
H 	H 	0.55470 0.78550 0.18270 0.02100
H 	H 	0.25190 0.80630 0.60670 0.13000
H 	H 	0.45340 0.17340 0.77300 0.08800
H 	H 	0.04550 0.42440 0.27120 0.06200
H 	H 	0.83910 0.00780 0.83190 0.08900
H 	H 	0.89330 0.75190 0.80630 0.13000
H 	H 	0.15930 0.54320 0.80650 0.07400
H 	H 	0.37450 0.04550 0.42670 0.03500
H 	H 	0.69420 0.78070 0.88410 0.20000
H 	H 	0.00780 0.66810 0.33910 0.08900
H 	H 	0.87450 0.45450 0.57330 0.03500
H 	H 	0.21450 0.81730 0.44530 0.02100
H 	H 	0.17210 0.96170 0.83640 0.07300
H 	H 	0.32660 0.27300 0.45340 0.08800
H 	H 	0.17340 0.72700 0.95340 0.08800
H 	H 	0.61590 0.30580 0.28070 0.20000
H 	H 	0.60670 0.25190 0.80630 0.13000
H 	H 	0.87910 0.93050 0.99860 0.05300
H 	H 	0.14990 0.79910 0.46600 0.02100
H 	H 	0.07330 0.62550 0.54550 0.03500
H 	H 	0.62090 0.43050 0.99860 0.05300
H 	H 	0.00140 0.12090 0.06950 0.05300
H 	H 	0.83640 0.32790 0.46170 0.07300
H 	H 	0.99860 0.62090 0.43050 0.05300
H 	H 	0.45450 0.57560 0.77120 0.06200
H 	H 	0.45680 0.30650 0.34070 0.07400
H 	H 	0.19370 0.10670 0.24810 0.13000
H 	H 	0.79910 0.03400 0.64990 0.02100
H 	H 	0.27120 0.45450 0.92440 0.06200
H 	H 	0.53180 0.28170 0.91910 0.09200
H 	H 	0.99220 0.33190 0.66090 0.08900
H 	H 	0.04320 0.80650 0.34070 0.07400
H 	H 	0.57560 0.77120 0.45450 0.06200
H 	H 	0.03830 0.33640 0.32790 0.07300
H 	H 	0.78170 0.58090 0.46820 0.09200
H 	H 	0.00780 0.83190 0.83910 0.08900
H 	H 	0.07330 0.87450 0.04550 0.03500
H 	H 	0.21450 0.68270 0.94530 0.02100
H 	H 	0.22870 0.83190 0.60820 -0.05200
H 	H 	0.84070 0.04320 0.69350 0.07400
H 	H 	0.66360 0.82790 0.46170 0.07300
H 	H 	0.11590 0.30580 0.21930 0.20000
H 	H 	0.49860 0.87910 0.56950 0.05300
H 	H 	0.80650 0.34070 0.04320 0.07400
H 	H 	0.82790 0.03830 0.16360 0.07300
H 	H 	0.83190 0.89180 0.72870 -0.05200
H 	H 	0.19420 0.71930 0.11590 0.20000
H 	H 	0.49860 0.62090 0.06950 0.05300
H 	H 	0.82790 0.46170 0.66360 0.07300
H 	H 	0.54320 0.69350 0.65930 0.07400
H 	H 	0.30580 0.28070 0.61590 0.20000
H 	H 	0.94530 0.21450 0.68270 0.02100
H 	H 	0.83910 0.49220 0.33190 0.08900
H 	H 	0.82660 0.27300 0.04660 0.08800
H 	H 	0.77120 0.45450 0.57560 0.06200
H 	H 	0.07560 0.72880 0.54550 0.06200
H 	H 	0.10880 0.28220 0.24480 -0.17500
H 	H 	0.74810 0.30630 0.89330 0.13000
H 	H 	0.75190 0.69370 0.39330 0.13000
H 	H 	0.20090 0.96600 0.35010 0.02100
H 	H 	0.10820 0.27130 0.16810 -0.05200
H 	H 	0.05470 0.78550 0.31730 0.02100
H 	H 	0.54320 0.80650 0.15930 0.07400
H 	H 	0.89120 0.71780 0.75520 -0.17500
H 	H 	0.74480 0.39120 0.71780 -0.17500
H 	H 	0.95680 0.19350 0.65930 0.07400
H 	H 	0.21830 0.41910 0.53180 0.09200
H 	H 	0.68270 0.55470 0.71450 0.02100
H 	H 	0.69370 0.39330 0.75190 0.13000
H 	H 	0.41910 0.96820 0.71830 0.09200
H 	H 	0.24480 0.10880 0.28220 -0.17500
H 	H 	0.56950 0.00140 0.37910 0.05300
H 	H 	0.19350 0.65930 0.95680 0.07400
H 	H 	0.42440 0.27120 0.04550 0.06200
H 	H 	0.66810 0.39180 0.72870 -0.05200
H 	H 	0.45340 0.32660 0.27300 0.08800
H 	H 	0.12550 0.95450 0.92670 0.03500
H 	H 	0.16810 0.39180 0.77130 -0.05200
H 	H 	0.67210 0.96170 0.66360 0.07300
H 	H 	0.03180 0.28170 0.58090 0.09200
H 	H 	0.28170 0.58090 0.03180 0.09200
H 	H 	0.72700 0.54660 0.67340 0.08800
H 	H 	0.71780 0.75520 0.89120 -0.17500
H 	H 	0.17340 0.77300 0.45340 0.08800
H 	H 	0.75520 0.89120 0.71780 -0.17500
H 	H 	0.33640 0.17210 0.53830 0.07300
H 	H 	0.28070 0.88410 0.80580 0.20000
H 	H 	0.10820 0.22870 0.66810 -0.05200
H 	H 	0.66810 0.16090 0.50780 0.08900
H 	H 	0.65930 0.54320 0.69350 0.07400
H 	H 	0.89180 0.77130 0.33190 -0.05200
H 	H 	0.31730 0.05470 0.78550 0.02100
H 	H 	0.22880 0.95450 0.92440 0.06200
H 	H 	0.91910 0.53180 0.28170 0.09200
H 	H 	0.37910 0.93050 0.50140 0.05300
H 	H 	0.46170 0.66360 0.82790 0.07300
H 	H 	0.94530 0.28550 0.18270 0.02100
H 	H 	0.35010 0.29910 0.46600 0.02100
H 	H 	0.77130 0.16810 0.39180 -0.05200
H 	H 	0.54550 0.07560 0.72880 0.06200
H 	H 	0.70090 0.53400 0.64990 0.02100
H 	H 	0.33190 0.66090 0.99220 0.08900
H 	H 	0.92440 0.22880 0.95450 0.06200
H 	H 	0.34070 0.45680 0.30650 0.07400
H 	H 	0.28070 0.61590 0.30580 0.20000
H 	H 	0.04320 0.69350 0.84070 0.07400
H 	H 	0.66090 0.99220 0.33190 0.08900
H 	H 	0.71930 0.38410 0.69420 0.20000
H 	H 	0.89120 0.78220 0.25520 -0.17500
H 	H 	0.62090 0.06950 0.49860 0.05300
H 	H 	0.25190 0.69370 0.10670 0.13000
H 	H 	0.28550 0.18270 0.94530 0.02100
H 	H 	0.16810 0.10820 0.27130 -0.05200
H 	H 	0.05470 0.71450 0.81730 0.02100
H 	H 	0.60670 0.24810 0.30630 0.13000
C 	C 	0.01700 0.16970 0.06880 -0.06300
C 	C 	0.32710 0.45870 0.86030 -0.04200
C 	C 	0.73430 0.06540 0.19280 -0.45000
C 	C 	0.85930 0.91690 0.99600 0.01600
C 	C 	0.24720 0.99100 0.85230 0.45700
C 	C 	0.76750 0.17270 0.44310 0.28700
C 	C 	0.95870 0.86030 0.17290 -0.04200
C 	C 	0.12570 0.01370 0.19620 0.13800
C 	C 	0.98080 0.38970 0.63540 0.32700
C 	C 	0.45470 0.91360 0.29280 -0.01900
C 	C 	0.32520 0.04900 0.46850 0.46000
C 	C 	0.30670 0.32730 0.47690 -0.10400
C 	C 	0.74270 0.81330 0.94310 -0.35800
C 	C 	0.24720 0.50900 0.35230 0.45700
C 	C 	0.14770 0.74720 0.50900 0.45700
C 	C 	0.22960 0.41000 0.78350 0.63600
C 	C 	0.00510 0.72630 0.82080 0.02200
C 	C 	0.38260 0.49470 0.13970 -0.04600
C 	C 	0.82870 0.53320 0.47290 0.35900
C 	C 	0.33140 0.86220 0.49950 -0.08600
C 	C 	0.69110 0.96750 0.20950 0.05700
C 	C 	0.93460 0.80720 0.26570 -0.45000
C 	C 	0.36460 0.48080 0.11030 0.32700
C 	C 	0.26570 0.93460 0.80720 -0.45000
C 	C 	0.71860 0.66960 0.49920 -0.06700
C 	C 	0.32080 0.49490 0.27370 0.02200
C 	C 	0.99560 0.82480 0.27390 -0.00900
C 	C 	0.22610 0.49560 0.82480 -0.00900
C 	C 	0.06880 0.48300 0.66970 -0.06300
C 	C 	0.19620 0.37430 0.51370 0.13800
C 	C 	0.04530 0.08640 0.79280 -0.01900
C 	C 	0.08750 0.23940 0.70150 -0.27800
C 	C 	0.53360 0.30730 0.28480 0.00700
C 	C 	0.79050 0.90590 0.69770 -0.60800
C 	C 	0.82520 0.45100 0.53150 0.46000
C 	C 	0.81330 0.55690 0.24270 -0.35800
C 	C 	0.32080 0.00510 0.77370 0.02200
C 	C 	0.00190 0.24270 0.64000 0.07000
C 	C 	0.29850 0.91250 0.76060 -0.27800
C 	C 	0.49470 0.36030 0.88260 -0.04600
C 	C 	0.44940 0.77120 0.66240 0.51300
C 	C 	0.22120 0.81900 0.58910 0.27100
C 	C 	0.48080 0.38970 0.86460 0.32700
C 	C 	0.54900 0.46850 0.17480 0.46000
C 	C 	0.16240 0.05060 0.22880 0.51300
C 	C 	0.78480 0.96640 0.69270 0.00700
C 	C 	0.51700 0.16970 0.43120 -0.06300
C 	C 	0.33140 0.63780 0.99950 -0.08600
C 	C 	0.74270 0.86000 0.99810 0.07000
C 	C 	0.74720 0.50900 0.14770 0.45700
C 	C 	0.91690 0.99600 0.85930 0.01600
C 	C 	0.97290 0.82870 0.96680 0.35900
C 	C 	0.47240 0.18410 0.78330 -0.13400
C 	C 	0.94940 0.77120 0.83760 0.51300
C 	C 	0.23870 0.47890 0.86500 -0.24400
C 	C 	0.80890 0.46750 0.20950 0.05700
C 	C 	0.78140 0.16960 0.49920 -0.06700
C 	C 	0.86220 0.00050 0.83140 -0.08600
C 	C 	0.21920 0.81110 0.52940 0.02100
C 	C 	0.73250 0.67270 0.44310 0.28700
C 	C 	0.64460 0.04980 0.25720 -0.28600
C 	C 	0.67920 0.99490 0.22630 0.02200
C 	C 	0.02240 0.30200 0.59000 -0.05200
C 	C 	0.99100 0.85230 0.24720 0.45700
C 	C 	0.61070 0.54470 0.13990 0.40400
C 	C 	0.17920 0.50510 0.77370 0.02200
C 	C 	0.84611 0.25300 0.92970 1.02500
C 	C 	0.05690 0.25730 0.18670 -0.35800
C 	C 	0.95530 0.86010 0.11070 0.40400
C 	C 	0.35930 0.91690 0.50400 0.01600
C 	C 	0.69620 0.37430 0.98630 0.13800
C 	C 	0.96640 0.80730 0.28480 0.00700
C 	C 	0.35230 0.25280 0.00900 0.45700
C 	C 	0.17480 0.54900 0.46850 0.46000
C 	C 	0.17480 0.95100 0.96850 0.46000
C 	C 	0.14000 0.49810 0.75730 0.06900
C 	C 	0.06570 0.18100 0.72140 0.38500
C 	C 	0.74270 0.68670 0.44310 -0.35800
C 	C 	0.46640 0.80730 0.21520 0.00700
C 	C 	0.54350 0.37990 0.14360 -0.10000
C 	C 	0.80730 0.28480 0.96640 0.00700
C 	C 	0.01680 0.66640 0.80310 0.08400
C 	C 	0.95490 0.91380 0.14590 0.05900
C 	C 	0.51680 0.83360 0.19690 0.08400
C 	C 	0.08310 0.49600 0.64070 0.01600
C 	C 	0.53320 0.02710 0.32870 0.35900
C 	C 	0.95490 0.58620 0.64590 0.05900
C 	C 	0.33760 0.55060 0.22880 0.51300
C 	C 	0.52760 0.68410 0.71670 -0.13400
C 	C 	0.57020 0.33502 0.23920 -0.77800
C 	C 	0.49950 0.16860 0.36220 -0.08600
C 	C 	0.30720 0.23430 0.06540 -0.45000
C 	C 	0.20950 0.69110 0.96750 0.05700
C 	C 	0.51360 0.16410 0.78550 -0.05800
C 	C 	0.92980 0.66498 0.73920 -0.77800
C 	C 	0.75300 0.92970 0.65389 1.02500
C 	C 	0.72610 0.00440 0.17520 -0.00900
C 	C 	0.37760 0.29680 0.04380 0.11400
C 	C 	0.99950 0.16860 0.13780 -0.08600
C 	C 	0.81590 0.21670 0.52760 -0.13400
C 	C 	0.08750 0.26060 0.20150 -0.27800
C 	C 	0.95650 0.62010 0.64360 -0.10000
C 	C 	0.87760 0.20320 0.95620 0.11400
C 	C 	0.16498 0.76080 0.07020 -0.77800
C 	C 	0.64460 0.45020 0.75720 -0.28600
C 	C 	0.68410 0.78330 0.02760 -0.13400
C 	C 	0.83140 0.63780 0.50050 -0.08600
C 	C 	0.43120 0.51700 0.16970 -0.06300
C 	C 	0.52760 0.81590 0.21670 -0.13400
C 	C 	0.45650 0.62010 0.85640 -0.10000
C 	C 	0.43120 0.98300 0.66970 -0.06300
C 	C 	0.95100 0.53150 0.67480 0.46000
C 	C 	0.71650 0.72960 0.41000 0.63600
C 	C 	0.50530 0.86030 0.61740 -0.04600
C 	C 	0.47060 0.71920 0.68890 0.02100
C 	C 	0.63500 0.73870 0.47890 -0.24400
C 	C 	0.85640 0.04350 0.12010 -0.10000
C 	C 	0.27120 0.83760 0.55060 0.51300
C 	C 	0.52310 0.80670 0.17270 -0.10400
C 	C 	0.21860 0.83040 0.50080 -0.06700
C 	C 	0.91380 0.14590 0.95490 0.05900
C 	C 	0.74720 0.99100 0.64770 0.45700
C 	C 	0.28550 0.98640 0.83590 -0.05800
C 	C 	0.30310 0.48320 0.33360 0.08400
C 	C 	0.03150 0.67480 0.54900 0.46000
C 	C 	0.83140 0.86220 0.00050 -0.08600
C 	C 	0.37430 0.51370 0.19620 0.13800
C 	C 	0.55690 0.24270 0.81330 -0.35800
C 	C 	0.11030 0.13540 0.98080 0.32700
C 	C 	0.78480 0.53360 0.19270 0.00700
C 	C 	0.45620 0.62240 0.79680 0.11400
C 	C 	0.02710 0.32870 0.53320 0.35900
C 	C 	0.35640 0.04350 0.37990 -0.10000
C 	C 	0.68100 0.77860 0.93430 0.38500
C 	C 	0.50050 0.66860 0.13780 -0.08600
C 	C 	0.17700 0.95370 0.93140 -0.12800
C 	C 	0.78330 0.47240 0.18410 -0.13400
C 	C 	0.80200 0.59000 0.47760 -0.05200
C 	C 	0.94940 0.72880 0.33760 0.51300
C 	C 	0.45100 0.53150 0.82520 0.46000
C 	C 	0.54130 0.36030 0.17290 -0.04200
C 	C 	0.04510 0.08620 0.85410 0.05900
C 	C 	0.52310 0.69330 0.67270 -0.10400
C 	C 	0.44310 0.75730 0.18670 -0.35800
C 	C 	0.91090 0.77880 0.31900 0.27100
C 	C 	0.49560 0.67520 0.72610 -0.00900
C 	C 	0.50510 0.77370 0.17920 0.02200
C 	C 	0.70720 0.95470 0.58640 -0.01900
C 	C 	0.51370 0.19620 0.37430 0.13800
C 	C 	0.97290 0.67130 0.46680 0.35900
C 	C 	0.33030 0.93120 0.51700 -0.06300
C 	C 	0.80310 0.01680 0.66640 0.08400
C 	C 	0.07020 0.16498 0.76080 -0.77800
C 	C 	0.50190 0.25730 0.36000 0.06900
C 	C 	0.69800 0.41000 0.97760 -0.05200
C 	C 	0.71670 0.97240 0.18410 -0.13400
C 	C 	0.41250 0.73940 0.70150 -0.27800
C 	C 	0.79050 0.59410 0.19770 -0.60800
C 	C 	0.86500 0.26130 0.97890 -0.24400
C 	C 	0.15310 0.51020 0.74610 0.18400
C 	C 	0.53250 0.79050 0.19110 0.05700
C 	C 	0.37990 0.35640 0.04350 -0.10000
C 	C 	0.19330 0.67270 0.97690 -0.10400
C 	C 	0.78350 0.27040 0.91000 0.63600
C 	C 	0.37430 0.98630 0.69620 0.13800
C 	C 	0.82730 0.55690 0.23250 0.28700
C 	C 	0.58750 0.26060 0.29850 -0.27800
C 	C 	0.33040 0.50080 0.28140 -0.06700
C 	C 	0.54530 0.41360 0.20720 -0.01900
C 	C 	0.66498 0.73920 0.92980 -0.77800
C 	C 	0.19800 0.09000 0.02240 -0.05200
C 	C 	0.25300 0.57030 0.34611 1.02500
C 	C 	0.38970 0.86460 0.48080 0.32700
C 	C 	0.62240 0.70320 0.95620 0.11400
C 	C 	0.24280 0.35540 0.54980 -0.28600
C 	C 	0.16960 0.49920 0.78140 -0.06700
C 	C 	0.66240 0.05060 0.27120 0.51300
C 	C 	0.58620 0.85410 0.45490 0.05900
C 	C 	0.19270 0.78480 0.53360 0.00700
C 	C 	0.28480 0.96640 0.80730 0.00700
C 	C 	0.33502 0.23920 0.57020 -0.77800
C 	C 	0.66240 0.44940 0.77120 0.51300
C 	C 	0.05690 0.23250 0.67270 0.28700
C 	C 	0.12010 0.85640 0.04350 -0.10000
C 	C 	0.74610 0.15310 0.51020 0.18400
C 	C 	0.14000 0.00190 0.25730 0.07000
C 	C 	0.95370 0.56860 0.67700 -0.12800
C 	C 	0.06860 0.82300 0.04630 -0.12800
C 	C 	0.98320 0.33360 0.19690 0.08400
C 	C 	0.70320 0.95620 0.62240 0.11400
C 	C 	0.28330 0.02760 0.81590 -0.13400
C 	C 	0.21520 0.03360 0.30730 0.00700
C 	C 	0.51020 0.74610 0.15310 0.18400
C 	C 	0.29680 0.04380 0.37760 0.11400
C 	C 	0.53150 0.82520 0.45100 0.46000
C 	C 	0.50900 0.14770 0.74720 0.45700
C 	C 	0.75390 0.65310 0.51020 0.18400
C 	C 	0.30310 0.01680 0.83360 0.08400
C 	C 	0.45370 0.56860 0.82300 -0.12800
C 	C 	0.83590 0.21450 0.48640 -0.05800
C 	C 	0.70950 0.80890 0.03250 0.05700
C 	C 	0.54530 0.08640 0.70720 -0.01900
C 	C 	0.72120 0.68100 0.41090 0.27100
C 	C 	0.06860 0.67700 0.54630 -0.12800
C 	C 	0.61030 0.36460 0.01920 0.32700
C 	C 	0.24610 0.34690 0.48980 0.18400
C 	C 	0.85640 0.45650 0.62010 -0.10000
C 	C 	0.72140 0.43430 0.68100 0.38500
C 	C 	0.41000 0.71650 0.72960 0.63600
C 	C 	0.32300 0.04630 0.43140 -0.12800
C 	C 	0.54980 0.25720 0.85540 -0.28600
C 	C 	0.13990 0.61070 0.54470 0.40400
C 	C 	0.69330 0.67270 0.52310 -0.10400
C 	C 	0.30890 0.03250 0.79050 0.05700
C 	C 	0.82300 0.45370 0.56860 -0.12800
C 	C 	0.31900 0.22140 0.06570 0.38500
C 	C 	0.41690 0.50400 0.14070 0.01600
C 	C 	0.36010 0.38930 0.04470 0.40400
C 	C 	0.31900 0.27860 0.56570 0.38500
C 	C 	0.26750 0.17270 0.05690 0.28700
C 	C 	0.73870 0.02110 0.13500 -0.24400
C 	C 	0.46640 0.69270 0.71520 0.00700
C 	C 	0.00440 0.17520 0.72610 -0.00900
C 	C 	0.18410 0.71670 0.97240 -0.13400
C 	C 	0.70150 0.08750 0.23940 -0.27800
C 	C 	0.35540 0.95020 0.74280 -0.28600
C 	C 	0.50900 0.35230 0.24720 0.45700
C 	C 	0.13780 0.99950 0.16860 -0.08600
C 	C 	0.59410 0.19770 0.79050 -0.60800
C 	C 	0.99950 0.33140 0.63780 -0.08600
C 	C 	0.21650 0.72960 0.09000 0.63600
C 	C 	0.67130 0.46680 0.97290 0.35900
C 	C 	0.81900 0.91090 0.72120 0.27100
C 	C 	0.20950 0.80890 0.46750 0.05700
C 	C 	0.45370 0.93140 0.32300 -0.12800
C 	C 	0.55690 0.23250 0.82730 0.28700
C 	C 	0.82480 0.22610 0.49560 -0.00900
C 	C 	0.99560 0.67520 0.77390 -0.00900
C 	C 	0.28080 0.31110 0.52940 0.02100
C 	C 	0.69110 0.53250 0.70950 0.05700
C 	C 	0.64360 0.95650 0.62010 -0.10000
C 	C 	0.25720 0.64460 0.04980 -0.28600
C 	C 	0.15310 0.98980 0.24610 0.18400
C 	C 	0.45620 0.87760 0.29680 0.11400
C 	C 	0.76080 0.42980 0.66498 -0.77800
C 	C 	0.52110 0.36500 0.26130 -0.24400
C 	C 	0.15389 0.74700 0.07030 1.02500
C 	C 	0.56540 0.19280 0.76570 -0.45000
C 	C 	0.62570 0.48630 0.80380 0.13800
C 	C 	0.18670 0.44310 0.75730 -0.35800
C 	C 	0.32480 0.27390 0.50440 -0.00900
C 	C 	0.84690 0.01020 0.75390 0.18400
C 	C 	0.81330 0.94310 0.74270 -0.35800
C 	C 	0.66640 0.69690 0.51680 0.08400
C 	C 	0.52240 0.19800 0.41000 -0.05200
C 	C 	0.74280 0.14460 0.45020 -0.28600
C 	C 	0.66860 0.36220 0.00050 -0.08600
C 	C 	0.71650 0.77040 0.91000 0.63600
C 	C 	0.82730 0.47690 0.19330 -0.10400
C 	C 	0.04130 0.13970 0.82710 -0.04200
C 	C 	0.04980 0.25720 0.64460 -0.28600
C 	C 	0.50080 0.28140 0.33040 -0.06700
C 	C 	0.49600 0.85930 0.58310 0.01600
C 	C 	0.52710 0.17130 0.46680 0.35900
C 	C 	0.25390 0.65310 0.98980 0.18400
C 	C 	0.64590 0.95490 0.58620 0.05900
C 	C 	0.82300 0.04630 0.06860 -0.12800
C 	C 	0.67920 0.50510 0.72630 0.02200
C 	C 	0.62010 0.64360 0.95650 -0.10000
C 	C 	0.31900 0.91090 0.77880 0.27100
C 	C 	0.79680 0.04380 0.12240 0.11400
C 	C 	0.11740 0.50530 0.63970 -0.04600
C 	C 	0.63970 0.11740 0.50530 -0.04600
C 	C 	0.99490 0.27370 0.17920 0.02200
C 	C 	0.81110 0.97060 0.71920 0.02100
C 	C 	0.21670 0.97240 0.31590 -0.13400
C 	C 	0.28550 0.51360 0.33590 -0.05800
C 	C 	0.85230 0.25280 0.49100 0.45700
C 	C 	0.83360 0.19690 0.51680 0.08400
C 	C 	0.46850 0.32520 0.04900 0.46000
C 	C 	0.52940 0.28080 0.31110 0.02100
C 	C 	0.98640 0.83590 0.28550 -0.05800
C 	C 	0.63500 0.76130 0.97890 -0.24400
C 	C 	0.22630 0.82080 0.49490 0.02200
C 	C 	0.04130 0.36030 0.32710 -0.04200
C 	C 	0.56880 0.01700 0.33030 -0.06300
C 	C 	0.31110 0.52940 0.28080 0.02100
C 	C 	0.16410 0.78550 0.51360 -0.05800
C 	C 	0.98630 0.80380 0.87430 0.13800
C 	C 	0.91250 0.76060 0.29850 -0.27800
C 	C 	0.94310 0.74270 0.81330 -0.35800
C 	C 	0.16970 0.43120 0.51700 -0.06300
C 	C 	0.09410 0.30230 0.20950 -0.60800
C 	C 	0.46750 0.20950 0.80890 0.05700
C 	C 	0.54470 0.36010 0.11070 0.40400
C 	C 	0.37990 0.14360 0.54350 -0.10000
C 	C 	0.62570 0.01370 0.30380 0.13800
C 	C 	0.58640 0.70720 0.95470 -0.01900
C 	C 	0.95650 0.87990 0.14360 -0.10000
C 	C 	0.83030 0.93120 0.98300 -0.06300
C 	C 	0.18890 0.47060 0.78080 0.02100
C 	C 	0.35930 0.58310 0.00400 0.01600
C 	C 	0.29050 0.59410 0.30230 -0.60800
C 	C 	0.48980 0.24610 0.34690 0.18400
C 	C 	0.99100 0.64770 0.74720 0.45700
C 	C 	0.09000 0.28350 0.22960 0.63600
C 	C 	0.59000 0.28350 0.27040 0.63600
C 	C 	0.71520 0.03360 0.19270 0.00700
C 	C 	0.96750 0.20950 0.69110 0.05700
C 	C 	0.68890 0.47060 0.71920 0.02100
C 	C 	0.96850 0.32520 0.45100 0.46000
C 	C 	0.14590 0.54510 0.41380 0.05900
C 	C 	0.54130 0.13970 0.67290 -0.04200
C 	C 	0.73920 0.57020 0.16498 -0.77800
C 	C 	0.91000 0.78350 0.27040 0.63600
C 	C 	0.57020 0.16498 0.73920 -0.77800
C 	C 	0.69270 0.71520 0.46640 0.00700
C 	C 	0.19270 0.71520 0.03360 0.00700
C 	C 	0.49600 0.64070 0.08310 0.01600
C 	C 	0.67270 0.52310 0.69330 -0.10400
C 	C 	0.95100 0.96850 0.17480 0.46000
C 	C 	0.37760 0.20320 0.54380 0.11400
C 	C 	0.72880 0.33760 0.94940 0.51300
C 	C 	0.19280 0.76570 0.56540 -0.45000
C 	C 	0.74700 0.07030 0.15389 1.02500
C 	C 	0.49920 0.71860 0.66960 -0.06700
C 	C 	0.00510 0.77370 0.32080 0.02200
C 	C 	0.59000 0.21650 0.77040 0.63600
C 	C 	0.83360 0.30310 0.01680 0.08400
C 	C 	0.99810 0.75730 0.36000 0.07000
C 	C 	0.03250 0.70950 0.80890 0.05700
C 	C 	0.77860 0.93430 0.68100 0.38500
C 	C 	0.95620 0.62240 0.70320 0.11400
C 	C 	0.23940 0.79850 0.58750 -0.27800
C 	C 	0.35640 0.45650 0.87990 -0.10000
C 	C 	0.08910 0.27880 0.18100 0.27100
C 	C 	0.85410 0.04510 0.08620 0.05900
C 	C 	0.14770 0.75280 0.00900 0.45700
C 	C 	0.82080 0.49490 0.22630 0.02200
C 	C 	0.96680 0.97290 0.82870 0.35900
C 	C 	0.01020 0.75390 0.84690 0.18400
C 	C 	0.64000 0.00190 0.24270 0.07000
C 	C 	0.83030 0.56880 0.48300 -0.06300
C 	C 	0.78350 0.22960 0.41000 0.63600
C 	C 	0.25300 0.92970 0.84611 1.02500
C 	C 	0.72610 0.49560 0.67520 -0.00900
C 	C 	0.19620 0.12570 0.01370 0.13800
C 	C 	0.49490 0.27370 0.32080 0.02200
C 	C 	0.85930 0.58310 0.49600 0.01600
C 	C 	0.67130 0.03320 0.47290 0.35900
C 	C 	0.32730 0.02310 0.80670 -0.10400
C 	C 	0.83040 0.99920 0.71860 -0.06700
C 	C 	0.78140 0.33040 0.99920 -0.06700
C 	C 	0.50080 0.21860 0.83040 -0.06700
C 	C 	0.03250 0.79050 0.30890 0.05700
C 	C 	0.02710 0.17130 0.03320 0.35900
C 	C 	0.48320 0.16640 0.80310 0.08400
C 	C 	0.47760 0.69800 0.09000 -0.05200
C 	C 	0.98630 0.69620 0.37430 0.13800
C 	C 	0.45530 0.86010 0.38930 0.40400
C 	C 	0.98980 0.25390 0.65310 0.18400
C 	C 	0.84611 0.24700 0.42970 1.02500
C 	C 	0.15389 0.75300 0.57030 1.02500
C 	C 	0.36010 0.11070 0.54470 0.40400
C 	C 	0.02110 0.13500 0.73870 -0.24400
C 	C 	0.52110 0.13500 0.76130 -0.24400
C 	C 	0.45020 0.75720 0.64460 -0.28600
C 	C 	0.72630 0.67920 0.50510 0.02200
C 	C 	0.99920 0.71860 0.83040 -0.06700
C 	C 	0.30670 0.17270 0.97690 -0.10400
C 	C 	0.02310 0.80670 0.32730 -0.10400
C 	C 	0.80720 0.26570 0.93460 -0.45000
C 	C 	0.77390 0.50440 0.17520 -0.00900
C 	C 	0.87760 0.29680 0.45620 0.11400
C 	C 	0.49560 0.82480 0.22610 -0.00900
C 	C 	0.86030 0.88260 0.00530 -0.04600
C 	C 	0.02110 0.36500 0.23870 -0.24400
C 	C 	0.11070 0.95530 0.86010 0.40400
C 	C 	0.71450 0.48640 0.66410 -0.05800
C 	C 	0.78330 0.02760 0.68410 -0.13400
C 	C 	0.95470 0.91360 0.20720 -0.01900
C 	C 	0.19690 0.51680 0.83360 0.08400
C 	C 	0.19330 0.82730 0.47690 -0.10400
C 	C 	0.77880 0.18100 0.41090 0.27100
C 	C 	0.80230 0.29050 0.90590 -0.60800
C 	C 	0.71920 0.68890 0.47060 0.02100
C 	C 	0.16860 0.36220 0.49950 -0.08600
C 	C 	0.86460 0.48080 0.38970 0.32700
C 	C 	0.28330 0.47240 0.31590 -0.13400
C 	C 	0.02240 0.19800 0.09000 -0.05200
C 	C 	0.87990 0.35640 0.45650 -0.10000
C 	C 	0.43430 0.81900 0.22140 0.38500
C 	C 	0.30890 0.46750 0.29050 0.05700
C 	C 	0.91360 0.20720 0.95470 -0.01900
C 	C 	0.41380 0.14590 0.54510 0.05900
C 	C 	0.30380 0.87430 0.51370 0.13800
C 	C 	0.23870 0.02110 0.36500 -0.24400
C 	C 	0.75720 0.64460 0.45020 -0.28600
C 	C 	0.79850 0.91250 0.73940 -0.27800
C 	C 	0.47760 0.80200 0.59000 -0.05200
C 	C 	0.86010 0.11070 0.95530 0.40400
C 	C 	0.00190 0.25730 0.14000 0.07000
C 	C 	0.13540 0.98080 0.11030 0.32700
C 	C 	0.70950 0.09410 0.19770 -0.60800
C 	C 	0.69690 0.51680 0.66640 0.08400
C 	C 	0.24280 0.14460 0.04980 -0.28600
C 	C 	0.27040 0.59000 0.28350 0.63600
C 	C 	0.41090 0.72120 0.68100 0.27100
C 	C 	0.75390 0.84690 0.01020 0.18400
C 	C 	0.31590 0.21670 0.97240 -0.13400
C 	C 	0.79280 0.45470 0.58640 -0.01900
C 	C 	0.31900 0.58910 0.27880 0.27100
C 	C 	0.04380 0.37760 0.29680 0.11400
C 	C 	0.29850 0.58750 0.26060 -0.27800
C 	C 	0.02310 0.69330 0.82730 -0.10400
C 	C 	0.29050 0.30890 0.46750 0.05700
C 	C 	0.92970 0.84611 0.25300 1.02500
C 	C 	0.00900 0.14770 0.75280 0.45700
C 	C 	0.77370 0.32080 0.00510 0.02200
C 	C 	0.83760 0.55060 0.27120 0.51300
C 	C 	0.49810 0.74270 0.64000 0.06900
C 	C 	0.01370 0.30380 0.62570 0.13800
C 	C 	0.83502 0.26080 0.42980 -0.77800
C 	C 	0.05690 0.26750 0.17270 0.28700
C 	C 	0.17270 0.97690 0.30670 -0.10400
C 	C 	0.91000 0.97760 0.80200 -0.05200
C 	C 	0.33040 0.99920 0.78140 -0.06700
C 	C 	0.04630 0.43140 0.32300 -0.12800
C 	C 	0.29280 0.45470 0.91360 -0.01900
C 	C 	0.01020 0.74610 0.34690 0.18400
C 	C 	0.30230 0.29050 0.59410 -0.60800
C 	C 	0.29680 0.45620 0.87760 0.11400
C 	C 	0.76130 0.97890 0.63500 -0.24400
C 	C 	0.42980 0.83502 0.26080 -0.77800
C 	C 	0.74610 0.34690 0.01020 0.18400
C 	C 	0.97760 0.69800 0.41000 -0.05200
C 	C 	0.95620 0.87760 0.20320 0.11400
C 	C 	0.01920 0.61030 0.36460 0.32700
C 	C 	0.17270 0.52310 0.80670 -0.10400
C 	C 	0.41360 0.29280 0.04530 -0.01900
C 	C 	0.14460 0.45020 0.74280 -0.28600
C 	C 	0.54380 0.37760 0.20320 0.11400
C 	C 	0.19690 0.98320 0.33360 0.08400
C 	C 	0.33590 0.28550 0.51360 -0.05800
C 	C 	0.30720 0.26570 0.56540 -0.45000
C 	C 	0.09000 0.02240 0.19800 -0.05200
C 	C 	0.51680 0.66640 0.69690 0.08400
C 	C 	0.68890 0.02940 0.21920 0.02100
C 	C 	0.76080 0.07020 0.16498 -0.77800
C 	C 	0.66498 0.76080 0.42980 -0.77800
C 	C 	0.55690 0.25730 0.31330 -0.35800
C 	C 	0.48300 0.83030 0.56880 -0.06300
C 	C 	0.79280 0.04530 0.08640 -0.01900
C 	C 	0.49490 0.22630 0.82080 0.02200
C 	C 	0.79680 0.45620 0.62240 0.11400
C 	C 	0.61740 0.50530 0.86030 -0.04600
C 	C 	0.00050 0.83140 0.86220 -0.08600
C 	C 	0.52710 0.32870 0.96680 0.35900
C 	C 	0.66970 0.06880 0.48300 -0.06300
C 	C 	0.84690 0.48980 0.25390 0.18400
C 	C 	0.86000 0.99810 0.74270 0.07000
C 	C 	0.82710 0.45870 0.63970 -0.04200
C 	C 	0.49470 0.13970 0.38260 -0.04600
C 	C 	0.04630 0.06860 0.82300 -0.12800
C 	C 	0.29050 0.90590 0.80230 -0.60800
C 	C 	0.22140 0.43430 0.81900 0.38500
C 	C 	0.73920 0.92980 0.66498 -0.77800
C 	C 	0.91380 0.35410 0.45490 0.05900
C 	C 	0.71670 0.52760 0.68410 -0.13400
C 	C 	0.13500 0.73870 0.02110 -0.24400
C 	C 	0.81900 0.58910 0.22120 0.27100
C 	C 	0.80200 0.91000 0.97760 -0.05200
C 	C 	0.79850 0.58750 0.23940 -0.27800
C 	C 	0.92970 0.65389 0.75300 1.02500
C 	C 	0.09000 0.21650 0.72960 0.63600
C 	C 	0.20320 0.95620 0.87760 0.11400
C 	C 	0.33502 0.26080 0.07020 -0.77800
C 	C 	0.57030 0.15389 0.75300 1.02500
C 	C 	0.72960 0.09000 0.21650 0.63600
C 	C 	0.50400 0.35930 0.91690 0.01600
C 	C 	0.28080 0.18890 0.02940 0.02100
C 	C 	0.16498 0.73920 0.57020 -0.77800
C 	C 	0.04350 0.12010 0.85640 -0.10000
C 	C 	0.63540 0.98080 0.38970 0.32700
C 	C 	0.47890 0.86500 0.23870 -0.24400
C 	C 	0.18670 0.05690 0.25730 -0.35800
C 	C 	0.20150 0.08750 0.26060 -0.27800
C 	C 	0.59000 0.02240 0.30200 -0.05200
C 	C 	0.00440 0.32480 0.22610 -0.00900
C 	C 	0.56570 0.18100 0.77860 0.38500
C 	C 	0.99470 0.13970 0.11740 -0.04600
C 	C 	0.23250 0.82730 0.55690 0.28700
C 	C 	0.67290 0.95870 0.63970 -0.04200
C 	C 	0.49100 0.85230 0.25280 0.45700
C 	C 	0.95370 0.93140 0.17700 -0.12800
C 	C 	0.98640 0.66410 0.78550 -0.05800
C 	C 	0.53320 0.47290 0.82870 0.35900
C 	C 	0.97890 0.63500 0.76130 -0.24400
C 	C 	0.66640 0.80310 0.01680 0.08400
C 	C 	0.02940 0.21920 0.68890 0.02100
C 	C 	0.98300 0.83030 0.93120 -0.06300
C 	C 	0.78550 0.98640 0.66410 -0.05800
C 	C 	0.13970 0.11740 0.99470 -0.04600
C 	C 	0.72880 0.16240 0.44940 0.51300
C 	C 	0.53250 0.70950 0.69110 0.05700
C 	C 	0.73430 0.43460 0.69280 -0.45000
C 	C 	0.51370 0.30380 0.87430 0.13800
C 	C 	0.21920 0.68890 0.02940 0.02100
C 	C 	0.30200 0.91000 0.52240 -0.05200
C 	C 	0.30200 0.59000 0.02240 -0.05200
C 	C 	0.44310 0.76750 0.17270 0.28700
C 	C 	0.32300 0.45370 0.93140 -0.12800
C 	C 	0.76570 0.93460 0.69280 -0.45000
C 	C 	0.51020 0.75390 0.65310 0.18400
C 	C 	0.24700 0.42970 0.84611 1.02500
C 	C 	0.25730 0.18670 0.05690 -0.35800
C 	C 	0.24270 0.64000 0.00190 0.07000
C 	C 	0.01680 0.83360 0.30310 0.08400
C 	C 	0.81900 0.27860 0.93430 0.38500
C 	C 	0.81590 0.28330 0.02760 -0.13400
C 	C 	0.99490 0.22630 0.67920 0.02200
C 	C 	0.87430 0.51370 0.30380 0.13800
C 	C 	0.02760 0.81590 0.28330 -0.13400
C 	C 	0.41380 0.35410 0.04510 0.05900
C 	C 	0.54350 0.12010 0.64360 -0.10000
C 	C 	0.36500 0.23870 0.02110 -0.24400
C 	C 	0.57030 0.34611 0.25300 1.02500
C 	C 	0.00900 0.35230 0.25280 0.45700
C 	C 	0.72960 0.41000 0.71650 0.63600
C 	C 	0.27040 0.91000 0.78350 0.63600
C 	C 	0.30380 0.62570 0.01370 0.13800
C 	C 	0.30730 0.21520 0.03360 0.00700
C 	C 	0.20150 0.41250 0.76060 -0.27800
C 	C 	0.80720 0.23430 0.43460 -0.45000
C 	C 	0.94310 0.73250 0.82730 0.28700
C 	C 	0.00400 0.14070 0.08310 0.01600
C 	C 	0.63990 0.88930 0.45530 0.40400
C 	C 	0.27120 0.66240 0.05060 0.51300
C 	C 	0.14590 0.95490 0.91380 0.05900
C 	C 	0.00080 0.21860 0.66960 -0.06700
C 	C 	0.81900 0.22140 0.43430 0.38500
C 	C 	0.62240 0.79680 0.45620 0.11400
C 	C 	0.59000 0.47760 0.80200 -0.05200
C 	C 	0.27390 0.99560 0.82480 -0.00900
C 	C 	0.63540 0.51920 0.88970 0.32700
C 	C 	0.51920 0.61030 0.13540 0.32700
C 	C 	0.58310 0.49600 0.85930 0.01600
C 	C 	0.91360 0.29280 0.45470 -0.01900
C 	C 	0.48300 0.66970 0.06880 -0.06300
C 	C 	0.45020 0.74280 0.14460 -0.28600
C 	C 	0.92980 0.83502 0.23920 -0.77800
C 	C 	0.19770 0.70950 0.09410 -0.60800
C 	C 	0.46680 0.97290 0.67130 0.35900
C 	C 	0.17270 0.44310 0.76750 0.28700
C 	C 	0.25390 0.84690 0.48980 0.18400
C 	C 	0.77860 0.56570 0.18100 0.38500
C 	C 	0.70950 0.40590 0.69770 -0.60800
C 	C 	0.08910 0.22120 0.68100 0.27100
C 	C 	0.12010 0.64360 0.54350 -0.10000
C 	C 	0.67480 0.95100 0.53150 0.46000
C 	C 	0.48320 0.33360 0.30310 0.08400
C 	C 	0.41000 0.78350 0.22960 0.63600
C 	C 	0.16640 0.69690 0.98320 0.08400
C 	C 	0.98080 0.11030 0.13540 0.32700
C 	C 	0.32480 0.22610 0.00440 -0.00900
C 	C 	0.50530 0.63970 0.11740 -0.04600
C 	C 	0.64590 0.54510 0.08620 0.05900
C 	C 	0.36220 0.00050 0.66860 -0.08600
C 	C 	0.75280 0.00900 0.14770 0.45700
C 	C 	0.47690 0.30670 0.32730 -0.10400
C 	C 	0.01360 0.16410 0.71450 -0.05800
C 	C 	0.95020 0.74280 0.35540 -0.28600
C 	C 	0.27880 0.18100 0.08910 0.27100
C 	C 	0.88930 0.04470 0.13990 0.40400
C 	C 	0.90590 0.80230 0.29050 -0.60800
C 	C 	0.61030 0.13540 0.51920 0.32700
C 	C 	0.68100 0.72140 0.43430 0.38500
C 	C 	0.38930 0.04470 0.36010 0.40400
C 	C 	0.86010 0.38930 0.45530 0.40400
C 	C 	0.80890 0.03250 0.70950 0.05700
C 	C 	0.99470 0.36030 0.61740 -0.04600
C 	C 	0.86460 0.01920 0.88970 0.32700
C 	C 	0.04470 0.36010 0.38930 0.40400
C 	C 	0.55060 0.22880 0.33760 0.51300
C 	C 	0.18100 0.77860 0.56570 0.38500
C 	C 	0.81110 0.52940 0.21920 0.02100
C 	C 	0.43460 0.80720 0.23430 -0.45000
C 	C 	0.93120 0.51700 0.33030 -0.06300
C 	C 	0.82480 0.27390 0.99560 -0.00900
C 	C 	0.24700 0.07030 0.34611 1.02500
C 	C 	0.45100 0.96850 0.32520 0.46000
C 	C 	0.35230 0.24720 0.50900 0.45700
C 	C 	0.48640 0.83590 0.21450 -0.05800
C 	C 	0.51360 0.33590 0.28550 -0.05800
C 	C 	0.82710 0.04130 0.13970 -0.04200
C 	C 	0.14070 0.41690 0.50400 0.01600
C 	C 	0.36030 0.88260 0.49470 -0.04600
C 	C 	0.48630 0.80380 0.62570 0.13800
C 	C 	0.88970 0.86460 0.01920 0.32700
C 	C 	0.65389 0.75300 0.92970 1.02500
C 	C 	0.63970 0.82710 0.45870 -0.04200
C 	C 	0.26080 0.42980 0.83502 -0.77800
C 	C 	0.29280 0.04530 0.41360 -0.01900
C 	C 	0.91690 0.50400 0.35930 0.01600
C 	C 	0.69770 0.79050 0.90590 -0.60800
C 	C 	0.64770 0.75280 0.49100 0.45700
C 	C 	0.08620 0.64590 0.54510 0.05900
C 	C 	0.17290 0.95870 0.86030 -0.04200
C 	C 	0.86000 0.50190 0.24270 0.06900
C 	C 	0.97240 0.31590 0.21670 -0.13400
C 	C 	0.12570 0.48630 0.69620 0.13800
C 	C 	0.36030 0.61740 0.99470 -0.04600
C 	C 	0.93120 0.98300 0.83030 -0.06300
C 	C 	0.25730 0.14000 0.00190 0.07000
C 	C 	0.13540 0.51920 0.61030 0.32700
C 	C 	0.67700 0.54630 0.06860 -0.12800
C 	C 	0.67290 0.54130 0.13970 -0.04200
C 	C 	0.69770 0.70950 0.40590 -0.60800
C 	C 	0.97060 0.78080 0.31110 0.02100
C 	C 	0.24270 0.86000 0.50190 0.06900
C 	C 	0.98300 0.66970 0.43120 -0.06300
C 	C 	0.05060 0.27120 0.66240 0.51300
C 	C 	0.41250 0.76060 0.20150 -0.27800
C 	C 	0.28480 0.53360 0.30730 0.00700
C 	C 	0.06570 0.31900 0.22140 0.38500
C 	C 	0.54980 0.24280 0.35540 -0.28600
C 	C 	0.27370 0.17920 0.99490 0.02200
C 	C 	0.08640 0.70720 0.54530 -0.01900
C 	C 	0.75730 0.14000 0.49810 0.06900
C 	C 	0.86500 0.23870 0.47890 -0.24400
C 	C 	0.21670 0.52760 0.81590 -0.13400
C 	C 	0.23920 0.92980 0.83502 -0.77800
C 	C 	0.27390 0.50440 0.32480 -0.00900
C 	C 	0.96850 0.17480 0.95100 0.46000
C 	C 	0.47290 0.67130 0.03320 0.35900
C 	C 	0.04350 0.37990 0.35640 -0.10000
C 	C 	0.11030 0.36460 0.48080 0.32700
C 	C 	0.23430 0.06540 0.30720 -0.45000
C 	C 	0.64000 0.49810 0.74270 0.06900
C 	C 	0.17920 0.99490 0.27370 0.02200
C 	C 	0.20950 0.09410 0.30230 -0.60800
C 	C 	0.23940 0.70150 0.08750 -0.27800
C 	C 	0.95470 0.58640 0.70720 -0.01900
C 	C 	0.04530 0.41360 0.29280 -0.01900
C 	C 	0.73870 0.47890 0.63500 -0.24400
C 	C 	0.97760 0.80200 0.91000 -0.05200
C 	C 	0.75280 0.49100 0.64770 0.45700
C 	C 	0.14460 0.04980 0.24280 -0.28600
C 	C 	0.41690 0.99600 0.64070 0.01600
C 	C 	0.41360 0.20720 0.54530 -0.01900
C 	C 	0.18100 0.08910 0.27880 0.27100
C 	C 	0.08620 0.85410 0.04510 0.05900
C 	C 	0.12240 0.79680 0.04380 0.11400
C 	C 	0.18100 0.72140 0.06570 0.38500
C 	C 	0.08310 0.00400 0.14070 0.01600
C 	C 	0.22630 0.67920 0.99490 0.02200
C 	C 	0.00080 0.28140 0.16960 -0.06700
C 	C 	0.16410 0.71450 0.01360 -0.05800
C 	C 	0.91250 0.73940 0.79850 -0.27800
C 	C 	0.46850 0.17480 0.54900 0.46000
C 	C 	0.18410 0.78330 0.47240 -0.13400
C 	C 	0.43460 0.69280 0.73430 -0.45000
C 	C 	0.49920 0.78140 0.16960 -0.06700
C 	C 	0.77040 0.59000 0.21650 0.63600
C 	C 	0.04900 0.03150 0.82520 0.46000
C 	C 	0.00400 0.35930 0.58310 0.01600
C 	C 	0.47690 0.19330 0.82730 -0.10400
C 	C 	0.25720 0.85540 0.54980 -0.28600
C 	C 	0.54510 0.41380 0.14590 0.05900
C 	C 	0.33360 0.19690 0.98320 0.08400
C 	C 	0.93140 0.17700 0.95370 -0.12800
C 	C 	0.13990 0.88930 0.04470 0.40400
C 	C 	0.68670 0.44310 0.74270 -0.35800
C 	C 	0.32730 0.94310 0.76750 0.28700
C 	C 	0.47890 0.63500 0.73870 -0.24400
C 	C 	0.33030 0.56880 0.01700 -0.06300
C 	C 	0.59410 0.30230 0.29050 -0.60800
C 	C 	0.83590 0.28550 0.98640 -0.05800
C 	C 	0.26080 0.07020 0.33502 -0.77800
C 	C 	0.31590 0.28330 0.47240 -0.13400
C 	C 	0.74280 0.35540 0.95020 -0.28600
C 	C 	0.45650 0.87990 0.35640 -0.10000
C 	C 	0.40590 0.80230 0.20950 -0.60800
C 	C 	0.42970 0.84611 0.24700 1.02500
C 	C 	0.66860 0.13780 0.50050 -0.08600
C 	C 	0.05690 0.24270 0.68670 -0.35800
C 	C 	0.18100 0.41090 0.77880 0.27100
C 	C 	0.69620 0.12570 0.48630 0.13800
C 	C 	0.63780 0.50050 0.83140 -0.08600
C 	C 	0.20720 0.54530 0.41360 -0.01900
C 	C 	0.46680 0.52710 0.17130 0.35900
C 	C 	0.43140 0.32300 0.04630 -0.12800
C 	C 	0.04470 0.13990 0.88930 0.40400
C 	C 	0.80670 0.32730 0.02310 -0.10400
C 	C 	0.11070 0.54470 0.36010 0.40400
C 	C 	0.97690 0.30670 0.17270 -0.10400
C 	C 	0.85540 0.95020 0.75720 -0.28600
C 	C 	0.21450 0.48640 0.83590 -0.05800
C 	C 	0.12240 0.70320 0.54380 0.11400
C 	C 	0.67270 0.97690 0.19330 -0.10400
C 	C 	0.65310 0.98980 0.25390 0.18400
C 	C 	0.22610 0.00440 0.32480 -0.00900
C 	C 	0.00050 0.66860 0.36220 -0.08600
C 	C 	0.53150 0.67480 0.95100 0.46000
C 	C 	0.07030 0.15389 0.74700 1.02500
C 	C 	0.13780 0.50050 0.66860 -0.08600
C 	C 	0.33760 0.94940 0.72880 0.51300
C 	C 	0.24270 0.81330 0.55690 -0.35800
C 	C 	0.00530 0.86030 0.88260 -0.04600
C 	C 	0.42970 0.65389 0.74700 1.02500
C 	C 	0.21520 0.46640 0.80730 0.00700
C 	C 	0.04980 0.24280 0.14460 -0.28600
C 	C 	0.46750 0.29050 0.30890 0.05700
C 	C 	0.77880 0.31900 0.91090 0.27100
C 	C 	0.32520 0.45100 0.96850 0.46000
C 	C 	0.32870 0.53320 0.02710 0.35900
C 	C 	0.22960 0.09000 0.28350 0.63600
C 	C 	0.27860 0.93430 0.81900 0.38500
C 	C 	0.28350 0.27040 0.59000 0.63600
C 	C 	0.99600 0.85930 0.91690 0.01600
C 	C 	0.06540 0.30720 0.23430 -0.45000
C 	C 	0.91000 0.52240 0.30200 -0.05200
C 	C 	0.69280 0.76570 0.93460 -0.45000
C 	C 	0.88260 0.00530 0.86030 -0.04600
C 	C 	0.26130 0.97890 0.86500 -0.24400
C 	C 	0.86030 0.32710 0.45870 -0.04200
C 	C 	0.86030 0.17290 0.95870 -0.04200
C 	C 	0.61740 0.99470 0.36030 -0.04600
C 	C 	0.76060 0.20150 0.41250 -0.27800
C 	C 	0.26570 0.56540 0.30720 -0.45000
C 	C 	0.43140 0.17700 0.54630 -0.12800
C 	C 	0.07030 0.34611 0.24700 1.02500
C 	C 	0.54630 0.06860 0.67700 -0.12800
C 	C 	0.36460 0.01920 0.61030 0.32700
C 	C 	0.95870 0.63970 0.67290 -0.04200
C 	C 	0.23920 0.57020 0.33502 -0.77800
C 	C 	0.70720 0.54530 0.08640 -0.01900
C 	C 	0.88970 0.63540 0.51920 0.32700
C 	C 	0.34611 0.24700 0.07030 1.02500
C 	C 	0.17130 0.46680 0.52710 0.35900
C 	C 	0.48080 0.11030 0.36460 0.32700
C 	C 	0.23430 0.43460 0.80720 -0.45000
C 	C 	0.42980 0.66498 0.76080 -0.77800
C 	C 	0.09000 0.47760 0.69800 -0.05200
C 	C 	0.56540 0.30720 0.26570 -0.45000
C 	C 	0.71450 0.01360 0.16410 -0.05800
C 	C 	0.86030 0.61740 0.50530 -0.04600
C 	C 	0.97060 0.71920 0.81110 0.02100
C 	C 	0.35540 0.54980 0.24280 -0.28600
C 	C 	0.64070 0.41690 0.99600 0.01600
C 	C 	0.35410 0.04510 0.41380 0.05900
C 	C 	0.82520 0.04900 0.03150 0.46000
C 	C 	0.65310 0.51020 0.75390 0.18400
C 	C 	0.72630 0.82080 0.00510 0.02200
C 	C 	0.17130 0.03320 0.02710 0.35900
C 	C 	0.82870 0.96680 0.97290 0.35900
C 	C 	0.45490 0.91380 0.35410 0.05900
C 	C 	0.96680 0.52710 0.32870 0.35900
C 	C 	0.28350 0.22960 0.09000 0.63600
C 	C 	0.77370 0.17920 0.50510 0.02200
C 	C 	0.30230 0.20950 0.09410 -0.60800
C 	C 	0.45490 0.58620 0.85410 0.05900
C 	C 	0.47240 0.31590 0.28330 -0.13400
C 	C 	0.83502 0.23920 0.92980 -0.77800
C 	C 	0.52240 0.30200 0.91000 -0.05200
C 	C 	0.63970 0.38260 0.00530 -0.04600
C 	C 	0.54630 0.43140 0.17700 -0.12800
C 	C 	0.33590 0.21450 0.01360 -0.05800
C 	C 	0.00530 0.63970 0.38260 -0.04600
C 	C 	0.16240 0.44940 0.72880 0.51300
C 	C 	0.77120 0.66240 0.44940 0.51300
C 	C 	0.36000 0.50190 0.25730 0.06900
C 	C 	0.22120 0.68100 0.08910 0.27100
C 	C 	0.82080 0.00510 0.72630 0.02200
C 	C 	0.16970 0.06880 0.01700 -0.06300
C 	C 	0.61070 0.95530 0.63990 0.40400
C 	C 	0.01370 0.19620 0.12570 0.13800
C 	C 	0.13970 0.38260 0.49470 -0.04600
C 	C 	0.56860 0.82300 0.45370 -0.12800
C 	C 	0.09410 0.19770 0.70950 -0.60800
C 	C 	0.25280 0.00900 0.35230 0.45700
C 	C 	0.24610 0.15310 0.98980 0.18400
C 	C 	0.17290 0.54130 0.36030 -0.04200
C 	C 	0.56860 0.67700 0.95370 -0.12800
C 	C 	0.85540 0.54980 0.25720 -0.28600
C 	C 	0.01360 0.33590 0.21450 -0.05800
C 	C 	0.19280 0.73430 0.06540 -0.45000
C 	C 	0.25280 0.49100 0.85230 0.45700
C 	C 	0.75300 0.57030 0.15389 1.02500
C 	C 	0.26750 0.32730 0.55690 0.28700
C 	C 	0.87990 0.14360 0.95650 -0.10000
C 	C 	0.45870 0.86030 0.32710 -0.04200
C 	C 	0.36500 0.26130 0.52110 -0.24400
C 	C 	0.52940 0.21920 0.81110 0.02100
C 	C 	0.04900 0.46850 0.32520 0.46000
C 	C 	0.67520 0.72610 0.49560 -0.00900
C 	C 	0.66960 0.49920 0.71860 -0.06700
C 	C 	0.01920 0.88970 0.86460 0.32700
C 	C 	0.82730 0.94310 0.73250 0.28700
C 	C 	0.69330 0.82730 0.02310 -0.10400
C 	C 	0.31330 0.94310 0.75730 -0.35800
C 	C 	0.71860 0.83040 0.99920 -0.06700
C 	C 	0.41000 0.97760 0.69800 -0.05200
C 	C 	0.50510 0.72630 0.67920 0.02200
C 	C 	0.72140 0.06570 0.18100 0.38500
C 	C 	0.19110 0.53250 0.79050 0.05700
C 	C 	0.18890 0.02940 0.28080 0.02100
C 	C 	0.65389 0.74700 0.42970 1.02500
C 	C 	0.34690 0.01020 0.74610 0.18400
C 	C 	0.53360 0.19270 0.78480 0.00700
C 	C 	0.71920 0.81110 0.97060 0.02100
C 	C 	0.74270 0.64000 0.49810 0.06900
C 	C 	0.97890 0.86500 0.26130 -0.24400
C 	C 	0.36030 0.17290 0.54130 -0.04200
C 	C 	0.67480 0.54900 0.03150 0.46000
C 	C 	0.66410 0.78550 0.98640 -0.05800
C 	C 	0.86220 0.49950 0.33140 -0.08600
C 	C 	0.88260 0.49470 0.36030 -0.04600
C 	C 	0.80730 0.21520 0.46640 0.00700
C 	C 	0.50440 0.32480 0.27390 -0.00900
C 	C 	0.48980 0.25390 0.84690 0.18400
C 	C 	0.34611 0.25300 0.57030 1.02500
C 	C 	0.96640 0.69270 0.78480 0.00700
C 	C 	0.44310 0.74270 0.68670 -0.35800
C 	C 	0.54380 0.12240 0.70320 0.11400
C 	C 	0.08640 0.79280 0.04530 -0.01900
C 	C 	0.85230 0.24720 0.99100 0.45700
C 	C 	0.69270 0.78480 0.96640 0.00700
C 	C 	0.28140 0.33040 0.50080 -0.06700
C 	C 	0.93140 0.32300 0.45370 -0.12800
C 	C 	0.38260 0.00530 0.63970 -0.04600
C 	C 	0.51920 0.88970 0.63540 0.32700
C 	C 	0.80380 0.62570 0.48630 0.13800
C 	C 	0.32730 0.47690 0.30670 -0.10400
C 	C 	0.49100 0.64770 0.75280 0.45700
C 	C 	0.91090 0.72120 0.81900 0.27100
C 	C 	0.76570 0.56540 0.19280 -0.45000
C 	C 	0.25730 0.36000 0.50190 0.06900
C 	C 	0.19800 0.41000 0.52240 -0.05200
C 	C 	0.50440 0.17520 0.77390 -0.00900
C 	C 	0.75720 0.85540 0.95020 -0.28600
C 	C 	0.66970 0.43120 0.98300 -0.06300
C 	C 	0.02940 0.28080 0.18890 0.02100
C 	C 	0.78080 0.18890 0.47060 0.02100
C 	C 	0.75730 0.18670 0.44310 -0.35800
C 	C 	0.67270 0.44310 0.73250 0.28700
C 	C 	0.99920 0.78140 0.33040 -0.06700
C 	C 	0.80230 0.20950 0.40590 -0.60800
C 	C 	0.07020 0.33502 0.26080 -0.77800
C 	C 	0.69280 0.73430 0.43460 -0.45000
C 	C 	0.05060 0.22880 0.16240 0.51300
C 	C 	0.80670 0.17270 0.52310 -0.10400
C 	C 	0.85410 0.45490 0.58620 0.05900
C 	C 	0.27370 0.32080 0.49490 0.02200
C 	C 	0.44940 0.72880 0.16240 0.51300
C 	C 	0.17520 0.77390 0.50440 -0.00900
C 	C 	0.22140 0.06570 0.31900 0.38500
C 	C 	0.38930 0.45530 0.86010 0.40400
C 	C 	0.70950 0.69110 0.53250 0.05700
C 	C 	0.03150 0.82520 0.04900 0.46000
C 	C 	0.16960 0.00080 0.28140 -0.06700
C 	C 	0.16640 0.80310 0.48320 0.08400
C 	C 	0.58310 0.00400 0.35930 0.01600
C 	C 	0.58750 0.23940 0.79850 -0.27800
C 	C 	0.23250 0.67270 0.05690 0.28700
C 	C 	0.04380 0.12240 0.79680 0.11400
C 	C 	0.43430 0.68100 0.72140 0.38500
C 	C 	0.36220 0.49950 0.16860 -0.08600
C 	C 	0.71520 0.46640 0.69270 0.00700
C 	C 	0.25730 0.31330 0.55690 -0.35800
C 	C 	0.22880 0.16240 0.05060 0.51300
C 	C 	0.27880 0.31900 0.58910 0.27100
C 	C 	0.45870 0.63970 0.82710 -0.04200
C 	C 	0.17270 0.05690 0.26750 0.28700
C 	C 	0.41090 0.77880 0.18100 0.27100
C 	C 	0.26060 0.20150 0.08750 -0.27800
C 	C 	0.63970 0.67290 0.95870 -0.04200
C 	C 	0.13970 0.82710 0.04130 -0.04200
C 	C 	0.26060 0.29850 0.58750 -0.27800
C 	C 	0.16860 0.13780 0.99950 -0.08600
C 	C 	0.03320 0.02710 0.17130 0.35900
C 	C 	0.49810 0.75730 0.14000 0.06900
C 	C 	0.54470 0.13990 0.61070 0.40400
C 	C 	0.44310 0.73250 0.67270 0.28700
C 	C 	0.77040 0.91000 0.71650 0.63600
C 	C 	0.14070 0.08310 0.00400 0.01600
C 	C 	0.98320 0.16640 0.69690 0.08400
C 	C 	0.78550 0.51360 0.16410 -0.05800
C 	C 	0.73940 0.79850 0.91250 -0.27800
C 	C 	0.70150 0.41250 0.73940 -0.27800
C 	C 	0.67270 0.05690 0.23250 0.28700
C 	C 	0.75730 0.36000 0.99810 0.07000
C 	C 	0.73250 0.82730 0.94310 0.28700
C 	C 	0.76060 0.29850 0.91250 -0.27800
C 	C 	0.32710 0.04130 0.36030 -0.04200
C 	C 	0.17520 0.72610 0.00440 -0.00900
C 	C 	0.58620 0.64590 0.95490 0.05900
C 	C 	0.58910 0.27880 0.31900 0.27100
C 	C 	0.80380 0.87430 0.98630 0.13800
C 	C 	0.68100 0.08910 0.22120 0.27100
C 	C 	0.94310 0.75730 0.31330 -0.35800
C 	C 	0.68100 0.41090 0.72120 0.27100
C 	C 	0.40590 0.69770 0.70950 -0.60800
C 	C 	0.54510 0.08620 0.64590 0.05900
C 	C 	0.93460 0.69280 0.76570 -0.45000
C 	C 	0.17700 0.54630 0.43140 -0.12800
C 	C 	0.63780 0.99950 0.33140 -0.08600
C 	C 	0.99600 0.64070 0.41690 0.01600
C 	C 	0.62010 0.85640 0.45650 -0.10000
C 	C 	0.32870 0.96680 0.52710 0.35900
C 	C 	0.13970 0.67290 0.54130 -0.04200
C 	C 	0.58910 0.22120 0.81900 0.27100
C 	C 	0.14360 0.54350 0.37990 -0.10000
C 	C 	0.95530 0.63990 0.61070 0.40400
C 	C 	0.30730 0.28480 0.53360 0.00700
C 	C 	0.76750 0.32730 0.94310 0.28700
C 	C 	0.67700 0.95370 0.56860 -0.12800
C 	C 	0.64070 0.08310 0.49600 0.01600
C 	C 	0.28140 0.16960 0.00080 -0.06700
C 	C 	0.69800 0.09000 0.47760 -0.05200
C 	C 	0.83040 0.50080 0.21860 -0.06700
C 	C 	0.03320 0.47290 0.67130 0.35900
C 	C 	0.50400 0.14070 0.41690 0.01600
C 	C 	0.67520 0.77390 0.99560 -0.00900
C 	C 	0.38970 0.63540 0.98080 0.32700
C 	C 	0.58640 0.79280 0.45470 -0.01900
C 	C 	0.41000 0.52240 0.19800 -0.05200
C 	C 	0.04510 0.41380 0.35410 0.05900
C 	C 	0.64360 0.54350 0.12010 -0.10000
C 	C 	0.50050 0.83140 0.63780 -0.08600
C 	C 	0.73940 0.70150 0.41250 -0.27800
C 	C 	0.51700 0.33030 0.93120 -0.06300
C 	C 	0.20950 0.40590 0.80230 -0.60800
C 	C 	0.13500 0.76130 0.52110 -0.24400
C 	C 	0.80310 0.48320 0.16640 0.08400
C 	C 	0.79050 0.19110 0.53250 0.05700
C 	C 	0.54900 0.03150 0.67480 0.46000
C 	C 	0.91000 0.71650 0.77040 0.63600
C 	C 	0.03360 0.30730 0.21520 0.00700
C 	C 	0.19110 0.96750 0.29050 0.05700
C 	C 	0.68410 0.71670 0.52760 -0.13400
C 	C 	0.21450 0.01360 0.33590 -0.05800
C 	C 	0.06880 0.01700 0.16970 -0.06300
C 	C 	0.56570 0.31900 0.27860 0.38500
C 	C 	0.79050 0.30890 0.03250 0.05700
C 	C 	0.63990 0.61070 0.95530 0.40400
C 	C 	0.47290 0.82870 0.53320 0.35900
C 	C 	0.82730 0.02310 0.69330 -0.10400
C 	C 	0.33360 0.30310 0.48320 0.08400
C 	C 	0.77120 0.83760 0.94940 0.51300
C 	C 	0.66960 0.00080 0.21860 -0.06700
C 	C 	0.55060 0.27120 0.83760 0.51300
C 	C 	0.93430 0.68100 0.77860 0.38500
C 	C 	0.34690 0.48980 0.24610 0.18400
C 	C 	0.32730 0.55690 0.26750 0.28700
C 	C 	0.94310 0.76750 0.32730 0.28700
C 	C 	0.50190 0.24270 0.86000 0.06900
C 	C 	0.88930 0.45530 0.63990 0.40400
C 	C 	0.49950 0.33140 0.86220 -0.08600
C 	C 	0.97690 0.19330 0.67270 -0.10400
C 	C 	0.21860 0.66960 0.00080 -0.06700
C 	C 	0.02760 0.68410 0.78330 -0.13400
C 	C 	0.74700 0.42970 0.65389 1.02500
C 	C 	0.66410 0.71450 0.48640 -0.05800
C 	C 	0.19770 0.79050 0.59410 -0.60800
C 	C 	0.26130 0.52110 0.36500 -0.24400
C 	C 	0.47060 0.78080 0.18890 0.02100
C 	C 	0.64770 0.74720 0.99100 0.45700
C 	C 	0.69690 0.98320 0.16640 0.08400
C 	C 	0.27860 0.56570 0.31900 0.38500
C 	C 	0.77390 0.99560 0.67520 -0.00900
C 	C 	0.20720 0.95470 0.91360 -0.01900
C 	C 	0.96750 0.29050 0.19110 0.05700
C 	C 	0.45530 0.63990 0.88930 0.40400
C 	C 	0.68670 0.05690 0.24270 -0.35800
C 	C 	0.99810 0.74270 0.86000 0.07000
C 	C 	0.72120 0.81900 0.91090 0.27100
C 	C 	0.36030 0.32710 0.04130 -0.04200
C 	C 	0.35410 0.45490 0.91380 0.05900
C 	C 	0.20320 0.54380 0.37760 0.11400
C 	C 	0.55690 0.26750 0.32730 0.28700
C 	C 	0.97240 0.18410 0.71670 -0.13400
C 	C 	0.48640 0.66410 0.71450 -0.05800
C 	C 	0.11740 0.99470 0.13970 -0.04600
C 	C 	0.70320 0.54380 0.12240 0.11400
C 	C 	0.83760 0.94940 0.77120 0.51300
C 	C 	0.56880 0.48300 0.83030 -0.06300
C 	C 	0.36000 0.99810 0.75730 0.07000
C 	C 	0.01700 0.33030 0.56880 -0.06300
C 	C 	0.75730 0.31330 0.94310 -0.35800
C 	C 	0.98980 0.24610 0.15310 0.18400
C 	C 	0.31110 0.97060 0.78080 0.02100
C 	C 	0.48630 0.69620 0.12570 0.13800
C 	C 	0.78080 0.31110 0.97060 0.02100
C 	C 	0.14360 0.95650 0.87990 -0.10000
C 	C 	0.06540 0.19280 0.73430 -0.45000
C 	C 	0.87430 0.98630 0.80380 0.13800
C 	C 	0.93430 0.81900 0.27860 0.38500
C 	C 	0.03360 0.19270 0.71520 0.00700
C 	C 	0.45470 0.58640 0.79280 -0.01900
C 	C 	0.22880 0.33760 0.55060 0.51300
C 	C 	0.90590 0.69770 0.79050 -0.60800
C 	C 	0.95020 0.75720 0.85540 -0.28600
C 	C 	0.76130 0.52110 0.13500 -0.24400
C 	C 	0.29050 0.19110 0.96750 0.05700
C 	C 	0.31330 0.55690 0.25730 -0.35800
C 	C 	0.21650 0.77040 0.59000 0.63600
C 	C 	0.24270 0.68670 0.05690 -0.35800
N 	N 	0.14310 0.76420 0.04260 -0.18100
N 	N 	0.64310 0.73580 0.95740 -0.18100
N 	N 	0.26420 0.45740 0.85690 -0.18100
N 	N 	0.85690 0.26420 0.45740 -0.18100
N 	N 	0.77300 0.64550 0.48160 -0.17300
N 	N 	0.14550 0.01840 0.22700 -0.17300
N 	N 	0.35450 0.51840 0.22700 -0.17300
N 	N 	0.98160 0.72700 0.35450 -0.17300
N 	N 	0.01840 0.27300 0.64550 -0.17300
N 	N 	0.72700 0.35450 0.98160 -0.17300
N 	N 	0.45740 0.64310 0.76420 -0.18100
N 	N 	0.22700 0.14550 0.01840 -0.17300
N 	N 	0.95740 0.64310 0.73580 -0.18100
N 	N 	0.85690 0.23580 0.95740 -0.18100
N 	N 	0.54260 0.14310 0.73580 -0.18100
N 	N 	0.35450 0.98160 0.72700 -0.17300
N 	N 	0.45740 0.85690 0.26420 -0.18100
N 	N 	0.95740 0.85690 0.23580 -0.18100
N 	N 	0.51840 0.27300 0.85450 -0.17300
N 	N 	0.76420 0.45740 0.64310 -0.18100
N 	N 	0.04260 0.35690 0.26420 -0.18100
N 	N 	0.85450 0.98160 0.77300 -0.17300
N 	N 	0.23580 0.54260 0.35690 -0.18100
N 	N 	0.48160 0.72700 0.14550 -0.17300
N 	N 	0.73580 0.54260 0.14310 -0.18100
N 	N 	0.22700 0.35450 0.51840 -0.17300
N 	N 	0.76420 0.04260 0.14310 -0.18100
N 	N 	0.73580 0.95740 0.64310 -0.18100
N 	N 	0.35690 0.26420 0.04260 -0.18100
N 	N 	0.54260 0.35690 0.23580 -0.18100
N 	N 	0.27300 0.64550 0.01840 -0.17300
N 	N 	0.04260 0.14310 0.76420 -0.18100
N 	N 	0.51840 0.22700 0.35450 -0.17300
N 	N 	0.64550 0.48160 0.77300 -0.17300
N 	N 	0.23580 0.95740 0.85690 -0.18100
N 	N 	0.35690 0.23580 0.54260 -0.18100
N 	N 	0.98160 0.77300 0.85450 -0.17300
N 	N 	0.48160 0.77300 0.64550 -0.17300
N 	N 	0.85450 0.51840 0.27300 -0.17300
N 	N 	0.77300 0.85450 0.98160 -0.17300
N 	N 	0.26420 0.04260 0.35690 -0.18100
N 	N 	0.01840 0.22700 0.14550 -0.17300
N 	N 	0.14550 0.48160 0.72700 -0.17300
N 	N 	0.64310 0.76420 0.45740 -0.18100
N 	N 	0.14310 0.73580 0.54260 -0.18100
N 	N 	0.64550 0.01840 0.27300 -0.17300
N 	N 	0.72700 0.14550 0.48160 -0.17300
N 	N 	0.27300 0.85450 0.51840 -0.17300
O 	O 	0.99650 0.37990 0.24840 -0.10400
O 	O 	0.50350 0.87990 0.24840 -0.10400
O 	O 	0.97958 0.08213 0.11851 -0.37500
O 	O 	0.02042 0.58213 0.38149 -0.37500
O 	O 	0.76630 0.51700 0.63510 -0.21400
O 	O 	0.51830 0.70240 0.94800 -0.46200
O 	O 	0.53970 0.73930 0.14370 -0.12300
O 	O 	0.47669 0.85512 0.51657 -0.40200
O 	O 	0.83590 0.03140 0.88794 -0.25300
O 	O 	0.64370 0.96030 0.26070 -0.12300
O 	O 	0.26630 0.51700 0.86490 -0.21400
O 	O 	0.20670 0.34130 0.57210 -0.23800
O 	O 	0.54392 0.94798 0.68663 -0.42600
O 	O 	0.33590 0.03140 0.61206 -0.25300
O 	O 	0.85940 0.92700 0.77640 -0.05800
O 	O 	0.48441 0.35158 0.04728 -0.47000
O 	O 	0.46030 0.26070 0.85630 -0.12300
O 	O 	0.53990 0.32850 0.11138 -0.46100
O 	O 	0.96200 0.80120 0.97805 -0.26100
O 	O 	0.24840 0.50350 0.87990 -0.10400
O 	O 	0.25160 0.49650 0.37990 -0.10400
O 	O 	0.01559 0.85158 0.04728 -0.47000
O 	O 	0.00350 0.62010 0.75160 -0.10400
O 	O 	0.61851 0.97958 0.41787 -0.37500
O 	O 	0.12276 0.91612 0.04311 -0.43600
O 	O 	0.85630 0.03970 0.76070 -0.12300
O 	O 	0.61206 0.33590 0.03140 -0.25300
O 	O 	0.96010 0.82850 0.11138 -0.46100
O 	O 	0.53800 0.30120 0.97805 -0.26100
O 	O 	0.83590 0.46860 0.38794 -0.25300
O 	O 	0.02460 0.75090 0.37370 -0.15200
O 	O 	0.91787 0.88149 0.02042 -0.37500
O 	O 	0.47805 0.96200 0.69880 -0.26100
O 	O 	0.44798 0.68663 0.95608 -0.42600
O 	O 	0.44800 0.98170 0.29760 -0.46200
O 	O 	0.72360 0.14060 0.42700 -0.05800
O 	O 	0.88862 0.03990 0.17150 -0.46100
O 	O 	0.41787 0.61851 0.97958 -0.37500
O 	O 	0.77640 0.85940 0.92700 -0.05800
O 	O 	0.09550 0.14620 0.76170 -0.41600
O 	O 	0.14620 0.76170 0.09550 -0.41600
O 	O 	0.64060 0.42700 0.77640 -0.05800
O 	O 	0.52331 0.14488 0.48343 -0.40200
O 	O 	0.96200 0.69880 0.47805 -0.26100
O 	O 	0.33590 0.46860 0.11206 -0.25300
O 	O 	0.11851 0.97958 0.08213 -0.37500
O 	O 	0.95608 0.44798 0.68663 -0.42600
O 	O 	0.17150 0.61138 0.53990 -0.46100
O 	O 	0.52195 0.46200 0.80120 -0.26100
O 	O 	0.80120 0.52195 0.46200 -0.26100
O 	O 	0.98170 0.20240 0.94800 -0.46200
O 	O 	0.62276 0.58388 0.95689 -0.43600
O 	O 	0.54392 0.55202 0.18663 -0.42600
O 	O 	0.76630 0.98300 0.13510 -0.21400
O 	O 	0.73370 0.48300 0.13510 -0.21400
O 	O 	0.02195 0.46200 0.69880 -0.26100
O 	O 	0.58213 0.11851 0.52042 -0.37500
O 	O 	0.52460 0.75090 0.12630 -0.15100
O 	O 	0.30120 0.97805 0.53800 -0.26100
O 	O 	0.75160 0.49650 0.12010 -0.10400
O 	O 	0.50350 0.62010 0.74840 -0.10400
O 	O 	0.88149 0.47958 0.41787 -0.37500
O 	O 	0.85512 0.98343 0.97669 -0.40200
O 	O 	0.74840 0.99650 0.12010 -0.10400
O 	O 	0.45689 0.87724 0.41612 -0.43600
O 	O 	0.97669 0.85512 0.98343 -0.40200
O 	O 	0.75090 0.37370 0.02460 -0.15200
O 	O 	0.61138 0.96010 0.67150 -0.46100
O 	O 	0.72290 0.90230 0.66400 0.23000
O 	O 	0.17150 0.88862 0.03990 -0.46100
O 	O 	0.37990 0.25160 0.49650 -0.10400
O 	O 	0.20240 0.94800 0.98170 -0.46200
O 	O 	0.79760 0.44800 0.51830 -0.46200
O 	O 	0.58213 0.38149 0.02042 -0.37500
O 	O 	0.67150 0.61138 0.96010 -0.46100
O 	O 	0.03140 0.61206 0.33590 -0.25300
O 	O 	0.08213 0.38149 0.47958 -0.37500
O 	O 	0.41612 0.45689 0.87724 -0.43600
O 	O 	0.52195 0.03800 0.30120 -0.26100
O 	O 	0.01830 0.70240 0.55200 -0.46200
O 	O 	0.54311 0.12276 0.58388 -0.43600
O 	O 	0.91612 0.45689 0.62276 -0.43600
O 	O 	0.11206 0.16410 0.96860 -0.25300
O 	O 	0.04311 0.37724 0.41612 -0.43600
O 	O 	0.38149 0.02042 0.58213 -0.37500
O 	O 	0.14842 0.54728 0.48441 -0.47000
O 	O 	0.05200 0.01830 0.79760 -0.46200
O 	O 	0.12630 0.97540 0.25090 -0.15200
O 	O 	0.23830 0.90450 0.85380 -0.41600
O 	O 	0.03970 0.76070 0.85630 -0.12300
O 	O 	0.98300 0.36490 0.26630 -0.21400
O 	O 	0.40230 0.66400 0.77710 0.23000
O 	O 	0.37370 0.02460 0.75090 -0.15200
O 	O 	0.97540 0.25090 0.12630 -0.15200
O 	O 	0.38862 0.46010 0.82850 -0.46100
O 	O 	0.09550 0.35380 0.26170 -0.41600
O 	O 	0.18663 0.54392 0.55202 -0.42600
O 	O 	0.64370 0.53970 0.76070 -0.12300
O 	O 	0.46030 0.23930 0.35630 -0.12300
O 	O 	0.88862 0.46010 0.67150 -0.46100
O 	O 	0.01700 0.63510 0.73370 -0.21400
O 	O 	0.08213 0.11851 0.97958 -0.37500
O 	O 	0.24910 0.87370 0.47540 -0.15100
O 	O 	0.01559 0.64842 0.54728 -0.47000
O 	O 	0.27710 0.09770 0.33600 0.23000
O 	O 	0.31337 0.04392 0.55202 -0.42600
O 	O 	0.52042 0.58213 0.11851 -0.37500
O 	O 	0.85380 0.23830 0.90450 -0.41600
O 	O 	0.45272 0.51559 0.85158 -0.47000
O 	O 	0.45608 0.05202 0.31337 -0.42600
O 	O 	0.81337 0.45608 0.44798 -0.42600
O 	O 	0.84130 0.57210 0.29330 -0.23800
O 	O 	0.45272 0.98441 0.35158 -0.47000
O 	O 	0.87370 0.02460 0.74910 -0.15200
O 	O 	0.14488 0.01657 0.02331 -0.40200
O 	O 	0.98441 0.14842 0.95272 -0.47000
O 	O 	0.12010 0.74840 0.99650 -0.10400
O 	O 	0.54728 0.48441 0.14842 -0.47000
O 	O 	0.66400 0.77710 0.40230 0.23000
O 	O 	0.94800 0.98170 0.20240 -0.46200
O 	O 	0.70240 0.55200 0.01830 -0.46200
O 	O 	0.97540 0.24910 0.62630 -0.15200
O 	O 	0.11851 0.52042 0.58213 -0.37500
O 	O 	0.49650 0.37990 0.25160 -0.10400
O 	O 	0.92700 0.77640 0.85940 -0.05800
O 	O 	0.52460 0.74910 0.62630 -0.15200
O 	O 	0.98170 0.29760 0.44800 -0.46200
O 	O 	0.18663 0.95608 0.05202 -0.42600
O 	O 	0.14620 0.73830 0.59550 -0.41600
O 	O 	0.75160 0.00350 0.62010 -0.10400
O 	O 	0.94800 0.51830 0.70240 -0.46200
O 	O 	0.45689 0.62276 0.91612 -0.43600
O 	O 	0.64488 0.48343 0.97669 -0.40200
O 	O 	0.36490 0.26630 0.98300 -0.21400
O 	O 	0.42790 0.79330 0.65870 -0.23800
O 	O 	0.16400 0.72290 0.59770 0.23000
O 	O 	0.38862 0.03990 0.32850 -0.46100
O 	O 	0.55202 0.18663 0.54392 -0.42600
O 	O 	0.37724 0.08388 0.54311 -0.43600
O 	O 	0.49650 0.12010 0.75160 -0.10400
O 	O 	0.14060 0.07300 0.22360 -0.05800
O 	O 	0.51700 0.86490 0.26630 -0.21400
O 	O 	0.96010 0.67150 0.61138 -0.46100
O 	O 	0.52331 0.35512 0.98343 -0.40200
O 	O 	0.74910 0.62630 0.52460 -0.15200
O 	O 	0.12630 0.52460 0.75090 -0.15100
O 	O 	0.87370 0.47540 0.24910 -0.15100
O 	O 	0.23830 0.59550 0.35380 -0.41600
O 	O 	0.01657 0.02331 0.14488 -0.40200
O 	O 	0.66410 0.96860 0.38794 -0.25300
O 	O 	0.23930 0.14370 0.96030 -0.12300
O 	O 	0.54311 0.37724 0.08388 -0.43600
O 	O 	0.32850 0.11138 0.53990 -0.46100
O 	O 	0.25090 0.37370 0.47540 -0.15200
O 	O 	0.96860 0.38794 0.66410 -0.25300
O 	O 	0.65870 0.07210 0.29330 -0.23800
O 	O 	0.85940 0.57300 0.27640 -0.05800
O 	O 	0.26170 0.40450 0.85380 -0.41600
O 	O 	0.44800 0.51830 0.79760 -0.46200
O 	O 	0.46010 0.82850 0.38862 -0.46100
O 	O 	0.37990 0.24840 0.99650 -0.10400
O 	O 	0.87724 0.41612 0.45689 -0.43600
O 	O 	0.70240 0.94800 0.51830 -0.46200
O 	O 	0.14060 0.42700 0.72360 -0.05800
O 	O 	0.02331 0.35512 0.51657 -0.40200
O 	O 	0.88794 0.83590 0.03140 -0.25300
O 	O 	0.23370 0.48300 0.36490 -0.21400
O 	O 	0.80120 0.97805 0.96200 -0.26100
O 	O 	0.61138 0.53990 0.17150 -0.46100
O 	O 	0.59770 0.16400 0.72290 0.23000
O 	O 	0.95608 0.05202 0.18663 -0.42600
O 	O 	0.85630 0.46030 0.26070 -0.12300
O 	O 	0.07300 0.27640 0.64060 -0.05800
O 	O 	0.08388 0.95689 0.87724 -0.43600
O 	O 	0.92790 0.79330 0.84130 -0.23800
O 	O 	0.05200 0.48170 0.29760 -0.46200
O 	O 	0.02042 0.91787 0.88149 -0.37500
O 	O 	0.86490 0.23370 0.01700 -0.21400
O 	O 	0.09770 0.16400 0.77710 0.23000
O 	O 	0.73930 0.35630 0.03970 -0.12300
O 	O 	0.07210 0.20670 0.15870 -0.23800
O 	O 	0.14370 0.96030 0.23930 -0.12300
O 	O 	0.20670 0.15870 0.07210 -0.23800
O 	O 	0.40450 0.85380 0.26170 -0.41600
O 	O 	0.24910 0.62630 0.97540 -0.15200
O 	O 	0.87990 0.25160 0.00350 -0.10400
O 	O 	0.25090 0.12630 0.97540 -0.15200
O 	O 	0.35630 0.46030 0.23930 -0.12300
O 	O 	0.92790 0.70670 0.34130 -0.23800
O 	O 	0.46860 0.11206 0.33590 -0.25300
O 	O 	0.76070 0.85630 0.03970 -0.12300
O 	O 	0.64488 0.01657 0.47669 -0.40200
O 	O 	0.11138 0.96010 0.82850 -0.46100
O 	O 	0.64620 0.73830 0.90450 -0.41600
O 	O 	0.35158 0.45272 0.98441 -0.47000
O 	O 	0.35630 0.03970 0.73930 -0.12300
O 	O 	0.96030 0.26070 0.64370 -0.12300
O 	O 	0.13510 0.73370 0.48300 -0.21400
O 	O 	0.47540 0.24910 0.87370 -0.15100
O 	O 	0.72290 0.59770 0.16400 0.23000
O 	O 	0.46860 0.38794 0.83590 -0.25300
O 	O 	0.42790 0.70670 0.15870 -0.23800
O 	O 	0.47805 0.53800 0.19880 -0.26100
O 	O 	0.58388 0.95689 0.62276 -0.43600
O 	O 	0.69880 0.02195 0.46200 -0.26100
O 	O 	0.90230 0.83600 0.22290 0.23000
O 	O 	0.94798 0.81337 0.04392 -0.42600
O 	O 	0.13510 0.76630 0.98300 -0.21400
O 	O 	0.48343 0.52331 0.14488 -0.40200
O 	O 	0.70670 0.34130 0.92790 -0.23800
O 	O 	0.77710 0.40230 0.66400 0.23000
O 	O 	0.35940 0.92700 0.72360 -0.05800
O 	O 	0.29330 0.84130 0.57210 -0.23800
O 	O 	0.76070 0.64370 0.53970 -0.12300
O 	O 	0.48300 0.36490 0.23370 -0.21400
O 	O 	0.22290 0.59770 0.33600 0.23000
O 	O 	0.88794 0.66410 0.53140 -0.25300
O 	O 	0.07300 0.22360 0.14060 -0.05800
O 	O 	0.33600 0.27710 0.09770 0.23000
O 	O 	0.45608 0.44798 0.81337 -0.42600
O 	O 	0.12276 0.58388 0.54311 -0.43600
O 	O 	0.70670 0.15870 0.42790 -0.23800
O 	O 	0.35158 0.04728 0.48441 -0.47000
O 	O 	0.59550 0.14620 0.73830 -0.41600
O 	O 	0.16400 0.77710 0.09770 0.23000
O 	O 	0.05202 0.18663 0.95608 -0.42600
O 	O 	0.55200 0.01830 0.70240 -0.46200
O 	O 	0.26170 0.09550 0.35380 -0.41600
O 	O 	0.62630 0.97540 0.24910 -0.15200
O 	O 	0.91612 0.04311 0.12276 -0.43600
O 	O 	0.99650 0.12010 0.74840 -0.10400
O 	O 	0.84130 0.92790 0.79330 -0.23800
O 	O 	0.85158 0.45272 0.51559 -0.47000
O 	O 	0.96860 0.11206 0.16410 -0.25300
O 	O 	0.11206 0.33590 0.46860 -0.25300
O 	O 	0.04392 0.94798 0.81337 -0.42600
O 	O 	0.38149 0.47958 0.08213 -0.37500
O 	O 	0.52042 0.91787 0.61851 -0.37500
O 	O 	0.48170 0.20240 0.55200 -0.46200
O 	O 	0.94798 0.68663 0.54392 -0.42600
O 	O 	0.33600 0.22290 0.59770 0.23000
O 	O 	0.04728 0.48441 0.35158 -0.47000
O 	O 	0.29760 0.05200 0.48170 -0.46200
O 	O 	0.03800 0.30120 0.52195 -0.26100
O 	O 	0.19880 0.47805 0.53800 -0.26100
O 	O 	0.57300 0.27640 0.85940 -0.05800
O 	O 	0.55200 0.48170 0.20240 -0.46200
O 	O 	0.47669 0.64488 0.01657 -0.40200
O 	O 	0.37724 0.41612 0.04311 -0.43600
O 	O 	0.08388 0.54311 0.37724 -0.43600
O 	O 	0.81337 0.04392 0.94798 -0.42600
O 	O 	0.02331 0.14488 0.01657 -0.40200
O 	O 	0.97805 0.53800 0.30120 -0.26100
O 	O 	0.27640 0.85940 0.57300 -0.05800
O 	O 	0.22360 0.35940 0.57300 -0.05800
O 	O 	0.29760 0.44800 0.98170 -0.46200
O 	O 	0.97958 0.41787 0.61851 -0.37500
O 	O 	0.73370 0.01700 0.63510 -0.21400
O 	O 	0.41612 0.04311 0.37724 -0.43600
O 	O 	0.97669 0.64488 0.48343 -0.40200
O 	O 	0.98343 0.97669 0.85512 -0.40200
O 	O 	0.14370 0.53970 0.73930 -0.12300
O 	O 	0.35940 0.57300 0.22360 -0.05800
O 	O 	0.25160 0.00350 0.87990 -0.10400
O 	O 	0.83600 0.22290 0.90230 0.23000
O 	O 	0.22360 0.14060 0.07300 -0.05800
O 	O 	0.55202 0.31337 0.04392 -0.42600
O 	O 	0.85512 0.51657 0.47669 -0.40200
O 	O 	0.51830 0.79760 0.44800 -0.46200
O 	O 	0.30120 0.52195 0.03800 -0.26100
O 	O 	0.96030 0.23930 0.14370 -0.12300
O 	O 	0.73830 0.90450 0.64620 -0.41600
O 	O 	0.26070 0.64370 0.96030 -0.12300
O 	O 	0.42700 0.77640 0.64060 -0.05800
O 	O 	0.57210 0.29330 0.84130 -0.23800
O 	O 	0.69880 0.47805 0.96200 -0.26100
O 	O 	0.68663 0.95608 0.44798 -0.42600
O 	O 	0.74910 0.87370 0.02460 -0.15200
O 	O 	0.29330 0.65870 0.07210 -0.23800
O 	O 	0.34130 0.57210 0.20670 -0.23800
O 	O 	0.47958 0.08213 0.38149 -0.37500
O 	O 	0.27640 0.64060 0.07300 -0.05800
O 	O 	0.47540 0.25090 0.37370 -0.15200
O 	O 	0.22290 0.90230 0.83600 0.23000
O 	O 	0.65870 0.42790 0.79330 -0.23800
O 	O 	0.15870 0.07210 0.20670 -0.23800
O 	O 	0.47958 0.41787 0.88149 -0.37500
O 	O 	0.57300 0.22360 0.35940 -0.05800
O 	O 	0.03990 0.32850 0.38862 -0.46100
O 	O 	0.05202 0.31337 0.45608 -0.42600
O 	O 	0.24840 0.99650 0.37990 -0.10400
O 	O 	0.48343 0.97669 0.64488 -0.40200
O 	O 	0.90450 0.85380 0.23830 -0.41600
O 	O 	0.85158 0.04728 0.01559 -0.47000
O 	O 	0.20240 0.55200 0.48170 -0.46200
O 	O 	0.26070 0.85630 0.46030 -0.12300
O 	O 	0.03800 0.19880 0.02195 -0.26100
O 	O 	0.61851 0.52042 0.91787 -0.37500
O 	O 	0.35380 0.26170 0.09550 -0.41600
O 	O 	0.51559 0.64842 0.95272 -0.47000
O 	O 	0.16410 0.53140 0.61206 -0.25300
O 	O 	0.77710 0.09770 0.16400 0.23000
O 	O 	0.04392 0.55202 0.31337 -0.42600
O 	O 	0.79760 0.05200 0.01830 -0.46200
O 	O 	0.27710 0.40230 0.83600 0.23000
O 	O 	0.46010 0.67150 0.88862 -0.46100
O 	O 	0.51559 0.85158 0.45272 -0.47000
O 	O 	0.04728 0.01559 0.85158 -0.47000
O 	O 	0.53140 0.61206 0.16410 -0.25300
O 	O 	0.63510 0.76630 0.51700 -0.21400
O 	O 	0.38794 0.83590 0.46860 -0.25300
O 	O 	0.95689 0.62276 0.58388 -0.43600
O 	O 	0.76170 0.40450 0.64620 -0.41600
O 	O 	0.64842 0.95272 0.51559 -0.47000
O 	O 	0.11138 0.53990 0.32850 -0.46100
O 	O 	0.53800 0.19880 0.47805 -0.26100
O 	O 	0.82850 0.11138 0.96010 -0.46100
O 	O 	0.40450 0.64620 0.76170 -0.41600
O 	O 	0.44798 0.81337 0.45608 -0.42600
O 	O 	0.46200 0.69880 0.02195 -0.26100
O 	O 	0.53990 0.17150 0.61138 -0.46100
O 	O 	0.48441 0.14842 0.54728 -0.47000
O 	O 	0.59550 0.35380 0.23830 -0.41600
O 	O 	0.66400 0.72290 0.90230 0.23000
O 	O 	0.03970 0.73930 0.35630 -0.12300
O 	O 	0.85380 0.26170 0.40450 -0.41600
O 	O 	0.53970 0.76070 0.64370 -0.12300
O 	O 	0.41787 0.88149 0.47958 -0.37500
O 	O 	0.14488 0.48343 0.52331 -0.40200
O 	O 	0.34130 0.92790 0.70670 -0.23800
O 	O 	0.73930 0.14370 0.53970 -0.12300
O 	O 	0.64842 0.54728 0.01559 -0.47000
O 	O 	0.79330 0.84130 0.92790 -0.23800
O 	O 	0.62010 0.74840 0.50350 -0.10400
O 	O 	0.03990 0.17150 0.88862 -0.46100
O 	O 	0.40230 0.83600 0.27710 0.23000
O 	O 	0.86490 0.26630 0.51700 -0.21400
O 	O 	0.51657 0.02331 0.35512 -0.40200
O 	O 	0.64060 0.07300 0.27640 -0.05800
O 	O 	0.73830 0.59550 0.14620 -0.41600
O 	O 	0.26630 0.98300 0.36490 -0.21400
O 	O 	0.62010 0.75160 0.00350 -0.10400
O 	O 	0.98441 0.35158 0.45272 -0.47000
O 	O 	0.16410 0.96860 0.11206 -0.25300
O 	O 	0.97805 0.96200 0.80120 -0.26100
O 	O 	0.38794 0.66410 0.96860 -0.25300
O 	O 	0.83600 0.27710 0.40230 0.23000
O 	O 	0.76170 0.09550 0.14620 -0.41600
O 	O 	0.95272 0.51559 0.64842 -0.47000
O 	O 	0.57210 0.20670 0.34130 -0.23800
O 	O 	0.95689 0.87724 0.08388 -0.43600
O 	O 	0.23930 0.35630 0.46030 -0.12300
O 	O 	0.02195 0.03800 0.19880 -0.26100
O 	O 	0.62630 0.52460 0.74910 -0.15200
O 	O 	0.68663 0.54392 0.94798 -0.42600
O 	O 	0.00350 0.87990 0.25160 -0.10400
O 	O 	0.90230 0.66400 0.72290 0.23000
O 	O 	0.02460 0.74910 0.87370 -0.15200
O 	O 	0.67150 0.88862 0.46010 -0.46100
O 	O 	0.09770 0.33600 0.27710 0.23000
O 	O 	0.87990 0.24840 0.50350 -0.10400
O 	O 	0.77640 0.64060 0.42700 -0.05800
O 	O 	0.59770 0.33600 0.22290 0.23000
O 	O 	0.61206 0.16410 0.53140 -0.25300
O 	O 	0.14842 0.95272 0.98441 -0.47000
O 	O 	0.74840 0.50350 0.62010 -0.10400
O 	O 	0.92700 0.72360 0.35940 -0.05800
O 	O 	0.37370 0.47540 0.25090 -0.15200
O 	O 	0.90450 0.64620 0.73830 -0.41600
O 	O 	0.51657 0.47669 0.85512 -0.40200
O 	O 	0.31337 0.45608 0.05202 -0.42600
O 	O 	0.51700 0.63510 0.76630 -0.21400
O 	O 	0.04311 0.12276 0.91612 -0.43600
O 	O 	0.95272 0.98441 0.14842 -0.47000
O 	O 	0.64620 0.76170 0.40450 -0.41600
O 	O 	0.82850 0.38862 0.46010 -0.46100
O 	O 	0.72360 0.35940 0.92700 -0.05800
O 	O 	0.36490 0.23370 0.48300 -0.21400
O 	O 	0.54728 0.01559 0.64842 -0.47000
O 	O 	0.98300 0.13510 0.76630 -0.21400
O 	O 	0.87724 0.08388 0.95689 -0.43600
O 	O 	0.91787 0.61851 0.52042 -0.37500
O 	O 	0.53140 0.88794 0.66410 -0.25300
O 	O 	0.48300 0.13510 0.73370 -0.21400
O 	O 	0.12010 0.75160 0.49650 -0.10400
O 	O 	0.35512 0.98343 0.52331 -0.40200
O 	O 	0.66410 0.53140 0.88794 -0.25300
O 	O 	0.79330 0.65870 0.42790 -0.23800
O 	O 	0.19880 0.02195 0.03800 -0.26100
O 	O 	0.88149 0.02042 0.91787 -0.37500
O 	O 	0.23370 0.01700 0.86490 -0.21400
O 	O 	0.03140 0.88794 0.83590 -0.25300
O 	O 	0.58388 0.54311 0.12276 -0.43600
O 	O 	0.01700 0.86490 0.23370 -0.21400
O 	O 	0.01657 0.47669 0.64488 -0.40200
O 	O 	0.46200 0.80120 0.52195 -0.26100
O 	O 	0.01830 0.79760 0.05200 -0.46200
O 	O 	0.63510 0.73370 0.01700 -0.21400
O 	O 	0.35512 0.51657 0.02331 -0.40200
O 	O 	0.48170 0.29760 0.05200 -0.46200
O 	O 	0.62276 0.91612 0.45689 -0.43600
O 	O 	0.42700 0.72360 0.14060 -0.05800
O 	O 	0.07210 0.29330 0.65870 -0.23800
O 	O 	0.32850 0.38862 0.03990 -0.46100
O 	O 	0.35380 0.23830 0.59550 -0.41600
O 	O 	0.98343 0.52331 0.35512 -0.40200
O 	O 	0.15870 0.42790 0.70670 -0.23800
O 	O 	0.75090 0.12630 0.52460 -0.15100
