data_crystal

_cell_length_a 13.69000
_cell_length_b 27.59600
_cell_length_c 45.41900
_cell_angle_alpha 90.00000
_cell_angle_beta  90.00000
_cell_angle_gamma 90.00000

_symmetry_space_group_name_	'P 1'
_symmetry_space_group_name_H-M	'P 1'

loop_
_symmetry_equiv_pos_as_xyz
  x,y,z

loop_
_atom_site_label
_atom_site_type_symbol
_atom_site_fract_x
_atom_site_fract_y
_atom_site_fract_z
_atom_site_charge
Zn	Zn	0.34739 0.54947 0.92450 1.16400
Zn	Zn	0.63734 0.47238 0.40951 1.16300
Zn	Zn	0.84367 0.25239 0.31417 1.16400
Zn	Zn	0.15633 0.24761 0.81417 1.16400
Zn	Zn	0.65633 0.75239 0.68583 1.16400
Zn	Zn	0.86266 0.97238 0.59049 1.16300
Zn	Zn	0.36266 0.02762 0.90951 1.16300
Zn	Zn	0.15261 0.04947 0.07550 1.16400
Zn	Zn	0.13734 0.52762 0.09049 1.16300
Zn	Zn	0.84739 0.45053 0.57550 1.16400
Zn	Zn	0.34367 0.74761 0.18583 1.16400
Zn	Zn	0.65261 0.95053 0.42450 1.16400
H 	H 	0.58570 0.83270 0.72400 -0.00600
H 	H 	0.88820 0.38430 0.47390 0.07800
H 	H 	0.64730 0.08070 0.97080 0.08700
H 	H 	0.51780 0.80130 0.27680 0.08000
H 	H 	0.92490 0.41980 0.63440 -0.01100
H 	H 	0.85770 0.19440 0.86960 0.07300
H 	H 	0.08570 0.16730 0.77600 -0.00600
H 	H 	0.59870 0.65230 0.40580 0.08100
H 	H 	0.44730 0.76830 0.66790 -0.01200
H 	H 	0.31360 0.40060 0.38420 0.10000
H 	H 	0.69450 0.81120 0.63260 -0.01000
H 	H 	0.45230 0.64980 0.83820 0.08100
H 	H 	0.54180 0.69150 0.72890 0.00200
H 	H 	0.96890 0.56900 0.12360 -0.01100
H 	H 	0.38820 0.61570 0.02610 0.07800
H 	H 	0.62550 0.77100 0.40940 0.07900
H 	H 	0.90130 0.15230 0.59420 0.08100
H 	H 	0.94730 0.23170 0.83210 -0.01200
H 	H 	0.15320 0.15670 0.06550 -0.01500
H 	H 	0.68640 0.09940 0.88420 0.10000
H 	H 	0.18640 0.90060 0.61580 0.10000
H 	H 	0.53110 0.06900 0.87640 -0.01100
H 	H 	0.55850 0.58820 0.32710 0.08100
H 	H 	0.35770 0.80560 0.63040 0.07300
H 	H 	0.12280 0.42340 0.07350 -0.01100
H 	H 	0.44150 0.91180 0.82710 0.08100
H 	H 	0.14730 0.91930 0.52920 0.08800
H 	H 	0.84680 0.34330 0.56550 -0.01500
H 	H 	0.50760 0.44810 0.46160 -0.00900
H 	H 	0.19340 0.09150 0.01570 -0.00600
H 	H 	0.47550 0.65590 0.27110 0.07800
H 	H 	0.35270 0.41930 0.47080 0.08700
H 	H 	0.99240 0.94810 0.53840 -0.01000
H 	H 	0.34680 0.65670 0.93450 -0.01500
H 	H 	0.87720 0.07660 0.57350 -0.01100
H 	H 	0.95230 0.35020 0.66180 0.08100
H 	H 	0.61320 0.84830 0.59380 0.08100
H 	H 	0.00760 0.55190 0.03840 -0.00900
H 	H 	0.48220 0.69870 0.77680 0.08000
H 	H 	0.86430 0.06050 0.00810 0.08900
H 	H 	0.58290 0.51350 0.35010 -0.00800
H 	H 	0.80660 0.40850 0.51570 -0.00600
H 	H 	0.11320 0.15170 0.90620 0.08100
H 	H 	0.94150 0.08820 0.67290 0.08100
H 	H 	0.37720 0.92340 0.92650 -0.01100
H 	H 	0.97550 0.34410 0.22890 0.07800
H 	H 	0.80550 0.31120 0.36740 -0.01000
H 	H 	0.02450 0.15590 0.72890 0.07800
H 	H 	0.41430 0.66730 0.22400 -0.00600
H 	H 	0.87450 0.27100 0.59060 0.07900
H 	H 	0.07510 0.08020 0.13440 -0.01100
H 	H 	0.08290 0.48650 0.14990 -0.00800
H 	H 	0.04770 0.14980 0.16180 0.08100
H 	H 	0.85270 0.58070 0.02920 0.08700
H 	H 	0.91430 0.33270 0.27600 -0.00600
H 	H 	0.45820 0.80850 0.22890 0.00200
H 	H 	0.04180 0.30850 0.77110 0.00200
H 	H 	0.42490 0.58020 0.86560 -0.01100
H 	H 	0.11180 0.11570 0.97390 0.07900
H 	H 	0.30550 0.68880 0.13260 -0.01000
H 	H 	0.40130 0.84770 0.90580 0.08100
H 	H 	0.03110 0.93100 0.62360 -0.01200
H 	H 	0.45150 0.96370 0.45120 -0.00800
H 	H 	0.49240 0.05190 0.96160 -0.00900
H 	H 	0.61180 0.88430 0.52610 0.07800
H 	H 	0.38680 0.65170 0.09380 0.08100
H 	H 	0.64230 0.69440 0.13040 0.07300
H 	H 	0.30660 0.59150 0.98430 -0.00600
H 	H 	0.69340 0.90850 0.48430 -0.00600
H 	H 	0.95820 0.19150 0.27110 0.00200
H 	H 	0.63570 0.56050 0.99190 0.08900
H 	H 	0.01780 0.19870 0.22320 0.07900
H 	H 	0.98220 0.30130 0.72320 0.08000
H 	H 	0.65320 0.84330 0.43450 -0.01500
H 	H 	0.91710 0.01350 0.64990 -0.00800
H 	H 	0.88680 0.34830 0.40620 0.08100
H 	H 	0.05850 0.41180 0.17290 0.08100
H 	H 	0.57510 0.91980 0.36560 -0.01100
H 	H 	0.41710 0.98650 0.85010 -0.00800
H 	H 	0.46890 0.43100 0.37640 -0.01100
H 	H 	0.52450 0.84410 0.77110 0.07800
H 	H 	0.54850 0.53630 0.95120 -0.00900
H 	H 	0.37450 0.72900 0.90940 0.07900
H 	H 	0.13570 0.43950 0.50810 0.08900
H 	H 	0.62280 0.57660 0.42650 -0.01100
H 	H 	0.81360 0.59940 0.11580 0.10000
H 	H 	0.04850 0.46370 0.54880 -0.00800
H 	H 	0.95150 0.03630 0.04880 -0.00900
H 	H 	0.54770 0.85020 0.33820 0.08100
H 	H 	0.05270 0.26830 0.33210 -0.01200
H 	H 	0.14230 0.30560 0.36960 0.07300
H 	H 	0.36430 0.93950 0.49190 0.08900
H 	H 	0.19450 0.18880 0.86740 -0.01000
H 	H 	0.12550 0.22900 0.09060 0.07800
H 	H 	0.55270 0.73170 0.16790 -0.01200
H 	H 	0.09870 0.34770 0.09420 0.08100
C 	C 	0.11520 0.19884 0.10013 -0.11700
C 	C 	0.62540 0.91480 0.48579 0.06600
C 	C 	0.57740 0.83215 0.60878 -0.11200
C 	C 	0.97630 0.16948 0.89215 0.05700
C 	C 	0.85240 0.58950 0.09954 -0.13700
C 	C 	0.92310 0.14498 0.91638 0.10500
C 	C 	0.91290 0.04230 0.63846 0.06700
C 	C 	0.07220 0.41322 0.15241 -0.11700
C 	C 	0.12540 0.08520 0.01421 0.06600
C 	C 	0.81700 0.59289 0.07145 0.06300
C 	C 	0.99620 0.22652 0.23363 -0.10700
C 	C 	0.56800 0.56762 0.99066 -0.12300
C 	C 	0.62520 0.80989 0.63194 0.07300
C 	C 	0.57720 0.89990 0.51063 -0.11300
C 	C 	0.64760 0.08950 0.90046 -0.13700
C 	C 	0.93580 0.17649 0.64985 0.10100
C 	C 	0.07290 0.30683 0.36969 -0.11100
C 	C 	0.92710 0.19317 0.86969 -0.11200
C 	C 	0.92280 0.39990 0.48937 -0.11200
C 	C 	0.92220 0.12842 0.63596 0.05500
C 	C 	0.93510 0.30533 0.26493 0.05700
C 	C 	0.49980 0.72760 0.27937 0.04600
C 	C 	0.42260 0.66785 0.10878 -0.11200
C 	C 	0.50380 0.72652 0.76637 -0.10700
C 	C 	0.40400 0.87585 0.89373 -0.11800
C 	C 	0.59600 0.62415 0.39373 -0.11800
C 	C 	0.51920 0.71500 0.15264 0.06300
C 	C 	0.99980 0.27240 0.22063 0.04600
C 	C 	0.56770 0.75796 0.35384 0.10300
C 	C 	0.49620 0.77348 0.26637 -0.10700
C 	C 	0.58620 0.88912 0.37450 0.06900
C 	C 	0.62440 0.07860 0.95107 -0.13300
C 	C 	0.53970 0.72259 0.73788 0.06000
C 	C 	0.93200 0.06762 0.00934 -0.12300
C 	C 	0.43080 0.65217 0.85801 -0.11900
C 	C 	0.47630 0.83052 0.60785 0.05600
C 	C 	0.03090 0.27752 0.18933 0.10500
C 	C 	0.21430 0.38992 0.43366 0.09200
C 	C 	0.02920 0.18756 0.73689 -0.10900
C 	C 	0.18300 0.90711 0.57145 0.06400
C 	C 	0.43230 0.74204 0.85384 0.10300
C 	C 	0.92340 0.10857 0.96030 0.10100
C 	C 	0.42780 0.91322 0.84759 -0.11700
C 	C 	0.46750 0.43870 0.44553 0.08100
C 	C 	0.37460 0.58520 0.98579 0.06600
C 	C 	0.90400 0.12415 0.60627 -0.11800
C 	C 	0.68300 0.09289 0.92855 0.06400
C 	C 	0.06920 0.15217 0.14199 -0.11900
C 	C 	0.42710 0.80683 0.63031 -0.11200
C 	C 	0.92780 0.08678 0.65241 -0.11700
C 	C 	0.07690 0.35502 0.41638 0.10600
C 	C 	0.03970 0.27741 0.76212 0.06000
C 	C 	0.91380 0.38912 0.62550 0.06900
C 	C 	0.55510 0.07150 0.89600 0.07900
C 	C 	0.08400 0.19710 0.12908 0.05300
C 	C 	0.87460 0.41480 0.51421 0.06600
C 	C 	0.92260 0.33215 0.39122 -0.11200
C 	C 	0.93080 0.34783 0.64199 -0.11900
C 	C 	0.41380 0.61088 0.87450 0.06900
C 	C 	0.87560 0.57860 0.04893 -0.13300
C 	C 	0.08710 0.45770 0.13846 0.06700
C 	C 	0.88980 0.07887 0.59403 0.07400
C 	C 	0.00020 0.22760 0.72063 0.04500
C 	C 	0.36870 0.65559 0.91470 0.06600
C 	C 	0.37480 0.69011 0.13194 0.07300
C 	C 	0.96030 0.22259 0.26212 0.06000
C 	C 	0.01920 0.28500 0.34736 0.06200
C 	C 	0.46030 0.77741 0.23788 0.06000
C 	C 	0.57660 0.60857 0.03970 0.10100
C 	C 	0.47080 0.68756 0.26311 -0.10900
C 	C 	0.58400 0.80290 0.37092 0.05300
C 	C 	0.98080 0.21500 0.84736 0.06300
C 	C 	0.02310 0.40771 0.48694 0.05100
C 	C 	0.58710 0.54230 0.36154 0.06700
C 	C 	0.02370 0.33052 0.39215 0.05600
C 	C 	0.42310 0.85502 0.58362 0.10600
C 	C 	0.56920 0.84783 0.35801 -0.11900
C 	C 	0.38480 0.69884 0.89987 -0.11700
C 	C 	0.97080 0.31244 0.23689 -0.10900
C 	C 	0.06420 0.32351 0.14985 0.10100
C 	C 	0.57780 0.62842 0.36404 0.05500
C 	C 	0.96750 0.56130 0.05447 0.08000
C 	C 	0.87480 0.30989 0.36806 0.07300
C 	C 	0.96910 0.22248 0.68933 0.10600
C 	C 	0.05510 0.92850 0.60400 0.08000
C 	C 	0.07740 0.16785 0.89122 -0.11300
C 	C 	0.46910 0.77752 0.81067 0.10600
C 	C 	0.43200 0.93238 0.49066 -0.12300
C 	C 	0.52310 0.59229 0.01306 0.05100
C 	C 	0.91600 0.30290 0.62908 0.05300
C 	C 	0.53250 0.06130 0.94553 0.08100
C 	C 	0.09600 0.37585 0.10627 -0.11800
C 	C 	0.41600 0.69710 0.87092 0.05300
C 	C 	0.63130 0.84441 0.41470 0.06600
C 	C 	0.42220 0.87158 0.86404 0.05500
C 	C 	0.86870 0.34441 0.58530 0.06600
C 	C 	0.94490 0.57150 0.10400 0.07900
C 	C 	0.61020 0.57887 0.40597 0.07400
C 	C 	0.57290 0.69317 0.13031 -0.11200
C 	C 	0.48450 0.94679 0.46645 0.06900
C 	C 	0.43580 0.82351 0.85015 0.10100
C 	C 	0.37560 0.42140 0.45107 -0.13300
C 	C 	0.06490 0.19467 0.76493 0.05700
C 	C 	0.44490 0.42850 0.39600 0.07900
C 	C 	0.31700 0.40711 0.42855 0.06400
C 	C 	0.78570 0.11008 0.93366 0.09200
C 	C 	0.98450 0.05321 0.03355 0.06900
C 	C 	0.35240 0.41050 0.40046 -0.13700
C 	C 	0.08620 0.11088 0.12550 0.06900
C 	C 	0.56490 0.80533 0.73507 0.05700
C 	C 	0.47690 0.90771 0.51306 0.05100
C 	C 	0.38980 0.92113 0.90597 0.07400
C 	C 	0.93230 0.25796 0.64616 0.10300
C 	C 	0.52920 0.81244 0.76311 -0.10900
C 	C 	0.13130 0.15559 0.08530 0.06600
C 	C 	0.97690 0.09229 0.98694 0.05200
C 	C 	0.52370 0.66948 0.10785 0.05600
C 	C 	0.28570 0.88992 0.56634 0.09200
C 	C 	0.56420 0.67649 0.35015 0.10100
C 	C 	0.43510 0.69467 0.23507 0.05700
C 	C 	0.03250 0.93870 0.55447 0.08300
C 	C 	0.88480 0.30116 0.60013 -0.11700
C 	C 	0.42340 0.89143 0.53970 0.10100
C 	C 	0.07660 0.39143 0.46030 0.10100
C 	C 	0.51550 0.55321 0.96645 0.06800
C 	C 	0.48080 0.78500 0.65264 0.06300
C 	C 	0.50020 0.77240 0.77937 0.04600
C 	C 	0.12520 0.19011 0.86806 0.07300
C 	C 	0.12440 0.92140 0.54893 -0.13400
C 	C 	0.71430 0.61008 0.06634 0.09200
C 	C 	0.01550 0.44679 0.53355 0.06800
C 	C 	0.14760 0.91050 0.59954 -0.13800
C 	C 	0.00380 0.27348 0.73363 -0.10800
C 	C 	0.53090 0.72248 0.31067 0.10600
C 	C 	0.06800 0.43238 0.50934 -0.12200
C 	C 	0.06770 0.24204 0.14616 0.10300
C 	C 	0.07780 0.37158 0.13596 0.05500
C 	C 	0.41290 0.95770 0.86154 0.06700
C 	C 	0.11020 0.42113 0.09403 0.07400
C 	C 	0.57220 0.58678 0.34759 -0.11700
C 	C 	0.61520 0.80116 0.39987 -0.11700
C 	C 	0.07720 0.10010 0.98937 -0.11400
C 	C 	0.57690 0.64498 0.08362 0.10600
C 	C 	0.42280 0.60010 0.01063 -0.11300
I 	I 	0.22009 0.51215 0.04101 -0.38800
I 	I 	0.78392 0.92148 0.63076 -0.36500
I 	I 	0.71608 0.42148 0.36923 -0.36500
I 	I 	0.43159 0.48165 0.89644 -0.36400
I 	I 	0.93159 0.51835 0.60356 -0.36400
I 	I 	0.06841 0.98165 0.10356 -0.36400
I 	I 	0.21608 0.57852 0.13077 -0.36500
I 	I 	0.16356 0.55502 0.93259 -0.38200
I 	I 	0.80876 0.80363 0.69555 -0.36700
I 	I 	0.56841 0.01835 0.39644 -0.36400
I 	I 	0.72009 0.48785 0.45899 -0.38800
I 	I 	0.66356 0.44498 0.56741 -0.38200
I 	I 	0.30876 0.19637 0.80445 -0.36700
I 	I 	0.83644 0.94498 0.43259 -0.38200
I 	I 	0.32721 0.83767 0.17447 -0.37400
I 	I 	0.19124 0.69637 0.19555 -0.36700
I 	I 	0.82721 0.16233 0.32553 -0.37400
I 	I 	0.33644 0.05502 0.06741 -0.38200
I 	I 	0.17279 0.33767 0.82553 -0.37400
I 	I 	0.67279 0.66233 0.67447 -0.37400
I 	I 	0.77991 0.98785 0.54101 -0.38800
I 	I 	0.69124 0.30363 0.30445 -0.36700
I 	I 	0.27991 0.01215 0.95899 -0.38800
I 	I 	0.28392 0.07852 0.86924 -0.36500
N 	N 	0.97400 0.13221 0.94018 -0.13800
N 	N 	0.92120 0.28686 0.34679 -0.27300
N 	N 	0.57130 0.76084 0.72265 -0.26900
N 	N 	0.60700 0.53851 0.39028 -0.27200
N 	N 	0.92870 0.26084 0.27735 -0.26900
N 	N 	0.17130 0.40327 0.45880 -0.14400
N 	N 	0.11710 0.11212 0.09799 -0.27300
N 	N 	0.32870 0.90327 0.54120 -0.14400
N 	N 	0.00210 0.55745 0.08175 -0.27500
N 	N 	0.32750 0.86510 0.58816 -0.13200
N 	N 	0.52600 0.63221 0.05982 -0.13900
N 	N 	0.04080 0.32201 0.17842 -0.14000
N 	N 	0.92130 0.21524 0.63265 -0.13900
N 	N 	0.04390 0.23642 0.17435 -0.14100
N 	N 	0.88290 0.38788 0.59799 -0.27300
N 	N 	0.57870 0.71524 0.36735 -0.13900
N 	N 	0.42130 0.78476 0.86735 -0.13900
N 	N 	0.02600 0.36779 0.44018 -0.13900
N 	N 	0.54390 0.76358 0.32565 -0.14100
N 	N 	0.67250 0.63490 0.08816 -0.13200
N 	N 	0.39300 0.96149 0.89028 -0.27200
N 	N 	0.38290 0.61212 0.90201 -0.27300
N 	N 	0.95920 0.17799 0.67842 -0.14000
N 	N 	0.49790 0.05745 0.91825 -0.27600
N 	N 	0.47400 0.86779 0.55982 -0.13900
N 	N 	0.58120 0.93798 0.46338 -0.27400
N 	N 	0.45610 0.73642 0.82565 -0.14100
N 	N 	0.99790 0.94255 0.58175 -0.27700
N 	N 	0.17250 0.36510 0.41184 -0.13200
N 	N 	0.61710 0.88788 0.40201 -0.27300
N 	N 	0.50210 0.44255 0.41825 -0.27600
N 	N 	0.42120 0.71314 0.15321 -0.27400
N 	N 	0.89300 0.03851 0.60972 -0.27200
N 	N 	0.07870 0.28476 0.13265 -0.13900
N 	N 	0.82750 0.13490 0.91184 -0.13200
N 	N 	0.45920 0.82201 0.82158 -0.14000
N 	N 	0.67130 0.59673 0.04120 -0.14400
N 	N 	0.42870 0.73916 0.22265 -0.26900
N 	N 	0.08120 0.06202 0.03662 -0.27500
N 	N 	0.10700 0.46149 0.10972 -0.27200
N 	N 	0.07880 0.21314 0.84679 -0.27400
N 	N 	0.07130 0.23916 0.77735 -0.27000
N 	N 	0.41880 0.56202 0.96338 -0.27400
N 	N 	0.57880 0.78686 0.65321 -0.27400
N 	N 	0.95610 0.26358 0.67435 -0.14100
N 	N 	0.82870 0.09673 0.95880 -0.14400
N 	N 	0.91880 0.43798 0.53662 -0.27400
N 	N 	0.54080 0.67799 0.32158 -0.14000
Zn	Zn	0.34739 0.04947 0.57550 1.16400
Zn	Zn	0.34367 0.24761 0.31417 1.16400
Zn	Zn	0.65633 0.25239 0.81417 1.16400
Zn	Zn	0.84739 0.95053 0.92450 1.16400
Zn	Zn	0.15633 0.74761 0.68583 1.16400
Zn	Zn	0.65261 0.45053 0.07550 1.16400
Zn	Zn	0.86266 0.47238 0.90951 1.16400
Zn	Zn	0.15261 0.54947 0.42450 1.16400
Zn	Zn	0.36266 0.52762 0.59049 1.16400
Zn	Zn	0.84367 0.75239 0.18583 1.16400
Zn	Zn	0.13734 0.02762 0.40951 1.16300
Zn	Zn	0.63734 0.97238 0.09049 1.16300
H 	H 	0.87720 0.57660 0.92650 -0.01100
H 	H 	0.99240 0.44810 0.96160 -0.00900
H 	H 	0.04180 0.80850 0.72890 0.00200
H 	H 	0.04850 0.96370 0.95120 -0.00900
H 	H 	0.80550 0.81120 0.13260 -0.01000
H 	H 	0.96890 0.06900 0.37640 -0.01200
H 	H 	0.38680 0.15170 0.40620 0.08100
H 	H 	0.54850 0.03630 0.54880 -0.00800
H 	H 	0.14230 0.80560 0.13040 0.07300
H 	H 	0.58290 0.01350 0.14990 -0.00800
H 	H 	0.15320 0.65670 0.43450 -0.01500
H 	H 	0.86430 0.56050 0.49190 0.08900
H 	H 	0.90130 0.65230 0.90580 0.08100
H 	H 	0.54770 0.35020 0.16180 0.08100
H 	H 	0.54180 0.19150 0.77110 0.00200
H 	H 	0.95150 0.53630 0.45120 -0.00800
H 	H 	0.50760 0.94810 0.03840 -0.00900
H 	H 	0.87450 0.77100 0.90940 0.07800
H 	H 	0.65320 0.34330 0.06550 -0.01500
H 	H 	0.53110 0.56900 0.62360 -0.01100
H 	H 	0.14730 0.41930 0.97080 0.08700
H 	H 	0.44150 0.41180 0.67290 0.08100
H 	H 	0.52450 0.34410 0.72890 0.07800
H 	H 	0.11320 0.65170 0.59380 0.08100
H 	H 	0.35770 0.30560 0.86960 0.07300
H 	H 	0.57510 0.41980 0.13440 -0.01100
H 	H 	0.00760 0.05190 0.46160 -0.01000
H 	H 	0.85270 0.08070 0.47080 0.08800
H 	H 	0.61320 0.34830 0.90620 0.08100
H 	H 	0.07510 0.58020 0.36560 -0.01100
H 	H 	0.95230 0.85020 0.83820 0.08100
H 	H 	0.69450 0.31120 0.86740 -0.01000
H 	H 	0.37450 0.22900 0.59060 0.07900
H 	H 	0.45820 0.30850 0.27110 0.00200
H 	H 	0.80660 0.90850 0.98430 -0.00600
H 	H 	0.02450 0.65590 0.77110 0.07800
H 	H 	0.12280 0.92340 0.42650 -0.01100
H 	H 	0.98220 0.80130 0.77680 0.07900
H 	H 	0.95820 0.69150 0.22890 0.00200
H 	H 	0.45230 0.14980 0.66180 0.08100
H 	H 	0.03110 0.43100 0.87640 -0.01100
H 	H 	0.51780 0.30130 0.22320 0.08000
H 	H 	0.91710 0.51350 0.85010 -0.00800
H 	H 	0.08570 0.66730 0.72400 -0.00600
H 	H 	0.94150 0.58820 0.82710 0.08100
H 	H 	0.18640 0.40060 0.88420 0.10000
H 	H 	0.94730 0.73170 0.66790 -0.01200
H 	H 	0.68640 0.59940 0.61580 0.10000
H 	H 	0.47550 0.15590 0.22890 0.07800
H 	H 	0.81360 0.09940 0.38420 0.10000
H 	H 	0.42490 0.08020 0.63440 -0.01100
H 	H 	0.31360 0.90060 0.11580 0.10000
H 	H 	0.11180 0.61570 0.52610 0.07800
H 	H 	0.41430 0.16730 0.27600 -0.00600
H 	H 	0.64730 0.58070 0.52920 0.08700
H 	H 	0.49240 0.55190 0.53840 -0.00900
H 	H 	0.97550 0.84410 0.27110 0.07800
H 	H 	0.46890 0.93100 0.12360 -0.01100
H 	H 	0.84680 0.84330 0.93450 -0.01500
H 	H 	0.41710 0.48650 0.64990 -0.00800
H 	H 	0.55850 0.08820 0.17290 0.08100
H 	H 	0.61180 0.38430 0.97390 0.07800
H 	H 	0.36430 0.43950 0.00810 0.08900
H 	H 	0.19450 0.68880 0.63260 -0.01000
H 	H 	0.30550 0.18880 0.36740 -0.01000
H 	H 	0.62280 0.07660 0.07350 -0.01100
H 	H 	0.12550 0.72900 0.40940 0.07900
H 	H 	0.55270 0.23170 0.33210 -0.01200
H 	H 	0.63570 0.06050 0.50810 0.08900
H 	H 	0.09870 0.84770 0.40580 0.08100
H 	H 	0.85770 0.69440 0.63040 0.07300
H 	H 	0.30660 0.09150 0.51570 -0.00600
H 	H 	0.38820 0.11570 0.47390 0.07800
H 	H 	0.91430 0.83270 0.22400 -0.00600
H 	H 	0.45150 0.46370 0.04880 -0.00900
H 	H 	0.04770 0.64980 0.33820 0.08100
H 	H 	0.05850 0.91180 0.32710 0.08100
H 	H 	0.88820 0.88430 0.02610 0.07900
H 	H 	0.13570 0.93950 0.99190 0.08900
H 	H 	0.58570 0.33270 0.77600 -0.00600
H 	H 	0.59870 0.15230 0.09420 0.08100
H 	H 	0.35270 0.91930 0.02920 0.08700
H 	H 	0.05270 0.76830 0.16790 -0.01200
H 	H 	0.88680 0.84830 0.09380 0.08100
H 	H 	0.92490 0.91980 0.86560 -0.01100
H 	H 	0.44730 0.26830 0.83210 -0.01200
H 	H 	0.08290 0.98650 0.35010 -0.00800
H 	H 	0.69340 0.40850 0.01570 -0.00600
H 	H 	0.62550 0.27100 0.09060 0.07900
H 	H 	0.48220 0.19870 0.72320 0.08000
H 	H 	0.19340 0.59150 0.48430 -0.00600
H 	H 	0.34680 0.15670 0.56550 -0.01500
H 	H 	0.37720 0.42340 0.57350 -0.01100
H 	H 	0.64230 0.19440 0.36960 0.07300
H 	H 	0.40130 0.34770 0.59420 0.08100
H 	H 	0.01780 0.69870 0.27680 0.08000
C 	C 	0.03250 0.43870 0.94553 0.08000
C 	C 	0.31700 0.90711 0.07145 0.06400
C 	C 	0.78570 0.61008 0.56634 0.09200
C 	C 	0.96750 0.06130 0.44553 0.08300
C 	C 	0.93200 0.56762 0.49066 -0.12200
C 	C 	0.71430 0.11008 0.43366 0.09200
C 	C 	0.87460 0.91480 0.98579 0.06600
C 	C 	0.48450 0.44679 0.03355 0.06800
C 	C 	0.03970 0.77741 0.73788 0.06000
C 	C 	0.57720 0.39990 0.98937 -0.11300
C 	C 	0.46030 0.27741 0.26212 0.06000
C 	C 	0.07740 0.66785 0.60878 -0.11200
C 	C 	0.97690 0.59229 0.51306 0.05100
C 	C 	0.05510 0.42850 0.89600 0.07900
C 	C 	0.07720 0.60010 0.51063 -0.11200
C 	C 	0.02310 0.90771 0.01306 0.05200
C 	C 	0.12540 0.58520 0.48579 0.06600
C 	C 	0.90400 0.62415 0.89373 -0.11800
C 	C 	0.93080 0.84783 0.85801 -0.11900
C 	C 	0.86870 0.84441 0.91470 0.06600
C 	C 	0.64760 0.58950 0.59954 -0.13700
C 	C 	0.42280 0.10010 0.48937 -0.11300
C 	C 	0.88480 0.80116 0.89987 -0.11700
C 	C 	0.92310 0.64498 0.58362 0.10600
C 	C 	0.92710 0.69317 0.63031 -0.11100
C 	C 	0.00380 0.77348 0.76637 -0.10700
C 	C 	0.53250 0.56130 0.55447 0.08100
C 	C 	0.03090 0.77752 0.31067 0.10600
C 	C 	0.48080 0.28500 0.84736 0.06300
C 	C 	0.07660 0.89143 0.03970 0.10100
C 	C 	0.96910 0.72248 0.81067 0.10500
C 	C 	0.62440 0.57860 0.54893 -0.13300
C 	C 	0.42220 0.37158 0.63596 0.05500
C 	C 	0.58620 0.38912 0.12550 0.06900
C 	C 	0.58710 0.04230 0.13846 0.06700
C 	C 	0.36870 0.15559 0.58530 0.06600
C 	C 	0.46750 0.93870 0.05447 0.08100
C 	C 	0.11020 0.92113 0.40597 0.07400
C 	C 	0.53970 0.22259 0.76212 0.06000
C 	C 	0.99620 0.72652 0.26637 -0.10800
C 	C 	0.38480 0.19884 0.60013 -0.11700
C 	C 	0.07690 0.85502 0.08362 0.10500
C 	C 	0.56770 0.25796 0.14616 0.10300
C 	C 	0.93230 0.75796 0.85384 0.10300
C 	C 	0.06920 0.65217 0.35801 -0.11900
C 	C 	0.02920 0.68756 0.76311 -0.10900
C 	C 	0.55510 0.57150 0.60400 0.07900
C 	C 	0.37480 0.19011 0.36806 0.07300
C 	C 	0.93510 0.80533 0.23507 0.05700
C 	C 	0.07220 0.91322 0.34759 -0.11700
C 	C 	0.08710 0.95770 0.36154 0.06700
C 	C 	0.46910 0.27752 0.68933 0.10600
C 	C 	0.41380 0.11088 0.62550 0.06900
C 	C 	0.42340 0.39143 0.96030 0.10100
C 	C 	0.59600 0.12415 0.10627 -0.11800
C 	C 	0.57780 0.12842 0.13596 0.05500
C 	C 	0.37560 0.92140 0.04893 -0.13300
C 	C 	0.50020 0.27240 0.72063 0.04600
C 	C 	0.92220 0.62842 0.86404 0.05500
C 	C 	0.13130 0.65559 0.41470 0.06600
C 	C 	0.01920 0.78500 0.15264 0.06300
C 	C 	0.85240 0.08950 0.40046 -0.13800
C 	C 	0.35240 0.91050 0.09954 -0.13700
C 	C 	0.06490 0.69467 0.73507 0.05700
C 	C 	0.88980 0.57887 0.90597 0.07400
C 	C 	0.00020 0.72760 0.77937 0.04600
C 	C 	0.91290 0.54230 0.86154 0.06700
C 	C 	0.63130 0.34441 0.08530 0.06600
C 	C 	0.57220 0.08678 0.15241 -0.11700
C 	C 	0.57660 0.10857 0.46030 0.10100
C 	C 	0.42780 0.41322 0.65241 -0.11700
C 	C 	0.06800 0.93238 0.99066 -0.12300
C 	C 	0.12520 0.69011 0.63194 0.07300
C 	C 	0.43230 0.24204 0.64616 0.10300
C 	C 	0.43200 0.43238 0.00934 -0.12300
C 	C 	0.43510 0.19467 0.26493 0.05700
C 	C 	0.58400 0.30290 0.12908 0.05300
C 	C 	0.06420 0.82351 0.35015 0.10100
C 	C 	0.99980 0.77240 0.27937 0.04500
C 	C 	0.56800 0.06762 0.50934 -0.12300
C 	C 	0.47630 0.33052 0.89215 0.05600
C 	C 	0.06770 0.74204 0.35384 0.10300
C 	C 	0.52920 0.31244 0.73689 -0.10900
C 	C 	0.57290 0.19317 0.36969 -0.11200
C 	C 	0.57690 0.14498 0.41638 0.10600
C 	C 	0.49980 0.22760 0.22063 0.04600
C 	C 	0.81700 0.09289 0.42855 0.06400
C 	C 	0.91600 0.80290 0.87092 0.05300
C 	C 	0.07290 0.80683 0.13031 -0.11200
C 	C 	0.52370 0.16948 0.39215 0.05600
C 	C 	0.92340 0.60857 0.53970 0.10100
C 	C 	0.21430 0.88992 0.06634 0.09200
C 	C 	0.57740 0.33215 0.89122 -0.11200
C 	C 	0.43080 0.15217 0.64199 -0.11900
C 	C 	0.52310 0.09229 0.48694 0.05100
C 	C 	0.18300 0.40711 0.92855 0.06300
C 	C 	0.42310 0.35502 0.91638 0.10600
C 	C 	0.62520 0.30989 0.86806 0.07300
C 	C 	0.96030 0.72259 0.23788 0.06000
C 	C 	0.92260 0.83215 0.10878 -0.11300
C 	C 	0.14760 0.41050 0.90046 -0.13700
C 	C 	0.51920 0.21500 0.34736 0.06300
C 	C 	0.43580 0.32351 0.64985 0.10100
C 	C 	0.37460 0.08520 0.51421 0.06600
C 	C 	0.97630 0.66948 0.60785 0.05600
C 	C 	0.09600 0.87585 0.39373 -0.11800
C 	C 	0.53090 0.22248 0.18933 0.10600
C 	C 	0.12440 0.42140 0.95107 -0.13300
C 	C 	0.87560 0.07860 0.45107 -0.13400
C 	C 	0.40400 0.37585 0.60627 -0.11800
C 	C 	0.44490 0.92850 0.10400 0.07900
C 	C 	0.56920 0.34783 0.14199 -0.11900
C 	C 	0.61020 0.07887 0.09403 0.07400
C 	C 	0.02370 0.83052 0.10785 0.05700
C 	C 	0.56490 0.30533 0.76493 0.05700
C 	C 	0.42260 0.16785 0.39122 -0.11200
C 	C 	0.98450 0.55321 0.46645 0.06800
C 	C 	0.11520 0.69884 0.39987 -0.11700
C 	C 	0.92780 0.58678 0.84759 -0.11700
C 	C 	0.98080 0.71500 0.65264 0.06200
C 	C 	0.68300 0.59289 0.57145 0.06400
C 	C 	0.51550 0.05321 0.53355 0.06900
C 	C 	0.62540 0.41480 0.01421 0.06600
C 	C 	0.41290 0.45770 0.63846 0.06700
C 	C 	0.61520 0.30116 0.10013 -0.11700
C 	C 	0.87480 0.80989 0.13194 0.07300
C 	C 	0.01550 0.94679 0.96645 0.06900
C 	C 	0.91380 0.88912 0.87450 0.06900
C 	C 	0.08620 0.61088 0.37450 0.06900
C 	C 	0.93580 0.67649 0.85015 0.10100
C 	C 	0.08400 0.69710 0.37092 0.05300
C 	C 	0.56420 0.17649 0.14985 0.10100
C 	C 	0.38980 0.42113 0.59403 0.07400
C 	C 	0.28570 0.38992 0.93366 0.09200
C 	C 	0.94490 0.07150 0.39600 0.08000
C 	C 	0.47690 0.40771 0.98694 0.05100
C 	C 	0.42710 0.30683 0.86969 -0.11200
C 	C 	0.49620 0.27348 0.23363 -0.10700
C 	C 	0.92280 0.89990 0.01063 -0.11400
C 	C 	0.50380 0.22652 0.73363 -0.10700
C 	C 	0.97080 0.81244 0.26311 -0.10900
C 	C 	0.47080 0.18756 0.23689 -0.10900
C 	C 	0.07780 0.87158 0.36404 0.05500
C 	C 	0.41600 0.19710 0.62908 0.05300
I 	I 	0.16356 0.05502 0.56741 -0.38200
I 	I 	0.66356 0.94498 0.93259 -0.38200
I 	I 	0.43159 0.98165 0.60356 -0.36400
I 	I 	0.82721 0.66233 0.17447 -0.37400
I 	I 	0.28392 0.57852 0.63076 -0.36500
I 	I 	0.21608 0.07852 0.36923 -0.36500
I 	I 	0.83644 0.44498 0.06741 -0.38200
I 	I 	0.32721 0.33767 0.32553 -0.37400
I 	I 	0.67279 0.16233 0.82553 -0.37400
I 	I 	0.78392 0.42148 0.86924 -0.36500
I 	I 	0.69124 0.80363 0.19555 -0.36700
I 	I 	0.77991 0.48785 0.95899 -0.38800
I 	I 	0.93159 0.01835 0.89644 -0.36400
I 	I 	0.33644 0.55502 0.43259 -0.38200
I 	I 	0.19124 0.19637 0.30445 -0.36700
I 	I 	0.80876 0.30363 0.80445 -0.36700
I 	I 	0.17279 0.83767 0.67447 -0.37400
I 	I 	0.56841 0.51835 0.10356 -0.36400
I 	I 	0.22009 0.01215 0.45899 -0.38800
I 	I 	0.72009 0.98785 0.04101 -0.38800
I 	I 	0.30876 0.69637 0.69555 -0.36700
I 	I 	0.27991 0.51215 0.54101 -0.38800
I 	I 	0.71608 0.92148 0.13077 -0.36500
I 	I 	0.06841 0.48165 0.39644 -0.36400
N 	N 	0.57870 0.21524 0.13265 -0.13900
N 	N 	0.61710 0.38788 0.09799 -0.27300
N 	N 	0.32870 0.40327 0.95880 -0.14400
N 	N 	0.52600 0.13221 0.44018 -0.13900
N 	N 	0.95920 0.67799 0.82158 -0.14000
N 	N 	0.58120 0.43798 0.03662 -0.27400
N 	N 	0.17250 0.86510 0.08816 -0.13200
N 	N 	0.04080 0.82201 0.32158 -0.14000
N 	N 	0.92120 0.78686 0.15321 -0.27400
N 	N 	0.54080 0.17799 0.17842 -0.14000
N 	N 	0.11710 0.61212 0.40201 -0.27300
N 	N 	0.39300 0.46149 0.60972 -0.27200
N 	N 	0.08120 0.56202 0.46338 -0.27400
N 	N 	0.42120 0.21314 0.34679 -0.27400
N 	N 	0.60700 0.03851 0.10972 -0.27200
N 	N 	0.42870 0.23916 0.27735 -0.26900
N 	N 	0.32750 0.36510 0.91184 -0.13200
N 	N 	0.17130 0.90327 0.04120 -0.14400
N 	N 	0.82750 0.63490 0.58816 -0.13200
N 	N 	0.07870 0.78476 0.36735 -0.13900
N 	N 	0.97400 0.63221 0.55982 -0.13900
N 	N 	0.10700 0.96149 0.39028 -0.27200
N 	N 	0.54390 0.26358 0.17435 -0.14100
N 	N 	0.91880 0.93798 0.96338 -0.27500
N 	N 	0.57880 0.28686 0.84679 -0.27400
N 	N 	0.07880 0.71314 0.65321 -0.27300
N 	N 	0.92870 0.76084 0.22265 -0.27000
N 	N 	0.41880 0.06202 0.53662 -0.27400
N 	N 	0.42130 0.28476 0.63265 -0.13900
N 	N 	0.50210 0.94255 0.08175 -0.27600
N 	N 	0.49790 0.55745 0.58175 -0.27600
N 	N 	0.04390 0.73642 0.32565 -0.14100
N 	N 	0.02600 0.86779 0.05982 -0.13800
N 	N 	0.45610 0.23642 0.67435 -0.14100
N 	N 	0.88290 0.88788 0.90201 -0.27300
N 	N 	0.92130 0.71524 0.86735 -0.13900
N 	N 	0.67130 0.09673 0.45880 -0.14400
N 	N 	0.38290 0.11212 0.59799 -0.27300
N 	N 	0.99790 0.44255 0.91825 -0.27500
N 	N 	0.47400 0.36779 0.94018 -0.13900
N 	N 	0.45920 0.32201 0.67842 -0.14000
N 	N 	0.57130 0.26084 0.77735 -0.26900
N 	N 	0.89300 0.53851 0.89028 -0.27200
N 	N 	0.95610 0.76358 0.82565 -0.14100
N 	N 	0.00210 0.05745 0.41825 -0.27700
N 	N 	0.07130 0.73916 0.72265 -0.26900
N 	N 	0.82870 0.59673 0.54120 -0.14400
N 	N 	0.67250 0.13490 0.41184 -0.13200
