data_crystal

_cell_length_a 14.51540
_cell_length_b 39.35600
_cell_length_c 21.62900
_cell_angle_alpha 90.00000
_cell_angle_beta  90.00000
_cell_angle_gamma 90.00000

_symmetry_space_group_name_	'P 1'
_symmetry_space_group_name_H-M	'P 1'

loop_
_symmetry_equiv_pos_as_xyz
  x,y,z

loop_
_atom_site_label
_atom_site_type_symbol
_atom_site_fract_x
_atom_site_fract_y
_atom_site_fract_z
_atom_site_charge
Zn	Zn	0.10165 0.11053 0.58176 1.18700
Zn	Zn	0.26639 0.15079 0.67029 1.19100
Zn	Zn	0.19079 0.62691 0.47329 1.22300
Zn	Zn	0.69079 0.87309 0.47329 1.22300
Zn	Zn	0.60165 0.61053 0.91824 1.18700
Zn	Zn	0.76639 0.34921 0.67029 1.19100
Zn	Zn	0.80921 0.37309 0.52671 1.22400
Zn	Zn	0.76639 0.65079 0.82971 1.19200
Zn	Zn	0.73361 0.15079 0.17029 1.19200
Zn	Zn	0.39835 0.61053 0.41824 1.18800
Zn	Zn	0.89835 0.88947 0.41824 1.18800
Zn	Zn	0.39835 0.38947 0.08176 1.18800
Zn	Zn	0.19079 0.37309 0.02671 1.22400
Zn	Zn	0.69079 0.12691 0.02671 1.22400
Zn	Zn	0.80921 0.62691 0.97329 1.22400
Zn	Zn	0.23361 0.34921 0.17029 1.19200
Zn	Zn	0.26639 0.84921 0.82971 1.19200
Zn	Zn	0.73361 0.84921 0.32971 1.19200
Zn	Zn	0.23361 0.65079 0.32971 1.19200
Zn	Zn	0.30921 0.12691 0.52671 1.22400
Zn	Zn	0.60165 0.38947 0.58176 1.18800
Zn	Zn	0.10165 0.88947 0.91824 1.18800
Zn	Zn	0.30921 0.87309 0.97329 1.22400
Zn	Zn	0.89835 0.11053 0.08176 1.18800
B 	B 	0.49910 0.27390 0.02060 0.18100
B 	B 	0.46100 0.02067 0.06330 0.16300
B 	B 	0.52650 0.65935 0.67110 0.63800
B 	B 	0.96100 0.52067 0.43670 0.16300
B 	B 	0.06670 0.88193 0.65970 -0.51200
B 	B 	0.07310 0.84243 0.21870 0.35100
B 	B 	0.41470 0.33754 0.86170 -0.19900
B 	B 	0.11810 0.09230 0.33460 -0.24700
B 	B 	0.53900 0.02067 0.56330 0.16300
B 	B 	0.39500 0.25041 0.02870 0.20100
B 	B 	0.57310 0.34243 0.28130 0.35200
B 	B 	0.87450 0.74362 0.39080 0.27200
B 	B 	0.03450 0.71934 0.86070 0.28700
B 	B 	0.45430 0.03904 0.98790 0.34200
B 	B 	0.62550 0.24362 0.60920 0.27300
B 	B 	0.00060 0.72961 0.99090 0.35900
B 	B 	0.91000 0.25083 0.55010 0.17400
B 	B 	0.97350 0.84065 0.17110 0.63800
B 	B 	0.45430 0.96096 0.51210 0.34100
B 	B 	0.42690 0.34243 0.78130 0.35200
B 	B 	0.99910 0.22610 0.02060 0.18100
B 	B 	0.06040 0.49379 0.43410 0.15600
B 	B 	0.50060 0.22961 0.50910 0.35700
B 	B 	0.40500 0.38679 0.76400 -0.03000
B 	B 	0.53900 0.97933 0.93670 0.16300
B 	B 	0.43150 0.75729 0.86880 0.16100
B 	B 	0.99200 0.08946 0.80020 1.00600
B 	B 	0.92690 0.15757 0.78130 0.35100
B 	B 	0.11520 0.50355 0.99290 0.25500
B 	B 	0.95770 0.78187 0.90370 0.39200
B 	B 	0.58530 0.33754 0.36170 -0.19900
B 	B 	0.51850 0.59470 0.11920 0.53200
B 	B 	0.61520 0.99645 0.99290 0.25400
B 	B 	0.07760 0.71092 0.93690 0.16800
B 	B 	0.95060 0.52412 0.05550 0.28800
B 	B 	0.00090 0.77390 0.97940 0.18100
B 	B 	0.87450 0.25638 0.10920 0.27300
B 	B 	0.00800 0.91054 0.19980 1.00600
B 	B 	0.11810 0.90770 0.16540 -0.24700
B 	B 	0.50800 0.58946 0.19980 1.00800
B 	B 	0.48150 0.59470 0.61920 0.53200
B 	B 	0.08530 0.16246 0.36170 -0.19900
B 	B 	0.09000 0.25083 0.05010 0.17300
B 	B 	0.00250 0.86186 0.60100 0.41200
B 	B 	0.03900 0.47933 0.56330 0.16300
B 	B 	0.56850 0.75729 0.36880 0.16200
B 	B 	0.98150 0.90530 0.61920 0.53100
B 	B 	0.15910 0.86589 0.17790 0.59400
B 	B 	0.65910 0.36589 0.32210 0.59400
B 	B 	0.88480 0.49645 0.00710 0.25500
B 	B 	0.50090 0.27390 0.52060 0.18400
B 	B 	0.93960 0.49379 0.93410 0.15600
B 	B 	0.03480 0.23646 0.65006 0.27900
B 	B 	0.99750 0.86186 0.10100 0.41200
B 	B 	0.01850 0.90530 0.11920 0.53200
B 	B 	0.06670 0.11807 0.84030 -0.51200
B 	B 	0.95060 0.47588 0.44450 0.28700
B 	B 	0.49750 0.63814 0.10100 0.41100
B 	B 	0.09000 0.74917 0.44990 0.17400
B 	B 	0.42690 0.65757 0.71870 0.35200
B 	B 	0.02650 0.15935 0.82890 0.63800
B 	B 	0.91470 0.83754 0.63830 -0.19900
B 	B 	0.49940 0.77039 0.49090 0.35700
B 	B 	0.59000 0.75083 0.44990 0.17400
B 	B 	0.99910 0.77390 0.47940 0.18400
B 	B 	0.51850 0.40530 0.38080 0.53200
B 	B 	0.15910 0.13411 0.32210 0.59400
B 	B 	0.50250 0.36186 0.89900 0.41100
B 	B 	0.60500 0.74959 0.97130 0.20100
B 	B 	0.09500 0.88679 0.23600 -0.02900
B 	B 	0.93150 0.74271 0.86880 0.16100
B 	B 	0.04940 0.52412 0.55550 0.28700
B 	B 	0.93960 0.50621 0.56590 0.15600
B 	B 	0.58530 0.66246 0.13830 -0.19900
B 	B 	0.93330 0.11807 0.34030 -0.51200
B 	B 	0.99750 0.13814 0.39900 0.41200
B 	B 	0.47350 0.34065 0.32890 0.63800
B 	B 	0.93150 0.25729 0.63120 0.16200
B 	B 	0.46550 0.21934 0.13930 0.28500
B 	B 	0.91000 0.74917 0.94990 0.17300
B 	B 	0.50250 0.63814 0.60100 0.41100
B 	B 	0.34090 0.63411 0.67790 0.59400
B 	B 	0.84090 0.13411 0.82210 0.59400
B 	B 	0.02650 0.84065 0.67110 0.63800
B 	B 	0.53480 0.26354 0.65006 0.27900
B 	B 	0.89500 0.75041 0.47130 0.20200
B 	B 	0.49200 0.41054 0.80020 1.00800
B 	B 	0.03450 0.28066 0.63930 0.28400
B 	B 	0.38480 0.00355 0.00710 0.25400
B 	B 	0.57760 0.78908 0.93690 0.16900
B 	B 	0.04230 0.21813 0.09630 0.39200
B 	B 	0.99940 0.72961 0.49090 0.35700
B 	B 	0.56670 0.61807 0.65970 -0.51200
B 	B 	0.91470 0.16246 0.86170 -0.19900
B 	B 	0.54570 0.03904 0.48790 0.34100
B 	B 	0.43330 0.61807 0.15970 -0.51200
B 	B 	0.46520 0.26354 0.15006 0.27600
B 	B 	0.06040 0.50621 0.06590 0.15600
B 	B 	0.95430 0.46096 0.98790 0.34000
B 	B 	0.04570 0.53904 0.01210 0.34000
B 	B 	0.00060 0.27039 0.50910 0.35700
B 	B 	0.54940 0.97588 0.55550 0.28700
B 	B 	0.59500 0.61321 0.23600 -0.03000
B 	B 	0.41000 0.75083 0.94990 0.17400
B 	B 	0.45770 0.71813 0.90370 0.39200
B 	B 	0.61810 0.40770 0.33460 -0.24700
B 	B 	0.00800 0.08946 0.30020 1.00700
B 	B 	0.07760 0.28908 0.56310 0.17000
B 	B 	0.90500 0.88679 0.73600 -0.03000
B 	B 	0.45770 0.28187 0.59630 0.38900
B 	B 	0.38190 0.59230 0.66540 -0.24700
B 	B 	0.10500 0.75041 0.97130 0.20200
B 	B 	0.03480 0.76354 0.84994 0.27600
B 	B 	0.11520 0.49645 0.50710 0.25500
B 	B 	0.88480 0.50355 0.49290 0.25500
B 	B 	0.09500 0.11321 0.26400 -0.03000
B 	B 	0.00090 0.22610 0.52060 0.18400
B 	B 	0.42240 0.78908 0.43690 0.17000
B 	B 	0.10500 0.24959 0.52870 0.20200
B 	B 	0.45060 0.97588 0.05550 0.28700
B 	B 	0.93330 0.88193 0.15970 -0.51200
B 	B 	0.98150 0.09470 0.88080 0.53200
B 	B 	0.03900 0.52067 0.93670 0.16400
B 	B 	0.56040 0.00621 0.43410 0.15600
B 	B 	0.96100 0.47933 0.06330 0.16400
B 	B 	0.49200 0.58946 0.69980 1.00800
B 	B 	0.38480 0.99645 0.49290 0.25500
B 	B 	0.88190 0.90770 0.66540 -0.24700
B 	B 	0.06850 0.25729 0.13120 0.16100
B 	B 	0.61810 0.59230 0.16540 -0.24700
B 	B 	0.59000 0.24917 0.05010 0.17400
B 	B 	0.38190 0.40770 0.83460 -0.24700
B 	B 	0.84090 0.86589 0.67790 0.59400
B 	B 	0.04940 0.47588 0.94450 0.28800
B 	B 	0.92690 0.84243 0.71870 0.35100
B 	B 	0.60500 0.25041 0.52870 0.20100
B 	B 	0.90500 0.11321 0.76400 -0.02900
B 	B 	0.49910 0.72610 0.47940 0.18400
B 	B 	0.43960 0.00621 0.93410 0.15700
B 	B 	0.57310 0.65757 0.21870 0.35200
B 	B 	0.57760 0.21092 0.56310 0.17000
B 	B 	0.08530 0.83754 0.13830 -0.19900
B 	B 	0.65910 0.63411 0.17790 0.59400
B 	B 	0.50090 0.72610 0.97940 0.18100
B 	B 	0.96550 0.71934 0.36070 0.28400
B 	B 	0.41000 0.24917 0.55010 0.17400
B 	B 	0.95430 0.53904 0.51210 0.34100
B 	B 	0.88190 0.09230 0.83460 -0.24700
B 	B 	0.89500 0.24959 0.02870 0.20200
B 	B 	0.46520 0.73646 0.34994 0.27900
B 	B 	0.49750 0.36186 0.39900 0.41100
B 	B 	0.49940 0.22961 0.00910 0.35700
B 	B 	0.39500 0.74959 0.47130 0.20100
B 	B 	0.40500 0.61321 0.73600 -0.03000
B 	B 	0.92240 0.28908 0.06310 0.16800
B 	B 	0.04570 0.46096 0.48790 0.34100
B 	B 	0.59500 0.38679 0.26400 -0.03000
B 	B 	0.34090 0.36589 0.82210 0.59400
B 	B 	0.04230 0.78187 0.40370 0.38900
B 	B 	0.07310 0.15757 0.28130 0.35100
B 	B 	0.06850 0.74271 0.36880 0.16200
B 	B 	0.01850 0.09470 0.38080 0.53100
B 	B 	0.47350 0.65935 0.17110 0.63800
B 	B 	0.12550 0.74362 0.89080 0.27300
B 	B 	0.56850 0.24271 0.13120 0.16100
B 	B 	0.54230 0.28187 0.09630 0.39200
B 	B 	0.52650 0.34065 0.82890 0.63800
B 	B 	0.00250 0.13814 0.89900 0.41200
B 	B 	0.37450 0.75638 0.39080 0.27300
B 	B 	0.97350 0.15935 0.32890 0.63800
B 	B 	0.99940 0.27039 0.00910 0.35900
B 	B 	0.96520 0.23646 0.15006 0.27600
B 	B 	0.54940 0.02412 0.94450 0.28700
B 	B 	0.48150 0.40530 0.88080 0.53200
B 	B 	0.54230 0.71813 0.40370 0.38900
B 	B 	0.50060 0.77039 0.99090 0.35700
B 	B 	0.43150 0.24271 0.63120 0.16200
B 	B 	0.54570 0.96096 0.01210 0.34200
B 	B 	0.99200 0.91054 0.69980 1.00700
B 	B 	0.92240 0.71092 0.43690 0.17000
B 	B 	0.62550 0.75638 0.89080 0.27300
B 	B 	0.53450 0.21934 0.63930 0.28300
B 	B 	0.53450 0.78066 0.86070 0.28500
B 	B 	0.43330 0.38193 0.34030 -0.51200
B 	B 	0.96520 0.76354 0.34994 0.27900
B 	B 	0.53480 0.73646 0.84994 0.27600
B 	B 	0.45060 0.02412 0.44450 0.28700
B 	B 	0.50800 0.41054 0.30020 1.00800
B 	B 	0.37450 0.24362 0.10920 0.27300
B 	B 	0.96550 0.28066 0.13930 0.28700
B 	B 	0.56670 0.38193 0.84030 -0.51200
B 	B 	0.46100 0.97933 0.43670 0.16300
B 	B 	0.42240 0.21092 0.06310 0.16900
B 	B 	0.46550 0.78066 0.36070 0.28300
B 	B 	0.12550 0.25638 0.60920 0.27200
B 	B 	0.61520 0.00355 0.50710 0.25500
B 	B 	0.41470 0.66246 0.63830 -0.19900
B 	B 	0.56040 0.99379 0.06590 0.15700
B 	B 	0.95770 0.21813 0.59630 0.38900
B 	B 	0.43960 0.99379 0.56590 0.15600
H 	H 	0.02000 0.15290 0.94000 -0.19000
H 	H 	0.12700 0.26290 0.15900 -0.11300
H 	H 	0.92500 0.18010 0.31900 -0.24600
H 	H 	0.57500 0.31990 0.81900 -0.24600
H 	H 	0.18900 0.25250 0.63110 -0.14300
H 	H 	0.52000 0.65290 0.56000 -0.19000
H 	H 	0.33900 0.57330 0.65900 0.02200
H 	H 	0.48100 0.21620 0.47000 -0.16600
H 	H 	0.99500 0.79410 0.01200 -0.11200
H 	H 	0.93500 0.46350 0.10700 -0.10200
H 	H 	0.07700 0.80360 0.39700 -0.20400
H 	H 	0.31100 0.24750 0.13110 -0.14400
H 	H 	0.43100 0.93740 0.51600 -0.18500
H 	H 	0.26000 0.36190 0.82400 -0.19200
H 	H 	0.95000 0.77480 0.31200 -0.17200
H 	H 	0.81100 0.25250 0.13110 -0.14400
H 	H 	0.51900 0.21620 0.97000 -0.16500
H 	H 	0.52000 0.34710 0.94000 -0.19000
H 	H 	0.83900 0.07330 0.84100 0.02200
H 	H 	0.59700 0.81270 0.95600 -0.11900
H 	H 	0.06500 0.46350 0.60700 -0.10200
H 	H 	0.74000 0.63810 0.17600 -0.19200
H 	H 	0.87000 0.11740 0.34600 0.11400
H 	H 	0.00500 0.20590 0.98800 -0.11200
H 	H 	0.49500 0.70590 0.01200 -0.11200
H 	H 	0.89800 0.81650 0.61200 0.00300
H 	H 	0.60200 0.68350 0.11200 0.00300
H 	H 	0.52700 0.57600 0.09400 -0.27300
H 	H 	0.00500 0.79410 0.51200 -0.11300
H 	H 	0.63000 0.38260 0.84600 0.11400
H 	H 	0.88900 0.10430 0.72300 -0.05900
H 	H 	0.46200 0.79890 0.32700 -0.15700
H 	H 	0.90300 0.31270 0.04400 -0.11800
H 	H 	0.10200 0.18350 0.38800 0.00300
H 	H 	0.11100 0.10430 0.22300 -0.05900
H 	H 	0.92300 0.80360 0.89700 -0.20500
H 	H 	0.37000 0.61740 0.15400 0.11400
H 	H 	0.74000 0.36190 0.32400 -0.19200
H 	H 	0.37300 0.76290 0.84100 -0.11400
H 	H 	0.53800 0.79890 0.82700 -0.15800
H 	H 	0.58400 0.04010 0.91500 -0.15400
H 	H 	0.62700 0.23710 0.15900 -0.11400
H 	H 	0.33500 0.74340 0.50600 -0.10900
H 	H 	0.38900 0.39570 0.72300 -0.05900
H 	H 	0.24600 0.58900 0.39400 0.11500
H 	H 	0.90300 0.68730 0.45600 -0.11900
H 	H 	0.57700 0.30360 0.10300 -0.20500
H 	H 	0.10200 0.81650 0.11200 0.00300
H 	H 	0.50500 0.29410 0.98800 -0.11200
H 	H 	0.18900 0.74750 0.86890 -0.14400
H 	H 	0.56500 0.96350 0.89300 -0.10200
H 	H 	0.76000 0.13810 0.82400 -0.19300
H 	H 	0.09700 0.31270 0.54400 -0.11900
H 	H 	0.98100 0.28380 0.47000 -0.16600
H 	H 	0.41600 0.95990 0.08500 -0.15400
H 	H 	0.48100 0.78380 0.03000 -0.16500
H 	H 	0.55000 0.27480 0.68800 -0.17200
H 	H 	0.88900 0.89570 0.77700 -0.05900
H 	H 	0.61100 0.39570 0.22300 -0.05900
H 	H 	0.02200 0.93140 0.71300 -0.44200
H 	H 	0.08400 0.45990 0.91500 -0.15400
H 	H 	0.90700 0.82680 0.75200 -0.20200
H 	H 	0.91600 0.45990 0.41500 -0.15400
H 	H 	0.87300 0.26290 0.65900 -0.11400
H 	H 	0.60100 0.99560 0.11100 -0.09000
H 	H 	0.07500 0.81990 0.68100 -0.24600
H 	H 	0.57700 0.69640 0.39700 -0.20300
H 	H 	0.16100 0.92670 0.15900 0.02200
H 	H 	0.99500 0.20590 0.48800 -0.11300
H 	H 	0.66100 0.24630 0.03480 -0.10700
H 	H 	0.83900 0.92670 0.65900 0.02200
H 	H 	0.43100 0.06260 0.98400 -0.18500
H 	H 	0.47300 0.42400 0.90600 -0.27300
H 	H 	0.96200 0.29890 0.17300 -0.15800
H 	H 	0.24000 0.13810 0.32400 -0.19300
H 	H 	0.97800 0.93140 0.21300 -0.44100
H 	H 	0.74600 0.91100 0.39400 0.11500
H 	H 	0.16100 0.25370 0.03480 -0.10700
H 	H 	0.59700 0.18730 0.54400 -0.11900
H 	H 	0.05000 0.22520 0.68800 -0.17200
H 	H 	0.60200 0.31650 0.38800 0.00300
H 	H 	0.40300 0.18730 0.04400 -0.11900
H 	H 	0.87300 0.73710 0.84100 -0.11300
H 	H 	0.40700 0.67320 0.75200 -0.20200
H 	H 	0.25400 0.91100 0.89400 0.11500
H 	H 	0.62700 0.76290 0.34100 -0.11400
H 	H 	0.39900 0.00440 0.88900 -0.09000
H 	H 	0.96200 0.70110 0.32700 -0.15700
H 	H 	0.66100 0.75370 0.46520 -0.10700
H 	H 	0.90700 0.17320 0.74800 -0.20200
H 	H 	0.59300 0.67320 0.25200 -0.20200
H 	H 	0.16100 0.74630 0.46520 -0.10700
H 	H 	0.13000 0.88260 0.65400 0.11400
H 	H 	0.33900 0.24630 0.53480 -0.10700
H 	H 	0.47800 0.43140 0.28700 -0.44200
H 	H 	0.87000 0.88260 0.15400 0.11400
H 	H 	0.51900 0.78380 0.53000 -0.16600
H 	H 	0.56900 0.93740 0.01600 -0.18500
H 	H 	0.46200 0.20110 0.17300 -0.15800
H 	H 	0.52700 0.42400 0.40600 -0.27300
H 	H 	0.31200 0.99780 0.49490 -0.14500
H 	H 	0.16100 0.07330 0.34100 0.02200
H 	H 	0.50500 0.70590 0.51200 -0.11400
H 	H 	0.95000 0.22520 0.18800 -0.17100
H 	H 	0.09300 0.82680 0.25200 -0.20200
H 	H 	0.18800 0.49780 0.50510 -0.14500
H 	H 	0.56900 0.06260 0.48400 -0.18500
H 	H 	0.01900 0.28380 0.97000 -0.16600
H 	H 	0.33900 0.75370 0.96520 -0.10700
H 	H 	0.93100 0.43740 0.98400 -0.18500
H 	H 	0.09300 0.17320 0.24800 -0.20200
H 	H 	0.83900 0.25370 0.53480 -0.10700
H 	H 	0.38900 0.60430 0.77700 -0.05900
H 	H 	0.58400 0.95990 0.58500 -0.15400
H 	H 	0.59300 0.32680 0.24800 -0.20200
H 	H 	0.39900 0.99560 0.61100 -0.09000
H 	H 	0.31200 0.00220 0.00510 -0.14500
H 	H 	0.39800 0.31650 0.88800 0.00300
H 	H 	0.97300 0.07600 0.90600 -0.27400
H 	H 	0.37300 0.23710 0.65900 -0.11400
H 	H 	0.09700 0.68730 0.95600 -0.11800
H 	H 	0.06500 0.53650 0.89300 -0.10200
H 	H 	0.91600 0.54010 0.08500 -0.15400
H 	H 	0.75400 0.41100 0.60600 0.11500
H 	H 	0.43500 0.03650 0.10700 -0.10200
H 	H 	0.06900 0.43740 0.48400 -0.18500
H 	H 	0.92500 0.81990 0.18100 -0.24600
H 	H 	0.07700 0.19640 0.10300 -0.20500
H 	H 	0.03800 0.70110 0.82700 -0.15800
H 	H 	0.98000 0.15290 0.44000 -0.19000
H 	H 	0.05000 0.77480 0.81200 -0.17100
H 	H 	0.68900 0.24750 0.63110 -0.14300
H 	H 	0.81200 0.50220 0.49490 -0.14500
H 	H 	0.41600 0.04010 0.41500 -0.15400
H 	H 	0.02700 0.07600 0.40600 -0.27300
H 	H 	0.83500 0.75660 0.50600 -0.10900
H 	H 	0.02700 0.92400 0.09400 -0.27400
H 	H 	0.63000 0.61740 0.65400 0.11400
H 	H 	0.66500 0.74340 0.00600 -0.10800
H 	H 	0.13000 0.11740 0.84600 0.11400
H 	H 	0.45000 0.27480 0.18800 -0.17100
H 	H 	0.43500 0.96350 0.39300 -0.10200
H 	H 	0.98000 0.84710 0.06000 -0.19000
H 	H 	0.76000 0.86190 0.67600 -0.19300
H 	H 	0.33900 0.42670 0.84100 0.02200
H 	H 	0.56500 0.03650 0.60700 -0.10200
H 	H 	0.26000 0.63810 0.67600 -0.19200
H 	H 	0.42300 0.30360 0.60300 -0.20300
H 	H 	0.68800 0.99780 0.99490 -0.14500
H 	H 	0.98100 0.71620 0.03000 -0.16600
H 	H 	0.47300 0.57600 0.59400 -0.27300
H 	H 	0.66500 0.25660 0.49400 -0.10900
H 	H 	0.48000 0.34710 0.44000 -0.19000
H 	H 	0.89800 0.18350 0.88800 0.00300
H 	H 	0.10100 0.50440 0.11100 -0.08900
H 	H 	0.16500 0.24340 0.49400 -0.10900
H 	H 	0.24000 0.86190 0.17600 -0.19300
H 	H 	0.12700 0.73710 0.34100 -0.11400
H 	H 	0.49500 0.29410 0.48800 -0.11400
H 	H 	0.48000 0.65290 0.06000 -0.19000
H 	H 	0.42500 0.68010 0.18100 -0.24600
H 	H 	0.37000 0.38260 0.34600 0.11400
H 	H 	0.81200 0.49780 0.00510 -0.14500
H 	H 	0.31100 0.75250 0.36890 -0.14300
H 	H 	0.01900 0.71620 0.53000 -0.16600
H 	H 	0.61100 0.60430 0.27700 -0.05900
H 	H 	0.52200 0.43140 0.78700 -0.44200
H 	H 	0.97300 0.92400 0.59400 -0.27300
H 	H 	0.06900 0.56260 0.01600 -0.18500
H 	H 	0.02200 0.06860 0.78700 -0.44100
H 	H 	0.10100 0.49560 0.38900 -0.09000
H 	H 	0.66100 0.42670 0.34100 0.02200
H 	H 	0.39800 0.68350 0.61200 0.00300
H 	H 	0.18800 0.50220 0.99490 -0.14500
H 	H 	0.11100 0.89570 0.27700 -0.05900
H 	H 	0.42500 0.31990 0.31900 -0.24600
H 	H 	0.83500 0.24340 0.99400 -0.10900
H 	H 	0.02000 0.84710 0.56000 -0.19000
H 	H 	0.52200 0.56860 0.71300 -0.44200
H 	H 	0.53800 0.20110 0.67300 -0.15700
H 	H 	0.93500 0.53650 0.39300 -0.10200
H 	H 	0.08400 0.54010 0.58500 -0.15400
H 	H 	0.89900 0.50440 0.61100 -0.09000
H 	H 	0.33500 0.25660 0.99400 -0.10800
H 	H 	0.66100 0.57330 0.15900 0.02200
H 	H 	0.89900 0.49560 0.88900 -0.08900
H 	H 	0.25400 0.08900 0.60600 0.11500
H 	H 	0.83900 0.74630 0.96520 -0.10700
H 	H 	0.93100 0.56260 0.51600 -0.18500
H 	H 	0.03800 0.29890 0.67300 -0.15700
H 	H 	0.81100 0.74750 0.36890 -0.14300
H 	H 	0.40300 0.81270 0.45600 -0.11900
H 	H 	0.16500 0.75660 0.00600 -0.10900
H 	H 	0.45000 0.72520 0.31200 -0.17200
H 	H 	0.60100 0.00440 0.38900 -0.09000
H 	H 	0.92300 0.19640 0.60300 -0.20400
H 	H 	0.68800 0.00220 0.50510 -0.14500
H 	H 	0.42300 0.69640 0.89700 -0.20500
H 	H 	0.40700 0.32680 0.74800 -0.20200
H 	H 	0.07500 0.18010 0.81900 -0.24600
H 	H 	0.47800 0.56860 0.21300 -0.44200
H 	H 	0.57500 0.68010 0.68100 -0.24600
H 	H 	0.97800 0.06860 0.28700 -0.44200
H 	H 	0.24600 0.41100 0.10600 0.11500
H 	H 	0.75400 0.58900 0.89400 0.11500
H 	H 	0.55000 0.72520 0.81200 -0.17100
H 	H 	0.74600 0.08900 0.10600 0.11500
H 	H 	0.68900 0.75250 0.86890 -0.14400
C 	C 	0.55860 0.96954 0.47714 -0.57200
C 	C 	0.46170 0.21295 0.57736 -0.56800
C 	C 	0.98550 0.12912 0.27285 -0.67700
C 	C 	0.10660 0.12276 0.38928 -0.56100
C 	C 	0.51450 0.37088 0.77285 -0.67800
C 	C 	0.88330 0.56058 0.95378 0.48400
C 	C 	0.60660 0.62276 0.11072 -0.56100
C 	C 	0.89340 0.12276 0.88928 -0.56100
C 	C 	0.46170 0.78705 0.92264 -0.56800
C 	C 	0.87080 0.81317 0.41296 0.55500
C 	C 	0.38330 0.06058 0.54622 0.48400
C 	C 	0.12920 0.81317 0.91296 0.55500
C 	C 	0.55860 0.03046 0.02286 -0.57300
C 	C 	0.90730 0.67974 0.92210 0.52000
C 	C 	0.57390 0.27982 0.58211 -0.61700
C 	C 	0.66480 0.61860 0.05203 0.51100
C 	C 	0.03830 0.28705 0.07736 -0.56800
C 	C 	0.09270 0.67974 0.42210 0.51900
C 	C 	0.57730 0.63086 0.78414 0.63800
C 	C 	0.61670 0.06058 0.04622 0.48400
C 	C 	0.66480 0.38140 0.44797 0.51100
C 	C 	0.03830 0.71295 0.42264 -0.56800
C 	C 	0.33520 0.38140 0.94797 0.51100
C 	C 	0.62920 0.68683 0.91296 0.55500
C 	C 	0.92270 0.13086 0.21586 0.63800
C 	C 	0.92610 0.22018 0.08211 -0.61600
C 	C 	0.53830 0.21295 0.07736 -0.56800
C 	C 	0.33520 0.61860 0.55203 0.51100
C 	C 	0.38330 0.93942 0.95378 0.48400
C 	C 	0.60660 0.37724 0.38928 -0.56100
C 	C 	0.83520 0.88140 0.55203 0.51100
C 	C 	0.92270 0.86914 0.28414 0.63800
C 	C 	0.37080 0.31317 0.08704 0.55500
C 	C 	0.09270 0.32026 0.07790 0.52000
C 	C 	0.07390 0.77982 0.91789 -0.61600
C 	C 	0.40730 0.17974 0.57790 0.51900
C 	C 	0.40730 0.82026 0.92210 0.51900
C 	C 	0.01450 0.12912 0.77285 -0.67700
C 	C 	0.39340 0.37724 0.88928 -0.56100
C 	C 	0.57390 0.72018 0.91789 -0.61600
C 	C 	0.48550 0.37088 0.27285 -0.67800
C 	C 	0.92610 0.77982 0.41789 -0.61700
C 	C 	0.62920 0.31317 0.58704 0.55500
C 	C 	0.98550 0.87088 0.22715 -0.67700
C 	C 	0.87080 0.18683 0.08704 0.55500
C 	C 	0.05860 0.53046 0.47714 -0.57200
C 	C 	0.89340 0.87724 0.61072 -0.56100
C 	C 	0.07390 0.22018 0.58211 -0.61700
C 	C 	0.57730 0.36914 0.71586 0.63800
C 	C 	0.59270 0.17974 0.07790 0.51900
C 	C 	0.83520 0.11860 0.94797 0.51100
C 	C 	0.48550 0.62912 0.22715 -0.67800
C 	C 	0.94140 0.46954 0.52286 -0.57200
C 	C 	0.12920 0.18683 0.58704 0.55500
C 	C 	0.11670 0.56058 0.45378 0.48400
C 	C 	0.01450 0.87088 0.72715 -0.67700
C 	C 	0.07730 0.13086 0.71586 0.63800
C 	C 	0.90730 0.32026 0.57790 0.51900
C 	C 	0.42270 0.36914 0.21586 0.63800
C 	C 	0.44140 0.03046 0.52286 -0.57200
C 	C 	0.42610 0.27982 0.08211 -0.61600
C 	C 	0.42610 0.72018 0.41789 -0.61700
C 	C 	0.16480 0.11860 0.44797 0.51100
C 	C 	0.37080 0.68683 0.41296 0.55500
C 	C 	0.07730 0.86914 0.78414 0.63800
C 	C 	0.61670 0.93942 0.45378 0.48400
C 	C 	0.94140 0.53046 0.97714 -0.57300
C 	C 	0.10660 0.87724 0.11072 -0.56100
C 	C 	0.16480 0.88140 0.05203 0.51100
C 	C 	0.96170 0.71295 0.92264 -0.56800
C 	C 	0.88330 0.43942 0.54622 0.48400
C 	C 	0.42270 0.63086 0.28414 0.63800
C 	C 	0.11670 0.43942 0.04622 0.48400
C 	C 	0.44140 0.96954 0.97714 -0.57300
C 	C 	0.39340 0.62276 0.61072 -0.56100
C 	C 	0.05860 0.46954 0.02286 -0.57300
C 	C 	0.51450 0.62912 0.72715 -0.67800
C 	C 	0.53830 0.78705 0.42264 -0.56800
C 	C 	0.59270 0.82026 0.42210 0.51900
C 	C 	0.96170 0.28705 0.57736 -0.56800
O 	O 	0.61266 0.08680 0.01165 -0.51400
O 	O 	0.89308 0.33384 0.62858 -0.55400
O 	O 	0.88734 0.41320 0.51165 -0.51300
O 	O 	0.04730 0.11832 0.66850 -0.60200
O 	O 	0.10692 0.66616 0.37142 -0.55400
O 	O 	0.63420 0.59922 0.01153 -0.55800
O 	O 	0.26186 0.36478 0.95042 -0.51600
O 	O 	0.80070 0.18808 0.11850 -0.54100
O 	O 	0.13420 0.09922 0.48847 -0.55800
O 	O 	0.84840 0.85565 0.27660 -0.60100
O 	O 	0.09520 0.16176 0.55992 -0.54100
O 	O 	0.65160 0.64435 0.77660 -0.60100
O 	O 	0.19930 0.81192 0.88150 -0.54100
O 	O 	0.23970 0.88413 0.89780 -0.74900
O 	O 	0.54730 0.61832 0.83150 -0.60300
O 	O 	0.76186 0.13522 0.95042 -0.51700
O 	O 	0.30070 0.68808 0.38150 -0.54100
O 	O 	0.45270 0.38168 0.16850 -0.60300
O 	O 	0.09520 0.83824 0.94008 -0.54100
O 	O 	0.36580 0.59922 0.51153 -0.55800
O 	O 	0.88734 0.58680 0.98835 -0.51400
O 	O 	0.73970 0.38413 0.60220 -0.74800
O 	O 	0.80070 0.81192 0.38150 -0.54100
O 	O 	0.38194 0.83092 0.97423 -0.52200
O 	O 	0.60692 0.16616 0.12858 -0.55500
O 	O 	0.16050 0.55693 0.40668 -0.40700
O 	O 	0.59520 0.33824 0.55992 -0.54100
O 	O 	0.11806 0.66908 0.47423 -0.52100
O 	O 	0.95270 0.11832 0.16850 -0.60200
O 	O 	0.11266 0.58680 0.48835 -0.51300
O 	O 	0.36580 0.40078 0.98847 -0.55800
O 	O 	0.86580 0.09922 0.98847 -0.55800
O 	O 	0.83950 0.44307 0.59332 -0.40700
O 	O 	0.84840 0.14435 0.22340 -0.60100
O 	O 	0.30070 0.31192 0.11850 -0.54100
O 	O 	0.23814 0.86478 0.04958 -0.51700
O 	O 	0.19930 0.18808 0.61850 -0.54100
O 	O 	0.11266 0.41320 0.01165 -0.51400
O 	O 	0.38734 0.91320 0.98835 -0.51400
O 	O 	0.34840 0.35565 0.22340 -0.60100
O 	O 	0.04730 0.88168 0.83150 -0.60200
O 	O 	0.26030 0.38413 0.10220 -0.74900
O 	O 	0.73814 0.36478 0.45042 -0.51700
O 	O 	0.88194 0.33092 0.52577 -0.52100
O 	O 	0.13420 0.90078 0.01153 -0.55800
O 	O 	0.26186 0.63522 0.54958 -0.51700
O 	O 	0.89308 0.66616 0.87142 -0.55500
O 	O 	0.83950 0.55693 0.90668 -0.40700
O 	O 	0.59520 0.66176 0.94008 -0.54100
O 	O 	0.66050 0.94307 0.40668 -0.40700
O 	O 	0.23814 0.13522 0.45042 -0.51700
O 	O 	0.90480 0.83824 0.44008 -0.54100
O 	O 	0.38194 0.16908 0.52577 -0.52100
O 	O 	0.95270 0.88168 0.33150 -0.60200
O 	O 	0.11806 0.33092 0.02577 -0.52200
O 	O 	0.40480 0.33824 0.05992 -0.54100
O 	O 	0.23970 0.11587 0.60220 -0.74800
O 	O 	0.39308 0.16616 0.62858 -0.55400
O 	O 	0.76186 0.86478 0.54958 -0.51700
O 	O 	0.61266 0.91320 0.48835 -0.51400
O 	O 	0.61806 0.16908 0.02577 -0.52200
O 	O 	0.38734 0.08680 0.51165 -0.51400
O 	O 	0.69930 0.68808 0.88150 -0.54100
O 	O 	0.90480 0.16176 0.05992 -0.54100
O 	O 	0.34840 0.64435 0.27660 -0.60100
O 	O 	0.45270 0.61832 0.33150 -0.60300
O 	O 	0.65160 0.35565 0.72340 -0.60100
O 	O 	0.69930 0.31192 0.61850 -0.54100
O 	O 	0.60692 0.83384 0.37142 -0.55400
O 	O 	0.33950 0.94307 0.90668 -0.40700
O 	O 	0.73814 0.63522 0.04958 -0.51600
O 	O 	0.54730 0.38168 0.66850 -0.60300
O 	O 	0.16050 0.44307 0.09332 -0.40700
O 	O 	0.76030 0.11587 0.10220 -0.74900
O 	O 	0.10692 0.33384 0.12858 -0.55500
O 	O 	0.15160 0.14435 0.72340 -0.60100
O 	O 	0.15160 0.85565 0.77660 -0.60100
O 	O 	0.73970 0.61587 0.89780 -0.74900
O 	O 	0.61806 0.83092 0.47423 -0.52100
O 	O 	0.40480 0.66176 0.44008 -0.54100
O 	O 	0.66050 0.05693 0.09332 -0.40700
O 	O 	0.33950 0.05693 0.59332 -0.40700
O 	O 	0.26030 0.61587 0.39780 -0.74800
O 	O 	0.63420 0.40078 0.48847 -0.55800
O 	O 	0.88194 0.66908 0.97423 -0.52200
O 	O 	0.76030 0.88413 0.39780 -0.74800
O 	O 	0.86580 0.90078 0.51153 -0.55800
O 	O 	0.39308 0.83384 0.87142 -0.55500
