data_crystal

_cell_length_a 26.47280
_cell_length_b 26.47250
_cell_length_c 26.47250
_cell_angle_alpha 109.47100
_cell_angle_beta  109.47100
_cell_angle_gamma 109.47100

_symmetry_space_group_name_	'P 1'
_symmetry_space_group_name_H-M	'P 1'

loop_
_symmetry_equiv_pos_as_xyz
  x,y,z

loop_
_atom_site_label
_atom_site_type_symbol
_atom_site_fract_x
_atom_site_fract_y
_atom_site_fract_z
_atom_site_charge
Si	Si	0.84171 0.02329 0.44254 0.36400
Si	Si	0.10083 0.68158 0.15829 0.36300
Si	Si	0.55746 0.08075 0.89917 0.36200
H 	H 	0.45950 0.74800 0.39670 0.06100
H 	H 	0.76130 0.87850 0.52000 0.03500
H 	H 	0.69320 0.88400 0.55760 0.05400
H 	H 	0.23460 0.76140 0.28560 -0.01400
H 	H 	0.84250 0.93330 0.50140 0.00800
H 	H 	0.30600 0.79710 0.38850 0.04700
H 	H 	0.52350 0.87980 0.42610 0.06100
H 	H 	0.71440 0.97580 0.44900 -0.01500
H 	H 	0.43720 0.78850 0.54050 0.06100
H 	H 	0.40260 0.85630 0.47650 0.06100
H 	H 	0.49860 0.93190 0.84110 0.01000
H 	H 	0.60330 0.85130 0.56280 0.06200
H 	H 	0.25870 0.61720 0.23870 0.03600
H 	H 	0.55100 0.02680 0.76540 -0.01000
H 	H 	0.36440 0.69080 0.30680 0.05600
H 	H 	0.15890 0.59080 0.15750 0.01000
H 	H 	0.44240 0.82640 0.63560 0.05500
H 	H 	0.61150 0.90860 0.41750 0.04800
H 	H 	0.58250 0.99110 0.69400 0.04800
H 	H 	0.48000 0.85850 0.74130 0.03500
H 	H 	0.57390 0.95370 0.59740 0.06100
C 	C 	0.50400 0.86780 0.55880 0.09400
C 	C 	0.49680 0.90110 0.75830 -0.00400
C 	C 	0.39490 0.82290 0.44240 -0.09100
C 	C 	0.50810 0.94240 0.81390 0.01200
C 	C 	0.42920 0.75880 0.39480 -0.08800
C 	C 	0.55260 0.95070 0.66270 -0.06300
C 	C 	0.18610 0.62850 0.19420 0.01400
C 	C 	0.24170 0.64280 0.23850 -0.00500
C 	C 	0.37190 0.72400 0.34110 -0.06900
C 	C 	0.55480 0.86380 0.49600 0.09400
C 	C 	0.76150 0.90430 0.50320 -0.00500
C 	C 	0.55760 0.88050 0.45250 -0.09200
C 	C 	0.60520 0.86400 0.53440 -0.08800
C 	C 	0.53660 0.99400 0.77240 0.09400
C 	C 	0.22760 0.72160 0.26420 0.09900
C 	C 	0.80580 0.93430 0.49190 0.01400
C 	C 	0.73580 0.95740 0.46340 0.09900
C 	C 	0.66120 0.89990 0.48830 0.08200
C 	C 	0.46560 0.82960 0.57080 -0.08800
C 	C 	0.65890 0.88290 0.53080 -0.06900
C 	C 	0.51170 0.91160 0.67290 0.08200
C 	C 	0.44120 0.80900 0.44520 0.09400
C 	C 	0.61010 0.89810 0.44740 -0.06400
C 	C 	0.32710 0.73870 0.33880 0.08200
C 	C 	0.54750 0.92800 0.60510 -0.09200
C 	C 	0.46920 0.85210 0.62810 -0.06800
C 	C 	0.33730 0.78800 0.38990 -0.06400
N 	N 	0.78890 0.96530 0.46520 -0.18400
N 	N 	0.50000 0.84520 0.50000 -0.15700
N 	N 	0.51570 0.93590 0.73300 -0.13600
N 	N 	0.53480 0.00010 0.82370 -0.18100
N 	N 	0.71730 0.92020 0.48430 -0.13600
N 	N 	0.17630 0.67640 0.21110 -0.18400
N 	N 	0.26700 0.70290 0.28270 -0.13600
Si	Si	0.44254 0.52329 0.84171 0.36300
Si	Si	0.89917 0.58075 0.55746 0.36200
Si	Si	0.15829 0.18158 0.10083 0.36400
H 	H 	0.63560 0.32640 0.44240 0.05500
H 	H 	0.41750 0.40860 0.61150 0.04800
H 	H 	0.44900 0.47580 0.71440 -0.01300
H 	H 	0.55760 0.38400 0.69320 0.05500
H 	H 	0.56280 0.35130 0.60330 0.06200
H 	H 	0.52000 0.37850 0.76130 0.03600
H 	H 	0.84110 0.43190 0.49860 0.00900
H 	H 	0.54050 0.28850 0.43720 0.06200
H 	H 	0.15750 0.09080 0.15890 0.01000
H 	H 	0.47650 0.35630 0.40260 0.06200
H 	H 	0.74130 0.35850 0.48000 0.03600
H 	H 	0.30680 0.19080 0.36440 0.05600
H 	H 	0.38850 0.29710 0.30600 0.04800
H 	H 	0.39670 0.24800 0.45950 0.06200
H 	H 	0.42610 0.37980 0.52350 0.06200
H 	H 	0.59740 0.45370 0.57390 0.06200
H 	H 	0.50140 0.43330 0.84250 0.00900
H 	H 	0.23870 0.11720 0.25870 0.03600
H 	H 	0.69400 0.49110 0.58250 0.04800
H 	H 	0.76540 0.52680 0.55100 -0.01300
H 	H 	0.28560 0.26140 0.23460 -0.01300
C 	C 	0.44240 0.32290 0.39490 -0.09100
C 	C 	0.57080 0.32960 0.46560 -0.08800
C 	C 	0.46340 0.45740 0.73580 0.09900
C 	C 	0.49600 0.36380 0.55480 0.09400
C 	C 	0.33880 0.23870 0.32710 0.08200
C 	C 	0.26420 0.22160 0.22760 0.09900
C 	C 	0.44740 0.39810 0.61010 -0.06300
C 	C 	0.77240 0.49400 0.53660 0.09900
C 	C 	0.34110 0.22400 0.37190 -0.06900
C 	C 	0.23850 0.14280 0.24170 -0.00500
C 	C 	0.75830 0.40110 0.49680 -0.00500
C 	C 	0.50320 0.40430 0.76150 -0.00500
C 	C 	0.60510 0.42800 0.54750 -0.09100
C 	C 	0.38990 0.28800 0.33730 -0.06400
C 	C 	0.81390 0.44240 0.50810 0.01400
C 	C 	0.55880 0.36780 0.50400 0.09400
C 	C 	0.53440 0.36400 0.60520 -0.08800
C 	C 	0.49190 0.43430 0.80580 0.01400
C 	C 	0.48830 0.39990 0.66120 0.08200
C 	C 	0.67290 0.41160 0.51170 0.08200
C 	C 	0.19420 0.12850 0.18610 0.01400
C 	C 	0.44520 0.30900 0.44120 0.09400
C 	C 	0.66270 0.45070 0.55260 -0.06300
C 	C 	0.62810 0.35210 0.46920 -0.06900
C 	C 	0.53080 0.38290 0.65890 -0.06900
C 	C 	0.39480 0.25880 0.42920 -0.08800
C 	C 	0.45250 0.38050 0.55760 -0.09100
N 	N 	0.21110 0.17640 0.17630 -0.18400
N 	N 	0.73300 0.43590 0.51570 -0.13600
N 	N 	0.28270 0.20290 0.26700 -0.13600
N 	N 	0.46520 0.46530 0.78890 -0.18400
N 	N 	0.50000 0.34520 0.50000 -0.15700
N 	N 	0.82370 0.50010 0.53480 -0.18400
N 	N 	0.48430 0.42020 0.71730 -0.13600
Si	Si	0.47671 0.81842 0.91925 0.36200
Si	Si	0.41925 0.47671 0.31842 0.36300
Si	Si	0.81842 0.41925 0.97671 0.36000
H 	H 	0.59140 0.70290 0.00890 0.04900
H 	H 	0.80920 0.67360 0.11600 0.05600
H 	H 	0.56670 0.90920 0.06810 0.00900
H 	H 	0.62020 0.64370 0.04630 0.06200
H 	H 	0.67360 0.61600 0.30920 0.05500
H 	H 	0.75200 0.71150 0.14870 0.06200
H 	H 	0.61600 0.80920 0.17360 0.05600
H 	H 	0.50890 0.59140 0.20290 0.04800
H 	H 	0.64150 0.62150 0.38280 0.03600
H 	H 	0.71150 0.64870 0.25200 0.06200
H 	H 	0.56810 0.56670 0.40920 0.00900
H 	H 	0.70290 0.50890 0.09140 0.04900
H 	H 	0.54630 0.62020 0.14370 0.06200
H 	H 	0.47320 0.52420 0.23860 -0.01300
H 	H 	0.52420 0.73860 0.97320 -0.01600
H 	H 	0.64370 0.54630 0.12020 0.06200
H 	H 	0.73860 0.47320 0.02420 -0.01300
H 	H 	0.62150 0.88280 0.14150 0.03600
H 	H 	0.90920 0.56810 0.06670 0.01000
H 	H 	0.64870 0.75200 0.21150 0.06200
H 	H 	0.88280 0.64150 0.12150 0.03600
C 	C 	0.50600 0.54260 0.27840 0.09900
C 	C 	0.54930 0.60190 0.21200 -0.06300
C 	C 	0.57200 0.61950 0.17710 -0.09100
C 	C 	0.63600 0.74120 0.17040 -0.08700
C 	C 	0.64790 0.61710 0.27600 -0.06900
C 	C 	0.58840 0.60010 0.26130 0.08200
C 	C 	0.55760 0.56570 0.37150 0.01400
C 	C 	0.77840 0.50600 0.04260 0.09900
C 	C 	0.61950 0.67710 0.07200 -0.09100
C 	C 	0.54260 0.77840 0.00600 0.10500
C 	C 	0.59890 0.59570 0.35720 -0.00500
C 	C 	0.85720 0.59890 0.09570 -0.00500
C 	C 	0.60190 0.71200 0.04930 -0.06400
C 	C 	0.59570 0.85720 0.09890 -0.00600
C 	C 	0.74120 0.67040 0.13600 -0.08700
C 	C 	0.69100 0.63220 0.13620 0.09400
C 	C 	0.63220 0.63620 0.19100 0.09400
C 	C 	0.67710 0.57200 0.11950 -0.09100
C 	C 	0.63620 0.69100 0.13220 0.09400
C 	C 	0.77600 0.64790 0.11710 -0.06900
C 	C 	0.71200 0.54930 0.10190 -0.06400
C 	C 	0.61710 0.77600 0.14790 -0.06900
C 	C 	0.76130 0.58840 0.10010 0.08300
C 	C 	0.87150 0.55760 0.06570 0.01400
C 	C 	0.60010 0.76130 0.08840 0.08300
C 	C 	0.67040 0.63600 0.24120 -0.08800
C 	C 	0.56570 0.87150 0.05760 0.01600
N 	N 	0.57980 0.79710 0.06410 -0.13700
N 	N 	0.79710 0.56410 0.07980 -0.13600
N 	N 	0.49990 0.53470 0.32360 -0.18400
N 	N 	0.82360 0.49990 0.03470 -0.18300
N 	N 	0.65480 0.65480 0.15480 -0.15700
N 	N 	0.56410 0.57980 0.29710 -0.13600
N 	N 	0.53470 0.82360 0.99990 -0.18600
Si	Si	0.02329 0.94254 0.34171 0.36300
Si	Si	0.08075 0.39917 0.05746 0.36500
Si	Si	0.68158 0.65829 0.60083 0.36300
H 	H 	0.76140 0.78560 0.73460 -0.01300
H 	H 	0.74800 0.89670 0.95950 0.06000
H 	H 	0.88400 0.05760 0.19320 0.05500
H 	H 	0.95370 0.09740 0.07390 0.06200
H 	H 	0.82640 0.13560 0.94240 0.05600
H 	H 	0.02680 0.26540 0.05100 -0.01100
H 	H 	0.90860 0.91750 0.11150 0.04800
H 	H 	0.97580 0.94900 0.21440 -0.01400
H 	H 	0.79710 0.88850 0.80600 0.04900
H 	H 	0.61720 0.73870 0.75870 0.03600
H 	H 	0.99110 0.19400 0.08250 0.04800
H 	H 	0.69080 0.80680 0.86440 0.05600
H 	H 	0.78850 0.04050 0.93720 0.06300
H 	H 	0.85630 0.97650 0.90260 0.06000
H 	H 	0.93330 0.00140 0.34250 0.01300
H 	H 	0.87980 0.92610 0.02350 0.06200
H 	H 	0.87850 0.02000 0.26130 0.03400
H 	H 	0.85850 0.24130 0.98000 0.03800
H 	H 	0.85130 0.06280 0.10330 0.06100
H 	H 	0.59080 0.65750 0.65890 0.00900
H 	H 	0.93190 0.34110 0.99860 0.00400
C 	C 	0.86780 0.05880 0.00400 0.09700
C 	C 	0.95740 0.96340 0.23580 0.09900
C 	C 	0.91160 0.17290 0.01170 0.08400
C 	C 	0.88290 0.03080 0.15890 -0.06700
C 	C 	0.62850 0.69420 0.68610 0.01400
C 	C 	0.90430 0.00320 0.26150 0.00200
C 	C 	0.88050 0.95250 0.05760 -0.09000
C 	C 	0.82290 0.94240 0.89490 -0.08800
C 	C 	0.75880 0.89480 0.92920 -0.08400
C 	C 	0.89990 0.98830 0.16120 0.08000
C 	C 	0.64280 0.73850 0.74170 -0.00500
C 	C 	0.94240 0.31390 0.00810 0.02300
C 	C 	0.86400 0.03440 0.10520 -0.08500
C 	C 	0.80900 0.94520 0.94120 0.08900
C 	C 	0.95070 0.16270 0.05260 -0.06300
C 	C 	0.72400 0.84110 0.87190 -0.07100
C 	C 	0.86380 0.99600 0.05480 0.09000
C 	C 	0.72160 0.76420 0.72760 0.09900
C 	C 	0.85210 0.12810 0.96920 -0.07100
C 	C 	0.73870 0.83880 0.82710 0.08400
C 	C 	0.78800 0.88990 0.83730 -0.06600
C 	C 	0.92800 0.10510 0.04750 -0.09200
C 	C 	0.82960 0.07080 0.96560 -0.09000
C 	C 	0.93430 0.99190 0.30580 0.00500
C 	C 	0.90110 0.25830 0.99680 -0.01400
C 	C 	0.89810 0.94740 0.11010 -0.06400
C 	C 	0.99400 0.27240 0.03660 0.09500
N 	N 	0.00010 0.32370 0.03480 -0.18300
N 	N 	0.84520 0.00000 -0.00000 -0.15400
N 	N 	0.96530 0.96520 0.28890 -0.18300
N 	N 	0.93590 0.23300 0.01570 -0.13400
N 	N 	0.92020 0.98430 0.21730 -0.13800
N 	N 	0.70290 0.78270 0.76700 -0.13700
N 	N 	0.67640 0.71110 0.67630 -0.18400
Si	Si	0.65829 0.10083 0.18158 0.36400
Si	Si	0.39917 0.55746 0.58075 0.36300
Si	Si	0.94254 0.84171 0.52329 0.36100
H 	H 	0.34110 0.49860 0.43190 0.00900
H 	H 	0.04050 0.43720 0.28850 0.06200
H 	H 	0.80680 0.36440 0.19080 0.05600
H 	H 	0.26540 0.55100 0.52680 -0.01300
H 	H 	0.13560 0.44240 0.32640 0.05500
H 	H 	0.06280 0.60330 0.35130 0.06100
H 	H 	0.88850 0.30600 0.29710 0.04900
H 	H 	0.89670 0.45950 0.24800 0.06100
H 	H 	0.65750 0.15890 0.09080 0.01000
H 	H 	0.78560 0.23460 0.26140 -0.01300
H 	H 	0.94900 0.71440 0.47580 -0.01300
H 	H 	0.05760 0.69320 0.38400 0.05500
H 	H 	0.97650 0.40260 0.35630 0.06100
H 	H 	0.91750 0.61150 0.40860 0.04800
H 	H 	0.19400 0.58250 0.49110 0.04800
H 	H 	0.02000 0.76130 0.37850 0.03400
H 	H 	0.00140 0.84250 0.43330 0.01300
H 	H 	0.73870 0.25870 0.11720 0.03600
H 	H 	0.24130 0.48000 0.35850 0.03600
H 	H 	0.92610 0.52350 0.37980 0.06100
H 	H 	0.09740 0.57390 0.45370 0.06200
C 	C 	0.07080 0.46560 0.32960 -0.08800
C 	C 	0.00320 0.76150 0.40430 0.00200
C 	C 	0.99600 0.55480 0.36380 0.09000
C 	C 	0.98830 0.66120 0.39990 0.08100
C 	C 	0.73850 0.24170 0.14280 -0.00500
C 	C 	0.94520 0.44120 0.30900 0.09100
C 	C 	0.95250 0.55760 0.38050 -0.09000
C 	C 	0.76420 0.22760 0.22160 0.09900
C 	C 	0.96340 0.73580 0.45740 0.09900
C 	C 	0.88990 0.33730 0.28800 -0.06500
C 	C 	0.05880 0.50400 0.36780 0.09400
C 	C 	0.10510 0.54750 0.42800 -0.09100
C 	C 	0.99190 0.80580 0.43430 0.00600
C 	C 	0.25830 0.49680 0.40110 -0.00500
C 	C 	0.83880 0.32710 0.23870 0.08300
C 	C 	0.12810 0.46920 0.35210 -0.06800
C 	C 	0.17290 0.51170 0.41160 0.08200
C 	C 	0.31390 0.50810 0.44240 0.01400
C 	C 	0.27240 0.53660 0.49400 0.09900
C 	C 	0.94240 0.39490 0.32290 -0.09000
C 	C 	0.03440 0.60520 0.36400 -0.08400
C 	C 	0.84110 0.37190 0.22400 -0.07000
C 	C 	0.03080 0.65890 0.38290 -0.06800
C 	C 	0.16270 0.55260 0.45070 -0.06300
C 	C 	0.94740 0.61010 0.39810 -0.06400
C 	C 	0.89480 0.42920 0.25880 -0.08600
C 	C 	0.69420 0.18610 0.12850 0.01400
N 	N 	0.00000 0.50000 0.34520 -0.15500
N 	N 	0.23300 0.51570 0.43590 -0.13600
N 	N 	0.71110 0.17630 0.17640 -0.18400
N 	N 	0.78270 0.26700 0.20290 -0.13600
N 	N 	0.96520 0.78890 0.46530 -0.18200
N 	N 	0.32370 0.53480 0.50010 -0.18400
N 	N 	0.98430 0.71730 0.42020 -0.13800
Si	Si	0.60083 0.15829 0.68158 0.36300
Si	Si	0.05746 0.89917 0.08075 0.36400
Si	Si	0.34171 0.44254 0.02329 0.36500
H 	H 	0.95950 0.39670 0.74800 0.06100
H 	H 	0.65890 0.15750 0.59080 0.01000
H 	H 	0.80600 0.38850 0.79710 0.04900
H 	H 	0.98000 0.74130 0.85850 0.03800
H 	H 	0.07390 0.59740 0.95370 0.06200
H 	H 	0.90260 0.47650 0.85630 0.06100
H 	H 	0.19320 0.55760 0.88400 0.05500
H 	H 	0.21440 0.44900 0.97580 -0.01400
H 	H 	0.99860 0.84110 0.93190 0.00400
H 	H 	0.34250 0.50140 0.93330 0.00900
H 	H 	0.05100 0.76540 0.02680 -0.01100
H 	H 	0.73460 0.28560 0.76140 -0.01300
H 	H 	0.75870 0.23870 0.61720 0.03600
H 	H 	0.10330 0.56280 0.85130 0.06200
H 	H 	0.08250 0.69400 0.99110 0.04800
H 	H 	0.11150 0.41750 0.90860 0.04800
H 	H 	0.86440 0.30680 0.69080 0.05600
H 	H 	0.93720 0.54050 0.78850 0.06200
H 	H 	0.26130 0.52000 0.87850 0.03600
H 	H 	0.94240 0.63560 0.82640 0.05600
H 	H 	0.02350 0.42610 0.87980 0.06300
C 	C 	0.72760 0.26420 0.72160 0.09900
C 	C 	0.15890 0.53080 0.88290 -0.06800
C 	C 	0.83730 0.38990 0.78800 -0.06500
C 	C 	0.16120 0.48830 0.89990 0.08200
C 	C 	0.94120 0.44520 0.80900 0.09100
C 	C 	0.10520 0.53440 0.86400 -0.08800
C 	C 	0.26150 0.50320 0.90430 -0.00500
C 	C 	0.87190 0.34110 0.72400 -0.07000
C 	C 	0.05760 0.45250 0.88050 -0.09200
C 	C 	0.30580 0.49190 0.93430 0.01400
C 	C 	0.00400 0.55880 0.86780 0.09700
C 	C 	0.01170 0.67290 0.91160 0.08400
C 	C 	0.03660 0.77240 0.99400 0.09600
C 	C 	0.92920 0.39480 0.75880 -0.08600
C 	C 	0.04750 0.60510 0.92800 -0.09200
C 	C 	0.96920 0.62810 0.85210 -0.07100
C 	C 	0.74170 0.23850 0.64280 -0.00500
C 	C 	0.05480 0.49600 0.86380 0.09400
C 	C 	0.11010 0.44740 0.89810 -0.06300
C 	C 	0.00810 0.81390 0.94240 0.02300
C 	C 	0.96560 0.57080 0.82960 -0.09000
C 	C 	0.89490 0.44240 0.82290 -0.09000
C 	C 	0.68610 0.19420 0.62850 0.01400
C 	C 	0.99680 0.75830 0.90110 -0.01400
C 	C 	0.23580 0.46340 0.95740 0.09900
C 	C 	0.05260 0.66270 0.95070 -0.06400
C 	C 	0.82710 0.33880 0.73870 0.08300
N 	N 	0.76700 0.28270 0.70290 -0.13600
N 	N 	-0.00000 0.50000 0.84520 -0.15600
N 	N 	0.28890 0.46520 0.96530 -0.18400
N 	N 	0.67630 0.21110 0.67640 -0.18400
N 	N 	0.21730 0.48430 0.92020 -0.13600
N 	N 	0.01570 0.73300 0.93590 -0.13400
N 	N 	0.03480 0.82370 0.00010 -0.18400
Si	Si	0.97671 0.91925 0.81842 0.35900
Si	Si	0.91925 0.31842 0.47671 0.36200
Si	Si	0.31842 0.97671 0.41925 0.36100
H 	H 	0.14150 0.38280 0.62150 0.03600
H 	H 	0.00890 0.20290 0.59140 0.04900
H 	H 	0.14370 0.12020 0.54630 0.06200
H 	H 	0.14870 0.21150 0.75200 0.06200
H 	H 	0.23860 0.02420 0.47320 -0.01300
H 	H 	0.30920 0.11600 0.67360 0.05600
H 	H 	0.21150 0.25200 0.64870 0.06200
H 	H 	0.12020 0.04630 0.64370 0.06200
H 	H 	0.38280 0.12150 0.64150 0.03600
H 	H 	0.25200 0.14870 0.71150 0.06200
H 	H 	0.12150 0.14150 0.88280 0.03600
H 	H 	0.20290 0.09140 0.50890 0.04900
H 	H 	0.02420 0.97320 0.73860 -0.01600
H 	H 	0.06810 0.40920 0.56670 0.00900
H 	H 	0.17360 0.30920 0.61600 0.05600
H 	H 	0.09140 0.00890 0.70290 0.04900
H 	H 	0.11600 0.17360 0.80920 0.05600
H 	H 	0.40920 0.06670 0.56810 0.01000
H 	H 	0.04630 0.14370 0.62020 0.06300
H 	H 	0.06670 0.06810 0.90920 0.00900
H 	H 	0.97320 0.23860 0.52420 -0.01700
C 	C 	0.17040 0.24120 0.63600 -0.08700
C 	C 	0.09890 0.35720 0.59570 -0.00600
C 	C 	0.13620 0.13220 0.69100 0.09400
C 	C 	0.35720 0.09570 0.59890 -0.00500
C 	C 	0.00600 0.27840 0.54260 0.10500
C 	C 	0.13600 0.17040 0.74120 -0.08700
C 	C 	0.27600 0.11710 0.64790 -0.06900
C 	C 	0.05760 0.37150 0.56570 0.01600
C 	C 	0.04930 0.21200 0.60190 -0.06400
C 	C 	0.24120 0.13600 0.67040 -0.08700
C 	C 	0.11710 0.14790 0.77600 -0.06900
C 	C 	0.26130 0.10010 0.58840 0.08300
C 	C 	0.11950 0.07200 0.67710 -0.09100
C 	C 	0.06570 0.05760 0.87150 0.01600
C 	C 	0.08840 0.26130 0.60010 0.08300
C 	C 	0.19100 0.13620 0.63220 0.09400
C 	C 	0.27840 0.04260 0.50600 0.09900
C 	C 	0.09570 0.09890 0.85720 -0.00500
C 	C 	0.13220 0.19100 0.63620 0.09400
C 	C 	0.21200 0.10190 0.54930 -0.06300
C 	C 	0.14790 0.27600 0.61710 -0.06900
C 	C 	0.10010 0.08840 0.76130 0.08300
C 	C 	0.07200 0.17710 0.61950 -0.09100
C 	C 	0.10190 0.04930 0.71200 -0.06400
C 	C 	0.37150 0.06570 0.55760 0.01400
C 	C 	0.04260 0.00600 0.77840 0.10500
C 	C 	0.17710 0.11950 0.57200 -0.09100
N 	N 	0.15480 0.15480 0.65480 -0.15700
N 	N 	0.03470 0.99990 0.82360 -0.18500
N 	N 	0.06410 0.29710 0.57980 -0.13700
N 	N 	0.29710 0.07980 0.56410 -0.13600
N 	N 	0.07980 0.06410 0.79710 -0.13700
N 	N 	0.32360 0.03470 0.49990 -0.18300
N 	N 	0.99990 0.32360 0.53470 -0.18700
Si	Si	0.18158 0.60083 0.65829 0.36300
Si	Si	0.58075 0.05746 0.39917 0.36400
Si	Si	0.52329 0.34171 0.94254 0.36100
H 	H 	0.45370 0.07390 0.09740 0.06200
H 	H 	0.47580 0.21440 0.94900 -0.01300
H 	H 	0.35850 0.98000 0.24130 0.03800
H 	H 	0.28850 0.93720 0.04050 0.06300
H 	H 	0.43190 0.99860 0.34110 0.00500
H 	H 	0.09080 0.65890 0.65750 0.01000
H 	H 	0.49110 0.08250 0.19400 0.04800
H 	H 	0.24800 0.95950 0.89670 0.06000
H 	H 	0.11720 0.75870 0.73870 0.03600
H 	H 	0.19080 0.86440 0.80680 0.05600
H 	H 	0.37850 0.26130 0.02000 0.03300
H 	H 	0.52680 0.05100 0.26540 -0.01300
H 	H 	0.37980 0.02350 0.92610 0.06200
H 	H 	0.29710 0.80600 0.88850 0.04900
H 	H 	0.35130 0.10330 0.06280 0.06100
H 	H 	0.43330 0.34250 0.00140 0.01400
H 	H 	0.26140 0.73460 0.78560 -0.01300
H 	H 	0.35630 0.90260 0.97650 0.06000
H 	H 	0.40860 0.11150 0.91750 0.04800
H 	H 	0.32640 0.94240 0.13560 0.05600
H 	H 	0.38400 0.19320 0.05760 0.05500
C 	C 	0.23870 0.82710 0.83880 0.08400
C 	C 	0.36400 0.10520 0.03440 -0.08400
C 	C 	0.35210 0.96920 0.12810 -0.07100
C 	C 	0.39810 0.11010 0.94740 -0.06400
C 	C 	0.36380 0.05480 0.99600 0.09000
C 	C 	0.45070 0.05260 0.16270 -0.06400
C 	C 	0.36780 0.00400 0.05880 0.09700
C 	C 	0.28800 0.83730 0.88990 -0.06600
C 	C 	0.38290 0.15890 0.03080 -0.06700
C 	C 	0.43430 0.30580 0.99190 0.00500
C 	C 	0.49400 0.03660 0.27240 0.10000
C 	C 	0.38050 0.05760 0.95250 -0.09000
C 	C 	0.41160 0.01170 0.17290 0.08500
C 	C 	0.39990 0.16120 0.98830 0.08100
C 	C 	0.12850 0.68610 0.69420 0.01400
C 	C 	0.30900 0.94120 0.94520 0.08900
C 	C 	0.40110 0.99680 0.25830 -0.01300
C 	C 	0.22400 0.87190 0.84110 -0.07100
C 	C 	0.22160 0.72760 0.76420 0.09900
C 	C 	0.44240 0.00810 0.31390 0.02300
C 	C 	0.45740 0.23580 0.96340 0.09900
C 	C 	0.32960 0.96560 0.07080 -0.09000
C 	C 	0.25880 0.92920 0.89480 -0.08500
C 	C 	0.32290 0.89490 0.94240 -0.08800
C 	C 	0.14280 0.74170 0.73850 -0.00500
C 	C 	0.40430 0.26150 0.00320 0.00300
C 	C 	0.42800 0.04750 0.10510 -0.09200
N 	N 	0.20290 0.76700 0.78270 -0.13700
N 	N 	0.42020 0.21730 0.98430 -0.13800
N 	N 	0.43590 0.01570 0.23300 -0.13500
N 	N 	0.46530 0.28890 0.96520 -0.18200
N 	N 	0.50010 0.03480 0.32370 -0.18500
N 	N 	0.34520 0.00000 -0.00000 -0.15400
N 	N 	0.17640 0.67630 0.71110 -0.18400
H 	H 	0.05240 0.25030 0.44710 0.05900
H 	H 	0.19680 0.24970 0.30210 0.05800
H 	H 	0.31660 0.35820 0.51640 0.05600
H 	H 	0.37570 0.20610 0.54600 0.06000
H 	H 	0.33990 0.29390 0.66960 0.06000
H 	H 	0.37780 0.40590 0.38730 -0.01900
H 	H 	0.98140 0.09410 0.47190 -0.02000
H 	H 	0.94070 0.16990 0.37120 0.02000
H 	H 	0.17400 0.20510 0.35770 0.06600
H 	H 	0.34110 0.40160 0.45930 0.04100
H 	H 	0.26150 0.39780 0.24130 0.01300
H 	H 	0.20130 0.33010 0.27080 0.02100
H 	H 	0.29980 0.20480 0.46840 0.05600
H 	H 	0.15820 0.14180 0.45840 0.05600
H 	H 	0.15260 0.29490 0.46890 0.06500
H 	H 	0.26360 0.29520 0.59500 0.05600
H 	H 	0.05770 0.09840 0.43950 0.04200
H 	H 	0.84350 0.10220 0.36370 0.01300
C 	C 	0.36450 0.25000 0.61450 0.09700
C 	C 	0.34160 0.39520 0.35420 0.10000
C 	C 	0.28590 0.27700 0.58450 -0.07600
C 	C 	0.35290 0.22390 0.55560 -0.08200
C 	C 	0.24290 0.27620 0.44290 0.09300
C 	C 	0.13730 0.16390 0.45700 -0.08800
C 	C 	0.30750 0.22300 0.50890 -0.07600
C 	C 	0.88300 0.10930 0.38670 -0.00400
C 	C 	0.16670 0.22380 0.46670 0.09200
C 	C 	0.20750 0.24480 0.37830 -0.08500
C 	C 	0.24400 0.35360 0.29020 0.00100
C 	C 	0.04560 0.17090 0.44190 0.07800
C 	C 	0.49320 0.24830 0.71350 -0.03800
C 	C 	0.95900 0.10480 0.44640 0.10000
C 	C 	0.30730 0.36210 0.43940 -0.06400
C 	C 	0.22120 0.27110 0.34490 -0.06800
C 	C 	0.27740 0.39070 0.27370 -0.00400
C 	C 	0.46250 0.24930 0.66220 0.03800
C 	C 	0.93660 0.14640 0.39040 0.00100
C 	C 	0.27450 0.25000 0.52450 0.08500
C 	C 	0.27100 0.32910 0.37470 0.07500
C 	C 	0.07730 0.13790 0.44520 -0.06600
C 	C 	0.33170 0.27610 0.62900 -0.08200
C 	C 	0.46520 0.25170 0.74490 -0.03800
C 	C 	0.29310 0.33610 0.47340 -0.08900
C 	C 	0.07380 0.22890 0.45010 -0.07000
C 	C 	0.41290 0.25070 0.71320 0.03800
C 	C 	0.13350 0.25520 0.46270 -0.08400
N 	N 	0.28590 0.35850 0.34020 -0.14100
N 	N 	0.22750 0.25000 0.47750 -0.15500
N 	N 	0.89930 0.08510 0.42360 -0.17900
N 	N 	0.41190 0.25000 0.66190 -0.13600
N 	N 	0.98170 0.14150 0.42740 -0.14200
N 	N 	0.33850 0.41490 0.31420 -0.17900
H 	H 	0.80320 0.05290 0.60530 0.05800
H 	H 	0.01860 0.11270 0.99050 -0.01800
H 	H 	0.94230 0.04070 0.88180 0.04100
H 	H 	0.62220 0.02810 0.50950 -0.01900
H 	H 	0.15650 0.25870 0.02020 0.01200
H 	H 	0.70020 0.90500 0.66860 0.05600
H 	H 	0.66010 0.95400 0.82970 0.05800
H 	H 	0.79870 0.12880 0.56950 0.02100
H 	H 	0.84180 0.98360 0.80020 0.05400
H 	H 	0.73850 0.13630 0.47980 0.01300
H 	H 	0.68340 0.04160 0.69980 0.05700
H 	H 	0.65890 0.06050 0.61820 0.04100
H 	H 	0.82600 0.03110 0.68370 0.06600
H 	H 	0.94760 0.19790 0.89470 0.05700
H 	H 	0.05930 0.22920 0.93050 0.02200
H 	H 	0.84740 0.14230 0.81630 0.06600
H 	H 	0.73640 0.03160 0.83140 0.05800
H 	H 	0.62430 0.83040 0.67030 0.05900
C 	C 	0.75710 0.03330 0.70000 0.09300
C 	C 	0.70690 0.04300 0.68030 -0.08900
C 	C 	0.63550 0.88550 0.75000 0.09500
C 	C 	0.66830 0.94440 0.79730 -0.07900
C 	C 	0.53750 0.78680 0.69970 0.03800
C 	C 	0.77880 0.04990 0.62370 -0.06800
C 	C 	0.69250 0.91550 0.70140 -0.07700
C 	C 	0.50680 0.75510 0.72030 -0.03800
C 	C 	0.75600 0.10960 0.54620 0.00100
C 	C 	0.53480 0.78650 0.77970 -0.03800
C 	C 	0.72260 0.11330 0.49630 -0.00400
C 	C 	0.72550 0.97550 0.75000 0.08500
C 	C 	0.65840 0.05360 0.51260 0.10000
C 	C 	0.95440 0.12530 0.89630 0.07300
C 	C 	0.86650 0.12170 0.82920 -0.08500
C 	C 	0.04100 0.14580 0.98740 0.09800
C 	C 	0.79250 0.03730 0.67080 -0.08500
C 	C 	0.86270 0.02660 0.81970 -0.08600
C 	C 	0.58710 0.83780 0.80030 0.03800
C 	C 	0.06340 0.20980 0.95380 -0.00200
C 	C 	0.69270 0.05480 0.63210 -0.06400
C 	C 	0.83330 0.05710 0.80000 0.09200
C 	C 	0.92620 0.15510 0.87630 -0.06700
C 	C 	0.72900 0.05810 0.60370 0.07600
C 	C 	0.71410 0.99110 0.79860 -0.08000
C 	C 	0.64710 0.87100 0.70270 -0.08100
C 	C 	0.92270 0.06060 0.86790 -0.06500
C 	C 	0.11700 0.22630 0.00370 -0.00100
N 	N 	0.77250 0.02250 0.75000 -0.15500
N 	N 	0.10070 0.18580 0.02430 -0.17800
N 	N 	0.66150 0.07640 0.47570 -0.17900
N 	N 	0.58810 0.83810 0.75000 -0.13500
N 	N 	0.01830 0.15980 0.94570 -0.13900
N 	N 	0.71410 0.07260 0.55430 -0.14100
H 	H 	0.10220 0.86370 0.34350 0.01300
H 	H 	0.40590 0.88730 0.87780 -0.01900
H 	H 	0.16990 0.87120 0.44070 0.02100
H 	H 	0.29520 0.09500 0.76360 0.05600
H 	H 	0.39780 0.74130 0.76150 0.01300
H 	H 	0.20510 0.85770 0.67400 0.06600
H 	H 	0.14180 0.95840 0.65820 0.05600
H 	H 	0.33010 0.77080 0.70130 0.02100
H 	H 	0.29490 0.96890 0.65260 0.06500
H 	H 	0.24970 0.80210 0.69680 0.05800
H 	H 	0.20480 0.96840 0.79980 0.05300
H 	H 	0.09410 0.97190 0.48140 -0.01900
H 	H 	0.09840 0.93950 0.55770 0.04100
H 	H 	0.20610 0.04600 0.87570 0.06100
H 	H 	0.25030 0.94710 0.55240 0.05800
H 	H 	0.29390 0.16960 0.83990 0.06000
H 	H 	0.35820 0.01640 0.81660 0.06000
H 	H 	0.40160 0.95930 0.84110 0.03900
C 	C 	0.22890 0.95010 0.57380 -0.06800
C 	C 	0.10480 0.94640 0.45900 0.10000
C 	C 	0.22380 0.96670 0.66670 0.09200
C 	C 	0.24830 0.21350 0.99320 -0.03900
C 	C 	0.35360 0.79020 0.74400 0.00100
C 	C 	0.25070 0.21320 0.91290 0.03800
C 	C 	0.36210 0.93940 0.80730 -0.06100
C 	C 	0.17090 0.94190 0.54560 0.07500
C 	C 	0.24930 0.16220 0.96250 0.03800
C 	C 	0.27620 0.94290 0.74290 0.09500
C 	C 	0.16390 0.95700 0.63730 -0.08900
C 	C 	0.25000 0.11450 0.86450 0.09800
C 	C 	0.25170 0.24490 0.96520 -0.03900
C 	C 	0.33610 0.97340 0.79310 -0.09500
C 	C 	0.27110 0.84490 0.72120 -0.06600
C 	C 	0.10930 0.88670 0.38300 -0.00400
C 	C 	0.22390 0.05560 0.85290 -0.08400
C 	C 	0.27700 0.08450 0.78590 -0.07500
C 	C 	0.24480 0.87830 0.70750 -0.08700
C 	C 	0.25000 0.02450 0.77450 0.08500
C 	C 	0.39520 0.85420 0.84160 0.10000
C 	C 	0.27610 0.12900 0.83170 -0.08300
C 	C 	0.14640 0.89040 0.43660 0.00100
C 	C 	0.25520 0.96270 0.63350 -0.08500
C 	C 	0.22300 0.00890 0.80750 -0.07100
C 	C 	0.39070 0.77370 0.77740 -0.00400
C 	C 	0.13790 0.94520 0.57730 -0.06500
C 	C 	0.32910 0.87470 0.77100 0.07300
N 	N 	0.35850 0.84020 0.78590 -0.14100
N 	N 	0.08510 0.92360 0.39930 -0.17900
N 	N 	0.25000 0.97750 0.72750 -0.15600
N 	N 	0.41490 0.81420 0.83850 -0.17900
N 	N 	0.14150 0.92740 0.48170 -0.14100
N 	N 	0.25000 0.16190 0.91190 -0.13600
H 	H 	0.20020 0.66860 0.90500 0.05500
H 	H 	0.44760 0.89470 0.19790 0.05800
H 	H 	0.16010 0.82970 0.95400 0.05900
H 	H 	0.30320 0.60530 0.05290 0.05800
H 	H 	0.18340 0.69980 0.04160 0.05700
H 	H 	0.44230 0.88180 0.04070 0.04200
H 	H 	0.32600 0.68370 0.03110 0.06600
H 	H 	0.23850 0.47980 0.13630 0.01300
H 	H 	0.23640 0.83140 0.03160 0.05800
H 	H 	0.55930 0.93050 0.22920 0.02200
H 	H 	0.29870 0.56950 0.12880 0.02100
H 	H 	0.34180 0.80020 0.98360 0.05400
H 	H 	0.51860 0.99050 0.11270 -0.01900
H 	H 	0.12220 0.50950 0.02810 -0.01900
H 	H 	0.34740 0.81630 0.14230 0.06500
H 	H 	0.65650 0.02020 0.25870 0.01200
H 	H 	0.15890 0.61820 0.06050 0.04100
H 	H 	0.12430 0.67030 0.83040 0.06000
C 	C 	0.15840 0.51260 0.05360 0.10000
C 	C 	0.22550 0.75000 0.97550 0.08500
C 	C 	0.13550 0.75000 0.88550 0.09600
C 	C 	0.16830 0.79730 0.94440 -0.08000
C 	C 	0.45440 0.89630 0.12530 0.07600
C 	C 	0.29250 0.67080 0.03730 -0.08500
C 	C 	0.22260 0.49630 0.11330 -0.00400
C 	C 	0.36650 0.82920 0.12170 -0.08400
C 	C 	0.61700 0.00370 0.22630 -0.00000
C 	C 	0.42620 0.87630 0.15510 -0.06900
C 	C 	0.27880 0.62370 0.04990 -0.06800
C 	C 	0.33330 0.80000 0.05710 0.09100
C 	C 	0.03480 0.77970 0.78650 -0.03800
C 	C 	0.20690 0.68030 0.04300 -0.08900
C 	C 	0.19270 0.63210 0.05480 -0.06400
C 	C 	0.56340 0.95380 0.20980 -0.00200
C 	C 	0.25710 0.70000 0.03330 0.09300
C 	C 	0.36270 0.81970 0.02660 -0.08400
C 	C 	0.21410 0.79860 0.99110 -0.08000
C 	C 	0.54100 0.98740 0.14580 0.09800
C 	C 	0.25600 0.54620 0.10960 0.00100
C 	C 	0.08710 0.80030 0.83780 0.03800
C 	C 	0.19250 0.70140 0.91550 -0.07600
C 	C 	0.42270 0.86790 0.06060 -0.06700
C 	C 	0.00680 0.72030 0.75510 -0.03700
C 	C 	0.22900 0.60370 0.05810 0.07600
C 	C 	0.03750 0.69970 0.78680 0.03900
C 	C 	0.14710 0.70270 0.87100 -0.08100
N 	N 	0.51830 0.94570 0.15980 -0.14000
N 	N 	0.21410 0.55430 0.07260 -0.14100
N 	N 	0.08810 0.75000 0.83810 -0.13500
N 	N 	0.60070 0.02430 0.18580 -0.17800
N 	N 	0.27250 0.75000 0.02250 -0.15500
N 	N 	0.16150 0.47570 0.07640 -0.17900
H 	H 	0.52020 0.15650 0.75870 0.01300
H 	H 	0.19980 0.68340 0.54160 0.05600
H 	H 	0.39470 0.94760 0.69790 0.05700
H 	H 	0.17030 0.62430 0.33040 0.06000
H 	H 	0.43050 0.05930 0.72920 0.02100
H 	H 	0.32970 0.66010 0.45400 0.06000
H 	H 	0.49050 0.01860 0.61270 -0.01800
H 	H 	0.16860 0.70020 0.40500 0.05600
H 	H 	0.00950 0.62220 0.52810 -0.01900
H 	H 	0.31630 0.84740 0.64230 0.06600
H 	H 	0.97980 0.73850 0.63630 0.01400
H 	H 	0.38180 0.94230 0.54070 0.04000
H 	H 	0.33140 0.73640 0.53160 0.05600
H 	H 	0.30020 0.84180 0.48360 0.05700
H 	H 	0.06950 0.79870 0.62880 0.02000
H 	H 	0.11820 0.65890 0.56050 0.04100
H 	H 	0.18370 0.82600 0.53110 0.06600
H 	H 	0.10530 0.80320 0.55290 0.05900
C 	C 	0.01260 0.65840 0.55360 0.10300
C 	C 	0.20270 0.64710 0.37100 -0.08200
C 	C 	0.27970 0.53480 0.28650 -0.03800
C 	C 	0.31970 0.86270 0.52660 -0.09000
C 	C 	0.45380 0.06340 0.70980 0.00100
C 	C 	0.30000 0.83330 0.55710 0.09300
C 	C 	0.04620 0.75600 0.60960 0.00500
C 	C 	0.37630 0.92620 0.65510 -0.06600
C 	C 	0.18030 0.70690 0.54300 -0.08900
C 	C 	0.25000 0.72550 0.47550 0.08500
C 	C 	0.99630 0.72260 0.61330 -0.00800
C 	C 	0.17080 0.79250 0.53730 -0.08500
C 	C 	0.13210 0.69270 0.55480 -0.06500
C 	C 	0.39630 0.95440 0.62530 0.07300
C 	C 	0.10370 0.72900 0.55810 0.07600
C 	C 	0.36790 0.92270 0.56060 -0.06300
C 	C 	0.32920 0.86650 0.62170 -0.08600
C 	C 	0.19970 0.53750 0.28680 0.03800
C 	C 	0.25000 0.63550 0.38550 0.09700
C 	C 	0.20140 0.69250 0.41550 -0.07600
C 	C 	0.12370 0.77880 0.54990 -0.06800
C 	C 	0.22030 0.50680 0.25510 -0.03800
C 	C 	0.29730 0.66830 0.44440 -0.08200
C 	C 	0.20000 0.75710 0.53330 0.09200
C 	C 	0.29860 0.71410 0.49110 -0.07600
C 	C 	0.50370 0.11700 0.72630 -0.00400
C 	C 	0.30030 0.58710 0.33780 0.03800
C 	C 	0.48740 0.04100 0.64580 0.10000
N 	N 	0.05430 0.71410 0.57260 -0.14200
N 	N 	0.52430 0.10070 0.68580 -0.17900
N 	N 	0.97570 0.66150 0.57640 -0.18000
N 	N 	0.25000 0.58810 0.33810 -0.13600
N 	N 	0.25000 0.77250 0.52250 -0.15500
N 	N 	0.44570 0.01830 0.65980 -0.14000
H 	H 	0.04070 0.38180 0.44230 0.04300
H 	H 	0.95400 0.32970 0.16010 0.05900
H 	H 	0.03160 0.33140 0.23640 0.05800
H 	H 	0.19790 0.39470 0.44760 0.05900
H 	H 	0.90500 0.16860 0.20020 0.05600
H 	H 	0.11270 0.49050 0.51860 -0.01900
H 	H 	0.03110 0.18370 0.32600 0.06600
H 	H 	0.02810 0.00950 0.12220 -0.01900
H 	H 	0.14230 0.31630 0.34740 0.06500
H 	H 	0.04160 0.19980 0.18340 0.05700
H 	H 	0.25870 0.52020 0.65650 0.01300
H 	H 	0.22920 0.43050 0.55930 0.02100
H 	H 	0.13630 0.97980 0.23850 0.01400
H 	H 	0.98360 0.30020 0.34180 0.05300
H 	H 	0.12880 0.06950 0.29870 0.02000
H 	H 	0.83040 0.17030 0.12430 0.06000
H 	H 	0.05290 0.10530 0.30320 0.05900
H 	H 	0.06050 0.11820 0.15890 0.04100
C 	C 	0.22630 0.50370 0.61700 -0.00400
C 	C 	0.99110 0.29860 0.21410 -0.08000
C 	C 	0.05810 0.10370 0.22900 0.07600
C 	C 	0.11330 0.99630 0.22260 -0.00800
C 	C 	0.78680 0.19970 0.03750 0.03900
C 	C 	0.97550 0.25000 0.22550 0.08500
C 	C 	0.02660 0.31970 0.36270 -0.08300
C 	C 	0.12170 0.32920 0.36650 -0.08300
C 	C 	0.03330 0.20000 0.25710 0.09300
C 	C 	0.20980 0.45380 0.56340 0.00100
C 	C 	0.04990 0.12370 0.27880 -0.06800
C 	C 	0.03730 0.17080 0.29250 -0.08500
C 	C 	0.05360 0.01260 0.15840 0.10300
C 	C 	0.14580 0.48740 0.54100 0.10000
C 	C 	0.83780 0.30030 0.08710 0.03800
C 	C 	0.75510 0.22030 0.00680 -0.03700
C 	C 	0.05480 0.13210 0.19270 -0.06500
C 	C 	0.12530 0.39630 0.45440 0.07700
C 	C 	0.91550 0.20140 0.19250 -0.07700
C 	C 	0.78650 0.27970 0.03480 -0.03800
C 	C 	0.06060 0.36790 0.42270 -0.06800
C 	C 	0.04300 0.18030 0.20690 -0.08900
C 	C 	0.94440 0.29730 0.16830 -0.07900
C 	C 	0.87100 0.20270 0.14710 -0.08100
C 	C 	0.88550 0.25000 0.13550 0.09600
C 	C 	0.15510 0.37630 0.42620 -0.07000
C 	C 	0.10960 0.04620 0.25600 0.00500
C 	C 	0.05710 0.30000 0.33330 0.09000
N 	N 	0.15980 0.44570 0.51830 -0.14100
N 	N 	0.07260 0.05430 0.21410 -0.14200
N 	N 	0.07640 0.97570 0.16150 -0.18000
N 	N 	0.18580 0.52430 0.60070 -0.17900
N 	N 	0.83810 0.25000 0.08810 -0.13500
N 	N 	0.02250 0.25000 0.27250 -0.15400
H 	H 	0.72920 0.55930 0.43050 0.02100
H 	H 	0.75870 0.65650 0.52020 0.01300
H 	H 	0.54160 0.18340 0.19980 0.05600
H 	H 	0.53110 0.32600 0.18370 0.06600
H 	H 	0.61270 0.51860 0.49050 -0.01900
H 	H 	0.52810 0.12220 0.00950 -0.01900
H 	H 	0.69790 0.44760 0.39470 0.05800
H 	H 	0.63630 0.23850 0.97980 0.01400
H 	H 	0.56050 0.15890 0.11820 0.04100
H 	H 	0.45400 0.16010 0.32970 0.06000
H 	H 	0.33040 0.12430 0.17030 0.06000
H 	H 	0.53160 0.23640 0.33140 0.05500
H 	H 	0.40500 0.20020 0.16860 0.05600
H 	H 	0.48360 0.34180 0.30020 0.05600
H 	H 	0.54070 0.44230 0.38180 0.04100
H 	H 	0.62880 0.29870 0.06950 0.02000
H 	H 	0.64230 0.34740 0.31630 0.06600
H 	H 	0.55290 0.30320 0.10530 0.05900
C 	C 	0.38550 0.13550 0.25000 0.09700
C 	C 	0.55360 0.15840 0.01260 0.10300
C 	C 	0.37100 0.14710 0.20270 -0.08200
C 	C 	0.28680 0.03750 0.19970 0.03900
C 	C 	0.53330 0.25710 0.20000 0.09200
C 	C 	0.61330 0.22260 0.99630 -0.00800
C 	C 	0.33780 0.08710 0.30030 0.03800
C 	C 	0.55480 0.19270 0.13210 -0.06500
C 	C 	0.49110 0.21410 0.29860 -0.07600
C 	C 	0.54300 0.20690 0.18030 -0.08900
C 	C 	0.62530 0.45440 0.39630 0.07500
C 	C 	0.72630 0.61700 0.50370 -0.00400
C 	C 	0.60960 0.25600 0.04620 0.00500
C 	C 	0.52660 0.36270 0.31970 -0.08900
C 	C 	0.53730 0.29250 0.17080 -0.08500
C 	C 	0.64580 0.54100 0.48740 0.10000
C 	C 	0.47550 0.22550 0.25000 0.08500
C 	C 	0.54990 0.27880 0.12370 -0.06800
C 	C 	0.41550 0.19250 0.20140 -0.07600
C 	C 	0.28650 0.03480 0.27970 -0.03800
C 	C 	0.55810 0.22900 0.10370 0.07600
C 	C 	0.62170 0.36650 0.32920 -0.08500
C 	C 	0.25510 0.00680 0.22030 -0.03700
C 	C 	0.70980 0.56340 0.45380 0.00100
C 	C 	0.56060 0.42270 0.36790 -0.06400
C 	C 	0.55710 0.33330 0.30000 0.09300
C 	C 	0.65510 0.42620 0.37630 -0.06800
C 	C 	0.44440 0.16830 0.29730 -0.08200
N 	N 	0.57260 0.21410 0.05430 -0.14200
N 	N 	0.33810 0.08810 0.25000 -0.13600
N 	N 	0.68580 0.60070 0.52430 -0.17900
N 	N 	0.57640 0.16150 0.97570 -0.18000
N 	N 	0.65980 0.51830 0.44570 -0.14100
N 	N 	0.52250 0.27250 0.25000 -0.15500
H 	H 	0.66960 0.79390 0.33990 0.06000
H 	H 	0.45930 0.90160 0.34110 0.04000
H 	H 	0.46840 0.70480 0.29980 0.05600
H 	H 	0.35770 0.70510 0.17400 0.06600
H 	H 	0.27080 0.83010 0.20130 0.02100
H 	H 	0.59500 0.79520 0.26360 0.05500
H 	H 	0.36370 0.60220 0.84350 0.01300
H 	H 	0.38730 0.90590 0.37780 -0.01900
H 	H 	0.43950 0.59840 0.05770 0.04200
H 	H 	0.44710 0.75030 0.05240 0.05900
H 	H 	0.30210 0.74970 0.19680 0.05800
H 	H 	0.37120 0.66990 0.94070 0.02000
H 	H 	0.54600 0.70610 0.37570 0.06000
H 	H 	0.51640 0.85820 0.31660 0.05600
H 	H 	0.46890 0.79490 0.15260 0.06500
H 	H 	0.47190 0.59410 0.98140 -0.02000
H 	H 	0.24130 0.89780 0.26150 0.01300
H 	H 	0.45840 0.64180 0.15820 0.05600
C 	C 	0.46270 0.75520 0.13350 -0.08400
C 	C 	0.61450 0.75000 0.36450 0.09700
C 	C 	0.45700 0.66390 0.13730 -0.08800
C 	C 	0.66220 0.74930 0.46250 0.03800
C 	C 	0.52450 0.75000 0.27450 0.08500
C 	C 	0.37470 0.82910 0.27100 0.07500
C 	C 	0.44640 0.60480 0.95900 0.10000
C 	C 	0.71350 0.74830 0.49320 -0.03800
C 	C 	0.39040 0.64640 0.93660 0.00100
C 	C 	0.34490 0.77110 0.22120 -0.06800
C 	C 	0.58450 0.77700 0.28590 -0.07600
C 	C 	0.35420 0.89520 0.34160 0.10000
C 	C 	0.29020 0.85360 0.24400 0.00100
C 	C 	0.47340 0.83610 0.29310 -0.08900
C 	C 	0.44520 0.63790 0.07730 -0.06600
C 	C 	0.62900 0.77610 0.33170 -0.08200
C 	C 	0.44190 0.67090 0.04560 0.07800
C 	C 	0.50890 0.72300 0.30750 -0.07600
C 	C 	0.55560 0.72390 0.35290 -0.08200
C 	C 	0.27370 0.89070 0.27740 -0.00400
C 	C 	0.46670 0.72380 0.16670 0.09200
C 	C 	0.45010 0.72890 0.07380 -0.06900
C 	C 	0.71320 0.75070 0.41290 0.03800
C 	C 	0.43940 0.86210 0.30730 -0.06400
C 	C 	0.38670 0.60930 0.88300 -0.00400
C 	C 	0.44290 0.77620 0.24290 0.09300
C 	C 	0.74490 0.75170 0.46520 -0.03800
C 	C 	0.37830 0.74480 0.20750 -0.08500
N 	N 	0.66190 0.75000 0.41190 -0.13600
N 	N 	0.34020 0.85850 0.28590 -0.14100
N 	N 	0.31420 0.91490 0.33850 -0.17900
N 	N 	0.47750 0.75000 0.22750 -0.15500
N 	N 	0.42740 0.64150 0.98170 -0.14200
N 	N 	0.42360 0.58510 0.89930 -0.17900
H 	H 	0.44070 0.37120 0.16990 0.02100
H 	H 	0.79980 0.46840 0.20480 0.05600
H 	H 	0.87780 0.38730 0.40590 -0.01900
H 	H 	0.70130 0.27080 0.33010 0.02100
H 	H 	0.34350 0.36370 0.10220 0.01300
H 	H 	0.55770 0.43950 0.09840 0.04100
H 	H 	0.67400 0.35770 0.20510 0.06600
H 	H 	0.84110 0.45930 0.40160 0.04100
H 	H 	0.65820 0.45840 0.14180 0.05700
H 	H 	0.76150 0.24130 0.39780 0.01300
H 	H 	0.48140 0.47190 0.09410 -0.01900
H 	H 	0.55240 0.44710 0.25030 0.05800
H 	H 	0.65260 0.46890 0.29490 0.06600
H 	H 	0.83990 0.66960 0.29390 0.06000
H 	H 	0.69680 0.30210 0.24970 0.05800
H 	H 	0.87570 0.54600 0.20610 0.06000
H 	H 	0.76360 0.59500 0.29520 0.05600
H 	H 	0.81660 0.51640 0.35820 0.05600
C 	C 	0.83170 0.62900 0.27610 -0.08100
C 	C 	0.77100 0.37470 0.32910 0.07500
C 	C 	0.63730 0.45700 0.16390 -0.08900
C 	C 	0.84160 0.35420 0.39520 0.10000
C 	C 	0.74290 0.44290 0.27620 0.09300
C 	C 	0.80750 0.50890 0.22300 -0.07600
C 	C 	0.96250 0.66220 0.24930 0.03800
C 	C 	0.91290 0.71320 0.25070 0.03800
C 	C 	0.74400 0.29020 0.35360 0.00100
C 	C 	0.77450 0.52450 0.25000 0.08500
C 	C 	0.99320 0.71350 0.24830 -0.03900
C 	C 	0.66670 0.46670 0.22380 0.09300
C 	C 	0.54560 0.44190 0.17090 0.07500
C 	C 	0.80730 0.43940 0.36210 -0.06400
C 	C 	0.57380 0.45010 0.22890 -0.06800
C 	C 	0.70750 0.37830 0.24480 -0.08500
C 	C 	0.72120 0.34490 0.27110 -0.06800
C 	C 	0.96520 0.74490 0.25170 -0.03900
C 	C 	0.85290 0.55560 0.22390 -0.08100
C 	C 	0.63350 0.46270 0.25520 -0.08500
C 	C 	0.78590 0.58450 0.27700 -0.07600
C 	C 	0.79310 0.47340 0.33610 -0.08900
C 	C 	0.77740 0.27370 0.39070 -0.00400
C 	C 	0.45900 0.44640 0.10480 0.10000
C 	C 	0.86450 0.61450 0.25000 0.09600
C 	C 	0.43660 0.39040 0.14640 0.00100
C 	C 	0.38300 0.38670 0.10930 -0.00400
C 	C 	0.57730 0.44520 0.13790 -0.06500
N 	N 	0.72750 0.47750 0.25000 -0.15500
N 	N 	0.83850 0.31420 0.41490 -0.17900
N 	N 	0.39930 0.42360 0.08510 -0.17900
N 	N 	0.91190 0.66190 0.25000 -0.13600
N 	N 	0.78590 0.34020 0.35850 -0.14100
N 	N 	0.48170 0.42740 0.14150 -0.14100
H 	H 	0.66860 0.40500 0.70020 0.05600
H 	H 	0.50950 0.52810 0.62220 -0.01900
H 	H 	0.69980 0.54160 0.68340 0.05600
H 	H 	0.61820 0.56050 0.65890 0.04100
H 	H 	0.88180 0.54070 0.94230 0.03900
H 	H 	0.83140 0.53160 0.73640 0.05500
H 	H 	0.02020 0.75870 0.15650 0.01200
H 	H 	0.93050 0.72920 0.05930 0.02200
H 	H 	0.47980 0.63630 0.73850 0.01300
H 	H 	0.99050 0.61270 0.01860 -0.01800
H 	H 	0.89470 0.69790 0.94760 0.05700
H 	H 	0.80020 0.48360 0.84180 0.05700
H 	H 	0.67030 0.33040 0.62430 0.06000
H 	H 	0.60530 0.55290 0.80320 0.05800
H 	H 	0.81630 0.64230 0.84740 0.06600
H 	H 	0.56950 0.62880 0.79870 0.02100
H 	H 	0.68370 0.53110 0.82600 0.06600
H 	H 	0.82970 0.45400 0.66010 0.06000
C 	C 	0.95380 0.70980 0.06340 -0.00100
C 	C 	0.80030 0.33780 0.58710 0.03800
C 	C 	0.62370 0.54990 0.77880 -0.06800
C 	C 	0.77970 0.28650 0.53480 -0.03800
C 	C 	0.75000 0.47550 0.72550 0.08500
C 	C 	0.98740 0.64580 0.04100 0.09800
C 	C 	0.70140 0.41550 0.69250 -0.07600
C 	C 	0.86790 0.56060 0.92270 -0.06300
C 	C 	0.68030 0.54300 0.70690 -0.08900
C 	C 	0.79860 0.49110 0.71410 -0.07600
C 	C 	0.69970 0.28680 0.53750 0.03800
C 	C 	0.75000 0.38550 0.63550 0.09600
C 	C 	0.80000 0.55710 0.83330 0.09400
C 	C 	0.89630 0.62530 0.95440 0.07200
C 	C 	0.79730 0.44440 0.66830 -0.08200
C 	C 	0.87630 0.65510 0.92620 -0.06600
C 	C 	0.72030 0.25510 0.50680 -0.03800
C 	C 	0.60370 0.55810 0.72900 0.07500
C 	C 	0.70270 0.37100 0.64710 -0.08200
C 	C 	0.81970 0.52660 0.86270 -0.09100
C 	C 	0.82920 0.62170 0.86650 -0.08700
C 	C 	0.49630 0.61330 0.72260 -0.00400
C 	C 	0.67080 0.53730 0.79250 -0.08500
C 	C 	0.63210 0.55480 0.69270 -0.06400
C 	C 	0.51260 0.55360 0.65840 0.10000
C 	C 	0.54620 0.60960 0.75600 0.00100
C 	C 	0.00370 0.72630 0.11700 -0.00100
C 	C 	0.70000 0.53330 0.75710 0.09300
N 	N 	0.02430 0.68580 0.10070 -0.17800
N 	N 	0.75000 0.52250 0.77250 -0.15600
N 	N 	0.55430 0.57260 0.71410 -0.14100
N 	N 	0.75000 0.33810 0.58810 -0.13600
N 	N 	0.47570 0.57640 0.66150 -0.17900
N 	N 	0.94570 0.65980 0.01830 -0.13900
H 	H 	0.85770 0.17400 0.70510 0.06700
H 	H 	0.86370 0.84350 0.60220 0.01300
H 	H 	0.96840 0.29980 0.70480 0.05200
H 	H 	0.01640 0.31660 0.85820 0.06000
H 	H 	0.16960 0.33990 0.79390 0.06000
H 	H 	0.94710 0.05240 0.75030 0.05900
H 	H 	0.09500 0.26360 0.79520 0.05500
H 	H 	0.04600 0.37570 0.70610 0.06100
H 	H 	0.74130 0.26150 0.89780 0.01300
H 	H 	0.96890 0.15260 0.79490 0.06500
H 	H 	0.77080 0.20130 0.83010 0.02100
H 	H 	0.93950 0.05770 0.59840 0.04100
H 	H 	0.97190 0.98140 0.59410 -0.02000
H 	H 	0.87120 0.94070 0.66990 0.02100
H 	H 	0.80210 0.19680 0.74970 0.05700
H 	H 	0.95930 0.34110 0.90160 0.03800
H 	H 	0.88730 0.37780 0.90590 -0.01900
H 	H 	0.95840 0.15820 0.64180 0.05500
C 	C 	0.24490 0.46520 0.75170 -0.03800
C 	C 	0.95700 0.13730 0.66390 -0.08800
C 	C 	0.94190 0.04560 0.67090 0.07700
C 	C 	0.02450 0.27450 0.75000 0.08500
C 	C 	0.11450 0.36450 0.75000 0.09800
C 	C 	0.08450 0.28590 0.77700 -0.07500
C 	C 	0.84490 0.22120 0.77110 -0.06500
C 	C 	0.85420 0.34160 0.89520 0.10000
C 	C 	0.16220 0.46250 0.74930 0.03800
C 	C 	0.12900 0.33170 0.77610 -0.08300
C 	C 	0.05560 0.35290 0.72390 -0.08500
C 	C 	0.96270 0.13350 0.75520 -0.08500
C 	C 	0.21350 0.49320 0.74830 -0.03800
C 	C 	0.96670 0.16670 0.72380 0.09100
C 	C 	0.21320 0.41290 0.75070 0.03800
C 	C 	0.93940 0.30730 0.86210 -0.06000
C 	C 	0.88670 0.88300 0.60930 -0.00400
C 	C 	0.87470 0.27100 0.82910 0.07300
C 	C 	0.97340 0.29310 0.83610 -0.09700
C 	C 	0.94290 0.24290 0.77620 0.09500
C 	C 	0.79020 0.24400 0.85360 0.00100
C 	C 	0.89040 0.93660 0.64640 0.00100
C 	C 	0.95010 0.07380 0.72890 -0.06900
C 	C 	0.94640 0.95900 0.60480 0.10000
C 	C 	0.00890 0.30750 0.72300 -0.07000
C 	C 	0.87830 0.20750 0.74480 -0.08800
C 	C 	0.77370 0.27740 0.89070 -0.00400
C 	C 	0.94520 0.07730 0.63790 -0.06600
N 	N 	0.16190 0.41190 0.75000 -0.13600
N 	N 	0.97750 0.22750 0.75000 -0.15700
N 	N 	0.92740 0.98170 0.64150 -0.14200
N 	N 	0.81420 0.33850 0.91490 -0.17900
N 	N 	0.84020 0.28590 0.85850 -0.14100
N 	N 	0.92360 0.89930 0.58510 -0.17900
H 	H 	0.79490 0.65260 0.96890 0.06500
H 	H 	0.89780 0.76150 0.74130 0.01300
H 	H 	0.90160 0.84110 0.95930 0.03800
H 	H 	0.70480 0.79980 0.96840 0.05300
H 	H 	0.64180 0.65820 0.95840 0.05600
H 	H 	0.60220 0.34350 0.86370 0.01300
H 	H 	0.79390 0.83990 0.16960 0.06000
H 	H 	0.66990 0.44070 0.87120 0.02100
H 	H 	0.83010 0.70130 0.77080 0.02100
H 	H 	0.90590 0.87780 0.88730 -0.02000
H 	H 	0.59410 0.48140 0.97190 -0.02000
H 	H 	0.74970 0.69680 0.80210 0.05700
H 	H 	0.59840 0.55770 0.93950 0.04000
H 	H 	0.70510 0.67400 0.85770 0.06700
H 	H 	0.85820 0.81660 0.01640 0.06000
H 	H 	0.70610 0.87570 0.04600 0.06100
H 	H 	0.75030 0.55240 0.94710 0.05800
H 	H 	0.79520 0.76360 0.09500 0.05600
C 	C 	0.74480 0.70750 0.87830 -0.08800
C 	C 	0.64640 0.43660 0.89040 0.00100
C 	C 	0.75000 0.86450 0.11450 0.09800
C 	C 	0.77620 0.74290 0.94290 0.09500
C 	C 	0.89520 0.84160 0.85420 0.10000
C 	C 	0.89070 0.77740 0.77370 -0.00400
C 	C 	0.82910 0.77100 0.87470 0.07300
C 	C 	0.75000 0.77450 0.02450 0.08500
C 	C 	0.75520 0.63350 0.96270 -0.08600
C 	C 	0.75070 0.91290 0.21320 0.03800
C 	C 	0.60480 0.45900 0.94640 0.10000
C 	C 	0.72890 0.57380 0.95010 -0.06800
C 	C 	0.75170 0.96520 0.24490 -0.03900
C 	C 	0.60930 0.38300 0.88670 -0.00400
C 	C 	0.77610 0.83170 0.12900 -0.08300
C 	C 	0.77110 0.72120 0.84490 -0.06600
C 	C 	0.77700 0.78590 0.08450 -0.07500
C 	C 	0.66390 0.63730 0.95700 -0.08900
C 	C 	0.83610 0.79310 0.97340 -0.09600
C 	C 	0.85360 0.74400 0.79020 0.00100
C 	C 	0.86210 0.80730 0.93940 -0.06000
C 	C 	0.74830 0.99320 0.21350 -0.03900
C 	C 	0.67090 0.54560 0.94190 0.07500
C 	C 	0.72380 0.66670 0.96670 0.09200
C 	C 	0.63790 0.57730 0.94520 -0.06500
C 	C 	0.72390 0.85290 0.05560 -0.08400
C 	C 	0.72300 0.80750 0.00890 -0.07100
C 	C 	0.74930 0.96250 0.16220 0.03800
N 	N 	0.85850 0.78590 0.84020 -0.14100
N 	N 	0.91490 0.83850 0.81420 -0.17900
N 	N 	0.58510 0.39930 0.92360 -0.17900
N 	N 	0.75000 0.72750 0.97750 -0.15700
N 	N 	0.75000 0.91190 0.16190 -0.13600
N 	N 	0.64150 0.48170 0.92740 -0.14100
