data_crystal

_cell_length_a 14.43000
_cell_length_b 21.69020
_cell_length_c 30.64500
_cell_angle_alpha 86.03560
_cell_angle_beta  78.00400
_cell_angle_gamma 70.57100

_symmetry_space_group_name_	'P 1'
_symmetry_space_group_name_H-M	'P 1'

loop_
_symmetry_equiv_pos_as_xyz
  x,y,z

loop_
_atom_site_label
_atom_site_type_symbol
_atom_site_fract_x
_atom_site_fract_y
_atom_site_fract_z
_atom_site_charge
Cd	Cd	0.66101 0.67798 0.50000 1.21100
Cd	Cd	0.47665 0.55792 0.50652 1.20800
Cd	Cd	0.95278 0.09444 -0.00000 1.22200
Cd	Cd	0.74652 0.50696 0.50000 1.23800
Cd	Cd	0.96543 0.55792 0.49348 1.20200
Cd	Cd	0.03802 0.92396 -0.00000 1.18500
Cd	Cd	0.22191 0.04578 0.99494 1.22200
Cd	Cd	0.73231 0.04578 0.00506 1.20500
Ni	Ni	0.47276 0.70768 0.77323 1.10000
Ni	Ni	0.88044 0.89492 0.27112 1.09300
Ni	Ni	0.69957 0.39226 0.77863 1.08700
Ni	Ni	0.90817 0.39226 0.22137 1.07400
Ni	Ni	0.99686 0.21248 0.72115 1.08300
Ni	Ni	0.79066 0.21248 0.27885 1.09700
Ni	Ni	0.81956 0.70768 0.22677 1.09800
Ni	Ni	0.22464 0.89492 0.72888 1.09500
H 	H 	0.43830 0.73920 0.24520 0.37600
H 	H 	0.30590 0.66780 0.67210 0.07000
H 	H 	0.02630 0.66780 0.32790 0.05500
H 	H 	0.70100 0.83040 0.34050 -0.02400
H 	H 	0.18110 0.78500 0.35360 0.42100
H 	H 	0.43300 0.30100 0.96220 0.34700
H 	H 	0.85710 0.13160 0.73260 -0.02200
H 	H 	0.31930 0.25860 0.73760 0.43100
H 	H 	0.41220 0.11480 0.79360 0.44500
H 	H 	0.18090 0.43600 0.09690 0.35200
H 	H 	0.90100 0.23720 0.10910 -0.00600
H 	H 	0.74520 0.99500 0.80880 0.51200
H 	H 	0.06610 0.94420 0.38170 0.35100
H 	H 	0.18150 0.35500 0.24140 0.51500
H 	H 	0.30380 0.45760 0.26070 0.50400
H 	H 	0.09540 0.98100 0.88680 -0.03700
H 	H 	0.60840 0.77340 0.95390 0.41200
H 	H 	0.22960 0.34840 0.28360 0.49600
H 	H 	0.13870 0.71700 0.17430 0.06200
H 	H 	0.64390 0.99000 0.18990 0.08100
H 	H 	0.23860 0.45760 0.73930 0.52000
H 	H 	0.16840 0.24600 0.22910 0.00200
H 	H 	0.18490 0.11540 0.25150 0.00900
H 	H 	0.25980 0.99500 0.19120 0.52300
H 	H 	0.19460 0.97080 0.13360 -0.09400
H 	H 	0.79360 0.75760 0.70790 0.38200
H 	H 	0.47210 0.42140 0.92840 0.38100
H 	H 	0.03090 0.85320 0.45890 0.42400
H 	H 	0.95490 0.95360 0.72270 0.45200
H 	H 	0.36000 0.96820 0.73880 -0.00400
H 	H 	0.68410 0.48940 0.62280 -0.00400
H 	H 	0.73110 0.63600 0.78150 0.39800
H 	H 	0.40090 0.25120 0.44610 0.32300
H 	H 	0.27330 0.84200 0.24150 0.49000
H 	H 	0.42630 0.46040 0.79340 0.50500
H 	H 	0.60590 0.57500 0.24000 0.40500
H 	H 	0.81910 0.57500 0.76000 0.39700
H 	H 	0.82250 0.73920 0.75480 0.36400
H 	H 	0.59320 0.67780 0.92230 0.43900
H 	H 	0.16560 0.84220 0.23930 0.52800
H 	H 	0.98320 0.78640 0.15900 -0.04200
H 	H 	0.27310 0.26700 0.13910 0.35000
H 	H 	0.01980 0.46640 0.77680 -0.03600
H 	H 	0.95430 0.74800 0.27840 0.02000
H 	H 	0.36610 0.99000 0.81010 0.08100
H 	H 	0.45700 0.65100 0.66620 0.00700
H 	H 	0.43940 0.25400 0.92430 0.34700
H 	H 	0.77520 0.74760 0.39470 -0.03800
H 	H 	0.19930 0.95380 0.27890 0.45400
H 	H 	0.47300 0.11480 0.20640 0.44900
H 	H 	0.00790 0.75880 0.44270 -0.05100
H 	H 	0.71340 0.22240 0.68630 0.04300
H 	H 	0.09940 0.10680 0.19690 0.02600
H 	H 	0.51380 0.46640 0.22320 -0.00700
H 	H 	0.79270 0.29740 0.66280 -0.02400
H 	H 	0.23290 0.96080 0.83340 -0.01900
H 	H 	0.21490 0.20600 0.26850 -0.01500
H 	H 	0.98980 0.93400 0.35560 0.34100
H 	H 	0.86100 0.01140 0.74430 0.42200
H 	H 	0.46410 0.89280 0.26760 -0.00300
H 	H 	0.73870 0.76200 0.84190 0.41200
H 	H 	0.56060 0.83840 0.69440 0.04900
H 	H 	0.99220 0.84220 0.76070 0.49200
H 	H 	0.42210 0.25860 0.26240 0.43700
H 	H 	0.63290 0.63600 0.21850 0.40500
H 	H 	0.91440 0.48380 0.70680 0.03000
H 	H 	0.22150 0.46500 0.19980 0.46200
H 	H 	0.07410 0.61660 0.28910 0.01700
H 	H 	0.08160 0.42640 0.12380 0.38700
H 	H 	0.13720 0.77060 0.78750 0.04400
H 	H 	0.92000 0.35380 0.72560 -0.00200
H 	H 	0.53850 0.74780 0.25130 0.41200
H 	H 	0.23330 0.75880 0.55730 -0.09500
H 	H 	0.27830 0.32400 0.55240 0.34900
H 	H 	0.48050 0.26820 0.46650 0.33000
H 	H 	0.49930 0.76200 0.15810 0.40000
H 	H 	0.26600 0.30100 0.03780 0.31900
H 	H 	0.42200 0.34840 0.71640 0.50600
H 	H 	0.82650 0.48940 0.37720 -0.00100
H 	H 	0.94300 0.65620 0.67480 0.37200
H 	H 	0.39140 0.64080 0.27740 0.39100
H 	H 	0.79380 0.10680 0.80310 0.04700
H 	H 	0.29370 0.33340 0.13970 0.33200
H 	H 	0.58170 0.77020 0.18130 0.43800
H 	H 	0.06420 0.22240 0.31370 0.05300
H 	H 	0.58100 0.24280 0.94610 -0.06800
H 	H 	0.00340 0.86380 0.56310 0.41100
H 	H 	0.58560 0.24600 0.77090 0.00800
H 	H 	0.26280 0.14940 0.70890 0.48800
H 	H 	0.39770 0.32400 0.44760 0.33700
H 	H 	0.53750 0.37360 0.29350 0.02900
H 	H 	0.60100 0.83840 0.30560 0.04900
H 	H 	0.60180 0.48380 0.29320 0.03700
H 	H 	0.36550 0.18360 0.81670 0.44100
H 	H 	0.55870 0.09360 0.27340 0.47200
H 	H 	0.57350 0.91440 0.30940 0.04900
H 	H 	0.23040 0.78640 0.84100 -0.02300
H 	H 	0.63080 0.66520 0.10320 0.40000
H 	H 	0.41250 0.91460 0.81990 0.08300
H 	H 	0.76280 0.92720 0.83290 0.48800
H 	H 	0.12830 0.72980 0.29570 0.05500
H 	H 	0.26990 0.51580 0.71520 0.53200
H 	H 	0.97940 0.39100 0.82460 0.10400
H 	H 	0.38310 0.43600 0.90310 0.36700
H 	H 	0.64310 0.89280 0.73240 -0.00300
H 	H 	0.47240 0.84820 0.93560 -0.08000
H 	H 	0.04160 0.28820 0.28690 0.05300
H 	H 	0.84690 0.95380 0.72110 0.42900
H 	H 	0.83460 0.97080 0.86640 -0.10400
H 	H 	0.49200 0.42640 0.87620 0.39600
H 	H 	0.72900 0.67780 0.07770 0.41100
H 	H 	0.51630 0.61540 0.35940 -0.07200
H 	H 	0.60570 0.62240 0.61180 -0.00400
H 	H 	0.23370 0.14020 0.20630 0.00700
H 	H 	0.08890 0.37360 0.70650 0.04600
H 	H 	0.46290 0.58760 0.30360 0.40500
H 	H 	0.62610 0.14020 0.79370 -0.00800
H 	H 	0.85180 0.45140 0.79060 -0.04100
H 	H 	0.47500 0.15400 0.29820 0.45500
H 	H 	0.24760 0.17700 0.58150 0.31600
H 	H 	0.53270 0.62620 0.21350 0.38200
H 	H 	0.14430 0.71700 0.82570 0.04300
H 	H 	0.25030 0.27200 0.78510 0.44300
H 	H 	0.88470 0.84200 0.75850 0.46700
H 	H 	0.08610 0.44640 0.70140 0.03400
H 	H 	0.52260 0.76200 0.07550 0.37600
H 	H 	0.59220 0.85080 0.76690 0.01000
H 	H 	0.11330 0.46040 0.20660 0.49700
H 	H 	0.67940 0.84820 0.06440 -0.08600
H 	H 	0.47940 0.98520 0.22510 -0.00300
H 	H 	0.24910 0.33320 0.64200 0.35100
H 	H 	0.72620 0.35380 0.27440 -0.00100
H 	H 	0.09150 0.95360 0.27730 0.49400
H 	H 	0.30660 0.25400 0.07570 0.32500
H 	H 	0.95190 0.85300 0.64340 0.33700
H 	H 	0.98970 0.94420 0.61830 0.35400
H 	H 	0.50550 0.27860 0.32950 0.35300
H 	H 	0.11590 0.85320 0.54110 0.41200
H 	H 	0.48330 0.18360 0.39680 0.29200
H 	H 	0.41770 0.33320 0.35800 0.34100
H 	H 	0.17620 0.24280 0.05390 -0.06900
H 	H 	0.09570 0.94420 0.59260 0.38700
H 	H 	0.44880 0.75760 0.29210 0.39300
H 	H 	0.33310 0.18360 0.60320 0.30300
H 	H 	0.63120 0.82960 0.92320 0.42000
H 	H 	0.41400 0.26180 0.35860 0.32400
H 	H 	0.03390 0.78500 0.64640 0.38600
H 	H 	0.71370 0.74780 0.74870 0.40200
H 	H 	0.40080 0.65620 0.32520 0.39400
H 	H 	0.12320 0.79380 0.43850 0.42600
H 	H 	0.80360 0.36180 0.39830 -0.01000
H 	H 	0.80630 0.96080 0.16660 -0.01600
H 	H 	0.62960 0.39100 0.17540 0.05000
H 	H 	0.12890 0.52260 0.22260 0.48000
H 	H 	0.47990 0.32520 0.83180 0.36800
H 	H 	0.48260 0.40320 0.22690 -0.02900
H 	H 	0.14400 0.65740 0.70040 0.01400
H 	H 	0.78810 0.32920 0.15430 -0.01600
H 	H 	0.11610 0.36280 0.55610 -0.08700
H 	H 	0.25130 0.26820 0.53350 0.34500
H 	H 	0.96780 0.64080 0.72260 0.36600
H 	H 	0.61810 0.42580 0.32770 0.06500
H 	H 	0.52110 0.36280 0.44390 -0.06200
H 	H 	0.71280 0.66600 0.12940 0.43300
H 	H 	0.47720 0.74760 0.60530 -0.04300
H 	H 	0.10650 0.42140 0.07160 0.36800
H 	H 	0.77190 0.62240 0.38820 -0.00500
H 	H 	0.28540 0.36540 0.23720 0.48100
H 	H 	0.13280 0.86380 0.43690 0.40700
H 	H 	0.53010 0.26340 0.25600 0.46700
H 	H 	0.20120 0.63760 0.22500 -0.01700
H 	H 	0.92360 0.98100 0.11320 -0.01200
H 	H 	0.46750 0.44640 0.29860 0.01400
H 	H 	0.34770 0.09360 0.72660 0.46800
H 	H 	0.57910 0.20600 0.73150 -0.00800
H 	H 	0.02620 0.84340 0.67590 0.39700
H 	H 	0.30930 0.61660 0.71090 0.03900
H 	H 	0.42890 0.83440 0.75300 -0.02500
H 	H 	0.67290 0.91460 0.18010 0.08300
H 	H 	0.00170 0.12280 0.87900 -0.02000
H 	H 	0.06240 0.69500 0.77230 -0.00000
H 	H 	0.73670 0.83440 0.24700 -0.02500
H 	H 	0.38850 0.17560 0.23040 0.43800
H 	H 	0.11460 0.48220 0.34700 -0.09800
H 	H 	0.53920 0.82960 0.07680 0.39600
H 	H 	0.24260 0.69500 0.22770 -0.03300
H 	H 	0.84110 0.62620 0.78650 0.37000
H 	H 	0.32420 0.26180 0.64140 0.33300
H 	H 	0.13040 0.84340 0.32410 0.43300
H 	H 	0.31350 0.46500 0.80020 0.47500
H 	H 	0.87550 0.12280 0.12100 -0.05600
H 	H 	0.95610 0.42580 0.67230 0.05400
H 	H 	0.70400 0.66520 0.89680 0.42100
H 	H 	0.91920 0.83300 0.80440 0.47700
H 	H 	0.07730 0.18140 0.18510 0.05900
H 	H 	0.01130 0.13160 0.26740 0.03300
H 	H 	0.14190 0.72980 0.70430 0.03300
H 	H 	0.33630 0.31740 0.06470 0.30800
H 	H 	0.34630 0.31740 0.93530 0.33600
H 	H 	0.86830 0.61540 0.64060 -0.07400
H 	H 	0.34790 0.25120 0.55390 0.33300
H 	H 	0.22180 0.85100 0.89670 -0.05100
H 	H 	0.40320 0.48220 0.65300 -0.09600
H 	H 	0.45090 0.18360 0.18330 0.44400
H 	H 	0.67180 0.96820 0.26120 -0.00400
H 	H 	0.74130 0.18140 0.81490 0.07600
H 	H 	0.65090 0.82860 0.84520 0.43400
H 	H 	0.46860 0.83040 0.65950 -0.02500
H 	H 	0.04630 0.65160 0.21320 -0.03100
H 	H 	0.24780 0.83300 0.19560 0.50200
H 	H 	0.58650 0.18100 0.36650 0.31100
H 	H 	0.43590 0.17560 0.76960 0.43400
H 	H 	0.21590 0.27860 0.67050 0.36300
H 	H 	0.20650 0.26340 0.74400 0.46200
H 	H 	0.92720 0.85100 0.10330 -0.06500
H 	H 	0.52050 0.82860 0.15480 0.42200
H 	H 	0.16120 0.63760 0.77500 0.00700
H 	H 	0.96010 0.94420 0.40740 0.32800
H 	H 	0.29710 0.45000 0.68980 0.52500
H 	H 	0.69970 0.11540 0.74850 -0.00800
H 	H 	0.31000 0.92720 0.16710 0.49800
H 	H 	0.67020 0.28820 0.71310 0.04300
H 	H 	0.32880 0.93600 0.21450 0.49200
H 	H 	0.12760 0.01140 0.25570 0.45100
H 	H 	0.89200 0.65100 0.33380 0.00400
H 	H 	0.57540 0.17700 0.41850 0.30000
H 	H 	0.47770 0.27200 0.21490 0.44600
H 	H 	0.53540 0.98520 0.77490 -0.00300
H 	H 	0.11420 0.40320 0.77310 -0.07200
H 	H 	0.83460 0.36180 0.60170 -0.02800
H 	H 	0.86180 0.23720 0.89090 -0.02100
H 	H 	0.91900 0.13100 0.82620 -0.01200
H 	H 	0.64430 0.33840 0.21320 0.05200
H 	H 	0.61820 0.77340 0.04610 0.38100
H 	H 	0.30210 0.65160 0.78680 -0.01200
H 	H 	0.69680 0.45140 0.20940 -0.02100
H 	H 	0.88270 0.32920 0.84570 -0.02300
H 	H 	0.79700 0.45660 0.67610 -0.00200
H 	H 	0.28680 0.12180 0.84980 -0.10700
H 	H 	0.37100 0.15400 0.70180 0.44900
H 	H 	0.58780 0.14940 0.29110 0.49300
H 	H 	0.64810 0.77020 0.81870 0.45100
H 	H 	0.29770 0.74800 0.72160 0.00000
H 	H 	0.90990 0.29740 0.33720 -0.02300
H 	H 	0.01730 0.33840 0.78680 0.13600
H 	H 	0.37290 0.33340 0.86030 0.34400
H 	H 	0.95000 0.13100 0.17380 -0.03900
H 	H 	0.71540 0.76200 0.92450 0.39900
H 	H 	0.08300 0.79380 0.56150 0.42200
H 	H 	0.07620 0.93400 0.64440 0.40300
H 	H 	0.25290 0.45000 0.31020 0.51200
H 	H 	0.94950 0.58760 0.69640 0.38400
H 	H 	0.55700 0.85080 0.23310 0.01100
H 	H 	0.51210 0.91440 0.69060 0.04900
H 	H 	0.59140 0.12180 0.15020 -0.11800
H 	H 	0.45990 0.26700 0.86090 0.36000
H 	H 	0.19860 0.65740 0.29960 0.03000
H 	H 	0.09220 0.77060 0.21250 0.06600
H 	H 	0.34920 0.36540 0.76280 0.49400
H 	H 	0.62120 0.66600 0.87060 0.45500
H 	H 	0.19510 0.85300 0.35660 0.40100
H 	H 	0.21430 0.51580 0.28480 0.51900
H 	H 	0.73520 0.93600 0.78550 0.48100
H 	H 	0.34850 0.52260 0.77740 0.48700
H 	H 	0.46350 0.35500 0.75860 0.52500
H 	H 	0.19490 0.32520 0.16820 0.36000
H 	H 	0.23250 0.18100 0.63350 0.32600
H 	H 	0.74640 0.45660 0.32390 0.00200
C 	C 	0.96890 0.49020 0.36900 -0.25100
C 	C 	0.64720 0.66360 0.70400 0.36600
C 	C 	0.10540 0.30680 0.10470 -0.38900
C 	C 	0.98470 0.38460 0.79310 -0.37500
C 	C 	0.24150 0.46920 0.28180 -1.70100
C 	C 	0.79240 0.60220 0.57060 0.35100
C 	C 	0.84120 0.33620 0.16360 0.09100
C 	C 	0.67590 0.15020 0.77040 -0.04100
C 	C 	0.14940 0.83140 0.35250 -1.40200
C 	C 	0.48670 0.66320 0.68690 0.07500
C 	C 	0.48610 0.24920 0.24260 -1.53400
C 	C 	0.40050 0.83700 0.66920 0.10600
C 	C 	0.22590 0.12900 0.84120 0.32600
C 	C 	0.08670 0.14960 0.20900 -0.07700
C 	C 	0.57940 0.88800 0.74700 -0.08300
C 	C 	0.89740 0.45360 0.31560 -0.22300
C 	C 	0.72890 0.62920 0.36820 0.12300
C 	C 	0.05060 0.41780 0.71670 -0.14300
C 	C 	0.63310 0.47940 0.64280 0.14700
C 	C 	0.26470 0.24920 0.75740 -1.51900
C 	C 	0.59230 0.30480 0.38990 -0.41300
C 	C 	0.13500 0.68260 0.76570 -0.05400
C 	C 	0.52120 0.87800 0.71120 -0.14100
C 	C 	0.74520 0.61480 0.61920 -0.23200
C 	C 	0.05860 0.24120 0.28440 -0.12900
C 	C 	0.54190 0.19620 0.39440 -1.05800
C 	C 	0.33770 0.85720 0.92150 -0.27900
C 	C 	0.53630 0.94960 0.22690 -0.03400
C 	C 	0.40810 0.76400 0.60730 0.17000
C 	C 	0.26190 0.19620 0.60560 -1.09900
C 	C 	0.43640 0.63360 0.29770 -1.32200
C 	C 	0.27980 0.27940 0.55620 -1.16300
C 	C 	0.34830 0.78820 0.86120 -0.29100
C 	C 	0.07060 0.34800 0.57650 0.30100
C 	C 	0.52420 0.65980 0.27680 0.91300
C 	C 	0.57570 0.62500 0.35100 0.23100
C 	C 	0.58780 0.30680 0.89530 -0.39500
C 	C 	0.08870 0.83960 0.43540 -1.40400
C 	C 	0.73760 0.09900 0.08420 0.51600
C 	C 	0.28340 0.66260 0.70380 -0.14000
C 	C 	0.81350 0.91700 0.04820 0.46300
C 	C 	0.99690 0.16640 0.24510 -0.08200
C 	C 	0.94610 0.94740 0.81190 -0.58200
C 	C 	0.78340 0.73300 0.73470 -1.30600
C 	C 	0.90000 0.00900 0.92830 0.47300
C 	C 	0.05530 0.17660 0.04570 0.44200
C 	C 	0.48080 0.44920 0.70250 -0.57600
C 	C 	0.78390 0.76420 0.14340 0.38100
C 	C 	0.27960 0.69780 0.77820 -0.00400
C 	C 	0.46490 0.47500 0.66090 0.29100
C 	C 	0.04640 0.94100 0.79610 0.44100
C 	C 	0.64900 0.45360 0.68440 -0.24400
C 	C 	0.30010 0.77000 0.83390 0.11400
C 	C 	0.18990 0.33800 0.10130 0.79500
C 	C 	0.92340 0.85460 0.77600 -1.64000
C 	C 	0.82790 0.76400 0.39270 0.15500
C 	C 	0.02260 0.69780 0.22180 0.08700
C 	C 	0.88270 0.92820 0.78300 1.16300
C 	C 	0.87710 0.69360 0.45590 0.42000
C 	C 	0.76250 0.83700 0.33080 0.10300
C 	C 	0.29120 0.83480 0.89360 0.17800
C 	C 	0.36710 0.47600 0.78080 -1.62700
C 	C 	0.72750 0.23200 0.92340 -0.24300
C 	C 	0.66770 0.78200 0.84420 -1.45800
C 	C 	0.88280 0.40480 0.78290 0.09600
C 	C 	0.42930 0.69360 0.54410 0.43100
C 	C 	0.80560 0.15060 0.18430 -0.34100
C 	C 	0.01920 0.83140 0.64750 -1.26300
C 	C 	0.06050 0.92540 0.61700 -1.29700
C 	C 	0.63070 0.38460 0.20690 -0.17000
C 	C 	0.61240 0.75820 0.88710 1.01400
C 	C 	0.06330 0.97900 0.11610 -0.25500
C 	C 	0.41740 0.29880 0.93350 -1.15400
C 	C 	0.84720 0.94920 0.18770 0.16300
C 	C 	0.68050 0.68500 0.10510 -1.42800
C 	C 	0.88840 0.74640 0.42440 -0.28000
C 	C 	0.04380 0.15060 0.81570 -0.25500
C 	C 	0.04050 0.23200 0.07660 -0.21200
C 	C 	0.80640 0.44160 0.30350 0.09000
C 	C 	0.59290 0.65360 0.67420 -0.22700
C 	C 	0.53110 0.17580 0.23370 1.10600
C 	C 	0.41960 0.87280 0.73330 0.01500
C 	C 	0.40730 0.94800 0.79680 -0.17700
C 	C 	0.09100 0.00900 0.07170 0.45500
C 	C 	0.57180 0.78320 0.07410 -1.33200
C 	C 	0.89100 0.14800 0.19470 0.16700
C 	C 	0.60540 0.60220 0.42940 0.35100
C 	C 	0.13180 0.96640 0.14420 0.30700
C 	C 	0.71500 0.78660 0.11550 -0.47000
C 	C 	0.71320 0.40000 0.26660 0.00300
C 	C 	0.14810 0.96520 0.26130 -1.55200
C 	C 	0.63530 0.15020 0.20180 -0.56900
C 	C 	0.95670 0.51760 0.41580 0.30900
C 	C 	0.28930 0.46920 0.71820 -1.74400
C 	C 	0.48360 0.73300 0.26530 -1.33700
C 	C 	0.70400 0.93180 0.24000 0.01800
C 	C 	0.36520 0.74640 0.57560 -0.30200
C 	C 	0.68230 0.28300 0.35940 0.34200
C 	C 	0.51410 0.94960 0.77310 -0.03400
C 	C 	0.68920 0.66360 0.29600 0.36900
C 	C 	0.97340 0.70200 0.26970 -0.06500
C 	C 	0.71560 0.16100 0.21460 0.44600
C 	C 	0.07000 0.44920 0.29750 -0.52300
C 	C 	0.21450 0.15020 0.79820 -0.54200
C 	C 	0.14590 0.68540 0.28510 -0.15800
C 	C 	0.70760 0.87280 0.26670 0.01500
C 	C 	0.24320 0.31360 0.14080 -1.17800
C 	C 	0.01700 0.32960 0.13610 0.34300
C 	C 	0.94800 0.43700 0.70330 -0.11500
C 	C 	0.98560 0.81260 0.38700 -0.49200
C 	C 	0.05790 0.97260 0.86800 0.26000
C 	C 	0.92500 0.83040 0.35530 0.33500
C 	C 	0.96100 0.14800 0.80530 0.09000
C 	C 	0.64500 0.78320 0.92590 -1.39300
C 	C 	0.63450 0.68500 0.89490 -1.48700
C 	C 	0.25510 0.28780 0.64300 -1.18700
C 	C 	0.87400 0.83480 0.10640 0.18300
C 	C 	0.03470 0.28300 0.64060 0.41600
C 	C 	0.44320 0.31360 0.85920 -1.20800
C 	C 	0.22130 0.37140 0.25610 -1.66500
C 	C 	0.97000 0.36940 0.57340 -0.29900
C 	C 	0.57920 0.62040 0.23300 -1.32300
C 	C 	0.12340 0.16100 0.78540 0.41000
C 	C 	0.82260 0.33620 0.83640 0.09400
C 	C 	0.16160 0.21360 0.25190 -0.05000
C 	C 	0.64510 0.12900 0.15880 0.35400
C 	C 	0.85010 0.66320 0.31310 0.07000
C 	C 	0.75610 0.30340 0.86220 -0.23600
C 	C 	0.79940 0.22620 0.73150 -0.01000
C 	C 	0.81530 0.12960 0.14130 0.25400
C 	C 	0.44080 0.27940 0.44380 -1.12500
C 	C 	0.28380 0.29880 0.06650 -1.10000
C 	C 	0.11080 0.72440 0.20590 -0.21100
C 	C 	0.26950 0.91700 0.95180 0.45800
C 	C 	0.90180 0.34760 0.60380 0.19300
C 	C 	0.45710 0.28780 0.35700 -1.15300
C 	C 	0.76140 0.30440 0.36260 -0.23800
C 	C 	0.64470 0.94800 0.20320 -0.17800
C 	C 	0.20180 0.81260 0.61300 -0.48100
C 	C 	0.45190 0.76420 0.85660 0.38400
C 	C 	0.85950 0.28280 0.33190 0.09500
C 	C 	0.75350 0.65360 0.32580 -0.22800
C 	C 	0.11710 0.25800 0.07500 0.20500
C 	C 	0.88750 0.47940 0.35720 0.13700
C 	C 	0.15690 0.47600 0.21920 -1.59000
C 	C 	0.16480 0.72440 0.79410 -0.14100
C 	C 	0.94050 0.30340 0.13780 -0.25900
C 	C 	0.77100 0.94860 0.80460 -1.63200
C 	C 	0.16870 0.68540 0.71490 -0.08700
C 	C 	0.24460 0.83040 0.64470 0.33800
C 	C 	0.53910 0.13980 0.27830 -1.58800
C 	C 	0.05400 0.66260 0.29620 -0.04600
C 	C 	0.51160 0.27100 0.39670 0.77700
C 	C 	0.44130 0.83320 0.91700 0.25900
C 	C 	0.60080 0.87800 0.28880 -0.14100
C 	C 	0.21740 0.27100 0.60330 0.81600
C 	C 	0.49840 0.78660 0.88450 -0.47700
C 	C 	0.64190 0.62920 0.63180 0.12300
C 	C 	0.17390 0.15020 0.22960 -0.09100
C 	C 	0.81600 0.65980 0.72320 0.88600
C 	C 	0.61500 0.43700 0.29670 -0.12300
C 	C 	0.71240 0.40480 0.21710 0.02700
C 	C 	0.28040 0.94860 0.19540 -1.67000
C 	C 	0.09250 0.85200 0.61030 0.95300
C 	C 	0.64000 0.61480 0.38080 -0.23200
C 	C 	0.62490 0.25800 0.92500 0.21500
C 	C 	0.98870 0.43840 0.28570 0.28600
C 	C 	0.16800 0.44380 0.26570 1.20200
C 	C 	0.53220 0.42100 0.23270 -0.02400
C 	C 	0.38550 0.16100 0.78870 -1.47500
C 	C 	0.58140 0.34800 0.42350 0.20500
C 	C 	0.90180 0.96640 0.85580 0.34200
C 	C 	0.84620 0.80600 0.35820 -0.23800
C 	C 	0.80510 0.85720 0.07850 -0.29400
C 	C 	0.85770 0.28280 0.66810 0.12200
C 	C 	0.47210 0.33800 0.89870 0.82400
C 	C 	0.16340 0.09900 0.91580 0.49800
C 	C 	0.93000 0.63360 0.70230 -1.27200
C 	C 	0.10290 0.30480 0.61010 -0.46600
C 	C 	0.62480 0.21360 0.74810 -0.07800
C 	C 	0.18240 0.68260 0.23430 0.01400
C 	C 	0.04680 0.42100 0.76730 0.12600
C 	C 	0.92990 0.77000 0.16610 0.12000
C 	C 	0.79320 0.25460 0.89200 0.14200
C 	C 	0.93420 0.30440 0.63740 -0.31100
C 	C 	0.96950 0.97260 0.13200 0.15600
C 	C 	0.32460 0.70200 0.73030 0.03400
C 	C 	0.55030 0.78200 0.15580 -1.41700
C 	C 	0.32110 0.13980 0.72170 -1.57100
C 	C 	0.45350 0.16100 0.21130 -1.48900
C 	C 	0.94410 0.95360 0.17590 -0.31900
C 	C 	0.80040 0.62040 0.76700 -1.29600
C 	C 	0.76370 0.14960 0.79100 -0.17100
C 	C 	0.88680 0.40000 0.73340 -0.02400
C 	C 	0.07170 0.83960 0.56460 -1.38400
C 	C 	0.06010 0.47500 0.33910 0.31100
C 	C 	0.20360 0.94920 0.81230 0.16900
C 	C 	0.97440 0.22620 0.26850 -0.01100
C 	C 	0.70020 0.24120 0.71560 -0.13400
C 	C 	0.01410 0.92540 0.38300 -1.18900
C 	C 	0.45300 0.41260 0.90190 -1.28300
C 	C 	0.14620 0.11880 0.87150 -0.33500
C 	C 	0.83670 0.16640 0.75490 0.01700
C 	C 	0.66060 0.36940 0.42660 -0.21900
C 	C 	0.54090 0.49020 0.63100 -0.23000
C 	C 	0.86350 0.78820 0.13880 -0.30300
C 	C 	0.10230 0.95360 0.82410 -0.31700
C 	C 	0.40730 0.37140 0.74390 -1.70400
C 	C 	0.60030 0.64940 0.30860 -0.44600
C 	C 	0.88670 0.96520 0.73870 -1.47900
C 	C 	0.62940 0.75820 0.11290 0.97600
C 	C 	0.72550 0.83320 0.08300 0.25800
C 	C 	0.36420 0.93180 0.76000 0.01800
C 	C 	0.22200 0.85460 0.22400 -1.70400
C 	C 	0.75200 0.44160 0.69650 0.10300
C 	C 	0.93050 0.42780 0.54310 0.42100
C 	C 	0.38820 0.44380 0.73430 1.24000
C 	C 	0.95220 0.25460 0.10800 0.10100
C 	C 	0.96730 0.77060 0.42150 0.21400
C 	C 	0.52570 0.51760 0.58420 0.34300
C 	C 	0.53160 0.41780 0.28330 -0.10300
C 	C 	0.73500 0.11880 0.12850 -0.37300
C 	C 	0.57290 0.43840 0.71430 0.36200
C 	C 	0.29310 0.17580 0.76630 1.09000
C 	C 	0.26210 0.77060 0.57850 0.28200
C 	C 	0.95770 0.97900 0.88390 -0.34900
C 	C 	0.76810 0.17660 0.95430 0.41200
C 	C 	0.34780 0.80600 0.64180 -0.24200
C 	C 	0.75060 0.34760 0.39620 0.13200
C 	C 	0.64170 0.42780 0.45690 0.39800
C 	C 	0.75030 0.64940 0.69140 -0.43700
C 	C 	0.65340 0.32960 0.86390 0.31500
C 	C 	0.13440 0.41260 0.09810 -1.24900
C 	C 	0.10650 0.94740 0.18810 -0.55400
C 	C 	0.18910 0.92820 0.21700 1.20300
C 	C 	0.53260 0.88800 0.25300 -0.08300
C 	C 	0.79930 0.62500 0.64900 0.22700
C 	C 	0.01260 0.94100 0.20390 0.45600
C 	C 	0.05510 0.12960 0.85870 0.20400
C 	C 	0.05550 0.85200 0.38970 0.98100
N 	N 	0.92970 0.73200 0.20180 -0.31300
N 	N 	0.25690 0.93020 0.77440 -0.29800
N 	N 	0.77400 0.86940 0.29740 -0.30100
N 	N 	0.35660 0.86940 0.70260 -0.30100
N 	N 	0.33830 0.73200 0.79820 -0.29000
N 	N 	0.87920 0.24600 0.29900 -0.28800
N 	N 	0.42650 0.68820 0.72600 -0.27900
N 	N 	0.81290 0.93020 0.22560 -0.29900
N 	N 	0.81800 0.37300 0.19680 -0.30600
N 	N 	0.87480 0.24600 0.70100 -0.29400
N 	N 	0.78090 0.41540 0.72900 -0.28600
N 	N 	0.88530 0.68820 0.27400 -0.26700
N 	N 	0.80370 0.41540 0.27100 -0.28800
N 	N 	0.93430 0.16860 0.76600 -0.28400
N 	N 	0.89710 0.16860 0.23400 -0.28400
N 	N 	0.80900 0.37300 0.80320 -0.31300
O 	O 	0.24760 0.08560 0.92500 -0.47500
O 	O 	0.53730 0.57640 0.43780 -0.46000
O 	O 	0.38990 0.66780 0.52100 -0.46600
O 	O 	0.86230 0.15960 0.95840 -0.44200
O 	O 	0.84020 0.44020 0.54240 -0.45600
O 	O 	0.66490 0.59360 0.45930 -0.54200
O 	O 	0.71610 0.14500 0.97500 -0.46200
O 	O 	0.94230 0.66780 0.47900 -0.47800
O 	O 	0.01280 0.36640 0.17080 -0.46600
O 	O 	0.03440 0.52840 0.42120 -0.39300
O 	O 	0.62080 0.36640 0.82920 -0.47400
O 	O 	0.32700 0.94180 0.96790 -0.42300
O 	O 	0.81330 0.08800 0.05490 -0.54500
O 	O 	0.94790 0.00740 0.95780 -0.62000
O 	O 	0.99590 0.44800 0.51760 -0.46200
O 	O 	0.70920 0.18500 0.25360 -0.54400
O 	O 	0.51080 0.72820 0.82240 -0.51400
O 	O 	0.60050 0.68960 0.74290 -0.51000
O 	O 	0.71960 0.44020 0.45760 -0.45000
O 	O 	0.76100 0.72820 0.17760 -0.51500
O 	O 	0.87300 0.52580 0.44460 -0.47300
O 	O 	0.55610 0.44800 0.48240 -0.44200
O 	O 	0.52500 0.67900 0.53690 -0.53600
O 	O 	0.73120 0.94180 0.03210 -0.44100
O 	O 	0.18610 0.86220 0.68340 -0.47100
O 	O 	0.60120 0.52580 0.55540 -0.47900
O 	O 	0.06650 0.24580 0.67430 -0.50000
O 	O 	0.97810 0.15960 0.04160 -0.48100
O 	O 	0.74150 0.59360 0.54070 -0.54200
O 	O 	0.95170 0.86220 0.31660 -0.48500
O 	O 	0.88630 0.57640 0.56220 -0.46600
O 	O 	0.10580 0.18500 0.74640 -0.52100
O 	O 	0.09870 0.08800 0.94510 -0.51100
O 	O 	0.08790 0.91760 0.75390 -0.49400
O 	O 	0.18620 0.93780 0.95550 -0.52300
O 	O 	0.68770 0.24580 0.32570 -0.49700
O 	O 	0.57980 0.41260 0.75690 -0.48900
O 	O 	0.81150 0.01220 0.93810 -0.51700
O 	O 	0.79600 0.67900 0.46310 -0.53500
O 	O 	0.00760 0.41260 0.24310 -0.44700
O 	O 	0.04470 0.00740 0.04220 -0.60200
O 	O 	0.17630 0.01220 0.06190 -0.52400
O 	O 	0.99450 0.91760 0.24610 -0.53700
O 	O 	0.66680 0.08560 0.07500 -0.49100
O 	O 	0.13890 0.14500 0.02500 -0.48700
O 	O 	0.87600 0.93780 0.04450 -0.55200
O 	O 	0.70990 0.68960 0.25710 -0.51300
O 	O 	0.43720 0.52840 0.57880 -0.43100
