data_crystal

_cell_length_a 16.79200
_cell_length_b 41.04650
_cell_length_c 41.04650
_cell_angle_alpha 120.00000
_cell_angle_beta  90.00000
_cell_angle_gamma 90.00000

_symmetry_space_group_name_	'P 1'
_symmetry_space_group_name_H-M	'P 1'

loop_
_symmetry_equiv_pos_as_xyz
  x,y,z

loop_
_atom_site_label
_atom_site_type_symbol
_atom_site_fract_x
_atom_site_fract_y
_atom_site_fract_z
_atom_site_charge
Zr	Zr	0.04221 0.54828 0.46083 3.21900
Zr	Zr	0.95091 0.01451 0.53588 3.21300
Zr	Zr	0.04182 0.08216 0.52614 3.23500
Zr	Zr	0.15676 0.01327 0.52896 3.22500
Zr	Zr	0.13798 0.01507 0.44617 3.23600
Zr	Zr	0.95595 0.46883 0.44798 3.21900
Zr	Zr	0.93362 0.55209 0.53132 3.21900
Zr	Zr	0.16232 0.47857 0.45705 3.22300
Zr	Zr	0.93424 0.01447 0.45169 3.22400
Zr	Zr	0.04348 0.94893 0.45843 3.21500
Zr	Zr	0.93656 0.55483 0.99250 3.21300
Zr	Zr	0.14105 0.55510 0.99223 3.21900
Zr	Zr	0.93449 0.47095 0.99222 3.22000
Zr	Zr	0.04005 0.47987 0.92754 3.21600
Zr	Zr	0.04607 0.48175 0.52622 3.21800
Zr	Zr	0.13866 0.47077 0.99460 3.22800
Zr	Zr	0.13498 0.56162 0.54009 3.22000
Zr	Zr	0.03721 0.54660 0.05856 3.23400
H 	H 	0.77077 0.46659 0.08017 0.11200
H 	H 	0.24567 0.34249 0.53680 0.05400
H 	H 	0.31143 0.10097 0.44206 0.11500
H 	H 	0.93192 0.18541 0.52998 0.05200
H 	H 	0.82243 0.51245 0.74194 0.06600
H 	H 	0.82114 0.26205 0.48696 0.07800
H 	H 	0.84935 0.47014 0.77183 0.05400
H 	H 	0.16121 0.47058 0.82406 0.04600
H 	H 	0.22217 0.54856 0.21221 0.05300
H 	H 	0.78968 0.56243 0.63075 0.13400
H 	H 	0.17064 0.39306 0.53418 0.04000
H 	H 	0.61354 0.51207 0.65958 0.07600
H 	H 	0.85546 0.79447 0.30866 0.05600
H 	H 	0.77762 0.38115 0.44517 0.14500
H 	H 	0.37570 0.87268 0.29944 0.13000
H 	H 	0.14703 0.54973 0.16146 0.05000
H 	H 	0.30672 0.92655 0.35091 0.11500
H 	H 	0.69799 0.46512 0.13149 0.10800
H 	H 	0.70171 0.32904 0.44353 0.15900
H 	H 	0.25473 0.76371 0.23988 0.07400
H 	H 	0.61062 0.84604 0.49056 0.06300
H 	H 	0.91024 0.18197 0.61784 0.05200
H 	H 	0.84141 0.55461 0.31591 0.05300
H 	H 	0.47020 0.50668 0.82181 0.05300
H 	H 	0.69804 0.87872 0.54027 0.12600
H 	H 	0.60590 0.17701 0.66322 0.07800
H 	H 	0.37413 0.56851 0.68679 0.14700
H 	H 	0.45987 0.17625 0.66515 0.09700
H 	H 	0.81538 0.26062 0.74416 0.07000
H 	H 	0.70700 0.45986 0.30322 0.10800
H 	H 	0.92834 0.38427 0.53125 0.05400
H 	H 	0.75560 0.38858 0.90385 0.11900
H 	H 	0.60754 0.35015 0.81744 0.05100
H 	H 	0.61481 0.52200 0.16620 0.05500
H 	H 	0.61134 0.51179 0.32521 0.06400
H 	H 	0.68480 0.33415 0.85422 0.12600
H 	H 	0.84905 0.69467 0.21208 0.05500
H 	H 	0.83717 0.46446 0.66512 0.05300
H 	H 	0.70632 0.14904 0.68361 0.14000
H 	H 	0.31170 0.37735 0.90763 0.08900
H 	H 	0.85349 0.79608 0.45640 0.05400
H 	H 	0.25434 0.26093 0.74678 0.06400
H 	H 	0.77036 0.92886 0.53670 0.12900
H 	H 	0.32211 0.47821 0.08127 0.11300
H 	H 	0.61517 0.50522 0.82067 0.05300
H 	H 	0.92937 0.84651 0.45502 0.05400
H 	H 	0.22887 0.79684 0.31667 0.05400
H 	H 	0.30899 0.65008 0.54361 0.12200
H 	H 	0.85565 0.32737 0.77300 0.05500
H 	H 	0.28819 0.36512 0.43048 0.14600
H 	H 	0.38110 0.15338 0.44211 0.11400
H 	H 	0.23487 0.23199 0.53386 0.05400
H 	H 	0.23735 0.55522 0.31523 0.05500
H 	H 	0.15635 0.38848 0.83055 0.03600
H 	H 	0.25739 0.10278 0.64784 0.12400
H 	H 	0.61409 0.68136 0.49019 0.06200
H 	H 	0.92381 0.64328 0.16062 0.05300
H 	H 	0.16199 0.17897 0.53267 0.03700
H 	H 	0.46577 0.51173 0.32470 0.06600
H 	H 	0.36945 0.87771 0.54837 0.11800
H 	H 	0.60514 0.83989 0.32969 0.05900
H 	H 	0.61390 0.18472 0.49688 0.05800
H 	H 	0.70419 0.70278 0.54351 0.11200
H 	H 	0.15956 0.55497 0.36603 0.03500
H 	H 	0.26030 0.76749 0.50055 0.06700
H 	H 	0.38071 0.32503 0.85472 0.11100
H 	H 	0.33639 0.15374 0.69860 0.14400
H 	H 	0.24177 0.47178 0.66958 0.05200
H 	H 	0.83287 0.23203 0.66927 0.05300
H 	H 	0.26166 0.51778 0.74580 0.06600
H 	H 	0.46486 0.67626 0.16515 0.05500
H 	H 	0.93155 0.84566 0.35975 0.05400
H 	H 	0.15864 0.64443 0.45609 0.04900
H 	H 	0.30008 0.56907 0.63497 0.13400
H 	H 	0.91218 0.46313 0.61287 0.05000
H 	H 	0.23402 0.69598 0.45671 0.05200
H 	H 	0.25964 0.26220 0.48920 0.07000
H 	H 	0.76191 0.64436 0.08018 0.12700
H 	H 	0.46821 0.51393 0.66087 0.07700
H 	H 	0.46539 0.84697 0.49332 0.06800
H 	H 	0.61160 0.34748 0.49345 0.08100
H 	H 	0.82129 0.76699 0.49650 0.06900
H 	H 	0.46901 0.18471 0.49732 0.05900
H 	H 	0.75485 0.92503 0.36861 0.13300
H 	H 	0.38211 0.56129 0.85539 0.09900
H 	H 	0.22485 0.68978 0.20914 0.05400
H 	H 	0.71407 0.56375 0.68275 0.13700
H 	H 	0.77427 0.55818 0.90432 0.10900
H 	H 	0.25967 0.50974 0.24036 0.07500
H 	H 	0.91938 0.64063 0.45020 0.05200
H 	H 	0.26736 0.22845 0.65871 0.05500
H 	H 	0.23845 0.79464 0.45291 0.05100
H 	H 	0.23572 0.47213 0.77326 0.05200
H 	H 	0.46061 0.84186 0.32742 0.06300
H 	H 	0.46954 0.68175 0.49188 0.06200
H 	H 	0.60935 0.67707 0.16527 0.05500
H 	H 	0.46596 0.34579 0.49043 0.10000
H 	H 	0.19245 0.17700 0.60685 0.03200
H 	H 	0.36451 0.31582 0.43370 0.14300
H 	H 	0.39192 0.47311 0.13103 0.12300
H 	H 	0.77589 0.10076 0.44915 0.10800
H 	H 	0.38196 0.70300 0.54549 0.11400
H 	H 	0.30856 0.55933 0.90629 0.09300
H 	H 	0.69079 0.69783 0.13136 0.12500
H 	H 	0.92304 0.46938 0.82319 0.05200
H 	H 	0.31835 0.64443 0.07907 0.12000
H 	H 	0.15835 0.85114 0.36814 0.03800
H 	H 	0.92441 0.55273 0.16147 0.05300
H 	H 	0.81584 0.76526 0.24175 0.07400
H 	H 	0.78257 0.09867 0.63131 0.12300
H 	H 	0.85382 0.23454 0.52801 0.05700
H 	H 	0.15522 0.63698 0.15563 0.03800
H 	H 	0.15887 0.84468 0.45237 0.04700
H 	H 	0.69980 0.15019 0.44505 0.11300
H 	H 	0.29273 0.45948 0.35220 0.10500
H 	H 	0.85092 0.33297 0.53031 0.05500
H 	H 	0.78301 0.46075 0.35507 0.10700
H 	H 	0.85031 0.55191 0.21270 0.05400
H 	H 	0.38356 0.69847 0.13165 0.12700
H 	H 	0.82067 0.50853 0.24143 0.06900
H 	H 	0.46290 0.34917 0.82018 0.05500
H 	H 	0.93143 0.37913 0.82373 0.05200
H 	H 	0.68472 0.87512 0.31411 0.13500
H 	H 	0.36991 0.45941 0.30105 0.12100
H 	H 	0.84598 0.69332 0.45199 0.05300
H 	H 	0.91797 0.55523 0.36718 0.05100
H 	H 	0.47033 0.52518 0.16767 0.05100
H 	H 	0.22708 0.33614 0.77707 0.05400
H 	H 	0.70254 0.55994 0.85297 0.10200
H 	H 	0.77589 0.64916 0.54088 0.11900
H 	H 	0.28937 0.92790 0.54811 0.12900
H 	H 	0.16719 0.47241 0.61841 0.04800
C 	C 	0.22403 0.68110 0.03231 0.44400
C 	C 	0.32975 0.54705 0.67189 -0.03400
C 	C 	0.44662 0.73288 0.21173 0.02700
C 	C 	0.76035 0.19592 0.68146 0.04900
C 	C 	0.87251 0.65433 0.15338 0.03500
C 	C 	0.82524 0.48610 0.65804 -0.05400
C 	C 	0.25069 0.82352 0.47404 -0.05400
C 	C 	0.67227 0.27984 0.35808 0.74500
C 	C 	0.86236 0.13763 0.48959 -0.09200
C 	C 	0.90503 0.10349 0.58579 0.44600
C 	C 	0.74966 0.53944 0.84566 -0.04000
C 	C 	0.85394 0.13492 0.61868 -0.06900
C 	C 	0.36385 0.29276 0.48774 0.00700
C 	C 	0.38514 0.45070 0.45228 0.41600
C 	C 	0.49410 0.26194 0.48752 0.01500
C 	C 	0.44506 0.22947 0.71675 0.03200
C 	C 	0.82738 0.53378 0.32385 -0.05500
C 	C 	0.90842 0.50921 0.39957 0.44800
C 	C 	0.25229 0.20359 0.51340 -0.06000
C 	C 	0.24639 0.34451 0.80536 -0.06600
C 	C 	0.79194 0.65799 0.52093 0.04400
C 	C 	0.80476 0.63219 0.61745 0.38200
C 	C 	0.71750 0.51414 0.71188 0.00700
C 	C 	0.31298 0.83099 0.50028 0.04300
C 	C 	0.26035 0.12965 0.64905 0.09100
C 	C 	0.24189 0.02634 0.34121 0.40900
C 	C 	0.56255 0.09821 0.72592 0.34500
C 	C 	0.83411 0.82480 0.47444 -0.05000
C 	C 	0.32252 0.33219 0.45602 -0.03000
C 	C 	0.71563 0.50813 0.27216 0.00600
C 	C 	0.86870 0.48525 0.62742 0.03200
C 	C 	0.17786 0.60885 0.49878 0.45000
C 	C 	0.76536 0.50903 0.17760 0.04500
C 	C 	0.31915 0.76337 0.24061 -0.02100
C 	C 	0.78657 0.66722 0.01924 0.43700
C 	C 	0.29610 0.82017 0.12387 0.34800
C 	C 	0.91486 0.10788 0.49342 0.50000
C 	C 	0.17698 0.51408 0.08355 0.44600
C 	C 	0.29817 0.86047 0.13031 0.74700
C 	C 	0.22819 0.72155 0.03838 0.41800
C 	C 	0.76660 0.32608 0.48745 0.05700
C 	C 	0.22725 0.38857 0.87467 -0.11900
C 	C 	0.76602 0.70316 0.49731 0.04500
C 	C 	0.83186 0.48975 0.80049 -0.05500
C 	C 	0.74970 0.15698 0.66932 -0.03800
C 	C 	0.45000 0.50838 0.27066 0.02800
C 	C 	0.62978 0.29233 0.48733 0.02900
C 	C 	0.31668 0.51966 0.68293 0.05000
C 	C 	0.24584 0.68068 0.18094 -0.05800
C 	C 	0.31652 0.51159 0.17741 0.05800
C 	C 	0.63037 0.23208 0.48796 0.02500
C 	C 	0.25562 0.49336 0.66264 -0.05500
C 	C 	0.86060 0.38848 0.48857 -0.05600
C 	C 	0.45149 0.51182 0.21200 0.02700
C 	C 	0.20426 0.85276 0.47377 0.02900
C 	C 	0.32500 0.48091 0.31509 -0.05000
C 	C 	0.85157 0.38927 0.86936 -0.06500
C 	C 	0.34010 0.49114 0.13886 -0.02500
C 	C 	0.71299 0.98369 0.31426 0.44200
C 	C 	0.36021 0.73201 0.20999 0.01000
C 	C 	0.73104 0.95834 0.65344 0.41900
C 	C 	0.71159 0.73357 0.21083 0.01300
C 	C 	0.24668 0.82491 0.32353 -0.06200
C 	C 	0.45242 0.51769 0.71512 0.02800
C 	C 	0.49476 0.50948 0.30019 -0.02200
C 	C 	0.30054 0.01371 0.54925 0.34400
C 	C 	0.22791 0.39739 0.04903 0.41500
C 	C 	0.30794 0.74023 0.69385 0.42100
C 	C 	0.16826 0.50743 0.39674 0.59900
C 	C 	0.58665 0.51045 0.80016 -0.02700
C 	C 	0.35595 0.33995 0.16115 0.74000
C 	C 	0.83260 0.82283 0.32070 -0.04800
C 	C 	0.63005 0.51074 0.21209 0.02300
C 	C 	0.57801 0.82007 0.30329 -0.01600
C 	C 	0.21574 0.89159 0.50018 -0.06600
C 	C 	0.77915 0.89703 0.35543 0.05400
C 	C 	0.79663 0.48173 0.34728 0.04300
C 	C 	0.87830 0.85435 0.47351 0.03100
C 	C 	0.45305 0.51553 0.77445 0.02200
C 	C 	0.19140 0.65195 0.99308 0.35400
C 	C 	0.18381 0.38301 0.01126 0.39400
C 	C 	0.84398 0.64301 0.98647 0.35700
C 	C 	0.21239 0.49371 0.63268 0.03600
C 	C 	0.29184 0.53973 0.87750 0.04000
C 	C 	0.27986 0.48085 0.34485 0.07300
C 	C 	0.33432 0.15989 0.46260 -0.04400
C 	C 	0.85759 0.01789 0.39972 0.35200
C 	C 	0.27694 0.89906 0.52700 0.04400
C 	C 	0.49577 0.51689 0.74482 0.01400
C 	C 	0.89867 0.01247 0.63122 0.35600
C 	C 	0.31213 0.32544 0.81030 0.05100
C 	C 	0.36669 0.51642 0.77603 0.00500
C 	C 	0.33475 0.68528 0.13794 -0.03800
C 	C 	0.70183 0.29793 0.91686 0.42300
C 	C 	0.26434 0.79113 0.08424 0.43700
C 	C 	0.91855 0.01292 0.59578 0.35700
C 	C 	0.33485 0.54080 0.84774 -0.04500
C 	C 	0.20585 0.85655 0.35364 0.04900
C 	C 	0.28851 0.89855 0.34415 0.06400
C 	C 	0.58650 0.50880 0.24116 0.01400
C 	C 	0.94328 0.15508 0.29080 0.74100
C 	C 	0.31058 0.82912 0.30313 0.05600
C 	C 	0.18353 0.42135 0.90942 0.53700
C 	C 	0.74057 0.68597 0.13869 -0.03100
C 	C 	0.49492 0.82525 0.49635 -0.02100
C 	C 	0.20558 0.53393 0.35245 0.05800
C 	C 	0.45054 0.79786 0.49934 0.02500
C 	C 	0.88103 0.17669 0.51129 0.04300
C 	C 	0.75621 0.50899 0.24156 -0.02800
C 	C 	0.71792 0.51392 0.77391 0.00600
C 	C 	0.36610 0.51829 0.71484 0.00900
C 	C 	0.57404 0.20450 0.87534 0.74200
C 	C 	0.28709 0.38242 0.09791 0.42200
C 	C 	0.87194 0.65338 0.47062 0.03200
C 	C 	0.32412 0.26238 0.48923 -0.02500
C 	C 	0.22195 0.38451 0.48210 -0.08100
C 	C 	0.27794 0.36102 0.45416 0.08300
C 	C 	0.18270 0.92958 0.39766 0.53500
C 	C 	0.48905 0.76385 0.24141 0.01800
C 	C 	0.74662 0.48489 0.13885 -0.03900
C 	C 	0.94785 0.33695 0.36484 0.43100
C 	C 	0.49525 0.32152 0.48868 -0.01000
C 	C 	0.62468 0.29203 0.77368 0.02600
C 	C 	0.75797 0.51308 0.74236 -0.02800
C 	C 	0.80704 0.98252 0.65985 0.44500
C 	C 	0.76590 0.83167 0.49755 0.04800
C 	C 	0.35973 0.29266 0.77668 0.00300
C 	C 	0.79954 0.54019 0.63697 0.05300
C 	C 	0.92654 0.36730 0.35444 0.37400
C 	C 	0.95447 0.19570 0.32321 0.35600
C 	C 	0.58215 0.63583 0.65097 0.41800
C 	C 	0.49446 0.76798 0.49964 0.01300
C 	C 	0.51168 0.35977 0.38415 0.40700
C 	C 	0.90311 0.51081 0.08304 0.44700
C 	C 	0.71693 0.73618 0.49738 0.00800
C 	C 	0.71110 0.29261 0.77496 0.01500
C 	C 	0.41292 0.65742 0.72581 0.73900
C 	C 	0.23893 0.36704 0.06065 0.42300
C 	C 	0.21212 0.37637 0.51173 0.04800
C 	C 	0.85138 0.89108 0.36955 -0.06000
C 	C 	0.62972 0.79783 0.49800 0.02400
C 	C 	0.24843 0.02522 0.30287 0.39700
C 	C 	0.30902 0.78388 0.71753 0.44300
C 	C 	0.83184 0.53289 0.18404 -0.05300
C 	C 	0.66786 0.94586 0.29043 0.42000
C 	C 	0.76652 0.51375 0.67887 0.04600
C 	C 	0.93539 0.29620 0.33181 0.42100
C 	C 	0.85664 0.51203 0.61546 -0.06600
C 	C 	0.33237 0.33852 0.84852 -0.05500
C 	C 	0.36349 0.50872 0.27130 0.00900
C 	C 	0.36579 0.73667 0.49998 0.00700
C 	C 	0.79179 0.53862 0.87568 0.04000
C 	C 	0.31667 0.19817 0.48855 0.05100
C 	C 	0.45144 0.23252 0.48919 0.02500
C 	C 	0.34704 0.36853 0.14755 0.34200
C 	C 	0.21016 0.17272 0.51286 0.04600
C 	C 	0.57801 0.20014 0.68741 -0.00400
C 	C 	0.54858 0.06456 0.68557 0.43500
C 	C 	0.18672 0.60213 0.07697 0.52300
C 	C 	0.76510 0.50770 0.30467 0.04400
C 	C 	0.90579 0.51150 0.58260 0.45100
C 	C 	0.87484 0.53344 0.15407 0.03300
C 	C 	0.76694 0.51442 0.80693 0.04300
C 	C 	0.57946 0.32356 0.79882 -0.02000
C 	C 	0.58045 0.33781 0.38984 0.44600
C 	C 	0.16786 0.10266 0.58930 0.60500
C 	C 	0.79462 0.37134 0.46422 0.07100
C 	C 	0.45043 0.29195 0.48735 0.03000
C 	C 	0.73711 0.34399 0.84633 -0.02900
C 	C 	0.76089 0.70125 0.17741 0.05000
C 	C 	0.90261 0.60520 0.49333 0.45400
C 	C 	0.39425 0.04450 0.60460 0.41300
C 	C 	0.83283 0.33980 0.80139 -0.05000
C 	C 	0.22666 0.51393 0.11590 -0.06200
C 	C 	0.82073 0.20318 0.66168 -0.05500
C 	C 	0.17381 0.61539 0.99162 0.35500
C 	C 	0.63060 0.73718 0.49777 0.02300
C 	C 	0.90105 0.42197 0.90181 0.44900
C 	C 	0.22600 0.89450 0.36516 -0.10600
C 	C 	0.58700 0.26184 0.48702 0.02100
C 	C 	0.31382 0.32430 0.48580 0.05300
C 	C 	0.84084 0.37943 0.99165 0.35900
C 	C 	0.31787 0.51626 0.80888 0.04400
C 	C 	0.89970 0.60537 0.08236 0.45400
C 	C 	0.42747 0.03866 0.24743 0.35600
C 	C 	0.45192 0.64595 0.68764 0.34100
C 	C 	0.75008 0.68931 0.52240 -0.03600
C 	C 	0.83553 0.20563 0.51009 -0.05500
C 	C 	0.63161 0.51418 0.77330 0.02100
C 	C 	0.91136 0.42106 0.48924 0.45400
C 	C 	0.70633 0.95605 0.68875 0.44400
C 	C 	0.87554 0.41345 0.99215 0.35900
C 	C 	0.32476 0.76743 0.49990 -0.02700
C 	C 	0.54359 0.65012 0.69019 0.43800
C 	C 	0.75684 0.76713 0.49679 -0.02600
C 	C 	0.61055 0.94679 0.26123 0.43800
C 	C 	0.36407 0.79862 0.49996 0.00700
C 	C 	0.75669 0.26216 0.48739 -0.02200
C 	C 	0.49376 0.50908 0.24096 0.01700
C 	C 	0.17877 0.41759 0.48037 0.53900
C 	C 	0.71055 0.22873 0.71418 0.01400
C 	C 	0.55424 0.81216 0.07331 0.74700
C 	C 	0.69287 0.72496 0.04936 0.41900
C 	C 	0.31903 0.47256 0.44505 0.28600
C 	C 	0.28665 0.54738 0.64179 0.05700
C 	C 	0.90115 0.92374 0.40203 0.44900
C 	C 	0.93749 0.40567 0.38809 0.37200
C 	C 	0.26333 0.75033 0.07749 0.42500
C 	C 	0.58064 0.70277 0.18569 -0.02100
C 	C 	0.58334 0.82497 0.49525 -0.01900
C 	C 	0.33437 0.69020 0.52519 -0.03600
C 	C 	0.16770 0.41512 0.00439 0.39700
C 	C 	0.32887 0.86709 0.31411 -0.04500
C 	C 	0.44602 0.29199 0.77469 0.02600
C 	C 	0.32397 0.86979 0.52702 -0.03500
C 	C 	0.49758 0.70705 0.49561 -0.02300
C 	C 	0.75096 0.26081 0.74427 -0.02300
C 	C 	0.79463 0.12962 0.46609 0.05300
C 	C 	0.65069 0.75595 0.04442 0.44100
C 	C 	0.87683 0.37030 0.83107 0.03500
C 	C 	0.85480 0.51001 0.11540 -0.06800
C 	C 	0.62084 0.08880 0.74895 0.74100
C 	C 	0.31705 0.70418 0.50043 0.04600
C 	C 	0.62892 0.93272 0.68200 0.34400
C 	C 	0.20559 0.64970 0.14977 0.04800
C 	C 	0.78928 0.48560 0.10884 0.04200
C 	C 	0.32611 0.51721 0.74542 -0.02600
C 	C 	0.22990 0.63511 0.11174 -0.09900
C 	C 	0.95178 0.26628 0.34372 0.43600
C 	C 	0.22977 0.13449 0.48743 -0.10500
C 	C 	0.90398 0.51296 0.90159 0.44700
C 	C 	0.87857 0.37299 0.51200 0.03900
C 	C 	0.36498 0.23151 0.48934 0.00600
C 	C 	0.51032 0.90920 0.20799 0.74400
C 	C 	0.31881 0.26109 0.74642 -0.02500
C 	C 	0.22672 0.52055 0.62098 -0.06900
C 	C 	0.29830 0.49330 0.10948 0.06000
C 	C 	0.58567 0.51643 0.18636 -0.02500
C 	C 	0.26653 0.20119 0.65681 -0.07200
C 	C 	0.74702 0.87065 0.52059 -0.02900
C 	C 	0.83347 0.34288 0.51137 -0.04700
C 	C 	0.60009 0.93229 0.71734 0.74400
C 	C 	0.17848 0.51370 0.90273 0.44800
C 	C 	0.38870 0.79931 0.73905 0.34300
C 	C 	0.33453 0.03307 0.29457 0.43100
C 	C 	0.25144 0.68661 0.47608 -0.05400
C 	C 	0.87783 0.61104 0.99001 0.35700
C 	C 	0.58180 0.76423 0.24177 0.02000
C 	C 	0.18511 0.09999 0.48523 0.51600
C 	C 	0.48982 0.82060 0.30228 -0.01800
C 	C 	0.49252 0.70227 0.18562 -0.02200
C 	C 	0.47236 0.04061 0.62263 0.42200
C 	C 	0.93989 0.22536 0.31088 0.43400
C 	C 	0.16744 0.92343 0.49837 0.44400
C 	C 	0.75612 0.54110 0.66757 -0.03600
C 	C 	0.82947 0.68437 0.47180 -0.05300
C 	C 	0.75457 0.31995 0.95263 0.41900
C 	C 	0.61377 0.23936 0.87759 0.34500
C 	C 	0.48219 0.07282 0.66428 0.42000
C 	C 	0.71647 0.29329 0.48734 0.02100
C 	C 	0.75211 0.48131 0.31710 -0.04000
C 	C 	0.86567 0.17385 0.63147 0.03100
C 	C 	0.34306 0.02804 0.25458 0.41400
C 	C 	0.85565 0.51343 0.86917 -0.07200
C 	C 	0.71639 0.79872 0.49757 0.01200
C 	C 	0.87460 0.48924 0.83052 0.03100
C 	C 	0.71092 0.79562 0.27359 0.01500
C 	C 	0.36506 0.51116 0.21029 0.01800
C 	C 	0.71686 0.23077 0.48712 0.01400
C 	C 	0.44538 0.79372 0.27151 0.02800
C 	C 	0.76059 0.32570 0.80775 0.05200
C 	C 	0.24487 0.53241 0.18380 -0.04800
C 	C 	0.76720 0.19799 0.48708 0.05100
C 	C 	0.57197 0.90788 0.23500 0.34500
C 	C 	0.63113 0.51558 0.71360 0.02600
C 	C 	0.20134 0.53337 0.15415 0.03900
C 	C 	0.87676 0.85279 0.35088 0.03500
C 	C 	0.58378 0.32213 0.48964 0.00200
C 	C 	0.30530 0.15952 0.67893 -0.04500
C 	C 	0.29191 0.36904 0.87944 0.05900
C 	C 	0.20782 0.65639 0.47562 0.03300
C 	C 	0.31291 0.50786 0.30332 0.05700
C 	C 	0.49762 0.51768 0.18680 -0.02300
C 	C 	0.85061 0.63824 0.11481 -0.06500
C 	C 	0.58721 0.76795 0.49900 0.01500
C 	C 	0.35906 0.79492 0.27155 0.00800
C 	C 	0.22677 0.64160 0.49951 -0.07000
C 	C 	0.85786 0.89312 0.49561 -0.06000
C 	C 	0.79442 0.12752 0.63883 0.04900
C 	C 	0.45204 0.73737 0.49914 0.02300
C 	C 	0.62403 0.22920 0.71572 0.02800
C 	C 	0.49139 0.32329 0.79987 -0.02400
C 	C 	0.58136 0.26029 0.74534 0.02200
C 	C 	0.62429 0.79401 0.27274 0.02800
C 	C 	0.14382 0.66511 0.63307 0.37700
C 	C 	0.76021 0.82886 0.30643 0.05200
C 	C 	0.74997 0.34103 0.46343 -0.02100
C 	C 	0.85137 0.60330 0.58445 0.34200
C 	C 	0.83066 0.98423 0.62412 0.43900
C 	C 	0.58324 0.50947 0.30049 -0.02200
C 	C 	0.32411 0.51014 0.24074 -0.01600
C 	C 	0.78956 0.35653 0.95600 0.41900
C 	C 	0.62529 0.73375 0.21211 0.02600
C 	C 	0.58547 0.51477 0.68448 -0.01400
C 	C 	0.87188 0.53418 0.35391 0.03100
C 	C 	0.14954 0.02015 0.38676 0.35800
C 	C 	0.66483 0.26175 0.91373 0.43600
C 	C 	0.38446 0.01409 0.56246 0.36100
C 	C 	0.75144 0.76473 0.24218 -0.02300
C 	C 	0.25289 0.49148 0.80204 -0.05800
C 	C 	0.20960 0.49052 0.83175 0.03100
C 	C 	0.71628 0.50952 0.21068 0.00700
C 	C 	0.39213 0.84256 0.76068 0.74700
C 	C 	0.62911 0.50811 0.27114 0.02300
C 	C 	0.49709 0.20570 0.49268 -0.02400
C 	C 	0.48868 0.26043 0.74578 0.01500
C 	C 	0.73683 0.86743 0.32423 -0.02900
C 	C 	0.15496 0.02207 0.35120 0.35700
C 	C 	0.30950 0.19634 0.68383 0.05500
C 	C 	0.22289 0.17121 0.62665 0.06000
C 	C 	0.85413 0.63871 0.49478 -0.06800
C 	C 	0.29600 0.65396 0.10710 0.06800
C 	C 	0.31277 0.69923 0.17614 0.05600
C 	C 	0.90820 0.92503 0.49465 0.44300
C 	C 	0.43808 0.03146 0.20712 0.72000
C 	C 	0.41868 0.41757 0.41503 0.40100
C 	C 	0.82920 0.68460 0.18353 -0.05100
C 	C 	0.76183 0.98391 0.34645 0.43600
C 	C 	0.58534 0.20552 0.49213 -0.02200
C 	C 	0.74816 0.69967 0.01558 0.44100
C 	C 	0.22781 0.51443 0.87056 -0.07900
C 	C 	0.74946 0.15873 0.46441 -0.03700
C 	C 	0.29143 0.65958 0.52437 0.04700
C 	C 	0.59909 0.78268 0.07900 0.34600
C 	C 	0.81338 0.01942 0.36857 0.36000
C 	C 	0.20542 0.37516 0.83652 0.04800
C 	C 	0.22816 0.68159 0.64613 0.42300
C 	C 	0.35881 0.22918 0.71610 0.00300
C 	C 	0.48550 0.39517 0.42148 0.43000
C 	C 	0.71445 0.62279 0.61470 0.41300
C 	C 	0.85795 0.50834 0.36689 -0.07100
C 	C 	0.49716 0.51591 0.68528 -0.01300
C 	C 	0.49847 0.51116 0.80076 -0.02700
C 	C 	0.17796 0.52041 0.58834 0.45600
C 	C 	0.22571 0.72443 0.67536 0.42500
C 	C 	0.67324 0.64293 0.65371 0.41900
C 	C 	0.48951 0.19999 0.68821 -0.01200
C 	C 	0.79018 0.90015 0.51902 0.05400
C 	C 	0.21885 0.50749 0.36468 -0.13600
C 	C 	0.29720 0.35299 0.11084 0.43600
C 	C 	0.25074 0.53401 0.32274 -0.06800
C 	C 	0.78277 0.65506 0.10861 0.05100
C 	C 	0.25602 0.34697 0.51330 -0.05500
C 	C 	0.29322 0.12927 0.46239 0.06000
C 	C 	0.58568 0.70689 0.49476 -0.02300
C 	C 	0.60498 0.30209 0.35261 0.33200
C 	C 	0.14349 0.62595 0.59972 0.36200
C 	C 	0.21857 0.13439 0.62163 -0.13700
C 	C 	0.58839 0.51599 0.74411 0.01400
C 	C 	0.77950 0.37531 0.87569 0.05400
O 	O 	0.13628 0.04302 0.50140 -1.32500
O 	O 	0.03811 0.57505 0.02691 -1.18800
O 	O 	0.00377 0.42008 0.40234 -0.55100
O 	O 	0.82594 0.01887 0.42819 -0.53900
O 	O 	0.87944 0.49095 0.04780 -0.54400
O 	O 	0.15398 0.97997 0.46991 -1.17700
O 	O 	0.87899 0.58872 0.51218 -0.54800
O 	O 	0.92975 0.49593 0.95858 -1.27900
O 	O 	0.98778 0.01067 0.58288 -0.54500
O 	O 	0.03922 0.53987 0.95865 -1.28600
O 	O 	0.11561 0.10789 0.56988 -0.72300
O 	O 	0.03781 0.45089 0.95894 -1.20600
O 	O 	0.21303 0.58887 0.04283 -0.55100
O 	O 	0.19682 0.54318 0.57544 -0.54000
O 	O 	0.05918 0.45458 0.46674 -1.24400
O 	O 	0.89203 0.48632 0.41247 -0.55600
O 	O 	0.88158 0.42731 0.40719 -0.51300
O 	O 	0.20240 0.53298 0.93797 -0.58000
O 	O 	0.92641 0.60245 0.58302 -0.48200
O 	O 	0.97055 0.49154 0.57184 -0.60100
O 	O 	0.93208 0.01479 0.40069 -0.49500
O 	O 	0.03303 0.57571 0.52058 -1.28600
O 	O 	0.20617 0.96385 0.40896 -0.54100
O 	O 	0.20712 0.43326 0.94373 -0.58600
O 	O 	0.23956 0.01143 0.56600 -0.50900
O 	O 	0.17647 0.06646 0.57299 -0.65800
O 	O 	0.96586 0.53372 0.41369 -0.59400
O 	O 	0.11470 0.53148 0.41644 -0.71400
O 	O 	0.97253 0.12034 0.51719 -0.60900
O 	O 	0.88750 0.06765 0.57157 -0.55800
O 	O 	0.14956 0.49565 0.95965 -1.20100
O 	O 	0.20226 0.49585 0.04849 -0.55500
O 	O 	0.03954 0.04342 0.46782 -1.34000
O 	O 	0.08564 0.01584 0.40013 -0.53200
O 	O 	0.15061 0.53749 0.48192 -1.24000
O 	O 	0.93781 0.49320 0.50603 -1.28100
O 	O 	0.05375 0.04826 0.55276 -1.19000
O 	O 	0.86804 0.01618 0.57489 -0.52800
O 	O 	0.12351 0.92800 0.41673 -0.71800
O 	O 	0.25883 0.44871 0.42186 -0.43500
O 	O 	0.22484 0.59442 0.99461 -0.52900
O 	O 	0.93340 0.04872 0.51147 -1.20100
O 	O 	0.03597 0.98018 0.42916 -1.16800
O 	O 	0.20870 0.06578 0.46249 -0.54500
O 	O 	0.03463 0.54149 0.55425 -1.29500
O 	O 	0.96402 0.11424 0.57284 -0.59400
O 	O 	0.08055 0.60887 0.58413 -0.53100
O 	O 	0.27858 0.49739 0.47805 -0.49200
O 	O 	0.88137 0.53078 0.56665 -0.54000
O 	O 	0.96709 0.91464 0.41212 -0.60100
O 	O 	0.93514 0.98108 0.47740 -1.25400
O 	O 	0.96713 0.49183 0.89236 -0.59800
O 	O 	0.20308 0.60609 0.58222 -0.50400
O 	O 	0.90910 0.07101 0.47471 -0.66700
O 	O 	0.95091 0.60559 0.99222 -0.50100
O 	O 	0.19415 0.42530 0.45389 -0.52300
O 	O 	0.87639 0.58940 0.04700 -0.54400
O 	O 	0.21986 0.43658 0.00314 -0.50600
O 	O 	0.09972 0.42510 0.99998 -0.55200
O 	O 	0.96602 0.53202 0.09239 -0.59900
O 	O 	0.05778 0.48849 0.43386 -1.23500
O 	O 	0.83761 0.58495 0.98980 -0.53600
O 	O 	0.88029 0.53309 0.93686 -0.55300
O 	O 	0.12300 0.43952 0.90744 -0.72900
O 	O 	0.93549 0.52699 0.47233 -1.27800
O 	O 	0.15329 0.50355 0.51612 -1.24700
O 	O 	0.96652 0.59446 0.47286 -0.60400
O 	O 	0.89117 0.43573 0.46823 -0.54100
O 	O 	0.19992 0.59393 0.51932 -0.54200
O 	O 	0.12324 0.58550 0.07880 -0.71100
O 	O 	0.87590 0.43852 0.93694 -0.55200
O 	O 	0.12628 0.43976 0.50422 -0.71300
O 	O 	0.12822 0.52831 0.02341 -1.35800
O 	O 	0.92729 0.53023 0.02679 -1.21600
O 	O 	0.20717 0.02222 0.40740 -0.50300
O 	O 	0.11418 0.49325 0.89341 -0.60400
O 	O 	0.11953 0.49639 0.57415 -0.60500
O 	O 	0.17931 0.48756 0.41290 -0.65600
O 	O 	0.03877 0.48889 0.02178 -1.37600
O 	O 	0.11052 0.53287 0.09256 -0.59400
O 	O 	0.11978 0.91405 0.47000 -0.60400
O 	O 	0.88750 0.96072 0.51539 -0.53800
O 	O 	0.96669 0.43239 0.89281 -0.60000
O 	O 	0.28027 0.01534 0.52034 -0.55900
O 	O 	0.12420 0.10214 0.50542 -0.70700
O 	O 	0.94883 0.41991 0.99201 -0.50300
O 	O 	0.10502 0.60197 0.98853 -0.52500
O 	O 	0.87631 0.95901 0.41841 -0.53500
O 	O 	0.96983 0.91501 0.47236 -0.59800
O 	O 	0.17590 0.95863 0.52512 -0.53000
O 	O 	0.83547 0.43969 0.99264 -0.53900
O 	O 	0.35102 0.49268 0.42898 -0.09500
O 	O 	0.82269 0.57540 0.55527 -0.50900
O 	O 	0.96346 0.59423 0.09185 -0.60700
O 	O 	0.05341 0.98045 0.51834 -1.25300
O 	O 	0.97258 0.43361 0.51175 -0.59100
O 	O 	0.11617 0.59646 0.47656 -0.59700
F 	F 	0.42260 0.37810 0.14160 -0.27800
F 	F 	0.02938 0.27036 0.35670 -0.29200
F 	F 	0.33475 0.32138 0.08261 -0.24300
F 	F 	0.54006 0.27834 0.33744 -0.24200
F 	F 	0.69453 0.99206 0.71871 -0.22400
F 	F 	0.67883 0.63354 0.59106 -0.32100
F 	F 	0.87559 0.04846 0.65794 -0.30300
F 	F 	0.33029 0.85742 0.78629 -0.26900
F 	F 	0.63052 0.88227 0.21357 -0.25000
F 	F 	0.10988 0.05241 0.35601 -0.28600
F 	F 	0.39865 0.78703 0.76469 -0.21600
F 	F 	0.28719 0.99733 0.33964 -0.29100
F 	F 	0.63540 0.70273 0.05295 -0.29800
F 	F 	0.86643 0.14960 0.27686 -0.26900
F 	F 	0.83671 0.34716 0.92483 -0.35100
F 	F 	0.66143 0.22750 0.84608 -0.27200
F 	F 	0.73799 0.74187 0.08201 -0.28400
F 	F 	0.72321 0.91735 0.27178 -0.28900
F 	F 	0.37250 0.81041 0.12847 -0.23800
F 	F 	0.44899 0.43189 0.39333 -0.31900
F 	F 	0.99214 0.21869 0.28207 -0.24100
F 	F 	0.17146 0.73094 0.70344 -0.24800
F 	F 	0.46337 0.85419 0.78011 -0.25700
F 	F 	0.27168 0.06021 0.36957 -0.33200
F 	F 	0.70428 0.68430 0.98258 -0.29800
F 	F 	0.10441 0.66422 0.66226 -0.28200
F 	F 	0.84792 0.36346 0.34284 -0.27800
F 	F 	0.53420 0.89486 0.25632 -0.29800
F 	F 	0.72750 0.37925 0.95694 -0.35200
F 	F 	0.85543 0.94883 0.59665 -0.34900
F 	F 	0.50061 0.79492 0.04392 -0.25800
F 	F 	0.27227 0.67622 0.61528 -0.33000
F 	F 	0.27495 0.72114 0.01036 -0.24000
F 	F 	0.59298 0.12843 0.72371 -0.30300
F 	F 	0.45855 0.38386 0.44617 -0.35000
F 	F 	0.64593 0.36128 0.40431 -0.33100
F 	F 	0.70644 0.63000 0.67607 -0.30800
F 	F 	0.27855 0.33644 0.03214 -0.24200
F 	F 	0.56810 0.94744 0.67044 -0.23500
F 	F 	0.56281 0.68768 0.71347 -0.24700
F 	F 	0.76491 0.99448 0.61081 -0.29900
F 	F 	0.44162 0.07645 0.27216 -0.23700
F 	F 	0.69120 0.24883 0.32374 -0.26300
F 	F 	0.51257 0.83589 0.10570 -0.24600
F 	F 	0.53610 0.37082 0.35888 -0.27000
F 	F 	0.68720 0.68128 0.67056 -0.25100
F 	F 	0.55651 0.32721 0.41550 -0.35600
F 	F 	0.34055 0.73982 0.07995 -0.28000
F 	F 	0.29967 0.66987 0.03597 -0.32600
F 	F 	0.22265 0.34254 0.11691 -0.26000
F 	F 	0.41122 0.07794 0.68347 -0.29500
F 	F 	0.79344 0.01858 0.68920 -0.26300
F 	F 	0.70765 0.77710 0.03884 -0.23700
F 	F 	0.26440 0.66220 0.66163 -0.28200
F 	F 	0.98628 0.29011 0.30273 -0.24600
F 	F 	0.31200 0.79212 0.05719 -0.23300
F 	F 	0.61728 0.27181 0.94493 -0.26000
F 	F 	0.22439 0.99006 0.27454 -0.22300
F 	F 	0.72678 0.64423 0.01981 -0.33800
F 	F 	0.18770 0.80135 0.08051 -0.24400
F 	F 	0.55101 0.97282 0.28034 -0.23600
F 	F 	0.44691 0.33591 0.36890 -0.27900
F 	F 	0.61901 0.05661 0.66542 -0.28400
F 	F 	0.22298 0.87175 0.12622 -0.26300
F 	F 	0.40186 0.35556 0.19346 -0.31600
F 	F 	0.49117 0.10920 0.74538 -0.25400
F 	F 	0.90625 0.66497 0.98609 -0.26900
F 	F 	0.85779 0.29226 0.31892 -0.23700
F 	F 	0.64083 0.32111 0.91772 -0.31500
F 	F 	0.54346 0.76200 0.08602 -0.25200
F 	F 	0.70916 0.32928 0.98427 -0.27200
F 	F 	0.29747 0.79835 0.69377 -0.27000
F 	F 	0.47168 0.00618 0.62125 -0.28300
F 	F 	0.95695 0.13041 0.30393 -0.27600
F 	F 	0.62379 0.93786 0.31411 -0.31800
F 	F 	0.12173 0.66493 0.98542 -0.28000
F 	F 	0.63262 0.12044 0.78377 -0.27300
F 	F 	0.72539 0.23867 0.91346 -0.25200
F 	F 	0.10075 0.68762 0.62316 -0.30200
F 	F 	0.02688 0.34152 0.37610 -0.32800
F 	F 	0.38674 0.00871 0.29782 -0.26600
F 	F 	0.48153 0.87330 0.18458 -0.26900
F 	F 	0.82896 0.68212 0.05262 -0.33200
F 	F 	0.99646 0.14700 0.26198 -0.26300
F 	F 	0.21825 0.74961 0.10541 -0.29900
F 	F 	0.80413 0.62802 0.95249 -0.32900
F 	F 	0.74798 0.28800 0.88529 -0.31000
F 	F 	0.60240 0.73890 0.01285 -0.24900
F 	F 	0.34955 0.86274 0.10517 -0.24600
F 	F 	0.53400 0.90921 0.70833 -0.27400
F 	F 	0.63080 0.18017 0.87553 -0.27000
F 	F 	0.64731 0.80156 0.11042 -0.24000
F 	F 	0.40047 0.97874 0.55726 -0.31500
F 	F 	0.11200 0.36664 0.01176 -0.26200
F 	F 	0.16466 0.35525 0.06535 -0.25500
F 	F 	0.33083 0.04179 0.62475 -0.33200
F 	F 	0.64218 0.89590 0.65393 -0.27100
F 	F 	0.54440 0.92241 0.18610 -0.24600
F 	F 	0.86985 0.96734 0.66974 -0.25200
F 	F 	0.30215 0.41011 0.04567 -0.33300
F 	F 	0.45181 0.78603 0.71397 -0.23300
F 	F 	0.49980 0.10592 0.66447 -0.34000
F 	F 	0.22973 0.35650 0.98198 -0.32000
F 	F 	0.43011 0.69453 0.75172 -0.27200
F 	F 	0.60683 0.83354 0.06583 -0.25400
F 	F 	0.35707 0.39323 0.39522 -0.31800
F 	F 	0.86279 0.22135 0.29735 -0.23700
F 	F 	0.76736 0.93946 0.69802 -0.25100
F 	F 	0.35462 0.43719 0.47455 -0.37400
F 	F 	0.15201 0.73283 0.03547 -0.24000
F 	F 	0.90083 0.34275 0.39500 -0.34000
F 	F 	0.32765 0.99084 0.22807 -0.20600
F 	F 	0.70371 0.58437 0.59909 -0.35000
F 	F 	0.69357 0.07769 0.73095 -0.28800
F 	F 	0.03137 0.19919 0.33680 -0.26900
F 	F 	0.53675 0.04129 0.60191 -0.30700
F 	F 	0.24708 0.79592 0.74328 -0.24800
F 	F 	0.97506 0.36400 0.32568 -0.28800
F 	F 	0.48444 0.01789 0.25349 -0.22900
F 	F 	0.43697 0.02116 0.54072 -0.33600
F 	F 	0.70943 0.98180 0.37142 -0.33800
F 	F 	0.42949 0.99360 0.18118 -0.22500
F 	F 	0.44705 0.93217 0.22781 -0.26400
F 	F 	0.65217 0.95814 0.23948 -0.22800
F 	F 	0.52249 0.21487 0.90527 -0.28600
F 	F 	0.76586 0.05115 0.38385 -0.32700
F 	F 	0.63065 0.31230 0.32688 -0.23000
F 	F 	0.83782 0.63422 0.64932 -0.30000
F 	F 	0.53095 0.18568 0.84227 -0.28700
F 	F 	0.31114 0.40055 0.17602 -0.30500
F 	F 	0.55429 0.26220 0.87652 -0.29000
F 	F 	0.36185 0.39346 0.09281 -0.30100
F 	F 	0.57381 0.62963 0.70588 -0.31000
F 	F 	0.19991 0.74339 0.65728 -0.27800
F 	F 	0.81504 0.66675 0.61975 -0.29400
F 	F 	0.17539 0.68121 0.05969 -0.34300
F 	F 	0.51368 0.04258 0.20334 -0.25600
F 	F 	0.55046 0.41866 0.43765 -0.31100
F 	F 	0.65883 0.01311 0.32984 -0.28900
F 	F 	0.76385 0.98922 0.29088 -0.22900
F 	F 	0.36566 0.72859 0.66610 -0.26200
F 	F 	0.42129 0.66826 0.67427 -0.22900
F 	F 	0.56730 0.59761 0.62904 -0.30900
F 	F 	0.33119 0.65351 0.72141 -0.31400
F 	F 	0.64867 0.26739 0.38230 -0.35500
F 	F 	0.18516 0.42727 0.07684 -0.35900
F 	F 	0.81191 0.95295 0.33150 -0.33800
F 	F 	0.74464 0.92229 0.62381 -0.30700
F 	F 	0.90190 0.20164 0.35168 -0.26800
F 	F 	0.35514 0.06959 0.32113 -0.27600
F 	F 	0.12187 0.98945 0.32241 -0.25800
F 	F 	0.65880 0.91872 0.73107 -0.27200
F 	F 	0.43167 0.60901 0.66257 -0.32500
F 	F 	0.24782 0.82017 0.15124 -0.26700
F 	F 	0.86831 0.02197 0.34475 -0.26700
F 	F 	0.81670 0.29706 0.95124 -0.25400
F 	F 	0.32443 0.88492 0.16644 -0.25500
F 	F 	0.19772 0.05195 0.30306 -0.24900
F 	F 	0.57861 0.96809 0.74512 -0.25400
F 	F 	0.73967 0.30187 0.37228 -0.32300
F 	F 	0.39236 0.07956 0.60740 -0.36900
F 	F 	0.59051 0.06055 0.75447 -0.26700
F 	F 	0.79476 0.39138 0.02359 -0.28900
F 	F 	0.96600 0.00284 0.64401 -0.29500
F 	F 	0.38302 0.05182 0.19947 -0.26600
F 	F 	0.28750 0.05052 0.25019 -0.24500
F 	F 	0.52692 0.03325 0.68802 -0.25400
F 	F 	0.44615 0.47552 0.47206 -0.32400
F 	F 	0.38783 0.85640 0.73614 -0.27700
F 	F 	0.90244 0.35744 0.99250 -0.27000
F 	F 	0.24830 0.41367 0.12603 -0.32000
F 	F 	0.39312 0.30756 0.13408 -0.27600
F 	F 	0.24672 0.64558 0.96551 -0.31400
F 	F 	0.28230 0.33071 0.16936 -0.29400
F 	F 	0.43940 0.63471 0.73961 -0.35800
F 	F 	0.80802 0.72174 0.01342 -0.23500
F 	F 	0.66866 0.97393 0.64376 -0.25000
F 	F 	0.32600 0.72578 0.71706 -0.23600
F 	F 	0.90078 0.27253 0.37283 -0.28500
F 	F 	0.54777 0.65394 0.63364 -0.27100
